
#######################################################################
#
#                 Cambridge Crystallographic Data Centre
#                                CCDC 
#
#######################################################################
#
# If this CIF has been generated from an entry in the Cambridge 
# Structural Database, then it will include bibliographic, chemical, 
# crystal, experimental, refinement or atomic coordinate data resulting 
# from the CCDC's data processing and validation procedures.
#
#######################################################################

data_OTUFEP
_symmetry_cell_setting           triclinic
_symmetry_space_group_name_H-M   'P -1'
_symmetry_Int_Tables_number      2
_space_group_name_Hall           '-P 1'
loop_
_symmetry_equiv_pos_site_id
_symmetry_equiv_pos_as_xyz
1 x,y,z
2 -x,-y,-z
_cell_length_a                   7.1113(3)
_cell_length_b                   13.3625(5)
_cell_length_c                   13.6784(5)
_cell_angle_alpha                102.423(2)
_cell_angle_beta                 104.864(2)
_cell_angle_gamma                101.286(2)
_cell_volume                     1182.74
loop_
_atom_site_label
_atom_site_type_symbol
_atom_site_fract_x
_atom_site_fract_y
_atom_site_fract_z
U1 U -0.47955(6) -0.08760(3) 0.09520(3)
U2 U -0.49568(6) -0.59159(3) -0.41530(3)
U3 U -0.31267(6) -0.28292(3) -0.27472(3)
O1 O -0.5582(14) -0.2781(7) -0.2703(7)
O2 O -0.2426(13) -0.5919(7) -0.4078(7)
O3 O -0.7485(14) -0.5962(7) -0.4163(7)
O4 O -0.2114(13) -0.2520(6) -0.0884(6)
O5 O -0.7742(13) 0.0940(6) 0.2317(6)
O6 O -0.4345(15) -0.4201(6) -0.4176(6)
O7 O -0.3713(16) -0.4488(6) -0.2287(6)
O8 O -0.6135(14) 0.2252(6) 0.4349(6)
O9 O -0.5442(15) 0.0018(7) 0.2474(6)
O10 O -0.2167(14) -0.0266(8) 0.1502(8)
O11 O -0.4043(17) -0.2449(7) 0.0142(7)
O12 O -0.0619(15) -0.2824(8) -0.2725(8)
O13 O -0.4582(18) -0.0699(7) -0.0659(7)
O14 O -0.7425(16) -0.1512(9) 0.0418(8)
O15 O -0.446(2) -0.1983(7) 0.2157(7)
O16 O -0.5856(14) 0.2155(6) 0.5928(6)
O17 O -0.4040(15) -0.6113(6) -0.2280(6)
C1 C -0.3559(17) -0.5156(7) -0.1765(8)
C2 C -0.6821(18) 0.0340(7) 0.2730(8)
C3 C -0.2953(16) -0.2867(7) -0.0267(7)
C4 C -0.6363(16) 0.1690(8) 0.4971(8)
C5 C -0.2806(16) -0.4830(8) -0.0596(8)
C6 C -0.2523(16) -0.3839(8) 0.0065(8)
C7 C -0.7202(14) 0.0503(8) 0.4579(8)
C8 C -0.7473(17) -0.0084(8) 0.3571(9)
C9 C -0.7748(19) -0.0030(10) 0.5287(10)
H1 H -0.7637 0.0366 0.5958
C10 C -0.2373(17) -0.5658(9) -0.0138(9)
H2 H -0.2536 -0.6329 -0.0573
C11 C -0.171(2) -0.5472(10) 0.0948(9)
H3 H -0.1452 -0.6019 0.1237
C12 C -0.145(2) -0.4487(11) 0.1591(9)
H4 H -0.0965 -0.4358 0.2318
C13 C -0.843(2) -0.1099(10) 0.5025(11)
H5 H -0.8688 -0.1437 0.5522
C14 C -0.1892(19) -0.3676(9) 0.1159(8)
H6 H -0.1769 -0.3016 0.1603
C15 C -0.8229(19) -0.1189(9) 0.3280(11)
H7 H -0.8399 -0.1589 0.2602
C16 C -0.873(2) -0.1687(9) 0.4005(12)
H8 H -0.9264 -0.2420 0.3806
U1A U -0.52045(6) 0.08760(3) -0.09520(3)
U1_2 U -0.47955(6) -1.08760(3) -0.90480(3)
U2_2 U -0.49568(6) 0.40841(3) 0.58470(3)
U2A U -0.50432(6) -0.40841(3) -0.58470(3)
U2A_2 U -0.50432(6) 0.59159(3) 0.41530(3)
U3A U -0.68733(6) 0.28292(3) 0.27472(3)
U3A_2 U -0.68733(6) -0.71708(3) -0.72528(3)
O1A O -0.4418(14) 0.2781(7) 0.2703(7)
O2_2 O -0.2426(13) 0.4081(7) 0.5922(7)
O3_2 O -0.7485(14) 0.4038(7) 0.5837(7)
O4A O -0.7886(13) 0.2520(6) 0.0884(6)
O5_2 O -0.7742(13) -0.9060(6) -0.7683(6)
O5A O -0.2258(13) -0.0940(6) -0.2317(6)
O6A O -0.5655(15) -0.5799(6) -0.5824(6)
O6_2 O -0.4345(15) 0.5799(6) 0.5824(6)
O6A_2 O -0.5655(15) 0.4201(6) 0.4176(6)
O7A O -0.6287(16) 0.4488(6) 0.2287(6)
O7_2 O -0.3713(16) 0.5512(6) 0.7713(6)
O8_2 O -0.6135(14) -0.7748(6) -0.5651(6)
O8A O -0.3865(14) -0.2252(6) -0.4349(6)
O9_2 O -0.5442(15) -0.9982(7) -0.7526(6)
O9A O -0.4558(15) -0.0018(7) -0.2474(6)
O10A O -0.7833(14) 0.0266(8) -0.1502(8)
O11A O -0.5957(17) 0.2449(7) -0.0142(7)
O12A O -0.9381(15) 0.2824(8) 0.2725(8)
O13A O -0.5418(18) 0.0699(7) 0.0659(7)
O14A O -0.2575(16) 0.1512(9) -0.0418(8)
O15A O -0.554(2) 0.1983(7) -0.2157(7)
O16_2 O -0.5856(14) -0.7845(6) -0.4072(6)
O17A O -0.5960(15) 0.6113(6) 0.2280(6)
O17_2 O -0.4040(15) 0.3887(6) 0.7720(6)
C1A C -0.6441(17) 0.5156(7) 0.1765(8)
C2_2 C -0.6821(18) -0.9660(7) -0.7270(8)
C3A C -0.7047(16) 0.2867(7) 0.0267(7)
C4_2 C -0.6363(16) -0.8310(8) -0.5029(8)
C5A C -0.7194(16) 0.4830(8) 0.0596(8)
C6A C -0.7477(16) 0.3839(8) -0.0065(8)
C7_2 C -0.7202(14) -0.9497(8) -0.5421(8)
C8_2 C -0.7473(17) -1.0084(8) -0.6429(9)
C9_2 C -0.7748(19) -1.0030(10) -0.4713(10)
H1_2 H -0.7637 -0.9634 -0.4042
C10A C -0.7627(17) 0.5658(9) 0.0138(9)
H2A H -0.7464 0.6329 0.0573
C11A C -0.829(2) 0.5472(10) -0.0948(9)
H3A H -0.8548 0.6019 -0.1237
C12A C -0.855(2) 0.4487(11) -0.1591(9)
H4A H -0.9035 0.4358 -0.2318
C13_2 C -0.843(2) -1.1099(10) -0.4975(11)
H5_2 H -0.8688 -1.1437 -0.4478
C14A C -0.8108(19) 0.3676(9) -0.1159(8)
H6A H -0.8231 0.3016 -0.1603
C15_2 C -0.8229(19) -1.1189(9) -0.6720(11)
H7_2 H -0.8399 -1.1589 -0.7398
C16_2 C -0.873(2) -1.1687(9) -0.5995(12)
H8_2 H -0.9264 -1.2420 -0.6194
K1 K 0.0000 0.0000 0.0000
K2 K 1.0654(8) 0.5720(4) 0.5732(4)
loop_
_geom_bond_atom_site_label_1
_geom_bond_atom_site_label_2
_geom_bond_site_symmetry_1
_geom_bond_site_symmetry_2
U1 O9 1_555 1_555
U2 O2 1_555 1_555
U3 O1 1_555 1_555
O3 U2 1_555 1_555
O4 U3 1_555 1_555
O5 C2 1_555 1_555
O6 U2 1_555 1_555
O7 U2 1_555 1_555
O8 C4 1_555 1_555
O9 C2 1_555 1_555
O10 U1 1_555 1_555
O11 U1 1_555 1_555
O12 U3 1_555 1_555
O13 U1 1_555 1_555
O14 U1 1_555 1_555
O15 U1 1_555 1_555
O16 C4 1_555 1_555
O17 U2 1_555 1_555
C1 O7 1_555 1_555
C2 C8 1_555 1_555
C3 O4 1_555 1_555
C4 C7 1_555 1_555
C5 C1 1_555 1_555
C6 C3 1_555 1_555
C7 C8 1_555 1_555
C8 C15 1_555 1_555
C9 C7 1_555 1_555
H1 C9 1_555 1_555
C10 C5 1_555 1_555
H2 C10 1_555 1_555
C11 C10 1_555 1_555
H3 C11 1_555 1_555
C12 C11 1_555 1_555
H4 C12 1_555 1_555
C13 C9 1_555 1_555
H5 C13 1_555 1_555
C14 C6 1_555 1_555
H6 C14 1_555 1_555
C15 H7 1_555 1_555
C16 C13 1_555 1_555
H8 C16 1_555 1_555
U1A O13 1_555 1_555
U1_2 O9_2 1_555 1_555
U2_2 O8 1_555 1_555
U2A O6 1_555 1_555
U2A_2 O6_2 1_555 1_555
U3A O5 1_555 1_555
U3A_2 O5_2 1_555 1_555
O1A U3A 1_555 1_555
O2_2 U2_2 1_555 1_555
O3_2 U2_2 1_555 1_555
O4A U3A 1_555 1_555
O5_2 C2_2 1_555 1_555
O5A U3 1_555 1_555
O6A U2 1_555 1_555
O6_2 U2_2 1_555 1_555
O6A_2 U2_2 1_555 1_555
O7A U2A_2 1_555 1_555
O7_2 U2_2 1_555 1_555
O8_2 U2 1_555 1_555
O8A U3 1_555 1_555
O9_2 C2_2 1_555 1_555
O9A U1A 1_555 1_555
O10A U1A 1_555 1_555
O11A U1A 1_555 1_555
O12A U3A 1_555 1_555
O13A U1 1_555 1_555
O14A U1A 1_555 1_555
O15A U1A 1_555 1_555
O16_2 U2 1_555 1_555
O17A U2A_2 1_555 1_555
O17_2 U2_2 1_555 1_555
C1A O7A 1_555 1_555
C2_2 C8_2 1_555 1_555
C3A O4A 1_555 1_555
C4_2 O8_2 1_555 1_555
C5A C1A 1_555 1_555
C6A C3A 1_555 1_555
C7_2 C4_2 1_555 1_555
C8_2 C7_2 1_555 1_555
C9_2 C7_2 1_555 1_555
H1_2 C9_2 1_555 1_555
C10A C5A 1_555 1_555
H2A C10A 1_555 1_555
C11A C10A 1_555 1_555
H3A C11A 1_555 1_555
C12A C11A 1_555 1_555
H4A C12A 1_555 1_555
C13_2 C9_2 1_555 1_555
H5_2 C13_2 1_555 1_555
C14A C6A 1_555 1_555
H6A C14A 1_555 1_555
C15_2 C8_2 1_555 1_555
H7_2 C15_2 1_555 1_555
C16_2 C13_2 1_555 1_555
H8_2 C16_2 1_555 1_555
U3 O6 1_555 1_555
U3 O7 1_555 1_555
O8 U3A 1_555 1_555
O11 C3 1_555 1_555
O16 U2_2 1_555 1_555
O17 C1 1_555 1_555
C5 C6 1_555 1_555
C12 C14 1_555 1_555
C15 C16 1_555 1_555
U1A O13A 1_555 1_555
U2A O6A 1_555 1_555
U2A O8A 1_555 1_555
U2A_2 O6A_2 1_555 1_555
U3A O6A_2 1_555 1_555
U3A O7A 1_555 1_555
U3A_2 O6A 1_555 1_555
U3A_2 O8_2 1_555 1_555
O11A C3A 1_555 1_555
O16_2 C4_2 1_555 1_555
O17A C1A 1_555 1_555
C5A C6A 1_555 1_555
C12A C14A 1_555 1_555
C15_2 C16_2 1_555 1_555

#END
