
#######################################################################
#
#                 Cambridge Crystallographic Data Centre
#                                CCDC 
#
#######################################################################
#
# If this CIF has been generated from an entry in the Cambridge 
# Structural Database, then it will include bibliographic, chemical, 
# crystal, experimental, refinement or atomic coordinate data resulting 
# from the CCDC's data processing and validation procedures.
#
#######################################################################

data_OTUFIT
_symmetry_cell_setting           triclinic
_symmetry_space_group_name_H-M   'P -1'
_symmetry_Int_Tables_number      2
_space_group_name_Hall           '-P 1'
loop_
_symmetry_equiv_pos_site_id
_symmetry_equiv_pos_as_xyz
1 x,y,z
2 -x,-y,-z
_cell_length_a                   7.2962(3)
_cell_length_b                   13.3376(4)
_cell_length_c                   13.6850(4)
_cell_angle_alpha                102.294(2)
_cell_angle_beta                 105.175(2)
_cell_angle_gamma                101.557(2)
_cell_volume                     1208.64
loop_
_atom_site_label
_atom_site_type_symbol
_atom_site_fract_x
_atom_site_fract_y
_atom_site_fract_z
U1 U 0.52101(3) -0.088039(13) 0.095638(13)
U2 U 0.50507(3) -0.592000(12) -0.414960(12)
U3 U 0.68687(3) -0.281740(13) -0.274450(12)
O1 O 0.4477(6) -0.2761(3) -0.2691(3)
O2 O 0.7516(7) -0.5934(3) -0.4071(3)
O3 O 0.2585(7) -0.5978(3) -0.4147(3)
O4 O 0.7877(6) -0.2516(3) -0.0887(3)
O5 O 0.2279(6) 0.0921(3) 0.2326(3)
O6 O 0.5649(8) -0.4200(3) -0.4177(3)
O7 O 0.6291(7) -0.4480(3) -0.2286(3)
O8 O 0.3865(7) 0.2240(3) 0.4347(3)
O9 O 0.4466(7) -0.0023(3) 0.2454(3)
O10 O 0.7741(6) -0.0215(4) 0.1563(4)
O11 O 0.6044(7) -0.2412(3) 0.0178(3)
O12 O 0.9304(7) -0.2810(4) -0.2722(4)
O13 O 0.5478(7) -0.0677(3) -0.0646(3)
O14 O 0.2681(6) -0.1569(4) 0.0375(4)
O15 O 0.5585(8) -0.1984(3) 0.2166(3)
O16 O 0.4163(7) 0.2152(3) 0.5933(3)
O17 O 0.5953(7) -0.6111(3) -0.2277(3)
C1 C 0.6474(8) -0.5154(4) -0.1765(3)
C2 C 0.3154(8) 0.0310(4) 0.2734(3)
C3 C 0.7091(8) -0.2860(3) -0.0253(3)
C4 C 0.3640(7) 0.1678(3) 0.4971(3)
C5 C 0.7229(7) -0.4838(4) -0.0584(3)
C6 C 0.7476(7) -0.3830(4) 0.0075(3)
C7 C 0.2807(7) 0.0501(3) 0.4589(4)
C8 C 0.2557(8) -0.0114(3) 0.3575(4)
C9 C 0.2300(8) -0.0021(4) 0.5302(4)
H1 H 0.2473 0.0377 0.5982
C10 C 0.7642(8) -0.5650(4) -0.0138(4)
H2 H 0.7481 -0.6319 -0.0578
C11 C 0.8282(9) -0.5484(5) 0.0942(4)
H3 H 0.8544 -0.6033 0.1227
C12 C 0.8528(9) -0.4490(5) 0.1590(4)
H4 H 0.8981 -0.4364 0.2318
C13 C 0.1540(9) -0.1122(4) 0.5020(5)
H5 H 0.1206 -0.1456 0.5505
C14 C 0.8100(8) -0.3671(4) 0.1162(4)
H6 H 0.8234 -0.3010 0.1609
C15 C 0.1817(9) -0.1215(4) 0.3310(5)
H7 H 0.1674 -0.1626 0.2640
C16 C 0.1292(9) -0.1708(4) 0.4021(5)
H8 H 0.0765 -0.2443 0.3821
U1A U 0.47899(3) 0.088039(13) -0.095638(13)
U1_2 U 0.52101(3) -1.088039(13) -0.904362(13)
U2_2 U 0.50507(3) 0.408000(12) 0.585040(12)
U2A U 0.49493(3) -0.408000(12) -0.585040(12)
U2A_2 U 0.49493(3) 0.592000(12) 0.414960(12)
U3A U 0.31313(3) 0.281740(13) 0.274450(12)
U3A_2 U 0.31313(3) -0.718260(13) -0.725550(12)
O1A O 0.5523(6) 0.2761(3) 0.2691(3)
O2_2 O 0.7516(7) 0.4066(3) 0.5929(3)
O3_2 O 0.2585(7) 0.4022(3) 0.5853(3)
O4A O 0.2123(6) 0.2516(3) 0.0887(3)
O5_2 O 0.2279(6) -0.9079(3) -0.7674(3)
O5A O 0.7721(6) -0.0921(3) -0.2326(3)
O6A O 0.4351(8) -0.5800(3) -0.5823(3)
O6_2 O 0.5649(8) 0.5800(3) 0.5823(3)
O6A_2 O 0.4351(8) 0.4200(3) 0.4177(3)
O7A O 0.3709(7) 0.4480(3) 0.2286(3)
O7_2 O 0.6291(7) 0.5520(3) 0.7714(3)
O8_2 O 0.3865(7) -0.7760(3) -0.5653(3)
O8A O 0.6135(7) -0.2240(3) -0.4347(3)
O9_2 O 0.4466(7) -1.0023(3) -0.7546(3)
O9A O 0.5534(7) 0.0023(3) -0.2454(3)
O10A O 0.2259(6) 0.0215(4) -0.1563(4)
O11A O 0.3956(7) 0.2412(3) -0.0178(3)
O12A O 0.0696(7) 0.2810(4) 0.2722(4)
O13A O 0.4522(7) 0.0677(3) 0.0646(3)
O14A O 0.7319(6) 0.1569(4) -0.0375(4)
O15A O 0.4415(8) 0.1984(3) -0.2166(3)
O16_2 O 0.4163(7) -0.7848(3) -0.4067(3)
O17A O 0.4047(7) 0.6111(3) 0.2277(3)
O17_2 O 0.5953(7) 0.3889(3) 0.7723(3)
C1A C 0.3526(8) 0.5154(4) 0.1765(3)
C2_2 C 0.3154(8) -0.9690(4) -0.7266(3)
C3A C 0.2909(8) 0.2860(3) 0.0253(3)
C4_2 C 0.3640(7) -0.8322(3) -0.5029(3)
C5A C 0.2771(7) 0.4838(4) 0.0584(3)
C6A C 0.2524(7) 0.3830(4) -0.0075(3)
C7_2 C 0.2807(7) -0.9499(3) -0.5411(4)
C8_2 C 0.2557(8) -1.0114(3) -0.6425(4)
C9_2 C 0.2300(8) -1.0021(4) -0.4698(4)
H1_2 H 0.2473 -0.9623 -0.4018
C10A C 0.2358(8) 0.5650(4) 0.0138(4)
H2A H 0.2519 0.6319 0.0578
C11A C 0.1718(9) 0.5484(5) -0.0942(4)
H3A H 0.1456 0.6033 -0.1227
C12A C 0.1472(9) 0.4490(5) -0.1590(4)
H4A H 0.1019 0.4364 -0.2318
C13_2 C 0.1540(9) -1.1122(4) -0.4980(5)
H5_2 H 0.1206 -1.1456 -0.4495
C14A C 0.1900(8) 0.3671(4) -0.1162(4)
H6A H 0.1766 0.3010 -0.1609
C15_2 C 0.1817(9) -1.1215(4) -0.6690(5)
H7_2 H 0.1674 -1.1626 -0.7360
C16_2 C 0.1292(9) -1.1708(4) -0.5979(5)
H8_2 H 0.0765 -1.2443 -0.6179
N1 N 1.0000 1.0000 0.0000
N2 N 1.0683(12) 0.5765(7) 0.5783(7)
loop_
_geom_bond_atom_site_label_1
_geom_bond_atom_site_label_2
_geom_bond_site_symmetry_1
_geom_bond_site_symmetry_2
U1 O9 1_555 1_555
U2 O2 1_555 1_555
U3 O1 1_555 1_555
O3 U2 1_555 1_555
O4 U3 1_555 1_555
O5 C2 1_555 1_555
O6 U2 1_555 1_555
O7 U2 1_555 1_555
O8 C4 1_555 1_555
O9 C2 1_555 1_555
O10 U1 1_555 1_555
O11 U1 1_555 1_555
O12 U3 1_555 1_555
O13 U1 1_555 1_555
O14 U1 1_555 1_555
O15 U1 1_555 1_555
O16 C4 1_555 1_555
O17 U2 1_555 1_555
C1 O7 1_555 1_555
C2 C8 1_555 1_555
C3 O4 1_555 1_555
C4 C7 1_555 1_555
C5 C1 1_555 1_555
C6 C3 1_555 1_555
C7 C8 1_555 1_555
C8 C15 1_555 1_555
C9 C7 1_555 1_555
H1 C9 1_555 1_555
C10 C5 1_555 1_555
H2 C10 1_555 1_555
C11 C10 1_555 1_555
H3 C11 1_555 1_555
C12 C11 1_555 1_555
H4 C12 1_555 1_555
C13 C9 1_555 1_555
H5 C13 1_555 1_555
C14 C6 1_555 1_555
H6 C14 1_555 1_555
C15 H7 1_555 1_555
C16 C13 1_555 1_555
H8 C16 1_555 1_555
U1A O13 1_555 1_555
U1_2 O9_2 1_555 1_555
U2_2 O8 1_555 1_555
U2A O6 1_555 1_555
U2A_2 O6_2 1_555 1_555
U3A O5 1_555 1_555
U3A_2 O5_2 1_555 1_555
O1A U3A 1_555 1_555
O2_2 U2_2 1_555 1_555
O3_2 U2_2 1_555 1_555
O4A U3A 1_555 1_555
O5_2 C2_2 1_555 1_555
O5A U3 1_555 1_555
O6A U2 1_555 1_555
O6_2 U2_2 1_555 1_555
O6A_2 U2_2 1_555 1_555
O7A U2A_2 1_555 1_555
O7_2 U2_2 1_555 1_555
O8_2 U2 1_555 1_555
O8A U3 1_555 1_555
O9_2 C2_2 1_555 1_555
O9A U1A 1_555 1_555
O10A U1A 1_555 1_555
O11A U1A 1_555 1_555
O12A U3A 1_555 1_555
O13A U1 1_555 1_555
O14A U1A 1_555 1_555
O15A U1A 1_555 1_555
O16_2 U2 1_555 1_555
O17A U2A_2 1_555 1_555
O17_2 U2_2 1_555 1_555
C1A O7A 1_555 1_555
C2_2 C8_2 1_555 1_555
C3A O4A 1_555 1_555
C4_2 O8_2 1_555 1_555
C5A C1A 1_555 1_555
C6A C3A 1_555 1_555
C7_2 C4_2 1_555 1_555
C8_2 C7_2 1_555 1_555
C9_2 C7_2 1_555 1_555
H1_2 C9_2 1_555 1_555
C10A C5A 1_555 1_555
H2A C10A 1_555 1_555
C11A C10A 1_555 1_555
H3A C11A 1_555 1_555
C12A C11A 1_555 1_555
H4A C12A 1_555 1_555
C13_2 C9_2 1_555 1_555
H5_2 C13_2 1_555 1_555
C14A C6A 1_555 1_555
H6A C14A 1_555 1_555
C15_2 C8_2 1_555 1_555
H7_2 C15_2 1_555 1_555
C16_2 C13_2 1_555 1_555
H8_2 C16_2 1_555 1_555
U3 O6 1_555 1_555
U3 O7 1_555 1_555
O8 U3A 1_555 1_555
O11 C3 1_555 1_555
O16 U2_2 1_555 1_555
O17 C1 1_555 1_555
C5 C6 1_555 1_555
C12 C14 1_555 1_555
C15 C16 1_555 1_555
U1A O13A 1_555 1_555
U2A O6A 1_555 1_555
U2A O8A 1_555 1_555
U2A_2 O6A_2 1_555 1_555
U3A O6A_2 1_555 1_555
U3A O7A 1_555 1_555
U3A_2 O6A 1_555 1_555
U3A_2 O8_2 1_555 1_555
O11A C3A 1_555 1_555
O16_2 C4_2 1_555 1_555
O17A C1A 1_555 1_555
C5A C6A 1_555 1_555
C12A C14A 1_555 1_555
C15_2 C16_2 1_555 1_555

#END
