
#######################################################################
#
#                 Cambridge Crystallographic Data Centre
#                                CCDC 
#
#######################################################################
#
# If this CIF has been generated from an entry in the Cambridge 
# Structural Database, then it will include bibliographic, chemical, 
# crystal, experimental, refinement or atomic coordinate data resulting 
# from the CCDC's data processing and validation procedures.
#
#######################################################################

data_OTUFUF
_symmetry_cell_setting           orthorhombic
_symmetry_space_group_name_H-M   'F d d 2'
_symmetry_Int_Tables_number      43
_space_group_name_Hall           'F 2 -2d'
loop_
_symmetry_equiv_pos_site_id
_symmetry_equiv_pos_as_xyz
1 x,y,z
2 -x,-y,z
3 1/4+x,1/4-y,1/4+z
4 1/4-x,1/4+y,1/4+z
5 x,1/2+y,1/2+z
6 -x,1/2-y,1/2+z
7 1/4+x,3/4-y,3/4+z
8 1/4-x,3/4+y,3/4+z
9 1/2+x,y,1/2+z
10 1/2-x,-y,1/2+z
11 3/4+x,1/4-y,3/4+z
12 3/4-x,1/4+y,3/4+z
13 1/2+x,1/2+y,z
14 1/2-x,1/2-y,z
15 3/4+x,3/4-y,1/4+z
16 3/4-x,3/4+y,1/4+z
_cell_length_a                   61.687(7)
_cell_length_b                   9.1115(10)
_cell_length_c                   19.530(2)
_cell_angle_alpha                90
_cell_angle_beta                 90
_cell_angle_gamma                90
_cell_volume                     10977.1
loop_
_atom_site_label
_atom_site_type_symbol
_atom_site_fract_x
_atom_site_fract_y
_atom_site_fract_z
Eu1 Eu 0.5000 -0.5000 0.21243(2)
Ni1 Ni 0.449210(13) -0.00431(9) 0.12554(4)
S1 S 0.38333(3) -0.4129(2) 0.30834(10)
S2 S 0.37792(3) -0.3032(2) 0.39692(10)
O1 O 0.49663(9) -0.3093(6) 0.3000(3)
O2 O 0.48039(11) -0.1878(6) 0.3841(3)
O3 O 0.46520(8) -0.4898(5) 0.2831(3)
O4 O 0.52943(8) -0.3329(5) 0.1825(3)
O5 O 0.56088(8) -0.2175(5) 0.1989(3)
O6 O 0.46464(9) -0.1989(6) 0.0635(3)
O7 O 0.47983(9) -0.3088(5) 0.1539(3)
O8 O 0.5000 -0.5000 0.0826(3)
N1 N 0.42972(10) -0.1317(6) 0.1836(3)
N2 N 0.42557(9) -0.4659(6) 0.5568(3)
C1 C 0.48147(14) -0.2893(8) 0.3419(4)
C2 C 0.46359(13) -0.4001(8) 0.3422(4)
H1 H 0.4646 -0.4603 0.3831
H2 H 0.4497 -0.3504 0.3427
C3 C 0.54698(10) -0.3115(7) 0.2138(4)
C4 C 0.55132(12) -0.4049(8) 0.2758(4)
H3 H 0.5652 -0.4537 0.2709
H4 H 0.5519 -0.3435 0.3163
C5 C 0.47617(12) -0.2956(8) 0.0901(4)
C6 C 0.48688(12) -0.4008(8) 0.0424(4)
H5 H 0.4760 -0.4554 0.0170
H6 H 0.4959 -0.3481 0.0100
C7 C 0.42124(13) -0.2581(7) 0.1594(4)
H7 H 0.4249 -0.2891 0.1156
C8 C 0.40754(12) -0.3411(7) 0.1977(4)
H8 H 0.4019 -0.4269 0.1790
C9 C 0.40181(11) -0.3019(7) 0.2631(3)
C10 C 0.41121(13) -0.1750(8) 0.2891(4)
H9 H 0.4083 -0.1446 0.3335
C11 C 0.42508(12) -0.0944(8) 0.2477(4)
H10 H 0.4314 -0.0102 0.2658
C12 C 0.41148(12) -0.3547(8) 0.5669(4)
H11 H 0.4118 -0.3067 0.6089
C13 C 0.39694(12) -0.3087(8) 0.5196(4)
H12 H 0.3872 -0.2341 0.5299
C14 C 0.39686(10) -0.3747(7) 0.4557(3)
C15 C 0.41066(12) -0.4926(8) 0.4446(4)
H13 H 0.4104 -0.5440 0.4035
C16 C 0.42464(13) -0.5313(8) 0.4961(4)
H14 H 0.4341 -0.6086 0.4879
O9 O 0.47320(8) -0.0273(5) 0.1911(3)
H15 H 0.4795 -0.1047 0.1834
H16 H 0.4723 -0.0108 0.2329
O10 O 0.46790(8) 0.1417(6) 0.0766(2)
H17 H 0.4614 0.1741 0.0432
H18 H 0.4713 0.2082 0.1040
Ni1D Ni 0.449210(13) -0.50431(9) 0.62554(4)
Ni1A Ni 0.550790(13) 0.00431(9) 0.12554(4)
Ni1D_2 Ni 0.449210(13) 0.49569(9) -0.37446(4)
Ni1_2 Ni 0.449210(13) -1.00431(9) 0.12554(4)
Ni1A_2 Ni 0.550790(13) -0.99569(9) 0.12554(4)
S1D S 0.38333(3) 0.0871(2) -0.19166(10)
S2D S 0.37792(3) 0.1968(2) -0.10308(10)
O1A O 0.50337(9) -0.6907(6) 0.3000(3)
O2A O 0.51961(11) -0.8122(6) 0.3841(3)
O3A O 0.53480(8) -0.5102(5) 0.2831(3)
O4A O 0.47057(8) -0.6671(5) 0.1825(3)
O5A O 0.43912(8) 0.2175(5) 0.1989(3)
O5A_2 O 0.43912(8) -0.7825(5) 0.1989(3)
O5_2 O 0.56088(8) -1.2175(5) 0.1989(3)
O6A O 0.53536(9) -0.8011(6) 0.0635(3)
O7A O 0.52017(9) -0.6912(5) 0.1539(3)
N1D N 0.42972(10) 0.3683(6) -0.3164(3)
N1A N 0.57028(10) -0.8683(6) 0.1836(3)
N2D N 0.42557(9) 0.0341(6) 0.0568(3)
N2E N 0.57443(9) -1.0341(6) 0.0568(3)
C1A C 0.51853(14) -0.7107(8) 0.3419(4)
C2A C 0.53641(13) -0.5999(8) 0.3422(4)
H1A H 0.5354 -0.5397 0.3831
H2A H 0.5503 -0.6496 0.3427
C3A C 0.45302(10) -0.6885(7) 0.2138(4)
C4A C 0.44868(12) -0.5951(8) 0.2758(4)
H3A H 0.4348 -0.5463 0.2709
H4A H 0.4481 -0.6565 0.3163
C5A C 0.52383(12) -0.7044(8) 0.0901(4)
C6A C 0.51312(12) -0.5992(8) 0.0424(4)
H5A H 0.5240 -0.5446 0.0170
H6A H 0.5041 -0.6519 0.0100
C7D C 0.42124(13) 0.2419(7) -0.3406(4)
H7D H 0.4249 0.2109 -0.3844
C8D C 0.40754(12) 0.1589(7) -0.3023(4)
H8D H 0.4019 0.0731 -0.3210
C9D C 0.40181(11) 0.1981(7) -0.2369(3)
C10D C 0.41121(13) 0.3250(8) -0.2109(4)
H9D H 0.4083 0.3554 -0.1665
C11D C 0.42508(12) 0.4056(8) -0.2523(4)
H10D H 0.4314 0.4898 -0.2342
C12D C 0.41148(12) 0.1453(8) 0.0669(4)
H11D H 0.4118 0.1933 0.1089
C13D C 0.39694(12) 0.1913(8) 0.0196(4)
H12D H 0.3872 0.2659 0.0299
C14D C 0.39686(10) 0.1253(7) -0.0443(3)
C15D C 0.41066(12) 0.0074(8) -0.0554(4)
H13D H 0.4104 -0.0440 -0.0965
C16D C 0.42464(13) -0.0313(8) -0.0039(4)
H14D H 0.4341 -0.1086 -0.0121
O9A O 0.52680(8) -0.9727(5) 0.1911(3)
H15A H 0.5205 -0.8953 0.1834
H16A H 0.5277 -0.9892 0.2329
O10A O 0.53210(8) -1.1417(6) 0.0766(2)
H17A H 0.5386 -1.1741 0.0432
H18A H 0.5287 -1.2082 0.1040
O11 O 0.52710(10) 0.9186(6) 0.3192(3)
H19 H 0.5205 0.9739 0.3472
H20 H 0.5208 0.8361 0.3186
O12 O 0.44912(13) 1.3092(8) -0.0202(3)
H21 H 0.4611 1.3031 -0.0394
H22 H 0.4446 1.3953 -0.0206
O13 O 0.5000 1.0000 -0.0154(8)
H23 H 0.4947 1.0555 0.0138
H23A H 0.5053 0.9445 0.0138
O14 O 0.39590(17) 0.2352(15) 0.2507(10)
H24 H 0.3928 0.3208 0.2651
H25 H 0.3905 0.1675 0.2263
O15 O 0.3614(3) 0.3833(13) 0.1571(9)
H26 H 0.3596 0.3672 0.1987
H27 H 0.3592 0.4110 0.1162
O16 O 0.4280(4) 1.5683(18) -0.0044(17)
H28 H 0.4263 1.5780 -0.0478
H29 H 0.4373 1.6248 0.0140
loop_
_geom_bond_atom_site_label_1
_geom_bond_atom_site_label_2
_geom_bond_site_symmetry_1
_geom_bond_site_symmetry_2
Eu1 O1 1_555 1_555
Ni1 O6 1_555 1_555
S1 S2 1_555 1_555
S2 C14 1_555 1_555
O1 C1 1_555 1_555
O2 C1 1_555 1_555
O3 Eu1 1_555 1_555
O4 Eu1 1_555 1_555
O5 C3 1_555 1_555
O6 C5 1_555 1_555
O7 Eu1 1_555 1_555
O8 Eu1 1_555 1_555
N1 Ni1 1_555 1_555
N2 C12 1_555 1_555
C1 C2 1_555 1_555
C2 O3 1_555 1_555
H1 C2 1_555 1_555
H2 C2 1_555 1_555
C3 O4 1_555 1_555
C4 C3 1_555 1_555
H3 C4 1_555 1_555
H4 C4 1_555 1_555
C5 O7 1_555 1_555
C6 O8 1_555 1_555
H5 C6 1_555 1_555
H6 C6 1_555 1_555
C7 N1 1_555 1_555
H7 C7 1_555 1_555
C8 C7 1_555 1_555
H8 C8 1_555 1_555
C9 S1 1_555 1_555
C10 C9 1_555 1_555
H9 C10 1_555 1_555
C11 N1 1_555 1_555
H10 C11 1_555 1_555
C12 H11 1_555 1_555
C13 C12 1_555 1_555
H12 C13 1_555 1_555
C14 C13 1_555 1_555
C15 C14 1_555 1_555
H13 C15 1_555 1_555
C16 N2 1_555 1_555
H14 C16 1_555 1_555
O9 Ni1 1_555 1_555
H15 O9 1_555 1_555
H16 O9 1_555 1_555
O10 Ni1 1_555 1_555
H17 O10 1_555 1_555
H18 O10 1_555 1_555
O11 H19 1_555 1_555
H20 O11 1_555 1_555
O12 H21 1_555 1_555
H22 O12 1_555 1_555
O13 H23 1_555 1_555
O14 H24 1_555 1_555
H25 O14 1_555 1_555
O15 H26 1_555 1_555
H27 O15 1_555 1_555
O16 H28 1_555 1_555
H29 O16 1_555 1_555
Ni1D N2 1_555 1_555
Ni1A O5 1_555 1_555
Ni1D_2 N1D 1_555 1_555
Ni1_2 O5A_2 1_555 1_555
Ni1A_2 O5_2 1_555 1_555
S1D S2D 1_555 1_555
S2D C14D 1_555 1_555
O1A Eu1 1_555 1_555
O2A C1A 1_555 1_555
O3A Eu1 1_555 1_555
O4A Eu1 1_555 1_555
O5A Ni1 1_555 1_555
O5A_2 C3A 1_555 1_555
O6A Ni1A_2 1_555 1_555
O7A Eu1 1_555 1_555
N1D C7D 1_555 1_555
N1A Ni1A_2 1_555 1_555
N2D Ni1 1_555 1_555
N2E Ni1A_2 1_555 1_555
C1A O1A 1_555 1_555
C2A O3A 1_555 1_555
H1A C2A 1_555 1_555
H2A C2A 1_555 1_555
C3A O4A 1_555 1_555
C4A O3 1_555 1_555
H3A C4A 1_555 1_555
H4A C4A 1_555 1_555
C5A O6A 1_555 1_555
C6A O8 1_555 1_555
H5A C6A 1_555 1_555
H6A C6A 1_555 1_555
C7D H7D 1_555 1_555
C8D C7D 1_555 1_555
H8D C8D 1_555 1_555
C9D S1D 1_555 1_555
C10D C9D 1_555 1_555
H9D C10D 1_555 1_555
C11D N1D 1_555 1_555
H10D C11D 1_555 1_555
C12D N2D 1_555 1_555
H11D C12D 1_555 1_555
C13D C12D 1_555 1_555
H12D C13D 1_555 1_555
C14D C13D 1_555 1_555
C15D C14D 1_555 1_555
H13D C15D 1_555 1_555
C16D N2D 1_555 1_555
H14D C16D 1_555 1_555
O9A Ni1A_2 1_555 1_555
H15A O9A 1_555 1_555
H16A O9A 1_555 1_555
O10A Ni1A_2 1_555 1_555
H17A O10A 1_555 1_555
H18A O10A 1_555 1_555
H23A O13 1_555 1_555
C4 O3A 1_555 1_555
C5 C6 1_555 1_555
C8 C9 1_555 1_555
C10 C11 1_555 1_555
C15 C16 1_555 1_555
O7A C5A 1_555 1_555
C1A C2A 1_555 1_555
C3A C4A 1_555 1_555
C5A C6A 1_555 1_555
C8D C9D 1_555 1_555
C10D C11D 1_555 1_555
C15D C16D 1_555 1_555

#END
