
#######################################################################
#
#                 Cambridge Crystallographic Data Centre
#                                CCDC 
#
#######################################################################
#
# If this CIF has been generated from an entry in the Cambridge 
# Structural Database, then it will include bibliographic, chemical, 
# crystal, experimental, refinement or atomic coordinate data resulting 
# from the CCDC's data processing and validation procedures.
#
#######################################################################

data_OTUGIU
_symmetry_cell_setting           triclinic
_symmetry_space_group_name_H-M   'P -1'
_symmetry_Int_Tables_number      2
_space_group_name_Hall           '-P 1'
loop_
_symmetry_equiv_pos_site_id
_symmetry_equiv_pos_as_xyz
1 x,y,z
2 -x,-y,-z
_cell_length_a                   11.2215(8)
_cell_length_b                   11.7140(8)
_cell_length_c                   15.2416(10)
_cell_angle_alpha                67.5780(10)
_cell_angle_beta                 71.0370(10)
_cell_angle_gamma                88.3890(10)
_cell_volume                     1740.96
loop_
_atom_site_label
_atom_site_type_symbol
_atom_site_fract_x
_atom_site_fract_y
_atom_site_fract_z
Co1 Co 0.72110(3) 0.39639(3) 0.00866(2)
O1 O 0.99947(17) 0.6772(2) -0.52856(15)
O2 O 1.32094(17) 0.5386(2) -0.40131(14)
O3 O 0.15273(17) 0.1018(2) 0.43521(14)
O4 O 0.48678(17) 0.1218(2) 0.54400(15)
O5 O 0.69258(15) 0.57428(14) 0.00728(12)
O6 O 0.87249(19) 0.62304(17) 0.02267(18)
O7 O 0.6135(2) 1.1820(2) -0.0464(2)
O8 O 0.75236(17) 1.21940(15) 0.01631(14)
O9 O 0.58237(16) 0.40972(16) -0.06270(13)
H1 H 0.5054 0.4233 -0.0426
H2 H 0.5940 0.3405 -0.0684
O10 O 0.86290(16) 0.38058(16) 0.07870(13)
H3 H 0.9297 0.3460 0.0632
H4 H 0.8742 0.4572 0.0670
N1 N 0.86375(18) 0.47090(18) -0.14077(14)
N2 N 1.10862(18) 0.65538(19) -0.52238(15)
N3 N 1.25992(18) 0.58113(19) -0.46232(15)
N4 N 0.58040(18) 0.32398(18) 0.15821(14)
N5 N 0.21823(18) 0.08846(19) 0.49188(14)
N6 N 0.37486(18) 0.10588(19) 0.54366(15)
C1 C 1.0597(2) 0.4553(2) -0.25721(19)
H5 H 1.1314 0.4138 -0.2687
C2 C 0.9673(2) 0.4138(2) -0.16373(18)
H6 H 0.9772 0.3420 -0.1135
C3 C 0.8517(2) 0.5737(2) -0.21464(18)
H7 H 0.7813 0.6157 -0.1998
C4 C 0.9378(2) 0.6207(2) -0.31152(18)
H8 H 0.9247 0.6917 -0.3607
C5 C 1.0450(2) 0.5599(2) -0.33460(17)
C6 C 1.1359(2) 0.5998(2) -0.43722(18)
C7 C 1.2268(2) 0.6937(2) -0.61497(18)
C8 C 1.3161(2) 0.6028(2) -0.57216(18)
C9 C 1.2692(3) 0.8293(2) -0.6421(2)
H9 H 1.3411 0.8589 -0.7033
H10 H 1.2921 0.8356 -0.5885
H11 H 1.2011 0.8786 -0.6515
C10 C 1.1971(3) 0.6795(3) -0.7003(2)
H12 H 1.1635 0.5952 -0.6795
H13 H 1.2732 0.6999 -0.7579
H14 H 1.1357 0.7343 -0.7178
C11 C 1.4541(2) 0.6553(3) -0.6144(2)
H15 H 1.4625 0.7237 -0.5960
H16 H 1.4838 0.6836 -0.6866
H17 H 1.5036 0.5918 -0.5873
C12 C 1.3027(3) 0.4763(3) -0.5770(2)
H18 H 1.3474 0.4196 -0.5379
H19 H 1.3375 0.4847 -0.6459
H20 H 1.2146 0.4450 -0.5502
C13 C 0.5186(2) 0.2909(2) 0.33216(18)
H21 H 0.5328 0.3106 0.3818
C14 C 0.5939(2) 0.3499(2) 0.23272(18)
H22 H 0.6577 0.4110 0.2165
C15 C 0.4853(2) 0.2387(2) 0.18289(18)
H23 H 0.4742 0.2198 0.1319
C16 C 0.4033(2) 0.1776(2) 0.27955(18)
H24 H 0.3369 0.1210 0.2929
C17 C 0.4208(2) 0.2015(2) 0.35741(17)
C18 C 0.3400(2) 0.1341(2) 0.46207(17)
C19 C 0.1696(2) 0.0056(2) 0.60262(17)
C20 C 0.2616(2) 0.0557(2) 0.63989(17)
C21 C 0.1855(3) -0.1256(3) 0.6086(2)
H25 H 0.1363 -0.1453 0.5742
H26 H 0.1570 -0.1826 0.6781
H27 H 0.2733 -0.1321 0.5774
C22 C 0.0314(2) 0.0211(3) 0.6474(2)
H28 H 0.0221 0.1075 0.6325
H29 H 0.0027 -0.0244 0.7192
H30 H -0.0182 -0.0101 0.6189
C23 C 0.2985(3) -0.0416(3) 0.7233(2)
H31 H 0.3328 -0.1067 0.7022
H32 H 0.2250 -0.0758 0.7830
H33 H 0.3611 -0.0041 0.7374
C24 C 0.2193(3) 0.1667(3) 0.6667(2)
H34 H 0.2879 0.2040 0.6748
H35 H 0.1484 0.1394 0.7285
H36 H 0.1950 0.2266 0.6135
C25 C 0.7324(3) 0.7788(2) -0.0026(2)
H37 H 0.6669 0.7932 -0.0342
C26 C 0.6763(4) 0.7911(3) 0.0952(2)
H38 H 0.7371 0.7728 0.1303
H39 H 0.6021 0.7308 0.1365
C27 C 0.6381(3) 0.9219(3) 0.0815(2)
H40 H 0.5663 0.9340 0.0580
H41 H 0.6114 0.9287 0.1464
C28 C 0.7419(3) 1.0214(3) 0.0091(3)
H42 H 0.8073 1.0141 0.0402
C29 C 0.8016(5) 1.0069(3) -0.0859(3)
H43 H 0.8764 1.0667 -0.1259
H44 H 0.7433 1.0251 -0.1233
C30 C 0.8402(5) 0.8760(3) -0.0712(3)
H45 H 0.8715 0.8695 -0.1362
H46 H 0.9084 0.8624 -0.0435
C31 C 0.7694(2) 0.6493(2) 0.00975(18)
C32 C 0.6993(3) 1.1520(2) -0.0090(2)
Co1_2 Co 0.72110(3) 1.39639(3) 0.00866(2)
O8_2 O 0.75236(17) 0.21940(15) 0.01631(14)
loop_
_geom_bond_atom_site_label_1
_geom_bond_atom_site_label_2
_geom_bond_site_symmetry_1
_geom_bond_site_symmetry_2
Co1 O5 1_555 1_555
O1 N2 1_555 1_555
O2 N3 1_555 1_555
O3 N5 1_555 1_555
O4 N6 1_555 1_555
O5 C31 1_555 1_555
O6 C31 1_555 1_555
O7 C32 1_555 1_555
O8 C32 1_555 1_555
O9 Co1 1_555 1_555
H1 O9 1_555 1_555
H2 O9 1_555 1_555
O10 Co1 1_555 1_555
H3 O10 1_555 1_555
H4 O10 1_555 1_555
N1 Co1 1_555 1_555
N2 C6 1_555 1_555
N3 C6 1_555 1_555
N4 Co1 1_555 1_555
N5 C18 1_555 1_555
N6 C18 1_555 1_555
C1 H5 1_555 1_555
C2 N1 1_555 1_555
H6 C2 1_555 1_555
C3 N1 1_555 1_555
H7 C3 1_555 1_555
C4 C3 1_555 1_555
H8 C4 1_555 1_555
C5 C1 1_555 1_555
C6 C5 1_555 1_555
C7 N2 1_555 1_555
C8 N3 1_555 1_555
C9 C7 1_555 1_555
H9 C9 1_555 1_555
H10 C9 1_555 1_555
H11 C9 1_555 1_555
C10 C7 1_555 1_555
H12 C10 1_555 1_555
H13 C10 1_555 1_555
H14 C10 1_555 1_555
C11 C8 1_555 1_555
H15 C11 1_555 1_555
H16 C11 1_555 1_555
H17 C11 1_555 1_555
C12 C8 1_555 1_555
H18 C12 1_555 1_555
H19 C12 1_555 1_555
H20 C12 1_555 1_555
C13 H21 1_555 1_555
C14 N4 1_555 1_555
H22 C14 1_555 1_555
C15 N4 1_555 1_555
H23 C15 1_555 1_555
C16 C15 1_555 1_555
H24 C16 1_555 1_555
C17 C13 1_555 1_555
C18 C17 1_555 1_555
C19 N5 1_555 1_555
C20 N6 1_555 1_555
C21 C19 1_555 1_555
H25 C21 1_555 1_555
H26 C21 1_555 1_555
H27 C21 1_555 1_555
C22 C19 1_555 1_555
H28 C22 1_555 1_555
H29 C22 1_555 1_555
H30 C22 1_555 1_555
C23 C20 1_555 1_555
H31 C23 1_555 1_555
H32 C23 1_555 1_555
H33 C23 1_555 1_555
C24 C20 1_555 1_555
H34 C24 1_555 1_555
H35 C24 1_555 1_555
H36 C24 1_555 1_555
C25 H37 1_555 1_555
C26 C25 1_555 1_555
H38 C26 1_555 1_555
H39 C26 1_555 1_555
C27 C26 1_555 1_555
H40 C27 1_555 1_555
H41 C27 1_555 1_555
C28 C27 1_555 1_555
H42 C28 1_555 1_555
C29 C28 1_555 1_555
H43 C29 1_555 1_555
H44 C29 1_555 1_555
C30 C25 1_555 1_555
H45 C30 1_555 1_555
H46 C30 1_555 1_555
C31 C25 1_555 1_555
C32 C28 1_555 1_555
Co1_2 O8 1_555 1_555
O8_2 Co1 1_555 1_555
C1 C2 1_555 1_555
C4 C5 1_555 1_555
C7 C8 1_555 1_555
C13 C14 1_555 1_555
C16 C17 1_555 1_555
C19 C20 1_555 1_555
C29 C30 1_555 1_555

#END
