
#######################################################################
#
#                 Cambridge Crystallographic Data Centre
#                                CCDC 
#
#######################################################################
#
# If this CIF has been generated from an entry in the Cambridge 
# Structural Database, then it will include bibliographic, chemical, 
# crystal, experimental, refinement or atomic coordinate data resulting 
# from the CCDC's data processing and validation procedures.
#
#######################################################################

data_OTUGEQ
_symmetry_cell_setting           triclinic
_symmetry_space_group_name_H-M   'P -1'
_symmetry_Int_Tables_number      2
_space_group_name_Hall           '-P 1'
loop_
_symmetry_equiv_pos_site_id
_symmetry_equiv_pos_as_xyz
1 x,y,z
2 -x,-y,-z
_cell_length_a                   11.2086(7)
_cell_length_b                   11.7416(8)
_cell_length_c                   15.1957(10)
_cell_angle_alpha                67.6320(10)
_cell_angle_beta                 71.2080(10)
_cell_angle_gamma                88.2900(10)
_cell_volume                     1740.95
loop_
_atom_site_label
_atom_site_type_symbol
_atom_site_fract_x
_atom_site_fract_y
_atom_site_fract_z
Zn1 Zn 0.278090(19) 0.104126(18) 0.491098(15)
O1 O -0.32141(14) -0.03974(17) 0.90098(11)
O2 O 0.00091(14) -0.17710(17) 1.02930(12)
O3 O 0.84723(14) 0.39787(16) 0.06532(11)
O4 O 0.51353(14) 0.37975(17) -0.04546(12)
O5 O 0.38527(17) 0.32049(15) 0.54329(15)
O6 O 0.24412(13) 0.28114(12) 0.48212(11)
O7 O 0.12748(14) 0.87610(14) 0.47944(14)
O8 O 0.30903(12) 0.92599(11) 0.49217(10)
O9 O 0.41718(12) 0.09174(12) 0.56436(10)
H1 H 0.4889 0.0773 0.5315
H2 H 0.4166 0.1495 0.5852
O10 O 0.13622(13) 0.11874(12) 0.41874(10)
H3 H 0.1166 0.0473 0.4224
H4 H 0.0763 0.1552 0.4439
N1 N 0.13529(14) 0.02764(14) 0.64097(11)
N2 N -0.26013(15) -0.08166(16) 0.96222(12)
N3 N -0.10879(14) -0.15561(15) 1.02294(12)
N4 N 0.41989(15) 0.17652(14) 0.34132(11)
N5 N 0.78169(15) 0.41192(15) 0.00815(11)
N6 N 0.62537(15) 0.39537(16) -0.04469(12)
C1 C -0.04524(17) -0.06076(17) 0.83464(14)
C2 C 0.06215(18) -0.12108(18) 0.81206(15)
H5 H 0.0758 -0.1914 0.8615
C3 C 0.14820(18) -0.07467(17) 0.71486(14)
H6 H 0.2187 -0.1167 0.7000
C4 C 0.03156(18) 0.08450(18) 0.66336(14)
H7 H 0.0213 0.1558 0.6129
C5 C -0.06091(18) 0.04317(19) 0.75726(15)
H8 H -0.1329 0.0843 0.7687
C6 C -0.13612(17) -0.10080(18) 0.93757(14)
C7 C -0.31617(18) -0.10321(19) 1.07231(14)
C8 C -0.3030(2) 0.0228(2) 1.07714(19)
H9 H -0.2150 0.0542 1.0499
H10 H -0.3370 0.0144 1.1462
H11 H -0.3485 0.0791 1.0384
C9 C -0.4545(2) -0.1550(2) 1.11429(17)
H12 H -0.5036 -0.0920 1.0858
H13 H -0.4847 -0.1813 1.1864
H14 H -0.4628 -0.2244 1.0971
C10 C -0.22690(18) -0.19341(18) 1.11536(14)
C11 C -0.1968(2) -0.1795(2) 1.20102(17)
H15 H -0.1354 -0.2344 1.2185
H16 H -0.2728 -0.1996 1.2587
H17 H -0.1632 -0.0956 1.1804
C12 C -0.2687(2) -0.32869(19) 1.14241(17)
H18 H -0.2929 -0.3349 1.0891
H19 H -0.3396 -0.3586 1.2042
H20 H -0.1999 -0.3775 1.1509
C13 C 0.57909(17) 0.29932(18) 0.14207(14)
C14 C 0.59645(19) 0.32308(19) 0.22045(14)
H21 H 0.6625 0.3797 0.2075
C15 C 0.51437(19) 0.26151(18) 0.31737(14)
H22 H 0.5252 0.2800 0.3688
C16 C 0.40653(18) 0.15104(17) 0.26624(14)
H23 H 0.3431 0.0901 0.2821
C17 C 0.48182(18) 0.21027(18) 0.16667(14)
H24 H 0.4678 0.1909 0.1166
C18 C 0.65982(18) 0.36679(18) 0.03757(14)
C19 C 0.83059(18) 0.49360(18) -0.10272(14)
C20 C 0.8150(2) 0.6254(2) -0.10903(18)
H25 H 0.7275 0.6322 -0.0774
H26 H 0.8427 0.6818 -0.1786
H27 H 0.8651 0.6452 -0.0751
C21 C 0.9686(2) 0.4778(2) -0.14730(17)
H28 H 1.0187 0.5114 -0.1205
H29 H 0.9962 0.5206 -0.2194
H30 H 0.9784 0.3913 -0.1303
C22 C 0.73857(18) 0.44462(18) -0.14053(14)
C23 C 0.7021(2) 0.5419(2) -0.22427(16)
H31 H 0.6385 0.5051 -0.2381
H32 H 0.7754 0.5745 -0.2841
H33 H 0.6692 0.6076 -0.2037
C24 C 0.7805(2) 0.3336(2) -0.16741(17)
H34 H 0.8049 0.2738 -0.1142
H35 H 0.8513 0.3606 -0.2293
H36 H 0.7117 0.2968 -0.1757
C25 C 0.2566(2) 0.47945(19) 0.48818(19)
H37 H 0.1921 0.4889 0.4557
C26 C 0.1972(4) 0.4937(2) 0.5861(2)
H38 H 0.2567 0.4759 0.6228
H39 H 0.1228 0.4341 0.6267
C27 C 0.1588(4) 0.6242(2) 0.5708(3)
H40 H 0.0925 0.6388 0.5408
H41 H 0.1248 0.6304 0.6360
C28 C 0.2684(2) 0.72126(17) 0.50427(15)
H42 H 0.3330 0.7058 0.5371
C29 C 0.3250(3) 0.7093(2) 0.40526(17)
H43 H 0.3988 0.7695 0.3640
H44 H 0.2639 0.7272 0.3701
C30 C 0.3639(2) 0.5792(2) 0.41898(18)
H45 H 0.3948 0.5736 0.3535
H46 H 0.4327 0.5657 0.4462
C31 C 0.29907(19) 0.34996(18) 0.50655(16)
C32 C 0.23121(18) 0.85050(17) 0.49141(14)
Zn1_2 Zn 0.278090(19) 1.104126(18) 0.491098(15)
O8_2 O 0.30903(12) -0.07401(11) 0.49217(10)
loop_
_geom_bond_atom_site_label_1
_geom_bond_atom_site_label_2
_geom_bond_site_symmetry_1
_geom_bond_site_symmetry_2
Zn1 O6 1_555 1_555
O1 N2 1_555 1_555
O2 N3 1_555 1_555
O3 N5 1_555 1_555
O4 N6 1_555 1_555
O5 C31 1_555 1_555
O6 C31 1_555 1_555
O7 C32 1_555 1_555
O8 C32 1_555 1_555
O9 Zn1 1_555 1_555
H1 O9 1_555 1_555
H2 O9 1_555 1_555
O10 Zn1 1_555 1_555
H3 O10 1_555 1_555
H4 O10 1_555 1_555
N1 Zn1 1_555 1_555
N2 C6 1_555 1_555
N3 C6 1_555 1_555
N4 Zn1 1_555 1_555
N5 C18 1_555 1_555
N6 C18 1_555 1_555
C1 C2 1_555 1_555
C2 H5 1_555 1_555
C3 N1 1_555 1_555
H6 C3 1_555 1_555
C4 N1 1_555 1_555
H7 C4 1_555 1_555
C5 C1 1_555 1_555
H8 C5 1_555 1_555
C6 C1 1_555 1_555
C7 N2 1_555 1_555
C8 C7 1_555 1_555
H9 C8 1_555 1_555
H10 C8 1_555 1_555
H11 C8 1_555 1_555
C9 C7 1_555 1_555
H12 C9 1_555 1_555
H13 C9 1_555 1_555
H14 C9 1_555 1_555
C10 N3 1_555 1_555
C11 C10 1_555 1_555
H15 C11 1_555 1_555
H16 C11 1_555 1_555
H17 C11 1_555 1_555
C12 C10 1_555 1_555
H18 C12 1_555 1_555
H19 C12 1_555 1_555
H20 C12 1_555 1_555
C13 C14 1_555 1_555
C14 H21 1_555 1_555
C15 N4 1_555 1_555
H22 C15 1_555 1_555
C16 N4 1_555 1_555
H23 C16 1_555 1_555
C17 C13 1_555 1_555
H24 C17 1_555 1_555
C18 C13 1_555 1_555
C19 N5 1_555 1_555
C20 C19 1_555 1_555
H25 C20 1_555 1_555
H26 C20 1_555 1_555
H27 C20 1_555 1_555
C21 C19 1_555 1_555
H28 C21 1_555 1_555
H29 C21 1_555 1_555
H30 C21 1_555 1_555
C22 N6 1_555 1_555
C23 C22 1_555 1_555
H31 C23 1_555 1_555
H32 C23 1_555 1_555
H33 C23 1_555 1_555
C24 C22 1_555 1_555
H34 C24 1_555 1_555
H35 C24 1_555 1_555
H36 C24 1_555 1_555
C25 H37 1_555 1_555
C26 C25 1_555 1_555
H38 C26 1_555 1_555
H39 C26 1_555 1_555
C27 C26 1_555 1_555
H40 C27 1_555 1_555
H41 C27 1_555 1_555
C28 C27 1_555 1_555
H42 C28 1_555 1_555
C29 C28 1_555 1_555
H43 C29 1_555 1_555
H44 C29 1_555 1_555
C30 C25 1_555 1_555
H45 C30 1_555 1_555
H46 C30 1_555 1_555
C31 C25 1_555 1_555
C32 C28 1_555 1_555
Zn1_2 O8 1_555 1_555
O8_2 Zn1 1_555 1_555
C2 C3 1_555 1_555
C4 C5 1_555 1_555
C7 C10 1_555 1_555
C14 C15 1_555 1_555
C16 C17 1_555 1_555
C19 C22 1_555 1_555
C29 C30 1_555 1_555

#END
