
#######################################################################
#
#                 Cambridge Crystallographic Data Centre
#                                CCDC 
#
#######################################################################
#
# If this CIF has been generated from an entry in the Cambridge 
# Structural Database, then it will include bibliographic, chemical, 
# crystal, experimental, refinement or atomic coordinate data resulting 
# from the CCDC's data processing and validation procedures.
#
#######################################################################

data_OTUSAY
_symmetry_cell_setting           triclinic
_symmetry_space_group_name_H-M   'P -1'
_symmetry_Int_Tables_number      2
_space_group_name_Hall           '-P 1'
loop_
_symmetry_equiv_pos_site_id
_symmetry_equiv_pos_as_xyz
1 x,y,z
2 -x,-y,-z
_cell_length_a                   8.4202(2)
_cell_length_b                   10.4541(3)
_cell_length_c                   13.0111(3)
_cell_angle_alpha                80.3150(10)
_cell_angle_beta                 83.0550(10)
_cell_angle_gamma                72.5300(10)
_cell_volume                     1073.89
loop_
_atom_site_label
_atom_site_type_symbol
_atom_site_fract_x
_atom_site_fract_y
_atom_site_fract_z
Co1 Co 0.0000 0.5000 1.0000
C1 C 0.2712(2) 0.88252(18) 0.49456(15)
O1 O -0.09281(16) 0.38727(13) 0.91743(10)
H1 H -0.0379 0.3090 0.9045
H2 H -0.1202 0.4342 0.8598
N1 N 0.43777(19) 0.84510(16) 0.49847(12)
N2 N 0.4545(2) 0.89271(16) 0.31127(12)
N3 N 0.18723(19) 0.92033(16) 0.40713(12)
N4 N 0.1780(2) 0.88153(16) 0.58627(12)
H3 H 0.0625 0.9241 0.5910
N5 N 0.68862(19) 0.83019(16) 0.40240(13)
H4 H 0.7467 0.8413 0.3341
N6 N 0.2141(2) 0.94431(16) 0.22745(12)
H5 H 0.1024 0.9360 0.2327
N7 N 0.1589(2) 0.54037(16) 0.85786(12)
N8 N 0.8293(2) 0.50441(17) 0.71612(13)
N9 N 0.2124(2) 1.32730(16) 0.04574(12)
C2 C 0.5213(2) 0.85752(18) 0.40453(15)
C3 C 0.2887(2) 0.91812(18) 0.31817(15)
C4 C 0.2524(2) 0.84114(19) 0.68672(15)
H6 H 0.1849 0.8987 0.7364
H7 H 0.3628 0.8541 0.6783
C5 C 0.1612(2) 0.6655(2) 0.81469(15)
H8 H 0.0869 0.7377 0.8442
C6 C 0.2658(2) 0.69546(19) 0.72939(14)
C7 C 0.3798(2) 0.5868(2) 0.68759(15)
H9 H 0.4553 0.6015 0.6318
C8 C 0.3790(3) 0.4565(2) 0.73037(15)
H10 H 0.4540 0.3826 0.7033
C9 C 0.2662(2) 0.4370(2) 0.81348(15)
H11 H 0.2643 0.3490 0.8398
C10 C 0.7747(2) 0.79854(19) 0.49779(15)
H12 H 0.7155 0.8635 0.5445
H13 H 0.8858 0.8090 0.4806
C11 C 0.8100(2) 0.6280(2) 0.66110(16)
H14 H 0.8103 0.6982 0.6964
C12 C 0.7896(2) 0.65748(19) 0.55462(15)
C13 C 0.7874(2) 0.5520(2) 0.50362(16)
H15 H 0.7745 0.5670 0.4322
C14 C 0.8044(2) 0.4244(2) 0.55926(16)
H16 H 0.8010 0.3531 0.5262
C15 C 0.8264(3) 0.4046(2) 0.66459(17)
H17 H 0.8397 0.3182 0.7015
C16 C 0.3075(2) 0.9515(2) 0.12591(15)
H18 H 0.2451 0.9367 0.0733
H19 H 0.4134 0.8813 0.1283
C17 C 0.2079(2) 1.1984(2) 0.06221(14)
H20 H 0.1103 1.1814 0.0493
C18 C 0.3381(2) 1.0886(2) 0.09717(14)
C19 C 0.4880(3) 1.1124(2) 0.10874(15)
H21 H 0.5796 1.0415 0.1307
C20 C 0.4983(2) 1.2443(2) 0.08678(16)
H22 H 0.5986 1.2625 0.0914
C21 C 0.3592(2) 1.3480(2) 0.05805(15)
H23 H 0.3668 1.4363 0.0466
Co1_2 Co 0.0000 -0.5000 2.0000
Co1_3 Co 0.0000 1.5000 0.0000
C1A C -0.2712(2) 0.11748(18) 1.50544(15)
O1A O 0.09281(16) 0.61273(13) 1.08257(10)
H1A H 0.0379 0.6910 1.0955
H2A H 0.1202 0.5658 1.1402
N1A N -0.43777(19) 0.15490(16) 1.50153(12)
N2A N -0.4545(2) 0.10729(16) 1.68873(12)
N3A N -0.18723(19) 0.07967(16) 1.59287(12)
N4A N -0.1780(2) 0.11847(16) 1.41373(12)
H3A H -0.0625 0.0759 1.4090
N5A N -0.68862(19) 0.16981(16) 1.59760(13)
H4A H -0.7467 0.1587 1.6659
N6A N -0.2141(2) 0.05569(16) 1.77255(12)
H5A H -0.1024 0.0640 1.7673
N7A N -0.1589(2) 0.45963(16) 1.14214(12)
N8A N -0.8293(2) 0.49559(17) 1.28388(13)
N9A N -0.2124(2) -0.32730(16) 1.95426(12)
N9_2 N 0.2124(2) 0.32730(16) 1.04574(12)
N9A_2 N -0.2124(2) 0.67270(16) 0.95426(12)
C2A C -0.5213(2) 0.14248(18) 1.59547(15)
C3A C -0.2887(2) 0.08188(18) 1.68183(15)
C4A C -0.2524(2) 0.15886(19) 1.31328(15)
H6A H -0.1849 0.1013 1.2636
H7A H -0.3628 0.1459 1.3217
C5A C -0.1612(2) 0.3345(2) 1.18531(15)
H8A H -0.0869 0.2623 1.1558
C6A C -0.2658(2) 0.30454(19) 1.27061(14)
C7A C -0.3798(2) 0.4132(2) 1.31241(15)
H9A H -0.4553 0.3985 1.3682
C8A C -0.3790(3) 0.5435(2) 1.26963(15)
H10A H -0.4540 0.6174 1.2967
C9A C -0.2662(2) 0.5630(2) 1.18652(15)
H11A H -0.2643 0.6510 1.1602
C10A C -0.7747(2) 0.20146(19) 1.50221(15)
H12A H -0.7155 0.1365 1.4555
H13A H -0.8858 0.1910 1.5194
C11A C -0.8100(2) 0.3720(2) 1.33890(16)
H14A H -0.8103 0.3018 1.3036
C12A C -0.7896(2) 0.34252(19) 1.44538(15)
C13A C -0.7874(2) 0.4480(2) 1.49638(16)
H15A H -0.7745 0.4330 1.5678
C14A C -0.8044(2) 0.5756(2) 1.44074(16)
H16A H -0.8010 0.6469 1.4738
C15A C -0.8264(3) 0.5954(2) 1.33541(17)
H17A H -0.8397 0.6818 1.2985
C16A C -0.3075(2) 0.0485(2) 1.87409(15)
H18A H -0.2451 0.0633 1.9267
H19A H -0.4134 0.1187 1.8717
C17A C -0.2079(2) -0.1984(2) 1.93779(14)
H20A H -0.1103 -0.1814 1.9507
C18A C -0.3381(2) -0.0886(2) 1.90283(14)
C19A C -0.4880(3) -0.1124(2) 1.89126(15)
H21A H -0.5796 -0.0415 1.8693
C20A C -0.4983(2) -0.2443(2) 1.91322(16)
H22A H -0.5986 -0.2625 1.9086
C21A C -0.3592(2) -0.3480(2) 1.94195(15)
H23A H -0.3668 -0.4363 1.9534
Cl1 Cl 0.10570(6) 0.12383(5) 0.83358(4)
loop_
_geom_bond_atom_site_label_1
_geom_bond_atom_site_label_2
_geom_bond_site_symmetry_1
_geom_bond_site_symmetry_2
Co1 O1 1_555 1_555
C1 N1 1_555 1_555
O1 H1 1_555 1_555
H2 O1 1_555 1_555
N1 C2 1_555 1_555
N2 C2 1_555 1_555
N3 C1 1_555 1_555
N4 C1 1_555 1_555
H3 N4 1_555 1_555
N5 H4 1_555 1_555
N6 H5 1_555 1_555
N7 Co1 1_555 1_555
N8 C11 1_555 1_555
N9 C17 1_555 1_555
C2 N5 1_555 1_555
C3 N2 1_555 1_555
C4 N4 1_555 1_555
H6 C4 1_555 1_555
H7 C4 1_555 1_555
C5 N7 1_555 1_555
H8 C5 1_555 1_555
C6 C4 1_555 1_555
C7 C6 1_555 1_555
H9 C7 1_555 1_555
C8 C7 1_555 1_555
H10 C8 1_555 1_555
C9 N7 1_555 1_555
H11 C9 1_555 1_555
C10 N5 1_555 1_555
H12 C10 1_555 1_555
H13 C10 1_555 1_555
C11 H14 1_555 1_555
C12 C10 1_555 1_555
C13 C12 1_555 1_555
H15 C13 1_555 1_555
C14 C13 1_555 1_555
H16 C14 1_555 1_555
C15 N8 1_555 1_555
H17 C15 1_555 1_555
C16 N6 1_555 1_555
H18 C16 1_555 1_555
H19 C16 1_555 1_555
C17 H20 1_555 1_555
C18 C16 1_555 1_555
C19 C18 1_555 1_555
H21 C19 1_555 1_555
C20 C19 1_555 1_555
H22 C20 1_555 1_555
C21 N9 1_555 1_555
H23 C21 1_555 1_555
Co1_2 N9A 1_555 1_555
Co1_3 N9 1_555 1_555
C1A N1A 1_555 1_555
O1A Co1 1_555 1_555
H1A O1A 1_555 1_555
H2A O1A 1_555 1_555
N1A C2A 1_555 1_555
N2A C2A 1_555 1_555
N3A C1A 1_555 1_555
N4A C1A 1_555 1_555
H3A N4A 1_555 1_555
N5A H4A 1_555 1_555
N6A H5A 1_555 1_555
N7A Co1 1_555 1_555
N8A C11A 1_555 1_555
N9A C17A 1_555 1_555
N9_2 Co1 1_555 1_555
N9A_2 Co1 1_555 1_555
C2A N5A 1_555 1_555
C3A N2A 1_555 1_555
C4A N4A 1_555 1_555
H6A C4A 1_555 1_555
H7A C4A 1_555 1_555
C5A N7A 1_555 1_555
H8A C5A 1_555 1_555
C6A C4A 1_555 1_555
C7A C6A 1_555 1_555
H9A C7A 1_555 1_555
C8A C7A 1_555 1_555
H10A C8A 1_555 1_555
C9A N7A 1_555 1_555
H11A C9A 1_555 1_555
C10A N5A 1_555 1_555
H12A C10A 1_555 1_555
H13A C10A 1_555 1_555
C11A H14A 1_555 1_555
C12A C10A 1_555 1_555
C13A C12A 1_555 1_555
H15A C13A 1_555 1_555
C14A C13A 1_555 1_555
H16A C14A 1_555 1_555
C15A N8A 1_555 1_555
H17A C15A 1_555 1_555
C16A N6A 1_555 1_555
H18A C16A 1_555 1_555
H19A C16A 1_555 1_555
C17A H20A 1_555 1_555
C18A C16A 1_555 1_555
C19A C18A 1_555 1_555
H21A C19A 1_555 1_555
C20A C19A 1_555 1_555
H22A C20A 1_555 1_555
C21A N9A 1_555 1_555
H23A C21A 1_555 1_555
N3 C3 1_555 1_555
N6 C3 1_555 1_555
C5 C6 1_555 1_555
C8 C9 1_555 1_555
C11 C12 1_555 1_555
C14 C15 1_555 1_555
C17 C18 1_555 1_555
C20 C21 1_555 1_555
N3A C3A 1_555 1_555
N6A C3A 1_555 1_555
C5A C6A 1_555 1_555
C8A C9A 1_555 1_555
C11A C12A 1_555 1_555
C14A C15A 1_555 1_555
C17A C18A 1_555 1_555
C20A C21A 1_555 1_555

#END
