
#######################################################################
#
#                 Cambridge Crystallographic Data Centre
#                                CCDC 
#
#######################################################################
#
# If this CIF has been generated from an entry in the Cambridge 
# Structural Database, then it will include bibliographic, chemical, 
# crystal, experimental, refinement or atomic coordinate data resulting 
# from the CCDC's data processing and validation procedures.
#
#######################################################################

data_OTUXEH
_symmetry_cell_setting           monoclinic
_symmetry_space_group_name_H-M   'P 21/c'
_symmetry_Int_Tables_number      14
_space_group_name_Hall           '-P 2ybc'
loop_
_symmetry_equiv_pos_site_id
_symmetry_equiv_pos_as_xyz
1 x,y,z
2 -x,1/2+y,1/2-z
3 -x,-y,-z
4 x,1/2-y,1/2+z
_cell_length_a                   12.29390(10)
_cell_length_b                   16.2197(2)
_cell_length_c                   13.8075(2)
_cell_angle_alpha                90
_cell_angle_beta                 95.7030(10)
_cell_angle_gamma                90
_cell_volume                     2739.63
loop_
_atom_site_label
_atom_site_type_symbol
_atom_site_fract_x
_atom_site_fract_y
_atom_site_fract_z
Cd1 Cd 0.968076(15) 0.456208(11) 0.621936(13)
O1 O 0.42553(18) 1.16384(13) 0.67227(18)
O2 O 0.50570(17) 0.73523(13) 0.54284(19)
O3 O 1.09546(16) 0.55201(12) 0.54675(14)
O4 O 1.17452(17) 0.87430(12) 0.84289(14)
O5 O 1.05886(18) 0.87960(14) 0.71155(15)
O6 O 1.11809(17) 0.52764(12) 0.70270(14)
N1 N 0.85689(19) 0.56834(14) 0.63973(17)
N2 N 0.66211(18) 0.78025(13) 0.62723(16)
H1 H 0.6942 0.8236 0.6520
N3 N 0.07954(19) 1.34335(14) 0.60061(16)
N4 N 0.26011(18) 1.12429(14) 0.59998(17)
H2 H 0.2238 1.0824 0.5761
C1 C 0.7488(2) 0.56346(18) 0.6163(2)
H3 H 0.7186 0.5118 0.6021
C2 C 0.6800(2) 0.63035(17) 0.6121(2)
H4 H 0.6052 0.6234 0.5968
C3 C 0.7232(2) 0.70801(16) 0.63090(19)
C4 C 0.8964(2) 0.64269(17) 0.6618(2)
H5 H 0.9708 0.6474 0.6808
C5 C 0.0332(2) 1.26961(17) 0.5858(2)
H6 H -0.0427 1.2671 0.5763
C6 C 0.0902(2) 1.19750(17) 0.5836(2)
H7 H 0.0536 1.1478 0.5721
C7 C 0.2050(2) 1.19942(16) 0.59918(19)
C8 C 0.2537(2) 1.27536(17) 0.6117(2)
H8 H 0.3295 1.2800 0.6199
C9 C 0.1889(2) 1.34444(17) 0.6121(2)
H9 H 0.2234 1.3953 0.6210
C10 C 0.8349(2) 0.71282(17) 0.6586(2)
H10 H 0.8673 0.7634 0.6749
C11 C 0.5556(2) 0.78938(17) 0.5879(2)
C12 C 0.5055(2) 0.87133(16) 0.6037(2)
C13 C 0.4222(2) 0.89851(17) 0.5346(2)
H11 H 0.3993 0.8652 0.4816
C14 C 0.5359(2) 0.92015(18) 0.6841(2)
H12 H 0.5892 0.9017 0.7317
C15 C 0.3669(2) 1.11088(18) 0.6352(2)
C16 C 0.4070(2) 1.02407(17) 0.6244(2)
C17 C 0.4874(2) 0.99611(18) 0.6942(2)
H13 H 0.5090 1.0287 0.7481
C18 C 0.3739(2) 0.97450(18) 0.5445(2)
H14 H 0.3194 0.9926 0.4978
C19 C 1.1432(2) 0.85099(16) 0.7575(2)
C20 C 1.2104(2) 0.78467(17) 0.71475(19)
H15 H 1.2847 0.8063 0.7131
C21 C 1.2181(3) 0.70855(17) 0.7805(2)
H16 H 1.2482 0.7244 0.8454
H17 H 1.1452 0.6868 0.7850
C22 C 1.1685(2) 0.76047(18) 0.61122(19)
H18 H 1.0939 0.7407 0.6101
H19 H 1.1682 0.8086 0.5695
C23 C 1.2890(2) 0.64184(18) 0.7426(2)
H20 H 1.2879 0.5937 0.7842
H21 H 1.3638 0.6614 0.7454
C24 C 1.1482(2) 0.56325(16) 0.6295(2)
C25 C 1.2497(2) 0.61709(19) 0.6369(2)
H22 H 1.3081 0.5834 0.6139
C26 C 1.2394(2) 0.69332(19) 0.5720(2)
H23 H 1.3118 0.7155 0.5661
H24 H 1.2080 0.6774 0.5075
Cd1B Cd 1.031924(15) 0.543792(11) 0.378064(13)
Cd1A Cd 1.031924(15) 0.956208(11) 0.878064(13)
Cd1_2 Cd -0.031924(15) 1.456208(11) 0.621936(13)
O3B O 0.90454(16) 0.44799(12) 0.45325(14)
O4A O 0.82548(17) 0.37430(12) 0.65711(14)
O5A O 0.94114(18) 0.37960(14) 0.78845(15)
N3_2 N 1.07954(19) 0.34335(14) 0.60061(16)
O7 O 0.8215(2) 0.92438(16) 0.64271(18)
O8 O 0.0998(2) 0.98852(18) 0.5606(2)
O9 O 0.5891(3) 0.3785(2) 0.5979(2)
O10 O 0.4458(6) 0.4957(4) 0.5665(5)
loop_
_geom_bond_atom_site_label_1
_geom_bond_atom_site_label_2
_geom_bond_site_symmetry_1
_geom_bond_site_symmetry_2
Cd1 O3 1_555 1_555
O1 C15 1_555 1_555
O2 C11 1_555 1_555
O3 C24 1_555 1_555
O4 C19 1_555 1_555
O5 C19 1_555 1_555
O6 Cd1 1_555 1_555
N1 Cd1 1_555 1_555
N2 H1 1_555 1_555
N3 C5 1_555 1_555
N4 H2 1_555 1_555
C1 N1 1_555 1_555
H3 C1 1_555 1_555
C2 C1 1_555 1_555
H4 C2 1_555 1_555
C3 N2 1_555 1_555
C4 N1 1_555 1_555
H5 C4 1_555 1_555
C5 H6 1_555 1_555
C6 C5 1_555 1_555
H7 C6 1_555 1_555
C7 N4 1_555 1_555
C8 C7 1_555 1_555
H8 C8 1_555 1_555
C9 N3 1_555 1_555
H9 C9 1_555 1_555
C10 C3 1_555 1_555
H10 C10 1_555 1_555
C11 N2 1_555 1_555
C12 C11 1_555 1_555
C13 C12 1_555 1_555
H11 C13 1_555 1_555
C14 C12 1_555 1_555
H12 C14 1_555 1_555
C15 N4 1_555 1_555
C16 C15 1_555 1_555
C17 C14 1_555 1_555
H13 C17 1_555 1_555
C18 C13 1_555 1_555
H14 C18 1_555 1_555
C19 C20 1_555 1_555
C20 H15 1_555 1_555
C21 C20 1_555 1_555
H16 C21 1_555 1_555
H17 C21 1_555 1_555
C22 C20 1_555 1_555
H18 C22 1_555 1_555
H19 C22 1_555 1_555
C23 C21 1_555 1_555
H20 C23 1_555 1_555
H21 C23 1_555 1_555
C24 O6 1_555 1_555
C25 C23 1_555 1_555
H22 C25 1_555 1_555
C26 C22 1_555 1_555
H23 C26 1_555 1_555
H24 C26 1_555 1_555
Cd1B O3 1_555 1_555
Cd1A O4 1_555 1_555
Cd1_2 N3 1_555 1_555
O3B Cd1 1_555 1_555
O4A Cd1 1_555 1_555
O5A Cd1 1_555 1_555
N3_2 Cd1 1_555 1_555
O5 Cd1A 1_555 1_555
C2 C3 1_555 1_555
C4 C10 1_555 1_555
C6 C7 1_555 1_555
C8 C9 1_555 1_555
C16 C17 1_555 1_555
C16 C18 1_555 1_555
C24 C25 1_555 1_555
C25 C26 1_555 1_555
Cd1B O3B 1_555 1_555

#END
