
#######################################################################
#
#                 Cambridge Crystallographic Data Centre
#                                CCDC 
#
#######################################################################
#
# If this CIF has been generated from an entry in the Cambridge 
# Structural Database, then it will include bibliographic, chemical, 
# crystal, experimental, refinement or atomic coordinate data resulting 
# from the CCDC's data processing and validation procedures.
#
#######################################################################

data_OTUXOR
_symmetry_cell_setting           monoclinic
_symmetry_space_group_name_H-M   'P 21/n'
_symmetry_Int_Tables_number      14
_space_group_name_Hall           '-P 2yn'
loop_
_symmetry_equiv_pos_site_id
_symmetry_equiv_pos_as_xyz
1 x,y,z
2 1/2-x,1/2+y,1/2-z
3 -x,-y,-z
4 1/2+x,1/2-y,1/2+z
_cell_length_a                   16.2998(5)
_cell_length_b                   9.1813(2)
_cell_length_c                   18.2724(6)
_cell_angle_alpha                90
_cell_angle_beta                 113.500(4)
_cell_angle_gamma                90
_cell_volume                     2507.72
loop_
_atom_site_label
_atom_site_type_symbol
_atom_site_fract_x
_atom_site_fract_y
_atom_site_fract_z
Cd1 Cd 0.870449(19) 0.49536(3) 0.142711(17)
O1 O 0.99720(19) 0.3280(3) 0.19536(18)
O2 O 0.93892(18) -0.4114(3) 0.27566(16)
O3 O 0.86157(19) 0.2597(3) 0.17597(18)
C1 C 0.9449(3) 0.2374(4) 0.2037(2)
N1 N 0.5137(2) 0.8730(3) 0.09179(19)
H1 H 0.5220 0.9453 0.1239
C2 C 0.3586(2) 0.9576(4) 0.1276(2)
H2 H 0.4092 0.9329 0.1726
O4 O 0.23099(19) 1.1544(3) 0.21838(17)
C3 C 0.2864(3) 1.0253(4) 0.1362(2)
N2 N 0.7416(2) 0.6227(3) 0.1239(2)
C4 C 0.3553(3) 0.9268(4) 0.0518(2)
C5 C 0.6699(3) 0.8208(4) 0.1614(2)
H3 H 0.6750 0.8980 0.1959
N3 N 0.3424(2) 0.9925(3) 0.2807(2)
H4 H 0.3797 0.9341 0.2735
C6 C 0.7421(3) 0.7339(4) 0.1726(2)
H5 H 0.7949 0.7526 0.2165
C7 C 0.9746(3) -0.3111(4) 0.2506(3)
C8 C 0.3967(3) 0.9025(4) 0.4133(2)
H6 H 0.4266 0.8294 0.3986
C9 C 0.2833(3) 1.0634(4) 0.2142(2)
N4 N 0.3602(2) 1.0105(3) 0.5154(2)
C10 C 0.4276(3) 0.8461(5) 0.0387(3)
C11 C 0.3070(3) 1.1143(5) 0.3844(3)
H7 H 0.2747 1.1879 0.3500
C12 C 0.4012(3) 0.9078(4) 0.4903(3)
H8 H 0.4342 0.8369 0.5263
O5 O 0.9628(2) -0.3020(3) 0.17929(19)
C13 C 0.5889(3) 0.7927(4) 0.0979(2)
C14 C 0.9851(3) 0.1036(4) 0.2550(3)
H9 H 1.0259 0.1397 0.3073
C15 C 0.3478(2) 1.0056(4) 0.3581(2)
C16 C 1.0305(3) -0.1983(4) 0.3107(3)
H10 H 1.0690 -0.2509 0.3588
C17 C 0.2126(3) 1.0618(5) 0.0684(3)
H11 H 0.1644 1.1080 0.0736
C18 C 0.3154(3) 1.1111(5) 0.4621(3)
H12 H 0.2876 1.1848 0.4788
C19 C 0.5874(3) 0.6811(5) 0.0462(3)
H13 H 0.5355 0.6605 0.0016
O6 O 0.4088(2) 0.7594(4) -0.0158(2)
C20 C 0.2786(3) 0.9634(5) -0.0152(3)
H14 H 0.2754 0.9409 -0.0659
C21 C 1.0401(3) 0.0136(4) 0.2234(4)
H15 H 1.0828 0.0754 0.2134
H16 H 1.0015 -0.0307 0.1732
C22 C 0.6641(3) 0.6012(5) 0.0620(3)
H17 H 0.6617 0.5267 0.0267
C23 C 1.0908(3) -0.1071(5) 0.2840(4)
H18 H 1.1206 -0.1704 0.2598
H19 H 1.1364 -0.0621 0.3304
C24 C 0.2087(3) 1.0314(5) -0.0071(3)
H20 H 0.1584 1.0573 -0.0521
C25 C 0.9175(3) 0.0071(4) 0.2694(3)
H21 H 0.8784 0.0660 0.2859
H22 H 0.8810 -0.0432 0.2205
C26 C 0.9668(4) -0.1020(4) 0.3336(3)
H23 H 0.9237 -0.1636 0.3432
H24 H 1.0010 -0.0505 0.3827
Cd1_2 Cd 0.870449(19) -0.50464(3) 0.142711(17)
Cd1C Cd 0.370449(19) 1.00464(3) 0.642711(17)
O2_2 O 0.93892(18) 0.5886(3) 0.27566(16)
N4C N 0.8602(2) 0.4895(3) 0.0154(2)
O5_2 O 0.9628(2) 0.6980(3) 0.17929(19)
loop_
_geom_bond_atom_site_label_1
_geom_bond_atom_site_label_2
_geom_bond_site_symmetry_1
_geom_bond_site_symmetry_2
Cd1 O1 1_555 1_555
O1 C1 1_555 1_555
O2 C7 1_555 1_555
O3 Cd1 1_555 1_555
C1 O3 1_555 1_555
N1 H1 1_555 1_555
C2 H2 1_555 1_555
O4 C9 1_555 1_555
C3 C2 1_555 1_555
N2 Cd1 1_555 1_555
C4 C2 1_555 1_555
C5 H3 1_555 1_555
N3 H4 1_555 1_555
C6 N2 1_555 1_555
H5 C6 1_555 1_555
C7 O5 1_555 1_555
C8 H6 1_555 1_555
C9 C3 1_555 1_555
N4 C12 1_555 1_555
C10 N1 1_555 1_555
C11 H7 1_555 1_555
C12 C8 1_555 1_555
H8 C12 1_555 1_555
O5 Cd1_2 1_555 1_555
C13 N1 1_555 1_555
C14 C1 1_555 1_555
H9 C14 1_555 1_555
C15 N3 1_555 1_555
C16 C7 1_555 1_555
H10 C16 1_555 1_555
C17 C3 1_555 1_555
H11 C17 1_555 1_555
C18 N4 1_555 1_555
H12 C18 1_555 1_555
C19 C13 1_555 1_555
H13 C19 1_555 1_555
O6 C10 1_555 1_555
C20 C4 1_555 1_555
H14 C20 1_555 1_555
C21 C14 1_555 1_555
H15 C21 1_555 1_555
H16 C21 1_555 1_555
C22 N2 1_555 1_555
H17 C22 1_555 1_555
C23 C16 1_555 1_555
H18 C23 1_555 1_555
H19 C23 1_555 1_555
C24 C17 1_555 1_555
H20 C24 1_555 1_555
C25 C14 1_555 1_555
H21 C25 1_555 1_555
H22 C25 1_555 1_555
C26 C16 1_555 1_555
H23 C26 1_555 1_555
H24 C26 1_555 1_555
Cd1_2 O2 1_555 1_555
Cd1C N4 1_555 1_555
O2_2 Cd1 1_555 1_555
N4C Cd1 1_555 1_555
O5_2 Cd1 1_555 1_555
C4 C10 1_555 1_555
C5 C6 1_555 1_555
C5 C13 1_555 1_555
N3 C9 1_555 1_555
C8 C15 1_555 1_555
C11 C15 1_555 1_555
C11 C18 1_555 1_555
C19 C22 1_555 1_555
C20 C24 1_555 1_555
C21 C23 1_555 1_555
C25 C26 1_555 1_555

#END
