
#######################################################################
#
#                 Cambridge Crystallographic Data Centre
#                                CCDC 
#
#######################################################################
#
# If this CIF has been generated from an entry in the Cambridge 
# Structural Database, then it will include bibliographic, chemical, 
# crystal, experimental, refinement or atomic coordinate data resulting 
# from the CCDC's data processing and validation procedures.
#
#######################################################################

data_OTUXIL
_symmetry_cell_setting           monoclinic
_symmetry_space_group_name_H-M   'P 21/n'
_symmetry_Int_Tables_number      14
_space_group_name_Hall           '-P 2yn'
loop_
_symmetry_equiv_pos_site_id
_symmetry_equiv_pos_as_xyz
1 x,y,z
2 1/2-x,1/2+y,1/2-z
3 -x,-y,-z
4 1/2+x,1/2-y,1/2+z
_cell_length_a                   9.5894(3)
_cell_length_b                   18.8609(4)
_cell_length_c                   13.2876(4)
_cell_angle_alpha                90
_cell_angle_beta                 106.102(3)
_cell_angle_gamma                90
_cell_volume                     2308.98
loop_
_atom_site_label
_atom_site_type_symbol
_atom_site_fract_x
_atom_site_fract_y
_atom_site_fract_z
Zn1 Zn 0.10560(3) 1.097787(16) 0.82993(2)
N1 N 0.2489(2) 1.01485(12) 0.86891(17)
O1 O 0.1592(2) 1.15525(11) 0.72279(16)
O2 O 0.4945(2) 1.35253(12) 0.40920(16)
N2 N 0.5250(2) 0.83819(12) 0.90762(16)
H1 H 0.5525 0.8220 0.9705
O3 O 0.5414(2) 0.82179(11) 0.74216(15)
C1 C 1.0288(3) 0.59332(15) 0.9591(2)
N3 N 1.4369(2) 0.45790(12) 1.22795(17)
C2 C 0.4328(3) 0.89668(14) 0.8909(2)
O4 O 1.0652(2) 0.55859(12) 0.89367(15)
N4 N 1.0997(2) 0.58999(12) 1.06325(18)
H2 H 1.0714 0.6194 1.1029
C3 C 0.3322(3) 1.23689(14) 0.6963(2)
C4 C 0.5316(3) 1.36340(16) 0.5058(2)
C5 C 0.2781(3) 1.18729(15) 0.7653(2)
C6 C 0.6811(3) 0.74428(14) 0.8717(2)
C7 C 0.5763(3) 0.80382(14) 0.8346(2)
C8 C 0.3857(3) 0.92232(15) 0.9734(2)
H3 H 0.4156 0.9004 1.0385
O5 O 0.6344(3) 1.40232(15) 0.5486(2)
C9 C 0.8434(3) 0.66066(14) 0.8268(2)
H4 H 0.8778 0.6385 0.7759
C10 C 0.4542(3) 1.32199(15) 0.5710(2)
C11 C 0.9027(3) 0.64366(14) 0.9313(2)
C12 C 1.3022(3) 0.50797(17) 1.0642(2)
H5 H 1.2887 0.5119 0.9924
C13 C 1.2393(3) 0.53566(16) 1.2205(2)
H6 H 1.1814 0.5586 1.2560
C14 C 0.7341(3) 0.70995(15) 0.7975(2)
H7 H 0.6950 0.7205 0.7269
C15 C 0.7332(3) 0.72386(16) 0.9747(2)
H8 H 0.6940 0.7437 1.0249
C16 C 0.2952(3) 0.97994(15) 0.9595(2)
H9 H 0.2644 0.9955 1.0162
C17 C 0.3428(3) 1.27531(15) 0.5261(2)
H10 H 0.3086 1.2721 0.4535
C18 C 1.3515(3) 0.49277(16) 1.2742(2)
H11 H 1.3682 0.4880 1.3463
C19 C 0.3875(4) 0.93429(18) 0.7974(2)
H12 H 0.4182 0.9206 0.7398
C20 C 1.2128(3) 0.54454(15) 1.1134(2)
C21 C 0.2978(4) 0.99129(18) 0.7906(2)
H13 H 0.2689 1.0153 0.7270
C22 C 0.8429(3) 0.67437(17) 1.0045(2)
H14 H 0.8771 0.6615 1.0746
C23 C 0.2821(3) 1.23340(15) 0.5881(2)
H15 H 0.2068 1.2026 0.5569
C24 C 0.4392(3) 1.28529(17) 0.7409(2)
H16 H 0.4714 1.2894 0.8134
C25 C 1.4109(3) 0.46585(16) 1.1246(2)
H17 H 1.4698 0.4415 1.0913
C26 C 0.4989(4) 1.32759(17) 0.6792(2)
H18 H 0.5702 1.3604 0.7106
O6 O 0.3486(2) 1.17854(11) 0.85787(15)
Zn1C Zn 0.60560(3) 1.402213(16) 0.32993(2)
Zn1C_2 Zn 1.60560(3) 0.402213(16) 1.32993(2)
O2C O -0.0055(2) 1.14747(12) 0.90920(16)
N3C N -0.0631(2) 1.04210(12) 0.72795(17)
loop_
_geom_bond_atom_site_label_1
_geom_bond_atom_site_label_2
_geom_bond_site_symmetry_1
_geom_bond_site_symmetry_2
Zn1 N1 1_555 1_555
N1 C16 1_555 1_555
O1 Zn1 1_555 1_555
O2 C4 1_555 1_555
N2 H1 1_555 1_555
O3 C7 1_555 1_555
C1 O4 1_555 1_555
N3 C18 1_555 1_555
C2 N2 1_555 1_555
N4 C1 1_555 1_555
H2 N4 1_555 1_555
C3 C5 1_555 1_555
C4 O5 1_555 1_555
C5 O1 1_555 1_555
C6 C7 1_555 1_555
C7 N2 1_555 1_555
C8 C2 1_555 1_555
H3 C8 1_555 1_555
C9 H4 1_555 1_555
C10 C4 1_555 1_555
C11 C1 1_555 1_555
C12 H5 1_555 1_555
C13 H6 1_555 1_555
C14 C6 1_555 1_555
H7 C14 1_555 1_555
C15 C6 1_555 1_555
H8 C15 1_555 1_555
C16 C8 1_555 1_555
H9 C16 1_555 1_555
C17 C10 1_555 1_555
H10 C17 1_555 1_555
C18 C13 1_555 1_555
H11 C18 1_555 1_555
C19 C2 1_555 1_555
H12 C19 1_555 1_555
C20 N4 1_555 1_555
C21 N1 1_555 1_555
H13 C21 1_555 1_555
C22 C11 1_555 1_555
H14 C22 1_555 1_555
C23 C3 1_555 1_555
H15 C23 1_555 1_555
C24 C3 1_555 1_555
H16 C24 1_555 1_555
C25 N3 1_555 1_555
H17 C25 1_555 1_555
C26 C10 1_555 1_555
H18 C26 1_555 1_555
O6 C5 1_555 1_555
Zn1C O2 1_555 1_555
Zn1C_2 N3 1_555 1_555
O2C Zn1 1_555 1_555
N3C Zn1 1_555 1_555
C9 C11 1_555 1_555
C9 C14 1_555 1_555
C12 C20 1_555 1_555
C12 C25 1_555 1_555
C13 C20 1_555 1_555
C15 C22 1_555 1_555
C17 C23 1_555 1_555
C19 C21 1_555 1_555
C24 C26 1_555 1_555

#END
