
#######################################################################
#
#                 Cambridge Crystallographic Data Centre
#                                CCDC 
#
#######################################################################
#
# If this CIF has been generated from an entry in the Cambridge 
# Structural Database, then it will include bibliographic, chemical, 
# crystal, experimental, refinement or atomic coordinate data resulting 
# from the CCDC's data processing and validation procedures.
#
#######################################################################

data_OTUYUY
_symmetry_cell_setting           monoclinic
_symmetry_space_group_name_H-M   'P 21/c'
_symmetry_Int_Tables_number      14
_space_group_name_Hall           '-P 2ybc'
loop_
_symmetry_equiv_pos_site_id
_symmetry_equiv_pos_as_xyz
1 x,y,z
2 -x,1/2+y,1/2-z
3 -x,-y,-z
4 x,1/2-y,1/2+z
_cell_length_a                   7.7939(19)
_cell_length_b                   12.520(3)
_cell_length_c                   29.982(7)
_cell_angle_alpha                90
_cell_angle_beta                 92.952(4)
_cell_angle_gamma                90
_cell_volume                     2921.75
loop_
_atom_site_label
_atom_site_type_symbol
_atom_site_fract_x
_atom_site_fract_y
_atom_site_fract_z
Eu1 Eu 0.96742(3) 0.445452(19) 0.433343(8)
Zn1 Zn 0.28426(7) 0.45103(4) 0.170766(18)
O1 O 0.8466(5) 0.5459(3) 0.49990(12)
O2 O 0.8417(5) 0.3097(3) 0.48116(13)
C1 C 1.2090(7) 0.5996(4) 0.40758(17)
C2 C 0.7234(7) 0.4897(5) 0.27064(18)
H1 H 0.8276 0.5260 0.2722
C3 C 1.3151(7) 0.7888(4) 0.39869(17)
H2 H 1.2241 0.8139 0.4146
O3 O 1.1252(5) 1.2878(3) 0.42113(14)
O4 O 0.6931(6) 0.5379(4) 0.43768(14)
C4 C 0.6722(7) 0.4305(4) 0.30650(17)
C5 C 1.3318(7) 0.6805(4) 0.39006(16)
C6 C 1.4356(6) 0.8587(4) 0.38325(16)
N1 N 1.5678(5) 0.8249(3) 0.35953(14)
O5 O 0.8952(6) 0.4993(4) 0.35528(14)
O6 O 1.2348(5) 0.5026(3) 0.40006(14)
C7 C 0.7845(7) 0.4274(4) 0.34916(17)
C8 C 1.1493(7) 1.1941(4) 0.43507(17)
C9 C 1.4684(8) 0.6458(4) 0.36645(19)
H3 H 1.4826 0.5735 0.3605
O7 O 0.7612(6) 0.3567(3) 0.37729(13)
C10 C 1.3045(7) 1.0260(4) 0.41478(17)
H4 H 1.2235 0.9855 0.4290
C11 C 1.3019(7) 1.1377(4) 0.41718(16)
O8 O 1.0581(6) 1.1464(3) 0.46189(16)
C12 C 1.5831(8) 0.7196(4) 0.35181(19)
H5 H 1.6751 0.6958 0.3359
C13 C 0.5155(7) 0.3782(4) 0.30272(18)
H6 H 0.4782 0.3379 0.3264
O9 O 1.0859(5) 0.6310(3) 0.42968(13)
O10 O -0.1874(5) 0.0914(3) 0.30191(13)
C14 C 0.4144(7) 0.3864(4) 0.26343(17)
C15 C 0.2448(7) 0.3310(4) 0.25632(16)
C16 C 0.1782(7) 0.2627(4) 0.28736(18)
H7 H 0.2366 0.2524 0.3149
C17 C 1.4304(7) 0.9769(4) 0.39084(16)
C18 C 0.7112(7) 0.5700(5) 0.47673(19)
C19 C 0.0256(7) 0.2097(4) 0.27765(18)
C20 C 0.6174(7) 0.4938(5) 0.23253(18)
H8 H 0.6533 0.5328 0.2083
O11 O 0.0694(7) 0.0927(5) 0.33807(17)
C21 C 1.4343(8) 1.1932(4) 0.39960(17)
H9 H 1.4398 1.2671 0.4025
C22 C -0.0628(7) 0.2311(5) 0.23715(19)
H10 H -0.1684 0.1993 0.2300
C23 C -0.0368(7) 0.1245(4) 0.30889(18)
N2 N 1.5535(6) 1.0339(3) 0.37200(14)
N3 N 0.4652(5) 0.4445(3) 0.22873(13)
N4 N 0.1611(6) 0.3494(3) 0.21675(14)
C24 C 1.5589(7) 1.1393(4) 0.37773(18)
H11 H 1.6496 1.1777 0.3666
C25 C 0.0099(7) 0.3006(5) 0.20794(19)
H12 H -0.0486 0.3143 0.1807
C26 C 0.5772(10) 0.6374(7) 0.4969(2)
H13 H 0.6038 0.7115 0.4928
H14 H 0.5746 0.6220 0.5282
H15 H 0.4669 0.6219 0.4826
O12 O 0.0806(5) 0.4321(3) 0.12339(12)
H16 H 0.8806 0.2495 0.4786
H17 H 0.8464 0.3231 0.5071
H18 H 0.1168 0.4536 0.0984
H19 H -0.0212 0.4167 0.1303
Eu1B Eu 1.03258(3) 0.554548(19) 0.566657(8)
Eu1_2 Eu 0.96742(3) 1.445452(19) 0.433343(8)
Zn1A Zn 1.71574(7) 0.95103(4) 0.329234(18)
Zn1A_2 Zn -0.28426(7) -0.04897(4) 0.329234(18)
O1B O 1.1534(5) 0.4541(3) 0.50010(12)
O3_2 O 1.1252(5) 0.2878(3) 0.42113(14)
N1A N 0.4322(5) 0.3249(3) 0.14047(14)
O10A O 0.1874(5) 0.5914(3) 0.19809(13)
N2A N 0.4465(6) 0.5339(3) 0.12800(14)
O13 O 0.1791(5) 0.4654(3) 0.03916(12)
H20 H 0.2063 0.5304 0.0387
H21 H 0.2738 0.4356 0.0368
loop_
_geom_bond_atom_site_label_1
_geom_bond_atom_site_label_2
_geom_bond_site_symmetry_1
_geom_bond_site_symmetry_2
Eu1 O1 1_555 1_555
Zn1 N3 1_555 1_555
O1 C18 1_555 1_555
O2 Eu1 1_555 1_555
C1 C5 1_555 1_555
C2 H1 1_555 1_555
C3 H2 1_555 1_555
O3 C8 1_555 1_555
O4 Eu1 1_555 1_555
C4 C2 1_555 1_555
C5 C3 1_555 1_555
C6 C3 1_555 1_555
N1 C6 1_555 1_555
O5 Eu1 1_555 1_555
O6 Eu1 1_555 1_555
C7 C4 1_555 1_555
C8 C11 1_555 1_555
C9 C5 1_555 1_555
H3 C9 1_555 1_555
O7 Eu1 1_555 1_555
C10 H4 1_555 1_555
C11 C10 1_555 1_555
O8 C8 1_555 1_555
C12 N1 1_555 1_555
H5 C12 1_555 1_555
C13 C4 1_555 1_555
H6 C13 1_555 1_555
O9 Eu1 1_555 1_555
O10 C23 1_555 1_555
C14 C13 1_555 1_555
C15 C14 1_555 1_555
C16 C15 1_555 1_555
H7 C16 1_555 1_555
C17 C6 1_555 1_555
C18 O4 1_555 1_555
C19 C16 1_555 1_555
C20 C2 1_555 1_555
H8 C20 1_555 1_555
O11 C23 1_555 1_555
C21 C11 1_555 1_555
H9 C21 1_555 1_555
C22 C19 1_555 1_555
H10 C22 1_555 1_555
C23 C19 1_555 1_555
N2 C17 1_555 1_555
N3 C14 1_555 1_555
N4 Zn1 1_555 1_555
C24 C21 1_555 1_555
H11 C24 1_555 1_555
C25 C22 1_555 1_555
H12 C25 1_555 1_555
C26 C18 1_555 1_555
H13 C26 1_555 1_555
H14 C26 1_555 1_555
H15 C26 1_555 1_555
O12 Zn1 1_555 1_555
H16 O2 1_555 1_555
H17 O2 1_555 1_555
H18 O12 1_555 1_555
H19 O12 1_555 1_555
O13 H20 1_555 1_555
H21 O13 1_555 1_555
Eu1B O1 1_555 1_555
Eu1_2 O3 1_555 1_555
Zn1A N1 1_555 1_555
Zn1A_2 O10 1_555 1_555
O1B Eu1 1_555 1_555
O3_2 Eu1 1_555 1_555
N1A Zn1 1_555 1_555
O10A Zn1 1_555 1_555
N2A Zn1 1_555 1_555
C1 O6 1_555 1_555
C1 O9 1_555 1_555
O5 C7 1_555 1_555
C7 O7 1_555 1_555
C9 C12 1_555 1_555
C10 C17 1_555 1_555
C15 N4 1_555 1_555
C20 N3 1_555 1_555
N2 C24 1_555 1_555
N2 Zn1A 1_555 1_555
N4 C25 1_555 1_555
Eu1B O1B 1_555 1_555

#END
