
#######################################################################
#
#                 Cambridge Crystallographic Data Centre
#                                CCDC 
#
#######################################################################
#
# If this CIF has been generated from an entry in the Cambridge 
# Structural Database, then it will include bibliographic, chemical, 
# crystal, experimental, refinement or atomic coordinate data resulting 
# from the CCDC's data processing and validation procedures.
#
#######################################################################

data_OTUYAE
_symmetry_cell_setting           monoclinic
_symmetry_space_group_name_H-M   'P 21/c'
_symmetry_Int_Tables_number      14
_space_group_name_Hall           '-P 2ybc'
loop_
_symmetry_equiv_pos_site_id
_symmetry_equiv_pos_as_xyz
1 x,y,z
2 -x,1/2+y,1/2-z
3 -x,-y,-z
4 x,1/2-y,1/2+z
_cell_length_a                   12.3410(11)
_cell_length_b                   14.0421(13)
_cell_length_c                   11.4300(10)
_cell_angle_alpha                90
_cell_angle_beta                 96.641(5)
_cell_angle_gamma                90
_cell_volume                     1967.46
loop_
_atom_site_label
_atom_site_type_symbol
_atom_site_fract_x
_atom_site_fract_y
_atom_site_fract_z
Zn1 Zn -0.0193(3) 1.4526(3) 1.3089(3)
O1 O 0.46950(17) 1.20206(16) 1.2307(2)
O2 O -0.0471(9) 1.3758(10) 1.4378(13)
O3 O -0.12841(15) 1.51343(15) 1.19517(17)
O4 O -0.19093(17) 1.36712(16) 1.1979(2)
O5 O -0.0851(12) 1.4334(11) 1.6275(10)
O6 O -0.211(2) 1.3304(11) 1.5467(17)
N1 N 0.08969(16) 1.36180(15) 1.24752(18)
N2 N 0.30189(17) 1.14900(16) 1.1580(2)
C1 C 0.1274(2) 1.22052(18) 1.1440(2)
H1 H 0.1013 1.1721 1.0928
C2 C 0.23609(19) 1.22324(17) 1.1878(2)
C3 C 0.2711(2) 1.2984(2) 1.2608(3)
H2 H 0.3441 1.3040 1.2909
C4 C 0.1963(2) 1.3642(2) 1.2880(3)
H3 H 0.2209 1.4140 1.3378
C5 C 0.4120(2) 1.1388(2) 1.1850(2)
C6 C 0.4558(2) 1.0446(2) 1.1470(3)
H4 H 0.5216 1.0288 1.1980
H5 H 0.4024 0.9950 1.1553
C7 C 0.4810(3) 1.04748(19) 1.0203(3)
H6 H 0.5371 1.0947 1.0129
H7 H 0.4161 1.0667 0.9698
C8 C -0.3068(2) 1.4841(2) 1.0992(2)
C9 C -0.3957(2) 1.4247(2) 1.0875(2)
H8 H -0.3898 1.3642 1.1208
C10 C -0.4965(2) 1.45375(18) 1.0255(2)
C11 C -0.5899(2) 1.3948(2) 1.0127(3)
H9 H -0.5861 1.3345 1.0464
C12 C -0.3147(2) 1.5753(2) 1.0481(3)
H10 H -0.2544 1.6155 1.0558
C13 C -0.2022(2) 1.4516(2) 1.1686(2)
C14 C 0.0578(2) 1.28933(19) 1.1761(2)
H11 H -0.0156 1.2853 1.1466
H12 H 0.266(3) 1.100(2) 1.121(3)
O7 O -0.2035(14) 1.500(2) 1.471(2)
S1 S -0.1459(7) 1.4156(4) 1.5215(4)
Zn1B Zn 0.0193(3) 1.5474(3) 1.6911(3)
Zn1B_2 Zn 1.0193(3) 0.5474(3) 0.6911(3)
Zn1B_3 Zn -0.9807(3) 1.5474(3) 0.6911(3)
O1B O 0.53050(17) 0.79794(16) 0.7693(2)
O2B O 0.0471(9) 1.6242(10) 1.5622(13)
O3B O -0.87159(15) 1.48657(15) 0.80483(17)
O3B_2 O 0.12841(15) 1.48657(15) 1.80483(17)
O4B O -0.80907(17) 1.63288(16) 0.8021(2)
O5B O 0.0851(12) 1.5666(11) 1.3725(10)
O6B O 0.211(2) 1.6696(11) 1.4533(17)
N1B N 0.91031(16) 0.63820(15) 0.75248(18)
N1B_2 N -0.08969(16) 1.63820(15) 1.75248(18)
N2B N 0.69811(17) 0.85100(16) 0.8420(2)
C1B C 0.8726(2) 0.77948(18) 0.8560(2)
H1B H 0.8987 0.8279 0.9072
C2B C 0.76391(19) 0.77676(17) 0.8122(2)
C3B C 0.7289(2) 0.7016(2) 0.7392(3)
H2B H 0.6559 0.6960 0.7091
C4B C 0.8037(2) 0.6358(2) 0.7120(3)
H3B H 0.7791 0.5860 0.6622
C5B C 0.5880(2) 0.8612(2) 0.8150(2)
C6B C 0.5442(2) 0.9554(2) 0.8530(3)
H4B H 0.4784 0.9712 0.8020
H5B H 0.5976 1.0050 0.8447
C7B C 0.5190(3) 0.95252(19) 0.9797(3)
H6B H 0.4629 0.9053 0.9871
H7B H 0.5839 0.9333 1.0302
C8B C -0.6932(2) 1.5159(2) 0.9008(2)
C9B C -0.6043(2) 1.5753(2) 0.9125(2)
H8B H -0.6102 1.6358 0.8792
C10B C -0.5035(2) 1.54625(18) 0.9745(2)
C11B C -0.4101(2) 1.6052(2) 0.9873(3)
H9B H -0.4139 1.6655 0.9536
C12B C -0.6853(2) 1.4247(2) 0.9519(3)
H10B H -0.7456 1.3845 0.9442
C13B C -0.7978(2) 1.5484(2) 0.8314(2)
C14B C 0.9422(2) 0.71067(19) 0.8239(2)
H11B H 1.0156 0.7147 0.8534
H12B H 0.734(3) 0.900(2) 0.879(3)
O7B O 0.2035(14) 1.500(2) 1.529(2)
S1B S 0.1459(7) 1.5844(4) 1.4785(4)
N3 N 0.8241(3) 0.3043(2) 0.8140(3)
C15 C 0.9034(4) 0.3544(3) 0.8968(3)
C16 C 0.7102(3) 0.3275(4) 0.8230(4)
Zn2? Zn 0.0171(2) 1.5460(2) 1.6915(3)
S2? S 0.8696(8) 0.4171(4) 0.5254(6)
O8? O -0.0701(10) 1.3885(11) 1.4508(13)
O9? O 0.9328(12) 0.4421(11) 0.6548(11)
O10? O 0.8242(14) 0.5038(19) 0.479(2)
N4? N 0.8090(14) 0.2927(12) 0.8845(17)
O11? O 0.218(2) 1.6465(12) 1.466(2)
loop_
_geom_bond_atom_site_label_1
_geom_bond_atom_site_label_2
_geom_bond_site_symmetry_1
_geom_bond_site_symmetry_2
Zn1 O2 1_555 1_555
O1 C5 1_555 1_555
O2 S1 1_555 1_555
O3 Zn1 1_555 1_555
O4 C13 1_555 1_555
O5 S1 1_555 1_555
O6 S1 1_555 1_555
N1 Zn1 1_555 1_555
N2 C2 1_555 1_555
C1 H1 1_555 1_555
C2 C1 1_555 1_555
C3 C2 1_555 1_555
H2 C3 1_555 1_555
C4 N1 1_555 1_555
H3 C4 1_555 1_555
C5 N2 1_555 1_555
C6 C5 1_555 1_555
H4 C6 1_555 1_555
H5 C6 1_555 1_555
C7 C6 1_555 1_555
H6 C7 1_555 1_555
H7 C7 1_555 1_555
C8 C9 1_555 1_555
C9 H8 1_555 1_555
C10 C9 1_555 1_555
C11 C10 1_555 1_555
H9 C11 1_555 1_555
C12 C8 1_555 1_555
H10 C12 1_555 1_555
C13 O3 1_555 1_555
C14 N1 1_555 1_555
H11 C14 1_555 1_555
H12 N2 1_555 1_555
O7 S1 1_555 1_555
N3 C15 1_555 1_555
C16 N3 1_555 1_555
Zn1B O5 1_555 1_555
Zn1B_2 N1B 1_555 1_555
Zn1B_3 O3B 1_555 1_555
O1B C5B 1_555 1_555
O2B Zn1B 1_555 1_555
O3B C13B 1_555 1_555
O3B_2 Zn1B 1_555 1_555
O4B C13B 1_555 1_555
O5B Zn1 1_555 1_555
O6B S1B 1_555 1_555
N1B C4B 1_555 1_555
N1B_2 Zn1B 1_555 1_555
N2B C2B 1_555 1_555
C1B H1B 1_555 1_555
C2B C1B 1_555 1_555
C3B C2B 1_555 1_555
H2B C3B 1_555 1_555
C4B C3B 1_555 1_555
H3B C4B 1_555 1_555
C5B N2B 1_555 1_555
C6B C5B 1_555 1_555
H4B C6B 1_555 1_555
H5B C6B 1_555 1_555
C7B C7 1_555 1_555
H6B C7B 1_555 1_555
H7B C7B 1_555 1_555
C8B C9B 1_555 1_555
C9B H8B 1_555 1_555
C10B C10 1_555 1_555
C11B C12 1_555 1_555
H9B C11B 1_555 1_555
C12B C11 1_555 1_555
H10B C12B 1_555 1_555
C13B C8B 1_555 1_555
C14B N1B 1_555 1_555
H11B C14B 1_555 1_555
H12B N2B 1_555 1_555
O7B S1B 1_555 1_555
S1B O2B 1_555 1_555
C1 C14 1_555 1_555
C3 C4 1_555 1_555
C8 C13 1_555 1_555
O5B S1B 1_555 1_555
C1B C14B 1_555 1_555
C6B C7B 1_555 1_555
C8B C12B 1_555 1_555
C9B C10B 1_555 1_555
C10B C11B 1_555 1_555

#END
