
#######################################################################
#
#                 Cambridge Crystallographic Data Centre
#                                CCDC 
#
#######################################################################
#
# If this CIF has been generated from an entry in the Cambridge 
# Structural Database, then it will include bibliographic, chemical, 
# crystal, experimental, refinement or atomic coordinate data resulting 
# from the CCDC's data processing and validation procedures.
#
#######################################################################

data_OTUZAF
_symmetry_cell_setting           monoclinic
_symmetry_space_group_name_H-M   'P 21/c'
_symmetry_Int_Tables_number      14
_space_group_name_Hall           '-P 2ybc'
loop_
_symmetry_equiv_pos_site_id
_symmetry_equiv_pos_as_xyz
1 x,y,z
2 -x,1/2+y,1/2-z
3 -x,-y,-z
4 x,1/2-y,1/2+z
_cell_length_a                   7.794(3)
_cell_length_b                   12.535(5)
_cell_length_c                   30.012(12)
_cell_angle_alpha                90
_cell_angle_beta                 92.953(5)
_cell_angle_gamma                90
_cell_volume                     2928.21
loop_
_atom_site_label
_atom_site_type_symbol
_atom_site_fract_x
_atom_site_fract_y
_atom_site_fract_z
Sm1 Sm 0.46716(3) 0.44518(2) 0.433183(8)
Zn1 Zn -0.21686(7) 0.45082(5) 0.170688(19)
C1 C 0.7101(6) 0.5999(4) 0.40723(17)
C2 C 0.8163(6) 0.7887(4) 0.39871(17)
H1 H 0.7259 0.8134 0.4150
O1 O 0.7350(5) 0.5031(3) 0.39945(14)
C3 C 1.0840(7) 0.7195(4) 0.3516(2)
H2 H 1.1759 0.6958 0.3357
N1 N 1.0692(5) 0.8244(3) 0.35952(15)
C4 C 0.9349(7) 1.1936(4) 0.39939(18)
H3 H 0.9401 1.2674 0.4023
C5 C 0.8340(6) 0.6802(4) 0.38952(17)
C6 C 0.9366(6) 0.8587(4) 0.38301(16)
N2 N 1.0539(5) 1.0332(3) 0.37176(14)
C7 C 1.0590(7) 1.1392(4) 0.37754(17)
H4 H 1.1496 1.1774 0.3664
C8 C 0.8053(6) 1.0254(4) 0.41485(16)
H5 H 0.7242 0.9851 0.4290
C9 C 0.8024(6) 1.1364(4) 0.41684(17)
C10 C 0.9689(7) 0.6456(5) 0.36615(19)
H6 H 0.9828 0.5734 0.3601
C11 C 0.9325(6) 0.9763(4) 0.39111(17)
O2 O 0.5866(5) 0.6315(3) 0.42950(13)
O3 O 0.5610(6) 1.1456(3) 0.46224(15)
C12 C 0.6502(7) 1.1939(4) 0.43511(17)
O4 O 0.6254(5) 1.2871(3) 0.42116(14)
N3 N -0.0361(5) 0.4439(3) 0.22837(14)
O5 O 0.2602(6) 0.3567(3) 0.37691(13)
N4 N -0.3398(5) 0.3489(4) 0.21688(14)
O6 O 0.3944(6) 0.4987(4) 0.35470(14)
C13 C -0.0860(6) 0.3857(4) 0.26338(17)
C14 C 0.2840(7) 0.4266(5) 0.34870(18)
C15 C -0.2552(6) 0.3308(4) 0.25644(16)
C16 C -0.4906(7) 0.3005(5) 0.20766(19)
H7 H -0.5494 0.3141 0.1805
O7 O 0.3462(5) 0.5456(3) 0.49988(13)
O8 O -0.6858(5) 0.0908(3) 0.30180(13)
O9 O 0.1918(6) 0.5376(4) 0.43763(14)
C17 C 0.1711(7) 0.4307(4) 0.30603(17)
C18 C -0.4745(6) 0.2094(4) 0.27777(17)
C19 C 0.2095(7) 0.5702(5) 0.47656(19)
C20 C -0.3209(7) 0.2624(5) 0.28758(18)
H8 H -0.2621 0.2520 0.3150
C21 C 0.0151(7) 0.3773(4) 0.30250(18)
H9 H -0.0211 0.3365 0.3261
C22 C 0.1154(7) 0.4944(5) 0.23229(19)
H10 H 0.1505 0.5341 0.2082
C23 C -0.5620(7) 0.2303(5) 0.23753(19)
H11 H -0.6674 0.1980 0.2305
C24 C 0.2216(7) 0.4902(5) 0.27050(19)
H12 H 0.3255 0.5268 0.2722
O10 O -0.4292(6) 0.0924(5) 0.33812(17)
C25 C -0.5359(7) 0.1247(5) 0.30922(19)
C26 C 0.0772(9) 0.6376(7) 0.4974(3)
H13 H 0.1014 0.7116 0.4922
H14 H 0.0796 0.6242 0.5289
H15 H -0.0345 0.6204 0.4843
O12 O -0.4213(5) 0.4314(3) 0.12363(14)
O13 O 0.3426(5) 0.3080(3) 0.48147(14)
H16 H -0.3909 0.4364 0.0972
H17 H -0.4785 0.4914 0.1271
H18 H 0.3498 0.3239 0.5089
H19 H 0.4002 0.2534 0.4772
Sm1_2 Sm 0.46716(3) 1.44518(2) 0.433183(8)
Sm1B Sm 0.53284(3) 0.55482(2) 0.566817(8)
Zn1A Zn 1.21686(7) 0.95082(5) 0.329312(19)
Zn1A_2 Zn -0.78314(7) -0.04918(5) 0.329312(19)
N1A N -0.0692(5) 0.3244(3) 0.14048(15)
N2A N -0.0539(5) 0.5332(3) 0.12824(14)
O4_2 O 0.6254(5) 0.2871(3) 0.42116(14)
O7B O 0.6538(5) 0.4544(3) 0.50012(13)
O8A O -0.3142(5) 0.5908(3) 0.19820(13)
O11 O -0.3171(15) 0.4617(8) 0.0390(3)
loop_
_geom_bond_atom_site_label_1
_geom_bond_atom_site_label_2
_geom_bond_site_symmetry_1
_geom_bond_site_symmetry_2
Sm1 O1 1_555 1_555
Zn1 N3 1_555 1_555
C1 O1 1_555 1_555
C2 H1 1_555 1_555
C3 H2 1_555 1_555
N1 C3 1_555 1_555
C4 H3 1_555 1_555
C5 C1 1_555 1_555
C6 C2 1_555 1_555
N2 C7 1_555 1_555
C7 C4 1_555 1_555
H4 C7 1_555 1_555
C8 H5 1_555 1_555
C9 C4 1_555 1_555
C10 C3 1_555 1_555
H6 C10 1_555 1_555
C11 C6 1_555 1_555
O2 Sm1 1_555 1_555
O3 C12 1_555 1_555
C12 C9 1_555 1_555
O4 C12 1_555 1_555
N3 C13 1_555 1_555
O5 Sm1 1_555 1_555
N4 Zn1 1_555 1_555
O6 Sm1 1_555 1_555
C13 C15 1_555 1_555
C14 O5 1_555 1_555
C15 N4 1_555 1_555
C16 N4 1_555 1_555
H7 C16 1_555 1_555
O7 Sm1 1_555 1_555
O8 C25 1_555 1_555
O9 Sm1 1_555 1_555
C17 C14 1_555 1_555
C18 C20 1_555 1_555
C19 O7 1_555 1_555
C20 C15 1_555 1_555
H8 C20 1_555 1_555
C21 C13 1_555 1_555
H9 C21 1_555 1_555
C22 N3 1_555 1_555
H10 C22 1_555 1_555
C23 C16 1_555 1_555
H11 C23 1_555 1_555
C24 C17 1_555 1_555
H12 C24 1_555 1_555
O10 C25 1_555 1_555
C25 C18 1_555 1_555
C26 C19 1_555 1_555
H13 C26 1_555 1_555
H14 C26 1_555 1_555
H15 C26 1_555 1_555
O12 Zn1 1_555 1_555
O13 Sm1 1_555 1_555
H16 O12 1_555 1_555
H17 O12 1_555 1_555
H18 O13 1_555 1_555
H19 O13 1_555 1_555
Sm1_2 O4 1_555 1_555
Sm1B O7 1_555 1_555
Zn1A N1 1_555 1_555
Zn1A_2 O8 1_555 1_555
N1A Zn1 1_555 1_555
N2A Zn1 1_555 1_555
O4_2 Sm1 1_555 1_555
O7B Sm1 1_555 1_555
O8A Zn1 1_555 1_555
C1 O2 1_555 1_555
C2 C5 1_555 1_555
N1 C6 1_555 1_555
C5 C10 1_555 1_555
N2 C11 1_555 1_555
N2 Zn1A 1_555 1_555
C8 C9 1_555 1_555
C8 C11 1_555 1_555
O6 C14 1_555 1_555
O9 C19 1_555 1_555
C17 C21 1_555 1_555
C18 C23 1_555 1_555
C22 C24 1_555 1_555
Sm1B O7B 1_555 1_555

#END
