
#######################################################################
#
#                 Cambridge Crystallographic Data Centre
#                                CCDC 
#
#######################################################################
#
# If this CIF has been generated from an entry in the Cambridge 
# Structural Database, then it will include bibliographic, chemical, 
# crystal, experimental, refinement or atomic coordinate data resulting 
# from the CCDC's data processing and validation procedures.
#
#######################################################################

data_OTUZEJ
_symmetry_cell_setting           monoclinic
_symmetry_space_group_name_H-M   'P 21/c'
_symmetry_Int_Tables_number      14
_space_group_name_Hall           '-P 2ybc'
loop_
_symmetry_equiv_pos_site_id
_symmetry_equiv_pos_as_xyz
1 x,y,z
2 -x,1/2+y,1/2-z
3 -x,-y,-z
4 x,1/2-y,1/2+z
_cell_length_a                   7.819(2)
_cell_length_b                   12.561(3)
_cell_length_c                   29.962(7)
_cell_angle_alpha                90
_cell_angle_beta                 92.663(5)
_cell_angle_gamma                90
_cell_volume                     2939.52
loop_
_atom_site_label
_atom_site_type_symbol
_atom_site_fract_x
_atom_site_fract_y
_atom_site_fract_z
Nd1 Nd -0.46654(3) 0.055610(15) -0.432760(7)
Zn1 Zn 0.21888(5) 0.04983(3) -0.170720(14)
O1 O -0.5885(4) -0.1317(2) -0.42903(10)
O2 O 0.4223(4) 0.0685(2) -0.12359(10)
O3 O -0.3443(4) -0.0451(2) -0.49959(9)
O4 O -0.3443(4) 0.1951(2) -0.48262(11)
C1 C -0.7119(5) -0.0999(3) -0.40647(13)
O5 O -0.6264(4) -0.7848(2) -0.42099(11)
O6 O 0.6839(4) 0.4104(2) -0.30210(10)
O7 O -0.2579(4) 0.1440(2) -0.37621(11)
C2 C 0.0880(5) 0.1144(3) -0.26301(13)
N1 N 0.0382(4) 0.0560(3) -0.22827(11)
O8 O -0.3915(4) 0.0019(3) -0.35353(11)
N2 N -1.0713(4) -0.3243(2) -0.35950(11)
N3 N 0.3410(4) 0.1514(3) -0.21687(11)
O9 O -0.7351(4) -0.0037(2) -0.39817(11)
C3 C 0.2565(5) 0.1694(3) -0.25643(13)
C4 C -0.8078(5) -0.5242(3) -0.41462(13)
H1 H -0.7274 -0.4837 -0.4290
C5 C -0.8173(5) -0.2881(3) -0.39811(13)
H2 H -0.7258 -0.3130 -0.4139
C6 C -0.2812(5) 0.0727(3) -0.34801(14)
C7 C -0.8348(5) -0.1799(3) -0.38944(13)
C8 C -0.9383(5) -0.3582(3) -0.38293(12)
O10 O -0.5633(5) -0.6440(3) -0.46232(12)
C9 C -0.9331(5) -0.4753(3) -0.39077(12)
C10 C 0.3206(5) 0.2391(3) -0.28727(14)
H3 H 0.2610 0.2509 -0.3144
C11 C -1.0871(6) -0.2198(3) -0.35183(16)
H4 H -1.1800 -0.1963 -0.3362
O11 O -0.1889(5) -0.0384(3) -0.43771(12)
C12 C -0.6515(5) -0.6917(3) -0.43516(14)
C13 C 0.5350(6) 0.3766(3) -0.30924(14)
C14 C -0.9720(6) -0.1458(3) -0.36606(15)
H5 H -0.9866 -0.0739 -0.3600
C15 C -0.9362(6) -0.6920(3) -0.39918(14)
H6 H -0.9411 -0.7657 -0.4020
C16 C -1.0608(5) -0.6378(3) -0.37738(14)
H7 H -1.1516 -0.6757 -0.3663
N4 N -1.0551(4) -0.5328(2) -0.37173(11)
C17 C -0.8038(5) -0.6350(3) -0.41677(13)
C18 C -0.1689(5) 0.0697(3) -0.30560(13)
C19 C -0.0132(5) 0.1227(3) -0.30229(14)
H8 H 0.0230 0.1634 -0.3260
C20 C -0.2190(5) 0.0104(4) -0.26965(14)
H9 H -0.3226 -0.0261 -0.2711
C21 C -0.1128(6) 0.0063(4) -0.23165(14)
H10 H -0.1478 -0.0328 -0.2073
C22 C 0.4740(5) 0.2912(3) -0.27751(14)
C23 C 0.4910(5) 0.1998(4) -0.20828(15)
H11 H 0.5504 0.1855 -0.1813
C24 C 0.5617(5) 0.2701(4) -0.23770(15)
H12 H 0.6665 0.3025 -0.2307
O12 O 0.4276(5) 0.4093(3) -0.33761(13)
C25 C -0.2081(5) -0.0705(4) -0.47678(15)
C26 C -0.0778(7) -0.1381(5) -0.4972(2)
H13 H -0.0735 -0.1213 -0.5284
H14 H 0.0322 -0.1249 -0.4827
H15 H -0.1075 -0.2117 -0.4938
H16 H 0.3970 0.0632 -0.0990
H17 H -0.3770 0.1871 -0.5112
H18 H 0.4654 0.0165 -0.1272
H19 H -0.3837 0.2619 -0.4723
Nd1B Nd -0.53346(3) -0.055610(15) -0.567240(7)
Nd1_2 Nd -0.46654(3) -0.944390(15) -0.432760(7)
Zn1A Zn 0.78112(5) 0.54983(3) -0.329280(14)
Zn1A_2 Zn -1.21888(5) -0.45017(3) -0.329280(14)
O3B O -0.6557(4) 0.0451(2) -0.50041(9)
O5_2 O -0.6264(4) 0.2152(2) -0.42099(11)
O6A O 0.3161(4) -0.0896(2) -0.19790(10)
N2A N 0.0713(4) 0.1757(2) -0.14050(11)
N4A N 0.0551(4) -0.0328(2) -0.12827(11)
O13 O -0.6822(11) 0.4632(6) -0.53927(18)
loop_
_geom_bond_atom_site_label_1
_geom_bond_atom_site_label_2
_geom_bond_site_symmetry_1
_geom_bond_site_symmetry_2
Nd1 O1 1_555 1_555
Zn1 O2 1_555 1_555
O1 C1 1_555 1_555
O2 H16 1_555 1_555
O3 Nd1 1_555 1_555
O4 Nd1 1_555 1_555
C1 O9 1_555 1_555
O5 C12 1_555 1_555
O6 C13 1_555 1_555
O7 Nd1 1_555 1_555
C2 N1 1_555 1_555
N1 Zn1 1_555 1_555
O8 Nd1 1_555 1_555
N2 C8 1_555 1_555
N3 Zn1 1_555 1_555
O9 Nd1 1_555 1_555
C3 C2 1_555 1_555
C4 H1 1_555 1_555
C5 H2 1_555 1_555
C6 O7 1_555 1_555
C7 C1 1_555 1_555
C8 C5 1_555 1_555
O10 C12 1_555 1_555
C9 C4 1_555 1_555
C10 C3 1_555 1_555
H3 C10 1_555 1_555
C11 N2 1_555 1_555
H4 C11 1_555 1_555
O11 Nd1 1_555 1_555
C12 C17 1_555 1_555
C13 C22 1_555 1_555
C14 C7 1_555 1_555
H5 C14 1_555 1_555
C15 H6 1_555 1_555
C16 C15 1_555 1_555
H7 C16 1_555 1_555
N4 C9 1_555 1_555
C17 C4 1_555 1_555
C18 C6 1_555 1_555
C19 C2 1_555 1_555
H8 C19 1_555 1_555
C20 C18 1_555 1_555
H9 C20 1_555 1_555
C21 N1 1_555 1_555
H10 C21 1_555 1_555
C22 C10 1_555 1_555
C23 N3 1_555 1_555
H11 C23 1_555 1_555
C24 C22 1_555 1_555
H12 C24 1_555 1_555
O12 C13 1_555 1_555
C25 O3 1_555 1_555
C26 C25 1_555 1_555
H13 C26 1_555 1_555
H14 C26 1_555 1_555
H15 C26 1_555 1_555
H17 O4 1_555 1_555
H18 O2 1_555 1_555
H19 O4 1_555 1_555
Nd1B O3 1_555 1_555
Nd1_2 O5 1_555 1_555
Zn1A O6 1_555 1_555
Zn1A_2 N2 1_555 1_555
O3B Nd1 1_555 1_555
O5_2 Nd1 1_555 1_555
O6A Zn1 1_555 1_555
N2A Zn1 1_555 1_555
N4A Zn1 1_555 1_555
O8 C6 1_555 1_555
N3 C3 1_555 1_555
C5 C7 1_555 1_555
C8 C9 1_555 1_555
C11 C14 1_555 1_555
O11 C25 1_555 1_555
C15 C17 1_555 1_555
C16 N4 1_555 1_555
N4 Zn1A_2 1_555 1_555
C18 C19 1_555 1_555
C20 C21 1_555 1_555
C23 C24 1_555 1_555
Nd1B O3B 1_555 1_555

#END
