
#######################################################################
#
#                 Cambridge Crystallographic Data Centre
#                                CCDC 
#
#######################################################################
#
# If this CIF has been generated from an entry in the Cambridge 
# Structural Database, then it will include bibliographic, chemical, 
# crystal, experimental, refinement or atomic coordinate data resulting 
# from the CCDC's data processing and validation procedures.
#
#######################################################################

data_OTUZIN
_symmetry_cell_setting           monoclinic
_symmetry_space_group_name_H-M   'P 21/c'
_symmetry_Int_Tables_number      14
_space_group_name_Hall           '-P 2ybc'
loop_
_symmetry_equiv_pos_site_id
_symmetry_equiv_pos_as_xyz
1 x,y,z
2 -x,1/2+y,1/2-z
3 -x,-y,-z
4 x,1/2-y,1/2+z
_cell_length_a                   7.766(3)
_cell_length_b                   12.471(5)
_cell_length_c                   29.941(13)
_cell_angle_alpha                90
_cell_angle_beta                 93.191(8)
_cell_angle_gamma                90
_cell_volume                     2895.28
loop_
_atom_site_label
_atom_site_type_symbol
_atom_site_fract_x
_atom_site_fract_y
_atom_site_fract_z
Dy1 Dy 0.03202(6) 0.44616(4) 0.066198(15)
Zn1 Zn 0.71274(15) 0.45193(10) 0.32925(4)
O1 O 0.9190(10) 0.4322(7) 0.3765(2)
C1 C -0.2090(15) 0.5986(9) 0.0912(4)
O2 O 1.1901(10) 0.0920(6) 0.1985(3)
O3 O -0.1228(11) 1.2906(6) 0.0789(3)
C2 C 1.0646(14) 0.2310(10) 0.2629(4)
H1 H 1.1706 0.1988 0.2701
C3 C -0.3298(14) 0.6802(8) 0.1095(3)
N1 N -0.5500(11) 1.0331(7) 0.1281(3)
O4 O -0.2332(10) 0.5019(6) 0.0985(3)
C4 C -0.3122(14) 0.7887(8) 0.1008(3)
H2 H -0.2216 0.8138 0.0847
O5 O 0.2387(11) 0.3575(7) 0.1211(2)
C5 C 0.3230(14) 0.4314(9) 0.1929(3)
C6 C 0.2714(14) 0.4894(10) 0.2287(3)
H3 H 0.1664 0.5254 0.2271
N2 N -0.5623(11) 0.8254(7) 0.1405(3)
C7 C 1.0349(15) 0.1262(9) 0.1908(3)
N3 N 0.8369(12) 0.3502(7) 0.2835(3)
N4 N 0.5302(11) 0.4431(8) 0.2710(3)
C8 C 0.9730(15) 0.2111(9) 0.2223(3)
C9 C -0.3032(13) 1.0264(8) 0.0849(3)
H4 H -0.2223 0.9856 0.0706
O6 O 0.0982(11) 0.4987(8) 0.1433(3)
C10 C -0.4319(14) 0.8587(8) 0.1167(3)
C11 C -0.4325(15) 1.1955(8) 0.1007(3)
H5 H -0.4378 1.2698 0.0979
C12 C -0.5547(14) 1.1416(8) 0.1223(4)
H6 H -0.6451 1.1801 0.1336
C13 C 0.7532(12) 0.3331(8) 0.2437(3)
C14 C -0.2986(15) 1.1380(8) 0.0825(3)
C15 C -0.1417(15) 1.1967(9) 0.0653(3)
C16 C 0.5832(13) 0.3869(8) 0.2359(3)
C17 C 0.3777(15) 0.4935(10) 0.2672(3)
H7 H 0.3421 0.5329 0.2914
C18 C -0.4668(15) 0.6456(9) 0.1333(3)
H8 H -0.4819 0.5730 0.1389
C19 C 0.2116(14) 0.4275(8) 0.1495(3)
C20 C -0.5792(16) 0.7193(9) 0.1484(4)
H9 H -0.6706 0.6959 0.1646
C21 C 0.8213(15) 0.2637(9) 0.2121(4)
H10 H 0.7635 0.2537 0.1844
C22 C 0.4803(13) 0.3788(9) 0.1967(3)
H11 H 0.5169 0.3383 0.1729
O7 O 0.9324(13) 0.0940(9) 0.1616(3)
C23 C -0.4280(13) 0.9766(7) 0.1085(3)
O8 O -0.0825(10) 0.6302(6) 0.0699(2)
O9 O -0.0545(11) 1.1491(6) 0.0378(3)
C24 C 0.9889(16) 0.3020(11) 0.2924(4)
H12 H 1.0476 0.3163 0.3197
O11 O 0.1496(10) 0.5454(6) -0.0006(2)
O12 O 0.1588(11) 0.3143(6) 0.0198(3)
O13 O 0.3020(11) 0.5390(8) 0.0624(3)
C25 C 0.2866(14) 0.5684(10) 0.0233(4)
C26 C 0.4237(17) 0.6381(13) 0.0037(4)
H13 H 0.4014 0.7120 0.0102
H14 H 0.4212 0.6280 -0.0281
H15 H 0.5352 0.6184 0.0166
H16 H 0.1222 0.3149 -0.0026
H17 H 0.8709 0.4241 0.3998
H18 H 0.1003 0.2467 0.0236
H19 H 0.9879 0.4624 0.3619
Dy1B Dy -0.03202(6) 0.55384(4) -0.066198(15)
Dy1_2 Dy 0.03202(6) 1.44616(4) 0.066198(15)
Zn1A Zn -0.71274(15) 0.95193(10) 0.17075(4)
Zn1A_2 Zn 1.28726(15) -0.04807(10) 0.17075(4)
O2A O 0.8099(10) 0.5920(6) 0.3015(3)
O3_2 O -0.1228(11) 0.2906(6) 0.0789(3)
N1A N 0.5500(11) 0.5331(7) 0.3719(3)
N2A N 0.5623(11) 0.3254(7) 0.3595(3)
O11B O -0.1496(10) 0.4546(6) 0.0006(2)
O10 O 0.825(3) 0.4606(15) 0.4617(4)
loop_
_geom_bond_atom_site_label_1
_geom_bond_atom_site_label_2
_geom_bond_site_symmetry_1
_geom_bond_site_symmetry_2
Dy1 O4 1_555 1_555
Zn1 O1 1_555 1_555
O1 H17 1_555 1_555
C1 C3 1_555 1_555
O2 C7 1_555 1_555
O3 C15 1_555 1_555
C2 H1 1_555 1_555
C3 C4 1_555 1_555
N1 C12 1_555 1_555
O4 C1 1_555 1_555
C4 H2 1_555 1_555
O5 Dy1 1_555 1_555
C5 C6 1_555 1_555
C6 H3 1_555 1_555
N2 C10 1_555 1_555
C7 C8 1_555 1_555
N3 Zn1 1_555 1_555
N4 Zn1 1_555 1_555
C8 C2 1_555 1_555
C9 H4 1_555 1_555
O6 Dy1 1_555 1_555
C10 C4 1_555 1_555
C11 H5 1_555 1_555
C12 C11 1_555 1_555
H6 C12 1_555 1_555
C13 N3 1_555 1_555
C14 C9 1_555 1_555
C15 C14 1_555 1_555
C16 N4 1_555 1_555
C17 C6 1_555 1_555
H7 C17 1_555 1_555
C18 C3 1_555 1_555
H8 C18 1_555 1_555
C19 O5 1_555 1_555
C20 N2 1_555 1_555
H9 C20 1_555 1_555
C21 C8 1_555 1_555
H10 C21 1_555 1_555
C22 C5 1_555 1_555
H11 C22 1_555 1_555
O7 C7 1_555 1_555
C23 N1 1_555 1_555
O8 Dy1 1_555 1_555
O9 C15 1_555 1_555
C24 C2 1_555 1_555
H12 C24 1_555 1_555
O11 Dy1 1_555 1_555
O12 Dy1 1_555 1_555
O13 Dy1 1_555 1_555
C25 O11 1_555 1_555
C26 C25 1_555 1_555
H13 C26 1_555 1_555
H14 C26 1_555 1_555
H15 C26 1_555 1_555
H16 O12 1_555 1_555
H18 O12 1_555 1_555
H19 O1 1_555 1_555
Dy1B O11 1_555 1_555
Dy1_2 O3 1_555 1_555
Zn1A N1 1_555 1_555
Zn1A_2 O2 1_555 1_555
O2A Zn1 1_555 1_555
O3_2 Dy1 1_555 1_555
N1A Zn1 1_555 1_555
N2A Zn1 1_555 1_555
O11B Dy1 1_555 1_555
C1 O8 1_555 1_555
C5 C19 1_555 1_555
N2 Zn1A 1_555 1_555
N3 C24 1_555 1_555
N4 C17 1_555 1_555
C9 C23 1_555 1_555
O6 C19 1_555 1_555
C10 C23 1_555 1_555
C11 C14 1_555 1_555
C13 C16 1_555 1_555
C13 C21 1_555 1_555
C16 C22 1_555 1_555
C18 C20 1_555 1_555
O13 C25 1_555 1_555
Dy1B O11B 1_555 1_555

#END
