
#######################################################################
#
#                 Cambridge Crystallographic Data Centre
#                                CCDC 
#
#######################################################################
#
# If this CIF has been generated from an entry in the Cambridge 
# Structural Database, then it will include bibliographic, chemical, 
# crystal, experimental, refinement or atomic coordinate data resulting 
# from the CCDC's data processing and validation procedures.
#
#######################################################################

data_OTUZOT
_symmetry_cell_setting           monoclinic
_symmetry_space_group_name_H-M   'P 21/c'
_symmetry_Int_Tables_number      14
_space_group_name_Hall           '-P 2ybc'
loop_
_symmetry_equiv_pos_site_id
_symmetry_equiv_pos_as_xyz
1 x,y,z
2 -x,1/2+y,1/2-z
3 -x,-y,-z
4 x,1/2-y,1/2+z
_cell_length_a                   7.7470(17)
_cell_length_b                   12.440(3)
_cell_length_c                   29.949(7)
_cell_angle_alpha                90
_cell_angle_beta                 93.328(4)
_cell_angle_gamma                90
_cell_volume                     2881.4
loop_
_atom_site_label
_atom_site_type_symbol
_atom_site_fract_x
_atom_site_fract_y
_atom_site_fract_z
Er1 Er 0.53164(2) 0.446644(15) 0.066030(7)
Zn1 Zn 1.21121(6) 0.45208(4) 0.329231(17)
N1 N 1.0298(5) 0.4447(3) 0.27094(12)
C1 C 1.5628(6) 0.2326(4) 0.26303(18)
H1 H 1.6695 0.2008 0.2703
C2 C 0.8227(6) 0.4311(3) 0.19200(15)
O1 O 0.7358(5) 0.3580(3) 0.12048(12)
C3 C 0.7113(6) 0.4286(4) 0.14898(16)
N2 N 1.3366(5) 0.3499(3) 0.28341(12)
C4 C 0.7705(6) 0.4894(4) 0.22832(17)
H2 H 0.6649 0.5251 0.2266
C5 C 0.8759(6) 0.4942(4) 0.26679(17)
H3 H 0.8389 0.5333 0.2909
C6 C 1.4761(6) 0.2115(4) 0.22264(16)
C7 C 1.2535(5) 0.3325(3) 0.24356(14)
C8 C 1.3205(6) 0.2642(4) 0.21213(16)
H4 H 1.2622 0.2539 0.1844
O2 O 0.5987(5) 0.5002(3) 0.14268(12)
C9 C 1.0815(6) 0.3871(3) 0.23609(15)
C10 C 0.9808(6) 0.3790(4) 0.19650(15)
H5 H 1.0193 0.3386 0.1729
O3 O 0.2675(4) 0.5007(3) 0.09816(12)
O4 O 0.4189(4) 0.6294(2) 0.06917(11)
C11 C 0.2939(6) 0.5978(3) 0.09111(15)
C12 C 0.1716(6) 0.6793(3) 0.10905(15)
C13 C 1.5398(6) 0.1269(4) 0.19085(16)
O5 O 1.6919(4) 0.0930(3) 0.19846(12)
C14 C 0.0684(5) 0.8596(3) 0.11645(14)
C15 C 0.1883(6) 0.7886(3) 0.10055(15)
H6 H 0.2789 0.8138 0.0844
C16 C 0.0359(6) 0.6448(3) 0.13326(16)
H7 H 0.0215 0.5721 0.1392
C17 C -0.0775(7) 0.7193(4) 0.14843(19)
H8 H -0.1681 0.6955 0.1649
N3 N -0.0631(5) 0.8252(3) 0.14045(13)
C18 C 0.0742(5) 0.9782(3) 0.10857(14)
C19 C 0.2023(6) 1.1392(3) 0.08255(15)
C20 C 0.1987(6) 1.0276(4) 0.08459(15)
H9 H 0.2790 0.9869 0.0700
O6 O 1.4333(6) 0.0938(4) 0.16177(16)
C21 C 1.4895(6) 0.3019(4) 0.29288(17)
H10 H 1.5480 0.3155 0.3203
O7 O 0.6499(4) 0.5464(3) -0.00081(11)
O8 O 0.3785(4) 1.2917(2) 0.07863(12)
N4 N -0.0501(5) 1.0358(3) 0.12795(13)
O9 O 0.4476(5) 1.1486(3) 0.03839(14)
C22 C -0.0554(6) 1.1421(4) 0.12185(16)
H11 H -0.1464 1.1808 0.1329
C23 C 0.0685(6) 1.1963(3) 0.09991(16)
H12 H 0.0626 1.2706 0.0967
C24 C 0.3551(6) 1.1974(3) 0.06472(16)
O10 O 0.7996(5) 0.5385(3) 0.06257(13)
C25 C 0.7853(6) 0.5715(4) 0.02327(17)
C26 C 0.9225(8) 0.6367(6) 0.0040(2)
H13 H 0.8935 0.7115 0.0058
H14 H 0.9324 0.6170 -0.0268
H15 H 1.0307 0.6238 0.0204
O12 O 0.6611(4) 0.3167(3) 0.02050(12)
O13 O 1.4185(4) 0.4324(3) 0.37636(12)
H16 H 0.6235 0.2561 0.0187
H17 H 0.6402 0.3211 -0.0090
H18 H 1.3947 0.4402 0.3995
H19 H 1.4792 0.4805 0.3712
Er1B Er 0.46836(2) 0.553356(15) -0.066030(7)
Er1_2 Er 0.53164(2) 1.446644(15) 0.066030(7)
Zn1A Zn 1.78879(6) -0.04792(4) 0.170769(17)
Zn1A_2 Zn -0.21121(6) 0.95208(4) 0.170769(17)
O5A O 1.3081(4) 0.5930(3) 0.30154(12)
N3A N 1.0631(5) 0.3252(3) 0.35955(13)
O7B O 0.3501(4) 0.4536(3) 0.00081(11)
O8_2 O 0.3785(4) 0.2917(2) 0.07863(12)
N4A N 1.0501(5) 0.5358(3) 0.37205(13)
O11 O 0.6779(13) 0.9632(7) 0.0384(2)
loop_
_geom_bond_atom_site_label_1
_geom_bond_atom_site_label_2
_geom_bond_site_symmetry_1
_geom_bond_site_symmetry_2
Er1 O1 1_555 1_555
Zn1 N1 1_555 1_555
N1 C5 1_555 1_555
C1 H1 1_555 1_555
C2 C3 1_555 1_555
O1 C3 1_555 1_555
C3 O2 1_555 1_555
N2 Zn1 1_555 1_555
C4 C2 1_555 1_555
H2 C4 1_555 1_555
C5 C4 1_555 1_555
H3 C5 1_555 1_555
C6 C1 1_555 1_555
C7 N2 1_555 1_555
C8 C6 1_555 1_555
H4 C8 1_555 1_555
O2 Er1 1_555 1_555
C9 N1 1_555 1_555
C10 C2 1_555 1_555
H5 C10 1_555 1_555
O3 Er1 1_555 1_555
O4 Er1 1_555 1_555
C11 O3 1_555 1_555
C12 C11 1_555 1_555
C13 C6 1_555 1_555
O5 C13 1_555 1_555
C14 C15 1_555 1_555
C15 C12 1_555 1_555
H6 C15 1_555 1_555
C16 C12 1_555 1_555
H7 C16 1_555 1_555
C17 C16 1_555 1_555
H8 C17 1_555 1_555
N3 C14 1_555 1_555
C18 C14 1_555 1_555
C19 C20 1_555 1_555
C20 C18 1_555 1_555
H9 C20 1_555 1_555
O6 C13 1_555 1_555
C21 C1 1_555 1_555
H10 C21 1_555 1_555
O7 Er1 1_555 1_555
O8 C24 1_555 1_555
N4 C18 1_555 1_555
O9 C24 1_555 1_555
C22 N4 1_555 1_555
H11 C22 1_555 1_555
C23 C19 1_555 1_555
H12 C23 1_555 1_555
C24 C19 1_555 1_555
O10 Er1 1_555 1_555
C25 O7 1_555 1_555
C26 C25 1_555 1_555
H13 C26 1_555 1_555
H14 C26 1_555 1_555
H15 C26 1_555 1_555
O12 Er1 1_555 1_555
O13 Zn1 1_555 1_555
H16 O12 1_555 1_555
H17 O12 1_555 1_555
H18 O13 1_555 1_555
H19 O13 1_555 1_555
Er1B O7 1_555 1_555
Er1_2 O8 1_555 1_555
Zn1A O5 1_555 1_555
Zn1A_2 N3 1_555 1_555
O5A Zn1 1_555 1_555
N3A Zn1 1_555 1_555
O7B Er1 1_555 1_555
O8_2 Er1 1_555 1_555
N4A Zn1 1_555 1_555
N2 C21 1_555 1_555
C7 C8 1_555 1_555
C7 C9 1_555 1_555
C9 C10 1_555 1_555
O4 C11 1_555 1_555
C17 N3 1_555 1_555
N4 Zn1A_2 1_555 1_555
C22 C23 1_555 1_555
O10 C25 1_555 1_555
Er1B O7B 1_555 1_555

#END
