
#######################################################################
#
#                 Cambridge Crystallographic Data Centre
#                                CCDC 
#
#######################################################################
#
# If this CIF has been generated from an entry in the Cambridge 
# Structural Database, then it will include bibliographic, chemical, 
# crystal, experimental, refinement or atomic coordinate data resulting 
# from the CCDC's data processing and validation procedures.
#
#######################################################################

data_OTUZUZ
_symmetry_cell_setting           monoclinic
_symmetry_space_group_name_H-M   'P 21/c'
_symmetry_Int_Tables_number      14
_space_group_name_Hall           '-P 2ybc'
loop_
_symmetry_equiv_pos_site_id
_symmetry_equiv_pos_as_xyz
1 x,y,z
2 -x,1/2+y,1/2-z
3 -x,-y,-z
4 x,1/2-y,1/2+z
_cell_length_a                   7.777(2)
_cell_length_b                   12.488(3)
_cell_length_c                   29.956(8)
_cell_angle_alpha                90
_cell_angle_beta                 93.123(4)
_cell_angle_gamma                90
_cell_volume                     2904.98
loop_
_atom_site_label
_atom_site_type_symbol
_atom_site_fract_x
_atom_site_fract_y
_atom_site_fract_z
Tb1 Tb 0.46773(3) 0.446194(19) 0.433671(8)
Zn1 Zn 1.21376(7) 0.95160(5) 0.32927(2)
O1 O 0.3485(5) 0.5462(3) 0.50016(13)
C1 C 0.7078(7) 0.5995(4) 0.40823(18)
O2 O 0.7342(5) 0.5016(3) 0.40072(15)
N1 N 1.0516(6) 1.0349(3) 0.37202(15)
C2 C 0.2253(7) 0.4909(5) 0.27093(19)
H1 H 0.3290 0.5281 0.2725
O3 O -0.6893(5) 0.0925(3) 0.30184(14)
N2 N -0.0327(5) 0.4446(3) 0.22877(14)
C3 C 0.8147(7) 0.7886(4) 0.39905(18)
H2 H 0.7242 0.8139 0.4151
O4 O 0.1957(6) 0.5386(4) 0.43762(15)
C4 C 1.0575(7) 1.1404(4) 0.37796(19)
H3 H 1.1486 1.1787 0.3669
C5 C 0.8041(7) 1.0262(4) 0.41539(18)
H4 H 0.7240 0.9855 0.4299
C6 C -0.5626(7) 0.2317(5) 0.2374(2)
H5 H -0.6689 0.2001 0.2304
O5 O 0.2631(6) 0.3573(3) 0.37823(14)
C7 C 0.8304(7) 0.6794(4) 0.39068(17)
C8 C 0.9336(7) 1.1949(4) 0.39988(19)
H6 H 0.9395 1.2690 0.4028
N3 N 1.0646(6) 0.8254(3) 0.35950(15)
O6 O 0.3972(6) 0.5002(4) 0.35601(14)
C9 C 0.9337(6) 0.8588(4) 0.38341(16)
C10 C 0.1756(7) 0.4314(4) 0.30725(18)
C11 C 0.2863(7) 0.4277(4) 0.34990(19)
C12 C -0.0830(7) 0.3876(4) 0.26388(19)
C13 C -0.5384(7) 0.1262(5) 0.30941(19)
C14 C -0.2542(7) 0.3320(4) 0.25637(18)
C15 C 0.1196(7) 0.4941(5) 0.2326(2)
H7 H 0.1558 0.5325 0.2083
C16 C 0.9663(7) 0.6453(4) 0.36689(19)
H8 H 0.9808 0.5728 0.3610
C17 C -0.4754(7) 0.2106(4) 0.27755(18)
C18 C 0.9291(6) 0.9768(4) 0.39140(17)
C19 C 0.7997(7) 1.1384(4) 0.41751(17)
C20 C 0.2133(7) 0.5706(5) 0.4771(2)
C21 C -0.3220(8) 0.2631(5) 0.28744(19)
H9 H -0.2635 0.2524 0.3150
C22 C 1.0810(8) 0.7194(4) 0.3518(2)
H10 H 1.1729 0.6956 0.3359
C23 C 0.0177(7) 0.3790(4) 0.30327(19)
H11 H -0.0200 0.3386 0.3269
C24 C 0.0781(9) 0.6373(7) 0.4966(3)
H12 H 0.1098 0.7115 0.4952
H13 H 0.0670 0.6172 0.5273
H14 H -0.0297 0.6263 0.4801
O7 O 0.6237(5) 1.2896(3) 0.42137(13)
O8 O 0.5552(6) 1.1475(3) 0.46187(15)
C25 C 0.6484(7) 1.1960(4) 0.43508(18)
O9 O -0.4305(7) 0.0931(5) 0.33801(18)
O10 O 0.5840(5) 0.6309(3) 0.43026(13)
N4 N -0.3391(5) 0.3497(4) 0.21682(14)
C26 C -0.4897(7) 0.3008(5) 0.2075(2)
H15 H -0.5476 0.3136 0.1800
O12 O 1.4192(5) 0.9316(3) 0.37638(14)
O13 O 0.3406(5) 0.3129(3) 0.48031(13)
H16 H 1.3954 0.9559 0.4024
H17 H 1.4903 0.9794 0.3692
H18 H 0.3922 0.2544 0.4807
H19 H 0.3126 0.3448 0.5044
Tb1B Tb 0.53227(3) 0.553806(19) 0.566329(8)
Tb1_2 Tb 0.46773(3) 1.446194(19) 0.433671(8)
Zn1_2 Zn -0.78624(7) -0.04840(5) 0.32927(2)
Zn1A Zn -0.21376(7) 0.45160(5) 0.17073(2)
O1B O 0.6515(5) 0.4538(3) 0.49984(13)
O3_2 O 1.3107(5) 1.0925(3) 0.30184(14)
N2A N 1.0327(5) 0.9446(3) 0.27123(14)
O7_2 O 0.6237(5) 0.2896(3) 0.42137(13)
N4A N 1.3391(5) 0.8497(4) 0.28318(14)
O11 O 0.3211(15) 0.9624(7) 0.4618(3)
loop_
_geom_bond_atom_site_label_1
_geom_bond_atom_site_label_2
_geom_bond_site_symmetry_1
_geom_bond_site_symmetry_2
Tb1 O1 1_555 1_555
Zn1 N1 1_555 1_555
O1 C20 1_555 1_555
C1 O2 1_555 1_555
O2 Tb1 1_555 1_555
N1 C4 1_555 1_555
C2 H1 1_555 1_555
O3 C13 1_555 1_555
N2 C12 1_555 1_555
C3 H2 1_555 1_555
O4 Tb1 1_555 1_555
C4 H3 1_555 1_555
C5 H4 1_555 1_555
C6 H5 1_555 1_555
O5 Tb1 1_555 1_555
C7 C1 1_555 1_555
C8 C4 1_555 1_555
H6 C8 1_555 1_555
N3 Zn1 1_555 1_555
O6 Tb1 1_555 1_555
C9 C3 1_555 1_555
C10 C2 1_555 1_555
C11 O5 1_555 1_555
C12 C14 1_555 1_555
C13 C17 1_555 1_555
C14 C21 1_555 1_555
C15 C2 1_555 1_555
H7 C15 1_555 1_555
C16 C7 1_555 1_555
H8 C16 1_555 1_555
C17 C6 1_555 1_555
C18 N1 1_555 1_555
C19 C5 1_555 1_555
C20 O4 1_555 1_555
C21 C17 1_555 1_555
H9 C21 1_555 1_555
C22 N3 1_555 1_555
H10 C22 1_555 1_555
C23 C10 1_555 1_555
H11 C23 1_555 1_555
C24 C20 1_555 1_555
H12 C24 1_555 1_555
H13 C24 1_555 1_555
H14 C24 1_555 1_555
O7 C25 1_555 1_555
O8 C25 1_555 1_555
C25 C19 1_555 1_555
O9 C13 1_555 1_555
O10 Tb1 1_555 1_555
N4 C14 1_555 1_555
C26 C6 1_555 1_555
H15 C26 1_555 1_555
O12 Zn1 1_555 1_555
O13 Tb1 1_555 1_555
H16 O12 1_555 1_555
H17 O12 1_555 1_555
H18 O13 1_555 1_555
H19 O13 1_555 1_555
Tb1B O1 1_555 1_555
Tb1_2 O7 1_555 1_555
Zn1_2 O3 1_555 1_555
Zn1A N2 1_555 1_555
O1B Tb1 1_555 1_555
O3_2 Zn1 1_555 1_555
N2A Zn1 1_555 1_555
O7_2 Tb1 1_555 1_555
N4A Zn1 1_555 1_555
C1 O10 1_555 1_555
N2 C15 1_555 1_555
C3 C7 1_555 1_555
C5 C18 1_555 1_555
C8 C19 1_555 1_555
N3 C9 1_555 1_555
O6 C11 1_555 1_555
C9 C18 1_555 1_555
C10 C11 1_555 1_555
C12 C23 1_555 1_555
C16 C22 1_555 1_555
N4 C26 1_555 1_555
N4 Zn1A 1_555 1_555
Tb1B O1B 1_555 1_555

#END
