
#######################################################################
#
#                 Cambridge Crystallographic Data Centre
#                                CCDC 
#
#######################################################################
#
# If this CIF has been generated from an entry in the Cambridge 
# Structural Database, then it will include bibliographic, chemical, 
# crystal, experimental, refinement or atomic coordinate data resulting 
# from the CCDC's data processing and validation procedures.
#
#######################################################################

data_OVABET
_symmetry_cell_setting           orthorhombic
_symmetry_space_group_name_H-M   'P 21 n b'
_symmetry_Int_Tables_number      33
_space_group_name_Hall           'P -2bc 2a'
loop_
_symmetry_equiv_pos_site_id
_symmetry_equiv_pos_as_xyz
1 x,y,z
2 1/2+x,-y,-z
3 1/2+x,1/2-y,1/2+z
4 x,1/2+y,1/2-z
_cell_length_a                   12.04226(17)
_cell_length_b                   23.22101(29)
_cell_length_c                   5.81899(15)
_cell_angle_alpha                90
_cell_angle_beta                 90
_cell_angle_gamma                90
_cell_volume                     1627.18
loop_
_atom_site_label
_atom_site_type_symbol
_atom_site_fract_x
_atom_site_fract_y
_atom_site_fract_z
Ca1 Ca 0.8894(11) 0.1271(5) 0.25205
Ca2 Ca 0.8941(10) -0.1236(4) 0.7306(16)
P1 P 0.7675(7) 0.0634(4) 0.7575(21)
P2 P 0.9984(7) 0.1906(4) 0.7487(22)
C1 C 0.9029(11) 0.0265(6) 0.7701(34)
C2 C 0.9174(31) -0.0010(6) 1.0051(34)
C3 C 0.8735(12) 0.2356(6) 0.7324(32)
C4 C 0.8641(30) 0.2615(7) 0.4928(33)
O1 O 0.7597(15) 0.0981(7) 0.5344(28)
O2 O 0.6814(12) 0.0140(6) 0.749(5)
O3 O 0.7553(15) 0.1009(6) 0.9684(28)
O4 O 0.9074(19) -0.0192(6) 0.604(4)
O5 O 0.9365(19) 0.0266(7) 1.192(4)
O6 O 0.9170(19) -0.0552(6) 0.996(4)
O7 O 1.0970(12) 0.2293(7) 0.690(4)
O8 O 0.9860(12) 0.1396(5) 0.5859(28)
O9 O 1.0081(14) 0.1685(6) 0.9967(24)
O10 O 0.8672(17) 0.2769(7) 0.908(4)
O11 O 0.8451(20) 0.2270(8) 0.321(4)
O12 O 0.8447(17) 0.3146(6) 0.461(4)
O13 O 1.0671(18) -0.1477(8) 0.804(5)
O14 O 1.0220(16) -0.1272(9) 0.385(5)
O15 O 0.6922(17) -0.1053(7) 0.761(5)
O16 O 0.7655(15) -0.1253(8) 0.319(5)
Ca1_2 Ca 0.8894(11) 0.1271(5) 1.25205
Ca2C Ca 0.8941(10) 0.3764(4) 0.7694(16)
O3_2 O 0.7553(15) 0.1009(6) -0.0316(28)
O5_2 O 0.9365(19) 0.0266(7) 0.192(4)
O9_2 O 1.0081(14) 0.1685(6) -0.0033(24)
O10C O 0.8672(17) -0.2231(7) 0.592(4)
O12C O 0.8447(17) -0.1854(6) 1.039(4)
O17 O 0.1094(15) 0.2520(6) 0.243(6)
O18 O 0.1760(16) 0.0194(6) 0.750(6)
loop_
_geom_bond_atom_site_label_1
_geom_bond_atom_site_label_2
_geom_bond_site_symmetry_1
_geom_bond_site_symmetry_2
Ca1 O1 1_555 1_555
Ca2 O4 1_555 1_555
P1 C1 1_555 1_555
P2 C3 1_555 1_555
C1 C2 1_555 1_555
C2 O5 1_555 1_555
C3 C4 1_555 1_555
C4 O11 1_555 1_555
O1 P1 1_555 1_555
O2 P1 1_555 1_555
O3 P1 1_555 1_555
O4 C1 1_555 1_555
O5 Ca1_2 1_555 1_555
O6 Ca2 1_555 1_555
O7 P2 1_555 1_555
O8 Ca1 1_555 1_555
O9 P2 1_555 1_555
O10 C3 1_555 1_555
O11 Ca1 1_555 1_555
O12 C4 1_555 1_555
O13 Ca2 1_555 1_555
O14 Ca2 1_555 1_555
O15 Ca2 1_555 1_555
O16 Ca2 1_555 1_555
Ca1_2 O3 1_555 1_555
Ca2C O10 1_555 1_555
O3_2 Ca1 1_555 1_555
O5_2 Ca1 1_555 1_555
O9_2 Ca1 1_555 1_555
O10C Ca2 1_555 1_555
O12C Ca2 1_555 1_555
P2 O8 1_555 1_555
C2 O6 1_555 1_555
O9 Ca1_2 1_555 1_555
O12 Ca2C 1_555 1_555

#END
