
#######################################################################
#
#                 Cambridge Crystallographic Data Centre
#                                CCDC 
#
#######################################################################
#
# If this CIF has been generated from an entry in the Cambridge 
# Structural Database, then it will include bibliographic, chemical, 
# crystal, experimental, refinement or atomic coordinate data resulting 
# from the CCDC's data processing and validation procedures.
#
#######################################################################

data_OVABUJ
_symmetry_cell_setting           monoclinic
_symmetry_space_group_name_H-M   'I 2/a'
_symmetry_Int_Tables_number      15
_space_group_name_Hall           '-I 2ya'
loop_
_symmetry_equiv_pos_site_id
_symmetry_equiv_pos_as_xyz
1 x,y,z
2 1/2-x,y,-z
3 1/2+x,1/2+y,1/2+z
4 -x,1/2+y,1/2-z
5 -x,-y,-z
6 1/2+x,-y,z
7 1/2-x,1/2-y,1/2-z
8 x,1/2-y,1/2+z
_cell_length_a                   29.7116(4)
_cell_length_b                   8.84842(9)
_cell_length_c                   11.31039(9)
_cell_angle_alpha                90
_cell_angle_beta                 93.2400(8)
_cell_angle_gamma                90
_cell_volume                     2968.76
loop_
_atom_site_label
_atom_site_type_symbol
_atom_site_fract_x
_atom_site_fract_y
_atom_site_fract_z
Ca1 Ca 0.06205(16) 0.4016(5) 0.2077(4)
Ca2 Ca -0.02424(15) 0.2013(5) 0.0481(4)
Ca3 Ca 0.25000 0.2424(7) 0.5000
P1 P 0.21427(20) 0.4557(7) 0.2536(5)
O1 O 0.2492(4) 0.4445(14) 0.3574(8)
O2 O 0.2364(4) 0.4428(14) 0.1325(8)
O3 O 0.1886(4) 0.6065(11) 0.2565(11)
C1 C 0.1702(4) 0.3125(14) 0.2514(10)
C2 C 0.1470(4) 0.2977(23) 0.3676(11)
O4 O 0.1706(4) 0.2633(16) 0.4597(10)
O5 O 0.10621(35) 0.3232(16) 0.3706(11)
O6 O 0.1365(4) 0.3352(15) 0.1600(10)
P2 P -0.03153(21) 0.4909(7) 0.2789(5)
O7 O -0.0175(4) 0.4412(14) 0.1556(8)
O8 O 0.00539(34) 0.4405(15) 0.3700(9)
O9 O -0.0370(4) 0.6622(10) 0.2804(11)
C3 C -0.08172(29) 0.3945(11) 0.3198(11)
C4 C -0.0735(6) 0.2300(11) 0.3086(10)
O10 O -0.0639(5) 0.1524(13) 0.4021(10)
O11 O -0.0769(5) 0.1651(13) 0.2074(10)
O12 O -0.0923(4) 0.4283(13) 0.4399(9)
O13 O 0.0469(5) 0.3323(18) 0.0017(13)
Ca1A Ca 0.43795(16) 0.4016(5) 0.7923(4)
Ca1C Ca -0.06205(16) 0.9016(5) 0.2923(4)
Ca1C_2 Ca -0.06205(16) -0.0984(5) 0.2923(4)
Ca1_2 Ca 0.06205(16) -0.5984(5) 0.2077(4)
Ca2C Ca 0.02424(15) -0.2987(5) 0.4519(4)
Ca2C_2 Ca 0.02424(15) 0.7013(5) 0.4519(4)
Ca2G Ca -0.02424(15) 0.2987(5) 0.5481(4)
Ca2D Ca 0.02424(15) -0.2013(5) -0.0481(4)
Ca2A Ca 0.52424(15) 0.2013(5) 0.9519(4)
Ca3F Ca 0.25000 0.2576(7) 0.0000
Ca3F_2 Ca 0.25000 0.2576(7) 1.0000
P1A P 0.28573(20) 0.4557(7) 0.7464(5)
O1A O 0.2508(4) 0.4445(14) 0.6426(8)
O2A O 0.2636(4) 0.4428(14) 0.8675(8)
O2F O 0.2636(4) 0.0572(14) 0.3675(8)
O2G O 0.2364(4) 0.0572(14) 0.6325(8)
O3A O 0.3114(4) 0.6065(11) 0.7435(11)
C1A C 0.3298(4) 0.3125(14) 0.7486(10)
C2A C 0.3530(4) 0.2977(23) 0.6324(11)
O4A O 0.3294(4) 0.2633(16) 0.5403(10)
O5A O 0.39379(35) 0.3232(16) 0.6294(11)
O6A O 0.3635(4) 0.3352(15) 0.8400(10)
P2C P 0.03153(21) -0.0091(7) 0.2211(5)
O7C O 0.0175(4) -0.0588(14) 0.3444(8)
O7A O 0.5175(4) 0.4412(14) 0.8444(8)
O8C O -0.00539(34) -0.0595(15) 0.1300(9)
O8G O 0.00539(34) 0.0595(15) -0.1300(9)
O8A O 0.49461(34) 0.4405(15) 0.6300(9)
O8_2 O 0.00539(34) -0.5595(15) 0.3700(9)
O8D O -0.00539(34) -0.4405(15) 0.6300(9)
O9C O 0.0370(4) 0.1622(10) 0.2196(11)
O9B O 0.4630(4) 0.1622(10) 0.7804(11)
O9_2 O -0.0370(4) -0.3378(10) 0.2804(11)
C3C C 0.08172(29) -0.1055(11) 0.1802(11)
C4C C 0.0735(6) -0.2700(11) 0.1914(10)
O10C O 0.0639(5) -0.3476(13) 0.0979(10)
O10C_2 O 0.0639(5) 0.6524(13) 0.0979(10)
O10G O -0.0639(5) 0.3476(13) -0.0979(10)
O10B O 0.4361(5) 0.6524(13) 0.9021(10)
O10D O 0.0639(5) -0.1524(13) 0.5979(10)
O11C O 0.0769(5) -0.3349(13) 0.2926(10)
O11C_2 O 0.0769(5) 0.6651(13) 0.2926(10)
O11B O 0.4231(5) 0.6651(13) 0.7074(10)
O12C O 0.0923(4) -0.0717(13) 0.0601(9)
O12G O -0.0923(4) 0.0717(13) -0.0601(9)
O12D O 0.0923(4) -0.4283(13) 0.5601(9)
O13A O 0.4531(5) 0.3323(18) 0.9983(13)
O13C O -0.0469(5) -0.1677(18) 0.4983(13)
O14 O 0.1937(5) 0.8332(16) 0.4040(12)
O15 O 0.1115(5) 0.9262(24) 0.3983(18)
O16 O 0.1808(10) 0.8534(35) 0.0695(27)
loop_
_geom_bond_atom_site_label_1
_geom_bond_atom_site_label_2
_geom_bond_site_symmetry_1
_geom_bond_site_symmetry_2
Ca1 O5 1_555 1_555
Ca2 O7 1_555 1_555
Ca3 O1 1_555 1_555
P1 O1 1_555 1_555
O2 P1 1_555 1_555
O3 P1 1_555 1_555
C1 P1 1_555 1_555
C2 C1 1_555 1_555
O4 Ca3 1_555 1_555
O5 C2 1_555 1_555
O6 Ca1 1_555 1_555
P2 O7 1_555 1_555
O7 Ca1 1_555 1_555
O8 Ca1 1_555 1_555
O9 P2 1_555 1_555
C3 P2 1_555 1_555
C4 C3 1_555 1_555
O10 C4 1_555 1_555
O11 Ca2 1_555 1_555
O12 C3 1_555 1_555
O13 Ca1 1_555 1_555
Ca1A O5A 1_555 1_555
Ca1C O9 1_555 1_555
Ca1C_2 O10 1_555 1_555
Ca1_2 O8_2 1_555 1_555
Ca2C O7C 1_555 1_555
Ca2C_2 O8 1_555 1_555
Ca2G O8 1_555 1_555
Ca2D O8C 1_555 1_555
Ca2A O7A 1_555 1_555
Ca3F O2 1_555 1_555
Ca3F_2 O2A 1_555 1_555
P1A O1A 1_555 1_555
O1A Ca3 1_555 1_555
O2A P1A 1_555 1_555
O2F Ca3 1_555 1_555
O2G Ca3 1_555 1_555
O3A P1A 1_555 1_555
C1A P1A 1_555 1_555
C2A C1A 1_555 1_555
O4A Ca3 1_555 1_555
O5A C2A 1_555 1_555
O6A Ca1A 1_555 1_555
P2C O7C 1_555 1_555
O7C Ca1C_2 1_555 1_555
O7A Ca1A 1_555 1_555
O8C Ca2 1_555 1_555
O8G Ca2 1_555 1_555
O8A Ca1A 1_555 1_555
O8_2 Ca2C 1_555 1_555
O8D Ca2C 1_555 1_555
O9C Ca1 1_555 1_555
O9B Ca1A 1_555 1_555
O9_2 Ca1C_2 1_555 1_555
C3C P2C 1_555 1_555
C4C C3C 1_555 1_555
O10C Ca1_2 1_555 1_555
O10C_2 Ca1 1_555 1_555
O10G Ca2 1_555 1_555
O10B Ca1A 1_555 1_555
O10D Ca2C 1_555 1_555
O11C Ca1_2 1_555 1_555
O11C_2 Ca1 1_555 1_555
O11B Ca1A 1_555 1_555
O12C Ca2D 1_555 1_555
O12G Ca2 1_555 1_555
O12D Ca2C 1_555 1_555
O13A Ca1A 1_555 1_555
O13C Ca1C_2 1_555 1_555
Ca2 O13 1_555 1_555
Ca2 O9C 1_555 1_555
C1 O6 1_555 1_555
C2 O4 1_555 1_555
P2 O8 1_555 1_555
O9 Ca2C_2 1_555 1_555
C4 O11 1_555 1_555
O10 Ca2G 1_555 1_555
O11 Ca1C_2 1_555 1_555
O12 Ca2G 1_555 1_555
Ca1C_2 O8C 1_555 1_555
Ca2C O9_2 1_555 1_555
Ca2C O11C 1_555 1_555
Ca2C O13C 1_555 1_555
Ca2C_2 O11C_2 1_555 1_555
Ca2D O8G 1_555 1_555
Ca2D O10C 1_555 1_555
Ca2A O9B 1_555 1_555
Ca2A O13A 1_555 1_555
C1A O6A 1_555 1_555
C2A O4A 1_555 1_555
P2C O8C 1_555 1_555
P2C O9C 1_555 1_555
C3C O12C 1_555 1_555
C4C O10C 1_555 1_555
C4C O11C 1_555 1_555

#END
