
#######################################################################
#
#                 Cambridge Crystallographic Data Centre
#                                CCDC 
#
#######################################################################
#
# If this CIF has been generated from an entry in the Cambridge 
# Structural Database, then it will include bibliographic, chemical, 
# crystal, experimental, refinement or atomic coordinate data resulting 
# from the CCDC's data processing and validation procedures.
#
#######################################################################

data_OVACUK
_symmetry_cell_setting           orthorhombic
_symmetry_space_group_name_H-M   'F d d d'
_symmetry_Int_Tables_number      70
_space_group_name_Hall           '-F 2uv 2vw'
loop_
_symmetry_equiv_pos_site_id
_symmetry_equiv_pos_as_xyz
1 x,y,z
2 1/4-x,1/4-y,z
3 x,1/4-y,1/4-z
4 1/4-x,y,1/4-z
5 x,1/2+y,1/2+z
6 1/4-x,3/4-y,1/2+z
7 x,3/4-y,3/4-z
8 1/4-x,1/2+y,3/4-z
9 1/2+x,y,1/2+z
10 3/4-x,1/4-y,1/2+z
11 1/2+x,1/4-y,3/4-z
12 3/4-x,y,3/4-z
13 1/2+x,1/2+y,z
14 3/4-x,3/4-y,z
15 1/2+x,3/4-y,1/4-z
16 3/4-x,1/2+y,1/4-z
17 -x,-y,-z
18 3/4+x,3/4+y,-z
19 -x,3/4+y,3/4+z
20 3/4+x,-y,3/4+z
21 -x,1/2-y,1/2-z
22 3/4+x,1/4+y,1/2-z
23 -x,1/4+y,1/4+z
24 3/4+x,1/2-y,1/4+z
25 1/2-x,-y,1/2-z
26 1/4+x,3/4+y,1/2-z
27 1/2-x,3/4+y,1/4+z
28 1/4+x,-y,1/4+z
29 1/2-x,1/2-y,-z
30 1/4+x,1/4+y,-z
31 1/2-x,1/4+y,3/4+z
32 1/4+x,1/2-y,3/4+z
_cell_length_a                   13.600(3)
_cell_length_b                   15.107(3)
_cell_length_c                   33.000(7)
_cell_angle_alpha                90
_cell_angle_beta                 90
_cell_angle_gamma                90
_cell_volume                     6780.02
loop_
_atom_site_label
_atom_site_type_symbol
_atom_site_fract_x
_atom_site_fract_y
_atom_site_fract_z
O1 O 0.80781(10) 0.05246(10) 0.12029(5)
C7 C 0.6578(3) 0.1258(3) 0.10704(12)
H13 H 0.6681 0.0810 0.0868
H14 H 0.6641 0.1801 0.0922
C8 C 0.7668(2) 0.1250 0.1250
O1B O 0.80781(10) 0.19754(10) 0.12971(5)
O1C O 0.44219(10) 0.05246(10) 0.12971(5)
O1A O 0.44219(10) 0.19754(10) 0.12029(5)
C7A C 0.5922(3) 0.1242(3) 0.10704(12)
C7C C 0.5922(3) 0.1258(3) 0.14296(12)
C7B C 0.6578(3) 0.1242(3) 0.14296(12)
H13C H 0.5819 0.0810 0.1632
H13B H 0.6681 0.1690 0.1632
H13A H 0.5819 0.1690 0.0868
H14C H 0.5859 0.1801 0.1578
H14B H 0.6641 0.0699 0.1578
H14A H 0.5859 0.0699 0.0922
C8A C 0.4832(2) 0.1250 0.1250
O2 O 0.52687(13) -0.10877(10) 0.11832(5)
H1 H 0.5887 -0.1014 0.1202
H2 H 0.4975 -0.0610 0.1246
O3 O 0.26345(10) 0.01284(10) 0.16127(5)
H3 H 0.3214 0.0255 0.1535
H5 H 0.2446 -0.0361 0.1512
O4 O 0.1250 0.1250 0.1250
Ag1 Ag 1.2500 0.2500 0.0000
N1 N 1.09220(12) 0.23518(10) 0.00504(5)
C1 C 0.77650(14) 0.21901(15) 0.01445(7)
H7 H 0.7548 0.1576 0.0090
H8 H 0.7573 0.2339 0.0426
C2 C 0.88650(14) 0.22333(13) 0.01101(6)
C3 C 0.93576(13) 0.20439(12) -0.02513(6)
H9 H 0.8997 0.1868 -0.0484
C4 C 1.03668(13) 0.21133(12) -0.02690(6)
H10 H 1.0686 0.1987 -0.0518
C5 C 1.04505(15) 0.25247(13) 0.03985(6)
H11 H 1.0829 0.2688 0.0629
C6 C 0.94403(16) 0.24763(14) 0.04380(6)
H12 H 0.9140 0.2610 0.0691
Ag1_2 Ag 0.2500 0.2500 0.0000
Ag1_3 Ag 2.2500 0.2500 0.0000
N1BA N 0.40780(12) 0.26482(10) -0.00504(5)
N1BA_2 N 1.40780(12) 0.26482(10) -0.00504(5)
N1_2 N 2.09220(12) 0.23518(10) 0.00504(5)
N1_3 N 0.09220(12) 0.23518(10) 0.00504(5)
C1BA C 0.72350(14) 0.28099(15) -0.01445(7)
C1BA_2 C 1.72350(14) 0.28099(15) -0.01445(7)
C1_2 C 1.77650(14) 0.21901(15) 0.01445(7)
H7BA H 0.7452 0.3424 -0.0090
H7BA_2 H 1.7452 0.3424 -0.0090
H7_2 H 1.7548 0.1576 0.0090
H8BA H 0.7427 0.2661 -0.0426
H8BA_2 H 1.7427 0.2661 -0.0426
H8_2 H 1.7573 0.2339 0.0426
C2BA C 0.61350(14) 0.27667(13) -0.01101(6)
C2BA_2 C 1.61350(14) 0.27667(13) -0.01101(6)
C2_2 C 1.88650(14) 0.22333(13) 0.01101(6)
C3BA C 0.56424(13) 0.29561(12) 0.02513(6)
C3BA_2 C 1.56424(13) 0.29561(12) 0.02513(6)
C3_2 C 1.93576(13) 0.20439(12) -0.02513(6)
H9BA H 0.6003 0.3132 0.0484
H9BA_2 H 1.6003 0.3132 0.0484
H9_2 H 1.8997 0.1868 -0.0484
C4BA C 0.46332(13) 0.28867(12) 0.02690(6)
C4BA_2 C 1.46332(13) 0.28867(12) 0.02690(6)
C4_2 C 2.03668(13) 0.21133(12) -0.02690(6)
H10BA H 0.4314 0.3013 0.0518
H10BA_2 H 1.4314 0.3013 0.0518
H10_2 H 2.0686 0.1987 -0.0518
C5BA C 0.45495(15) 0.24753(13) -0.03985(6)
C5BA_2 C 1.45495(15) 0.24753(13) -0.03985(6)
C5_2 C 2.04505(15) 0.25247(13) 0.03985(6)
H11BA H 0.4171 0.2312 -0.0629
H11BA_2 H 1.4171 0.2312 -0.0629
H11_2 H 2.0829 0.2688 0.0629
C6BA C 0.55597(16) 0.25237(14) -0.04380(6)
C6BA_2 C 1.55597(16) 0.25237(14) -0.04380(6)
C6_2 C 1.94403(16) 0.24763(14) 0.04380(6)
H12BA H 0.5860 0.2390 -0.0691
H12BA_2 H 1.5860 0.2390 -0.0691
H12_2 H 1.9140 0.2610 0.0691
H4? H 0.2228 0.0523 0.1537
H6? H 0.1670 0.1598 0.1145
H15? H 0.5092 -0.1506 0.1339
loop_
_geom_bond_atom_site_label_1
_geom_bond_atom_site_label_2
_geom_bond_site_symmetry_1
_geom_bond_site_symmetry_2
Ag1 N1 1_555 1_555
O1 C8 1_555 1_555
O2 H1 1_555 1_555
H2 O2 1_555 1_555
O3 H3 1_555 1_555
H5 O3 1_555 1_555
N1 C4 1_555 1_555
C1 H7 1_555 1_555
H8 C1 1_555 1_555
C2 C1 1_555 1_555
C3 C2 1_555 1_555
H9 C3 1_555 1_555
C4 C3 1_555 1_555
H10 C4 1_555 1_555
C5 N1 1_555 1_555
H11 C5 1_555 1_555
C6 C2 1_555 1_555
H12 C6 1_555 1_555
C7 H13 1_555 1_555
H14 C7 1_555 1_555
C8 C7 1_555 1_555
Ag1_2 N1BA 1_555 1_555
Ag1_3 N1_2 1_555 1_555
O1B C8 1_555 1_555
O1C C8A 1_555 1_555
O1A C8A 1_555 1_555
N1BA C4BA 1_555 1_555
N1BA_2 Ag1 1_555 1_555
N1_2 C4_2 1_555 1_555
N1_3 Ag1_2 1_555 1_555
C1BA C1 1_555 1_555
C1BA_2 C1_2 1_555 1_555
C1_2 H7_2 1_555 1_555
H7BA C1BA 1_555 1_555
H7BA_2 C1BA_2 1_555 1_555
H8BA C1BA 1_555 1_555
H8BA_2 C1BA_2 1_555 1_555
H8_2 C1_2 1_555 1_555
C2BA C1BA 1_555 1_555
C2BA_2 C1BA_2 1_555 1_555
C2_2 C1_2 1_555 1_555
C3BA C2BA 1_555 1_555
C3BA_2 C2BA_2 1_555 1_555
C3_2 C2_2 1_555 1_555
H9BA C3BA 1_555 1_555
H9BA_2 C3BA_2 1_555 1_555
H9_2 C3_2 1_555 1_555
C4BA C3BA 1_555 1_555
C4BA_2 N1BA_2 1_555 1_555
C4_2 C3_2 1_555 1_555
H10BA C4BA 1_555 1_555
H10BA_2 C4BA_2 1_555 1_555
H10_2 C4_2 1_555 1_555
C5BA N1BA 1_555 1_555
C5BA_2 N1BA_2 1_555 1_555
C5_2 N1_2 1_555 1_555
H11BA C5BA 1_555 1_555
H11BA_2 C5BA_2 1_555 1_555
H11_2 C5_2 1_555 1_555
C6BA C2BA 1_555 1_555
C6BA_2 C2BA_2 1_555 1_555
C6_2 C2_2 1_555 1_555
H12BA C6BA 1_555 1_555
H12BA_2 C6BA_2 1_555 1_555
H12_2 C6_2 1_555 1_555
C7A C7 1_555 1_555
C7C C7 1_555 1_555
C7B C7 1_555 1_555
H13C C7C 1_555 1_555
H13B C7B 1_555 1_555
H13A C7A 1_555 1_555
H14C C7C 1_555 1_555
H14B C7B 1_555 1_555
H14A C7A 1_555 1_555
C8A C7A 1_555 1_555
C5 C6 1_555 1_555
C8 C7B 1_555 1_555
C3BA_2 C4BA_2 1_555 1_555
C5BA C6BA 1_555 1_555
C5BA_2 C6BA_2 1_555 1_555
C5_2 C6_2 1_555 1_555
C7A C7C 1_555 1_555
C7A C7B 1_555 1_555
C7C C7B 1_555 1_555
C7C C8A 1_555 1_555

#END
