
#######################################################################
#
#                 Cambridge Crystallographic Data Centre
#                                CCDC 
#
#######################################################################
#
# If this CIF has been generated from an entry in the Cambridge 
# Structural Database, then it will include bibliographic, chemical, 
# crystal, experimental, refinement or atomic coordinate data resulting 
# from the CCDC's data processing and validation procedures.
#
#######################################################################

data_OVADAR
_symmetry_cell_setting           monoclinic
_symmetry_space_group_name_H-M   'C 2/c'
_symmetry_Int_Tables_number      15
_space_group_name_Hall           '-C 2yn'
loop_
_symmetry_equiv_pos_site_id
_symmetry_equiv_pos_as_xyz
1 x,y,z
2 -x,y,1/2-z
3 1/2+x,1/2+y,z
4 1/2-x,1/2+y,1/2-z
5 -x,-y,-z
6 x,-y,1/2+z
7 1/2-x,1/2-y,-z
8 1/2+x,1/2-y,1/2+z
_cell_length_a                   17.1200(7)
_cell_length_b                   8.8749(4)
_cell_length_c                   17.1186(8)
_cell_angle_alpha                90
_cell_angle_beta                 95.728(4)
_cell_angle_gamma                90
_cell_volume                     2587.98
loop_
_atom_site_label
_atom_site_type_symbol
_atom_site_fract_x
_atom_site_fract_y
_atom_site_fract_z
Mg1 Mg 0.43089(5) 0.92196(11) 0.06580(5)
O1 O 0.49277(12) 0.7263(2) 0.06112(14)
O2 O 0.57583(12) 1.0536(2) 0.04946(11)
O3 O 0.51573(9) 0.9868(2) 0.15185(11)
O4 O 0.63339(11) 1.1197(2) 0.42168(11)
O5 O 0.74198(12) 1.2609(3) 0.42869(12)
H1 H 0.7349 1.2644 0.4753
O6 O 0.90709(11) 1.2653(3) 0.21470(16)
O7 O 0.84155(12) 1.3032(3) 0.09747(15)
N1 N 0.58080(14) 0.5370(3) 0.07774(16)
Li1 Li 1.0000 1.3616(8) 0.2500
C1 C 0.55294(16) 0.6616(3) 0.04542(18)
H2 H 0.5874(19) 0.702(4) 0.004(2)
C2 C 0.6492(2) 0.4599(5) 0.0508(3)
H3 H 0.631(3) 0.366(6) 0.024(3)
H4 H 0.671(2) 0.520(5) 0.012(2)
H5 H 0.698(3) 0.448(6) 0.080(3)
C3 C 0.5426(3) 0.4663(5) 0.1414(2)
H6 H 0.525(3) 0.376(6) 0.130(3)
H7 H 0.497(3) 0.528(6) 0.153(3)
H8 H 0.583(3) 0.449(6) 0.187(3)
C4 C 0.57402(13) 1.0419(3) 0.12176(14)
C5 C 0.64168(13) 1.0985(3) 0.17547(14)
C6 C 0.63414(14) 1.1128(3) 0.25506(15)
H9 H 0.5875 1.0849 0.2746
C7 C 0.69581(15) 1.1684(3) 0.30566(15)
C8 C 0.68801(16) 1.1818(3) 0.39167(15)
C9 C 0.76531(15) 1.2096(3) 0.27590(16)
H10 H 0.8070 1.2457 0.3097
C10 C 0.77320(14) 1.1975(3) 0.19681(16)
C11 C 0.84675(17) 1.2579(3) 0.1669(2)
C12 C 0.71149(14) 1.1417(3) 0.14606(15)
H11 H 0.7167 1.1331 0.0927
Mg1B Mg 0.93089(5) 1.42196(11) 0.06580(5)
Mg1D Mg 0.56911(5) 1.07804(11) -0.06580(5)
Mg1A Mg 0.56911(5) 0.92196(11) 0.43420(5)
Mg1F Mg 1.06911(5) 1.57804(11) -0.06580(5)
Mg1C Mg 1.06911(5) 1.42196(11) 0.43420(5)
Mg1_2 Mg 1.43089(5) 1.92196(11) 0.06580(5)
O1B O 0.99277(12) 1.2263(2) 0.06112(14)
O2B O 1.07583(12) 1.5536(2) 0.04946(11)
O2D O 0.42417(12) 0.9464(2) -0.04946(11)
O2F O 0.92417(12) 1.4464(2) -0.04946(11)
O3B O 1.01573(9) 1.4868(2) 0.15185(11)
O3C O 0.98427(9) 1.4868(2) 0.34815(11)
O4B O 1.13339(11) 1.6197(2) 0.42168(11)
O4A O 0.36661(11) 1.1197(2) 0.07832(11)
O4C O 0.86661(11) 1.6197(2) 0.07832(11)
O5B O 1.24198(12) 1.7609(3) 0.42869(12)
H1B H 1.2349 1.7644 0.4753
O6B O 1.40709(11) 1.7653(3) 0.21470(16)
O6A O 1.09291(11) 1.2653(3) 0.28530(16)
O7B O 1.34155(12) 1.8032(3) 0.09747(15)
O7B_2 O 0.34155(12) 0.8032(3) 0.09747(15)
N1B N 1.08080(14) 1.0370(3) 0.07774(16)
Li1B Li 0.5000 0.8616(8) 0.2500
Li1B_2 Li 1.5000 1.8616(8) 0.2500
C1B C 1.05294(16) 1.1616(3) 0.04542(18)
H2B H 1.0874(19) 1.202(4) 0.004(2)
C2B C 1.1492(2) 0.9599(5) 0.0508(3)
H3B H 1.131(3) 0.866(6) 0.024(3)
H4B H 1.171(2) 1.020(5) 0.012(2)
H5B H 1.198(3) 0.948(6) 0.080(3)
C3B C 1.0426(3) 0.9663(5) 0.1414(2)
H6B H 1.025(3) 0.876(6) 0.130(3)
H7B H 0.997(3) 1.028(6) 0.153(3)
H8B H 1.083(3) 0.949(6) 0.187(3)
C4B C 1.07402(13) 1.5419(3) 0.12176(14)
C5B C 1.14168(13) 1.5985(3) 0.17547(14)
C6B C 1.13414(14) 1.6128(3) 0.25506(15)
H9B H 1.0875 1.5849 0.2746
C7B C 1.19581(15) 1.6684(3) 0.30566(15)
C8B C 1.18801(16) 1.6818(3) 0.39167(15)
C9B C 1.26531(15) 1.7096(3) 0.27590(16)
H10B H 1.3070 1.7457 0.3097
C10B C 1.27320(14) 1.6975(3) 0.19681(16)
C11B C 1.34675(17) 1.7579(3) 0.1669(2)
C12B C 1.21149(14) 1.6417(3) 0.14606(15)
H11B H 1.2167 1.6331 0.0927
loop_
_geom_bond_atom_site_label_1
_geom_bond_atom_site_label_2
_geom_bond_site_symmetry_1
_geom_bond_site_symmetry_2
Mg1 O1 1_555 1_555
O1 C1 1_555 1_555
O2 C4 1_555 1_555
O3 Mg1 1_555 1_555
O4 C8 1_555 1_555
O5 H1 1_555 1_555
O6 Li1 1_555 1_555
O7 C11 1_555 1_555
N1 C1 1_555 1_555
Li1 O3B 1_555 1_555
C1 H2 1_555 1_555
C2 N1 1_555 1_555
H3 C2 1_555 1_555
H4 C2 1_555 1_555
H5 C2 1_555 1_555
C3 N1 1_555 1_555
H6 C3 1_555 1_555
H7 C3 1_555 1_555
H8 C3 1_555 1_555
C4 O3 1_555 1_555
C5 C4 1_555 1_555
C6 C5 1_555 1_555
H9 C6 1_555 1_555
C7 C6 1_555 1_555
C8 O5 1_555 1_555
C9 C7 1_555 1_555
H10 C9 1_555 1_555
C10 C9 1_555 1_555
C11 O6 1_555 1_555
C12 C5 1_555 1_555
H11 C12 1_555 1_555
Mg1B O7 1_555 1_555
Mg1D O2 1_555 1_555
Mg1A O4 1_555 1_555
Mg1F O2B 1_555 1_555
Mg1C O3C 1_555 1_555
Mg1_2 O7B 1_555 1_555
O1B Mg1B 1_555 1_555
O2B C4B 1_555 1_555
O2D Mg1 1_555 1_555
O2F Mg1B 1_555 1_555
O3B Mg1B 1_555 1_555
O3C Li1 1_555 1_555
O4B Mg1C 1_555 1_555
O4A Mg1 1_555 1_555
O4C Mg1B 1_555 1_555
O5B H1B 1_555 1_555
O6B Li1B_2 1_555 1_555
O6A Li1 1_555 1_555
O7B C11B 1_555 1_555
O7B_2 Mg1 1_555 1_555
N1B C1B 1_555 1_555
Li1B O3 1_555 1_555
C1B O1B 1_555 1_555
H2B C1B 1_555 1_555
C2B N1B 1_555 1_555
H3B C2B 1_555 1_555
H4B C2B 1_555 1_555
H5B C2B 1_555 1_555
C3B N1B 1_555 1_555
H6B C3B 1_555 1_555
H7B C3B 1_555 1_555
H8B C3B 1_555 1_555
C4B O3B 1_555 1_555
C5B C4B 1_555 1_555
C6B C5B 1_555 1_555
H9B C6B 1_555 1_555
C7B C6B 1_555 1_555
C8B O4B 1_555 1_555
C9B C7B 1_555 1_555
H10B C9B 1_555 1_555
C10B C9B 1_555 1_555
C11B O6B 1_555 1_555
C12B C5B 1_555 1_555
H11B C12B 1_555 1_555
C7 C8 1_555 1_555
C10 C11 1_555 1_555
C10 C12 1_555 1_555
O5B C8B 1_555 1_555
C7B C8B 1_555 1_555
C10B C11B 1_555 1_555
C10B C12B 1_555 1_555

#END
