
#######################################################################
#
#                 Cambridge Crystallographic Data Centre
#                                CCDC 
#
#######################################################################
#
# If this CIF has been generated from an entry in the Cambridge 
# Structural Database, then it will include bibliographic, chemical, 
# crystal, experimental, refinement or atomic coordinate data resulting 
# from the CCDC's data processing and validation procedures.
#
#######################################################################

data_OVAFUN
_symmetry_cell_setting           triclinic
_symmetry_space_group_name_H-M   'P -1'
_symmetry_Int_Tables_number      2
_space_group_name_Hall           '-P 1'
loop_
_symmetry_equiv_pos_site_id
_symmetry_equiv_pos_as_xyz
1 x,y,z
2 -x,-y,-z
_cell_length_a                   10.3065(4)
_cell_length_b                   12.7532(5)
_cell_length_c                   13.3773(9)
_cell_angle_alpha                113.2250(10)
_cell_angle_beta                 104.1370(10)
_cell_angle_gamma                98.73
_cell_volume                     1504.95
loop_
_atom_site_label
_atom_site_type_symbol
_atom_site_fract_x
_atom_site_fract_y
_atom_site_fract_z
Cd1 Cd 0.114831(17) 0.804791(14) 0.517998(13)
Cd2 Cd 0.588960(16) 0.655660(13) 0.141740(13)
O1 O 0.2988(2) 1.26421(15) 1.10914(16)
O2 O 0.78726(19) 0.81824(16) 0.2447(2)
H1 H 0.8551 0.7957 0.2645
O3 O 0.3464(3) 1.22528(17) 1.25442(16)
O4 O 0.3026(2) 0.95183(18) 0.55304(16)
H2 H 0.3075 0.9483 0.4916
O5 O 0.4962(2) 0.86813(17) 1.21553(15)
O6 O 0.37060(17) 0.48404(14) 0.02852(14)
O7 O 0.16721(18) 0.67461(16) 0.35060(14)
O8 O 0.23778(19) 0.44522(17) -0.14454(14)
O9 O 0.04537(16) 0.79715(14) 0.33256(13)
O10 O 0.27609(19) 0.80322(15) 0.69655(14)
O11 O 0.15752(18) 0.93553(15) 0.71753(13)
O12 O -0.0674(2) 0.9026(2) 0.51444(18)
H3 H -0.0893 0.9155 0.5722
O13 O 0.48505(17) 0.74056(14) 1.04135(15)
O14 O -0.0126(2) 0.7463(2) -0.15784(16)
O15 O -0.0097(2) 0.88089(17) 0.00289(16)
N1 N 0.3237(2) 1.19811(17) 1.15112(17)
N2 N -0.53975(19) 0.35448(16) 0.70717(15)
N3 N -0.0438(2) 0.64825(17) 0.49749(16)
N4 N 0.0094(2) 0.78675(18) -0.05390(17)
C1 C 0.3258(2) 1.07778(18) 1.07546(18)
C2 C 0.3478(2) 0.86285(18) 0.93632(18)
H4 H 0.3574 0.7903 0.8887
C3 C 0.3824(2) 1.01226(19) 1.12613(19)
H5 H 0.4122 1.0408 1.2059
C4 C 0.3938(2) 0.90261(19) 1.05506(18)
C5 C 0.2766(2) 1.03925(19) 0.95797(18)
H6 H 0.2372 1.0854 0.9270
C6 C 0.2877(2) 0.92956(18) 0.88720(18)
C7 C 0.4628(2) 0.8321(2) 1.1088(2)
N5 N -0.36684(19) 0.38013(16) 0.46262(16)
H7 H -0.4005 0.3201 0.3954
C8 C 0.1082(2) 0.72067(19) 0.29312(18)
C9 C 0.0556(2) 0.74695(19) 0.11401(18)
H8 H 0.0119 0.8039 0.1467
C10 C -0.4267(2) 0.37500(19) 0.54235(18)
C11 C 0.0635(2) 0.71886(19) 0.00491(18)
C12 C 0.2701(2) 0.49703(19) -0.03764(19)
C13 C 0.1837(2) 0.60723(19) 0.12481(18)
H9 H 0.2268 0.5710 0.1664
C14 C -0.2404(2) 0.4783(2) 0.38071(19)
H10 H -0.2999 0.4235 0.3072
C15 C 0.1896(2) 0.57958(18) 0.01424(18)
C16 C 0.1255(2) 0.63400(19) -0.04751(18)
H11 H 0.1243 0.6136 -0.1226
C17 C -0.2589(2) 0.46998(19) 0.47687(18)
C18 C -0.4751(2) 0.45999(19) 0.71850(19)
H12 H -0.4677 0.5276 0.7838
C19 C 0.2381(2) 0.88601(19) 0.75822(18)
C20 C -0.5551(2) 0.2588(2) 0.6088(2)
H13 H -0.6037 0.1848 0.5966
C21 C -0.1623(2) 0.5511(2) 0.58409(19)
H14 H -0.1680 0.5475 0.6510
C22 C -0.5025(2) 0.2652(2) 0.52581(19)
H15 H -0.5173 0.1968 0.4588
C23 C 0.1139(2) 0.68857(19) 0.17321(17)
C24 C -0.4193(2) 0.47497(19) 0.64045(19)
H16 H -0.3770 0.5507 0.6525
C25 C -0.0590(3) 0.6361(2) 0.5893(2)
H17 H 0.0051 0.6892 0.6615
C26 C -0.1346(2) 0.5673(2) 0.39388(19)
H18 H -0.1252 0.5719 0.3282
H21 H 0.803(2) 0.8892(14) 0.258(4)
H22 H 0.374(2) 0.991(3) 0.6104(12)
H25 H -0.128(3) 0.900(4) 0.4587(16)
Cd2A Cd 0.411040(16) 0.344340(13) -0.141740(13)
Cd2_2 Cd 0.588960(16) 0.655660(13) 1.141740(13)
Cd2A_2 Cd -0.588960(16) 0.344340(13) 0.858260(13)
O6A O 0.62940(17) 0.51596(14) -0.02852(14)
O8A O 0.76222(19) 0.55478(17) 0.14454(14)
O13_2 O 0.48505(17) 0.74056(14) 0.04135(15)
N2A N 0.53975(19) 0.64552(16) 0.29283(15)
O16 O 0.6511(2) 0.03553(19) 0.63400(17)
H19 H 0.612(4) 0.071(4) 0.682(3)
H20 H 0.725(3) 0.025(4) 0.670(3)
O17 O 0.1298(3) 0.0593(2) 0.2828(2)
H23 H 0.0448(13) 0.054(4) 0.254(4)
H24 H 0.181(3) 0.110(3) 0.273(4)
loop_
_geom_bond_atom_site_label_1
_geom_bond_atom_site_label_2
_geom_bond_site_symmetry_1
_geom_bond_site_symmetry_2
Cd1 O4 1_555 1_555
Cd2 O2 1_555 1_555
O1 N1 1_555 1_555
O2 H1 1_555 1_555
O3 N1 1_555 1_555
O4 H2 1_555 1_555
O5 C7 1_555 1_555
O6 Cd2 1_555 1_555
O7 Cd1 1_555 1_555
O8 C12 1_555 1_555
O9 Cd1 1_555 1_555
O10 Cd1 1_555 1_555
O11 Cd1 1_555 1_555
O12 Cd1 1_555 1_555
H3 O12 1_555 1_555
O13 C7 1_555 1_555
O14 N4 1_555 1_555
O15 N4 1_555 1_555
N1 C1 1_555 1_555
N2 C18 1_555 1_555
N3 Cd1 1_555 1_555
N4 C11 1_555 1_555
C1 C3 1_555 1_555
C2 H4 1_555 1_555
C3 H5 1_555 1_555
C4 C2 1_555 1_555
C5 C1 1_555 1_555
H6 C5 1_555 1_555
C6 C2 1_555 1_555
C7 C4 1_555 1_555
N5 H7 1_555 1_555
C8 O7 1_555 1_555
C9 H8 1_555 1_555
C10 N5 1_555 1_555
C11 C9 1_555 1_555
C12 O6 1_555 1_555
C13 H9 1_555 1_555
C14 H10 1_555 1_555
C15 C12 1_555 1_555
C16 C11 1_555 1_555
H11 C16 1_555 1_555
C17 N5 1_555 1_555
C18 H12 1_555 1_555
C19 O10 1_555 1_555
C20 N2 1_555 1_555
H13 C20 1_555 1_555
C21 C17 1_555 1_555
H14 C21 1_555 1_555
C22 C10 1_555 1_555
H15 C22 1_555 1_555
C23 C8 1_555 1_555
C24 C10 1_555 1_555
H16 C24 1_555 1_555
C25 N3 1_555 1_555
H17 C25 1_555 1_555
C26 N3 1_555 1_555
H18 C26 1_555 1_555
O16 H19 1_555 1_555
O17 H23 1_555 1_555
H20 O16 1_555 1_555
H21 O2 1_555 1_555
H22 O4 1_555 1_555
H24 O17 1_555 1_555
H25 O12 1_555 1_555
Cd2A O6 1_555 1_555
Cd2_2 O13 1_555 1_555
Cd2A_2 N2 1_555 1_555
O6A Cd2 1_555 1_555
O8A Cd2 1_555 1_555
O13_2 Cd2 1_555 1_555
N2A Cd2 1_555 1_555
O8 Cd2A 1_555 1_555
O9 C8 1_555 1_555
O11 C19 1_555 1_555
C3 C4 1_555 1_555
C5 C6 1_555 1_555
C6 C19 1_555 1_555
C9 C23 1_555 1_555
C13 C15 1_555 1_555
C13 C23 1_555 1_555
C14 C17 1_555 1_555
C14 C26 1_555 1_555
C15 C16 1_555 1_555
C18 C24 1_555 1_555
C20 C22 1_555 1_555
C21 C25 1_555 1_555
Cd2A O6A 1_555 1_555

#END
