
#######################################################################
#
#                 Cambridge Crystallographic Data Centre
#                                CCDC 
#
#######################################################################
#
# If this CIF has been generated from an entry in the Cambridge 
# Structural Database, then it will include bibliographic, chemical, 
# crystal, experimental, refinement or atomic coordinate data resulting 
# from the CCDC's data processing and validation procedures.
#
#######################################################################

data_OVAGIC
_symmetry_cell_setting           monoclinic
_symmetry_space_group_name_H-M   'P 21/c'
_symmetry_Int_Tables_number      14
_space_group_name_Hall           '-P 2ybc'
loop_
_symmetry_equiv_pos_site_id
_symmetry_equiv_pos_as_xyz
1 x,y,z
2 -x,1/2+y,1/2-z
3 -x,-y,-z
4 x,1/2-y,1/2+z
_cell_length_a                   18.001(5)
_cell_length_b                   14.599(5)
_cell_length_c                   23.876(5)
_cell_angle_alpha                90
_cell_angle_beta                 110.734(5)
_cell_angle_gamma                90
_cell_volume                     5868.16
loop_
_atom_site_label
_atom_site_type_symbol
_atom_site_fract_x
_atom_site_fract_y
_atom_site_fract_z
Cu1 Cu 0.96847(4) 0.10790(4) 0.49034(3)
Cu2 Cu 0.72989(4) 0.13324(4) 0.51691(3)
Cu3 Cu 0.51361(4) 0.15926(4) 0.57115(3)
Cu4 Cu 0.97763(4) 0.38596(5) 0.51844(3)
Cu5 Cu 0.72121(4) 0.37148(5) 0.51132(3)
Cu6 Cu 0.45274(4) 0.35243(4) 0.44875(3)
O1 O 1.04013(19) 0.0466(2) 0.55909(15)
O2 O 0.81946(19) 0.0824(2) 0.58591(15)
O3 O 0.88303(19) 0.1653(2) 0.42253(15)
O4 O 0.49961(19) 0.3088(2) 0.38997(15)
O5 O 0.6722(2) 0.4086(2) 0.57286(16)
O6 O 0.4174(2) 0.3993(3) 0.50886(16)
O7 O 0.9770(2) 0.4372(3) 0.44491(17)
O8 O 0.7385(2) 0.4295(2) 0.44201(16)
O9 O 0.9652(2) 0.3350(3) 0.59236(16)
O10 O 0.61490(19) 0.2031(2) 0.63336(15)
O11 O 0.62656(19) 0.0932(2) 0.45489(15)
O12 O 0.4232(2) 0.1190(2) 0.50749(16)
N1 N 0.6962(2) 0.2415(3) 0.41725(19)
N2 N 0.7863(2) 0.2681(3) 0.60838(19)
N3 N 0.8855(2) 0.1014(3) 0.52188(19)
N4 N 0.8124(2) 0.1324(3) 0.48279(19)
N5 N 0.6127(2) 0.3408(3) 0.46890(19)
N6 N 0.5605(2) 0.3654(3) 0.49761(19)
N7 N 0.8674(3) 0.4026(3) 0.4973(2)
N8 N 0.8363(2) 0.3739(3) 0.5407(2)
N9 N 0.6592(2) 0.1659(3) 0.55742(19)
N10 N 0.5799(2) 0.1439(3) 0.52622(18)
N11 N 1.0536(2) 0.1430(3) 0.45968(19)
N12 N 0.4517(2) 0.1705(3) 0.62460(19)
N13 N 1.0894(2) 0.3457(3) 0.5420(2)
N14 N 0.3439(2) 0.3324(3) 0.38990(19)
C1 C 1.0299(3) 0.0356(4) 0.6108(2)
C2 C 1.0964(3) 0.0044(4) 0.6588(2)
H1 H 1.1454 -0.0046 0.6529
C3 C 1.0919(3) -0.0135(4) 0.7143(2)
H2 H 1.1374 -0.0355 0.7457
C4 C 1.0217(3) 0.0004(4) 0.7243(3)
H3 H 1.0190 -0.0110 0.7627
C5 C 0.9561(3) 0.0308(4) 0.6784(2)
H4 H 0.9080 0.0401 0.6855
C6 C 0.9581(3) 0.0488(3) 0.6211(2)
C7 C 0.8841(3) 0.0781(3) 0.5748(2)
C8 C 0.8185(3) 0.1672(3) 0.4336(2)
C9 C 0.7457(3) 0.2102(4) 0.3914(2)
C10 C 0.7306(3) 0.2157(4) 0.3306(2)
H5 H 0.7681 0.1940 0.3139
C11 C 0.6590(3) 0.2539(4) 0.2945(3)
H6 H 0.6460 0.2582 0.2524
C12 C 0.6067(3) 0.2858(4) 0.3210(2)
H7 H 0.5574 0.3124 0.2975
C13 C 0.6277(3) 0.2781(4) 0.3823(2)
C14 C 0.5758(3) 0.3112(3) 0.4144(2)
C15 C 0.5969(3) 0.3988(3) 0.5517(2)
C16 C 0.5484(3) 0.4229(3) 0.5876(2)
C17 C 0.5873(3) 0.4459(4) 0.6477(3)
H8 H 0.6437 0.4450 0.6633
C18 C 0.5479(3) 0.4696(4) 0.6848(3)
H9 H 0.5764 0.4827 0.7258
C19 C 0.4651(3) 0.4743(4) 0.6617(3)
H10 H 0.4369 0.4926 0.6867
C20 C 0.4244(3) 0.4524(4) 0.6029(3)
H11 H 0.3681 0.4573 0.5879
C21 C 0.4630(3) 0.4230(3) 0.5638(3)
C22 C 0.9140(3) 0.4575(4) 0.3979(3)
C23 C 0.9256(4) 0.4867(4) 0.3458(3)
H12 H 0.9780 0.4866 0.3452
C24 C 0.8651(4) 0.5153(5) 0.2957(3)
H13 H 0.8759 0.5353 0.2615
C25 C 0.7881(4) 0.5150(4) 0.2951(3)
H14 H 0.7456 0.5356 0.2608
C26 C 0.7737(3) 0.4847(4) 0.3444(3)
H15 H 0.7204 0.4830 0.3433
C27 C 0.8346(3) 0.4561(3) 0.3963(2)
C28 C 0.8122(3) 0.4285(4) 0.4473(3)
C29 C 0.8920(3) 0.3369(4) 0.5872(2)
C30 C 0.8626(3) 0.2944(3) 0.6317(2)
C31 C 0.9085(3) 0.2803(4) 0.6911(3)
H16 H 0.9631 0.2970 0.7062
C32 C 0.8725(3) 0.2409(4) 0.7283(3)
H17 H 0.9019 0.2320 0.7697
C33 C 0.7939(3) 0.2149(4) 0.7045(2)
H18 H 0.7684 0.1880 0.7291
C34 C 0.7526(3) 0.2287(3) 0.6439(2)
C35 C 0.6701(3) 0.1979(3) 0.6111(2)
C36 C 0.5683(3) 0.1082(3) 0.4730(2)
C37 C 0.4868(3) 0.0851(3) 0.4350(2)
C38 C 0.4730(3) 0.0564(4) 0.3762(2)
H19 H 0.5158 0.0591 0.3617
C39 C 0.4014(3) 0.0249(4) 0.3387(3)
H20 H 0.3947 0.0049 0.2994
C40 C 0.3380(3) 0.0227(4) 0.3598(3)
H21 H 0.2879 -0.0007 0.3351
C41 C 0.3483(3) 0.0542(3) 0.4159(2)
H22 H 0.3043 0.0529 0.4291
C42 C 0.4210(3) 0.0884(3) 0.4549(2)
C43 C 1.1286(3) 0.1215(3) 0.4893(2)
H23 H 1.1418 0.0931 0.5274
C44 C 1.1888(3) 0.1384(4) 0.4673(3)
H24 H 1.2422 0.1224 0.4899
C45 C 1.1697(3) 0.1788(4) 0.4123(3)
H25 H 1.2096 0.1904 0.3957
C46 C 1.0927(3) 0.2023(4) 0.3815(3)
H26 H 1.0783 0.2305 0.3433
C47 C 1.0363(3) 0.1846(4) 0.4064(3)
H27 H 0.9829 0.2024 0.3852
C48 C 0.4664(3) 0.2341(4) 0.6673(3)
H28 H 0.5045 0.2804 0.6698
C49 C 0.4282(4) 0.2349(5) 0.7076(3)
H29 H 0.4386 0.2822 0.7367
C50 C 0.3752(4) 0.1674(5) 0.7059(3)
H30 H 0.3512 0.1652 0.7355
C51 C 0.3566(3) 0.1032(4) 0.6618(3)
H31 H 0.3180 0.0573 0.6589
C52 C 0.3957(3) 0.1064(4) 0.6210(2)
H32 H 0.3828 0.0624 0.5897
C53 C 1.1241(3) 0.3010(4) 0.5934(3)
H33 H 1.0931 0.2847 0.6169
C54 C 1.2028(3) 0.2778(4) 0.6135(3)
H34 H 1.2255 0.2446 0.6498
C55 C 1.2493(3) 0.3031(4) 0.5805(3)
H35 H 1.3045 0.2897 0.5944
C56 C 1.2135(3) 0.3479(4) 0.5275(3)
H36 H 1.2432 0.3651 0.5033
C57 C 1.1338(3) 0.3676(4) 0.5099(3)
H37 H 1.1093 0.3984 0.4728
C58 C 0.2848(3) 0.3896(4) 0.3882(3)
H38 H 0.2939 0.4346 0.4187
C59 C 0.2118(3) 0.3851(4) 0.3438(3)
H39 H 0.1711 0.4263 0.3441
C60 C 0.1970(3) 0.3215(4) 0.2989(3)
H40 H 0.1471 0.3192 0.2671
C61 C 0.2561(3) 0.2616(4) 0.3013(3)
H41 H 0.2473 0.2156 0.2715
C62 C 0.3288(3) 0.2680(4) 0.3471(2)
H42 H 0.3694 0.2256 0.3485
Cu1B Cu 1.03153(4) -0.10790(4) 0.50966(3)
Cu4B Cu 1.02237(4) 0.61404(5) 0.48156(3)
O1B O 0.95987(19) -0.0466(2) 0.44091(15)
O7B O 1.0230(2) 0.5628(3) 0.55509(17)
loop_
_geom_bond_atom_site_label_1
_geom_bond_atom_site_label_2
_geom_bond_site_symmetry_1
_geom_bond_site_symmetry_2
Cu1 O1 1_555 1_555
Cu2 O2 1_555 1_555
Cu3 O10 1_555 1_555
Cu4 O7 1_555 1_555
Cu5 O5 1_555 1_555
Cu6 O4 1_555 1_555
O1 C1 1_555 1_555
O2 C7 1_555 1_555
O3 Cu1 1_555 1_555
O4 C14 1_555 1_555
O5 C15 1_555 1_555
O6 Cu6 1_555 1_555
O7 C22 1_555 1_555
O8 Cu5 1_555 1_555
O9 Cu4 1_555 1_555
O10 C35 1_555 1_555
O11 Cu2 1_555 1_555
O12 Cu3 1_555 1_555
N1 Cu2 1_555 1_555
N2 Cu5 1_555 1_555
N3 Cu1 1_555 1_555
N4 Cu2 1_555 1_555
N5 Cu5 1_555 1_555
N6 Cu6 1_555 1_555
N7 Cu4 1_555 1_555
N8 Cu5 1_555 1_555
N9 Cu2 1_555 1_555
N10 Cu3 1_555 1_555
N11 Cu1 1_555 1_555
N12 Cu3 1_555 1_555
N13 Cu4 1_555 1_555
N14 Cu6 1_555 1_555
C1 C2 1_555 1_555
C2 H1 1_555 1_555
C3 C2 1_555 1_555
H2 C3 1_555 1_555
C4 C3 1_555 1_555
H3 C4 1_555 1_555
C5 C4 1_555 1_555
H4 C5 1_555 1_555
C6 C1 1_555 1_555
C7 N3 1_555 1_555
C8 O3 1_555 1_555
C9 N1 1_555 1_555
C10 C9 1_555 1_555
H5 C10 1_555 1_555
C11 C10 1_555 1_555
H6 C11 1_555 1_555
C12 C11 1_555 1_555
H7 C12 1_555 1_555
C13 N1 1_555 1_555
C14 N5 1_555 1_555
C15 N6 1_555 1_555
C16 C15 1_555 1_555
C17 C16 1_555 1_555
H8 C17 1_555 1_555
C18 C17 1_555 1_555
H9 C18 1_555 1_555
C19 C18 1_555 1_555
H10 C19 1_555 1_555
C20 C19 1_555 1_555
H11 C20 1_555 1_555
C21 O6 1_555 1_555
C22 C23 1_555 1_555
C23 H12 1_555 1_555
C24 C23 1_555 1_555
H13 C24 1_555 1_555
C25 C24 1_555 1_555
H14 C25 1_555 1_555
C26 C25 1_555 1_555
H15 C26 1_555 1_555
C27 C22 1_555 1_555
C28 O8 1_555 1_555
C29 O9 1_555 1_555
C30 N2 1_555 1_555
C31 C30 1_555 1_555
H16 C31 1_555 1_555
C32 C31 1_555 1_555
H17 C32 1_555 1_555
C33 C32 1_555 1_555
H18 C33 1_555 1_555
C34 N2 1_555 1_555
C35 N9 1_555 1_555
C36 O11 1_555 1_555
C37 C36 1_555 1_555
C38 C37 1_555 1_555
H19 C38 1_555 1_555
C39 C38 1_555 1_555
H20 C39 1_555 1_555
C40 C39 1_555 1_555
H21 C40 1_555 1_555
C41 C40 1_555 1_555
H22 C41 1_555 1_555
C42 O12 1_555 1_555
C43 N11 1_555 1_555
H23 C43 1_555 1_555
C44 C43 1_555 1_555
H24 C44 1_555 1_555
C45 C44 1_555 1_555
H25 C45 1_555 1_555
C46 C45 1_555 1_555
H26 C46 1_555 1_555
C47 N11 1_555 1_555
H27 C47 1_555 1_555
C48 N12 1_555 1_555
H28 C48 1_555 1_555
C49 C48 1_555 1_555
H29 C49 1_555 1_555
C50 C49 1_555 1_555
H30 C50 1_555 1_555
C51 C50 1_555 1_555
H31 C51 1_555 1_555
C52 N12 1_555 1_555
H32 C52 1_555 1_555
C53 N13 1_555 1_555
H33 C53 1_555 1_555
C54 C53 1_555 1_555
H34 C54 1_555 1_555
C55 C54 1_555 1_555
H35 C55 1_555 1_555
C56 C55 1_555 1_555
H36 C56 1_555 1_555
C57 N13 1_555 1_555
H37 C57 1_555 1_555
C58 N14 1_555 1_555
H38 C58 1_555 1_555
C59 C58 1_555 1_555
H39 C59 1_555 1_555
C60 C59 1_555 1_555
H40 C60 1_555 1_555
C61 C60 1_555 1_555
H41 C61 1_555 1_555
C62 N14 1_555 1_555
H42 C62 1_555 1_555
Cu1B O1 1_555 1_555
Cu4B O7 1_555 1_555
O1B Cu1 1_555 1_555
O7B Cu4 1_555 1_555
N3 N4 1_555 1_555
N4 C8 1_555 1_555
N5 N6 1_555 1_555
N7 N8 1_555 1_555
N7 C28 1_555 1_555
N8 C29 1_555 1_555
N9 N10 1_555 1_555
N10 C36 1_555 1_555
C5 C6 1_555 1_555
C6 C7 1_555 1_555
C8 C9 1_555 1_555
C12 C13 1_555 1_555
C13 C14 1_555 1_555
C16 C21 1_555 1_555
C20 C21 1_555 1_555
C26 C27 1_555 1_555
C27 C28 1_555 1_555
C29 C30 1_555 1_555
C33 C34 1_555 1_555
C34 C35 1_555 1_555
C37 C42 1_555 1_555
C41 C42 1_555 1_555
C46 C47 1_555 1_555
C51 C52 1_555 1_555
C56 C57 1_555 1_555
C61 C62 1_555 1_555
Cu1B O1B 1_555 1_555
Cu4B O7B 1_555 1_555

#END
