
#######################################################################
#
#                 Cambridge Crystallographic Data Centre
#                                CCDC 
#
#######################################################################
#
# If this CIF has been generated from an entry in the Cambridge 
# Structural Database, then it will include bibliographic, chemical, 
# crystal, experimental, refinement or atomic coordinate data resulting 
# from the CCDC's data processing and validation procedures.
#
#######################################################################

data_OVAJAX
_symmetry_cell_setting           triclinic
_symmetry_space_group_name_H-M   'P -1'
_symmetry_Int_Tables_number      2
_space_group_name_Hall           '-P 1'
loop_
_symmetry_equiv_pos_site_id
_symmetry_equiv_pos_as_xyz
1 x,y,z
2 -x,-y,-z
_cell_length_a                   9.1403(11)
_cell_length_b                   10.1427(12)
_cell_length_c                   11.3290(14)
_cell_angle_alpha                105.6780(10)
_cell_angle_beta                 98.3820(10)
_cell_angle_gamma                104.5320(10)
_cell_volume                     952.806
loop_
_atom_site_label
_atom_site_type_symbol
_atom_site_fract_x
_atom_site_fract_y
_atom_site_fract_z
Cd1 Cd 0.32236(3) 0.32383(3) 0.20478(2)
Cd2 Cd 0.41981(3) 0.64436(3) 0.51696(2)
C1 C 0.0904(5) -0.2867(5) 0.4216(4)
H1 H 0.0459 -0.3634 0.4482
C2 C -0.0045(5) -0.2193(6) 0.3725(5)
H2 H -0.1111 -0.2502 0.3659
C3 C 0.0608(5) -0.1052(5) 0.3333(5)
H3 H -0.0017 -0.0595 0.2984
C4 C 0.2190(5) -0.0595(4) 0.3461(4)
C5 C 0.3060(5) -0.1327(4) 0.3973(4)
H4 H 0.4132 -0.1012 0.4078
C6 C 0.2987(5) 0.0679(4) 0.3088(4)
C7 C 0.0148(5) 0.3202(5) 0.0144(4)
H5 H 0.0775 0.3032 -0.0422
C8 C -0.1296(5) 0.3290(6) -0.0305(5)
H6 H -0.1629 0.3195 -0.1148
C9 C -0.2231(5) 0.3521(5) 0.0524(5)
H7 H -0.3214 0.3582 0.0248
C10 C -0.1703(4) 0.3662(4) 0.1774(4)
C11 C -0.0223(4) 0.3583(4) 0.2137(4)
H8 H 0.0149 0.3702 0.2980
C12 C -0.2740(5) 0.3823(5) 0.2689(5)
C13 C 0.2711(6) 0.0659(5) -0.0600(4)
H9 H 0.2291 0.0070 -0.0153
C14 C 0.2821(6) 0.0026(5) -0.1823(5)
H10 H 0.2471 -0.0969 -0.2188
C15 C 0.3455(5) 0.0892(5) -0.2489(4)
H11 H 0.3507 0.0493 -0.3318
C16 C 0.4012(4) 0.2367(4) -0.1899(3)
C17 C 0.3825(4) 0.2901(4) -0.0697(3)
H12 H 0.4162 0.3893 -0.0314
C18 C 0.4824(4) 0.3373(4) -0.2544(4)
N1 N 0.2450(4) -0.2461(4) 0.4327(3)
N2 N 0.0700(4) 0.3347(4) 0.1346(3)
N3 N 0.3188(4) 0.2081(3) -0.0045(3)
O1 O 0.4421(3) 0.1233(3) 0.3537(3)
O2 O 0.2151(3) 0.1052(3) 0.2344(3)
O3 O -0.2179(4) 0.4091(5) 0.3812(4)
O4 O -0.4127(4) 0.3610(5) 0.2229(4)
O5 O 0.4404(3) 0.2978(3) -0.3722(2)
O6 O 0.5882(3) 0.4476(3) -0.1835(3)
O7 O 0.3539(3) 0.4107(3) 0.4101(2)
H13 H 0.2847 0.3823 0.4541
Cd1_2 Cd -0.67764(3) 0.32383(3) 0.20478(2)
Cd1A Cd 0.67764(3) 0.67617(3) -0.20478(2)
Cd2_2 Cd 0.41981(3) -0.35564(3) 0.51696(2)
Cd2A Cd 0.58019(3) 0.35564(3) 0.48304(2)
Cd2A_2 Cd -0.41981(3) 0.35564(3) 0.48304(2)
Cd2A_3 Cd 0.58019(3) 0.35564(3) -0.51696(2)
N1_2 N 0.2450(4) 0.7539(4) 0.4327(3)
O1A O 0.5579(3) 0.8767(3) 0.6463(3)
O3A O 0.2179(4) 0.5909(5) 0.6188(4)
O4_2 O 0.5873(4) 0.3610(5) 0.2229(4)
O5A O 0.5596(3) 0.7022(3) 0.3722(2)
O6A O 0.4118(3) 0.5524(3) 0.1835(3)
O7A O 0.6461(3) 0.5893(3) 0.5899(2)
H13A H 0.7153 0.6177 0.5459
loop_
_geom_bond_atom_site_label_1
_geom_bond_atom_site_label_2
_geom_bond_site_symmetry_1
_geom_bond_site_symmetry_2
Cd1 N2 1_555 1_555
Cd2 O7 1_555 1_555
C1 H1 1_555 1_555
C2 C1 1_555 1_555
H2 C2 1_555 1_555
C3 C2 1_555 1_555
H3 C3 1_555 1_555
C4 C3 1_555 1_555
C5 C4 1_555 1_555
H4 C5 1_555 1_555
C6 C4 1_555 1_555
C7 H5 1_555 1_555
C8 C7 1_555 1_555
H6 C8 1_555 1_555
C9 C8 1_555 1_555
H7 C9 1_555 1_555
C10 C9 1_555 1_555
C11 C10 1_555 1_555
H8 C11 1_555 1_555
C12 C10 1_555 1_555
C13 H9 1_555 1_555
C14 C13 1_555 1_555
H10 C14 1_555 1_555
C15 C14 1_555 1_555
H11 C15 1_555 1_555
C16 C15 1_555 1_555
C17 C16 1_555 1_555
H12 C17 1_555 1_555
C18 C16 1_555 1_555
N1 C1 1_555 1_555
N2 C7 1_555 1_555
N3 Cd1 1_555 1_555
O1 C6 1_555 1_555
O2 Cd1 1_555 1_555
O3 C12 1_555 1_555
O4 C12 1_555 1_555
O5 C18 1_555 1_555
O6 C18 1_555 1_555
O7 Cd1 1_555 1_555
H13 O7 1_555 1_555
Cd1_2 O4 1_555 1_555
Cd1A O6 1_555 1_555
Cd2_2 N1 1_555 1_555
Cd2A O1 1_555 1_555
Cd2A_2 O3 1_555 1_555
Cd2A_3 O5 1_555 1_555
N1_2 Cd2 1_555 1_555
O1A Cd2 1_555 1_555
O3A Cd2 1_555 1_555
O4_2 Cd1 1_555 1_555
O5A Cd2 1_555 1_555
O6A Cd1 1_555 1_555
O7A Cd2 1_555 1_555
H13A O7A 1_555 1_555
C5 N1 1_555 1_555
C6 O2 1_555 1_555
C11 N2 1_555 1_555
C13 N3 1_555 1_555
C17 N3 1_555 1_555
O7 Cd2A 1_555 1_555
Cd2A O7A 1_555 1_555

#END
