
#######################################################################
#
#                 Cambridge Crystallographic Data Centre
#                                CCDC 
#
#######################################################################
#
# If this CIF has been generated from an entry in the Cambridge 
# Structural Database, then it will include bibliographic, chemical, 
# crystal, experimental, refinement or atomic coordinate data resulting 
# from the CCDC's data processing and validation procedures.
#
#######################################################################

data_OVAJEB
_symmetry_cell_setting           monoclinic
_symmetry_space_group_name_H-M   'P 21/c'
_symmetry_Int_Tables_number      14
_space_group_name_Hall           '-P 2ybc'
loop_
_symmetry_equiv_pos_site_id
_symmetry_equiv_pos_as_xyz
1 x,y,z
2 -x,1/2+y,1/2-z
3 -x,-y,-z
4 x,1/2-y,1/2+z
_cell_length_a                   9.6181(19)
_cell_length_b                   11.070(2)
_cell_length_c                   16.659(3)
_cell_angle_alpha                90
_cell_angle_beta                 101.39(3)
_cell_angle_gamma                90
_cell_volume                     1738.79
loop_
_atom_site_label
_atom_site_type_symbol
_atom_site_fract_x
_atom_site_fract_y
_atom_site_fract_z
H1 H 0.366(5) 0.250(5) 0.884(3)
Cd1 Cd 0.5000 0.5000 1.0000
C1 C 0.2046(2) 0.65623(17) 0.97307(12)
N1 N 0.29385(17) 0.58716(14) 1.02404(9)
C2 C 0.2232(2) 0.55672(17) 1.08703(12)
N2 N 0.07961(18) 0.67133(15) 0.99839(11)
C3 C 0.0884(2) 0.60857(18) 1.07088(13)
C4 C -0.0198(2) 0.8775(2) 0.98044(13)
C5 C 0.2332(2) 0.7143(2) 0.89775(13)
H2 H 0.2361 0.8004 0.9048
H3 H 0.1593 0.6936 0.8522
H4 H 0.3227 0.6866 0.8876
C6 C -0.0409(2) 0.7455(2) 0.95857(15)
H5 H -0.1265 0.7170 0.9750
H6 H -0.0535 0.7364 0.8997
C7 C -0.0026(3) 0.9607(2) 0.92170(14)
H7 H -0.0044 0.9349 0.8684
C8 C -0.0174(3) 0.9177(2) 1.05942(14)
H8 H -0.0291 0.8630 1.0999
C9 C 0.0362(3) 0.5224(3) 1.19069(18)
H9 H -0.0259 0.5080 1.2259
C10 C -0.0084(3) 0.5916(2) 1.12211(16)
H10 H -0.0987 0.6254 1.1104
C11 C 0.1728(3) 0.4728(2) 1.20912(15)
H11 H 0.2001 0.4284 1.2570
C12 C 0.2677(3) 0.48831(19) 1.15764(13)
H12 H 0.3579 0.4544 1.1696
C13 C 0.3623(2) 0.50157(16) 0.56124(11)
H13 H 0.3567 0.5244 0.5070
C14 C 0.3743(2) 0.43406(16) 0.72265(10)
C15 C 0.37911(19) 0.38081(16) 0.58322(10)
C16 C 0.3847(2) 0.34717(16) 0.66404(10)
H14 H 0.3956 0.2663 0.6790
C17 C 0.3604(2) 0.55501(17) 0.70059(12)
H15 H 0.3555 0.6136 0.7400
C18 C 0.3539(2) 0.58811(18) 0.62012(12)
H16 H 0.3438 0.6691 0.6053
O1 O 0.3597(2) 0.32047(15) 0.44667(9)
O2 O 0.3746(2) 0.28453(15) 0.82197(9)
C19 C 0.38915(19) 0.28581(17) 0.52055(11)
C20 C 0.3807(2) 0.39739(17) 0.81009(11)
O3 O 0.39007(18) 0.47525(13) 0.86376(8)
O4 O 0.42179(17) 0.18163(13) 0.54364(8)
H1B H 0.634(5) 0.750(5) 1.116(3)
Cd1A Cd 0.5000 0.0000 0.5000
Cd1_2 Cd -0.5000 1.5000 1.0000
Cd1A_2 Cd 0.5000 1.0000 1.5000
C1B C -0.2046(2) 1.34377(17) 1.02693(12)
N1B N -0.29385(17) 1.41284(14) 0.97596(9)
N1B_2 N 0.70615(17) 0.41284(14) 0.97596(9)
C2B C -0.2232(2) 1.44328(17) 0.91297(12)
N2B N -0.07961(18) 1.32867(15) 1.00161(11)
C3B C -0.0884(2) 1.39143(18) 0.92912(13)
C4B C 0.0198(2) 1.1225(2) 1.01956(13)
C5B C -0.2332(2) 1.2857(2) 1.10225(13)
H2B H -0.2361 1.1996 1.0952
H3B H -0.1593 1.3064 1.1478
H4B H -0.3227 1.3134 1.1124
C6B C 0.0409(2) 1.2545(2) 1.04143(15)
H5B H 0.1265 1.2830 1.0250
H6B H 0.0535 1.2636 1.1003
C7B C 0.0026(3) 1.0393(2) 1.07830(14)
H7B H 0.0044 1.0651 1.1316
C8B C 0.0174(3) 1.0823(2) 0.94058(14)
H8B H 0.0291 1.1370 0.9001
C9B C -0.0362(3) 1.4776(3) 0.80931(18)
H9B H 0.0259 1.4920 0.7741
C10B C 0.0084(3) 1.4084(2) 0.87789(16)
H10B H 0.0987 1.3746 0.8896
C11B C -0.1728(3) 1.5272(2) 0.79088(15)
H11B H -0.2001 1.5716 0.7430
C12B C -0.2677(3) 1.51169(19) 0.84236(13)
H12B H -0.3579 1.5456 0.8304
C13B C 0.6377(2) 0.49843(16) 1.43876(11)
H13B H 0.6433 0.4756 1.4930
C14B C 0.6257(2) 0.56594(16) 1.27735(10)
C15B C 0.62089(19) 0.61919(16) 1.41678(10)
C16B C 0.6153(2) 0.65283(16) 1.33596(10)
H14B H 0.6044 0.7337 1.3210
C17B C 0.6396(2) 0.44499(17) 1.29941(12)
H15B H 0.6445 0.3864 1.2600
C18B C 0.6461(2) 0.41189(18) 1.37988(12)
H16B H 0.6562 0.3309 1.3947
O1B O 0.6403(2) 0.67953(15) 1.55333(9)
O2B O 0.6254(2) 0.71547(15) 1.17803(9)
C19B C 0.61085(19) 0.71419(17) 1.47945(11)
C20B C 0.6193(2) 0.60261(17) 1.18991(11)
O3B O 0.60993(18) 0.52475(13) 1.13624(8)
O4B O 0.57821(17) 0.81837(13) 1.45636(8)
O4A O 0.57821(17) 0.68163(13) 0.95636(8)
O4C O 0.42179(17) 0.31837(13) 1.04364(8)
loop_
_geom_bond_atom_site_label_1
_geom_bond_atom_site_label_2
_geom_bond_site_symmetry_1
_geom_bond_site_symmetry_2
H1 O2 1_555 1_555
Cd1 N1 1_555 1_555
C1 N1 1_555 1_555
N1 C2 1_555 1_555
C2 C3 1_555 1_555
N2 C1 1_555 1_555
C3 N2 1_555 1_555
C4 C6 1_555 1_555
C5 C1 1_555 1_555
H2 C5 1_555 1_555
H3 C5 1_555 1_555
H4 C5 1_555 1_555
C6 N2 1_555 1_555
H5 C6 1_555 1_555
H6 C6 1_555 1_555
C7 C4 1_555 1_555
H7 C7 1_555 1_555
C8 C4 1_555 1_555
H8 C8 1_555 1_555
C9 H9 1_555 1_555
C10 C3 1_555 1_555
H10 C10 1_555 1_555
C11 C9 1_555 1_555
H11 C11 1_555 1_555
C12 C2 1_555 1_555
H12 C12 1_555 1_555
C13 H13 1_555 1_555
C14 C16 1_555 1_555
C15 C13 1_555 1_555
C16 C15 1_555 1_555
H14 C16 1_555 1_555
C17 C14 1_555 1_555
H15 C17 1_555 1_555
C18 C13 1_555 1_555
H16 C18 1_555 1_555
O1 C19 1_555 1_555
O2 C20 1_555 1_555
C19 C15 1_555 1_555
C20 C14 1_555 1_555
O3 Cd1 1_555 1_555
O4 C19 1_555 1_555
H1B O2B 1_555 1_555
Cd1A O4 1_555 1_555
Cd1_2 N1B 1_555 1_555
Cd1A_2 O4B 1_555 1_555
C1B N1B 1_555 1_555
N1B C2B 1_555 1_555
N1B_2 Cd1 1_555 1_555
C2B C3B 1_555 1_555
N2B C1B 1_555 1_555
C3B N2B 1_555 1_555
C4B C6B 1_555 1_555
C5B C1B 1_555 1_555
H2B C5B 1_555 1_555
H3B C5B 1_555 1_555
H4B C5B 1_555 1_555
C6B N2B 1_555 1_555
H5B C6B 1_555 1_555
H6B C6B 1_555 1_555
C7B C8 1_555 1_555
H7B C7B 1_555 1_555
C8B C7 1_555 1_555
H8B C8B 1_555 1_555
C9B H9B 1_555 1_555
C10B C3B 1_555 1_555
H10B C10B 1_555 1_555
C11B C9B 1_555 1_555
H11B C11B 1_555 1_555
C12B C2B 1_555 1_555
H12B C12B 1_555 1_555
C13B H13B 1_555 1_555
C14B C16B 1_555 1_555
C15B C13B 1_555 1_555
C16B C15B 1_555 1_555
H14B C16B 1_555 1_555
C17B C14B 1_555 1_555
H15B C17B 1_555 1_555
C18B C13B 1_555 1_555
H16B C18B 1_555 1_555
O1B C19B 1_555 1_555
O2B C20B 1_555 1_555
C19B C15B 1_555 1_555
C20B C14B 1_555 1_555
O3B Cd1 1_555 1_555
O4B C19B 1_555 1_555
O4A Cd1 1_555 1_555
O4C Cd1 1_555 1_555
C9 C10 1_555 1_555
C11 C12 1_555 1_555
C17 C18 1_555 1_555
C20 O3 1_555 1_555
C4B C7B 1_555 1_555
C4B C8B 1_555 1_555
C9B C10B 1_555 1_555
C11B C12B 1_555 1_555
C17B C18B 1_555 1_555
C20B O3B 1_555 1_555

#END
