
#######################################################################
#
#                 Cambridge Crystallographic Data Centre
#                                CCDC 
#
#######################################################################
#
# If this CIF has been generated from an entry in the Cambridge 
# Structural Database, then it will include bibliographic, chemical, 
# crystal, experimental, refinement or atomic coordinate data resulting 
# from the CCDC's data processing and validation procedures.
#
#######################################################################

data_OVAJOL
_symmetry_cell_setting           triclinic
_symmetry_space_group_name_H-M   'P -1'
_symmetry_Int_Tables_number      2
_space_group_name_Hall           '-P 1'
loop_
_symmetry_equiv_pos_site_id
_symmetry_equiv_pos_as_xyz
1 x,y,z
2 -x,-y,-z
_cell_length_a                   10.187(2)
_cell_length_b                   10.874(2)
_cell_length_c                   11.291(2)
_cell_angle_alpha                64.42(3)
_cell_angle_beta                 71.62(3)
_cell_angle_gamma                75.04(3)
_cell_volume                     1059.67
loop_
_atom_site_label
_atom_site_type_symbol
_atom_site_fract_x
_atom_site_fract_y
_atom_site_fract_z
C1 C -0.2350(4) -0.5890(4) 0.2111(4)
H1 H -0.2320 -0.6450 0.1636
H2 H -0.1772 -0.6371 0.2749
H3 H -0.2012 -0.5041 0.1478
C2 C -0.3804(3) -0.5595(3) 0.2833(3)
C3 C -0.5938(3) -0.4633(3) 0.3344(3)
C4 C -0.7229(3) -0.3803(4) 0.3364(4)
H4 H -0.7380 -0.2995 0.2629
C5 C -0.8278(4) -0.4222(4) 0.4513(4)
H5 H -0.9156 -0.3691 0.4547
C6 C -0.8056(4) -0.5425(4) 0.5628(4)
H6 H -0.8786 -0.5667 0.6390
C7 C -0.6784(4) -0.6260(4) 0.5627(4)
H7 H -0.6632 -0.7061 0.6368
C8 C -0.5744(3) -0.5837(3) 0.4458(3)
C9 C -0.3789(4) -0.7803(3) 0.4908(3)
H8 H -0.3936 -0.7869 0.5824
H9 H -0.2789 -0.7941 0.4539
C10 C -0.4433(3) -0.8926(3) 0.4939(3)
C11 C -0.5135(4) -0.8721(3) 0.3981(3)
H10 H -0.5229 -0.7860 0.3290
C12 C -0.4305(3) -1.0214(3) 0.5957(3)
H11 H -0.3838 -1.0368 0.6607
C13 C -0.1860(3) -0.1571(4) -0.0515(4)
C14 C -0.0509(3) -0.0983(3) -0.1100(3)
C15 C -0.0364(4) 0.0215(4) -0.2244(4)
H12 H -0.1113 0.0668 -0.2649
C16 C 0.0884(4) 0.0743(4) -0.2789(4)
H13 H 0.0971 0.1554 -0.3553
C17 C 0.1999(3) 0.0072(3) -0.2203(4)
H14 H 0.2836 0.0435 -0.2567
C18 C 0.1882(3) -0.1143(3) -0.1074(3)
C19 C 0.0621(3) -0.1659(3) -0.0520(3)
H15 H 0.0532 -0.2466 0.0248
C20 C 0.3130(3) -0.1912(3) -0.0486(3)
C21 C -0.1681(7) -0.4113(6) -0.1726(6)
H16 H -0.1136 -0.3991 -0.1229
H17 H -0.1354 -0.5017 -0.1768
C22 C -0.1486(7) -0.3093(7) -0.3048(6)
H18 H -0.1975 -0.3252 -0.3559
H19 H -0.0507 -0.3133 -0.3476
H20 H -0.1844 -0.2201 -0.3007
N1 N -0.4703(3) -0.4502(2) 0.2341(3)
N2 N -0.4377(3) -0.6428(2) 0.4101(3)
O1 O -0.1996(3) -0.2609(3) 0.0546(3)
O2 O -0.2817(2) -0.1002(3) -0.1157(3)
O3 O 0.3221(3) -0.3170(3) 0.0165(3)
O4 O 0.4060(2) -0.1227(2) -0.0683(3)
O5 O -0.3269(3) -0.4023(3) -0.0967(3)
O6 O -0.5084(3) -0.1223(2) 0.1659(2)
H21 H -0.5828 -0.0752 0.1507
Cd1 Cd -0.43010(2) -0.26718(2) 0.03932(2)
C1A C -0.7650(4) -1.4110(4) 0.7889(4)
H1A H -0.7680 -1.3550 0.8364
H2A H -0.8228 -1.3629 0.7251
H3A H -0.7988 -1.4959 0.8522
C2A C -0.6196(3) -1.4405(3) 0.7167(3)
C3A C -0.4062(3) -1.5367(3) 0.6656(3)
C4A C -0.2771(3) -1.6197(4) 0.6636(4)
H4A H -0.2620 -1.7005 0.7371
C5A C -0.1722(4) -1.5778(4) 0.5487(4)
H5A H -0.0844 -1.6309 0.5453
C6A C -0.1944(4) -1.4575(4) 0.4372(4)
H6A H -0.1214 -1.4333 0.3610
C7A C -0.3216(4) -1.3740(4) 0.4373(4)
H7A H -0.3368 -1.2939 0.3632
C8A C -0.4256(3) -1.4163(3) 0.5542(3)
C9A C -0.6211(4) -1.2197(3) 0.5092(3)
H8A H -0.6064 -1.2131 0.4176
H9A H -0.7211 -1.2059 0.5461
C10A C -0.5567(3) -1.1074(3) 0.5061(3)
C11A C -0.4865(4) -1.1279(3) 0.6019(3)
H10A H -0.4771 -1.2140 0.6710
C12A C -0.5695(3) -0.9786(3) 0.4043(3)
H11A H -0.6162 -0.9632 0.3393
C13A C -0.8140(3) -1.8429(4) 1.0515(4)
C14A C -0.9491(3) -1.9017(3) 1.1100(3)
C15A C -0.9636(4) -2.0215(4) 1.2244(4)
H12A H -0.8887 -2.0668 1.2649
C16A C -1.0884(4) -2.0743(4) 1.2789(4)
H13A H -1.0971 -2.1554 1.3553
C17A C -1.1999(3) -2.0072(3) 1.2203(4)
H14A H -1.2836 -2.0435 1.2567
C18A C -1.1882(3) -1.8857(3) 1.1074(3)
C19A C -1.0621(3) -1.8341(3) 1.0520(3)
H15A H -1.0532 -1.7534 0.9752
C20A C -1.3130(3) -1.8088(3) 1.0486(3)
C21A C -0.8319(7) -1.5887(6) 1.1726(6)
H16A H -0.8864 -1.6009 1.1229
H17A H -0.8646 -1.4983 1.1768
C22A C -0.8514(7) -1.6907(7) 1.3048(6)
H18A H -0.8025 -1.6748 1.3559
H19A H -0.9493 -1.6867 1.3476
H20A H -0.8156 -1.7799 1.3007
N1A N -0.5297(3) -1.5498(2) 0.7659(3)
N2A N -0.5623(3) -1.3572(2) 0.5899(3)
O1A O -0.8004(3) -1.7391(3) 0.9454(3)
O2A O -0.7183(2) -1.8998(3) 1.1157(3)
O3A O -1.3221(3) -1.6830(3) 0.9835(3)
O4_2 O -0.5940(2) -0.1227(2) -0.0683(3)
O4A O -0.4060(2) -1.8773(2) 1.0683(3)
O4A_2 O -1.4060(2) -1.8773(2) 1.0683(3)
O5A O -0.6731(3) -1.5977(3) 1.0967(3)
O6A O -0.4916(3) -1.8777(2) 0.8341(2)
H21A H -0.4172 -1.9248 0.8493
Cd1A Cd -0.56990(2) -1.73282(2) 0.96068(2)
Cd1_2 Cd 0.56990(2) -0.26718(2) 0.03932(2)
Cd1A_2 Cd -1.56990(2) -1.73282(2) 0.96068(2)
loop_
_geom_bond_atom_site_label_1
_geom_bond_atom_site_label_2
_geom_bond_site_symmetry_1
_geom_bond_site_symmetry_2
C1 H1 1_555 1_555
H2 C1 1_555 1_555
H3 C1 1_555 1_555
C2 C1 1_555 1_555
C3 C4 1_555 1_555
C4 H4 1_555 1_555
C5 C4 1_555 1_555
H5 C5 1_555 1_555
C6 C5 1_555 1_555
H6 C6 1_555 1_555
C7 C6 1_555 1_555
H7 C7 1_555 1_555
C8 C3 1_555 1_555
C9 H8 1_555 1_555
H9 C9 1_555 1_555
C10 C9 1_555 1_555
C11 C10 1_555 1_555
H10 C11 1_555 1_555
C12 C10 1_555 1_555
H11 C12 1_555 1_555
C13 C14 1_555 1_555
C14 C15 1_555 1_555
C15 H12 1_555 1_555
C16 C15 1_555 1_555
H13 C16 1_555 1_555
C17 C16 1_555 1_555
H14 C17 1_555 1_555
C18 C17 1_555 1_555
C19 C14 1_555 1_555
H15 C19 1_555 1_555
C20 C18 1_555 1_555
C21 H16 1_555 1_555
H17 C21 1_555 1_555
C22 C21 1_555 1_555
H18 C22 1_555 1_555
H19 C22 1_555 1_555
H20 C22 1_555 1_555
N1 C2 1_555 1_555
N2 C2 1_555 1_555
O1 C13 1_555 1_555
O2 C13 1_555 1_555
O3 C20 1_555 1_555
O4 C20 1_555 1_555
O5 C21 1_555 1_555
O6 H21 1_555 1_555
Cd1 N1 1_555 1_555
C1A H1A 1_555 1_555
H2A C1A 1_555 1_555
H3A C1A 1_555 1_555
C2A C1A 1_555 1_555
C3A C4A 1_555 1_555
C4A H4A 1_555 1_555
C5A C4A 1_555 1_555
H5A C5A 1_555 1_555
C6A C5A 1_555 1_555
H6A C6A 1_555 1_555
C7A C6A 1_555 1_555
H7A C7A 1_555 1_555
C8A C3A 1_555 1_555
C9A H8A 1_555 1_555
H9A C9A 1_555 1_555
C10A C9A 1_555 1_555
C11A C12 1_555 1_555
H10A C11A 1_555 1_555
C12A C11 1_555 1_555
H11A C12A 1_555 1_555
C13A C14A 1_555 1_555
C14A C15A 1_555 1_555
C15A H12A 1_555 1_555
C16A C15A 1_555 1_555
H13A C16A 1_555 1_555
C17A C16A 1_555 1_555
H14A C17A 1_555 1_555
C18A C17A 1_555 1_555
C19A C14A 1_555 1_555
H15A C19A 1_555 1_555
C20A C18A 1_555 1_555
C21A H16A 1_555 1_555
H17A C21A 1_555 1_555
C22A C21A 1_555 1_555
H18A C22A 1_555 1_555
H19A C22A 1_555 1_555
H20A C22A 1_555 1_555
N1A C2A 1_555 1_555
N2A C2A 1_555 1_555
O1A C13A 1_555 1_555
O2A C13A 1_555 1_555
O3A C20A 1_555 1_555
O4_2 Cd1 1_555 1_555
O4A Cd1A 1_555 1_555
O4A_2 C20A 1_555 1_555
O5A C21A 1_555 1_555
O6A H21A 1_555 1_555
Cd1A N1A 1_555 1_555
Cd1_2 O4 1_555 1_555
Cd1A_2 O4A_2 1_555 1_555
C3 N1 1_555 1_555
C7 C8 1_555 1_555
C8 N2 1_555 1_555
C9 N2 1_555 1_555
C18 C19 1_555 1_555
O1 Cd1 1_555 1_555
O2 Cd1 1_555 1_555
O5 Cd1 1_555 1_555
O6 Cd1 1_555 1_555
C3A N1A 1_555 1_555
C7A C8A 1_555 1_555
C8A N2A 1_555 1_555
C9A N2A 1_555 1_555
C10A C11A 1_555 1_555
C10A C12A 1_555 1_555
C18A C19A 1_555 1_555
O1A Cd1A 1_555 1_555
O2A Cd1A 1_555 1_555
O5A Cd1A 1_555 1_555
O6A Cd1A 1_555 1_555

#END
