
#######################################################################
#
#                 Cambridge Crystallographic Data Centre
#                                CCDC 
#
#######################################################################
#
# If this CIF has been generated from an entry in the Cambridge 
# Structural Database, then it will include bibliographic, chemical, 
# crystal, experimental, refinement or atomic coordinate data resulting 
# from the CCDC's data processing and validation procedures.
#
#######################################################################

data_OVAKEC
_symmetry_cell_setting           trigonal
_symmetry_space_group_name_H-M   'P 32'
_symmetry_Int_Tables_number      145
_space_group_name_Hall           'P 32'
loop_
_symmetry_equiv_pos_site_id
_symmetry_equiv_pos_as_xyz
1 x,y,z
2 -y,x-y,2/3+z
3 -x+y,-x,1/3+z
_cell_length_a                   11.5828(9)
_cell_length_b                   11.5828(9)
_cell_length_c                   12.4803(12)
_cell_angle_alpha                90
_cell_angle_beta                 90
_cell_angle_gamma                120
_cell_volume                     1450.05
loop_
_atom_site_label
_atom_site_type_symbol
_atom_site_fract_x
_atom_site_fract_y
_atom_site_fract_z
Zn1 Zn 0.05097(7) 0.45288(7) 0.25630(5)
Cl1 Cl 0.2336(2) 0.4901(3) 0.34051(17)
Cl2 Cl -0.13249(18) 0.25560(15) 0.27805(15)
P1 P 0.01031(14) 0.68244(14) 0.37401(12)
O1 O -0.0047(4) 0.5825(4) 0.2918(3)
N1 N 0.3906(5) 0.9096(5) 0.4264(4)
N2 N 0.2636(5) 0.8541(5) 0.2661(4)
N3 N 0.1613(5) 0.7746(5) 0.4276(4)
H1 H 0.1673 0.7756 0.4963
C1 C 0.2772(6) 0.8494(6) 0.3705(5)
C2 C 0.5025(7) 0.9731(7) 0.3669(6)
H2 H 0.5849 1.0142 0.4010
C3 C 0.4978(7) 0.9785(8) 0.2575(6)
H3 H 0.5758 1.0200 0.2173
C4 C 0.3751(6) 0.9211(6) 0.2083(5)
C5 C 0.3577(8) 0.9313(8) 0.0907(7)
H4 H 0.2698 0.9169 0.0771
H5 H 0.3692 0.8653 0.0535
H6 H 0.4227 1.0185 0.0659
C6 C -0.0859(5) 0.6057(6) 0.4914(5)
C7 C -0.1610(6) 0.4688(6) 0.4982(5)
H7 H -0.1614 0.4166 0.4414
C8 C -0.2361(7) 0.4085(7) 0.5891(6)
H8 H -0.2870 0.3161 0.5934
C9 C -0.2347(7) 0.4868(8) 0.6734(6)
H9 H -0.2849 0.4470 0.7345
C10 C -0.1591(8) 0.6235(8) 0.6670(6)
H10 H -0.1565 0.6756 0.7247
C11 C -0.0878(7) 0.6835(7) 0.5762(6)
H11 H -0.0407 0.7760 0.5710
C12 C -0.0449(6) 0.7881(6) 0.3170(5)
C13 C -0.1436(7) 0.7336(7) 0.2382(5)
H12 H -0.1696 0.6499 0.2099
C14 C -0.2023(8) 0.8046(8) 0.2028(6)
H13 H -0.2694 0.7678 0.1515
C15 C -0.1630(8) 0.9284(8) 0.2424(6)
H14 H -0.2037 0.9751 0.2178
C16 C -0.0631(8) 0.9856(7) 0.3188(6)
H15 H -0.0355 1.0709 0.3444
C17 C -0.0051(7) 0.9141(6) 0.3564(6)
H16 H 0.0610 0.9510 0.4085
Zn1B Zn 0.40191(10) 0.94903(7) 0.58963(5)
N1A N 0.0904(5) 0.4810(7) 0.0931(4)
loop_
_geom_bond_atom_site_label_1
_geom_bond_atom_site_label_2
_geom_bond_site_symmetry_1
_geom_bond_site_symmetry_2
Zn1 Cl1 1_555 1_555
Cl2 Zn1 1_555 1_555
P1 O1 1_555 1_555
O1 Zn1 1_555 1_555
N1 C1 1_555 1_555
N2 C1 1_555 1_555
N3 P1 1_555 1_555
H1 N3 1_555 1_555
C1 N3 1_555 1_555
C2 N1 1_555 1_555
H2 C2 1_555 1_555
C3 C2 1_555 1_555
H3 C3 1_555 1_555
C4 N2 1_555 1_555
C5 C4 1_555 1_555
H4 C5 1_555 1_555
H5 C5 1_555 1_555
H6 C5 1_555 1_555
C6 P1 1_555 1_555
C7 C6 1_555 1_555
H7 C7 1_555 1_555
C8 C7 1_555 1_555
H8 C8 1_555 1_555
C9 C8 1_555 1_555
H9 C9 1_555 1_555
C10 C9 1_555 1_555
H10 C10 1_555 1_555
C11 C6 1_555 1_555
H11 C11 1_555 1_555
C12 P1 1_555 1_555
C13 C12 1_555 1_555
H12 C13 1_555 1_555
C14 C13 1_555 1_555
H13 C14 1_555 1_555
C15 C14 1_555 1_555
H14 C15 1_555 1_555
C16 C15 1_555 1_555
H15 C16 1_555 1_555
C17 C12 1_555 1_555
H16 C17 1_555 1_555
Zn1B N1 1_555 1_555
N1A Zn1 1_555 1_555
C3 C4 1_555 1_555
C10 C11 1_555 1_555
C16 C17 1_555 1_555

#END
