
#######################################################################
#
#                 Cambridge Crystallographic Data Centre
#                                CCDC 
#
#######################################################################
#
# If this CIF has been generated from an entry in the Cambridge 
# Structural Database, then it will include bibliographic, chemical, 
# crystal, experimental, refinement or atomic coordinate data resulting 
# from the CCDC's data processing and validation procedures.
#
#######################################################################

data_OVAQOS
_symmetry_cell_setting           orthorhombic
_symmetry_space_group_name_H-M   'P b c a'
_symmetry_Int_Tables_number      61
_space_group_name_Hall           '-P 2ac 2ab'
loop_
_symmetry_equiv_pos_site_id
_symmetry_equiv_pos_as_xyz
1 x,y,z
2 1/2-x,-y,1/2+z
3 -x,1/2+y,1/2-z
4 1/2+x,1/2-y,-z
5 -x,-y,-z
6 1/2+x,y,1/2-z
7 x,1/2-y,1/2+z
8 1/2-x,1/2+y,z
_cell_length_a                   25.0768(17)
_cell_length_b                   19.0144(13)
_cell_length_c                   29.281(2)
_cell_angle_alpha                90
_cell_angle_beta                 90
_cell_angle_gamma                90
_cell_volume                     13961.8
loop_
_atom_site_label
_atom_site_type_symbol
_atom_site_fract_x
_atom_site_fract_y
_atom_site_fract_z
B1 B 0.82299(8) 0.68981(11) 0.42037(7)
H1 H 0.7903 0.6643 0.4282
B2 B 0.95993(8) 0.87932(11) 0.17957(7)
H2 H 0.9878 0.9110 0.1909
C1 C 0.82078(8) 0.78932(10) 0.50983(6)
H3 H 0.8287 0.8253 0.4879
H4 H 0.8263 0.8074 0.5401
H5 H 0.7843 0.7749 0.5065
C2 C 0.85647(7) 0.72787(9) 0.50217(6)
C3 C 0.91456(7) 0.64639(9) 0.51044(6)
C4 C 0.95739(7) 0.60272(10) 0.53083(6)
C5 C 1.00587(8) 0.63374(11) 0.54209(6)
H6 H 1.0112 0.6813 0.5363
C6 C 1.04639(8) 0.59411(12) 0.56190(7)
H7 H 1.0791 0.6148 0.5687
C7 C 1.03777(9) 0.52423(12) 0.57134(7)
H8 H 1.0643 0.4979 0.5855
C8 C 0.98994(9) 0.49291(11) 0.55990(7)
H9 H 0.9845 0.4456 0.5664
C9 C 0.94985(8) 0.53146(10) 0.53869(6)
H10 H 0.9183 0.5097 0.5299
C10 C 0.70932(8) 0.76573(12) 0.42003(7)
H11 H 0.7096 0.7506 0.4513
H12 H 0.7039 0.7259 0.4005
H13 H 0.6810 0.7990 0.4155
C11 C 0.76137(8) 0.79946(10) 0.40881(6)
C12 C 0.82013(8) 0.87558(10) 0.39382(6)
C13 C 0.84624(8) 0.94403(10) 0.38729(6)
C14 C 0.81586(9) 1.00144(11) 0.37325(7)
H14 H 0.7802 0.9953 0.3656
C15 C 0.83858(11) 1.06763(12) 0.37062(8)
H15 H 0.8180 1.1057 0.3613
C16 C 0.89134(11) 1.07759(12) 0.38161(8)
H16 H 0.9061 1.1224 0.3805
C17 C 0.92251(10) 1.02076(12) 0.39433(8)
H17 H 0.9585 1.0272 0.4009
C18 C 0.90011(9) 0.95399(11) 0.39738(8)
H18 H 0.9210 0.9159 0.4062
C19 C 0.82177(9) 0.52874(11) 0.40256(8)
H19 H 0.8210 0.4840 0.3874
H20 H 0.7859 0.5450 0.4072
H21 H 0.8393 0.5240 0.4315
C20 C 0.85118(8) 0.58021(10) 0.37394(6)
C21 C 0.90403(7) 0.62525(10) 0.32616(6)
C22 C 0.93968(8) 0.63199(10) 0.28638(6)
C23 C 0.93266(9) 0.58463(11) 0.25025(7)
H22 H 0.9061 0.5506 0.2518
C24 C 0.96540(10) 0.58850(12) 0.21212(7)
H23 H 0.9607 0.5571 0.1881
C25 C 1.00509(9) 0.63906(12) 0.20981(7)
H24 H 1.0269 0.6417 0.1842
C26 C 1.01236(8) 0.68566(11) 0.24556(7)
H25 H 1.0390 0.7196 0.2439
C27 C 0.97998(8) 0.68189(10) 0.28388(7)
H26 H 0.9853 0.7129 0.3080
C28 C 1.01336(8) 0.79012(10) 0.39721(6)
C29 C 1.06068(8) 0.83040(11) 0.40013(7)
H27 H 1.0619 0.8745 0.3864
C30 C 1.10490(9) 0.80579(12) 0.42280(8)
H28 H 1.1360 0.8323 0.4241
C31 C 1.10206(8) 0.74025(11) 0.44385(7)
C32 C 1.05640(9) 0.69992(11) 0.44214(7)
H29 H 1.0554 0.6563 0.4565
C33 C 1.01220(8) 0.72439(11) 0.41901(7)
H30 H 0.9814 0.6971 0.4179
C34 C 0.95066(10) 1.04181(11) 0.17549(9)
H31 H 0.9418 1.0894 0.1676
H32 H 0.9871 1.0326 0.1676
H33 H 0.9459 1.0350 0.2077
C35 C 0.91524(8) 0.99279(10) 0.15004(7)
C36 C 0.85547(7) 0.95267(9) 0.10642(6)
C37 C 0.81215(7) 0.95377(10) 0.07219(6)
C38 C 0.80314(9) 1.01743(11) 0.04941(7)
H34 H 0.8238 1.0565 0.0565
C39 C 0.76380(9) 1.02273(12) 0.01642(8)
H35 H 0.7583 1.0651 0.0013
C40 C 0.73278(9) 0.96493(13) 0.00606(8)
H36 H 0.7061 0.9685 -0.0159
C41 C 0.74129(8) 0.90159(12) 0.02826(7)
H37 H 0.7205 0.8627 0.0209
C42 C 0.78074(8) 0.89579(11) 0.06144(7)
H38 H 0.7861 0.8532 0.0764
C43 C 1.08245(8) 0.84049(13) 0.17229(8)
H39 H 1.0799 0.8326 0.2046
H40 H 1.0796 0.8899 0.1661
H41 H 1.1161 0.8234 0.1614
C44 C 1.03846(8) 0.80253(11) 0.14866(7)
C45 C 0.99527(8) 0.72982(10) 0.10891(6)
C46 C 0.98074(9) 0.67169(11) 0.07784(7)
C47 C 1.01208(11) 0.65796(12) 0.03928(8)
H42 H 1.0432 0.6834 0.0341
C48 C 0.99619(14) 0.60591(14) 0.00892(8)
H43 H 1.0165 0.5971 -0.0170
C49 C 0.95073(14) 0.56732(14) 0.01692(9)
H44 H 0.9407 0.5324 -0.0036
C50 C 0.91989(12) 0.58004(13) 0.05524(9)
H45 H 0.8893 0.5536 0.0606
C51 C 0.93499(9) 0.63264(11) 0.08560(8)
H46 H 0.9143 0.6416 0.1113
C52 C 0.98226(9) 0.89781(12) 0.28629(7)
H47 H 1.0132 0.8685 0.2898
H48 H 0.9714 0.9151 0.3156
H49 H 0.9907 0.9367 0.2667
C53 C 0.93815(7) 0.85597(10) 0.26573(6)
C54 C 0.86985(7) 0.79011(9) 0.25529(6)
C55 C 0.82176(7) 0.74800(10) 0.26395(6)
C56 C 0.78240(8) 0.77271(12) 0.29317(7)
H50 H 0.7877 0.8142 0.3094
C57 C 0.73498(9) 0.73536(16) 0.29819(8)
H51 H 0.7082 0.7526 0.3171
C58 C 0.72771(10) 0.67306(15) 0.27515(8)
H52 H 0.6961 0.6481 0.2787
C59 C 0.76717(10) 0.64744(12) 0.24668(8)
H53 H 0.7624 0.6048 0.2317
C60 C 0.81379(9) 0.68522(10) 0.24041(7)
H54 H 0.8398 0.6687 0.2205
C61 C 0.78403(8) 0.73033(10) 0.13327(6)
C62 C 0.74619(8) 0.67616(10) 0.12588(6)
H55 H 0.7561 0.6364 0.1094
C63 C 0.69515(8) 0.68138(11) 0.14267(7)
H56 H 0.6704 0.6460 0.1372
C64 C 0.68101(8) 0.74064(11) 0.16806(7)
C65 C 0.71746(8) 0.79391(10) 0.17683(7)
H57 H 0.7077 0.8326 0.1944
C66 C 0.76828(8) 0.78883(10) 0.15931(6)
H58 H 0.7926 0.8248 0.1648
N1 N 0.89761(6) 0.63873(8) 0.46822(5)
N2 N 0.86035(6) 0.69180(8) 0.46306(5)
N3 N 0.89015(6) 0.70074(8) 0.53336(5)
N4 N 0.84669(6) 0.81457(8) 0.39520(5)
N5 N 0.80823(6) 0.76535(8) 0.40548(5)
N6 N 0.76730(7) 0.86818(9) 0.40148(5)
N7 N 0.88804(6) 0.67919(8) 0.35197(5)
N8 N 0.85267(6) 0.64959(8) 0.38231(5)
N9 N 0.88227(6) 0.56330(8) 0.33859(6)
N10 N 1.14792(8) 0.71360(10) 0.46838(6)
N11 N 0.92030(6) 0.92241(8) 0.15018(5)
N12 N 0.88093(6) 0.89574(8) 0.12194(5)
N13 N 0.87523(7) 1.01336(9) 0.12357(6)
N14 N 0.98643(6) 0.81986(8) 0.15193(5)
N15 N 0.95829(6) 0.77257(8) 0.12613(5)
N16 N 1.04528(7) 0.74656(9) 0.12178(6)
N17 N 0.88624(6) 0.80552(8) 0.21382(5)
N18 N 0.92991(6) 0.84793(8) 0.22089(5)
N19 N 0.90068(6) 0.82016(8) 0.28892(5)
N20 N 0.62733(7) 0.74758(11) 0.18532(7)
O1 O 0.97285(6) 0.81604(8) 0.37464(5)
O2 O 1.18963(6) 0.74779(10) 0.46733(6)
O3 O 1.14374(7) 0.65810(9) 0.48958(6)
O4 O 0.83228(5) 0.72358(7) 0.11616(4)
O5 O 0.59402(7) 0.70305(10) 0.17437(7)
O6 O 0.61615(7) 0.79840(10) 0.20983(7)
Zn1 Zn 0.906370(8) 0.782264(11) 0.353214(7)
Zn2 Zn 0.884206(8) 0.793145(11) 0.103216(7)
N3F N 0.89015(6) 0.79926(8) 0.03336(5)
Zn2F Zn 0.884206(8) 0.706855(11) 0.603216(7)
C67 C 0.75126(12) 0.98382(13) 0.18375(9)
H59 H 0.7604 0.9965 0.1541
C68 C 0.79136(14) 0.97430(15) 0.21669(10)
H60 H 0.8269 0.9806 0.2085
C69 C 0.77906(15) 0.95606(17) 0.26007(11)
H61 H 0.8057 0.9496 0.2817
C70 C 0.72610(14) 0.94724(15) 0.27145(11)
H62 H 0.7176 0.9353 0.3014
C71 C 0.68586(14) 0.95525(14) 0.24078(11)
H63 H 0.6506 0.9483 0.2495
C72 C 0.69850(13) 0.97443(15) 0.19511(12)
C73 C 0.65661(18) 0.9833(2) 0.16043(16)
H64 H 0.6474 1.0321 0.1580
H65 H 0.6257 0.9567 0.1692
H66 H 0.6694 0.9667 0.1315
loop_
_geom_bond_atom_site_label_1
_geom_bond_atom_site_label_2
_geom_bond_site_symmetry_1
_geom_bond_site_symmetry_2
B1 H1 1_555 1_555
B2 H2 1_555 1_555
C1 H3 1_555 1_555
H4 C1 1_555 1_555
H5 C1 1_555 1_555
C2 C1 1_555 1_555
C3 C4 1_555 1_555
C4 C5 1_555 1_555
C5 H6 1_555 1_555
C6 C5 1_555 1_555
H7 C6 1_555 1_555
C7 C6 1_555 1_555
H8 C7 1_555 1_555
C8 C7 1_555 1_555
H9 C8 1_555 1_555
C9 C4 1_555 1_555
H10 C9 1_555 1_555
C10 H11 1_555 1_555
H12 C10 1_555 1_555
H13 C10 1_555 1_555
C11 C10 1_555 1_555
C12 C13 1_555 1_555
C13 C14 1_555 1_555
C14 H14 1_555 1_555
C15 C14 1_555 1_555
H15 C15 1_555 1_555
C16 C15 1_555 1_555
H16 C16 1_555 1_555
C17 C16 1_555 1_555
H17 C17 1_555 1_555
C18 C13 1_555 1_555
H18 C18 1_555 1_555
C19 H19 1_555 1_555
H20 C19 1_555 1_555
H21 C19 1_555 1_555
C20 C19 1_555 1_555
C21 C22 1_555 1_555
C22 C23 1_555 1_555
C23 H22 1_555 1_555
C24 C23 1_555 1_555
H23 C24 1_555 1_555
C25 C24 1_555 1_555
H24 C25 1_555 1_555
C26 C25 1_555 1_555
H25 C26 1_555 1_555
C27 C22 1_555 1_555
H26 C27 1_555 1_555
C28 C29 1_555 1_555
C29 H27 1_555 1_555
C30 C29 1_555 1_555
H28 C30 1_555 1_555
C31 C30 1_555 1_555
C32 C31 1_555 1_555
H29 C32 1_555 1_555
C33 C28 1_555 1_555
H30 C33 1_555 1_555
C34 H31 1_555 1_555
H32 C34 1_555 1_555
H33 C34 1_555 1_555
C35 C34 1_555 1_555
C36 C37 1_555 1_555
C37 C38 1_555 1_555
C38 H34 1_555 1_555
C39 C38 1_555 1_555
H35 C39 1_555 1_555
C40 C39 1_555 1_555
H36 C40 1_555 1_555
C41 C40 1_555 1_555
H37 C41 1_555 1_555
C42 C37 1_555 1_555
H38 C42 1_555 1_555
C43 H39 1_555 1_555
H40 C43 1_555 1_555
H41 C43 1_555 1_555
C44 C43 1_555 1_555
C45 C46 1_555 1_555
C46 C47 1_555 1_555
C47 H42 1_555 1_555
C48 C47 1_555 1_555
H43 C48 1_555 1_555
C49 C48 1_555 1_555
H44 C49 1_555 1_555
C50 C49 1_555 1_555
H45 C50 1_555 1_555
C51 C46 1_555 1_555
H46 C51 1_555 1_555
C52 H47 1_555 1_555
H48 C52 1_555 1_555
H49 C52 1_555 1_555
C53 C52 1_555 1_555
C54 C55 1_555 1_555
C55 C56 1_555 1_555
C56 H50 1_555 1_555
C57 C56 1_555 1_555
H51 C57 1_555 1_555
C58 C57 1_555 1_555
H52 C58 1_555 1_555
C59 C58 1_555 1_555
H53 C59 1_555 1_555
C60 C55 1_555 1_555
H54 C60 1_555 1_555
C61 C62 1_555 1_555
C62 H55 1_555 1_555
C63 C62 1_555 1_555
H56 C63 1_555 1_555
C64 C63 1_555 1_555
C65 C64 1_555 1_555
H57 C65 1_555 1_555
C66 C61 1_555 1_555
H58 C66 1_555 1_555
C67 H59 1_555 1_555
C68 C67 1_555 1_555
H60 C68 1_555 1_555
C69 C68 1_555 1_555
H61 C69 1_555 1_555
C70 C69 1_555 1_555
H62 C70 1_555 1_555
C71 C70 1_555 1_555
H63 C71 1_555 1_555
C72 C67 1_555 1_555
C73 C72 1_555 1_555
H64 C73 1_555 1_555
H65 C73 1_555 1_555
H66 C73 1_555 1_555
N1 C3 1_555 1_555
N2 B1 1_555 1_555
N3 C2 1_555 1_555
N4 C12 1_555 1_555
N5 B1 1_555 1_555
N6 C11 1_555 1_555
N7 C21 1_555 1_555
N8 B1 1_555 1_555
N9 C20 1_555 1_555
N10 C31 1_555 1_555
N11 B2 1_555 1_555
N12 C36 1_555 1_555
N13 C35 1_555 1_555
N14 B2 1_555 1_555
N15 C45 1_555 1_555
N16 C44 1_555 1_555
N17 C54 1_555 1_555
N18 B2 1_555 1_555
N19 C53 1_555 1_555
N20 C64 1_555 1_555
O1 C28 1_555 1_555
O2 N10 1_555 1_555
O3 N10 1_555 1_555
O4 C61 1_555 1_555
O5 N20 1_555 1_555
O6 N20 1_555 1_555
Zn1 N4 1_555 1_555
Zn2 N12 1_555 1_555
N3F Zn2 1_555 1_555
Zn2F N3 1_555 1_555
C2 N2 1_555 1_555
C3 N3 1_555 1_555
C8 C9 1_555 1_555
C11 N5 1_555 1_555
C12 N6 1_555 1_555
C17 C18 1_555 1_555
C20 N8 1_555 1_555
C21 N9 1_555 1_555
C26 C27 1_555 1_555
C32 C33 1_555 1_555
C35 N11 1_555 1_555
C36 N13 1_555 1_555
C41 C42 1_555 1_555
C44 N14 1_555 1_555
C45 N16 1_555 1_555
C50 C51 1_555 1_555
C53 N18 1_555 1_555
C54 N19 1_555 1_555
C59 C60 1_555 1_555
C65 C66 1_555 1_555
C71 C72 1_555 1_555
N1 N2 1_555 1_555
N4 N5 1_555 1_555
N7 N8 1_555 1_555
N7 Zn1 1_555 1_555
N11 N12 1_555 1_555
N14 N15 1_555 1_555
N15 Zn2 1_555 1_555
N17 N18 1_555 1_555
N19 Zn1 1_555 1_555
O1 Zn1 1_555 1_555
O4 Zn2 1_555 1_555

#END
