
#######################################################################
#
#                 Cambridge Crystallographic Data Centre
#                                CCDC 
#
#######################################################################
#
# If this CIF has been generated from an entry in the Cambridge 
# Structural Database, then it will include bibliographic, chemical, 
# crystal, experimental, refinement or atomic coordinate data resulting 
# from the CCDC's data processing and validation procedures.
#
#######################################################################

data_OVAXUF
_symmetry_cell_setting           monoclinic
_symmetry_space_group_name_H-M   'P 21/n'
_symmetry_Int_Tables_number      14
_space_group_name_Hall           '-P 2yn'
loop_
_symmetry_equiv_pos_site_id
_symmetry_equiv_pos_as_xyz
1 x,y,z
2 1/2-x,1/2+y,1/2-z
3 -x,-y,-z
4 1/2+x,1/2-y,1/2+z
_cell_length_a                   6.0768(3)
_cell_length_b                   11.3318(5)
_cell_length_c                   20.4038(10)
_cell_angle_alpha                90
_cell_angle_beta                 86.644(6)
_cell_angle_gamma                90
_cell_volume                     1402.62
loop_
_atom_site_label
_atom_site_type_symbol
_atom_site_fract_x
_atom_site_fract_y
_atom_site_fract_z
I1 I 0.30805(3) 0.946266(19) 0.250962(9)
S1 S 0.07012(11) 0.75171(6) 0.13817(3)
S2 S -0.30056(11) 0.72919(6) 0.43447(3)
O1 O 0.3095(3) 0.74261(18) 0.13639(9)
O2 O -0.0038(3) 0.86533(19) 0.11406(9)
O3 O -0.0288(3) 0.65091(19) 0.10653(9)
O4 O -0.2751(3) 0.60826(18) 0.45655(9)
O5 O -0.1799(3) 0.8152(2) 0.47046(9)
O6 O -0.5357(4) 0.75728(18) 0.43087(10)
C1 C -0.0248(5) 0.7456(2) 0.22246(13)
C2 C 0.0611(5) 0.8188(3) 0.26991(13)
C3 C -0.0229(5) 0.8122(3) 0.33464(13)
H1 H 0.0351 0.8614 0.3671
C4 C -0.1907(5) 0.7338(2) 0.35171(13)
C5 C -0.2784(5) 0.6602(3) 0.30512(14)
H2 H -0.3941 0.6068 0.3173
C6 C -0.1938(4) 0.6664(3) 0.24065(13)
H3 H -0.2513 0.6163 0.2085
Cu1 Cu 0.0000 0.5000 0.5000
O7 O -0.0999(4) 0.3680(2) 0.44637(11)
H4 H -0.222(7) 0.381(4) 0.4307(18)
H5 H -0.026(7) 0.351(4) 0.420(2)
O8 O 0.2176(4) 0.5486(2) 0.42936(11)
H6 H 0.310(7) 0.501(4) 0.4244(18)
H7 H 0.257(7) 0.606(4) 0.435(2)
Cu2 Cu 0.0000 1.0000 0.5000
O9 O -0.0698(4) 1.0704(2) 0.41695(10)
H8 H -0.219(7) 1.103(3) 0.4106(18)
H9 H 0.005(7) 1.099(4) 0.400(2)
O10 O 0.2937(4) 0.9656(2) 0.46255(12)
H10 H 0.331(8) 0.917(4) 0.459(2)
H11 H 0.359(8) 1.010(5) 0.446(2)
I1B I -0.30805(3) 0.053734(19) 0.749038(9)
S1B S -0.07012(11) 0.24829(6) 0.86183(3)
S2B S 0.30056(11) 0.27081(6) 0.56553(3)
O1B O -0.3095(3) 0.25739(18) 0.86361(9)
O2B O 0.0038(3) 0.13467(19) 0.88594(9)
O3B O 0.0288(3) 0.34909(19) 0.89347(9)
O4B O 0.2751(3) 0.39174(18) 0.54345(9)
O5B O 0.1799(3) 0.1848(2) 0.52954(9)
O5B_2 O 0.1799(3) 1.1848(2) 0.52954(9)
O6B O 0.5357(4) 0.24272(18) 0.56913(10)
C1B C 0.0248(5) 0.2544(2) 0.77754(13)
C2B C -0.0611(5) 0.1812(3) 0.73009(13)
C3B C 0.0229(5) 0.1878(3) 0.66536(13)
H1B H -0.0351 0.1386 0.6329
C4B C 0.1907(5) 0.2662(2) 0.64829(13)
C5B C 0.2784(5) 0.3398(3) 0.69488(14)
H2B H 0.3941 0.3932 0.6827
C6B C 0.1938(4) 0.3336(3) 0.75935(13)
H3B H 0.2513 0.3837 0.7915
O7B O 0.0999(4) 0.6320(2) 0.55363(11)
H4B H 0.222(7) 0.619(4) 0.5693(18)
H5B H 0.026(7) 0.649(4) 0.580(2)
O8B O -0.2176(4) 0.4514(2) 0.57064(11)
H6B H -0.310(7) 0.499(4) 0.5756(18)
H7B H -0.257(7) 0.394(4) 0.565(2)
Cu2_2 Cu 0.0000 0.0000 0.5000
O9B O 0.0698(4) 0.9296(2) 0.58305(10)
H8B H 0.219(7) 0.897(3) 0.5894(18)
H9B H -0.005(7) 0.901(4) 0.600(2)
O10B O -0.2937(4) 1.0344(2) 0.53745(12)
H10B H -0.331(8) 1.083(4) 0.541(2)
H11B H -0.359(8) 0.990(5) 0.554(2)
loop_
_geom_bond_atom_site_label_1
_geom_bond_atom_site_label_2
_geom_bond_site_symmetry_1
_geom_bond_site_symmetry_2
I1 C2 1_555 1_555
S1 O1 1_555 1_555
S2 O4 1_555 1_555
O2 S1 1_555 1_555
O3 S1 1_555 1_555
O4 Cu1 1_555 1_555
O5 S2 1_555 1_555
O6 S2 1_555 1_555
C1 S1 1_555 1_555
C2 C1 1_555 1_555
C3 C2 1_555 1_555
H1 C3 1_555 1_555
C4 S2 1_555 1_555
C5 C4 1_555 1_555
H2 C5 1_555 1_555
C6 C1 1_555 1_555
H3 C6 1_555 1_555
Cu1 O7 1_555 1_555
O7 H4 1_555 1_555
H5 O7 1_555 1_555
O8 Cu1 1_555 1_555
H6 O8 1_555 1_555
H7 O8 1_555 1_555
Cu2 O5 1_555 1_555
O9 Cu2 1_555 1_555
H8 O9 1_555 1_555
H9 O9 1_555 1_555
O10 Cu2 1_555 1_555
H10 O10 1_555 1_555
H11 O10 1_555 1_555
I1B C2B 1_555 1_555
S1B O1B 1_555 1_555
S2B O4B 1_555 1_555
O2B S1B 1_555 1_555
O3B S1B 1_555 1_555
O4B Cu1 1_555 1_555
O5B S2B 1_555 1_555
O5B_2 Cu2 1_555 1_555
O6B S2B 1_555 1_555
C1B S1B 1_555 1_555
C2B C1B 1_555 1_555
C3B C2B 1_555 1_555
H1B C3B 1_555 1_555
C4B S2B 1_555 1_555
C5B C4B 1_555 1_555
H2B C5B 1_555 1_555
C6B C1B 1_555 1_555
H3B C6B 1_555 1_555
O7B Cu1 1_555 1_555
H4B O7B 1_555 1_555
H5B O7B 1_555 1_555
O8B Cu1 1_555 1_555
H6B O8B 1_555 1_555
H7B O8B 1_555 1_555
Cu2_2 O5B 1_555 1_555
O9B Cu2 1_555 1_555
H8B O9B 1_555 1_555
H9B O9B 1_555 1_555
O10B Cu2 1_555 1_555
H10B O10B 1_555 1_555
H11B O10B 1_555 1_555
C3 C4 1_555 1_555
C5 C6 1_555 1_555
C3B C4B 1_555 1_555
C5B C6B 1_555 1_555

#END
