
#######################################################################
#
#                 Cambridge Crystallographic Data Centre
#                                CCDC 
#
#######################################################################
#
# If this CIF has been generated from an entry in the Cambridge 
# Structural Database, then it will include bibliographic, chemical, 
# crystal, experimental, refinement or atomic coordinate data resulting 
# from the CCDC's data processing and validation procedures.
#
#######################################################################

data_OVAYUG
_symmetry_cell_setting           triclinic
_symmetry_space_group_name_H-M   'P -1'
_symmetry_Int_Tables_number      2
_space_group_name_Hall           '-P 1'
loop_
_symmetry_equiv_pos_site_id
_symmetry_equiv_pos_as_xyz
1 x,y,z
2 -x,-y,-z
_cell_length_a                   8.451(3)
_cell_length_b                   9.032(4)
_cell_length_c                   13.264(5)
_cell_angle_alpha                79.914(6)
_cell_angle_beta                 89.183(7)
_cell_angle_gamma                81.247(7)
_cell_volume                     985.099
loop_
_atom_site_label
_atom_site_type_symbol
_atom_site_fract_x
_atom_site_fract_y
_atom_site_fract_z
C1 C 0.7590(6) 0.6474(5) 1.0124(4)
H1 H 0.7710 0.7391 1.0319
C2 C -0.0125(6) 0.7194(7) 0.5675(4)
H2 H -0.0582 0.7196 0.6317
C3 C 0.7850(5) 0.3979(5) 1.0451(3)
C4 C -0.0279(5) 0.6971(5) 0.4063(3)
C5 C 0.1226(5) 0.7347(5) 0.3842(3)
C6 C 0.7197(5) 0.3924(5) 0.9515(3)
C7 C 0.2107(5) 0.7600(5) 0.4684(3)
C8 C 0.6704(5) 0.5322(5) 0.8861(3)
C9 C 0.0234(5) 0.6989(5) 0.2450(3)
H3 H 0.0097 0.6916 0.1767
C10 C 0.7793(5) 0.1608(5) 1.0303(3)
H4 H 0.7925 0.0551 1.0461
C11 C 0.9032(6) 0.1996(5) 1.1944(3)
H5 H 0.8323 0.1487 1.2421
H6 H 0.9260 0.2878 1.2209
C12 C -0.2468(5) 0.6366(5) 0.3038(3)
H7 H -0.2882 0.6011 0.3709
H8 H -0.2414 0.5549 0.2646
C13 C 1.0594(5) 0.0916(5) 1.1887(3)
C14 C -0.3619(5) 0.7723(5) 0.2505(3)
C15 C 0.4537(5) 0.8085(5) 0.5477(3)
H9 H 0.3879 0.8781 0.5848
H10 H 0.5466 0.8545 0.5231
C16 C 0.5086(6) 0.6600(5) 0.6204(3)
H11 H 0.5973 0.6020 0.5903
H12 H 0.4217 0.6002 0.6301
C17 C 0.5610(5) 0.6885(5) 0.7240(3)
H13 H 0.6518 0.7435 0.7153
H14 H 0.4742 0.7502 0.7532
N1 N 0.6919(5) 0.6603(4) 0.9199(3)
N2 N 0.1377(5) 0.7523(5) 0.5590(3)
N3 N -0.1041(5) 0.6868(5) 0.4965(3)
N4 N 0.8111(5) 0.5243(4) 1.0806(3)
N5 N 0.6052(4) 0.5437(4) 0.7930(3)
H15 H 0.5886 0.4618 0.7730
N6 N 0.3625(4) 0.7871(5) 0.4603(3)
H16 H 0.4075 0.7921 0.4015
N7 N 0.7170(4) 0.2409(4) 0.9424(3)
N8 N 0.1531(4) 0.7379(4) 0.2798(3)
N9 N 0.8215(4) 0.2505(4) 1.0947(3)
N10 N -0.0872(4) 0.6706(4) 0.3159(3)
O1 O -0.5082(3) 0.7515(3) 0.2546(2)
O2 O 1.1540(4) 0.0616(3) 1.2648(2)
O3 O -0.3092(4) 0.8875(4) 0.2048(3)
O4 O 1.0851(4) 0.0296(3) 1.1111(2)
O5 O 0.5733(4) -0.0370(3) 0.8918(2)
Co1 Co 0.71049(6) 0.11866(6) 0.82051(4)
N8A N 0.8469(4) 0.2621(4) 0.7202(3)
O1A O 0.5082(3) 0.2485(3) 0.7454(2)
O2A O 0.8460(4) -0.0616(3) 0.7352(2)
O4A O 0.9149(4) -0.0296(3) 0.8889(2)
Co1A Co 0.28951(6) 0.88134(6) 0.17949(4)
Co1A_2 Co -0.71049(6) 0.88134(6) 0.17949(4)
Co1A_3 Co 1.28951(6) -0.11866(6) 1.17949(4)
loop_
_geom_bond_atom_site_label_1
_geom_bond_atom_site_label_2
_geom_bond_site_symmetry_1
_geom_bond_site_symmetry_2
C1 H1 1_555 1_555
C2 H2 1_555 1_555
C3 C6 1_555 1_555
C4 C5 1_555 1_555
C5 C7 1_555 1_555
C6 C8 1_555 1_555
C7 N2 1_555 1_555
C8 N1 1_555 1_555
C9 H3 1_555 1_555
C10 H4 1_555 1_555
C11 H5 1_555 1_555
H6 C11 1_555 1_555
C12 H7 1_555 1_555
H8 C12 1_555 1_555
C13 C11 1_555 1_555
C14 C12 1_555 1_555
C15 H9 1_555 1_555
H10 C15 1_555 1_555
C16 C15 1_555 1_555
H11 C16 1_555 1_555
H12 C16 1_555 1_555
C17 C16 1_555 1_555
H13 C17 1_555 1_555
H14 C17 1_555 1_555
N1 C1 1_555 1_555
N2 C2 1_555 1_555
N3 C2 1_555 1_555
N4 C1 1_555 1_555
N5 C8 1_555 1_555
H15 N5 1_555 1_555
N6 C7 1_555 1_555
H16 N6 1_555 1_555
N7 C6 1_555 1_555
N8 C5 1_555 1_555
N9 C3 1_555 1_555
N10 C4 1_555 1_555
O1 C14 1_555 1_555
O2 C13 1_555 1_555
O3 C14 1_555 1_555
O4 C13 1_555 1_555
O5 Co1 1_555 1_555
Co1 N7 1_555 1_555
N8A Co1 1_555 1_555
O1A Co1 1_555 1_555
O2A Co1 1_555 1_555
O4A Co1 1_555 1_555
Co1A N8 1_555 1_555
Co1A_2 O1 1_555 1_555
Co1A_3 O2 1_555 1_555
C3 N4 1_555 1_555
C4 N3 1_555 1_555
C9 N8 1_555 1_555
C9 N10 1_555 1_555
C10 N7 1_555 1_555
C10 N9 1_555 1_555
C11 N9 1_555 1_555
C12 N10 1_555 1_555
C15 N6 1_555 1_555
C17 N5 1_555 1_555
O4 Co1A_3 1_555 1_555

#END
