
#######################################################################
#
#                 Cambridge Crystallographic Data Centre
#                                CCDC 
#
#######################################################################
#
# If this CIF has been generated from an entry in the Cambridge 
# Structural Database, then it will include bibliographic, chemical, 
# crystal, experimental, refinement or atomic coordinate data resulting 
# from the CCDC's data processing and validation procedures.
#
#######################################################################

data_OVAZOB
_symmetry_cell_setting           orthorhombic
_symmetry_space_group_name_H-M   'P 21 21 2'
_symmetry_Int_Tables_number      18
_space_group_name_Hall           'P 2 2ab'
loop_
_symmetry_equiv_pos_site_id
_symmetry_equiv_pos_as_xyz
1 x,y,z
2 -x,-y,z
3 1/2-x,1/2+y,-z
4 1/2+x,1/2-y,-z
_cell_length_a                   23.234(6)
_cell_length_b                   5.1735(12)
_cell_length_c                   11.294(3)
_cell_angle_alpha                90
_cell_angle_beta                 90
_cell_angle_gamma                90
_cell_volume                     1357.55
loop_
_atom_site_label
_atom_site_type_symbol
_atom_site_fract_x
_atom_site_fract_y
_atom_site_fract_z
Cu1 Cu 0.73724(5) 0.97332(18) 0.70654(9)
O1 O 0.7255(3) 0.7096(11) 0.5398(5)
O2 O 0.6992(3) 0.6804(16) 0.3516(5)
O3 O 0.6697(3) 0.7803(13) 0.7668(6)
O4 O 0.5906(3) 0.6256(14) 0.6879(7)
N1 N 0.6764(4) 1.1866(17) 0.6294(7)
H1 H 0.6642 1.3118 0.6787
H2 H 0.6899 1.2605 0.5629
N2 N 0.7895(3) 0.8281(15) 0.8281(6)
N3 N 0.8593(3) 0.8214(16) 0.9537(7)
C1 C 0.6920(4) 0.7522(19) 0.4567(9)
C2 C 0.6378(5) 0.908(2) 0.4780(9)
H3 H 0.6380 1.0547 0.4243
H4 H 0.6049 0.8016 0.4575
C3 C 0.6292(4) 1.008(2) 0.6016(8)
H5 H 0.5925 1.1005 0.6062
C4 C 0.6296(4) 0.7867(18) 0.6929(9)
C5 C 0.7799(5) 0.625(2) 0.9038(9)
H6 H 0.7488 0.5123 0.9009
C6 C 0.8236(5) 0.616(2) 0.9837(8)
H7 H 0.8285 0.4984 1.0451
C7 C 0.8368(4) 0.9348(19) 0.8608(8)
H8 H 0.8532 1.0764 0.8229
C8 C 0.9113(5) 0.898(2) 1.0191(10)
H9 H 0.9009 0.9364 1.1004
H10 H 0.9268 1.0544 0.9842
C9 C 0.9574(4) 0.691(2) 1.0187(8)
C10 C 0.9788(4) 0.594(2) 1.1223(10)
H11 H 0.9646 0.6546 1.1941
C11 C 0.9788(5) 0.591(2) 0.9134(10)
H12 H 0.9641 0.6499 0.8417
Cu1A Cu 1.26276(5) 0.02668(18) 0.70654(9)
Cu1B Cu 0.76276(5) 0.47332(18) 0.29346(9)
Cu1C Cu 1.23724(5) 0.52668(18) 0.29346(9)
O1A O 1.2745(3) 0.2904(11) 0.5398(5)
O2A O 1.3008(3) 0.3196(16) 0.3516(5)
O2B O 0.8008(3) 1.1804(16) 0.6484(5)
O2C O 1.1992(3) -0.1804(16) 0.6484(5)
O3A O 1.3303(3) 0.2197(13) 0.7668(6)
O4A O 1.4094(3) 0.3744(14) 0.6879(7)
N1A N 1.3236(4) -0.1866(17) 0.6294(7)
H1A H 1.3358 -0.3118 0.6787
H2A H 1.3101 -0.2605 0.5629
N2A N 1.2105(3) 0.1719(15) 0.8281(6)
N3A N 1.1407(3) 0.1786(16) 0.9537(7)
C1A C 1.3080(4) 0.2478(19) 0.4567(9)
C2A C 1.3622(5) 0.092(2) 0.4780(9)
H3A H 1.3620 -0.0547 0.4243
H4A H 1.3951 0.1984 0.4575
C3A C 1.3708(4) -0.008(2) 0.6016(8)
H5A H 1.4075 -0.1005 0.6062
C4A C 1.3704(4) 0.2133(18) 0.6929(9)
C5A C 1.2201(5) 0.375(2) 0.9038(9)
H6A H 1.2512 0.4877 0.9009
C6A C 1.1764(5) 0.384(2) 0.9837(8)
H7A H 1.1715 0.5016 1.0451
C7A C 1.1632(4) 0.0652(19) 0.8608(8)
H8A H 1.1468 -0.0764 0.8229
C8A C 1.0887(5) 0.102(2) 1.0191(10)
H9A H 1.0991 0.0636 1.1004
H10A H 1.0732 -0.0544 0.9842
C9A C 1.0426(4) 0.309(2) 1.0187(8)
C10A C 1.0212(4) 0.406(2) 1.1223(10)
H11A H 1.0354 0.3454 1.1941
C11A C 1.0212(5) 0.409(2) 0.9134(10)
H12A H 1.0359 0.3501 0.8417
O5 O 0.5000 0.5000 0.5491(14)
O6 O 0.5000 0.0000 0.380(2)
loop_
_geom_bond_atom_site_label_1
_geom_bond_atom_site_label_2
_geom_bond_site_symmetry_1
_geom_bond_site_symmetry_2
Cu1 O1 1_555 1_555
O1 C1 1_555 1_555
O2 C1 1_555 1_555
O3 Cu1 1_555 1_555
O4 C4 1_555 1_555
N1 Cu1 1_555 1_555
H1 N1 1_555 1_555
H2 N1 1_555 1_555
N2 Cu1 1_555 1_555
N3 C6 1_555 1_555
C1 C2 1_555 1_555
C2 H3 1_555 1_555
H4 C2 1_555 1_555
C3 N1 1_555 1_555
H5 C3 1_555 1_555
C4 O3 1_555 1_555
C5 N2 1_555 1_555
H6 C5 1_555 1_555
C6 C5 1_555 1_555
H7 C6 1_555 1_555
C7 N2 1_555 1_555
H8 C7 1_555 1_555
C8 N3 1_555 1_555
H9 C8 1_555 1_555
H10 C8 1_555 1_555
C9 C8 1_555 1_555
C10 C9 1_555 1_555
H11 C10 1_555 1_555
C11 C9 1_555 1_555
H12 C11 1_555 1_555
Cu1A O1A 1_555 1_555
Cu1B O2 1_555 1_555
Cu1C O2A 1_555 1_555
O1A C1A 1_555 1_555
O2A C1A 1_555 1_555
O2B Cu1 1_555 1_555
O2C Cu1A 1_555 1_555
O3A Cu1A 1_555 1_555
O4A C4A 1_555 1_555
N1A Cu1A 1_555 1_555
H1A N1A 1_555 1_555
H2A N1A 1_555 1_555
N2A Cu1A 1_555 1_555
N3A C6A 1_555 1_555
C1A C2A 1_555 1_555
C2A H3A 1_555 1_555
H4A C2A 1_555 1_555
C3A N1A 1_555 1_555
H5A C3A 1_555 1_555
C4A O3A 1_555 1_555
C5A N2A 1_555 1_555
H6A C5A 1_555 1_555
C6A C5A 1_555 1_555
H7A C6A 1_555 1_555
C7A N2A 1_555 1_555
H8A C7A 1_555 1_555
C8A N3A 1_555 1_555
H9A C8A 1_555 1_555
H10A C8A 1_555 1_555
C9A C8A 1_555 1_555
C10A C10 1_555 1_555
H11A C10A 1_555 1_555
C11A C11 1_555 1_555
H12A C11A 1_555 1_555
N3 C7 1_555 1_555
C2 C3 1_555 1_555
C3 C4 1_555 1_555
N3A C7A 1_555 1_555
C2A C3A 1_555 1_555
C3A C4A 1_555 1_555
C9A C10A 1_555 1_555
C9A C11A 1_555 1_555

#END
