
#######################################################################
#
#                 Cambridge Crystallographic Data Centre
#                                CCDC 
#
#######################################################################
#
# If this CIF has been generated from an entry in the Cambridge 
# Structural Database, then it will include bibliographic, chemical, 
# crystal, experimental, refinement or atomic coordinate data resulting 
# from the CCDC's data processing and validation procedures.
#
#######################################################################

data_OVECOI
_symmetry_cell_setting           triclinic
_symmetry_space_group_name_H-M   'P -1'
_symmetry_Int_Tables_number      2
_space_group_name_Hall           '-P 1'
loop_
_symmetry_equiv_pos_site_id
_symmetry_equiv_pos_as_xyz
1 x,y,z
2 -x,-y,-z
_cell_length_a                   9.602(3)
_cell_length_b                   11.394(3)
_cell_length_c                   14.200(4)
_cell_angle_alpha                79.385(3)
_cell_angle_beta                 83.276(3)
_cell_angle_gamma                65.372(3)
_cell_volume                     1386.65
loop_
_atom_site_label
_atom_site_type_symbol
_atom_site_fract_x
_atom_site_fract_y
_atom_site_fract_z
Cu1 Cu 0.52404(7) 0.59733(6) 0.06715(5)
O1 O 0.3513(4) 0.5931(4) 0.0072(3)
O2 O 0.2122(5) 0.7886(4) 0.0471(4)
O3 O -0.2894(4) 0.5842(4) 0.1179(3)
O4 O -0.4424(4) 0.7575(4) 0.1844(3)
N1 N 0.4694(5) 0.5116(5) 0.1938(4)
N2 N 0.4425(6) 0.2238(5) 0.5109(3)
N3 N 0.5882(6) 0.0802(5) 0.6886(4)
H1 H 0.529(7) 0.145(5) 0.722(4)
N4 N 0.5630(5) -0.2828(5) 0.9537(3)
C1 C 0.2251(6) 0.6926(5) 0.0116(4)
C2 C -0.3128(6) 0.6736(5) 0.1662(4)
C3 C 0.3405(7) 0.5775(6) 0.2430(5)
H2 H 0.2794 0.6655 0.2180
C4 C 0.2934(7) 0.5227(7) 0.3281(5)
H3 H 0.2009 0.5724 0.3605
C5 C 0.5567(7) 0.3889(6) 0.2327(4)
H4 H 0.6506 0.3420 0.2003
C6 C 0.5149(7) 0.3281(6) 0.3183(5)
H5 H 0.5787 0.2409 0.3432
C7 C 0.3808(7) 0.3951(6) 0.3667(4)
C8 C 0.3217(8) 0.3325(7) 0.4558(5)
H6 H 0.2639 0.3997 0.4975
H7 H 0.2493 0.3001 0.4373
C9 C 0.3745(7) 0.1498(6) 0.5818(4)
H8 H 0.3146 0.1183 0.5486
H9 H 0.3032 0.2081 0.6261
C10 C 0.4941(8) 0.0355(6) 0.6384(5)
H10 H 0.5617 -0.0260 0.5949
H11 H 0.4439 -0.0111 0.6863
C11 C 0.6547(7) 0.1589(6) 0.6166(5)
H12 H 0.7279 0.1025 0.5719
H13 H 0.7113 0.1934 0.6499
C12 C 0.5295(7) 0.2705(6) 0.5611(4)
H14 H 0.4593 0.3290 0.6056
H15 H 0.5753 0.3215 0.5139
C13 C 0.7141(7) -0.0298(6) 0.7454(5)
H16 H 0.7669 0.0074 0.7793
H17 H 0.7902 -0.0841 0.7007
C14 C 0.7293(7) -0.2510(6) 0.8226(4)
H18 H 0.8121 -0.2886 0.7787
C15 C 0.6555(7) -0.1155(6) 0.8179(5)
C16 C 0.5342(8) -0.0677(6) 0.8825(5)
H19 H 0.4813 0.0238 0.8823
C17 C 0.6808(7) -0.3286(6) 0.8912(5)
H20 H 0.7341 -0.4206 0.8946
C18 C 0.4900(7) -0.1526(6) 0.9471(4)
H21 H 0.4035 -0.1175 0.9893
C19 C -0.1708(7) 0.6751(7) 0.2022(5)
H22 H -0.1436 0.6143 0.2633
H23 H -0.1950 0.7639 0.2158
C20 C -0.0323(7) 0.6366(7) 0.1316(5)
H24 H 0.0581 0.6304 0.1627
H25 H -0.0103 0.5491 0.1163
C21 C -0.0542(6) 0.7316(6) 0.0389(4)
H26 H -0.0753 0.8192 0.0536
H27 H -0.1442 0.7380 0.0072
C22 C 0.0875(7) 0.6889(7) -0.0300(5)
H28 H 0.1126 0.5992 -0.0419
H29 H 0.0646 0.7477 -0.0921
Cu1A Cu 0.47596(7) 0.40267(6) -0.06715(5)
Cu1_2 Cu -0.47596(7) 0.59733(6) 0.06715(5)
Cu1_3 Cu 0.52404(7) -0.40267(6) 1.06715(5)
O1A O 0.6487(4) 0.4069(4) -0.0072(3)
O3_2 O 0.7106(4) 0.5842(4) 0.1179(3)
N4_2 N 0.5630(5) 0.7172(5) -0.0463(3)
O5 O 1.0022(12) -0.3843(16) 0.6413(8)
O6 O 1.156(2) -0.3303(16) 0.5370(13)
O7 O 1.0952(14) -0.2379(15) 0.6676(15)
O10 O 0.9263(13) -0.1785(13) 0.5600(8)
Cl1 Cl 1.0575(6) -0.2701(6) 0.5935(6)
O9 O 1.0042(12) 0.9894(10) -0.1068(9)
O11 O 0.1799(19) -0.0471(18) 0.7251(17)
O8? O 0.114(3) 0.026(3) 0.629(3)
Cl2? Cl 1.1040(18) -0.349(2) 0.6160(12)
O12? O 1.241(4) -0.431(5) 0.612(5)
O13? O -0.024(2) 0.2047(18) 0.6563(15)
loop_
_geom_bond_atom_site_label_1
_geom_bond_atom_site_label_2
_geom_bond_site_symmetry_1
_geom_bond_site_symmetry_2
Cu1 O1 1_555 1_555
O1 C1 1_555 1_555
O2 C1 1_555 1_555
O3 C2 1_555 1_555
O4 C2 1_555 1_555
N1 Cu1 1_555 1_555
N2 C8 1_555 1_555
N3 H1 1_555 1_555
N4 C17 1_555 1_555
C1 C22 1_555 1_555
C2 C19 1_555 1_555
C3 N1 1_555 1_555
H2 C3 1_555 1_555
C4 C3 1_555 1_555
H3 C4 1_555 1_555
C5 N1 1_555 1_555
H4 C5 1_555 1_555
C6 C5 1_555 1_555
H5 C6 1_555 1_555
C7 C4 1_555 1_555
C8 C7 1_555 1_555
H6 C8 1_555 1_555
H7 C8 1_555 1_555
C9 N2 1_555 1_555
H8 C9 1_555 1_555
H9 C9 1_555 1_555
C10 N3 1_555 1_555
H10 C10 1_555 1_555
H11 C10 1_555 1_555
C11 N3 1_555 1_555
H12 C11 1_555 1_555
H13 C11 1_555 1_555
C12 N2 1_555 1_555
H14 C12 1_555 1_555
H15 C12 1_555 1_555
C13 N3 1_555 1_555
H16 C13 1_555 1_555
H17 C13 1_555 1_555
C14 H18 1_555 1_555
C15 C13 1_555 1_555
C16 C15 1_555 1_555
H19 C16 1_555 1_555
C17 C14 1_555 1_555
H20 C17 1_555 1_555
C18 N4 1_555 1_555
H21 C18 1_555 1_555
C19 H22 1_555 1_555
H23 C19 1_555 1_555
C20 C19 1_555 1_555
H24 C20 1_555 1_555
H25 C20 1_555 1_555
C21 C20 1_555 1_555
H26 C21 1_555 1_555
H27 C21 1_555 1_555
C22 C21 1_555 1_555
H28 C22 1_555 1_555
H29 C22 1_555 1_555
O5 Cl1 1_555 1_555
O6 Cl1 1_555 1_555
O7 Cl1 1_555 1_555
O10 Cl1 1_555 1_555
Cu1A O1 1_555 1_555
Cu1_2 O3 1_555 1_555
Cu1_3 N4 1_555 1_555
O1A Cu1 1_555 1_555
O3_2 Cu1 1_555 1_555
N4_2 Cu1 1_555 1_555
C6 C7 1_555 1_555
C9 C10 1_555 1_555
C11 C12 1_555 1_555
C14 C15 1_555 1_555
C16 C18 1_555 1_555
Cu1A O1A 1_555 1_555

#END
