
#######################################################################
#
#                 Cambridge Crystallographic Data Centre
#                                CCDC 
#
#######################################################################
#
# If this CIF has been generated from an entry in the Cambridge 
# Structural Database, then it will include bibliographic, chemical, 
# crystal, experimental, refinement or atomic coordinate data resulting 
# from the CCDC's data processing and validation procedures.
#
#######################################################################

data_OVECIC
_symmetry_cell_setting           triclinic
_symmetry_space_group_name_H-M   'P -1'
_symmetry_Int_Tables_number      2
_space_group_name_Hall           '-P 1'
loop_
_symmetry_equiv_pos_site_id
_symmetry_equiv_pos_as_xyz
1 x,y,z
2 -x,-y,-z
_cell_length_a                   8.5547(7)
_cell_length_b                   15.8060(12)
_cell_length_c                   16.6219(13)
_cell_angle_alpha                99.459(1)
_cell_angle_beta                 92.049(1)
_cell_angle_gamma                90.575(1)
_cell_volume                     2215.28
loop_
_atom_site_label
_atom_site_type_symbol
_atom_site_fract_x
_atom_site_fract_y
_atom_site_fract_z
Co1 Co 0.76891(5) 0.35256(3) 0.28458(2)
Co2 Co 0.73850(5) -0.15984(3) -0.24385(2)
O1 O 0.7197(2) -0.03380(13) -0.18525(13)
O2 O 0.9648(3) 0.01316(14) -0.15113(14)
O3 O 1.0036(2) 0.31950(14) 0.27788(13)
O4 O 1.2472(2) 0.28371(13) 0.30781(13)
O5 O 1.2041(3) 0.51996(14) 0.65728(13)
O6 O 1.4473(3) 0.47365(15) 0.64000(16)
O7 O 0.5004(2) 0.18859(13) 0.25004(12)
O8 O 0.7392(2) 0.22889(13) 0.22034(13)
O9 O 0.9815(3) -0.13511(14) -0.24646(14)
H1 H 0.997(4) -0.0875(14) -0.2140(18)
H2 H 1.049(3) -0.1718(17) -0.238(2)
O10 O 0.5263(3) 0.37366(14) 0.27746(14)
H3 H 0.517(4) 0.4243(13) 0.3053(19)
H4 H 0.453(3) 0.3436(18) 0.290(2)
N1 N 0.7626(3) -0.20333(16) -0.12575(15)
N2 N 0.7655(3) -0.19233(17) 0.18430(16)
N3 N 0.6728(3) -0.09531(18) 0.33734(16)
N4 N 0.7095(3) -0.11364(17) 0.64070(16)
N5 N 0.7563(3) 0.30736(16) 0.39936(15)
N6 N 0.7862(3) 0.39728(17) 1.16840(15)
N7 N 0.8160(3) 0.40470(18) 0.86262(16)
N8 N 0.7448(3) 0.30279(18) 0.70536(16)
C1 C 0.8417(4) -0.1566(2) -0.06219(19)
H5 H 0.9043 -0.1097 -0.0722
C2 C 0.8375(4) -0.1726(2) 0.01719(19)
H6 H 0.8952 -0.1373 0.0601
C3 C 0.7477(4) -0.2411(2) 0.03317(19)
C4 C 0.6679(4) -0.2905(2) -0.03263(19)
H7 H 0.6061 -0.3384 -0.0244
C5 C 0.6780(4) -0.2703(2) -0.10992(19)
H8 H 0.6227 -0.3053 -0.1539
C6 C 0.7383(4) -0.2638(2) 0.1175(2)
H9 H 0.8161 -0.3085 0.1234
H10 H 0.6334 -0.2888 0.1227
C7 C 0.6424(4) -0.1285(2) 0.18742(19)
H11 H 0.6424 -0.1025 0.1372
H12 H 0.5394 -0.1571 0.1895
C8 C 0.8022(4) -0.1547(2) 0.3319(2)
H13 H 0.9007 -0.1240 0.3245
H14 H 0.8134 -0.1790 0.3830
C9 C 0.6657(4) -0.0586(2) 0.26141(19)
H15 H 0.5781 -0.0179 0.2631
H16 H 0.7640 -0.0264 0.2568
C10 C 0.7720(4) -0.2257(2) 0.26099(19)
H17 H 0.6717 -0.2551 0.2677
H18 H 0.8564 -0.2683 0.2598
C11 C 0.6959(5) -0.0267(2) 0.4072(2)
H19 H 0.7962 0.0034 0.4021
H20 H 0.6111 0.0152 0.4060
C12 C 0.6980(4) -0.0577(2) 0.4883(2)
C13 C 0.6105(4) -0.1282(2) 0.5023(2)
H21 H 0.5449 -0.1590 0.4599
C14 C 0.6194(4) -0.1534(2) 0.57828(19)
H22 H 0.5581 -0.2015 0.5864
C15 C 0.7919(4) -0.0453(2) 0.6273(2)
H23 H 0.8550 -0.0150 0.6711
C16 C 0.7903(5) -0.0164(2) 0.5533(2)
H24 H 0.8527 0.0319 0.5471
C17 C 0.8200(4) 0.01958(19) -0.14679(18)
C18 C 0.7546(4) 0.0919(2) -0.08686(19)
H25 H 0.8302 0.1407 -0.0772
H26 H 0.6563 0.1119 -0.1102
C19 C 0.7224(4) 0.0624(2) -0.00606(19)
H27 H 0.8196 0.0389 0.0150
H28 H 0.6428 0.0156 -0.0159
C20 C 0.6655(4) 0.1336(2) 0.05802(19)
H29 H 0.7460 0.1799 0.0685
H30 H 0.5694 0.1578 0.0365
C21 C 0.6304(4) 0.1043(2) 0.13823(18)
H31 H 0.5301 0.0717 0.1318
H32 H 0.7136 0.0653 0.1518
C22 C 0.6199(4) 0.17903(19) 0.20827(18)
C23 C 1.1346(4) 0.33601(19) 0.31461(18)
C24 C 1.1637(4) 0.4223(2) 0.36816(19)
H33 H 1.0621 0.4504 0.3794
H34 H 1.2264 0.4590 0.3382
C25 C 1.2493(5) 0.4159(3) 0.4492(2)
H35 H 1.3414 0.3790 0.4379
H36 H 1.2886 0.4738 0.4740
C26 C 1.1554(5) 0.3816(3) 0.5090(2)
H37 H 1.1182 0.3233 0.4846
H38 H 1.0621 0.4178 0.5192
C27 C 1.2372(4) 0.3768(2) 0.59016(19)
H39 H 1.3237 0.3355 0.5814
H40 H 1.1623 0.3547 0.6261
C28 C 1.3025(4) 0.4629(2) 0.63254(18)
C29 C 0.6994(4) 0.4611(2) 1.1503(2)
H41 H 0.6377 0.4912 1.1917
C30 C 0.6937(4) 0.4864(2) 1.0745(2)
H42 H 0.6288 0.5323 1.0648
C31 C 0.8760(4) 0.3780(2) 1.0316(2)
H43 H 0.9400 0.3474 0.9916
C32 C 0.8749(4) 0.3567(2) 1.10897(19)
H44 H 0.9397 0.3115 1.1208
C33 C 0.7792(4) 0.4718(2) 0.9300(2)
H45 H 0.6736 0.4934 0.9192
H46 H 0.8545 0.5200 0.9315
C34 C 0.7832(4) 0.4443(2) 1.01236(19)
C35 C 0.8229(4) 0.4411(2) 0.78739(19)
H47 H 0.9039 0.4872 0.7942
H48 H 0.7210 0.4667 0.7760
C36 C 0.6963(4) 0.3365(2) 0.8505(2)
H49 H 0.5935 0.3606 0.8382
H50 H 0.6883 0.3115 0.9010
C37 C 0.8613(4) 0.3727(2) 0.7162(2)
H51 H 0.8638 0.3984 0.6658
H52 H 0.9662 0.3497 0.7261
C38 C 0.7385(4) 0.2676(2) 0.7807(2)
H53 H 0.8415 0.2437 0.7931
H54 H 0.6596 0.2205 0.7742
C39 C 0.7773(4) 0.2348(2) 0.6380(2)
H55 H 0.7025 0.1868 0.6385
H56 H 0.8837 0.2133 0.6471
C40 C 0.7674(4) 0.2609(2) 0.55534(19)
C41 C 0.6780(4) 0.3297(2) 0.53861(19)
H57 H 0.6182 0.3617 0.5798
C42 C 0.6780(4) 0.3505(2) 0.46105(18)
H58 H 0.6186 0.3984 0.4508
C43 C 0.8459(4) 0.2156(2) 0.49078(19)
H59 H 0.9064 0.1675 0.4991
C44 C 0.8373(4) 0.2396(2) 0.41469(19)
H60 H 0.8909 0.2066 0.3715
Co1A Co 1.23109(5) 0.64744(3) 0.71542(2)
Co1_2 Co 0.76891(5) 0.35256(3) 1.28458(2)
Co2A Co 1.26150(5) 0.15984(3) 0.24385(2)
Co2A_2 Co 0.26150(5) 0.15984(3) 0.24385(2)
Co2_2 Co 0.73850(5) -0.15984(3) 0.75615(2)
O4A O 0.7528(2) -0.28371(13) -0.30781(13)
O5A O 0.7959(3) 0.48004(14) 0.34272(13)
O7A O 0.4996(2) -0.18859(13) -0.25004(12)
N4_2 N 0.7095(3) -0.11364(17) -0.35930(16)
N6_2 N 0.7862(3) 0.39728(17) 0.16840(15)
loop_
_geom_bond_atom_site_label_1
_geom_bond_atom_site_label_2
_geom_bond_site_symmetry_1
_geom_bond_site_symmetry_2
Co1 O3 1_555 1_555
Co2 O1 1_555 1_555
O1 C17 1_555 1_555
O2 C17 1_555 1_555
O3 C23 1_555 1_555
O4 C23 1_555 1_555
O5 C28 1_555 1_555
O6 C28 1_555 1_555
O7 C22 1_555 1_555
O8 Co1 1_555 1_555
O9 Co2 1_555 1_555
H1 O9 1_555 1_555
H2 O9 1_555 1_555
O10 Co1 1_555 1_555
H3 O10 1_555 1_555
H4 O10 1_555 1_555
N1 Co2 1_555 1_555
N2 C6 1_555 1_555
N3 C8 1_555 1_555
N4 C14 1_555 1_555
N5 Co1 1_555 1_555
N6 C29 1_555 1_555
N7 C33 1_555 1_555
N8 C37 1_555 1_555
C1 N1 1_555 1_555
H5 C1 1_555 1_555
C2 C1 1_555 1_555
H6 C2 1_555 1_555
C3 C2 1_555 1_555
C4 C3 1_555 1_555
H7 C4 1_555 1_555
C5 N1 1_555 1_555
H8 C5 1_555 1_555
C6 C3 1_555 1_555
H9 C6 1_555 1_555
H10 C6 1_555 1_555
C7 N2 1_555 1_555
H11 C7 1_555 1_555
H12 C7 1_555 1_555
C8 H13 1_555 1_555
H14 C8 1_555 1_555
C9 N3 1_555 1_555
H15 C9 1_555 1_555
H16 C9 1_555 1_555
C10 N2 1_555 1_555
H17 C10 1_555 1_555
H18 C10 1_555 1_555
C11 N3 1_555 1_555
H19 C11 1_555 1_555
H20 C11 1_555 1_555
C12 C11 1_555 1_555
C13 C12 1_555 1_555
H21 C13 1_555 1_555
C14 C13 1_555 1_555
H22 C14 1_555 1_555
C15 N4 1_555 1_555
H23 C15 1_555 1_555
C16 C12 1_555 1_555
H24 C16 1_555 1_555
C17 C18 1_555 1_555
C18 H25 1_555 1_555
H26 C18 1_555 1_555
C19 C18 1_555 1_555
H27 C19 1_555 1_555
H28 C19 1_555 1_555
C20 C19 1_555 1_555
H29 C20 1_555 1_555
H30 C20 1_555 1_555
C21 C20 1_555 1_555
H31 C21 1_555 1_555
H32 C21 1_555 1_555
C22 O8 1_555 1_555
C23 C24 1_555 1_555
C24 H33 1_555 1_555
H34 C24 1_555 1_555
C25 C24 1_555 1_555
H35 C25 1_555 1_555
H36 C25 1_555 1_555
C26 C25 1_555 1_555
H37 C26 1_555 1_555
H38 C26 1_555 1_555
C27 C26 1_555 1_555
H39 C27 1_555 1_555
H40 C27 1_555 1_555
C28 C27 1_555 1_555
C29 H41 1_555 1_555
C30 C29 1_555 1_555
H42 C30 1_555 1_555
C31 H43 1_555 1_555
C32 N6 1_555 1_555
H44 C32 1_555 1_555
C33 H45 1_555 1_555
H46 C33 1_555 1_555
C34 C30 1_555 1_555
C35 N7 1_555 1_555
H47 C35 1_555 1_555
H48 C35 1_555 1_555
C36 N7 1_555 1_555
H49 C36 1_555 1_555
H50 C36 1_555 1_555
C37 C35 1_555 1_555
H51 C37 1_555 1_555
H52 C37 1_555 1_555
C38 N8 1_555 1_555
H53 C38 1_555 1_555
H54 C38 1_555 1_555
C39 N8 1_555 1_555
H55 C39 1_555 1_555
H56 C39 1_555 1_555
C40 C39 1_555 1_555
C41 C40 1_555 1_555
H57 C41 1_555 1_555
C42 N5 1_555 1_555
H58 C42 1_555 1_555
C43 C40 1_555 1_555
H59 C43 1_555 1_555
C44 N5 1_555 1_555
H60 C44 1_555 1_555
Co1A O5 1_555 1_555
Co1_2 N6 1_555 1_555
Co2A O4 1_555 1_555
Co2A_2 O7 1_555 1_555
Co2_2 N4 1_555 1_555
O4A Co2 1_555 1_555
O5A Co1 1_555 1_555
O7A Co2 1_555 1_555
N4_2 Co2 1_555 1_555
N6_2 Co1 1_555 1_555
C4 C5 1_555 1_555
C7 C9 1_555 1_555
C8 C10 1_555 1_555
C15 C16 1_555 1_555
C21 C22 1_555 1_555
C31 C32 1_555 1_555
C31 C34 1_555 1_555
C33 C34 1_555 1_555
C36 C38 1_555 1_555
C41 C42 1_555 1_555
C43 C44 1_555 1_555

#END
