
#######################################################################
#
#                 Cambridge Crystallographic Data Centre
#                                CCDC 
#
#######################################################################
#
# If this CIF has been generated from an entry in the Cambridge 
# Structural Database, then it will include bibliographic, chemical, 
# crystal, experimental, refinement or atomic coordinate data resulting 
# from the CCDC's data processing and validation procedures.
#
#######################################################################

data_OVEDAV
_symmetry_cell_setting           monoclinic
_symmetry_space_group_name_H-M   'C 2/c'
_symmetry_Int_Tables_number      15
_space_group_name_Hall           '-C 2yn'
loop_
_symmetry_equiv_pos_site_id
_symmetry_equiv_pos_as_xyz
1 x,y,z
2 -x,y,1/2-z
3 1/2+x,1/2+y,z
4 1/2-x,1/2+y,1/2-z
5 -x,-y,-z
6 x,-y,1/2+z
7 1/2-x,1/2-y,-z
8 1/2+x,1/2-y,1/2+z
_cell_length_a                   19.610(5)
_cell_length_b                   6.5390(17)
_cell_length_c                   16.914(5)
_cell_angle_alpha                90
_cell_angle_beta                 93.675(3)
_cell_angle_gamma                90
_cell_volume                     2164.42
loop_
_atom_site_label
_atom_site_type_symbol
_atom_site_fract_x
_atom_site_fract_y
_atom_site_fract_z
Cd1 Cd 0.0000 0.01045(2) 0.7500
O1 O 0.07644(6) 0.12191(18) 0.84809(6)
O2 O -0.02992(6) 0.19378(19) 0.86973(7)
N1 N -0.08280(6) -0.22787(18) 0.77864(7)
N2 N -0.24785(6) -0.63915(18) 0.92739(7)
C1 C -0.09280(8) -0.4095(2) 0.74360(8)
H1 H -0.0634 -0.4489 0.7054
C2 C -0.14485(8) -0.5422(2) 0.76138(9)
H2 H -0.1498 -0.6674 0.7356
C3 C -0.18938(8) -0.4861(2) 0.81808(9)
C4 C -0.18027(8) -0.2955(2) 0.85311(8)
H3 H -0.2098 -0.2509 0.8904
C5 C -0.12725(7) -0.1728(2) 0.83238(8)
H4 H -0.1218 -0.0456 0.8566
C6 C -0.24620(8) -0.6247(3) 0.84125(8)
H5 H -0.2896 -0.5722 0.8191
H6 H -0.2397 -0.7599 0.8194
C7 C -0.18867(7) -0.7517(2) 0.96148(8)
H7 H -0.1471 -0.6854 0.9469
H8 H -0.1891 -0.8896 0.9404
C8 C -0.31042(7) -0.7401(2) 0.94909(8)
H9 H -0.3124 -0.8776 0.9276
H10 H -0.3499 -0.6651 0.9272
C9 C 0.03186(8) 0.1911(2) 0.89167(8)
C10 C 0.05673(8) 0.2659(2) 0.97382(9)
H11 H 0.0980 0.3453 0.9687
H12 H 0.0691 0.1473 1.0061
C11 C 0.00703(8) 0.3951(2) 1.01830(9)
H13 H -0.0358 0.3217 1.0199
H14 H 0.0254 0.4130 1.0725
Cd1D Cd 0.0000 0.98955(2) 1.2500
Cd1F Cd -0.5000 -1.51045(2) 1.2500
O1D O -0.07644(6) 0.87809(18) 1.15191(6)
O1A O -0.07644(6) 0.12191(18) 0.65191(6)
O2D O 0.02992(6) 0.80622(19) 1.13027(7)
O2A O 0.02992(6) 0.19378(19) 0.63027(7)
N1F N -0.41720(6) -1.27213(18) 1.22136(7)
N1A N 0.08280(6) -0.22787(18) 0.72136(7)
N2F N -0.25215(6) -0.86085(18) 1.07261(7)
C1F C -0.40720(8) -1.0905(2) 1.25640(8)
H1F H -0.4366 -1.0511 1.2946
C2F C -0.35515(8) -0.9578(2) 1.23862(9)
H2F H -0.3502 -0.8326 1.2644
C3F C -0.31062(8) -1.0139(2) 1.18192(9)
C4F C -0.31973(8) -1.2045(2) 1.14689(8)
H3F H -0.2902 -1.2491 1.1096
C5F C -0.37275(7) -1.3272(2) 1.16762(8)
H4F H -0.3782 -1.4544 1.1434
C6F C -0.25380(8) -0.8753(3) 1.15875(8)
H5F H -0.2104 -0.9278 1.1809
H6F H -0.2603 -0.7401 1.1806
C7F C -0.31133(7) -0.7483(2) 1.03852(8)
H7F H -0.3529 -0.8146 1.0531
H8F H -0.3109 -0.6104 1.0596
C8F C -0.18958(7) -0.7599(2) 1.05091(8)
H9F H -0.1876 -0.6224 1.0724
H10F H -0.1501 -0.8349 1.0728
C9D C -0.03186(8) 0.8089(2) 1.10833(8)
C10D C -0.05673(8) 0.7341(2) 1.02618(9)
H11D H -0.0980 0.6547 1.0313
H12D H -0.0691 0.8527 0.9939
C11D C -0.00703(8) 0.6049(2) 0.98170(9)
H13D H 0.0358 0.6783 0.9801
H14D H -0.0254 0.5870 0.9275
loop_
_geom_bond_atom_site_label_1
_geom_bond_atom_site_label_2
_geom_bond_site_symmetry_1
_geom_bond_site_symmetry_2
Cd1 O1 1_555 1_555
O1 C9 1_555 1_555
O2 Cd1 1_555 1_555
N1 Cd1 1_555 1_555
N2 C6 1_555 1_555
C1 N1 1_555 1_555
H1 C1 1_555 1_555
C2 C1 1_555 1_555
H2 C2 1_555 1_555
C3 C2 1_555 1_555
C4 C3 1_555 1_555
H3 C4 1_555 1_555
C5 N1 1_555 1_555
H4 C5 1_555 1_555
C6 C3 1_555 1_555
H5 C6 1_555 1_555
H6 C6 1_555 1_555
C7 N2 1_555 1_555
H7 C7 1_555 1_555
H8 C7 1_555 1_555
C8 N2 1_555 1_555
H9 C8 1_555 1_555
H10 C8 1_555 1_555
C9 O2 1_555 1_555
C10 C9 1_555 1_555
H11 C10 1_555 1_555
H12 C10 1_555 1_555
C11 C10 1_555 1_555
H13 C11 1_555 1_555
H14 C11 1_555 1_555
Cd1D O1D 1_555 1_555
Cd1F N1F 1_555 1_555
O1D C9D 1_555 1_555
O1A Cd1 1_555 1_555
O2D Cd1D 1_555 1_555
O2A Cd1 1_555 1_555
N1F C1F 1_555 1_555
N1A Cd1 1_555 1_555
N2F C6F 1_555 1_555
C1F H1F 1_555 1_555
C2F C1F 1_555 1_555
H2F C2F 1_555 1_555
C3F C2F 1_555 1_555
C4F C3F 1_555 1_555
H3F C4F 1_555 1_555
C5F N1F 1_555 1_555
H4F C5F 1_555 1_555
C6F C3F 1_555 1_555
H5F C6F 1_555 1_555
H6F C6F 1_555 1_555
C7F C8 1_555 1_555
H7F C7F 1_555 1_555
H8F C7F 1_555 1_555
C8F C7 1_555 1_555
H9F C8F 1_555 1_555
H10F C8F 1_555 1_555
C9D O2D 1_555 1_555
C10D C9D 1_555 1_555
H11D C10D 1_555 1_555
H12D C10D 1_555 1_555
C11D C11 1_555 1_555
H13D C11D 1_555 1_555
H14D C11D 1_555 1_555
C4 C5 1_555 1_555
N2F C7F 1_555 1_555
N2F C8F 1_555 1_555
C4F C5F 1_555 1_555
C10D C11D 1_555 1_555

#END
