
#######################################################################
#
#                 Cambridge Crystallographic Data Centre
#                                CCDC 
#
#######################################################################
#
# If this CIF has been generated from an entry in the Cambridge 
# Structural Database, then it will include bibliographic, chemical, 
# crystal, experimental, refinement or atomic coordinate data resulting 
# from the CCDC's data processing and validation procedures.
#
#######################################################################

data_OVEDOJ
_symmetry_cell_setting           monoclinic
_symmetry_space_group_name_H-M   'P 21/a'
_symmetry_Int_Tables_number      14
_space_group_name_Hall           '-P 2yab'
loop_
_symmetry_equiv_pos_site_id
_symmetry_equiv_pos_as_xyz
1 x,y,z
2 1/2-x,1/2+y,-z
3 -x,-y,-z
4 1/2+x,1/2-y,z
_cell_length_a                   27.406(4)
_cell_length_b                   14.461(2)
_cell_length_c                   25.124(4)
_cell_angle_alpha                90
_cell_angle_beta                 94.255(2)
_cell_angle_gamma                90
_cell_volume                     9929.65
loop_
_atom_site_label
_atom_site_type_symbol
_atom_site_fract_x
_atom_site_fract_y
_atom_site_fract_z
Zn1 Zn 0.0000 0.0000 0.0000
Zn2 Zn 0.00629(4) -0.03404(6) 0.12622(3)
O1 O 0.0436(3) 0.0877(4) 0.0480(2)
O2 O 0.0720(2) 0.0363(4) 0.1216(2)
C1 C 0.0768(4) 0.0830(5) 0.0828(3)
C2 C 0.1239(4) 0.1424(6) 0.0828(3)
C3 C 0.1399(5) 0.1824(8) 0.0395(4)
H1 H 0.1196 0.1781 0.0073
C4 C 0.1864(5) 0.2325(8) 0.0377(3)
H2 H 0.1940 0.2558 0.0039
C5 C 0.2183(4) 0.2481(7) 0.0780(4)
C6 C 0.2049(4) 0.2111(9) 0.1220(4)
H3 H 0.2248 0.2203 0.1541
C7 C 0.1602(5) 0.1560(9) 0.1233(4)
H4 H 0.1555 0.1259 0.1562
O3 O 0.4311(3) 0.4715(6) 0.0298(2)
O4 O 0.4399(2) 0.4704(4) 0.1115(2)
C8 C 0.4154(4) 0.4500(7) 0.0703(3)
C9 C 0.3648(4) 0.3996(7) 0.0729(4)
C10 C 0.3314(6) 0.3843(14) 0.0339(5)
H5 H 0.3387 0.4068 -0.0001
C11 C 0.2842(6) 0.3370(12) 0.0356(5)
H6 H 0.2641 0.3334 0.0032
C12 C 0.2680(4) 0.3007(8) 0.0765(3)
C13 C 0.3003(6) 0.3221(12) 0.1154(4)
H7 H 0.2925 0.3022 0.1498
C14 C 0.3455(6) 0.3707(12) 0.1143(4)
H8 H 0.3629 0.3826 0.1477
O5 O 0.0163(4) -0.1120(4) 0.0463(3)
O6 O 0.0076(3) -0.1691(4) 0.1166(2)
C15 C 0.0089(4) -0.1788(5) 0.0721(3)
C16 C 0.0069(4) -0.2732(5) 0.0493(3)
C17 C 0.0025(4) -0.2871(6) 0.0011(3)
H9 H 0.0001 -0.2360 -0.0227
C18 C 0.0010(4) -0.3761(6) -0.0192(3)
H10 H -0.0005 -0.3832 -0.0569
C19 C 0.0014(3) -0.4528(5) 0.0105(3)
C20 C 0.0055(5) -0.4385(6) 0.0601(3)
H11 H 0.0067 -0.4896 0.0839
C21 C 0.0083(5) -0.3514(6) 0.0800(3)
H12 H 0.0114 -0.3442 0.1177
N1 N 0.0033(4) -0.0342(5) 0.2003(3)
C22 C -0.0264(8) -0.0621(18) 0.2244(5)
H13 H -0.0527 -0.0923 0.2047
C23 C -0.0293(9) -0.058(2) 0.2744(5)
H14 H -0.0576 -0.0845 0.2883
C24 C -0.0036(7) -0.0293(8) 0.3013(4)
C25 C 0.0432(9) 0.0019(19) 0.2804(6)
H15 H 0.0711 0.0190 0.3030
C26 C 0.0428(7) 0.0037(12) 0.2286(5)
H16 H 0.0689 0.0304 0.2112
C27 C -0.0006(6) -0.0198(9) 0.3531(4)
C28 C -0.0029(5) -0.0178(9) 0.3978(4)
C29 C -0.0012(5) -0.0085(8) 0.4494(3)
C30 C -0.0228(6) 0.0638(11) 0.4702(4)
H17 H -0.0371 0.1104 0.4474
C31 C 0.0247(6) -0.0713(13) 0.4784(4)
H18 H 0.0431 -0.1182 0.4627
Zn1A Zn 0.5000 0.5000 0.0000
Zn1_2 Zn 0.0000 -1.0000 0.0000
Zn1A_2 Zn -0.5000 -0.5000 0.0000
Zn2B Zn -0.00629(4) 0.03404(6) -0.12622(3)
Zn2C Zn 0.50629(4) 0.53404(6) 0.12622(3)
Zn2B_2 Zn -0.00629(4) -0.96596(6) -0.12622(3)
Zn2B_3 Zn -0.00629(4) 0.03404(6) 0.87378(3)
Zn2A Zn -0.50629(4) -0.53404(6) -0.12622(3)
O1B O -0.0436(3) -0.0877(4) -0.0480(2)
O2B O -0.0720(2) -0.0363(4) -0.1216(2)
C1B C -0.0768(4) -0.0830(5) -0.0828(3)
C2B C -0.1239(4) -0.1424(6) -0.0828(3)
C3B C -0.1399(5) -0.1824(8) -0.0395(4)
H1B H -0.1196 -0.1781 -0.0073
C4B C -0.1864(5) -0.2325(8) -0.0377(3)
H2B H -0.1940 -0.2558 -0.0039
C5B C -0.2183(4) -0.2481(7) -0.0780(4)
C6B C -0.2049(4) -0.2111(9) -0.1220(4)
H3B H -0.2248 -0.2203 -0.1541
C7B C -0.1602(5) -0.1560(9) -0.1233(4)
H4B H -0.1555 -0.1259 -0.1562
O3B O -0.4311(3) -0.4715(6) -0.0298(2)
O3A O 0.0689(3) -0.0285(6) -0.0298(2)
O3C O -0.0689(3) 0.0285(6) 0.0298(2)
O4B O -0.4399(2) -0.4704(4) -0.1115(2)
O4C O -0.0601(2) 0.0296(4) 0.1115(2)
O4A O 0.0601(2) -0.0296(4) -0.1115(2)
C8B C -0.4154(4) -0.4500(7) -0.0703(3)
C9B C -0.3648(4) -0.3996(7) -0.0729(4)
C10B C -0.3314(6) -0.3843(14) -0.0339(5)
H5B H -0.3387 -0.4068 0.0001
C11B C -0.2842(6) -0.3370(12) -0.0356(5)
H6B H -0.2641 -0.3334 -0.0032
C12B C -0.2680(4) -0.3007(8) -0.0765(3)
C13B C -0.3003(6) -0.3221(12) -0.1154(4)
H7B H -0.2925 -0.3022 -0.1498
C14B C -0.3455(6) -0.3707(12) -0.1143(4)
H8B H -0.3629 -0.3826 -0.1477
O5B O -0.0163(4) -0.8880(4) -0.0463(3)
O5B_2 O -0.0163(4) 0.1120(4) -0.0463(3)
O6B O -0.0076(3) -0.8309(4) -0.1166(2)
O6B_2 O -0.0076(3) 0.1691(4) -0.1166(2)
C15B C -0.0089(4) -0.8212(5) -0.0721(3)
C16B C -0.0069(4) -0.7268(5) -0.0493(3)
C17B C -0.0025(4) -0.7129(6) -0.0011(3)
H9B H -0.0001 -0.7640 0.0227
C18B C -0.0010(4) -0.6239(6) 0.0192(3)
H10B H 0.0005 -0.6168 0.0569
C19B C -0.0014(3) -0.5472(5) -0.0105(3)
C20B C -0.0055(5) -0.5615(6) -0.0601(3)
H11B H -0.0067 -0.5104 -0.0839
C21B C -0.0083(5) -0.6486(6) -0.0800(3)
H12B H -0.0114 -0.6558 -0.1177
N1B N -0.0033(4) 0.0342(5) 0.7997(3)
N1B_2 N -0.0033(4) 0.0342(5) -0.2003(3)
C22B C 0.0264(8) 0.0621(18) 0.7756(5)
H13B H 0.0527 0.0923 0.7953
C23B C 0.0293(9) 0.058(2) 0.7256(5)
H14B H 0.0576 0.0845 0.7117
C24B C 0.0036(7) 0.0293(8) 0.6987(4)
C25B C -0.0432(9) -0.0019(19) 0.7196(6)
H15B H -0.0711 -0.0190 0.6970
C26B C -0.0428(7) -0.0037(12) 0.7714(5)
H16B H -0.0689 -0.0304 0.7888
C27B C 0.0006(6) 0.0198(9) 0.6469(4)
C28B C 0.0029(5) 0.0178(9) 0.6022(4)
C29B C 0.0012(5) 0.0085(8) 0.5506(3)
C30B C 0.0228(6) -0.0638(11) 0.5298(4)
H17B H 0.0371 -0.1104 0.5526
C31B C -0.0247(6) 0.0713(13) 0.5216(4)
H18B H -0.0431 0.1182 0.5373
Zn3 Zn 0.34074(2) 0.00017(4) 0.33926(2)
Zn4 Zn 0.33287(3) 0.03358(5) 0.21274(3)
Zn5 Zn 0.34854(3) -0.03278(5) 0.46601(3)
O7 O 0.4056(4) -0.0396(8) 0.3059(3)
O8 O 0.40102(17) -0.0274(3) 0.22588(17)
C32 C 0.4227(4) -0.0550(7) 0.2670(3)
C33 C 0.4736(4) -0.1070(6) 0.2667(3)
C34 C 0.4975(5) -0.1472(8) 0.3083(4)
H19 H 0.4825 -0.1470 0.3412
C35 C 0.5454(4) -0.1917(8) 0.3073(4)
H20 H 0.5604 -0.2133 0.3403
C36 C 0.5689(4) -0.2042(7) 0.2655(3)
C37 C 0.5457(4) -0.1618(8) 0.2244(3)
H21 H 0.5608 -0.1636 0.1916
C38 C 0.5001(4) -0.1133(8) 0.2243(3)
H22 H 0.4880 -0.0840 0.1921
O9 O 0.7991(3) -0.4106(4) 0.2907(3)
O10 O 0.76952(19) -0.4597(4) 0.21803(17)
C39 C 0.7606(4) -0.4243(7) 0.2564(3)
C40 C 0.7123(4) -0.3641(7) 0.2598(3)
C41 C 0.6988(5) -0.3248(12) 0.3009(4)
H23 H 0.7195 -0.3297 0.3328
C42 C 0.6531(5) -0.2719(11) 0.3030(4)
H24 H 0.6467 -0.2464 0.3366
C43 C 0.6205(4) -0.2563(8) 0.2639(3)
C44 C 0.6333(5) -0.2994(9) 0.2207(4)
H25 H 0.6123 -0.2943 0.1890
C45 C 0.6764(4) -0.3528(8) 0.2190(3)
H26 H 0.6810 -0.3839 0.1864
O11 O 0.3350(5) 0.1126(4) 0.2949(3)
O12 O 0.3285(3) 0.1677(4) 0.2260(2)
C46 C 0.3321(3) 0.1781(5) 0.2695(3)
C47 C 0.3353(3) 0.2740(5) 0.2910(3)
C48 C 0.3428(3) 0.2908(6) 0.3394(3)
H27 H 0.3476 0.2408 0.3637
C49 C 0.3443(4) 0.3766(5) 0.3581(3)
H28 H 0.3503 0.3838 0.3956
C50 C 0.3382(3) 0.4534(5) 0.3294(3)
C51 C 0.3256(6) 0.4378(5) 0.2807(3)
H29 H 0.3163 0.4876 0.2575
C52 C 0.3254(5) 0.3506(6) 0.2617(3)
H30 H 0.3177 0.3425 0.2245
O13 O 0.3511(6) 0.8879(5) 0.3844(3)
O14 O 0.3477(2) 0.8352(4) 0.4518(2)
C53 C 0.3468(3) 0.8237(5) 0.4090(3)
C54 C 0.3435(3) 0.7269(5) 0.3877(3)
C55 C 0.3421(5) 0.7132(6) 0.3398(3)
H31 H 0.3428 0.7637 0.3156
C56 C 0.3396(5) 0.6243(5) 0.3211(3)
H32 H 0.3373 0.6170 0.2834
C57 C 0.3435(5) 0.5635(6) 0.3992(3)
H33 H 0.3457 0.5137 0.4239
C58 C 0.3443(5) 0.6540(6) 0.4173(3)
H34 H 0.3455 0.6631 0.4548
O15 O 0.3872(3) 0.0826(6) 0.3866(2)
O16 O 0.41310(16) 0.0398(3) 0.46161(16)
C59 C 0.4222(3) 0.0751(6) 0.4208(3)
C60 C 0.4695(3) 0.1368(6) 0.4198(3)
C61 C 0.4841(3) 0.1722(8) 0.3763(3)
H35 H 0.4638 0.1641 0.3444
C62 C 0.5296(3) 0.2236(7) 0.3730(3)
H36 H 0.5373 0.2435 0.3385
C63 C 0.5626(3) 0.2462(6) 0.4153(3)
C64 C 0.5471(3) 0.2112(5) 0.4601(3)
H37 H 0.5660 0.2225 0.4927
C65 C 0.5020(3) 0.1557(5) 0.4618(3)
H38 H 0.4951 0.1310 0.4955
O17 O 0.7781(4) 0.4583(9) 0.3720(3)
O18 O 0.7810(2) 0.4712(4) 0.45156(19)
C66 C 0.7605(3) 0.4421(7) 0.4111(3)
C67 C 0.7097(3) 0.3942(6) 0.4118(3)
C68 C 0.6873(7) 0.3517(18) 0.3747(5)
H39 H 0.7032 0.3450 0.3426
C69 C 0.6360(7) 0.3089(17) 0.3758(5)
H40 H 0.6219 0.2870 0.3424
C70 C 0.6110(3) 0.2991(6) 0.4132(3)
C71 C 0.6352(5) 0.3381(13) 0.4479(4)
H41 H 0.6205 0.3424 0.4809
C72 C 0.6845(6) 0.3809(13) 0.4476(4)
H42 H 0.6981 0.4009 0.4816
N2 N 0.3318(3) 0.0329(5) 0.1386(2)
C73 C 0.3660(7) 0.0404(18) 0.1146(4)
H43 H 0.3955 0.0576 0.1344
C74 C 0.3688(6) 0.0285(16) 0.0645(5)
H44 H 0.3994 0.0205 0.0495
C75 C 0.3313(6) 0.0277(8) 0.0376(4)
C76 C 0.2874(7) 0.0118(14) 0.0621(4)
H45 H 0.2579 0.0004 0.0407
C77 C 0.2870(6) 0.0124(10) 0.1128(4)
H46 H 0.2585 0.0001 0.1310
C78 C 0.3313(5) 0.0185(9) -0.0149(3)
C79 C 0.3307(6) 0.0156(10) -0.0594(3)
C80 C 0.3314(5) 0.0077(10) -0.1110(4)
C81 C 0.3673(6) -0.0390(11) -0.1305(4)
H47 H 0.3919 -0.0677 -0.1075
C82 C 0.2936(7) 0.0448(15) -0.1420(5)
H48 H 0.2660 0.0721 -0.1274
N3 N 0.3470(2) -0.0283(4) -0.4587(2)
C83 C 0.3888(3) -0.0090(7) -0.4305(3)
H49 H 0.4183 0.0001 -0.4474
C84 C 0.3876(4) -0.0031(8) -0.3795(3)
H50 H 0.4164 0.0085 -0.3571
C85 C 0.3429(4) -0.0143(7) -0.3589(3)
C86 C 0.2986(4) -0.0343(9) -0.3883(4)
H51 H 0.2685 -0.0428 -0.3726
C87 C 0.3030(4) -0.0398(7) -0.4382(3)
H52 H 0.2750 -0.0521 -0.4616
C88 C 0.3399(5) -0.0101(8) -0.3071(3)
C89 C 0.3378(4) -0.0077(8) -0.2636(3)
C90 C 0.3344(5) -0.0036(9) -0.2115(3)
C91 C 0.2981(6) 0.0402(12) -0.1928(4)
H53 H 0.2745 0.0693 -0.2168
C92 C 0.3680(6) -0.0447(12) -0.1807(4)
H54 H 0.3931 -0.0788 -0.1960
C93 C 0.3399(3) 0.5476(5) 0.3496(3)
Zn3C Zn 0.84074(2) -0.50017(4) 0.33926(2)
Zn3_2 Zn 0.34074(2) 1.00017(4) 0.33926(2)
Zn3C_2 Zn 0.84074(2) 0.49983(4) 0.33926(2)
Zn4C Zn 0.83287(3) -0.53358(5) 0.21274(3)
Zn5_2 Zn 0.34854(3) 0.96722(5) 0.46601(3)
Zn5C Zn 0.84854(3) 0.53278(5) 0.46601(3)
Zn5_3 Zn 0.34854(3) -0.03278(5) -0.53399(3)
O9C O 0.2991(3) -0.0894(4) 0.2907(3)
O10C O 0.26952(19) -0.0403(4) 0.21803(17)
O13_2 O 0.3511(6) -0.1121(5) 0.3844(3)
O14_2 O 0.3477(2) -0.1648(4) 0.4518(2)
O17C O 0.2781(4) 0.0417(9) 0.3720(3)
O18C O 0.2810(2) 0.0288(4) 0.45156(19)
N3_2 N 0.3470(2) -0.0283(4) 0.5413(2)
loop_
_geom_bond_atom_site_label_1
_geom_bond_atom_site_label_2
_geom_bond_site_symmetry_1
_geom_bond_site_symmetry_2
Zn1 O1 1_555 1_555
Zn2 O2 1_555 1_555
O1 C1 1_555 1_555
O2 C1 1_555 1_555
C1 C2 1_555 1_555
C2 C3 1_555 1_555
C3 H1 1_555 1_555
C4 C3 1_555 1_555
H2 C4 1_555 1_555
C5 C4 1_555 1_555
C6 C5 1_555 1_555
H3 C6 1_555 1_555
C7 C2 1_555 1_555
H4 C7 1_555 1_555
O3 C8 1_555 1_555
O4 C8 1_555 1_555
C8 C9 1_555 1_555
C9 C10 1_555 1_555
C10 H5 1_555 1_555
C11 C10 1_555 1_555
H6 C11 1_555 1_555
C12 C5 1_555 1_555
C13 C12 1_555 1_555
H7 C13 1_555 1_555
C14 C9 1_555 1_555
H8 C14 1_555 1_555
O5 Zn1 1_555 1_555
O6 Zn2 1_555 1_555
C15 O5 1_555 1_555
C16 C15 1_555 1_555
C17 C16 1_555 1_555
H9 C17 1_555 1_555
C18 C17 1_555 1_555
H10 C18 1_555 1_555
C19 C18 1_555 1_555
C20 C19 1_555 1_555
H11 C20 1_555 1_555
C21 C16 1_555 1_555
H12 C21 1_555 1_555
N1 Zn2 1_555 1_555
C22 N1 1_555 1_555
H13 C22 1_555 1_555
C23 C22 1_555 1_555
H14 C23 1_555 1_555
C24 C23 1_555 1_555
C25 C24 1_555 1_555
H15 C25 1_555 1_555
C26 N1 1_555 1_555
H16 C26 1_555 1_555
C27 C24 1_555 1_555
C28 C27 1_555 1_555
C29 C28 1_555 1_555
C30 C29 1_555 1_555
H17 C30 1_555 1_555
C31 C29 1_555 1_555
H18 C31 1_555 1_555
Zn3 O7 1_555 1_555
Zn4 O8 1_555 1_555
Zn5 O16 1_555 1_555
O7 C32 1_555 1_555
O8 C32 1_555 1_555
C32 C33 1_555 1_555
C33 C34 1_555 1_555
C34 H19 1_555 1_555
C35 C34 1_555 1_555
H20 C35 1_555 1_555
C36 C35 1_555 1_555
C37 C36 1_555 1_555
H21 C37 1_555 1_555
C38 C33 1_555 1_555
H22 C38 1_555 1_555
O9 C39 1_555 1_555
O10 C39 1_555 1_555
C39 C40 1_555 1_555
C40 C41 1_555 1_555
C41 H23 1_555 1_555
C42 C41 1_555 1_555
H24 C42 1_555 1_555
C43 C36 1_555 1_555
C44 C43 1_555 1_555
H25 C44 1_555 1_555
C45 C40 1_555 1_555
H26 C45 1_555 1_555
O11 Zn3 1_555 1_555
O12 Zn4 1_555 1_555
C46 O11 1_555 1_555
C47 C46 1_555 1_555
C48 C47 1_555 1_555
H27 C48 1_555 1_555
C49 C48 1_555 1_555
H28 C49 1_555 1_555
C50 C49 1_555 1_555
C51 C50 1_555 1_555
H29 C51 1_555 1_555
C52 C47 1_555 1_555
H30 C52 1_555 1_555
O13 C53 1_555 1_555
O14 C53 1_555 1_555
C53 C54 1_555 1_555
C54 C55 1_555 1_555
C55 H31 1_555 1_555
C56 C55 1_555 1_555
H32 C56 1_555 1_555
C57 H33 1_555 1_555
C58 C54 1_555 1_555
H34 C58 1_555 1_555
O15 Zn3 1_555 1_555
O16 C59 1_555 1_555
C59 O15 1_555 1_555
C60 C59 1_555 1_555
C61 C60 1_555 1_555
H35 C61 1_555 1_555
C62 C61 1_555 1_555
H36 C62 1_555 1_555
C63 C62 1_555 1_555
C64 C63 1_555 1_555
H37 C64 1_555 1_555
C65 C60 1_555 1_555
H38 C65 1_555 1_555
O17 C66 1_555 1_555
O18 C66 1_555 1_555
C66 C67 1_555 1_555
C67 C68 1_555 1_555
C68 H39 1_555 1_555
C69 C68 1_555 1_555
H40 C69 1_555 1_555
C70 C63 1_555 1_555
C71 C70 1_555 1_555
H41 C71 1_555 1_555
C72 C67 1_555 1_555
H42 C72 1_555 1_555
N2 Zn4 1_555 1_555
C73 N2 1_555 1_555
H43 C73 1_555 1_555
C74 C73 1_555 1_555
H44 C74 1_555 1_555
C75 C74 1_555 1_555
C76 C75 1_555 1_555
H45 C76 1_555 1_555
C77 N2 1_555 1_555
H46 C77 1_555 1_555
C78 C75 1_555 1_555
C79 C78 1_555 1_555
C80 C79 1_555 1_555
C81 C80 1_555 1_555
H47 C81 1_555 1_555
C82 C80 1_555 1_555
H48 C82 1_555 1_555
N3 C83 1_555 1_555
C83 H49 1_555 1_555
C84 C83 1_555 1_555
H50 C84 1_555 1_555
C85 C84 1_555 1_555
C86 C85 1_555 1_555
H51 C86 1_555 1_555
C87 N3 1_555 1_555
H52 C87 1_555 1_555
C88 C85 1_555 1_555
C89 C88 1_555 1_555
C90 C89 1_555 1_555
C91 C82 1_555 1_555
H53 C91 1_555 1_555
C92 C81 1_555 1_555
H54 C92 1_555 1_555
C93 C50 1_555 1_555
Zn1A O3 1_555 1_555
Zn1_2 O5B 1_555 1_555
Zn1A_2 O3B 1_555 1_555
Zn2B O2B 1_555 1_555
Zn2C O4 1_555 1_555
Zn2B_2 O5B 1_555 1_555
Zn2B_3 N1B 1_555 1_555
Zn2A O4B 1_555 1_555
O1B Zn1 1_555 1_555
O2B C1B 1_555 1_555
C1B O1B 1_555 1_555
C2B C1B 1_555 1_555
C3B C2B 1_555 1_555
H1B C3B 1_555 1_555
C4B C3B 1_555 1_555
H2B C4B 1_555 1_555
C5B C4B 1_555 1_555
C6B C5B 1_555 1_555
H3B C6B 1_555 1_555
C7B C2B 1_555 1_555
H4B C7B 1_555 1_555
O3B C8B 1_555 1_555
O3A Zn1 1_555 1_555
O3C Zn1 1_555 1_555
O4B C8B 1_555 1_555
O4C Zn2 1_555 1_555
O4A Zn2B 1_555 1_555
C8B C9B 1_555 1_555
C9B C10B 1_555 1_555
C10B H5B 1_555 1_555
C11B C10B 1_555 1_555
H6B C11B 1_555 1_555
C12B C5B 1_555 1_555
C13B C12B 1_555 1_555
H7B C13B 1_555 1_555
C14B C9B 1_555 1_555
H8B C14B 1_555 1_555
O5B C15B 1_555 1_555
O5B_2 Zn1 1_555 1_555
O6B Zn2B_2 1_555 1_555
O6B_2 Zn2B 1_555 1_555
C15B O6B 1_555 1_555
C16B C15B 1_555 1_555
C17B C16B 1_555 1_555
H9B C17B 1_555 1_555
C18B C17B 1_555 1_555
H10B C18B 1_555 1_555
C19B C19 1_555 1_555
C20B C19B 1_555 1_555
H11B C20B 1_555 1_555
C21B C16B 1_555 1_555
H12B C21B 1_555 1_555
N1B C22B 1_555 1_555
N1B_2 Zn2B 1_555 1_555
C22B H13B 1_555 1_555
C23B C22B 1_555 1_555
H14B C23B 1_555 1_555
C24B C23B 1_555 1_555
C25B C24B 1_555 1_555
H15B C25B 1_555 1_555
C26B N1B 1_555 1_555
H16B C26B 1_555 1_555
C27B C24B 1_555 1_555
C28B C27B 1_555 1_555
C29B C28B 1_555 1_555
C30B C31 1_555 1_555
H17B C30B 1_555 1_555
C31B C30 1_555 1_555
H18B C31B 1_555 1_555
Zn3C O9 1_555 1_555
Zn3_2 O13 1_555 1_555
Zn3C_2 O17 1_555 1_555
Zn4C O10 1_555 1_555
Zn5_2 O13 1_555 1_555
Zn5C O18 1_555 1_555
Zn5_3 N3 1_555 1_555
O9C Zn3 1_555 1_555
O10C Zn4 1_555 1_555
O13_2 Zn3 1_555 1_555
O14_2 Zn5 1_555 1_555
O17C Zn3 1_555 1_555
O18C Zn5 1_555 1_555
N3_2 Zn5 1_555 1_555
Zn2 O5 1_555 1_555
C6 C7 1_555 1_555
C11 C12 1_555 1_555
C13 C14 1_555 1_555
O6 C15 1_555 1_555
C20 C21 1_555 1_555
C25 C26 1_555 1_555
Zn4 O11 1_555 1_555
Zn5 O13_2 1_555 1_555
C37 C38 1_555 1_555
C42 C43 1_555 1_555
C44 C45 1_555 1_555
O12 C46 1_555 1_555
C51 C52 1_555 1_555
O14 Zn5_2 1_555 1_555
C56 C93 1_555 1_555
C57 C58 1_555 1_555
C57 C93 1_555 1_555
C64 C65 1_555 1_555
C69 C70 1_555 1_555
C71 C72 1_555 1_555
C76 C77 1_555 1_555
C86 C87 1_555 1_555
C90 C91 1_555 1_555
C90 C92 1_555 1_555
Zn2B O5B_2 1_555 1_555
C6B C7B 1_555 1_555
C11B C12B 1_555 1_555
C13B C14B 1_555 1_555
C18B C19B 1_555 1_555
C20B C21B 1_555 1_555
C25B C26B 1_555 1_555
C29B C30B 1_555 1_555
C29B C31B 1_555 1_555

#END
