
#######################################################################
#
#                 Cambridge Crystallographic Data Centre
#                                CCDC 
#
#######################################################################
#
# If this CIF has been generated from an entry in the Cambridge 
# Structural Database, then it will include bibliographic, chemical, 
# crystal, experimental, refinement or atomic coordinate data resulting 
# from the CCDC's data processing and validation procedures.
#
#######################################################################

data_OVEFIF
_symmetry_cell_setting           triclinic
_symmetry_space_group_name_H-M   'P -1'
_symmetry_Int_Tables_number      2
_space_group_name_Hall           '-P 1'
loop_
_symmetry_equiv_pos_site_id
_symmetry_equiv_pos_as_xyz
1 x,y,z
2 -x,-y,-z
_cell_length_a                   8.5599(5)
_cell_length_b                   9.4133(6)
_cell_length_c                   11.6786(7)
_cell_angle_alpha                78.3050(10)
_cell_angle_beta                 75.4780(10)
_cell_angle_gamma                87.1870(10)
_cell_volume                     892.048
loop_
_atom_site_label
_atom_site_type_symbol
_atom_site_fract_x
_atom_site_fract_y
_atom_site_fract_z
Hg1 Hg 0.28569(3) 0.68560(3) 0.33840(2)
Cl1 Cl 0.2482(3) 0.5506(3) 0.1951(2)
Cl2 Cl 0.3408(3) 0.6600(3) 0.5297(2)
N1 N -0.0110(8) 0.7853(7) 0.4311(6)
N2 N 0.2142(7) 0.9256(7) 0.2351(5)
N3 N 0.2891(7) 0.9962(7) 0.1223(6)
N4 N 0.0431(7) 1.0813(6) 0.1703(5)
N5 N 0.4206(7) 1.2556(7) -0.2201(6)
N6 N -0.2260(7) 1.0849(7) 0.1635(6)
C1 C -0.1062(11) 0.7249(10) 0.5360(8)
H1 H -0.0783 0.6342 0.5744
C2 C -0.2429(11) 0.7891(11) 0.5903(8)
H2 H -0.3087 0.7414 0.6626
C3 C -0.2824(11) 0.9256(11) 0.5368(8)
H3 H -0.3755 0.9713 0.5723
C4 C -0.1818(9) 0.9936(9) 0.4297(7)
H4 H -0.2033 1.0874 0.3934
C5 C -0.0488(8) 0.9193(8) 0.3776(6)
C6 C 0.0658(8) 0.9751(8) 0.2626(6)
C7 C 0.1874(8) 1.0902(8) 0.0835(7)
C8 C 0.2244(8) 1.1759(8) -0.0396(7)
C9 C 0.1017(7) 1.2245(7) -0.0886(6)
H5 H -0.0053 1.2144 -0.0445
C10 C 0.1425(9) 1.2880(8) -0.2039(7)
H6 H 0.0614 1.3257 -0.2414
C11 C 0.3001(9) 1.3005(8) -0.2703(7)
H7 H 0.3224 1.3413 -0.3522
C12 C 0.3840(8) 1.1959(8) -0.1043(7)
H8 H 0.4662 1.1670 -0.0655
C13 C -0.1020(8) 1.1640(7) 0.1591(6)
C14 C -0.3605(10) 1.1591(11) 0.1508(9)
H9 H -0.4511 1.1069 0.1534
C15 C -0.3724(10) 1.3057(11) 0.1345(8)
H10 H -0.4679 1.3523 0.1246
C16 C -0.2408(12) 1.3835(9) 0.1330(9)
H11 H -0.2457 1.4841 0.1225
C17 C -0.1008(10) 1.3114(8) 0.1471(7)
H12 H -0.0099 1.3606 0.1484
Hg1A Hg 0.71431(3) 1.31440(3) -0.33840(2)
N5A N 0.5794(7) 0.7444(7) 0.2201(6)
loop_
_geom_bond_atom_site_label_1
_geom_bond_atom_site_label_2
_geom_bond_site_symmetry_1
_geom_bond_site_symmetry_2
Hg1 Cl1 1_555 1_555
Cl2 Hg1 1_555 1_555
N1 Hg1 1_555 1_555
N2 Hg1 1_555 1_555
N3 N2 1_555 1_555
N4 C6 1_555 1_555
N5 C11 1_555 1_555
N6 C13 1_555 1_555
C1 N1 1_555 1_555
H1 C1 1_555 1_555
C2 C1 1_555 1_555
H2 C2 1_555 1_555
C3 C2 1_555 1_555
H3 C3 1_555 1_555
C4 C3 1_555 1_555
H4 C4 1_555 1_555
C5 N1 1_555 1_555
C6 N2 1_555 1_555
C7 N3 1_555 1_555
C8 C7 1_555 1_555
C9 C8 1_555 1_555
H5 C9 1_555 1_555
C10 C9 1_555 1_555
H6 C10 1_555 1_555
C11 C10 1_555 1_555
H7 C11 1_555 1_555
C12 N5 1_555 1_555
H8 C12 1_555 1_555
C13 N4 1_555 1_555
C14 N6 1_555 1_555
H9 C14 1_555 1_555
C15 C14 1_555 1_555
H10 C15 1_555 1_555
C16 C15 1_555 1_555
H11 C16 1_555 1_555
C17 C13 1_555 1_555
H12 C17 1_555 1_555
Hg1A N5 1_555 1_555
N5A Hg1 1_555 1_555
N4 C7 1_555 1_555
C4 C5 1_555 1_555
C5 C6 1_555 1_555
C8 C12 1_555 1_555
C16 C17 1_555 1_555

#END
