
#######################################################################
#
#                 Cambridge Crystallographic Data Centre
#                                CCDC 
#
#######################################################################
#
# If this CIF has been generated from an entry in the Cambridge 
# Structural Database, then it will include bibliographic, chemical, 
# crystal, experimental, refinement or atomic coordinate data resulting 
# from the CCDC's data processing and validation procedures.
#
#######################################################################

data_OVEGUS
_symmetry_cell_setting           monoclinic
_symmetry_space_group_name_H-M   'P 21/c'
_symmetry_Int_Tables_number      14
_space_group_name_Hall           '-P 2ybc'
loop_
_symmetry_equiv_pos_site_id
_symmetry_equiv_pos_as_xyz
1 x,y,z
2 -x,1/2+y,1/2-z
3 -x,-y,-z
4 x,1/2-y,1/2+z
_cell_length_a                   9.438(3)
_cell_length_b                   10.988(3)
_cell_length_c                   10.085(3)
_cell_angle_alpha                90
_cell_angle_beta                 103.525(4)
_cell_angle_gamma                90
_cell_volume                     1016.86
loop_
_atom_site_label
_atom_site_type_symbol
_atom_site_fract_x
_atom_site_fract_y
_atom_site_fract_z
Cd1 Cd 0.5000 0.5000 0.0000
C1 C 0.7111(2) 0.70305(19) 0.1435(2)
C2 C 0.8466(2) 0.78125(19) 0.1683(2)
C3 C 0.9514(2) 0.76324(19) 0.0948(2)
H1 H 0.9389 0.7012 0.0304
C4 C 1.0755(2) 0.83619(18) 0.1154(2)
C5 C 1.0927(2) 0.9293(2) 0.2117(3)
H2 H 1.1739 0.9797 0.2255
C6 C 0.9893(3) 0.9467(2) 0.2864(3)
H3 H 1.0019 1.0085 0.3511
C7 C 0.8670(2) 0.8733(2) 0.2662(2)
H4 H 0.7984 0.8853 0.3179
C8 C 1.1909(2) 0.81333(19) 0.0412(2)
C9 C 1.2509(3) 0.9055(2) -0.0226(3)
H5 H 1.2162 0.9844 -0.0191
C10 C 1.4046(3) 0.7727(2) -0.0876(3)
H6 H 1.4786 0.7581 -0.1324
C11 C 1.2498(2) 0.69851(19) 0.0336(2)
H7 H 1.2126 0.6334 0.0736
O1 O 0.4836(3) 0.4614(3) 0.2291(2)
H8 H 0.427(7) 0.411(4) 0.252(7)
H9 H 0.475(5) 0.523(2) 0.275(4)
O2 O 0.70345(17) 0.61712(14) 0.05859(17)
O3 O 0.6159(2) 0.72866(18) 0.2060(2)
N1 N 1.3561(2) 0.88627(18) -0.0884(2)
N2 N 1.3570(2) 0.67776(17) -0.0282(2)
Cd1_2 Cd 1.5000 0.5000 0.0000
Cd1_3 Cd -0.5000 0.5000 0.0000
C1B C 0.2889(2) 0.29695(19) -0.1435(2)
C2B C 0.1534(2) 0.21875(19) -0.1683(2)
C3B C 0.0486(2) 0.23676(19) -0.0948(2)
H1B H 0.0611 0.2988 -0.0304
C4B C -0.0755(2) 0.16381(18) -0.1154(2)
C5B C -0.0927(2) 0.0707(2) -0.2117(3)
H2B H -0.1739 0.0203 -0.2255
C6B C 0.0107(3) 0.0533(2) -0.2864(3)
H3B H -0.0019 -0.0085 -0.3511
C7B C 0.1330(2) 0.1267(2) -0.2662(2)
H4B H 0.2016 0.1147 -0.3179
C8B C -0.1909(2) 0.18667(19) -0.0412(2)
C9B C -0.2509(3) 0.0945(2) 0.0226(3)
H5B H -0.2162 0.0156 0.0191
C10B C -0.4046(3) 0.2273(2) 0.0876(3)
H6B H -0.4786 0.2419 0.1324
C11B C -0.2498(2) 0.30149(19) -0.0336(2)
H7B H -0.2126 0.3666 -0.0736
O1B O 0.5164(3) 0.5386(3) -0.2291(2)
H8B H 0.573(7) 0.589(4) -0.252(7)
H9B H 0.525(5) 0.477(2) -0.275(4)
O2B O 0.29655(17) 0.38288(14) -0.05859(17)
O3B O 0.3841(2) 0.27134(18) -0.2060(2)
N1B N -0.3561(2) 0.11373(18) 0.0884(2)
N2B N -0.3570(2) 0.32224(17) 0.0282(2)
N2_2 N 0.3570(2) 0.67776(17) -0.0282(2)
N2B_2 N 0.6430(2) 0.32224(17) 0.0282(2)
loop_
_geom_bond_atom_site_label_1
_geom_bond_atom_site_label_2
_geom_bond_site_symmetry_1
_geom_bond_site_symmetry_2
Cd1 O1 1_555 1_555
C1 C2 1_555 1_555
C2 C3 1_555 1_555
C3 H1 1_555 1_555
C4 C3 1_555 1_555
C5 C4 1_555 1_555
H2 C5 1_555 1_555
C6 C5 1_555 1_555
H3 C6 1_555 1_555
C7 C2 1_555 1_555
H4 C7 1_555 1_555
C8 C4 1_555 1_555
C9 C8 1_555 1_555
H5 C9 1_555 1_555
C10 H6 1_555 1_555
C11 C8 1_555 1_555
H7 C11 1_555 1_555
O1 H8 1_555 1_555
H9 O1 1_555 1_555
O2 Cd1 1_555 1_555
O3 C1 1_555 1_555
N1 C9 1_555 1_555
N2 C10 1_555 1_555
Cd1_2 N2 1_555 1_555
Cd1_3 N2B 1_555 1_555
C1B C2B 1_555 1_555
C2B C3B 1_555 1_555
C3B H1B 1_555 1_555
C4B C3B 1_555 1_555
C5B C4B 1_555 1_555
H2B C5B 1_555 1_555
C6B C5B 1_555 1_555
H3B C6B 1_555 1_555
C7B C2B 1_555 1_555
H4B C7B 1_555 1_555
C8B C4B 1_555 1_555
C9B C8B 1_555 1_555
H5B C9B 1_555 1_555
C10B H6B 1_555 1_555
C11B C8B 1_555 1_555
H7B C11B 1_555 1_555
O1B Cd1 1_555 1_555
H8B O1B 1_555 1_555
H9B O1B 1_555 1_555
O2B Cd1 1_555 1_555
O3B C1B 1_555 1_555
N1B C9B 1_555 1_555
N2B C10B 1_555 1_555
N2_2 Cd1 1_555 1_555
N2B_2 Cd1 1_555 1_555
C1 O2 1_555 1_555
C6 C7 1_555 1_555
C10 N1 1_555 1_555
C11 N2 1_555 1_555
C1B O2B 1_555 1_555
C6B C7B 1_555 1_555
C10B N1B 1_555 1_555
C11B N2B 1_555 1_555

#END
