
#######################################################################
#
#                 Cambridge Crystallographic Data Centre
#                                CCDC 
#
#######################################################################
#
# If this CIF has been generated from an entry in the Cambridge 
# Structural Database, then it will include bibliographic, chemical, 
# crystal, experimental, refinement or atomic coordinate data resulting 
# from the CCDC's data processing and validation procedures.
#
#######################################################################

data_OVEGEC
_symmetry_cell_setting           triclinic
_symmetry_space_group_name_H-M   'P -1'
_symmetry_Int_Tables_number      2
_space_group_name_Hall           '-P 1'
loop_
_symmetry_equiv_pos_site_id
_symmetry_equiv_pos_as_xyz
1 x,y,z
2 -x,-y,-z
_cell_length_a                   7.8385(16)
_cell_length_b                   10.603(2)
_cell_length_c                   11.901(2)
_cell_angle_alpha                76.14(3)
_cell_angle_beta                 72.45(3)
_cell_angle_gamma                75.42(3)
_cell_volume                     898.235
loop_
_atom_site_label
_atom_site_type_symbol
_atom_site_fract_x
_atom_site_fract_y
_atom_site_fract_z
Er1 Er 0.682159(19) 0.753560(14) 0.281990(13)
K1 K 0.77816(12) 1.09381(9) 0.40413(9)
Ca1 Ca 0.56740(9) 0.40516(7) 0.15542(6)
O1 O 0.6338(4) 0.6317(2) 0.1496(2)
O2 O 0.5740(4) 0.6268(2) -0.0195(2)
O3 O 0.7517(4) 0.9625(3) 0.2422(3)
O4 O 0.7538(5) 1.1655(3) 0.1296(3)
O5 O 0.6141(3) 1.1656(3) -0.2963(3)
O6 O 0.8662(4) 1.0302(3) -0.3704(3)
O7 O 0.9838(3) 0.6602(3) 0.1865(2)
O8 O 1.2648(4) 0.5488(3) 0.1943(3)
O9 O 0.5656(4) 0.8108(3) 0.4800(3)
O10 O 0.5791(4) 0.7558(3) 0.6721(2)
O11 O 1.3649(3) 0.4477(2) 0.6155(2)
O12 O 1.2806(4) 0.6332(3) 0.6926(3)
O13 O 0.8837(5) 0.3991(3) 0.0414(3)
H1 H 0.9580 0.3254 0.0384
N1 N 0.7125(4) 0.8667(3) 0.0730(3)
N2 N 0.9032(4) 0.6999(3) 0.4051(3)
C1 C 0.6278(5) 0.6798(3) 0.0429(3)
C2 C 0.6869(4) 0.8113(3) -0.0086(3)
C3 C 0.7040(5) 0.8723(3) -0.1258(3)
H2 H 0.6911 0.8290 -0.1813
C4 C 0.7408(4) 0.9989(3) -0.1607(3)
C5 C 0.7616(5) 1.0589(3) -0.0755(3)
H3 H 0.7852 1.1443 -0.0960
C6 C 0.7469(5) 0.9897(3) 0.0406(3)
C7 C 0.7548(6) 1.0461(4) 0.1439(4)
C8 C 0.7446(5) 1.0693(3) -0.2876(3)
C9 C 1.1148(5) 0.6135(3) 0.2383(3)
C10 C 1.0745(4) 0.6393(3) 0.3620(3)
C11 C 1.1983(5) 0.5953(3) 0.4304(3)
H4 H 1.3160 0.5521 0.3987
C12 C 1.1442(5) 0.6167(3) 0.5475(3)
C13 C 0.9671(5) 0.6791(3) 0.5925(3)
H5 H 0.9281 0.6955 0.6705
C14 C 0.8491(5) 0.7168(3) 0.5191(3)
C15 C 0.6479(5) 0.7665(4) 0.5614(3)
C16 C 1.2738(5) 0.5628(3) 0.6248(3)
H6 H 0.887(5) 0.431(2) -0.0322(12)
Er1A Er 0.317841(19) 1.246440(14) -0.281990(13)
Er1A_2 Er 1.317841(19) 0.246440(14) 0.718010(13)
K1A K 1.22184(12) 0.90619(9) -0.40413(9)
K1_2 K 0.77816(12) 1.09381(9) -0.59587(9)
K1A_2 K 0.22184(12) 0.90619(9) 0.59587(9)
K1A_3 K 1.22184(12) 0.90619(9) 0.59587(9)
Ca1A Ca 0.43260(9) 0.59484(7) -0.15542(6)
Ca1_2 Ca 0.56740(9) 1.40516(7) 0.15542(6)
Ca1_3 Ca 1.56740(9) 0.40516(7) 0.15542(6)
Ca1A_2 Ca 0.43260(9) 0.59484(7) 0.84458(6)
Ca1A_3 Ca 1.43260(9) 0.59484(7) 0.84458(6)
O2A O 0.4260(4) 0.3732(2) 0.0195(2)
O4_2 O 0.7538(5) 0.1655(3) 0.1296(3)
O5A O 0.3859(3) 0.8344(3) 0.2963(3)
O6A O 1.1338(4) 0.9698(3) 0.3704(3)
O6_2 O 0.8662(4) 1.0302(3) 0.6296(3)
O8_2 O 0.2648(4) 0.5488(3) 0.1943(3)
O9A O 0.4344(4) 1.1892(3) 0.5200(3)
O10A O 0.4209(4) 0.2442(3) 0.3279(2)
O11A O 0.6351(3) 0.5523(2) 0.3845(2)
O12A O 0.7194(4) 1.3668(3) 0.3074(3)
O12A_2 O 0.7194(4) 0.3668(3) 0.3074(3)
loop_
_geom_bond_atom_site_label_1
_geom_bond_atom_site_label_2
_geom_bond_site_symmetry_1
_geom_bond_site_symmetry_2
Er1 O1 1_555 1_555
K1 O3 1_555 1_555
Ca1 O1 1_555 1_555
O1 C1 1_555 1_555
O2 Ca1 1_555 1_555
O3 Er1 1_555 1_555
O4 C7 1_555 1_555
O5 C8 1_555 1_555
O6 C8 1_555 1_555
O7 Er1 1_555 1_555
O8 C9 1_555 1_555
O9 Er1 1_555 1_555
O10 C15 1_555 1_555
O11 C16 1_555 1_555
O12 C16 1_555 1_555
O13 Ca1 1_555 1_555
H1 O13 1_555 1_555
N1 Er1 1_555 1_555
N2 Er1 1_555 1_555
C1 O2 1_555 1_555
C2 N1 1_555 1_555
C3 C2 1_555 1_555
H2 C3 1_555 1_555
C4 C3 1_555 1_555
C5 C4 1_555 1_555
H3 C5 1_555 1_555
C6 N1 1_555 1_555
C7 O3 1_555 1_555
C8 C4 1_555 1_555
C9 O7 1_555 1_555
C10 N2 1_555 1_555
C11 C10 1_555 1_555
H4 C11 1_555 1_555
C12 C11 1_555 1_555
C13 C12 1_555 1_555
H5 C13 1_555 1_555
C14 N2 1_555 1_555
C15 O9 1_555 1_555
C16 C12 1_555 1_555
H6 O13 1_555 1_555
Er1A O5 1_555 1_555
Er1A_2 O11 1_555 1_555
K1A O6 1_555 1_555
K1_2 O6 1_555 1_555
K1A_2 O9 1_555 1_555
K1A_3 O12 1_555 1_555
Ca1A O2 1_555 1_555
Ca1_2 O4 1_555 1_555
Ca1_3 O8 1_555 1_555
Ca1A_2 O10 1_555 1_555
Ca1A_3 O12 1_555 1_555
O2A Ca1 1_555 1_555
O4_2 Ca1 1_555 1_555
O5A Er1 1_555 1_555
O6A K1 1_555 1_555
O6_2 K1 1_555 1_555
O8_2 Ca1 1_555 1_555
O9A K1 1_555 1_555
O10A Ca1 1_555 1_555
O11A Er1 1_555 1_555
O12A K1 1_555 1_555
O12A_2 Ca1 1_555 1_555
C1 C2 1_555 1_555
C5 C6 1_555 1_555
C6 C7 1_555 1_555
C9 C10 1_555 1_555
C13 C14 1_555 1_555
C14 C15 1_555 1_555
K1A_3 O6A 1_555 1_555
K1A_3 O6_2 1_555 1_555
Ca1A O2A 1_555 1_555
Ca1_2 O12A 1_555 1_555

#END
