
#######################################################################
#
#                 Cambridge Crystallographic Data Centre
#                                CCDC 
#
#######################################################################
#
# If this CIF has been generated from an entry in the Cambridge 
# Structural Database, then it will include bibliographic, chemical, 
# crystal, experimental, refinement or atomic coordinate data resulting 
# from the CCDC's data processing and validation procedures.
#
#######################################################################

data_OVEJAB
_symmetry_cell_setting           tetragonal
_symmetry_space_group_name_H-M   'P 41 21 2'
_symmetry_Int_Tables_number      92
_space_group_name_Hall           'P 4abw 2nw'
loop_
_symmetry_equiv_pos_site_id
_symmetry_equiv_pos_as_xyz
1 x,y,z
2 -x,-y,1/2+z
3 1/2-y,1/2+x,1/4+z
4 1/2+y,1/2-x,3/4+z
5 1/2-x,1/2+y,1/4-z
6 1/2+x,1/2-y,3/4-z
7 y,x,-z
8 -y,-x,1/2-z
_cell_length_a                   10.4242(8)
_cell_length_b                   10.4242(8)
_cell_length_c                   32.829(5)
_cell_angle_alpha                90
_cell_angle_beta                 90
_cell_angle_gamma                90
_cell_volume                     3567.33
loop_
_atom_site_label
_atom_site_type_symbol
_atom_site_fract_x
_atom_site_fract_y
_atom_site_fract_z
Cd1 Cd -0.073719(15) 0.926281(15) 0.0000
O1 O 0.07382(16) 0.91631(17) 0.05315(5)
O2 O 0.16360(15) 0.94684(17) -0.00713(5)
O3 O 0.33387(19) 1.0039(2) 0.17759(6)
O4 O 0.54802(17) 0.99868(18) 0.17207(5)
H1 H 0.5482 1.0420 0.1936
O5 O 0.64632(16) 0.9286(2) -0.01510(6)
O6 O 0.75849(15) 0.94503(16) 0.04149(5)
C1 C 0.3003(2) 0.9438(2) 0.05131(8)
C2 C 0.3081(2) 0.9561(2) 0.09339(8)
H3 H 0.2319 0.9559 0.1093
C3 C 0.4265(2) 0.9688(2) 0.11246(7)
C4 C 0.5381(2) 0.9655(2) 0.08937(8)
H4 H 0.6193 0.9732 0.1023
C5 C 0.5307(2) 0.9508(2) 0.04713(8)
C6 C 0.4124(2) 0.9430(2) 0.02842(8)
H5 H 0.4076 0.9369 -0.0004
C7 C 0.1704(2) 0.9338(3) 0.03136(8)
C8 C 0.4294(3) 0.9915(2) 0.15766(8)
C9 C 0.6527(2) 0.9421(3) 0.02270(8)
Cd1_2 Cd 0.926281(15) 0.926281(15) 0.0000
Cd1_3 Cd -0.073719(15) 1.926281(15) 0.0000
O1F O -0.08369(17) 1.07382(16) -0.05315(5)
O2F O -0.05316(17) 1.16360(15) 0.00713(5)
O3F O 0.0039(2) 1.33387(19) -0.17759(6)
O4F O -0.00132(18) 1.54802(17) -0.17207(5)
H1F H 0.0420 1.5482 -0.1936
O5F O -0.0714(2) 1.64632(16) 0.01510(6)
O6F O -0.05497(16) 1.75849(15) -0.04149(5)
O6_2 O -0.24151(15) 0.94503(16) 0.04149(5)
O6F_2 O -0.05497(16) 0.75849(15) -0.04149(5)
C1F C -0.0562(2) 1.3003(2) -0.05131(8)
C2F C -0.0439(2) 1.3081(2) -0.09339(8)
H3F H -0.0441 1.2319 -0.1093
C3F C -0.0312(2) 1.4265(2) -0.11246(7)
C4F C -0.0345(2) 1.5381(2) -0.08937(8)
H4F H -0.0268 1.6193 -0.1023
C5F C -0.0492(2) 1.5307(2) -0.04713(8)
C6F C -0.0570(2) 1.4124(2) -0.02842(8)
H5F H -0.0631 1.4076 0.0004
C7F C -0.0662(3) 1.1704(2) -0.03136(8)
C8F C -0.0085(2) 1.4294(3) -0.15766(8)
C9F C -0.0579(3) 1.6527(2) -0.02270(8)
N1 N 0.8128(2) 0.2162(2) 0.07479(7)
H2 H 0.8617 0.2109 0.0530
C10 C 0.6887(2) 0.2492(2) 0.07008(8)
C11 C 0.6348(3) 0.2604(3) 0.03079(9)
H6 H 0.6871 0.2510 0.0073
C12 C 0.5077(3) 0.2847(3) 0.02690(9)
H7 H 0.4707 0.2902 0.0005
C13 C 0.4296(3) 0.3019(3) 0.06162(9)
H8 H 0.3407 0.3192 0.0582
C14 C 0.4787(3) 0.2944(2) 0.09947(9)
H9 H 0.4250 0.3088 0.1224
C15 C 0.6101(2) 0.2650(2) 0.10518(8)
C16 C 0.6635(2) 0.2426(2) 0.14329(8)
H10 H 0.6134 0.2566 0.1671
C17 C 0.7908(3) 0.1993(2) 0.14718(8)
C18 C 0.8448(3) 0.1662(3) 0.18526(8)
H11 H 0.7941 0.1692 0.2093
C19 C 0.9696(3) 0.1302(3) 0.18710(9)
H12 H 1.0059 0.1072 0.2126
C20 C 1.0466(3) 0.1264(3) 0.15166(10)
H13 H 1.1348 0.1044 0.1539
C21 C 0.9963(3) 0.1538(3) 0.11420(9)
H14 H 1.0479 0.1481 0.0904
C22 C 0.8653(3) 0.1909(2) 0.11150(8)
loop_
_geom_bond_atom_site_label_1
_geom_bond_atom_site_label_2
_geom_bond_site_symmetry_1
_geom_bond_site_symmetry_2
Cd1 O1 1_555 1_555
O1 C7 1_555 1_555
O2 Cd1 1_555 1_555
O3 C8 1_555 1_555
O4 H1 1_555 1_555
O5 C9 1_555 1_555
O6 C9 1_555 1_555
N1 H2 1_555 1_555
C1 C2 1_555 1_555
C2 H3 1_555 1_555
C3 C2 1_555 1_555
C4 C3 1_555 1_555
H4 C4 1_555 1_555
C5 C4 1_555 1_555
C6 C1 1_555 1_555
H5 C6 1_555 1_555
C7 O2 1_555 1_555
C8 O4 1_555 1_555
C9 C5 1_555 1_555
C10 N1 1_555 1_555
C11 C10 1_555 1_555
H6 C11 1_555 1_555
C12 C11 1_555 1_555
H7 C12 1_555 1_555
C13 C12 1_555 1_555
H8 C13 1_555 1_555
C14 C13 1_555 1_555
H9 C14 1_555 1_555
C15 C10 1_555 1_555
C16 C15 1_555 1_555
H10 C16 1_555 1_555
C17 C16 1_555 1_555
C18 C17 1_555 1_555
H11 C18 1_555 1_555
C19 C18 1_555 1_555
H12 C19 1_555 1_555
C20 C19 1_555 1_555
H13 C20 1_555 1_555
C21 C20 1_555 1_555
H14 C21 1_555 1_555
C22 N1 1_555 1_555
Cd1_2 O6 1_555 1_555
Cd1_3 O6F 1_555 1_555
O1F Cd1 1_555 1_555
O2F Cd1 1_555 1_555
O3F C8F 1_555 1_555
O4F H1F 1_555 1_555
O5F C9F 1_555 1_555
O6F C9F 1_555 1_555
O6_2 Cd1 1_555 1_555
O6F_2 Cd1 1_555 1_555
C1F C2F 1_555 1_555
C2F H3F 1_555 1_555
C3F C2F 1_555 1_555
C4F C3F 1_555 1_555
H4F C4F 1_555 1_555
C5F C4F 1_555 1_555
C6F C1F 1_555 1_555
H5F C6F 1_555 1_555
C7F O1F 1_555 1_555
C8F O4F 1_555 1_555
C9F C5F 1_555 1_555
C1 C7 1_555 1_555
C3 C8 1_555 1_555
C5 C6 1_555 1_555
C14 C15 1_555 1_555
C17 C22 1_555 1_555
C21 C22 1_555 1_555
O2F C7F 1_555 1_555
C1F C7F 1_555 1_555
C3F C8F 1_555 1_555
C5F C6F 1_555 1_555

#END
