
#######################################################################
#
#                 Cambridge Crystallographic Data Centre
#                                CCDC 
#
#######################################################################
#
# If this CIF has been generated from an entry in the Cambridge 
# Structural Database, then it will include bibliographic, chemical, 
# crystal, experimental, refinement or atomic coordinate data resulting 
# from the CCDC's data processing and validation procedures.
#
#######################################################################

data_OVEJEF
_symmetry_cell_setting           triclinic
_symmetry_space_group_name_H-M   'P -1'
_symmetry_Int_Tables_number      2
_space_group_name_Hall           '-P 1'
loop_
_symmetry_equiv_pos_site_id
_symmetry_equiv_pos_as_xyz
1 x,y,z
2 -x,-y,-z
_cell_length_a                   9.6481(17)
_cell_length_b                   9.9239(17)
_cell_length_c                   13.906(2)
_cell_angle_alpha                71.224(3)
_cell_angle_beta                 70.221(3)
_cell_angle_gamma                64.035(2)
_cell_volume                     1102.44
loop_
_atom_site_label
_atom_site_type_symbol
_atom_site_fract_x
_atom_site_fract_y
_atom_site_fract_z
Cd1 Cd 1.0000 0.5000 0.5000
Cd2 Cd 0.85292(8) 0.78599(8) 0.64957(6)
O1 O 1.1733(8) 0.4476(8) 0.5855(6)
O2 O 1.1215(8) 0.6735(8) 0.6203(6)
O3 O 1.8087(8) 0.5767(8) 0.6465(5)
O4 O 1.5708(9) 0.7579(8) 0.6709(7)
O5 O 1.6722(9) 0.0200(9) 0.6243(7)
O6 O 1.8771(8) 0.0588(8) 0.6288(6)
O7 O 0.9266(9) 0.7812(8) 0.4634(6)
H1 H 1.0171 0.8139 0.4237
H2 H 0.8364 0.8393 0.4292
N1 N 0.8518(11) 0.7563(11) 0.8230(8)
C1 C 1.2084(11) 0.5405(11) 0.6088(7)
C2 C 1.3755(11) 0.4799(11) 0.6241(7)
C3 C 1.4714(11) 0.3282(12) 0.6212(7)
H3 H 1.4314 0.2625 0.6118
C4 C 1.6551(11) 0.6285(11) 0.6563(8)
C5 C 1.5880(11) 0.5216(11) 0.6492(8)
C6 C 1.4339(11) 0.5768(11) 0.6390(7)
H4 H 1.3674 0.6804 0.6422
C7 C 1.6843(11) 0.3667(11) 0.6470(8)
H5 H 1.7892 0.3282 0.6560
C8 C 1.6289(11) 0.2708(11) 0.6323(8)
C9 C 1.7333(12) 0.1059(11) 0.6279(8)
C10 C 0.7095(19) 0.7842(18) 0.9007(13)
C11 C 0.5637(19) 0.8367(19) 0.8745(14)
H6 H 0.5615 0.8539 0.8036
C12 C 0.421(2) 0.864(2) 0.9510(18)
H7 H 0.3235 0.9009 0.9313
C13 C 0.421(2) 0.841(3) 1.044(2)
H8 H 0.3220 0.8654 1.0938
C14 C 0.579(2) 0.774(2) 1.0840(15)
H9 H 0.5785 0.7471 1.1561
C15 C 0.716(2) 0.756(3) 1.0075(14)
C16 C 0.8720(16) 0.7158(18) 1.0322(10)
C17 C 1.004(2) 0.688(3) 0.9438(15)
C18 C 0.969(3) 0.745(4) 0.8420(14)
H10 H 1.0450 0.7752 0.7853
C19 C 1.161(3) 0.631(3) 0.9632(15)
H11 H 1.2523 0.6109 0.9073
C20 C 1.177(3) 0.606(3) 1.0608(19)
H12 H 1.2802 0.5727 1.0720
C21 C 1.038(3) 0.630(3) 1.151(2)
H13 H 1.0527 0.5974 1.2203
C22 C 0.8882(19) 0.701(3) 1.1331(12)
H14 H 0.7985 0.7394 1.1865
Cd1_2 Cd 2.0000 0.5000 0.5000
Cd1_3 Cd 0.0000 0.5000 0.5000
Cd2A Cd 1.14708(8) 0.21401(8) 0.35043(6)
Cd2_2 Cd 1.85292(8) 0.78599(8) 0.64957(6)
Cd2_3 Cd 1.85292(8) -0.21401(8) 0.64957(6)
Cd2A_2 Cd 0.14708(8) 0.21401(8) 0.35043(6)
Cd2A_3 Cd 0.14708(8) 1.21401(8) 0.35043(6)
O1A O 0.8267(8) 0.5524(8) 0.4145(6)
O2A O 0.8785(8) 0.3265(8) 0.3797(6)
O3A O 0.1913(8) 0.4233(8) 0.3535(5)
O3_2 O 0.8087(8) 0.5767(8) 0.6465(5)
O3A_2 O 1.1913(8) 0.4233(8) 0.3535(5)
O4A O 0.4292(9) 0.2421(8) 0.3291(7)
O4_2 O 0.5708(9) 0.7579(8) 0.6709(7)
O4A_2 O 1.4292(9) 0.2421(8) 0.3291(7)
O5A O 0.3278(9) 0.9800(9) 0.3757(7)
O5_2 O 0.6722(9) 1.0200(9) 0.6243(7)
O5A_2 O 1.3278(9) -0.0200(9) 0.3757(7)
O6A O 0.1229(8) 0.9412(8) 0.3712(6)
O6_2 O 0.8771(8) 1.0588(8) 0.6288(6)
O6A_2 O 1.1229(8) -0.0588(8) 0.3712(6)
O7A O 1.0734(9) 0.2188(8) 0.5366(6)
H1A H 0.9829 0.1861 0.5763
H2A H 1.1636 0.1607 0.5708
N1A N 1.1482(11) 0.2437(11) 0.1770(8)
C1A C 0.7916(11) 0.4595(11) 0.3912(7)
C2A C 0.6245(11) 0.5201(11) 0.3759(7)
C3A C 0.5286(11) 0.6718(12) 0.3788(7)
H3A H 0.5686 0.7375 0.3882
C4A C 0.3449(11) 0.3715(11) 0.3437(8)
C5A C 0.4120(11) 0.4784(11) 0.3508(8)
C6A C 0.5661(11) 0.4232(11) 0.3610(7)
H4A H 0.6326 0.3196 0.3578
C7A C 0.3157(11) 0.6333(11) 0.3530(8)
H5A H 0.2108 0.6718 0.3440
C8A C 0.3711(11) 0.7292(11) 0.3677(8)
C9A C 0.2667(12) 0.8941(11) 0.3721(8)
C10A C 1.2905(19) 0.2158(18) 0.0993(13)
C11A C 1.4363(19) 0.1633(19) 0.1255(14)
H6A H 1.4385 0.1461 0.1964
C12A C 1.579(2) 0.136(2) 0.0490(18)
H7A H 1.6765 0.0991 0.0687
C13A C 1.579(2) 0.159(3) -0.044(2)
H8A H 1.6780 0.1346 -0.0938
C14A C 1.421(2) 0.226(2) -0.0840(15)
H9A H 1.4215 0.2529 -0.1561
C15A C 1.284(2) 0.244(3) -0.0075(14)
C16A C 1.1280(16) 0.2842(18) -0.0322(10)
C17A C 0.996(2) 0.312(3) 0.0562(15)
C18A C 1.031(3) 0.255(4) 0.1580(14)
H10A H 0.9550 0.2248 0.2147
C19A C 0.839(3) 0.369(3) 0.0368(15)
H11A H 0.7477 0.3891 0.0927
C20A C 0.823(3) 0.394(3) -0.0608(19)
H12A H 0.7198 0.4273 -0.0720
C21A C 0.962(3) 0.370(3) -0.151(2)
H13A H 0.9473 0.4026 -0.2203
C22A C 1.1118(19) 0.299(3) -0.1331(12)
H14A H 1.2015 0.2606 -0.1865
O8 O 0.6603(17) -0.0296(17) 0.4100(17)
H15 H 0.6277 -0.0134 0.3561
H16 H 0.6079 0.0469 0.4392
loop_
_geom_bond_atom_site_label_1
_geom_bond_atom_site_label_2
_geom_bond_site_symmetry_1
_geom_bond_site_symmetry_2
Cd1 O1 1_555 1_555
Cd2 O2 1_555 1_555
O1 C1 1_555 1_555
O2 C1 1_555 1_555
O3 C4 1_555 1_555
O4 C4 1_555 1_555
O5 C9 1_555 1_555
O6 C9 1_555 1_555
O7 Cd1 1_555 1_555
H1 O7 1_555 1_555
H2 O7 1_555 1_555
N1 Cd2 1_555 1_555
C1 C2 1_555 1_555
C2 C3 1_555 1_555
C3 H3 1_555 1_555
C4 C5 1_555 1_555
C5 C6 1_555 1_555
C6 C2 1_555 1_555
H4 C6 1_555 1_555
C7 C5 1_555 1_555
H5 C7 1_555 1_555
C8 C3 1_555 1_555
C9 C8 1_555 1_555
C10 N1 1_555 1_555
C11 C10 1_555 1_555
H6 C11 1_555 1_555
C12 C11 1_555 1_555
H7 C12 1_555 1_555
C13 C12 1_555 1_555
H8 C13 1_555 1_555
C14 C13 1_555 1_555
H9 C14 1_555 1_555
C15 C10 1_555 1_555
C16 C15 1_555 1_555
C17 C16 1_555 1_555
C18 N1 1_555 1_555
H10 C18 1_555 1_555
C19 C17 1_555 1_555
H11 C19 1_555 1_555
C20 C19 1_555 1_555
H12 C20 1_555 1_555
C21 C20 1_555 1_555
H13 C21 1_555 1_555
C22 C16 1_555 1_555
H14 C22 1_555 1_555
O8 H15 1_555 1_555
H16 O8 1_555 1_555
Cd1_2 O3 1_555 1_555
Cd1_3 O3A 1_555 1_555
Cd2A O2A 1_555 1_555
Cd2_2 O3 1_555 1_555
Cd2_3 O5 1_555 1_555
Cd2A_2 O3A 1_555 1_555
Cd2A_3 O5A 1_555 1_555
O1A Cd1 1_555 1_555
O2A C1A 1_555 1_555
O3A C4A 1_555 1_555
O3_2 Cd1 1_555 1_555
O3A_2 Cd1 1_555 1_555
O4A Cd2A_2 1_555 1_555
O4_2 Cd2 1_555 1_555
O4A_2 Cd2A 1_555 1_555
O5A C9A 1_555 1_555
O5_2 Cd2 1_555 1_555
O5A_2 Cd2A 1_555 1_555
O6A Cd2A_3 1_555 1_555
O6_2 Cd2 1_555 1_555
O6A_2 Cd2A 1_555 1_555
O7A Cd1 1_555 1_555
H1A O7A 1_555 1_555
H2A O7A 1_555 1_555
N1A Cd2A 1_555 1_555
C1A O1A 1_555 1_555
C2A C1A 1_555 1_555
C3A C2A 1_555 1_555
H3A C3A 1_555 1_555
C4A O4A 1_555 1_555
C5A C4A 1_555 1_555
C6A C2A 1_555 1_555
H4A C6A 1_555 1_555
C7A C5A 1_555 1_555
H5A C7A 1_555 1_555
C8A C3A 1_555 1_555
C9A O6A 1_555 1_555
C10A N1A 1_555 1_555
C11A C10A 1_555 1_555
H6A C11A 1_555 1_555
C12A C11A 1_555 1_555
H7A C12A 1_555 1_555
C13A C12A 1_555 1_555
H8A C13A 1_555 1_555
C14A C13A 1_555 1_555
H9A C14A 1_555 1_555
C15A C10A 1_555 1_555
C16A C15A 1_555 1_555
C17A C16A 1_555 1_555
C18A N1A 1_555 1_555
H10A C18A 1_555 1_555
C19A C17A 1_555 1_555
H11A C19A 1_555 1_555
C20A C19A 1_555 1_555
H12A C20A 1_555 1_555
C21A C20A 1_555 1_555
H13A C21A 1_555 1_555
C22A C16A 1_555 1_555
H14A C22A 1_555 1_555
Cd2 O7 1_555 1_555
Cd2 O3_2 1_555 1_555
O4 Cd2_2 1_555 1_555
O6 Cd2_3 1_555 1_555
C7 C8 1_555 1_555
C14 C15 1_555 1_555
C17 C18 1_555 1_555
C21 C22 1_555 1_555
Cd2A O3A_2 1_555 1_555
Cd2A O7A 1_555 1_555
C5A C6A 1_555 1_555
C7A C8A 1_555 1_555
C8A C9A 1_555 1_555
C14A C15A 1_555 1_555
C17A C18A 1_555 1_555
C21A C22A 1_555 1_555

#END
