
#######################################################################
#
#                 Cambridge Crystallographic Data Centre
#                                CCDC 
#
#######################################################################
#
# If this CIF has been generated from an entry in the Cambridge 
# Structural Database, then it will include bibliographic, chemical, 
# crystal, experimental, refinement or atomic coordinate data resulting 
# from the CCDC's data processing and validation procedures.
#
#######################################################################

data_OVEKIK
_symmetry_cell_setting           monoclinic
_symmetry_space_group_name_H-M   'P 2/c'
_symmetry_Int_Tables_number      13
_space_group_name_Hall           '-P 2yc'
loop_
_symmetry_equiv_pos_site_id
_symmetry_equiv_pos_as_xyz
1 x,y,z
2 -x,y,1/2-z
3 -x,-y,-z
4 x,-y,1/2+z
_cell_length_a                   12.088(3)
_cell_length_b                   10.018(3)
_cell_length_c                   17.441(5)
_cell_angle_alpha                90
_cell_angle_beta                 101.129(7)
_cell_angle_gamma                90
_cell_volume                     2072.35
loop_
_atom_site_label
_atom_site_type_symbol
_atom_site_fract_x
_atom_site_fract_y
_atom_site_fract_z
C1 C 0.3507(5) 0.4491(6) 0.1657(4)
C2 C 0.3486(5) 0.5863(6) 0.1622(4)
C3 C 0.2676(5) 0.6828(6) 0.1817(4)
C4 C 0.2705(5) 0.3539(6) 0.1869(3)
C5 C 0.6015(5) 0.5114(7) 0.0897(4)
C6 C 0.4966(5) 0.5137(6) 0.1215(4)
C7 C 0.2407(5) 0.7976(6) 0.1377(4)
H1 H 0.2745 0.8151 0.0952
C8 C 0.3067(5) 0.2406(6) 0.2297(4)
H2 H 0.3833 0.2236 0.2454
C9 C 0.0821(5) 0.2761(6) 0.1827(4)
H3 H 0.0051 0.2881 0.1652
C10 C 0.1543(5) 0.3709(6) 0.1636(4)
H4 H 0.1258 0.4462 0.1353
C11 C 0.2286(5) 0.1532(7) 0.2490(4)
H5 H 0.2542 0.0801 0.2803
C12 C 0.2154(5) 0.6647(6) 0.2445(4)
H6 H 0.2302 0.5885 0.2751
C13 C 0.7463(7) 0.6176(11) 0.0380(5)
H7 H 0.7761 0.6959 0.0216
C14 C 0.6458(6) 0.6266(8) 0.0645(5)
H8 H 0.6091 0.7081 0.0653
C15 C 0.6577(6) 0.3945(8) 0.0845(4)
H9 H 0.6289 0.3145 0.0993
C16 C 0.7579(7) 0.3959(11) 0.0569(5)
H10 H 0.7956 0.3156 0.0542
C17 C 0.1633(6) 0.8854(7) 0.1577(4)
H11 H 0.1448 0.9609 0.1268
C18 C 0.1415(5) 0.7587(6) 0.2620(4)
H12 H 0.1096 0.7456 0.3059
Cl1 Cl -0.0954(2) 0.0211(3) 0.11910(18)
Co1 Co 0.0000 0.01816(10) 0.2500
N1 N 0.1164(4) 0.1689(5) 0.2246(3)
N2 N 0.8024(6) 0.5073(9) 0.0342(5)
N3 N 0.1134(4) 0.8681(5) 0.2188(3)
N4 N 0.4450(4) 0.4053(5) 0.1407(3)
H23 H 0.4665 0.3239 0.1381
N5 N 0.4415(4) 0.6250(5) 0.1330(3)
C1A C -0.3507(5) 0.4491(6) 0.3343(4)
C2A C -0.3486(5) 0.5863(6) 0.3378(4)
C3A C -0.2676(5) 0.6828(6) 0.3183(4)
C4A C -0.2705(5) 0.3539(6) 0.3131(3)
C5A C -0.6015(5) 0.5114(7) 0.4103(4)
C6A C -0.4966(5) 0.5137(6) 0.3785(4)
C7A C -0.2407(5) 0.7976(6) 0.3623(4)
H1A H -0.2745 0.8151 0.4048
C8A C -0.3067(5) 0.2406(6) 0.2703(4)
H2A H -0.3833 0.2236 0.2546
C9A C -0.0821(5) 0.2761(6) 0.3173(4)
H3A H -0.0051 0.2881 0.3348
C10A C -0.1543(5) 0.3709(6) 0.3364(4)
H4A H -0.1258 0.4462 0.3647
C11A C -0.2286(5) 0.1532(7) 0.2510(4)
H5A H -0.2542 0.0801 0.2197
C12A C -0.2154(5) 0.6647(6) 0.2555(4)
H6A H -0.2302 0.5885 0.2249
C13A C -0.7463(7) 0.6176(11) 0.4620(5)
H7A H -0.7761 0.6959 0.4784
C14A C -0.6458(6) 0.6266(8) 0.4355(5)
H8A H -0.6091 0.7081 0.4347
C15A C -0.6577(6) 0.3945(8) 0.4155(4)
H9A H -0.6289 0.3145 0.4007
C16A C -0.7579(7) 0.3959(11) 0.4431(5)
H10A H -0.7956 0.3156 0.4458
C17A C -0.1633(6) 0.8854(7) 0.3423(4)
H11A H -0.1448 0.9609 0.3732
C18A C -0.1415(5) 0.7587(6) 0.2380(4)
H12A H -0.1096 0.7456 0.1941
Cl1A Cl 0.0954(2) 0.0211(3) 0.38090(18)
Co1_2 Co 0.0000 1.01816(10) 0.2500
N1A N -0.1164(4) 0.1689(5) 0.2754(3)
N2A N -0.8024(6) 0.5073(9) 0.4658(5)
N3A N -0.1134(4) 0.8681(5) 0.2812(3)
N3_2 N 0.1134(4) -0.1319(5) 0.2188(3)
N3A_2 N -0.1134(4) -0.1319(5) 0.2812(3)
N4A N -0.4450(4) 0.4053(5) 0.3593(3)
H23A H -0.4665 0.3239 0.3619
N5A N -0.4415(4) 0.6250(5) 0.3670(3)
H13 H 0.9552 0.3702 1.0121
H16 H 1.0242 0.3224 0.9746
O1 O 0.9793(8) 0.3884(10) 0.9706(6)
H14 H 0.3929 0.1227 0.0733
H17 H 0.4682 0.0369 0.0755
O4 O 0.4651(6) 0.1254(6) 0.0879(5)
H15 H 0.6354 0.0127 0.0751
H18 H 0.7274 -0.0227 0.0602
O5 O 0.6707(8) 0.0215(14) 0.0381(6)
H19 H 0.0297 0.1298 -0.0268
H21 H -0.0241 0.0568 0.0118
O2 O 0.0187(10) 0.1258(11) 0.0198(5)
H20 H 0.5322 0.8177 0.1620
H22 H 0.5104 0.8928 0.2145
O3 O 0.5360(5) 0.8998(5) 0.1733(4)
loop_
_geom_bond_atom_site_label_1
_geom_bond_atom_site_label_2
_geom_bond_site_symmetry_1
_geom_bond_site_symmetry_2
C1 C2 1_555 1_555
C2 C3 1_555 1_555
C3 C7 1_555 1_555
C4 C1 1_555 1_555
C5 C6 1_555 1_555
C6 N4 1_555 1_555
C7 H1 1_555 1_555
C8 C4 1_555 1_555
H2 C8 1_555 1_555
C9 H3 1_555 1_555
C10 C4 1_555 1_555
H4 C10 1_555 1_555
C11 C8 1_555 1_555
H5 C11 1_555 1_555
C12 C3 1_555 1_555
H6 C12 1_555 1_555
C13 H7 1_555 1_555
C14 C5 1_555 1_555
H8 C14 1_555 1_555
C15 C5 1_555 1_555
H9 C15 1_555 1_555
C16 C15 1_555 1_555
H10 C16 1_555 1_555
C17 C7 1_555 1_555
H11 C17 1_555 1_555
C18 C12 1_555 1_555
H12 C18 1_555 1_555
Cl1 Co1 1_555 1_555
Co1 N1 1_555 1_555
H13 O1 1_555 1_555
H14 O4 1_555 1_555
H15 O5 1_555 1_555
H16 O1 1_555 1_555
H17 O4 1_555 1_555
H18 O5 1_555 1_555
H19 O2 1_555 1_555
H20 O3 1_555 1_555
H21 O2 1_555 1_555
H22 O3 1_555 1_555
N1 C9 1_555 1_555
N2 C13 1_555 1_555
N3 C17 1_555 1_555
N4 C1 1_555 1_555
H23 N4 1_555 1_555
N5 C2 1_555 1_555
C1A C2A 1_555 1_555
C2A C3A 1_555 1_555
C3A C7A 1_555 1_555
C4A C1A 1_555 1_555
C5A C6A 1_555 1_555
C6A N4A 1_555 1_555
C7A H1A 1_555 1_555
C8A C4A 1_555 1_555
H2A C8A 1_555 1_555
C9A H3A 1_555 1_555
C10A C4A 1_555 1_555
H4A C10A 1_555 1_555
C11A C8A 1_555 1_555
H5A C11A 1_555 1_555
C12A C3A 1_555 1_555
H6A C12A 1_555 1_555
C13A H7A 1_555 1_555
C14A C5A 1_555 1_555
H8A C14A 1_555 1_555
C15A C5A 1_555 1_555
H9A C15A 1_555 1_555
C16A C15A 1_555 1_555
H10A C16A 1_555 1_555
C17A C7A 1_555 1_555
H11A C17A 1_555 1_555
C18A C12A 1_555 1_555
H12A C18A 1_555 1_555
Cl1A Co1 1_555 1_555
Co1_2 N3 1_555 1_555
N1A Co1 1_555 1_555
N2A C13A 1_555 1_555
N3A C17A 1_555 1_555
N3_2 Co1 1_555 1_555
N3A_2 Co1 1_555 1_555
N4A C1A 1_555 1_555
H23A N4A 1_555 1_555
N5A C2A 1_555 1_555
C6 N5 1_555 1_555
C9 C10 1_555 1_555
C11 N1 1_555 1_555
C13 C14 1_555 1_555
C16 N2 1_555 1_555
C18 N3 1_555 1_555
C6A N5A 1_555 1_555
C9A C10A 1_555 1_555
C9A N1A 1_555 1_555
C11A N1A 1_555 1_555
C13A C14A 1_555 1_555
C16A N2A 1_555 1_555
C18A N3A 1_555 1_555
Co1_2 N3A 1_555 1_555

#END
