
#######################################################################
#
#                 Cambridge Crystallographic Data Centre
#                                CCDC 
#
#######################################################################
#
# If this CIF has been generated from an entry in the Cambridge 
# Structural Database, then it will include bibliographic, chemical, 
# crystal, experimental, refinement or atomic coordinate data resulting 
# from the CCDC's data processing and validation procedures.
#
#######################################################################

data_OVEXUJ
_symmetry_cell_setting           triclinic
_symmetry_space_group_name_H-M   'P -1'
_symmetry_Int_Tables_number      2
_space_group_name_Hall           '-P 1'
loop_
_symmetry_equiv_pos_site_id
_symmetry_equiv_pos_as_xyz
1 x,y,z
2 -x,-y,-z
_cell_length_a                   11.135(2)
_cell_length_b                   11.234(2)
_cell_length_c                   21.495(4)
_cell_angle_alpha                96.09(3)
_cell_angle_beta                 94.38(3)
_cell_angle_gamma                92.40(3)
_cell_volume                     2662.45
loop_
_atom_site_label
_atom_site_type_symbol
_atom_site_fract_x
_atom_site_fract_y
_atom_site_fract_z
Mn1 Mn 0.02572(16) 0.28553(14) 0.12862(7)
Mn2 Mn 0.04651(12) 0.60940(12) 0.14970(6)
Mn3 Mn -0.02597(12) 0.45634(11) 0.27446(6)
O1 O 0.0329(6) 0.2881(6) 0.3060(3)
O2 O 0.0736(8) 0.2050(8) 0.2120(4)
O3 O 0.0799(7) 0.3610(6) 0.7006(3)
O4 O 0.0707(7) 0.2880(7) 0.7929(4)
O5 O 0.1932(7) 0.5919(8) 0.2186(4)
O6 O 0.1528(7) 0.5241(7) 0.3082(4)
O7 O 0.2422(9) 0.6545(10) 0.7731(5)
O8 O 0.1847(7) 0.5872(7) 0.6755(5)
O9 O 0.2165(11) 0.3302(9) 0.1226(6)
O10 O 0.1405(8) 0.4860(12) 0.0844(4)
O11 O 0.8590(10) 1.2381(9) -0.1240(6)
O12 O 0.9117(10) 1.1026(13) -0.0622(6)
O13 O -0.0860(8) 0.6111(9) 0.0643(4)
O14 O -0.1026(10) 0.3476(10) 0.0400(5)
O15 O 0.0514(10) 0.1480(10) 0.0529(4)
O16 O -0.1589(9) 0.1901(11) 0.1387(5)
O17 O -0.0378(6) 0.4457(5) 0.1762(3)
N1 N 0.1214(7) -0.1357(6) 0.5334(4)
N2 N 0.1123(8) -0.1476(7) 0.4689(4)
N3 N 0.1659(7) 0.0373(6) 0.5032(4)
N4 N 0.2161(11) 0.1558(7) 0.5045(4)
H1 H 0.2336 0.1828 0.4701
H2 H 0.2291 0.2006 0.5396
N5 N 0.6465(7) 0.6004(7) 0.4720(4)
N6 N 0.6530(6) 0.6135(7) 0.5366(4)
N7 N 0.4795(6) 0.6740(7) 0.5008(4)
N8 N 0.3686(8) 0.7306(11) 0.4981(4)
H3 H 0.3343 0.7440 0.4625
H4 H 0.3353 0.7516 0.5321
N9 N 0.3747(10) 0.8373(12) -0.0609(6)
N10 N 0.3638(12) 0.7531(10) -0.0242(5)
N11 N 0.5420(9) 0.7891(10) -0.0112(5)
N12 N 0.6716(13) 0.7936(13) 0.0023(6)
H5 H 0.719(4) 0.736(3) 0.005(3)
H6 H 0.702(3) 0.850(3) 0.0306(14)
C1 C 0.1553(7) -0.0238(8) 0.5534(4)
C2 C 0.1417(8) -0.0407(7) 0.4512(4)
C3 C 0.1741(8) 0.0228(8) 0.6209(4)
C4 C 0.1371(8) 0.1318(8) 0.6451(5)
H7 H 0.1063 0.1843 0.6179
C5 C 0.1447(8) 0.1649(8) 0.7091(5)
C6 C 0.1918(11) 0.0879(9) 0.7490(5)
H8 H 0.1962 0.1090 0.7921
C7 C 0.2334(12) -0.0228(10) 0.7248(5)
H9 H 0.2675 -0.0737 0.7519
C8 C 0.2240(10) -0.0551(9) 0.6622(5)
H10 H 0.2503 -0.1289 0.6463
C9 C 0.0952(9) 0.2806(9) 0.7361(5)
C10 C 0.1463(8) -0.0216(8) 0.3851(4)
C11 C 0.1076(8) 0.0839(8) 0.3607(4)
H11 H 0.0818 0.1468 0.3873
C12 C 0.1085(8) 0.0926(8) 0.2971(4)
C13 C 0.1487(10) -0.0014(9) 0.2587(5)
H12 H 0.1504 0.0055 0.2160
C14 C 0.1858(12) -0.1035(11) 0.2810(6)
H13 H 0.2109 -0.1657 0.2537
C15 C 0.1863(10) -0.1145(9) 0.3447(5)
H14 H 0.2132 -0.1835 0.3604
C16 C 0.0688(8) 0.2037(8) 0.2695(5)
C17 C 0.5406(7) 0.6369(8) 0.4515(4)
C18 C 0.5520(8) 0.6585(8) 0.5543(4)
C19 C 0.5009(8) 0.6363(9) 0.3844(4)
C20 C 0.3832(8) 0.6052(9) 0.3616(5)
H15 H 0.3266 0.5857 0.3891
C21 C 0.3486(9) 0.6028(8) 0.2976(5)
C22 C 0.4351(10) 0.6297(10) 0.2580(5)
H16 H 0.4130 0.6284 0.2153
C23 C 0.5527(11) 0.6583(11) 0.2797(6)
H17 H 0.6092 0.6755 0.2519
C24 C 0.5880(10) 0.6618(11) 0.3438(5)
H18 H 0.6678 0.6807 0.3590
C25 C 0.2218(9) 0.5711(9) 0.2739(5)
C26 C 0.5220(8) 0.6875(9) 0.6180(5)
C27 C 0.4090(8) 0.6531(8) 0.6359(5)
H19 H 0.3514 0.6137 0.6064
C28 C 0.3827(9) 0.6782(9) 0.6983(5)
C29 C 0.4662(11) 0.7378(11) 0.7410(6)
H20 H 0.4468 0.7582 0.7820
C30 C 0.5781(13) 0.7679(14) 0.7245(6)
H21 H 0.6359 0.8044 0.7548
C31 C 0.6066(10) 0.7445(12) 0.6626(6)
H22 H 0.6825 0.7674 0.6513
C32 C 0.2611(11) 0.6353(11) 0.7167(7)
C33 C 0.4549(15) 0.7243(13) 0.0029(6)
C34 C 0.4894(13) 0.8666(14) -0.0553(7)
C35 C 0.4646(13) 0.6289(13) 0.0488(7)
C36 C 0.3711(12) 0.5728(9) 0.0620(5)
H23 H 0.3000 0.6010 0.0450
C37 C 0.3529(8) 0.4776(8) 0.0969(5)
C38 C 0.4552(13) 0.4384(13) 0.1254(6)
H24 H 0.4535 0.3744 0.1494
C39 C 0.5682(11) 0.5035(14) 0.1157(7)
H25 H 0.6427 0.4860 0.1342
C40 C 0.5542(17) 0.5937(13) 0.0763(6)
H26 H 0.6259 0.6344 0.0698
C41 C 0.2260(12) 0.4282(12) 0.1007(6)
C42 C 0.5380(14) 0.9568(10) -0.0907(7)
C43 C 0.6742(14) 1.0044(10) -0.0743(6)
H27 H 0.7254 0.9731 -0.0447
C44 C 0.7101(10) 1.0950(8) -0.1073(5)
C45 C 0.6304(12) 1.1335(12) -0.1499(6)
H28 H 0.6606 1.1917 -0.1730
C46 C 0.5112(18) 1.0993(18) -0.1641(9)
H29 H 0.4593 1.1343 -0.1921
C47 C 0.4824(16) 1.0160(15) -0.1348(7)
H30 H 0.4033 0.9870 -0.1457
C48 C 0.8339(11) 1.1555(11) -0.0964(5)
Mn1A Mn -0.02572(16) 0.71447(14) 0.87138(7)
Mn1A_2 Mn 0.97428(16) 1.71447(14) -0.12862(7)
Mn2A Mn -0.04651(12) 0.39060(12) 0.85030(6)
Mn2A_2 Mn 0.95349(12) 1.39060(12) -0.14970(6)
Mn3A Mn 0.02597(12) 0.54366(11) 0.72554(6)
O1A O -0.0329(6) 0.7119(6) 0.6940(3)
O2A O -0.0736(8) 0.7950(8) 0.7880(4)
O3A O -0.0799(7) 0.6390(6) 0.2994(3)
O4A O -0.0707(7) 0.7120(7) 0.2071(4)
O5A O -0.1932(7) 0.4081(8) 0.7814(4)
O6A O -0.1528(7) 0.4759(7) 0.6918(4)
O7A O -0.2422(9) 0.3455(10) 0.2269(5)
O8A O -0.1847(7) 0.4128(7) 0.3245(5)
O9A O 0.7835(11) 1.6698(9) -0.1226(6)
O9A_2 O -0.2165(11) 0.6698(9) 0.8774(6)
O10A O 0.8595(8) 1.5140(12) -0.0844(4)
O10A_2 O -0.1405(8) 0.5140(12) 0.9156(4)
O11A O 0.1410(10) 0.7619(9) 0.1240(6)
O11_2 O -0.1410(10) 0.2381(9) 0.8760(6)
O12A O 0.0883(10) 0.8974(13) 0.0622(6)
O13A O 0.0860(8) 0.3889(9) 0.9357(4)
O14A O 0.1026(10) 0.6524(10) 0.9600(5)
O15A O -0.0514(10) 0.8520(10) 0.9471(4)
O16A O 0.1589(9) 0.8099(11) 0.8613(5)
O17A O 0.0378(6) 0.5543(5) 0.8238(3)
N1A N -0.1214(7) 1.1357(6) 0.4666(4)
N2A N -0.1123(8) 1.1476(7) 0.5311(4)
N3A N -0.1659(7) 0.9627(6) 0.4968(4)
N4A N -0.2161(11) 0.8442(7) 0.4955(4)
H1A H -0.2336 0.8172 0.5299
H2A H -0.2291 0.7994 0.4604
N5A N -0.6465(7) 0.3996(7) 0.5280(4)
N6A N -0.6530(6) 0.3865(7) 0.4634(4)
N7A N -0.4795(6) 0.3260(7) 0.4992(4)
N8A N -0.3686(8) 0.2694(11) 0.5019(4)
H3A H -0.3343 0.2560 0.5375
H4A H -0.3353 0.2484 0.4679
N9A N 0.6253(10) 1.1627(12) 0.0609(6)
N10A N 0.6362(12) 1.2469(10) 0.0242(5)
N11A N 0.4580(9) 1.2109(10) 0.0112(5)
N12A N 0.3284(13) 1.2064(13) -0.0023(6)
H5A H 0.281(4) 1.264(3) -0.005(3)
H6A H 0.298(3) 1.150(3) -0.0306(14)
C1A C -0.1553(7) 1.0238(8) 0.4466(4)
C2A C -0.1417(8) 1.0407(7) 0.5488(4)
C3A C -0.1741(8) 0.9772(8) 0.3791(4)
C4A C -0.1371(8) 0.8682(8) 0.3549(5)
H7A H -0.1063 0.8157 0.3821
C5A C -0.1447(8) 0.8351(8) 0.2909(5)
C6A C -0.1918(11) 0.9121(9) 0.2510(5)
H8A H -0.1962 0.8910 0.2079
C7A C -0.2334(12) 1.0228(10) 0.2752(5)
H9A H -0.2675 1.0737 0.2481
C8A C -0.2240(10) 1.0551(9) 0.3378(5)
H10A H -0.2503 1.1289 0.3537
C9A C -0.0952(9) 0.7194(9) 0.2639(5)
C10A C -0.1463(8) 1.0216(8) 0.6149(4)
C11A C -0.1076(8) 0.9161(8) 0.6393(4)
H11A H -0.0818 0.8532 0.6127
C12A C -0.1085(8) 0.9074(8) 0.7029(4)
C13A C -0.1487(10) 1.0014(9) 0.7413(5)
H12A H -0.1504 0.9945 0.7840
C14A C -0.1858(12) 1.1035(11) 0.7190(6)
H13A H -0.2109 1.1657 0.7463
C15A C -0.1863(10) 1.1145(9) 0.6553(5)
H14A H -0.2132 1.1835 0.6396
C16A C -0.0688(8) 0.7963(8) 0.7305(5)
C17A C -0.5406(7) 0.3631(8) 0.5485(4)
C18A C -0.5520(8) 0.3415(8) 0.4457(4)
C19A C -0.5009(8) 0.3637(9) 0.6156(4)
C20A C -0.3832(8) 0.3948(9) 0.6384(5)
H15A H -0.3266 0.4143 0.6109
C21A C -0.3486(9) 0.3972(8) 0.7024(5)
C22A C -0.4351(10) 0.3703(10) 0.7420(5)
H16A H -0.4130 0.3716 0.7847
C23A C -0.5527(11) 0.3417(11) 0.7203(6)
H17A H -0.6092 0.3245 0.7481
C24A C -0.5880(10) 0.3382(11) 0.6562(5)
H18A H -0.6678 0.3193 0.6410
C25A C -0.2218(9) 0.4289(9) 0.7261(5)
C26A C -0.5220(8) 0.3125(9) 0.3820(5)
C27A C -0.4090(8) 0.3469(8) 0.3641(5)
H19A H -0.3514 0.3863 0.3936
C28A C -0.3827(9) 0.3218(9) 0.3017(5)
C29A C -0.4662(11) 0.2622(11) 0.2590(6)
H20A H -0.4468 0.2418 0.2180
C30A C -0.5781(13) 0.2321(14) 0.2755(6)
H21A H -0.6359 0.1956 0.2452
C31A C -0.6066(10) 0.2555(12) 0.3374(6)
H22A H -0.6825 0.2326 0.3487
C32A C -0.2611(11) 0.3647(11) 0.2833(7)
C33A C 0.5451(15) 1.2757(13) -0.0029(6)
C34A C 0.5106(13) 1.1334(14) 0.0553(7)
C35A C 0.5354(13) 1.3711(13) -0.0488(7)
C36A C 0.6289(12) 1.4272(9) -0.0620(5)
H23A H 0.7000 1.3990 -0.0450
C37A C 0.6471(8) 1.5224(8) -0.0969(5)
C38A C 0.5448(13) 1.5616(13) -0.1254(6)
H24A H 0.5465 1.6256 -0.1494
C39A C 0.4318(11) 1.4965(14) -0.1157(7)
H25A H 0.3573 1.5140 -0.1342
C40A C 0.4458(17) 1.4063(13) -0.0763(6)
H26A H 0.3741 1.3656 -0.0698
C41A C 0.7740(12) 1.5718(12) -0.1007(6)
C42A C 0.4620(14) 1.0432(10) 0.0907(7)
C43A C 0.3258(14) 0.9956(10) 0.0743(6)
H27A H 0.2746 1.0269 0.0447
C44A C 0.2899(10) 0.9050(8) 0.1073(5)
C45A C 0.3696(12) 0.8665(12) 0.1499(6)
H28A H 0.3394 0.8083 0.1730
C46A C 0.4888(18) 0.9007(18) 0.1641(9)
H29A H 0.5407 0.8657 0.1921
C47A C 0.5176(16) 0.9840(15) 0.1348(7)
H30A H 0.5967 1.0130 0.1457
C48A C 0.1661(11) 0.8445(11) 0.0964(5)
Mn4 Mn 0.0000 0.5000 0.5000
O18 O 0.042(3) 0.3745(12) 0.5657(6)
O19 O 0.1404(10) 0.6182(13) 0.5517(6)
O20 O -0.1080(11) 0.6046(15) 0.5647(5)
O18A O -0.042(3) 0.6255(12) 0.4343(6)
O19A O -0.1404(10) 0.3818(13) 0.4483(6)
O20A O 0.1080(11) 0.3954(15) 0.4353(5)
O21 O 0.144(2) 0.071(3) 0.9026(9)
O22 O 0.481(5) 1.003(5) 0.557(2)
loop_
_geom_bond_atom_site_label_1
_geom_bond_atom_site_label_2
_geom_bond_site_symmetry_1
_geom_bond_site_symmetry_2
Mn1 O2 1_555 1_555
Mn2 O5 1_555 1_555
Mn3 O1 1_555 1_555
Mn4 O18 1_555 1_555
O1 C16 1_555 1_555
O2 C16 1_555 1_555
O3 C9 1_555 1_555
O4 C9 1_555 1_555
O5 C25 1_555 1_555
O6 Mn3 1_555 1_555
O7 C32 1_555 1_555
O8 C32 1_555 1_555
O9 Mn1 1_555 1_555
O10 Mn2 1_555 1_555
O11 C48 1_555 1_555
O12 C48 1_555 1_555
O13 Mn2 1_555 1_555
O14 Mn1 1_555 1_555
O15 Mn1 1_555 1_555
O16 Mn1 1_555 1_555
O17 Mn1 1_555 1_555
O19 Mn4 1_555 1_555
O20 Mn4 1_555 1_555
N1 N2 1_555 1_555
N2 C2 1_555 1_555
N3 N4 1_555 1_555
N4 H1 1_555 1_555
H2 N4 1_555 1_555
N5 N6 1_555 1_555
N6 C18 1_555 1_555
N7 N8 1_555 1_555
N8 H3 1_555 1_555
H4 N8 1_555 1_555
N9 N10 1_555 1_555
N10 C33 1_555 1_555
N11 N12 1_555 1_555
N12 H5 1_555 1_555
H6 N12 1_555 1_555
C1 N1 1_555 1_555
C2 N3 1_555 1_555
C3 C1 1_555 1_555
C4 C3 1_555 1_555
H7 C4 1_555 1_555
C5 C4 1_555 1_555
C6 C5 1_555 1_555
H8 C6 1_555 1_555
C7 C6 1_555 1_555
H9 C7 1_555 1_555
C8 C3 1_555 1_555
H10 C8 1_555 1_555
C9 C5 1_555 1_555
C10 C2 1_555 1_555
C11 C10 1_555 1_555
H11 C11 1_555 1_555
C12 C11 1_555 1_555
C13 C12 1_555 1_555
H12 C13 1_555 1_555
C14 C13 1_555 1_555
H13 C14 1_555 1_555
C15 C10 1_555 1_555
H14 C15 1_555 1_555
C16 C12 1_555 1_555
C17 N5 1_555 1_555
C18 N7 1_555 1_555
C19 C17 1_555 1_555
C20 C19 1_555 1_555
H15 C20 1_555 1_555
C21 C20 1_555 1_555
C22 C21 1_555 1_555
H16 C22 1_555 1_555
C23 C22 1_555 1_555
H17 C23 1_555 1_555
C24 C19 1_555 1_555
H18 C24 1_555 1_555
C25 O6 1_555 1_555
C26 C18 1_555 1_555
C27 C26 1_555 1_555
H19 C27 1_555 1_555
C28 C27 1_555 1_555
C29 C28 1_555 1_555
H20 C29 1_555 1_555
C30 C29 1_555 1_555
H21 C30 1_555 1_555
C31 C26 1_555 1_555
H22 C31 1_555 1_555
C32 C28 1_555 1_555
C33 N11 1_555 1_555
C34 N9 1_555 1_555
C35 C33 1_555 1_555
C36 C35 1_555 1_555
H23 C36 1_555 1_555
C37 C36 1_555 1_555
C38 C37 1_555 1_555
H24 C38 1_555 1_555
C39 C38 1_555 1_555
H25 C39 1_555 1_555
C40 C35 1_555 1_555
H26 C40 1_555 1_555
C41 O9 1_555 1_555
C42 C34 1_555 1_555
C43 C42 1_555 1_555
H27 C43 1_555 1_555
C44 C43 1_555 1_555
C45 C44 1_555 1_555
H28 C45 1_555 1_555
C46 C45 1_555 1_555
H29 C46 1_555 1_555
C47 C42 1_555 1_555
H30 C47 1_555 1_555
C48 C44 1_555 1_555
Mn1A O2A 1_555 1_555
Mn1A_2 O9A 1_555 1_555
Mn2A O4 1_555 1_555
Mn2A_2 O11 1_555 1_555
Mn3A O3 1_555 1_555
O1A Mn3A 1_555 1_555
O2A C16A 1_555 1_555
O3A Mn3 1_555 1_555
O4A Mn2 1_555 1_555
O5A Mn2A 1_555 1_555
O6A Mn3A 1_555 1_555
O7A C32A 1_555 1_555
O8A Mn3 1_555 1_555
O9A C41A 1_555 1_555
O9A_2 Mn1A 1_555 1_555
O10A Mn2A_2 1_555 1_555
O10A_2 Mn2A 1_555 1_555
O11A Mn2 1_555 1_555
O11_2 Mn2A 1_555 1_555
O12A C48A 1_555 1_555
O13A Mn2A 1_555 1_555
O14A Mn1A 1_555 1_555
O15A Mn1A 1_555 1_555
O16A Mn1A 1_555 1_555
O17A Mn1A 1_555 1_555
O18A Mn4 1_555 1_555
O19A Mn4 1_555 1_555
O20A Mn4 1_555 1_555
N1A N2A 1_555 1_555
N2A C2A 1_555 1_555
N3A N4A 1_555 1_555
N4A H1A 1_555 1_555
H2A N4A 1_555 1_555
N5A N6A 1_555 1_555
N6A C18A 1_555 1_555
N7A N8A 1_555 1_555
N8A H3A 1_555 1_555
H4A N8A 1_555 1_555
N9A N10A 1_555 1_555
N10A C33A 1_555 1_555
N11A N12A 1_555 1_555
N12A H5A 1_555 1_555
H6A N12A 1_555 1_555
C1A N1A 1_555 1_555
C2A N3A 1_555 1_555
C3A C1A 1_555 1_555
C4A C3A 1_555 1_555
H7A C4A 1_555 1_555
C5A C4A 1_555 1_555
C6A C5A 1_555 1_555
H8A C6A 1_555 1_555
C7A C6A 1_555 1_555
H9A C7A 1_555 1_555
C8A C3A 1_555 1_555
H10A C8A 1_555 1_555
C9A O3A 1_555 1_555
C10A C2A 1_555 1_555
C11A C10A 1_555 1_555
H11A C11A 1_555 1_555
C12A C11A 1_555 1_555
C13A C12A 1_555 1_555
H12A C13A 1_555 1_555
C14A C13A 1_555 1_555
H13A C14A 1_555 1_555
C15A C10A 1_555 1_555
H14A C15A 1_555 1_555
C16A O1A 1_555 1_555
C17A N5A 1_555 1_555
C18A N7A 1_555 1_555
C19A C17A 1_555 1_555
C20A C19A 1_555 1_555
H15A C20A 1_555 1_555
C21A C20A 1_555 1_555
C22A C21A 1_555 1_555
H16A C22A 1_555 1_555
C23A C22A 1_555 1_555
H17A C23A 1_555 1_555
C24A C19A 1_555 1_555
H18A C24A 1_555 1_555
C25A O5A 1_555 1_555
C26A C18A 1_555 1_555
C27A C26A 1_555 1_555
H19A C27A 1_555 1_555
C28A C27A 1_555 1_555
C29A C28A 1_555 1_555
H20A C29A 1_555 1_555
C30A C29A 1_555 1_555
H21A C30A 1_555 1_555
C31A C26A 1_555 1_555
H22A C31A 1_555 1_555
C32A O8A 1_555 1_555
C33A N11A 1_555 1_555
C34A N9A 1_555 1_555
C35A C33A 1_555 1_555
C36A C35A 1_555 1_555
H23A C36A 1_555 1_555
C37A C36A 1_555 1_555
C38A C37A 1_555 1_555
H24A C38A 1_555 1_555
C39A C38A 1_555 1_555
H25A C39A 1_555 1_555
C40A C35A 1_555 1_555
H26A C40A 1_555 1_555
C41A O10A 1_555 1_555
C42A C34A 1_555 1_555
C43A C42A 1_555 1_555
H27A C43A 1_555 1_555
C44A C43A 1_555 1_555
C45A C44A 1_555 1_555
H28A C45A 1_555 1_555
C46A C45A 1_555 1_555
H29A C46A 1_555 1_555
C47A C42A 1_555 1_555
H30A C47A 1_555 1_555
C48A O11A 1_555 1_555
Mn2 O17 1_555 1_555
Mn3 O17 1_555 1_555
O8 Mn3A 1_555 1_555
O10 C41 1_555 1_555
N3 C1 1_555 1_555
N7 C17 1_555 1_555
N11 C34 1_555 1_555
C7 C8 1_555 1_555
C14 C15 1_555 1_555
C21 C25 1_555 1_555
C23 C24 1_555 1_555
C30 C31 1_555 1_555
C37 C41 1_555 1_555
C39 C40 1_555 1_555
C46 C47 1_555 1_555
Mn2A O17A 1_555 1_555
Mn3A O17A 1_555 1_555
O4A C9A 1_555 1_555
O6A C25A 1_555 1_555
N3A C1A 1_555 1_555
N7A C17A 1_555 1_555
N11A C34A 1_555 1_555
C5A C9A 1_555 1_555
C7A C8A 1_555 1_555
C12A C16A 1_555 1_555
C14A C15A 1_555 1_555
C21A C25A 1_555 1_555
C23A C24A 1_555 1_555
C28A C32A 1_555 1_555
C30A C31A 1_555 1_555
C37A C41A 1_555 1_555
C39A C40A 1_555 1_555
C44A C48A 1_555 1_555
C46A C47A 1_555 1_555

#END
