
#######################################################################
#
#                 Cambridge Crystallographic Data Centre
#                                CCDC 
#
#######################################################################
#
# If this CIF has been generated from an entry in the Cambridge 
# Structural Database, then it will include bibliographic, chemical, 
# crystal, experimental, refinement or atomic coordinate data resulting 
# from the CCDC's data processing and validation procedures.
#
#######################################################################

data_OVEYUK
_symmetry_cell_setting           monoclinic
_symmetry_space_group_name_H-M   'P 21/c'
_symmetry_Int_Tables_number      14
_space_group_name_Hall           '-P 2ybc'
loop_
_symmetry_equiv_pos_site_id
_symmetry_equiv_pos_as_xyz
1 x,y,z
2 -x,1/2+y,1/2-z
3 -x,-y,-z
4 x,1/2-y,1/2+z
_cell_length_a                   7.3126(15)
_cell_length_b                   31.409(6)
_cell_length_c                   15.622(3)
_cell_angle_alpha                90
_cell_angle_beta                 93.06(3)
_cell_angle_gamma                90
_cell_volume                     3582.97
loop_
_atom_site_label
_atom_site_type_symbol
_atom_site_fract_x
_atom_site_fract_y
_atom_site_fract_z
Cd1 Cd -0.20666(8) 0.313810(16) -0.48224(3)
Cd2 Cd -0.25443(6) 0.564000(15) 0.00054(3)
O1 O -0.0724(7) 0.23381(15) -0.8925(3)
O2 O -0.0526(7) 0.17234(15) -0.8236(3)
O3 O -0.1740(6) 0.50556(14) -0.9046(3)
O4 O -0.1279(6) 0.57076(14) -0.8573(3)
O5 O -0.3242(7) 0.24744(19) -0.0686(3)
O6 O -0.3837(9) 0.1839(2) -0.1121(5)
O7 O -0.3248(7) 0.51081(15) -0.0985(3)
O8 O -0.3953(7) 0.57482(16) -0.1468(3)
O9 O -0.5509(7) 0.56496(15) 0.0504(3)
H1 H -0.616(12) 0.578(2) 0.012(5)
H2 H -0.587(13) 0.5398(13) 0.057(6)
O10 O 0.0434(8) 0.56862(15) -0.0421(3)
H3 H 0.115(11) 0.5875(19) -0.062(7)
H4 H 0.096(11) 0.5445(13) -0.046(7)
O11 O -0.2838(8) 0.63569(17) 0.0057(4)
H5 H -0.210(11) 0.651(2) -0.021(6)
H6 H -0.363(8) 0.651(2) 0.028(5)
N1 N -0.0285(8) 0.35475(17) -0.5612(3)
N2 N -0.0380(8) 0.39880(17) -0.5620(3)
N3 N 0.0434(7) 0.37613(16) -0.6879(3)
N4 N 0.1126(9) 0.37448(18) -0.7697(4)
H7 H 0.1465 0.3505 -0.7904
H8 H 0.1213 0.3974 -0.7993
N5 N -0.4191(8) 0.35141(18) -0.4166(3)
N6 N -0.4263(8) 0.39557(18) -0.4249(3)
N7 N -0.5169(8) 0.37664(17) -0.2981(3)
N8 N -0.5860(8) 0.37722(16) -0.2156(4)
H9 H -0.6060 0.3537 -0.1896
H10 H -0.6082 0.4011 -0.1913
C1 C 0.0251(9) 0.3416(2) -0.6371(4)
C2 C 0.0061(8) 0.4113(2) -0.6385(4)
C3 C 0.0604(9) 0.2977(2) -0.6572(4)
C4 C 0.0020(9) 0.2776(2) -0.7337(4)
H11 H -0.0590 0.2931 -0.7772
C5 C 0.0360(9) 0.2339(2) -0.7445(4)
C6 C 0.1285(9) 0.2115(2) -0.6796(5)
H12 H 0.1488 0.1824 -0.6862
C7 C 0.1914(10) 0.2315(2) -0.6049(5)
H13 H 0.2584 0.2164 -0.5628
C8 C 0.1549(9) 0.2736(2) -0.5932(4)
H14 H 0.1934 0.2866 -0.5419
C9 C -0.0329(10) 0.2113(2) -0.8246(5)
C10 C 0.0151(8) 0.4563(2) -0.6639(4)
C11 C -0.0477(8) 0.47131(19) -0.7435(4)
H15 H -0.0889 0.4523 -0.7859
C12 C -0.0489(8) 0.51462(19) -0.7599(4)
C13 C 0.0071(8) 0.5431(2) -0.6959(4)
H16 H 0.0014 0.5722 -0.7066
C14 C 0.0713(9) 0.5286(2) -0.6161(4)
H17 H 0.1107 0.5477 -0.5737
C15 C 0.0761(8) 0.4856(2) -0.6004(4)
H18 H 0.1203 0.4757 -0.5472
C16 C -0.1176(9) 0.5309(2) -0.8461(4)
C17 C -0.4784(9) 0.3407(2) -0.3408(4)
C18 C -0.4833(9) 0.4099(2) -0.3518(4)
C19 C -0.4947(9) 0.2965(2) -0.3134(4)
C20 C -0.4384(9) 0.2826(2) -0.2316(4)
H19 H -0.3933 0.3021 -0.1908
C21 C -0.4498(10) 0.2396(2) -0.2109(5)
C22 C -0.5171(12) 0.2105(2) -0.2713(5)
H20 H -0.5282 0.1820 -0.2565
C23 C -0.5659(14) 0.2234(3) -0.3509(5)
H21 H -0.6043 0.2034 -0.3918
C24 C -0.5608(12) 0.2660(3) -0.3740(5)
H22 H -0.6005 0.2744 -0.4289
C25 C -0.3845(11) 0.2228(3) -0.1257(5)
C26 C -0.5066(9) 0.4555(2) -0.3332(4)
C27 C -0.4452(8) 0.4730(2) -0.2546(4)
H23 H -0.3973 0.4553 -0.2111
C28 C -0.4553(8) 0.5161(2) -0.2415(4)
C29 C -0.5260(9) 0.5431(2) -0.3075(4)
H24 H -0.5340 0.5723 -0.2984
C30 C -0.5838(9) 0.5256(2) -0.3864(4)
H25 H -0.6274 0.5432 -0.4309
C31 C -0.5760(9) 0.4825(2) -0.3979(4)
H26 H -0.6179 0.4710 -0.4501
C32 C -0.3890(9) 0.5347(2) -0.1575(4)
Cd1C Cd -0.20666(8) 0.186190(16) 0.01776(3)
Cd1C_2 Cd -0.20666(8) 0.186190(16) -0.98224(3)
Cd2_2 Cd -0.25443(6) 0.564000(15) -0.99946(3)
O1C O -0.0724(7) 0.26619(15) -0.3925(3)
O2C O -0.0526(7) 0.32766(15) -0.3236(3)
O3_2 O -0.1740(6) 0.50556(14) 0.0954(3)
O4_2 O -0.1279(6) 0.57076(14) 0.1427(3)
O5C O -0.3242(7) 0.25256(19) -0.5686(3)
O6C O -0.3837(9) 0.3161(2) -0.6121(5)
O12 O -0.1747(8) 0.37219(16) -0.1713(4)
H27 H -0.106(11) 0.394(2) -0.164(6)
H28 H -0.130(12) 0.358(3) -0.212(5)
O13 O -0.6529(9) 0.66793(18) -0.9666(4)
H29 H -0.677(15) 0.6940(13) -0.950(5)
H30 H -0.621(10) 0.671(3) -1.020(2)
O14 O 0.0165(11) 0.31758(19) -0.9392(5)
H31 H 0.030(11) 0.2913(11) -0.926(7)
H32 H -0.099(4) 0.323(3) -0.942(8)
O15 O -0.2732(9) 0.3801(2) -0.8681(5)
H33 H -0.302(13) 0.370(3) -0.811(4)
H34 H -0.376(9) 0.394(3) -0.877(6)
O16 O -0.399(2) 0.6220(5) -0.3994(12)
H35 H -0.475(17) 0.642(3) -0.406(15)
H36 H -0.455(19) 0.598(2) -0.407(2)
loop_
_geom_bond_atom_site_label_1
_geom_bond_atom_site_label_2
_geom_bond_site_symmetry_1
_geom_bond_site_symmetry_2
Cd1 N1 1_555 1_555
Cd2 O7 1_555 1_555
O1 C9 1_555 1_555
O2 C9 1_555 1_555
O3 C16 1_555 1_555
O4 C16 1_555 1_555
O5 C25 1_555 1_555
O6 C25 1_555 1_555
O7 C32 1_555 1_555
O8 Cd2 1_555 1_555
O9 Cd2 1_555 1_555
H1 O9 1_555 1_555
H2 O9 1_555 1_555
O10 Cd2 1_555 1_555
H3 O10 1_555 1_555
H4 O10 1_555 1_555
O11 Cd2 1_555 1_555
H5 O11 1_555 1_555
H6 O11 1_555 1_555
N1 N2 1_555 1_555
N2 C2 1_555 1_555
N3 N4 1_555 1_555
N4 H7 1_555 1_555
H8 N4 1_555 1_555
N5 Cd1 1_555 1_555
N6 N5 1_555 1_555
N7 N8 1_555 1_555
N8 H9 1_555 1_555
H10 N8 1_555 1_555
C1 N1 1_555 1_555
C2 N3 1_555 1_555
C3 C1 1_555 1_555
C4 C3 1_555 1_555
H11 C4 1_555 1_555
C5 C4 1_555 1_555
C6 C5 1_555 1_555
H12 C6 1_555 1_555
C7 C6 1_555 1_555
H13 C7 1_555 1_555
C8 C3 1_555 1_555
H14 C8 1_555 1_555
C9 C5 1_555 1_555
C10 C2 1_555 1_555
C11 C10 1_555 1_555
H15 C11 1_555 1_555
C12 C11 1_555 1_555
C13 C12 1_555 1_555
H16 C13 1_555 1_555
C14 C13 1_555 1_555
H17 C14 1_555 1_555
C15 C10 1_555 1_555
H18 C15 1_555 1_555
C16 C12 1_555 1_555
C17 N5 1_555 1_555
C18 N6 1_555 1_555
C19 C17 1_555 1_555
C20 C19 1_555 1_555
H19 C20 1_555 1_555
C21 C20 1_555 1_555
C22 C21 1_555 1_555
H20 C22 1_555 1_555
C23 C22 1_555 1_555
H21 C23 1_555 1_555
C24 C19 1_555 1_555
H22 C24 1_555 1_555
C25 C21 1_555 1_555
C26 C18 1_555 1_555
C27 C26 1_555 1_555
H23 C27 1_555 1_555
C28 C27 1_555 1_555
C29 C28 1_555 1_555
H24 C29 1_555 1_555
C30 C29 1_555 1_555
H25 C30 1_555 1_555
C31 C26 1_555 1_555
H26 C31 1_555 1_555
C32 O8 1_555 1_555
O12 H27 1_555 1_555
H28 O12 1_555 1_555
O13 H29 1_555 1_555
H30 O13 1_555 1_555
O14 H31 1_555 1_555
H32 O14 1_555 1_555
O15 H33 1_555 1_555
H34 O15 1_555 1_555
O16 H35 1_555 1_555
H36 O16 1_555 1_555
Cd1C O5 1_555 1_555
Cd1C_2 O1 1_555 1_555
Cd2_2 O3 1_555 1_555
O1C Cd1 1_555 1_555
O2C Cd1 1_555 1_555
O3_2 Cd2 1_555 1_555
O4_2 Cd2 1_555 1_555
O5C Cd1 1_555 1_555
O6C Cd1 1_555 1_555
O2 Cd1C_2 1_555 1_555
O4 Cd2_2 1_555 1_555
O6 Cd1C 1_555 1_555
N3 C1 1_555 1_555
N7 C17 1_555 1_555
N7 C18 1_555 1_555
C7 C8 1_555 1_555
C14 C15 1_555 1_555
C23 C24 1_555 1_555
C28 C32 1_555 1_555
C30 C31 1_555 1_555

#END
