
#######################################################################
#
#                 Cambridge Crystallographic Data Centre
#                                CCDC 
#
#######################################################################
#
# If this CIF has been generated from an entry in the Cambridge 
# Structural Database, then it will include bibliographic, chemical, 
# crystal, experimental, refinement or atomic coordinate data resulting 
# from the CCDC's data processing and validation procedures.
#
#######################################################################

data_OVEZAR
_symmetry_cell_setting           monoclinic
_symmetry_space_group_name_H-M   'P 21/n'
_symmetry_Int_Tables_number      14
_space_group_name_Hall           '-P 2yn'
loop_
_symmetry_equiv_pos_site_id
_symmetry_equiv_pos_as_xyz
1 x,y,z
2 1/2-x,1/2+y,1/2-z
3 -x,-y,-z
4 1/2+x,1/2-y,1/2+z
_cell_length_a                   8.6342(17)
_cell_length_b                   22.139(4)
_cell_length_c                   12.024(2)
_cell_angle_alpha                90
_cell_angle_beta                 102.26(3)
_cell_angle_gamma                90
_cell_volume                     2246
loop_
_atom_site_label
_atom_site_type_symbol
_atom_site_fract_x
_atom_site_fract_y
_atom_site_fract_z
Cd1 Cd 0.18486(5) 0.035309(17) 0.69601(4)
O1 O -0.0184(5) 0.08797(17) 0.5697(3)
O2 O 0.2208(5) 0.12546(19) 0.5895(4)
O3 O -1.1910(5) 0.0494(2) 0.1880(5)
O4 O -0.9572(6) 0.0351(2) 0.2984(5)
O5 O 0.1332(7) 0.0942(2) 0.8392(4)
O6 O 0.4588(8) 0.0434(3) 0.7644(6)
O7 O 0.2594(6) -0.0282(2) 0.5671(5)
N1 N -0.4456(5) 0.28530(19) 0.2670(4)
N2 N -0.6041(6) 0.2753(2) 0.2210(4)
N3 N -0.4839(5) 0.18812(19) 0.2479(4)
N4 N -0.4609(6) 0.1251(2) 0.2420(5)
H1 H -0.5391 0.1021 0.2125
H2 H -0.3688 0.1098 0.2678
C1 C -0.3746(6) 0.2331(2) 0.2848(4)
C2 C -0.6245(6) 0.2165(2) 0.2095(5)
C3 C -0.2058(6) 0.2262(2) 0.3360(5)
C4 C -0.1478(6) 0.1791(2) 0.4103(4)
H3 H -0.2155 0.1484 0.4228
C5 C 0.0105(6) 0.1779(2) 0.4656(5)
C6 C 0.1106(7) 0.2231(3) 0.4466(6)
H4 H 0.2165 0.2226 0.4842
C7 C 0.0544(8) 0.2695(3) 0.3716(7)
H5 H 0.1230 0.2999 0.3590
C8 C -0.1014(8) 0.2711(3) 0.3159(5)
H6 H -0.1376 0.3020 0.2647
C9 C 0.0736(7) 0.1270(2) 0.5455(5)
C10 C -0.7780(6) 0.1883(2) 0.1617(5)
C11 C -0.8341(6) 0.1386(3) 0.2106(5)
H7 H -0.7702 0.1199 0.2732
C12 C -0.9858(7) 0.1162(3) 0.1667(5)
C13 C -1.0771(7) 0.1436(3) 0.0750(5)
H8 H -1.1785 0.1288 0.0461
C14 C -1.0250(7) 0.1921(3) 0.0240(5)
H9 H -1.0888 0.2093 -0.0403
C15 C -0.8746(7) 0.2160(3) 0.0690(5)
H10 H -0.8397 0.2502 0.0368
C16 C -1.0458(7) 0.0630(3) 0.2226(5)
H11 H 0.470(3) 0.0748(19) 0.803(4)
H12 H 0.505(3) 0.036(3) 0.716(3)
H13 H 0.297(7) -0.0069(14) 0.519(3)
H14 H 0.176(4) -0.046(2) 0.530(4)
H15 H 0.132(8) 0.1303(8) 0.825(3)
H16 H 0.187(7) 0.084(2) 0.9020(15)
Cd1B Cd -1.18486(5) -0.035309(17) 0.30399(4)
O3B O 0.1910(5) -0.0494(2) 0.8120(5)
O4B O -0.0428(6) -0.0351(2) 0.7016(5)
O8 O 0.3615(8) 0.0186(3) 0.3876(6)
H17 H 0.401(9) 0.050(2) 0.428(4)
H18 H 0.351(9) 0.030(3) 0.316(2)
O9 O -0.7912(8) 0.3825(4) 0.1878(6)
H19 H -0.760(8) 0.3474(16) 0.178(5)
H20 H -0.755(8) 0.398(3) 0.250(3)
O10 O 0.4791(7) 0.1284(3) 0.4878(5)
H21 H 0.390(4) 0.122(3) 0.510(5)
H22 H 0.552(5) 0.119(3) 0.547(4)
O11 O 0.367(2) 0.0584(10) 1.0332(18)
loop_
_geom_bond_atom_site_label_1
_geom_bond_atom_site_label_2
_geom_bond_site_symmetry_1
_geom_bond_site_symmetry_2
Cd1 O1 1_555 1_555
O1 C9 1_555 1_555
O2 Cd1 1_555 1_555
O3 C16 1_555 1_555
O4 C16 1_555 1_555
O5 Cd1 1_555 1_555
O6 Cd1 1_555 1_555
O7 Cd1 1_555 1_555
N1 N2 1_555 1_555
N2 C2 1_555 1_555
N3 N4 1_555 1_555
N4 H1 1_555 1_555
H2 N4 1_555 1_555
C1 N1 1_555 1_555
C2 N3 1_555 1_555
C3 C1 1_555 1_555
C4 C3 1_555 1_555
H3 C4 1_555 1_555
C5 C4 1_555 1_555
C6 C5 1_555 1_555
H4 C6 1_555 1_555
C7 C6 1_555 1_555
H5 C7 1_555 1_555
C8 C3 1_555 1_555
H6 C8 1_555 1_555
C9 O2 1_555 1_555
C10 C2 1_555 1_555
C11 C10 1_555 1_555
H7 C11 1_555 1_555
C12 C11 1_555 1_555
C13 C12 1_555 1_555
H8 C13 1_555 1_555
C14 C13 1_555 1_555
H9 C14 1_555 1_555
C15 C10 1_555 1_555
H10 C15 1_555 1_555
C16 C12 1_555 1_555
H11 O6 1_555 1_555
H12 O6 1_555 1_555
H13 O7 1_555 1_555
H14 O7 1_555 1_555
H15 O5 1_555 1_555
H16 O5 1_555 1_555
O8 H17 1_555 1_555
H18 O8 1_555 1_555
O9 H19 1_555 1_555
H20 O9 1_555 1_555
O10 H21 1_555 1_555
H22 O10 1_555 1_555
Cd1B O3 1_555 1_555
O3B Cd1 1_555 1_555
O4B Cd1 1_555 1_555
O4 Cd1B 1_555 1_555
N3 C1 1_555 1_555
C5 C9 1_555 1_555
C7 C8 1_555 1_555
C14 C15 1_555 1_555

#END
