
#######################################################################
#
#                 Cambridge Crystallographic Data Centre
#                                CCDC 
#
#######################################################################
#
# If this CIF has been generated from an entry in the Cambridge 
# Structural Database, then it will include bibliographic, chemical, 
# crystal, experimental, refinement or atomic coordinate data resulting 
# from the CCDC's data processing and validation procedures.
#
#######################################################################

data_OVEZEV
_symmetry_cell_setting           monoclinic
_symmetry_space_group_name_H-M   'P 21/c'
_symmetry_Int_Tables_number      14
_space_group_name_Hall           '-P 2ybc'
loop_
_symmetry_equiv_pos_site_id
_symmetry_equiv_pos_as_xyz
1 x,y,z
2 -x,1/2+y,1/2-z
3 -x,-y,-z
4 x,1/2-y,1/2+z
_cell_length_a                   11.7859(11)
_cell_length_b                   24.442(2)
_cell_length_c                   9.9888(8)
_cell_angle_alpha                90
_cell_angle_beta                 110.577(5)
_cell_angle_gamma                90
_cell_volume                     2693.9
loop_
_atom_site_label
_atom_site_type_symbol
_atom_site_fract_x
_atom_site_fract_y
_atom_site_fract_z
Cd1 Cd 0.290020(19) 0.043082(7) 0.62999(2)
O1 O 0.1611(2) 0.10407(11) 0.4302(3)
O2 O 0.3583(2) 0.10295(9) 0.4998(2)
O3 O 0.8105(2) 0.46020(8) -0.1253(3)
O4 O 0.6704(3) 0.46171(8) -0.0280(3)
N1 N 0.4772(2) 0.18792(9) 0.0662(3)
N2 N 0.5658(2) 0.20590(9) 0.0138(3)
N3 N 0.5241(2) 0.27319(8) 0.1341(2)
N4 N 0.5412(2) 0.32361(9) 0.2097(3)
N5 N 0.4867(2) 0.04048(10) 0.7939(3)
N6 N 1.1744(2) 0.07873(9) 0.7536(2)
C1 C 0.4531(3) 0.22870(10) 0.1378(3)
C2 C 0.5928(2) 0.25700(10) 0.0560(3)
C3 C 0.3538(2) 0.17867(10) 0.2822(3)
H1 H 0.4151 0.1526 0.3020
C4 C 0.3582(2) 0.22576(10) 0.2036(3)
C5 C 0.2679(3) 0.26528(12) 0.1780(3)
H2 H 0.2723 0.2974 0.1300
C6 C 0.1706(3) 0.25655(13) 0.2245(3)
H3 H 0.1095 0.2826 0.2058
C7 C 0.1646(3) 0.20937(13) 0.2986(3)
H4 H 0.0984 0.2034 0.3268
C8 C 0.2569(2) 0.17097(11) 0.3308(3)
C9 C 0.2569(3) 0.12204(12) 0.4239(3)
C10 C 0.6731(2) 0.34698(10) -0.0010(3)
H5 H 0.6143 0.3663 0.0217
C11 C 0.7541(2) 0.37471(10) -0.0511(3)
C12 C 0.8428(3) 0.34664(12) -0.0846(3)
H6 H 0.8963 0.3654 -0.1178
C13 C 0.8511(3) 0.28977(13) -0.0680(4)
H7 H 0.9106 0.2706 -0.0896
C14 C 0.7703(3) 0.26193(12) -0.0192(4)
H8 H 0.7760 0.2241 -0.0091
C15 C 0.6805(2) 0.28994(10) 0.0149(3)
C16 C 0.7437(3) 0.43596(11) -0.0697(3)
C17 C 0.5709(4) 0.0178(2) 0.7475(4)
H9 H 0.5449 0.0011 0.6582
C18 C 0.6925(4) 0.01826(19) 0.8257(5)
H10 H 0.7464 0.0018 0.7889
C19 C 0.7363(3) 0.04304(13) 0.9597(4)
C20 C 0.6504(3) 0.06608(16) 1.0071(3)
H11 H 0.6744 0.0833 1.0958
C21 C 0.5288(3) 0.06369(15) 0.9237(3)
H12 H 0.4731 0.0790 0.9597
C22 C 0.8705(3) 0.04688(17) 1.0486(4)
H13 H 0.8844 0.0290 1.1398
H14 H 0.9158 0.0269 1.0000
C23 C 0.9192(3) 0.10440(19) 1.0763(3)
H15 H 1.0019 0.1029 1.1434
H16 H 0.8718 0.1247 1.1216
C24 C 0.9181(3) 0.13534(13) 0.9451(4)
H17 H 0.8372 0.1333 0.8738
H18 H 0.9352 0.1735 0.9704
C25 C 1.0562(3) 0.06627(15) 0.6976(3)
H19 H 1.0294 0.0455 0.6143
C26 C 0.9717(3) 0.08263(14) 0.7573(3)
H20 H 0.8912 0.0718 0.7157
C27 C 1.0071(3) 0.11507(11) 0.8791(3)
C28 C 1.1298(3) 0.12778(14) 0.9372(3)
H21 H 1.1588 0.1486 1.0203
C29 C 1.2090(3) 0.10974(13) 0.8726(3)
H22 H 1.2902 0.1195 0.9133
H23 H 0.482(2) 0.3454(11) 0.170(3)
H24 H 0.545(3) 0.3175(14) 0.2956(16)
Cd1A Cd 0.709980(19) 0.543082(7) -0.12999(2)
Cd1_2 Cd 1.290020(19) 0.043082(7) 0.62999(2)
O3A O 0.1895(2) -0.03980(8) 0.6253(3)
O4A O 0.3296(3) -0.03829(8) 0.5280(3)
N6_2 N 0.1744(2) 0.07873(9) 0.7536(2)
loop_
_geom_bond_atom_site_label_1
_geom_bond_atom_site_label_2
_geom_bond_site_symmetry_1
_geom_bond_site_symmetry_2
Cd1 O1 1_555 1_555
O1 C9 1_555 1_555
O2 Cd1 1_555 1_555
O3 C16 1_555 1_555
O4 C16 1_555 1_555
N1 N2 1_555 1_555
N2 C2 1_555 1_555
N3 N4 1_555 1_555
N4 H23 1_555 1_555
N5 Cd1 1_555 1_555
N6 C25 1_555 1_555
C1 N1 1_555 1_555
C2 N3 1_555 1_555
C3 H1 1_555 1_555
C4 C1 1_555 1_555
C5 C4 1_555 1_555
H2 C5 1_555 1_555
C6 C5 1_555 1_555
H3 C6 1_555 1_555
C7 C6 1_555 1_555
H4 C7 1_555 1_555
C8 C3 1_555 1_555
C9 O2 1_555 1_555
C10 H5 1_555 1_555
C11 C10 1_555 1_555
C12 C11 1_555 1_555
H6 C12 1_555 1_555
C13 C12 1_555 1_555
H7 C13 1_555 1_555
C14 C13 1_555 1_555
H8 C14 1_555 1_555
C15 C2 1_555 1_555
C16 C11 1_555 1_555
C17 N5 1_555 1_555
H9 C17 1_555 1_555
C18 C17 1_555 1_555
H10 C18 1_555 1_555
C19 C18 1_555 1_555
C20 C19 1_555 1_555
H11 C20 1_555 1_555
C21 N5 1_555 1_555
H12 C21 1_555 1_555
C22 C19 1_555 1_555
H13 C22 1_555 1_555
H14 C22 1_555 1_555
C23 C22 1_555 1_555
H15 C23 1_555 1_555
H16 C23 1_555 1_555
C24 C23 1_555 1_555
H17 C24 1_555 1_555
H18 C24 1_555 1_555
C25 H19 1_555 1_555
C26 C25 1_555 1_555
H20 C26 1_555 1_555
C27 C24 1_555 1_555
C28 C27 1_555 1_555
H21 C28 1_555 1_555
C29 N6 1_555 1_555
H22 C29 1_555 1_555
H24 N4 1_555 1_555
Cd1A O3 1_555 1_555
Cd1_2 N6 1_555 1_555
O3A Cd1 1_555 1_555
O4A Cd1 1_555 1_555
N6_2 Cd1 1_555 1_555
O4 Cd1A 1_555 1_555
N3 C1 1_555 1_555
C3 C4 1_555 1_555
C7 C8 1_555 1_555
C8 C9 1_555 1_555
C10 C15 1_555 1_555
C14 C15 1_555 1_555
C20 C21 1_555 1_555
C26 C27 1_555 1_555
C28 C29 1_555 1_555

#END
