
#######################################################################
#
#                 Cambridge Crystallographic Data Centre
#                                CCDC 
#
#######################################################################
#
# If this CIF has been generated from an entry in the Cambridge 
# Structural Database, then it will include bibliographic, chemical, 
# crystal, experimental, refinement or atomic coordinate data resulting 
# from the CCDC's data processing and validation procedures.
#
#######################################################################

data_OVIBOL
_symmetry_cell_setting           monoclinic
_symmetry_space_group_name_H-M   'C 2/c'
_symmetry_Int_Tables_number      15
_space_group_name_Hall           '-C 2yn'
loop_
_symmetry_equiv_pos_site_id
_symmetry_equiv_pos_as_xyz
1 x,y,z
2 -x,y,1/2-z
3 1/2+x,1/2+y,z
4 1/2-x,1/2+y,1/2-z
5 -x,-y,-z
6 x,-y,1/2+z
7 1/2-x,1/2-y,-z
8 1/2+x,1/2-y,1/2+z
_cell_length_a                   26.154(5)
_cell_length_b                   15.106(5)
_cell_length_c                   16.753(5)
_cell_angle_alpha                90
_cell_angle_beta                 118.632(5)
_cell_angle_gamma                90
_cell_volume                     5809.44
loop_
_atom_site_label
_atom_site_type_symbol
_atom_site_fract_x
_atom_site_fract_y
_atom_site_fract_z
C1 C 0.87081(12) 0.89384(16) 0.2371(2)
C2 C 0.80691(12) 0.88217(18) 0.0824(2)
C3 C 0.93199(13) 0.9025(2) 0.4018(2)
H1 H 0.9626 0.9007 0.3858
H2 H 0.9370 0.8549 0.4429
H3 H 0.9333 0.9580 0.4307
C4 C 0.82554(15) 0.8873(2) 0.3353(3)
H4 H 0.7908 0.8819 0.2778
H5 H 0.8232 0.9396 0.3660
H6 H 0.8294 0.8363 0.3720
C5 C 0.70298(15) 0.8721(3) 0.0405(3)
H7 H 0.7188 0.8653 0.1050
H8 H 0.6778 0.8231 0.0099
H9 H 0.6812 0.9263 0.0215
C6 C 0.73362(14) 0.8758(3) -0.0780(2)
H10 H 0.7108 0.9277 -0.1057
H11 H 0.7110 0.8239 -0.1065
H12 H 0.7678 0.8763 -0.0855
C7 C 0.94807(10) 0.73265(17) 0.12519(16)
C8 C 0.92417(10) 0.69145(17) 0.17329(17)
H13 H 0.9091 0.7240 0.2043
C9 C 0.92354(11) 0.60019(16) 0.17347(19)
H14 H 0.9071 0.5720 0.2051
C10 C 0.96873(12) 0.59142(17) 0.08627(19)
H15 H 0.9843 0.5574 0.0568
C11 C 0.97135(11) 0.68241(17) 0.08133(18)
H16 H 0.9882 0.7091 0.0496
C12 C 0.99007(11) 1.20062(18) 0.14591(18)
H17 H 1.0236 1.2331 0.1603
C13 C 0.99299(11) 1.10978(16) 0.14275(19)
H18 H 1.0275 1.0813 0.1551
C14 C 0.94244(10) 1.06223(17) 0.12047(16)
C15 C 0.89209(12) 1.10554(16) 0.1044(2)
H19 H 0.8581 1.0744 0.0904
C16 C 0.89374(12) 1.19684(18) 0.10986(19)
H20 H 0.8600 1.2266 0.0995
C17 C 0.90556(13) 0.39802(16) 0.2630(2)
C18 C 0.88503(18) 0.3902(2) 0.3319(3)
H21 H 0.8445 0.4053 0.3043
H22 H 0.9070 0.4297 0.3815
H23 H 0.8904 0.3304 0.3540
C19 C 0.88665(14) 0.38190(18) -0.0597(2)
C20 C 0.86115(17) 0.3646(3) -0.1603(2)
H24 H 0.8793 0.4029 -0.1851
H25 H 0.8200 0.3758 -0.1900
H26 H 0.8679 0.3040 -0.1699
N1 N 0.84681(10) 0.88555(14) 0.05349(16)
N2 N 0.92028(9) 0.90260(14) 0.23035(15)
N3 N 0.81614(10) 0.88427(16) 0.16818(17)
N4 N 0.87623(11) 0.89349(17) 0.32051(18)
N5 N 0.75068(11) 0.8749(2) 0.01772(19)
N6 N 0.94512(9) 0.54945(15) 0.13106(14)
N7 N 0.94138(9) 1.24472(16) 0.12933(14)
O1 O 0.95206(8) 0.82223(11) 0.11984(12)
O2 O 0.94633(8) 0.97220(11) 0.11063(12)
O3 O 0.85311(9) 0.38362(14) -0.02557(15)
O4 O 0.94036(10) 0.39360(13) -0.01314(16)
O5 O 0.95914(9) 0.39678(12) 0.28804(17)
O6 O 0.86907(9) 0.40428(12) 0.18016(15)
P1 P 0.91216(3) 0.89609(4) 0.13108(5)
Cd1 Cd 0.937647(8) 0.397375(12) 0.125245(13)
N7_2 N 0.94138(9) 0.24472(16) 0.12933(14)
O5A O 1.04086(9) 0.39678(12) 0.21196(17)
Cd1_2 Cd 0.937647(8) 1.397375(12) 0.125245(13)
Cd1A Cd 1.062353(8) 0.397375(12) 0.374755(13)
C21 C 0.8565(2) 0.1461(3) 0.3530(4)
H27 H 0.8927 0.1462 0.4088
H28 H 0.8373 0.0902 0.3461
H29 H 0.8321 0.1928 0.3542
O7 O 0.86744(12) 0.1590(3) 0.27995(19)
H30 H 0.8381 0.1472 0.2323
O8 O 0.73798(12) 0.3286(2) 0.8920(2)
H31 H 0.7745(14) 0.347(5) 0.917(5)
H33 H 0.741(4) 0.2704(15) 0.891(6)
O9 O 0.24546(11) 0.3519(2) 0.4263(2)
H32 H 0.2123(11) 0.375(2) 0.392(2)
H34 H 0.2482(18) 0.356(3) 0.4804(17)
loop_
_geom_bond_atom_site_label_1
_geom_bond_atom_site_label_2
_geom_bond_site_symmetry_1
_geom_bond_site_symmetry_2
C1 N2 1_555 1_555
C2 N1 1_555 1_555
C3 H1 1_555 1_555
H2 C3 1_555 1_555
H3 C3 1_555 1_555
C4 H4 1_555 1_555
H5 C4 1_555 1_555
H6 C4 1_555 1_555
C5 H7 1_555 1_555
H8 C5 1_555 1_555
H9 C5 1_555 1_555
C6 H10 1_555 1_555
H11 C6 1_555 1_555
H12 C6 1_555 1_555
C7 C8 1_555 1_555
C8 H13 1_555 1_555
C9 C8 1_555 1_555
H14 C9 1_555 1_555
C10 H15 1_555 1_555
C11 C7 1_555 1_555
H16 C11 1_555 1_555
C12 H17 1_555 1_555
C13 C12 1_555 1_555
H18 C13 1_555 1_555
C14 C13 1_555 1_555
C15 C14 1_555 1_555
H19 C15 1_555 1_555
C16 C15 1_555 1_555
H20 C16 1_555 1_555
C17 C18 1_555 1_555
C18 H21 1_555 1_555
H22 C18 1_555 1_555
H23 C18 1_555 1_555
C19 C20 1_555 1_555
C20 H24 1_555 1_555
H25 C20 1_555 1_555
H26 C20 1_555 1_555
C21 H27 1_555 1_555
H28 C21 1_555 1_555
H29 C21 1_555 1_555
N1 P1 1_555 1_555
N2 P1 1_555 1_555
N3 C1 1_555 1_555
N4 C1 1_555 1_555
N5 C2 1_555 1_555
N6 C9 1_555 1_555
N7 C12 1_555 1_555
O1 C7 1_555 1_555
O2 C14 1_555 1_555
O3 C19 1_555 1_555
O4 C19 1_555 1_555
O5 C17 1_555 1_555
O6 C17 1_555 1_555
O7 C21 1_555 1_555
H30 O7 1_555 1_555
O8 H31 1_555 1_555
O9 H32 1_555 1_555
P1 O1 1_555 1_555
Cd1 N6 1_555 1_555
H33 O8 1_555 1_555
H34 O9 1_555 1_555
N7_2 Cd1 1_555 1_555
O5A Cd1 1_555 1_555
Cd1_2 N7 1_555 1_555
Cd1A O5 1_555 1_555
C2 N3 1_555 1_555
C3 N4 1_555 1_555
C4 N4 1_555 1_555
C5 N5 1_555 1_555
C6 N5 1_555 1_555
C10 C11 1_555 1_555
C10 N6 1_555 1_555
C16 N7 1_555 1_555
O2 P1 1_555 1_555
O3 Cd1 1_555 1_555
O4 Cd1 1_555 1_555
O5 Cd1 1_555 1_555
O6 Cd1 1_555 1_555
O5A Cd1A 1_555 1_555

#END
