
#######################################################################
#
#                 Cambridge Crystallographic Data Centre
#                                CCDC 
#
#######################################################################
#
# If this CIF has been generated from an entry in the Cambridge 
# Structural Database, then it will include bibliographic, chemical, 
# crystal, experimental, refinement or atomic coordinate data resulting 
# from the CCDC's data processing and validation procedures.
#
#######################################################################

data_OVICEC
_symmetry_cell_setting           triclinic
_symmetry_space_group_name_H-M   'P -1'
_symmetry_Int_Tables_number      2
_space_group_name_Hall           '-P 1'
loop_
_symmetry_equiv_pos_site_id
_symmetry_equiv_pos_as_xyz
1 x,y,z
2 -x,-y,-z
_cell_length_a                   9.507(3)
_cell_length_b                   11.992(4)
_cell_length_c                   12.418(4)
_cell_angle_alpha                66.833(5)
_cell_angle_beta                 68.149(5)
_cell_angle_gamma                88.919(6)
_cell_volume                     1194.5
loop_
_atom_site_label
_atom_site_type_symbol
_atom_site_fract_x
_atom_site_fract_y
_atom_site_fract_z
C1 C 0.4353(4) -0.2315(3) 0.6542(3)
C2 C 0.3157(4) -0.1055(3) 0.5286(3)
C3 C 0.5727(6) -0.3596(5) 0.7768(4)
H1 H 0.5515 -0.3160 0.8301
H2 H 0.6742 -0.3808 0.7603
H3 H 0.4997 -0.4331 0.8192
C4 C 0.6908(5) -0.2663(5) 0.5400(5)
H4 H 0.6637 -0.3125 0.5008
H5 H 0.7773 -0.2946 0.5594
H6 H 0.7167 -0.1809 0.4825
C5 C 0.4589(5) -0.0352(5) 0.2992(4)
H7 H 0.5509 -0.0148 0.3068
H8 H 0.4546 0.0263 0.2228
H9 H 0.4586 -0.1135 0.2953
C6 C 0.1995(5) 0.0154(5) 0.3852(4)
H10 H 0.1411 -0.0388 0.3720
H11 H 0.2373 0.0916 0.3105
H12 H 0.1353 0.0304 0.4572
C7 C 0.0532(4) -0.0272(3) 0.8471(3)
C8 C -0.1044(4) -0.0593(3) 0.9029(4)
H13 H -0.1489 -0.1411 0.9420
C9 C -0.1933(4) 0.0325(3) 0.8991(4)
H14 H -0.2993 0.0112 0.9362
C10 C 0.1143(4) 0.0928(4) 0.7982(4)
H15 H 0.2197 0.1160 0.7651
C11 C 0.0174(4) 0.1778(4) 0.7989(5)
H16 H 0.0594 0.2595 0.7655
C12 C -0.2017(4) -0.5632(3) 0.9278(3)
H17 H -0.2741 -0.6247 1.0004
C13 C -0.1432(4) -0.4663(3) 0.9394(3)
H18 H -0.1776 -0.4615 1.0178
C14 C -0.0331(4) -0.3770(3) 0.8332(3)
C15 C 0.0153(4) -0.3855(3) 0.7189(3)
H19 H 0.0904 -0.3263 0.6462
C16 C -0.0502(4) -0.4842(3) 0.7142(3)
H20 H -0.0175 -0.4899 0.6362
N1 N 0.3174(3) -0.2598(3) 0.7698(3)
N2 N 0.4391(3) -0.1601(3) 0.5382(3)
N3 N 0.1853(3) -0.1096(3) 0.6250(3)
N4 N 0.3268(3) -0.0403(3) 0.4089(3)
N5 N 0.5618(4) -0.2826(3) 0.6570(3)
N6 N -0.1350(3) 0.1498(3) 0.8450(3)
N7 N -0.1583(3) -0.5723(3) 0.8158(3)
O1 O 0.1525(3) -0.1131(2) 0.8475(2)
O2 O 0.0187(3) -0.2812(2) 0.8511(2)
P1 P 0.17760(10) -0.18986(8) 0.76245(8)
Cl1 Cl -0.22600(15) 0.34854(12) 0.60174(10)
Cl2 Cl -0.50114(11) 0.22641(10) 0.95434(10)
Zn1 Zn -0.26422(4) 0.28789(4) 0.80495(4)
N7_2 N -0.1583(3) 0.4277(3) 0.8158(3)
Zn1_2 Zn -0.26422(4) -0.71211(4) 0.80495(4)
C17 C 0.3575(8) 0.4395(7) 0.6795(7)
H21 H 0.3965 0.5099 0.6841
H22 H 0.2852 0.4616 0.6401
H23 H 0.4405 0.4105 0.6297
O3 O 0.2890(7) 0.3523(7) 0.7952(8)
H24 H 0.1970 0.3401 0.8126
loop_
_geom_bond_atom_site_label_1
_geom_bond_atom_site_label_2
_geom_bond_site_symmetry_1
_geom_bond_site_symmetry_2
C1 N1 1_555 1_555
C2 N2 1_555 1_555
C3 H1 1_555 1_555
H2 C3 1_555 1_555
H3 C3 1_555 1_555
C4 H4 1_555 1_555
H5 C4 1_555 1_555
H6 C4 1_555 1_555
C5 H7 1_555 1_555
H8 C5 1_555 1_555
H9 C5 1_555 1_555
C6 H10 1_555 1_555
H11 C6 1_555 1_555
H12 C6 1_555 1_555
C7 C8 1_555 1_555
C8 H13 1_555 1_555
C9 C8 1_555 1_555
H14 C9 1_555 1_555
C10 C7 1_555 1_555
H15 C10 1_555 1_555
C11 C10 1_555 1_555
H16 C11 1_555 1_555
C12 H17 1_555 1_555
C13 C12 1_555 1_555
H18 C13 1_555 1_555
C14 C13 1_555 1_555
C15 C14 1_555 1_555
H19 C15 1_555 1_555
C16 C15 1_555 1_555
H20 C16 1_555 1_555
N1 P1 1_555 1_555
N2 C1 1_555 1_555
N3 C2 1_555 1_555
N4 C2 1_555 1_555
N5 C1 1_555 1_555
N6 C9 1_555 1_555
N7 C12 1_555 1_555
O1 C7 1_555 1_555
O2 C14 1_555 1_555
P1 N3 1_555 1_555
Cl1 Zn1 1_555 1_555
Cl2 Zn1 1_555 1_555
Zn1 N6 1_555 1_555
C17 H21 1_555 1_555
H22 C17 1_555 1_555
H23 C17 1_555 1_555
O3 C17 1_555 1_555
H24 O3 1_555 1_555
N7_2 Zn1 1_555 1_555
Zn1_2 N7 1_555 1_555
C3 N5 1_555 1_555
C4 N5 1_555 1_555
C5 N4 1_555 1_555
C6 N4 1_555 1_555
C11 N6 1_555 1_555
C16 N7 1_555 1_555
O1 P1 1_555 1_555
O2 P1 1_555 1_555

#END
