
#######################################################################
#
#                 Cambridge Crystallographic Data Centre
#                                CCDC 
#
#######################################################################
#
# If this CIF has been generated from an entry in the Cambridge 
# Structural Database, then it will include bibliographic, chemical, 
# crystal, experimental, refinement or atomic coordinate data resulting 
# from the CCDC's data processing and validation procedures.
#
#######################################################################

data_OVICUS
_symmetry_cell_setting           monoclinic
_symmetry_space_group_name_H-M   'C 2/c'
_symmetry_Int_Tables_number      15
_space_group_name_Hall           '-C 2yn'
loop_
_symmetry_equiv_pos_site_id
_symmetry_equiv_pos_as_xyz
1 x,y,z
2 -x,y,1/2-z
3 1/2+x,1/2+y,z
4 1/2-x,1/2+y,1/2-z
5 -x,-y,-z
6 x,-y,1/2+z
7 1/2-x,1/2-y,-z
8 1/2+x,1/2-y,1/2+z
_cell_length_a                   21.989(8)
_cell_length_b                   13.251(5)
_cell_length_c                   11.174(4)
_cell_angle_alpha                90
_cell_angle_beta                 97.150(5)
_cell_angle_gamma                90
_cell_volume                     3230.52
loop_
_atom_site_label
_atom_site_type_symbol
_atom_site_fract_x
_atom_site_fract_y
_atom_site_fract_z
Zn1 Zn 0.76260(4) -0.26419(5) 0.13439(6)
C1 C 0.7253(3) -0.0647(5) 0.0452(6)
C2 C 0.7108(3) 0.0441(5) 0.0600(6)
C3 C 0.7250(3) 0.0909(5) 0.1703(6)
H1 H 0.7436 0.0531 0.2349
C4 C 0.6834(4) 0.1011(5) -0.0351(6)
H2 H 0.6742 0.0720 -0.1109
C5 C 0.6694(4) 0.2006(6) -0.0180(6)
H3 H 0.6501 0.2391 -0.0811
C6 C 0.6849(3) 0.2424(5) 0.0953(6)
C7 C 0.5461(3) 0.3814(5) -0.0120(6)
N1 N 0.5087(4) 0.3962(8) -0.1103(6)
C8 C 0.4482(4) 0.3699(9) -0.1118(8)
H4 H 0.4210 0.3826 -0.1807
C9 C 0.4268(4) 0.3253(5) -0.0136(7)
C10 C 0.4691(5) 0.3115(9) 0.0836(11)
H5 H 0.4567 0.2841 0.1533
C11 C 0.3618(4) 0.2981(6) -0.0142(7)
N2 N 0.7131(3) 0.1892(4) 0.1883(5)
C12 C 0.5294(4) 0.3364(8) 0.0835(9)
H6 H 0.5580 0.3218 0.1497
O1 O 0.3272(3) 0.3002(5) -0.1134(5)
O2 O 0.3452(3) 0.2749(4) 0.0858(5)
O3 O 0.7221(3) -0.0965(4) -0.0609(4)
O4 O 0.7392(3) -0.1170(4) 0.1383(4)
S1 S 0.62237(9) 0.42394(13) -0.02025(17)
S2 S 0.67032(9) 0.37019(13) 0.13169(16)
Zn1C Zn 0.73740(4) 0.23581(5) 0.36561(6)
Zn1D Zn 0.23740(4) 0.26419(5) -0.13439(6)
Zn1B Zn 0.26260(4) 0.23581(5) 0.13439(6)
Zn1F Zn 0.73740(4) -0.23581(5) -0.13439(6)
N2C N 0.7869(3) -0.3108(4) 0.3117(5)
O1D O 0.6728(3) -0.3002(5) 0.1134(5)
O2B O 0.8452(3) -0.2251(4) 0.0858(5)
O3F O 0.7779(3) -0.4035(4) 0.0609(4)
O5 O 0.521(3) 0.950(4) 0.165(6)
loop_
_geom_bond_atom_site_label_1
_geom_bond_atom_site_label_2
_geom_bond_site_symmetry_1
_geom_bond_site_symmetry_2
Zn1 O4 1_555 1_555
C1 C2 1_555 1_555
C2 C3 1_555 1_555
C3 H1 1_555 1_555
C4 C2 1_555 1_555
H2 C4 1_555 1_555
C5 C4 1_555 1_555
H3 C5 1_555 1_555
C6 C5 1_555 1_555
C7 N1 1_555 1_555
N1 C8 1_555 1_555
C8 H4 1_555 1_555
C9 C8 1_555 1_555
C10 C9 1_555 1_555
H5 C10 1_555 1_555
C11 C9 1_555 1_555
N2 C3 1_555 1_555
C12 C7 1_555 1_555
H6 C12 1_555 1_555
O1 C11 1_555 1_555
O2 C11 1_555 1_555
O3 C1 1_555 1_555
O4 C1 1_555 1_555
S1 C7 1_555 1_555
S2 C6 1_555 1_555
Zn1C N2 1_555 1_555
Zn1D O1 1_555 1_555
Zn1B O2 1_555 1_555
Zn1F O3 1_555 1_555
N2C Zn1 1_555 1_555
O1D Zn1 1_555 1_555
O2B Zn1 1_555 1_555
O3F Zn1 1_555 1_555
C6 N2 1_555 1_555
C10 C12 1_555 1_555
S1 S2 1_555 1_555

#END
