
#######################################################################
#
#                 Cambridge Crystallographic Data Centre
#                                CCDC 
#
#######################################################################
#
# If this CIF has been generated from an entry in the Cambridge 
# Structural Database, then it will include bibliographic, chemical, 
# crystal, experimental, refinement or atomic coordinate data resulting 
# from the CCDC's data processing and validation procedures.
#
#######################################################################

data_OVICOM
_symmetry_cell_setting           monoclinic
_symmetry_space_group_name_H-M   'P 21/c'
_symmetry_Int_Tables_number      14
_space_group_name_Hall           '-P 2ybc'
loop_
_symmetry_equiv_pos_site_id
_symmetry_equiv_pos_as_xyz
1 x,y,z
2 -x,1/2+y,1/2-z
3 -x,-y,-z
4 x,1/2-y,1/2+z
_cell_length_a                   17.462(7)
_cell_length_b                   20.228(9)
_cell_length_c                   11.371(5)
_cell_angle_alpha                90
_cell_angle_beta                 96.936(8)
_cell_angle_gamma                90
_cell_volume                     3987.09
loop_
_atom_site_label
_atom_site_type_symbol
_atom_site_fract_x
_atom_site_fract_y
_atom_site_fract_z
C1 C 0.5540(2) 0.2441(2) 1.0209(4)
C2 C 0.6134(2) 0.1531(3) 0.9491(4)
C3 C 0.5047(3) 0.3411(2) 1.1151(5)
H1 H 0.4520 0.3348 1.0816
H2 H 0.5157 0.3876 1.1218
H3 H 0.5126 0.3212 1.1923
C4 C 0.6125(3) 0.3517(3) 0.9902(5)
H4 H 0.6382 0.3265 0.9351
H5 H 0.6497 0.3671 1.0534
H6 H 0.5870 0.3889 0.9503
C5 C 0.7141(3) 0.1785(3) 0.8257(5)
H7 H 0.6836 0.1989 0.7597
H8 H 0.7566 0.1553 0.7982
H9 H 0.7336 0.2118 0.8816
C6 C 0.6802(3) 0.0626(3) 0.8626(5)
H10 H 0.6387 0.0372 0.8878
H11 H 0.7280 0.0495 0.9071
H12 H 0.6827 0.0551 0.7798
C7 C 0.3893(2) 0.1035(2) 0.9054(4)
C8 C 0.3450(3) 0.1562(2) 0.8721(5)
H13 H 0.3407 0.1914 0.9235
C9 C 0.3060(3) 0.1562(2) 0.7582(5)
H14 H 0.2773 0.1936 0.7340
C10 C 0.3515(3) 0.0558(2) 0.7199(4)
H15 H 0.3544 0.0203 0.6685
C11 C 0.3933(3) 0.0519(2) 0.8289(4)
H16 H 0.4238 0.0151 0.8506
C12 C 0.3455(3) 0.1552(2) 1.3388(4)
H17 H 0.3125 0.1913 1.3389
C13 C 0.4029(3) 0.1581(2) 1.2661(4)
H18 H 0.4080 0.1947 1.2183
C14 C 0.4524(2) 0.1057(2) 1.2661(4)
C15 C 0.4424(2) 0.0528(2) 1.3374(4)
H19 H 0.4752 0.0165 1.3391
C16 C 0.3829(2) 0.0543(2) 1.4067(4)
H20 H 0.3766 0.0181 1.4548
C17 C 0.1105(3) 0.1558(2) -0.3280(4)
H21 H 0.1401 0.1938 -0.3302
C18 C 0.0538(3) 0.1550(2) -0.2532(4)
H22 H 0.0456 0.1915 -0.2065
C19 C 0.0099(2) 0.0991(2) -0.2495(3)
C20 C 0.0217(2) 0.0475(2) -0.3234(4)
H23 H -0.0086 0.0097 -0.3251
C21 C 0.0797(2) 0.0530(2) -0.3953(4)
H24 H 0.0872 0.0179 -0.4454
C22 C 0.1081(3) 0.1504(2) 0.2998(4)
H25 H 0.0989 0.1834 0.3531
C23 C 0.0664(3) 0.1517(2) 0.1909(4)
H26 H 0.0291 0.1840 0.1718
C24 C 0.0807(2) 0.1044(2) 0.1098(4)
C25 C 0.1331(3) 0.0568(2) 0.1438(4)
H27 H 0.1428 0.0233 0.0917
C26 C 0.1714(3) 0.0585(2) 0.2553(4)
H28 H 0.2070 0.0252 0.2770
C27 C -0.1458(2) 0.1263(2) 0.0849(4)
C28 C -0.1037(2) 0.2253(2) 0.0156(4)
C29 C -0.1973(3) 0.0239(3) 0.1591(4)
H29 H -0.2394 0.0079 0.1044
H30 H -0.2050 0.0113 0.2382
H31 H -0.1498 0.0052 0.1397
C30 C -0.2489(3) 0.1328(3) 0.2124(4)
H32 H -0.2465 0.1178 0.2929
H33 H -0.3000 0.1260 0.1728
H34 H -0.2365 0.1790 0.2115
C31 C -0.1661(3) 0.3230(2) 0.0859(5)
H35 H -0.2125 0.2973 0.0841
H36 H -0.1787 0.3666 0.0564
H37 H -0.1415 0.3258 0.1659
C32 C -0.0719(3) 0.3324(2) -0.0626(4)
H38 H -0.0181 0.3323 -0.0327
H39 H -0.0914 0.3767 -0.0619
H40 H -0.0785 0.3157 -0.1422
N1 N 0.57169(19) 0.10585(17) 0.9987(3)
N2 N 0.49792(18) 0.21075(16) 1.0673(3)
N3 N 0.6082(2) 0.2189(2) 0.9594(3)
N4 N 0.6668(2) 0.1322(2) 0.8824(3)
N5 N 0.5560(2) 0.3102(2) 1.0385(4)
N6 N 0.30656(19) 0.10688(17) 0.6813(3)
N7 N 0.3339(2) 0.10478(16) 1.4087(3)
N8 N 0.12540(19) 0.10551(17) -0.3971(3)
N9 N 0.16131(19) 0.10500(17) 0.3359(3)
N10 N -0.05063(18) 0.20113(16) -0.0500(3)
N11 N -0.10157(19) 0.08604(16) 0.0244(3)
N12 N -0.14824(19) 0.19214(18) 0.0847(3)
N13 N -0.1135(2) 0.29105(18) 0.0111(3)
N14 N -0.1935(2) 0.0955(2) 0.1514(3)
O1 O 0.42514(15) 0.09822(13) 1.0206(2)
O2 O -0.04734(15) 0.09216(13) -0.1758(2)
O3 O 0.51217(15) 0.10267(13) 1.1954(2)
O4 O 0.04408(16) 0.10067(13) -0.0045(2)
P1 P 0.50495(6) 0.13311(6) 1.06489(10)
P2 P -0.04240(6) 0.12335(6) -0.04592(10)
Cl1 Cl 0.23296(6) -0.01353(5) 0.50902(10)
Cl2 Cl 0.22919(6) 0.22586(5) 0.50766(10)
Co1 Co 0.23130(3) 0.10653(2) 0.50841(5)
N7_2 N 0.3339(2) 0.10478(16) 0.4087(3)
N8_2 N 0.12540(19) 0.10551(17) 0.6029(3)
Co1_2 Co 0.23130(3) 0.10653(2) -0.49159(5)
Co1_3 Co 0.23130(3) 0.10653(2) 1.50841(5)
loop_
_geom_bond_atom_site_label_1
_geom_bond_atom_site_label_2
_geom_bond_site_symmetry_1
_geom_bond_site_symmetry_2
C1 N2 1_555 1_555
C2 N1 1_555 1_555
C3 H1 1_555 1_555
H2 C3 1_555 1_555
H3 C3 1_555 1_555
C4 H4 1_555 1_555
H5 C4 1_555 1_555
H6 C4 1_555 1_555
C5 H7 1_555 1_555
H8 C5 1_555 1_555
H9 C5 1_555 1_555
C6 H10 1_555 1_555
H11 C6 1_555 1_555
H12 C6 1_555 1_555
C7 C8 1_555 1_555
C8 H13 1_555 1_555
C9 C8 1_555 1_555
H14 C9 1_555 1_555
C10 H15 1_555 1_555
C11 C7 1_555 1_555
H16 C11 1_555 1_555
C12 H17 1_555 1_555
C13 C12 1_555 1_555
H18 C13 1_555 1_555
C14 C13 1_555 1_555
C15 C14 1_555 1_555
H19 C15 1_555 1_555
C16 C15 1_555 1_555
H20 C16 1_555 1_555
C17 H21 1_555 1_555
C18 C17 1_555 1_555
H22 C18 1_555 1_555
C19 C18 1_555 1_555
C20 C19 1_555 1_555
H23 C20 1_555 1_555
C21 C20 1_555 1_555
H24 C21 1_555 1_555
C22 H25 1_555 1_555
C23 C22 1_555 1_555
H26 C23 1_555 1_555
C24 C23 1_555 1_555
C25 C24 1_555 1_555
H27 C25 1_555 1_555
C26 C25 1_555 1_555
H28 C26 1_555 1_555
C27 N11 1_555 1_555
C28 N10 1_555 1_555
C29 H29 1_555 1_555
H30 C29 1_555 1_555
H31 C29 1_555 1_555
C30 H32 1_555 1_555
H33 C30 1_555 1_555
H34 C30 1_555 1_555
C31 H35 1_555 1_555
H36 C31 1_555 1_555
H37 C31 1_555 1_555
C32 H38 1_555 1_555
H39 C32 1_555 1_555
H40 C32 1_555 1_555
N1 P1 1_555 1_555
N2 P1 1_555 1_555
N3 C1 1_555 1_555
N4 C2 1_555 1_555
N5 C1 1_555 1_555
N6 C9 1_555 1_555
N7 C12 1_555 1_555
N8 C17 1_555 1_555
N9 C22 1_555 1_555
N10 P2 1_555 1_555
N11 P2 1_555 1_555
N12 C27 1_555 1_555
N13 C28 1_555 1_555
N14 C27 1_555 1_555
O1 C7 1_555 1_555
O2 C19 1_555 1_555
O3 C14 1_555 1_555
O4 C24 1_555 1_555
P1 O1 1_555 1_555
P2 O2 1_555 1_555
Cl1 Co1 1_555 1_555
Cl2 Co1 1_555 1_555
Co1 N6 1_555 1_555
N7_2 Co1 1_555 1_555
N8_2 Co1 1_555 1_555
Co1_2 N8 1_555 1_555
Co1_3 N7 1_555 1_555
C2 N3 1_555 1_555
C3 N5 1_555 1_555
C4 N5 1_555 1_555
C5 N4 1_555 1_555
C6 N4 1_555 1_555
C10 C11 1_555 1_555
C10 N6 1_555 1_555
C16 N7 1_555 1_555
C21 N8 1_555 1_555
C26 N9 1_555 1_555
C28 N12 1_555 1_555
C29 N14 1_555 1_555
C30 N14 1_555 1_555
C31 N13 1_555 1_555
C32 N13 1_555 1_555
N9 Co1 1_555 1_555
O3 P1 1_555 1_555
O4 P2 1_555 1_555

#END
