
#######################################################################
#
#                 Cambridge Crystallographic Data Centre
#                                CCDC 
#
#######################################################################
#
# If this CIF has been generated from an entry in the Cambridge 
# Structural Database, then it will include bibliographic, chemical, 
# crystal, experimental, refinement or atomic coordinate data resulting 
# from the CCDC's data processing and validation procedures.
#
#######################################################################

data_OVICAY
_symmetry_cell_setting           triclinic
_symmetry_space_group_name_H-M   'P -1'
_symmetry_Int_Tables_number      2
_space_group_name_Hall           '-P 1'
loop_
_symmetry_equiv_pos_site_id
_symmetry_equiv_pos_as_xyz
1 x,y,z
2 -x,-y,-z
_cell_length_a                   9.413(5)
_cell_length_b                   14.990(5)
_cell_length_c                   15.112(5)
_cell_angle_alpha                116.842(5)
_cell_angle_beta                 97.929(5)
_cell_angle_gamma                94.084(5)
_cell_volume                     1862.75
loop_
_atom_site_label
_atom_site_type_symbol
_atom_site_fract_x
_atom_site_fract_y
_atom_site_fract_z
C1 C 0.4918(8) 0.2770(6) -0.0097(6)
C2 C 0.6054(9) 0.4418(6) 0.0991(6)
C3 C 0.2235(10) 0.2514(9) -0.0451(10)
H1 H 0.1505 0.1961 -0.0595
H2 H 0.1972 0.2791 -0.0902
H3 H 0.2312 0.3027 0.0234
C4 C 0.3542(12) 0.1086(7) -0.1270(8)
H4 H 0.3949 0.1007 -0.1845
H5 H 0.2548 0.0766 -0.1490
H6 H 0.4082 0.0779 -0.0924
C5 C 0.4390(12) 0.5648(9) 0.1605(9)
H7 H 0.4253 0.6100 0.1320
H8 H 0.4290 0.5979 0.2300
H9 H 0.3675 0.5053 0.1238
C6 C 0.7088(14) 0.6178(8) 0.2140(9)
H10 H 0.7930 0.6021 0.1837
H11 H 0.7297 0.6259 0.2814
H12 H 0.6830 0.6795 0.2162
C7 C 0.8218(8) 0.2667(5) 0.1800(5)
C8 C 0.7566(10) 0.1784(6) 0.1720(6)
H13 H 0.7300 0.1214 0.1091
C9 C 0.7304(10) 0.1742(6) 0.2570(5)
H14 H 0.6840 0.1142 0.2507
C10 C 0.8305(8) 0.3399(5) 0.3558(5)
H15 H 0.8557 0.3961 0.4193
C11 C 0.8583(9) 0.3498(6) 0.2730(5)
H16 H 0.9007 0.4114 0.2803
C12 C 0.7179(9) 0.1918(6) -0.3097(5)
H17 H 0.6541 0.1363 -0.3602
C13 C 0.7452(8) 0.2012(6) -0.2123(5)
H18 H 0.7028 0.1522 -0.1983
C14 C 0.8354(8) 0.2840(5) -0.1389(5)
C15 C 0.9008(8) 0.3550(6) -0.1611(5)
H19 H 0.9637 0.4118 -0.1116
C16 C 0.8692(8) 0.3385(6) -0.2588(5)
H20 H 0.9133 0.3859 -0.2742
C17 C 0.5155(9) 0.4019(6) 0.5699(7)
H21 H 0.4498 0.3422 0.5380
C18 C 0.4615(10) 0.4875(7) 0.6152(8)
H22 H 0.3633 0.4878 0.6174
C19 C 0.5617(14) 0.5785(9) 0.6601(12)
H23 H 0.5309 0.6409 0.6933
C20 C 0.7008(13) 0.5728(7) 0.6537(9)
H24 H 0.7674 0.6316 0.6797
C21 C 0.7457(10) 0.4798(6) 0.6085(7)
H25 H 0.8440 0.4770 0.6078
C22 C 0.7337(8) -0.0041(5) 0.4298(6)
H26 H 0.6476 0.0036 0.4543
C23 C 0.7799(10) -0.0947(6) 0.3994(6)
H27 H 0.7273 -0.1477 0.4027
C24 C 0.9081(11) -0.1060(7) 0.3632(7)
H28 H 0.9442 -0.1670 0.3430
C25 C 0.9807(9) -0.0289(6) 0.3573(7)
H29 H 1.0655 -0.0359 0.3312
C26 C 0.9243(9) 0.0625(6) 0.3916(6)
H30 H 0.9752 0.1166 0.3893
N1 N 0.7407(7) 0.4205(5) 0.0958(5)
N2 N 0.6110(7) 0.2347(5) -0.0247(5)
N3 N 0.4807(7) 0.3766(5) 0.0505(5)
N4 N 0.5878(9) 0.5355(6) 0.1539(7)
N5 N 0.3612(8) 0.2156(6) -0.0589(6)
N6 N 0.7698(6) 0.2541(4) 0.3492(4)
N7 N 0.7801(7) 0.2597(4) -0.3332(4)
N8 N 0.6534(6) 0.3935(4) 0.5658(4)
N9 N 0.8031(6) 0.0756(4) 0.4271(4)
N10 N 0.4387(7) 0.1163(5) 0.4128(5)
N11 N 1.0842(7) 0.3370(5) 0.5321(5)
O1 O 0.8597(5) 0.2690(4) 0.0962(4)
O2 O 0.8705(5) 0.2960(4) -0.0420(4)
O3 O 0.9846(6) 0.3006(6) 0.5546(5)
O4 O 1.1678(11) 0.2869(7) 0.4894(9)
O5 O 1.0941(9) 0.4277(6) 0.5529(8)
O6 O 0.4923(8) 0.1553(6) 0.3646(5)
O7 O 0.3338(7) 0.0527(6) 0.3773(5)
O8 O 0.5009(6) 0.1493(4) 0.5024(4)
P1 P 0.7590(2) 0.30846(16) 0.03159(13)
Cd1 Cd 0.73230(5) 0.23735(3) 0.49523(3)
N7_2 N 0.7801(7) 0.2597(4) 0.6668(4)
Cd1_2 Cd 0.73230(5) 0.23735(3) -0.50477(3)
C27 C 0.2267(13) 0.0772(8) 0.1721(8)
H31 H 0.2857 0.0721 0.2278
Cl1 Cl 0.3422(8) 0.1162(8) 0.1127(5)
Cl2 Cl 0.1298(10) 0.1594(5) 0.2173(10)
Cl3 Cl 0.1212(10) -0.0367(4) 0.0957(4)
loop_
_geom_bond_atom_site_label_1
_geom_bond_atom_site_label_2
_geom_bond_site_symmetry_1
_geom_bond_site_symmetry_2
C1 N2 1_555 1_555
C2 N1 1_555 1_555
C3 H1 1_555 1_555
H2 C3 1_555 1_555
H3 C3 1_555 1_555
C4 H4 1_555 1_555
H5 C4 1_555 1_555
H6 C4 1_555 1_555
C5 H7 1_555 1_555
H8 C5 1_555 1_555
H9 C5 1_555 1_555
C6 H10 1_555 1_555
H11 C6 1_555 1_555
H12 C6 1_555 1_555
C7 C8 1_555 1_555
C8 H13 1_555 1_555
C9 C8 1_555 1_555
H14 C9 1_555 1_555
C10 H15 1_555 1_555
C11 C7 1_555 1_555
H16 C11 1_555 1_555
C12 H17 1_555 1_555
C13 C12 1_555 1_555
H18 C13 1_555 1_555
C14 C13 1_555 1_555
C15 C14 1_555 1_555
H19 C15 1_555 1_555
C16 C15 1_555 1_555
H20 C16 1_555 1_555
C17 H21 1_555 1_555
C18 C17 1_555 1_555
H22 C18 1_555 1_555
C19 C18 1_555 1_555
H23 C19 1_555 1_555
C20 C19 1_555 1_555
H24 C20 1_555 1_555
C21 C20 1_555 1_555
H25 C21 1_555 1_555
C22 H26 1_555 1_555
C23 C22 1_555 1_555
H27 C23 1_555 1_555
C24 C23 1_555 1_555
H28 C24 1_555 1_555
C25 C24 1_555 1_555
H29 C25 1_555 1_555
C26 C25 1_555 1_555
H30 C26 1_555 1_555
N1 P1 1_555 1_555
N2 P1 1_555 1_555
N3 C1 1_555 1_555
N4 C2 1_555 1_555
N5 C1 1_555 1_555
N6 C9 1_555 1_555
N7 C12 1_555 1_555
N8 C17 1_555 1_555
N9 C22 1_555 1_555
N10 O6 1_555 1_555
N11 O3 1_555 1_555
O1 C7 1_555 1_555
O2 C14 1_555 1_555
O3 Cd1 1_555 1_555
O4 N11 1_555 1_555
O5 N11 1_555 1_555
O6 Cd1 1_555 1_555
O7 N10 1_555 1_555
O8 N10 1_555 1_555
P1 O1 1_555 1_555
Cd1 N6 1_555 1_555
C27 H31 1_555 1_555
Cl1 C27 1_555 1_555
Cl2 C27 1_555 1_555
Cl3 C27 1_555 1_555
N7_2 Cd1 1_555 1_555
Cd1_2 N7 1_555 1_555
C2 N3 1_555 1_555
C3 N5 1_555 1_555
C4 N5 1_555 1_555
C5 N4 1_555 1_555
C6 N4 1_555 1_555
C10 C11 1_555 1_555
C10 N6 1_555 1_555
C16 N7 1_555 1_555
C21 N8 1_555 1_555
C26 N9 1_555 1_555
N8 Cd1 1_555 1_555
N9 Cd1 1_555 1_555
O2 P1 1_555 1_555
O8 Cd1 1_555 1_555

#END
