
#######################################################################
#
#                 Cambridge Crystallographic Data Centre
#                                CCDC 
#
#######################################################################
#
# If this CIF has been generated from an entry in the Cambridge 
# Structural Database, then it will include bibliographic, chemical, 
# crystal, experimental, refinement or atomic coordinate data resulting 
# from the CCDC's data processing and validation procedures.
#
#######################################################################

data_OVIDIH
_symmetry_cell_setting           monoclinic
_symmetry_space_group_name_H-M   'C 2/c'
_symmetry_Int_Tables_number      15
_space_group_name_Hall           '-C 2yn'
loop_
_symmetry_equiv_pos_site_id
_symmetry_equiv_pos_as_xyz
1 x,y,z
2 -x,y,1/2-z
3 1/2+x,1/2+y,z
4 1/2-x,1/2+y,1/2-z
5 -x,-y,-z
6 x,-y,1/2+z
7 1/2-x,1/2-y,-z
8 1/2+x,1/2-y,1/2+z
_cell_length_a                   21.328(6)
_cell_length_b                   13.794(6)
_cell_length_c                   22.592(8)
_cell_angle_alpha                90
_cell_angle_beta                 114.387(8)
_cell_angle_gamma                90
_cell_volume                     6053.51
loop_
_atom_site_label
_atom_site_type_symbol
_atom_site_fract_x
_atom_site_fract_y
_atom_site_fract_z
Cd1 Cd 0.32223(4) -0.37942(6) 0.23550(4)
C1 C 0.6830(8) 0.4508(9) 0.3333(6)
C2 C 0.6797(8) 0.3630(9) 0.3705(6)
C3 C 0.6278(8) 0.3464(12) 0.3870(7)
H1 H 0.5926 0.3915 0.3776
C4 C 0.6270(7) 0.2530(10) 0.4212(6)
H2 H 0.5931 0.2378 0.4356
C5 C 0.6795(6) 0.1945(10) 0.4290(6)
C6 C 0.7307(8) 0.2924(10) 0.3850(7)
H3 H 0.7670 0.3052 0.3734
C7 C 0.5433(8) -0.0203(10) 0.4190(6)
C8 C 0.4758(8) -0.0129(9) 0.4108(6)
H4 H 0.4620 0.0355 0.4315
C9 C 0.4302(7) -0.0780(10) 0.3716(6)
H5 H 0.3848 -0.0776 0.3670
C10 C 0.4515(7) -0.1454(8) 0.3383(6)
C11 C 0.5176(7) -0.1436(9) 0.3454(6)
H6 H 0.5309 -0.1860 0.3207
C12 C 0.4007(7) -0.2201(9) 0.2957(6)
C13 C 0.3044(7) -0.9532(10) 0.2316(7)
H7 H 0.2779 -1.0093 0.2224
C14 C 0.3645(7) -0.9531(12) 0.2221(7)
H8 H 0.3771 -1.0078 0.2055
C15 C 0.4050(7) -0.8728(13) 0.2370(7)
C16 C 0.3829(7) -0.7951(11) 0.2583(6)
H9 H 0.4091 -0.7386 0.2682
C17 C 0.3218(6) -0.7972(10) 0.2658(6)
H10 H 0.3074 -0.7417 0.2800
C18 C 0.4704(7) -0.8710(13) 0.2239(8)
H11 H 0.4695 -0.9271 0.1976
H12 H 0.4688 -0.8137 0.1984
C19 C 0.0977(8) -0.0378(11) 0.1487(7)
H13 H 0.0897 -0.0667 0.1821
C20 C 0.0763(8) -0.0875(11) 0.0920(8)
H14 H 0.0549 -0.1473 0.0884
C21 C 0.0855(7) -0.0510(11) 0.0405(8)
C22 C 0.1171(8) 0.0405(12) 0.0524(7)
H15 H 0.1242 0.0725 0.0195
C23 C 0.1368(7) 0.0815(12) 0.1104(8)
H16 H 0.1589 0.1412 0.1162
C24 C 0.0665(9) -0.1013(14) -0.0228(8)
H17 H 0.0395 -0.0581 -0.0580
H18 H 0.0387 -0.1578 -0.0246
C25 C 0.1340(9) -0.1338(13) -0.0313(8)
H19 H 0.1208 -0.1691 -0.0718
H20 H 0.1595 -0.0768 -0.0335
C26 C 0.1806(8) -0.1988(12) 0.0257(7)
C27 C 0.2400(9) -0.1600(12) 0.0711(9)
H21 H 0.2530 -0.0971 0.0663
C28 C 0.2799(7) -0.2147(11) 0.1236(8)
H22 H 0.3214 -0.1889 0.1530
C29 C 0.2067(8) -0.3394(11) 0.0902(7)
H23 H 0.1950 -0.4028 0.0953
C30 C 0.1660(8) -0.2890(12) 0.0377(8)
H24 H 0.1258 -0.3180 0.0084
N1 N 0.2627(5) -0.3011(8) 0.1344(5)
N2 N 0.2832(5) -0.8762(7) 0.2533(5)
N3 N 0.1280(5) 0.0454(8) 0.1611(5)
N4 N 0.5658(6) -0.0820(9) 0.3872(5)
N5 N 0.7316(6) 0.2062(9) 0.4146(6)
O1 O 0.3412(5) -0.2224(6) 0.2951(5)
O2 O 0.4198(5) -0.2759(6) 0.2624(5)
O3 O 0.7372(6) 0.4661(6) 0.3256(5)
O4 O 0.6311(5) 0.5053(6) 0.3117(5)
S1 S 0.6048(3) 0.0554(3) 0.48264(19)
S2 S 0.6862(2) 0.0735(3) 0.4641(2)
Cd1C Cd 0.17777(4) -0.87942(6) 0.26450(4)
Cd1C_2 Cd 0.17777(4) 0.12058(6) 0.26450(4)
Cd1A Cd 0.67777(4) 0.62058(6) 0.26450(4)
Cd1B Cd 0.82223(4) -0.87942(6) 0.23550(4)
Cd1B_2 Cd -0.17777(4) 0.12058(6) 0.23550(4)
C1C C -0.1830(8) -0.0492(9) 0.1667(6)
C2C C -0.1797(8) -0.1370(9) 0.1295(6)
C3C C -0.1278(8) -0.1536(12) 0.1130(7)
H1C H -0.0926 -0.1085 0.1224
C4C C -0.1270(7) -0.2470(10) 0.0788(6)
H2C H -0.0931 -0.2622 0.0644
C5C C -0.1795(6) -0.3055(10) 0.0710(6)
C6C C -0.2307(8) -0.2076(10) 0.1150(7)
H3C H -0.2670 -0.1948 0.1266
C7C C -0.0433(8) -0.5203(10) 0.0810(6)
C8C C 0.0242(8) -0.5129(9) 0.0892(6)
H4C H 0.0380 -0.4645 0.0685
C9C C 0.0698(7) -0.5780(10) 0.1284(6)
H5C H 0.1152 -0.5776 0.1330
C10C C 0.0485(7) -0.6454(8) 0.1617(6)
C11C C -0.0176(7) -0.6436(9) 0.1546(6)
H6C H -0.0309 -0.6860 0.1793
C12C C 0.0993(7) -0.7201(9) 0.2043(6)
C13A C 0.6956(7) -0.9532(10) 0.2684(7)
H7A H 0.7221 -1.0093 0.2776
C14A C 0.6355(7) -0.9531(12) 0.2779(7)
H8A H 0.6229 -1.0078 0.2945
C15A C 0.5950(7) -0.8728(13) 0.2630(7)
C16A C 0.6171(7) -0.7951(11) 0.2417(6)
H9A H 0.5909 -0.7386 0.2318
C17A C 0.6782(6) -0.7972(10) 0.2342(6)
H10A H 0.6926 -0.7417 0.2200
C18A C 0.5296(7) -0.8710(13) 0.2761(8)
H11A H 0.5305 -0.9271 0.3024
H12A H 0.5312 -0.8137 0.3016
C19C C 0.4023(8) -0.5378(11) 0.3513(7)
H13C H 0.4103 -0.5667 0.3179
C20C C 0.4237(8) -0.5875(11) 0.4080(8)
H14C H 0.4451 -0.6473 0.4116
C21C C 0.4145(7) -0.5510(11) 0.4595(8)
C22C C 0.3829(8) -0.4595(12) 0.4476(7)
H15C H 0.3758 -0.4275 0.4805
C23C C 0.3632(7) -0.4185(12) 0.3896(8)
H16C H 0.3411 -0.3588 0.3838
C24C C 0.4335(9) -0.6013(14) 0.5228(8)
H17C H 0.4605 -0.5581 0.5580
H18C H 0.4613 -0.6578 0.5246
C25C C 0.3660(9) -0.6338(13) 0.5313(8)
H19C H 0.3792 -0.6691 0.5718
H20C H 0.3405 -0.5768 0.5335
C26C C 0.3194(8) -0.6988(12) 0.4743(7)
C27C C 0.2600(9) -0.6600(12) 0.4289(9)
H21C H 0.2470 -0.5971 0.4337
C28C C 0.2201(7) -0.7147(11) 0.3764(8)
H22C H 0.1786 -0.6889 0.3470
C29C C 0.2933(8) -0.8394(11) 0.4098(7)
H23C H 0.3050 -0.9028 0.4047
C30C C 0.3340(8) -0.7890(12) 0.4623(8)
H24C H 0.3742 -0.8180 0.4916
N1C N 0.2373(5) -0.8011(8) 0.3656(5)
N2C N 0.2168(5) -0.3762(7) 0.2467(5)
N2A N 0.7168(5) -0.8762(7) 0.2467(5)
N3C N 0.3720(5) -0.4546(8) 0.3389(5)
N3_2 N 0.1280(5) -0.9546(8) 0.1611(5)
N4C N -0.0658(6) -0.5820(9) 0.1128(5)
N5C N -0.2316(6) -0.2938(9) 0.0854(6)
O1C O 0.1588(5) -0.7224(6) 0.2049(5)
O2C O 0.0802(5) -0.7759(6) 0.2376(5)
O3A O 0.2628(6) -0.5339(6) 0.1744(5)
O3B O 0.2372(6) -1.0339(6) 0.3256(5)
O3C O -0.2372(6) -0.0339(6) 0.1744(5)
O4A O 0.3689(5) -0.4947(6) 0.1883(5)
O4B O 0.1311(5) -0.9947(6) 0.3117(5)
O4C O -0.1311(5) 0.0053(6) 0.1883(5)
S1C S -0.1048(3) -0.4446(3) 0.01736(19)
S2C S -0.1862(2) -0.4265(3) 0.0359(2)
O5 O 0.5202(13) -0.4053(18) 0.3263(12)
H25 H 0.4881 -0.3642 0.3055
H26 H 0.5141 -0.4576 0.3042
O6 O 0.5000 -0.5950(13) 0.2500
H27 H 0.5385 -0.5635 0.2681
H27A H 0.4615 -0.5635 0.2319
loop_
_geom_bond_atom_site_label_1
_geom_bond_atom_site_label_2
_geom_bond_site_symmetry_1
_geom_bond_site_symmetry_2
Cd1 N1 1_555 1_555
C1 C2 1_555 1_555
C2 C3 1_555 1_555
C3 H1 1_555 1_555
C4 C3 1_555 1_555
H2 C4 1_555 1_555
C5 C4 1_555 1_555
C6 C2 1_555 1_555
H3 C6 1_555 1_555
C7 C8 1_555 1_555
C8 H4 1_555 1_555
C9 C8 1_555 1_555
H5 C9 1_555 1_555
C10 C9 1_555 1_555
C11 C10 1_555 1_555
H6 C11 1_555 1_555
C12 C10 1_555 1_555
C13 H7 1_555 1_555
C14 C13 1_555 1_555
H8 C14 1_555 1_555
C15 C14 1_555 1_555
C16 C15 1_555 1_555
H9 C16 1_555 1_555
C17 C16 1_555 1_555
H10 C17 1_555 1_555
C18 C15 1_555 1_555
H11 C18 1_555 1_555
H12 C18 1_555 1_555
C19 H13 1_555 1_555
C20 C19 1_555 1_555
H14 C20 1_555 1_555
C21 C20 1_555 1_555
C22 C21 1_555 1_555
H15 C22 1_555 1_555
C23 C22 1_555 1_555
H16 C23 1_555 1_555
C24 C21 1_555 1_555
H17 C24 1_555 1_555
H18 C24 1_555 1_555
C25 C24 1_555 1_555
H19 C25 1_555 1_555
H20 C25 1_555 1_555
C26 C25 1_555 1_555
C27 C26 1_555 1_555
H21 C27 1_555 1_555
C28 C27 1_555 1_555
H22 C28 1_555 1_555
C29 H23 1_555 1_555
C30 C26 1_555 1_555
H24 C30 1_555 1_555
N1 C28 1_555 1_555
N2 C13 1_555 1_555
N3 C19 1_555 1_555
N4 C7 1_555 1_555
N5 C5 1_555 1_555
O1 Cd1 1_555 1_555
O2 Cd1 1_555 1_555
O3 C1 1_555 1_555
O4 C1 1_555 1_555
O5 H25 1_555 1_555
O6 H27 1_555 1_555
S1 C7 1_555 1_555
S2 C5 1_555 1_555
H26 O5 1_555 1_555
Cd1C N2 1_555 1_555
Cd1C_2 N3 1_555 1_555
Cd1A O3 1_555 1_555
Cd1B N2A 1_555 1_555
Cd1B_2 O3C 1_555 1_555
C1C C2C 1_555 1_555
C2C C3C 1_555 1_555
C3C H1C 1_555 1_555
C4C C3C 1_555 1_555
H2C C4C 1_555 1_555
C5C C4C 1_555 1_555
C6C C2C 1_555 1_555
H3C C6C 1_555 1_555
C7C C8C 1_555 1_555
C8C H4C 1_555 1_555
C9C C8C 1_555 1_555
H5C C9C 1_555 1_555
C10C C9C 1_555 1_555
C11C C10C 1_555 1_555
H6C C11C 1_555 1_555
C12C C10C 1_555 1_555
C13A H7A 1_555 1_555
C14A C13A 1_555 1_555
H8A C14A 1_555 1_555
C15A C14A 1_555 1_555
C16A C15A 1_555 1_555
H9A C16A 1_555 1_555
C17A C16A 1_555 1_555
H10A C17A 1_555 1_555
C18A C18 1_555 1_555
H11A C18A 1_555 1_555
H12A C18A 1_555 1_555
C19C H13C 1_555 1_555
C20C C19C 1_555 1_555
H14C C20C 1_555 1_555
C21C C20C 1_555 1_555
C22C C21C 1_555 1_555
H15C C22C 1_555 1_555
C23C C22C 1_555 1_555
H16C C23C 1_555 1_555
C24C C21C 1_555 1_555
H17C C24C 1_555 1_555
H18C C24C 1_555 1_555
C25C C24C 1_555 1_555
H19C C25C 1_555 1_555
H20C C25C 1_555 1_555
C26C C25C 1_555 1_555
C27C C26C 1_555 1_555
H21C C27C 1_555 1_555
C28C C27C 1_555 1_555
H22C C28C 1_555 1_555
C29C H23C 1_555 1_555
C30C C26C 1_555 1_555
H24C C30C 1_555 1_555
N1C Cd1C 1_555 1_555
N2C Cd1 1_555 1_555
N2A C13A 1_555 1_555
N3C Cd1 1_555 1_555
N3_2 Cd1C 1_555 1_555
N4C C7C 1_555 1_555
N5C C5C 1_555 1_555
O1C Cd1C 1_555 1_555
O2C Cd1C 1_555 1_555
O3A Cd1 1_555 1_555
O3B Cd1C 1_555 1_555
O3C C1C 1_555 1_555
O4A Cd1 1_555 1_555
O4B Cd1C 1_555 1_555
O4C Cd1B_2 1_555 1_555
S1C C7C 1_555 1_555
S2C C5C 1_555 1_555
H27A O6 1_555 1_555
C6 N5 1_555 1_555
C11 N4 1_555 1_555
C12 O1 1_555 1_555
C12 O2 1_555 1_555
C17 N2 1_555 1_555
C23 N3 1_555 1_555
C29 C30 1_555 1_555
C29 N1 1_555 1_555
O4 Cd1A 1_555 1_555
S1 S2 1_555 1_555
C1C O4C 1_555 1_555
C6C N5C 1_555 1_555
C11C N4C 1_555 1_555
C12C O1C 1_555 1_555
C12C O2C 1_555 1_555
C15A C18A 1_555 1_555
C17A N2A 1_555 1_555
C19C N3C 1_555 1_555
C23C N3C 1_555 1_555
C28C N1C 1_555 1_555
C29C C30C 1_555 1_555
C29C N1C 1_555 1_555
S1C S2C 1_555 1_555

#END
