
#######################################################################
#
#                 Cambridge Crystallographic Data Centre
#                                CCDC 
#
#######################################################################
#
# If this CIF has been generated from an entry in the Cambridge 
# Structural Database, then it will include bibliographic, chemical, 
# crystal, experimental, refinement or atomic coordinate data resulting 
# from the CCDC's data processing and validation procedures.
#
#######################################################################

data_OVIDED
_symmetry_cell_setting           triclinic
_symmetry_space_group_name_H-M   'P -1'
_symmetry_Int_Tables_number      2
_space_group_name_Hall           '-P 1'
loop_
_symmetry_equiv_pos_site_id
_symmetry_equiv_pos_as_xyz
1 x,y,z
2 -x,-y,-z
_cell_length_a                   7.9715(18)
_cell_length_b                   11.701(3)
_cell_length_c                   15.038(3)
_cell_angle_alpha                72.375(3)
_cell_angle_beta                 82.931(3)
_cell_angle_gamma                75.442(3)
_cell_volume                     1292.22
loop_
_atom_site_label
_atom_site_type_symbol
_atom_site_fract_x
_atom_site_fract_y
_atom_site_fract_z
Zn1 Zn 0.18459(8) 0.39226(6) 0.68199(4)
C1 C 0.0518(7) -0.3350(6) 0.5977(4)
H1 H 0.1273 -0.3464 0.5472
C2 C -0.0316(8) -0.2170(5) 0.5969(4)
H2 H -0.0113 -0.1512 0.5470
C3 C -0.1465(7) -0.1955(5) 0.6705(4)
C4 C -0.1733(7) -0.2984(5) 0.7391(4)
H3 H -0.2539 -0.2905 0.7884
C5 C -0.0812(7) -0.4131(5) 0.7349(4)
H4 H -0.0993 -0.4807 0.7837
C6 C -0.2335(7) -0.0672(5) 0.6741(4)
H5 H -0.1499 -0.0158 0.6525
H6 H -0.3264 -0.0349 0.6310
C7 C -0.3072(7) -0.0569(5) 0.7687(5)
H7 H -0.2164 -0.0944 0.8129
H8 H -0.3973 -0.1031 0.7884
C8 C -0.3826(8) 0.0738(6) 0.7721(5)
H9 H -0.4708 0.1126 0.7265
H10 H -0.4383 0.0725 0.8334
C9 C -0.2478(8) 0.1500(6) 0.7526(5)
C10 C -0.2519(8) 0.2488(7) 0.6778(5)
H11 H -0.3387 0.2709 0.6357
C11 C -0.1279(7) 0.3185(6) 0.6628(4)
H12 H -0.1353 0.3872 0.6110
C12 C 0.0083(8) 0.1916(6) 0.7910(5)
H13 H 0.0987 0.1687 0.8310
C13 C -0.1119(9) 0.1199(6) 0.8092(5)
H14 H -0.1007 0.0504 0.8605
C14 C 0.3430(8) 0.3528(9) 0.5307(5)
C15 C 0.4455(7) 0.3060(6) 0.4526(4)
C16 C 0.4906(7) 0.3842(6) 0.3703(4)
H15 H 0.4575 0.4689 0.3611
C17 C 0.5857(7) 0.3370(6) 0.3007(4)
H16 H 0.6149 0.3889 0.2437
C18 C 0.6352(6) 0.2124(5) 0.3184(4)
C19 C 0.4991(8) 0.1815(6) 0.4619(4)
H17 H 0.4666 0.1275 0.5170
C20 C 0.6756(7) 0.2994(5) 0.0500(4)
C21 C 0.7233(7) 0.3400(5) -0.0432(4)
H18 H 0.8344 0.3524 -0.0622
C22 C 0.6027(7) 0.3616(5) -0.1071(4)
H19 H 0.6324 0.3885 -0.1705
C23 C 0.4376(7) 0.3439(5) -0.0787(4)
C24 C 0.4005(7) 0.3077(6) 0.0160(4)
H20 H 0.2883 0.2990 0.0365
C25 C 0.3035(7) 0.3584(5) -0.1447(4)
N1 N 0.0013(5) 0.2909(4) 0.7197(3)
N2 N 0.0312(5) -0.4338(4) 0.6662(3)
N3 N 0.5157(6) 0.2843(5) 0.0806(3)
N4 N 0.5936(6) 0.1337(4) 0.3976(3)
O1 O 0.3547(5) 0.3752(3) -0.2302(2)
O2 O 0.1530(5) 0.3542(4) -0.1154(3)
O3 O 0.3298(7) 0.2780(7) 0.6065(4)
O4 O 0.2827(8) 0.4598(6) 0.5201(4)
S1 S 0.7647(2) 0.13302(15) 0.24187(10)
S2 S 0.83689(19) 0.26409(19) 0.13226(11)
Zn1_2 Zn 0.18459(8) 0.39226(6) -0.31801(4)
Zn1_3 Zn 0.18459(8) -0.60774(6) 0.68199(4)
N2_2 N 0.0312(5) 0.5662(4) 0.6662(3)
O1_2 O 0.3547(5) 0.3752(3) 0.7698(2)
loop_
_geom_bond_atom_site_label_1
_geom_bond_atom_site_label_2
_geom_bond_site_symmetry_1
_geom_bond_site_symmetry_2
Zn1 N1 1_555 1_555
C1 H1 1_555 1_555
C2 C1 1_555 1_555
H2 C2 1_555 1_555
C3 C2 1_555 1_555
C4 C3 1_555 1_555
H3 C4 1_555 1_555
C5 C4 1_555 1_555
H4 C5 1_555 1_555
C6 C3 1_555 1_555
H5 C6 1_555 1_555
H6 C6 1_555 1_555
C7 C6 1_555 1_555
H7 C7 1_555 1_555
H8 C7 1_555 1_555
C8 C7 1_555 1_555
H9 C8 1_555 1_555
H10 C8 1_555 1_555
C9 C8 1_555 1_555
C10 C9 1_555 1_555
H11 C10 1_555 1_555
C11 C10 1_555 1_555
H12 C11 1_555 1_555
C12 H13 1_555 1_555
C13 C9 1_555 1_555
H14 C13 1_555 1_555
C14 C15 1_555 1_555
C15 C16 1_555 1_555
C16 H15 1_555 1_555
C17 C16 1_555 1_555
H16 C17 1_555 1_555
C18 C17 1_555 1_555
C19 C15 1_555 1_555
H17 C19 1_555 1_555
C20 C21 1_555 1_555
C21 H18 1_555 1_555
C22 C21 1_555 1_555
H19 C22 1_555 1_555
C23 C22 1_555 1_555
C24 C23 1_555 1_555
H20 C24 1_555 1_555
C25 C23 1_555 1_555
N1 C11 1_555 1_555
N2 C1 1_555 1_555
N3 C20 1_555 1_555
N4 C18 1_555 1_555
O1 C25 1_555 1_555
O2 C25 1_555 1_555
O3 Zn1 1_555 1_555
O4 Zn1 1_555 1_555
S1 C18 1_555 1_555
S2 C20 1_555 1_555
Zn1_2 O1 1_555 1_555
Zn1_3 N2 1_555 1_555
N2_2 Zn1 1_555 1_555
O1_2 Zn1 1_555 1_555
C5 N2 1_555 1_555
C12 C13 1_555 1_555
C12 N1 1_555 1_555
C14 O3 1_555 1_555
C14 O4 1_555 1_555
C19 N4 1_555 1_555
C24 N3 1_555 1_555
S1 S2 1_555 1_555

#END
