
#######################################################################
#
#                 Cambridge Crystallographic Data Centre
#                                CCDC 
#
#######################################################################
#
# If this CIF has been generated from an entry in the Cambridge 
# Structural Database, then it will include bibliographic, chemical, 
# crystal, experimental, refinement or atomic coordinate data resulting 
# from the CCDC's data processing and validation procedures.
#
#######################################################################

data_OVIDAZ
_symmetry_cell_setting           triclinic
_symmetry_space_group_name_H-M   'P -1'
_symmetry_Int_Tables_number      2
_space_group_name_Hall           '-P 1'
loop_
_symmetry_equiv_pos_site_id
_symmetry_equiv_pos_as_xyz
1 x,y,z
2 -x,-y,-z
_cell_length_a                   8.330(4)
_cell_length_b                   10.652(6)
_cell_length_c                   12.045(6)
_cell_angle_alpha                69.424(6)
_cell_angle_beta                 76.870(7)
_cell_angle_gamma                79.897(7)
_cell_volume                     969.059
loop_
_atom_site_label
_atom_site_type_symbol
_atom_site_fract_x
_atom_site_fract_y
_atom_site_fract_z
N1 N 0.2768(15) 0.4645(14) 0.3063(11)
Zn1 Zn 0.38947(17) 0.45796(14) 0.44132(11)
S1 S 1.2952(5) -0.0444(4) 0.2803(3)
S2 S 1.2105(5) -0.1095(3) 0.1669(3)
O1 O 0.5986(11) 0.3351(9) 0.4122(8)
O2 O 0.7696(11) 0.4030(9) 0.4970(8)
O3 O 1.4637(12) 0.3823(10) -0.3309(8)
O4 O 1.2990(12) 0.3057(10) -0.4092(8)
C1 C 0.7390(15) 0.3324(12) 0.4405(10)
C2 C 0.8772(15) 0.2357(13) 0.4027(11)
C3 C 1.0245(17) 0.2039(14) 0.4479(11)
H1 H 1.0370 0.2416 0.5039
C4 C 1.1503(17) 0.1187(13) 0.4113(11)
H2 H 1.2481 0.0963 0.4422
C5 C 1.1266(17) 0.0660(12) 0.3254(11)
N2 N 0.9871(14) 0.0954(12) 0.2784(10)
C6 C 0.8647(16) 0.1799(14) 0.3194(12)
H3 H 0.7669 0.2008 0.2887
C7 C 1.2548(16) 0.0163(13) 0.0230(12)
N3 N 1.3237(15) 0.1234(13) 0.0124(10)
C8 C 1.361(2) 0.2110(14) -0.1025(12)
H4 H 1.4174 0.2833 -0.1130
C9 C 1.3213(18) 0.2013(14) -0.2022(11)
C10 C 1.2408(18) 0.0880(15) -0.1844(12)
H5 H 1.2085 0.0766 -0.2490
C11 C 1.211(2) -0.0041(15) -0.0734(12)
H6 H 1.1608 -0.0805 -0.0615
C12 C 1.3651(16) 0.3052(12) -0.3246(11)
C13 C 0.341(2) 0.400(2) 0.2276(14)
H7 H 0.4356 0.3402 0.2413
C14 C 0.278(2) 0.416(2) 0.1278(16)
H8 H 0.3337 0.3724 0.0733
C15 C 0.129(3) 0.499(2) 0.1071(15)
C16 C 0.049(2) 0.550(2) 0.1965(14)
H9 H -0.0563 0.5963 0.1934
C17 C 0.1281(19) 0.5326(17) 0.2940(13)
H10 H 0.0731 0.5707 0.3528
C18 C 0.068(3) 0.541(3) -0.0108(15)
H11 H 0.0287 0.6360 -0.0357
H12 H 0.1564 0.5237 -0.0734
N1A N -0.2768(15) 0.5355(14) -0.3063(11)
Zn1A Zn -0.38947(17) 0.54204(14) -0.44132(11)
Zn1A_2 Zn 0.61053(17) 0.54204(14) 0.55868(11)
Zn1A_3 Zn 1.61053(17) 0.54204(14) -0.44132(11)
Zn1_2 Zn 1.38947(17) 0.45796(14) -0.55868(11)
S1A S 0.7048(5) 1.0444(4) -0.2803(3)
S2A S 0.7895(5) 1.1095(3) -0.1669(3)
O1A O 1.4014(11) 0.6649(9) -0.4122(8)
O1A_2 O -0.5986(11) 0.6649(9) -0.4122(8)
O2A O 1.2304(11) 0.5970(9) -0.4970(8)
O2A_2 O 0.2304(11) 0.5970(9) 0.5030(8)
O2_2 O -0.2304(11) 0.4030(9) -0.5030(8)
O3A O 0.5363(12) 0.6177(10) 0.3309(8)
O3_2 O -0.5363(12) 0.3823(10) -0.3309(8)
O4A O 0.7010(12) 0.6943(10) 0.4092(8)
O4_2 O 0.2990(12) 0.3057(10) 0.5908(8)
O4A_2 O -0.2990(12) 0.6943(10) -0.5908(8)
C1A C 1.2610(15) 0.6676(12) -0.4405(10)
C2A C 1.1228(15) 0.7643(13) -0.4027(11)
C3A C 0.9755(17) 0.7961(14) -0.4479(11)
H1A H 0.9630 0.7584 -0.5039
C4A C 0.8497(17) 0.8813(13) -0.4113(11)
H2A H 0.7519 0.9037 -0.4422
C5A C 0.8734(17) 0.9340(12) -0.3254(11)
N2A N 1.0129(14) 0.9046(12) -0.2784(10)
C6A C 1.1353(16) 0.8201(14) -0.3194(12)
H3A H 1.2331 0.7992 -0.2887
C7A C 0.7452(16) 0.9837(13) -0.0230(12)
N3A N 0.6763(15) 0.8766(13) -0.0124(10)
C8A C 0.639(2) 0.7890(14) 0.1025(12)
H4A H 0.5826 0.7167 0.1130
C9A C 0.6787(18) 0.7987(14) 0.2022(11)
C10A C 0.7592(18) 0.9120(15) 0.1844(12)
H5A H 0.7915 0.9234 0.2490
C11A C 0.789(2) 1.0041(15) 0.0734(12)
H6A H 0.8392 1.0805 0.0615
C12A C 0.6349(16) 0.6948(12) 0.3246(11)
C13A C -0.341(2) 0.600(2) -0.2276(14)
H7A H -0.4356 0.6598 -0.2413
C14A C -0.278(2) 0.584(2) -0.1278(16)
H8A H -0.3337 0.6276 -0.0733
C15A C -0.129(3) 0.501(2) -0.1071(15)
C16A C -0.049(2) 0.450(2) -0.1965(14)
H9A H 0.0563 0.4037 -0.1934
C17A C -0.1281(19) 0.4674(17) -0.2940(13)
H10A H -0.0731 0.4293 -0.3528
C18A C -0.068(3) 0.459(3) 0.0108(15)
H11A H -0.0287 0.3640 0.0357
H12A H -0.1564 0.4763 0.0734
loop_
_geom_bond_atom_site_label_1
_geom_bond_atom_site_label_2
_geom_bond_site_symmetry_1
_geom_bond_site_symmetry_2
N1 Zn1 1_555 1_555
Zn1 O1 1_555 1_555
S1 S2 1_555 1_555
S2 C7 1_555 1_555
O1 C1 1_555 1_555
O2 C1 1_555 1_555
O3 C12 1_555 1_555
O4 C12 1_555 1_555
C1 C2 1_555 1_555
C2 C3 1_555 1_555
C3 H1 1_555 1_555
C4 C3 1_555 1_555
H2 C4 1_555 1_555
C5 S1 1_555 1_555
N2 C5 1_555 1_555
C6 C2 1_555 1_555
H3 C6 1_555 1_555
C7 N3 1_555 1_555
N3 C8 1_555 1_555
C8 H4 1_555 1_555
C9 C8 1_555 1_555
C10 C9 1_555 1_555
H5 C10 1_555 1_555
C11 C7 1_555 1_555
H6 C11 1_555 1_555
C12 C9 1_555 1_555
C13 N1 1_555 1_555
H7 C13 1_555 1_555
C14 C13 1_555 1_555
H8 C14 1_555 1_555
C15 C14 1_555 1_555
C16 C15 1_555 1_555
H9 C16 1_555 1_555
C17 N1 1_555 1_555
H10 C17 1_555 1_555
C18 C15 1_555 1_555
H11 C18 1_555 1_555
H12 C18 1_555 1_555
N1A Zn1A 1_555 1_555
Zn1A O1A_2 1_555 1_555
Zn1A_2 O2 1_555 1_555
Zn1A_3 O3 1_555 1_555
Zn1_2 O4 1_555 1_555
S1A S2A 1_555 1_555
S2A C7A 1_555 1_555
O1A Zn1A_3 1_555 1_555
O2A Zn1_2 1_555 1_555
O2A_2 Zn1 1_555 1_555
O2_2 Zn1A 1_555 1_555
O3A Zn1 1_555 1_555
O3_2 Zn1A 1_555 1_555
O4A Zn1A_2 1_555 1_555
O4_2 Zn1 1_555 1_555
O4A_2 Zn1A 1_555 1_555
C1A O1A 1_555 1_555
C2A C1A 1_555 1_555
C3A C2A 1_555 1_555
H1A C3A 1_555 1_555
C4A C3A 1_555 1_555
H2A C4A 1_555 1_555
C5A S1A 1_555 1_555
N2A C5A 1_555 1_555
C6A C2A 1_555 1_555
H3A C6A 1_555 1_555
C7A N3A 1_555 1_555
N3A C8A 1_555 1_555
C8A H4A 1_555 1_555
C9A C8A 1_555 1_555
C10A C9A 1_555 1_555
H5A C10A 1_555 1_555
C11A C7A 1_555 1_555
H6A C11A 1_555 1_555
C12A O3A 1_555 1_555
C13A N1A 1_555 1_555
H7A C13A 1_555 1_555
C14A C13A 1_555 1_555
H8A C14A 1_555 1_555
C15A C14A 1_555 1_555
C16A C15A 1_555 1_555
H9A C16A 1_555 1_555
C17A N1A 1_555 1_555
H10A C17A 1_555 1_555
C18A C18 1_555 1_555
H11A C18A 1_555 1_555
H12A C18A 1_555 1_555
C4 C5 1_555 1_555
N2 C6 1_555 1_555
C10 C11 1_555 1_555
C16 C17 1_555 1_555
O2A C1A 1_555 1_555
O4A C12A 1_555 1_555
C4A C5A 1_555 1_555
N2A C6A 1_555 1_555
C9A C12A 1_555 1_555
C10A C11A 1_555 1_555
C15A C18A 1_555 1_555
C16A C17A 1_555 1_555

#END
