
#######################################################################
#
#                 Cambridge Crystallographic Data Centre
#                                CCDC 
#
#######################################################################
#
# If this CIF has been generated from an entry in the Cambridge 
# Structural Database, then it will include bibliographic, chemical, 
# crystal, experimental, refinement or atomic coordinate data resulting 
# from the CCDC's data processing and validation procedures.
#
#######################################################################

data_OVIGAC
_symmetry_cell_setting           monoclinic
_symmetry_space_group_name_H-M   'P 21/c'
_symmetry_Int_Tables_number      14
_space_group_name_Hall           '-P 2ybc'
loop_
_symmetry_equiv_pos_site_id
_symmetry_equiv_pos_as_xyz
1 x,y,z
2 -x,1/2+y,1/2-z
3 -x,-y,-z
4 x,1/2-y,1/2+z
_cell_length_a                   8.8759(9)
_cell_length_b                   11.4112(11)
_cell_length_c                   8.8908(9)
_cell_angle_alpha                90
_cell_angle_beta                 106.010(6)
_cell_angle_gamma                90
_cell_volume                     865.575
loop_
_atom_site_label
_atom_site_type_symbol
_atom_site_fract_x
_atom_site_fract_y
_atom_site_fract_z
Ni1 Ni 0.5000 0.0000 0.0000
O1 O 0.65075(12) -0.14461(8) 0.02407(12)
O2 O 0.54870(14) 0.01226(7) 0.23647(11)
N1 N 0.69422(14) 0.10679(9) -0.00376(13)
C1 C 0.79925(18) 0.06979(12) -0.07662(17)
C2 C 0.80652(19) 0.29831(12) 0.01152(19)
C3 C 0.91173(17) 0.25935(12) -0.06668(17)
C4 C 0.91143(18) 0.14201(13) -0.10784(18)
C5 C 1.0137(2) 0.34231(15) -0.1130(2)
C6 C 0.70252(17) 0.21845(12) 0.04326(18)
N2 N 1.0868(2) 0.40992(16) -0.1547(2)
O3 O 0.61134(15) -0.17302(8) 0.31062(11)
C7 C 0.54008(17) -0.04615(11) 0.48797(15)
C8 C 0.57071(16) -0.07063(11) 0.33363(14)
H1 H 0.633(2) 0.2417(15) 0.098(2)
H2 H 0.789(2) -0.0100(14) -0.113(2)
H3 H 0.651(2) -0.1696(17) 0.105(2)
H4 H 0.802(2) 0.3779(17) 0.042(2)
H5 H 0.642(2) -0.199(2) -0.037(3)
H6 H 0.982(2) 0.1159(16) -0.161(2)
H7 H 0.574(2) -0.1026(15) 0.571(2)
Ni1_2 Ni 0.5000 0.0000 1.0000
O1B O 0.34925(12) 0.14461(8) -0.02407(12)
O2B O 0.45130(14) -0.01226(7) 0.76353(11)
O2B_2 O 0.45130(14) -0.01226(7) -0.23647(11)
N1B N 0.30578(14) -0.10679(9) 0.00376(13)
C1B C 0.20075(18) -0.06979(12) 0.07662(17)
C2B C 0.19348(19) -0.29831(12) -0.01152(19)
C3B C 0.08827(17) -0.25935(12) 0.06668(17)
C4B C 0.08857(18) -0.14201(13) 0.10784(18)
C5B C -0.0137(2) -0.34231(15) 0.1130(2)
C6B C 0.29748(17) -0.21845(12) -0.04326(18)
N2B N -0.0868(2) -0.40992(16) 0.1547(2)
O3B O 0.38866(15) 0.17302(8) 0.68938(11)
C7B C 0.45992(17) 0.04615(11) 0.51203(15)
C8B C 0.42929(16) 0.07063(11) 0.66637(14)
H1B H 0.367(2) -0.2417(15) -0.098(2)
H2B H 0.211(2) 0.0100(14) 0.113(2)
H3B H 0.349(2) 0.1696(17) -0.105(2)
H4B H 0.198(2) -0.3779(17) -0.042(2)
H5B H 0.358(2) 0.199(2) 0.037(3)
H6B H 0.018(2) -0.1159(16) 0.161(2)
H7B H 0.426(2) 0.1026(15) 0.429(2)
loop_
_geom_bond_atom_site_label_1
_geom_bond_atom_site_label_2
_geom_bond_site_symmetry_1
_geom_bond_site_symmetry_2
Ni1 O1 1_555 1_555
O1 H3 1_555 1_555
O2 Ni1 1_555 1_555
N1 Ni1 1_555 1_555
C1 N1 1_555 1_555
C2 C3 1_555 1_555
C3 C4 1_555 1_555
C4 C1 1_555 1_555
C5 C3 1_555 1_555
C6 N1 1_555 1_555
N2 C5 1_555 1_555
O3 C8 1_555 1_555
C7 C8 1_555 1_555
C8 O2 1_555 1_555
H1 C6 1_555 1_555
H2 C1 1_555 1_555
H4 C2 1_555 1_555
H5 O1 1_555 1_555
H6 C4 1_555 1_555
H7 C7 1_555 1_555
Ni1_2 O2B 1_555 1_555
O1B Ni1 1_555 1_555
O2B C8B 1_555 1_555
O2B_2 Ni1 1_555 1_555
N1B Ni1 1_555 1_555
C1B N1B 1_555 1_555
C2B C3B 1_555 1_555
C3B C4B 1_555 1_555
C4B C1B 1_555 1_555
C5B C3B 1_555 1_555
C6B N1B 1_555 1_555
N2B C5B 1_555 1_555
O3B C8B 1_555 1_555
C7B C7 1_555 1_555
C8B C7B 1_555 1_555
H1B C6B 1_555 1_555
H2B C1B 1_555 1_555
H3B O1B 1_555 1_555
H4B C2B 1_555 1_555
H5B O1B 1_555 1_555
H6B C4B 1_555 1_555
H7B C7B 1_555 1_555
C2 C6 1_555 1_555
C2B C6B 1_555 1_555

#END
