
#######################################################################
#
#                 Cambridge Crystallographic Data Centre
#                                CCDC 
#
#######################################################################
#
# If this CIF has been generated from an entry in the Cambridge 
# Structural Database, then it will include bibliographic, chemical, 
# crystal, experimental, refinement or atomic coordinate data resulting 
# from the CCDC's data processing and validation procedures.
#
#######################################################################

data_OVIHUX
_symmetry_cell_setting           triclinic
_symmetry_space_group_name_H-M   'P -1'
_symmetry_Int_Tables_number      2
_space_group_name_Hall           '-P 1'
loop_
_symmetry_equiv_pos_site_id
_symmetry_equiv_pos_as_xyz
1 x,y,z
2 -x,-y,-z
_cell_length_a                   9.662(3)
_cell_length_b                   12.066(4)
_cell_length_c                   12.236(4)
_cell_angle_alpha                90.161(7)
_cell_angle_beta                 109.294(6)
_cell_angle_gamma                112.086(6)
_cell_volume                     1234.35
loop_
_atom_site_label
_atom_site_type_symbol
_atom_site_fract_x
_atom_site_fract_y
_atom_site_fract_z
Ag1 Ag 0.41827(6) -0.75172(4) 1.25501(4)
Ag2 Ag 0.47841(6) -1.23908(5) 1.47077(5)
Ag3 Ag -0.20136(7) -1.24474(5) 1.10614(6)
C1 C 0.1696(8) -1.1791(6) 1.2731(6)
C2 C 0.1561(7) -1.0105(6) 1.2005(5)
C3 C 0.3966(7) -1.0098(5) 1.3176(5)
C4 C 0.4285(8) -0.4955(6) 1.3115(6)
C5 C 0.5566(10) -0.3213(6) 1.2503(6)
C6 C 0.5670(8) -0.4943(6) 1.1914(5)
C7 C 0.7918(8) -0.6315(6) 1.4265(5)
C8 C 0.9572(11) -0.5415(10) 1.4460(8)
H1 H 1.0208 -0.5858 1.4406
H2 H 0.9512 -0.4941 1.3820
C9 C 0.8357(8) -1.1149(7) 1.5486(6)
C10 C 0.9968(10) -1.0302(11) 1.5493(9)
H3 H 1.0630 -1.0759 1.5592
H4 H 1.0456 -0.9692 1.6178
C11 C -0.0847(9) -1.3756(7) 0.9676(6)
C12 C -0.0052(15) -1.4587(10) 0.9570(9)
H5 H -0.0623 -1.5065 0.8799
H6 H 0.1025 -1.4093 0.9609
C13 C 0.3692(8) -0.9123(6) 0.9867(6)
C14 C 0.4664(11) -0.9824(10) 1.0396(7)
H7 H 0.3999 -1.0547 1.0616
H8 H 0.5532 -0.9342 1.1102
N1 N 0.0760(6) -1.1276(5) 1.2075(5)
N2 N 0.3285(6) -1.1271(5) 1.3292(5)
N3 N 0.3155(6) -0.9478(4) 1.2542(4)
N4 N 0.5526(6) -0.9538(5) 1.3700(5)
H9 H 0.6004 -0.8794 1.3632
H10 H 0.6067 -0.9916 1.4109
N5 N 0.0717(7) -0.9539(5) 1.1379(5)
H11 H -0.0301 -0.9915 1.1035
H12 H 0.1182 -0.8793 1.1312
N6 N 0.0969(8) -1.2962(6) 1.2812(6)
H13 H -0.0045 -1.3341 1.2454
H14 H 0.1518 -1.3334 1.3224
N7 N 0.4653(9) -0.3761(5) 1.3137(5)
N8 N 0.6160(7) -0.3745(5) 1.1929(5)
N9 N 0.4745(6) -0.5587(4) 1.2508(4)
N10 N 0.3382(7) -0.5519(5) 1.3715(5)
H15 H 0.3093 -0.6286 1.3715
H16 H 0.3082 -0.5120 1.4106
N11 N 0.5892(13) -0.2048(6) 1.2474(7)
H17 H 0.6475 -0.1651 1.2091
H18 H 0.5520 -0.1687 1.2838
N12 N 0.6156(8) -0.5522(5) 1.1308(6)
H19 H 0.6765 -0.5131 1.0941
H20 H 0.5863 -0.6292 1.1280
O1 O 0.7293(5) -0.7149(4) 1.3421(4)
O2 O 0.7284(5) -0.6188(4) 1.4969(4)
O3 O 0.8291(6) -1.2076(5) 1.5965(5)
O4 O 0.7192(5) -1.0883(5) 1.5034(4)
O5 O -0.1739(7) -1.4051(5) 1.0263(5)
O6 O -0.0588(7) -1.2847(5) 0.9188(5)
O7 O 0.2563(6) -0.9603(5) 0.8904(4)
O8 O 0.3985(7) -0.8112(5) 1.0365(4)
Ag1A Ag 1.58173(6) -0.24828(4) 1.74499(4)
Ag1A_2 Ag 0.58173(6) -1.24828(4) 1.74499(4)
Ag1A_3 Ag 0.58173(6) -1.24828(4) 0.74499(4)
Ag1A_4 Ag 0.58173(6) -0.24828(4) 1.74499(4)
Ag1_2 Ag 0.41827(6) -1.75172(4) 1.25501(4)
Ag2_2 Ag 0.47841(6) -0.23908(5) 1.47077(5)
Ag2A Ag 0.52159(6) -0.76092(5) 1.52923(5)
Ag2_3 Ag 1.47841(6) -0.23908(5) 1.47077(5)
Ag2A_2 Ag 1.52159(6) -0.76092(5) 1.52923(5)
Ag2A_3 Ag 1.52159(6) 0.23908(5) 1.52923(5)
Ag3_2 Ag 0.79864(7) -0.24474(5) 1.10614(6)
Ag3A Ag 0.20136(7) -0.75526(5) 0.89386(6)
Ag3A_2 Ag 0.20136(7) -1.75526(5) 0.89386(6)
Ag3_3 Ag 0.79864(7) -1.24474(5) 1.10614(6)
Ag3A_3 Ag 2.20136(7) 0.24474(5) 1.89386(6)
C1A C 1.8304(8) 0.1791(6) 1.7269(6)
C2A C 1.8439(7) 0.0105(6) 1.7995(5)
C3A C 1.6034(7) 0.0098(5) 1.6824(5)
C4_2 C 0.4285(8) -1.4955(6) 1.3115(6)
C5_2 C 0.5566(10) -1.3213(6) 1.2503(6)
C6_2 C 0.5670(8) -1.4943(6) 1.1914(5)
C7A C 1.2082(8) -0.3685(6) 1.5735(5)
C8A C 1.0428(11) -0.4585(10) 1.5540(8)
H1A H 0.9792 -0.4142 1.5594
H2A H 1.0488 -0.5059 1.6180
C9A C 1.1643(8) -0.8851(7) 1.4514(6)
C10A C 1.0032(10) -0.9698(11) 1.4507(9)
H3A H 0.9370 -0.9241 1.4408
H4A H 0.9544 -1.0308 1.3822
C11A C 0.0847(9) -1.6244(7) 1.0324(6)
C12A C 0.0052(15) -1.5413(10) 1.0430(9)
H5A H 0.0623 -1.4935 1.1201
H6A H -0.1025 -1.5907 1.0391
C13A C 0.6308(8) -1.0877(6) 1.0133(6)
C14A C 0.5336(11) -1.0176(10) 0.9604(7)
H7A H 0.6001 -0.9453 0.9384
H8A H 0.4468 -1.0658 0.8898
N1A N 1.9240(6) 0.1276(5) 1.7925(5)
N1_2 N 1.0760(6) -0.1276(5) 1.2075(5)
N2A N 1.6715(6) 0.1271(5) 1.6708(5)
N2_2 N 0.3285(6) -0.1271(5) 1.3292(5)
N3A N 1.6845(6) -0.0522(4) 1.7458(4)
N4A N 1.4474(6) -0.0462(5) 1.6300(5)
H9A H 1.3996 -0.1206 1.6368
H10A H 1.3933 -0.0084 1.5891
N5A N 1.9283(7) -0.0461(5) 1.8621(5)
H11A H 2.0301 -0.0085 1.8965
H12A H 1.8818 -0.1207 1.8688
N6A N 1.9031(8) 0.2962(6) 1.7188(6)
H13A H 2.0045 0.3341 1.7546
H14A H 1.8482 0.3334 1.6776
N7_2 N 0.4653(9) -1.3761(5) 1.3137(5)
N8_2 N 0.6160(7) -1.3745(5) 1.1929(5)
N8_3 N -0.3840(7) -1.3745(5) 1.1929(5)
N9_2 N 0.4745(6) -1.5587(4) 1.2508(4)
N9A N 1.5255(6) -0.4413(4) 1.7492(4)
N10_2 N 0.3382(7) -1.5519(5) 1.3715(5)
H15_2 H 0.3093 -1.6286 1.3715
H16_2 H 0.3082 -1.5120 1.4106
N11_2 N 0.5892(13) -1.2048(6) 1.2474(7)
H17_2 H 0.6475 -1.1651 1.2091
H18_2 H 0.5520 -1.1687 1.2838
N12_2 N 0.6156(8) -1.5522(5) 1.1308(6)
H19_2 H 0.6765 -1.5131 1.0941
H20_2 H 0.5863 -1.6292 1.1280
O1A O 1.2707(5) -0.2851(4) 1.6579(4)
O2A O 1.2716(5) -0.3812(4) 1.5031(4)
O2A_2 O 0.2716(5) -1.3812(4) 1.5031(4)
O2A_3 O 0.2716(5) -0.3812(4) 1.5031(4)
O3A O 1.1709(6) -0.7924(5) 1.4035(5)
O4A O 1.2808(5) -0.9117(5) 1.4966(4)
O4_2 O 0.7192(5) -0.0883(5) 1.5034(4)
O5A O 0.1739(7) -1.5949(5) 0.9737(5)
O5_2 O 0.8261(7) -0.4051(5) 1.0263(5)
O6A O 0.0588(7) -1.7153(5) 1.0812(5)
O7A O 0.7437(6) -1.0397(5) 1.1096(4)
O7A_2 O -0.2563(6) -1.0397(5) 1.1096(4)
O7A_3 O 0.7437(6) -0.0397(5) 1.1096(4)
O8A O 0.6015(7) -1.1888(5) 0.9635(4)
O8A_2 O -0.3985(7) -1.1888(5) 0.9635(4)
O8A_3 O 1.6015(7) -0.1888(5) 1.9635(4)
O8A_4 O 0.6015(7) -0.1888(5) 0.9635(4)
N13 N 0.9021(7) -0.7946(5) 1.2299(5)
H21 H 0.8499 -0.8703 1.1906
H22 H 0.8427 -0.7772 1.2588
H23 H 0.9270 -0.7446 1.1838
H24 H 0.9911 -0.7909 1.2876
loop_
_geom_bond_atom_site_label_1
_geom_bond_atom_site_label_2
_geom_bond_site_symmetry_1
_geom_bond_site_symmetry_2
Ag1 N3 1_555 1_555
Ag2 N2 1_555 1_555
Ag3 N1 1_555 1_555
C1 N1 1_555 1_555
C2 N1 1_555 1_555
C3 N2 1_555 1_555
C4 N7 1_555 1_555
C5 N7 1_555 1_555
C6 N8 1_555 1_555
C7 C8 1_555 1_555
C8 H1 1_555 1_555
H2 C8 1_555 1_555
C9 C10 1_555 1_555
C10 H3 1_555 1_555
H4 C10 1_555 1_555
C11 C12 1_555 1_555
C12 H5 1_555 1_555
H6 C12 1_555 1_555
C13 C14 1_555 1_555
C14 H7 1_555 1_555
H8 C14 1_555 1_555
N2 C1 1_555 1_555
N3 C2 1_555 1_555
N4 C3 1_555 1_555
H9 N4 1_555 1_555
H10 N4 1_555 1_555
N5 C2 1_555 1_555
H11 N5 1_555 1_555
H12 N5 1_555 1_555
N6 C1 1_555 1_555
H13 N6 1_555 1_555
H14 N6 1_555 1_555
N7 Ag2_2 1_555 1_555
N8 C5 1_555 1_555
N9 Ag1 1_555 1_555
N10 C4 1_555 1_555
H15 N10 1_555 1_555
H16 N10 1_555 1_555
N11 C5 1_555 1_555
H17 N11 1_555 1_555
H18 N11 1_555 1_555
N12 C6 1_555 1_555
H19 N12 1_555 1_555
H20 N12 1_555 1_555
N13 H21 1_555 1_555
H22 N13 1_555 1_555
H23 N13 1_555 1_555
H24 N13 1_555 1_555
O1 Ag1 1_555 1_555
O2 C7 1_555 1_555
O3 C9 1_555 1_555
O4 Ag2 1_555 1_555
O5 Ag3 1_555 1_555
O6 C11 1_555 1_555
O7 C13 1_555 1_555
O8 Ag1 1_555 1_555
Ag1A Ag2_3 1_555 1_555
Ag1A_2 Ag2 1_555 1_555
Ag1A_3 O8A 1_555 1_555
Ag1A_4 Ag2_2 1_555 1_555
Ag1_2 N9_2 1_555 1_555
Ag2_2 N2_2 1_555 1_555
Ag2A Ag1 1_555 1_555
Ag2_3 O2A 1_555 1_555
Ag2A_2 O4A 1_555 1_555
Ag2A_3 N2A 1_555 1_555
Ag3_2 N8 1_555 1_555
Ag3A O7 1_555 1_555
Ag3A_2 O5A 1_555 1_555
Ag3_3 N8_2 1_555 1_555
Ag3A_3 N1A 1_555 1_555
C1A N1A 1_555 1_555
C2A N1A 1_555 1_555
C3A N2A 1_555 1_555
C4_2 N7_2 1_555 1_555
C5_2 N7_2 1_555 1_555
C6_2 N8_2 1_555 1_555
C7A C8A 1_555 1_555
C8A C8 1_555 1_555
H1A C8A 1_555 1_555
H2A C8A 1_555 1_555
C9A C10A 1_555 1_555
C10A C10 1_555 1_555
H3A C10A 1_555 1_555
H4A C10A 1_555 1_555
C11A C12A 1_555 1_555
C12A C12 1_555 1_555
H5A C12A 1_555 1_555
H6A C12A 1_555 1_555
C13A C14A 1_555 1_555
C14A C14 1_555 1_555
H7A C14A 1_555 1_555
H8A C14A 1_555 1_555
N1_2 Ag3_2 1_555 1_555
N2A C1A 1_555 1_555
N3A Ag1A 1_555 1_555
N4A C3A 1_555 1_555
H9A N4A 1_555 1_555
H10A N4A 1_555 1_555
N5A C2A 1_555 1_555
H11A N5A 1_555 1_555
H12A N5A 1_555 1_555
N6A C1A 1_555 1_555
H13A N6A 1_555 1_555
H14A N6A 1_555 1_555
N7_2 Ag2 1_555 1_555
N8_2 C5_2 1_555 1_555
N8_3 Ag3 1_555 1_555
N9_2 C4_2 1_555 1_555
N9A Ag1A 1_555 1_555
N10_2 C4_2 1_555 1_555
H15_2 N10_2 1_555 1_555
H16_2 N10_2 1_555 1_555
N11_2 C5_2 1_555 1_555
H17_2 N11_2 1_555 1_555
H18_2 N11_2 1_555 1_555
N12_2 C6_2 1_555 1_555
H19_2 N12_2 1_555 1_555
H20_2 N12_2 1_555 1_555
O1A Ag1A 1_555 1_555
O2A C7A 1_555 1_555
O2A_2 Ag2 1_555 1_555
O2A_3 Ag2_2 1_555 1_555
O3A C9A 1_555 1_555
O4A C9A 1_555 1_555
O4_2 Ag2_2 1_555 1_555
O5A C11A 1_555 1_555
O5_2 Ag3_2 1_555 1_555
O6A C11A 1_555 1_555
O7A Ag3_3 1_555 1_555
O7A_2 Ag3 1_555 1_555
O7A_3 Ag3_2 1_555 1_555
O8A Ag3_3 1_555 1_555
O8A_2 Ag3 1_555 1_555
O8A_3 Ag1A 1_555 1_555
O8A_4 Ag3_2 1_555 1_555
C3 N3 1_555 1_555
C4 N9 1_555 1_555
C6 N9 1_555 1_555
C7 O1 1_555 1_555
C9 O4 1_555 1_555
C11 O5 1_555 1_555
C13 O8 1_555 1_555
O2 Ag2A 1_555 1_555
O8 Ag3A 1_555 1_555
C2A N3A 1_555 1_555
C3A N3A 1_555 1_555
C6_2 N9_2 1_555 1_555
C7A O1A 1_555 1_555
C13A O7A 1_555 1_555
C13A O8A 1_555 1_555

#END
