
#######################################################################
#
#                 Cambridge Crystallographic Data Centre
#                                CCDC 
#
#######################################################################
#
# If this CIF has been generated from an entry in the Cambridge 
# Structural Database, then it will include bibliographic, chemical, 
# crystal, experimental, refinement or atomic coordinate data resulting 
# from the CCDC's data processing and validation procedures.
#
#######################################################################

data_OVIHOR
_symmetry_cell_setting           monoclinic
_symmetry_space_group_name_H-M   'P 21/n'
_symmetry_Int_Tables_number      14
_space_group_name_Hall           '-P 2yn'
loop_
_symmetry_equiv_pos_site_id
_symmetry_equiv_pos_as_xyz
1 x,y,z
2 1/2-x,1/2+y,1/2-z
3 -x,-y,-z
4 1/2+x,1/2-y,1/2+z
_cell_length_a                   12.2971(2)
_cell_length_b                   13.8839(2)
_cell_length_c                   21.6181(3)
_cell_angle_alpha                90
_cell_angle_beta                 95.9850(10)
_cell_angle_gamma                90
_cell_volume                     3670.78
loop_
_atom_site_label
_atom_site_type_symbol
_atom_site_fract_x
_atom_site_fract_y
_atom_site_fract_z
Zn1 Zn 0.36179(2) 0.08974(2) 0.214404(14)
Zn2 Zn 0.24199(2) -0.08502(2) 0.287929(13)
O1 O 0.35669(16) 0.12495(13) 0.30077(9)
O2 O 0.25245(16) 0.02131(13) 0.34598(9)
O3 O 0.63880(15) 0.55108(13) 0.71687(9)
O4 O 0.71154(15) 0.41942(13) 0.67932(9)
O5 O 0.45194(14) 0.18853(12) 0.18338(9)
O6 O 0.32031(15) 0.29780(11) 0.18141(8)
O7 O 0.44104(15) 0.97373(12) 0.19923(8)
O8 O 0.37953(15) 0.86795(12) 0.26564(9)
F1 F 0.14178(15) 0.43421(12) 0.61667(8)
F2 F 0.18977(15) 0.28896(12) 0.60434(8)
F3 F 0.05166(13) 0.34704(13) 0.54734(8)
F4 F 0.13936(14) 0.55204(11) 0.52521(8)
F5 F 0.10102(14) 0.46001(12) 0.44691(8)
F6 F 0.25581(15) 0.53108(11) 0.46011(8)
F7 F 0.89562(13) 0.51734(12) 0.17043(9)
F8 F 0.88133(14) 0.66903(12) 0.18577(9)
F9 F 0.81220(14) 0.56848(12) 0.24591(9)
F10 F 0.65868(16) 0.61966(12) 0.03766(8)
F11 F 0.82102(14) 0.66453(13) 0.06835(9)
F12 F 0.78447(17) 0.51447(13) 0.05626(9)
C1 C 0.2985(2) 0.1019(2) 0.34194(13)
C2 C 0.2815(2) 0.17543(19) 0.39030(12)
C3 C 0.2130(2) 0.1590(2) 0.43494(14)
H1 H 0.1785 0.0995 0.4363
C4 C 0.1934(2) 0.2286(2) 0.47836(14)
H2 H 0.1447 0.2157 0.5074
C5 C 0.2451(2) 0.31653(19) 0.47901(12)
C6 C 0.3167(2) 0.3314(2) 0.43466(13)
H3 H 0.3548 0.3893 0.4347
C7 C 0.3333(2) 0.2628(2) 0.39041(13)
H4 H 0.3801 0.2760 0.3604
C8 C 0.2306(2) 0.39731(18) 0.52643(11)
C9 C 0.1519(3) 0.3675(2) 0.57345(14)
C10 C 0.1812(3) 0.4861(2) 0.48955(14)
C11 C 0.3398(2) 0.42337(18) 0.56451(11)
C12 C 0.4231(2) 0.35684(19) 0.57142(13)
H5 H 0.4144 0.2981 0.5508
C13 C 0.5194(2) 0.37533(19) 0.60833(13)
H6 H 0.5751 0.3298 0.6113
C14 C 0.4502(2) 0.52678(19) 0.63441(13)
H7 H 0.4578 0.5847 0.6561
C15 C 0.3553(2) 0.50870(19) 0.59646(13)
H8 H 0.3006 0.5552 0.5924
C16 C 0.5337(2) 0.46060(18) 0.64073(12)
C17 C 0.6356(2) 0.4784(2) 0.68218(13)
C18 C 0.4190(2) 0.2743(2) 0.17725(12)
C19 C 0.5008(2) 0.34868(17) 0.16481(12)
C20 C 0.6071(2) 0.34423(19) 0.19257(13)
H9 H 0.6296 0.2911 0.2168
C21 C 0.6806(2) 0.41733(19) 0.18497(13)
H10 H 0.7516 0.4130 0.2043
C22 C 0.6496(2) 0.49688(18) 0.14901(13)
C23 C 0.5448(2) 0.49867(19) 0.11906(14)
H11 H 0.5235 0.5503 0.0932
C24 C 0.4713(2) 0.42617(18) 0.12648(13)
H12 H 0.4014 0.4292 0.1056
C25 C 0.7195(2) 0.58836(18) 0.14466(13)
C26 C 0.7470(3) 0.5981(2) 0.07669(16)
C27 C 0.8277(2) 0.5852(2) 0.18747(18)
C28 C 0.6530(2) 0.67438(19) 0.16594(13)
C29 C 0.6460(2) 0.76338(19) 0.13773(14)
H13 H 0.6869 0.7756 0.1047
C30 C 0.5797(2) 0.83475(19) 0.15735(14)
H14 H 0.5758 0.8940 0.1372
C31 C 0.5193(2) 0.81914(18) 0.20635(12)
C32 C 0.5289(3) 0.7319(2) 0.23639(14)
H15 H 0.4902 0.7207 0.2704
C33 C 0.5952(3) 0.6610(2) 0.21652(14)
H16 H 0.6012 0.6027 0.2378
C34 C 0.4403(2) 0.8930(2) 0.22489(13)
Zn1_2 Zn 0.36179(2) 1.08974(2) 0.214404(14)
Zn1C Zn 0.86179(2) 0.41026(2) 0.714404(14)
Zn2_2 Zn 0.24199(2) 0.91498(2) 0.287929(13)
Zn2A Zn 0.25801(2) 0.41498(2) 0.212071(13)
Zn2C Zn 0.74199(2) 0.58502(2) 0.787929(13)
O3C O 0.13880(15) -0.05108(13) 0.21687(9)
O4C O 0.21154(15) 0.08058(13) 0.17932(9)
O6A O 0.17969(15) -0.20220(11) 0.31859(8)
O7_2 O 0.44104(15) -0.02627(12) 0.19923(8)
O8_2 O 0.37953(15) -0.13205(12) 0.26564(9)
loop_
_geom_bond_atom_site_label_1
_geom_bond_atom_site_label_2
_geom_bond_site_symmetry_1
_geom_bond_site_symmetry_2
Zn1 O1 1_555 1_555
Zn2 O2 1_555 1_555
O1 C1 1_555 1_555
O2 C1 1_555 1_555
O3 C17 1_555 1_555
O4 C17 1_555 1_555
O5 Zn1 1_555 1_555
O6 C18 1_555 1_555
O7 C34 1_555 1_555
O8 C34 1_555 1_555
F1 C9 1_555 1_555
F2 C9 1_555 1_555
F3 C9 1_555 1_555
F4 C10 1_555 1_555
F5 C10 1_555 1_555
F6 C10 1_555 1_555
F7 C27 1_555 1_555
F8 C27 1_555 1_555
F9 C27 1_555 1_555
F10 C26 1_555 1_555
F11 C26 1_555 1_555
F12 C26 1_555 1_555
C1 C2 1_555 1_555
C2 C3 1_555 1_555
C3 H1 1_555 1_555
C4 C3 1_555 1_555
H2 C4 1_555 1_555
C5 C4 1_555 1_555
C6 C5 1_555 1_555
H3 C6 1_555 1_555
C7 C2 1_555 1_555
H4 C7 1_555 1_555
C8 C5 1_555 1_555
C9 C8 1_555 1_555
C10 C8 1_555 1_555
C11 C8 1_555 1_555
C12 C11 1_555 1_555
H5 C12 1_555 1_555
C13 C12 1_555 1_555
H6 C13 1_555 1_555
C14 H7 1_555 1_555
C15 C11 1_555 1_555
H8 C15 1_555 1_555
C16 C13 1_555 1_555
C17 C16 1_555 1_555
C18 O5 1_555 1_555
C19 C18 1_555 1_555
C20 C19 1_555 1_555
H9 C20 1_555 1_555
C21 C20 1_555 1_555
H10 C21 1_555 1_555
C22 C21 1_555 1_555
C23 C22 1_555 1_555
H11 C23 1_555 1_555
C24 C19 1_555 1_555
H12 C24 1_555 1_555
C25 C22 1_555 1_555
C26 C25 1_555 1_555
C27 C25 1_555 1_555
C28 C25 1_555 1_555
C29 C28 1_555 1_555
H13 C29 1_555 1_555
C30 C29 1_555 1_555
H14 C30 1_555 1_555
C31 C30 1_555 1_555
C32 C31 1_555 1_555
H15 C32 1_555 1_555
C33 C28 1_555 1_555
H16 C33 1_555 1_555
C34 C31 1_555 1_555
Zn1_2 O7 1_555 1_555
Zn1C O4 1_555 1_555
Zn2_2 O8 1_555 1_555
Zn2A O6 1_555 1_555
Zn2C O3 1_555 1_555
O3C Zn2 1_555 1_555
O4C Zn1 1_555 1_555
O6A Zn2 1_555 1_555
O7_2 Zn1 1_555 1_555
O8_2 Zn2 1_555 1_555
C6 C7 1_555 1_555
C14 C15 1_555 1_555
C14 C16 1_555 1_555
C23 C24 1_555 1_555
C32 C33 1_555 1_555

#END
