
#######################################################################
#
#                 Cambridge Crystallographic Data Centre
#                                CCDC 
#
#######################################################################
#
# If this CIF has been generated from an entry in the Cambridge 
# Structural Database, then it will include bibliographic, chemical, 
# crystal, experimental, refinement or atomic coordinate data resulting 
# from the CCDC's data processing and validation procedures.
#
#######################################################################

data_OVIJAF
_symmetry_cell_setting           triclinic
_symmetry_space_group_name_H-M   'P -1'
_symmetry_Int_Tables_number      2
_space_group_name_Hall           '-P 1'
loop_
_symmetry_equiv_pos_site_id
_symmetry_equiv_pos_as_xyz
1 x,y,z
2 -x,-y,-z
_cell_length_a                   11.081(4)
_cell_length_b                   11.322(4)
_cell_length_c                   11.850(4)
_cell_angle_alpha                94.056(7)
_cell_angle_beta                 113.928(6)
_cell_angle_gamma                118.984(6)
_cell_volume                     1120.35
loop_
_atom_site_label
_atom_site_type_symbol
_atom_site_fract_x
_atom_site_fract_y
_atom_site_fract_z
Ag1 Ag 0.06017(5) 0.38412(5) 0.19575(4)
Ag2 Ag -0.25545(5) 0.50430(4) 0.49164(4)
C1 C -0.1450(6) 0.4136(5) 0.2936(5)
C2 C -0.2910(7) 0.2099(6) 0.1191(5)
C3 C -0.3868(6) 0.2277(6) 0.2480(5)
C4 C 0.3049(7) 0.4943(6) 0.1059(6)
C5 C 0.3833(7) 0.4292(6) 0.2850(5)
C6 C 0.5619(7) 0.5759(6) 0.2308(6)
C7 C 0.0244(7) 0.8338(6) 0.6200(5)
C8 C 0.1650(7) 0.9640(6) 0.6253(6)
H1 H 0.2597 0.9971 0.7085
H2 H 0.1467 1.0396 0.6233
C9 C 0.1985(8) 0.9421(7) 0.5172(6)
H3 H 0.2269 0.8732 0.5238
H4 H 0.1017 0.9017 0.4336
C10 C 0.3316(7) 1.0787(7) 0.5201(6)
H5 H 0.3072 1.1501 0.5218
H6 H 0.3319 1.0590 0.4392
C11 C 0.4966(7) 1.1418(6) 0.6327(6)
H7 H 0.5069 1.0789 0.5843
H8 H 0.5156 1.1025 0.7022
C12 C 0.6307(7) 1.2680(6) 0.6276(5)
N1 N -0.1524(5) 0.3396(4) 0.1927(4)
N2 N -0.4093(5) 0.1498(5) 0.1430(4)
N3 N -0.2591(5) 0.3613(4) 0.3243(4)
N4 N -0.0180(6) 0.5456(5) 0.3612(4)
H12 H -0.0096 0.5970 0.4245
H13 H 0.0566 0.5805 0.3420
N5 N -0.5011(6) 0.1702(5) 0.2788(5)
H14 H -0.5859 0.0856 0.2313
H15 H -0.4903 0.2177 0.3461
N6 N -0.3060(6) 0.1358(5) 0.0160(5)
H16 H -0.3911 0.0516 -0.0324
H17 H -0.2305 0.1723 -0.0022
N7 N 0.2642(5) 0.4248(5) 0.1850(4)
N8 N 0.4508(6) 0.5712(6) 0.1244(5)
N9 N 0.5341(5) 0.5037(5) 0.3129(4)
N10 N 0.3448(6) 0.3525(5) 0.3594(5)
H18 H 0.4171 0.3519 0.4242
H19 H 0.2476 0.3036 0.3427
N11 N 0.7130(6) 0.6581(6) 0.2585(5)
H20 H 0.7358 0.7057 0.2085
H21 H 0.7878 0.6636 0.3264
N12 N 0.1862(7) 0.4836(6) 0.0012(5)
H22 H 0.2057 0.5264 -0.0525
H23 H 0.0904 0.4340 -0.0124
O2 O -0.0348(5) 0.7159(4) 0.5401(4)
O3 O -0.0240(5) 0.8487(4) 0.6941(4)
O4 O 0.5915(5) 1.3262(4) 0.5453(4)
O5 O 0.7710(5) 1.3091(4) 0.7045(4)
Ag1A Ag -0.06017(5) 0.61588(5) 0.80425(4)
Ag2A Ag 0.25545(5) 0.49570(4) 0.50836(4)
Ag2_2 Ag 0.74455(5) 0.50430(4) 0.49164(4)
Ag2_3 Ag 0.74455(5) 1.50430(4) 0.49164(4)
N9_2 N -0.4659(5) 0.5037(5) 0.3129(4)
O4_2 O -0.4085(5) 0.3262(4) 0.5453(4)
C13 C -0.1956(15) -0.1337(11) 0.0333(9)
H9 H -0.2777 -0.2342 -0.0106
H10 H -0.1464 -0.0976 -0.0180
H11 H -0.2417 -0.0837 0.0441
O6 O -0.0781(7) -0.1124(6) 0.1588(5)
H26 H -0.0297 -0.0282 0.2099
O1 O -0.1535(7) 0.1591(6) -0.1425(5)
H24 H -0.2139 0.1494 -0.2202
H25 H -0.1348 0.0948 -0.1454
loop_
_geom_bond_atom_site_label_1
_geom_bond_atom_site_label_2
_geom_bond_site_symmetry_1
_geom_bond_site_symmetry_2
Ag1 N1 1_555 1_555
Ag2 N3 1_555 1_555
C1 N1 1_555 1_555
C2 N1 1_555 1_555
C3 N2 1_555 1_555
C4 N7 1_555 1_555
C5 N7 1_555 1_555
C6 N8 1_555 1_555
C7 C8 1_555 1_555
C8 H1 1_555 1_555
H2 C8 1_555 1_555
C9 C8 1_555 1_555
H3 C9 1_555 1_555
H4 C9 1_555 1_555
C10 C9 1_555 1_555
H5 C10 1_555 1_555
H6 C10 1_555 1_555
C11 C10 1_555 1_555
H7 C11 1_555 1_555
H8 C11 1_555 1_555
C12 C11 1_555 1_555
C13 H9 1_555 1_555
H10 C13 1_555 1_555
H11 C13 1_555 1_555
N2 C2 1_555 1_555
N3 C1 1_555 1_555
N4 C1 1_555 1_555
H12 N4 1_555 1_555
H13 N4 1_555 1_555
N5 C3 1_555 1_555
H14 N5 1_555 1_555
H15 N5 1_555 1_555
N6 C2 1_555 1_555
H16 N6 1_555 1_555
H17 N6 1_555 1_555
N7 Ag1 1_555 1_555
N8 C4 1_555 1_555
N9 C5 1_555 1_555
N10 C5 1_555 1_555
H18 N10 1_555 1_555
H19 N10 1_555 1_555
N11 C6 1_555 1_555
H20 N11 1_555 1_555
H21 N11 1_555 1_555
N12 C4 1_555 1_555
H22 N12 1_555 1_555
H23 N12 1_555 1_555
O1 H24 1_555 1_555
H25 O1 1_555 1_555
O2 Ag2 1_555 1_555
O3 C7 1_555 1_555
O4 C12 1_555 1_555
O5 C12 1_555 1_555
O6 C13 1_555 1_555
H26 O6 1_555 1_555
Ag1A Ag2 1_555 1_555
Ag2A Ag1 1_555 1_555
Ag2_2 N9 1_555 1_555
Ag2_3 O4 1_555 1_555
N9_2 Ag2 1_555 1_555
O4_2 Ag2 1_555 1_555
C3 N3 1_555 1_555
C6 N9 1_555 1_555
C7 O2 1_555 1_555

#END
