
#######################################################################
#
#                 Cambridge Crystallographic Data Centre
#                                CCDC 
#
#######################################################################
#
# If this CIF has been generated from an entry in the Cambridge 
# Structural Database, then it will include bibliographic, chemical, 
# crystal, experimental, refinement or atomic coordinate data resulting 
# from the CCDC's data processing and validation procedures.
#
#######################################################################

data_OVIVIZ
_symmetry_cell_setting           orthorhombic
_symmetry_space_group_name_H-M   'P 21 21 21'
_symmetry_Int_Tables_number      19
_space_group_name_Hall           'P 2ac 2ab'
loop_
_symmetry_equiv_pos_site_id
_symmetry_equiv_pos_as_xyz
1 x,y,z
2 1/2-x,-y,1/2+z
3 1/2+x,1/2-y,-z
4 -x,1/2+y,1/2-z
_cell_length_a                   7.579(3)
_cell_length_b                   6.400(2)
_cell_length_c                   31.984(6)
_cell_angle_alpha                90
_cell_angle_beta                 90
_cell_angle_gamma                90
_cell_volume                     1551.4
loop_
_atom_site_label
_atom_site_type_symbol
_atom_site_fract_x
_atom_site_fract_y
_atom_site_fract_z
N1 N 0.4408(8) 0.8283(9) -0.08264(15)
Cd1 Cd 0.16407(7) 0.42916(8) 0.100704(13)
Cd2 Cd 0.66738(7) 0.44185(8) 0.147703(13)
Cl1 Cl 0.4396(2) 0.2012(3) 0.11666(5)
Cl2 Cl -0.0626(2) 0.2034(3) 0.13806(5)
C1 C 0.2287(10) 0.4219(13) 0.0175(2)
N2 N 0.2634(7) 0.6567(8) 0.14992(17)
N3 N 0.2661(8) 0.8506(8) -0.09306(16)
O1 O 0.1489(8) 0.2775(7) 0.03649(12)
N4 N 0.2784(8) 0.9032(9) 0.19654(16)
C2 C 0.1740(11) 0.7904(11) 0.17174(19)
H1 H 0.0522 0.8058 0.1703
C3 C 0.4434(10) 0.8381(12) 0.1881(2)
H2 H 0.5455 0.8933 0.1999
O2 O 0.2903(7) 0.5792(8) 0.03441(13)
O3 O 0.1973(7) 1.1350(8) 0.29732(13)
C4 C 0.1810(11) 0.6997(11) -0.07477(19)
H3 H 0.0602 0.6781 -0.0773
N5 N 0.2865(7) 0.5806(9) -0.05213(15)
C5 C 0.2408(10) 0.3938(9) -0.02962(17)
H4 H 0.3283 0.2874 -0.0356
H5 H 0.1281 0.3434 -0.0398
O4 O 0.3509(7) 0.8551(7) 0.27917(13)
C6 C 0.2578(9) 1.0128(11) 0.2714(2)
C7 C 0.2258(9) 1.0665(11) 0.22580(18)
H6 H 0.1012 1.0953 0.2220
H7 H 0.2901 1.1933 0.2191
N6 N 0.4384(8) 0.6864(10) 0.16117(16)
C8 C 0.4466(11) 0.6674(12) -0.0581(2)
H8 H 0.5497 0.6174 -0.0459
N1B N -0.0592(8) 0.6717(9) 0.08264(15)
Cd1B Cd 0.66407(7) 1.07084(8) -0.100704(13)
Cd2_2 Cd -0.33262(7) 0.44185(8) 0.147703(13)
Cd2B Cd 0.16738(7) 1.05815(8) -0.147703(13)
Cd2C Cd 0.33262(7) 0.94185(8) 0.352297(13)
Cl2_2 Cl 0.9374(2) 0.2034(3) 0.13806(5)
N3B N 0.7661(8) 0.6494(8) 0.09306(16)
O3C O 0.8027(7) 0.6350(8) 0.20268(13)
O4C O 0.6491(7) 0.3551(7) 0.22083(13)
loop_
_geom_bond_atom_site_label_1
_geom_bond_atom_site_label_2
_geom_bond_site_symmetry_1
_geom_bond_site_symmetry_2
N1 N3 1_555 1_555
Cd1 Cl1 1_555 1_555
Cd2 Cl1 1_555 1_555
Cl2 Cd1 1_555 1_555
C1 O1 1_555 1_555
N2 Cd1 1_555 1_555
N3 C4 1_555 1_555
O1 Cd1 1_555 1_555
N4 C2 1_555 1_555
C2 N2 1_555 1_555
H1 C2 1_555 1_555
C3 N4 1_555 1_555
H2 C3 1_555 1_555
O2 Cd1 1_555 1_555
O3 C6 1_555 1_555
C4 H3 1_555 1_555
N5 C4 1_555 1_555
C5 C1 1_555 1_555
H4 C5 1_555 1_555
H5 C5 1_555 1_555
O4 C6 1_555 1_555
C6 C7 1_555 1_555
C7 N4 1_555 1_555
H6 C7 1_555 1_555
H7 C7 1_555 1_555
N6 Cd2 1_555 1_555
C8 N1 1_555 1_555
H8 C8 1_555 1_555
N1B Cd1 1_555 1_555
Cd1B N1 1_555 1_555
Cd2_2 Cl2 1_555 1_555
Cd2B N3 1_555 1_555
Cd2C O3 1_555 1_555
Cl2_2 Cd2 1_555 1_555
N3B Cd2 1_555 1_555
O3C Cd2 1_555 1_555
O4C Cd2 1_555 1_555
C1 O2 1_555 1_555
N2 N6 1_555 1_555
C3 N6 1_555 1_555
N5 C5 1_555 1_555
N5 C8 1_555 1_555
O4 Cd2C 1_555 1_555

#END
