
#######################################################################
#
#                 Cambridge Crystallographic Data Centre
#                                CCDC 
#
#######################################################################
#
# If this CIF has been generated from an entry in the Cambridge 
# Structural Database, then it will include bibliographic, chemical, 
# crystal, experimental, refinement or atomic coordinate data resulting 
# from the CCDC's data processing and validation procedures.
#
#######################################################################

data_OVIYOI
_symmetry_cell_setting           orthorhombic
_symmetry_space_group_name_H-M   'P 21 21 21'
_symmetry_Int_Tables_number      19
_space_group_name_Hall           'P 2ac 2ab'
loop_
_symmetry_equiv_pos_site_id
_symmetry_equiv_pos_as_xyz
1 x,y,z
2 1/2-x,-y,1/2+z
3 -x,1/2+y,1/2-z
4 1/2+x,1/2-y,-z
_cell_length_a                   8.4574(11)
_cell_length_b                   12.7306(17)
_cell_length_c                   15.689(2)
_cell_angle_alpha                90
_cell_angle_beta                 90
_cell_angle_gamma                90
_cell_volume                     1689.2
loop_
_atom_site_label
_atom_site_type_symbol
_atom_site_fract_x
_atom_site_fract_y
_atom_site_fract_z
Zn1 Zn 0.19886(3) 0.411159(19) 0.802184(15)
N1 N -0.0288(2) 0.35750(14) 0.83951(12)
N2 N 0.2706(3) 0.3961(2) 0.93737(14)
N3 N 0.4468(3) 0.4564(2) 1.04918(15)
N4 N 0.3843(3) 0.5487(2) 1.18064(14)
N5 N 0.3962(3) 0.50352(16) 0.78746(15)
N6 N 0.6498(3) 0.5920(2) 0.7804(3)
N7 N 0.7144(3) 0.76683(17) 0.73091(15)
O1 O 0.0632(2) 0.55605(14) 0.85618(13)
C1 C -0.0906(3) 0.26500(18) 0.81659(15)
H1 H -0.0296 0.2194 0.7839
C2 C -0.2420(3) 0.2346(2) 0.83972(18)
H2 H -0.2822 0.1701 0.8223
C3 C -0.3308(3) 0.3006(2) 0.8882(2)
H3 H -0.4327 0.2817 0.9044
C4 C -0.2680(3) 0.3963(2) 0.91334(18)
H4 H -0.3266 0.4425 0.9467
C5 C -0.1166(3) 0.42146(19) 0.88779(14)
C6 C -0.0432(3) 0.52729(18) 0.90350(16)
C7 C -0.0997(3) 0.5957(2) 0.97389(15)
C8 C -0.1011(5) 0.7029(2) 0.96224(18)
H5 H -0.0695 0.7312 0.9103
C9 C -0.1485(6) 0.7682(2) 1.0267(2)
H6 H -0.1528 0.8403 1.0178
C10 C -0.1900(5) 0.7271(3) 1.1046(2)
H7 H -0.2201 0.7718 1.1486
C11 C -0.1873(5) 0.6214(3) 1.11769(19)
H8 H -0.2143 0.5941 1.1707
C12 C -0.1444(4) 0.5549(2) 1.05217(18)
H9 H -0.1454 0.4826 1.0606
C13 C 0.3453(3) 0.4273(2) 0.99227(16)
C14 C 0.4063(3) 0.5056(2) 1.11821(16)
C15 C 0.5104(3) 0.5493(2) 0.78242(19)
C16 C 0.6758(3) 0.6863(2) 0.75250(18)
Zn1A Zn 0.30114(3) 0.588841(19) 1.302184(15)
Zn1B Zn 0.80114(3) 0.911159(19) 0.697816(15)
N4A N 0.1157(3) 0.4513(2) 0.68064(14)
N7B N 0.2856(3) 0.26683(17) 0.76909(15)
loop_
_geom_bond_atom_site_label_1
_geom_bond_atom_site_label_2
_geom_bond_site_symmetry_1
_geom_bond_site_symmetry_2
Zn1 N1 1_555 1_555
N1 C1 1_555 1_555
N2 Zn1 1_555 1_555
N3 C13 1_555 1_555
N4 C14 1_555 1_555
N5 Zn1 1_555 1_555
N6 C15 1_555 1_555
N7 C16 1_555 1_555
O1 Zn1 1_555 1_555
C1 H1 1_555 1_555
C2 C1 1_555 1_555
H2 C2 1_555 1_555
C3 C2 1_555 1_555
H3 C3 1_555 1_555
C4 C3 1_555 1_555
H4 C4 1_555 1_555
C5 N1 1_555 1_555
C6 O1 1_555 1_555
C7 C6 1_555 1_555
C8 C7 1_555 1_555
H5 C8 1_555 1_555
C9 C8 1_555 1_555
H6 C9 1_555 1_555
C10 C9 1_555 1_555
H7 C10 1_555 1_555
C11 C10 1_555 1_555
H8 C11 1_555 1_555
C12 C7 1_555 1_555
H9 C12 1_555 1_555
C13 N2 1_555 1_555
C14 N3 1_555 1_555
C15 N5 1_555 1_555
C16 N6 1_555 1_555
Zn1A N4 1_555 1_555
Zn1B N7 1_555 1_555
N4A Zn1 1_555 1_555
N7B Zn1 1_555 1_555
C4 C5 1_555 1_555
C5 C6 1_555 1_555
C11 C12 1_555 1_555

#END
