
#######################################################################
#
#                 Cambridge Crystallographic Data Centre
#                                CCDC 
#
#######################################################################
#
# If this CIF has been generated from an entry in the Cambridge 
# Structural Database, then it will include bibliographic, chemical, 
# crystal, experimental, refinement or atomic coordinate data resulting 
# from the CCDC's data processing and validation procedures.
#
#######################################################################

data_OVIYAU
_symmetry_cell_setting           orthorhombic
_symmetry_space_group_name_H-M   'P 21 21 21'
_symmetry_Int_Tables_number      19
_space_group_name_Hall           'P 2ac 2ab'
loop_
_symmetry_equiv_pos_site_id
_symmetry_equiv_pos_as_xyz
1 x,y,z
2 1/2-x,-y,1/2+z
3 1/2+x,1/2-y,-z
4 -x,1/2+y,1/2-z
_cell_length_a                   8.6476(2)
_cell_length_b                   12.7504(3)
_cell_length_c                   15.8872(4)
_cell_angle_alpha                90
_cell_angle_beta                 90
_cell_angle_gamma                90
_cell_volume                     1751.73
loop_
_atom_site_label
_atom_site_type_symbol
_atom_site_fract_x
_atom_site_fract_y
_atom_site_fract_z
Mn1 Mn 0.30406(3) 0.58518(2) 0.806583(15)
O1 O 0.44684(18) 0.44767(12) 0.86202(10)
N1 N 0.54101(17) 0.64474(12) 0.84398(10)
C1 C 0.6027(2) 0.73627(16) 0.82111(13)
H1 H 0.5428 0.7825 0.7897
C2 C 0.7518(2) 0.76544(18) 0.84195(15)
H2 H 0.7914 0.8296 0.8243
C3 C 0.8399(3) 0.6986(2) 0.88878(18)
H3 H 0.9406 0.7166 0.9035
C4 C 0.7778(2) 0.60396(17) 0.91407(15)
H4 H 0.8360 0.5574 0.9461
C5 C 0.62755(19) 0.57939(16) 0.89093(11)
C6 C 0.5542(2) 0.47514(15) 0.90750(13)
C7 C 0.6089(2) 0.40628(16) 0.97572(12)
C8 C 0.6058(4) 0.29927(19) 0.96371(16)
H5 H 0.5725 0.2720 0.9125
C9 C 0.6522(5) 0.2320(2) 1.0275(2)
H6 H 0.6524 0.1599 1.0187
C10 C 0.6979(5) 0.2724(2) 1.10390(19)
H7 H 0.7274 0.2272 1.1469
C11 C 0.7002(4) 0.3775(2) 1.11700(17)
H8 H 0.7297 0.4041 1.1691
C12 C 0.6583(3) 0.4459(2) 1.05208(15)
H9 H 0.6636 0.5180 1.0603
N2 N 0.1095(3) 0.45706(19) 1.18242(12)
N3 N 0.0543(2) 0.5431(2) 1.04961(12)
N4 N 0.2291(3) 0.60110(19) 0.94035(11)
N5 N -0.0980(2) 0.99174(16) 0.71232(13)
N6 N 0.1549(3) 0.9102(2) 0.7210(3)
N7 N 0.2255(2) 0.73810(16) 0.77075(13)
C13 C 0.0916(2) 0.49662(18) 1.11916(13)
C14 C 0.1546(2) 0.57139(18) 0.99433(12)
C15 C 0.0167(3) 0.94907(18) 0.71822(17)
C16 C 0.1837(3) 0.81772(17) 0.74913(15)
Mn1A Mn 0.19594(3) 0.41482(2) 1.306583(15)
Mn1C Mn -0.30406(3) 1.08518(2) 0.693417(15)
N2A N 0.3905(3) 0.54294(19) 0.68242(12)
N5C N 0.0980(2) 0.49174(16) 0.78768(13)
loop_
_geom_bond_atom_site_label_1
_geom_bond_atom_site_label_2
_geom_bond_site_symmetry_1
_geom_bond_site_symmetry_2
Mn1 O1 1_555 1_555
O1 C6 1_555 1_555
N1 Mn1 1_555 1_555
C1 N1 1_555 1_555
H1 C1 1_555 1_555
C2 C1 1_555 1_555
H2 C2 1_555 1_555
C3 C2 1_555 1_555
H3 C3 1_555 1_555
C4 C3 1_555 1_555
H4 C4 1_555 1_555
C5 N1 1_555 1_555
C6 C5 1_555 1_555
C7 C6 1_555 1_555
C8 C7 1_555 1_555
H5 C8 1_555 1_555
C9 C8 1_555 1_555
H6 C9 1_555 1_555
C10 C9 1_555 1_555
H7 C10 1_555 1_555
C11 C10 1_555 1_555
H8 C11 1_555 1_555
C12 C7 1_555 1_555
H9 C12 1_555 1_555
N2 C13 1_555 1_555
N3 C13 1_555 1_555
N4 Mn1 1_555 1_555
N5 C15 1_555 1_555
N6 C15 1_555 1_555
N7 Mn1 1_555 1_555
C14 N3 1_555 1_555
C16 N6 1_555 1_555
Mn1A N2 1_555 1_555
Mn1C N5 1_555 1_555
N2A Mn1 1_555 1_555
N5C Mn1 1_555 1_555
C4 C5 1_555 1_555
C11 C12 1_555 1_555
N4 C14 1_555 1_555
N7 C16 1_555 1_555

#END
