
#######################################################################
#
#                 Cambridge Crystallographic Data Centre
#                                CCDC 
#
#######################################################################
#
# If this CIF has been generated from an entry in the Cambridge 
# Structural Database, then it will include bibliographic, chemical, 
# crystal, experimental, refinement or atomic coordinate data resulting 
# from the CCDC's data processing and validation procedures.
#
#######################################################################

data_OVIYIC
_symmetry_cell_setting           orthorhombic
_symmetry_space_group_name_H-M   'P 21 21 21'
_symmetry_Int_Tables_number      19
_space_group_name_Hall           'P 2ac 2ab'
loop_
_symmetry_equiv_pos_site_id
_symmetry_equiv_pos_as_xyz
1 x,y,z
2 1/2-x,-y,1/2+z
3 -x,1/2+y,1/2-z
4 1/2+x,1/2-y,-z
_cell_length_a                   8.3767(12)
_cell_length_b                   12.9906(18)
_cell_length_c                   15.469(2)
_cell_angle_alpha                90
_cell_angle_beta                 90
_cell_angle_gamma                90
_cell_volume                     1683.31
loop_
_atom_site_label
_atom_site_type_symbol
_atom_site_fract_x
_atom_site_fract_y
_atom_site_fract_z
Cu1 Cu 0.80221(3) 0.921300(17) 0.696805(13)
N1 N 1.0228(2) 0.87078(12) 0.66185(10)
N2 N 0.7376(2) 0.92061(17) 0.57067(12)
N3 N 0.5628(3) 0.96145(19) 0.44994(12)
N4 N 0.6217(2) 1.05705(16) 0.31781(11)
N5 N 0.7044(3) 0.76518(15) 0.72072(14)
N6 N 0.6428(3) 0.59086(19) 0.7642(3)
N7 N 0.3924(2) 0.50131(14) 0.77795(13)
O1 O 0.9661(2) 1.07731(12) 0.65781(11)
C1 C 1.0762(3) 0.77704(15) 0.68155(13)
H1 H 1.0100 0.7329 0.7125
C2 C 1.2256(3) 0.74293(18) 0.65786(16)
H2 H 1.2598 0.6773 0.6732
C3 C 1.3231(3) 0.80690(19) 0.61152(18)
H3 H 1.4244 0.7855 0.5947
C4 C 1.2682(3) 0.90387(19) 0.59012(17)
H4 H 1.3320 0.9486 0.5583
C5 C 1.1178(2) 0.93381(16) 0.61642(12)
C6 C 1.0590(3) 1.04273(15) 0.60478(14)
C7 C 1.1161(3) 1.10573(16) 0.53117(14)
C8 C 1.1453(4) 1.06327(19) 0.45044(15)
H5 H 1.1343 0.9928 0.4418
C9 C 1.1912(4) 1.1267(2) 0.38264(17)
H6 H 1.2090 1.0989 0.3281
C10 C 1.2101(5) 1.2298(2) 0.39586(19)
H7 H 1.2387 1.2722 0.3500
C11 C 1.1874(5) 1.2709(2) 0.4759(2)
H8 H 1.2051 1.3407 0.4849
C12 C 1.1383(4) 1.20964(18) 0.54378(17)
H9 H 1.1203 1.2385 0.5979
C13 C 0.6629(3) 0.94293(16) 0.51149(13)
C14 C 0.6010(3) 1.01250(17) 0.38113(13)
C15 C 0.6661(3) 0.68503(18) 0.73942(17)
C16 C 0.5039(3) 0.54871(17) 0.77009(19)
Cu1A Cu 0.69779(3) 1.078700(17) 0.196805(13)
Cu1B Cu 0.19779(3) 0.421300(17) 0.803195(13)
N4A N 0.8783(2) 0.94295(16) 0.81781(11)
N7B N 0.6076(2) 1.00131(14) 0.72205(13)
loop_
_geom_bond_atom_site_label_1
_geom_bond_atom_site_label_2
_geom_bond_site_symmetry_1
_geom_bond_site_symmetry_2
Cu1 N1 1_555 1_555
N1 C1 1_555 1_555
N2 Cu1 1_555 1_555
N3 C13 1_555 1_555
N4 C14 1_555 1_555
N5 Cu1 1_555 1_555
N6 C15 1_555 1_555
N7 C16 1_555 1_555
O1 Cu1 1_555 1_555
C1 H1 1_555 1_555
C2 C1 1_555 1_555
H2 C2 1_555 1_555
C3 C2 1_555 1_555
H3 C3 1_555 1_555
C4 C3 1_555 1_555
H4 C4 1_555 1_555
C5 N1 1_555 1_555
C6 O1 1_555 1_555
C7 C6 1_555 1_555
C8 C7 1_555 1_555
H5 C8 1_555 1_555
C9 C8 1_555 1_555
H6 C9 1_555 1_555
C10 C9 1_555 1_555
H7 C10 1_555 1_555
C11 C10 1_555 1_555
H8 C11 1_555 1_555
C12 C7 1_555 1_555
H9 C12 1_555 1_555
C13 N2 1_555 1_555
C14 N3 1_555 1_555
C15 N5 1_555 1_555
C16 N6 1_555 1_555
Cu1A N4 1_555 1_555
Cu1B N7 1_555 1_555
N4A Cu1 1_555 1_555
N7B Cu1 1_555 1_555
C4 C5 1_555 1_555
C5 C6 1_555 1_555
C11 C12 1_555 1_555

#END
