
#######################################################################
#
#                 Cambridge Crystallographic Data Centre
#                                CCDC 
#
#######################################################################
#
# If this CIF has been generated from an entry in the Cambridge 
# Structural Database, then it will include bibliographic, chemical, 
# crystal, experimental, refinement or atomic coordinate data resulting 
# from the CCDC's data processing and validation procedures.
#
#######################################################################

data_OVIZOJ
_symmetry_cell_setting           triclinic
_symmetry_space_group_name_H-M   'P -1'
_symmetry_Int_Tables_number      2
_space_group_name_Hall           '-P 1'
loop_
_symmetry_equiv_pos_site_id
_symmetry_equiv_pos_as_xyz
1 x,y,z
2 -x,-y,-z
_cell_length_a                   12.4225(4)
_cell_length_b                   12.9981(2)
_cell_length_c                   14.77900(10)
_cell_angle_alpha                64.384(8)
_cell_angle_beta                 80.885(12)
_cell_angle_gamma                79.562(12)
_cell_volume                     2107.54
loop_
_atom_site_label
_atom_site_type_symbol
_atom_site_fract_x
_atom_site_fract_y
_atom_site_fract_z
Ni1 Ni 0.22886(3) 1.21634(3) 0.21228(3)
O1 O 0.43991(18) 1.2065(2) 0.64687(16)
N1 N 0.28829(16) 1.07016(17) 0.34483(15)
C1 C 0.37072(16) 1.17741(17) 0.61139(15)
Ni2 Ni 0.44943(3) 1.17556(3) 0.79524(3)
O2 O 0.27609(19) 1.1537(2) 0.65467(18)
N2 N 0.7482(2) 1.3170(2) 0.0419(2)
C2 C 0.4029(2) 1.1666(3) 0.5131(2)
Ni3 Ni 0.80975(3) 1.15484(3) 0.16290(3)
O3 O 0.7234(2) 1.2008(3) 0.3668(2)
N3 N 0.8973(2) 1.6812(3) 0.2632(2)
C3 C 0.5081(3) 1.1838(3) 0.4662(2)
Ni4 Ni 0.84687(3) 1.78284(3) 0.11979(3)
O4 O 0.67748(18) 1.1393(2) 0.26069(18)
C4 C 0.5412(2) 1.1580(3) 0.3833(2)
O5 O 0.47445(19) 0.99093(19) 0.16385(17)
C5 C 0.4688(3) 1.1190(3) 0.3461(2)
O6 O 0.33399(19) 1.12858(19) 0.13884(17)
C6 C 0.3616(2) 1.1053(3) 0.3906(2)
O7 O 0.0282(2) 0.9710(2) 0.3795(2)
C7 C 0.3293(2) 1.1286(3) 0.4750(2)
O8 O 0.10403(19) 1.1146(2) 0.25306(18)
C8 C 0.6564(3) 1.1679(3) 0.3332(2)
O9 O 0.35228(19) 1.3124(2) 0.1746(2)
C9 C 0.1874(3) 1.0277(3) 0.4083(2)
O10 O 0.3084(2) 1.4383(2) 0.2439(2)
C10 C 0.1003(3) 1.0362(3) 0.3419(3)
O11 O 0.61182(18) 1.65982(18) 0.22845(17)
C11 C 0.3466(3) 0.9835(3) 0.3060(2)
O12 O 0.75495(18) 1.66884(19) 0.11274(18)
C12 C 0.3895(2) 1.0383(3) 0.1949(2)
O13 O 0.94072(18) 1.17233(19) 0.05595(18)
C13 C 0.3739(3) 1.3889(3) 0.1966(3)
O14 O 1.02277(18) 1.30818(19) -0.07442(18)
C14 C 0.6684(2) 1.6283(2) 0.1638(2)
O15 O 0.7374(2) 1.08855(19) 0.08943(18)
C15 C 0.5225(3) 1.5094(3) 0.1779(3)
O16 O 0.6947(5) 1.1249(3) -0.0614(3)
C16 C 0.6298(3) 1.5350(3) 0.1469(2)
O17 O 0.1420(2) 1.3119(2) 0.2884(2)
C17 C 0.7023(3) 1.4746(3) 0.0995(3)
O18 O 0.1545(2) 1.3223(2) 0.0838(2)
C18 C 0.6702(2) 1.3874(3) 0.0840(2)
O19 O 0.88786(19) 1.2322(2) 0.22576(19)
C19 C 0.5627(3) 1.3623(3) 0.1147(3)
O20 O 0.88155(19) 0.9910(2) 0.25567(18)
C20 C 0.4888(2) 1.4227(3) 0.1618(3)
O21 O 0.28945(17) 1.12953(18) 0.83037(16)
C21 C 0.8520(3) 1.3667(3) -0.0064(3)
O22 O 0.9454(2) 1.9076(2) 0.1060(2)
C22 C 0.9442(2) 1.2733(3) -0.0086(2)
O23 O 0.8189(2) 1.8968(2) -0.02739(19)
C23 C 0.7017(3) 1.2853(3) -0.0282(2)
O24 O 0.60542(19) 1.2236(2) 0.75983(19)
C24 C 0.7128(3) 1.1570(3) 0.0018(3)
O25 O 0.4556(3) 1.1394(3) 0.9474(2)
C25 C 0.9783(3) 1.5387(4) 0.4503(3)
H3 H 0.9709 1.9279 0.1452
H4 H 0.9979 1.8892 0.0705
H5 H 0.1040 1.2980 0.3469
H6 H 0.1684 1.3726 0.2717
H7 H 0.1512 1.3351 0.0235
H8 H 0.1004 1.3652 0.0997
H9 H 0.9426 1.1925 0.2587
H10 H 0.8857 1.3007 0.2172
H11 H 0.8238 0.9616 0.2954
H12 H 0.9345 0.9631 0.2931
H13 H 0.2593 1.1549 0.7749
H14 H 0.2907 1.0585 0.8585
H15 H 0.7943 1.9121 -0.0825
H16 H 0.8519 1.9502 -0.0336
H17 H 0.6518 1.2697 0.7164
H18 H 0.6436 1.1598 0.7881
H19 H 0.4274 1.1317 1.0047
H20 H 0.5118 1.1780 0.9344
H21 H 0.2963 0.9375 0.3034
H22 H 0.4044 0.9339 0.3443
H23 H 0.1544 1.0717 0.4408
H24 H 0.2052 0.9445 0.4646
H25 H 0.6217 1.3157 -0.0380
H26 H 0.7330 1.3271 -0.1005
H27 H 0.8751 1.3944 0.0320
H28 H 0.8324 1.4184 -0.0863
H29 H 0.5392 1.3003 0.1093
H30 H 0.4967 1.1043 0.2822
H31 H 0.2531 1.1109 0.5141
H32 H 0.5595 1.2004 0.5005
H33 H 0.7775 1.4902 0.0851
H34 H 0.4642 1.5467 0.2192
C26 C 0.83409(15) 1.61806(17) 0.34060(15)
C27 C 0.87149(15) 1.54725(17) 0.43370(15)
C28 C 1.00169(15) 1.67746(17) 0.28000(15)
C29 C 1.04609(15) 1.60845(17) 0.37050(15)
H35 H 0.8174 1.5123 0.4844
H36 H 1.1196 1.6213 0.3776
H37 H 0.7604 1.6349 0.3334
H38 H 1.0601 1.7236 0.2208
Ni1A Ni 0.77114(3) 0.78366(3) 0.78772(3)
Ni1A_2 Ni 0.77114(3) 1.78366(3) 0.78772(3)
O1A O 0.56009(18) 0.7935(2) 0.35313(16)
N1A N 0.71171(16) 0.92984(17) 0.65517(15)
C1A C 0.62928(16) 0.82259(17) 0.38861(15)
Ni2A Ni 0.55057(3) 0.82444(3) 0.20476(3)
Ni2A_2 Ni 0.55057(3) 1.82444(3) 0.20476(3)
O2A O 0.72391(19) 0.8463(2) 0.34533(18)
N2A N 0.2518(2) 1.6830(2) 0.9581(2)
C2A C 0.5971(2) 0.8334(3) 0.4869(2)
Ni3A Ni 0.19025(3) 1.84516(3) 0.83710(3)
Ni3A_2 Ni 0.19025(3) 0.84516(3) 0.83710(3)
O3A O 0.2766(2) 0.7992(3) 0.6332(2)
N3A N 1.1027(2) 1.3188(3) 0.7368(2)
N3A_2 N 1.1027(2) 1.3188(3) -0.2632(2)
C3A C 0.4919(3) 0.8162(3) 0.5338(2)
Ni4A Ni 1.15313(3) 1.21716(3) -0.11979(3)
Ni4A_2 Ni 0.15313(3) 1.21716(3) 0.88021(3)
Ni4A_3 Ni 1.15313(3) 1.21716(3) 0.88021(3)
Ni4_2 Ni -0.15313(3) 1.78284(3) 1.11979(3)
O4A O 0.32252(18) 0.8607(2) 0.73931(18)
O4A_2 O 0.32252(18) 1.8607(2) 0.73931(18)
C4A C 0.4588(2) 0.8420(3) 0.6167(2)
O5A O 0.52555(19) 1.00907(19) 0.83615(17)
C5A C 0.5312(3) 0.8810(3) 0.6539(2)
O6A O 0.66601(19) 0.87142(19) 0.86116(17)
C6A C 0.6384(2) 0.8947(3) 0.6094(2)
O7A O 0.9718(2) 1.0290(2) 0.6205(2)
C7A C 0.6707(2) 0.8714(3) 0.5250(2)
O8A O 0.89597(19) 0.8854(2) 0.74694(18)
C8A C 0.3436(3) 0.8321(3) 0.6668(2)
O9A O 0.64772(19) 1.6876(2) 0.8254(2)
O9A_2 O 0.64772(19) 0.6876(2) 0.8254(2)
C9A C 0.8126(3) 0.9723(3) 0.5917(2)
O10A O 0.6916(2) 1.5617(2) 0.7561(2)
C10A C 0.8997(3) 0.9638(3) 0.6581(3)
O11A O 0.38818(18) 1.34018(18) 0.77155(17)
O11_2 O 0.61182(18) 0.65982(18) 0.22845(17)
C11A C 0.6534(3) 1.0165(3) 0.6940(2)
O12A O 0.24505(18) 1.33116(19) 0.88726(18)
O12A_2 O 1.24505(18) 1.33116(19) -0.11274(18)
C12A C 0.6105(2) 0.9617(3) 0.8051(2)
O13A O 0.05928(18) 1.82767(19) 0.94405(18)
C13A C 0.6261(3) 1.6111(3) 0.8034(3)
O14A O -0.02277(18) 1.69182(19) 1.07442(18)
O14A_2 O 0.97723(18) 1.69182(19) 0.07442(18)
C14A C 0.3316(2) 1.3717(2) 0.8362(2)
O15A O 0.2626(2) 1.91145(19) 0.91057(18)
C15A C 0.4775(3) 1.4906(3) 0.8221(3)
O16A O 0.3053(5) 1.8751(3) 1.0614(3)
C16A C 0.3702(3) 1.4650(3) 0.8531(2)
O17A O 0.8580(2) 0.6881(2) 0.7116(2)
C17A C 0.2977(3) 1.5254(3) 0.9005(3)
O18A O 0.8455(2) 0.6777(2) 0.9162(2)
C18A C 0.3298(2) 1.6126(3) 0.9160(2)
O19A O 0.11214(19) 1.7678(2) 0.77424(19)
C19A C 0.4373(3) 1.6377(3) 0.8853(3)
O20A O 0.11845(19) 2.0090(2) 0.74433(18)
C20A C 0.5112(2) 1.5773(3) 0.8382(3)
O21A O 0.71055(17) 1.87047(18) 0.16963(16)
O21A_2 O 0.71055(17) 0.87047(18) 0.16963(16)
O21_2 O 1.28945(17) 1.12953(18) -0.16963(16)
C21A C 0.1480(3) 1.6333(3) 1.0064(3)
O22A O 1.0546(2) 1.0924(2) -0.1060(2)
C22A C 0.0558(2) 1.7267(3) 1.0086(2)
O23A O 1.1811(2) 1.1032(2) 0.02739(19)
C23A C 0.2983(3) 1.7147(3) 1.0282(2)
O24A O 0.39458(19) 0.7764(2) 0.24017(19)
C24A C 0.2872(3) 1.8430(3) 0.9982(3)
O25A O 0.5444(3) 0.8606(3) 0.0526(2)
C25A C 1.0217(3) 1.4613(4) 0.5497(3)
H3A H 1.0291 1.0721 -0.1452
H4A H 1.0021 1.1108 -0.0705
H5A H 0.8960 0.7020 0.6531
H6A H 0.8316 0.6274 0.7283
H7A H 0.8488 0.6649 0.9765
H8A H 0.8996 0.6348 0.9003
H9A H 0.0574 1.8075 0.7413
H10A H 0.1143 1.6993 0.7828
H11A H 0.1762 2.0384 0.7046
H12A H 0.0655 2.0369 0.7069
H13A H 0.7407 1.8451 0.2251
H13A_2 H 0.7407 0.8451 0.2251
H13_2 H 1.2593 1.1549 -0.2251
H14A H 0.7093 1.9415 0.1415
H14A_2 H 0.7093 0.9415 0.1415
H14_2 H 1.2907 1.0585 -0.1415
H15A H 1.2057 1.0879 0.0825
H16A H 1.1481 1.0498 0.0336
H17A H 0.3482 0.7303 0.2836
H18A H 0.3564 0.8402 0.2119
H19A H 0.5726 0.8683 -0.0047
H20A H 0.4882 0.8220 0.0656
H21A H 0.7037 1.0625 0.6966
H22A H 0.5956 1.0661 0.6557
H23A H 0.8456 0.9283 0.5592
H24A H 0.7948 1.0555 0.5354
H25A H 0.3783 1.6843 1.0380
H26A H 0.2670 1.6729 1.1005
H27A H 0.1249 1.6056 0.9680
H28A H 0.1676 1.5816 1.0863
H29A H 0.4608 1.6997 0.8907
H30A H 0.5033 0.8957 0.7178
H31A H 0.7469 0.8891 0.4859
H32A H 0.4405 0.7996 0.4995
H33A H 0.2225 1.5098 0.9149
H34A H 0.5358 1.4533 0.7808
C26A C 1.16591(15) 1.38194(17) 0.65940(15)
C27A C 1.12851(15) 1.45275(17) 0.56630(15)
C28A C 0.99831(15) 1.32254(17) 0.72000(15)
C29A C 0.95391(15) 1.39155(17) 0.62950(15)
H35A H 1.1826 1.4877 0.5156
H36A H 0.8804 1.3787 0.6224
H37A H 1.2396 1.3651 0.6666
H38A H 0.9399 1.2764 0.7792
O26 O 0.0227(4) 0.7586(4) 0.5538(4)
H39 H 0.0391 0.8182 0.5011
H40 H 0.0736 0.7035 0.5539
O27 O 0.4057(6) 0.4791(6) 0.5480(5)
H41 H 0.4079 0.4450 0.6129
H42 H 0.3906 0.5523 0.5357
O28 O 0.3306(3) 0.5595(3) 0.3556(3)
H1 H 0.2812 0.5433 0.3298
H2 H 0.3583 0.4957 0.3986
O29 O 0.97073(15) 1.45700(17) 0.13324(15)
H43 H 0.9503 1.5188 0.1412
H44 H 0.9883 1.4042 0.1897
O30 O 0.75270(15) 0.31852(17) 0.47322(15)
O31? O 0.77430(15) 0.38082(17) 0.38082(15)
loop_
_geom_bond_atom_site_label_1
_geom_bond_atom_site_label_2
_geom_bond_site_symmetry_1
_geom_bond_site_symmetry_2
Ni1 N1 1_555 1_555
O1 C1 1_555 1_555
N1 C6 1_555 1_555
C1 O2 1_555 1_555
Ni2 O1 1_555 1_555
N2 Ni3 1_555 1_555
C2 C1 1_555 1_555
Ni3 O4 1_555 1_555
O3 C8 1_555 1_555
N3 Ni4 1_555 1_555
C3 C2 1_555 1_555
Ni4 O12 1_555 1_555
O4 C8 1_555 1_555
C4 C3 1_555 1_555
O5 C12 1_555 1_555
C5 C4 1_555 1_555
O6 Ni1 1_555 1_555
C6 C5 1_555 1_555
O7 C10 1_555 1_555
C7 C2 1_555 1_555
O8 Ni1 1_555 1_555
C8 C4 1_555 1_555
O9 Ni1 1_555 1_555
C9 N1 1_555 1_555
O10 C13 1_555 1_555
C10 O8 1_555 1_555
O11 C14 1_555 1_555
C11 N1 1_555 1_555
O12 C14 1_555 1_555
C12 O6 1_555 1_555
O13 Ni3 1_555 1_555
C13 O9 1_555 1_555
O14 C22 1_555 1_555
C14 C16 1_555 1_555
O15 Ni3 1_555 1_555
C15 C16 1_555 1_555
O16 C24 1_555 1_555
C16 C17 1_555 1_555
O17 Ni1 1_555 1_555
C17 C18 1_555 1_555
O18 Ni1 1_555 1_555
C18 N2 1_555 1_555
O19 Ni3 1_555 1_555
C19 C18 1_555 1_555
O20 Ni3 1_555 1_555
C20 C13 1_555 1_555
O21 Ni2 1_555 1_555
C21 N2 1_555 1_555
O22 Ni4 1_555 1_555
C22 O13 1_555 1_555
O23 Ni4 1_555 1_555
C23 N2 1_555 1_555
O24 Ni2 1_555 1_555
C24 O15 1_555 1_555
O25 Ni2 1_555 1_555
O26 H39 1_555 1_555
O27 H41 1_555 1_555
C25 C27 1_555 1_555
O28 H1 1_555 1_555
O29 H43 1_555 1_555
H2 O28 1_555 1_555
H3 O22 1_555 1_555
H4 O22 1_555 1_555
H5 O17 1_555 1_555
H6 O17 1_555 1_555
H7 O18 1_555 1_555
H8 O18 1_555 1_555
H9 O19 1_555 1_555
H10 O19 1_555 1_555
H11 O20 1_555 1_555
H12 O20 1_555 1_555
H13 O21 1_555 1_555
H14 O21 1_555 1_555
H15 O23 1_555 1_555
H16 O23 1_555 1_555
H17 O24 1_555 1_555
H18 O24 1_555 1_555
H19 O25 1_555 1_555
H20 O25 1_555 1_555
H21 C11 1_555 1_555
H22 C11 1_555 1_555
H23 C9 1_555 1_555
H24 C9 1_555 1_555
H25 C23 1_555 1_555
H26 C23 1_555 1_555
H27 C21 1_555 1_555
H28 C21 1_555 1_555
H29 C19 1_555 1_555
H30 C5 1_555 1_555
H31 C7 1_555 1_555
H32 C3 1_555 1_555
H33 C17 1_555 1_555
H34 C15 1_555 1_555
C26 N3 1_555 1_555
C27 C26 1_555 1_555
C28 N3 1_555 1_555
C29 C25 1_555 1_555
H35 C27 1_555 1_555
H36 C29 1_555 1_555
H37 C26 1_555 1_555
H38 C28 1_555 1_555
H40 O26 1_555 1_555
H42 O27 1_555 1_555
H44 O29 1_555 1_555
Ni1A N1A 1_555 1_555
Ni1A_2 O9A 1_555 1_555
O1A C1A 1_555 1_555
N1A C6A 1_555 1_555
C1A O2A 1_555 1_555
Ni2A O5 1_555 1_555
Ni2A_2 O11 1_555 1_555
N2A Ni3A 1_555 1_555
C2A C1A 1_555 1_555
Ni3A O4A_2 1_555 1_555
Ni3A_2 O4A 1_555 1_555
O3A C8A 1_555 1_555
N3A Ni4A_3 1_555 1_555
N3A_2 Ni4A 1_555 1_555
C3A C2A 1_555 1_555
Ni4A O14 1_555 1_555
Ni4A_2 O21 1_555 1_555
Ni4_2 O14A 1_555 1_555
O4A C8A 1_555 1_555
C4A C3A 1_555 1_555
O5A Ni2 1_555 1_555
C5A C4A 1_555 1_555
O6A Ni1A 1_555 1_555
C6A C5A 1_555 1_555
O7A C10A 1_555 1_555
C7A C2A 1_555 1_555
O8A Ni1A 1_555 1_555
C8A C4A 1_555 1_555
O9A C13A 1_555 1_555
O9A_2 Ni1A 1_555 1_555
C9A N1A 1_555 1_555
O10A C13A 1_555 1_555
C10A O8A 1_555 1_555
O11A Ni2 1_555 1_555
O11_2 Ni2A 1_555 1_555
C11A N1A 1_555 1_555
O12A Ni4A_2 1_555 1_555
O12A_2 Ni4A 1_555 1_555
C12A O5A 1_555 1_555
O13A Ni3A 1_555 1_555
C13A C20A 1_555 1_555
O14A C22A 1_555 1_555
O14A_2 Ni4 1_555 1_555
C14A O11A 1_555 1_555
O15A Ni3A 1_555 1_555
C15A C16A 1_555 1_555
O16A C24A 1_555 1_555
C16A C14A 1_555 1_555
O17A Ni1A 1_555 1_555
C17A C16A 1_555 1_555
O18A Ni1A 1_555 1_555
C18A N2A 1_555 1_555
O19A Ni3A 1_555 1_555
C19A C18A 1_555 1_555
O20A Ni3A 1_555 1_555
C20A C15A 1_555 1_555
O21A Ni4 1_555 1_555
O21A_2 Ni2A 1_555 1_555
O21_2 Ni4A 1_555 1_555
C21A N2A 1_555 1_555
O22A Ni4A 1_555 1_555
C22A O13A 1_555 1_555
O23A Ni4A 1_555 1_555
C23A N2A 1_555 1_555
O24A Ni2A 1_555 1_555
C24A O15A 1_555 1_555
O25A Ni2A 1_555 1_555
C25A C25 1_555 1_555
H3A O22A 1_555 1_555
H4A O22A 1_555 1_555
H5A O17A 1_555 1_555
H6A O17A 1_555 1_555
H7A O18A 1_555 1_555
H8A O18A 1_555 1_555
H9A O19A 1_555 1_555
H10A O19A 1_555 1_555
H11A O20A 1_555 1_555
H12A O20A 1_555 1_555
H13A O21A 1_555 1_555
H13A_2 O21A_2 1_555 1_555
H13_2 O21_2 1_555 1_555
H14A O21A 1_555 1_555
H14A_2 O21A_2 1_555 1_555
H14_2 O21_2 1_555 1_555
H15A O23A 1_555 1_555
H16A O23A 1_555 1_555
H17A O24A 1_555 1_555
H18A O24A 1_555 1_555
H19A O25A 1_555 1_555
H20A O25A 1_555 1_555
H21A C11A 1_555 1_555
H22A C11A 1_555 1_555
H23A C9A 1_555 1_555
H24A C9A 1_555 1_555
H25A C23A 1_555 1_555
H26A C23A 1_555 1_555
H27A C21A 1_555 1_555
H28A C21A 1_555 1_555
H29A C19A 1_555 1_555
H30A C5A 1_555 1_555
H31A C7A 1_555 1_555
H32A C3A 1_555 1_555
H33A C17A 1_555 1_555
H34A C15A 1_555 1_555
C26A N3A 1_555 1_555
C27A C25A 1_555 1_555
C28A N3A 1_555 1_555
C29A C25A 1_555 1_555
H35A C27A 1_555 1_555
H36A C29A 1_555 1_555
H37A C26A 1_555 1_555
H38A C28A 1_555 1_555
C6 C7 1_555 1_555
C9 C10 1_555 1_555
C11 C12 1_555 1_555
C15 C20 1_555 1_555
C19 C20 1_555 1_555
C21 C22 1_555 1_555
C23 C24 1_555 1_555
C28 C29 1_555 1_555
O1A Ni2A 1_555 1_555
Ni2A_2 O21A 1_555 1_555
O6A C12A 1_555 1_555
C6A C7A 1_555 1_555
C9A C10A 1_555 1_555
C11A C12A 1_555 1_555
O12A C14A 1_555 1_555
C17A C18A 1_555 1_555
C19A C20A 1_555 1_555
C21A C22A 1_555 1_555
C23A C24A 1_555 1_555
C26A C27A 1_555 1_555
C28A C29A 1_555 1_555

#END
