
#######################################################################
#
#                 Cambridge Crystallographic Data Centre
#                                CCDC 
#
#######################################################################
#
# If this CIF has been generated from an entry in the Cambridge 
# Structural Database, then it will include bibliographic, chemical, 
# crystal, experimental, refinement or atomic coordinate data resulting 
# from the CCDC's data processing and validation procedures.
#
#######################################################################

data_OVIZEZ
_symmetry_cell_setting           triclinic
_symmetry_space_group_name_H-M   'P -1'
_symmetry_Int_Tables_number      2
_space_group_name_Hall           '-P 1'
loop_
_symmetry_equiv_pos_site_id
_symmetry_equiv_pos_as_xyz
1 x,y,z
2 -x,-y,-z
_cell_length_a                   12.396(9)
_cell_length_b                   13.007(8)
_cell_length_c                   14.582(9)
_cell_angle_alpha                63.911(18)
_cell_angle_beta                 89.96(3)
_cell_angle_gamma                79.954(19)
_cell_volume                     2071.5
loop_
_atom_site_label
_atom_site_type_symbol
_atom_site_fract_x
_atom_site_fract_y
_atom_site_fract_z
Ni1 Ni 0.31207(7) 0.81497(8) 0.83953(7)
O1 O 0.1121(4) 1.3819(4) 0.7713(4)
N1 N 0.2480(5) 0.8545(5) 0.9627(4)
C1 C 0.1664(6) 1.2863(6) 0.8380(6)
Ni2 Ni -0.27115(7) 0.92033(8) 0.78853(7)
O2 O 0.2511(4) 1.2769(4) 0.8931(4)
N2 N -0.2092(4) 0.9099(5) 0.6533(4)
C2 C 0.1294(6) 1.1762(6) 0.8536(6)
Ni3 Ni 0.34495(7) 1.39918(8) 0.87545(7)
O3 O -0.1925(5) 1.1730(5) 0.7582(5)
C3 C 0.0211(6) 1.1817(6) 0.8214(6)
H1 H -0.0290 1.2542 0.7884
Ni4 Ni 0.05263(7) 1.52433(8) 0.79358(7)
O4 O -0.1481(4) 0.9783(5) 0.8291(4)
C4 C -0.0104(6) 1.0775(6) 0.8396(6)
O5 O 0.1963(7) 0.5577(6) 1.0624(5)
C5 C -0.1269(6) 1.0764(7) 0.8071(6)
O6 O 0.2390(4) 0.6765(4) 0.9089(4)
C6 C 0.0624(6) 0.9704(6) 0.8897(6)
H2 H 0.0381 0.9003 0.9027
O7 O 0.4420(4) 0.7262(4) 0.9498(4)
C7 C 0.1698(6) 0.9656(6) 0.9206(6)
O8 O 0.5212(4) 0.7310(4) 1.0856(4)
C8 C 0.2015(6) 1.0688(7) 0.9038(6)
H3 H 0.2739 1.0667 0.9269
O9 O 0.1813(4) 0.8974(5) 0.7388(4)
C9 C 0.2023(6) 0.7506(6) 1.0326(6)
H4 H 0.1233 0.7765 1.0368
H5 H 0.2399 0.7185 1.1021
O10 O 0.2228(4) 1.0732(5) 0.6396(4)
C10 C 0.2143(6) 0.6543(7) 0.9994(6)
O11 O -0.0637(4) 1.3582(4) 0.3576(4)
C11 C 0.3512(6) 0.8560(7) 1.0145(6)
O12 O -0.2289(4) 1.3165(5) 0.3529(4)
C12 C 0.4447(6) 0.7632(6) 1.0174(6)
O13 O -0.4730(5) 0.8515(6) 0.6114(4)
C13 C 0.1566(6) 1.0023(6) 0.6682(6)
O14 O -0.3964(4) 0.8641(5) 0.7431(4)
C14 C 0.0420(6) 1.0413(6) 0.6190(5)
O15 O -0.1663(4) 0.7599(4) 0.8616(4)
C15 C 0.0072(6) 1.1517(6) 0.5383(5)
H6 H 0.0551 1.2061 0.5156
O16 O -0.0237(4) 0.6509(4) 0.8343(4)
C16 C -0.0980(6) 1.1814(6) 0.4913(6)
O17 O 0.2119(4) 1.5371(4) 0.8285(4)
C17 C -0.1335(6) 1.2927(6) 0.3961(6)
O18 O -0.1050(4) 1.5119(5) 0.7574(4)
C18 C -0.1700(6) 1.1040(6) 0.5271(5)
H7 H -0.2431 1.1269 0.4961
O19 O 0.0441(5) 1.4102(5) 0.9482(4)
C19 C -0.1366(6) 0.9950(6) 0.6068(5)
O20 O 0.3309(4) 1.3750(5) 1.0239(4)
C20 C -0.0291(6) 0.9629(7) 0.6525(6)
H8 H -0.0046 0.8870 0.7068
O21 O 0.4557(5) 1.5100(5) 0.8627(6)
C21 C -0.1501(6) 0.7854(6) 0.6901(5)
H9 H -0.0869 0.7836 0.6490
H10 H -0.2006 0.7400 0.6790
O22 O 0.3612(5) 1.4269(6) 0.7243(5)
C22 C -0.1091(6) 0.7284(6) 0.8023(5)
O23 O 0.3813(4) 0.7484(4) 0.7404(4)
C23 C -0.3119(6) 0.9319(7) 0.5874(5)
H11 H -0.3394 1.0171 0.5484
H12 H -0.2949 0.8998 0.5377
O24 O 0.3906(4) 0.9556(4) 0.7763(4)
C24 C -0.3990(6) 0.8764(7) 0.6518(6)
O25 O -0.3558(4) 1.0921(5) 0.7104(4)
O26 O -0.3496(4) 0.8991(5) 0.9176(4)
H23 H 0.3268 0.8478 1.0814
H24 H 0.3808 0.9184 0.9780
Ni3A Ni 0.65505(7) 0.60082(8) 1.12455(7)
Ni4A Ni -0.05263(7) 1.47567(8) 0.20642(7)
Ni4_2 Ni 0.05263(7) 0.52433(8) 0.79358(7)
O8A O 0.4788(4) 1.2690(4) 0.9144(4)
O11A O 0.0637(4) 1.6418(4) 0.6424(4)
O16_2 O -0.0237(4) 1.6509(4) 0.8343(4)
O27 O 0.5247(6) 0.9091(8) 1.1399(9)
H13 H 0.5202 0.8357 1.1494
H14 H 0.5734 0.9263 1.0972
O28 O -0.1921(9) 0.4072(8) 0.6504(7)
H15 H -0.1673 0.3409 0.6432
H16 H -0.2422 0.4442 0.5999
O29 O -0.4821(10) 0.7783(13) 0.4615(10)
H17 H -0.4633 0.7911 0.5080
H18 H -0.4406 0.8006 0.4128
O30 O -0.1139(15) 0.5141(11) 0.4616(9)
H19 H -0.0891 0.5740 0.4469
H20 H -0.1011 0.4963 0.4093
O31 O 0.2894(9) 0.2737(9) 0.6296(9)
H21 H 0.2340 0.3107 0.5828
H22 H 0.2564 0.2490 0.6871
O32 O -0.4006(9) 0.4828(9) 0.7056(9)
O33 O 0.4156(9) 0.5769(9) 0.5244(9)
loop_
_geom_bond_atom_site_label_1
_geom_bond_atom_site_label_2
_geom_bond_site_symmetry_1
_geom_bond_site_symmetry_2
Ni1 N1 1_555 1_555
O1 C1 1_555 1_555
N1 C7 1_555 1_555
C1 O2 1_555 1_555
Ni2 N2 1_555 1_555
O2 Ni3 1_555 1_555
N2 C19 1_555 1_555
C2 C1 1_555 1_555
Ni3 O17 1_555 1_555
O3 C5 1_555 1_555
C3 C2 1_555 1_555
H1 C3 1_555 1_555
Ni4 O1 1_555 1_555
O4 Ni2 1_555 1_555
C4 C3 1_555 1_555
O5 C10 1_555 1_555
C5 O4 1_555 1_555
O6 Ni1 1_555 1_555
C6 C4 1_555 1_555
H2 C6 1_555 1_555
O7 Ni1 1_555 1_555
C7 C6 1_555 1_555
O8 C12 1_555 1_555
C8 C2 1_555 1_555
H3 C8 1_555 1_555
O9 Ni1 1_555 1_555
C9 N1 1_555 1_555
H4 C9 1_555 1_555
H5 C9 1_555 1_555
O10 C13 1_555 1_555
C10 O6 1_555 1_555
O11 C17 1_555 1_555
C11 N1 1_555 1_555
O12 C17 1_555 1_555
C12 O7 1_555 1_555
O13 C24 1_555 1_555
C13 O9 1_555 1_555
O14 Ni2 1_555 1_555
C14 C13 1_555 1_555
O15 Ni2 1_555 1_555
C15 C14 1_555 1_555
H6 C15 1_555 1_555
O16 C22 1_555 1_555
C16 C15 1_555 1_555
O17 Ni4 1_555 1_555
C17 C16 1_555 1_555
O18 Ni4 1_555 1_555
C18 C16 1_555 1_555
H7 C18 1_555 1_555
O19 Ni4 1_555 1_555
C19 C18 1_555 1_555
O20 Ni3 1_555 1_555
C20 C14 1_555 1_555
H8 C20 1_555 1_555
O21 Ni3 1_555 1_555
C21 N2 1_555 1_555
H9 C21 1_555 1_555
H10 C21 1_555 1_555
O22 Ni3 1_555 1_555
C22 O15 1_555 1_555
O23 Ni1 1_555 1_555
C23 N2 1_555 1_555
H11 C23 1_555 1_555
H12 C23 1_555 1_555
O24 Ni1 1_555 1_555
C24 O14 1_555 1_555
O25 Ni2 1_555 1_555
O26 Ni2 1_555 1_555
O27 H13 1_555 1_555
O28 H15 1_555 1_555
O29 H17 1_555 1_555
O30 H19 1_555 1_555
O31 H21 1_555 1_555
H14 O27 1_555 1_555
H16 O28 1_555 1_555
H18 O29 1_555 1_555
H20 O30 1_555 1_555
H22 O31 1_555 1_555
H23 C11 1_555 1_555
H24 C11 1_555 1_555
Ni3A O8 1_555 1_555
Ni4A O11 1_555 1_555
Ni4_2 O16 1_555 1_555
O8A Ni3 1_555 1_555
O11A Ni4 1_555 1_555
O16_2 Ni4 1_555 1_555
C4 C5 1_555 1_555
C7 C8 1_555 1_555
C9 C10 1_555 1_555
C11 C12 1_555 1_555
C19 C20 1_555 1_555
C21 C22 1_555 1_555
C23 C24 1_555 1_555

#END
