
#######################################################################
#
#                 Cambridge Crystallographic Data Centre
#                                CCDC 
#
#######################################################################
#
# If this CIF has been generated from an entry in the Cambridge 
# Structural Database, then it will include bibliographic, chemical, 
# crystal, experimental, refinement or atomic coordinate data resulting 
# from the CCDC's data processing and validation procedures.
#
#######################################################################

data_OVOBOR
_symmetry_cell_setting           triclinic
_symmetry_space_group_name_H-M   'P -1'
_symmetry_Int_Tables_number      2
_space_group_name_Hall           '-P 1'
loop_
_symmetry_equiv_pos_site_id
_symmetry_equiv_pos_as_xyz
1 x,y,z
2 -x,-y,-z
_cell_length_a                   13.4555(2)
_cell_length_b                   15.2340(2)
_cell_length_c                   17.7989(3)
_cell_angle_alpha                69.0525(5)
_cell_angle_beta                 89.3447(5)
_cell_angle_gamma                88.9214(11)
_cell_volume                     3406.66
loop_
_atom_site_label
_atom_site_type_symbol
_atom_site_fract_x
_atom_site_fract_y
_atom_site_fract_z
U1 U 0.98283(3) 0.40057(3) 0.45854(2)
O1 O 0.9742(6) 0.4808(6) 0.3588(4)
O2 O 0.9940(5) 0.3164(5) 0.5574(4)
O7 O 0.8038(5) 0.3717(4) 0.4594(3)
O8 O 0.3892(5) 0.2264(5) 0.5094(4)
O9 O 0.7778(5) 0.4016(4) 0.6380(4)
O10 O 0.3734(5) 0.2425(4) 0.6865(4)
O11 O 0.6962(5) 0.5981(5) 0.6611(5)
O12 O 0.2799(5) 0.4424(4) 0.7032(4)
O13 O 0.9035(5) 0.5006(5) 0.5142(4)
H1 H 0.8784 0.4634 0.5580
O14 O 1.1418(7) 0.3421(6) 0.4308(6)
H2 H 1.1929 0.3716 0.3925
H3 H 1.1609 0.2911 0.4617
O15 O 0.9507(7) 0.2680(6) 0.4137(6)
H4 H 0.9800 0.2615 0.3753
H5 H 0.9183 0.2212 0.4419
N1 N 0.6930(5) 0.3008(5) 0.4030(4)
N2 N 0.7162(5) 0.2416(5) 0.5335(4)
N3 N 0.5492(5) 0.1794(5) 0.5547(4)
N4 N 0.5229(6) 0.2413(5) 0.4236(4)
N5 N 0.6988(5) 0.2599(5) 0.6619(4)
N6 N 0.6641(5) 0.3426(5) 0.7395(4)
N7 N 0.4963(5) 0.2774(5) 0.7599(4)
N8 N 0.5366(5) 0.1897(5) 0.6870(4)
N9 N 0.5997(5) 0.4865(5) 0.7514(4)
N10 N 0.5370(5) 0.6294(5) 0.6915(4)
N11 N 0.3685(5) 0.5678(5) 0.7100(4)
N12 N 0.4325(5) 0.4235(5) 0.7665(4)
C1 C 0.7429(6) 0.3099(5) 0.4653(5)
C2 C 0.6274(7) 0.2197(6) 0.4282(5)
H16 H 0.6446 0.1753 0.4014
C3 C 0.6459(7) 0.1761(6) 0.5205(5)
H17 H 0.6731 0.1120 0.5370
C4 C 0.4780(7) 0.2165(6) 0.4975(5)
C5 C 0.7608(6) 0.2258(6) 0.6114(5)
H18 H 0.7733 0.1590 0.6385
H19 H 0.8243 0.2572 0.6033
C6 C 0.5229(7) 0.1334(6) 0.6389(5)
H20 H 0.4537 0.1153 0.6425
H21 H 0.5627 0.0763 0.6610
C7 C 0.7194(6) 0.3411(6) 0.6764(5)
C8 C 0.6299(6) 0.2007(6) 0.7208(5)
H22 H 0.6603 0.1398 0.7522
C9 C 0.6028(6) 0.2587(6) 0.7742(5)
H23 H 0.6176 0.2244 0.8311
C10 C 0.4592(7) 0.2376(6) 0.7084(5)
C11 C 0.6739(7) 0.4130(6) 0.7760(5)
H24 H 0.6706 0.3823 0.8340
H25 H 0.7390 0.4410 0.7626
C12 C 0.4331(7) 0.3227(6) 0.8010(5)
H26 H 0.4544 0.3034 0.8565
H27 H 0.3658 0.3010 0.8011
C13 C 0.6186(7) 0.5741(6) 0.6974(5)
C14 C 0.5025(6) 0.4807(6) 0.7884(5)
H28 H 0.5072 0.4627 0.8470
C15 C 0.4591(6) 0.5817(6) 0.7485(5)
H29 H 0.4454 0.6119 0.7878
C16 C 0.3532(6) 0.4744(6) 0.7242(5)
C17 C 0.4637(7) 0.2703(6) 0.3496(5)
H30 H 0.3960 0.2493 0.3630
H31 H 0.4908 0.2402 0.3140
C18 C 0.7086(6) 0.3618(6) 0.3185(5)
H32 H 0.7109 0.3236 0.2851
H33 H 0.7722 0.3924 0.3135
U1A U 0.01717(3) 0.59943(3) 0.54146(2)
U1A_2 U 1.01717(3) 0.59943(3) 0.54146(2)
O1A O 1.0258(6) 0.5192(6) 0.6412(4)
O2A O 1.0060(5) 0.6836(5) 0.4426(4)
O7A O 0.1962(5) 0.6283(4) 0.5406(3)
O7A_2 O 1.1962(5) 0.6283(4) 0.5406(3)
O8A O 0.6108(5) 0.7736(5) 0.4906(4)
O9A O 0.2222(5) 0.5984(4) 0.3620(4)
O10A O 0.6266(5) 0.7575(4) 0.3135(4)
O11A O 0.3038(5) 0.4019(5) 0.3389(5)
O12A O 0.7201(5) 0.5576(4) 0.2968(4)
O13A O 1.0965(5) 0.4994(5) 0.4858(4)
H1A H 1.1216 0.5366 0.4420
O14A O 0.8582(7) 0.6579(6) 0.5692(6)
H2A H 0.8071 0.6284 0.6075
H3A H 0.8391 0.7089 0.5383
O15A O 1.0493(7) 0.7320(6) 0.5863(6)
H4A H 1.0200 0.7385 0.6247
H5A H 1.0817 0.7788 0.5581
N1A N 0.3070(5) 0.6992(5) 0.5970(4)
N2A N 0.2838(5) 0.7584(5) 0.4665(4)
N3A N 0.4508(5) 0.8206(5) 0.4453(4)
N4A N 0.4771(6) 0.7587(5) 0.5764(4)
N5A N 0.3012(5) 0.7401(5) 0.3381(4)
N6A N 0.3359(5) 0.6574(5) 0.2605(4)
N7A N 0.5037(5) 0.7226(5) 0.2401(4)
N8A N 0.4634(5) 0.8103(5) 0.3130(4)
N9A N 0.4003(5) 0.5135(5) 0.2486(4)
N10A N 0.4630(5) 0.3706(5) 0.3085(4)
N11A N 0.6315(5) 0.4322(5) 0.2900(4)
N12A N 0.5675(5) 0.5765(5) 0.2335(4)
C1A C 0.2571(6) 0.6901(5) 0.5347(5)
C2A C 0.3726(7) 0.7803(6) 0.5718(5)
H16A H 0.3554 0.8247 0.5986
C3A C 0.3541(7) 0.8239(6) 0.4795(5)
H17A H 0.3269 0.8880 0.4630
C4A C 0.5220(7) 0.7835(6) 0.5025(5)
C5A C 0.2392(6) 0.7742(6) 0.3886(5)
H18A H 0.2267 0.8410 0.3615
H19A H 0.1757 0.7428 0.3967
C6A C 0.4771(7) 0.8666(6) 0.3611(5)
H20A H 0.5463 0.8847 0.3575
H21A H 0.4373 0.9237 0.3390
C7A C 0.2806(6) 0.6589(6) 0.3236(5)
C8A C 0.3701(6) 0.7993(6) 0.2792(5)
H22A H 0.3397 0.8602 0.2478
C9A C 0.3972(6) 0.7413(6) 0.2258(5)
H23A H 0.3824 0.7756 0.1689
C10A C 0.5408(7) 0.7624(6) 0.2916(5)
C11A C 0.3261(7) 0.5870(6) 0.2240(5)
H24A H 0.3294 0.6177 0.1660
H25A H 0.2610 0.5590 0.2374
C12A C 0.5669(7) 0.6773(6) 0.1990(5)
H26A H 0.5456 0.6966 0.1435
H27A H 0.6342 0.6990 0.1989
C13A C 0.3814(7) 0.4259(6) 0.3026(5)
C14A C 0.4975(6) 0.5193(6) 0.2116(5)
H28A H 0.4928 0.5373 0.1530
C15A C 0.5409(6) 0.4183(6) 0.2515(5)
H29A H 0.5546 0.3881 0.2122
C16A C 0.6468(6) 0.5256(6) 0.2758(5)
C17A C 0.5363(7) 0.7297(6) 0.6504(5)
H30A H 0.6040 0.7507 0.6370
H31A H 0.5092 0.7598 0.6860
C18A C 0.2914(6) 0.6382(6) 0.6815(5)
H32A H 0.2891 0.6764 0.7149
H33A H 0.2278 0.6076 0.6865
U2 U 0.52013(2) 0.07756(2) 0.062261(18)
O3 O 0.5306(5) 0.1759(4) -0.0276(4)
O4 O 0.5042(4) -0.0245(4) 0.1484(4)
O16 O 0.6987(4) 0.0804(4) 0.0833(3)
O17 O 1.1104(5) 0.0569(5) 0.2141(4)
O18 O 0.7841(4) 0.2380(4) -0.0949(4)
O19 O 1.1900(5) 0.2131(5) 0.0410(4)
O20 O 0.8748(5) 0.1692(5) -0.2404(4)
O21 O 1.2830(5) 0.1469(4) -0.1081(4)
O22 O 0.5973(4) -0.0202(4) 0.0020(3)
H6 H 0.6234 -0.0709 0.0467
O23 O 0.3673(5) 0.1352(5) 0.1020(4)
H7 H 0.3260 0.1720 0.0701
H8 H 0.3407 0.1125 0.1532
O24 O 0.5637(6) 0.2304(8) 0.1043(6)
O25 O 0.5582(7) 0.1068(6) 0.2040(8)
O26 O 0.6203(7) 0.2303(7) 0.2185(5)
N13 N 0.7821(5) 0.0222(5) 0.2039(4)
N14 N 0.8082(5) 0.1686(5) 0.1237(4)
N15 N 0.9747(5) 0.1588(5) 0.1769(4)
N16 N 0.9509(5) 0.0120(5) 0.2565(4)
N17 N 0.8695(5) 0.2814(5) -0.0020(4)
N18 N 0.9314(5) 0.3198(5) -0.1257(4)
N19 N 1.0967(5) 0.3042(5) -0.0690(4)
N20 N 1.0352(5) 0.2760(5) 0.0528(4)
N21 N 0.9987(5) 0.2656(5) -0.2287(4)
N22 N 1.0377(5) 0.1542(5) -0.2781(4)
N23 N 1.2013(5) 0.1415(5) -0.2199(4)
N24 N 1.1670(5) 0.2575(5) -0.1763(4)
N25 N 0.5809(7) 0.1912(7) 0.1769(7)
C19 C 0.7590(6) 0.0890(6) 0.1334(5)
C20 C 0.8533(7) 0.0540(6) 0.2499(5)
H34 H 0.8264 0.0501 0.3024
C21 C 0.8712(6) 0.1584(6) 0.1931(5)
H35 H 0.8525 0.2034 0.2189
C22 C 1.0208(7) 0.0741(6) 0.2157(5)
C23 C 0.7904(6) 0.2568(6) 0.0588(5)
H36 H 0.7836 0.3064 0.0809
H37 H 0.7281 0.2535 0.0331
C24 C 1.0322(7) 0.2446(6) 0.1391(5)
H38 H 1.0036 0.2943 0.1549
H39 H 1.0997 0.2331 0.1593
C25 C 0.8544(6) 0.2739(6) -0.0761(5)
C26 C 0.9572(6) 0.3313(6) 0.0011(5)
H40 H 0.9415 0.3884 0.0124
C27 C 1.0041(6) 0.3549(6) -0.0847(5)
H41 H 1.0137 0.4226 -0.1116
C28 C 1.1146(7) 0.2592(6) 0.0107(5)
C29 C 0.9356(7) 0.3324(7) -0.2100(5)
H42 H 0.8688 0.3280 -0.2282
H43 H 0.9589 0.3952 -0.2400
C30 C 1.1743(6) 0.3176(6) -0.1290(5)
H44 H 1.2381 0.3060 -0.1021
H45 H 1.1724 0.3826 -0.1651
C31 C 0.9604(7) 0.1928(6) -0.2479(5)
C32 C 1.1034(6) 0.2796(6) -0.2471(5)
H46 H 1.1167 0.3418 -0.2872
C33 C 1.1308(6) 0.1993(6) -0.2782(5)
H47 H 1.1601 0.2238 -0.3323
C34 C 1.2216(6) 0.1789(5) -0.1620(5)
C35 C 0.9764(7) -0.0826(6) 0.3111(5)
H48 H 0.9361 -0.0967 0.3595
H49 H 1.0454 -0.0840 0.3266
C36 C 0.7374(6) -0.0697(5) 0.2333(5)
H50 H 0.6740 -0.0661 0.2069
H51 H 0.7247 -0.0875 0.2906
U2A U 1.47987(2) -0.07756(2) -0.062261(18)
U2A_2 U 0.47987(2) -0.07756(2) -0.062261(18)
O3A O 1.4694(5) -0.1759(4) 0.0276(4)
O4A O 1.4958(4) 0.0245(4) -0.1484(4)
O16A O 1.3013(4) -0.0804(4) -0.0833(3)
O17A O 0.8896(5) -0.0569(5) -0.2141(4)
O18A O 1.2159(4) -0.2380(4) 0.0949(4)
O19A O 0.8100(5) -0.2131(5) -0.0410(4)
O20A O 1.1252(5) -0.1692(5) 0.2404(4)
O21A O 0.7170(5) -0.1469(4) 0.1081(4)
O22A O 0.4027(4) 0.0202(4) -0.0020(3)
O22A_2 O 1.4027(4) 0.0202(4) -0.0020(3)
O22_2 O 1.5973(4) -0.0202(4) 0.0020(3)
H6A H 0.3766 0.0709 -0.0467
H6A_2 H 1.3766 0.0709 -0.0467
H6_2 H 1.6234 -0.0709 0.0467
O23A O 1.6327(5) -0.1352(5) -0.1020(4)
H7A H 1.6740 -0.1720 -0.0701
H8A H 1.6593 -0.1125 -0.1532
O24A O 1.4363(6) -0.2304(8) -0.1043(6)
O25A O 1.4418(7) -0.1068(6) -0.2040(8)
O26A O 1.3797(7) -0.2303(7) -0.2185(5)
N13A N 1.2179(5) -0.0222(5) -0.2039(4)
N14A N 1.1918(5) -0.1686(5) -0.1237(4)
N15A N 1.0253(5) -0.1588(5) -0.1769(4)
N16A N 1.0491(5) -0.0120(5) -0.2565(4)
N17A N 1.1305(5) -0.2814(5) 0.0020(4)
N18A N 1.0686(5) -0.3198(5) 0.1257(4)
N19A N 0.9033(5) -0.3042(5) 0.0690(4)
N20A N 0.9648(5) -0.2760(5) -0.0528(4)
N21A N 1.0013(5) -0.2656(5) 0.2287(4)
N22A N 0.9623(5) -0.1542(5) 0.2781(4)
N23A N 0.7987(5) -0.1415(5) 0.2199(4)
N24A N 0.8330(5) -0.2575(5) 0.1763(4)
N25A N 1.4191(7) -0.1912(7) -0.1769(7)
C19A C 1.2410(6) -0.0890(6) -0.1334(5)
C20A C 1.1467(7) -0.0540(6) -0.2499(5)
H34A H 1.1736 -0.0501 -0.3024
C21A C 1.1288(6) -0.1584(6) -0.1931(5)
H35A H 1.1475 -0.2034 -0.2189
C22A C 0.9792(7) -0.0741(6) -0.2157(5)
C23A C 1.2096(6) -0.2568(6) -0.0588(5)
H36A H 1.2164 -0.3064 -0.0809
H37A H 1.2719 -0.2535 -0.0331
C24A C 0.9678(7) -0.2446(6) -0.1391(5)
H38A H 0.9964 -0.2943 -0.1549
H39A H 0.9003 -0.2331 -0.1593
C25A C 1.1456(6) -0.2739(6) 0.0761(5)
C26A C 1.0428(6) -0.3313(6) -0.0011(5)
H40A H 1.0585 -0.3884 -0.0124
C27A C 0.9959(6) -0.3549(6) 0.0847(5)
H41A H 0.9863 -0.4226 0.1116
C28A C 0.8854(7) -0.2592(6) -0.0107(5)
C29A C 1.0644(7) -0.3324(7) 0.2100(5)
H42A H 1.1312 -0.3280 0.2282
H43A H 1.0411 -0.3952 0.2400
C30A C 0.8257(6) -0.3176(6) 0.1290(5)
H44A H 0.7619 -0.3060 0.1021
H45A H 0.8276 -0.3826 0.1651
C31A C 1.0396(7) -0.1928(6) 0.2479(5)
C32A C 0.8966(6) -0.2796(6) 0.2471(5)
H46A H 0.8833 -0.3418 0.2872
C33A C 0.8692(6) -0.1993(6) 0.2782(5)
H47A H 0.8399 -0.2238 0.3323
C34A C 0.7784(6) -0.1789(5) 0.1620(5)
C35A C 1.0236(7) 0.0826(6) -0.3111(5)
H48A H 1.0639 0.0967 -0.3595
H49A H 0.9546 0.0840 -0.3266
C36A C 1.2626(6) 0.0697(5) -0.2333(5)
H50A H 1.3260 0.0661 -0.2069
H51A H 1.2753 0.0875 -0.2906
U3 U 0.36249(2) 0.45956(2) 0.018699(18)
O5 O 0.3814(5) 0.3721(5) -0.0250(4)
O6 O 0.3353(5) 0.5474(5) 0.0606(4)
O27 O 0.3810(5) 0.3362(5) 0.1588(4)
O28 O 0.2299(5) 0.3650(5) 0.1164(4)
O29 O 0.2591(6) 0.2610(5) 0.2353(4)
O30 O 0.1806(5) 0.4762(5) -0.0299(4)
O31 O 0.2866(5) 0.5563(5) -0.1162(4)
O32 O 0.1308(5) 0.5627(5) -0.1495(4)
O33 O 0.5253(4) 0.4346(5) 0.0656(3)
H9 H 0.5488 0.3856 0.0830
N26 N 0.2877(6) 0.3185(6) 0.1729(5)
N27 N 0.1966(6) 0.5326(5) -0.1006(5)
U3A U 0.63751(2) 0.54044(2) -0.018699(18)
O5A O 0.6186(5) 0.6279(5) 0.0250(4)
O6A O 0.6647(5) 0.4526(5) -0.0606(4)
O27A O 0.6190(5) 0.6638(5) -0.1588(4)
O28A O 0.7701(5) 0.6350(5) -0.1164(4)
O29A O 0.7409(6) 0.7390(5) -0.2353(4)
O30A O 0.8194(5) 0.5238(5) 0.0299(4)
O31A O 0.7134(5) 0.4437(5) 0.1162(4)
O32A O 0.8692(5) 0.4373(5) 0.1495(4)
O33A O 0.4747(4) 0.5654(5) -0.0656(3)
H9A H 0.4512 0.6144 -0.0830
N26A N 0.7123(6) 0.6815(6) -0.1729(5)
N27A N 0.8034(6) 0.4674(5) 0.1006(5)
Cs1 Cs 0.69541(8) 0.59040(7) 0.46012(6)
Cs2 Cs 0.79832(5) 0.02580(5) -0.08182(4)
O36 O 1.0837(14) -0.0491(13) 0.5718(11)
O37 O 1.1198(11) -0.1037(9) 0.4802(8)
O38 O 1.1644(12) 0.0449(9) 0.4576(9)
N28 N 1.1289(12) -0.0410(11) 0.5030(10)
O39 O 1.1966(7) 0.1743(7) 0.5305(6)
H10 H 1.2629 0.1680 0.5392
H11 H 1.1671 0.1314 0.5062
O40 O 1.0724(8) 0.1975(8) 0.3266(6)
O41 O 0.3053(6) 0.0425(6) 0.2508(5)
H12 H 0.2439 0.0495 0.2493
H13 H 0.3259 0.0885 0.2734
O42 O 1.3620(15) 0.0645(10) 0.3952(10)
H14 H 1.3293 0.0669 0.4407
H15 H 1.4219 0.0510 0.4086
O43 O 1.5000 0.0000 0.5000
O44 O 0.6481(15) 0.0281(13) 0.3683(12)
O34? O 0.4917(17) 0.531(3) 0.535(3)
O35? O 0.978(3) 0.004(3) 0.029(2)
O45? O 0.477(2) 0.542(3) 0.474(3)
O46? O -0.012(3) -0.065(3) 0.029(3)
loop_
_geom_bond_atom_site_label_1
_geom_bond_atom_site_label_2
_geom_bond_site_symmetry_1
_geom_bond_site_symmetry_2
U1 O1 1_555 1_555
U2 O3 1_555 1_555
U3 O5 1_555 1_555
O2 U1 1_555 1_555
O4 U2 1_555 1_555
O6 U3 1_555 1_555
O7 U1 1_555 1_555
O8 C4 1_555 1_555
O9 C7 1_555 1_555
O10 C10 1_555 1_555
O11 C13 1_555 1_555
O12 C16 1_555 1_555
O13 U1 1_555 1_555
H1 O13 1_555 1_555
O14 U1 1_555 1_555
H2 O14 1_555 1_555
H3 O14 1_555 1_555
O15 U1 1_555 1_555
H4 O15 1_555 1_555
H5 O15 1_555 1_555
O16 U2 1_555 1_555
O17 C22 1_555 1_555
O18 C25 1_555 1_555
O19 C28 1_555 1_555
O20 C31 1_555 1_555
O21 C34 1_555 1_555
O22 U2 1_555 1_555
H6 O22 1_555 1_555
O23 U2 1_555 1_555
H7 O23 1_555 1_555
H8 O23 1_555 1_555
O24 U2 1_555 1_555
O25 U2 1_555 1_555
O26 N25 1_555 1_555
O27 U3 1_555 1_555
O28 U3 1_555 1_555
O29 N26 1_555 1_555
O30 U3 1_555 1_555
O31 U3 1_555 1_555
O32 N27 1_555 1_555
O33 U3 1_555 1_555
H9 O33 1_555 1_555
O36 N28 1_555 1_555
O37 N28 1_555 1_555
O38 N28 1_555 1_555
O39 H10 1_555 1_555
H11 O39 1_555 1_555
O41 H12 1_555 1_555
H13 O41 1_555 1_555
O42 H14 1_555 1_555
H15 O42 1_555 1_555
N1 C1 1_555 1_555
N2 C1 1_555 1_555
N3 C3 1_555 1_555
N4 C2 1_555 1_555
N5 C5 1_555 1_555
N6 C7 1_555 1_555
N7 C9 1_555 1_555
N8 C6 1_555 1_555
N9 C11 1_555 1_555
N10 C13 1_555 1_555
N11 C15 1_555 1_555
N12 C12 1_555 1_555
N13 C19 1_555 1_555
N14 C19 1_555 1_555
N15 C21 1_555 1_555
N16 C20 1_555 1_555
N17 C23 1_555 1_555
N18 C25 1_555 1_555
N19 C27 1_555 1_555
N20 C24 1_555 1_555
N21 C29 1_555 1_555
N22 C31 1_555 1_555
N23 C33 1_555 1_555
N24 C30 1_555 1_555
N25 O24 1_555 1_555
N26 O27 1_555 1_555
N27 O30 1_555 1_555
C1 O7 1_555 1_555
C2 N1 1_555 1_555
H16 C2 1_555 1_555
C3 N2 1_555 1_555
H17 C3 1_555 1_555
C4 N3 1_555 1_555
C5 N2 1_555 1_555
H18 C5 1_555 1_555
H19 C5 1_555 1_555
C6 N3 1_555 1_555
H20 C6 1_555 1_555
H21 C6 1_555 1_555
C7 N5 1_555 1_555
C8 N5 1_555 1_555
H22 C8 1_555 1_555
C9 N6 1_555 1_555
H23 C9 1_555 1_555
C10 N7 1_555 1_555
C11 N6 1_555 1_555
H24 C11 1_555 1_555
H25 C11 1_555 1_555
C12 N7 1_555 1_555
H26 C12 1_555 1_555
H27 C12 1_555 1_555
C13 N9 1_555 1_555
C14 N9 1_555 1_555
H28 C14 1_555 1_555
C15 N10 1_555 1_555
H29 C15 1_555 1_555
C16 N11 1_555 1_555
C17 N4 1_555 1_555
H30 C17 1_555 1_555
H31 C17 1_555 1_555
C18 N1 1_555 1_555
H32 C18 1_555 1_555
H33 C18 1_555 1_555
C19 O16 1_555 1_555
C20 N13 1_555 1_555
H34 C20 1_555 1_555
C21 N14 1_555 1_555
H35 C21 1_555 1_555
C22 N15 1_555 1_555
C23 N14 1_555 1_555
H36 C23 1_555 1_555
H37 C23 1_555 1_555
C24 N15 1_555 1_555
H38 C24 1_555 1_555
H39 C24 1_555 1_555
C25 N17 1_555 1_555
C26 N17 1_555 1_555
H40 C26 1_555 1_555
C27 N18 1_555 1_555
H41 C27 1_555 1_555
C28 N19 1_555 1_555
C29 N18 1_555 1_555
H42 C29 1_555 1_555
H43 C29 1_555 1_555
C30 N19 1_555 1_555
H44 C30 1_555 1_555
H45 C30 1_555 1_555
C31 N21 1_555 1_555
C32 N21 1_555 1_555
H46 C32 1_555 1_555
C33 N22 1_555 1_555
H47 C33 1_555 1_555
C34 N23 1_555 1_555
C35 N16 1_555 1_555
H48 C35 1_555 1_555
H49 C35 1_555 1_555
C36 N13 1_555 1_555
H50 C36 1_555 1_555
H51 C36 1_555 1_555
U1A O7A 1_555 1_555
U1A_2 O13 1_555 1_555
U2A O3A 1_555 1_555
U2A_2 O22 1_555 1_555
U3A O33 1_555 1_555
O1A U1A_2 1_555 1_555
O2A U1A_2 1_555 1_555
O4A U2A 1_555 1_555
O5A U3A 1_555 1_555
O6A U3A 1_555 1_555
O7A C1A 1_555 1_555
O7A_2 U1A_2 1_555 1_555
O8A C4A 1_555 1_555
O9A C7A 1_555 1_555
O10A C10A 1_555 1_555
O11A C13A 1_555 1_555
O12A C16A 1_555 1_555
O13A U1 1_555 1_555
H1A O13A 1_555 1_555
O14A U1A_2 1_555 1_555
H2A O14A 1_555 1_555
H3A O14A 1_555 1_555
O15A U1A_2 1_555 1_555
H4A O15A 1_555 1_555
H5A O15A 1_555 1_555
O16A U2A 1_555 1_555
O17A C22A 1_555 1_555
O18A C25A 1_555 1_555
O19A C28A 1_555 1_555
O20A C31A 1_555 1_555
O21A C34A 1_555 1_555
O22A U2 1_555 1_555
O22A_2 U2A 1_555 1_555
O22_2 U2A 1_555 1_555
H6A O22A 1_555 1_555
H6A_2 O22A_2 1_555 1_555
H6_2 O22_2 1_555 1_555
O23A U2A 1_555 1_555
H7A O23A 1_555 1_555
H8A O23A 1_555 1_555
O24A U2A 1_555 1_555
O25A U2A 1_555 1_555
O26A N25A 1_555 1_555
O27A U3A 1_555 1_555
O28A U3A 1_555 1_555
O29A N26A 1_555 1_555
O30A U3A 1_555 1_555
O31A U3A 1_555 1_555
O32A N27A 1_555 1_555
O33A U3 1_555 1_555
H9A O33A 1_555 1_555
N1A C1A 1_555 1_555
N2A C1A 1_555 1_555
N3A C3A 1_555 1_555
N4A C2A 1_555 1_555
N5A C5A 1_555 1_555
N6A C7A 1_555 1_555
N7A C9A 1_555 1_555
N8A C6A 1_555 1_555
N9A C11A 1_555 1_555
N10A C17 1_555 1_555
N11A C18 1_555 1_555
N12A C12A 1_555 1_555
N13A C19A 1_555 1_555
N14A C19A 1_555 1_555
N15A C21A 1_555 1_555
N16A C20A 1_555 1_555
N17A C23A 1_555 1_555
N18A C25A 1_555 1_555
N19A C27A 1_555 1_555
N20A C24A 1_555 1_555
N21A C29A 1_555 1_555
N22A C35 1_555 1_555
N23A C36 1_555 1_555
N24A C30A 1_555 1_555
N25A O24A 1_555 1_555
N26A O27A 1_555 1_555
N27A O30A 1_555 1_555
C2A N1A 1_555 1_555
H16A C2A 1_555 1_555
C3A N2A 1_555 1_555
H17A C3A 1_555 1_555
C4A N3A 1_555 1_555
C5A N2A 1_555 1_555
H18A C5A 1_555 1_555
H19A C5A 1_555 1_555
C6A N3A 1_555 1_555
H20A C6A 1_555 1_555
H21A C6A 1_555 1_555
C7A N5A 1_555 1_555
C8A N5A 1_555 1_555
H22A C8A 1_555 1_555
C9A N6A 1_555 1_555
H23A C9A 1_555 1_555
C10A N7A 1_555 1_555
C11A N6A 1_555 1_555
H24A C11A 1_555 1_555
H25A C11A 1_555 1_555
C12A N7A 1_555 1_555
H26A C12A 1_555 1_555
H27A C12A 1_555 1_555
C13A N9A 1_555 1_555
C14A N9A 1_555 1_555
H28A C14A 1_555 1_555
C15A N10A 1_555 1_555
H29A C15A 1_555 1_555
C16A N11A 1_555 1_555
C17A N10 1_555 1_555
H30A C17A 1_555 1_555
H31A C17A 1_555 1_555
C18A N11 1_555 1_555
H32A C18A 1_555 1_555
H33A C18A 1_555 1_555
C19A O16A 1_555 1_555
C20A N13A 1_555 1_555
H34A C20A 1_555 1_555
C21A N14A 1_555 1_555
H35A C21A 1_555 1_555
C22A N15A 1_555 1_555
C23A N14A 1_555 1_555
H36A C23A 1_555 1_555
H37A C23A 1_555 1_555
C24A N15A 1_555 1_555
H38A C24A 1_555 1_555
H39A C24A 1_555 1_555
C25A N17A 1_555 1_555
C26A N17A 1_555 1_555
H40A C26A 1_555 1_555
C27A N18A 1_555 1_555
H41A C27A 1_555 1_555
C28A N19A 1_555 1_555
C29A N18A 1_555 1_555
H42A C29A 1_555 1_555
H43A C29A 1_555 1_555
C30A N19A 1_555 1_555
H44A C30A 1_555 1_555
H45A C30A 1_555 1_555
C31A N21A 1_555 1_555
C32A N21A 1_555 1_555
H46A C32A 1_555 1_555
C33A N22A 1_555 1_555
H47A C33A 1_555 1_555
C34A N23A 1_555 1_555
C35A N22 1_555 1_555
H48A C35A 1_555 1_555
H49A C35A 1_555 1_555
C36A N23 1_555 1_555
H50A C36A 1_555 1_555
H51A C36A 1_555 1_555
O25 N25 1_555 1_555
O28 N26 1_555 1_555
O31 N27 1_555 1_555
N4 C4 1_555 1_555
N8 C8 1_555 1_555
N8 C10 1_555 1_555
N12 C14 1_555 1_555
N12 C16 1_555 1_555
N16 C22 1_555 1_555
N20 C26 1_555 1_555
N20 C28 1_555 1_555
N24 C32 1_555 1_555
N24 C34 1_555 1_555
C2 C3 1_555 1_555
C8 C9 1_555 1_555
C14 C15 1_555 1_555
C20 C21 1_555 1_555
C26 C27 1_555 1_555
C32 C33 1_555 1_555
U1A_2 O13A 1_555 1_555
U2A_2 O22A 1_555 1_555
U3A O33A 1_555 1_555
O25A N25A 1_555 1_555
O28A N26A 1_555 1_555
O31A N27A 1_555 1_555
N1A C18A 1_555 1_555
N4A C4A 1_555 1_555
N4A C17A 1_555 1_555
N8A C8A 1_555 1_555
N8A C10A 1_555 1_555
N10A C13A 1_555 1_555
N11A C15A 1_555 1_555
N12A C14A 1_555 1_555
N12A C16A 1_555 1_555
N13A C36A 1_555 1_555
N16A C22A 1_555 1_555
N16A C35A 1_555 1_555
N20A C26A 1_555 1_555
N20A C28A 1_555 1_555
N22A C31A 1_555 1_555
N23A C33A 1_555 1_555
N24A C32A 1_555 1_555
N24A C34A 1_555 1_555
C2A C3A 1_555 1_555
C8A C9A 1_555 1_555
C14A C15A 1_555 1_555
C20A C21A 1_555 1_555
C26A C27A 1_555 1_555
C32A C33A 1_555 1_555

#END
