
#######################################################################
#
#                 Cambridge Crystallographic Data Centre
#                                CCDC 
#
#######################################################################
#
# If this CIF has been generated from an entry in the Cambridge 
# Structural Database, then it will include bibliographic, chemical, 
# crystal, experimental, refinement or atomic coordinate data resulting 
# from the CCDC's data processing and validation procedures.
#
#######################################################################

data_OVOCAE
_symmetry_cell_setting           monoclinic
_symmetry_space_group_name_H-M   'P 21/n'
_symmetry_Int_Tables_number      14
_space_group_name_Hall           '-P 2yn'
loop_
_symmetry_equiv_pos_site_id
_symmetry_equiv_pos_as_xyz
1 x,y,z
2 1/2-x,1/2+y,1/2-z
3 -x,-y,-z
4 1/2+x,1/2-y,1/2+z
_cell_length_a                   15.4467(5)
_cell_length_b                   15.8288(3)
_cell_length_c                   16.1585(5)
_cell_angle_alpha                90
_cell_angle_beta                 113.284(2)
_cell_angle_gamma                90
_cell_volume                     3629.03
loop_
_atom_site_label
_atom_site_type_symbol
_atom_site_fract_x
_atom_site_fract_y
_atom_site_fract_z
U1 U 0.917173(7) 0.565535(6) 0.786370(7)
S1 S 0.70949(5) 0.54394(5) 0.57914(5)
S2 S 0.44991(5) 0.79033(5) 0.46550(5)
O1 O 0.96185(14) 0.61979(13) 0.71593(14)
O2 O 0.88010(14) 0.50734(13) 0.85986(14)
O3 O 0.79767(13) 0.66024(12) 0.75083(13)
O4 O 0.72437(14) 0.81084(13) 0.77195(13)
H1 H 0.7754 0.7786 0.8130
O5 O 0.78174(14) 0.51057(13) 0.66346(13)
O6 O 0.63085(15) 0.48686(14) 0.54197(15)
O7 O 0.75145(17) 0.56950(14) 0.51649(16)
O8 O 0.48514(14) 0.82777(13) 0.40034(14)
O9 O 0.41052(14) 0.85364(14) 0.50528(14)
O10 O 0.38833(14) 0.71913(13) 0.42411(14)
O11 O 0.95342(15) 0.43379(12) 0.72649(15)
H2 H 0.9048 0.4082 0.6753
H3 H 0.9976 0.4374 0.6995
O12 O 1.07851(14) 0.52205(14) 0.87451(14)
H4 H 1.1046 0.5167 0.9293
H5 H 1.1368 0.5345 0.8642
C1 C 0.71734(19) 0.68446(18) 0.68604(18)
C2 C 0.67960(19) 0.76416(18) 0.69558(18)
C3 C 0.60003(19) 0.79695(18) 0.62894(19)
H14 H 0.5793 0.8510 0.6345
C4 C 0.55081(19) 0.74802(18) 0.55268(18)
C5 C 0.5816(2) 0.66830(18) 0.54316(18)
H15 H 0.5462 0.6350 0.4940
C6 C 0.6667(2) 0.63763(18) 0.60790(19)
U1C U 1.417173(7) 0.934465(6) 1.286370(7)
U1C_2 U 0.417173(7) 0.934465(6) 0.286370(7)
S1C S 1.20949(5) 0.95606(5) 1.07914(5)
S2C S 0.94991(5) 0.70967(5) 0.96550(5)
O1C O 1.46185(14) 0.88021(13) 1.21593(14)
O2C O 1.38010(14) 0.99266(13) 1.35986(14)
O3C O 1.29767(13) 0.83976(12) 1.25083(13)
O4C O 1.22437(14) 0.68916(13) 1.27195(13)
H1C H 1.2754 0.7214 1.3130
O5C O 1.28174(14) 0.98943(13) 1.16346(13)
O6C O 1.13085(15) 1.01314(14) 1.04197(15)
O7C O 1.25145(17) 0.93050(14) 1.01649(16)
O8C O 0.98514(14) 0.67223(13) 0.90034(14)
O8_2 O 1.48514(14) 0.82777(13) 1.40034(14)
O9C O 0.91052(14) 0.64636(14) 1.00528(14)
O10C O 0.88833(14) 0.78087(13) 0.92411(14)
O11C O 1.45342(15) 1.06621(12) 1.22649(15)
H2C H 1.4048 1.0918 1.1753
H3C H 1.4976 1.0626 1.1995
O12C O 1.57851(14) 0.97795(14) 1.37451(14)
H4C H 1.6046 0.9833 1.4293
H5C H 1.6368 0.9655 1.3642
C1C C 1.21734(19) 0.81554(18) 1.18604(18)
C2C C 1.17960(19) 0.73584(18) 1.19558(18)
C3C C 1.10003(19) 0.70305(18) 1.12894(19)
H14C H 1.0793 0.6490 1.1345
C4C C 1.05081(19) 0.75198(18) 1.05268(18)
C5C C 1.0816(2) 0.83170(18) 1.04316(18)
H15C H 1.0462 0.8650 0.9940
C6C C 1.1667(2) 0.86237(18) 1.10790(19)
Na1 Na 0.25409(9) 0.88786(8) 0.48466(9)
O13 O 0.13850(14) 0.86306(13) 0.34312(14)
O14 O -0.22046(15) 1.05182(13) 0.20988(15)
O15 O 0.26034(14) 1.03709(14) 0.46409(14)
O16 O -0.11129(14) 1.22403(13) 0.33155(14)
O17 O 0.29041(15) 1.07842(13) 0.68040(15)
O18 O -0.06797(14) 1.29683(15) 0.57158(15)
N1 N -0.01138(17) 0.85181(16) 0.23231(16)
N2 N 0.06710(16) 0.97187(16) 0.24450(16)
N3 N -0.08102(17) 1.04946(15) 0.19036(17)
N4 N -0.16052(17) 0.92992(14) 0.17475(17)
N5 N 0.14537(17) 1.09314(16) 0.33448(16)
N6 N 0.20345(16) 1.17407(15) 0.45619(16)
N7 N 0.04987(16) 1.24167(15) 0.40900(16)
N8 N -0.00265(16) 1.17171(15) 0.27978(16)
N9 N 0.22829(16) 1.20527(15) 0.61140(16)
N10 N 0.20489(16) 1.16630(15) 0.73243(16)
N11 N 0.06595(17) 1.25641(16) 0.69308(17)
N12 N 0.07496(16) 1.27757(16) 0.56103(16)
C7 C 0.0716(2) 0.89302(19) 0.28043(19)
C8 C -0.0769(2) 0.90373(18) 0.16091(19)
H16 H -0.0932 0.8778 0.1016
C9 C -0.0217(2) 0.98837(18) 0.16980(19)
H17 H -0.0133 1.0026 0.1144
C10 C -0.1597(2) 1.01404(19) 0.19380(18)
C11 C 0.14668(19) 1.02797(19) 0.27214(19)
H18 H 0.1490 1.0547 0.2190
H19 H 0.2038 0.9949 0.3001
C12 C -0.0681(2) 1.13992(18) 0.1941(2)
H20 H -0.1288 1.1667 0.1800
H21 H -0.0462 1.1564 0.1479
C13 C 0.2081(2) 1.09546(19) 0.4230(2)
C14 C 0.09861(19) 1.17353(18) 0.30509(19)
H22 H 0.1149 1.1990 0.2579
C15 C 0.13398(19) 1.22785(18) 0.39169(18)
H23 H 0.1616 1.2812 0.3832
C16 C -0.0302(2) 1.21301(18) 0.33909(19)
C17 C 0.26717(19) 1.20441(19) 0.54333(18)
H24 H 0.2866 1.2613 0.5364
H25 H 0.3231 1.1691 0.5643
C18 C 0.0457(2) 1.30772(19) 0.46948(18)
H26 H 0.0861 1.3541 0.4681
H27 H -0.0183 1.3290 0.4489
C19 C 0.2455(2) 1.14374(18) 0.67505(19)
C20 C 0.17381(19) 1.27438(18) 0.62418(19)
H28 H 0.2054 1.3288 0.6279
C21 C 0.1661(2) 1.25143(18) 0.71450(19)
H29 H 0.2020 1.2907 0.7628
C22 C 0.0163(2) 1.27769(18) 0.6051(2)
C23 C -0.23128(19) 0.87297(19) 0.17944(19)
H30 H -0.2897 0.9039 0.1650
H31 H -0.2426 0.8291 0.1345
C24 C -0.0234(2) 0.76292(19) 0.2444(2)
H32 H 0.0378 0.7358 0.2651
H33 H -0.0621 0.7387 0.1863
O13B O -0.13850(14) 1.13694(13) 0.65688(14)
O14B O 0.22046(15) 0.94818(13) 0.79012(15)
O15B O -0.26034(14) 0.96291(14) 0.53591(14)
O16B O 0.11129(14) 0.77597(13) 0.66845(14)
O17B O -0.29041(15) 0.92158(13) 0.31960(15)
O18B O 0.06797(14) 0.70317(15) 0.42842(15)
N1B N 0.01138(17) 1.14819(16) 0.76769(16)
N2B N -0.06710(16) 1.02813(16) 0.75550(16)
N3B N 0.08102(17) 0.95054(15) 0.80964(17)
N4B N 0.16052(17) 1.07008(14) 0.82525(17)
N5B N -0.14537(17) 0.90686(16) 0.66552(16)
N6B N -0.20345(16) 0.82593(15) 0.54381(16)
N7B N -0.04987(16) 0.75833(15) 0.59100(16)
N8B N 0.00265(16) 0.82829(15) 0.72022(16)
N9B N -0.22829(16) 0.79473(15) 0.38860(16)
N10B N -0.20489(16) 0.83370(15) 0.26757(16)
N11B N -0.06595(17) 0.74359(16) 0.30692(17)
N12B N -0.07496(16) 0.72243(16) 0.43897(16)
C7B C -0.0716(2) 1.10698(19) 0.71957(19)
C8B C 0.0769(2) 1.09627(18) 0.83909(19)
H16B H 0.0932 1.1222 0.8984
C9B C 0.0217(2) 1.01163(18) 0.83020(19)
H17B H 0.0133 0.9974 0.8856
C10B C 0.1597(2) 0.98596(19) 0.80620(18)
C11B C -0.14668(19) 0.97203(19) 0.72786(19)
H18B H -0.1490 0.9453 0.7810
H19B H -0.2038 1.0051 0.6999
C12B C 0.0681(2) 0.86008(18) 0.8059(2)
H20B H 0.1288 0.8333 0.8200
H21B H 0.0462 0.8436 0.8521
C13B C -0.2081(2) 0.90454(19) 0.5770(2)
C14B C -0.09861(19) 0.82647(18) 0.69491(19)
H22B H -0.1149 0.8010 0.7421
C15B C -0.13398(19) 0.77215(18) 0.60831(18)
H23B H -0.1616 0.7188 0.6168
C16B C 0.0302(2) 0.78699(18) 0.66091(19)
C17B C -0.26717(19) 0.79559(19) 0.45667(18)
H24B H -0.2866 0.7387 0.4636
H25B H -0.3231 0.8309 0.4357
C18B C -0.0457(2) 0.69228(19) 0.53052(18)
H26B H -0.0861 0.6459 0.5319
H27B H 0.0183 0.6710 0.5511
C19B C -0.2455(2) 0.85626(18) 0.32495(19)
C20B C -0.17381(19) 0.72562(18) 0.37582(19)
H28B H -0.2054 0.6712 0.3721
C21B C -0.1661(2) 0.74857(18) 0.28550(19)
H29B H -0.2020 0.7093 0.2372
C22B C -0.0163(2) 0.72231(18) 0.3949(2)
C23B C 0.23128(19) 1.12703(19) 0.82056(19)
H30B H 0.2897 1.0961 0.8350
H31B H 0.2426 1.1709 0.8655
C24B C 0.0234(2) 1.23708(19) 0.7556(2)
H32B H -0.0378 1.2642 0.7349
H33B H 0.0621 1.2613 0.8137
O19 O 0.25482(16) 0.73877(16) 0.50564(16)
H6 H 0.2848 0.7115 0.4801
H7 H 0.1915 0.7149 0.4760
O20 O 0.2053(2) 0.90520(19) 0.60139(19)
H8 H 0.2101 0.9392 0.6387
H9 H 0.1839 0.8690 0.6248
O21 O 0.89476(16) 0.46832(15) 0.49349(15)
H10 H 0.8497 0.4945 0.4959
H11 H 0.8960 0.4168 0.5141
O22 O 1.08086(16) 0.45407(15) 0.65753(16)
H12 H 1.1411 0.4758 0.6815
H13 H 1.0613 0.4745 0.6120
loop_
_geom_bond_atom_site_label_1
_geom_bond_atom_site_label_2
_geom_bond_site_symmetry_1
_geom_bond_site_symmetry_2
U1 O1 1_555 1_555
S1 O5 1_555 1_555
S2 O8 1_555 1_555
O2 U1 1_555 1_555
O3 U1 1_555 1_555
O4 H1 1_555 1_555
O5 U1 1_555 1_555
O6 S1 1_555 1_555
O7 S1 1_555 1_555
O8 U1C_2 1_555 1_555
O9 S2 1_555 1_555
O10 S2 1_555 1_555
O11 U1 1_555 1_555
H2 O11 1_555 1_555
H3 O11 1_555 1_555
O12 U1 1_555 1_555
H4 O12 1_555 1_555
H5 O12 1_555 1_555
O13 C7 1_555 1_555
O14 C10 1_555 1_555
O15 C13 1_555 1_555
O16 C16 1_555 1_555
O17 C19 1_555 1_555
O18 C22 1_555 1_555
O19 H6 1_555 1_555
H7 O19 1_555 1_555
O20 H8 1_555 1_555
H9 O20 1_555 1_555
O21 H10 1_555 1_555
H11 O21 1_555 1_555
O22 H12 1_555 1_555
H13 O22 1_555 1_555
N1 C7 1_555 1_555
N2 C7 1_555 1_555
N3 C9 1_555 1_555
N4 C8 1_555 1_555
N5 C11 1_555 1_555
N6 C13 1_555 1_555
N7 C15 1_555 1_555
N8 C12 1_555 1_555
N9 C17 1_555 1_555
N10 C19 1_555 1_555
N11 C21 1_555 1_555
N12 C18 1_555 1_555
C1 O3 1_555 1_555
C2 O4 1_555 1_555
C3 C2 1_555 1_555
H14 C3 1_555 1_555
C4 S2 1_555 1_555
C5 C4 1_555 1_555
H15 C5 1_555 1_555
C6 S1 1_555 1_555
C8 N1 1_555 1_555
H16 C8 1_555 1_555
C9 N2 1_555 1_555
H17 C9 1_555 1_555
C10 N3 1_555 1_555
C11 N2 1_555 1_555
H18 C11 1_555 1_555
H19 C11 1_555 1_555
C12 N3 1_555 1_555
H20 C12 1_555 1_555
H21 C12 1_555 1_555
C13 N5 1_555 1_555
C14 N5 1_555 1_555
H22 C14 1_555 1_555
C15 N6 1_555 1_555
H23 C15 1_555 1_555
C16 N7 1_555 1_555
C17 N6 1_555 1_555
H24 C17 1_555 1_555
H25 C17 1_555 1_555
C18 N7 1_555 1_555
H26 C18 1_555 1_555
H27 C18 1_555 1_555
C19 N9 1_555 1_555
C20 N9 1_555 1_555
H28 C20 1_555 1_555
C21 N10 1_555 1_555
H29 C21 1_555 1_555
C22 N11 1_555 1_555
C23 N4 1_555 1_555
H30 C23 1_555 1_555
H31 C23 1_555 1_555
C24 N1 1_555 1_555
H32 C24 1_555 1_555
H33 C24 1_555 1_555
U1C O1C 1_555 1_555
S1C O5C 1_555 1_555
S2C O8C 1_555 1_555
O2C U1C 1_555 1_555
O3C U1C 1_555 1_555
O4C H1C 1_555 1_555
O5C U1C 1_555 1_555
O6C S1C 1_555 1_555
O7C S1C 1_555 1_555
O8C U1 1_555 1_555
O8_2 U1C 1_555 1_555
O9C S2C 1_555 1_555
O10C S2C 1_555 1_555
O11C U1C 1_555 1_555
H2C O11C 1_555 1_555
H3C O11C 1_555 1_555
O12C U1C 1_555 1_555
H4C O12C 1_555 1_555
H5C O12C 1_555 1_555
O13B C7B 1_555 1_555
O14B C10B 1_555 1_555
O15B C13B 1_555 1_555
O16B C16B 1_555 1_555
O17B C19B 1_555 1_555
O18B C22B 1_555 1_555
N1B C7B 1_555 1_555
N2B C7B 1_555 1_555
N3B C9B 1_555 1_555
N4B C8B 1_555 1_555
N5B C11B 1_555 1_555
N6B C13B 1_555 1_555
N7B C15B 1_555 1_555
N8B C12B 1_555 1_555
N9B C17B 1_555 1_555
N10B C23 1_555 1_555
N11B C24 1_555 1_555
N12B C18B 1_555 1_555
C1C O3C 1_555 1_555
C2C O4C 1_555 1_555
C3C C2C 1_555 1_555
H14C C3C 1_555 1_555
C4C S2C 1_555 1_555
C5C C4C 1_555 1_555
H15C C5C 1_555 1_555
C6C S1C 1_555 1_555
C8B N1B 1_555 1_555
H16B C8B 1_555 1_555
C9B N2B 1_555 1_555
H17B C9B 1_555 1_555
C10B N3B 1_555 1_555
C11B N2B 1_555 1_555
H18B C11B 1_555 1_555
H19B C11B 1_555 1_555
C12B N3B 1_555 1_555
H20B C12B 1_555 1_555
H21B C12B 1_555 1_555
C13B N5B 1_555 1_555
C14B N5B 1_555 1_555
H22B C14B 1_555 1_555
C15B N6B 1_555 1_555
H23B C15B 1_555 1_555
C16B N7B 1_555 1_555
C17B N6B 1_555 1_555
H24B C17B 1_555 1_555
H25B C17B 1_555 1_555
C18B N7B 1_555 1_555
H26B C18B 1_555 1_555
H27B C18B 1_555 1_555
C19B N9B 1_555 1_555
C20B N9B 1_555 1_555
H28B C20B 1_555 1_555
C21B N10B 1_555 1_555
H29B C21B 1_555 1_555
C22B N11B 1_555 1_555
C23B N10 1_555 1_555
H30B C23B 1_555 1_555
H31B C23B 1_555 1_555
C24B N11 1_555 1_555
H32B C24B 1_555 1_555
H33B C24B 1_555 1_555
N4 C10 1_555 1_555
N8 C14 1_555 1_555
N8 C16 1_555 1_555
N12 C20 1_555 1_555
N12 C22 1_555 1_555
C1 C2 1_555 1_555
C1 C6 1_555 1_555
C3 C4 1_555 1_555
C5 C6 1_555 1_555
C8 C9 1_555 1_555
C14 C15 1_555 1_555
C20 C21 1_555 1_555
N1B C24B 1_555 1_555
N4B C10B 1_555 1_555
N4B C23B 1_555 1_555
N8B C14B 1_555 1_555
N8B C16B 1_555 1_555
N10B C19B 1_555 1_555
N11B C21B 1_555 1_555
N12B C20B 1_555 1_555
N12B C22B 1_555 1_555
C1C C2C 1_555 1_555
C1C C6C 1_555 1_555
C3C C4C 1_555 1_555
C5C C6C 1_555 1_555
C8B C9B 1_555 1_555
C14B C15B 1_555 1_555
C20B C21B 1_555 1_555

#END
