
#######################################################################
#
#                 Cambridge Crystallographic Data Centre
#                                CCDC 
#
#######################################################################
#
# If this CIF has been generated from an entry in the Cambridge 
# Structural Database, then it will include bibliographic, chemical, 
# crystal, experimental, refinement or atomic coordinate data resulting 
# from the CCDC's data processing and validation procedures.
#
#######################################################################

data_OVOCEI
_symmetry_cell_setting           monoclinic
_symmetry_space_group_name_H-M   'P 21/n'
_symmetry_Int_Tables_number      14
_space_group_name_Hall           '-P 2yn'
loop_
_symmetry_equiv_pos_site_id
_symmetry_equiv_pos_as_xyz
1 x,y,z
2 1/2-x,1/2+y,1/2-z
3 -x,-y,-z
4 1/2+x,1/2-y,1/2+z
_cell_length_a                   15.4882(4)
_cell_length_b                   16.1531(5)
_cell_length_c                   16.2434(4)
_cell_angle_alpha                90
_cell_angle_beta                 113.876(2)
_cell_angle_gamma                90
_cell_volume                     3716.05
loop_
_atom_site_label
_atom_site_type_symbol
_atom_site_fract_x
_atom_site_fract_y
_atom_site_fract_z
U1 U -0.326690(7) 0.562151(6) -0.450306(6)
S1 S -0.11463(5) 0.54533(4) -0.25192(4)
S2 S -0.00653(5) 0.78023(4) 0.00446(4)
O1 O -0.40822(13) 0.51127(12) -0.41684(13)
O2 O -0.24513(13) 0.60895(12) -0.48624(13)
O3 O -0.29427(13) 0.65903(12) -0.33959(12)
O4 O -0.31163(13) 0.81068(12) -0.27856(13)
H1 H -0.3405 0.7895 -0.3297
O5 O -0.20452(13) 0.50906(12) -0.31669(12)
O6 O -0.06770(13) 0.49144(12) -0.17651(13)
O7 O -0.05555(15) 0.57334(12) -0.29692(15)
O8 O 0.06012(13) 0.82889(12) -0.02144(12)
O9 O -0.05272(13) 0.83251(12) 0.04699(12)
O10 O 0.03996(14) 0.70766(12) 0.05678(13)
O11 O -0.28141(15) 0.42913(12) -0.49074(14)
H2 H -0.3273 0.3954 -0.5217
H3 H -0.2539 0.4396 -0.5156
O12 O -0.41808(14) 0.53133(13) -0.61135(12)
H4 H -0.4800 0.5595 -0.6409
H5 H -0.3923 0.5503 -0.6409
C1 C -0.22654(18) 0.68327(16) -0.26224(16)
C2 C -0.23600(18) 0.76265(17) -0.22986(17)
C3 C -0.16948(19) 0.79372(17) -0.15007(17)
H14 H -0.1752 0.8471 -0.1315
C4 C -0.09323(18) 0.74340(17) -0.09764(17)
C5 C -0.08204(18) 0.66524(17) -0.12712(17)
H15 H -0.0318 0.6320 -0.0914
C6 C -0.14631(18) 0.63630(16) -0.21070(17)
U1C U -0.826690(7) 0.937849(6) -0.950306(6)
U1C_2 U 0.173310(7) 0.937849(6) 0.049694(6)
S1C S -0.61463(5) 0.95467(4) -0.75192(4)
S2C S -0.50653(5) 0.71977(4) -0.49554(4)
O1C O -0.90822(13) 0.98873(12) -0.91684(13)
O2C O -0.74513(13) 0.89105(12) -0.98624(13)
O3C O -0.79427(13) 0.84097(12) -0.83959(12)
O4C O -0.81163(13) 0.68932(12) -0.77856(13)
H1C H -0.8405 0.7105 -0.8297
O5C O -0.70452(13) 0.99094(12) -0.81669(12)
O6C O -0.56770(13) 1.00856(12) -0.67651(13)
O7C O -0.55555(15) 0.92666(12) -0.79692(15)
O8C O -0.43988(13) 0.67111(12) -0.52144(12)
O8_2 O -0.93988(13) 0.82889(12) -1.02144(12)
O9C O -0.55272(13) 0.66749(12) -0.45301(12)
O10C O -0.46004(14) 0.79234(12) -0.44322(13)
O11C O -0.78141(15) 1.07087(12) -0.99074(14)
H2C H -0.8273 1.1046 -1.0217
H3C H -0.7539 1.0604 -1.0156
O12C O -0.91808(14) 0.96867(13) -1.11135(12)
H4C H -0.9800 0.9405 -1.1409
H5C H -0.8923 0.9497 -1.1409
C1C C -0.72654(18) 0.81673(16) -0.76224(16)
C2C C -0.73600(18) 0.73735(17) -0.72986(17)
C3C C -0.66948(19) 0.70628(17) -0.65007(17)
H14C H -0.6752 0.6529 -0.6315
C4C C -0.59323(18) 0.75660(17) -0.59764(17)
C5C C -0.58204(18) 0.83476(17) -0.62712(17)
H15C H -0.5318 0.8680 -0.5914
C6C C -0.64631(18) 0.86370(16) -0.71070(17)
K1 K 0.03680(5) 0.89207(4) 0.22345(4)
O13 O 0.07801(14) 1.05816(12) 0.26178(14)
O14 O 0.17722(15) 1.22260(13) 0.62941(13)
O15 O 0.18586(14) 0.88054(13) 0.37638(13)
O16 O 0.29739(15) 1.04704(13) 0.73748(14)
O17 O 0.06790(16) 0.72551(15) 0.42815(14)
O18 O 0.16337(15) 0.91019(13) 0.78301(14)
N1 N 0.07301(16) 1.18307(14) 0.32930(14)
N2 N 0.20237(15) 1.10610(14) 0.38854(15)
N3 N 0.24289(16) 1.17304(15) 0.53406(15)
N4 N 0.11217(16) 1.24789(15) 0.47581(15)
N5 N 0.28535(16) 0.98248(14) 0.46313(14)
N6 N 0.27976(17) 0.86257(15) 0.52742(15)
N7 N 0.33074(17) 0.92905(14) 0.67534(15)
N8 N 0.32754(18) 1.04996(15) 0.60968(16)
N9 N 0.19140(17) 0.75516(16) 0.56383(15)
N10 N 0.05164(16) 0.72382(15) 0.56237(15)
N11 N 0.09313(16) 0.78876(14) 0.71007(15)
N12 N 0.22648(16) 0.83138(15) 0.70284(15)
C7 C 0.11368(19) 1.11041(17) 0.32076(17)
C8 C 0.13766(18) 1.23502(16) 0.40054(17)
H16 H 0.1495 1.2876 0.3769
C9 C 0.22836(18) 1.18167(17) 0.44076(17)
H17 H 0.2820 1.2090 0.4348
C10 C 0.17730(19) 1.21526(18) 0.55451(17)
C11 C 0.2697(2) 1.04180(18) 0.39226(18)
H18 H 0.2467 1.0130 0.3350
H19 H 0.3294 1.0675 0.4011
C12 C 0.32766(19) 1.13911(17) 0.60220(18)
H20 H 0.3366 1.1630 0.6599
H21 H 0.3810 1.1555 0.5891
C13 C 0.24376(19) 0.90604(18) 0.44836(18)
C14 C 0.35454(19) 0.99268(17) 0.55522(17)
H22 H 0.4172 1.0057 0.5573
C15 C 0.35357(19) 0.90717(18) 0.59907(18)
H23 H 0.4147 0.8790 0.6185
C16 C 0.31624(19) 1.01168(18) 0.67980(18)
C17 C 0.2621(2) 0.77446(17) 0.53045(19)
H24 H 0.2424 0.7518 0.4703
H25 H 0.3207 0.7475 0.5684
C18 C 0.31893(19) 0.87014(18) 0.73710(17)
H26 H 0.3292 0.8983 0.7931
H27 H 0.3667 0.8274 0.7504
C19 C 0.1001(2) 0.73479(18) 0.50999(19)
C20 C 0.20942(19) 0.75157(17) 0.65826(18)
H28 H 0.2595 0.7118 0.6908
C21 C 0.11297(19) 0.72474(17) 0.65776(18)
H29 H 0.1168 0.6700 0.6851
C22 C 0.16109(19) 0.84953(17) 0.73636(17)
C23 C 0.04300(19) 1.30892(18) 0.47391(18)
H30 H 0.0459 1.3557 0.4377
H31 H 0.0584 1.3287 0.5346
C24 C -0.01529(19) 1.21414(18) 0.26265(18)
H32 H -0.0319 1.1821 0.2079
H33 H -0.0062 1.2710 0.2488
O13B O -0.07801(14) 0.94184(12) 0.73822(14)
O14B O -0.17722(15) 0.77740(13) 0.37059(13)
O15B O -0.18586(14) 1.11946(13) 0.62362(13)
O16B O -0.29739(15) 0.95296(13) 0.26252(14)
O17B O -0.06790(16) 1.27449(15) 0.57185(14)
O18B O -0.16337(15) 1.08981(13) 0.21699(14)
N1B N -0.07301(16) 0.81693(14) 0.67070(14)
N2B N -0.20237(15) 0.89390(14) 0.61146(15)
N3B N -0.24289(16) 0.82696(15) 0.46594(15)
N4B N -0.11217(16) 0.75211(15) 0.52419(15)
N5B N -0.28535(16) 1.01752(14) 0.53687(14)
N6B N -0.27976(17) 1.13743(15) 0.47258(15)
N7B N -0.33074(17) 1.07095(14) 0.32466(15)
N8B N -0.32754(18) 0.95004(15) 0.39032(16)
N9B N -0.19140(17) 1.24484(16) 0.43617(15)
N10B N -0.05164(16) 1.27618(15) 0.43763(15)
N11B N -0.09313(16) 1.21124(14) 0.28993(15)
N12B N -0.22648(16) 1.16862(15) 0.29716(15)
C7B C -0.11368(19) 0.88959(17) 0.67924(17)
C8B C -0.13766(18) 0.76498(16) 0.59946(17)
H16B H -0.1495 0.7124 0.6231
C9B C -0.22836(18) 0.81833(17) 0.55924(17)
H17B H -0.2820 0.7910 0.5652
C10B C -0.17730(19) 0.78474(18) 0.44549(17)
C11B C -0.2697(2) 0.95820(18) 0.60774(18)
H18B H -0.2467 0.9870 0.6650
H19B H -0.3294 0.9325 0.5989
C12B C -0.32766(19) 0.86089(17) 0.39780(18)
H20B H -0.3366 0.8370 0.3401
H21B H -0.3810 0.8445 0.4109
C13B C -0.24376(19) 1.09396(18) 0.55164(18)
C14B C -0.35454(19) 1.00732(17) 0.44478(17)
H22B H -0.4172 0.9943 0.4427
C15B C -0.35357(19) 1.09283(18) 0.40093(18)
H23B H -0.4147 1.1210 0.3815
C16B C -0.31624(19) 0.98832(18) 0.32020(18)
C17B C -0.2621(2) 1.22554(17) 0.46955(19)
H24B H -0.2424 1.2482 0.5297
H25B H -0.3207 1.2525 0.4316
C18B C -0.31893(19) 1.12986(18) 0.26290(17)
H26B H -0.3292 1.1017 0.2069
H27B H -0.3667 1.1726 0.2496
C19B C -0.1001(2) 1.26521(18) 0.49001(19)
C20B C -0.20942(19) 1.24843(17) 0.34174(18)
H28B H -0.2595 1.2882 0.3092
C21B C -0.11297(19) 1.27526(17) 0.34224(18)
H29B H -0.1168 1.3300 0.3149
C22B C -0.16109(19) 1.15047(17) 0.26364(17)
C23B C -0.04300(19) 0.69108(18) 0.52609(18)
H30B H -0.0459 0.6443 0.5623
H31B H -0.0584 0.6713 0.4654
C24B C 0.01529(19) 0.78586(18) 0.73735(18)
H32B H 0.0319 0.8179 0.7921
H33B H 0.0062 0.7290 0.7512
O19 O 0.01500(17) 0.72438(16) 0.24694(15)
H6 H 0.0536 0.6944 0.2356
H7 H 0.0325 0.7125 0.2994
O20 O -0.10796(19) 0.89769(19) 0.2749(2)
H8 H -0.1220 0.8640 0.3080
H9 H -0.1454 0.9340 0.2744
O21 O -0.01036(17) 0.45620(15) -0.40646(16)
H10 H -0.0172 0.4899 -0.3711
H11 H -0.0346 0.4093 -0.4014
O22 O -0.16882(17) 0.44259(14) -0.57629(16)
H12 H -0.1761 0.4669 -0.6301
H13 H -0.1156 0.4717 -0.5450
loop_
_geom_bond_atom_site_label_1
_geom_bond_atom_site_label_2
_geom_bond_site_symmetry_1
_geom_bond_site_symmetry_2
U1 O1 1_555 1_555
S1 O5 1_555 1_555
S2 O8 1_555 1_555
O2 U1 1_555 1_555
O3 U1 1_555 1_555
O4 H1 1_555 1_555
O5 U1 1_555 1_555
O6 S1 1_555 1_555
O7 S1 1_555 1_555
O8 U1C_2 1_555 1_555
O9 S2 1_555 1_555
O10 S2 1_555 1_555
O11 U1 1_555 1_555
H2 O11 1_555 1_555
H3 O11 1_555 1_555
O12 U1 1_555 1_555
H4 O12 1_555 1_555
H5 O12 1_555 1_555
O13 C7 1_555 1_555
O14 C10 1_555 1_555
O15 C13 1_555 1_555
O16 C16 1_555 1_555
O17 C19 1_555 1_555
O18 C22 1_555 1_555
O19 H6 1_555 1_555
H7 O19 1_555 1_555
O20 H8 1_555 1_555
H9 O20 1_555 1_555
O21 H10 1_555 1_555
H11 O21 1_555 1_555
O22 H12 1_555 1_555
H13 O22 1_555 1_555
N1 C7 1_555 1_555
N2 C7 1_555 1_555
N3 C9 1_555 1_555
N4 C8 1_555 1_555
N5 C11 1_555 1_555
N6 C13 1_555 1_555
N7 C15 1_555 1_555
N8 C12 1_555 1_555
N9 C17 1_555 1_555
N10 C19 1_555 1_555
N11 C21 1_555 1_555
N12 C18 1_555 1_555
C1 O3 1_555 1_555
C2 O4 1_555 1_555
C3 C2 1_555 1_555
H14 C3 1_555 1_555
C4 S2 1_555 1_555
C5 C4 1_555 1_555
H15 C5 1_555 1_555
C6 S1 1_555 1_555
C8 N1 1_555 1_555
H16 C8 1_555 1_555
C9 N2 1_555 1_555
H17 C9 1_555 1_555
C10 N3 1_555 1_555
C11 N2 1_555 1_555
H18 C11 1_555 1_555
H19 C11 1_555 1_555
C12 N3 1_555 1_555
H20 C12 1_555 1_555
H21 C12 1_555 1_555
C13 N5 1_555 1_555
C14 N5 1_555 1_555
H22 C14 1_555 1_555
C15 N6 1_555 1_555
H23 C15 1_555 1_555
C16 N7 1_555 1_555
C17 N6 1_555 1_555
H24 C17 1_555 1_555
H25 C17 1_555 1_555
C18 N7 1_555 1_555
H26 C18 1_555 1_555
H27 C18 1_555 1_555
C19 N9 1_555 1_555
C20 N9 1_555 1_555
H28 C20 1_555 1_555
C21 N10 1_555 1_555
H29 C21 1_555 1_555
C22 N11 1_555 1_555
C23 N4 1_555 1_555
H30 C23 1_555 1_555
H31 C23 1_555 1_555
C24 N1 1_555 1_555
H32 C24 1_555 1_555
H33 C24 1_555 1_555
U1C O1C 1_555 1_555
S1C O5C 1_555 1_555
S2C O8C 1_555 1_555
O2C U1C 1_555 1_555
O3C U1C 1_555 1_555
O4C H1C 1_555 1_555
O5C U1C 1_555 1_555
O6C S1C 1_555 1_555
O7C S1C 1_555 1_555
O8C U1 1_555 1_555
O8_2 U1C 1_555 1_555
O9C S2C 1_555 1_555
O10C S2C 1_555 1_555
O11C U1C 1_555 1_555
H2C O11C 1_555 1_555
H3C O11C 1_555 1_555
O12C U1C 1_555 1_555
H4C O12C 1_555 1_555
H5C O12C 1_555 1_555
O13B C7B 1_555 1_555
O14B C10B 1_555 1_555
O15B C13B 1_555 1_555
O16B C16B 1_555 1_555
O17B C19B 1_555 1_555
O18B C22B 1_555 1_555
N1B C7B 1_555 1_555
N2B C7B 1_555 1_555
N3B C9B 1_555 1_555
N4B C8B 1_555 1_555
N5B C11B 1_555 1_555
N6B C13B 1_555 1_555
N7B C15B 1_555 1_555
N8B C12B 1_555 1_555
N9B C17B 1_555 1_555
N10B C23 1_555 1_555
N11B C24 1_555 1_555
N12B C18B 1_555 1_555
C1C O3C 1_555 1_555
C2C O4C 1_555 1_555
C3C C2C 1_555 1_555
H14C C3C 1_555 1_555
C4C S2C 1_555 1_555
C5C C4C 1_555 1_555
H15C C5C 1_555 1_555
C6C S1C 1_555 1_555
C8B N1B 1_555 1_555
H16B C8B 1_555 1_555
C9B N2B 1_555 1_555
H17B C9B 1_555 1_555
C10B N3B 1_555 1_555
C11B N2B 1_555 1_555
H18B C11B 1_555 1_555
H19B C11B 1_555 1_555
C12B N3B 1_555 1_555
H20B C12B 1_555 1_555
H21B C12B 1_555 1_555
C13B N5B 1_555 1_555
C14B N5B 1_555 1_555
H22B C14B 1_555 1_555
C15B N6B 1_555 1_555
H23B C15B 1_555 1_555
C16B N7B 1_555 1_555
C17B N6B 1_555 1_555
H24B C17B 1_555 1_555
H25B C17B 1_555 1_555
C18B N7B 1_555 1_555
H26B C18B 1_555 1_555
H27B C18B 1_555 1_555
C19B N9B 1_555 1_555
C20B N9B 1_555 1_555
H28B C20B 1_555 1_555
C21B N10B 1_555 1_555
H29B C21B 1_555 1_555
C22B N11B 1_555 1_555
C23B N10 1_555 1_555
H30B C23B 1_555 1_555
H31B C23B 1_555 1_555
C24B N11 1_555 1_555
H32B C24B 1_555 1_555
H33B C24B 1_555 1_555
N4 C10 1_555 1_555
N8 C14 1_555 1_555
N8 C16 1_555 1_555
N12 C20 1_555 1_555
N12 C22 1_555 1_555
C1 C2 1_555 1_555
C1 C6 1_555 1_555
C3 C4 1_555 1_555
C5 C6 1_555 1_555
C8 C9 1_555 1_555
C14 C15 1_555 1_555
C20 C21 1_555 1_555
N1B C24B 1_555 1_555
N4B C10B 1_555 1_555
N4B C23B 1_555 1_555
N8B C14B 1_555 1_555
N8B C16B 1_555 1_555
N10B C19B 1_555 1_555
N11B C21B 1_555 1_555
N12B C20B 1_555 1_555
N12B C22B 1_555 1_555
C1C C2C 1_555 1_555
C1C C6C 1_555 1_555
C3C C4C 1_555 1_555
C5C C6C 1_555 1_555
C8B C9B 1_555 1_555
C14B C15B 1_555 1_555
C20B C21B 1_555 1_555

#END
