
#######################################################################
#
#                 Cambridge Crystallographic Data Centre
#                                CCDC 
#
#######################################################################
#
# If this CIF has been generated from an entry in the Cambridge 
# Structural Database, then it will include bibliographic, chemical, 
# crystal, experimental, refinement or atomic coordinate data resulting 
# from the CCDC's data processing and validation procedures.
#
#######################################################################

data_OVOPAR
_symmetry_cell_setting           orthorhombic
_symmetry_space_group_name_H-M   'P n a 21'
_symmetry_Int_Tables_number      33
_space_group_name_Hall           'P 2c -2n'
loop_
_symmetry_equiv_pos_site_id
_symmetry_equiv_pos_as_xyz
1 x,y,z
2 -x,-y,1/2+z
3 1/2-x,1/2+y,1/2+z
4 1/2+x,1/2-y,z
_cell_length_a                   18.760
_cell_length_b                   13.356
_cell_length_c                   6.616
_cell_angle_alpha                90
_cell_angle_beta                 90
_cell_angle_gamma                90
_cell_volume                     1657.7
loop_
_atom_site_label
_atom_site_type_symbol
_atom_site_fract_x
_atom_site_fract_y
_atom_site_fract_z
Mn1 Mn 0.39431(4) 0.22521(4) 0.94592(14)
N1 N 0.4317(3) 0.2175(4) 1.2758(8)
N2 N 0.4892(2) 0.2853(3) 0.8854(7)
N3 N 0.4476(2) 0.0983(3) 0.8919(6)
N4 N 0.4017(2) 0.2181(3) 1.4336(10)
N5 N 0.3727(3) 0.2175(4) 1.5910(8)
O1 O 0.35097(19) 0.3511(2) 0.9716(7)
O2 O 0.3091(2) 0.1570(2) 0.9968(5)
C1 C 0.3781(3) 0.4405(3) 0.9463(9)
C2 C 0.3337(3) 0.5238(4) 0.9820(9)
H1 H 0.2874 0.5136 1.0282
C3 C 0.3574(3) 0.6196(3) 0.9496(11)
H2 H 0.3268 0.6733 0.9709
C4 C 0.4273(3) 0.6375(4) 0.8850(9)
H3 H 0.4430 0.7027 0.8637
C5 C 0.4723(3) 0.5590(4) 0.8535(8)
H4 H 0.5188 0.5710 0.8108
C6 C 0.4490(3) 0.4587(4) 0.8852(8)
C7 C 0.5010(3) 0.3814(4) 0.8575(7)
H5 H 0.5464 0.4005 0.8167
C8 C 0.5456(3) 0.2127(4) 0.8721(8)
C9 C 0.6174(3) 0.2347(4) 0.8608(9)
H6 H 0.6325 0.3010 0.8592
C10 C 0.6674(3) 0.1573(4) 0.8516(8)
H7 H 0.7158 0.1715 0.8434
C11 C 0.6433(3) 0.0574(4) 0.8551(8)
H8 H 0.6760 0.0052 0.8485
C12 C 0.5719(3) 0.0367(4) 0.8681(8)
H9 H 0.5568 -0.0296 0.8721
C13 C 0.5216(3) 0.1127(3) 0.8754(7)
C14 C 0.4175(3) 0.0128(4) 0.8607(8)
H10 H 0.4469 -0.0399 0.8217
C15 C 0.3431(3) -0.0082(3) 0.8806(8)
C16 C 0.3196(3) -0.1071(4) 0.8380(7)
H11 H 0.3523 -0.1533 0.7884
C17 C 0.2515(3) -0.1362(4) 0.8672(9)
H12 H 0.2370 -0.2004 0.8316
C18 C 0.2022(3) -0.0670(4) 0.9534(10)
H13 H 0.1560 -0.0875 0.9829
C19 C 0.2231(3) 0.0310(4) 0.9936(7)
H14 H 0.1901 0.0762 1.0454
C20 C 0.2931(2) 0.0624(3) 0.9571(9)
Mn1_2 Mn 0.39431(4) 0.22521(4) 1.94592(14)
N5_2 N 0.3727(3) 0.2175(4) 0.5910(8)
loop_
_geom_bond_atom_site_label_1
_geom_bond_atom_site_label_2
_geom_bond_site_symmetry_1
_geom_bond_site_symmetry_2
Mn1 N1 1_555 1_555
N1 N4 1_555 1_555
N2 Mn1 1_555 1_555
N3 Mn1 1_555 1_555
N4 N5 1_555 1_555
N5 Mn1_2 1_555 1_555
O1 Mn1 1_555 1_555
O2 Mn1 1_555 1_555
C1 O1 1_555 1_555
C2 C1 1_555 1_555
H1 C2 1_555 1_555
C3 C2 1_555 1_555
H2 C3 1_555 1_555
C4 C3 1_555 1_555
H3 C4 1_555 1_555
C5 C4 1_555 1_555
H4 C5 1_555 1_555
C6 C1 1_555 1_555
C7 N2 1_555 1_555
H5 C7 1_555 1_555
C8 N2 1_555 1_555
C9 C8 1_555 1_555
H6 C9 1_555 1_555
C10 C9 1_555 1_555
H7 C10 1_555 1_555
C11 C10 1_555 1_555
H8 C11 1_555 1_555
C12 C11 1_555 1_555
H9 C12 1_555 1_555
C13 N3 1_555 1_555
C14 N3 1_555 1_555
H10 C14 1_555 1_555
C15 C14 1_555 1_555
C16 C15 1_555 1_555
H11 C16 1_555 1_555
C17 C16 1_555 1_555
H12 C17 1_555 1_555
C18 C17 1_555 1_555
H13 C18 1_555 1_555
C19 C18 1_555 1_555
H14 C19 1_555 1_555
C20 O2 1_555 1_555
N5_2 Mn1 1_555 1_555
C5 C6 1_555 1_555
C6 C7 1_555 1_555
C8 C13 1_555 1_555
C12 C13 1_555 1_555
C15 C20 1_555 1_555
C19 C20 1_555 1_555

#END
