
#######################################################################
#
#                 Cambridge Crystallographic Data Centre
#                                CCDC 
#
#######################################################################
#
# If this CIF has been generated from an entry in the Cambridge 
# Structural Database, then it will include bibliographic, chemical, 
# crystal, experimental, refinement or atomic coordinate data resulting 
# from the CCDC's data processing and validation procedures.
#
#######################################################################

data_OVOYEE
_symmetry_cell_setting           monoclinic
_symmetry_space_group_name_H-M   'P 21/c'
_symmetry_Int_Tables_number      14
_space_group_name_Hall           '-P 2ybc'
loop_
_symmetry_equiv_pos_site_id
_symmetry_equiv_pos_as_xyz
1 x,y,z
2 -x,1/2+y,1/2-z
3 -x,-y,-z
4 x,1/2-y,1/2+z
_cell_length_a                   6.5234(3)
_cell_length_b                   17.4032(9)
_cell_length_c                   14.0460(7)
_cell_angle_alpha                90
_cell_angle_beta                 91.656(1)
_cell_angle_gamma                90
_cell_volume                     1593.95
loop_
_atom_site_label
_atom_site_type_symbol
_atom_site_fract_x
_atom_site_fract_y
_atom_site_fract_z
Pd1 Pd 0.29366(2) 0.295206(9) 0.047450(10)
O1 O 0.5191(2) 0.31939(9) -0.11774(10)
O2 O 0.1927(2) 0.18700(8) -0.30341(10)
N1 N 0.0861(3) 0.21463(10) 0.00365(12)
N2 N 0.5114(3) 0.37923(10) 0.07856(12)
C1 C 0.0895(3) 0.19602(11) -0.08757(14)
C2 C -0.0745(3) 0.13717(12) -0.11476(14)
C3 C -0.1831(3) 0.13079(12) -0.02108(14)
C4 C -0.3589(3) 0.09198(12) 0.00253(15)
H1 H -0.4347 0.0633 -0.0440
C5 C -0.4230(3) 0.09576(13) 0.09652(16)
H2 H -0.5447 0.0700 0.1139
C6 C -0.3102(3) 0.13692(12) 0.16463(16)
H3 H -0.3530 0.1373 0.2287
C7 C -0.1355(3) 0.17757(12) 0.14061(15)
H4 H -0.0592 0.2062 0.1870
C8 C -0.0764(3) 0.17492(12) 0.04656(14)
C9 C 0.2422(3) 0.23230(12) -0.14223(14)
C10 C 0.3750(3) 0.28459(11) -0.08597(14)
C11 C 0.2834(3) 0.22635(12) -0.23976(14)
H5 H 0.3954 0.2562 -0.2605
C12 C -0.2201(3) 0.16394(13) -0.19569(14)
H6 H -0.3353 0.1280 -0.2023
H7 H -0.1460 0.1656 -0.2554
H8 H -0.2720 0.2153 -0.1811
C13 C 0.0290(3) 0.06031(12) -0.14006(15)
H9 H 0.1184 0.0437 -0.0867
H10 H 0.1107 0.0672 -0.1969
H11 H -0.0765 0.0212 -0.1527
C14 C 0.4558(3) 0.44382(12) 0.12393(14)
H12 H 0.3187 0.4483 0.1444
C15 C 0.5896(4) 0.50372(13) 0.14186(16)
H13 H 0.5439 0.5490 0.1725
C16 C 0.7907(4) 0.49728(14) 0.11484(16)
H14 H 0.8855 0.5379 0.1265
C17 C 0.8508(3) 0.43052(13) 0.07049(15)
H15 H 0.9889 0.4240 0.0523
C18 C 0.7082(3) 0.37330(13) 0.05291(14)
H16 H 0.7505 0.3279 0.0214
Pd1C Pd 0.29366(2) 0.204794(9) -0.452550(10)
O2C O 0.1927(2) 0.31300(8) 0.19659(10)
loop_
_geom_bond_atom_site_label_1
_geom_bond_atom_site_label_2
_geom_bond_site_symmetry_1
_geom_bond_site_symmetry_2
Pd1 N1 1_555 1_555
O1 C10 1_555 1_555
O2 C11 1_555 1_555
N1 C1 1_555 1_555
N2 Pd1 1_555 1_555
C1 C2 1_555 1_555
C2 C3 1_555 1_555
C3 C4 1_555 1_555
C4 H1 1_555 1_555
C5 C4 1_555 1_555
H2 C5 1_555 1_555
C6 C5 1_555 1_555
H3 C6 1_555 1_555
C7 C6 1_555 1_555
H4 C7 1_555 1_555
C8 N1 1_555 1_555
C9 C1 1_555 1_555
C10 Pd1 1_555 1_555
C11 C9 1_555 1_555
H5 C11 1_555 1_555
C12 C2 1_555 1_555
H6 C12 1_555 1_555
H7 C12 1_555 1_555
H8 C12 1_555 1_555
C13 C2 1_555 1_555
H9 C13 1_555 1_555
H10 C13 1_555 1_555
H11 C13 1_555 1_555
C14 N2 1_555 1_555
H12 C14 1_555 1_555
C15 C14 1_555 1_555
H13 C15 1_555 1_555
C16 C15 1_555 1_555
H14 C16 1_555 1_555
C17 C16 1_555 1_555
H15 C17 1_555 1_555
C18 N2 1_555 1_555
H16 C18 1_555 1_555
Pd1C O2 1_555 1_555
O2C Pd1 1_555 1_555
C3 C8 1_555 1_555
C7 C8 1_555 1_555
C9 C10 1_555 1_555
C17 C18 1_555 1_555

#END
