
#######################################################################
#
#                 Cambridge Crystallographic Data Centre
#                                CCDC 
#
#######################################################################
#
# If this CIF has been generated from an entry in the Cambridge 
# Structural Database, then it will include bibliographic, chemical, 
# crystal, experimental, refinement or atomic coordinate data resulting 
# from the CCDC's data processing and validation procedures.
#
#######################################################################

data_OVOZIJ
_symmetry_cell_setting           rhombohedral
_symmetry_space_group_name_H-M   'R -3'
_symmetry_Int_Tables_number      148
_space_group_name_Hall           '-P 3*'
loop_
_symmetry_equiv_pos_site_id
_symmetry_equiv_pos_as_xyz
1 x,y,z
2 z,x,y
3 y,z,x
4 -x,-y,-z
5 -z,-x,-y
6 -y,-z,-x
_cell_length_a                   12.6074(3)
_cell_length_b                   12.6074(3)
_cell_length_c                   12.6074(3)
_cell_angle_alpha                104.04
_cell_angle_beta                 104.04
_cell_angle_gamma                104.04
_cell_volume                     1786.6
loop_
_atom_site_label
_atom_site_type_symbol
_atom_site_fract_x
_atom_site_fract_y
_atom_site_fract_z
Zn1 Zn 0.5000 0.5000 1.0000
O1 O 0.48066(11) 0.32753(10) 0.97936(10)
O2 O 0.55033(11) 0.17274(10) 0.63063(10)
N1 N 0.62588(11) 0.48877(12) 0.91826(11)
C1 C 0.62150(14) 0.39906(14) 0.83606(13)
C2 C 0.71699(15) 0.42808(16) 0.78151(16)
C3 C 0.78360(16) 0.54918(17) 0.85955(17)
C4 C 0.8845(2) 0.6245(2) 0.8627(2)
H1 H 0.9210 0.6046 0.8086
C5 C 0.9302(2) 0.7306(2) 0.9486(2)
H2 H 0.9990 0.7824 0.9531
C6 C 0.8750(2) 0.7608(2) 1.0278(2)
H3 H 0.9080 0.8320 1.0857
C7 C 0.77134(17) 0.68691(16) 1.02262(17)
H4 H 0.7332 0.7078 1.0748
C8 C 0.72684(15) 0.58108(15) 0.93684(15)
C9 C 0.54147(14) 0.28522(14) 0.81145(14)
C10 C 0.48454(15) 0.26054(15) 0.89041(15)
H5 H 0.4440 0.1831 0.8738
C11 C 0.51669(15) 0.18463(15) 0.71582(15)
H6 H 0.4675 0.1176 0.7180
C12 C 0.79310(17) 0.34990(19) 0.7875(2)
H7 H 0.8580 0.3787 0.7635
H8 H 0.7489 0.2729 0.7374
H9 H 0.8200 0.3492 0.8653
C13 C 0.66708(19) 0.42956(18) 0.65800(17)
H10 H 0.6209 0.4800 0.6583
H11 H 0.6201 0.3529 0.6090
H12 H 0.7291 0.4567 0.6296
Zn1B Zn 0.5000 0.0000 0.5000
Zn1B_2 Zn 0.5000 1.0000 1.5000
O1C O 0.51934(11) 0.67247(10) 1.02064(10)
O2C O 0.44967(11) 0.82726(10) 1.36937(10)
O2A O 0.63063(10) 0.55033(11) 1.17274(10)
O2D O 0.36937(10) 0.44967(11) 0.82726(10)
N1C N 0.37412(11) 0.51123(12) 1.08174(11)
C1C C 0.37850(14) 0.60094(14) 1.16394(13)
C2C C 0.28301(15) 0.57192(16) 1.21849(16)
C3C C 0.21640(16) 0.45082(17) 1.14045(17)
C4C C 0.1155(2) 0.3755(2) 1.1373(2)
H1C H 0.0790 0.3954 1.1914
C5C C 0.0698(2) 0.2694(2) 1.0514(2)
H2C H 0.0010 0.2176 1.0469
C6C C 0.1250(2) 0.2392(2) 0.9722(2)
H3C H 0.0920 0.1680 0.9143
C7C C 0.22866(17) 0.31309(16) 0.97738(17)
H4C H 0.2668 0.2922 0.9252
C8C C 0.27316(15) 0.41892(15) 1.06316(15)
C9C C 0.45853(14) 0.71478(14) 1.18855(14)
C10C C 0.51546(15) 0.73946(15) 1.10959(15)
H5C H 0.5560 0.8169 1.1262
C11C C 0.48331(15) 0.81537(15) 1.28418(15)
H6C H 0.5325 0.8824 1.2820
C12C C 0.20690(17) 0.65010(19) 1.2125(2)
H7C H 0.1420 0.6213 1.2365
H8C H 0.2511 0.7271 1.2626
H9C H 0.1800 0.6508 1.1347
C13C C 0.33292(19) 0.57044(18) 1.34200(17)
H10C H 0.3791 0.5200 1.3417
H11C H 0.3799 0.6471 1.3910
H12C H 0.2709 0.5433 1.3704
loop_
_geom_bond_atom_site_label_1
_geom_bond_atom_site_label_2
_geom_bond_site_symmetry_1
_geom_bond_site_symmetry_2
Zn1 O1 1_555 1_555
O1 C10 1_555 1_555
O2 C11 1_555 1_555
N1 Zn1 1_555 1_555
C1 N1 1_555 1_555
C2 C1 1_555 1_555
C3 C2 1_555 1_555
C4 C3 1_555 1_555
H1 C4 1_555 1_555
C5 C4 1_555 1_555
H2 C5 1_555 1_555
C6 C5 1_555 1_555
H3 C6 1_555 1_555
C7 C6 1_555 1_555
H4 C7 1_555 1_555
C8 N1 1_555 1_555
C9 C1 1_555 1_555
C10 C9 1_555 1_555
H5 C10 1_555 1_555
C11 C9 1_555 1_555
H6 C11 1_555 1_555
C12 C2 1_555 1_555
H7 C12 1_555 1_555
H8 C12 1_555 1_555
H9 C12 1_555 1_555
C13 C2 1_555 1_555
H10 C13 1_555 1_555
H11 C13 1_555 1_555
H12 C13 1_555 1_555
Zn1B O2 1_555 1_555
Zn1B_2 O2C 1_555 1_555
O1C Zn1 1_555 1_555
O2C C11C 1_555 1_555
O2A Zn1 1_555 1_555
O2D Zn1 1_555 1_555
N1C Zn1 1_555 1_555
C1C N1C 1_555 1_555
C2C C1C 1_555 1_555
C3C C2C 1_555 1_555
C4C C3C 1_555 1_555
H1C C4C 1_555 1_555
C5C C4C 1_555 1_555
H2C C5C 1_555 1_555
C6C C5C 1_555 1_555
H3C C6C 1_555 1_555
C7C C6C 1_555 1_555
H4C C7C 1_555 1_555
C8C N1C 1_555 1_555
C9C C1C 1_555 1_555
C10C O1C 1_555 1_555
H5C C10C 1_555 1_555
C11C C9C 1_555 1_555
H6C C11C 1_555 1_555
C12C C2C 1_555 1_555
H7C C12C 1_555 1_555
H8C C12C 1_555 1_555
H9C C12C 1_555 1_555
C13C C2C 1_555 1_555
H10C C13C 1_555 1_555
H11C C13C 1_555 1_555
H12C C13C 1_555 1_555
C3 C8 1_555 1_555
C7 C8 1_555 1_555
C3C C8C 1_555 1_555
C7C C8C 1_555 1_555
C9C C10C 1_555 1_555

#END
