
#######################################################################
#
#                 Cambridge Crystallographic Data Centre
#                                CCDC 
#
#######################################################################
#
# If this CIF has been generated from an entry in the Cambridge 
# Structural Database, then it will include bibliographic, chemical, 
# crystal, experimental, refinement or atomic coordinate data resulting 
# from the CCDC's data processing and validation procedures.
#
#######################################################################

data_OVUHET
_symmetry_cell_setting           monoclinic
_symmetry_space_group_name_H-M   'P 21/c'
_symmetry_Int_Tables_number      14
_space_group_name_Hall           '-P 2ybc'
loop_
_symmetry_equiv_pos_site_id
_symmetry_equiv_pos_as_xyz
1 x,y,z
2 -x,1/2+y,1/2-z
3 -x,-y,-z
4 x,1/2-y,1/2+z
_cell_length_a                   8.5605(5)
_cell_length_b                   11.7582(6)
_cell_length_c                   11.9111(7)
_cell_angle_alpha                90
_cell_angle_beta                 103.195(2)
_cell_angle_gamma                90
_cell_volume                     1167.27
loop_
_atom_site_label
_atom_site_type_symbol
_atom_site_fract_x
_atom_site_fract_y
_atom_site_fract_z
Ag1 Ag 0.51300(3) 0.26800(3) 0.58227(2)
N1 N 0.3270(4) 0.2473(3) 0.4032(3)
C1 C 0.1805(5) 0.2019(4) 0.3819(3)
H1 H 0.1315 0.1882 0.4446
C2 C 0.0978(4) 0.1744(3) 0.2720(3)
H2 H -0.0100 0.1482 0.2564
C3 C 0.1801(4) 0.1868(3) 0.1853(3)
H3 H 0.1290 0.1648 0.1090
N2 N 0.3287(4) 0.2286(3) 0.2053(3)
C4 C 0.3939(4) 0.2611(3) 0.3131(3)
C5 C 0.5547(4) 0.3197(3) 0.3348(3)
N3 N 0.6124(3) 0.3586(2) 0.4412(2)
C6 C 0.7566(4) 0.4127(3) 0.4557(3)
N4 N 0.8409(3) 0.4235(3) 0.3742(2)
C7 C 0.7685(4) 0.3806(3) 0.2700(3)
N5 N 0.6230(3) 0.3285(2) 0.2467(2)
N6 N 0.8164(4) 0.4586(3) 0.5593(3)
H4 H 0.9089 0.4947 0.5726
H5 H 0.7633 0.4526 0.6142
N7 N 0.8425(4) 0.3889(3) 0.1838(3)
H6 H 0.9370 0.4220 0.1950
H7 H 0.7970 0.3614 0.1154
Ag1C Ag 0.51300(3) 0.23200(3) 0.08227(2)
N2C N 0.3287(4) 0.2714(3) 0.7053(3)
N5C N 0.6230(3) 0.1715(2) 0.7467(2)
Cl1 Cl 0.73435(10) 0.46636(7) 0.86728(7)
O1 O 0.8073(4) 0.3607(3) 0.9133(3)
O2 O 0.6438(5) 0.5114(4) 0.9421(3)
O3 O 0.6346(5) 0.4490(3) 0.7548(3)
O4 O 0.8577(4) 0.5445(3) 0.8574(5)
loop_
_geom_bond_atom_site_label_1
_geom_bond_atom_site_label_2
_geom_bond_site_symmetry_1
_geom_bond_site_symmetry_2
Ag1 N1 1_555 1_555
N1 C1 1_555 1_555
C1 H1 1_555 1_555
C2 C1 1_555 1_555
H2 C2 1_555 1_555
C3 C2 1_555 1_555
H3 C3 1_555 1_555
N2 C3 1_555 1_555
C4 N1 1_555 1_555
C5 C4 1_555 1_555
N3 Ag1 1_555 1_555
C6 N3 1_555 1_555
N4 C6 1_555 1_555
C7 N4 1_555 1_555
N5 C5 1_555 1_555
N6 C6 1_555 1_555
H4 N6 1_555 1_555
H5 N6 1_555 1_555
N7 C7 1_555 1_555
H6 N7 1_555 1_555
H7 N7 1_555 1_555
Cl1 O1 1_555 1_555
O2 Cl1 1_555 1_555
O3 Cl1 1_555 1_555
O4 Cl1 1_555 1_555
Ag1C N2 1_555 1_555
N2C Ag1 1_555 1_555
N5C Ag1 1_555 1_555
N2 C4 1_555 1_555
C5 N3 1_555 1_555
C7 N5 1_555 1_555
N5 Ag1C 1_555 1_555

#END
