
#######################################################################
#
#                 Cambridge Crystallographic Data Centre
#                                CCDC 
#
#######################################################################
#
# If this CIF has been generated from an entry in the Cambridge 
# Structural Database, then it will include bibliographic, chemical, 
# crystal, experimental, refinement or atomic coordinate data resulting 
# from the CCDC's data processing and validation procedures.
#
#######################################################################

data_OVUJEV
_symmetry_cell_setting           tetragonal
_symmetry_space_group_name_H-M   'P 4/n c c'
_symmetry_Int_Tables_number      130
_space_group_name_Hall           '-P 4a 2ac'
loop_
_symmetry_equiv_pos_site_id
_symmetry_equiv_pos_as_xyz
1 x,y,z
2 1/2-x,1/2-y,z
3 1/2-y,x,z
4 y,1/2-x,z
5 -x,1/2+y,1/2-z
6 1/2+x,-y,1/2-z
7 1/2+y,1/2+x,1/2-z
8 -y,-x,1/2-z
9 -x,-y,-z
10 1/2+x,1/2+y,-z
11 1/2+y,-x,-z
12 -y,1/2+x,-z
13 x,1/2-y,1/2+z
14 1/2-x,y,1/2+z
15 1/2-y,1/2-x,1/2+z
16 y,x,1/2+z
_cell_length_a                   14.813(2)
_cell_length_b                   14.813(2)
_cell_length_c                   17.093(5)
_cell_angle_alpha                90
_cell_angle_beta                 90
_cell_angle_gamma                90
_cell_volume                     3750.63
loop_
_atom_site_label
_atom_site_type_symbol
_atom_site_fract_x
_atom_site_fract_y
_atom_site_fract_z
C1 C 0.6431(2) 0.0526(2) 0.1022(2)
C2 C 0.7121(3) 0.0911(2) 0.0565(2)
H1 H 0.7412 0.1433 0.0731
C3 C 0.7361(3) 0.0511(3) -0.0127(3)
H2 H 0.7824 0.0771 -0.0417
C4 C 0.6956(3) -0.0249(3) -0.0414(3)
H3 H 0.7148 -0.0513 -0.0878
C5 C 0.6255(3) -0.0609(3) 0.0008(2)
H4 H 0.5949 -0.1108 -0.0187
C6 C 0.5987(2) -0.0236(2) 0.0734(2)
C7 C 0.5213(3) -0.0627(3) 0.1114(2)
H5 H 0.4922 -0.1096 0.0854
C8 C 0.4080(3) -0.0819(2) 0.2071(2)
H6 H 0.4000 -0.1406 0.1829
H7 H 0.3556 -0.0452 0.1952
C9 C 0.3646(2) 0.1873(2) 0.2292(2)
C10 C 0.2500 0.2500 0.1278(4)
Fe1 Fe 0.2500 0.2500 0.23919(6)
Mn1 Mn 0.54650(3) 0.04650(3) 0.2500
N1 N 0.48930(19) -0.0390(2) 0.17706(17)
N2 N 0.43128(19) 0.1493(2) 0.22534(18)
N3 N 0.2500 0.2500 0.0604(4)
N4 N 0.2500 0.2500 0.3375(4)
O1 O 0.62129(15) 0.09136(15) 0.17001(14)
O2 O 0.2500 0.2500 0.4005(3)
C1F C 0.5526(2) 0.1431(2) 0.3978(2)
C1A C -0.1431(2) 0.4474(2) 0.1022(2)
C1G C -0.0526(2) 0.3569(2) 0.3978(2)
C2F C 0.5911(2) 0.2121(3) 0.4435(2)
C2A C -0.2121(3) 0.4089(2) 0.0565(2)
C2G C -0.0911(2) 0.2879(3) 0.4435(2)
H1F H 0.6433 0.2412 0.4269
H1A H -0.2412 0.3567 0.0731
H1G H -0.1433 0.2588 0.4269
C3F C 0.5511(3) 0.2361(3) 0.5127(3)
C3A C -0.2361(3) 0.4489(3) -0.0127(3)
C3G C -0.0511(3) 0.2639(3) 0.5127(3)
H2F H 0.5771 0.2824 0.5417
H2A H -0.2824 0.4229 -0.0417
H2G H -0.0771 0.2176 0.5417
C4F C 0.4751(3) 0.1956(3) 0.5414(3)
C4A C -0.1956(3) 0.5249(3) -0.0414(3)
C4G C 0.0249(3) 0.3044(3) 0.5414(3)
H3F H 0.4487 0.2148 0.5878
H3A H -0.2148 0.5513 -0.0878
H3G H 0.0513 0.2852 0.5878
C5F C 0.4391(3) 0.1255(3) 0.4992(2)
C5A C -0.1255(3) 0.5609(3) 0.0008(2)
C5G C 0.0609(3) 0.3745(3) 0.4992(2)
H4F H 0.3892 0.0949 0.5187
H4A H -0.0949 0.6108 -0.0187
H4G H 0.1108 0.4051 0.5187
C6F C 0.4764(2) 0.0987(2) 0.4266(2)
C6A C -0.0987(2) 0.5236(2) 0.0734(2)
C6G C 0.0236(2) 0.4013(2) 0.4266(2)
C7F C 0.4373(3) 0.0213(3) 0.3886(2)
C7A C -0.0213(3) 0.5627(3) 0.1114(2)
C7G C 0.0627(3) 0.4787(3) 0.3886(2)
H5F H 0.3904 -0.0078 0.4146
H5A H 0.0078 0.6096 0.0854
H5G H 0.1096 0.5078 0.4146
C8F C 0.4181(2) -0.0920(3) 0.2929(2)
C8A C 0.0920(3) 0.5819(2) 0.2071(2)
C8G C 0.0819(2) 0.5920(3) 0.2929(2)
H6F H 0.3594 -0.1000 0.3171
H6A H 0.1000 0.6406 0.1829
H6G H 0.1406 0.6000 0.3171
H7F H 0.4548 -0.1444 0.3048
H7A H 0.1444 0.5452 0.1952
H7G H 0.0452 0.6444 0.3048
C9A C 0.1354(2) 0.3127(2) 0.2292(2)
C9C C 0.1873(2) 0.1354(2) 0.2292(2)
C9B C 0.3127(2) 0.3646(2) 0.2292(2)
Mn1A Mn -0.04650(3) 0.45350(3) 0.2500
Mn1C Mn 0.04650(3) -0.04650(3) 0.2500
Mn1B Mn 0.45350(3) 0.54650(3) 0.2500
N1F N 0.4610(2) -0.01070(19) 0.32294(17)
N1A N 0.01070(19) 0.5390(2) 0.17706(17)
N1G N 0.0390(2) 0.51070(19) 0.32294(17)
N2A N 0.06872(19) 0.3507(2) 0.22534(18)
N2C N 0.1493(2) 0.06872(19) 0.22534(18)
N2B N 0.3507(2) 0.43128(19) 0.22534(18)
N2F N 0.6493(2) -0.06872(19) 0.27466(18)
N2G N -0.1493(2) 0.56872(19) 0.27466(18)
O1F O 0.59136(15) 0.12129(15) 0.32999(14)
O1A O -0.12129(15) 0.40864(15) 0.17001(14)
O1G O -0.09136(15) 0.37871(15) 0.32999(14)
O3 O 0.7500 0.2500 0.2816(2)
H8? H 0.6973 0.2334 0.2681
H9? H 0.7520 0.3073 0.2838
loop_
_geom_bond_atom_site_label_1
_geom_bond_atom_site_label_2
_geom_bond_site_symmetry_1
_geom_bond_site_symmetry_2
C1 C2 1_555 1_555
C2 H1 1_555 1_555
C3 C2 1_555 1_555
H2 C3 1_555 1_555
C4 C3 1_555 1_555
H3 C4 1_555 1_555
C5 C4 1_555 1_555
H4 C5 1_555 1_555
C6 C1 1_555 1_555
C7 C6 1_555 1_555
H5 C7 1_555 1_555
C8 H6 1_555 1_555
H7 C8 1_555 1_555
C9 Fe1 1_555 1_555
C10 Fe1 1_555 1_555
Fe1 N4 1_555 1_555
Mn1 N1 1_555 1_555
N1 C7 1_555 1_555
N2 C9 1_555 1_555
N3 C10 1_555 1_555
N4 O2 1_555 1_555
O1 C1 1_555 1_555
C1F C2F 1_555 1_555
C1A C2A 1_555 1_555
C1G C2G 1_555 1_555
C2F H1F 1_555 1_555
C2A H1A 1_555 1_555
C2G H1G 1_555 1_555
C3F C2F 1_555 1_555
C3A C2A 1_555 1_555
C3G C2G 1_555 1_555
H2F C3F 1_555 1_555
H2A C3A 1_555 1_555
H2G C3G 1_555 1_555
C4F C3F 1_555 1_555
C4A C3A 1_555 1_555
C4G C3G 1_555 1_555
H3F C4F 1_555 1_555
H3A C4A 1_555 1_555
H3G C4G 1_555 1_555
C5F C4F 1_555 1_555
C5A C4A 1_555 1_555
C5G C4G 1_555 1_555
H4F C5F 1_555 1_555
H4A C5A 1_555 1_555
H4G C5G 1_555 1_555
C6F C1F 1_555 1_555
C6A C1A 1_555 1_555
C6G C1G 1_555 1_555
C7F C6F 1_555 1_555
C7A C6A 1_555 1_555
C7G C6G 1_555 1_555
H5F C7F 1_555 1_555
H5A C7A 1_555 1_555
H5G C7G 1_555 1_555
C8F C8 1_555 1_555
C8A C8G 1_555 1_555
C8G H6G 1_555 1_555
H6F C8F 1_555 1_555
H6A C8A 1_555 1_555
H7F C8F 1_555 1_555
H7A C8A 1_555 1_555
H7G C8G 1_555 1_555
C9A Fe1 1_555 1_555
C9C Fe1 1_555 1_555
C9B Fe1 1_555 1_555
Mn1A N1A 1_555 1_555
Mn1C N2C 1_555 1_555
Mn1B N2B 1_555 1_555
N1F Mn1 1_555 1_555
N1A C7A 1_555 1_555
N1G C7G 1_555 1_555
N2A C9A 1_555 1_555
N2C C9C 1_555 1_555
N2B C9B 1_555 1_555
N2F Mn1 1_555 1_555
N2G Mn1A 1_555 1_555
O1F Mn1 1_555 1_555
O1A C1A 1_555 1_555
O1G C1G 1_555 1_555
C5 C6 1_555 1_555
C8 N1 1_555 1_555
Mn1 N2 1_555 1_555
Mn1 O1 1_555 1_555
C1F O1F 1_555 1_555
C5F C6F 1_555 1_555
C5A C6A 1_555 1_555
C5G C6G 1_555 1_555
C7F N1F 1_555 1_555
C8F N1F 1_555 1_555
C8A N1A 1_555 1_555
C8G N1G 1_555 1_555
Mn1A N1G 1_555 1_555
Mn1A N2A 1_555 1_555
Mn1A O1A 1_555 1_555
Mn1A O1G 1_555 1_555

#END
