
#######################################################################
#
#                 Cambridge Crystallographic Data Centre
#                                CCDC 
#
#######################################################################
#
# If this CIF has been generated from an entry in the Cambridge 
# Structural Database, then it will include bibliographic, chemical, 
# crystal, experimental, refinement or atomic coordinate data resulting 
# from the CCDC's data processing and validation procedures.
#
#######################################################################

data_OVUNOJ
_symmetry_cell_setting           orthorhombic
_symmetry_space_group_name_H-M   'P 21 21 21'
_symmetry_Int_Tables_number      19
_space_group_name_Hall           'P 2ac 2ab'
loop_
_symmetry_equiv_pos_site_id
_symmetry_equiv_pos_as_xyz
1 x,y,z
2 1/2-x,-y,1/2+z
3 -x,1/2+y,1/2-z
4 1/2+x,1/2-y,-z
_cell_length_a                   9.23(4)
_cell_length_b                   9.46(4)
_cell_length_c                   14.73(6)
_cell_angle_alpha                90
_cell_angle_beta                 90
_cell_angle_gamma                90
_cell_volume                     1286.16
loop_
_atom_site_label
_atom_site_type_symbol
_atom_site_fract_x
_atom_site_fract_y
_atom_site_fract_z
N1 N 0.2111(6) 0.2595(7) 0.5696(4)
N2 N 0.0803(6) 0.5874(6) 0.6700(4)
C1 C -0.0114(9) 0.0535(7) 0.3341(4)
N3 N -0.1097(7) 0.0927(6) 0.2746(4)
C2 C 0.1101(9) 0.1717(7) 0.2275(5)
H1 H 0.1826 0.2165 0.1944
C3 C 0.2605(8) 0.1246(9) 0.5961(5)
H2 H 0.2723 0.0955 0.6560
C4 C 0.0499(8) 0.6829(8) 0.6032(5)
H3 H 0.0832 0.6769 0.5438
C5 C 0.0060(8) 0.6414(8) 0.7414(5)
H4 H 0.0043 0.5965 0.7976
C6 C 0.2125(8) 0.2537(9) 0.4798(5)
N4 N 0.2562(6) 0.1277(7) 0.4473(3)
C7 C 0.2881(8) 0.0444(8) 0.5233(5)
H5 H 0.3217 -0.0482 0.5233
C8 C 0.1700(8) 0.3747(8) 0.4205(5)
H6 H 0.1454 0.4546 0.4576
H7 H 0.0878 0.3484 0.3843
H8 H 0.2495 0.3990 0.3814
C9 C 0.2650(8) 0.0785(8) 0.3530(4)
H9 H 0.2919 -0.0206 0.3520
H10 H 0.3392 0.1314 0.3210
N5 N 0.1236(6) 0.0976(6) 0.3069(3)
N6 N -0.0646(6) 0.7622(7) 0.7270(4)
C10 C -0.0344(11) 0.1644(7) 0.2082(5)
H11 H -0.0768 0.2031 0.1566
C11 C -0.0339(8) -0.0229(8) 0.4218(4)
H12 H -0.1350 -0.0438 0.4292
H13 H -0.0016 0.0353 0.4711
H14 H 0.0204 -0.1094 0.4213
C12 C -0.0362(8) 0.7880(8) 0.6358(4)
H15 H -0.0705 0.8646 0.6025
Li1 Li 0.1737(13) 0.3903(12) 0.6836(8)
N3C N 0.3903(7) 0.4073(6) 0.7254(4)
N6B N 0.0646(6) 0.2622(7) 0.7730(4)
Li1C Li -0.3263(13) 0.1097(12) 0.3164(8)
Li1B Li -0.1737(13) 0.8903(12) 0.8164(8)
loop_
_geom_bond_atom_site_label_1
_geom_bond_atom_site_label_2
_geom_bond_site_symmetry_1
_geom_bond_site_symmetry_2
N1 C3 1_555 1_555
N2 C4 1_555 1_555
C1 N3 1_555 1_555
N3 C10 1_555 1_555
C2 H1 1_555 1_555
C3 H2 1_555 1_555
C4 H3 1_555 1_555
C5 N2 1_555 1_555
H4 C5 1_555 1_555
C6 N1 1_555 1_555
N4 C6 1_555 1_555
C7 C3 1_555 1_555
H5 C7 1_555 1_555
C8 C6 1_555 1_555
H6 C8 1_555 1_555
H7 C8 1_555 1_555
H8 C8 1_555 1_555
C9 N4 1_555 1_555
H9 C9 1_555 1_555
H10 C9 1_555 1_555
N5 C1 1_555 1_555
N6 C5 1_555 1_555
C10 C2 1_555 1_555
H11 C10 1_555 1_555
C11 C1 1_555 1_555
H12 C11 1_555 1_555
H13 C11 1_555 1_555
H14 C11 1_555 1_555
C12 C4 1_555 1_555
H15 C12 1_555 1_555
Li1 N1 1_555 1_555
N3C Li1 1_555 1_555
N6B Li1 1_555 1_555
Li1C N3 1_555 1_555
Li1B N6 1_555 1_555
N2 Li1 1_555 1_555
C2 N5 1_555 1_555
N4 C7 1_555 1_555
C9 N5 1_555 1_555
N6 C12 1_555 1_555

#END
