
#######################################################################
#
#                 Cambridge Crystallographic Data Centre
#                                CCDC 
#
#######################################################################
#
# If this CIF has been generated from an entry in the Cambridge 
# Structural Database, then it will include bibliographic, chemical, 
# crystal, experimental, refinement or atomic coordinate data resulting 
# from the CCDC's data processing and validation procedures.
#
#######################################################################

data_OVUNID
_symmetry_cell_setting           trigonal
_symmetry_space_group_name_H-M   'P 32'
_symmetry_Int_Tables_number      145
_space_group_name_Hall           'P 32'
loop_
_symmetry_equiv_pos_site_id
_symmetry_equiv_pos_as_xyz
1 x,y,z
2 -y,x-y,2/3+z
3 -x+y,-x,1/3+z
_cell_length_a                   8.9721(8)
_cell_length_b                   8.9721(8)
_cell_length_c                   15.304(3)
_cell_angle_alpha                90
_cell_angle_beta                 90
_cell_angle_gamma                120
_cell_volume                     1066.9
loop_
_atom_site_label
_atom_site_type_symbol
_atom_site_fract_x
_atom_site_fract_y
_atom_site_fract_z
N1 N -1.0492(4) 0.1844(5) 0.2176(2)
C1 C -0.4684(5) 0.2495(6) -0.1266(4)
H1 H -0.4219 0.3678 -0.1208
N2 N -0.7188(5) -0.0361(5) 0.1780(2)
N3 N -0.8697(4) 0.0640(4) 0.2442(2)
C2 C -0.4959(5) 0.1520(6) -0.0538(3)
H2 H -0.4681 0.2023 0.0013
C3 C -0.6096(5) -0.1010(6) -0.1470(3)
N4 N -1.2955(5) 0.0758(5) 0.1458(3)
C4 C -0.5084(5) 0.1757(6) -0.2099(3)
H3 H -0.4866 0.2458 -0.2585
N5 N -0.6074(4) -0.1531(5) -0.0027(2)
C5 C -0.9232(5) 0.1820(6) 0.2759(3)
H4 H -0.8239 0.2968 0.2801
H5 H -0.9724 0.1470 0.3338
C6 C -0.5668(5) -0.0253(5) -0.0639(3)
C7 C -0.5799(5) 0.0002(6) -0.2212(3)
H6 H -0.6073 -0.0488 -0.2766
N6 N -0.6824(4) -0.2779(4) -0.1385(2)
C8 C -1.1650(7) 0.2048(6) 0.0970(3)
H7 H -1.1793 0.2414 0.0424
C9 C -1.0143(6) 0.2698(5) 0.1399(3)
H8 H -0.9074 0.3559 0.1204
C10 C -1.2193(6) 0.0689(5) 0.2171(3)
H9 H -1.2762 -0.0074 0.2626
C11 C -0.7209(6) 0.1019(6) 0.2029(3)
H10 H -0.6308 0.2134 0.1935
C12 C -0.9686(6) -0.1121(6) 0.2443(3)
H11 H -1.0783 -0.1779 0.2678
Li1 Li -0.5570(9) -0.1071(9) 0.1245(5)
C13 C -0.8749(7) -0.1702(7) 0.2035(4)
H12 H -0.9111 -0.2858 0.1940
C14 C -0.6754(5) -0.2947(6) -0.0518(3)
H13 H -0.7168 -0.4026 -0.0266
N4_2 N -0.2955(5) 0.0758(5) 0.1458(3)
N6B N -0.5955(6) -0.3176(4) 0.1948(2)
Li1_2 Li -1.5570(9) -0.1071(9) 0.1245(5)
Li1A Li -0.8929(9) -0.4499(13) -0.2088(5)
loop_
_geom_bond_atom_site_label_1
_geom_bond_atom_site_label_2
_geom_bond_site_symmetry_1
_geom_bond_site_symmetry_2
N1 C5 1_555 1_555
C1 H1 1_555 1_555
N2 C11 1_555 1_555
N3 C5 1_555 1_555
C2 C1 1_555 1_555
H2 C2 1_555 1_555
C3 C6 1_555 1_555
N4 C8 1_555 1_555
C4 C1 1_555 1_555
H3 C4 1_555 1_555
N5 C6 1_555 1_555
C5 H4 1_555 1_555
H5 C5 1_555 1_555
C6 C2 1_555 1_555
C7 C3 1_555 1_555
H6 C7 1_555 1_555
N6 C3 1_555 1_555
C8 H7 1_555 1_555
C9 N1 1_555 1_555
H8 C9 1_555 1_555
C10 N1 1_555 1_555
H9 C10 1_555 1_555
C11 N3 1_555 1_555
H10 C11 1_555 1_555
C12 N3 1_555 1_555
H11 C12 1_555 1_555
Li1 N2 1_555 1_555
C13 N2 1_555 1_555
H12 C13 1_555 1_555
C14 N5 1_555 1_555
H13 C14 1_555 1_555
N4_2 Li1 1_555 1_555
N6B Li1 1_555 1_555
Li1_2 N4 1_555 1_555
Li1A N6 1_555 1_555
N4 C10 1_555 1_555
C4 C7 1_555 1_555
N5 Li1 1_555 1_555
N6 C14 1_555 1_555
C8 C9 1_555 1_555
C12 C13 1_555 1_555

#END
