
#######################################################################
#
#                 Cambridge Crystallographic Data Centre
#                                CCDC 
#
#######################################################################
#
# If this CIF has been generated from an entry in the Cambridge 
# Structural Database, then it will include bibliographic, chemical, 
# crystal, experimental, refinement or atomic coordinate data resulting 
# from the CCDC's data processing and validation procedures.
#
#######################################################################

data_OVURUT
_symmetry_cell_setting           triclinic
_symmetry_space_group_name_H-M   'P -1'
_symmetry_Int_Tables_number      2
_space_group_name_Hall           '-P 1'
loop_
_symmetry_equiv_pos_site_id
_symmetry_equiv_pos_as_xyz
1 x,y,z
2 -x,-y,-z
_cell_length_a                   9.7813(8)
_cell_length_b                   9.9448(9)
_cell_length_c                   12.5211(11)
_cell_angle_alpha                84.787(2)
_cell_angle_beta                 80.688(1)
_cell_angle_gamma                88.797(1)
_cell_volume                     1196.92
loop_
_atom_site_label
_atom_site_type_symbol
_atom_site_fract_x
_atom_site_fract_y
_atom_site_fract_z
Co1 Co 0.05413(4) 0.87484(4) 0.60398(3)
Co2 Co -0.39942(4) 0.62704(4) 0.41416(3)
O1 O 0.0444(2) 0.8726(2) 0.76116(17)
O2 O -0.0947(3) 0.6985(3) 0.8161(2)
O3 O 0.2101(4) 0.8747(4) 1.2723(2)
O4 O 0.0845(4) 0.7014(3) 1.3280(2)
O5 O -0.3973(2) 0.6848(2) 0.25944(17)
O6 O -0.5585(3) 0.5288(3) 0.2800(2)
O7 O -0.4824(8) 0.8436(7) -0.2710(4)
O8 O -0.6675(6) 0.7202(7) -0.2435(4)
N1 N -0.1159(2) 0.8608(2) 0.53788(18)
N2 N -0.1218(2) 0.9358(2) 0.43711(19)
N3 N -0.2602(2) 0.7564(2) 0.45136(19)
N4 N -0.2471(3) 0.9120(3) 0.2947(2)
H1 H -0.2918 0.8576 0.2583
H2 H -0.2080 0.9835 0.2523
N5 N -0.2159(3) 0.6574(3) 0.6239(2)
H3 H -0.2875 0.5999 0.6324
H4 H -0.1958 0.6804 0.6874
N6 N 0.4166(2) 0.6640(2) 0.49917(19)
N7 N 0.3289(2) 0.5556(2) 0.54404(19)
N8 N 0.2042(2) 0.7461(2) 0.54902(18)
N9 N 0.0923(3) 0.5367(3) 0.6179(2)
H5 H 0.0066 0.5712 0.6176
H6 H 0.0958 0.4466 0.6147
N10 N 0.3845(3) 0.9010(2) 0.4690(2)
H7 H 0.4738 0.9070 0.4374
H8 H 0.3275 0.9520 0.4320
N11 N 0.1321(3) 0.7870(3) 1.2579(2)
N12 N -0.5714(7) 0.7676(7) -0.2158(4)
C1 C -0.2085(3) 0.8699(3) 0.3903(2)
C2 C -0.2000(3) 0.7564(3) 0.5419(2)
C3 C 0.2054(3) 0.6100(3) 0.5705(2)
C4 C 0.3379(3) 0.7730(3) 0.5037(2)
C5 C 0.0240(3) 0.7857(3) 0.9449(2)
C6 C 0.1125(4) 0.8816(4) 0.9674(3)
H9 H 0.1495 0.9463 0.9126
C7 C 0.1471(4) 0.8832(4) 1.0698(3)
H10 H 0.2059 0.9489 1.0847
C8 C 0.0931(3) 0.7862(3) 1.1491(3)
C9 C 0.0060(4) 0.6888(4) 1.1295(3)
H11 H -0.0291 0.6233 1.1844
C10 C -0.0290(4) 0.6891(4) 1.0270(3)
H12 H -0.0888 0.6238 1.0129
C11 C -0.0139(3) 0.7831(3) 0.8325(3)
C12 C -0.5126(4) 0.6601(4) 0.1100(3)
C13 C -0.6182(4) 0.6014(4) 0.0689(3)
H13 H -0.6772 0.5387 0.1119
C14 C -0.6338(5) 0.6394(6) -0.0399(4)
H14 H -0.7043 0.6024 -0.0694
C15 C -0.5456(6) 0.7301(6) -0.1013(4)
C16 C -0.4416(6) 0.7862(6) -0.0635(4)
H15 H -0.3815 0.8466 -0.1081
C17 C -0.4259(5) 0.7520(5) 0.0430(3)
H16 H -0.3553 0.7915 0.0707
C18 C -0.4909(3) 0.6195(3) 0.2248(3)
Co1A Co -0.05413(4) 1.12516(4) 0.39602(3)
Co2_2 Co 0.60058(4) 0.62704(4) 0.41416(3)
Co2A Co 0.39942(4) 0.37296(4) 0.58584(3)
N2A N 0.1218(2) 1.0642(2) 0.56289(19)
N6_2 N -0.5834(2) 0.6640(2) 0.49917(19)
N7A N -0.3289(2) 0.4444(2) 0.45596(19)
loop_
_geom_bond_atom_site_label_1
_geom_bond_atom_site_label_2
_geom_bond_site_symmetry_1
_geom_bond_site_symmetry_2
Co1 O1 1_555 1_555
Co2 O5 1_555 1_555
O1 C11 1_555 1_555
O2 C11 1_555 1_555
O3 N11 1_555 1_555
O4 N11 1_555 1_555
O5 C18 1_555 1_555
O6 C18 1_555 1_555
O7 N12 1_555 1_555
O8 N12 1_555 1_555
N1 Co1 1_555 1_555
N2 N1 1_555 1_555
N3 Co2 1_555 1_555
N4 H1 1_555 1_555
H2 N4 1_555 1_555
N5 H3 1_555 1_555
H4 N5 1_555 1_555
N6 N7 1_555 1_555
N7 C3 1_555 1_555
N8 Co1 1_555 1_555
N9 H5 1_555 1_555
H6 N9 1_555 1_555
N10 H7 1_555 1_555
H8 N10 1_555 1_555
N11 C8 1_555 1_555
N12 C15 1_555 1_555
C1 N2 1_555 1_555
C2 N1 1_555 1_555
C3 N8 1_555 1_555
C4 N6 1_555 1_555
C5 C6 1_555 1_555
C6 H9 1_555 1_555
C7 C6 1_555 1_555
H10 C7 1_555 1_555
C8 C7 1_555 1_555
C9 C8 1_555 1_555
H11 C9 1_555 1_555
C10 C5 1_555 1_555
H12 C10 1_555 1_555
C11 C5 1_555 1_555
C12 C13 1_555 1_555
C13 H13 1_555 1_555
C14 C13 1_555 1_555
H14 C14 1_555 1_555
C15 C14 1_555 1_555
C16 C15 1_555 1_555
H15 C16 1_555 1_555
C17 C12 1_555 1_555
H16 C17 1_555 1_555
C18 C12 1_555 1_555
Co1A N2 1_555 1_555
Co2_2 N6 1_555 1_555
Co2A N7 1_555 1_555
N2A Co1 1_555 1_555
N6_2 Co2 1_555 1_555
N7A Co2 1_555 1_555
N3 C1 1_555 1_555
N3 C2 1_555 1_555
N4 C1 1_555 1_555
N5 C2 1_555 1_555
N8 C4 1_555 1_555
N9 C3 1_555 1_555
N10 C4 1_555 1_555
C9 C10 1_555 1_555
C16 C17 1_555 1_555

#END
