
#######################################################################
#
#                 Cambridge Crystallographic Data Centre
#                                CCDC 
#
#######################################################################
#
# If this CIF has been generated from an entry in the Cambridge 
# Structural Database, then it will include bibliographic, chemical, 
# crystal, experimental, refinement or atomic coordinate data resulting 
# from the CCDC's data processing and validation procedures.
#
#######################################################################

data_OVUTEF
_symmetry_cell_setting           monoclinic
_symmetry_space_group_name_H-M   'P 21/c'
_symmetry_Int_Tables_number      14
_space_group_name_Hall           '-P 2ybc'
loop_
_symmetry_equiv_pos_site_id
_symmetry_equiv_pos_as_xyz
1 x,y,z
2 -x,1/2+y,1/2-z
3 -x,-y,-z
4 x,1/2-y,1/2+z
_cell_length_a                   6.9567(11)
_cell_length_b                   18.683(3)
_cell_length_c                   8.8698(14)
_cell_angle_alpha                90
_cell_angle_beta                 100.193(2)
_cell_angle_gamma                90
_cell_volume                     1134.63
loop_
_atom_site_label
_atom_site_type_symbol
_atom_site_fract_x
_atom_site_fract_y
_atom_site_fract_z
Sm1 Sm 0.22763(2) 0.451986(8) 0.401078(17)
O1 O 0.3318(3) 0.33244(13) 0.4011(3)
O2 O 0.5950(4) 0.43997(13) 0.4883(3)
O3 O 0.8917(3) 0.42780(12) 0.4369(3)
O4 O 0.3973(4) 0.4715(2) 0.1908(3)
O5 O 0.0377(4) 0.39550(14) 0.1656(3)
N1 N 0.4607(5) 0.22913(15) 0.3403(4)
H1 H 0.3480 0.2101 0.3395
C1 C 0.4819(5) 0.30020(17) 0.3783(4)
C2 C 0.6749(5) 0.32837(18) 0.3845(4)
C3 C 0.8192(5) 0.28505(19) 0.3474(5)
H2 H 0.9441 0.3036 0.3522
C4 C 0.7837(6) 0.2139(2) 0.3026(7)
H3 H 0.8811 0.1860 0.2727
C5 C 0.6035(6) 0.1866(2) 0.3040(6)
H4 H 0.5779 0.1387 0.2800
C6 C 0.7234(4) 0.40285(17) 0.4378(4)
S1 S -0.15652(12) 0.56323(4) 0.20062(9)
O6 O 0.0534(4) 0.54707(11) 0.2490(4)
O7 O -0.2518(3) 0.50185(16) 0.1130(3)
O8 O -0.2502(4) 0.57547(14) 0.3354(3)
O9 O -0.1803(4) 0.62786(15) 0.1047(3)
H5 H 0.514(6) 0.488(6) 0.206(7)
H6 H 0.342(7) 0.468(3) 0.097(2)
H7 H 0.073(7) 0.386(2) 0.080(3)
H8 H -0.036(12) 0.432(3) 0.166(6)
Sm1B Sm 0.77237(2) 0.548014(8) 0.598922(17)
Sm1_2 Sm 1.22763(2) 0.451986(8) 0.401078(17)
Sm1B_2 Sm -0.22763(2) 0.548014(8) 0.598922(17)
O2B O 0.4050(4) 0.56003(13) 0.5117(3)
O3_2 O -0.1083(3) 0.42780(12) 0.4369(3)
O3B O 0.1083(3) 0.57220(12) 0.5631(3)
O8B O 0.2502(4) 0.42453(14) 0.6646(3)
loop_
_geom_bond_atom_site_label_1
_geom_bond_atom_site_label_2
_geom_bond_site_symmetry_1
_geom_bond_site_symmetry_2
Sm1 O1 1_555 1_555
O1 C1 1_555 1_555
O2 Sm1 1_555 1_555
O3 C6 1_555 1_555
O4 Sm1 1_555 1_555
O5 Sm1 1_555 1_555
N1 H1 1_555 1_555
C1 N1 1_555 1_555
C2 C1 1_555 1_555
C3 C2 1_555 1_555
H2 C3 1_555 1_555
C4 C3 1_555 1_555
H3 C4 1_555 1_555
C5 N1 1_555 1_555
H4 C5 1_555 1_555
C6 O2 1_555 1_555
S1 O6 1_555 1_555
O6 Sm1 1_555 1_555
O7 S1 1_555 1_555
O8 S1 1_555 1_555
O9 S1 1_555 1_555
H5 O4 1_555 1_555
H6 O4 1_555 1_555
H7 O5 1_555 1_555
H8 O5 1_555 1_555
Sm1B O2 1_555 1_555
Sm1_2 O3 1_555 1_555
Sm1B_2 O8 1_555 1_555
O2B Sm1 1_555 1_555
O3_2 Sm1 1_555 1_555
O3B Sm1 1_555 1_555
O8B Sm1 1_555 1_555
O3 Sm1B 1_555 1_555
C2 C6 1_555 1_555
C4 C5 1_555 1_555
Sm1B O2B 1_555 1_555
Sm1B_2 O3_2 1_555 1_555
Sm1B_2 O3B 1_555 1_555

#END
