
#######################################################################
#
#                 Cambridge Crystallographic Data Centre
#                                CCDC 
#
#######################################################################
#
# If this CIF has been generated from an entry in the Cambridge 
# Structural Database, then it will include bibliographic, chemical, 
# crystal, experimental, refinement or atomic coordinate data resulting 
# from the CCDC's data processing and validation procedures.
#
#######################################################################

data_OVUVAD
_symmetry_cell_setting           monoclinic
_symmetry_space_group_name_H-M   'P 2/n'
_symmetry_Int_Tables_number      13
_space_group_name_Hall           '-P 2yac'
loop_
_symmetry_equiv_pos_site_id
_symmetry_equiv_pos_as_xyz
1 x,y,z
2 1/2-x,y,1/2-z
3 -x,-y,-z
4 1/2+x,-y,1/2+z
_cell_length_a                   9.917(2)
_cell_length_b                   6.4244(13)
_cell_length_c                   28.454(6)
_cell_angle_alpha                90
_cell_angle_beta                 93.64(3)
_cell_angle_gamma                90
_cell_volume                     1809.17
loop_
_atom_site_label
_atom_site_type_symbol
_atom_site_fract_x
_atom_site_fract_y
_atom_site_fract_z
Tb1 Tb 0.7500 0.17239(3) 0.2500
Tb2 Tb 1.2500 -0.31880(3) 0.2500
O1 O 1.1104(2) -0.2167(3) 0.30637(8)
O2 O 0.9480(2) -0.0167(3) 0.27136(8)
O3 O 0.7110(2) -0.0382(3) 0.31537(8)
O4 O 0.8244(2) 0.3802(3) 0.31633(8)
O5 O 0.5638(2) 0.3688(3) 0.27034(8)
O6 O 0.4236(2) 0.5737(3) 0.30495(8)
O7 O 1.3550(2) -0.0083(3) 0.29008(8)
O8 O 1.1695(2) -0.6372(4) 0.28928(8)
N1 N 0.7433(3) -0.0755(4) 0.39489(10)
N2 N 0.8303(3) 0.4006(4) 0.39574(9)
C1 C 1.0009(3) -0.1161(5) 0.30676(11)
C2 C 0.9363(3) -0.1101(5) 0.35188(11)
C3 C 1.0134(3) -0.1396(5) 0.39435(12)
H1 H 1.1075 -0.1659 0.3936
C4 C 0.9562(3) -0.1316(5) 0.43732(12)
H2 H 1.0091 -0.1461 0.4662
C5 C 0.8196(3) -0.1017(5) 0.43625(12)
H3 H 0.7763 -0.0991 0.4651
C6 C 0.7930(3) -0.0716(5) 0.35121(11)
C7 C 0.5308(3) 0.4678(5) 0.30586(11)
C8 C 0.6172(3) 0.4513(5) 0.35160(11)
C9 C 0.5613(3) 0.4737(5) 0.39342(12)
H4 H 0.4678 0.5058 0.3937
C10 C 0.6385(3) 0.4504(5) 0.43707(12)
H5 H 0.5956 0.4580 0.4659
C11 C 0.7736(3) 0.4175(5) 0.43723(12)
H6 H 0.8270 0.4066 0.4660
C12 C 0.7596(3) 0.4086(5) 0.35184(11)
H7 H 0.6537(11) -0.063(6) 0.3934(14)
H8 H 0.9190(12) 0.378(6) 0.3976(14)
H9 H 1.4366(19) 0.004(6) 0.283(2)
H10 H 1.307(3) 0.100(4) 0.2905(15)
H11 H 1.0920(18) -0.652(5) 0.2749(9)
H12 H 1.169(3) -0.617(6) 0.3188(4)
Tb2_2 Tb 0.2500 0.68120(3) 0.2500
Tb2_3 Tb 0.2500 -0.31880(3) 0.2500
Tb2_4 Tb 1.2500 0.68120(3) 0.2500
O1A O 0.3896(2) -0.2167(3) 0.19363(8)
O1A_2 O 1.3896(2) -0.2167(3) 0.19363(8)
O2A O 0.5520(2) -0.0167(3) 0.22864(8)
O3A O 0.7890(2) -0.0382(3) 0.18463(8)
O4A O 0.6756(2) 0.3802(3) 0.18367(8)
O5A O 0.9362(2) 0.3688(3) 0.22966(8)
O6A O 1.0764(2) 0.5737(3) 0.19505(8)
O6_2 O 1.4236(2) -0.4263(3) 0.30495(8)
O6A_2 O 1.0764(2) -0.4263(3) 0.19505(8)
O7A O 1.1450(2) -0.0083(3) 0.20992(8)
O8A O 1.3305(2) -0.6372(4) 0.21072(8)
N1A N 0.7567(3) -0.0755(4) 0.10511(10)
N2A N 0.6697(3) 0.4006(4) 0.10426(9)
C1A C 0.4991(3) -0.1161(5) 0.19324(11)
C2A C 0.5637(3) -0.1101(5) 0.14812(11)
C3A C 0.4866(3) -0.1396(5) 0.10565(12)
H1A H 0.3925 -0.1659 0.1064
C4A C 0.5438(3) -0.1316(5) 0.06268(12)
H2A H 0.4909 -0.1461 0.0338
C5A C 0.6804(3) -0.1017(5) 0.06375(12)
H3A H 0.7237 -0.0991 0.0349
C6A C 0.7070(3) -0.0716(5) 0.14879(11)
C7A C 0.9692(3) 0.4678(5) 0.19414(11)
C8A C 0.8828(3) 0.4513(5) 0.14840(11)
C9A C 0.9387(3) 0.4737(5) 0.10658(12)
H4A H 1.0322 0.5058 0.1063
C10A C 0.8615(3) 0.4504(5) 0.06293(12)
H5A H 0.9044 0.4580 0.0341
C11A C 0.7264(3) 0.4175(5) 0.06277(12)
H6A H 0.6730 0.4066 0.0340
C12A C 0.7404(3) 0.4086(5) 0.14816(11)
H7A H 0.8463(11) -0.063(6) 0.1066(14)
H8A H 0.5810(12) 0.378(6) 0.1024(14)
H9A H 1.0634(19) 0.004(6) 0.217(2)
H10A H 1.193(3) 0.100(4) 0.2095(15)
H11A H 1.4080(18) -0.652(5) 0.2251(9)
H12A H 1.331(3) -0.617(6) 0.1812(4)
Cl1 Cl 0.19699(8) 0.35630(13) 0.43576(3)
O9 O 0.2805(3) 0.1783(4) 0.44807(11)
O10 O 0.2746(2) 0.5428(4) 0.44254(10)
O11 O 0.0862(2) 0.3592(4) 0.46494(9)
O12 O 0.1386(3) 0.3407(4) 0.38705(9)
O13 O 0.4624(2) 0.9519(4) 0.39047(10)
H13 H 0.412(3) 1.009(6) 0.4100(9)
H14 H 0.424(3) 0.926(7) 0.3635(7)
loop_
_geom_bond_atom_site_label_1
_geom_bond_atom_site_label_2
_geom_bond_site_symmetry_1
_geom_bond_site_symmetry_2
Tb1 O2 1_555 1_555
Tb2 O1 1_555 1_555
O1 C1 1_555 1_555
O2 C1 1_555 1_555
O3 Tb1 1_555 1_555
O4 Tb1 1_555 1_555
O5 Tb1 1_555 1_555
O6 C7 1_555 1_555
O7 Tb2 1_555 1_555
O8 Tb2 1_555 1_555
N1 C5 1_555 1_555
N2 C11 1_555 1_555
C1 C2 1_555 1_555
C2 C3 1_555 1_555
C3 H1 1_555 1_555
C4 C3 1_555 1_555
H2 C4 1_555 1_555
C5 C4 1_555 1_555
H3 C5 1_555 1_555
C6 O3 1_555 1_555
C7 O5 1_555 1_555
C8 C7 1_555 1_555
C9 C8 1_555 1_555
H4 C9 1_555 1_555
C10 C9 1_555 1_555
H5 C10 1_555 1_555
C11 C10 1_555 1_555
H6 C11 1_555 1_555
C12 O4 1_555 1_555
Cl1 O9 1_555 1_555
O10 Cl1 1_555 1_555
O11 Cl1 1_555 1_555
O12 Cl1 1_555 1_555
O13 H13 1_555 1_555
H7 N1 1_555 1_555
H8 N2 1_555 1_555
H9 O7 1_555 1_555
H10 O7 1_555 1_555
H11 O8 1_555 1_555
H12 O8 1_555 1_555
H14 O13 1_555 1_555
Tb2_2 O6 1_555 1_555
Tb2_3 O1A 1_555 1_555
Tb2_4 O6A 1_555 1_555
O1A C1A 1_555 1_555
O1A_2 Tb2 1_555 1_555
O2A Tb1 1_555 1_555
O3A Tb1 1_555 1_555
O4A Tb1 1_555 1_555
O5A Tb1 1_555 1_555
O6A C7A 1_555 1_555
O6_2 Tb2 1_555 1_555
O6A_2 Tb2 1_555 1_555
O7A Tb2 1_555 1_555
O8A Tb2 1_555 1_555
N1A C5A 1_555 1_555
N2A C11A 1_555 1_555
C1A O2A 1_555 1_555
C2A C1A 1_555 1_555
C3A C2A 1_555 1_555
H1A C3A 1_555 1_555
C4A C3A 1_555 1_555
H2A C4A 1_555 1_555
C5A C4A 1_555 1_555
H3A C5A 1_555 1_555
C6A O3A 1_555 1_555
C7A O5A 1_555 1_555
C8A C7A 1_555 1_555
C9A C8A 1_555 1_555
H4A C9A 1_555 1_555
C10A C9A 1_555 1_555
H5A C10A 1_555 1_555
C11A C10A 1_555 1_555
H6A C11A 1_555 1_555
C12A O4A 1_555 1_555
H7A N1A 1_555 1_555
H8A N2A 1_555 1_555
H9A O7A 1_555 1_555
H10A O7A 1_555 1_555
H11A O8A 1_555 1_555
H12A O8A 1_555 1_555
N1 C6 1_555 1_555
N2 C12 1_555 1_555
C2 C6 1_555 1_555
C8 C12 1_555 1_555
N1A C6A 1_555 1_555
N2A C12A 1_555 1_555
C2A C6A 1_555 1_555
C8A C12A 1_555 1_555

#END
