
#######################################################################
#
#                 Cambridge Crystallographic Data Centre
#                                CCDC 
#
#######################################################################
#
# If this CIF has been generated from an entry in the Cambridge 
# Structural Database, then it will include bibliographic, chemical, 
# crystal, experimental, refinement or atomic coordinate data resulting 
# from the CCDC's data processing and validation procedures.
#
#######################################################################

data_OVUVEH
_symmetry_cell_setting           monoclinic
_symmetry_space_group_name_H-M   'P 2/c'
_symmetry_Int_Tables_number      13
_space_group_name_Hall           '-P 2yc'
loop_
_symmetry_equiv_pos_site_id
_symmetry_equiv_pos_as_xyz
1 x,y,z
2 -x,y,1/2-z
3 -x,-y,-z
4 x,-y,1/2+z
_cell_length_a                   9.931(8)
_cell_length_b                   6.430(5)
_cell_length_c                   29.270(19)
_cell_angle_alpha                90
_cell_angle_beta                 103.96(2)
_cell_angle_gamma                90
_cell_volume                     1813.87
loop_
_atom_site_label
_atom_site_type_symbol
_atom_site_fract_x
_atom_site_fract_y
_atom_site_fract_z
Dy1 Dy 0.5000 0.82903(5) 0.7500
Dy2 Dy 1.0000 0.32034(5) 0.7500
O1 O 0.4910(3) 0.6219(5) 0.81586(10)
O2 O 0.7056(3) 0.6327(5) 0.76990(10)
O3 O 0.8809(3) 0.4272(5) 0.80455(10)
O4 O 0.6049(3) 1.0386(5) 0.81500(10)
O5 O 0.3234(3) 1.0192(5) 0.77107(10)
O6 O 0.1955(3) 1.2184(5) 0.80599(10)
O7 O 1.1192(3) 0.6388(5) 0.78930(10)
H1 H 1.1478 0.6280 0.8192
H2 H 1.1828 0.6408 0.7742
O8 O 0.9357(3) 0.0104(5) 0.79033(10)
H3 H 0.9874 -0.0918 0.7876
H4 H 0.8491 -0.0051 0.7791
N1 N 0.5650(4) 0.6016(6) 0.89566(12)
H5 H 0.4784 0.6208 0.8971
N2 N 0.6510(4) 1.0753(6) 0.89447(13)
H6 H 0.7393 1.0571 0.8952
C1 C 0.5914(5) 0.5926(7) 0.85150(14)
C2 C 0.7328(4) 0.5501(7) 0.85129(14)
C3 C 0.8319(5) 0.5274(7) 0.89303(14)
H7 H 0.9245 0.4946 0.8922
C4 C 0.7987(5) 0.5518(7) 0.93712(14)
H8 H 0.8687 0.5465 0.9657
C5 C 0.6625(5) 0.5831(7) 0.93719(15)
H9 H 0.6358 0.5920 0.9662
C6 C 0.7750(5) 0.5328(7) 0.80551(15)
C7 C 0.5579(4) 1.0737(7) 0.85088(14)
C8 C 0.4148(4) 1.1114(7) 0.85158(14)
C9 C 0.3791(5) 1.1417(7) 0.89386(15)
H10 H 0.2851 1.1687 0.8940
C10 C 0.4802(5) 1.1329(7) 0.93684(16)
H11 H 0.4546 1.1477 0.9659
C11 C 0.6164(5) 1.1027(7) 0.93603(15)
H12 H 0.6864 1.1010 0.9646
C12 C 0.3057(5) 1.1199(7) 0.80660(15)
Dy2_2 Dy 0.0000 1.32034(5) 0.7500
Dy2_3 Dy 0.0000 0.32034(5) 0.7500
Dy2_4 Dy 1.0000 1.32034(5) 0.7500
O1A O 0.5090(3) 0.6219(5) 0.68414(10)
O2A O 0.2944(3) 0.6327(5) 0.73010(10)
O3A O 0.1191(3) 0.4272(5) 0.69545(10)
O3A_2 O 1.1191(3) 0.4272(5) 0.69545(10)
O4A O 0.3951(3) 1.0386(5) 0.68500(10)
O5A O 0.6766(3) 1.0192(5) 0.72893(10)
O6A O 0.8045(3) 1.2184(5) 0.69401(10)
O6_2 O 1.1955(3) 0.2184(5) 0.80599(10)
O6A_2 O 0.8045(3) 0.2184(5) 0.69401(10)
O7A O 0.8808(3) 0.6388(5) 0.71070(10)
H1A H 0.8522 0.6280 0.6808
H2A H 0.8172 0.6408 0.7258
O8A O 1.0643(3) 0.0104(5) 0.70967(10)
H3A H 1.0126 -0.0918 0.7124
H4A H 1.1509 -0.0051 0.7209
N1A N 0.4350(4) 0.6016(6) 0.60434(12)
H5A H 0.5216 0.6208 0.6029
N2A N 0.3490(4) 1.0753(6) 0.60553(13)
H6A H 0.2607 1.0571 0.6048
C1A C 0.4086(5) 0.5926(7) 0.64850(14)
C2A C 0.2672(4) 0.5501(7) 0.64871(14)
C3A C 0.1681(5) 0.5274(7) 0.60697(14)
H7A H 0.0755 0.4946 0.6078
C4A C 0.2013(5) 0.5518(7) 0.56288(14)
H8A H 0.1313 0.5465 0.5343
C5A C 0.3375(5) 0.5831(7) 0.56281(15)
H9A H 0.3642 0.5920 0.5338
C6A C 0.2250(5) 0.5328(7) 0.69449(15)
C7A C 0.4421(4) 1.0737(7) 0.64912(14)
C8A C 0.5852(4) 1.1114(7) 0.64842(14)
C9A C 0.6209(5) 1.1417(7) 0.60614(15)
H10A H 0.7149 1.1687 0.6060
C10A C 0.5198(5) 1.1329(7) 0.56316(16)
H11A H 0.5454 1.1477 0.5341
C11A C 0.3836(5) 1.1027(7) 0.56397(15)
H12A H 0.3136 1.1010 0.5354
C12A C 0.6943(5) 1.1199(7) 0.69340(15)
Cl1 Cl 0.23819(12) 0.64448(18) 0.93615(4)
O9 O 0.1676(4) 0.4579(6) 0.94305(13)
O10 O 0.2472(4) 0.6601(6) 0.88734(11)
O11 O 0.3784(3) 0.6405(6) 0.96520(11)
O12 O 0.1670(4) 0.8228(6) 0.94840(14)
O13 O 0.9276(3) 0.0494(6) 0.89041(11)
H13 H 0.9315 0.0610 0.8617
H14 H 1.0001 -0.0017 0.9088
loop_
_geom_bond_atom_site_label_1
_geom_bond_atom_site_label_2
_geom_bond_site_symmetry_1
_geom_bond_site_symmetry_2
Dy1 O1 1_555 1_555
Dy2 O3 1_555 1_555
O1 C1 1_555 1_555
O2 Dy1 1_555 1_555
O3 C6 1_555 1_555
O4 Dy1 1_555 1_555
O5 Dy1 1_555 1_555
O6 C12 1_555 1_555
O7 Dy2 1_555 1_555
H1 O7 1_555 1_555
H2 O7 1_555 1_555
O8 Dy2 1_555 1_555
H3 O8 1_555 1_555
H4 O8 1_555 1_555
N1 H5 1_555 1_555
N2 H6 1_555 1_555
C1 N1 1_555 1_555
C2 C1 1_555 1_555
C3 C2 1_555 1_555
H7 C3 1_555 1_555
C4 C3 1_555 1_555
H8 C4 1_555 1_555
C5 N1 1_555 1_555
H9 C5 1_555 1_555
C6 O2 1_555 1_555
C7 O4 1_555 1_555
C8 C7 1_555 1_555
C9 C8 1_555 1_555
H10 C9 1_555 1_555
C10 C9 1_555 1_555
H11 C10 1_555 1_555
C11 N2 1_555 1_555
H12 C11 1_555 1_555
C12 O5 1_555 1_555
Cl1 O9 1_555 1_555
O10 Cl1 1_555 1_555
O11 Cl1 1_555 1_555
O12 Cl1 1_555 1_555
O13 H13 1_555 1_555
H14 O13 1_555 1_555
Dy2_2 O6 1_555 1_555
Dy2_3 O3A 1_555 1_555
Dy2_4 O6A 1_555 1_555
O1A Dy1 1_555 1_555
O2A Dy1 1_555 1_555
O3A C6A 1_555 1_555
O3A_2 Dy2 1_555 1_555
O4A Dy1 1_555 1_555
O5A Dy1 1_555 1_555
O6A C12A 1_555 1_555
O6_2 Dy2 1_555 1_555
O6A_2 Dy2 1_555 1_555
O7A Dy2 1_555 1_555
H1A O7A 1_555 1_555
H2A O7A 1_555 1_555
O8A Dy2 1_555 1_555
H3A O8A 1_555 1_555
H4A O8A 1_555 1_555
N1A H5A 1_555 1_555
N2A H6A 1_555 1_555
C1A O1A 1_555 1_555
C2A C1A 1_555 1_555
C3A C2A 1_555 1_555
H7A C3A 1_555 1_555
C4A C3A 1_555 1_555
H8A C4A 1_555 1_555
C5A N1A 1_555 1_555
H9A C5A 1_555 1_555
C6A O2A 1_555 1_555
C7A O4A 1_555 1_555
C8A C7A 1_555 1_555
C9A C8A 1_555 1_555
H10A C9A 1_555 1_555
C10A C9A 1_555 1_555
H11A C10A 1_555 1_555
C11A N2A 1_555 1_555
H12A C11A 1_555 1_555
C12A O5A 1_555 1_555
N2 C7 1_555 1_555
C2 C6 1_555 1_555
C4 C5 1_555 1_555
C8 C12 1_555 1_555
C10 C11 1_555 1_555
N1A C1A 1_555 1_555
N2A C7A 1_555 1_555
C2A C6A 1_555 1_555
C4A C5A 1_555 1_555
C8A C12A 1_555 1_555
C10A C11A 1_555 1_555

#END
