
#######################################################################
#
#                 Cambridge Crystallographic Data Centre
#                                CCDC 
#
#######################################################################
#
# If this CIF has been generated from an entry in the Cambridge 
# Structural Database, then it will include bibliographic, chemical, 
# crystal, experimental, refinement or atomic coordinate data resulting 
# from the CCDC's data processing and validation procedures.
#
#######################################################################

data_OVUZIP
_symmetry_cell_setting           rhombohedral
_symmetry_space_group_name_H-M   'R -3'
_symmetry_Int_Tables_number      148
_space_group_name_Hall           '-R 3'
loop_
_symmetry_equiv_pos_site_id
_symmetry_equiv_pos_as_xyz
1 x,y,z
2 -y,x-y,z
3 -x+y,-x,z
4 2/3+x,1/3+y,1/3+z
5 2/3-y,1/3+x-y,1/3+z
6 2/3-x+y,1/3-x,1/3+z
7 1/3+x,2/3+y,2/3+z
8 1/3-y,2/3+x-y,2/3+z
9 1/3-x+y,2/3-x,2/3+z
10 -x,-y,-z
11 y,-x+y,-z
12 x-y,x,-z
13 1/3-x,2/3-y,2/3-z
14 1/3+y,2/3-x+y,2/3-z
15 1/3+x-y,2/3+x,2/3-z
16 2/3-x,1/3-y,1/3-z
17 2/3+y,1/3-x+y,1/3-z
18 2/3+x-y,1/3+x,1/3-z
_cell_length_a                   14.4038(16)
_cell_length_b                   14.4038(16)
_cell_length_c                   21.667(5)
_cell_angle_alpha                90
_cell_angle_beta                 90
_cell_angle_gamma                120
_cell_volume                     3892.99
loop_
_atom_site_label
_atom_site_type_symbol
_atom_site_fract_x
_atom_site_fract_y
_atom_site_fract_z
Co1 Co 0.5000 -0.5000 0.0000
Cl1 Cl 0.30811(11) -0.56344(8) -0.02357(4)
C1 C 0.6111(4) -0.4612(3) -0.12793(15)
H1 H 0.6579 -0.4818 -0.1117
C2 C 0.4912(4) -0.4196(3) -0.13358(14)
H2 H 0.4367 -0.4052 -0.1241
C3 C 0.4987(4) -0.3921(3) -0.24956(14)
H3 H 0.5613 -0.3343 -0.2695
H4 H 0.4726 -0.4553 -0.2754
C4 C 0.4131(4) -0.3615(3) -0.24454(13)
C5 C 0.4416(4) -0.2532(3) -0.24352(13)
C6 C 0.5593(4) -0.1654(3) -0.23943(18)
H5 H 0.5666 -0.1120 -0.2103
H6 H 0.6016 -0.1962 -0.2262
H7 H 0.5835 -0.1330 -0.2793
N1 N 0.5408(3) -0.4487(2) -0.09295(11)
N2 N 0.6077(3) -0.4420(2) -0.18673(12)
N3 N 0.5303(3) -0.4142(2) -0.18930(11)
O1 O 0.48308(28) -0.64672(19) -0.02992(11)
H8 H 0.4424 -0.6686 -0.0614
H9 H 0.4613 -0.6972 -0.0037
Co1A Co 0.5000 0.0000 0.0000
Co1B Co 0.0000 -0.5000 0.0000
Co1A_2 Co 0.5000 -1.0000 0.0000
Co1B_2 Co 1.0000 -0.5000 0.0000
Cl1I Cl 0.69189(11) -0.43656(8) 0.02357(4)
Cl1A Cl 0.56344(8) -0.12845(14) -0.02357(4)
Cl1J Cl 0.43656(8) 0.12845(14) 0.02357(4)
Cl1B Cl 0.12845(14) -0.30811(11) -0.02357(4)
Cl1K Cl -0.12845(14) -0.69189(11) 0.02357(4)
C1A C 0.4612(3) 0.0723(5) -0.12793(15)
C1B C -0.0723(5) -0.6111(4) -0.12793(15)
C1I C 0.3889(4) -0.5388(3) 0.12793(15)
C1J C 0.5388(3) -1.0723(5) 0.12793(15)
C1K C 1.0723(5) -0.3889(4) 0.12793(15)
H1A H 0.4818 0.1397 -0.1117
H1B H -0.1397 -0.6579 -0.1117
H1I H 0.3421 -0.5182 0.1117
H1J H 0.5182 -1.1397 0.1117
H1K H 1.1397 -0.3421 0.1117
C2A C 0.4196(3) -0.0892(5) -0.13358(14)
C2B C 0.0892(5) -0.4912(4) -0.13358(14)
C2I C 0.5088(4) -0.5804(3) 0.13358(14)
C2J C 0.5804(3) -0.9108(5) 0.13358(14)
C2K C 0.9108(5) -0.5088(4) 0.13358(14)
H2A H 0.4052 -0.1581 -0.1241
H2B H 0.1581 -0.4367 -0.1241
H2I H 0.5633 -0.5948 0.1241
H2J H 0.5948 -0.8419 0.1241
H2K H 0.8419 -0.5633 0.1241
C3A C 0.3921(3) -0.1092(5) -0.24956(14)
C3B C 0.1092(5) -0.4987(4) -0.24956(14)
C3I C 0.5013(4) -0.6079(3) 0.24956(14)
C3J C 0.6079(3) -0.8908(5) 0.24956(14)
C3K C 0.8908(5) -0.5013(4) 0.24956(14)
H3A H 0.3343 -0.1044 -0.2695
H3B H 0.1044 -0.5613 -0.2695
H3I H 0.4387 -0.6657 0.2695
H3J H 0.6657 -0.8956 0.2695
H3K H 0.8956 -0.4387 0.2695
H4A H 0.4553 -0.0721 -0.2754
H4B H 0.0721 -0.4726 -0.2754
H4I H 0.5274 -0.5447 0.2754
H4J H 0.5447 -0.9279 0.2754
H4K H 0.9279 -0.5274 0.2754
C4A C 0.3615(3) -0.2254(5) -0.24454(13)
C4B C 0.2254(5) -0.4131(4) -0.24454(13)
C4I C 0.5869(4) -0.6385(3) 0.24454(13)
C4J C 0.6385(3) -0.7746(5) 0.24454(13)
C4K C 0.7746(5) -0.5869(4) 0.24454(13)
C5A C 0.2532(3) -0.3052(5) -0.24352(13)
C5B C 0.3052(5) -0.4416(4) -0.24352(13)
C5I C 0.5584(4) -0.7468(3) 0.24352(13)
C5J C 0.7468(3) -0.6948(5) 0.24352(13)
C5K C 0.6948(5) -0.5584(4) 0.24352(13)
C6B C 0.2753(5) -0.5593(4) -0.23943(18)
C6A C 0.1654(3) -0.2753(5) -0.23943(18)
C6I C 0.4407(4) -0.8346(3) 0.23943(18)
C6K C 0.7247(5) -0.4407(4) 0.23943(18)
C6J C 0.8346(3) -0.7247(5) 0.23943(18)
H5B H 0.3214 -0.5666 -0.2103
H5A H 0.1120 -0.3214 -0.2103
H5I H 0.4334 -0.8880 0.2103
H5K H 0.6786 -0.4334 0.2103
H5J H 0.8880 -0.6786 0.2103
H6B H 0.2022 -0.6016 -0.2262
H6A H 0.1962 -0.2022 -0.2262
H6I H 0.3984 -0.8038 0.2262
H6K H 0.7978 -0.3984 0.2262
H6J H 0.8038 -0.7978 0.2262
H7B H 0.2835 -0.5835 -0.2793
H7A H 0.1330 -0.2835 -0.2793
H7I H 0.4165 -0.8670 0.2793
H7K H 0.7165 -0.4165 0.2793
H7J H 0.8670 -0.7165 0.2793
N1A N 0.4487(2) -0.0105(4) -0.09295(11)
N1B N 0.0105(4) -0.5408(3) -0.09295(11)
N1I N 0.4592(3) -0.5513(2) 0.09295(11)
N1J N 0.5513(2) -0.9895(4) 0.09295(11)
N1K N 0.9895(4) -0.4592(3) 0.09295(11)
N1J_2 N 0.5513(2) 0.0105(4) 0.09295(11)
N1K_2 N -0.0105(4) -0.4592(3) 0.09295(11)
N2A N 0.4420(2) 0.0497(4) -0.18673(12)
N2B N -0.0497(4) -0.6077(3) -0.18673(12)
N2I N 0.3923(3) -0.5580(2) 0.18673(12)
N2J N 0.5580(2) -1.0497(4) 0.18673(12)
N2K N 1.0497(4) -0.3923(3) 0.18673(12)
N3A N 0.4142(2) -0.0555(4) -0.18930(11)
N3B N 0.0555(4) -0.5303(3) -0.18930(11)
N3I N 0.4697(3) -0.5858(2) 0.18930(11)
N3J N 0.5858(2) -0.9445(4) 0.18930(11)
N3K N 0.9445(4) -0.4697(3) 0.18930(11)
O1I O 0.51692(28) -0.35328(19) 0.02992(11)
O1A O 0.64672(19) 0.12980(34) -0.02992(11)
O1J O 0.35328(19) -0.12980(34) 0.02992(11)
O1B O -0.12980(34) -0.48308(28) -0.02992(11)
O1K O 0.12980(34) -0.51692(28) 0.02992(11)
H8I H 0.5576 -0.3314 0.0614
H8A H 0.6686 0.1110 -0.0614
H8J H 0.3314 -0.1110 0.0614
H8B H -0.1110 -0.4424 -0.0614
H8K H 0.1110 -0.5576 0.0614
H9I H 0.5387 -0.3028 0.0037
H9A H 0.6972 0.1585 -0.0037
H9J H 0.3028 -0.1585 0.0037
H9B H -0.1585 -0.4613 -0.0037
H9K H 0.1585 -0.5387 0.0037
O2 O 0.6667 0.3333 0.0747(3)
O3 O 0.3333 0.6667 0.0932(7)
H10? H 0.6211 0.3057 0.0457
H11? H 0.6667 0.3333 0.1139
H12? H 0.3132 0.6344 0.0587
H13? H 0.3717 0.6514 0.1161
loop_
_geom_bond_atom_site_label_1
_geom_bond_atom_site_label_2
_geom_bond_site_symmetry_1
_geom_bond_site_symmetry_2
Co1 Cl1 1_555 1_555
C1 H1 1_555 1_555
C2 H2 1_555 1_555
C3 H3 1_555 1_555
H4 C3 1_555 1_555
C4 C3 1_555 1_555
C5 C4 1_555 1_555
C6 C5 1_555 1_555
H5 C6 1_555 1_555
H6 C6 1_555 1_555
H7 C6 1_555 1_555
N1 Co1 1_555 1_555
N2 C1 1_555 1_555
N3 C2 1_555 1_555
O1 Co1 1_555 1_555
H8 O1 1_555 1_555
H9 O1 1_555 1_555
Co1A Cl1A 1_555 1_555
Co1B Cl1B 1_555 1_555
Co1A_2 N1J 1_555 1_555
Co1B_2 N1K 1_555 1_555
Cl1I Co1 1_555 1_555
Cl1J Co1A 1_555 1_555
Cl1K Co1B 1_555 1_555
C1A H1A 1_555 1_555
C1B H1B 1_555 1_555
C1I H1I 1_555 1_555
C1J H1J 1_555 1_555
C1K H1K 1_555 1_555
C2A H2A 1_555 1_555
C2B H2B 1_555 1_555
C2I H2I 1_555 1_555
C2J H2J 1_555 1_555
C2K H2K 1_555 1_555
C3A H3A 1_555 1_555
C3B H3B 1_555 1_555
C3I H3I 1_555 1_555
C3J H3J 1_555 1_555
C3K H3K 1_555 1_555
H4A C3A 1_555 1_555
H4B C3B 1_555 1_555
H4I C3I 1_555 1_555
H4J C3J 1_555 1_555
H4K C3K 1_555 1_555
C4A C5 1_555 1_555
C4B C3B 1_555 1_555
C4I C3I 1_555 1_555
C4J C3J 1_555 1_555
C4K C3K 1_555 1_555
C5A C4A 1_555 1_555
C5B C4 1_555 1_555
C5I C4I 1_555 1_555
C5J C4J 1_555 1_555
C5K C4I 1_555 1_555
C6B C5B 1_555 1_555
C6A C5A 1_555 1_555
C6I C5I 1_555 1_555
C6K C5K 1_555 1_555
C6J C5J 1_555 1_555
H5B C6B 1_555 1_555
H5A C6A 1_555 1_555
H5I C6I 1_555 1_555
H5K C6K 1_555 1_555
H5J C6J 1_555 1_555
H6B C6B 1_555 1_555
H6A C6A 1_555 1_555
H6I C6I 1_555 1_555
H6K C6K 1_555 1_555
H6J C6J 1_555 1_555
H7B C6B 1_555 1_555
H7A C6A 1_555 1_555
H7I C6I 1_555 1_555
H7K C6K 1_555 1_555
H7J C6J 1_555 1_555
N1A Co1A 1_555 1_555
N1B Co1B 1_555 1_555
N1I Co1 1_555 1_555
N1J C1J 1_555 1_555
N1K C1K 1_555 1_555
N1J_2 Co1A 1_555 1_555
N1K_2 Co1B 1_555 1_555
N2A C1A 1_555 1_555
N2B C1B 1_555 1_555
N2I C1I 1_555 1_555
N2J C1J 1_555 1_555
N2K C1K 1_555 1_555
N3A C2A 1_555 1_555
N3B C2B 1_555 1_555
N3I C2I 1_555 1_555
N3J C2J 1_555 1_555
N3K C2K 1_555 1_555
O1I Co1 1_555 1_555
O1A Co1A 1_555 1_555
O1J Co1A 1_555 1_555
O1B Co1B 1_555 1_555
O1K Co1B 1_555 1_555
H8I O1I 1_555 1_555
H8A O1A 1_555 1_555
H8J O1J 1_555 1_555
H8B O1B 1_555 1_555
H8K O1K 1_555 1_555
H9I O1I 1_555 1_555
H9A O1A 1_555 1_555
H9J O1J 1_555 1_555
H9B O1B 1_555 1_555
H9K O1K 1_555 1_555
C1 N1 1_555 1_555
C2 N1 1_555 1_555
C3 N3 1_555 1_555
N2 N3 1_555 1_555
C1A N1A 1_555 1_555
C1B N1B 1_555 1_555
C1I N1I 1_555 1_555
C2A N1A 1_555 1_555
C2B N1B 1_555 1_555
C2I N1I 1_555 1_555
C2J N1J 1_555 1_555
C2K N1K 1_555 1_555
C3A C4A 1_555 1_555
C3A N3A 1_555 1_555
C3B N3B 1_555 1_555
C3I N3I 1_555 1_555
C3J N3J 1_555 1_555
C3K N3K 1_555 1_555
C4B C5A 1_555 1_555
C4B C5B 1_555 1_555
C4J C5I 1_555 1_555
C4K C5J 1_555 1_555
C4K C5K 1_555 1_555
N2A N3A 1_555 1_555
N2B N3B 1_555 1_555
N2I N3I 1_555 1_555
N2J N3J 1_555 1_555
N2K N3K 1_555 1_555

#END
