
#######################################################################
#
#                 Cambridge Crystallographic Data Centre
#                                CCDC 
#
#######################################################################
#
# If this CIF has been generated from an entry in the Cambridge 
# Structural Database, then it will include bibliographic, chemical, 
# crystal, experimental, refinement or atomic coordinate data resulting 
# from the CCDC's data processing and validation procedures.
#
#######################################################################

data_OVUZOV
_symmetry_cell_setting           triclinic
_symmetry_space_group_name_H-M   'P -1'
_symmetry_Int_Tables_number      2
_space_group_name_Hall           '-P 1'
loop_
_symmetry_equiv_pos_site_id
_symmetry_equiv_pos_as_xyz
1 x,y,z
2 -x,-y,-z
_cell_length_a                   10.318(4)
_cell_length_b                   11.162(4)
_cell_length_c                   12.354(4)
_cell_angle_alpha                74.930(4)
_cell_angle_beta                 72.332(4)
_cell_angle_gamma                80.816(5)
_cell_volume                     1304.02
loop_
_atom_site_label
_atom_site_type_symbol
_atom_site_fract_x
_atom_site_fract_y
_atom_site_fract_z
Co1 Co -0.5000 -1.0000 0.5000
Cl1 Cl -0.3284(4) -1.0025(4) 0.5612(3)
C1 C -0.3016(5) -0.8380(4) 0.2804(4)
H1 H -0.2247 -0.8927 0.2864
C2 C -0.5002(5) -0.7507(5) 0.3093(4)
H2 H -0.5930 -0.7346 0.3429
C3 C -0.1864(5) -0.6839(4) 0.1023(4)
H3 H -0.1014 -0.7263 0.1164
H4 H -0.1929 -0.6997 0.0306
C4 C -0.1833(4) -0.5452(4) 0.0871(4)
C5 C -0.2136(5) -0.4619(4) -0.0091(4)
C6 C -0.2675(7) -0.5059(6) -0.0923(5)
H5 H -0.1922 -0.5327 -0.1515
H6 H -0.3221 -0.5742 -0.0500
H7 H -0.3223 -0.4388 -0.1281
C7 C -0.1999(5) -0.3349(4) -0.0247(4)
C8 C -0.2251(5) -0.2432(5) -0.1333(4)
H8 H -0.2151 -0.2876 -0.1936
H9 H -0.1577 -0.1827 -0.1625
C9 C -0.5226(7) -0.0466(6) -0.1338(6)
H10 H -0.5736 0.0214 -0.1672
C10 C -0.4708(6) -0.2021(6) -0.0170(5)
H11 H -0.4732 -0.2675 0.0478
C11 C -0.1623(5) -0.2911(4) 0.0573(4)
C12 C -0.1504(6) -0.1543(5) 0.0386(5)
H12 H -0.2150 -0.1229 0.1014
H13 H -0.0597 -0.1417 0.0364
H14 H -0.1689 -0.1109 -0.0339
C13 C -0.1405(4) -0.3748(4) 0.1566(4)
C14 C -0.1167(5) -0.3275(5) 0.2513(5)
H15 H -0.0474 -0.2688 0.2177
H16 H -0.0838 -0.3964 0.3055
C15 C -0.4534(6) -0.2334(6) 0.3942(6)
H17 H -0.5470 -0.2402 0.4211
C16 C -0.2631(5) -0.1669(5) 0.3592(4)
H18 H -0.1937 -0.1209 0.3556
C17 C -0.1470(4) -0.5038(4) 0.1706(4)
C18 C -0.1193(6) -0.5950(5) 0.2771(5)
H19 H -0.1928 -0.5850 0.3447
H20 H -0.1122 -0.6784 0.2671
H21 H -0.0353 -0.5793 0.2872
N1 N -0.4250(4) -0.8531(4) 0.3523(3)
N2 N -0.3021(4) -0.7359(4) 0.1998(3)
N3 N -0.4304(4) -0.6768(4) 0.2163(4)
N4 N -0.3627(5) -0.1782(4) -0.1071(4)
N5 N -0.3927(6) -0.0758(5) -0.1857(4)
N6 N -0.5752(5) -0.1203(5) -0.0317(5)
N7 N -0.2446(4) -0.2657(4) 0.3143(3)
N8 N -0.3665(5) -0.3116(5) 0.3371(5)
N9 N -0.3927(5) -0.1428(4) 0.4095(4)
Co1_2 Co -0.5000 -2.0000 0.5000
Co1_3 Co -0.5000 0.0000 0.5000
Cl1A Cl -0.6716(4) -0.9975(4) 0.4388(3)
C1A C -0.6984(5) -1.1620(4) 0.7196(4)
H1A H -0.7753 -1.1073 0.7136
C2A C -0.4998(5) -1.2493(5) 0.6907(4)
H2A H -0.4070 -1.2654 0.6571
C3A C -0.8136(5) -1.3161(4) 0.8977(4)
H3A H -0.8986 -1.2737 0.8836
H4A H -0.8071 -1.3003 0.9694
C4A C -0.8167(4) -1.4548(4) 0.9129(4)
C5A C -0.7864(5) -1.5381(4) 1.0091(4)
C6A C -0.7325(7) -1.4941(6) 1.0923(5)
H5A H -0.8078 -1.4673 1.1515
H6A H -0.6779 -1.4258 1.0500
H7A H -0.6777 -1.5612 1.1281
C7A C -0.8001(5) -1.6651(4) 1.0247(4)
C8A C -0.7749(5) -1.7568(5) 1.1333(4)
H8A H -0.7849 -1.7124 1.1936
H9A H -0.8423 -1.8173 1.1625
C9A C -0.4774(7) -1.9534(6) 1.1338(6)
H10A H -0.4264 -2.0214 1.1672
C10A C -0.5292(6) -1.7979(6) 1.0170(5)
H11A H -0.5268 -1.7325 0.9522
C11A C -0.8377(5) -1.7089(4) 0.9427(4)
C12A C -0.8496(6) -1.8457(5) 0.9614(5)
H12A H -0.7850 -1.8771 0.8986
H13A H -0.9403 -1.8583 0.9636
H14A H -0.8311 -1.8891 1.0339
C13A C -0.8595(4) -1.6252(4) 0.8434(4)
C14A C -0.8833(5) -1.6725(5) 0.7487(5)
H15A H -0.9526 -1.7312 0.7823
H16A H -0.9162 -1.6036 0.6945
C15A C -0.5466(6) -1.7666(6) 0.6058(6)
H17A H -0.4530 -1.7598 0.5789
C16A C -0.7369(5) -1.8331(5) 0.6408(4)
H18A H -0.8063 -1.8791 0.6444
C17A C -0.8530(4) -1.4962(4) 0.8294(4)
C18A C -0.8807(6) -1.4050(5) 0.7229(5)
H19A H -0.8072 -1.4150 0.6553
H20A H -0.8878 -1.3216 0.7329
H21A H -0.9647 -1.4207 0.7128
N1A N -0.5750(4) -1.1469(4) 0.6477(3)
N2A N -0.6979(4) -1.2641(4) 0.8002(3)
N3A N -0.5696(4) -1.3232(4) 0.7837(4)
N4A N -0.6373(5) -1.8218(4) 1.1071(4)
N5A N -0.6073(6) -1.9242(5) 1.1857(4)
N6A N -0.4248(5) -1.8797(5) 1.0317(5)
N7A N -0.7554(4) -1.7343(4) 0.6857(3)
N8A N -0.6335(5) -1.6884(5) 0.6629(5)
N9A N -0.6073(5) -0.8572(4) 0.5905(4)
N9_2 N -0.3927(5) -1.1428(4) 0.4095(4)
N9A_2 N -0.6073(5) -1.8572(4) 0.5905(4)
O1 O -0.4912(5) -0.5863(4) 0.7793(4)
H22 H -0.5499 -0.6016 0.7503
H23 H -0.5135 -0.5102 0.7822
O2 O 0.0033(4) -0.0132(4) 0.7227(6)
O3 O -0.1689(5) -0.8340(5) 0.8545(6)
H26 H -0.1577 -0.8868 0.8130
H27 H -0.2458 -0.8611 0.8937
O4 O 0.0000 -0.5000 0.5000
H28 H 0.0352 -0.5736 0.5202
H28A H -0.0352 -0.4264 0.4798
O5 O -0.7695(9) -0.3386(8) 0.3392(8)
H29 H -0.6912 -0.3698 0.3067
H30 H -0.7450 -0.3251 0.2652
O6 O -0.831(2) -0.1805(15) 0.4818(13)
H34 H -0.7631 -0.1985 0.4838
O8 O -0.1568(9) -0.324(2) 0.5840(6)
H31 H -0.1597 -0.3930 0.5685
H32 H -0.1305 -0.2518 0.5710
H24? H -0.0497 -0.0310 0.6893
H25? H 0.0298 -0.0365 0.6586
O7? O -0.974(2) -0.062(3) 0.5313(13)
H33? H -0.9294 -0.0499 0.5374
loop_
_geom_bond_atom_site_label_1
_geom_bond_atom_site_label_2
_geom_bond_site_symmetry_1
_geom_bond_site_symmetry_2
Co1 Cl1 1_555 1_555
C1 H1 1_555 1_555
C2 H2 1_555 1_555
C3 H3 1_555 1_555
H4 C3 1_555 1_555
C4 C3 1_555 1_555
C5 C4 1_555 1_555
C6 C5 1_555 1_555
H5 C6 1_555 1_555
H6 C6 1_555 1_555
H7 C6 1_555 1_555
C7 C5 1_555 1_555
C8 C7 1_555 1_555
H8 C8 1_555 1_555
H9 C8 1_555 1_555
C9 H10 1_555 1_555
C10 H11 1_555 1_555
C11 C7 1_555 1_555
C12 C11 1_555 1_555
H12 C12 1_555 1_555
H13 C12 1_555 1_555
H14 C12 1_555 1_555
C13 C11 1_555 1_555
C14 C13 1_555 1_555
H15 C14 1_555 1_555
H16 C14 1_555 1_555
C15 H17 1_555 1_555
C16 H18 1_555 1_555
C17 C4 1_555 1_555
C18 C17 1_555 1_555
H19 C18 1_555 1_555
H20 C18 1_555 1_555
H21 C18 1_555 1_555
N1 Co1 1_555 1_555
N2 C1 1_555 1_555
N3 C2 1_555 1_555
N4 C8 1_555 1_555
N5 C9 1_555 1_555
N6 C9 1_555 1_555
N7 C14 1_555 1_555
N8 C15 1_555 1_555
N9 C15 1_555 1_555
O1 H22 1_555 1_555
H23 O1 1_555 1_555
O3 H26 1_555 1_555
H27 O3 1_555 1_555
O4 H28 1_555 1_555
O5 H29 1_555 1_555
H30 O5 1_555 1_555
O6 H34 1_555 1_555
O8 H31 1_555 1_555
H32 O8 1_555 1_555
Co1_2 N9A_2 1_555 1_555
Co1_3 N9 1_555 1_555
Cl1A Co1 1_555 1_555
C1A H1A 1_555 1_555
C2A H2A 1_555 1_555
C3A H3A 1_555 1_555
H4A C3A 1_555 1_555
C4A C3A 1_555 1_555
C5A C4A 1_555 1_555
C6A C5A 1_555 1_555
H5A C6A 1_555 1_555
H6A C6A 1_555 1_555
H7A C6A 1_555 1_555
C7A C5A 1_555 1_555
C8A C7A 1_555 1_555
H8A C8A 1_555 1_555
H9A C8A 1_555 1_555
C9A H10A 1_555 1_555
C10A H11A 1_555 1_555
C11A C7A 1_555 1_555
C12A C11A 1_555 1_555
H12A C12A 1_555 1_555
H13A C12A 1_555 1_555
H14A C12A 1_555 1_555
C13A C11A 1_555 1_555
C14A C13A 1_555 1_555
H15A C14A 1_555 1_555
H16A C14A 1_555 1_555
C15A H17A 1_555 1_555
C16A H18A 1_555 1_555
C17A C4A 1_555 1_555
C18A C17A 1_555 1_555
H19A C18A 1_555 1_555
H20A C18A 1_555 1_555
H21A C18A 1_555 1_555
N1A Co1 1_555 1_555
N2A C1A 1_555 1_555
N3A C2A 1_555 1_555
N4A C8A 1_555 1_555
N5A C9A 1_555 1_555
N6A C9A 1_555 1_555
N7A C14A 1_555 1_555
N8A C15A 1_555 1_555
N9A Co1 1_555 1_555
N9_2 Co1 1_555 1_555
N9A_2 C15A 1_555 1_555
H28A O4 1_555 1_555
C1 N1 1_555 1_555
C2 N1 1_555 1_555
C3 N2 1_555 1_555
C10 N4 1_555 1_555
C10 N6 1_555 1_555
C13 C17 1_555 1_555
C16 N7 1_555 1_555
C16 N9 1_555 1_555
N2 N3 1_555 1_555
N4 N5 1_555 1_555
N7 N8 1_555 1_555
C1A N1A 1_555 1_555
C2A N1A 1_555 1_555
C3A N2A 1_555 1_555
C10A N4A 1_555 1_555
C10A N6A 1_555 1_555
C13A C17A 1_555 1_555
C16A N7A 1_555 1_555
C16A N9A_2 1_555 1_555
N2A N3A 1_555 1_555
N4A N5A 1_555 1_555
N7A N8A 1_555 1_555

#END
