
#######################################################################
#
#                 Cambridge Crystallographic Data Centre
#                                CCDC 
#
#######################################################################
#
# If this CIF has been generated from an entry in the Cambridge 
# Structural Database, then it will include bibliographic, chemical, 
# crystal, experimental, refinement or atomic coordinate data resulting 
# from the CCDC's data processing and validation procedures.
#
#######################################################################

data_OWABEU
_symmetry_cell_setting           monoclinic
_symmetry_space_group_name_H-M   'P 21/n'
_symmetry_Int_Tables_number      14
_space_group_name_Hall           '-P 2yn'
loop_
_symmetry_equiv_pos_site_id
_symmetry_equiv_pos_as_xyz
1 x,y,z
2 1/2-x,1/2+y,1/2-z
3 -x,-y,-z
4 1/2+x,1/2-y,1/2+z
_cell_length_a                   8.4837(9)
_cell_length_b                   16.3767(18)
_cell_length_c                   17.5030(19)
_cell_angle_alpha                90
_cell_angle_beta                 101.2000(10)
_cell_angle_gamma                90
_cell_volume                     2385.47
loop_
_atom_site_label
_atom_site_type_symbol
_atom_site_fract_x
_atom_site_fract_y
_atom_site_fract_z
Zn1 Zn 0.5000 0.5000 0.0000
C1 C 0.5629(6) 0.3168(3) -0.0546(3)
H1 H 0.4949 0.3230 -0.1027
C2 C 0.6949(6) 0.3423(3) 0.0549(3)
H2 H 0.7416 0.3685 0.1009
C3 C 0.8203(5) 0.2040(3) 0.0870(3)
H3 H 0.8735 0.2292 0.1353
H4 H 0.9027 0.1864 0.0592
C4 C 0.7281(5) 0.1304(2) 0.1056(2)
C5 C 0.6479(5) 0.1327(3) 0.1678(2)
C6 C 0.5727(5) 0.0625(3) 0.1882(3)
C7 C 0.4777(6) 0.0669(4) 0.2526(3)
H5 H 0.4260 0.1198 0.2513
H6 H 0.3942 0.0256 0.2439
C8 C 0.7360(5) 0.0447(3) 0.3505(2)
H7 H 0.8070 0.0444 0.3161
C9 C 0.6379(6) 0.0402(3) 0.4510(3)
H8 H 0.6299 0.0363 0.5031
C10 C 0.5241(8) -0.0892(4) 0.1807(3)
H9 H 0.4250 -0.1051 0.1475
H10 H 0.5063 -0.0803 0.2326
H11 H 0.6023 -0.1318 0.1814
C11 C 0.5852(5) -0.0112(3) 0.1501(3)
C12 C 0.6604(5) -0.0125(3) 0.0859(3)
C13 C 0.6624(7) -0.0917(3) 0.0402(3)
H12 H 0.5680 -0.1237 0.0438
H13 H 0.6585 -0.0791 -0.0143
C14 C 1.0306(8) -0.1883(3) 0.1376(4)
H14 H 1.1251 -0.1952 0.1741
C15 C 0.8330(8) -0.2131(3) 0.0376(4)
H15 H 0.7699 -0.2387 -0.0050
C16 C 0.7315(5) 0.0578(2) 0.0623(2)
C17 C 0.8151(6) 0.0582(3) -0.0053(3)
H16 H 0.9290 0.0538 0.0132
H17 H 0.7917 0.1083 -0.0338
H18 H 0.7785 0.0129 -0.0388
C18 C 0.6472(7) 0.2115(3) 0.2140(3)
H19 H 0.7557 0.2292 0.2326
H20 H 0.5957 0.2020 0.2575
H21 H 0.5896 0.2529 0.1810
N1 N 0.5135(5) 0.0510(3) 0.3943(3)
N2 N 0.5793(4) 0.0544(2) 0.3301(2)
N3 N 0.7775(4) 0.0354(2) 0.42644(19)
N4 N 0.9279(6) -0.1267(3) 0.1300(3)
N5 N 0.8077(5) -0.1399(2) 0.0702(2)
N6 N 0.9649(6) -0.2380(3) 0.0799(3)
N7 N 0.7172(4) 0.26528(19) 0.0395(2)
N8 N 0.6328(6) 0.2472(2) -0.0310(2)
N9 N 0.5975(5) 0.3777(2) -0.0037(2)
O4 O 0.4094(5) 0.4621(2) 0.09937(19)
H22 H 0.3768 0.4150 0.0932
H23 H 0.4245 0.4987 0.1367
Zn1A Zn 0.0000 1.0000 -0.5000
Zn1A_2 Zn 1.0000 0.0000 0.5000
C1B C 0.4371(6) 0.6832(3) 0.0546(3)
H1B H 0.5051 0.6770 0.1027
C2B C 0.3051(6) 0.6577(3) -0.0549(3)
H2B H 0.2584 0.6315 -0.1009
C3B C 0.1797(5) 0.7960(3) -0.0870(3)
H3B H 0.1265 0.7708 -0.1353
H4B H 0.0973 0.8136 -0.0592
C4B C 0.2719(5) 0.8696(2) -0.1056(2)
C5B C 0.3521(5) 0.8673(3) -0.1678(2)
C6B C 0.4273(5) 0.9375(3) -0.1882(3)
C7B C 0.5223(6) 0.9331(4) -0.2526(3)
H5B H 0.5740 0.8802 -0.2513
H6B H 0.6058 0.9744 -0.2439
C8B C 0.2640(5) 0.9553(3) -0.3505(2)
H7B H 0.1930 0.9556 -0.3161
C9B C 0.3621(6) 0.9598(3) -0.4510(3)
H8B H 0.3701 0.9637 -0.5031
C10B C 0.4759(8) 1.0892(4) -0.1807(3)
H9B H 0.5750 1.1051 -0.1475
H10B H 0.4937 1.0803 -0.2326
H11B H 0.3977 1.1318 -0.1814
C11B C 0.4148(5) 1.0112(3) -0.1501(3)
C12B C 0.3396(5) 1.0125(3) -0.0859(3)
C13B C 0.3376(7) 1.0917(3) -0.0402(3)
H12B H 0.4320 1.1237 -0.0438
H13B H 0.3415 1.0791 0.0143
C14B C -0.0306(8) 1.1883(3) -0.1376(4)
H14B H -0.1251 1.1952 -0.1741
C15B C 0.1670(8) 1.2131(3) -0.0376(4)
H15B H 0.2301 1.2387 0.0050
C16B C 0.2685(5) 0.9422(2) -0.0623(2)
C17B C 0.1849(6) 0.9418(3) 0.0053(3)
H16B H 0.0710 0.9462 -0.0132
H17B H 0.2083 0.8917 0.0338
H18B H 0.2215 0.9871 0.0388
C18B C 0.3528(7) 0.7885(3) -0.2140(3)
H19B H 0.2443 0.7708 -0.2326
H20B H 0.4043 0.7980 -0.2575
H21B H 0.4104 0.7471 -0.1810
N1B N 0.4865(5) 0.9490(3) -0.3943(3)
N2B N 0.4207(4) 0.9456(2) -0.3301(2)
N3B N 0.2225(4) 0.9646(2) -0.42644(19)
N3A N 0.7225(4) 0.5354(2) 0.07356(19)
N3C N 0.2775(4) 0.4646(2) -0.07356(19)
N4B N 0.0721(6) 1.1267(3) -0.1300(3)
N5B N 0.1923(5) 1.1399(2) -0.0702(2)
N6B N 0.0351(6) 1.2380(3) -0.0799(3)
N7B N 0.2828(4) 0.73472(19) -0.0395(2)
N8B N 0.3672(6) 0.7528(2) 0.0310(2)
N9B N 0.4025(5) 0.6223(2) 0.0037(2)
O4B O 0.5906(5) 0.5379(2) -0.09937(19)
H22B H 0.6232 0.5850 -0.0932
H23B H 0.5755 0.5013 -0.1367
N10 N 0.0669(5) 0.0793(3) 0.2251(2)
O1 O 0.1112(5) 0.0906(3) 0.1635(2)
O2 O 0.0366(6) 0.1384(3) 0.2635(3)
O3 O 0.0434(8) 0.0106(3) 0.2488(3)
O5 O 0.2903(13) 0.3131(4) 0.0964(3)
H24 H 0.3822 0.2997 0.1068
H25 H 0.2692 0.2962 0.1409
O6 O 0.2071(7) 0.2786(3) 0.2334(3)
H26 H 0.1466 0.2418 0.2463
H27 H 0.2134 0.3188 0.2646
loop_
_geom_bond_atom_site_label_1
_geom_bond_atom_site_label_2
_geom_bond_site_symmetry_1
_geom_bond_site_symmetry_2
Zn1 N9 1_555 1_555
C1 H1 1_555 1_555
C2 H2 1_555 1_555
C3 H3 1_555 1_555
H4 C3 1_555 1_555
C4 C3 1_555 1_555
C5 C4 1_555 1_555
C6 C5 1_555 1_555
C7 C6 1_555 1_555
H5 C7 1_555 1_555
H6 C7 1_555 1_555
C8 H7 1_555 1_555
C9 H8 1_555 1_555
C10 H9 1_555 1_555
H10 C10 1_555 1_555
H11 C10 1_555 1_555
C11 C6 1_555 1_555
C12 C11 1_555 1_555
C13 C12 1_555 1_555
H12 C13 1_555 1_555
H13 C13 1_555 1_555
C14 H14 1_555 1_555
C15 H15 1_555 1_555
C16 C4 1_555 1_555
C17 C16 1_555 1_555
H16 C17 1_555 1_555
H17 C17 1_555 1_555
H18 C17 1_555 1_555
C18 C5 1_555 1_555
H19 C18 1_555 1_555
H20 C18 1_555 1_555
H21 C18 1_555 1_555
N1 C9 1_555 1_555
N2 C7 1_555 1_555
N3 C8 1_555 1_555
N4 C14 1_555 1_555
N5 C13 1_555 1_555
N6 C14 1_555 1_555
N7 C2 1_555 1_555
N8 C1 1_555 1_555
N9 C1 1_555 1_555
N10 O1 1_555 1_555
O2 N10 1_555 1_555
O3 N10 1_555 1_555
O4 Zn1 1_555 1_555
H22 O4 1_555 1_555
H23 O4 1_555 1_555
O5 H24 1_555 1_555
O6 H26 1_555 1_555
H25 O5 1_555 1_555
H27 O6 1_555 1_555
Zn1A N3B 1_555 1_555
Zn1A_2 N3 1_555 1_555
C1B H1B 1_555 1_555
C2B H2B 1_555 1_555
C3B H3B 1_555 1_555
H4B C3B 1_555 1_555
C4B C3B 1_555 1_555
C5B C4B 1_555 1_555
C6B C5B 1_555 1_555
C7B C6B 1_555 1_555
H5B C7B 1_555 1_555
H6B C7B 1_555 1_555
C8B H7B 1_555 1_555
C9B H8B 1_555 1_555
C10B H9B 1_555 1_555
H10B C10B 1_555 1_555
H11B C10B 1_555 1_555
C11B C6B 1_555 1_555
C12B C11B 1_555 1_555
C13B C12B 1_555 1_555
H12B C13B 1_555 1_555
H13B C13B 1_555 1_555
C14B H14B 1_555 1_555
C15B H15B 1_555 1_555
C16B C4B 1_555 1_555
C17B C16B 1_555 1_555
H16B C17B 1_555 1_555
H17B C17B 1_555 1_555
H18B C17B 1_555 1_555
C18B C5B 1_555 1_555
H19B C18B 1_555 1_555
H20B C18B 1_555 1_555
H21B C18B 1_555 1_555
N1B C9B 1_555 1_555
N2B C7B 1_555 1_555
N3B C8B 1_555 1_555
N3A Zn1 1_555 1_555
N3C Zn1 1_555 1_555
N4B C14B 1_555 1_555
N5B C13B 1_555 1_555
N6B C14B 1_555 1_555
N7B C2B 1_555 1_555
N8B C1B 1_555 1_555
N9B Zn1 1_555 1_555
O4B Zn1 1_555 1_555
H22B O4B 1_555 1_555
H23B O4B 1_555 1_555
C2 N9 1_555 1_555
C3 N7 1_555 1_555
C8 N2 1_555 1_555
C9 N3 1_555 1_555
C10 C11 1_555 1_555
C12 C16 1_555 1_555
C15 N5 1_555 1_555
C15 N6 1_555 1_555
N1 N2 1_555 1_555
N4 N5 1_555 1_555
N7 N8 1_555 1_555
C1B N9B 1_555 1_555
C2B N9B 1_555 1_555
C3B N7B 1_555 1_555
C8B N2B 1_555 1_555
C9B N3B 1_555 1_555
C10B C11B 1_555 1_555
C12B C16B 1_555 1_555
C15B N5B 1_555 1_555
C15B N6B 1_555 1_555
N1B N2B 1_555 1_555
N4B N5B 1_555 1_555
N7B N8B 1_555 1_555

#END
