
#######################################################################
#
#                 Cambridge Crystallographic Data Centre
#                                CCDC 
#
#######################################################################
#
# If this CIF has been generated from an entry in the Cambridge 
# Structural Database, then it will include bibliographic, chemical, 
# crystal, experimental, refinement or atomic coordinate data resulting 
# from the CCDC's data processing and validation procedures.
#
#######################################################################

data_OWABAQ
_symmetry_cell_setting           triclinic
_symmetry_space_group_name_H-M   'P -1'
_symmetry_Int_Tables_number      2
_space_group_name_Hall           '-P 1'
loop_
_symmetry_equiv_pos_site_id
_symmetry_equiv_pos_as_xyz
1 x,y,z
2 -x,-y,-z
_cell_length_a                   10.3098(17)
_cell_length_b                   11.0830(18)
_cell_length_c                   12.258(2)
_cell_angle_alpha                75.341(2)
_cell_angle_beta                 71.067(2)
_cell_angle_gamma                81.394(2)
_cell_volume                     1278.25
loop_
_atom_site_label
_atom_site_type_symbol
_atom_site_fract_x
_atom_site_fract_y
_atom_site_fract_z
Cu1 Cu 0.5000 -0.5000 1.0000
C1 C 0.8504(6) 0.3432(5) 0.5442(5)
H1 H 0.9118 0.3537 0.5851
H2 H 0.7619 0.3841 0.5754
H3 H 0.8867 0.3793 0.4615
C2 C 0.8362(5) 0.2059(5) 0.5610(4)
C3 C 0.8015(5) 0.1617(5) 0.4767(4)
C4 C 0.7857(5) 0.0335(5) 0.4924(4)
C5 C 0.8137(5) -0.0504(4) 0.5911(4)
C6 C 0.8465(5) -0.0076(5) 0.6759(4)
C7 C 0.8540(5) 0.1205(5) 0.6624(4)
C8 C 0.8733(6) 0.1696(5) 0.7596(5)
H4 H 0.8999 0.1006 0.8167
H5 H 0.9463 0.2263 0.7267
C9 C 0.5326(6) 0.2779(6) 0.8907(6)
H6 H 0.4376 0.2749 0.9141
C10 C 0.7295(6) 0.3337(5) 0.8666(5)
H7 H 0.8011 0.3746 0.8681
C11 C 0.8721(7) -0.0996(6) 0.7831(6)
H8 H 0.7898 -0.1028 0.8488
H9 H 0.9447 -0.0731 0.8026
H10 H 0.8981 -0.1811 0.7656
C12 C 0.8097(6) -0.1888(5) 0.6036(5)
H11 H 0.8044 -0.2034 0.5304
H12 H 0.8944 -0.2316 0.6166
C13 C 0.6911(6) -0.3465(5) 0.7814(5)
H13 H 0.7679 -0.4014 0.7853
C14 C 0.4910(6) -0.2600(5) 0.8146(5)
H14 H 0.3974 -0.2446 0.8501
C15 C 0.7337(8) -0.0109(6) 0.4100(6)
H15 H 0.8093 -0.0256 0.3431
H16 H 0.6686 0.0516 0.3837
H17 H 0.6898 -0.0871 0.4503
C16 C 0.7799(6) 0.2531(5) 0.3690(5)
H18 H 0.8494 0.3132 0.3396
H19 H 0.7905 0.2086 0.3076
C17 C 0.6151(6) 0.4233(5) 0.3183(5)
H20 H 0.6733 0.4637 0.2471
C18 C 0.4282(6) 0.3763(6) 0.4706(6)
H21 H 0.3381 0.3807 0.5194
Cl1 Cl 0.7099(6) -0.4930(5) 1.0548(4)
N1 N 0.5655(5) -0.3625(4) 0.8555(4)
N2 N 0.5618(5) -0.1850(4) 0.7213(4)
N3 N 0.6914(4) -0.2425(4) 0.7024(4)
N4 N 0.5289(7) 0.2927(6) 0.4866(6)
N5 N 0.6429(5) 0.3198(4) 0.3954(4)
N6 N 0.4844(9) 0.4525(7) 0.3695(7)
N7 N 0.7445(4) 0.2358(4) 0.8191(4)
N8 N 0.6197(5) 0.1984(5) 0.8334(5)
N9 N 0.5961(5) 0.3647(4) 0.9118(4)
Cu1_2 Cu 0.5000 -1.5000 1.0000
Cu1_3 Cu 0.5000 0.5000 1.0000
C1A C 0.1496(6) -1.3432(5) 1.4558(5)
H1A H 0.0882 -1.3537 1.4149
H2A H 0.2381 -1.3841 1.4246
H3A H 0.1133 -1.3793 1.5385
C2A C 0.1638(5) -1.2059(5) 1.4390(4)
C3A C 0.1985(5) -1.1617(5) 1.5233(4)
C4A C 0.2143(5) -1.0335(5) 1.5076(4)
C5A C 0.1863(5) -0.9496(4) 1.4089(4)
C6A C 0.1535(5) -0.9924(5) 1.3241(4)
C7A C 0.1460(5) -1.1205(5) 1.3376(4)
C8A C 0.1267(6) -1.1696(5) 1.2404(5)
H4A H 0.1001 -1.1006 1.1833
H5A H 0.0537 -1.2263 1.2733
C9A C 0.4674(6) -1.2779(6) 1.1093(6)
H6A H 0.5624 -1.2749 1.0859
C10A C 0.2705(6) -1.3337(5) 1.1334(5)
H7A H 0.1989 -1.3746 1.1319
C11A C 0.1279(7) -0.9004(6) 1.2169(6)
H8A H 0.2102 -0.8972 1.1512
H9A H 0.0553 -0.9269 1.1974
H10A H 0.1019 -0.8189 1.2344
C12A C 0.1903(6) -0.8112(5) 1.3964(5)
H11A H 0.1956 -0.7966 1.4696
H12A H 0.1056 -0.7684 1.3834
C13A C 0.3089(6) -0.6535(5) 1.2186(5)
H13A H 0.2321 -0.5986 1.2147
C14A C 0.5090(6) -0.7400(5) 1.1854(5)
H14A H 0.6026 -0.7554 1.1499
C15A C 0.2663(8) -0.9891(6) 1.5900(6)
H15A H 0.1907 -0.9744 1.6569
H16A H 0.3314 -1.0516 1.6163
H17A H 0.3102 -0.9129 1.5497
C16A C 0.2201(6) -1.2531(5) 1.6310(5)
H18A H 0.1506 -1.3132 1.6604
H19A H 0.2095 -1.2086 1.6924
C17A C 0.3849(6) -1.4233(5) 1.6817(5)
H20A H 0.3267 -1.4637 1.7529
C18A C 0.5718(6) -1.3763(6) 1.5294(6)
H21A H 0.6619 -1.3807 1.4806
Cl1A Cl 0.2901(6) -0.5070(5) 0.9452(4)
N1A N 0.4345(5) -0.6375(4) 1.1445(4)
N2A N 0.4382(5) -0.8150(4) 1.2787(4)
N3A N 0.3086(4) -0.7575(4) 1.2976(4)
N4A N 0.4711(7) -1.2927(6) 1.5134(6)
N5A N 0.3571(5) -1.3198(4) 1.6046(4)
N6A N 0.5156(9) -1.4525(7) 1.6305(7)
N7A N 0.2555(4) -1.2358(4) 1.1809(4)
N8A N 0.3803(5) -1.1984(5) 1.1666(5)
N9A N 0.4039(5) -1.3647(4) 1.0882(4)
N9_2 N 0.5961(5) -0.6353(4) 0.9118(4)
N9A_2 N 0.4039(5) -0.3647(4) 1.0882(4)
O1 O 0.4807(6) 0.0823(5) 0.7239(6)
H22 H 0.5309 0.0983 0.7607
H23 H 0.5009 0.0060 0.7200
O2 O 0.1659(6) 0.3335(6) 0.6516(7)
H24 H 0.1375 0.3750 0.7055
H25 H 0.2398 0.3659 0.6065
O3 O 0.9713(18) 0.6355(17) 0.9799(15)
H26 H 0.9828 0.6907 1.0125
H27 H 0.8912 0.6722 0.9973
O4 O 0.7839(15) 0.8326(15) 0.1454(11)
H28 H 0.7040 0.8638 0.1765
H29 H 0.8292 0.8962 0.1075
O5 O 0.8599(8) 0.1367(9) 0.0721(6)
H30 H 0.7969 0.1053 0.0600
H31 H 0.8636 0.2115 0.0762
O6 O 0.9899(4) 0.5184(4) 0.7887(7)
H32 H 0.9836 0.5349 0.7190
H33 H 0.9676 0.5453 0.8519
O2A O 0.8341(6) -1.3335(6) 1.3484(7)
H24A H 0.8625 -1.3750 1.2945
H25A H 0.7602 -1.3659 1.3935
loop_
_geom_bond_atom_site_label_1
_geom_bond_atom_site_label_2
_geom_bond_site_symmetry_1
_geom_bond_site_symmetry_2
Cu1 Cl1 1_555 1_555
C1 H1 1_555 1_555
H2 C1 1_555 1_555
H3 C1 1_555 1_555
C2 C1 1_555 1_555
C3 C2 1_555 1_555
C4 C3 1_555 1_555
C5 C4 1_555 1_555
C6 C5 1_555 1_555
C7 C2 1_555 1_555
C8 C7 1_555 1_555
H4 C8 1_555 1_555
H5 C8 1_555 1_555
C9 H6 1_555 1_555
C10 H7 1_555 1_555
C11 C6 1_555 1_555
H8 C11 1_555 1_555
H9 C11 1_555 1_555
H10 C11 1_555 1_555
C12 C5 1_555 1_555
H11 C12 1_555 1_555
H12 C12 1_555 1_555
C13 H13 1_555 1_555
C14 H14 1_555 1_555
C15 C4 1_555 1_555
H15 C15 1_555 1_555
H16 C15 1_555 1_555
H17 C15 1_555 1_555
C16 C3 1_555 1_555
H18 C16 1_555 1_555
H19 C16 1_555 1_555
C17 H20 1_555 1_555
C18 H21 1_555 1_555
N1 Cu1 1_555 1_555
N2 C14 1_555 1_555
N3 C12 1_555 1_555
N4 C18 1_555 1_555
N5 C16 1_555 1_555
N6 C17 1_555 1_555
N7 C8 1_555 1_555
N8 C9 1_555 1_555
N9 C9 1_555 1_555
O1 H22 1_555 1_555
H23 O1 1_555 1_555
O2 H24 1_555 1_555
H25 O2 1_555 1_555
O3 H26 1_555 1_555
H27 O3 1_555 1_555
O4 H28 1_555 1_555
H29 O4 1_555 1_555
O5 H30 1_555 1_555
H31 O5 1_555 1_555
O6 H32 1_555 1_555
H33 O6 1_555 1_555
Cu1_2 N9A 1_555 1_555
Cu1_3 N9 1_555 1_555
C1A H1A 1_555 1_555
H2A C1A 1_555 1_555
H3A C1A 1_555 1_555
C2A C1A 1_555 1_555
C3A C2A 1_555 1_555
C4A C3A 1_555 1_555
C5A C4A 1_555 1_555
C6A C5A 1_555 1_555
C7A C2A 1_555 1_555
C8A C7A 1_555 1_555
H4A C8A 1_555 1_555
H5A C8A 1_555 1_555
C9A H6A 1_555 1_555
C10A H7A 1_555 1_555
C11A C6A 1_555 1_555
H8A C11A 1_555 1_555
H9A C11A 1_555 1_555
H10A C11A 1_555 1_555
C12A C5A 1_555 1_555
H11A C12A 1_555 1_555
H12A C12A 1_555 1_555
C13A H13A 1_555 1_555
C14A H14A 1_555 1_555
C15A C4A 1_555 1_555
H15A C15A 1_555 1_555
H16A C15A 1_555 1_555
H17A C15A 1_555 1_555
C16A C3A 1_555 1_555
H18A C16A 1_555 1_555
H19A C16A 1_555 1_555
C17A H20A 1_555 1_555
C18A H21A 1_555 1_555
Cl1A Cu1 1_555 1_555
N1A Cu1 1_555 1_555
N2A C14A 1_555 1_555
N3A C12A 1_555 1_555
N4A C18A 1_555 1_555
N5A C16A 1_555 1_555
N6A C17A 1_555 1_555
N7A C8A 1_555 1_555
N8A C9A 1_555 1_555
N9A C9A 1_555 1_555
N9_2 Cu1 1_555 1_555
N9A_2 Cu1 1_555 1_555
O2A H24A 1_555 1_555
H25A O2A 1_555 1_555
C6 C7 1_555 1_555
C10 N7 1_555 1_555
C10 N9 1_555 1_555
C13 N1 1_555 1_555
C13 N3 1_555 1_555
C14 N1 1_555 1_555
C17 N5 1_555 1_555
C18 N6 1_555 1_555
N2 N3 1_555 1_555
N4 N5 1_555 1_555
N7 N8 1_555 1_555
C6A C7A 1_555 1_555
C10A N7A 1_555 1_555
C10A N9A 1_555 1_555
C13A N1A 1_555 1_555
C13A N3A 1_555 1_555
C14A N1A 1_555 1_555
C17A N5A 1_555 1_555
C18A N6A 1_555 1_555
N2A N3A 1_555 1_555
N4A N5A 1_555 1_555
N7A N8A 1_555 1_555

#END
