
#######################################################################
#
#                 Cambridge Crystallographic Data Centre
#                                CCDC 
#
#######################################################################
#
# If this CIF has been generated from an entry in the Cambridge 
# Structural Database, then it will include bibliographic, chemical, 
# crystal, experimental, refinement or atomic coordinate data resulting 
# from the CCDC's data processing and validation procedures.
#
#######################################################################

data_OWABOE
_symmetry_cell_setting           monoclinic
_symmetry_space_group_name_H-M   'C 2/c'
_symmetry_Int_Tables_number      15
_space_group_name_Hall           '-C 2yn'
loop_
_symmetry_equiv_pos_site_id
_symmetry_equiv_pos_as_xyz
1 x,y,z
2 -x,y,1/2-z
3 1/2+x,1/2+y,z
4 1/2-x,1/2+y,1/2-z
5 -x,-y,-z
6 x,-y,1/2+z
7 1/2-x,1/2-y,-z
8 1/2+x,1/2-y,1/2+z
_cell_length_a                   19.1020(14)
_cell_length_b                   11.5697(9)
_cell_length_c                   23.0912(17)
_cell_angle_alpha                90
_cell_angle_beta                 105.1320(10)
_cell_angle_gamma                90
_cell_volume                     4926.31
loop_
_atom_site_label
_atom_site_type_symbol
_atom_site_fract_x
_atom_site_fract_y
_atom_site_fract_z
Zn1 Zn 0.35004(3) 0.03139(5) 0.27540(2)
C1 C 0.4331(3) 0.0781(4) 0.1815(2)
H1 H 0.4388 -0.0003 0.1752
C2 C 0.4063(2) 0.2333(4) 0.21859(17)
H2 H 0.3902 0.2874 0.2420
C3 C 0.4471(2) 0.3705(4) 0.14823(18)
H3 H 0.4982 0.3800 0.1507
H4 H 0.4327 0.4319 0.1713
C4 C 0.4035(2) 0.3789(3) 0.08342(16)
C5 C 0.4374(2) 0.3571(3) 0.03716(18)
C6 C 0.5174(3) 0.3271(5) 0.0520(2)
H5 H 0.5268 0.2803 0.0206
H6 H 0.5307 0.2852 0.0892
H7 H 0.5454 0.3969 0.0558
C7 C 0.3955(2) 0.3619(3) -0.02264(17)
C8 C 0.4317(3) 0.3411(4) -0.0728(2)
H8 H 0.4126 0.3954 -0.1050
H9 H 0.4834 0.3550 -0.0579
C9 C 0.3979(4) 0.1873(5) -0.1532(2)
H10 H 0.3841 0.2359 -0.1863
C10 C 0.4211(3) 0.0428(4) -0.0965(2)
H11 H 0.4265 -0.0337 -0.0837
C11 C 0.2744(4) 0.3860(5) -0.1005(2)
H12 H 0.2318 0.3397 -0.1041
H13 H 0.3018 0.3563 -0.1267
H14 H 0.2605 0.4644 -0.1113
C12 C 0.3208(3) 0.3821(3) -0.03591(17)
C13 C 0.2874(2) 0.4002(4) 0.01096(19)
C14 C 0.2055(3) 0.4103(5) -0.0024(3)
H15 H 0.1839 0.3603 -0.0360
H16 H 0.1905 0.3819 0.0321
C15 C 0.1018(5) 0.6630(7) -0.0473(4)
H17 H 0.0609 0.7054 -0.0664
C16 C 0.2131(4) 0.6175(5) 0.0020(4)
H18 H 0.2613 0.6246 0.0238
C17 C 0.3296(2) 0.4031(3) 0.07039(17)
C18 C 0.2946(3) 0.4358(5) 0.1204(2)
H19 H 0.2938 0.3695 0.1453
H20 H 0.2459 0.4619 0.1033
H21 H 0.3221 0.4965 0.1443
C19 C 0.3061(3) -0.1438(4) 0.1959(2)
C20 C 0.2540(4) -0.2203(5) 0.1528(2)
H22 H 0.2793 -0.2619 0.1279
H23 H 0.2164 -0.1737 0.1268
C21 C 0.2203(4) -0.3053(6) 0.1878(3)
N1 N 0.4041(2) 0.1192(3) 0.22497(15)
N2 N 0.4523(2) 0.1584(3) 0.14913(16)
N3 N 0.43517(19) 0.2576(3) 0.17365(14)
N4 N 0.3985(3) 0.0736(4) -0.15548(17)
N5 N 0.4199(2) 0.2221(3) -0.09648(16)
N6 N 0.4344(3) 0.1292(4) -0.06004(17)
N7 N 0.1081(4) 0.5491(5) -0.0440(3)
N8 N 0.1773(2) 0.5239(4) -0.01590(19)
N9 N 0.1645(4) 0.7029(6) -0.0183(3)
O1 O 0.2778(2) -0.0659(3) 0.22091(17)
O2 O 0.3727(2) -0.1570(3) 0.20741(18)
O3 O 0.2522(4) -0.3387(7) 0.2352(4)
O4 O 0.1607(4) -0.3415(7) 0.1650(2)
Zn1E Zn 0.35004(3) -0.03139(5) -0.22460(2)
Zn1C Zn 0.14996(3) -0.46861(5) 0.22460(2)
N4E N 0.3985(3) -0.0736(4) 0.34452(17)
O3C O 0.2478(4) 0.1613(7) 0.2648(4)
O4C O 0.3393(4) 0.1585(7) 0.3350(2)
O5 O 0.1251(3) -0.0338(5) 0.2093(3)
O6 O 0.4403(6) 0.6817(10) 0.1549(5)
O7 O 0.4471(8) 0.6181(12) 0.2382(8)
loop_
_geom_bond_atom_site_label_1
_geom_bond_atom_site_label_2
_geom_bond_site_symmetry_1
_geom_bond_site_symmetry_2
Zn1 N1 1_555 1_555
C1 H1 1_555 1_555
C2 H2 1_555 1_555
C3 H3 1_555 1_555
H4 C3 1_555 1_555
C4 C3 1_555 1_555
C5 C4 1_555 1_555
C6 C5 1_555 1_555
H5 C6 1_555 1_555
H6 C6 1_555 1_555
H7 C6 1_555 1_555
C7 C5 1_555 1_555
C8 C7 1_555 1_555
H8 C8 1_555 1_555
H9 C8 1_555 1_555
C9 H10 1_555 1_555
C10 H11 1_555 1_555
C11 H12 1_555 1_555
H13 C11 1_555 1_555
H14 C11 1_555 1_555
C12 C7 1_555 1_555
C13 C12 1_555 1_555
C14 C13 1_555 1_555
H15 C14 1_555 1_555
H16 C14 1_555 1_555
C15 H17 1_555 1_555
C16 H18 1_555 1_555
C17 C4 1_555 1_555
C18 C17 1_555 1_555
H19 C18 1_555 1_555
H20 C18 1_555 1_555
H21 C18 1_555 1_555
C19 C20 1_555 1_555
C20 H22 1_555 1_555
H23 C20 1_555 1_555
C21 C20 1_555 1_555
N1 C1 1_555 1_555
N2 C1 1_555 1_555
N3 C2 1_555 1_555
N4 C9 1_555 1_555
N5 C8 1_555 1_555
N6 C10 1_555 1_555
N7 C15 1_555 1_555
N8 C14 1_555 1_555
N9 C15 1_555 1_555
O1 Zn1 1_555 1_555
O2 C19 1_555 1_555
O3 C21 1_555 1_555
O4 C21 1_555 1_555
Zn1E N4 1_555 1_555
Zn1C O3 1_555 1_555
N4E Zn1 1_555 1_555
O3C Zn1 1_555 1_555
O4C Zn1 1_555 1_555
C2 N1 1_555 1_555
C3 N3 1_555 1_555
C9 N5 1_555 1_555
C10 N4 1_555 1_555
C11 C12 1_555 1_555
C13 C17 1_555 1_555
C16 N8 1_555 1_555
C16 N9 1_555 1_555
C19 O1 1_555 1_555
N2 N3 1_555 1_555
N5 N6 1_555 1_555
N7 N8 1_555 1_555
O4 Zn1C 1_555 1_555

#END
