
#######################################################################
#
#                 Cambridge Crystallographic Data Centre
#                                CCDC 
#
#######################################################################
#
# If this CIF has been generated from an entry in the Cambridge 
# Structural Database, then it will include bibliographic, chemical, 
# crystal, experimental, refinement or atomic coordinate data resulting 
# from the CCDC's data processing and validation procedures.
#
#######################################################################

data_OWABUK
_symmetry_cell_setting           triclinic
_symmetry_space_group_name_H-M   'P -1'
_symmetry_Int_Tables_number      2
_space_group_name_Hall           '-P 1'
loop_
_symmetry_equiv_pos_site_id
_symmetry_equiv_pos_as_xyz
1 x,y,z
2 -x,-y,-z
_cell_length_a                   9.136(2)
_cell_length_b                   14.991(4)
_cell_length_c                   15.697(4)
_cell_angle_alpha                62.185(3)
_cell_angle_beta                 79.796(3)
_cell_angle_gamma                89.508(3)
_cell_volume                     1864.57
loop_
_atom_site_label
_atom_site_type_symbol
_atom_site_fract_x
_atom_site_fract_y
_atom_site_fract_z
Zn1 Zn 0.5000 0.5000 0.5000
Zn2 Zn 0.88790(4) 0.11769(3) -0.15864(3)
C1 C 0.2279(4) 0.1706(3) -0.2276(3)
C2 C 0.3794(5) 0.1575(3) -0.2027(3)
H1 H 0.4601 0.1673 -0.2524
C3 C 0.4065(4) 0.1331(3) -0.1157(3)
H2 H 0.3267 0.1241 -0.0657
C4 C 0.5597(4) 0.1192(3) -0.0928(3)
C5 C 0.8078(5) 0.3419(3) -0.2122(4)
H3 H 0.7517 0.3434 -0.2567
C6 C 0.9479(5) 0.2927(3) -0.1111(3)
H4 H 1.0103 0.2546 -0.0689
C7 C 0.9601(5) 0.4438(4) -0.0832(4)
H5 H 1.0428 0.4912 -0.1299
H6 H 0.9967 0.3994 -0.0243
C8 C 0.8402(5) 0.5019(3) -0.0579(3)
C9 C 0.7459(5) 0.4559(3) 0.0349(3)
C10 C 0.7577(7) 0.3467(4) 0.1064(4)
H7 H 0.6845 0.3044 0.1018
H8 H 0.7405 0.3383 0.1719
H9 H 0.8556 0.3280 0.0908
C11 C 0.6434(5) 0.5132(3) 0.0610(3)
C12 C 0.5370(5) 0.4657(4) 0.1584(4)
H10 H 0.4376 0.4856 0.1480
H11 H 0.5338 0.3927 0.1861
C13 C 0.4930(5) 0.4894(4) 0.3082(3)
H12 H 0.3914 0.4691 0.3275
C14 C 0.7071(6) 0.5420(6) 0.3000(4)
H13 H 0.7867 0.5671 0.3144
C15 C 0.8047(5) 0.4272(3) 0.5406(3)
C16 C 0.9688(5) 0.4545(4) 0.5229(4)
H14 H 1.0298 0.4018 0.5467
C17 C 0.5363(6) 0.6782(4) 0.0285(4)
H15 H 0.4393 0.6423 0.0590
H16 H 0.5282 0.7414 -0.0276
H17 H 0.5767 0.6908 0.0747
C18 C 0.6376(5) 0.6155(3) -0.0037(3)
C19 C 0.7272(5) 0.6593(3) -0.0979(3)
C20 C 0.7125(6) 0.7680(3) -0.1693(4)
H18 H 0.7426 0.7779 -0.2358
H19 H 0.6087 0.7819 -0.1603
C21 C 0.7663(5) 0.9227(3) -0.1518(4)
H20 H 0.6702 0.9436 -0.1499
C22 C 0.9944(6) 0.9125(4) -0.1543(5)
H21 H 1.0930 0.9282 -0.1549
C23 C 0.8284(5) 0.6025(3) -0.1257(3)
C24 C 0.9187(7) 0.6483(4) -0.2291(4)
H22 H 0.9744 0.5975 -0.2378
H23 H 0.9863 0.7029 -0.2402
H24 H 0.8528 0.6734 -0.2751
N1 N 0.5704(4) 0.5168(3) 0.3566(3)
N2 N 0.5781(4) 0.4947(3) 0.2292(3)
N3 N 0.7190(5) 0.5283(5) 0.2225(4)
N4 N 0.8839(4) 0.9718(3) -0.1498(3)
N5 N 0.8041(4) 0.8400(3) -0.1568(3)
N6 N 0.9521(5) 0.8323(4) -0.1577(5)
N7 N 0.8862(4) 0.2640(3) -0.1645(3)
N8 N 0.9096(4) 0.3828(3) -0.1250(3)
N9 N 0.8174(5) 0.4159(3) -0.1904(3)
O1 O 0.6630(3) 0.1195(2) -0.1587(2)
O2 O 0.5740(3) 0.1063(2) -0.0098(2)
O3 O 0.1181(3) 0.1206(2) -0.1593(2)
O4 O 0.2183(4) 0.2292(3) -0.3138(3)
O5 O 0.7223(3) 0.4988(2) 0.5133(2)
O6 O 0.7606(4) 0.3356(3) 0.5806(3)
O7 O 0.5266(4) 0.6604(2) 0.4481(2)
H25 H 0.6014 0.6849 0.4047
H26 H 0.4478 0.6777 0.4243
O8 O 0.8542(3) 0.0621(2) -0.0037(2)
H27 H 0.7677 0.0677 0.0171
H28 H 0.8593 0.0021 0.0412
O9 O 0.9329(3) 0.1857(2) -0.3163(2)
H29 H 0.8699 0.2251 -0.3380
H30 H 1.0176 0.2177 -0.3311
Zn1_2 Zn 1.5000 0.5000 0.5000
Zn2A Zn 0.11210(4) 0.88231(3) 1.15864(3)
Zn2_2 Zn -0.11210(4) 0.11769(3) -0.15864(3)
Zn2_3 Zn 0.88790(4) 1.11769(3) -0.15864(3)
Zn2A_2 Zn 0.11210(4) -0.11769(3) 1.15864(3)
Zn2A_3 Zn 1.11210(4) 0.88231(3) 1.15864(3)
C1A C 0.7721(4) 0.8294(3) 1.2276(3)
C2A C 0.6206(5) 0.8425(3) 1.2027(3)
H1A H 0.5399 0.8327 1.2524
C3A C 0.5935(4) 0.8669(3) 1.1157(3)
H2A H 0.6733 0.8759 1.0657
C4A C 0.4403(4) 0.8808(3) 1.0928(3)
C5A C 0.1922(5) 0.6581(3) 1.2122(4)
H3A H 0.2483 0.6566 1.2567
C6A C 0.0521(5) 0.7073(3) 1.1111(3)
H4A H -0.0103 0.7454 1.0689
C7A C 0.0399(5) 0.5562(4) 1.0832(4)
H5A H -0.0428 0.5088 1.1299
H6A H 0.0033 0.6006 1.0243
C8A C 0.1598(5) 0.4981(3) 1.0579(3)
C9A C 0.2541(5) 0.5441(3) 0.9651(3)
C10A C 0.2423(7) 0.6533(4) 0.8936(4)
H7A H 0.3155 0.6956 0.8982
H8A H 0.2595 0.6617 0.8281
H9A H 0.1444 0.6720 0.9092
C11A C 0.3566(5) 0.4868(3) 0.9390(3)
C12A C 0.4630(5) 0.5343(4) 0.8416(4)
H10A H 0.5624 0.5144 0.8520
H11A H 0.4662 0.6073 0.8139
C13A C 0.5070(5) 0.5106(4) 0.6918(3)
H12A H 0.6086 0.5309 0.6725
C14A C 0.2929(6) 0.4580(6) 0.7000(4)
H13A H 0.2133 0.4329 0.6856
C15A C 1.1953(5) 0.5728(3) 0.4594(3)
C16A C 1.0312(5) 0.5455(4) 0.4771(4)
H14A H 0.9702 0.5982 0.4533
C17A C 0.4637(6) 0.3218(4) 0.9715(4)
H15A H 0.5607 0.3577 0.9410
H16A H 0.4718 0.2586 1.0276
H17A H 0.4233 0.3092 0.9253
C18A C 0.3624(5) 0.3845(3) 1.0037(3)
C19A C 0.2728(5) 0.3407(3) 1.0979(3)
C20A C 0.2875(6) 0.2320(3) 1.1693(4)
H18A H 0.2574 0.2221 1.2358
H19A H 0.3913 0.2181 1.1603
C21A C 0.2337(5) 0.0773(3) 1.1518(4)
H20A H 0.3298 0.0564 1.1499
C22A C 0.0056(6) 0.0875(4) 1.1543(5)
H21A H -0.0930 0.0718 1.1549
C23A C 0.1716(5) 0.3975(3) 1.1257(3)
C24A C 0.0813(7) 0.3517(4) 1.2291(4)
H22A H 0.0256 0.4025 1.2378
H23A H 0.0137 0.2971 1.2402
H24A H 0.1472 0.3266 1.2751
N1A N 0.4296(4) 0.4832(3) 0.6434(3)
N2A N 0.4219(4) 0.5053(3) 0.7708(3)
N3A N 0.2810(5) 0.4717(5) 0.7775(4)
N4A N 0.1161(4) 0.0282(3) 1.1498(3)
N4_2 N 0.8839(4) -0.0282(3) -0.1498(3)
N4A_2 N 0.1161(4) 1.0282(3) 1.1498(3)
N5A N 0.1959(4) 0.1600(3) 1.1568(3)
N6A N 0.0479(5) 0.1677(4) 1.1577(5)
N7A N 0.1138(4) 0.7360(3) 1.1645(3)
N8A N 0.0904(4) 0.6172(3) 1.1250(3)
N9A N 0.1826(5) 0.5841(3) 1.1904(3)
O1A O 0.3370(3) 0.8805(2) 1.1587(2)
O2A O 0.4260(3) 0.8937(2) 1.0098(2)
O3A O 0.8819(3) 0.8794(2) 1.1593(2)
O3_2 O 1.1181(3) 0.1206(2) -0.1593(2)
O3A_2 O -0.1181(3) 0.8794(2) 1.1593(2)
O4A O 0.7817(4) 0.7708(3) 1.3138(3)
O5A O 1.2777(3) 0.5012(2) 0.4867(2)
O5A_2 O 0.2777(3) 0.5012(2) 0.4867(2)
O6A O 1.2394(4) 0.6644(3) 0.4194(3)
O7A O 0.4734(4) 0.3396(2) 0.5519(2)
H25A H 0.3986 0.3151 0.5953
H26A H 0.5522 0.3223 0.5757
O8A O 0.1458(3) 0.9379(2) 1.0037(2)
H27A H 0.2323 0.9323 0.9829
H28A H 0.1407 0.9979 0.9588
O9A O 0.0671(3) 0.8143(2) 1.3163(2)
H29A H 0.1301 0.7749 1.3380
H30A H -0.0176 0.7823 1.3311
O10 O 0.6046(14) 0.0906(10) 0.1826(11)
H31 H 0.6019 0.1092 0.1228
H32 H 0.5732 0.0877 0.2382
loop_
_geom_bond_atom_site_label_1
_geom_bond_atom_site_label_2
_geom_bond_site_symmetry_1
_geom_bond_site_symmetry_2
Zn1 N1 1_555 1_555
Zn2 N7 1_555 1_555
C1 C2 1_555 1_555
C2 H1 1_555 1_555
C3 C2 1_555 1_555
H2 C3 1_555 1_555
C4 C3 1_555 1_555
C5 H3 1_555 1_555
C6 H4 1_555 1_555
C7 H5 1_555 1_555
H6 C7 1_555 1_555
C8 C7 1_555 1_555
C9 C8 1_555 1_555
C10 C9 1_555 1_555
H7 C10 1_555 1_555
H8 C10 1_555 1_555
H9 C10 1_555 1_555
C11 C9 1_555 1_555
C12 C11 1_555 1_555
H10 C12 1_555 1_555
H11 C12 1_555 1_555
C13 H12 1_555 1_555
C14 H13 1_555 1_555
C15 C16 1_555 1_555
C16 H14 1_555 1_555
C17 H15 1_555 1_555
H16 C17 1_555 1_555
H17 C17 1_555 1_555
C18 C11 1_555 1_555
C19 C18 1_555 1_555
C20 C19 1_555 1_555
H18 C20 1_555 1_555
H19 C20 1_555 1_555
C21 H20 1_555 1_555
C22 H21 1_555 1_555
C23 C8 1_555 1_555
C24 C23 1_555 1_555
H22 C24 1_555 1_555
H23 C24 1_555 1_555
H24 C24 1_555 1_555
N1 C13 1_555 1_555
N2 C12 1_555 1_555
N3 C14 1_555 1_555
N4 C21 1_555 1_555
N5 C20 1_555 1_555
N6 C22 1_555 1_555
N7 C5 1_555 1_555
N8 C6 1_555 1_555
N9 C5 1_555 1_555
O1 Zn2 1_555 1_555
O2 C4 1_555 1_555
O3 C1 1_555 1_555
O4 C1 1_555 1_555
O5 Zn1 1_555 1_555
O6 C15 1_555 1_555
O7 Zn1 1_555 1_555
H25 O7 1_555 1_555
H26 O7 1_555 1_555
O8 Zn2 1_555 1_555
H27 O8 1_555 1_555
H28 O8 1_555 1_555
O9 Zn2 1_555 1_555
H29 O9 1_555 1_555
H30 O9 1_555 1_555
O10 H31 1_555 1_555
H32 O10 1_555 1_555
Zn1_2 O5A 1_555 1_555
Zn2A N4A_2 1_555 1_555
Zn2_2 O3 1_555 1_555
Zn2_3 N4 1_555 1_555
Zn2A_2 N4A 1_555 1_555
Zn2A_3 O3A 1_555 1_555
C1A C2A 1_555 1_555
C2A H1A 1_555 1_555
C3A C2A 1_555 1_555
H2A C3A 1_555 1_555
C4A C3A 1_555 1_555
C5A H3A 1_555 1_555
C6A H4A 1_555 1_555
C7A H5A 1_555 1_555
H6A C7A 1_555 1_555
C8A C7A 1_555 1_555
C9A C8A 1_555 1_555
C10A C9A 1_555 1_555
H7A C10A 1_555 1_555
H8A C10A 1_555 1_555
H9A C10A 1_555 1_555
C11A C9A 1_555 1_555
C12A C11A 1_555 1_555
H10A C12A 1_555 1_555
H11A C12A 1_555 1_555
C13A H12A 1_555 1_555
C14A H13A 1_555 1_555
C15A C16A 1_555 1_555
C16A C16 1_555 1_555
H14A C16A 1_555 1_555
C17A H15A 1_555 1_555
H16A C17A 1_555 1_555
H17A C17A 1_555 1_555
C18A C11A 1_555 1_555
C19A C18A 1_555 1_555
C20A C19A 1_555 1_555
H18A C20A 1_555 1_555
H19A C20A 1_555 1_555
C21A H20A 1_555 1_555
C22A H21A 1_555 1_555
C23A C8A 1_555 1_555
C24A C23A 1_555 1_555
H22A C24A 1_555 1_555
H23A C24A 1_555 1_555
H24A C24A 1_555 1_555
N1A Zn1 1_555 1_555
N2A C12A 1_555 1_555
N3A C14A 1_555 1_555
N4A C21A 1_555 1_555
N4_2 Zn2 1_555 1_555
N5A C20A 1_555 1_555
N6A C22A 1_555 1_555
N7A Zn2A 1_555 1_555
N8A C6A 1_555 1_555
N9A C5A 1_555 1_555
O1A Zn2A 1_555 1_555
O2A C4A 1_555 1_555
O3A C1A 1_555 1_555
O3_2 Zn2 1_555 1_555
O3A_2 Zn2A 1_555 1_555
O4A C1A 1_555 1_555
O5A C15A 1_555 1_555
O5A_2 Zn1 1_555 1_555
O6A C15A 1_555 1_555
O7A Zn1 1_555 1_555
H25A O7A 1_555 1_555
H26A O7A 1_555 1_555
O8A Zn2A 1_555 1_555
H27A O8A 1_555 1_555
H28A O8A 1_555 1_555
O9A Zn2A 1_555 1_555
H29A O9A 1_555 1_555
H30A O9A 1_555 1_555
C4 O1 1_555 1_555
C6 N7 1_555 1_555
C7 N8 1_555 1_555
C13 N2 1_555 1_555
C14 N1 1_555 1_555
C15 O5 1_555 1_555
C17 C18 1_555 1_555
C19 C23 1_555 1_555
C21 N5 1_555 1_555
C22 N4 1_555 1_555
N2 N3 1_555 1_555
N5 N6 1_555 1_555
N8 N9 1_555 1_555
C4A O1A 1_555 1_555
C5A N7A 1_555 1_555
C6A N7A 1_555 1_555
C7A N8A 1_555 1_555
C13A N1A 1_555 1_555
C13A N2A 1_555 1_555
C14A N1A 1_555 1_555
C17A C18A 1_555 1_555
C19A C23A 1_555 1_555
C21A N5A 1_555 1_555
C22A N4A 1_555 1_555
N2A N3A 1_555 1_555
N5A N6A 1_555 1_555
N8A N9A 1_555 1_555

#END
