
#######################################################################
#
#                 Cambridge Crystallographic Data Centre
#                                CCDC 
#
#######################################################################
#
# If this CIF has been generated from an entry in the Cambridge 
# Structural Database, then it will include bibliographic, chemical, 
# crystal, experimental, refinement or atomic coordinate data resulting 
# from the CCDC's data processing and validation procedures.
#
#######################################################################

data_OWACAR
_symmetry_cell_setting           tetragonal
_symmetry_space_group_name_H-M   'P 4/n c c'
_symmetry_Int_Tables_number      130
_space_group_name_Hall           '-P 4a 2ac'
loop_
_symmetry_equiv_pos_site_id
_symmetry_equiv_pos_as_xyz
1 x,y,z
2 1/2-y,x,z
3 1/2+x,-y,1/2-z
4 1/2-x,1/2-y,z
5 1/2+y,1/2+x,1/2-z
6 y,1/2-x,z
7 -x,1/2+y,1/2-z
8 -y,-x,1/2-z
9 -x,-y,-z
10 1/2+y,-x,-z
11 1/2-x,y,1/2+z
12 1/2+x,1/2+y,-z
13 1/2-y,1/2-x,1/2+z
14 -y,1/2+x,-z
15 x,1/2-y,1/2+z
16 y,x,1/2+z
_cell_length_a                   11.9670(3)
_cell_length_b                   11.9670(3)
_cell_length_c                   28.6669(7)
_cell_angle_alpha                90
_cell_angle_beta                 90
_cell_angle_gamma                90
_cell_volume                     4105.36
loop_
_atom_site_label
_atom_site_type_symbol
_atom_site_fract_x
_atom_site_fract_y
_atom_site_fract_z
Ag1 Ag 0.76140(3) 1.08769(3) 0.210131(14)
Ag2 Ag 0.86662(3) 0.91615(3) 0.260520(13)
C1 C 0.9987(4) 0.9347(4) 0.07875(17)
H1 H 0.9216 0.9464 0.0725
C2 C 1.0699(5) 0.9066(5) 0.04301(18)
H2 H 1.0418 0.8977 0.0122
C3 C 1.1823(5) 0.8913(6) 0.0519(2)
H3 H 1.2311 0.8707 0.0272
C4 C 1.2241(4) 0.9057(4) 0.0960(2)
H4 H 1.3018 0.8966 0.1015
C5 C 1.1541(3) 0.9334(3) 0.13257(16)
C6 C 1.0390(3) 0.9460(3) 0.12388(14)
C7 C 0.9567(3) 0.9682(3) 0.16256(15)
C8 C 1.2081(3) 0.9564(3) 0.17900(16)
O1 O 0.8657(2) 1.0118(3) 0.15295(12)
O2 O 0.9870(3) 0.9388(3) 0.20313(11)
O3 O 1.2337(2) 1.0568(2) 0.18673(11)
O4 O 1.2295(2) 0.8769(2) 0.20664(11)
Ag1A Ag 0.41231(3) 0.76140(3) 0.210131(14)
Ag1B Ag 0.26140(3) 0.91231(3) 0.289869(14)
Ag1E Ag 1.08769(3) 1.73860(3) 0.210131(14)
Ag1E_2 Ag 1.08769(3) 0.73860(3) 0.210131(14)
Ag1B_2 Ag 1.26140(3) 0.91231(3) 0.289869(14)
Ag1A_2 Ag 1.41231(3) 0.76140(3) 0.210131(14)
Ag1D Ag 0.58769(3) 1.26140(3) 0.289869(14)
Ag1C Ag 0.73860(3) 1.41231(3) 0.210131(14)
Ag1G Ag 0.91231(3) 1.23860(3) 0.289869(14)
Ag2A Ag 0.58385(3) 0.86662(3) 0.260520(13)
Ag2B Ag 0.36662(3) 1.08385(3) 0.239480(13)
Ag2E Ag 0.91615(3) 1.63338(3) 0.260520(13)
Ag2B_2 Ag 1.36662(3) 1.08385(3) 0.239480(13)
Ag2G Ag 1.08385(3) 1.13338(3) 0.239480(13)
Ag2D Ag 0.41615(3) 1.36662(3) 0.239480(13)
Ag2F Ag 1.13338(3) 1.41615(3) 0.239480(13)
C1A C 0.5653(4) 0.9987(4) 0.07875(17)
C1B C 0.4987(4) 1.0653(4) 0.42125(17)
C1E C 0.9347(4) 1.5013(4) 0.07875(17)
H1A H 0.5536 0.9216 0.0725
H1B H 0.4216 1.0536 0.4275
H1E H 0.9464 1.5784 0.0725
C2A C 0.5934(5) 1.0699(5) 0.04301(18)
C2B C 0.5699(5) 1.0934(5) 0.45699(18)
C2E C 0.9066(5) 1.4301(5) 0.04301(18)
H2A H 0.6023 1.0418 0.0122
H2B H 0.5418 1.1023 0.4878
H2E H 0.8977 1.4582 0.0122
C3A C 0.6087(6) 1.1823(5) 0.0519(2)
C3B C 0.6823(5) 1.1087(6) 0.4481(2)
C3E C 0.8913(6) 1.3177(5) 0.0519(2)
H3A H 0.6293 1.2311 0.0272
H3B H 0.7311 1.1293 0.4728
H3E H 0.8707 1.2689 0.0272
C4A C 0.5943(4) 1.2241(4) 0.0960(2)
C4B C 0.7241(4) 1.0943(4) 0.4040(2)
C4E C 0.9057(4) 1.2759(4) 0.0960(2)
H4A H 0.6034 1.3018 0.1015
H4B H 0.8018 1.1034 0.3985
H4E H 0.8966 1.1982 0.1015
C5A C 0.5666(3) 1.1541(3) 0.13257(16)
C5B C 0.6541(3) 1.0666(3) 0.36743(16)
C5E C 0.9334(3) 1.3459(3) 0.13257(16)
C6A C 0.5540(3) 1.0390(3) 0.12388(14)
C6B C 0.5390(3) 1.0540(3) 0.37612(14)
C6E C 0.9460(3) 1.4610(3) 0.12388(14)
C7A C 0.5318(3) 0.9567(3) 0.16256(15)
C7B C 0.4567(3) 1.0318(3) 0.33744(15)
C7E C 0.9682(3) 1.5433(3) 0.16256(15)
C8A C 0.5436(3) 1.2081(3) 0.17900(16)
C8B C 0.7081(3) 1.0436(3) 0.32100(16)
C8E C 0.9564(3) 1.2919(3) 0.17900(16)
O1A O 0.4882(3) 0.8657(2) 0.15295(12)
O1B O 0.3657(2) 0.9882(3) 0.34705(12)
O1E O 1.0118(3) 1.6343(2) 0.15295(12)
O2A O 0.5612(3) 0.9870(3) 0.20313(11)
O2B O 0.4870(3) 1.0612(3) 0.29687(11)
O2E O 0.9388(3) 1.5130(3) 0.20313(11)
O3A O 0.4432(2) 1.2337(2) 0.18673(11)
O3B O 0.7337(2) 0.9432(2) 0.31327(11)
O3E O 1.0568(2) 1.2663(2) 0.18673(11)
O3G O 0.9432(2) 0.7663(2) 0.31327(11)
O3D O 0.5568(2) 0.7337(2) 0.31327(11)
O3_2 O 0.2337(2) 1.0568(2) 0.18673(11)
O3G_2 O 0.9432(2) 1.7663(2) 0.31327(11)
O3F O 0.7663(2) 1.5568(2) 0.31327(11)
O4A O 0.6231(2) 1.2295(2) 0.20664(11)
O4B O 0.7295(2) 1.1231(2) 0.29336(11)
O4E O 0.8769(2) 1.2705(2) 0.20664(11)
O4C O 0.2705(2) 0.6231(2) 0.20664(11)
O4D O 0.3769(2) 0.7295(2) 0.29336(11)
O4_2 O 0.2295(2) 0.8769(2) 0.20664(11)
O4G O 0.1231(2) 0.7705(2) 0.29336(11)
O4_3 O 1.2295(2) 1.8769(2) 0.20664(11)
O4G_2 O 1.1231(2) 1.7705(2) 0.29336(11)
O4C_2 O 1.2705(2) 1.6231(2) 0.20664(11)
C9 C 0.2500 0.2500 0.3286(5)
C10 C 0.2500 0.2500 0.3792(5)
N1 N 0.2500 0.2500 0.2897(4)
C11 C 0.2500 0.2500 0.0397(11)
C12 C 0.2500 0.2500 0.0893(7)
N2 N 0.2500 0.2500 0.0041(14)
H5? H 0.1744 0.2658 0.3906
H6? H 0.3014 0.3076 0.3906
H7? H 0.2741 0.1767 0.3906
H8? H 0.1992 0.1919 0.1007
H9? H 0.2251 0.3231 0.1007
H10? H 0.3257 0.2350 0.1007
loop_
_geom_bond_atom_site_label_1
_geom_bond_atom_site_label_2
_geom_bond_site_symmetry_1
_geom_bond_site_symmetry_2
Ag1 O1 1_555 1_555
Ag2 O2 1_555 1_555
C1 H1 1_555 1_555
C2 C1 1_555 1_555
H2 C2 1_555 1_555
C3 C2 1_555 1_555
H3 C3 1_555 1_555
C4 C3 1_555 1_555
H4 C4 1_555 1_555
C5 C4 1_555 1_555
C6 C1 1_555 1_555
C7 C6 1_555 1_555
C8 C5 1_555 1_555
C9 C10 1_555 1_555
C11 C12 1_555 1_555
N1 C9 1_555 1_555
N2 C11 1_555 1_555
O1 C7 1_555 1_555
O2 C7 1_555 1_555
O3 C8 1_555 1_555
O4 C8 1_555 1_555
Ag1A O1A 1_555 1_555
Ag1B O1B 1_555 1_555
Ag1E O1E 1_555 1_555
Ag1E_2 O4 1_555 1_555
Ag1B_2 O4 1_555 1_555
Ag1A_2 O4 1_555 1_555
Ag1D O4A 1_555 1_555
Ag1C O4A 1_555 1_555
Ag1G O4B 1_555 1_555
Ag2A O2A 1_555 1_555
Ag2B O2B 1_555 1_555
Ag2E O2E 1_555 1_555
Ag2B_2 O3 1_555 1_555
Ag2G O3 1_555 1_555
Ag2D O3A 1_555 1_555
Ag2F O3E 1_555 1_555
C1A H1A 1_555 1_555
C1B H1B 1_555 1_555
C1E H1E 1_555 1_555
C2A C1A 1_555 1_555
C2B C1B 1_555 1_555
C2E C1E 1_555 1_555
H2A C2A 1_555 1_555
H2B C2B 1_555 1_555
H2E C2E 1_555 1_555
C3A C2A 1_555 1_555
C3B C2B 1_555 1_555
C3E C2E 1_555 1_555
H3A C3A 1_555 1_555
H3B C3B 1_555 1_555
H3E C3E 1_555 1_555
C4A C3A 1_555 1_555
C4B C3B 1_555 1_555
C4E C3E 1_555 1_555
H4A C4A 1_555 1_555
H4B C4B 1_555 1_555
H4E C4E 1_555 1_555
C5A C4A 1_555 1_555
C5B C4B 1_555 1_555
C5E C4E 1_555 1_555
C6A C1A 1_555 1_555
C6B C1B 1_555 1_555
C6E C1E 1_555 1_555
C7A C6A 1_555 1_555
C7B C6B 1_555 1_555
C7E C6E 1_555 1_555
C8A C5A 1_555 1_555
C8B C5B 1_555 1_555
C8E C5E 1_555 1_555
O1A C7A 1_555 1_555
O1B C7B 1_555 1_555
O1E C7E 1_555 1_555
O2A C7A 1_555 1_555
O2B C7B 1_555 1_555
O2E C7E 1_555 1_555
O3A Ag2B 1_555 1_555
O3B Ag2 1_555 1_555
O3E Ag2G 1_555 1_555
O3G Ag2 1_555 1_555
O3D Ag2A 1_555 1_555
O3_2 Ag2B 1_555 1_555
O3G_2 Ag2E 1_555 1_555
O3F Ag2E 1_555 1_555
O4A Ag1 1_555 1_555
O4B Ag1 1_555 1_555
O4E Ag1 1_555 1_555
O4C Ag1A 1_555 1_555
O4D Ag1A 1_555 1_555
O4_2 Ag1A 1_555 1_555
O4G Ag1B 1_555 1_555
O4_3 Ag1E 1_555 1_555
O4G_2 Ag1E 1_555 1_555
O4C_2 Ag1E 1_555 1_555
C5 C6 1_555 1_555
Ag1B O4D 1_555 1_555
Ag1B O4_2 1_555 1_555
Ag1D O4B 1_555 1_555
Ag1C O4E 1_555 1_555
Ag1G O4E 1_555 1_555
Ag2A O3B 1_555 1_555
C5A C6A 1_555 1_555
C5B C6B 1_555 1_555
C5E C6E 1_555 1_555
C8A O3A 1_555 1_555
C8A O4A 1_555 1_555
C8B O3B 1_555 1_555
C8B O4B 1_555 1_555
C8E O3E 1_555 1_555
C8E O4E 1_555 1_555

#END
