
#######################################################################
#
#                 Cambridge Crystallographic Data Centre
#                                CCDC 
#
#######################################################################
#
# If this CIF has been generated from an entry in the Cambridge 
# Structural Database, then it will include bibliographic, chemical, 
# crystal, experimental, refinement or atomic coordinate data resulting 
# from the CCDC's data processing and validation procedures.
#
#######################################################################

data_OWAGEZ
_symmetry_cell_setting           monoclinic
_symmetry_space_group_name_H-M   'P 21/c'
_symmetry_Int_Tables_number      14
_space_group_name_Hall           '-P 2ybc'
loop_
_symmetry_equiv_pos_site_id
_symmetry_equiv_pos_as_xyz
1 x,y,z
2 -x,1/2+y,1/2-z
3 -x,-y,-z
4 x,1/2-y,1/2+z
_cell_length_a                   5.0114(2)
_cell_length_b                   13.7120(5)
_cell_length_c                   19.5956(7)
_cell_angle_alpha                90
_cell_angle_beta                 91.385(2)
_cell_angle_gamma                90
_cell_volume                     1346.14
loop_
_atom_site_label
_atom_site_type_symbol
_atom_site_fract_x
_atom_site_fract_y
_atom_site_fract_z
Sn1 Sn 0.5000 0.5000 0.5000
O1 O 0.8444(4) 0.53730(17) 0.43390(12)
O2 O 1.2438(4) 0.48369(17) 0.40298(11)
O3 O 0.3294(7) 0.6516(3) 0.2314(2)
O4 O 0.2466(7) 0.5472(3) 0.15290(18)
O5 O 0.7887(8) 0.2574(3) 0.13847(18)
O6 O 1.1842(7) 0.2722(3) 0.17980(17)
N1 N 0.3701(7) 0.5752(3) 0.20286(19)
N2 N 0.9506(8) 0.2946(3) 0.17688(17)
C1 C 0.9978(6) 0.4979(3) 0.39244(15)
C2 C 0.8865(6) 0.4705(2) 0.32229(16)
C3 C 0.6895(6) 0.5326(3) 0.29526(18)
H1 H 0.6310 0.5862 0.3198
C4 C 0.5839(6) 0.5120(3) 0.23094(18)
C5 C 0.6637(7) 0.4340(3) 0.19348(19)
H2 H 0.5880 0.4210 0.1506
C6 C 0.8602(7) 0.3750(3) 0.22125(18)
C7 C 0.9744(6) 0.3891(3) 0.28676(17)
C8 C 1.1637(7) 0.3154(3) 0.31757(19)
H3 H 1.3439 0.3339 0.3082
H4 H 1.1271 0.2524 0.2982
H5 H 1.1410 0.3128 0.3660
C9 C 0.5918(7) 0.3506(2) 0.48849(18)
H6 H 0.6449 0.3402 0.4418
H7 H 0.7454 0.3360 0.5178
C10 C 0.3741(7) 0.2777(3) 0.50412(19)
H8 H 0.3410 0.2789 0.5527
H9 H 0.2106 0.2968 0.4802
C11 C 0.4478(8) 0.1755(3) 0.4833(2)
H10 H 0.6014 0.1545 0.5106
H11 H 0.4994 0.1762 0.4359
C12 C 0.2258(9) 0.1022(3) 0.4915(3)
H12 H 0.1720 0.1013 0.5381
H13 H 0.2877 0.0386 0.4789
H14 H 0.0764 0.1201 0.4625
Sn1_2 Sn -0.5000 0.5000 0.5000
Sn1_3 Sn 1.5000 0.5000 0.5000
O1B O 0.1556(4) 0.46270(17) 0.56610(12)
O2B O -0.2438(4) 0.51631(17) 0.59702(11)
O2_2 O 0.2438(4) 0.48369(17) 0.40298(11)
O2B_2 O 0.7562(4) 0.51631(17) 0.59702(11)
O3B O 0.6706(7) 0.3484(3) 0.7686(2)
O4B O 0.7534(7) 0.4528(3) 0.84710(18)
O5B O 0.2113(8) 0.7426(3) 0.86153(18)
O6B O -0.1842(7) 0.7278(3) 0.82020(17)
N1B N 0.6299(7) 0.4248(3) 0.79714(19)
N2B N 0.0494(8) 0.7054(3) 0.82312(17)
C1B C 0.0022(6) 0.5021(3) 0.60756(15)
C2B C 0.1135(6) 0.5295(2) 0.67771(16)
C3B C 0.3105(6) 0.4674(3) 0.70474(18)
H1B H 0.3690 0.4138 0.6802
C4B C 0.4161(6) 0.4880(3) 0.76906(18)
C5B C 0.3363(7) 0.5660(3) 0.80652(19)
H2B H 0.4120 0.5790 0.8494
C6B C 0.1398(7) 0.6250(3) 0.77875(18)
C7B C 0.0256(6) 0.6109(3) 0.71324(17)
C8B C -0.1637(7) 0.6846(3) 0.68243(19)
H3B H -0.3439 0.6661 0.6918
H4B H -0.1271 0.7476 0.7018
H5B H -0.1410 0.6872 0.6340
C9B C 0.4082(7) 0.6494(2) 0.51151(18)
H6B H 0.3551 0.6598 0.5582
H7B H 0.2546 0.6640 0.4822
C10B C 0.6259(7) 0.7223(3) 0.49588(19)
H8B H 0.6590 0.7211 0.4473
H9B H 0.7894 0.7032 0.5198
C11B C 0.5522(8) 0.8245(3) 0.5167(2)
H10B H 0.3986 0.8455 0.4894
H11B H 0.5006 0.8238 0.5641
C12B C 0.7742(9) 0.8978(3) 0.5085(3)
H12B H 0.8280 0.8987 0.4619
H13B H 0.7123 0.9614 0.5211
H14B H 0.9236 0.8799 0.5375
loop_
_geom_bond_atom_site_label_1
_geom_bond_atom_site_label_2
_geom_bond_site_symmetry_1
_geom_bond_site_symmetry_2
Sn1 O1 1_555 1_555
O1 C1 1_555 1_555
O2 C1 1_555 1_555
O3 N1 1_555 1_555
O4 N1 1_555 1_555
O5 N2 1_555 1_555
O6 N2 1_555 1_555
N1 C4 1_555 1_555
N2 C6 1_555 1_555
C1 C2 1_555 1_555
C2 C3 1_555 1_555
C3 H1 1_555 1_555
C4 C3 1_555 1_555
C5 C4 1_555 1_555
H2 C5 1_555 1_555
C6 C5 1_555 1_555
C7 C2 1_555 1_555
C8 C7 1_555 1_555
H3 C8 1_555 1_555
H4 C8 1_555 1_555
H5 C8 1_555 1_555
C9 Sn1 1_555 1_555
H6 C9 1_555 1_555
H7 C9 1_555 1_555
C10 C9 1_555 1_555
H8 C10 1_555 1_555
H9 C10 1_555 1_555
C11 C10 1_555 1_555
H10 C11 1_555 1_555
H11 C11 1_555 1_555
C12 C11 1_555 1_555
H12 C12 1_555 1_555
H13 C12 1_555 1_555
H14 C12 1_555 1_555
Sn1_2 O2B 1_555 1_555
Sn1_3 O2 1_555 1_555
O1B Sn1 1_555 1_555
O2B C1B 1_555 1_555
O2_2 Sn1 1_555 1_555
O2B_2 Sn1 1_555 1_555
O3B N1B 1_555 1_555
O4B N1B 1_555 1_555
O5B N2B 1_555 1_555
O6B N2B 1_555 1_555
N1B C4B 1_555 1_555
N2B C6B 1_555 1_555
C1B O1B 1_555 1_555
C2B C1B 1_555 1_555
C3B C2B 1_555 1_555
H1B C3B 1_555 1_555
C4B C3B 1_555 1_555
C5B C4B 1_555 1_555
H2B C5B 1_555 1_555
C6B C5B 1_555 1_555
C7B C2B 1_555 1_555
C8B C7B 1_555 1_555
H3B C8B 1_555 1_555
H4B C8B 1_555 1_555
H5B C8B 1_555 1_555
C9B Sn1 1_555 1_555
H6B C9B 1_555 1_555
H7B C9B 1_555 1_555
C10B C9B 1_555 1_555
H8B C10B 1_555 1_555
H9B C10B 1_555 1_555
C11B C10B 1_555 1_555
H10B C11B 1_555 1_555
H11B C11B 1_555 1_555
C12B C11B 1_555 1_555
H12B C12B 1_555 1_555
H13B C12B 1_555 1_555
H14B C12B 1_555 1_555
C6 C7 1_555 1_555
C6B C7B 1_555 1_555

#END
