
#######################################################################
#
#                 Cambridge Crystallographic Data Centre
#                                CCDC 
#
#######################################################################
#
# If this CIF has been generated from an entry in the Cambridge 
# Structural Database, then it will include bibliographic, chemical, 
# crystal, experimental, refinement or atomic coordinate data resulting 
# from the CCDC's data processing and validation procedures.
#
#######################################################################

data_OWAWEP
_symmetry_cell_setting           monoclinic
_symmetry_space_group_name_H-M   'C 2/c'
_symmetry_Int_Tables_number      15
_space_group_name_Hall           '-C 2yn'
loop_
_symmetry_equiv_pos_site_id
_symmetry_equiv_pos_as_xyz
1 x,y,z
2 -x,y,1/2-z
3 1/2+x,1/2+y,z
4 1/2-x,1/2+y,1/2-z
5 -x,-y,-z
6 x,-y,1/2+z
7 1/2-x,1/2-y,-z
8 1/2+x,1/2-y,1/2+z
_cell_length_a                   15.034(3)
_cell_length_b                   17.990(4)
_cell_length_c                   13.818(3)
_cell_angle_alpha                90
_cell_angle_beta                 101.78(3)
_cell_angle_gamma                90
_cell_volume                     3658.53
loop_
_atom_site_label
_atom_site_type_symbol
_atom_site_fract_x
_atom_site_fract_y
_atom_site_fract_z
N1 N 0.4418(2) 0.15253(19) 0.5236(2)
C1 C 0.4033(4) 0.2225(3) 0.5234(4)
H1 H 0.4075 0.2596 0.4777
C2 C 0.4179(3) 0.1178(2) 0.5985(3)
H2 H 0.4331 0.0688 0.6159
C3 C 0.3587(4) 0.2296(3) 0.5988(4)
H3 H 0.3280 0.2713 0.6146
N2 N 0.3685(2) 0.1621(2) 0.6473(3)
O1 O -0.12762(18) 0.57193(15) 0.96703(18)
O2 O -0.10763(18) 0.43347(14) 0.67161(18)
N3 N -0.1369(6) 0.2004(4) 0.4717(5)
Co1 Co 0.02224(4) 0.38874(3) 0.92394(4)
Co2 Co 0.0000 0.26399(4) 0.7500
O3 O -0.04722(17) 0.48937(14) 0.89773(18)
O4 O -0.08177(16) 0.34873(14) 0.79545(17)
C4 C -0.1218(3) 0.5158(2) 0.9138(3)
C5 C -0.1248(2) 0.4042(2) 0.7474(3)
C6 C -0.2092(3) 0.4791(2) 0.8619(3)
C7 C -0.2102(2) 0.4292(2) 0.7827(3)
N4 N 0.2344(3) 0.1435(2) 0.7162(3)
N5 N 0.0959(2) 0.18368(18) 0.7235(2)
C8 C 0.1846(3) 0.1934(2) 0.7573(3)
H4 H 0.2095 0.2295 0.8030
C9 C -0.2934(3) 0.3994(2) 0.7326(3)
H5 H -0.2945 0.3672 0.6797
C10 C -0.2918(3) 0.4978(2) 0.8891(3)
H6 H -0.2919 0.5318 0.9398
C11 C -0.3727(3) 0.4661(3) 0.8410(4)
H7 H -0.4264 0.4769 0.8616
C12 C -0.3738(3) 0.4177(3) 0.7615(4)
H8 H -0.4285 0.3977 0.7279
C13 C 0.3335(3) 0.1398(3) 0.7348(3)
H9 H 0.3529 0.0894 0.7532
H10 H 0.3586 0.1722 0.7897
C14 C 0.1736(4) 0.1001(3) 0.6530(4)
H11 H 0.1874 0.0612 0.6144
C15 C 0.0892(4) 0.1250(2) 0.6577(3)
H12 H 0.0350 0.1055 0.6220
N6 N -0.0725(2) 0.28069(19) 0.5987(2)
N7 N -0.1057(3) 0.2398(3) 0.5342(3)
N1A N -0.4418(2) 0.15253(19) 0.9764(2)
N1G N -0.0582(2) 0.34747(19) 1.0236(2)
N1F N 0.0582(2) 0.34747(19) 0.4764(2)
C1A C -0.4033(4) 0.2225(3) 0.9766(4)
H1A H -0.4075 0.2596 1.0223
C2A C -0.4179(3) 0.1178(2) 0.9015(3)
H2A H -0.4331 0.0688 0.8841
C3A C -0.3587(4) 0.2296(3) 0.9012(4)
H3A H -0.3280 0.2713 0.8854
N2A N -0.3685(2) 0.1621(2) 0.8527(3)
O1A O 0.12762(18) 0.57193(15) 0.53297(18)
O1D O 0.12762(18) 0.42807(15) 1.03297(18)
O1E O -0.12762(18) 0.42807(15) 0.46703(18)
O2A O 0.10763(18) 0.43347(14) 0.82839(18)
N3A N 0.1369(6) 0.2004(4) 1.0283(5)
Co1A Co -0.02224(4) 0.38874(3) 0.57606(4)
Co1G Co 0.52224(4) 0.11126(3) 0.42394(4)
Co1D Co -0.02224(4) 0.61126(3) 1.07606(4)
Co1E Co 0.02224(4) 0.61126(3) 0.42394(4)
Co1F Co -0.52224(4) 0.11126(3) 1.07606(4)
O3A O 0.04722(17) 0.48937(14) 0.60227(18)
O4A O 0.08177(16) 0.34873(14) 0.70455(17)
C4A C 0.1218(3) 0.5158(2) 0.5862(3)
C5A C 0.1248(2) 0.4042(2) 0.7526(3)
C6A C 0.2092(3) 0.4791(2) 0.6381(3)
C7A C 0.2102(2) 0.4292(2) 0.7173(3)
N4A N -0.2344(3) 0.1435(2) 0.7838(3)
N5A N -0.0959(2) 0.18368(18) 0.7765(2)
C8A C -0.1846(3) 0.1934(2) 0.7427(3)
H4A H -0.2095 0.2295 0.6970
C9A C 0.2934(3) 0.3994(2) 0.7674(3)
H5A H 0.2945 0.3672 0.8203
C10A C 0.2918(3) 0.4978(2) 0.6109(3)
H6A H 0.2919 0.5318 0.5602
C11A C 0.3727(3) 0.4661(3) 0.6590(4)
H7A H 0.4264 0.4769 0.6384
C12A C 0.3738(3) 0.4177(3) 0.7385(4)
H8A H 0.4285 0.3977 0.7721
C13A C -0.3335(3) 0.1398(3) 0.7652(3)
H9A H -0.3529 0.0894 0.7468
H10A H -0.3586 0.1722 0.7103
C14A C -0.1736(4) 0.1001(3) 0.8470(4)
H11A H -0.1874 0.0612 0.8856
C15A C -0.0892(4) 0.1250(2) 0.8423(3)
H12A H -0.0350 0.1055 0.8780
N6A N 0.0725(2) 0.28069(19) 0.9013(2)
N7A N 0.1057(3) 0.2398(3) 0.9658(3)
loop_
_geom_bond_atom_site_label_1
_geom_bond_atom_site_label_2
_geom_bond_site_symmetry_1
_geom_bond_site_symmetry_2
N1 C1 1_555 1_555
C1 H1 1_555 1_555
C2 N1 1_555 1_555
H2 C2 1_555 1_555
C3 C1 1_555 1_555
H3 C3 1_555 1_555
N2 C2 1_555 1_555
O1 C4 1_555 1_555
O2 C5 1_555 1_555
N3 N7 1_555 1_555
Co1 O3 1_555 1_555
Co2 O4 1_555 1_555
O3 C4 1_555 1_555
O4 Co1 1_555 1_555
C4 C6 1_555 1_555
C5 O4 1_555 1_555
C6 C7 1_555 1_555
C7 C5 1_555 1_555
N4 C8 1_555 1_555
N5 Co2 1_555 1_555
C8 N5 1_555 1_555
H4 C8 1_555 1_555
C9 C7 1_555 1_555
H5 C9 1_555 1_555
C10 C6 1_555 1_555
H6 C10 1_555 1_555
C11 C10 1_555 1_555
H7 C11 1_555 1_555
C12 C9 1_555 1_555
H8 C12 1_555 1_555
C13 N2 1_555 1_555
H9 C13 1_555 1_555
H10 C13 1_555 1_555
C14 N4 1_555 1_555
H11 C14 1_555 1_555
C15 N5 1_555 1_555
H12 C15 1_555 1_555
N6 Co2 1_555 1_555
N7 N6 1_555 1_555
N1A C1A 1_555 1_555
N1G Co1 1_555 1_555
N1F Co1A 1_555 1_555
C1A H1A 1_555 1_555
C2A N1A 1_555 1_555
H2A C2A 1_555 1_555
C3A C1A 1_555 1_555
H3A C3A 1_555 1_555
N2A C2A 1_555 1_555
O1A Co1E 1_555 1_555
O1D Co1 1_555 1_555
O1E Co1A 1_555 1_555
O2A Co1 1_555 1_555
N3A N7A 1_555 1_555
Co1A O2 1_555 1_555
Co1G N1 1_555 1_555
Co1D O1 1_555 1_555
Co1F N1A 1_555 1_555
O3A Co1A 1_555 1_555
O4A Co2 1_555 1_555
C4A O1A 1_555 1_555
C5A O2A 1_555 1_555
C6A C4A 1_555 1_555
C7A C5A 1_555 1_555
N4A C8A 1_555 1_555
N5A Co2 1_555 1_555
C8A N5A 1_555 1_555
H4A C8A 1_555 1_555
C9A C7A 1_555 1_555
H5A C9A 1_555 1_555
C10A C6A 1_555 1_555
H6A C10A 1_555 1_555
C11A C10A 1_555 1_555
H7A C11A 1_555 1_555
C12A C9A 1_555 1_555
H8A C12A 1_555 1_555
C13A N2A 1_555 1_555
H9A C13A 1_555 1_555
H10A C13A 1_555 1_555
C14A N4A 1_555 1_555
H11A C14A 1_555 1_555
C15A N5A 1_555 1_555
H12A C15A 1_555 1_555
N6A Co1 1_555 1_555
N7A N6A 1_555 1_555
C3 N2 1_555 1_555
Co2 N6A 1_555 1_555
N4 C13 1_555 1_555
C11 C12 1_555 1_555
C14 C15 1_555 1_555
N6 Co1A 1_555 1_555
C3A N2A 1_555 1_555
Co1A O4A 1_555 1_555
O3A C4A 1_555 1_555
O4A C5A 1_555 1_555
C6A C7A 1_555 1_555
N4A C13A 1_555 1_555
C11A C12A 1_555 1_555
C14A C15A 1_555 1_555

#END
