
#######################################################################
#
#                 Cambridge Crystallographic Data Centre
#                                CCDC 
#
#######################################################################
#
# If this CIF has been generated from an entry in the Cambridge 
# Structural Database, then it will include bibliographic, chemical, 
# crystal, experimental, refinement or atomic coordinate data resulting 
# from the CCDC's data processing and validation procedures.
#
#######################################################################

data_OWAWOZ
_symmetry_cell_setting           monoclinic
_symmetry_space_group_name_H-M   'P 21/n'
_symmetry_Int_Tables_number      14
_space_group_name_Hall           '-P 2yn'
loop_
_symmetry_equiv_pos_site_id
_symmetry_equiv_pos_as_xyz
1 x,y,z
2 1/2-x,1/2+y,1/2-z
3 -x,-y,-z
4 1/2+x,1/2-y,1/2+z
_cell_length_a                   9.833(2)
_cell_length_b                   12.230(2)
_cell_length_c                   12.764(3)
_cell_angle_alpha                90
_cell_angle_beta                 95.47(3)
_cell_angle_gamma                90
_cell_volume                     1527.98
loop_
_atom_site_label
_atom_site_type_symbol
_atom_site_fract_x
_atom_site_fract_y
_atom_site_fract_z
Co1 Co 1.06989(5) 0.41267(4) 0.92093(3)
N1 N 1.0445(3) 0.1004(2) 0.7795(2)
N2 N 1.0653(3) 0.5859(2) 0.9644(2)
N3 N 0.9558(3) 0.0783(2) 0.5988(2)
C1 C 1.0273(4) 0.4606(3) 0.7252(3)
N4 N 1.0533(3) 0.2447(2) 0.8826(2)
C2 C 1.0126(4) 0.4826(3) 0.6085(2)
O1 O 1.1446(3) 0.4496(2) 0.77255(17)
C3 C 1.0506(4) 0.0355(3) 0.6838(3)
H1 H 1.1428 0.0372 0.6627
H2 H 1.0277 -0.0399 0.6977
C4 C 0.9964(4) 0.1591(3) 0.9319(3)
H3 H 0.9673 0.1619 0.9991
C5 C 0.8866(4) 0.5024(4) 0.5550(3)
H4 H 0.8092 0.5041 0.5915
C6 C 1.0826(4) 0.2053(3) 0.7915(3)
H5 H 1.1244 0.2453 0.7415
C7 C 0.8258(4) 0.0460(3) 0.5742(3)
H6 H 0.7841 -0.0110 0.6071
C8 C 1.1258(4) 0.4800(4) 0.5533(3)
H7 H 1.2113 0.4664 0.5885
C9 C 0.9885(4) 0.0698(3) 0.8692(3)
H8 H 0.9526 0.0018 0.8839
C10 C 0.9781(4) 0.1653(3) 0.5345(3)
H9 H 1.0583 0.2054 0.5338
N5 N 0.7653(3) 0.1055(2) 0.4974(2)
O2 O 0.9226(3) 0.4510(2) 0.77458(18)
N6 N 1.1231(3) 0.6547(3) 0.9211(3)
C11 C 0.8615(4) 0.1808(3) 0.4731(3)
H10 H 0.8476 0.2345 0.4216
N7 N 1.1813(4) 0.7201(3) 0.8762(4)
Co1B Co 0.93011(5) 0.58733(4) 0.07907(3)
Co1_2 Co 1.06989(5) 0.41267(4) -0.07907(3)
Co1A Co 1.43011(5) 0.91267(4) 0.57907(3)
Co1B_2 Co 0.93011(5) 0.58733(4) 1.07907(3)
Co1C Co 0.56989(5) 0.08733(4) 0.42093(3)
N1B N 0.9555(3) 0.8996(2) 0.2205(2)
N2B N 0.9347(3) 0.4141(2) 0.0356(2)
N2_2 N 1.0653(3) 0.5859(2) -0.0356(2)
N2B_2 N 0.9347(3) 0.4141(2) 1.0356(2)
N3B N 1.0442(3) 0.9217(2) 0.4012(2)
C1B C 0.9727(4) 0.5394(3) 0.2748(3)
N4B N 0.9467(3) 0.7553(2) 0.1174(2)
C2B C 0.9874(4) 0.5174(3) 0.3915(2)
O1B O 0.8554(3) 0.5504(2) 0.22745(17)
C3B C 0.9494(4) 0.9645(3) 0.3162(3)
H1B H 0.8572 0.9628 0.3373
H2B H 0.9723 1.0399 0.3023
C4B C 1.0036(4) 0.8409(3) 0.0681(3)
H3B H 1.0327 0.8381 0.0009
C5B C 1.1134(4) 0.4976(4) 0.4450(3)
H4B H 1.1908 0.4959 0.4085
C6B C 0.9174(4) 0.7947(3) 0.2085(3)
H5B H 0.8756 0.7547 0.2585
C7B C 1.1742(4) 0.9540(3) 0.4258(3)
H6B H 1.2159 1.0110 0.3929
C8B C 0.8742(4) 0.5200(4) 0.4467(3)
H7B H 0.7887 0.5336 0.4115
C9B C 1.0115(4) 0.9302(3) 0.1308(3)
H8B H 1.0474 0.9982 0.1161
C10B C 1.0219(4) 0.8347(3) 0.4655(3)
H9B H 0.9417 0.7946 0.4662
N5B N 1.2347(3) 0.8945(2) 0.5026(2)
N5A N 0.7347(3) 0.6055(2) 0.0026(2)
N5C N 1.2653(3) 0.3945(2) 0.9974(2)
O2B O 1.0774(3) 0.5490(2) 0.22542(18)
N6B N 0.8769(3) 0.3453(3) 0.0789(3)
C11B C 1.1385(4) 0.8192(3) 0.5269(3)
H10B H 1.1524 0.7655 0.5784
N7B N 0.8187(4) 0.2799(3) 0.1238(4)
O3 O 0.6673(3) 0.3534(3) 0.7366(4)
H11 H 0.7450 0.3757 0.7315
C12 C 0.6706(6) 0.2442(4) 0.7541(5)
H12 H 0.7130 0.2299 0.8236
H13 H 0.7220 0.2093 0.7033
H14 H 0.5791 0.2159 0.7478
loop_
_geom_bond_atom_site_label_1
_geom_bond_atom_site_label_2
_geom_bond_site_symmetry_1
_geom_bond_site_symmetry_2
Co1 N2 1_555 1_555
N1 C3 1_555 1_555
N2 N6 1_555 1_555
N3 C3 1_555 1_555
C1 C2 1_555 1_555
N4 Co1 1_555 1_555
C2 C5 1_555 1_555
O1 Co1 1_555 1_555
C3 H1 1_555 1_555
H2 C3 1_555 1_555
C4 N4 1_555 1_555
H3 C4 1_555 1_555
C5 H4 1_555 1_555
C6 N1 1_555 1_555
H5 C6 1_555 1_555
C7 N3 1_555 1_555
H6 C7 1_555 1_555
C8 C2 1_555 1_555
H7 C8 1_555 1_555
C9 N1 1_555 1_555
H8 C9 1_555 1_555
C10 N3 1_555 1_555
H9 C10 1_555 1_555
N5 C7 1_555 1_555
O2 Co1 1_555 1_555
N6 N7 1_555 1_555
C11 C10 1_555 1_555
H10 C11 1_555 1_555
O3 H11 1_555 1_555
C12 O3 1_555 1_555
H12 C12 1_555 1_555
H13 C12 1_555 1_555
H14 C12 1_555 1_555
Co1B N2B 1_555 1_555
Co1_2 N2B 1_555 1_555
Co1A N5B 1_555 1_555
Co1B_2 N2 1_555 1_555
Co1C N5 1_555 1_555
N1B C3B 1_555 1_555
N2B N6B 1_555 1_555
N2_2 Co1B 1_555 1_555
N2B_2 Co1 1_555 1_555
N3B C3B 1_555 1_555
C1B C2B 1_555 1_555
N4B Co1B 1_555 1_555
C2B C5B 1_555 1_555
O1B Co1B 1_555 1_555
C3B H1B 1_555 1_555
H2B C3B 1_555 1_555
C4B N4B 1_555 1_555
H3B C4B 1_555 1_555
C5B C8 1_555 1_555
H4B C5B 1_555 1_555
C6B N1B 1_555 1_555
H5B C6B 1_555 1_555
C7B N3B 1_555 1_555
H6B C7B 1_555 1_555
C8B C5 1_555 1_555
H7B C8B 1_555 1_555
C9B N1B 1_555 1_555
H8B C9B 1_555 1_555
C10B N3B 1_555 1_555
H9B C10B 1_555 1_555
N5B C7B 1_555 1_555
N5A Co1B 1_555 1_555
N5C Co1 1_555 1_555
O2B Co1B 1_555 1_555
N6B N7B 1_555 1_555
C11B C10B 1_555 1_555
H10B C11B 1_555 1_555
C1 O1 1_555 1_555
C1 O2 1_555 1_555
N4 C6 1_555 1_555
C4 C9 1_555 1_555
N5 C11 1_555 1_555
Co1_2 N2_2 1_555 1_555
Co1B_2 N2B_2 1_555 1_555
C1B O1B 1_555 1_555
C1B O2B 1_555 1_555
N4B C6B 1_555 1_555
C2B C8B 1_555 1_555
C4B C9B 1_555 1_555
N5B C11B 1_555 1_555

#END
