
#######################################################################
#
#                 Cambridge Crystallographic Data Centre
#                                CCDC 
#
#######################################################################
#
# If this CIF has been generated from an entry in the Cambridge 
# Structural Database, then it will include bibliographic, chemical, 
# crystal, experimental, refinement or atomic coordinate data resulting 
# from the CCDC's data processing and validation procedures.
#
#######################################################################

data_OWAWUF
_symmetry_cell_setting           triclinic
_symmetry_space_group_name_H-M   'P -1'
_symmetry_Int_Tables_number      2
_space_group_name_Hall           '-P 1'
loop_
_symmetry_equiv_pos_site_id
_symmetry_equiv_pos_as_xyz
1 x,y,z
2 -x,-y,-z
_cell_length_a                   10.8508(13)
_cell_length_b                   11.6777(15)
_cell_length_c                   11.9776(15)
_cell_angle_alpha                62.249(2)
_cell_angle_beta                 88.620(2)
_cell_angle_gamma                64.873(2)
_cell_volume                     1187.14
loop_
_atom_site_label
_atom_site_type_symbol
_atom_site_fract_x
_atom_site_fract_y
_atom_site_fract_z
Co1 Co 1.0000 0.0000 0.5000
Co2 Co 0.77778(3) -0.08630(3) 0.64460(3)
O1 O 0.80517(14) 0.09483(15) 0.55815(13)
O2 O 0.59717(16) 0.13810(17) 0.48830(17)
O3 O 0.93615(16) 0.86866(17) 0.46843(16)
O4 O 0.76362(16) 0.82330(18) 0.54523(16)
O5 O 1.10049(14) -0.16051(16) 0.68416(13)
O6 O 0.95026(14) -0.23827(17) 0.78049(15)
N1 N 0.64371(18) -0.0931(2) 0.76758(18)
C1 C 0.6783(2) 0.1864(2) 0.4892(2)
C2 C 0.6322(2) 0.3462(2) 0.42132(19)
C3 C 0.4902(2) 0.4430(2) 0.3748(2)
H1 H 0.4250 0.4069 0.3817
C4 C 0.4441(2) 0.5918(2) 0.3186(2)
H2 H 0.3473 0.6579 0.2864
C5 C 0.5386(2) 0.6445(2) 0.3092(2)
H3 H 0.5058 0.7468 0.2720
C6 C 0.6812(2) 0.5497(2) 0.3534(2)
C7 C 0.7268(2) 0.4001(2) 0.4089(2)
H4 H 0.8239 0.3342 0.4386
C8 C 0.7829(2) 0.6056(2) 0.3472(2)
C9 C 0.7701(2) 0.6872(2) 0.4062(2)
H5 H 0.6939 0.7104 0.4464
C10 C 0.8668(2) 0.7352(2) 0.4072(2)
C11 C 0.9757(2) 0.7054(3) 0.3450(2)
H6 H 1.0411 0.7400 0.3433
C12 C 0.9887(3) 0.6254(3) 0.2854(3)
H7 H 1.0631 0.6055 0.2425
C13 C 0.8945(2) 0.5740(3) 0.2877(2)
H8 H 0.9061 0.5169 0.2484
C14 C 0.8553(2) 0.8151(2) 0.4778(2)
C15 C 1.0700(2) -0.2450(2) 0.7777(2)
C16 C 1.1821(2) -0.3612(2) 0.8962(2)
C17 C 1.1515(2) -0.4435(2) 1.0103(2)
H9 H 1.0588 -0.4297 1.0129
C18 C 1.2566(2) -0.5456(2) 1.1201(2)
H10 H 1.2359 -0.6012 1.1987
C19 C 1.3919(2) -0.5673(2) 1.1160(2)
H11 H 1.4630 -0.6378 1.1924
C20 C 1.4267(2) -0.4877(2) 1.00197(19)
C21 C 1.3190(2) -0.3842(2) 0.8937(2)
H12 H 1.3391 -0.3272 0.8153
C22 C 0.6890(3) -0.1472(3) 0.8932(2)
H13 H 0.7827 -0.1737 0.9227
C23 C 0.6058(3) -0.1659(4) 0.9806(3)
H14 H 0.6408 -0.2036 1.0690
C24 C 0.4709(3) -0.1295(4) 0.9389(3)
H15 H 0.4116 -0.1431 0.9982
C25 C 0.4231(3) -0.0735(3) 0.8111(3)
H16 H 0.3296 -0.0463 0.7801
C26 C 0.5114(2) -0.0567(3) 0.7275(2)
H17 H 0.4776 -0.0183 0.6386
Co1_2 Co 1.0000 1.0000 0.5000
Co1_3 Co 2.0000 -1.0000 1.5000
Co1_4 Co 1.0000 -1.0000 0.5000
Co2_2 Co 0.77778(3) 0.91370(3) 0.64460(3)
Co2A Co 2.22222(3) -0.91370(3) 1.35540(3)
Co2A_2 Co 1.22222(3) 0.08630(3) 0.35540(3)
Co2A_3 Co 1.22222(3) -0.91370(3) 0.35540(3)
O1A O 1.19483(14) -0.09483(15) 0.44185(13)
O2A O 1.40283(16) -0.13810(17) 0.51170(17)
O3A O 1.06385(16) 0.13134(17) 0.53157(16)
O3_2 O 0.93615(16) -0.13134(17) 0.46843(16)
O3A_2 O 1.06385(16) -0.86866(17) 0.53157(16)
O4A O 1.23638(16) 0.17670(18) 0.45477(16)
O4_2 O 0.76362(16) -0.17670(18) 0.54523(16)
O4A_2 O 1.23638(16) -0.82330(18) 0.45477(16)
O5A O 1.89951(14) -0.83949(16) 1.31584(13)
O5A_2 O 0.89951(14) 0.16051(16) 0.31584(13)
O6A O 2.04974(14) -0.76173(17) 1.21951(15)
O6A_2 O 1.04974(14) 0.23827(17) 0.21951(15)
N1A N 1.35629(18) 0.0931(2) 0.23242(18)
C1A C 1.3217(2) -0.1864(2) 0.5108(2)
C2A C 1.3678(2) -0.3462(2) 0.57868(19)
C3A C 1.5098(2) -0.4430(2) 0.6252(2)
H1A H 1.5750 -0.4069 0.6183
C4A C 1.5559(2) -0.5918(2) 0.6814(2)
H2A H 1.6527 -0.6579 0.7136
C5A C 1.4614(2) -0.6445(2) 0.6908(2)
H3A H 1.4942 -0.7468 0.7280
C6A C 1.3188(2) -0.5497(2) 0.6466(2)
C7A C 1.2732(2) -0.4001(2) 0.5911(2)
H4A H 1.1761 -0.3342 0.5614
C8A C 1.2171(2) -0.6056(2) 0.6528(2)
C9A C 1.2299(2) -0.6872(2) 0.5938(2)
H5A H 1.3061 -0.7104 0.5536
C10A C 1.1332(2) -0.7352(2) 0.5928(2)
C11A C 1.0243(2) -0.7054(3) 0.6550(2)
H6A H 0.9589 -0.7400 0.6567
C12A C 1.0113(3) -0.6254(3) 0.7146(3)
H7A H 0.9369 -0.6055 0.7575
C13A C 1.1055(2) -0.5740(3) 0.7123(2)
H8A H 1.0939 -0.5169 0.7516
C14A C 1.1447(2) -0.8151(2) 0.5222(2)
C15A C 1.9300(2) -0.7550(2) 1.2223(2)
C16A C 1.8179(2) -0.6388(2) 1.1038(2)
C17A C 1.8485(2) -0.5565(2) 0.9897(2)
H9A H 1.9412 -0.5703 0.9871
C18A C 1.7434(2) -0.4544(2) 0.8799(2)
H10A H 1.7641 -0.3988 0.8013
C19A C 1.6081(2) -0.4327(2) 0.8840(2)
H11A H 1.5370 -0.3622 0.8076
C20A C 1.5733(2) -0.5123(2) 0.99803(19)
C21A C 1.6810(2) -0.6158(2) 1.1063(2)
H12A H 1.6609 -0.6728 1.1847
C22A C 1.3110(3) 0.1472(3) 0.1068(2)
H13A H 1.2173 0.1737 0.0773
C23A C 1.3942(3) 0.1659(4) 0.0194(3)
H14A H 1.3592 0.2036 -0.0690
C24A C 1.5291(3) 0.1295(4) 0.0611(3)
H15A H 1.5884 0.1431 0.0018
C25A C 1.5769(3) 0.0735(3) 0.1889(3)
H16A H 1.6704 0.0463 0.2199
C26A C 1.4886(2) 0.0567(3) 0.2725(2)
H17A H 1.5224 0.0183 0.3614
C27 C 0.8640(5) 0.0701(6) -0.0551(8)
H18 H 0.7674 0.1153 -0.0909
C28 C 0.9062(8) 0.0655(8) 0.0479(10)
C29 C 0.9578(10) 0.0109(8) -0.1081(5)
H19 H 0.916(4) 0.023(5) -0.181(4)
H20 H 0.849(6) 0.102(7) 0.096(6)
C27A C 1.1360(5) -0.0701(6) 0.0551(8)
H18A H 1.2326 -0.1153 0.0909
C28A C 1.0938(8) -0.0655(8) -0.0479(10)
C29A C 1.0422(10) -0.0109(8) 0.1081(5)
H19A H 1.084(4) -0.023(5) 0.181(4)
H20A H 1.151(6) -0.102(7) -0.096(6)
loop_
_geom_bond_atom_site_label_1
_geom_bond_atom_site_label_2
_geom_bond_site_symmetry_1
_geom_bond_site_symmetry_2
Co1 O1 1_555 1_555
Co2 O1 1_555 1_555
O1 C1 1_555 1_555
O2 Co2 1_555 1_555
O3 C14 1_555 1_555
O4 C14 1_555 1_555
O5 Co1 1_555 1_555
O6 Co2 1_555 1_555
N1 Co2 1_555 1_555
C1 O2 1_555 1_555
C2 C1 1_555 1_555
C3 C2 1_555 1_555
H1 C3 1_555 1_555
C4 C3 1_555 1_555
H2 C4 1_555 1_555
C5 C4 1_555 1_555
H3 C5 1_555 1_555
C6 C5 1_555 1_555
C7 C2 1_555 1_555
H4 C7 1_555 1_555
C8 C6 1_555 1_555
C9 C8 1_555 1_555
H5 C9 1_555 1_555
C10 C9 1_555 1_555
C11 C10 1_555 1_555
H6 C11 1_555 1_555
C12 C11 1_555 1_555
H7 C12 1_555 1_555
C13 C8 1_555 1_555
H8 C13 1_555 1_555
C14 C10 1_555 1_555
C15 O5 1_555 1_555
C16 C15 1_555 1_555
C17 C16 1_555 1_555
H9 C17 1_555 1_555
C18 C17 1_555 1_555
H10 C18 1_555 1_555
C19 C18 1_555 1_555
H11 C19 1_555 1_555
C20 C19 1_555 1_555
C21 C16 1_555 1_555
H12 C21 1_555 1_555
C22 N1 1_555 1_555
H13 C22 1_555 1_555
C23 C22 1_555 1_555
H14 C23 1_555 1_555
C24 C23 1_555 1_555
H15 C24 1_555 1_555
C25 C24 1_555 1_555
H16 C25 1_555 1_555
C26 N1 1_555 1_555
H17 C26 1_555 1_555
C27 H18 1_555 1_555
C28 C27 1_555 1_555
C29 C27 1_555 1_555
H19 C29 1_555 1_555
H20 C28 1_555 1_555
Co1_2 O3 1_555 1_555
Co1_3 O5A 1_555 1_555
Co1_4 O3A_2 1_555 1_555
Co2_2 O4 1_555 1_555
Co2A O6A 1_555 1_555
Co2A_2 O1A 1_555 1_555
Co2A_3 O4A_2 1_555 1_555
O1A Co1 1_555 1_555
O2A Co2A_2 1_555 1_555
O3A Co1 1_555 1_555
O3_2 Co1 1_555 1_555
O3A_2 C14A 1_555 1_555
O4A Co2A_2 1_555 1_555
O4_2 Co2 1_555 1_555
O4A_2 C14A 1_555 1_555
O5A C15A 1_555 1_555
O5A_2 Co1 1_555 1_555
O6A C15A 1_555 1_555
O6A_2 Co2A_2 1_555 1_555
N1A Co2A_2 1_555 1_555
C1A O1A 1_555 1_555
C2A C1A 1_555 1_555
C3A C2A 1_555 1_555
H1A C3A 1_555 1_555
C4A C3A 1_555 1_555
H2A C4A 1_555 1_555
C5A C4A 1_555 1_555
H3A C5A 1_555 1_555
C6A C5A 1_555 1_555
C7A C2A 1_555 1_555
H4A C7A 1_555 1_555
C8A C6A 1_555 1_555
C9A C8A 1_555 1_555
H5A C9A 1_555 1_555
C10A C9A 1_555 1_555
C11A C10A 1_555 1_555
H6A C11A 1_555 1_555
C12A C11A 1_555 1_555
H7A C12A 1_555 1_555
C13A C8A 1_555 1_555
H8A C13A 1_555 1_555
C14A C10A 1_555 1_555
C15A C16A 1_555 1_555
C16A C17A 1_555 1_555
C17A H9A 1_555 1_555
C18A C17A 1_555 1_555
H10A C18A 1_555 1_555
C19A C18A 1_555 1_555
H11A C19A 1_555 1_555
C20A C20 1_555 1_555
C21A C16A 1_555 1_555
H12A C21A 1_555 1_555
C22A N1A 1_555 1_555
H13A C22A 1_555 1_555
C23A C22A 1_555 1_555
H14A C23A 1_555 1_555
C24A C23A 1_555 1_555
H15A C24A 1_555 1_555
C25A C24A 1_555 1_555
H16A C25A 1_555 1_555
C26A N1A 1_555 1_555
H17A C26A 1_555 1_555
C27A H18A 1_555 1_555
C28A C29 1_555 1_555
C29A C28 1_555 1_555
H19A C29A 1_555 1_555
H20A C28A 1_555 1_555
O6 C15 1_555 1_555
C6 C7 1_555 1_555
C12 C13 1_555 1_555
C20 C21 1_555 1_555
C25 C26 1_555 1_555
O2A C1A 1_555 1_555
C6A C7A 1_555 1_555
C12A C13A 1_555 1_555
C19A C20A 1_555 1_555
C20A C21A 1_555 1_555
C25A C26A 1_555 1_555
C27A C28A 1_555 1_555
C27A C29A 1_555 1_555

#END
