
#######################################################################
#
#                 Cambridge Crystallographic Data Centre
#                                CCDC 
#
#######################################################################
#
# If this CIF has been generated from an entry in the Cambridge 
# Structural Database, then it will include bibliographic, chemical, 
# crystal, experimental, refinement or atomic coordinate data resulting 
# from the CCDC's data processing and validation procedures.
#
#######################################################################

data_OWAWIT
_symmetry_cell_setting           triclinic
_symmetry_space_group_name_H-M   'P -1'
_symmetry_Int_Tables_number      2
_space_group_name_Hall           '-P 1'
loop_
_symmetry_equiv_pos_site_id
_symmetry_equiv_pos_as_xyz
1 x,y,z
2 -x,-y,-z
_cell_length_a                   10.134(2)
_cell_length_b                   10.554(2)
_cell_length_c                   10.689(2)
_cell_angle_alpha                99.81(3)
_cell_angle_beta                 103.32(3)
_cell_angle_gamma                118.20(3)
_cell_volume                     926.998
loop_
_atom_site_label
_atom_site_type_symbol
_atom_site_fract_x
_atom_site_fract_y
_atom_site_fract_z
Co1 Co 0.5000 0.5000 0.5000
Co2 Co 0.85302(5) 0.72466(5) 0.77855(4)
O1 O 0.7489(2) 0.8445(2) 0.7766(2)
O2 O 0.4988(3) 0.6577(3) 0.6445(2)
O3 O 0.0670(3) 0.8871(2) 0.7837(2)
O4 O 0.0617(3) 0.6753(3) 0.7727(3)
N1 N 0.8750(3) 0.7906(3) 0.3779(3)
N2 N 0.6742(3) 0.6744(3) 0.4478(3)
N3 N 0.8830(3) 0.6999(3) -0.0344(3)
N4 N 0.9526(3) 0.7424(3) 0.1859(3)
N5 N 0.6964(3) 0.5149(3) 0.6456(3)
C1 C 0.5349(4) 0.8822(4) 0.7748(3)
C2 C 0.3102(4) 0.8943(3) 0.7991(3)
C3 C 0.6347(4) 1.0388(4) 0.8393(4)
H1 H 0.7436 1.0873 0.8538
N6 N 0.7241(3) 0.4151(4) 0.6323(3)
C4 C 0.5983(4) 0.7874(4) 0.7273(3)
C5 C 0.7959(4) 0.6748(4) 0.4232(3)
H2 H 0.8238 0.6043 0.4354
C6 C 0.1368(4) 0.8130(4) 0.7842(3)
C7 C 0.9276(4) 0.7985(4) 0.0853(3)
H3 H 0.9399 0.8934 0.0979
C8 C 0.3731(4) 0.8118(4) 0.7556(3)
H4 H 0.3059 0.7073 0.7128
C9 C 0.4102(4) 1.0508(4) 0.8620(4)
H5 H 0.3685 1.1073 0.8907
C10 C 0.5718(4) 1.1223(4) 0.8819(4)
H6 H 0.6385 1.2270 0.9240
C11 C 0.7961(4) 0.8671(4) 0.3722(3)
H7 H 0.8216 0.9516 0.3438
C12 C 0.6746(4) 0.7948(4) 0.4160(4)
H8 H 0.6017 0.8227 0.4235
C13 C 1.0081(4) 0.8210(4) 0.3314(3)
H9 H 1.0722 0.7886 0.3818
H10 H 1.0758 0.9297 0.3498
C14 C 0.8812(5) 0.5771(4) -0.0058(4)
H11 H 0.8552 0.4897 -0.0704
C15 C 0.9224(5) 0.6013(4) 0.1289(4)
H12 H 0.9290 0.5353 0.1739
N7 N 0.7473(5) 0.3190(4) 0.6181(4)
Co2A Co 0.14698(5) 0.27534(5) 0.22145(4)
Co2_2 Co -0.14698(5) 0.72466(5) 0.77855(4)
Co2_3 Co 0.85302(5) 0.72466(5) -0.22145(4)
Co2A_2 Co 1.14698(5) 0.27534(5) 0.22145(4)
Co2A_3 Co 0.14698(5) 0.27534(5) 1.22145(4)
O1A O 0.2511(2) 0.1555(2) 0.2234(2)
O2A O 0.5012(3) 0.3423(3) 0.3555(2)
O3A O 0.9330(3) 0.1129(2) 0.2163(2)
O3_2 O 1.0670(3) 0.8871(2) 0.7837(2)
O3A_2 O -0.0670(3) 0.1129(2) 0.2163(2)
O4A O 0.9383(3) 0.3247(3) 0.2273(3)
N1A N 0.1250(3) 0.2094(3) 0.6221(3)
N2A N 0.3258(3) 0.3256(3) 0.5522(3)
N3A N 0.1170(3) 0.3001(3) 1.0344(3)
N3_2 N 0.8830(3) 0.6999(3) 0.9656(3)
N3A_2 N 0.1170(3) 0.3001(3) 0.0344(3)
N4A N 0.0474(3) 0.2576(3) 0.8141(3)
N5A N 0.3036(3) 0.4851(3) 0.3544(3)
C1A C 0.4651(4) 0.1178(4) 0.2252(3)
C2A C 0.6898(4) 0.1057(3) 0.2009(3)
C3A C 0.3653(4) -0.0388(4) 0.1607(4)
H1A H 0.2564 -0.0873 0.1462
N6A N 0.2759(3) 0.5849(4) 0.3677(3)
C4A C 0.4017(4) 0.2126(4) 0.2727(3)
C5A C 0.2041(4) 0.3252(4) 0.5768(3)
H2A H 0.1762 0.3957 0.5646
C6A C 0.8632(4) 0.1870(4) 0.2158(3)
C7A C 0.0724(4) 0.2015(4) 0.9147(3)
H3A H 0.0601 0.1066 0.9021
C8A C 0.6269(4) 0.1882(4) 0.2444(3)
H4A H 0.6941 0.2927 0.2872
C9A C 0.5898(4) -0.0508(4) 0.1380(4)
H5A H 0.6315 -0.1073 0.1093
C10A C 0.4282(4) -0.1223(4) 0.1181(4)
H6A H 0.3615 -0.2270 0.0760
C11A C 0.2039(4) 0.1329(4) 0.6278(3)
H7A H 0.1784 0.0484 0.6562
C12A C 0.3254(4) 0.2052(4) 0.5840(4)
H8A H 0.3983 0.1773 0.5765
C13A C -0.0081(4) 0.1790(4) 0.6686(3)
H9A H -0.0722 0.2114 0.6182
H10A H -0.0758 0.0703 0.6502
C14A C 0.1188(5) 0.4229(4) 1.0058(4)
H11A H 0.1448 0.5103 1.0704
C15A C 0.0776(5) 0.3987(4) 0.8711(4)
H12A H 0.0710 0.4647 0.8261
N7A N 0.2527(5) 0.6810(4) 0.3819(4)
O5 O 0.5000 0.5000 0.0000
H13? H 0.5051 0.4422 0.0448
H14? H 0.4861 0.4390 -0.0720
loop_
_geom_bond_atom_site_label_1
_geom_bond_atom_site_label_2
_geom_bond_site_symmetry_1
_geom_bond_site_symmetry_2
Co1 O2 1_555 1_555
Co2 O1 1_555 1_555
O1 C4 1_555 1_555
O2 C4 1_555 1_555
O3 C6 1_555 1_555
O4 C6 1_555 1_555
N1 C5 1_555 1_555
N2 Co1 1_555 1_555
N3 C7 1_555 1_555
N4 C7 1_555 1_555
N5 Co1 1_555 1_555
C1 C3 1_555 1_555
C2 C6 1_555 1_555
C3 H1 1_555 1_555
N6 N5 1_555 1_555
C4 C1 1_555 1_555
C5 N2 1_555 1_555
H2 C5 1_555 1_555
C7 H3 1_555 1_555
C8 C1 1_555 1_555
H4 C8 1_555 1_555
C9 C2 1_555 1_555
H5 C9 1_555 1_555
C10 C3 1_555 1_555
H6 C10 1_555 1_555
C11 N1 1_555 1_555
H7 C11 1_555 1_555
C12 N2 1_555 1_555
H8 C12 1_555 1_555
C13 N1 1_555 1_555
H9 C13 1_555 1_555
H10 C13 1_555 1_555
C14 N3 1_555 1_555
H11 C14 1_555 1_555
C15 N4 1_555 1_555
H12 C15 1_555 1_555
N7 N6 1_555 1_555
Co2A O1A 1_555 1_555
Co2_2 O3 1_555 1_555
Co2_3 N3 1_555 1_555
Co2A_2 O3A 1_555 1_555
Co2A_3 N3A 1_555 1_555
O1A C4A 1_555 1_555
O2A Co1 1_555 1_555
O3A C6A 1_555 1_555
O3_2 Co2 1_555 1_555
O3A_2 Co2A 1_555 1_555
O4A C6A 1_555 1_555
N1A C5A 1_555 1_555
N2A Co1 1_555 1_555
N3A C7A 1_555 1_555
N3_2 Co2 1_555 1_555
N3A_2 Co2A 1_555 1_555
N4A C7A 1_555 1_555
N5A Co1 1_555 1_555
C1A C3A 1_555 1_555
C2A C6A 1_555 1_555
C3A H1A 1_555 1_555
N6A N5A 1_555 1_555
C4A O2A 1_555 1_555
C5A N2A 1_555 1_555
H2A C5A 1_555 1_555
C7A H3A 1_555 1_555
C8A C1A 1_555 1_555
H4A C8A 1_555 1_555
C9A C2A 1_555 1_555
H5A C9A 1_555 1_555
C10A C3A 1_555 1_555
H6A C10A 1_555 1_555
C11A N1A 1_555 1_555
H7A C11A 1_555 1_555
C12A N2A 1_555 1_555
H8A C12A 1_555 1_555
C13A N1A 1_555 1_555
H9A C13A 1_555 1_555
H10A C13A 1_555 1_555
C14A N3A 1_555 1_555
H11A C14A 1_555 1_555
C15A N4A 1_555 1_555
H12A C15A 1_555 1_555
N7A N6A 1_555 1_555
Co2 N5 1_555 1_555
N4 C13 1_555 1_555
C2 C8 1_555 1_555
C9 C10 1_555 1_555
C11 C12 1_555 1_555
C14 C15 1_555 1_555
Co2A N5A 1_555 1_555
N4A C13A 1_555 1_555
C1A C4A 1_555 1_555
C2A C8A 1_555 1_555
C9A C10A 1_555 1_555
C11A C12A 1_555 1_555
C14A C15A 1_555 1_555

#END
