
#######################################################################
#
#                 Cambridge Crystallographic Data Centre
#                                CCDC 
#
#######################################################################
#
# If this CIF has been generated from an entry in the Cambridge 
# Structural Database, then it will include bibliographic, chemical, 
# crystal, experimental, refinement or atomic coordinate data resulting 
# from the CCDC's data processing and validation procedures.
#
#######################################################################

data_OWAXEQ
_symmetry_cell_setting           monoclinic
_symmetry_space_group_name_H-M   'C 2/c'
_symmetry_Int_Tables_number      15
_space_group_name_Hall           '-C 2yn'
loop_
_symmetry_equiv_pos_site_id
_symmetry_equiv_pos_as_xyz
1 x,y,z
2 -x,y,1/2-z
3 1/2+x,1/2+y,z
4 1/2-x,1/2+y,1/2-z
5 -x,-y,-z
6 x,-y,1/2+z
7 1/2-x,1/2-y,-z
8 1/2+x,1/2-y,1/2+z
_cell_length_a                   24.2528(14)
_cell_length_b                   10.4340(6)
_cell_length_c                   36.583(2)
_cell_angle_alpha                90
_cell_angle_beta                 96.6010(10)
_cell_angle_gamma                90
_cell_volume                     9196.09
loop_
_atom_site_label
_atom_site_type_symbol
_atom_site_fract_x
_atom_site_fract_y
_atom_site_fract_z
Ni1 Ni 0.352030(14) -0.27414(3) 0.128570(9)
Ni2 Ni 0.534210(13) 0.07101(3) -0.119410(10)
O1 O 0.48630(8) 0.16135(17) -0.08430(5)
O2 O 0.48639(9) 0.36457(18) -0.10296(6)
O3 O 0.14833(8) 0.1661(2) 0.31868(5)
O4 O 0.06055(9) 0.1897(3) 0.29492(6)
O5 O 0.34208(8) -0.09059(19) 0.14683(6)
O6 O 0.42152(8) 0.02002(19) 0.15573(6)
O7 O 0.34533(8) -0.21634(17) 0.07541(5)
O8 O 0.40372(8) -0.04959(18) 0.07674(5)
O9 O 0.43863(8) -0.25163(18) 0.13643(6)
N1 N 0.35588(11) -0.4655(2) 0.11042(7)
N2 N 0.26430(10) -0.2833(2) 0.12424(7)
N3 N 0.50796(10) -0.1055(2) -0.09980(8)
N4 N 0.46429(10) 0.0681(2) -0.16057(7)
C1 C 0.46568(11) 0.2718(2) -0.08752(7)
C2 C 0.41041(11) 0.2911(2) -0.07319(7)
C3 C 0.37793(13) 0.3972(3) -0.08358(8)
H1 H 0.3918 0.4628 -0.0980
C4 C 0.32551(13) 0.4070(3) -0.07285(9)
H2 H 0.3032 0.4793 -0.0803
C5 C 0.30493(12) 0.3133(3) -0.05150(8)
H3 H 0.2687 0.3215 -0.0444
C6 C 0.33711(11) 0.2068(2) -0.04038(7)
C7 C 0.38980(11) 0.1970(2) -0.05163(7)
H4 H 0.4121 0.1245 -0.0444
C8 C 0.31483(11) 0.1029(2) -0.01815(7)
C9 C 0.26080(12) 0.0610(3) -0.02646(8)
H5 H 0.2375 0.1011 -0.0458
C10 C 0.24025(12) -0.0385(3) -0.00709(8)
H6 H 0.2032 -0.0674 -0.0134
C11 C 0.27327(12) -0.0960(3) 0.02140(8)
H7 H 0.2591 -0.1647 0.0346
C12 C 0.32728(11) -0.0539(2) 0.03089(7)
C13 C 0.34790(12) 0.0449(2) 0.01093(7)
H8 H 0.3850 0.0734 0.0172
C14 C 0.11046(12) 0.1675(3) 0.29237(8)
C15 C 0.37197(11) -0.0016(3) 0.16059(8)
C16 C 0.34543(12) 0.0900(3) 0.18559(8)
C17 C 0.37580(13) 0.1864(3) 0.20431(9)
H9 H 0.4143 0.1956 0.2021
C18 C 0.34950(16) 0.2701(3) 0.22645(11)
H10 H 0.3700 0.3380 0.2389
C19 C 0.29448(15) 0.2553(3) 0.23040(9)
H11 H 0.2775 0.3120 0.2461
C20 C 0.26274(12) 0.1587(3) 0.21190(7)
C21 C 0.28938(12) 0.0779(3) 0.18925(8)
H12 H 0.2686 0.0124 0.1759
C22 C 0.20279(12) 0.1431(3) 0.21578(8)
C23 C 0.18414(12) 0.1549(3) 0.25006(8)
H13 H 0.2103 0.1692 0.2711
C24 C 0.12836(12) 0.1462(3) 0.25439(7)
C25 C 0.08978(13) 0.1238(3) 0.22414(9)
H14 H 0.0513 0.1191 0.2267
C26 C 0.10836(14) 0.1085(4) 0.19003(9)
H15 H 0.0824 0.0910 0.1692
C27 C 0.16367(13) 0.1181(3) 0.18590(8)
H16 H 0.1754 0.1075 0.1622
C28 C 0.36212(11) -0.1121(2) 0.06383(7)
C29 C 0.37813(14) -0.4977(3) 0.08032(10)
H17 H 0.3948 -0.4325 0.0671
C30 C 0.37828(17) -0.6215(4) 0.06722(15)
H18 H 0.3947 -0.6406 0.0455
C31 C 0.3550(2) -0.7152(4) 0.08555(18)
H19 H 0.3557 -0.8014 0.0773
C32 C 0.3303(3) -0.6850(4) 0.11611(15)
H20 H 0.3119 -0.7486 0.1288
C33 C 0.3327(2) -0.5575(3) 0.12814(11)
H21 H 0.3171 -0.5364 0.1500
C34 C 0.23477(13) -0.3241(3) 0.09390(9)
H22 H 0.2540 -0.3558 0.0746
C35 C 0.17760(16) -0.3231(5) 0.08879(13)
H23 H 0.1578 -0.3539 0.0666
C36 C 0.15043(17) -0.2770(5) 0.11642(17)
H24 H 0.1110 -0.2745 0.1136
C37 C 0.17991(16) -0.2336(4) 0.14849(13)
H25 H 0.1616 -0.2004 0.1680
C38 C 0.23682(14) -0.2402(3) 0.15112(10)
H26 H 0.2576 -0.2124 0.1733
C39 C 0.50506(14) -0.2112(3) -0.11975(13)
H27 H 0.5119 -0.2057 -0.1447
C40 C 0.49236(17) -0.3309(4) -0.10581(18)
H28 H 0.4905 -0.4048 -0.1211
C41 C 0.48242(19) -0.3399(4) -0.0693(2)
H29 H 0.4737 -0.4199 -0.0590
C42 C 0.48546(17) -0.2325(4) -0.04884(14)
H30 H 0.4786 -0.2362 -0.0238
C43 C 0.49855(15) -0.1162(4) -0.06419(12)
H31 H 0.5010 -0.0417 -0.0492
C44 C 0.41290(13) 0.0564(3) -0.15155(10)
H32 H 0.4075 0.0583 -0.1262
C45 C 0.36687(15) 0.0415(4) -0.17748(12)
H33 H 0.3309 0.0334 -0.1699
C46 C 0.37374(17) 0.0384(4) -0.21391(12)
H34 H 0.3431 0.0262 -0.2322
C47 C 0.42668(19) 0.0537(4) -0.22324(12)
H35 H 0.4331 0.0541 -0.2484
C48 C 0.46964(15) 0.0681(3) -0.19632(10)
H36 H 0.5058 0.0789 -0.2035
H37 H 0.4428(17) -0.270(4) 0.1572(12)
H38 H 0.4567(16) -0.297(4) 0.1257(11)
Ni1C Ni 0.147970(14) 0.22586(3) 0.371430(9)
Ni2D Ni 0.465790(13) -0.07101(3) 0.119410(10)
O3C O 0.35167(8) -0.3339(2) 0.18132(5)
O6D O 0.57848(8) -0.02002(19) -0.15573(6)
O8D O 0.59628(8) 0.04959(18) -0.07674(5)
O9D O 0.56137(8) 0.25163(18) -0.13643(6)
H37D H 0.5572(17) 0.270(4) -0.1572(12)
H38D H 0.5433(16) 0.297(4) -0.1257(11)
loop_
_geom_bond_atom_site_label_1
_geom_bond_atom_site_label_2
_geom_bond_site_symmetry_1
_geom_bond_site_symmetry_2
Ni1 O5 1_555 1_555
Ni2 O1 1_555 1_555
O1 C1 1_555 1_555
O2 C1 1_555 1_555
O3 C14 1_555 1_555
O4 C14 1_555 1_555
O5 C15 1_555 1_555
O6 C15 1_555 1_555
O7 Ni1 1_555 1_555
O8 C28 1_555 1_555
O9 Ni1 1_555 1_555
N1 Ni1 1_555 1_555
N2 Ni1 1_555 1_555
N3 Ni2 1_555 1_555
N4 Ni2 1_555 1_555
C1 C2 1_555 1_555
C2 C3 1_555 1_555
C3 H1 1_555 1_555
C4 C3 1_555 1_555
H2 C4 1_555 1_555
C5 C4 1_555 1_555
H3 C5 1_555 1_555
C6 C5 1_555 1_555
C7 C2 1_555 1_555
H4 C7 1_555 1_555
C8 C6 1_555 1_555
C9 C8 1_555 1_555
H5 C9 1_555 1_555
C10 C9 1_555 1_555
H6 C10 1_555 1_555
C11 C10 1_555 1_555
H7 C11 1_555 1_555
C12 C11 1_555 1_555
C13 C8 1_555 1_555
H8 C13 1_555 1_555
C14 C24 1_555 1_555
C15 C16 1_555 1_555
C16 C17 1_555 1_555
C17 H9 1_555 1_555
C18 C17 1_555 1_555
H10 C18 1_555 1_555
C19 C18 1_555 1_555
H11 C19 1_555 1_555
C20 C19 1_555 1_555
C21 C16 1_555 1_555
H12 C21 1_555 1_555
C22 C20 1_555 1_555
C23 C22 1_555 1_555
H13 C23 1_555 1_555
C24 C23 1_555 1_555
C25 C24 1_555 1_555
H14 C25 1_555 1_555
C26 C25 1_555 1_555
H15 C26 1_555 1_555
C27 C22 1_555 1_555
H16 C27 1_555 1_555
C28 O7 1_555 1_555
C29 N1 1_555 1_555
H17 C29 1_555 1_555
C30 C29 1_555 1_555
H18 C30 1_555 1_555
C31 C30 1_555 1_555
H19 C31 1_555 1_555
C32 C31 1_555 1_555
H20 C32 1_555 1_555
C33 N1 1_555 1_555
H21 C33 1_555 1_555
C34 N2 1_555 1_555
H22 C34 1_555 1_555
C35 C34 1_555 1_555
H23 C35 1_555 1_555
C36 C35 1_555 1_555
H24 C36 1_555 1_555
C37 C36 1_555 1_555
H25 C37 1_555 1_555
C38 N2 1_555 1_555
H26 C38 1_555 1_555
C39 N3 1_555 1_555
H27 C39 1_555 1_555
C40 C39 1_555 1_555
H28 C40 1_555 1_555
C41 C40 1_555 1_555
H29 C41 1_555 1_555
C42 C41 1_555 1_555
H30 C42 1_555 1_555
C43 N3 1_555 1_555
H31 C43 1_555 1_555
C44 N4 1_555 1_555
H32 C44 1_555 1_555
C45 C44 1_555 1_555
H33 C45 1_555 1_555
C46 C45 1_555 1_555
H34 C46 1_555 1_555
C47 C46 1_555 1_555
H35 C47 1_555 1_555
C48 N4 1_555 1_555
H36 C48 1_555 1_555
H37 O9 1_555 1_555
H38 O9 1_555 1_555
Ni1C O3 1_555 1_555
Ni2D O6 1_555 1_555
O3C Ni1 1_555 1_555
O6D Ni2 1_555 1_555
O8D Ni2 1_555 1_555
O9D Ni2 1_555 1_555
H37D O9D 1_555 1_555
H38D O9D 1_555 1_555
O8 Ni2D 1_555 1_555
O9 Ni2D 1_555 1_555
C6 C7 1_555 1_555
C12 C13 1_555 1_555
C12 C28 1_555 1_555
C20 C21 1_555 1_555
C26 C27 1_555 1_555
C32 C33 1_555 1_555
C37 C38 1_555 1_555
C42 C43 1_555 1_555
C47 C48 1_555 1_555

#END
