
#######################################################################
#
#                 Cambridge Crystallographic Data Centre
#                                CCDC 
#
#######################################################################
#
# If this CIF has been generated from an entry in the Cambridge 
# Structural Database, then it will include bibliographic, chemical, 
# crystal, experimental, refinement or atomic coordinate data resulting 
# from the CCDC's data processing and validation procedures.
#
#######################################################################

data_OWAXAM
_symmetry_cell_setting           monoclinic
_symmetry_space_group_name_H-M   'C 2/c'
_symmetry_Int_Tables_number      15
_space_group_name_Hall           '-C 2yn'
loop_
_symmetry_equiv_pos_site_id
_symmetry_equiv_pos_as_xyz
1 x,y,z
2 -x,y,1/2-z
3 1/2+x,1/2+y,z
4 1/2-x,1/2+y,1/2-z
5 -x,-y,-z
6 x,-y,1/2+z
7 1/2-x,1/2-y,-z
8 1/2+x,1/2-y,1/2+z
_cell_length_a                   23.8351(8)
_cell_length_b                   10.0328(3)
_cell_length_c                   38.4943(15)
_cell_angle_alpha                90
_cell_angle_beta                 97.894(3)
_cell_angle_gamma                90
_cell_volume                     9118.02
loop_
_atom_site_label
_atom_site_type_symbol
_atom_site_fract_x
_atom_site_fract_y
_atom_site_fract_z
Co1 Co 0.534335(16) 0.46922(4) 0.877766(9)
Co2 Co 0.653134(16) 0.26021(4) 0.870065(9)
N1 N 0.74448(11) 0.2482(2) 0.87744(7)
N2 N 0.46265(11) 0.4752(3) 0.83573(6)
N3 N 0.64973(11) 0.0546(2) 0.88509(6)
O1 O 0.65493(9) 0.31164(19) 0.92166(5)
O2 O 0.59560(8) 0.4843(2) 0.92260(5)
O3 O 0.84636(9) 0.7040(2) 0.68125(5)
O4 O 0.93688(10) 0.7210(3) 0.70405(5)
O5 O 0.58045(9) 0.5623(2) 0.84353(5)
O6 O 0.66321(9) 0.4566(2) 0.85430(6)
O7 O 0.51505(10) 0.8428(2) 1.10810(6)
O8 O 0.51778(9) 0.63104(19) 1.09092(5)
O9 O 0.56140(8) 0.27900(18) 0.86055(5)
O10 O 0.50581(10) 0.6543(2) 0.89367(6)
H1 H 0.5088 0.6567 0.9151
C1 C 0.63800(12) 0.4161(3) 0.93464(7)
C2 C 0.67262(12) 0.4642(3) 0.96815(7)
C3 C 0.72619(13) 0.4140(3) 0.97775(8)
H2 H 0.7400 0.3487 0.9640
C4 C 0.75965(14) 0.4595(3) 1.00752(8)
H3 H 0.7960 0.4256 1.0137
C5 C 0.73905(13) 0.5554(3) 1.02816(8)
H4 H 0.7619 0.5866 1.0480
C6 C 0.68468(12) 0.6057(3) 1.01970(7)
C7 C 0.65183(12) 0.5609(3) 0.98920(7)
H5 H 0.6157 0.5956 0.9828
C8 C 0.66283(12) 0.7035(3) 1.04380(7)
C9 C 0.69606(13) 0.8114(3) 1.05658(8)
H6 H 0.7311 0.8244 1.0491
C10 C 0.67772(14) 0.8995(3) 1.08026(8)
H7 H 0.7004 0.9713 1.0885
C11 C 0.62595(14) 0.8809(3) 1.09156(8)
H8 H 0.6134 0.9410 1.1072
C12 C 0.59233(12) 0.7725(3) 1.07971(7)
C13 C 0.61118(12) 0.6847(3) 1.05603(7)
H9 H 0.5888 0.6118 1.0482
C14 C 0.53742(13) 0.7471(3) 1.09392(7)
C15 C 0.88621(13) 0.7040(3) 0.70653(7)
C16 C 0.86932(13) 0.6840(3) 0.74234(7)
C17 C 0.81279(13) 0.6924(3) 0.74706(7)
H10 H 0.7855 0.7056 0.7276
C18 C 0.79583(13) 0.6817(3) 0.78009(7)
C19 C 0.83737(15) 0.6569(3) 0.80857(8)
H11 H 0.8269 0.6456 0.8308
C20 C 0.89381(15) 0.6488(4) 0.80419(8)
H12 H 0.9211 0.6341 0.8235
C21 C 0.90986(14) 0.6625(3) 0.77105(8)
H13 H 0.9479 0.6572 0.7682
C22 C 0.63083(13) 0.5412(3) 0.83900(7)
C23 C 0.65512(13) 0.6308(3) 0.81266(7)
C24 C 0.71106(13) 0.6168(3) 0.80785(7)
H14 H 0.7329 0.5515 0.8204
C25 C 0.73566(13) 0.6971(3) 0.78483(7)
C26 C 0.70169(16) 0.7946(3) 0.76678(9)
H15 H 0.7170 0.8512 0.7514
C27 C 0.64586(17) 0.8084(4) 0.77141(10)
H16 H 0.6237 0.8732 0.7589
C28 C 0.62224(15) 0.7268(3) 0.79453(9)
H17 H 0.5845 0.7370 0.7977
C29 C 0.77422(14) 0.2953(3) 0.85345(9)
H18 H 0.7548 0.3271 0.8325
C30 C 0.83271(17) 0.2993(4) 0.85820(13)
H19 H 0.8523 0.3341 0.8409
C31 C 0.86129(17) 0.2509(5) 0.88896(14)
H20 H 0.9007 0.2525 0.8930
C32 C 0.83137(18) 0.2005(4) 0.91345(12)
H21 H 0.8500 0.1665 0.9344
C33 C 0.77335(15) 0.2002(3) 0.90692(9)
H22 H 0.7532 0.1650 0.9238
C34 C 0.41000(14) 0.4857(3) 0.84289(9)
H23 H 0.4038 0.4824 0.8662
C35 C 0.36366(17) 0.5014(4) 0.81696(12)
H24 H 0.3273 0.5093 0.8229
C36 C 0.3726(2) 0.5048(4) 0.78261(11)
H25 H 0.3425 0.5160 0.7647
C37 C 0.4255(2) 0.4919(4) 0.77541(10)
H26 H 0.4325 0.4925 0.7522
C38 C 0.46985(17) 0.4776(4) 0.80209(9)
H27 H 0.5063 0.4693 0.7963
C39 C 0.68134(16) -0.0374(3) 0.87181(9)
H28 H 0.7036 -0.0113 0.8550
C40 C 0.68241(19) -0.1692(4) 0.88192(10)
H29 H 0.7058 -0.2297 0.8725
C41 C 0.6491(2) -0.2096(4) 0.90562(12)
H30 H 0.6486 -0.2984 0.9125
C42 C 0.61605(18) -0.1171(4) 0.91929(11)
H31 H 0.5930 -0.1417 0.9358
C43 C 0.61755(15) 0.0115(3) 0.90829(9)
H32 H 0.5946 0.0731 0.9176
H41 H 0.5040(15) 0.739(3) 0.8765(9)
Co1D Co 0.465665(16) 0.53078(4) 1.122234(9)
Co2C Co 0.846866(16) 0.76021(4) 0.629935(9)
O3C O 0.65364(9) 0.2040(2) 0.81875(5)
O8D O 0.48222(9) 0.36896(19) 0.90908(5)
N4 N 0.49242(16) 0.7665(4) 0.95815(9)
C44 C 0.4667(2) 0.8820(4) 0.95888(11)
H33 H 0.4716 0.9436 0.9415
C45 C 0.4334(2) 0.9174(6) 0.98319(14)
H34 H 0.4157 1.0002 0.9826
C46 C 0.4271(2) 0.8249(7) 1.00897(13)
H35 H 0.4036 0.8434 1.0258
C47 C 0.4549(2) 0.7085(6) 1.00973(12)
H36 H 0.4527 0.6473 1.0276
C48 C 0.4859(2) 0.6829(5) 0.98391(13)
H37 H 0.5040 0.6008 0.9841
O11 O 0.47934(14) 0.9001(3) 0.86219(8)
C49 C 0.5069(3) 0.9077(6) 0.8317(2)
H38 H 0.4939 0.9853 0.8183
H39 H 0.4982 0.8295 0.8176
H40 H 0.5471 0.9134 0.8385
loop_
_geom_bond_atom_site_label_1
_geom_bond_atom_site_label_2
_geom_bond_site_symmetry_1
_geom_bond_site_symmetry_2
Co1 N2 1_555 1_555
Co2 N1 1_555 1_555
N1 C29 1_555 1_555
N2 C34 1_555 1_555
N3 Co2 1_555 1_555
N4 C44 1_555 1_555
O1 Co2 1_555 1_555
O2 Co1 1_555 1_555
O3 C15 1_555 1_555
O4 C15 1_555 1_555
O5 Co1 1_555 1_555
O6 Co2 1_555 1_555
O7 C14 1_555 1_555
O8 C14 1_555 1_555
O9 Co1 1_555 1_555
O10 Co1 1_555 1_555
H1 O10 1_555 1_555
C1 O1 1_555 1_555
C2 C1 1_555 1_555
C3 C2 1_555 1_555
H2 C3 1_555 1_555
C4 C3 1_555 1_555
H3 C4 1_555 1_555
C5 C4 1_555 1_555
H4 C5 1_555 1_555
C6 C5 1_555 1_555
C7 C2 1_555 1_555
H5 C7 1_555 1_555
C8 C6 1_555 1_555
C9 C8 1_555 1_555
H6 C9 1_555 1_555
C10 C9 1_555 1_555
H7 C10 1_555 1_555
C11 C10 1_555 1_555
H8 C11 1_555 1_555
C12 C11 1_555 1_555
C13 C8 1_555 1_555
H9 C13 1_555 1_555
C14 C12 1_555 1_555
C15 C16 1_555 1_555
C16 C17 1_555 1_555
C17 H10 1_555 1_555
C18 C17 1_555 1_555
C19 C18 1_555 1_555
H11 C19 1_555 1_555
C20 C19 1_555 1_555
H12 C20 1_555 1_555
C21 C16 1_555 1_555
H13 C21 1_555 1_555
C22 O5 1_555 1_555
C23 C22 1_555 1_555
C24 C23 1_555 1_555
H14 C24 1_555 1_555
C25 C18 1_555 1_555
C26 C25 1_555 1_555
H15 C26 1_555 1_555
C27 C26 1_555 1_555
H16 C27 1_555 1_555
C28 C23 1_555 1_555
H17 C28 1_555 1_555
C29 H18 1_555 1_555
C30 C29 1_555 1_555
H19 C30 1_555 1_555
C31 C30 1_555 1_555
H20 C31 1_555 1_555
C32 C31 1_555 1_555
H21 C32 1_555 1_555
C33 N1 1_555 1_555
H22 C33 1_555 1_555
C34 H23 1_555 1_555
C35 C34 1_555 1_555
H24 C35 1_555 1_555
C36 C35 1_555 1_555
H25 C36 1_555 1_555
C37 C36 1_555 1_555
H26 C37 1_555 1_555
C38 N2 1_555 1_555
H27 C38 1_555 1_555
C39 N3 1_555 1_555
H28 C39 1_555 1_555
C40 C39 1_555 1_555
H29 C40 1_555 1_555
C41 C40 1_555 1_555
H30 C41 1_555 1_555
C42 C41 1_555 1_555
H31 C42 1_555 1_555
C43 N3 1_555 1_555
H32 C43 1_555 1_555
C44 H33 1_555 1_555
C45 C44 1_555 1_555
H34 C45 1_555 1_555
C46 C45 1_555 1_555
H35 C46 1_555 1_555
C47 C46 1_555 1_555
H36 C47 1_555 1_555
C48 N4 1_555 1_555
H37 C48 1_555 1_555
O11 C49 1_555 1_555
C49 H38 1_555 1_555
H39 C49 1_555 1_555
H40 C49 1_555 1_555
H41 O10 1_555 1_555
Co1D O8 1_555 1_555
Co2C O3 1_555 1_555
O3C Co2 1_555 1_555
O8D Co1 1_555 1_555
Co2 O9 1_555 1_555
O2 C1 1_555 1_555
O6 C22 1_555 1_555
C6 C7 1_555 1_555
C12 C13 1_555 1_555
C20 C21 1_555 1_555
C24 C25 1_555 1_555
C27 C28 1_555 1_555
C32 C33 1_555 1_555
C37 C38 1_555 1_555
C42 C43 1_555 1_555
C47 C48 1_555 1_555

#END
