
#######################################################################
#
#                 Cambridge Crystallographic Data Centre
#                                CCDC 
#
#######################################################################
#
# If this CIF has been generated from an entry in the Cambridge 
# Structural Database, then it will include bibliographic, chemical, 
# crystal, experimental, refinement or atomic coordinate data resulting 
# from the CCDC's data processing and validation procedures.
#
#######################################################################

data_OWAXOA
_symmetry_cell_setting           monoclinic
_symmetry_space_group_name_H-M   'C 2/c'
_symmetry_Int_Tables_number      15
_space_group_name_Hall           '-C 2yn'
loop_
_symmetry_equiv_pos_site_id
_symmetry_equiv_pos_as_xyz
1 x,y,z
2 -x,y,1/2-z
3 1/2+x,1/2+y,z
4 1/2-x,1/2+y,1/2-z
5 -x,-y,-z
6 x,-y,1/2+z
7 1/2-x,1/2-y,-z
8 1/2+x,1/2-y,1/2+z
_cell_length_a                   24.1935(10)
_cell_length_b                   10.0971(4)
_cell_length_c                   38.731(3)
_cell_angle_alpha                90
_cell_angle_beta                 97.706(5)
_cell_angle_gamma                90
_cell_volume                     9375.93
loop_
_atom_site_label
_atom_site_type_symbol
_atom_site_fract_x
_atom_site_fract_y
_atom_site_fract_z
Mn1 Mn -0.465620(17) 0.52690(4) -0.121420(11)
Mn2 Mn -0.346460(18) 0.73877(4) -0.129770(11)
N1 N -0.54012(11) 0.5196(3) -0.16566(7)
N2 N -0.34863(11) 0.9562(2) -0.11434(7)
N3 N -0.25158(10) 0.7536(2) -0.12234(7)
O1 O -0.47991(8) 0.36505(19) 0.09119(5)
O2 O -0.48264(9) 0.1544(2) 0.10813(6)
O3 O -0.41787(9) 0.4385(2) -0.15819(6)
O4 O -0.33573(9) 0.5361(2) -0.14401(6)
O5 O -0.44044(9) 0.7278(2) -0.14023(6)
O6 O -0.49422(10) 0.3356(2) -0.10561(7)
H1 H -0.4934 0.2821 -0.1215
O7 O -0.34723(9) 0.68921(19) -0.07650(5)
O8 O -0.40477(8) 0.5165(2) -0.07492(5)
O9 O -0.15233(9) 0.2912(2) -0.31706(5)
O10 O -0.06288(9) 0.2921(3) -0.29529(6)
C1 C -0.46026(12) 0.2498(3) 0.09413(7)
C2 C -0.40584(12) 0.2251(3) 0.08015(7)
C3 C -0.37307(13) 0.1172(3) 0.09130(8)
H2 H -0.3854 0.0568 0.1067
C4 C -0.32220(13) 0.0989(3) 0.07970(9)
H3 H -0.3001 0.0269 0.0877
C5 C -0.30376(13) 0.1861(3) 0.05644(8)
H4 H -0.2695 0.1720 0.0486
C6 C -0.33606(12) 0.2954(3) 0.04451(7)
C7 C -0.38701(12) 0.3139(3) 0.05677(7)
H5 H -0.4089 0.3868 0.0492
C8 C -0.31496(12) 0.3940(3) 0.02051(7)
C9 C -0.26125(12) 0.4438(3) 0.02843(8)
H6 H -0.2384 0.4124 0.0479
C10 C -0.24139(13) 0.5395(3) 0.00772(8)
H7 H -0.2055 0.5728 0.0134
C11 C -0.27507(13) 0.5856(3) -0.02142(8)
H8 H -0.2619 0.6513 -0.0350
C12 C -0.32798(11) 0.5355(3) -0.03053(7)
C13 C -0.34784(12) 0.4399(3) -0.00946(7)
H9 H -0.3836 0.4061 -0.0154
C14 C -0.36735(13) 0.4544(3) -0.16100(8)
C15 C -0.34211(12) 0.3665(3) -0.18651(7)
C16 C -0.37330(14) 0.2672(3) -0.20412(9)
H10 H -0.4103 0.2548 -0.2008
C17 C -0.34909(15) 0.1859(3) -0.22673(10)
H11 H -0.3702 0.1195 -0.2388
C18 C -0.29420(14) 0.2026(3) -0.23145(9)
H12 H -0.2784 0.1466 -0.2465
C19 C -0.26194(12) 0.3020(3) -0.21401(8)
C20 C -0.28722(12) 0.3825(3) -0.19155(7)
H13 H -0.2664 0.4494 -0.1795
C21 C -0.20273(12) 0.3191(3) -0.21875(8)
C22 C -0.16195(14) 0.3437(3) -0.19079(8)
H14 H -0.1722 0.3550 -0.1687
C23 C -0.10652(14) 0.3516(3) -0.19525(8)
H15 H -0.0798 0.3671 -0.1761
C24 C -0.09016(13) 0.3369(3) -0.22778(8)
H16 H -0.0526 0.3408 -0.2304
C25 C -0.12994(12) 0.3162(3) -0.25647(7)
C26 C -0.18560(12) 0.3080(3) -0.25163(8)
H17 H -0.2124 0.2946 -0.2709
C27 C -0.11321(13) 0.2985(3) -0.29220(8)
C28 C -0.31645(16) 1.0458(3) -0.12661(9)
H18 H -0.2939 1.0190 -0.1430
C29 C -0.3145(2) 1.1761(4) -0.11648(12)
H19 H -0.2905 1.2354 -0.1253
C30 C -0.3484(2) 1.2165(4) -0.09337(14)
H20 H -0.3485 1.3047 -0.0864
C31 C -0.38231(19) 1.1273(5) -0.08043(12)
H21 H -0.4057 1.1527 -0.0644
C32 C -0.38097(15) 0.9992(4) -0.09160(10)
H22 H -0.4042 0.9383 -0.0827
C33 C -0.22246(14) 0.7080(3) -0.14630(10)
H23 H -0.2418 0.6781 -0.1672
C34 C -0.16489(18) 0.7021(4) -0.14200(15)
H24 H -0.1458 0.6673 -0.1592
C35 C -0.13723(18) 0.7494(5) -0.11155(17)
H25 H -0.0985 0.7481 -0.1078
C36 C -0.16623(19) 0.7989(4) -0.08650(14)
H26 H -0.1478 0.8314 -0.0656
C37 C -0.22321(15) 0.7992(3) -0.09302(10)
H27 H -0.2431 0.8331 -0.0761
C38 C -0.59250(15) 0.5144(3) -0.15898(10)
H28 H -0.5992 0.5210 -0.1360
C39 C -0.63789(16) 0.4993(4) -0.18491(14)
H29 H -0.6741 0.4951 -0.1794
C40 C -0.6275(2) 0.4909(4) -0.21892(13)
H30 H -0.6566 0.4800 -0.2369
C41 C -0.5746(2) 0.4985(5) -0.22572(11)
H31 H -0.5669 0.4936 -0.2486
C42 C -0.53216(16) 0.5136(4) -0.19896(10)
H32 H -0.4959 0.5199 -0.2043
C50 C -0.36283(12) 0.5837(3) -0.06309(7)
H43 H -0.4639(15) 0.768(3) -0.1318(10)
H45 H -0.4394(18) 0.753(4) -0.1641(13)
H46 H -0.4972(15) 0.311(4) -0.0861(10)
Mn1D Mn -0.534380(17) 0.47310(4) 0.121420(11)
Mn2C Mn -0.153540(18) 0.23877(4) -0.370230(11)
O1D O -0.52009(8) 0.63495(19) -0.09119(5)
O9C O -0.34767(9) 0.7912(2) -0.18294(5)
N4 N -0.50904(15) 0.2293(4) -0.04130(9)
C43 C -0.53498(19) 0.1150(4) -0.04110(11)
H33 H -0.5315 0.0547 -0.0588
C44 C -0.5669(2) 0.0814(6) -0.01585(15)
H34 H -0.5847 -0.0003 -0.0162
C45 C -0.5718(3) 0.1722(8) 0.01024(15)
H35 H -0.5945 0.1544 0.0273
C46 C -0.5433(2) 0.2866(7) 0.01065(14)
H36 H -0.5443 0.3471 0.0287
C47 C -0.51328(19) 0.3123(5) -0.01562(14)
H37 H -0.4946 0.3928 -0.0155
O11 O -0.52075(13) 0.0994(3) -0.13878(8)
C48 C -0.4861(4) 0.0671(9) -0.2083(3)
H38 H -0.4952 -0.0232 -0.2144
H39 H -0.4480 0.0842 -0.2112
H40 H -0.5101 0.1251 -0.2232
C49 C -0.4948(3) 0.0928(8) -0.1681(2)
H41 H -0.4632 0.0405 -0.1579
H42 H -0.4805 0.1827 -0.1668
H44 H -0.523(3) 0.013(4) -0.1281(18)
loop_
_geom_bond_atom_site_label_1
_geom_bond_atom_site_label_2
_geom_bond_site_symmetry_1
_geom_bond_site_symmetry_2
Mn1 N1 1_555 1_555
Mn2 N2 1_555 1_555
N1 C38 1_555 1_555
N2 C28 1_555 1_555
N3 Mn2 1_555 1_555
N4 C43 1_555 1_555
O1 C1 1_555 1_555
O2 C1 1_555 1_555
O3 Mn1 1_555 1_555
O4 Mn2 1_555 1_555
O5 Mn1 1_555 1_555
O6 Mn1 1_555 1_555
H1 O6 1_555 1_555
O7 Mn2 1_555 1_555
O8 Mn1 1_555 1_555
O9 C27 1_555 1_555
O10 C27 1_555 1_555
O11 C49 1_555 1_555
C1 C2 1_555 1_555
C2 C3 1_555 1_555
C3 H2 1_555 1_555
C4 C3 1_555 1_555
H3 C4 1_555 1_555
C5 C4 1_555 1_555
H4 C5 1_555 1_555
C6 C5 1_555 1_555
C7 C2 1_555 1_555
H5 C7 1_555 1_555
C8 C6 1_555 1_555
C9 C8 1_555 1_555
H6 C9 1_555 1_555
C10 C9 1_555 1_555
H7 C10 1_555 1_555
C11 C10 1_555 1_555
H8 C11 1_555 1_555
C12 C11 1_555 1_555
C13 C8 1_555 1_555
H9 C13 1_555 1_555
C14 O3 1_555 1_555
C15 C14 1_555 1_555
C16 C15 1_555 1_555
H10 C16 1_555 1_555
C17 C16 1_555 1_555
H11 C17 1_555 1_555
C18 C17 1_555 1_555
H12 C18 1_555 1_555
C19 C18 1_555 1_555
C20 C15 1_555 1_555
H13 C20 1_555 1_555
C21 C19 1_555 1_555
C22 C21 1_555 1_555
H14 C22 1_555 1_555
C23 C22 1_555 1_555
H15 C23 1_555 1_555
C24 C23 1_555 1_555
H16 C24 1_555 1_555
C25 C24 1_555 1_555
C26 C21 1_555 1_555
H17 C26 1_555 1_555
C27 C25 1_555 1_555
C28 H18 1_555 1_555
C29 C28 1_555 1_555
H19 C29 1_555 1_555
C30 C29 1_555 1_555
H20 C30 1_555 1_555
C31 C30 1_555 1_555
H21 C31 1_555 1_555
C32 N2 1_555 1_555
H22 C32 1_555 1_555
C33 N3 1_555 1_555
H23 C33 1_555 1_555
C34 C33 1_555 1_555
H24 C34 1_555 1_555
C35 C34 1_555 1_555
H25 C35 1_555 1_555
C36 C35 1_555 1_555
H26 C36 1_555 1_555
C37 N3 1_555 1_555
H27 C37 1_555 1_555
C38 H28 1_555 1_555
C39 C38 1_555 1_555
H29 C39 1_555 1_555
C40 C39 1_555 1_555
H30 C40 1_555 1_555
C41 C40 1_555 1_555
H31 C41 1_555 1_555
C42 N1 1_555 1_555
H32 C42 1_555 1_555
C43 H33 1_555 1_555
C44 C43 1_555 1_555
H34 C44 1_555 1_555
C45 C44 1_555 1_555
H35 C45 1_555 1_555
C46 C45 1_555 1_555
H36 C46 1_555 1_555
C47 N4 1_555 1_555
H37 C47 1_555 1_555
C48 H38 1_555 1_555
H39 C48 1_555 1_555
H40 C48 1_555 1_555
C49 C48 1_555 1_555
H41 C49 1_555 1_555
H42 C49 1_555 1_555
C50 O7 1_555 1_555
H43 O5 1_555 1_555
H44 O11 1_555 1_555
H45 O5 1_555 1_555
H46 O6 1_555 1_555
Mn1D O1 1_555 1_555
Mn2C O9 1_555 1_555
O1D Mn1 1_555 1_555
O9C Mn2 1_555 1_555
Mn2 O5 1_555 1_555
O4 C14 1_555 1_555
O8 C50 1_555 1_555
C6 C7 1_555 1_555
C12 C13 1_555 1_555
C12 C50 1_555 1_555
C19 C20 1_555 1_555
C25 C26 1_555 1_555
C31 C32 1_555 1_555
C36 C37 1_555 1_555
C41 C42 1_555 1_555
C46 C47 1_555 1_555

#END
