
#######################################################################
#
#                 Cambridge Crystallographic Data Centre
#                                CCDC 
#
#######################################################################
#
# If this CIF has been generated from an entry in the Cambridge 
# Structural Database, then it will include bibliographic, chemical, 
# crystal, experimental, refinement or atomic coordinate data resulting 
# from the CCDC's data processing and validation procedures.
#
#######################################################################

data_OWAXUG
_symmetry_cell_setting           monoclinic
_symmetry_space_group_name_H-M   'C 2/c'
_symmetry_Int_Tables_number      15
_space_group_name_Hall           '-C 2yn'
loop_
_symmetry_equiv_pos_site_id
_symmetry_equiv_pos_as_xyz
1 x,y,z
2 -x,y,1/2-z
3 1/2+x,1/2+y,z
4 1/2-x,1/2+y,1/2-z
5 -x,-y,-z
6 x,-y,1/2+z
7 1/2-x,1/2-y,-z
8 1/2+x,1/2-y,1/2+z
_cell_length_a                   24.524(7)
_cell_length_b                   10.780(3)
_cell_length_c                   37.278(11)
_cell_angle_alpha                90
_cell_angle_beta                 95.644(5)
_cell_angle_gamma                90
_cell_volume                     9807.36
loop_
_atom_site_label
_atom_site_type_symbol
_atom_site_fract_x
_atom_site_fract_y
_atom_site_fract_z
Mn1 Mn 0.467801(15) 0.05395(3) 0.116850(9)
Mn2 Mn 0.353984(15) 0.25855(4) 0.128236(9)
N1 N 0.36201(9) 0.4559(2) 0.10652(6)
N2 N 0.26122(9) 0.2749(2) 0.12153(6)
N3 N 0.49873(9) -0.1283(2) 0.09477(6)
N4 N 0.54213(9) 0.0430(2) 0.16124(6)
O1 O 0.40578(7) 0.03336(17) 0.07137(5)
O2 O 0.35169(7) 0.19921(16) 0.07343(4)
O3 O 0.34284(8) 0.07276(19) 0.14629(6)
O4 O 0.42003(7) -0.03587(18) 0.15431(5)
O5 O 0.14712(8) -0.1770(2) 0.31797(5)
O6 O 0.06105(9) -0.1929(3) 0.29470(5)
O7 O 0.48049(7) -0.15767(16) -0.08432(4)
O8 O 0.47872(8) -0.35206(17) -0.10502(5)
O9 O 0.44535(8) 0.24130(18) 0.13841(5)
C1 C 0.36494(10) 0.0966(2) 0.06073(6)
C2 C 0.32701(10) 0.0457(2) 0.02954(6)
C3 C 0.27427(11) 0.0914(2) 0.02284(7)
H1 H 0.2623 0.1573 0.0370
C4 C 0.23891(11) 0.0410(3) -0.00458(7)
H2 H 0.2025 0.0716 -0.0089
C5 C 0.25634(10) -0.0537(3) -0.02566(7)
H3 H 0.2315 -0.0884 -0.0441
C6 C 0.30965(10) -0.0991(2) -0.02024(6)
C7 C 0.34435(10) -0.0487(2) 0.00803(6)
H4 H 0.3806 -0.0797 0.0126
C8 C 0.32927(10) -0.1964(2) -0.04395(6)
C9 C 0.29712(11) -0.2981(3) -0.05551(7)
H5 H 0.2610 -0.3051 -0.0486
C10 C 0.31730(12) -0.3893(3) -0.07693(7)
H6 H 0.2948 -0.4580 -0.0846
C11 C 0.36985(11) -0.3811(2) -0.08719(6)
H7 H 0.3837 -0.4448 -0.1014
C12 C 0.40249(10) -0.2791(2) -0.07666(6)
C13 C 0.38176(10) -0.1886(2) -0.05532(6)
H8 H 0.4040 -0.1189 -0.0482
C14 C 0.45834(10) -0.2627(2) -0.08967(6)
C15 C 0.37129(11) -0.0146(3) 0.15984(7)
C16 C 0.34458(11) -0.1017(2) 0.18443(6)
C17 C 0.37415(12) -0.1972(3) 0.20215(7)
H9 H 0.4117 -0.2085 0.1987
C18 C 0.34900(13) -0.2760(3) 0.22474(8)
H10 H 0.3694 -0.3409 0.2369
C19 C 0.29429(12) -0.2607(3) 0.22965(7)
H11 H 0.2775 -0.3152 0.2453
C20 C 0.26348(11) -0.1671(2) 0.21205(6)
C21 C 0.28954(11) -0.0884(2) 0.18941(6)
H12 H 0.2690 -0.0239 0.1771
C22 C 0.20393(11) -0.1546(2) 0.21656(6)
C23 C 0.16565(12) -0.1380(3) 0.18688(7)
H13 H 0.1777 -0.1281 0.1636
C24 C 0.11012(12) -0.1356(3) 0.19089(7)
H14 H 0.0844 -0.1249 0.1703
C25 C 0.09189(12) -0.1488(3) 0.22463(7)
H15 H 0.0537 -0.1485 0.2272
C26 C 0.12940(11) -0.1623(3) 0.25477(6)
C27 C 0.18493(11) -0.1646(3) 0.25050(6)
H16 H 0.2106 -0.1731 0.2712
C28 C 0.11069(12) -0.1783(3) 0.29198(7)
C29 C 0.38100(11) 0.4754(3) 0.07459(7)
H17 H 0.3932 0.4053 0.0622
C30 C 0.38427(12) 0.5907(3) 0.05826(8)
C31 C 0.36814(15) 0.6910(3) 0.07715(10)
H18 H 0.3706 0.7721 0.0675
C32 C 0.34848(16) 0.6747(3) 0.10999(11)
H19 H 0.3368 0.7440 0.1230
C33 C 0.34579(14) 0.5555(3) 0.12416(9)
H20 H 0.3321 0.5446 0.1469
C34 C 0.40425(16) 0.6019(4) 0.02155(9)
H21 H 0.3744 0.5811 0.0031
H22 H 0.4350 0.5448 0.0197
H23 H 0.4164 0.6872 0.0179
C35 C 0.23612(12) 0.3226(3) 0.09133(7)
H24 H 0.2578 0.3521 0.0734
C36 C 0.18016(13) 0.3309(3) 0.08512(8)
H25 H 0.1634 0.3652 0.0633
C37 C 0.14895(12) 0.2884(3) 0.11121(9)
H26 H 0.1101 0.2936 0.1075
C38 C 0.17356(11) 0.2380(3) 0.14292(8)
C39 C 0.23011(11) 0.2339(3) 0.14651(7)
H27 H 0.2480 0.1997 0.1680
C40 C 0.14094(14) 0.1946(4) 0.17270(10)
H28 H 0.1646 0.1462 0.1902
H29 H 0.1104 0.1427 0.1625
H30 H 0.1265 0.2666 0.1847
C41 C 0.49799(11) -0.2347(3) 0.11308(8)
H31 H 0.4862 -0.2337 0.1366
C42 C 0.51376(12) -0.3464(3) 0.09895(10)
H32 H 0.5132 -0.4208 0.1126
C43 C 0.53032(13) -0.3472(3) 0.06465(10)
H33 H 0.5411 -0.4231 0.0545
C44 C 0.53145(13) -0.2387(3) 0.04495(9)
C45 C 0.51488(11) -0.1323(3) 0.06139(8)
H34 H 0.5149 -0.0569 0.0482
C46 C 0.54948(19) -0.2351(4) 0.00718(10)
H35 H 0.5887 -0.2542 0.0082
H36 H 0.5428 -0.1522 -0.0031
H37 H 0.5287 -0.2965 -0.0079
C47 C 0.53474(14) 0.0324(3) 0.19613(8)
H38 H 0.4984 0.0295 0.2029
C48 C 0.57795(19) 0.0255(4) 0.22263(10)
H39 H 0.5713 0.0177 0.2472
C49 C 0.63018(18) 0.0298(4) 0.21335(11)
H40 H 0.6602 0.0240 0.2314
C50 C 0.63960(13) 0.0426(3) 0.17773(10)
C51 C 0.59388(12) 0.0478(3) 0.15280(8)
H41 H 0.5996 0.0553 0.1281
C52 C 0.69639(13) 0.0523(4) 0.16554(13)
H42 H 0.7097 0.1377 0.1687
H43 H 0.6952 0.0293 0.1400
H44 H 0.7212 -0.0039 0.1799
H48 H 0.4468(15) 0.264(3) 0.1623(11)
H49 H 0.4656(15) 0.286(3) 0.1284(10)
Mn1D Mn 0.532199(15) -0.05395(3) -0.116850(9)
Mn2C Mn 0.146016(15) -0.24145(4) 0.371764(9)
O5C O 0.35288(8) 0.3230(2) 0.18203(5)
O7D O 0.51951(7) 0.15767(16) 0.08432(4)
C53 C 0.4842(4) 0.5805(9) 0.1904(2)
H45 H 0.4455 0.5902 0.1816
H46 H 0.4961 0.4959 0.1855
H47 H 0.5063 0.6400 0.1782
O10 O 0.4901(7) 0.5995(15) 0.2230(3)
H50 H 0.512(2) 0.657(5) 0.2263(9)
loop_
_geom_bond_atom_site_label_1
_geom_bond_atom_site_label_2
_geom_bond_site_symmetry_1
_geom_bond_site_symmetry_2
Mn1 N3 1_555 1_555
Mn2 N1 1_555 1_555
N1 C29 1_555 1_555
N2 Mn2 1_555 1_555
N3 C41 1_555 1_555
N4 Mn1 1_555 1_555
O1 Mn1 1_555 1_555
O2 Mn2 1_555 1_555
O3 Mn2 1_555 1_555
O4 Mn1 1_555 1_555
O5 C28 1_555 1_555
O6 C28 1_555 1_555
O7 C14 1_555 1_555
O8 C14 1_555 1_555
O9 Mn1 1_555 1_555
C1 O1 1_555 1_555
C2 C1 1_555 1_555
C3 C2 1_555 1_555
H1 C3 1_555 1_555
C4 C3 1_555 1_555
H2 C4 1_555 1_555
C5 C4 1_555 1_555
H3 C5 1_555 1_555
C6 C5 1_555 1_555
C7 C2 1_555 1_555
H4 C7 1_555 1_555
C8 C6 1_555 1_555
C9 C8 1_555 1_555
H5 C9 1_555 1_555
C10 C9 1_555 1_555
H6 C10 1_555 1_555
C11 C10 1_555 1_555
H7 C11 1_555 1_555
C12 C11 1_555 1_555
C13 C8 1_555 1_555
H8 C13 1_555 1_555
C14 C12 1_555 1_555
C15 O3 1_555 1_555
C16 C15 1_555 1_555
C17 C16 1_555 1_555
H9 C17 1_555 1_555
C18 C17 1_555 1_555
H10 C18 1_555 1_555
C19 C18 1_555 1_555
H11 C19 1_555 1_555
C20 C19 1_555 1_555
C21 C16 1_555 1_555
H12 C21 1_555 1_555
C22 C20 1_555 1_555
C23 C22 1_555 1_555
H13 C23 1_555 1_555
C24 C23 1_555 1_555
H14 C24 1_555 1_555
C25 C24 1_555 1_555
H15 C25 1_555 1_555
C26 C25 1_555 1_555
C27 C22 1_555 1_555
H16 C27 1_555 1_555
C28 C26 1_555 1_555
C29 H17 1_555 1_555
C30 C29 1_555 1_555
C31 C30 1_555 1_555
H18 C31 1_555 1_555
C32 C31 1_555 1_555
H19 C32 1_555 1_555
C33 N1 1_555 1_555
H20 C33 1_555 1_555
C34 C30 1_555 1_555
H21 C34 1_555 1_555
H22 C34 1_555 1_555
H23 C34 1_555 1_555
C35 N2 1_555 1_555
H24 C35 1_555 1_555
C36 C35 1_555 1_555
H25 C36 1_555 1_555
C37 C36 1_555 1_555
H26 C37 1_555 1_555
C38 C37 1_555 1_555
C39 N2 1_555 1_555
H27 C39 1_555 1_555
C40 C38 1_555 1_555
H28 C40 1_555 1_555
H29 C40 1_555 1_555
H30 C40 1_555 1_555
C41 H31 1_555 1_555
C42 C41 1_555 1_555
H32 C42 1_555 1_555
C43 C42 1_555 1_555
H33 C43 1_555 1_555
C44 C43 1_555 1_555
C45 N3 1_555 1_555
H34 C45 1_555 1_555
C46 C44 1_555 1_555
H35 C46 1_555 1_555
H36 C46 1_555 1_555
H37 C46 1_555 1_555
C47 N4 1_555 1_555
H38 C47 1_555 1_555
C48 C47 1_555 1_555
H39 C48 1_555 1_555
C49 C48 1_555 1_555
H40 C49 1_555 1_555
C50 C49 1_555 1_555
C51 N4 1_555 1_555
H41 C51 1_555 1_555
C52 C50 1_555 1_555
H42 C52 1_555 1_555
H43 C52 1_555 1_555
H44 C52 1_555 1_555
C53 H45 1_555 1_555
H46 C53 1_555 1_555
H47 C53 1_555 1_555
H48 O9 1_555 1_555
H49 O9 1_555 1_555
O10 C53 1_555 1_555
H50 O10 1_555 1_555
Mn1D O7 1_555 1_555
Mn2C O5 1_555 1_555
O5C Mn2 1_555 1_555
O7D Mn1 1_555 1_555
Mn2 O9 1_555 1_555
O2 C1 1_555 1_555
O4 C15 1_555 1_555
C6 C7 1_555 1_555
C12 C13 1_555 1_555
C20 C21 1_555 1_555
C26 C27 1_555 1_555
C32 C33 1_555 1_555
C38 C39 1_555 1_555
C44 C45 1_555 1_555
C50 C51 1_555 1_555

#END
