
#######################################################################
#
#                 Cambridge Crystallographic Data Centre
#                                CCDC 
#
#######################################################################
#
# If this CIF has been generated from an entry in the Cambridge 
# Structural Database, then it will include bibliographic, chemical, 
# crystal, experimental, refinement or atomic coordinate data resulting 
# from the CCDC's data processing and validation procedures.
#
#######################################################################

data_OWAZUI
_symmetry_cell_setting           monoclinic
_symmetry_space_group_name_H-M   'C 2/c'
_symmetry_Int_Tables_number      15
_space_group_name_Hall           '-C 2yn'
loop_
_symmetry_equiv_pos_site_id
_symmetry_equiv_pos_as_xyz
1 x,y,z
2 -x,y,1/2-z
3 1/2+x,1/2+y,z
4 1/2-x,1/2+y,1/2-z
5 -x,-y,-z
6 x,-y,1/2+z
7 1/2-x,1/2-y,-z
8 1/2+x,1/2-y,1/2+z
_cell_length_a                   10.398(5)
_cell_length_b                   35.826(5)
_cell_length_c                   13.418(5)
_cell_angle_alpha                90
_cell_angle_beta                 108.416(5)
_cell_angle_gamma                90
_cell_volume                     4742.47
loop_
_atom_site_label
_atom_site_type_symbol
_atom_site_fract_x
_atom_site_fract_y
_atom_site_fract_z
Cu1 Cu 0.5000 0.0000 0.5000
C1 C 0.4499(3) 0.07797(9) 0.5508(3)
H1 H 0.5164 0.0723 0.6138
C2 C 0.4034(3) 0.11489(9) 0.5336(3)
H2 H 0.4400 0.1333 0.5835
C3 C 0.3035(3) 0.12346(8) 0.4425(2)
C4 C 0.2495(3) 0.09453(9) 0.3718(2)
H3 H 0.1777 0.0991 0.3110
C5 C 0.3047(3) 0.05851(9) 0.3936(2)
H4 H 0.2703 0.0397 0.3446
C6 C 0.2522(3) 0.16284(9) 0.4187(2)
C7 C 0.2372(3) 0.22413(9) 0.3767(2)
C8 C 0.1223(3) 0.21385(9) 0.3989(2)
C9 C 0.0237(3) 0.24037(10) 0.3984(3)
H5 H -0.0548 0.2338 0.4133
C10 C 0.0476(3) 0.27751(10) 0.3746(2)
H6 H -0.0163 0.2957 0.3743
C11 C 0.1629(3) 0.28754(10) 0.3516(2)
H7 H 0.1751 0.3123 0.3356
C12 C 0.2604(3) 0.26155(9) 0.3522(2)
H8 H 0.3387 0.2682 0.3371
C13 C 0.4472(3) 0.18962(9) 0.3729(2)
H9 H 0.4961 0.1677 0.4077
H10 H 0.4998 0.2115 0.4036
C14 C 0.4320(3) 0.18795(9) 0.2584(2)
H11 H 0.3799 0.2093 0.2230
H12 H 0.3829 0.1655 0.2283
N1 N 0.4030(2) 0.05004(7) 0.48021(19)
N2 N 0.1350(3) 0.17555(8) 0.4238(2)
N3 N 0.3169(2) 0.19124(7) 0.39012(18)
O14 O 0.5320(3) 0.00666(8) 0.36741(18)
H13 H 0.609(2) -0.0009(11) 0.368(4)
H14 H 0.522(4) 0.0280(6) 0.338(3)
H17 H 0.083(4) 0.1620(10) 0.446(3)
Cu1A Cu 0.5000 0.0000 0.0000
C1A C 0.5501(3) 0.07797(9) -0.0508(3)
H1A H 0.4836 0.0723 -0.1138
C2A C 0.5966(3) 0.11489(9) -0.0336(3)
H2A H 0.5600 0.1333 -0.0835
C3A C 0.6965(3) 0.12346(8) 0.0575(2)
C4A C 0.7505(3) 0.09453(9) 0.1282(2)
H3A H 0.8223 0.0991 0.1890
C5A C 0.6953(3) 0.05851(9) 0.1064(2)
H4A H 0.7297 0.0397 0.1554
C6A C 0.7478(3) 0.16284(9) 0.0813(2)
C7A C 0.7628(3) 0.22413(9) 0.1233(2)
C8A C 0.8777(3) 0.21385(9) 0.1011(2)
C9A C 0.9763(3) 0.24037(10) 0.1016(3)
H5A H 1.0548 0.2338 0.0867
C10A C 0.9524(3) 0.27751(10) 0.1254(2)
H6A H 1.0163 0.2957 0.1257
C11A C 0.8371(3) 0.28754(10) 0.1484(2)
H7A H 0.8249 0.3123 0.1644
C12A C 0.7396(3) 0.26155(9) 0.1478(2)
H8A H 0.6613 0.2682 0.1629
C13A C 0.5528(3) 0.18962(9) 0.1271(2)
H9A H 0.5039 0.1677 0.0923
H10A H 0.5002 0.2115 0.0964
C14A C 0.5680(3) 0.18795(9) 0.2416(2)
H11A H 0.6201 0.2093 0.2770
H12A H 0.6171 0.1655 0.2717
N1A N 0.5970(2) 0.05004(7) 0.01979(19)
N1D N 0.5970(2) -0.05004(7) 0.51979(19)
N2A N 0.8650(3) 0.17555(8) 0.0762(2)
N3A N 0.6831(2) 0.19124(7) 0.10988(18)
O14D O 0.4680(3) -0.00666(8) 0.63259(18)
H13D H 0.391(2) 0.0009(11) 0.632(4)
H14D H 0.478(4) -0.0280(6) 0.662(3)
H17A H 0.917(4) 0.1620(10) 0.054(3)
Mo1 Mo 0.87555(2) 0.041620(7) 0.633349(19)
Mo2 Mo 0.87961(3) 0.108701(8) 0.46800(2)
Mo3 Mo 0.87100(2) 0.174826(8) 0.63402(2)
Mo4 Mo 0.85787(2) 0.108747(7) 0.795218(18)
O1 O 0.7050(2) 0.03775(6) 0.59107(16)
O2 O 0.9282(2) -0.00413(6) 0.64342(18)
O3 O 0.9105(2) 0.05644(6) 0.51027(15)
O4 O 0.89705(18) 0.05476(5) 0.78131(15)
O5 O 0.90090(19) 0.10798(5) 0.65098(15)
O6 O 0.7097(2) 0.10846(7) 0.4196(2)
O7 O 0.9330(3) 0.11072(8) 0.36267(18)
O8 O 0.9128(2) 0.16091(6) 0.51210(16)
O9 O 0.9067(2) 0.22221(7) 0.64139(19)
O10 O 0.7024(2) 0.17180(7) 0.59166(18)
O11 O 0.89970(19) 0.16229(6) 0.78257(15)
O12 O 1.1046(2) 0.10910(6) 0.57026(15)
O13 O 0.6891(2) 0.10935(6) 0.74899(17)
Mo1A Mo 1.12445(2) 0.041620(7) 0.866651(19)
Mo2A Mo 1.12039(3) 0.108701(8) 1.03200(2)
Mo3A Mo 1.12900(2) 0.174826(8) 0.86598(2)
Mo4A Mo 1.14213(2) 0.108747(7) 0.704782(18)
O1A O 1.2950(2) 0.03775(6) 0.90893(16)
O2A O 1.0718(2) -0.00413(6) 0.85658(18)
O3A O 1.0895(2) 0.05644(6) 0.98973(15)
O4A O 1.10295(18) 0.05476(5) 0.71869(15)
O5A O 1.09910(19) 0.10798(5) 0.84902(15)
O6A O 1.2903(2) 0.10846(7) 1.0804(2)
O7A O 1.0670(3) 0.11072(8) 1.13733(18)
O8A O 1.0872(2) 0.16091(6) 0.98790(16)
O9A O 1.0933(2) 0.22221(7) 0.85861(19)
O10A O 1.2976(2) 0.17180(7) 0.90834(18)
O11A O 1.10030(19) 0.16229(6) 0.71743(15)
O12A O 0.8954(2) 0.10910(6) 0.92974(15)
O13A O 1.3109(2) 0.10935(6) 0.75101(17)
O15 O 0.5000 0.07487(11) 0.2500
H16 H 0.567(4) 0.0894(13) 0.270(5)
H16A H 0.433(4) 0.0894(13) 0.230(5)
O16 O 0.7693(3) 0.00419(9) 0.3520(2)
H15 H 0.825(3) 0.0196(9) 0.391(3)
H18 H 0.816(3) -0.0154(5) 0.353(5)
loop_
_geom_bond_atom_site_label_1
_geom_bond_atom_site_label_2
_geom_bond_site_symmetry_1
_geom_bond_site_symmetry_2
Cu1 N1 1_555 1_555
Mo1 O1 1_555 1_555
Mo2 O3 1_555 1_555
Mo3 O5 1_555 1_555
Mo4 O4 1_555 1_555
C1 H1 1_555 1_555
C2 C1 1_555 1_555
H2 C2 1_555 1_555
C3 C2 1_555 1_555
C4 C3 1_555 1_555
H3 C4 1_555 1_555
C5 C4 1_555 1_555
H4 C5 1_555 1_555
C6 C3 1_555 1_555
C7 C8 1_555 1_555
C8 C9 1_555 1_555
C9 H5 1_555 1_555
C10 C9 1_555 1_555
H6 C10 1_555 1_555
C11 C10 1_555 1_555
H7 C11 1_555 1_555
C12 C7 1_555 1_555
H8 C12 1_555 1_555
C13 H9 1_555 1_555
H10 C13 1_555 1_555
C14 C13 1_555 1_555
H11 C14 1_555 1_555
H12 C14 1_555 1_555
N1 C1 1_555 1_555
N2 C6 1_555 1_555
N3 C6 1_555 1_555
O2 Mo1 1_555 1_555
O3 Mo1 1_555 1_555
O4 Mo1 1_555 1_555
O5 Mo1 1_555 1_555
O6 Mo2 1_555 1_555
O7 Mo2 1_555 1_555
O8 Mo2 1_555 1_555
O9 Mo3 1_555 1_555
O10 Mo3 1_555 1_555
O11 Mo3 1_555 1_555
O12 Mo2 1_555 1_555
O13 Mo4 1_555 1_555
O14 Cu1 1_555 1_555
O15 H16 1_555 1_555
O16 H15 1_555 1_555
H13 O14 1_555 1_555
H14 O14 1_555 1_555
H17 N2 1_555 1_555
H18 O16 1_555 1_555
Cu1A N1A 1_555 1_555
Mo1A O4 1_555 1_555
Mo2A O3A 1_555 1_555
Mo3A O11 1_555 1_555
Mo4A O5 1_555 1_555
C1A H1A 1_555 1_555
C2A C1A 1_555 1_555
H2A C2A 1_555 1_555
C3A C2A 1_555 1_555
C4A C3A 1_555 1_555
H3A C4A 1_555 1_555
C5A C4A 1_555 1_555
H4A C5A 1_555 1_555
C6A C3A 1_555 1_555
C7A C8A 1_555 1_555
C8A C9A 1_555 1_555
C9A H5A 1_555 1_555
C10A C9A 1_555 1_555
H6A C10A 1_555 1_555
C11A C10A 1_555 1_555
H7A C11A 1_555 1_555
C12A C7A 1_555 1_555
H8A C12A 1_555 1_555
C13A H9A 1_555 1_555
H10A C13A 1_555 1_555
C14A C14 1_555 1_555
H11A C14A 1_555 1_555
H12A C14A 1_555 1_555
N1A C1A 1_555 1_555
N1D Cu1 1_555 1_555
N2A C6A 1_555 1_555
N3A C6A 1_555 1_555
O1A Mo1A 1_555 1_555
O2A Mo1A 1_555 1_555
O3A Mo1A 1_555 1_555
O4A Mo1 1_555 1_555
O5A Mo4 1_555 1_555
O6A Mo2A 1_555 1_555
O7A Mo2A 1_555 1_555
O8A Mo2A 1_555 1_555
O9A Mo3A 1_555 1_555
O10A Mo3A 1_555 1_555
O11A Mo3 1_555 1_555
O12A Mo4 1_555 1_555
O13A Mo4A 1_555 1_555
O14D Cu1 1_555 1_555
H13D O14D 1_555 1_555
H14D O14D 1_555 1_555
H16A O15 1_555 1_555
H17A N2A 1_555 1_555
Mo2 O5 1_555 1_555
Mo3 O8 1_555 1_555
Mo4 O5 1_555 1_555
Mo4 O11 1_555 1_555
C5 N1 1_555 1_555
C7 N3 1_555 1_555
C8 N2 1_555 1_555
C11 C12 1_555 1_555
C13 N3 1_555 1_555
O12 Mo4A 1_555 1_555
Mo1A O4A 1_555 1_555
Mo1A O5A 1_555 1_555
Mo2A O5A 1_555 1_555
Mo2A O12A 1_555 1_555
Mo3A O5A 1_555 1_555
Mo3A O8A 1_555 1_555
Mo3A O11A 1_555 1_555
Mo4A O4A 1_555 1_555
Mo4A O5A 1_555 1_555
Mo4A O11A 1_555 1_555
C5A N1A 1_555 1_555
C7A N3A 1_555 1_555
C8A N2A 1_555 1_555
C11A C12A 1_555 1_555
C13A C14A 1_555 1_555
C13A N3A 1_555 1_555

#END
