
#######################################################################
#
#                 Cambridge Crystallographic Data Centre
#                                CCDC 
#
#######################################################################
#
# If this CIF has been generated from an entry in the Cambridge 
# Structural Database, then it will include bibliographic, chemical, 
# crystal, experimental, refinement or atomic coordinate data resulting 
# from the CCDC's data processing and validation procedures.
#
#######################################################################

data_OWAZAO
_symmetry_cell_setting           triclinic
_symmetry_space_group_name_H-M   'P -1'
_symmetry_Int_Tables_number      2
_space_group_name_Hall           '-P 1'
loop_
_symmetry_equiv_pos_site_id
_symmetry_equiv_pos_as_xyz
1 x,y,z
2 -x,-y,-z
_cell_length_a                   10.6371(12)
_cell_length_b                   10.8361(13)
_cell_length_c                   13.2326(15)
_cell_angle_alpha                85.7590(10)
_cell_angle_beta                 66.9920(10)
_cell_angle_gamma                62.2360(10)
_cell_volume                     1231.3
loop_
_atom_site_label
_atom_site_type_symbol
_atom_site_fract_x
_atom_site_fract_y
_atom_site_fract_z
Cd1 Cd 0.50839(2) 0.81934(2) -0.119492(16)
N1 N 0.7472(3) 0.7267(3) -0.1097(2)
N2 N 0.9924(3) 0.6910(3) 0.1425(2)
H1 H 1.0885 0.6515 0.0970
N3 N 0.7351(3) 0.7914(3) 0.2044(2)
O1 O 0.5377(3) 0.9982(2) -0.20310(19)
O2 O 0.2446(3) 0.9191(3) -0.02056(18)
O3 O 0.3781(2) 0.8964(3) 0.07590(18)
O4 O -0.3128(3) 1.1752(3) 0.4530(2)
O5 O -0.4767(3) 1.5938(2) 0.85256(17)
O6 O -0.4228(3) 1.7082(3) 0.71402(19)
C1 C 0.8836(4) 0.6626(4) -0.1972(3)
H2 H 0.8842 0.6500 -0.2662
C2 C 1.0219(4) 0.6150(4) -0.1880(3)
H3 H 1.1147 0.5671 -0.2496
C3 C 1.0240(4) 0.6378(4) -0.0879(3)
H4 H 1.1177 0.6084 -0.0818
C4 C 0.8824(3) 0.7061(3) 0.0050(3)
C5 C 0.7499(4) 0.7447(3) -0.0126(3)
H5 H 0.6552 0.7867 0.0484
C6 C 0.8693(3) 0.7315(3) 0.1163(3)
C7 C 0.7766(4) 0.7863(3) 0.2936(3)
C8 C 0.6831(5) 0.8324(4) 0.4054(3)
H6 H 0.5755 0.8753 0.4315
C9 C 0.7551(5) 0.8124(5) 0.4765(3)
H7 H 0.6953 0.8410 0.5520
C10 C 0.9182(5) 0.7491(5) 0.4362(4)
H8 H 0.9638 0.7366 0.4861
C11 C 1.0107(5) 0.7058(5) 0.3267(4)
H9 H 1.1181 0.6659 0.3004
C12 C 0.9365(4) 0.7242(3) 0.2552(3)
C13 C 0.2492(3) 0.9331(3) 0.0703(2)
C14 C 0.1019(3) 0.9962(3) 0.1729(2)
C15 C -0.0371(4) 1.0335(3) 0.1671(3)
H10 H -0.0386 1.0174 0.0996
C16 C -0.1760(4) 1.0950(3) 0.2609(3)
H11 H -0.2699 1.1200 0.2564
C17 C -0.1725(4) 1.1179(3) 0.3594(3)
C18 C -0.0349(4) 1.0808(4) 0.3686(3)
H12 H -0.0342 1.0972 0.4364
C19 C 0.1027(4) 1.0185(3) 0.2742(3)
H13 H 0.1966 0.9914 0.2792
C20 C -0.3402(4) 1.2806(3) 0.5241(3)
C21 C -0.3104(5) 1.3902(4) 0.4857(3)
H14 H -0.2676 1.3930 0.4100
C22 C -0.3440(5) 1.4949(4) 0.5592(3)
H15 H -0.3237 1.5686 0.5330
C23 C -0.4079(3) 1.4920(3) 0.6719(2)
C24 C -0.4379(4) 1.3827(3) 0.7100(3)
H16 H -0.4795 1.3794 0.7858
C25 C -0.4064(4) 1.2776(4) 0.6359(3)
H17 H -0.4299 1.2055 0.6618
C26 C -0.4376(3) 1.6047(3) 0.7499(2)
H18 H 0.453(2) 1.063(3) -0.196(4)
H19 H 0.566(4) 1.032(4) -0.168(3)
Cd1_2 Cd -0.49161(2) 1.81934(2) 0.880508(16)
O5_2 O 0.5233(3) 0.5938(2) -0.14744(17)
O6_2 O 0.5772(3) 0.7082(3) -0.28598(19)
O7 O 0.3084(3) 0.5371(4) 0.0142(3)
H20 H 0.361(4) 0.564(4) -0.037(3)
H21 H 0.297(5) 0.602(3) 0.052(3)
loop_
_geom_bond_atom_site_label_1
_geom_bond_atom_site_label_2
_geom_bond_site_symmetry_1
_geom_bond_site_symmetry_2
Cd1 N1 1_555 1_555
N1 C1 1_555 1_555
N2 H1 1_555 1_555
N3 C6 1_555 1_555
O1 Cd1 1_555 1_555
O2 Cd1 1_555 1_555
O3 Cd1 1_555 1_555
O4 C17 1_555 1_555
O5 C26 1_555 1_555
O6 C26 1_555 1_555
C1 H2 1_555 1_555
C2 C1 1_555 1_555
H3 C2 1_555 1_555
C3 C2 1_555 1_555
H4 C3 1_555 1_555
C4 C3 1_555 1_555
C5 N1 1_555 1_555
H5 C5 1_555 1_555
C6 N2 1_555 1_555
C7 N3 1_555 1_555
C8 C7 1_555 1_555
H6 C8 1_555 1_555
C9 C8 1_555 1_555
H7 C9 1_555 1_555
C10 C9 1_555 1_555
H8 C10 1_555 1_555
C11 C10 1_555 1_555
H9 C11 1_555 1_555
C12 N2 1_555 1_555
C13 O2 1_555 1_555
C14 C13 1_555 1_555
C15 C14 1_555 1_555
H10 C15 1_555 1_555
C16 C15 1_555 1_555
H11 C16 1_555 1_555
C17 C16 1_555 1_555
C18 C17 1_555 1_555
H12 C18 1_555 1_555
C19 C14 1_555 1_555
H13 C19 1_555 1_555
C20 O4 1_555 1_555
C21 C20 1_555 1_555
H14 C21 1_555 1_555
C22 C21 1_555 1_555
H15 C22 1_555 1_555
C23 C22 1_555 1_555
C24 C23 1_555 1_555
H16 C24 1_555 1_555
C25 C20 1_555 1_555
H17 C25 1_555 1_555
C26 C23 1_555 1_555
H18 O1 1_555 1_555
H19 O1 1_555 1_555
O7 H20 1_555 1_555
H21 O7 1_555 1_555
Cd1_2 O5 1_555 1_555
O5_2 Cd1 1_555 1_555
O6_2 Cd1 1_555 1_555
O3 C13 1_555 1_555
O6 Cd1_2 1_555 1_555
C4 C5 1_555 1_555
C4 C6 1_555 1_555
C7 C12 1_555 1_555
C11 C12 1_555 1_555
C18 C19 1_555 1_555
C24 C25 1_555 1_555

#END
