
#######################################################################
#
#                 Cambridge Crystallographic Data Centre
#                                CCDC 
#
#######################################################################
#
# If this CIF has been generated from an entry in the Cambridge 
# Structural Database, then it will include bibliographic, chemical, 
# crystal, experimental, refinement or atomic coordinate data resulting 
# from the CCDC's data processing and validation procedures.
#
#######################################################################

data_OWAZES
_symmetry_cell_setting           triclinic
_symmetry_space_group_name_H-M   'P -1'
_symmetry_Int_Tables_number      2
_space_group_name_Hall           '-P 1'
loop_
_symmetry_equiv_pos_site_id
_symmetry_equiv_pos_as_xyz
1 x,y,z
2 -x,-y,-z
_cell_length_a                   9.4108(14)
_cell_length_b                   14.215(2)
_cell_length_c                   15.132(2)
_cell_angle_alpha                73.660(2)
_cell_angle_beta                 79.680(2)
_cell_angle_gamma                74.182(2)
_cell_volume                     1857.41
loop_
_atom_site_label
_atom_site_type_symbol
_atom_site_fract_x
_atom_site_fract_y
_atom_site_fract_z
Ni1 Ni 0.62819(6) 0.72841(4) 0.38355(3)
N1 N 0.8379(4) 0.7477(3) 0.3222(2)
N2 N 0.8642(4) 1.0223(3) 0.1230(3)
N3 N 1.1101(4) 0.9899(3) 0.1225(3)
H1 H 1.1990 0.9576 0.1342
N4 N 0.4109(4) 0.7201(3) 0.4391(2)
N5 N 0.0967(4) 0.9894(3) 0.3537(2)
N6 N -0.0929(4) 0.9314(3) 0.4412(3)
H2 H -0.1403 0.8907 0.4806
O1 O 0.5822(4) 0.8763(2) 0.3949(2)
O2 O 0.5680(3) 0.7474(2) 0.2517(2)
O3 O 0.6717(4) 0.5973(2) 0.3323(2)
O4 O 0.7064(7) 0.4993(3) -0.0559(2)
O5 O 0.6917(4) 0.6690(2) -0.4872(2)
O6 O 0.7207(4) 0.8044(2) -0.4513(2)
C1 C 0.9627(6) 0.6786(4) 0.3400(3)
H3 H 0.9561 0.6174 0.3818
C2 C 1.1024(6) 0.6920(4) 0.3000(4)
H4 H 1.1871 0.6409 0.3138
C3 C 1.1125(6) 0.7832(4) 0.2390(3)
H5 H 1.2051 0.7949 0.2123
C4 C 0.9845(5) 0.8574(3) 0.2176(3)
C5 C 0.8514(5) 0.8357(3) 0.2608(3)
H6 H 0.7648 0.8848 0.2468
C6 C 0.9852(5) 0.9558(3) 0.1546(3)
C7 C 1.0688(6) 1.0862(4) 0.0676(3)
C8 C 1.1476(7) 1.1581(4) 0.0184(4)
H7 H 1.2501 1.1450 0.0175
C9 C 1.0695(8) 1.2478(4) -0.0282(4)
H8 H 1.1192 1.2977 -0.0605
C10 C 0.9163(8) 1.2671(4) -0.0286(4)
H9 H 0.8668 1.3293 -0.0622
C11 C 0.8359(7) 1.1972(4) 0.0189(4)
H10 H 0.7336 1.2106 0.0185
C12 C 0.9157(6) 1.1050(4) 0.0679(3)
C13 C 0.3701(5) 0.6449(3) 0.5073(3)
H11 H 0.4422 0.5867 0.5275
C14 C 0.2278(6) 0.6505(4) 0.5479(3)
H12 H 0.2035 0.5962 0.5935
C15 C 0.1205(6) 0.7369(4) 0.5210(3)
H13 H 0.0233 0.7425 0.5492
C16 C 0.1591(5) 0.8164(3) 0.4509(3)
C17 C 0.3067(5) 0.8012(3) 0.4110(3)
H14 H 0.3330 0.8516 0.3614
C18 C 0.0560(5) 0.9125(3) 0.4158(3)
C19 C -0.1540(5) 1.0268(3) 0.3926(3)
C20 C -0.2996(5) 1.0855(4) 0.3904(4)
H15 H -0.3788 1.0625 0.4284
C21 C -0.3199(6) 1.1784(4) 0.3298(4)
H16 H -0.4155 1.2194 0.3263
C22 C -0.2016(6) 1.2139(4) 0.2727(4)
H17 H -0.2209 1.2779 0.2329
C23 C -0.0565(6) 1.1569(3) 0.2736(4)
H18 H 0.0212 1.1799 0.2340
C24 C -0.0331(5) 1.0625(3) 0.3374(3)
C25 C 0.6248(5) 0.6548(3) 0.2569(3)
C26 C 0.6425(6) 0.6154(3) 0.1744(3)
C27 C 0.5736(6) 0.6718(4) 0.0960(3)
H19 H 0.5124 0.7353 0.0964
C28 C 0.5931(7) 0.6363(4) 0.0174(3)
H20 H 0.5446 0.6742 -0.0342
C29 C 0.6864(8) 0.5434(4) 0.0178(3)
C30 C 0.7558(9) 0.4856(4) 0.0940(4)
H21 H 0.8167 0.4221 0.0929
C31 C 0.7358(8) 0.5211(4) 0.1715(3)
H22 H 0.7847 0.4821 0.2226
C32 C 0.7092(8) 0.5564(4) -0.1461(3)
C33 C 0.6540(7) 0.5223(4) -0.2063(3)
H23 H 0.6132 0.4662 -0.1848
C34 C 0.6597(6) 0.5722(3) -0.2993(3)
H24 H 0.6239 0.5483 -0.3402
C35 C 0.7172(5) 0.6559(3) -0.3324(3)
C36 C 0.7745(6) 0.6890(4) -0.2721(3)
H25 H 0.8153 0.7451 -0.2939
C37 C 0.7717(7) 0.6387(4) -0.1783(4)
H26 H 0.8116 0.6606 -0.1379
C38 C 0.7108(5) 0.7140(3) -0.4313(3)
H27 H 0.611(5) 0.870(3) 0.4451(16)
H28 H 0.492(3) 0.890(11) 0.394(10)
Ni1_2 Ni 0.62819(6) 0.72841(4) -0.61645(3)
O5_2 O 0.6917(4) 0.6690(2) 0.5128(2)
O7 O 0.4134(4) 0.9198(3) 0.1411(3)
O8 O 0.3671(4) 0.0439(3) 0.3453(3)
O9 O 0.5416(8) 0.0727(5) 0.1499(5)
loop_
_geom_bond_atom_site_label_1
_geom_bond_atom_site_label_2
_geom_bond_site_symmetry_1
_geom_bond_site_symmetry_2
Ni1 N1 1_555 1_555
N1 C1 1_555 1_555
N2 C6 1_555 1_555
N3 H1 1_555 1_555
N4 Ni1 1_555 1_555
N5 C18 1_555 1_555
N6 H2 1_555 1_555
O1 Ni1 1_555 1_555
O2 Ni1 1_555 1_555
O3 Ni1 1_555 1_555
O4 C29 1_555 1_555
O5 C38 1_555 1_555
O6 C38 1_555 1_555
C1 H3 1_555 1_555
C2 C1 1_555 1_555
H4 C2 1_555 1_555
C3 C2 1_555 1_555
H5 C3 1_555 1_555
C4 C3 1_555 1_555
C5 N1 1_555 1_555
H6 C5 1_555 1_555
C6 N3 1_555 1_555
C7 N3 1_555 1_555
C8 C7 1_555 1_555
H7 C8 1_555 1_555
C9 C8 1_555 1_555
H8 C9 1_555 1_555
C10 C9 1_555 1_555
H9 C10 1_555 1_555
C11 C10 1_555 1_555
H10 C11 1_555 1_555
C12 N2 1_555 1_555
C13 N4 1_555 1_555
H11 C13 1_555 1_555
C14 C13 1_555 1_555
H12 C14 1_555 1_555
C15 C14 1_555 1_555
H13 C15 1_555 1_555
C16 C15 1_555 1_555
C17 N4 1_555 1_555
H14 C17 1_555 1_555
C18 N6 1_555 1_555
C19 N6 1_555 1_555
C20 C19 1_555 1_555
H15 C20 1_555 1_555
C21 C20 1_555 1_555
H16 C21 1_555 1_555
C22 C21 1_555 1_555
H17 C22 1_555 1_555
C23 C22 1_555 1_555
H18 C23 1_555 1_555
C24 N5 1_555 1_555
C25 O2 1_555 1_555
C26 C25 1_555 1_555
C27 C26 1_555 1_555
H19 C27 1_555 1_555
C28 C27 1_555 1_555
H20 C28 1_555 1_555
C29 C28 1_555 1_555
C30 C29 1_555 1_555
H21 C30 1_555 1_555
C31 C26 1_555 1_555
H22 C31 1_555 1_555
C32 O4 1_555 1_555
C33 C32 1_555 1_555
H23 C33 1_555 1_555
C34 C33 1_555 1_555
H24 C34 1_555 1_555
C35 C34 1_555 1_555
C36 C35 1_555 1_555
H25 C36 1_555 1_555
C37 C32 1_555 1_555
H26 C37 1_555 1_555
C38 C35 1_555 1_555
H27 O1 1_555 1_555
H28 O1 1_555 1_555
Ni1_2 O5 1_555 1_555
O5_2 Ni1 1_555 1_555
O3 C25 1_555 1_555
C4 C5 1_555 1_555
C4 C6 1_555 1_555
C7 C12 1_555 1_555
C11 C12 1_555 1_555
C16 C17 1_555 1_555
C16 C18 1_555 1_555
C19 C24 1_555 1_555
C23 C24 1_555 1_555
C30 C31 1_555 1_555
C36 C37 1_555 1_555

#END
