
#######################################################################
#
#                 Cambridge Crystallographic Data Centre
#                                CCDC 
#
#######################################################################
#
# If this CIF has been generated from an entry in the Cambridge 
# Structural Database, then it will include bibliographic, chemical, 
# crystal, experimental, refinement or atomic coordinate data resulting 
# from the CCDC's data processing and validation procedures.
#
#######################################################################

data_OWEBAU
_symmetry_cell_setting           triclinic
_symmetry_space_group_name_H-M   'P -1'
_symmetry_Int_Tables_number      2
_space_group_name_Hall           '-P 1'
loop_
_symmetry_equiv_pos_site_id
_symmetry_equiv_pos_as_xyz
1 x,y,z
2 -x,-y,-z
_cell_length_a                   7.914(5)
_cell_length_b                   10.423(5)
_cell_length_c                   13.808(5)
_cell_angle_alpha                91.308(5)
_cell_angle_beta                 96.509(5)
_cell_angle_gamma                100.792(5)
_cell_volume                     1110.5
loop_
_atom_site_label
_atom_site_type_symbol
_atom_site_fract_x
_atom_site_fract_y
_atom_site_fract_z
Cu1 Cu 0.0000 0.0000 0.5000
C1 C 0.0758(6) 0.1003(4) 0.6968(3)
H1 H -0.0443 0.0826 0.6942
C2 C 0.1740(6) 0.1547(4) 0.7818(3)
H2 H 0.1212 0.1736 0.8358
C3 C 0.3527(6) 0.1808(4) 0.7852(3)
C4 C 0.4272(6) 0.1457(4) 0.7044(3)
H3 H 0.5470 0.1586 0.7058
C5 C 0.3195(6) 0.0912(3) 0.6221(3)
H4 H 0.3680 0.0670 0.5678
C6 C 0.4657(6) 0.2568(4) 0.8661(3)
C7 C 0.6629(6) 0.4191(4) 0.9374(3)
C8 C 0.5920(6) 0.3447(4) 1.0096(3)
C9 C 0.6463(7) 0.3761(5) 1.1079(3)
H5 H 0.5995 0.3252 1.1564
C10 C 0.7887(7) 0.5312(5) 0.9591(4)
H6 H 0.8346 0.5830 0.9108
C11 C 0.8413(7) 0.5607(5) 1.0575(4)
H7 H 0.9267 0.6341 1.0758
C12 C 0.7711(8) 0.4847(6) 1.1297(4)
H8 H 0.8107 0.5088 1.1948
C13 C 0.3679(7) 0.1372(4) 1.0128(3)
H9 H 0.2661 0.0958 0.9696
H10 H 0.3292 0.1727 1.0702
C14 C 0.4764(8) 0.0357(5) 1.0432(3)
H11 H 0.5817 0.0785 1.0830
H12 H 0.4123 -0.0272 1.0828
N1 N 0.1473(4) 0.0726(3) 0.61894(19)
N2 N 0.4671(5) 0.2441(3) 0.9630(2)
N3 N 0.5819(5) 0.3602(3) 0.8500(2)
H13 H 0.584(8) 0.384(5) 0.7915(15)
Cu1_2 Cu 1.0000 0.0000 1.5000
C1A C 0.9242(6) -0.1003(4) 1.3032(3)
H1A H 1.0443 -0.0826 1.3058
C2A C 0.8260(6) -0.1547(4) 1.2182(3)
H2A H 0.8788 -0.1736 1.1642
C3A C 0.6473(6) -0.1808(4) 1.2148(3)
C4A C 0.5728(6) -0.1457(4) 1.2956(3)
H3A H 0.4530 -0.1586 1.2942
C5A C 0.6805(6) -0.0912(3) 1.3779(3)
H4A H 0.6320 -0.0670 1.4322
C6A C 0.5343(6) -0.2568(4) 1.1339(3)
C7A C 0.3371(6) -0.4191(4) 1.0626(3)
C8A C 0.4080(6) -0.3447(4) 0.9904(3)
C9A C 0.3537(7) -0.3761(5) 0.8921(3)
H5A H 0.4005 -0.3252 0.8436
C10A C 0.2113(7) -0.5312(5) 1.0409(4)
H6A H 0.1654 -0.5830 1.0892
C11A C 0.1587(7) -0.5607(5) 0.9425(4)
H7A H 0.0733 -0.6341 0.9242
C12A C 0.2289(8) -0.4847(6) 0.8703(4)
H8A H 0.1893 -0.5088 0.8052
C13A C 0.6321(7) -0.1372(4) 0.9872(3)
H9A H 0.7339 -0.0958 1.0304
H10A H 0.6708 -0.1727 0.9298
C14A C 0.5236(8) -0.0357(5) 0.9568(3)
H11A H 0.4183 -0.0785 0.9170
H12A H 0.5877 0.0272 0.9172
N1A N 0.8527(4) -0.0726(3) 1.38106(19)
N1A_2 N -0.1473(4) -0.0726(3) 0.38106(19)
N2A N 0.5329(5) -0.2441(3) 1.0370(2)
N3A N 0.4181(5) -0.3602(3) 1.1500(2)
H13A H 0.416(8) -0.384(5) 1.2085(15)
Mo1 Mo -0.62838(4) -0.53003(2) 0.590960(18)
Mo2 Mo -0.77742(4) -0.24972(3) 0.581003(19)
Mo3 Mo -0.36301(4) -0.22375(3) 0.644719(19)
Mo4 Mo -0.18520(4) -0.48539(3) 0.631732(18)
O1 O -0.8033(3) -0.6244(2) 0.62923(17)
O2 O -0.3781(3) -0.3942(2) 0.53648(15)
O3 O -0.6082(3) -0.3708(2) 0.66079(15)
O4 O -0.4486(3) -0.5855(2) 0.65524(15)
O5 O -0.7589(3) -0.4143(2) 0.48925(15)
O6 O -0.1195(3) -0.5879(2) 0.71435(17)
O7 O -0.2475(3) -0.3547(2) 0.71148(15)
O8 O -0.9897(3) -0.3873(2) 0.60294(16)
O9 O -0.1948(3) -0.1318(2) 0.59380(18)
O10 O -0.3766(4) -0.1372(3) 0.74857(18)
O11 O -0.5485(3) -0.1749(2) 0.55802(16)
O12 O -0.8783(3) -0.1576(2) 0.49732(16)
O13 O -0.7870(4) -0.1770(2) 0.69098(17)
Mo1A Mo -0.37162(4) -0.46997(2) 0.409040(18)
Mo2A Mo -0.22258(4) -0.75028(3) 0.418997(19)
Mo2_2 Mo 0.22258(4) -0.24972(3) 0.581003(19)
Mo3A Mo -0.63699(4) -0.77625(3) 0.355281(19)
Mo4A Mo -0.81480(4) -0.51461(3) 0.368268(18)
Mo4_2 Mo -1.18520(4) -0.48539(3) 0.631732(18)
O1A O -0.1967(3) -0.3756(2) 0.37077(17)
O2A O -0.6219(3) -0.6058(2) 0.46352(15)
O3A O -0.3918(3) -0.6292(2) 0.33921(15)
O4A O -0.5514(3) -0.4145(2) 0.34476(15)
O5A O -0.2411(3) -0.5857(2) 0.51075(15)
O6A O -0.8805(3) -0.4121(2) 0.28565(17)
O7A O -0.7525(3) -0.6453(2) 0.28852(15)
O8_2 O 0.0103(3) -0.3873(2) 0.60294(16)
O8A O -1.0103(3) -0.6127(2) 0.39706(16)
O8A_2 O -0.0103(3) -0.6127(2) 0.39706(16)
O9A O -0.8052(3) -0.8682(2) 0.40620(18)
O10A O -0.6234(4) -0.8628(3) 0.25143(18)
O11A O -0.4515(3) -0.8251(2) 0.44198(16)
O12A O -0.1217(3) -0.8424(2) 0.50268(16)
O13A O -0.2130(4) -0.8230(2) 0.30902(17)
O14 O -0.9809(9) -0.1642(8) 0.8596(5)
H14 H -1.037(7) -0.106(4) 0.873(6)
H15 H -1.058(6) -0.233(3) 0.846(5)
O15 O -0.085(2) 0.1219(15) 0.9460(10)
loop_
_geom_bond_atom_site_label_1
_geom_bond_atom_site_label_2
_geom_bond_site_symmetry_1
_geom_bond_site_symmetry_2
Cu1 N1 1_555 1_555
Mo1 O1 1_555 1_555
Mo2 O3 1_555 1_555
Mo3 O2 1_555 1_555
Mo4 O2 1_555 1_555
C1 H1 1_555 1_555
C2 C1 1_555 1_555
H2 C2 1_555 1_555
C3 C2 1_555 1_555
C4 C3 1_555 1_555
H3 C4 1_555 1_555
C5 C4 1_555 1_555
H4 C5 1_555 1_555
C6 C3 1_555 1_555
C7 C8 1_555 1_555
C8 C9 1_555 1_555
C9 H5 1_555 1_555
C10 C7 1_555 1_555
H6 C10 1_555 1_555
C11 C10 1_555 1_555
H7 C11 1_555 1_555
C12 C9 1_555 1_555
H8 C12 1_555 1_555
C13 H9 1_555 1_555
H10 C13 1_555 1_555
C14 C13 1_555 1_555
H11 C14 1_555 1_555
H12 C14 1_555 1_555
N1 C1 1_555 1_555
N2 C6 1_555 1_555
N3 C6 1_555 1_555
O2 Mo1 1_555 1_555
O3 Mo1 1_555 1_555
O4 Mo1 1_555 1_555
O5 Mo1 1_555 1_555
O6 Mo4 1_555 1_555
O7 Mo3 1_555 1_555
O8 Mo2 1_555 1_555
O9 Mo3 1_555 1_555
O10 Mo3 1_555 1_555
O11 Mo2 1_555 1_555
O12 Mo2 1_555 1_555
O13 Mo2 1_555 1_555
O14 H14 1_555 1_555
H13 N3 1_555 1_555
H15 O14 1_555 1_555
Cu1_2 N1A 1_555 1_555
Mo1A O2 1_555 1_555
Mo2A O3A 1_555 1_555
Mo2_2 O8_2 1_555 1_555
Mo3A O2A 1_555 1_555
Mo4A O5 1_555 1_555
Mo4_2 O8 1_555 1_555
C1A H1A 1_555 1_555
C2A C1A 1_555 1_555
H2A C2A 1_555 1_555
C3A C2A 1_555 1_555
C4A C3A 1_555 1_555
H3A C4A 1_555 1_555
C5A C4A 1_555 1_555
H4A C5A 1_555 1_555
C6A C3A 1_555 1_555
C7A C8A 1_555 1_555
C8A C9A 1_555 1_555
C9A H5A 1_555 1_555
C10A C7A 1_555 1_555
H6A C10A 1_555 1_555
C11A C10A 1_555 1_555
H7A C11A 1_555 1_555
C12A C9A 1_555 1_555
H8A C12A 1_555 1_555
C13A H9A 1_555 1_555
H10A C13A 1_555 1_555
C14A C14 1_555 1_555
H11A C14A 1_555 1_555
H12A C14A 1_555 1_555
N1A C1A 1_555 1_555
N1A_2 Cu1 1_555 1_555
N2A C6A 1_555 1_555
N3A C6A 1_555 1_555
O1A Mo1A 1_555 1_555
O2A Mo1 1_555 1_555
O3A Mo1A 1_555 1_555
O4A Mo1A 1_555 1_555
O5A Mo4 1_555 1_555
O6A Mo4A 1_555 1_555
O7A Mo3A 1_555 1_555
O8_2 Mo4 1_555 1_555
O8A Mo4A 1_555 1_555
O8A_2 Mo2A 1_555 1_555
O9A Mo3A 1_555 1_555
O10A Mo3A 1_555 1_555
O11A Mo2A 1_555 1_555
O12A Mo2A 1_555 1_555
O13A Mo2A 1_555 1_555
H13A N3A 1_555 1_555
Mo2 O5 1_555 1_555
Mo3 O3 1_555 1_555
Mo3 O11 1_555 1_555
Mo4 O4 1_555 1_555
Mo4 O7 1_555 1_555
C5 N1 1_555 1_555
C7 N3 1_555 1_555
C8 N2 1_555 1_555
C11 C12 1_555 1_555
C13 N2 1_555 1_555
Mo1A O2A 1_555 1_555
Mo1A O5A 1_555 1_555
Mo2A O5A 1_555 1_555
Mo3A O3A 1_555 1_555
Mo3A O11A 1_555 1_555
Mo4A O2A 1_555 1_555
Mo4A O4A 1_555 1_555
Mo4A O7A 1_555 1_555
C5A N1A 1_555 1_555
C7A N3A 1_555 1_555
C8A N2A 1_555 1_555
C11A C12A 1_555 1_555
C13A C14A 1_555 1_555
C13A N2A 1_555 1_555

#END
