
#######################################################################
#
#                 Cambridge Crystallographic Data Centre
#                                CCDC 
#
#######################################################################
#
# If this CIF has been generated from an entry in the Cambridge 
# Structural Database, then it will include bibliographic, chemical, 
# crystal, experimental, refinement or atomic coordinate data resulting 
# from the CCDC's data processing and validation procedures.
#
#######################################################################

data_OWECAV
_symmetry_cell_setting           monoclinic
_symmetry_space_group_name_H-M   'C 2/c'
_symmetry_Int_Tables_number      15
_space_group_name_Hall           '-C 2yn'
loop_
_symmetry_equiv_pos_site_id
_symmetry_equiv_pos_as_xyz
1 x,y,z
2 -x,y,1/2-z
3 1/2+x,1/2+y,z
4 1/2-x,1/2+y,1/2-z
5 -x,-y,-z
6 x,-y,1/2+z
7 1/2-x,1/2-y,-z
8 1/2+x,1/2-y,1/2+z
_cell_length_a                   19.781(5)
_cell_length_b                   11.026(3)
_cell_length_c                   16.339(4)
_cell_angle_alpha                90
_cell_angle_beta                 127.186(3)
_cell_angle_gamma                90
_cell_volume                     2839.06
loop_
_atom_site_label
_atom_site_type_symbol
_atom_site_fract_x
_atom_site_fract_y
_atom_site_fract_z
C1 C 0.0019(3) 0.1708(4) 0.4422(3)
C2 C 0.0412(3) 0.1124(4) 0.4043(4)
C3 C -0.0709(3) 0.1073(4) 0.4034(3)
N1 N -0.0731(3) 0.0162(4) 0.3464(3)
N2 N -0.0045(3) 0.0173(3) 0.3463(3)
I1 I 0.14300(2) -0.22195(3) 0.33097(3)
Cu1 Cu 0.0000 -0.09476(8) 0.2500
Cu2 Cu 0.0000 -0.34683(8) 0.2500
C4 C 0.0329(4) 0.2807(4) 0.5107(4)
H1 H 0.0392 0.2822 0.5719
N3 N 0.0374(3) 0.5402(3) 0.3703(3)
N4 N 0.1156(3) 0.5387(4) 0.4583(4)
C5 C -0.0013(3) 0.4473(4) 0.3780(4)
C6 C 0.1281(3) 0.4489(4) 0.5222(4)
C7 C 0.0525(3) 0.3875(4) 0.4717(4)
C8 C -0.0909(3) 0.4177(5) 0.2918(4)
H2 H -0.1205 0.3940 0.3189
H3 H -0.0921 0.3522 0.2521
H4 H -0.1179 0.4877 0.2487
C9 C 0.2110(4) 0.4285(5) 0.6245(4)
H5 H 0.2463 0.3783 0.6166
H6 H 0.2016 0.3891 0.6692
H7 H 0.2385 0.5051 0.6537
C10 C 0.1235(4) 0.1404(5) 0.4227(5)
H8 H 0.1542 0.0664 0.4358
H9 H 0.1567 0.1932 0.4810
H10 H 0.1124 0.1794 0.3632
C11 C -0.1399(3) 0.1260(5) 0.4126(4)
H11 H -0.1160 0.1417 0.4831
H12 H -0.1746 0.0545 0.3898
H13 H -0.1740 0.1938 0.3711
H14 H 0.141(3) 0.585(4) 0.467(3)
H15 H -0.107(3) -0.039(4) 0.318(3)
H16 H 0.0756(19) 0.2233(17) 0.535(2)
C1A C -0.0019(3) 0.1708(4) 0.0578(3)
C2A C -0.0412(3) 0.1124(4) 0.0957(4)
C3A C 0.0709(3) 0.1073(4) 0.0966(3)
N1A N 0.0731(3) 0.0162(4) 0.1536(3)
N2A N 0.0045(3) 0.0173(3) 0.1537(3)
I1A I -0.14300(2) -0.22195(3) 0.16903(3)
Cu2_2 Cu 0.0000 0.65317(8) 0.2500
C4A C -0.0329(4) 0.2807(4) -0.0107(4)
H1A H -0.0392 0.2822 -0.0719
N3A N -0.0374(3) 0.5402(3) 0.1297(3)
N3_2 N 0.0374(3) -0.4598(3) 0.3703(3)
N3A_2 N -0.0374(3) -0.4598(3) 0.1297(3)
N4A N -0.1156(3) 0.5387(4) 0.0417(4)
C5A C 0.0013(3) 0.4473(4) 0.1220(4)
C6A C -0.1281(3) 0.4489(4) -0.0222(4)
C7A C -0.0525(3) 0.3875(4) 0.0283(4)
C8A C 0.0909(3) 0.4177(5) 0.2082(4)
H2A H 0.1205 0.3940 0.1811
H3A H 0.0921 0.3522 0.2479
H4A H 0.1179 0.4877 0.2513
C9A C -0.2110(4) 0.4285(5) -0.1245(4)
H5A H -0.2463 0.3783 -0.1166
H6A H -0.2016 0.3891 -0.1692
H7A H -0.2385 0.5051 -0.1537
C10A C -0.1235(4) 0.1404(5) 0.0773(5)
H8A H -0.1542 0.0664 0.0642
H9A H -0.1567 0.1932 0.0190
H10A H -0.1124 0.1794 0.1368
C11A C 0.1399(3) 0.1260(5) 0.0874(4)
H11A H 0.1160 0.1417 0.0169
H12A H 0.1746 0.0545 0.1102
H13A H 0.1740 0.1938 0.1289
H14A H -0.141(3) 0.585(4) 0.033(3)
H15A H 0.107(3) -0.039(4) 0.182(3)
H16A H -0.0756(19) 0.2233(17) -0.035(2)
loop_
_geom_bond_atom_site_label_1
_geom_bond_atom_site_label_2
_geom_bond_site_symmetry_1
_geom_bond_site_symmetry_2
C1 C2 1_555 1_555
C2 N2 1_555 1_555
C3 C1 1_555 1_555
N1 C3 1_555 1_555
N2 N1 1_555 1_555
I1 Cu1 1_555 1_555
Cu1 N2 1_555 1_555
Cu2 I1 1_555 1_555
C4 C1 1_555 1_555
H1 C4 1_555 1_555
N3 N4 1_555 1_555
N4 C6 1_555 1_555
C5 N3 1_555 1_555
C6 C7 1_555 1_555
C7 C4 1_555 1_555
C8 C5 1_555 1_555
H2 C8 1_555 1_555
H3 C8 1_555 1_555
H4 C8 1_555 1_555
C9 C6 1_555 1_555
H5 C9 1_555 1_555
H6 C9 1_555 1_555
H7 C9 1_555 1_555
C10 C2 1_555 1_555
H8 C10 1_555 1_555
H9 C10 1_555 1_555
H10 C10 1_555 1_555
C11 C3 1_555 1_555
H11 C11 1_555 1_555
H12 C11 1_555 1_555
H13 C11 1_555 1_555
H14 N4 1_555 1_555
H15 N1 1_555 1_555
H16 C4 1_555 1_555
C1A C2A 1_555 1_555
C2A N2A 1_555 1_555
C3A C1A 1_555 1_555
N1A C3A 1_555 1_555
N2A Cu1 1_555 1_555
I1A Cu1 1_555 1_555
Cu2_2 N3 1_555 1_555
C4A C1A 1_555 1_555
H1A C4A 1_555 1_555
N3A Cu2_2 1_555 1_555
N3_2 Cu2 1_555 1_555
N3A_2 Cu2 1_555 1_555
N4A N3A 1_555 1_555
C5A N3A 1_555 1_555
C6A N4A 1_555 1_555
C7A C4A 1_555 1_555
C8A C5A 1_555 1_555
H2A C8A 1_555 1_555
H3A C8A 1_555 1_555
H4A C8A 1_555 1_555
C9A C6A 1_555 1_555
H5A C9A 1_555 1_555
H6A C9A 1_555 1_555
H7A C9A 1_555 1_555
C10A C2A 1_555 1_555
H8A C10A 1_555 1_555
H9A C10A 1_555 1_555
H10A C10A 1_555 1_555
C11A C3A 1_555 1_555
H11A C11A 1_555 1_555
H12A C11A 1_555 1_555
H13A C11A 1_555 1_555
H14A N4A 1_555 1_555
H15A N1A 1_555 1_555
H16A C4A 1_555 1_555
Cu2 I1A 1_555 1_555
C5 C7 1_555 1_555
N1A N2A 1_555 1_555
C5A C7A 1_555 1_555
C6A C7A 1_555 1_555

#END
