
#######################################################################
#
#                 Cambridge Crystallographic Data Centre
#                                CCDC 
#
#######################################################################
#
# If this CIF has been generated from an entry in the Cambridge 
# Structural Database, then it will include bibliographic, chemical, 
# crystal, experimental, refinement or atomic coordinate data resulting 
# from the CCDC's data processing and validation procedures.
#
#######################################################################

data_OWEXIY
_symmetry_cell_setting           triclinic
_symmetry_space_group_name_H-M   'P -1'
_symmetry_Int_Tables_number      2
_space_group_name_Hall           '-P 1'
loop_
_symmetry_equiv_pos_site_id
_symmetry_equiv_pos_as_xyz
1 x,y,z
2 -x,-y,-z
_cell_length_a                   7.1978(10)
_cell_length_b                   7.8299(8)
_cell_length_c                   14.7824(14)
_cell_angle_alpha                103.094(8)
_cell_angle_beta                 101.379(10)
_cell_angle_gamma                91.071(10)
_cell_volume                     793.741
loop_
_atom_site_label
_atom_site_type_symbol
_atom_site_fract_x
_atom_site_fract_y
_atom_site_fract_z
C1 C 1.4141(7) -1.1774(7) 0.9691(3)
C2 C 0.9058(7) -0.7808(7) 0.8770(3)
H1 H 0.8767 -0.6834 0.9245
H2 H 0.8048 -0.8725 0.8629
C3 C 1.2580(7) -0.1588(7) 0.6587(3)
C4 C 0.9152(6) -0.7200(7) 0.7878(3)
C5 C 1.3148(7) -1.0338(7) 0.9567(3)
C6 C 0.9274(7) -0.4872(7) 0.7084(4)
H3 H 0.9264 -0.3678 0.7101
C7 C 1.3959(7) -0.8612(7) 0.9873(3)
C8 C 0.9148(7) -0.5414(7) 0.7895(3)
H4 H 0.9062 -0.4597 0.8448
C9 C 1.2462(6) -0.7401(7) 0.9624(3)
C10 C 0.9282(7) -0.8350(7) 0.7045(4)
H5 H 0.9289 -0.9550 0.7013
C11 C 1.1104(7) -1.0252(7) 0.9105(3)
C12 C 0.9404(7) -0.7731(7) 0.6254(4)
H6 H 0.9482 -0.8528 0.5694
C13 C 1.3699(9) -0.7306(11) 0.4574(5)
H7 H 1.4861 -0.7606 0.4930
H8 H 1.3982 -0.6670 0.4128
H9 H 1.2932 -0.8360 0.4238
H10 H 1.358(8) -1.280(9) 0.954(4)
O2 O 1.2572(5) -0.5810(5) 0.9791(3)
O3 O 0.9882(5) -1.1423(5) 0.8779(3)
O4 O 1.2701(6) -0.6247(6) 0.5201(3)
N1 N 1.0859(6) -0.8480(5) 0.9146(3)
N2 N 0.9411(5) -0.5996(6) 0.6271(3)
N3 N 1.1432(7) -0.2546(7) 0.5996(3)
S1 S 1.4150(2) -0.0360(2) 0.73926(10)
Mn1 Mn 1.0000 -0.5000 0.5000
H11 H 1.345(13) -0.630(13) 0.578(8)
C1A C 1.5859(7) -0.8226(7) 1.0309(3)
C2A C 2.0942(7) -1.2192(7) 1.1230(3)
H1A H 2.1233 -1.3166 1.0755
H2A H 2.1952 -1.1275 1.1371
C3A C 0.7420(7) -0.8412(7) 0.3413(3)
C4A C 2.0848(6) -1.2800(7) 1.2122(3)
C5A C 1.6852(7) -0.9662(7) 1.0433(3)
C6A C 2.0726(7) -1.5128(7) 1.2916(4)
H3A H 2.0736 -1.6322 1.2899
C7A C 1.6041(7) -1.1388(7) 1.0127(3)
C8A C 2.0852(7) -1.4586(7) 1.2105(3)
H4A H 2.0938 -1.5403 1.1552
C9A C 1.7538(6) -1.2599(7) 1.0376(3)
C10A C 2.0718(7) -1.1650(7) 1.2955(4)
H5A H 2.0711 -1.0450 1.2987
C11A C 1.8896(7) -0.9748(7) 1.0895(3)
C12A C 2.0596(7) -1.2269(7) 1.3746(4)
H6A H 2.0518 -1.1472 1.4306
C13A C 0.6301(9) -0.2694(11) 0.5426(5)
H7A H 0.5139 -0.2394 0.5070
H8A H 0.6018 -0.3330 0.5872
H9A H 0.7068 -0.1640 0.5762
H10A H 1.642(8) -0.720(9) 1.046(4)
O2A O 1.7428(5) -1.4190(5) 1.0209(3)
O3A O 2.0118(5) -0.8577(5) 1.1221(3)
O4A O 0.7299(6) -0.3753(6) 0.4799(3)
N1A N 1.9141(6) -1.1520(5) 1.0854(3)
N2A N 2.0589(5) -1.4004(6) 1.3729(3)
N2A_2 N 1.0589(5) -0.4004(6) 0.3729(3)
N3A N 0.8568(7) -0.7454(7) 0.4004(3)
S1A S 0.5850(2) -0.9640(2) 0.26074(10)
Mn1_2 Mn 2.0000 -1.5000 1.5000
H11A H 0.655(13) -0.370(13) 0.422(8)
O1 O 0.4516(6) -0.6572(6) 0.6879(3)
C14 C 0.4345(10) -0.5387(10) 0.7747(5)
H12 H 0.490(12) -0.403(13) 0.769(7)
H13 H 0.296(12) -0.558(11) 0.785(6)
H14 H 0.520(13) -0.561(13) 0.830(8)
H15 H 0.429(13) -0.772(7) 0.696(7)
loop_
_geom_bond_atom_site_label_1
_geom_bond_atom_site_label_2
_geom_bond_site_symmetry_1
_geom_bond_site_symmetry_2
C1 C5 1_555 1_555
O1 C14 1_555 1_555
C2 H1 1_555 1_555
H2 C2 1_555 1_555
C3 N3 1_555 1_555
C4 C2 1_555 1_555
C5 C7 1_555 1_555
C6 H3 1_555 1_555
C7 C9 1_555 1_555
C8 C4 1_555 1_555
H4 C8 1_555 1_555
C9 O2 1_555 1_555
C10 C4 1_555 1_555
H5 C10 1_555 1_555
C11 C5 1_555 1_555
C12 C10 1_555 1_555
H6 C12 1_555 1_555
C13 H7 1_555 1_555
H8 C13 1_555 1_555
H9 C13 1_555 1_555
H10 C1 1_555 1_555
O3 C11 1_555 1_555
C14 H12 1_555 1_555
O4 C13 1_555 1_555
N1 C2 1_555 1_555
N2 C6 1_555 1_555
N3 Mn1 1_555 1_555
S1 C3 1_555 1_555
Mn1 O4 1_555 1_555
H11 O4 1_555 1_555
H13 C14 1_555 1_555
H14 C14 1_555 1_555
H15 O1 1_555 1_555
C1A C7 1_555 1_555
C2A H1A 1_555 1_555
H2A C2A 1_555 1_555
C3A N3A 1_555 1_555
C4A C2A 1_555 1_555
C5A C1A 1_555 1_555
C6A H3A 1_555 1_555
C7A C1 1_555 1_555
C8A C4A 1_555 1_555
H4A C8A 1_555 1_555
C9A C7A 1_555 1_555
C10A C4A 1_555 1_555
H5A C10A 1_555 1_555
C11A C5A 1_555 1_555
C12A C10A 1_555 1_555
H6A C12A 1_555 1_555
C13A H7A 1_555 1_555
H8A C13A 1_555 1_555
H9A C13A 1_555 1_555
H10A C1A 1_555 1_555
O2A C9A 1_555 1_555
O3A C11A 1_555 1_555
O4A Mn1 1_555 1_555
N1A C2A 1_555 1_555
N2A C6A 1_555 1_555
N2A_2 Mn1 1_555 1_555
N3A Mn1 1_555 1_555
S1A C3A 1_555 1_555
Mn1_2 N2A 1_555 1_555
H11A O4A 1_555 1_555
C6 C8 1_555 1_555
C9 N1 1_555 1_555
C11 N1 1_555 1_555
C12 N2 1_555 1_555
N2 Mn1 1_555 1_555
C5A C7A 1_555 1_555
C6A C8A 1_555 1_555
C9A N1A 1_555 1_555
C11A N1A 1_555 1_555
C12A N2A 1_555 1_555
C13A O4A 1_555 1_555

#END
