
#######################################################################
#
#                 Cambridge Crystallographic Data Centre
#                                CCDC 
#
#######################################################################
#
# If this CIF has been generated from an entry in the Cambridge 
# Structural Database, then it will include bibliographic, chemical, 
# crystal, experimental, refinement or atomic coordinate data resulting 
# from the CCDC's data processing and validation procedures.
#
#######################################################################

data_OWEYEV
_symmetry_cell_setting           monoclinic
_symmetry_space_group_name_H-M   'P 21/c'
_symmetry_Int_Tables_number      14
_space_group_name_Hall           '-P 2ybc'
loop_
_symmetry_equiv_pos_site_id
_symmetry_equiv_pos_as_xyz
1 x,y,z
2 -x,1/2+y,1/2-z
3 -x,-y,-z
4 x,1/2-y,1/2+z
_cell_length_a                   15.2299(15)
_cell_length_b                   10.8222(10)
_cell_length_c                   15.4087(15)
_cell_angle_alpha                90
_cell_angle_beta                 116.394(2)
_cell_angle_gamma                90
_cell_volume                     2274.94
loop_
_atom_site_label
_atom_site_type_symbol
_atom_site_fract_x
_atom_site_fract_y
_atom_site_fract_z
C1 C 0.6107(3) 0.4188(3) 0.6507(3)
H1 H 0.6083 0.3758 0.5975
C2 C 0.7370(3) 0.0687(3) 0.9669(3)
C3 C 0.6131(3) 0.2247(3) 0.7514(3)
C4 C 0.6148(3) 0.7449(3) 0.7145(3)
C5 C 0.7174(3) 0.9053(3) 0.5890(3)
C6 C 0.7854(3) -0.0284(3) 0.9486(3)
H2 H 0.7535 -0.0707 0.8903
C7 C 0.6159(3) 0.8706(3) 0.5759(3)
H3 H 0.5911 0.9362 0.6018
H4 H 0.5725 0.8634 0.5072
C8 C 0.6143(3) 0.6105(3) 0.7342(3)
C9 C 0.6331(3) 0.0981(3) 0.8965(3)
H5 H 0.6081 0.0320 0.8493
H6 H 0.5934 0.1008 0.9313
C10 C 0.6111(3) 0.6378(3) 0.5829(3)
C11 C 0.6124(3) 0.3598(3) 0.7318(3)
C12 C 0.6127(3) 0.5459(3) 0.6557(3)
C13 C 0.7649(3) 0.8379(3) 0.5464(3)
H7 H 0.7331 0.7690 0.5099
C14 C 0.7868(3) 0.1327(3) 1.0534(3)
H8 H 0.7569 0.1987 1.0685
C15 C 0.7658(3) 1.0074(3) 0.6439(3)
H9 H 0.7371 1.0545 0.6749
C16 C 0.8996(3) 0.9659(3) 0.6077(3)
H10 H 0.9616 0.9865 0.6146
C17 C 0.9225(3) -0.0003(3) 1.0927(3)
H11 H 0.9861 -0.0230 1.1355
C18 C 0.8803(3) 0.0979(4) 1.1163(3)
H12 H 0.9146 0.1403 1.1742
C19 C 0.6137(3) 0.4237(3) 0.8104(3)
C20 C 0.6139(3) 0.5513(3) 0.8140(3)
H13 H 0.6138 0.5945 0.8661
C21 C 0.8570(3) 1.0382(3) 0.6520(3)
H14 H 0.8895 1.1075 0.6873
C22 C 0.6171(3) 0.3312(3) 0.8837(3)
O1 O 0.6061(2) 0.6203(2) 0.50343(18)
O2 O 0.6058(2) 0.1391(2) 0.69882(19)
O3 O 0.6146(2) 0.3479(2) 0.95995(18)
O4 O 0.6123(2) 0.8308(2) 0.76316(18)
N1 N 0.6149(2) 0.7537(3) 0.6241(2)
N2 N 0.8760(2) -0.0647(3) 1.0105(2)
N3 N 0.8537(2) 0.8655(3) 0.5543(2)
N4 N 0.6219(2) 0.2154(3) 0.8451(2)
I1 I 1.12402(2) -0.27384(3) 1.13265(2)
I2 I 0.87796(2) -0.29836(3) 0.801992(19)
Cd1 Cd 0.93812(2) -0.24945(2) 0.99132(2)
N3C N 0.8537(2) -0.3655(3) 1.0543(2)
Cd1C Cd 0.93812(2) 0.74945(2) 0.49132(2)
loop_
_geom_bond_atom_site_label_1
_geom_bond_atom_site_label_2
_geom_bond_site_symmetry_1
_geom_bond_site_symmetry_2
C1 H1 1_555 1_555
C2 C6 1_555 1_555
C3 C11 1_555 1_555
C4 C8 1_555 1_555
C5 C7 1_555 1_555
C6 H2 1_555 1_555
C7 H3 1_555 1_555
H4 C7 1_555 1_555
C8 C12 1_555 1_555
C9 C2 1_555 1_555
H5 C9 1_555 1_555
H6 C9 1_555 1_555
C10 C12 1_555 1_555
C11 C1 1_555 1_555
C12 C1 1_555 1_555
C13 C5 1_555 1_555
H7 C13 1_555 1_555
C14 C2 1_555 1_555
H8 C14 1_555 1_555
C15 C5 1_555 1_555
H9 C15 1_555 1_555
C16 H10 1_555 1_555
C17 H11 1_555 1_555
C18 C14 1_555 1_555
H12 C18 1_555 1_555
C19 C11 1_555 1_555
C20 C8 1_555 1_555
H13 C20 1_555 1_555
C21 C15 1_555 1_555
H14 C21 1_555 1_555
C22 C19 1_555 1_555
O1 C10 1_555 1_555
O2 C3 1_555 1_555
O3 C22 1_555 1_555
O4 C4 1_555 1_555
N1 C4 1_555 1_555
N2 C6 1_555 1_555
N3 C13 1_555 1_555
N4 C3 1_555 1_555
I1 Cd1 1_555 1_555
I2 Cd1 1_555 1_555
Cd1 N2 1_555 1_555
N3C Cd1 1_555 1_555
Cd1C N3 1_555 1_555
C7 N1 1_555 1_555
C9 N4 1_555 1_555
C10 N1 1_555 1_555
C16 C21 1_555 1_555
C16 N3 1_555 1_555
C17 C18 1_555 1_555
C17 N2 1_555 1_555
C19 C20 1_555 1_555
C22 N4 1_555 1_555

#END
