
#######################################################################
#
#                 Cambridge Crystallographic Data Centre
#                                CCDC 
#
#######################################################################
#
# If this CIF has been generated from an entry in the Cambridge 
# Structural Database, then it will include bibliographic, chemical, 
# crystal, experimental, refinement or atomic coordinate data resulting 
# from the CCDC's data processing and validation procedures.
#
#######################################################################

data_OWEYIZ
_symmetry_cell_setting           triclinic
_symmetry_space_group_name_H-M   'P -1'
_symmetry_Int_Tables_number      2
_space_group_name_Hall           '-P 1'
loop_
_symmetry_equiv_pos_site_id
_symmetry_equiv_pos_as_xyz
1 x,y,z
2 -x,-y,-z
_cell_length_a                   5.885(5)
_cell_length_b                   11.267(5)
_cell_length_c                   12.900(5)
_cell_angle_alpha                68.083(5)
_cell_angle_beta                 87.642(5)
_cell_angle_gamma                82.567(5)
_cell_volume                     786.839
loop_
_atom_site_label
_atom_site_type_symbol
_atom_site_fract_x
_atom_site_fract_y
_atom_site_fract_z
Cd1 Cd 1.0000 0.0000 0.0000
S1 S 0.7783(3) -0.1466(2) 0.18576(15)
N1 N 0.9855(10) 0.1643(6) 0.0707(5)
O1 O 0.5245(9) 0.5873(5) 0.1559(4)
N2 N 0.3349(10) -0.0950(6) 0.0957(5)
N3 N 0.8268(10) 0.4794(6) 0.2734(5)
C1 C 0.7788(11) 0.4147(6) 0.4734(6)
C2 C 0.7312(12) 0.3612(7) 0.6726(6)
H1 H 0.7875 0.3165 0.7449
C3 C 0.4749(11) 0.5611(6) 0.3450(6)
C4 C 0.9744(12) 0.3713(7) 0.1419(5)
C5 C 0.5648(12) 0.4951(6) 0.4529(5)
C6 C 0.5179(12) -0.1150(6) 0.1317(5)
C7 C 0.6014(12) 0.5450(6) 0.2487(6)
C8 C 1.1661(14) 0.2824(9) 0.1591(8)
H2 H 1.2947 0.2905 0.1944
C9 C 0.9175(12) 0.4066(7) 0.3779(6)
C10 C 0.8029(13) 0.2514(7) 0.0550(6)
H3 H 0.6765 0.2418 0.0192
C11 C 0.8567(12) 0.3495(7) 0.5810(6)
H4 H 0.9957 0.2963 0.5937
C12 C 0.7874(13) 0.3537(8) 0.0875(6)
H5 H 0.6540 0.4115 0.0738
O2 O 1.1047(9) 0.3454(6) 0.3883(4)
C13 C 0.9746(13) 0.4852(7) 0.1761(6)
H6 H 1.1305 0.4905 0.1940
H7 H 0.9233 0.5632 0.1132
C14 C 1.1659(15) 0.1795(9) 0.1230(8)
H8 H 1.2960 0.1194 0.1357
Cd1_2 Cd 0.0000 0.0000 0.0000
Cd1_3 Cd 0.0000 1.0000 1.0000
S1A S 0.2217(3) 0.1466(2) -0.18576(15)
S1A_2 S 1.2217(3) 0.1466(2) -0.18576(15)
N1A N 0.0145(10) 0.8357(6) 0.9293(5)
N1A_2 N 1.0145(10) -0.1643(6) -0.0707(5)
O1A O 0.4755(9) 0.4127(5) 0.8441(4)
N2A N 0.6651(10) 0.0950(6) -0.0957(5)
N2_2 N 1.3349(10) -0.0950(6) 0.0957(5)
N3A N 0.1732(10) 0.5206(6) 0.7266(5)
C1A C 0.2212(11) 0.5853(6) 0.5266(6)
C2A C 0.2688(12) 0.6388(7) 0.3274(6)
H1A H 0.2125 0.6835 0.2551
C3A C 0.5251(11) 0.4389(6) 0.6550(6)
C4A C 0.0256(12) 0.6287(7) 0.8581(5)
C5A C 0.4352(12) 0.5049(6) 0.5471(5)
C6A C 0.4821(12) 0.1150(6) -0.1317(5)
C7A C 0.3986(12) 0.4550(6) 0.7513(6)
C8A C -0.1661(14) 0.7176(9) 0.8409(8)
H2A H -0.2947 0.7095 0.8056
C9A C 0.0825(12) 0.5934(7) 0.6221(6)
C10A C 0.1971(13) 0.7486(7) 0.9450(6)
H3A H 0.3235 0.7582 0.9808
C11A C 0.1433(12) 0.6505(7) 0.4190(6)
H4A H 0.0043 0.7037 0.4063
C12A C 0.2126(13) 0.6463(8) 0.9125(6)
H5A H 0.3460 0.5885 0.9262
O2A O -0.1047(9) 0.6546(6) 0.6117(4)
C13A C 0.0254(13) 0.5148(7) 0.8239(6)
H6A H -0.1305 0.5095 0.8060
H7A H 0.0767 0.4368 0.8868
C14A C -0.1659(15) 0.8205(9) 0.8770(8)
H8A H -0.2960 0.8806 0.8643
O3 O 0.565(2) 0.0613(13) 0.5760(9)
loop_
_geom_bond_atom_site_label_1
_geom_bond_atom_site_label_2
_geom_bond_site_symmetry_1
_geom_bond_site_symmetry_2
Cd1 S1 1_555 1_555
S1 C6 1_555 1_555
N1 Cd1 1_555 1_555
O1 C7 1_555 1_555
N2 C6 1_555 1_555
N3 C7 1_555 1_555
C1 C5 1_555 1_555
C2 H1 1_555 1_555
C3 C5 1_555 1_555
C4 C8 1_555 1_555
C5 C5A 1_555 1_555
C7 C3 1_555 1_555
C8 H2 1_555 1_555
C9 N3 1_555 1_555
C10 N1 1_555 1_555
H3 C10 1_555 1_555
C11 C1 1_555 1_555
H4 C11 1_555 1_555
C12 C4 1_555 1_555
H5 C12 1_555 1_555
O2 C9 1_555 1_555
C13 N3 1_555 1_555
H6 C13 1_555 1_555
H7 C13 1_555 1_555
C14 N1 1_555 1_555
H8 C14 1_555 1_555
Cd1_2 N2 1_555 1_555
Cd1_3 N1A 1_555 1_555
S1A Cd1_2 1_555 1_555
S1A_2 Cd1 1_555 1_555
N1A C10A 1_555 1_555
N1A_2 Cd1 1_555 1_555
O1A C7A 1_555 1_555
N2A Cd1 1_555 1_555
N2_2 Cd1 1_555 1_555
N3A C7A 1_555 1_555
C1A C5A 1_555 1_555
C2A C3 1_555 1_555
H1A C2A 1_555 1_555
C3A C2 1_555 1_555
C4A C8A 1_555 1_555
C5A C3A 1_555 1_555
C6A S1A 1_555 1_555
C7A C3A 1_555 1_555
C8A H2A 1_555 1_555
C9A N3A 1_555 1_555
C10A H3A 1_555 1_555
C11A C1A 1_555 1_555
H4A C11A 1_555 1_555
C12A C4A 1_555 1_555
H5A C12A 1_555 1_555
O2A C9A 1_555 1_555
C13A N3A 1_555 1_555
H6A C13A 1_555 1_555
H7A C13A 1_555 1_555
C14A N1A 1_555 1_555
H8A C14A 1_555 1_555
C1 C9 1_555 1_555
C2 C11 1_555 1_555
C4 C13 1_555 1_555
C8 C14 1_555 1_555
C10 C12 1_555 1_555
N2A C6A 1_555 1_555
C1A C9A 1_555 1_555
C2A C11A 1_555 1_555
C4A C13A 1_555 1_555
C8A C14A 1_555 1_555
C10A C12A 1_555 1_555

#END
