
#######################################################################
#
#                 Cambridge Crystallographic Data Centre
#                                CCDC 
#
#######################################################################
#
# If this CIF has been generated from an entry in the Cambridge 
# Structural Database, then it will include bibliographic, chemical, 
# crystal, experimental, refinement or atomic coordinate data resulting 
# from the CCDC's data processing and validation procedures.
#
#######################################################################

data_OWEYOF
_symmetry_cell_setting           orthorhombic
_symmetry_space_group_name_H-M   'F d d d'
_symmetry_Int_Tables_number      70
_space_group_name_Hall           '-F 2uv 2vw'
loop_
_symmetry_equiv_pos_site_id
_symmetry_equiv_pos_as_xyz
1 x,y,z
2 1/4-x,1/4-y,z
3 x,1/4-y,1/4-z
4 1/4-x,y,1/4-z
5 x,1/2+y,1/2+z
6 1/4-x,3/4-y,1/2+z
7 x,3/4-y,3/4-z
8 1/4-x,1/2+y,3/4-z
9 1/2+x,y,1/2+z
10 3/4-x,1/4-y,1/2+z
11 1/2+x,1/4-y,3/4-z
12 3/4-x,y,3/4-z
13 1/2+x,1/2+y,z
14 3/4-x,3/4-y,z
15 1/2+x,3/4-y,1/4-z
16 3/4-x,1/2+y,1/4-z
17 -x,-y,-z
18 3/4+x,3/4+y,-z
19 -x,3/4+y,3/4+z
20 3/4+x,-y,3/4+z
21 -x,1/2-y,1/2-z
22 3/4+x,1/4+y,1/2-z
23 -x,1/4+y,1/4+z
24 3/4+x,1/2-y,1/4+z
25 1/2-x,-y,1/2-z
26 1/4+x,3/4+y,1/2-z
27 1/2-x,3/4+y,1/4+z
28 1/4+x,-y,1/4+z
29 1/2-x,1/2-y,-z
30 1/4+x,1/4+y,-z
31 1/2-x,1/4+y,3/4+z
32 1/4+x,1/2-y,3/4+z
_cell_length_a                   18.3308(11)
_cell_length_b                   22.5675(10)
_cell_length_c                   31.7435(13)
_cell_angle_alpha                90
_cell_angle_beta                 90
_cell_angle_gamma                90
_cell_volume                     13131.7
loop_
_atom_site_label
_atom_site_type_symbol
_atom_site_fract_x
_atom_site_fract_y
_atom_site_fract_z
O3 O 0.566(3) -0.719(3) 0.1252(8)
O4 O 0.8750 -0.6250 -0.1250
O5 O 0.494(2) -0.6226(16) 0.1385(13)
Co1 Co 0.3750 -1.1250 0.3750
N1 N 0.37271(16) -1.05694(13) 0.32653(10)
O1 O 0.52045(19) -0.90909(14) 0.21425(11)
O2 O 0.31438(17) -0.81983(14) 0.26254(12)
N2 N 0.4074(2) -0.87663(15) 0.23591(12)
N3 N 0.2613(3) -1.1250 0.3750
C1 C 0.3171(2) -0.97332(18) 0.29403(14)
H1 H 0.2807 -0.9446 0.2947
C2 C 0.3214(2) -1.01461(17) 0.32550(13)
H2 H 0.2873 -1.0132 0.3471
C3 C 0.4994(2) -0.80814(19) 0.23831(14)
C4 C 0.3664(2) -0.97411(17) 0.26130(13)
C5 C 0.4816(3) -0.8703(2) 0.22738(15)
C6 C 0.3649(2) -0.9296(2) 0.22606(15)
H3 H 0.3147 -0.9183 0.2205
H4 H 0.3842 -0.9478 0.2007
C7 C 0.4364(2) -0.78031(18) 0.25243(14)
C8 C 0.4199(2) -1.05743(19) 0.29503(13)
H5 H 0.4558 -1.0865 0.2949
C9 C 0.4188(2) -1.0175(2) 0.26245(14)
H6 H 0.4536 -1.0198 0.2412
C10 C 0.5657(2) -0.77818(19) 0.23532(15)
H7 H 0.6082 -0.7963 0.2258
C11 C 0.3774(2) -0.82518(19) 0.25144(15)
C12 C 0.2006(4) -1.1250 0.3750
S1 S 0.11668(18) -1.1531(5) 0.36694(18)
Co1R Co 0.6250 -0.3750 0.1250
Co1P Co 0.6250 -1.8750 0.6250
N1T N 0.62729(16) -0.44306(13) 0.17347(10)
N1F N 0.37271(16) -1.19306(13) 0.42347(10)
N1V N 0.62729(16) -1.80694(13) 0.57653(10)
N1K N 0.37729(16) -1.05694(13) 0.42347(10)
N1M N 0.37729(16) -1.19306(13) 0.32653(10)
O1T O 0.47955(19) -0.59091(14) 0.28575(11)
O1F O 0.52045(19) -1.34091(14) 0.53575(11)
O1V O 0.47955(19) -1.65909(14) 0.46425(11)
O2T O 0.68562(17) -0.68017(14) 0.23746(12)
O2F O 0.31438(17) -1.43017(14) 0.48746(12)
O2V O 0.68562(17) -1.56983(14) 0.51254(12)
N2T N 0.5926(2) -0.62337(15) 0.26409(12)
N2F N 0.4074(2) -1.37337(15) 0.51409(12)
N2V N 0.5926(2) -1.62663(15) 0.48591(12)
N3K N 0.4887(3) -1.1250 0.3750
C1T C 0.6829(2) -0.52668(18) 0.20597(14)
C1F C 0.3171(2) -1.27668(18) 0.45597(14)
C1V C 0.6829(2) -1.72332(18) 0.54403(14)
H1T H 0.7193 -0.5554 0.2053
H1F H 0.2807 -1.3054 0.4553
H1V H 0.7193 -1.6946 0.5447
C2T C 0.6786(2) -0.48539(17) 0.17450(13)
C2F C 0.3214(2) -1.23539(17) 0.42450(13)
C2V C 0.6786(2) -1.76461(17) 0.57550(13)
H2T H 0.7127 -0.4868 0.1529
H2F H 0.2873 -1.2368 0.4029
H2V H 0.7127 -1.7632 0.5971
C3T C 0.5006(2) -0.69186(19) 0.26169(14)
C3F C 0.4994(2) -1.44186(19) 0.51169(14)
C3V C 0.5006(2) -1.55814(19) 0.48831(14)
C4T C 0.6336(2) -0.52589(17) 0.23870(13)
C4F C 0.3664(2) -1.27589(17) 0.48870(13)
C4V C 0.6336(2) -1.72411(17) 0.51130(13)
C5T C 0.5184(3) -0.6297(2) 0.27262(15)
C5F C 0.4816(3) -1.3797(2) 0.52262(15)
C5V C 0.5184(3) -1.6203(2) 0.47738(15)
C6T C 0.6351(2) -0.5704(2) 0.27394(15)
C6F C 0.3649(2) -1.3204(2) 0.52394(15)
C6V C 0.6351(2) -1.6796(2) 0.47606(15)
H3T H 0.6853 -0.5817 0.2795
H3F H 0.3147 -1.3317 0.5295
H3V H 0.6853 -1.6683 0.4705
H4T H 0.6158 -0.5522 0.2993
H4F H 0.3842 -1.3022 0.5493
H4V H 0.6158 -1.6978 0.4507
C7T C 0.5636(2) -0.71969(18) 0.24757(14)
C7F C 0.4364(2) -1.46969(18) 0.49757(14)
C7V C 0.5636(2) -1.53031(18) 0.50243(14)
C8T C 0.5801(2) -0.44257(19) 0.20497(13)
C8F C 0.4199(2) -1.19257(19) 0.45497(13)
C8V C 0.5801(2) -1.80743(19) 0.54503(13)
H5T H 0.5442 -0.4135 0.2051
H5F H 0.4558 -1.1635 0.4551
H5V H 0.5442 -1.8365 0.5449
C9T C 0.5812(2) -0.4825(2) 0.23755(14)
C9F C 0.4188(2) -1.2325(2) 0.48755(14)
C9V C 0.5812(2) -1.7675(2) 0.51245(14)
H6T H 0.5464 -0.4802 0.2588
H6F H 0.4536 -1.2302 0.5088
H6V H 0.5464 -1.7698 0.4912
C10T C 0.4343(2) -0.72182(19) 0.26468(15)
C10F C 0.5657(2) -1.47182(19) 0.51468(15)
C10V C 0.4343(2) -1.52818(19) 0.48532(15)
H7T H 0.3918 -0.7037 0.2742
H7F H 0.6082 -1.4537 0.5242
H7V H 0.3918 -1.5463 0.4758
C11T C 0.6226(2) -0.67482(19) 0.24856(15)
C11F C 0.3774(2) -1.42482(19) 0.49856(15)
C11V C 0.6226(2) -1.57518(19) 0.50144(15)
C12K C 0.5494(4) -1.1250 0.3750
S1F S 0.11668(18) -1.0969(5) 0.38306(18)
S1K S 0.63332(18) -1.1531(5) 0.38306(18)
S1M S 0.63332(18) -1.0969(5) 0.36694(18)
loop_
_geom_bond_atom_site_label_1
_geom_bond_atom_site_label_2
_geom_bond_site_symmetry_1
_geom_bond_site_symmetry_2
Co1 N1 1_555 1_555
N1 C2 1_555 1_555
O1 C5 1_555 1_555
O2 C11 1_555 1_555
N2 C5 1_555 1_555
N3 Co1 1_555 1_555
C1 H1 1_555 1_555
C2 C1 1_555 1_555
H2 C2 1_555 1_555
C3 C5 1_555 1_555
C4 C1 1_555 1_555
C6 N2 1_555 1_555
H3 C6 1_555 1_555
H4 C6 1_555 1_555
C7 C3 1_555 1_555
C8 N1 1_555 1_555
H5 C8 1_555 1_555
C9 C4 1_555 1_555
H6 C9 1_555 1_555
C10 C3 1_555 1_555
H7 C10 1_555 1_555
C11 N2 1_555 1_555
C12 N3 1_555 1_555
S1 C12 1_555 1_555
Co1R N1T 1_555 1_555
Co1P N1V 1_555 1_555
N1T C2T 1_555 1_555
N1F Co1 1_555 1_555
N1V C2V 1_555 1_555
N1K Co1 1_555 1_555
N1M Co1 1_555 1_555
O1T C5T 1_555 1_555
O1F C5F 1_555 1_555
O1V C5V 1_555 1_555
O2T C11T 1_555 1_555
O2F C11F 1_555 1_555
O2V C11V 1_555 1_555
N2T C5T 1_555 1_555
N2F C5F 1_555 1_555
N2V C5V 1_555 1_555
N3K Co1 1_555 1_555
C1T H1T 1_555 1_555
C1F H1F 1_555 1_555
C1V H1V 1_555 1_555
C2T C1T 1_555 1_555
C2F N1F 1_555 1_555
C2V C1V 1_555 1_555
H2T C2T 1_555 1_555
H2F C2F 1_555 1_555
H2V C2V 1_555 1_555
C3T C5T 1_555 1_555
C3F C5F 1_555 1_555
C3V C5V 1_555 1_555
C4T C1T 1_555 1_555
C4F C1F 1_555 1_555
C4V C1V 1_555 1_555
C6T N2T 1_555 1_555
C6F N2F 1_555 1_555
C6V N2V 1_555 1_555
H3T C6T 1_555 1_555
H3F C6F 1_555 1_555
H3V C6V 1_555 1_555
H4T C6T 1_555 1_555
H4F C6F 1_555 1_555
H4V C6V 1_555 1_555
C7T C10 1_555 1_555
C7F C3F 1_555 1_555
C7V C3V 1_555 1_555
C8T N1T 1_555 1_555
C8F N1F 1_555 1_555
C8V N1V 1_555 1_555
H5T C8T 1_555 1_555
H5F C8F 1_555 1_555
H5V C8V 1_555 1_555
C9T C4T 1_555 1_555
C9F C4F 1_555 1_555
C9V C4V 1_555 1_555
H6T C9T 1_555 1_555
H6F C9F 1_555 1_555
H6V C9V 1_555 1_555
C10T C7 1_555 1_555
C10F C3F 1_555 1_555
C10V C3V 1_555 1_555
H7T C10T 1_555 1_555
H7F C10F 1_555 1_555
H7V C10V 1_555 1_555
C11T N2T 1_555 1_555
C11F N2F 1_555 1_555
C11V N2V 1_555 1_555
C12K N3K 1_555 1_555
S1F C12 1_555 1_555
S1K C12K 1_555 1_555
S1M C12K 1_555 1_555
C4 C6 1_555 1_555
C7 C11 1_555 1_555
C8 C9 1_555 1_555
S1 S1F 1_555 1_555
C1F C2F 1_555 1_555
C3T C7T 1_555 1_555
C3T C10T 1_555 1_555
C4T C6T 1_555 1_555
C4F C6F 1_555 1_555
C4V C6V 1_555 1_555
C7T C11T 1_555 1_555
C7F C10V 1_555 1_555
C7F C11F 1_555 1_555
C7V C10F 1_555 1_555
C7V C11V 1_555 1_555
C8T C9T 1_555 1_555
C8F C9F 1_555 1_555
C8V C9V 1_555 1_555
S1K S1M 1_555 1_555

#END
