
#######################################################################
#
#                 Cambridge Crystallographic Data Centre
#                                CCDC 
#
#######################################################################
#
# If this CIF has been generated from an entry in the Cambridge 
# Structural Database, then it will include bibliographic, chemical, 
# crystal, experimental, refinement or atomic coordinate data resulting 
# from the CCDC's data processing and validation procedures.
#
#######################################################################

data_OWEZOG
_symmetry_cell_setting           orthorhombic
_symmetry_space_group_name_H-M   'P c c n'
_symmetry_Int_Tables_number      56
_space_group_name_Hall           '-P 2ab 2ac'
loop_
_symmetry_equiv_pos_site_id
_symmetry_equiv_pos_as_xyz
1 x,y,z
2 1/2-x,1/2-y,z
3 -x,1/2+y,1/2-z
4 1/2+x,-y,1/2-z
5 -x,-y,-z
6 1/2+x,1/2+y,-z
7 x,1/2-y,1/2+z
8 1/2-x,y,1/2+z
_cell_length_a                   16.549(2)
_cell_length_b                   20.499(3)
_cell_length_c                   20.850(5)
_cell_angle_alpha                90
_cell_angle_beta                 90
_cell_angle_gamma                90
_cell_volume                     7073.11
loop_
_atom_site_label
_atom_site_type_symbol
_atom_site_fract_x
_atom_site_fract_y
_atom_site_fract_z
Mo1 Mo 0.34970(6) 0.15346(5) -0.20368(5)
Mo2 Mo 0.13002(6) 0.16843(5) -0.44132(5)
Mo3 Mo 0.14038(6) 0.33920(5) -0.44206(6)
Mo4 Mo 0.46697(6) 0.24065(5) -0.32740(5)
Mo5 Mo 0.36129(6) 0.33861(5) -0.20443(5)
Mo6 Mo 0.25929(6) 0.42566(5) -0.31884(5)
Sb1 Sb 0.2500 0.2500 -0.11052(12)
Sb2 Sb 0.2500 0.2500 -0.53442(12)
P1 P 0.2500 0.2500 -0.32287(18)
O1 O 0.2637(6) 0.5055(4) -0.3345(5)
O2 O 0.1284(6) 0.2543(4) -0.4872(4)
O3 O 0.3363(5) 0.3896(4) -0.3784(4)
O4 O 0.4559(5) 0.1775(4) -0.3966(4)
O5 O 0.4630(5) 0.3056(4) -0.3954(5)
O6 O 0.3393(5) 0.4147(4) -0.2513(4)
O7 O 0.0887(5) 0.1198(5) -0.4978(5)
O8 O 0.4272(6) 0.3654(5) -0.1484(5)
O9 O 0.3475(6) 0.2463(4) -0.1766(4)
O10 O 0.1796(5) 0.3958(4) -0.3788(4)
O11 O 0.1050(5) 0.3908(5) -0.4985(5)
O12 O 0.4312(5) 0.3056(4) -0.2677(4)
O13 O 0.4238(5) 0.1798(4) -0.2678(4)
O14 O 0.1741(5) 0.2531(4) -0.3653(4)
O15 O 0.2454(5) 0.1717(5) -0.4701(4)
O16 O 0.2466(4) 0.1878(4) -0.2805(4)
O17 O 0.2564(5) 0.3473(5) -0.1588(4)
O18 O 0.4106(6) 0.1203(5) -0.1481(5)
O19 O 0.5657(6) 0.2366(5) -0.3133(5)
O20 O 0.3193(6) 0.0788(4) -0.2498(5)
Mo1A Mo 0.15030(6) 0.34654(5) -0.20368(5)
Mo2A Mo 0.36998(6) 0.33157(5) -0.44132(5)
Mo3A Mo 0.35962(6) 0.16080(5) -0.44206(6)
Mo4A Mo 0.03303(6) 0.25935(5) -0.32740(5)
Mo5A Mo 0.13871(6) 0.16139(5) -0.20443(5)
Mo6A Mo 0.24071(6) 0.07434(5) -0.31884(5)
Sb1F Sb 0.2500 0.2500 -0.61052(12)
Sb2F Sb 0.2500 0.2500 -0.03442(12)
O1A O 0.2363(6) -0.0055(4) -0.3345(5)
O2A O 0.3716(6) 0.2457(4) -0.4872(4)
O3A O 0.1637(5) 0.1104(4) -0.3784(4)
O4A O 0.0441(5) 0.3225(4) -0.3966(4)
O5A O 0.0370(5) 0.1944(4) -0.3954(5)
O6A O 0.1607(5) 0.0853(4) -0.2513(4)
O7A O 0.4113(5) 0.3802(5) -0.4978(5)
O8A O 0.0728(6) 0.1346(5) -0.1484(5)
O9A O 0.1525(6) 0.2537(4) -0.1766(4)
O10A O 0.3204(5) 0.1042(4) -0.3788(4)
O11A O 0.3950(5) 0.1092(5) -0.4985(5)
O12A O 0.0688(5) 0.1944(4) -0.2677(4)
O13A O 0.0762(5) 0.3202(4) -0.2678(4)
O14A O 0.3259(5) 0.2469(4) -0.3653(4)
O15A O 0.2546(5) 0.3283(5) -0.4701(4)
O16A O 0.2534(4) 0.3122(4) -0.2805(4)
O17A O 0.2436(5) 0.1527(5) -0.1588(4)
O18A O 0.0894(6) 0.3797(5) -0.1481(5)
O19A O -0.0657(6) 0.2634(5) -0.3133(5)
O20A O 0.1807(6) 0.4212(4) -0.2498(5)
Cd1 Cd -0.24424(6) 0.35962(7) -0.20514(6)
Cl1 Cl -0.2500 0.2500 -0.2622(3)
N1 N -0.3086(7) 0.3699(6) -0.1075(6)
N2 N -0.1538(7) 0.3233(6) -0.1289(6)
N3 N -0.1641(8) 0.4184(6) -0.2749(7)
N4 N -0.3352(7) 0.4090(6) -0.2746(6)
C1 C -0.3834(9) 0.3908(8) -0.0974(10)
H1 H -0.4138 0.4041 -0.1326
C2 C -0.4184(9) 0.3939(10) -0.0370(10)
H2 H -0.4711 0.4088 -0.0318
C3 C -0.3733(11) 0.3744(9) 0.0149(11)
H3 H -0.3959 0.3752 0.0557
C4 C -0.2929(10) 0.3533(8) 0.0067(8)
C5 C -0.2431(12) 0.3332(11) 0.0598(9)
H4 H -0.2626 0.3358 0.1015
C6 C -0.1658(12) 0.3097(9) 0.0481(9)
H5 H -0.1336 0.2970 0.0825
C7 C -0.1349(9) 0.3050(7) -0.0153(8)
C8 C -0.0592(9) 0.2783(9) -0.0291(10)
H6 H -0.0265 0.2637 0.0042
C9 C -0.0328(9) 0.2736(8) -0.0899(9)
H7 H 0.0172 0.2551 -0.0989
C10 C -0.0830(9) 0.2975(9) -0.1406(8)
H8 H -0.0648 0.2947 -0.1827
C11 C -0.1811(8) 0.3259(7) -0.0678(7)
C12 C -0.2627(8) 0.3518(7) -0.0561(8)
C13 C -0.0871(10) 0.4231(8) -0.2756(10)
H9 H -0.0582 0.4026 -0.2431
C14 C -0.0438(12) 0.4574(10) -0.3226(11)
H10 H 0.0123 0.4594 -0.3219
C15 C -0.0885(13) 0.4884(8) -0.3706(10)
H11 H -0.0623 0.5112 -0.4031
C16 C -0.1712(12) 0.4849(7) -0.3694(9)
C17 C -0.2215(16) 0.5171(8) -0.4176(10)
H12 H -0.1965 0.5422 -0.4490
C18 C -0.3014(17) 0.5119(9) -0.4184(10)
H13 H -0.3307 0.5332 -0.4503
C19 C -0.3443(13) 0.4735(9) -0.3701(8)
C20 C -0.4268(11) 0.4673(9) -0.3691(9)
H14 H -0.4581 0.4874 -0.4004
C21 C -0.4630(9) 0.4314(8) -0.3216(8)
H15 H -0.5189 0.4268 -0.3200
C22 C -0.4142(9) 0.4022(8) -0.2761(8)
H16 H -0.4385 0.3763 -0.2450
C23 C -0.2968(11) 0.4435(6) -0.3211(7)
C24 C -0.2113(10) 0.4491(6) -0.3211(7)
Cd1A Cd -0.25576(6) 0.14038(7) -0.20514(6)
N1A N -0.1914(7) 0.1301(6) -0.1075(6)
N2A N -0.3462(7) 0.1767(6) -0.1289(6)
N3A N -0.3359(8) 0.0816(6) -0.2749(7)
N4A N -0.1648(7) 0.0910(6) -0.2746(6)
C1A C -0.1166(9) 0.1092(8) -0.0974(10)
H1A H -0.0862 0.0959 -0.1326
C2A C -0.0816(9) 0.1061(10) -0.0370(10)
H2A H -0.0289 0.0912 -0.0318
C3A C -0.1267(11) 0.1256(9) 0.0149(11)
H3A H -0.1041 0.1248 0.0557
C4A C -0.2071(10) 0.1467(8) 0.0067(8)
C5A C -0.2569(12) 0.1668(11) 0.0598(9)
H4A H -0.2374 0.1642 0.1015
C6A C -0.3342(12) 0.1903(9) 0.0481(9)
H5A H -0.3664 0.2030 0.0825
C7A C -0.3651(9) 0.1950(7) -0.0153(8)
C8A C -0.4408(9) 0.2217(9) -0.0291(10)
H6A H -0.4735 0.2363 0.0042
C9A C -0.4672(9) 0.2264(8) -0.0899(9)
H7A H -0.5172 0.2449 -0.0989
C10A C -0.4170(9) 0.2025(9) -0.1406(8)
H8A H -0.4352 0.2053 -0.1827
C11A C -0.3189(8) 0.1741(7) -0.0678(7)
C12A C -0.2373(8) 0.1482(7) -0.0561(8)
C13A C -0.4129(10) 0.0769(8) -0.2756(10)
H9A H -0.4418 0.0974 -0.2431
C14A C -0.4562(12) 0.0426(10) -0.3226(11)
H10A H -0.5123 0.0406 -0.3219
C15A C -0.4115(13) 0.0116(8) -0.3706(10)
H11A H -0.4377 -0.0112 -0.4031
C16A C -0.3288(12) 0.0151(7) -0.3694(9)
C17A C -0.2785(16) -0.0171(8) -0.4176(10)
H12A H -0.3035 -0.0422 -0.4490
C18A C -0.1986(17) -0.0119(9) -0.4184(10)
H13A H -0.1693 -0.0332 -0.4503
C19A C -0.1557(13) 0.0265(9) -0.3701(8)
C20A C -0.0732(11) 0.0327(9) -0.3691(9)
H14A H -0.0419 0.0126 -0.4004
C21A C -0.0370(9) 0.0686(8) -0.3216(8)
H15A H 0.0189 0.0732 -0.3200
C22A C -0.0858(9) 0.0978(8) -0.2761(8)
H16A H -0.0615 0.1237 -0.2450
C23A C -0.2032(11) 0.0565(6) -0.3211(7)
C24A C -0.2887(10) 0.0509(6) -0.3211(7)
loop_
_geom_bond_atom_site_label_1
_geom_bond_atom_site_label_2
_geom_bond_site_symmetry_1
_geom_bond_site_symmetry_2
Mo1 O9 1_555 1_555
Mo2 O2 1_555 1_555
Mo3 O2 1_555 1_555
Mo4 O4 1_555 1_555
Mo5 O6 1_555 1_555
Mo6 O1 1_555 1_555
Sb1 O9 1_555 1_555
Sb2 O2 1_555 1_555
Cd1 Cl1 1_555 1_555
P1 O14 1_555 1_555
Cl1 Cd1A 1_555 1_555
O3 Mo6 1_555 1_555
O4 Mo3A 1_555 1_555
O5 Mo4 1_555 1_555
O6 Mo6 1_555 1_555
O7 Mo2 1_555 1_555
O8 Mo5 1_555 1_555
O9 Mo5 1_555 1_555
O10 Mo3 1_555 1_555
O11 Mo3 1_555 1_555
O12 Mo4 1_555 1_555
O13 Mo1 1_555 1_555
O14 Mo2 1_555 1_555
O15 Mo2 1_555 1_555
O16 Mo1 1_555 1_555
O17 Mo5 1_555 1_555
O18 Mo1 1_555 1_555
O19 Mo4 1_555 1_555
O20 Mo1 1_555 1_555
N1 Cd1 1_555 1_555
N2 Cd1 1_555 1_555
N3 Cd1 1_555 1_555
N4 Cd1 1_555 1_555
C1 N1 1_555 1_555
H1 C1 1_555 1_555
C2 C1 1_555 1_555
H2 C2 1_555 1_555
C3 C2 1_555 1_555
H3 C3 1_555 1_555
C4 C3 1_555 1_555
C5 C4 1_555 1_555
H4 C5 1_555 1_555
C6 C5 1_555 1_555
H5 C6 1_555 1_555
C7 C6 1_555 1_555
C8 C7 1_555 1_555
H6 C8 1_555 1_555
C9 C8 1_555 1_555
H7 C9 1_555 1_555
C10 N2 1_555 1_555
H8 C10 1_555 1_555
C11 N2 1_555 1_555
C12 N1 1_555 1_555
C13 N3 1_555 1_555
H9 C13 1_555 1_555
C14 C13 1_555 1_555
H10 C14 1_555 1_555
C15 C14 1_555 1_555
H11 C15 1_555 1_555
C16 C15 1_555 1_555
C17 C16 1_555 1_555
H12 C17 1_555 1_555
C18 C17 1_555 1_555
H13 C18 1_555 1_555
C19 C18 1_555 1_555
C20 C19 1_555 1_555
H14 C20 1_555 1_555
C21 C20 1_555 1_555
H15 C21 1_555 1_555
C22 N4 1_555 1_555
H16 C22 1_555 1_555
C23 N4 1_555 1_555
C24 N3 1_555 1_555
Mo1A O17 1_555 1_555
Mo2A O3 1_555 1_555
Mo3A O15 1_555 1_555
Mo4A O14 1_555 1_555
Mo5A O16 1_555 1_555
Mo6A O16 1_555 1_555
Sb1F Sb2 1_555 1_555
Sb2F Sb1 1_555 1_555
Cd1A N1A 1_555 1_555
O1A Mo6A 1_555 1_555
O2A Sb2 1_555 1_555
O3A Mo2 1_555 1_555
O4A Mo3 1_555 1_555
O5A Mo2 1_555 1_555
O6A Mo5A 1_555 1_555
O7A Mo2A 1_555 1_555
O8A Mo5A 1_555 1_555
O9A Sb1 1_555 1_555
O10A Mo3A 1_555 1_555
O11A Mo3A 1_555 1_555
O12A Mo4A 1_555 1_555
O13A Mo1A 1_555 1_555
O14A Mo4 1_555 1_555
O15A Mo3 1_555 1_555
O16A Mo5 1_555 1_555
O17A Mo1 1_555 1_555
O18A Mo1A 1_555 1_555
O19A Mo4A 1_555 1_555
O20A Mo6 1_555 1_555
N1A C1A 1_555 1_555
N2A Cd1A 1_555 1_555
N3A Cd1A 1_555 1_555
N4A Cd1A 1_555 1_555
C1A H1A 1_555 1_555
C2A C1A 1_555 1_555
H2A C2A 1_555 1_555
C3A C2A 1_555 1_555
H3A C3A 1_555 1_555
C4A C3A 1_555 1_555
C5A C4A 1_555 1_555
H4A C5A 1_555 1_555
C6A C5A 1_555 1_555
H5A C6A 1_555 1_555
C7A C6A 1_555 1_555
C8A C7A 1_555 1_555
H6A C8A 1_555 1_555
C9A C8A 1_555 1_555
H7A C9A 1_555 1_555
C10A N2A 1_555 1_555
H8A C10A 1_555 1_555
C11A N2A 1_555 1_555
C12A N1A 1_555 1_555
C13A N3A 1_555 1_555
H9A C13A 1_555 1_555
C14A C13A 1_555 1_555
H10A C14A 1_555 1_555
C15A C14A 1_555 1_555
H11A C15A 1_555 1_555
C16A C15A 1_555 1_555
C17A C16A 1_555 1_555
H12A C17A 1_555 1_555
C18A C17A 1_555 1_555
H13A C18A 1_555 1_555
C19A C18A 1_555 1_555
C20A C19A 1_555 1_555
H14A C20A 1_555 1_555
C21A C20A 1_555 1_555
H15A C21A 1_555 1_555
C22A N4A 1_555 1_555
H16A C22A 1_555 1_555
C23A N4A 1_555 1_555
C24A N3A 1_555 1_555
Mo3 O14 1_555 1_555
Mo4 O13 1_555 1_555
Mo5 O12 1_555 1_555
Mo6 O10 1_555 1_555
Mo6 O16A 1_555 1_555
Sb1 O17 1_555 1_555
Sb1 O17A 1_555 1_555
Sb2 O15 1_555 1_555
Sb2 O15A 1_555 1_555
P1 O16 1_555 1_555
P1 O14A 1_555 1_555
P1 O16A 1_555 1_555
O5 Mo2A 1_555 1_555
O20 Mo6A 1_555 1_555
C4 C12 1_555 1_555
C7 C11 1_555 1_555
C9 C10 1_555 1_555
C11 C12 1_555 1_555
C16 C24 1_555 1_555
C19 C23 1_555 1_555
C21 C22 1_555 1_555
C23 C24 1_555 1_555
Mo1A O9A 1_555 1_555
Mo1A O16A 1_555 1_555
Mo1A O20A 1_555 1_555
Mo2A O2A 1_555 1_555
Mo2A O14A 1_555 1_555
Mo2A O15A 1_555 1_555
Mo3A O2A 1_555 1_555
Mo3A O14A 1_555 1_555
Mo4A O4A 1_555 1_555
Mo4A O5A 1_555 1_555
Mo4A O13A 1_555 1_555
Mo5A O9A 1_555 1_555
Mo5A O12A 1_555 1_555
Mo5A O17A 1_555 1_555
Mo6A O3A 1_555 1_555
Mo6A O6A 1_555 1_555
Mo6A O10A 1_555 1_555
C4A C12A 1_555 1_555
C7A C11A 1_555 1_555
C9A C10A 1_555 1_555
C11A C12A 1_555 1_555
C16A C24A 1_555 1_555
C19A C23A 1_555 1_555
C21A C22A 1_555 1_555
C23A C24A 1_555 1_555

#END
