
#######################################################################
#
#                 Cambridge Crystallographic Data Centre
#                                CCDC 
#
#######################################################################
#
# If this CIF has been generated from an entry in the Cambridge 
# Structural Database, then it will include bibliographic, chemical, 
# crystal, experimental, refinement or atomic coordinate data resulting 
# from the CCDC's data processing and validation procedures.
#
#######################################################################

data_OWEZAS
_symmetry_cell_setting           monoclinic
_symmetry_space_group_name_H-M   'C 2/c'
_symmetry_Int_Tables_number      15
_space_group_name_Hall           '-C 2yn'
loop_
_symmetry_equiv_pos_site_id
_symmetry_equiv_pos_as_xyz
1 x,y,z
2 -x,y,1/2-z
3 1/2+x,1/2+y,z
4 1/2-x,1/2+y,1/2-z
5 -x,-y,-z
6 x,-y,1/2+z
7 1/2-x,1/2-y,-z
8 1/2+x,1/2-y,1/2+z
_cell_length_a                   28.6844(12)
_cell_length_b                   13.5805(6)
_cell_length_c                   15.5499(6)
_cell_angle_alpha                90
_cell_angle_beta                 104.672(4)
_cell_angle_gamma                90
_cell_volume                     5859.92
loop_
_atom_site_label
_atom_site_type_symbol
_atom_site_fract_x
_atom_site_fract_y
_atom_site_fract_z
Co1 Co 0.0000 0.76854(8) 0.2500
C1 C 0.2223(2) 0.5282(4) 0.7357(4)
C2 C 0.2676(2) 0.5500(4) 0.7967(4)
C3 C 0.3097(2) 0.5121(5) 0.7789(4)
C4 C 0.2214(2) 0.4711(5) 0.6594(4)
C5 C 0.3151(2) 0.6273(4) 0.9371(4)
C6 C 0.2682(2) 0.6080(4) 0.8711(4)
C7 C 0.1746(2) 0.4490(5) 0.5962(4)
C8 C 0.1803(2) 0.5661(4) 0.7534(4)
C9 C 0.1323(2) 0.5389(5) 0.6943(4)
C10 C 0.1818(2) 0.6238(5) 0.8263(4)
H1 H 0.1535 0.6483 0.8367
C11 C 0.3569(2) 0.5311(5) 0.8420(4)
C12 C 0.0667(2) 0.5262(5) 0.4875(4)
C13 C 0.2266(2) 0.6458(5) 0.8854(4)
H2 H 0.2279 0.6862 0.9343
C14 C 0.3078(2) 0.4550(5) 0.7050(4)
H3 H 0.3360 0.4296 0.6946
C15 C 0.4247(2) 0.5316(5) 1.0383(4)
C16 C 0.4738(2) 0.5313(4) 1.0798(4)
H4 H 0.4938 0.5806 1.0679
C17 C 0.1044(2) 0.7461(4) 0.2221(4)
C18 C 0.4192(2) 0.3811(5) 1.1157(4)
H5 H 0.4003 0.3296 1.1275
C19 C 0.2627(3) 0.4352(6) 0.6448(5)
H6 H 0.2615 0.3970 0.5946
C20 C 0.0237(2) 0.6725(5) 0.4338(4)
H7 H 0.0068 0.7274 0.4451
C21 C 0.4034(2) 0.6129(5) 0.9749(4)
H8 H 0.4003 0.6713 1.0089
H9 H 0.4255 0.6282 0.9387
C22 C 0.4921(2) 0.4572(5) 1.1384(4)
H10 H 0.5246 0.4605 1.1682
C23 C 0.0412(2) 0.6073(5) 0.5021(4)
H11 H 0.0357 0.6180 0.5578
C24 C 0.3975(2) 0.4544(5) 1.0583(4)
H12 H 0.3644 0.4522 1.0327
C25 C 0.0744(3) 0.5134(5) 0.4036(4)
H13 H 0.0922 0.4605 0.3909
C26 C 0.0862(2) 0.4517(5) 0.5608(4)
H14 H 0.0632 0.4432 0.5964
H15 H 0.0903 0.3886 0.5344
C27 C 0.0542(3) 0.5836(5) 0.3386(4)
H16 H 0.0585 0.5743 0.2819
O1 O 0.31784(17) 0.6714(4) 1.0055(3)
O2 O 0.39434(15) 0.5000(4) 0.8328(3)
O3 O 0.09440(15) 0.5642(4) 0.7080(3)
O4 O 0.17138(18) 0.4051(4) 0.5269(3)
N1 N 0.03001(17) 0.6605(4) 0.3514(3)
N2 N 0.46695(17) 0.3811(4) 1.1558(3)
N3 N 0.35633(17) 0.5891(4) 0.9164(3)
N4 N 0.13296(18) 0.4841(4) 0.6187(3)
N5 N 0.06341(18) 0.7628(4) 0.2047(3)
S1 S 0.16236(6) 0.72521(13) 0.24749(12)
Co1B Co 0.5000 0.26854(8) 1.2500
Co1B_2 Co -0.5000 0.26854(8) -0.7500
C1A C -0.2223(2) 0.5282(4) -0.2357(4)
C2A C -0.2676(2) 0.5500(4) -0.2967(4)
C3A C -0.3097(2) 0.5121(5) -0.2789(4)
C4A C -0.2214(2) 0.4711(5) -0.1594(4)
C5A C -0.3151(2) 0.6273(4) -0.4371(4)
C6A C -0.2682(2) 0.6080(4) -0.3711(4)
C7A C -0.1746(2) 0.4490(5) -0.0962(4)
C8A C -0.1803(2) 0.5661(4) -0.2534(4)
C9A C -0.1323(2) 0.5389(5) -0.1943(4)
C10A C -0.1818(2) 0.6238(5) -0.3263(4)
H1A H -0.1535 0.6483 -0.3367
C11A C -0.3569(2) 0.5311(5) -0.3420(4)
C12A C -0.0667(2) 0.5262(5) 0.0125(4)
C13A C -0.2266(2) 0.6458(5) -0.3854(4)
H2A H -0.2279 0.6862 -0.4343
C14A C -0.3078(2) 0.4550(5) -0.2050(4)
H3A H -0.3360 0.4296 -0.1946
C15A C -0.4247(2) 0.5316(5) -0.5383(4)
C16A C -0.4738(2) 0.5313(4) -0.5798(4)
H4A H -0.4938 0.5806 -0.5679
C17A C -0.1044(2) 0.7461(4) 0.2779(4)
C18A C -0.4192(2) 0.3811(5) -0.6157(4)
H5A H -0.4003 0.3296 -0.6275
C19A C -0.2627(3) 0.4352(6) -0.1448(5)
H6A H -0.2615 0.3970 -0.0946
C20A C -0.0237(2) 0.6725(5) 0.0662(4)
H7A H -0.0068 0.7274 0.0549
C21A C -0.4034(2) 0.6129(5) -0.4749(4)
H8A H -0.4003 0.6713 -0.5089
H9A H -0.4255 0.6282 -0.4387
C22A C -0.4921(2) 0.4572(5) -0.6384(4)
H10A H -0.5246 0.4605 -0.6682
C23A C -0.0412(2) 0.6073(5) -0.0021(4)
H11A H -0.0357 0.6180 -0.0578
C24A C -0.3975(2) 0.4544(5) -0.5583(4)
H12A H -0.3644 0.4522 -0.5327
C25A C -0.0744(3) 0.5134(5) 0.0964(4)
H13A H -0.0922 0.4605 0.1091
C26A C -0.0862(2) 0.4517(5) -0.0608(4)
H14A H -0.0632 0.4432 -0.0964
H15A H -0.0903 0.3886 -0.0344
C27A C -0.0542(3) 0.5836(5) 0.1614(4)
H16A H -0.0585 0.5743 0.2181
O1A O -0.31784(17) 0.6714(4) -0.5055(3)
O2A O -0.39434(15) 0.5000(4) -0.3328(3)
O3A O -0.09440(15) 0.5642(4) -0.2080(3)
O4A O -0.17138(18) 0.4051(4) -0.0269(3)
N1A N -0.03001(17) 0.6605(4) 0.1486(3)
N2A N -0.46695(17) 0.3811(4) -0.6558(3)
N2B N -0.03305(17) 0.8811(4) 0.1558(3)
N2C N 0.03305(17) 0.8811(4) 0.3442(3)
N3A N -0.35633(17) 0.5891(4) -0.4164(3)
N4A N -0.13296(18) 0.4841(4) -0.1187(3)
N5A N -0.06341(18) 0.7628(4) 0.2953(3)
S1A S -0.16236(6) 0.72521(13) 0.25251(12)
O5 O 0.5269(4) 0.7862(6) 1.3594(5)
O6 O 0.56183(16) 0.6832(4) 1.2265(4)
O7 O 0.2559(3) 0.3604(4) 0.9872(7)
O8? O 0.5357(3) 0.7572(8) 1.3169(10)
loop_
_geom_bond_atom_site_label_1
_geom_bond_atom_site_label_2
_geom_bond_site_symmetry_1
_geom_bond_site_symmetry_2
Co1 N1 1_555 1_555
C1 C2 1_555 1_555
C2 C3 1_555 1_555
C3 C11 1_555 1_555
C4 C1 1_555 1_555
C5 C6 1_555 1_555
C6 C2 1_555 1_555
C7 C4 1_555 1_555
C8 C1 1_555 1_555
C9 C8 1_555 1_555
C10 C8 1_555 1_555
H1 C10 1_555 1_555
C11 O2 1_555 1_555
C12 C23 1_555 1_555
C13 C6 1_555 1_555
H2 C13 1_555 1_555
C14 C3 1_555 1_555
H3 C14 1_555 1_555
C15 C16 1_555 1_555
C16 H4 1_555 1_555
C17 N5 1_555 1_555
C18 H5 1_555 1_555
C19 C4 1_555 1_555
H6 C19 1_555 1_555
C20 H7 1_555 1_555
C21 C15 1_555 1_555
H8 C21 1_555 1_555
H9 C21 1_555 1_555
C22 C16 1_555 1_555
H10 C22 1_555 1_555
C23 C20 1_555 1_555
H11 C23 1_555 1_555
C24 C15 1_555 1_555
H12 C24 1_555 1_555
C25 C12 1_555 1_555
H13 C25 1_555 1_555
C26 C12 1_555 1_555
H14 C26 1_555 1_555
H15 C26 1_555 1_555
C27 C25 1_555 1_555
H16 C27 1_555 1_555
O1 C5 1_555 1_555
O3 C9 1_555 1_555
O4 C7 1_555 1_555
N1 C20 1_555 1_555
N2 C18 1_555 1_555
N3 C5 1_555 1_555
N4 C7 1_555 1_555
N5 Co1 1_555 1_555
S1 C17 1_555 1_555
Co1B N2 1_555 1_555
Co1B_2 N2A 1_555 1_555
C1A C2A 1_555 1_555
C2A C3A 1_555 1_555
C3A C11A 1_555 1_555
C4A C1A 1_555 1_555
C5A C6A 1_555 1_555
C6A C2A 1_555 1_555
C7A C4A 1_555 1_555
C8A C1A 1_555 1_555
C9A C8A 1_555 1_555
C10A C8A 1_555 1_555
H1A C10A 1_555 1_555
C11A O2A 1_555 1_555
C12A C23A 1_555 1_555
C13A C6A 1_555 1_555
H2A C13A 1_555 1_555
C14A C3A 1_555 1_555
H3A C14A 1_555 1_555
C15A C16A 1_555 1_555
C16A H4A 1_555 1_555
C17A N5A 1_555 1_555
C18A H5A 1_555 1_555
C19A C4A 1_555 1_555
H6A C19A 1_555 1_555
C20A H7A 1_555 1_555
C21A C15A 1_555 1_555
H8A C21A 1_555 1_555
H9A C21A 1_555 1_555
C22A C16A 1_555 1_555
H10A C22A 1_555 1_555
C23A C20A 1_555 1_555
H11A C23A 1_555 1_555
C24A C15A 1_555 1_555
H12A C24A 1_555 1_555
C25A C12A 1_555 1_555
H13A C25A 1_555 1_555
C26A C12A 1_555 1_555
H14A C26A 1_555 1_555
H15A C26A 1_555 1_555
C27A C25A 1_555 1_555
H16A C27A 1_555 1_555
O1A C5A 1_555 1_555
O3A C9A 1_555 1_555
O4A C7A 1_555 1_555
N1A Co1 1_555 1_555
N2A C18A 1_555 1_555
N2B Co1 1_555 1_555
N2C Co1 1_555 1_555
N3A C5A 1_555 1_555
N4A C7A 1_555 1_555
N5A Co1 1_555 1_555
S1A C17A 1_555 1_555
C9 N4 1_555 1_555
C10 C13 1_555 1_555
C11 N3 1_555 1_555
C14 C19 1_555 1_555
C18 C24 1_555 1_555
C21 N3 1_555 1_555
C22 N2 1_555 1_555
C26 N4 1_555 1_555
C27 N1 1_555 1_555
C9A N4A 1_555 1_555
C10A C13A 1_555 1_555
C11A N3A 1_555 1_555
C14A C19A 1_555 1_555
C18A C24A 1_555 1_555
C20A N1A 1_555 1_555
C21A N3A 1_555 1_555
C22A N2A 1_555 1_555
C26A N4A 1_555 1_555
C27A N1A 1_555 1_555

#END
