
#######################################################################
#
#                 Cambridge Crystallographic Data Centre
#                                CCDC 
#
#######################################################################
#
# If this CIF has been generated from an entry in the Cambridge 
# Structural Database, then it will include bibliographic, chemical, 
# crystal, experimental, refinement or atomic coordinate data resulting 
# from the CCDC's data processing and validation procedures.
#
#######################################################################

data_OWEZEW
_symmetry_cell_setting           monoclinic
_symmetry_space_group_name_H-M   'P 21/c'
_symmetry_Int_Tables_number      14
_space_group_name_Hall           '-P 2ybc'
loop_
_symmetry_equiv_pos_site_id
_symmetry_equiv_pos_as_xyz
1 x,y,z
2 -x,1/2+y,1/2-z
3 -x,-y,-z
4 x,1/2-y,1/2+z
_cell_length_a                   10.2023(4)
_cell_length_b                   16.4489(7)
_cell_length_c                   7.4756(3)
_cell_angle_alpha                90
_cell_angle_beta                 102.316(2)
_cell_angle_gamma                90
_cell_volume                     1225.66
loop_
_atom_site_label
_atom_site_type_symbol
_atom_site_fract_x
_atom_site_fract_y
_atom_site_fract_z
Ca1 Ca 0.24866(7) 0.09651(4) 0.86992(11)
O1 O 0.1968(3) 0.16791(19) 1.1282(5)
O2 O 0.3810(4) 0.0485(2) 0.6487(5)
O3 O 0.4115(4) 0.0451(2) 1.1221(6)
O4 O 0.1532(4) 0.1669(2) 0.5983(5)
O5 O 0.0044(3) 0.09743(17) 0.8542(5)
O6 O -0.5955(3) 0.29794(19) 0.3962(5)
O7 O -0.2004(3) 0.45983(17) 0.6858(5)
C1 C -0.5331(4) 0.2332(2) 0.4355(5)
C2 C -0.3888(3) 0.2368(2) 0.5394(5)
C3 C -0.3162(4) 0.1656(2) 0.5889(5)
H1 H -0.3562 0.1153 0.5574
C4 C -0.3269(4) 0.3118(2) 0.5840(5)
H2 H -0.3754 0.3593 0.5507
C5 C -0.1932(3) 0.3167(2) 0.6779(5)
C6 C -0.1229(4) 0.2453(2) 0.7308(5)
H3 H -0.0348 0.2478 0.7970
O8 O -0.5823(3) 0.16325(18) 0.3934(4)
O9 O -0.1470(3) 0.02839(17) 0.6537(5)
H4 H -0.1476 0.0332 0.5443
C7 C -0.1009(4) 0.0952(2) 0.7393(5)
C8 C -0.1832(3) 0.1698(2) 0.6857(5)
C9 C -0.1284(4) 0.3989(2) 0.7205(6)
O10 O -0.0028(3) 0.40057(16) 0.7907(4)
H5 H 0.112(6) 0.153(4) 0.510(9)
H6 H 0.162(7) 0.212(5) 0.595(9)
H7 H 0.421(8) 0.077(5) 1.224(11)
H8 H 0.455(8) 0.007(5) 1.158(10)
H9 H 0.387(8) 0.084(5) 0.573(12)
H10 H 0.331(7) 0.020(5) 0.584(10)
H11 H 0.137(6) 0.153(3) 1.160(8)
H12 H 0.251(7) 0.170(4) 1.222(9)
Ca1C Ca -0.75134(7) 0.40349(4) 0.36992(11)
Ca1A Ca -0.24866(7) 0.59651(4) 0.63008(11)
O6C O 0.4045(3) 0.20206(19) 0.8962(5)
O7A O 0.2004(3) -0.04017(17) 0.8142(5)
loop_
_geom_bond_atom_site_label_1
_geom_bond_atom_site_label_2
_geom_bond_site_symmetry_1
_geom_bond_site_symmetry_2
Ca1 O1 1_555 1_555
O1 H11 1_555 1_555
O2 Ca1 1_555 1_555
O3 Ca1 1_555 1_555
O4 Ca1 1_555 1_555
O5 Ca1 1_555 1_555
O6 C1 1_555 1_555
O7 C9 1_555 1_555
C1 C2 1_555 1_555
C2 C3 1_555 1_555
C3 H1 1_555 1_555
C4 C2 1_555 1_555
H2 C4 1_555 1_555
C5 C4 1_555 1_555
C6 C5 1_555 1_555
H3 C6 1_555 1_555
O8 C1 1_555 1_555
O9 H4 1_555 1_555
C7 O5 1_555 1_555
C8 C3 1_555 1_555
C9 C5 1_555 1_555
O10 C9 1_555 1_555
H5 O4 1_555 1_555
H6 O4 1_555 1_555
H7 O3 1_555 1_555
H8 O3 1_555 1_555
H9 O2 1_555 1_555
H10 O2 1_555 1_555
H12 O1 1_555 1_555
Ca1C O6 1_555 1_555
Ca1A O7 1_555 1_555
O6C Ca1 1_555 1_555
O7A Ca1 1_555 1_555
C6 C8 1_555 1_555
O9 C7 1_555 1_555
C7 C8 1_555 1_555

#END
