
#######################################################################
#
#                 Cambridge Crystallographic Data Centre
#                                CCDC 
#
#######################################################################
#
# If this CIF has been generated from an entry in the Cambridge 
# Structural Database, then it will include bibliographic, chemical, 
# crystal, experimental, refinement or atomic coordinate data resulting 
# from the CCDC's data processing and validation procedures.
#
#######################################################################

data_OWIBAY
_symmetry_cell_setting           triclinic
_symmetry_space_group_name_H-M   'P -1'
_symmetry_Int_Tables_number      2
_space_group_name_Hall           '-P 1'
loop_
_symmetry_equiv_pos_site_id
_symmetry_equiv_pos_as_xyz
1 x,y,z
2 -x,-y,-z
_cell_length_a                   10.9094(9)
_cell_length_b                   11.8217(9)
_cell_length_c                   15.4840(11)
_cell_angle_alpha                90.342(5)
_cell_angle_beta                 107.225(5)
_cell_angle_gamma                92.522(5)
_cell_volume                     1905.15
loop_
_atom_site_label
_atom_site_type_symbol
_atom_site_fract_x
_atom_site_fract_y
_atom_site_fract_z
Cd1 Cd 0.5000 -0.5000 0.5000
N1 N 0.3808(17) -0.4992(15) 0.6059(12)
N2 N 0.0404(19) -0.5016(18) 0.9268(13)
N3 N 0.5200(17) -0.3010(15) 0.4995(12)
C1 C 0.252(2) -0.4997(17) 0.5777(15)
H1 H 0.2093 -0.5012 0.5160
C2 C 0.1810(19) -0.4981(18) 0.6382(12)
H2 H 0.0922 -0.4941 0.6175
C3 C 0.2440(18) -0.5027(15) 0.7311(12)
C4 C 0.1676(18) -0.5013(18) 0.7957(16)
C5 C 0.049(2) -0.556(3) 0.7809(16)
H3 H 0.0091 -0.5935 0.7262
C6 C -0.010(2) -0.554(3) 0.850(2)
H4 H -0.0898 -0.5921 0.8401
C7 C 0.156(2) -0.454(2) 0.9430(16)
H5 H 0.1961 -0.4222 0.9999
C8 C 0.221(2) -0.451(3) 0.8787(14)
H6 H 0.3012 -0.4142 0.8921
C9 C 0.3737(18) -0.5110(17) 0.7588(13)
H7 H 0.4181 -0.5197 0.8196
C10 C 0.439(2) -0.506(2) 0.6923(15)
H8 H 0.5278 -0.5078 0.7112
C11 C 0.539(3) -0.237(2) 0.5767(15)
H9 H 0.5594 -0.2738 0.6317
C12 C 0.531(3) -0.1241(19) 0.5780(13)
H10 H 0.5428 -0.0866 0.6330
C13 C 0.5060(18) -0.0615(15) 0.4995(11)
C14 C 0.492(2) -0.1234(16) 0.4196(13)
H11 H 0.4788 -0.0872 0.3647
C15 C 0.498(2) -0.2400(16) 0.4246(14)
H12 H 0.4852 -0.2797 0.3704
O23 O 0.6914(14) -0.5125(13) 0.6194(10)
Cd1_2 Cd 0.5000 0.5000 0.5000
N1A N 0.6192(17) -0.5008(15) 0.3941(12)
N2A N 0.9596(19) -0.4984(18) 0.0732(13)
N3A N 0.4800(17) 0.3010(15) 0.5005(12)
N3A_2 N 0.4800(17) -0.6990(15) 0.5005(12)
C1A C 0.748(2) -0.5003(17) 0.4223(15)
H1A H 0.7907 -0.4988 0.4840
C2A C 0.8190(19) -0.5019(18) 0.3618(12)
H2A H 0.9078 -0.5059 0.3825
C3A C 0.7560(18) -0.4973(15) 0.2689(12)
C4A C 0.8324(18) -0.4987(18) 0.2043(16)
C5A C 0.951(2) -0.444(3) 0.2191(16)
H3A H 0.9909 -0.4065 0.2738
C6A C 1.010(2) -0.446(3) 0.150(2)
H4A H 1.0898 -0.4079 0.1599
C7A C 0.844(2) -0.546(2) 0.0570(16)
H5A H 0.8039 -0.5778 0.0001
C8A C 0.779(2) -0.549(3) 0.1213(14)
H6A H 0.6988 -0.5858 0.1079
C9A C 0.6263(18) -0.4890(17) 0.2412(13)
H7A H 0.5819 -0.4803 0.1804
C10A C 0.561(2) -0.494(2) 0.3077(15)
H8A H 0.4722 -0.4922 0.2888
C11A C 0.461(3) 0.237(2) 0.4233(15)
H9A H 0.4406 0.2738 0.3683
C12A C 0.469(3) 0.1241(19) 0.4220(13)
H10A H 0.4572 0.0866 0.3670
C13A C 0.4940(18) 0.0615(15) 0.5005(11)
C14A C 0.508(2) 0.1234(16) 0.5804(13)
H11A H 0.5212 0.0872 0.6353
C15A C 0.502(2) 0.2400(16) 0.5754(14)
H12A H 0.5148 0.2797 0.6296
O23A O 0.3086(14) -0.4875(13) 0.3806(10)
N4 N 0.1903(18) -0.2846(17) 0.3891(13)
N5 N 0.068(2) 0.2963(19) 0.4365(17)
C16 C 0.192(3) -0.238(2) 0.4692(18)
H13 H 0.2125 -0.2837 0.5197
C17 C 0.165(2) -0.127(2) 0.4815(15)
H14 H 0.1683 -0.0996 0.5386
C18 C 0.1323(19) -0.0578(16) 0.4071(14)
C19 C 0.1069(19) 0.0640(18) 0.4188(13)
C20 C 0.155(2) 0.122(2) 0.4998(16)
H15 H 0.2034 0.0842 0.5503
C21 C 0.133(3) 0.233(2) 0.5069(17)
H16 H 0.1640 0.2681 0.5635
C22 C 0.019(2) 0.238(2) 0.3607(16)
H17 H -0.0317 0.2771 0.3120
C23 C 0.035(2) 0.126(2) 0.3461(16)
H18 H -0.0005 0.0918 0.2894
C24 C 0.130(2) -0.1045(19) 0.3263(16)
H19 H 0.1081 -0.0615 0.2744
C25 C 0.162(2) -0.218(2) 0.3213(17)
H20 H 0.1620 -0.2463 0.2653
O24 O 0.771(3) 0.644(2) -0.228(2)
Mo1 Mo 0.31028(18) 0.0504(2) 0.14929(11)
Mo2 Mo 0.17213(15) -0.11392(17) -0.06876(13)
Mo3 Mo 0.39344(17) -0.23140(15) 0.12282(10)
Mo4 Mo 0.41947(15) 0.28658(14) 0.02486(11)
Mo5 Mo 0.63560(15) 0.15849(16) 0.21416(10)
Mo6 Mo 0.71874(14) -0.12582(14) 0.19437(10)
Sb1 Sb 0.13241(12) 0.15598(13) -0.03973(8)
P1 P 0.5000 0.0000 0.0000
O1 O 0.617(2) 0.016(2) 0.0866(15)
O2 O 0.475(2) 0.092(3) 0.0624(18)
O3 O 0.459(2) 0.106(2) -0.0495(16)
O4 O 0.387(2) -0.0527(19) 0.0351(15)
O5 O 0.4682(17) 0.108(3) 0.2204(14)
O6 O 0.343(3) -0.096(2) 0.1713(14)
O7 O 0.3744(18) 0.4167(16) 0.0374(16)
O8 O 0.244(3) -0.211(2) 0.0188(14)
O9 O 0.2200(14) 0.0838(15) 0.2139(10)
O10 O 0.0201(15) -0.1574(16) -0.0981(11)
O11 O 0.2757(16) 0.2292(17) -0.0894(11)
O12 O 0.8264(17) -0.186(2) 0.2776(11)
O13 O 0.5694(16) -0.1930(18) 0.1974(11)
O14 O 0.4707(16) -0.3096(17) 0.0430(13)
O15 O 0.341(2) -0.3350(17) 0.1751(12)
O16 O 0.5425(16) 0.269(2) 0.1322(13)
O17 O 0.694(2) 0.2335(16) 0.3106(12)
O18 O 0.1596(18) 0.0387(14) -0.1325(14)
O19 O 0.2276(19) -0.1731(15) -0.1588(15)
O20 O 0.2894(14) 0.191(2) 0.0726(11)
O21 O 0.174(2) 0.0052(17) 0.0287(12)
O22 O 0.699(2) 0.0088(16) 0.2484(17)
Mo1A Mo 0.68972(18) -0.0504(2) -0.14929(11)
Mo2A Mo 0.82787(15) 0.11392(17) 0.06876(13)
Mo3A Mo 0.60656(17) 0.23140(15) -0.12282(10)
Mo4A Mo 0.58053(15) -0.28658(14) -0.02486(11)
Mo5A Mo 0.36440(15) -0.15849(16) -0.21416(10)
Mo6A Mo 0.28126(14) 0.12582(14) -0.19437(10)
Sb1A Sb 0.86759(12) -0.15598(13) 0.03973(8)
O1A O 0.383(2) -0.016(2) -0.0866(15)
O2A O 0.525(2) -0.092(3) -0.0624(18)
O3A O 0.541(2) -0.106(2) 0.0495(16)
O4A O 0.613(2) 0.0527(19) -0.0351(15)
O5A O 0.5318(17) -0.108(3) -0.2204(14)
O6A O 0.657(3) 0.096(2) -0.1713(14)
O7A O 0.6256(18) -0.4167(16) -0.0374(16)
O8A O 0.756(3) 0.211(2) -0.0188(14)
O9A O 0.7800(14) -0.0838(15) -0.2139(10)
O10A O 0.9799(15) 0.1574(16) 0.0981(11)
O11A O 0.7243(16) -0.2292(17) 0.0894(11)
O12A O 0.1736(17) 0.186(2) -0.2776(11)
O13A O 0.4306(16) 0.1930(18) -0.1974(11)
O14A O 0.5293(16) 0.3096(17) -0.0430(13)
O15A O 0.659(2) 0.3350(17) -0.1751(12)
O16A O 0.4575(16) -0.269(2) -0.1322(13)
O17A O 0.306(2) -0.2335(16) -0.3106(12)
O18A O 0.8404(18) -0.0387(14) 0.1325(14)
O19A O 0.7724(19) 0.1731(15) 0.1588(15)
O20A O 0.7106(14) -0.191(2) -0.0726(11)
O21A O 0.826(2) -0.0052(17) -0.0287(12)
O22A O 0.301(2) -0.0088(16) -0.2484(17)
loop_
_geom_bond_atom_site_label_1
_geom_bond_atom_site_label_2
_geom_bond_site_symmetry_1
_geom_bond_site_symmetry_2
Mo1 O2 1_555 1_555
Mo2 O4 1_555 1_555
Mo3 O4 1_555 1_555
Mo4 O2 1_555 1_555
Mo5 O1 1_555 1_555
Mo6 O1 1_555 1_555
Sb1 O11 1_555 1_555
P1 O1 1_555 1_555
Cd1 N1 1_555 1_555
O1 O2 1_555 1_555
O2 Mo5 1_555 1_555
O3 Mo4 1_555 1_555
O4 Mo1 1_555 1_555
O5 Mo1 1_555 1_555
O6 Mo1 1_555 1_555
O7 Mo4 1_555 1_555
O8 Mo2 1_555 1_555
O9 Mo1 1_555 1_555
O10 Mo2 1_555 1_555
O11 Mo4 1_555 1_555
O12 Mo6 1_555 1_555
O13 Mo3 1_555 1_555
O14 Mo3 1_555 1_555
O15 Mo3 1_555 1_555
O16 Mo4 1_555 1_555
O17 Mo5 1_555 1_555
O18 Mo2 1_555 1_555
O19 Mo2 1_555 1_555
O20 Mo1 1_555 1_555
O21 Mo1 1_555 1_555
O22 Mo5 1_555 1_555
N1 C1 1_555 1_555
N2 C6 1_555 1_555
N3 Cd1 1_555 1_555
N4 C16 1_555 1_555
N5 C21 1_555 1_555
C1 H1 1_555 1_555
C2 C1 1_555 1_555
H2 C2 1_555 1_555
C3 C2 1_555 1_555
C4 C3 1_555 1_555
C5 C4 1_555 1_555
H3 C5 1_555 1_555
C6 C5 1_555 1_555
H4 C6 1_555 1_555
C7 N2 1_555 1_555
H5 C7 1_555 1_555
C8 C4 1_555 1_555
H6 C8 1_555 1_555
C9 C3 1_555 1_555
H7 C9 1_555 1_555
C10 N1 1_555 1_555
H8 C10 1_555 1_555
C11 N3 1_555 1_555
H9 C11 1_555 1_555
C12 C11 1_555 1_555
H10 C12 1_555 1_555
C13 C12 1_555 1_555
C14 C13 1_555 1_555
H11 C14 1_555 1_555
C15 N3 1_555 1_555
H12 C15 1_555 1_555
C16 H13 1_555 1_555
C17 C16 1_555 1_555
H14 C17 1_555 1_555
C18 C17 1_555 1_555
C19 C18 1_555 1_555
C20 C19 1_555 1_555
H15 C20 1_555 1_555
C21 C20 1_555 1_555
H16 C21 1_555 1_555
C22 N5 1_555 1_555
H17 C22 1_555 1_555
C23 C19 1_555 1_555
H18 C23 1_555 1_555
C24 C18 1_555 1_555
H19 C24 1_555 1_555
C25 N4 1_555 1_555
H20 C25 1_555 1_555
O23 Cd1 1_555 1_555
Mo1A O2A 1_555 1_555
Mo2A O4A 1_555 1_555
Mo3A O4A 1_555 1_555
Mo4A O14 1_555 1_555
Mo5A O19 1_555 1_555
Mo6A O3 1_555 1_555
Sb1A O11A 1_555 1_555
Cd1_2 N3A 1_555 1_555
O1A P1 1_555 1_555
O2A P1 1_555 1_555
O3A Mo6 1_555 1_555
O4A P1 1_555 1_555
O5A Mo1A 1_555 1_555
O6A Mo1A 1_555 1_555
O7A Mo4A 1_555 1_555
O8A Mo2A 1_555 1_555
O9A Mo1A 1_555 1_555
O10A Mo2A 1_555 1_555
O11A Mo6 1_555 1_555
O12A Mo6A 1_555 1_555
O13A Mo3A 1_555 1_555
O14A Mo4 1_555 1_555
O15A Mo3A 1_555 1_555
O16A Mo4A 1_555 1_555
O17A Mo5A 1_555 1_555
O18A Mo6 1_555 1_555
O19A Mo5 1_555 1_555
O20A Mo1A 1_555 1_555
O21A Mo1A 1_555 1_555
O22A Mo5A 1_555 1_555
N1A Cd1 1_555 1_555
N2A C6A 1_555 1_555
N3A C11A 1_555 1_555
N3A_2 Cd1 1_555 1_555
C1A N1A 1_555 1_555
H1A C1A 1_555 1_555
C2A C1A 1_555 1_555
H2A C2A 1_555 1_555
C3A C2A 1_555 1_555
C4A C3A 1_555 1_555
C5A C4A 1_555 1_555
H3A C5A 1_555 1_555
C6A C5A 1_555 1_555
H4A C6A 1_555 1_555
C7A N2A 1_555 1_555
H5A C7A 1_555 1_555
C8A C4A 1_555 1_555
H6A C8A 1_555 1_555
C9A C3A 1_555 1_555
H7A C9A 1_555 1_555
C10A N1A 1_555 1_555
H8A C10A 1_555 1_555
C11A H9A 1_555 1_555
C12A C11A 1_555 1_555
H10A C12A 1_555 1_555
C13A C13 1_555 1_555
C14A C13A 1_555 1_555
H11A C14A 1_555 1_555
C15A N3A 1_555 1_555
H12A C15A 1_555 1_555
O23A Cd1 1_555 1_555
Mo2 O21 1_555 1_555
Mo3 O6 1_555 1_555
Mo3 O8 1_555 1_555
Mo4 O20 1_555 1_555
Mo5 O5 1_555 1_555
Mo5 O16 1_555 1_555
Mo6 O13 1_555 1_555
Mo6 O22 1_555 1_555
Sb1 O18 1_555 1_555
Sb1 O20 1_555 1_555
Sb1 O21 1_555 1_555
P1 O2 1_555 1_555
P1 O3 1_555 1_555
P1 O4 1_555 1_555
P1 O3A 1_555 1_555
O1 O3A 1_555 1_555
O2 O3 1_555 1_555
O3 O1A 1_555 1_555
O3 O4A 1_555 1_555
O4 O3A 1_555 1_555
O11 Mo6A 1_555 1_555
O18 Mo6A 1_555 1_555
C7 C8 1_555 1_555
C9 C10 1_555 1_555
C14 C15 1_555 1_555
C22 C23 1_555 1_555
C24 C25 1_555 1_555
Mo1A O4A 1_555 1_555
Mo2A O18A 1_555 1_555
Mo2A O19A 1_555 1_555
Mo2A O21A 1_555 1_555
Mo3A O6A 1_555 1_555
Mo3A O8A 1_555 1_555
Mo3A O14A 1_555 1_555
Mo4A O2A 1_555 1_555
Mo4A O3A 1_555 1_555
Mo4A O11A 1_555 1_555
Mo4A O20A 1_555 1_555
Mo5A O1A 1_555 1_555
Mo5A O2A 1_555 1_555
Mo5A O5A 1_555 1_555
Mo5A O16A 1_555 1_555
Mo6A O1A 1_555 1_555
Mo6A O13A 1_555 1_555
Mo6A O22A 1_555 1_555
Sb1A O18A 1_555 1_555
Sb1A O20A 1_555 1_555
Sb1A O21A 1_555 1_555
O1A O2A 1_555 1_555
O2A O3A 1_555 1_555
C7A C8A 1_555 1_555
C9A C10A 1_555 1_555
C12A C13A 1_555 1_555
C14A C15A 1_555 1_555

#END
