
#######################################################################
#
#                 Cambridge Crystallographic Data Centre
#                                CCDC 
#
#######################################################################
#
# If this CIF has been generated from an entry in the Cambridge 
# Structural Database, then it will include bibliographic, chemical, 
# crystal, experimental, refinement or atomic coordinate data resulting 
# from the CCDC's data processing and validation procedures.
#
#######################################################################

data_OWIGIL
_symmetry_cell_setting           monoclinic
_symmetry_space_group_name_H-M   'P 21/c'
_symmetry_Int_Tables_number      14
_space_group_name_Hall           '-P 2ybc'
loop_
_symmetry_equiv_pos_site_id
_symmetry_equiv_pos_as_xyz
1 x,y,z
2 -x,1/2+y,1/2-z
3 -x,-y,-z
4 x,1/2-y,1/2+z
_cell_length_a                   10.324(2)
_cell_length_b                   13.256(3)
_cell_length_c                   10.426(2)
_cell_angle_alpha                90
_cell_angle_beta                 92.36(3)
_cell_angle_gamma                90
_cell_volume                     1425.64
loop_
_atom_site_label
_atom_site_type_symbol
_atom_site_fract_x
_atom_site_fract_y
_atom_site_fract_z
Co1 Co 0.5000 0.5000 0.5000
N1 N 0.65225(11) 0.49733(10) 0.36458(12)
C1 C 0.74229(13) 0.42654(11) 0.35023(14)
H1 H 0.7489(19) 0.6202(14) 0.913(2)
Co2 Co 1.011612(17) 0.634169(15) 0.766341(17)
N2 N 0.83672(12) 0.45351(10) 0.27088(12)
C2 C 0.80284(16) 0.54937(13) 0.23180(17)
H2 H 0.7408(17) 0.3628(14) 0.3939(17)
N3 N 0.64380(12) 0.53068(10) 0.64921(12)
C3 C 0.69105(15) 0.57576(13) 0.28945(16)
H3 H 0.8142(18) 0.5341(14) 0.5584(18)
N4 N 0.83055(12) 0.58572(10) 0.74287(12)
C4 C 0.77000(14) 0.54771(12) 0.63686(14)
H4 H 1.1326(19) 0.5521(15) 1.0226(18)
N5 N 0.52806(12) 0.33691(10) 0.52687(12)
C5 C 0.73460(14) 0.59420(12) 0.83023(14)
H5 H 1.128(2) 0.6413(15) 1.238(2)
N6 N 0.62844(15) 0.19574(12) 0.58178(15)
C6 C 0.62141(14) 0.56009(12) 0.77300(14)
H6 H 0.5369(18) 0.5576(14) 0.8049(17)
N7 N 1.03607(12) 0.67396(10) 0.95107(11)
C7 C 0.61094(15) 0.29360(13) 0.60990(16)
H7 H 0.9528(19) 0.8084(15) 0.9753(18)
N8 N 1.03185(12) 0.75274(10) 1.14095(11)
C8 C 0.5520(2) 0.17484(14) 0.47454(18)
H8 H 0.653(2) 0.3270(16) 0.680(2)
C9 C 0.49051(17) 0.26205(13) 0.44309(16)
H9 H 0.854(2) 0.5876(17) 0.176(2)
C10 C 0.99841(15) 0.75539(12) 1.01536(14)
H10 H 0.645(2) 0.6370(16) 0.284(2)
C11 C 1.09516(15) 0.66217(12) 1.15796(14)
H11 H 0.431(2) 0.2756(17) 0.374(2)
C12 C 1.09754(15) 0.61405(12) 1.04283(15)
H12 H 0.680(3) 0.152(2) 0.624(3)
H13 H 0.551(3) 0.114(2) 0.434(3)
N1B N 0.34775(11) 0.50267(10) 0.63542(12)
C1B C 0.25771(13) 0.57346(11) 0.64977(14)
H1B H 0.2511(19) 0.3798(14) 0.087(2)
Co2B Co -0.011612(17) 0.365831(15) 0.233659(17)
Co2_2 Co 0.011612(17) 0.634169(15) 0.766341(17)
Co2A Co -0.011612(17) 0.134169(15) -0.266341(17)
Co2B_2 Co 0.988388(17) 0.365831(15) 0.233659(17)
Co2C Co 1.011612(17) 0.865831(15) 1.266341(17)
N2B N 0.16328(12) 0.54649(10) 0.72912(12)
N2_2 N -0.16328(12) 0.45351(10) 0.27088(12)
N2B_2 N 1.16328(12) 0.54649(10) 0.72912(12)
C2B C 0.19716(16) 0.45063(13) 0.76820(17)
H2B H 0.2592(17) 0.6372(14) 0.6061(17)
N3B N 0.35620(12) 0.46932(10) 0.35079(12)
C3B C 0.30895(15) 0.42424(13) 0.71055(16)
H3B H 0.1858(18) 0.4659(14) 0.4416(18)
N4B N 0.16945(12) 0.41428(10) 0.25713(12)
C4B C 0.23000(14) 0.45229(12) 0.36314(14)
H4B H -0.1326(19) 0.4479(15) -0.0226(18)
N5B N 0.47194(12) 0.66309(10) 0.47313(12)
C5B C 0.26540(14) 0.40580(12) 0.16977(14)
H5B H -0.128(2) 0.3587(15) -0.238(2)
N6B N 0.37156(15) 0.80426(12) 0.41822(15)
C6B C 0.37859(14) 0.43991(12) 0.22700(14)
H6B H 0.4631(18) 0.4424(14) 0.1951(17)
N7B N -0.03607(12) 0.32604(10) 0.04893(11)
C7B C 0.38906(15) 0.70640(13) 0.39010(16)
H7B H 0.0472(19) 0.1916(15) 0.0247(18)
N8B N -0.03185(12) 0.24726(10) -0.14095(11)
N8A N -0.03185(12) 0.25274(10) 0.35905(11)
N8C N 1.03185(12) 0.74726(10) 0.64095(11)
C8B C 0.4480(2) 0.82516(14) 0.52546(18)
H8B H 0.347(2) 0.6730(16) 0.320(2)
C9B C 0.50949(17) 0.73795(13) 0.55691(16)
H9B H 0.146(2) 0.4124(17) 0.824(2)
C10B C 0.00159(15) 0.24461(12) -0.01536(14)
H10B H 0.355(2) 0.3630(16) 0.716(2)
C11B C -0.09516(15) 0.33783(12) -0.15796(14)
H11B H 0.569(2) 0.7244(17) 0.626(2)
C12B C -0.09754(15) 0.38595(12) -0.04283(15)
H12B H 0.320(3) 0.848(2) 0.376(3)
H13B H 0.449(3) 0.886(2) 0.566(3)
loop_
_geom_bond_atom_site_label_1
_geom_bond_atom_site_label_2
_geom_bond_site_symmetry_1
_geom_bond_site_symmetry_2
Co1 N1 1_555 1_555
N1 C1 1_555 1_555
C1 N2 1_555 1_555
H1 C5 1_555 1_555
Co2 N4 1_555 1_555
N2 C2 1_555 1_555
C2 C3 1_555 1_555
H2 C1 1_555 1_555
N3 Co1 1_555 1_555
C3 N1 1_555 1_555
H3 C4 1_555 1_555
N4 C4 1_555 1_555
C4 N3 1_555 1_555
H4 C12 1_555 1_555
N5 Co1 1_555 1_555
C5 N4 1_555 1_555
H5 C11 1_555 1_555
N6 C7 1_555 1_555
C6 N3 1_555 1_555
H6 C6 1_555 1_555
N7 Co2 1_555 1_555
C7 N5 1_555 1_555
H7 C10 1_555 1_555
N8 C10 1_555 1_555
C8 N6 1_555 1_555
H8 C7 1_555 1_555
C9 N5 1_555 1_555
H9 C2 1_555 1_555
C10 N7 1_555 1_555
H10 C3 1_555 1_555
C11 N8 1_555 1_555
H11 C9 1_555 1_555
C12 N7 1_555 1_555
H12 N6 1_555 1_555
H13 C8 1_555 1_555
N1B Co1 1_555 1_555
C1B N1B 1_555 1_555
H1B C5B 1_555 1_555
Co2B N2_2 1_555 1_555
Co2_2 N2B 1_555 1_555
Co2A N8B 1_555 1_555
Co2B_2 N2 1_555 1_555
Co2C N8 1_555 1_555
N2B C1B 1_555 1_555
N2B_2 Co2 1_555 1_555
C2B N2B 1_555 1_555
H2B C1B 1_555 1_555
N3B Co1 1_555 1_555
C3B N1B 1_555 1_555
H3B C4B 1_555 1_555
N4B Co2B 1_555 1_555
C4B N3B 1_555 1_555
H4B C12B 1_555 1_555
N5B Co1 1_555 1_555
C5B N4B 1_555 1_555
H5B C11B 1_555 1_555
N6B C7B 1_555 1_555
C6B N3B 1_555 1_555
H6B C6B 1_555 1_555
N7B Co2B 1_555 1_555
C7B N5B 1_555 1_555
H7B C10B 1_555 1_555
N8B C10B 1_555 1_555
N8A Co2B 1_555 1_555
N8C Co2 1_555 1_555
C8B N6B 1_555 1_555
H8B C7B 1_555 1_555
C9B N5B 1_555 1_555
H9B C2B 1_555 1_555
C10B N7B 1_555 1_555
H10B C3B 1_555 1_555
C11B N8B 1_555 1_555
H11B C9B 1_555 1_555
C12B N7B 1_555 1_555
H12B N6B 1_555 1_555
H13B C8B 1_555 1_555
C5 C6 1_555 1_555
C8 C9 1_555 1_555
C11 C12 1_555 1_555
C2B C3B 1_555 1_555
N4B C4B 1_555 1_555
C5B C6B 1_555 1_555
C8B C9B 1_555 1_555
C11B C12B 1_555 1_555

#END
