
#######################################################################
#
#                 Cambridge Crystallographic Data Centre
#                                CCDC 
#
#######################################################################
#
# If this CIF has been generated from an entry in the Cambridge 
# Structural Database, then it will include bibliographic, chemical, 
# crystal, experimental, refinement or atomic coordinate data resulting 
# from the CCDC's data processing and validation procedures.
#
#######################################################################

data_OWITAQ
_symmetry_cell_setting           cubic
_symmetry_space_group_name_H-M   'I a -3 d'
_symmetry_Int_Tables_number      230
_space_group_name_Hall           '-I 4bd 2c 3'
loop_
_symmetry_equiv_pos_site_id
_symmetry_equiv_pos_as_xyz
1 x,y,z
2 x,-y,1/2-z
3 1/2-x,-y,1/2+z
4 1/2-x,y,-z
5 1/4-y,3/4+x,1/4+z
6 1/4+y,3/4+x,3/4-z
7 1/4+y,1/4-x,3/4+z
8 1/4-y,1/4-x,1/4-z
9 y,z,x
10 1/2-y,-z,1/2+x
11 y,-z,1/2-x
12 1/2-y,z,-x
13 1/4-z,3/4+y,1/4+x
14 1/4-z,1/4-y,1/4-x
15 1/4+z,1/4-y,3/4+x
16 1/4+z,3/4+y,3/4-x
17 z,x,y
18 -z,1/2+x,1/2-y
19 -z,1/2-x,y
20 z,-x,1/2-y
21 1/4-x,1/4-z,1/4-y
22 1/4-x,3/4+z,1/4+y
23 3/4+x,3/4-z,1/4+y
24 1/4+x,3/4+z,3/4-y
25 1/2+x,1/2+y,1/2+z
26 1/2+x,1/2-y,-z
27 -x,1/2-y,z
28 -x,1/2+y,1/2-z
29 3/4-y,1/4+x,3/4+z
30 3/4+y,1/4+x,1/4-z
31 3/4+y,3/4-x,1/4+z
32 3/4-y,3/4-x,3/4-z
33 1/2+y,1/2+z,1/2+x
34 -y,1/2-z,x
35 1/2+y,1/2-z,-x
36 -y,1/2+z,1/2-x
37 3/4-z,1/4+y,3/4+x
38 3/4-z,3/4-y,3/4-x
39 3/4+z,3/4-y,1/4+x
40 3/4+z,1/4+y,1/4-x
41 1/2+z,1/2+x,1/2+y
42 1/2-z,x,-y
43 1/2-z,-x,1/2+y
44 1/2+z,1/2-x,-y
45 3/4-x,3/4-z,3/4-y
46 3/4-x,1/4+z,3/4+y
47 1/4+x,1/4-z,3/4+y
48 3/4+x,1/4+z,1/4-y
49 -x,-y,-z
50 -x,y,1/2+z
51 1/2+x,y,1/2-z
52 1/2+x,-y,z
53 3/4+y,1/4-x,3/4-z
54 3/4-y,1/4-x,1/4+z
55 3/4-y,3/4+x,1/4-z
56 3/4+y,3/4+x,3/4+z
57 -y,-z,-x
58 1/2+y,z,1/2-x
59 -y,z,1/2+x
60 1/2+y,-z,x
61 3/4+z,1/4-y,3/4-x
62 3/4+z,3/4+y,3/4+x
63 3/4-z,3/4+y,1/4-x
64 3/4-z,1/4-y,1/4+x
65 -z,-x,-y
66 z,1/2-x,1/2+y
67 z,1/2+x,-y
68 -z,x,1/2+y
69 3/4+x,3/4+z,3/4+y
70 3/4+x,1/4-z,3/4-y
71 1/4-x,1/4+z,3/4-y
72 3/4-x,1/4-z,1/4+y
73 1/2-x,1/2-y,1/2-z
74 1/2-x,1/2+y,z
75 x,1/2+y,-z
76 x,1/2-y,1/2+z
77 1/4+y,3/4-x,1/4-z
78 1/4-y,3/4-x,3/4+z
79 1/4-y,1/4+x,3/4-z
80 1/4+y,1/4+x,1/4+z
81 1/2-y,1/2-z,1/2-x
82 y,1/2+z,-x
83 1/2-y,1/2+z,x
84 y,1/2-z,1/2+x
85 1/4+z,3/4-y,1/4-x
86 1/4+z,1/4+y,1/4+x
87 1/4-z,1/4+y,3/4-x
88 1/4-z,3/4-y,3/4+x
89 1/2-z,1/2-x,1/2-y
90 1/2+z,-x,y
91 1/2+z,x,1/2-y
92 1/2-z,1/2+x,y
93 1/4+x,1/4+z,1/4+y
94 1/4+x,3/4-z,1/4-y
95 3/4-x,3/4+z,1/4-y
96 1/4-x,3/4-z,3/4+y
_cell_length_a                   22.266(5)
_cell_length_b                   22.266(5)
_cell_length_c                   22.266(5)
_cell_angle_alpha                90
_cell_angle_beta                 90
_cell_angle_gamma                90
_cell_volume                     11038.9
loop_
_atom_site_label
_atom_site_type_symbol
_atom_site_fract_x
_atom_site_fract_y
_atom_site_fract_z
Zn1 Zn 0.3750 0.3750 0.3750
O1 O 0.36528(11) 0.37554(13) 0.46620(13)
C1 C 0.31221(14) 0.37598(17) 0.48559(13)
C2 C 0.29672(15) 0.3750 0.54672(15)
H1 H 0.3263 0.3750 0.5763
Zn1C Zn 0.1250 0.3750 0.6250
Zn1A Zn 0.3750 0.6250 0.1250
Zn1E Zn 0.6250 0.1250 0.3750
O1LA O 0.21620(13) 0.37446(13) 0.61528(11)
O1C O 0.13472(11) 0.37554(13) 0.53380(13)
O1KA O 0.28380(13) 0.37446(13) 0.38472(11)
O1H O 0.37554(13) 0.46620(13) 0.36528(11)
O1BA O 0.37446(13) 0.61528(11) 0.21620(13)
O1J O 0.37554(13) 0.53380(13) 0.13472(11)
O1EA O 0.37446(13) 0.38472(11) 0.28380(13)
O1P O 0.46620(13) 0.36528(11) 0.37554(13)
O1W O 0.61528(11) 0.21620(13) 0.37446(13)
O1R O 0.53380(13) 0.13472(11) 0.37554(13)
O1RA O 0.38472(11) 0.28380(13) 0.37446(13)
O1JA O 0.28380(13) 0.62554(13) 0.11528(11)
O1A O 0.36528(11) 0.62446(13) 0.03380(13)
O1SA O 0.38472(11) 0.71620(13) 0.12554(13)
O1S O 0.46620(13) 0.63472(11) 0.12446(13)
C1LA C 0.23559(13) 0.37402(17) 0.56221(14)
C1C C 0.18779(14) 0.37598(17) 0.51441(13)
C1KA C 0.26441(13) 0.37402(17) 0.43779(14)
C1H C 0.37598(17) 0.48559(13) 0.31221(14)
C1BA C 0.37402(17) 0.56221(14) 0.23559(13)
C1J C 0.37598(17) 0.51441(13) 0.18779(14)
C1EA C 0.37402(17) 0.43779(14) 0.26441(13)
C1P C 0.48559(13) 0.31221(14) 0.37598(17)
C1W C 0.56221(14) 0.23559(13) 0.37402(17)
C1R C 0.51441(13) 0.18779(14) 0.37598(17)
C1RA C 0.43779(14) 0.26441(13) 0.37402(17)
C2C C 0.20328(15) 0.3750 0.45328(15)
C2H C 0.3750 0.54672(15) 0.29672(15)
C2J C 0.3750 0.45328(15) 0.20328(15)
C2P C 0.54672(15) 0.29672(15) 0.3750
C2R C 0.45328(15) 0.20328(15) 0.3750
H1C H 0.1737 0.3750 0.4237
H1H H 0.3750 0.5763 0.3263
H1J H 0.3750 0.4237 0.1737
H1P H 0.5763 0.3263 0.3750
H1R H 0.4237 0.1737 0.3750
loop_
_geom_bond_atom_site_label_1
_geom_bond_atom_site_label_2
_geom_bond_site_symmetry_1
_geom_bond_site_symmetry_2
Zn1 O1 1_555 1_555
O1 C1 1_555 1_555
C1 C2 1_555 1_555
C2 H1 1_555 1_555
Zn1C O1LA 1_555 1_555
Zn1A O1BA 1_555 1_555
Zn1E O1W 1_555 1_555
O1LA C1LA 1_555 1_555
O1C Zn1C 1_555 1_555
O1KA Zn1 1_555 1_555
O1H Zn1 1_555 1_555
O1BA C1BA 1_555 1_555
O1J Zn1A 1_555 1_555
O1EA Zn1 1_555 1_555
O1P Zn1 1_555 1_555
O1W C1W 1_555 1_555
O1R Zn1E 1_555 1_555
O1RA Zn1 1_555 1_555
O1JA Zn1A 1_555 1_555
O1A Zn1A 1_555 1_555
O1SA Zn1A 1_555 1_555
O1S Zn1A 1_555 1_555
C1LA C2 1_555 1_555
C1C O1C 1_555 1_555
C1KA C1 1_555 1_555
C1H O1H 1_555 1_555
C1BA C1J 1_555 1_555
C1J O1J 1_555 1_555
C1EA O1EA 1_555 1_555
C1P O1P 1_555 1_555
C1W C1R 1_555 1_555
C1R O1R 1_555 1_555
C1RA O1RA 1_555 1_555
C2C C1C 1_555 1_555
C2H C1H 1_555 1_555
C2J C1J 1_555 1_555
C2P C1P 1_555 1_555
C2R C1R 1_555 1_555
H1C C2C 1_555 1_555
H1H C2H 1_555 1_555
H1J C2J 1_555 1_555
H1P C2P 1_555 1_555
H1R C2R 1_555 1_555
O1KA C1KA 1_555 1_555
C1LA C1C 1_555 1_555
C1KA C2C 1_555 1_555
C1H C1EA 1_555 1_555
C1BA C2H 1_555 1_555
C1EA C2J 1_555 1_555
C1P C1RA 1_555 1_555
C1W C2P 1_555 1_555
C1RA C2R 1_555 1_555

#END
