
#######################################################################
#
#                 Cambridge Crystallographic Data Centre
#                                CCDC 
#
#######################################################################
#
# If this CIF has been generated from an entry in the Cambridge 
# Structural Database, then it will include bibliographic, chemical, 
# crystal, experimental, refinement or atomic coordinate data resulting 
# from the CCDC's data processing and validation procedures.
#
#######################################################################

data_OWITIY
_symmetry_cell_setting           tetragonal
_symmetry_space_group_name_H-M   'I 41/a c d'
_symmetry_Int_Tables_number      142
_space_group_name_Hall           'I -4 2aw -1bw'
loop_
_symmetry_equiv_pos_site_id
_symmetry_equiv_pos_as_xyz
1 x,y,z
2 1/2+x,-y,1/4-z
3 -x,1/2-y,1/4-z
4 1/2-x,1/2-y,1/2+z
5 -x,1/2+y,3/4-z
6 1/2+x,y,3/4-z
7 1/2-x,1/2+y,z
8 x,-y,1/2+z
9 -y,1/2+x,1/4+z
10 y,x,1/2-z
11 1/2-y,1/2-x,-z
12 -y,x,-z
13 1/2+y,1/2-x,1/2-z
14 y,1/2+x,3/4+z
15 1/2+y,-x,3/4+z
16 1/2-y,-x,1/4+z
17 1/2+x,1/2+y,1/2+z
18 x,1/2-y,3/4-z
19 1/2-x,-y,3/4-z
20 -x,-y,z
21 1/2-x,y,1/4-z
22 x,1/2+y,1/4-z
23 -x,y,1/2+z
24 1/2+x,1/2-y,z
25 1/2-y,x,3/4+z
26 1/2+y,1/2+x,-z
27 -y,-x,1/2-z
28 1/2-y,1/2+x,1/2-z
29 y,-x,-z
30 1/2+y,x,1/4+z
31 y,1/2-x,1/4+z
32 -y,1/2-x,3/4+z
_cell_length_a                   23.4246(6)
_cell_length_b                   23.4246(6)
_cell_length_c                   21.3264(12)
_cell_angle_alpha                90
_cell_angle_beta                 90
_cell_angle_gamma                90
_cell_volume                     11702
loop_
_atom_site_label
_atom_site_type_symbol
_atom_site_fract_x
_atom_site_fract_y
_atom_site_fract_z
C1 C 0.4863(2) 0.94292(17) 0.0012(2)
C2 C 0.54418(16) 0.95582(16) 0.0000
H1 H 0.5723 0.9277 0.0000
C3 C 0.3107(2) 0.8769(2) 0.11192(19)
C4 C 0.2680(2) 0.8791(2) 0.0610(2)
C5 C 0.2924(2) 0.8761(2) 0.1752(2)
H2 H 0.3189 0.8736 0.2075
O1 O 0.46891(17) 0.89070(16) 0.0065(2)
O2 O 0.36018(19) 0.87643(19) 0.09960(19)
O3 O 0.2875(2) 0.8825(2) 0.00638(17)
Mn1 Mn 0.37919(4) 0.87919(4) 0.0000
C1J C 0.55708(17) 1.0137(2) -0.0012(2)
C1Y C 0.44292(17) 0.9863(2) -0.0012(2)
C1S C 0.5137(2) 1.05708(17) 0.0012(2)
C2S C 0.45582(16) 1.04418(16) 0.0000
H1S H 0.4277 1.0723 0.0000
C3T C 0.1893(2) 0.8769(2) 0.13808(19)
C3Y C 0.3769(2) 0.8107(2) -0.11192(19)
C3N C 0.3769(2) 0.6893(2) -0.13808(19)
C4T C 0.2320(2) 0.8791(2) 0.1890(2)
C4Y C 0.3791(2) 0.7680(2) -0.0610(2)
C4N C 0.3791(2) 0.7320(2) -0.1890(2)
C5T C 0.2076(2) 0.8761(2) 0.0748(2)
C5Y C 0.3761(2) 0.7924(2) -0.1752(2)
C5N C 0.3761(2) 0.7076(2) -0.0748(2)
H2T H 0.1811 0.8736 0.0425
H2Y H 0.3736 0.8189 -0.2075
H2N H 0.3736 0.6811 -0.0425
O1J O 0.60930(16) 1.03109(17) -0.0065(2)
O1Y O 0.39070(16) 0.96891(17) -0.0065(2)
O1S O 0.53109(17) 1.10930(16) 0.0065(2)
O2T O 0.13982(19) 0.87643(19) 0.15040(19)
O2Y O 0.37643(19) 0.86018(19) -0.09960(19)
O2N O 0.37643(19) 0.63982(19) -0.15040(19)
O2S O 0.63982(19) 1.12357(19) 0.09960(19)
O2J O 0.62357(19) 1.13982(19) -0.09960(19)
O3T O 0.2125(2) 0.8825(2) 0.24362(17)
O3Y O 0.3825(2) 0.7875(2) -0.00638(17)
O3N O 0.3825(2) 0.7125(2) -0.24362(17)
O3S O 0.7125(2) 1.1175(2) 0.00638(17)
O3J O 0.6175(2) 1.2125(2) -0.00638(17)
Mn1J Mn 0.62081(4) 1.12081(4) 0.0000
Mn1H Mn 0.12081(4) 0.87919(4) 0.2500
Mn1N Mn 0.37919(4) 0.62081(4) -0.2500
loop_
_geom_bond_atom_site_label_1
_geom_bond_atom_site_label_2
_geom_bond_site_symmetry_1
_geom_bond_site_symmetry_2
C1 C2 1_555 1_555
C2 H1 1_555 1_555
C3 C4 1_555 1_555
C4 O3 1_555 1_555
C5 C3 1_555 1_555
H2 C5 1_555 1_555
O1 C1 1_555 1_555
O2 C3 1_555 1_555
O3 Mn1 1_555 1_555
Mn1 O1 1_555 1_555
C1J C2 1_555 1_555
C1Y C1 1_555 1_555
C1S C1J 1_555 1_555
C2S C1Y 1_555 1_555
H1S C2S 1_555 1_555
C3T C4T 1_555 1_555
C3Y C4Y 1_555 1_555
C3N C4N 1_555 1_555
C4T C5 1_555 1_555
C4Y C5N 1_555 1_555
C4N C5Y 1_555 1_555
C5T C4 1_555 1_555
C5Y C3Y 1_555 1_555
C5N C3N 1_555 1_555
H2T C5T 1_555 1_555
H2Y C5Y 1_555 1_555
H2N C5N 1_555 1_555
O1J C1J 1_555 1_555
O1Y Mn1 1_555 1_555
O1S C1S 1_555 1_555
O2T C3T 1_555 1_555
O2Y Mn1 1_555 1_555
O2N C3N 1_555 1_555
O2S Mn1J 1_555 1_555
O2J Mn1J 1_555 1_555
O3T C4T 1_555 1_555
O3Y Mn1 1_555 1_555
O3N C4N 1_555 1_555
O3S Mn1J 1_555 1_555
O3J Mn1J 1_555 1_555
Mn1J O1J 1_555 1_555
Mn1H O2T 1_555 1_555
Mn1N O2N 1_555 1_555
O2 Mn1 1_555 1_555
C1Y O1Y 1_555 1_555
C1S C2S 1_555 1_555
C3T C5T 1_555 1_555
C3Y O2Y 1_555 1_555
C4Y O3Y 1_555 1_555
O1S Mn1J 1_555 1_555
O3T Mn1H 1_555 1_555
O3N Mn1N 1_555 1_555

#END
