
#######################################################################
#
#                 Cambridge Crystallographic Data Centre
#                                CCDC 
#
#######################################################################
#
# If this CIF has been generated from an entry in the Cambridge 
# Structural Database, then it will include bibliographic, chemical, 
# crystal, experimental, refinement or atomic coordinate data resulting 
# from the CCDC's data processing and validation procedures.
#
#######################################################################

data_OWITOE
_symmetry_cell_setting           cubic
_symmetry_space_group_name_H-M   'I a -3 d'
_symmetry_Int_Tables_number      230
_space_group_name_Hall           '-I 4bd 2c 3'
loop_
_symmetry_equiv_pos_site_id
_symmetry_equiv_pos_as_xyz
1 x,y,z
2 x,-y,1/2-z
3 1/2-x,-y,1/2+z
4 1/2-x,y,-z
5 1/4-y,3/4+x,1/4+z
6 1/4+y,3/4+x,3/4-z
7 1/4+y,1/4-x,3/4+z
8 1/4-y,1/4-x,1/4-z
9 y,z,x
10 1/2-y,-z,1/2+x
11 y,-z,1/2-x
12 1/2-y,z,-x
13 1/4-z,3/4+y,1/4+x
14 1/4-z,1/4-y,1/4-x
15 1/4+z,1/4-y,3/4+x
16 1/4+z,3/4+y,3/4-x
17 z,x,y
18 -z,1/2+x,1/2-y
19 -z,1/2-x,y
20 z,-x,1/2-y
21 1/4-x,1/4-z,1/4-y
22 1/4-x,3/4+z,1/4+y
23 3/4+x,3/4-z,1/4+y
24 1/4+x,3/4+z,3/4-y
25 1/2+x,1/2+y,1/2+z
26 1/2+x,1/2-y,-z
27 -x,1/2-y,z
28 -x,1/2+y,1/2-z
29 3/4-y,1/4+x,3/4+z
30 3/4+y,1/4+x,1/4-z
31 3/4+y,3/4-x,1/4+z
32 3/4-y,3/4-x,3/4-z
33 1/2+y,1/2+z,1/2+x
34 -y,1/2-z,x
35 1/2+y,1/2-z,-x
36 -y,1/2+z,1/2-x
37 3/4-z,1/4+y,3/4+x
38 3/4-z,3/4-y,3/4-x
39 3/4+z,3/4-y,1/4+x
40 3/4+z,1/4+y,1/4-x
41 1/2+z,1/2+x,1/2+y
42 1/2-z,x,-y
43 1/2-z,-x,1/2+y
44 1/2+z,1/2-x,-y
45 3/4-x,3/4-z,3/4-y
46 3/4-x,1/4+z,3/4+y
47 1/4+x,1/4-z,3/4+y
48 3/4+x,1/4+z,1/4-y
49 -x,-y,-z
50 -x,y,1/2+z
51 1/2+x,y,1/2-z
52 1/2+x,-y,z
53 3/4+y,1/4-x,3/4-z
54 3/4-y,1/4-x,1/4+z
55 3/4-y,3/4+x,1/4-z
56 3/4+y,3/4+x,3/4+z
57 -y,-z,-x
58 1/2+y,z,1/2-x
59 -y,z,1/2+x
60 1/2+y,-z,x
61 3/4+z,1/4-y,3/4-x
62 3/4+z,3/4+y,3/4+x
63 3/4-z,3/4+y,1/4-x
64 3/4-z,1/4-y,1/4+x
65 -z,-x,-y
66 z,1/2-x,1/2+y
67 z,1/2+x,-y
68 -z,x,1/2+y
69 3/4+x,3/4+z,3/4+y
70 3/4+x,1/4-z,3/4-y
71 1/4-x,1/4+z,3/4-y
72 3/4-x,1/4-z,1/4+y
73 1/2-x,1/2-y,1/2-z
74 1/2-x,1/2+y,z
75 x,1/2+y,-z
76 x,1/2-y,1/2+z
77 1/4+y,3/4-x,1/4-z
78 1/4-y,3/4-x,3/4+z
79 1/4-y,1/4+x,3/4-z
80 1/4+y,1/4+x,1/4+z
81 1/2-y,1/2-z,1/2-x
82 y,1/2+z,-x
83 1/2-y,1/2+z,x
84 y,1/2-z,1/2+x
85 1/4+z,3/4-y,1/4-x
86 1/4+z,1/4+y,1/4+x
87 1/4-z,1/4+y,3/4-x
88 1/4-z,3/4-y,3/4+x
89 1/2-z,1/2-x,1/2-y
90 1/2+z,-x,y
91 1/2+z,x,1/2-y
92 1/2-z,1/2+x,y
93 1/4+x,1/4+z,1/4+y
94 1/4+x,3/4-z,1/4-y
95 3/4-x,3/4+z,1/4-y
96 1/4-x,3/4-z,3/4+y
_cell_length_a                   22.1014(13)
_cell_length_b                   22.1014(13)
_cell_length_c                   22.1014(13)
_cell_angle_alpha                90
_cell_angle_beta                 90
_cell_angle_gamma                90
_cell_volume                     10795.9
loop_
_atom_site_label
_atom_site_type_symbol
_atom_site_fract_x
_atom_site_fract_y
_atom_site_fract_z
Ni1 Ni 0.8750 0.3750 0.1250
O1 O 0.8838(2) 0.2833(2) 0.12635(19)
C1 C 0.9373(3) 0.2664(3) 0.1246(3)
C2 C 0.9534(4) 0.2034(4) 0.1250
H1 H 0.9237 0.1737 0.1250
Ni1K Ni 1.1250 0.1250 0.1250
Ni1A Ni 0.8750 0.6250 0.3750
Ni1C Ni 0.6250 0.3750 -0.1250
O1CA O 1.0333(2) 0.1338(2) 0.12365(19)
O1Z O 1.1162(2) 0.2167(2) 0.12635(19)
O1G O 0.9667(2) 0.3662(2) 0.12365(19)
O1LA O 0.87635(19) 0.4667(2) 0.1338(2)
O1R O 0.87365(19) 0.6162(2) 0.2833(2)
O1MA O 0.87635(19) 0.5333(2) 0.3662(2)
O1Q O 0.87365(19) 0.3838(2) 0.2167(2)
O1SA O 0.8662(2) 0.37635(19) 0.0333(2)
O1GA O 0.7167(2) 0.37365(19) -0.1162(2)
O1UA O 0.6338(2) 0.37635(19) -0.0333(2)
O1HA O 0.7833(2) 0.37365(19) 0.1162(2)
O1RA O 0.8662(2) 0.62365(19) 0.4667(2)
O1FA O 0.7833(2) 0.62635(19) 0.3838(2)
O1D O 0.9667(2) 0.6338(2) 0.37635(19)
O1A O 0.8838(2) 0.7167(2) 0.37365(19)
C1CA C 1.0164(3) 0.1873(3) 0.1254(3)
C1Z C 1.0627(3) 0.2336(3) 0.1246(3)
C1G C 0.9836(3) 0.3127(3) 0.1254(3)
C1LA C 0.8746(3) 0.4836(3) 0.1873(3)
C1R C 0.8754(3) 0.5627(3) 0.2664(3)
C1MA C 0.8746(3) 0.5164(3) 0.3127(3)
C1Q C 0.8754(3) 0.4373(3) 0.2336(3)
C1SA C 0.8127(3) 0.3746(3) 0.0164(3)
C1GA C 0.7336(3) 0.3754(3) -0.0627(3)
C1UA C 0.6873(3) 0.3746(3) -0.0164(3)
C1HA C 0.7664(3) 0.3754(3) 0.0627(3)
C2G C 1.0466(4) 0.2966(4) 0.1250
C2R C 0.8750 0.5466(4) 0.2034(4)
C2Q C 0.8750 0.4534(4) 0.2966(4)
C2GA C 0.7966(4) 0.3750 -0.0466(4)
C2HA C 0.7034(4) 0.3750 0.0466(4)
H1G H 1.0763 0.3263 0.1250
H1R H 0.8750 0.5763 0.1737
H1Q H 0.8750 0.4237 0.3263
H1GA H 0.8263 0.3750 -0.0763
H1HA H 0.6737 0.3750 0.0763
loop_
_geom_bond_atom_site_label_1
_geom_bond_atom_site_label_2
_geom_bond_site_symmetry_1
_geom_bond_site_symmetry_2
Ni1 O1 1_555 1_555
O1 C1 1_555 1_555
C1 C2 1_555 1_555
C2 H1 1_555 1_555
Ni1K O1CA 1_555 1_555
Ni1A O1R 1_555 1_555
Ni1C O1GA 1_555 1_555
O1CA C1CA 1_555 1_555
O1Z Ni1K 1_555 1_555
O1G Ni1 1_555 1_555
O1LA Ni1 1_555 1_555
O1R C1R 1_555 1_555
O1MA Ni1A 1_555 1_555
O1Q Ni1 1_555 1_555
O1SA Ni1 1_555 1_555
O1GA C1GA 1_555 1_555
O1UA Ni1C 1_555 1_555
O1HA Ni1 1_555 1_555
O1RA Ni1A 1_555 1_555
O1FA Ni1A 1_555 1_555
O1D Ni1A 1_555 1_555
O1A Ni1A 1_555 1_555
C1CA C2 1_555 1_555
C1Z O1Z 1_555 1_555
C1G C1 1_555 1_555
C1LA O1LA 1_555 1_555
C1R C1MA 1_555 1_555
C1MA O1MA 1_555 1_555
C1Q O1Q 1_555 1_555
C1SA O1SA 1_555 1_555
C1GA C1UA 1_555 1_555
C1UA O1UA 1_555 1_555
C1HA O1HA 1_555 1_555
C2G C1Z 1_555 1_555
C2R C1LA 1_555 1_555
C2Q C1MA 1_555 1_555
C2GA C1SA 1_555 1_555
C2HA C1UA 1_555 1_555
H1G C2G 1_555 1_555
H1R C2R 1_555 1_555
H1Q C2Q 1_555 1_555
H1GA C2GA 1_555 1_555
H1HA C2HA 1_555 1_555
O1G C1G 1_555 1_555
C1CA C1Z 1_555 1_555
C1G C2G 1_555 1_555
C1LA C1Q 1_555 1_555
C1R C2R 1_555 1_555
C1Q C2Q 1_555 1_555
C1SA C1HA 1_555 1_555
C1GA C2GA 1_555 1_555
C1HA C2HA 1_555 1_555

#END
