
#######################################################################
#
#                 Cambridge Crystallographic Data Centre
#                                CCDC 
#
#######################################################################
#
# If this CIF has been generated from an entry in the Cambridge 
# Structural Database, then it will include bibliographic, chemical, 
# crystal, experimental, refinement or atomic coordinate data resulting 
# from the CCDC's data processing and validation procedures.
#
#######################################################################

data_OWIVEW
_symmetry_cell_setting           cubic
_symmetry_space_group_name_H-M   'I -4 3 d'
_symmetry_Int_Tables_number      220
_space_group_name_Hall           'I -4bd 2c 3'
loop_
_symmetry_equiv_pos_site_id
_symmetry_equiv_pos_as_xyz
1 x,y,z
2 1/2-x,-y,1/2+z
3 -x,1/2+y,1/2-z
4 1/2+x,1/2-y,-z
5 z,x,y
6 1/2+z,1/2-x,-y
7 1/2-z,-x,1/2+y
8 -z,1/2+x,1/2-y
9 y,z,x
10 -y,1/2+z,1/2-x
11 1/2+y,1/2-z,-x
12 1/2-y,-z,1/2+x
13 1/4+y,1/4+x,1/4+z
14 1/4-y,3/4-x,3/4+z
15 3/4+y,1/4-x,3/4-z
16 3/4-y,3/4+x,1/4-z
17 1/4+x,1/4+z,1/4+y
18 3/4-x,3/4+z,1/4-y
19 1/4-x,3/4-z,3/4+y
20 3/4+x,1/4-z,3/4-y
21 1/4+z,1/4+y,1/4+x
22 3/4+z,1/4-y,3/4-x
23 3/4-z,3/4+y,1/4-x
24 1/4-z,3/4-y,3/4+x
25 1/2+x,1/2+y,1/2+z
26 -x,1/2-y,z
27 1/2-x,y,-z
28 x,-y,1/2-z
29 1/2+z,1/2+x,1/2+y
30 z,-x,1/2-y
31 -z,1/2-x,y
32 1/2-z,x,-y
33 1/2+y,1/2+z,1/2+x
34 1/2-y,z,-x
35 y,-z,1/2-x
36 -y,1/2-z,x
37 3/4+y,3/4+x,3/4+z
38 3/4-y,1/4-x,1/4+z
39 1/4+y,3/4-x,1/4-z
40 1/4-y,1/4+x,3/4-z
41 3/4+x,3/4+z,3/4+y
42 1/4-x,1/4+z,3/4-y
43 3/4-x,1/4-z,1/4+y
44 1/4+x,3/4-z,1/4-y
45 3/4+z,3/4+y,3/4+x
46 1/4+z,3/4-y,1/4-x
47 1/4-z,1/4+y,3/4-x
48 3/4-z,1/4-y,1/4+x
_cell_length_a                   22.7292(6)
_cell_length_b                   22.7292(6)
_cell_length_c                   22.7292(6)
_cell_angle_alpha                90
_cell_angle_beta                 90
_cell_angle_gamma                90
_cell_volume                     11742.3
loop_
_atom_site_label
_atom_site_type_symbol
_atom_site_fract_x
_atom_site_fract_y
_atom_site_fract_z
C1 C 0.4007(3) 0.5035(10) 0.1814(10)
Mn1 Mn 0.39116(9) 0.60884(9) 0.10884(9)
Cl1 Cl 0.4073(3) 0.3899(3) 0.16518(19)
O1 O 0.3949(5) 0.6097(6) 0.2068(5)
O2 O 0.3991(6) 0.5194(7) 0.1287(7)
C2 C 0.4042(7) 0.4502(7) 0.2105(9)
C3 C 0.3986(6) 0.5596(6) 0.2294(8)
C1AA C 0.4007(3) 0.4965(10) 0.3186(10)
C1F C 0.3186(10) 0.5993(3) 0.0035(10)
C1CA C 0.1814(10) 0.5993(3) -0.0035(10)
C1I C 0.4965(10) 0.6814(10) 0.0993(3)
C1HA C 0.5035(10) 0.8186(10) 0.0993(3)
Mn1AA Mn 0.39116(9) 0.39116(9) 0.39116(9)
Mn1Z Mn 0.10884(9) 0.60884(9) -0.10884(9)
Mn1Y Mn 0.60884(9) 0.89116(9) 0.10884(9)
Cl1AA Cl 0.4073(3) 0.6101(3) 0.33482(19)
Cl1F Cl 0.33482(19) 0.5927(3) -0.1101(3)
Cl1CA Cl 0.16518(19) 0.5927(3) 0.1101(3)
Cl1I Cl 0.6101(3) 0.66518(19) 0.0927(3)
Cl1HA Cl 0.3899(3) 0.83482(19) 0.0927(3)
O1AA O 0.3949(5) 0.3903(6) 0.2932(5)
O1F O 0.2932(5) 0.6051(5) 0.1097(6)
O1CA O 0.2068(5) 0.6051(5) -0.1097(6)
O1I O 0.3903(6) 0.7068(5) 0.1051(5)
O1HA O 0.6097(6) 0.7932(5) 0.1051(5)
O1EA O 0.2932(5) 0.3949(5) 0.3903(6)
O1IA O 0.3903(6) 0.2932(5) 0.3949(5)
O2AA O 0.3991(6) 0.4806(7) 0.3713(7)
O2F O 0.3713(7) 0.6009(6) 0.0194(7)
O2CA O 0.1287(7) 0.6009(6) -0.0194(7)
O2I O 0.4806(7) 0.6287(7) 0.1009(6)
O2HA O 0.5194(7) 0.8713(7) 0.1009(6)
O2EA O 0.3713(7) 0.3991(6) 0.4806(7)
O2IA O 0.4806(7) 0.3713(7) 0.3991(6)
C2AA C 0.4042(7) 0.5498(7) 0.2895(9)
C2F C 0.2895(9) 0.5958(7) -0.0498(7)
C2CA C 0.2105(9) 0.5958(7) 0.0498(7)
C2I C 0.5498(7) 0.7105(9) 0.0958(7)
C2HA C 0.4502(7) 0.7895(9) 0.0958(7)
C3AA C 0.3986(6) 0.4404(6) 0.2706(8)
C3F C 0.2706(8) 0.6014(6) 0.0596(6)
C3CA C 0.2294(8) 0.6014(6) -0.0596(6)
C3I C 0.4404(6) 0.7294(8) 0.1014(6)
C3HA C 0.5596(6) 0.7706(8) 0.1014(6)
loop_
_geom_bond_atom_site_label_1
_geom_bond_atom_site_label_2
_geom_bond_site_symmetry_1
_geom_bond_site_symmetry_2
C1 O2 1_555 1_555
Mn1 O1 1_555 1_555
Cl1 C2 1_555 1_555
O1 C3 1_555 1_555
O2 Mn1 1_555 1_555
C2 C1 1_555 1_555
C3 C1 1_555 1_555
C1AA O2AA 1_555 1_555
C1F O2F 1_555 1_555
C1CA O2CA 1_555 1_555
C1I O2I 1_555 1_555
C1HA O2HA 1_555 1_555
Mn1AA O1AA 1_555 1_555
Mn1Z O1CA 1_555 1_555
Mn1Y O1HA 1_555 1_555
Cl1AA C2AA 1_555 1_555
Cl1F C2F 1_555 1_555
Cl1CA C2CA 1_555 1_555
Cl1I C2I 1_555 1_555
Cl1HA C2HA 1_555 1_555
O1AA C3AA 1_555 1_555
O1F Mn1 1_555 1_555
O1CA C3CA 1_555 1_555
O1I Mn1 1_555 1_555
O1HA C3HA 1_555 1_555
O1EA Mn1AA 1_555 1_555
O1IA Mn1AA 1_555 1_555
O2AA Mn1AA 1_555 1_555
O2F Mn1 1_555 1_555
O2CA Mn1Z 1_555 1_555
O2I Mn1 1_555 1_555
O2HA Mn1Y 1_555 1_555
O2EA Mn1AA 1_555 1_555
O2IA Mn1AA 1_555 1_555
C2AA C3 1_555 1_555
C2F C1F 1_555 1_555
C2CA C1CA 1_555 1_555
C2I C1I 1_555 1_555
C2HA C1HA 1_555 1_555
C3AA C2 1_555 1_555
C3F C1F 1_555 1_555
C3CA C1CA 1_555 1_555
C3I C1I 1_555 1_555
C3HA C1HA 1_555 1_555
C1AA C2AA 1_555 1_555
C1AA C3AA 1_555 1_555
O1F C3F 1_555 1_555
O1I C3I 1_555 1_555
C2F C3CA 1_555 1_555
C2CA C3F 1_555 1_555
C2I C3HA 1_555 1_555
C2HA C3I 1_555 1_555

#END
