
#######################################################################
#
#                 Cambridge Crystallographic Data Centre
#                                CCDC 
#
#######################################################################
#
# If this CIF has been generated from an entry in the Cambridge 
# Structural Database, then it will include bibliographic, chemical, 
# crystal, experimental, refinement or atomic coordinate data resulting 
# from the CCDC's data processing and validation procedures.
#
#######################################################################

data_OWIVAS
_symmetry_cell_setting           cubic
_symmetry_space_group_name_H-M   'I a -3 d'
_symmetry_Int_Tables_number      230
_space_group_name_Hall           '-I 4bd 2c 3'
loop_
_symmetry_equiv_pos_site_id
_symmetry_equiv_pos_as_xyz
1 x,y,z
2 1/2-x,-y,1/2+z
3 -x,1/2+y,1/2-z
4 1/2+x,1/2-y,-z
5 z,x,y
6 1/2+z,1/2-x,-y
7 1/2-z,-x,1/2+y
8 -z,1/2+x,1/2-y
9 y,z,x
10 -y,1/2+z,1/2-x
11 1/2+y,1/2-z,-x
12 1/2-y,-z,1/2+x
13 3/4+y,1/4+x,1/4-z
14 3/4-y,3/4-x,3/4-z
15 1/4+y,1/4-x,3/4+z
16 1/4-y,3/4+x,1/4+z
17 3/4+x,1/4+z,1/4-y
18 1/4-x,3/4+z,1/4+y
19 3/4-x,3/4-z,3/4-y
20 1/4+x,1/4-z,3/4+y
21 3/4+z,1/4+y,1/4-x
22 1/4+z,1/4-y,3/4+x
23 1/4-z,3/4+y,1/4+x
24 3/4-z,3/4-y,3/4-x
25 1/2+x,1/2+y,1/2+z
26 -x,1/2-y,z
27 1/2-x,y,-z
28 x,-y,1/2-z
29 1/2+z,1/2+x,1/2+y
30 z,-x,1/2-y
31 -z,1/2-x,y
32 1/2-z,x,-y
33 1/2+y,1/2+z,1/2+x
34 1/2-y,z,-x
35 y,-z,1/2-x
36 -y,1/2-z,x
37 1/4+y,3/4+x,3/4-z
38 1/4-y,1/4-x,1/4-z
39 3/4+y,3/4-x,1/4+z
40 3/4-y,1/4+x,3/4+z
41 1/4+x,3/4+z,3/4-y
42 3/4-x,1/4+z,3/4+y
43 1/4-x,1/4-z,1/4-y
44 3/4+x,3/4-z,1/4+y
45 1/4+z,3/4+y,3/4-x
46 3/4+z,3/4-y,1/4+x
47 3/4-z,1/4+y,3/4+x
48 1/4-z,1/4-y,1/4-x
49 -x,-y,-z
50 1/2+x,y,1/2-z
51 x,1/2-y,1/2+z
52 1/2-x,1/2+y,z
53 -z,-x,-y
54 1/2-z,1/2+x,y
55 1/2+z,x,1/2-y
56 z,1/2-x,1/2+y
57 -y,-z,-x
58 y,1/2-z,1/2+x
59 1/2-y,1/2+z,x
60 1/2+y,z,1/2-x
61 1/4-y,3/4-x,3/4+z
62 1/4+y,1/4+x,1/4+z
63 3/4-y,3/4+x,1/4-z
64 3/4+y,1/4-x,3/4-z
65 1/4-x,3/4-z,3/4+y
66 3/4+x,1/4-z,3/4-y
67 1/4+x,1/4+z,1/4+y
68 3/4-x,3/4+z,1/4-y
69 1/4-z,3/4-y,3/4+x
70 3/4-z,3/4+y,1/4-x
71 3/4+z,1/4-y,3/4-x
72 1/4+z,1/4+y,1/4+x
73 1/2-x,1/2-y,1/2-z
74 x,1/2+y,-z
75 1/2+x,-y,z
76 -x,y,1/2+z
77 1/2-z,1/2-x,1/2-y
78 -z,x,1/2+y
79 z,1/2+x,-y
80 1/2+z,-x,y
81 1/2-y,1/2-z,1/2-x
82 1/2+y,-z,x
83 -y,z,1/2+x
84 y,1/2+z,-x
85 3/4-y,1/4-x,1/4+z
86 3/4+y,3/4+x,3/4+z
87 1/4-y,1/4+x,3/4-z
88 1/4+y,3/4-x,1/4-z
89 3/4-x,1/4-z,1/4+y
90 1/4+x,3/4-z,1/4-y
91 3/4+x,3/4+z,3/4+y
92 1/4-x,1/4+z,3/4-y
93 3/4-z,1/4-y,1/4+x
94 1/4-z,1/4+y,3/4-x
95 1/4+z,3/4-y,1/4-x
96 3/4+z,3/4+y,3/4+x
_cell_length_a                   22.215(3)
_cell_length_b                   22.215(3)
_cell_length_c                   22.215(3)
_cell_angle_alpha                90
_cell_angle_beta                 90
_cell_angle_gamma                90
_cell_volume                     10963.2
loop_
_atom_site_label
_atom_site_type_symbol
_atom_site_fract_x
_atom_site_fract_y
_atom_site_fract_z
Zn1 Zn 0.1250 0.1250 0.1250
O1 O 0.1375(3) 0.1233(4) 0.0326(3)
C1 C 0.1875(5) 0.1230(5) 0.0145(4)
C2 C 0.2037(5) 0.1250 -0.0463(5)
H1 H 0.1735 0.1250 -0.0765
Zn1N Zn 0.3750 0.1250 -0.1250
Zn1O Zn 0.1250 -0.1250 0.3750
Zn1L Zn -0.1250 0.3750 0.1250
O1U O 0.2826(3) 0.1267(4) -0.1125(3)
O1Z O 0.3625(3) 0.1233(4) -0.0326(3)
O1UA O 0.2174(3) 0.1267(4) 0.1125(3)
O1H O 0.1233(4) 0.0326(3) 0.1375(3)
O1O O 0.1267(4) -0.1125(3) 0.2826(3)
O1HA O 0.1233(4) -0.0326(3) 0.3625(3)
O1KA O 0.1267(4) 0.1125(3) 0.2174(3)
O1D O 0.0326(3) 0.1375(3) 0.1233(4)
O1P O -0.1125(3) 0.2826(3) 0.1267(4)
O1DA O -0.0326(3) 0.3625(3) 0.1233(4)
O1PA O 0.1125(3) 0.2174(3) 0.1267(4)
O1V O 0.2174(3) -0.1267(4) 0.3875(3)
O1AA O 0.1375(3) -0.1233(4) 0.4674(3)
O1Q O 0.1125(3) -0.2174(3) 0.3733(4)
O1CA O 0.0326(3) -0.1375(3) 0.3767(4)
C1U C 0.2645(4) 0.1270(5) -0.0625(5)
C1Z C 0.3125(5) 0.1230(5) -0.0145(4)
C1UA C 0.2355(4) 0.1270(5) 0.0625(5)
C1H C 0.1230(5) 0.0145(4) 0.1875(5)
C1O C 0.1270(5) -0.0625(5) 0.2645(4)
C1HA C 0.1230(5) -0.0145(4) 0.3125(5)
C1KA C 0.1270(5) 0.0625(5) 0.2355(4)
C1D C 0.0145(4) 0.1875(5) 0.1230(5)
C1P C -0.0625(5) 0.2645(4) 0.1270(5)
C1DA C -0.0145(4) 0.3125(5) 0.1230(5)
C1PA C 0.0625(5) 0.2355(4) 0.1270(5)
C2Z C 0.2963(5) 0.1250 0.0463(5)
C2H C 0.1250 -0.0463(5) 0.2037(5)
C2HA C 0.1250 0.0463(5) 0.2963(5)
C2D C -0.0463(5) 0.2037(5) 0.1250
C2DA C 0.0463(5) 0.2963(5) 0.1250
H1Z H 0.3265 0.1250 0.0765
H1H H 0.1250 -0.0765 0.1735
H1HA H 0.1250 0.0765 0.3265
H1D H -0.0765 0.1735 0.1250
H1DA H 0.0765 0.3265 0.1250
loop_
_geom_bond_atom_site_label_1
_geom_bond_atom_site_label_2
_geom_bond_site_symmetry_1
_geom_bond_site_symmetry_2
Zn1 O1 1_555 1_555
O1 C1 1_555 1_555
C1 C2 1_555 1_555
C2 H1 1_555 1_555
Zn1N O1U 1_555 1_555
Zn1O O1O 1_555 1_555
Zn1L O1P 1_555 1_555
O1U C1U 1_555 1_555
O1Z Zn1N 1_555 1_555
O1UA Zn1 1_555 1_555
O1H Zn1 1_555 1_555
O1O C1O 1_555 1_555
O1HA Zn1O 1_555 1_555
O1KA Zn1 1_555 1_555
O1D Zn1 1_555 1_555
O1P C1P 1_555 1_555
O1DA Zn1L 1_555 1_555
O1PA Zn1 1_555 1_555
O1V Zn1O 1_555 1_555
O1AA Zn1O 1_555 1_555
O1Q Zn1O 1_555 1_555
O1CA Zn1O 1_555 1_555
C1U C2 1_555 1_555
C1Z O1Z 1_555 1_555
C1UA C1 1_555 1_555
C1H O1H 1_555 1_555
C1O C1HA 1_555 1_555
C1HA O1HA 1_555 1_555
C1KA O1KA 1_555 1_555
C1D O1D 1_555 1_555
C1P C1DA 1_555 1_555
C1DA O1DA 1_555 1_555
C1PA O1PA 1_555 1_555
C2Z C1Z 1_555 1_555
C2H C1H 1_555 1_555
C2HA C1HA 1_555 1_555
C2D C1D 1_555 1_555
C2DA C1DA 1_555 1_555
H1Z C2Z 1_555 1_555
H1H C2H 1_555 1_555
H1HA C2HA 1_555 1_555
H1D C2D 1_555 1_555
H1DA C2DA 1_555 1_555
O1UA C1UA 1_555 1_555
C1U C1Z 1_555 1_555
C1UA C2Z 1_555 1_555
C1H C1KA 1_555 1_555
C1O C2H 1_555 1_555
C1KA C2HA 1_555 1_555
C1D C1PA 1_555 1_555
C1P C2D 1_555 1_555
C1PA C2DA 1_555 1_555

#END
