
#######################################################################
#
#                 Cambridge Crystallographic Data Centre
#                                CCDC 
#
#######################################################################
#
# If this CIF has been generated from an entry in the Cambridge 
# Structural Database, then it will include bibliographic, chemical, 
# crystal, experimental, refinement or atomic coordinate data resulting 
# from the CCDC's data processing and validation procedures.
#
#######################################################################

data_OWIZAW
_symmetry_cell_setting           monoclinic
_symmetry_space_group_name_H-M   'C 2/c'
_symmetry_Int_Tables_number      15
_space_group_name_Hall           '-C 2yn'
loop_
_symmetry_equiv_pos_site_id
_symmetry_equiv_pos_as_xyz
1 x,y,z
2 -x,y,1/2-z
3 1/2+x,1/2+y,z
4 1/2-x,1/2+y,1/2-z
5 -x,-y,-z
6 x,-y,1/2+z
7 1/2-x,1/2-y,-z
8 1/2+x,1/2-y,1/2+z
_cell_length_a                   26.537(9)
_cell_length_b                   29.791(10)
_cell_length_c                   45.448(15)
_cell_angle_alpha                90
_cell_angle_beta                 95.146(6)
_cell_angle_gamma                90
_cell_volume                     35784.7
loop_
_atom_site_label
_atom_site_type_symbol
_atom_site_fract_x
_atom_site_fract_y
_atom_site_fract_z
Cu1 Cu 0.30943(9) 0.78315(11) 0.68550(5)
Cu2 Cu 0.38838(9) 0.72668(10) 0.69457(5)
C1 C 0.2901(5) 0.6752(4) 0.62528(18)
C2 C 0.2439(4) 0.6865(3) 0.6102(3)
H1 H 0.2261 0.7113 0.6161
C3 C 0.2243(3) 0.6606(4) 0.5864(2)
H2 H 0.1934 0.6681 0.5764
C4 C 0.2509(5) 0.6234(4) 0.57770(19)
C5 C 0.2971(4) 0.6121(3) 0.5928(3)
H3 H 0.3149 0.5873 0.5869
C6 C 0.3167(3) 0.6380(4) 0.6165(2)
H4 H 0.3476 0.6305 0.6266
O1 O 0.2830(4) 0.7357(4) 0.6580(2)
C7 C 0.1371(4) 0.4993(4) 0.46246(18)
C8 C 0.1177(3) 0.5402(5) 0.4709(2)
H5 H 0.0873 0.5508 0.4617
C9 C 0.1437(5) 0.5653(3) 0.4931(3)
H6 H 0.1307 0.5927 0.4988
C10 C 0.1891(5) 0.5495(4) 0.50693(19)
C11 C 0.2086(3) 0.5087(5) 0.4985(2)
H7 H 0.2390 0.4981 0.5077
C12 C 0.1826(5) 0.4836(3) 0.4762(3)
H8 H 0.1956 0.4562 0.4706
O2 O 0.3557(4) 0.6916(4) 0.6609(2)
C13 C -0.0902(4) 0.3124(4) 0.62336(19)
C14 C -0.0387(4) 0.3076(4) 0.6208(2)
H9 H -0.0184 0.2927 0.6355
C15 C -0.0174(3) 0.3251(4) 0.5964(3)
H10 H 0.0171 0.3218 0.5947
C16 C -0.0476(4) 0.3474(4) 0.5746(2)
C17 C -0.0992(4) 0.3522(4) 0.5771(2)
H11 H -0.1194 0.3672 0.5624
C18 C -0.1204(3) 0.3347(4) 0.6015(2)
H12 H -0.1549 0.3380 0.6032
O3 O -0.0835(4) 0.2677(4) 0.6649(2)
C19 C 0.0742(4) 0.4411(4) 0.46072(17)
C20 C 0.0961(3) 0.4038(4) 0.4751(2)
H13 H 0.1273 0.3933 0.4702
C21 C 0.0714(4) 0.3821(3) 0.4968(2)
H14 H 0.0861 0.3572 0.5064
C22 C 0.0248(4) 0.3978(4) 0.50410(18)
C23 C 0.0029(3) 0.4351(4) 0.4897(2)
H15 H -0.0283 0.4456 0.4946
C24 C 0.0276(4) 0.4567(3) 0.4680(2)
H16 H 0.0129 0.4817 0.4584
O4 O -0.1603(4) 0.3090(4) 0.6527(2)
C25 C -0.0869(4) 0.6648(4) 0.25497(18)
C26 C -0.1082(3) 0.6233(4) 0.2603(2)
H17 H -0.1361 0.6132 0.2483
C27 C -0.0877(4) 0.5969(3) 0.2836(3)
H18 H -0.1020 0.5691 0.2872
C28 C -0.0460(4) 0.6120(4) 0.30157(19)
C29 C -0.0247(3) 0.6535(4) 0.2962(2)
H19 H 0.0032 0.6636 0.3083
C30 C -0.0452(4) 0.6799(3) 0.2729(2)
H20 H -0.0309 0.7077 0.2694
O5 O -0.1516(4) 0.6781(4) 0.2129(2)
C31 C 0.2850(4) 0.3048(4) 0.25731(18)
C32 C 0.3021(3) 0.3462(4) 0.2681(2)
H21 H 0.3256 0.3623 0.2583
C33 C 0.2841(4) 0.3637(3) 0.2935(2)
H22 H 0.2956 0.3915 0.3007
C34 C 0.2490(4) 0.3397(4) 0.30813(18)
C35 C 0.2319(4) 0.2983(4) 0.2974(2)
H23 H 0.2085 0.2822 0.3072
C36 C 0.2499(4) 0.2808(3) 0.2720(2)
H24 H 0.2385 0.2530 0.2648
O6 O -0.0910(4) 0.7306(4) 0.2253(2)
C37 C 0.1383(4) 0.4399(4) 0.42031(18)
C38 C 0.1817(4) 0.4583(3) 0.4103(2)
H25 H 0.1938 0.4858 0.4176
C39 C 0.2070(3) 0.4357(4) 0.3892(2)
H26 H 0.2360 0.4480 0.3825
C40 C 0.1888(4) 0.3946(4) 0.3783(2)
C41 C 0.1454(4) 0.3762(3) 0.3883(2)
H27 H 0.1333 0.3487 0.3810
C42 C 0.1201(3) 0.3989(4) 0.4094(2)
H28 H 0.0911 0.3865 0.4161
O7 O 0.2855(3) 0.2483(4) 0.2192(2)
C43 C 0.0740(4) 0.4944(4) 0.41567(16)
C44 C 0.0927(3) 0.5347(4) 0.4057(2)
H29 H 0.1228 0.5465 0.4146
C45 C 0.0665(4) 0.5574(3) 0.3824(2)
H30 H 0.0790 0.5844 0.3757
C46 C 0.0216(4) 0.5398(4) 0.36901(18)
C47 C 0.0029(3) 0.4995(4) 0.3790(2)
H31 H -0.0271 0.4878 0.3701
C48 C 0.0291(5) 0.4769(3) 0.4023(2)
H32 H 0.0166 0.4499 0.4090
C49 C 0.1050(5) 0.4686(4) 0.4397(3)
C50 C 0.3102(6) 0.7041(5) 0.6500(3)
C51 C -0.1144(6) 0.2951(5) 0.6500(3)
C52 C -0.1114(6) 0.6927(5) 0.2294(3)
C53 C 0.3069(6) 0.2840(5) 0.2311(3)
C54 C 0.2098(7) 0.5772(7) 0.5308(4)
C55 C 0.2280(6) 0.5970(6) 0.5521(4)
C56 C -0.0040(5) 0.3817(6) 0.5278(3)
C57 C -0.0234(6) 0.3661(7) 0.5492(3)
C58 C 0.2325(6) 0.3548(7) 0.3356(4)
C59 C 0.2090(7) 0.3753(7) 0.3531(4)
C60 C -0.0074(6) 0.5622(6) 0.3445(4)
C61 C -0.0264(7) 0.5852(6) 0.3246(4)
O8 O 0.3461(4) 0.3031(4) 0.2221(2)
O9 O 0.4592(4) 0.6884(3) 0.69975(18)
O10 O 0.2473(4) 0.8288(4) 0.6786(2)
Cu1B Cu -0.19057(9) 0.28315(11) 0.68550(5)
Cu1G Cu -0.19057(9) 0.71685(11) 0.18550(5)
Cu1E Cu 0.30943(9) 0.21685(11) 0.18550(5)
Cu2B Cu -0.11162(9) 0.22668(10) 0.69457(5)
Cu2G Cu -0.11162(9) 0.77332(10) 0.19457(5)
Cu2E Cu 0.38838(9) 0.27332(10) 0.19457(5)
O3B O 0.4165(4) 0.7677(4) 0.6649(2)
O4B O 0.3397(4) 0.8090(4) 0.6527(2)
O5G O 0.3484(4) 0.8219(4) 0.7129(2)
O6G O 0.4090(4) 0.7694(4) 0.7253(2)
O7E O 0.2855(3) 0.7517(4) 0.7192(2)
O8E O 0.3461(4) 0.6969(4) 0.7221(2)
loop_
_geom_bond_atom_site_label_1
_geom_bond_atom_site_label_2
_geom_bond_site_symmetry_1
_geom_bond_site_symmetry_2
Cu1 Cu2 1_555 1_555
Cu2 O2 1_555 1_555
C1 C2 1_555 1_555
C2 H1 1_555 1_555
C3 C2 1_555 1_555
H2 C3 1_555 1_555
C4 C3 1_555 1_555
C5 C4 1_555 1_555
H3 C5 1_555 1_555
C6 C1 1_555 1_555
H4 C6 1_555 1_555
O1 Cu1 1_555 1_555
C7 C8 1_555 1_555
C8 H5 1_555 1_555
C9 C8 1_555 1_555
H6 C9 1_555 1_555
C10 C9 1_555 1_555
C11 C10 1_555 1_555
H7 C11 1_555 1_555
C12 C7 1_555 1_555
H8 C12 1_555 1_555
O2 C50 1_555 1_555
C13 C14 1_555 1_555
C14 H9 1_555 1_555
C15 C14 1_555 1_555
H10 C15 1_555 1_555
C16 C15 1_555 1_555
C17 C16 1_555 1_555
H11 C17 1_555 1_555
C18 C13 1_555 1_555
H12 C18 1_555 1_555
O3 C51 1_555 1_555
C19 C20 1_555 1_555
C20 H13 1_555 1_555
C21 C20 1_555 1_555
H14 C21 1_555 1_555
C22 C21 1_555 1_555
C23 C22 1_555 1_555
H15 C23 1_555 1_555
C24 C19 1_555 1_555
H16 C24 1_555 1_555
O4 C51 1_555 1_555
C25 C26 1_555 1_555
C26 H17 1_555 1_555
C27 C26 1_555 1_555
H18 C27 1_555 1_555
C28 C27 1_555 1_555
C29 C28 1_555 1_555
H19 C29 1_555 1_555
C30 C25 1_555 1_555
H20 C30 1_555 1_555
O5 C52 1_555 1_555
C31 C32 1_555 1_555
C32 H21 1_555 1_555
C33 C32 1_555 1_555
H22 C33 1_555 1_555
C34 C33 1_555 1_555
C35 C34 1_555 1_555
H23 C35 1_555 1_555
C36 C31 1_555 1_555
H24 C36 1_555 1_555
O6 C52 1_555 1_555
C37 C38 1_555 1_555
C38 H25 1_555 1_555
C39 C38 1_555 1_555
H26 C39 1_555 1_555
C40 C39 1_555 1_555
C41 C40 1_555 1_555
H27 C41 1_555 1_555
C42 C37 1_555 1_555
H28 C42 1_555 1_555
O7 C53 1_555 1_555
C43 C44 1_555 1_555
C44 H29 1_555 1_555
C45 C44 1_555 1_555
H30 C45 1_555 1_555
C46 C45 1_555 1_555
C47 C46 1_555 1_555
H31 C47 1_555 1_555
C48 C43 1_555 1_555
H32 C48 1_555 1_555
C49 C7 1_555 1_555
C50 C1 1_555 1_555
C51 C13 1_555 1_555
C52 C25 1_555 1_555
C53 C31 1_555 1_555
C54 C10 1_555 1_555
C55 C4 1_555 1_555
C56 C22 1_555 1_555
C57 C16 1_555 1_555
C58 C34 1_555 1_555
C59 C40 1_555 1_555
C60 C46 1_555 1_555
C61 C28 1_555 1_555
O8 C53 1_555 1_555
O9 Cu2 1_555 1_555
O10 Cu1 1_555 1_555
Cu1B O4 1_555 1_555
Cu1G O5 1_555 1_555
Cu1E O7 1_555 1_555
Cu2B O3 1_555 1_555
Cu2G O6 1_555 1_555
Cu2E O8 1_555 1_555
O3B Cu2 1_555 1_555
O4B Cu1 1_555 1_555
O5G Cu1 1_555 1_555
O6G Cu2 1_555 1_555
O7E Cu1 1_555 1_555
O8E Cu2 1_555 1_555
C5 C6 1_555 1_555
O1 C50 1_555 1_555
C11 C12 1_555 1_555
C17 C18 1_555 1_555
C19 C49 1_555 1_555
C23 C24 1_555 1_555
C29 C30 1_555 1_555
C35 C36 1_555 1_555
C37 C49 1_555 1_555
C41 C42 1_555 1_555
C43 C49 1_555 1_555
C47 C48 1_555 1_555
C54 C55 1_555 1_555
C56 C57 1_555 1_555
C58 C59 1_555 1_555
C60 C61 1_555 1_555
Cu1B Cu2B 1_555 1_555
Cu1G Cu2G 1_555 1_555
Cu1E Cu2E 1_555 1_555

#END
