
#######################################################################
#
#                 Cambridge Crystallographic Data Centre
#                                CCDC 
#
#######################################################################
#
# If this CIF has been generated from an entry in the Cambridge 
# Structural Database, then it will include bibliographic, chemical, 
# crystal, experimental, refinement or atomic coordinate data resulting 
# from the CCDC's data processing and validation procedures.
#
#######################################################################

data_OWOHOY
_symmetry_cell_setting           triclinic
_symmetry_space_group_name_H-M   'P -1'
_symmetry_Int_Tables_number      2
_space_group_name_Hall           '-P 1'
loop_
_symmetry_equiv_pos_site_id
_symmetry_equiv_pos_as_xyz
1 x,y,z
2 -x,-y,-z
_cell_length_a                   7.8292(10)
_cell_length_b                   9.0800(12)
_cell_length_c                   17.740(2)
_cell_angle_alpha                96.949(15)
_cell_angle_beta                 98.356(15)
_cell_angle_gamma                110.837(15)
_cell_volume                     1145.61
loop_
_atom_site_label
_atom_site_type_symbol
_atom_site_fract_x
_atom_site_fract_y
_atom_site_fract_z
Cd1 Cd 0.8194(2) 0.82612(18) 0.83477(9)
Cd2 Cd 0.5000 0.5000 0.5000
Se1 Se 1.1943(3) 0.8757(2) 0.89606(12)
C1 C 1.209(2) 0.971(2) 0.9942(12)
N1 N 1.208(2) 1.0305(19) 1.0558(10)
Se2 Se 0.8793(3) 0.5643(2) 0.56600(12)
C2 C 0.869(2) 0.638(2) 0.6639(13)
N2 N 0.863(2) 0.6824(19) 0.7264(11)
Se3 Se 0.4493(3) 0.7777(2) 0.76722(12)
C3 C 0.448(2) 0.6694(19) 0.6752(10)
N3 N 0.444(2) 0.601(2) 0.6167(10)
N4 N 0.7102(19) 0.5926(17) 0.8886(10)
C4 C 0.572(3) 0.459(2) 0.8485(14)
H1 H 0.5176 0.4588 0.7984
C5 C 0.506(3) 0.317(3) 0.8788(17)
H2 H 0.4123 0.2241 0.8492
C6 C 0.587(3) 0.323(3) 0.9557(15)
H3 H 0.5417 0.2347 0.9793
C7 C 0.726(4) 0.454(3) 0.9946(17)
H4 H 0.7862 0.4579 1.0445
C8 C 0.782(3) 0.587(3) 0.9581(15)
H5 H 0.8783 0.6794 0.9865
N5 N 0.927(2) 1.0648(19) 0.7856(11)
C9 C 0.893(3) 1.191(2) 0.8099(16)
H6 H 0.8271 1.1851 0.8496
C10 C 0.945(4) 1.332(3) 0.7832(18)
H7 H 0.9116 1.4156 0.8019
C11 C 1.054(3) 1.344(3) 0.7248(16)
H8 H 1.1030 1.4395 0.7072
C12 C 1.085(3) 1.219(3) 0.6967(16)
H9 H 1.1452 1.2201 0.6552
C13 C 1.026(3) 1.084(2) 0.7293(15)
H10 H 1.0579 0.9986 0.7109
N6 N 0.584(2) 0.7555(16) 0.4644(10)
C14 C 0.715(3) 0.885(2) 0.5093(14)
H11 H 0.7801 0.8740 0.5552
C15 C 0.759(3) 1.038(3) 0.490(2)
H12 H 0.8356 1.1296 0.5261
C16 C 0.687(3) 1.047(3) 0.4169(18)
H13 H 0.7319 1.1424 0.3987
C17 C 0.550(4) 0.918(3) 0.3711(17)
H14 H 0.4839 0.9265 0.3251
C18 C 0.511(3) 0.770(3) 0.3943(14)
H15 H 0.4296 0.6782 0.3596
Cd1A Cd 0.1806(2) 0.17388(18) 0.16523(9)
Cd1A_2 Cd 1.1806(2) 1.17388(18) 1.16523(9)
Se1A Se 0.8057(3) 1.1243(2) 1.10394(12)
Se1A_2 Se -0.1943(3) 0.1243(2) 0.10394(12)
C1A C 0.791(2) 1.029(2) 1.0058(12)
N1A N 0.792(2) 0.9695(19) 0.9442(10)
N1_2 N 0.208(2) 0.0305(19) 0.0558(10)
Se2A Se 0.1207(3) 0.4357(2) 0.43400(12)
C2A C 0.131(2) 0.362(2) 0.3361(13)
N2A N 0.137(2) 0.3176(19) 0.2736(11)
Se3A Se 0.5507(3) 0.2223(2) 0.23278(12)
C3A C 0.552(2) 0.3306(19) 0.3248(10)
N3A N 0.556(2) 0.399(2) 0.3833(10)
N4A N 0.2898(19) 0.4074(17) 0.1114(10)
C4A C 0.428(3) 0.541(2) 0.1515(14)
H1A H 0.4824 0.5412 0.2016
C5A C 0.494(3) 0.683(3) 0.1212(17)
H2A H 0.5877 0.7759 0.1508
C6A C 0.413(3) 0.677(3) 0.0443(15)
H3A H 0.4583 0.7653 0.0207
C7A C 0.274(4) 0.546(3) 0.0054(17)
H4A H 0.2138 0.5421 -0.0445
C8A C 0.218(3) 0.413(3) 0.0419(15)
H5A H 0.1217 0.3206 0.0135
N5A N 0.073(2) -0.0648(19) 0.2144(11)
C9A C 0.107(3) -0.191(2) 0.1901(16)
H6A H 0.1729 -0.1851 0.1504
C10A C 0.055(4) -0.332(3) 0.2168(18)
H7A H 0.0884 -0.4156 0.1981
C11A C -0.054(3) -0.344(3) 0.2752(16)
H8A H -0.1030 -0.4395 0.2928
C12A C -0.085(3) -0.219(3) 0.3033(16)
H9A H -0.1452 -0.2201 0.3448
C13A C -0.026(3) -0.084(2) 0.2707(15)
H10A H -0.0579 0.0014 0.2891
N6A N 0.416(2) 0.2445(16) 0.5356(10)
C14A C 0.285(3) 0.115(2) 0.4907(14)
H11A H 0.2199 0.1260 0.4448
C15A C 0.241(3) -0.038(3) 0.510(2)
H12A H 0.1644 -0.1296 0.4739
C16A C 0.313(3) -0.047(3) 0.5831(18)
H13A H 0.2681 -0.1424 0.6013
C17A C 0.450(4) 0.082(3) 0.6289(17)
H14A H 0.5161 0.0735 0.6749
C18A C 0.489(3) 0.230(3) 0.6057(14)
H15A H 0.5704 0.3218 0.6404
loop_
_geom_bond_atom_site_label_1
_geom_bond_atom_site_label_2
_geom_bond_site_symmetry_1
_geom_bond_site_symmetry_2
Cd1 Se1 1_555 1_555
Cd2 Se2 1_555 1_555
Se1 C1 1_555 1_555
C1 N1 1_555 1_555
N1 Cd1A_2 1_555 1_555
Se2 C2 1_555 1_555
C2 N2 1_555 1_555
N2 Cd1 1_555 1_555
Se3 Cd1 1_555 1_555
C3 Se3 1_555 1_555
N3 Cd2 1_555 1_555
N4 Cd1 1_555 1_555
C4 N4 1_555 1_555
H1 C4 1_555 1_555
C5 C4 1_555 1_555
H2 C5 1_555 1_555
C6 C5 1_555 1_555
H3 C6 1_555 1_555
C7 C6 1_555 1_555
H4 C7 1_555 1_555
C8 N4 1_555 1_555
H5 C8 1_555 1_555
N5 Cd1 1_555 1_555
C9 N5 1_555 1_555
H6 C9 1_555 1_555
C10 C9 1_555 1_555
H7 C10 1_555 1_555
C11 C10 1_555 1_555
H8 C11 1_555 1_555
C12 C11 1_555 1_555
H9 C12 1_555 1_555
C13 N5 1_555 1_555
H10 C13 1_555 1_555
N6 Cd2 1_555 1_555
C14 N6 1_555 1_555
H11 C14 1_555 1_555
C15 C14 1_555 1_555
H12 C15 1_555 1_555
C16 C15 1_555 1_555
H13 C16 1_555 1_555
C17 C16 1_555 1_555
H14 C17 1_555 1_555
C18 N6 1_555 1_555
H15 C18 1_555 1_555
Cd1A Se1A_2 1_555 1_555
Cd1A_2 Se1A 1_555 1_555
Se1A C1A 1_555 1_555
C1A N1A 1_555 1_555
N1A Cd1 1_555 1_555
N1_2 Cd1A 1_555 1_555
Se2A Cd2 1_555 1_555
C2A Se2A 1_555 1_555
N2A Cd1A 1_555 1_555
Se3A Cd1A 1_555 1_555
C3A Se3A 1_555 1_555
N3A Cd2 1_555 1_555
N4A Cd1A 1_555 1_555
C4A N4A 1_555 1_555
H1A C4A 1_555 1_555
C5A C4A 1_555 1_555
H2A C5A 1_555 1_555
C6A C5A 1_555 1_555
H3A C6A 1_555 1_555
C7A C6A 1_555 1_555
H4A C7A 1_555 1_555
C8A N4A 1_555 1_555
H5A C8A 1_555 1_555
N5A Cd1A 1_555 1_555
C9A N5A 1_555 1_555
H6A C9A 1_555 1_555
C10A C9A 1_555 1_555
H7A C10A 1_555 1_555
C11A C10A 1_555 1_555
H8A C11A 1_555 1_555
C12A C11A 1_555 1_555
H9A C12A 1_555 1_555
C13A N5A 1_555 1_555
H10A C13A 1_555 1_555
N6A Cd2 1_555 1_555
C14A N6A 1_555 1_555
H11A C14A 1_555 1_555
C15A C14A 1_555 1_555
H12A C15A 1_555 1_555
C16A C15A 1_555 1_555
H13A C16A 1_555 1_555
C17A C16A 1_555 1_555
H14A C17A 1_555 1_555
C18A N6A 1_555 1_555
H15A C18A 1_555 1_555
C3 N3 1_555 1_555
C7 C8 1_555 1_555
C12 C13 1_555 1_555
C17 C18 1_555 1_555
C2A N2A 1_555 1_555
C3A N3A 1_555 1_555
C7A C8A 1_555 1_555
C12A C13A 1_555 1_555
C17A C18A 1_555 1_555

#END
