
#######################################################################
#
#                 Cambridge Crystallographic Data Centre
#                                CCDC 
#
#######################################################################
#
# If this CIF has been generated from an entry in the Cambridge 
# Structural Database, then it will include bibliographic, chemical, 
# crystal, experimental, refinement or atomic coordinate data resulting 
# from the CCDC's data processing and validation procedures.
#
#######################################################################

data_OWOKUH01
_symmetry_cell_setting           monoclinic
_symmetry_space_group_name_H-M   'P 21/c'
_symmetry_Int_Tables_number      14
_space_group_name_Hall           '-P 2ybc'
loop_
_symmetry_equiv_pos_site_id
_symmetry_equiv_pos_as_xyz
1 x,y,z
2 -x,1/2+y,1/2-z
3 -x,-y,-z
4 x,1/2-y,1/2+z
_cell_length_a                   9.918(3)
_cell_length_b                   12.053(2)
_cell_length_c                   15.454(4)
_cell_angle_alpha                90
_cell_angle_beta                 95.472(18)
_cell_angle_gamma                90
_cell_volume                     1838.98
loop_
_atom_site_label
_atom_site_type_symbol
_atom_site_fract_x
_atom_site_fract_y
_atom_site_fract_z
S1 S 1.2284(3) 0.5002(2) 0.20077(17)
Zn1 Zn 0.75339(12) 0.53276(9) 0.14550(8)
C1 C 0.8901(13) 1.3696(10) 0.0392(9)
H1 H 0.9663 1.3998 0.0702
C2 C 0.9076(13) 1.2852(11) -0.0189(9)
H2 H 0.9942 1.2591 -0.0256
C3 C 0.7967(13) 1.2391(9) -0.0673(7)
C4 C 0.8154(15) 1.1442(10) -0.1275(8)
H3 H 0.8985 1.1551 -0.1547
H4 H 0.7409 1.1435 -0.1730
C5 C 0.6722(12) 1.2834(9) -0.0541(7)
H5 H 0.5944 1.2567 -0.0857
C6 C 0.6625(12) 1.3670(9) 0.0057(7)
H6 H 0.5768 1.3948 0.0131
C7 C 0.7166(11) 0.6867(9) -0.0099(7)
H7 H 0.7173 0.6216 -0.0422
C8 C 0.7047(12) 0.7874(10) -0.0540(7)
H8 H 0.7012 0.7892 -0.1144
C9 C 0.6980(11) 0.8848(9) -0.0073(7)
C10 C 0.7092(13) 0.8763(9) 0.0837(7)
H9 H 0.7083 0.9399 0.1176
C11 C 0.7218(15) 0.7732(9) 0.1226(7)
H10 H 0.7267 0.7690 0.1829
C12 C 0.6842(12) 0.9970(10) -0.0496(7)
H11 H 0.6563 1.0511 -0.0084
H12 H 0.6157 0.9944 -0.0987
C13 C 0.8215(13) 1.0313(10) -0.0805(8)
H13 H 0.8887 1.0350 -0.0307
H14 H 0.8503 0.9750 -0.1196
C14 C 0.9928(10) 0.6014(9) 0.2452(7)
C15 C 1.1418(11) 0.5961(9) 0.2565(7)
C16 C 1.2311(11) 0.6670(9) 0.3029(8)
H15 H 1.2043 0.7243 0.3377
C17 C 1.3673(11) 0.6429(10) 0.2915(8)
H16 H 1.4398 0.6830 0.3182
C18 C 1.3828(10) 0.5553(10) 0.2377(7)
C19 C 1.5074(12) 0.5097(12) 0.2035(8)
N1 N 0.7676(8) 1.4103(7) 0.0532(6)
N2 N 0.7271(9) 0.6794(7) 0.0774(6)
O1 O 0.9383(7) 0.5218(7) 0.1974(5)
O2 O 0.9322(8) 0.6762(8) 0.2766(6)
O3 O 1.6176(8) 0.5573(8) 0.2281(6)
O4 O 1.4982(11) 0.4374(15) 0.1495(10)
Zn1_2 Zn 0.75339(12) 1.53276(9) 0.14550(8)
Zn1_3 Zn 1.75339(12) 0.53276(9) 0.14550(8)
N1_2 N 0.7676(8) 0.4103(7) 0.0532(6)
O3_2 O 0.6176(8) 0.5573(8) 0.2281(6)
loop_
_geom_bond_atom_site_label_1
_geom_bond_atom_site_label_2
_geom_bond_site_symmetry_1
_geom_bond_site_symmetry_2
S1 C15 1_555 1_555
Zn1 N2 1_555 1_555
C1 H1 1_555 1_555
C2 C1 1_555 1_555
H2 C2 1_555 1_555
C3 C2 1_555 1_555
C4 C3 1_555 1_555
H3 C4 1_555 1_555
H4 C4 1_555 1_555
C5 C3 1_555 1_555
H5 C5 1_555 1_555
C6 C5 1_555 1_555
H6 C6 1_555 1_555
C7 H7 1_555 1_555
C8 C7 1_555 1_555
H8 C8 1_555 1_555
C9 C8 1_555 1_555
C10 C9 1_555 1_555
H9 C10 1_555 1_555
C11 C10 1_555 1_555
H10 C11 1_555 1_555
C12 C9 1_555 1_555
H11 C12 1_555 1_555
H12 C12 1_555 1_555
C13 C4 1_555 1_555
H13 C13 1_555 1_555
H14 C13 1_555 1_555
C14 C15 1_555 1_555
C15 C16 1_555 1_555
C16 H15 1_555 1_555
C17 C16 1_555 1_555
H16 C17 1_555 1_555
C18 S1 1_555 1_555
C19 C18 1_555 1_555
N1 C1 1_555 1_555
N2 C7 1_555 1_555
O1 Zn1 1_555 1_555
O2 C14 1_555 1_555
O3 C19 1_555 1_555
O4 C19 1_555 1_555
Zn1_2 N1 1_555 1_555
Zn1_3 O3 1_555 1_555
N1_2 Zn1 1_555 1_555
O3_2 Zn1 1_555 1_555
C6 N1 1_555 1_555
C11 N2 1_555 1_555
C12 C13 1_555 1_555
C14 O1 1_555 1_555
C17 C18 1_555 1_555

#END
