
#######################################################################
#
#                 Cambridge Crystallographic Data Centre
#                                CCDC 
#
#######################################################################
#
# If this CIF has been generated from an entry in the Cambridge 
# Structural Database, then it will include bibliographic, chemical, 
# crystal, experimental, refinement or atomic coordinate data resulting 
# from the CCDC's data processing and validation procedures.
#
#######################################################################

data_OWUDIU
_symmetry_cell_setting           orthorhombic
_symmetry_space_group_name_H-M   'P n n a'
_symmetry_Int_Tables_number      52
_space_group_name_Hall           '-P 2a 2bc'
loop_
_symmetry_equiv_pos_site_id
_symmetry_equiv_pos_as_xyz
1 x,y,z
2 1/2-x,-y,z
3 1/2-x,1/2+y,1/2-z
4 x,1/2-y,1/2-z
5 -x,-y,-z
6 1/2+x,y,-z
7 1/2+x,1/2-y,1/2+z
8 -x,1/2+y,1/2+z
_cell_length_a                   14.472(3)
_cell_length_b                   9.894(2)
_cell_length_c                   8.1226(16)
_cell_angle_alpha                90
_cell_angle_beta                 90
_cell_angle_gamma                90
_cell_volume                     1163.04
loop_
_atom_site_label
_atom_site_type_symbol
_atom_site_fract_x
_atom_site_fract_y
_atom_site_fract_z
Zn1 Zn 0.303191(17) 0.7500 1.2500
Cl1 Cl 0.39333(3) 0.59191(4) 1.13679(6)
C1 C 0.21324(10) 0.94937(15) 1.00906(18)
N1 N 0.21365(9) 0.83053(14) 1.08469(17)
N2 N 0.13664(10) 0.96281(14) 0.91642(17)
C2 C 0.08544(13) 0.8474(2) 0.9347(2)
H1 H 0.0290 0.8283 0.8852
C3 C 0.11410(16) 1.0783(2) 0.8098(3)
H2 H 0.1136 1.1597 0.8740
H3 H 0.0543 1.0648 0.7613
H4 H 0.1597 1.0858 0.7244
C4 C 0.13299(13) 0.76672(18) 1.0384(2)
H5 H 0.1143 0.6814 1.0732
Zn1A Zn 0.196809(17) 1.2500 1.2500
Cl1C Cl 0.39333(3) 0.90809(4) 1.36321(6)
C1A C 0.28676(10) 1.05063(15) 1.00906(18)
N1A N 0.28635(9) 1.16947(14) 1.08469(17)
N1C N 0.21365(9) 0.66947(14) 1.41531(17)
N2A N 0.36336(10) 1.03719(14) 0.91642(17)
C2A C 0.41456(13) 1.1526(2) 0.9347(2)
H1A H 0.4710 1.1717 0.8852
C3A C 0.38590(16) 0.9217(2) 0.8098(3)
H2A H 0.3864 0.8403 0.8740
H3A H 0.4457 0.9352 0.7613
H4A H 0.3403 0.9142 0.7244
C4A C 0.36701(13) 1.23328(18) 1.0384(2)
H5A H 0.3857 1.3186 1.0732
loop_
_geom_bond_atom_site_label_1
_geom_bond_atom_site_label_2
_geom_bond_site_symmetry_1
_geom_bond_site_symmetry_2
Zn1 Cl1 1_555 1_555
C1 N1 1_555 1_555
N1 Zn1 1_555 1_555
N2 C1 1_555 1_555
C2 N2 1_555 1_555
H1 C2 1_555 1_555
C3 N2 1_555 1_555
H2 C3 1_555 1_555
H3 C3 1_555 1_555
H4 C3 1_555 1_555
C4 N1 1_555 1_555
H5 C4 1_555 1_555
Zn1A N1A 1_555 1_555
Cl1C Zn1 1_555 1_555
C1A C1 1_555 1_555
N1A C1A 1_555 1_555
N1C Zn1 1_555 1_555
N2A C1A 1_555 1_555
C2A N2A 1_555 1_555
H1A C2A 1_555 1_555
C3A N2A 1_555 1_555
H2A C3A 1_555 1_555
H3A C3A 1_555 1_555
H4A C3A 1_555 1_555
C4A N1A 1_555 1_555
H5A C4A 1_555 1_555
C2 C4 1_555 1_555
C2A C4A 1_555 1_555

#END
