
#######################################################################
#
#                 Cambridge Crystallographic Data Centre
#                                CCDC 
#
#######################################################################
#
# If this CIF has been generated from an entry in the Cambridge 
# Structural Database, then it will include bibliographic, chemical, 
# crystal, experimental, refinement or atomic coordinate data resulting 
# from the CCDC's data processing and validation procedures.
#
#######################################################################

data_OWUDOA
_symmetry_cell_setting           triclinic
_symmetry_space_group_name_H-M   'P -1'
_symmetry_Int_Tables_number      2
_space_group_name_Hall           '-P 1'
loop_
_symmetry_equiv_pos_site_id
_symmetry_equiv_pos_as_xyz
1 x,y,z
2 -x,-y,-z
_cell_length_a                   9.9096(16)
_cell_length_b                   10.3188(17)
_cell_length_c                   11.819(3)
_cell_angle_alpha                100.165(3)
_cell_angle_beta                 113.120(4)
_cell_angle_gamma                109.184(2)
_cell_volume                     982.689
loop_
_atom_site_label
_atom_site_type_symbol
_atom_site_fract_x
_atom_site_fract_y
_atom_site_fract_z
Cd1 Cd 0.06048(3) 0.87940(3) 0.71871(3)
Cd2 Cd 0.0000 1.0000 1.0000
N1 N 0.0070(4) 0.7604(4) 0.5108(3)
N2 N 0.2619(4) 0.7970(4) 0.7436(3)
N3 N 0.0338(4) 0.5966(4) 0.3883(3)
H1 H 0.0729 0.5403 0.3649
N4 N 0.3681(4) 0.6905(3) 0.6481(3)
O1 O -0.1570(4) 0.9129(4) 0.6305(3)
O2 O -0.2001(3) 0.9810(3) 0.7981(3)
O3 O 0.2468(4) 1.1080(3) 0.8250(3)
O4 O 0.1815(3) 1.1772(3) 0.9787(3)
O5 O -0.0936(4) 0.6270(3) 0.7212(3)
O6 O 0.0534(3) 0.8236(3) 0.9010(2)
C1 C -0.2298(5) 0.9574(4) 0.6822(4)
C2 C -0.3695(4) 0.9818(4) 0.5885(4)
C3 C -0.4702(5) 1.0204(4) 0.6278(4)
H2 H -0.4507 1.0347 0.7138
C4 C -0.4007(5) 0.9625(5) 0.4598(4)
H3 H -0.3338 0.9376 0.4321
C5 C 0.2590(4) 1.2000(5) 0.9164(4)
C6 C 0.3839(4) 1.3565(4) 0.9595(4)
C7 C 0.4972(5) 1.3861(4) 0.9150(4)
H4 H 0.4965 1.3104 0.8585
C8 C 0.3886(5) 1.4704(4) 1.0446(4)
H5 H 0.3137 1.4506 1.0754
C9 C -0.0206(5) 0.6850(4) 0.8433(4)
C10 C -0.0133(5) 0.5900(4) 0.9248(4)
C11 C 0.0956(5) 0.6507(4) 1.0583(4)
H6 H 0.1599 0.7515 1.0980
C12 C -0.1088(5) 0.4387(4) 0.8674(4)
H7 H -0.1824 0.3972 0.7778
C13 C -0.1207(5) 0.7044(5) 0.3856(4)
H8 H -0.2060 0.7311 0.3577
C14 C -0.1038(5) 0.6049(5) 0.3093(4)
H9 H -0.1728 0.5520 0.2200
C15 C 0.0973(5) 0.6915(4) 0.5087(4)
C16 C 0.2416(4) 0.7231(4) 0.6309(4)
C17 C 0.4068(5) 0.8136(5) 0.8374(4)
H10 H 0.4530 0.8623 0.9270
C18 C 0.4737(5) 0.7484(5) 0.7801(4)
H11 H 0.5726 0.7439 0.8225
C19 C 0.3958(5) 0.6140(5) 0.5500(4)
H12 H 0.3247 0.5111 0.5165
H13 H 0.5074 0.6290 0.5893
H14 H 0.3737 0.6515 0.4793
Cd1A Cd -1.06048(3) 1.12060(3) 0.28129(3)
Cd1A_2 Cd 0.93952(3) 2.12060(3) 1.28129(3)
Cd1A_3 Cd -0.06048(3) 0.12060(3) 1.28129(3)
Cd2_2 Cd -1.0000 1.0000 0.0000
Cd2_3 Cd 1.0000 2.0000 1.0000
Cd2_4 Cd 0.0000 0.0000 1.0000
N1A N -1.0070(4) 1.2396(4) 0.4892(3)
N2A N -1.2619(4) 1.2030(4) 0.2564(3)
N3A N -1.0338(4) 1.4034(4) 0.6117(3)
H1A H -1.0729 1.4597 0.6351
N4A N -1.3681(4) 1.3095(3) 0.3519(3)
O1A O -0.8430(4) 1.0871(4) 0.3695(3)
O2A O -0.7999(3) 1.0190(3) 0.2019(3)
O2A_2 O 0.2001(3) 1.0190(3) 1.2019(3)
O3A O 0.7532(4) 1.8920(3) 1.1750(3)
O3A_2 O -1.2468(4) 0.8920(3) 0.1750(3)
O4A O 0.8185(3) 1.8228(3) 1.0213(3)
O4A_2 O -0.1815(3) 0.8228(3) 1.0213(3)
O5A O 0.0936(4) 0.3730(3) 1.2788(3)
O5A_2 O -0.9064(4) 1.3730(3) 0.2788(3)
O6A O -0.0534(3) 0.1764(3) 1.0990(2)
O6A_2 O -0.0534(3) 1.1764(3) 1.0990(2)
O6A_3 O -1.0534(3) 1.1764(3) 0.0990(2)
C1A C -0.7702(5) 1.0426(4) 0.3178(4)
C2A C -0.6305(4) 1.0182(4) 0.4115(4)
C3A C -0.5298(5) 0.9796(4) 0.3722(4)
H2A H -0.5493 0.9653 0.2862
C4A C -0.5993(5) 1.0375(5) 0.5402(4)
H3A H -0.6662 1.0624 0.5679
C5A C 0.7410(4) 1.8000(5) 1.0836(4)
C6A C 0.6161(4) 1.6435(4) 1.0405(4)
C7A C 0.5028(5) 1.6139(4) 1.0850(4)
H4A H 0.5035 1.6896 1.1415
C8A C 0.6114(5) 1.5296(4) 0.9554(4)
H5A H 0.6863 1.5494 0.9246
C9A C 0.0206(5) 0.3150(4) 1.1567(4)
C10A C 0.0133(5) 0.4100(4) 1.0752(4)
C11A C -0.0956(5) 0.3493(4) 0.9417(4)
H6A H -0.1599 0.2485 0.9020
C12A C 0.1088(5) 0.5613(4) 1.1326(4)
H7A H 0.1824 0.6028 1.2222
C13A C -0.8793(5) 1.2956(5) 0.6144(4)
H8A H -0.7940 1.2689 0.6423
C14A C -0.8962(5) 1.3951(5) 0.6907(4)
H9A H -0.8272 1.4480 0.7800
C15A C -1.0973(5) 1.3085(4) 0.4913(4)
C16A C -1.2416(4) 1.2769(4) 0.3691(4)
C17A C -1.4068(5) 1.1864(5) 0.1626(4)
H10A H -1.4530 1.1377 0.0730
C18A C -1.4737(5) 1.2516(5) 0.2199(4)
H11A H -1.5726 1.2561 0.1775
C19A C -1.3958(5) 1.3860(5) 0.4500(4)
H12A H -1.3247 1.4889 0.4835
H13A H -1.5074 1.3710 0.4107
H14A H -1.3737 1.3485 0.5207
loop_
_geom_bond_atom_site_label_1
_geom_bond_atom_site_label_2
_geom_bond_site_symmetry_1
_geom_bond_site_symmetry_2
Cd1 N1 1_555 1_555
Cd2 O2 1_555 1_555
N1 C13 1_555 1_555
N2 Cd1 1_555 1_555
N3 H1 1_555 1_555
N4 C16 1_555 1_555
O1 Cd1 1_555 1_555
O2 C1 1_555 1_555
O3 Cd1 1_555 1_555
O4 Cd2 1_555 1_555
O5 Cd1 1_555 1_555
O6 Cd1 1_555 1_555
C1 O1 1_555 1_555
C2 C1 1_555 1_555
C3 C2 1_555 1_555
H2 C3 1_555 1_555
C4 C2 1_555 1_555
H3 C4 1_555 1_555
C5 O3 1_555 1_555
C6 C5 1_555 1_555
C7 C6 1_555 1_555
H4 C7 1_555 1_555
C8 C6 1_555 1_555
H5 C8 1_555 1_555
C9 O5 1_555 1_555
C10 C9 1_555 1_555
C11 C10 1_555 1_555
H6 C11 1_555 1_555
C12 C10 1_555 1_555
H7 C12 1_555 1_555
C13 H8 1_555 1_555
C14 N3 1_555 1_555
H9 C14 1_555 1_555
C15 N1 1_555 1_555
C16 N2 1_555 1_555
C17 N2 1_555 1_555
H10 C17 1_555 1_555
C18 N4 1_555 1_555
H11 C18 1_555 1_555
C19 N4 1_555 1_555
H12 C19 1_555 1_555
H13 C19 1_555 1_555
H14 C19 1_555 1_555
Cd1A N1A 1_555 1_555
Cd1A_2 O3A 1_555 1_555
Cd1A_3 O5A 1_555 1_555
Cd2_2 O2A 1_555 1_555
Cd2_3 O4A 1_555 1_555
Cd2_4 O6A 1_555 1_555
N1A C13A 1_555 1_555
N2A Cd1A 1_555 1_555
N3A H1A 1_555 1_555
N4A C16A 1_555 1_555
O1A Cd1A 1_555 1_555
O2A C1A 1_555 1_555
O2A_2 Cd2 1_555 1_555
O3A C5A 1_555 1_555
O3A_2 Cd1A 1_555 1_555
O4A C5A 1_555 1_555
O4A_2 Cd2 1_555 1_555
O5A C9A 1_555 1_555
O5A_2 Cd1A 1_555 1_555
O6A Cd1A_3 1_555 1_555
O6A_2 Cd2 1_555 1_555
O6A_3 Cd1A 1_555 1_555
C1A O1A 1_555 1_555
C2A C1A 1_555 1_555
C3A C4 1_555 1_555
H2A C3A 1_555 1_555
C4A C3 1_555 1_555
H3A C4A 1_555 1_555
C5A C6A 1_555 1_555
C6A C7A 1_555 1_555
C7A C8 1_555 1_555
H4A C7A 1_555 1_555
C8A C7 1_555 1_555
H5A C8A 1_555 1_555
C9A O6A 1_555 1_555
C10A C9A 1_555 1_555
C11A C12 1_555 1_555
H6A C11A 1_555 1_555
C12A C11 1_555 1_555
H7A C12A 1_555 1_555
C13A H8A 1_555 1_555
C14A N3A 1_555 1_555
H9A C14A 1_555 1_555
C15A N1A 1_555 1_555
C16A N2A 1_555 1_555
C17A N2A 1_555 1_555
H10A C17A 1_555 1_555
C18A N4A 1_555 1_555
H11A C18A 1_555 1_555
C19A N4A 1_555 1_555
H12A C19A 1_555 1_555
H13A C19A 1_555 1_555
H14A C19A 1_555 1_555
Cd2 O6 1_555 1_555
N3 C15 1_555 1_555
O4 C5 1_555 1_555
O6 C9 1_555 1_555
C13 C14 1_555 1_555
C15 C16 1_555 1_555
C17 C18 1_555 1_555
Cd2_2 O6A_3 1_555 1_555
N3A C15A 1_555 1_555
C2A C3A 1_555 1_555
C2A C4A 1_555 1_555
C6A C8A 1_555 1_555
C10A C11A 1_555 1_555
C10A C12A 1_555 1_555
C13A C14A 1_555 1_555
C15A C16A 1_555 1_555
C17A C18A 1_555 1_555

#END
