
#######################################################################
#
#                 Cambridge Crystallographic Data Centre
#                                CCDC 
#
#######################################################################
#
# If this CIF has been generated from an entry in the Cambridge 
# Structural Database, then it will include bibliographic, chemical, 
# crystal, experimental, refinement or atomic coordinate data resulting 
# from the CCDC's data processing and validation procedures.
#
#######################################################################

data_OWUFOC
_symmetry_cell_setting           monoclinic
_symmetry_space_group_name_H-M   'P 21/c'
_symmetry_Int_Tables_number      14
_space_group_name_Hall           '-P 2ybc'
loop_
_symmetry_equiv_pos_site_id
_symmetry_equiv_pos_as_xyz
1 x,y,z
2 -x,1/2+y,1/2-z
3 -x,-y,-z
4 x,1/2-y,1/2+z
_cell_length_a                   10.1963(2)
_cell_length_b                   23.3619(5)
_cell_length_c                   40.0346(11)
_cell_angle_alpha                90
_cell_angle_beta                 90.608(2)
_cell_angle_gamma                90
_cell_volume                     9535.9
loop_
_atom_site_label
_atom_site_type_symbol
_atom_site_fract_x
_atom_site_fract_y
_atom_site_fract_z
Cu1 Cu 0.05027(6) 0.15737(3) 0.372872(17)
Cu2 Cu 0.30281(6) -0.15405(3) 0.139852(16)
Cu3 Cu 0.34208(7) 0.36390(4) 0.62609(2)
C1 C 0.5451(9) 0.4371(4) 0.6601(2)
H1 H 0.5387 0.4665 0.6445
C2 C 0.5127(10) 0.3633(5) 0.6867(3)
H2 H 0.4794 0.3276 0.6926
C3 C 0.7026(9) 0.4838(5) 0.7000(3)
H3 H 0.7054 0.4813 0.7242
H4 H 0.6668 0.5210 0.6940
C4 C 0.8417(11) 0.4789(5) 0.6866(3)
H5 H 0.8388 0.4748 0.6625
H6 H 0.8910 0.5132 0.6920
C5 C 0.9036(10) 0.4307(5) 0.7010(3)
H7 H 0.8572 0.3956 0.6958
H8 H 0.9126 0.4345 0.7251
C6 C 1.2213(14) 0.4679(7) 0.6656(4)
H9 H 1.2907 0.4919 0.6603
C7 C 1.0956(9) 0.3973(5) 0.6608(2)
H10 H 1.0485 0.3675 0.6509
C8 C 0.5533(6) -0.2271(3) -0.08078(16)
H11 H 0.6314 -0.2474 -0.0826
C9 C 0.4107(6) -0.1642(3) -0.08696(15)
H12 H 0.3655 -0.1315 -0.0937
C10 C 0.2336(5) -0.2066(3) -0.05088(14)
H13 H 0.1858 -0.2389 -0.0601
H14 H 0.1844 -0.1721 -0.0561
C11 C 0.2443(6) -0.2132(3) -0.01317(15)
H15 H 0.1570 -0.2157 -0.0039
H16 H 0.2901 -0.2485 -0.0079
C12 C 0.3163(6) -0.1637(3) 0.00273(15)
H17 H 0.3993 -0.1579 -0.0084
H18 H 0.2648 -0.1290 0.0003
C13 C 0.2806(5) -0.1529(3) 0.06466(15)
H19 H 0.2147 -0.1254 0.0638
C14 C 0.4197(5) -0.2139(3) 0.08061(14)
H20 H 0.4701 -0.2370 0.0946
C15 C 0.3865(6) -0.1063(3) 0.20637(18)
H21 H 0.4682 -0.0963 0.1981
C16 C 0.1969(5) -0.1395(3) 0.20946(14)
H22 H 0.1173 -0.1571 0.2045
C17 C 0.1507(6) -0.1134(3) 0.26958(14)
H23 H 0.2031 -0.1261 0.2885
H24 H 0.0746 -0.1382 0.2678
C18 C 0.1059(5) -0.0523(3) 0.27544(15)
H25 H 0.1815 -0.0272 0.2763
H26 H 0.0499 -0.0401 0.2570
C19 C 0.0316(6) -0.0480(3) 0.30775(16)
H27 H -0.0510 -0.0683 0.3055
H28 H 0.0821 -0.0660 0.3255
C20 C -0.0683(5) 0.0946(3) 0.31400(15)
H29 H -0.1163 0.1266 0.3076
C21 C 0.0640(5) 0.0421(3) 0.34013(15)
H30 H 0.1271 0.0284 0.3551
C22 C -0.0285(6) 0.2367(3) 0.42999(18)
H31 H -0.1123 0.2211 0.4307
C23 C 0.1646(6) 0.2519(3) 0.41421(19)
H32 H 0.2438 0.2522 0.4029
C24 C 0.2121(10) 0.3339(5) 0.4523(3)
H33 H 0.2985 0.3318 0.4425
H34 H 0.1714 0.3689 0.4443
C25 C 0.2266(9) 0.3380(5) 0.4833(2)
H35 H 0.3077 0.3586 0.4876
H36 H 0.2378 0.2997 0.4922
C26 C 0.1125(8) 0.3688(5) 0.5041(2)
H37 H 0.1149 0.4098 0.5004
H38 H 0.0274 0.3546 0.4969
C27 C 0.1263(8) 0.3121(4) 0.5834(2)
H39 H 0.1024 0.2859 0.5997
C28 C 0.2117(7) 0.3821(4) 0.5612(2)
H40 H 0.2606 0.4149 0.5569
C29 C 0.0167(5) -0.1347(2) 0.14039(14)
C30 C -0.0969(5) -0.1004(2) 0.12555(14)
C31 C -0.0714(5) -0.0541(2) 0.10523(15)
H41 H 0.0144 -0.0443 0.1001
C32 C -0.1752(5) -0.0227(3) 0.09266(15)
C33 C -0.3048(5) -0.0369(2) 0.10052(14)
H42 H -0.3738 -0.0153 0.0918
C34 C -0.3303(5) -0.0830(2) 0.12125(14)
C35 C -0.2251(5) -0.1152(2) 0.13357(14)
H43 H -0.2406 -0.1467 0.1472
C36 C -0.4696(5) -0.0978(3) 0.12942(14)
C37 C -0.1751(5) 0.1128(2) 0.39474(14)
C38 C -0.3148(5) 0.0921(2) 0.39554(13)
C39 C -0.3385(5) 0.0353(2) 0.40460(14)
H44 H -0.2687 0.0115 0.4103
C40 C -0.4645(5) 0.0145(3) 0.40506(16)
C41 C -0.5689(5) 0.0497(2) 0.39768(14)
H45 H -0.6540 0.0357 0.3991
C42 C -0.5477(5) 0.1061(2) 0.38810(13)
C43 C -0.4186(5) 0.1267(2) 0.38682(13)
H46 H -0.4031 0.1641 0.3800
C44 C -0.6608(5) 0.1464(3) 0.37970(13)
N1 N 0.4832(5) 0.3891(3) 0.65778(14)
N2 N 0.5957(7) 0.3936(4) 0.7068(2)
N3 N 0.6170(6) 0.4390(4) 0.68676(16)
N4 N 1.0426(6) 0.4338(4) 0.68286(18)
N5 N 1.1201(13) 0.4842(6) 0.6834(3)
N6 N 1.2133(5) 0.4068(3) 0.65474(17)
N7 N 0.2091(5) 0.3544(3) 0.59019(16)
N8 N 0.1344(6) 0.3562(3) 0.53946(15)
N9 N 0.0806(6) 0.3089(3) 0.55359(19)
N10 N 0.1350(5) 0.2857(3) 0.43952(17)
N11 N 0.0090(5) 0.2775(3) 0.44993(17)
N12 N 0.0651(4) 0.2180(2) 0.40755(12)
N13 N 0.0193(4) 0.0955(2) 0.33929(12)
N14 N 0.0059(4) 0.0113(2) 0.31666(12)
N15 N -0.0809(4) 0.0447(2) 0.29911(13)
N16 N 0.2285(4) -0.1183(2) 0.23897(11)
N17 N 0.3511(5) -0.0960(3) 0.23758(13)
N18 N 0.2937(4) -0.1326(2) 0.18773(11)
N19 N 0.3291(4) -0.1754(2) 0.09218(11)
N20 N 0.3397(5) -0.1754(2) 0.03816(12)
N21 N 0.4285(5) -0.2149(2) 0.04754(13)
N22 N 0.3640(5) -0.2032(2) -0.06665(12)
N23 N 0.4522(5) -0.2451(2) -0.06191(13)
N24 N 0.5306(5) -0.1775(2) -0.09658(13)
O1 O 0.1279(3) -0.12309(18) 0.12821(9)
O2 O -0.0113(3) -0.16937(17) 0.16279(10)
O3 O -0.5568(3) -0.06183(17) 0.12413(11)
O4 O -0.4944(3) -0.14711(16) 0.14192(9)
O5 O -0.2673(7) 0.0599(4) 0.0549(2)
O6 O -0.0651(9) 0.0753(5) 0.0827(2)
O7 O -0.0719(9) 0.0120(4) 0.0362(2)
O8 O 0.2909(3) -0.24634(16) 0.15020(9)
H71 H 0.2389 -0.2662 0.1384
H72 H 0.2938 -0.2561 0.1705
O9 O -0.1501(3) 0.15991(16) 0.37926(9)
O10 O -0.0889(3) 0.08422(17) 0.40885(10)
O11 O -0.6336(3) 0.19643(16) 0.37375(10)
O12 O -0.7740(3) 0.12324(16) 0.37929(10)
O13 O -0.6130(4) -0.0636(2) 0.42974(12)
O14 O -0.3777(5) -0.0833(2) 0.42416(14)
O15 O 0.0433(3) 0.21730(16) 0.33039(9)
H73 H 0.0907 0.2047 0.3147
H74 H 0.0384 0.2534 0.3311
O16 O 0.2979(4) 0.2790(2) 0.65048(11)
H75 H 0.2845 0.2788 0.6718
H76 H 0.3501 0.2523 0.6446
S1 S -0.4886(2) -0.06090(12) 0.40969(11)
O34 O -0.5104(6) -0.0838(3) 0.37651(16)
S2 S -0.14181(17) 0.03795(10) 0.06707(7)
Cu1_2 Cu 1.05027(6) 0.15737(3) 0.372872(17)
Cu1_3 Cu -0.94973(6) 0.15737(3) 0.372872(17)
Cu2_2 Cu 1.30281(6) -0.15405(3) 0.139852(16)
Cu2_3 Cu -0.69719(6) -0.15405(3) 0.139852(16)
Cu2A Cu 0.69719(6) 0.34595(3) 0.360148(16)
Cu3_2 Cu -0.65792(7) 0.36390(4) 0.62609(2)
Cu3_3 Cu 1.34208(7) 0.36390(4) 0.62609(2)
Cu3A Cu 0.65792(7) -0.13610(4) -0.12609(2)
C1_2 C -0.4549(9) 0.4371(4) 0.6601(2)
H1_2 H -0.4613 0.4665 0.6445
C2_2 C -0.4873(10) 0.3633(5) 0.6867(3)
H2_2 H -0.5206 0.3276 0.6926
C3_2 C -0.2974(9) 0.4838(5) 0.7000(3)
H3_2 H -0.2946 0.4813 0.7242
H4_2 H -0.3332 0.5210 0.6940
C4_2 C -0.1583(11) 0.4789(5) 0.6866(3)
H5_2 H -0.1612 0.4748 0.6625
H6_2 H -0.1090 0.5132 0.6920
C5_2 C -0.0964(10) 0.4307(5) 0.7010(3)
H7_2 H -0.1428 0.3956 0.6958
H8_2 H -0.0874 0.4345 0.7251
C6_2 C 0.2213(14) 0.4679(7) 0.6656(4)
H9_2 H 0.2907 0.4919 0.6603
C7_2 C 0.0956(9) 0.3973(5) 0.6608(2)
H10_2 H 0.0485 0.3675 0.6509
C8A C 0.4467(6) 0.2729(3) 0.58078(16)
H11A H 0.3686 0.2526 0.5826
C9A C 0.5893(6) 0.3358(3) 0.58696(15)
H12A H 0.6345 0.3685 0.5937
C10A C 0.7664(5) 0.2934(3) 0.55088(14)
H13A H 0.8142 0.2611 0.5601
H14A H 0.8156 0.3279 0.5561
C11A C 0.7557(6) 0.2868(3) 0.51317(15)
H15A H 0.8430 0.2843 0.5039
H16A H 0.7099 0.2515 0.5079
C12A C 0.6837(6) 0.3363(3) 0.49727(15)
H17A H 0.6007 0.3421 0.5084
H18A H 0.7352 0.3710 0.4997
C13A C 0.7194(5) 0.3471(3) 0.43534(15)
H19A H 0.7853 0.3746 0.4362
C14A C 0.5803(5) 0.2861(3) 0.41939(14)
H20A H 0.5299 0.2630 0.4054
C15_2 C 1.3865(6) -0.1063(3) 0.20637(18)
H21_2 H 1.4682 -0.0963 0.1981
C16_2 C 1.1969(5) -0.1395(3) 0.20946(14)
H22_2 H 1.1173 -0.1571 0.2045
C17_2 C 1.1507(6) -0.1134(3) 0.26958(14)
H23_2 H 1.2031 -0.1261 0.2885
H24_2 H 1.0746 -0.1382 0.2678
C18_2 C 1.1059(5) -0.0523(3) 0.27544(15)
H25_2 H 1.1815 -0.0272 0.2763
H26_2 H 1.0499 -0.0401 0.2570
C19_2 C 1.0316(6) -0.0480(3) 0.30775(16)
H27_2 H 0.9490 -0.0683 0.3055
H28_2 H 1.0821 -0.0660 0.3255
C20_2 C 0.9317(5) 0.0946(3) 0.31400(15)
H29_2 H 0.8837 0.1266 0.3076
C21_2 C 1.0640(5) 0.0421(3) 0.34013(15)
H30_2 H 1.1271 0.0284 0.3551
C22_2 C 0.9715(6) 0.2367(3) 0.42999(18)
H31_2 H 0.8877 0.2211 0.4307
C23_2 C 1.1646(6) 0.2519(3) 0.41421(19)
H32_2 H 1.2438 0.2522 0.4029
C24_2 C 1.2121(10) 0.3339(5) 0.4523(3)
H33_2 H 1.2985 0.3318 0.4425
H34_2 H 1.1714 0.3689 0.4443
C25_2 C 1.2266(9) 0.3380(5) 0.4833(2)
H35_2 H 1.3077 0.3586 0.4876
H36_2 H 1.2378 0.2997 0.4922
C26_2 C 1.1125(8) 0.3688(5) 0.5041(2)
H37_2 H 1.1149 0.4098 0.5004
H38_2 H 1.0274 0.3546 0.4969
C27_2 C 1.1263(8) 0.3121(4) 0.5834(2)
H39_2 H 1.1024 0.2859 0.5997
C28_2 C 1.2117(7) 0.3821(4) 0.5612(2)
H40_2 H 1.2606 0.4149 0.5569
C29_2 C 1.0167(5) -0.1347(2) 0.14039(14)
C30_2 C 0.9031(5) -0.1004(2) 0.12555(14)
C31_2 C 0.9286(5) -0.0541(2) 0.10523(15)
H41_2 H 1.0144 -0.0443 0.1001
C32_2 C 0.8248(5) -0.0227(3) 0.09266(15)
C33_2 C 0.6952(5) -0.0369(2) 0.10052(14)
H42_2 H 0.6262 -0.0153 0.0918
C34_2 C 0.6697(5) -0.0830(2) 0.12125(14)
C35_2 C 0.7749(5) -0.1152(2) 0.13357(14)
H43_2 H 0.7594 -0.1467 0.1472
C36_2 C 0.5304(5) -0.0978(3) 0.12942(14)
C37_2 C 0.8249(5) 0.1128(2) 0.39474(14)
C38_2 C 0.6852(5) 0.0921(2) 0.39554(13)
C39_2 C 0.6615(5) 0.0353(2) 0.40460(14)
H44_2 H 0.7313 0.0115 0.4103
C40_2 C 0.5355(5) 0.0145(3) 0.40506(16)
C41_2 C 0.4311(5) 0.0497(2) 0.39768(14)
H45_2 H 0.3460 0.0357 0.3991
C42_2 C 0.4523(5) 0.1061(2) 0.38810(13)
C43_2 C 0.5814(5) 0.1267(2) 0.38682(13)
H46_2 H 0.5969 0.1641 0.3800
C44_2 C 0.3392(5) 0.1464(3) 0.37970(13)
N1_2 N -0.5168(5) 0.3891(3) 0.65778(14)
N2_2 N -0.4043(7) 0.3936(4) 0.7068(2)
N3_2 N -0.3830(6) 0.4390(4) 0.68676(16)
N4_2 N 0.0426(6) 0.4338(4) 0.68286(18)
N5_2 N 0.1201(13) 0.4842(6) 0.6834(3)
N6_2 N 0.2133(5) 0.4068(3) 0.65474(17)
N6_3 N -0.7867(5) 0.4068(3) 0.65474(17)
N7_2 N 1.2091(5) 0.3544(3) 0.59019(16)
N7_3 N -0.7909(5) 0.3544(3) 0.59019(16)
N8_2 N 1.1344(6) 0.3562(3) 0.53946(15)
N9_2 N 1.0806(6) 0.3089(3) 0.55359(19)
N10_2 N 1.1350(5) 0.2857(3) 0.43952(17)
N11_2 N 1.0090(5) 0.2775(3) 0.44993(17)
N12_2 N 1.0651(4) 0.2180(2) 0.40755(12)
N13_2 N 1.0193(4) 0.0955(2) 0.33929(12)
N14_2 N 1.0059(4) 0.0113(2) 0.31666(12)
N15_2 N 0.9191(4) 0.0447(2) 0.29911(13)
N16_2 N 1.2285(4) -0.1183(2) 0.23897(11)
N17_2 N 1.3511(5) -0.0960(3) 0.23758(13)
N18_2 N 1.2937(4) -0.1326(2) 0.18773(11)
N19A N 0.6709(4) 0.3246(2) 0.40782(11)
N19_2 N 1.3291(4) -0.1754(2) 0.09218(11)
N20A N 0.6603(5) 0.3246(2) 0.46184(12)
N21A N 0.5715(5) 0.2851(2) 0.45246(13)
N22A N 0.6360(5) 0.2968(2) 0.56665(12)
N23A N 0.5478(5) 0.2549(2) 0.56191(13)
N24A N 0.4694(5) 0.3225(2) 0.59658(13)
N24A_2 N -0.5306(5) 0.3225(2) 0.59658(13)
O1_2 O 1.1279(3) -0.12309(18) 0.12821(9)
O2_2 O 0.9887(3) -0.16937(17) 0.16279(10)
O3_2 O 0.4432(3) -0.06183(17) 0.12413(11)
O3_3 O 1.4432(3) -0.06183(17) 0.12413(11)
O4_2 O 0.5056(3) -0.14711(16) 0.14192(9)
O4_3 O 1.5056(3) -0.14711(16) 0.14192(9)
O5_2 O 0.7327(7) 0.0599(4) 0.0549(2)
O6_2 O 0.9349(9) 0.0753(5) 0.0827(2)
O7_2 O 0.9281(9) 0.0120(4) 0.0362(2)
O8_2 O 1.2909(3) -0.24634(16) 0.15020(9)
H71_2 H 1.2389 -0.2662 0.1384
H72_2 H 1.2938 -0.2561 0.1705
O9_2 O 0.8499(3) 0.15991(16) 0.37926(9)
O10_2 O 0.9111(3) 0.08422(17) 0.40885(10)
O11_2 O 0.3664(3) 0.19643(16) 0.37375(10)
O12_2 O 0.2260(3) 0.12324(16) 0.37929(10)
O12_3 O 1.2260(3) 0.12324(16) 0.37929(10)
O13_2 O 0.3870(4) -0.0636(2) 0.42974(12)
O14_2 O 0.6223(5) -0.0833(2) 0.42416(14)
O15_2 O 1.0433(3) 0.21730(16) 0.33039(9)
H73_2 H 1.0907 0.2047 0.3147
H74_2 H 1.0384 0.2534 0.3311
O16_2 O -0.7021(4) 0.2790(2) 0.65048(11)
H75_2 H -0.7155 0.2788 0.6718
H76_2 H -0.6499 0.2523 0.6446
S1_2 S 0.5114(2) -0.06090(12) 0.40969(11)
O34_2 O 0.4896(6) -0.0838(3) 0.37651(16)
S2_2 S 0.85819(17) 0.03795(10) 0.06707(7)
Cu4 Cu 0.37851(6) 0.23294(3) 0.269665(17)
C45 C 0.2977(6) 0.1102(3) 0.27873(19)
H47 H 0.2176 0.1174 0.2683
C46 C 0.4829(5) 0.1235(2) 0.29877(14)
H48 H 0.5622 0.1394 0.3057
C47 C 0.5235(5) 0.0221(2) 0.31661(15)
H49 H 0.4693 0.0010 0.3321
H50 H 0.5986 0.0368 0.3289
C48 C 0.5707(6) -0.0182(2) 0.28954(15)
H51 H 0.4964 -0.0302 0.2759
H52 H 0.6314 0.0020 0.2752
C49 C 0.6368(6) -0.0697(3) 0.30375(15)
H53 H 0.7190 -0.0584 0.3143
H54 H 0.5817 -0.0865 0.3207
C50 C 0.6061(5) -0.1632(2) 0.27342(15)
H55 H 0.5443 -0.1793 0.2875
C51 C 0.7391(5) -0.1480(3) 0.23427(15)
H56 H 0.7881 -0.1539 0.2151
C52 C 0.1523(5) 0.2212(2) 0.23769(14)
C53 C 0.0157(5) 0.2314(2) 0.22581(13)
C54 C -0.0034(5) 0.2484(2) 0.19347(14)
H57 H 0.0673 0.2524 0.1792
C55 C -0.1299(5) 0.2595(3) 0.18241(14)
C56 C -0.2377(5) 0.2514(3) 0.20365(14)
H58 H -0.3223 0.2578 0.1956
C57 C -0.2190(5) 0.2343(2) 0.23596(13)
C58 C -0.0913(4) 0.2251(2) 0.24739(13)
H59 H -0.0767 0.2147 0.2695
C59 C -0.3349(5) 0.2260(2) 0.25961(14)
N25 N 0.3886(4) 0.15141(19) 0.28337(11)
N26 N 0.3295(5) 0.0596(2) 0.28989(16)
N27 N 0.4490(4) 0.06941(19) 0.30306(11)
N28 N 0.6629(4) -0.1128(2) 0.27753(12)
N29 N 0.7480(4) -0.1025(2) 0.25205(13)
N30 N 0.6519(4) -0.1869(2) 0.24585(11)
O18 O 0.1761(3) 0.22504(16) 0.26858(9)
O19 O 0.2408(3) 0.21110(18) 0.21654(9)
O20 O -0.3109(3) 0.20909(18) 0.28832(10)
O21 O -0.4474(3) 0.23667(17) 0.24752(10)
O22 O -0.2643(5) 0.2602(2) 0.12879(11)
O23 O -0.0341(6) 0.2850(3) 0.12382(15)
O24 O -0.1820(6) 0.3495(2) 0.14686(14)
O25 O 0.3695(3) 0.26621(17) 0.32099(9)
H77 H 0.4019 0.2970 0.3288
H78 H 0.3680 0.2402 0.3359
S3 S -0.15305(16) 0.28808(10) 0.14111(4)
Cu4A Cu 0.62149(6) 0.73294(3) 0.230335(17)
Cu4A_2 Cu 0.62149(6) -0.26706(3) 0.230335(17)
Cu4_2 Cu -0.62149(6) 0.23294(3) 0.269665(17)
Cu4_3 Cu 1.37851(6) 0.23294(3) 0.269665(17)
C45A C 0.7023(6) 0.6102(3) 0.22127(19)
H47A H 0.7824 0.6174 0.2317
C46A C 0.5171(5) 0.6235(2) 0.20123(14)
H48A H 0.4378 0.6394 0.1943
C47A C 0.4765(5) 0.5221(2) 0.18339(15)
H49A H 0.5307 0.5010 0.1679
H50A H 0.4014 0.5368 0.1711
C48A C 0.4293(6) 0.4818(2) 0.21046(15)
H51A H 0.5036 0.4698 0.2241
H52A H 0.3686 0.5020 0.2248
C49A C 0.3632(6) 0.4303(3) 0.19625(15)
H53A H 0.2810 0.4416 0.1857
H54A H 0.4183 0.4135 0.1793
C50A C 0.3939(5) 0.3368(2) 0.22658(15)
H55A H 0.4557 0.3207 0.2125
C51A C 0.2609(5) 0.3520(3) 0.26573(15)
H56A H 0.2119 0.3461 0.2849
C52_2 C 1.1523(5) 0.2212(2) 0.23769(14)
C53_2 C 1.0157(5) 0.2314(2) 0.22581(13)
C54_2 C 0.9966(5) 0.2484(2) 0.19347(14)
H57_2 H 1.0673 0.2524 0.1792
C55_2 C 0.8701(5) 0.2595(3) 0.18241(14)
C56_2 C 0.7623(5) 0.2514(3) 0.20365(14)
H58_2 H 0.6777 0.2578 0.1956
C57_2 C 0.7810(5) 0.2343(2) 0.23596(13)
C58_2 C 0.9087(4) 0.2251(2) 0.24739(13)
H59_2 H 0.9233 0.2147 0.2695
C59_2 C 0.6651(5) 0.2260(2) 0.25961(14)
N25A N 0.6114(4) 0.65141(19) 0.21663(11)
N26A N 0.6705(5) 0.5596(2) 0.21011(16)
N27A N 0.5510(4) 0.56941(19) 0.19694(11)
N28A N 0.3371(4) 0.3872(2) 0.22247(12)
N29A N 0.2520(4) 0.3975(2) 0.24795(13)
N30A N 0.3481(4) 0.3131(2) 0.25415(11)
N30_2 N 0.6519(4) 0.8131(2) 0.24585(11)
O18_2 O 1.1761(3) 0.22504(16) 0.26858(9)
O18A O 0.8239(3) 0.72504(16) 0.23142(9)
O19_2 O 1.2408(3) 0.21110(18) 0.21654(9)
O19A O 0.7592(3) 0.71110(18) 0.28346(9)
O20_2 O 0.6891(3) 0.20909(18) 0.28832(10)
O21_2 O 0.5526(3) 0.23667(17) 0.24752(10)
O21A O 0.4474(3) 0.73667(17) 0.25248(10)
O22_2 O 0.7357(5) 0.2602(2) 0.12879(11)
O23_2 O 0.9659(6) 0.2850(3) 0.12382(15)
O24_2 O 0.8180(6) 0.3495(2) 0.14686(14)
O25A O 0.6305(3) 0.76621(17) 0.17901(9)
H77A H 0.5981 0.7970 0.1712
H78A H 0.6320 0.7402 0.1641
S3_2 S 0.84695(16) 0.28808(10) 0.14111(4)
Cu5 Cu 1.0000 0.5000 0.0000
C60 C 0.8278(6) 0.5798(3) 0.04197(16)
H60 H 0.8603 0.5647 0.0619
C61 C 0.7942(6) 0.5907(3) -0.00876(16)
H61 H 0.7933 0.5871 -0.0319
C62 C 0.6406(6) 0.6752(3) -0.00385(19)
H62 H 0.6698 0.6890 -0.0254
H63 H 0.6427 0.7072 0.0116
C63 C 0.5029(6) 0.6539(4) -0.00718(17)
H64 H 0.4476 0.6858 -0.0138
H65 H 0.4999 0.6261 -0.0252
C64 C 0.4456(6) 0.6272(3) 0.02283(16)
H66 H 0.4969 0.5938 0.0290
H67 H 0.4499 0.6542 0.0412
C65 C 0.2577(6) 0.5595(3) 0.01128(17)
H68 H 0.3045 0.5253 0.0116
C66 C 0.1123(7) 0.6202(3) 0.0086(3)
H69 H 0.0299 0.6367 0.0059
N31 N 0.8584(4) 0.5571(2) 0.01186(12)
N32 N 0.7499(5) 0.6239(2) 0.04114(13)
N33 N 0.7304(4) 0.6308(2) 0.00806(13)
N34 N 0.3097(5) 0.6102(2) 0.01729(14)
N35 N 0.2165(6) 0.6500(3) 0.0162(2)
N36 N 0.1334(4) 0.5634(2) 0.00493(13)
O26 O 1.0395(4) 0.47996(19) 0.05833(10)
H79 H 1.0593 0.5106 0.0687
H80 H 0.9956 0.4568 0.0702
Cu5_2 Cu 0.0000 0.5000 0.0000
Cu5_3 Cu 2.0000 0.5000 0.0000
C60B C 1.1722(6) 0.4202(3) -0.04197(16)
H60B H 1.1397 0.4353 -0.0619
C61B C 1.2058(6) 0.4093(3) 0.00876(16)
H61B H 1.2067 0.4129 0.0319
C62B C 1.3594(6) 0.3248(3) 0.00385(19)
H62B H 1.3302 0.3110 0.0254
H63B H 1.3573 0.2928 -0.0116
C63B C 1.4971(6) 0.3461(4) 0.00718(17)
H64B H 1.5524 0.3142 0.0138
H65B H 1.5001 0.3739 0.0252
C64B C 1.5544(6) 0.3728(3) -0.02283(16)
H66B H 1.5031 0.4062 -0.0290
H67B H 1.5501 0.3458 -0.0412
C65B C 1.7423(6) 0.4405(3) -0.01128(17)
H68B H 1.6955 0.4747 -0.0116
C66B C 1.8877(7) 0.3798(3) -0.0086(3)
H69B H 1.9701 0.3633 -0.0059
N31B N 1.1416(4) 0.4429(2) -0.01186(12)
N32B N 1.2501(5) 0.3761(2) -0.04114(13)
N33B N 1.2696(4) 0.3692(2) -0.00806(13)
N34B N 1.6903(5) 0.3898(2) -0.01729(14)
N35B N 1.7835(6) 0.3500(3) -0.0162(2)
N36B N 1.8666(4) 0.4366(2) -0.00493(13)
N36_2 N 1.1334(4) 0.5634(2) 0.00493(13)
N36B_2 N 0.8666(4) 0.4366(2) -0.00493(13)
O26B O 0.9605(4) 0.52004(19) -0.05833(10)
H79B H 0.9407 0.4894 -0.0687
H80B H 1.0044 0.5432 -0.0702
O27 O 0.1618(7) 0.9633(3) 0.02915(18)
H81 H 0.0846 0.9735 0.0342
H82 H 0.1654 0.9349 0.0159
O28 O 0.1537(5) 0.9408(3) 0.39776(15)
H83 H 0.2605 0.9514 0.4036
H84 H 0.1363 0.9088 0.4116
O29 O 0.4885(5) 0.3056(2) 0.14906(13)
H85 H 0.4561 0.3317 0.1365
H86 H 0.5673 0.2953 0.1424
O30 O 0.8262(9) 0.1374(5) 0.1366(2)
O31 O 0.1963(10) 0.3264(4) 0.0815(3)
O32 O 0.4969(7) 0.0455(4) 0.0270(2)
H87 H 0.4278 0.0364 0.0113
H88 H 0.5799 0.0451 0.0168
O33 O 0.3598(12) 0.5024(6) 0.5686(4)
C67? C 1.2271(16) 0.4182(9) 0.6877(5)
H70? H 1.3057 0.4116 0.6990
N37? N 1.1230(13) 0.4392(8) 0.7030(4)
O17? O 0.4066(8) 0.4561(4) 0.5958(2)
O35? O -0.4771(19) -0.0358(9) 0.4657(5)
O36? O 0.7721(10) 0.0424(6) 0.0444(3)
O37? O 0.8448(11) 0.0867(6) 0.0959(3)
O38? O 0.9962(8) 0.0385(5) 0.0613(3)
S4? S -0.5001(7) -0.0485(3) 0.4310(3)
loop_
_geom_bond_atom_site_label_1
_geom_bond_atom_site_label_2
_geom_bond_site_symmetry_1
_geom_bond_site_symmetry_2
Cu1 N12 1_555 1_555
Cu2 N18 1_555 1_555
Cu3 N1 1_555 1_555
Cu4 N25 1_555 1_555
Cu5 N31 1_555 1_555
C1 H1 1_555 1_555
C2 H2 1_555 1_555
C3 H3 1_555 1_555
H4 C3 1_555 1_555
C4 C3 1_555 1_555
H5 C4 1_555 1_555
H6 C4 1_555 1_555
C5 C4 1_555 1_555
H7 C5 1_555 1_555
H8 C5 1_555 1_555
C6 H9 1_555 1_555
C7 H10 1_555 1_555
C8 H11 1_555 1_555
C9 H12 1_555 1_555
C10 H13 1_555 1_555
H14 C10 1_555 1_555
C11 C10 1_555 1_555
H15 C11 1_555 1_555
H16 C11 1_555 1_555
C12 C11 1_555 1_555
H17 C12 1_555 1_555
H18 C12 1_555 1_555
C13 H19 1_555 1_555
C14 H20 1_555 1_555
C15 H21 1_555 1_555
C16 H22 1_555 1_555
C17 H23 1_555 1_555
H24 C17 1_555 1_555
C18 C17 1_555 1_555
H25 C18 1_555 1_555
H26 C18 1_555 1_555
C19 C18 1_555 1_555
H27 C19 1_555 1_555
H28 C19 1_555 1_555
C20 H29 1_555 1_555
C21 H30 1_555 1_555
C22 H31 1_555 1_555
C23 H32 1_555 1_555
C24 H33 1_555 1_555
H34 C24 1_555 1_555
C25 C24 1_555 1_555
H35 C25 1_555 1_555
H36 C25 1_555 1_555
C26 C25 1_555 1_555
H37 C26 1_555 1_555
H38 C26 1_555 1_555
C27 H39 1_555 1_555
C28 H40 1_555 1_555
C29 C30 1_555 1_555
C30 C31 1_555 1_555
C31 H41 1_555 1_555
C32 C31 1_555 1_555
C33 C32 1_555 1_555
H42 C33 1_555 1_555
C34 C33 1_555 1_555
C35 C30 1_555 1_555
H43 C35 1_555 1_555
C36 C34 1_555 1_555
C37 C38 1_555 1_555
C38 C39 1_555 1_555
C39 H44 1_555 1_555
C40 C39 1_555 1_555
C41 C40 1_555 1_555
H45 C41 1_555 1_555
C42 C41 1_555 1_555
C43 C38 1_555 1_555
H46 C43 1_555 1_555
C44 C42 1_555 1_555
C45 H47 1_555 1_555
C46 H48 1_555 1_555
C47 H49 1_555 1_555
H50 C47 1_555 1_555
C48 C47 1_555 1_555
H51 C48 1_555 1_555
H52 C48 1_555 1_555
C49 C48 1_555 1_555
H53 C49 1_555 1_555
H54 C49 1_555 1_555
C50 H55 1_555 1_555
C51 H56 1_555 1_555
C52 C53 1_555 1_555
C53 C54 1_555 1_555
C54 H57 1_555 1_555
C55 C54 1_555 1_555
C56 C55 1_555 1_555
H58 C56 1_555 1_555
C57 C56 1_555 1_555
C58 C53 1_555 1_555
H59 C58 1_555 1_555
C59 C57 1_555 1_555
C60 H60 1_555 1_555
C61 H61 1_555 1_555
C62 H62 1_555 1_555
H63 C62 1_555 1_555
C63 C62 1_555 1_555
H64 C63 1_555 1_555
H65 C63 1_555 1_555
C64 C63 1_555 1_555
H66 C64 1_555 1_555
H67 C64 1_555 1_555
C65 H68 1_555 1_555
C66 H69 1_555 1_555
N1 C1 1_555 1_555
N2 C2 1_555 1_555
N3 C1 1_555 1_555
N4 C5 1_555 1_555
N5 C6 1_555 1_555
N6 C6 1_555 1_555
N7 Cu3 1_555 1_555
N8 C26 1_555 1_555
N9 C27 1_555 1_555
N10 C23 1_555 1_555
N11 C22 1_555 1_555
N12 C22 1_555 1_555
N13 Cu1 1_555 1_555
N14 C19 1_555 1_555
N15 C20 1_555 1_555
N16 C16 1_555 1_555
N17 C15 1_555 1_555
N18 C15 1_555 1_555
N19 Cu2 1_555 1_555
N20 C12 1_555 1_555
N21 C14 1_555 1_555
N22 C9 1_555 1_555
N23 C8 1_555 1_555
N24 C8 1_555 1_555
N25 C45 1_555 1_555
N26 C45 1_555 1_555
N27 C46 1_555 1_555
N28 C49 1_555 1_555
N29 C51 1_555 1_555
N30 C50 1_555 1_555
N31 C60 1_555 1_555
N32 C60 1_555 1_555
N33 C61 1_555 1_555
N34 C64 1_555 1_555
N35 C66 1_555 1_555
N36 C65 1_555 1_555
O1 Cu2 1_555 1_555
O2 C29 1_555 1_555
O3 C36 1_555 1_555
O4 C36 1_555 1_555
O5 S2 1_555 1_555
O6 S2 1_555 1_555
O7 S2 1_555 1_555
O8 Cu2 1_555 1_555
H71 O8 1_555 1_555
H72 O8 1_555 1_555
O9 Cu1 1_555 1_555
O10 Cu1 1_555 1_555
O11 C44 1_555 1_555
O12 C44 1_555 1_555
O13 S1 1_555 1_555
O14 S1 1_555 1_555
O15 Cu1 1_555 1_555
H73 O15 1_555 1_555
H74 O15 1_555 1_555
O16 Cu3 1_555 1_555
H75 O16 1_555 1_555
H76 O16 1_555 1_555
O18 Cu4 1_555 1_555
O19 Cu4 1_555 1_555
O20 C59 1_555 1_555
O21 C59 1_555 1_555
O22 S3 1_555 1_555
O23 S3 1_555 1_555
O24 S3 1_555 1_555
O25 Cu4 1_555 1_555
H77 O25 1_555 1_555
H78 O25 1_555 1_555
O26 Cu5 1_555 1_555
H79 O26 1_555 1_555
H80 O26 1_555 1_555
O27 H81 1_555 1_555
H82 O27 1_555 1_555
O28 H83 1_555 1_555
H84 O28 1_555 1_555
O29 H85 1_555 1_555
H86 O29 1_555 1_555
O32 H87 1_555 1_555
H88 O32 1_555 1_555
S1 C40 1_555 1_555
O34 S1 1_555 1_555
S2 C32 1_555 1_555
S3 C55 1_555 1_555
Cu1_2 N12_2 1_555 1_555
Cu1_3 O12 1_555 1_555
Cu2_2 N18_2 1_555 1_555
Cu2_3 O3 1_555 1_555
Cu2A N19A 1_555 1_555
Cu3_2 N1_2 1_555 1_555
Cu3_3 N6 1_555 1_555
Cu3A N24 1_555 1_555
Cu4A N25A 1_555 1_555
Cu4A_2 N30 1_555 1_555
Cu4_2 O21 1_555 1_555
Cu4_3 O18_2 1_555 1_555
Cu5_2 N36 1_555 1_555
Cu5_3 N36B 1_555 1_555
C1_2 H1_2 1_555 1_555
C2_2 H2_2 1_555 1_555
C3_2 H3_2 1_555 1_555
H4_2 C3_2 1_555 1_555
C4_2 C3_2 1_555 1_555
H5_2 C4_2 1_555 1_555
H6_2 C4_2 1_555 1_555
C5_2 C4_2 1_555 1_555
H7_2 C5_2 1_555 1_555
H8_2 C5_2 1_555 1_555
C6_2 H9_2 1_555 1_555
C7_2 H10_2 1_555 1_555
C8A H11A 1_555 1_555
C9A H12A 1_555 1_555
C10A H13A 1_555 1_555
H14A C10A 1_555 1_555
C11A C10A 1_555 1_555
H15A C11A 1_555 1_555
H16A C11A 1_555 1_555
C12A C11A 1_555 1_555
H17A C12A 1_555 1_555
H18A C12A 1_555 1_555
C13A H19A 1_555 1_555
C14A H20A 1_555 1_555
C15_2 H21_2 1_555 1_555
C16_2 H22_2 1_555 1_555
C17_2 H23_2 1_555 1_555
H24_2 C17_2 1_555 1_555
C18_2 C17_2 1_555 1_555
H25_2 C18_2 1_555 1_555
H26_2 C18_2 1_555 1_555
C19_2 C18_2 1_555 1_555
H27_2 C19_2 1_555 1_555
H28_2 C19_2 1_555 1_555
C20_2 H29_2 1_555 1_555
C21_2 H30_2 1_555 1_555
C22_2 H31_2 1_555 1_555
C23_2 H32_2 1_555 1_555
C24_2 H33_2 1_555 1_555
H34_2 C24_2 1_555 1_555
C25_2 C24_2 1_555 1_555
H35_2 C25_2 1_555 1_555
H36_2 C25_2 1_555 1_555
C26_2 C25_2 1_555 1_555
H37_2 C26_2 1_555 1_555
H38_2 C26_2 1_555 1_555
C27_2 H39_2 1_555 1_555
C28_2 H40_2 1_555 1_555
C29_2 C30_2 1_555 1_555
C30_2 C31_2 1_555 1_555
C31_2 H41_2 1_555 1_555
C32_2 C31_2 1_555 1_555
C33_2 C32_2 1_555 1_555
H42_2 C33_2 1_555 1_555
C34_2 C33_2 1_555 1_555
C35_2 C30_2 1_555 1_555
H43_2 C35_2 1_555 1_555
C36_2 C34_2 1_555 1_555
C37_2 C38_2 1_555 1_555
C38_2 C39_2 1_555 1_555
C39_2 H44_2 1_555 1_555
C40_2 C39_2 1_555 1_555
C41_2 C40_2 1_555 1_555
H45_2 C41_2 1_555 1_555
C42_2 C41_2 1_555 1_555
C43_2 C38_2 1_555 1_555
H46_2 C43_2 1_555 1_555
C44_2 C42_2 1_555 1_555
C45A H47A 1_555 1_555
C46A H48A 1_555 1_555
C47A H49A 1_555 1_555
H50A C47A 1_555 1_555
C48A C47A 1_555 1_555
H51A C48A 1_555 1_555
H52A C48A 1_555 1_555
C49A C48A 1_555 1_555
H53A C49A 1_555 1_555
H54A C49A 1_555 1_555
C50A H55A 1_555 1_555
C51A H56A 1_555 1_555
C52_2 C53_2 1_555 1_555
C53_2 C54_2 1_555 1_555
C54_2 H57_2 1_555 1_555
C55_2 C54_2 1_555 1_555
C56_2 C55_2 1_555 1_555
H58_2 C56_2 1_555 1_555
C57_2 C56_2 1_555 1_555
C58_2 C53_2 1_555 1_555
H59_2 C58_2 1_555 1_555
C59_2 C57_2 1_555 1_555
C60B H60B 1_555 1_555
C61B H61B 1_555 1_555
C62B H62B 1_555 1_555
H63B C62B 1_555 1_555
C63B C62B 1_555 1_555
H64B C63B 1_555 1_555
H65B C63B 1_555 1_555
C64B C63B 1_555 1_555
H66B C64B 1_555 1_555
H67B C64B 1_555 1_555
C65B H68B 1_555 1_555
C66B H69B 1_555 1_555
N1_2 C1_2 1_555 1_555
N2_2 C2_2 1_555 1_555
N3_2 C1_2 1_555 1_555
N4_2 C5_2 1_555 1_555
N5_2 C6_2 1_555 1_555
N6_2 Cu3 1_555 1_555
N6_3 Cu3_2 1_555 1_555
N7_2 Cu3_3 1_555 1_555
N7_3 Cu3_2 1_555 1_555
N8_2 C26_2 1_555 1_555
N9_2 C27_2 1_555 1_555
N10_2 C23_2 1_555 1_555
N11_2 C22_2 1_555 1_555
N12_2 C22_2 1_555 1_555
N13_2 Cu1_2 1_555 1_555
N14_2 C19_2 1_555 1_555
N15_2 C20_2 1_555 1_555
N16_2 C16_2 1_555 1_555
N17_2 C15_2 1_555 1_555
N18_2 C15_2 1_555 1_555
N19A C13A 1_555 1_555
N19_2 Cu2_2 1_555 1_555
N20A C12A 1_555 1_555
N21A C14A 1_555 1_555
N22A C9A 1_555 1_555
N23A C8A 1_555 1_555
N24A Cu3 1_555 1_555
N24A_2 Cu3_2 1_555 1_555
N25A C45A 1_555 1_555
N26A C45A 1_555 1_555
N27A C46A 1_555 1_555
N28A C49A 1_555 1_555
N29A C51A 1_555 1_555
N30A Cu4 1_555 1_555
N30_2 Cu4A 1_555 1_555
N31B Cu5 1_555 1_555
N32B C60B 1_555 1_555
N33B C61B 1_555 1_555
N34B C64B 1_555 1_555
N35B C66B 1_555 1_555
N36B C65B 1_555 1_555
N36_2 Cu5 1_555 1_555
N36B_2 Cu5 1_555 1_555
O1_2 Cu2_2 1_555 1_555
O2_2 C29_2 1_555 1_555
O3_2 Cu2 1_555 1_555
O3_3 Cu2_2 1_555 1_555
O4_2 Cu2 1_555 1_555
O4_3 Cu2_2 1_555 1_555
O5_2 S2_2 1_555 1_555
O6_2 S2_2 1_555 1_555
O7_2 S2_2 1_555 1_555
O8_2 Cu2_2 1_555 1_555
H71_2 O8_2 1_555 1_555
H72_2 O8_2 1_555 1_555
O9_2 Cu1_2 1_555 1_555
O10_2 Cu1_2 1_555 1_555
O11_2 C44_2 1_555 1_555
O12_2 Cu1 1_555 1_555
O12_3 Cu1_2 1_555 1_555
O13_2 S1_2 1_555 1_555
O14_2 S1_2 1_555 1_555
O15_2 Cu1_2 1_555 1_555
H73_2 O15_2 1_555 1_555
H74_2 O15_2 1_555 1_555
O16_2 Cu3_2 1_555 1_555
H75_2 O16_2 1_555 1_555
H76_2 O16_2 1_555 1_555
O18_2 C52_2 1_555 1_555
O18A Cu4A 1_555 1_555
O19_2 Cu4_3 1_555 1_555
O19A Cu4A 1_555 1_555
O20_2 C59_2 1_555 1_555
O21_2 Cu4 1_555 1_555
O21A Cu4A 1_555 1_555
O22_2 S3_2 1_555 1_555
O23_2 S3_2 1_555 1_555
O24_2 S3_2 1_555 1_555
O25A Cu4A 1_555 1_555
H77A O25A 1_555 1_555
H78A O25A 1_555 1_555
O26B Cu5 1_555 1_555
H79B O26B 1_555 1_555
H80B O26B 1_555 1_555
S1_2 C40_2 1_555 1_555
O34_2 S1_2 1_555 1_555
S2_2 C32_2 1_555 1_555
S3_2 C55_2 1_555 1_555
C2 N1 1_555 1_555
C3 N3 1_555 1_555
C7 N4 1_555 1_555
C7 N6 1_555 1_555
C9 N24 1_555 1_555
C10 N22 1_555 1_555
C13 N19 1_555 1_555
C13 N20 1_555 1_555
C14 N19 1_555 1_555
C16 N18 1_555 1_555
C17 N16 1_555 1_555
C20 N13 1_555 1_555
C21 N13 1_555 1_555
C21 N14 1_555 1_555
C23 N12 1_555 1_555
C24 N10 1_555 1_555
C27 N7 1_555 1_555
C28 N7 1_555 1_555
C28 N8 1_555 1_555
C29 O1 1_555 1_555
C34 C35 1_555 1_555
C37 O9 1_555 1_555
C37 O10 1_555 1_555
C42 C43 1_555 1_555
C46 N25 1_555 1_555
C47 N27 1_555 1_555
C50 N28 1_555 1_555
C51 N30 1_555 1_555
C52 O18 1_555 1_555
C52 O19 1_555 1_555
C57 C58 1_555 1_555
C61 N31 1_555 1_555
C62 N33 1_555 1_555
C65 N34 1_555 1_555
C66 N36 1_555 1_555
N2 N3 1_555 1_555
N4 N5 1_555 1_555
N8 N9 1_555 1_555
N10 N11 1_555 1_555
N14 N15 1_555 1_555
N16 N17 1_555 1_555
N20 N21 1_555 1_555
N22 N23 1_555 1_555
N26 N27 1_555 1_555
N28 N29 1_555 1_555
N32 N33 1_555 1_555
N34 N35 1_555 1_555
O4 Cu2_3 1_555 1_555
C2_2 N1_2 1_555 1_555
C3_2 N3_2 1_555 1_555
C6_2 N6_2 1_555 1_555
C7_2 N4_2 1_555 1_555
C7_2 N6_2 1_555 1_555
C8A N24A 1_555 1_555
C9A N24A 1_555 1_555
C10A N22A 1_555 1_555
C13A N20A 1_555 1_555
C14A N19A 1_555 1_555
C16_2 N18_2 1_555 1_555
C17_2 N16_2 1_555 1_555
C20_2 N13_2 1_555 1_555
C21_2 N13_2 1_555 1_555
C21_2 N14_2 1_555 1_555
C23_2 N12_2 1_555 1_555
C24_2 N10_2 1_555 1_555
C27_2 N7_2 1_555 1_555
C28_2 N7_2 1_555 1_555
C28_2 N8_2 1_555 1_555
C29_2 O1_2 1_555 1_555
C34_2 C35_2 1_555 1_555
C36_2 O3_2 1_555 1_555
C36_2 O4_2 1_555 1_555
C37_2 O9_2 1_555 1_555
C37_2 O10_2 1_555 1_555
C42_2 C43_2 1_555 1_555
C44_2 O12_2 1_555 1_555
C46A N25A 1_555 1_555
C47A N27A 1_555 1_555
C50A N28A 1_555 1_555
C50A N30A 1_555 1_555
C51A N30A 1_555 1_555
C52_2 O19_2 1_555 1_555
C57_2 C58_2 1_555 1_555
C59_2 O21_2 1_555 1_555
C60B N31B 1_555 1_555
C61B N31B 1_555 1_555
C62B N33B 1_555 1_555
C65B N34B 1_555 1_555
C66B N36B 1_555 1_555
N2_2 N3_2 1_555 1_555
N4_2 N5_2 1_555 1_555
N8_2 N9_2 1_555 1_555
N10_2 N11_2 1_555 1_555
N14_2 N15_2 1_555 1_555
N16_2 N17_2 1_555 1_555
N20A N21A 1_555 1_555
N22A N23A 1_555 1_555
N26A N27A 1_555 1_555
N28A N29A 1_555 1_555
N32B N33B 1_555 1_555
N34B N35B 1_555 1_555

#END
