
#######################################################################
#
#                 Cambridge Crystallographic Data Centre
#                                CCDC 
#
#######################################################################
#
# If this CIF has been generated from an entry in the Cambridge 
# Structural Database, then it will include bibliographic, chemical, 
# crystal, experimental, refinement or atomic coordinate data resulting 
# from the CCDC's data processing and validation procedures.
#
#######################################################################

data_OWUGAP
_symmetry_cell_setting           monoclinic
_symmetry_space_group_name_H-M   'P 21/c'
_symmetry_Int_Tables_number      14
_space_group_name_Hall           '-P 2ybc'
loop_
_symmetry_equiv_pos_site_id
_symmetry_equiv_pos_as_xyz
1 x,y,z
2 -x,1/2+y,1/2-z
3 -x,-y,-z
4 x,1/2-y,1/2+z
_cell_length_a                   13.0162(7)
_cell_length_b                   15.7415(7)
_cell_length_c                   16.3661(7)
_cell_angle_alpha                90
_cell_angle_beta                 92.855(5)
_cell_angle_gamma                90
_cell_volume                     3349.16
loop_
_atom_site_label
_atom_site_type_symbol
_atom_site_fract_x
_atom_site_fract_y
_atom_site_fract_z
Cu1 Cu 0.06135(3) 0.46335(2) 0.22857(2)
Cu2 Cu 0.5000 0.5000 0.0000
C1 C -0.2505(2) 0.18170(19) 0.28349(17)
C2 C -0.3529(2) 0.20548(19) 0.28829(16)
H1 H -0.4025 0.1649 0.2988
C3 C -0.3811(2) 0.29050(19) 0.27726(17)
C4 C -0.3083(2) 0.35045(19) 0.26169(17)
H2 H -0.3277 0.4069 0.2541
C5 C -0.2050(2) 0.32741(19) 0.25722(17)
C6 C -0.1774(2) 0.24222(18) 0.26749(16)
H3 H -0.1091 0.2261 0.2635
C7 C -0.1238(3) 0.3933(2) 0.24406(18)
C8 C -0.2197(2) 0.08987(19) 0.29554(17)
C9 C 0.1329(3) 0.9978(2) -0.09911(18)
H4 H 0.1885 1.0348 -0.1003
C10 C -0.0036(3) 0.9304(2) -0.1276(2)
H5 H -0.0637 0.9122 -0.1554
C11 C 0.1861(3) 0.9202(2) 0.03064(19)
H6 H 0.2464 0.9566 0.0316
H7 H 0.1498 0.9312 0.0799
C12 C 0.2200(3) 0.8277(2) 0.02991(18)
H8 H 0.1593 0.7920 0.0234
H9 H 0.2539 0.8142 0.0824
C13 C 0.2914(3) 0.8062(2) -0.0364(2)
H10 H 0.3544 0.8387 -0.0284
H11 H 0.2595 0.8216 -0.0892
C14 C 0.4015(3) 0.6764(2) -0.0139(2)
H12 H 0.4614 0.7033 0.0058
C15 C 0.2914(2) 0.5863(2) -0.05283(18)
H13 H 0.2609 0.5343 -0.0660
C16 C 0.0337(2) 0.3624(2) 0.07356(18)
H14 H -0.0008 0.3182 0.0981
C17 C 0.1109(2) 0.4765(2) 0.05047(18)
H15 H 0.1414 0.5294 0.0593
C18 C 0.0346(3) 0.3022(2) -0.06971(18)
H16 H -0.0298 0.3178 -0.0981
H17 H 0.0250 0.2471 -0.0447
C19 C 0.1157(3) 0.2945(3) -0.1311(2)
H18 H 0.1291 0.3508 -0.1523
H19 H 0.0880 0.2605 -0.1765
C20 C 0.2178(3) 0.2558(2) -0.1014(2)
H20 H 0.2045 0.2042 -0.0713
H21 H 0.2560 0.2402 -0.1486
C21 C 0.3468(2) 0.3723(2) -0.07112(19)
H22 H 0.3598 0.3859 -0.1249
C22 C 0.3475(2) 0.3684(2) 0.05810(19)
H23 H 0.3633 0.3812 0.1127
N1 N 0.06635(19) 0.43257(16) 0.11091(14)
N2 N 0.1077(2) 0.43913(17) -0.02080(15)
N3 N 0.0581(2) 0.36456(17) -0.00497(15)
N4 N 0.2822(2) 0.31257(16) -0.04865(15)
N5 N 0.2819(2) 0.30843(16) 0.03468(15)
N6 N 0.39025(19) 0.41002(16) -0.00518(14)
N7 N 0.0556(2) 0.99420(16) -0.15565(15)
N8 N 0.1187(2) 0.94131(17) -0.04127(16)
N9 N 0.0310(2) 0.89631(19) -0.05788(17)
N10 N 0.3155(2) 0.71548(17) -0.03561(15)
N11 N 0.2421(2) 0.65832(17) -0.06064(16)
N12 N 0.3912(2) 0.59298(16) -0.02384(15)
O1 O -0.03151(16) 0.36692(13) 0.24561(12)
O2 O -0.14874(17) 0.46915(13) 0.23436(14)
O3 O -0.12413(16) 0.07536(13) 0.29215(12)
O4 O -0.28681(17) 0.03510(13) 0.30754(13)
O5 O -0.52006(19) 0.40809(15) 0.27038(15)
O6 O -0.53162(18) 0.29854(17) 0.37280(14)
O7 O -0.5712(2) 0.26765(18) 0.22997(18)
O8 O 0.20554(16) 0.38757(13) 0.26225(12)
H24 H 0.2497 0.4205 0.2441
H25 H 0.2012 0.3399 0.2383
O9 O 0.48223(17) 0.52205(13) 0.14106(12)
H26 H 0.4196 0.5326 0.1511
H27 H 0.5070 0.4859 0.1749
S1 S -0.51233(7) 0.31825(5) 0.28849(5)
Cu1B Cu 0.93865(3) 0.53665(2) -0.22857(2)
Cu1C Cu 0.06135(3) 1.03665(2) -0.27143(2)
Cu1A Cu -0.06135(3) -0.03665(2) 0.27143(2)
Cu1A_2 Cu 0.93865(3) -0.03665(2) 0.27143(2)
Cu1A_3 Cu -0.06135(3) 0.96335(2) 0.27143(2)
C1A C 0.2505(2) 0.68170(19) 0.21651(17)
C2A C 0.3529(2) 0.70548(19) 0.21171(16)
H1A H 0.4025 0.6649 0.2012
C3A C 0.3811(2) 0.79050(19) 0.22274(17)
C4A C 0.3083(2) 0.85045(19) 0.23831(17)
H2A H 0.3277 0.9069 0.2459
C5A C 0.2050(2) 0.82741(19) 0.24278(17)
C6A C 0.1774(2) 0.74222(18) 0.23251(16)
H3A H 0.1091 0.7261 0.2365
C7A C 0.1238(3) 0.8933(2) 0.25594(18)
C8A C 0.2197(2) 0.58987(19) 0.20446(17)
C9B C 0.8671(3) 0.0022(2) 0.09911(18)
H4B H 0.8115 -0.0348 0.1003
C10B C 1.0036(3) 0.0696(2) 0.1276(2)
H5B H 1.0637 0.0878 0.1554
C11B C 0.8139(3) 0.0798(2) -0.03064(19)
H6B H 0.7536 0.0434 -0.0316
H7B H 0.8502 0.0688 -0.0799
C12B C 0.7800(3) 0.1723(2) -0.02991(18)
H8B H 0.8407 0.2080 -0.0234
H9B H 0.7461 0.1858 -0.0824
C13B C 0.7086(3) 0.1938(2) 0.0364(2)
H10B H 0.6456 0.1613 0.0284
H11B H 0.7405 0.1784 0.0892
C14B C 0.5985(3) 0.3236(2) 0.0139(2)
H12B H 0.5386 0.2967 -0.0058
C15B C 0.7086(2) 0.4137(2) 0.05283(18)
H13B H 0.7391 0.4657 0.0660
C16B C 0.9663(2) 0.6376(2) -0.07356(18)
H14B H 1.0008 0.6818 -0.0981
C17B C 0.8891(2) 0.5235(2) -0.05047(18)
H15B H 0.8586 0.4706 -0.0593
C18B C 0.9654(3) 0.6978(2) 0.06971(18)
H16B H 1.0298 0.6822 0.0981
H17B H 0.9750 0.7529 0.0447
C19B C 0.8843(3) 0.7055(3) 0.1311(2)
H18B H 0.8709 0.6492 0.1523
H19B H 0.9120 0.7395 0.1765
C20B C 0.7822(3) 0.7442(2) 0.1014(2)
H20B H 0.7955 0.7958 0.0713
H21B H 0.7440 0.7598 0.1486
C21B C 0.6532(2) 0.6277(2) 0.07112(19)
H22B H 0.6402 0.6141 0.1249
C22B C 0.6525(2) 0.6316(2) -0.05810(19)
H23B H 0.6367 0.6188 -0.1127
N1B N 0.93365(19) 0.56743(16) -0.11091(14)
N2B N 0.8923(2) 0.56087(17) 0.02080(15)
N3B N 0.9419(2) 0.63544(17) 0.00497(15)
N4B N 0.7178(2) 0.68743(16) 0.04865(15)
N5B N 0.7181(2) 0.69157(16) -0.03468(15)
N6B N 0.60975(19) 0.58998(16) 0.00518(14)
N7B N 0.9444(2) 0.00580(16) 0.15565(15)
N7C N 0.0556(2) 0.50580(16) 0.34435(15)
N7A N 0.9444(2) 0.49420(16) -0.34435(15)
N8B N 0.8813(2) 0.05869(17) 0.04127(16)
N9B N 0.9690(2) 0.10369(19) 0.05788(17)
N10B N 0.6845(2) 0.28452(17) 0.03561(15)
N11B N 0.7579(2) 0.34168(17) 0.06064(16)
N12B N 0.6088(2) 0.40702(16) 0.02384(15)
O1A O 0.03151(16) 0.86692(13) 0.25439(12)
O1B O 1.03151(16) 0.63308(13) -0.24561(12)
O2A O 0.14874(17) 0.96915(13) 0.26564(14)
O2B O 1.14874(17) 0.53085(13) -0.23436(14)
O3A O 0.12413(16) 0.57536(13) 0.20785(12)
O3C O 0.87587(16) 0.42464(13) -0.20785(12)
O4A O 0.28681(17) 0.53510(13) 0.19246(13)
O5A O 0.52006(19) 0.90809(15) 0.22962(15)
O6A O 0.53162(18) 0.79854(17) 0.12720(14)
O7A O 0.5712(2) 0.76765(18) 0.27003(18)
O8B O 0.79446(16) 0.61243(13) -0.26225(12)
H24B H 0.7503 0.5795 -0.2441
H25B H 0.7988 0.6601 -0.2383
O9B O 0.51777(17) 0.47795(13) -0.14106(12)
H26B H 0.5804 0.4674 -0.1511
H27B H 0.4930 0.5141 -0.1749
S1A S 0.51233(7) 0.81825(5) 0.21151(5)
O10 O 0.18076(17) 0.23647(14) 0.17405(13)
H28 H 0.2188 0.1966 0.1943
H29 H 0.2118 0.2512 0.1311
O11 O 0.28354(19) 0.09595(14) 0.24200(14)
H30 H 0.2433 0.0533 0.2449
H31 H 0.3345 0.0826 0.2139
O12 O 0.4361(2) 0.12646(19) 0.13045(16)
H32 H 0.4518 0.1715 0.1580
H33 H 0.4786 0.0861 0.1412
O13 O 0.3561(2) 0.09324(17) 0.97428(16)
H34 H 0.3751 0.1097 1.0226
H35 H 0.4041 0.1006 0.9412
O14 O 0.6170(2) 0.03893(17) 0.13190(16)
H36 H 0.5859 0.0149 0.0907
H37 H 0.6104 0.0090 0.1750
loop_
_geom_bond_atom_site_label_1
_geom_bond_atom_site_label_2
_geom_bond_site_symmetry_1
_geom_bond_site_symmetry_2
Cu1 N1 1_555 1_555
Cu2 N6 1_555 1_555
C1 C2 1_555 1_555
C2 H1 1_555 1_555
C3 C2 1_555 1_555
C4 C3 1_555 1_555
H2 C4 1_555 1_555
C5 C4 1_555 1_555
C6 C1 1_555 1_555
H3 C6 1_555 1_555
C7 C5 1_555 1_555
C8 C1 1_555 1_555
C9 H4 1_555 1_555
C10 H5 1_555 1_555
C11 H6 1_555 1_555
H7 C11 1_555 1_555
C12 C11 1_555 1_555
H8 C12 1_555 1_555
H9 C12 1_555 1_555
C13 C12 1_555 1_555
H10 C13 1_555 1_555
H11 C13 1_555 1_555
C14 H12 1_555 1_555
C15 H13 1_555 1_555
C16 H14 1_555 1_555
C17 H15 1_555 1_555
C18 H16 1_555 1_555
H17 C18 1_555 1_555
C19 C18 1_555 1_555
H18 C19 1_555 1_555
H19 C19 1_555 1_555
C20 C19 1_555 1_555
H20 C20 1_555 1_555
H21 C20 1_555 1_555
C21 H22 1_555 1_555
C22 H23 1_555 1_555
N1 C16 1_555 1_555
N2 C17 1_555 1_555
N3 C16 1_555 1_555
N4 C20 1_555 1_555
N5 C22 1_555 1_555
N6 C21 1_555 1_555
N7 C9 1_555 1_555
N8 C9 1_555 1_555
N9 C10 1_555 1_555
N10 C13 1_555 1_555
N11 C15 1_555 1_555
N12 Cu2 1_555 1_555
O1 Cu1 1_555 1_555
O2 Cu1 1_555 1_555
O3 C8 1_555 1_555
O4 C8 1_555 1_555
O5 S1 1_555 1_555
O6 S1 1_555 1_555
O7 S1 1_555 1_555
O8 Cu1 1_555 1_555
H24 O8 1_555 1_555
H25 O8 1_555 1_555
O9 Cu2 1_555 1_555
H26 O9 1_555 1_555
H27 O9 1_555 1_555
O10 H28 1_555 1_555
H29 O10 1_555 1_555
O11 H30 1_555 1_555
H31 O11 1_555 1_555
O12 H32 1_555 1_555
H33 O12 1_555 1_555
O13 H34 1_555 1_555
H35 O13 1_555 1_555
O14 H36 1_555 1_555
H37 O14 1_555 1_555
S1 C3 1_555 1_555
Cu1B N1B 1_555 1_555
Cu1C N7 1_555 1_555
Cu1A O3 1_555 1_555
Cu1A_2 N7B 1_555 1_555
Cu1A_3 O1A 1_555 1_555
C1A C2A 1_555 1_555
C2A H1A 1_555 1_555
C3A C2A 1_555 1_555
C4A C3A 1_555 1_555
H2A C4A 1_555 1_555
C5A C4A 1_555 1_555
C6A C1A 1_555 1_555
H3A C6A 1_555 1_555
C7A C5A 1_555 1_555
C8A C1A 1_555 1_555
C9B H4B 1_555 1_555
C10B H5B 1_555 1_555
C11B H6B 1_555 1_555
H7B C11B 1_555 1_555
C12B C11B 1_555 1_555
H8B C12B 1_555 1_555
H9B C12B 1_555 1_555
C13B C12B 1_555 1_555
H10B C13B 1_555 1_555
H11B C13B 1_555 1_555
C14B H12B 1_555 1_555
C15B H13B 1_555 1_555
C16B H14B 1_555 1_555
C17B H15B 1_555 1_555
C18B H16B 1_555 1_555
H17B C18B 1_555 1_555
C19B C18B 1_555 1_555
H18B C19B 1_555 1_555
H19B C19B 1_555 1_555
C20B C19B 1_555 1_555
H20B C20B 1_555 1_555
H21B C20B 1_555 1_555
C21B H22B 1_555 1_555
C22B H23B 1_555 1_555
N1B C16B 1_555 1_555
N2B C17B 1_555 1_555
N3B C16B 1_555 1_555
N4B C20B 1_555 1_555
N5B C22B 1_555 1_555
N6B Cu2 1_555 1_555
N7B C9B 1_555 1_555
N7C Cu1 1_555 1_555
N7A Cu1B 1_555 1_555
N8B C9B 1_555 1_555
N9B C10B 1_555 1_555
N10B C13B 1_555 1_555
N11B C15B 1_555 1_555
N12B Cu2 1_555 1_555
O1A C7A 1_555 1_555
O1B Cu1B 1_555 1_555
O2A Cu1A_3 1_555 1_555
O2B Cu1B 1_555 1_555
O3A Cu1 1_555 1_555
O3C Cu1B 1_555 1_555
O4A C8A 1_555 1_555
O5A S1A 1_555 1_555
O6A S1A 1_555 1_555
O7A S1A 1_555 1_555
O8B Cu1B 1_555 1_555
H24B O8B 1_555 1_555
H25B O8B 1_555 1_555
O9B Cu2 1_555 1_555
H26B O9B 1_555 1_555
H27B O9B 1_555 1_555
S1A C3A 1_555 1_555
C5 C6 1_555 1_555
C7 O1 1_555 1_555
C7 O2 1_555 1_555
C10 N7 1_555 1_555
C11 N8 1_555 1_555
C14 N10 1_555 1_555
C14 N12 1_555 1_555
C15 N12 1_555 1_555
C17 N1 1_555 1_555
C18 N3 1_555 1_555
C21 N4 1_555 1_555
C22 N6 1_555 1_555
N2 N3 1_555 1_555
N4 N5 1_555 1_555
N8 N9 1_555 1_555
N10 N11 1_555 1_555
C5A C6A 1_555 1_555
C7A O2A 1_555 1_555
C8A O3A 1_555 1_555
C10B N7B 1_555 1_555
C11B N8B 1_555 1_555
C14B N10B 1_555 1_555
C14B N12B 1_555 1_555
C15B N12B 1_555 1_555
C17B N1B 1_555 1_555
C18B N3B 1_555 1_555
C21B N4B 1_555 1_555
C21B N6B 1_555 1_555
C22B N6B 1_555 1_555
N2B N3B 1_555 1_555
N4B N5B 1_555 1_555
N8B N9B 1_555 1_555
N10B N11B 1_555 1_555

#END
