
#######################################################################
#
#                 Cambridge Crystallographic Data Centre
#                                CCDC 
#
#######################################################################
#
# If this CIF has been generated from an entry in the Cambridge 
# Structural Database, then it will include bibliographic, chemical, 
# crystal, experimental, refinement or atomic coordinate data resulting 
# from the CCDC's data processing and validation procedures.
#
#######################################################################

data_OWUNIE
_symmetry_cell_setting           orthorhombic
_symmetry_space_group_name_H-M   'P b c a'
_symmetry_Int_Tables_number      61
_space_group_name_Hall           '-P 2ac 2ab'
loop_
_symmetry_equiv_pos_site_id
_symmetry_equiv_pos_as_xyz
1 x,y,z
2 1/2-x,-y,1/2+z
3 -x,1/2+y,1/2-z
4 1/2+x,1/2-y,-z
5 -x,-y,-z
6 1/2+x,y,1/2-z
7 x,1/2-y,1/2+z
8 1/2-x,1/2+y,z
_cell_length_a                   13.373(2)
_cell_length_b                   15.134(2)
_cell_length_c                   22.680(3)
_cell_angle_alpha                90
_cell_angle_beta                 90
_cell_angle_gamma                90
_cell_volume                     4590.14
loop_
_atom_site_label
_atom_site_type_symbol
_atom_site_fract_x
_atom_site_fract_y
_atom_site_fract_z
Mo1 Mo 0.25690(2) 1.04430(2) 0.744903(14)
Na1 Na 0.48426(12) 0.94846(11) 0.75071(8)
C1 C 0.2597(3) 1.2030(3) 0.82058(17)
C2 C 0.4161(3) 1.0906(2) 0.65992(17)
C3 C 0.2893(3) 1.1324(3) 0.85679(17)
C4 C 0.5050(3) 1.1014(3) 0.6298(2)
H1 H 0.5644 1.1079 0.6507
C5 C 0.4557(3) 0.7119(3) 0.66705(19)
H2 H 0.4139 0.6630 0.6547
H3 H 0.5219 0.7026 0.6507
C6 C 0.2518(3) 1.2869(3) 0.84458(19)
H4 H 0.2331 1.3346 0.8212
C7 C 0.3279(3) 1.0809(3) 0.62771(17)
C8 C 0.4138(3) 0.7955(3) 0.64269(19)
H5 H 0.3507 0.8070 0.6632
C9 C 0.6106(4) 0.8310(3) 0.8611(2)
H6 H 0.6653 0.8690 0.8732
H7 H 0.6204 0.7740 0.8798
C10 C 0.2722(4) 1.2987(4) 0.9039(2)
H8 H 0.2680 1.3551 0.9199
C11 C 0.3079(4) 1.1458(4) 0.9158(2)
H9 H 0.3266 1.0989 0.9398
C12 C 0.5066(4) 1.1026(4) 0.5697(2)
H10 H 0.5669 1.1107 0.5499
C13 C 0.3291(4) 1.0817(4) 0.5671(2)
H11 H 0.2701 1.0755 0.5459
C14 C 0.2982(4) 1.2302(4) 0.9390(2)
H12 H 0.3096 1.2397 0.9790
C15 C 0.4200(5) 1.0921(4) 0.5382(2)
H13 H 0.4220 1.0919 0.4972
C16 C 0.5143(5) 0.8699(5) 0.8829(3)
H14 H 0.4616 0.8286 0.8711
C17 C 0.3896(5) 0.7839(5) 0.5776(3)
H15 H 0.3621 0.8379 0.5624
H16 H 0.3418 0.7371 0.5730
H17 H 0.4496 0.7695 0.5565
C18 C 0.5114(9) 0.8737(8) 0.9497(4)
H18 H 0.5671 0.9077 0.9638
H19 H 0.5152 0.8148 0.9653
H20 H 0.4501 0.9009 0.9622
O1 O 0.23995(19) 1.18152(17) 0.76466(11)
O2 O 0.40585(18) 1.08671(17) 0.71872(11)
O3 O 0.24266(19) 1.0712(2) 0.65983(12)
O4 O 0.2989(2) 1.05383(18) 0.82911(12)
O5 O 0.3037(2) 0.93832(17) 0.74328(14)
O6 O 0.1301(2) 1.0289(2) 0.74928(15)
N1 N 0.6150(3) 0.8193(2) 0.79749(18)
H21 H 0.5949 0.7647 0.7873
H22 H 0.6777 0.8277 0.7842
N2 N 0.4928(5) 0.9485(5) 0.8552(2)
H23 H 0.5395 0.9881 0.8660
H24 H 0.4337 0.9679 0.8691
N3 N 0.4628(3) 0.7120(2) 0.73224(15)
H25 H 0.4946 0.7604 0.7441
H26 H 0.4963 0.6644 0.7441
H27 H 0.4016 0.7111 0.7476
N4 N 0.4813(3) 0.8687(3) 0.65611(18)
H28 H 0.4709 0.9098 0.6281
H29 H 0.5437 0.8481 0.6504
Na1E Na -0.01574(12) 0.94846(11) 0.74929(8)
O6E O 0.6301(2) 1.0289(2) 0.75072(15)
loop_
_geom_bond_atom_site_label_1
_geom_bond_atom_site_label_2
_geom_bond_site_symmetry_1
_geom_bond_site_symmetry_2
Mo1 O1 1_555 1_555
Na1 O2 1_555 1_555
C1 C3 1_555 1_555
C2 C4 1_555 1_555
C3 C11 1_555 1_555
C4 H1 1_555 1_555
C5 H2 1_555 1_555
H3 C5 1_555 1_555
C6 C1 1_555 1_555
H4 C6 1_555 1_555
C7 C2 1_555 1_555
C8 C5 1_555 1_555
H5 C8 1_555 1_555
C9 H6 1_555 1_555
H7 C9 1_555 1_555
C10 C6 1_555 1_555
H8 C10 1_555 1_555
C11 H9 1_555 1_555
C12 C4 1_555 1_555
H10 C12 1_555 1_555
C13 C7 1_555 1_555
H11 C13 1_555 1_555
C14 C10 1_555 1_555
H12 C14 1_555 1_555
C15 C12 1_555 1_555
H13 C15 1_555 1_555
C16 C9 1_555 1_555
H14 C16 1_555 1_555
C17 C8 1_555 1_555
H15 C17 1_555 1_555
H16 C17 1_555 1_555
H17 C17 1_555 1_555
C18 C16 1_555 1_555
H18 C18 1_555 1_555
H19 C18 1_555 1_555
H20 C18 1_555 1_555
O1 C1 1_555 1_555
O2 Mo1 1_555 1_555
O3 Mo1 1_555 1_555
O4 Mo1 1_555 1_555
O5 Mo1 1_555 1_555
O6 Mo1 1_555 1_555
N1 Na1 1_555 1_555
H21 N1 1_555 1_555
H22 N1 1_555 1_555
N2 Na1 1_555 1_555
H23 N2 1_555 1_555
H24 N2 1_555 1_555
N3 C5 1_555 1_555
H25 N3 1_555 1_555
H26 N3 1_555 1_555
H27 N3 1_555 1_555
N4 Na1 1_555 1_555
H28 N4 1_555 1_555
H29 N4 1_555 1_555
Na1E O6 1_555 1_555
O6E Na1 1_555 1_555
Na1 O5 1_555 1_555
C2 O2 1_555 1_555
C3 O4 1_555 1_555
C7 O3 1_555 1_555
C8 N4 1_555 1_555
C9 N1 1_555 1_555
C11 C14 1_555 1_555
C13 C15 1_555 1_555
C16 N2 1_555 1_555

#END
