
#######################################################################
#
#                 Cambridge Crystallographic Data Centre
#                                CCDC 
#
#######################################################################
#
# If this CIF has been generated from an entry in the Cambridge 
# Structural Database, then it will include bibliographic, chemical, 
# crystal, experimental, refinement or atomic coordinate data resulting 
# from the CCDC's data processing and validation procedures.
#
#######################################################################

data_OWUPOM
_symmetry_cell_setting           triclinic
_symmetry_space_group_name_H-M   'P -1'
_symmetry_Int_Tables_number      2
_space_group_name_Hall           '-P 1'
loop_
_symmetry_equiv_pos_site_id
_symmetry_equiv_pos_as_xyz
1 x,y,z
2 -x,-y,-z
_cell_length_a                   10.0646(2)
_cell_length_b                   10.7649(2)
_cell_length_c                   17.6655(3)
_cell_angle_alpha                101.410(2)
_cell_angle_beta                 92.067(2)
_cell_angle_gamma                91.196(2)
_cell_volume                     1874.14
loop_
_atom_site_label
_atom_site_type_symbol
_atom_site_fract_x
_atom_site_fract_y
_atom_site_fract_z
Tb1 Tb 0.783070(19) 0.652590(18) 0.184941(11)
Pt1 Pt 0.585799(17) 0.196633(15) 0.246980(9)
Au1 Au 0.60942(2) 1.068413(16) 0.068666(10)
C1 C 0.6784(5) 0.9146(4) 0.1004(2)
C2 C 0.5469(5) 1.2266(4) 0.0384(3)
C3 C 0.6502(4) 0.3576(4) 0.2210(2)
C4 C 0.7741(5) 0.1537(4) 0.2661(3)
C5 C 0.5286(5) 0.0354(5) 0.2768(3)
C6 C 0.3975(5) 0.2417(4) 0.2309(3)
C7 C 0.9031(6) 0.3739(5) 0.0844(3)
H1 H 0.8132 0.3516 0.0838
C8 C 0.9915(7) 0.2792(6) 0.0596(3)
H2 H 0.9623 0.1954 0.0427
C9 C 1.1246(7) 0.3132(7) 0.0607(3)
H3 H 1.1873 0.2523 0.0449
C10 C 1.1629(6) 0.4369(6) 0.0851(3)
H4 H 1.2525 0.4607 0.0869
C11 C 1.0687(5) 0.5273(5) 0.1072(2)
C12 C 1.1036(5) 0.6647(5) 0.1292(3)
C13 C 1.2329(6) 0.7110(7) 0.1242(3)
H5 H 1.3013 0.6558 0.1094
C14 C 1.2573(7) 0.8399(8) 0.1414(4)
H6 H 1.3426 0.8723 0.1377
C15 C 1.1576(7) 0.9194(7) 0.1638(4)
H7 H 1.1727 1.0068 0.1758
C16 C 1.0321(6) 0.8665(5) 0.1680(3)
H8 H 0.9632 0.9208 0.1835
N1 N 0.7168(4) 0.8294(4) 0.1224(2)
N2 N 0.5152(5) 1.3188(4) 0.0236(3)
N3 N 0.6923(4) 0.4501(3) 0.2076(2)
N4 N 0.8812(4) 0.1283(4) 0.2785(3)
N5 N 0.5035(5) -0.0585(4) 0.2934(3)
N6 N 0.2905(4) 0.2715(4) 0.2239(3)
N7 N 0.9394(4) 0.4949(4) 0.1091(2)
N8 N 1.0046(4) 0.7427(4) 0.1512(2)
O1 O 0.9283(3) 0.6030(3) 0.27991(17)
H21 H 0.9381 0.5252 0.2811
H22 H 0.9604 0.6654 0.3133
O2 O 0.8152(3) 0.8351(3) 0.28363(17)
H23 H 0.8189 0.8149 0.3278
H24 H 0.8053 0.9075 0.2721
O3 O 0.5727(3) 0.6918(3) 0.2389(2)
H25 H 0.5299 0.6389 0.2593
H26 H 0.5550 0.7525 0.2754
O4 O 0.6484(3) 0.5641(3) 0.07260(18)
H27 H 0.6208 0.4887 0.0540
H28 H 0.5997 0.6162 0.0549
Tb1_2 Tb 0.783070(19) -0.347410(18) 0.184941(11)
Tb1_3 Tb 0.783070(19) 1.652590(18) 0.184941(11)
Pt1_2 Pt 0.585799(17) 1.196633(15) 0.246980(9)
Au1_2 Au 0.60942(2) 0.068413(16) 0.068666(10)
C1_2 C 0.6784(5) -0.0854(4) 0.1004(2)
C2_2 C 0.5469(5) 0.2266(4) 0.0384(3)
C3_2 C 0.6502(4) 1.3576(4) 0.2210(2)
C4_2 C 0.7741(5) 1.1537(4) 0.2661(3)
C5_2 C 0.5286(5) 1.0354(5) 0.2768(3)
C6_2 C 0.3975(5) 1.2417(4) 0.2309(3)
C7_2 C 0.9031(6) -0.6261(5) 0.0844(3)
H1_2 H 0.8132 -0.6484 0.0838
C8_2 C 0.9915(7) -0.7208(6) 0.0596(3)
H2_2 H 0.9623 -0.8046 0.0427
C9_2 C 1.1246(7) -0.6868(7) 0.0607(3)
H3_2 H 1.1873 -0.7477 0.0449
C10_2 C 1.1629(6) -0.5631(6) 0.0851(3)
H4_2 H 1.2525 -0.5393 0.0869
C11_2 C 1.0687(5) -0.4727(5) 0.1072(2)
C12_2 C 1.1036(5) -0.3353(5) 0.1292(3)
C13_2 C 1.2329(6) -0.2890(7) 0.1242(3)
H5_2 H 1.3013 -0.3442 0.1094
C14_2 C 1.2573(7) -0.1601(8) 0.1414(4)
H6_2 H 1.3426 -0.1277 0.1377
C15_2 C 1.1576(7) -0.0806(7) 0.1638(4)
H7_2 H 1.1727 0.0068 0.1758
C16_2 C 1.0321(6) -0.1335(5) 0.1680(3)
H8_2 H 0.9632 -0.0792 0.1835
N1_2 N 0.7168(4) -0.1706(4) 0.1224(2)
N2_2 N 0.5152(5) 0.3188(4) 0.0236(3)
N3_2 N 0.6923(4) 1.4501(3) 0.2076(2)
N3_3 N 0.6923(4) -0.5499(3) 0.2076(2)
N4_2 N 0.8812(4) 1.1283(4) 0.2785(3)
N5_2 N 0.5035(5) 0.9415(4) 0.2934(3)
N6_2 N 0.2905(4) 1.2715(4) 0.2239(3)
N7_2 N 0.9394(4) -0.5051(4) 0.1091(2)
N8_2 N 1.0046(4) -0.2573(4) 0.1512(2)
O1_2 O 0.9283(3) -0.3970(3) 0.27991(17)
H21_2 H 0.9381 -0.4748 0.2811
H22_2 H 0.9604 -0.3346 0.3133
O2_2 O 0.8152(3) -0.1649(3) 0.28363(17)
H23_2 H 0.8189 -0.1851 0.3278
H24_2 H 0.8053 -0.0925 0.2721
O3_2 O 0.5727(3) -0.3082(3) 0.2389(2)
H25_2 H 0.5299 -0.3611 0.2593
H26_2 H 0.5550 -0.2475 0.2754
O4_2 O 0.6484(3) -0.4359(3) 0.07260(18)
H27_2 H 0.6208 -0.5113 0.0540
H28_2 H 0.5997 -0.3838 0.0549
C17 C 1.1872(5) 0.7997(5) 0.3683(3)
H9 H 1.2051 0.7732 0.3164
C18 C 1.2905(5) 0.8535(5) 0.4195(4)
H10 H 1.3754 0.8630 0.4018
C19 C 1.2658(5) 0.8923(5) 0.4959(3)
H11 H 1.3335 0.9265 0.5316
C20 C 1.1386(5) 0.8793(4) 0.5183(3)
H12 H 1.1194 0.9064 0.5700
C21 C 1.0387(4) 0.8270(4) 0.4662(2)
C22 C 0.8990(4) 0.8123(4) 0.4879(2)
C23 C 0.8682(5) 0.8132(5) 0.5645(3)
H13 H 0.9351 0.8200 0.6029
C24 C 0.7368(6) 0.8038(5) 0.5818(3)
H14 H 0.7139 0.8046 0.6324
C25 C 0.6399(6) 0.7932(5) 0.5246(4)
H15 H 0.5506 0.7865 0.5356
C26 C 0.6771(5) 0.7926(5) 0.4508(3)
H16 H 0.6110 0.7852 0.4119
N9 N 1.0622(4) 0.7840(4) 0.3906(2)
N10 N 0.8032(4) 0.8023(3) 0.4319(2)
C27 C 0.4289(4) 0.5146(4) 0.5060(3)
C28 C 0.3775(5) 0.5347(5) 0.5779(3)
H17 H 0.4324 0.5320 0.6210
C29 C 0.2441(5) 0.5592(5) 0.5868(3)
H18 H 0.2085 0.5740 0.6355
C30 C 0.1663(5) 0.5612(5) 0.5229(3)
H19 H 0.0758 0.5757 0.5266
C31 C 0.2243(5) 0.5413(5) 0.4524(3)
H20 H 0.1704 0.5432 0.4088
N11 N 0.3528(4) 0.5194(4) 0.4426(2)
C27A C 0.5711(4) 0.4854(4) 0.4940(3)
C28A C 0.6225(5) 0.4653(5) 0.4221(3)
H17A H 0.5676 0.4680 0.3790
C29A C 0.7559(5) 0.4408(5) 0.4132(3)
H18A H 0.7915 0.4260 0.3645
C30A C 0.8337(5) 0.4388(5) 0.4771(3)
H19A H 0.9242 0.4243 0.4734
C31A C 0.7757(5) 0.4587(5) 0.5476(3)
H20A H 0.8296 0.4568 0.5912
N11A N 0.6472(4) 0.4806(4) 0.5574(2)
O5 O 0.3725(4) 0.5526(3) 0.2829(2)
H29 H 0.3607 0.4789 0.2551
H30 H 0.3742 0.5436 0.3297
O6 O 0.0368(3) 0.3748(3) 0.2782(2)
H31 H -0.0158 0.3114 0.2766
H32 H 0.1069 0.3443 0.2573
loop_
_geom_bond_atom_site_label_1
_geom_bond_atom_site_label_2
_geom_bond_site_symmetry_1
_geom_bond_site_symmetry_2
Tb1 N1 1_555 1_555
Pt1 C3 1_555 1_555
Au1 C1 1_555 1_555
C1 N1 1_555 1_555
C2 Au1 1_555 1_555
C3 N3 1_555 1_555
C4 Pt1 1_555 1_555
C5 Pt1 1_555 1_555
C6 Pt1 1_555 1_555
C7 H1 1_555 1_555
C8 C7 1_555 1_555
H2 C8 1_555 1_555
C9 C8 1_555 1_555
H3 C9 1_555 1_555
C10 C9 1_555 1_555
H4 C10 1_555 1_555
C11 C10 1_555 1_555
C12 C11 1_555 1_555
C13 C12 1_555 1_555
H5 C13 1_555 1_555
C14 C13 1_555 1_555
H6 C14 1_555 1_555
C15 C14 1_555 1_555
H7 C15 1_555 1_555
C16 C15 1_555 1_555
H8 C16 1_555 1_555
C17 H9 1_555 1_555
C18 C17 1_555 1_555
H10 C18 1_555 1_555
C19 C18 1_555 1_555
H11 C19 1_555 1_555
C20 C19 1_555 1_555
H12 C20 1_555 1_555
C21 C20 1_555 1_555
C22 C21 1_555 1_555
C23 C22 1_555 1_555
H13 C23 1_555 1_555
C24 C23 1_555 1_555
H14 C24 1_555 1_555
C25 C24 1_555 1_555
H15 C25 1_555 1_555
C26 C25 1_555 1_555
H16 C26 1_555 1_555
C27 C28 1_555 1_555
C28 H17 1_555 1_555
C29 C28 1_555 1_555
H18 C29 1_555 1_555
C30 C29 1_555 1_555
H19 C30 1_555 1_555
C31 C30 1_555 1_555
H20 C31 1_555 1_555
N2 C2 1_555 1_555
N3 Tb1 1_555 1_555
N4 C4 1_555 1_555
N5 C5 1_555 1_555
N6 C6 1_555 1_555
N7 Tb1 1_555 1_555
N8 Tb1 1_555 1_555
N9 C17 1_555 1_555
N10 C22 1_555 1_555
N11 C27 1_555 1_555
O1 Tb1 1_555 1_555
H21 O1 1_555 1_555
H22 O1 1_555 1_555
O2 Tb1 1_555 1_555
H23 O2 1_555 1_555
H24 O2 1_555 1_555
O3 Tb1 1_555 1_555
H25 O3 1_555 1_555
H26 O3 1_555 1_555
O4 Tb1 1_555 1_555
H27 O4 1_555 1_555
H28 O4 1_555 1_555
O5 H29 1_555 1_555
H30 O5 1_555 1_555
O6 H31 1_555 1_555
H32 O6 1_555 1_555
Tb1_2 N1_2 1_555 1_555
Tb1_3 N3_2 1_555 1_555
Pt1_2 Au1 1_555 1_555
Au1_2 Pt1 1_555 1_555
C1_2 Au1_2 1_555 1_555
C2_2 Au1_2 1_555 1_555
C3_2 Pt1_2 1_555 1_555
C4_2 Pt1_2 1_555 1_555
C5_2 Pt1_2 1_555 1_555
C6_2 Pt1_2 1_555 1_555
C7_2 H1_2 1_555 1_555
C8_2 C7_2 1_555 1_555
H2_2 C8_2 1_555 1_555
C9_2 C8_2 1_555 1_555
H3_2 C9_2 1_555 1_555
C10_2 C9_2 1_555 1_555
H4_2 C10_2 1_555 1_555
C11_2 C10_2 1_555 1_555
C12_2 C11_2 1_555 1_555
C13_2 C12_2 1_555 1_555
H5_2 C13_2 1_555 1_555
C14_2 C13_2 1_555 1_555
H6_2 C14_2 1_555 1_555
C15_2 C14_2 1_555 1_555
H7_2 C15_2 1_555 1_555
C16_2 C15_2 1_555 1_555
H8_2 C16_2 1_555 1_555
C27A C27 1_555 1_555
C28A C27A 1_555 1_555
H17A C28A 1_555 1_555
C29A C28A 1_555 1_555
H18A C29A 1_555 1_555
C30A C29A 1_555 1_555
H19A C30A 1_555 1_555
C31A C30A 1_555 1_555
H20A C31A 1_555 1_555
N1_2 C1_2 1_555 1_555
N2_2 C2_2 1_555 1_555
N3_2 C3_2 1_555 1_555
N3_3 Tb1_2 1_555 1_555
N4_2 C4_2 1_555 1_555
N5_2 C5_2 1_555 1_555
N6_2 C6_2 1_555 1_555
N7_2 Tb1_2 1_555 1_555
N8_2 Tb1_2 1_555 1_555
N11A C27A 1_555 1_555
O1_2 Tb1_2 1_555 1_555
H21_2 O1_2 1_555 1_555
H22_2 O1_2 1_555 1_555
O2_2 Tb1_2 1_555 1_555
H23_2 O2_2 1_555 1_555
H24_2 O2_2 1_555 1_555
O3_2 Tb1_2 1_555 1_555
H25_2 O3_2 1_555 1_555
H26_2 O3_2 1_555 1_555
O4_2 Tb1_2 1_555 1_555
H27_2 O4_2 1_555 1_555
H28_2 O4_2 1_555 1_555
C7 N7 1_555 1_555
C11 N7 1_555 1_555
C12 N8 1_555 1_555
C16 N8 1_555 1_555
C21 N9 1_555 1_555
C26 N10 1_555 1_555
C31 N11 1_555 1_555
C7_2 N7_2 1_555 1_555
C11_2 N7_2 1_555 1_555
C12_2 N8_2 1_555 1_555
C16_2 N8_2 1_555 1_555
C31A N11A 1_555 1_555

#END
