
#######################################################################
#
#                 Cambridge Crystallographic Data Centre
#                                CCDC 
#
#######################################################################
#
# If this CIF has been generated from an entry in the Cambridge 
# Structural Database, then it will include bibliographic, chemical, 
# crystal, experimental, refinement or atomic coordinate data resulting 
# from the CCDC's data processing and validation procedures.
#
#######################################################################

data_OWUPAY
_symmetry_cell_setting           orthorhombic
_symmetry_space_group_name_H-M   'P 2 2 21'
_symmetry_Int_Tables_number      17
_space_group_name_Hall           'P 2c 2'
loop_
_symmetry_equiv_pos_site_id
_symmetry_equiv_pos_as_xyz
1 x,y,z
2 -x,-y,1/2+z
3 x,-y,-z
4 -x,y,1/2-z
_cell_length_a                   27.486(4)
_cell_length_b                   11.0171(18)
_cell_length_c                   26.229(4)
_cell_angle_alpha                90
_cell_angle_beta                 90
_cell_angle_gamma                90
_cell_volume                     7942.56
loop_
_atom_site_label
_atom_site_type_symbol
_atom_site_fract_x
_atom_site_fract_y
_atom_site_fract_z
Ni2 Ni -0.288078(19) 0.59354(4) 0.228127(18)
Ni4 Ni 0.0000 -0.19884(6) 0.2500
C39 C -0.05364(15) -0.0053(4) 0.19481(16)
H43 H -0.0319 -0.0276 0.1683
C40 C -0.08117(15) -0.0324(3) 0.27583(15)
H44 H -0.0791 -0.0730 0.3077
C41 C -0.11499(15) 0.0613(4) 0.27081(16)
H45 H -0.1356 0.0821 0.2985
C42 C -0.11826(15) 0.1244(3) 0.22466(15)
C43 C -0.08533(15) 0.0888(4) 0.18666(15)
H46 H -0.0850 0.1303 0.1549
C44 C -0.15404(16) 0.2211(4) 0.21559(15)
C45 C -0.17394(15) 0.2883(3) 0.25523(16)
H47 H -0.1644 0.2719 0.2893
C46 C -0.20813(15) 0.3804(3) 0.24539(15)
C47 C -0.22335(16) 0.4079(4) 0.19442(15)
C48 C -0.20356(17) 0.3359(4) 0.15378(14)
C49 C -0.16985(16) 0.2468(3) 0.16569(15)
H48 H -0.1566 0.2002 0.1386
C50 C -0.22584(16) 0.4489(4) 0.28882(15)
H49 H -0.2135 0.4281 0.3215
C51 C -0.27116(15) 0.6047(4) 0.33317(14)
H50 H -0.2516 0.6812 0.3345
C52 C -0.2648(2) 0.5382(4) 0.38354(15)
H51 H -0.2298 0.5278 0.3908
H52 H -0.2798 0.4567 0.3811
C53 C -0.2888(2) 0.6095(6) 0.42685(17)
H53 H -0.2873 0.5606 0.4585
H54 H -0.2700 0.6850 0.4328
C54 C -0.3410(2) 0.6421(6) 0.41607(17)
H55 H -0.3540 0.6915 0.4445
H56 H -0.3607 0.5671 0.4137
C55 C -0.34533(18) 0.7139(5) 0.36606(16)
H57 H -0.3799 0.7315 0.3586
H58 H -0.3277 0.7918 0.3689
C56 C -0.32365(15) 0.6378(4) 0.32386(13)
H59 H -0.3424 0.5600 0.3230
C57 C -0.34971(15) 0.7827(4) 0.26016(15)
H60 H -0.3635 0.8285 0.2872
C58 C -0.35820(15) 0.8234(4) 0.20913(15)
C59 C -0.38461(16) 0.9312(4) 0.20297(16)
H61 H -0.3940 0.9760 0.2323
C60 C -0.39686(15) 0.9724(4) 0.15654(16)
C61 C -0.42362(17) 1.0889(4) 0.14956(17)
C62 C -0.45611(18) 1.1299(5) 0.18657(18)
H62 H -0.4613 1.0849 0.2170
C63 C -0.4802(2) 1.2363(6) 0.1781(2)
H63 H -0.5028 1.2616 0.2033
C64 C -0.4431(2) 1.2678(5) 0.1027(2)
H64 H -0.4386 1.3150 0.0728
C65 C -0.4167(2) 1.1627(4) 0.10747(19)
H65 H -0.3938 1.1407 0.0820
C66 C -0.38681(15) 0.8984(4) 0.11383(16)
H66 H -0.3972 0.9259 0.0813
C67 C -0.36254(15) 0.7873(4) 0.11650(15)
C68 C -0.34492(15) 0.7521(4) 0.16578(15)
C69 C -0.35747(16) 0.7039(4) 0.07025(15)
C70 C -0.38051(18) 0.7576(5) 0.02242(16)
H67 H -0.4156 0.7672 0.0277
H68 H -0.3748 0.7032 -0.0065
H69 H -0.3659 0.8370 0.0153
C71 C -0.30390(17) 0.6817(5) 0.05840(15)
H70 H -0.2885 0.7583 0.0483
H71 H -0.3011 0.6229 0.0305
H72 H -0.2876 0.6498 0.0888
C72 C -0.38290(18) 0.5822(4) 0.08215(17)
H73 H -0.3666 0.5429 0.1110
H74 H -0.3811 0.5292 0.0522
H75 H -0.4171 0.5972 0.0908
C73 C -0.27520(16) 0.3451(4) 0.09418(16)
H76 H -0.2858 0.3665 0.0596
H77 H -0.2911 0.3989 0.1189
H78 H -0.2841 0.2607 0.1014
C74 C -0.21962(18) 0.3595(4) 0.09827(15)
C75 C -0.19553(19) 0.2727(4) 0.06026(15)
H79 H -0.2040 0.1888 0.0690
H80 H -0.1601 0.2827 0.0617
H81 H -0.2070 0.2910 0.0257
C76 C -0.20380(18) 0.4878(4) 0.08324(16)
H82 H -0.1684 0.4947 0.0862
H83 H -0.2194 0.5469 0.1059
H84 H -0.2136 0.5040 0.0479
C77 C 0.02012(16) -0.3087(4) 0.32892(17)
C78 C 0.03011(18) -0.3619(4) 0.37696(18)
C79 C 0.0517(2) -0.4816(6) 0.3822(3)
H85 H 0.0630 -0.5225 0.3526
C80 C 0.0565(2) -0.5392(7) 0.4305(2)
H86 H 0.0670 -0.6212 0.4328
C81 C 0.0453(2) -0.4726(6) 0.4747(2)
C82 C 0.0283(3) -0.3530(7) 0.4701(3)
H87 H 0.0222 -0.3063 0.4999
C83 C 0.0203(3) -0.3019(6) 0.4217(3)
H88 H 0.0074 -0.2220 0.4199
N4 N -0.32428(12) 0.6869(3) 0.27182(12)
N6 N -0.05217(11) -0.0674(3) 0.23906(12)
N8 N -0.25717(13) 0.5363(3) 0.28646(12)
N9 N -0.47489(19) 1.3080(4) 0.13739(17)
O3 O -0.31829(11) 0.6538(3) 0.16990(10)
O5 O -0.25387(11) 0.4948(3) 0.18424(10)
O7 O 0.04178(12) -0.3404(3) 0.28918(12)
O10 O -0.01150(11) -0.2232(3) 0.32615(12)
Ni2C Ni 0.288078(19) 0.59354(4) 0.271873(18)
Ni4A Ni 0.0000 -0.80116(6) 0.7500
C39C C 0.05364(15) -0.0053(4) 0.30519(16)
H43C H 0.0319 -0.0276 0.3317
C40C C 0.08117(15) -0.0324(3) 0.22417(15)
H44C H 0.0791 -0.0730 0.1923
C41C C 0.11499(15) 0.0613(4) 0.22919(16)
H45C H 0.1356 0.0821 0.2015
C42C C 0.11826(15) 0.1244(3) 0.27534(15)
C43C C 0.08533(15) 0.0888(4) 0.31334(15)
H46C H 0.0850 0.1303 0.3451
C44C C 0.15404(16) 0.2211(4) 0.28441(15)
C45C C 0.17394(15) 0.2883(3) 0.24477(16)
H47C H 0.1644 0.2719 0.2107
C46C C 0.20813(15) 0.3804(3) 0.25461(15)
C47C C 0.22335(16) 0.4079(4) 0.30558(15)
C48C C 0.20356(17) 0.3359(4) 0.34622(14)
C49C C 0.16985(16) 0.2468(3) 0.33431(15)
H48C H 0.1566 0.2002 0.3614
C50C C 0.22584(16) 0.4489(4) 0.21118(15)
H49C H 0.2135 0.4281 0.1785
C51C C 0.27116(15) 0.6047(4) 0.16683(14)
H50C H 0.2516 0.6812 0.1655
C52C C 0.2648(2) 0.5382(4) 0.11646(15)
H51C H 0.2298 0.5278 0.1092
H52C H 0.2798 0.4567 0.1189
C53C C 0.2888(2) 0.6095(6) 0.07315(17)
H53C H 0.2873 0.5606 0.0415
H54C H 0.2700 0.6850 0.0672
C54C C 0.3410(2) 0.6421(6) 0.08393(17)
H55C H 0.3540 0.6915 0.0555
H56C H 0.3607 0.5671 0.0863
C55C C 0.34533(18) 0.7139(5) 0.13394(16)
H57C H 0.3799 0.7315 0.1414
H58C H 0.3277 0.7918 0.1311
C56C C 0.32365(15) 0.6378(4) 0.17614(13)
H59C H 0.3424 0.5600 0.1770
C57C C 0.34971(15) 0.7827(4) 0.23984(15)
H60C H 0.3635 0.8285 0.2128
C58C C 0.35820(15) 0.8234(4) 0.29087(15)
C59C C 0.38461(16) 0.9312(4) 0.29703(16)
H61C H 0.3940 0.9760 0.2677
C60C C 0.39686(15) 0.9724(4) 0.34346(16)
C61C C 0.42362(17) 1.0889(4) 0.35044(17)
C62C C 0.45611(18) 1.1299(5) 0.31343(18)
H62C H 0.4613 1.0849 0.2830
C63C C 0.4802(2) 1.2363(6) 0.3219(2)
H63C H 0.5028 1.2616 0.2967
C64C C 0.4431(2) 1.2678(5) 0.3973(2)
H64C H 0.4386 1.3150 0.4272
C65C C 0.4167(2) 1.1627(4) 0.39253(19)
H65C H 0.3938 1.1407 0.4180
C66C C 0.38681(15) 0.8984(4) 0.38617(16)
H66C H 0.3972 0.9259 0.4187
C67C C 0.36254(15) 0.7873(4) 0.38350(15)
C68C C 0.34492(15) 0.7521(4) 0.33422(15)
C69C C 0.35747(16) 0.7039(4) 0.42975(15)
C70C C 0.38051(18) 0.7576(5) 0.47758(16)
H67C H 0.4156 0.7672 0.4723
H68C H 0.3748 0.7032 0.5065
H69C H 0.3659 0.8370 0.4847
C71C C 0.30390(17) 0.6817(5) 0.44160(15)
H70C H 0.2885 0.7583 0.4517
H71C H 0.3011 0.6229 0.4695
H72C H 0.2876 0.6498 0.4112
C72C C 0.38290(18) 0.5822(4) 0.41785(17)
H73C H 0.3666 0.5429 0.3890
H74C H 0.3811 0.5292 0.4478
H75C H 0.4171 0.5972 0.4092
C73C C 0.27520(16) 0.3451(4) 0.40582(16)
H76C H 0.2858 0.3665 0.4404
H77C H 0.2911 0.3989 0.3811
H78C H 0.2841 0.2607 0.3986
C74C C 0.21962(18) 0.3595(4) 0.40173(15)
C75C C 0.19553(19) 0.2727(4) 0.43974(15)
H79C H 0.2040 0.1888 0.4310
H80C H 0.1601 0.2827 0.4383
H81C H 0.2070 0.2910 0.4743
C76C C 0.20380(18) 0.4878(4) 0.41676(16)
H82C H 0.1684 0.4947 0.4138
H83C H 0.2194 0.5469 0.3941
H84C H 0.2136 0.5040 0.4521
C77B C 0.02012(16) -0.6913(4) 0.67108(17)
C78B C 0.03011(18) -0.6381(4) 0.62304(18)
C79B C 0.0517(2) -0.5184(6) 0.6178(3)
H85B H 0.0630 -0.4775 0.6474
C80B C 0.0565(2) -0.4608(7) 0.5695(2)
H86B H 0.0670 -0.3788 0.5672
C81B C 0.0453(2) -0.5274(6) 0.5253(2)
C82B C 0.0283(3) -0.6470(7) 0.5299(3)
H87B H 0.0222 -0.6937 0.5001
C83B C 0.0203(3) -0.6981(6) 0.5783(3)
H88B H 0.0074 -0.7780 0.5801
N4C N 0.32428(12) 0.6869(3) 0.22818(12)
N6C N 0.05217(11) -0.0674(3) 0.26094(12)
N8C N 0.25717(13) 0.5363(3) 0.21354(12)
N9C N 0.47489(19) 1.3080(4) 0.36261(17)
O3C O 0.31829(11) 0.6538(3) 0.33010(10)
O5C O 0.25387(11) 0.4948(3) 0.31576(10)
O7B O 0.04178(12) -0.6596(3) 0.71082(12)
O7C O -0.04178(12) -0.3404(3) 0.21082(12)
O10B O -0.01150(11) -0.7768(3) 0.67385(12)
O10C O 0.01150(11) -0.2232(3) 0.17385(12)
N1 N 0.0557(6) 1.0000 0.5000
C91 C 0.0506(6) 0.9436(15) 0.5483(4)
H93 H 0.0235 0.9559 0.5702
C92 C 0.0135(7) 1.062(2) 0.4875(11)
H94 H -0.0127 1.0038 0.4809
H96 H 0.0042 1.1153 0.5158
C93 C 0.0924(7) 0.991(2) 0.4634(7)
H98 H 0.1066 0.9099 0.4643
H99 H 0.1177 1.0516 0.4707
O1 O 0.0840(6) 0.8792(13) 0.5584(7)
C91B C 0.0506(6) 1.0564(15) 0.4517(4)
H93B H 0.0235 1.0441 0.4298
C92B C 0.0135(7) 0.938(2) 0.5125(11)
H94B H -0.0127 0.9962 0.5191
H96B H 0.0042 0.8847 0.4842
C93B C 0.0924(7) 1.009(2) 0.5366(7)
H98B H 0.1066 1.0901 0.5357
H99B H 0.1177 0.9484 0.5293
O1B O 0.0840(6) 1.1208(13) 0.4416(7)
N2 N 0.4520(4) 0.5000 0.0000
C94 C 0.4926(5) 0.5139(19) 0.0295(7)
H101 H 0.5026 0.5993 0.0293
H102 H 0.5190 0.4636 0.0158
C95 C 0.4460(9) 0.5609(17) -0.0470(6)
H103 H 0.4703 0.5314 -0.0714
C96 C 0.4172(7) 0.4186(13) 0.0205(5)
H106 H 0.3890 0.4081 -0.0001
O2 O 0.4168(6) 0.6398(11) -0.0595(3)
C94B C 0.4926(5) 0.4861(19) -0.0295(7)
H101B H 0.5026 0.4007 -0.0293
H102B H 0.5190 0.5364 -0.0158
C95B C 0.4460(9) 0.4391(17) 0.0470(6)
H103B H 0.4703 0.4686 0.0714
C96B C 0.4172(7) 0.5814(13) -0.0205(5)
H106B H 0.3890 0.5919 0.0001
O2B O 0.4168(6) 0.3602(11) 0.0595(3)
Ni1 Ni 0.5000 0.69110(6) 0.2500
Ni3 Ni 0.789548(18) -0.09760(4) 0.272791(17)
C1 C 0.9538(3) -0.7607(5) 0.4001(2)
H1 H 0.9514 -0.8049 0.4311
C2 C 0.9277(2) -0.6530(5) 0.3970(2)
H2 H 0.9084 -0.6257 0.4248
C3 C 0.93038(17) -0.5864(4) 0.35227(17)
C4 C 0.95964(19) -0.6337(5) 0.3150(2)
H3 H 0.9636 -0.5913 0.2838
C5 C 0.9832(3) -0.7420(5) 0.3225(2)
H4 H 1.0024 -0.7727 0.2953
C6 C 0.90321(15) -0.4708(4) 0.34652(16)
C7 C 0.89486(16) -0.3915(4) 0.38782(15)
H5 H 0.9073 -0.4133 0.4204
C8 C 0.86976(16) -0.2846(4) 0.38333(16)
C9 C 0.84839(15) -0.2538(4) 0.33503(16)
C10 C 0.85961(14) -0.3296(4) 0.29321(15)
C11 C 0.88707(15) -0.4351(4) 0.29916(16)
H6 H 0.8947 -0.4830 0.2701
C12 C 0.84382(14) -0.3018(4) 0.24221(15)
H7 H 0.8533 -0.3563 0.2160
C13 C 0.80366(15) -0.1954(3) 0.17470(13)
H8 H 0.7743 -0.2465 0.1679
C14 C 0.84309(16) -0.2265(4) 0.13547(14)
H9 H 0.8725 -0.1768 0.1419
H10 H 0.8522 -0.3131 0.1386
C15 C 0.82388(18) -0.2015(4) 0.08163(14)
H11 H 0.8506 -0.2136 0.0568
H12 H 0.7979 -0.2607 0.0736
C16 C 0.80377(18) -0.0739(4) 0.07550(16)
H13 H 0.7883 -0.0666 0.0416
H14 H 0.8309 -0.0150 0.0770
C17 C 0.76618(16) -0.0418(4) 0.11703(15)
H15 H 0.7560 0.0440 0.1137
H16 H 0.7370 -0.0939 0.1136
C18 C 0.79002(15) -0.0625(3) 0.16834(14)
H17 H 0.8212 -0.0157 0.1680
C19 C 0.73053(14) 0.0569(3) 0.21342(14)
H18 H 0.7196 0.0817 0.1807
C20 C 0.70906(15) 0.1144(3) 0.25664(15)
C21 C 0.72466(14) 0.0891(4) 0.30696(14)
C22 C 0.70342(16) 0.1570(3) 0.34842(14)
C23 C 0.66838(16) 0.2414(4) 0.33668(16)
H19 H 0.6535 0.2844 0.3640
C24 C 0.65312(14) 0.2683(3) 0.28650(15)
C25 C 0.67413(14) 0.2037(3) 0.24721(15)
H20 H 0.6647 0.2203 0.2131
C26 C 0.61663(14) 0.3652(3) 0.27709(14)
C27 C 0.58397(15) 0.4016(4) 0.31531(15)
H21 H 0.5834 0.3602 0.3471
C28 C 0.55292(14) 0.4966(4) 0.30693(15)
H22 H 0.5313 0.5191 0.3336
C29 C 0.58240(14) 0.5229(4) 0.22536(16)
H23 H 0.5819 0.5646 0.1937
C30 C 0.61443(15) 0.4280(4) 0.23137(15)
H24 H 0.6352 0.4054 0.2040
C31 C 0.71969(18) 0.1348(4) 0.40366(15)
C32 C 0.77381(18) 0.1603(5) 0.40871(16)
H25 H 0.7920 0.1052 0.3864
H26 H 0.7839 0.1475 0.4441
H27 H 0.7804 0.2445 0.3988
C33 C 0.7064(2) 0.0021(4) 0.41837(18)
H28 H 0.6712 -0.0093 0.4155
H29 H 0.7167 -0.0138 0.4535
H30 H 0.7231 -0.0543 0.3953
C34 C 0.6933(2) 0.2178(4) 0.44182(14)
H31 H 0.7032 0.3021 0.4361
H32 H 0.7018 0.1936 0.4767
H33 H 0.6581 0.2104 0.4370
C35 C 0.8901(2) -0.0745(4) 0.41336(17)
H34 H 0.8724 -0.0391 0.3846
H35 H 0.9241 -0.0884 0.4036
H36 H 0.8890 -0.0186 0.4424
C36 C 0.86667(19) -0.1950(5) 0.42828(16)
C37 C 0.8129(2) -0.1755(6) 0.44450(18)
H37 H 0.8114 -0.1152 0.4719
H38 H 0.7992 -0.2525 0.4566
H39 H 0.7940 -0.1467 0.4152
C38 C 0.8933(2) -0.2455(5) 0.47586(18)
H40 H 0.8914 -0.1860 0.5036
H41 H 0.9274 -0.2611 0.4674
H42 H 0.8777 -0.3213 0.4867
C84 C 0.48352(15) 0.8020(4) 0.17049(16)
C85 C 0.47596(18) 0.8569(4) 0.12233(18)
C86 C 0.4529(2) 0.9724(6) 0.1165(2)
H89 H 0.4398 1.0116 0.1457
C87 C 0.4493(2) 1.0284(6) 0.0696(2)
H90 H 0.4374 1.1093 0.0679
C88 C 0.4629(2) 0.9689(6) 0.0242(2)
C89 C 0.4813(3) 0.8508(6) 0.0291(2)
H91 H 0.4901 0.8066 -0.0006
C90 C 0.4869(2) 0.7972(5) 0.0770(2)
H92 H 0.4988 0.7164 0.0787
N3 N 0.81795(12) -0.2095(3) 0.22909(12)
N5 N 0.55117(12) 0.5601(3) 0.26298(12)
N7 N 0.76376(12) -0.0263(3) 0.21517(12)
N10 N 0.9813(2) -0.8066(5) 0.36473(18)
O4 O 0.81946(10) -0.1592(3) 0.33040(10)
O6 O 0.75803(10) 0.0073(3) 0.31701(10)
O8 O 0.46017(11) 0.8340(3) 0.20970(12)
O9 O 0.51523(10) 0.7168(2) 0.17381(11)
Ni1A Ni 0.5000 1.30890(6) -0.2500
Ni3C Ni 0.210452(18) -0.09760(4) 0.227209(17)
C1C C 0.0462(3) -0.7607(5) 0.0999(2)
H1C H 0.0486 -0.8049 0.0689
C2C C 0.0723(2) -0.6530(5) 0.1030(2)
H2C H 0.0916 -0.6257 0.0752
C3C C 0.06962(17) -0.5864(4) 0.14773(17)
C4C C 0.04036(19) -0.6337(5) 0.1850(2)
H3C H 0.0364 -0.5913 0.2162
C5C C 0.0168(3) -0.7420(5) 0.1775(2)
H4C H -0.0024 -0.7727 0.2047
C6C C 0.09679(15) -0.4708(4) 0.15348(16)
C7C C 0.10514(16) -0.3915(4) 0.11218(15)
H5C H 0.0927 -0.4133 0.0796
C8C C 0.13024(16) -0.2846(4) 0.11667(16)
C9C C 0.15161(15) -0.2538(4) 0.16497(16)
C10C C 0.14039(14) -0.3296(4) 0.20679(15)
C11C C 0.11293(15) -0.4351(4) 0.20084(16)
H6C H 0.1053 -0.4830 0.2299
C12C C 0.15618(14) -0.3018(4) 0.25779(15)
H7C H 0.1467 -0.3563 0.2840
C13C C 0.19634(15) -0.1954(3) 0.32530(13)
H8C H 0.2257 -0.2465 0.3321
C14C C 0.15691(16) -0.2265(4) 0.36453(14)
H9C H 0.1275 -0.1768 0.3581
H10C H 0.1478 -0.3131 0.3614
C15C C 0.17612(18) -0.2015(4) 0.41837(14)
H11C H 0.1494 -0.2136 0.4432
H12C H 0.2021 -0.2607 0.4264
C16C C 0.19623(18) -0.0739(4) 0.42450(16)
H13C H 0.2117 -0.0666 0.4584
H14C H 0.1691 -0.0150 0.4230
C17C C 0.23382(16) -0.0418(4) 0.38297(15)
H15C H 0.2440 0.0440 0.3863
H16C H 0.2630 -0.0939 0.3864
C18C C 0.20998(15) -0.0625(3) 0.33166(14)
H17C H 0.1788 -0.0157 0.3320
C19C C 0.26947(14) 0.0569(3) 0.28658(14)
H18C H 0.2804 0.0817 0.3193
C20C C 0.29094(15) 0.1144(3) 0.24336(15)
C21C C 0.27534(14) 0.0891(4) 0.19304(14)
C22C C 0.29658(16) 0.1570(3) 0.15158(14)
C23C C 0.33162(16) 0.2414(4) 0.16332(16)
H19C H 0.3465 0.2844 0.1360
C24C C 0.34688(14) 0.2683(3) 0.21350(15)
C25C C 0.32587(14) 0.2037(3) 0.25279(15)
H20C H 0.3353 0.2203 0.2869
C26C C 0.38337(14) 0.3652(3) 0.22291(14)
C27C C 0.41603(15) 0.4016(4) 0.18469(15)
H21C H 0.4166 0.3602 0.1529
C28C C 0.44708(14) 0.4966(4) 0.19307(15)
H22C H 0.4687 0.5191 0.1664
C29C C 0.41760(14) 0.5229(4) 0.27464(16)
H23C H 0.4181 0.5646 0.3063
C30C C 0.38557(15) 0.4280(4) 0.26863(15)
H24C H 0.3648 0.4054 0.2960
C31C C 0.28031(18) 0.1348(4) 0.09634(15)
C32C C 0.22619(18) 0.1603(5) 0.09129(16)
H25C H 0.2080 0.1052 0.1136
H26C H 0.2161 0.1475 0.0559
H27C H 0.2196 0.2445 0.1012
C33C C 0.2936(2) 0.0021(4) 0.08163(18)
H28C H 0.3288 -0.0093 0.0845
H29C H 0.2833 -0.0138 0.0465
H30C H 0.2769 -0.0543 0.1047
C34C C 0.3067(2) 0.2178(4) 0.05818(14)
H31C H 0.2968 0.3021 0.0639
H32C H 0.2982 0.1936 0.0233
H33C H 0.3419 0.2104 0.0630
C35C C 0.1099(2) -0.0745(4) 0.08664(17)
H34C H 0.1276 -0.0391 0.1154
H35C H 0.0759 -0.0884 0.0964
H36C H 0.1110 -0.0186 0.0576
C36C C 0.13333(19) -0.1950(5) 0.07172(16)
C37C C 0.1871(2) -0.1755(6) 0.05550(18)
H37C H 0.1886 -0.1152 0.0281
H38C H 0.2008 -0.2525 0.0434
H39C H 0.2060 -0.1467 0.0848
C38C C 0.1067(2) -0.2455(5) 0.02414(18)
H40C H 0.1086 -0.1860 -0.0036
H41C H 0.0726 -0.2611 0.0326
H42C H 0.1223 -0.3213 0.0133
C84B C 0.48352(15) 1.1980(4) -0.17049(16)
C85B C 0.47596(18) 1.1431(4) -0.12233(18)
C86B C 0.4529(2) 1.0276(6) -0.1165(2)
H89B H 0.4398 0.9884 -0.1457
C87B C 0.4493(2) 0.9716(6) -0.0696(2)
H90B H 0.4374 0.8907 -0.0679
C88B C 0.4629(2) 1.0311(6) -0.0242(2)
C89B C 0.4813(3) 1.1492(6) -0.0291(2)
H91B H 0.4901 1.1934 0.0006
C90B C 0.4869(2) 1.2028(5) -0.0770(2)
H92B H 0.4988 1.2836 -0.0787
N3C N 0.18205(12) -0.2095(3) 0.27091(12)
N5C N 0.44883(12) 0.5601(3) 0.23702(12)
N7C N 0.23624(12) -0.0263(3) 0.28483(12)
N10C N 0.0187(2) -0.8066(5) 0.13527(18)
O4C O 0.18054(10) -0.1592(3) 0.16960(10)
O6C O 0.24197(10) 0.0073(3) 0.18299(10)
O8B O 0.46017(11) 1.1660(3) -0.20970(12)
O8C O 0.53983(11) 0.8340(3) 0.29030(12)
O9B O 0.51523(10) 1.2832(2) -0.17381(11)
O9C O 0.48477(10) 0.7168(2) 0.32619(11)
H95? H 0.0191 1.1110 0.4568
H97? H 0.0787 1.0069 0.4296
H100? H 0.4854 0.4887 0.0645
H104? H 0.4503 0.6483 -0.0419
H105? H 0.4133 0.5452 -0.0604
loop_
_geom_bond_atom_site_label_1
_geom_bond_atom_site_label_2
_geom_bond_site_symmetry_1
_geom_bond_site_symmetry_2
Ni1 N5 1_555 1_555
Ni2 N4 1_555 1_555
Ni3 N3 1_555 1_555
Ni4 N6 1_555 1_555
C1 H1 1_555 1_555
C2 C1 1_555 1_555
H2 C2 1_555 1_555
C3 C2 1_555 1_555
C4 C3 1_555 1_555
H3 C4 1_555 1_555
C5 C4 1_555 1_555
H4 C5 1_555 1_555
C6 C3 1_555 1_555
C7 C6 1_555 1_555
H5 C7 1_555 1_555
C8 C7 1_555 1_555
C9 C8 1_555 1_555
C10 C9 1_555 1_555
C11 C6 1_555 1_555
H6 C11 1_555 1_555
C12 C10 1_555 1_555
H7 C12 1_555 1_555
C13 H8 1_555 1_555
C14 C13 1_555 1_555
H9 C14 1_555 1_555
H10 C14 1_555 1_555
C15 C14 1_555 1_555
H11 C15 1_555 1_555
H12 C15 1_555 1_555
C16 C15 1_555 1_555
H13 C16 1_555 1_555
H14 C16 1_555 1_555
C17 C16 1_555 1_555
H15 C17 1_555 1_555
H16 C17 1_555 1_555
C18 C13 1_555 1_555
H17 C18 1_555 1_555
C19 H18 1_555 1_555
C20 C19 1_555 1_555
C21 C20 1_555 1_555
C22 C21 1_555 1_555
C23 C22 1_555 1_555
H19 C23 1_555 1_555
C24 C23 1_555 1_555
C25 C20 1_555 1_555
H20 C25 1_555 1_555
C26 C24 1_555 1_555
C27 C26 1_555 1_555
H21 C27 1_555 1_555
C28 C27 1_555 1_555
H22 C28 1_555 1_555
C29 H23 1_555 1_555
C30 C26 1_555 1_555
H24 C30 1_555 1_555
C31 C22 1_555 1_555
C32 C31 1_555 1_555
H25 C32 1_555 1_555
H26 C32 1_555 1_555
H27 C32 1_555 1_555
C33 C31 1_555 1_555
H28 C33 1_555 1_555
H29 C33 1_555 1_555
H30 C33 1_555 1_555
C34 C31 1_555 1_555
H31 C34 1_555 1_555
H32 C34 1_555 1_555
H33 C34 1_555 1_555
C35 H34 1_555 1_555
H35 C35 1_555 1_555
H36 C35 1_555 1_555
C36 C8 1_555 1_555
C37 C36 1_555 1_555
H37 C37 1_555 1_555
H38 C37 1_555 1_555
H39 C37 1_555 1_555
C38 C36 1_555 1_555
H40 C38 1_555 1_555
H41 C38 1_555 1_555
H42 C38 1_555 1_555
C39 H43 1_555 1_555
C40 H44 1_555 1_555
C41 C40 1_555 1_555
H45 C41 1_555 1_555
C42 C41 1_555 1_555
C43 C39 1_555 1_555
H46 C43 1_555 1_555
C44 C42 1_555 1_555
C45 C44 1_555 1_555
H47 C45 1_555 1_555
C46 C45 1_555 1_555
C47 C46 1_555 1_555
C48 C47 1_555 1_555
C49 C44 1_555 1_555
H48 C49 1_555 1_555
C50 C46 1_555 1_555
H49 C50 1_555 1_555
C51 H50 1_555 1_555
C52 C51 1_555 1_555
H51 C52 1_555 1_555
H52 C52 1_555 1_555
C53 C52 1_555 1_555
H53 C53 1_555 1_555
H54 C53 1_555 1_555
C54 C53 1_555 1_555
H55 C54 1_555 1_555
H56 C54 1_555 1_555
C55 C54 1_555 1_555
H57 C55 1_555 1_555
H58 C55 1_555 1_555
C56 C51 1_555 1_555
H59 C56 1_555 1_555
C57 H60 1_555 1_555
C58 C57 1_555 1_555
C59 C58 1_555 1_555
H61 C59 1_555 1_555
C60 C59 1_555 1_555
C61 C60 1_555 1_555
C62 C61 1_555 1_555
H62 C62 1_555 1_555
C63 C62 1_555 1_555
H63 C63 1_555 1_555
C64 H64 1_555 1_555
C65 C61 1_555 1_555
H65 C65 1_555 1_555
C66 C60 1_555 1_555
H66 C66 1_555 1_555
C67 C66 1_555 1_555
C68 C58 1_555 1_555
C69 C67 1_555 1_555
C70 C69 1_555 1_555
H67 C70 1_555 1_555
H68 C70 1_555 1_555
H69 C70 1_555 1_555
C71 C69 1_555 1_555
H70 C71 1_555 1_555
H71 C71 1_555 1_555
H72 C71 1_555 1_555
C72 C69 1_555 1_555
H73 C72 1_555 1_555
H74 C72 1_555 1_555
H75 C72 1_555 1_555
C73 H76 1_555 1_555
H77 C73 1_555 1_555
H78 C73 1_555 1_555
C74 C48 1_555 1_555
C75 C74 1_555 1_555
H79 C75 1_555 1_555
H80 C75 1_555 1_555
H81 C75 1_555 1_555
C76 C74 1_555 1_555
H82 C76 1_555 1_555
H83 C76 1_555 1_555
H84 C76 1_555 1_555
C77 C78 1_555 1_555
C78 C79 1_555 1_555
C79 H85 1_555 1_555
C80 C79 1_555 1_555
H86 C80 1_555 1_555
C81 C80 1_555 1_555
C82 C81 1_555 1_555
H87 C82 1_555 1_555
C83 C78 1_555 1_555
H88 C83 1_555 1_555
C84 C85 1_555 1_555
C85 C86 1_555 1_555
C86 H89 1_555 1_555
C87 C86 1_555 1_555
H90 C87 1_555 1_555
C88 C87 1_555 1_555
C89 C88 1_555 1_555
H91 C89 1_555 1_555
C90 C85 1_555 1_555
H92 C90 1_555 1_555
N1 C91 1_555 1_555
C91 H93 1_555 1_555
C92 N1 1_555 1_555
H94 C92 1_555 1_555
H96 C92 1_555 1_555
C93 N1 1_555 1_555
H98 C93 1_555 1_555
H99 C93 1_555 1_555
O1 C91 1_555 1_555
N2 C94 1_555 1_555
C94 H101 1_555 1_555
H102 C94 1_555 1_555
C95 N2 1_555 1_555
H103 C95 1_555 1_555
C96 N2 1_555 1_555
H106 C96 1_555 1_555
O2 C95 1_555 1_555
N3 C12 1_555 1_555
N4 C56 1_555 1_555
N5 C28 1_555 1_555
N6 C39 1_555 1_555
N7 Ni3 1_555 1_555
N8 Ni2 1_555 1_555
N9 C63 1_555 1_555
N10 C1 1_555 1_555
O3 Ni2 1_555 1_555
O4 Ni3 1_555 1_555
O5 Ni2 1_555 1_555
O6 Ni3 1_555 1_555
O7 Ni4 1_555 1_555
O8 Ni1 1_555 1_555
O9 Ni1 1_555 1_555
O10 Ni4 1_555 1_555
Ni1A O8B 1_555 1_555
Ni2C N4C 1_555 1_555
Ni3C N3C 1_555 1_555
Ni4A O7B 1_555 1_555
C1C H1C 1_555 1_555
C2C C1C 1_555 1_555
H2C C2C 1_555 1_555
C3C C2C 1_555 1_555
C4C C3C 1_555 1_555
H3C C4C 1_555 1_555
C5C C4C 1_555 1_555
H4C C5C 1_555 1_555
C6C C3C 1_555 1_555
C7C C6C 1_555 1_555
H5C C7C 1_555 1_555
C8C C7C 1_555 1_555
C9C C8C 1_555 1_555
C10C C9C 1_555 1_555
C11C C6C 1_555 1_555
H6C C11C 1_555 1_555
C12C C10C 1_555 1_555
H7C C12C 1_555 1_555
C13C H8C 1_555 1_555
C14C C13C 1_555 1_555
H9C C14C 1_555 1_555
H10C C14C 1_555 1_555
C15C C14C 1_555 1_555
H11C C15C 1_555 1_555
H12C C15C 1_555 1_555
C16C C15C 1_555 1_555
H13C C16C 1_555 1_555
H14C C16C 1_555 1_555
C17C C16C 1_555 1_555
H15C C17C 1_555 1_555
H16C C17C 1_555 1_555
C18C C13C 1_555 1_555
H17C C18C 1_555 1_555
C19C H18C 1_555 1_555
C20C C19C 1_555 1_555
C21C C20C 1_555 1_555
C22C C21C 1_555 1_555
C23C C22C 1_555 1_555
H19C C23C 1_555 1_555
C24C C23C 1_555 1_555
C25C C20C 1_555 1_555
H20C C25C 1_555 1_555
C26C C24C 1_555 1_555
C27C C26C 1_555 1_555
H21C C27C 1_555 1_555
C28C C27C 1_555 1_555
H22C C28C 1_555 1_555
C29C H23C 1_555 1_555
C30C C26C 1_555 1_555
H24C C30C 1_555 1_555
C31C C22C 1_555 1_555
C32C C31C 1_555 1_555
H25C C32C 1_555 1_555
H26C C32C 1_555 1_555
H27C C32C 1_555 1_555
C33C C31C 1_555 1_555
H28C C33C 1_555 1_555
H29C C33C 1_555 1_555
H30C C33C 1_555 1_555
C34C C31C 1_555 1_555
H31C C34C 1_555 1_555
H32C C34C 1_555 1_555
H33C C34C 1_555 1_555
C35C H34C 1_555 1_555
H35C C35C 1_555 1_555
H36C C35C 1_555 1_555
C36C C8C 1_555 1_555
C37C C36C 1_555 1_555
H37C C37C 1_555 1_555
H38C C37C 1_555 1_555
H39C C37C 1_555 1_555
C38C C36C 1_555 1_555
H40C C38C 1_555 1_555
H41C C38C 1_555 1_555
H42C C38C 1_555 1_555
C39C H43C 1_555 1_555
C40C H44C 1_555 1_555
C41C C40C 1_555 1_555
H45C C41C 1_555 1_555
C42C C41C 1_555 1_555
C43C C39C 1_555 1_555
H46C C43C 1_555 1_555
C44C C42C 1_555 1_555
C45C C44C 1_555 1_555
H47C C45C 1_555 1_555
C46C C45C 1_555 1_555
C47C C46C 1_555 1_555
C48C C47C 1_555 1_555
C49C C44C 1_555 1_555
H48C C49C 1_555 1_555
C50C C46C 1_555 1_555
H49C C50C 1_555 1_555
C51C H50C 1_555 1_555
C52C C51C 1_555 1_555
H51C C52C 1_555 1_555
H52C C52C 1_555 1_555
C53C C52C 1_555 1_555
H53C C53C 1_555 1_555
H54C C53C 1_555 1_555
C54C C53C 1_555 1_555
H55C C54C 1_555 1_555
H56C C54C 1_555 1_555
C55C C54C 1_555 1_555
H57C C55C 1_555 1_555
H58C C55C 1_555 1_555
C56C C51C 1_555 1_555
H59C C56C 1_555 1_555
C57C H60C 1_555 1_555
C58C C57C 1_555 1_555
C59C C58C 1_555 1_555
H61C C59C 1_555 1_555
C60C C59C 1_555 1_555
C61C C60C 1_555 1_555
C62C C61C 1_555 1_555
H62C C62C 1_555 1_555
C63C C62C 1_555 1_555
H63C C63C 1_555 1_555
C64C H64C 1_555 1_555
C65C C61C 1_555 1_555
H65C C65C 1_555 1_555
C66C C60C 1_555 1_555
H66C C66C 1_555 1_555
C67C C66C 1_555 1_555
C68C C58C 1_555 1_555
C69C C67C 1_555 1_555
C70C C69C 1_555 1_555
H67C C70C 1_555 1_555
H68C C70C 1_555 1_555
H69C C70C 1_555 1_555
C71C C69C 1_555 1_555
H70C C71C 1_555 1_555
H71C C71C 1_555 1_555
H72C C71C 1_555 1_555
C72C C69C 1_555 1_555
H73C C72C 1_555 1_555
H74C C72C 1_555 1_555
H75C C72C 1_555 1_555
C73C H76C 1_555 1_555
H77C C73C 1_555 1_555
H78C C73C 1_555 1_555
C74C C48C 1_555 1_555
C75C C74C 1_555 1_555
H79C C75C 1_555 1_555
H80C C75C 1_555 1_555
H81C C75C 1_555 1_555
C76C C74C 1_555 1_555
H82C C76C 1_555 1_555
H83C C76C 1_555 1_555
H84C C76C 1_555 1_555
C77B C78B 1_555 1_555
C78B C79B 1_555 1_555
C79B H85B 1_555 1_555
C80B C79B 1_555 1_555
H86B C80B 1_555 1_555
C81B C81 1_555 1_555
C82B C81B 1_555 1_555
H87B C82B 1_555 1_555
C83B C78B 1_555 1_555
H88B C83B 1_555 1_555
C84B C85B 1_555 1_555
C85B C86B 1_555 1_555
C86B H89B 1_555 1_555
C87B C86B 1_555 1_555
H90B C87B 1_555 1_555
C88B C88 1_555 1_555
C89B C88B 1_555 1_555
H91B C89B 1_555 1_555
C90B C85B 1_555 1_555
H92B C90B 1_555 1_555
C91B N1 1_555 1_555
H93B C91B 1_555 1_555
C92B N1 1_555 1_555
H94B C92B 1_555 1_555
H96B C92B 1_555 1_555
C93B N1 1_555 1_555
H98B C93B 1_555 1_555
H99B C93B 1_555 1_555
O1B C93 1_555 1_555
C94B N2 1_555 1_555
H101B C94B 1_555 1_555
H102B C94B 1_555 1_555
C95B N2 1_555 1_555
H103B C95B 1_555 1_555
C96B N2 1_555 1_555
H106B C96B 1_555 1_555
O2B C96 1_555 1_555
N3C C12C 1_555 1_555
N4C C56C 1_555 1_555
N5C Ni1 1_555 1_555
N6C Ni4 1_555 1_555
N7C Ni3C 1_555 1_555
N8C Ni2C 1_555 1_555
N9C C63C 1_555 1_555
N10C C1C 1_555 1_555
O3C Ni2C 1_555 1_555
O4C Ni3C 1_555 1_555
O5C Ni2C 1_555 1_555
O6C Ni3C 1_555 1_555
O7B C77B 1_555 1_555
O7C Ni4 1_555 1_555
O8B C84B 1_555 1_555
O8C Ni1 1_555 1_555
O9B Ni1A 1_555 1_555
O9C Ni1 1_555 1_555
O10B Ni4A 1_555 1_555
O10C Ni4 1_555 1_555
C5 N10 1_555 1_555
C9 O4 1_555 1_555
C10 C11 1_555 1_555
C13 N3 1_555 1_555
C17 C18 1_555 1_555
C18 N7 1_555 1_555
C19 N7 1_555 1_555
C21 O6 1_555 1_555
C24 C25 1_555 1_555
C29 C30 1_555 1_555
C29 N5 1_555 1_555
C35 C36 1_555 1_555
C40 N6 1_555 1_555
C42 C43 1_555 1_555
C47 O5 1_555 1_555
C48 C49 1_555 1_555
C50 N8 1_555 1_555
C51 N8 1_555 1_555
C55 C56 1_555 1_555
C57 N4 1_555 1_555
C64 C65 1_555 1_555
C64 N9 1_555 1_555
C67 C68 1_555 1_555
C68 O3 1_555 1_555
C73 C74 1_555 1_555
C77 O7 1_555 1_555
C77 O10 1_555 1_555
C82 C83 1_555 1_555
C84 O8 1_555 1_555
C84 O9 1_555 1_555
C89 C90 1_555 1_555
C91 C92B 1_555 1_555
C91 C93B 1_555 1_555
C92 C91B 1_555 1_555
C92 C92B 1_555 1_555
C93 C91B 1_555 1_555
O1 C93B 1_555 1_555
C94 C94B 1_555 1_555
C94 C95B 1_555 1_555
C95 C94B 1_555 1_555
C95 C96B 1_555 1_555
C96 C95B 1_555 1_555
O2 C96B 1_555 1_555
C5C N10C 1_555 1_555
C9C O4C 1_555 1_555
C10C C11C 1_555 1_555
C13C N3C 1_555 1_555
C17C C18C 1_555 1_555
C18C N7C 1_555 1_555
C19C N7C 1_555 1_555
C21C O6C 1_555 1_555
C24C C25C 1_555 1_555
C28C N5C 1_555 1_555
C29C C30C 1_555 1_555
C29C N5C 1_555 1_555
C35C C36C 1_555 1_555
C39C N6C 1_555 1_555
C40C N6C 1_555 1_555
C42C C43C 1_555 1_555
C47C O5C 1_555 1_555
C48C C49C 1_555 1_555
C50C N8C 1_555 1_555
C51C N8C 1_555 1_555
C55C C56C 1_555 1_555
C57C N4C 1_555 1_555
C64C C65C 1_555 1_555
C64C N9C 1_555 1_555
C67C C68C 1_555 1_555
C68C O3C 1_555 1_555
C73C C74C 1_555 1_555
C77B O10B 1_555 1_555
C80B C81B 1_555 1_555
C82B C83B 1_555 1_555
C84B O9B 1_555 1_555
C87B C88B 1_555 1_555
C89B C90B 1_555 1_555
C91B O1B 1_555 1_555
C95B O2B 1_555 1_555

#END
