
#######################################################################
#
#                 Cambridge Crystallographic Data Centre
#                                CCDC 
#
#######################################################################
#
# If this CIF has been generated from an entry in the Cambridge 
# Structural Database, then it will include bibliographic, chemical, 
# crystal, experimental, refinement or atomic coordinate data resulting 
# from the CCDC's data processing and validation procedures.
#
#######################################################################

data_OWUPAY01
_symmetry_cell_setting           orthorhombic
_symmetry_space_group_name_H-M   'P 2 2 21'
_symmetry_Int_Tables_number      17
_space_group_name_Hall           'P 2c 2'
loop_
_symmetry_equiv_pos_site_id
_symmetry_equiv_pos_as_xyz
1 x,y,z
2 -x,-y,1/2+z
3 x,-y,-z
4 -x,y,1/2-z
_cell_length_a                   27.514(3)
_cell_length_b                   11.0404(15)
_cell_length_c                   26.236(4)
_cell_angle_alpha                90
_cell_angle_beta                 90
_cell_angle_gamma                90
_cell_volume                     7969.59
loop_
_atom_site_label
_atom_site_type_symbol
_atom_site_fract_x
_atom_site_fract_y
_atom_site_fract_z
O1 O 0.18190(13) 0.1532(3) 0.83001(12)
N1 N 0.17593(14) 0.1862(4) 0.72807(15)
C1 C 0.0570(3) 0.7672(7) 0.8979(3)
H1 H 0.0617 0.8139 0.9279
Ni2 Ni 0.21213(2) 0.09369(6) 0.77193(2)
O2 O 0.24632(13) -0.0055(3) 0.81553(12)
N2 N 0.24247(15) 0.0359(4) 0.71367(15)
C2 C 0.0834(2) 0.6605(6) 0.8923(2)
H2 H 0.1062 0.6375 0.9176
O3 O 0.48837(13) -0.7230(3) 0.67354(14)
N3 N 0.0253(2) 0.8073(6) 0.8627(2)
C3 C 0.0767(2) 0.5878(5) 0.8501(2)
Ni4 Ni 0.5000 -0.69826(8) 0.7500
O4 O 0.54190(14) -0.8399(4) 0.71097(15)
N4 N 0.44784(14) -0.5670(4) 0.76093(15)
C4 C 0.0446(2) 0.6293(6) 0.8135(2)
H3 H 0.0397 0.5851 0.7828
C5 C 0.0199(3) 0.7365(7) 0.8223(3)
H4 H -0.0030 0.7614 0.7972
C6 C 0.10330(18) 0.4728(5) 0.8440(2)
C7 C 0.11313(18) 0.3977(5) 0.8865(2)
H5 H 0.1023 0.4244 0.9190
C8 C 0.13757(18) 0.2871(5) 0.88404(19)
C9 C 0.15535(17) 0.2522(4) 0.83415(18)
C10 C 0.14205(17) 0.3244(5) 0.79119(19)
C11 C 0.11533(18) 0.4306(5) 0.79683(19)
H6 H 0.1053 0.4742 0.7674
C12 C 0.14269(19) 0.2039(5) 0.92939(18)
C13 C 0.1202(2) 0.2587(6) 0.97710(19)
H7 H 0.1341 0.3391 0.9831
H8 H 0.1270 0.2063 1.0064
H9 H 0.0850 0.2659 0.9725
C14 C 0.1967(2) 0.1817(6) 0.94182(19)
H10 H 0.2133 0.1506 0.9115
H11 H 0.1993 0.1225 0.9695
H12 H 0.2118 0.2581 0.9524
C15 C 0.1180(2) 0.0819(5) 0.9181(2)
H13 H 0.0836 0.0956 0.9099
H14 H 0.1204 0.0294 0.9481
H15 H 0.1341 0.0430 0.8891
C16 C 0.15032(17) 0.2826(5) 0.74006(18)
H16 H 0.1363 0.3278 0.7130
C17 C 0.17626(18) 0.1370(5) 0.67575(16)
H17 H 0.1576 0.0592 0.6766
C18 C 0.22844(19) 0.1050(5) 0.66689(17)
H18 H 0.2479 0.1814 0.6656
C19 C 0.2348(2) 0.0377(6) 0.61677(19)
H19 H 0.2197 -0.0435 0.6193
H20 H 0.2698 0.0269 0.6095
C20 C 0.2109(3) 0.1093(7) 0.5733(2)
H21 H 0.2296 0.1846 0.5673
H22 H 0.2123 0.0604 0.5416
C21 C 0.1594(3) 0.1411(7) 0.5842(2)
H23 H 0.1399 0.0660 0.5866
H24 H 0.1463 0.1901 0.5557
C22 C 0.1546(2) 0.2129(6) 0.63414(19)
H25 H 0.1721 0.2910 0.6314
H26 H 0.1200 0.2298 0.6415
C23 C 0.27389(19) -0.0514(5) 0.71159(17)
H27 H 0.2865 -0.0716 0.6790
C24 C 0.29132(18) -0.1202(4) 0.75436(18)
C25 C 0.27658(19) -0.0921(5) 0.80529(18)
C26 C 0.29671(19) -0.1642(5) 0.84602(17)
C27 C 0.33036(19) -0.2523(4) 0.83456(18)
H28 H 0.3437 -0.2981 0.8619
C28 C 0.34636(18) -0.2791(5) 0.78416(18)
C29 C 0.32619(17) -0.2114(4) 0.74510(19)
H29 H 0.3361 -0.2269 0.7110
C30 C 0.2807(2) -0.1404(5) 0.90201(19)
C31 C 0.22487(19) -0.1541(5) 0.9059(2)
H30 H 0.2160 -0.2394 0.9014
H31 H 0.2093 -0.1053 0.8793
H32 H 0.2140 -0.1263 0.9395
C32 C 0.2966(2) -0.0123(5) 0.9161(2)
H33 H 0.2870 0.0051 0.9513
H34 H 0.2811 0.0459 0.8931
H35 H 0.3320 -0.0058 0.9130
C33 C 0.3047(2) -0.2267(5) 0.93906(18)
H36 H 0.2954 -0.3101 0.9307
H37 H 0.2941 -0.2077 0.9738
H38 H 0.3401 -0.2182 0.9367
C34 C 0.38222(17) -0.3750(4) 0.77500(18)
C35 C 0.41471(18) -0.4098(5) 0.81347(19)
H39 H 0.4147 -0.3689 0.8453
C36 C 0.44652(18) -0.5037(5) 0.8049(2)
H40 H 0.4687 -0.5250 0.8312
C37 C 0.41893(17) -0.5315(5) 0.72443(19)
H41 H 0.4209 -0.5720 0.6925
C38 C 0.38504(19) -0.4369(5) 0.7295(2)
H42 H 0.3643 -0.4160 0.7019
C39 C 0.51983(19) -0.8074(5) 0.6710(2)
C40 C 0.5300(2) -0.8603(5) 0.6226(2)
C41 C 0.5197(3) -0.7994(7) 0.5783(3)
H43 H 0.5064 -0.7202 0.5806
C42 C 0.5279(3) -0.8495(7) 0.5294(3)
H44 H 0.5219 -0.8029 0.4996
C43 C 0.5455(3) -0.9728(8) 0.5253(3)
C44 C 0.5553(3) -1.0398(10) 0.5696(3)
H45 H 0.5645 -1.1226 0.5677
C45 C 0.5511(3) -0.9793(9) 0.6178(3)
H46 H 0.5625 -1.0191 0.6475
O1C O 0.81810(13) 0.1532(3) 0.66999(12)
N1C N 0.82407(14) 0.1862(4) 0.77193(15)
C1C C 0.9430(3) 0.7672(7) 0.6021(3)
H1C H 0.9383 0.8139 0.5721
Ni2C Ni 0.78787(2) 0.09369(6) 0.72807(2)
O2C O 0.75368(13) -0.0055(3) 0.68447(12)
N2C N 0.75753(15) 0.0359(4) 0.78633(15)
C2C C 0.9166(2) 0.6605(6) 0.6077(2)
H2C H 0.8938 0.6375 0.5824
O3B O 0.48837(13) -1.2770(3) 0.32646(14)
O3C O 0.51163(13) -0.7230(3) 0.82646(14)
N3C N 0.9747(2) 0.8073(6) 0.6373(2)
C3C C 0.9233(2) 0.5878(5) 0.6499(2)
Ni4A Ni 0.5000 -1.30174(8) 0.2500
O4B O 0.54190(14) -1.1601(4) 0.28903(15)
O4C O 0.45810(14) -0.8399(4) 0.78903(15)
N4C N 0.55216(14) -0.5670(4) 0.73907(15)
C4C C 0.9554(2) 0.6293(6) 0.6865(2)
H3C H 0.9603 0.5851 0.7172
C5C C 0.9801(3) 0.7365(7) 0.6777(3)
H4C H 1.0030 0.7614 0.7028
C6C C 0.89670(18) 0.4728(5) 0.6560(2)
C7C C 0.88687(18) 0.3977(5) 0.6135(2)
H5C H 0.8977 0.4244 0.5810
C8C C 0.86243(18) 0.2871(5) 0.61596(19)
C9C C 0.84465(17) 0.2522(4) 0.66585(18)
C10C C 0.85795(17) 0.3244(5) 0.70881(19)
C11C C 0.88467(18) 0.4306(5) 0.70317(19)
H6C H 0.8947 0.4742 0.7326
C12C C 0.85731(19) 0.2039(5) 0.57061(18)
C13C C 0.8798(2) 0.2587(6) 0.52290(19)
H7C H 0.8659 0.3391 0.5169
H8C H 0.8730 0.2063 0.4936
H9C H 0.9150 0.2659 0.5275
C14C C 0.8033(2) 0.1817(6) 0.55818(19)
H10C H 0.7867 0.1506 0.5885
H11C H 0.8007 0.1225 0.5305
H12C H 0.7882 0.2581 0.5476
C15C C 0.8820(2) 0.0819(5) 0.5819(2)
H13C H 0.9164 0.0956 0.5901
H14C H 0.8796 0.0294 0.5519
H15C H 0.8659 0.0430 0.6109
C16C C 0.84968(17) 0.2826(5) 0.75994(18)
H16C H 0.8637 0.3278 0.7870
C17C C 0.82374(18) 0.1370(5) 0.82425(16)
H17C H 0.8424 0.0592 0.8234
C18C C 0.77156(19) 0.1050(5) 0.83311(17)
H18C H 0.7521 0.1814 0.8344
C19C C 0.7652(2) 0.0377(6) 0.88323(19)
H19C H 0.7803 -0.0435 0.8807
H20C H 0.7302 0.0269 0.8905
C20C C 0.7891(3) 0.1093(7) 0.9267(2)
H21C H 0.7704 0.1846 0.9327
H22C H 0.7877 0.0604 0.9584
C21C C 0.8406(3) 0.1411(7) 0.9158(2)
H23C H 0.8601 0.0660 0.9134
H24C H 0.8537 0.1901 0.9443
C22C C 0.8454(2) 0.2129(6) 0.86586(19)
H25C H 0.8279 0.2910 0.8686
H26C H 0.8800 0.2298 0.8585
C23C C 0.72611(19) -0.0514(5) 0.78841(17)
H27C H 0.7135 -0.0716 0.8210
C24C C 0.70868(18) -0.1202(4) 0.74564(18)
C25C C 0.72342(19) -0.0921(5) 0.69471(18)
C26C C 0.70329(19) -0.1642(5) 0.65398(17)
C27C C 0.66964(19) -0.2523(4) 0.66544(18)
H28C H 0.6563 -0.2981 0.6381
C28C C 0.65364(18) -0.2791(5) 0.71584(18)
C29C C 0.67381(17) -0.2114(4) 0.75490(19)
H29C H 0.6639 -0.2269 0.7890
C30C C 0.7193(2) -0.1404(5) 0.59799(19)
C31C C 0.77513(19) -0.1541(5) 0.5941(2)
H30C H 0.7840 -0.2394 0.5986
H31C H 0.7907 -0.1053 0.6207
H32C H 0.7860 -0.1263 0.5605
C32C C 0.7034(2) -0.0123(5) 0.5839(2)
H33C H 0.7130 0.0051 0.5487
H34C H 0.7189 0.0459 0.6069
H35C H 0.6680 -0.0058 0.5870
C33C C 0.6953(2) -0.2267(5) 0.56094(18)
H36C H 0.7046 -0.3101 0.5693
H37C H 0.7059 -0.2077 0.5262
H38C H 0.6599 -0.2182 0.5633
C34C C 0.61778(17) -0.3750(4) 0.72500(18)
C35C C 0.58529(18) -0.4098(5) 0.68653(19)
H39C H 0.5853 -0.3689 0.6547
C36C C 0.55348(18) -0.5037(5) 0.6951(2)
H40C H 0.5313 -0.5250 0.6688
C37C C 0.58107(17) -0.5315(5) 0.77557(19)
H41C H 0.5791 -0.5720 0.8075
C38C C 0.61496(19) -0.4369(5) 0.7705(2)
H42C H 0.6357 -0.4160 0.7981
C39B C 0.51983(19) -1.1926(5) 0.3290(2)
C40B C 0.5300(2) -1.1397(5) 0.3774(2)
C41B C 0.5197(3) -1.2006(7) 0.4217(3)
H43B H 0.5064 -1.2798 0.4194
C42B C 0.5279(3) -1.1505(7) 0.4706(3)
H44B H 0.5219 -1.1971 0.5004
C43B C 0.5455(3) -1.0272(8) 0.4747(3)
C44B C 0.5553(3) -0.9602(10) 0.4304(3)
H45B H 0.5645 -0.8774 0.4323
C45B C 0.5511(3) -1.0207(9) 0.3822(3)
H46B H 0.5625 -0.9809 0.3525
N9 N 0.4446(5) -0.5000 1.0000
O9 O 0.4182(6) -0.3813(19) 0.9380(7)
C91 C 0.4509(7) -0.4406(18) 0.9534(5)
C92 C 0.4884(7) -0.553(3) 1.0110(10)
H94 H 0.4899 -0.6331 0.9949
C93 C 0.4057(7) -0.500(3) 1.0318(7)
H97 H 0.3863 -0.4269 1.0260
H99 H 0.3857 -0.5718 1.0252
O9B O 0.4182(6) -0.6187(19) 1.0620(7)
C91B C 0.4509(7) -0.5594(18) 1.0466(5)
C92B C 0.4884(7) -0.447(3) 0.9890(10)
H94B H 0.4899 -0.3669 1.0051
C93B C 0.4057(7) -0.500(3) 0.9682(7)
H97B H 0.3863 -0.5731 0.9740
H99B H 0.3857 -0.4282 0.9748
N10 N 0.9549(5) 0.0000 1.0000
O10 O 0.9155(7) 0.1280(15) 1.0555(5)
C94 C 0.9178(6) 0.0767(14) 1.0146(6)
H100 H 0.8922 0.0904 0.9910
C95 C 0.9936(7) -0.025(2) 1.0310(6)
H101 H 1.0026 -0.1100 1.0276
H103 H 1.0212 0.0264 1.0211
C96 C 0.9481(7) -0.041(2) 0.9521(5)
O10B O 0.9155(7) -0.1280(15) 0.9445(5)
C94B C 0.9178(6) -0.0767(14) 0.9854(6)
H100B H 0.8922 -0.0904 1.0090
C95B C 0.9936(7) 0.025(2) 0.9690(6)
H101B H 1.0026 0.1100 0.9724
H103B H 1.0212 -0.0264 0.9789
C96B C 0.9481(7) 0.041(2) 1.0479(5)
Ni1 Ni 1.0000 0.19065(8) 0.7500
Ni3 Ni 1.28948(2) -0.59711(6) 0.72728(2)
O5 O 1.31938(12) -0.6588(3) 0.66926(12)
N5 N 1.4813(3) -1.3045(6) 0.6353(2)
O6 O 1.25783(12) -0.4920(3) 0.68304(12)
N6 N 1.31794(15) -0.7090(4) 0.77095(14)
O7 O 1.03995(13) 0.3341(4) 0.70960(13)
N7 N 1.26337(14) -0.5269(4) 0.78487(15)
O8 O 0.98509(13) 0.2152(3) 0.67393(13)
N8 N 1.05108(14) 0.0596(4) 0.73718(14)
C46 C 1.4536(3) -1.2600(7) 0.6003(3)
H47 H 1.4510 -1.3051 0.5696
C47 C 1.4271(2) -1.1531(6) 0.6029(2)
H48 H 1.4078 -1.1269 0.5750
C48 C 1.42984(19) -1.0858(5) 0.6474(2)
C49 C 1.4600(2) -1.1332(6) 0.6852(2)
H49 H 1.4640 -1.0907 0.7164
C50 C 1.4835(3) -1.2387(7) 0.6777(3)
H50 H 1.5031 -1.2684 0.7047
C51 C 1.40312(17) -0.9698(5) 0.65357(19)
C52 C 1.3942(2) -0.8913(6) 0.61281(19)
H51 H 1.4059 -0.9143 0.5801
C53 C 1.36956(19) -0.7828(5) 0.61670(19)
C54 C 1.34860(19) -0.7523(5) 0.6644(2)
C55 C 1.35930(17) -0.8281(5) 0.70714(18)
C56 C 1.38645(17) -0.9352(5) 0.70073(19)
H52 H 1.3934 -0.9844 0.7295
C57 C 1.3660(2) -0.6941(6) 0.5711(2)
C58 C 1.3925(2) -0.7447(6) 0.5236(2)
H53 H 1.3773 -0.8211 0.5132
H54 H 1.4268 -0.7591 0.5318
H55 H 1.3903 -0.6861 0.4956
C59 C 1.3131(2) -0.6758(7) 0.5553(2)
H56 H 1.2995 -0.7530 0.5436
H57 H 1.3115 -0.6164 0.5275
H58 H 1.2944 -0.6461 0.5845
C60 C 1.3901(3) -0.5742(6) 0.5871(2)
H59 H 1.3898 -0.5178 0.5582
H60 H 1.4237 -0.5896 0.5975
H61 H 1.3721 -0.5388 0.6156
C61 C 1.34376(19) -0.7999(5) 0.75772(19)
H62 H 1.3535 -0.8539 0.7840
C62 C 1.30385(17) -0.6949(5) 0.82542(15)
H63 H 1.2745 -0.7457 0.8322
C63 C 1.29017(17) -0.5623(4) 0.83123(16)
H64 H 1.3212 -0.5153 0.8312
C64 C 1.2663(2) -0.5416(5) 0.88344(18)
H65 H 1.2566 -0.4557 0.8871
H66 H 1.2370 -0.5927 0.8868
C65 C 1.3035(2) -0.5750(5) 0.9246(2)
H67 H 1.3305 -0.5157 0.9237
H68 H 1.2878 -0.5691 0.9585
C66 C 1.3242(2) -0.7009(5) 0.91825(18)
H69 H 1.2986 -0.7608 0.9265
H70 H 1.3510 -0.7121 0.9429
C67 C 1.34324(18) -0.7267(5) 0.86460(18)
H71 H 1.3520 -0.8133 0.8615
H72 H 1.3727 -0.6777 0.8581
C68 C 1.23061(17) -0.4433(4) 0.78694(18)
H73 H 1.2200 -0.4179 0.8197
C69 C 1.20880(17) -0.3855(4) 0.74301(18)
C70 C 1.17473(17) -0.2959(4) 0.75325(18)
H74 H 1.1661 -0.2783 0.7875
C71 C 1.15316(17) -0.2320(4) 0.71381(18)
C72 C 1.16830(19) -0.2589(5) 0.6639(2)
H75 H 1.1532 -0.2162 0.6368
C73 C 1.20368(18) -0.3431(4) 0.65150(18)
C74 C 1.22469(17) -0.4107(5) 0.69273(18)
C75 C 1.2195(2) -0.3650(5) 0.59662(18)
C76 C 1.2733(2) -0.3394(6) 0.59145(19)
H76 H 1.2799 -0.2556 0.6016
H77 H 1.2832 -0.3514 0.5559
H78 H 1.2916 -0.3947 0.6135
C77 C 1.1932(2) -0.2817(6) 0.55814(18)
H79 H 1.1580 -0.2883 0.5630
H80 H 1.2016 -0.3063 0.5233
H81 H 1.2034 -0.1976 0.5637
C78 C 1.2065(2) -0.4985(5) 0.5817(2)
H82 H 1.2233 -0.5547 0.6046
H83 H 1.2167 -0.5139 0.5465
H84 H 1.1713 -0.5105 0.5846
C79 C 1.11681(17) -0.1347(4) 0.72316(17)
C80 C 1.11459(17) -0.0706(5) 0.76898(17)
H85 H 1.1355 -0.0925 0.7963
C81 C 1.08264(16) 0.0233(5) 0.77512(19)
H86 H 1.0822 0.0652 0.8067
C82 C 1.05307(17) -0.0033(5) 0.69331(18)
H87 H 1.0318 0.0197 0.6665
C83 C 1.08382(17) -0.0980(5) 0.68504(18)
H88 H 1.0830 -0.1396 0.6534
C84 C 1.01631(17) 0.3015(5) 0.67071(18)
C85 C 1.0240(2) 0.3565(5) 0.6221(2)
C86 C 1.0475(2) 0.4733(6) 0.6164(2)
H89 H 1.0607 0.5127 0.6455
C87 C 1.0509(3) 0.5276(7) 0.5695(3)
H90 H 1.0634 0.6077 0.5675
C88 C 1.0366(2) 0.4693(6) 0.5243(3)
C89 C 1.0178(3) 0.3550(8) 0.5292(3)
H91 H 1.0075 0.3130 0.4994
C90 C 1.0131(3) 0.2981(7) 0.5768(2)
H92 H 1.0022 0.2166 0.5779
Ni1A Ni 1.0000 0.80935(8) 0.2500
Ni3C Ni 0.71052(2) -0.59711(6) 0.77272(2)
O5C O 0.68062(12) -0.6588(3) 0.83074(12)
N5C N 0.5187(3) -1.3045(6) 0.8647(2)
O6C O 0.74217(12) -0.4920(3) 0.81696(12)
N6C N 0.68206(15) -0.7090(4) 0.72905(14)
O7B O 1.03995(13) 0.6659(4) 0.29040(13)
O7C O 0.96005(13) 0.3341(4) 0.79040(13)
N7C N 0.73663(14) -0.5269(4) 0.71513(15)
O8B O 0.98509(13) 0.7848(3) 0.32607(13)
O8C O 1.01491(13) 0.2152(3) 0.82607(13)
N8C N 0.94892(14) 0.0596(4) 0.76282(14)
C46C C 0.5464(3) -1.2600(7) 0.8997(3)
H47C H 0.5490 -1.3051 0.9304
C47C C 0.5729(2) -1.1531(6) 0.8971(2)
H48C H 0.5922 -1.1269 0.9250
C48C C 0.57016(19) -1.0858(5) 0.8526(2)
C49C C 0.5400(2) -1.1332(6) 0.8148(2)
H49C H 0.5360 -1.0907 0.7836
C50C C 0.5165(3) -1.2387(7) 0.8223(3)
H50C H 0.4969 -1.2684 0.7953
C51C C 0.59688(17) -0.9698(5) 0.84643(19)
C52C C 0.6058(2) -0.8913(6) 0.88719(19)
H51C H 0.5941 -0.9143 0.9199
C53C C 0.63044(19) -0.7828(5) 0.88330(19)
C54C C 0.65140(19) -0.7523(5) 0.8356(2)
C55C C 0.64070(17) -0.8281(5) 0.79286(18)
C56C C 0.61355(17) -0.9352(5) 0.79927(19)
H52C H 0.6066 -0.9844 0.7705
C57C C 0.6340(2) -0.6941(6) 0.9289(2)
C58C C 0.6075(2) -0.7447(6) 0.9764(2)
H53C H 0.6227 -0.8211 0.9868
H54C H 0.5732 -0.7591 0.9682
H55C H 0.6097 -0.6861 1.0044
C59C C 0.6869(2) -0.6758(7) 0.9447(2)
H56C H 0.7005 -0.7530 0.9564
H57C H 0.6885 -0.6164 0.9725
H58C H 0.7056 -0.6461 0.9155
C60C C 0.6099(3) -0.5742(6) 0.9129(2)
H59C H 0.6102 -0.5178 0.9418
H60C H 0.5763 -0.5896 0.9025
H61C H 0.6279 -0.5388 0.8844
C61C C 0.65624(19) -0.7999(5) 0.74228(19)
H62C H 0.6465 -0.8539 0.7160
C62C C 0.69615(17) -0.6949(5) 0.67458(15)
H63C H 0.7255 -0.7457 0.6678
C63C C 0.70983(17) -0.5623(4) 0.66877(16)
H64C H 0.6788 -0.5153 0.6688
C64C C 0.7337(2) -0.5416(5) 0.61656(18)
H65C H 0.7434 -0.4557 0.6129
H66C H 0.7630 -0.5927 0.6132
C65C C 0.6965(2) -0.5750(5) 0.5754(2)
H67C H 0.6695 -0.5157 0.5763
H68C H 0.7122 -0.5691 0.5415
C66C C 0.6758(2) -0.7009(5) 0.58175(18)
H69C H 0.7014 -0.7608 0.5735
H70C H 0.6490 -0.7121 0.5571
C67C C 0.65676(18) -0.7267(5) 0.63540(18)
H71C H 0.6480 -0.8133 0.6385
H72C H 0.6273 -0.6777 0.6419
C68C C 0.76939(17) -0.4433(4) 0.71306(18)
H73C H 0.7800 -0.4179 0.6803
C69C C 0.79120(17) -0.3855(4) 0.75699(18)
C70C C 0.82527(17) -0.2959(4) 0.74675(18)
H74C H 0.8339 -0.2783 0.7125
C71C C 0.84684(17) -0.2320(4) 0.78619(18)
C72C C 0.83170(19) -0.2589(5) 0.8361(2)
H75C H 0.8468 -0.2162 0.8632
C73C C 0.79632(18) -0.3431(4) 0.84850(18)
C74C C 0.77531(17) -0.4107(5) 0.80727(18)
C75C C 0.7805(2) -0.3650(5) 0.90338(18)
C76C C 0.7267(2) -0.3394(6) 0.90855(19)
H76C H 0.7201 -0.2556 0.8984
H77C H 0.7168 -0.3514 0.9441
H78C H 0.7084 -0.3947 0.8865
C77C C 0.8068(2) -0.2817(6) 0.94186(18)
H79C H 0.8420 -0.2883 0.9370
H80C H 0.7984 -0.3063 0.9767
H81C H 0.7966 -0.1976 0.9363
C78C C 0.7935(2) -0.4985(5) 0.9183(2)
H82C H 0.7767 -0.5547 0.8954
H83C H 0.7833 -0.5139 0.9535
H84C H 0.8287 -0.5105 0.9154
C79C C 0.88319(17) -0.1347(4) 0.77684(17)
C80C C 0.88541(17) -0.0706(5) 0.73102(17)
H85C H 0.8645 -0.0925 0.7037
C81C C 0.91736(16) 0.0233(5) 0.72488(19)
H86C H 0.9178 0.0652 0.6933
C82C C 0.94693(17) -0.0033(5) 0.80669(18)
H87C H 0.9682 0.0197 0.8335
C83C C 0.91618(17) -0.0980(5) 0.81496(18)
H88C H 0.9170 -0.1396 0.8466
C84B C 1.01631(17) 0.6985(5) 0.32929(18)
C85B C 1.0240(2) 0.6435(5) 0.3779(2)
C86B C 1.0475(2) 0.5267(6) 0.3836(2)
H89B H 1.0607 0.4873 0.3545
C87B C 1.0509(3) 0.4724(7) 0.4305(3)
H90B H 1.0634 0.3923 0.4325
C88B C 1.0366(2) 0.5307(6) 0.4757(3)
C89B C 1.0178(3) 0.6450(8) 0.4708(3)
H91B H 1.0075 0.6870 0.5006
C90B C 1.0131(3) 0.7019(7) 0.4232(2)
H92B H 1.0022 0.7834 0.4221
H93? H 0.4804 -0.4476 0.9348
H95? H 0.4917 -0.4380 0.9520
H96? H 0.5148 -0.4977 1.0020
H98? H 0.4170 -0.4984 0.9327
H102? H 0.9848 -0.0075 1.0665
H104? H 0.9474 -0.1299 0.9523
H105? H 0.9747 -0.0130 0.9303
H106? H 0.9171 -0.0104 0.9389
loop_
_geom_bond_atom_site_label_1
_geom_bond_atom_site_label_2
_geom_bond_site_symmetry_1
_geom_bond_site_symmetry_2
Ni1 O7 1_555 1_555
O1 Ni2 1_555 1_555
N1 Ni2 1_555 1_555
C1 H1 1_555 1_555
Ni2 O2 1_555 1_555
O2 C25 1_555 1_555
N2 Ni2 1_555 1_555
C2 C1 1_555 1_555
H2 C2 1_555 1_555
Ni3 O5 1_555 1_555
O3 Ni4 1_555 1_555
N3 C1 1_555 1_555
C3 C2 1_555 1_555
Ni4 O4 1_555 1_555
O4 C39 1_555 1_555
N4 Ni4 1_555 1_555
C4 C3 1_555 1_555
H3 C4 1_555 1_555
O5 C54 1_555 1_555
N5 C46 1_555 1_555
C5 N3 1_555 1_555
H4 C5 1_555 1_555
O6 Ni3 1_555 1_555
N6 Ni3 1_555 1_555
C6 C3 1_555 1_555
O7 C84 1_555 1_555
N7 Ni3 1_555 1_555
C7 C6 1_555 1_555
H5 C7 1_555 1_555
O8 Ni1 1_555 1_555
N8 Ni1 1_555 1_555
C8 C7 1_555 1_555
C9 O1 1_555 1_555
C10 C9 1_555 1_555
C11 C6 1_555 1_555
H6 C11 1_555 1_555
C12 C8 1_555 1_555
C13 C12 1_555 1_555
H7 C13 1_555 1_555
H8 C13 1_555 1_555
H9 C13 1_555 1_555
C14 C12 1_555 1_555
H10 C14 1_555 1_555
H11 C14 1_555 1_555
H12 C14 1_555 1_555
C15 C12 1_555 1_555
H13 C15 1_555 1_555
H14 C15 1_555 1_555
H15 C15 1_555 1_555
C16 N1 1_555 1_555
H16 C16 1_555 1_555
C17 N1 1_555 1_555
H17 C17 1_555 1_555
C18 N2 1_555 1_555
H18 C18 1_555 1_555
C19 C18 1_555 1_555
H19 C19 1_555 1_555
H20 C19 1_555 1_555
C20 C19 1_555 1_555
H21 C20 1_555 1_555
H22 C20 1_555 1_555
C21 C20 1_555 1_555
H23 C21 1_555 1_555
H24 C21 1_555 1_555
C22 C17 1_555 1_555
H25 C22 1_555 1_555
H26 C22 1_555 1_555
C23 N2 1_555 1_555
H27 C23 1_555 1_555
C24 C23 1_555 1_555
C25 C24 1_555 1_555
C26 C25 1_555 1_555
C27 C26 1_555 1_555
H28 C27 1_555 1_555
C28 C27 1_555 1_555
C29 C24 1_555 1_555
H29 C29 1_555 1_555
C30 C26 1_555 1_555
C31 C30 1_555 1_555
H30 C31 1_555 1_555
H31 C31 1_555 1_555
H32 C31 1_555 1_555
C32 C30 1_555 1_555
H33 C32 1_555 1_555
H34 C32 1_555 1_555
H35 C32 1_555 1_555
C33 C30 1_555 1_555
H36 C33 1_555 1_555
H37 C33 1_555 1_555
H38 C33 1_555 1_555
C34 C28 1_555 1_555
C35 C34 1_555 1_555
H39 C35 1_555 1_555
C36 N4 1_555 1_555
H40 C36 1_555 1_555
C37 N4 1_555 1_555
H41 C37 1_555 1_555
C38 C34 1_555 1_555
H42 C38 1_555 1_555
C39 O3 1_555 1_555
C40 C39 1_555 1_555
C41 C40 1_555 1_555
H43 C41 1_555 1_555
C42 C41 1_555 1_555
H44 C42 1_555 1_555
C43 C42 1_555 1_555
C44 C43 1_555 1_555
H45 C44 1_555 1_555
C45 C40 1_555 1_555
H46 C45 1_555 1_555
C46 H47 1_555 1_555
C47 C46 1_555 1_555
H48 C47 1_555 1_555
C48 C47 1_555 1_555
C49 C48 1_555 1_555
H49 C49 1_555 1_555
C50 N5 1_555 1_555
H50 C50 1_555 1_555
C51 C48 1_555 1_555
C52 C51 1_555 1_555
H51 C52 1_555 1_555
C53 C52 1_555 1_555
C54 C53 1_555 1_555
C55 C54 1_555 1_555
C56 C51 1_555 1_555
H52 C56 1_555 1_555
C57 C53 1_555 1_555
C58 C57 1_555 1_555
H53 C58 1_555 1_555
H54 C58 1_555 1_555
H55 C58 1_555 1_555
C59 C57 1_555 1_555
H56 C59 1_555 1_555
H57 C59 1_555 1_555
H58 C59 1_555 1_555
C60 C57 1_555 1_555
H59 C60 1_555 1_555
H60 C60 1_555 1_555
H61 C60 1_555 1_555
C61 N6 1_555 1_555
H62 C61 1_555 1_555
C62 N6 1_555 1_555
H63 C62 1_555 1_555
C63 N7 1_555 1_555
H64 C63 1_555 1_555
C64 C63 1_555 1_555
H65 C64 1_555 1_555
H66 C64 1_555 1_555
C65 C64 1_555 1_555
H67 C65 1_555 1_555
H68 C65 1_555 1_555
C66 C65 1_555 1_555
H69 C66 1_555 1_555
H70 C66 1_555 1_555
C67 C62 1_555 1_555
H71 C67 1_555 1_555
H72 C67 1_555 1_555
C68 N7 1_555 1_555
H73 C68 1_555 1_555
C69 C68 1_555 1_555
C70 C69 1_555 1_555
H74 C70 1_555 1_555
C71 C70 1_555 1_555
C72 C71 1_555 1_555
H75 C72 1_555 1_555
C73 C72 1_555 1_555
C74 O6 1_555 1_555
C75 C73 1_555 1_555
C76 C75 1_555 1_555
H76 C76 1_555 1_555
H77 C76 1_555 1_555
H78 C76 1_555 1_555
C77 C75 1_555 1_555
H79 C77 1_555 1_555
H80 C77 1_555 1_555
H81 C77 1_555 1_555
C78 C75 1_555 1_555
H82 C78 1_555 1_555
H83 C78 1_555 1_555
H84 C78 1_555 1_555
C79 C71 1_555 1_555
C80 C79 1_555 1_555
H85 C80 1_555 1_555
C81 N8 1_555 1_555
H86 C81 1_555 1_555
C82 N8 1_555 1_555
H87 C82 1_555 1_555
C83 C79 1_555 1_555
H88 C83 1_555 1_555
C84 O8 1_555 1_555
C85 C84 1_555 1_555
C86 C85 1_555 1_555
H89 C86 1_555 1_555
C87 C86 1_555 1_555
H90 C87 1_555 1_555
C88 C87 1_555 1_555
C89 C88 1_555 1_555
H91 C89 1_555 1_555
C90 C85 1_555 1_555
H92 C90 1_555 1_555
N9 C91 1_555 1_555
O9 C91 1_555 1_555
C91 C92B 1_555 1_555
C92 N9 1_555 1_555
H94 C92 1_555 1_555
C93 N9 1_555 1_555
H97 C93 1_555 1_555
H99 C93 1_555 1_555
N10 C94 1_555 1_555
O10 C94 1_555 1_555
C94 H100 1_555 1_555
C95 N10 1_555 1_555
H101 C95 1_555 1_555
H103 C95 1_555 1_555
C96 N10 1_555 1_555
Ni1A O7B 1_555 1_555
O1C Ni2C 1_555 1_555
N1C Ni2C 1_555 1_555
C1C H1C 1_555 1_555
Ni2C O2C 1_555 1_555
O2C C25C 1_555 1_555
N2C Ni2C 1_555 1_555
C2C C1C 1_555 1_555
H2C C2C 1_555 1_555
Ni3C O5C 1_555 1_555
O3B Ni4A 1_555 1_555
O3C Ni4 1_555 1_555
N3C C1C 1_555 1_555
C3C C2C 1_555 1_555
Ni4A O4B 1_555 1_555
O4B C39B 1_555 1_555
O4C Ni4 1_555 1_555
N4C Ni4 1_555 1_555
C4C C3C 1_555 1_555
H3C C4C 1_555 1_555
O5C C54C 1_555 1_555
N5C C46C 1_555 1_555
C5C N3C 1_555 1_555
H4C C5C 1_555 1_555
O6C Ni3C 1_555 1_555
N6C Ni3C 1_555 1_555
C6C C3C 1_555 1_555
O7B C84B 1_555 1_555
O7C Ni1 1_555 1_555
N7C Ni3C 1_555 1_555
C7C C6C 1_555 1_555
H5C C7C 1_555 1_555
O8B Ni1A 1_555 1_555
O8C Ni1 1_555 1_555
N8C Ni1 1_555 1_555
C8C C7C 1_555 1_555
C9C O1C 1_555 1_555
C10C C9C 1_555 1_555
C11C C6C 1_555 1_555
H6C C11C 1_555 1_555
C12C C8C 1_555 1_555
C13C C12C 1_555 1_555
H7C C13C 1_555 1_555
H8C C13C 1_555 1_555
H9C C13C 1_555 1_555
C14C C12C 1_555 1_555
H10C C14C 1_555 1_555
H11C C14C 1_555 1_555
H12C C14C 1_555 1_555
C15C C12C 1_555 1_555
H13C C15C 1_555 1_555
H14C C15C 1_555 1_555
H15C C15C 1_555 1_555
C16C N1C 1_555 1_555
H16C C16C 1_555 1_555
C17C N1C 1_555 1_555
H17C C17C 1_555 1_555
C18C N2C 1_555 1_555
H18C C18C 1_555 1_555
C19C C18C 1_555 1_555
H19C C19C 1_555 1_555
H20C C19C 1_555 1_555
C20C C19C 1_555 1_555
H21C C20C 1_555 1_555
H22C C20C 1_555 1_555
C21C C20C 1_555 1_555
H23C C21C 1_555 1_555
H24C C21C 1_555 1_555
C22C C17C 1_555 1_555
H25C C22C 1_555 1_555
H26C C22C 1_555 1_555
C23C N2C 1_555 1_555
H27C C23C 1_555 1_555
C24C C23C 1_555 1_555
C25C C24C 1_555 1_555
C26C C25C 1_555 1_555
C27C C26C 1_555 1_555
H28C C27C 1_555 1_555
C28C C27C 1_555 1_555
C29C C24C 1_555 1_555
H29C C29C 1_555 1_555
C30C C26C 1_555 1_555
C31C C30C 1_555 1_555
H30C C31C 1_555 1_555
H31C C31C 1_555 1_555
H32C C31C 1_555 1_555
C32C C30C 1_555 1_555
H33C C32C 1_555 1_555
H34C C32C 1_555 1_555
H35C C32C 1_555 1_555
C33C C30C 1_555 1_555
H36C C33C 1_555 1_555
H37C C33C 1_555 1_555
H38C C33C 1_555 1_555
C34C C28C 1_555 1_555
C35C C34C 1_555 1_555
H39C C35C 1_555 1_555
C36C N4C 1_555 1_555
H40C C36C 1_555 1_555
C37C N4C 1_555 1_555
H41C C37C 1_555 1_555
C38C C34C 1_555 1_555
H42C C38C 1_555 1_555
C39B O3B 1_555 1_555
C40B C39B 1_555 1_555
C41B C40B 1_555 1_555
H43B C41B 1_555 1_555
C42B C41B 1_555 1_555
H44B C42B 1_555 1_555
C43B C43 1_555 1_555
C44B C43B 1_555 1_555
H45B C44B 1_555 1_555
C45B C40B 1_555 1_555
H46B C45B 1_555 1_555
C46C H47C 1_555 1_555
C47C C46C 1_555 1_555
H48C C47C 1_555 1_555
C48C C47C 1_555 1_555
C49C C48C 1_555 1_555
H49C C49C 1_555 1_555
C50C N5C 1_555 1_555
H50C C50C 1_555 1_555
C51C C48C 1_555 1_555
C52C C51C 1_555 1_555
H51C C52C 1_555 1_555
C53C C52C 1_555 1_555
C54C C53C 1_555 1_555
C55C C54C 1_555 1_555
C56C C51C 1_555 1_555
H52C C56C 1_555 1_555
C57C C53C 1_555 1_555
C58C C57C 1_555 1_555
H53C C58C 1_555 1_555
H54C C58C 1_555 1_555
H55C C58C 1_555 1_555
C59C C57C 1_555 1_555
H56C C59C 1_555 1_555
H57C C59C 1_555 1_555
H58C C59C 1_555 1_555
C60C C57C 1_555 1_555
H59C C60C 1_555 1_555
H60C C60C 1_555 1_555
H61C C60C 1_555 1_555
C61C N6C 1_555 1_555
H62C C61C 1_555 1_555
C62C N6C 1_555 1_555
H63C C62C 1_555 1_555
C63C N7C 1_555 1_555
H64C C63C 1_555 1_555
C64C C63C 1_555 1_555
H65C C64C 1_555 1_555
H66C C64C 1_555 1_555
C65C C64C 1_555 1_555
H67C C65C 1_555 1_555
H68C C65C 1_555 1_555
C66C C65C 1_555 1_555
H69C C66C 1_555 1_555
H70C C66C 1_555 1_555
C67C C62C 1_555 1_555
H71C C67C 1_555 1_555
H72C C67C 1_555 1_555
C68C N7C 1_555 1_555
H73C C68C 1_555 1_555
C69C C68C 1_555 1_555
C70C C69C 1_555 1_555
H74C C70C 1_555 1_555
C71C C70C 1_555 1_555
C72C C71C 1_555 1_555
H75C C72C 1_555 1_555
C73C C72C 1_555 1_555
C74C O6C 1_555 1_555
C75C C73C 1_555 1_555
C76C C75C 1_555 1_555
H76C C76C 1_555 1_555
H77C C76C 1_555 1_555
H78C C76C 1_555 1_555
C77C C75C 1_555 1_555
H79C C77C 1_555 1_555
H80C C77C 1_555 1_555
H81C C77C 1_555 1_555
C78C C75C 1_555 1_555
H82C C78C 1_555 1_555
H83C C78C 1_555 1_555
H84C C78C 1_555 1_555
C79C C71C 1_555 1_555
C80C C79C 1_555 1_555
H85C C80C 1_555 1_555
C81C N8C 1_555 1_555
H86C C81C 1_555 1_555
C82C N8C 1_555 1_555
H87C C82C 1_555 1_555
C83C C79C 1_555 1_555
H88C C83C 1_555 1_555
C84B O8B 1_555 1_555
C85B C84B 1_555 1_555
C86B C85B 1_555 1_555
H89B C86B 1_555 1_555
C87B C86B 1_555 1_555
H90B C87B 1_555 1_555
C88B C88 1_555 1_555
C89B C88B 1_555 1_555
H91B C89B 1_555 1_555
C90B C85B 1_555 1_555
H92B C90B 1_555 1_555
O9B C93 1_555 1_555
C91B N9 1_555 1_555
C92B N9 1_555 1_555
H94B C92B 1_555 1_555
C93B N9 1_555 1_555
H97B C93B 1_555 1_555
H99B C93B 1_555 1_555
O10B C96 1_555 1_555
C94B N10 1_555 1_555
H100B C94B 1_555 1_555
C95B N10 1_555 1_555
H101B C95B 1_555 1_555
H103B C95B 1_555 1_555
C96B N10 1_555 1_555
C4 C5 1_555 1_555
C8 C9 1_555 1_555
C10 C11 1_555 1_555
C10 C16 1_555 1_555
C17 C18 1_555 1_555
C21 C22 1_555 1_555
C28 C29 1_555 1_555
C35 C36 1_555 1_555
C37 C38 1_555 1_555
C44 C45 1_555 1_555
C49 C50 1_555 1_555
C55 C56 1_555 1_555
C55 C61 1_555 1_555
C62 C63 1_555 1_555
C66 C67 1_555 1_555
C69 C74 1_555 1_555
C73 C74 1_555 1_555
C80 C81 1_555 1_555
C82 C83 1_555 1_555
C89 C90 1_555 1_555
O9 C93B 1_555 1_555
C91 C93B 1_555 1_555
C92 C91B 1_555 1_555
C92 C92B 1_555 1_555
C93 C91B 1_555 1_555
C93 C93B 1_555 1_555
O10 C96B 1_555 1_555
C94 C96B 1_555 1_555
C95 C95B 1_555 1_555
C95 C96B 1_555 1_555
C96 C94B 1_555 1_555
C96 C95B 1_555 1_555
C4C C5C 1_555 1_555
C8C C9C 1_555 1_555
C10C C11C 1_555 1_555
C10C C16C 1_555 1_555
C17C C18C 1_555 1_555
C21C C22C 1_555 1_555
C28C C29C 1_555 1_555
C35C C36C 1_555 1_555
C37C C38C 1_555 1_555
C42B C43B 1_555 1_555
C44B C45B 1_555 1_555
C49C C50C 1_555 1_555
C55C C56C 1_555 1_555
C55C C61C 1_555 1_555
C62C C63C 1_555 1_555
C66C C67C 1_555 1_555
C69C C74C 1_555 1_555
C73C C74C 1_555 1_555
C80C C81C 1_555 1_555
C82C C83C 1_555 1_555
C87B C88B 1_555 1_555
C89B C90B 1_555 1_555
O9B C91B 1_555 1_555
O10B C94B 1_555 1_555

#END
