
#######################################################################
#
#                 Cambridge Crystallographic Data Centre
#                                CCDC 
#
#######################################################################
#
# If this CIF has been generated from an entry in the Cambridge 
# Structural Database, then it will include bibliographic, chemical, 
# crystal, experimental, refinement or atomic coordinate data resulting 
# from the CCDC's data processing and validation procedures.
#
#######################################################################

data_OWUVOS
_symmetry_cell_setting           monoclinic
_symmetry_space_group_name_H-M   'P 21'
_symmetry_Int_Tables_number      4
_space_group_name_Hall           'P 2yb'
loop_
_symmetry_equiv_pos_site_id
_symmetry_equiv_pos_as_xyz
1 x,y,z
2 -x,1/2+y,-z
_cell_length_a                   9.784(2)
_cell_length_b                   11.919(3)
_cell_length_c                   16.041(4)
_cell_angle_alpha                90
_cell_angle_beta                 93.540(10)
_cell_angle_gamma                90
_cell_volume                     1867.06
loop_
_atom_site_label
_atom_site_type_symbol
_atom_site_fract_x
_atom_site_fract_y
_atom_site_fract_z
K1 K 0.68786(7) 0.11155(6) 0.56623(4)
S1 S 0.82545(10) -0.16450(11) 0.66524(6)
O1 O 0.7937(2) 0.32984(17) 0.55522(13)
O2 O 1.1698(3) 0.13947(18) 0.61224(15)
O3 O 1.1636(3) 0.3033(2) 0.74876(14)
O4 O 0.9846(3) 0.44659(18) 0.57181(14)
O5 O 0.3764(3) 0.43476(19) 0.53766(15)
O6 O 0.5831(3) 0.53969(18) 0.43844(15)
O7 O 0.5682(3) 0.23774(18) 0.41892(15)
O8 O 0.9392(3) 0.16135(18) 0.49298(14)
O9 O 0.5162(3) 0.29154(17) 0.58068(14)
O10 O 1.1673(3) 0.5842(2) 0.66909(16)
O11 O 0.7536(4) 0.1611(3) 0.72959(18)
N1 N 1.0733(4) -0.0475(3) 0.6901(2)
C1 C 1.0158(3) 0.4198(3) 0.65875(19)
C2 C 1.1271(3) 0.3298(3) 0.66361(19)
C3 C 0.6952(4) 0.4196(3) 0.54586(19)
C4 C 0.9223(3) 0.3573(3) 0.52551(18)
C5 C 0.5869(3) 0.3929(3) 0.60725(19)
C6 C 0.9701(4) -0.0955(3) 0.6796(2)
C7 C 0.4311(3) 0.3303(3) 0.51232(19)
C8 C 0.6347(3) 0.4291(3) 0.45488(19)
C9 C 1.0136(3) 0.2536(3) 0.53112(19)
C10 C 0.4703(4) 0.4781(3) 0.6046(2)
C11 C 1.0530(4) 0.5294(3) 0.7021(2)
C12 C 0.5158(3) 0.3459(3) 0.43688(19)
C13 C 0.7730(5) 0.0914(4) 0.8002(3)
C14 C 1.0685(3) 0.2252(3) 0.61891(19)
H1 H 0.9335 0.3893 0.6823
H2 H 1.2074 0.3566 0.6359
H3 H 0.7400 0.4904 0.5623
H4 H 0.9090 0.3804 0.4669
H5 H 0.6283 0.3848 0.6641
H6 H 0.3569 0.2768 0.4993
H7 H 0.7069 0.4135 0.4168
H8 H 1.0923 0.2683 0.4978
H9 H 0.4992 0.5533 0.5907
H10 H 0.4236 0.4803 0.6561
H11 H 1.0782 0.5182 0.7609
H12 H 0.9782 0.5829 0.6964
H13 H 0.4570 0.3726 0.3893
H14 H 0.9933 0.1958 0.6501
H15 H 1.1454 0.6076 0.6221
H16 H 0.8635 0.1017 0.8256
H17 H 0.7068 0.1098 0.8398
H18 H 0.7614 0.0146 0.7832
H19 H 1.1596 0.0916 0.6480
H20 H 1.2379 0.3318 0.7624
H21 H 0.7599 0.2255 0.7476
H22 H 0.5829 0.2449 0.3683
H23 H 0.9986 0.1031 0.4970
H24 H 0.6497 0.5847 0.4300
K1A K 0.31214(7) 0.61155(6) 0.43377(4)
O5A O 0.6236(3) -0.06524(19) 0.46234(15)
O6A O 0.4169(3) 0.03969(18) 0.56156(15)
H24A H 0.3503 0.0847 0.5700
K2 K 0.76783(8) 0.52068(6) 1.01699(4)
S2 S 0.71502(10) 0.39357(11) 0.83696(7)
O12 O 0.5080(3) 0.36933(17) 1.07581(13)
O13 O 0.6912(3) 0.0611(2) 1.12350(19)
O14 O 0.3315(3) 0.23645(18) 1.05171(14)
O15 O -0.0956(3) 0.3162(2) 1.04719(14)
O16 O 0.1032(3) 0.1852(2) 0.89118(14)
O17 O 0.5000(3) 0.0939(2) 0.97875(17)
O18 O 0.6408(3) 0.2159(3) 1.25971(16)
O19 O 0.7189(3) 0.4792(2) 1.17703(15)
O20 O 0.0539(3) 0.17072(19) 1.05889(14)
O21 O 0.1110(4) 0.4669(2) 0.97867(19)
N2 N 0.4306(4) 0.3715(3) 0.80650(19)
C15 C 0.6332(4) 0.2447(3) 1.1738(2)
C16 C 0.5859(4) 0.1451(3) 1.1202(3)
C17 C 0.5892(4) 0.4496(3) 1.2053(2)
C18 C 0.2239(4) 0.3183(3) 1.0564(2)
C19 C 0.1634(4) 0.3562(3) 0.9695(2)
C20 C -0.0347(4) 0.2294(3) 1.0012(2)
C21 C 0.5580(4) 0.1810(3) 1.0300(3)
C22 C 0.4565(4) 0.2788(3) 1.0258(2)
C23 C -0.0062(4) 0.3355(3) 1.1213(2)
C24 C 0.0495(4) 0.2794(3) 0.9327(2)
C25 C 0.5483(4) 0.3798(3) 0.8191(2)
C26 C 0.1174(4) 0.2617(3) 1.1075(2)
C27 C 0.5336(3) 0.3431(3) 1.16337(18)
H25 H 0.7239 0.2686 1.1579
H26 H 0.5020 0.1138 1.1413
H27 H 0.6019 0.4415 1.2655
H28 H 0.5307 0.5138 1.1926
H29 H 0.2603 0.3843 1.0867
H30 H 0.2373 0.3584 0.9310
H31 H -0.1054 0.1788 0.9769
H32 H 0.6439 0.2056 1.0075
H33 H 0.4430 0.3042 0.9678
H34 H 0.0161 0.4147 1.1251
H35 H -0.0537 0.3135 1.1701
H36 H -0.0109 0.3223 0.8934
H37 H 0.1588 0.2339 1.1607
H38 H 0.4469 0.3228 1.1870
H39 H 0.7097 0.1782 1.2706
H40 H 0.1320 0.5057 0.9392
H41 H 0.6633 0.0047 1.1462
H42 H 0.1150 0.1999 0.8423
H43 H 0.7765 0.4770 1.2147
K2A K 0.23217(8) 0.02068(6) 0.98301(4)
K2_2 K -0.23217(8) 0.52068(6) 1.01699(4)
O14A O 0.6685(3) 0.73645(18) 0.94829(14)
O15_2 O 0.9044(3) 0.3162(2) 1.04719(14)
O16A O 0.8968(3) 0.6852(2) 1.10882(14)
O17A O 0.5000(3) 0.5939(2) 1.02125(17)
O20A O 0.9461(3) 0.67072(19) 0.94111(14)
O21_2 O 1.1110(4) 0.4669(2) 0.97867(19)
H40_2 H 1.1320 0.5057 0.9392
H42A H 0.8850 0.6999 1.1577
loop_
_geom_bond_atom_site_label_1
_geom_bond_atom_site_label_2
_geom_bond_site_symmetry_1
_geom_bond_site_symmetry_2
K1 S1 1_555 1_555
S1 C6 1_555 1_555
O1 K1 1_555 1_555
O2 C14 1_555 1_555
O3 C2 1_555 1_555
O4 C1 1_555 1_555
O5 C7 1_555 1_555
O6 C8 1_555 1_555
O7 K1 1_555 1_555
O8 K1 1_555 1_555
O9 K1 1_555 1_555
O10 C11 1_555 1_555
O11 K1 1_555 1_555
N1 C6 1_555 1_555
C1 C2 1_555 1_555
C2 C14 1_555 1_555
C3 O1 1_555 1_555
C4 O1 1_555 1_555
C5 O9 1_555 1_555
C7 O9 1_555 1_555
C8 C3 1_555 1_555
C9 O8 1_555 1_555
C10 O5 1_555 1_555
C11 C1 1_555 1_555
C12 O7 1_555 1_555
C13 O11 1_555 1_555
C14 C9 1_555 1_555
H1 C1 1_555 1_555
H2 C2 1_555 1_555
H3 C3 1_555 1_555
H4 C4 1_555 1_555
H5 C5 1_555 1_555
H6 C7 1_555 1_555
H7 C8 1_555 1_555
H8 C9 1_555 1_555
H9 C10 1_555 1_555
H10 C10 1_555 1_555
H11 C11 1_555 1_555
H12 C11 1_555 1_555
H13 C12 1_555 1_555
H14 C14 1_555 1_555
H15 O10 1_555 1_555
H16 C13 1_555 1_555
H17 C13 1_555 1_555
H18 C13 1_555 1_555
H19 O2 1_555 1_555
H20 O3 1_555 1_555
H21 O11 1_555 1_555
H22 O7 1_555 1_555
H23 O8 1_555 1_555
H24 O6 1_555 1_555
K2 S2 1_555 1_555
S2 C25 1_555 1_555
O12 K2 1_555 1_555
O13 C16 1_555 1_555
O14 C18 1_555 1_555
O15 C20 1_555 1_555
O16 C24 1_555 1_555
O17 C21 1_555 1_555
O18 C15 1_555 1_555
O19 K2 1_555 1_555
O20 C20 1_555 1_555
O21 C19 1_555 1_555
N2 C25 1_555 1_555
C15 C16 1_555 1_555
C16 C21 1_555 1_555
C17 O19 1_555 1_555
C18 C19 1_555 1_555
C19 C24 1_555 1_555
C20 C24 1_555 1_555
C21 C22 1_555 1_555
C22 O12 1_555 1_555
C23 O15 1_555 1_555
C24 H36 1_555 1_555
C26 O20 1_555 1_555
C27 O12 1_555 1_555
H25 C15 1_555 1_555
H26 C16 1_555 1_555
H27 C17 1_555 1_555
H28 C17 1_555 1_555
H29 C18 1_555 1_555
H30 C19 1_555 1_555
H31 C20 1_555 1_555
H32 C21 1_555 1_555
H33 C22 1_555 1_555
H34 C23 1_555 1_555
H35 C23 1_555 1_555
H37 C26 1_555 1_555
H38 C27 1_555 1_555
H39 O18 1_555 1_555
H40 O21 1_555 1_555
H41 O13 1_555 1_555
H42 O16 1_555 1_555
H43 O19 1_555 1_555
K1A O5 1_555 1_555
O5A K1 1_555 1_555
O6A K1 1_555 1_555
H24A O6A 1_555 1_555
K2A O14 1_555 1_555
K2_2 O15 1_555 1_555
O14A K2 1_555 1_555
O15_2 K2 1_555 1_555
O16A K2 1_555 1_555
O17A K2 1_555 1_555
O20A K2 1_555 1_555
O21_2 K2 1_555 1_555
H40_2 O21_2 1_555 1_555
H42A O16A 1_555 1_555
O4 C4 1_555 1_555
O6 K1A 1_555 1_555
C3 C5 1_555 1_555
C4 C9 1_555 1_555
C5 C10 1_555 1_555
C7 C12 1_555 1_555
C8 C12 1_555 1_555
O14 C22 1_555 1_555
O16 K2A 1_555 1_555
O17 K2A 1_555 1_555
O20 K2A 1_555 1_555
O21 K2_2 1_555 1_555
C15 C27 1_555 1_555
C17 C27 1_555 1_555
C18 C26 1_555 1_555
C23 C26 1_555 1_555

#END
