
#######################################################################
#
#                 Cambridge Crystallographic Data Centre
#                                CCDC 
#
#######################################################################
#
# If this CIF has been generated from an entry in the Cambridge 
# Structural Database, then it will include bibliographic, chemical, 
# crystal, experimental, refinement or atomic coordinate data resulting 
# from the CCDC's data processing and validation procedures.
#
#######################################################################

data_OWUVUY
_symmetry_cell_setting           orthorhombic
_symmetry_space_group_name_H-M   'C 2 2 21'
_symmetry_Int_Tables_number      20
_space_group_name_Hall           'C 2n 2'
loop_
_symmetry_equiv_pos_site_id
_symmetry_equiv_pos_as_xyz
1 x,y,z
2 x,-y,-z
3 -x,y,1/2-z
4 -x,-y,1/2+z
5 1/2+x,1/2+y,z
6 1/2+x,1/2-y,-z
7 1/2-x,1/2+y,1/2-z
8 1/2-x,1/2-y,1/2+z
_cell_length_a                   7.3333(16)
_cell_length_b                   9.548(3)
_cell_length_c                   25.75130(10)
_cell_angle_alpha                90
_cell_angle_beta                 90
_cell_angle_gamma                90
_cell_volume                     1803.06
loop_
_atom_site_label
_atom_site_type_symbol
_atom_site_fract_x
_atom_site_fract_y
_atom_site_fract_z
Br1 Br 0.33405(2) 0.008440(19) 0.324869(5)
Na1 Na -0.75291(11) 0.0000 0.5000
Na2 Na 0.0000 0.00769(12) 0.2500
O1 O 0.0000 0.2476(2) 0.2500
O2 O 0.0000 -0.2297(3) 0.2500
O3 O -0.52865(15) -0.14202(14) 0.45817(4)
O4 O -0.23625(17) -0.33046(14) 0.43039(5)
O5 O 0.01451(18) -0.13433(15) 0.46093(5)
O6 O -0.33682(15) 0.02845(12) 0.43612(4)
O7 O -0.21433(16) 0.02078(15) 0.32054(4)
C1 C -0.3888(2) -0.1055(2) 0.43739(6)
C2 C -0.2496(2) -0.19552(19) 0.40877(6)
C3 C -0.0767(2) -0.1073(2) 0.41277(6)
C4 C -0.1503(2) 0.04167(17) 0.41378(6)
H1 H -0.0762 0.0978 0.4373
C5 C -0.1604(3) 0.11366(19) 0.36142(6)
H2 H 0.075(5) 0.296(3) 0.2344(13)
H3 H 0.053(3) -0.284(2) 0.2309(9)
H4 H -0.215(3) -0.380(3) 0.4082(9)
H5 H 0.004(4) -0.225(3) 0.4687(10)
H6 H -0.318(3) 0.021(2) 0.3191(7)
H7 H -0.297(2) -0.2009(19) 0.3702(7)
H8 H 0.013(3) -0.127(2) 0.3831(8)
H9 H -0.232(3) 0.200(2) 0.3629(7)
H10 H -0.034(3) 0.151(2) 0.3542(7)
Br1B Br -0.33405(2) 0.008440(19) 0.175131(5)
Na1D Na -0.25291(11) -0.5000 0.5000
Na1_2 Na 0.24709(11) 0.0000 0.5000
Na1D_2 Na -0.25291(11) 0.5000 0.5000
Na2A Na 0.0000 -0.00769(12) 0.7500
O3A O -0.52865(15) 0.14202(14) 0.54183(4)
O4A O -0.23625(17) 0.33046(14) 0.56961(5)
O4D O -0.73625(17) 0.16954(14) 0.43039(5)
O4E O -0.73625(17) -0.16954(14) 0.56961(5)
O5A O 0.01451(18) 0.13433(15) 0.53907(5)
O5_2 O -0.98549(18) -0.13433(15) 0.46093(5)
O5A_2 O -0.98549(18) 0.13433(15) 0.53907(5)
O6A O -0.33682(15) -0.02845(12) 0.56388(4)
O7A O -0.21433(16) -0.02078(15) 0.67946(4)
O7B O 0.21433(16) 0.02078(15) 0.17946(4)
C1A C -0.3888(2) 0.1055(2) 0.56261(6)
C2A C -0.2496(2) 0.19552(19) 0.59123(6)
C3A C -0.0767(2) 0.1073(2) 0.58723(6)
C4A C -0.1503(2) -0.04167(17) 0.58622(6)
H1A H -0.0762 -0.0978 0.5627
C5A C -0.1604(3) -0.11366(19) 0.63858(6)
H2B H -0.075(5) 0.296(3) 0.2656(13)
H3B H -0.053(3) -0.284(2) 0.2691(9)
H4A H -0.215(3) 0.380(3) 0.5918(9)
H4D H -0.715(3) 0.120(3) 0.4082(9)
H4E H -0.715(3) -0.120(3) 0.5918(9)
H5A H 0.004(4) 0.225(3) 0.5313(10)
H5_2 H -0.996(4) -0.225(3) 0.4687(10)
H5A_2 H -0.996(4) 0.225(3) 0.5313(10)
H6A H -0.318(3) -0.021(2) 0.6809(7)
H6B H 0.318(3) 0.021(2) 0.1809(7)
H7A H -0.297(2) 0.2009(19) 0.6298(7)
H8A H 0.013(3) 0.127(2) 0.6169(8)
H9A H -0.232(3) -0.200(2) 0.6371(7)
H10A H -0.034(3) -0.151(2) 0.6458(7)
loop_
_geom_bond_atom_site_label_1
_geom_bond_atom_site_label_2
_geom_bond_site_symmetry_1
_geom_bond_site_symmetry_2
Br1 Na2 1_555 1_555
Na1 O3 1_555 1_555
Na2 O1 1_555 1_555
O1 H2 1_555 1_555
O2 Na2 1_555 1_555
O3 C1 1_555 1_555
O4 C2 1_555 1_555
O5 C3 1_555 1_555
O6 C1 1_555 1_555
O7 Na2 1_555 1_555
C1 C2 1_555 1_555
C2 C3 1_555 1_555
C3 C4 1_555 1_555
C4 O6 1_555 1_555
H1 C4 1_555 1_555
C5 O7 1_555 1_555
H3 O2 1_555 1_555
H4 O4 1_555 1_555
H5 O5 1_555 1_555
H6 O7 1_555 1_555
H7 C2 1_555 1_555
H8 C3 1_555 1_555
H9 C5 1_555 1_555
H10 C5 1_555 1_555
Br1B Na2 1_555 1_555
Na1D O4 1_555 1_555
Na1_2 O5 1_555 1_555
Na1D_2 O4A 1_555 1_555
Na2A O7A 1_555 1_555
O3A Na1 1_555 1_555
O4A C2A 1_555 1_555
O4D Na1 1_555 1_555
O4E Na1 1_555 1_555
O5A Na1_2 1_555 1_555
O5_2 Na1 1_555 1_555
O5A_2 Na1 1_555 1_555
O6A C1A 1_555 1_555
O7A C5A 1_555 1_555
O7B Na2 1_555 1_555
C1A O3A 1_555 1_555
C2A C1A 1_555 1_555
C3A O5A 1_555 1_555
C4A O6A 1_555 1_555
H1A C4A 1_555 1_555
C5A C4A 1_555 1_555
H2B O1 1_555 1_555
H3B O2 1_555 1_555
H4A O4A 1_555 1_555
H4D O4D 1_555 1_555
H4E O4E 1_555 1_555
H5A O5A 1_555 1_555
H5_2 O5_2 1_555 1_555
H5A_2 O5A_2 1_555 1_555
H6A O7A 1_555 1_555
H6B O7B 1_555 1_555
H7A C2A 1_555 1_555
H8A C3A 1_555 1_555
H9A C5A 1_555 1_555
H10A C5A 1_555 1_555
C4 C5 1_555 1_555
C2A C3A 1_555 1_555
C3A C4A 1_555 1_555

#END
