
#######################################################################
#
#                 Cambridge Crystallographic Data Centre
#                                CCDC 
#
#######################################################################
#
# If this CIF has been generated from an entry in the Cambridge 
# Structural Database, then it will include bibliographic, chemical, 
# crystal, experimental, refinement or atomic coordinate data resulting 
# from the CCDC's data processing and validation procedures.
#
#######################################################################

data_OWUWAF
_symmetry_cell_setting           triclinic
_symmetry_space_group_name_H-M   'P 1'
_symmetry_Int_Tables_number      1
_space_group_name_Hall           'P 1'
loop_
_symmetry_equiv_pos_site_id
_symmetry_equiv_pos_as_xyz
1 x,y,z
_cell_length_a                   6.0080(12)
_cell_length_b                   6.0473(11)
_cell_length_c                   11.4790(16)
_cell_angle_alpha                83.418(7)
_cell_angle_beta                 76.858(7)
_cell_angle_gamma                77.597(9)
_cell_volume                     395.705
loop_
_atom_site_label
_atom_site_type_symbol
_atom_site_fract_x
_atom_site_fract_y
_atom_site_fract_z
O1 O 0.7290(3) -0.2490(2) 0.46961(11)
O2 O 0.2257(2) -0.1864(2) 0.53855(13)
H1 H 0.124(5) -0.214(5) 0.593(3)
O3 O 0.2025(3) 0.2745(3) 0.47523(13)
H2 H 0.133(6) 0.188(6) 0.461(3)
O4 O 0.68200(18) 0.09846(18) 0.53059(10)
O5 O 0.7154(3) 0.3340(3) 0.73029(13)
H3 H 0.749(7) 0.304(6) 0.781(4)
C1 C 0.6063(2) -0.0894(2) 0.52131(13)
C2 C 0.3534(2) -0.0675(2) 0.58828(13)
H4 H 0.361(5) -0.121(5) 0.665(3)
C3 C 0.2695(2) 0.1899(2) 0.58574(15)
H5 H 0.152(4) 0.235(4) 0.647(2)
C4 C 0.4906(2) 0.2679(2) 0.59236(14)
H6 H 0.501(5) 0.409(5) 0.550(2)
C5 C 0.5044(3) 0.2752(4) 0.72134(16)
H7 H 0.369(5) 0.386(5) 0.762(3)
H8 H 0.500(4) 0.139(4) 0.762(2)
O6 O 1.0876(2) 0.0365(2) 0.27839(12)
O7 O 1.0231(2) 0.52215(19) 0.21885(11)
H9 H 1.064(5) 0.620(5) 0.165(3)
O8 O 0.5458(2) 0.5624(3) 0.28544(14)
H10 H 0.625(5) 0.623(5) 0.298(3)
O9 O 0.7466(2) 0.06343(18) 0.22739(11)
O10 O 0.7575(3) 0.2120(3) -0.03545(13)
H11 H 0.841(7) 0.112(6) -0.036(3)
C6 C 0.9330(2) 0.1448(2) 0.23233(13)
C7 C 0.9171(2) 0.3794(3) 0.16898(15)
H12 H 0.995(4) 0.361(4) 0.086(2)
C8 C 0.6561(2) 0.4610(2) 0.17610(14)
H13 H 0.623(5) 0.558(4) 0.110(2)
C9 C 0.5752(3) 0.2377(3) 0.17704(15)
H14 H 0.422(5) 0.239(4) 0.236(2)
C10 C 0.5628(3) 0.1739(3) 0.05576(18)
H15 H 0.551(5) 0.012(5) 0.070(3)
H16 H 0.420(5) 0.269(5) 0.034(3)
Na1 Na 1.14291(12) -0.34530(12) 0.37986(6)
O2_2 O 1.2257(2) -0.1864(2) 0.53855(13)
H1_2 H 1.124(5) -0.214(5) 0.593(3)
O3_2 O 1.2025(3) -0.7255(3) 0.47523(13)
H2_2 H 1.133(6) -0.812(6) 0.461(3)
O7_2 O 1.0231(2) -0.47785(19) 0.21885(11)
H9_2 H 1.064(5) -0.380(5) 0.165(3)
O8_2 O 1.5458(2) -0.4376(3) 0.28544(14)
H10_2 H 1.625(5) -0.377(5) 0.298(3)
Na1_2 Na 0.14291(12) -0.34530(12) 0.37986(6)
Na1_3 Na 0.14291(12) 0.65470(12) 0.37986(6)
Na1_4 Na 1.14291(12) 0.65470(12) 0.37986(6)
O11 O 0.8854(3) 0.7271(3) 0.72036(15)
H17 H 0.9032 0.7376 0.8022
H18 H 0.8369 0.5939 0.7004
I1 I 0.218420(4) -0.228101(4) 0.944400(4)
loop_
_geom_bond_atom_site_label_1
_geom_bond_atom_site_label_2
_geom_bond_site_symmetry_1
_geom_bond_site_symmetry_2
O1 C1 1_555 1_555
O2 H1 1_555 1_555
O3 H2 1_555 1_555
O4 C1 1_555 1_555
O5 H3 1_555 1_555
C1 C2 1_555 1_555
C2 O2 1_555 1_555
H4 C2 1_555 1_555
C3 O3 1_555 1_555
H5 C3 1_555 1_555
C4 O4 1_555 1_555
H6 C4 1_555 1_555
C5 O5 1_555 1_555
H7 C5 1_555 1_555
H8 C5 1_555 1_555
O6 C6 1_555 1_555
O7 H9 1_555 1_555
O8 H10 1_555 1_555
O9 C6 1_555 1_555
O10 H11 1_555 1_555
C6 C7 1_555 1_555
C7 O7 1_555 1_555
H12 C7 1_555 1_555
C8 O8 1_555 1_555
H13 C8 1_555 1_555
C9 O9 1_555 1_555
H14 C9 1_555 1_555
C10 O10 1_555 1_555
H15 C10 1_555 1_555
H16 C10 1_555 1_555
Na1 O1 1_555 1_555
O11 H17 1_555 1_555
H18 O11 1_555 1_555
O2_2 Na1 1_555 1_555
H1_2 O2_2 1_555 1_555
O3_2 Na1 1_555 1_555
H2_2 O3_2 1_555 1_555
O7_2 Na1 1_555 1_555
H9_2 O7_2 1_555 1_555
O8_2 Na1 1_555 1_555
H10_2 O8_2 1_555 1_555
Na1_2 O2 1_555 1_555
Na1_3 O3 1_555 1_555
Na1_4 O7 1_555 1_555
C2 C3 1_555 1_555
C3 C4 1_555 1_555
C4 C5 1_555 1_555
O6 Na1 1_555 1_555
O8 Na1_3 1_555 1_555
C7 C8 1_555 1_555
C8 C9 1_555 1_555
C9 C10 1_555 1_555

#END
