
#######################################################################
#
#                 Cambridge Crystallographic Data Centre
#                                CCDC 
#
#######################################################################
#
# If this CIF has been generated from an entry in the Cambridge 
# Structural Database, then it will include bibliographic, chemical, 
# crystal, experimental, refinement or atomic coordinate data resulting 
# from the CCDC's data processing and validation procedures.
#
#######################################################################

data_OWUWEJ
_symmetry_cell_setting           monoclinic
_symmetry_space_group_name_H-M   'P 21'
_symmetry_Int_Tables_number      4
_space_group_name_Hall           'P 2yb'
loop_
_symmetry_equiv_pos_site_id
_symmetry_equiv_pos_as_xyz
1 x,y,z
2 -x,1/2+y,-z
_cell_length_a                   7.1795(13)
_cell_length_b                   6.0318(10)
_cell_length_c                   10.8500(16)
_cell_angle_alpha                90
_cell_angle_beta                 96.192(8)
_cell_angle_gamma                90
_cell_volume                     467.121
loop_
_atom_site_label
_atom_site_type_symbol
_atom_site_fract_x
_atom_site_fract_y
_atom_site_fract_z
Br1 Br 0.48859(2) 0.66844(6) 0.371256(15)
Na1 Na 0.90274(12) 0.54587(14) 0.43986(8)
O1 O 0.8788(2) 0.4474(2) 0.19961(14)
O2 O 1.16089(19) 0.2979(3) 0.39100(13)
H1 H 1.2604 0.3716 0.4036
O3 O 1.0666(2) -0.1452(2) 0.35852(14)
H2 H 1.1535 -0.1842 0.3544
O4 O 0.79762(17) 0.1539(4) 0.39863(12)
H3 H 0.6935 0.1169 0.4208
O5 O 0.73027(18) 0.1828(4) 0.06466(12)
C1 C 1.0635(3) 0.3831(4) 0.1742(2)
H4 H 1.138(4) 0.527(5) 0.184(3)
H5 H 1.060(4) 0.320(5) 0.095(3)
C2 C 1.1436(3) 0.2105(3) 0.26763(18)
H6 H 1.267(3) 0.172(9) 0.249(2)
C3 C 1.0125(3) 0.0097(3) 0.26289(18)
H7 H 1.011(4) -0.059(5) 0.187(3)
C4 C 0.8103(3) 0.0786(3) 0.27435(18)
H8 H 0.728(4) -0.038(6) 0.253(3)
C5 C 0.7493(3) 0.2674(3) 0.18559(19)
H9 H 0.626(4) 0.320(5) 0.203(2)
C6 C 0.6344(4) 0.3353(4) -0.0214(2)
H10 H 0.5099 0.3670 0.0036
H11 H 0.6212 0.2698 -0.1046
H12 H 0.7063 0.4732 -0.0221
Na1A Na 1.09726(12) 0.04587(14) 0.56014(8)
Na1_2 Na 0.90274(12) -0.45413(14) 0.43986(8)
O2A O 0.83911(19) 0.7979(3) 0.60900(13)
H1A H 0.7396 0.8716 0.5964
O3_2 O 1.0666(2) 0.8548(2) 0.35852(14)
O3A O 0.9334(2) 0.3548(2) 0.64148(14)
H2_2 H 1.1535 0.8158 0.3544
H2A H 0.8465 0.3158 0.6456
loop_
_geom_bond_atom_site_label_1
_geom_bond_atom_site_label_2
_geom_bond_site_symmetry_1
_geom_bond_site_symmetry_2
Na1 O1 1_555 1_555
O1 C1 1_555 1_555
O2 Na1 1_555 1_555
H1 O2 1_555 1_555
O3 H2 1_555 1_555
O4 Na1 1_555 1_555
H3 O4 1_555 1_555
O5 C5 1_555 1_555
C1 H4 1_555 1_555
H5 C1 1_555 1_555
C2 O2 1_555 1_555
H6 C2 1_555 1_555
C3 O3 1_555 1_555
H7 C3 1_555 1_555
C4 O4 1_555 1_555
H8 C4 1_555 1_555
C5 O1 1_555 1_555
H9 C5 1_555 1_555
C6 O5 1_555 1_555
H10 C6 1_555 1_555
H11 C6 1_555 1_555
H12 C6 1_555 1_555
Na1A O2 1_555 1_555
Na1_2 O3 1_555 1_555
O2A Na1 1_555 1_555
H1A O2A 1_555 1_555
O3_2 Na1 1_555 1_555
O3A Na1 1_555 1_555
H2_2 O3_2 1_555 1_555
H2A O3A 1_555 1_555
O3 Na1A 1_555 1_555
C1 C2 1_555 1_555
C2 C3 1_555 1_555
C3 C4 1_555 1_555
C4 C5 1_555 1_555
Na1A O3A 1_555 1_555

#END
