
#######################################################################
#
#                 Cambridge Crystallographic Data Centre
#                                CCDC 
#
#######################################################################
#
# If this CIF has been generated from an entry in the Cambridge 
# Structural Database, then it will include bibliographic, chemical, 
# crystal, experimental, refinement or atomic coordinate data resulting 
# from the CCDC's data processing and validation procedures.
#
#######################################################################

data_OXADEX
_symmetry_cell_setting           monoclinic
_symmetry_space_group_name_H-M   'C 2/c'
_symmetry_Int_Tables_number      15
_space_group_name_Hall           '-C 2yn'
loop_
_symmetry_equiv_pos_site_id
_symmetry_equiv_pos_as_xyz
1 x,y,z
2 -x,y,1/2-z
3 1/2+x,1/2+y,z
4 1/2-x,1/2+y,1/2-z
5 -x,-y,-z
6 x,-y,1/2+z
7 1/2-x,1/2-y,-z
8 1/2+x,1/2-y,1/2+z
_cell_length_a                   20.103(4)
_cell_length_b                   18.970(4)
_cell_length_c                   6.3120(13)
_cell_angle_alpha                90
_cell_angle_beta                 105.13(3)
_cell_angle_gamma                90
_cell_volume                     2323.67
loop_
_atom_site_label
_atom_site_type_symbol
_atom_site_fract_x
_atom_site_fract_y
_atom_site_fract_z
C1 C 0.4663(6) 0.2939(6) 0.476(2)
C2 C 0.3977(5) 0.2543(6) 0.398(2)
H1 H 0.3654 0.2767 0.4674
H2 H 0.3808 0.2630 0.2416
C3 C 0.3929(5) 0.1771(6) 0.4309(19)
C4 C 0.6717(5) 0.1095(6) 0.6017(18)
C5 C 0.7478(5) 0.1045(6) 0.675(2)
H3 H 0.7658 0.1362 0.5825
H4 H 0.7617 0.1234 0.8224
C6 C 0.7851(6) 0.0341(7) 0.678(4)
N1 N 0.4496(4) 0.1404(5) 0.5072(16)
N2 N 0.6342(4) 0.0534(5) 0.5365(17)
O1 O 0.4618(4) 0.3582(4) 0.4962(15)
O2 O 0.5256(4) 0.2625(4) 0.5243(15)
O3 O 0.4351(3) 0.0680(4) 0.5332(14)
O4 O 0.3332(4) 0.1478(4) 0.3849(13)
O5 O 0.6438(4) 0.1714(4) 0.6007(13)
O6 O 0.5639(4) 0.0691(4) 0.4645(14)
O7 O 0.8475(6) 0.0392(6) 0.695(4)
O8 O 0.7551(4) -0.0262(4) 0.6682(17)
O9 O 0.3057(4) 0.3072(5) 0.7525(17)
O10 O 0.5000 0.4739(8) 1.2500
Cu1 Cu 0.5000 0.0000 0.5000
Cu2 Cu 0.54378(6) 0.16490(7) 0.5286(2)
Cu3 Cu 0.65984(6) -0.04527(7) 0.5789(2)
K1 K 0.40314(14) 0.41206(16) 0.8130(7)
C1D C 0.5337(6) -0.2939(6) 0.524(2)
C2D C 0.6023(5) -0.2543(6) 0.602(2)
H1D H 0.6346 -0.2767 0.5326
H2D H 0.6192 -0.2630 0.7584
C3D C 0.6071(5) -0.1771(6) 0.5691(19)
C4D C 0.3283(5) -0.1095(6) 0.3983(18)
C5D C 0.2522(5) -0.1045(6) 0.325(2)
H3D H 0.2342 -0.1362 0.4175
H4D H 0.2383 -0.1234 0.1776
C6D C 0.2149(6) -0.0341(7) 0.322(4)
N1D N 0.5504(4) -0.1404(5) 0.4928(16)
N2D N 0.3658(4) -0.0534(5) 0.4635(17)
O1D O 0.5382(4) -0.3582(4) 0.5038(15)
O1A O 0.5382(4) 0.3582(4) 1.0038(15)
O1E O 0.4618(4) -0.3582(4) -0.0038(15)
O2D O 0.4744(4) -0.2625(4) 0.4757(15)
O2A O 0.4744(4) 0.2625(4) 0.9757(15)
O2E O 0.5256(4) -0.2625(4) 0.0243(15)
O3D O 0.5649(3) -0.0680(4) 0.4668(14)
O4D O 0.6668(4) -0.1478(4) 0.6151(13)
O5D O 0.3562(4) -0.1714(4) 0.3993(13)
O6D O 0.4361(4) -0.0691(4) 0.5355(14)
O7D O 0.1525(6) -0.0392(6) 0.305(4)
O7B O 0.3475(6) 0.5392(6) 0.695(4)
O7G O 0.3475(6) 0.4608(6) 1.195(4)
O7F O 0.6525(6) -0.5392(6) 0.305(4)
O7C O 0.6525(6) -0.4608(6) -0.195(4)
O8D O 0.2449(4) 0.0262(4) 0.3318(17)
O8B O 0.2551(4) 0.4738(4) 0.6682(17)
O8F O 0.7449(4) -0.4738(4) 0.3318(17)
O9D O 0.6943(4) -0.3072(5) 0.2475(17)
O10D O 0.5000 0.5261(8) 0.7500
O10D_2 O 0.5000 -0.4739(8) -0.2500
O10_2 O 0.5000 -0.5261(8) 0.2500
Cu2D Cu 0.45622(6) -0.16490(7) 0.4714(2)
Cu3D Cu 0.34016(6) 0.04527(7) 0.4211(2)
K1D K 0.59686(14) -0.41206(16) 0.1870(7)
K1A K 0.59686(14) 0.41206(16) 0.6870(7)
K1B K 0.90314(14) -0.08794(16) 0.8130(7)
K1G K 0.90314(14) 0.08794(16) 0.3130(7)
K1A_2 K 0.59686(14) 0.41206(16) 1.6870(7)
K1D_2 K 0.59686(14) 0.58794(16) 1.1870(7)
K1E K 0.40314(14) 0.58794(16) 1.3130(7)
K1E_2 K 0.40314(14) -0.41206(16) 0.3130(7)
K1F K 0.09686(14) 0.08794(16) 0.1870(7)
K1C K 0.09686(14) -0.08794(16) 0.6870(7)
loop_
_geom_bond_atom_site_label_1
_geom_bond_atom_site_label_2
_geom_bond_site_symmetry_1
_geom_bond_site_symmetry_2
C1 C2 1_555 1_555
C2 H1 1_555 1_555
H2 C2 1_555 1_555
C3 C2 1_555 1_555
C4 C5 1_555 1_555
C5 H3 1_555 1_555
H4 C5 1_555 1_555
C6 C5 1_555 1_555
N1 C3 1_555 1_555
N2 C4 1_555 1_555
O1 C1 1_555 1_555
O2 C1 1_555 1_555
O3 N1 1_555 1_555
O4 C3 1_555 1_555
O5 C4 1_555 1_555
O6 N2 1_555 1_555
O7 C6 1_555 1_555
O8 C6 1_555 1_555
O9 K1 1_555 1_555
O10 K1 1_555 1_555
Cu1 O3 1_555 1_555
Cu2 N1 1_555 1_555
Cu3 N2 1_555 1_555
K1 O1 1_555 1_555
C1D C2D 1_555 1_555
C2D H1D 1_555 1_555
H2D C2D 1_555 1_555
C3D C2D 1_555 1_555
C4D C5D 1_555 1_555
C5D H3D 1_555 1_555
H4D C5D 1_555 1_555
C6D C5D 1_555 1_555
N1D C3D 1_555 1_555
N2D C4D 1_555 1_555
O1D C1D 1_555 1_555
O1A K1 1_555 1_555
O1E K1D 1_555 1_555
O2D C1D 1_555 1_555
O2A K1 1_555 1_555
O2E K1D 1_555 1_555
O3D Cu1 1_555 1_555
O4D Cu3 1_555 1_555
O5D C4D 1_555 1_555
O6D Cu1 1_555 1_555
O7D C6D 1_555 1_555
O7B K1 1_555 1_555
O7G K1 1_555 1_555
O7F K1D 1_555 1_555
O7C K1D 1_555 1_555
O8D C6D 1_555 1_555
O8B K1 1_555 1_555
O8F K1D 1_555 1_555
O9D K1D 1_555 1_555
O10D K1 1_555 1_555
O10D_2 K1D 1_555 1_555
O10_2 K1D 1_555 1_555
Cu2D N1D 1_555 1_555
Cu3D O3 1_555 1_555
K1D O1D 1_555 1_555
K1A O1 1_555 1_555
K1B O7 1_555 1_555
K1G O7 1_555 1_555
K1A_2 O10 1_555 1_555
K1D_2 O10 1_555 1_555
K1E O10 1_555 1_555
K1E_2 O1D 1_555 1_555
K1F O7D 1_555 1_555
K1C O7D 1_555 1_555
O2 Cu2 1_555 1_555
O2 K1A 1_555 1_555
O4 Cu3D 1_555 1_555
O5 Cu2 1_555 1_555
O6 Cu1 1_555 1_555
O6 Cu2 1_555 1_555
O8 Cu3 1_555 1_555
O8 K1B 1_555 1_555
Cu3 O3D 1_555 1_555
C3D O4D 1_555 1_555
N1D O3D 1_555 1_555
N2D O6D 1_555 1_555
N2D Cu3D 1_555 1_555
O1A K1A 1_555 1_555
O1E K1E_2 1_555 1_555
O2D Cu2D 1_555 1_555
O2D K1E_2 1_555 1_555
O5D Cu2D 1_555 1_555
O6D Cu2D 1_555 1_555
O7G K1E 1_555 1_555
O8D Cu3D 1_555 1_555
O8D K1F 1_555 1_555
O10D K1A 1_555 1_555
O10D K1D_2 1_555 1_555
O10_2 K1E_2 1_555 1_555

#END
