
#######################################################################
#
#                 Cambridge Crystallographic Data Centre
#                                CCDC 
#
#######################################################################
#
# If this CIF has been generated from an entry in the Cambridge 
# Structural Database, then it will include bibliographic, chemical, 
# crystal, experimental, refinement or atomic coordinate data resulting 
# from the CCDC's data processing and validation procedures.
#
#######################################################################

data_OXALFE08
_symmetry_cell_setting           monoclinic
_symmetry_space_group_name_H-M   'C 2/c'
_symmetry_Int_Tables_number      15
_space_group_name_Hall           '-C 2yn'
loop_
_symmetry_equiv_pos_site_id
_symmetry_equiv_pos_as_xyz
1 x,y,z
2 1/2+x,1/2+y,z
3 -x,y,1/2-z
4 1/2-x,1/2+y,1/2-z
5 -x,-y,-z
6 1/2-x,1/2-y,-z
7 x,-y,1/2+z
8 1/2+x,1/2-y,1/2+z
_cell_length_a                   12.016(2)
_cell_length_b                   5.5577(11)
_cell_length_c                   9.7051(19)
_cell_angle_alpha                90
_cell_angle_beta                 126.93(3)
_cell_angle_gamma                90
_cell_volume                     518.087
loop_
_atom_site_label
_atom_site_type_symbol
_atom_site_fract_x
_atom_site_fract_y
_atom_site_fract_z
Fe1 Fe 0.0000 0.08019(8) 0.2500
O1 O 0.08709(18) 0.3805(3) 0.4234(2)
O2 O 0.08791(16) 0.7825(3) 0.42304(18)
O3 O 0.1723(2) 0.0728(3) 0.2432(2)
H1 H 0.1540 0.1503 0.1600
C1 C 0.0512(2) 0.5810(4) 0.3510(3)
H2 H 0.252(5) 0.127(8) 0.334(5)
Fe1_2 Fe 0.0000 1.08019(8) 0.2500
O1B O -0.08709(18) 0.3805(3) 0.0766(2)
O2B O -0.08791(16) 0.7825(3) 0.07696(18)
O2_2 O 0.08791(16) -0.2175(3) 0.42304(18)
O2B_2 O -0.08791(16) -0.2175(3) 0.07696(18)
O3B O -0.1723(2) 0.0728(3) 0.2568(2)
H1B H -0.1540 0.1503 0.3400
C1B C -0.0512(2) 0.5810(4) 0.1490(3)
H2B H -0.252(5) 0.127(8) 0.166(5)
loop_
_geom_bond_atom_site_label_1
_geom_bond_atom_site_label_2
_geom_bond_site_symmetry_1
_geom_bond_site_symmetry_2
Fe1 O1 1_555 1_555
O1 C1 1_555 1_555
O2 C1 1_555 1_555
O3 Fe1 1_555 1_555
H1 O3 1_555 1_555
C1 C1B 1_555 1_555
H2 O3 1_555 1_555
Fe1_2 O2 1_555 1_555
O1B Fe1 1_555 1_555
O2B Fe1_2 1_555 1_555
O2_2 Fe1 1_555 1_555
O2B_2 Fe1 1_555 1_555
O3B Fe1 1_555 1_555
H1B O3B 1_555 1_555
C1B O1B 1_555 1_555
H2B O3B 1_555 1_555
O2B C1B 1_555 1_555

#END
