
#######################################################################
#
#                 Cambridge Crystallographic Data Centre
#                                CCDC 
#
#######################################################################
#
# If this CIF has been generated from an entry in the Cambridge 
# Structural Database, then it will include bibliographic, chemical, 
# crystal, experimental, refinement or atomic coordinate data resulting 
# from the CCDC's data processing and validation procedures.
#
#######################################################################

data_OXALFE
_symmetry_cell_setting           monoclinic
_symmetry_space_group_name_H-M   'C 2/c'
_symmetry_Int_Tables_number      15
_space_group_name_Hall           '-C 2yn'
loop_
_symmetry_equiv_pos_site_id
_symmetry_equiv_pos_as_xyz
1 x,y,z
2 1/2+x,1/2+y,z
3 -x,y,1/2-z
4 1/2-x,1/2+y,1/2-z
5 -x,-y,-z
6 1/2-x,1/2-y,-z
7 x,-y,1/2+z
8 1/2+x,1/2-y,1/2+z
_cell_length_a                   12.055
_cell_length_b                   5.57
_cell_length_c                   9.76
_cell_angle_alpha                90
_cell_angle_beta                 124.30
_cell_angle_gamma                90
_cell_volume                     541.382
loop_
_atom_site_label
_atom_site_type_symbol
_atom_site_fract_x
_atom_site_fract_y
_atom_site_fract_z
C1 C 0.04300 0.68500 0.35200
Fe1 Fe 0.00000 0.18500 0.25000
O1 O 0.08600 0.49900 0.41800
O2 O 0.08600 0.87100 0.41800
O3 O 0.17500 0.18500 0.25000
C1B C -0.04300 0.68500 0.14800
O1B O -0.08600 0.49900 0.08200
O2_2 O 0.08600 -0.12900 0.41800
O2B O -0.08600 -0.12900 0.08200
O3B O -0.17500 0.18500 0.25000
Fe1_2 Fe 0.00000 1.18500 0.25000
O2B_2 O -0.08600 0.87100 0.08200
loop_
_geom_bond_atom_site_label_1
_geom_bond_atom_site_label_2
_geom_bond_site_symmetry_1
_geom_bond_site_symmetry_2
C1 O1 1_555 1_555
Fe1 O1 1_555 1_555
O2 C1 1_555 1_555
O3 Fe1 1_555 1_555
C1B C1 1_555 1_555
O1B Fe1 1_555 1_555
O2_2 Fe1 1_555 1_555
O2B Fe1 1_555 1_555
O3B Fe1 1_555 1_555
Fe1_2 O2 1_555 1_555
O2B_2 C1B 1_555 1_555
C1B O1B 1_555 1_555
Fe1_2 O2B_2 1_555 1_555

#END
