
#######################################################################
#
#                 Cambridge Crystallographic Data Centre
#                                CCDC 
#
#######################################################################
#
# If this CIF has been generated from an entry in the Cambridge 
# Structural Database, then it will include bibliographic, chemical, 
# crystal, experimental, refinement or atomic coordinate data resulting 
# from the CCDC's data processing and validation procedures.
#
#######################################################################

data_OXAMCU
_symmetry_cell_setting           orthorhombic
_symmetry_space_group_name_H-M   'P b c a'
_symmetry_Int_Tables_number      61
_space_group_name_Hall           '-P 2ac 2ab'
loop_
_symmetry_equiv_pos_site_id
_symmetry_equiv_pos_as_xyz
1 x,y,z
2 1/2-x,1/2+y,z
3 x,1/2-y,1/2+z
4 1/2-x,-y,1/2+z
5 -x,-y,-z
6 1/2+x,1/2-y,-z
7 -x,1/2+y,1/2-z
8 1/2+x,y,1/2-z
_cell_length_a                   11.19(1)
_cell_length_b                   9.43(1)
_cell_length_c                   8.38(1)
_cell_angle_alpha                90
_cell_angle_beta                 90
_cell_angle_gamma                90
_cell_volume                     884.272
loop_
_atom_site_label
_atom_site_type_symbol
_atom_site_fract_x
_atom_site_fract_y
_atom_site_fract_z
Cu1 Cu 0.07580 0.23720 0.12360
C1 C 0.02010 0.48490 -0.08910
C2 C -0.06550 0.02330 0.01390
H1 H 0.25000 0.22500 0.26300
H2 H 0.29200 0.30000 0.12500
H3 H 0.21700 0.38800 0.23800
N1 N 0.23510 0.30180 0.19940
O1 O -0.08000 0.14540 0.07090
O2 O 0.06260 0.36670 -0.11670
O3 O -0.14580 -0.06220 -0.02310
O4 O 0.00330 0.58400 -0.18920
C1D C -0.02010 0.51510 0.08910
O2D O -0.06260 0.63330 0.11670
O4D O -0.00330 0.41600 0.18920
C2D C 0.06550 -0.02330 -0.01390
O1D O 0.08000 -0.14540 -0.07090
O3D O 0.14580 0.06220 0.02310
Cu1D Cu -0.07580 -0.23720 -0.12360
H1D H -0.25000 -0.22500 -0.26300
H2D H -0.29200 -0.30000 -0.12500
H3D H -0.21700 -0.38800 -0.23800
N1D N -0.23510 -0.30180 -0.19940
O2B O 0.06260 0.13330 0.38330
Cu1B Cu 0.07580 0.26280 -0.37640
Cu1D_2 Cu -0.07580 0.76280 -0.12360
Cu1F Cu -0.07580 0.73720 0.37640
O2D_2 O -0.06260 -0.36670 0.11670
O2F O -0.06260 -0.13330 -0.38330
O4_2 O 0.00330 -0.41600 -0.18920
loop_
_geom_bond_atom_site_label_1
_geom_bond_atom_site_label_2
_geom_bond_site_symmetry_1
_geom_bond_site_symmetry_2
Cu1 N1 1_555 1_555
C1 O2 1_555 1_555
C2 O1 1_555 1_555
H1 N1 1_555 1_555
H2 N1 1_555 1_555
H3 N1 1_555 1_555
O1 Cu1 1_555 1_555
O2 Cu1 1_555 1_555
O3 C2 1_555 1_555
O4 C1 1_555 1_555
C1D C1 1_555 1_555
O2D C1D 1_555 1_555
O4D Cu1 1_555 1_555
C2D C2 1_555 1_555
O1D C2D 1_555 1_555
O3D Cu1 1_555 1_555
Cu1D O3 1_555 1_555
H1D N1D 1_555 1_555
H2D N1D 1_555 1_555
H3D N1D 1_555 1_555
N1D Cu1D 1_555 1_555
O2B Cu1 1_555 1_555
Cu1B O2 1_555 1_555
Cu1D_2 O4 1_555 1_555
Cu1F O2D 1_555 1_555
O2D_2 Cu1D 1_555 1_555
O2F Cu1D 1_555 1_555
O4_2 Cu1D 1_555 1_555
C1D O4D 1_555 1_555
O2D Cu1D_2 1_555 1_555
C2D O3D 1_555 1_555
O1D Cu1D 1_555 1_555

#END
