
#######################################################################
#
#                 Cambridge Crystallographic Data Centre
#                                CCDC 
#
#######################################################################
#
# If this CIF has been generated from an entry in the Cambridge 
# Structural Database, then it will include bibliographic, chemical, 
# crystal, experimental, refinement or atomic coordinate data resulting 
# from the CCDC's data processing and validation procedures.
#
#######################################################################

data_OXAMIK
_symmetry_cell_setting           triclinic
_symmetry_space_group_name_H-M   'P -1'
_symmetry_Int_Tables_number      2
_space_group_name_Hall           '-P 1'
loop_
_symmetry_equiv_pos_site_id
_symmetry_equiv_pos_as_xyz
1 x,y,z
2 -x,-y,-z
_cell_length_a                   5.0696(5)
_cell_length_b                   9.6081(10)
_cell_length_c                   12.5328(13)
_cell_angle_alpha                89.120(2)
_cell_angle_beta                 85.5080(10)
_cell_angle_gamma                76.862(2)
_cell_volume                     592.656
loop_
_atom_site_label
_atom_site_type_symbol
_atom_site_fract_x
_atom_site_fract_y
_atom_site_fract_z
Co1 Co 0.16618(15) -0.10633(8) 0.40345(5)
Co2 Co 0.5000 0.0000 0.0000
P1 P 0.3162(3) 0.21348(14) 0.44277(10)
P2 P 0.6226(3) 0.03255(14) 0.25319(10)
O1 O 0.1723(7) 0.0967(3) 0.4764(2)
O2 O 0.2487(8) -0.1131(4) 0.0946(3)
H1 H 0.3585 -0.1944 0.0894
H2 H 0.2386 -0.1056 0.1623
O3 O 0.5686(7) 0.2199(4) 0.4941(3)
O4 O 0.8251(8) -0.1862(4) -0.0303(3)
H3 H 0.8919 -0.1782 0.0288
H4 H 0.9676 -0.1765 -0.0675
O5 O 0.1033(7) 0.3619(4) 0.4568(3)
H5 H 0.0542 0.3759 0.5204
O7 O 0.4619(6) -0.0789(3) 0.2833(2)
O8 O 0.8857(7) 0.0151(3) 0.3063(2)
O9 O 0.6758(7) 0.0438(4) 0.1325(2)
O10 O 0.1462(7) 0.2147(4) 0.2451(3)
H8 H 0.0741 0.1504 0.2670
N1 N 0.3329(8) 0.4722(4) 0.2705(3)
N2 N 0.1715(8) 0.6907(4) 0.3322(3)
C1 C 0.3709(11) 0.5748(5) 0.3344(4)
H9 H 0.5190 0.5659 0.3754
C2 C 0.0003(11) 0.6586(6) 0.2611(4)
H10 H -0.1588 0.7203 0.2425
C3 C 0.0962(10) 0.5246(5) 0.2222(4)
H11 H 0.0183 0.4777 0.1731
C4 C 0.5148(10) 0.3301(5) 0.2544(4)
H12 H 0.6799 0.3281 0.2891
H13 H 0.5643 0.3156 0.1784
C5 C 0.3942(10) 0.2057(5) 0.2972(4)
Co1A Co -0.16618(15) 0.10633(8) 0.59655(5)
Co1_2 Co -0.83382(15) -0.10633(8) 0.40345(5)
Co1_3 Co 0.16618(15) 0.89367(8) 0.40345(5)
Co1_4 Co 1.16618(15) -0.10633(8) 0.40345(5)
Co1A_2 Co -1.16618(15) 0.10633(8) 0.59655(5)
Co1A_3 Co -0.16618(15) -0.89367(8) 0.59655(5)
Co1A_4 Co 0.83382(15) 0.10633(8) 0.59655(5)
Co2_2 Co -0.5000 0.0000 1.0000
P1A P -0.3162(3) -0.21348(14) 0.55723(10)
P2A P -0.6226(3) -0.03255(14) 0.74681(10)
O1A O -0.1723(7) -0.0967(3) 0.5236(2)
O2A O 0.7513(8) 0.1131(4) -0.0946(3)
H1A H 0.6415 0.1944 -0.0894
H2A H 0.7614 0.1056 -0.1623
O3A O -0.5686(7) -0.2199(4) 0.5059(3)
O3_2 O -0.4314(7) 0.2199(4) 0.4941(3)
O3A_2 O 0.4314(7) -0.2199(4) 0.5059(3)
O4A O 0.1749(8) 0.1862(4) 0.0303(3)
H3A H 0.1081 0.1782 -0.0288
H4A H 0.0324 0.1765 0.0675
O5A O -0.1033(7) -0.3619(4) 0.5432(3)
H5A H -0.0542 -0.3759 0.4796
O7A O -0.4619(6) 0.0789(3) 0.7167(2)
O8A O -0.8857(7) -0.0151(3) 0.6937(2)
O8_2 O -0.1143(7) 0.0151(3) 0.3063(2)
O8A_2 O 0.1143(7) -0.0151(3) 0.6937(2)
O9A O -0.6758(7) -0.0438(4) 0.8675(2)
O9A_2 O 0.3242(7) -0.0438(4) -0.1325(2)
O10A O -0.1462(7) -0.2147(4) 0.7549(3)
H8A H -0.0741 -0.1504 0.7330
N1A N -0.3329(8) -0.4722(4) 0.7295(3)
N2A N -0.1715(8) -0.6907(4) 0.6678(3)
N2_2 N 0.1715(8) -0.3093(4) 0.3322(3)
N2A_2 N -0.1715(8) 0.3093(4) 0.6678(3)
C1A C -0.3709(11) -0.5748(5) 0.6656(4)
H9A H -0.5190 -0.5659 0.6246
C2A C -0.0003(11) -0.6586(6) 0.7389(4)
H10A H 0.1588 -0.7203 0.7575
C3A C -0.0962(10) -0.5246(5) 0.7778(4)
H11A H -0.0183 -0.4777 0.8269
C4A C -0.5148(10) -0.3301(5) 0.7456(4)
H12A H -0.6799 -0.3281 0.7109
H13A H -0.5643 -0.3156 0.8216
C5A C -0.3942(10) -0.2057(5) 0.7028(4)
O6 O 0.4057(11) 0.4040(5) 0.9433(4)
H6 H 0.3814 0.4337 0.8798
H7 H 0.2570 0.4277 0.9820
loop_
_geom_bond_atom_site_label_1
_geom_bond_atom_site_label_2
_geom_bond_site_symmetry_1
_geom_bond_site_symmetry_2
Co1 O1 1_555 1_555
Co2 O2 1_555 1_555
P1 O1 1_555 1_555
P2 O7 1_555 1_555
O1 Co1A 1_555 1_555
O2 H1 1_555 1_555
H2 O2 1_555 1_555
O3 P1 1_555 1_555
O4 Co2 1_555 1_555
H3 O4 1_555 1_555
H4 O4 1_555 1_555
O5 P1 1_555 1_555
H5 O5 1_555 1_555
O6 H6 1_555 1_555
H7 O6 1_555 1_555
O7 Co1 1_555 1_555
O8 P2 1_555 1_555
O9 Co2 1_555 1_555
O10 H8 1_555 1_555
N1 C1 1_555 1_555
N2 C1 1_555 1_555
C1 H9 1_555 1_555
C2 N2 1_555 1_555
H10 C2 1_555 1_555
C3 N1 1_555 1_555
H11 C3 1_555 1_555
C4 N1 1_555 1_555
H12 C4 1_555 1_555
H13 C4 1_555 1_555
C5 P1 1_555 1_555
Co1A O1A 1_555 1_555
Co1_2 O3A 1_555 1_555
Co1_3 N2 1_555 1_555
Co1_4 O8 1_555 1_555
Co1A_2 O8A 1_555 1_555
Co1A_3 N2A 1_555 1_555
Co1A_4 O3 1_555 1_555
Co2_2 O9A 1_555 1_555
P1A O1A 1_555 1_555
P2A O7A 1_555 1_555
O1A Co1 1_555 1_555
O2A Co2 1_555 1_555
H1A O2A 1_555 1_555
H2A O2A 1_555 1_555
O3A P1A 1_555 1_555
O3_2 Co1A 1_555 1_555
O3A_2 Co1 1_555 1_555
O4A Co2 1_555 1_555
H3A O4A 1_555 1_555
H4A O4A 1_555 1_555
O5A P1A 1_555 1_555
H5A O5A 1_555 1_555
O7A Co1A 1_555 1_555
O8A P2A 1_555 1_555
O8_2 Co1 1_555 1_555
O8A_2 Co1A 1_555 1_555
O9A P2A 1_555 1_555
O9A_2 Co2 1_555 1_555
O10A H8A 1_555 1_555
N1A C1A 1_555 1_555
N2A C1A 1_555 1_555
N2_2 Co1 1_555 1_555
N2A_2 Co1A 1_555 1_555
C1A H9A 1_555 1_555
C2A N2A 1_555 1_555
H10A C2A 1_555 1_555
C3A N1A 1_555 1_555
H11A C3A 1_555 1_555
C4A N1A 1_555 1_555
H12A C4A 1_555 1_555
H13A C4A 1_555 1_555
C5A P1A 1_555 1_555
P2 O9 1_555 1_555
P2 C5 1_555 1_555
O10 C5 1_555 1_555
C2 C3 1_555 1_555
C4 C5 1_555 1_555
P2A C5A 1_555 1_555
O10A C5A 1_555 1_555
C2A C3A 1_555 1_555
C4A C5A 1_555 1_555

#END
