
#######################################################################
#
#                 Cambridge Crystallographic Data Centre
#                                CCDC 
#
#######################################################################
#
# If this CIF has been generated from an entry in the Cambridge 
# Structural Database, then it will include bibliographic, chemical, 
# crystal, experimental, refinement or atomic coordinate data resulting 
# from the CCDC's data processing and validation procedures.
#
#######################################################################

data_OXAMCD
_symmetry_cell_setting           triclinic
_symmetry_space_group_name_H-M   'P -1'
_symmetry_Int_Tables_number      2
_space_group_name_Hall           '-P 1'
loop_
_symmetry_equiv_pos_site_id
_symmetry_equiv_pos_as_xyz
1 x,y,z
2 -x,-y,-z
_cell_length_a                   6.293(5)
_cell_length_b                   5.781(8)
_cell_length_c                   5.539(5)
_cell_angle_alpha                77.53(6)
_cell_angle_beta                 100.59(9)
_cell_angle_gamma                104.11(7)
_cell_volume                     188.979
loop_
_atom_site_label
_atom_site_type_symbol
_atom_site_fract_x
_atom_site_fract_y
_atom_site_fract_z
Cu1 Cu 0.00000 0.00000 0.00000
C1 C 0.09960 0.49940 0.12000
N1 N -0.24510 -0.10990 0.19910
O1 O 0.13980 0.28830 0.20710
O2 O -0.16340 0.31780 -0.22040
N1A N 0.24510 0.10990 -0.19910
O1A O -0.13980 -0.28830 -0.20710
O2A O 0.16340 -0.31780 0.22040
C1A C -0.09960 0.50060 -0.12000
O2A_2 O 0.16340 0.68220 0.22040
O1A_2 O -0.13980 0.71170 -0.20710
Cu1_2 Cu 0.00000 1.00000 0.00000
O3 O 0.60190 0.31130 0.29860
loop_
_geom_bond_atom_site_label_1
_geom_bond_atom_site_label_2
_geom_bond_site_symmetry_1
_geom_bond_site_symmetry_2
Cu1 N1 1_555 1_555
C1 O1 1_555 1_555
O1 Cu1 1_555 1_555
O2 Cu1 1_555 1_555
N1A Cu1 1_555 1_555
O1A Cu1 1_555 1_555
O2A Cu1 1_555 1_555
C1A C1 1_555 1_555
O2A_2 C1 1_555 1_555
O1A_2 C1A 1_555 1_555
Cu1_2 O2A_2 1_555 1_555
O2 C1A 1_555 1_555
O1A_2 Cu1_2 1_555 1_555

#END
