
#######################################################################
#
#                 Cambridge Crystallographic Data Centre
#                                CCDC 
#
#######################################################################
#
# If this CIF has been generated from an entry in the Cambridge 
# Structural Database, then it will include bibliographic, chemical, 
# crystal, experimental, refinement or atomic coordinate data resulting 
# from the CCDC's data processing and validation procedures.
#
#######################################################################

data_OXANAD
_symmetry_cell_setting           monoclinic
_symmetry_space_group_name_H-M   'C 2'
_symmetry_Int_Tables_number      5
_space_group_name_Hall           'C 2y'
loop_
_symmetry_equiv_pos_site_id
_symmetry_equiv_pos_as_xyz
1 x,y,z
2 -x,y,-z
3 1/2+x,1/2+y,z
4 1/2-x,1/2+y,-z
_cell_length_a                   24.461(6)
_cell_length_b                   11.2937(19)
_cell_length_c                   19.454(5)
_cell_angle_alpha                90
_cell_angle_beta                 127.736(4)
_cell_angle_gamma                90
_cell_volume                     4250.18
loop_
_atom_site_label
_atom_site_type_symbol
_atom_site_fract_x
_atom_site_fract_y
_atom_site_fract_z
As1 As 0.31108(10) 0.31281(18) 0.64565(12)
As2 As 0.13763(11) 0.2925(2) 0.83342(14)
Se1 Se 0.31569(10) 0.3939(2) 0.76684(13)
Se2 Se 0.19902(11) 0.41421(18) 0.70289(13)
Se3 Se 0.15709(10) 0.24656(18) 0.72448(12)
Se4 Se 0.15781(13) 0.5004(2) 0.84757(16)
Se5 Se 0.06293(15) 0.5710(3) 0.71470(17)
Se6 Se -0.02819(14) 0.5369(3) 0.71974(18)
Se7 Se 0.48224(15) 0.1833(3) 0.81211(16)
Se8 Se 0.43316(11) 0.3534(2) 0.72703(16)
Se9 Se 0.27490(11) 0.45971(19) 0.54778(12)
Se10 Se 0.23400(11) 0.2473(2) 0.96834(12)
Se6B Se 0.47181(14) 0.0369(3) 0.71974(18)
Se7B Se -0.01776(15) 0.6833(3) 0.81211(16)
Co1 Co 0.5000 0.7580(3) 0.0000
N1 N 0.5722(7) 0.8890(13) 0.0330(8)
N2 N 0.5545(7) 0.7630(12) 0.1345(8)
N3 N 0.4414(7) 0.6153(14) -0.0076(9)
C1 C 0.5804(10) 0.9493(18) -0.0171(12)
H1 H 0.5503 0.9326 -0.0762
C2 C 0.6318(10) 1.0399(17) 0.0105(13)
H2 H 0.6363 1.0783 -0.0282
C3 C 0.6745(10) 1.0654(16) 0.0995(12)
H3 H 0.7102 1.1199 0.1226
C4 C 0.6628(9) 1.0067(14) 0.1555(11)
C5 C 0.7046(8) 1.0262(17) 0.2454(12)
H4 H 0.7391 1.0834 0.2699
C6 C 0.6961(9) 0.9656(15) 0.2957(11)
H5 H 0.7228 0.9849 0.3544
C7 C 0.6481(8) 0.8726(18) 0.2644(10)
C8 C 0.6402(10) 0.801(2) 0.3152(12)
H6 H 0.6676 0.8131 0.3750
C9 C 0.5910(11) 0.7098(18) 0.2772(11)
H7 H 0.5861 0.6606 0.3114
C10 C 0.5490(10) 0.694(2) 0.1862(13)
H8 H 0.5164 0.6333 0.1612
C11 C 0.6049(7) 0.8542(14) 0.1766(10)
C12 C 0.6128(7) 0.9187(13) 0.1192(9)
C13 C 0.3834(9) 0.6197(17) -0.0142(11)
H9 H 0.3644 0.6925 -0.0170
C14 C 0.3511(9) 0.5129(16) -0.0169(11)
H10 H 0.3109 0.5163 -0.0217
C15 C 0.3790(9) 0.4045(18) -0.0125(11)
H11 H 0.3597 0.3341 -0.0116
C16 C 0.4683(9) 0.5102(17) -0.0053(12)
C17 C 0.4382(9) 0.4051(18) -0.0096(11)
C18 C 0.4712(9) 0.2954(17) -0.0022(11)
H12 H 0.4530 0.2241 -0.0004
N1A N 0.4278(7) 0.8890(13) -0.0330(8)
N2A N 0.4455(7) 0.7630(12) -0.1345(8)
N3A N 0.5586(7) 0.6153(14) 0.0076(9)
C1A C 0.4196(10) 0.9493(18) 0.0171(12)
H1A H 0.4497 0.9326 0.0762
C2A C 0.3682(10) 1.0399(17) -0.0105(13)
H2A H 0.3637 1.0783 0.0282
C3A C 0.3255(10) 1.0654(16) -0.0995(12)
H3A H 0.2898 1.1199 -0.1226
C4A C 0.3372(9) 1.0067(14) -0.1555(11)
C5A C 0.2954(8) 1.0262(17) -0.2454(12)
H4A H 0.2609 1.0834 -0.2699
C6A C 0.3039(9) 0.9656(15) -0.2957(11)
H5A H 0.2772 0.9849 -0.3544
C7A C 0.3519(8) 0.8726(18) -0.2644(10)
C8A C 0.3598(10) 0.801(2) -0.3152(12)
H6A H 0.3324 0.8131 -0.3750
C9A C 0.4090(11) 0.7098(18) -0.2772(11)
H7A H 0.4139 0.6606 -0.3114
C10A C 0.4510(10) 0.694(2) -0.1862(13)
H8A H 0.4836 0.6333 -0.1612
C11A C 0.3951(7) 0.8542(14) -0.1766(10)
C12A C 0.3872(7) 0.9187(13) -0.1192(9)
C13A C 0.6166(9) 0.6197(17) 0.0142(11)
H9A H 0.6356 0.6925 0.0170
C14A C 0.6489(9) 0.5129(16) 0.0169(11)
H10A H 0.6891 0.5163 0.0217
C15A C 0.6210(9) 0.4045(18) 0.0125(11)
H11A H 0.6403 0.3341 0.0116
C16A C 0.5317(9) 0.5102(17) 0.0053(12)
C17A C 0.5618(9) 0.4051(18) 0.0096(11)
C18A C 0.5288(9) 0.2954(17) 0.0022(11)
H12A H 0.5470 0.2241 0.0004
Co2 Co 0.0000 0.9513(3) 0.5000
N4 N 0.0740(8) 0.8262(13) 0.5295(10)
N5 N 0.0593(7) 0.9455(15) 0.6376(9)
N6 N -0.0580(8) 1.0931(14) 0.4957(8)
C19 C 0.0820(9) 0.7682(15) 0.4772(10)
H13 H 0.0486 0.7750 0.4173
C20 C 0.1408(10) 0.6957(16) 0.5108(11)
H14 H 0.1468 0.6600 0.4728
C21 C 0.1877(9) 0.6778(16) 0.5963(11)
H15 H 0.2244 0.6263 0.6171
C22 C 0.1815(8) 0.7358(16) 0.6535(10)
C23 C 0.2301(8) 0.7187(16) 0.7478(12)
H16 H 0.2655 0.6635 0.7714
C24 C 0.2232(9) 0.7811(14) 0.7980(11)
H17 H 0.2572 0.7762 0.8578
C25 C 0.1643(9) 0.8587(16) 0.7642(11)
C26 C 0.1537(9) 0.9240(15) 0.8178(11)
H18 H 0.1862 0.9216 0.8780
C27 C 0.0959(9) 0.9890(16) 0.7797(11)
H19 H 0.0877 1.0267 0.8151
C28 C 0.0477(9) 1.0031(16) 0.6902(11)
H20 H 0.0086 1.0499 0.6664
C29 C 0.1139(8) 0.8716(14) 0.6737(10)
C30 C 0.1228(9) 0.8141(15) 0.6177(11)
C31 C -0.1083(9) 1.0954(16) 0.4984(11)
H21 H -0.1283 1.0225 0.4932
C32 C -0.1360(8) 1.1882(16) 0.5078(10)
H22 H -0.1704 1.1801 0.5143
C33 C -0.1104(10) 1.3024(19) 0.5073(12)
H23 H -0.1307 1.3709 0.5089
C34 C -0.0555(8) 1.3098(15) 0.5045(10)
C35 C -0.0290(8) 1.2021(17) 0.5007(10)
C36 C -0.0267(10) 1.4139(17) 0.5041(11)
H24 H -0.0426 1.4855 0.5094
N4A N -0.0740(8) 0.8262(13) 0.4705(10)
N5A N -0.0593(7) 0.9455(15) 0.3624(9)
N6A N 0.0580(8) 1.0931(14) 0.5043(8)
C19A C -0.0820(9) 0.7682(15) 0.5228(10)
H13A H -0.0486 0.7750 0.5827
C20A C -0.1408(10) 0.6957(16) 0.4892(11)
H14A H -0.1468 0.6600 0.5272
C21A C -0.1877(9) 0.6778(16) 0.4037(11)
H15A H -0.2244 0.6263 0.3829
C22A C -0.1815(8) 0.7358(16) 0.3465(10)
C23A C -0.2301(8) 0.7187(16) 0.2522(12)
H16A H -0.2655 0.6635 0.2286
C24A C -0.2232(9) 0.7811(14) 0.2020(11)
H17A H -0.2572 0.7762 0.1422
C25A C -0.1643(9) 0.8587(16) 0.2358(11)
C26A C -0.1537(9) 0.9240(15) 0.1822(11)
H18A H -0.1862 0.9216 0.1220
C27A C -0.0959(9) 0.9890(16) 0.2203(11)
H19A H -0.0877 1.0267 0.1849
C28A C -0.0477(9) 1.0031(16) 0.3098(11)
H20A H -0.0086 1.0499 0.3336
C29A C -0.1139(8) 0.8716(14) 0.3263(10)
C30A C -0.1228(9) 0.8141(15) 0.3823(11)
C31A C 0.1083(9) 1.0954(16) 0.5016(11)
H21A H 0.1283 1.0225 0.5068
C32A C 0.1360(8) 1.1882(16) 0.4922(10)
H22A H 0.1704 1.1801 0.4857
C33A C 0.1104(10) 1.3024(19) 0.4927(12)
H23A H 0.1307 1.3709 0.4911
C34A C 0.0555(8) 1.3098(15) 0.4955(10)
C35A C 0.0290(8) 1.2021(17) 0.4993(10)
C36A C 0.0267(10) 1.4139(17) 0.4959(11)
H24A H 0.0426 1.4855 0.4906
loop_
_geom_bond_atom_site_label_1
_geom_bond_atom_site_label_2
_geom_bond_site_symmetry_1
_geom_bond_site_symmetry_2
As1 Se1 1_555 1_555
As2 Se3 1_555 1_555
Se1 Se2 1_555 1_555
Se2 Se3 1_555 1_555
Se4 As2 1_555 1_555
Se5 Se4 1_555 1_555
Se6 Se5 1_555 1_555
Se7 Se8 1_555 1_555
Se8 As1 1_555 1_555
Se9 As1 1_555 1_555
Se10 As2 1_555 1_555
Co1 N1 1_555 1_555
Co2 N4 1_555 1_555
N1 C1 1_555 1_555
N2 Co1 1_555 1_555
N3 Co1 1_555 1_555
N4 C19 1_555 1_555
N5 Co2 1_555 1_555
N6 Co2 1_555 1_555
C1 H1 1_555 1_555
C2 C1 1_555 1_555
H2 C2 1_555 1_555
C3 C2 1_555 1_555
H3 C3 1_555 1_555
C4 C3 1_555 1_555
C5 C4 1_555 1_555
H4 C5 1_555 1_555
C6 C5 1_555 1_555
H5 C6 1_555 1_555
C7 C6 1_555 1_555
C8 C7 1_555 1_555
H6 C8 1_555 1_555
C9 C8 1_555 1_555
H7 C9 1_555 1_555
C10 N2 1_555 1_555
H8 C10 1_555 1_555
C11 N2 1_555 1_555
C12 N1 1_555 1_555
C13 N3 1_555 1_555
H9 C13 1_555 1_555
C14 C13 1_555 1_555
H10 C14 1_555 1_555
C15 C14 1_555 1_555
H11 C15 1_555 1_555
C16 N3 1_555 1_555
C17 C15 1_555 1_555
C18 C17 1_555 1_555
H12 C18 1_555 1_555
C19 H13 1_555 1_555
C20 C19 1_555 1_555
H14 C20 1_555 1_555
C21 C20 1_555 1_555
H15 C21 1_555 1_555
C22 C21 1_555 1_555
C23 C22 1_555 1_555
H16 C23 1_555 1_555
C24 C23 1_555 1_555
H17 C24 1_555 1_555
C25 C24 1_555 1_555
C26 C25 1_555 1_555
H18 C26 1_555 1_555
C27 C26 1_555 1_555
H19 C27 1_555 1_555
C28 N5 1_555 1_555
H20 C28 1_555 1_555
C29 N5 1_555 1_555
C30 N4 1_555 1_555
C31 N6 1_555 1_555
H21 C31 1_555 1_555
C32 C31 1_555 1_555
H22 C32 1_555 1_555
C33 C32 1_555 1_555
H23 C33 1_555 1_555
C34 C33 1_555 1_555
C35 N6 1_555 1_555
C36 C34 1_555 1_555
H24 C36 1_555 1_555
Se6B Se7 1_555 1_555
Se7B Se6 1_555 1_555
N1A Co1 1_555 1_555
N2A Co1 1_555 1_555
N3A Co1 1_555 1_555
N4A Co2 1_555 1_555
N5A Co2 1_555 1_555
N6A Co2 1_555 1_555
C1A N1A 1_555 1_555
H1A C1A 1_555 1_555
C2A C1A 1_555 1_555
H2A C2A 1_555 1_555
C3A C2A 1_555 1_555
H3A C3A 1_555 1_555
C4A C3A 1_555 1_555
C5A C4A 1_555 1_555
H4A C5A 1_555 1_555
C6A C5A 1_555 1_555
H5A C6A 1_555 1_555
C7A C6A 1_555 1_555
C8A C7A 1_555 1_555
H6A C8A 1_555 1_555
C9A C8A 1_555 1_555
H7A C9A 1_555 1_555
C10A N2A 1_555 1_555
H8A C10A 1_555 1_555
C11A N2A 1_555 1_555
C12A N1A 1_555 1_555
C13A N3A 1_555 1_555
H9A C13A 1_555 1_555
C14A C13A 1_555 1_555
H10A C14A 1_555 1_555
C15A C14A 1_555 1_555
H11A C15A 1_555 1_555
C16A C16 1_555 1_555
C17A C15A 1_555 1_555
C18A C18 1_555 1_555
H12A C18A 1_555 1_555
C19A N4A 1_555 1_555
H13A C19A 1_555 1_555
C20A C19A 1_555 1_555
H14A C20A 1_555 1_555
C21A C20A 1_555 1_555
H15A C21A 1_555 1_555
C22A C21A 1_555 1_555
C23A C22A 1_555 1_555
H16A C23A 1_555 1_555
C24A C23A 1_555 1_555
H17A C24A 1_555 1_555
C25A C24A 1_555 1_555
C26A C25A 1_555 1_555
H18A C26A 1_555 1_555
C27A C26A 1_555 1_555
H19A C27A 1_555 1_555
C28A N5A 1_555 1_555
H20A C28A 1_555 1_555
C29A N5A 1_555 1_555
C30A N4A 1_555 1_555
C31A N6A 1_555 1_555
H21A C31A 1_555 1_555
C32A C31A 1_555 1_555
H22A C32A 1_555 1_555
C33A C32A 1_555 1_555
H23A C33A 1_555 1_555
C34A C33A 1_555 1_555
C35A C35 1_555 1_555
C36A C36 1_555 1_555
H24A C36A 1_555 1_555
C4 C12 1_555 1_555
C7 C11 1_555 1_555
C9 C10 1_555 1_555
C11 C12 1_555 1_555
C16 C17 1_555 1_555
C22 C30 1_555 1_555
C25 C29 1_555 1_555
C27 C28 1_555 1_555
C29 C30 1_555 1_555
C34 C35 1_555 1_555
N3A C16A 1_555 1_555
N6A C35A 1_555 1_555
C4A C12A 1_555 1_555
C7A C11A 1_555 1_555
C9A C10A 1_555 1_555
C11A C12A 1_555 1_555
C16A C17A 1_555 1_555
C17A C18A 1_555 1_555
C22A C30A 1_555 1_555
C25A C29A 1_555 1_555
C27A C28A 1_555 1_555
C29A C30A 1_555 1_555
C34A C35A 1_555 1_555
C34A C36A 1_555 1_555

#END
