
#######################################################################
#
#                 Cambridge Crystallographic Data Centre
#                                CCDC 
#
#######################################################################
#
# If this CIF has been generated from an entry in the Cambridge 
# Structural Database, then it will include bibliographic, chemical, 
# crystal, experimental, refinement or atomic coordinate data resulting 
# from the CCDC's data processing and validation procedures.
#
#######################################################################

data_OXAPIN01
_symmetry_cell_setting           monoclinic
_symmetry_space_group_name_H-M   'P 21/c'
_symmetry_Int_Tables_number      14
_space_group_name_Hall           '-P 2ybc'
loop_
_symmetry_equiv_pos_site_id
_symmetry_equiv_pos_as_xyz
1 x,y,z
2 -x,1/2+y,1/2-z
3 -x,-y,-z
4 x,1/2-y,1/2+z
_cell_length_a                   14.734(5)
_cell_length_b                   15.427(6)
_cell_length_c                   17.592(6)
_cell_angle_alpha                90
_cell_angle_beta                 99.584(7)
_cell_angle_gamma                90
_cell_volume                     3942.88
loop_
_atom_site_label
_atom_site_type_symbol
_atom_site_fract_x
_atom_site_fract_y
_atom_site_fract_z
Cu1 Cu 0.24053(3) 0.23500(3) 0.09589(3)
S1 S 0.18916(7) 0.43075(7) 0.04740(5)
S2 S 0.13635(7) 0.10082(7) -0.00968(6)
S3 S 0.33723(7) 0.10342(7) 0.22325(6)
O1 O 0.1402(2) 0.34978(19) 0.05558(17)
O2 O 0.1429(2) 0.5065(2) 0.06910(16)
O3 O 0.2216(2) 0.4374(2) -0.02466(15)
O4 O 0.0589(2) 0.1216(2) -0.06849(16)
O5 O 0.1518(2) 0.0108(2) 0.00501(19)
O6 O 0.13634(19) 0.15228(19) 0.06009(15)
O7 O 0.34186(19) 0.13139(18) 0.14497(15)
O8 O 0.3177(2) 0.01302(19) 0.23022(17)
O9 O 0.41491(19) 0.1346(2) 0.27875(16)
N1 N 0.3253(2) 0.3394(2) 0.12928(17)
N2 N 0.2783(2) 0.2077(2) -0.00597(18)
N3 N 0.2043(2) 0.2240(2) 0.20020(17)
C1 C 0.2922(3) 0.4203(3) 0.1171(2)
C2 C 0.3362(3) 0.4928(3) 0.1504(2)
H1 H 0.3100 0.5474 0.1412
C3 C 0.4197(3) 0.4828(3) 0.1976(2)
H2 H 0.4509 0.5306 0.2212
C4 C 0.4571(3) 0.4002(3) 0.2095(2)
H3 H 0.5143 0.3920 0.2402
C5 C 0.4080(3) 0.3308(3) 0.1750(2)
H4 H 0.4329 0.2755 0.1836
C6 C 0.2349(3) 0.1419(3) -0.0453(2)
C7 C 0.2597(3) 0.1069(3) -0.1100(2)
H5 H 0.2269 0.0612 -0.1359
C8 C 0.3353(4) 0.1419(3) -0.1357(3)
H6 H 0.3546 0.1196 -0.1795
C9 C 0.3820(3) 0.2097(3) -0.0967(3)
H7 H 0.4333 0.2336 -0.1132
C10 C 0.3511(3) 0.2418(3) -0.0323(2)
H8 H 0.3817 0.2886 -0.0062
C11 C 0.1322(3) 0.2684(3) 0.2191(2)
H9 H 0.1054 0.3120 0.1863
C12 C 0.0972(3) 0.2513(3) 0.2851(2)
H10 H 0.0479 0.2832 0.2970
C13 C 0.1362(3) 0.1860(3) 0.3336(2)
H11 H 0.1135 0.1735 0.3787
C14 C 0.2084(3) 0.1402(3) 0.3145(2)
H12 H 0.2358 0.0961 0.3463
C15 C 0.2403(3) 0.1606(3) 0.2472(2)
Cu2 Cu 0.23660(3) 0.75064(3) 0.39808(2)
N4 N 0.1484(2) 0.66015(19) 0.34763(17)
N5 N 0.3338(2) 0.84055(19) 0.43217(16)
N6 N 0.3296(2) 0.65591(19) 0.43260(17)
N7 N -0.1531(2) 0.34374(19) 0.15552(17)
C16 C 0.1613(3) 0.6260(3) 0.2803(2)
H13 H 0.2122 0.6438 0.2595
C17 C 0.1030(3) 0.5659(3) 0.2403(2)
H14 H 0.1140 0.5449 0.1931
C18 C 0.0279(3) 0.5369(2) 0.2709(2)
C19 C 0.0146(3) 0.5721(3) 0.3410(2)
H15 H -0.0350 0.5546 0.3637
C20 C 0.0757(3) 0.6333(2) 0.3764(2)
H16 H 0.0653 0.6569 0.4229
C21 C -0.0354(2) 0.4702(2) 0.2311(2)
C22 C -0.0482(3) 0.4604(2) 0.1513(2)
H17 H -0.0167 0.4962 0.1219
C23 C -0.1071(3) 0.3983(2) 0.1159(2)
H18 H -0.1156 0.3937 0.0624
C24 C -0.1410(3) 0.3534(2) 0.2326(2)
H19 H -0.1720 0.3160 0.2608
C25 C -0.0859(3) 0.4150(2) 0.2711(2)
H20 H -0.0817 0.4205 0.3242
C26 C 0.3476(3) 0.9092(2) 0.3891(2)
H21 H 0.3127 0.9141 0.3401
C27 C 0.4107(2) 0.9726(2) 0.4136(2)
H22 H 0.4172 1.0196 0.3820
C28 C 0.4649(2) 0.9664(2) 0.4859(2)
C29 C 0.4513(2) 0.8944(2) 0.5303(2)
H23 H 0.4866 0.8873 0.5789
C30 C 0.3858(2) 0.8339(2) 0.5024(2)
H24 H 0.3772 0.7866 0.5331
C31 C 0.3211(3) 0.6033(2) 0.4910(2)
H25 H 0.2688 0.6081 0.5139
C32 C 0.3859(3) 0.5422(3) 0.5189(2)
H26 H 0.3771 0.5071 0.5601
C33 C 0.4639(2) 0.5326(2) 0.4861(2)
C34 C 0.4710(3) 0.5869(3) 0.4248(2)
H27 H 0.5217 0.5825 0.3999
C35 C 0.4044(3) 0.6468(3) 0.4004(2)
H28 H 0.4117 0.6828 0.3594
O13 O 0.18700(18) 0.75543(17) 0.51069(15)
H29 H 0.1320 0.7655 0.5124
H30 H 0.2183 0.7637 0.5538
Cu2B Cu 0.76340(3) 0.24936(3) 0.60192(2)
Cu2A Cu -0.23660(3) 0.25064(3) 0.10192(2)
Cu2B_2 Cu 0.76340(3) 1.24936(3) 0.60192(2)
Cu2C Cu 1.23660(3) 0.74936(3) 0.89808(2)
N4B N 0.8516(2) 0.33985(19) 0.65237(17)
N5B N 0.6662(2) 1.15945(19) 0.56783(16)
N5B_2 N 0.6662(2) 0.15945(19) 0.56783(16)
N6B N 0.6704(2) 0.34409(19) 0.56740(17)
N7B N 1.1531(2) 0.65626(19) 0.84448(17)
N7A N 0.1531(2) 0.84374(19) 0.34448(17)
N7C N 0.8469(2) 0.15626(19) 0.65552(17)
C16B C 0.8387(3) 0.3740(3) 0.7197(2)
H13B H 0.7878 0.3562 0.7405
C17B C 0.8970(3) 0.4341(3) 0.7597(2)
H14B H 0.8860 0.4551 0.8069
C18B C 0.9721(3) 0.4631(2) 0.7291(2)
C19B C 0.9854(3) 0.4279(3) 0.6590(2)
H15B H 1.0350 0.4454 0.6363
C20B C 0.9243(3) 0.3667(2) 0.6236(2)
H16B H 0.9347 0.3431 0.5771
C21B C 1.0354(2) 0.5298(2) 0.7689(2)
C22B C 1.0482(3) 0.5396(2) 0.8487(2)
H17B H 1.0167 0.5038 0.8781
C23B C 1.1071(3) 0.6017(2) 0.8841(2)
H18B H 1.1156 0.6063 0.9376
C24B C 1.1410(3) 0.6466(2) 0.7674(2)
H19B H 1.1720 0.6840 0.7392
C25B C 1.0859(3) 0.5850(2) 0.7289(2)
H20B H 1.0817 0.5795 0.6758
C26B C 0.6524(3) 1.0908(2) 0.6109(2)
H21B H 0.6873 1.0859 0.6599
C27B C 0.5893(2) 1.0274(2) 0.5864(2)
H22B H 0.5828 0.9804 0.6180
C28B C 0.5351(2) 1.0336(2) 0.5141(2)
C29B C 0.5487(2) 1.1056(2) 0.4697(2)
H23B H 0.5134 1.1127 0.4211
C30B C 0.6142(2) 1.1661(2) 0.4976(2)
H24B H 0.6228 1.2134 0.4669
C31B C 0.6789(3) 0.3967(2) 0.5090(2)
H25B H 0.7312 0.3919 0.4861
C32B C 0.6141(3) 0.4578(3) 0.4811(2)
H26B H 0.6229 0.4929 0.4399
C33B C 0.5361(2) 0.4674(2) 0.5139(2)
C34B C 0.5290(3) 0.4131(3) 0.5752(2)
H27B H 0.4783 0.4175 0.6001
C35B C 0.5956(3) 0.3532(3) 0.5996(2)
H28B H 0.5883 0.3172 0.6406
O13B O 0.81300(18) 0.24457(17) 0.48931(15)
H29B H 0.8680 0.2345 0.4876
H30B H 0.7817 0.2363 0.4462
N8 N 0.3456(3) 0.7581(2) 0.1921(2)
O10 O 0.3489(2) 0.7724(2) 0.26166(16)
O11 O 0.2807(2) 0.7129(2) 0.15740(17)
O12 O 0.4020(2) 0.7889(2) 0.15521(18)
O14 O 0.0183(2) 0.7840(2) 0.53892(18)
H31 H -0.0208 0.8067 0.5038
H32 H 0.0027 0.7342 0.5524
loop_
_geom_bond_atom_site_label_1
_geom_bond_atom_site_label_2
_geom_bond_site_symmetry_1
_geom_bond_site_symmetry_2
Cu1 O1 1_555 1_555
Cu2 N4 1_555 1_555
S1 O1 1_555 1_555
S2 O4 1_555 1_555
S3 O7 1_555 1_555
O2 S1 1_555 1_555
O3 S1 1_555 1_555
O5 S2 1_555 1_555
O6 Cu1 1_555 1_555
O7 Cu1 1_555 1_555
O8 S3 1_555 1_555
O9 S3 1_555 1_555
N1 Cu1 1_555 1_555
N2 Cu1 1_555 1_555
N3 Cu1 1_555 1_555
N4 C16 1_555 1_555
N5 Cu2 1_555 1_555
N6 Cu2 1_555 1_555
N7 C23 1_555 1_555
N8 O10 1_555 1_555
O11 N8 1_555 1_555
O12 N8 1_555 1_555
C1 S1 1_555 1_555
C2 C1 1_555 1_555
H1 C2 1_555 1_555
C3 C2 1_555 1_555
H2 C3 1_555 1_555
C4 C3 1_555 1_555
H3 C4 1_555 1_555
C5 N1 1_555 1_555
H4 C5 1_555 1_555
C6 S2 1_555 1_555
C7 C6 1_555 1_555
H5 C7 1_555 1_555
C8 C7 1_555 1_555
H6 C8 1_555 1_555
C9 C8 1_555 1_555
H7 C9 1_555 1_555
C10 N2 1_555 1_555
H8 C10 1_555 1_555
C11 N3 1_555 1_555
H9 C11 1_555 1_555
C12 C11 1_555 1_555
H10 C12 1_555 1_555
C13 C12 1_555 1_555
H11 C13 1_555 1_555
C14 C13 1_555 1_555
H12 C14 1_555 1_555
C15 S3 1_555 1_555
C16 H13 1_555 1_555
C17 C16 1_555 1_555
H14 C17 1_555 1_555
C18 C17 1_555 1_555
C19 C18 1_555 1_555
H15 C19 1_555 1_555
C20 N4 1_555 1_555
H16 C20 1_555 1_555
C21 C18 1_555 1_555
C22 C21 1_555 1_555
H17 C22 1_555 1_555
C23 C22 1_555 1_555
H18 C23 1_555 1_555
C24 N7 1_555 1_555
H19 C24 1_555 1_555
C25 C21 1_555 1_555
H20 C25 1_555 1_555
C26 N5 1_555 1_555
H21 C26 1_555 1_555
C27 C26 1_555 1_555
H22 C27 1_555 1_555
C28 C27 1_555 1_555
C29 C28 1_555 1_555
H23 C29 1_555 1_555
C30 N5 1_555 1_555
H24 C30 1_555 1_555
C31 N6 1_555 1_555
H25 C31 1_555 1_555
C32 C31 1_555 1_555
H26 C32 1_555 1_555
C33 C32 1_555 1_555
C34 C33 1_555 1_555
H27 C34 1_555 1_555
C35 N6 1_555 1_555
H28 C35 1_555 1_555
O13 Cu2 1_555 1_555
H29 O13 1_555 1_555
H30 O13 1_555 1_555
O14 H31 1_555 1_555
H32 O14 1_555 1_555
Cu2B N4B 1_555 1_555
Cu2A N7 1_555 1_555
Cu2B_2 N5B 1_555 1_555
Cu2C N7B 1_555 1_555
N4B C16B 1_555 1_555
N5B C26B 1_555 1_555
N5B_2 Cu2B 1_555 1_555
N6B Cu2B 1_555 1_555
N7B C23B 1_555 1_555
N7A Cu2 1_555 1_555
N7C Cu2B 1_555 1_555
C16B H13B 1_555 1_555
C17B C16B 1_555 1_555
H14B C17B 1_555 1_555
C18B C17B 1_555 1_555
C19B C18B 1_555 1_555
H15B C19B 1_555 1_555
C20B N4B 1_555 1_555
H16B C20B 1_555 1_555
C21B C18B 1_555 1_555
C22B C21B 1_555 1_555
H17B C22B 1_555 1_555
C23B C22B 1_555 1_555
H18B C23B 1_555 1_555
C24B N7B 1_555 1_555
H19B C24B 1_555 1_555
C25B C21B 1_555 1_555
H20B C25B 1_555 1_555
C26B H21B 1_555 1_555
C27B C26B 1_555 1_555
H22B C27B 1_555 1_555
C28B C28 1_555 1_555
C29B C28B 1_555 1_555
H23B C29B 1_555 1_555
C30B N5B 1_555 1_555
H24B C30B 1_555 1_555
C31B N6B 1_555 1_555
H25B C31B 1_555 1_555
C32B C31B 1_555 1_555
H26B C32B 1_555 1_555
C33B C33 1_555 1_555
C34B C33B 1_555 1_555
H27B C34B 1_555 1_555
C35B N6B 1_555 1_555
H28B C35B 1_555 1_555
O13B Cu2B 1_555 1_555
H29B O13B 1_555 1_555
H30B O13B 1_555 1_555
S2 O6 1_555 1_555
N1 C1 1_555 1_555
N2 C6 1_555 1_555
N3 C15 1_555 1_555
C4 C5 1_555 1_555
C9 C10 1_555 1_555
C14 C15 1_555 1_555
C19 C20 1_555 1_555
C24 C25 1_555 1_555
C29 C30 1_555 1_555
C34 C35 1_555 1_555
C19B C20B 1_555 1_555
C24B C25B 1_555 1_555
C27B C28B 1_555 1_555
C29B C30B 1_555 1_555
C32B C33B 1_555 1_555
C34B C35B 1_555 1_555

#END
