
#######################################################################
#
#                 Cambridge Crystallographic Data Centre
#                                CCDC 
#
#######################################################################
#
# If this CIF has been generated from an entry in the Cambridge 
# Structural Database, then it will include bibliographic, chemical, 
# crystal, experimental, refinement or atomic coordinate data resulting 
# from the CCDC's data processing and validation procedures.
#
#######################################################################

data_OXAPIN
_symmetry_cell_setting           monoclinic
_symmetry_space_group_name_H-M   'P 21/c'
_symmetry_Int_Tables_number      14
_space_group_name_Hall           '-P 2ybc'
loop_
_symmetry_equiv_pos_site_id
_symmetry_equiv_pos_as_xyz
1 x,y,z
2 -x,1/2+y,1/2-z
3 -x,-y,-z
4 x,1/2-y,1/2+z
_cell_length_a                   14.8167(14)
_cell_length_b                   15.4781(14)
_cell_length_c                   17.7192(16)
_cell_angle_alpha                90
_cell_angle_beta                 99.8770(10)
_cell_angle_gamma                90
_cell_volume                     4003.39
loop_
_atom_site_label
_atom_site_type_symbol
_atom_site_fract_x
_atom_site_fract_y
_atom_site_fract_z
Cu1 Cu 0.24093(4) 0.23411(3) 0.09608(3)
S1 S 0.18941(8) 0.42918(7) 0.04678(6)
S2 S 0.13646(9) 0.10139(8) -0.01021(7)
S3 S 0.33674(8) 0.10323(7) 0.22305(7)
O1 O 0.1412(2) 0.3482(2) 0.0544(2)
O2 O 0.1419(2) 0.5034(2) 0.0677(2)
O3 O 0.2214(2) 0.4369(2) -0.02432(18)
O4 O 0.0596(2) 0.1230(3) -0.06840(19)
O5 O 0.1508(3) 0.0114(2) 0.0032(2)
O6 O 0.1370(2) 0.1517(2) 0.05989(17)
O7 O 0.3419(2) 0.1311(2) 0.14541(17)
O8 O 0.3162(3) 0.0136(2) 0.2288(2)
O9 O 0.4138(2) 0.1331(2) 0.27879(19)
N1 N 0.3258(2) 0.3389(2) 0.1296(2)
N2 N 0.2786(2) 0.2078(2) -0.00523(19)
N3 N 0.2038(2) 0.2237(2) 0.19903(19)
C1 C 0.2918(3) 0.4197(3) 0.1172(2)
C2 C 0.3346(3) 0.4920(3) 0.1504(3)
H1 H 0.3081 0.5463 0.1412
C3 C 0.4185(3) 0.4822(4) 0.1982(3)
H2 H 0.4493 0.5299 0.2218
C4 C 0.4556(3) 0.4007(4) 0.2100(3)
H3 H 0.5125 0.3930 0.2407
C5 C 0.4078(3) 0.3310(3) 0.1762(3)
H4 H 0.4328 0.2762 0.1857
C6 C 0.2343(3) 0.1426(3) -0.0446(2)
C7 C 0.2598(4) 0.1082(4) -0.1097(3)
H5 H 0.2268 0.0632 -0.1360
C8 C 0.3354(5) 0.1424(4) -0.1347(3)
H6 H 0.3551 0.1199 -0.1777
C9 C 0.3809(4) 0.2095(4) -0.0956(3)
H7 H 0.4315 0.2338 -0.1121
C10 C 0.3511(3) 0.2410(3) -0.0313(3)
H8 H 0.3824 0.2870 -0.0050
C11 C 0.1328(3) 0.2684(3) 0.2179(3)
H9 H 0.1062 0.3118 0.1852
C12 C 0.0985(3) 0.2521(3) 0.2837(3)
H10 H 0.0498 0.2844 0.2955
C13 C 0.1371(3) 0.1871(3) 0.3321(3)
H11 H 0.1146 0.1750 0.3769
C14 C 0.2090(3) 0.1405(3) 0.3135(2)
H12 H 0.2361 0.0965 0.3453
C15 C 0.2400(3) 0.1606(3) 0.2466(2)
Cu2 Cu 0.23796(3) 0.75069(3) 0.39556(3)
N4 N 0.1489(2) 0.66001(19) 0.34534(19)
N5 N 0.3347(2) 0.84042(19) 0.43088(17)
N6 N 0.3307(2) 0.65643(19) 0.43072(18)
N7 N -0.1532(2) 0.34402(19) 0.15754(19)
C16 C 0.1611(3) 0.6251(3) 0.2790(3)
H13 H 0.2118 0.6423 0.2583
C17 C 0.1033(3) 0.5654(3) 0.2399(3)
H14 H 0.1140 0.5440 0.1932
C18 C 0.0279(3) 0.5369(2) 0.2708(2)
C19 C 0.0154(3) 0.5730(3) 0.3396(2)
H15 H -0.0339 0.5561 0.3624
C20 C 0.0764(3) 0.6341(3) 0.3745(3)
H16 H 0.0664 0.6583 0.4204
C21 C -0.0358(3) 0.4704(2) 0.2316(2)
C22 C -0.0490(3) 0.4602(3) 0.1521(2)
H17 H -0.0178 0.4952 0.1226
C23 C -0.1084(3) 0.3980(2) 0.1179(2)
H18 H -0.1180 0.3932 0.0648
C24 C -0.1403(3) 0.3539(3) 0.2341(2)
H19 H -0.1709 0.3166 0.2623
C25 C -0.0849(3) 0.4157(3) 0.2724(2)
H20 H -0.0797 0.4213 0.3252
C26 C 0.3487(3) 0.9088(2) 0.3888(2)
H21 H 0.3136 0.9142 0.3402
C27 C 0.4120(3) 0.9717(2) 0.4133(2)
H22 H 0.4194 1.0179 0.3814
C28 C 0.4652(2) 0.9666(2) 0.4856(2)
C29 C 0.4504(3) 0.8951(2) 0.5295(2)
H23 H 0.4847 0.8882 0.5783
C30 C 0.3862(3) 0.8351(2) 0.5016(2)
H24 H 0.3773 0.7883 0.5325
C31 C 0.3221(3) 0.6038(3) 0.4891(3)
H25 H 0.2701 0.6090 0.5117
C32 C 0.3858(3) 0.5426(3) 0.5173(3)
H26 H 0.3763 0.5076 0.5579
C33 C 0.4642(3) 0.5326(2) 0.4856(2)
C34 C 0.4724(3) 0.5868(3) 0.4252(3)
H27 H 0.5234 0.5826 0.4013
C35 C 0.4061(3) 0.6466(3) 0.4005(3)
H28 H 0.4142 0.6825 0.3601
O13 O 0.18800(19) 0.75542(17) 0.50847(16)
H29 H 0.1330 0.7655 0.5102
H30 H 0.2193 0.7637 0.5516
Cu2B Cu 0.76204(3) 0.24931(3) 0.60444(3)
Cu2A Cu -0.23796(3) 0.25069(3) 0.10444(3)
Cu2B_2 Cu 0.76204(3) 1.24931(3) 0.60444(3)
Cu2C Cu 1.23796(3) 0.74931(3) 0.89556(3)
N4B N 0.8511(2) 0.33999(19) 0.65466(19)
N5B N 0.6653(2) 1.15958(19) 0.56912(17)
N5B_2 N 0.6653(2) 0.15958(19) 0.56912(17)
N6B N 0.6693(2) 0.34357(19) 0.56928(18)
N7B N 1.1532(2) 0.65598(19) 0.84246(19)
N7A N 0.1532(2) 0.84402(19) 0.34246(19)
N7C N 0.8468(2) 0.15598(19) 0.65754(19)
C16B C 0.8389(3) 0.3749(3) 0.7210(3)
H13B H 0.7882 0.3577 0.7417
C17B C 0.8967(3) 0.4346(3) 0.7601(3)
H14B H 0.8860 0.4560 0.8068
C18B C 0.9721(3) 0.4631(2) 0.7292(2)
C19B C 0.9846(3) 0.4270(3) 0.6604(2)
H15B H 1.0339 0.4439 0.6376
C20B C 0.9236(3) 0.3659(3) 0.6255(3)
H16B H 0.9336 0.3417 0.5796
C21B C 1.0358(3) 0.5296(2) 0.7684(2)
C22B C 1.0490(3) 0.5398(3) 0.8479(2)
H17B H 1.0178 0.5048 0.8774
C23B C 1.1084(3) 0.6020(2) 0.8821(2)
H18B H 1.1180 0.6068 0.9352
C24B C 1.1403(3) 0.6461(3) 0.7659(2)
H19B H 1.1709 0.6834 0.7377
C25B C 1.0849(3) 0.5843(3) 0.7276(2)
H20B H 1.0797 0.5787 0.6748
C26B C 0.6513(3) 1.0912(2) 0.6112(2)
H21B H 0.6864 1.0858 0.6598
C27B C 0.5880(3) 1.0283(2) 0.5867(2)
H22B H 0.5806 0.9821 0.6186
C28B C 0.5348(2) 1.0334(2) 0.5144(2)
C29B C 0.5496(3) 1.1049(2) 0.4705(2)
H23B H 0.5153 1.1118 0.4217
C30B C 0.6138(3) 1.1649(2) 0.4984(2)
H24B H 0.6227 1.2117 0.4675
C31B C 0.6779(3) 0.3962(3) 0.5109(3)
H25B H 0.7299 0.3910 0.4883
C32B C 0.6142(3) 0.4574(3) 0.4827(3)
H26B H 0.6237 0.4924 0.4421
C33B C 0.5358(3) 0.4674(2) 0.5144(2)
C34B C 0.5276(3) 0.4132(3) 0.5748(3)
H27B H 0.4766 0.4174 0.5987
C35B C 0.5939(3) 0.3534(3) 0.5995(3)
H28B H 0.5858 0.3175 0.6399
O13B O 0.81200(19) 0.24458(17) 0.49153(16)
H29B H 0.8670 0.2345 0.4898
H30B H 0.7807 0.2363 0.4484
N8 N 0.3462(3) 0.7567(3) 0.1921(2)
O10 O 0.3474(3) 0.7703(2) 0.26080(18)
O11 O 0.2814(3) 0.7134(3) 0.1561(2)
O12 O 0.4023(3) 0.7872(3) 0.1565(2)
O14 O 0.0202(3) 0.7864(3) 0.5392(2)
H31 H -0.0189 0.8091 0.5041
H32 H 0.0046 0.7366 0.5527
loop_
_geom_bond_atom_site_label_1
_geom_bond_atom_site_label_2
_geom_bond_site_symmetry_1
_geom_bond_site_symmetry_2
Cu1 O1 1_555 1_555
Cu2 N4 1_555 1_555
S1 O1 1_555 1_555
S2 O4 1_555 1_555
S3 O7 1_555 1_555
O2 S1 1_555 1_555
O3 S1 1_555 1_555
O5 S2 1_555 1_555
O6 Cu1 1_555 1_555
O7 Cu1 1_555 1_555
O8 S3 1_555 1_555
O9 S3 1_555 1_555
N1 Cu1 1_555 1_555
N2 Cu1 1_555 1_555
N3 Cu1 1_555 1_555
N4 C16 1_555 1_555
N5 Cu2 1_555 1_555
N6 Cu2 1_555 1_555
N7 C23 1_555 1_555
N8 O10 1_555 1_555
O11 N8 1_555 1_555
O12 N8 1_555 1_555
C1 S1 1_555 1_555
C2 C1 1_555 1_555
H1 C2 1_555 1_555
C3 C2 1_555 1_555
H2 C3 1_555 1_555
C4 C3 1_555 1_555
H3 C4 1_555 1_555
C5 N1 1_555 1_555
H4 C5 1_555 1_555
C6 S2 1_555 1_555
C7 C6 1_555 1_555
H5 C7 1_555 1_555
C8 C7 1_555 1_555
H6 C8 1_555 1_555
C9 C8 1_555 1_555
H7 C9 1_555 1_555
C10 N2 1_555 1_555
H8 C10 1_555 1_555
C11 N3 1_555 1_555
H9 C11 1_555 1_555
C12 C11 1_555 1_555
H10 C12 1_555 1_555
C13 C12 1_555 1_555
H11 C13 1_555 1_555
C14 C13 1_555 1_555
H12 C14 1_555 1_555
C15 S3 1_555 1_555
C16 H13 1_555 1_555
C17 C16 1_555 1_555
H14 C17 1_555 1_555
C18 C17 1_555 1_555
C19 C18 1_555 1_555
H15 C19 1_555 1_555
C20 N4 1_555 1_555
H16 C20 1_555 1_555
C21 C18 1_555 1_555
C22 C21 1_555 1_555
H17 C22 1_555 1_555
C23 C22 1_555 1_555
H18 C23 1_555 1_555
C24 N7 1_555 1_555
H19 C24 1_555 1_555
C25 C21 1_555 1_555
H20 C25 1_555 1_555
C26 N5 1_555 1_555
H21 C26 1_555 1_555
C27 C26 1_555 1_555
H22 C27 1_555 1_555
C28 C27 1_555 1_555
C29 C28 1_555 1_555
H23 C29 1_555 1_555
C30 N5 1_555 1_555
H24 C30 1_555 1_555
C31 N6 1_555 1_555
H25 C31 1_555 1_555
C32 C31 1_555 1_555
H26 C32 1_555 1_555
C33 C32 1_555 1_555
C34 C33 1_555 1_555
H27 C34 1_555 1_555
C35 N6 1_555 1_555
H28 C35 1_555 1_555
O13 Cu2 1_555 1_555
H29 O13 1_555 1_555
H30 O13 1_555 1_555
O14 H31 1_555 1_555
H32 O14 1_555 1_555
Cu2B N4B 1_555 1_555
Cu2A N7 1_555 1_555
Cu2B_2 N5B 1_555 1_555
Cu2C N7B 1_555 1_555
N4B C16B 1_555 1_555
N5B C26B 1_555 1_555
N5B_2 Cu2B 1_555 1_555
N6B Cu2B 1_555 1_555
N7B C23B 1_555 1_555
N7A Cu2 1_555 1_555
N7C Cu2B 1_555 1_555
C16B H13B 1_555 1_555
C17B C16B 1_555 1_555
H14B C17B 1_555 1_555
C18B C17B 1_555 1_555
C19B C18B 1_555 1_555
H15B C19B 1_555 1_555
C20B N4B 1_555 1_555
H16B C20B 1_555 1_555
C21B C18B 1_555 1_555
C22B C21B 1_555 1_555
H17B C22B 1_555 1_555
C23B C22B 1_555 1_555
H18B C23B 1_555 1_555
C24B N7B 1_555 1_555
H19B C24B 1_555 1_555
C25B C21B 1_555 1_555
H20B C25B 1_555 1_555
C26B H21B 1_555 1_555
C27B C26B 1_555 1_555
H22B C27B 1_555 1_555
C28B C28 1_555 1_555
C29B C28B 1_555 1_555
H23B C29B 1_555 1_555
C30B N5B 1_555 1_555
H24B C30B 1_555 1_555
C31B N6B 1_555 1_555
H25B C31B 1_555 1_555
C32B C31B 1_555 1_555
H26B C32B 1_555 1_555
C33B C33 1_555 1_555
C34B C33B 1_555 1_555
H27B C34B 1_555 1_555
C35B N6B 1_555 1_555
H28B C35B 1_555 1_555
O13B Cu2B 1_555 1_555
H29B O13B 1_555 1_555
H30B O13B 1_555 1_555
S2 O6 1_555 1_555
N1 C1 1_555 1_555
N2 C6 1_555 1_555
N3 C15 1_555 1_555
C4 C5 1_555 1_555
C9 C10 1_555 1_555
C14 C15 1_555 1_555
C19 C20 1_555 1_555
C24 C25 1_555 1_555
C29 C30 1_555 1_555
C34 C35 1_555 1_555
C19B C20B 1_555 1_555
C24B C25B 1_555 1_555
C27B C28B 1_555 1_555
C29B C30B 1_555 1_555
C32B C33B 1_555 1_555
C34B C35B 1_555 1_555

#END
