
#######################################################################
#
#                 Cambridge Crystallographic Data Centre
#                                CCDC 
#
#######################################################################
#
# If this CIF has been generated from an entry in the Cambridge 
# Structural Database, then it will include bibliographic, chemical, 
# crystal, experimental, refinement or atomic coordinate data resulting 
# from the CCDC's data processing and validation procedures.
#
#######################################################################

data_OXAQOU
_symmetry_cell_setting           hexagonal
_symmetry_space_group_name_H-M   'P 63'
_symmetry_Int_Tables_number      173
_space_group_name_Hall           'P 6c'
loop_
_symmetry_equiv_pos_site_id
_symmetry_equiv_pos_as_xyz
1 x,y,z
2 -y,x-y,z
3 -x+y,-x,z
4 -x,-y,1/2+z
5 y,-x+y,1/2+z
6 x-y,x,1/2+z
_cell_length_a                   13.528(2)
_cell_length_b                   13.528(2)
_cell_length_c                   17.410(3)
_cell_angle_alpha                90
_cell_angle_beta                 90
_cell_angle_gamma                120
_cell_volume                     2759.29
loop_
_atom_site_label
_atom_site_type_symbol
_atom_site_fract_x
_atom_site_fract_y
_atom_site_fract_z
Eu1 Eu -0.3333 0.3333 0.99153(8)
N1 N 0.0036(7) 0.4593(8) 0.9112(6)
H1 H 0.0701 0.5101 0.8954
N2 N -0.1548(6) 0.5192(6) 1.0827(5)
O1 O 0.1327(4) 0.6101(5) 0.8053(3)
O2 O -0.1791(6) 0.3965(6) 0.9046(4)
O3 O -0.1947(6) 0.5418(5) 1.0253(4)
O4 O -0.1894(6) 0.4097(7) 1.0926(5)
O5 O -0.0895(7) 0.5915(7) 1.1284(5)
C1 C 0.3333 0.6667 0.8954(8)
H2 H 0.2694 0.5971 0.9137
C2 C 0.3333 0.6667 0.8069(8)
C3 C 0.2427(6) 0.6921(7) 0.7739(5)
H3 H 0.2610 0.7689 0.7875
H4 H 0.2411 0.6862 0.7183
C4 C -0.0831(7) 0.4589(7) 0.8801(5)
C5 C -0.0659(7) 0.5378(7) 0.8144(5)
C6 C 0.0383(7) 0.6111(7) 0.7798(5)
C7 C 0.0419(8) 0.6805(8) 0.7195(5)
H5 H 0.1108 0.7279 0.6949
C8 C -0.0552(9) 0.6794(11) 0.6962(7)
H6 H -0.0511 0.7266 0.6560
C9 C -0.1592(8) 0.6099(10) 0.7309(7)
H7 H -0.2243 0.6118 0.7162
C10 C -0.1630(8) 0.5376(10) 0.7880(6)
H8 H -0.2332 0.4867 0.8098
C11 C -0.0010(10) 0.3800(11) 0.9718(7)
H9 H -0.0796 0.3212 0.9806
H10 H 0.0291 0.4215 1.0195
C12 C 0.0677(9) 0.3258(11) 0.9482(8)
C13 C 0.1654(9) 0.3554(11) 0.9876(10)
H11 H 0.1887 0.4086 1.0272
C14 C 0.2304(12) 0.3050(14) 0.9682(10)
H12 H 0.2946 0.3203 0.9967
C15 C 0.1982(15) 0.2333(15) 0.9068(12)
H13 H 0.2434 0.2023 0.8926
C16 C 0.1030(16) 0.2052(16) 0.8654(10)
H14 H 0.0823 0.1559 0.8237
C17 C 0.0377(14) 0.2529(16) 0.8876(10)
H15 H -0.0285 0.2346 0.8604
Eu1_2 Eu 0.6667 0.3333 0.99153(8)
Eu1_3 Eu 0.6667 1.3333 0.99153(8)
N1A N 0.5407(8) 0.5443(11) 0.9112(6)
N1B N 0.4557(11) 0.9964(7) 0.9112(6)
H1A H 0.4899 0.5600 0.8954
H1B H 0.4400 0.9299 0.8954
N2B N -0.3260(8) 0.1548(6) 1.0827(5)
N2A N -0.5192(6) 0.3260(8) 1.0827(5)
O1A O 0.3899(5) 0.5226(6) 0.8053(3)
O1B O 0.4774(6) 0.8673(4) 0.8053(3)
O2A O 0.6035(6) 0.4244(8) 0.9046(4)
O2B O 0.5756(8) 1.1791(6) 0.9046(4)
O2A_2 O -0.3965(6) 0.4244(8) 0.9046(4)
O2B_2 O -0.4244(8) 0.1791(6) 0.9046(4)
O3B O -0.2635(8) 0.1947(6) 1.0253(4)
O3A O -0.5418(5) 0.2635(8) 1.0253(4)
O4B O -0.4009(9) 0.1894(6) 1.0926(5)
O4A O -0.4097(7) 0.4009(9) 1.0926(5)
O5B O -0.3190(10) 0.0895(7) 1.1284(5)
O5A O -0.5915(7) 0.3190(10) 1.1284(5)
H2A H 0.4029 0.6723 0.9137
H2B H 0.3277 0.7306 0.9137
C3A C 0.3079(7) 0.5506(9) 0.7739(5)
C3B C 0.4494(9) 0.7573(6) 0.7739(5)
H3A H 0.2311 0.4921 0.7875
H3B H 0.5079 0.7390 0.7875
H4A H 0.3138 0.5549 0.7183
H4B H 0.4451 0.7589 0.7183
C4A C 0.5411(7) 0.4580(10) 0.8801(5)
C4B C 0.5420(10) 1.0831(7) 0.8801(5)
C5A C 0.4622(7) 0.3963(10) 0.8144(5)
C5B C 0.6037(10) 1.0659(7) 0.8144(5)
C6A C 0.3889(7) 0.4272(10) 0.7798(5)
C6B C 0.5728(10) 0.9617(7) 0.7798(5)
C7A C 0.3195(8) 0.3614(11) 0.7195(5)
C7B C 0.6386(11) 0.9581(8) 0.7195(5)
H5A H 0.2721 0.3829 0.6949
H5B H 0.6171 0.8892 0.6949
C8A C 0.3206(11) 0.2654(14) 0.6962(7)
C8B C 0.7346(14) 1.0552(9) 0.6962(7)
H6A H 0.2734 0.2223 0.6560
H6B H 0.7777 1.0511 0.6560
C9A C 0.3901(10) 0.2309(13) 0.7309(7)
C9B C 0.7691(13) 1.1592(8) 0.7309(7)
H7A H 0.3882 0.1639 0.7162
H7B H 0.8361 1.2243 0.7162
C10A C 0.4624(10) 0.2994(13) 0.7880(6)
C10B C 0.7006(13) 1.1630(8) 0.7880(6)
H8A H 0.5133 0.2801 0.8098
H8B H 0.7199 1.2332 0.8098
C11A C 0.6200(11) 0.6190(15) 0.9718(7)
C11B C 0.3810(15) 1.0010(10) 0.9718(7)
H9A H 0.6788 0.5992 0.9806
H9B H 0.4008 1.0796 0.9806
H10A H 0.5785 0.6076 1.0195
H10B H 0.3924 0.9709 1.0195
C12A C 0.6742(11) 0.7419(14) 0.9482(8)
C12B C 0.2581(14) 0.9323(9) 0.9482(8)
C13A C 0.6446(11) 0.8100(14) 0.9876(10)
C13B C 0.1900(14) 0.8346(9) 0.9876(10)
H11A H 0.5914 0.7801 1.0272
H11B H 0.2199 0.8113 1.0272
C14A C 0.6950(14) 0.9254(18) 0.9682(10)
C14B C 0.0746(18) 0.7696(12) 0.9682(10)
H12A H 0.6797 0.9743 0.9967
H12B H 0.0257 0.7054 0.9967
C15A C 0.7667(15) 0.9649(21) 0.9068(12)
C15B C 0.0351(21) 0.8018(15) 0.9068(12)
H13A H 0.7977 1.0411 0.8926
H13B H -0.0411 0.7566 0.8926
C16A C 0.7948(16) 0.8978(23) 0.8654(10)
C16B C 0.1022(23) 0.8970(16) 0.8654(10)
H14A H 0.8441 0.9264 0.8237
H14B H 0.0736 0.9177 0.8237
C17A C 0.7471(16) 0.7848(21) 0.8876(10)
C17B C 0.2152(21) 0.9623(14) 0.8876(10)
H15A H 0.7654 0.7369 0.8604
H15B H 0.2631 1.0285 0.8604
Cl1 Cl 0.1353(9) 0.0991(9) 0.1075(7)
C18 C 0.0000 0.0000 0.090(3)
H16 H 0.0000 0.0000 0.0334
Cl1A Cl -0.0991(9) 0.0362(13) 0.1075(7)
Cl1B Cl -0.0362(13) -0.1353(9) 0.1075(7)
Cl2 Cl 0.1903(14) 0.6104(15) 0.1110(12)
C19 C 0.3333 0.6667 0.132(6)
H17 H 0.3333 0.6667 0.1886
Cl2A Cl 0.3896(15) 0.5799(21) 0.1110(12)
Cl2B Cl 0.4201(21) 0.8097(14) 0.1110(12)
loop_
_geom_bond_atom_site_label_1
_geom_bond_atom_site_label_2
_geom_bond_site_symmetry_1
_geom_bond_site_symmetry_2
Eu1 O2 1_555 1_555
Cl1 C18 1_555 1_555
Cl2 C19 1_555 1_555
N1 H1 1_555 1_555
N2 O3 1_555 1_555
O1 C3 1_555 1_555
O2 C4 1_555 1_555
O3 Eu1 1_555 1_555
O4 Eu1 1_555 1_555
O5 N2 1_555 1_555
C1 H2 1_555 1_555
C2 C1 1_555 1_555
C3 C2 1_555 1_555
H3 C3 1_555 1_555
H4 C3 1_555 1_555
C4 N1 1_555 1_555
C5 C4 1_555 1_555
C6 O1 1_555 1_555
C7 C6 1_555 1_555
H5 C7 1_555 1_555
C8 C7 1_555 1_555
H6 C8 1_555 1_555
C9 C8 1_555 1_555
H7 C9 1_555 1_555
C10 C5 1_555 1_555
H8 C10 1_555 1_555
C11 N1 1_555 1_555
H9 C11 1_555 1_555
H10 C11 1_555 1_555
C12 C11 1_555 1_555
C13 C12 1_555 1_555
H11 C13 1_555 1_555
C14 C13 1_555 1_555
H12 C14 1_555 1_555
C15 C14 1_555 1_555
H13 C15 1_555 1_555
C16 C15 1_555 1_555
H14 C16 1_555 1_555
C17 C12 1_555 1_555
H15 C17 1_555 1_555
C18 H16 1_555 1_555
C19 H17 1_555 1_555
Eu1_2 O2A 1_555 1_555
Eu1_3 O2B 1_555 1_555
Cl1A C18 1_555 1_555
Cl1B C18 1_555 1_555
Cl2A C19 1_555 1_555
Cl2B C19 1_555 1_555
N1A H1A 1_555 1_555
N1B H1B 1_555 1_555
N2B O3B 1_555 1_555
N2A O3A 1_555 1_555
O1A C3A 1_555 1_555
O1B C3B 1_555 1_555
O2A C4A 1_555 1_555
O2B C4B 1_555 1_555
O2A_2 Eu1 1_555 1_555
O2B_2 Eu1 1_555 1_555
O3B Eu1 1_555 1_555
O3A Eu1 1_555 1_555
O4B Eu1 1_555 1_555
O4A Eu1 1_555 1_555
O5B N2B 1_555 1_555
O5A N2A 1_555 1_555
H2A C1 1_555 1_555
H2B C1 1_555 1_555
C3A C2 1_555 1_555
C3B C2 1_555 1_555
H3A C3A 1_555 1_555
H3B C3B 1_555 1_555
H4A C3A 1_555 1_555
H4B C3B 1_555 1_555
C4A N1A 1_555 1_555
C4B N1B 1_555 1_555
C5A C4A 1_555 1_555
C5B C4B 1_555 1_555
C6A O1A 1_555 1_555
C6B O1B 1_555 1_555
C7A C6A 1_555 1_555
C7B C6B 1_555 1_555
H5A C7A 1_555 1_555
H5B C7B 1_555 1_555
C8A C7A 1_555 1_555
C8B C7B 1_555 1_555
H6A C8A 1_555 1_555
H6B C8B 1_555 1_555
C9A C8A 1_555 1_555
C9B C8B 1_555 1_555
H7A C9A 1_555 1_555
H7B C9B 1_555 1_555
C10A C5A 1_555 1_555
C10B C5B 1_555 1_555
H8A C10A 1_555 1_555
H8B C10B 1_555 1_555
C11A N1A 1_555 1_555
C11B N1B 1_555 1_555
H9A C11A 1_555 1_555
H9B C11B 1_555 1_555
H10A C11A 1_555 1_555
H10B C11B 1_555 1_555
C12A C11A 1_555 1_555
C12B C11B 1_555 1_555
C13A C12A 1_555 1_555
C13B C12B 1_555 1_555
H11A C13A 1_555 1_555
H11B C13B 1_555 1_555
C14A C13A 1_555 1_555
C14B C13B 1_555 1_555
H12A C14A 1_555 1_555
H12B C14B 1_555 1_555
C15A C14A 1_555 1_555
C15B C14B 1_555 1_555
H13A C15A 1_555 1_555
H13B C15B 1_555 1_555
C16A C15A 1_555 1_555
C16B C15B 1_555 1_555
H14A C16A 1_555 1_555
H14B C16B 1_555 1_555
C17A C12A 1_555 1_555
C17B C12B 1_555 1_555
H15A C17A 1_555 1_555
H15B C17B 1_555 1_555
N2 O4 1_555 1_555
C5 C6 1_555 1_555
C9 C10 1_555 1_555
C16 C17 1_555 1_555
N2B O4B 1_555 1_555
N2A O4A 1_555 1_555
C5A C6A 1_555 1_555
C5B C6B 1_555 1_555
C9A C10A 1_555 1_555
C9B C10B 1_555 1_555
C16A C17A 1_555 1_555
C16B C17B 1_555 1_555

#END
