
#######################################################################
#
#                 Cambridge Crystallographic Data Centre
#                                CCDC 
#
#######################################################################
#
# If this CIF has been generated from an entry in the Cambridge 
# Structural Database, then it will include bibliographic, chemical, 
# crystal, experimental, refinement or atomic coordinate data resulting 
# from the CCDC's data processing and validation procedures.
#
#######################################################################

data_OXAQIO
_symmetry_cell_setting           cubic
_symmetry_space_group_name_H-M   'P 21 3'
_symmetry_Int_Tables_number      198
_space_group_name_Hall           'P 2ac 2ab 3'
loop_
_symmetry_equiv_pos_site_id
_symmetry_equiv_pos_as_xyz
1 x,y,z
2 1/2-x,-y,1/2+z
3 -x,1/2+y,1/2-z
4 1/2+x,1/2-y,-z
5 z,x,y
6 1/2+z,1/2-x,-y
7 1/2-z,-x,1/2+y
8 -z,1/2+x,1/2-y
9 y,z,x
10 -y,1/2+z,1/2-x
11 1/2+y,1/2-z,-x
12 1/2-y,-z,1/2+x
_cell_length_a                   18.639(3)
_cell_length_b                   18.639(3)
_cell_length_c                   18.639(3)
_cell_angle_alpha                90
_cell_angle_beta                 90
_cell_angle_gamma                90
_cell_volume                     6475.42
loop_
_atom_site_label
_atom_site_type_symbol
_atom_site_fract_x
_atom_site_fract_y
_atom_site_fract_z
C1 C 0.34436(18) 0.84436(18) 0.65564(18)
H1 H 0.3530 0.8556 0.7052
C2 C 0.39118(16) 0.89118(16) 0.60882(16)
C3 C 0.37932(17) 0.87467(15) 0.52940(16)
H2 H 0.3302 0.8854 0.5160
H3 H 0.4110 0.9038 0.5002
C4 C 0.38620(16) 0.77191(16) 0.45074(16)
C5 C 0.36118(19) 0.81210(18) 0.39362(17)
H4 H 0.3505 0.8604 0.4002
C6 C 0.3519(2) 0.7811(2) 0.32666(17)
H5 H 0.3349 0.8087 0.2887
C7 C 0.36753(19) 0.7097(2) 0.31588(17)
H6 H 0.3606 0.6890 0.2710
C8 C 0.39371(17) 0.66896(18) 0.37218(17)
H7 H 0.4046 0.6209 0.3646
C9 C 0.40416(16) 0.69896(17) 0.44055(15)
C10 C 0.43352(19) 0.65006(17) 0.49656(17)
C11 C 0.4554(3) 0.66298(19) 0.69149(17)
C12 C 0.3908(3) 0.6702(3) 0.7196(4)
H8 H 0.3526 0.6529 0.6927
C13 C 0.3753(5) 0.6990(4) 0.7810(4)
H9 H 0.3282 0.7033 0.7968
C14 C 0.4299(5) 0.7219(3) 0.8201(3)
H10 H 0.4190 0.7398 0.8654
C15 C 0.4998(5) 0.7221(3) 0.8009(3)
H11 H 0.5354 0.7408 0.8304
C16 C 0.5156(4) 0.6915(3) 0.7322(3)
H12 H 0.5622 0.6899 0.7145
C17 C 0.48000(15) 0.45272(17) 0.24976(17)
C18 C 0.46871(16) 0.44957(17) 0.17660(16)
H13 H 0.4655 0.4916 0.1498
C19 C 0.46234(18) 0.38443(18) 0.14385(15)
C20 C 0.46794(18) 0.32133(18) 0.18274(16)
H14 H 0.4656 0.2770 0.1599
C21 C 0.47682(15) 0.32546(16) 0.25432(16)
C22 C 0.48193(15) 0.39104(17) 0.29487(16)
Eu1 Eu 0.462076(7) 0.462076(7) 0.462076(7)
N1 N 0.4365(3) 0.67268(19) 0.56252(17)
H15 H 0.4199 0.7145 0.5727
N2 N 0.49107(15) 0.52343(15) 0.28028(16)
N3 N 0.45067(14) 0.38022(19) 0.06629(15)
N4 N 0.48083(17) 0.25873(15) 0.29618(15)
O1 O 0.39411(12) 0.80000(11) 0.51819(10)
O2 O 0.45644(15) 0.58926(11) 0.48160(11)
O3 O 0.50242(13) 0.53031(13) 0.34532(13)
O4 O 0.49067(18) 0.57516(14) 0.24045(17)
O5 O 0.45735(14) 0.32223(15) 0.03715(13)
O6 O 0.43461(17) 0.43565(18) 0.03498(15)
O7 O 0.4296(2) 0.21899(18) 0.2933(2)
O8 O 0.53405(19) 0.24717(16) 0.33149(14)
O9 O 0.48618(11) 0.38926(11) 0.36280(12)
C23 C 0.4678(5) 0.6283(3) 0.6207(2)
H16 H 0.5189 0.6226 0.6127
H17 H 0.4460 0.5811 0.6203
H1G H 0.2948 0.8530 0.6444
H1J H 0.3556 0.7948 0.6470
C3G C 0.47060(16) 0.87932(17) 0.62533(15)
C3J C 0.37467(15) 0.97060(16) 0.62068(17)
H2G H 0.4840 0.8302 0.6146
H2J H 0.3854 0.9840 0.6698
H3G H 0.4998 0.9110 0.5962
H3J H 0.4038 0.9998 0.5890
C4G C 0.54926(16) 0.88620(16) 0.72809(16)
C4J C 0.27191(16) 1.04926(16) 0.61380(16)
C5G C 0.60638(17) 0.86118(19) 0.68790(18)
C5J C 0.31210(18) 1.10638(17) 0.63882(19)
H4G H 0.5998 0.8505 0.6396
H4J H 0.3604 1.0998 0.6495
C6G C 0.67334(17) 0.8519(2) 0.7189(2)
C6J C 0.2811(2) 1.17334(17) 0.6481(2)
H5G H 0.7113 0.8349 0.6913
H5J H 0.3087 1.2113 0.6651
C7G C 0.68412(17) 0.86753(19) 0.7903(2)
C7J C 0.2097(2) 1.18412(17) 0.63247(19)
H6G H 0.7290 0.8606 0.8110
H6J H 0.1890 1.2290 0.6394
C8G C 0.62782(17) 0.89371(17) 0.83104(18)
C8J C 0.16896(18) 1.12782(17) 0.60629(17)
H7G H 0.6354 0.9046 0.8791
H7J H 0.1209 1.1354 0.5954
C9G C 0.55945(15) 0.90416(16) 0.80104(17)
C9J C 0.19896(17) 1.05945(15) 0.59584(16)
C10G C 0.50344(17) 0.93352(19) 0.84994(17)
C10J C 0.15006(17) 1.00344(17) 0.56648(19)
C11G C 0.30851(17) 0.9554(3) 0.83702(19)
C11J C 0.16298(19) 0.80851(17) 0.5446(3)
C12G C 0.2804(4) 0.8908(3) 0.8298(3)
C12J C 0.1702(3) 0.7804(4) 0.6092(3)
H8G H 0.3073 0.8526 0.8471
H8J H 0.1529 0.8073 0.6474
C13G C 0.2190(4) 0.8753(5) 0.8010(4)
C13J C 0.1990(4) 0.7190(4) 0.6247(5)
H9G H 0.2032 0.8282 0.7967
H9J H 0.2033 0.7032 0.6718
C14G C 0.1799(3) 0.9299(5) 0.7781(3)
C14J C 0.2219(3) 0.6799(3) 0.5701(5)
H10G H 0.1346 0.9190 0.7602
H10J H 0.2398 0.6346 0.5810
C15G C 0.1991(3) 0.9998(5) 0.7779(3)
C15J C 0.2221(3) 0.6991(3) 0.5002(5)
H11G H 0.1696 1.0354 0.7592
H11J H 0.2408 0.6696 0.4646
C16G C 0.2678(3) 1.0156(4) 0.8085(3)
C16J C 0.1915(3) 0.7678(3) 0.4844(4)
H12G H 0.2855 1.0622 0.8101
H12J H 0.1899 0.7855 0.4378
C17D C 0.24976(17) 0.48000(15) 0.45272(17)
C17H C 0.45272(17) 0.24976(17) 0.48000(15)
C18D C 0.17660(16) 0.46871(16) 0.44957(17)
C18H C 0.44957(17) 0.17660(16) 0.46871(16)
H13D H 0.1498 0.4655 0.4916
H13H H 0.4916 0.1498 0.4655
C19D C 0.14385(15) 0.46234(18) 0.38443(18)
C19H C 0.38443(18) 0.14385(15) 0.46234(18)
C20D C 0.18274(16) 0.46794(18) 0.32133(18)
C20H C 0.32133(18) 0.18274(16) 0.46794(18)
H14D H 0.1599 0.4656 0.2770
H14H H 0.2770 0.1599 0.4656
C21D C 0.25432(16) 0.47682(15) 0.32546(16)
C21H C 0.32546(16) 0.25432(16) 0.47682(15)
C22D C 0.29487(16) 0.48193(15) 0.39104(17)
C22H C 0.39104(17) 0.29487(16) 0.48193(15)
Eu1B Eu 0.537924(7) 0.962076(7) 1.037924(7)
Eu1C Eu -0.037924(7) 1.037924(7) 0.537924(7)
N1G N 0.43748(17) 0.9365(3) 0.82732(19)
N1J N 0.17268(19) 0.93748(17) 0.5635(3)
H15G H 0.4273 0.9199 0.7855
H15J H 0.2145 0.9273 0.5801
N2D N 0.28028(16) 0.49107(15) 0.52343(15)
N2H N 0.52343(15) 0.28028(16) 0.49107(15)
N3D N 0.06629(15) 0.45067(14) 0.38022(19)
N3H N 0.38022(19) 0.06629(15) 0.45067(14)
N4D N 0.29618(15) 0.48083(17) 0.25873(15)
N4H N 0.25873(15) 0.29618(15) 0.48083(17)
O1G O 0.48181(10) 0.89411(12) 0.70000(11)
O1J O 0.30000(11) 0.98181(10) 0.60589(12)
O2G O 0.51840(11) 0.95644(15) 0.91074(11)
O2J O 0.08926(11) 1.01840(11) 0.54356(15)
O2D O 0.48160(11) 0.45644(15) 0.58926(11)
O2H O 0.58926(11) 0.48160(11) 0.45644(15)
O3D O 0.34532(13) 0.50242(13) 0.53031(13)
O3H O 0.53031(13) 0.34532(13) 0.50242(13)
O4D O 0.24045(17) 0.49067(18) 0.57516(14)
O4H O 0.57516(14) 0.24045(17) 0.49067(18)
O5D O 0.03715(13) 0.45735(14) 0.32223(15)
O5H O 0.32223(15) 0.03715(13) 0.45735(14)
O6D O 0.03498(15) 0.43461(17) 0.43565(18)
O6H O 0.43565(18) 0.03498(15) 0.43461(17)
O7D O 0.2933(2) 0.4296(2) 0.21899(18)
O7H O 0.21899(18) 0.2933(2) 0.4296(2)
O8D O 0.33149(14) 0.53405(19) 0.24717(16)
O8H O 0.24717(16) 0.33149(14) 0.53405(19)
O9D O 0.36280(12) 0.48618(11) 0.38926(11)
O9H O 0.38926(11) 0.36280(12) 0.48618(11)
C23G C 0.3793(2) 0.9678(5) 0.8717(3)
C23J C 0.1283(3) 0.8793(2) 0.5322(5)
H16G H 0.3873 1.0189 0.8774
H16J H 0.1226 0.8873 0.4811
H17G H 0.3797 0.9460 0.9189
H17J H 0.0811 0.8797 0.5540
loop_
_geom_bond_atom_site_label_1
_geom_bond_atom_site_label_2
_geom_bond_site_symmetry_1
_geom_bond_site_symmetry_2
C1 H1 1_555 1_555
C2 C1 1_555 1_555
C3 C2 1_555 1_555
H2 C3 1_555 1_555
H3 C3 1_555 1_555
C4 C5 1_555 1_555
C5 H4 1_555 1_555
C6 C5 1_555 1_555
H5 C6 1_555 1_555
C7 C6 1_555 1_555
H6 C7 1_555 1_555
C8 C7 1_555 1_555
H7 C8 1_555 1_555
C9 C4 1_555 1_555
C10 C9 1_555 1_555
C11 C12 1_555 1_555
C12 H8 1_555 1_555
C13 C12 1_555 1_555
H9 C13 1_555 1_555
C14 C13 1_555 1_555
H10 C14 1_555 1_555
C15 C14 1_555 1_555
H11 C15 1_555 1_555
C16 C11 1_555 1_555
H12 C16 1_555 1_555
C17 C18 1_555 1_555
C18 H13 1_555 1_555
C19 C18 1_555 1_555
C20 C19 1_555 1_555
H14 C20 1_555 1_555
C21 C20 1_555 1_555
C22 C17 1_555 1_555
Eu1 O2 1_555 1_555
N1 C10 1_555 1_555
H15 N1 1_555 1_555
N2 C17 1_555 1_555
N3 C19 1_555 1_555
N4 C21 1_555 1_555
O1 C3 1_555 1_555
O2 C10 1_555 1_555
O3 Eu1 1_555 1_555
O4 N2 1_555 1_555
O5 N3 1_555 1_555
O6 N3 1_555 1_555
O7 N4 1_555 1_555
O8 N4 1_555 1_555
O9 C22 1_555 1_555
C23 C11 1_555 1_555
H16 C23 1_555 1_555
H17 C23 1_555 1_555
H1G C1 1_555 1_555
H1J C1 1_555 1_555
C3G C2 1_555 1_555
C3J C2 1_555 1_555
H2G C3G 1_555 1_555
H2J C3J 1_555 1_555
H3G C3G 1_555 1_555
H3J C3J 1_555 1_555
C4G C5G 1_555 1_555
C4J C5J 1_555 1_555
C5G H4G 1_555 1_555
C5J H4J 1_555 1_555
C6G C5G 1_555 1_555
C6J C5J 1_555 1_555
H5G C6G 1_555 1_555
H5J C6J 1_555 1_555
C7G C6G 1_555 1_555
C7J C6J 1_555 1_555
H6G C7G 1_555 1_555
H6J C7J 1_555 1_555
C8G C7G 1_555 1_555
C8J C7J 1_555 1_555
H7G C8G 1_555 1_555
H7J C8J 1_555 1_555
C9G C4G 1_555 1_555
C9J C4J 1_555 1_555
C10G C9G 1_555 1_555
C10J C9J 1_555 1_555
C11G C12G 1_555 1_555
C11J C12J 1_555 1_555
C12G H8G 1_555 1_555
C12J H8J 1_555 1_555
C13G C12G 1_555 1_555
C13J C12J 1_555 1_555
H9G C13G 1_555 1_555
H9J C13J 1_555 1_555
C14G C13G 1_555 1_555
C14J C13J 1_555 1_555
H10G C14G 1_555 1_555
H10J C14J 1_555 1_555
C15G C14G 1_555 1_555
C15J C14J 1_555 1_555
H11G C15G 1_555 1_555
H11J C15J 1_555 1_555
C16G C11G 1_555 1_555
C16J C11J 1_555 1_555
H12G C16G 1_555 1_555
H12J C16J 1_555 1_555
C17D C18D 1_555 1_555
C17H C18H 1_555 1_555
C18D H13D 1_555 1_555
C18H H13H 1_555 1_555
C19D C18D 1_555 1_555
C19H C18H 1_555 1_555
C20D C19D 1_555 1_555
C20H C19H 1_555 1_555
H14D C20D 1_555 1_555
H14H C20H 1_555 1_555
C21D C20D 1_555 1_555
C21H C20H 1_555 1_555
C22D C17D 1_555 1_555
C22H C17H 1_555 1_555
Eu1B O2G 1_555 1_555
Eu1C O2J 1_555 1_555
N1G C10G 1_555 1_555
N1J C10J 1_555 1_555
H15G N1G 1_555 1_555
H15J N1J 1_555 1_555
N2D C17D 1_555 1_555
N2H C17H 1_555 1_555
N3D C19D 1_555 1_555
N3H C19H 1_555 1_555
N4D C21D 1_555 1_555
N4H C21H 1_555 1_555
O1G C3G 1_555 1_555
O1J C3J 1_555 1_555
O2G C10G 1_555 1_555
O2J C10J 1_555 1_555
O2D Eu1 1_555 1_555
O2H Eu1 1_555 1_555
O3D Eu1 1_555 1_555
O3H Eu1 1_555 1_555
O4D N2D 1_555 1_555
O4H N2H 1_555 1_555
O5D N3D 1_555 1_555
O5H N3H 1_555 1_555
O6D N3D 1_555 1_555
O6H N3H 1_555 1_555
O7D N4D 1_555 1_555
O7H N4H 1_555 1_555
O8D N4D 1_555 1_555
O8H N4H 1_555 1_555
O9D Eu1 1_555 1_555
O9H Eu1 1_555 1_555
C23G C11G 1_555 1_555
C23J C11J 1_555 1_555
H16G C23G 1_555 1_555
H16J C23J 1_555 1_555
H17G C23G 1_555 1_555
H17J C23J 1_555 1_555
C4 O1 1_555 1_555
C8 C9 1_555 1_555
C15 C16 1_555 1_555
C21 C22 1_555 1_555
Eu1 O9 1_555 1_555
N1 C23 1_555 1_555
N2 O3 1_555 1_555
C4G O1G 1_555 1_555
C4J O1J 1_555 1_555
C8G C9G 1_555 1_555
C8J C9J 1_555 1_555
C15G C16G 1_555 1_555
C15J C16J 1_555 1_555
C21D C22D 1_555 1_555
C21H C22H 1_555 1_555
C22D O9D 1_555 1_555
C22H O9H 1_555 1_555
N1G C23G 1_555 1_555
N1J C23J 1_555 1_555
N2D O3D 1_555 1_555
N2H O3H 1_555 1_555

#END
