
#######################################################################
#
#                 Cambridge Crystallographic Data Centre
#                                CCDC 
#
#######################################################################
#
# If this CIF has been generated from an entry in the Cambridge 
# Structural Database, then it will include bibliographic, chemical, 
# crystal, experimental, refinement or atomic coordinate data resulting 
# from the CCDC's data processing and validation procedures.
#
#######################################################################

data_OXAXIV
_symmetry_cell_setting           monoclinic
_symmetry_space_group_name_H-M   'P 21/c'
_symmetry_Int_Tables_number      14
_space_group_name_Hall           '-P 2ybc'
loop_
_symmetry_equiv_pos_site_id
_symmetry_equiv_pos_as_xyz
1 x,y,z
2 -x,1/2+y,1/2-z
3 -x,-y,-z
4 x,1/2-y,1/2+z
_cell_length_a                   10.257(3)
_cell_length_b                   15.533(4)
_cell_length_c                   18.873(5)
_cell_angle_alpha                90
_cell_angle_beta                 101.570(4)
_cell_angle_gamma                90
_cell_volume                     2945.79
loop_
_atom_site_label
_atom_site_type_symbol
_atom_site_fract_x
_atom_site_fract_y
_atom_site_fract_z
Cu1 Cu -0.32303(4) -0.18001(3) 0.22707(2)
Cu2 Cu -0.07207(5) -0.40127(3) 0.34757(2)
S1 S -0.12956(13) -0.00115(8) 0.07915(6)
S2 S -0.53133(13) -0.27816(9) -0.00448(6)
S3 S -0.18609(16) -0.55384(12) 0.12599(7)
O1 O -0.1563(3) -0.26243(17) 0.26834(15)
O2 O 0.0378(3) -0.32721(17) 0.29849(14)
N1 N -0.2390(4) -0.0845(2) 0.1834(2)
N2 N -0.3823(4) -0.2319(2) 0.12991(18)
N3 N -0.1167(4) -0.4707(2) 0.25820(19)
N4 N -0.4529(3) -0.25576(19) 0.26361(15)
N5 N -0.5380(3) -0.1391(2) 0.31957(17)
N6 N -0.3136(3) -0.1114(2) 0.31852(17)
N7 N -0.2148(3) -0.4595(2) 0.38773(17)
N8 N -0.2806(3) -0.3284(2) 0.43240(17)
N9 N -0.0510(3) -0.31909(19) 0.43124(16)
C1 C -0.1927(4) -0.0494(2) 0.1412(2)
C2 C -0.4446(4) -0.2523(2) 0.0751(2)
C3 C -0.1465(4) -0.5029(3) 0.2035(2)
C4 C -0.4592(4) -0.3408(2) 0.2456(2)
H1 H -0.3920 -0.3640 0.2249
C5 C -0.5594(5) -0.3930(3) 0.2564(2)
H2 H -0.5601 -0.4510 0.2442
C6 C -0.6612(4) -0.3579(3) 0.2862(2)
H3 H -0.7331 -0.3917 0.2921
C7 C -0.6545(4) -0.2737(3) 0.3067(2)
H4 H -0.7209 -0.2494 0.3274
C8 C -0.5466(4) -0.2246(2) 0.29606(18)
C9 C -0.4220(4) -0.0956(2) 0.3457(2)
C10 C -0.4200(6) -0.0337(3) 0.4005(2)
H5 H -0.4971 -0.0208 0.4171
C11 C -0.3038(7) 0.0068(3) 0.4287(3)
H6 H -0.3008 0.0480 0.4647
C12 C -0.1907(7) -0.0135(3) 0.4037(3)
H7 H -0.1097 0.0117 0.4242
C13 C -0.1986(5) -0.0717(3) 0.3478(3)
H8 H -0.1226 -0.0838 0.3298
C14 C -0.2354(5) -0.5450(3) 0.3770(2)
H9 H -0.1709 -0.5773 0.3607
C15 C -0.3469(5) -0.5861(3) 0.3892(3)
H10 H -0.3576 -0.6451 0.3817
C16 C -0.4420(5) -0.5386(3) 0.4127(2)
H11 H -0.5201 -0.5647 0.4196
C17 C -0.4223(4) -0.4522(3) 0.4263(2)
H12 H -0.4860 -0.4192 0.4425
C18 C -0.3040(4) -0.4151(2) 0.41497(18)
C19 C -0.1576(4) -0.2902(2) 0.45477(19)
C20 C -0.1481(5) -0.2209(3) 0.5023(2)
H13 H -0.2235 -0.1992 0.5164
C21 C -0.0262(6) -0.1854(3) 0.5277(3)
H14 H -0.0181 -0.1394 0.5598
C22 C 0.0853(5) -0.2173(3) 0.5063(3)
H15 H 0.1693 -0.1945 0.5244
C23 C 0.0684(4) -0.2833(3) 0.4578(2)
H16 H 0.1426 -0.3046 0.4423
C24 C -0.0390(4) -0.2719(2) 0.26204(19)
C25 C 0.0196(5) -0.2178(3) 0.2100(2)
H17 H -0.0467 -0.1786 0.1854
H18 H 0.0487 -0.2544 0.1753
H19 H 0.0940 -0.1858 0.2362
Cu2A Cu 0.07207(5) 0.09873(3) 0.15243(2)
S1A S 0.12956(13) -0.50115(8) 0.42085(6)
loop_
_geom_bond_atom_site_label_1
_geom_bond_atom_site_label_2
_geom_bond_site_symmetry_1
_geom_bond_site_symmetry_2
Cu1 O1 1_555 1_555
Cu2 O2 1_555 1_555
S1 C1 1_555 1_555
S2 C2 1_555 1_555
S3 C3 1_555 1_555
O1 C24 1_555 1_555
O2 C24 1_555 1_555
N1 Cu1 1_555 1_555
N2 Cu1 1_555 1_555
N3 Cu2 1_555 1_555
N4 Cu1 1_555 1_555
N5 C8 1_555 1_555
N6 Cu1 1_555 1_555
N7 Cu2 1_555 1_555
N8 C18 1_555 1_555
N9 Cu2 1_555 1_555
C1 N1 1_555 1_555
C2 N2 1_555 1_555
C3 N3 1_555 1_555
C4 N4 1_555 1_555
H1 C4 1_555 1_555
C5 C4 1_555 1_555
H2 C5 1_555 1_555
C6 C5 1_555 1_555
H3 C6 1_555 1_555
C7 C6 1_555 1_555
H4 C7 1_555 1_555
C8 N4 1_555 1_555
C9 N5 1_555 1_555
C10 C9 1_555 1_555
H5 C10 1_555 1_555
C11 C10 1_555 1_555
H6 C11 1_555 1_555
C12 C11 1_555 1_555
H7 C12 1_555 1_555
C13 N6 1_555 1_555
H8 C13 1_555 1_555
C14 N7 1_555 1_555
H9 C14 1_555 1_555
C15 C14 1_555 1_555
H10 C15 1_555 1_555
C16 C15 1_555 1_555
H11 C16 1_555 1_555
C17 C16 1_555 1_555
H12 C17 1_555 1_555
C18 N7 1_555 1_555
C19 N8 1_555 1_555
C20 C19 1_555 1_555
H13 C20 1_555 1_555
C21 C20 1_555 1_555
H14 C21 1_555 1_555
C22 C21 1_555 1_555
H15 C22 1_555 1_555
C23 N9 1_555 1_555
H16 C23 1_555 1_555
C24 C25 1_555 1_555
C25 H17 1_555 1_555
H18 C25 1_555 1_555
H19 C25 1_555 1_555
Cu2A S1 1_555 1_555
S1A Cu2 1_555 1_555
N6 C9 1_555 1_555
N9 C19 1_555 1_555
C7 C8 1_555 1_555
C12 C13 1_555 1_555
C17 C18 1_555 1_555
C22 C23 1_555 1_555

#END
