
#######################################################################
#
#                 Cambridge Crystallographic Data Centre
#                                CCDC 
#
#######################################################################
#
# If this CIF has been generated from an entry in the Cambridge 
# Structural Database, then it will include bibliographic, chemical, 
# crystal, experimental, refinement or atomic coordinate data resulting 
# from the CCDC's data processing and validation procedures.
#
#######################################################################

data_OXCFOR
_symmetry_cell_setting           rhombohedral
_symmetry_space_group_name_H-M   'R -3'
_symmetry_Int_Tables_number      148
_space_group_name_Hall           '-P 3*'
loop_
_symmetry_equiv_pos_site_id
_symmetry_equiv_pos_as_xyz
1 x,y,z
2 z,x,y
3 y,z,x
4 -x,-y,-z
5 -z,-x,-y
6 -y,-z,-x
_cell_length_a                   7.7893(2)
_cell_length_b                   7.7893(2)
_cell_length_c                   7.7893(2)
_cell_angle_alpha                97.12(1)
_cell_angle_beta                 97.12(1)
_cell_angle_gamma                97.12(1)
_cell_volume                     460.66
loop_
_atom_site_label
_atom_site_type_symbol
_atom_site_fract_x
_atom_site_fract_y
_atom_site_fract_z
Co1 Co 0.20190 0.47180 0.56710
O1 O 0.02900 0.66710 0.58780
O2 O 0.08530 0.38280 0.78370
O3 O 0.36000 0.28280 0.58360
C1 C 0.06880 0.83290 0.61480
H1 H -0.03090 0.89940 0.65790
O1C O -0.02900 0.33290 0.41220
O3B O 0.28280 0.58360 0.36000
O3D O 0.41640 0.64000 0.71720
Co1C Co -0.20190 0.52820 0.43290
C1E C 0.16710 0.38520 0.93120
Co1A Co 0.56710 0.20190 0.47180
Co1E Co 0.52820 0.43290 0.79810
O2D O 0.21630 0.91470 0.61720
Co1B Co 0.47180 0.56710 0.20190
Co1D Co 0.43290 0.79810 0.52820
O1E O 0.33290 0.41220 0.97100
H1E H 0.10060 0.34210 1.03090
O1A O 0.58780 0.02900 0.66710
O1D O 0.41220 -0.02900 0.33290
O2A O 0.78370 0.08530 0.38280
O3A O 0.58360 0.36000 0.28280
O3E O 0.71720 0.41640 0.64000
O1B O 0.66710 0.58780 1.02900
O2E O 0.61720 0.21630 0.91470
Co1C_2 Co 0.79810 0.52820 0.43290
O1B_2 O 0.66710 0.58780 0.02900
O1E_2 O 0.33290 0.41220 -0.02900
O2B O 0.38280 0.78370 0.08530
O3C O 0.64000 0.71720 0.41640
Co1D_2 Co 0.43290 -0.20190 0.52820
C1A C 0.61480 0.06880 0.83290
H1A H 0.65790 -0.03090 0.89940
Co1E_2 Co 0.52820 0.43290 -0.20190
C1B C 0.83290 0.61480 0.06880
O2C O 0.91470 0.61720 0.21630
H1B H 0.89940 0.65790 -0.03090
O1_2 O 1.02900 0.66710 0.58780
O1C_2 O 0.97100 0.33290 0.41220
O1A_2 O 0.58780 1.02900 0.66710
O1D_2 O 0.41220 0.97100 0.33290
Co1A_2 Co 0.56710 1.20190 0.47180
C1D C 0.38520 0.93120 0.16710
H1D H 0.34210 1.03090 0.10060
Co1B_2 Co 0.47180 0.56710 1.20190
C1C C 0.93120 0.16710 0.38520
Co1_2 Co 1.20190 0.47180 0.56710
H1C H 1.03090 0.10060 0.34210
loop_
_geom_bond_atom_site_label_1
_geom_bond_atom_site_label_2
_geom_bond_site_symmetry_1
_geom_bond_site_symmetry_2
Co1 O1 1_555 1_555
O1 C1 1_555 1_555
O2 Co1 1_555 1_555
O3 Co1 1_555 1_555
C1 H1 1_555 1_555
O1C Co1 1_555 1_555
O3B Co1 1_555 1_555
O3D Co1 1_555 1_555
Co1C O1 1_555 1_555
C1E O2 1_555 1_555
Co1A O3 1_555 1_555
Co1E O3 1_555 1_555
O2D C1 1_555 1_555
Co1B O3B 1_555 1_555
Co1D O3B 1_555 1_555
O1E C1E 1_555 1_555
H1E C1E 1_555 1_555
O1A Co1A 1_555 1_555
O1D Co1A 1_555 1_555
O2A Co1A 1_555 1_555
O3A Co1A 1_555 1_555
O3E Co1A 1_555 1_555
O1B Co1E 1_555 1_555
O2E Co1E 1_555 1_555
Co1C_2 O3A 1_555 1_555
O1B_2 Co1B 1_555 1_555
O1E_2 Co1B 1_555 1_555
O2B Co1B 1_555 1_555
O3C Co1B 1_555 1_555
Co1D_2 O1A 1_555 1_555
C1A O1A 1_555 1_555
H1A C1A 1_555 1_555
Co1E_2 O1B_2 1_555 1_555
C1B O1B_2 1_555 1_555
O2C Co1C_2 1_555 1_555
H1B C1B 1_555 1_555
O1_2 Co1C_2 1_555 1_555
O1C_2 Co1C_2 1_555 1_555
O1A_2 Co1D 1_555 1_555
O1D_2 Co1D 1_555 1_555
Co1A_2 O1A_2 1_555 1_555
C1D O2B 1_555 1_555
H1D C1D 1_555 1_555
Co1B_2 O1E 1_555 1_555
C1C O2A 1_555 1_555
Co1_2 O1_2 1_555 1_555
H1C C1C 1_555 1_555
O1C Co1C 1_555 1_555
O3D Co1E 1_555 1_555
O3D Co1D 1_555 1_555
Co1E O1E 1_555 1_555
Co1E O3E 1_555 1_555
O2D Co1D 1_555 1_555
Co1B O3A 1_555 1_555
Co1D O3C 1_555 1_555
O1D Co1D_2 1_555 1_555
O3E Co1C_2 1_555 1_555
O1B Co1B_2 1_555 1_555
O2E C1A 1_555 1_555
Co1C_2 O3C 1_555 1_555
O1E_2 Co1E_2 1_555 1_555
C1B O2C 1_555 1_555
O1C_2 C1C 1_555 1_555
O1C_2 Co1_2 1_555 1_555
O1D_2 Co1A_2 1_555 1_555
O1D_2 C1D 1_555 1_555

#END
