
#######################################################################
#
#                 Cambridge Crystallographic Data Centre
#                                CCDC 
#
#######################################################################
#
# If this CIF has been generated from an entry in the Cambridge 
# Structural Database, then it will include bibliographic, chemical, 
# crystal, experimental, refinement or atomic coordinate data resulting 
# from the CCDC's data processing and validation procedures.
#
#######################################################################

data_OXETUH
_symmetry_cell_setting           hexagonal
_symmetry_space_group_name_H-M   'P 63/m'
_symmetry_Int_Tables_number      176
_space_group_name_Hall           '-P 6c'
loop_
_symmetry_equiv_pos_site_id
_symmetry_equiv_pos_as_xyz
1 x,y,z
2 x-y,x,1/2+z
3 -y,x-y,z
4 -x,-y,1/2+z
5 -x+y,-x,z
6 y,-x+y,1/2+z
7 -x,-y,-z
8 -x+y,-x,1/2-z
9 y,-x+y,-z
10 x,y,1/2-z
11 x-y,x,-z
12 -y,x-y,1/2-z
_cell_length_a                   17.1798(9)
_cell_length_b                   17.1798(9)
_cell_length_c                   6.8893(7)
_cell_angle_alpha                90
_cell_angle_beta                 90
_cell_angle_gamma                120
_cell_volume                     1760.93
loop_
_atom_site_label
_atom_site_type_symbol
_atom_site_fract_x
_atom_site_fract_y
_atom_site_fract_z
Cu1 Cu 0.32600(4) 0.03215(4) 0.2500
O1 O 0.1940(2) -0.0351(2) 0.2500
O2 O 0.2455(3) 0.1117(3) 0.2500
O3 O 0.4434(2) 0.1381(3) 0.2500
O4 O 0.5386(3) 0.0864(3) 0.2500
N1 N 0.32574(19) 0.0271(2) -0.0477(5)
C1 C 0.0720(3) 0.0872(3) 0.2500
H2 H 0.1203 0.1458 0.2500
C2 C 0.0874(3) 0.0154(3) 0.2500
C3 C 0.1819(3) 0.0331(4) 0.2500
C4 C 0.6859(3) 0.2642(3) 0.2500
H3 H 0.6988 0.2177 0.2500
C5 C 0.5966(3) 0.2438(3) 0.2500
C6 C 0.5215(4) 0.1481(4) 0.2500
C7 C 0.3367(3) 0.0990(3) -0.1503(7)
H4 H 0.3445 0.1496 -0.0844
C8 C 0.3122(3) -0.0442(3) -0.1501(7)
H5 H 0.3024 -0.0957 -0.0846
Cu1D Cu -0.29385(6) -0.32600(4) 0.2500
Cu1B Cu -0.03215(4) 0.29385(6) 0.2500
Cu1D_2 Cu 0.70615(6) 0.67400(4) 0.2500
Cu1B_2 Cu 0.96785(4) 0.29385(6) 0.2500
Cu1_2 Cu 0.32600(4) 0.03215(4) -0.7500
Cu1_3 Cu 0.32600(4) 0.03215(4) 1.2500
Cu1D_3 Cu -0.29385(6) -0.32600(4) -0.7500
O1D O -0.2291(3) -0.1940(2) 0.2500
O1B O 0.0351(2) 0.2291(3) 0.2500
O2D O -0.1338(4) -0.2455(3) 0.2500
O2B O -0.1117(3) 0.1338(4) 0.2500
O3D O 0.6947(4) 0.5566(2) 0.2500
O3B O 0.8619(3) 0.3053(4) 0.2500
O3D_2 O -0.3053(4) -0.4434(2) 0.2500
O3B_2 O -0.1381(3) 0.3053(4) 0.2500
O4D O 0.5478(4) 0.4614(3) 0.2500
O4B O 0.9136(3) 0.4522(4) 0.2500
N1I N 0.32574(19) 0.0271(2) -0.4523(5)
N1I_2 N 0.32574(19) 0.0271(2) 0.5477(5)
N1_2 N 0.32574(19) 0.0271(2) 0.9523(5)
N1D N -0.29864(28) -0.32574(19) -0.0477(5)
N1G N -0.29864(28) -0.32574(19) -0.4523(5)
N1G_2 N -0.29864(28) -0.32574(19) 0.5477(5)
N1B N -0.0271(2) 0.29864(28) -0.0477(5)
N1K N -0.0271(2) 0.29864(28) 0.5477(5)
C1B C -0.0872(3) -0.0152(4) 0.2500
C1D C 0.0152(4) -0.0720(3) 0.2500
H2B H -0.1458 -0.0255 0.2500
H2D H 0.0255 -0.1203 0.2500
C2B C -0.0154(3) 0.0720(4) 0.2500
C2D C -0.0720(4) -0.0874(3) 0.2500
C3D C -0.1488(5) -0.1819(3) 0.2500
C3B C -0.0331(4) 0.1488(5) 0.2500
C4B C 0.7358(3) 0.4217(4) 0.2500
C4D C 0.5783(4) 0.3141(3) 0.2500
H3B H 0.7823 0.4811 0.2500
H3D H 0.5189 0.3012 0.2500
C5B C 0.7562(3) 0.3528(4) 0.2500
C5D C 0.6472(4) 0.4034(3) 0.2500
C6D C 0.6266(6) 0.4785(4) 0.2500
C6B C 0.8519(4) 0.3734(6) 0.2500
C7I C 0.3367(3) 0.0990(3) -0.3497(7)
C7I_2 C 0.3367(3) 0.0990(3) 0.6503(7)
C7_2 C 0.3367(3) 0.0990(3) 0.8497(7)
C7D C -0.2377(4) -0.3367(3) -0.1503(7)
C7G C -0.2377(4) -0.3367(3) -0.3497(7)
H4I H 0.3445 0.1496 -0.4156
H4I_2 H 0.3445 0.1496 0.5844
H4_2 H 0.3445 0.1496 0.9156
H4D H -0.1949 -0.3445 -0.0844
H4G H -0.1949 -0.3445 -0.4156
C8I C 0.3122(3) -0.0442(3) -0.3499(7)
C8I_2 C 0.3122(3) -0.0442(3) 0.6501(7)
C8_2 C 0.3122(3) -0.0442(3) 0.8499(7)
C8D C -0.3564(4) -0.3122(3) -0.1501(7)
C8G C -0.3564(4) -0.3122(3) -0.3499(7)
H5I H 0.3024 -0.0957 -0.4154
H5I_2 H 0.3024 -0.0957 0.5846
H5_2 H 0.3024 -0.0957 0.9154
H5D H -0.3981 -0.3024 -0.0846
H5G H -0.3981 -0.3024 -0.4154
O5 O 0.3272(3) -0.1216(3) 0.2500
O6 O 0.4695(3) -0.0895(3) 0.2500
H1 H 0.4810 -0.0358 0.2500
C9 C 0.3832(4) -0.1452(4) 0.2500
C10 C 0.2681(4) -0.3085(4) 0.2500
H6 H 0.2243 -0.2918 0.2500
C11 C 0.3584(4) -0.2430(4) 0.2500
O5D O 0.5512(4) -0.3272(3) 0.2500
O5B O 0.1216(3) -0.5512(4) 0.2500
O6D O 0.4410(4) -0.4695(3) 0.2500
O6B O 0.0895(3) -0.4410(4) 0.2500
H1D H 0.4832 -0.4810 0.2500
H1B H 0.0358 -0.4832 0.2500
C9D C 0.4716(6) -0.3832(4) 0.2500
C9B C 0.1452(4) -0.4716(6) 0.2500
C10D C 0.4234(6) -0.2681(4) 0.2500
C10B C 0.3085(4) -0.4234(6) 0.2500
H6D H 0.4839 -0.2243 0.2500
H6B H 0.2918 -0.4839 0.2500
C11D C 0.3986(6) -0.3584(4) 0.2500
C11B C 0.2430(4) -0.3986(6) 0.2500
loop_
_geom_bond_atom_site_label_1
_geom_bond_atom_site_label_2
_geom_bond_site_symmetry_1
_geom_bond_site_symmetry_2
Cu1 O1 1_555 1_555
O1 C3 1_555 1_555
O2 Cu1 1_555 1_555
O3 Cu1 1_555 1_555
O4 C6 1_555 1_555
O5 C9 1_555 1_555
O6 H1 1_555 1_555
N1 Cu1 1_555 1_555
C1 H2 1_555 1_555
C2 C1 1_555 1_555
C3 O2 1_555 1_555
C4 H3 1_555 1_555
C5 C4 1_555 1_555
C6 O3 1_555 1_555
C7 N1 1_555 1_555
H4 C7 1_555 1_555
C8 N1 1_555 1_555
H5 C8 1_555 1_555
C9 O6 1_555 1_555
C10 H6 1_555 1_555
C11 C9 1_555 1_555
Cu1D O1D 1_555 1_555
Cu1B O1B 1_555 1_555
Cu1D_2 O3D 1_555 1_555
Cu1B_2 O3B 1_555 1_555
Cu1_2 N1I 1_555 1_555
Cu1_3 N1_2 1_555 1_555
Cu1D_3 N1G 1_555 1_555
O1D C3D 1_555 1_555
O1B C3B 1_555 1_555
O2D Cu1D 1_555 1_555
O2B Cu1B 1_555 1_555
O3D C6D 1_555 1_555
O3B C6B 1_555 1_555
O3D_2 Cu1D 1_555 1_555
O3B_2 Cu1B 1_555 1_555
O4D C6D 1_555 1_555
O4B C6B 1_555 1_555
O5D C9D 1_555 1_555
O5B C9B 1_555 1_555
O6D H1D 1_555 1_555
O6B H1B 1_555 1_555
N1I C7I 1_555 1_555
N1I_2 Cu1 1_555 1_555
N1_2 C7_2 1_555 1_555
N1D Cu1D 1_555 1_555
N1G C7G 1_555 1_555
N1G_2 Cu1D 1_555 1_555
N1B Cu1B 1_555 1_555
N1K Cu1B 1_555 1_555
C1B H2B 1_555 1_555
C1D C2 1_555 1_555
H2D C1D 1_555 1_555
C2B C1 1_555 1_555
C2D C1B 1_555 1_555
C3D O2D 1_555 1_555
C3B O2B 1_555 1_555
C4B H3B 1_555 1_555
C4D C5 1_555 1_555
H3D C4D 1_555 1_555
C5B C4 1_555 1_555
C5D C4B 1_555 1_555
C6D C5D 1_555 1_555
C6B C5B 1_555 1_555
C7I C7 1_555 1_555
C7I_2 N1I_2 1_555 1_555
C7_2 C7I_2 1_555 1_555
C7D N1D 1_555 1_555
C7G C7D 1_555 1_555
H4I C7I 1_555 1_555
H4I_2 C7I_2 1_555 1_555
H4_2 C7_2 1_555 1_555
H4D C7D 1_555 1_555
H4G C7G 1_555 1_555
C8I C8 1_555 1_555
C8I_2 N1I_2 1_555 1_555
C8_2 N1_2 1_555 1_555
C8D N1D 1_555 1_555
C8G N1G 1_555 1_555
H5I C8I 1_555 1_555
H5I_2 C8I_2 1_555 1_555
H5_2 C8_2 1_555 1_555
H5D C8D 1_555 1_555
H5G C8G 1_555 1_555
C9D O6D 1_555 1_555
C9B O6B 1_555 1_555
C10D C11 1_555 1_555
C10B H6B 1_555 1_555
H6D C10D 1_555 1_555
C11D C9D 1_555 1_555
C11B C10 1_555 1_555
C2 C3 1_555 1_555
C5 C6 1_555 1_555
C10 C11 1_555 1_555
N1I C8I 1_555 1_555
C1B C2B 1_555 1_555
C1D C2D 1_555 1_555
C2B C3B 1_555 1_555
C2D C3D 1_555 1_555
C4B C5B 1_555 1_555
C4D C5D 1_555 1_555
C8I_2 C8_2 1_555 1_555
C8D C8G 1_555 1_555
C9B C11B 1_555 1_555
C10D C11D 1_555 1_555
C10B C11D 1_555 1_555
C10B C11B 1_555 1_555

#END
