
#######################################################################
#
#                 Cambridge Crystallographic Data Centre
#                                CCDC 
#
#######################################################################
#
# If this CIF has been generated from an entry in the Cambridge 
# Structural Database, then it will include bibliographic, chemical, 
# crystal, experimental, refinement or atomic coordinate data resulting 
# from the CCDC's data processing and validation procedures.
#
#######################################################################

data_OXITIZ
_symmetry_cell_setting           triclinic
_symmetry_space_group_name_H-M   'P -1'
_symmetry_Int_Tables_number      2
_space_group_name_Hall           '-P 1'
loop_
_symmetry_equiv_pos_site_id
_symmetry_equiv_pos_as_xyz
1 x,y,z
2 -x,-y,-z
_cell_length_a                   8.8768(8)
_cell_length_b                   9.0116(8)
_cell_length_c                   11.2760(10)
_cell_angle_alpha                112.6710(10)
_cell_angle_beta                 107.6590(10)
_cell_angle_gamma                90.0890(10)
_cell_volume                     785.866
loop_
_atom_site_label
_atom_site_type_symbol
_atom_site_fract_x
_atom_site_fract_y
_atom_site_fract_z
C1 C 0.2004(5) -0.0444(5) 0.7331(4)
C2 C 0.2610(6) -0.1897(6) 0.7162(4)
H1 H 0.3278 -0.2033 0.7917
C3 C 0.2230(6) -0.3162(5) 0.5883(4)
H2 H 0.2634 -0.4136 0.5799
C4 C 0.1271(5) -0.2998(5) 0.4734(4)
C5 C 0.0668(5) -0.1517(5) 0.4880(4)
C6 C 0.1005(5) -0.0251(5) 0.6183(4)
C7 C -0.0216(5) -0.1220(5) 0.3662(4)
C8 C 0.0875(6) -0.4483(5) 0.3401(4)
C9 C 0.2564(5) 0.0922(5) 0.8734(4)
C10 C 0.4576(3) 0.0373(3) 1.4536(2)
C11 C 0.3967(3) 0.2658(3) 1.3963(2)
H3 H 0.4147 0.3809 1.4232
C12 C 0.2757(3) 0.0131(3) 1.2355(2)
H4 H 0.2046 -0.0553 1.1466
C13 C 0.4744(3) 0.2018(3) 1.4871(2)
H5 H 0.5420 0.2736 1.5763
C14 C 0.3534(3) -0.0586(3) 1.3223(2)
H6 H 0.3355 -0.1743 1.2924
N1 N 0.2958(4) 0.1730(5) 1.2701(4)
Ni1 Ni 0.20589(6) 0.28884(6) 1.14085(5)
O1 O -0.0195(4) -0.2139(4) 0.2545(3)
O2 O 0.3613(4) 0.1995(4) 0.8950(3)
O3 O 0.1982(3) 0.0838(3) 0.9611(3)
O4 O -0.0551(4) -0.5144(4) 0.2815(3)
O5 O 0.2042(4) -0.5005(4) 0.3028(3)
O6 O -0.0311(4) 0.2110(4) 1.0949(3)
H7 H -0.0668 0.2743 1.1554
H8 H -0.0403 0.1156 1.0920
O7 O 0.4384(4) 0.3622(4) 1.1649(3)
H9 H 0.4394 0.3792 1.0960
O8 O 0.1330(4) 0.4173(4) 1.0168(3)
H10 H 0.1249 0.5140 1.0657
C1A C -0.2004(5) 0.0444(5) 0.2669(4)
C2A C -0.2610(6) 0.1897(6) 0.2838(4)
H1A H -0.3278 0.2033 0.2083
C3A C -0.2230(6) 0.3162(5) 0.4117(4)
H2A H -0.2634 0.4136 0.4201
C4A C -0.1271(5) 0.2998(5) 0.5266(4)
C5A C -0.0668(5) 0.1517(5) 0.5120(4)
C6A C -0.1005(5) 0.0251(5) 0.3817(4)
C7A C 0.0216(5) 0.1220(5) 0.6338(4)
C8A C -0.0875(6) 0.4483(5) 0.6599(4)
C9A C -0.2564(5) -0.0922(5) 0.1266(4)
C10A C 0.5424(3) -0.0373(3) 1.5464(2)
C11A C 0.6033(3) -0.2658(3) 1.6037(2)
H3A H 0.5853 -0.3809 1.5768
C12A C 0.7243(3) -0.0131(3) 1.7645(2)
H4A H 0.7954 0.0553 1.8534
C13A C 0.5256(3) -0.2018(3) 1.5129(2)
H5A H 0.4580 -0.2736 1.4237
C14A C 0.6466(3) 0.0586(3) 1.6777(2)
H6A H 0.6645 0.1743 1.7076
N1A N 0.7042(4) -0.1730(5) 1.7299(4)
N1A_2 N -0.2958(4) -0.1730(5) -0.2701(4)
Ni1A Ni -0.20589(6) -0.28884(6) -0.14085(5)
Ni1_2 Ni 0.20589(6) -0.71116(6) 0.14085(5)
Ni1A_2 Ni -0.20589(6) 0.71116(6) 0.85915(5)
Ni1A_3 Ni 0.79411(6) -0.28884(6) 1.85915(5)
O1A O 0.0195(4) 0.2139(4) 0.7455(3)
O2A O -0.3613(4) -0.1995(4) 0.1050(3)
O3A O -0.1982(3) -0.0838(3) 0.0389(3)
O4A O 0.0551(4) 0.5144(4) 0.7185(3)
O5A O -0.2042(4) 0.5005(4) 0.6972(3)
O5_2 O 0.2042(4) 0.4995(4) 1.3028(3)
O5A_2 O -0.2042(4) -0.4995(4) -0.3028(3)
O6A O 0.0311(4) -0.2110(4) -0.0949(3)
H7A H 0.0668 -0.2743 -0.1554
H8A H 0.0403 -0.1156 -0.0920
O7A O -0.4384(4) -0.3622(4) -0.1649(3)
H9A H -0.4394 -0.3792 -0.0960
O8A O -0.1330(4) -0.4173(4) -0.0168(3)
H10A H -0.1249 -0.5140 -0.0657
O9 O 0.6608(4) 0.6245(5) 0.2713(4)
H11 H 0.6842 0.7240 0.2891
H12 H 0.7418 0.5758 0.2652
O10 O 0.3137(13) 0.6648(13) 0.0363(12)
H13 H 0.2384 0.6287 -0.0396
H14 H 0.3994 0.6307 0.0242
loop_
_geom_bond_atom_site_label_1
_geom_bond_atom_site_label_2
_geom_bond_site_symmetry_1
_geom_bond_site_symmetry_2
C1 C2 1_555 1_555
C2 H1 1_555 1_555
C3 C2 1_555 1_555
H2 C3 1_555 1_555
C4 C3 1_555 1_555
C5 C4 1_555 1_555
C6 C1 1_555 1_555
C7 C5 1_555 1_555
C8 C4 1_555 1_555
C9 C1 1_555 1_555
C10 C13 1_555 1_555
C11 H3 1_555 1_555
C12 H4 1_555 1_555
C13 C11 1_555 1_555
H5 C13 1_555 1_555
C14 C10 1_555 1_555
H6 C14 1_555 1_555
N1 C11 1_555 1_555
Ni1 N1 1_555 1_555
O1 C7 1_555 1_555
O2 C9 1_555 1_555
O3 C9 1_555 1_555
O4 C8 1_555 1_555
O5 C8 1_555 1_555
O6 Ni1 1_555 1_555
H7 O6 1_555 1_555
H8 O6 1_555 1_555
O7 Ni1 1_555 1_555
H9 O7 1_555 1_555
O8 Ni1 1_555 1_555
H10 O8 1_555 1_555
O9 H11 1_555 1_555
H12 O9 1_555 1_555
O10 H13 1_555 1_555
H14 O10 1_555 1_555
C1A C2A 1_555 1_555
C2A H1A 1_555 1_555
C3A C2A 1_555 1_555
H2A C3A 1_555 1_555
C4A C3A 1_555 1_555
C5A C4A 1_555 1_555
C6A C7 1_555 1_555
C7A C6 1_555 1_555
C8A C4A 1_555 1_555
C9A C1A 1_555 1_555
C10A C10 1_555 1_555
C11A H3A 1_555 1_555
C12A H4A 1_555 1_555
C13A C10A 1_555 1_555
H5A C13A 1_555 1_555
C14A C10A 1_555 1_555
H6A C14A 1_555 1_555
N1A C11A 1_555 1_555
N1A_2 Ni1A 1_555 1_555
Ni1A O3A 1_555 1_555
Ni1_2 O5 1_555 1_555
Ni1A_2 O5A 1_555 1_555
Ni1A_3 N1A 1_555 1_555
O1A C7A 1_555 1_555
O2A C9A 1_555 1_555
O3A C9A 1_555 1_555
O4A C8A 1_555 1_555
O5A C8A 1_555 1_555
O5_2 Ni1 1_555 1_555
O5A_2 Ni1A 1_555 1_555
O6A Ni1A 1_555 1_555
H7A O6A 1_555 1_555
H8A O6A 1_555 1_555
O7A Ni1A 1_555 1_555
H9A O7A 1_555 1_555
O8A Ni1A 1_555 1_555
H10A O8A 1_555 1_555
C5 C6 1_555 1_555
C12 C14 1_555 1_555
C12 N1 1_555 1_555
Ni1 O3 1_555 1_555
C1A C6A 1_555 1_555
C5A C6A 1_555 1_555
C5A C7A 1_555 1_555
C11A C13A 1_555 1_555
C12A C14A 1_555 1_555
C12A N1A 1_555 1_555

#END
