
#######################################################################
#
#                 Cambridge Crystallographic Data Centre
#                                CCDC 
#
#######################################################################
#
# If this CIF has been generated from an entry in the Cambridge 
# Structural Database, then it will include bibliographic, chemical, 
# crystal, experimental, refinement or atomic coordinate data resulting 
# from the CCDC's data processing and validation procedures.
#
#######################################################################

data_OXIVIB
_symmetry_cell_setting           orthorhombic
_symmetry_space_group_name_H-M   'I b a m'
_symmetry_Int_Tables_number      72
_space_group_name_Hall           '-I 2 2c'
loop_
_symmetry_equiv_pos_site_id
_symmetry_equiv_pos_as_xyz
1 x,y,z
2 1/2+x,1/2+y,1/2+z
3 -x,-y,z
4 1/2-x,1/2+y,-z
5 1/2+x,1/2-y,-z
6 1/2-x,1/2-y,1/2+z
7 -x,y,1/2-z
8 x,-y,1/2-z
9 -x,-y,-z
10 1/2-x,1/2-y,1/2-z
11 x,y,-z
12 1/2+x,1/2-y,z
13 1/2-x,1/2+y,z
14 1/2+x,1/2+y,1/2-z
15 x,-y,1/2+z
16 -x,y,1/2+z
_cell_length_a                   20.5927(8)
_cell_length_b                   24.3615(7)
_cell_length_c                   13.7226(4)
_cell_angle_alpha                90
_cell_angle_beta                 90
_cell_angle_gamma                90
_cell_volume                     6884.2
loop_
_atom_site_label
_atom_site_type_symbol
_atom_site_fract_x
_atom_site_fract_y
_atom_site_fract_z
Cl1 Cl 0.52996(3) 0.61835(2) 0.5000
O3 O 0.49597(7) 0.63599(5) 0.58582(9)
O4 O 0.53673(9) 0.55988(7) 0.5000
O5 O 0.59443(9) 0.64308(8) 0.5000
O3J O 0.49597(7) 0.63599(5) 0.41418(9)
Cl2 Cl -0.17300(3) 0.36360(2) 0.0000
O6 O -0.16910(6) 0.39690(6) 0.08635(11)
O7 O -0.23385(9) 0.33481(7) 0.0000
O8 O -0.11982(9) 0.32554(7) 0.0000
O6J O -0.16910(6) 0.39690(6) -0.08635(11)
O9 O 0.15687(7) 0.35137(5) -0.08656(10)
Cl3 Cl 0.15777(5) 0.38269(4) 0.0000
O10 O 0.1062(2) 0.42052(16) 0.0000
O11 O 0.21711(17) 0.41425(13) 0.0000
O9J O 0.15687(7) 0.35137(5) 0.08656(10)
Cu1 Cu 0.333421(12) 0.5000 0.2500
Cu2 Cu 0.0000 0.5000 0.2500
N1 N 0.0000 0.5000 0.39849(12)
C1 C 0.03754(7) 0.46547(6) 0.44951(10)
H1 H 0.0642 0.4409 0.4164
N2 N 0.43264(8) 0.5000 0.2500
C2 C 0.46632(7) 0.45328(6) 0.25124(11)
H2 H 0.4442 0.4200 0.2538
N3 N 0.33436(5) 0.50160(5) 0.39871(9)
C3 C 0.30381(7) 0.46261(6) 0.44951(10)
H3 H 0.2821 0.4348 0.4164
C4 C 0.36581(7) 0.54036(6) 0.44952(10)
H4 H 0.3881 0.5678 0.4163
N4 N 0.09900(8) 0.5000 0.2500
C5 C 0.13272(8) 0.45752(6) 0.21476(11)
H5 H 0.1105 0.4274 0.1898
N5 N 0.23379(8) 0.5000 0.2500
C6 C 0.19994(8) 0.45742(6) 0.21469(11)
H6 H 0.2220 0.4272 0.1897
O1 O 0.33215(5) 0.59446(5) 0.24578(8)
N6 N 0.34534(7) 0.67940(6) 0.18229(11)
H7 H 0.3566(9) 0.6663(7) 0.1279(14)
C7 C 0.33014(7) 0.64539(7) 0.25813(11)
C8 C 0.31351(9) 0.67267(7) 0.34639(13)
H8 H 0.3026 0.6522 0.4012
C9 C 0.31348(10) 0.72833(7) 0.35126(15)
H9 H 0.3026 0.7453 0.4097
C10 C 0.32946(8) 0.76090(8) 0.27050(15)
H10 H 0.3293 0.7990 0.2746
C11 C 0.34503(8) 0.73531(7) 0.18694(15)
H11 H 0.3556 0.7558 0.1320
O2 O 0.0000 0.40404(7) 0.2500
N7 N -0.01174(10) 0.32152(7) 0.16738(13)
C13 C 0.0000 0.35308(9) 0.2500
C14 C -0.01137(10) 0.26583(8) 0.16664(15)
H14 H -0.0190 0.2472 0.1086
C15 C 0.0000 0.23682(10) 0.2500
H15 H 0.0000 0.1986 0.2500
N1F N 0.0000 0.5000 0.10151(12)
C1B C -0.03754(7) 0.53453(6) 0.44951(10)
C1J C 0.03754(7) 0.46547(6) 0.55049(10)
C2G C 0.46632(7) 0.54672(6) 0.24876(11)
C2F C 0.53368(7) 0.45328(6) 0.24876(11)
N3G N 0.33436(5) 0.49840(5) 0.10129(9)
C3J C 0.30381(7) 0.46261(6) 0.55049(10)
C4J C 0.36581(7) 0.54036(6) 0.55048(10)
N4B N -0.09900(8) 0.5000 0.2500
C5G C 0.13272(8) 0.54248(6) 0.28524(11)
C6G C 0.19994(8) 0.54258(6) 0.28531(11)
O1G O 0.33215(5) 0.40554(5) 0.25422(8)
O2B O 0.0000 0.59596(7) 0.2500
N7F N 0.01174(10) 0.32152(7) 0.33262(13)
C14F C 0.01137(10) 0.26583(8) 0.33336(15)
H12? H -0.002(2) 0.3342(18) 0.115(3)
C12? C -0.01174(10) 0.32152(7) 0.16738(13)
H13? H -0.0204 0.3397 0.1092
Cl4? Cl 0.12028(11) 0.35312(11) 0.0000
O12? O 0.0897(3) 0.2981(3) 0.0000
O13? O 0.0705(4) 0.3908(3) 0.0000
loop_
_geom_bond_atom_site_label_1
_geom_bond_atom_site_label_2
_geom_bond_site_symmetry_1
_geom_bond_site_symmetry_2
Cu1 N2 1_555 1_555
Cu2 N1 1_555 1_555
N1 C1 1_555 1_555
C1 H1 1_555 1_555
N2 C2 1_555 1_555
C2 H2 1_555 1_555
N3 Cu1 1_555 1_555
C3 N3 1_555 1_555
H3 C3 1_555 1_555
C4 N3 1_555 1_555
H4 C4 1_555 1_555
N4 Cu2 1_555 1_555
C5 N4 1_555 1_555
H5 C5 1_555 1_555
N5 Cu1 1_555 1_555
C6 C5 1_555 1_555
H6 C6 1_555 1_555
O1 Cu1 1_555 1_555
N6 H7 1_555 1_555
C7 O1 1_555 1_555
C8 C7 1_555 1_555
H8 C8 1_555 1_555
C9 C8 1_555 1_555
H9 C9 1_555 1_555
C10 C9 1_555 1_555
H10 C10 1_555 1_555
C11 N6 1_555 1_555
H11 C11 1_555 1_555
O2 Cu2 1_555 1_555
N7 C13 1_555 1_555
C13 O2 1_555 1_555
C14 N7 1_555 1_555
H14 C14 1_555 1_555
C15 C14 1_555 1_555
H15 C15 1_555 1_555
Cl1 O3 1_555 1_555
O4 Cl1 1_555 1_555
O5 Cl1 1_555 1_555
Cl2 O6 1_555 1_555
O7 Cl2 1_555 1_555
O8 Cl2 1_555 1_555
O9 Cl3 1_555 1_555
Cl3 O10 1_555 1_555
O11 Cl3 1_555 1_555
N1F Cu2 1_555 1_555
C1B N1 1_555 1_555
C1J C1 1_555 1_555
C2G N2 1_555 1_555
C2F C2 1_555 1_555
N3G Cu1 1_555 1_555
C3J C3 1_555 1_555
C4J C4 1_555 1_555
N4B Cu2 1_555 1_555
C5G N4 1_555 1_555
C6G N5 1_555 1_555
O1G Cu1 1_555 1_555
O2B Cu2 1_555 1_555
N7F C13 1_555 1_555
C14F C15 1_555 1_555
O3J Cl1 1_555 1_555
O6J Cl2 1_555 1_555
O9J Cl3 1_555 1_555
N5 C6 1_555 1_555
N6 C7 1_555 1_555
C10 C11 1_555 1_555
C5G C6G 1_555 1_555
N7F C14F 1_555 1_555

#END
