
#######################################################################
#
#                 Cambridge Crystallographic Data Centre
#                                CCDC 
#
#######################################################################
#
# If this CIF has been generated from an entry in the Cambridge 
# Structural Database, then it will include bibliographic, chemical, 
# crystal, experimental, refinement or atomic coordinate data resulting 
# from the CCDC's data processing and validation procedures.
#
#######################################################################

data_OXOKAO
_symmetry_cell_setting           rhombohedral
_symmetry_space_group_name_H-M   'R -3'
_symmetry_Int_Tables_number      148
_space_group_name_Hall           '-R 3'
loop_
_symmetry_equiv_pos_site_id
_symmetry_equiv_pos_as_xyz
1 x,y,z
2 -y,x-y,z
3 -x+y,-x,z
4 2/3+x,1/3+y,1/3+z
5 2/3-y,1/3+x-y,1/3+z
6 2/3-x+y,1/3-x,1/3+z
7 1/3+x,2/3+y,2/3+z
8 1/3-y,2/3+x-y,2/3+z
9 1/3-x+y,2/3-x,2/3+z
10 -x,-y,-z
11 y,-x+y,-z
12 x-y,x,-z
13 1/3-x,2/3-y,2/3-z
14 1/3+y,2/3-x+y,2/3-z
15 1/3+x-y,2/3+x,2/3-z
16 2/3-x,1/3-y,1/3-z
17 2/3+y,1/3-x+y,1/3-z
18 2/3+x-y,1/3+x,1/3-z
_cell_length_a                   11.8428(8)
_cell_length_b                   11.8428(8)
_cell_length_c                   19.300(2)
_cell_angle_alpha                90
_cell_angle_beta                 90
_cell_angle_gamma                120
_cell_volume                     2344.21
loop_
_atom_site_label
_atom_site_type_symbol
_atom_site_fract_x
_atom_site_fract_y
_atom_site_fract_z
C1 C 0.97845(13) 0.44626(13) 0.01929(7)
C2 C 1.06323(13) 0.41125(12) 0.05590(7)
C3 C 1.11788(14) 0.28936(13) 0.11866(7)
H1 H 1.1146 0.2209 0.1439
C4 C 1.22560(13) 0.40751(14) 0.10534(7)
H2 H 1.3095 0.4329 0.1205
C5 C 0.88391(14) 0.18043(14) 0.07991(8)
H3 H 0.821 0.2077 0.0876
H4 H 0.8713 0.1151 0.1133
H5 H 0.8731 0.145 0.0341
Cu1 Cu 1.3333 0.6667 0.036685(18)
N1 N 1.19219(11) 0.48382(11) 0.06621(6)
N2 N 1.01538(11) 0.29243(11) 0.08712(6)
Cl1 Cl 1.3333 0.6667 -0.10022(3)
H6 H 0.892(2) 0.3903(19) 0.0254(10)
C1I C 1.02155(13) 0.55374(13) -0.01929(7)
C1A C 1.55374(13) 0.53219(18) 0.01929(7)
C1J C 1.44626(13) 0.46781(18) -0.01929(7)
C1B C 1.46781(18) 1.02155(13) 0.01929(7)
C1K C 1.53219(18) 0.97845(13) -0.01929(7)
C2I C 0.93677(13) 0.58875(12) -0.05590(7)
C2A C 1.58875(12) 0.65198(18) 0.05590(7)
C2J C 1.41125(12) 0.34802(18) -0.05590(7)
C2B C 1.34802(18) 0.93677(13) 0.05590(7)
C2K C 1.65198(18) 1.06323(13) -0.05590(7)
C3I C 0.88212(14) 0.71064(13) -0.11866(7)
C3A C 1.71064(13) 0.82852(19) 0.11866(7)
C3J C 1.28936(13) 0.17148(19) -0.11866(7)
C3B C 1.17148(19) 0.88212(14) 0.11866(7)
C3K C 1.82852(19) 1.11788(14) -0.11866(7)
H1I H 0.8854 0.7791 -0.1439
H1A H 1.7791 0.8937 0.1439
H1J H 1.2209 0.1063 -0.1439
H1B H 1.1063 0.8854 0.1439
H1K H 1.8937 1.1146 -0.1439
C4I C 0.77440(13) 0.59249(14) -0.10534(7)
C4A C 1.59249(14) 0.81809(19) 0.10534(7)
C4J C 1.40751(14) 0.18191(19) -0.10534(7)
C4B C 1.18191(19) 0.77440(13) 0.10534(7)
C4K C 1.81809(19) 1.22560(13) -0.10534(7)
H2I H 0.6905 0.5671 -0.1205
H2A H 1.5671 0.8766 0.1205
H2J H 1.4329 0.1234 -0.1205
H2B H 1.1234 0.6905 0.1205
H2K H 1.8766 1.3095 -0.1205
C5I C 1.11609(14) 0.81957(14) -0.07991(8)
C5A C 1.81957(14) 0.70348(20) 0.07991(8)
C5J C 1.18043(14) 0.29652(20) -0.07991(8)
C5B C 1.29652(20) 1.11609(14) 0.07991(8)
C5K C 1.70348(20) 0.88391(14) -0.07991(8)
H3I H 1.179 0.7923 -0.0876
H3A H 1.7923 0.6133 0.0876
H3J H 1.2077 0.3867 -0.0876
H3B H 1.3867 1.179 0.0876
H3K H 1.6133 0.821 -0.0876
H4I H 1.1287 0.8849 -0.1133
H4A H 1.8849 0.7562 0.1133
H4J H 1.1151 0.2438 -0.1133
H4B H 1.2438 1.1287 0.1133
H4K H 1.7562 0.8713 -0.1133
H5I H 1.1269 0.855 -0.0341
H5A H 1.855 0.7281 0.0341
H5J H 1.145 0.2719 -0.0341
H5B H 1.2719 1.1269 0.0341
H5K H 1.7281 0.8731 -0.0341
Cu1I Cu 0.6667 0.3333 -0.036685(18)
Cu1J Cu 1.6667 0.3334 -0.036685(18)
Cu1K Cu 1.6666 1.3333 -0.036685(18)
N1I N 0.80781(11) 0.51618(11) -0.06621(6)
N1A N 1.51618(11) 0.70837(16) 0.06621(6)
N1J N 1.48382(11) 0.29163(16) -0.06621(6)
N1B N 1.29163(16) 0.80781(11) 0.06621(6)
N1K N 1.70837(16) 1.19219(11) -0.06621(6)
N1J_2 N 0.48382(11) 0.29163(16) -0.06621(6)
N1K_2 N 0.70837(16) 0.19219(11) -0.06621(6)
N2I N 0.98462(11) 0.70757(11) -0.08712(6)
N2A N 1.70757(11) 0.72295(16) 0.08712(6)
N2J N 1.29243(11) 0.27705(16) -0.08712(6)
N2B N 1.27705(16) 0.98462(11) 0.08712(6)
N2K N 1.72295(16) 1.01538(11) -0.08712(6)
Cl1I Cl 0.6667 0.3333 0.10022(3)
H6I H 1.108(2) 0.6097(19) -0.0254(10)
H6A H 1.6097(19) 0.5017(28) 0.0254(10)
H6J H 1.3903(19) 0.4983(28) -0.0254(10)
H6B H 1.4983(28) 1.108(2) 0.0254(10)
H6K H 1.5017(28) 0.892(2) -0.0254(10)
loop_
_geom_bond_atom_site_label_1
_geom_bond_atom_site_label_2
_geom_bond_site_symmetry_1
_geom_bond_site_symmetry_2
C1 C2 1_555 1_555
C2 N1 1_555 1_555
C3 H1 1_555 1_555
C4 C3 1_555 1_555
H2 C4 1_555 1_555
C5 H3 1_555 1_555
H4 C5 1_555 1_555
H5 C5 1_555 1_555
Cu1 N1 1_555 1_555
N1 C4 1_555 1_555
N2 C2 1_555 1_555
Cl1 Cu1 1_555 1_555
H6 C1 1_555 1_555
C1I C1 1_555 1_555
C1A C1J 1_555 1_555
C1J C2J 1_555 1_555
C1B C1K 1_555 1_555
C1K C2K 1_555 1_555
C2I C1I 1_555 1_555
C2A C1A 1_555 1_555
C2J N1J 1_555 1_555
C2B C1B 1_555 1_555
C2K N1K 1_555 1_555
C3I H1I 1_555 1_555
C3A H1A 1_555 1_555
C3J H1J 1_555 1_555
C3B H1B 1_555 1_555
C3K H1K 1_555 1_555
C4I C3I 1_555 1_555
C4A C3A 1_555 1_555
C4J C3J 1_555 1_555
C4B C3B 1_555 1_555
C4K C3K 1_555 1_555
H2I C4I 1_555 1_555
H2A C4A 1_555 1_555
H2J C4J 1_555 1_555
H2B C4B 1_555 1_555
H2K C4K 1_555 1_555
C5I H3I 1_555 1_555
C5A H3A 1_555 1_555
C5J H3J 1_555 1_555
C5B H3B 1_555 1_555
C5K H3K 1_555 1_555
H4I C5I 1_555 1_555
H4A C5A 1_555 1_555
H4J C5J 1_555 1_555
H4B C5B 1_555 1_555
H4K C5K 1_555 1_555
H5I C5I 1_555 1_555
H5A C5A 1_555 1_555
H5J C5J 1_555 1_555
H5B C5B 1_555 1_555
H5K C5K 1_555 1_555
Cu1I N1I 1_555 1_555
Cu1J N1J 1_555 1_555
Cu1K N1K 1_555 1_555
N1I C2I 1_555 1_555
N1A Cu1 1_555 1_555
N1J C4J 1_555 1_555
N1B Cu1 1_555 1_555
N1K C4K 1_555 1_555
N1J_2 Cu1I 1_555 1_555
N1K_2 Cu1I 1_555 1_555
N2I C2I 1_555 1_555
N2A C2A 1_555 1_555
N2J C2J 1_555 1_555
N2B C2B 1_555 1_555
N2K C2K 1_555 1_555
Cl1I Cu1I 1_555 1_555
H6I C1I 1_555 1_555
H6A C1A 1_555 1_555
H6J C1J 1_555 1_555
H6B C1B 1_555 1_555
H6K C1K 1_555 1_555
C3 N2 1_555 1_555
C5 N2 1_555 1_555
C2A N1A 1_555 1_555
C2B N1B 1_555 1_555
C3I N2I 1_555 1_555
C3A N2A 1_555 1_555
C3J N2J 1_555 1_555
C3B N2B 1_555 1_555
C3K N2K 1_555 1_555
C4I N1I 1_555 1_555
C4A N1A 1_555 1_555
C4B N1B 1_555 1_555
C5I N2I 1_555 1_555
C5A N2A 1_555 1_555
C5J N2J 1_555 1_555
C5B N2B 1_555 1_555
C5K N2K 1_555 1_555

#END
