
#######################################################################
#
#                 Cambridge Crystallographic Data Centre
#                                CCDC 
#
#######################################################################
#
# If this CIF has been generated from an entry in the Cambridge 
# Structural Database, then it will include bibliographic, chemical, 
# crystal, experimental, refinement or atomic coordinate data resulting 
# from the CCDC's data processing and validation procedures.
#
#######################################################################

data_OXOQIC
_symmetry_cell_setting           triclinic
_symmetry_space_group_name_H-M   'P -1'
_symmetry_Int_Tables_number      2
_space_group_name_Hall           '-P 1'
loop_
_symmetry_equiv_pos_site_id
_symmetry_equiv_pos_as_xyz
1 x,y,z
2 -x,-y,-z
_cell_length_a                   9.659(5)
_cell_length_b                   11.501(5)
_cell_length_c                   12.169(5)
_cell_angle_alpha                70.080(5)
_cell_angle_beta                 81.322(5)
_cell_angle_gamma                75.169(5)
_cell_volume                     1225.59
loop_
_atom_site_label
_atom_site_type_symbol
_atom_site_fract_x
_atom_site_fract_y
_atom_site_fract_z
Cu1 Cu 0.37372(10) 0.17185(7) 0.05724(7)
Cu2 Cu 0.00983(10) -0.47284(8) 0.27666(8)
V1 V 0.01621(12) 0.08380(9) 0.15153(9)
V2 V 0.10876(12) -0.21620(10) 0.12153(10)
O1 O -0.0082(6) -0.3096(4) 0.1876(5)
O2 O 0.1563(5) 0.1444(4) 0.1327(4)
O3 O 0.0689(6) -0.0836(4) 0.1728(5)
O4 O -0.0749(5) 0.1068(4) 0.2682(4)
O5 O 0.2685(5) -0.2931(5) 0.1490(5)
O6 O -0.0989(6) 0.1631(5) 0.0322(4)
N1 N 0.3257(6) 0.3484(5) -0.0227(4)
N2 N 0.1194(6) -0.8401(5) 0.4520(5)
N3 N 0.0353(6) -0.6376(5) 0.3788(5)
N4 N 0.5499(6) 0.8096(5) -0.7646(4)
N5 N 0.3427(6) 0.5436(5) -0.1249(5)
N6 N 0.4865(6) 1.0093(5) -0.8716(4)
C1 C 0.6340(7) 0.9749(7) -0.8664(6)
H1 H 0.6967 1.0281 -0.9033
C2 C 0.0580(7) -0.7981(6) 0.5446(6)
H2 H 0.0533 -0.8460 0.6235
C3 C 0.1908(8) 0.4240(7) -0.0380(7)
H3 H 0.1055 0.3972 -0.0094
C4 C 0.4405(8) 0.6521(6) -0.3236(6)
C5 C 0.5811(9) 0.6242(7) -0.3671(6)
H4 H 0.6552 0.5990 -0.3176
C6 C 0.4064(10) 0.6491(7) -0.1977(6)
H5 H 0.4942 0.6440 -0.1649
H6 H 0.3408 0.7279 -0.1955
C7 C 0.2010(9) 0.5440(7) -0.1013(8)
H7 H 0.1251 0.6135 -0.1244
C8 C 0.5368(8) 0.6803(6) -0.6890(6)
H8 H 0.6256 0.6206 -0.6981
H9 H 0.4605 0.6571 -0.7148
C9 C 0.6120(8) 0.6335(6) -0.4842(7)
H10 H 0.7073 0.6148 -0.5123
C10 C 0.4147(8) 0.4234(6) -0.0768(5)
H11 H 0.5142 0.3969 -0.0811
C11 C 0.1023(7) -0.7420(6) 0.3544(6)
H12 H 0.1333 -0.7462 0.2795
C12 C 0.3321(7) 0.6879(6) -0.4000(6)
H13 H 0.2367 0.7065 -0.3722
C13 C 0.4572(7) -0.9508(6) 0.3889(6)
H14 H 0.4280 -0.9169 0.3128
C14 C 0.5051(7) 0.6697(5) -0.5605(6)
C15 C 0.0063(7) -0.6741(7) 0.4976(6)
H15 H -0.0425 -0.6200 0.5396
C16 C 0.3558(7) -0.9860(5) 0.4821(5)
C17 C 0.6736(7) 0.8524(7) -0.7999(6)
H16 H 0.7662 0.8067 -0.7818
C18 C 0.3643(8) 0.6960(6) -0.5154(6)
H17 H 0.2901 0.7197 -0.5646
C19 C 0.4026(7) -1.0351(6) 0.5934(6)
H18 H 0.3380 -1.0590 0.6572
C20 C 0.2035(7) -0.9697(6) 0.4590(6)
H19 H 0.2008 -0.9852 0.3858
H20 H 0.1603 -1.0315 0.5212
C21 C 0.4393(7) 0.9058(5) -0.8100(5)
H21 H 0.3436 0.9000 -0.7995
Cu1A Cu -0.37372(10) -0.17185(7) -0.05724(7)
Cu1_2 Cu 0.37372(10) 1.17185(7) -0.94276(7)
Cu1A_2 Cu -0.37372(10) -1.17185(7) 0.94276(7)
Cu2A Cu -0.00983(10) 0.47284(8) -0.27666(8)
Cu2A_2 Cu 0.99017(10) -1.52716(8) 0.72334(8)
V1A V -0.01621(12) -0.08380(9) -0.15153(9)
V2A V -0.10876(12) 0.21620(10) -0.12153(10)
O1A O 0.0082(6) 0.3096(4) -0.1876(5)
O2A O -0.1563(5) -0.1444(4) -0.1327(4)
O3A O -0.0689(6) 0.0836(4) -0.1728(5)
O4A O 0.0749(5) -0.1068(4) -0.2682(4)
O5A O -0.2685(5) 0.2931(5) -0.1490(5)
O6A O 0.0989(6) -0.1631(5) -0.0322(4)
N1A N -0.3257(6) -0.3484(5) 0.0227(4)
N2A N 0.8806(6) -1.1599(5) 0.5480(5)
N3A N 0.9647(6) -1.3624(5) 0.6212(5)
N3A_2 N -0.0353(6) 0.6376(5) -0.3788(5)
N4A N -0.5499(6) -0.8096(5) 0.7646(4)
N5A N -0.3427(6) -0.5436(5) 0.1249(5)
N6_2 N 0.4865(6) 0.0093(5) 0.1284(4)
N6A N -0.4865(6) -0.0093(5) -0.1284(4)
N6A_2 N -0.4865(6) -1.0093(5) 0.8716(4)
C1A C -0.6340(7) -0.9749(7) 0.8664(6)
H1A H -0.6967 -1.0281 0.9033
C2A C 0.9420(7) -1.2019(6) 0.4554(6)
H2A H 0.9467 -1.1540 0.3765
C3A C -0.1908(8) -0.4240(7) 0.0380(7)
H3A H -0.1055 -0.3972 0.0094
C4A C -0.4405(8) -0.6521(6) 0.3236(6)
C5A C -0.5811(9) -0.6242(7) 0.3671(6)
H4A H -0.6552 -0.5990 0.3176
C6A C -0.4064(10) -0.6491(7) 0.1977(6)
H5A H -0.4942 -0.6440 0.1649
H6A H -0.3408 -0.7279 0.1955
C7A C -0.2010(9) -0.5440(7) 0.1013(8)
H7A H -0.1251 -0.6135 0.1244
C8A C -0.5368(8) -0.6803(6) 0.6890(6)
H8A H -0.6256 -0.6206 0.6981
H9A H -0.4605 -0.6571 0.7148
C9A C -0.6120(8) -0.6335(6) 0.4842(7)
H10A H -0.7073 -0.6148 0.5123
C10A C -0.4147(8) -0.4234(6) 0.0768(5)
H11A H -0.5142 -0.3969 0.0811
C11A C 0.8977(7) -1.2580(6) 0.6456(6)
H12A H 0.8667 -1.2538 0.7205
C12A C -0.3321(7) -0.6879(6) 0.4000(6)
H13A H -0.2367 -0.7065 0.3722
C13A C 0.5428(7) -1.0492(6) 0.6111(6)
H14A H 0.5720 -1.0831 0.6872
C14A C -0.5051(7) -0.6697(5) 0.5605(6)
C15A C 0.9937(7) -1.3259(7) 0.5024(6)
H15A H 1.0425 -1.3800 0.4604
C16A C 0.6442(7) -1.0140(5) 0.5179(5)
C17A C -0.6736(7) -0.8524(7) 0.7999(6)
H16A H -0.7662 -0.8067 0.7818
C18A C -0.3643(8) -0.6960(6) 0.5154(6)
H17A H -0.2901 -0.7197 0.5646
C19A C 0.5974(7) -0.9649(6) 0.4066(6)
H18A H 0.6620 -0.9410 0.3428
C20A C 0.7965(7) -1.0303(6) 0.5410(6)
H19A H 0.7992 -1.0148 0.6142
H20A H 0.8397 -0.9685 0.4788
C21A C -0.4393(7) -0.9058(5) 0.8100(5)
H21A H -0.3436 -0.9000 0.7995
loop_
_geom_bond_atom_site_label_1
_geom_bond_atom_site_label_2
_geom_bond_site_symmetry_1
_geom_bond_site_symmetry_2
Cu1 O2 1_555 1_555
Cu2 O1 1_555 1_555
V1 O2 1_555 1_555
V2 O1 1_555 1_555
O3 V1 1_555 1_555
O4 V1 1_555 1_555
O5 V2 1_555 1_555
O6 V1 1_555 1_555
N1 Cu1 1_555 1_555
N2 C2 1_555 1_555
N3 Cu2 1_555 1_555
N4 C8 1_555 1_555
N5 C6 1_555 1_555
N6 C1 1_555 1_555
C1 H1 1_555 1_555
C2 H2 1_555 1_555
C3 N1 1_555 1_555
H3 C3 1_555 1_555
C4 C5 1_555 1_555
C5 H4 1_555 1_555
C6 C4 1_555 1_555
H5 C6 1_555 1_555
H6 C6 1_555 1_555
C7 N5 1_555 1_555
H7 C7 1_555 1_555
C8 H8 1_555 1_555
H9 C8 1_555 1_555
C9 C5 1_555 1_555
H10 C9 1_555 1_555
C10 N1 1_555 1_555
H11 C10 1_555 1_555
C11 N2 1_555 1_555
H12 C11 1_555 1_555
C12 C4 1_555 1_555
H13 C12 1_555 1_555
C13 H14 1_555 1_555
C14 C8 1_555 1_555
C15 N3 1_555 1_555
H15 C15 1_555 1_555
C16 C13 1_555 1_555
C17 N4 1_555 1_555
H16 C17 1_555 1_555
C18 C12 1_555 1_555
H17 C18 1_555 1_555
C19 C16 1_555 1_555
H18 C19 1_555 1_555
C20 N2 1_555 1_555
H19 C20 1_555 1_555
H20 C20 1_555 1_555
C21 N4 1_555 1_555
H21 C21 1_555 1_555
Cu1A O2A 1_555 1_555
Cu1_2 N6 1_555 1_555
Cu1A_2 N6A_2 1_555 1_555
Cu2A O1A 1_555 1_555
Cu2A_2 N3A 1_555 1_555
V1A O2A 1_555 1_555
V2A O6 1_555 1_555
O1A V2A 1_555 1_555
O3A V1A 1_555 1_555
O4A V1A 1_555 1_555
O5A V2A 1_555 1_555
O6A V2 1_555 1_555
N1A Cu1A 1_555 1_555
N2A C2A 1_555 1_555
N3A C11A 1_555 1_555
N3A_2 Cu2A 1_555 1_555
N4A C8A 1_555 1_555
N5A C6A 1_555 1_555
N6_2 Cu1 1_555 1_555
N6A Cu1A 1_555 1_555
N6A_2 C1A 1_555 1_555
C1A H1A 1_555 1_555
C2A H2A 1_555 1_555
C3A N1A 1_555 1_555
H3A C3A 1_555 1_555
C4A C5A 1_555 1_555
C5A H4A 1_555 1_555
C6A C4A 1_555 1_555
H5A C6A 1_555 1_555
H6A C6A 1_555 1_555
C7A N5A 1_555 1_555
H7A C7A 1_555 1_555
C8A H8A 1_555 1_555
H9A C8A 1_555 1_555
C9A C5A 1_555 1_555
H10A C9A 1_555 1_555
C10A N1A 1_555 1_555
H11A C10A 1_555 1_555
C11A N2A 1_555 1_555
H12A C11A 1_555 1_555
C12A C4A 1_555 1_555
H13A C12A 1_555 1_555
C13A C19 1_555 1_555
H14A C13A 1_555 1_555
C14A C8A 1_555 1_555
C15A N3A 1_555 1_555
H15A C15A 1_555 1_555
C16A C13A 1_555 1_555
C17A N4A 1_555 1_555
H16A C17A 1_555 1_555
C18A C12A 1_555 1_555
H17A C18A 1_555 1_555
C19A C13 1_555 1_555
H18A C19A 1_555 1_555
C20A N2A 1_555 1_555
H19A C20A 1_555 1_555
H20A C20A 1_555 1_555
C21A N4A 1_555 1_555
H21A C21A 1_555 1_555
V2 O3 1_555 1_555
N3 C11 1_555 1_555
N5 C10 1_555 1_555
N6 C21 1_555 1_555
C1 C17 1_555 1_555
C2 C15 1_555 1_555
C3 C7 1_555 1_555
C9 C14 1_555 1_555
C14 C18 1_555 1_555
C16 C20 1_555 1_555
V1A O6A 1_555 1_555
V2A O3A 1_555 1_555
N5A C10A 1_555 1_555
N6A_2 C21A 1_555 1_555
C1A C17A 1_555 1_555
C2A C15A 1_555 1_555
C3A C7A 1_555 1_555
C9A C14A 1_555 1_555
C14A C18A 1_555 1_555
C16A C19A 1_555 1_555
C16A C20A 1_555 1_555

#END
