
#######################################################################
#
#                 Cambridge Crystallographic Data Centre
#                                CCDC 
#
#######################################################################
#
# If this CIF has been generated from an entry in the Cambridge 
# Structural Database, then it will include bibliographic, chemical, 
# crystal, experimental, refinement or atomic coordinate data resulting 
# from the CCDC's data processing and validation procedures.
#
#######################################################################

data_OXOQOI
_symmetry_cell_setting           triclinic
_symmetry_space_group_name_H-M   'P -1'
_symmetry_Int_Tables_number      2
_space_group_name_Hall           '-P 1'
loop_
_symmetry_equiv_pos_site_id
_symmetry_equiv_pos_as_xyz
1 x,y,z
2 -x,-y,-z
_cell_length_a                   9.737(2)
_cell_length_b                   10.784(3)
_cell_length_c                   13.226(3)
_cell_angle_alpha                68.015(2)
_cell_angle_beta                 77.230(2)
_cell_angle_gamma                64.073(2)
_cell_volume                     1155.43
loop_
_atom_site_label
_atom_site_type_symbol
_atom_site_fract_x
_atom_site_fract_y
_atom_site_fract_z
N1 N 0.8409(7) 0.2406(6) 0.0537(5)
C17 C 0.8647(7) 0.2714(7) 0.1348(5)
H7 H 0.8388 0.2237 0.2062
C18 C 0.9273(7) 0.3726(6) 0.1167(5)
H8 H 0.9435 0.3906 0.1757
C19 C 0.9655(6) 0.4465(6) 0.0112(5)
C20 C 0.9374(12) 0.4152(10) -0.0734(6)
H9 H 0.9601 0.4624 -0.1458
C21 C 0.8754(12) 0.3135(10) -0.0484(7)
H10 H 0.8566 0.2942 -0.1058
N1A N 1.1591(7) 0.7594(6) -0.0537(5)
C17A C 1.1353(7) 0.7286(7) -0.1348(5)
H7A H 1.1612 0.7763 -0.2062
C18A C 1.0727(7) 0.6274(6) -0.1167(5)
H8A H 1.0565 0.6094 -0.1757
C19A C 1.0345(6) 0.5535(6) -0.0112(5)
C20A C 1.0626(12) 0.5848(10) 0.0734(6)
H9A H 1.0399 0.5376 0.1458
C21A C 1.1246(12) 0.6865(10) 0.0484(7)
H10A H 1.1434 0.7058 0.1058
Pr1 Pr 0.77138(2) -0.03595(2) 0.491635(18)
C1 C 0.8812(5) 0.2691(5) 0.4260(4)
C2 C 0.7480(5) 0.4119(5) 0.3996(4)
C3 C 0.7463(5) 0.5285(5) 0.4236(4)
H1 H 0.8326 0.5204 0.4490
C4 C 0.6147(5) 0.6574(5) 0.4094(3)
C5 C 0.6074(5) 0.7784(4) 0.4448(3)
C6 C 0.4858(5) 0.6717(5) 0.3688(4)
H2 H 0.3972 0.7561 0.3603
C7 C 0.4941(5) 0.5565(5) 0.3415(4)
C8 C 0.6193(5) 0.4263(5) 0.3582(4)
H3 H 0.6184 0.3496 0.3423
C9 C 0.7199(5) -0.1150(5) 0.7283(4)
C10 C 0.6892(5) -0.1510(5) 0.8498(4)
C11 C 0.7220(6) -0.0828(6) 0.9061(4)
H4 H 0.7629 -0.0133 0.8676
C12 C 0.6949(6) -0.1161(6) 1.0196(4)
C13 C 0.7244(7) -0.0371(6) 1.0791(4)
C14 C 0.6333(7) -0.2209(6) 1.0774(4)
H5 H 0.6149 -0.2456 1.1529
C15 C 0.6007(7) -0.2865(6) 1.0193(5)
C16 C 0.6249(6) -0.2547(6) 0.9078(4)
H6 H 0.5996 -0.3002 0.8716
C22 C 1.0297(10) -0.1699(9) 0.2844(7)
H11 H 1.1192 -0.2469 0.3195
H12 H 1.0562 -0.1311 0.2081
H13 H 0.9533 -0.2071 0.2923
F1 F 0.3702(3) 0.5706(4) 0.2993(3)
F2 F 0.5405(6) -0.3884(5) 1.0755(3)
O1 O 0.8595(4) 0.1552(3) 0.4402(3)
O2 O 1.0076(4) 0.2660(4) 0.4357(3)
O3 O 0.7335(4) 0.7803(4) 0.4513(3)
O4 O 0.4789(4) 0.8660(4) 0.4686(3)
O5 O 0.6738(4) -0.1658(4) 0.6777(3)
O6 O 0.7941(4) -0.0341(4) 0.6799(3)
O7 O 0.6928(5) -0.0585(5) 1.1768(3)
O8 O 0.7813(7) 0.0548(6) 1.0153(4)
H14 H 0.7957 0.0956 1.0509
O9 O 0.9716(4) -0.0587(4) 0.3332(3)
H15 H 1.0423 -0.0348 0.3291
O10 O 0.6400(4) 0.1006(4) 0.3138(3)
H16 H 0.5477 0.1199 0.3218
H17 H 0.6943 0.0650 0.2666
Pr1A Pr 0.22862(2) 1.03595(2) 0.508365(18)
Pr1A_2 Pr 1.22862(2) 0.03595(2) 0.508365(18)
Pr1_2 Pr 0.77138(2) 0.96405(2) 0.491635(18)
Pr1_3 Pr -0.22862(2) 0.96405(2) 0.491635(18)
Pr1A_3 Pr 0.22862(2) 0.03595(2) 0.508365(18)
C1A C 0.1188(5) 0.7309(5) 0.5740(4)
C2A C 0.2520(5) 0.5881(5) 0.6004(4)
C3A C 0.2537(5) 0.4715(5) 0.5764(4)
H1A H 0.1674 0.4796 0.5510
C4A C 0.3853(5) 0.3426(5) 0.5906(3)
C5A C 0.3926(5) 0.2216(4) 0.5552(3)
C6A C 0.5142(5) 0.3283(5) 0.6312(4)
H2A H 0.6028 0.2439 0.6397
C7A C 0.5059(5) 0.4435(5) 0.6585(4)
C8A C 0.3807(5) 0.5737(5) 0.6418(4)
H3A H 0.3816 0.6504 0.6577
C9A C 0.2801(5) 1.1150(5) 0.2717(4)
C10A C 0.3108(5) 1.1510(5) 0.1502(4)
C11A C 0.2780(6) 1.0828(6) 0.0939(4)
H4A H 0.2371 1.0133 0.1324
C12A C 0.3051(6) 1.1161(6) -0.0196(4)
C13A C 0.2756(7) 1.0371(6) -0.0791(4)
C14A C 0.3667(7) 1.2209(6) -0.0774(4)
H5A H 0.3851 1.2456 -0.1529
C15A C 0.3993(7) 1.2865(6) -0.0193(5)
C16A C 0.3751(6) 1.2547(6) 0.0922(4)
H6A H 0.4004 1.3002 0.1284
C22A C -0.0297(10) 1.1699(9) 0.7156(7)
H11A H -0.1192 1.2469 0.6805
H12A H -0.0562 1.1311 0.7919
H13A H 0.0467 1.2071 0.7077
F1A F 0.6298(3) 0.4294(4) 0.7007(3)
F2A F 0.4595(6) 1.3884(5) -0.0755(3)
O1A O 0.1405(4) 0.8448(3) 0.5598(3)
O2A O -0.0076(4) 0.7340(4) 0.5643(3)
O2A_2 O 0.9924(4) -0.2660(4) 0.5643(3)
O2_2 O 0.0076(4) 1.2660(4) 0.4357(3)
O3A O 0.2665(4) 0.2197(4) 0.5487(3)
O3_2 O 0.7335(4) -0.2197(4) 0.4513(3)
O3A_2 O 0.2665(4) 1.2197(4) 0.5487(3)
O4A O 0.5211(4) 0.1340(4) 0.5314(3)
O5A O 0.3262(4) 1.1658(4) 0.3223(3)
O6A O 0.2059(4) 1.0341(4) 0.3201(3)
O7A O 0.3072(5) 1.0585(5) -0.1768(3)
O8A O 0.2187(7) 0.9452(6) -0.0153(4)
H14A H 0.2043 0.9044 -0.0509
O9A O 0.0284(4) 1.0587(4) 0.6668(3)
H15A H -0.0423 1.0348 0.6709
O10A O 0.3600(4) 0.8994(4) 0.6862(3)
H16A H 0.4523 0.8801 0.6782
H17A H 0.3057 0.9350 0.7334
O11 O 0.8877(15) 0.5122(15) 0.6797(11)
H18 H 0.9206 0.5635 0.6261
H19 H 0.8404 0.5408 0.7316
loop_
_geom_bond_atom_site_label_1
_geom_bond_atom_site_label_2
_geom_bond_site_symmetry_1
_geom_bond_site_symmetry_2
N1 C17 1_555 1_555
Pr1 O1 1_555 1_555
C1 C2 1_555 1_555
C2 C3 1_555 1_555
C3 H1 1_555 1_555
C4 C3 1_555 1_555
C5 C4 1_555 1_555
C6 C4 1_555 1_555
H2 C6 1_555 1_555
C7 C6 1_555 1_555
C8 C2 1_555 1_555
H3 C8 1_555 1_555
C9 C10 1_555 1_555
C10 C11 1_555 1_555
C11 H4 1_555 1_555
C12 C11 1_555 1_555
C13 C12 1_555 1_555
C14 C12 1_555 1_555
H5 C14 1_555 1_555
C15 C14 1_555 1_555
C16 C10 1_555 1_555
H6 C16 1_555 1_555
C17 H7 1_555 1_555
C18 C17 1_555 1_555
H8 C18 1_555 1_555
C19 C18 1_555 1_555
C20 C19 1_555 1_555
H9 C20 1_555 1_555
C21 N1 1_555 1_555
H10 C21 1_555 1_555
C22 H11 1_555 1_555
H12 C22 1_555 1_555
H13 C22 1_555 1_555
F1 C7 1_555 1_555
F2 C15 1_555 1_555
O1 C1 1_555 1_555
O2 C1 1_555 1_555
O3 C5 1_555 1_555
O4 C5 1_555 1_555
O5 Pr1 1_555 1_555
O6 Pr1 1_555 1_555
O7 C13 1_555 1_555
O8 C13 1_555 1_555
H14 O8 1_555 1_555
O9 Pr1 1_555 1_555
H15 O9 1_555 1_555
O10 Pr1 1_555 1_555
H16 O10 1_555 1_555
H17 O10 1_555 1_555
O11 H18 1_555 1_555
H19 O11 1_555 1_555
N1A C17A 1_555 1_555
Pr1A O4 1_555 1_555
Pr1A_2 O2 1_555 1_555
Pr1_2 O3 1_555 1_555
Pr1_3 O2A 1_555 1_555
Pr1A_3 O3A 1_555 1_555
C1A C2A 1_555 1_555
C2A C3A 1_555 1_555
C3A H1A 1_555 1_555
C4A C3A 1_555 1_555
C5A C4A 1_555 1_555
C6A C4A 1_555 1_555
H2A C6A 1_555 1_555
C7A C6A 1_555 1_555
C8A C2A 1_555 1_555
H3A C8A 1_555 1_555
C9A C10A 1_555 1_555
C10A C11A 1_555 1_555
C11A H4A 1_555 1_555
C12A C11A 1_555 1_555
C13A C12A 1_555 1_555
C14A C12A 1_555 1_555
H5A C14A 1_555 1_555
C15A C14A 1_555 1_555
C16A C10A 1_555 1_555
H6A C16A 1_555 1_555
C17A H7A 1_555 1_555
C18A C17A 1_555 1_555
H8A C18A 1_555 1_555
C19A C19 1_555 1_555
C20A C19A 1_555 1_555
H9A C20A 1_555 1_555
C21A N1A 1_555 1_555
H10A C21A 1_555 1_555
C22A H11A 1_555 1_555
H12A C22A 1_555 1_555
H13A C22A 1_555 1_555
F1A C7A 1_555 1_555
F2A C15A 1_555 1_555
O1A Pr1A 1_555 1_555
O2A C1A 1_555 1_555
O2A_2 Pr1 1_555 1_555
O2_2 Pr1A 1_555 1_555
O3A C5A 1_555 1_555
O3_2 Pr1 1_555 1_555
O3A_2 Pr1A 1_555 1_555
O4A Pr1 1_555 1_555
O5A Pr1A 1_555 1_555
O6A Pr1A 1_555 1_555
O7A C13A 1_555 1_555
O8A C13A 1_555 1_555
H14A O8A 1_555 1_555
O9A Pr1A 1_555 1_555
H15A O9A 1_555 1_555
O10A Pr1A 1_555 1_555
H16A O10A 1_555 1_555
H17A O10A 1_555 1_555
C7 C8 1_555 1_555
C9 O5 1_555 1_555
C9 O6 1_555 1_555
C15 C16 1_555 1_555
C20 C21 1_555 1_555
C22 O9 1_555 1_555
C1A O1A 1_555 1_555
C5A O4A 1_555 1_555
C7A C8A 1_555 1_555
C9A O5A 1_555 1_555
C9A O6A 1_555 1_555
C15A C16A 1_555 1_555
C18A C19A 1_555 1_555
C20A C21A 1_555 1_555
C22A O9A 1_555 1_555

#END
