
#######################################################################
#
#                 Cambridge Crystallographic Data Centre
#                                CCDC 
#
#######################################################################
#
# If this CIF has been generated from an entry in the Cambridge 
# Structural Database, then it will include bibliographic, chemical, 
# crystal, experimental, refinement or atomic coordinate data resulting 
# from the CCDC's data processing and validation procedures.
#
#######################################################################

data_OXOQUO
_symmetry_cell_setting           triclinic
_symmetry_space_group_name_H-M   'P -1'
_symmetry_Int_Tables_number      2
_space_group_name_Hall           '-P 1'
loop_
_symmetry_equiv_pos_site_id
_symmetry_equiv_pos_as_xyz
1 x,y,z
2 -x,-y,-z
_cell_length_a                   9.747(3)
_cell_length_b                   10.778(3)
_cell_length_c                   13.237(4)
_cell_angle_alpha                68.678(3)
_cell_angle_beta                 76.808(3)
_cell_angle_gamma                63.981(3)
_cell_volume                     1160.19
loop_
_atom_site_label
_atom_site_type_symbol
_atom_site_fract_x
_atom_site_fract_y
_atom_site_fract_z
Nd1 Nd 0.27088(3) 0.46407(3) 0.49204(2)
O1 O 0.4911(4) 0.2378(4) 0.5625(4)
O2 O 0.6407(5) 0.3464(4) 0.5578(4)
O3 O 0.7648(5) -0.2803(4) 0.5487(3)
O4 O 1.0206(5) -0.3674(4) 0.5318(3)
O5 O 0.1715(4) 0.3375(4) 0.6760(3)
O6 O 0.2904(5) 0.4695(5) 0.6781(3)
O7 O 0.2818(9) 0.5549(7) 1.0156(5)
H1 H 0.2978 0.6062 1.0407
O8 O 0.1974(7) 0.4386(6) 1.1760(4)
O9 O 0.4733(5) 0.4382(5) 0.3349(3)
H2 H 0.5345 0.4752 0.3261
O10 O 0.1424(5) 0.5977(5) 0.3161(3)
H3 H 0.1944 0.5641 0.2668
H4 H 0.0491 0.6231 0.3235
C1 C 0.6166(6) 0.2349(5) 0.5709(4)
C2 C 0.7507(6) 0.0905(5) 0.5993(4)
C3 C 0.7532(6) -0.0271(5) 0.5753(4)
H7 H 0.6676 -0.0189 0.5495
C4 C 0.8825(6) -0.1554(5) 0.5898(4)
C5 C 1.0115(6) -0.1701(6) 0.6311(4)
H8 H 1.1000 -0.2544 0.6395
C6 C 1.0015(6) -0.0541(6) 0.6587(5)
C7 C 0.8784(6) 0.0760(6) 0.6412(4)
H9 H 0.8795 0.1531 0.6567
C8 C 0.8907(6) -0.2761(5) 0.5538(4)
C9 C 0.2187(6) 0.3886(6) 0.7279(5)
C10 C 0.1874(6) 0.3499(6) 0.8484(5)
C11 C 0.1257(8) 0.2471(8) 0.9050(5)
H10 H 0.1012 0.2014 0.8684
C12 C 0.1016(8) 0.2142(7) 1.0172(5)
C13 C 0.1342(8) 0.2788(8) 1.0750(5)
H11 H 0.1173 0.2531 1.1504
C14 C 0.1937(7) 0.3843(7) 1.0183(5)
C15 C 0.2216(7) 0.4201(7) 0.9046(5)
H12 H 0.2623 0.4895 0.8668
C16 C 0.2259(8) 0.4613(8) 1.0787(5)
C17 C 0.5348(13) 0.3280(14) 0.2845(10)
H13 H 0.6309 0.2580 0.3128
H14 H 0.5505 0.3693 0.2073
H15 H 0.4649 0.2815 0.2989
F1 F 1.1246(4) -0.0684(4) 0.7010(4)
F2 F 0.0416(7) 0.1129(6) 1.0717(4)
Nd1A Nd 0.72912(3) -0.46407(3) 0.50796(2)
Nd1_2 Nd 0.27088(3) -0.53593(3) 0.49204(2)
Nd1_3 Nd 1.27088(3) -0.53593(3) 0.49204(2)
Nd1A_2 Nd -0.27088(3) 0.53593(3) 0.50796(2)
Nd1A_3 Nd 0.72912(3) 0.53593(3) 0.50796(2)
O1A O 0.5089(4) -0.2378(4) 0.4375(4)
O2A O 0.3593(5) -0.3464(4) 0.4422(4)
O2_2 O 0.6407(5) -0.6536(4) 0.5578(4)
O2A_2 O 0.3593(5) 0.6536(4) 0.4422(4)
O3A O 0.2352(5) 0.2803(4) 0.4513(3)
O4A O -0.0206(5) 0.3674(4) 0.4682(3)
O4_2 O 0.0206(5) 0.6326(4) 0.5318(3)
O4A_2 O 0.9794(5) -0.6326(4) 0.4682(3)
O5A O 0.8285(4) -0.3375(4) 0.3240(3)
O6A O 0.7096(5) -0.4695(5) 0.3219(3)
O7A O 0.7182(9) -0.5549(7) -0.0156(5)
H1A H 0.7022 -0.6062 -0.0407
O8A O 0.8026(7) -0.4386(6) -0.1760(4)
O9A O 0.5267(5) -0.4382(5) 0.6651(3)
H2A H 0.4655 -0.4752 0.6739
O10A O 0.8576(5) -0.5977(5) 0.6839(3)
H3A H 0.8056 -0.5641 0.7332
H4A H 0.9509 -0.6231 0.6765
C1A C 0.3834(6) -0.2349(5) 0.4291(4)
C2A C 0.2493(6) -0.0905(5) 0.4007(4)
C3A C 0.2468(6) 0.0271(5) 0.4247(4)
H7A H 0.3324 0.0189 0.4505
C4A C 0.1175(6) 0.1554(5) 0.4102(4)
C5A C -0.0115(6) 0.1701(6) 0.3689(4)
H8A H -0.1000 0.2544 0.3605
C6A C -0.0015(6) 0.0541(6) 0.3413(5)
C7A C 0.1216(6) -0.0760(6) 0.3588(4)
H9A H 0.1205 -0.1531 0.3433
C8A C 0.1093(6) 0.2761(5) 0.4462(4)
C9A C 0.7813(6) -0.3886(6) 0.2721(5)
C10A C 0.8126(6) -0.3499(6) 0.1516(5)
C11A C 0.8743(8) -0.2471(8) 0.0950(5)
H10A H 0.8988 -0.2014 0.1316
C12A C 0.8984(8) -0.2142(7) -0.0172(5)
C13A C 0.8658(8) -0.2788(8) -0.0750(5)
H11A H 0.8827 -0.2531 -0.1504
C14A C 0.8063(7) -0.3843(7) -0.0183(5)
C15A C 0.7784(7) -0.4201(7) 0.0954(5)
H12A H 0.7377 -0.4895 0.1332
C16A C 0.7741(8) -0.4613(8) -0.0787(5)
C17A C 0.4652(13) -0.3280(14) 0.7155(10)
H13A H 0.3691 -0.2580 0.6872
H14A H 0.4495 -0.3693 0.7927
H15A H 0.5351 -0.2815 0.7011
F1A F -0.1246(4) 0.0684(4) 0.2990(4)
F2A F 0.9584(7) -0.1129(6) -0.0717(4)
N1 N 0.3428(9) 0.7397(8) 0.0556(6)
C18 C 0.3671(9) 0.7721(9) 0.1349(7)
H16 H 0.3410 0.7261 0.2064
C19 C 0.4299(9) 0.8715(8) 0.1159(6)
H17 H 0.4477 0.8890 0.1746
C20 C 0.4667(8) 0.9453(7) 0.0119(6)
C21 C 0.4338(13) 0.9159(11) -0.0714(7)
H18 H 0.4522 0.9649 -0.1437
C22 C 0.3742(14) 0.8142(12) -0.0457(8)
H19 H 0.3539 0.7953 -0.1026
N1A N 0.6572(9) 1.2603(8) -0.0556(6)
C18A C 0.6329(9) 1.2279(9) -0.1349(7)
H16A H 0.6590 1.2739 -0.2064
C19A C 0.5701(9) 1.1285(8) -0.1159(6)
H17A H 0.5523 1.1110 -0.1746
C20A C 0.5333(8) 1.0547(7) -0.0119(6)
C21A C 0.5662(13) 1.0841(11) 0.0714(7)
H18A H 0.5478 1.0351 0.1437
C22A C 0.6258(14) 1.1858(12) 0.0457(8)
H19A H 0.6461 1.2047 0.1026
O11 O 0.3811(19) 0.0185(18) 0.6816(13)
H5 H 0.2896 0.0647 0.6730
H6 H 0.4255 -0.0634 0.6756
loop_
_geom_bond_atom_site_label_1
_geom_bond_atom_site_label_2
_geom_bond_site_symmetry_1
_geom_bond_site_symmetry_2
Nd1 O1 1_555 1_555
N1 C18 1_555 1_555
O1 C1 1_555 1_555
O2 C1 1_555 1_555
O3 C8 1_555 1_555
O4 C8 1_555 1_555
O5 Nd1 1_555 1_555
O6 Nd1 1_555 1_555
O7 H1 1_555 1_555
O8 C16 1_555 1_555
O9 Nd1 1_555 1_555
H2 O9 1_555 1_555
O10 Nd1 1_555 1_555
H3 O10 1_555 1_555
H4 O10 1_555 1_555
O11 H5 1_555 1_555
H6 O11 1_555 1_555
C1 C2 1_555 1_555
C2 C3 1_555 1_555
C3 H7 1_555 1_555
C4 C3 1_555 1_555
C5 C4 1_555 1_555
H8 C5 1_555 1_555
C6 C5 1_555 1_555
C7 C2 1_555 1_555
H9 C7 1_555 1_555
C8 C4 1_555 1_555
C9 O5 1_555 1_555
C10 C9 1_555 1_555
C11 C10 1_555 1_555
H10 C11 1_555 1_555
C12 C11 1_555 1_555
C13 C12 1_555 1_555
H11 C13 1_555 1_555
C14 C13 1_555 1_555
C15 C10 1_555 1_555
H12 C15 1_555 1_555
C16 O7 1_555 1_555
C17 O9 1_555 1_555
H13 C17 1_555 1_555
H14 C17 1_555 1_555
H15 C17 1_555 1_555
C18 H16 1_555 1_555
C19 C18 1_555 1_555
H17 C19 1_555 1_555
C20 C19 1_555 1_555
C21 C20 1_555 1_555
H18 C21 1_555 1_555
C22 N1 1_555 1_555
H19 C22 1_555 1_555
F1 C6 1_555 1_555
F2 C12 1_555 1_555
Nd1A O3 1_555 1_555
Nd1_2 O2A 1_555 1_555
Nd1_3 O4 1_555 1_555
Nd1A_2 O4A 1_555 1_555
Nd1A_3 O2 1_555 1_555
N1A C18A 1_555 1_555
O1A Nd1A 1_555 1_555
O2A C1A 1_555 1_555
O2_2 Nd1A 1_555 1_555
O2A_2 Nd1 1_555 1_555
O3A Nd1 1_555 1_555
O4A C8A 1_555 1_555
O4_2 Nd1 1_555 1_555
O4A_2 Nd1A 1_555 1_555
O5A Nd1A 1_555 1_555
O6A Nd1A 1_555 1_555
O7A H1A 1_555 1_555
O8A C16A 1_555 1_555
O9A Nd1A 1_555 1_555
H2A O9A 1_555 1_555
O10A Nd1A 1_555 1_555
H3A O10A 1_555 1_555
H4A O10A 1_555 1_555
C1A O1A 1_555 1_555
C2A C1A 1_555 1_555
C3A C2A 1_555 1_555
H7A C3A 1_555 1_555
C4A C3A 1_555 1_555
C5A C4A 1_555 1_555
H8A C5A 1_555 1_555
C6A C5A 1_555 1_555
C7A C2A 1_555 1_555
H9A C7A 1_555 1_555
C8A O3A 1_555 1_555
C9A O5A 1_555 1_555
C10A C9A 1_555 1_555
C11A C10A 1_555 1_555
H10A C11A 1_555 1_555
C12A C11A 1_555 1_555
C13A C12A 1_555 1_555
H11A C13A 1_555 1_555
C14A C13A 1_555 1_555
C15A C10A 1_555 1_555
H12A C15A 1_555 1_555
C16A O7A 1_555 1_555
C17A O9A 1_555 1_555
H13A C17A 1_555 1_555
H14A C17A 1_555 1_555
H15A C17A 1_555 1_555
C18A H16A 1_555 1_555
C19A C18A 1_555 1_555
H17A C19A 1_555 1_555
C20A C20 1_555 1_555
C21A C20A 1_555 1_555
H18A C21A 1_555 1_555
C22A N1A 1_555 1_555
H19A C22A 1_555 1_555
F1A C6A 1_555 1_555
F2A C12A 1_555 1_555
O6 C9 1_555 1_555
C6 C7 1_555 1_555
C14 C15 1_555 1_555
C14 C16 1_555 1_555
C21 C22 1_555 1_555
O6A C9A 1_555 1_555
C4A C8A 1_555 1_555
C6A C7A 1_555 1_555
C14A C15A 1_555 1_555
C14A C16A 1_555 1_555
C19A C20A 1_555 1_555
C21A C22A 1_555 1_555

#END
