
#######################################################################
#
#                 Cambridge Crystallographic Data Centre
#                                CCDC 
#
#######################################################################
#
# If this CIF has been generated from an entry in the Cambridge 
# Structural Database, then it will include bibliographic, chemical, 
# crystal, experimental, refinement or atomic coordinate data resulting 
# from the CCDC's data processing and validation procedures.
#
#######################################################################

data_OXOQAU
_symmetry_cell_setting           monoclinic
_symmetry_space_group_name_H-M   'P 21/c'
_symmetry_Int_Tables_number      14
_space_group_name_Hall           '-P 2ybc'
loop_
_symmetry_equiv_pos_site_id
_symmetry_equiv_pos_as_xyz
1 x,y,z
2 -x,1/2+y,1/2-z
3 -x,-y,-z
4 x,1/2-y,1/2+z
_cell_length_a                   18.603(5)
_cell_length_b                   8.887(2)
_cell_length_c                   18.572(5)
_cell_angle_alpha                90
_cell_angle_beta                 117.050(4)
_cell_angle_gamma                90
_cell_volume                     2734.54
loop_
_atom_site_label
_atom_site_type_symbol
_atom_site_fract_x
_atom_site_fract_y
_atom_site_fract_z
Eu1 Eu 0.297887(18) 0.90312(3) 0.252791(17)
N1 N 0.3398(3) 0.6422(6) -0.0885(3)
N2 N 0.1836(4) 1.4391(7) -0.0745(3)
N3 N -0.0537(4) 0.8749(7) -0.1432(3)
O1 O 0.4282(3) 0.7932(6) 0.3213(2)
O2 O 0.3394(3) 0.8111(6) 0.1616(2)
O3 O 0.2760(3) 1.1018(5) 0.1611(3)
O4 O 0.3648(3) 1.1243(5) 0.3237(2)
O5 O 0.1790(3) 0.8574(5) 0.1281(2)
O6 O 0.2350(3) 0.6738(5) 0.2576(2)
O7 O 0.1891(2) 1.0091(5) 0.2751(2)
H1 H 0.1340 1.0118 0.2407
H2 H 0.1878 1.0235 0.3191
C1 C 0.5502(4) 0.6554(10) 0.3747(4)
H3 H 0.5375 0.6184 0.4162
H4 H 0.5886 0.7359 0.3960
H5 H 0.5727 0.5754 0.3567
C2 C 0.4737(4) 0.7130(8) 0.3041(4)
C3 C 0.4596(4) 0.6789(8) 0.2255(4)
H6 H 0.4961 0.6169 0.2182
C4 C 0.3940(4) 0.7331(7) 0.1583(3)
C5 C 0.3817(3) 0.7002(7) 0.0743(3)
C6 C 0.4159(4) 0.5846(8) 0.0520(4)
C7 C 0.3940(4) 0.5590(8) -0.0286(4)
C8 C 0.3100(5) 0.7574(8) -0.0659(4)
C9 C 0.3284(5) 0.7884(8) 0.0129(4)
C10 C 0.3995(6) 1.3652(8) 0.3822(4)
H7 H 0.3805 1.3420 0.4211
H8 H 0.3869 1.4681 0.3652
H9 H 0.4568 1.3507 0.4061
C11 C 0.3588(4) 1.2632(8) 0.3100(4)
C12 C 0.3199(4) 1.3289(8) 0.2330(4)
H10 H 0.3186 1.4332 0.2284
C13 C 0.2832(4) 1.2420(7) 0.1634(4)
C14 C 0.2478(4) 1.3162(7) 0.0811(4)
C15 C 0.2362(4) 1.2300(8) 0.0150(4)
H11 H 0.2487 1.1279 0.0212
H12 H 0.3042 0.8695 0.0247
C16 C 0.2064(5) 1.2952(9) -0.0598(4)
H13 H 0.2016 1.2358 -0.1029
H14 H 0.2748 0.8213 -0.1057
C17 C 0.1935(4) 1.5185(9) -0.0111(5)
H15 H 0.1779 1.6190 -0.0196
C18 C 0.2248(4) 1.4659(8) 0.0667(4)
H16 H 0.2305 1.5292 0.1088
H17 H 0.4179 0.4795 -0.0420
H18 H 0.4542 0.5232 0.0913
C19 C 0.1456(5) 0.4964(10) 0.2686(5)
H19 H 0.1796 0.4109 0.2755
H20 H 0.0901 0.4674 0.2382
H21 H 0.1546 0.5335 0.3205
C20 C 0.1653(5) 0.6195(8) 0.2232(4)
C21 C 0.1051(4) 0.6652(8) 0.1471(4)
H22 H 0.0549 0.6184 0.1262
C22 C 0.1174(4) 0.7768(7) 0.1023(4)
C23 C 0.0556(4) 0.8056(7) 0.0159(3)
C24 C -0.0174(4) 0.7326(8) -0.0233(4)
H23 H -0.0312 0.6569 0.0028
C25 C -0.0691(4) 0.7723(9) -0.1003(5)
H24 H -0.1189 0.7240 -0.1247
C26 C 0.0180(5) 0.9434(8) -0.1064(4)
H25 H 0.0312 1.0152 -0.1349
C27 C 0.0734(4) 0.9115(8) -0.0274(4)
H26 H 0.1226 0.9618 -0.0037
Eu1C Eu 0.297887(18) 0.59688(3) -0.247209(17)
N1C N 0.3398(3) 0.8578(6) 0.4115(3)
loop_
_geom_bond_atom_site_label_1
_geom_bond_atom_site_label_2
_geom_bond_site_symmetry_1
_geom_bond_site_symmetry_2
Eu1 O1 1_555 1_555
N1 C7 1_555 1_555
N2 C16 1_555 1_555
N3 C25 1_555 1_555
O1 C2 1_555 1_555
O2 Eu1 1_555 1_555
O3 Eu1 1_555 1_555
O4 Eu1 1_555 1_555
O5 Eu1 1_555 1_555
O6 Eu1 1_555 1_555
O7 Eu1 1_555 1_555
H1 O7 1_555 1_555
H2 O7 1_555 1_555
C1 H3 1_555 1_555
H4 C1 1_555 1_555
H5 C1 1_555 1_555
C2 C1 1_555 1_555
C3 C2 1_555 1_555
H6 C3 1_555 1_555
C4 O2 1_555 1_555
C5 C4 1_555 1_555
C6 C5 1_555 1_555
C7 C6 1_555 1_555
C8 N1 1_555 1_555
C9 C5 1_555 1_555
C10 H7 1_555 1_555
H8 C10 1_555 1_555
H9 C10 1_555 1_555
C11 O4 1_555 1_555
C12 C11 1_555 1_555
H10 C12 1_555 1_555
C13 O3 1_555 1_555
C14 C13 1_555 1_555
C15 C14 1_555 1_555
H11 C15 1_555 1_555
H12 C9 1_555 1_555
C16 C15 1_555 1_555
H13 C16 1_555 1_555
H14 C8 1_555 1_555
C17 N2 1_555 1_555
H15 C17 1_555 1_555
C18 C14 1_555 1_555
H16 C18 1_555 1_555
H17 C7 1_555 1_555
H18 C6 1_555 1_555
C19 H19 1_555 1_555
H20 C19 1_555 1_555
H21 C19 1_555 1_555
C20 O6 1_555 1_555
C21 C20 1_555 1_555
H22 C21 1_555 1_555
C22 O5 1_555 1_555
C23 C22 1_555 1_555
C24 C23 1_555 1_555
H23 C24 1_555 1_555
C25 C24 1_555 1_555
H24 C25 1_555 1_555
C26 N3 1_555 1_555
H25 C26 1_555 1_555
C27 C23 1_555 1_555
H26 C27 1_555 1_555
Eu1C N1 1_555 1_555
N1C Eu1 1_555 1_555
C3 C4 1_555 1_555
C8 C9 1_555 1_555
C10 C11 1_555 1_555
C12 C13 1_555 1_555
C17 C18 1_555 1_555
C19 C20 1_555 1_555
C21 C22 1_555 1_555
C26 C27 1_555 1_555

#END
