
#######################################################################
#
#                 Cambridge Crystallographic Data Centre
#                                CCDC 
#
#######################################################################
#
# If this CIF has been generated from an entry in the Cambridge 
# Structural Database, then it will include bibliographic, chemical, 
# crystal, experimental, refinement or atomic coordinate data resulting 
# from the CCDC's data processing and validation procedures.
#
#######################################################################

data_OXORID
_symmetry_cell_setting           monoclinic
_symmetry_space_group_name_H-M   'P 21/c'
_symmetry_Int_Tables_number      14
_space_group_name_Hall           '-P 2ybc'
loop_
_symmetry_equiv_pos_site_id
_symmetry_equiv_pos_as_xyz
1 x,y,z
2 -x,1/2+y,1/2-z
3 -x,-y,-z
4 x,1/2-y,1/2+z
_cell_length_a                   13.1277(6)
_cell_length_b                   6.5691(3)
_cell_length_c                   12.8486(6)
_cell_angle_alpha                90
_cell_angle_beta                 94.4070(10)
_cell_angle_gamma                90
_cell_volume                     1104.75
loop_
_atom_site_label
_atom_site_type_symbol
_atom_site_fract_x
_atom_site_fract_y
_atom_site_fract_z
Er1 Er 0.335319(12) 0.82356(2) 0.825306(11)
C1 C 0.3152(2) 0.9797(5) 0.5786(2)
C2 C 0.3639(3) 0.7764(5) 0.5787(3)
C3 C 0.2374(3) 1.2229(6) 0.6507(3)
H1 H 0.2037 1.2999 0.6982
N1 N 0.2552(2) 1.2868(5) 0.5551(2)
N2 N 0.2731(2) 1.0376(4) 0.6698(2)
O1 O 0.1768(2) 0.6355(4) 0.8019(2)
O2 O 0.1885(2) 0.8739(4) 0.9210(2)
C4 C 0.1470(3) 0.7127(6) 0.8837(3)
O3 O 0.3531(2) 1.3465(4) 0.3729(2)
O4 O 0.3948(2) 0.6985(4) 0.49862(19)
O5 O 0.5096(2) 0.8560(4) 0.8161(2)
C5 C 0.3483(3) 1.1670(5) 0.4042(3)
C6 C 0.0685(3) 0.6037(6) 0.9424(3)
C7 C 0.0446(4) 0.6765(7) 1.0391(4)
H2 H 0.0747 0.7956 1.0656
C8 C 0.3062(3) 1.1335(5) 0.5071(3)
C9 C 0.0236(3) 0.4276(7) 0.9043(3)
H3 H 0.0394 0.3779 0.8397
O6 O 0.3693(2) 0.6860(4) 0.66604(19)
O7 O 0.3798(2) 1.0176(4) 0.35565(18)
H4 H 0.239(3) 1.415(4) 0.519(3)
H5 H 0.535(3) 0.838(6) 0.7574(19)
H6 H 0.539(4) 0.960(5) 0.846(3)
Er1B Er -0.335319(12) 0.17644(2) 1.174694(11)
Er1A Er -0.335319(12) -0.67644(2) 1.674694(11)
Er1A_2 Er -0.335319(12) 0.32356(2) 1.674694(11)
Er1C Er 0.335319(12) 0.67644(2) 0.325306(11)
Er1C_2 Er 0.335319(12) 1.67644(2) 0.325306(11)
C1B C -0.3152(2) 0.0203(5) 1.4214(2)
C2B C -0.3639(3) 0.2236(5) 1.4213(3)
C3B C -0.2374(3) -0.2229(6) 1.3493(3)
H1B H -0.2037 -0.2999 1.3018
N1B N -0.2552(2) -0.2868(5) 1.4449(2)
N2B N -0.2731(2) -0.0376(4) 1.3302(2)
O1B O -0.1768(2) 0.3645(4) 1.1981(2)
O2B O -0.1885(2) 0.1261(4) 1.0790(2)
C4B C -0.1470(3) 0.2873(6) 1.1163(3)
O3B O -0.3531(2) -0.3465(4) 1.6271(2)
O3A O -0.3531(2) -0.1535(4) 1.1271(2)
O3C O 0.3531(2) 1.1535(4) 0.8729(2)
O4B O -0.3948(2) 0.3015(4) 1.50138(19)
O4A O -0.3948(2) 0.1985(4) 1.00138(19)
O4C O 0.3948(2) 0.8015(4) 0.99862(19)
O5B O -0.5096(2) 0.1440(4) 1.1839(2)
C5B C -0.3483(3) -0.1670(5) 1.5958(3)
C6B C -0.0685(3) 0.3963(6) 1.0576(3)
C7B C -0.0446(4) 0.3235(7) 0.9609(4)
H2B H -0.0747 0.2044 0.9344
C8B C -0.3062(3) -0.1335(5) 1.4929(3)
C9B C -0.0236(3) 0.5724(7) 1.0957(3)
H3B H -0.0394 0.6221 1.1603
O6B O -0.3693(2) 0.3140(4) 1.33396(19)
O7B O -0.3798(2) -0.0176(4) 1.64435(18)
O7A O -0.3798(2) 0.5176(4) 1.14435(18)
O7C O 0.3798(2) 0.4824(4) 0.85565(18)
H4B H -0.239(3) -0.415(4) 1.481(3)
H5B H -0.535(3) 0.162(6) 1.2426(19)
H6B H -0.539(4) 0.040(5) 1.154(3)
loop_
_geom_bond_atom_site_label_1
_geom_bond_atom_site_label_2
_geom_bond_site_symmetry_1
_geom_bond_site_symmetry_2
Er1 N2 1_555 1_555
C1 C2 1_555 1_555
C2 O4 1_555 1_555
C3 H1 1_555 1_555
N1 C3 1_555 1_555
N2 C1 1_555 1_555
O1 Er1 1_555 1_555
O2 Er1 1_555 1_555
C4 O1 1_555 1_555
O3 C5 1_555 1_555
O4 Er1C 1_555 1_555
O5 Er1 1_555 1_555
C5 C8 1_555 1_555
C6 C4 1_555 1_555
C7 C6 1_555 1_555
H2 C7 1_555 1_555
C8 C1 1_555 1_555
C9 C6 1_555 1_555
H3 C9 1_555 1_555
O6 Er1 1_555 1_555
O7 C5 1_555 1_555
H4 N1 1_555 1_555
H5 O5 1_555 1_555
H6 O5 1_555 1_555
Er1B N2B 1_555 1_555
Er1A O3B 1_555 1_555
Er1A_2 O4B 1_555 1_555
Er1C O7 1_555 1_555
Er1C_2 O3 1_555 1_555
C1B C2B 1_555 1_555
C2B O4B 1_555 1_555
C3B H1B 1_555 1_555
N1B C3B 1_555 1_555
N2B C1B 1_555 1_555
O1B Er1B 1_555 1_555
O2B Er1B 1_555 1_555
C4B O1B 1_555 1_555
O3B C5B 1_555 1_555
O3A Er1B 1_555 1_555
O3C Er1 1_555 1_555
O4A Er1B 1_555 1_555
O4C Er1 1_555 1_555
O5B Er1B 1_555 1_555
C5B C8B 1_555 1_555
C6B C4B 1_555 1_555
C7B C9 1_555 1_555
H2B C7B 1_555 1_555
C8B C1B 1_555 1_555
C9B C7 1_555 1_555
H3B C9B 1_555 1_555
O6B Er1B 1_555 1_555
O7B Er1A_2 1_555 1_555
O7A Er1B 1_555 1_555
O7C Er1 1_555 1_555
H4B N1B 1_555 1_555
H5B O5B 1_555 1_555
H6B O5B 1_555 1_555
C2 O6 1_555 1_555
C3 N2 1_555 1_555
N1 C8 1_555 1_555
O2 C4 1_555 1_555
C2B O6B 1_555 1_555
C3B N2B 1_555 1_555
N1B C8B 1_555 1_555
O2B C4B 1_555 1_555
C5B O7B 1_555 1_555
C6B C7B 1_555 1_555
C6B C9B 1_555 1_555

#END
