
#######################################################################
#
#                 Cambridge Crystallographic Data Centre
#                                CCDC 
#
#######################################################################
#
# If this CIF has been generated from an entry in the Cambridge 
# Structural Database, then it will include bibliographic, chemical, 
# crystal, experimental, refinement or atomic coordinate data resulting 
# from the CCDC's data processing and validation procedures.
#
#######################################################################

data_OXORAV
_symmetry_cell_setting           triclinic
_symmetry_space_group_name_H-M   'P -1'
_symmetry_Int_Tables_number      2
_space_group_name_Hall           '-P 1'
loop_
_symmetry_equiv_pos_site_id
_symmetry_equiv_pos_as_xyz
1 x,y,z
2 -x,-y,-z
_cell_length_a                   9.6823(5)
_cell_length_b                   10.7134(5)
_cell_length_c                   13.1672(7)
_cell_angle_alpha                69.1430(10)
_cell_angle_beta                 76.5010(10)
_cell_angle_gamma                63.9060(10)
_cell_volume                     1141.43
loop_
_atom_site_label
_atom_site_type_symbol
_atom_site_fract_x
_atom_site_fract_y
_atom_site_fract_z
Sm1 Sm 0.27022(2) 0.46442(2) 0.491846(18)
O1 O 0.1983(7) 0.4380(6) 1.1776(4)
O2 O 0.2789(10) 0.5544(9) 1.0203(5)
H1 H 0.3017 0.6032 1.0442
O3 O 0.1712(5) 0.3389(5) 0.6733(3)
O4 O 0.2904(5) 0.4715(5) 0.6761(3)
O5 O 0.1440(5) 0.5963(5) 0.3196(4)
H2 H 0.1819 0.5458 0.2778
H3 H 0.0523 0.6214 0.3421
O6 O 0.4708(5) 0.4374(5) 0.3362(4)
H4 H 0.5068 0.4787 0.3580
O8 O 0.2345(5) 0.2842(4) 0.4522(4)
O9 O -0.0209(5) 0.3690(4) 0.4686(4)
O10 O 0.3565(5) -0.3482(4) 0.4437(4)
O11 O 0.5090(4) -0.2424(4) 0.4402(4)
F1 F -0.1214(4) 0.0669(4) 0.2967(4)
F2 F 0.0403(9) 0.1126(7) 1.0681(4)
C1 C 0.2253(8) 0.4591(8) 1.0788(5)
C2 C 0.1938(7) 0.3821(8) 1.0162(5)
C3 C 0.1338(9) 0.2795(8) 1.0729(5)
H7 H 0.1171 0.2544 1.1487
C4 C 0.0990(10) 0.2148(9) 1.0145(6)
C5 C 0.1238(9) 0.2480(8) 0.9027(6)
H8 H 0.0998 0.2024 0.8649
C6 C 0.1867(7) 0.3534(7) 0.8470(5)
C7 C 0.2210(7) 0.4191(7) 0.9047(5)
H9 H 0.2625 0.4886 0.8682
C8 C 0.2165(6) 0.3882(6) 0.7248(5)
C9 C 0.1093(6) 0.2771(6) 0.4459(4)
C10 C 0.1187(6) 0.1546(6) 0.4104(4)
C11 C 0.2479(6) 0.0261(6) 0.4255(4)
H10 H 0.3339 0.0181 0.4514
C12 C 0.2498(6) -0.0920(6) 0.4019(4)
C13 C 0.1235(7) -0.0779(6) 0.3594(4)
H11 H 0.1224 -0.1559 0.3443
C14 C -0.0001(7) 0.0543(6) 0.3401(5)
C15 C -0.0086(6) 0.1697(6) 0.3686(5)
H12 H -0.0970 0.2551 0.3600
C16 C 0.3812(6) -0.2360(6) 0.4310(4)
C17 C 0.5382(13) 0.3257(13) 0.2817(9)
H13 H 0.6225 0.2460 0.3200
H14 H 0.5754 0.3644 0.2082
H15 H 0.4615 0.2923 0.2807
Sm1A Sm -0.27022(2) 0.53558(2) 0.508154(18)
Sm1_2 Sm 0.27022(2) -0.53558(2) 0.491846(18)
Sm1A_2 Sm 0.72978(2) -0.46442(2) 0.508154(18)
Sm1A_3 Sm -0.27022(2) 1.53558(2) 0.508154(18)
Sm1_3 Sm -0.72978(2) 1.46442(2) 0.491846(18)
O1A O -0.1983(7) 0.5620(6) -0.1776(4)
O2A O -0.2789(10) 0.4456(9) -0.0203(5)
H1A H -0.3017 0.3968 -0.0442
O3A O -0.1712(5) 0.6611(5) 0.3267(3)
O4A O -0.2904(5) 0.5285(5) 0.3239(3)
O5A O -0.1440(5) 0.4037(5) 0.6804(4)
H2A H -0.1819 0.4542 0.7222
H3A H -0.0523 0.3786 0.6579
O6A O -0.4708(5) 0.5626(5) 0.6638(4)
H4A H -0.5068 0.5213 0.6420
O8A O -0.2345(5) 0.7158(4) 0.5478(4)
O9A O 0.0209(5) 0.6310(4) 0.5314(4)
O10A O -0.3565(5) 1.3482(4) 0.5563(4)
O10_2 O 0.3565(5) 0.6518(4) 0.4437(4)
O10A_2 O -0.3565(5) 0.3482(4) 0.5563(4)
O11A O -0.5090(4) 1.2424(4) 0.5598(4)
O11A_2 O 0.4910(4) 0.2424(4) 0.5598(4)
O11_2 O -0.4910(4) 0.7576(4) 0.4402(4)
F1A F 0.1214(4) 0.9331(4) 0.7033(4)
F2A F -0.0403(9) 0.8874(7) -0.0681(4)
C1A C -0.2253(8) 0.5409(8) -0.0788(5)
C2A C -0.1938(7) 0.6179(8) -0.0162(5)
C3A C -0.1338(9) 0.7205(8) -0.0729(5)
H7A H -0.1171 0.7456 -0.1487
C4A C -0.0990(10) 0.7852(9) -0.0145(6)
C5A C -0.1238(9) 0.7520(8) 0.0973(6)
H8A H -0.0998 0.7976 0.1351
C6A C -0.1867(7) 0.6466(7) 0.1530(5)
C7A C -0.2210(7) 0.5809(7) 0.0953(5)
H9A H -0.2625 0.5114 0.1318
C8A C -0.2165(6) 0.6118(6) 0.2752(5)
C9A C -0.1093(6) 0.7229(6) 0.5541(4)
C10A C -0.1187(6) 0.8454(6) 0.5896(4)
C11A C -0.2479(6) 0.9739(6) 0.5745(4)
H10A H -0.3339 0.9819 0.5486
C12A C -0.2498(6) 1.0920(6) 0.5981(4)
C13A C -0.1235(7) 1.0779(6) 0.6406(4)
H11A H -0.1224 1.1559 0.6557
C14A C 0.0001(7) 0.9457(6) 0.6599(5)
C15A C 0.0086(6) 0.8303(6) 0.6314(5)
H12A H 0.0970 0.7449 0.6400
C16A C -0.3812(6) 1.2360(6) 0.5690(4)
C17A C -0.5382(13) 0.6743(13) 0.7183(9)
H13A H -0.6225 0.7540 0.6800
H14A H -0.5754 0.6356 0.7918
H15A H -0.4615 0.7077 0.7193
O7 O 0.3766(16) 0.0207(15) 0.6805(12)
H5 H 0.4135 0.0744 0.6329
H6 H 0.4046 -0.0645 0.6828
N1 N 0.3423(9) 0.7378(8) 0.0575(6)
C18 C 0.3694(11) 0.7689(10) 0.1390(8)
H16 H 0.3476 0.7202 0.2108
C19 C 0.4302(9) 0.8737(9) 0.1177(6)
H17 H 0.4460 0.8946 0.1757
C20 C 0.4671(8) 0.9465(8) 0.0120(7)
C21 C 0.4324(15) 0.9146(13) -0.0708(8)
H18 H 0.4494 0.9649 -0.1432
C22 C 0.3739(15) 0.8114(14) -0.0478(8)
H19 H 0.3552 0.7906 -0.1049
N1A N 0.6577(9) 1.2622(8) -0.0575(6)
C18A C 0.6306(11) 1.2311(10) -0.1390(8)
H16A H 0.6524 1.2798 -0.2108
C19A C 0.5698(9) 1.1263(9) -0.1177(6)
H17A H 0.5540 1.1054 -0.1757
C20A C 0.5329(8) 1.0535(8) -0.0120(7)
C21A C 0.5676(15) 1.0854(13) 0.0708(8)
H18A H 0.5506 1.0351 0.1432
C22A C 0.6261(15) 1.1886(14) 0.0478(8)
H19A H 0.6448 1.2094 0.1049
loop_
_geom_bond_atom_site_label_1
_geom_bond_atom_site_label_2
_geom_bond_site_symmetry_1
_geom_bond_site_symmetry_2
Sm1 O3 1_555 1_555
O1 C1 1_555 1_555
O2 H1 1_555 1_555
O3 C8 1_555 1_555
O4 Sm1 1_555 1_555
O5 Sm1 1_555 1_555
H2 O5 1_555 1_555
H3 O5 1_555 1_555
O6 Sm1 1_555 1_555
H4 O6 1_555 1_555
O7 H5 1_555 1_555
H6 O7 1_555 1_555
O8 Sm1 1_555 1_555
O9 C9 1_555 1_555
O10 C16 1_555 1_555
O11 C16 1_555 1_555
N1 C18 1_555 1_555
F1 C14 1_555 1_555
F2 C4 1_555 1_555
C1 O2 1_555 1_555
C2 C1 1_555 1_555
C3 C2 1_555 1_555
H7 C3 1_555 1_555
C4 C3 1_555 1_555
C5 C4 1_555 1_555
H8 C5 1_555 1_555
C6 C5 1_555 1_555
C7 C2 1_555 1_555
H9 C7 1_555 1_555
C8 O4 1_555 1_555
C9 O8 1_555 1_555
C10 C9 1_555 1_555
C11 C10 1_555 1_555
H10 C11 1_555 1_555
C12 C11 1_555 1_555
C13 C12 1_555 1_555
H11 C13 1_555 1_555
C14 C13 1_555 1_555
C15 C10 1_555 1_555
H12 C15 1_555 1_555
C16 C12 1_555 1_555
C17 O6 1_555 1_555
H13 C17 1_555 1_555
H14 C17 1_555 1_555
H15 C17 1_555 1_555
C18 H16 1_555 1_555
C19 C18 1_555 1_555
H17 C19 1_555 1_555
C20 C19 1_555 1_555
C21 C20 1_555 1_555
H18 C21 1_555 1_555
C22 N1 1_555 1_555
H19 C22 1_555 1_555
Sm1A O9 1_555 1_555
Sm1_2 O10 1_555 1_555
Sm1A_2 O11 1_555 1_555
Sm1A_3 O10A 1_555 1_555
Sm1_3 O11A 1_555 1_555
O1A C1A 1_555 1_555
O2A H1A 1_555 1_555
O3A Sm1A 1_555 1_555
O4A Sm1A 1_555 1_555
O5A Sm1A 1_555 1_555
H2A O5A 1_555 1_555
H3A O5A 1_555 1_555
O6A Sm1A 1_555 1_555
H4A O6A 1_555 1_555
O8A Sm1A 1_555 1_555
O9A Sm1 1_555 1_555
O10A C16A 1_555 1_555
O10_2 Sm1 1_555 1_555
O10A_2 Sm1A 1_555 1_555
O11A C16A 1_555 1_555
O11A_2 Sm1 1_555 1_555
O11_2 Sm1A 1_555 1_555
N1A C18A 1_555 1_555
F1A C14A 1_555 1_555
F2A C4A 1_555 1_555
C1A O2A 1_555 1_555
C2A C1A 1_555 1_555
C3A C2A 1_555 1_555
H7A C3A 1_555 1_555
C4A C3A 1_555 1_555
C5A C4A 1_555 1_555
H8A C5A 1_555 1_555
C6A C5A 1_555 1_555
C7A C2A 1_555 1_555
H9A C7A 1_555 1_555
C8A O3A 1_555 1_555
C9A O8A 1_555 1_555
C10A C9A 1_555 1_555
C11A C10A 1_555 1_555
H10A C11A 1_555 1_555
C12A C11A 1_555 1_555
C13A C12A 1_555 1_555
H11A C13A 1_555 1_555
C14A C13A 1_555 1_555
C15A C10A 1_555 1_555
H12A C15A 1_555 1_555
C16A C12A 1_555 1_555
C17A O6A 1_555 1_555
H13A C17A 1_555 1_555
H14A C17A 1_555 1_555
H15A C17A 1_555 1_555
C18A H16A 1_555 1_555
C19A C18A 1_555 1_555
H17A C19A 1_555 1_555
C20A C20 1_555 1_555
C21A C20A 1_555 1_555
H18A C21A 1_555 1_555
C22A N1A 1_555 1_555
H19A C22A 1_555 1_555
C6 C7 1_555 1_555
C6 C8 1_555 1_555
C14 C15 1_555 1_555
C21 C22 1_555 1_555
O4A C8A 1_555 1_555
O9A C9A 1_555 1_555
C6A C7A 1_555 1_555
C6A C8A 1_555 1_555
C14A C15A 1_555 1_555
C19A C20A 1_555 1_555
C21A C22A 1_555 1_555

#END
