
#######################################################################
#
#                 Cambridge Crystallographic Data Centre
#                                CCDC 
#
#######################################################################
#
# If this CIF has been generated from an entry in the Cambridge 
# Structural Database, then it will include bibliographic, chemical, 
# crystal, experimental, refinement or atomic coordinate data resulting 
# from the CCDC's data processing and validation procedures.
#
#######################################################################

data_OXPACU
_symmetry_cell_setting           monoclinic
_symmetry_space_group_name_H-M   'P 21/c'
_symmetry_Int_Tables_number      14
_space_group_name_Hall           '-P 2ybc'
loop_
_symmetry_equiv_pos_site_id
_symmetry_equiv_pos_as_xyz
1 x,y,z
2 -x,1/2+y,1/2-z
3 -x,-y,-z
4 x,1/2-y,1/2+z
_cell_length_a                   6.384(2)
_cell_length_b                   9.062(2)
_cell_length_c                   13.688(2)
_cell_angle_alpha                90
_cell_angle_beta                 98.32(2)
_cell_angle_gamma                90
_cell_volume                     783.541
loop_
_atom_site_label
_atom_site_type_symbol
_atom_site_fract_x
_atom_site_fract_y
_atom_site_fract_z
Cu1 Cu -0.24810 0.39690 0.35580
O1 O -0.49390 0.19600 0.33420
O2 O 0.01430 0.28140 0.37090
O3 O 0.28420 0.23470 0.48760
O4 O -0.21120 0.38420 0.50180
O5 O 0.02620 0.30290 0.62590
N1 N -0.49230 0.53260 0.34760
N2 N -0.20890 0.44550 0.21730
C1 C -0.65770 0.51750 0.26000
C2 C -0.42550 0.04480 0.33630
C3 C -0.40140 0.44170 0.14230
C4 C 0.10210 0.27560 0.45970
C5 C -0.03570 0.32490 0.53920
H1 H -0.54900 0.20300 0.39000
H2 H -0.55600 0.52700 0.39600
H3 H -0.44100 0.62300 0.35700
H4 H -0.16300 0.53900 0.21300
H5 H -0.12000 0.37700 0.20400
H6 H -0.69300 0.42100 0.26300
H7 H -0.75100 0.60300 0.27000
H8 H -0.31400 0.03600 0.39300
H9 H -0.47100 0.33400 0.13400
H10 H -0.38400 0.47300 0.08200
C2A C -0.57450 0.54480 0.16370
C1A C -0.34230 0.01750 0.24000
C3A C -0.59860 -0.05830 0.35770
O1A O -0.50610 0.69600 0.16580
H8A H -0.68600 0.53600 0.10700
N1A N -0.50770 0.03260 0.15240
H6A H -0.30700 -0.07900 0.23700
H7A H -0.24900 0.10300 0.23000
N2A N -0.79110 -0.05450 0.28270
H9A H -0.52900 -0.16600 0.36600
H10A H -0.61600 -0.02700 0.41800
Cu1A Cu -0.75190 0.89690 0.14420
H1A H -0.45100 0.70300 0.11000
Cu1A_2 Cu -0.75190 -0.10310 0.14420
H2A H -0.44400 0.02700 0.10400
H3A H -0.55900 0.12300 0.14300
H4A H -0.83700 0.03900 0.28700
H5A H -0.88000 -0.12300 0.29600
O2A O -1.01430 0.78140 0.12910
O4A O -0.78880 0.88420 -0.00180
N1A_2 N -0.50770 1.03260 0.15240
N2A_2 N -0.79110 0.94550 0.28270
C4A C -1.10210 0.77560 0.04030
C5A C -0.96430 0.82490 -0.03920
O3A O -1.28420 0.73470 0.01240
O5A O -1.02620 0.80290 -0.12590
loop_
_geom_bond_atom_site_label_1
_geom_bond_atom_site_label_2
_geom_bond_site_symmetry_1
_geom_bond_site_symmetry_2
Cu1 O1 1_555 1_555
O1 C2 1_555 1_555
O2 Cu1 1_555 1_555
O3 C4 1_555 1_555
O4 Cu1 1_555 1_555
O5 C5 1_555 1_555
N1 Cu1 1_555 1_555
N2 Cu1 1_555 1_555
C1 N1 1_555 1_555
C2 H8 1_555 1_555
C3 N2 1_555 1_555
C4 O2 1_555 1_555
C5 O4 1_555 1_555
H1 O1 1_555 1_555
H2 N1 1_555 1_555
H3 N1 1_555 1_555
H4 N2 1_555 1_555
H5 N2 1_555 1_555
H6 C1 1_555 1_555
H7 C1 1_555 1_555
H9 C3 1_555 1_555
H10 C3 1_555 1_555
C2A C1 1_555 1_555
C1A C2 1_555 1_555
C3A C2 1_555 1_555
O1A C2A 1_555 1_555
H8A C2A 1_555 1_555
N1A C1A 1_555 1_555
H6A C1A 1_555 1_555
H7A C1A 1_555 1_555
N2A C3A 1_555 1_555
H9A C3A 1_555 1_555
H10A C3A 1_555 1_555
Cu1A O1A 1_555 1_555
H1A O1A 1_555 1_555
Cu1A_2 N1A 1_555 1_555
H2A N1A 1_555 1_555
H3A N1A 1_555 1_555
H4A N2A 1_555 1_555
H5A N2A 1_555 1_555
O2A Cu1A 1_555 1_555
O4A Cu1A 1_555 1_555
N1A_2 Cu1A 1_555 1_555
N2A_2 Cu1A 1_555 1_555
C4A O2A 1_555 1_555
C5A O4A 1_555 1_555
O3A C4A 1_555 1_555
O5A C5A 1_555 1_555
C3 C2A 1_555 1_555
C4 C5 1_555 1_555
N2A Cu1A_2 1_555 1_555
C4A C5A 1_555 1_555

#END
