
#######################################################################
#
#                 Cambridge Crystallographic Data Centre
#                                CCDC 
#
#######################################################################
#
# If this CIF has been generated from an entry in the Cambridge 
# Structural Database, then it will include bibliographic, chemical, 
# crystal, experimental, refinement or atomic coordinate data resulting 
# from the CCDC's data processing and validation procedures.
#
#######################################################################

data_OXUNUR
_symmetry_cell_setting           orthorhombic
_symmetry_space_group_name_H-M   'F d d 2'
_symmetry_Int_Tables_number      43
_space_group_name_Hall           'F 2 -2d'
loop_
_symmetry_equiv_pos_site_id
_symmetry_equiv_pos_as_xyz
1 x,y,z
2 -x,-y,z
3 1/4+x,1/4-y,1/4+z
4 1/4-x,1/4+y,1/4+z
5 x,1/2+y,1/2+z
6 -x,1/2-y,1/2+z
7 1/4+x,3/4-y,3/4+z
8 1/4-x,3/4+y,3/4+z
9 1/2+x,y,1/2+z
10 1/2-x,-y,1/2+z
11 3/4+x,1/4-y,3/4+z
12 3/4-x,1/4+y,3/4+z
13 1/2+x,1/2+y,z
14 1/2-x,1/2-y,z
15 3/4+x,3/4-y,1/4+z
16 3/4-x,3/4+y,1/4+z
_cell_length_a                   12.7423(8)
_cell_length_b                   34.469(2)
_cell_length_c                   7.2327(5)
_cell_angle_alpha                90
_cell_angle_beta                 90
_cell_angle_gamma                90
_cell_volume                     3176.71
loop_
_atom_site_label
_atom_site_type_symbol
_atom_site_fract_x
_atom_site_fract_y
_atom_site_fract_z
Zn1 Zn 0.5000 0.0000 0.72745(6)
N1 N 0.43515(15) 0.17405(5) 1.0375(3)
O1 O 0.45271(15) 0.04011(5) 0.9002(2)
O2 O 0.43779(14) 0.08298(5) 0.6673(2)
O3 O 0.44372(16) 0.19425(5) 1.5166(3)
O4 O 0.35224(14) 0.22794(5) 1.3045(2)
C1 C 0.44304(17) 0.07417(6) 0.8311(3)
C2 C 0.43714(16) 0.10624(6) 0.9751(3)
C3 C 0.44282(17) 0.14455(7) 0.9169(3)
H1 H 0.4523 0.1500 0.7892
C4 C 0.42276(15) 0.16697(6) 1.2216(3)
C5 C 0.41907(18) 0.12910(7) 1.2858(3)
H2 H 0.4119 0.1241 1.4144
C6 C 0.42590(17) 0.09861(6) 1.1627(3)
H3 H 0.4229 0.0726 1.2059
C7 C 0.4451(2) 0.21417(6) 0.9612(4)
H4 H 0.4533 0.2129 0.8266
H5 H 0.5066 0.2269 1.0155
H6 H 0.3819 0.2291 0.9914
C8 C 0.40707(19) 0.19950(7) 1.3614(3)
Zn1J Zn 0.2500 0.2500 1.47745(6)
Zn1F Zn 0.7500 -0.2500 1.47745(6)
N1A N 0.56485(15) -0.17405(5) 1.0375(3)
O1A O 0.54729(15) -0.04011(5) 0.9002(2)
O2A O 0.56221(14) -0.08298(5) 0.6673(2)
O3A O 0.55628(16) -0.19425(5) 1.5166(3)
O4A O 0.64776(14) -0.22794(5) 1.3045(2)
O4B O 0.60224(14) 0.02206(5) 0.5545(2)
O4O O 0.39776(14) -0.02206(5) 0.5545(2)
C1A C 0.55696(17) -0.07417(6) 0.8311(3)
C2A C 0.56286(16) -0.10624(6) 0.9751(3)
C3A C 0.55718(17) -0.14455(7) 0.9169(3)
H1A H 0.5477 -0.1500 0.7892
C4A C 0.57724(15) -0.16697(6) 1.2216(3)
C5A C 0.58093(18) -0.12910(7) 1.2858(3)
H2A H 0.5881 -0.1241 1.4144
C6A C 0.57410(17) -0.09861(6) 1.1627(3)
H3A H 0.5771 -0.0726 1.2059
C7A C 0.5549(2) -0.21417(6) 0.9612(4)
H4A H 0.5467 -0.2129 0.8266
H5A H 0.4934 -0.2269 1.0155
H6A H 0.6181 -0.2291 0.9914
C8A C 0.59293(19) -0.19950(7) 1.3614(3)
loop_
_geom_bond_atom_site_label_1
_geom_bond_atom_site_label_2
_geom_bond_site_symmetry_1
_geom_bond_site_symmetry_2
Zn1 O1 1_555 1_555
N1 C3 1_555 1_555
O1 C1 1_555 1_555
O2 C1 1_555 1_555
O3 C8 1_555 1_555
O4 C8 1_555 1_555
C1 C2 1_555 1_555
C2 C3 1_555 1_555
C3 H1 1_555 1_555
C4 N1 1_555 1_555
C5 C4 1_555 1_555
H2 C5 1_555 1_555
C6 C2 1_555 1_555
H3 C6 1_555 1_555
C7 N1 1_555 1_555
H4 C7 1_555 1_555
H5 C7 1_555 1_555
H6 C7 1_555 1_555
C8 C4 1_555 1_555
Zn1J O4 1_555 1_555
Zn1F O4A 1_555 1_555
N1A C3A 1_555 1_555
O1A Zn1 1_555 1_555
O2A C1A 1_555 1_555
O3A C8A 1_555 1_555
O4A C8A 1_555 1_555
O4B Zn1 1_555 1_555
O4O Zn1 1_555 1_555
C1A O1A 1_555 1_555
C2A C1A 1_555 1_555
C3A C2A 1_555 1_555
H1A C3A 1_555 1_555
C4A N1A 1_555 1_555
C5A C4A 1_555 1_555
H2A C5A 1_555 1_555
C6A C2A 1_555 1_555
H3A C6A 1_555 1_555
C7A N1A 1_555 1_555
H4A C7A 1_555 1_555
H5A C7A 1_555 1_555
H6A C7A 1_555 1_555
C8A C4A 1_555 1_555
C5 C6 1_555 1_555
C5A C6A 1_555 1_555

#END
