
#######################################################################
#
#                 Cambridge Crystallographic Data Centre
#                                CCDC 
#
#######################################################################
#
# If this CIF has been generated from an entry in the Cambridge 
# Structural Database, then it will include bibliographic, chemical, 
# crystal, experimental, refinement or atomic coordinate data resulting 
# from the CCDC's data processing and validation procedures.
#
#######################################################################

data_OXUNEB
_symmetry_cell_setting           triclinic
_symmetry_space_group_name_H-M   'P -1'
_symmetry_Int_Tables_number      2
_space_group_name_Hall           '-P 1'
loop_
_symmetry_equiv_pos_site_id
_symmetry_equiv_pos_as_xyz
1 x,y,z
2 -x,-y,-z
_cell_length_a                   12.0014(16)
_cell_length_b                   14.6860(17)
_cell_length_c                   21.176(2)
_cell_angle_alpha                81.093(2)
_cell_angle_beta                 83.080(2)
_cell_angle_gamma                76.571(1)
_cell_volume                     3572.6
loop_
_atom_site_label
_atom_site_type_symbol
_atom_site_fract_x
_atom_site_fract_y
_atom_site_fract_z
Cd1 Cd 0.0000 1.0000 1.0000
Cd2 Cd 0.5000 0.5000 1.5000
Cd3 Cd 0.00986(5) 1.37902(4) 1.12832(3)
Mo1 Mo 0.05147(5) 1.01909(4) 1.17163(3)
Mo2 Mo -0.19475(5) 0.85104(4) 0.95142(3)
Mo3 Mo -0.08071(5) 0.75503(4) 1.04553(3)
Mo4 Mo 0.20848(5) 0.76408(4) 1.05561(3)
Mo5 Mo 0.31281(5) 0.86159(4) 0.96360(3)
Mo6 Mo -0.16344(5) 1.01124(4) 1.16885(3)
Mo7 Mo 0.80225(5) 0.47974(4) 1.41187(3)
Mo8 Mo 0.56770(5) 0.52111(4) 1.31719(3)
Mo9 Mo 0.38269(5) 0.64771(4) 1.34343(3)
Mo10 Mo 0.36503(5) 0.77069(4) 1.47367(3)
Mo11 Mo 0.53904(5) 0.73857(4) 1.54229(3)
Mo12 Mo 0.78999(5) 0.56863(4) 1.51033(3)
Mg1 Mg 0.2617(4) 1.0763(3) 1.3402(2)
Cl1 Cl -0.1660(5) 0.9049(4) 1.2108(3)
Cl2 Cl 0.1025(5) 0.9142(4) 1.2134(3)
N7 N 0.4148(8) 1.0380(7) 1.3786(5)
H18 H 0.4093 0.9847 1.4050
H19 H 0.4096 1.0820 1.4047
N8 N 0.7114(10) 0.9252(7) 1.3983(5)
H20 H 0.7647 0.9471 1.3713
H21 H 0.7394 0.9027 1.4361
H22 H 0.6914 0.8791 1.3825
O1 O 0.0221(4) 1.1546(3) 1.1079(2)
O2 O -0.0878(4) 1.2499(3) 1.0181(2)
O3 O -0.1854(4) 1.1524(4) 1.1045(2)
O4 O -0.1299(4) 1.2972(4) 1.1305(2)
O5 O 0.1329(4) 1.0945(4) 1.2204(2)
O6 O 0.2456(4) 1.1773(4) 1.1306(2)
O7 O 0.1015(4) 1.2734(4) 1.2034(3)
O8 O 0.2826(5) 1.1723(4) 1.2446(3)
O9 O 0.0027(5) 0.6173(4) 1.0668(2)
O10 O 0.2065(5) 0.6221(4) 1.0794(3)
O11 O 0.1389(5) 0.4710(4) 1.1084(3)
O12 O 0.0673(5) 0.6025(4) 1.1782(3)
O13 O 0.4226(5) 0.8279(4) 0.8859(3)
O14 O 0.3146(5) 0.9180(4) 0.7907(3)
O15 O 0.4545(5) 0.7629(4) 0.7810(3)
O16 O 0.5225(5) 0.9103(4) 0.7916(3)
H27 H 0.5862 0.8752 0.7800
O17 O 0.1959(4) 1.0160(3) 1.1023(2)
H28 H 0.1956 0.9763 1.0771
O18 O -0.1288(4) 0.7158(4) 0.9703(2)
O19 O 0.0387(4) 0.7868(4) 1.0986(2)
H29 H 0.0173 0.8444 1.1046
O20 O 0.3282(5) 0.7267(4) 0.9889(3)
O21 O 0.2627(4) 0.9945(4) 0.9055(2)
H30 H 0.2243 1.0346 0.9292
O22 O -0.0887(4) 1.0746(4) 1.2202(2)
O23 O -0.1093(4) 0.8899(3) 1.0118(2)
O24 O 0.1689(4) 0.8974(3) 1.0171(2)
O25 O -0.0281(4) 0.9809(4) 1.1069(2)
O26 O 0.6700(4) 0.6009(4) 1.3643(2)
O27 O 0.4920(4) 0.7191(4) 1.3906(2)
O28 O 0.6580(4) 0.6904(4) 1.4578(2)
O29 O 0.6730(5) 0.7748(4) 1.3447(3)
O30 O -0.1237(4) 1.4963(4) 1.3183(2)
O31 O -0.2916(5) 1.5172(4) 1.2514(2)
O32 O -0.0930(5) 1.4357(4) 1.2140(3)
O33 O -0.1454(5) 1.6116(4) 1.2173(3)
H31 H -0.0749 1.6085 1.2044
O34 O 0.3207(5) 0.7860(4) 1.3060(3)
O35 O 0.3144(5) 0.8752(4) 1.4003(3)
O36 O 0.2792(5) 0.9604(4) 1.2942(3)
O37 O 0.1303(5) 0.8723(4) 1.3549(3)
H32 H 0.1058 0.9063 1.3849
O38 O 0.6684(5) 0.8088(4) 1.5472(3)
O39 O 0.8467(5) 0.6816(4) 1.5264(3)
O40 O 0.8513(5) 0.8501(4) 1.4947(3)
O41 O 0.1635(5) 1.2139(4) 1.3884(3)
O42 O 0.4649(4) 0.5352(4) 1.3957(2)
O43 O 0.4495(4) 0.6533(4) 1.5202(2)
O44 O 0.6837(4) 0.4203(3) 1.3725(2)
H33 H 0.6460 0.3924 1.4030
O45 O 0.5039(5) 0.6453(4) 1.2731(3)
O46 O -0.3281(5) 0.8714(4) 0.9879(3)
O47 O 0.2912(4) 0.6867(4) 1.4279(2)
H34 H 0.2852 0.6370 1.4534
O48 O -0.1908(5) 0.7540(4) 1.1023(3)
O49 O 0.4748(4) 0.8457(4) 1.4817(2)
O50 O 0.2760(5) 0.7723(4) 1.1187(3)
O51 O 0.6549(4) 0.6163(4) 1.5783(2)
H35 H 0.6185 0.5727 1.5911
O52 O 0.4059(5) 0.8951(4) 1.0036(3)
O53 O 0.8753(4) 0.5778(4) 1.4274(2)
H36 H 0.9478 0.5611 1.4282
O54 O 0.8913(5) 0.3751(4) 1.4335(3)
O55 O 0.5154(5) 0.4441(4) 1.2847(3)
O56 O 0.2822(5) 0.6037(4) 1.3169(3)
O57 O 0.2544(5) 0.8035(4) 1.5280(3)
O58 O 0.4736(5) 0.7646(4) 1.6139(3)
O59 O 0.8727(5) 0.4860(4) 1.5593(3)
O60 O 0.6888(4) 0.4938(4) 1.4862(2)
O61 O -0.1057(6) 1.4728(5) 1.0512(3)
H37 H -0.0755 1.4482 1.0176
H38 H -0.0719 1.5162 1.0551
P1 P -0.09776(16) 1.21631(13) 1.09088(9)
P2 P 0.18840(16) 1.18099(13) 1.19937(9)
P3 P 0.42756(17) 0.85262(15) 0.81240(10)
P4 P 0.10445(17) 0.57700(13) 1.11082(9)
P5 P 0.62495(16) 0.69923(13) 1.38813(9)
P6 P -0.16283(16) 1.51234(13) 1.25012(9)
P7 P 0.25533(17) 0.87075(14) 1.33985(10)
P8 P 0.80208(17) 0.78197(14) 1.54565(9)
C7 C 0.5355(10) 1.0207(9) 1.3544(6)
H63 H 0.5514 0.9691 1.3287
H64 H 0.5500 1.0765 1.3265
C8 C 0.6165(11) 0.9969(9) 1.4063(6)
H65 H 0.5737 0.9801 1.4466
H66 H 0.6428 1.0533 1.4100
Cd2_2 Cd 0.5000 1.5000 1.5000
Cd3A Cd -0.00986(5) 0.62098(4) 0.87168(3)
Cd3_2 Cd 0.00986(5) 0.37902(4) 1.12832(3)
Cd3A_2 Cd 0.99014(5) 0.62098(4) 1.87168(3)
Cd3A_3 Cd -0.00986(5) 1.62098(4) 0.87168(3)
Cd3_3 Cd 1.00986(5) 0.37902(4) 1.12832(3)
Mo1A Mo -0.05147(5) 0.98091(4) 0.82837(3)
Mo1A_2 Mo 0.94853(5) 0.98091(4) 1.82837(3)
Mo2A Mo 0.19475(5) 1.14896(4) 1.04858(3)
Mo2_2 Mo 0.80525(5) 0.85104(4) 1.95142(3)
Mo3A Mo 0.08071(5) 1.24497(4) 0.95447(3)
Mo4A Mo -0.20848(5) 1.23592(4) 0.94439(3)
Mo5A Mo -0.31281(5) 1.13841(4) 1.03640(3)
Mo6A Mo 0.16344(5) 0.98876(4) 0.83115(3)
Mo7A Mo 0.19775(5) 1.52026(4) 1.58813(3)
Mo7_2 Mo -0.19775(5) 1.47974(4) 1.41187(3)
Mo8A Mo 0.43230(5) 1.47889(4) 1.68281(3)
Mo8_2 Mo -0.43230(5) 1.52111(4) 1.31719(3)
Mo8A_2 Mo 0.43230(5) 0.47889(4) 1.68281(3)
Mo9A Mo 0.61731(5) 1.35229(4) 1.65657(3)
Mo9A_2 Mo 0.61731(5) 0.35229(4) 1.65657(3)
Mo10A Mo 0.63497(5) 1.22931(4) 1.52633(3)
Mo11A Mo 0.46096(5) 1.26143(4) 1.45771(3)
Mo12A Mo 0.21001(5) 1.43137(4) 1.48967(3)
Mg1A Mg 0.7383(4) 0.9237(3) 1.6598(2)
Cl1A Cl 0.1660(5) 1.0951(4) 0.7892(3)
Cl2A Cl -0.1025(5) 1.0858(4) 0.7866(3)
N7A N 0.5852(8) 0.9620(7) 1.6214(5)
H18A H 0.5907 1.0153 1.5950
H19A H 0.5904 0.9180 1.5953
N8A N 0.2886(10) 1.0748(7) 1.6017(5)
H20A H 0.2353 1.0529 1.6287
H21A H 0.2606 1.0973 1.5639
H22A H 0.3086 1.1209 1.6175
O1A O -0.0221(4) 0.8454(3) 0.8921(2)
O2A O 0.0878(4) 0.7501(3) 0.9819(2)
O3A O 0.1854(4) 0.8476(4) 0.8955(2)
O4A O 0.1299(4) 0.7028(4) 0.8695(2)
O5A O 0.8671(4) 0.9055(4) 1.7796(2)
O5A_2 O -0.1329(4) 0.9055(4) 0.7796(2)
O6A O 0.7544(4) 0.8227(4) 1.8694(2)
O6A_2 O -0.2456(4) 0.8227(4) 0.8694(2)
O7A O 0.8985(4) 0.7266(4) 1.7966(3)
O7A_2 O -0.1015(4) 0.7266(4) 0.7966(3)
O8A O 0.7174(5) 0.8277(4) 1.7554(3)
O9A O -0.0027(5) 1.3827(4) 0.9332(2)
O10A O -0.2065(5) 1.3779(4) 0.9206(3)
O11A O -0.1389(5) 1.5290(4) 0.8916(3)
O11_2 O 0.1389(5) 1.4710(4) 1.1084(3)
O11A_2 O -0.1389(5) 0.5290(4) 0.8916(3)
O12A O -0.0673(5) 1.3975(4) 0.8218(3)
O13A O -0.4226(5) 1.1721(4) 1.1141(3)
O14A O -0.3146(5) 1.0820(4) 1.2093(3)
O15A O -0.4545(5) 1.2371(4) 1.2190(3)
O16A O -0.5225(5) 1.0897(4) 1.2084(3)
H27A H -0.5862 1.1248 1.2200
O17A O -0.1959(4) 0.9840(3) 0.8977(2)
H28A H -0.1956 1.0237 0.9229
O18A O 0.1288(4) 1.2842(4) 1.0297(2)
O19A O -0.0387(4) 1.2132(4) 0.9014(2)
H29A H -0.0173 1.1556 0.8954
O20A O -0.3282(5) 1.2733(4) 1.0111(3)
O21A O -0.2627(4) 1.0055(4) 1.0945(2)
H30A H -0.2243 0.9654 1.0708
O22A O 0.0887(4) 0.9254(4) 0.7798(2)
O23A O 0.1093(4) 1.1101(3) 0.9882(2)
O24A O -0.1689(4) 1.1026(3) 0.9829(2)
O25A O 0.0281(4) 1.0191(4) 0.8931(2)
O26A O 0.3300(4) 1.3991(4) 1.6357(2)
O27A O 0.5080(4) 1.2809(4) 1.6094(2)
O28A O 0.3420(4) 1.3096(4) 1.5422(2)
O29A O 0.3270(5) 1.2252(4) 1.6553(3)
O30_2 O 0.8763(4) 0.4963(4) 1.3183(2)
O30A O 0.1237(4) 1.5037(4) 1.6817(2)
O31_2 O 0.7084(5) 0.5172(4) 1.2514(2)
O31A O 0.2916(5) 1.4828(4) 1.7486(2)
O32_2 O 0.9070(5) 0.4357(4) 1.2140(3)
O32A O 0.0930(5) 0.5643(4) 0.7860(3)
O33_2 O 0.8546(5) 0.6116(4) 1.2173(3)
H31_2 H 0.9251 0.6085 1.2044
O34A O 0.6793(5) 1.2140(4) 1.6940(3)
O35A O 0.6856(5) 1.1248(4) 1.5997(3)
O36A O 0.7208(5) 1.0396(4) 1.7058(3)
O37A O 0.8697(5) 1.1277(4) 1.6451(3)
H32A H 0.8942 1.0937 1.6151
O38A O 0.3316(5) 1.1912(4) 1.4528(3)
O39A O 0.1533(5) 1.3184(4) 1.4736(3)
O40A O 0.1487(5) 1.1499(4) 1.5053(3)
O41A O 0.8365(5) 0.7861(4) 1.6116(3)
O42A O 0.5351(4) 0.4648(4) 1.6043(2)
O42A_2 O 0.5351(4) 1.4648(4) 1.6043(2)
O43A O 0.5505(4) 1.3467(4) 1.4798(2)
O43A_2 O 0.5505(4) 0.3467(4) 1.4798(2)
O44A O 0.3163(4) 1.5797(3) 1.6275(2)
H33A H 0.3540 1.6076 1.5970
O45A O 0.4961(5) 1.3547(4) 1.7269(3)
O46A O 0.3281(5) 1.1286(4) 1.0121(3)
O47A O 0.7088(4) 1.3133(4) 1.5721(2)
H34A H 0.7148 1.3630 1.5466
O48A O 0.1908(5) 1.2460(4) 0.8977(3)
O49A O 0.5252(4) 1.1543(4) 1.5183(2)
O50A O -0.2760(5) 1.2277(4) 0.8813(3)
O51A O 0.3451(4) 1.3837(4) 1.4217(2)
H35A H 0.3815 1.4273 1.4089
O52A O -0.4059(5) 1.1049(4) 0.9964(3)
O53A O 0.1247(4) 1.4222(4) 1.5726(2)
H36A H 0.0522 1.4389 1.5718
O54A O 0.1087(5) 1.6249(4) 1.5665(3)
O55A O 0.4846(5) 1.5559(4) 1.7153(3)
O56A O 0.7178(5) 1.3963(4) 1.6831(3)
O57A O 0.7456(5) 1.1965(4) 1.4720(3)
O58A O 0.5264(5) 1.2354(4) 1.3861(3)
O59A O 0.1273(5) 1.5140(4) 1.4407(3)
O60A O 0.3112(4) 1.5062(4) 1.5138(2)
O60A_2 O 0.3112(4) 0.5062(4) 1.5138(2)
O61A O 0.1057(6) 0.5272(5) 0.9488(3)
H37A H 0.0755 0.5518 0.9824
H38A H 0.0719 0.4838 0.9449
P1A P 0.09776(16) 0.78369(13) 0.90912(9)
P2A P 0.81160(16) 0.81901(13) 1.80063(9)
P3A P -0.42756(17) 1.14738(15) 1.18760(10)
P4A P -0.10445(17) 1.42300(13) 0.88918(9)
P5A P 0.37505(16) 1.30077(13) 1.61187(9)
P6_2 P 0.83717(16) 0.51234(13) 1.25012(9)
P7A P 0.74467(17) 1.12925(14) 1.66015(10)
P8A P 0.19792(17) 1.21803(14) 1.45435(9)
C7A C 0.4645(10) 0.9793(9) 1.6456(6)
H63A H 0.4486 1.0309 1.6713
H64A H 0.4500 0.9235 1.6735
C8A C 0.3835(11) 1.0031(9) 1.5937(6)
H65A H 0.4263 1.0199 1.5534
H66A H 0.3572 0.9467 1.5900
N1 N 0.7413(6) 0.2862(5) 0.2505(3)
H1 H 0.6804 0.2696 0.2393
H2 H 0.7970 0.2807 0.2186
N2 N 0.9429(6) 0.1778(5) 0.3783(4)
H3 H 0.8903 0.1891 0.4112
H4 H 1.0076 0.1924 0.3859
H5 H 0.9567 0.1170 0.3734
C1 C 0.7829(7) 0.2232(6) 0.3093(4)
H51 H 0.7869 0.1579 0.3045
H52 H 0.7297 0.2388 0.3463
C2 C 0.9002(8) 0.2356(6) 0.3195(4)
H53 H 0.9535 0.2179 0.2830
H54 H 0.8964 0.3016 0.3223
N3 N 0.9195(7) 0.2753(5) 0.7377(4)
H6 H 0.8536 0.2930 0.7193
H7 H 0.9136 0.3044 0.7723
H8 H 0.9345 0.2131 0.7494
N4 N 0.9747(7) 0.2776(6) 0.5830(4)
H9 H 0.9150 0.2499 0.5909
H10 H 1.0151 0.2611 0.5469
H11 H 0.9496 0.3400 0.5788
C3 C 1.0137(9) 0.3009(7) 0.6917(5)
H55 H 0.9906 0.3672 0.6751
H56 H 1.0805 0.2938 0.7151
C4 C 1.0489(8) 0.2473(6) 0.6369(5)
H57 H 1.0504 0.1812 0.6520
H58 H 1.1267 0.2523 0.6208
N5 N 0.3515(6) 0.3141(5) 0.2939(3)
H12 H 0.3604 0.3305 0.3315
H13 H 0.4201 0.2949 0.2734
H14 H 0.3137 0.2675 0.3006
N6 N 0.0943(6) 0.3740(5) 0.3066(3)
H15 H 0.0917 0.3454 0.2729
H16 H 0.0242 0.4062 0.3181
H17 H 0.1196 0.3310 0.3392
C5 C 0.2847(7) 0.3971(6) 0.2544(4)
H59 H 0.2685 0.3774 0.2154
H60 H 0.3308 0.4443 0.2422
C6 C 0.1739(7) 0.4402(6) 0.2895(4)
H61 H 0.1903 0.4600 0.3284
H62 H 0.1361 0.4961 0.2629
N9 N 0.3574(7) 0.2304(5) 0.7822(4)
H23 H 0.3284 0.2309 0.7454
H24 H 0.3984 0.2747 0.7777
N10 N 0.5552(11) 0.0325(8) 0.8778(6)
H25 H 0.5915 0.0009 0.8460
H26 H 0.6059 0.0365 0.9041
C9 C 0.4335(10) 0.1366(7) 0.7993(6)
H67 H 0.3859 0.0902 0.8095
H68 H 0.4847 0.1204 0.7618
C10 C 0.5002(12) 0.1282(9) 0.8505(7)
H69 H 0.4517 0.1589 0.8846
H70 H 0.5600 0.1632 0.8363
O62 O 0.9291(6) 0.9988(5) 0.3473(4)
H39 H 0.9234 1.0223 0.3082
H40 H 0.9927 0.9588 0.3499
O63 O 0.5796(9) 0.4251(7) 0.8412(5)
H41 H 0.5514 0.4142 0.8089
H42 H 0.6225 0.3740 0.8568
O64 O 0.4829(8) 0.6071(7) 0.8833(5)
H43 H 0.4757 0.6511 0.8519
H44 H 0.5112 0.5549 0.8689
O65 O 0.347(2) 0.3483(16) 0.0650(12)
H45 H 0.2842 0.3844 0.0771
H46 H 0.4014 0.3622 0.0811
O66 O 0.919(2) 0.9965(17) 0.5343(12)
O67 O 0.3384(14) 0.5018(12) 0.9741(8)
H49 H 0.2696 0.5130 0.9640
H50 H 0.3480 0.4541 1.0028
H47? H 0.8947 0.9515 0.5238
H48? H 0.9798 1.0023 0.5103
loop_
_geom_bond_atom_site_label_1
_geom_bond_atom_site_label_2
_geom_bond_site_symmetry_1
_geom_bond_site_symmetry_2
Cd1 O23 1_555 1_555
Cd2 O42 1_555 1_555
Cd3 O4 1_555 1_555
Mo1 Mo6 1_555 1_555
Mo2 Mo3 1_555 1_555
Mo3 O9 1_555 1_555
Mo4 Mo5 1_555 1_555
Mo5 O13 1_555 1_555
Mo6 Cl1 1_555 1_555
Mo7 Mo12 1_555 1_555
Mo8 Mo9 1_555 1_555
Mo9 O27 1_555 1_555
Mo10 Mo11 1_555 1_555
Mo11 O28 1_555 1_555
Mo12 O28 1_555 1_555
Mg1 N7 1_555 1_555
Cl2 Mo1 1_555 1_555
N1 H1 1_555 1_555
H2 N1 1_555 1_555
N2 H3 1_555 1_555
H4 N2 1_555 1_555
H5 N2 1_555 1_555
N3 H6 1_555 1_555
H7 N3 1_555 1_555
H8 N3 1_555 1_555
N4 H9 1_555 1_555
H10 N4 1_555 1_555
H11 N4 1_555 1_555
N5 H12 1_555 1_555
H13 N5 1_555 1_555
H14 N5 1_555 1_555
N6 H15 1_555 1_555
H16 N6 1_555 1_555
H17 N6 1_555 1_555
N7 H18 1_555 1_555
H19 N7 1_555 1_555
N8 H20 1_555 1_555
H21 N8 1_555 1_555
H22 N8 1_555 1_555
N9 H23 1_555 1_555
H24 N9 1_555 1_555
N10 H25 1_555 1_555
H26 N10 1_555 1_555
O1 Mo1 1_555 1_555
O2 P1 1_555 1_555
O3 Mo6 1_555 1_555
O4 P1 1_555 1_555
O5 Mo1 1_555 1_555
O6 P2 1_555 1_555
O7 Cd3 1_555 1_555
O8 Mg1 1_555 1_555
O9 P4 1_555 1_555
O10 Mo4 1_555 1_555
O11 P4 1_555 1_555
O12 P4 1_555 1_555
O13 P3 1_555 1_555
O14 P3 1_555 1_555
O15 P3 1_555 1_555
O16 H27 1_555 1_555
O17 Mo1 1_555 1_555
H28 O17 1_555 1_555
O18 Mo2 1_555 1_555
O19 Mo3 1_555 1_555
H29 O19 1_555 1_555
O20 Mo4 1_555 1_555
O21 Mo5 1_555 1_555
H30 O21 1_555 1_555
O22 Mo1 1_555 1_555
O23 Mo2 1_555 1_555
O24 Cd1 1_555 1_555
O25 Cd1 1_555 1_555
O26 Mo7 1_555 1_555
O27 Mo10 1_555 1_555
O28 P5 1_555 1_555
O29 P5 1_555 1_555
O30 P6 1_555 1_555
O31 P6 1_555 1_555
O32 Cd3 1_555 1_555
O33 H31 1_555 1_555
O34 Mo9 1_555 1_555
O35 Mo10 1_555 1_555
O36 Mg1 1_555 1_555
O37 H32 1_555 1_555
O38 Mo11 1_555 1_555
O39 Mo12 1_555 1_555
O40 P8 1_555 1_555
O41 Mg1 1_555 1_555
O42 Mo8 1_555 1_555
O43 Cd2 1_555 1_555
O44 Mo7 1_555 1_555
H33 O44 1_555 1_555
O45 Mo8 1_555 1_555
O46 Mo2 1_555 1_555
O47 Mo9 1_555 1_555
H34 O47 1_555 1_555
O48 Mo3 1_555 1_555
O49 Mo10 1_555 1_555
O50 Mo4 1_555 1_555
O51 Mo11 1_555 1_555
H35 O51 1_555 1_555
O52 Mo5 1_555 1_555
O53 Mo7 1_555 1_555
H36 O53 1_555 1_555
O54 Mo7 1_555 1_555
O55 Mo8 1_555 1_555
O56 Mo9 1_555 1_555
O57 Mo10 1_555 1_555
O58 Mo11 1_555 1_555
O59 Mo12 1_555 1_555
O60 Cd2 1_555 1_555
O61 Cd3 1_555 1_555
H37 O61 1_555 1_555
H38 O61 1_555 1_555
O62 H39 1_555 1_555
H40 O62 1_555 1_555
O63 H41 1_555 1_555
H42 O63 1_555 1_555
O64 H43 1_555 1_555
H44 O64 1_555 1_555
O65 H45 1_555 1_555
H46 O65 1_555 1_555
O67 H49 1_555 1_555
H50 O67 1_555 1_555
P1 O1 1_555 1_555
P2 O5 1_555 1_555
P3 O16 1_555 1_555
P4 O10 1_555 1_555
P5 O26 1_555 1_555
P6 O32 1_555 1_555
P7 O34 1_555 1_555
P8 O38 1_555 1_555
C1 N1 1_555 1_555
H51 C1 1_555 1_555
H52 C1 1_555 1_555
C2 N2 1_555 1_555
H53 C2 1_555 1_555
H54 C2 1_555 1_555
C3 N3 1_555 1_555
H55 C3 1_555 1_555
H56 C3 1_555 1_555
C4 N4 1_555 1_555
H57 C4 1_555 1_555
H58 C4 1_555 1_555
C5 N5 1_555 1_555
H59 C5 1_555 1_555
H60 C5 1_555 1_555
C6 N6 1_555 1_555
H61 C6 1_555 1_555
H62 C6 1_555 1_555
C7 N7 1_555 1_555
H63 C7 1_555 1_555
H64 C7 1_555 1_555
C8 N8 1_555 1_555
H65 C8 1_555 1_555
H66 C8 1_555 1_555
C9 N9 1_555 1_555
H67 C9 1_555 1_555
H68 C9 1_555 1_555
C10 N10 1_555 1_555
H69 C10 1_555 1_555
H70 C10 1_555 1_555
Cd2_2 O42A_2 1_555 1_555
Cd3A O4A 1_555 1_555
Cd3_2 O11 1_555 1_555
Cd3A_2 O7A 1_555 1_555
Cd3A_3 O11A 1_555 1_555
Cd3_3 O32_2 1_555 1_555
Mo1A Mo6A 1_555 1_555
Mo1A_2 O5A 1_555 1_555
Mo2A O1 1_555 1_555
Mo2_2 O6A 1_555 1_555
Mo3A O2 1_555 1_555
Mo4A O2 1_555 1_555
Mo5A O3 1_555 1_555
Mo6A O14 1_555 1_555
Mo7A Mo12A 1_555 1_555
Mo7_2 O30 1_555 1_555
Mo8A Mo9A 1_555 1_555
Mo8_2 O31 1_555 1_555
Mo8A_2 Mo9A_2 1_555 1_555
Mo9A O27A 1_555 1_555
Mo9A_2 O42A 1_555 1_555
Mo10A Mo11A 1_555 1_555
Mo11A O28A 1_555 1_555
Mo12A O28A 1_555 1_555
Mg1A N7A 1_555 1_555
Cl1A Mo6A 1_555 1_555
Cl2A Mo1A 1_555 1_555
N7A H18A 1_555 1_555
H19A N7A 1_555 1_555
N8A H20A 1_555 1_555
H21A N8A 1_555 1_555
H22A N8A 1_555 1_555
O1A Mo2 1_555 1_555
O2A Mo3 1_555 1_555
O3A Mo5 1_555 1_555
O4A P1A 1_555 1_555
O5A P2A 1_555 1_555
O5A_2 Mo1A 1_555 1_555
O6A P2A 1_555 1_555
O6A_2 Mo2 1_555 1_555
O7A P2A 1_555 1_555
O7A_2 Cd3A 1_555 1_555
O8A Mg1A 1_555 1_555
O9A Mo3A 1_555 1_555
O10A Mo4A 1_555 1_555
O11A P4A 1_555 1_555
O11_2 Cd3 1_555 1_555
O11A_2 Cd3A 1_555 1_555
O12A P4A 1_555 1_555
O13A Mo5A 1_555 1_555
O14A Mo6 1_555 1_555
O15A P3A 1_555 1_555
O16A H27A 1_555 1_555
O17A Mo2 1_555 1_555
H28A O17A 1_555 1_555
O18A Mo2A 1_555 1_555
O19A Mo3A 1_555 1_555
H29A O19A 1_555 1_555
O20A Mo4A 1_555 1_555
O21A Mo6 1_555 1_555
H30A O21A 1_555 1_555
O22A Mo1A 1_555 1_555
O23A Cd1 1_555 1_555
O24A Cd1 1_555 1_555
O25A Cd1 1_555 1_555
O26A Mo7A 1_555 1_555
O27A Mo10A 1_555 1_555
O28A P5A 1_555 1_555
O29A P5A 1_555 1_555
O30_2 Mo7 1_555 1_555
O30A Mo7A 1_555 1_555
O31_2 Mo8 1_555 1_555
O31A Mo8A 1_555 1_555
O32_2 P6_2 1_555 1_555
O32A Cd3A 1_555 1_555
O33_2 H31_2 1_555 1_555
O34A Mo9A 1_555 1_555
O35A Mo10A 1_555 1_555
O36A Mg1A 1_555 1_555
O37A H32A 1_555 1_555
O38A Mo11A 1_555 1_555
O39A Mo12A 1_555 1_555
O40A P8A 1_555 1_555
O41A P8 1_555 1_555
O42A Cd2 1_555 1_555
O42A_2 Mo8A 1_555 1_555
O43A Cd2_2 1_555 1_555
O43A_2 Cd2 1_555 1_555
O44A Mo7A 1_555 1_555
H33A O44A 1_555 1_555
O45A Mo8A 1_555 1_555
O46A Mo2A 1_555 1_555
O47A Mo9A 1_555 1_555
H34A O47A 1_555 1_555
O48A Mo3A 1_555 1_555
O49A Mo10A 1_555 1_555
O50A Mo4A 1_555 1_555
O51A Mo11A 1_555 1_555
H35A O51A 1_555 1_555
O52A Mo5A 1_555 1_555
O53A Mo7A 1_555 1_555
H36A O53A 1_555 1_555
O54A Mo7A 1_555 1_555
O55A Mo8A 1_555 1_555
O56A Mo9A 1_555 1_555
O57A Mo10A 1_555 1_555
O58A Mo11A 1_555 1_555
O59A Mo12A 1_555 1_555
O60A Cd2_2 1_555 1_555
O60A_2 Cd2 1_555 1_555
O61A Cd3A 1_555 1_555
H37A O61A 1_555 1_555
H38A O61A 1_555 1_555
P1A O1A 1_555 1_555
P2A O8A 1_555 1_555
P3A O13A 1_555 1_555
P4A O9A 1_555 1_555
P5A O26A 1_555 1_555
P6_2 O30_2 1_555 1_555
P7A O34A 1_555 1_555
P8A O41 1_555 1_555
C7A N7A 1_555 1_555
H63A C7A 1_555 1_555
H64A C7A 1_555 1_555
C8A N8A 1_555 1_555
H65A C8A 1_555 1_555
H66A C8A 1_555 1_555
Mo1 O25 1_555 1_555
Mo3 O18 1_555 1_555
Mo3 O23 1_555 1_555
Mo4 O19 1_555 1_555
Mo4 O24 1_555 1_555
Mo4 O2A 1_555 1_555
Mo5 O20 1_555 1_555
Mo5 O24 1_555 1_555
Mo6 O22 1_555 1_555
Mo6 O25 1_555 1_555
Mo7 O60 1_555 1_555
Mo8 O26 1_555 1_555
Mo8 O44 1_555 1_555
Mo9 O42 1_555 1_555
Mo9 O45 1_555 1_555
Mo10 O43 1_555 1_555
Mo10 O47 1_555 1_555
Mo11 O43 1_555 1_555
Mo11 O49 1_555 1_555
Mo12 O51 1_555 1_555
Mo12 O53 1_555 1_555
Mo12 O60 1_555 1_555
O3 P1 1_555 1_555
O6 Mo2A 1_555 1_555
O7 P2 1_555 1_555
O8 P2 1_555 1_555
O17 Mo2A 1_555 1_555
O21 Mo6A 1_555 1_555
O27 P5 1_555 1_555
O33 P6 1_555 1_555
O35 P7 1_555 1_555
O36 P7 1_555 1_555
O37 P7 1_555 1_555
O39 P8 1_555 1_555
C1 C2 1_555 1_555
C3 C4 1_555 1_555
C5 C6 1_555 1_555
C7 C8 1_555 1_555
C9 C10 1_555 1_555
Mo1A O1A 1_555 1_555
Mo1A O17A 1_555 1_555
Mo1A O25A 1_555 1_555
Mo2A Mo3A 1_555 1_555
Mo2A O23A 1_555 1_555
Mo3A O18A 1_555 1_555
Mo3A O23A 1_555 1_555
Mo4A Mo5A 1_555 1_555
Mo4A O19A 1_555 1_555
Mo4A O24A 1_555 1_555
Mo5A O20A 1_555 1_555
Mo5A O21A 1_555 1_555
Mo5A O24A 1_555 1_555
Mo6A O3A 1_555 1_555
Mo6A O22A 1_555 1_555
Mo6A O25A 1_555 1_555
Mo7A O60A 1_555 1_555
Mo8A O26A 1_555 1_555
Mo8A O44A 1_555 1_555
Mo8A_2 O42A 1_555 1_555
Mo9A O42A_2 1_555 1_555
Mo9A O45A 1_555 1_555
Mo10A O43A 1_555 1_555
Mo10A O47A 1_555 1_555
Mo11A O43A 1_555 1_555
Mo11A O49A 1_555 1_555
Mo12A O51A 1_555 1_555
Mo12A O53A 1_555 1_555
Mo12A O60A 1_555 1_555
Mg1A O41A 1_555 1_555
O2A P1A 1_555 1_555
O3A P1A 1_555 1_555
O10A P4A 1_555 1_555
O14A P3A 1_555 1_555
O16A P3A 1_555 1_555
O27A P5A 1_555 1_555
O31_2 P6_2 1_555 1_555
O33_2 P6_2 1_555 1_555
O35A P7A 1_555 1_555
O36A P7A 1_555 1_555
O37A P7A 1_555 1_555
O38A P8A 1_555 1_555
O39A P8A 1_555 1_555
C7A C8A 1_555 1_555

#END
