
#######################################################################
#
#                 Cambridge Crystallographic Data Centre
#                                CCDC 
#
#######################################################################
#
# If this CIF has been generated from an entry in the Cambridge 
# Structural Database, then it will include bibliographic, chemical, 
# crystal, experimental, refinement or atomic coordinate data resulting 
# from the CCDC's data processing and validation procedures.
#
#######################################################################

data_OXUPUT
_symmetry_cell_setting           tetragonal
_symmetry_space_group_name_H-M   'P 42/n m c'
_symmetry_Int_Tables_number      137
_space_group_name_Hall           '-P 4ac 2a'
loop_
_symmetry_equiv_pos_site_id
_symmetry_equiv_pos_as_xyz
1 x,y,z
2 1/2-x,1/2-y,z
3 1/2-y,x,1/2+z
4 y,1/2-x,1/2+z
5 -x,1/2+y,-z
6 1/2+x,-y,-z
7 1/2+y,1/2+x,1/2-z
8 -y,-x,1/2-z
9 -x,-y,-z
10 1/2+x,1/2+y,-z
11 1/2+y,-x,1/2-z
12 -y,1/2+x,1/2-z
13 x,1/2-y,z
14 1/2-x,y,z
15 1/2-y,1/2-x,1/2+z
16 y,x,1/2+z
_cell_length_a                   20.3539(16)
_cell_length_b                   20.3539(16)
_cell_length_c                   7.8010(6)
_cell_angle_alpha                90
_cell_angle_beta                 90
_cell_angle_gamma                90
_cell_volume                     3231.81
loop_
_atom_site_label
_atom_site_type_symbol
_atom_site_fract_x
_atom_site_fract_y
_atom_site_fract_z
U1 U 0.402575(18) 0.2500 0.20838(5)
O1 O 0.4824(4) 0.2500 0.1132(11)
O2 O 0.3220(4) 0.2500 0.3001(10)
O3 O 0.3659(4) 0.2500 -0.1057(11)
O4 O 0.4394(3) 0.1799(3) 0.4185(7)
P1 P 0.42561(10) 0.13573(10) 0.5685(3)
O5 O 0.3549(3) 0.1217(3) 0.6016(8)
O6 O 0.4566(3) 0.1664(3) 0.7337(8)
C1 C 0.4679(4) 0.0593(4) 0.5329(10)
C2 C 0.5339(4) 0.0580(4) 0.4895(13)
C3 C 0.4357(4) 0.0015(4) 0.5462(12)
H1 H 0.3910 0.0015 0.5810
F1 F 0.5828(3) 0.1265(3) 0.4828(13)
U1C U 0.2500 0.097425(18) 0.70838(5)
U1D U 0.597425(18) -0.2500 0.79162(5)
U1F U 0.7500 -0.097425(18) 0.29162(5)
O4H O 0.5606(3) -0.1799(3) 0.5815(7)
O4L O 0.4394(3) 0.3201(3) 0.4185(7)
P1H P 0.57439(10) -0.13573(10) 0.4315(3)
O5H O 0.6451(3) -0.1217(3) 0.3984(8)
O5B O 0.3783(3) 0.3549(3) 0.1016(8)
O5N O 0.3783(3) 0.1451(3) 0.1016(8)
O6H O 0.5434(3) -0.1664(3) 0.2663(8)
C1H C 0.5321(4) -0.0593(4) 0.4671(10)
C2H C 0.4661(4) -0.0580(4) 0.5105(13)
C3H C 0.5643(4) -0.0015(4) 0.4538(12)
H1H H 0.6090 -0.0015 0.4190
F1H F 0.4172(3) -0.1265(3) 0.5172(13)
O7 O 0.5608(10) 0.2500 0.741(3)
loop_
_geom_bond_atom_site_label_1
_geom_bond_atom_site_label_2
_geom_bond_site_symmetry_1
_geom_bond_site_symmetry_2
U1 O1 1_555 1_555
O2 U1 1_555 1_555
O3 U1 1_555 1_555
O4 U1 1_555 1_555
P1 O4 1_555 1_555
O5 P1 1_555 1_555
O6 P1 1_555 1_555
C1 P1 1_555 1_555
C2 C1 1_555 1_555
C3 C1 1_555 1_555
H1 C3 1_555 1_555
F1 C2 1_555 1_555
U1C O5 1_555 1_555
U1D O4H 1_555 1_555
U1F O5H 1_555 1_555
O4H P1H 1_555 1_555
O4L U1 1_555 1_555
P1H O5H 1_555 1_555
O5B U1 1_555 1_555
O5N U1 1_555 1_555
O6H P1H 1_555 1_555
C1H P1H 1_555 1_555
C2H C3 1_555 1_555
C3H C2 1_555 1_555
H1H C3H 1_555 1_555
F1H C2H 1_555 1_555
C1H C2H 1_555 1_555
C1H C3H 1_555 1_555

#END
