
#######################################################################
#
#                 Cambridge Crystallographic Data Centre
#                                CCDC 
#
#######################################################################
#
# If this CIF has been generated from an entry in the Cambridge 
# Structural Database, then it will include bibliographic, chemical, 
# crystal, experimental, refinement or atomic coordinate data resulting 
# from the CCDC's data processing and validation procedures.
#
#######################################################################

data_OXUPON
_symmetry_cell_setting           orthorhombic
_symmetry_space_group_name_H-M   'C m c m'
_symmetry_Int_Tables_number      63
_space_group_name_Hall           '-C 2n 2'
loop_
_symmetry_equiv_pos_site_id
_symmetry_equiv_pos_as_xyz
1 x,y,z
2 -x,-y,1/2+z
3 -x,y,1/2-z
4 x,-y,-z
5 1/2+x,1/2+y,z
6 1/2-x,1/2-y,1/2+z
7 1/2-x,1/2+y,1/2-z
8 1/2+x,1/2-y,-z
9 -x,-y,-z
10 x,y,1/2-z
11 x,-y,1/2+z
12 -x,y,z
13 1/2-x,1/2-y,-z
14 1/2+x,1/2+y,1/2-z
15 1/2+x,1/2-y,1/2+z
16 1/2-x,1/2+y,z
_cell_length_a                   17.9546(7)
_cell_length_b                   7.0283(3)
_cell_length_c                   25.0796(9)
_cell_angle_alpha                90
_cell_angle_beta                 90
_cell_angle_gamma                90
_cell_volume                     3164.8
loop_
_atom_site_label
_atom_site_type_symbol
_atom_site_fract_x
_atom_site_fract_y
_atom_site_fract_z
U1 U 0.386872(8) 0.23141(2) 0.106884(6)
P1 P 0.32264(6) 0.72580(15) 0.12257(4)
O1 O 0.3893(2) 0.2189(5) 0.03562(15)
O2 O 0.38949(19) 0.2476(4) 0.17752(15)
F1 F 0.5000 0.4073(7) 0.1057(2)
F2 F 0.5000 0.0595(6) 0.11148(17)
O3 O 0.35919(17) 0.5535(4) 0.09579(12)
O4 O 0.24008(18) 0.7312(4) 0.10834(11)
O5 O 0.36261(17) 0.9080(4) 0.10675(12)
C1 C 0.3305(2) 0.7036(6) 0.19392(16)
C2 C 0.3889(2) 0.7905(7) 0.22213(18)
H1 H 0.4286 0.8494 0.2033
C3 C 0.2744(2) 0.6117(6) 0.22239(17)
H2 H 0.2357 0.5483 0.2037
U1I U 0.386872(8) 0.23141(2) 0.393116(6)
U1O U 0.113128(8) -0.26859(2) 0.106884(6)
U1F U 0.113128(8) -0.26859(2) 0.393116(6)
U1K U 0.613128(8) 0.23141(2) 0.106884(6)
U1O_2 U 0.113128(8) 0.73141(2) 0.106884(6)
U1_2 U 0.386872(8) 1.23141(2) 0.106884(6)
U1F_2 U 0.113128(8) 0.73141(2) 0.393116(6)
U1I_2 U 0.386872(8) 1.23141(2) 0.393116(6)
U1B U 0.613128(8) 0.23141(2) 0.393116(6)
P1I P 0.32264(6) 0.72580(15) 0.37743(4)
P1O P 0.17736(6) 0.22580(15) 0.12257(4)
P1F P 0.17736(6) 0.22580(15) 0.37743(4)
O1I O 0.3893(2) 0.2189(5) 0.46438(15)
O1O O 0.1107(2) -0.2811(5) 0.03562(15)
O1F O 0.1107(2) -0.2811(5) 0.46438(15)
O2I O 0.38949(19) 0.2476(4) 0.32248(15)
O2O O 0.11051(19) -0.2524(4) 0.17752(15)
O2F O 0.11051(19) -0.2524(4) 0.32248(15)
F1B F 0.5000 0.4073(7) 0.3943(2)
F1D F 0.0000 -0.0927(7) 0.1057(2)
F1F F 0.0000 -0.0927(7) 0.3943(2)
F2B F 0.5000 0.0595(6) 0.38852(17)
F2D F 0.0000 -0.4405(6) 0.11148(17)
F2F F 0.0000 -0.4405(6) 0.38852(17)
O3I O 0.35919(17) 0.5535(4) 0.40421(12)
O3O O 0.14081(17) 0.0535(4) 0.09579(12)
O3F O 0.14081(17) 0.0535(4) 0.40421(12)
O4I O 0.24008(18) 0.7312(4) 0.39166(11)
O4O O 0.25992(18) 0.2312(4) 0.10834(11)
O4F O 0.25992(18) 0.2312(4) 0.39166(11)
O4_2 O 0.24008(18) -0.2688(4) 0.10834(11)
O4I_2 O 0.24008(18) -0.2688(4) 0.39166(11)
O5I O 0.36261(17) 0.9080(4) 0.39325(12)
O5O O 0.13739(17) 0.4080(4) 0.10675(12)
O5F O 0.13739(17) 0.4080(4) 0.39325(12)
O5_2 O 0.36261(17) -0.0920(4) 0.10675(12)
O5I_2 O 0.36261(17) -0.0920(4) 0.39325(12)
O5O_2 O 0.13739(17) -0.5920(4) 0.10675(12)
O5F_2 O 0.13739(17) -0.5920(4) 0.39325(12)
C1I C 0.3305(2) 0.7036(6) 0.30608(16)
C1O C 0.1695(2) 0.2036(6) 0.19392(16)
C1F C 0.1695(2) 0.2036(6) 0.30608(16)
C2I C 0.3889(2) 0.7905(7) 0.27787(18)
C2O C 0.1111(2) 0.2905(7) 0.22213(18)
C2F C 0.1111(2) 0.2905(7) 0.27787(18)
H1I H 0.4286 0.8494 0.2967
H1O H 0.0714 0.3494 0.2033
H1F H 0.0714 0.3494 0.2967
C3I C 0.2744(2) 0.6117(6) 0.27761(17)
C3O C 0.2256(2) 0.1117(6) 0.22239(17)
C3F C 0.2256(2) 0.1117(6) 0.27761(17)
H2I H 0.2357 0.5483 0.2963
H2O H 0.2643 0.0483 0.2037
H2F H 0.2643 0.0483 0.2963
O6 O 0.5000 0.7416(8) 0.0501(2)
O7 O 0.2585(4) 0.5000 0.5000
O8 O 0.5000 0.4030(16) 0.2500
loop_
_geom_bond_atom_site_label_1
_geom_bond_atom_site_label_2
_geom_bond_site_symmetry_1
_geom_bond_site_symmetry_2
U1 O1 1_555 1_555
P1 O3 1_555 1_555
O2 U1 1_555 1_555
F1 U1 1_555 1_555
F2 U1 1_555 1_555
O3 U1 1_555 1_555
O4 P1 1_555 1_555
O5 P1 1_555 1_555
C1 P1 1_555 1_555
C2 C1 1_555 1_555
H1 C2 1_555 1_555
C3 C1 1_555 1_555
H2 C3 1_555 1_555
U1I O1I 1_555 1_555
U1O O1O 1_555 1_555
U1F O1F 1_555 1_555
U1K F1 1_555 1_555
U1O_2 O4 1_555 1_555
U1_2 O5 1_555 1_555
U1F_2 O4I 1_555 1_555
U1I_2 O5I 1_555 1_555
U1B F1B 1_555 1_555
P1I O3I 1_555 1_555
P1O O3O 1_555 1_555
P1F O3F 1_555 1_555
O2I U1I 1_555 1_555
O2O U1O 1_555 1_555
O2F U1F 1_555 1_555
F1B U1I 1_555 1_555
F1D U1O 1_555 1_555
F1F U1F 1_555 1_555
F2B U1I 1_555 1_555
F2D U1O 1_555 1_555
F2F U1F 1_555 1_555
O3I U1I 1_555 1_555
O3O U1O 1_555 1_555
O3F U1F 1_555 1_555
O4I P1I 1_555 1_555
O4O U1 1_555 1_555
O4F U1I 1_555 1_555
O4_2 U1O 1_555 1_555
O4I_2 U1F 1_555 1_555
O5I P1I 1_555 1_555
O5O U1O_2 1_555 1_555
O5F U1F_2 1_555 1_555
O5_2 U1 1_555 1_555
O5I_2 U1I 1_555 1_555
O5O_2 U1O 1_555 1_555
O5F_2 U1F 1_555 1_555
C1I P1I 1_555 1_555
C1O P1O 1_555 1_555
C1F P1F 1_555 1_555
C2I C2 1_555 1_555
C2O C1O 1_555 1_555
C2F C1F 1_555 1_555
H1I C2I 1_555 1_555
H1O C2O 1_555 1_555
H1F C2F 1_555 1_555
C3I C3 1_555 1_555
C3O C1O 1_555 1_555
C3F C1F 1_555 1_555
H2I C3I 1_555 1_555
H2O C3O 1_555 1_555
H2F C3F 1_555 1_555
F2 U1K 1_555 1_555
U1B F2B 1_555 1_555
P1O O4O 1_555 1_555
P1O O5O 1_555 1_555
P1F O4F 1_555 1_555
P1F O5F 1_555 1_555
C1I C2I 1_555 1_555
C1I C3I 1_555 1_555
C2O C2F 1_555 1_555
C3O C3F 1_555 1_555

#END
