
#######################################################################
#
#                 Cambridge Crystallographic Data Centre
#                                CCDC 
#
#######################################################################
#
# If this CIF has been generated from an entry in the Cambridge 
# Structural Database, then it will include bibliographic, chemical, 
# crystal, experimental, refinement or atomic coordinate data resulting 
# from the CCDC's data processing and validation procedures.
#
#######################################################################

data_OXUPAZ
_symmetry_cell_setting           monoclinic
_symmetry_space_group_name_H-M   'P 2/c'
_symmetry_Int_Tables_number      13
_space_group_name_Hall           '-P 2yc'
loop_
_symmetry_equiv_pos_site_id
_symmetry_equiv_pos_as_xyz
1 x,y,z
2 -x,y,1/2-z
3 -x,-y,-z
4 x,-y,1/2+z
_cell_length_a                   17.707(9)
_cell_length_b                   9.813(4)
_cell_length_c                   31.918(15)
_cell_angle_alpha                90
_cell_angle_beta                 103.362(7)
_cell_angle_gamma                90
_cell_volume                     5395.9
loop_
_atom_site_label
_atom_site_type_symbol
_atom_site_fract_x
_atom_site_fract_y
_atom_site_fract_z
Eu1 Eu 0.0000 0.11242(4) 0.2500
Eu2 Eu 0.0000 0.64883(5) 0.2500
Eu3 Eu 0.987150(19) 0.18833(4) 0.442620(11)
Cu1 Cu 0.49004(7) 0.4864(2) 0.33014(5)
Cu2 Cu -0.46419(8) -0.01092(16) 0.29814(7)
Cu3 Cu 0.45709(7) -0.10744(14) 0.42458(5)
Cu4 Cu 0.49755(6) 0.26057(12) 0.47893(4)
Cu5 Cu 0.54907(7) 0.80634(17) 0.37466(4)
Br1 Br 0.47875(6) 0.75792(12) 0.30347(3)
Br2 Br -0.5000 0.18399(12) 0.2500
Br3 Br -0.49313(6) 0.07031(11) 0.37945(4)
Br4 Br 0.5000 0.0000 0.5000
Br5 Br 0.50250(5) -0.34797(10) 0.42855(3)
O1 O 0.1136(3) 0.2521(5) 0.26513(16)
O2 O 0.0919(3) 0.4763(5) 0.26440(16)
O3 O 0.0822(3) -0.2308(5) 0.30797(17)
O4 O 0.0848(3) -0.0054(6) 0.3070(2)
O5 O 1.1217(3) 0.3825(6) 0.36494(18)
O6 O 1.0933(3) 0.2678(6) 0.41880(18)
O7 O 0.9336(3) -0.0177(5) 0.45660(16)
O8 O 0.9348(3) -0.2217(5) 0.48720(17)
O9 O 0.8747(3) 0.3698(6) 0.3321(2)
O10 O 0.8727(3) 0.2670(6) 0.39401(19)
O11 O -0.1014(3) -0.2460(6) 0.27734(19)
O12 O -0.0783(3) -0.0242(6) 0.2824(2)
O13 O 0.8925(3) 0.2339(5) 0.48701(18)
O14 O 0.8792(3) 0.4538(6) 0.4983(2)
O15 O 0.0038(3) 0.2289(5) 0.18350(16)
H1 H 0.0408 0.2670 0.1750
H2 H -0.0362 0.2657 0.1676
O16 O 0.0051(3) 0.5549(5) 0.17566(16)
H3 H 0.0317 0.4889 0.1696
H4 H -0.0371 0.5283 0.1591
O17 O 0.9781(4) 0.0411(7) 0.38059(18)
H5 H 1.0128 0.0396 0.3661
H6 H 0.9604 -0.0397 0.3794
O18 O 1.0978(3) 0.0012(6) 0.45668(18)
H7 H 1.1118 -0.0709 0.4709
H8 H 1.1316 0.0558 0.4506
O19 O 0.9881(3) 0.4373(6) 0.44827(17)
H9 H 0.9630 0.4679 0.4660
H10 H 1.0332 0.4372 0.4648
N1 N 0.3786(4) 0.4527(9) 0.3151(2)
N2 N 0.3397(4) -0.1102(7) 0.4027(2)
N3 N 1.3857(4) 0.2865(7) 0.4562(2)
N4 N 0.6640(4) -0.1824(8) 0.3985(2)
N5 N 0.5985(4) 0.4345(8) 0.3399(2)
N6 N -0.3522(4) -0.0488(7) 0.2954(2)
N7 N 0.6097(3) 0.2840(7) 0.4858(2)
C1 C 0.3535(5) 0.3244(10) 0.3061(3)
H13 H 0.3895 0.2540 0.3091
C2 C 0.2743(4) 0.2945(9) 0.2923(2)
H14 H 0.2578 0.2047 0.2875
C3 C 0.2212(4) 0.3986(7) 0.2859(2)
C4 C 0.2488(4) 0.5307(9) 0.2947(3)
H15 H 0.2144 0.6037 0.2904
C5 C 0.3273(5) 0.5533(10) 0.3096(3)
H16 H 0.3448 0.6420 0.3159
C6 C 0.1348(4) 0.3742(7) 0.2704(2)
C7 C 0.2970(5) -0.2219(9) 0.3983(3)
H17 H 0.3188 -0.2993 0.4131
C8 C 0.2227(4) -0.2318(8) 0.3736(3)
H18 H 0.1957 -0.3137 0.3714
C9 C 0.1888(4) -0.1158(7) 0.3519(2)
C10 C 0.2316(5) 0.0031(8) 0.3580(3)
H19 H 0.2101 0.0836 0.3452
C11 C 0.3058(5) 0.0027(9) 0.3830(3)
H20 H 0.3339 0.0836 0.3864
C12 C 0.1119(4) -0.1192(7) 0.3190(2)
C13 C 1.3583(5) 0.3622(8) 0.4214(3)
H21 H 1.3936 0.4078 0.4089
C14 C 1.2809(4) 0.3763(8) 0.4031(2)
H22 H 1.2650 0.4305 0.3788
C15 C 1.2256(4) 0.3104(7) 0.4206(2)
C16 C 1.2539(4) 0.2320(8) 0.4569(2)
H23 H 1.2196 0.1851 0.4698
C17 C 1.3325(4) 0.2236(8) 0.4740(2)
H24 H 1.3499 0.1724 0.4988
C18 C 1.1399(4) 0.3226(7) 0.3998(2)
C19 C 0.7013(5) -0.0646(9) 0.3960(3)
H25 H 0.6734 0.0076 0.3810
C20 C 0.7787(4) -0.0456(8) 0.4144(2)
H26 H 0.8022 0.0382 0.4125
C21 C 0.8215(4) -0.1540(8) 0.4361(2)
C22 C 0.7841(5) -0.2765(8) 0.4377(3)
H27 H 0.8108 -0.3511 0.4518
C23 C 0.7064(5) -0.2866(10) 0.4180(3)
H28 H 0.6822 -0.3705 0.4184
C24 C 0.9033(4) -0.1295(7) 0.4618(2)
C25 C 0.6391(5) 0.4645(9) 0.3113(3)
H29 H 0.6138 0.5081 0.2861
C26 C 0.7168(4) 0.4350(8) 0.3167(3)
H30 H 0.7430 0.4612 0.2959
C27 C 0.7559(4) 0.3659(7) 0.3534(2)
C28 C 0.7124(5) 0.3304(9) 0.3822(2)
H31 H 0.7352 0.2825 0.4070
C29 C 0.6364(5) 0.3653(10) 0.3744(3)
H32 H 0.6087 0.3392 0.3946
C30 C 0.8418(4) 0.3316(8) 0.3599(3)
C31 C -0.3245(5) -0.1765(9) 0.2961(3)
H33 H -0.3568 -0.2484 0.2994
C32 C -0.2499(5) -0.2060(8) 0.2920(3)
H34 H -0.2335 -0.2958 0.2912
C33 C -0.2005(4) -0.0994(7) 0.2891(2)
C34 C -0.2280(4) 0.0327(8) 0.2904(3)
H35 H -0.1958 0.1072 0.2899
C35 C -0.3031(5) 0.0508(8) 0.2926(3)
H36 H -0.3214 0.1398 0.2920
C36 C -0.1198(4) -0.1250(7) 0.2824(2)
C37 C 0.6562(5) 0.1761(8) 0.4841(3)
H37 H 0.6337 0.0902 0.4791
C38 C 0.7353(4) 0.1869(8) 0.4895(2)
H38 H 0.7655 0.1094 0.4893
C39 C 0.7697(4) 0.3146(7) 0.4953(2)
C40 C 0.7223(4) 0.4246(8) 0.4983(2)
H39 H 0.7436 0.5112 0.5039
C41 C 0.6440(5) 0.4056(8) 0.4930(2)
H40 H 0.6131 0.4814 0.4944
C42 C 0.8548(4) 0.3356(8) 0.4949(2)
Eu2_2 Eu 0.0000 -0.35117(5) 0.2500
Eu3A Eu -0.987150(19) 0.18833(4) 0.057380(11)
Eu3B Eu 1.012850(19) -0.18833(4) 0.557380(11)
Eu3_2 Eu -0.012850(19) 0.18833(4) 0.442620(11)
Cu1A Cu -0.49004(7) 0.4864(2) 0.16986(5)
Cu1_2 Cu -0.50996(7) -0.5136(2) 0.33014(5)
Cu2A Cu 0.46419(8) -0.01092(16) 0.20186(7)
Cu2_2 Cu 0.53581(8) 0.98908(16) 0.29814(7)
Cu2A_2 Cu -0.53581(8) -0.01092(16) 0.20186(7)
Cu2_3 Cu 0.53581(8) -0.01092(16) 0.29814(7)
Cu3A Cu -0.45709(7) -0.10744(14) 0.07542(5)
Cu3_2 Cu -0.54291(7) -0.10744(14) 0.42458(5)
Cu3B Cu 0.54291(7) 0.10744(14) 0.57542(5)
Cu4B Cu 0.50245(6) -0.26057(12) 0.52107(4)
Cu4_2 Cu 1.49755(6) 0.26057(12) 0.47893(4)
Cu4A Cu -0.49755(6) 0.26057(12) 0.02107(4)
Cu5_2 Cu -0.45093(7) -0.19366(17) 0.37466(4)
Cu5_3 Cu 0.54907(7) -0.19366(17) 0.37466(4)
Cu5A Cu -0.54907(7) -0.19366(17) 0.12534(4)
Cu5B Cu 1.45093(7) 0.19366(17) 0.62534(4)
Br1_2 Br -0.52125(6) -0.24208(12) 0.30347(3)
Br1A Br -0.47875(6) 0.75792(12) 0.19653(3)
Br1A_2 Br 0.52125(6) -0.24208(12) 0.19653(3)
Br2_2 Br 0.5000 0.18399(12) 0.2500
Br3_2 Br 0.50687(6) 0.07031(11) 0.37945(4)
Br3_3 Br 0.50687(6) 1.07031(11) 0.37945(4)
Br3A Br 0.49313(6) 0.07031(11) 0.12055(4)
Br3A_2 Br -0.50687(6) 0.07031(11) 0.12055(4)
Br4A Br -0.5000 0.0000 0.0000
Br5A Br -0.50250(5) -0.34797(10) 0.07145(3)
Br5_2 Br 0.50250(5) 0.65203(10) 0.42855(3)
Br5_3 Br -0.49750(5) -0.34797(10) 0.42855(3)
O1A O -0.1136(3) 0.2521(5) 0.23487(16)
O2A O -0.0919(3) 0.4763(5) 0.23560(16)
O3A O -0.0822(3) -0.2308(5) 0.19203(17)
O3_2 O 0.0822(3) 0.7692(5) 0.30797(17)
O3A_2 O -0.0822(3) 0.7692(5) 0.19203(17)
O4A O -0.0848(3) -0.0054(6) 0.1930(2)
O5_2 O 0.1217(3) 0.3825(6) 0.36494(18)
O6_2 O 0.0933(3) 0.2678(6) 0.41880(18)
O6A O -1.0933(3) 0.2678(6) 0.08120(18)
O7B O 1.0664(3) 0.0177(5) 0.54340(16)
O7A O -0.9336(3) -0.0177(5) 0.04340(16)
O8B O 1.0652(3) 0.2217(5) 0.51280(17)
O8C O -1.0652(3) 0.2217(5) -0.01280(17)
O9A O -0.8747(3) 0.3698(6) 0.1679(2)
O10A O -0.8727(3) 0.2670(6) 0.10599(19)
O11A O 0.1014(3) -0.2460(6) 0.22266(19)
O11_2 O -0.1014(3) 0.7540(6) 0.27734(19)
O11A_2 O 0.1014(3) 0.7540(6) 0.22266(19)
O12A O 0.0783(3) -0.0242(6) 0.2176(2)
O13A O -0.8925(3) 0.2339(5) 0.01299(18)
O14A O -0.8792(3) 0.4538(6) 0.0017(2)
O15A O -0.0038(3) 0.2289(5) 0.31650(16)
H1A H -0.0408 0.2670 0.3250
H2A H 0.0362 0.2657 0.3324
O16A O -0.0051(3) 0.5549(5) 0.32434(16)
H3A H -0.0317 0.4889 0.3304
H4A H 0.0371 0.5283 0.3409
O17A O -0.9781(4) 0.0411(7) 0.11941(18)
H5A H -1.0128 0.0396 0.1339
H6A H -0.9604 -0.0397 0.1206
O18A O -1.0978(3) 0.0012(6) 0.04332(18)
H7A H -1.1118 -0.0709 0.0291
H8A H -1.1316 0.0558 0.0494
O19A O -0.9881(3) 0.4373(6) 0.05173(17)
H9A H -0.9630 0.4679 0.0340
H10A H -1.0332 0.4372 0.0352
N1A N -0.3786(4) 0.4527(9) 0.1849(2)
N2A N -0.3397(4) -0.1102(7) 0.0973(2)
N3_2 N 0.3857(4) 0.2865(7) 0.4562(2)
N3B N 0.6143(4) -0.2865(7) 0.5438(2)
N4B N 1.3360(4) 0.1824(8) 0.6015(2)
N4_2 N 0.6640(4) 0.8176(8) 0.3985(2)
N4_3 N -0.3360(4) -0.1824(8) 0.3985(2)
N5A N -0.5985(4) 0.4345(8) 0.1601(2)
N6A N 0.3522(4) -0.0488(7) 0.2046(2)
N7A N -0.6097(3) 0.2840(7) 0.0142(2)
N7B N 0.3903(3) -0.2840(7) 0.5142(2)
C1A C -0.3535(5) 0.3244(10) 0.1939(3)
H13A H -0.3895 0.2540 0.1909
C2A C -0.2743(4) 0.2945(9) 0.2077(2)
H14A H -0.2578 0.2047 0.2125
C3A C -0.2212(4) 0.3986(7) 0.2141(2)
C4A C -0.2488(4) 0.5307(9) 0.2053(3)
H15A H -0.2144 0.6037 0.2096
C5A C -0.3273(5) 0.5533(10) 0.1904(3)
H16A H -0.3448 0.6420 0.1841
C6A C -0.1348(4) 0.3742(7) 0.2296(2)
C7A C -0.2970(5) -0.2219(9) 0.1017(3)
H17A H -0.3188 -0.2993 0.0869
C8A C -0.2227(4) -0.2318(8) 0.1264(3)
H18A H -0.1957 -0.3137 0.1286
C9A C -0.1888(4) -0.1158(7) 0.1481(2)
C10A C -0.2316(5) 0.0031(8) 0.1420(3)
H19A H -0.2101 0.0836 0.1548
C11A C -0.3058(5) 0.0027(9) 0.1170(3)
H20A H -0.3339 0.0836 0.1136
C12A C -0.1119(4) -0.1192(7) 0.1810(2)
C13_2 C 0.3583(5) 0.3622(8) 0.4214(3)
H21_2 H 0.3936 0.4078 0.4089
C14_2 C 0.2809(4) 0.3763(8) 0.4031(2)
H22_2 H 0.2650 0.4305 0.3788
C15_2 C 0.2256(4) 0.3104(7) 0.4206(2)
C16_2 C 0.2539(4) 0.2320(8) 0.4569(2)
H23_2 H 0.2196 0.1851 0.4698
C17_2 C 0.3325(4) 0.2236(8) 0.4740(2)
H24_2 H 0.3499 0.1724 0.4988
C18_2 C 0.1399(4) 0.3226(7) 0.3998(2)
C19B C 1.2987(5) 0.0646(9) 0.6040(3)
H25B H 1.3266 -0.0076 0.6190
C20B C 1.2213(4) 0.0456(8) 0.5856(2)
H26B H 1.1978 -0.0382 0.5875
C21B C 1.1785(4) 0.1540(8) 0.5639(2)
C22B C 1.2159(5) 0.2765(8) 0.5623(3)
H27B H 1.1892 0.3511 0.5482
C23B C 1.2936(5) 0.2866(10) 0.5820(3)
H28B H 1.3178 0.3705 0.5816
C24B C 1.0967(4) 0.1295(7) 0.5382(2)
C25A C -0.6391(5) 0.4645(9) 0.1887(3)
H29A H -0.6138 0.5081 0.2139
C26A C -0.7168(4) 0.4350(8) 0.1833(3)
H30A H -0.7430 0.4612 0.2041
C27A C -0.7559(4) 0.3659(7) 0.1466(2)
C28A C -0.7124(5) 0.3304(9) 0.1178(2)
H31A H -0.7352 0.2825 0.0930
C29A C -0.6364(5) 0.3653(10) 0.1256(3)
H32A H -0.6087 0.3392 0.1054
C30A C -0.8418(4) 0.3316(8) 0.1401(3)
C31A C 0.3245(5) -0.1765(9) 0.2039(3)
H33A H 0.3568 -0.2484 0.2006
C32A C 0.2499(5) -0.2060(8) 0.2080(3)
H34A H 0.2335 -0.2958 0.2088
C33A C 0.2005(4) -0.0994(7) 0.2109(2)
C34A C 0.2280(4) 0.0327(8) 0.2096(3)
H35A H 0.1958 0.1072 0.2101
C35A C 0.3031(5) 0.0508(8) 0.2074(3)
H36A H 0.3214 0.1398 0.2080
C36A C 0.1198(4) -0.1250(7) 0.2176(2)
C37A C -0.6562(5) 0.1761(8) 0.0159(3)
H37A H -0.6337 0.0902 0.0209
C38A C -0.7353(4) 0.1869(8) 0.0105(2)
H38A H -0.7655 0.1094 0.0107
C39A C -0.7697(4) 0.3146(7) 0.0047(2)
C40A C -0.7223(4) 0.4246(8) 0.0017(2)
H39A H -0.7436 0.5112 -0.0039
C41A C -0.6440(5) 0.4056(8) 0.0070(2)
H40A H -0.6131 0.4814 0.0056
C42A C -0.8548(4) 0.3356(8) 0.0051(2)
O20 O 0.9966(7) 1.2382(9) 0.6085(3)
H11 H 0.9808 1.2599 0.6308
H12 H 1.0430 1.2098 0.6132
loop_
_geom_bond_atom_site_label_1
_geom_bond_atom_site_label_2
_geom_bond_site_symmetry_1
_geom_bond_site_symmetry_2
Eu1 O1 1_555 1_555
Eu2 O2 1_555 1_555
Eu3 O6 1_555 1_555
Cu1 Br1 1_555 1_555
Cu2 Br2 1_555 1_555
Cu3 Br4 1_555 1_555
Cu4 Br4 1_555 1_555
Cu5 Br1 1_555 1_555
Br1 Cu2_2 1_555 1_555
Br2 Cu2A_2 1_555 1_555
Br3 Cu2 1_555 1_555
Br4 Cu3B 1_555 1_555
Br5 Cu3 1_555 1_555
O1 C6 1_555 1_555
O2 C6 1_555 1_555
O3 C12 1_555 1_555
O4 Eu1 1_555 1_555
O5 C18 1_555 1_555
O6 C18 1_555 1_555
O7 Eu3 1_555 1_555
O8 C24 1_555 1_555
O9 C30 1_555 1_555
O10 Eu3 1_555 1_555
O11 C36 1_555 1_555
O12 Eu1 1_555 1_555
O13 Eu3 1_555 1_555
O14 C42 1_555 1_555
O15 Eu1 1_555 1_555
H1 O15 1_555 1_555
H2 O15 1_555 1_555
O16 Eu2 1_555 1_555
H3 O16 1_555 1_555
H4 O16 1_555 1_555
O17 Eu3 1_555 1_555
H5 O17 1_555 1_555
H6 O17 1_555 1_555
O18 Eu3 1_555 1_555
H7 O18 1_555 1_555
H8 O18 1_555 1_555
O19 Eu3 1_555 1_555
H9 O19 1_555 1_555
H10 O19 1_555 1_555
O20 H11 1_555 1_555
H12 O20 1_555 1_555
N1 Cu1 1_555 1_555
N2 Cu3 1_555 1_555
N3 C13 1_555 1_555
N4 C19 1_555 1_555
N5 Cu1 1_555 1_555
N6 Cu2 1_555 1_555
N7 Cu4 1_555 1_555
C1 N1 1_555 1_555
H13 C1 1_555 1_555
C2 C1 1_555 1_555
H14 C2 1_555 1_555
C3 C2 1_555 1_555
C4 C3 1_555 1_555
H15 C4 1_555 1_555
C5 N1 1_555 1_555
H16 C5 1_555 1_555
C6 C3 1_555 1_555
C7 N2 1_555 1_555
H17 C7 1_555 1_555
C8 C7 1_555 1_555
H18 C8 1_555 1_555
C9 C8 1_555 1_555
C10 C9 1_555 1_555
H19 C10 1_555 1_555
C11 N2 1_555 1_555
H20 C11 1_555 1_555
C12 O4 1_555 1_555
C13 H21 1_555 1_555
C14 C13 1_555 1_555
H22 C14 1_555 1_555
C15 C14 1_555 1_555
C16 C15 1_555 1_555
H23 C16 1_555 1_555
C17 N3 1_555 1_555
H24 C17 1_555 1_555
C18 C15 1_555 1_555
C19 H25 1_555 1_555
C20 C19 1_555 1_555
H26 C20 1_555 1_555
C21 C20 1_555 1_555
C22 C21 1_555 1_555
H27 C22 1_555 1_555
C23 N4 1_555 1_555
H28 C23 1_555 1_555
C24 O7 1_555 1_555
C25 N5 1_555 1_555
H29 C25 1_555 1_555
C26 C25 1_555 1_555
H30 C26 1_555 1_555
C27 C26 1_555 1_555
C28 C27 1_555 1_555
H31 C28 1_555 1_555
C29 N5 1_555 1_555
H32 C29 1_555 1_555
C30 O10 1_555 1_555
C31 N6 1_555 1_555
H33 C31 1_555 1_555
C32 C31 1_555 1_555
H34 C32 1_555 1_555
C33 C32 1_555 1_555
C34 C33 1_555 1_555
H35 C34 1_555 1_555
C35 N6 1_555 1_555
H36 C35 1_555 1_555
C36 O12 1_555 1_555
C37 N7 1_555 1_555
H37 C37 1_555 1_555
C38 C37 1_555 1_555
H38 C38 1_555 1_555
C39 C38 1_555 1_555
C40 C39 1_555 1_555
H39 C40 1_555 1_555
C41 N7 1_555 1_555
H40 C41 1_555 1_555
C42 O13 1_555 1_555
Eu2_2 O3 1_555 1_555
Eu3A O6A 1_555 1_555
Eu3B O8 1_555 1_555
Eu3_2 O6_2 1_555 1_555
Cu1A Br1A 1_555 1_555
Cu1_2 Br1_2 1_555 1_555
Cu2A Br1A_2 1_555 1_555
Cu2_2 Br3_3 1_555 1_555
Cu2A_2 Br3A_2 1_555 1_555
Cu2_3 Br2_2 1_555 1_555
Cu3A Br3A_2 1_555 1_555
Cu3_2 Br3 1_555 1_555
Cu4B Br4 1_555 1_555
Cu4_2 N3 1_555 1_555
Cu4A Br4A 1_555 1_555
Cu5_2 Br3 1_555 1_555
Cu5_3 Br5 1_555 1_555
Cu5A Br3A_2 1_555 1_555
Cu5B N4B 1_555 1_555
Br1_2 Cu2 1_555 1_555
Br2_2 Cu2A 1_555 1_555
Br3_2 Cu3 1_555 1_555
Br3_3 Cu5 1_555 1_555
Br3A Cu2A 1_555 1_555
Br4A Cu3A 1_555 1_555
Br5A Cu3A 1_555 1_555
Br5_2 Cu5 1_555 1_555
Br5_3 Cu3_2 1_555 1_555
O1A Eu1 1_555 1_555
O2A Eu2 1_555 1_555
O3A Eu2_2 1_555 1_555
O3_2 Eu2 1_555 1_555
O3A_2 Eu2 1_555 1_555
O4A Eu1 1_555 1_555
O5_2 C18_2 1_555 1_555
O6_2 C18_2 1_555 1_555
O7B Eu3B 1_555 1_555
O7A Eu3A 1_555 1_555
O8B Eu3 1_555 1_555
O8C Eu3A 1_555 1_555
O9A C30A 1_555 1_555
O10A Eu3A 1_555 1_555
O11A Eu2_2 1_555 1_555
O11_2 Eu2 1_555 1_555
O11A_2 Eu2 1_555 1_555
O12A Eu1 1_555 1_555
O13A Eu3A 1_555 1_555
O14A C42A 1_555 1_555
O15A Eu1 1_555 1_555
H1A O15A 1_555 1_555
H2A O15A 1_555 1_555
O16A Eu2 1_555 1_555
H3A O16A 1_555 1_555
H4A O16A 1_555 1_555
O17A Eu3A 1_555 1_555
H5A O17A 1_555 1_555
H6A O17A 1_555 1_555
O18A Eu3A 1_555 1_555
H7A O18A 1_555 1_555
H8A O18A 1_555 1_555
O19A Eu3A 1_555 1_555
H9A O19A 1_555 1_555
H10A O19A 1_555 1_555
N1A Cu1A 1_555 1_555
N2A Cu3A 1_555 1_555
N3_2 Cu4 1_555 1_555
N3B Cu4B 1_555 1_555
N4B C19B 1_555 1_555
N4_2 Cu5 1_555 1_555
N4_3 Cu5_2 1_555 1_555
N5A Cu1A 1_555 1_555
N6A Cu2A 1_555 1_555
N7A Cu4A 1_555 1_555
N7B Cu4B 1_555 1_555
C1A N1A 1_555 1_555
H13A C1A 1_555 1_555
C2A C1A 1_555 1_555
H14A C2A 1_555 1_555
C3A C2A 1_555 1_555
C4A C3A 1_555 1_555
H15A C4A 1_555 1_555
C5A N1A 1_555 1_555
H16A C5A 1_555 1_555
C6A O1A 1_555 1_555
C7A N2A 1_555 1_555
H17A C7A 1_555 1_555
C8A C7A 1_555 1_555
H18A C8A 1_555 1_555
C9A C8A 1_555 1_555
C10A C9A 1_555 1_555
H19A C10A 1_555 1_555
C11A N2A 1_555 1_555
H20A C11A 1_555 1_555
C12A O3A 1_555 1_555
C13_2 N3_2 1_555 1_555
H21_2 C13_2 1_555 1_555
C14_2 C13_2 1_555 1_555
H22_2 C14_2 1_555 1_555
C15_2 C14_2 1_555 1_555
C16_2 C15_2 1_555 1_555
H23_2 C16_2 1_555 1_555
C17_2 N3_2 1_555 1_555
H24_2 C17_2 1_555 1_555
C18_2 C15_2 1_555 1_555
C19B H25B 1_555 1_555
C20B C19B 1_555 1_555
H26B C20B 1_555 1_555
C21B C20B 1_555 1_555
C22B C21B 1_555 1_555
H27B C22B 1_555 1_555
C23B N4B 1_555 1_555
H28B C23B 1_555 1_555
C24B O7B 1_555 1_555
C25A N5A 1_555 1_555
H29A C25A 1_555 1_555
C26A C25A 1_555 1_555
H30A C26A 1_555 1_555
C27A C26A 1_555 1_555
C28A C27A 1_555 1_555
H31A C28A 1_555 1_555
C29A N5A 1_555 1_555
H32A C29A 1_555 1_555
C30A O10A 1_555 1_555
C31A N6A 1_555 1_555
H33A C31A 1_555 1_555
C32A C31A 1_555 1_555
H34A C32A 1_555 1_555
C33A C32A 1_555 1_555
C34A C33A 1_555 1_555
H35A C34A 1_555 1_555
C35A N6A 1_555 1_555
H36A C35A 1_555 1_555
C36A O11A 1_555 1_555
C37A N7A 1_555 1_555
H37A C37A 1_555 1_555
C38A C37A 1_555 1_555
H38A C38A 1_555 1_555
C39A C38A 1_555 1_555
C40A C39A 1_555 1_555
H39A C40A 1_555 1_555
C41A N7A 1_555 1_555
H40A C41A 1_555 1_555
C42A O13A 1_555 1_555
O11 Eu2_2 1_555 1_555
N4 Cu5_3 1_555 1_555
C4 C5 1_555 1_555
C9 C12 1_555 1_555
C10 C11 1_555 1_555
C16 C17 1_555 1_555
C21 C24 1_555 1_555
C22 C23 1_555 1_555
C27 C30 1_555 1_555
C28 C29 1_555 1_555
C33 C36 1_555 1_555
C34 C35 1_555 1_555
C39 C42 1_555 1_555
C40 C41 1_555 1_555
Cu2_3 Br3_2 1_555 1_555
Cu5_2 Br1_2 1_555 1_555
Cu5_2 Br5_3 1_555 1_555
Cu5_3 Br3_2 1_555 1_555
Cu5A Br5A 1_555 1_555
O2A C6A 1_555 1_555
O4A C12A 1_555 1_555
O8B C24B 1_555 1_555
O12A C36A 1_555 1_555
C3A C6A 1_555 1_555
C4A C5A 1_555 1_555
C9A C12A 1_555 1_555
C10A C11A 1_555 1_555
C16_2 C17_2 1_555 1_555
C21B C24B 1_555 1_555
C22B C23B 1_555 1_555
C27A C30A 1_555 1_555
C28A C29A 1_555 1_555
C33A C36A 1_555 1_555
C34A C35A 1_555 1_555
C39A C42A 1_555 1_555
C40A C41A 1_555 1_555

#END
