
#######################################################################
#
#                 Cambridge Crystallographic Data Centre
#                                CCDC 
#
#######################################################################
#
# If this CIF has been generated from an entry in the Cambridge 
# Structural Database, then it will include bibliographic, chemical, 
# crystal, experimental, refinement or atomic coordinate data resulting 
# from the CCDC's data processing and validation procedures.
#
#######################################################################

data_OXUQII
_symmetry_cell_setting           monoclinic
_symmetry_space_group_name_H-M   'P 21/n'
_symmetry_Int_Tables_number      14
_space_group_name_Hall           '-P 2yn'
loop_
_symmetry_equiv_pos_site_id
_symmetry_equiv_pos_as_xyz
1 x,y,z
2 1/2-x,1/2+y,1/2-z
3 -x,-y,-z
4 1/2+x,1/2-y,1/2+z
_cell_length_a                   14.527(3)
_cell_length_b                   9.860(2)
_cell_length_c                   20.101(4)
_cell_angle_alpha                90
_cell_angle_beta                 91.934(3)
_cell_angle_gamma                90
_cell_volume                     2877.55
loop_
_atom_site_label
_atom_site_type_symbol
_atom_site_fract_x
_atom_site_fract_y
_atom_site_fract_z
Zn1 Zn 0.53858(4) 0.10057(6) -0.09656(3)
N1 N 0.5753(3) 0.2518(4) -0.0339(2)
N2 N 0.5803(3) 0.4040(4) 0.0458(2)
N3 N 0.4757(4) 0.6520(4) 0.2642(2)
C1 C 0.3704(4) 0.7788(6) 0.2171(3)
H1 H 0.3146 0.8217 0.2073
O1 O 0.4212(2) 0.0172(3) -0.08902(17)
O2 O 0.3458(2) 0.2095(4) -0.07700(19)
O3 O 0.3899(3) 0.0654(3) 0.08105(18)
O4 O 0.2725(3) 0.0027(5) 0.1392(2)
C2 C 0.3493(4) 0.0840(6) -0.0762(2)
C3 C 0.2649(4) 0.0045(6) -0.0591(3)
C4 C 0.2561(4) -0.1272(6) -0.0864(2)
H2 H 0.3012 -0.1605 -0.1139
C5 C 0.1817(4) -0.2058(6) -0.0728(3)
H3 H 0.1760 -0.2915 -0.0918
C6 C 0.1151(4) -0.1604(7) -0.0314(3)
H4 H 0.0653 -0.2153 -0.0216
C7 C 0.1231(4) -0.0327(7) -0.0047(3)
H5 H 0.0782 -0.0013 0.0234
C8 C 0.1967(4) 0.0497(5) -0.0189(3)
C9 C 0.2009(4) 0.1840(6) 0.0167(3)
C10 C 0.1429(4) 0.2899(7) -0.0039(3)
H6 H 0.1065 0.2818 -0.0427
C11 C 0.1400(5) 0.4084(8) 0.0345(5)
H7 H 0.1016 0.4792 0.0208
C12 C 0.1921(6) 0.4214(8) 0.0909(4)
H8 H 0.1889 0.5005 0.1159
C13 C 0.2502(5) 0.3178(7) 0.1117(3)
H9 H 0.2868 0.3274 0.1503
C14 C 0.2537(4) 0.1975(6) 0.0741(3)
C15 C 0.3105(4) 0.0789(6) 0.1008(3)
C16 C 0.5459(3) 0.2828(5) 0.0245(3)
H10 H 0.5063 0.2290 0.0486
C17 C 0.6316(4) 0.3574(6) -0.0516(3)
H11 H 0.6624 0.3632 -0.0914
C18 C 0.6354(4) 0.4515(6) -0.0024(3)
H12 H 0.6688 0.5321 -0.0018
C19 C 0.5660(4) 0.4703(5) 0.1100(2)
H13 H 0.5125 0.4302 0.1299
H14 H 0.5526 0.5654 0.1021
C20 C 0.6468(4) 0.4596(5) 0.1586(3)
C21 C 0.7282(4) 0.5213(5) 0.1435(3)
H15 H 0.7327 0.5679 0.1035
C22 C 0.8037(4) 0.5148(6) 0.1874(3)
H16 H 0.8586 0.5565 0.1767
C23 C 0.7976(4) 0.4470(6) 0.2466(3)
H17 H 0.8486 0.4402 0.2756
C24 C 0.7156(5) 0.3895(5) 0.2624(3)
H18 H 0.7112 0.3463 0.3033
C25 C 0.6381(4) 0.3934(5) 0.2194(3)
C26 C 0.5517(4) 0.3382(6) 0.2425(3)
C27 C 0.5198(4) 0.2080(6) 0.2228(3)
H19 H 0.5528 0.1583 0.1924
C28 C 0.4415(4) 0.1541(6) 0.2478(3)
H20 H 0.4222 0.0687 0.2335
C29 C 0.3913(4) 0.2210(7) 0.2925(3)
H21 H 0.3390 0.1815 0.3098
C30 C 0.4195(4) 0.3516(6) 0.3125(3)
H22 H 0.3853 0.4005 0.3426
C31 C 0.4983(4) 0.4069(6) 0.2874(3)
C32 C 0.5241(4) 0.5519(5) 0.3082(3)
H23 H 0.5075 0.5669 0.3539
H24 H 0.5901 0.5641 0.3056
C33 C 0.5122(4) 0.7239(6) 0.2152(3)
H25 H 0.5737 0.7197 0.2040
N4 N 0.4498(4) 0.8019(4) 0.1847(2)
C34 C 0.3842(5) 0.6840(6) 0.2658(3)
H26 H 0.3407 0.6488 0.2939
Zn1B Zn 0.46142(4) -0.10057(6) 0.09656(3)
Zn1B_2 Zn 0.46142(4) 0.89943(6) 0.09656(3)
O3B O 0.6101(3) -0.0654(3) -0.08105(18)
N4B N 0.5502(4) 0.1981(4) -0.1847(2)
loop_
_geom_bond_atom_site_label_1
_geom_bond_atom_site_label_2
_geom_bond_site_symmetry_1
_geom_bond_site_symmetry_2
Zn1 N1 1_555 1_555
N1 C16 1_555 1_555
N2 C16 1_555 1_555
N3 C32 1_555 1_555
C1 H1 1_555 1_555
O1 Zn1 1_555 1_555
O2 C2 1_555 1_555
O3 C15 1_555 1_555
O4 C15 1_555 1_555
C2 O1 1_555 1_555
C3 C2 1_555 1_555
C4 C3 1_555 1_555
H2 C4 1_555 1_555
C5 C4 1_555 1_555
H3 C5 1_555 1_555
C6 C5 1_555 1_555
H4 C6 1_555 1_555
C7 C6 1_555 1_555
H5 C7 1_555 1_555
C8 C3 1_555 1_555
C9 C8 1_555 1_555
C10 C9 1_555 1_555
H6 C10 1_555 1_555
C11 C10 1_555 1_555
H7 C11 1_555 1_555
C12 C11 1_555 1_555
H8 C12 1_555 1_555
C13 C12 1_555 1_555
H9 C13 1_555 1_555
C14 C9 1_555 1_555
C15 C14 1_555 1_555
C16 H10 1_555 1_555
C17 N1 1_555 1_555
H11 C17 1_555 1_555
C18 N2 1_555 1_555
H12 C18 1_555 1_555
C19 N2 1_555 1_555
H13 C19 1_555 1_555
H14 C19 1_555 1_555
C20 C19 1_555 1_555
C21 C20 1_555 1_555
H15 C21 1_555 1_555
C22 C21 1_555 1_555
H16 C22 1_555 1_555
C23 C22 1_555 1_555
H17 C23 1_555 1_555
C24 C23 1_555 1_555
H18 C24 1_555 1_555
C25 C20 1_555 1_555
C26 C25 1_555 1_555
C27 C26 1_555 1_555
H19 C27 1_555 1_555
C28 C27 1_555 1_555
H20 C28 1_555 1_555
C29 C28 1_555 1_555
H21 C29 1_555 1_555
C30 C29 1_555 1_555
H22 C30 1_555 1_555
C31 C26 1_555 1_555
C32 C31 1_555 1_555
H23 C32 1_555 1_555
H24 C32 1_555 1_555
C33 N3 1_555 1_555
H25 C33 1_555 1_555
N4 C1 1_555 1_555
C34 N3 1_555 1_555
H26 C34 1_555 1_555
Zn1B O3 1_555 1_555
Zn1B_2 N4 1_555 1_555
O3B Zn1 1_555 1_555
N4B Zn1 1_555 1_555
C1 C34 1_555 1_555
C7 C8 1_555 1_555
C13 C14 1_555 1_555
C17 C18 1_555 1_555
C24 C25 1_555 1_555
C30 C31 1_555 1_555
C33 N4 1_555 1_555

#END
