
#######################################################################
#
#                 Cambridge Crystallographic Data Centre
#                                CCDC 
#
#######################################################################
#
# If this CIF has been generated from an entry in the Cambridge 
# Structural Database, then it will include bibliographic, chemical, 
# crystal, experimental, refinement or atomic coordinate data resulting 
# from the CCDC's data processing and validation procedures.
#
#######################################################################

data_OXUROP
_symmetry_cell_setting           monoclinic
_symmetry_space_group_name_H-M   'C 2/c'
_symmetry_Int_Tables_number      15
_space_group_name_Hall           '-C 2yn'
loop_
_symmetry_equiv_pos_site_id
_symmetry_equiv_pos_as_xyz
1 x,y,z
2 -x,y,1/2-z
3 1/2+x,1/2+y,z
4 1/2-x,1/2+y,1/2-z
5 -x,-y,-z
6 x,-y,1/2+z
7 1/2-x,1/2-y,-z
8 1/2+x,1/2-y,1/2+z
_cell_length_a                   11.3116(2)
_cell_length_b                   17.8787(3)
_cell_length_c                   13.2592(3)
_cell_angle_alpha                90
_cell_angle_beta                 140.251(1)
_cell_angle_gamma                90
_cell_volume                     1714.62
loop_
_atom_site_label
_atom_site_type_symbol
_atom_site_fract_x
_atom_site_fract_y
_atom_site_fract_z
Pb1 Pb 1.0000 0.201127(7) 0.7500
O1 O 0.7351(3) 0.15908(16) 0.6979(3)
O2 O 0.6192(4) 0.23231(18) 0.5025(3)
N1 N 0.8920(3) 0.08462(13) 0.5955(3)
F1 F 0.4346(8) 0.1706(5) 0.6144(8)
F2 F 0.2795(7) 0.1951(3) 0.3784(7)
F3 F 0.4231(9) 0.2823(3) 0.5497(9)
C1 C 0.7915(4) 0.08765(16) 0.4447(3)
H1 H 0.7564 0.1344 0.3976
C2 C 0.9443(4) 0.01753(14) 0.6666(3)
C3 C 0.8969(4) -0.04817(16) 0.5847(4)
H2 H 0.9350 -0.0942 0.6348
C4 C 0.7930(4) -0.04482(17) 0.4286(4)
H3 H 0.7611 -0.0885 0.3738
C5 C 0.7368(4) 0.02463(17) 0.3546(3)
C6 C 0.6233(5) 0.0313(2) 0.1855(4)
C7 C 0.6109(4) 0.19896(15) 0.5803(4)
C8 C 0.4362(5) 0.2105(2) 0.5287(5)
Pb1F Pb 0.5000 0.298873(7) 0.2500
Pb1F_2 Pb 1.5000 0.298873(7) 1.2500
O1A O 1.2649(3) 0.15908(16) 0.8021(3)
O2A O 1.3808(4) 0.23231(18) 0.9975(3)
O2F O 0.8808(4) 0.26769(18) 0.4975(3)
O2G O 1.1192(4) 0.26769(18) 1.0025(3)
N1A N 1.1080(3) 0.08462(13) 0.9045(3)
F1A F 1.5654(8) 0.1706(5) 0.8856(8)
F2A F 1.7205(7) 0.1951(3) 1.1216(7)
F3A F 1.5769(9) 0.2823(3) 0.9503(9)
C1A C 1.2085(4) 0.08765(16) 1.0553(3)
H1A H 1.2436 0.1344 1.1024
C2A C 1.0557(4) 0.01753(14) 0.8334(3)
C3A C 1.1031(4) -0.04817(16) 0.9153(4)
H2A H 1.0650 -0.0942 0.8652
C4A C 1.2070(4) -0.04482(17) 1.0714(4)
H3A H 1.2389 -0.0885 1.1262
C5A C 1.2632(4) 0.02463(17) 1.1454(3)
C6A C 1.3767(5) 0.0313(2) 1.3145(4)
C7A C 1.3891(4) 0.19896(15) 0.9197(4)
C8A C 1.5638(5) 0.2105(2) 0.9713(5)
loop_
_geom_bond_atom_site_label_1
_geom_bond_atom_site_label_2
_geom_bond_site_symmetry_1
_geom_bond_site_symmetry_2
Pb1 O1 1_555 1_555
O1 C7 1_555 1_555
O2 Pb1 1_555 1_555
N1 Pb1 1_555 1_555
F1 C8 1_555 1_555
F2 C8 1_555 1_555
F3 C8 1_555 1_555
C1 N1 1_555 1_555
H1 C1 1_555 1_555
C2 N1 1_555 1_555
C3 C2 1_555 1_555
H2 C3 1_555 1_555
C4 C3 1_555 1_555
H3 C4 1_555 1_555
C5 C1 1_555 1_555
C6 C5 1_555 1_555
C7 O2 1_555 1_555
C8 C7 1_555 1_555
Pb1F O2 1_555 1_555
Pb1F_2 O2A 1_555 1_555
O1A Pb1 1_555 1_555
O2A Pb1 1_555 1_555
O2F Pb1 1_555 1_555
O2G Pb1 1_555 1_555
N1A Pb1 1_555 1_555
F1A C8A 1_555 1_555
F2A C8A 1_555 1_555
F3A C8A 1_555 1_555
C1A N1A 1_555 1_555
H1A C1A 1_555 1_555
C2A C2 1_555 1_555
C3A C2A 1_555 1_555
H2A C3A 1_555 1_555
C4A C3A 1_555 1_555
H3A C4A 1_555 1_555
C5A C1A 1_555 1_555
C6A C5A 1_555 1_555
C7A O1A 1_555 1_555
C8A C7A 1_555 1_555
C4 C5 1_555 1_555
Pb1F O2F 1_555 1_555
Pb1F_2 O2G 1_555 1_555
O2A C7A 1_555 1_555
N1A C2A 1_555 1_555
C4A C5A 1_555 1_555

#END
