
#######################################################################
#
#                 Cambridge Crystallographic Data Centre
#                                CCDC 
#
#######################################################################
#
# If this CIF has been generated from an entry in the Cambridge 
# Structural Database, then it will include bibliographic, chemical, 
# crystal, experimental, refinement or atomic coordinate data resulting 
# from the CCDC's data processing and validation procedures.
#
#######################################################################

data_OXUSOQ
_symmetry_cell_setting           orthorhombic
_symmetry_space_group_name_H-M   'P n a 21'
_symmetry_Int_Tables_number      33
_space_group_name_Hall           'P 2c -2n'
loop_
_symmetry_equiv_pos_site_id
_symmetry_equiv_pos_as_xyz
1 x,y,z
2 -x,-y,1/2+z
3 1/2+x,1/2-y,z
4 1/2-x,1/2+y,1/2+z
_cell_length_a                   22.883(3)
_cell_length_b                   9.4049(11)
_cell_length_c                   6.3918(8)
_cell_angle_alpha                90
_cell_angle_beta                 90
_cell_angle_gamma                90
_cell_volume                     1375.59
loop_
_atom_site_label
_atom_site_type_symbol
_atom_site_fract_x
_atom_site_fract_y
_atom_site_fract_z
Mo1 Mo 0.079729(9) 0.48620(3) -0.00357(14)
Zn1 Zn 0.063220(14) 0.68336(3) -0.5010(2)
O1 O 0.0773(3) 0.5930(13) -0.2300(12)
N1 N 0.23852(11) 0.8604(3) -0.5089(16)
H1 H 0.2759 0.8671 -0.5178
N2 N 0.15222(11) 0.7661(3) -0.4934(14)
O2 O 0.0721(3) 0.5908(11) 0.2212(9)
C1 C 0.20931(14) 0.7377(3) -0.5107(17)
N3 N 0.20222(13) 0.9729(3) -0.4915(19)
O3 O 0.02437(10) 0.3590(3) 0.003(2)
C2 C 0.23732(14) 0.5970(4) -0.5005(16)
C3 C 0.09442(16) 0.9857(3) -0.506(2)
N4 N 0.04737(11) 0.9019(3) -0.5072(13)
O4 O 0.14622(10) 0.3999(3) -0.0065(19)
C4 C 0.29790(17) 0.5833(5) -0.489(2)
H2 H 0.3197 0.6652 -0.4643
C5 C 0.15050(13) 0.9109(3) -0.5031(16)
C6 C -0.00588(15) 0.9626(4) -0.499(2)
H3 H -0.0386 0.9042 -0.4932
C7 C 0.08988(17) 1.1332(4) -0.499(2)
H4 H 0.1232 1.1897 -0.4959
N5 N 0.32683(18) 0.4609(5) -0.510(2)
C8 C 0.20508(17) 0.4735(4) -0.498(2)
H5 H 0.1645 0.4772 -0.4906
C9 C 0.2334(2) 0.3448(4) -0.505(3)
H6 H 0.2127 0.2601 -0.5176
C10 C 0.2945(3) 0.3459(6) -0.494(3)
H7 H 0.3135 0.2595 -0.4742
C11 C -0.01379(15) 1.1081(4) -0.5004(18)
H8 H -0.0511 1.1470 -0.5044
C12 C 0.03483(18) 1.1945(4) -0.496(2)
H9 H 0.0307 1.2928 -0.4903
Zn1_2 Zn 0.063220(14) 0.68336(3) 0.4990(2)
Zn1A Zn -0.063220(14) 0.31664(3) -0.0010(2)
O2_2 O 0.0721(3) 0.5908(11) -0.7788(9)
O3A O -0.02437(10) 0.6410(3) -0.497(2)
loop_
_geom_bond_atom_site_label_1
_geom_bond_atom_site_label_2
_geom_bond_site_symmetry_1
_geom_bond_site_symmetry_2
Mo1 O1 1_555 1_555
Zn1 O1 1_555 1_555
N1 H1 1_555 1_555
N2 Zn1 1_555 1_555
O2 Mo1 1_555 1_555
C1 N1 1_555 1_555
N3 N1 1_555 1_555
O3 Mo1 1_555 1_555
C2 C1 1_555 1_555
C3 N4 1_555 1_555
N4 Zn1 1_555 1_555
O4 Mo1 1_555 1_555
C4 C2 1_555 1_555
H2 C4 1_555 1_555
C5 N2 1_555 1_555
C6 N4 1_555 1_555
H3 C6 1_555 1_555
C7 C3 1_555 1_555
H4 C7 1_555 1_555
N5 C4 1_555 1_555
C8 C2 1_555 1_555
H5 C8 1_555 1_555
C9 C8 1_555 1_555
H6 C9 1_555 1_555
C10 N5 1_555 1_555
H7 C10 1_555 1_555
C11 C6 1_555 1_555
H8 C11 1_555 1_555
C12 C7 1_555 1_555
H9 C12 1_555 1_555
Zn1_2 O2 1_555 1_555
Zn1A O3 1_555 1_555
O2_2 Zn1 1_555 1_555
O3A Zn1 1_555 1_555
N2 C1 1_555 1_555
N3 C5 1_555 1_555
C3 C5 1_555 1_555
C9 C10 1_555 1_555
C11 C12 1_555 1_555

#END
