
#######################################################################
#
#                 Cambridge Crystallographic Data Centre
#                                CCDC 
#
#######################################################################
#
# If this CIF has been generated from an entry in the Cambridge 
# Structural Database, then it will include bibliographic, chemical, 
# crystal, experimental, refinement or atomic coordinate data resulting 
# from the CCDC's data processing and validation procedures.
#
#######################################################################

data_OXUSIK
_symmetry_cell_setting           monoclinic
_symmetry_space_group_name_H-M   'P 21/c'
_symmetry_Int_Tables_number      14
_space_group_name_Hall           '-P 2ybc'
loop_
_symmetry_equiv_pos_site_id
_symmetry_equiv_pos_as_xyz
1 x,y,z
2 -x,1/2+y,1/2-z
3 -x,-y,-z
4 x,1/2-y,1/2+z
_cell_length_a                   16.8858(14)
_cell_length_b                   8.9194(8)
_cell_length_c                   14.9508(13)
_cell_angle_alpha                90
_cell_angle_beta                 102.026(1)
_cell_angle_gamma                90
_cell_volume                     2202.34
loop_
_atom_site_label
_atom_site_type_symbol
_atom_site_fract_x
_atom_site_fract_y
_atom_site_fract_z
C1 C -0.0763(4) -0.2720(7) 0.1259(4)
C2 C -0.1536(4) -0.4406(7) 0.1527(4)
C3 C -0.0047(4) -0.1922(7) 0.1102(5)
C4 C 0.0562(4) -0.2621(9) 0.0766(5)
H1 H 0.0534 -0.3642 0.0636
C5 C 0.1210(5) -0.1787(10) 0.0628(6)
H2 H 0.1629 -0.2236 0.0409
C6 C 0.1229(5) -0.0279(10) 0.0819(6)
H3 H 0.1664 0.0279 0.0708
C7 C 0.0044(4) -0.0398(8) 0.1283(5)
H4 H -0.0360 0.0082 0.1513
C8 C -0.1928(4) -0.5798(7) 0.1728(4)
C9 C -0.1555(4) -0.7183(8) 0.1799(5)
H5 H -0.1022 -0.7280 0.1732
C10 C -0.1990(5) -0.8420(8) 0.1972(6)
H6 H -0.1756 -0.9368 0.2019
C11 C -0.2774(5) -0.8232(8) 0.2075(6)
H7 H -0.3075 -0.9051 0.2196
C12 C -0.3108(4) -0.6818(8) 0.1995(5)
H8 H -0.3641 -0.6699 0.2057
C13 C -0.3224(4) -0.0890(8) 0.0086(5)
H9 H -0.2679 -0.0717 0.0331
C14 C -0.3593(4) -0.0118(8) -0.0683(5)
H10 H -0.3302 0.0576 -0.0950
C15 C -0.4392(4) -0.0380(8) -0.1055(5)
H11 H -0.4648 0.0128 -0.1579
C16 C -0.4812(4) -0.1394(7) -0.0647(4)
H12 H -0.5355 -0.1589 -0.0893
C17 C -0.4419(4) -0.2125(7) 0.0133(4)
C18 C -0.4800(4) -0.3224(7) 0.0635(4)
C19 C -0.5570(4) -0.4656(7) 0.1139(4)
C20 C -0.6300(4) -0.5429(7) 0.1281(4)
C21 C -0.7054(4) -0.5146(8) 0.0719(4)
H13 H -0.7099 -0.4491 0.0226
C22 C -0.7730(4) -0.5843(9) 0.0899(4)
H14 H -0.8234 -0.5681 0.0521
C23 C -0.7655(4) -0.6785(7) 0.1641(5)
H15 H -0.8117 -0.7225 0.1771
C24 C -0.6276(4) -0.6431(7) 0.1993(4)
H16 H -0.5774 -0.6662 0.2358
N1 N -0.1958(3) -0.3131(6) 0.1466(4)
N2 N -0.1455(3) -0.2018(6) 0.1292(4)
N3 N -0.0784(3) -0.4227(6) 0.1391(4)
N4 N -0.2691(3) -0.5613(6) 0.1832(4)
N5 N 0.0663(4) 0.0422(7) 0.1151(5)
N6 N -0.4342(3) -0.3929(6) 0.1346(3)
N7 N -0.4843(3) -0.4887(6) 0.1686(3)
N8 N -0.5576(3) -0.3629(6) 0.0471(4)
N9 N -0.3626(3) -0.1886(6) 0.0495(4)
N10 N -0.6932(3) -0.7085(6) 0.2185(3)
Zn1 Zn -0.31334(4) -0.33373(8) 0.16375(5)
N10A N -0.3068(3) -0.2085(6) 0.2815(3)
Zn1A Zn -0.68666(4) -0.83373(8) 0.33625(5)
O1 O -0.9469(4) -0.6273(9) 0.1404(7)
H17 H -0.987(10) -0.57(2) 0.16(12)
H18 H -0.96(3) -0.69(9) 0.10(10)
loop_
_geom_bond_atom_site_label_1
_geom_bond_atom_site_label_2
_geom_bond_site_symmetry_1
_geom_bond_site_symmetry_2
C1 C3 1_555 1_555
C2 C8 1_555 1_555
C3 C4 1_555 1_555
C4 H1 1_555 1_555
C5 C4 1_555 1_555
H2 C5 1_555 1_555
C6 C5 1_555 1_555
H3 C6 1_555 1_555
C7 C3 1_555 1_555
H4 C7 1_555 1_555
C8 C9 1_555 1_555
C9 H5 1_555 1_555
C10 C9 1_555 1_555
H6 C10 1_555 1_555
C11 C10 1_555 1_555
H7 C11 1_555 1_555
C12 C11 1_555 1_555
H8 C12 1_555 1_555
C13 H9 1_555 1_555
C14 C13 1_555 1_555
H10 C14 1_555 1_555
C15 C14 1_555 1_555
H11 C15 1_555 1_555
C16 C15 1_555 1_555
H12 C16 1_555 1_555
C17 C16 1_555 1_555
C18 C17 1_555 1_555
C19 C20 1_555 1_555
C20 C21 1_555 1_555
C21 H13 1_555 1_555
C22 C21 1_555 1_555
H14 C22 1_555 1_555
C23 C22 1_555 1_555
H15 C23 1_555 1_555
C24 C20 1_555 1_555
H16 C24 1_555 1_555
N1 C2 1_555 1_555
N2 C1 1_555 1_555
N3 C1 1_555 1_555
N4 C8 1_555 1_555
N5 C6 1_555 1_555
N6 C18 1_555 1_555
N7 C19 1_555 1_555
N8 C18 1_555 1_555
N9 C13 1_555 1_555
N10 C23 1_555 1_555
Zn1 N1 1_555 1_555
O1 H17 1_555 1_555
H18 O1 1_555 1_555
N10A Zn1 1_555 1_555
Zn1A N10 1_555 1_555
C2 N3 1_555 1_555
C7 N5 1_555 1_555
C12 N4 1_555 1_555
C17 N9 1_555 1_555
C19 N8 1_555 1_555
C24 N10 1_555 1_555
N1 N2 1_555 1_555
N4 Zn1 1_555 1_555
N6 N7 1_555 1_555
N6 Zn1 1_555 1_555
N9 Zn1 1_555 1_555

#END
