
#######################################################################
#
#                 Cambridge Crystallographic Data Centre
#                                CCDC 
#
#######################################################################
#
# If this CIF has been generated from an entry in the Cambridge 
# Structural Database, then it will include bibliographic, chemical, 
# crystal, experimental, refinement or atomic coordinate data resulting 
# from the CCDC's data processing and validation procedures.
#
#######################################################################

data_OXUVIN01
_symmetry_cell_setting           monoclinic
_symmetry_space_group_name_H-M   'P 21/c'
_symmetry_Int_Tables_number      14
_space_group_name_Hall           '-P 2ybc'
loop_
_symmetry_equiv_pos_site_id
_symmetry_equiv_pos_as_xyz
1 x,y,z
2 -x,1/2+y,1/2-z
3 -x,-y,-z
4 x,1/2-y,1/2+z
_cell_length_a                   10.492(5)
_cell_length_b                   12.924(5)
_cell_length_c                   16.074(5)
_cell_angle_alpha                90
_cell_angle_beta                 95.972(5)
_cell_angle_gamma                90
_cell_volume                     2167.78
loop_
_atom_site_label
_atom_site_type_symbol
_atom_site_fract_x
_atom_site_fract_y
_atom_site_fract_z
Ni1 Ni 0.146330(17) 0.160410(15) -0.458680(12)
O1 O 0.30422(10) 0.06322(9) -0.41997(7)
O2 O 0.10002(11) 0.06036(9) -0.55718(7)
H1 H 0.1292 0.0033 -0.5499
H2 H 0.0267 0.0522 -0.5736
O3 O 0.11901(10) 0.03377(9) -0.37231(7)
O4 O -0.01877(10) 0.23877(9) -0.48074(8)
C1 C -0.44016(14) 0.36487(12) -0.56433(10)
N1 N -0.76805(12) 0.25815(10) -0.54119(8)
C2 C 0.62166(16) -0.17187(13) -0.23620(10)
N2 N 0.79765(13) -0.24314(11) -0.14451(9)
C3 C -0.22573(14) 0.30497(12) -0.51689(10)
O5 O -0.18360(12) 0.13254(10) -0.47254(11)
C4 C -0.65761(16) 0.39952(14) -0.64233(11)
H3 H -0.6216 0.4474 -0.6762
C5 C -0.26060(17) 0.48263(14) -0.55689(13)
H4 H -0.2285 0.5487 -0.5642
C6 C 0.23569(15) 0.01073(12) -0.37536(10)
C7 C 0.67269(16) -0.23657(13) -0.17205(10)
H5 H 0.6161 -0.2783 -0.1464
C8 C -0.83981(15) 0.31132(14) -0.60096(11)
H6 H -0.9279 0.3002 -0.6077
C9 C 0.48003(16) -0.16762(13) -0.25858(10)
C10 C -0.35628(14) 0.28625(12) -0.53517(10)
H7 H -0.3881 0.2201 -0.5278
C11 C 0.83807(18) -0.11891(17) -0.24801(12)
H8 H 0.8970 -0.0796 -0.2737
C12 C 0.29233(15) -0.07837(12) -0.32453(10)
C13 C 0.42465(15) -0.08646(13) -0.30720(10)
H9 H 0.4771 -0.0371 -0.3283
C14 C -0.58028(14) 0.34558(12) -0.58115(10)
C15 C 0.21357(18) -0.15194(16) -0.29383(13)
H10 H 0.1250 -0.1458 -0.3040
C16 C -0.17839(16) 0.40382(13) -0.52778(12)
H11 H -0.0913 0.4171 -0.5155
C17 C -0.13663(14) 0.21752(12) -0.48729(10)
C18 C 0.87900(16) -0.18397(14) -0.18248(11)
H12 H 0.9660 -0.1868 -0.1641
C19 C 0.39870(19) -0.24239(17) -0.23064(14)
H13 H 0.4335 -0.2984 -0.1999
C20 C -0.78819(16) 0.38135(15) -0.65242(12)
H14 H -0.8405 0.4161 -0.6936
C21 C -0.64104(14) 0.27448(12) -0.53404(10)
H15 H -0.5903 0.2355 -0.4948
C22 C 0.70837(18) -0.11264(16) -0.27517(12)
H18 H 0.6798 -0.0690 -0.3192
C23 C -0.39059(16) 0.46352(13) -0.57518(11)
H19 H -0.4451 0.5169 -0.5948
C24 C 0.2668(2) -0.23454(19) -0.24798(16)
H20 H 0.2139 -0.2850 -0.2287
N1_2 N 0.23195(12) 0.25815(10) -0.54119(8)
N2A N 0.20235(13) 0.25686(11) -0.35549(9)
Ni1_2 Ni -0.853670(17) 0.160410(15) -0.458680(12)
Ni1A Ni 0.853670(17) -0.339590(15) -0.041320(12)
O6 O 0.5871(2) 0.0610(2) -0.42549(17)
H16 H 0.6271 0.1107 -0.4456
H17 H 0.5500 0.0269 -0.4663
loop_
_geom_bond_atom_site_label_1
_geom_bond_atom_site_label_2
_geom_bond_site_symmetry_1
_geom_bond_site_symmetry_2
Ni1 O1 1_555 1_555
O1 C6 1_555 1_555
O2 Ni1 1_555 1_555
H1 O2 1_555 1_555
H2 O2 1_555 1_555
O3 Ni1 1_555 1_555
O4 Ni1 1_555 1_555
C1 C10 1_555 1_555
N1 C8 1_555 1_555
C2 C7 1_555 1_555
N2 C7 1_555 1_555
C3 C10 1_555 1_555
O5 C17 1_555 1_555
C4 H3 1_555 1_555
C5 H4 1_555 1_555
C6 O3 1_555 1_555
C7 H5 1_555 1_555
C8 H6 1_555 1_555
C9 C2 1_555 1_555
C10 H7 1_555 1_555
C11 H8 1_555 1_555
C12 C6 1_555 1_555
C13 C9 1_555 1_555
H9 C13 1_555 1_555
C14 C1 1_555 1_555
C15 C12 1_555 1_555
H10 C15 1_555 1_555
C16 C3 1_555 1_555
H11 C16 1_555 1_555
C17 O4 1_555 1_555
C18 N2 1_555 1_555
H12 C18 1_555 1_555
C19 C9 1_555 1_555
H13 C19 1_555 1_555
C20 C4 1_555 1_555
H14 C20 1_555 1_555
C21 N1 1_555 1_555
H15 C21 1_555 1_555
O6 H16 1_555 1_555
H17 O6 1_555 1_555
C22 C2 1_555 1_555
H18 C22 1_555 1_555
C23 C1 1_555 1_555
H19 C23 1_555 1_555
C24 C15 1_555 1_555
H20 C24 1_555 1_555
N1_2 Ni1 1_555 1_555
N2A Ni1 1_555 1_555
Ni1_2 N1 1_555 1_555
Ni1A N2 1_555 1_555
C3 C17 1_555 1_555
C4 C14 1_555 1_555
C5 C16 1_555 1_555
C5 C23 1_555 1_555
C8 C20 1_555 1_555
C11 C22 1_555 1_555
C11 C18 1_555 1_555
C12 C13 1_555 1_555
C14 C21 1_555 1_555
C19 C24 1_555 1_555

#END
