
#######################################################################
#
#                 Cambridge Crystallographic Data Centre
#                                CCDC 
#
#######################################################################
#
# If this CIF has been generated from an entry in the Cambridge 
# Structural Database, then it will include bibliographic, chemical, 
# crystal, experimental, refinement or atomic coordinate data resulting 
# from the CCDC's data processing and validation procedures.
#
#######################################################################

data_OYEBIE
_symmetry_cell_setting           monoclinic
_symmetry_space_group_name_H-M   'C 2/c'
_symmetry_Int_Tables_number      15
_space_group_name_Hall           '-C 2yn'
loop_
_symmetry_equiv_pos_site_id
_symmetry_equiv_pos_as_xyz
1 x,y,z
2 -x,y,1/2-z
3 1/2+x,1/2+y,z
4 1/2-x,1/2+y,1/2-z
5 -x,-y,-z
6 x,-y,1/2+z
7 1/2-x,1/2-y,-z
8 1/2+x,1/2-y,1/2+z
_cell_length_a                   20.6609(11)
_cell_length_b                   9.4792(5)
_cell_length_c                   22.1265(12)
_cell_angle_alpha                90
_cell_angle_beta                 103.703(1)
_cell_angle_gamma                90
_cell_volume                     4210.1
loop_
_atom_site_label
_atom_site_type_symbol
_atom_site_fract_x
_atom_site_fract_y
_atom_site_fract_z
Zn1 Zn 0.166748(11) 0.24569(2) 0.379895(10)
O1 O 0.21501(8) 0.07456(15) 0.41350(7)
O2 O 0.11890(8) -0.03689(17) 0.40459(8)
O3 O 0.11917(8) 0.30154(17) 0.43997(7)
O4 O 0.08418(8) 0.47482(19) 0.37671(7)
N1 N 0.24517(8) 0.38156(18) 0.39095(8)
N2 N 0.38076(9) 0.71053(19) 0.20562(8)
C1 C 0.30049(11) 0.3507(2) 0.43262(10)
H1 H 0.3025 0.2659 0.4541
C2 C 0.35501(11) 0.4373(2) 0.44579(10)
H2 H 0.3926 0.4101 0.4758
C3 C 0.35521(11) 0.5632(2) 0.41563(9)
C4 C 0.29759(12) 0.5966(2) 0.37347(11)
H3 H 0.2942 0.6817 0.3520
C5 C 0.24458(12) 0.5050(2) 0.36253(11)
H4 H 0.2060 0.5310 0.3335
C6 C 0.41538(13) 0.6577(3) 0.42830(11)
H5 H 0.4374 0.6524 0.4721
H6 H 0.4010 0.7545 0.4192
C7 C 0.46448(11) 0.6194(3) 0.39042(10)
H7 H 0.5054 0.6719 0.4054
H8 H 0.4748 0.5196 0.3952
C8 C 0.38458(18) 0.5797(3) 0.22676(12)
H9 H 0.3670 0.5075 0.1993
C9 C 0.41234(18) 0.5470(3) 0.28537(12)
H10 H 0.4145 0.4537 0.2986
C10 C 0.43727(10) 0.6510(2) 0.32543(10)
C11 C 0.43376(15) 0.7857(3) 0.30301(12)
H11 H 0.4513 0.8597 0.3295
C12 C 0.40570(14) 0.8117(3) 0.24396(11)
H12 H 0.4037 0.9041 0.2295
C13 C 0.18334(11) -0.2651(2) 0.47344(10)
H13 H 0.1381 -0.2748 0.4553
C14 C 0.21648(10) -0.1438(2) 0.46308(9)
C15 C 0.28344(11) -0.1296(2) 0.49002(9)
H14 H 0.3060 -0.0484 0.4833
C16 C 0.17936(11) -0.0289(2) 0.42404(9)
C17 C -0.01158(12) 0.5491(3) 0.44230(11)
H15 H -0.0193 0.5833 0.4018
C18 C 0.04133(10) 0.4595(2) 0.46353(10)
C19 C 0.05282(12) 0.4110(3) 0.52131(11)
H16 H 0.0885 0.3507 0.5366
C20 C 0.08462(10) 0.4112(2) 0.42363(10)
Zn1F Zn 0.333252(11) -0.74569(2) 0.620105(10)
Zn1C Zn 0.333252(11) 0.74569(2) 0.120105(10)
Zn1D Zn -0.166748(11) 0.75431(2) 0.620105(10)
Zn1G Zn -0.333252(11) 0.25431(2) 0.879895(10)
O1F O 0.28499(8) -0.57456(15) 0.58650(7)
O1D O -0.21501(8) 0.92544(15) 0.58650(7)
O2F O 0.38110(8) -0.46311(17) 0.59541(8)
O3D O -0.11917(8) 0.69846(17) 0.56003(7)
O4D O -0.08418(8) 0.52518(19) 0.62329(7)
N1D N -0.24517(8) 0.61844(18) 0.60905(8)
N2C N 0.11924(9) 0.21053(19) 0.29438(8)
N2G N -0.11924(9) 0.78947(19) 0.70562(8)
N2D N -0.38076(9) 0.28947(19) 0.79438(8)
C1D C -0.30049(11) 0.6493(2) 0.56738(10)
H1D H -0.3025 0.7341 0.5459
C2D C -0.35501(11) 0.5627(2) 0.55421(10)
H2D H -0.3926 0.5899 0.5242
C3D C -0.35521(11) 0.4368(2) 0.58437(9)
C4D C -0.29759(12) 0.4034(2) 0.62653(11)
H3D H -0.2942 0.3183 0.6480
C5D C -0.24458(12) 0.4950(2) 0.63747(11)
H4D H -0.2060 0.4690 0.6665
C6D C -0.41538(13) 0.3423(3) 0.57170(11)
H5D H -0.4374 0.3476 0.5279
H6D H -0.4010 0.2455 0.5808
C7D C -0.46448(11) 0.3806(3) 0.60958(10)
H7D H -0.5054 0.3281 0.5946
H8D H -0.4748 0.4804 0.6048
C8D C -0.38458(18) 0.4203(3) 0.77324(12)
H9D H -0.3670 0.4925 0.8007
C9D C -0.41234(18) 0.4530(3) 0.71463(12)
H10D H -0.4145 0.5463 0.7014
C10D C -0.43727(10) 0.3490(2) 0.67457(10)
C11D C -0.43376(15) 0.2143(3) 0.69699(12)
H11D H -0.4513 0.1403 0.6705
C12D C -0.40570(14) 0.1883(3) 0.75604(11)
H12D H -0.4037 0.0959 0.7705
C13F C 0.31666(11) -0.2349(2) 0.52656(10)
H13F H 0.3619 -0.2252 0.5447
C14F C 0.28352(10) -0.3562(2) 0.53692(9)
C15F C 0.21656(11) -0.3704(2) 0.50998(9)
H14F H 0.1940 -0.4516 0.5167
C16F C 0.32064(11) -0.4711(2) 0.57596(9)
C17D C 0.01158(12) 0.4509(3) 0.55770(11)
H15D H 0.0193 0.4167 0.5982
C18D C -0.04133(10) 0.5405(2) 0.53647(10)
C19D C -0.05282(12) 0.5890(3) 0.47869(11)
H16D H -0.0885 0.6493 0.4634
C20D C -0.08462(10) 0.5888(2) 0.57637(10)
O5 O 0.2074(4) 0.7313(7) 0.2365(3)
H17 H 0.1683 0.7252 0.2385
H18 H 0.2243 0.8024 0.2539
O6 O 0.0803(2) 0.6837(4) 0.2256(2)
H19 H 0.0479 0.7086 0.2003
H20 H 0.0749 0.6974 0.2597
O7 O 0.0528(2) 0.7419(3) 0.33555(15)
H21 H 0.0743 0.8066 0.3539
H22 H 0.0668 0.6646 0.3481
O8 O 0.2177(3) 0.4683(6) 0.1815(3)
H23 H 0.2229 0.5378 0.2032
H24 H 0.1922 0.4869 0.1492
loop_
_geom_bond_atom_site_label_1
_geom_bond_atom_site_label_2
_geom_bond_site_symmetry_1
_geom_bond_site_symmetry_2
Zn1 O1 1_555 1_555
O1 C16 1_555 1_555
O2 C16 1_555 1_555
O3 Zn1 1_555 1_555
O4 C20 1_555 1_555
N1 Zn1 1_555 1_555
N2 C8 1_555 1_555
C1 N1 1_555 1_555
H1 C1 1_555 1_555
C2 C1 1_555 1_555
H2 C2 1_555 1_555
C3 C2 1_555 1_555
C4 C3 1_555 1_555
H3 C4 1_555 1_555
C5 N1 1_555 1_555
H4 C5 1_555 1_555
C6 C3 1_555 1_555
H5 C6 1_555 1_555
H6 C6 1_555 1_555
C7 C6 1_555 1_555
H7 C7 1_555 1_555
H8 C7 1_555 1_555
C8 H9 1_555 1_555
C9 C8 1_555 1_555
H10 C9 1_555 1_555
C10 C7 1_555 1_555
C11 C10 1_555 1_555
H11 C11 1_555 1_555
C12 N2 1_555 1_555
H12 C12 1_555 1_555
C13 H13 1_555 1_555
C14 C13 1_555 1_555
C15 C14 1_555 1_555
H14 C15 1_555 1_555
C16 C14 1_555 1_555
C17 H15 1_555 1_555
C18 C17 1_555 1_555
C19 C18 1_555 1_555
H16 C19 1_555 1_555
C20 O3 1_555 1_555
O5 H17 1_555 1_555
H18 O5 1_555 1_555
O6 H19 1_555 1_555
H20 O6 1_555 1_555
O7 H21 1_555 1_555
H22 O7 1_555 1_555
O8 H23 1_555 1_555
H24 O8 1_555 1_555
Zn1F O1F 1_555 1_555
Zn1C N2 1_555 1_555
Zn1D O1D 1_555 1_555
Zn1G N2D 1_555 1_555
O1F C16F 1_555 1_555
O2F C16F 1_555 1_555
O3D Zn1D 1_555 1_555
O4D C20D 1_555 1_555
N1D Zn1D 1_555 1_555
N2C Zn1 1_555 1_555
N2G Zn1D 1_555 1_555
N2D C8D 1_555 1_555
C1D N1D 1_555 1_555
H1D C1D 1_555 1_555
C2D C1D 1_555 1_555
H2D C2D 1_555 1_555
C3D C2D 1_555 1_555
C4D C3D 1_555 1_555
H3D C4D 1_555 1_555
C5D N1D 1_555 1_555
H4D C5D 1_555 1_555
C6D C3D 1_555 1_555
H5D C6D 1_555 1_555
H6D C6D 1_555 1_555
C7D C6D 1_555 1_555
H7D C7D 1_555 1_555
H8D C7D 1_555 1_555
C8D H9D 1_555 1_555
C9D C8D 1_555 1_555
H10D C9D 1_555 1_555
C10D C7D 1_555 1_555
C11D C10D 1_555 1_555
H11D C11D 1_555 1_555
C12D N2D 1_555 1_555
H12D C12D 1_555 1_555
C13F C15 1_555 1_555
H13F C13F 1_555 1_555
C14F C13F 1_555 1_555
C15F C13 1_555 1_555
H14F C15F 1_555 1_555
C16F C14F 1_555 1_555
C17D C19 1_555 1_555
H15D C17D 1_555 1_555
C18D C17D 1_555 1_555
C19D C17 1_555 1_555
H16D C19D 1_555 1_555
C20D O3D 1_555 1_555
C4 C5 1_555 1_555
C9 C10 1_555 1_555
C11 C12 1_555 1_555
C18 C20 1_555 1_555
C4D C5D 1_555 1_555
C9D C10D 1_555 1_555
C11D C12D 1_555 1_555
C14F C15F 1_555 1_555
C18D C19D 1_555 1_555
C18D C20D 1_555 1_555

#END
