
#######################################################################
#
#                 Cambridge Crystallographic Data Centre
#                                CCDC 
#
#######################################################################
#
# If this CIF has been generated from an entry in the Cambridge 
# Structural Database, then it will include bibliographic, chemical, 
# crystal, experimental, refinement or atomic coordinate data resulting 
# from the CCDC's data processing and validation procedures.
#
#######################################################################

data_OYEGOP
_symmetry_cell_setting           monoclinic
_symmetry_space_group_name_H-M   'P 21'
_symmetry_Int_Tables_number      4
_space_group_name_Hall           'P 2yb'
loop_
_symmetry_equiv_pos_site_id
_symmetry_equiv_pos_as_xyz
1 x,y,z
2 -x,1/2+y,-z
_cell_length_a                   11.0195(2)
_cell_length_b                   8.8470(2)
_cell_length_c                   20.0191(4)
_cell_angle_alpha                90
_cell_angle_beta                 102.902(2)
_cell_angle_gamma                90
_cell_volume                     1902.38
loop_
_atom_site_label
_atom_site_type_symbol
_atom_site_fract_x
_atom_site_fract_y
_atom_site_fract_z
Fe1 Fe 0.75214(5) 0.32014(8) 0.24634(3)
N1 N 0.6570(2) 0.5027(3) 0.20043(13)
N2 N 0.8060(2) 0.2710(3) 0.15624(14)
N3 N 0.8677(3) 0.1556(4) 0.29572(14)
N4 N 0.7143(2) 0.3834(3) 0.33862(14)
O1 O 0.3878(2) 0.6750(3) -0.21875(11)
O2 O 0.5741(2) 0.7695(3) -0.22128(12)
O3 O 1.1277(2) -0.6287(3) 0.15770(14)
O4 O 1.3024(2) -0.4957(3) 0.16258(16)
H1 H 1.3368 -0.5768 0.1785
O5 O 0.8945(2) -0.1149(3) 0.70990(13)
H2 H 0.9192 -0.1359 0.7517
O6 O 1.0881(2) -0.0224(3) 0.72403(11)
O7 O 0.2905(3) 1.1471(3) 0.41923(15)
O8 O 0.3814(3) 1.2818(3) 0.35047(14)
H3 H 0.3961 1.2653 0.3117
C1 C 0.6026(3) 0.6149(4) 0.23183(17)
C2 C 0.5489(3) 0.7261(4) 0.18145(17)
H4 H 0.5062 0.8152 0.1894
C3 C 0.5703(3) 0.6811(4) 0.12115(17)
H5 H 0.5449 0.7326 0.0787
C4 C 0.6385(3) 0.5411(4) 0.13200(17)
C5 C 0.6819(3) 0.4625(4) 0.08127(16)
C6 C 0.7596(3) 0.3360(4) 0.09297(16)
C7 C 0.8017(3) 0.2502(4) 0.04106(18)
H6 H 0.7839 0.2715 -0.0067
C8 C 0.8712(3) 0.1339(5) 0.07294(18)
H7 H 0.9112 0.0583 0.0519
C9 C 0.8731(3) 0.1467(4) 0.14462(17)
C10 C 0.9295(3) 0.0421(4) 0.19532(17)
C11 C 0.9275(3) 0.0489(4) 0.26438(18)
C12 C 0.9880(3) -0.0587(4) 0.31554(18)
H8 H 1.0349 -0.1445 0.3079
C13 C 0.9656(3) -0.0145(4) 0.37595(18)
H9 H 0.9952 -0.0625 0.4189
C14 C 0.8890(3) 0.1186(4) 0.36381(17)
C15 C 0.8392(3) 0.1926(4) 0.41331(17)
C16 C 0.7593(3) 0.3187(5) 0.40145(15)
C17 C 0.7176(3) 0.4023(4) 0.45345(17)
H10 H 0.7342 0.3792 0.5010
C18 C 0.6505(3) 0.5197(4) 0.42213(17)
H11 H 0.6115 0.5954 0.4437
C19 C 0.6482(3) 0.5100(4) 0.34998(16)
C20 C 0.5968(3) 0.6174(4) 0.30125(18)
C21 C 0.6387(3) 0.5181(4) 0.01007(16)
C22 C 0.5119(3) 0.5136(4) -0.02098(16)
H12 H 0.4547 0.4718 0.0031
C23 C 0.4691(3) 0.5696(4) -0.08643(17)
H13 H 0.3828 0.5649 -0.1072
C24 C 0.5511(3) 0.6326(4) -0.12207(17)
C25 C 0.6785(3) 0.6375(4) -0.09224(17)
H14 H 0.7352 0.6793 -0.1167
C26 C 0.7214(3) 0.5810(4) -0.02664(18)
H15 H 0.8079 0.5847 -0.0062
C27 C 0.5026(3) 0.6969(4) -0.19205(17)
C28 C 0.9946(3) -0.0921(4) 0.17399(18)
C29 C 0.9281(3) -0.2249(5) 0.1562(2)
H16 H 0.8401 -0.2239 0.1499
C30 C 0.9879(3) -0.3588(5) 0.14753(19)
H17 H 0.9418 -0.4497 0.1369
C31 C 1.1168(3) -0.3585(5) 0.15463(18)
C32 C 1.1824(3) -0.2245(4) 0.1689(2)
H18 H 1.2697 -0.2237 0.1720
C33 C 1.1217(3) -0.0910(4) 0.1787(2)
H19 H 1.1674 0.0004 0.1886
C34 C 1.1814(3) -0.5068(5) 0.15644(18)
C35 C 0.8758(3) 0.1334(4) 0.48526(17)
C36 C 0.7883(3) 0.0606(4) 0.51454(18)
H20 H 0.7047 0.0511 0.4892
C37 C 0.8218(3) 0.0022(5) 0.57976(17)
H21 H 0.7621 -0.0505 0.5986
C38 C 0.9422(3) 0.0199(4) 0.61822(17)
C39 C 1.0304(3) 0.0947(4) 0.58946(18)
H22 H 1.1132 0.1077 0.6154
C40 C 0.9965(3) 0.1495(4) 0.52287(16)
H23 H 1.0567 0.1985 0.5031
C41 C 0.9822(3) -0.0407(4) 0.68876(17)
C42 C 0.5347(3) 0.7534(4) 0.32348(17)
C43 C 0.4195(3) 0.7416(4) 0.34090(19)
H24 H 0.3803 0.6459 0.3406
C44 C 0.3620(3) 0.8708(5) 0.3588(2)
H25 H 0.2841 0.8630 0.3713
C45 C 0.4186(3) 1.0119(5) 0.35834(17)
C46 C 0.5341(3) 1.0216(5) 0.34263(18)
H26 H 0.5738 1.1171 0.3435
C47 C 0.5921(3) 0.8940(4) 0.32573(18)
H27 H 0.6720 0.9020 0.3155
C48 C 0.3569(4) 1.1508(5) 0.3784(2)
Fe1A Fe 0.24786(5) 0.82014(8) -0.24634(3)
Fe1A_2 Fe 1.24786(5) -0.17986(8) 0.75366(3)
O1A O 0.6122(2) 0.1750(3) 0.21875(11)
O6A O 0.9119(2) 0.4776(3) 0.27597(11)
loop_
_geom_bond_atom_site_label_1
_geom_bond_atom_site_label_2
_geom_bond_site_symmetry_1
_geom_bond_site_symmetry_2
Fe1 N1 1_555 1_555
N1 C1 1_555 1_555
N2 Fe1 1_555 1_555
N3 Fe1 1_555 1_555
N4 Fe1 1_555 1_555
O1 C27 1_555 1_555
O2 C27 1_555 1_555
O3 C34 1_555 1_555
O4 H1 1_555 1_555
O5 H2 1_555 1_555
O6 C41 1_555 1_555
O7 C48 1_555 1_555
O8 H3 1_555 1_555
C1 C2 1_555 1_555
C2 H4 1_555 1_555
C3 C2 1_555 1_555
H5 C3 1_555 1_555
C4 N1 1_555 1_555
C5 C4 1_555 1_555
C6 N2 1_555 1_555
C7 C6 1_555 1_555
H6 C7 1_555 1_555
C8 C7 1_555 1_555
H7 C8 1_555 1_555
C9 N2 1_555 1_555
C10 C9 1_555 1_555
C11 N3 1_555 1_555
C12 C11 1_555 1_555
H8 C12 1_555 1_555
C13 C12 1_555 1_555
H9 C13 1_555 1_555
C14 N3 1_555 1_555
C15 C14 1_555 1_555
C16 N4 1_555 1_555
C17 C16 1_555 1_555
H10 C17 1_555 1_555
C18 C17 1_555 1_555
H11 C18 1_555 1_555
C19 N4 1_555 1_555
C20 C1 1_555 1_555
C21 C5 1_555 1_555
C22 C21 1_555 1_555
H12 C22 1_555 1_555
C23 C22 1_555 1_555
H13 C23 1_555 1_555
C24 C23 1_555 1_555
C25 C24 1_555 1_555
H14 C25 1_555 1_555
C26 C21 1_555 1_555
H15 C26 1_555 1_555
C27 C24 1_555 1_555
C28 C10 1_555 1_555
C29 C28 1_555 1_555
H16 C29 1_555 1_555
C30 C29 1_555 1_555
H17 C30 1_555 1_555
C31 C30 1_555 1_555
C32 C31 1_555 1_555
H18 C32 1_555 1_555
C33 C28 1_555 1_555
H19 C33 1_555 1_555
C34 O4 1_555 1_555
C35 C15 1_555 1_555
C36 C35 1_555 1_555
H20 C36 1_555 1_555
C37 C36 1_555 1_555
H21 C37 1_555 1_555
C38 C37 1_555 1_555
C39 C38 1_555 1_555
H22 C39 1_555 1_555
C40 C35 1_555 1_555
H23 C40 1_555 1_555
C41 O5 1_555 1_555
C42 C20 1_555 1_555
C43 C42 1_555 1_555
H24 C43 1_555 1_555
C44 C43 1_555 1_555
H25 C44 1_555 1_555
C45 C44 1_555 1_555
C46 C45 1_555 1_555
H26 C46 1_555 1_555
C47 C42 1_555 1_555
H27 C47 1_555 1_555
C48 O8 1_555 1_555
Fe1A O1 1_555 1_555
Fe1A_2 O6 1_555 1_555
O1A Fe1 1_555 1_555
O6A Fe1 1_555 1_555
C3 C4 1_555 1_555
C5 C6 1_555 1_555
C8 C9 1_555 1_555
C10 C11 1_555 1_555
C13 C14 1_555 1_555
C15 C16 1_555 1_555
C18 C19 1_555 1_555
C19 C20 1_555 1_555
C25 C26 1_555 1_555
C31 C34 1_555 1_555
C32 C33 1_555 1_555
C38 C41 1_555 1_555
C39 C40 1_555 1_555
C45 C48 1_555 1_555
C46 C47 1_555 1_555

#END
