
#######################################################################
#
#                 Cambridge Crystallographic Data Centre
#                                CCDC 
#
#######################################################################
#
# If this CIF has been generated from an entry in the Cambridge 
# Structural Database, then it will include bibliographic, chemical, 
# crystal, experimental, refinement or atomic coordinate data resulting 
# from the CCDC's data processing and validation procedures.
#
#######################################################################

data_OYEKAF
_symmetry_cell_setting           monoclinic
_symmetry_space_group_name_H-M   'P 21/c'
_symmetry_Int_Tables_number      14
_space_group_name_Hall           '-P 2ybc'
loop_
_symmetry_equiv_pos_site_id
_symmetry_equiv_pos_as_xyz
1 x,y,z
2 -x,1/2+y,1/2-z
3 -x,-y,-z
4 x,1/2-y,1/2+z
_cell_length_a                   7.3623(15)
_cell_length_b                   18.503(4)
_cell_length_c                   22.346(5)
_cell_angle_alpha                90
_cell_angle_beta                 108.85(3)
_cell_angle_gamma                90
_cell_volume                     2880.81
loop_
_atom_site_label
_atom_site_type_symbol
_atom_site_fract_x
_atom_site_fract_y
_atom_site_fract_z
C1 C -0.0495(3) -0.00421(13) 0.38346(11)
C2 C -0.2374(3) -0.00531(13) 0.33088(11)
C3 C -0.4134(3) -0.00709(13) 0.34218(11)
C4 C -0.5820(3) -0.01111(14) 0.29146(11)
H1 H -0.6986 -0.0141 0.2991
C5 C -0.5809(4) -0.01082(14) 0.22959(11)
C6 C -0.4046(4) -0.00985(16) 0.21916(12)
H2 H -0.4012 -0.0109 0.1779
C7 C -0.2348(4) -0.00733(15) 0.26886(12)
H3 H -0.1183 -0.0070 0.2610
C8 C -0.4236(3) -0.00217(13) 0.40755(11)
C9 C -0.7692(4) -0.00785(16) 0.17666(13)
C10 C -0.2186(3) -0.42329(14) 0.52081(11)
C11 C -0.3610(3) -0.37192(13) 0.53252(11)
C12 C -0.4991(4) -0.39639(14) 0.55835(12)
H4 H -0.5057 -0.4452 0.5675
C13 C -0.6265(4) -0.34778(14) 0.57034(13)
H5 H -0.7185 -0.3643 0.5874
C14 C -0.6187(3) -0.27482(14) 0.55726(12)
C15 C -0.4818(3) -0.25048(13) 0.53055(12)
C16 C -0.3546(3) -0.29930(13) 0.51814(12)
H6 H -0.2647 -0.2831 0.5000
C17 C -0.4750(4) -0.17275(14) 0.51235(12)
C18 C -0.7528(4) -0.22266(15) 0.57466(13)
C19 C 0.2046(5) 0.15401(18) 0.31228(17)
H7 H 0.2139 0.1052 0.3226
C20 C 0.2785(5) 0.1776(2) 0.26647(18)
H8 H 0.3328 0.1446 0.2458
C21 C 0.2724(4) 0.2491(2) 0.25138(15)
C22 C 0.1865(5) 0.29525(19) 0.28288(16)
H9 H 0.1802 0.3445 0.2743
C23 C 0.1098(4) 0.26795(16) 0.32737(14)
H10 H 0.0491 0.2995 0.3472
C24 C 0.3668(5) 0.2754(2) 0.20385(17)
H11 H 0.3519 0.2389 0.1714
H12 H 0.3029 0.3190 0.1835
C25 C 0.5801(5) 0.2910(2) 0.23569(17)
H13 H 0.6402 0.2491 0.2602
H14 H 0.5936 0.3311 0.2648
C26 C 0.6841(5) 0.30919(19) 0.18915(18)
H15 H 0.5985 0.3377 0.1552
H16 H 0.7934 0.3394 0.2106
C27 C 0.7555(4) 0.24557(17) 0.15993(15)
C28 C 0.7252(6) 0.1740(2) 0.1707(2)
H17 H 0.6549 0.1619 0.1971
C29 C 0.7987(6) 0.1200(2) 0.1423(2)
H18 H 0.7774 0.0721 0.1507
C30 C 0.9302(4) 0.20356(16) 0.09396(13)
H19 H 1.0014 0.2146 0.0676
C31 C 0.8630(4) 0.25901(16) 0.12105(13)
H20 H 0.8902 0.3065 0.1131
N1 N 0.1202(3) 0.19822(13) 0.34257(11)
N2 N 0.8987(3) 0.13397(12) 0.10353(11)
O1 O 0.0245(2) -0.06413(10) 0.40386(8)
O2 O 0.0353(3) 0.05388(10) 0.40371(10)
O3 O -0.2705(2) 0.00552(10) 0.45261(8)
O4 O -0.5878(3) -0.00385(12) 0.41280(9)
O5 O -0.9190(3) -0.02162(17) 0.18671(11)
O6 O -0.7576(3) 0.01314(12) 0.12330(8)
O7 O -0.3174(3) -0.14271(10) 0.51876(9)
O8 O -0.6356(3) -0.14259(10) 0.48946(10)
O9 O -0.6906(3) -0.17853(14) 0.61680(12)
O10 O -0.9309(3) -0.22947(12) 0.54442(11)
O11 O -0.2185(3) -0.48743(10) 0.53939(9)
O12 O -0.1042(3) -0.39900(10) 0.49424(9)
Zn1 Zn -0.72046(4) -0.043170(16) 0.467470(13)
Zn2 Zn 0.05406(4) 0.158030(16) 0.417730(15)
Zn3 Zn 0.00415(4) -0.551270(16) 0.566290(13)
N2C N -0.1013(3) -0.63397(12) 0.60353(11)
O1_2 O -0.9755(2) -0.06413(10) 0.40386(8)
O3B O -0.7295(2) -0.00552(10) 0.54739(8)
O6C O 0.2424(3) -0.51314(12) 0.62330(8)
O7B O 0.3174(3) 0.14271(10) 0.48124(9)
O9B O -0.3094(3) 0.17853(14) 0.38320(12)
O10B O -0.0691(3) 0.22947(12) 0.45558(11)
O12B O 0.1042(3) -0.60100(10) 0.50576(9)
Zn1B Zn -0.27954(4) 0.043170(16) 0.532530(13)
Zn1_2 Zn 0.27954(4) -0.043170(16) 0.467470(13)
Zn2B Zn -0.05406(4) -0.158030(16) 0.582270(15)
Zn2B_2 Zn -1.05406(4) -0.158030(16) 0.582270(15)
Zn3C Zn 1.00415(4) 0.051270(16) 0.066290(13)
Zn3C_2 Zn -0.99585(4) 0.051270(16) 0.066290(13)
Zn3B Zn -0.00415(4) -0.448730(16) 0.433710(13)
loop_
_geom_bond_atom_site_label_1
_geom_bond_atom_site_label_2
_geom_bond_site_symmetry_1
_geom_bond_site_symmetry_2
C1 C2 1_555 1_555
C2 C3 1_555 1_555
C3 C4 1_555 1_555
C4 H1 1_555 1_555
C5 C4 1_555 1_555
C6 C5 1_555 1_555
H2 C6 1_555 1_555
C7 C2 1_555 1_555
H3 C7 1_555 1_555
C8 C3 1_555 1_555
C9 C5 1_555 1_555
C10 C11 1_555 1_555
C11 C12 1_555 1_555
C12 H4 1_555 1_555
C13 C12 1_555 1_555
H5 C13 1_555 1_555
C14 C13 1_555 1_555
C15 C14 1_555 1_555
C16 C11 1_555 1_555
H6 C16 1_555 1_555
C17 C15 1_555 1_555
C18 C14 1_555 1_555
C19 H7 1_555 1_555
C20 C19 1_555 1_555
H8 C20 1_555 1_555
C21 C20 1_555 1_555
C22 C21 1_555 1_555
H9 C22 1_555 1_555
C23 C22 1_555 1_555
H10 C23 1_555 1_555
C24 C21 1_555 1_555
H11 C24 1_555 1_555
H12 C24 1_555 1_555
C25 C24 1_555 1_555
H13 C25 1_555 1_555
H14 C25 1_555 1_555
C26 C25 1_555 1_555
H15 C26 1_555 1_555
H16 C26 1_555 1_555
C27 C26 1_555 1_555
C28 C27 1_555 1_555
H17 C28 1_555 1_555
C29 C28 1_555 1_555
H18 C29 1_555 1_555
C30 H19 1_555 1_555
C31 C27 1_555 1_555
H20 C31 1_555 1_555
N1 C19 1_555 1_555
N2 C29 1_555 1_555
O1 C1 1_555 1_555
O2 C1 1_555 1_555
O3 C8 1_555 1_555
O4 C8 1_555 1_555
O5 C9 1_555 1_555
O6 C9 1_555 1_555
O7 C17 1_555 1_555
O8 C17 1_555 1_555
O9 C18 1_555 1_555
O10 C18 1_555 1_555
O11 C10 1_555 1_555
O12 C10 1_555 1_555
Zn1 O4 1_555 1_555
Zn2 N1 1_555 1_555
Zn3 O11 1_555 1_555
N2C Zn3 1_555 1_555
O1_2 Zn1 1_555 1_555
O3B Zn1 1_555 1_555
O6C Zn3 1_555 1_555
O7B Zn2 1_555 1_555
O9B Zn2 1_555 1_555
O10B Zn2 1_555 1_555
O12B Zn3 1_555 1_555
Zn1B O3 1_555 1_555
Zn1_2 O1 1_555 1_555
Zn2B O7 1_555 1_555
Zn2B_2 O9 1_555 1_555
Zn3C N2 1_555 1_555
Zn3C_2 O6 1_555 1_555
Zn3B O12 1_555 1_555
C6 C7 1_555 1_555
C15 C16 1_555 1_555
C23 N1 1_555 1_555
C30 C31 1_555 1_555
C30 N2 1_555 1_555
O2 Zn2 1_555 1_555
O8 Zn1 1_555 1_555
O10 Zn2B_2 1_555 1_555

#END
