
#######################################################################
#
#                 Cambridge Crystallographic Data Centre
#                                CCDC 
#
#######################################################################
#
# If this CIF has been generated from an entry in the Cambridge 
# Structural Database, then it will include bibliographic, chemical, 
# crystal, experimental, refinement or atomic coordinate data resulting 
# from the CCDC's data processing and validation procedures.
#
#######################################################################

data_OYEKIN
_symmetry_cell_setting           triclinic
_symmetry_space_group_name_H-M   'P -1'
_symmetry_Int_Tables_number      2
_space_group_name_Hall           '-P 1'
loop_
_symmetry_equiv_pos_site_id
_symmetry_equiv_pos_as_xyz
1 x,y,z
2 -x,-y,-z
_cell_length_a                   8.6210(17)
_cell_length_b                   9.2050(18)
_cell_length_c                   11.852(2)
_cell_angle_alpha                77.27(3)
_cell_angle_beta                 75.79(3)
_cell_angle_gamma                86.73(3)
_cell_volume                     889.337
loop_
_atom_site_label
_atom_site_type_symbol
_atom_site_fract_x
_atom_site_fract_y
_atom_site_fract_z
Cd1 Cd 0.5000 0.5000 1.0000
Br1 Br 0.77951(3) 0.63429(2) 0.985542(19)
N1 N 0.3885(2) 0.7319(2) 0.92038(18)
N2 N 0.2471(2) 0.8791(2) 0.65142(17)
H1 H 0.1913 0.8026 0.6500
N3 N 0.1145(2) 0.8474(2) 0.47656(16)
N4 N -0.1099(2) 0.6413(2) 0.53979(16)
H2 H -0.0495 0.6658 0.5827
N5 N -0.4131(2) 0.4595(2) 0.79583(17)
O1 O 0.3572(2) 1.10114(18) 0.54022(15)
O2 O -0.1246(2) 0.66484(18) 0.34626(14)
C1 C 0.3431(3) 0.7453(2) 0.8184(2)
H3 H 0.3455 0.6592 0.7862
C2 C 0.2925(3) 0.8795(3) 0.7573(2)
C3 C 0.2852(3) 1.0048(2) 0.8056(2)
H4 H 0.2524 1.0984 0.7659
C4 C 0.3271(3) 0.9898(3) 0.9130(2)
H5 H 0.3201 1.0728 0.9495
C5 C 0.3793(3) 0.8530(3) 0.9671(2)
H6 H 0.4097 0.8447 1.0401
C6 C 0.2827(3) 0.9875(2) 0.5513(2)
C7 C 0.2211(3) 0.9568(2) 0.4506(2)
C8 C 0.2737(3) 1.0428(3) 0.3361(2)
H7 H 0.3483 1.1210 0.3206
C9 C 0.2150(3) 1.0117(3) 0.2455(2)
H8 H 0.2486 1.0686 0.1666
C10 C 0.1067(3) 0.8968(3) 0.2711(2)
H9 H 0.0665 0.8718 0.2100
C11 C 0.0584(3) 0.8190(2) 0.3882(2)
C12 C -0.0672(3) 0.6998(2) 0.4214(2)
C13 C -0.2393(3) 0.5458(2) 0.60281(19)
C14 C -0.2910(3) 0.5428(3) 0.7240(2)
H10 H -0.2367 0.6030 0.7575
C15 C -0.4881(3) 0.3739(3) 0.7475(2)
H11 H -0.5756 0.3144 0.7972
C16 C -0.4425(3) 0.3694(3) 0.6278(2)
H12 H -0.4973 0.3065 0.5969
C17 C -0.3166(3) 0.4569(3) 0.5531(2)
H13 H -0.2844 0.4561 0.4706
Cd1_2 Cd -0.5000 0.5000 1.0000
Cd1_3 Cd 1.5000 0.5000 1.0000
Br1A Br 0.22049(3) 0.36571(2) 1.014458(19)
N1_2 N 1.3885(2) 0.7319(2) 0.92038(18)
N1A N 0.6115(2) 0.2681(2) 1.07962(18)
N2_2 N 1.2471(2) 0.8791(2) 0.65142(17)
H1_2 H 1.1913 0.8026 0.6500
N3_2 N 1.1145(2) 0.8474(2) 0.47656(16)
N4_2 N 0.8901(2) 0.6413(2) 0.53979(16)
H2_2 H 0.9505 0.6658 0.5827
N5_2 N 0.5869(2) 0.4595(2) 0.79583(17)
N5A N 0.4131(2) 0.5405(2) 1.20417(17)
O1_2 O 1.3572(2) 1.10114(18) 0.54022(15)
O2_2 O 0.8754(2) 0.66484(18) 0.34626(14)
C1_2 C 1.3431(3) 0.7453(2) 0.8184(2)
H3_2 H 1.3455 0.6592 0.7862
C2_2 C 1.2925(3) 0.8795(3) 0.7573(2)
C3_2 C 1.2852(3) 1.0048(2) 0.8056(2)
H4_2 H 1.2524 1.0984 0.7659
C4_2 C 1.3271(3) 0.9898(3) 0.9130(2)
H5_2 H 1.3201 1.0728 0.9495
C5_2 C 1.3793(3) 0.8530(3) 0.9671(2)
H6_2 H 1.4097 0.8447 1.0401
C6_2 C 1.2827(3) 0.9875(2) 0.5513(2)
C7_2 C 1.2211(3) 0.9568(2) 0.4506(2)
C8_2 C 1.2737(3) 1.0428(3) 0.3361(2)
H7_2 H 1.3483 1.1210 0.3206
C9_2 C 1.2150(3) 1.0117(3) 0.2455(2)
H8_2 H 1.2486 1.0686 0.1666
C10_2 C 1.1067(3) 0.8968(3) 0.2711(2)
H9_2 H 1.0665 0.8718 0.2100
C11_2 C 1.0584(3) 0.8190(2) 0.3882(2)
C12_2 C 0.9328(3) 0.6998(2) 0.4214(2)
C13_2 C 0.7607(3) 0.5458(2) 0.60281(19)
C14_2 C 0.7090(3) 0.5428(3) 0.7240(2)
H10_2 H 0.7633 0.6030 0.7575
C15_2 C 0.5119(3) 0.3739(3) 0.7475(2)
H11_2 H 0.4244 0.3144 0.7972
C16_2 C 0.5575(3) 0.3694(3) 0.6278(2)
H12_2 H 0.5027 0.3065 0.5969
C17_2 C 0.6834(3) 0.4569(3) 0.5531(2)
H13_2 H 0.7156 0.4561 0.4706
O3 O 0.9293(2) 0.39866(19) 0.26283(15)
H14 H 0.988(3) 0.403(3) 0.1850(9)
H15 H 0.914(3) 0.4973(10) 0.270(3)
loop_
_geom_bond_atom_site_label_1
_geom_bond_atom_site_label_2
_geom_bond_site_symmetry_1
_geom_bond_site_symmetry_2
Cd1 Br1 1_555 1_555
N1 Cd1 1_555 1_555
N2 H1 1_555 1_555
N3 C7 1_555 1_555
N4 H2 1_555 1_555
N5 C14 1_555 1_555
O1 C6 1_555 1_555
O2 C12 1_555 1_555
C1 N1 1_555 1_555
H3 C1 1_555 1_555
C2 N2 1_555 1_555
C3 C2 1_555 1_555
H4 C3 1_555 1_555
C4 C3 1_555 1_555
H5 C4 1_555 1_555
C5 N1 1_555 1_555
H6 C5 1_555 1_555
C6 N2 1_555 1_555
C7 C6 1_555 1_555
C8 C7 1_555 1_555
H7 C8 1_555 1_555
C9 C8 1_555 1_555
H8 C9 1_555 1_555
C10 C9 1_555 1_555
H9 C10 1_555 1_555
C11 N3 1_555 1_555
C12 N4 1_555 1_555
C13 N4 1_555 1_555
C14 C13 1_555 1_555
H10 C14 1_555 1_555
C15 N5 1_555 1_555
H11 C15 1_555 1_555
C16 C15 1_555 1_555
H12 C16 1_555 1_555
C17 C13 1_555 1_555
H13 C17 1_555 1_555
O3 H14 1_555 1_555
H15 O3 1_555 1_555
Cd1_2 N5 1_555 1_555
Cd1_3 N1_2 1_555 1_555
Br1A Cd1 1_555 1_555
N1_2 C1_2 1_555 1_555
N1A Cd1 1_555 1_555
N2_2 H1_2 1_555 1_555
N3_2 C7_2 1_555 1_555
N4_2 H2_2 1_555 1_555
N5_2 Cd1 1_555 1_555
N5A Cd1 1_555 1_555
O1_2 C6_2 1_555 1_555
O2_2 C12_2 1_555 1_555
C1_2 H3_2 1_555 1_555
C2_2 N2_2 1_555 1_555
C3_2 C2_2 1_555 1_555
H4_2 C3_2 1_555 1_555
C4_2 C3_2 1_555 1_555
H5_2 C4_2 1_555 1_555
C5_2 N1_2 1_555 1_555
H6_2 C5_2 1_555 1_555
C6_2 N2_2 1_555 1_555
C7_2 C6_2 1_555 1_555
C8_2 C7_2 1_555 1_555
H7_2 C8_2 1_555 1_555
C9_2 C8_2 1_555 1_555
H8_2 C9_2 1_555 1_555
C10_2 C9_2 1_555 1_555
H9_2 C10_2 1_555 1_555
C11_2 N3_2 1_555 1_555
C12_2 N4_2 1_555 1_555
C13_2 N4_2 1_555 1_555
C14_2 N5_2 1_555 1_555
H10_2 C14_2 1_555 1_555
C15_2 N5_2 1_555 1_555
H11_2 C15_2 1_555 1_555
C16_2 C15_2 1_555 1_555
H12_2 C16_2 1_555 1_555
C17_2 C13_2 1_555 1_555
H13_2 C17_2 1_555 1_555
C1 C2 1_555 1_555
C4 C5 1_555 1_555
C10 C11 1_555 1_555
C11 C12 1_555 1_555
C16 C17 1_555 1_555
C1_2 C2_2 1_555 1_555
C4_2 C5_2 1_555 1_555
C10_2 C11_2 1_555 1_555
C11_2 C12_2 1_555 1_555
C13_2 C14_2 1_555 1_555
C16_2 C17_2 1_555 1_555

#END
