
#######################################################################
#
#                 Cambridge Crystallographic Data Centre
#                                CCDC 
#
#######################################################################
#
# If this CIF has been generated from an entry in the Cambridge 
# Structural Database, then it will include bibliographic, chemical, 
# crystal, experimental, refinement or atomic coordinate data resulting 
# from the CCDC's data processing and validation procedures.
#
#######################################################################

data_OYEKOT
_symmetry_cell_setting           triclinic
_symmetry_space_group_name_H-M   'P -1'
_symmetry_Int_Tables_number      2
_space_group_name_Hall           '-P 1'
loop_
_symmetry_equiv_pos_site_id
_symmetry_equiv_pos_as_xyz
1 x,y,z
2 -x,-y,-z
_cell_length_a                   8.6090(17)
_cell_length_b                   9.3580(19)
_cell_length_c                   11.919(2)
_cell_angle_alpha                77.17(3)
_cell_angle_beta                 77.49(3)
_cell_angle_gamma                87.58(3)
_cell_volume                     914.011
loop_
_atom_site_label
_atom_site_type_symbol
_atom_site_fract_x
_atom_site_fract_y
_atom_site_fract_z
Cd1 Cd 0.5000 0.5000 1.0000
I1 I 0.79913(2) 0.64066(2) 0.991117(16)
N1 N 0.3944(3) 0.7284(3) 0.9161(2)
N2 N 0.2509(3) 0.8752(3) 0.6473(2)
H1 H 0.1965 0.7987 0.6450
N3 N 0.1080(3) 0.8446(3) 0.4759(2)
N4 N -0.1153(3) 0.6393(3) 0.5411(2)
H2 H -0.0529 0.6642 0.5832
N5 N -0.4111(3) 0.4583(3) 0.7938(2)
O1 O 0.3542(3) 1.0965(2) 0.5383(2)
O2 O -0.1410(3) 0.6641(3) 0.34989(19)
C1 C 0.3495(4) 0.7426(3) 0.8135(3)
H3 H 0.3530 0.6589 0.7802
C2 C 0.2981(4) 0.8749(3) 0.7533(3)
C3 C 0.2923(4) 0.9977(3) 0.8013(3)
H4 H 0.2600 1.0900 0.7616
C4 C 0.3353(5) 0.9812(4) 0.9092(3)
H5 H 0.3305 1.0624 0.9456
C5 C 0.3853(5) 0.8456(4) 0.9638(3)
H6 H 0.4141 0.8358 1.0377
C6 C 0.2822(4) 0.9833(3) 0.5485(3)
C7 C 0.2169(4) 0.9521(3) 0.4486(3)
C8 C 0.2683(4) 1.0331(4) 0.3348(3)
H7 H 0.3429 1.1108 0.3187
C9 C 0.2087(5) 0.9984(4) 0.2453(3)
H8 H 0.2438 1.0508 0.1663
C10 C 0.0975(4) 0.8868(4) 0.2717(3)
H9 H 0.0552 0.8604 0.2118
C11 C 0.0495(4) 0.8142(3) 0.3894(3)
C12 C -0.0778(4) 0.6972(3) 0.4232(3)
C13 C -0.2426(4) 0.5442(3) 0.6032(3)
C14 C -0.2927(4) 0.5426(3) 0.7230(3)
H10 H -0.2395 0.6049 0.7557
C15 C -0.4843(4) 0.3704(4) 0.7466(3)
H11 H -0.5697 0.3102 0.7959
C16 C -0.4413(4) 0.3633(3) 0.6294(3)
H12 H -0.4954 0.2983 0.5997
C17 C -0.3174(4) 0.4525(3) 0.5546(3)
H13 H -0.2859 0.4502 0.4735
Cd1_2 Cd -0.5000 0.5000 1.0000
Cd1_3 Cd 1.5000 0.5000 1.0000
I1A I 0.20087(2) 0.35934(2) 1.008883(16)
N1A N 0.6056(3) 0.2716(3) 1.0839(2)
N2A N 0.7491(3) 0.1248(3) 1.3527(2)
H1A H 0.8035 0.2013 1.3550
N3A N 0.8920(3) 0.1554(3) 1.5241(2)
N4A N 1.1153(3) 0.3607(3) 1.4589(2)
H2A H 1.0529 0.3358 1.4168
N5A N 1.4111(3) 0.5417(3) 1.2062(2)
N5_2 N 0.5889(3) 0.4583(3) 0.7938(2)
N5A_2 N 0.4111(3) 0.5417(3) 1.2062(2)
O1A O 0.6458(3) -0.0965(2) 1.4617(2)
O2A O 1.1410(3) 0.3359(3) 1.65011(19)
C1A C 0.6505(4) 0.2574(3) 1.1865(3)
H3A H 0.6470 0.3411 1.2198
C2A C 0.7019(4) 0.1251(3) 1.2467(3)
C3A C 0.7077(4) 0.0023(3) 1.1987(3)
H4A H 0.7400 -0.0900 1.2384
C4A C 0.6647(5) 0.0188(4) 1.0908(3)
H5A H 0.6695 -0.0624 1.0544
C5A C 0.6147(5) 0.1544(4) 1.0362(3)
H6A H 0.5859 0.1642 0.9623
C6A C 0.7178(4) 0.0167(3) 1.4515(3)
C7A C 0.7831(4) 0.0479(3) 1.5514(3)
C8A C 0.7317(4) -0.0331(4) 1.6652(3)
H7A H 0.6571 -0.1108 1.6813
C9A C 0.7913(5) 0.0016(4) 1.7547(3)
H8A H 0.7562 -0.0508 1.8337
C10A C 0.9025(4) 0.1132(4) 1.7283(3)
H9A H 0.9448 0.1396 1.7882
C11A C 0.9505(4) 0.1858(3) 1.6106(3)
C12A C 1.0778(4) 0.3028(3) 1.5768(3)
C13A C 1.2426(4) 0.4558(3) 1.3968(3)
C14A C 1.2927(4) 0.4574(3) 1.2770(3)
H10A H 1.2395 0.3951 1.2443
C15A C 1.4843(4) 0.6296(4) 1.2534(3)
H11A H 1.5697 0.6898 1.2041
C16A C 1.4413(4) 0.6367(3) 1.3706(3)
H12A H 1.4954 0.7017 1.4003
C17A C 1.3174(4) 0.5475(3) 1.4454(3)
H13A H 1.2859 0.5498 1.5265
O3 O 0.9215(3) 0.4019(3) 0.2730(2)
H14 H 0.964(5) 0.407(5) 0.1937(10)
H15 H 0.897(5) 0.4966(17) 0.283(4)
loop_
_geom_bond_atom_site_label_1
_geom_bond_atom_site_label_2
_geom_bond_site_symmetry_1
_geom_bond_site_symmetry_2
Cd1 I1 1_555 1_555
N1 Cd1 1_555 1_555
N2 H1 1_555 1_555
N3 C7 1_555 1_555
N4 H2 1_555 1_555
N5 C14 1_555 1_555
O1 C6 1_555 1_555
O2 C12 1_555 1_555
C1 N1 1_555 1_555
H3 C1 1_555 1_555
C2 N2 1_555 1_555
C3 C2 1_555 1_555
H4 C3 1_555 1_555
C4 C3 1_555 1_555
H5 C4 1_555 1_555
C5 N1 1_555 1_555
H6 C5 1_555 1_555
C6 N2 1_555 1_555
C7 C6 1_555 1_555
C8 C7 1_555 1_555
H7 C8 1_555 1_555
C9 C8 1_555 1_555
H8 C9 1_555 1_555
C10 C9 1_555 1_555
H9 C10 1_555 1_555
C11 N3 1_555 1_555
C12 N4 1_555 1_555
C13 N4 1_555 1_555
C14 C13 1_555 1_555
H10 C14 1_555 1_555
C15 N5 1_555 1_555
H11 C15 1_555 1_555
C16 C15 1_555 1_555
H12 C16 1_555 1_555
C17 C13 1_555 1_555
H13 C17 1_555 1_555
O3 H14 1_555 1_555
H15 O3 1_555 1_555
Cd1_2 N5 1_555 1_555
Cd1_3 N5A 1_555 1_555
I1A Cd1 1_555 1_555
N1A Cd1 1_555 1_555
N2A H1A 1_555 1_555
N3A C7A 1_555 1_555
N4A H2A 1_555 1_555
N5A C14A 1_555 1_555
N5_2 Cd1 1_555 1_555
N5A_2 Cd1 1_555 1_555
O1A C6A 1_555 1_555
O2A C12A 1_555 1_555
C1A N1A 1_555 1_555
H3A C1A 1_555 1_555
C2A N2A 1_555 1_555
C3A C2A 1_555 1_555
H4A C3A 1_555 1_555
C4A C3A 1_555 1_555
H5A C4A 1_555 1_555
C5A N1A 1_555 1_555
H6A C5A 1_555 1_555
C6A N2A 1_555 1_555
C7A C6A 1_555 1_555
C8A C7A 1_555 1_555
H7A C8A 1_555 1_555
C9A C8A 1_555 1_555
H8A C9A 1_555 1_555
C10A C9A 1_555 1_555
H9A C10A 1_555 1_555
C11A N3A 1_555 1_555
C12A N4A 1_555 1_555
C13A N4A 1_555 1_555
C14A C13A 1_555 1_555
H10A C14A 1_555 1_555
C15A N5A 1_555 1_555
H11A C15A 1_555 1_555
C16A C15A 1_555 1_555
H12A C16A 1_555 1_555
C17A C13A 1_555 1_555
H13A C17A 1_555 1_555
C1 C2 1_555 1_555
C4 C5 1_555 1_555
C10 C11 1_555 1_555
C11 C12 1_555 1_555
C16 C17 1_555 1_555
C1A C2A 1_555 1_555
C4A C5A 1_555 1_555
C10A C11A 1_555 1_555
C11A C12A 1_555 1_555
C16A C17A 1_555 1_555

#END
