
#######################################################################
#
#                 Cambridge Crystallographic Data Centre
#                                CCDC 
#
#######################################################################
#
# If this CIF has been generated from an entry in the Cambridge 
# Structural Database, then it will include bibliographic, chemical, 
# crystal, experimental, refinement or atomic coordinate data resulting 
# from the CCDC's data processing and validation procedures.
#
#######################################################################

data_OYODOW
_symmetry_cell_setting           monoclinic
_symmetry_space_group_name_H-M   'P 21/n'
_symmetry_Int_Tables_number      14
_space_group_name_Hall           '-P 2yn'
loop_
_symmetry_equiv_pos_site_id
_symmetry_equiv_pos_as_xyz
1 x,y,z
2 1/2-x,1/2+y,1/2-z
3 -x,-y,-z
4 1/2+x,1/2-y,1/2+z
_cell_length_a                   10.7090(8)
_cell_length_b                   20.8148(15)
_cell_length_c                   13.3615(10)
_cell_angle_alpha                90
_cell_angle_beta                 112.9150(10)
_cell_angle_gamma                90
_cell_volume                     2743.31
loop_
_atom_site_label
_atom_site_type_symbol
_atom_site_fract_x
_atom_site_fract_y
_atom_site_fract_z
Cu1 Cu 0.88721(4) 0.238702(17) 0.56288(3)
O1 O 0.9111(3) 0.31829(11) 0.6503(2)
H1 H 0.861(4) 0.3498(18) 0.624(3)
H2 H 0.924(4) 0.309(2) 0.709(3)
Cl1 Cl 0.59809(8) 0.30831(4) 0.34063(6)
O2 O 0.7381(2) 0.30539(11) 0.41086(19)
O3 O 0.5882(3) 0.30909(14) 0.23108(19)
O4 O 0.5280(3) 0.25304(10) 0.3569(2)
O5 O 0.5404(3) 0.36558(12) 0.3617(3)
N1 N 0.7451(3) 0.19872(11) 0.5979(2)
C1 C 0.7418(3) 0.13513(14) 0.5871(2)
N2 N 0.6394(3) 0.10948(13) 0.6078(2)
H3 H 0.621(4) 0.0697(10) 0.607(3)
C2 C 0.4593(4) 0.15872(19) 0.6634(3)
H4 H 0.4149 0.1210 0.6673
C3 C 0.4183(4) 0.2172(2) 0.6858(3)
H5 H 0.3457 0.2192 0.7074
C4 C 0.4827(4) 0.27389(17) 0.6771(3)
H6 H 0.4505 0.3128 0.6915
C5 C 0.5920(4) 0.27405(16) 0.6480(3)
H7 H 0.6340 0.3121 0.6420
C6 C 0.6376(3) 0.21473(15) 0.6276(2)
C7 C 0.5713(3) 0.15847(15) 0.6343(2)
C8 C 0.8455(4) 0.10171(14) 0.5575(3)
H8 H 0.9211 0.0882 0.6225
H9 H 0.8065 0.0640 0.5138
N3 N 1.0314(3) 0.25545(12) 0.5124(2)
C9 C 1.0818(3) 0.20299(15) 0.4870(2)
N4 N 1.1747(3) 0.21628(14) 0.4468(2)
H10 H 1.213(3) 0.1874(13) 0.427(3)
C10 C 1.2692(4) 0.3213(2) 0.4129(3)
H11 H 1.3293 0.3044 0.3850
C11 C 1.2568(4) 0.3867(2) 0.4240(3)
H12 H 1.3097 0.4146 0.4028
C12 C 1.1665(4) 0.41191(18) 0.4662(3)
H13 H 1.1610 0.4562 0.4726
C13 C 1.0852(3) 0.37283(16) 0.4987(3)
H14 H 1.0252 0.3898 0.5268
C14 C 1.0970(3) 0.30705(15) 0.4877(2)
C15 C 1.1882(3) 0.28256(17) 0.4454(3)
C16 C 1.0336(3) 0.13873(15) 0.5071(3)
H15 H 1.0385 0.1075 0.4549
H16 H 1.0887 0.1237 0.5797
N5 N 0.8919(3) 0.14800(11) 0.4950(2)
C17 C 0.7705(3) 0.08778(14) 0.3169(2)
C18 C 0.6503(4) 0.05545(17) 0.2973(3)
H17 H 0.5879 0.0725 0.3226
C19 C 0.6221(4) -0.00161(18) 0.2407(3)
H18 H 0.5399 -0.0223 0.2265
C20 C 0.7149(5) -0.02806(19) 0.2051(3)
H19 H 0.6967 -0.0673 0.1688
C21 C 0.8336(5) 0.00299(19) 0.2228(3)
H20 H 0.8961 -0.0151 0.1985
C22 C 0.8618(4) 0.06151(16) 0.2771(3)
H21 H 0.9417 0.0832 0.2868
C23 C 0.7962(3) 0.15057(14) 0.3765(2)
H22 H 0.7100 0.1676 0.3723
H23 H 0.8327 0.1805 0.3393
Cu1C Cu 0.38721(4) 0.261298(17) 0.06288(3)
O3C O 1.0882(3) 0.19091(14) 0.73108(19)
Cl2 Cl 0.29343(10) 0.06614(4) 0.35506(9)
O6 O 0.3285(7) 0.1298(2) 0.3437(6)
O7 O 0.4075(4) 0.0269(2) 0.3868(7)
O8 O 0.1945(7) 0.0435(4) 0.2563(4)
O9 O 0.2359(7) 0.0624(3) 0.4328(5)
O10 O 0.7562(4) 0.42113(16) 0.5699(3)
H24 H 0.666(4) 0.418(3) 0.525(4)
H25 H 0.719(6) 0.436(3) 0.616(4)
O11? O 0.367(2) 0.1237(7) 0.363(2)
O12? O 0.336(2) 0.0215(5) 0.2977(16)
O13? O 0.1556(8) 0.0777(10) 0.304(2)
O14? O 0.326(2) 0.0433(9) 0.4603(9)
loop_
_geom_bond_atom_site_label_1
_geom_bond_atom_site_label_2
_geom_bond_site_symmetry_1
_geom_bond_site_symmetry_2
Cu1 O1 1_555 1_555
O1 H1 1_555 1_555
H2 O1 1_555 1_555
Cl1 O2 1_555 1_555
O2 Cu1 1_555 1_555
O3 Cl1 1_555 1_555
O4 Cl1 1_555 1_555
O5 Cl1 1_555 1_555
N1 Cu1 1_555 1_555
C1 N1 1_555 1_555
N2 C1 1_555 1_555
H3 N2 1_555 1_555
C2 H4 1_555 1_555
C3 C2 1_555 1_555
H5 C3 1_555 1_555
C4 C3 1_555 1_555
H6 C4 1_555 1_555
C5 C4 1_555 1_555
H7 C5 1_555 1_555
C6 N1 1_555 1_555
C7 N2 1_555 1_555
C8 C1 1_555 1_555
H8 C8 1_555 1_555
H9 C8 1_555 1_555
N3 Cu1 1_555 1_555
C9 N3 1_555 1_555
N4 C9 1_555 1_555
H10 N4 1_555 1_555
C10 H11 1_555 1_555
C11 C10 1_555 1_555
H12 C11 1_555 1_555
C12 C11 1_555 1_555
H13 C12 1_555 1_555
C13 C12 1_555 1_555
H14 C13 1_555 1_555
C14 N3 1_555 1_555
C15 N4 1_555 1_555
C16 C9 1_555 1_555
H15 C16 1_555 1_555
H16 C16 1_555 1_555
N5 Cu1 1_555 1_555
C17 C18 1_555 1_555
C18 H17 1_555 1_555
C19 C18 1_555 1_555
H18 C19 1_555 1_555
C20 C19 1_555 1_555
H19 C20 1_555 1_555
C21 C20 1_555 1_555
H20 C21 1_555 1_555
C22 C17 1_555 1_555
H21 C22 1_555 1_555
C23 N5 1_555 1_555
H22 C23 1_555 1_555
H23 C23 1_555 1_555
Cl2 O6 1_555 1_555
O7 Cl2 1_555 1_555
O8 Cl2 1_555 1_555
O9 Cl2 1_555 1_555
O10 H24 1_555 1_555
H25 O10 1_555 1_555
Cu1C O3 1_555 1_555
O3C Cu1 1_555 1_555
C2 C7 1_555 1_555
C5 C6 1_555 1_555
C6 C7 1_555 1_555
C8 N5 1_555 1_555
C10 C15 1_555 1_555
C13 C14 1_555 1_555
C14 C15 1_555 1_555
C16 N5 1_555 1_555
C17 C23 1_555 1_555
C21 C22 1_555 1_555

#END
