
#######################################################################
#
#                 Cambridge Crystallographic Data Centre
#                                CCDC 
#
#######################################################################
#
# If this CIF has been generated from an entry in the Cambridge 
# Structural Database, then it will include bibliographic, chemical, 
# crystal, experimental, refinement or atomic coordinate data resulting 
# from the CCDC's data processing and validation procedures.
#
#######################################################################

data_OYOHUG
_symmetry_cell_setting           monoclinic
_symmetry_space_group_name_H-M   'C 2/c'
_symmetry_Int_Tables_number      15
_space_group_name_Hall           '-C 2yn'
loop_
_symmetry_equiv_pos_site_id
_symmetry_equiv_pos_as_xyz
1 x,y,z
2 -x,y,1/2-z
3 1/2+x,1/2+y,z
4 1/2-x,1/2+y,1/2-z
5 -x,-y,-z
6 x,-y,1/2+z
7 1/2-x,1/2-y,-z
8 1/2+x,1/2-y,1/2+z
_cell_length_a                   10.6100(5)
_cell_length_b                   16.1750(6)
_cell_length_c                   7.5080(5)
_cell_angle_alpha                90
_cell_angle_beta                 104.83(1)
_cell_angle_gamma                90
_cell_volume                     1245.58
loop_
_atom_site_label
_atom_site_type_symbol
_atom_site_fract_x
_atom_site_fract_y
_atom_site_fract_z
C1 C -0.2633(5) 0.0772(3) 0.4244(8)
C2 C -0.3867(5) 0.0334(3) 0.3367(7)
C3 C -0.5000 0.0755(5) 0.2500
H1 H -0.5000 0.1330 0.2500
C4 C -0.3886(6) -0.0539(3) 0.3380(8)
H2 H -0.3144 -0.0832 0.3984
C5 C -0.5000 -0.0957(5) 0.2500
H3 H -0.5000 -0.1532 0.2500
N1 N -0.2467(5) 0.1521(3) 0.3668(8)
H4 H -0.3064 0.1744 0.2806
H5 H -0.1762 0.1788 0.4152
S1 S -0.15133(15) 0.02954(9) 0.5927(2)
Co1 Co 0.0000 0.12444(7) 0.7500
Br1 Br 0.07834(7) 0.21143(4) 0.54389(9)
C1A C -0.7367(5) 0.0772(3) 0.0756(8)
C2A C -0.6133(5) 0.0334(3) 0.1633(7)
C4A C -0.6114(6) -0.0539(3) 0.1620(8)
H2A H -0.6856 -0.0832 0.1016
N1A N -0.7533(5) 0.1521(3) 0.1332(8)
H4A H -0.6936 0.1744 0.2194
H5A H -0.8238 0.1788 0.0848
S1A S -0.84867(15) 0.02954(9) -0.0927(2)
S1A_2 S 0.15133(15) 0.02954(9) 0.9073(2)
Co1_2 Co -1.0000 0.12444(7) -0.2500
Br1A Br -0.07834(7) 0.21143(4) 0.95611(9)
loop_
_geom_bond_atom_site_label_1
_geom_bond_atom_site_label_2
_geom_bond_site_symmetry_1
_geom_bond_site_symmetry_2
C1 C2 1_555 1_555
C2 C3 1_555 1_555
C3 H1 1_555 1_555
C4 C2 1_555 1_555
H2 C4 1_555 1_555
C5 C4 1_555 1_555
H3 C5 1_555 1_555
N1 C1 1_555 1_555
H4 N1 1_555 1_555
H5 N1 1_555 1_555
S1 C1 1_555 1_555
Co1 S1 1_555 1_555
Br1 Co1 1_555 1_555
C1A C2A 1_555 1_555
C2A C3 1_555 1_555
C4A C5 1_555 1_555
H2A C4A 1_555 1_555
N1A C1A 1_555 1_555
H4A N1A 1_555 1_555
H5A N1A 1_555 1_555
S1A C1A 1_555 1_555
S1A_2 Co1 1_555 1_555
Co1_2 S1A 1_555 1_555
Br1A Co1 1_555 1_555
C2A C4A 1_555 1_555

#END
