
#######################################################################
#
#                 Cambridge Crystallographic Data Centre
#                                CCDC 
#
#######################################################################
#
# If this CIF has been generated from an entry in the Cambridge 
# Structural Database, then it will include bibliographic, chemical, 
# crystal, experimental, refinement or atomic coordinate data resulting 
# from the CCDC's data processing and validation procedures.
#
#######################################################################

data_OYOJAO
_symmetry_cell_setting           monoclinic
_symmetry_space_group_name_H-M   'P 21/c'
_symmetry_Int_Tables_number      14
_space_group_name_Hall           '-P 2ybc'
loop_
_symmetry_equiv_pos_site_id
_symmetry_equiv_pos_as_xyz
1 x,y,z
2 -x,1/2+y,1/2-z
3 -x,-y,-z
4 x,1/2-y,1/2+z
_cell_length_a                   7.912(1)
_cell_length_b                   10.124(2)
_cell_length_c                   13.225(2)
_cell_angle_alpha                90
_cell_angle_beta                 103.737(1)
_cell_angle_gamma                90
_cell_volume                     1029.04
loop_
_atom_site_label
_atom_site_type_symbol
_atom_site_fract_x
_atom_site_fract_y
_atom_site_fract_z
C1 C 0.1631(8) -0.2293(6) -0.1034(5)
C2 C 0.0931(7) -0.3657(6) -0.1205(4)
C3 C -0.0836(8) -0.3920(7) -0.1400(5)
H1 H -0.1624 -0.3227 -0.1457
C4 C 0.2092(8) -0.4704(6) -0.1171(5)
H2 H 0.3276 -0.4537 -0.1069
C5 C -0.1438(8) -0.5215(7) -0.1513(6)
H3 H -0.2626 -0.5381 -0.1635
C6 C -0.0287(7) -0.6256(7) -0.1445(5)
H4 H -0.0693 -0.7121 -0.1503
C7 C 0.1475(7) -0.6000(6) -0.1291(4)
C8 C 0.2752(8) -0.7113(6) -0.1212(5)
N1 N 0.4044(7) -0.6929(6) -0.1683(5)
H5 H 0.4111 -0.6204 -0.2010
H6 H 0.4812 -0.7537 -0.1662
N2 N 0.0515(7) -0.1369(6) -0.0899(5)
H7 H -0.0545 -0.1577 -0.0913
H8 H 0.0851 -0.0562 -0.0797
S1 S 0.2545(2) -0.84556(16) -0.05256(14)
S2 S 0.3700(2) -0.19420(17) -0.10347(13)
Ni1 Ni 0.5000 -1.0000 0.0000
Br1 Br 0.65766(8) -0.95171(6) -0.14600(5)
C1B C 0.8369(8) -0.7707(6) 0.1034(5)
C2B C 0.9069(7) -0.6343(6) 0.1205(4)
C3B C 1.0836(8) -0.6080(7) 0.1400(5)
H1B H 1.1624 -0.6773 0.1457
C4B C 0.7908(8) -0.5296(6) 0.1171(5)
H2B H 0.6724 -0.5463 0.1069
C5B C 1.1438(8) -0.4785(7) 0.1513(6)
H3B H 1.2626 -0.4619 0.1635
C6B C 1.0287(7) -0.3744(7) 0.1445(5)
H4B H 1.0693 -0.2879 0.1503
C7B C 0.8525(7) -0.4000(6) 0.1291(4)
C8B C 0.7248(8) -0.2887(6) 0.1212(5)
N1B N 0.5956(7) -0.3071(6) 0.1683(5)
H5B H 0.5889 -0.3796 0.2010
H6B H 0.5188 -0.2463 0.1662
N2B N 0.9485(7) -0.8631(6) 0.0899(5)
H7B H 1.0545 -0.8423 0.0913
H8B H 0.9149 -0.9438 0.0797
S1B S 0.7455(2) -1.15444(16) 0.05256(14)
S1B_2 S 0.7455(2) -0.15444(16) 0.05256(14)
S2_2 S 0.3700(2) -1.19420(17) -0.10347(13)
S2B S 0.6300(2) -0.80580(17) 0.10347(13)
Ni1_2 Ni 0.5000 0.0000 0.0000
Br1B Br 0.34234(8) -1.04829(6) 0.14600(5)
loop_
_geom_bond_atom_site_label_1
_geom_bond_atom_site_label_2
_geom_bond_site_symmetry_1
_geom_bond_site_symmetry_2
C1 C2 1_555 1_555
C2 C3 1_555 1_555
C3 H1 1_555 1_555
C4 C2 1_555 1_555
H2 C4 1_555 1_555
C5 C3 1_555 1_555
H3 C5 1_555 1_555
C6 C5 1_555 1_555
H4 C6 1_555 1_555
C7 C4 1_555 1_555
C8 C7 1_555 1_555
N1 C8 1_555 1_555
H5 N1 1_555 1_555
H6 N1 1_555 1_555
N2 C1 1_555 1_555
H7 N2 1_555 1_555
H8 N2 1_555 1_555
S1 C8 1_555 1_555
S2 C1 1_555 1_555
Ni1 S1 1_555 1_555
Br1 Ni1 1_555 1_555
C1B C2B 1_555 1_555
C2B C3B 1_555 1_555
C3B H1B 1_555 1_555
C4B C2B 1_555 1_555
H2B C4B 1_555 1_555
C5B C3B 1_555 1_555
H3B C5B 1_555 1_555
C6B C5B 1_555 1_555
H4B C6B 1_555 1_555
C7B C4B 1_555 1_555
C8B C7B 1_555 1_555
N1B C8B 1_555 1_555
H5B N1B 1_555 1_555
H6B N1B 1_555 1_555
N2B C1B 1_555 1_555
H7B N2B 1_555 1_555
H8B N2B 1_555 1_555
S1B Ni1 1_555 1_555
S1B_2 C8B 1_555 1_555
S2_2 Ni1 1_555 1_555
S2B Ni1 1_555 1_555
Ni1_2 S2 1_555 1_555
Br1B Ni1 1_555 1_555
C6 C7 1_555 1_555
C1B S2B 1_555 1_555
C6B C7B 1_555 1_555
S1B_2 Ni1_2 1_555 1_555

#END
