
#######################################################################
#
#                 Cambridge Crystallographic Data Centre
#                                CCDC 
#
#######################################################################
#
# If this CIF has been generated from an entry in the Cambridge 
# Structural Database, then it will include bibliographic, chemical, 
# crystal, experimental, refinement or atomic coordinate data resulting 
# from the CCDC's data processing and validation procedures.
#
#######################################################################

data_OYOSUR
_symmetry_cell_setting           monoclinic
_symmetry_space_group_name_H-M   'P 21/c'
_symmetry_Int_Tables_number      14
_space_group_name_Hall           '-P 2ybc'
loop_
_symmetry_equiv_pos_site_id
_symmetry_equiv_pos_as_xyz
1 x,y,z
2 -x,1/2+y,1/2-z
3 -x,-y,-z
4 x,1/2-y,1/2+z
_cell_length_a                   14.9273(16)
_cell_length_b                   20.3448(18)
_cell_length_c                   13.7460(15)
_cell_angle_alpha                90
_cell_angle_beta                 115.563(3)
_cell_angle_gamma                90
_cell_volume                     3765.92
loop_
_atom_site_label
_atom_site_type_symbol
_atom_site_fract_x
_atom_site_fract_y
_atom_site_fract_z
C1 C 0.37362(19) 0.80208(13) 0.4507(2)
C2 C 0.3996(2) 0.73542(13) 0.4721(2)
H1 H 0.4662 0.7238 0.5088
C3 C 0.3281(2) 0.68720(14) 0.4395(2)
C4 C 0.22884(19) 0.70533(13) 0.3837(2)
H2 H 0.1805 0.6727 0.3622
C5 C 0.1995(2) 0.76970(15) 0.3593(2)
C6 C 0.2737(2) 0.81898(14) 0.3942(2)
H3 H 0.2557 0.8629 0.3793
C7 C 0.3537(2) 0.61511(14) 0.4663(2)
H4 H 0.3733 0.6085 0.5427
H5 H 0.2948 0.5889 0.4270
C8 C 0.43543(19) 0.59104(12) 0.4396(2)
C9 C 0.53416(19) 0.59643(12) 0.5109(2)
H6 H 0.5513 0.6153 0.5782
C10 C 0.60836(19) 0.57422(12) 0.4841(2)
C11 C 0.58608(19) 0.54977(13) 0.3820(2)
H7 H 0.6364 0.5368 0.3633
C12 C 0.48584(19) 0.54496(12) 0.3073(2)
C13 C 0.4114(2) 0.56510(14) 0.3364(2)
H8 H 0.3451 0.5613 0.2871
C14 C 0.45220(19) 0.85459(13) 0.4829(2)
C15 C 0.0921(2) 0.78741(17) 0.2972(3)
C16 C 0.7153(2) 0.58078(17) 0.5684(2)
C17 C 0.4585(2) 0.51935(13) 0.1955(2)
Co1 Co 0.5000 1.0000 0.5000
O1 O 0.42263(15) 0.91182(9) 0.45676(17)
O2 O 0.54167(15) 0.83720(10) 0.53298(18)
O3 O 0.06849(19) 0.84848(13) 0.2828(2)
O4 O 0.02925(15) 0.74356(12) 0.26202(18)
O5 O 0.73052(14) 0.61989(10) 0.64427(17)
O6 O 0.78157(15) 0.54596(11) 0.56116(18)
O7 O 0.36938(15) 0.50496(10) 0.13892(16)
O8 O 0.52444(14) 0.51287(11) 0.16391(15)
O9 O 0.36369(14) 1.04957(10) 0.45808(16)
H19 H 0.3653 1.0866 0.4304
H20 H 0.3544 1.0549 0.5121
C1B C 0.62638(19) 1.19792(13) 0.5493(2)
C2B C 0.6004(2) 1.26458(13) 0.5279(2)
H1B H 0.5338 1.2762 0.4912
C3B C 0.6719(2) 1.31280(14) 0.5605(2)
C4B C 0.77116(19) 1.29467(13) 0.6163(2)
H2B H 0.8195 1.3273 0.6378
C5B C 0.8005(2) 1.23030(15) 0.6407(2)
C6B C 0.7263(2) 1.18102(14) 0.6058(2)
H3B H 0.7443 1.1371 0.6207
C7B C 0.6463(2) 1.38489(14) 0.5337(2)
H4B H 0.6267 1.3915 0.4573
H5B H 0.7052 1.4111 0.5730
C8B C 0.56457(19) 1.40896(12) 0.5604(2)
C9B C 0.46584(19) 1.40357(12) 0.4891(2)
H6B H 0.4487 1.3847 0.4218
C10B C 0.39164(19) 1.42578(12) 0.5159(2)
C11B C 0.41392(19) 1.45023(13) 0.6180(2)
H7B H 0.3636 1.4632 0.6367
C12B C 0.51416(19) 1.45504(12) 0.6927(2)
C13B C 0.5886(2) 1.43490(14) 0.6636(2)
H8B H 0.6549 1.4387 0.7129
C14B C 0.54780(19) 1.14541(13) 0.5171(2)
C15B C 0.9079(2) 1.21259(17) 0.7028(3)
C16B C 0.2847(2) 1.41922(17) 0.4316(2)
C17B C 0.5415(2) 1.48065(13) 0.8045(2)
Co1A Co 0.5000 0.5000 0.0000
Co1A_2 Co 0.5000 1.5000 1.0000
O1B O 0.57737(15) 1.08818(9) 0.54324(17)
O2B O 0.45833(15) 1.16280(10) 0.46702(18)
O3B O 0.93151(19) 1.15152(13) 0.7172(2)
O4B O 0.97075(15) 1.25644(12) 0.73798(18)
O5B O 0.26948(14) 1.38011(10) 0.35573(17)
O6B O 0.21843(15) 1.45404(11) 0.43884(18)
O7B O 0.63062(15) 1.49504(10) 0.86108(16)
O8B O 0.47556(14) 1.48713(11) 0.83609(15)
O8A O 0.47556(14) 1.01287(11) 0.33609(15)
O8C O 0.52444(14) 0.98713(11) 0.66391(15)
O9B O 0.63631(14) 0.95043(10) 0.54192(16)
H19B H 0.6347 0.9134 0.5696
H20B H 0.6456 0.9451 0.4879
C18 C 0.6647(2) 0.73249(15) 0.3516(3)
H9 H 0.7021 0.6943 0.3757
C19 C 0.5643(2) 0.72745(15) 0.3077(2)
H10 H 0.5348 0.6864 0.3015
C20 C 0.5055(2) 0.78275(15) 0.2721(2)
C21 C 0.5562(2) 0.84224(14) 0.2864(2)
H11 H 0.5210 0.8815 0.2663
C22 C 0.6596(2) 0.84289(15) 0.3307(2)
H12 H 0.6921 0.8829 0.3383
C23 C 0.3973(2) 0.78142(15) 0.2208(2)
H13 H 0.3644 0.8213 0.2131
C24 C 0.3422(2) 0.72836(15) 0.1846(2)
H14 H 0.3753 0.6884 0.1960
C25 C 0.23390(19) 0.72646(15) 0.1283(2)
C26 C 0.1891(2) 0.66622(15) 0.0998(2)
H15 H 0.2263 0.6277 0.1174
C27 C 0.0850(2) 0.66453(15) 0.0429(2)
H16 H 0.0549 0.6236 0.0235
C28 C 0.0738(2) 0.77606(14) 0.0431(2)
H17 H 0.0354 0.8140 0.0236
C29 C 0.1751(2) 0.78238(14) 0.0990(2)
H18 H 0.2039 0.8238 0.1170
Co2 Co 0.87154(3) 0.790603(19) 0.43572(3)
N1 N 0.71270(18) 0.78901(13) 0.3621(2)
N2 N 0.02690(17) 0.71688(12) 0.01502(18)
O10 O 0.86775(15) 0.73474(11) 0.56182(17)
H21 H 0.8194 0.7472 0.5743
H22 H 0.9200 0.7393 0.6162
O11 O 0.86795(18) 0.71152(11) 0.3342(2)
H23 H 0.9091 0.7192 0.3079
H24 H 0.8111 0.7040 0.2830
O12 O 0.88703(14) 0.85313(11) 0.32103(16)
H25 H 0.9227 0.8344 0.2950
H26 H 0.8321 0.8613 0.2726
O13 O 0.86844(17) 0.87452(11) 0.51980(18)
H27 H 0.8969 0.9058 0.5031
H28 H 0.8971 0.8675 0.5848
C18C C 1.6647(2) 0.76751(15) 0.8516(3)
H9C H 1.7021 0.8057 0.8757
C19C C 1.5643(2) 0.77255(15) 0.8077(2)
H10C H 1.5348 0.8136 0.8015
C20C C 1.5055(2) 0.71725(15) 0.7721(2)
C21C C 1.5562(2) 0.65776(14) 0.7864(2)
H11C H 1.5210 0.6185 0.7663
C22C C 1.6596(2) 0.65711(15) 0.8307(2)
H12C H 1.6921 0.6171 0.8383
C23C C 1.3973(2) 0.71858(15) 0.7208(2)
H13C H 1.3644 0.6787 0.7131
C24C C 1.3422(2) 0.77164(15) 0.6846(2)
H14C H 1.3753 0.8116 0.6960
C25C C 1.23390(19) 0.77354(15) 0.6283(2)
C26C C 1.1891(2) 0.83378(15) 0.5998(2)
H15C H 1.2263 0.8723 0.6174
C27C C 1.0850(2) 0.83547(15) 0.5429(2)
H16C H 1.0549 0.8764 0.5235
C28C C 1.0738(2) 0.72394(14) 0.5431(2)
H17C H 1.0354 0.6860 0.5236
C29C C 1.1751(2) 0.71762(14) 0.5990(2)
H18C H 1.2039 0.6762 0.6170
Co2C Co 1.87154(3) 0.709397(19) 0.93572(3)
Co2C_2 Co -0.12846(3) 0.709397(19) -0.06428(3)
N1C N 1.71270(18) 0.71099(13) 0.8621(2)
N2C N 1.02690(17) 0.78312(12) 0.51502(18)
N2_2 N 2.02690(17) 0.71688(12) 1.01502(18)
O10C O 1.86775(15) 0.76526(11) 1.06182(17)
H21C H 1.8194 0.7528 1.0743
H22C H 1.9200 0.7607 1.1162
O11C O 1.86795(18) 0.78848(11) 0.8342(2)
H23C H 1.9091 0.7808 0.8079
H24C H 1.8111 0.7960 0.7830
O12C O 1.88703(14) 0.64687(11) 0.82103(16)
H25C H 1.9227 0.6656 0.7950
H26C H 1.8321 0.6387 0.7726
O13C O 1.86844(17) 0.62548(11) 1.01980(18)
H27C H 1.8969 0.5942 1.0031
H28C H 1.8971 0.6325 1.0848
Co3 Co 1.0000 1.0000 1.0000
O14 O 0.93013(18) 0.93879(13) 0.86892(19)
H29 H 0.9120 0.9039 0.8894
H30 H 0.9685 0.9296 0.8426
O15 O 0.97371(16) 0.92954(11) 1.09661(18)
H31 H 1.0083 0.9388 1.1627
H32 H 0.9146 0.9295 1.0832
O16 O 0.85817(15) 1.03944(11) 0.96541(18)
H33 H 0.8388 1.0483 0.8990
H34 H 0.8045 1.0323 0.9665
O14B O 1.06987(18) 1.06121(13) 1.13108(19)
H29B H 1.0880 1.0961 1.1106
H30B H 1.0315 1.0704 1.1574
O15B O 1.02629(16) 1.07046(11) 0.90339(18)
H31B H 0.9917 1.0612 0.8373
H32B H 1.0854 1.0705 0.9168
O16B O 1.14183(15) 0.96056(11) 1.03459(18)
H33B H 1.1612 0.9517 1.1010
H34B H 1.1955 0.9677 1.0335
O17 O 0.71271(16) 0.75756(12) 0.62459(19)
H35 H 0.6580 0.7783 0.5956
H36 H 0.6995 0.7167 0.6211
O18 O 0.17431(17) 0.49542(11) 0.0727(2)
H37 H 0.1547 0.5204 0.1093
H38 H 0.2372 0.4973 0.0976
O19 O -0.00407(18) 0.61488(13) 0.23373(19)
H39 H 0.0389 0.5868 0.2357
H40 H 0.0231 0.6526 0.2450
O20 O 0.88204(19) 0.48178(12) 0.7644(2)
H41 H 0.9088 0.5172 0.7572
H42 H 0.8289 0.4771 0.7069
O21 O 0.7223(4) 1.0495(3) 0.7598(4)
H43 H 0.6732 1.0721 0.7566
H44 H 0.7025 1.0113 0.7348
O22 O 0.09374(19) 0.96703(14) 0.3660(2)
H45 H 0.1201 0.9750 0.4333
H46 H 0.0929 0.9256 0.3578
O23 O 0.7334(4) 0.9037(3) 0.7540(4)
H47 H 0.7598 0.9410 0.7768
H48 H 0.6867 0.8925 0.7702
loop_
_geom_bond_atom_site_label_1
_geom_bond_atom_site_label_2
_geom_bond_site_symmetry_1
_geom_bond_site_symmetry_2
C1 C2 1_555 1_555
C2 H1 1_555 1_555
C3 C2 1_555 1_555
C4 C3 1_555 1_555
H2 C4 1_555 1_555
C5 C4 1_555 1_555
C6 C1 1_555 1_555
H3 C6 1_555 1_555
C7 C3 1_555 1_555
H4 C7 1_555 1_555
H5 C7 1_555 1_555
C8 C7 1_555 1_555
C9 C8 1_555 1_555
H6 C9 1_555 1_555
C10 C9 1_555 1_555
C11 C10 1_555 1_555
H7 C11 1_555 1_555
C12 C11 1_555 1_555
C13 C8 1_555 1_555
H8 C13 1_555 1_555
C14 C1 1_555 1_555
C15 C5 1_555 1_555
C16 C10 1_555 1_555
C17 C12 1_555 1_555
C18 H9 1_555 1_555
C19 C18 1_555 1_555
H10 C19 1_555 1_555
C20 C19 1_555 1_555
C21 C20 1_555 1_555
H11 C21 1_555 1_555
C22 C21 1_555 1_555
H12 C22 1_555 1_555
C23 C20 1_555 1_555
H13 C23 1_555 1_555
C24 C23 1_555 1_555
H14 C24 1_555 1_555
C25 C24 1_555 1_555
C26 C25 1_555 1_555
H15 C26 1_555 1_555
C27 C26 1_555 1_555
H16 C27 1_555 1_555
C28 H17 1_555 1_555
C29 C25 1_555 1_555
H18 C29 1_555 1_555
Co1 O1 1_555 1_555
Co2 N1 1_555 1_555
Co3 O14 1_555 1_555
N1 C18 1_555 1_555
N2 C27 1_555 1_555
O1 C14 1_555 1_555
O2 C14 1_555 1_555
O3 C15 1_555 1_555
O4 C15 1_555 1_555
O5 C16 1_555 1_555
O6 C16 1_555 1_555
O7 C17 1_555 1_555
O8 C17 1_555 1_555
O9 Co1 1_555 1_555
H19 O9 1_555 1_555
H20 O9 1_555 1_555
O10 Co2 1_555 1_555
H21 O10 1_555 1_555
H22 O10 1_555 1_555
O11 Co2 1_555 1_555
H23 O11 1_555 1_555
H24 O11 1_555 1_555
O12 Co2 1_555 1_555
H25 O12 1_555 1_555
H26 O12 1_555 1_555
O13 Co2 1_555 1_555
H27 O13 1_555 1_555
H28 O13 1_555 1_555
O14 H29 1_555 1_555
H30 O14 1_555 1_555
O15 Co3 1_555 1_555
H31 O15 1_555 1_555
H32 O15 1_555 1_555
O16 Co3 1_555 1_555
H33 O16 1_555 1_555
H34 O16 1_555 1_555
O17 H35 1_555 1_555
H36 O17 1_555 1_555
O18 H37 1_555 1_555
H38 O18 1_555 1_555
O19 H39 1_555 1_555
H40 O19 1_555 1_555
O20 H41 1_555 1_555
H42 O20 1_555 1_555
O21 H43 1_555 1_555
H44 O21 1_555 1_555
O22 H45 1_555 1_555
H46 O22 1_555 1_555
O23 H47 1_555 1_555
H48 O23 1_555 1_555
C1B C2B 1_555 1_555
C2B H1B 1_555 1_555
C3B C2B 1_555 1_555
C4B C3B 1_555 1_555
H2B C4B 1_555 1_555
C5B C4B 1_555 1_555
C6B C1B 1_555 1_555
H3B C6B 1_555 1_555
C7B C3B 1_555 1_555
H4B C7B 1_555 1_555
H5B C7B 1_555 1_555
C8B C7B 1_555 1_555
C9B C8B 1_555 1_555
H6B C9B 1_555 1_555
C10B C9B 1_555 1_555
C11B C10B 1_555 1_555
H7B C11B 1_555 1_555
C12B C11B 1_555 1_555
C13B C8B 1_555 1_555
H8B C13B 1_555 1_555
C14B C1B 1_555 1_555
C15B C5B 1_555 1_555
C16B C10B 1_555 1_555
C17B C12B 1_555 1_555
C18C H9C 1_555 1_555
C19C C18C 1_555 1_555
H10C C19C 1_555 1_555
C20C C19C 1_555 1_555
C21C C20C 1_555 1_555
H11C C21C 1_555 1_555
C22C C21C 1_555 1_555
H12C C22C 1_555 1_555
C23C C20C 1_555 1_555
H13C C23C 1_555 1_555
C24C C23C 1_555 1_555
H14C C24C 1_555 1_555
C25C C24C 1_555 1_555
C26C C25C 1_555 1_555
H15C C26C 1_555 1_555
C27C C26C 1_555 1_555
H16C C27C 1_555 1_555
C28C H17C 1_555 1_555
C29C C25C 1_555 1_555
H18C C29C 1_555 1_555
Co1A O8 1_555 1_555
Co1A_2 O8B 1_555 1_555
Co2C N1C 1_555 1_555
Co2C_2 N2 1_555 1_555
N1C C18C 1_555 1_555
N2C Co2 1_555 1_555
N2_2 Co2C 1_555 1_555
O1B Co1 1_555 1_555
O2B C14B 1_555 1_555
O3B C15B 1_555 1_555
O4B C15B 1_555 1_555
O5B C16B 1_555 1_555
O6B C16B 1_555 1_555
O7B C17B 1_555 1_555
O8B C17B 1_555 1_555
O8A Co1 1_555 1_555
O8C Co1 1_555 1_555
O9B Co1 1_555 1_555
H19B O9B 1_555 1_555
H20B O9B 1_555 1_555
O10C Co2C 1_555 1_555
H21C O10C 1_555 1_555
H22C O10C 1_555 1_555
O11C Co2C 1_555 1_555
H23C O11C 1_555 1_555
H24C O11C 1_555 1_555
O12C Co2C 1_555 1_555
H25C O12C 1_555 1_555
H26C O12C 1_555 1_555
O13C Co2C 1_555 1_555
H27C O13C 1_555 1_555
H28C O13C 1_555 1_555
O14B Co3 1_555 1_555
H29B O14B 1_555 1_555
H30B O14B 1_555 1_555
O15B Co3 1_555 1_555
H31B O15B 1_555 1_555
H32B O15B 1_555 1_555
O16B Co3 1_555 1_555
H33B O16B 1_555 1_555
H34B O16B 1_555 1_555
C5 C6 1_555 1_555
C12 C13 1_555 1_555
C22 N1 1_555 1_555
C28 C29 1_555 1_555
C28 N2 1_555 1_555
C5B C6B 1_555 1_555
C12B C13B 1_555 1_555
C14B O1B 1_555 1_555
C22C N1C 1_555 1_555
C27C N2C 1_555 1_555
C28C C29C 1_555 1_555
C28C N2C 1_555 1_555

#END
