
#######################################################################
#
#                 Cambridge Crystallographic Data Centre
#                                CCDC 
#
#######################################################################
#
# If this CIF has been generated from an entry in the Cambridge 
# Structural Database, then it will include bibliographic, chemical, 
# crystal, experimental, refinement or atomic coordinate data resulting 
# from the CCDC's data processing and validation procedures.
#
#######################################################################

data_OYOSAX
_symmetry_cell_setting           monoclinic
_symmetry_space_group_name_H-M   'P 21/c'
_symmetry_Int_Tables_number      14
_space_group_name_Hall           '-P 2ybc'
loop_
_symmetry_equiv_pos_site_id
_symmetry_equiv_pos_as_xyz
1 x,y,z
2 -x,1/2+y,1/2-z
3 -x,-y,-z
4 x,1/2-y,1/2+z
_cell_length_a                   9.652(2)
_cell_length_b                   22.106(6)
_cell_length_c                   7.5273(17)
_cell_angle_alpha                90
_cell_angle_beta                 110.759(5)
_cell_angle_gamma                90
_cell_volume                     1501.81
loop_
_atom_site_label
_atom_site_type_symbol
_atom_site_fract_x
_atom_site_fract_y
_atom_site_fract_z
Mn1 Mn 0.34969(2) 0.246335(9) 0.36906(3)
O1 O 0.36572(14) 0.30588(5) 0.11680(16)
O2 O 0.47901(15) 0.33404(5) 0.41248(17)
O3 O 0.20701(15) 0.18464(5) 0.18529(18)
O4 O 0.17927(14) 0.19505(5) -0.12023(18)
O5 O 0.55159(16) 0.20230(7) 0.3771(3)
N1 N 0.77870(18) 0.18862(9) 0.3652(3)
C1 C 0.43769(18) 0.34522(7) 0.2393(2)
C2 C 0.46987(18) 0.40627(7) 0.1755(2)
C3 C 0.42857(19) 0.42090(7) -0.0121(2)
H1 H 0.3776 0.3927 -0.1035
C4 C 0.5446(2) 0.44948(8) 0.3154(3)
H2 H 0.5716 0.4397 0.4434
C5 C 0.5772(2) 0.50546(8) 0.2636(3)
H3 H 0.6260 0.5335 0.3571
C6 C 0.46203(18) 0.47863(7) -0.0703(2)
C7 C 0.16865(16) 0.16629(6) 0.0177(2)
C8 C 0.10260(17) 0.10369(7) -0.0210(2)
C9 C 0.06262(19) 0.07476(7) 0.1141(2)
H4 H 0.0727 0.0947 0.2269
C10 C 0.00619(19) 0.01502(7) 0.0853(2)
C11 C 0.0916(2) 0.07334(8) -0.1898(3)
H5 H 0.1202 0.0928 -0.2807
C12 C -0.0391(3) -0.01550(8) 0.2207(3)
H6 H -0.0330 0.0041 0.3325
C13 C 0.6671(2) 0.22171(11) 0.3674(3)
H7 H 0.6764 0.2634 0.3610
C14 C 0.7650(3) 0.12368(14) 0.3610(7)
H8 H 0.6625 0.1127 0.3032
H9 H 0.8034 0.1082 0.4884
H10 H 0.8200 0.1069 0.2887
C15 C 0.9164(3) 0.21476(17) 0.3640(6)
H11 H 0.9095 0.2581 0.3642
H12 H 0.9339 0.2018 0.2520
H13 H 0.9967 0.2017 0.4748
Mn1B Mn 0.65031(2) 0.753665(9) -0.36906(3)
Mn1C Mn 0.34969(2) 0.253665(9) -0.13094(3)
Mn1A Mn 0.65031(2) 0.746335(9) 0.13094(3)
Mn1B_2 Mn -0.34969(2) -0.246335(9) -0.36906(3)
Mn1A_2 Mn -0.34969(2) -0.253665(9) 0.13094(3)
O1B O 0.63428(14) 0.69412(5) -0.11680(16)
O1C O 0.36572(14) 0.19412(5) 0.61680(16)
O1A O 0.63428(14) 0.80588(5) -0.61680(16)
O2B O 0.52099(15) 0.66596(5) -0.41248(17)
O3B O -0.20701(15) -0.18464(5) -0.18529(18)
O3B_2 O 0.79299(15) 0.81536(5) -0.18529(18)
O4B O -0.17927(14) -0.19505(5) 0.12023(18)
O4C O 0.17927(14) 0.30495(5) 0.37977(18)
O4A O 0.82073(14) 0.69505(5) -0.37977(18)
O5B O 0.44841(16) 0.79770(7) -0.3771(3)
N1B N 0.22130(18) 0.81138(9) -0.3652(3)
C1B C 0.56231(18) 0.65478(7) -0.2393(2)
C2B C 0.53013(18) 0.59373(7) -0.1755(2)
C3B C 0.57143(19) 0.57910(7) 0.0121(2)
H1B H 0.6224 0.6073 0.1035
C4B C 0.4554(2) 0.55052(8) -0.3154(3)
H2B H 0.4284 0.5603 -0.4434
C5B C 0.4228(2) 0.49454(8) -0.2636(3)
H3B H 0.3740 0.4665 -0.3571
C6B C 0.53797(18) 0.52137(7) 0.0703(2)
C7B C -0.16865(16) -0.16629(6) -0.0177(2)
C8B C -0.10260(17) -0.10369(7) 0.0210(2)
C9B C -0.06262(19) -0.07476(7) -0.1141(2)
H4B H -0.0727 -0.0947 -0.2269
C10B C -0.00619(19) -0.01502(7) -0.0853(2)
C11B C -0.0916(2) -0.07334(8) 0.1898(3)
H5B H -0.1202 -0.0928 0.2807
C12B C 0.0391(3) 0.01550(8) -0.2207(3)
H6B H 0.0330 -0.0041 -0.3325
C13B C 0.3329(2) 0.77829(11) -0.3674(3)
H7B H 0.3236 0.7366 -0.3610
C14B C 0.2350(3) 0.87632(14) -0.3610(7)
H8B H 0.3375 0.8873 -0.3032
H9B H 0.1966 0.8918 -0.4884
H10B H 0.1800 0.8931 -0.2887
C15B C 0.0836(3) 0.78524(17) -0.3640(6)
H11B H 0.0905 0.7419 -0.3642
H12B H 0.0661 0.7982 -0.2520
H13B H 0.0033 0.7983 -0.4748
loop_
_geom_bond_atom_site_label_1
_geom_bond_atom_site_label_2
_geom_bond_site_symmetry_1
_geom_bond_site_symmetry_2
Mn1 O1 1_555 1_555
O1 C1 1_555 1_555
O2 Mn1 1_555 1_555
O3 Mn1 1_555 1_555
O4 C7 1_555 1_555
O5 Mn1 1_555 1_555
N1 C13 1_555 1_555
C1 O2 1_555 1_555
C2 C1 1_555 1_555
C3 C2 1_555 1_555
H1 C3 1_555 1_555
C4 C2 1_555 1_555
H2 C4 1_555 1_555
C5 C4 1_555 1_555
H3 C5 1_555 1_555
C6 C3 1_555 1_555
C7 O3 1_555 1_555
C8 C7 1_555 1_555
C9 C8 1_555 1_555
H4 C9 1_555 1_555
C10 C9 1_555 1_555
C11 C8 1_555 1_555
H5 C11 1_555 1_555
C12 C10 1_555 1_555
H6 C12 1_555 1_555
C13 O5 1_555 1_555
H7 C13 1_555 1_555
C14 N1 1_555 1_555
H8 C14 1_555 1_555
H9 C14 1_555 1_555
H10 C14 1_555 1_555
C15 N1 1_555 1_555
H11 C15 1_555 1_555
H12 C15 1_555 1_555
H13 C15 1_555 1_555
Mn1B O1B 1_555 1_555
Mn1C O1 1_555 1_555
Mn1A O1B 1_555 1_555
Mn1B_2 O3B 1_555 1_555
Mn1A_2 O4B 1_555 1_555
O1B C1B 1_555 1_555
O1C Mn1 1_555 1_555
O1A Mn1B 1_555 1_555
O2B Mn1B 1_555 1_555
O3B C7B 1_555 1_555
O3B_2 Mn1B 1_555 1_555
O4B C7B 1_555 1_555
O4C Mn1 1_555 1_555
O4A Mn1B 1_555 1_555
O5B Mn1B 1_555 1_555
N1B C13B 1_555 1_555
C1B O2B 1_555 1_555
C2B C1B 1_555 1_555
C3B C2B 1_555 1_555
H1B C3B 1_555 1_555
C4B C2B 1_555 1_555
H2B C4B 1_555 1_555
C5B C6 1_555 1_555
H3B C5B 1_555 1_555
C6B C5 1_555 1_555
C7B C8B 1_555 1_555
C8B C9B 1_555 1_555
C9B H4B 1_555 1_555
C10B C10 1_555 1_555
C11B C12 1_555 1_555
H5B C11B 1_555 1_555
C12B C11 1_555 1_555
H6B C12B 1_555 1_555
C13B O5B 1_555 1_555
H7B C13B 1_555 1_555
C14B N1B 1_555 1_555
H8B C14B 1_555 1_555
H9B C14B 1_555 1_555
H10B C14B 1_555 1_555
C15B N1B 1_555 1_555
H11B C15B 1_555 1_555
H12B C15B 1_555 1_555
H13B C15B 1_555 1_555
O4 Mn1C 1_555 1_555
C6 C6B 1_555 1_555
C3B C6B 1_555 1_555
C4B C5B 1_555 1_555
C8B C11B 1_555 1_555
C9B C10B 1_555 1_555
C10B C12B 1_555 1_555

#END
