
#######################################################################
#
#                 Cambridge Crystallographic Data Centre
#                                CCDC 
#
#######################################################################
#
# If this CIF has been generated from an entry in the Cambridge 
# Structural Database, then it will include bibliographic, chemical, 
# crystal, experimental, refinement or atomic coordinate data resulting 
# from the CCDC's data processing and validation procedures.
#
#######################################################################

data_OYOTAY
_symmetry_cell_setting           monoclinic
_symmetry_space_group_name_H-M   'C c'
_symmetry_Int_Tables_number      9
_space_group_name_Hall           'C -2yc'
loop_
_symmetry_equiv_pos_site_id
_symmetry_equiv_pos_as_xyz
1 x,y,z
2 x,-y,1/2+z
3 1/2+x,1/2+y,z
4 1/2+x,1/2-y,1/2+z
_cell_length_a                   11.873(3)
_cell_length_b                   19.291(5)
_cell_length_c                   27.158(7)
_cell_angle_alpha                90
_cell_angle_beta                 100.933(5)
_cell_angle_gamma                90
_cell_volume                     6107.42
loop_
_atom_site_label
_atom_site_type_symbol
_atom_site_fract_x
_atom_site_fract_y
_atom_site_fract_z
C1 C 1.0673(5) 0.8275(2) 0.8593(2)
C2 C 1.1647(4) 0.8499(2) 0.8920(2)
H1 H 1.1619 0.8571 0.9256
C3 C 1.2649(4) 0.8616(3) 0.8754(2)
C4 C 1.2720(5) 0.8515(3) 0.8254(2)
H2 H 1.3398 0.8601 0.8140
C5 C 1.1723(4) 0.8276(2) 0.79196(19)
C6 C 1.0725(4) 0.8164(2) 0.81062(17)
H3 H 1.0072 0.8009 0.7889
C7 C 1.3764(4) 0.8828(3) 0.9138(2)
H4 H 1.3958 0.8459 0.9382
H5 H 1.4394 0.8875 0.8959
C8 C 1.3641(4) 0.9496(2) 0.94113(18)
C9 C 1.3504(4) 0.9467(2) 0.9898(2)
H6 H 1.3477 0.9038 1.0052
C10 C 1.3404(5) 1.0070(3) 1.0169(3)
C11 C 1.3425(4) 1.0722(2) 0.9928(2)
H7 H 1.3396 1.1130 1.0107
C12 C 1.3492(5) 1.0747(3) 0.9397(2)
C13 C 1.3645(4) 1.0117(3) 0.9167(2)
H8 H 1.3753 1.0118 0.8837
C14 C 0.9622(4) 0.8106(3) 0.8776(2)
C15 C 1.1822(5) 0.8149(3) 0.7382(2)
C16 C 1.3230(5) 1.0088(3) 1.0701(2)
C17 C 1.3360(5) 1.1420(3) 0.9121(2)
C18 C 0.6765(5) 0.9770(3) 0.9404(2)
C19 C 0.6650(4) 0.9860(2) 0.99061(19)
H9 H 0.6702 0.9479 1.0119
C20 C 0.6457(5) 1.0525(3) 1.0087(2)
C21 C 0.6369(5) 1.1082(3) 0.9755(2)
H10 H 0.6214 1.1520 0.9869
C22 C 0.6502(5) 1.1012(3) 0.92679(19)
C23 C 0.6672(5) 1.0358(3) 0.9098(2)
H11 H 0.6729 1.0303 0.8763
C24 C 0.6370(5) 1.1641(3) 0.8927(2)
H12 H 0.6334 1.2055 0.9126
H13 H 0.5654 1.1605 0.8687
C25 C 0.7221(5) 1.1505(3) 0.8144(2)
H14 H 0.6511 1.1339 0.7983
C26 C 0.7357(4) 1.1709(3) 0.8646(2)
C27 C 0.8392(5) 1.1942(3) 0.8880(2)
H15 H 0.8499 1.2056 0.9218
C28 C 0.9308(4) 1.2017(3) 0.8628(2)
C29 C 0.9169(5) 1.1810(3) 0.8130(2)
H16 H 0.9777 1.1847 0.7961
C30 C 0.8096(5) 1.1541(3) 0.7881(2)
C31 C 0.7026(4) 0.9076(3) 0.9205(2)
C32 C 0.6311(5) 1.0629(3) 1.0619(2)
C33 C 1.0425(4) 1.2317(2) 0.8884(2)
C34 C 0.7968(5) 1.1357(3) 0.7330(2)
Co1 Co 0.76650(9) 0.78265(3) 0.90043(5)
O1 O 0.8654(3) 0.80308(17) 0.84709(14)
O2 O 0.9635(4) 0.8059(2) 0.92481(16)
O3 O 1.0938(4) 0.7965(2) 0.70910(17)
O4 O 1.2797(4) 0.8214(2) 0.72584(16)
O5 O 1.3246(3) 0.95019(19) 1.09242(15)
O6 O 1.3056(4) 1.06613(19) 1.08932(16)
O7 O 1.3158(3) 1.19299(17) 0.93683(16)
O8 O 1.3398(3) 1.14059(19) 0.86718(14)
O9 O 0.7385(3) 0.85857(18) 0.95208(15)
O10 O 0.6952(3) 0.89982(18) 0.87587(15)
O11 O 0.5987(3) 1.12108(19) 1.07400(16)
O12 O 0.6527(4) 1.0135(2) 1.09143(16)
O13 O 1.1114(3) 1.25218(18) 0.86116(15)
O14 O 1.0646(4) 1.2339(2) 0.93479(17)
O15 O 0.8758(3) 1.14689(18) 0.71179(15)
O16 O 0.6970(4) 1.1139(2) 0.71286(17)
Co1B Co 1.26650(9) 1.28265(3) 0.90043(5)
O7B O 0.8158(3) 0.69299(17) 0.93683(16)
O13B O 0.6114(3) 0.75218(18) 0.86116(15)
C35 C -0.0555(5) -0.0149(3) 0.7407(2)
H17 H -0.1237 -0.0287 0.7203
C36 C -0.0538(5) -0.0068(3) 0.7919(2)
H18 H -0.1192 -0.0159 0.8050
C37 C 0.0450(5) 0.0145(3) 0.8227(2)
C38 C 0.1370(5) 0.0277(3) 0.8011(2)
H19 H 0.2046 0.0437 0.8209
C39 C 0.1320(5) 0.0177(3) 0.74937(19)
H20 H 0.1968 0.0262 0.7357
C40 C 0.0587(5) 0.0255(3) 0.8779(2)
H21 H 0.0834 0.0728 0.8855
H22 H 0.1191 -0.0049 0.8947
C41 C -0.0487(5) 0.0123(3) 0.8994(2)
H23 H -0.0821 -0.0316 0.8869
H24 H -0.1044 0.0484 0.8879
C42 C -0.0239(5) 0.0109(3) 0.9566(2)
C43 C -0.0224(5) 0.0741(3) 0.9848(2)
H25 H -0.0318 0.1168 0.9687
C44 C -0.0075(5) 0.0699(3) 1.0344(2)
H26 H -0.0088 0.1110 1.0522
C45 C 0.0115(5) -0.0473(3) 1.0332(2)
H27 H 0.0232 -0.0892 1.0502
C46 C -0.0021(5) -0.0486(3) 0.9833(2)
H28 H 0.0033 -0.0904 0.9669
Co2 Co 0.02384(10) -0.00597(4) 0.63991(5)
N1 N 0.0352(4) -0.0038(2) 0.71946(17)
N2 N 0.0093(4) 0.0110(2) 1.06047(19)
O17 O 0.1567(4) 0.06660(19) 0.64533(14)
H29 H 0.1308 0.1061 0.6516
H30 H 0.1904 0.0703 0.6205
O18 O -0.1007(4) 0.0715(2) 0.63143(16)
H31 H -0.0912 0.0958 0.6580
H32 H -0.0949 0.0961 0.6074
O19 O 0.1456(3) -0.08192(19) 0.64422(16)
H33 H 0.1834 -0.0838 0.6741
H34 H 0.1891 -0.0733 0.6249
O20 O -0.1150(3) -0.0792(2) 0.63029(16)
H35 H -0.0843 -0.1253 0.6334
H36 H -0.1618 -0.0733 0.5976
Co2A Co 0.02384(10) 0.00597(4) 1.13991(5)
N2A N 0.0093(4) -0.0110(2) 0.56047(19)
Co3 Co 0.58200(10) 0.89753(3) 0.72783(5)
O21 O 0.5721(3) 0.83477(17) 0.66499(15)
H37 H 0.5972 0.7946 0.6741
H38 H 0.6057 0.8493 0.6420
O22 O 0.6459(4) 0.97462(19) 0.68853(16)
H39 H 0.5986 1.0081 0.6837
H40 H 0.6561 0.9595 0.6615
O23 O 0.5968(4) 0.96256(19) 0.78879(14)
H41 H 0.5298 0.9722 0.7935
H42 H 0.6334 0.9432 0.8137
O24 O 0.5141(3) 0.81638(19) 0.76437(16)
H43 H 0.5387 0.8196 0.7958
H44 H 0.4439 0.8183 0.7584
O25 O 0.4154(3) 0.93504(19) 0.69971(15)
H45 H 0.3675 0.9096 0.7109
H46 H 0.4031 0.9333 0.6690
O26 O 0.7377(3) 0.8651(2) 0.76044(16)
H47 H 0.7791 0.8663 0.7381
H48 H 0.7743 0.8827 0.7875
Co4 Co 0.18368(10) 0.71935(3) 0.57908(5)
O27 O 0.0566(3) 0.76243(18) 0.61176(15)
H49 H 0.0516 0.8055 0.6051
H50 H 0.0748 0.7578 0.6434
O28 O 0.1505(3) 0.62910(19) 0.61309(15)
H51 H 0.2088 0.6178 0.6350
H52 H 0.1361 0.5984 0.5919
O29 O 0.3138(3) 0.67278(17) 0.54989(14)
H53 H 0.2846 0.6431 0.5280
H54 H 0.3489 0.7021 0.5370
O30 O 0.1965(3) 0.80909(18) 0.53905(15)
H55 H 0.2361 0.8388 0.5580
H56 H 0.2275 0.8002 0.5153
O31 O 0.0600(4) 0.6859(2) 0.51835(17)
H57 H 0.0683 0.7082 0.4923
H58 H -0.0044 0.6929 0.5241
O32 O 0.3090(3) 0.7571(2) 0.63876(16)
H59 H 0.3448 0.7233 0.6545
H60 H 0.2761 0.7796 0.6590
O33 O 0.4827(3) 0.75400(18) 0.52946(14)
H61 H 0.4993 0.7878 0.5496
H62 H 0.4594 0.7657 0.4991
O34 O 0.1006(4) 0.1906(2) 0.68947(16)
H63 H 0.1528 0.1938 0.7155
H64 H 0.0350 0.1881 0.6975
O35 O 0.4340(4) 0.0595(2) 0.79287(16)
H65 H 0.4345 0.0812 0.7657
H66 H 0.4537 0.0862 0.8180
O36 O 0.8353(4) 0.6965(2) 0.56912(16)
H67 H 0.8971 0.7168 0.5825
H68 H 0.8388 0.6548 0.5794
O37 O 0.8673(4) 0.7921(2) 0.68958(17)
H69 H 0.8382 0.7705 0.7115
H70 H 0.9401 0.7929 0.6968
O38 O 0.2675(4) 0.1945(2) 0.77203(17)
H71 H 0.2804 0.1729 0.7998
H72 H 0.2680 0.2374 0.7792
O39 O 0.4467(4) 0.1274(2) 0.69835(17)
H73 H 0.5190 0.1258 0.7006
H74 H 0.4127 0.1042 0.6733
loop_
_geom_bond_atom_site_label_1
_geom_bond_atom_site_label_2
_geom_bond_site_symmetry_1
_geom_bond_site_symmetry_2
C1 C2 1_555 1_555
C2 H1 1_555 1_555
C3 C2 1_555 1_555
C4 C3 1_555 1_555
H2 C4 1_555 1_555
C5 C4 1_555 1_555
C6 C1 1_555 1_555
H3 C6 1_555 1_555
C7 C3 1_555 1_555
H4 C7 1_555 1_555
H5 C7 1_555 1_555
C8 C7 1_555 1_555
C9 C8 1_555 1_555
H6 C9 1_555 1_555
C10 C9 1_555 1_555
C11 C10 1_555 1_555
H7 C11 1_555 1_555
C12 C11 1_555 1_555
C13 C8 1_555 1_555
H8 C13 1_555 1_555
C14 C1 1_555 1_555
C15 C5 1_555 1_555
C16 C10 1_555 1_555
C17 C12 1_555 1_555
C18 C19 1_555 1_555
C19 H9 1_555 1_555
C20 C19 1_555 1_555
C21 C20 1_555 1_555
H10 C21 1_555 1_555
C22 C21 1_555 1_555
C23 C18 1_555 1_555
H11 C23 1_555 1_555
C24 C22 1_555 1_555
H12 C24 1_555 1_555
H13 C24 1_555 1_555
C25 H14 1_555 1_555
C26 C24 1_555 1_555
C27 C26 1_555 1_555
H15 C27 1_555 1_555
C28 C27 1_555 1_555
C29 C28 1_555 1_555
H16 C29 1_555 1_555
C30 C25 1_555 1_555
C31 C18 1_555 1_555
C32 C20 1_555 1_555
C33 C28 1_555 1_555
C34 C30 1_555 1_555
C35 H17 1_555 1_555
C36 C35 1_555 1_555
H18 C36 1_555 1_555
C37 C36 1_555 1_555
C38 C37 1_555 1_555
H19 C38 1_555 1_555
C39 C38 1_555 1_555
H20 C39 1_555 1_555
C40 C37 1_555 1_555
H21 C40 1_555 1_555
H22 C40 1_555 1_555
C41 C40 1_555 1_555
H23 C41 1_555 1_555
H24 C41 1_555 1_555
C42 C41 1_555 1_555
C43 C42 1_555 1_555
H25 C43 1_555 1_555
C44 C43 1_555 1_555
H26 C44 1_555 1_555
C45 H27 1_555 1_555
C46 C42 1_555 1_555
H28 C46 1_555 1_555
Co1 O1 1_555 1_555
Co2 N1 1_555 1_555
Co3 O21 1_555 1_555
Co4 O27 1_555 1_555
N1 C35 1_555 1_555
N2 C44 1_555 1_555
O1 C14 1_555 1_555
O2 C14 1_555 1_555
O3 C15 1_555 1_555
O4 C15 1_555 1_555
O5 C16 1_555 1_555
O6 C16 1_555 1_555
O7 C17 1_555 1_555
O8 C17 1_555 1_555
O9 C31 1_555 1_555
O10 C31 1_555 1_555
O11 C32 1_555 1_555
O12 C32 1_555 1_555
O13 C33 1_555 1_555
O14 C33 1_555 1_555
O15 C34 1_555 1_555
O16 C34 1_555 1_555
O17 Co2 1_555 1_555
H29 O17 1_555 1_555
H30 O17 1_555 1_555
O18 Co2 1_555 1_555
H31 O18 1_555 1_555
H32 O18 1_555 1_555
O19 Co2 1_555 1_555
H33 O19 1_555 1_555
H34 O19 1_555 1_555
O20 Co2 1_555 1_555
H35 O20 1_555 1_555
H36 O20 1_555 1_555
O21 H37 1_555 1_555
H38 O21 1_555 1_555
O22 Co3 1_555 1_555
H39 O22 1_555 1_555
H40 O22 1_555 1_555
O23 Co3 1_555 1_555
H41 O23 1_555 1_555
H42 O23 1_555 1_555
O24 Co3 1_555 1_555
H43 O24 1_555 1_555
H44 O24 1_555 1_555
O25 Co3 1_555 1_555
H45 O25 1_555 1_555
H46 O25 1_555 1_555
O26 Co3 1_555 1_555
H47 O26 1_555 1_555
H48 O26 1_555 1_555
O27 H49 1_555 1_555
H50 O27 1_555 1_555
O28 Co4 1_555 1_555
H51 O28 1_555 1_555
H52 O28 1_555 1_555
O29 Co4 1_555 1_555
H53 O29 1_555 1_555
H54 O29 1_555 1_555
O30 Co4 1_555 1_555
H55 O30 1_555 1_555
H56 O30 1_555 1_555
O31 Co4 1_555 1_555
H57 O31 1_555 1_555
H58 O31 1_555 1_555
O32 Co4 1_555 1_555
H59 O32 1_555 1_555
H60 O32 1_555 1_555
O33 H61 1_555 1_555
H62 O33 1_555 1_555
O34 H63 1_555 1_555
H64 O34 1_555 1_555
O35 H65 1_555 1_555
H66 O35 1_555 1_555
O36 H67 1_555 1_555
H68 O36 1_555 1_555
O37 H69 1_555 1_555
H70 O37 1_555 1_555
O38 H71 1_555 1_555
H72 O38 1_555 1_555
O39 H73 1_555 1_555
H74 O39 1_555 1_555
Co1B O7 1_555 1_555
Co2A N2 1_555 1_555
N2A Co2 1_555 1_555
O7B Co1 1_555 1_555
O13B Co1 1_555 1_555
C5 C6 1_555 1_555
C12 C13 1_555 1_555
C22 C23 1_555 1_555
C25 C26 1_555 1_555
C29 C30 1_555 1_555
C39 N1 1_555 1_555
C45 C46 1_555 1_555
C45 N2 1_555 1_555
Co1 O2 1_555 1_555
Co1 O9 1_555 1_555
O13 Co1B 1_555 1_555

#END
