
#######################################################################
#
#                 Cambridge Crystallographic Data Centre
#                                CCDC 
#
#######################################################################
#
# If this CIF has been generated from an entry in the Cambridge 
# Structural Database, then it will include bibliographic, chemical, 
# crystal, experimental, refinement or atomic coordinate data resulting 
# from the CCDC's data processing and validation procedures.
#
#######################################################################

data_OYOTOM
_symmetry_cell_setting           monoclinic
_symmetry_space_group_name_H-M   'C 2'
_symmetry_Int_Tables_number      5
_space_group_name_Hall           'C 2y'
loop_
_symmetry_equiv_pos_site_id
_symmetry_equiv_pos_as_xyz
1 x,y,z
2 -x,y,-z
3 1/2+x,1/2+y,z
4 1/2-x,1/2+y,-z
_cell_length_a                   29.406(3)
_cell_length_b                   11.4951(12)
_cell_length_c                   19.0459(19)
_cell_angle_alpha                90
_cell_angle_beta                 110.651(2)
_cell_angle_gamma                90
_cell_volume                     6024.32
loop_
_atom_site_label
_atom_site_type_symbol
_atom_site_fract_x
_atom_site_fract_y
_atom_site_fract_z
C1 C 0.71725(15) 0.7397(4) 0.5865(2)
C2 C 0.74863(14) 0.6613(4) 0.5746(2)
H1 H 0.7814 0.6644 0.6041
C3 C 0.73223(15) 0.5769(4) 0.5191(2)
C4 C 0.68284(14) 0.5724(4) 0.4760(2)
H2 H 0.6716 0.5158 0.4390
C5 C 0.65049(14) 0.6502(4) 0.4873(2)
C6 C 0.66776(14) 0.7342(4) 0.5430(2)
H3 H 0.6463 0.7870 0.5513
C7 C 0.76872(16) 0.4919(4) 0.5070(2)
H4 H 0.7513 0.4405 0.4659
H5 H 0.7917 0.5360 0.4915
C8 C 0.79707(13) 0.4178(3) 0.5736(2)
C9 C 0.84409(15) 0.4487(4) 0.6161(2)
H6 H 0.8584 0.5125 0.6022
C10 C 0.87033(15) 0.3846(4) 0.6801(2)
C11 C 0.84776(16) 0.2870(4) 0.7002(2)
H7 H 0.8653 0.2408 0.7408
C12 C 0.79991(13) 0.2609(3) 0.6595(2)
C13 C 0.77491(13) 0.3277(4) 0.5968(2)
H8 H 0.7425 0.3110 0.5699
C14 C 0.73405(14) 0.8262(3) 0.6477(2)
C15 C 0.59653(14) 0.6446(4) 0.4437(2)
C16 C 0.92239(14) 0.4136(4) 0.7268(2)
C17 C 0.77569(14) 0.1671(3) 0.6836(2)
C18 C 0.79394(14) 0.7258(4) 0.9270(2)
C19 C 0.76057(14) 0.6450(4) 0.9322(2)
H9 H 0.7289 0.6481 0.8980
C20 C 0.77233(13) 0.5617(3) 0.9853(2)
C21 C 0.81984(14) 0.5592(4) 1.0374(2)
H10 H 0.8284 0.5014 1.0739
C22 C 0.85463(14) 0.6400(4) 1.0364(2)
C23 C 0.84102(16) 0.7222(4) 0.9799(2)
H11 H 0.8638 0.7765 0.9771
C24 C 0.73630(13) 0.4759(4) 0.99705(19)
H12 H 0.7542 0.4181 1.0334
H13 H 0.7154 0.5173 1.0182
C25 C 0.70480(14) 0.4141(3) 0.9266(2)
C26 C 0.72059(14) 0.3119(3) 0.9035(2)
H14 H 0.7515 0.2843 0.9307
C27 C 0.69194(14) 0.2500(3) 0.8416(2)
C28 C 0.64607(13) 0.2961(3) 0.79993(19)
H15 H 0.6270 0.2587 0.7561
C29 C 0.62870(13) 0.3942(3) 0.8221(2)
C30 C 0.65895(14) 0.4519(4) 0.8873(2)
H16 H 0.6472 0.5176 0.9038
C31 C 0.77990(14) 0.8168(4) 0.8660(2)
C32 C 0.90340(14) 0.6397(4) 1.0957(2)
C33 C 0.70749(13) 0.1406(3) 0.81732(19)
C34 C 0.57819(13) 0.4339(3) 0.7802(2)
Mn1 Mn 0.753550(19) 0.98004(8) 0.75979(3)
Mn2 Mn 0.89745(2) 0.50428(8) 1.24460(3)
O1 O 0.70452(9) 0.8914(2) 0.66135(13)
O2 O 0.77813(10) 0.8302(3) 0.68877(15)
O3 O 0.56859(10) 0.6979(3) 0.46538(17)
O4 O 0.58331(10) 0.5858(2) 0.38423(15)
O5 O 0.94208(10) 0.4992(3) 0.70931(16)
H29 H 0.9702 0.4743 0.6988
O6 O 0.94310(9) 0.3502(3) 0.78236(14)
O7 O 0.80251(11) 0.0899(2) 0.72791(16)
O8 O 0.73219(10) 0.1610(3) 0.66563(15)
O9 O 0.81147(9) 0.8834(2) 0.85747(14)
O10 O 0.73599(10) 0.8316(3) 0.82760(14)
O11 O 0.93546(11) 0.7080(3) 1.09022(17)
O12 O 0.91158(9) 0.5649(3) 1.14781(15)
O13 O 0.75198(9) 0.1172(3) 0.83673(15)
O14 O 0.67574(10) 0.0726(2) 0.77503(15)
O15 O 0.56250(9) 0.5218(2) 0.80188(14)
O16 O 0.55366(9) 0.3720(3) 0.72587(17)
O17 O 0.86077(9) 0.3516(3) 1.18294(15)
H30 H 0.8345 0.3723 1.1489
H31 H 0.8538 0.3061 1.2128
O18 O 0.94214(10) 0.6419(3) 1.31594(15)
H32 H 0.9556 0.6904 1.2870
H33 H 0.9680 0.6071 1.3565
O19 O 0.96420(9) 0.4067(3) 1.27128(15)
H34 H 0.9662 0.3811 1.3141
H35 H 0.9537 0.3461 1.2449
O20 O 0.88932(10) 0.4351(3) 1.34604(15)
H36 H 0.8590 0.3944 1.3331
H37 H 0.8898 0.4981 1.3794
C1_2 C 0.71725(15) 1.7397(4) 0.5865(2)
C2_2 C 0.74863(14) 1.6613(4) 0.5746(2)
H1_2 H 0.7814 1.6644 0.6041
C3_2 C 0.73223(15) 1.5769(4) 0.5191(2)
C4_2 C 0.68284(14) 1.5724(4) 0.4760(2)
H2_2 H 0.6716 1.5158 0.4390
C5_2 C 0.65049(14) 1.6502(4) 0.4873(2)
C6_2 C 0.66776(14) 1.7342(4) 0.5430(2)
H3_2 H 0.6463 1.7870 0.5513
C7_2 C 0.76872(16) 1.4919(4) 0.5070(2)
H4_2 H 0.7513 1.4405 0.4659
H5_2 H 0.7917 1.5360 0.4915
C8_2 C 0.79707(13) 1.4178(3) 0.5736(2)
C9_2 C 0.84409(15) 1.4487(4) 0.6161(2)
H6_2 H 0.8584 1.5125 0.6022
C10_2 C 0.87033(15) 1.3846(4) 0.6801(2)
C11_2 C 0.84776(16) 1.2870(4) 0.7002(2)
H7_2 H 0.8653 1.2408 0.7408
C12_2 C 0.79991(13) 1.2609(3) 0.6595(2)
C13_2 C 0.77491(13) 1.3277(4) 0.5968(2)
H8_2 H 0.7425 1.3110 0.5699
C14_2 C 0.73405(14) 1.8262(3) 0.6477(2)
C15_2 C 0.59653(14) 1.6446(4) 0.4437(2)
C16_2 C 0.92239(14) 1.4136(4) 0.7268(2)
C17_2 C 0.77569(14) 1.1671(3) 0.6836(2)
C18_2 C 0.79394(14) 1.7258(4) 0.9270(2)
C19_2 C 0.76057(14) 1.6450(4) 0.9322(2)
H9_2 H 0.7289 1.6481 0.8980
C20_2 C 0.77233(13) 1.5617(3) 0.9853(2)
C21_2 C 0.81984(14) 1.5592(4) 1.0374(2)
H10_2 H 0.8284 1.5014 1.0739
C22_2 C 0.85463(14) 1.6400(4) 1.0364(2)
C23_2 C 0.84102(16) 1.7222(4) 0.9799(2)
H11_2 H 0.8638 1.7765 0.9771
C24_2 C 0.73630(13) 1.4759(4) 0.99705(19)
H12_2 H 0.7542 1.4181 1.0334
H13_2 H 0.7154 1.5173 1.0182
C25_2 C 0.70480(14) 1.4141(3) 0.9266(2)
C26_2 C 0.72059(14) 1.3119(3) 0.9035(2)
H14_2 H 0.7515 1.2843 0.9307
C27_2 C 0.69194(14) 1.2500(3) 0.8416(2)
C28_2 C 0.64607(13) 1.2961(3) 0.79993(19)
H15_2 H 0.6270 1.2587 0.7561
C29_2 C 0.62870(13) 1.3942(3) 0.8221(2)
C30_2 C 0.65895(14) 1.4519(4) 0.8873(2)
H16_2 H 0.6472 1.5176 0.9038
C31_2 C 0.77990(14) 1.8168(4) 0.8660(2)
C32_2 C 0.90340(14) 1.6397(4) 1.0957(2)
C33_2 C 0.70749(13) 1.1406(3) 0.81732(19)
C34_2 C 0.57819(13) 1.4339(3) 0.7802(2)
Mn1_2 Mn 0.753550(19) 1.98004(8) 0.75979(3)
Mn1_3 Mn 0.753550(19) -0.01996(8) 0.75979(3)
Mn2_2 Mn 0.89745(2) 1.50428(8) 1.24460(3)
Mn2C Mn 0.60255(2) 0.00428(8) 0.75540(3)
Mn2C_2 Mn 0.60255(2) 1.00428(8) 0.75540(3)
O1_2 O 0.70452(9) 1.8914(2) 0.66135(13)
O2_2 O 0.77813(10) 1.8302(3) 0.68877(15)
O3_2 O 0.56859(10) 1.6979(3) 0.46538(17)
O4_2 O 0.58331(10) 1.5858(2) 0.38423(15)
O5_2 O 0.94208(10) 1.4992(3) 0.70931(16)
H29_2 H 0.9702 1.4743 0.6988
O6_2 O 0.94310(9) 1.3502(3) 0.78236(14)
O7_2 O 0.80251(11) 1.0899(2) 0.72791(16)
O7_3 O 0.80251(11) 2.0899(2) 0.72791(16)
O8_2 O 0.73219(10) 1.1610(3) 0.66563(15)
O9_2 O 0.81147(9) 1.8834(2) 0.85747(14)
O10_2 O 0.73599(10) 1.8316(3) 0.82760(14)
O11_2 O 0.93546(11) 1.7080(3) 1.09022(17)
O12_2 O 0.91158(9) 1.5649(3) 1.14781(15)
O13_2 O 0.75198(9) 1.1172(3) 0.83673(15)
O13_3 O 0.75198(9) 2.1172(3) 0.83673(15)
O14_2 O 0.67574(10) 1.0726(2) 0.77503(15)
O14C O 0.82426(10) 0.5726(2) 1.22497(15)
O14_3 O 0.67574(10) 2.0726(2) 0.77503(15)
O14C_2 O 0.82426(10) 1.5726(2) 1.22497(15)
O15_2 O 0.56250(9) 1.5218(2) 0.80188(14)
O16_2 O 0.55366(9) 1.3720(3) 0.72587(17)
O17_2 O 0.86077(9) 1.3516(3) 1.18294(15)
H30_2 H 0.8345 1.3723 1.1489
H31_2 H 0.8538 1.3061 1.2128
O18_2 O 0.94214(10) 1.6419(3) 1.31594(15)
H32_2 H 0.9556 1.6904 1.2870
H33_2 H 0.9680 1.6071 1.3565
O19_2 O 0.96420(9) 1.4067(3) 1.27128(15)
H34_2 H 0.9662 1.3811 1.3141
H35_2 H 0.9537 1.3461 1.2449
O20_2 O 0.88932(10) 1.4351(3) 1.34604(15)
H36_2 H 0.8590 1.3944 1.3331
H37_2 H 0.8898 1.4981 1.3794
C35 C 0.40259(17) 1.0422(5) -0.1197(2)
H17 H 0.4227 1.1026 -0.1234
C36 C 0.35441(17) 1.0399(5) -0.1688(3)
H18 H 0.3429 1.0957 -0.2062
C37 C 0.32437(14) 0.9543(4) -0.1608(2)
C38 C 0.34318(14) 0.8729(4) -0.1083(2)
H19 H 0.3238 0.8124 -0.1026
C39 C 0.39135(15) 0.8791(4) -0.0628(3)
H20 H 0.4035 0.8219 -0.0265
C40 C 0.27130(15) 0.9472(4) -0.2068(2)
H21 H 0.2648 0.8708 -0.2298
H22 H 0.2532 0.9532 -0.1730
C41 C 0.25196(15) 1.0355(4) -0.2668(2)
H23 H 0.2651 1.0215 -0.3061
H24 H 0.2621 1.1124 -0.2463
C42 C 0.12251(15) 0.9491(4) -0.3806(2)
H25 H 0.1057 0.8884 -0.4109
C43 C 0.17227(15) 0.9403(4) -0.3467(2)
H26 H 0.1892 0.8765 -0.3549
C44 C 0.19592(15) 1.0303(4) -0.3001(2)
C45 C 0.16961(16) 1.1206(4) -0.2899(2)
H27 H 0.1851 1.1809 -0.2578
C46 C 0.12090(15) 1.1243(4) -0.3260(2)
H28 H 0.1033 1.1873 -0.3186
Mn3 Mn 0.5000 0.95511(10) 0.0000
N1 N 0.42056(12) 0.9601(4) -0.06779(19)
N2 N 0.09795(13) 1.0396(4) -0.3718(2)
O21 O 0.5000 1.1423(4) 0.0000
H38 H 0.4736 1.1701 0.0140
O22 O 0.48473(11) 0.9421(3) 0.10585(16)
H39 H 0.4544 0.9321 0.0954
H40 H 0.4997 0.8868 0.1304
O23 O 0.5000 0.7675(4) 0.0000
H41 H 0.4788 0.7398 -0.0394
C35A C 0.59741(17) 1.0422(5) 0.1197(2)
H17A H 0.5773 1.1026 0.1234
C36A C 0.64559(17) 1.0399(5) 0.1688(3)
H18A H 0.6571 1.0957 0.2062
C37A C 0.67563(14) 0.9543(4) 0.1608(2)
C38A C 0.65682(14) 0.8729(4) 0.1083(2)
H19A H 0.6762 0.8124 0.1026
C39A C 0.60865(15) 0.8791(4) 0.0628(3)
H20A H 0.5965 0.8219 0.0265
C40A C 0.72870(15) 0.9472(4) 0.2068(2)
H21A H 0.7352 0.8708 0.2298
H22A H 0.7468 0.9532 0.1730
C41A C 0.74804(15) 1.0355(4) 0.2668(2)
H23A H 0.7349 1.0215 0.3061
H24A H 0.7379 1.1124 0.2463
C42A C 0.87749(15) 0.9491(4) 0.3806(2)
H25A H 0.8943 0.8884 0.4109
C43A C 0.82773(15) 0.9403(4) 0.3467(2)
H26A H 0.8108 0.8765 0.3549
C44A C 0.80408(15) 1.0303(4) 0.3001(2)
C45A C 0.83039(16) 1.1206(4) 0.2899(2)
H27A H 0.8149 1.1809 0.2578
C46A C 0.87910(15) 1.1243(4) 0.3260(2)
H28A H 0.8967 1.1873 0.3186
N1A N 0.57944(12) 0.9601(4) 0.06779(19)
N2A N 0.90205(13) 1.0396(4) 0.3718(2)
H38A H 0.5264 1.1701 -0.0140
O22A O 0.51527(11) 0.9421(3) -0.10585(16)
H39A H 0.5456 0.9321 -0.0954
H40A H 0.5003 0.8868 -0.1304
H41A H 0.5212 0.7398 0.0394
Mn4 Mn 0.92829(2) 0.85323(9) 0.76462(3)
O24 O 0.95661(9) 0.8817(3) 0.67465(16)
H43 H 0.9467 0.9470 0.6539
H44 H 0.9865 0.8810 0.6917
O25 O 0.88747(12) 1.0136(3) 0.72318(15)
H45 H 0.8899 1.0588 0.7596
H46 H 0.8576 0.9962 0.7017
O26 O 0.98600(10) 0.9631(3) 0.84366(16)
H47 H 0.9731 1.0213 0.8568
H48 H 1.0049 0.9883 0.8220
O27 O 0.97297(11) 0.7022(3) 0.79335(19)
H49 H 1.0048 0.7231 0.8272
H50 H 0.9755 0.6685 0.7488
O28 O 0.90138(10) 0.8392(3) 0.85589(15)
H51 H 0.8731 0.8171 0.8527
H52 H 0.9198 0.8838 0.8894
O29 O 0.87094(10) 0.7576(3) 0.69753(16)
H53 H 0.8445 0.7854 0.6986
H54 H 0.8715 0.7594 0.6532
O30 O 0.86977(11) 0.0972(3) 0.93022(17)
H55 H 0.8930 0.0518 0.9536
H56 H 0.8452 0.0601 0.9018
O31 O 0.8649(2) 0.6647(6) 0.4188(3)
H57 H 0.8683 0.6938 0.4614
H58 H 0.8439 0.7036 0.3846
O32 O 0.5000 0.5700(4) 0.5000
H59 H 0.4818 0.6090 0.5151
H59A H 0.5182 0.6090 0.4849
O33 O 0.90729(10) 0.2242(3) 0.11015(16)
H61 H 0.8921 0.2652 0.1318
H62 H 0.9172 0.1616 0.1345
O34 O 0.94701(10) 0.8957(3) 0.00525(15)
H63 H 0.9405 0.8348 0.0252
H64 H 0.9674 0.9390 0.0374
O35 O 0.8754(2) 0.7588(5) 0.5550(3)
H65 H 0.8522 0.7202 0.5243
H66 H 0.8741 0.8289 0.5402
O36 O 0.03577(19) 0.5864(5) 0.4094(3)
H67 H 0.0346 0.5325 0.4392
H68 H 0.0492 0.6463 0.4342
O37 O 0.0475(6) 0.4011(13) 0.5097(7)
H69 H 0.0352 0.3513 0.4752
H70 H 0.0475 0.3741 0.5513
O38 O 0.05495(10) 0.1611(3) 0.12740(17)
H71 H 0.0597 0.2083 0.1637
H72 H 0.0824 0.1445 0.1245
O39 O 0.98200(11) 0.1791(3) 0.31912(16)
H73 H 0.9685 0.1336 0.2825
H74 H 1.0125 0.1674 0.3363
O40 O 0.0000 0.8005(7) 0.5000
H76 H -0.0061 0.8632 0.4747
H76A H 0.0061 0.8632 0.5253
H42? H 0.4983 0.7371 0.0397
H60? H 0.5244 0.5547 0.5390
H75? H 0.0306 0.7910 0.5192
H77? H 0.4962 1.1701 -0.0493
loop_
_geom_bond_atom_site_label_1
_geom_bond_atom_site_label_2
_geom_bond_site_symmetry_1
_geom_bond_site_symmetry_2
C1 C2 1_555 1_555
C2 H1 1_555 1_555
C3 C2 1_555 1_555
C4 C3 1_555 1_555
H2 C4 1_555 1_555
C5 C4 1_555 1_555
C6 C1 1_555 1_555
H3 C6 1_555 1_555
C7 C3 1_555 1_555
H4 C7 1_555 1_555
H5 C7 1_555 1_555
C8 C7 1_555 1_555
C9 C8 1_555 1_555
H6 C9 1_555 1_555
C10 C9 1_555 1_555
C11 C10 1_555 1_555
H7 C11 1_555 1_555
C12 C11 1_555 1_555
C13 C8 1_555 1_555
H8 C13 1_555 1_555
C14 C1 1_555 1_555
C15 C5 1_555 1_555
C16 C10 1_555 1_555
C17 C12 1_555 1_555
C18 C19 1_555 1_555
C19 H9 1_555 1_555
C20 C19 1_555 1_555
C21 C20 1_555 1_555
H10 C21 1_555 1_555
C22 C21 1_555 1_555
C23 C18 1_555 1_555
H11 C23 1_555 1_555
C24 C20 1_555 1_555
H12 C24 1_555 1_555
H13 C24 1_555 1_555
C25 C24 1_555 1_555
C26 C25 1_555 1_555
H14 C26 1_555 1_555
C27 C26 1_555 1_555
C28 C27 1_555 1_555
H15 C28 1_555 1_555
C29 C28 1_555 1_555
C30 C25 1_555 1_555
H16 C30 1_555 1_555
C31 C18 1_555 1_555
C32 C22 1_555 1_555
C33 C27 1_555 1_555
C34 C29 1_555 1_555
C35 H17 1_555 1_555
C36 C35 1_555 1_555
H18 C36 1_555 1_555
C37 C36 1_555 1_555
C38 C37 1_555 1_555
H19 C38 1_555 1_555
C39 C38 1_555 1_555
H20 C39 1_555 1_555
C40 C37 1_555 1_555
H21 C40 1_555 1_555
H22 C40 1_555 1_555
C41 C40 1_555 1_555
H23 C41 1_555 1_555
H24 C41 1_555 1_555
C42 H25 1_555 1_555
C43 C42 1_555 1_555
H26 C43 1_555 1_555
C44 C41 1_555 1_555
C45 C44 1_555 1_555
H27 C45 1_555 1_555
C46 C45 1_555 1_555
H28 C46 1_555 1_555
Mn1 O1 1_555 1_555
Mn2 O12 1_555 1_555
Mn3 N1 1_555 1_555
Mn4 O24 1_555 1_555
N1 C35 1_555 1_555
N2 C42 1_555 1_555
O1 C14 1_555 1_555
O2 C14 1_555 1_555
O3 C15 1_555 1_555
O4 C15 1_555 1_555
O5 C16 1_555 1_555
H29 O5 1_555 1_555
O6 C16 1_555 1_555
O7 C17 1_555 1_555
O8 C17 1_555 1_555
O9 C31 1_555 1_555
O10 C31 1_555 1_555
O11 C32 1_555 1_555
O12 C32 1_555 1_555
O13 C33 1_555 1_555
O14 C33 1_555 1_555
O15 C34 1_555 1_555
O16 C34 1_555 1_555
O17 Mn2 1_555 1_555
H30 O17 1_555 1_555
H31 O17 1_555 1_555
O18 Mn2 1_555 1_555
H32 O18 1_555 1_555
H33 O18 1_555 1_555
O19 Mn2 1_555 1_555
H34 O19 1_555 1_555
H35 O19 1_555 1_555
O20 Mn2 1_555 1_555
H36 O20 1_555 1_555
H37 O20 1_555 1_555
O21 Mn3 1_555 1_555
H38 O21 1_555 1_555
O22 Mn3 1_555 1_555
H39 O22 1_555 1_555
H40 O22 1_555 1_555
O23 Mn3 1_555 1_555
H41 O23 1_555 1_555
O24 H43 1_555 1_555
H44 O24 1_555 1_555
O25 Mn4 1_555 1_555
H45 O25 1_555 1_555
H46 O25 1_555 1_555
O26 Mn4 1_555 1_555
H47 O26 1_555 1_555
H48 O26 1_555 1_555
O27 Mn4 1_555 1_555
H49 O27 1_555 1_555
H50 O27 1_555 1_555
O28 Mn4 1_555 1_555
H51 O28 1_555 1_555
H52 O28 1_555 1_555
O29 Mn4 1_555 1_555
H53 O29 1_555 1_555
H54 O29 1_555 1_555
O30 H55 1_555 1_555
H56 O30 1_555 1_555
O31 H57 1_555 1_555
H58 O31 1_555 1_555
O32 H59 1_555 1_555
O33 H61 1_555 1_555
H62 O33 1_555 1_555
O34 H63 1_555 1_555
H64 O34 1_555 1_555
O35 H65 1_555 1_555
H66 O35 1_555 1_555
O36 H67 1_555 1_555
H68 O36 1_555 1_555
O37 H69 1_555 1_555
H70 O37 1_555 1_555
O38 H71 1_555 1_555
H72 O38 1_555 1_555
O39 H73 1_555 1_555
H74 O39 1_555 1_555
O40 H76 1_555 1_555
C1_2 C2_2 1_555 1_555
C2_2 H1_2 1_555 1_555
C3_2 C2_2 1_555 1_555
C4_2 C3_2 1_555 1_555
H2_2 C4_2 1_555 1_555
C5_2 C4_2 1_555 1_555
C6_2 C1_2 1_555 1_555
H3_2 C6_2 1_555 1_555
C7_2 C3_2 1_555 1_555
H4_2 C7_2 1_555 1_555
H5_2 C7_2 1_555 1_555
C8_2 C7_2 1_555 1_555
C9_2 C8_2 1_555 1_555
H6_2 C9_2 1_555 1_555
C10_2 C9_2 1_555 1_555
C11_2 C10_2 1_555 1_555
H7_2 C11_2 1_555 1_555
C12_2 C11_2 1_555 1_555
C13_2 C8_2 1_555 1_555
H8_2 C13_2 1_555 1_555
C14_2 C1_2 1_555 1_555
C15_2 C5_2 1_555 1_555
C16_2 C10_2 1_555 1_555
C17_2 C12_2 1_555 1_555
C18_2 C19_2 1_555 1_555
C19_2 H9_2 1_555 1_555
C20_2 C19_2 1_555 1_555
C21_2 C20_2 1_555 1_555
H10_2 C21_2 1_555 1_555
C22_2 C21_2 1_555 1_555
C23_2 C18_2 1_555 1_555
H11_2 C23_2 1_555 1_555
C24_2 C20_2 1_555 1_555
H12_2 C24_2 1_555 1_555
H13_2 C24_2 1_555 1_555
C25_2 C24_2 1_555 1_555
C26_2 C25_2 1_555 1_555
H14_2 C26_2 1_555 1_555
C27_2 C26_2 1_555 1_555
C28_2 C27_2 1_555 1_555
H15_2 C28_2 1_555 1_555
C29_2 C28_2 1_555 1_555
C30_2 C25_2 1_555 1_555
H16_2 C30_2 1_555 1_555
C31_2 C18_2 1_555 1_555
C32_2 C22_2 1_555 1_555
C33_2 C27_2 1_555 1_555
C34_2 C29_2 1_555 1_555
C35A H17A 1_555 1_555
C36A C35A 1_555 1_555
H18A C36A 1_555 1_555
C37A C36A 1_555 1_555
C38A C37A 1_555 1_555
H19A C38A 1_555 1_555
C39A C38A 1_555 1_555
H20A C39A 1_555 1_555
C40A C37A 1_555 1_555
H21A C40A 1_555 1_555
H22A C40A 1_555 1_555
C41A C40A 1_555 1_555
H23A C41A 1_555 1_555
H24A C41A 1_555 1_555
C42A H25A 1_555 1_555
C43A C42A 1_555 1_555
H26A C43A 1_555 1_555
C44A C41A 1_555 1_555
C45A C44A 1_555 1_555
H27A C45A 1_555 1_555
C46A C45A 1_555 1_555
H28A C46A 1_555 1_555
Mn1_2 O1_2 1_555 1_555
Mn1_3 O7 1_555 1_555
Mn2_2 O12_2 1_555 1_555
Mn2C O14 1_555 1_555
Mn2C_2 O14_2 1_555 1_555
N1A Mn3 1_555 1_555
N2A C42A 1_555 1_555
O1_2 C14_2 1_555 1_555
O2_2 C14_2 1_555 1_555
O3_2 C15_2 1_555 1_555
O4_2 C15_2 1_555 1_555
O5_2 C16_2 1_555 1_555
H29_2 O5_2 1_555 1_555
O6_2 C16_2 1_555 1_555
O7_2 Mn1 1_555 1_555
O7_3 Mn1_2 1_555 1_555
O8_2 C17_2 1_555 1_555
O9_2 C31_2 1_555 1_555
O10_2 C31_2 1_555 1_555
O11_2 C32_2 1_555 1_555
O12_2 C32_2 1_555 1_555
O13_2 Mn1 1_555 1_555
O13_3 Mn1_2 1_555 1_555
O14_2 Mn1 1_555 1_555
O14C Mn2 1_555 1_555
O14_3 Mn1_2 1_555 1_555
O14C_2 Mn2_2 1_555 1_555
O15_2 C34_2 1_555 1_555
O16_2 C34_2 1_555 1_555
O17_2 Mn2_2 1_555 1_555
H30_2 O17_2 1_555 1_555
H31_2 O17_2 1_555 1_555
O18_2 Mn2_2 1_555 1_555
H32_2 O18_2 1_555 1_555
H33_2 O18_2 1_555 1_555
O19_2 Mn2_2 1_555 1_555
H34_2 O19_2 1_555 1_555
H35_2 O19_2 1_555 1_555
O20_2 Mn2_2 1_555 1_555
H36_2 O20_2 1_555 1_555
H37_2 O20_2 1_555 1_555
H38A O21 1_555 1_555
O22A Mn3 1_555 1_555
H39A O22A 1_555 1_555
H40A O22A 1_555 1_555
H41A O23 1_555 1_555
H59A O32 1_555 1_555
H76A O40 1_555 1_555
C5 C6 1_555 1_555
C12 C13 1_555 1_555
C22 C23 1_555 1_555
C29 C30 1_555 1_555
C39 N1 1_555 1_555
C43 C44 1_555 1_555
C46 N2 1_555 1_555
Mn1 O2 1_555 1_555
Mn1 O9 1_555 1_555
Mn1 O10 1_555 1_555
O13 Mn1_3 1_555 1_555
O14 Mn1_3 1_555 1_555
C5_2 C6_2 1_555 1_555
C12_2 C13_2 1_555 1_555
C17_2 O7_2 1_555 1_555
C22_2 C23_2 1_555 1_555
C29_2 C30_2 1_555 1_555
C33_2 O13_2 1_555 1_555
C33_2 O14_2 1_555 1_555
C35A N1A 1_555 1_555
C39A N1A 1_555 1_555
C43A C44A 1_555 1_555
C46A N2A 1_555 1_555
Mn1_2 O2_2 1_555 1_555
Mn1_2 O9_2 1_555 1_555
Mn1_2 O10_2 1_555 1_555

#END
