
#######################################################################
#
#                 Cambridge Crystallographic Data Centre
#                                CCDC 
#
#######################################################################
#
# If this CIF has been generated from an entry in the Cambridge 
# Structural Database, then it will include bibliographic, chemical, 
# crystal, experimental, refinement or atomic coordinate data resulting 
# from the CCDC's data processing and validation procedures.
#
#######################################################################

data_OYOTIG
_symmetry_cell_setting           monoclinic
_symmetry_space_group_name_H-M   'C 2'
_symmetry_Int_Tables_number      5
_space_group_name_Hall           'C 2y'
loop_
_symmetry_equiv_pos_site_id
_symmetry_equiv_pos_as_xyz
1 x,y,z
2 -x,y,-z
3 1/2+x,1/2+y,z
4 1/2-x,1/2+y,-z
_cell_length_a                   29.316(5)
_cell_length_b                   11.6564(19)
_cell_length_c                   18.852(3)
_cell_angle_alpha                90
_cell_angle_beta                 110.422(3)
_cell_angle_gamma                90
_cell_volume                     6037.19
loop_
_atom_site_label
_atom_site_type_symbol
_atom_site_fract_x
_atom_site_fract_y
_atom_site_fract_z
C1 C 0.80048(15) 1.0938(4) 0.1603(3)
C2 C 0.84808(16) 1.1176(4) 0.2004(3)
H1 H 0.8661 1.0713 0.2406
C3 C 0.86981(15) 1.2165(3) 0.1787(2)
C4 C 0.84291(16) 1.2772(4) 0.1160(2)
H2 H 0.8576 1.3386 0.1009
C5 C 0.79583(14) 1.2526(3) 0.0747(2)
C6 C 0.77519(15) 1.1615(4) 0.0989(2)
H3 H 0.7426 1.1445 0.0726
C7 C 0.76861(18) 1.3267(4) 0.0077(2)
H4 H 0.7514 1.2769 -0.0344
H5 H 0.7922 1.3701 -0.0069
C8 C 0.73202(16) 1.4108(4) 0.0198(2)
C9 C 0.74792(15) 1.4907(4) 0.0756(2)
H6 H 0.7806 1.4900 0.1063
C10 C 0.71812(14) 1.5722(3) 0.0886(2)
C11 C 0.66748(15) 1.5721(4) 0.0421(2)
H7 H 0.6470 1.6288 0.0487
C12 C 0.64839(16) 1.4867(5) -0.0139(3)
C13 C 0.68221(17) 1.4034(4) -0.0243(3)
H8 H 0.6711 1.3453 -0.0599
C14 C 0.77620(17) 0.9960(4) 0.1851(3)
C15 C 0.92267(17) 1.2432(4) 0.2247(2)
C16 C 0.73430(14) 1.6551(3) 0.1484(2)
C17 C 0.59740(17) 1.4813(4) -0.0566(3)
C18 C 0.79396(17) 1.5633(4) 0.4284(3)
C19 C 0.76070(15) 1.4801(4) 0.4313(2)
H9 H 0.7291 1.4814 0.3964
C20 C 0.77462(15) 1.3950(3) 0.4863(2)
C21 C 0.82182(17) 1.3931(4) 0.5384(3)
H10 H 0.8311 1.3361 0.5753
C22 C 0.85509(14) 1.4763(3) 0.5356(2)
C23 C 0.84116(16) 1.5614(4) 0.4805(3)
H11 H 0.8634 1.6171 0.4786
C24 C 0.73771(17) 1.3103(4) 0.4954(2)
H12 H 0.7550 1.2532 0.5324
H13 H 0.7163 1.3512 0.5160
C25 C 0.70664(16) 1.2486(4) 0.4243(2)
C26 C 0.65969(16) 1.2853(4) 0.3858(2)
H14 H 0.6480 1.3504 0.4023
C27 C 0.62904(16) 1.2249(4) 0.3214(3)
C28 C 0.64581(16) 1.1265(4) 0.2982(2)
H15 H 0.6265 1.0874 0.2552
C29 C 0.69306(16) 1.0857(4) 0.3411(2)
C30 C 0.72163(15) 1.1468(3) 0.4010(2)
H16 H 0.7527 1.1195 0.4279
C31 C 0.77976(14) 1.6531(4) 0.3667(2)
C32 C 0.90453(16) 1.4775(4) 0.5956(2)
C33 C 0.70827(16) 0.9749(4) 0.3181(3)
C34 C 0.57732(15) 1.2656(4) 0.2792(3)
Mn1 Mn 0.75365(2) 0.81357(5) 0.25998(3)
Mn2 Mn 0.89757(2) 1.33860(5) 0.74437(4)
O1 O 0.73204(12) 0.9944(3) 0.1685(2)
O2 O 0.80262(12) 0.9197(3) 0.22749(19)
O3 O 0.94217(11) 1.3331(3) 0.20949(18)
O4 O 0.94344(12) 1.1859(4) 0.2824(2)
O5 O 0.56687(12) 1.5424(3) -0.0390(2)
H27 H 0.5699 1.5175 0.0110
O6 O 0.58127(14) 1.4266(4) -0.1163(2)
O7 O 0.70488(10) 1.7259(2) 0.15978(15)
O8 O 0.77824(11) 1.6591(3) 0.19017(18)
O9 O 0.73543(10) 1.6645(3) 0.32783(17)
O10 O 0.81103(10) 1.7214(2) 0.35893(16)
O11 O 0.93633(13) 1.5490(3) 0.5933(2)
O12 O 0.91339(11) 1.4036(3) 0.64856(17)
O13 O 0.75254(11) 0.9502(2) 0.33856(17)
O14 O 0.67577(11) 0.9046(3) 0.27523(16)
O15 O 0.56210(12) 1.3536(3) 0.3018(2)
O16 O 0.55450(12) 1.2049(3) 0.22516(19)
O17 O 0.94256(12) 1.4782(3) 0.81699(19)
H28 H 0.9486 1.4482 0.8604
H29 H 0.9531 1.5453 0.8142
O18 O 0.88876(11) 1.2713(3) 0.84506(18)
H30 H 0.9110 1.2225 0.8656
H31 H 0.8620 1.2407 0.8341
O19 O 0.96517(11) 1.2430(3) 0.77401(19)
H32 H 0.9795 1.2595 0.7432
H33 H 0.9594 1.1740 0.7722
O20 O 0.86013(11) 1.1866(3) 0.6817(2)
H34 H 0.8341 1.2076 0.6470
H35 H 0.8525 1.1421 0.7115
C1_2 C 0.80048(15) 0.0938(4) 0.1603(3)
C2_2 C 0.84808(16) 0.1176(4) 0.2004(3)
H1_2 H 0.8661 0.0713 0.2406
C3_2 C 0.86981(15) 0.2165(3) 0.1787(2)
C4_2 C 0.84291(16) 0.2772(4) 0.1160(2)
H2_2 H 0.8576 0.3386 0.1009
C5_2 C 0.79583(14) 0.2526(3) 0.0747(2)
C6_2 C 0.77519(15) 0.1615(4) 0.0989(2)
H3_2 H 0.7426 0.1445 0.0726
C7_2 C 0.76861(18) 0.3267(4) 0.0077(2)
H4_2 H 0.7514 0.2769 -0.0344
H5_2 H 0.7922 0.3701 -0.0069
C8_2 C 0.73202(16) 0.4108(4) 0.0198(2)
C9_2 C 0.74792(15) 0.4907(4) 0.0756(2)
H6_2 H 0.7806 0.4900 0.1063
C10_2 C 0.71812(14) 0.5722(3) 0.0886(2)
C11_2 C 0.66748(15) 0.5721(4) 0.0421(2)
H7_2 H 0.6470 0.6288 0.0487
C12_2 C 0.64839(16) 0.4867(5) -0.0139(3)
C13_2 C 0.68221(17) 0.4034(4) -0.0243(3)
H8_2 H 0.6711 0.3453 -0.0599
C14_2 C 0.77620(17) -0.0040(4) 0.1851(3)
C15_2 C 0.92267(17) 0.2432(4) 0.2247(2)
C16_2 C 0.73430(14) 0.6551(3) 0.1484(2)
C17_2 C 0.59740(17) 0.4813(4) -0.0566(3)
C18_2 C 0.79396(17) 0.5633(4) 0.4284(3)
C19_2 C 0.76070(15) 0.4801(4) 0.4313(2)
H9_2 H 0.7291 0.4814 0.3964
C20_2 C 0.77462(15) 0.3950(3) 0.4863(2)
C21_2 C 0.82182(17) 0.3931(4) 0.5384(3)
H10_2 H 0.8311 0.3361 0.5753
C22_2 C 0.85509(14) 0.4763(3) 0.5356(2)
C23_2 C 0.84116(16) 0.5614(4) 0.4805(3)
H11_2 H 0.8634 0.6171 0.4786
C24_2 C 0.73771(17) 0.3103(4) 0.4954(2)
H12_2 H 0.7550 0.2532 0.5324
H13_2 H 0.7163 0.3512 0.5160
C25_2 C 0.70664(16) 0.2486(4) 0.4243(2)
C26_2 C 0.65969(16) 0.2853(4) 0.3858(2)
H14_2 H 0.6480 0.3504 0.4023
C27_2 C 0.62904(16) 0.2249(4) 0.3214(3)
C28_2 C 0.64581(16) 0.1265(4) 0.2982(2)
H15_2 H 0.6265 0.0874 0.2552
C29_2 C 0.69306(16) 0.0857(4) 0.3411(2)
C30_2 C 0.72163(15) 0.1468(3) 0.4010(2)
H16_2 H 0.7527 0.1195 0.4279
C31_2 C 0.77976(14) 0.6531(4) 0.3667(2)
C32_2 C 0.90453(16) 0.4775(4) 0.5956(2)
C33_2 C 0.70827(16) -0.0251(4) 0.3181(3)
C34_2 C 0.57732(15) 0.2656(4) 0.2792(3)
Mn1_2 Mn 0.75365(2) -0.18643(5) 0.25998(3)
Mn1_3 Mn 0.75365(2) 1.81357(5) 0.25998(3)
Mn2_2 Mn 0.89757(2) 0.33860(5) 0.74437(4)
Mn2C Mn 0.60243(2) 0.83860(5) 0.25563(4)
Mn2C_2 Mn 0.60243(2) -0.16140(5) 0.25563(4)
O1_2 O 0.73204(12) -0.0056(3) 0.1685(2)
O2_2 O 0.80262(12) -0.0803(3) 0.22749(19)
O3_2 O 0.94217(11) 0.3331(3) 0.20949(18)
O4_2 O 0.94344(12) 0.1859(4) 0.2824(2)
O5_2 O 0.56687(12) 0.5424(3) -0.0390(2)
H27_2 H 0.5699 0.5175 0.0110
O6_2 O 0.58127(14) 0.4266(4) -0.1163(2)
O7_2 O 0.70488(10) 0.7259(2) 0.15978(15)
O7_3 O 0.70488(10) -0.2741(2) 0.15978(15)
O8_2 O 0.77824(11) 0.6591(3) 0.19017(18)
O8_3 O 0.77824(11) -0.3409(3) 0.19017(18)
O9_2 O 0.73543(10) 0.6645(3) 0.32783(17)
O9_3 O 0.73543(10) -0.3355(3) 0.32783(17)
O10_2 O 0.81103(10) 0.7214(2) 0.35893(16)
O10_3 O 0.81103(10) -0.2786(2) 0.35893(16)
O11_2 O 0.93633(13) 0.5490(3) 0.5933(2)
O12_2 O 0.91339(11) 0.4036(3) 0.64856(17)
O13_2 O 0.75254(11) -0.0498(2) 0.33856(17)
O14_2 O 0.67577(11) -0.0954(3) 0.27523(16)
O14C O 0.82423(11) 1.4046(3) 0.72477(16)
O14C_2 O 0.82423(11) 0.4046(3) 0.72477(16)
O15_2 O 0.56210(12) 0.3536(3) 0.3018(2)
O16_2 O 0.55450(12) 0.2049(3) 0.22516(19)
O17_2 O 0.94256(12) 0.4782(3) 0.81699(19)
H28_2 H 0.9486 0.4482 0.8604
H29_2 H 0.9531 0.5453 0.8142
O18_2 O 0.88876(11) 0.2713(3) 0.84506(18)
H30_2 H 0.9110 0.2225 0.8656
H31_2 H 0.8620 0.2407 0.8341
O19_2 O 0.96517(11) 0.2430(3) 0.77401(19)
H32_2 H 0.9795 0.2595 0.7432
H33_2 H 0.9594 0.1740 0.7722
O20_2 O 0.86013(11) 0.1866(3) 0.6817(2)
H34_2 H 0.8341 0.2076 0.6470
H35_2 H 0.8525 0.1421 0.7115
C35 C 0.40171(17) 0.8779(4) 0.3816(3)
H17 H 0.4222 0.9387 0.3816
C36 C 0.35285(16) 0.8807(4) 0.3290(3)
H18 H 0.3421 0.9418 0.2955
C37 C 0.32128(16) 0.7895(4) 0.3288(3)
C38 C 0.34236(18) 0.7018(5) 0.3811(3)
H19 H 0.3237 0.6381 0.3830
C39 C 0.38906(17) 0.7078(5) 0.4288(3)
H20 H 0.4008 0.6480 0.4629
C40 C 0.27259(16) 0.7821(4) 0.2811(3)
H21 H 0.2585 0.7097 0.2701
C41 C 0.24398(18) 0.8771(4) 0.2492(2)
H22 H 0.2584 0.9492 0.2563
C42 C 0.19238(17) 0.8675(4) 0.2052(3)
C43 C 0.17038(17) 0.7678(4) 0.1577(3)
H23 H 0.1890 0.7052 0.1537
C44 C 0.12034(17) 0.7718(5) 0.1189(3)
H24 H 0.1043 0.7075 0.0926
C45 C 0.11429(19) 0.9611(5) 0.1616(3)
H25 H 0.0956 1.0252 0.1626
C46 C 0.16379(18) 0.9550(5) 0.2036(3)
H26 H 0.1779 1.0184 0.2330
Mn3 Mn 0.5000 0.78916(8) 0.5000
N1 N 0.41920(14) 0.7933(3) 0.4300(2)
N2 N 0.09517(16) 0.8672(4) 0.1191(3)
O21 O 0.5000 0.9782(5) 0.5000
H36 H 0.5045 1.0029 0.4605
O22 O 0.5000 0.6003(5) 0.5000
H37 H 0.4754 0.5756 0.4639
O23 O 0.51576(13) 0.7738(3) 0.39502(18)
H38 H 0.5026 0.7130 0.3719
H39 H 0.5464 0.7686 0.4057
C35A C 0.59829(17) 0.8779(4) 0.6184(3)
H17A H 0.5778 0.9387 0.6184
C36A C 0.64715(16) 0.8807(4) 0.6710(3)
H18A H 0.6579 0.9418 0.7045
C37A C 0.67872(16) 0.7895(4) 0.6712(3)
C38A C 0.65764(18) 0.7018(5) 0.6189(3)
H19A H 0.6763 0.6381 0.6170
C39A C 0.61094(17) 0.7078(5) 0.5712(3)
H20A H 0.5992 0.6480 0.5371
C40A C 0.72741(16) 0.7821(4) 0.7189(3)
H21A H 0.7415 0.7097 0.7299
C41A C 0.75602(18) 0.8771(4) 0.7508(2)
H22A H 0.7416 0.9492 0.7437
C42A C 0.80762(17) 0.8675(4) 0.7948(3)
C43A C 0.82962(17) 0.7678(4) 0.8423(3)
H23A H 0.8110 0.7052 0.8463
C44A C 0.87966(17) 0.7718(5) 0.8811(3)
H24A H 0.8957 0.7075 0.9074
C45A C 0.88571(19) 0.9611(5) 0.8384(3)
H25A H 0.9044 1.0252 0.8374
C46A C 0.83621(18) 0.9550(5) 0.7964(3)
H26A H 0.8221 1.0184 0.7670
N1A N 0.58080(14) 0.7933(3) 0.5700(2)
N2A N 0.90483(16) 0.8672(4) 0.8809(3)
H36A H 0.4955 1.0029 0.5395
H37A H 0.5246 0.5756 0.5361
O23A O 0.48424(13) 0.7738(3) 0.60498(18)
H38A H 0.4974 0.7130 0.6281
H39A H 0.4536 0.7686 0.5943
Mn4 Mn 0.92808(2) 0.68713(6) 0.26286(4)
O24 O 0.98619(12) 0.7925(3) 0.34207(18)
H40 H 0.9910 0.8514 0.3191
H41 H 1.0114 0.7552 0.3589
O25 O 0.95735(12) 0.7160(3) 0.17096(18)
H42 H 0.9883 0.7170 0.1891
H43 H 0.9472 0.7774 0.1501
O26 O 0.86638(12) 0.5875(3) 0.1919(2)
H44 H 0.8729 0.5614 0.1544
H45 H 0.8416 0.6310 0.1750
O27 O 0.90282(13) 0.6717(3) 0.3562(2)
H46 H 0.9102 0.7320 0.3832
H47 H 0.8732 0.6633 0.3400
O28 O 0.97305(11) 0.5380(3) 0.29228(19)
H48 H 0.9553 0.4786 0.2783
H49 H 0.9869 0.5352 0.3401
O29 O 0.89818(14) 0.7983(3) 0.2326(2)
H50 H 0.8993 0.8163 0.1895
H51 H 0.9109 0.8524 0.2633
O30 O 0.87484(18) 0.5943(5) 0.0520(3)
H52 H 0.8676 0.5714 0.0065
H53 H 0.8827 0.6648 0.0568
O31 O 0.96238(13) 0.4216(3) 0.0902(2)
H54 H 0.9384 0.4677 0.0781
H55 H 0.9663 0.3927 0.1333
O32 O 0.63612(15) 1.0012(4) 0.0845(2)
H56 H 0.6663 0.9990 0.1109
H57 H 0.6244 0.9337 0.0788
O33 O 0.59426(16) 0.5539(4) 0.3906(2)
H58 H 0.6090 0.5961 0.3687
H59 H 0.5844 0.4929 0.3651
O34 O 0.0512(3) 0.7275(9) 0.5015(4)
H60 H 0.0607 0.6793 0.4758
H61 H 0.0344 0.7846 0.4789
O35 O 0.44713(14) 0.4947(3) 0.3725(2)
H62 H 0.4424 0.5403 0.3355
H63 H 0.4195 0.4792 0.3756
O36 O 0.37246(15) 0.4228(4) 0.4348(3)
H64 H 0.3519 0.3724 0.4109
H65 H 0.3993 0.3928 0.4618
O37 O 0.0000 0.9117(4) 1.0000
H66 H 0.0255 0.8849 1.0334
H66A H -0.0255 0.8849 0.9666
O38 O 0.5467(2) 0.7370(6) 0.0099(4)
H67 H 0.5187 0.7353 0.0140
H68 H 0.5474 0.7892 -0.0212
O39 O 0.01893(12) 1.0167(3) 0.1848(2)
H69 H 0.0326 0.9697 0.2204
H70 H -0.0116 1.0048 0.1686
O40 O 0.0000 0.6291(7) 1.0000
H71 H -0.0104 0.5821 1.0253
H71A H 0.0104 0.5821 0.9747
H72? H 0.0120 0.5944 0.9709
H73? H 0.4739 1.0017 0.5010
H74? H 0.4982 0.5756 0.5414
H75? H -0.0032 0.8776 0.9587
loop_
_geom_bond_atom_site_label_1
_geom_bond_atom_site_label_2
_geom_bond_site_symmetry_1
_geom_bond_site_symmetry_2
C1 C2 1_555 1_555
C2 H1 1_555 1_555
C3 C2 1_555 1_555
C4 C3 1_555 1_555
H2 C4 1_555 1_555
C5 C4 1_555 1_555
C6 C1 1_555 1_555
H3 C6 1_555 1_555
C7 C5 1_555 1_555
H4 C7 1_555 1_555
H5 C7 1_555 1_555
C8 C7 1_555 1_555
C9 C8 1_555 1_555
H6 C9 1_555 1_555
C10 C9 1_555 1_555
C11 C10 1_555 1_555
H7 C11 1_555 1_555
C12 C11 1_555 1_555
C13 C8 1_555 1_555
H8 C13 1_555 1_555
C14 C1 1_555 1_555
C15 C3 1_555 1_555
C16 C10 1_555 1_555
C17 C12 1_555 1_555
C18 C19 1_555 1_555
C19 H9 1_555 1_555
C20 C19 1_555 1_555
C21 C20 1_555 1_555
H10 C21 1_555 1_555
C22 C21 1_555 1_555
C23 C18 1_555 1_555
H11 C23 1_555 1_555
C24 C20 1_555 1_555
H12 C24 1_555 1_555
H13 C24 1_555 1_555
C25 C24 1_555 1_555
C26 C25 1_555 1_555
H14 C26 1_555 1_555
C27 C26 1_555 1_555
C28 C27 1_555 1_555
H15 C28 1_555 1_555
C29 C28 1_555 1_555
C30 C25 1_555 1_555
H16 C30 1_555 1_555
C31 C18 1_555 1_555
C32 C22 1_555 1_555
C33 C29 1_555 1_555
C34 C27 1_555 1_555
C35 H17 1_555 1_555
C36 C35 1_555 1_555
H18 C36 1_555 1_555
C37 C36 1_555 1_555
C38 C37 1_555 1_555
H19 C38 1_555 1_555
C39 C38 1_555 1_555
H20 C39 1_555 1_555
C40 C37 1_555 1_555
H21 C40 1_555 1_555
C41 C40 1_555 1_555
H22 C41 1_555 1_555
C42 C41 1_555 1_555
C43 C42 1_555 1_555
H23 C43 1_555 1_555
C44 C43 1_555 1_555
H24 C44 1_555 1_555
C45 H25 1_555 1_555
C46 C42 1_555 1_555
H26 C46 1_555 1_555
Mn1 O2 1_555 1_555
Mn2 O12 1_555 1_555
Mn3 N1 1_555 1_555
Mn4 O24 1_555 1_555
N1 C35 1_555 1_555
N2 C44 1_555 1_555
O1 C14 1_555 1_555
O2 C14 1_555 1_555
O3 C15 1_555 1_555
O4 C15 1_555 1_555
O5 C17 1_555 1_555
H27 O5 1_555 1_555
O6 C17 1_555 1_555
O7 C16 1_555 1_555
O8 C16 1_555 1_555
O9 C31 1_555 1_555
O10 C31 1_555 1_555
O11 C32 1_555 1_555
O12 C32 1_555 1_555
O13 C33 1_555 1_555
O14 C33 1_555 1_555
O15 C34 1_555 1_555
O16 C34 1_555 1_555
O17 Mn2 1_555 1_555
H28 O17 1_555 1_555
H29 O17 1_555 1_555
O18 Mn2 1_555 1_555
H30 O18 1_555 1_555
H31 O18 1_555 1_555
O19 Mn2 1_555 1_555
H32 O19 1_555 1_555
H33 O19 1_555 1_555
O20 Mn2 1_555 1_555
H34 O20 1_555 1_555
H35 O20 1_555 1_555
O21 Mn3 1_555 1_555
H36 O21 1_555 1_555
O22 Mn3 1_555 1_555
H37 O22 1_555 1_555
O23 Mn3 1_555 1_555
H38 O23 1_555 1_555
H39 O23 1_555 1_555
O24 H40 1_555 1_555
H41 O24 1_555 1_555
O25 Mn4 1_555 1_555
H42 O25 1_555 1_555
H43 O25 1_555 1_555
O26 Mn4 1_555 1_555
H44 O26 1_555 1_555
H45 O26 1_555 1_555
O27 Mn4 1_555 1_555
H46 O27 1_555 1_555
H47 O27 1_555 1_555
O28 Mn4 1_555 1_555
H48 O28 1_555 1_555
H49 O28 1_555 1_555
O29 Mn4 1_555 1_555
H50 O29 1_555 1_555
H51 O29 1_555 1_555
O30 H52 1_555 1_555
H53 O30 1_555 1_555
O31 H54 1_555 1_555
H55 O31 1_555 1_555
O32 H56 1_555 1_555
H57 O32 1_555 1_555
O33 H58 1_555 1_555
H59 O33 1_555 1_555
O34 H60 1_555 1_555
H61 O34 1_555 1_555
O35 H62 1_555 1_555
H63 O35 1_555 1_555
O36 H64 1_555 1_555
H65 O36 1_555 1_555
O37 H66 1_555 1_555
O38 H67 1_555 1_555
H68 O38 1_555 1_555
O39 H69 1_555 1_555
H70 O39 1_555 1_555
O40 H71 1_555 1_555
C1_2 C2_2 1_555 1_555
C2_2 H1_2 1_555 1_555
C3_2 C2_2 1_555 1_555
C4_2 C3_2 1_555 1_555
H2_2 C4_2 1_555 1_555
C5_2 C4_2 1_555 1_555
C6_2 C1_2 1_555 1_555
H3_2 C6_2 1_555 1_555
C7_2 C5_2 1_555 1_555
H4_2 C7_2 1_555 1_555
H5_2 C7_2 1_555 1_555
C8_2 C7_2 1_555 1_555
C9_2 C8_2 1_555 1_555
H6_2 C9_2 1_555 1_555
C10_2 C9_2 1_555 1_555
C11_2 C10_2 1_555 1_555
H7_2 C11_2 1_555 1_555
C12_2 C11_2 1_555 1_555
C13_2 C8_2 1_555 1_555
H8_2 C13_2 1_555 1_555
C14_2 C1_2 1_555 1_555
C15_2 C3_2 1_555 1_555
C16_2 C10_2 1_555 1_555
C17_2 C12_2 1_555 1_555
C18_2 C19_2 1_555 1_555
C19_2 H9_2 1_555 1_555
C20_2 C19_2 1_555 1_555
C21_2 C20_2 1_555 1_555
H10_2 C21_2 1_555 1_555
C22_2 C21_2 1_555 1_555
C23_2 C18_2 1_555 1_555
H11_2 C23_2 1_555 1_555
C24_2 C20_2 1_555 1_555
H12_2 C24_2 1_555 1_555
H13_2 C24_2 1_555 1_555
C25_2 C24_2 1_555 1_555
C26_2 C25_2 1_555 1_555
H14_2 C26_2 1_555 1_555
C27_2 C26_2 1_555 1_555
C28_2 C27_2 1_555 1_555
H15_2 C28_2 1_555 1_555
C29_2 C28_2 1_555 1_555
C30_2 C25_2 1_555 1_555
H16_2 C30_2 1_555 1_555
C31_2 C18_2 1_555 1_555
C32_2 C22_2 1_555 1_555
C33_2 C29_2 1_555 1_555
C34_2 C27_2 1_555 1_555
C35A H17A 1_555 1_555
C36A C35A 1_555 1_555
H18A C36A 1_555 1_555
C37A C36A 1_555 1_555
C38A C37A 1_555 1_555
H19A C38A 1_555 1_555
C39A C38A 1_555 1_555
H20A C39A 1_555 1_555
C40A C37A 1_555 1_555
H21A C40A 1_555 1_555
C41A C40A 1_555 1_555
H22A C41A 1_555 1_555
C42A C41A 1_555 1_555
C43A C42A 1_555 1_555
H23A C43A 1_555 1_555
C44A C43A 1_555 1_555
H24A C44A 1_555 1_555
C45A H25A 1_555 1_555
C46A C42A 1_555 1_555
H26A C46A 1_555 1_555
Mn1_2 O2_2 1_555 1_555
Mn1_3 O7 1_555 1_555
Mn2_2 O12_2 1_555 1_555
Mn2C O14 1_555 1_555
Mn2C_2 O14_2 1_555 1_555
N1A Mn3 1_555 1_555
N2A C44A 1_555 1_555
O1_2 C14_2 1_555 1_555
O2_2 C14_2 1_555 1_555
O3_2 C15_2 1_555 1_555
O4_2 C15_2 1_555 1_555
O5_2 C17_2 1_555 1_555
H27_2 O5_2 1_555 1_555
O6_2 C17_2 1_555 1_555
O7_2 Mn1 1_555 1_555
O7_3 Mn1_2 1_555 1_555
O8_2 Mn1 1_555 1_555
O8_3 Mn1_2 1_555 1_555
O9_2 Mn1 1_555 1_555
O9_3 Mn1_2 1_555 1_555
O10_2 Mn1 1_555 1_555
O10_3 Mn1_2 1_555 1_555
O11_2 C32_2 1_555 1_555
O12_2 C32_2 1_555 1_555
O13_2 C33_2 1_555 1_555
O14_2 C33_2 1_555 1_555
O14C Mn2 1_555 1_555
O14C_2 Mn2_2 1_555 1_555
O15_2 C34_2 1_555 1_555
O16_2 C34_2 1_555 1_555
O17_2 Mn2_2 1_555 1_555
H28_2 O17_2 1_555 1_555
H29_2 O17_2 1_555 1_555
O18_2 Mn2_2 1_555 1_555
H30_2 O18_2 1_555 1_555
H31_2 O18_2 1_555 1_555
O19_2 Mn2_2 1_555 1_555
H32_2 O19_2 1_555 1_555
H33_2 O19_2 1_555 1_555
O20_2 Mn2_2 1_555 1_555
H34_2 O20_2 1_555 1_555
H35_2 O20_2 1_555 1_555
H36A O21 1_555 1_555
H37A O22 1_555 1_555
O23A Mn3 1_555 1_555
H38A O23A 1_555 1_555
H39A O23A 1_555 1_555
H66A O37 1_555 1_555
H71A O40 1_555 1_555
C5 C6 1_555 1_555
C12 C13 1_555 1_555
C22 C23 1_555 1_555
C29 C30 1_555 1_555
C39 N1 1_555 1_555
C45 C46 1_555 1_555
C45 N2 1_555 1_555
Mn1 O13 1_555 1_555
O8 Mn1_3 1_555 1_555
O9 Mn1_3 1_555 1_555
O10 Mn1_3 1_555 1_555
C5_2 C6_2 1_555 1_555
C12_2 C13_2 1_555 1_555
C16_2 O7_2 1_555 1_555
C16_2 O8_2 1_555 1_555
C22_2 C23_2 1_555 1_555
C29_2 C30_2 1_555 1_555
C31_2 O9_2 1_555 1_555
C31_2 O10_2 1_555 1_555
C35A N1A 1_555 1_555
C39A N1A 1_555 1_555
C45A C46A 1_555 1_555
C45A N2A 1_555 1_555
Mn1_2 O13_2 1_555 1_555

#END
