
#######################################################################
#
#                 Cambridge Crystallographic Data Centre
#                                CCDC 
#
#######################################################################
#
# If this CIF has been generated from an entry in the Cambridge 
# Structural Database, then it will include bibliographic, chemical, 
# crystal, experimental, refinement or atomic coordinate data resulting 
# from the CCDC's data processing and validation procedures.
#
#######################################################################

data_OYOTEC
_symmetry_cell_setting           monoclinic
_symmetry_space_group_name_H-M   'C 2'
_symmetry_Int_Tables_number      5
_space_group_name_Hall           'C 2y'
loop_
_symmetry_equiv_pos_site_id
_symmetry_equiv_pos_as_xyz
1 x,y,z
2 -x,y,-z
3 1/2+x,1/2+y,z
4 1/2-x,1/2+y,-z
_cell_length_a                   29.326(7)
_cell_length_b                   11.641(3)
_cell_length_c                   18.867(5)
_cell_angle_alpha                90
_cell_angle_beta                 110.414(6)
_cell_angle_gamma                90
_cell_volume                     6036.38
loop_
_atom_site_label
_atom_site_type_symbol
_atom_site_fract_x
_atom_site_fract_y
_atom_site_fract_z
C1 C 0.71653(15) 0.8143(4) 0.0869(2)
C2 C 0.66780(16) 0.8142(4) 0.0428(3)
H1 H 0.6470 0.7588 0.0502
C3 C 0.64986(15) 0.8980(4) -0.0133(2)
C4 C 0.68192(16) 0.9779(4) -0.0239(3)
H2 H 0.6702 1.0332 -0.0614
C5 C 0.73073(15) 0.9776(4) 0.0198(2)
C6 C 0.74712(15) 0.8954(4) 0.0751(3)
H3 H 0.7798 0.8946 0.1055
C7 C 0.76654(15) 1.0634(4) 0.0066(2)
H4 H 0.7891 1.0214 -0.0110
H5 H 0.7485 1.1155 -0.0334
C8 C 0.79521(15) 1.1330(4) 0.0740(2)
C9 C 0.77407(16) 1.2253(4) 0.0985(3)
H6 H 0.7418 1.2439 0.0719
C10 C 0.79983(16) 1.2892(4) 0.1607(2)
C11 C 0.84835(17) 1.2618(4) 0.2009(3)
H7 H 0.8661 1.3061 0.2424
C12 C 0.87008(16) 1.1699(4) 0.1797(2)
C13 C 0.84338(14) 1.1052(4) 0.1165(2)
H8 H 0.8579 1.0425 0.1025
C14 C 0.73489(15) 0.7276(4) 0.1495(3)
C15 C 0.59596(15) 0.9013(4) -0.0586(2)
C16 C 0.77629(16) 1.3861(4) 0.1862(2)
C17 C 0.92186(16) 1.1394(4) 0.2271(3)
C18 C 0.69278(16) 1.2989(4) 0.3405(2)
C19 C 0.64622(16) 1.2561(4) 0.2994(3)
H9 H 0.6265 1.2949 0.2565
C20 C 0.62963(16) 1.1577(4) 0.3221(3)
C21 C 0.65943(15) 1.0974(4) 0.3837(2)
H10 H 0.6481 1.0299 0.3981
C22 C 0.70697(15) 1.1362(4) 0.4256(2)
C23 C 0.72228(16) 1.2387(4) 0.4017(3)
H11 H 0.7533 1.2666 0.4282
C24 C 0.73777(15) 1.0744(4) 0.4955(2)
H12 H 0.7164 1.0333 0.5160
H13 H 0.7551 1.1313 0.5326
C25 C 0.77447(15) 0.9901(4) 0.4859(2)
C26 C 0.76093(16) 0.9052(4) 0.4305(3)
H14 H 0.7294 0.9035 0.3955
C27 C 0.79495(17) 0.8223(4) 0.4276(3)
C28 C 0.84144(16) 0.8220(4) 0.4802(3)
H15 H 0.8635 0.7657 0.4785
C29 C 0.85527(16) 0.9063(4) 0.5359(2)
C30 C 0.82113(16) 0.9897(4) 0.5369(3)
H16 H 0.8304 1.0470 0.5736
C31 C 0.70848(15) 1.4109(4) 0.3178(2)
C32 C 0.57802(15) 1.1176(4) 0.2793(3)
C33 C 0.77943(15) 0.7302(4) 0.3672(2)
C34 C 0.90509(15) 0.9074(4) 0.5957(2)
Mn1 Mn 0.75364(2) 0.57025(8) 0.25984(4)
Mn2 Mn 0.60252(2) 1.54568(8) 0.25572(3)
O1 O 0.77850(11) 0.7244(3) 0.19086(16)
O2 O 0.70466(10) 0.6582(2) 0.16070(15)
O3 O 0.56735(11) 0.8457(3) -0.03630(19)
O4 O 0.58127(11) 0.9589(3) -0.11745(16)
O5 O 0.73233(11) 1.3913(3) 0.16793(17)
O6 O 0.80460(12) 1.4633(3) 0.22962(17)
O7 O 0.94114(10) 1.0523(3) 0.20945(17)
O8 O 0.94335(10) 1.1999(3) 0.28256(18)
H27 H 0.9525 1.1546 0.3279
O9 O 0.75233(10) 1.4345(3) 0.33822(16)
O10 O 0.67576(10) 1.4792(3) 0.27485(15)
O11 O 0.55365(11) 1.1798(3) 0.22415(16)
O12 O 0.56260(10) 1.0310(3) 0.30078(16)
O13 O 0.73583(10) 0.7200(3) 0.32769(15)
O14 O 0.81120(9) 0.6626(2) 0.35858(15)
O15 O 0.93632(11) 0.8389(3) 0.5898(2)
O16 O 0.91309(10) 0.9806(3) 0.64929(16)
O17 O 0.64056(10) 1.6934(3) 0.31916(15)
H28 H 0.6175 1.7419 0.3071
H29 H 0.6648 1.7387 0.3322
O18 O 0.61164(10) 1.6210(2) 0.15613(15)
H30 H 0.5914 1.5907 0.1166
H31 H 0.6395 1.6093 0.1574
O19 O 0.55754(11) 1.4105(3) 0.18186(19)
H32 H 0.5481 1.4360 0.1368
H33 H 0.5323 1.4024 0.1936
O20 O 0.53577(10) 1.6441(3) 0.22697(17)
H34 H 0.5160 1.6099 0.2438
H35 H 0.5418 1.7083 0.2458
C1_2 C 0.71653(15) -0.1857(4) 0.0869(2)
C2_2 C 0.66780(16) -0.1858(4) 0.0428(3)
H1_2 H 0.6470 -0.2412 0.0502
C3_2 C 0.64986(15) -0.1020(4) -0.0133(2)
C4_2 C 0.68192(16) -0.0221(4) -0.0239(3)
H2_2 H 0.6702 0.0332 -0.0614
C5_2 C 0.73073(15) -0.0224(4) 0.0198(2)
C6_2 C 0.74712(15) -0.1046(4) 0.0751(3)
H3_2 H 0.7798 -0.1054 0.1055
C7_2 C 0.76654(15) 0.0634(4) 0.0066(2)
H4_2 H 0.7891 0.0214 -0.0110
H5_2 H 0.7485 0.1155 -0.0334
C8_2 C 0.79521(15) 0.1330(4) 0.0740(2)
C9_2 C 0.77407(16) 0.2253(4) 0.0985(3)
H6_2 H 0.7418 0.2439 0.0719
C10_2 C 0.79983(16) 0.2892(4) 0.1607(2)
C11_2 C 0.84835(17) 0.2618(4) 0.2009(3)
H7_2 H 0.8661 0.3061 0.2424
C12_2 C 0.87008(16) 0.1699(4) 0.1797(2)
C13_2 C 0.84338(14) 0.1052(4) 0.1165(2)
H8_2 H 0.8579 0.0425 0.1025
C14_2 C 0.73489(15) -0.2724(4) 0.1495(3)
C15_2 C 0.59596(15) -0.0987(4) -0.0586(2)
C16_2 C 0.77629(16) 0.3861(4) 0.1862(2)
C17_2 C 0.92186(16) 0.1394(4) 0.2271(3)
C18_2 C 0.69278(16) 0.2989(4) 0.3405(2)
C19_2 C 0.64622(16) 0.2561(4) 0.2994(3)
H9_2 H 0.6265 0.2949 0.2565
C20_2 C 0.62963(16) 0.1577(4) 0.3221(3)
C21_2 C 0.65943(15) 0.0974(4) 0.3837(2)
H10_2 H 0.6481 0.0299 0.3981
C22_2 C 0.70697(15) 0.1362(4) 0.4256(2)
C23_2 C 0.72228(16) 0.2387(4) 0.4017(3)
H11_2 H 0.7533 0.2666 0.4282
C24_2 C 0.73777(15) 0.0744(4) 0.4955(2)
H12_2 H 0.7164 0.0333 0.5160
H13_2 H 0.7551 0.1313 0.5326
C25_2 C 0.77447(15) -0.0099(4) 0.4859(2)
C26_2 C 0.76093(16) -0.0948(4) 0.4305(3)
H14_2 H 0.7294 -0.0965 0.3955
C27_2 C 0.79495(17) -0.1777(4) 0.4276(3)
C28_2 C 0.84144(16) -0.1780(4) 0.4802(3)
H15_2 H 0.8635 -0.2343 0.4785
C29_2 C 0.85527(16) -0.0937(4) 0.5359(2)
C30_2 C 0.82113(16) -0.0103(4) 0.5369(3)
H16_2 H 0.8304 0.0470 0.5736
C31_2 C 0.70848(15) 0.4109(4) 0.3178(2)
C32_2 C 0.57802(15) 0.1176(4) 0.2793(3)
C33_2 C 0.77943(15) -0.2698(4) 0.3672(2)
C34_2 C 0.90509(15) -0.0926(4) 0.5957(2)
Mn1_2 Mn 0.75364(2) -0.42975(8) 0.25984(4)
Mn1_3 Mn 0.75364(2) 1.57025(8) 0.25984(4)
Mn2_2 Mn 0.60252(2) 0.54568(8) 0.25572(3)
Mn2C Mn 0.89748(2) 1.04568(8) 0.74428(3)
Mn2C_2 Mn 0.89748(2) 0.04568(8) 0.74428(3)
O1_2 O 0.77850(11) -0.2756(3) 0.19086(16)
O2_2 O 0.70466(10) -0.3418(2) 0.16070(15)
O3_2 O 0.56735(11) -0.1543(3) -0.03630(19)
O4_2 O 0.58127(11) -0.0411(3) -0.11745(16)
O5_2 O 0.73233(11) 0.3913(3) 0.16793(17)
O5_3 O 0.73233(11) -0.6087(3) 0.16793(17)
O6_2 O 0.80460(12) 0.4633(3) 0.22962(17)
O6_3 O 0.80460(12) -0.5367(3) 0.22962(17)
O7_2 O 0.94114(10) 0.0523(3) 0.20945(17)
O8_2 O 0.94335(10) 0.1999(3) 0.28256(18)
H27_2 H 0.9525 0.1546 0.3279
O9_2 O 0.75233(10) 0.4345(3) 0.33822(16)
O9_3 O 0.75233(10) -0.5655(3) 0.33822(16)
O10_2 O 0.67576(10) 0.4792(3) 0.27485(15)
O10_3 O 0.67576(10) -0.5208(3) 0.27485(15)
O11_2 O 0.55365(11) 0.1798(3) 0.22415(16)
O12_2 O 0.56260(10) 0.0310(3) 0.30078(16)
O13_2 O 0.73583(10) -0.2800(3) 0.32769(15)
O14_2 O 0.81120(9) -0.3374(2) 0.35858(15)
O15_2 O 0.93632(11) -0.1611(3) 0.5898(2)
O16_2 O 0.91309(10) -0.0194(3) 0.64929(16)
O16C O 0.58691(10) 1.4806(3) 0.35071(16)
O16C_2 O 0.58691(10) 0.4806(3) 0.35071(16)
O17_2 O 0.64056(10) 0.6934(3) 0.31916(15)
H28_2 H 0.6175 0.7419 0.3071
H29_2 H 0.6648 0.7387 0.3322
O18_2 O 0.61164(10) 0.6210(2) 0.15613(15)
H30_2 H 0.5914 0.5907 0.1166
H31_2 H 0.6395 0.6093 0.1574
O19_2 O 0.55754(11) 0.4105(3) 0.18186(19)
H32_2 H 0.5481 0.4360 0.1368
H33_2 H 0.5323 0.4024 0.1936
O20_2 O 0.53577(10) 0.6441(3) 0.22697(17)
H34_2 H 0.5160 0.6099 0.2438
H35_2 H 0.5418 0.7083 0.2458
C35 C -0.11023(16) 0.1762(4) 0.4312(3)
H17 H -0.0984 0.2342 0.4668
C36 C -0.15786(16) 0.1845(5) 0.3807(3)
H18 H -0.1765 0.2490 0.3810
C37 C -0.17737(15) 0.0959(4) 0.3298(2)
C38 C -0.14618(16) 0.0061(4) 0.3313(2)
H19 H -0.1573 -0.0550 0.2980
C39 C -0.10029(16) 0.0054(4) 0.3799(2)
H20 H -0.0805 -0.0565 0.3785
C40 C -0.22789(15) 0.1037(4) 0.2804(2)
H21 H -0.2416 0.1765 0.2695
C41 C -0.25610(16) 0.0138(4) 0.2493(2)
H22 H -0.2417 -0.0585 0.2576
C42 C -0.30689(17) 0.0199(4) 0.2042(3)
C43 C -0.32913(17) 0.1137(5) 0.1600(3)
H23 H -0.3112 0.1787 0.1580
C44 C -0.37932(18) 0.1084(5) 0.1183(3)
H24 H -0.3946 0.1712 0.0893
C45 C -0.38485(18) -0.0729(4) 0.1598(3)
H25 H -0.4039 -0.1370 0.1591
C46 C -0.33693(16) -0.0750(4) 0.2025(3)
H26 H -0.3237 -0.1398 0.2311
Mn3 Mn 0.0000 0.09611(10) 0.5000
N1 N -0.08101(13) 0.0899(3) 0.43098(19)
N2 N -0.40491(13) 0.0166(3) 0.1195(2)
O27 O -0.01583(10) 0.1107(3) 0.60534(16)
H48 H -0.0129 0.0415 0.6207
H49 H -0.0377 0.1359 0.6213
O28 O 0.0000 0.2820(4) 0.5000
H50 H 0.0069 0.2919 0.4602
O29 O 0.0000 -0.0934(4) 0.5000
H51 H 0.0238 -0.1181 0.4886
C35A C 0.11023(16) 0.1762(4) 0.5688(3)
H17A H 0.0984 0.2342 0.5332
C36A C 0.15786(16) 0.1845(5) 0.6193(3)
H18A H 0.1765 0.2490 0.6190
C37A C 0.17737(15) 0.0959(4) 0.6702(2)
C38A C 0.14618(16) 0.0061(4) 0.6687(2)
H19A H 0.1573 -0.0550 0.7020
C39A C 0.10029(16) 0.0054(4) 0.6201(2)
H20A H 0.0805 -0.0565 0.6215
C40A C 0.22789(15) 0.1037(4) 0.7196(2)
H21A H 0.2416 0.1765 0.7305
C41A C 0.25610(16) 0.0138(4) 0.7507(2)
H22A H 0.2417 -0.0585 0.7424
C42A C 0.30689(17) 0.0199(4) 0.7958(3)
C43A C 0.32913(17) 0.1137(5) 0.8400(3)
H23A H 0.3112 0.1787 0.8420
C44A C 0.37932(18) 0.1084(5) 0.8817(3)
H24A H 0.3946 0.1712 0.9107
C45A C 0.38485(18) -0.0729(4) 0.8402(3)
H25A H 0.4039 -0.1370 0.8409
C46A C 0.33693(16) -0.0750(4) 0.7975(3)
H26A H 0.3237 -0.1398 0.7689
N1A N 0.08101(13) 0.0899(3) 0.56902(19)
N2A N 0.40491(13) 0.0166(3) 0.8805(2)
O27A O 0.01583(10) 0.1107(3) 0.39466(16)
H48A H 0.0129 0.0415 0.3793
H49A H 0.0377 0.1359 0.3787
H50A H -0.0069 0.2919 0.5398
H51A H -0.0238 -0.1181 0.5114
Mn4 Mn 0.92819(2) 0.69741(8) 0.26303(3)
O21 O 0.88767(11) 0.5411(3) 0.22405(16)
H36 H 0.8771 0.5344 0.2604
H37 H 0.8971 0.4720 0.2243
O22 O 0.86715(11) 0.7964(3) 0.19117(18)
H38 H 0.8445 0.7515 0.1658
H39 H 0.8760 0.8360 0.1624
O23 O 0.95741(11) 0.6674(3) 0.17170(17)
H40 H 0.9883 0.6712 0.1893
H41 H 0.9489 0.6038 0.1531
O24 O 0.97269(12) 0.8479(3) 0.29432(19)
H42 H 1.0025 0.8284 0.3108
H43 H 0.9673 0.8901 0.2575
O25 O 0.98580(10) 0.5896(3) 0.34247(18)
H44 H 0.9776 0.6007 0.3809
H45 H 1.0160 0.6029 0.3639
O26 O 0.90111(10) 0.7134(3) 0.35510(16)
H46 H 0.8778 0.6665 0.3490
H47 H 0.9232 0.6997 0.3951
O30 O 0.54874(19) 0.6399(5) 1.0113(3)
H52 H 0.5540 0.7048 0.9951
H53 H 0.5535 0.5866 0.9840
O31 O 0.9459(2) 0.3897(6) 0.3732(4)
H54 H 0.9447 0.3378 0.4042
H55 H 0.9626 0.3663 0.3473
O32 O 0.53837(12) 0.4587(3) 0.91020(18)
H56 H 0.5656 0.4448 0.9053
H57 H 0.5286 0.3992 0.9268
O33 O 0.5000 0.9702(4) 1.0000
H58 H 0.4730 0.9808 0.9643
H58A H 0.5270 0.9808 1.0357
O34 O 0.5560(2) 0.8495(6) 0.2881(4)
H60 H 0.5541 0.9057 0.2585
H61 H 0.5464 0.8647 0.3248
O35 O 0.8719(2) 0.4605(5) 0.4366(3)
H62 H 0.8932 0.4413 0.4176
H63 H 0.8561 0.5180 0.4126
O36 O 0.8732(2) 0.7860(6) 0.0505(3)
H64 H 0.8669 0.8278 0.0113
H65 H 0.9033 0.7696 0.0637
O37 O 0.05283(13) 0.6506(3) 0.49615(19)
H66 H 0.0547 0.7058 0.4678
H67 H 0.0668 0.5921 0.4860
O38 O 0.5000 0.2583(5) 1.0000
H68 H 0.4770 0.2207 0.9684
H68A H 0.5230 0.2207 1.0316
H59? H 0.5127 1.0350 1.0161
H69? H 0.5233 0.2131 1.0223
H70? H -0.0288 0.3085 0.4834
H71? H -0.0022 -0.1169 0.4579
loop_
_geom_bond_atom_site_label_1
_geom_bond_atom_site_label_2
_geom_bond_site_symmetry_1
_geom_bond_site_symmetry_2
C1 C2 1_555 1_555
C2 H1 1_555 1_555
C3 C2 1_555 1_555
C4 C3 1_555 1_555
H2 C4 1_555 1_555
C5 C4 1_555 1_555
C6 C1 1_555 1_555
H3 C6 1_555 1_555
C7 C5 1_555 1_555
H4 C7 1_555 1_555
H5 C7 1_555 1_555
C8 C7 1_555 1_555
C9 C8 1_555 1_555
H6 C9 1_555 1_555
C10 C9 1_555 1_555
C11 C10 1_555 1_555
H7 C11 1_555 1_555
C12 C11 1_555 1_555
C13 C8 1_555 1_555
H8 C13 1_555 1_555
C14 C1 1_555 1_555
C15 C3 1_555 1_555
C16 C10 1_555 1_555
C17 C12 1_555 1_555
C18 C19 1_555 1_555
C19 H9 1_555 1_555
C20 C19 1_555 1_555
C21 C20 1_555 1_555
H10 C21 1_555 1_555
C22 C21 1_555 1_555
C23 C18 1_555 1_555
H11 C23 1_555 1_555
C24 C22 1_555 1_555
H12 C24 1_555 1_555
H13 C24 1_555 1_555
C25 C24 1_555 1_555
C26 C25 1_555 1_555
H14 C26 1_555 1_555
C27 C26 1_555 1_555
C28 C27 1_555 1_555
H15 C28 1_555 1_555
C29 C28 1_555 1_555
C30 C25 1_555 1_555
H16 C30 1_555 1_555
C31 C18 1_555 1_555
C32 C20 1_555 1_555
C33 C27 1_555 1_555
C34 C29 1_555 1_555
C35 H17 1_555 1_555
C36 C35 1_555 1_555
H18 C36 1_555 1_555
C37 C36 1_555 1_555
C38 C37 1_555 1_555
H19 C38 1_555 1_555
C39 C38 1_555 1_555
H20 C39 1_555 1_555
C40 C37 1_555 1_555
H21 C40 1_555 1_555
C41 C40 1_555 1_555
H22 C41 1_555 1_555
C42 C41 1_555 1_555
C43 C42 1_555 1_555
H23 C43 1_555 1_555
C44 C43 1_555 1_555
H24 C44 1_555 1_555
C45 H25 1_555 1_555
C46 C42 1_555 1_555
H26 C46 1_555 1_555
Mn1 O1 1_555 1_555
Mn2 O10 1_555 1_555
Mn3 N1 1_555 1_555
Mn4 O21 1_555 1_555
N1 C35 1_555 1_555
N2 C44 1_555 1_555
O1 C14 1_555 1_555
O2 C14 1_555 1_555
O3 C15 1_555 1_555
O4 C15 1_555 1_555
O5 C16 1_555 1_555
O6 C16 1_555 1_555
O7 C17 1_555 1_555
O8 C17 1_555 1_555
H27 O8 1_555 1_555
O9 C31 1_555 1_555
O10 C31 1_555 1_555
O11 C32 1_555 1_555
O12 C32 1_555 1_555
O13 C33 1_555 1_555
O14 C33 1_555 1_555
O15 C34 1_555 1_555
O16 C34 1_555 1_555
O17 Mn2 1_555 1_555
H28 O17 1_555 1_555
H29 O17 1_555 1_555
O18 Mn2 1_555 1_555
H30 O18 1_555 1_555
H31 O18 1_555 1_555
O19 Mn2 1_555 1_555
H32 O19 1_555 1_555
H33 O19 1_555 1_555
O20 Mn2 1_555 1_555
H34 O20 1_555 1_555
H35 O20 1_555 1_555
O21 H36 1_555 1_555
H37 O21 1_555 1_555
O22 Mn4 1_555 1_555
H38 O22 1_555 1_555
H39 O22 1_555 1_555
O23 Mn4 1_555 1_555
H40 O23 1_555 1_555
H41 O23 1_555 1_555
O24 Mn4 1_555 1_555
H42 O24 1_555 1_555
H43 O24 1_555 1_555
O25 Mn4 1_555 1_555
H44 O25 1_555 1_555
H45 O25 1_555 1_555
O26 Mn4 1_555 1_555
H46 O26 1_555 1_555
H47 O26 1_555 1_555
O27 Mn3 1_555 1_555
H48 O27 1_555 1_555
H49 O27 1_555 1_555
O28 Mn3 1_555 1_555
H50 O28 1_555 1_555
O29 Mn3 1_555 1_555
H51 O29 1_555 1_555
O30 H52 1_555 1_555
H53 O30 1_555 1_555
O31 H54 1_555 1_555
H55 O31 1_555 1_555
O32 H56 1_555 1_555
H57 O32 1_555 1_555
O33 H58 1_555 1_555
O34 H60 1_555 1_555
H61 O34 1_555 1_555
O35 H62 1_555 1_555
H63 O35 1_555 1_555
O36 H64 1_555 1_555
H65 O36 1_555 1_555
O37 H66 1_555 1_555
H67 O37 1_555 1_555
O38 H68 1_555 1_555
C1_2 C2_2 1_555 1_555
C2_2 H1_2 1_555 1_555
C3_2 C2_2 1_555 1_555
C4_2 C3_2 1_555 1_555
H2_2 C4_2 1_555 1_555
C5_2 C4_2 1_555 1_555
C6_2 C1_2 1_555 1_555
H3_2 C6_2 1_555 1_555
C7_2 C5_2 1_555 1_555
H4_2 C7_2 1_555 1_555
H5_2 C7_2 1_555 1_555
C8_2 C7_2 1_555 1_555
C9_2 C8_2 1_555 1_555
H6_2 C9_2 1_555 1_555
C10_2 C9_2 1_555 1_555
C11_2 C10_2 1_555 1_555
H7_2 C11_2 1_555 1_555
C12_2 C11_2 1_555 1_555
C13_2 C8_2 1_555 1_555
H8_2 C13_2 1_555 1_555
C14_2 C1_2 1_555 1_555
C15_2 C3_2 1_555 1_555
C16_2 C10_2 1_555 1_555
C17_2 C12_2 1_555 1_555
C18_2 C19_2 1_555 1_555
C19_2 H9_2 1_555 1_555
C20_2 C19_2 1_555 1_555
C21_2 C20_2 1_555 1_555
H10_2 C21_2 1_555 1_555
C22_2 C21_2 1_555 1_555
C23_2 C18_2 1_555 1_555
H11_2 C23_2 1_555 1_555
C24_2 C22_2 1_555 1_555
H12_2 C24_2 1_555 1_555
H13_2 C24_2 1_555 1_555
C25_2 C24_2 1_555 1_555
C26_2 C25_2 1_555 1_555
H14_2 C26_2 1_555 1_555
C27_2 C26_2 1_555 1_555
C28_2 C27_2 1_555 1_555
H15_2 C28_2 1_555 1_555
C29_2 C28_2 1_555 1_555
C30_2 C25_2 1_555 1_555
H16_2 C30_2 1_555 1_555
C31_2 C18_2 1_555 1_555
C32_2 C20_2 1_555 1_555
C33_2 C27_2 1_555 1_555
C34_2 C29_2 1_555 1_555
C35A H17A 1_555 1_555
C36A C35A 1_555 1_555
H18A C36A 1_555 1_555
C37A C36A 1_555 1_555
C38A C37A 1_555 1_555
H19A C38A 1_555 1_555
C39A C38A 1_555 1_555
H20A C39A 1_555 1_555
C40A C37A 1_555 1_555
H21A C40A 1_555 1_555
C41A C40A 1_555 1_555
H22A C41A 1_555 1_555
C42A C41A 1_555 1_555
C43A C42A 1_555 1_555
H23A C43A 1_555 1_555
C44A C43A 1_555 1_555
H24A C44A 1_555 1_555
C45A H25A 1_555 1_555
C46A C42A 1_555 1_555
H26A C46A 1_555 1_555
Mn1_2 O1_2 1_555 1_555
Mn1_3 O5 1_555 1_555
Mn2_2 O10_2 1_555 1_555
Mn2C O16 1_555 1_555
Mn2C_2 O16_2 1_555 1_555
N1A Mn3 1_555 1_555
N2A C44A 1_555 1_555
O1_2 C14_2 1_555 1_555
O2_2 C14_2 1_555 1_555
O3_2 C15_2 1_555 1_555
O4_2 C15_2 1_555 1_555
O5_2 Mn1 1_555 1_555
O5_3 Mn1_2 1_555 1_555
O6_2 Mn1 1_555 1_555
O6_3 Mn1_2 1_555 1_555
O7_2 C17_2 1_555 1_555
O8_2 C17_2 1_555 1_555
H27_2 O8_2 1_555 1_555
O9_2 Mn1 1_555 1_555
O9_3 Mn1_2 1_555 1_555
O10_2 Mn1 1_555 1_555
O10_3 Mn1_2 1_555 1_555
O11_2 C32_2 1_555 1_555
O12_2 C32_2 1_555 1_555
O13_2 C33_2 1_555 1_555
O14_2 C33_2 1_555 1_555
O15_2 C34_2 1_555 1_555
O16_2 C34_2 1_555 1_555
O16C Mn2 1_555 1_555
O16C_2 Mn2_2 1_555 1_555
O17_2 Mn2_2 1_555 1_555
H28_2 O17_2 1_555 1_555
H29_2 O17_2 1_555 1_555
O18_2 Mn2_2 1_555 1_555
H30_2 O18_2 1_555 1_555
H31_2 O18_2 1_555 1_555
O19_2 Mn2_2 1_555 1_555
H32_2 O19_2 1_555 1_555
H33_2 O19_2 1_555 1_555
O20_2 Mn2_2 1_555 1_555
H34_2 O20_2 1_555 1_555
H35_2 O20_2 1_555 1_555
O27A Mn3 1_555 1_555
H48A O27A 1_555 1_555
H49A O27A 1_555 1_555
H50A O28 1_555 1_555
H51A O29 1_555 1_555
H58A O33 1_555 1_555
H68A O38 1_555 1_555
C5 C6 1_555 1_555
C12 C13 1_555 1_555
C22 C23 1_555 1_555
C29 C30 1_555 1_555
C39 N1 1_555 1_555
C45 C46 1_555 1_555
C45 N2 1_555 1_555
Mn1 O2 1_555 1_555
Mn1 O13 1_555 1_555
Mn1 O14 1_555 1_555
O6 Mn1_3 1_555 1_555
O9 Mn1_3 1_555 1_555
O10 Mn1_3 1_555 1_555
C5_2 C6_2 1_555 1_555
C12_2 C13_2 1_555 1_555
C16_2 O5_2 1_555 1_555
C16_2 O6_2 1_555 1_555
C22_2 C23_2 1_555 1_555
C29_2 C30_2 1_555 1_555
C31_2 O9_2 1_555 1_555
C31_2 O10_2 1_555 1_555
C35A N1A 1_555 1_555
C39A N1A 1_555 1_555
C45A C46A 1_555 1_555
C45A N2A 1_555 1_555
Mn1_2 O2_2 1_555 1_555
Mn1_2 O13_2 1_555 1_555
Mn1_2 O14_2 1_555 1_555

#END
