
#######################################################################
#
#                 Cambridge Crystallographic Data Centre
#                                CCDC 
#
#######################################################################
#
# If this CIF has been generated from an entry in the Cambridge 
# Structural Database, then it will include bibliographic, chemical, 
# crystal, experimental, refinement or atomic coordinate data resulting 
# from the CCDC's data processing and validation procedures.
#
#######################################################################

data_OYOTUS
_symmetry_cell_setting           monoclinic
_symmetry_space_group_name_H-M   'C 2'
_symmetry_Int_Tables_number      5
_space_group_name_Hall           'C 2y'
loop_
_symmetry_equiv_pos_site_id
_symmetry_equiv_pos_as_xyz
1 x,y,z
2 -x,y,-z
3 1/2+x,1/2+y,z
4 1/2-x,1/2+y,-z
_cell_length_a                   29.4892(16)
_cell_length_b                   11.5511(14)
_cell_length_c                   19.1927(17)
_cell_angle_alpha                90
_cell_angle_beta                 111.283(2)
_cell_angle_gamma                90
_cell_volume                     6091.79
loop_
_atom_site_label
_atom_site_type_symbol
_atom_site_fract_x
_atom_site_fract_y
_atom_site_fract_z
C1 C 0.20284(17) 0.1803(4) 0.3397(3)
C2 C 0.22840(16) 0.1182(5) 0.4040(3)
H1 H 0.2603 0.1388 0.4321
C3 C 0.20682(17) 0.0241(4) 0.4275(3)
C4 C 0.15932(17) -0.0035(4) 0.3849(2)
H2 H 0.1445 -0.0648 0.3997
C5 C 0.13276(16) 0.0579(5) 0.3200(3)
C6 C 0.15506(18) 0.1485(5) 0.2993(3)
H3 H 0.1375 0.1903 0.2566
C7 C 0.23576(18) -0.0453(5) 0.4950(2)
H4 H 0.2133 -0.0851 0.5132
H5 H 0.2547 0.0077 0.5339
C8 C 0.27050(17) -0.1353(4) 0.4829(2)
C9 C 0.32014(18) -0.1359(5) 0.5299(3)
H6 H 0.3317 -0.0818 0.5681
C10 C 0.35201(17) -0.2180(5) 0.5189(3)
C11 C 0.33462(16) -0.2951(5) 0.4618(3)
H7 H 0.3557 -0.3493 0.4544
C12 C 0.28624(16) -0.2949(4) 0.4145(2)
C13 C 0.25442(16) -0.2164(4) 0.4275(2)
H8 H 0.2215 -0.2191 0.3978
C14 C 0.22742(18) 0.2776(5) 0.3172(3)
C15 C 0.08074(18) 0.0254(5) 0.2747(3)
C16 C 0.40525(19) -0.2158(5) 0.5662(3)
C17 C 0.26829(16) -0.3802(4) 0.3525(2)
C18 C 0.20606(18) 0.7162(5) 0.0737(3)
C19 C 0.15875(15) 0.7188(4) 0.0218(2)
H9 H 0.1358 0.6661 0.0253
C20 C 0.14581(18) 0.8009(5) -0.0356(2)
C21 C 0.18028(16) 0.8841(4) -0.0369(2)
H10 H 0.1711 0.9415 -0.0734
C22 C 0.22772(16) 0.8830(4) 0.0150(2)
C23 C 0.24066(17) 0.7994(4) 0.0687(3)
H11 H 0.2725 0.7963 0.1027
C24 C 0.26361(17) 0.9650(5) 0.0035(2)
H12 H 0.2458 1.0206 -0.0345
H13 H 0.2845 0.9215 -0.0161
C25 C 0.29615(16) 1.0323(4) 0.0729(2)
C26 C 0.28020(19) 1.1337(4) 0.0963(3)
H14 H 0.2496 1.1631 0.0686
C27 C 0.30914(16) 1.1909(4) 0.1598(3)
C28 C 0.35451(16) 1.1492(4) 0.2003(2)
H15 H 0.3740 1.1875 0.2434
C29 C 0.37136(17) 1.0502(5) 0.1774(3)
C30 C 0.34291(16) 0.9900(5) 0.1140(3)
H16 H 0.3545 0.9233 0.0990
C31 C 0.22149(17) 0.6245(4) 0.1337(2)
C32 C 0.09617(18) 0.8004(5) -0.0946(3)
C33 C 0.29291(16) 1.3040(4) 0.1820(3)
C34 C 0.42353(15) 1.0116(5) 0.2189(3)
Mn1 Mn 0.24850(2) 0.46373(10) 0.24120(3)
Mn2 Mn 0.10162(2) 0.93743(11) -0.24273(4)
O1 O 0.19993(13) 0.3520(3) 0.27119(19)
O2 O 0.27230(13) 0.2820(3) 0.33878(19)
O3 O 0.05877(12) 0.0892(4) 0.21917(18)
O4 O 0.06201(13) -0.0583(4) 0.29144(18)
O5 O 0.41883(13) -0.1620(4) 0.6286(2)
H29 H 0.3921 -0.1570 0.6457
O6 O 0.43466(13) -0.2688(4) 0.5460(2)
O7 O 0.22384(11) -0.3861(3) 0.31155(19)
O8 O 0.29790(12) -0.4485(3) 0.33938(18)
O9 O 0.18989(11) 0.5596(3) 0.14315(17)
O10 O 0.26514(11) 0.6116(3) 0.17138(17)
O11 O 0.06417(11) 0.7348(3) -0.08958(18)
O12 O 0.08725(13) 0.8765(4) -0.1466(2)
O13 O 0.24885(11) 1.3254(3) 0.16295(17)
O14 O 0.32530(12) 1.3734(3) 0.22460(19)
O15 O 0.43857(11) 0.9222(3) 0.19738(18)
O16 O 0.44902(12) 1.0732(4) 0.2735(2)
O17 O 0.05527(13) 0.8016(3) -0.31464(19)
H30 H 0.0418 0.7546 -0.2857
H31 H 0.0294 0.8372 -0.3549
O18 O 0.03485(11) 1.0374(3) -0.27212(18)
H32 H 0.0419 1.1076 -0.2598
H33 H 0.0182 1.0115 -0.2475
O19 O 0.10852(13) 1.0049(4) -0.3463(2)
H34 H 0.1322 1.0521 -0.3354
H35 H 0.0825 1.0380 -0.3740
O20 O 0.14022(11) 1.0898(4) -0.18155(17)
H36 H 0.1403 1.0886 -0.1315
H37 H 0.1731 1.0892 -0.1800
C1_2 C 0.20284(17) 1.1803(4) 0.3397(3)
C2_2 C 0.22840(16) 1.1182(5) 0.4040(3)
H1_2 H 0.2603 1.1388 0.4321
C3_2 C 0.20682(17) 1.0241(4) 0.4275(3)
C4_2 C 0.15932(17) 0.9965(4) 0.3849(2)
H2_2 H 0.1445 0.9352 0.3997
C5_2 C 0.13276(16) 1.0579(5) 0.3200(3)
C6_2 C 0.15506(18) 1.1485(5) 0.2993(3)
H3_2 H 0.1375 1.1903 0.2566
C7_2 C 0.23576(18) 0.9547(5) 0.4950(2)
H4_2 H 0.2133 0.9149 0.5132
H5_2 H 0.2547 1.0077 0.5339
C8_2 C 0.27050(17) 0.8647(4) 0.4829(2)
C9_2 C 0.32014(18) 0.8641(5) 0.5299(3)
H6_2 H 0.3317 0.9182 0.5681
C10_2 C 0.35201(17) 0.7820(5) 0.5189(3)
C11_2 C 0.33462(16) 0.7049(5) 0.4618(3)
H7_2 H 0.3557 0.6507 0.4544
C12_2 C 0.28624(16) 0.7051(4) 0.4145(2)
C13_2 C 0.25442(16) 0.7836(4) 0.4275(2)
H8_2 H 0.2215 0.7809 0.3978
C14_2 C 0.22742(18) 1.2776(5) 0.3172(3)
C15_2 C 0.08074(18) 1.0254(5) 0.2747(3)
C16_2 C 0.40525(19) 0.7842(5) 0.5662(3)
C17_2 C 0.26829(16) 0.6198(4) 0.3525(2)
C18_2 C 0.20606(18) -0.2838(5) 0.0737(3)
C19_2 C 0.15875(15) -0.2812(4) 0.0218(2)
H9_2 H 0.1358 -0.3339 0.0253
C20_2 C 0.14581(18) -0.1991(5) -0.0356(2)
C21_2 C 0.18028(16) -0.1159(4) -0.0369(2)
H10_2 H 0.1711 -0.0585 -0.0734
C22_2 C 0.22772(16) -0.1170(4) 0.0150(2)
C23_2 C 0.24066(17) -0.2006(4) 0.0687(3)
H11_2 H 0.2725 -0.2037 0.1027
C24_2 C 0.26361(17) -0.0350(5) 0.0035(2)
H12_2 H 0.2458 0.0206 -0.0345
H13_2 H 0.2845 -0.0785 -0.0161
C25_2 C 0.29615(16) 0.0323(4) 0.0729(2)
C26_2 C 0.28020(19) 0.1337(4) 0.0963(3)
H14_2 H 0.2496 0.1631 0.0686
C27_2 C 0.30914(16) 0.1909(4) 0.1598(3)
C28_2 C 0.35451(16) 0.1492(4) 0.2003(2)
H15_2 H 0.3740 0.1875 0.2434
C29_2 C 0.37136(17) 0.0502(5) 0.1774(3)
C30_2 C 0.34291(16) -0.0100(5) 0.1140(3)
H16_2 H 0.3545 -0.0767 0.0990
C31_2 C 0.22149(17) -0.3755(4) 0.1337(2)
C32_2 C 0.09617(18) -0.1996(5) -0.0946(3)
C33_2 C 0.29291(16) 0.3040(4) 0.1820(3)
C34_2 C 0.42353(15) 0.0116(5) 0.2189(3)
Mn1_2 Mn 0.24850(2) 1.46373(10) 0.24120(3)
Mn1_3 Mn 0.24850(2) -0.53627(10) 0.24120(3)
Mn2_2 Mn 0.10162(2) -0.06257(11) -0.24273(4)
Mn2C Mn 0.39838(2) 1.43743(11) 0.24273(4)
Mn2C_2 Mn 0.39838(2) 0.43743(11) 0.24273(4)
O1_2 O 0.19993(13) 1.3520(3) 0.27119(19)
O2_2 O 0.27230(13) 1.2820(3) 0.33878(19)
O3_2 O 0.05877(12) 1.0892(4) 0.21917(18)
O4_2 O 0.06201(13) 0.9417(4) 0.29144(18)
O5_2 O 0.41883(13) 0.8380(4) 0.6286(2)
H29_2 H 0.3921 0.8430 0.6457
O6_2 O 0.43466(13) 0.7312(4) 0.5460(2)
O7_2 O 0.22384(11) 0.6139(3) 0.31155(19)
O7_3 O 0.22384(11) 1.6139(3) 0.31155(19)
O8_2 O 0.29790(12) 0.5515(3) 0.33938(18)
O8_3 O 0.29790(12) 1.5515(3) 0.33938(18)
O9_2 O 0.18989(11) -0.4404(3) 0.14315(17)
O9_3 O 0.18989(11) 1.5596(3) 0.14315(17)
O10_2 O 0.26514(11) -0.3884(3) 0.17138(17)
O10_3 O 0.26514(11) 1.6116(3) 0.17138(17)
O11_2 O 0.06417(11) -0.2652(3) -0.08958(18)
O12_2 O 0.08725(13) -0.1235(4) -0.1466(2)
O13_2 O 0.24885(11) 0.3254(3) 0.16295(17)
O14_2 O 0.32530(12) 0.3734(3) 0.22460(19)
O14C O 0.17470(12) 0.8734(3) -0.22460(19)
O14C_2 O 0.17470(12) -0.1266(3) -0.22460(19)
O15_2 O 0.43857(11) -0.0778(3) 0.19738(18)
O16_2 O 0.44902(12) 0.0732(4) 0.2735(2)
O17_2 O 0.05527(13) -0.1984(3) -0.31464(19)
H30_2 H 0.0418 -0.2454 -0.2857
H31_2 H 0.0294 -0.1628 -0.3549
O18_2 O 0.03485(11) 0.0374(3) -0.27212(18)
H32_2 H 0.0419 0.1076 -0.2598
H33_2 H 0.0182 0.0115 -0.2475
O19_2 O 0.10852(13) 0.0049(4) -0.3463(2)
H34_2 H 0.1322 0.0521 -0.3354
H35_2 H 0.0825 0.0380 -0.3740
O20_2 O 0.14022(11) 0.0898(4) -0.18155(17)
H36_2 H 0.1403 0.0886 -0.1315
H37_2 H 0.1731 0.0892 -0.1800
C35 C 0.4013(2) 0.4021(6) 0.8826(3)
H17 H 0.4211 0.3422 0.8782
C36 C 0.35202(19) 0.4019(5) 0.8340(3)
H18 H 0.3402 0.3427 0.7993
C37 C 0.32184(16) 0.4889(5) 0.8383(2)
C38 C 0.34194(17) 0.5724(5) 0.8904(3)
H19 H 0.3232 0.6348 0.8946
C39 C 0.38972(18) 0.5644(5) 0.9366(3)
H20 H 0.4018 0.6211 0.9731
C40 C 0.26824(19) 0.4969(5) 0.7927(3)
H21 H 0.2612 0.5729 0.7698
H22 H 0.2501 0.4889 0.8257
C41 C 0.25115(18) 0.4056(5) 0.7322(3)
H23 H 0.2611 0.3293 0.7533
H24 H 0.2651 0.4195 0.6943
C42 C 0.19381(18) 0.4134(5) 0.6968(3)
C43 C 0.16882(18) 0.3250(5) 0.7122(3)
H25 H 0.1854 0.2711 0.7486
C44 C 0.1204(2) 0.3136(5) 0.6761(3)
H26 H 0.1045 0.2494 0.6857
C45 C 0.16815(18) 0.4951(5) 0.6474(3)
H27 H 0.1838 0.5580 0.6358
C46 C 0.11860(16) 0.4828(5) 0.6150(2)
H28 H 0.1010 0.5410 0.5831
Mn3 Mn 0.5000 0.48706(14) 1.0000
N1 N 0.42063(14) 0.4806(4) 0.9330(2)
N2 N 0.09460(15) 0.3936(4) 0.6263(2)
O21 O 0.5000 0.6744(5) 1.0000
H38 H 0.4939 0.7021 1.0430
O22 O 0.51499(13) 0.5004(4) 0.89505(19)
H39 H 0.4906 0.5314 0.8615
H40 H 0.5191 0.4333 0.8802
O23 O 0.5000 0.2941(5) 1.0000
H41 H 0.4916 0.2692 1.0352
C35A C 0.5987(2) 0.4021(6) 1.1174(3)
H17A H 0.5789 0.3422 1.1218
C36A C 0.64798(19) 0.4019(5) 1.1660(3)
H18A H 0.6598 0.3427 1.2007
C37A C 0.67816(16) 0.4889(5) 1.1617(2)
C38A C 0.65806(17) 0.5724(5) 1.1096(3)
H19A H 0.6768 0.6348 1.1054
C39A C 0.61028(18) 0.5644(5) 1.0634(3)
H20A H 0.5982 0.6211 1.0269
C40A C 0.73176(19) 0.4969(5) 1.2073(3)
H21A H 0.7388 0.5729 1.2302
H22A H 0.7499 0.4889 1.1743
C41A C 0.74885(18) 0.4056(5) 1.2678(3)
H23A H 0.7389 0.3293 1.2467
H24A H 0.7349 0.4195 1.3057
C42A C 0.80619(18) 0.4134(5) 1.3032(3)
C43A C 0.83118(18) 0.3250(5) 1.2878(3)
H25A H 0.8146 0.2711 1.2514
C44A C 0.8796(2) 0.3136(5) 1.3239(3)
H26A H 0.8955 0.2494 1.3143
C45A C 0.83185(18) 0.4951(5) 1.3526(3)
H27A H 0.8162 0.5580 1.3642
C46A C 0.88140(16) 0.4828(5) 1.3850(2)
H28A H 0.8990 0.5410 1.4169
N1A N 0.57937(14) 0.4806(4) 1.0670(2)
N2A N 0.90540(15) 0.3936(4) 1.3737(2)
H38A H 0.5061 0.7021 0.9570
O22A O 0.48501(13) 0.5004(4) 1.10495(19)
H39A H 0.5094 0.5314 1.1385
H40A H 0.4809 0.4333 1.1198
H41A H 0.5084 0.2692 0.9648
Mn4 Mn 0.57411(3) 0.08703(11) 0.23363(4)
O24 O 0.63444(12) 0.1922(3) 0.30502(18)
H42 H 0.6610 0.1428 0.3330
H43 H 0.6240 0.2363 0.3389
O25 O 0.54670(12) 0.0539(3) 0.32439(18)
H44 H 0.5497 -0.0174 0.3360
H45 H 0.5179 0.0726 0.3099
O26 O 0.61419(12) -0.0692(3) 0.27295(18)
H46 H 0.6444 -0.0537 0.2918
H47 H 0.6096 -0.1155 0.2366
O27 O 0.59849(12) 0.1031(3) 0.14061(19)
H48 H 0.6292 0.1050 0.1528
H49 H 0.5848 0.0427 0.1171
O28 O 0.51593(11) -0.0199(3) 0.15618(17)
H50 H 0.4900 -0.0099 0.1652
H51 H 0.5239 -0.0908 0.1640
O29 O 0.52687(12) 0.2385(3) 0.20590(19)
H52 H 0.5436 0.2993 0.2080
H53 H 0.5060 0.2285 0.1621
O30 O 0.0924(3) 0.2258(7) 0.8913(4)
H54 H 0.0648 0.2150 0.8951
H55 H 0.0892 0.2292 0.8455
O31 O 0.01512(13) 0.2667(4) 0.6912(2)
H56 H 0.0296 0.3161 0.7247
H57 H -0.0139 0.2582 0.6894
O32 O 0.01267(11) 0.3223(3) 0.56560(17)
H58 H -0.0145 0.3409 0.5685
H59 H 0.0359 0.3605 0.5966
O33 O 0.0440(3) 0.0859(9) 0.5277(4)
H60 H 0.0197 0.0405 0.5114
H61 H 0.0570 0.0932 0.4951
O34 O 0.4472(2) 0.0555(7) 0.0055(4)
H62 H 0.4744 0.0857 0.0099
H63 H 0.4514 0.0175 0.0453
O35 O 0.62434(14) 0.1825(4) 0.44204(19)
H64 H 0.6348 0.2394 0.4716
H65 H 0.5939 0.1699 0.4260
O36 O 0.1304(3) 0.7860(7) 0.5764(4)
H66 H 0.1142 0.7494 0.5980
H67 H 0.1206 0.8557 0.5689
O37 O 0.36992(13) 0.8465(3) 0.9326(2)
H68 H 0.3876 0.9037 0.9540
H69 H 0.3429 0.8683 0.9005
O38 O 0.44451(12) 0.7778(3) 0.87132(19)
H70 H 0.4427 0.7221 0.8415
H71 H 0.4165 0.7959 0.8708
O39 O 0.9584(2) 0.8620(7) 0.5900(4)
H72 H 0.9551 0.9126 0.5563
H73 H 0.9497 0.8906 0.6240
O40 O -0.0017(2) 0.5207(7) 0.5652(4)
H74 H -0.0189 0.5466 0.5223
H75 H 0.0253 0.5562 0.5796
H76? H 0.4715 0.2692 0.9929
loop_
_geom_bond_atom_site_label_1
_geom_bond_atom_site_label_2
_geom_bond_site_symmetry_1
_geom_bond_site_symmetry_2
C1 C2 1_555 1_555
C2 H1 1_555 1_555
C3 C2 1_555 1_555
C4 C3 1_555 1_555
H2 C4 1_555 1_555
C5 C4 1_555 1_555
C6 C1 1_555 1_555
H3 C6 1_555 1_555
C7 C3 1_555 1_555
H4 C7 1_555 1_555
H5 C7 1_555 1_555
C8 C7 1_555 1_555
C9 C8 1_555 1_555
H6 C9 1_555 1_555
C10 C9 1_555 1_555
C11 C10 1_555 1_555
H7 C11 1_555 1_555
C12 C11 1_555 1_555
C13 C8 1_555 1_555
H8 C13 1_555 1_555
C14 C1 1_555 1_555
C15 C5 1_555 1_555
C16 C10 1_555 1_555
C17 C12 1_555 1_555
C18 C19 1_555 1_555
C19 H9 1_555 1_555
C20 C19 1_555 1_555
C21 C20 1_555 1_555
H10 C21 1_555 1_555
C22 C21 1_555 1_555
C23 C18 1_555 1_555
H11 C23 1_555 1_555
C24 C22 1_555 1_555
H12 C24 1_555 1_555
H13 C24 1_555 1_555
C25 C24 1_555 1_555
C26 C25 1_555 1_555
H14 C26 1_555 1_555
C27 C26 1_555 1_555
C28 C27 1_555 1_555
H15 C28 1_555 1_555
C29 C28 1_555 1_555
C30 C25 1_555 1_555
H16 C30 1_555 1_555
C31 C18 1_555 1_555
C32 C20 1_555 1_555
C33 C27 1_555 1_555
C34 C29 1_555 1_555
C35 H17 1_555 1_555
C36 C35 1_555 1_555
H18 C36 1_555 1_555
C37 C36 1_555 1_555
C38 C37 1_555 1_555
H19 C38 1_555 1_555
C39 C38 1_555 1_555
H20 C39 1_555 1_555
C40 C37 1_555 1_555
H21 C40 1_555 1_555
H22 C40 1_555 1_555
C41 C40 1_555 1_555
H23 C41 1_555 1_555
H24 C41 1_555 1_555
C42 C41 1_555 1_555
C43 C42 1_555 1_555
H25 C43 1_555 1_555
C44 C43 1_555 1_555
H26 C44 1_555 1_555
C45 C42 1_555 1_555
H27 C45 1_555 1_555
C46 C45 1_555 1_555
H28 C46 1_555 1_555
Mn1 O1 1_555 1_555
Mn2 O12 1_555 1_555
Mn3 N1 1_555 1_555
Mn4 O24 1_555 1_555
N1 C35 1_555 1_555
N2 C44 1_555 1_555
O1 C14 1_555 1_555
O2 C14 1_555 1_555
O3 C15 1_555 1_555
O4 C15 1_555 1_555
O5 C16 1_555 1_555
H29 O5 1_555 1_555
O6 C16 1_555 1_555
O7 C17 1_555 1_555
O8 C17 1_555 1_555
O9 C31 1_555 1_555
O10 C31 1_555 1_555
O11 C32 1_555 1_555
O12 C32 1_555 1_555
O13 C33 1_555 1_555
O14 C33 1_555 1_555
O15 C34 1_555 1_555
O16 C34 1_555 1_555
O17 Mn2 1_555 1_555
H30 O17 1_555 1_555
H31 O17 1_555 1_555
O18 Mn2 1_555 1_555
H32 O18 1_555 1_555
H33 O18 1_555 1_555
O19 Mn2 1_555 1_555
H34 O19 1_555 1_555
H35 O19 1_555 1_555
O20 Mn2 1_555 1_555
H36 O20 1_555 1_555
H37 O20 1_555 1_555
O21 Mn3 1_555 1_555
H38 O21 1_555 1_555
O22 Mn3 1_555 1_555
H39 O22 1_555 1_555
H40 O22 1_555 1_555
O23 Mn3 1_555 1_555
H41 O23 1_555 1_555
O24 H42 1_555 1_555
H43 O24 1_555 1_555
O25 Mn4 1_555 1_555
H44 O25 1_555 1_555
H45 O25 1_555 1_555
O26 Mn4 1_555 1_555
H46 O26 1_555 1_555
H47 O26 1_555 1_555
O27 Mn4 1_555 1_555
H48 O27 1_555 1_555
H49 O27 1_555 1_555
O28 Mn4 1_555 1_555
H50 O28 1_555 1_555
H51 O28 1_555 1_555
O29 Mn4 1_555 1_555
H52 O29 1_555 1_555
H53 O29 1_555 1_555
O30 H54 1_555 1_555
H55 O30 1_555 1_555
O31 H56 1_555 1_555
H57 O31 1_555 1_555
O32 H58 1_555 1_555
H59 O32 1_555 1_555
O33 H60 1_555 1_555
H61 O33 1_555 1_555
O34 H62 1_555 1_555
H63 O34 1_555 1_555
O35 H64 1_555 1_555
H65 O35 1_555 1_555
O36 H66 1_555 1_555
H67 O36 1_555 1_555
O37 H68 1_555 1_555
H69 O37 1_555 1_555
O38 H70 1_555 1_555
H71 O38 1_555 1_555
O39 H72 1_555 1_555
H73 O39 1_555 1_555
O40 H74 1_555 1_555
H75 O40 1_555 1_555
C1_2 C2_2 1_555 1_555
C2_2 H1_2 1_555 1_555
C3_2 C2_2 1_555 1_555
C4_2 C3_2 1_555 1_555
H2_2 C4_2 1_555 1_555
C5_2 C4_2 1_555 1_555
C6_2 C1_2 1_555 1_555
H3_2 C6_2 1_555 1_555
C7_2 C3_2 1_555 1_555
H4_2 C7_2 1_555 1_555
H5_2 C7_2 1_555 1_555
C8_2 C7_2 1_555 1_555
C9_2 C8_2 1_555 1_555
H6_2 C9_2 1_555 1_555
C10_2 C9_2 1_555 1_555
C11_2 C10_2 1_555 1_555
H7_2 C11_2 1_555 1_555
C12_2 C11_2 1_555 1_555
C13_2 C8_2 1_555 1_555
H8_2 C13_2 1_555 1_555
C14_2 C1_2 1_555 1_555
C15_2 C5_2 1_555 1_555
C16_2 C10_2 1_555 1_555
C17_2 C12_2 1_555 1_555
C18_2 C19_2 1_555 1_555
C19_2 H9_2 1_555 1_555
C20_2 C19_2 1_555 1_555
C21_2 C20_2 1_555 1_555
H10_2 C21_2 1_555 1_555
C22_2 C21_2 1_555 1_555
C23_2 C18_2 1_555 1_555
H11_2 C23_2 1_555 1_555
C24_2 C22_2 1_555 1_555
H12_2 C24_2 1_555 1_555
H13_2 C24_2 1_555 1_555
C25_2 C24_2 1_555 1_555
C26_2 C25_2 1_555 1_555
H14_2 C26_2 1_555 1_555
C27_2 C26_2 1_555 1_555
C28_2 C27_2 1_555 1_555
H15_2 C28_2 1_555 1_555
C29_2 C28_2 1_555 1_555
C30_2 C25_2 1_555 1_555
H16_2 C30_2 1_555 1_555
C31_2 C18_2 1_555 1_555
C32_2 C20_2 1_555 1_555
C33_2 C27_2 1_555 1_555
C34_2 C29_2 1_555 1_555
C35A H17A 1_555 1_555
C36A C35A 1_555 1_555
H18A C36A 1_555 1_555
C37A C36A 1_555 1_555
C38A C37A 1_555 1_555
H19A C38A 1_555 1_555
C39A C38A 1_555 1_555
H20A C39A 1_555 1_555
C40A C37A 1_555 1_555
H21A C40A 1_555 1_555
H22A C40A 1_555 1_555
C41A C40A 1_555 1_555
H23A C41A 1_555 1_555
H24A C41A 1_555 1_555
C42A C41A 1_555 1_555
C43A C42A 1_555 1_555
H25A C43A 1_555 1_555
C44A C43A 1_555 1_555
H26A C44A 1_555 1_555
C45A C42A 1_555 1_555
H27A C45A 1_555 1_555
C46A C45A 1_555 1_555
H28A C46A 1_555 1_555
Mn1_2 O13 1_555 1_555
Mn1_3 O7 1_555 1_555
Mn2_2 O12_2 1_555 1_555
Mn2C O14 1_555 1_555
Mn2C_2 O14_2 1_555 1_555
N1A Mn3 1_555 1_555
N2A C44A 1_555 1_555
O1_2 C14_2 1_555 1_555
O2_2 C14_2 1_555 1_555
O3_2 C15_2 1_555 1_555
O4_2 C15_2 1_555 1_555
O5_2 C16_2 1_555 1_555
H29_2 O5_2 1_555 1_555
O6_2 C16_2 1_555 1_555
O7_2 Mn1 1_555 1_555
O7_3 Mn1_2 1_555 1_555
O8_2 Mn1 1_555 1_555
O8_3 Mn1_2 1_555 1_555
O9_2 C31_2 1_555 1_555
O9_3 Mn1_2 1_555 1_555
O10_2 C31_2 1_555 1_555
O10_3 Mn1_2 1_555 1_555
O11_2 C32_2 1_555 1_555
O12_2 C32_2 1_555 1_555
O13_2 Mn1 1_555 1_555
O14_2 C33_2 1_555 1_555
O14C Mn2 1_555 1_555
O14C_2 Mn2_2 1_555 1_555
O15_2 C34_2 1_555 1_555
O16_2 C34_2 1_555 1_555
O17_2 Mn2_2 1_555 1_555
H30_2 O17_2 1_555 1_555
H31_2 O17_2 1_555 1_555
O18_2 Mn2_2 1_555 1_555
H32_2 O18_2 1_555 1_555
H33_2 O18_2 1_555 1_555
O19_2 Mn2_2 1_555 1_555
H34_2 O19_2 1_555 1_555
H35_2 O19_2 1_555 1_555
O20_2 Mn2_2 1_555 1_555
H36_2 O20_2 1_555 1_555
H37_2 O20_2 1_555 1_555
H38A O21 1_555 1_555
O22A Mn3 1_555 1_555
H39A O22A 1_555 1_555
H40A O22A 1_555 1_555
H41A O23 1_555 1_555
C5 C6 1_555 1_555
C12 C13 1_555 1_555
C22 C23 1_555 1_555
C29 C30 1_555 1_555
C39 N1 1_555 1_555
C46 N2 1_555 1_555
Mn1 O9 1_555 1_555
Mn1 O10 1_555 1_555
O8 Mn1_3 1_555 1_555
C5_2 C6_2 1_555 1_555
C12_2 C13_2 1_555 1_555
C17_2 O7_2 1_555 1_555
C17_2 O8_2 1_555 1_555
C22_2 C23_2 1_555 1_555
C29_2 C30_2 1_555 1_555
C33_2 O13_2 1_555 1_555
C35A N1A 1_555 1_555
C39A N1A 1_555 1_555
C46A N2A 1_555 1_555
Mn1_2 O1_2 1_555 1_555
Mn1_3 O9_2 1_555 1_555
Mn1_3 O10_2 1_555 1_555

#END
