
#######################################################################
#
#                 Cambridge Crystallographic Data Centre
#                                CCDC 
#
#######################################################################
#
# If this CIF has been generated from an entry in the Cambridge 
# Structural Database, then it will include bibliographic, chemical, 
# crystal, experimental, refinement or atomic coordinate data resulting 
# from the CCDC's data processing and validation procedures.
#
#######################################################################

data_OYOVEE
_symmetry_cell_setting           monoclinic
_symmetry_space_group_name_H-M   'P 21/c'
_symmetry_Int_Tables_number      14
_space_group_name_Hall           '-P 2ybc'
loop_
_symmetry_equiv_pos_site_id
_symmetry_equiv_pos_as_xyz
1 x,y,z
2 -x,1/2+y,1/2-z
3 -x,-y,-z
4 x,1/2-y,1/2+z
_cell_length_a                   13.151(3)
_cell_length_b                   11.436(2)
_cell_length_c                   17.082(3)
_cell_angle_alpha                90
_cell_angle_beta                 104.63(3)
_cell_angle_gamma                90
_cell_volume                     2485.75
loop_
_atom_site_label
_atom_site_type_symbol
_atom_site_fract_x
_atom_site_fract_y
_atom_site_fract_z
Pt1 Pt 0.50000 0.00000 0.50000
Pt2 Pt 0.94764(3) 0.34680(3) 0.989800(17)
Pt3 Pt 0.50000 0.50000 0.50000
N1 N 0.5858(4) 0.1470(4) 0.4902(3)
C1 C 0.6596(6) 0.1885(6) 0.5557(4)
N2 N 0.6658(5) 0.1344(5) 0.6287(3)
H1 H 0.7107 0.1581 0.6716
H2 H 0.6247 0.0769 0.6314
N3 N 0.7260(4) 0.2762(5) 0.5564(3)
C2 C 0.7135(6) 0.3218(5) 0.4819(4)
C3 C 0.6442(6) 0.2890(6) 0.4124(4)
C4 C 0.5741(6) 0.1968(6) 0.4141(4)
O1 O 0.5060(4) 0.1560(4) 0.3534(3)
N4 N 0.6572(5) 0.3534(5) 0.3466(3)
C5 C 0.7348(7) 0.4232(6) 0.3797(5)
H3 H 0.7625 0.4792 0.3496
N5 N 0.7726(5) 0.4089(5) 0.4611(4)
C6 C 0.8559(6) 0.4742(6) 0.5127(5)
H4 H 0.8879 0.5258 0.4798
H5 H 0.9092 0.4203 0.5433
H6 H 0.8277 0.5213 0.5503
N6 N 0.3903(4) 0.0961(4) 0.5385(3)
H7 H 0.424 0.1515 0.5728
H8 H 0.3577 0.0487 0.5665
C7 C 0.3101(6) 0.1535(7) 0.4747(4)
H9 H 0.2688 0.2069 0.4992
H10 H 0.2636 0.0942 0.4429
H11 H 0.3443 0.1976 0.4393
C8 C 0.9142(6) 0.4267(7) 1.0824(4)
N7 N 0.8984(5) 0.4652(6) 1.1400(4)
C9 C 0.8372(6) 0.4327(6) 0.9123(4)
N8 N 0.7702(5) 0.4833(6) 0.8673(4)
C10 C 0.9803(6) 0.2568(7) 0.8995(4)
N9 N 0.9962(6) 0.2013(6) 0.8477(4)
C11 C 0.0595(7) 0.2652(7) 0.0690(5)
N10 N 0.1273(7) 0.2247(7) 0.1187(5)
C12 C 0.3797(6) 0.4510(6) 0.4111(4)
N11 N 0.3097(6) 0.4284(5) 0.3563(4)
C13 C 0.4548(6) 0.1039(6) 0.0780(4)
N12 N 0.4333(5) 0.1638(5) 0.1248(4)
K1 K 0.34727(15) 0.26934(15) 0.23950(10)
K2 K 0.90070(15) 0.57262(16) 0.74829(10)
K3 K 0.64631(14) 0.35105(15) 0.73604(9)
O2 O 0.4817(4) 0.4443(4) 0.2252(3)
H12 H 0.5344 0.4342 0.266
H13 H 0.4937 0.5127 0.1992
O3 O 0.8557(4) 0.3425(4) 0.7110(3)
H14 H 0.8283 0.3106 0.6624
H15 H 0.9042 0.3039 0.7502
O4 O 0.2003(6) 0.1203(7) 0.2674(4)
H16 H 0.1673 0.0627 0.2967
H17 H 0.166 0.1797 0.2271
Pt2B Pt 0.05236(3) -0.34680(3) 0.010200(17)
Pt2_2 Pt -0.05236(3) 0.34680(3) -0.010200(17)
Pt2B_2 Pt 1.05236(3) -0.34680(3) 1.010200(17)
Pt2B_3 Pt 1.05236(3) 0.65320(3) 1.010200(17)
Pt2A Pt 1.05236(3) 0.84680(3) 0.510200(17)
Pt3A Pt 0.50000 0.00000 0.00000
N1B N 0.4142(4) -0.1470(4) 0.5098(3)
C1B C 0.3404(6) -0.1885(6) 0.4443(4)
N2B N 0.3342(5) -0.1344(5) 0.3713(3)
H1B H 0.2893 -0.1581 0.3284
H2B H 0.3753 -0.0769 0.3686
N3B N 0.2740(4) -0.2762(5) 0.4436(3)
C2B C 0.2865(6) -0.3218(5) 0.5181(4)
C3B C 0.3558(6) -0.2890(6) 0.5876(4)
C4B C 0.4259(6) -0.1968(6) 0.5859(4)
O1B O 0.4940(4) -0.1560(4) 0.6466(3)
O1C O 0.5060(4) 0.3440(4) 0.8534(3)
O1A O 0.4940(4) -0.3440(4) 0.1466(3)
N4B N 0.3428(5) -0.3534(5) 0.6534(3)
N4C N 0.6572(5) 0.1466(5) 0.8466(3)
N4A N 0.3428(5) -0.1466(5) 0.1534(3)
C5B C 0.2652(7) -0.4232(6) 0.6203(5)
H3B H 0.2375 -0.4792 0.6504
N5B N 0.2274(5) -0.4089(5) 0.5389(4)
C6B C 0.1441(6) -0.4742(6) 0.4873(5)
H4B H 0.1121 -0.5258 0.5202
H5B H 0.0908 -0.4203 0.4567
H6B H 0.1723 -0.5213 0.4497
N6B N 0.6097(4) -0.0961(4) 0.4615(3)
H7B H 0.576 -0.1515 0.4272
H8B H 0.6423 -0.0487 0.4335
C7B C 0.6899(6) -0.1535(7) 0.5253(4)
H9B H 0.7312 -0.2069 0.5008
H10B H 0.7364 -0.0942 0.5571
H11B H 0.6557 -0.1976 0.5607
C8B C 1.0858(6) 0.5733(7) 0.9176(4)
C8B_2 C 0.0858(6) -0.4267(7) -0.0824(4)
N7B N 1.1016(5) 0.5348(6) 0.8600(4)
N7_2 N -0.1016(5) -0.5348(6) 0.1400(4)
C9B C 0.1628(6) -0.4327(6) 0.0877(4)
N8B N 0.2298(5) -0.4833(6) 0.1327(4)
C10A C 1.0197(6) 0.7568(7) 0.6005(4)
C10B C 0.0197(6) -0.2568(7) 0.1005(4)
N9A N 1.0038(6) 0.7013(6) 0.6523(4)
N9C N -0.0038(6) -0.7013(6) 0.3477(4)
C11B C 0.9405(7) -0.2652(7) 0.9310(5)
C11_2 C 1.0595(7) 0.2652(7) 1.0690(5)
C11B_2 C -0.0595(7) -0.2652(7) -0.0690(5)
N10B N 0.8727(7) -0.2247(7) 0.8813(5)
C12B C 0.6203(6) 0.5490(6) 0.5889(4)
N11B N 0.6903(6) 0.5716(5) 0.6437(4)
N11B_2 N 0.6903(6) -0.4284(5) 0.6437(4)
N11_2 N 0.3097(6) -0.5716(5) 0.3563(4)
C13C C 0.4548(6) 0.3961(6) 0.5780(4)
C13A C 0.5452(6) 0.6039(6) 0.4220(4)
N12C N 0.4333(5) 0.3362(5) 0.6248(4)
N12B N 0.5667(5) -0.1638(5) 0.8752(4)
N12A N 0.5667(5) -0.3362(5) 0.3752(4)
K1B K 0.65273(15) -0.26934(15) 0.76050(10)
K1B_2 K 0.65273(15) 0.73066(15) 0.76050(10)
K1C K 0.34727(15) 0.23066(15) 0.73950(10)
K2B K 0.09930(15) -0.57262(16) 0.25171(10)
K2B_2 K 1.09930(15) 0.42738(16) 1.25171(10)
K2A K 1.09930(15) 0.07262(16) 0.75171(10)
K2B_3 K 0.09930(15) 0.42738(16) 0.25171(10)
K3B K 0.35369(14) -0.35105(15) 0.26396(9)
K3C K 0.64631(14) 0.14895(15) 0.23604(9)
K3B_2 K 0.35369(14) 0.64895(15) 0.26396(9)
K3A K 0.35369(14) -0.14895(15) 0.76396(9)
O2B O 0.5183(4) 0.5557(4) 0.7748(3)
O2B_2 O 0.5183(4) -0.4443(4) 0.7748(3)
O2_2 O 0.4817(4) -0.5557(4) 0.2252(3)
H12B H 0.4656 0.5658 0.734
H12B_2 H 0.4656 -0.4342 0.734
H12_2 H 0.5344 -0.5658 0.266
H13B H 0.5063 0.4873 0.8008
H13B_2 H 0.5063 -0.5127 0.8008
H13_2 H 0.4937 -0.4873 0.1992
O3B O 0.1443(4) -0.3425(4) 0.2890(3)
H14B H 0.1717 -0.3106 0.3376
H15B H 0.0958 -0.3039 0.2498
O4B O 0.7997(6) -0.1203(7) 0.7326(4)
H16B H 0.8327 -0.0627 0.7033
H17B H 0.834 -0.1797 0.7729
loop_
_geom_bond_atom_site_label_1
_geom_bond_atom_site_label_2
_geom_bond_site_symmetry_1
_geom_bond_site_symmetry_2
Pt1 N1 1_555 1_555
Pt2 C8 1_555 1_555
Pt3 C12 1_555 1_555
N1 C1 1_555 1_555
C1 N2 1_555 1_555
N2 H1 1_555 1_555
H2 N2 1_555 1_555
N3 C1 1_555 1_555
C2 N3 1_555 1_555
C3 C2 1_555 1_555
C4 N1 1_555 1_555
O1 C4 1_555 1_555
N4 C3 1_555 1_555
C5 N4 1_555 1_555
H3 C5 1_555 1_555
N5 C2 1_555 1_555
C6 N5 1_555 1_555
H4 C6 1_555 1_555
H5 C6 1_555 1_555
H6 C6 1_555 1_555
N6 Pt1 1_555 1_555
H7 N6 1_555 1_555
H8 N6 1_555 1_555
C7 N6 1_555 1_555
H9 C7 1_555 1_555
H10 C7 1_555 1_555
H11 C7 1_555 1_555
C8 N7 1_555 1_555
N7 K2B_2 1_555 1_555
C9 Pt2 1_555 1_555
N8 C9 1_555 1_555
C10 Pt2 1_555 1_555
N9 C10 1_555 1_555
C11 N10 1_555 1_555
N10 K1 1_555 1_555
C12 N11 1_555 1_555
N11 K1 1_555 1_555
C13 N12 1_555 1_555
N12 K1 1_555 1_555
K1 O1 1_555 1_555
K2 N8 1_555 1_555
K3 N2 1_555 1_555
O2 K1 1_555 1_555
H12 O2 1_555 1_555
H13 O2 1_555 1_555
O3 K2 1_555 1_555
H14 O3 1_555 1_555
H15 O3 1_555 1_555
O4 K1 1_555 1_555
H16 O4 1_555 1_555
H17 O4 1_555 1_555
Pt2B C8B_2 1_555 1_555
Pt2_2 C11 1_555 1_555
Pt2B_2 C11B 1_555 1_555
Pt2B_3 C8B 1_555 1_555
Pt2A C10A 1_555 1_555
Pt3A C13 1_555 1_555
N1B Pt1 1_555 1_555
C1B N1B 1_555 1_555
N2B C1B 1_555 1_555
H1B N2B 1_555 1_555
H2B N2B 1_555 1_555
N3B C1B 1_555 1_555
C2B N3B 1_555 1_555
C3B C2B 1_555 1_555
C4B N1B 1_555 1_555
O1B C4B 1_555 1_555
O1C K3 1_555 1_555
O1A K3B 1_555 1_555
N4B C3B 1_555 1_555
N4C K3 1_555 1_555
N4A K3B 1_555 1_555
C5B N4B 1_555 1_555
H3B C5B 1_555 1_555
N5B C2B 1_555 1_555
C6B N5B 1_555 1_555
H4B C6B 1_555 1_555
H5B C6B 1_555 1_555
H6B C6B 1_555 1_555
N6B Pt1 1_555 1_555
H7B N6B 1_555 1_555
H8B N6B 1_555 1_555
C7B N6B 1_555 1_555
H9B C7B 1_555 1_555
H10B C7B 1_555 1_555
H11B C7B 1_555 1_555
C8B N7B 1_555 1_555
N7B K2 1_555 1_555
N7_2 K2B 1_555 1_555
C9B Pt2B 1_555 1_555
N8B C9B 1_555 1_555
C10A N9A 1_555 1_555
C10B Pt2B 1_555 1_555
N9A K2 1_555 1_555
N9C K2B 1_555 1_555
C11B N10B 1_555 1_555
C11_2 Pt2 1_555 1_555
C11B_2 Pt2B 1_555 1_555
N10B K1B 1_555 1_555
C12B Pt3 1_555 1_555
N11B K2 1_555 1_555
N11B_2 K1B 1_555 1_555
N11_2 K2B 1_555 1_555
C13C Pt3 1_555 1_555
C13A Pt3 1_555 1_555
N12C K3 1_555 1_555
N12B K1B 1_555 1_555
N12A K3B 1_555 1_555
K1B O1B 1_555 1_555
K1B_2 N11B 1_555 1_555
K1C O1C 1_555 1_555
K2B N8B 1_555 1_555
K2A N9 1_555 1_555
K2B_3 N11 1_555 1_555
K3B N2B 1_555 1_555
K3C O1 1_555 1_555
K3B_2 N11 1_555 1_555
K3A O1B 1_555 1_555
O2B K3 1_555 1_555
O2B_2 K1B 1_555 1_555
O2_2 K3B 1_555 1_555
H12B O2B 1_555 1_555
H12B_2 O2B_2 1_555 1_555
H12_2 O2_2 1_555 1_555
H13B O2B 1_555 1_555
H13B_2 O2B_2 1_555 1_555
H13_2 O2_2 1_555 1_555
O3B K2B 1_555 1_555
H14B O3B 1_555 1_555
H15B O3B 1_555 1_555
O4B K1B 1_555 1_555
H16B O4B 1_555 1_555
H17B O4B 1_555 1_555
C3 C4 1_555 1_555
N4 K3C 1_555 1_555
C5 N5 1_555 1_555
N8 K3 1_555 1_555
N12 K3C 1_555 1_555
K3 O3 1_555 1_555
K3 N11B 1_555 1_555
O2 K3B_2 1_555 1_555
C3B C4B 1_555 1_555
N4B K3A 1_555 1_555
C5B N5B 1_555 1_555
N8B K3B 1_555 1_555
C12B N11B 1_555 1_555
N11_2 K3B 1_555 1_555
C13C N12C 1_555 1_555
N12C K1C 1_555 1_555
N12B K3A 1_555 1_555
K1B_2 O2B 1_555 1_555
K3B O3B 1_555 1_555

#END
