
#######################################################################
#
#                 Cambridge Crystallographic Data Centre
#                                CCDC 
#
#######################################################################
#
# If this CIF has been generated from an entry in the Cambridge 
# Structural Database, then it will include bibliographic, chemical, 
# crystal, experimental, refinement or atomic coordinate data resulting 
# from the CCDC's data processing and validation procedures.
#
#######################################################################

data_OYOYOR
_symmetry_cell_setting           monoclinic
_symmetry_space_group_name_H-M   'P 21/c'
_symmetry_Int_Tables_number      14
_space_group_name_Hall           '-P 2ybc'
loop_
_symmetry_equiv_pos_site_id
_symmetry_equiv_pos_as_xyz
1 x,y,z
2 -x,1/2+y,1/2-z
3 -x,-y,-z
4 x,1/2-y,1/2+z
_cell_length_a                   10.8203(9)
_cell_length_b                   9.3214(8)
_cell_length_c                   18.1877(16)
_cell_angle_alpha                90
_cell_angle_beta                 92.324(1)
_cell_angle_gamma                90
_cell_volume                     1832.91
loop_
_atom_site_label
_atom_site_type_symbol
_atom_site_fract_x
_atom_site_fract_y
_atom_site_fract_z
O1 O 0.89787(13) 0.13851(16) 0.42942(8)
Co1 Co 1.0000 0.0000 0.5000
N1 N 0.8321(2) 0.49174(19) 0.21401(10)
O2 O 0.83713(13) -0.06470(16) 0.55199(8)
O3 O 0.70425(15) 0.0929(2) 0.45853(9)
N2 N 0.97507(16) 0.82700(19) 0.42192(9)
N3 N 0.47894(17) 0.1743(2) 0.20947(11)
C1 C 0.8073(2) 0.3235(2) 0.31568(12)
H1 H 0.8802 0.3549 0.3393
C2 C 0.6580(2) 0.3322(2) 0.21282(12)
H2 H 0.6311 0.3711 0.1679
C3 C 1.0721(2) 0.7470(3) 0.40388(13)
H3 H 1.1462 0.7584 0.4310
C4 C 0.73683(19) 0.2172(2) 0.34707(12)
C5 C 0.58995(19) 0.2250(3) 0.24445(13)
C6 C 0.8579(2) 0.7088(2) 0.32539(12)
H4 H 0.7822 0.6971 0.3001
C7 C 0.9556(2) 0.5307(2) 0.24000(13)
H5 H 0.9975 0.5766 0.2002
H6 H 1.0008 0.4439 0.2530
C8 C 0.9594(2) 0.6298(2) 0.30558(11)
C9 C 0.7821(2) 0.1456(2) 0.41719(12)
C10 C 1.0679(2) 0.6489(2) 0.34751(13)
H7 H 1.1378 0.5954 0.3375
N4 N 0.7508(2) -0.1565(2) 0.06211(14)
C11 C 0.5764(2) 0.0460(3) 0.10581(14)
C12 C 0.62809(19) 0.1685(3) 0.31228(13)
H8 H 0.5810 0.0983 0.3343
C13 C 0.7677(2) 0.3831(2) 0.24794(12)
C14 C 0.6392(2) 0.0622(3) 0.04263(14)
H9 H 0.6246 0.1421 0.0129
C15 C 0.4787(2) 0.1501(3) 0.13028(14)
H10 H 0.4908 0.2414 0.1060
H11 H 0.3980 0.1141 0.1141
C16 C 0.8695(2) 0.8048(2) 0.38280(12)
H12 H 0.8000 0.8571 0.3950
C17 C 0.6067(3) -0.0742(3) 0.14814(17)
H13 H 0.5693 -0.0891 0.1927
C18 C 0.7239(3) -0.0391(3) 0.02292(16)
H14 H 0.7650 -0.0248 -0.0204
C19 C 0.6920(3) -0.1708(3) 0.12403(19)
H15 H 0.7094 -0.2511 0.1530
H16 H 0.8281 0.5107 0.1693
H17 H 0.7915 -0.0066 0.5302
H18 H 0.8212 -0.1522 0.5503
H19 H 0.4571 0.1034 0.2367
O1B O 1.10213(13) -0.13851(16) 0.57058(8)
Co1_2 Co 1.0000 -1.0000 0.5000
Co1_3 Co 1.0000 1.0000 0.5000
N1B N 1.1679(2) -0.49174(19) 0.78599(10)
O2B O 1.16287(13) 0.06470(16) 0.44801(8)
O3B O 1.29575(15) -0.0929(2) 0.54147(9)
N2_2 N 0.97507(16) -0.17300(19) 0.42192(9)
N2B N 1.02493(16) 0.17300(19) 0.57808(9)
N2B_2 N 1.02493(16) -0.82700(19) 0.57808(9)
N3B N 1.52106(17) -0.1743(2) 0.79053(11)
C1B C 1.1927(2) -0.3235(2) 0.68432(12)
H1B H 1.1198 -0.3549 0.6607
C2B C 1.3420(2) -0.3322(2) 0.78718(12)
H2B H 1.3689 -0.3711 0.8321
C3B C 0.9279(2) -0.7470(3) 0.59612(13)
H3B H 0.8538 -0.7584 0.5690
C4B C 1.26317(19) -0.2172(2) 0.65293(12)
C5B C 1.41005(19) -0.2250(3) 0.75555(13)
C6B C 1.1421(2) -0.7088(2) 0.67461(12)
H4B H 1.2178 -0.6971 0.6999
C7B C 1.0444(2) -0.5307(2) 0.76000(13)
H5B H 1.0025 -0.5766 0.7998
H6B H 0.9992 -0.4439 0.7470
C8B C 1.0406(2) -0.6298(2) 0.69442(11)
C9B C 1.2179(2) -0.1456(2) 0.58281(12)
C10B C 0.9321(2) -0.6489(2) 0.65249(13)
H7B H 0.8622 -0.5954 0.6625
N4B N 1.2492(2) 0.1565(2) 0.93789(14)
C11B C 1.4236(2) -0.0460(3) 0.89419(14)
C12B C 1.37191(19) -0.1685(3) 0.68772(13)
H8B H 1.4190 -0.0983 0.6657
C13B C 1.2323(2) -0.3831(2) 0.75206(12)
C14B C 1.3608(2) -0.0622(3) 0.95737(14)
H9B H 1.3754 -0.1421 0.9871
C15B C 1.5213(2) -0.1501(3) 0.86972(14)
H10B H 1.5092 -0.2414 0.8940
H11B H 1.6020 -0.1141 0.8859
C16B C 1.1305(2) -0.8048(2) 0.61720(12)
H12B H 1.2000 -0.8571 0.6050
C17B C 1.3933(3) 0.0742(3) 0.85186(17)
H13B H 1.4307 0.0891 0.8073
C18B C 1.2761(3) 0.0391(3) 0.97708(16)
H14B H 1.2350 0.0248 1.0204
C19B C 1.3080(3) 0.1708(3) 0.87597(19)
H15B H 1.2906 0.2511 0.8470
H16B H 1.1719 -0.5107 0.8307
H17B H 1.2085 0.0066 0.4698
H18B H 1.1788 0.1522 0.4497
H19B H 1.5429 -0.1034 0.7633
O4 O 0.5247(4) 0.4784(4) 0.0513(3)
H20 H 0.5729 0.4698 0.0135
H21 H 0.4445 0.5079 0.0476
loop_
_geom_bond_atom_site_label_1
_geom_bond_atom_site_label_2
_geom_bond_site_symmetry_1
_geom_bond_site_symmetry_2
O1 Co1 1_555 1_555
Co1 O2 1_555 1_555
N1 C7 1_555 1_555
O2 H17 1_555 1_555
O3 C9 1_555 1_555
N2 C3 1_555 1_555
N3 C5 1_555 1_555
C1 H1 1_555 1_555
C2 H2 1_555 1_555
C3 H3 1_555 1_555
C4 C1 1_555 1_555
C5 C2 1_555 1_555
C6 H4 1_555 1_555
C7 H5 1_555 1_555
H6 C7 1_555 1_555
C8 C6 1_555 1_555
C9 O1 1_555 1_555
C10 C3 1_555 1_555
H7 C10 1_555 1_555
N4 C18 1_555 1_555
C11 C14 1_555 1_555
C12 C4 1_555 1_555
H8 C12 1_555 1_555
C13 N1 1_555 1_555
C14 H9 1_555 1_555
C15 N3 1_555 1_555
H10 C15 1_555 1_555
H11 C15 1_555 1_555
C16 N2 1_555 1_555
H12 C16 1_555 1_555
C17 C11 1_555 1_555
H13 C17 1_555 1_555
C18 C14 1_555 1_555
H14 C18 1_555 1_555
C19 N4 1_555 1_555
H15 C19 1_555 1_555
O4 H20 1_555 1_555
H16 N1 1_555 1_555
H18 O2 1_555 1_555
H19 N3 1_555 1_555
H21 O4 1_555 1_555
O1B Co1 1_555 1_555
Co1_2 N2B_2 1_555 1_555
Co1_3 N2 1_555 1_555
N1B C7B 1_555 1_555
O2B Co1 1_555 1_555
O3B C9B 1_555 1_555
N2_2 Co1 1_555 1_555
N2B Co1 1_555 1_555
N2B_2 C3B 1_555 1_555
N3B C5B 1_555 1_555
C1B H1B 1_555 1_555
C2B H2B 1_555 1_555
C3B H3B 1_555 1_555
C4B C1B 1_555 1_555
C5B C2B 1_555 1_555
C6B H4B 1_555 1_555
C7B H5B 1_555 1_555
H6B C7B 1_555 1_555
C8B C6B 1_555 1_555
C9B O1B 1_555 1_555
C10B C3B 1_555 1_555
H7B C10B 1_555 1_555
N4B C18B 1_555 1_555
C11B C14B 1_555 1_555
C12B C4B 1_555 1_555
H8B C12B 1_555 1_555
C13B N1B 1_555 1_555
C14B H9B 1_555 1_555
C15B N3B 1_555 1_555
H10B C15B 1_555 1_555
H11B C15B 1_555 1_555
C16B N2B_2 1_555 1_555
H12B C16B 1_555 1_555
C17B C11B 1_555 1_555
H13B C17B 1_555 1_555
C18B C14B 1_555 1_555
H14B C18B 1_555 1_555
C19B N4B 1_555 1_555
H15B C19B 1_555 1_555
H16B N1B 1_555 1_555
H17B O2B 1_555 1_555
H18B O2B 1_555 1_555
H19B N3B 1_555 1_555
C1 C13 1_555 1_555
C2 C13 1_555 1_555
C4 C9 1_555 1_555
C5 C12 1_555 1_555
C6 C16 1_555 1_555
C7 C8 1_555 1_555
C8 C10 1_555 1_555
C11 C15 1_555 1_555
C17 C19 1_555 1_555
C1B C13B 1_555 1_555
C2B C13B 1_555 1_555
C4B C9B 1_555 1_555
C5B C12B 1_555 1_555
C6B C16B 1_555 1_555
C7B C8B 1_555 1_555
C8B C10B 1_555 1_555
C11B C15B 1_555 1_555
C17B C19B 1_555 1_555

#END
