
#######################################################################
#
#                 Cambridge Crystallographic Data Centre
#                                CCDC 
#
#######################################################################
#
# If this CIF has been generated from an entry in the Cambridge 
# Structural Database, then it will include bibliographic, chemical, 
# crystal, experimental, refinement or atomic coordinate data resulting 
# from the CCDC's data processing and validation procedures.
#
#######################################################################

data_OYOZEI
_symmetry_cell_setting           triclinic
_symmetry_space_group_name_H-M   'P -1'
_symmetry_Int_Tables_number      2
_space_group_name_Hall           '-P 1'
loop_
_symmetry_equiv_pos_site_id
_symmetry_equiv_pos_as_xyz
1 x,y,z
2 -x,-y,-z
_cell_length_a                   7.4420(8)
_cell_length_b                   10.6283(11)
_cell_length_c                   12.4321(13)
_cell_angle_alpha                107.056(2)
_cell_angle_beta                 104.004(2)
_cell_angle_gamma                102.655(2)
_cell_volume                     866.398
loop_
_atom_site_label
_atom_site_type_symbol
_atom_site_fract_x
_atom_site_fract_y
_atom_site_fract_z
H1 H 0.517(12) 0.719(9) 0.574(7)
C1 C 0.0335(8) 0.3156(6) 0.7255(5)
C2 C -0.0408(11) 0.3264(7) 0.6081(6)
H2 H -0.0693 0.4121 0.6188
H3 H -0.1574 0.2504 0.5600
H4 H 0.0561 0.3235 0.5694
C3 C 0.0505(9) 0.1667(6) 0.8415(5)
H5 H -0.0568 0.1032 0.8492
H6 H 0.0952 0.2523 0.9102
C4 C 0.5167(8) 0.2931(6) 0.9159(5)
C5 C 0.6686(9) 0.3850(7) 0.8883(6)
H7 H 0.7938 0.3763 0.9216
H8 H 0.6371 0.3580 0.8035
H9 H 0.6721 0.4795 0.9221
C6 C 0.2118(9) 0.1058(6) 0.8403(5)
H10 H 0.1642 0.0171 0.7748
H11 H 0.2536 0.0893 0.9137
C7 C 0.4567(9) 0.6997(6) 0.6862(5)
C8 C 0.4798(10) 0.8465(6) 0.7503(6)
H12 H 0.3561 0.8623 0.7292
H13 H 0.5712 0.9049 0.7287
H14 H 0.5271 0.8675 0.8346
C9 C 0.5794(11) 0.5234(11) 0.5467(8)
H15 H 0.6982 0.5353 0.5262
H16 H 0.5778 0.4684 0.5966
N1 N -0.0177(8) 0.1946(5) 0.7346(5)
N2 N 0.3764(8) 0.1939(5) 0.8280(5)
N3 N 0.5368(13) 0.6739(6) 0.6043(7)
N4 N 0.0031(11) 0.7508(8) 0.8522(7)
O1 O 0.1427(6) 0.4186(4) 0.8153(3)
O2 O 0.5199(6) 0.3121(4) 1.0199(3)
O3 O 0.3704(7) 0.6034(4) 0.7107(4)
O4 O 0.0151(16) 0.6794(13) 0.7646(10)
O5 O 0.126(2) 0.7492(16) 0.9196(9)
O6 O -0.0998(9) 0.8202(7) 0.8651(6)
Zn1 Zn 0.25475(9) 0.60990(6) 0.83536(5)
H17 H -0.077(9) 0.139(6) 0.679(5)
H18 H 0.369(9) 0.194(6) 0.772(5)
H1A H 0.483(12) 0.281(9) 0.426(7)
C1A C 0.9665(8) 0.6844(6) 1.2745(5)
C2A C 1.0408(11) 0.6736(7) 1.3919(6)
H2A H 1.0693 0.5879 1.3812
H3A H 1.1574 0.7496 1.4400
H4A H 0.9439 0.6765 1.4306
C3A C 0.9495(9) 0.8333(6) 1.1585(5)
H5A H 1.0568 0.8968 1.1508
H6A H 0.9048 0.7477 1.0898
C4A C 0.4833(8) 0.7069(6) 1.0841(5)
C5A C 0.3314(9) 0.6150(7) 1.1117(6)
H7A H 0.2062 0.6237 1.0784
H8A H 0.3629 0.6420 1.1965
H9A H 0.3279 0.5205 1.0779
C6A C 0.7882(9) 0.8942(6) 1.1597(5)
H10A H 0.8358 0.9829 1.2252
H11A H 0.7464 0.9107 1.0863
C7A C 0.5433(9) 0.3003(6) 0.3138(5)
C8A C 0.5202(10) 0.1535(6) 0.2497(6)
H12A H 0.6439 0.1377 0.2708
H13A H 0.4288 0.0951 0.2713
H14A H 0.4729 0.1325 0.1654
C9A C 0.4206(11) 0.4766(11) 0.4533(8)
H15A H 0.3018 0.4647 0.4738
H16A H 0.4222 0.5316 0.4034
N1A N 1.0177(8) 0.8054(5) 1.2654(5)
N2A N 0.6236(8) 0.8061(5) 1.1720(5)
N3A N 0.4632(13) 0.3261(6) 0.3957(7)
N4A N 0.9969(11) 0.2492(8) 1.1478(7)
O1A O 0.8573(6) 0.5814(4) 1.1847(3)
O2A O 0.4801(6) 0.6879(4) 0.9801(3)
O3A O 0.6296(7) 0.3966(4) 0.2893(4)
O3A_2 O 0.6296(7) 0.3966(4) 1.2893(4)
O4A O 0.9849(16) 0.3206(13) 1.2354(10)
O5A O 0.874(2) 0.2508(16) 1.0804(9)
O6A O 1.0998(9) 0.1798(7) 1.1349(6)
Zn1A Zn 0.74525(9) 0.39010(6) 1.16464(5)
Zn1A_2 Zn 0.74525(9) 0.39010(6) 0.16464(5)
H17A H 1.077(9) 0.861(6) 1.321(5)
H18A H 0.631(9) 0.806(6) 1.228(5)
N5 N 0.2962(8) 0.1016(6) 0.5274(5)
O7 O 0.3833(9) 0.2219(5) 0.5983(4)
O8 O 0.2578(8) 0.0784(5) 0.4200(4)
O9 O 0.2440(10) 0.0089(5) 0.5621(5)
loop_
_geom_bond_atom_site_label_1
_geom_bond_atom_site_label_2
_geom_bond_site_symmetry_1
_geom_bond_site_symmetry_2
H1 N3 1_555 1_555
C1 C2 1_555 1_555
C2 H2 1_555 1_555
H3 C2 1_555 1_555
H4 C2 1_555 1_555
C3 H5 1_555 1_555
H6 C3 1_555 1_555
C4 C5 1_555 1_555
C5 H7 1_555 1_555
H8 C5 1_555 1_555
H9 C5 1_555 1_555
C6 C3 1_555 1_555
H10 C6 1_555 1_555
H11 C6 1_555 1_555
C7 C8 1_555 1_555
C8 H12 1_555 1_555
H13 C8 1_555 1_555
H14 C8 1_555 1_555
C9 H15 1_555 1_555
H16 C9 1_555 1_555
N1 C1 1_555 1_555
N2 C4 1_555 1_555
N3 C7 1_555 1_555
N4 O4 1_555 1_555
N5 O7 1_555 1_555
O1 C1 1_555 1_555
O2 C4 1_555 1_555
O3 C7 1_555 1_555
O4 Zn1 1_555 1_555
O5 N4 1_555 1_555
O6 N4 1_555 1_555
O8 N5 1_555 1_555
O9 N5 1_555 1_555
Zn1 O1 1_555 1_555
H17 N1 1_555 1_555
H18 N2 1_555 1_555
H1A N3A 1_555 1_555
C1A C2A 1_555 1_555
C2A H2A 1_555 1_555
H3A C2A 1_555 1_555
H4A C2A 1_555 1_555
C3A H5A 1_555 1_555
H6A C3A 1_555 1_555
C4A C5A 1_555 1_555
C5A H7A 1_555 1_555
H8A C5A 1_555 1_555
H9A C5A 1_555 1_555
C6A C3A 1_555 1_555
H10A C6A 1_555 1_555
H11A C6A 1_555 1_555
C7A C8A 1_555 1_555
C8A H12A 1_555 1_555
H13A C8A 1_555 1_555
H14A C8A 1_555 1_555
C9A C9 1_555 1_555
H15A C9A 1_555 1_555
H16A C9A 1_555 1_555
N1A C1A 1_555 1_555
N2A C4A 1_555 1_555
N3A C7A 1_555 1_555
N4A O4A 1_555 1_555
O1A C1A 1_555 1_555
O2A Zn1 1_555 1_555
O3A C7A 1_555 1_555
O3A_2 Zn1A 1_555 1_555
O4A Zn1A 1_555 1_555
O5A N4A 1_555 1_555
O6A N4A 1_555 1_555
Zn1A O2 1_555 1_555
Zn1A_2 O3A 1_555 1_555
H17A N1A 1_555 1_555
H18A N2A 1_555 1_555
C3 N1 1_555 1_555
C6 N2 1_555 1_555
C9 N3 1_555 1_555
O3 Zn1 1_555 1_555
O5 Zn1 1_555 1_555
C3A N1A 1_555 1_555
C4A O2A 1_555 1_555
C6A N2A 1_555 1_555
C9A N3A 1_555 1_555
O1A Zn1A 1_555 1_555
O5A Zn1A 1_555 1_555

#END
