
#######################################################################
#
#                 Cambridge Crystallographic Data Centre
#                                CCDC 
#
#######################################################################
#
# If this CIF has been generated from an entry in the Cambridge 
# Structural Database, then it will include bibliographic, chemical, 
# crystal, experimental, refinement or atomic coordinate data resulting 
# from the CCDC's data processing and validation procedures.
#
#######################################################################

data_OYUCAN
_symmetry_cell_setting           triclinic
_symmetry_space_group_name_H-M   'P -1'
_symmetry_Int_Tables_number      2
_space_group_name_Hall           '-P 1'
loop_
_symmetry_equiv_pos_site_id
_symmetry_equiv_pos_as_xyz
1 x,y,z
2 -x,-y,-z
_cell_length_a                   7.172(2)
_cell_length_b                   9.887(3)
_cell_length_c                   10.202(3)
_cell_angle_alpha                103.611(3)
_cell_angle_beta                 101.587(3)
_cell_angle_gamma                90.322(3)
_cell_volume                     687.711
loop_
_atom_site_label
_atom_site_type_symbol
_atom_site_fract_x
_atom_site_fract_y
_atom_site_fract_z
Cu1 Cu 0.74905(6) 0.37013(4) 0.12967(4)
O1 O 0.8036(3) 0.4248(2) 0.3373(2)
O2 O 0.2396(4) 0.4775(3) 0.3042(3)
O3 O 0.3834(3) 0.3856(3) 0.1425(2)
O4 O 0.6707(3) 0.3116(2) -0.0624(2)
N1 N 0.7451(4) 0.1825(3) 0.1574(3)
N2 N 0.7337(4) 0.5734(3) 0.1463(3)
H1 H 0.7996 0.6002 0.0895
H2 H 0.6115 0.5943 0.1228
N3 N 0.2342(4) 0.4164(3) 0.1836(3)
C1 C 0.7518(5) -0.0598(4) -0.1740(4)
H3 H 0.7743 -0.1395 -0.1409
C2 C 0.7379(5) -0.0700(4) -0.3117(4)
H4 H 0.7504 -0.1554 -0.3704
C3 C 0.7051(5) 0.0472(4) -0.3637(4)
H5 H 0.6966 0.0411 -0.4571
C4 C 0.6853(5) 0.1722(4) -0.2763(3)
H6 H 0.6635 0.2503 -0.3120
C5 C 0.6969(4) 0.1865(3) -0.1340(3)
C6 C 0.7333(4) 0.0669(3) -0.0802(3)
C7 C 0.7472(4) 0.0671(3) 0.0654(3)
C8 C 0.7644(5) -0.0695(4) 0.1067(4)
H7 H 0.8950 -0.0940 0.1184
H8 H 0.6866 -0.1407 0.0361
H9 H 0.7227 -0.0607 0.1919
C9 C 0.8148(5) 0.6464(4) 0.2906(3)
H10 H 0.7705 0.7402 0.3099
H11 H 0.9528 0.6528 0.3061
C10 C 0.7520(5) 0.5657(4) 0.3845(3)
H12 H 0.8161 0.6042 0.4795
H13 H 0.6154 0.5688 0.3784
C11 C 0.7079(5) 0.3208(4) 0.3814(3)
H14 H 0.5711 0.3295 0.3611
H15 H 0.7501 0.3308 0.4799
C12 C 0.7587(5) 0.1819(4) 0.3027(3)
H16 H 0.8875 0.1629 0.3426
H17 H 0.6727 0.1088 0.3093
O5 O 0.0783(3) 0.3835(3) 0.0990(3)
Cu1_2 Cu -0.25095(6) 0.37013(4) 0.12967(4)
O5_2 O 1.0783(3) 0.3835(3) 0.0990(3)
loop_
_geom_bond_atom_site_label_1
_geom_bond_atom_site_label_2
_geom_bond_site_symmetry_1
_geom_bond_site_symmetry_2
Cu1 O1 1_555 1_555
O1 C10 1_555 1_555
O2 N3 1_555 1_555
O3 Cu1 1_555 1_555
O4 Cu1 1_555 1_555
N1 Cu1 1_555 1_555
N2 Cu1 1_555 1_555
H1 N2 1_555 1_555
H2 N2 1_555 1_555
N3 O3 1_555 1_555
C1 H3 1_555 1_555
C2 C1 1_555 1_555
H4 C2 1_555 1_555
C3 C2 1_555 1_555
H5 C3 1_555 1_555
C4 C3 1_555 1_555
H6 C4 1_555 1_555
C5 O4 1_555 1_555
C6 C1 1_555 1_555
C7 N1 1_555 1_555
C8 C7 1_555 1_555
H7 C8 1_555 1_555
H8 C8 1_555 1_555
H9 C8 1_555 1_555
C9 N2 1_555 1_555
H10 C9 1_555 1_555
H11 C9 1_555 1_555
C10 C9 1_555 1_555
H12 C10 1_555 1_555
H13 C10 1_555 1_555
C11 O1 1_555 1_555
H14 C11 1_555 1_555
H15 C11 1_555 1_555
C12 N1 1_555 1_555
H16 C12 1_555 1_555
H17 C12 1_555 1_555
O5 N3 1_555 1_555
Cu1_2 O5 1_555 1_555
O5_2 Cu1 1_555 1_555
C4 C5 1_555 1_555
C5 C6 1_555 1_555
C6 C7 1_555 1_555
C11 C12 1_555 1_555

#END
