
#######################################################################
#
#                 Cambridge Crystallographic Data Centre
#                                CCDC 
#
#######################################################################
#
# If this CIF has been generated from an entry in the Cambridge 
# Structural Database, then it will include bibliographic, chemical, 
# crystal, experimental, refinement or atomic coordinate data resulting 
# from the CCDC's data processing and validation procedures.
#
#######################################################################

data_OYUCOB
_symmetry_cell_setting           triclinic
_symmetry_space_group_name_H-M   'P -1'
_symmetry_Int_Tables_number      2
_space_group_name_Hall           '-P 1'
loop_
_symmetry_equiv_pos_site_id
_symmetry_equiv_pos_as_xyz
1 x,y,z
2 -x,-y,-z
_cell_length_a                   9.059(6)
_cell_length_b                   9.564(6)
_cell_length_c                   9.712(6)
_cell_angle_alpha                107.196(8)
_cell_angle_beta                 90.178(8)
_cell_angle_gamma                113.405(5)
_cell_volume                     730.69
loop_
_atom_site_label
_atom_site_type_symbol
_atom_site_fract_x
_atom_site_fract_y
_atom_site_fract_z
Co1 Co 0.0000 0.5000 0.5000
O1 O 0.0092(4) 0.3726(4) 0.6341(4)
O2 O 0.1859(5) 0.3396(5) 0.7715(5)
N1 N 0.2482(5) 0.5955(4) 0.5567(4)
N2 N 0.5723(6) 0.6867(6) 0.6487(6)
N3 N 0.0127(4) 0.3144(4) 0.3187(4)
C1 C 0.0045(5) 0.0654(5) 0.0666(5)
C2 C -0.0458(6) 0.0357(6) 0.1957(5)
H1 H -0.0824 -0.0681 0.2008
C3 C 0.3655(6) 0.7059(6) 0.5163(6)
H2 H 0.3380 0.7536 0.4557
C4 C 0.5284(6) 0.7525(6) 0.5618(6)
C5 C 0.1514(6) 0.4032(6) 0.6893(6)
C6 C -0.0412(6) 0.1602(6) 0.3152(5)
H3 H -0.0776 0.1360 0.3983
C7 C 0.0669(6) 0.2273(5) 0.0729(6)
H4 H 0.1072 0.2556 -0.0076
C8 C 0.0692(7) 0.3449(6) 0.1971(6)
H5 H 0.1118 0.4509 0.1973
C9 C 0.2914(6) 0.5297(5) 0.6451(5)
C10 C 0.6605(7) 0.8763(8) 0.5122(8)
H6 H 0.7469 0.9445 0.5912
H7 H 0.6168 0.9404 0.4814
H8 H 0.7017 0.8227 0.4324
C11 C 0.4528(7) 0.5757(7) 0.6907(6)
H9 H 0.4800 0.5288 0.7523
Co1_2 Co 0.0000 -0.5000 -0.5000
O1A O -0.0092(4) 0.6274(4) 0.3659(4)
O2A O -0.1859(5) 0.6604(5) 0.2285(5)
N1A N -0.2482(5) 0.4045(4) 0.4433(4)
N2A N -0.5723(6) 0.3133(6) 0.3513(6)
N3A N -0.0127(4) -0.3144(4) -0.3187(4)
N3A_2 N -0.0127(4) 0.6856(4) 0.6813(4)
C1A C -0.0045(5) -0.0654(5) -0.0666(5)
C2A C 0.0458(6) -0.0357(6) -0.1957(5)
H1A H 0.0824 0.0681 -0.2008
C3A C -0.3655(6) 0.2941(6) 0.4837(6)
H2A H -0.3380 0.2464 0.5443
C4A C -0.5284(6) 0.2475(6) 0.4382(6)
C5A C -0.1514(6) 0.5968(6) 0.3107(6)
C6A C 0.0412(6) -0.1602(6) -0.3152(5)
H3A H 0.0776 -0.1360 -0.3983
C7A C -0.0669(6) -0.2273(5) -0.0729(6)
H4A H -0.1072 -0.2556 0.0076
C8A C -0.0692(7) -0.3449(6) -0.1971(6)
H5A H -0.1118 -0.4509 -0.1973
C9A C -0.2914(6) 0.4703(5) 0.3549(5)
C10A C -0.6605(7) 0.1237(8) 0.4878(8)
H6A H -0.7469 0.0555 0.4088
H7A H -0.6168 0.0596 0.5186
H8A H -0.7017 0.1773 0.5676
C11A C -0.4528(7) 0.4243(7) 0.3093(6)
H9A H -0.4800 0.4712 0.2477
N4 N 0.3669(7) 0.6754(7) 0.1481(7)
C12 C 0.4714(6) 0.9323(6) 0.0312(7)
C13 C 0.3333(8) 0.8947(9) 0.0983(9)
H10 H 0.2727 0.9551 0.1079
C14 C 0.5009(9) 0.7155(8) 0.0882(8)
H11 H 0.5622 0.6567 0.0852
C15 C 0.2856(9) 0.7655(10) 0.1516(10)
H12 H 0.1897 0.7402 0.1927
C16 C 0.5569(8) 0.8397(7) 0.0292(7)
H13 H 0.6526 0.8610 -0.0122
N4A N 0.6331(7) 1.3246(7) -0.1481(7)
C12A C 0.5286(6) 1.0677(6) -0.0312(7)
C13A C 0.6667(8) 1.1053(9) -0.0983(9)
H10A H 0.7273 1.0449 -0.1079
C14A C 0.4991(9) 1.2845(8) -0.0882(8)
H11A H 0.4378 1.3433 -0.0852
C15A C 0.7144(9) 1.2345(10) -0.1516(10)
H12A H 0.8103 1.2598 -0.1927
C16A C 0.4431(8) 1.1603(7) -0.0292(7)
H13A H 0.3474 1.1390 0.0122
loop_
_geom_bond_atom_site_label_1
_geom_bond_atom_site_label_2
_geom_bond_site_symmetry_1
_geom_bond_site_symmetry_2
Co1 O1 1_555 1_555
O1 C5 1_555 1_555
O2 C5 1_555 1_555
N1 Co1 1_555 1_555
N2 C4 1_555 1_555
N3 Co1 1_555 1_555
C1 C2 1_555 1_555
C2 H1 1_555 1_555
C3 N1 1_555 1_555
H2 C3 1_555 1_555
C4 C3 1_555 1_555
C5 C9 1_555 1_555
C6 N3 1_555 1_555
H3 C6 1_555 1_555
C7 C1 1_555 1_555
H4 C7 1_555 1_555
C8 N3 1_555 1_555
H5 C8 1_555 1_555
C9 N1 1_555 1_555
C10 C4 1_555 1_555
H6 C10 1_555 1_555
H7 C10 1_555 1_555
H8 C10 1_555 1_555
C11 N2 1_555 1_555
H9 C11 1_555 1_555
N4 C14 1_555 1_555
C12 C13 1_555 1_555
C13 H10 1_555 1_555
C14 H11 1_555 1_555
C15 N4 1_555 1_555
H12 C15 1_555 1_555
C16 C12 1_555 1_555
H13 C16 1_555 1_555
Co1_2 N3A 1_555 1_555
O1A Co1 1_555 1_555
O2A C5A 1_555 1_555
N1A Co1 1_555 1_555
N2A C4A 1_555 1_555
N3A C6A 1_555 1_555
N3A_2 Co1 1_555 1_555
C1A C1 1_555 1_555
C2A C1A 1_555 1_555
H1A C2A 1_555 1_555
C3A N1A 1_555 1_555
H2A C3A 1_555 1_555
C4A C3A 1_555 1_555
C5A O1A 1_555 1_555
C6A C2A 1_555 1_555
H3A C6A 1_555 1_555
C7A C1A 1_555 1_555
H4A C7A 1_555 1_555
C8A N3A 1_555 1_555
H5A C8A 1_555 1_555
C9A N1A 1_555 1_555
C10A C4A 1_555 1_555
H6A C10A 1_555 1_555
H7A C10A 1_555 1_555
H8A C10A 1_555 1_555
C11A N2A 1_555 1_555
H9A C11A 1_555 1_555
N4A C14A 1_555 1_555
C12A C12 1_555 1_555
C13A C12A 1_555 1_555
H10A C13A 1_555 1_555
C14A H11A 1_555 1_555
C15A N4A 1_555 1_555
H12A C15A 1_555 1_555
C16A C12A 1_555 1_555
H13A C16A 1_555 1_555
C2 C6 1_555 1_555
C7 C8 1_555 1_555
C9 C11 1_555 1_555
C13 C15 1_555 1_555
C14 C16 1_555 1_555
C5A C9A 1_555 1_555
C7A C8A 1_555 1_555
C9A C11A 1_555 1_555
C13A C15A 1_555 1_555
C14A C16A 1_555 1_555

#END
