
#######################################################################
#
#                 Cambridge Crystallographic Data Centre
#                                CCDC 
#
#######################################################################
#
# If this CIF has been generated from an entry in the Cambridge 
# Structural Database, then it will include bibliographic, chemical, 
# crystal, experimental, refinement or atomic coordinate data resulting 
# from the CCDC's data processing and validation procedures.
#
#######################################################################

data_OYUCER
_symmetry_cell_setting           monoclinic
_symmetry_space_group_name_H-M   'P 21/c'
_symmetry_Int_Tables_number      14
_space_group_name_Hall           '-P 2ybc'
loop_
_symmetry_equiv_pos_site_id
_symmetry_equiv_pos_as_xyz
1 x,y,z
2 -x,1/2+y,1/2-z
3 -x,-y,-z
4 x,1/2-y,1/2+z
_cell_length_a                   6.8766(4)
_cell_length_b                   20.0531(12)
_cell_length_c                   20.8273(12)
_cell_angle_alpha                90
_cell_angle_beta                 95.478(1)
_cell_angle_gamma                90
_cell_volume                     2858.91
loop_
_atom_site_label
_atom_site_type_symbol
_atom_site_fract_x
_atom_site_fract_y
_atom_site_fract_z
Co1 Co 0.37180(6) 0.31244(2) 0.43659(2)
N1 N 0.2249(4) 0.40743(13) 0.43168(13)
N2 N -0.2938(4) 0.77560(13) 0.15999(13)
N3 N 0.0026(4) 0.65535(14) 0.43514(13)
N4 N -0.0711(4) 0.70794(14) 0.39542(13)
O1 O 0.6131(3) 0.36083(11) 0.40188(10)
O2 O 0.5209(3) 0.22041(12) 0.45014(10)
O3 O 0.0973(3) 0.27071(12) 0.45619(11)
O4 O 0.4576(3) 0.33463(11) 0.53407(10)
O5 O 0.5834(4) 0.23844(12) 0.57174(11)
O6 O 0.4657(4) 0.52833(12) 0.66942(12)
O7 O 0.5635(4) 0.52644(12) 0.77472(11)
O8 O 0.8041(3) 0.30394(11) 0.86977(10)
O9 O 0.7729(3) 0.21372(11) 0.80792(10)
O13 O -0.0590(3) 0.61717(11) 0.33606(10)
C1 C 0.0111(5) 0.48384(17) 0.37103(16)
H1 H -0.0829 0.4916 0.3354
C2 C 0.0875(5) 0.42074(17) 0.38309(16)
H2 H 0.0406 0.3852 0.3557
C3 C 0.2804(5) 0.45786(16) 0.47197(16)
H3 H 0.3738 0.4487 0.5075
C4 C 0.2094(5) 0.52197(16) 0.46467(16)
H4 H 0.2513 0.5560 0.4946
C5 C 0.0744(5) 0.53547(16) 0.41204(15)
C6 C 0.0063(5) 0.60370(17) 0.39801(15)
C7 C -0.1032(5) 0.68330(16) 0.33828(15)
C8 C -0.1730(5) 0.71540(17) 0.27775(16)
C9 C -0.2290(5) 0.78212(17) 0.27516(16)
H5 H -0.2259 0.8081 0.3134
C10 C -0.2890(5) 0.80970(17) 0.21602(16)
H6 H -0.3290 0.8551 0.2146
C11 C -0.2424(5) 0.71108(17) 0.16388(15)
H7 H -0.2470 0.6861 0.1250
C12 C -0.1832(5) 0.67887(16) 0.22097(15)
H8 H -0.1503 0.6329 0.2214
C13 C 0.5788(5) 0.32887(16) 0.64472(15)
C14 C 0.5386(5) 0.39545(17) 0.65393(15)
H9 H 0.4863 0.4215 0.6183
C15 C 0.5734(5) 0.42534(17) 0.71456(15)
C16 C 0.6452(4) 0.38622(16) 0.76649(15)
H10 H 0.6667 0.4057 0.8081
C17 C 0.6861(4) 0.31871(16) 0.75849(15)
C18 C 0.6534(5) 0.29033(17) 0.69740(15)
H11 H 0.6820 0.2445 0.6915
C19 C 0.5390(5) 0.29832(16) 0.57868(15)
C20 C 0.5305(5) 0.49899(17) 0.71984(17)
C21 C 0.7597(5) 0.27559(16) 0.81567(15)
H14 H 0.5728 0.2195 0.4889
H16 H 0.0041 0.2556 0.4306
H20 H 0.5853 0.3960 0.3801
H22 H 0.6745 0.3408 0.3740
H27 H 0.6237 0.2143 0.4312
H28 H 0.0336 0.2951 0.4801
Co1A Co -0.37180(6) -0.18756(2) 0.06341(2)
Co1A_2 Co -0.37180(6) 0.81244(2) 0.06341(2)
N1A N -0.2249(4) -0.09257(13) 0.06832(13)
N2A N 0.2938(4) 0.27560(13) 0.34001(13)
N2_2 N -0.2938(4) -0.22440(13) 0.15999(13)
N3A N -0.0026(4) 0.15535(14) 0.06486(13)
N4A N 0.0711(4) 0.20794(14) 0.10458(13)
O1A O -0.6131(3) -0.13917(11) 0.09812(10)
O2A O -0.5209(3) -0.27959(12) 0.04986(10)
O3A O -0.0973(3) -0.22929(12) 0.04381(11)
O4A O -0.4576(3) -0.16537(11) -0.03407(10)
O5A O -0.5834(4) -0.26156(12) -0.07174(11)
O6A O -0.4657(4) 0.02833(12) -0.16942(12)
O7A O -0.5635(4) 0.02644(12) -0.27472(11)
O8A O -0.8041(3) -0.19606(11) -0.36977(10)
O9A O -0.7729(3) -0.28628(11) -0.30792(10)
O13A O 0.0590(3) 0.11717(11) 0.16394(10)
C1A C -0.0111(5) -0.01616(17) 0.12897(16)
H1A H 0.0829 -0.0084 0.1646
C2A C -0.0875(5) -0.07926(17) 0.11691(16)
H2A H -0.0406 -0.1148 0.1443
C3A C -0.2804(5) -0.04214(16) 0.02803(16)
H3A H -0.3738 -0.0513 -0.0075
C4A C -0.2094(5) 0.02197(16) 0.03533(16)
H4A H -0.2513 0.0560 0.0054
C5A C -0.0744(5) 0.03547(16) 0.08796(15)
C6A C -0.0063(5) 0.10370(17) 0.10199(15)
C7A C 0.1032(5) 0.18330(16) 0.16172(15)
C8A C 0.1730(5) 0.21540(17) 0.22225(16)
C9A C 0.2290(5) 0.28212(17) 0.22484(16)
H5A H 0.2259 0.3081 0.1866
C10A C 0.2890(5) 0.30970(17) 0.28398(16)
H6A H 0.3290 0.3551 0.2854
C11A C 0.2424(5) 0.21108(17) 0.33612(15)
H7A H 0.2470 0.1861 0.3750
C12A C 0.1832(5) 0.17887(16) 0.27903(15)
H8A H 0.1503 0.1329 0.2786
C13A C -0.5788(5) -0.17113(16) -0.14472(15)
C14A C -0.5386(5) -0.10455(17) -0.15393(15)
H9A H -0.4863 -0.0785 -0.1183
C15A C -0.5734(5) -0.07466(17) -0.21456(15)
C16A C -0.6452(4) -0.11378(16) -0.26649(15)
H10A H -0.6667 -0.0943 -0.3081
C17A C -0.6861(4) -0.18129(16) -0.25849(15)
C18A C -0.6534(5) -0.20967(17) -0.19740(15)
H11A H -0.6820 -0.2555 -0.1915
C19A C -0.5390(5) -0.20168(16) -0.07868(15)
C20A C -0.5305(5) -0.00101(17) -0.21984(17)
C21A C -0.7597(5) -0.22441(16) -0.31567(15)
H14A H -0.5728 -0.2805 0.0111
H16A H -0.0041 -0.2444 0.0694
H20A H -0.5853 -0.1040 0.1199
H22A H -0.6745 -0.1592 0.1260
H27A H -0.6237 -0.2857 0.0688
H28A H -0.0336 -0.2049 0.0199
Co2 Co 0.5000 0.5000 0.0000
O10 O 0.6256(4) 0.58050(13) 0.05276(13)
O11 O 0.4400(4) 0.45804(14) 0.08757(12)
O12 O 0.7665(4) 0.45407(13) 0.01006(12)
H15 H 0.8443 0.4456 -0.0183
H17 H 0.4554 0.4731 0.1259
H21 H 0.8144 0.4251 0.0369
H23 H 0.5684 0.6178 0.0467
H26 H 0.7494 0.5823 0.0596
H30 H 0.3731 0.4224 0.0848
O10B O 0.3744(4) 0.41950(13) -0.05276(13)
O11B O 0.5600(4) 0.54196(14) -0.08757(12)
O12B O 0.2335(4) 0.54593(13) -0.01006(12)
H15B H 0.1557 0.5544 0.0183
H17B H 0.5446 0.5269 -0.1259
H21B H 0.1856 0.5749 -0.0369
H23B H 0.4316 0.3822 -0.0467
H26B H 0.2506 0.4177 -0.0596
H30B H 0.6269 0.5776 -0.0848
O14 O 1.0153(4) 0.57723(12) 0.09161(12)
H31 H 1.0743 0.6099 0.1109
H33 H 1.0674 0.5499 0.1193
O15 O 0.8510(4) 0.14119(13) 0.60247(12)
H12 H 0.7724 0.1737 0.5960
H13 H 0.8264 0.1318 0.6406
O16 O 0.2343(4) 0.60673(12) 0.77621(12)
H18 H 0.2323 0.6388 0.7495
H19 H 0.3343 0.5819 0.7756
O17 O 0.9693(4) 0.50497(15) 0.80361(14)
H24 H 1.0473 0.5351 0.7930
H25 H 0.8529 0.5174 0.7924
O18 O 0.2227(4) 0.34976(14) 0.06958(14)
H29 H 0.1914 0.3550 0.0294
H32 H 0.1039 0.3513 0.0777
loop_
_geom_bond_atom_site_label_1
_geom_bond_atom_site_label_2
_geom_bond_site_symmetry_1
_geom_bond_site_symmetry_2
Co1 N1 1_555 1_555
Co2 O10 1_555 1_555
N1 C2 1_555 1_555
N2 C10 1_555 1_555
N3 N4 1_555 1_555
N4 C7 1_555 1_555
O1 Co1 1_555 1_555
O2 Co1 1_555 1_555
O3 Co1 1_555 1_555
O4 Co1 1_555 1_555
O5 C19 1_555 1_555
O6 C20 1_555 1_555
O7 C20 1_555 1_555
O8 C21 1_555 1_555
O9 C21 1_555 1_555
O10 H23 1_555 1_555
O11 Co2 1_555 1_555
O12 Co2 1_555 1_555
O13 C6 1_555 1_555
C1 H1 1_555 1_555
C2 C1 1_555 1_555
H2 C2 1_555 1_555
C3 N1 1_555 1_555
H3 C3 1_555 1_555
C4 C3 1_555 1_555
H4 C4 1_555 1_555
C5 C1 1_555 1_555
C6 N3 1_555 1_555
C7 O13 1_555 1_555
C8 C7 1_555 1_555
C9 C8 1_555 1_555
H5 C9 1_555 1_555
C10 C9 1_555 1_555
H6 C10 1_555 1_555
C11 N2 1_555 1_555
H7 C11 1_555 1_555
C12 C8 1_555 1_555
H8 C12 1_555 1_555
C13 C14 1_555 1_555
C14 H9 1_555 1_555
C15 C14 1_555 1_555
C16 C15 1_555 1_555
H10 C16 1_555 1_555
C17 C16 1_555 1_555
C18 C13 1_555 1_555
H11 C18 1_555 1_555
C19 O4 1_555 1_555
C20 C15 1_555 1_555
C21 C17 1_555 1_555
O14 H31 1_555 1_555
O15 H12 1_555 1_555
O16 H18 1_555 1_555
O17 H24 1_555 1_555
O18 H29 1_555 1_555
H13 O15 1_555 1_555
H14 O2 1_555 1_555
H15 O12 1_555 1_555
H16 O3 1_555 1_555
H17 O11 1_555 1_555
H19 O16 1_555 1_555
H20 O1 1_555 1_555
H21 O12 1_555 1_555
H22 O1 1_555 1_555
H25 O17 1_555 1_555
H26 O10 1_555 1_555
H27 O2 1_555 1_555
H28 O3 1_555 1_555
H30 O11 1_555 1_555
H32 O18 1_555 1_555
H33 O14 1_555 1_555
Co1A N1A 1_555 1_555
Co1A_2 N2 1_555 1_555
N1A C2A 1_555 1_555
N2A Co1 1_555 1_555
N2_2 Co1A 1_555 1_555
N3A N4A 1_555 1_555
N4A C7A 1_555 1_555
O1A Co1A 1_555 1_555
O2A Co1A 1_555 1_555
O3A Co1A 1_555 1_555
O4A Co1A 1_555 1_555
O5A C19A 1_555 1_555
O6A C20A 1_555 1_555
O7A C20A 1_555 1_555
O8A C21A 1_555 1_555
O9A C21A 1_555 1_555
O10B Co2 1_555 1_555
O11B Co2 1_555 1_555
O12B Co2 1_555 1_555
O13A C6A 1_555 1_555
C1A H1A 1_555 1_555
C2A C1A 1_555 1_555
H2A C2A 1_555 1_555
C3A N1A 1_555 1_555
H3A C3A 1_555 1_555
C4A C3A 1_555 1_555
H4A C4A 1_555 1_555
C5A C1A 1_555 1_555
C6A N3A 1_555 1_555
C7A O13A 1_555 1_555
C8A C7A 1_555 1_555
C9A C8A 1_555 1_555
H5A C9A 1_555 1_555
C10A N2A 1_555 1_555
H6A C10A 1_555 1_555
C11A N2A 1_555 1_555
H7A C11A 1_555 1_555
C12A C8A 1_555 1_555
H8A C12A 1_555 1_555
C13A C14A 1_555 1_555
C14A H9A 1_555 1_555
C15A C14A 1_555 1_555
C16A C15A 1_555 1_555
H10A C16A 1_555 1_555
C17A C16A 1_555 1_555
C18A C13A 1_555 1_555
H11A C18A 1_555 1_555
C19A O4A 1_555 1_555
C20A C15A 1_555 1_555
C21A C17A 1_555 1_555
H14A O2A 1_555 1_555
H15B O12B 1_555 1_555
H16A O3A 1_555 1_555
H17B O11B 1_555 1_555
H20A O1A 1_555 1_555
H21B O12B 1_555 1_555
H22A O1A 1_555 1_555
H23B O10B 1_555 1_555
H26B O10B 1_555 1_555
H27A O2A 1_555 1_555
H28A O3A 1_555 1_555
H30B O11B 1_555 1_555
C4 C5 1_555 1_555
C5 C6 1_555 1_555
C11 C12 1_555 1_555
C13 C19 1_555 1_555
C17 C18 1_555 1_555
C4A C5A 1_555 1_555
C5A C6A 1_555 1_555
C9A C10A 1_555 1_555
C11A C12A 1_555 1_555
C13A C19A 1_555 1_555
C17A C18A 1_555 1_555

#END
