
#######################################################################
#
#                 Cambridge Crystallographic Data Centre
#                                CCDC 
#
#######################################################################
#
# If this CIF has been generated from an entry in the Cambridge 
# Structural Database, then it will include bibliographic, chemical, 
# crystal, experimental, refinement or atomic coordinate data resulting 
# from the CCDC's data processing and validation procedures.
#
#######################################################################

data_OYUSAD
_symmetry_cell_setting           orthorhombic
_symmetry_space_group_name_H-M   'F d d 2'
_symmetry_Int_Tables_number      43
_space_group_name_Hall           'F 2 -2d'
loop_
_symmetry_equiv_pos_site_id
_symmetry_equiv_pos_as_xyz
1 x,y,z
2 -x,-y,z
3 1/4-x,1/4+y,1/4+z
4 3/4+x,3/4-y,1/4+z
5 x,1/2+y,1/2+z
6 -x,1/2-y,1/2+z
7 1/4-x,3/4+y,3/4+z
8 3/4+x,1/4-y,3/4+z
9 1/2+x,y,1/2+z
10 1/2-x,-y,1/2+z
11 3/4-x,1/4+y,3/4+z
12 1/4+x,3/4-y,3/4+z
13 1/2+x,1/2+y,z
14 1/2-x,1/2-y,z
15 3/4-x,3/4+y,1/4+z
16 1/4+x,1/4-y,1/4+z
_cell_length_a                   25.298(9)
_cell_length_b                   26.156(10)
_cell_length_c                   23.552(9)
_cell_angle_alpha                90
_cell_angle_beta                 90
_cell_angle_gamma                90
_cell_volume                     15584.2
loop_
_atom_site_label
_atom_site_type_symbol
_atom_site_fract_x
_atom_site_fract_y
_atom_site_fract_z
Zn2 Zn 0.24396(6) 0.97231(6) 0.04889(6)
Co1 Co 0.47090(6) 0.75577(6) -0.00783(6)
Co3 Co 0.31023(6) 1.05744(6) 0.14591(7)
C1 C 0.3433(6) 0.8858(5) 0.1722(5)
C2 C 0.3636(6) 0.8636(5) 0.1239(6)
H1 H 0.3533 0.8760 0.0886
C3 C 0.3988(6) 0.8233(6) 0.1266(6)
C4 C 0.4194(7) 0.8002(6) 0.0694(7)
C5 C 0.4153(6) 0.8060(6) 0.1780(6)
H2 H 0.4391 0.7790 0.1801
C6 C 0.3963(6) 0.8286(5) 0.2276(5)
C7 C 0.4176(6) 0.8090(6) 0.2842(6)
C8 C 0.3609(5) 0.8681(5) 0.2238(5)
H3 H 0.3485 0.8833 0.2569
C9 C 0.1153(5) 0.8426(5) -0.1286(5)
C10 C 0.1397(6) 0.8617(5) -0.0793(6)
H4 H 0.1286 0.8506 -0.0438
C11 C 0.1808(6) 0.8973(6) -0.0838(6)
C12 C 0.2021(6) 0.9178(7) -0.0308(6)
C13 C 0.1969(6) 0.9151(6) -0.1365(6)
H5 H 0.2242 0.9389 -0.1389
C14 C 0.1726(5) 0.8976(5) -0.1855(5)
C15 C 0.1903(6) 0.9187(5) -0.2421(6)
C16 C 0.1326(6) 0.8619(5) -0.1817(6)
H6 H 0.1166 0.8501 -0.2148
O1 O 0.2639(4) 0.9381(4) 0.2165(4)
O2 O 0.3326(4) 0.9876(3) 0.1603(4)
O3 O 0.2681(4) 0.9298(4) 0.1091(4)
O4 O 0.4030(5) 0.8154(5) 0.0235(5)
O5 O 0.4524(5) 0.7644(4) 0.0740(5)
O6 O 0.4462(4) 0.7707(4) 0.2846(4)
O7 O 0.4021(4) 0.8335(4) 0.3282(4)
O8 O 0.0129(4) 0.8284(3) -0.1183(4)
O9 O 0.0734(4) 0.7674(4) -0.0687(4)
O10 O 0.0645(4) 0.7634(4) -0.1752(4)
O11 O 0.1862(6) 0.9027(5) 0.0153(5)
O12 O 0.2364(5) 0.9530(5) -0.0327(5)
O13 O 0.2287(4) 0.9473(4) -0.2435(5)
O14 O 0.1654(4) 0.9051(4) -0.2853(4)
P1 P 0.29922(15) 0.93923(14) 0.16389(15)
P2 P 0.06272(15) 0.79709(14) -0.12237(15)
Zn2N Zn 0.50604(6) 0.72231(6) 0.29889(6)
Zn2F Zn 0.00604(6) 0.72231(6) -0.20111(6)
Co1C Co 0.22090(6) 0.99423(6) 0.24217(6)
Co1M Co 0.02910(6) 0.74423(6) -0.00783(6)
Co1J Co 0.27910(6) 1.00577(6) -0.25783(6)
Co3N Co 0.43977(6) 0.80744(6) 0.39591(7)
Co3F Co -0.06023(6) 0.80744(6) -0.10409(7)
Co3I Co 0.18977(6) 0.94256(6) -0.35409(7)
O1K O 0.5139(4) 0.8119(4) -0.0335(4)
O6J O 0.3038(4) 1.0207(4) 0.0346(4)
O7J O 0.3479(4) 1.0835(4) 0.0782(4)
O8B O 0.2371(4) 1.0784(3) 0.1317(4)
O9M O 0.4266(4) 0.7326(4) -0.0687(4)
O10B O 0.1855(4) 1.0134(4) 0.0748(4)
O13N O 0.5213(4) 0.6973(4) 0.0065(5)
O14I O 0.3346(4) 1.0949(4) 0.2147(4)
O15 O 0.4093(19) 0.9066(15) 0.9332(16)
O16 O 0.3394(19) 0.837(2) 0.916(2)
Zn1? Zn 0.22090(6) 0.99423(6) 0.24217(6)
Zn3? Zn 0.31023(6) 1.05744(6) 0.14591(7)
Co2? Co 0.24396(6) 0.97231(6) 0.04889(6)
loop_
_geom_bond_atom_site_label_1
_geom_bond_atom_site_label_2
_geom_bond_site_symmetry_1
_geom_bond_site_symmetry_2
Zn2 O3 1_555 1_555
Co1 O5 1_555 1_555
Co3 O2 1_555 1_555
C1 C2 1_555 1_555
C2 H1 1_555 1_555
C3 C2 1_555 1_555
C4 C3 1_555 1_555
C5 C3 1_555 1_555
H2 C5 1_555 1_555
C6 C5 1_555 1_555
C7 C6 1_555 1_555
C8 C1 1_555 1_555
H3 C8 1_555 1_555
C9 C10 1_555 1_555
C10 H4 1_555 1_555
C11 C10 1_555 1_555
C12 C11 1_555 1_555
C13 C11 1_555 1_555
H5 C13 1_555 1_555
C14 C13 1_555 1_555
C15 C14 1_555 1_555
C16 C9 1_555 1_555
H6 C16 1_555 1_555
O1 P1 1_555 1_555
O2 P1 1_555 1_555
O3 P1 1_555 1_555
O4 C4 1_555 1_555
O5 C4 1_555 1_555
O6 C7 1_555 1_555
O7 C7 1_555 1_555
O8 P2 1_555 1_555
O9 P2 1_555 1_555
O10 P2 1_555 1_555
O11 C12 1_555 1_555
O12 Zn2 1_555 1_555
O13 C15 1_555 1_555
O14 C15 1_555 1_555
P1 C1 1_555 1_555
P2 C9 1_555 1_555
Zn2N O6 1_555 1_555
Zn2F O10 1_555 1_555
Co1C O1 1_555 1_555
Co1M O9 1_555 1_555
Co1J O13 1_555 1_555
Co3N O7 1_555 1_555
Co3F O8 1_555 1_555
Co3I O14 1_555 1_555
O1K Co1 1_555 1_555
O6J Zn2 1_555 1_555
O7J Co3 1_555 1_555
O8B Co3 1_555 1_555
O9M Co1 1_555 1_555
O10B Zn2 1_555 1_555
O13N Co1 1_555 1_555
O14I Co3 1_555 1_555
C6 C8 1_555 1_555
C12 O12 1_555 1_555
C14 C16 1_555 1_555

#END
