
#######################################################################
#
#                 Cambridge Crystallographic Data Centre
#                                CCDC 
#
#######################################################################
#
# If this CIF has been generated from an entry in the Cambridge 
# Structural Database, then it will include bibliographic, chemical, 
# crystal, experimental, refinement or atomic coordinate data resulting 
# from the CCDC's data processing and validation procedures.
#
#######################################################################

data_OYUXAI
_symmetry_cell_setting           monoclinic
_symmetry_space_group_name_H-M   'P 21/c'
_symmetry_Int_Tables_number      14
_space_group_name_Hall           '-P 2ybc'
loop_
_symmetry_equiv_pos_site_id
_symmetry_equiv_pos_as_xyz
1 x,y,z
2 -x,1/2+y,1/2-z
3 -x,-y,-z
4 x,1/2-y,1/2+z
_cell_length_a                   13.074(3)
_cell_length_b                   15.573(3)
_cell_length_c                   7.6545(19)
_cell_angle_alpha                90
_cell_angle_beta                 95.657(5)
_cell_angle_gamma                90
_cell_volume                     1550.88
loop_
_atom_site_label
_atom_site_type_symbol
_atom_site_fract_x
_atom_site_fract_y
_atom_site_fract_z
Cu1 Cu 0.17432(4) 0.16726(4) 0.11643(8)
Cl1 Cl 0.08466(9) 0.25331(7) -0.08286(15)
S1 S 0.31632(9) 0.24187(8) 0.08148(16)
O1 O 0.0498(2) 0.09942(19) 0.1357(4)
N1 N 0.4966(3) 0.2061(3) 0.2540(6)
H1 H 0.5388 0.1738 0.3226
H2 H 0.5190 0.2538 0.2093
N2 N 0.3689(3) 0.1097(2) 0.2891(5)
H3 H 0.4132 0.0763 0.3507
N3 N 0.2656(3) 0.0877(2) 0.2633(5)
N4 N -0.0343(3) -0.0189(2) 0.2406(5)
N5 N -0.0023(3) -0.0902(2) 0.3392(5)
H4 H -0.0433 -0.1308 0.3715
C1 C 0.3998(4) 0.1828(3) 0.2183(6)
C2 C 0.2410(3) 0.0169(3) 0.3351(6)
H5 H 0.2925 -0.0161 0.4007
C3 C 0.1365(3) -0.0127(3) 0.3168(6)
C4 C 0.0521(3) 0.0305(3) 0.2235(6)
C5 C 0.0995(4) -0.0886(3) 0.3785(6)
C6 C -0.1402(4) -0.0014(3) 0.1911(6)
C7 C -0.1689(4) 0.0711(3) 0.0935(7)
H6 H -0.1179 0.1089 0.0574
C8 C -0.2719(4) 0.0884(3) 0.0487(7)
H7 H -0.2917 0.1385 -0.0166
C9 C -0.3466(4) 0.0323(3) 0.0991(7)
H8 H -0.4173 0.0434 0.0658
C10 C -0.3179(4) -0.0388(3) 0.1968(7)
H9 H -0.3691 -0.0763 0.2335
C11 C -0.2145(4) -0.0568(3) 0.2429(6)
H10 H -0.1949 -0.1067 0.3095
C12 C 0.1557(4) -0.1617(3) 0.4695(8)
H11 H 0.1123 -0.1884 0.5517
H12 H 0.2192 -0.1406 0.5341
H13 H 0.1727 -0.2043 0.3825
Cu1C Cu 0.17432(4) 0.33274(4) -0.38357(8)
Cl1C Cl 0.08466(9) 0.24669(7) 0.41714(15)
Cl2 Cl 0.44438(10) 0.89091(9) 0.39041(18)
loop_
_geom_bond_atom_site_label_1
_geom_bond_atom_site_label_2
_geom_bond_site_symmetry_1
_geom_bond_site_symmetry_2
Cu1 Cl1 1_555 1_555
Cl1 Cu1C 1_555 1_555
S1 Cu1 1_555 1_555
O1 Cu1 1_555 1_555
N1 H1 1_555 1_555
H2 N1 1_555 1_555
N2 H3 1_555 1_555
N3 Cu1 1_555 1_555
N4 N5 1_555 1_555
N5 H4 1_555 1_555
C1 S1 1_555 1_555
C2 N3 1_555 1_555
H5 C2 1_555 1_555
C3 C2 1_555 1_555
C4 O1 1_555 1_555
C5 N5 1_555 1_555
C6 N4 1_555 1_555
C7 C6 1_555 1_555
H6 C7 1_555 1_555
C8 C7 1_555 1_555
H7 C8 1_555 1_555
C9 C8 1_555 1_555
H8 C9 1_555 1_555
C10 C9 1_555 1_555
H9 C10 1_555 1_555
C11 C6 1_555 1_555
H10 C11 1_555 1_555
C12 C5 1_555 1_555
H11 C12 1_555 1_555
H12 C12 1_555 1_555
H13 C12 1_555 1_555
Cl1C Cu1 1_555 1_555
N1 C1 1_555 1_555
N2 N3 1_555 1_555
N2 C1 1_555 1_555
N4 C4 1_555 1_555
C3 C4 1_555 1_555
C3 C5 1_555 1_555
C10 C11 1_555 1_555

#END
