
#######################################################################
#
#                 Cambridge Crystallographic Data Centre
#                                CCDC 
#
#######################################################################
#
# If this CIF has been generated from an entry in the Cambridge 
# Structural Database, then it will include bibliographic, chemical, 
# crystal, experimental, refinement or atomic coordinate data resulting 
# from the CCDC's data processing and validation procedures.
#
#######################################################################

data_OZAVUH
_symmetry_cell_setting           monoclinic
_symmetry_space_group_name_H-M   'P c'
_symmetry_Int_Tables_number      7
_space_group_name_Hall           'P -2yc'
loop_
_symmetry_equiv_pos_site_id
_symmetry_equiv_pos_as_xyz
1 x,y,z
2 x,-y,1/2+z
_cell_length_a                   10.9306(6)
_cell_length_b                   5.2815(3)
_cell_length_c                   17.7709(9)
_cell_angle_alpha                90
_cell_angle_beta                 95.217(2)
_cell_angle_gamma                90
_cell_volume                     1021.66
loop_
_atom_site_label
_atom_site_type_symbol
_atom_site_fract_x
_atom_site_fract_y
_atom_site_fract_z
C1 C 0.6179(10) 0.376(2) 0.7479(6)
N1 N 0.5885(6) 0.1885(15) 0.6944(4)
O1 O 0.3079(6) 0.2305(14) 0.5682(5)
O2 O 0.2050(7) 0.7430(16) 0.6539(5)
H1 H 0.2091 0.8922 0.6363
H2 H 0.1873 0.6728 0.6945
Pb1 Pb 0.12164(14) 0.48414(5) 0.54616(10)
C2 C 0.5442(14) 0.555(3) 0.7816(9)
H3 H 0.4593 0.5588 0.7709
N2 N 0.7863(7) 0.1805(15) 0.7183(5)
O3 O 0.4663(13) 0.4894(13) 0.5882(10)
C3 C 0.6032(10) 0.721(2) 0.8301(7)
H6 H 0.5584 0.8410 0.8542
O5 O 0.9279(12) 0.450(2) 0.6280(8)
C4 C 0.7300(11) 0.713(2) 0.8443(7)
H9 H 0.7666 0.8299 0.8784
O7 O 1.0947(6) 0.2191(14) 0.6600(4)
C5 C 0.8055(13) 0.546(2) 0.8119(9)
H12 H 0.8905 0.5461 0.8221
C6 C 0.7428(8) 0.3731(18) 0.7621(5)
C7 C 0.6925(10) 0.070(2) 0.6781(7)
C8 C 0.7015(10) -0.1365(17) 0.6215(6)
H13 H 0.6337 -0.2531 0.6249
H14 H 0.7772 -0.2296 0.6339
C9 C 0.699(2) -0.040(2) 0.5402(13)
H15 H 0.6248 0.0570 0.5277
H16 H 0.7689 0.0709 0.5357
C10 C 0.7041(12) -0.257(3) 0.4857(7)
H17 H 0.7829 -0.3382 0.4933
H18 H 0.6917 -0.1947 0.4349
H19 H 0.6408 -0.3771 0.4943
C11 C 0.4620(8) 0.1206(19) 0.6642(6)
H20 H 0.4093 0.1234 0.7052
H21 H 0.4623 -0.0510 0.6447
C12 C 0.4068(8) 0.2992(18) 0.6005(6)
C13 C 0.9187(9) 0.115(2) 0.7166(6)
H22 H 0.9595 0.1306 0.7672
H23 H 0.9254 -0.0602 0.7010
C14 C 0.9820(8) 0.2786(19) 0.6646(6)
Pb1_2 Pb 1.12164(14) 0.48414(5) 0.54616(10)
O5_2 O -0.0721(12) 0.450(2) 0.6280(8)
O7_2 O 0.0947(6) 0.2191(14) 0.6600(4)
O4 O 0.3133(7) 0.7706(15) 0.4910(5)
H4 H 0.3135 0.9257 0.5037
H5 H 0.3705 0.6862 0.5150
N3 N 0.0367(19) -0.0090(15) 0.4394(12)
O9 O 0.0433(15) -0.0081(12) 0.5101(9)
O10 O 0.048(2) 0.192(3) 0.4058(10)
O11 O 0.0187(17) -0.209(4) 0.4042(9)
O6 O 0.3147(11) 0.143(3) 0.8333(7)
H7 H 0.3282 0.1212 0.8807
H8 H 0.3861 0.0782 0.8381
O8 O 0.1979(17) 0.610(4) 0.8016(11)
H10 H 0.2449 0.4873 0.8155
H11 H 0.1428 0.5472 0.8268
loop_
_geom_bond_atom_site_label_1
_geom_bond_atom_site_label_2
_geom_bond_site_symmetry_1
_geom_bond_site_symmetry_2
C1 N1 1_555 1_555
N1 C7 1_555 1_555
O1 Pb1 1_555 1_555
O2 H1 1_555 1_555
H2 O2 1_555 1_555
Pb1 O2 1_555 1_555
C2 C1 1_555 1_555
H3 C2 1_555 1_555
N2 C6 1_555 1_555
O3 C12 1_555 1_555
O4 H4 1_555 1_555
H5 O4 1_555 1_555
C3 C2 1_555 1_555
H6 C3 1_555 1_555
N3 O9 1_555 1_555
O5 C14 1_555 1_555
O6 H7 1_555 1_555
H8 O6 1_555 1_555
C4 C3 1_555 1_555
H9 C4 1_555 1_555
O7 C14 1_555 1_555
O8 H10 1_555 1_555
H11 O8 1_555 1_555
C5 C4 1_555 1_555
H12 C5 1_555 1_555
C6 C1 1_555 1_555
O10 N3 1_555 1_555
C7 N2 1_555 1_555
O11 N3 1_555 1_555
C8 C7 1_555 1_555
H13 C8 1_555 1_555
H14 C8 1_555 1_555
C9 C8 1_555 1_555
H15 C9 1_555 1_555
H16 C9 1_555 1_555
C10 C9 1_555 1_555
H17 C10 1_555 1_555
H18 C10 1_555 1_555
H19 C10 1_555 1_555
C11 N1 1_555 1_555
H20 C11 1_555 1_555
H21 C11 1_555 1_555
C12 O1 1_555 1_555
C13 N2 1_555 1_555
H22 C13 1_555 1_555
H23 C13 1_555 1_555
C14 C13 1_555 1_555
Pb1_2 O5 1_555 1_555
O5_2 Pb1 1_555 1_555
O7_2 Pb1 1_555 1_555
O7 Pb1_2 1_555 1_555
C5 C6 1_555 1_555
C11 C12 1_555 1_555

#END
