
#######################################################################
#
#                 Cambridge Crystallographic Data Centre
#                                CCDC 
#
#######################################################################
#
# If this CIF has been generated from an entry in the Cambridge 
# Structural Database, then it will include bibliographic, chemical, 
# crystal, experimental, refinement or atomic coordinate data resulting 
# from the CCDC's data processing and validation procedures.
#
#######################################################################

data_OZAXIX
_symmetry_cell_setting           orthorhombic
_symmetry_space_group_name_H-M   'P b c a'
_symmetry_Int_Tables_number      61
_space_group_name_Hall           '-P 2ac 2ab'
loop_
_symmetry_equiv_pos_site_id
_symmetry_equiv_pos_as_xyz
1 x,y,z
2 1/2-x,-y,1/2+z
3 -x,1/2+y,1/2-z
4 1/2+x,1/2-y,-z
5 -x,-y,-z
6 1/2+x,y,1/2-z
7 x,1/2-y,1/2+z
8 1/2-x,1/2+y,z
_cell_length_a                   16.294(2)
_cell_length_b                   9.5315(14)
_cell_length_c                   19.270(3)
_cell_angle_alpha                90
_cell_angle_beta                 90
_cell_angle_gamma                90
_cell_volume                     2992.75
loop_
_atom_site_label
_atom_site_type_symbol
_atom_site_fract_x
_atom_site_fract_y
_atom_site_fract_z
Na1 Na 0.37558(5) 0.11793(10) 0.72220(5)
N1 N 0.32171(11) -0.0604(2) 0.63601(9)
N2 N 0.22904(10) 0.11931(18) 0.71148(9)
N3 N 0.10904(10) 0.0130(2) 0.66669(9)
N4 N 0.09907(10) 0.18838(19) 0.75499(9)
N5 N 0.30516(11) 0.2876(2) 0.80090(9)
C1 C 0.36756(15) -0.1423(3) 0.59535(12)
H1 H 0.4221 -0.1429 0.6026
C2 C 0.33686(16) -0.2257(3) 0.54375(12)
H2 H 0.3702 -0.2806 0.5183
C3 C 0.25409(17) -0.2239(3) 0.53121(12)
H3 H 0.2321 -0.2771 0.4974
C4 C 0.20529(14) -0.1386(2) 0.57132(11)
H4 H 0.1509 -0.1340 0.5636
C5 C 0.24075(13) -0.0606(2) 0.62375(10)
C6 C 0.18924(12) 0.0292(2) 0.67019(10)
C7 C 0.06265(13) 0.0973(2) 0.70902(10)
C8 C 0.18019(12) 0.1942(2) 0.75319(10)
C9 C 0.22275(13) 0.2937(2) 0.80132(10)
C10 C 0.18012(14) 0.3856(2) 0.84324(11)
H5 H 0.1249 0.3879 0.8421
C11 C 0.22327(16) 0.4740(3) 0.88698(12)
H6 H 0.1907 0.5368 0.9084
C12 C 0.30702(16) 0.4676(3) 0.88742(12)
H7 H 0.3366 0.5236 0.9155
C13 C 0.34500(15) 0.3740(3) 0.84388(12)
H8 H 0.4002 0.3701 0.8443
O1 O 0.46795(10) 0.24403(18) 0.65020(8)
H9 H 0.5133 0.2427 0.6768
H10 H 0.4587 0.3371 0.6504
O2 O -0.01372(9) 0.08944(19) 0.70508(8)
Na1E Na -0.12442(5) 0.11793(10) 0.77780(5)
O2E O 0.48628(9) 0.08944(19) 0.79492(8)
H11 H 0.4853 0.3956 0.4096
O3 O 0.46133(15) 0.4040(3) 0.45145(11)
H12 H 0.4327 0.3780 0.4137
H13 H 0.4705 0.0631 0.4832
O4 O 0.46418(16) 0.1353(3) 0.51285(11)
H14 H 0.4421 0.1968 0.4827
O5? O 0.46133(15) 0.4040(3) 0.45145(11)
H15? H 0.4902 0.4710 0.4736
H16? H 0.4760 0.3304 0.4779
O6? O 0.46418(16) 0.1353(3) 0.51285(11)
H17? H 0.5140 0.1465 0.5322
H18? H 0.4746 0.1646 0.5568
loop_
_geom_bond_atom_site_label_1
_geom_bond_atom_site_label_2
_geom_bond_site_symmetry_1
_geom_bond_site_symmetry_2
Na1 N1 1_555 1_555
N1 C1 1_555 1_555
N2 Na1 1_555 1_555
N3 C6 1_555 1_555
N4 C7 1_555 1_555
N5 Na1 1_555 1_555
C1 H1 1_555 1_555
C2 C1 1_555 1_555
H2 C2 1_555 1_555
C3 C2 1_555 1_555
H3 C3 1_555 1_555
C4 C3 1_555 1_555
H4 C4 1_555 1_555
C5 N1 1_555 1_555
C6 N2 1_555 1_555
C7 N3 1_555 1_555
C8 N2 1_555 1_555
C9 N5 1_555 1_555
C10 C9 1_555 1_555
H5 C10 1_555 1_555
C11 C10 1_555 1_555
H6 C11 1_555 1_555
C12 C11 1_555 1_555
H7 C12 1_555 1_555
C13 N5 1_555 1_555
H8 C13 1_555 1_555
O1 Na1 1_555 1_555
H9 O1 1_555 1_555
H10 O1 1_555 1_555
O2 C7 1_555 1_555
H11 O3 1_555 1_555
O3 H12 1_555 1_555
H13 O4 1_555 1_555
O4 H14 1_555 1_555
Na1E O2 1_555 1_555
O2E Na1 1_555 1_555
N4 C8 1_555 1_555
C4 C5 1_555 1_555
C5 C6 1_555 1_555
C8 C9 1_555 1_555
C12 C13 1_555 1_555

#END
