
#######################################################################
#
#                 Cambridge Crystallographic Data Centre
#                                CCDC 
#
#######################################################################
#
# If this CIF has been generated from an entry in the Cambridge 
# Structural Database, then it will include bibliographic, chemical, 
# crystal, experimental, refinement or atomic coordinate data resulting 
# from the CCDC's data processing and validation procedures.
#
#######################################################################

data_OZAXAP
_symmetry_cell_setting           monoclinic
_symmetry_space_group_name_H-M   'C 2/m'
_symmetry_Int_Tables_number      12
_space_group_name_Hall           '-C 2y'
loop_
_symmetry_equiv_pos_site_id
_symmetry_equiv_pos_as_xyz
1 x,y,z
2 1/2+x,1/2+y,z
3 -x,y,-z
4 1/2-x,1/2+y,-z
5 -x,-y,-z
6 1/2-x,1/2-y,-z
7 x,-y,z
8 1/2+x,1/2-y,z
_cell_length_a                   10.397(2)
_cell_length_b                   17.927(4)
_cell_length_c                   11.092(2)
_cell_angle_alpha                90
_cell_angle_beta                 114.12(3)
_cell_angle_gamma                90
_cell_volume                     1886.9
loop_
_atom_site_label
_atom_site_type_symbol
_atom_site_fract_x
_atom_site_fract_y
_atom_site_fract_z
O1 O 0.381(5) 0.5000 0.148(5)
Zn1 Zn 0.12300(5) 0.33516(3) 0.30551(6)
N1 N -0.0278(5) 0.1602(2) 0.3357(6)
H1 H 0.0526 0.1597 0.3307
H2 H -0.0697 0.1189 0.3362
N2 N -0.0337(4) 0.2924(2) 0.3424(4)
N3 N -0.1300(5) 0.3423(2) 0.3502(5)
N4 N -0.2344(5) 0.3064(2) 0.3549(5)
N5 N -0.2120(4) 0.2317(2) 0.3512(5)
N6 N -0.0448(9) 0.5000 0.3243(13)
N7 N 0.1726(4) 0.4393(2) 0.3688(5)
N8 N 0.3038(5) 0.4643(3) 0.3928(6)
N9 N 0.0458(8) 0.3429(4) 0.1067(6)
N10 N -0.025(7) 0.349(3) -0.009(3)
C1 C 0.0939(8) 0.5000 0.3551(7)
C2 C -0.0870(5) 0.2243(3) 0.3424(5)
H3 H -0.072(6) 0.530(3) 0.345(6)
Zn1G Zn 0.62300(5) 0.16484(3) 0.30551(6)
Zn1G_2 Zn -0.37700(5) 0.16484(3) 0.30551(6)
Zn1F Zn 0.12300(5) 0.66484(3) 0.30551(6)
Zn1B Zn -0.12300(5) 0.33516(3) -0.30551(6)
N1G N 0.4722(5) 0.3398(2) 0.3357(6)
H1G H 0.5526 0.3403 0.3307
H2G H 0.4303 0.3811 0.3362
N2G N 0.4663(4) 0.2076(2) 0.3424(4)
N3G N 0.3700(5) 0.1577(2) 0.3502(5)
N4G N 0.2656(5) 0.1936(2) 0.3549(5)
N5G N 0.2880(4) 0.2683(2) 0.3512(5)
N5_2 N 0.7880(4) 0.2317(2) 0.3512(5)
N7F N 0.1726(4) 0.5607(2) 0.3688(5)
N7G N 0.6726(4) 0.0607(2) 0.3688(5)
N8F N 0.3038(5) 0.5357(3) 0.3928(6)
N9B N -0.0458(8) 0.3429(4) -0.1067(6)
N9G N 0.5458(8) 0.1571(4) 0.1067(6)
N10B N 0.025(7) 0.349(3) 0.009(3)
C2G C 0.4130(5) 0.2757(3) 0.3424(5)
H3F H -0.072(6) 0.470(3) 0.345(6)
loop_
_geom_bond_atom_site_label_1
_geom_bond_atom_site_label_2
_geom_bond_site_symmetry_1
_geom_bond_site_symmetry_2
Zn1 N2 1_555 1_555
N1 H1 1_555 1_555
H2 N1 1_555 1_555
N2 N3 1_555 1_555
N3 N4 1_555 1_555
N4 N5 1_555 1_555
N5 C2 1_555 1_555
N6 C1 1_555 1_555
N7 Zn1 1_555 1_555
N8 N7 1_555 1_555
N9 Zn1 1_555 1_555
N10 N9 1_555 1_555
C1 N7 1_555 1_555
C2 N1 1_555 1_555
H3 N6 1_555 1_555
Zn1G N2G 1_555 1_555
Zn1G_2 N5 1_555 1_555
Zn1F N7F 1_555 1_555
Zn1B N9B 1_555 1_555
N1G H1G 1_555 1_555
H2G N1G 1_555 1_555
N2G N3G 1_555 1_555
N3G N4G 1_555 1_555
N4G N5G 1_555 1_555
N5G Zn1 1_555 1_555
N5_2 Zn1G 1_555 1_555
N7F C1 1_555 1_555
N7G Zn1G 1_555 1_555
N8F N8 1_555 1_555
N9B N10 1_555 1_555
N9G Zn1G 1_555 1_555
N10B N9 1_555 1_555
C2G N1G 1_555 1_555
H3F N6 1_555 1_555
N2 C2 1_555 1_555
N10 N10B 1_555 1_555
N2G C2G 1_555 1_555
N5G C2G 1_555 1_555
N7F N8F 1_555 1_555
N9B N10B 1_555 1_555

#END
