
#######################################################################
#
#                 Cambridge Crystallographic Data Centre
#                                CCDC 
#
#######################################################################
#
# If this CIF has been generated from an entry in the Cambridge 
# Structural Database, then it will include bibliographic, chemical, 
# crystal, experimental, refinement or atomic coordinate data resulting 
# from the CCDC's data processing and validation procedures.
#
#######################################################################

data_OZAXUJ
_symmetry_cell_setting           monoclinic
_symmetry_space_group_name_H-M   'C 2/c'
_symmetry_Int_Tables_number      15
_space_group_name_Hall           '-C 2yn'
loop_
_symmetry_equiv_pos_site_id
_symmetry_equiv_pos_as_xyz
1 x,y,z
2 1/2+x,1/2+y,z
3 -x,y,1/2-z
4 1/2-x,1/2+y,1/2-z
5 -x,-y,-z
6 1/2-x,1/2-y,-z
7 x,-y,1/2+z
8 1/2+x,1/2-y,1/2+z
_cell_length_a                   27.338(6)
_cell_length_b                   15.807(3)
_cell_length_c                   17.360(4)
_cell_angle_alpha                90
_cell_angle_beta                 107.74(3)
_cell_angle_gamma                90
_cell_volume                     7145.09
loop_
_atom_site_label
_atom_site_type_symbol
_atom_site_fract_x
_atom_site_fract_y
_atom_site_fract_z
Ag1 Ag 0.445654(13) 0.58591(2) 0.52883(2)
Ag2 Ag 0.229434(15) 0.27712(2) 0.21996(3)
N1 N 0.50054(13) 0.4894(2) 0.6182(2)
N2 N 0.50849(15) 0.6610(2) 0.6200(3)
N3 N 0.64683(15) 0.4930(3) 0.8723(2)
H1 H 0.659(2) 0.438(3) 0.889(3)
N4 N 0.65019(16) 0.6350(3) 0.8748(2)
N5 N 0.30314(15) 0.3276(2) 0.3170(2)
N6 N 0.23888(14) 0.4161(2) 0.1911(2)
N7 N 0.32290(13) 0.6757(2) 0.3244(2)
N8 N 0.37899(13) 0.6032(2) 0.4259(2)
O1 O 0.84296(15) 0.5778(3) 1.1889(2)
O2 O 0.43519(16) 0.9996(3) 0.5285(3)
C1 C 0.49794(19) 0.4053(3) 0.6163(3)
H2 H 0.4728 0.3798 0.5741
C2 C 0.53080(19) 0.3534(3) 0.6742(3)
H3 H 0.5271 0.2950 0.6701
C3 C 0.56790(19) 0.3876(3) 0.7361(3)
H4 H 0.5906 0.3535 0.7744
C4 C 0.57149(17) 0.4768(3) 0.7415(3)
C5 C 0.60837(17) 0.5218(3) 0.8048(3)
C6 C 0.67061(18) 0.5648(4) 0.9117(3)
C7 C 0.71467(19) 0.5628(4) 0.9860(3)
C8 C 0.73768(19) 0.4885(4) 1.0219(3)
H5 H 0.7244 0.4366 1.0001
C9 C 0.78058(19) 0.4914(5) 1.0904(3)
H6 H 0.7958 0.4414 1.1144
C10 C 0.8006(2) 0.5686(5) 1.1226(3)
C11 C 0.7775(2) 0.6415(4) 1.0884(3)
H7 H 0.7905 0.6933 1.1110
C12 C 0.73507(19) 0.6392(4) 1.0207(3)
H8 H 0.7199 0.6896 0.9978
C13 C 0.61163(18) 0.6089(4) 0.8078(3)
C14 C 0.57778(19) 0.6594(3) 0.7459(3)
C15 C 0.5801(2) 0.7465(4) 0.7459(4)
H9 H 0.6039 0.7751 0.7878
C16 C 0.5469(3) 0.7907(4) 0.6832(5)
H10 H 0.5473 0.8495 0.6822
C17 C 0.5124(2) 0.7443(4) 0.6207(4)
H11 H 0.4911 0.7741 0.5772
C18 C 0.53774(16) 0.5263(3) 0.6806(3)
C19 C 0.54104(17) 0.6178(3) 0.6827(3)
C20 C 0.8691(3) 0.5024(5) 1.2232(4)
H12 H 0.8476 0.4697 1.2465
H13 H 0.9004 0.5167 1.2644
H14 H 0.8769 0.4699 1.1817
C21 C 0.3352(2) 0.2847(3) 0.3765(4)
H15 H 0.3313 0.2263 0.3773
H16 H 0.3964 0.2879 0.4768
C22 C 0.3741(2) 0.3214(3) 0.4378(3)
C23 C 0.37973(17) 0.4073(3) 0.4385(3)
H17 H 0.4053 0.4332 0.4798
C24 C 0.34729(15) 0.4558(3) 0.3774(2)
C25 C 0.30859(16) 0.4129(3) 0.3161(3)
C26 C 0.27385(15) 0.4602(3) 0.2494(2)
C27 C 0.27661(15) 0.5487(3) 0.2454(3)
C28 C 0.24383(17) 0.5902(3) 0.1782(3)
H18 H 0.2452 0.6487 0.1735
C29 C 0.20988(17) 0.5441(3) 0.1197(3)
H19 H 0.1877 0.5707 0.0748
C30 C 0.20866(17) 0.4567(3) 0.1278(3)
H20 H 0.1857 0.4256 0.0871
C31 C 0.40121(19) 0.8199(3) 0.3846(3)
H21 H 0.4005 0.8059 0.3323
C32 C 0.4201(2) 0.8986(3) 0.4167(3)
H22 H 0.4331 0.9361 0.3866
C33 C 0.41922(18) 0.9204(3) 0.4931(3)
C34 C 0.40186(18) 0.8643(3) 0.5377(3)
H23 H 0.4016 0.8794 0.5894
C35 C 0.38444(17) 0.7850(3) 0.5077(3)
H24 H 0.3734 0.7469 0.5397
C36 C 0.4391(3) 1.0674(4) 0.4813(5)
H25 H 0.4629 1.0541 0.4522
H26 H 0.4512 1.1159 0.5150
H27 H 0.4060 1.0795 0.4437
C37 C 0.34804(15) 0.5463(3) 0.3731(2)
C38 C 0.31412(16) 0.5903(3) 0.3109(3)
C39 C 0.36193(15) 0.6796(3) 0.3934(3)
C40 C 0.38348(16) 0.7622(3) 0.4302(3)
Ag2C Ag 0.270566(15) 0.77712(2) 0.28004(3)
N7C N 0.17710(13) 0.1757(2) 0.1756(2)
N9 N 0.6965(4) 0.2703(7) 0.9435(8)
O3 O 0.6701(7) 0.3209(9) 0.8966(11)
O4 O 0.7409(5) 0.2869(8) 0.9810(10)
O5 O 0.6785(5) 0.2018(7) 0.9541(9)
N10 N 0.4418(5) 0.1865(8) 0.6780(7)
O6 O 0.4387(6) 0.2241(13) 0.6158(9)
O7 O 0.4828(5) 0.1577(8) 0.7191(8)
O8 O 0.4035(6) 0.1760(9) 0.6987(9)
O9 O 0.5027(4) 0.9938(6) 0.6987(6)
H28 H 0.4789 0.9982 0.6540
H29 H 0.5069 1.0415 0.7224
O10? O 0.6721(10) 0.3070(16) 0.9034(16)
H30? H 0.6818 0.2719 0.8739
H31? H 0.6500 0.2774 0.9166
O11? O 0.4285(12) 0.210(2) 0.6325(17)
H32? H 0.4049 0.1999 0.6537
H33? H 0.4172 0.2039 0.5815
loop_
_geom_bond_atom_site_label_1
_geom_bond_atom_site_label_2
_geom_bond_site_symmetry_1
_geom_bond_site_symmetry_2
Ag1 N1 1_555 1_555
Ag2 N5 1_555 1_555
N1 C1 1_555 1_555
N2 Ag1 1_555 1_555
N3 H1 1_555 1_555
N4 C6 1_555 1_555
N5 C21 1_555 1_555
N6 Ag2 1_555 1_555
N7 C38 1_555 1_555
N8 Ag1 1_555 1_555
O1 C10 1_555 1_555
O2 C33 1_555 1_555
C1 H2 1_555 1_555
C2 C1 1_555 1_555
H3 C2 1_555 1_555
C3 C2 1_555 1_555
H4 C3 1_555 1_555
C4 C3 1_555 1_555
C5 N3 1_555 1_555
C6 N3 1_555 1_555
C7 C6 1_555 1_555
C8 C7 1_555 1_555
H5 C8 1_555 1_555
C9 C8 1_555 1_555
H6 C9 1_555 1_555
C10 C9 1_555 1_555
C11 C10 1_555 1_555
H7 C11 1_555 1_555
C12 C7 1_555 1_555
H8 C12 1_555 1_555
C13 N4 1_555 1_555
C14 C13 1_555 1_555
C15 C14 1_555 1_555
H9 C15 1_555 1_555
C16 C15 1_555 1_555
H10 C16 1_555 1_555
C17 N2 1_555 1_555
H11 C17 1_555 1_555
C18 N1 1_555 1_555
C19 N2 1_555 1_555
C20 O1 1_555 1_555
H12 C20 1_555 1_555
H13 C20 1_555 1_555
H14 C20 1_555 1_555
C21 H15 1_555 1_555
H16 C22 1_555 1_555
C22 C21 1_555 1_555
C23 C22 1_555 1_555
H17 C23 1_555 1_555
C24 C23 1_555 1_555
C25 N5 1_555 1_555
C26 N6 1_555 1_555
C27 C26 1_555 1_555
C28 C27 1_555 1_555
H18 C28 1_555 1_555
C29 C28 1_555 1_555
H19 C29 1_555 1_555
C30 N6 1_555 1_555
H20 C30 1_555 1_555
C31 H21 1_555 1_555
C32 C31 1_555 1_555
H22 C32 1_555 1_555
C33 C32 1_555 1_555
C34 C33 1_555 1_555
H23 C34 1_555 1_555
C35 C34 1_555 1_555
H24 C35 1_555 1_555
C36 O2 1_555 1_555
H25 C36 1_555 1_555
H26 C36 1_555 1_555
H27 C36 1_555 1_555
C37 N8 1_555 1_555
C38 C27 1_555 1_555
C39 N7 1_555 1_555
C40 C31 1_555 1_555
N9 O3 1_555 1_555
O4 N9 1_555 1_555
O5 N9 1_555 1_555
N10 O6 1_555 1_555
O7 N10 1_555 1_555
O8 N10 1_555 1_555
O9 H28 1_555 1_555
H29 O9 1_555 1_555
Ag2C N7 1_555 1_555
N7C Ag2 1_555 1_555
N8 C39 1_555 1_555
C4 C5 1_555 1_555
C4 C18 1_555 1_555
C5 C13 1_555 1_555
C11 C12 1_555 1_555
C14 C19 1_555 1_555
C16 C17 1_555 1_555
C18 C19 1_555 1_555
C24 C25 1_555 1_555
C24 C37 1_555 1_555
C25 C26 1_555 1_555
C29 C30 1_555 1_555
C35 C40 1_555 1_555
C37 C38 1_555 1_555
C39 C40 1_555 1_555

#END
