
#######################################################################
#
#                 Cambridge Crystallographic Data Centre
#                                CCDC 
#
#######################################################################
#
# If this CIF has been generated from an entry in the Cambridge 
# Structural Database, then it will include bibliographic, chemical, 
# crystal, experimental, refinement or atomic coordinate data resulting 
# from the CCDC's data processing and validation procedures.
#
#######################################################################

data_OZAXOD
_symmetry_cell_setting           triclinic
_symmetry_space_group_name_H-M   'P -1'
_symmetry_Int_Tables_number      2
_space_group_name_Hall           '-P 1'
loop_
_symmetry_equiv_pos_site_id
_symmetry_equiv_pos_as_xyz
1 x,y,z
2 -x,-y,-z
_cell_length_a                   8.3738(8)
_cell_length_b                   8.6770(8)
_cell_length_c                   11.4520(10)
_cell_angle_alpha                95.627(2)
_cell_angle_beta                 94.101(2)
_cell_angle_gamma                104.880(2)
_cell_volume                     796.263
loop_
_atom_site_label
_atom_site_type_symbol
_atom_site_fract_x
_atom_site_fract_y
_atom_site_fract_z
Ca1 Ca 0.48252(5) 0.85246(4) 0.24615(4)
Cl1 Cl 0.20378(7) 0.78364(7) 0.35947(5)
O1 O 0.3930(2) 1.07854(17) 0.16965(14)
O2 O 0.6234(3) 1.0835(2) 0.37674(18)
H1 H 0.5893 1.1609 0.3575
H2 H 0.6776 1.1106 0.4440
O3 O 0.69910(19) 0.88811(18) 0.12589(14)
H3 H 0.8004 0.9289 0.1384
H4 H 0.6895 0.8347 0.0543
N1 N 0.3139(2) 1.6958(2) 0.05476(16)
N2 N 0.4524(2) 1.55180(19) 0.21413(15)
N3 N 0.3341(2) 1.2971(2) 0.10212(16)
N4 N 0.5153(2) 1.3203(2) 0.27704(16)
N5 N 0.6645(3) 1.7370(2) 0.3924(2)
C1 C 0.2479(3) 1.7704(3) -0.0249(2)
H7 H 0.2734 1.8855 -0.0124
C2 C 0.1449(3) 1.6914(3) -0.1244(2)
H8 H 0.1021 1.7506 -0.1798
C3 C 0.1058(3) 1.5270(3) -0.1428(2)
H9 H 0.0336 1.4686 -0.2105
C4 C 0.1720(3) 1.4472(3) -0.0612(2)
H10 H 0.1454 1.3320 -0.0710
C5 C 0.2762(2) 1.5336(2) 0.03490(18)
C6 C 0.3580(2) 1.4548(2) 0.12268(18)
C7 C 0.4141(3) 1.2279(2) 0.18278(19)
C8 C 0.5310(2) 1.4765(2) 0.28733(18)
C9 C 0.6464(3) 1.5784(2) 0.38546(18)
C10 C 0.7330(4) 1.5126(3) 0.4648(3)
H11 H 0.7186 1.3985 0.4573
C11 C 0.8422(4) 1.6106(3) 0.5539(2)
H12 H 0.9011 1.5660 0.6109
C12 C 0.8637(3) 1.7711(3) 0.5607(2)
H13 H 0.9387 1.8427 0.6218
C13 C 0.7734(3) 1.8279(3) 0.4781(2)
H14 H 0.7919 1.9421 0.4811
Ca1_2 Ca 0.48252(5) 1.85246(4) 0.24615(4)
N1_2 N 0.3139(2) 0.6958(2) 0.05476(16)
N2_2 N 0.4524(2) 0.55180(19) 0.21413(15)
N5_2 N 0.6645(3) 0.7370(2) 0.3924(2)
O4 O 0.0298(2) 0.9627(3) 0.1830(2)
H5 H 0.1110 1.0338 0.1666
H6 H 0.0705 0.9059 0.2242
loop_
_geom_bond_atom_site_label_1
_geom_bond_atom_site_label_2
_geom_bond_site_symmetry_1
_geom_bond_site_symmetry_2
Ca1 Cl1 1_555 1_555
O1 Ca1 1_555 1_555
O2 Ca1 1_555 1_555
H1 O2 1_555 1_555
H2 O2 1_555 1_555
O3 Ca1 1_555 1_555
H3 O3 1_555 1_555
H4 O3 1_555 1_555
O4 H5 1_555 1_555
H6 O4 1_555 1_555
N1 C1 1_555 1_555
N2 C6 1_555 1_555
N3 C6 1_555 1_555
N4 C7 1_555 1_555
N5 C9 1_555 1_555
C1 H7 1_555 1_555
C2 C1 1_555 1_555
H8 C2 1_555 1_555
C3 C2 1_555 1_555
H9 C3 1_555 1_555
C4 C3 1_555 1_555
H10 C4 1_555 1_555
C5 N1 1_555 1_555
C6 C5 1_555 1_555
C7 O1 1_555 1_555
C8 N2 1_555 1_555
C9 C8 1_555 1_555
C10 C9 1_555 1_555
H11 C10 1_555 1_555
C11 C10 1_555 1_555
H12 C11 1_555 1_555
C12 C11 1_555 1_555
H13 C12 1_555 1_555
C13 N5 1_555 1_555
H14 C13 1_555 1_555
Ca1_2 N1 1_555 1_555
N1_2 Ca1 1_555 1_555
N2_2 Ca1 1_555 1_555
N5_2 Ca1 1_555 1_555
N2 Ca1_2 1_555 1_555
N3 C7 1_555 1_555
N4 C8 1_555 1_555
N5 Ca1_2 1_555 1_555
C4 C5 1_555 1_555
C12 C13 1_555 1_555

#END
