
#######################################################################
#
#                 Cambridge Crystallographic Data Centre
#                                CCDC 
#
#######################################################################
#
# If this CIF has been generated from an entry in the Cambridge 
# Structural Database, then it will include bibliographic, chemical, 
# crystal, experimental, refinement or atomic coordinate data resulting 
# from the CCDC's data processing and validation procedures.
#
#######################################################################

data_OZAYIY
_symmetry_cell_setting           monoclinic
_symmetry_space_group_name_H-M   'C 2/c'
_symmetry_Int_Tables_number      15
_space_group_name_Hall           '-C 2yn'
loop_
_symmetry_equiv_pos_site_id
_symmetry_equiv_pos_as_xyz
1 x,y,z
2 1/2+x,1/2+y,z
3 -x,y,1/2-z
4 1/2-x,1/2+y,1/2-z
5 -x,-y,-z
6 1/2-x,1/2-y,-z
7 x,-y,1/2+z
8 1/2+x,1/2-y,1/2+z
_cell_length_a                   18.238(3)
_cell_length_b                   14.118(2)
_cell_length_c                   24.609(4)
_cell_angle_alpha                90
_cell_angle_beta                 111.299(2)
_cell_angle_gamma                90
_cell_volume                     5903.63
loop_
_atom_site_label
_atom_site_type_symbol
_atom_site_fract_x
_atom_site_fract_y
_atom_site_fract_z
Zn1 Zn 0.5000 0.59928(3) 0.2500
Zn2 Zn 0.5000 0.38711(3) 0.2500
Cl1 Cl 0.54446(8) -0.02906(7) 0.10652(5)
Cl2 Cl 0.58938(7) 0.67248(9) -0.02595(5)
N1 N 0.5000 0.7428(2) 0.2500
C1 C 0.5000 0.9404(3) 0.2500
O1 O 0.58061(14) 0.42142(15) 0.21383(10)
O2 O 0.59378(13) 0.57845(15) 0.22498(10)
O3 O 0.42942(14) 0.55984(16) 0.16826(9)
C2 C 0.4313(2) 1.0969(2) 0.22500(15)
H1 H 0.3835 1.0658 0.2078
O4 O 0.40941(15) 0.40474(16) 0.17052(10)
C3 C 0.60919(19) 0.4996(2) 0.20791(13)
C4 C 0.3136(2) 0.4983(3) 0.09989(14)
C5 C 0.7113(2) 0.3301(2) 0.20830(16)
C6 C 0.5000 1.0455(3) 0.2500
C7 C 0.6711(2) 0.2417(2) 0.18083(14)
C8 C 0.7074(2) 0.1542(2) 0.19865(15)
H2 H 0.7577 0.1519 0.2270
C9 C 0.70503(19) 0.4171(2) 0.17140(13)
C10 C 0.66489(19) 0.4994(2) 0.17583(13)
C11 C 0.6739(2) 0.5813(2) 0.14726(14)
H3 H 0.6485 0.6367 0.1509
C12 C 0.56141(19) 0.7919(2) 0.24802(14)
H4 H 0.6048 0.7587 0.2466
C13 C 0.5959(2) 0.2428(3) 0.13867(15)
H5 H 0.5713 0.3006 0.1256
C14 C 0.56355(19) 0.8892(2) 0.24791(14)
H6 H 0.6076 0.9205 0.2464
O5 O 0.75511(16) 0.33198(17) 0.25904(11)
C15 C 0.5569(2) 0.1599(3) 0.11581(16)
H7 H 0.5059 0.1613 0.0883
C16 C 0.5949(2) 0.0753(2) 0.13441(16)
C17 C 0.3903(2) 0.4858(2) 0.14958(14)
C18 C 0.4088(2) 0.6670(2) 0.05890(14)
C19 C 0.2921(2) 0.5871(3) 0.07393(15)
C20 C 0.7498(2) 0.4185(3) 0.13624(16)
H8 H 0.7755 0.3637 0.1320
C21 C 0.5195(2) 0.6712(3) 0.00671(16)
O6 O 0.3390(2) 0.7394(2) 0.11163(13)
C22 C 0.3477(2) 0.6688(3) 0.08565(15)
C23 C 0.4703(3) 0.7319(3) 0.07683(17)
H9 H 0.4738 0.7747 0.1064
C24 C 0.7199(2) 0.5810(3) 0.11377(16)
H10 H 0.7260 0.6363 0.0952
C25 C 0.7569(2) 0.4996(3) 0.10768(16)
H11 H 0.7868 0.4991 0.0841
C26 C 0.4592(3) 0.6073(3) -0.01182(16)
H12 H 0.4550 0.5660 -0.0422
C27 C 0.5261(3) 0.7335(3) 0.05132(18)
H13 H 0.5678 0.7761 0.0641
C28 C 0.4049(2) 0.6047(2) 0.01485(15)
H14 H 0.3647 0.5600 0.0029
C29 C 0.6701(2) 0.0713(2) 0.17497(16)
H15 H 0.6953 0.0133 0.1862
C30 C 0.2606(3) 0.4243(3) 0.08218(17)
H16 H 0.2742 0.3649 0.0993
C31 C 0.1660(3) 0.5265(5) 0.0152(2)
H17 H 0.1161 0.5364 -0.0127
C32 C 0.2179(3) 0.5998(4) 0.03241(19)
H18 H 0.2030 0.6593 0.0159
C33 C 0.1869(3) 0.4383(5) 0.0388(2)
H19 H 0.1520 0.3879 0.0260
C34 C 0.4339(2) 1.1944(2) 0.22575(15)
H20 H 0.3872 1.2277 0.2084
N2 N 0.5000 1.2431(2) 0.2500
Zn2_2 Zn 0.5000 1.38711(3) 0.2500
Cl1B Cl 0.45554(8) -0.02906(7) 0.39348(5)
Cl2B Cl 0.41062(7) 0.67248(9) 0.52595(5)
O1B O 0.41939(14) 0.42142(15) 0.28617(10)
O2B O 0.40622(13) 0.57845(15) 0.27502(10)
O3B O 0.57058(14) 0.55984(16) 0.33174(9)
C2B C 0.5687(2) 1.0969(2) 0.27500(15)
H1B H 0.6165 1.0658 0.2922
O4B O 0.59059(15) 0.40474(16) 0.32948(10)
C3B C 0.39081(19) 0.4996(2) 0.29209(13)
C4B C 0.6864(2) 0.4983(3) 0.40011(14)
C5B C 0.2887(2) 0.3301(2) 0.29170(16)
C7B C 0.3289(2) 0.2417(2) 0.31917(14)
C8B C 0.2926(2) 0.1542(2) 0.30135(15)
H2B H 0.2423 0.1519 0.2730
C9B C 0.29497(19) 0.4171(2) 0.32860(13)
C10B C 0.33511(19) 0.4994(2) 0.32417(13)
C11B C 0.3261(2) 0.5813(2) 0.35274(14)
H3B H 0.3515 0.6367 0.3491
C12B C 0.43859(19) 0.7919(2) 0.25198(14)
H4B H 0.3952 0.7587 0.2534
C13B C 0.4041(2) 0.2428(3) 0.36133(15)
H5B H 0.4287 0.3006 0.3744
C14B C 0.43645(19) 0.8892(2) 0.25209(14)
H6B H 0.3924 0.9205 0.2536
O5B O 0.24489(16) 0.33198(17) 0.24096(11)
C15B C 0.4431(2) 0.1599(3) 0.38419(16)
H7B H 0.4941 0.1613 0.4117
C16B C 0.4051(2) 0.0753(2) 0.36559(16)
C17B C 0.6097(2) 0.4858(2) 0.35042(14)
C18B C 0.5912(2) 0.6670(2) 0.44110(14)
C19B C 0.7079(2) 0.5871(3) 0.42607(15)
C20B C 0.2502(2) 0.4185(3) 0.36376(16)
H8B H 0.2245 0.3637 0.3680
C21B C 0.4805(2) 0.6712(3) 0.49329(16)
O6B O 0.6610(2) 0.7394(2) 0.38837(13)
C22B C 0.6523(2) 0.6688(3) 0.41435(15)
C23B C 0.5297(3) 0.7319(3) 0.42317(17)
H9B H 0.5262 0.7747 0.3936
C24B C 0.2801(2) 0.5810(3) 0.38623(16)
H10B H 0.2740 0.6363 0.4048
C25B C 0.2431(2) 0.4996(3) 0.39232(16)
H11B H 0.2132 0.4991 0.4159
C26B C 0.5408(3) 0.6073(3) 0.51182(16)
H12B H 0.5450 0.5660 0.5422
C27B C 0.4739(3) 0.7335(3) 0.44868(18)
H13B H 0.4322 0.7761 0.4359
C28B C 0.5951(2) 0.6047(2) 0.48515(15)
H14B H 0.6353 0.5600 0.4971
C29B C 0.3299(2) 0.0713(2) 0.32503(16)
H15B H 0.3047 0.0133 0.3138
C30B C 0.7394(3) 0.4243(3) 0.41782(17)
H16B H 0.7258 0.3649 0.4007
C31B C 0.8340(3) 0.5265(5) 0.4848(2)
H17B H 0.8839 0.5364 0.5127
C32B C 0.7821(3) 0.5998(4) 0.46759(19)
H18B H 0.7970 0.6593 0.4841
C33B C 0.8131(3) 0.4383(5) 0.4612(2)
H19B H 0.8480 0.3879 0.4740
C34B C 0.5661(2) 1.1944(2) 0.27425(15)
H20B H 0.6128 1.2277 0.2916
N2_2 N 0.5000 0.2431(2) 0.2500
loop_
_geom_bond_atom_site_label_1
_geom_bond_atom_site_label_2
_geom_bond_site_symmetry_1
_geom_bond_site_symmetry_2
Zn1 N1 1_555 1_555
Zn2 O1 1_555 1_555
Cl1 C16 1_555 1_555
Cl2 C21 1_555 1_555
N1 C12 1_555 1_555
C1 C6 1_555 1_555
O1 C3 1_555 1_555
O2 Zn1 1_555 1_555
O3 Zn1 1_555 1_555
C2 H1 1_555 1_555
O4 Zn2 1_555 1_555
C3 O2 1_555 1_555
C4 C17 1_555 1_555
C5 C7 1_555 1_555
C6 C2 1_555 1_555
C7 C8 1_555 1_555
C8 H2 1_555 1_555
C9 C5 1_555 1_555
C10 C3 1_555 1_555
C11 C10 1_555 1_555
H3 C11 1_555 1_555
C12 H4 1_555 1_555
C13 C7 1_555 1_555
H5 C13 1_555 1_555
C14 C1 1_555 1_555
H6 C14 1_555 1_555
O5 C5 1_555 1_555
C15 C13 1_555 1_555
H7 C15 1_555 1_555
C16 C15 1_555 1_555
C17 O3 1_555 1_555
C18 C22 1_555 1_555
C19 C4 1_555 1_555
C20 C9 1_555 1_555
H8 C20 1_555 1_555
C21 C26 1_555 1_555
O6 C22 1_555 1_555
C22 C19 1_555 1_555
C23 C18 1_555 1_555
H9 C23 1_555 1_555
C24 C11 1_555 1_555
H10 C24 1_555 1_555
C25 C20 1_555 1_555
H11 C25 1_555 1_555
C26 H12 1_555 1_555
C27 C21 1_555 1_555
H13 C27 1_555 1_555
C28 C18 1_555 1_555
H14 C28 1_555 1_555
C29 C8 1_555 1_555
H15 C29 1_555 1_555
C30 C4 1_555 1_555
H16 C30 1_555 1_555
C31 H17 1_555 1_555
C32 C19 1_555 1_555
H18 C32 1_555 1_555
C33 C30 1_555 1_555
H19 C33 1_555 1_555
C34 C2 1_555 1_555
H20 C34 1_555 1_555
N2 C34 1_555 1_555
Zn2_2 N2 1_555 1_555
Cl1B C16B 1_555 1_555
Cl2B C21B 1_555 1_555
O1B Zn2 1_555 1_555
O2B Zn1 1_555 1_555
O3B Zn1 1_555 1_555
C2B C6 1_555 1_555
H1B C2B 1_555 1_555
O4B Zn2 1_555 1_555
C3B O1B 1_555 1_555
C4B C17B 1_555 1_555
C5B C7B 1_555 1_555
C7B C8B 1_555 1_555
C8B H2B 1_555 1_555
C9B C5B 1_555 1_555
C10B C3B 1_555 1_555
C11B C10B 1_555 1_555
H3B C11B 1_555 1_555
C12B N1 1_555 1_555
H4B C12B 1_555 1_555
C13B C7B 1_555 1_555
H5B C13B 1_555 1_555
C14B C1 1_555 1_555
H6B C14B 1_555 1_555
O5B C5B 1_555 1_555
C15B C13B 1_555 1_555
H7B C15B 1_555 1_555
C16B C15B 1_555 1_555
C17B O3B 1_555 1_555
C18B C22B 1_555 1_555
C19B C4B 1_555 1_555
C20B C9B 1_555 1_555
H8B C20B 1_555 1_555
C21B C26B 1_555 1_555
O6B C22B 1_555 1_555
C22B C19B 1_555 1_555
C23B C18B 1_555 1_555
H9B C23B 1_555 1_555
C24B C11B 1_555 1_555
H10B C24B 1_555 1_555
C25B C20B 1_555 1_555
H11B C25B 1_555 1_555
C26B H12B 1_555 1_555
C27B C21B 1_555 1_555
H13B C27B 1_555 1_555
C28B C18B 1_555 1_555
H14B C28B 1_555 1_555
C29B C8B 1_555 1_555
H15B C29B 1_555 1_555
C30B C4B 1_555 1_555
H16B C30B 1_555 1_555
C31B H17B 1_555 1_555
C32B C19B 1_555 1_555
H18B C32B 1_555 1_555
C33B C30B 1_555 1_555
H19B C33B 1_555 1_555
C34B N2 1_555 1_555
H20B C34B 1_555 1_555
N2_2 Zn2 1_555 1_555
O4 C17 1_555 1_555
C9 C10 1_555 1_555
C12 C14 1_555 1_555
C16 C29 1_555 1_555
C23 C27 1_555 1_555
C24 C25 1_555 1_555
C26 C28 1_555 1_555
C31 C32 1_555 1_555
C31 C33 1_555 1_555
O2B C3B 1_555 1_555
C2B C34B 1_555 1_555
O4B C17B 1_555 1_555
C9B C10B 1_555 1_555
C12B C14B 1_555 1_555
C16B C29B 1_555 1_555
C23B C27B 1_555 1_555
C24B C25B 1_555 1_555
C26B C28B 1_555 1_555
C31B C32B 1_555 1_555
C31B C33B 1_555 1_555

#END
