
#######################################################################
#
#                 Cambridge Crystallographic Data Centre
#                                CCDC 
#
#######################################################################
#
# If this CIF has been generated from an entry in the Cambridge 
# Structural Database, then it will include bibliographic, chemical, 
# crystal, experimental, refinement or atomic coordinate data resulting 
# from the CCDC's data processing and validation procedures.
#
#######################################################################

data_OZAYOE
_symmetry_cell_setting           triclinic
_symmetry_space_group_name_H-M   'P -1'
_symmetry_Int_Tables_number      2
_space_group_name_Hall           '-P 1'
loop_
_symmetry_equiv_pos_site_id
_symmetry_equiv_pos_as_xyz
1 x,y,z
2 -x,-y,-z
_cell_length_a                   10.307(5)
_cell_length_b                   10.907(5)
_cell_length_c                   11.934(5)
_cell_angle_alpha                63.021(5)
_cell_angle_beta                 73.308(5)
_cell_angle_gamma                79.423(5)
_cell_volume                     1142.99
loop_
_atom_site_label
_atom_site_type_symbol
_atom_site_fract_x
_atom_site_fract_y
_atom_site_fract_z
Cd1 Cd 0.262904(16) 0.504038(16) 0.181571(16)
O1 O 0.43609(19) 0.63839(17) 0.11760(18)
O2 O 0.42839(18) 0.31442(17) 0.22184(17)
O3 O 0.34820(17) 0.52396(18) -0.05686(18)
O4 O 0.2890(2) 0.3234(2) 0.39576(19)
N1 N 0.1192(2) 0.6106(2) 0.3093(2)
O5 O 0.2765(2) 0.7639(2) 0.0172(2)
N2 N 0.0932(2) 0.4124(2) 0.17279(19)
N3 N -0.1085(2) 0.3958(3) 0.1527(2)
C1 C -0.0133(3) 0.6385(2) 0.3386(2)
C2 C -0.0273(2) 0.4749(3) 0.1591(2)
C3 C 0.3842(2) 0.2644(2) 0.3420(2)
C4 C -0.0726(3) 0.6143(3) 0.1562(3)
H1 H -0.1466 0.6523 0.1125
H2 H 0.0018 0.6744 0.1063
C5 C 0.0679(3) 0.7161(3) 0.4446(3)
N4 N -0.0481(3) 0.7023(2) 0.4187(2)
C6 C 0.3076(3) 0.6524(4) 0.3840(3)
H3 H 0.3785 0.6109 0.3420
C7 C -0.0711(4) 0.1541(4) 0.1636(3)
H4 H -0.1559 0.1475 0.1547
C8 C 0.1733(3) 0.6576(3) 0.3769(2)
C9 C 0.3816(3) 0.7542(3) 0.0515(3)
C10 C 0.0909(3) 0.2831(3) 0.1752(2)
C11 C 0.1890(3) 0.1758(3) 0.1879(3)
H5 H 0.2746 0.1822 0.1953
C12 C -0.1199(3) 0.6130(3) 0.2913(3)
H6 H -0.1939 0.6826 0.2899
H7 H -0.1555 0.5242 0.3526
C13 C -0.0380(3) 0.2722(3) 0.1639(2)
C14 C 0.1544(4) 0.0577(3) 0.1892(3)
H8 H 0.2179 -0.0167 0.1984
C15 C 0.0266(4) 0.0485(4) 0.1771(3)
H9 H 0.0071 -0.0320 0.1782
C16 C 0.2247(5) 0.7748(4) 0.5199(3)
H10 H 0.2450 0.8159 0.5656
C17 C 0.3287(4) 0.7122(5) 0.4569(4)
H11 H 0.4167 0.7104 0.4640
C18 C 0.0923(4) 0.7777(4) 0.5165(3)
H12 H 0.0221 0.8185 0.5598
C19 C 0.4446(2) 0.1272(2) 0.4246(2)
C20 C 0.4456(3) 0.8812(2) 0.0222(2)
C21 C 0.5435(3) 0.0563(3) 0.3665(2)
H13 H 0.5732 0.0936 0.2770
C22 C 0.5456(3) 0.8726(3) 0.0821(3)
H14 H 0.5765 0.7869 0.1376
C23 C 0.4017(3) 0.0709(3) 0.5580(3)
H15 H 0.3355 0.1186 0.5974
C24 C 0.3996(3) 1.0095(3) -0.0601(3)
H16 H 0.3320 1.0163 -0.1005
H17 H -0.174(3) 0.419(3) 0.131(3)
H18 H -0.124(3) 0.715(3) 0.457(3)
Cd1A Cd 0.737096(16) 1.495962(16) -0.181571(16)
Cd1A_2 Cd 0.737096(16) -0.504038(16) 0.818429(16)
O1A O 0.56391(19) 1.36161(17) -0.11760(18)
O2A O 0.57161(18) -0.31442(17) 0.77816(17)
O2A_2 O 0.57161(18) 1.68558(17) -0.22184(17)
O3A O 0.65180(17) 1.47604(18) 0.05686(18)
O4A O 0.7110(2) -0.3234(2) 0.60424(19)
O4A_2 O 0.7110(2) 1.6766(2) -0.39576(19)
N1A N 0.8808(2) 1.3894(2) -0.3093(2)
O5A O 0.7235(2) 1.2361(2) -0.0172(2)
N2A N 0.9068(2) 1.5876(2) -0.17279(19)
N3A N 1.1085(2) 1.6042(3) -0.1527(2)
C1A C 1.0133(3) 1.3615(2) -0.3386(2)
C2A C 1.0273(2) 1.5251(3) -0.1591(2)
C3A C 0.6158(2) -0.2644(2) 0.6580(2)
C4A C 1.0726(3) 1.3857(3) -0.1562(3)
H1A H 1.1466 1.3477 -0.1125
H2A H 0.9982 1.3256 -0.1063
C5A C 0.9321(3) 1.2839(3) -0.4446(3)
N4A N 1.0481(3) 1.2977(2) -0.4187(2)
C6A C 0.6924(3) 1.3476(4) -0.3840(3)
H3A H 0.6215 1.3891 -0.3420
C7A C 1.0711(4) 1.8459(4) -0.1636(3)
H4A H 1.1559 1.8525 -0.1547
C8A C 0.8267(3) 1.3424(3) -0.3769(2)
C9A C 0.6184(3) 1.2458(3) -0.0515(3)
C10A C 0.9091(3) 1.7169(3) -0.1752(2)
C11A C 0.8110(3) 1.8242(3) -0.1879(3)
H5A H 0.7254 1.8178 -0.1953
C12A C 1.1199(3) 1.3870(3) -0.2913(3)
H6A H 1.1939 1.3174 -0.2899
H7A H 1.1555 1.4758 -0.3526
C13A C 1.0380(3) 1.7278(3) -0.1639(2)
C14A C 0.8456(4) 1.9423(3) -0.1892(3)
H8A H 0.7821 2.0167 -0.1984
C15A C 0.9734(4) 1.9515(4) -0.1771(3)
H9A H 0.9929 2.0320 -0.1782
C16A C 0.7753(5) 1.2252(4) -0.5199(3)
H10A H 0.7550 1.1841 -0.5656
C17A C 0.6713(4) 1.2878(5) -0.4569(4)
H11A H 0.5833 1.2896 -0.4640
C18A C 0.9077(4) 1.2223(4) -0.5165(3)
H12A H 0.9779 1.1815 -0.5598
C19A C 0.5554(2) -0.1272(2) 0.5754(2)
C20A C 0.5544(3) 1.1188(2) -0.0222(2)
C21A C 0.4565(3) -0.0563(3) 0.6335(2)
H13A H 0.4268 -0.0936 0.7230
C22A C 0.4544(3) 1.1274(3) -0.0821(3)
H14A H 0.4235 1.2131 -0.1376
C23A C 0.5983(3) -0.0709(3) 0.4420(3)
H15A H 0.6645 -0.1186 0.4026
C24A C 0.6004(3) 0.9905(3) 0.0601(3)
H16A H 0.6680 0.9837 0.1005
H17A H 1.174(3) 1.581(3) -0.131(3)
H18A H 1.124(3) 1.285(3) -0.457(3)
loop_
_geom_bond_atom_site_label_1
_geom_bond_atom_site_label_2
_geom_bond_site_symmetry_1
_geom_bond_site_symmetry_2
Cd1 O1 1_555 1_555
O1 C9 1_555 1_555
O2 Cd1 1_555 1_555
O3 Cd1 1_555 1_555
O4 Cd1 1_555 1_555
N1 Cd1 1_555 1_555
O5 Cd1 1_555 1_555
N2 Cd1 1_555 1_555
N3 C2 1_555 1_555
C1 N1 1_555 1_555
C2 N2 1_555 1_555
C3 O2 1_555 1_555
C4 C2 1_555 1_555
H1 C4 1_555 1_555
H2 C4 1_555 1_555
C5 N4 1_555 1_555
N4 C1 1_555 1_555
C6 H3 1_555 1_555
C7 H4 1_555 1_555
C8 N1 1_555 1_555
C9 O5 1_555 1_555
C10 N2 1_555 1_555
C11 C10 1_555 1_555
H5 C11 1_555 1_555
C12 C1 1_555 1_555
H6 C12 1_555 1_555
H7 C12 1_555 1_555
C13 N3 1_555 1_555
C14 C11 1_555 1_555
H8 C14 1_555 1_555
C15 C7 1_555 1_555
H9 C15 1_555 1_555
C16 H10 1_555 1_555
C17 C6 1_555 1_555
H11 C17 1_555 1_555
C18 C5 1_555 1_555
H12 C18 1_555 1_555
C19 C3 1_555 1_555
C20 C9 1_555 1_555
C21 C19 1_555 1_555
H13 C21 1_555 1_555
C22 C20 1_555 1_555
H14 C22 1_555 1_555
C23 C19 1_555 1_555
H15 C23 1_555 1_555
C24 C20 1_555 1_555
H16 C24 1_555 1_555
H17 N3 1_555 1_555
H18 N4 1_555 1_555
Cd1A O1A 1_555 1_555
Cd1A_2 O2A 1_555 1_555
O1A C9A 1_555 1_555
O2A C3A 1_555 1_555
O2A_2 Cd1A 1_555 1_555
O3A Cd1A 1_555 1_555
O4A Cd1A_2 1_555 1_555
O4A_2 Cd1A 1_555 1_555
N1A Cd1A 1_555 1_555
O5A Cd1A 1_555 1_555
N2A Cd1A 1_555 1_555
N3A C2A 1_555 1_555
C1A N1A 1_555 1_555
C2A N2A 1_555 1_555
C3A O4A 1_555 1_555
C4A C2A 1_555 1_555
H1A C4A 1_555 1_555
H2A C4A 1_555 1_555
C5A N4A 1_555 1_555
N4A C1A 1_555 1_555
C6A H3A 1_555 1_555
C7A H4A 1_555 1_555
C8A N1A 1_555 1_555
C9A O5A 1_555 1_555
C10A N2A 1_555 1_555
C11A C10A 1_555 1_555
H5A C11A 1_555 1_555
C12A C1A 1_555 1_555
H6A C12A 1_555 1_555
H7A C12A 1_555 1_555
C13A N3A 1_555 1_555
C14A C11A 1_555 1_555
H8A C14A 1_555 1_555
C15A C7A 1_555 1_555
H9A C15A 1_555 1_555
C16A H10A 1_555 1_555
C17A C6A 1_555 1_555
H11A C17A 1_555 1_555
C18A C5A 1_555 1_555
H12A C18A 1_555 1_555
C19A C3A 1_555 1_555
C20A C9A 1_555 1_555
C21A C23 1_555 1_555
H13A C21A 1_555 1_555
C22A C24 1_555 1_555
H14A C22A 1_555 1_555
C23A C21 1_555 1_555
H15A C23A 1_555 1_555
C24A C22 1_555 1_555
H16A C24A 1_555 1_555
H17A N3A 1_555 1_555
H18A N4A 1_555 1_555
O4 C3 1_555 1_555
C4 C12 1_555 1_555
C5 C8 1_555 1_555
C6 C8 1_555 1_555
C7 C13 1_555 1_555
C10 C13 1_555 1_555
C14 C15 1_555 1_555
C16 C17 1_555 1_555
C16 C18 1_555 1_555
C4A C12A 1_555 1_555
C5A C8A 1_555 1_555
C6A C8A 1_555 1_555
C7A C13A 1_555 1_555
C10A C13A 1_555 1_555
C14A C15A 1_555 1_555
C16A C17A 1_555 1_555
C16A C18A 1_555 1_555
C19A C21A 1_555 1_555
C19A C23A 1_555 1_555
C20A C22A 1_555 1_555
C20A C24A 1_555 1_555

#END
