
#######################################################################
#
#                 Cambridge Crystallographic Data Centre
#                                CCDC 
#
#######################################################################
#
# If this CIF has been generated from an entry in the Cambridge 
# Structural Database, then it will include bibliographic, chemical, 
# crystal, experimental, refinement or atomic coordinate data resulting 
# from the CCDC's data processing and validation procedures.
#
#######################################################################

data_OZEMOW
_symmetry_cell_setting           rhombohedral
_symmetry_space_group_name_H-M   'R -3'
_symmetry_Int_Tables_number      148
_space_group_name_Hall           '-R 3'
loop_
_symmetry_equiv_pos_site_id
_symmetry_equiv_pos_as_xyz
1 x,y,z
2 -y,x-y,z
3 -x+y,-x,z
4 2/3+x,1/3+y,1/3+z
5 2/3-y,1/3+x-y,1/3+z
6 2/3-x+y,1/3-x,1/3+z
7 1/3+x,2/3+y,2/3+z
8 1/3-y,2/3+x-y,2/3+z
9 1/3-x+y,2/3-x,2/3+z
10 -x,-y,-z
11 y,-x+y,-z
12 x-y,x,-z
13 1/3-x,2/3-y,2/3-z
14 1/3+y,2/3-x+y,2/3-z
15 1/3+x-y,2/3+x,2/3-z
16 2/3-x,1/3-y,1/3-z
17 2/3+y,1/3-x+y,1/3-z
18 2/3+x-y,1/3+x,1/3-z
_cell_length_a                   29.4923(4)
_cell_length_b                   29.4923(4)
_cell_length_c                   36.1205(7)
_cell_angle_alpha                90
_cell_angle_beta                 90
_cell_angle_gamma                120
_cell_volume                     27208.3
loop_
_atom_site_label
_atom_site_type_symbol
_atom_site_fract_x
_atom_site_fract_y
_atom_site_fract_z
Cl1 Cl 1.0000 1.0000 0.0000
N3 N 0.7669(3) 0.8866(2) 0.05934(17)
O14 O 0.7539(4) 0.8686(4) 0.02282(17)
O15 O 0.7760(2) 0.8489(2) 0.0746(3)
O16 O 0.7812(3) 0.9318(3) 0.0802(2)
N4 N 1.0000 1.0000 0.1777(8)
O17 O 0.9643(4) 0.9403(4) 0.1743(2)
O17A O 1.0597(4) 1.0240(6) 0.1743(2)
O17B O 0.9760(6) 1.0357(4) 0.1743(2)
Dy1 Dy 0.919589(9) 0.842954(8) 0.078476(7)
Cu1 Cu 0.83989(4) 0.79097(3) 0.15871(3)
Cu2 Cu 0.80438(4) 0.71830(4) 0.08595(3)
Cu3 Cu 0.92400(2) 0.96234(2) 0.075840(17)
Cu4 Cu 0.88575(2) 0.88574(2) -0.000350(16)
Na1 Na 0.91371(10) 0.71719(11) 0.08638(8)
Na2 Na 0.71690(12) 0.54265(10) 0.17278(8)
N1 N 0.8094(4) 0.8245(3) 0.18994(19)
N2 N 0.7470(4) 0.6878(3) 0.0516(2)
C1 C 0.7986(7) 0.7494(7) 0.2245(6)
C2 C 0.8088(13) 0.8028(8) 0.2268(4)
H1 H 0.8430 0.8249 0.2390
H2 H 0.7814 0.8036 0.2422
O1 O 0.7817(6) 0.7220(6) 0.2503(5)
C3 C 0.7926(15) 0.8885(16) 0.1713(13)
H3 H 0.7684 0.8820 0.1918
H4 H 0.7736 0.8650 0.1507
H5 H 0.8080 0.9249 0.1632
C4 C 0.8312(5) 0.8794(5) 0.1828(4)
C5 C 0.8561(4) 0.8882(3) 0.1424(2)
C6 C 0.7380(8) 0.6143(9) 0.0910(7)
C7 C 0.7198(13) 0.6260(13) 0.0511(10)
H6 H 0.7327 0.6137 0.0303
H7 H 0.6812 0.6094 0.0494
O2 O 0.7109(7) 0.5698(7) 0.1002(6)
C8 C 0.7526(5) 0.7192(5) 0.0229(3)
H8 H 0.7670 0.7033 0.0054
C9 C 0.7125(5) 0.7179(7) -0.0031(4)
H9 H 0.6826 0.6823 -0.0044
H10 H 0.7280 0.7290 -0.0278
H11 H 0.7008 0.7418 0.0058
C10 C 0.8014(3) 0.7720(3) 0.0249(2)
O3 O 0.8071(3) 0.7347(2) 0.19458(17)
O4 O 0.86949(15) 0.85472(15) 0.12858(11)
O5 O 0.87200(15) 0.93421(14) 0.12819(12)
O6 O 0.7672(2) 0.6504(2) 0.11211(18)
O7 O 0.83305(16) 0.77893(14) 0.05390(13)
O8 O 0.80901(14) 0.80549(16) 0.00056(12)
O9 O 0.8668(3) 0.7622(3) 0.1196(2)
O10 O 0.92510(12) 0.84990(12) 0.01176(10)
O11 O 0.96725(11) 0.93523(12) 0.09601(9)
O12 O 1.00925(12) 0.89191(12) 0.05418(10)
O13 O 0.88297(12) 0.89292(12) 0.05315(10)
O18 O 1.0018(5) 0.7543(3) 0.1266(3)
O19 O 0.7420(3) 0.5085(3) 0.13642(19)
O20 O 0.8530(3) 0.6802(3) 0.0520(2)
O21 O 0.9004(3) 0.7043(3) 0.1445(3)
O22 O 0.94066(17) 0.77836(15) 0.05842(13)
O23 O 0.97609(18) 0.84970(16) 0.12850(12)
O24 O 0.7633(2) 0.7545(3) 0.1207(2)
Dy1O Dy 0.747078(9) 0.490379(8) 0.254857(7)
Dy1A Dy 1.157046(8) 1.076635(12) 0.078476(7)
Dy1K Dy 1.076635(12) 0.919589(9) -0.078476(7)
Dy1J Dy 0.842954(8) 0.923365(12) -0.078476(7)
Dy1B Dy 0.923365(12) 1.080411(9) 0.078476(7)
Cu1O Cu 0.82678(4) 0.54236(3) 0.17462(3)
Cu1A Cu 1.20903(3) 1.04892(5) 0.15871(3)
Cu1K Cu 1.04892(5) 0.83989(4) -0.15871(3)
Cu1J Cu 0.79097(3) 0.95108(5) -0.15871(3)
Cu1B Cu 0.95108(5) 1.16011(4) 0.15871(3)
Cu2K Cu 1.08608(6) 0.80438(4) -0.08595(3)
Cu2O Cu 0.86229(4) 0.61503(4) 0.24738(3)
Cu2A Cu 1.28170(4) 1.08608(6) 0.08595(3)
Cu2J Cu 0.71830(4) 0.91392(6) -0.08595(3)
Cu2B Cu 0.91392(6) 1.19562(4) 0.08595(3)
Cu3A Cu 1.03766(2) 0.96166(3) 0.075840(17)
Cu3O Cu 0.74267(2) 0.37099(2) 0.257493(17)
Cu3B Cu 1.03834(3) 1.07600(2) 0.075840(17)
Cu3K Cu 0.96166(3) 0.92400(2) -0.075840(17)
Cu3J Cu 0.96234(2) 1.03834(3) -0.075840(17)
Cu3P Cu 0.62901(2) 0.37167(3) 0.257493(17)
Cu3I Cu 1.07600(2) 1.03766(2) -0.075840(17)
Cu4K Cu 1.00001(3) 0.88575(2) 0.000350(16)
Cu4O Cu 0.78092(2) 0.44759(2) 0.333683(16)
Cu4A Cu 1.11426(2) 1.00001(3) -0.000350(16)
Cu4J Cu 0.88574(2) 0.99999(3) 0.000350(16)
Cu4B Cu 0.99999(3) 1.11425(2) -0.000350(16)
Cu4E Cu 0.66666(3) 0.44758(2) 0.332983(16)
Cu4I Cu 1.11425(2) 1.11426(2) 0.000350(16)
Na1O Na 0.75296(10) 0.61614(11) 0.24695(8)
Na1P Na 1.38386(11) 1.13681(15) 0.24695(8)
Na1A Na 1.28281(11) 1.19652(15) 0.08638(8)
Na1K Na 1.19652(15) 0.91371(10) -0.08638(8)
Na1J Na 0.71719(11) 0.80348(15) -0.08638(8)
Na1H Na 1.13681(15) 0.75296(10) -0.24695(8)
Na1G Na 0.61614(11) 0.86319(15) -0.24695(8)
Na1Q Na 0.86319(15) 1.24704(10) 0.24695(8)
Na1B Na 0.80348(15) 1.08629(10) 0.08638(8)
Na2O Na 0.94977(12) 0.79068(10) 0.16055(8)
Na2K Na 1.17425(16) 0.71690(12) -0.17278(8)
Na2A Na 1.45735(10) 1.17425(16) 0.17278(8)
Na2J Na 0.54265(10) 0.82575(16) -0.17278(8)
Na2B Na 0.82575(16) 1.28310(12) 0.17278(8)
Na2P Na 1.20932(10) 1.15908(16) 0.16055(8)
Na2H Na 1.15908(16) 0.94977(12) -0.16055(8)
Na2G Na 0.79068(10) 0.84092(16) -0.16055(8)
Na2Q Na 0.84092(16) 1.05023(12) 0.16055(8)
N1O N 0.8573(4) 0.5088(3) 0.14339(19)
N1A N 1.1755(3) 0.9849(5) 0.18994(19)
N1K N 0.9849(5) 0.8094(4) -0.18994(19)
N1J N 0.8245(3) 1.0151(5) -0.18994(19)
N1B N 1.0151(5) 1.1906(4) 0.18994(19)
N2K N 1.0592(5) 0.7470(4) -0.0516(2)
N2O N 0.9197(4) 0.6455(3) 0.2817(2)
N2A N 1.3122(3) 1.0592(5) 0.0516(2)
N2J N 0.6878(3) 0.9408(5) -0.0516(2)
N2B N 0.9408(5) 1.2530(4) 0.0516(2)
C1O C 0.8681(7) 0.5839(7) 0.1088(6)
C1A C 1.2506(7) 1.0492(10) 0.2245(6)
C1K C 1.0492(10) 0.7986(7) -0.2245(6)
C1J C 0.7494(7) 0.9508(10) -0.2245(6)
C1B C 0.9508(10) 1.2014(7) 0.2245(6)
C2O C 0.8579(13) 0.5305(8) 0.1065(4)
C2A C 1.1972(8) 1.0060(15) 0.2268(4)
C2K C 1.0060(15) 0.8088(13) -0.2268(4)
C2J C 0.8028(8) 0.9940(15) -0.2268(4)
C2B C 0.9940(15) 1.1912(13) 0.2268(4)
H1O H 0.8237 0.5084 0.0943
H1A H 1.1751 1.0181 0.2390
H1K H 1.0181 0.8430 -0.2390
H1J H 0.8249 0.9819 -0.2390
H1B H 0.9819 1.1570 0.2390
H2O H 0.8853 0.5297 0.0911
H2A H 1.1964 0.9778 0.2422
H2K H 0.9778 0.7814 -0.2422
H2J H 0.8036 1.0222 -0.2422
H2B H 1.0222 1.2186 0.2422
O1O O 0.8850(6) 0.6113(6) 0.0830(5)
O1A O 1.2780(6) 1.0597(8) 0.2503(5)
O1K O 1.0597(8) 0.7817(6) -0.2503(5)
O1J O 0.7220(6) 0.9403(8) -0.2503(5)
O1B O 0.9403(8) 1.2183(6) 0.2503(5)
C3O C 0.8741(15) 0.4448(16) 0.1620(13)
C3A C 1.1115(16) 0.9041(22) 0.1713(13)
C3K C 0.9041(22) 0.7926(15) -0.1713(13)
C3J C 0.8885(16) 1.0959(22) -0.1713(13)
C3B C 1.0959(22) 1.2074(15) 0.1713(13)
H3O H 0.8983 0.4513 0.1415
H3A H 1.1180 0.8864 0.1918
H3K H 0.8864 0.7684 -0.1918
H3J H 0.8820 1.1136 -0.1918
H3B H 1.1136 1.2316 0.1918
H4O H 0.8931 0.4683 0.1826
H4A H 1.1350 0.9086 0.1507
H4K H 0.9086 0.7736 -0.1507
H4J H 0.8650 1.0914 -0.1507
H4B H 1.0914 1.2264 0.1507
H5O H 0.8587 0.4084 0.1701
H5A H 1.0751 0.8831 0.1632
H5K H 0.8831 0.8080 -0.1632
H5J H 0.9249 1.1169 -0.1632
H5B H 1.1169 1.1920 0.1632
C4O C 0.8355(5) 0.4539(5) 0.1505(4)
C4A C 1.1206(5) 0.9518(7) 0.1828(4)
C4K C 0.9518(7) 0.8312(5) -0.1828(4)
C4J C 0.8794(5) 1.0482(7) -0.1828(4)
C4B C 1.0482(7) 1.1688(5) 0.1828(4)
C5O C 0.8106(4) 0.4451(3) 0.1909(2)
C5A C 1.1118(3) 0.9679(5) 0.1424(2)
C5K C 0.9679(5) 0.8561(4) -0.1424(2)
C5J C 0.8882(3) 1.0321(5) -0.1424(2)
C5B C 1.0321(5) 1.1439(4) 0.1424(2)
C6K C 1.1237(12) 0.7380(8) -0.0910(7)
C6O C 0.9287(8) 0.7190(9) 0.2423(7)
C6A C 1.3857(9) 1.1237(12) 0.0910(7)
C6J C 0.6143(9) 0.8763(12) -0.0910(7)
C6B C 0.8763(12) 1.2620(8) 0.0910(7)
C7K C 1.0938(18) 0.7198(13) -0.0511(10)
C7O C 0.9469(13) 0.7073(13) 0.2822(10)
C7A C 1.3740(13) 1.0938(18) 0.0511(10)
C7J C 0.6260(13) 0.9062(18) -0.0511(10)
C7B C 0.9062(18) 1.2802(13) 0.0511(10)
H6K H 1.1190 0.7327 -0.0303
H6O H 0.9340 0.7196 0.3030
H6A H 1.3863 1.1190 0.0303
H6J H 0.6137 0.8810 -0.0303
H6B H 0.8810 1.2673 0.0303
H7K H 1.0718 0.6812 -0.0494
H7O H 0.9855 0.7239 0.2839
H7A H 1.3906 1.0718 0.0494
H7J H 0.6094 0.9282 -0.0494
H7B H 0.9282 1.3188 0.0494
O2K O 1.1411(10) 0.7109(7) -0.1002(6)
O2O O 0.9558(7) 0.7635(7) 0.2331(6)
O2A O 1.4302(7) 1.1411(10) 0.1002(6)
O2J O 0.5698(7) 0.8589(10) -0.1002(6)
O2B O 0.8589(10) 1.2891(7) 0.1002(6)
C8K C 1.0334(7) 0.7526(5) -0.0229(3)
C8O C 0.9141(5) 0.6141(5) 0.3104(3)
C8A C 1.2808(5) 1.0334(7) 0.0229(3)
C8J C 0.7192(5) 0.9666(7) -0.0229(3)
C8B C 0.9666(7) 1.2474(5) 0.0229(3)
H8K H 1.0637 0.7670 -0.0054
H8O H 0.8997 0.6300 0.3279
H8A H 1.2967 1.0637 0.0054
H8J H 0.7033 0.9363 -0.0054
H8B H 0.9363 1.2330 0.0054
C9K C 0.9946(9) 0.7125(5) 0.0031(4)
C9O C 0.9542(5) 0.6154(7) 0.3364(4)
C9A C 1.2821(7) 0.9946(9) -0.0031(4)
C9J C 0.7179(7) 1.0054(9) 0.0031(4)
C9B C 1.0054(9) 1.2875(5) -0.0031(4)
H9K H 1.0003 0.6826 0.0044
H9O H 0.9841 0.6510 0.3377
H9A H 1.3177 1.0003 -0.0044
H9J H 0.6823 0.9997 0.0044
H9B H 0.9997 1.3174 -0.0044
H10K H 0.9990 0.7280 0.0278
H10O H 0.9387 0.6043 0.3611
H10A H 1.2710 0.9990 -0.0278
H10J H 0.7290 1.0010 0.0278
H10B H 1.0010 1.2720 -0.0278
H11K H 0.9590 0.7008 -0.0058
H11O H 0.9659 0.5915 0.3275
H11A H 1.2582 0.9590 0.0058
H11J H 0.7418 1.0410 -0.0058
H11B H 1.0410 1.2992 0.0058
C10K C 1.0294(4) 0.8014(3) -0.0249(2)
C10O C 0.8653(3) 0.5613(3) 0.3084(2)
C10A C 1.2280(3) 1.0294(4) 0.0249(2)
C10J C 0.7720(3) 0.9706(4) -0.0249(2)
C10B C 0.9706(4) 1.1986(3) 0.0249(2)
O3O O 0.8596(3) 0.5986(2) 0.13875(17)
O3A O 1.2653(2) 1.0724(4) 0.19458(17)
O3K O 1.0724(4) 0.8071(3) -0.19458(17)
O3J O 0.7347(2) 0.9276(4) -0.19458(17)
O3B O 0.9276(4) 1.1929(3) 0.19458(17)
O4O O 0.79718(15) 0.47861(15) 0.20475(11)
O4A O 1.14528(15) 1.01477(21) 0.12858(11)
O4K O 1.01477(21) 0.86949(15) -0.12858(11)
O4J O 0.85472(15) 0.98523(21) -0.12858(11)
O4B O 0.98523(21) 1.13051(15) 0.12858(11)
O5O O 0.79467(15) 0.39912(14) 0.20514(12)
O5A O 1.06579(14) 0.93779(21) 0.12819(12)
O5K O 0.93779(21) 0.87200(15) -0.12819(12)
O5J O 0.93421(14) 1.06221(21) -0.12819(12)
O5B O 1.06221(21) 1.12800(15) 0.12819(12)
O6K O 1.1168(3) 0.7672(2) -0.11211(18)
O6O O 0.8995(2) 0.6829(2) 0.22122(18)
O6A O 1.3496(2) 1.1168(3) 0.11211(18)
O6J O 0.6504(2) 0.8832(3) -0.11211(18)
O6B O 0.8832(3) 1.2328(2) 0.11211(18)
O7K O 1.05412(21) 0.83305(16) -0.05390(13)
O7O O 0.83362(16) 0.55440(14) 0.27943(13)
O7A O 1.22107(14) 1.05412(21) 0.05390(13)
O7J O 0.77893(14) 0.94588(21) -0.05390(13)
O7B O 0.94588(21) 1.16695(16) 0.05390(13)
O8K O 1.00352(21) 0.80901(14) -0.00056(12)
O8O O 0.85766(14) 0.52784(16) 0.33277(12)
O8A O 1.19451(16) 1.00352(21) 0.00056(12)
O8J O 0.80549(16) 0.99648(21) -0.00056(12)
O8B O 0.99648(21) 1.19099(14) 0.00056(12)
O9O O 0.7999(3) 0.5711(3) 0.2137(2)
O9A O 1.2378(3) 1.1046(4) 0.1196(2)
O9K O 1.1046(4) 0.8668(3) -0.1196(2)
O9J O 0.7622(3) 0.8954(4) -0.1196(2)
O9B O 0.8954(4) 1.1332(3) 0.1196(2)
O9P O 1.4289(3) 1.2287(4) 0.2137(2)
O9H O 1.2287(4) 0.7999(3) -0.2137(2)
O9G O 0.5711(3) 0.7713(4) -0.2137(2)
O9Q O 0.7713(4) 1.2001(3) 0.2137(2)
O10J O 0.84990(12) 0.92480(17) -0.01176(10)
O10K O 1.07520(17) 0.92510(12) -0.01176(10)
O10O O 0.74157(12) 0.48343(12) 0.32157(10)
O10A O 1.15010(12) 1.07520(17) 0.01176(10)
O10B O 0.92480(17) 1.07490(12) 0.01176(10)
O10D O 0.81677(12) 0.40853(17) 0.34509(10)
O10I O 1.07490(12) 1.15010(12) -0.01176(10)
O11B O 0.96798(16) 1.03275(11) 0.09601(9)
O11A O 1.06477(12) 1.03202(16) 0.09601(9)
O11O O 0.69942(11) 0.39810(12) 0.23732(9)
O11K O 1.03202(16) 0.96725(11) -0.09601(9)
O11J O 0.93523(12) 0.96798(16) -0.09601(9)
O11Q O 0.69869(16) 0.30058(11) 0.23732(9)
O11I O 1.03275(11) 1.06477(12) -0.09601(9)
O12B O 0.88266(17) 0.99075(12) 0.05418(10)
O12J O 0.89191(12) 0.88266(17) -0.05418(10)
O12O O 0.65742(12) 0.44142(12) 0.27915(10)
O12A O 1.10809(12) 1.11734(17) 0.05418(10)
O12K O 1.11734(17) 1.00925(12) -0.05418(10)
O12Q O 0.78401(17) 0.34258(12) 0.27915(10)
O12D O 0.77476(12) 0.45067(17) 0.38751(10)
O12I O 0.99075(12) 1.10809(12) -0.05418(10)
O13A O 1.10708(12) 0.99005(17) 0.05315(10)
O13K O 0.99005(17) 0.88297(12) -0.05315(10)
O13O O 0.78370(12) 0.44041(12) 0.28018(10)
O13J O 0.89292(12) 1.00995(17) -0.05315(10)
O13B O 1.00995(17) 1.11703(12) 0.05315(10)
O18O O 0.6649(5) 0.5790(3) 0.2067(3)
O18P O 1.4210(3) 1.0858(6) 0.2067(3)
O18H O 1.0858(6) 0.6649(5) -0.2067(3)
O18G O 0.5790(3) 0.9142(6) -0.2067(3)
O18Q O 0.9142(6) 1.3351(5) 0.2067(3)
O19O O 0.9247(3) 0.8248(3) 0.19691(19)
O19K O 1.2335(4) 0.7420(3) -0.13642(19)
O19A O 1.4915(3) 1.2335(4) 0.13642(19)
O19J O 0.5085(3) 0.7665(4) -0.13642(19)
O19B O 0.7665(4) 1.2580(3) 0.13642(19)
O20O O 0.8137(3) 0.6531(3) 0.2813(2)
O20P O 1.3469(3) 1.1605(4) 0.2813(2)
O20H O 1.1605(4) 0.8137(3) -0.2813(2)
O20G O 0.6531(3) 0.8395(4) -0.2813(2)
O20Q O 0.8395(4) 1.1863(3) 0.2813(2)
O21O O 0.7663(3) 0.6290(3) 0.1888(3)
O21P O 1.3710(3) 1.1372(4) 0.1888(3)
O21H O 1.1372(4) 0.7663(3) -0.1888(3)
O21G O 0.6290(3) 0.8628(4) -0.1888(3)
O21Q O 0.8628(4) 1.2337(3) 0.1888(3)
O22O O 0.72601(17) 0.55497(15) 0.27491(13)
O22A O 1.22164(15) 1.16230(23) 0.05842(13)
O22K O 1.16230(23) 0.94066(17) -0.05842(13)
O22J O 0.77836(15) 0.83770(23) -0.05842(13)
O22B O 0.83770(23) 1.05934(17) 0.05842(13)
O22P O 1.44503(15) 1.17103(23) 0.27491(13)
O22H O 1.17103(23) 0.72601(17) -0.27491(13)
O22G O 0.55497(15) 0.82897(23) -0.27491(13)
O22Q O 0.82897(23) 1.27399(17) 0.27491(13)
O23O O 0.69058(18) 0.48363(16) 0.20483(12)
O23A O 1.15030(16) 1.12639(24) 0.12850(12)
O23K O 1.12639(24) 0.97609(18) -0.12850(12)
O23J O 0.84970(16) 0.87361(24) -0.12850(12)
O23B O 0.87361(24) 1.02391(18) 0.12850(12)
O23H O 1.20694(24) 0.69058(18) -0.20483(12)
O23P O 1.51637(16) 1.20694(24) 0.20483(12)
O23G O 0.48363(16) 0.79306(24) -0.20483(12)
O23Q O 0.79306(24) 1.30942(18) 0.20483(12)
O24O O 0.9034(2) 0.5788(3) 0.2126(2)
O24A O 1.2455(3) 1.0088(4) 0.1207(2)
O24K O 1.0088(4) 0.7633(2) -0.1207(2)
O24J O 0.7545(3) 0.9912(4) -0.1207(2)
O24B O 0.9912(4) 1.2367(2) 0.1207(2)
C11? C 0.7638(9) 0.7380(9) 0.2131(7)
C12? C 0.7813(16) 0.8001(16) 0.2163(13)
C13? C 0.814(2) 0.9122(19) 0.1913(15)
C14? C 0.7170(6) 0.6210(7) 0.0937(5)
C15? C 0.6994(8) 0.6479(8) 0.0718(7)
H12? H 0.7498 0.8039 0.2166
H13? H 0.8006 0.8146 0.2398
H14? H 0.7948 0.9014 0.2147
H15? H 0.7911 0.9118 0.1716
H16? H 0.8442 0.9477 0.1939
H17? H 0.6846 0.6650 0.0874
H18? H 0.6722 0.6239 0.0542
O25? O 0.7381(6) 0.6981(5) 0.2300(5)
O26? O 0.6920(5) 0.5846(6) 0.1152(4)
loop_
_geom_bond_atom_site_label_1
_geom_bond_atom_site_label_2
_geom_bond_site_symmetry_1
_geom_bond_site_symmetry_2
Dy1 O4 1_555 1_555
Cu1 N1 1_555 1_555
Cu2 N2 1_555 1_555
Cu3 O5 1_555 1_555
Cu4 O8 1_555 1_555
Na1 O9 1_555 1_555
Na2 O2 1_555 1_555
N1 C2 1_555 1_555
N2 C7 1_555 1_555
N3 O14 1_555 1_555
N4 O17 1_555 1_555
C1 C2 1_555 1_555
C2 H1 1_555 1_555
H2 C2 1_555 1_555
O1 C1 1_555 1_555
C3 H3 1_555 1_555
H4 C3 1_555 1_555
H5 C3 1_555 1_555
C4 N1 1_555 1_555
C5 C4 1_555 1_555
C6 C7 1_555 1_555
C7 H6 1_555 1_555
H7 C7 1_555 1_555
O2 C6 1_555 1_555
C8 N2 1_555 1_555
H8 C8 1_555 1_555
C9 C8 1_555 1_555
H9 C9 1_555 1_555
H10 C9 1_555 1_555
H11 C9 1_555 1_555
C10 C8 1_555 1_555
O3 Cu1 1_555 1_555
O4 Cu1 1_555 1_555
O5 C5 1_555 1_555
O6 Cu2 1_555 1_555
O7 Dy1 1_555 1_555
O8 C10 1_555 1_555
O9 Dy1 1_555 1_555
O10 Dy1 1_555 1_555
O11 Dy1 1_555 1_555
O12 Dy1 1_555 1_555
O13 Dy1 1_555 1_555
O15 N3 1_555 1_555
O16 N3 1_555 1_555
O18 Na1 1_555 1_555
O19 Na2 1_555 1_555
O20 Na1 1_555 1_555
O21 Na1 1_555 1_555
O22 Dy1 1_555 1_555
O23 Dy1 1_555 1_555
O24 Cu1 1_555 1_555
Dy1O O4O 1_555 1_555
Dy1A O4A 1_555 1_555
Dy1K O4K 1_555 1_555
Dy1J O4J 1_555 1_555
Dy1B O4B 1_555 1_555
Cu1O N1O 1_555 1_555
Cu1A N1A 1_555 1_555
Cu1K N1K 1_555 1_555
Cu1J N1J 1_555 1_555
Cu1B N1B 1_555 1_555
Cu2K N2K 1_555 1_555
Cu2O N2O 1_555 1_555
Cu2A N2A 1_555 1_555
Cu2J N2J 1_555 1_555
Cu2B N2B 1_555 1_555
Cu3A O11 1_555 1_555
Cu3O O5O 1_555 1_555
Cu3B O5B 1_555 1_555
Cu3K O5K 1_555 1_555
Cu3J O5J 1_555 1_555
Cu3P O11O 1_555 1_555
Cu3I O11K 1_555 1_555
Cu4K O10 1_555 1_555
Cu4O O8O 1_555 1_555
Cu4A O8A 1_555 1_555
Cu4J O8J 1_555 1_555
Cu4B O8B 1_555 1_555
Cu4E O10O 1_555 1_555
Cu4I O10A 1_555 1_555
Na1O O1 1_555 1_555
Na1P O1A 1_555 1_555
Na1A O9A 1_555 1_555
Na1K O9K 1_555 1_555
Na1J O9J 1_555 1_555
Na1H O1K 1_555 1_555
Na1G O1J 1_555 1_555
Na1Q O1B 1_555 1_555
Na1B O9B 1_555 1_555
Na2O O9 1_555 1_555
Na2K O2K 1_555 1_555
Na2A O2A 1_555 1_555
Na2J O2J 1_555 1_555
Na2B O2B 1_555 1_555
Na2P O9A 1_555 1_555
Na2H O9K 1_555 1_555
Na2G O9J 1_555 1_555
Na2Q O9B 1_555 1_555
N1O C2O 1_555 1_555
N1A C2A 1_555 1_555
N1K C2K 1_555 1_555
N1J C2J 1_555 1_555
N1B C2B 1_555 1_555
N2K C7K 1_555 1_555
N2O C7O 1_555 1_555
N2A C7A 1_555 1_555
N2J C7J 1_555 1_555
N2B C7B 1_555 1_555
C1O C2O 1_555 1_555
C1A C2A 1_555 1_555
C1K C2K 1_555 1_555
C1J C2J 1_555 1_555
C1B C2B 1_555 1_555
C2O H1O 1_555 1_555
C2A H1A 1_555 1_555
C2K H1K 1_555 1_555
C2J H1J 1_555 1_555
C2B H1B 1_555 1_555
H2O C2O 1_555 1_555
H2A C2A 1_555 1_555
H2K C2K 1_555 1_555
H2J C2J 1_555 1_555
H2B C2B 1_555 1_555
O1O Na1 1_555 1_555
O1A C1A 1_555 1_555
O1K C1K 1_555 1_555
O1J C1J 1_555 1_555
O1B C1B 1_555 1_555
C3O H3O 1_555 1_555
C3A H3A 1_555 1_555
C3K H3K 1_555 1_555
C3J H3J 1_555 1_555
C3B H3B 1_555 1_555
H4O C3O 1_555 1_555
H4A C3A 1_555 1_555
H4K C3K 1_555 1_555
H4J C3J 1_555 1_555
H4B C3B 1_555 1_555
H5O C3O 1_555 1_555
H5A C3A 1_555 1_555
H5K C3K 1_555 1_555
H5J C3J 1_555 1_555
H5B C3B 1_555 1_555
C4O N1O 1_555 1_555
C4A N1A 1_555 1_555
C4K N1K 1_555 1_555
C4J N1J 1_555 1_555
C4B N1B 1_555 1_555
C5O C4O 1_555 1_555
C5A C4A 1_555 1_555
C5K C4K 1_555 1_555
C5J C4J 1_555 1_555
C5B C4B 1_555 1_555
C6K C7K 1_555 1_555
C6O C7O 1_555 1_555
C6A C7A 1_555 1_555
C6J C7J 1_555 1_555
C6B C7B 1_555 1_555
C7K H6K 1_555 1_555
C7O H6O 1_555 1_555
C7A H6A 1_555 1_555
C7J H6J 1_555 1_555
C7B H6B 1_555 1_555
H7K C7K 1_555 1_555
H7O C7O 1_555 1_555
H7A C7A 1_555 1_555
H7J C7J 1_555 1_555
H7B C7B 1_555 1_555
O2K C6K 1_555 1_555
O2O Na2O 1_555 1_555
O2A C6A 1_555 1_555
O2J C6J 1_555 1_555
O2B C6B 1_555 1_555
C8K N2K 1_555 1_555
C8O N2O 1_555 1_555
C8A N2A 1_555 1_555
C8J N2J 1_555 1_555
C8B N2B 1_555 1_555
H8K C8K 1_555 1_555
H8O C8O 1_555 1_555
H8A C8A 1_555 1_555
H8J C8J 1_555 1_555
H8B C8B 1_555 1_555
C9K C8K 1_555 1_555
C9O C8O 1_555 1_555
C9A C8A 1_555 1_555
C9J C8J 1_555 1_555
C9B C8B 1_555 1_555
H9K C9K 1_555 1_555
H9O C9O 1_555 1_555
H9A C9A 1_555 1_555
H9J C9J 1_555 1_555
H9B C9B 1_555 1_555
H10K C9K 1_555 1_555
H10O C9O 1_555 1_555
H10A C9A 1_555 1_555
H10J C9J 1_555 1_555
H10B C9B 1_555 1_555
H11K C9K 1_555 1_555
H11O C9O 1_555 1_555
H11A C9A 1_555 1_555
H11J C9J 1_555 1_555
H11B C9B 1_555 1_555
C10K C8K 1_555 1_555
C10O C8O 1_555 1_555
C10A C8A 1_555 1_555
C10J C8J 1_555 1_555
C10B C8B 1_555 1_555
O3O Cu1O 1_555 1_555
O3A Cu1A 1_555 1_555
O3K Cu1K 1_555 1_555
O3J Cu1J 1_555 1_555
O3B Cu1B 1_555 1_555
O4O Cu1O 1_555 1_555
O4A Cu1A 1_555 1_555
O4K Cu1K 1_555 1_555
O4J Cu1J 1_555 1_555
O4B Cu1B 1_555 1_555
O5O C5O 1_555 1_555
O5A Cu3A 1_555 1_555
O5K C5K 1_555 1_555
O5J C5J 1_555 1_555
O5B C5B 1_555 1_555
O6K Cu2K 1_555 1_555
O6O Cu2O 1_555 1_555
O6A Cu2A 1_555 1_555
O6J Cu2J 1_555 1_555
O6B Cu2B 1_555 1_555
O7K Dy1K 1_555 1_555
O7O Dy1O 1_555 1_555
O7A Dy1A 1_555 1_555
O7J Dy1J 1_555 1_555
O7B Dy1B 1_555 1_555
O8K Cu4K 1_555 1_555
O8O C10O 1_555 1_555
O8A C10A 1_555 1_555
O8J C10J 1_555 1_555
O8B C10B 1_555 1_555
O9O Na2 1_555 1_555
O9A Dy1A 1_555 1_555
O9K Dy1K 1_555 1_555
O9J Dy1J 1_555 1_555
O9B Dy1B 1_555 1_555
O9P Na1P 1_555 1_555
O9H Na1H 1_555 1_555
O9G Na1G 1_555 1_555
O9Q Na1Q 1_555 1_555
O10J Cu4 1_555 1_555
O10K Dy1K 1_555 1_555
O10O Dy1O 1_555 1_555
O10A Dy1A 1_555 1_555
O10B Dy1B 1_555 1_555
O10D Cu4O 1_555 1_555
O10I Cu4B 1_555 1_555
O11B Cu3 1_555 1_555
O11A Dy1A 1_555 1_555
O11O Dy1O 1_555 1_555
O11K Dy1K 1_555 1_555
O11J Dy1J 1_555 1_555
O11Q Cu3O 1_555 1_555
O11I Cu3J 1_555 1_555
O12B Cu3 1_555 1_555
O12J Cu4 1_555 1_555
O12O Dy1O 1_555 1_555
O12A Dy1A 1_555 1_555
O12K Dy1K 1_555 1_555
O12Q Cu3O 1_555 1_555
O12D Cu4O 1_555 1_555
O12I Cu3J 1_555 1_555
O13A Dy1A 1_555 1_555
O13K Dy1K 1_555 1_555
O13O Dy1O 1_555 1_555
O13J Dy1J 1_555 1_555
O13B Dy1B 1_555 1_555
O17A N4 1_555 1_555
O17B N4 1_555 1_555
O18O Na2 1_555 1_555
O18P Na1P 1_555 1_555
O18H Na1H 1_555 1_555
O18G Na1G 1_555 1_555
O18Q Na1Q 1_555 1_555
O19O Na2O 1_555 1_555
O19K Na2K 1_555 1_555
O19A Na2A 1_555 1_555
O19J Na2J 1_555 1_555
O19B Na2B 1_555 1_555
O20O Na1O 1_555 1_555
O20P Na1P 1_555 1_555
O20H Na1H 1_555 1_555
O20G Na1G 1_555 1_555
O20Q Na1Q 1_555 1_555
O21O Na2 1_555 1_555
O21P Na1P 1_555 1_555
O21H Na1H 1_555 1_555
O21G Na1G 1_555 1_555
O21Q Na1Q 1_555 1_555
O22O Dy1O 1_555 1_555
O22A Dy1A 1_555 1_555
O22K Dy1K 1_555 1_555
O22J Dy1J 1_555 1_555
O22B Dy1B 1_555 1_555
O22P Na1P 1_555 1_555
O22H Na1H 1_555 1_555
O22G Na1G 1_555 1_555
O22Q Na1Q 1_555 1_555
O23O Na2 1_555 1_555
O23A Dy1A 1_555 1_555
O23K Dy1K 1_555 1_555
O23J Dy1J 1_555 1_555
O23B Dy1B 1_555 1_555
O23H Na2K 1_555 1_555
O23P Na2A 1_555 1_555
O23G Na2J 1_555 1_555
O23Q Na2B 1_555 1_555
O24O Cu1O 1_555 1_555
O24A Cu1A 1_555 1_555
O24K Cu1K 1_555 1_555
O24J Cu1J 1_555 1_555
O24B Cu1B 1_555 1_555
Cu1 O9 1_555 1_555
Cu2 O7 1_555 1_555
Cu2 O9 1_555 1_555
Cu2 O24 1_555 1_555
Cu3 O11 1_555 1_555
Cu3 O13 1_555 1_555
Cu4 O10 1_555 1_555
Cu4 O13 1_555 1_555
Na1 O22 1_555 1_555
C1 O3 1_555 1_555
C3 C4 1_555 1_555
C5 O4 1_555 1_555
C6 O6 1_555 1_555
C10 O7 1_555 1_555
O12 Cu3A 1_555 1_555
O12 Cu4K 1_555 1_555
O18 Na2O 1_555 1_555
O21 Na2O 1_555 1_555
O23 Na2O 1_555 1_555
Dy1O O9O 1_555 1_555
Dy1O O23O 1_555 1_555
Dy1J O10J 1_555 1_555
Dy1J O12J 1_555 1_555
Dy1B O11B 1_555 1_555
Dy1B O12B 1_555 1_555
Cu1O O9O 1_555 1_555
Cu1A O9A 1_555 1_555
Cu1K O9K 1_555 1_555
Cu1J O9J 1_555 1_555
Cu1B O9B 1_555 1_555
Cu2K O7K 1_555 1_555
Cu2K O9K 1_555 1_555
Cu2K O24K 1_555 1_555
Cu2O O7O 1_555 1_555
Cu2O O9O 1_555 1_555
Cu2O O24O 1_555 1_555
Cu2A O7A 1_555 1_555
Cu2A O9A 1_555 1_555
Cu2A O24A 1_555 1_555
Cu2J O7J 1_555 1_555
Cu2J O9J 1_555 1_555
Cu2J O24J 1_555 1_555
Cu2B O7B 1_555 1_555
Cu2B O9B 1_555 1_555
Cu2B O24B 1_555 1_555
Cu3A O11A 1_555 1_555
Cu3A O13A 1_555 1_555
Cu3O O11O 1_555 1_555
Cu3O O13O 1_555 1_555
Cu3B O11B 1_555 1_555
Cu3B O11A 1_555 1_555
Cu3B O12A 1_555 1_555
Cu3B O13B 1_555 1_555
Cu3K O11K 1_555 1_555
Cu3K O11J 1_555 1_555
Cu3K O12J 1_555 1_555
Cu3K O13K 1_555 1_555
Cu3J O11J 1_555 1_555
Cu3J O13J 1_555 1_555
Cu3P O12O 1_555 1_555
Cu3I O11I 1_555 1_555
Cu3I O12K 1_555 1_555
Cu4K O10K 1_555 1_555
Cu4K O13K 1_555 1_555
Cu4O O10O 1_555 1_555
Cu4O O13O 1_555 1_555
Cu4A O10K 1_555 1_555
Cu4A O10A 1_555 1_555
Cu4A O12K 1_555 1_555
Cu4A O13A 1_555 1_555
Cu4J O10J 1_555 1_555
Cu4J O10B 1_555 1_555
Cu4J O12B 1_555 1_555
Cu4J O13J 1_555 1_555
Cu4B O10B 1_555 1_555
Cu4B O12I 1_555 1_555
Cu4B O13B 1_555 1_555
Cu4E O12O 1_555 1_555
Cu4I O10I 1_555 1_555
Cu4I O12A 1_555 1_555
Na1O O9O 1_555 1_555
Na1O O18O 1_555 1_555
Na1O O21O 1_555 1_555
Na1O O22O 1_555 1_555
Na1A O22A 1_555 1_555
Na1K O22K 1_555 1_555
Na1J O22J 1_555 1_555
Na1B O22B 1_555 1_555
Na2K O9H 1_555 1_555
Na2K O18H 1_555 1_555
Na2K O21H 1_555 1_555
Na2A O9P 1_555 1_555
Na2A O18P 1_555 1_555
Na2A O21P 1_555 1_555
Na2J O9G 1_555 1_555
Na2J O18G 1_555 1_555
Na2J O21G 1_555 1_555
Na2B O9Q 1_555 1_555
Na2B O18Q 1_555 1_555
Na2B O21Q 1_555 1_555
Na2P O23A 1_555 1_555
Na2H O23K 1_555 1_555
Na2G O23J 1_555 1_555
Na2Q O23B 1_555 1_555
C1O O1O 1_555 1_555
C1O O3O 1_555 1_555
C1A O3A 1_555 1_555
C1K O3K 1_555 1_555
C1J O3J 1_555 1_555
C1B O3B 1_555 1_555
C3O C4O 1_555 1_555
C3A C4A 1_555 1_555
C3K C4K 1_555 1_555
C3J C4J 1_555 1_555
C3B C4B 1_555 1_555
C5O O4O 1_555 1_555
C5A O4A 1_555 1_555
C5A O5A 1_555 1_555
C5K O4K 1_555 1_555
C5J O4J 1_555 1_555
C5B O4B 1_555 1_555
C6K O6K 1_555 1_555
C6O O2O 1_555 1_555
C6O O6O 1_555 1_555
C6A O6A 1_555 1_555
C6J O6J 1_555 1_555
C6B O6B 1_555 1_555
C10K O7K 1_555 1_555
C10K O8K 1_555 1_555
C10O O7O 1_555 1_555
C10A O7A 1_555 1_555
C10J O7J 1_555 1_555
C10B O7B 1_555 1_555

#END
