
#######################################################################
#
#                 Cambridge Crystallographic Data Centre
#                                CCDC 
#
#######################################################################
#
# If this CIF has been generated from an entry in the Cambridge 
# Structural Database, then it will include bibliographic, chemical, 
# crystal, experimental, refinement or atomic coordinate data resulting 
# from the CCDC's data processing and validation procedures.
#
#######################################################################

data_OZEMIQ
_symmetry_cell_setting           rhombohedral
_symmetry_space_group_name_H-M   'R -3'
_symmetry_Int_Tables_number      148
_space_group_name_Hall           '-R 3'
loop_
_symmetry_equiv_pos_site_id
_symmetry_equiv_pos_as_xyz
1 x,y,z
2 -y,x-y,z
3 -x+y,-x,z
4 2/3+x,1/3+y,1/3+z
5 2/3-y,1/3+x-y,1/3+z
6 2/3-x+y,1/3-x,1/3+z
7 1/3+x,2/3+y,2/3+z
8 1/3-y,2/3+x-y,2/3+z
9 1/3-x+y,2/3-x,2/3+z
10 -x,-y,-z
11 y,-x+y,-z
12 x-y,x,-z
13 1/3-x,2/3-y,2/3-z
14 1/3+y,2/3-x+y,2/3-z
15 1/3+x-y,2/3+x,2/3-z
16 2/3-x,1/3-y,1/3-z
17 2/3+y,1/3-x+y,1/3-z
18 2/3+x-y,1/3+x,1/3-z
_cell_length_a                   29.5532(4)
_cell_length_b                   29.5532(4)
_cell_length_c                   36.1951(7)
_cell_angle_alpha                90
_cell_angle_beta                 90
_cell_angle_gamma                120
_cell_volume                     27377.2
loop_
_atom_site_label
_atom_site_type_symbol
_atom_site_fract_x
_atom_site_fract_y
_atom_site_fract_z
N1 N 0.7729(5) 0.8894(4) 0.0601(4)
O1 O 0.7505(5) 0.8683(5) 0.0189(2)
O2 O 0.7766(3) 0.8476(4) 0.0756(4)
O3 O 0.7802(3) 0.9398(4) 0.0816(3)
N2 N 1.0000 1.0000 0.1733(6)
O4 O 0.9644(6) 0.9405(5) 0.1733(3)
O4A O 1.0595(5) 1.0239(8) 0.1733(3)
O4B O 0.9761(8) 1.0356(6) 0.1733(3)
Gd1 Gd 0.920106(11) 0.842443(11) 0.078722(8)
Cu1 Cu 0.88591(2) 0.88587(3) -0.000190(18)
Cu2 Cu 0.92386(2) 0.96207(2) 0.075850(19)
Cu3 Cu 0.80401(5) 0.71788(5) 0.08604(4)
Cu4 Cu 0.83938(5) 0.79080(5) 0.15882(4)
Na1 Na 0.75239(9) 0.61591(9) 0.24710(7)
Na2 Na 0.71628(10) 0.54268(9) 0.17324(7)
N3 N 0.8093(4) 0.8257(3) 0.1914(2)
H1 H 0.7775 0.8114 0.1789
N4 N 0.7437(5) 0.6884(4) 0.0528(3)
H2 H 0.7226 0.6962 0.0674
C1 C 0.7871(8) 0.7462(5) 0.2223(4)
C2 C 0.7863(10) 0.8004(6) 0.2266(3)
H3 H 0.7503 0.7941 0.2295
H4 H 0.8078 0.8213 0.2478
C3 C 0.8077(8) 0.9082(8) 0.1895(6)
H5 H 0.7906 0.8980 0.2137
H6 H 0.7824 0.9058 0.1710
H7 H 0.8369 0.9442 0.1907
C4 C 0.8261(8) 0.8754(6) 0.1800(6)
H8 H 0.8584 0.8925 0.1956
C5 C 0.8550(5) 0.8860(4) 0.1413(3)
C6 C 0.7260(8) 0.6165(5) 0.0928(5)
C7 C 0.7130(8) 0.6318(6) 0.0571(6)
H9 H 0.7207 0.6146 0.0365
H10 H 0.6753 0.6204 0.0564
C8 C 0.7485(7) 0.7195(7) 0.0248(4)
H11 H 0.7609 0.7022 0.0070
C9 C 0.7129(7) 0.7279(13) -0.0051(6)
H12 H 0.6794 0.6955 -0.0078
H13 H 0.7310 0.7374 -0.0290
H14 H 0.7068 0.7560 0.0032
C10 C 0.8010(4) 0.7718(4) 0.0254(3)
O5 O 0.7586(6) 0.7100(5) 0.2380(4)
O6 O 0.8061(3) 0.7342(3) 0.1942(2)
O7 O 0.86924(18) 0.85320(19) 0.12874(13)
O8 O 0.87206(19) 0.93456(17) 0.12805(14)
O9 O 0.7064(6) 0.5774(5) 0.1059(4)
O10 O 0.7682(3) 0.6503(3) 0.1122(2)
O11 O 0.83295(18) 0.77855(16) 0.05451(14)
O12 O 0.80854(18) 0.80562(19) 0.00062(13)
O13 O 0.8694(4) 0.7608(3) 0.1193(3)
O14 O 0.92486(14) 0.85023(14) 0.01132(10)
O15 O 0.96762(14) 0.93517(14) 0.09590(11)
O16 O 1.00990(14) 0.89224(14) 0.05391(11)
O17 O 0.88303(14) 0.89284(14) 0.05360(11)
O18 O 0.6659(6) 0.5792(4) 0.2071(4)
O19 O 0.7466(5) 0.5081(4) 0.1360(3)
O20 O 0.8161(4) 0.6539(3) 0.2825(3)
O21 O 0.7642(7) 0.6264(5) 0.1885(4)
O22 O 0.9413(2) 0.77729(17) 0.05764(15)
O23 O 0.9777(2) 0.85008(18) 0.12960(13)
O24 O 0.7631(3) 0.7530(4) 0.1209(3)
Gd1A Gd 1.157557(11) 1.077663(16) 0.078722(8)
Gd1O Gd 0.746561(11) 0.490890(11) 0.254611(8)
Gd1K Gd 1.077663(16) 0.920106(11) -0.078722(8)
Gd1J Gd 0.842443(11) 0.922337(16) -0.078722(8)
Gd1B Gd 0.922337(16) 1.079894(11) 0.078722(8)
Cu1K Cu 1.00004(4) 0.88591(2) 0.000190(18)
Cu1O Cu 0.78076(2) 0.44746(3) 0.333523(18)
Cu1A Cu 1.11413(3) 1.00004(4) -0.000190(18)
Cu1J Cu 0.88587(3) 0.99996(4) 0.000190(18)
Cu1B Cu 0.99996(4) 1.11409(2) -0.000190(18)
Cu1I Cu 1.11409(2) 1.11413(3) 0.000190(18)
Cu1E Cu 0.66663(4) 0.44742(2) 0.333143(18)
Cu2A Cu 1.03793(2) 0.96179(3) 0.075850(19)
Cu2O Cu 0.74281(2) 0.37126(2) 0.257483(19)
Cu2B Cu 1.03821(3) 1.07614(2) 0.075850(19)
Cu2K Cu 0.96179(3) 0.92386(2) -0.075850(19)
Cu2J Cu 0.96207(2) 1.03821(3) -0.075850(19)
Cu2P Cu 0.62874(2) 0.37154(3) 0.257483(19)
Cu2I Cu 1.07614(2) 1.03793(2) -0.075850(19)
Cu3K Cu 1.08613(7) 0.80401(5) -0.08604(4)
Cu3O Cu 0.86266(5) 0.61545(5) 0.24729(4)
Cu3A Cu 1.28212(5) 1.08613(7) 0.08604(4)
Cu3J Cu 0.71788(5) 0.91387(7) -0.08604(4)
Cu3B Cu 0.91387(7) 1.19599(5) 0.08604(4)
Cu4A Cu 1.20920(5) 1.04858(7) 0.15882(4)
Cu4O Cu 0.82729(5) 0.54253(5) 0.17451(4)
Cu4K Cu 1.04858(7) 0.83938(5) -0.15882(4)
Cu4J Cu 0.79080(5) 0.95142(7) -0.15882(4)
Cu4B Cu 0.95142(7) 1.16062(5) 0.15882(4)
Na1O Na 0.91428(9) 0.71742(9) 0.08623(7)
Na1A Na 1.38409(9) 1.13648(13) 0.24710(7)
Na1K Na 1.13648(13) 0.75239(9) -0.24710(7)
Na1J Na 0.61591(9) 0.86352(13) -0.24710(7)
Na1B Na 0.86352(13) 1.24761(9) 0.24710(7)
Na1P Na 1.28258(9) 1.19685(13) 0.08623(7)
Na1H Na 1.19685(13) 0.91428(9) -0.08623(7)
Na1G Na 0.71742(9) 0.80315(13) -0.08623(7)
Na1Q Na 0.80315(13) 1.08572(9) 0.08623(7)
Na2O Na 0.95039(10) 0.79065(9) 0.16009(7)
Na2K Na 1.17360(13) 0.71628(10) -0.17324(7)
Na2A Na 1.45732(9) 1.17360(13) 0.17324(7)
Na2J Na 0.54268(9) 0.82640(13) -0.17324(7)
Na2B Na 0.82640(13) 1.28372(10) 0.17324(7)
Na2P Na 1.20935(9) 1.15973(13) 0.16009(7)
Na2H Na 1.15973(13) 0.95039(10) -0.16009(7)
Na2G Na 0.79065(9) 0.84027(13) -0.16009(7)
Na2Q Na 0.84027(13) 1.04961(10) 0.16009(7)
N3A N 1.1743(3) 0.9836(5) 0.1914(2)
N3O N 0.8574(4) 0.5076(3) 0.1419(2)
N3K N 0.9836(5) 0.8093(4) -0.1914(2)
N3J N 0.8257(3) 1.0164(5) -0.1914(2)
N3B N 1.0164(5) 1.1907(4) 0.1914(2)
H1A H 1.1886 0.9661 0.1789
H1O H 0.8892 0.5219 0.1544
H1K H 0.9661 0.7775 -0.1789
H1J H 0.8114 1.0339 -0.1789
H1B H 1.0339 1.2225 0.1789
N4K N 1.0553(6) 0.7437(5) -0.0528(3)
N4O N 0.9230(5) 0.6449(4) 0.2805(3)
N4A N 1.3116(4) 1.0553(6) 0.0528(3)
N4J N 0.6884(4) 0.9447(6) -0.0528(3)
N4B N 0.9447(6) 1.2563(5) 0.0528(3)
H2K H 1.0264 0.7226 -0.0674
H2O H 0.9441 0.6371 0.2659
H2A H 1.3038 1.0264 0.0674
H2J H 0.6962 0.9736 -0.0674
H2B H 0.9736 1.2774 0.0674
C1A C 1.2538(5) 1.0409(9) 0.2223(4)
C1O C 0.8796(8) 0.5871(5) 0.1110(4)
C1K C 1.0409(9) 0.7871(8) -0.2223(4)
C1J C 0.7462(5) 0.9591(9) -0.2223(4)
C1B C 0.9591(9) 1.2129(8) 0.2223(4)
C2A C 1.1996(6) 0.9859(12) 0.2266(3)
C2O C 0.8804(10) 0.5329(6) 0.1067(3)
C2K C 0.9859(12) 0.7863(10) -0.2266(3)
C2J C 0.8004(6) 1.0141(12) -0.2266(3)
C2B C 1.0141(12) 1.2137(10) 0.2266(3)
H3A H 1.2059 0.9562 0.2295
H3O H 0.9164 0.5392 0.1038
H3K H 0.9562 0.7503 -0.2295
H3J H 0.7941 1.0438 -0.2295
H3B H 1.0438 1.2497 0.2295
H4A H 1.1787 0.9865 0.2478
H4O H 0.8589 0.5120 0.0855
H4K H 0.9865 0.8078 -0.2478
H4J H 0.8213 1.0135 -0.2478
H4B H 1.0135 1.1922 0.2478
C3A C 1.0918(8) 0.8995(11) 0.1895(6)
C3O C 0.8590(8) 0.4251(8) 0.1438(6)
C3K C 0.8995(11) 0.8077(8) -0.1895(6)
C3J C 0.9082(8) 1.1005(11) -0.1895(6)
C3B C 1.1005(11) 1.1923(8) 0.1895(6)
H5A H 1.1020 0.8926 0.2137
H5O H 0.8761 0.4353 0.1196
H5K H 0.8926 0.7906 -0.2137
H5J H 0.8980 1.1074 -0.2137
H5B H 1.1074 1.2094 0.2137
H6A H 1.0942 0.8766 0.1710
H6O H 0.8843 0.4275 0.1623
H6K H 0.8766 0.7824 -0.1710
H6J H 0.9058 1.1234 -0.1710
H6B H 1.1234 1.2176 0.1710
H7A H 1.0558 0.8927 0.1907
H7O H 0.8298 0.3891 0.1426
H7K H 0.8927 0.8369 -0.1907
H7J H 0.9442 1.1073 -0.1907
H7B H 1.1073 1.1631 0.1907
C4A C 1.1246(6) 0.9507(10) 0.1800(6)
C4O C 0.8406(8) 0.4579(6) 0.1533(6)
C4K C 0.9507(10) 0.8261(8) -0.1800(6)
C4J C 0.8754(6) 1.0493(10) -0.1800(6)
C4B C 1.0493(10) 1.1739(8) 0.1800(6)
H8A H 1.1075 0.9659 0.1956
H8O H 0.8083 0.4408 0.1377
H8K H 0.9659 0.8584 -0.1956
H8J H 0.8925 1.0341 -0.1956
H8B H 1.0341 1.1416 0.1956
C5A C 1.1140(4) 0.9690(6) 0.1413(3)
C5O C 0.8117(5) 0.4473(4) 0.1920(3)
C5K C 0.9690(6) 0.8550(5) -0.1413(3)
C5J C 0.8860(4) 1.0310(6) -0.1413(3)
C5B C 1.0310(6) 1.1450(5) 0.1413(3)
C6K C 1.1095(9) 0.7260(8) -0.0928(5)
C6O C 0.9407(8) 0.7168(5) 0.2405(5)
C6A C 1.3835(5) 1.1095(9) 0.0928(5)
C6J C 0.6165(5) 0.8905(9) -0.0928(5)
C6B C 0.8905(9) 1.2740(8) 0.0928(5)
C7K C 1.0812(10) 0.7130(8) -0.0571(6)
C7O C 0.9537(8) 0.7015(6) 0.2762(6)
C7A C 1.3682(6) 1.0812(10) 0.0571(6)
C7J C 0.6318(6) 0.9188(10) -0.0571(6)
C7B C 0.9188(10) 1.2870(8) 0.0571(6)
H9K H 1.1061 0.7207 -0.0365
H9O H 0.9460 0.7187 0.2968
H9A H 1.3854 1.1061 0.0365
H9J H 0.6146 0.8939 -0.0365
H9B H 0.8939 1.2793 0.0365
H10K H 1.0549 0.6753 -0.0564
H10O H 0.9914 0.7129 0.2769
H10A H 1.3796 1.0549 0.0564
H10J H 0.6204 0.9451 -0.0564
H10B H 0.9451 1.3247 0.0564
C8K C 1.0290(10) 0.7485(7) -0.0248(4)
C8O C 0.9182(7) 0.6138(7) 0.3085(4)
C8A C 1.2805(7) 1.0290(10) 0.0248(4)
C8J C 0.7195(7) 0.9710(10) -0.0248(4)
C8B C 0.9710(10) 1.2515(7) 0.0248(4)
H11K H 1.0587 0.7609 -0.0070
H11O H 0.9058 0.6311 0.3263
H11A H 1.2978 1.0587 0.0070
H11J H 0.7022 0.9413 -0.0070
H11B H 0.9413 1.2391 0.0070
C9K C 0.9850(15) 0.7129(7) 0.0051(6)
C9O C 0.9538(7) 0.6054(13) 0.3384(6)
C9A C 1.2721(13) 0.9850(15) -0.0051(6)
C9J C 0.7279(13) 1.0150(15) 0.0051(6)
C9B C 1.0150(15) 1.2871(7) -0.0051(6)
H12K H 0.9839 0.6794 0.0078
H12O H 0.9873 0.6378 0.3411
H12A H 1.3045 0.9839 -0.0078
H12J H 0.6955 1.0161 0.0078
H12B H 1.0161 1.3206 -0.0078
H13K H 0.9936 0.7310 0.0290
H13O H 0.9357 0.5959 0.3623
H13A H 1.2626 0.9936 -0.0290
H13J H 0.7374 1.0064 0.0290
H13B H 1.0064 1.2690 -0.0290
H14K H 0.9508 0.7068 -0.0032
H14O H 0.9599 0.5773 0.3301
H14A H 1.2440 0.9508 0.0032
H14J H 0.7560 1.0492 -0.0032
H14B H 1.0492 1.2932 0.0032
C10K C 1.0292(6) 0.8010(4) -0.0254(3)
C10O C 0.8657(4) 0.5615(4) 0.3079(3)
C10A C 1.2282(4) 1.0292(6) 0.0254(3)
C10J C 0.7718(4) 0.9708(6) -0.0254(3)
C10B C 0.9708(6) 1.1990(4) 0.0254(3)
O5A O 1.2900(5) 1.0486(8) 0.2380(4)
O5O O 0.9081(6) 0.6233(5) 0.0953(4)
O5K O 1.0486(8) 0.7586(6) -0.2380(4)
O5J O 0.7100(5) 0.9514(8) -0.2380(4)
O5B O 0.9514(8) 1.2414(6) 0.2380(4)
O6A O 1.2658(3) 1.0719(4) 0.1942(2)
O6O O 0.8606(3) 0.5991(3) 0.1391(2)
O6K O 1.0719(4) 0.8061(3) -0.1942(2)
O6J O 0.7342(3) 0.9281(4) -0.1942(2)
O6B O 0.9281(4) 1.1939(3) 0.1942(2)
O7A O 1.14680(19) 1.01604(26) 0.12874(13)
O7O O 0.79743(18) 0.48013(19) 0.20459(13)
O7K O 1.01604(26) 0.86924(18) -0.12874(13)
O7J O 0.85320(19) 0.98396(26) -0.12874(13)
O7B O 0.98396(26) 1.13076(18) 0.12874(13)
O8A O 1.06544(17) 0.93750(25) 0.12805(14)
O8O O 0.79461(19) 0.39877(17) 0.20528(14)
O8K O 0.93750(25) 0.87206(19) -0.12805(14)
O8J O 0.93456(17) 1.06250(25) -0.12805(14)
O8B O 1.06250(25) 1.12794(19) 0.12805(14)
O9K O 1.1290(8) 0.7064(6) -0.1059(4)
O9O O 0.9603(6) 0.7559(5) 0.2274(4)
O9A O 1.4226(5) 1.1290(8) 0.1059(4)
O9J O 0.5774(5) 0.8710(8) -0.1059(4)
O9B O 0.8710(8) 1.2936(6) 0.1059(4)
O10K O 1.1179(4) 0.7682(3) -0.1122(2)
O10O O 0.8985(3) 0.6830(3) 0.2211(2)
O10A O 1.3497(3) 1.1179(4) 0.1122(2)
O10J O 0.6503(3) 0.8821(4) -0.1122(2)
O10B O 0.8821(4) 1.2318(3) 0.1122(2)
O11K O 1.05440(24) 0.83295(18) -0.05451(14)
O11O O 0.83372(18) 0.55478(16) 0.27882(14)
O11A O 1.22145(16) 1.05440(24) 0.05451(14)
O11J O 0.77855(16) 0.94560(24) -0.05451(14)
O11B O 0.94560(24) 1.16705(18) 0.05451(14)
O12K O 1.00292(26) 0.80854(18) -0.00062(13)
O12O O 0.85813(18) 0.52771(19) 0.33271(13)
O12A O 1.19438(19) 1.00292(26) 0.00062(13)
O12J O 0.80562(19) 0.99708(26) -0.00062(13)
O12B O 0.99708(26) 1.19146(18) 0.00062(13)
O13O O 0.7973(4) 0.5725(3) 0.2140(3)
O13A O 1.2392(3) 1.1086(5) 0.1193(3)
O13K O 1.1086(5) 0.8694(4) -0.1193(3)
O13J O 0.7608(3) 0.8914(5) -0.1193(3)
O13B O 0.8914(5) 1.1306(4) 0.1193(3)
O13P O 1.4275(3) 1.2247(5) 0.2140(3)
O13H O 1.2247(5) 0.7973(4) -0.2140(3)
O13G O 0.5725(3) 0.7753(5) -0.2140(3)
O13Q O 0.7753(5) 1.2027(4) 0.2140(3)
O14J O 0.85023(14) 0.92537(20) -0.01132(10)
O14K O 1.07463(20) 0.92486(14) -0.01132(10)
O14A O 1.14977(14) 1.07463(20) 0.01132(10)
O14O O 0.74181(14) 0.48310(14) 0.32201(10)
O14B O 0.92537(20) 1.07514(14) 0.01132(10)
O14D O 0.81644(14) 0.40796(20) 0.34465(10)
O14I O 1.07514(14) 1.14977(14) -0.01132(10)
O15B O 0.96755(20) 1.03238(14) 0.09590(11)
O15A O 1.06483(14) 1.03245(20) 0.09590(11)
O15O O 0.69905(14) 0.39816(14) 0.23743(11)
O15K O 1.03245(20) 0.96762(14) -0.09590(11)
O15J O 0.93517(14) 0.96755(20) -0.09590(11)
O15Q O 0.69912(20) 0.30095(14) 0.23743(11)
O15I O 1.03238(14) 1.06483(14) -0.09590(11)
O16J O 0.89224(14) 0.88234(20) -0.05391(11)
O16B O 0.88234(20) 0.99010(14) 0.05391(11)
O16A O 1.10776(14) 1.11766(20) 0.05391(11)
O16O O 0.65677(14) 0.44109(14) 0.27942(11)
O16K O 1.11766(20) 1.00990(14) -0.05391(11)
O16D O 0.77443(14) 0.45099(20) 0.38724(11)
O16Q O 0.78433(20) 0.34323(14) 0.27942(11)
O16I O 0.99010(14) 1.10776(14) -0.05391(11)
O17K O 0.99019(20) 0.88303(14) -0.05360(11)
O17A O 1.10716(14) 0.99019(20) 0.05360(11)
O17O O 0.78364(14) 0.44049(14) 0.27973(11)
O17J O 0.89284(14) 1.00981(20) -0.05360(11)
O17B O 1.00981(20) 1.11697(14) 0.05360(11)
O18O O 1.0008(6) 0.7541(4) 0.1262(4)
O18A O 1.4208(4) 1.0867(7) 0.2071(4)
O18K O 1.0867(7) 0.6659(6) -0.2071(4)
O18J O 0.5792(4) 0.9133(7) -0.2071(4)
O18B O 0.9133(7) 1.3341(6) 0.2071(4)
O19O O 0.9201(5) 0.8252(4) 0.1973(3)
O19K O 1.2385(6) 0.7466(5) -0.1360(3)
O19A O 1.4919(4) 1.2385(6) 0.1360(3)
O19J O 0.5081(4) 0.7615(6) -0.1360(3)
O19B O 0.7615(6) 1.2534(5) 0.1360(3)
O20O O 0.8506(4) 0.6794(3) 0.0508(3)
O20A O 1.3461(3) 1.1622(5) 0.2825(3)
O20K O 1.1622(5) 0.8161(4) -0.2825(3)
O20J O 0.6539(3) 0.8378(5) -0.2825(3)
O20B O 0.8378(5) 1.1839(4) 0.2825(3)
O21O O 0.9025(7) 0.7069(5) 0.1448(4)
O21A O 1.3736(5) 1.1378(9) 0.1885(4)
O21K O 1.1378(9) 0.7642(7) -0.1885(4)
O21J O 0.6264(5) 0.8622(9) -0.1885(4)
O21B O 0.8622(9) 1.2358(7) 0.1885(4)
O22O O 0.7254(2) 0.55604(17) 0.27569(15)
O22A O 1.22271(17) 1.16401(26) 0.05764(15)
O22K O 1.16401(26) 0.9413(2) -0.05764(15)
O22J O 0.77729(17) 0.83599(26) -0.05764(15)
O22B O 0.83599(26) 1.0587(2) 0.05764(15)
O22P O 1.44396(17) 1.16932(26) 0.27569(15)
O22H O 1.16932(26) 0.7254(2) -0.27569(15)
O22G O 0.55604(17) 0.83068(26) -0.27569(15)
O22Q O 0.83068(26) 1.2746(2) 0.27569(15)
O23O O 0.6890(2) 0.48325(18) 0.20373(13)
O23A O 1.14992(18) 1.12762(27) 0.12960(13)
O23K O 1.12762(27) 0.9777(2) -0.12960(13)
O23J O 0.85008(18) 0.87238(27) -0.12960(13)
O23B O 0.87238(27) 1.0223(2) 0.12960(13)
O23H O 1.20571(27) 0.6890(2) -0.20373(13)
O23P O 1.51675(18) 1.20571(27) 0.20373(13)
O23G O 0.48325(18) 0.79429(27) -0.20373(13)
O23Q O 0.79429(27) 1.3110(2) 0.20373(13)
O24K O 1.0101(5) 0.7631(3) -0.1209(3)
O24O O 0.9036(3) 0.5803(4) 0.2124(3)
O24A O 1.2470(4) 1.0101(5) 0.1209(3)
O24J O 0.7530(4) 0.9899(5) -0.1209(3)
O24B O 0.9899(5) 1.2369(3) 0.1209(3)
Cl1 Cl 1.0000 1.0000 0.0000
loop_
_geom_bond_atom_site_label_1
_geom_bond_atom_site_label_2
_geom_bond_site_symmetry_1
_geom_bond_site_symmetry_2
N1 O1 1_555 1_555
O2 N1 1_555 1_555
O3 N1 1_555 1_555
N2 O4 1_555 1_555
Gd1 O7 1_555 1_555
Cu1 O12 1_555 1_555
Cu2 O8 1_555 1_555
Cu3 N4 1_555 1_555
Cu4 N3 1_555 1_555
Na1 O5 1_555 1_555
Na2 O9 1_555 1_555
N3 H1 1_555 1_555
N4 H2 1_555 1_555
C1 C2 1_555 1_555
C2 N3 1_555 1_555
H3 C2 1_555 1_555
H4 C2 1_555 1_555
C3 H5 1_555 1_555
H6 C3 1_555 1_555
H7 C3 1_555 1_555
C4 N3 1_555 1_555
H8 C4 1_555 1_555
C5 C4 1_555 1_555
C6 C7 1_555 1_555
C7 N4 1_555 1_555
H9 C7 1_555 1_555
H10 C7 1_555 1_555
C8 N4 1_555 1_555
H11 C8 1_555 1_555
C9 C8 1_555 1_555
H12 C9 1_555 1_555
H13 C9 1_555 1_555
H14 C9 1_555 1_555
C10 C8 1_555 1_555
O5 C1 1_555 1_555
O6 Cu4 1_555 1_555
O7 Cu4 1_555 1_555
O8 C5 1_555 1_555
O9 C6 1_555 1_555
O10 Cu3 1_555 1_555
O11 Gd1 1_555 1_555
O12 C10 1_555 1_555
O13 Gd1 1_555 1_555
O14 Gd1 1_555 1_555
O15 Gd1 1_555 1_555
O16 Gd1 1_555 1_555
O17 Gd1 1_555 1_555
O18 Na1 1_555 1_555
O19 Na2 1_555 1_555
O20 Na1 1_555 1_555
O21 Na1 1_555 1_555
O22 Gd1 1_555 1_555
O23 Gd1 1_555 1_555
O24 Cu3 1_555 1_555
O4A N2 1_555 1_555
O4B N2 1_555 1_555
Gd1A O7A 1_555 1_555
Gd1O O7O 1_555 1_555
Gd1K O7K 1_555 1_555
Gd1J O7J 1_555 1_555
Gd1B O7B 1_555 1_555
Cu1K O14 1_555 1_555
Cu1O O12O 1_555 1_555
Cu1A O12A 1_555 1_555
Cu1J O12J 1_555 1_555
Cu1B O12B 1_555 1_555
Cu1I O14A 1_555 1_555
Cu1E O14O 1_555 1_555
Cu2A O15 1_555 1_555
Cu2O O8O 1_555 1_555
Cu2B O8B 1_555 1_555
Cu2K O8K 1_555 1_555
Cu2J O8J 1_555 1_555
Cu2P O15O 1_555 1_555
Cu2I O15K 1_555 1_555
Cu3K N4K 1_555 1_555
Cu3O N4O 1_555 1_555
Cu3A N4A 1_555 1_555
Cu3J N4J 1_555 1_555
Cu3B N4B 1_555 1_555
Cu4A N3A 1_555 1_555
Cu4O N3O 1_555 1_555
Cu4K N3K 1_555 1_555
Cu4J N3J 1_555 1_555
Cu4B N3B 1_555 1_555
Na1O O13 1_555 1_555
Na1A O5A 1_555 1_555
Na1K O5K 1_555 1_555
Na1J O5J 1_555 1_555
Na1B O5B 1_555 1_555
Na1P O13A 1_555 1_555
Na1H O13K 1_555 1_555
Na1G O13J 1_555 1_555
Na1Q O13B 1_555 1_555
Na2O O13 1_555 1_555
Na2K O9K 1_555 1_555
Na2A O9A 1_555 1_555
Na2J O9J 1_555 1_555
Na2B O9B 1_555 1_555
Na2P O13A 1_555 1_555
Na2H O13K 1_555 1_555
Na2G O13J 1_555 1_555
Na2Q O13B 1_555 1_555
N3A H1A 1_555 1_555
N3O H1O 1_555 1_555
N3K H1K 1_555 1_555
N3J H1J 1_555 1_555
N3B H1B 1_555 1_555
N4K H2K 1_555 1_555
N4O H2O 1_555 1_555
N4A H2A 1_555 1_555
N4J H2J 1_555 1_555
N4B H2B 1_555 1_555
C1A C2A 1_555 1_555
C1O C2O 1_555 1_555
C1K C2K 1_555 1_555
C1J C2J 1_555 1_555
C1B C2B 1_555 1_555
C2A N3A 1_555 1_555
C2O N3O 1_555 1_555
C2K N3K 1_555 1_555
C2J N3J 1_555 1_555
C2B N3B 1_555 1_555
H3A C2A 1_555 1_555
H3O C2O 1_555 1_555
H3K C2K 1_555 1_555
H3J C2J 1_555 1_555
H3B C2B 1_555 1_555
H4A C2A 1_555 1_555
H4O C2O 1_555 1_555
H4K C2K 1_555 1_555
H4J C2J 1_555 1_555
H4B C2B 1_555 1_555
C3A H5A 1_555 1_555
C3O H5O 1_555 1_555
C3K H5K 1_555 1_555
C3J H5J 1_555 1_555
C3B H5B 1_555 1_555
H6A C3A 1_555 1_555
H6O C3O 1_555 1_555
H6K C3K 1_555 1_555
H6J C3J 1_555 1_555
H6B C3B 1_555 1_555
H7A C3A 1_555 1_555
H7O C3O 1_555 1_555
H7K C3K 1_555 1_555
H7J C3J 1_555 1_555
H7B C3B 1_555 1_555
C4A N3A 1_555 1_555
C4O N3O 1_555 1_555
C4K N3K 1_555 1_555
C4J N3J 1_555 1_555
C4B N3B 1_555 1_555
H8A C4A 1_555 1_555
H8O C4O 1_555 1_555
H8K C4K 1_555 1_555
H8J C4J 1_555 1_555
H8B C4B 1_555 1_555
C5A C4A 1_555 1_555
C5O C4O 1_555 1_555
C5K C4K 1_555 1_555
C5J C4J 1_555 1_555
C5B C4B 1_555 1_555
C6K C7K 1_555 1_555
C6O C7O 1_555 1_555
C6A C7A 1_555 1_555
C6J C7J 1_555 1_555
C6B C7B 1_555 1_555
C7K N4K 1_555 1_555
C7O N4O 1_555 1_555
C7A N4A 1_555 1_555
C7J N4J 1_555 1_555
C7B N4B 1_555 1_555
H9K C7K 1_555 1_555
H9O C7O 1_555 1_555
H9A C7A 1_555 1_555
H9J C7J 1_555 1_555
H9B C7B 1_555 1_555
H10K C7K 1_555 1_555
H10O C7O 1_555 1_555
H10A C7A 1_555 1_555
H10J C7J 1_555 1_555
H10B C7B 1_555 1_555
C8K N4K 1_555 1_555
C8O N4O 1_555 1_555
C8A N4A 1_555 1_555
C8J N4J 1_555 1_555
C8B N4B 1_555 1_555
H11K C8K 1_555 1_555
H11O C8O 1_555 1_555
H11A C8A 1_555 1_555
H11J C8J 1_555 1_555
H11B C8B 1_555 1_555
C9K C8K 1_555 1_555
C9O C8O 1_555 1_555
C9A C8A 1_555 1_555
C9J C8J 1_555 1_555
C9B C8B 1_555 1_555
H12K C9K 1_555 1_555
H12O C9O 1_555 1_555
H12A C9A 1_555 1_555
H12J C9J 1_555 1_555
H12B C9B 1_555 1_555
H13K C9K 1_555 1_555
H13O C9O 1_555 1_555
H13A C9A 1_555 1_555
H13J C9J 1_555 1_555
H13B C9B 1_555 1_555
H14K C9K 1_555 1_555
H14O C9O 1_555 1_555
H14A C9A 1_555 1_555
H14J C9J 1_555 1_555
H14B C9B 1_555 1_555
C10K C8K 1_555 1_555
C10O C8O 1_555 1_555
C10A C8A 1_555 1_555
C10J C8J 1_555 1_555
C10B C8B 1_555 1_555
O5A C1A 1_555 1_555
O5O Na1O 1_555 1_555
O5K C1K 1_555 1_555
O5J C1J 1_555 1_555
O5B C1B 1_555 1_555
O6A Cu4A 1_555 1_555
O6O Cu4O 1_555 1_555
O6K Cu4K 1_555 1_555
O6J Cu4J 1_555 1_555
O6B Cu4B 1_555 1_555
O7A Cu4A 1_555 1_555
O7O Cu4O 1_555 1_555
O7K Cu4K 1_555 1_555
O7J Cu4J 1_555 1_555
O7B Cu4B 1_555 1_555
O8A Cu2A 1_555 1_555
O8O C5O 1_555 1_555
O8K C5K 1_555 1_555
O8J C5J 1_555 1_555
O8B C5B 1_555 1_555
O9K C6K 1_555 1_555
O9O Na2O 1_555 1_555
O9A C6A 1_555 1_555
O9J C6J 1_555 1_555
O9B C6B 1_555 1_555
O10K Cu3K 1_555 1_555
O10O Cu3O 1_555 1_555
O10A Cu3A 1_555 1_555
O10J Cu3J 1_555 1_555
O10B Cu3B 1_555 1_555
O11K Gd1K 1_555 1_555
O11O Gd1O 1_555 1_555
O11A Gd1A 1_555 1_555
O11J Gd1J 1_555 1_555
O11B Gd1B 1_555 1_555
O12K Cu1K 1_555 1_555
O12O C10O 1_555 1_555
O12A C10A 1_555 1_555
O12J C10J 1_555 1_555
O12B C10B 1_555 1_555
O13O Na1 1_555 1_555
O13A Gd1A 1_555 1_555
O13K Gd1K 1_555 1_555
O13J Gd1J 1_555 1_555
O13B Gd1B 1_555 1_555
O13P Na1A 1_555 1_555
O13H Na1K 1_555 1_555
O13G Na1J 1_555 1_555
O13Q Na1B 1_555 1_555
O14J Cu1 1_555 1_555
O14K Gd1K 1_555 1_555
O14A Gd1A 1_555 1_555
O14O Gd1O 1_555 1_555
O14B Gd1B 1_555 1_555
O14D Cu1O 1_555 1_555
O14I Cu1B 1_555 1_555
O15B Cu2 1_555 1_555
O15A Gd1A 1_555 1_555
O15O Gd1O 1_555 1_555
O15K Gd1K 1_555 1_555
O15J Gd1J 1_555 1_555
O15Q Cu2O 1_555 1_555
O15I Cu2J 1_555 1_555
O16J Cu1 1_555 1_555
O16B Cu2 1_555 1_555
O16A Gd1A 1_555 1_555
O16O Gd1O 1_555 1_555
O16K Gd1K 1_555 1_555
O16D Cu1O 1_555 1_555
O16Q Cu2O 1_555 1_555
O16I Cu1B 1_555 1_555
O17K Gd1K 1_555 1_555
O17A Gd1A 1_555 1_555
O17O Gd1O 1_555 1_555
O17J Gd1J 1_555 1_555
O17B Gd1B 1_555 1_555
O18O Na1O 1_555 1_555
O18A Na1A 1_555 1_555
O18K Na1K 1_555 1_555
O18J Na1J 1_555 1_555
O18B Na1B 1_555 1_555
O19O Na2O 1_555 1_555
O19K Na2K 1_555 1_555
O19A Na2A 1_555 1_555
O19J Na2J 1_555 1_555
O19B Na2B 1_555 1_555
O20O Na1O 1_555 1_555
O20A Na1A 1_555 1_555
O20K Na1K 1_555 1_555
O20J Na1J 1_555 1_555
O20B Na1B 1_555 1_555
O21O Na1O 1_555 1_555
O21A Na1A 1_555 1_555
O21K Na1K 1_555 1_555
O21J Na1J 1_555 1_555
O21B Na1B 1_555 1_555
O22O Na1 1_555 1_555
O22A Gd1A 1_555 1_555
O22K Gd1K 1_555 1_555
O22J Gd1J 1_555 1_555
O22B Gd1B 1_555 1_555
O22P Na1A 1_555 1_555
O22H Na1K 1_555 1_555
O22G Na1J 1_555 1_555
O22Q Na1B 1_555 1_555
O23O Na2 1_555 1_555
O23A Gd1A 1_555 1_555
O23K Gd1K 1_555 1_555
O23J Gd1J 1_555 1_555
O23B Gd1B 1_555 1_555
O23H Na2K 1_555 1_555
O23P Na2A 1_555 1_555
O23G Na2J 1_555 1_555
O23Q Na2B 1_555 1_555
O24K Cu3K 1_555 1_555
O24O Cu3O 1_555 1_555
O24A Cu3A 1_555 1_555
O24J Cu3J 1_555 1_555
O24B Cu3B 1_555 1_555
Cu1 O14 1_555 1_555
Cu1 O17 1_555 1_555
Cu2 O15 1_555 1_555
Cu2 O17 1_555 1_555
Cu3 O11 1_555 1_555
Cu3 O13 1_555 1_555
Cu4 O13 1_555 1_555
Cu4 O24 1_555 1_555
Na2 O18 1_555 1_555
Na2 O21 1_555 1_555
Na2 O13O 1_555 1_555
C1 O6 1_555 1_555
C3 C4 1_555 1_555
C5 O7 1_555 1_555
C6 O10 1_555 1_555
C10 O11 1_555 1_555
O16 Cu1K 1_555 1_555
O16 Cu2A 1_555 1_555
O22 Na1O 1_555 1_555
O23 Na2O 1_555 1_555
Gd1O O13O 1_555 1_555
Gd1O O22O 1_555 1_555
Gd1O O23O 1_555 1_555
Gd1J O14J 1_555 1_555
Gd1J O16J 1_555 1_555
Gd1B O15B 1_555 1_555
Gd1B O16B 1_555 1_555
Cu1K O14K 1_555 1_555
Cu1K O17K 1_555 1_555
Cu1O O14O 1_555 1_555
Cu1O O17O 1_555 1_555
Cu1A O14K 1_555 1_555
Cu1A O14A 1_555 1_555
Cu1A O16K 1_555 1_555
Cu1A O17A 1_555 1_555
Cu1J O14J 1_555 1_555
Cu1J O14B 1_555 1_555
Cu1J O16B 1_555 1_555
Cu1J O17J 1_555 1_555
Cu1B O14B 1_555 1_555
Cu1B O17B 1_555 1_555
Cu1I O14I 1_555 1_555
Cu1I O16A 1_555 1_555
Cu1E O16O 1_555 1_555
Cu2A O15A 1_555 1_555
Cu2A O17A 1_555 1_555
Cu2O O15O 1_555 1_555
Cu2O O17O 1_555 1_555
Cu2B O15B 1_555 1_555
Cu2B O15A 1_555 1_555
Cu2B O16A 1_555 1_555
Cu2B O17B 1_555 1_555
Cu2K O15K 1_555 1_555
Cu2K O15J 1_555 1_555
Cu2K O16J 1_555 1_555
Cu2K O17K 1_555 1_555
Cu2J O15J 1_555 1_555
Cu2J O16I 1_555 1_555
Cu2J O17J 1_555 1_555
Cu2P O16O 1_555 1_555
Cu2I O15I 1_555 1_555
Cu2I O16K 1_555 1_555
Cu3K O11K 1_555 1_555
Cu3K O13K 1_555 1_555
Cu3O O11O 1_555 1_555
Cu3O O13O 1_555 1_555
Cu3A O11A 1_555 1_555
Cu3A O13A 1_555 1_555
Cu3J O11J 1_555 1_555
Cu3J O13J 1_555 1_555
Cu3B O11B 1_555 1_555
Cu3B O13B 1_555 1_555
Cu4A O13A 1_555 1_555
Cu4A O24A 1_555 1_555
Cu4O O13O 1_555 1_555
Cu4O O24O 1_555 1_555
Cu4K O13K 1_555 1_555
Cu4K O24K 1_555 1_555
Cu4J O13J 1_555 1_555
Cu4J O24J 1_555 1_555
Cu4B O13B 1_555 1_555
Cu4B O24B 1_555 1_555
Na1P O22A 1_555 1_555
Na1H O22K 1_555 1_555
Na1G O22J 1_555 1_555
Na1Q O22B 1_555 1_555
Na2O O18O 1_555 1_555
Na2O O21O 1_555 1_555
Na2K O13H 1_555 1_555
Na2K O18K 1_555 1_555
Na2K O21K 1_555 1_555
Na2A O13P 1_555 1_555
Na2A O18A 1_555 1_555
Na2A O21A 1_555 1_555
Na2J O13G 1_555 1_555
Na2J O18J 1_555 1_555
Na2J O21J 1_555 1_555
Na2B O13Q 1_555 1_555
Na2B O18B 1_555 1_555
Na2B O21B 1_555 1_555
Na2P O23A 1_555 1_555
Na2H O23K 1_555 1_555
Na2G O23J 1_555 1_555
Na2Q O23B 1_555 1_555
C1A O6A 1_555 1_555
C1O O5O 1_555 1_555
C1O O6O 1_555 1_555
C1K O6K 1_555 1_555
C1J O6J 1_555 1_555
C1B O6B 1_555 1_555
C3A C4A 1_555 1_555
C3O C4O 1_555 1_555
C3K C4K 1_555 1_555
C3J C4J 1_555 1_555
C3B C4B 1_555 1_555
C5A O7A 1_555 1_555
C5A O8A 1_555 1_555
C5O O7O 1_555 1_555
C5K O7K 1_555 1_555
C5J O7J 1_555 1_555
C5B O7B 1_555 1_555
C6K O10K 1_555 1_555
C6O O9O 1_555 1_555
C6O O10O 1_555 1_555
C6A O10A 1_555 1_555
C6J O10J 1_555 1_555
C6B O10B 1_555 1_555
C10K O11K 1_555 1_555
C10K O12K 1_555 1_555
C10O O11O 1_555 1_555
C10A O11A 1_555 1_555
C10J O11J 1_555 1_555
C10B O11B 1_555 1_555

#END
