
#######################################################################
#
#                 Cambridge Crystallographic Data Centre
#                                CCDC 
#
#######################################################################
#
# If this CIF has been generated from an entry in the Cambridge 
# Structural Database, then it will include bibliographic, chemical, 
# crystal, experimental, refinement or atomic coordinate data resulting 
# from the CCDC's data processing and validation procedures.
#
#######################################################################

data_OZEPIT
_symmetry_cell_setting           monoclinic
_symmetry_space_group_name_H-M   'C 2'
_symmetry_Int_Tables_number      5
_space_group_name_Hall           'C 2y'
loop_
_symmetry_equiv_pos_site_id
_symmetry_equiv_pos_as_xyz
1 x,y,z
2 -x,y,-z
3 1/2+x,1/2+y,z
4 1/2-x,1/2+y,-z
_cell_length_a                   28.086(8)
_cell_length_b                   7.583(2)
_cell_length_c                   12.109(3)
_cell_angle_alpha                90
_cell_angle_beta                 105.461(5)
_cell_angle_gamma                90
_cell_volume                     2485.6
loop_
_atom_site_label
_atom_site_type_symbol
_atom_site_fract_x
_atom_site_fract_y
_atom_site_fract_z
C1 C 0.9551(4) 0.4594(12) 0.8164(8)
C2 C 0.9218(3) 0.3832(13) 0.7059(7)
C3 C 0.8823(4) 0.4815(14) 0.6458(8)
H1 H 0.8761 0.5900 0.6749
C4 C 0.8516(3) 0.4230(18) 0.5431(8)
H2 H 0.8256 0.4929 0.5025
C5 C 0.8601(3) 0.2578(13) 0.5012(7)
C6 C 0.8998(3) 0.1612(17) 0.5624(7)
H3 H 0.9061 0.0518 0.5344
C7 C 0.9310(4) 0.2217(11) 0.6650(8)
H4 H 0.9577 0.1538 0.7050
C8 C 0.8273(3) 0.1786(18) 0.3902(7)
C9 C 0.7959(4) 0.319(2) 0.3106(10)
C10 C 0.7937(4) 0.044(2) 0.4314(11)
C11 C 0.8591(3) 0.0839(14) 0.3187(8)
C12 C 0.8987(3) 0.1851(16) 0.3025(8)
H5 H 0.9050 0.2972 0.3341
C13 C 0.9285(4) 0.1129(11) 0.2373(8)
H6 H 0.9543 0.1794 0.2240
C14 C 0.9201(3) -0.0547(14) 0.1929(7)
C15 C 0.8814(4) -0.1481(14) 0.2108(9)
H7 H 0.8757 -0.2612 0.1805
C16 C 0.8505(4) -0.0824(18) 0.2716(8)
H8 H 0.8240 -0.1492 0.2808
C17 C 0.9534(4) -0.1333(14) 0.1256(8)
C18 C 0.8929(4) 0.0291(17) -0.1213(10)
H9 H 0.9107 -0.0660 -0.1381
C19 C 0.8407(5) 0.035(2) -0.1663(14)
H10 H 0.8244 -0.0524 -0.2162
C20 C 0.8151(4) 0.169(2) -0.1357(13)
H11 H 0.7808 0.1708 -0.1604
C21 C 0.8401(5) 0.3039(18) -0.0674(11)
C22 C 0.8900(4) 0.2913(14) -0.0297(8)
H12 H 0.9069 0.3809 0.0173
C23 C 0.8132(6) 0.457(2) -0.0297(14)
H13 H 0.8264 0.5664 -0.0487
H14 H 0.8176 0.4513 0.0516
H15 H 0.7786 0.4505 -0.0682
F1 F 0.7744(2) 0.2474(10) 0.2063(5)
F2 F 0.8224(3) 0.4528(10) 0.2936(5)
F3 F 0.7594(2) 0.3810(13) 0.3506(5)
F4 F 0.7570(2) -0.0152(10) 0.3405(6)
F5 F 0.7706(2) 0.1221(10) 0.5007(6)
F6 F 0.8179(3) -0.0912(11) 0.4841(5)
Mn1 Mn 1.0000 0.1623(3) 0.0000
Mn2 Mn 1.0000 0.6702(3) 1.0000
N1 N 0.9163(3) 0.1594(15) -0.0553(6)
O1 O 0.9918(3) 0.3658(9) 0.8717(5)
O2 O 0.9457(3) 0.6039(10) 0.8481(6)
O3 O 0.9896(3) -0.0476(10) 0.1150(6)
O4 O 0.9424(3) -0.2829(10) 0.0835(6)
C1A C 1.0449(4) 0.4594(12) 0.1836(8)
C2A C 1.0782(3) 0.3832(13) 0.2941(7)
C3A C 1.1177(4) 0.4815(14) 0.3542(8)
H1A H 1.1239 0.5900 0.3251
C4A C 1.1484(3) 0.4230(18) 0.4569(8)
H2A H 1.1744 0.4929 0.4975
C5A C 1.1399(3) 0.2578(13) 0.4988(7)
C6A C 1.1002(3) 0.1612(17) 0.4376(7)
H3A H 1.0939 0.0518 0.4656
C7A C 1.0690(4) 0.2217(11) 0.3350(8)
H4A H 1.0423 0.1538 0.2950
C8A C 1.1727(3) 0.1786(18) 0.6098(7)
C9A C 1.2041(4) 0.319(2) 0.6894(10)
C10A C 1.2063(4) 0.044(2) 0.5686(11)
C11A C 1.1409(3) 0.0839(14) 0.6813(8)
C12A C 1.1013(3) 0.1851(16) 0.6975(8)
H5A H 1.0950 0.2972 0.6659
C13A C 1.0715(4) 0.1129(11) 0.7627(8)
H6A H 1.0457 0.1794 0.7760
C14A C 1.0799(3) -0.0547(14) 0.8071(7)
C15A C 1.1186(4) -0.1481(14) 0.7892(9)
H7A H 1.1243 -0.2612 0.8195
C16A C 1.1495(4) -0.0824(18) 0.7284(8)
H8A H 1.1760 -0.1492 0.7192
C17A C 1.0466(4) -0.1333(14) 0.8744(8)
C18A C 1.1071(4) 0.0291(17) 0.1213(10)
H9A H 1.0893 -0.0660 0.1381
C19A C 1.1593(5) 0.035(2) 0.1663(14)
H10A H 1.1756 -0.0524 0.2162
C20A C 1.1849(4) 0.169(2) 0.1357(13)
H11A H 1.2192 0.1708 0.1604
C21A C 1.1599(5) 0.3039(18) 0.0674(11)
C22A C 1.1100(4) 0.2913(14) 0.0297(8)
H12A H 1.0931 0.3809 -0.0173
C23A C 1.1868(6) 0.457(2) 0.0297(14)
H13A H 1.1736 0.5664 0.0487
H14A H 1.1824 0.4513 -0.0516
H15A H 1.2214 0.4505 0.0682
F1A F 1.2256(2) 0.2474(10) 0.7937(5)
F2A F 1.1776(3) 0.4528(10) 0.7064(5)
F3A F 1.2406(2) 0.3810(13) 0.6494(5)
F4A F 1.2430(2) -0.0152(10) 0.6595(6)
F5A F 1.2294(2) 0.1221(10) 0.4993(6)
F6A F 1.1821(3) -0.0912(11) 0.5159(5)
Mn1_2 Mn 1.0000 0.1623(3) 1.0000
Mn2_2 Mn 1.0000 -0.3298(3) 0.0000
Mn2_3 Mn 1.0000 0.6702(3) 0.0000
Mn2_4 Mn 1.0000 -0.3298(3) 1.0000
N1A N 1.0837(3) 0.1594(15) 0.0553(6)
O1A O 1.0082(3) 0.3658(9) 0.1283(5)
O1_2 O 0.9918(3) 0.3658(9) -0.1283(5)
O2A O 1.0543(3) 0.6039(10) 0.1519(6)
O2A_2 O 1.0543(3) 0.6039(10) 1.1519(6)
O3A O 1.0104(3) -0.0476(10) 0.8850(6)
O3A_2 O 1.0104(3) -0.0476(10) -0.1150(6)
O3_2 O 0.9896(3) 0.9524(10) 1.1150(6)
O3A_3 O 1.0104(3) 0.9524(10) 0.8850(6)
O4A O 1.0576(3) -0.2829(10) 0.9165(6)
O4_2 O 0.9424(3) 0.7171(10) 1.0835(6)
O4A_2 O 1.0576(3) 0.7171(10) 0.9165(6)
O5 O 0.5000 0.1037(17) 0.5000
H17 H 0.4894 0.1227 0.3945
H17A H 0.5106 0.1227 0.6055
H16? H 0.5000 -0.0346 0.5000
loop_
_geom_bond_atom_site_label_1
_geom_bond_atom_site_label_2
_geom_bond_site_symmetry_1
_geom_bond_site_symmetry_2
C1 C2 1_555 1_555
C2 C3 1_555 1_555
C3 H1 1_555 1_555
C4 C3 1_555 1_555
H2 C4 1_555 1_555
C5 C4 1_555 1_555
C6 C5 1_555 1_555
H3 C6 1_555 1_555
C7 C2 1_555 1_555
H4 C7 1_555 1_555
C8 C5 1_555 1_555
C9 C8 1_555 1_555
C10 C8 1_555 1_555
C11 C8 1_555 1_555
C12 C11 1_555 1_555
H5 C12 1_555 1_555
C13 C12 1_555 1_555
H6 C13 1_555 1_555
C14 C13 1_555 1_555
C15 C14 1_555 1_555
H7 C15 1_555 1_555
C16 C11 1_555 1_555
H8 C16 1_555 1_555
C17 C14 1_555 1_555
C18 H9 1_555 1_555
C19 C18 1_555 1_555
H10 C19 1_555 1_555
C20 C19 1_555 1_555
H11 C20 1_555 1_555
C21 C20 1_555 1_555
C22 C21 1_555 1_555
H12 C22 1_555 1_555
C23 C21 1_555 1_555
H13 C23 1_555 1_555
H14 C23 1_555 1_555
H15 C23 1_555 1_555
F1 C9 1_555 1_555
F2 C9 1_555 1_555
F3 C9 1_555 1_555
F4 C10 1_555 1_555
F5 C10 1_555 1_555
F6 C10 1_555 1_555
Mn1 N1 1_555 1_555
Mn2 O2 1_555 1_555
N1 C18 1_555 1_555
O1 C1 1_555 1_555
O2 C1 1_555 1_555
O3 C17 1_555 1_555
O4 C17 1_555 1_555
O5 H17 1_555 1_555
C1A C2A 1_555 1_555
C2A C3A 1_555 1_555
C3A H1A 1_555 1_555
C4A C3A 1_555 1_555
H2A C4A 1_555 1_555
C5A C4A 1_555 1_555
C6A C5A 1_555 1_555
H3A C6A 1_555 1_555
C7A C2A 1_555 1_555
H4A C7A 1_555 1_555
C8A C5A 1_555 1_555
C9A C8A 1_555 1_555
C10A C8A 1_555 1_555
C11A C8A 1_555 1_555
C12A C11A 1_555 1_555
H5A C12A 1_555 1_555
C13A C12A 1_555 1_555
H6A C13A 1_555 1_555
C14A C13A 1_555 1_555
C15A C14A 1_555 1_555
H7A C15A 1_555 1_555
C16A C11A 1_555 1_555
H8A C16A 1_555 1_555
C17A C14A 1_555 1_555
C18A H9A 1_555 1_555
C19A C18A 1_555 1_555
H10A C19A 1_555 1_555
C20A C19A 1_555 1_555
H11A C20A 1_555 1_555
C21A C20A 1_555 1_555
C22A C21A 1_555 1_555
H12A C22A 1_555 1_555
C23A C21A 1_555 1_555
H13A C23A 1_555 1_555
H14A C23A 1_555 1_555
H15A C23A 1_555 1_555
F1A C9A 1_555 1_555
F2A C9A 1_555 1_555
F3A C9A 1_555 1_555
F4A C10A 1_555 1_555
F5A C10A 1_555 1_555
F6A C10A 1_555 1_555
Mn1_2 O1 1_555 1_555
Mn2_2 O3 1_555 1_555
Mn2_3 O2A 1_555 1_555
Mn2_4 O3A 1_555 1_555
N1A Mn1 1_555 1_555
O1A Mn1 1_555 1_555
O1_2 Mn1 1_555 1_555
O2A C1A 1_555 1_555
O2A_2 Mn2 1_555 1_555
O3A C17A 1_555 1_555
O3A_2 Mn1 1_555 1_555
O3_2 Mn2 1_555 1_555
O3A_3 Mn2 1_555 1_555
O4A C17A 1_555 1_555
O4_2 Mn2 1_555 1_555
O4A_2 Mn2 1_555 1_555
H17A O5 1_555 1_555
C6 C7 1_555 1_555
C15 C16 1_555 1_555
C22 N1 1_555 1_555
Mn1 O3 1_555 1_555
O4 Mn2_2 1_555 1_555
C1A O1A 1_555 1_555
C6A C7A 1_555 1_555
C15A C16A 1_555 1_555
C18A N1A 1_555 1_555
C22A N1A 1_555 1_555
Mn1_2 O3A 1_555 1_555
Mn2_2 O3A_2 1_555 1_555
Mn2_4 O4A 1_555 1_555

#END
