
#######################################################################
#
#                 Cambridge Crystallographic Data Centre
#                                CCDC 
#
#######################################################################
#
# If this CIF has been generated from an entry in the Cambridge 
# Structural Database, then it will include bibliographic, chemical, 
# crystal, experimental, refinement or atomic coordinate data resulting 
# from the CCDC's data processing and validation procedures.
#
#######################################################################

data_OZEQOA
_symmetry_cell_setting           monoclinic
_symmetry_space_group_name_H-M   'P 21/c'
_symmetry_Int_Tables_number      14
_space_group_name_Hall           '-P 2ybc'
loop_
_symmetry_equiv_pos_site_id
_symmetry_equiv_pos_as_xyz
1 x,y,z
2 -x,1/2+y,1/2-z
3 -x,-y,-z
4 x,1/2-y,1/2+z
_cell_length_a                   18.9033(6)
_cell_length_b                   13.7500(7)
_cell_length_c                   14.9602(5)
_cell_angle_alpha                90
_cell_angle_beta                 90.290(2)
_cell_angle_gamma                90
_cell_volume                     3888.41
loop_
_atom_site_label
_atom_site_type_symbol
_atom_site_fract_x
_atom_site_fract_y
_atom_site_fract_z
Zn1 Zn 0.279528(16) 0.22260(3) 0.83987(2)
Fe1 Fe 0.193012(19) 0.36955(3) 0.99292(2)
O1 O 0.28106(9) 0.31134(14) 0.95469(11)
O2 O 0.12486(10) 0.26405(15) 0.97760(12)
O3 O 0.17811(10) 0.17121(15) 0.87573(12)
O4 O 0.17139(9) 0.42591(15) 0.87290(11)
O5 O 0.23082(10) 0.33752(15) 0.77226(12)
O6 O 0.21926(9) 0.33379(14) 1.12025(12)
O7 O 0.27973(10) 0.37935(15) 1.24201(12)
N1 N 0.24878(11) 0.50267(17) 1.03400(14)
N2 N 0.11274(11) 0.46407(18) 1.04432(14)
N3 N 0.35469(12) 0.11715(18) 0.91533(15)
N4 N 0.37905(12) 0.28008(19) 0.80200(15)
C1 C 0.26082(14) 0.4970(2) 1.13197(17)
H1 H 0.2263 0.5396 1.1625
H2 H 0.3089 0.5215 1.1460
C2 C 0.25359(14) 0.3948(2) 1.16752(17)
C3 C 0.20130(14) 0.5843(2) 1.01112(18)
H3 H 0.1992 0.5933 0.9455
H4 H 0.2188 0.6453 1.0386
C4 C 0.12881(14) 0.5592(2) 1.04689(17)
C5 C 0.08311(15) 0.6271(2) 1.08338(18)
H5 H 0.0953 0.6941 1.0854
C6 C 0.01881(15) 0.5945(2) 1.11708(18)
H6 H -0.0136 0.6394 1.1423
C7 C 0.00237(15) 0.4972(2) 1.11370(18)
H7 H -0.0415 0.4743 1.1362
C8 C 0.05052(14) 0.4329(2) 1.07707(17)
H8 H 0.0395 0.3656 1.0750
C9 C 0.31805(13) 0.5092(2) 0.98586(18)
H9 H 0.3415 0.5715 1.0007
H10 H 0.3096 0.5076 0.9205
C10 C 0.36551(13) 0.4256(2) 1.01232(17)
C11 C 0.43033(14) 0.4411(2) 1.05429(18)
H11 H 0.4452 0.5060 1.0655
C12 C 0.47408(14) 0.3648(2) 1.08044(18)
C13 C 0.54384(15) 0.3819(3) 1.1270(2)
H12 H 0.5379 0.3736 1.1916
H13 H 0.5602 0.4481 1.1145
H14 H 0.5788 0.3351 1.1051
C14 C 0.45092(15) 0.2707(2) 1.06392(18)
H15 H 0.4801 0.2176 1.0813
C15 C 0.38631(14) 0.2516(2) 1.02266(17)
C16 C 0.34409(13) 0.3299(2) 0.99639(16)
C17 C 0.36017(15) 0.1493(2) 1.01026(18)
H16 H 0.3925 0.1046 1.0424
H17 H 0.3130 0.1436 1.0381
C18 C 0.12616(15) 0.1952(2) 0.92087(18)
C19 C 0.05809(15) 0.1375(2) 0.91070(19)
H18 H 0.0186 0.1764 0.9352
H19 H 0.0620 0.0774 0.9468
C20 C 0.04010(16) 0.1094(2) 0.81352(19)
H20 H 0.0808 0.0740 0.7877
H21 H -0.0009 0.0646 0.8137
C21 C 0.02298(15) 0.1952(2) 0.75497(19)
C22 C -0.04659(16) 0.2203(2) 0.7333(2)
H22 H -0.0847 0.1829 0.7561
C23 C -0.06006(16) 0.2997(3) 0.6785(2)
H23 H -0.1074 0.3153 0.6622
C24 C -0.00468(16) 0.3565(2) 0.6474(2)
H24 H -0.0146 0.4113 0.6107
C25 C 0.06524(14) 0.3342(2) 0.66929(18)
C26 C 0.07773(15) 0.2521(2) 0.72100(18)
H25 H 0.1252 0.2340 0.7337
C27 C 0.12679(15) 0.3980(2) 0.64144(18)
H26 H 0.1114 0.4404 0.5915
H27 H 0.1655 0.3562 0.6193
C28 C 0.15502(15) 0.4616(2) 0.71748(17)
H28 H 0.1907 0.5071 0.6933
H29 H 0.1157 0.5007 0.7419
C29 C 0.18861(14) 0.4025(2) 0.79310(18)
C30 C 0.33505(17) 0.0102(2) 0.9104(2)
H30 H 0.3301 -0.0060 0.8455
C31 C 0.39111(18) -0.0597(3) 0.9490(2)
H31 H 0.4374 -0.0444 0.9234
H32 H 0.3783 -0.1268 0.9341
H33 H 0.3933 -0.0523 1.0141
C32 C 0.26464(19) -0.0123(3) 0.9531(3)
H34 H 0.2686 -0.0042 1.0180
H35 H 0.2511 -0.0795 0.9393
H36 H 0.2286 0.0322 0.9296
C33 C 0.42300(15) 0.1312(2) 0.8693(2)
H37 H 0.4259 0.0837 0.8197
H38 H 0.4616 0.1159 0.9120
C34 C 0.43567(15) 0.2308(2) 0.83197(19)
C35 C 0.50405(16) 0.2675(3) 0.8219(2)
H39 H 0.5436 0.2326 0.8445
C36 C 0.51332(18) 0.3552(3) 0.7784(2)
H40 H 0.5594 0.3810 0.7704
C37 C 0.45506(17) 0.4045(3) 0.7470(2)
H41 H 0.4604 0.4646 0.7163
C38 C 0.38842(16) 0.3656(2) 0.76070(19)
H42 H 0.3481 0.4005 0.7402
Zn1C Zn 0.279528(16) 0.27740(3) 1.33987(2)
O7C O 0.27973(10) 0.12065(15) 0.74201(12)
P1 P 0.27968(5) 0.71624(7) 0.71613(6)
F1 F 0.24138(13) 0.65389(17) 0.79109(15)
F2 F 0.31779(10) 0.77929(16) 0.63987(15)
F3 F 0.33183(12) 0.76126(19) 0.78798(16)
F4 F 0.22585(11) 0.80320(17) 0.73268(17)
F5 F 0.22742(12) 0.6738(2) 0.64248(15)
F6 F 0.33378(14) 0.63029(17) 0.69807(16)
loop_
_geom_bond_atom_site_label_1
_geom_bond_atom_site_label_2
_geom_bond_site_symmetry_1
_geom_bond_site_symmetry_2
Zn1 O1 1_555 1_555
Fe1 O1 1_555 1_555
P1 F1 1_555 1_555
F2 P1 1_555 1_555
F3 P1 1_555 1_555
F4 P1 1_555 1_555
F5 P1 1_555 1_555
F6 P1 1_555 1_555
O1 C16 1_555 1_555
O2 Fe1 1_555 1_555
O3 Zn1 1_555 1_555
O4 Fe1 1_555 1_555
O5 Zn1 1_555 1_555
O6 Fe1 1_555 1_555
O7 C2 1_555 1_555
N1 Fe1 1_555 1_555
N2 Fe1 1_555 1_555
N3 Zn1 1_555 1_555
N4 Zn1 1_555 1_555
C1 N1 1_555 1_555
H1 C1 1_555 1_555
H2 C1 1_555 1_555
C2 O6 1_555 1_555
C3 N1 1_555 1_555
H3 C3 1_555 1_555
H4 C3 1_555 1_555
C4 N2 1_555 1_555
C5 C4 1_555 1_555
H5 C5 1_555 1_555
C6 C5 1_555 1_555
H6 C6 1_555 1_555
C7 C6 1_555 1_555
H7 C7 1_555 1_555
C8 N2 1_555 1_555
H8 C8 1_555 1_555
C9 N1 1_555 1_555
H9 C9 1_555 1_555
H10 C9 1_555 1_555
C10 C9 1_555 1_555
C11 C10 1_555 1_555
H11 C11 1_555 1_555
C12 C11 1_555 1_555
C13 C12 1_555 1_555
H12 C13 1_555 1_555
H13 C13 1_555 1_555
H14 C13 1_555 1_555
C14 C12 1_555 1_555
H15 C14 1_555 1_555
C15 C14 1_555 1_555
C16 C10 1_555 1_555
C17 N3 1_555 1_555
H16 C17 1_555 1_555
H17 C17 1_555 1_555
C18 O2 1_555 1_555
C19 C18 1_555 1_555
H18 C19 1_555 1_555
H19 C19 1_555 1_555
C20 C19 1_555 1_555
H20 C20 1_555 1_555
H21 C20 1_555 1_555
C21 C20 1_555 1_555
C22 C21 1_555 1_555
H22 C22 1_555 1_555
C23 C22 1_555 1_555
H23 C23 1_555 1_555
C24 C23 1_555 1_555
H24 C24 1_555 1_555
C25 C24 1_555 1_555
C26 C21 1_555 1_555
H25 C26 1_555 1_555
C27 C25 1_555 1_555
H26 C27 1_555 1_555
H27 C27 1_555 1_555
C28 C27 1_555 1_555
H28 C28 1_555 1_555
H29 C28 1_555 1_555
C29 O4 1_555 1_555
C30 N3 1_555 1_555
H30 C30 1_555 1_555
C31 C30 1_555 1_555
H31 C31 1_555 1_555
H32 C31 1_555 1_555
H33 C31 1_555 1_555
C32 C30 1_555 1_555
H34 C32 1_555 1_555
H35 C32 1_555 1_555
H36 C32 1_555 1_555
C33 N3 1_555 1_555
H37 C33 1_555 1_555
H38 C33 1_555 1_555
C34 N4 1_555 1_555
C35 C34 1_555 1_555
H39 C35 1_555 1_555
C36 C35 1_555 1_555
H40 C36 1_555 1_555
C37 C36 1_555 1_555
H41 C37 1_555 1_555
C38 N4 1_555 1_555
H42 C38 1_555 1_555
Zn1C O7 1_555 1_555
O7C Zn1 1_555 1_555
O3 C18 1_555 1_555
O5 C29 1_555 1_555
C1 C2 1_555 1_555
C3 C4 1_555 1_555
C7 C8 1_555 1_555
C15 C16 1_555 1_555
C15 C17 1_555 1_555
C25 C26 1_555 1_555
C28 C29 1_555 1_555
C33 C34 1_555 1_555
C37 C38 1_555 1_555

#END
