
#######################################################################
#
#                 Cambridge Crystallographic Data Centre
#                                CCDC 
#
#######################################################################
#
# If this CIF has been generated from an entry in the Cambridge 
# Structural Database, then it will include bibliographic, chemical, 
# crystal, experimental, refinement or atomic coordinate data resulting 
# from the CCDC's data processing and validation procedures.
#
#######################################################################

data_OZERIV
_symmetry_cell_setting           monoclinic
_symmetry_space_group_name_H-M   'P 21/c'
_symmetry_Int_Tables_number      14
_space_group_name_Hall           '-P 2ybc'
loop_
_symmetry_equiv_pos_site_id
_symmetry_equiv_pos_as_xyz
1 x,y,z
2 -x,1/2+y,1/2-z
3 -x,-y,-z
4 x,1/2-y,1/2+z
_cell_length_a                   17.674(2)
_cell_length_b                   11.6448(14)
_cell_length_c                   12.0016(15)
_cell_angle_alpha                90
_cell_angle_beta                 106.334(2)
_cell_angle_gamma                90
_cell_volume                     2370.36
loop_
_atom_site_label
_atom_site_type_symbol
_atom_site_fract_x
_atom_site_fract_y
_atom_site_fract_z
Fe1 Fe 0.288394(13) 0.503274(18) 0.168054(18)
Cl1 Cl 0.42872(2) 0.53872(4) 0.21174(4)
N1 N 0.26951(8) 0.66928(12) 0.23456(12)
C1 C 0.26527(9) 0.76029(13) 0.26993(13)
N2 N 0.26116(10) 0.86806(12) 0.29852(12)
C2 C 0.26132(9) 0.89569(13) 0.40449(14)
N3 N 0.26162(9) 0.93125(12) 0.49420(12)
N4 N 0.29459(9) 0.42517(12) 0.33379(11)
C3 C 0.28007(10) 0.38710(13) 0.41383(14)
N5 N 0.26099(12) 0.35577(13) 0.50750(14)
C4 C 0.27803(11) 0.25235(14) 0.54960(14)
N6 N 0.29036(9) 0.16502(12) 0.59623(12)
C5 C 0.10726(10) 0.43252(15) 0.04269(15)
N7 N 0.06877(10) 0.39030(17) -0.04121(15)
N8 N 0.15591(8) 0.47973(12) 0.13629(12)
C6 C 0.12495(10) 0.51516(14) 0.21904(14)
N9 N 0.10354(9) 0.54922(15) 0.29558(13)
Fe1C Fe 0.288394(13) 0.996726(18) 0.668054(18)
Fe1C_2 Fe 0.288394(13) -0.003274(18) 0.668054(18)
N3C N 0.26162(9) 0.56875(12) -0.00580(12)
N6C N 0.29036(9) 0.33498(12) 0.09623(12)
C7 C 0.62301(12) 0.61146(18) 0.16230(18)
H1 H 0.6492 0.6526 0.2340
H2 H 0.6619 0.5914 0.1212
H3 H 0.5987 0.5412 0.1813
N10 N 0.56227(8) 0.68477(12) 0.08842(12)
C8 C 0.52512(11) 0.66620(17) -0.02706(16)
H4 H 0.5355 0.6057 -0.0738
N11 N 0.47618(8) 0.81915(12) 0.03341(12)
C9 C 0.47111(11) 0.74999(17) -0.06133(16)
H5 H 0.4360 0.7596 -0.1369
C10 C 0.53159(10) 0.77748(14) 0.12274(15)
H6 H 0.5468 0.8089 0.1989
C11 C 0.42312(11) 0.91528(15) 0.03802(17)
H7 H 0.4031 0.9497 -0.0402
H8 H 0.4526 0.9752 0.0913
C12 C 0.35481(13) 0.87452(17) 0.0794(2)
H9 H 0.3204 0.9397 0.0828
H10 H 0.3747 0.8407 0.1570
H11 H 0.3249 0.8166 0.0256
C13 C 0.10491(12) 0.74477(16) -0.00138(16)
H12 H 0.1143 0.7777 -0.0715
H13 H 0.0587 0.6942 -0.0233
H14 H 0.1512 0.7004 0.0410
N12 N 0.09067(9) 0.83760(12) 0.07304(12)
C14 C 0.06452(11) 0.82334(16) 0.16968(16)
H15 H 0.0514 0.7525 0.1990
N13 N 0.08284(9) 1.00562(12) 0.14401(13)
C15 C 0.06089(11) 0.92813(16) 0.21521(16)
H16 H 0.0460 0.9452 0.2835
C16 C 0.10145(11) 0.94875(16) 0.05927(15)
H17 H 0.1194 0.9821 -0.0009
C17 C 0.08663(12) 1.13128(16) 0.15981(18)
H18 H 0.0422 1.1570 0.1888
H19 H 0.0815 1.1691 0.0841
C18 C 0.16321(13) 1.16593(19) 0.24444(18)
H20 H 0.1653 1.2498 0.2520
H21 H 0.2072 1.1394 0.2163
H22 H 0.1672 1.1313 0.3203
loop_
_geom_bond_atom_site_label_1
_geom_bond_atom_site_label_2
_geom_bond_site_symmetry_1
_geom_bond_site_symmetry_2
Fe1 Cl1 1_555 1_555
N1 Fe1 1_555 1_555
C1 N1 1_555 1_555
N2 C1 1_555 1_555
C2 N2 1_555 1_555
N3 C2 1_555 1_555
N4 Fe1 1_555 1_555
C3 N4 1_555 1_555
N5 C3 1_555 1_555
C4 N5 1_555 1_555
N6 C4 1_555 1_555
C5 N7 1_555 1_555
N8 Fe1 1_555 1_555
C6 N8 1_555 1_555
N9 C6 1_555 1_555
C7 H1 1_555 1_555
H2 C7 1_555 1_555
H3 C7 1_555 1_555
N10 C7 1_555 1_555
C8 N10 1_555 1_555
H4 C8 1_555 1_555
N11 C9 1_555 1_555
C9 C8 1_555 1_555
H5 C9 1_555 1_555
C10 N10 1_555 1_555
H6 C10 1_555 1_555
C11 N11 1_555 1_555
H7 C11 1_555 1_555
H8 C11 1_555 1_555
C12 C11 1_555 1_555
H9 C12 1_555 1_555
H10 C12 1_555 1_555
H11 C12 1_555 1_555
C13 H12 1_555 1_555
H13 C13 1_555 1_555
H14 C13 1_555 1_555
N12 C13 1_555 1_555
C14 N12 1_555 1_555
H15 C14 1_555 1_555
N13 C15 1_555 1_555
C15 C14 1_555 1_555
H16 C15 1_555 1_555
C16 N12 1_555 1_555
H17 C16 1_555 1_555
C17 N13 1_555 1_555
H18 C17 1_555 1_555
H19 C17 1_555 1_555
C18 C17 1_555 1_555
H20 C18 1_555 1_555
H21 C18 1_555 1_555
H22 C18 1_555 1_555
Fe1C N3 1_555 1_555
Fe1C_2 N6 1_555 1_555
N3C Fe1 1_555 1_555
N6C Fe1 1_555 1_555
C5 N8 1_555 1_555
N11 C10 1_555 1_555
N13 C16 1_555 1_555

#END
