
#######################################################################
#
#                 Cambridge Crystallographic Data Centre
#                                CCDC 
#
#######################################################################
#
# If this CIF has been generated from an entry in the Cambridge 
# Structural Database, then it will include bibliographic, chemical, 
# crystal, experimental, refinement or atomic coordinate data resulting 
# from the CCDC's data processing and validation procedures.
#
#######################################################################

data_OZILUF
_symmetry_cell_setting           triclinic
_symmetry_space_group_name_H-M   'P -1'
_symmetry_Int_Tables_number      2
_space_group_name_Hall           '-P 1'
loop_
_symmetry_equiv_pos_site_id
_symmetry_equiv_pos_as_xyz
1 x,y,z
2 -x,-y,-z
_cell_length_a                   14.063(3)
_cell_length_b                   15.106(3)
_cell_length_c                   15.981(3)
_cell_angle_alpha                76.91(3)
_cell_angle_beta                 80.10(3)
_cell_angle_gamma                66.84(3)
_cell_volume                     3027.19
loop_
_atom_site_label
_atom_site_type_symbol
_atom_site_fract_x
_atom_site_fract_y
_atom_site_fract_z
Cr1 Cr 0.0000 0.5000 0.5000
Cr2 Cr 0.0000 1.0000 0.0000
Mn1 Mn 0.35515(6) 0.52212(5) 0.51069(4)
Mn2 Mn -0.02405(5) 0.66308(4) 0.17488(4)
Mn3 Mn 0.21250(5) 0.14036(4) 0.42488(4)
O1 O 0.3152(2) 0.6200(2) 0.57738(19)
O2 O 0.4166(4) 0.5895(3) 0.4196(2)
O3 O 0.3453(2) 0.1246(2) 0.44809(18)
O4 O 0.1874(2) 0.05490(19) 0.52474(17)
O5 O -0.1664(2) 0.6958(2) 0.16561(17)
O6 O 0.0219(2) 0.5673(2) 0.10483(19)
O7 O 0.2923(2) 0.0115(2) 0.35423(19)
H1 H 0.2917 0.0233 0.2946
N1 N 0.2085(3) 0.5495(3) 0.4624(2)
N2 N -0.0268(3) 0.5446(3) 0.2976(2)
N3 N 0.1353(3) 0.2739(3) 0.4888(2)
N4 N -0.0134(3) 0.7868(3) 0.0702(2)
N5 N 0.1807(3) 0.9429(4) 0.1246(3)
N6 N -0.1716(3) 1.0752(3) 0.1552(3)
N7 N 0.3211(3) 0.4311(3) 0.6095(2)
N8 N 0.4293(3) 0.4009(3) 0.4618(2)
N9 N -0.0560(3) 0.7510(2) 0.2602(2)
N10 N 0.1215(3) 0.6391(2) 0.1945(2)
N11 N 0.2228(3) 0.2274(2) 0.3128(2)
N12 N 0.0748(3) 0.1671(2) 0.3864(2)
C1 C 0.1340(4) 0.5328(3) 0.4721(3)
C2 C -0.0184(3) 0.5246(3) 0.3703(3)
C3 C 0.0884(3) 0.3540(3) 0.4951(3)
C4 C -0.0093(3) 0.8628(3) 0.0421(3)
C5 C 0.1164(4) 0.9623(3) 0.0809(3)
C6 C -0.1101(4) 1.0476(3) 0.1001(3)
C7 C 0.2701(3) 0.6229(3) 0.6570(3)
C8 C 0.2446(3) 0.7071(3) 0.6924(3)
H2 H 0.2590 0.7600 0.6587
C9 C 0.1994(3) 0.7143(3) 0.7746(3)
H3 H 0.1856 0.7707 0.7963
C10 C 0.1738(4) 0.6370(4) 0.8263(3)
H4 H 0.1412 0.6425 0.8817
C11 C 0.1975(4) 0.5531(4) 0.7940(3)
H5 H 0.1809 0.5016 0.8282
C12 C 0.2459(3) 0.5435(3) 0.7108(3)
C13 C 0.2738(3) 0.4522(3) 0.6829(3)
H6 H 0.2561 0.4036 0.7214
C14 C 0.3418(3) 0.3343(3) 0.5886(3)
H7 H 0.2838 0.3361 0.5622
H8 H 0.3522 0.2850 0.6406
C15 C 0.4401(4) 0.3107(3) 0.5258(3)
H9 H 0.5012 0.2910 0.5563
H10 H 0.4468 0.2579 0.4974
C16 C 0.4675(3) 0.3962(4) 0.3831(3)
H11 H 0.4966 0.3350 0.3668
C17 C 0.4681(3) 0.4796(4) 0.3187(3)
C18 C 0.5010(4) 0.4667(4) 0.2322(3)
H12 H 0.5209 0.4048 0.2187
C19 C 0.5043(4) 0.5421(4) 0.1682(3)
H13 H 0.5248 0.5322 0.1114
C20 C 0.4768(4) 0.6334(4) 0.1884(3)
H14 H 0.4788 0.6854 0.1448
C21 C 0.4462(4) 0.6491(4) 0.2726(3)
H15 H 0.4283 0.7112 0.2850
C22 C 0.4422(4) 0.5725(4) 0.3389(3)
C23 C -0.2475(3) 0.7680(3) 0.1945(3)
C24 C -0.3463(3) 0.7857(3) 0.1715(3)
H16 H -0.3527 0.7486 0.1351
C25 C -0.4344(4) 0.8575(3) 0.2023(3)
H17 H -0.4989 0.8676 0.1862
C26 C -0.4279(4) 0.9142(4) 0.2564(4)
H18 H -0.4873 0.9630 0.2755
C27 C -0.3318(4) 0.8972(3) 0.2816(4)
H19 H -0.3270 0.9336 0.3194
C28 C -0.2415(3) 0.8255(3) 0.2506(3)
C29 C -0.1458(4) 0.8116(3) 0.2827(3)
H20 H -0.1496 0.8493 0.3226
C30 C 0.0344(4) 0.7377(3) 0.3042(3)
H21 H 0.0428 0.6861 0.3543
H22 H 0.0247 0.7977 0.3230
C31 C 0.1291(4) 0.7108(3) 0.2393(3)
H23 H 0.1307 0.7685 0.1983
H24 H 0.1922 0.6827 0.2686
C32 C 0.2034(4) 0.5717(3) 0.1671(3)
H25 H 0.2668 0.5670 0.1815
C33 C 0.2061(4) 0.5041(3) 0.1170(3)
C34 C 0.3057(4) 0.4359(4) 0.0908(3)
H26 H 0.3653 0.4368 0.1079
C35 C 0.3147(5) 0.3697(4) 0.0414(3)
H27 H 0.3799 0.3268 0.0239
C36 C 0.2252(5) 0.3671(5) 0.0173(3)
H28 H 0.2307 0.3206 -0.0146
C37 C 0.1290(5) 0.4325(4) 0.0402(3)
H29 H 0.0704 0.4295 0.0234
C38 C 0.1168(4) 0.5040(3) 0.0884(3)
C39 C 0.4217(3) 0.1379(3) 0.3919(3)
C40 C 0.5218(3) 0.0994(3) 0.4175(3)
H30 H 0.5333 0.0644 0.4731
C41 C 0.6048(4) 0.1117(3) 0.3626(3)
H31 H 0.6708 0.0854 0.3819
C42 C 0.5905(4) 0.1634(4) 0.2785(3)
H32 H 0.6466 0.1708 0.2415
C43 C 0.4930(4) 0.2029(3) 0.2509(3)
H33 H 0.4832 0.2374 0.1950
C44 C 0.4068(3) 0.1917(3) 0.3065(3)
C45 C 0.3064(3) 0.2375(3) 0.2733(3)
H34 H 0.3019 0.2772 0.2192
C46 C 0.1232(3) 0.2818(3) 0.2736(3)
H35 H 0.1355 0.3003 0.2117
H36 H 0.0839 0.3405 0.2979
C47 C 0.0643(3) 0.2123(3) 0.2942(3)
H37 H -0.0083 0.2479 0.2844
H38 H 0.0938 0.1625 0.2580
C48 C -0.0028(3) 0.1551(3) 0.4354(3)
H39 H -0.0661 0.1782 0.4120
C49 C 0.0016(3) 0.1080(3) 0.5250(3)
C50 C -0.0931(4) 0.1093(4) 0.5714(3)
H40 H -0.1544 0.1421 0.5448
C51 C -0.0963(4) 0.0618(4) 0.6568(3)
H41 H -0.1593 0.0651 0.6884
C52 C -0.0032(4) 0.0095(3) 0.6937(3)
H42 H -0.0043 -0.0243 0.7501
C53 C 0.0913(3) 0.0062(3) 0.6488(3)
H43 H 0.1524 -0.0299 0.6750
C54 C 0.0952(3) 0.0573(3) 0.5637(3)
C55 C 0.3431(4) -0.0861(3) 0.3962(3)
H44 H 0.4159 -0.0993 0.3951
H45 H 0.3341 -0.1307 0.3668
H46 H 0.3137 -0.0942 0.4549
Cr2_2 Cr 0.0000 0.0000 1.0000
Mn1A Mn -0.35515(6) 0.47788(5) 0.48931(4)
Mn2A Mn 0.02405(5) 0.33692(4) 0.82512(4)
Mn3A Mn -0.21250(5) 0.85964(4) 0.57512(4)
O1A O -0.3152(2) 0.3800(2) 0.42262(19)
O2A O -0.4166(4) 0.4105(3) 0.5804(2)
O3A O -0.3453(2) 0.8754(2) 0.55191(18)
O4A O -0.1874(2) 0.94510(19) 0.47526(17)
O5A O 0.1664(2) 0.3042(2) 0.83439(17)
O6A O -0.0219(2) 0.4327(2) 0.89517(19)
O7A O -0.2923(2) 0.9885(2) 0.64577(19)
H1A H -0.2917 0.9767 0.7054
N1A N -0.2085(3) 0.4505(3) 0.5376(2)
N2A N 0.0268(3) 0.4554(3) 0.7024(2)
N3A N -0.1353(3) 0.7261(3) 0.5112(2)
N4A N 0.0134(3) 0.2132(3) 0.9298(2)
N5A N -0.1807(3) 1.0571(4) -0.1246(3)
N6A N 0.1716(3) 0.9248(3) -0.1552(3)
N7A N -0.3211(3) 0.5689(3) 0.3905(2)
N8A N -0.4293(3) 0.5991(3) 0.5382(2)
N9A N 0.0560(3) 0.2490(2) 0.7398(2)
N10A N -0.1215(3) 0.3609(2) 0.8055(2)
N11A N -0.2228(3) 0.7726(2) 0.6872(2)
N12A N -0.0748(3) 0.8329(2) 0.6136(2)
C1A C -0.1340(4) 0.4672(3) 0.5279(3)
C2A C 0.0184(3) 0.4754(3) 0.6297(3)
C3A C -0.0884(3) 0.6460(3) 0.5049(3)
C4A C 0.0093(3) 0.1372(3) 0.9579(3)
C4A_2 C 0.0093(3) 1.1372(3) -0.0421(3)
C5A C -0.1164(4) 1.0377(3) -0.0809(3)
C6A C 0.1101(4) 0.9524(3) -0.1001(3)
C7A C -0.2701(3) 0.3771(3) 0.3430(3)
C8A C -0.2446(3) 0.2929(3) 0.3076(3)
H2A H -0.2590 0.2400 0.3413
C9A C -0.1994(3) 0.2857(3) 0.2254(3)
H3A H -0.1856 0.2293 0.2037
C10A C -0.1738(4) 0.3630(4) 0.1737(3)
H4A H -0.1412 0.3575 0.1183
C11A C -0.1975(4) 0.4469(4) 0.2060(3)
H5A H -0.1809 0.4984 0.1718
C12A C -0.2459(3) 0.4565(3) 0.2892(3)
C13A C -0.2738(3) 0.5478(3) 0.3171(3)
H6A H -0.2561 0.5964 0.2786
C14A C -0.3418(3) 0.6657(3) 0.4114(3)
H7A H -0.2838 0.6639 0.4378
H8A H -0.3522 0.7150 0.3594
C15A C -0.4401(4) 0.6893(3) 0.4742(3)
H9A H -0.5012 0.7090 0.4437
H10A H -0.4468 0.7421 0.5026
C16A C -0.4675(3) 0.6038(4) 0.6169(3)
H11A H -0.4966 0.6650 0.6332
C17A C -0.4681(3) 0.5204(4) 0.6813(3)
C18A C -0.5010(4) 0.5333(4) 0.7678(3)
H12A H -0.5209 0.5952 0.7813
C19A C -0.5043(4) 0.4579(4) 0.8318(3)
H13A H -0.5248 0.4678 0.8886
C20A C -0.4768(4) 0.3666(4) 0.8116(3)
H14A H -0.4788 0.3146 0.8552
C21A C -0.4462(4) 0.3509(4) 0.7274(3)
H15A H -0.4283 0.2888 0.7150
C22A C -0.4422(4) 0.4275(4) 0.6611(3)
C23A C 0.2475(3) 0.2320(3) 0.8055(3)
C24A C 0.3463(3) 0.2143(3) 0.8285(3)
H16A H 0.3527 0.2514 0.8649
C25A C 0.4344(4) 0.1425(3) 0.7977(3)
H17A H 0.4989 0.1324 0.8138
C26A C 0.4279(4) 0.0858(4) 0.7436(4)
H18A H 0.4873 0.0370 0.7245
C27A C 0.3318(4) 0.1028(3) 0.7184(4)
H19A H 0.3270 0.0664 0.6806
C28A C 0.2415(3) 0.1745(3) 0.7494(3)
C29A C 0.1458(4) 0.1884(3) 0.7173(3)
H20A H 0.1496 0.1507 0.6774
C30A C -0.0344(4) 0.2623(3) 0.6958(3)
H21A H -0.0428 0.3139 0.6457
H22A H -0.0247 0.2023 0.6770
C31A C -0.1291(4) 0.2892(3) 0.7607(3)
H23A H -0.1307 0.2315 0.8017
H24A H -0.1922 0.3173 0.7314
C32A C -0.2034(4) 0.4283(3) 0.8329(3)
H25A H -0.2668 0.4330 0.8185
C33A C -0.2061(4) 0.4959(3) 0.8830(3)
C34A C -0.3057(4) 0.5641(4) 0.9092(3)
H26A H -0.3653 0.5632 0.8921
C35A C -0.3147(5) 0.6303(4) 0.9586(3)
H27A H -0.3799 0.6732 0.9761
C36A C -0.2252(5) 0.6329(5) 0.9827(3)
H28A H -0.2307 0.6794 1.0146
C37A C -0.1290(5) 0.5675(4) 0.9598(3)
H29A H -0.0704 0.5705 0.9766
C38A C -0.1168(4) 0.4960(3) 0.9116(3)
C39A C -0.4217(3) 0.8621(3) 0.6081(3)
C40A C -0.5218(3) 0.9006(3) 0.5825(3)
H30A H -0.5333 0.9356 0.5269
C41A C -0.6048(4) 0.8883(3) 0.6374(3)
H31A H -0.6708 0.9146 0.6181
C42A C -0.5905(4) 0.8366(4) 0.7215(3)
H32A H -0.6466 0.8292 0.7585
C43A C -0.4930(4) 0.7971(3) 0.7491(3)
H33A H -0.4832 0.7626 0.8050
C44A C -0.4068(3) 0.8083(3) 0.6935(3)
C45A C -0.3064(3) 0.7625(3) 0.7267(3)
H34A H -0.3019 0.7228 0.7808
C46A C -0.1232(3) 0.7182(3) 0.7264(3)
H35A H -0.1355 0.6997 0.7883
H36A H -0.0839 0.6595 0.7021
C47A C -0.0643(3) 0.7877(3) 0.7058(3)
H37A H 0.0083 0.7521 0.7156
H38A H -0.0938 0.8375 0.7420
C48A C 0.0028(3) 0.8449(3) 0.5646(3)
H39A H 0.0661 0.8218 0.5880
C49A C -0.0016(3) 0.8920(3) 0.4750(3)
C50A C 0.0931(4) 0.8907(4) 0.4286(3)
H40A H 0.1544 0.8579 0.4552
C51A C 0.0963(4) 0.9382(4) 0.3432(3)
H41A H 0.1593 0.9349 0.3116
C52A C 0.0032(4) 0.9905(3) 0.3063(3)
H42A H 0.0043 1.0243 0.2499
C53A C -0.0913(3) 0.9938(3) 0.3512(3)
H43A H -0.1524 1.0299 0.3250
C54A C -0.0952(3) 0.9427(3) 0.4363(3)
C55A C -0.3431(4) 1.0861(3) 0.6038(3)
H44A H -0.4159 1.0993 0.6049
H45A H -0.3341 1.1307 0.6332
H46A H -0.3137 1.0942 0.5451
N13 N 0.4376(6) 0.6501(7) 0.9353(5)
C56 C 0.3577(5) 0.6846(5) 0.9698(4)
C57 C 0.2644(7) 0.7319(6) 1.0096(6)
H47 H 0.2364 0.7981 0.9796
H48 H 0.2724 0.7321 1.0680
H49 H 0.2179 0.6993 1.0095
N14 N 0.4863(11) 0.8398(6) 1.0172(8)
C58 C 0.4307(8) 0.8973(5) 0.9802(6)
C59 C 0.3440(5) 0.9684(5) 0.9378(4)
H50 H 0.3171 0.9370 0.9070
H51 H 0.3653 1.0166 0.8981
H52 H 0.2910 0.9993 0.9799
O8 O 0.3030(3) 0.0113(4) 0.1895(2)
C60 C 0.3337(8) 0.0812(7) 0.1229(6)
C61? C 0.1648(19) 0.1901(17) 0.0606(15)
O9? O 0.2510(13) 0.1677(12) 0.1108(10)
loop_
_geom_bond_atom_site_label_1
_geom_bond_atom_site_label_2
_geom_bond_site_symmetry_1
_geom_bond_site_symmetry_2
Cr1 C1 1_555 1_555
Cr2 C4 1_555 1_555
Mn1 O1 1_555 1_555
Mn2 O5 1_555 1_555
Mn3 O3 1_555 1_555
O1 C7 1_555 1_555
O2 Mn1 1_555 1_555
O3 C39 1_555 1_555
O4 Mn3 1_555 1_555
O5 C23 1_555 1_555
O6 Mn2 1_555 1_555
O7 Mn3 1_555 1_555
H1 O7 1_555 1_555
N1 Mn1 1_555 1_555
N2 Mn2 1_555 1_555
N3 Mn3 1_555 1_555
N4 Mn2 1_555 1_555
N5 C5 1_555 1_555
N6 C6 1_555 1_555
N7 Mn1 1_555 1_555
N8 Mn1 1_555 1_555
N9 Mn2 1_555 1_555
N10 Mn2 1_555 1_555
N11 Mn3 1_555 1_555
N12 Mn3 1_555 1_555
C1 N1 1_555 1_555
C2 Cr1 1_555 1_555
C3 Cr1 1_555 1_555
C4 N4 1_555 1_555
C5 Cr2 1_555 1_555
C6 Cr2 1_555 1_555
C7 C8 1_555 1_555
C8 H2 1_555 1_555
C9 C8 1_555 1_555
H3 C9 1_555 1_555
C10 C9 1_555 1_555
H4 C10 1_555 1_555
C11 C10 1_555 1_555
H5 C11 1_555 1_555
C12 C7 1_555 1_555
C13 N7 1_555 1_555
H6 C13 1_555 1_555
C14 N7 1_555 1_555
H7 C14 1_555 1_555
H8 C14 1_555 1_555
C15 N8 1_555 1_555
H9 C15 1_555 1_555
H10 C15 1_555 1_555
C16 N8 1_555 1_555
H11 C16 1_555 1_555
C17 C16 1_555 1_555
C18 C17 1_555 1_555
H12 C18 1_555 1_555
C19 C18 1_555 1_555
H13 C19 1_555 1_555
C20 C19 1_555 1_555
H14 C20 1_555 1_555
C21 C20 1_555 1_555
H15 C21 1_555 1_555
C22 O2 1_555 1_555
C23 C24 1_555 1_555
C24 H16 1_555 1_555
C25 C24 1_555 1_555
H17 C25 1_555 1_555
C26 C25 1_555 1_555
H18 C26 1_555 1_555
C27 C26 1_555 1_555
H19 C27 1_555 1_555
C28 C23 1_555 1_555
C29 N9 1_555 1_555
H20 C29 1_555 1_555
C30 N9 1_555 1_555
H21 C30 1_555 1_555
H22 C30 1_555 1_555
C31 N10 1_555 1_555
H23 C31 1_555 1_555
H24 C31 1_555 1_555
C32 N10 1_555 1_555
H25 C32 1_555 1_555
C33 C32 1_555 1_555
C34 C33 1_555 1_555
H26 C34 1_555 1_555
C35 C34 1_555 1_555
H27 C35 1_555 1_555
C36 C35 1_555 1_555
H28 C36 1_555 1_555
C37 C36 1_555 1_555
H29 C37 1_555 1_555
C38 O6 1_555 1_555
C39 C40 1_555 1_555
C40 H30 1_555 1_555
C41 C40 1_555 1_555
H31 C41 1_555 1_555
C42 C41 1_555 1_555
H32 C42 1_555 1_555
C43 C42 1_555 1_555
H33 C43 1_555 1_555
C44 C39 1_555 1_555
C45 N11 1_555 1_555
H34 C45 1_555 1_555
C46 N11 1_555 1_555
H35 C46 1_555 1_555
H36 C46 1_555 1_555
C47 N12 1_555 1_555
H37 C47 1_555 1_555
H38 C47 1_555 1_555
C48 N12 1_555 1_555
H39 C48 1_555 1_555
C49 C48 1_555 1_555
C50 C49 1_555 1_555
H40 C50 1_555 1_555
C51 C50 1_555 1_555
H41 C51 1_555 1_555
C52 C51 1_555 1_555
H42 C52 1_555 1_555
C53 C52 1_555 1_555
H43 C53 1_555 1_555
C54 O4 1_555 1_555
C55 O7 1_555 1_555
H44 C55 1_555 1_555
H45 C55 1_555 1_555
H46 C55 1_555 1_555
N13 C56 1_555 1_555
C56 C57 1_555 1_555
C57 H47 1_555 1_555
H48 C57 1_555 1_555
H49 C57 1_555 1_555
N14 C58 1_555 1_555
C58 C59 1_555 1_555
C59 H50 1_555 1_555
H51 C59 1_555 1_555
H52 C59 1_555 1_555
O8 C60 1_555 1_555
Cr2_2 C4A 1_555 1_555
Mn1A O1A 1_555 1_555
Mn2A O5A 1_555 1_555
Mn3A O3A 1_555 1_555
O1A C7A 1_555 1_555
O2A Mn1A 1_555 1_555
O3A C39A 1_555 1_555
O4A Mn3A 1_555 1_555
O5A C23A 1_555 1_555
O6A Mn2A 1_555 1_555
O7A Mn3A 1_555 1_555
H1A O7A 1_555 1_555
N1A Mn1A 1_555 1_555
N2A Mn2A 1_555 1_555
N3A Mn3A 1_555 1_555
N4A Mn2A 1_555 1_555
N5A C5A 1_555 1_555
N6A C6A 1_555 1_555
N7A Mn1A 1_555 1_555
N8A Mn1A 1_555 1_555
N9A Mn2A 1_555 1_555
N10A Mn2A 1_555 1_555
N11A Mn3A 1_555 1_555
N12A Mn3A 1_555 1_555
C1A Cr1 1_555 1_555
C2A Cr1 1_555 1_555
C3A Cr1 1_555 1_555
C4A N4A 1_555 1_555
C4A_2 Cr2 1_555 1_555
C5A Cr2 1_555 1_555
C6A Cr2 1_555 1_555
C7A C8A 1_555 1_555
C8A H2A 1_555 1_555
C9A C8A 1_555 1_555
H3A C9A 1_555 1_555
C10A C9A 1_555 1_555
H4A C10A 1_555 1_555
C11A C10A 1_555 1_555
H5A C11A 1_555 1_555
C12A C7A 1_555 1_555
C13A N7A 1_555 1_555
H6A C13A 1_555 1_555
C14A N7A 1_555 1_555
H7A C14A 1_555 1_555
H8A C14A 1_555 1_555
C15A N8A 1_555 1_555
H9A C15A 1_555 1_555
H10A C15A 1_555 1_555
C16A N8A 1_555 1_555
H11A C16A 1_555 1_555
C17A C16A 1_555 1_555
C18A C17A 1_555 1_555
H12A C18A 1_555 1_555
C19A C18A 1_555 1_555
H13A C19A 1_555 1_555
C20A C19A 1_555 1_555
H14A C20A 1_555 1_555
C21A C20A 1_555 1_555
H15A C21A 1_555 1_555
C22A O2A 1_555 1_555
C23A C24A 1_555 1_555
C24A H16A 1_555 1_555
C25A C24A 1_555 1_555
H17A C25A 1_555 1_555
C26A C25A 1_555 1_555
H18A C26A 1_555 1_555
C27A C26A 1_555 1_555
H19A C27A 1_555 1_555
C28A C23A 1_555 1_555
C29A N9A 1_555 1_555
H20A C29A 1_555 1_555
C30A N9A 1_555 1_555
H21A C30A 1_555 1_555
H22A C30A 1_555 1_555
C31A N10A 1_555 1_555
H23A C31A 1_555 1_555
H24A C31A 1_555 1_555
C32A N10A 1_555 1_555
H25A C32A 1_555 1_555
C33A C32A 1_555 1_555
C34A C33A 1_555 1_555
H26A C34A 1_555 1_555
C35A C34A 1_555 1_555
H27A C35A 1_555 1_555
C36A C35A 1_555 1_555
H28A C36A 1_555 1_555
C37A C36A 1_555 1_555
H29A C37A 1_555 1_555
C38A O6A 1_555 1_555
C39A C40A 1_555 1_555
C40A H30A 1_555 1_555
C41A C40A 1_555 1_555
H31A C41A 1_555 1_555
C42A C41A 1_555 1_555
H32A C42A 1_555 1_555
C43A C42A 1_555 1_555
H33A C43A 1_555 1_555
C44A C39A 1_555 1_555
C45A N11A 1_555 1_555
H34A C45A 1_555 1_555
C46A N11A 1_555 1_555
H35A C46A 1_555 1_555
H36A C46A 1_555 1_555
C47A N12A 1_555 1_555
H37A C47A 1_555 1_555
H38A C47A 1_555 1_555
C48A N12A 1_555 1_555
H39A C48A 1_555 1_555
C49A C48A 1_555 1_555
C50A C49A 1_555 1_555
H40A C50A 1_555 1_555
C51A C50A 1_555 1_555
H41A C51A 1_555 1_555
C52A C51A 1_555 1_555
H42A C52A 1_555 1_555
C53A C52A 1_555 1_555
H43A C53A 1_555 1_555
C54A O4A 1_555 1_555
C55A O7A 1_555 1_555
H44A C55A 1_555 1_555
H45A C55A 1_555 1_555
H46A C55A 1_555 1_555
N2 C2 1_555 1_555
N3 C3 1_555 1_555
C11 C12 1_555 1_555
C12 C13 1_555 1_555
C14 C15 1_555 1_555
C17 C22 1_555 1_555
C21 C22 1_555 1_555
C27 C28 1_555 1_555
C28 C29 1_555 1_555
C30 C31 1_555 1_555
C33 C38 1_555 1_555
C37 C38 1_555 1_555
C43 C44 1_555 1_555
C44 C45 1_555 1_555
C46 C47 1_555 1_555
C49 C54 1_555 1_555
C53 C54 1_555 1_555
N1A C1A 1_555 1_555
N2A C2A 1_555 1_555
N3A C3A 1_555 1_555
C11A C12A 1_555 1_555
C12A C13A 1_555 1_555
C14A C15A 1_555 1_555
C17A C22A 1_555 1_555
C21A C22A 1_555 1_555
C27A C28A 1_555 1_555
C28A C29A 1_555 1_555
C30A C31A 1_555 1_555
C33A C38A 1_555 1_555
C37A C38A 1_555 1_555
C43A C44A 1_555 1_555
C44A C45A 1_555 1_555
C46A C47A 1_555 1_555
C49A C54A 1_555 1_555
C53A C54A 1_555 1_555

#END
