
#######################################################################
#
#                 Cambridge Crystallographic Data Centre
#                                CCDC 
#
#######################################################################
#
# If this CIF has been generated from an entry in the Cambridge 
# Structural Database, then it will include bibliographic, chemical, 
# crystal, experimental, refinement or atomic coordinate data resulting 
# from the CCDC's data processing and validation procedures.
#
#######################################################################

data_OZILOZ
_symmetry_cell_setting           monoclinic
_symmetry_space_group_name_H-M   'C 2/c'
_symmetry_Int_Tables_number      15
_space_group_name_Hall           '-C 2yn'
loop_
_symmetry_equiv_pos_site_id
_symmetry_equiv_pos_as_xyz
1 x,y,z
2 -x,y,1/2-z
3 1/2+x,1/2+y,z
4 1/2-x,1/2+y,1/2-z
5 -x,-y,-z
6 x,-y,1/2+z
7 1/2-x,1/2-y,-z
8 1/2+x,1/2-y,1/2+z
_cell_length_a                   37.771(8)
_cell_length_b                   11.199(2)
_cell_length_c                   19.971(4)
_cell_angle_alpha                90
_cell_angle_beta                 115.58(3)
_cell_angle_gamma                90
_cell_volume                     7619.67
loop_
_atom_site_label
_atom_site_type_symbol
_atom_site_fract_x
_atom_site_fract_y
_atom_site_fract_z
C13 C 0.1647(2) 0.6952(7) 0.2518(4)
C14 C 0.1932(2) 0.7603(7) 0.3088(4)
H9 H 0.2164 0.7229 0.3405
C15 C 0.1876(2) 0.8809(7) 0.3194(4)
H10 H 0.2071 0.9233 0.3578
C16 C 0.1529(2) 0.9376(6) 0.2723(4)
C17 C 0.1242(2) 0.8748(6) 0.2148(4)
H11 H 0.1010 0.9128 0.1834
C18 C 0.1299(2) 0.7538(6) 0.2037(4)
C19 C 0.0988(2) 0.6919(6) 0.1423(4)
H12 H 0.0758 0.7344 0.1162
C20 C 0.0648(2) 0.5278(7) 0.0602(5)
H13 H 0.0516 0.4822 0.0848
C21 C 0.0350(2) 0.6087(8) 0.0071(6)
H14 H 0.0228 0.6538 0.0324
H15 H 0.0154 0.5625 -0.0318
H16 H 0.0473 0.6622 -0.0139
C22 C 0.0794(2) 0.4398(7) 0.0228(5)
H17 H 0.0865 0.4802 -0.0126
H18 H 0.0590 0.3823 -0.0040
C23 C 0.12032(17) 0.2654(6) 0.0724(4)
H19 H 0.1008 0.2241 0.0336
C24 C 0.15478(17) 0.1992(5) 0.1200(3)
C25 C 0.15695(19) 0.0779(6) 0.1044(4)
H20 H 0.1356 0.0414 0.0664
C26 C 0.18963(19) 0.0133(5) 0.1436(4)
C27 C 0.2225(2) 0.0671(6) 0.1989(4)
H21 H 0.2453 0.0227 0.2239
C28 C 0.22168(19) 0.1850(5) 0.2168(4)
H22 H 0.2437 0.2195 0.2544
C29 C 0.18732(17) 0.2550(5) 0.1779(3)
C30 C 0.20733(19) 0.5538(6) 0.0947(4)
H23 H 0.2250 0.6168 0.1217
H24 H 0.2044 0.5529 0.0445
H25 H 0.2177 0.4786 0.1180
Cl2 Cl 0.14546(7) 1.08639(16) 0.28613(13)
Cl3 Cl 0.19106(6) -0.13772(15) 0.12418(12)
Mn2 Mn 0.14649(3) 0.47817(8) 0.16462(6)
N5 N 0.09988(15) 0.5858(5) 0.1205(3)
N6 N 0.11433(14) 0.3770(4) 0.0792(3)
O3 O 0.17145(16) 0.5773(4) 0.2461(3)
O4 O 0.18809(13) 0.3680(4) 0.1981(3)
O5 O 0.1095(2) 0.3742(5) 0.2160(4)
H26 H 0.0858 0.3552 0.1892
H27 H 0.1202 0.3562 0.2618
O6 O 0.17039(12) 0.5732(4) 0.0946(3)
H28 H 0.1544 0.6312 0.0622
O7 O 0.12247(16) 0.6952(5) 0.9761(3)
H30 H 0.1315 0.7233 0.9502
O8 O 0.0405(3) 0.5195(10) 0.1996(7)
H31 H 0.0189 0.4912 0.1830
O9 O 0.1523(5) 0.3440(13) 0.3662(9)
C1 C -0.00642(17) 0.8927(5) 0.4099(3)
C2 C 0.03343(19) 0.8695(6) 0.5750(4)
C3 C 0.05015(18) 1.0696(5) 0.4959(3)
C4 C 0.07720(16) 0.7302(5) 0.3416(3)
C5 C 0.10088(19) 0.6300(6) 0.3694(4)
H1 H 0.0901 0.5546 0.3540
C6 C 0.13944(19) 0.6395(7) 0.4187(4)
H2 H 0.1547 0.5709 0.4352
C7 C 0.15606(17) 0.7500(7) 0.4442(4)
C8 C 0.13377(16) 0.8511(6) 0.4189(3)
H3 H 0.1450 0.9253 0.4364
C9 C 0.09439(16) 0.8444(5) 0.3670(3)
C10 C 0.07401(16) 0.9551(5) 0.3406(3)
H4 H 0.0878 1.0252 0.3600
C11 C 0.0199(2) 1.0838(6) 0.2640(5)
H5 H 0.0223 1.0846 0.2171
C12 C 0.0435(4) 1.1893(11) 0.2980(8)
H6 H 0.0275 1.2595 0.2804
H7 H 0.0651 1.1936 0.2850
H8 H 0.0533 1.1843 0.3510
Cl1 Cl 0.20575(4) 0.76087(19) 0.50586(10)
Cr1 Cr 0.0000 1.0000 0.5000
Mn1 Mn 0.0000 0.83127(10) 0.2500
N1 N -0.00857(15) 0.8422(4) 0.3574(3)
N2 N 0.05152(19) 0.7974(5) 0.6181(3)
N3 N 0.07729(16) 1.1085(5) 0.4904(3)
N4 N 0.03763(14) 0.9650(4) 0.2915(3)
O2 O 0.04005(11) 0.7158(3) 0.2925(2)
C1D C 0.00642(17) 1.1073(5) 0.5901(3)
C2D C -0.03343(19) 1.1305(6) 0.4250(4)
C3D C -0.05015(18) 0.9304(5) 0.5041(3)
C4A C -0.07720(16) 0.7302(5) 0.1584(3)
C5A C -0.10088(19) 0.6300(6) 0.1306(4)
H1A H -0.0901 0.5546 0.1460
C6A C -0.13944(19) 0.6395(7) 0.0813(4)
H2A H -0.1547 0.5709 0.0648
C7A C -0.15606(17) 0.7500(7) 0.0558(4)
C8A C -0.13377(16) 0.8511(6) 0.0811(3)
H3A H -0.1450 0.9253 0.0636
C9A C -0.09439(16) 0.8444(5) 0.1330(3)
C10A C -0.07401(16) 0.9551(5) 0.1594(3)
H4A H -0.0878 1.0252 0.1400
C11A C -0.0199(2) 1.0838(6) 0.2360(5)
H5A H -0.0223 1.0846 0.2829
C12A C -0.0435(4) 1.1893(11) 0.2020(8)
H6A H -0.0275 1.2595 0.2196
H7A H -0.0651 1.1936 0.2150
H8A H -0.0533 1.1843 0.1490
Cl1A Cl -0.20575(4) 0.76087(19) -0.00586(10)
Mn1D Mn 0.0000 1.16873(10) 0.7500
N1D N 0.00857(15) 1.1578(4) 0.6426(3)
N1A N 0.00857(15) 0.8422(4) 0.1426(3)
N2D N -0.05152(19) 1.2026(5) 0.3819(3)
N3D N -0.07729(16) 0.8915(5) 0.5096(3)
N4A N -0.03763(14) 0.9650(4) 0.2085(3)
O2A O -0.04005(11) 0.7158(3) 0.2075(2)
O1? O -0.0017(11) 0.469(2) 0.2178(14)
H29? H 0.0000 0.5118 0.2500
O10? O 0.1953(5) 0.440(2) 0.3820(11)
O11? O 0.2109(5) 0.3610(18) 0.3792(8)
loop_
_geom_bond_atom_site_label_1
_geom_bond_atom_site_label_2
_geom_bond_site_symmetry_1
_geom_bond_site_symmetry_2
C1 Cr1 1_555 1_555
C2 Cr1 1_555 1_555
C3 Cr1 1_555 1_555
C4 C5 1_555 1_555
C5 H1 1_555 1_555
C6 C5 1_555 1_555
H2 C6 1_555 1_555
C7 C6 1_555 1_555
C8 C7 1_555 1_555
H3 C8 1_555 1_555
C9 C4 1_555 1_555
C10 C9 1_555 1_555
H4 C10 1_555 1_555
C11 H5 1_555 1_555
C12 C11 1_555 1_555
H6 C12 1_555 1_555
H7 C12 1_555 1_555
H8 C12 1_555 1_555
C13 C14 1_555 1_555
C14 H9 1_555 1_555
C15 C14 1_555 1_555
H10 C15 1_555 1_555
C16 C15 1_555 1_555
C17 C16 1_555 1_555
H11 C17 1_555 1_555
C18 C13 1_555 1_555
C19 C18 1_555 1_555
H12 C19 1_555 1_555
C20 H13 1_555 1_555
C21 C20 1_555 1_555
H14 C21 1_555 1_555
H15 C21 1_555 1_555
H16 C21 1_555 1_555
C22 C20 1_555 1_555
H17 C22 1_555 1_555
H18 C22 1_555 1_555
C23 H19 1_555 1_555
C24 C23 1_555 1_555
C25 C24 1_555 1_555
H20 C25 1_555 1_555
C26 C25 1_555 1_555
C27 C26 1_555 1_555
H21 C27 1_555 1_555
C28 C27 1_555 1_555
H22 C28 1_555 1_555
C29 C24 1_555 1_555
C30 H23 1_555 1_555
H24 C30 1_555 1_555
H25 C30 1_555 1_555
Cl1 C7 1_555 1_555
Cl2 C16 1_555 1_555
Cl3 C26 1_555 1_555
Cr1 C1D 1_555 1_555
Mn1 N1 1_555 1_555
Mn2 N5 1_555 1_555
N1 C1 1_555 1_555
N2 C2 1_555 1_555
N3 C3 1_555 1_555
N4 C10 1_555 1_555
N5 C19 1_555 1_555
N6 C22 1_555 1_555
O2 C4 1_555 1_555
O3 C13 1_555 1_555
O4 C29 1_555 1_555
O5 Mn2 1_555 1_555
H26 O5 1_555 1_555
H27 O5 1_555 1_555
O6 C30 1_555 1_555
H28 O6 1_555 1_555
O7 H30 1_555 1_555
O8 H31 1_555 1_555
C1D N1D 1_555 1_555
C2D Cr1 1_555 1_555
C3D Cr1 1_555 1_555
C4A C5A 1_555 1_555
C5A H1A 1_555 1_555
C6A C5A 1_555 1_555
H2A C6A 1_555 1_555
C7A C6A 1_555 1_555
C8A C7A 1_555 1_555
H3A C8A 1_555 1_555
C9A C4A 1_555 1_555
C10A C9A 1_555 1_555
H4A C10A 1_555 1_555
C11A C11 1_555 1_555
H5A C11A 1_555 1_555
C12A C11A 1_555 1_555
H6A C12A 1_555 1_555
H7A C12A 1_555 1_555
H8A C12A 1_555 1_555
Cl1A C7A 1_555 1_555
Mn1D N1D 1_555 1_555
N1A Mn1 1_555 1_555
N2D C2D 1_555 1_555
N3D C3D 1_555 1_555
N4A Mn1 1_555 1_555
O2A Mn1 1_555 1_555
C8 C9 1_555 1_555
C11 N4 1_555 1_555
C17 C18 1_555 1_555
C20 N5 1_555 1_555
C23 N6 1_555 1_555
C28 C29 1_555 1_555
Mn1 N4 1_555 1_555
Mn1 O2 1_555 1_555
Mn2 N6 1_555 1_555
Mn2 O3 1_555 1_555
Mn2 O4 1_555 1_555
Mn2 O6 1_555 1_555
C4A O2A 1_555 1_555
C8A C9A 1_555 1_555
C10A N4A 1_555 1_555
C11A N4A 1_555 1_555

#END
