
#######################################################################
#
#                 Cambridge Crystallographic Data Centre
#                                CCDC 
#
#######################################################################
#
# If this CIF has been generated from an entry in the Cambridge 
# Structural Database, then it will include bibliographic, chemical, 
# crystal, experimental, refinement or atomic coordinate data resulting 
# from the CCDC's data processing and validation procedures.
#
#######################################################################

data_OZIMUG
_symmetry_cell_setting           monoclinic
_symmetry_space_group_name_H-M   'P 21/c'
_symmetry_Int_Tables_number      14
_space_group_name_Hall           '-P 2ybc'
loop_
_symmetry_equiv_pos_site_id
_symmetry_equiv_pos_as_xyz
1 x,y,z
2 -x,1/2+y,1/2-z
3 -x,-y,-z
4 x,1/2-y,1/2+z
_cell_length_a                   11.6822(8)
_cell_length_b                   11.7376(8)
_cell_length_c                   6.2220(4)
_cell_angle_alpha                90
_cell_angle_beta                 90.0466(18)
_cell_angle_gamma                90
_cell_volume                     853.167
loop_
_atom_site_label
_atom_site_type_symbol
_atom_site_fract_x
_atom_site_fract_y
_atom_site_fract_z
Ag1 Ag 0.54070(4) 0.87002(3) 0.79941(8)
Ag2 Ag 0.34628(4) 0.65018(3) 0.89841(7)
S1 S 0.63688(9) 0.59636(8) 0.79269(18)
Cl1 Cl 0.96623(14) 0.63697(11) 0.1949(3)
O1 O 0.6665(3) 0.7159(2) 0.7926(5)
O2 O 0.5211(3) 0.5781(3) 0.7053(6)
O3 O 0.6512(3) 0.5435(2) 1.0045(5)
O4 O 0.6585(3) 0.3406(2) 0.6948(6)
C1 C 0.7310(3) 0.5276(3) 0.6128(7)
C2 C 0.7268(4) 0.4085(3) 0.5832(7)
C3 C 0.8050(4) 0.3641(4) 0.4279(8)
H1 H 0.8062 0.2860 0.4029
C4 C 0.8783(4) 0.4325(4) 0.3148(8)
H2 H 0.9285 0.4004 0.2159
C5 C 0.8778(4) 0.5487(4) 0.3469(7)
C6 C 0.8059(4) 0.5972(4) 0.4979(8)
H3 H 0.8074 0.6753 0.5224
Ag1C Ag 0.54070(4) 0.62998(3) 1.29941(8)
Ag1A Ag 0.45930(4) 0.37002(3) 0.70059(8)
Ag1C_2 Ag 0.54070(4) 0.62998(3) 0.29941(8)
Ag2C Ag 0.34628(4) 0.84982(3) 0.39841(7)
Ag2B Ag 0.65372(4) 0.34982(3) 1.10159(7)
Ag2A Ag 0.65372(4) 0.15018(3) 0.60159(7)
Ag2B_2 Ag 0.65372(4) 0.34982(3) 0.10159(7)
O2A O 0.4789(3) 1.0781(3) 0.7947(6)
O2C O 0.5211(3) 0.9219(3) 1.2053(6)
O3C O 0.6512(3) 0.9565(2) 0.5045(5)
O3B O 0.3488(3) 0.4565(2) 0.9955(5)
O4A O 0.3415(3) 0.8406(2) 0.8052(6)
O4B O 0.3415(3) 0.6594(2) 1.3052(6)
C3B C 0.1950(4) 0.6359(4) 0.5721(8)
H1B H 0.1938 0.7140 0.5971
loop_
_geom_bond_atom_site_label_1
_geom_bond_atom_site_label_2
_geom_bond_site_symmetry_1
_geom_bond_site_symmetry_2
Ag1 O1 1_555 1_555
Ag2 O2 1_555 1_555
S1 O1 1_555 1_555
Cl1 C5 1_555 1_555
O2 S1 1_555 1_555
O3 S1 1_555 1_555
O4 C2 1_555 1_555
C1 S1 1_555 1_555
C2 C1 1_555 1_555
C3 C2 1_555 1_555
H1 C3 1_555 1_555
C4 C3 1_555 1_555
H2 C4 1_555 1_555
C5 C4 1_555 1_555
C6 C1 1_555 1_555
H3 C6 1_555 1_555
Ag1C O3 1_555 1_555
Ag1A O2 1_555 1_555
Ag1C_2 O2 1_555 1_555
Ag2C O4A 1_555 1_555
Ag2B O3 1_555 1_555
Ag2A O4 1_555 1_555
Ag2B_2 C3 1_555 1_555
O2A Ag1 1_555 1_555
O2C Ag1 1_555 1_555
O3C Ag1 1_555 1_555
O3B Ag2 1_555 1_555
O4A Ag1 1_555 1_555
O4B Ag2 1_555 1_555
C3B Ag2 1_555 1_555
H1B C3B 1_555 1_555
Ag2 O4A 1_555 1_555
O4 Ag1A 1_555 1_555
O4 Ag2B 1_555 1_555
C5 C6 1_555 1_555
Ag1C O4B 1_555 1_555
Ag1A O3B 1_555 1_555

#END
