
#######################################################################
#
#                 Cambridge Crystallographic Data Centre
#                                CCDC 
#
#######################################################################
#
# If this CIF has been generated from an entry in the Cambridge 
# Structural Database, then it will include bibliographic, chemical, 
# crystal, experimental, refinement or atomic coordinate data resulting 
# from the CCDC's data processing and validation procedures.
#
#######################################################################

data_OZINAN
_symmetry_cell_setting           monoclinic
_symmetry_space_group_name_H-M   'P 21/c'
_symmetry_Int_Tables_number      14
_space_group_name_Hall           '-P 2ybc'
loop_
_symmetry_equiv_pos_site_id
_symmetry_equiv_pos_as_xyz
1 x,y,z
2 -x,1/2+y,1/2-z
3 -x,-y,-z
4 x,1/2-y,1/2+z
_cell_length_a                   9.6946(19)
_cell_length_b                   11.245(2)
_cell_length_c                   9.2827(19)
_cell_angle_alpha                90
_cell_angle_beta                 100.76(3)
_cell_angle_gamma                90
_cell_volume                     994.168
loop_
_atom_site_label
_atom_site_type_symbol
_atom_site_fract_x
_atom_site_fract_y
_atom_site_fract_z
Ag1 Ag 0.44992(3) 0.63212(2) 0.55533(3)
Ag2 Ag 0.25031(3) 0.37952(3) 0.61749(3)
Cl1 Cl 0.22065(9) 0.65096(8) -0.27364(8)
S1 S 0.22551(8) 0.48151(7) 0.27321(8)
O1 O 0.0463(4) 0.3009(4) 0.5816(7)
H1 H -0.011(8) 0.352(5) 0.606(10)
H2 H 0.038(9) 0.235(4) 0.625(9)
O2 O 0.2319(3) 0.5603(2) 0.3993(3)
O3 O 0.0834(3) 0.4620(2) 0.1966(3)
O4 O 0.3011(3) 0.3701(2) 0.3155(3)
O5 O 0.5307(2) 0.5638(2) 0.3252(2)
C1 C 0.3150(3) 0.5542(2) 0.1488(3)
C2 C 0.4580(3) 0.5855(3) 0.1921(3)
C3 C 0.5222(3) 0.6407(3) 0.0846(4)
H3 H 0.6156 0.6641 0.1096
C4 C 0.4498(3) 0.6612(3) -0.0572(3)
H4 H 0.4947 0.6967 -0.1263
C5 C 0.3096(4) 0.6279(3) -0.0945(3)
C6 C 0.2416(3) 0.5745(3) 0.0065(3)
H5 H 0.1479 0.5522 -0.0199
Ag1B Ag 0.55008(3) 0.36788(2) 0.44467(3)
Ag1C Ag 0.44992(3) 0.86788(2) 0.05533(3)
Ag2B Ag 0.74969(3) 0.62048(3) 0.38251(3)
O4B O 0.6989(3) 0.6299(2) 0.6845(3)
O5B O 0.4693(2) 0.4362(2) 0.6748(2)
C3C C 0.5222(3) 0.8593(3) 0.5846(4)
H3C H 0.6156 0.8359 0.6096
C4C C 0.4498(3) 0.8388(3) 0.4428(3)
H4C H 0.4947 0.8033 0.3737
loop_
_geom_bond_atom_site_label_1
_geom_bond_atom_site_label_2
_geom_bond_site_symmetry_1
_geom_bond_site_symmetry_2
Ag1 O2 1_555 1_555
Ag2 O1 1_555 1_555
Cl1 C5 1_555 1_555
S1 O2 1_555 1_555
O1 H1 1_555 1_555
H2 O1 1_555 1_555
O2 Ag2 1_555 1_555
O3 S1 1_555 1_555
O4 Ag2 1_555 1_555
O5 Ag1 1_555 1_555
C1 S1 1_555 1_555
C2 O5 1_555 1_555
C3 C2 1_555 1_555
H3 C3 1_555 1_555
C4 C3 1_555 1_555
H4 C4 1_555 1_555
C5 C4 1_555 1_555
C6 C1 1_555 1_555
H5 C6 1_555 1_555
Ag1B O4 1_555 1_555
Ag1C C3 1_555 1_555
Ag2B O5 1_555 1_555
O4B Ag1 1_555 1_555
O5B Ag1 1_555 1_555
C3C Ag1 1_555 1_555
H3C C3C 1_555 1_555
C4C Ag1 1_555 1_555
H4C C4C 1_555 1_555
Ag2 O5B 1_555 1_555
S1 O4 1_555 1_555
O5 Ag1B 1_555 1_555
C1 C2 1_555 1_555
C4 Ag1C 1_555 1_555
C5 C6 1_555 1_555
Ag1B O5B 1_555 1_555
Ag2B O4B 1_555 1_555
C3C C4C 1_555 1_555

#END
