
#######################################################################
#
#                 Cambridge Crystallographic Data Centre
#                                CCDC 
#
#######################################################################
#
# If this CIF has been generated from an entry in the Cambridge 
# Structural Database, then it will include bibliographic, chemical, 
# crystal, experimental, refinement or atomic coordinate data resulting 
# from the CCDC's data processing and validation procedures.
#
#######################################################################

data_OZINER
_symmetry_cell_setting           monoclinic
_symmetry_space_group_name_H-M   'P 21/c'
_symmetry_Int_Tables_number      14
_space_group_name_Hall           '-P 2ybc'
loop_
_symmetry_equiv_pos_site_id
_symmetry_equiv_pos_as_xyz
1 x,y,z
2 -x,1/2+y,1/2-z
3 -x,-y,-z
4 x,1/2-y,1/2+z
_cell_length_a                   9.7366(19)
_cell_length_b                   11.322(2)
_cell_length_c                   9.4589(19)
_cell_angle_alpha                90
_cell_angle_beta                 101.22(3)
_cell_angle_gamma                90
_cell_volume                     1022.8
loop_
_atom_site_label
_atom_site_type_symbol
_atom_site_fract_x
_atom_site_fract_y
_atom_site_fract_z
Ag1 Ag 0.44845(4) 0.36852(3) 0.05802(3)
Ag2 Ag 0.25148(4) 0.62221(4) 1.10908(4)
Br1 Br 0.22094(5) 0.35514(4) 0.22001(4)
S1 S 0.22409(10) 0.51600(9) 0.77449(10)
O1 O 0.3002(4) 0.6252(3) 0.8212(4)
O2 O 0.0505(5) 0.7041(5) 1.0865(8)
H1 H -0.023(6) 0.667(7) 1.097(11)
H2 H 0.049(9) 0.774(3) 1.121(10)
O3 O 0.2267(3) 0.4360(3) 0.8955(3)
O4 O 0.0840(3) 0.5378(3) 0.6950(3)
O5 O 0.5277(3) 0.4311(3) 0.8326(3)
C1 C 0.3157(4) 0.4461(3) 0.6541(4)
C2 C 0.4576(4) 0.4125(3) 0.6994(4)
C3 C 0.5234(4) 0.3593(3) 0.5950(4)
H3 H 0.6161 0.3351 0.6216
C4 C 0.4544(4) 0.3419(3) 0.4548(4)
H4 H 0.5008 0.3082 0.3877
C5 C 0.3142(4) 0.3755(3) 0.4144(4)
C6 C 0.2453(4) 0.4276(3) 0.5127(4)
H5 H 0.1521 0.4503 0.4847
Ag1B Ag 0.55155(4) 0.63148(3) -0.05802(3)
Ag1_2 Ag 0.44845(4) 0.36852(3) 1.05802(3)
Ag1B_2 Ag 0.55155(4) 0.63148(3) 0.94198(3)
Ag1C Ag 0.44845(4) 0.13148(3) 0.55802(3)
Ag2_2 Ag 0.25148(4) 0.62221(4) 0.10908(4)
Ag2B Ag 0.74852(4) 0.37779(4) -0.10908(4)
Ag2B_2 Ag 0.74852(4) 0.37779(4) 0.89092(4)
O1B O 0.6998(4) 0.3748(3) 0.1788(4)
O3_2 O 0.2267(3) 0.4360(3) -0.1045(3)
O5B O 0.4723(3) 0.5689(3) 0.1674(3)
O5_2 O 0.5277(3) 0.4311(3) -0.1674(3)
O5B_2 O 0.4723(3) 0.5689(3) 1.1674(3)
C3C C 0.5234(4) 0.1407(3) 0.0950(4)
H3C H 0.6161 0.1649 0.1216
C4C C 0.4544(4) 0.1581(3) -0.0452(4)
H4C H 0.5008 0.1918 -0.1123
loop_
_geom_bond_atom_site_label_1
_geom_bond_atom_site_label_2
_geom_bond_site_symmetry_1
_geom_bond_site_symmetry_2
Ag1 Br1 1_555 1_555
Ag2 O1 1_555 1_555
Br1 C5 1_555 1_555
S1 O1 1_555 1_555
O1 Ag1B_2 1_555 1_555
O2 Ag2 1_555 1_555
H1 O2 1_555 1_555
H2 O2 1_555 1_555
O3 Ag2 1_555 1_555
O4 S1 1_555 1_555
O5 C2 1_555 1_555
C1 S1 1_555 1_555
C2 C1 1_555 1_555
C3 C2 1_555 1_555
H3 C3 1_555 1_555
C4 C3 1_555 1_555
H4 C4 1_555 1_555
C5 C4 1_555 1_555
C6 C1 1_555 1_555
H5 C6 1_555 1_555
Ag1B O5B 1_555 1_555
Ag1_2 O3 1_555 1_555
Ag1B_2 O5 1_555 1_555
Ag1C C3 1_555 1_555
Ag2_2 O3_2 1_555 1_555
Ag2B O1B 1_555 1_555
Ag2B_2 O5 1_555 1_555
O1B Ag1 1_555 1_555
O3_2 Ag1 1_555 1_555
O5B Ag1 1_555 1_555
O5_2 Ag1 1_555 1_555
O5B_2 Ag2 1_555 1_555
C3C Ag1 1_555 1_555
H3C C3C 1_555 1_555
C4C Ag1 1_555 1_555
H4C C4C 1_555 1_555
S1 O3 1_555 1_555
O5 Ag1_2 1_555 1_555
C4 Ag1C 1_555 1_555
C5 C6 1_555 1_555
Ag1B O5_2 1_555 1_555
Ag1_2 O5B_2 1_555 1_555
Ag1B_2 O5B_2 1_555 1_555
Ag2_2 O5B 1_555 1_555
Ag2B O5_2 1_555 1_555
C3C C4C 1_555 1_555

#END
