
#######################################################################
#
#                 Cambridge Crystallographic Data Centre
#                                CCDC 
#
#######################################################################
#
# If this CIF has been generated from an entry in the Cambridge 
# Structural Database, then it will include bibliographic, chemical, 
# crystal, experimental, refinement or atomic coordinate data resulting 
# from the CCDC's data processing and validation procedures.
#
#######################################################################

data_OZUJUP
_symmetry_cell_setting           triclinic
_symmetry_space_group_name_H-M   'P -1'
_symmetry_Int_Tables_number      2
_space_group_name_Hall           '-P 1'
loop_
_symmetry_equiv_pos_site_id
_symmetry_equiv_pos_as_xyz
1 x,y,z
2 -x,-y,-z
_cell_length_a                   13.4616(4)
_cell_length_b                   13.5753(5)
_cell_length_c                   13.8080(5)
_cell_angle_alpha                103.196(3)
_cell_angle_beta                 108.148(3)
_cell_angle_gamma                111.245(3)
_cell_volume                     2062.42
loop_
_atom_site_label
_atom_site_type_symbol
_atom_site_fract_x
_atom_site_fract_y
_atom_site_fract_z
Cu1 Cu 0.39980(3) -0.18813(3) 0.05324(3)
Cu2 Cu 0.29456(3) -0.20978(3) 0.22607(3)
Cl1 Cl 0.31717(5) -0.34720(5) 0.10453(5)
Cl2 Cl 0.37896(6) -0.05175(5) 0.17966(5)
P1 P 0.35055(5) -0.17671(5) 0.40379(5)
P2 P 0.59301(5) -0.13257(5) 0.09795(5)
P3 P 0.71364(5) 0.22748(5) 0.12397(5)
N1 N 0.1150(2) -0.2710(2) 0.15831(19)
C1 C 0.4395(2) -0.0265(2) 0.5005(2)
C2 C 0.4347(2) -0.2448(2) 0.46183(19)
C3 C 0.4308(2) -0.3381(2) 0.3903(2)
C4 C 0.4973(3) -0.3897(2) 0.4303(2)
C5 C 0.5692(3) -0.3474(3) 0.5415(3)
C6 C 0.5744(3) -0.2548(3) 0.6124(3)
C7 C 0.5071(3) -0.2037(2) 0.5742(2)
C8 C 0.2219(2) -0.2291(2) 0.43317(19)
C9 C 0.1463(3) -0.3459(2) 0.3867(2)
C10 C 0.0439(3) -0.3901(3) 0.4004(3)
C11 C 0.0148(3) -0.3188(3) 0.4593(3)
C12 C 0.0881(3) -0.2030(3) 0.5050(3)
C13 C 0.1919(2) -0.1570(2) 0.4934(2)
C14 C 0.0211(3) -0.3045(3) 0.1484(2)
C15 C -0.0997(3) -0.3483(4) 0.1370(4)
C16 C 0.6878(2) -0.1217(2) 0.23247(19)
C17 C 0.6380(2) -0.1524(2) 0.3026(2)
C18 C 0.7067(2) -0.1560(2) 0.3998(2)
C19 C 0.8227(3) -0.1299(3) 0.4267(2)
C20 C 0.8727(2) -0.0988(3) 0.3581(2)
C21 C 0.8064(2) -0.0938(2) 0.2618(2)
C22 C 0.6210(2) -0.2313(2) 0.00956(19)
C23 C 0.5980(3) -0.3352(2) 0.0204(3)
C24 C 0.6165(2) -0.4154(2) -0.0420(3)
C25 C 0.6607(3) -0.3920(3) -0.1161(3)
C26 C 0.6922(5) -0.2872(4) -0.1233(3)
C27 C 0.6695(5) -0.2072(3) -0.0624(3)
C28 C 0.6683(2) 0.1037(2) 0.1635(2)
C29 C 0.6728(2) 0.0045(2) 0.0890(2)
C30 C 0.70772(19) 0.33849(19) 0.22239(18)
C31 C 0.6899(3) 0.4216(2) 0.1885(2)
C32 C 0.6867(3) 0.5103(3) 0.2587(2)
C33 C 0.6997(2) 0.5157(2) 0.3626(2)
C34 C 0.7159(3) 0.4334(3) 0.3965(2)
C35 C 0.7211(3) 0.3454(2) 0.3278(2)
C36 C 0.8731(2) 0.2819(2) 0.17024(19)
C37 C 0.9274(2) 0.3408(2) 0.1161(2)
C38 C 1.0491(3) 0.3871(3) 0.1515(2)
C39 C 1.1172(3) 0.3755(3) 0.2401(3)
C40 C 1.0655(3) 0.3196(4) 0.2960(4)
C41 C 0.9444(3) 0.2723(3) 0.2606(3)
H1 H 0.398(2) 0.012(2) 0.474(2)
H2 H 0.448(2) -0.019(2) 0.579(2)
H3 H 0.38210 -0.36680 0.31340
H4 H 0.49330 -0.45410 0.38100
H5 H 0.61520 -0.38240 0.56900
H6 H 0.62500 -0.22530 0.68900
H7 H 0.51020 -0.14060 0.62450
H8 H 0.16520 -0.39620 0.34490
H9 H -0.00650 -0.47050 0.36860
H10 H -0.05560 -0.34930 0.46850
H11 H 0.06750 -0.15340 0.54540
H12 H 0.24230 -0.07670 0.52630
H13 H -0.09900 -0.34100 0.20950
H14 H -0.14580 -0.42920 0.08680
H15 H -0.13560 -0.30430 0.10690
H16 H 0.55760 -0.17090 0.28420
H17 H 0.67280 -0.17670 0.44760
H18 H 0.86870 -0.13320 0.49270
H19 H 0.95310 -0.08080 0.37700
H20 H 0.84170 -0.07120 0.21550
H21 H 0.56870 -0.35160 0.07230
H22 H 0.59890 -0.48670 -0.03400
H23 H 0.66940 -0.44880 -0.16240
H24 H 0.72940 -0.26870 -0.16950
H25 H 0.68750 -0.13600 -0.07060
H26 H 0.589(3) 0.081(2) 0.151(2)
H27 H 0.711(2) 0.122(2) 0.237(2)
H28 H 0.750(3) 0.016(2) 0.106(2)
H29 H 0.640(2) -0.007(2) 0.018(2)
H30 H 0.67980 0.41780 0.11630
H31 H 0.67550 0.56740 0.23480
H32 H 0.69750 0.57640 0.41080
H33 H 0.72360 0.43660 0.46810
H34 H 0.73390 0.28960 0.35300
H35 H 0.88100 0.34970 0.05430
H36 H 1.08510 0.42720 0.11360
H37 H 1.20010 0.40600 0.26300
H38 H 1.11290 0.31340 0.35920
H39 H 0.90930 0.23240 0.29910
Cu1A Cu 0.60020(3) 0.18813(3) -0.05324(3)
Cu2A Cu 0.70544(3) 0.20978(3) -0.22607(3)
Cu2A_2 Cu 0.70544(3) 0.20978(3) 0.77393(3)
Cl1A Cl 0.68283(5) 0.34720(5) -0.10453(5)
Cl2A Cl 0.62104(6) 0.05175(5) -0.17966(5)
P1A P 0.64945(5) 0.17671(5) 0.59621(5)
P1A_2 P 0.64945(5) 0.17671(5) -0.40379(5)
P2A P 0.40699(5) 0.13257(5) -0.09795(5)
P3A P 0.28636(5) -0.22748(5) -0.12397(5)
N1A N 0.8850(2) 0.2710(2) -0.15831(19)
C1A C 0.5605(2) 0.0265(2) 0.4995(2)
C2A C 0.5653(2) 0.2448(2) 0.53817(19)
C3A C 0.5692(2) 0.3381(2) 0.6097(2)
C4A C 0.5027(3) 0.3897(2) 0.5697(2)
C5A C 0.4308(3) 0.3474(3) 0.4585(3)
C6A C 0.4256(3) 0.2548(3) 0.3876(3)
C7A C 0.4929(3) 0.2037(2) 0.4258(2)
C8A C 0.7781(2) 0.2291(2) 0.56683(19)
C9A C 0.8537(3) 0.3459(2) 0.6133(2)
C10A C 0.9561(3) 0.3901(3) 0.5996(3)
C11A C 0.9852(3) 0.3188(3) 0.5407(3)
C12A C 0.9119(3) 0.2030(3) 0.4950(3)
C13A C 0.8081(2) 0.1570(2) 0.5066(2)
C14A C 0.9789(3) 0.3045(3) -0.1484(2)
C15A C 1.0997(3) 0.3483(4) -0.1370(4)
C16A C 0.3122(2) 0.1217(2) -0.23247(19)
C17A C 0.3620(2) 0.1524(2) -0.3026(2)
C18A C 0.2933(2) 0.1560(2) -0.3998(2)
C19A C 0.1773(3) 0.1299(3) -0.4267(2)
C20A C 0.1273(2) 0.0988(3) -0.3581(2)
C21A C 0.1936(2) 0.0938(2) -0.2618(2)
C22A C 0.3790(2) 0.2313(2) -0.00956(19)
C23A C 0.4020(3) 0.3352(2) -0.0204(3)
C24A C 0.3835(2) 0.4154(2) 0.0420(3)
C25A C 0.3393(3) 0.3920(3) 0.1161(3)
C26A C 0.3078(5) 0.2872(4) 0.1233(3)
C27A C 0.3305(5) 0.2072(3) 0.0624(3)
C28A C 0.3317(2) -0.1037(2) -0.1635(2)
C29A C 0.3272(2) -0.0045(2) -0.0890(2)
C30A C 0.29228(19) -0.33849(19) -0.22239(18)
C31A C 0.3101(3) -0.4216(2) -0.1885(2)
C32A C 0.3133(3) -0.5103(3) -0.2587(2)
C33A C 0.3003(2) -0.5157(2) -0.3626(2)
C34A C 0.2841(3) -0.4334(3) -0.3965(2)
C35A C 0.2789(3) -0.3454(2) -0.3278(2)
C36A C 0.1269(2) -0.2819(2) -0.17024(19)
C37A C 0.0726(2) -0.3408(2) -0.1161(2)
C38A C -0.0491(3) -0.3871(3) -0.1515(2)
C39A C -0.1172(3) -0.3755(3) -0.2401(3)
C40A C -0.0655(3) -0.3196(4) -0.2960(4)
C41A C 0.0556(3) -0.2723(3) -0.2606(3)
H1A H 0.602(2) -0.012(2) 0.526(2)
H2A H 0.552(2) 0.019(2) 0.421(2)
H3A H 0.61790 0.36680 0.68660
H4A H 0.50670 0.45410 0.61900
H5A H 0.38480 0.38240 0.43100
H6A H 0.37500 0.22530 0.31100
H7A H 0.48980 0.14060 0.37550
H8A H 0.83480 0.39620 0.65510
H9A H 1.00650 0.47050 0.63140
H10A H 1.05560 0.34930 0.53150
H11A H 0.93250 0.15340 0.45460
H12A H 0.75770 0.07670 0.47370
H13A H 1.09900 0.34100 -0.20950
H14A H 1.14580 0.42920 -0.08680
H15A H 1.13560 0.30430 -0.10690
H16A H 0.44240 0.17090 -0.28420
H17A H 0.32720 0.17670 -0.44760
H18A H 0.13130 0.13320 -0.49270
H19A H 0.04690 0.08080 -0.37700
H20A H 0.15830 0.07120 -0.21550
H21A H 0.43130 0.35160 -0.07230
H22A H 0.40110 0.48670 0.03400
H23A H 0.33060 0.44880 0.16240
H24A H 0.27060 0.26870 0.16950
H25A H 0.31250 0.13600 0.07060
H26A H 0.411(3) -0.081(2) -0.151(2)
H27A H 0.289(2) -0.122(2) -0.237(2)
H28A H 0.250(3) -0.016(2) -0.106(2)
H29A H 0.360(2) 0.007(2) -0.018(2)
H30A H 0.32020 -0.41780 -0.11630
H31A H 0.32450 -0.56740 -0.23480
H32A H 0.30250 -0.57640 -0.41080
H33A H 0.27640 -0.43660 -0.46810
H34A H 0.26610 -0.28960 -0.35300
H35A H 0.11900 -0.34970 -0.05430
H36A H -0.08510 -0.42720 -0.11360
H37A H -0.20010 -0.40600 -0.26300
H38A H -0.11290 -0.31340 -0.35920
H39A H 0.09070 -0.23240 -0.29910
loop_
_geom_bond_atom_site_label_1
_geom_bond_atom_site_label_2
_geom_bond_site_symmetry_1
_geom_bond_site_symmetry_2
Cu1 Cl1 1_555 1_555
Cu2 Cl1 1_555 1_555
Cl2 Cu1 1_555 1_555
P1 Cu2 1_555 1_555
P2 Cu1 1_555 1_555
P3 C28 1_555 1_555
N1 Cu2 1_555 1_555
C1 P1 1_555 1_555
C2 P1 1_555 1_555
C3 C2 1_555 1_555
C4 C3 1_555 1_555
C5 C4 1_555 1_555
C6 C5 1_555 1_555
C7 C2 1_555 1_555
C8 P1 1_555 1_555
C9 C8 1_555 1_555
C10 C9 1_555 1_555
C11 C10 1_555 1_555
C12 C11 1_555 1_555
C13 C8 1_555 1_555
C14 N1 1_555 1_555
C15 C14 1_555 1_555
C16 P2 1_555 1_555
C17 C16 1_555 1_555
C18 C17 1_555 1_555
C19 C18 1_555 1_555
C20 C19 1_555 1_555
C21 C16 1_555 1_555
C22 P2 1_555 1_555
C23 C22 1_555 1_555
C24 C23 1_555 1_555
C25 C24 1_555 1_555
C26 C25 1_555 1_555
C27 C22 1_555 1_555
C28 C29 1_555 1_555
C29 P2 1_555 1_555
C30 P3 1_555 1_555
C31 C30 1_555 1_555
C32 C31 1_555 1_555
C33 C32 1_555 1_555
C34 C33 1_555 1_555
C35 C30 1_555 1_555
C36 P3 1_555 1_555
C37 C36 1_555 1_555
C38 C37 1_555 1_555
C39 C38 1_555 1_555
C40 C39 1_555 1_555
C41 C36 1_555 1_555
H1 C1 1_555 1_555
H2 C1 1_555 1_555
H3 C3 1_555 1_555
H4 C4 1_555 1_555
H5 C5 1_555 1_555
H6 C6 1_555 1_555
H7 C7 1_555 1_555
H8 C9 1_555 1_555
H9 C10 1_555 1_555
H10 C11 1_555 1_555
H11 C12 1_555 1_555
H12 C13 1_555 1_555
H13 C15 1_555 1_555
H14 C15 1_555 1_555
H15 C15 1_555 1_555
H16 C17 1_555 1_555
H17 C18 1_555 1_555
H18 C19 1_555 1_555
H19 C20 1_555 1_555
H20 C21 1_555 1_555
H21 C23 1_555 1_555
H22 C24 1_555 1_555
H23 C25 1_555 1_555
H24 C26 1_555 1_555
H25 C27 1_555 1_555
H26 C28 1_555 1_555
H27 C28 1_555 1_555
H28 C29 1_555 1_555
H29 C29 1_555 1_555
H30 C31 1_555 1_555
H31 C32 1_555 1_555
H32 C33 1_555 1_555
H33 C34 1_555 1_555
H34 C35 1_555 1_555
H35 C37 1_555 1_555
H36 C38 1_555 1_555
H37 C39 1_555 1_555
H38 C40 1_555 1_555
H39 C41 1_555 1_555
Cu1A P3 1_555 1_555
Cu2A Cl1A 1_555 1_555
Cu2A_2 P1A 1_555 1_555
Cl1A Cu1A 1_555 1_555
Cl2A Cu1A 1_555 1_555
P1A C1A 1_555 1_555
P1A_2 Cu2A 1_555 1_555
P2A Cu1A 1_555 1_555
P3A Cu1 1_555 1_555
N1A Cu2A 1_555 1_555
C1A C1 1_555 1_555
C2A P1A 1_555 1_555
C3A C2A 1_555 1_555
C4A C3A 1_555 1_555
C5A C4A 1_555 1_555
C6A C5A 1_555 1_555
C7A C2A 1_555 1_555
C8A P1A 1_555 1_555
C9A C8A 1_555 1_555
C10A C9A 1_555 1_555
C11A C10A 1_555 1_555
C12A C11A 1_555 1_555
C13A C8A 1_555 1_555
C14A N1A 1_555 1_555
C15A C14A 1_555 1_555
C16A P2A 1_555 1_555
C17A C16A 1_555 1_555
C18A C17A 1_555 1_555
C19A C18A 1_555 1_555
C20A C19A 1_555 1_555
C21A C16A 1_555 1_555
C22A P2A 1_555 1_555
C23A C22A 1_555 1_555
C24A C23A 1_555 1_555
C25A C24A 1_555 1_555
C26A C25A 1_555 1_555
C27A C22A 1_555 1_555
C28A P3A 1_555 1_555
C29A P2A 1_555 1_555
C30A P3A 1_555 1_555
C31A C30A 1_555 1_555
C32A C31A 1_555 1_555
C33A C32A 1_555 1_555
C34A C33A 1_555 1_555
C35A C30A 1_555 1_555
C36A P3A 1_555 1_555
C37A C36A 1_555 1_555
C38A C37A 1_555 1_555
C39A C38A 1_555 1_555
C40A C39A 1_555 1_555
C41A C36A 1_555 1_555
H1A C1A 1_555 1_555
H2A C1A 1_555 1_555
H3A C3A 1_555 1_555
H4A C4A 1_555 1_555
H5A C5A 1_555 1_555
H6A C6A 1_555 1_555
H7A C7A 1_555 1_555
H8A C9A 1_555 1_555
H9A C10A 1_555 1_555
H10A C11A 1_555 1_555
H11A C12A 1_555 1_555
H12A C13A 1_555 1_555
H13A C15A 1_555 1_555
H14A C15A 1_555 1_555
H15A C15A 1_555 1_555
H16A C17A 1_555 1_555
H17A C18A 1_555 1_555
H18A C19A 1_555 1_555
H19A C20A 1_555 1_555
H20A C21A 1_555 1_555
H21A C23A 1_555 1_555
H22A C24A 1_555 1_555
H23A C25A 1_555 1_555
H24A C26A 1_555 1_555
H25A C27A 1_555 1_555
H26A C28A 1_555 1_555
H27A C28A 1_555 1_555
H28A C29A 1_555 1_555
H29A C29A 1_555 1_555
H30A C31A 1_555 1_555
H31A C32A 1_555 1_555
H32A C33A 1_555 1_555
H33A C34A 1_555 1_555
H34A C35A 1_555 1_555
H35A C37A 1_555 1_555
H36A C38A 1_555 1_555
H37A C39A 1_555 1_555
H38A C40A 1_555 1_555
H39A C41A 1_555 1_555
Cu2 Cl2 1_555 1_555
C6 C7 1_555 1_555
C12 C13 1_555 1_555
C20 C21 1_555 1_555
C26 C27 1_555 1_555
C34 C35 1_555 1_555
C40 C41 1_555 1_555
Cu2A Cl2A 1_555 1_555
C6A C7A 1_555 1_555
C12A C13A 1_555 1_555
C20A C21A 1_555 1_555
C26A C27A 1_555 1_555
C28A C29A 1_555 1_555
C34A C35A 1_555 1_555
C40A C41A 1_555 1_555

#END
