
#######################################################################
#
#                 Cambridge Crystallographic Data Centre
#                                CCDC 
#
#######################################################################
#
# If this CIF has been generated from an entry in the Cambridge 
# Structural Database, then it will include bibliographic, chemical, 
# crystal, experimental, refinement or atomic coordinate data resulting 
# from the CCDC's data processing and validation procedures.
#
#######################################################################

data_OZUKIE
_symmetry_cell_setting           triclinic
_symmetry_space_group_name_H-M   'P -1'
_symmetry_Int_Tables_number      2
_space_group_name_Hall           '-P 1'
loop_
_symmetry_equiv_pos_site_id
_symmetry_equiv_pos_as_xyz
1 x,y,z
2 -x,-y,-z
_cell_length_a                   9.7221(3)
_cell_length_b                   13.3548(5)
_cell_length_c                   14.1771(5)
_cell_angle_alpha                66.767(3)
_cell_angle_beta                 82.514(3)
_cell_angle_gamma                87.967(3)
_cell_volume                     1676.77
loop_
_atom_site_label
_atom_site_type_symbol
_atom_site_fract_x
_atom_site_fract_y
_atom_site_fract_z
I1 I 0.74789(2) 0.25764(1) 0.23332(1)
I2 I 0.73566(2) 0.44250(1) 0.41844(1)
Cu1 Cu 0.87420(4) 0.41384(3) 0.26056(3)
Cu2 Cu 0.61957(4) 0.27465(3) 0.40231(3)
S1 S 1.28599(7) 0.29710(6) 0.52141(5)
S2 S 1.37785(7) 0.51514(6) 0.31946(6)
S3 S 1.26964(7) 0.30433(6) 0.29197(5)
P1 P 1.40501(7) 0.34556(6) 0.37614(5)
P2 P 1.08677(7) 0.37893(6) 0.32667(5)
P3 P 1.09751(7) 0.37502(6) 0.48524(5)
P4 P 1.16173(7) 0.52638(6) 0.34538(6)
P5 P 0.62224(6) 0.11424(5) 0.54115(5)
P6 P 0.91553(7) 0.56736(6) 0.11600(5)
C1 C 0.5708(3) -0.0057(2) 0.5200(2)
C2 C 0.7918(3) 0.0721(2) 0.5831(2)
C3 C 0.8051(3) -0.0170(3) 0.6752(2)
C4 C 0.9360(3) -0.0504(3) 0.7046(2)
C5 C 1.0531(3) 0.0059(3) 0.6418(2)
C6 C 1.0409(3) 0.0927(2) 0.5493(2)
C7 C 0.9100(3) 0.1266(2) 0.5203(2)
C8 C 0.5183(3) 0.1058(2) 0.6610(2)
C9 C 0.4311(3) 0.0176(2) 0.7233(2)
C10 C 0.3555(3) 0.0160(3) 0.8143(2)
C11 C 0.3671(3) 0.1024(3) 0.8438(2)
C12 C 0.4535(3) 0.1899(3) 0.7828(2)
C13 C 0.5288(3) 0.1924(3) 0.6915(2)
C14 C 1.0307(3) 0.5436(2) 0.0137(2)
C15 C 0.7666(3) 0.6356(2) 0.0525(2)
C16 C 0.7703(3) 0.7452(3) -0.0131(2)
C17 C 0.6547(4) 0.7947(3) -0.0589(2)
C18 C 0.5342(3) 0.7341(3) -0.0414(3)
C19 C 0.5295(3) 0.6250(3) 0.0239(3)
C20 C 0.6441(3) 0.5757(3) 0.0716(3)
C21 C 1.0026(3) 0.6763(2) 0.1333(2)
C22 C 1.1379(3) 0.7113(3) 0.0901(2)
C23 C 1.2027(4) 0.7887(3) 0.1139(3)
C24 C 1.1306(4) 0.8318(3) 0.1798(3)
C25 C 0.9948(4) 0.7990(3) 0.2219(3)
C26 C 0.9311(3) 0.7208(2) 0.1996(2)
H1 H 0.64230 -0.01820 0.46960
H2 H 0.56750 -0.07040 0.58600
H3 H 0.72450 -0.05510 0.71810
H4 H 0.94490 -0.11130 0.76720
H5 H 1.14240 -0.01540 0.66250
H6 H 1.12170 0.12930 0.50550
H7 H 0.90170 0.18720 0.45730
H8 H 0.42330 -0.04190 0.70360
H9 H 0.29590 -0.04420 0.85610
H10 H 0.31560 0.10130 0.90600
H11 H 0.46170 0.24890 0.80330
H12 H 0.58760 0.25320 0.64970
H13 H 1.04460 0.61240 -0.04860
H14 H 1.12240 0.52000 0.03740
H15 H 0.85320 0.78680 -0.02680
H16 H 0.65800 0.87020 -0.10230
H17 H 0.45550 0.76720 -0.07390
H18 H 0.44690 0.58330 0.03610
H19 H 0.63910 0.50100 0.11740
H20 H 1.18670 0.68240 0.04410
H21 H 1.29570 0.81160 0.08510
H22 H 1.17450 0.88430 0.19620
H23 H 0.94530 0.82990 0.26590
H24 H 0.83860 0.69730 0.22950
I1_2 I -0.25211(2) 0.25764(1) 0.23332(1)
I1A I 0.25211(2) -0.25764(1) 0.76668(1)
I2_2 I -0.26434(2) 0.44250(1) 0.41844(1)
I2A I 0.26434(2) -0.44250(1) 0.58156(1)
Cu1A Cu 1.12580(4) 0.58616(3) -0.26056(3)
Cu1_2 Cu -0.12580(4) 0.41384(3) 0.26056(3)
Cu1A_2 Cu 0.12580(4) -0.41384(3) 0.73944(3)
Cu2_2 Cu 1.61957(4) 0.27465(3) 0.40231(3)
Cu2A Cu 0.38043(4) -0.27465(3) 0.59769(3)
S1_2 S 0.28599(7) 0.29710(6) 0.52141(5)
S2_2 S 0.37785(7) 0.51514(6) 0.31946(6)
S3_2 S 0.26964(7) 0.30433(6) 0.29197(5)
P1_2 P 0.40501(7) 0.34556(6) 0.37614(5)
P1A P 0.59499(7) -0.34556(6) 0.62386(5)
P2_2 P 0.08677(7) 0.37893(6) 0.32667(5)
P3_2 P 0.09751(7) 0.37502(6) 0.48524(5)
P4_2 P 0.16173(7) 0.52638(6) 0.34538(6)
P5A P 0.37776(6) -0.11424(5) 0.45885(5)
P6A P 1.08447(7) 0.43264(6) -0.11600(5)
P6_2 P -0.08447(7) 0.56736(6) 0.11600(5)
C1A C 0.4292(3) 0.0057(2) 0.4800(2)
C2A C 0.2082(3) -0.0721(2) 0.4169(2)
C3A C 0.1949(3) 0.0170(3) 0.3248(2)
C4A C 0.0640(3) 0.0504(3) 0.2954(2)
C5A C -0.0531(3) -0.0059(3) 0.3582(2)
C6A C -0.0409(3) -0.0927(2) 0.4507(2)
C7A C 0.0900(3) -0.1266(2) 0.4797(2)
C8A C 0.4817(3) -0.1058(2) 0.3390(2)
C9A C 0.5689(3) -0.0176(2) 0.2767(2)
C10A C 0.6445(3) -0.0160(3) 0.1857(2)
C11A C 0.6329(3) -0.1024(3) 0.1562(2)
C12A C 0.5465(3) -0.1899(3) 0.2172(2)
C13A C 0.4712(3) -0.1924(3) 0.3085(2)
C14A C 0.9693(3) 0.4564(2) -0.0137(2)
C15A C 1.2334(3) 0.3644(2) -0.0525(2)
C16A C 1.2297(3) 0.2548(3) 0.0131(2)
C17A C 1.3453(4) 0.2053(3) 0.0589(2)
C18A C 1.4658(3) 0.2659(3) 0.0414(3)
C19A C 1.4705(3) 0.3750(3) -0.0239(3)
C20A C 1.3559(3) 0.4243(3) -0.0716(3)
C21A C 0.9974(3) 0.3237(2) -0.1333(2)
C22A C 0.8621(3) 0.2887(3) -0.0901(2)
C23A C 0.7973(4) 0.2113(3) -0.1139(3)
C24A C 0.8694(4) 0.1682(3) -0.1798(3)
C25A C 1.0052(4) 0.2010(3) -0.2219(3)
C26A C 1.0689(3) 0.2792(2) -0.1996(2)
H1A H 0.35770 0.01820 0.53040
H2A H 0.43250 0.07040 0.41400
H3A H 0.27550 0.05510 0.28190
H4A H 0.05510 0.11130 0.23280
H5A H -0.14240 0.01540 0.33750
H6A H -0.12170 -0.12930 0.49450
H7A H 0.09830 -0.18720 0.54270
H8A H 0.57670 0.04190 0.29640
H9A H 0.70410 0.04420 0.14390
H10A H 0.68440 -0.10130 0.09400
H11A H 0.53830 -0.24890 0.19670
H12A H 0.41240 -0.25320 0.35030
H13A H 0.95540 0.38760 0.04860
H14A H 0.87760 0.48000 -0.03740
H15A H 1.14680 0.21320 0.02680
H16A H 1.34200 0.12980 0.10230
H17A H 1.54450 0.23280 0.07390
H18A H 1.55310 0.41670 -0.03610
H19A H 1.36090 0.49900 -0.11740
H20A H 0.81330 0.31760 -0.04410
H21A H 0.70430 0.18840 -0.08510
H22A H 0.82550 0.11570 -0.19620
H23A H 1.05470 0.17010 -0.26590
H24A H 1.16140 0.30270 -0.22950
loop_
_geom_bond_atom_site_label_1
_geom_bond_atom_site_label_2
_geom_bond_site_symmetry_1
_geom_bond_site_symmetry_2
I1 Cu1 1_555 1_555
I2 Cu1 1_555 1_555
Cu1 P2 1_555 1_555
Cu2 I1 1_555 1_555
S1 P1 1_555 1_555
S2 P1 1_555 1_555
S3 P1 1_555 1_555
P1 Cu2_2 1_555 1_555
P2 S3 1_555 1_555
P3 S1 1_555 1_555
P4 S2 1_555 1_555
P5 Cu2 1_555 1_555
P6 Cu1 1_555 1_555
C1 P5 1_555 1_555
C2 P5 1_555 1_555
C3 C2 1_555 1_555
C4 C3 1_555 1_555
C5 C4 1_555 1_555
C6 C5 1_555 1_555
C7 C2 1_555 1_555
C8 P5 1_555 1_555
C9 C8 1_555 1_555
C10 C9 1_555 1_555
C11 C10 1_555 1_555
C12 C11 1_555 1_555
C13 C8 1_555 1_555
C14 P6 1_555 1_555
C15 P6 1_555 1_555
C16 C15 1_555 1_555
C17 C16 1_555 1_555
C18 C17 1_555 1_555
C19 C18 1_555 1_555
C20 C15 1_555 1_555
C21 P6 1_555 1_555
C22 C21 1_555 1_555
C23 C22 1_555 1_555
C24 C23 1_555 1_555
C25 C24 1_555 1_555
C26 C21 1_555 1_555
H1 C1 1_555 1_555
H2 C1 1_555 1_555
H3 C3 1_555 1_555
H4 C4 1_555 1_555
H5 C5 1_555 1_555
H6 C6 1_555 1_555
H7 C7 1_555 1_555
H8 C9 1_555 1_555
H9 C10 1_555 1_555
H10 C11 1_555 1_555
H11 C12 1_555 1_555
H12 C13 1_555 1_555
H13 C14 1_555 1_555
H14 C14 1_555 1_555
H15 C16 1_555 1_555
H16 C17 1_555 1_555
H17 C18 1_555 1_555
H18 C19 1_555 1_555
H19 C20 1_555 1_555
H20 C22 1_555 1_555
H21 C23 1_555 1_555
H22 C24 1_555 1_555
H23 C25 1_555 1_555
H24 C26 1_555 1_555
I1_2 Cu1_2 1_555 1_555
I1A Cu1A_2 1_555 1_555
I2_2 Cu1_2 1_555 1_555
I2A Cu1A_2 1_555 1_555
Cu1A P6A 1_555 1_555
Cu1_2 P2_2 1_555 1_555
Cu2A I1A 1_555 1_555
S1_2 P1_2 1_555 1_555
S2_2 P1_2 1_555 1_555
S3_2 P1_2 1_555 1_555
P1_2 Cu2 1_555 1_555
P1A Cu2A 1_555 1_555
P2_2 S3_2 1_555 1_555
P3_2 S1_2 1_555 1_555
P4_2 S2_2 1_555 1_555
P5A Cu2A 1_555 1_555
P6A C14A 1_555 1_555
P6_2 Cu1_2 1_555 1_555
C1A C1 1_555 1_555
C2A P5A 1_555 1_555
C3A C2A 1_555 1_555
C4A C3A 1_555 1_555
C5A C4A 1_555 1_555
C6A C5A 1_555 1_555
C7A C2A 1_555 1_555
C8A P5A 1_555 1_555
C9A C8A 1_555 1_555
C10A C9A 1_555 1_555
C11A C10A 1_555 1_555
C12A C11A 1_555 1_555
C13A C8A 1_555 1_555
C14A C14 1_555 1_555
C15A P6A 1_555 1_555
C16A C15A 1_555 1_555
C17A C16A 1_555 1_555
C18A C17A 1_555 1_555
C19A C18A 1_555 1_555
C20A C15A 1_555 1_555
C21A P6A 1_555 1_555
C22A C21A 1_555 1_555
C23A C22A 1_555 1_555
C24A C23A 1_555 1_555
C25A C24A 1_555 1_555
C26A C21A 1_555 1_555
H1A C1A 1_555 1_555
H2A C1A 1_555 1_555
H3A C3A 1_555 1_555
H4A C4A 1_555 1_555
H5A C5A 1_555 1_555
H6A C6A 1_555 1_555
H7A C7A 1_555 1_555
H8A C9A 1_555 1_555
H9A C10A 1_555 1_555
H10A C11A 1_555 1_555
H11A C12A 1_555 1_555
H12A C13A 1_555 1_555
H13A C14A 1_555 1_555
H14A C14A 1_555 1_555
H15A C16A 1_555 1_555
H16A C17A 1_555 1_555
H17A C18A 1_555 1_555
H18A C19A 1_555 1_555
H19A C20A 1_555 1_555
H20A C22A 1_555 1_555
H21A C23A 1_555 1_555
H22A C24A 1_555 1_555
H23A C25A 1_555 1_555
H24A C26A 1_555 1_555
I2 Cu2 1_555 1_555
P2 P3 1_555 1_555
P2 P4 1_555 1_555
P3 P4 1_555 1_555
C6 C7 1_555 1_555
C12 C13 1_555 1_555
C19 C20 1_555 1_555
C25 C26 1_555 1_555
I2A Cu2A 1_555 1_555
P2_2 P3_2 1_555 1_555
P2_2 P4_2 1_555 1_555
P3_2 P4_2 1_555 1_555
P5A C1A 1_555 1_555
C6A C7A 1_555 1_555
C12A C13A 1_555 1_555
C19A C20A 1_555 1_555
C25A C26A 1_555 1_555

#END
