
#######################################################################
#
#                 Cambridge Crystallographic Data Centre
#                                CCDC 
#
#######################################################################
#
# If this CIF has been generated from an entry in the Cambridge 
# Structural Database, then it will include bibliographic, chemical, 
# crystal, experimental, refinement or atomic coordinate data resulting 
# from the CCDC's data processing and validation procedures.
#
#######################################################################

data_OZUKAW
_symmetry_cell_setting           monoclinic
_symmetry_space_group_name_H-M   'P 21/c'
_symmetry_Int_Tables_number      14
_space_group_name_Hall           '-P 2ybc'
loop_
_symmetry_equiv_pos_site_id
_symmetry_equiv_pos_as_xyz
1 x,y,z
2 -x,1/2+y,1/2-z
3 -x,-y,-z
4 x,1/2-y,1/2+z
_cell_length_a                   9.4721(1)
_cell_length_b                   18.7795(2)
_cell_length_c                   11.7715(2)
_cell_angle_alpha                90
_cell_angle_beta                 109.293(2)
_cell_angle_gamma                90
_cell_volume                     1976.34
loop_
_atom_site_label
_atom_site_type_symbol
_atom_site_fract_x
_atom_site_fract_y
_atom_site_fract_z
I1 I 0.52087(2) 0.97749(1) 0.82050(1)
Cu1 Cu 0.34919(4) 0.97352(2) 0.95692(3)
S1 S 0.13533(6) 0.80803(3) 0.86661(6)
S2 S 0.33290(7) 0.81395(3) 1.14725(6)
S3 S 0.49184(6) 0.78906(3) 0.94641(6)
P1 P 0.33169(6) 0.85423(3) 0.98075(5)
P2 P 0.16749(8) 0.70024(4) 0.91487(7)
P3 P 0.30481(9) 0.70426(4) 1.11133(7)
P4 P 0.41669(8) 0.68784(4) 0.97322(7)
P5 P 0.13202(6) 1.03463(3) 0.88420(5)
C1 C 0.0248(3) 1.03719(12) 0.9891(2)
C2 C -0.0050(3) 1.00377(12) 0.7433(2)
C3 C 0.0408(3) 0.95770(12) 0.6699(2)
C4 C -0.0605(3) 0.93435(14) 0.5618(2)
C5 C -0.2087(3) 0.95479(15) 0.5283(2)
C6 C -0.2553(3) 1.00027(15) 0.6009(3)
C7 C -0.1540(3) 1.02532(13) 0.7074(2)
C8 C 0.1567(2) 1.12824(13) 0.8539(2)
C9 C 0.1133(3) 1.18425(13) 0.9120(3)
C10 C 0.1389(3) 1.25407(14) 0.8859(3)
C11 C 0.2080(3) 1.26906(15) 0.8019(3)
C12 C 0.2522(3) 1.21405(16) 0.7446(3)
C13 C 0.2282(3) 1.14381(15) 0.7704(2)
H1 H 0.08740 1.05810 1.06650
H2 H -0.06430 1.06790 0.95540
H3 H 0.14180 0.94220 0.69380
H4 H -0.02780 0.90420 0.51060
H5 H -0.27850 0.93760 0.45540
H6 H -0.35710 1.01450 0.57770
H7 H -0.18640 1.05740 0.75620
H8 H 0.06570 1.17470 0.97000
H9 H 0.10880 1.29200 0.92620
H10 H 0.22480 1.31700 0.78410
H11 H 0.29960 1.22410 0.68680
H12 H 0.26060 1.10620 0.73100
I1B I 0.47913(2) 1.02251(1) 1.17950(1)
Cu1B Cu 0.65081(4) 1.02648(2) 1.04308(3)
Cu1B_2 Cu -0.34919(4) 1.02648(2) 1.04308(3)
S1B S 0.86467(6) 1.19197(3) 1.13339(6)
S2B S 0.66710(7) 1.18605(3) 0.85275(6)
S3B S 0.50816(6) 1.21094(3) 1.05359(6)
P1B P 0.66831(6) 1.14577(3) 1.01925(5)
P2B P 0.83251(8) 1.29976(4) 1.08513(7)
P3B P 0.69519(9) 1.29574(4) 0.88867(7)
P4B P 0.58331(8) 1.31216(4) 1.02678(7)
P5B P -0.13202(6) 0.96537(3) 1.11580(5)
P5B_2 P 0.86798(6) 0.96537(3) 1.11580(5)
C1B C -0.0248(3) 0.96281(12) 1.0109(2)
C2B C 0.0050(3) 0.99623(12) 1.2567(2)
C3B C -0.0408(3) 1.04230(12) 1.3301(2)
C4B C 0.0605(3) 1.06565(14) 1.4382(2)
C5B C 0.2087(3) 1.04521(15) 1.4717(2)
C6B C 0.2553(3) 0.99973(15) 1.3991(3)
C7B C 0.1540(3) 0.97468(13) 1.2926(2)
C8B C -0.1567(2) 0.87176(13) 1.1461(2)
C9B C -0.1133(3) 0.81575(13) 1.0880(3)
C10B C -0.1389(3) 0.74593(14) 1.1141(3)
C11B C -0.2080(3) 0.73094(15) 1.1981(3)
C12B C -0.2522(3) 0.78595(16) 1.2554(3)
C13B C -0.2282(3) 0.85619(15) 1.2296(2)
H1B H -0.08740 0.94190 0.93350
H2B H 0.06430 0.93210 1.04460
H3B H -0.14180 1.05780 1.30620
H4B H 0.02780 1.09580 1.48940
H5B H 0.27850 1.06240 1.54460
H6B H 0.35710 0.98550 1.42230
H7B H 0.18640 0.94260 1.24380
H8B H -0.06570 0.82530 1.03000
H9B H -0.10880 0.70800 1.07380
H10B H -0.22480 0.68300 1.21590
H11B H -0.29960 0.77590 1.31320
H12B H -0.26060 0.89380 1.26900
loop_
_geom_bond_atom_site_label_1
_geom_bond_atom_site_label_2
_geom_bond_site_symmetry_1
_geom_bond_site_symmetry_2
I1 Cu1 1_555 1_555
Cu1 P1 1_555 1_555
S1 P1 1_555 1_555
S2 P1 1_555 1_555
S3 P1 1_555 1_555
P2 S1 1_555 1_555
P3 S2 1_555 1_555
P4 S3 1_555 1_555
P5 Cu1 1_555 1_555
C1 P5 1_555 1_555
C2 P5 1_555 1_555
C3 C2 1_555 1_555
C4 C3 1_555 1_555
C5 C4 1_555 1_555
C6 C5 1_555 1_555
C7 C2 1_555 1_555
C8 P5 1_555 1_555
C9 C8 1_555 1_555
C10 C9 1_555 1_555
C11 C10 1_555 1_555
C12 C11 1_555 1_555
C13 C8 1_555 1_555
H1 C1 1_555 1_555
H2 C1 1_555 1_555
H3 C3 1_555 1_555
H4 C4 1_555 1_555
H5 C5 1_555 1_555
H6 C6 1_555 1_555
H7 C7 1_555 1_555
H8 C9 1_555 1_555
H9 C10 1_555 1_555
H10 C11 1_555 1_555
H11 C12 1_555 1_555
H12 C13 1_555 1_555
I1B Cu1 1_555 1_555
Cu1B I1 1_555 1_555
Cu1B_2 P5B 1_555 1_555
S1B P1B 1_555 1_555
S2B P1B 1_555 1_555
S3B P1B 1_555 1_555
P1B Cu1B 1_555 1_555
P2B S1B 1_555 1_555
P3B S2B 1_555 1_555
P4B S3B 1_555 1_555
P5B C1B 1_555 1_555
P5B_2 Cu1B 1_555 1_555
C1B C1 1_555 1_555
C2B P5B 1_555 1_555
C3B C2B 1_555 1_555
C4B C3B 1_555 1_555
C5B C4B 1_555 1_555
C6B C5B 1_555 1_555
C7B C2B 1_555 1_555
C8B P5B 1_555 1_555
C9B C8B 1_555 1_555
C10B C9B 1_555 1_555
C11B C10B 1_555 1_555
C12B C11B 1_555 1_555
C13B C8B 1_555 1_555
H1B C1B 1_555 1_555
H2B C1B 1_555 1_555
H3B C3B 1_555 1_555
H4B C4B 1_555 1_555
H5B C5B 1_555 1_555
H6B C6B 1_555 1_555
H7B C7B 1_555 1_555
H8B C9B 1_555 1_555
H9B C10B 1_555 1_555
H10B C11B 1_555 1_555
H11B C12B 1_555 1_555
H12B C13B 1_555 1_555
P2 P3 1_555 1_555
P2 P4 1_555 1_555
P3 P4 1_555 1_555
C6 C7 1_555 1_555
C12 C13 1_555 1_555
I1B Cu1B 1_555 1_555
P2B P3B 1_555 1_555
P2B P4B 1_555 1_555
P3B P4B 1_555 1_555
C6B C7B 1_555 1_555
C12B C13B 1_555 1_555

#END
