
#######################################################################
#
#                 Cambridge Crystallographic Data Centre
#                                CCDC 
#
#######################################################################
#
# If this CIF has been generated from an entry in the Cambridge 
# Structural Database, then it will include bibliographic, chemical, 
# crystal, experimental, refinement or atomic coordinate data resulting 
# from the CCDC's data processing and validation procedures.
#
#######################################################################

data_OZUPUV
_symmetry_cell_setting           hexagonal
_symmetry_space_group_name_H-M   'P 61 2 2'
_symmetry_Int_Tables_number      178
_space_group_name_Hall           "P 61 2' (0,0,5)"
loop_
_symmetry_equiv_pos_site_id
_symmetry_equiv_pos_as_xyz
1 x,y,z
2 -x,-y,1/2+z
3 -y,-x,5/6-z
4 y,x,1/3-z
5 x-y,-y,-z
6 -x+y,y,1/2-z
7 x,x-y,1/6-z
8 -x,-x+y,2/3-z
9 -y,x-y,1/3+z
10 y,-x+y,5/6+z
11 x-y,x,1/6+z
12 -x+y,-x,2/3+z
_cell_length_a                   11.1996(4)
_cell_length_b                   11.1996(4)
_cell_length_c                   24.2343(18)
_cell_angle_alpha                90
_cell_angle_beta                 90
_cell_angle_gamma                120
_cell_volume                     2632.49
loop_
_atom_site_label
_atom_site_type_symbol
_atom_site_fract_x
_atom_site_fract_y
_atom_site_fract_z
Ni1 Ni 0.45751(4) 1.0000 0.0000
O1 O 0.3602(2) 0.8164(2) 0.04176(8)
O2 O 0.3388(3) 0.8860(2) 0.12507(9)
O3 O 0.5172(3) 1.1169(2) 0.07467(9)
H1 H 0.466(4) 1.048(4) 0.0962(15)
H2 H 0.512(4) 1.174(3) 0.0805(16)
N1 N 0.2725(3) 1.0000 0.0000
N2 N -0.3586(3) 1.0000 0.0000
C1 C 0.2680(3) 1.1156(3) 0.00713(13)
H5 H 0.3507 1.1977 0.0119
C2 C 0.1467(3) 1.1198(3) 0.00785(13)
H6 H 0.1488 1.2029 0.0136
C3 C 0.0225(3) 1.0000 0.0000
C4 C -0.1094(3) 1.0000 0.0000
C5 C -0.2333(3) 0.8815(3) 0.01091(13)
H7 H -0.2348 0.7994 0.0186
C6 C -0.3543(3) 0.8853(3) 0.01036(13)
H8 H -0.4366 0.8044 0.0175
C7 C 0.3066(3) 0.7951(3) 0.08850(12)
C8 C 0.1894(3) 0.6506(3) 0.10098(13)
H9 H 0.1948 0.6301 0.1395
H10 H 0.1025 0.6486 0.0957
Ni1_2 Ni -0.54249(4) 1.0000 0.0000
Ni1F Ni 0.45751(4) 0.45751(4) 0.1667
O1F O 0.3602(2) 0.5438(3) 0.12491(8)
O1D O 0.5438(3) 1.1836(2) -0.04176(8)
O2F O 0.3388(3) 0.4528(4) 0.04160(9)
O3D O 0.4003(4) 0.8831(2) -0.07467(9)
H1D H 0.418(6) 0.952(4) -0.0962(15)
H2D H 0.338(5) 0.826(3) -0.0805(16)
N2_2 N 0.6414(3) 1.0000 0.0000
C1D C 0.1524(4) 0.8844(3) -0.00713(13)
H5D H 0.1530 0.8023 -0.0119
C2D C 0.0269(4) 0.8802(3) -0.00785(13)
H6D H -0.0541 0.7971 -0.0136
C5D C -0.1148(4) 1.1185(3) -0.01091(13)
H7D H -0.0342 1.2006 -0.0186
C6D C -0.2396(4) 1.1147(3) -0.01036(13)
H8D H -0.2410 1.1956 -0.0175
C7F C 0.3066(3) 0.5115(4) 0.07817(12)
C8F C 0.1894(3) 0.5388(4) 0.06569(13)
H9F H 0.1948 0.5647 0.0272
H10F H 0.1025 0.4539 0.0710
O4 O 0.2804(6) 0.8048(5) 0.23353(17)
H3 H 0.291(9) 0.822(8) 0.203(3)
H4 H 0.350(7) 0.821(9) 0.225(4)
loop_
_geom_bond_atom_site_label_1
_geom_bond_atom_site_label_2
_geom_bond_site_symmetry_1
_geom_bond_site_symmetry_2
Ni1 O1 1_555 1_555
O1 C7 1_555 1_555
O2 C7 1_555 1_555
O3 Ni1 1_555 1_555
H1 O3 1_555 1_555
H2 O3 1_555 1_555
O4 H3 1_555 1_555
H4 O4 1_555 1_555
N1 Ni1 1_555 1_555
N2 C6 1_555 1_555
C1 N1 1_555 1_555
H5 C1 1_555 1_555
C2 C1 1_555 1_555
H6 C2 1_555 1_555
C3 C2 1_555 1_555
C4 C3 1_555 1_555
C5 C4 1_555 1_555
H7 C5 1_555 1_555
C6 C5 1_555 1_555
H8 C6 1_555 1_555
C7 C8 1_555 1_555
C8 H9 1_555 1_555
H10 C8 1_555 1_555
Ni1_2 N2 1_555 1_555
Ni1F O1F 1_555 1_555
O1F C7F 1_555 1_555
O1D Ni1 1_555 1_555
O2F C7F 1_555 1_555
O3D Ni1 1_555 1_555
H1D O3D 1_555 1_555
H2D O3D 1_555 1_555
N2_2 Ni1 1_555 1_555
C1D N1 1_555 1_555
H5D C1D 1_555 1_555
C2D C3 1_555 1_555
H6D C2D 1_555 1_555
C5D C4 1_555 1_555
H7D C5D 1_555 1_555
C6D N2 1_555 1_555
H8D C6D 1_555 1_555
C7F C8F 1_555 1_555
C8F C8 1_555 1_555
H9F C8F 1_555 1_555
H10F C8F 1_555 1_555
C1D C2D 1_555 1_555
C5D C6D 1_555 1_555

#END
