
#######################################################################
#
#                 Cambridge Crystallographic Data Centre
#                                CCDC 
#
#######################################################################
#
# If this CIF has been generated from an entry in the Cambridge 
# Structural Database, then it will include bibliographic, chemical, 
# crystal, experimental, refinement or atomic coordinate data resulting 
# from the CCDC's data processing and validation procedures.
#
#######################################################################

data_PABQIS
_symmetry_cell_setting           monoclinic
_symmetry_space_group_name_H-M   'P 21/c'
_symmetry_Int_Tables_number      14
_space_group_name_Hall           '-P 2ybc'
loop_
_symmetry_equiv_pos_site_id
_symmetry_equiv_pos_as_xyz
1 x,y,z
2 -x,1/2+y,1/2-z
3 -x,-y,-z
4 x,1/2-y,1/2+z
_cell_length_a                   10.7980(7)
_cell_length_b                   22.8210(10)
_cell_length_c                   11.9877(5)
_cell_angle_alpha                90
_cell_angle_beta                 103.752(6)
_cell_angle_gamma                90
_cell_volume                     2869.34
loop_
_atom_site_label
_atom_site_type_symbol
_atom_site_fract_x
_atom_site_fract_y
_atom_site_fract_z
Zn1 Zn 0.0961(1) -0.6437(1) 0.1680(1)
Zn2 Zn 0.5543(1) -0.3591(1) -0.3674(1)
O1 O 0.1636(4) -0.5851(2) 0.0795(4)
C1 C 0.2362(5) -0.5967(2) 0.0123(5)
O2 O 0.2683(5) -0.6473(2) -0.0068(4)
C2 C 0.2822(5) -0.5454(2) -0.0448(4)
C3 C 0.2280(5) -0.4906(2) -0.0431(5)
C4 C 0.3821(5) -0.5527(2) -0.0976(5)
C5 C 0.4292(5) -0.5055(3) -0.1463(5)
C6 C 0.2744(5) -0.4428(2) -0.0922(5)
C7 C 0.3776(5) -0.4500(2) -0.1440(4)
C8 C 0.4270(5) -0.3986(2) -0.1974(4)
O3 O 0.3867(5) -0.3486(2) -0.1840(4)
O4 O 0.5079(4) -0.4102(2) -0.2559(4)
O5 O 0.6304(4) -0.4256(2) -0.4355(3)
C9 C 0.6713(5) -0.4167(2) -0.5248(5)
O6 O 0.6472(4) -0.3721(2) -0.5854(4)
C10 C 0.7506(5) -0.4648(2) -0.5590(5)
C11 C 0.7280(5) -0.5228(2) -0.5369(5)
C12 C 0.8440(5) -0.4508(2) -0.6166(5)
C13 C 0.9152(5) -0.4948(3) -0.6506(5)
C14 C 0.8931(5) -0.5530(2) -0.6290(4)
C15 C 0.7987(5) -0.5668(2) -0.5723(5)
C16 C 0.9635(5) -0.6016(2) -0.6721(5)
O7 O 0.9553(5) -0.6523(2) -0.6387(4)
O8 O 1.0274(4) -0.5862(2) -0.7441(4)
S1 S -0.0384(2) -0.7077(1) 0.0499(1)
C17 C -0.0507(5) -0.7663(2) 0.1374(5)
N1 N -0.0568(6) -0.8193(2) 0.0931(5)
N2 N -0.0561(6) -0.7598(2) 0.2450(5)
S2 S 0.7468(1) -0.3024(1) -0.3042(1)
C18 C 0.7082(5) -0.2436(2) -0.2244(5)
N3 N 0.6902(5) -0.2504(2) -0.1224(4)
N4 N 0.7002(5) -0.1911(2) -0.2724(4)
S3 S 0.4138(2) -0.2989(1) -0.4916(1)
C19 C 0.3887(5) -0.2394(3) -0.4101(5)
N5 N 0.3786(6) -0.2453(2) -0.3037(5)
N6 N 0.3796(6) -0.1872(2) -0.4564(5)
H1 H 0.1600(5) -0.4857(2) -0.0087(5)
H2 H 0.4177(5) -0.5897(2) -0.1002(5)
H3 H 0.4966(5) -0.5109(3) -0.1813(5)
H4 H 0.2374(5) -0.4061(2) -0.0909(5)
H5 H 0.6655(5) -0.5323(2) -0.4984(5)
H6 H 0.8587(5) -0.4118(2) -0.6323(5)
H7 H 0.9784(5) -0.4852(3) -0.6882(5)
H8 H 0.7828(5) -0.6058(2) -0.5579(5)
H9 H -0.0810(71) -0.8510(20) 0.1271(61)
H10 H -0.0496(75) -0.8235(35) 0.0203(23)
H11 H -0.0610(67) -0.7943(15) 0.2800(54)
H12 H -0.0489(78) -0.7232(14) 0.2740(65)
H13 H 0.6806(89) -0.2197(26) -0.0782(68)
H14 H 0.6986(80) -0.2842(19) -0.0825(61)
H15 H 0.6849(56) -0.1597(16) -0.2322(44)
H16 H 0.7155(59) -0.1847(28) -0.3420(24)
H17 H 0.3798(69) -0.2113(16) -0.2656(55)
H18 H 0.3944(70) -0.2811(14) -0.2719(59)
H19 H 0.3619(58) -0.1556(17) -0.4180(47)
H20 H 0.3918(64) -0.1855(30) -0.5280(22)
S2B S 0.2532(1) -0.6976(1) 0.3042(1)
O8_2 O 0.0274(4) -0.5862(2) 0.2559(4)
Zn1B Zn 0.9039(1) -0.3563(1) -0.1680(1)
Zn1_2 Zn 1.0961(1) -0.6437(1) -0.8320(1)
O9 O -1.2476(5) -0.5087(2) 0.7497(4)
O10 O -0.1758(10) -0.6120(3) -0.1915(6)
O11 O -0.3897(7) -0.6146(3) -0.2529(7)
O12? O -0.0604(8) 0.3951(4) -0.1975(10)
O13? O -0.2760(20) 0.4427(11) -0.2578(18)
O14? O -0.3991(19) 0.4307(9) -0.3229(17)
loop_
_geom_bond_atom_site_label_1
_geom_bond_atom_site_label_2
_geom_bond_site_symmetry_1
_geom_bond_site_symmetry_2
Zn1 O1 1_555 1_555
Zn2 O4 1_555 1_555
O1 C1 1_555 1_555
C1 O2 1_555 1_555
C2 C1 1_555 1_555
C3 C2 1_555 1_555
C4 C2 1_555 1_555
C5 C4 1_555 1_555
C6 C3 1_555 1_555
C7 C5 1_555 1_555
C8 C7 1_555 1_555
O3 C8 1_555 1_555
O4 C8 1_555 1_555
O5 Zn2 1_555 1_555
C9 O5 1_555 1_555
O6 C9 1_555 1_555
C10 C9 1_555 1_555
C11 C10 1_555 1_555
C12 C10 1_555 1_555
C13 C12 1_555 1_555
C14 C13 1_555 1_555
C15 C11 1_555 1_555
C16 C14 1_555 1_555
O7 C16 1_555 1_555
O8 C16 1_555 1_555
S1 Zn1 1_555 1_555
C17 S1 1_555 1_555
N1 C17 1_555 1_555
N2 C17 1_555 1_555
S2 Zn2 1_555 1_555
C18 S2 1_555 1_555
N3 C18 1_555 1_555
N4 C18 1_555 1_555
S3 Zn2 1_555 1_555
C19 S3 1_555 1_555
N5 C19 1_555 1_555
N6 C19 1_555 1_555
H1 C3 1_555 1_555
H2 C4 1_555 1_555
H3 C5 1_555 1_555
H4 C6 1_555 1_555
H5 C11 1_555 1_555
H6 C12 1_555 1_555
H7 C13 1_555 1_555
H8 C15 1_555 1_555
H9 N1 1_555 1_555
H10 N1 1_555 1_555
H11 N2 1_555 1_555
H12 N2 1_555 1_555
H13 N3 1_555 1_555
H14 N3 1_555 1_555
H15 N4 1_555 1_555
H16 N4 1_555 1_555
H17 N5 1_555 1_555
H18 N5 1_555 1_555
H19 N6 1_555 1_555
H20 N6 1_555 1_555
S2B Zn1 1_555 1_555
O8_2 Zn1 1_555 1_555
Zn1B S2 1_555 1_555
Zn1_2 O8 1_555 1_555
C6 C7 1_555 1_555
C14 C15 1_555 1_555

#END
