
#######################################################################
#
#                 Cambridge Crystallographic Data Centre
#                                CCDC 
#
#######################################################################
#
# If this CIF has been generated from an entry in the Cambridge 
# Structural Database, then it will include bibliographic, chemical, 
# crystal, experimental, refinement or atomic coordinate data resulting 
# from the CCDC's data processing and validation procedures.
#
#######################################################################

data_PABQUF
_symmetry_cell_setting           orthorhombic
_symmetry_space_group_name_H-M   'P 21 21 21'
_symmetry_Int_Tables_number      19
_space_group_name_Hall           'P 2ac 2ab'
loop_
_symmetry_equiv_pos_site_id
_symmetry_equiv_pos_as_xyz
1 x,y,z
2 1/2-x,-y,1/2+z
3 -x,1/2+y,1/2-z
4 1/2+x,1/2-y,-z
_cell_length_a                   6.8869(14)
_cell_length_b                   11.718(2)
_cell_length_c                   25.721(3)
_cell_angle_alpha                90
_cell_angle_beta                 90
_cell_angle_gamma                90
_cell_volume                     2075.7
loop_
_atom_site_label
_atom_site_type_symbol
_atom_site_fract_x
_atom_site_fract_y
_atom_site_fract_z
Mn1 Mn 0.42957(9) 0.03867(5) 0.27017(2)
O1 O 0.2464(4) -0.0085(3) 0.32120(10)
O2 O 0.2756(4) -0.0194(2) 0.21440(10)
N1 N 0.5945(6) 0.1142(3) 0.32307(12)
N2 N 0.6204(5) 0.1024(3) 0.22092(13)
N3 N 0.2624(5) 0.2166(3) 0.26151(15)
N4 N 0.3343(5) 0.2962(3) 0.24191(12)
N5 N 0.4067(7) 0.3733(3) 0.22137(15)
C1 C 0.2522(6) 0.0108(3) 0.37119(14)
C2 C 0.3907(7) 0.0742(4) 0.39550(17)
H1 H 0.3730 0.0863 0.4321
C3 C 0.5562(7) 0.1244(3) 0.37221(15)
C4 C 0.6858(9) 0.1917(4) 0.40741(18)
H2 H 0.6332 0.1969 0.4375
H3 H 0.7065 0.2666 0.3934
H4 H 0.8094 0.1544 0.4102
C5 C 0.7614(8) 0.1747(4) 0.30010(17)
H5 H 0.8723 0.1639 0.3222
H6 H 0.7345 0.2550 0.2981
C6 C 0.8030(8) 0.1292(6) 0.24747(19)
H7 H 0.8740 0.1846 0.2276
H8 H 0.8804 0.0613 0.2501
C7 C 0.5878(7) 0.1243(3) 0.17237(15)
C8 C 0.7286(7) 0.1925(4) 0.14020(18)
H9 H 0.6709 0.1928 0.1032
H10 H 0.8543 0.1571 0.1404
H11 H 0.7408 0.2689 0.1533
C9 C 0.4179(8) 0.0876(3) 0.14709(16)
H12 H 0.3992 0.1145 0.1122
C10 C 0.2758(6) 0.0164(3) 0.16707(14)
C11 C 0.0876(7) -0.0434(4) 0.40054(15)
C12 C 0.0922(9) -0.0552(6) 0.45415(17)
H13 H 0.2016 -0.0259 0.4730
C13 C -0.0605(11) -0.1062(7) 0.4801(2)
H14 H -0.0514 -0.1161 0.5171
C14 C -0.2160(9) -0.1464(5) 0.4541(2)
H15 H -0.3230 -0.1792 0.4728
C15 C -0.2238(8) -0.1351(4) 0.40024(19)
H16 H -0.3344 -0.1616 0.3810
C16 C -0.0713(8) -0.0858(3) 0.37442(16)
H17 H -0.0722 -0.0820 0.3371
C17 C 0.1132(6) -0.0252(3) 0.13399(14)
C18 C -0.0341(6) -0.0887(4) 0.15694(16)
H18 H -0.0291 -0.1029 0.1937
C19 C -0.1874(7) -0.1303(4) 0.12782(17)
H19 H -0.2881 -0.1736 0.1444
C20 C -0.1957(9) -0.1093(5) 0.0749(2)
H20 H -0.3004 -0.1390 0.0543
C21 C -0.0521(10) -0.0480(6) 0.05202(18)
H21 H -0.0595 -0.0315 0.0155
C22 C 0.1037(8) -0.0062(4) 0.08092(16)
H22 H 0.2059 0.0355 0.0640
N5B N 0.5933(7) -0.1267(3) 0.27863(15)
Mn1B Mn 0.57043(9) 0.53867(5) 0.22983(2)
loop_
_geom_bond_atom_site_label_1
_geom_bond_atom_site_label_2
_geom_bond_site_symmetry_1
_geom_bond_site_symmetry_2
Mn1 O1 1_555 1_555
O1 C1 1_555 1_555
O2 Mn1 1_555 1_555
N1 Mn1 1_555 1_555
N2 Mn1 1_555 1_555
N3 Mn1 1_555 1_555
N4 N3 1_555 1_555
N5 N4 1_555 1_555
C1 C2 1_555 1_555
C2 H1 1_555 1_555
C3 N1 1_555 1_555
C4 C3 1_555 1_555
H2 C4 1_555 1_555
H3 C4 1_555 1_555
H4 C4 1_555 1_555
C5 N1 1_555 1_555
H5 C5 1_555 1_555
H6 C5 1_555 1_555
C6 N2 1_555 1_555
H7 C6 1_555 1_555
H8 C6 1_555 1_555
C7 N2 1_555 1_555
C8 C7 1_555 1_555
H9 C8 1_555 1_555
H10 C8 1_555 1_555
H11 C8 1_555 1_555
C9 C7 1_555 1_555
H12 C9 1_555 1_555
C10 O2 1_555 1_555
C11 C1 1_555 1_555
C12 C11 1_555 1_555
H13 C12 1_555 1_555
C13 C12 1_555 1_555
H14 C13 1_555 1_555
C14 C13 1_555 1_555
H15 C14 1_555 1_555
C15 C14 1_555 1_555
H16 C15 1_555 1_555
C16 C11 1_555 1_555
H17 C16 1_555 1_555
C17 C10 1_555 1_555
C18 C17 1_555 1_555
H18 C18 1_555 1_555
C19 C18 1_555 1_555
H19 C19 1_555 1_555
C20 C19 1_555 1_555
H20 C20 1_555 1_555
C21 C20 1_555 1_555
H21 C21 1_555 1_555
C22 C17 1_555 1_555
H22 C22 1_555 1_555
N5B Mn1 1_555 1_555
Mn1B N5 1_555 1_555
C2 C3 1_555 1_555
C5 C6 1_555 1_555
C9 C10 1_555 1_555
C15 C16 1_555 1_555
C21 C22 1_555 1_555

#END
