
#######################################################################
#
#                 Cambridge Crystallographic Data Centre
#                                CCDC 
#
#######################################################################
#
# If this CIF has been generated from an entry in the Cambridge 
# Structural Database, then it will include bibliographic, chemical, 
# crystal, experimental, refinement or atomic coordinate data resulting 
# from the CCDC's data processing and validation procedures.
#
#######################################################################

data_PABXAT
_symmetry_cell_setting           monoclinic
_symmetry_space_group_name_H-M   'P 21/c'
_symmetry_Int_Tables_number      14
_space_group_name_Hall           '-P 2ybc'
loop_
_symmetry_equiv_pos_site_id
_symmetry_equiv_pos_as_xyz
1 x,y,z
2 -x,1/2+y,1/2-z
3 -x,-y,-z
4 x,1/2-y,1/2+z
_cell_length_a                   9.1999(5)
_cell_length_b                   15.8570(8)
_cell_length_c                   8.6559(5)
_cell_angle_alpha                90
_cell_angle_beta                 114.4380(10)
_cell_angle_gamma                90
_cell_volume                     1149.62
loop_
_atom_site_label
_atom_site_type_symbol
_atom_site_fract_x
_atom_site_fract_y
_atom_site_fract_z
Pr1 Pr 0.25083(3) 0.268993(15) 0.26763(3)
C1 C -0.1815(6) 0.2977(3) -0.2267(6)
C2 C 0.3877(5) 0.0943(3) 0.5400(5)
C3 C -0.0349(5) 0.2961(3) -0.0673(5)
C4 C -0.4701(5) 0.3061(3) -0.3966(5)
C5 C -0.3245(5) 0.3158(3) -0.2352(5)
C6 C 0.4734(6) 0.0126(3) 0.5559(6)
O1 O 0.3323(4) 0.1085(2) 0.6480(4)
O2 O 0.3777(4) 0.1422(2) 0.4215(4)
O3 O -0.0339(4) 0.3235(2) 0.0690(4)
O4 O -0.4606(4) 0.3104(2) -0.5374(4)
O5 O 0.0899(4) 0.2633(2) -0.0705(4)
O6 O -0.6021(3) 0.29197(19) -0.3885(4)
O9 O 0.0915(4) 0.1271(2) 0.1388(4)
O10 O 0.2007(4) 0.4104(2) 0.3849(4)
H1 H 0.106(9) 0.085(3) 0.211(7)
H2 H -0.009(4) 0.113(4) 0.069(7)
H4 H 0.121(8) 0.442(5) 0.310(8)
H6 H 0.282(6) 0.447(4) 0.418(9)
H10 H 0.479(6) -0.022(3) 0.637(6)
H11 H -0.339(6) 0.327(3) -0.136(6)
H12 H -0.161(6) 0.280(3) -0.318(6)
Pr1B Pr 0.74917(3) -0.268993(15) 0.73237(3)
Pr1_2 Pr -0.74917(3) 0.268993(15) -0.73237(3)
Pr1A Pr 0.74917(3) -0.231007(15) 0.23237(3)
Pr1A_2 Pr 0.74917(3) -0.231007(15) 1.23237(3)
Pr1A_3 Pr 1.74917(3) -0.231007(15) 1.23237(3)
Pr1B_2 Pr 1.74917(3) -0.268993(15) 1.73237(3)
Pr1C Pr -0.74917(3) 0.231007(15) -0.23237(3)
Pr1C_2 Pr 0.25083(3) 0.231007(15) -0.23237(3)
Pr1C_3 Pr 0.25083(3) 0.231007(15) 0.76763(3)
C1B C 1.1815(6) -0.2977(3) 1.2267(6)
C2B C 0.6123(5) -0.0943(3) 0.4600(5)
C3B C 1.0349(5) -0.2961(3) 1.0673(5)
C4B C 1.4701(5) -0.3061(3) 1.3966(5)
C5B C 1.3245(5) -0.3158(3) 1.2352(5)
C6B C 0.5266(6) -0.0126(3) 0.4441(6)
O1B O 0.6677(4) -0.1085(2) 0.3520(4)
O1A O 0.6677(4) -0.3915(2) 0.8520(4)
O1C O 0.3323(4) 0.3915(2) 0.1480(4)
O2B O 0.6223(4) -0.1422(2) 0.5785(4)
O3B O 1.0339(4) -0.3235(2) 0.9310(4)
O4B O 1.4606(4) -0.3104(2) 1.5374(4)
O4_2 O 0.5394(4) 0.3104(2) 0.4626(4)
O4B_2 O 0.4606(4) -0.3104(2) 0.5374(4)
O5B O 0.9101(4) -0.2633(2) 1.0705(4)
O5A O 0.9101(4) -0.2367(2) 0.5705(4)
O5C O 0.0899(4) 0.2367(2) 0.4295(4)
O6B O 1.6021(3) -0.29197(19) 1.3885(4)
O6_2 O 0.3979(3) 0.29197(19) 0.6115(4)
O6A O 0.6021(3) -0.20803(19) 0.8885(4)
O6B_2 O 0.6021(3) -0.29197(19) 0.3885(4)
O6C O 0.3979(3) 0.20803(19) 0.1115(4)
O9B O 0.9085(4) -0.1271(2) 0.8612(4)
O10B O 0.7993(4) -0.4104(2) 0.6151(4)
H1B H 0.894(9) -0.085(3) 0.789(7)
H2B H 1.009(4) -0.113(4) 0.931(7)
H4B H 0.879(8) -0.442(5) 0.690(8)
H6B H 0.718(6) -0.447(4) 0.582(9)
H10B H 0.521(6) 0.022(3) 0.363(6)
H11B H 1.339(6) -0.327(3) 1.136(6)
H12B H 1.161(6) -0.280(3) 1.318(6)
O7 O -0.2195(5) 0.4013(3) 0.4165(6)
H3 H -0.301(7) 0.367(4) 0.396(8)
H8 H -0.188(8) 0.412(5) 0.336(7)
O8 O 0.5000 0.5000 0.5000
H9 H 0.493(12) 0.465(5) 0.418(8)
H9B H 0.507(12) 0.535(5) 0.582(8)
O11 O -0.0780(7) 0.4915(4) 0.1494(9)
H5 H -0.161(6) 0.492(5) 0.048(4)
H7 H -0.094(9) 0.460(5) 0.226(7)
H13? H 0.440(13) 0.531(7) 0.411(10)
loop_
_geom_bond_atom_site_label_1
_geom_bond_atom_site_label_2
_geom_bond_site_symmetry_1
_geom_bond_site_symmetry_2
Pr1 O2 1_555 1_555
C1 C3 1_555 1_555
C2 C6 1_555 1_555
C3 O3 1_555 1_555
C4 C5 1_555 1_555
C5 C1 1_555 1_555
C6 H10 1_555 1_555
O1 C2 1_555 1_555
O2 C2 1_555 1_555
O3 Pr1 1_555 1_555
O4 C4 1_555 1_555
O5 Pr1 1_555 1_555
O6 C4 1_555 1_555
O7 H3 1_555 1_555
O8 H9 1_555 1_555
O9 Pr1 1_555 1_555
O10 Pr1 1_555 1_555
O11 H5 1_555 1_555
H1 O9 1_555 1_555
H2 O9 1_555 1_555
H4 O10 1_555 1_555
H6 O10 1_555 1_555
H7 O11 1_555 1_555
H8 O7 1_555 1_555
H11 C5 1_555 1_555
H12 C1 1_555 1_555
Pr1B O1A 1_555 1_555
Pr1_2 O4 1_555 1_555
Pr1A O1B 1_555 1_555
Pr1A_2 O5B 1_555 1_555
Pr1A_3 O6B 1_555 1_555
Pr1B_2 O4B 1_555 1_555
Pr1C O6 1_555 1_555
Pr1C_2 O5 1_555 1_555
Pr1C_3 O1 1_555 1_555
C1B C3B 1_555 1_555
C2B C6B 1_555 1_555
C3B O3B 1_555 1_555
C4B C5B 1_555 1_555
C5B C1B 1_555 1_555
C6B C6 1_555 1_555
O1B C2B 1_555 1_555
O1C Pr1 1_555 1_555
O2B Pr1B 1_555 1_555
O3B Pr1B 1_555 1_555
O4B C4B 1_555 1_555
O4_2 Pr1 1_555 1_555
O4B_2 Pr1B 1_555 1_555
O5B Pr1B 1_555 1_555
O5A Pr1B 1_555 1_555
O5C Pr1 1_555 1_555
O6B Pr1B_2 1_555 1_555
O6_2 Pr1 1_555 1_555
O6A Pr1B 1_555 1_555
O6B_2 Pr1B 1_555 1_555
O6C Pr1 1_555 1_555
O9B Pr1B 1_555 1_555
O10B Pr1B 1_555 1_555
H1B O9B 1_555 1_555
H2B O9B 1_555 1_555
H4B O10B 1_555 1_555
H6B O10B 1_555 1_555
H9B O8 1_555 1_555
H10B C6B 1_555 1_555
H11B C5B 1_555 1_555
H12B C1B 1_555 1_555
C3 O5 1_555 1_555
O6 Pr1_2 1_555 1_555
Pr1A O5A 1_555 1_555
Pr1A O6B_2 1_555 1_555
Pr1A_2 O6A 1_555 1_555
Pr1C_2 O6C 1_555 1_555
Pr1C_3 O5C 1_555 1_555
Pr1C_3 O6_2 1_555 1_555
C2B O2B 1_555 1_555
C3B O5B 1_555 1_555
C4B O6B 1_555 1_555

#END
