
#######################################################################
#
#                 Cambridge Crystallographic Data Centre
#                                CCDC 
#
#######################################################################
#
# If this CIF has been generated from an entry in the Cambridge 
# Structural Database, then it will include bibliographic, chemical, 
# crystal, experimental, refinement or atomic coordinate data resulting 
# from the CCDC's data processing and validation procedures.
#
#######################################################################

data_PACFOP
_symmetry_cell_setting           trigonal
_symmetry_space_group_name_H-M   'P -3 c 1'
_symmetry_Int_Tables_number      165
_space_group_name_Hall           '-P 3 2"c'
loop_
_symmetry_equiv_pos_site_id
_symmetry_equiv_pos_as_xyz
1 x,y,z
2 -y,x-y,z
3 -x+y,-x,z
4 y,x,1/2-z
5 x-y,-y,1/2-z
6 -x,-x+y,1/2-z
7 -x,-y,-z
8 y,-x+y,-z
9 x-y,x,-z
10 -y,-x,1/2+z
11 -x+y,y,1/2+z
12 x,x-y,1/2+z
_cell_length_a                   18.6523(11)
_cell_length_b                   18.6523(11)
_cell_length_c                   19.8313(18)
_cell_angle_alpha                90
_cell_angle_beta                 90
_cell_angle_gamma                120
_cell_volume                     5975.12
loop_
_atom_site_label
_atom_site_type_symbol
_atom_site_fract_x
_atom_site_fract_y
_atom_site_fract_z
Cu1 Cu 0.52749(3) 1.04748(3) 0.30501(3)
O1 O 0.5630(2) 0.9681(2) 0.33392(18)
O2 O 0.5565(2) 0.5852(2) 0.33714(18)
O3 O 0.5162(2) 0.6248(2) 0.24486(19)
O4 O 0.5215(2) 0.8882(2) 0.24263(19)
C1 C 0.5783(3) 0.8504(3) 0.3321(3)
C2 C 0.5569(3) 0.7750(3) 0.3023(3)
H1 H 0.5284 0.7606 0.2604
C3 C 0.5767(3) 0.7205(3) 0.3332(3)
C4 C 0.6222(3) 0.7434(3) 0.3932(3)
H2 H 0.6356 0.7062 0.4149
C5 C 0.6476(5) 0.8205(4) 0.4207(4)
H3 H 0.6816 0.8376 0.4598
C6 C 0.6240(4) 0.8730(3) 0.3919(3)
H4 H 0.6389 0.9244 0.4128
C7 C 0.5527(3) 0.9070(3) 0.3004(3)
C8 C 0.5475(3) 0.6368(3) 0.3029(3)
N1 N 0.5698(3) 1.1179(3) 0.3976(2)
C9 C 0.6468(4) 1.1793(4) 0.4031(3)
H5 H 0.6800 1.1968 0.3636
C10 C 0.6824(5) 1.2200(5) 0.4632(4)
H6 H 0.7383 1.2636 0.4644
C11 C 0.6354(5) 1.1961(4) 0.5201(4)
H7 H 0.6572 1.2235 0.5618
C12 C 0.5564(5) 1.1318(5) 0.5156(3)
H8 H 0.5230 1.1125 0.5550
C13 C 0.5244(4) 1.0942(4) 0.4542(3)
H9 H 0.4687 1.0502 0.4521
Cu1D Cu 0.48001(4) 0.95252(3) 0.19499(3)
O2A O 0.4148(2) 0.9713(3) 0.33714(18)
O3E O 0.4838(2) 1.1086(3) 0.25514(19)
O4D O 0.6333(3) 1.1118(2) 0.25737(19)
Cu1B Cu 0.51999(4) 0.47251(3) 0.30501(3)
Cu1E Cu 0.47251(3) 0.51999(4) 0.19499(3)
N2 N 0.8092(8) 0.8252(8) 0.5504(7)
O5 O 0.8840(7) 0.8498(6) 0.5493(5)
O6 O 0.7578(7) 0.7667(7) 0.5150(5)
C14 C 0.7843(13) 0.8712(13) 0.5953(11)
C15 C 0.6965(15) 0.8281(14) 0.6122(12)
C16 C 0.8385(14) 0.9353(12) 0.6197(11)
C17 C 0.7128(13) 0.9338(13) 0.6759(11)
C18 C 0.8096(12) 0.9805(12) 0.6601(10)
C19 C 0.6610(15) 0.8670(14) 0.6439(12)
C20? C 0.769(5) 0.883(4) 0.614(4)
C21? C 0.733(3) 0.931(3) 0.567(2)
C22? C 0.610(3) 0.841(3) 0.620(2)
C23? C 0.793(3) 0.971(3) 0.537(2)
C24? C 0.763(2) 0.787(2) 0.7296(18)
C25? C 0.871(5) 0.853(5) 0.464(5)
C26? C 0.717(2) 0.810(2) 0.6908(19)
C27? C 0.668(2) 0.901(2) 0.584(2)
C28? C 0.815(2) 0.837(2) 0.7846(16)
C29? C 0.872(2) 0.865(2) 0.654(2)
C30? C 0.3333 0.6667 0.3097(8)
C31? C 0.3333 0.6667 0.2302(9)
H10? H 0.3853 0.6616 0.2047
H11? H 0.3778 0.7319 0.3230
loop_
_geom_bond_atom_site_label_1
_geom_bond_atom_site_label_2
_geom_bond_site_symmetry_1
_geom_bond_site_symmetry_2
Cu1 O1 1_555 1_555
O1 C7 1_555 1_555
O2 C8 1_555 1_555
O3 C8 1_555 1_555
O4 C7 1_555 1_555
C1 C2 1_555 1_555
C2 H1 1_555 1_555
C3 C2 1_555 1_555
C4 C3 1_555 1_555
H2 C4 1_555 1_555
C5 C4 1_555 1_555
H3 C5 1_555 1_555
C6 C1 1_555 1_555
H4 C6 1_555 1_555
C7 C1 1_555 1_555
C8 C3 1_555 1_555
N1 Cu1 1_555 1_555
C9 N1 1_555 1_555
H5 C9 1_555 1_555
C10 C9 1_555 1_555
H6 C10 1_555 1_555
C11 C10 1_555 1_555
H7 C11 1_555 1_555
C12 C11 1_555 1_555
H8 C12 1_555 1_555
C13 N1 1_555 1_555
H9 C13 1_555 1_555
N2 O5 1_555 1_555
O6 N2 1_555 1_555
C14 N2 1_555 1_555
C15 C14 1_555 1_555
C16 C14 1_555 1_555
C17 C18 1_555 1_555
C18 C16 1_555 1_555
C19 C15 1_555 1_555
Cu1D Cu1 1_555 1_555
O2A Cu1 1_555 1_555
O3E Cu1 1_555 1_555
O4D Cu1 1_555 1_555
Cu1B O2 1_555 1_555
Cu1E O3 1_555 1_555
O4 Cu1D 1_555 1_555
C5 C6 1_555 1_555
C12 C13 1_555 1_555
C17 C19 1_555 1_555
Cu1B Cu1E 1_555 1_555

#END
