
#######################################################################
#
#                 Cambridge Crystallographic Data Centre
#                                CCDC 
#
#######################################################################
#
# If this CIF has been generated from an entry in the Cambridge 
# Structural Database, then it will include bibliographic, chemical, 
# crystal, experimental, refinement or atomic coordinate data resulting 
# from the CCDC's data processing and validation procedures.
#
#######################################################################

data_PACLUB
_symmetry_cell_setting           monoclinic
_symmetry_space_group_name_H-M   'P 21/c'
_symmetry_Int_Tables_number      14
_space_group_name_Hall           '-P 2ybc'
loop_
_symmetry_equiv_pos_site_id
_symmetry_equiv_pos_as_xyz
1 x,y,z
2 -x,1/2+y,1/2-z
3 -x,-y,-z
4 x,1/2-y,1/2+z
_cell_length_a                   8.6411(5)
_cell_length_b                   14.8945(9)
_cell_length_c                   15.9135(3)
_cell_angle_alpha                90
_cell_angle_beta                 98.353(3)
_cell_angle_gamma                90
_cell_volume                     2026.42
loop_
_atom_site_label
_atom_site_type_symbol
_atom_site_fract_x
_atom_site_fract_y
_atom_site_fract_z
Cu1 Cu 0.44032(9) 0.26181(5) 0.09974(5)
Cu2 Cu 0.5000 0.0000 0.0000
S1 S 1.23927(19) 0.11787(11) 0.24555(11)
O1 O 0.6311(5) 0.3012(3) 0.1608(3)
O2 O 0.5317(5) 0.1524(3) 0.0639(3)
O3 O 0.6981(5) 0.0428(3) 0.0630(3)
O4 O 1.2326(5) 0.0342(3) 0.1992(3)
O5 O 1.2489(5) 0.1033(3) 0.3369(3)
O6 O 1.3600(5) 0.1792(3) 0.2267(3)
O7 O 0.4374(6) -0.0399(3) 0.1061(3)
N1 N 0.2291(6) 0.2367(3) 0.0360(3)
N2 N 0.3332(6) 0.3739(3) 0.1289(3)
C1 C 0.1826(8) 0.1626(4) -0.0061(4)
H1 H 0.2546 0.1164 -0.0076
C2 C 0.0331(8) 0.1504(5) -0.0479(4)
H2 H 0.0049 0.0979 -0.0778
C3 C -0.0721(9) 0.2178(5) -0.0441(5)
H3 H -0.1744 0.2110 -0.0711
C4 C -0.0285(8) 0.2960(5) -0.0007(4)
H4 H -0.0991 0.3429 0.0012
C5 C 0.1236(8) 0.3024(4) 0.0398(4)
C6 C 0.1837(8) 0.3819(4) 0.0923(4)
C7 C 0.0954(8) 0.4570(4) 0.1029(4)
H5 H -0.0077 0.4613 0.0766
C8 C 0.1636(9) 0.5255(5) 0.1535(5)
H6 H 0.1058 0.5763 0.1628
C9 C 0.3184(9) 0.5184(5) 0.1905(4)
H7 H 0.3663 0.5649 0.2236
C10 C 0.4008(8) 0.4412(4) 0.1774(4)
H8 H 0.5044 0.4358 0.2025
C11 C 0.7646(7) 0.2564(4) 0.1758(4)
C12 C 0.7902(7) 0.1693(4) 0.1445(4)
C13 C 0.9358(7) 0.1287(4) 0.1652(4)
H9 H 0.9513 0.0714 0.1449
C14 C 1.0572(7) 0.1712(4) 0.2150(4)
C15 C 1.0316(8) 0.2572(4) 0.2460(4)
H10 H 1.1125 0.2865 0.2802
C16 C 0.8917(7) 0.2981(4) 0.2272(4)
H11 H 0.8785 0.3553 0.2485
C17 C 0.6656(8) 0.1204(4) 0.0890(4)
O8 O 0.4936(6) 0.3444(3) -0.0385(3)
S1B S -0.23927(19) -0.11787(11) -0.24555(11)
O1B O 0.3689(5) -0.3012(3) -0.1608(3)
O2B O 0.4683(5) -0.1524(3) -0.0639(3)
O3B O 0.3019(5) -0.0428(3) -0.0630(3)
O4B O -0.2326(5) -0.0342(3) -0.1992(3)
O5B O -0.2489(5) -0.1033(3) -0.3369(3)
O6B O -0.3600(5) -0.1792(3) -0.2267(3)
C11B C 0.2354(7) -0.2564(4) -0.1758(4)
C12B C 0.2098(7) -0.1693(4) -0.1445(4)
C13B C 0.0642(7) -0.1287(4) -0.1652(4)
H9B H 0.0487 -0.0714 -0.1449
C14B C -0.0572(7) -0.1712(4) -0.2150(4)
C15B C -0.0316(8) -0.2572(4) -0.2460(4)
H10B H -0.1125 -0.2865 -0.2802
C16B C 0.1083(7) -0.2981(4) -0.2272(4)
H11B H 0.1215 -0.3553 -0.2485
C17B C 0.3344(8) -0.1204(4) -0.0890(4)
O7B O 0.5626(6) 0.0399(3) -0.1061(3)
Cu1B Cu 0.55968(9) -0.26181(5) -0.09974(5)
N1B N 0.7709(6) -0.2367(3) -0.0360(3)
N2B N 0.6668(6) -0.3739(3) -0.1289(3)
C1B C 0.8174(8) -0.1626(4) 0.0061(4)
H1B H 0.7454 -0.1164 0.0076
C2B C 0.9669(8) -0.1504(5) 0.0479(4)
H2B H 0.9951 -0.0979 0.0778
C3B C 1.0721(9) -0.2178(5) 0.0441(5)
H3B H 1.1744 -0.2110 0.0711
C4B C 1.0285(8) -0.2960(5) 0.0007(4)
H4B H 1.0991 -0.3429 -0.0012
C5B C 0.8764(8) -0.3024(4) -0.0398(4)
C6B C 0.8163(8) -0.3819(4) -0.0923(4)
C7B C 0.9046(8) -0.4570(4) -0.1029(4)
H5B H 1.0077 -0.4613 -0.0766
C8B C 0.8364(9) -0.5255(5) -0.1535(5)
H6B H 0.8942 -0.5763 -0.1628
C9B C 0.6816(9) -0.5184(5) -0.1905(4)
H7B H 0.6337 -0.5649 -0.2236
C10B C 0.5992(8) -0.4412(4) -0.1774(4)
H8B H 0.4956 -0.4358 -0.2025
O8B O 0.5064(6) -0.3444(3) 0.0385(3)
O6_2 O 0.3600(5) 0.1792(3) 0.2267(3)
Cu1_2 Cu 1.44032(9) 0.26181(5) 0.09974(5)
Cu1B_2 Cu -0.44032(9) -0.26181(5) -0.09974(5)
O6B_2 O 0.6400(5) -0.1792(3) -0.2267(3)
O9 O 0.5492(7) 0.2103(3) -0.1476(4)
O10 O 1.2944(5) -0.0513(3) 0.4356(3)
loop_
_geom_bond_atom_site_label_1
_geom_bond_atom_site_label_2
_geom_bond_site_symmetry_1
_geom_bond_site_symmetry_2
Cu1 O1 1_555 1_555
Cu2 O2 1_555 1_555
S1 O4 1_555 1_555
O1 C11 1_555 1_555
O2 Cu1 1_555 1_555
O3 Cu2 1_555 1_555
O5 S1 1_555 1_555
O6 S1 1_555 1_555
O7 Cu2 1_555 1_555
N1 Cu1 1_555 1_555
N2 Cu1 1_555 1_555
C1 N1 1_555 1_555
H1 C1 1_555 1_555
C2 C1 1_555 1_555
H2 C2 1_555 1_555
C3 C2 1_555 1_555
H3 C3 1_555 1_555
C4 C3 1_555 1_555
H4 C4 1_555 1_555
C5 N1 1_555 1_555
C6 N2 1_555 1_555
C7 C6 1_555 1_555
H5 C7 1_555 1_555
C8 C7 1_555 1_555
H6 C8 1_555 1_555
C9 C8 1_555 1_555
H7 C9 1_555 1_555
C10 N2 1_555 1_555
H8 C10 1_555 1_555
C11 C12 1_555 1_555
C12 C13 1_555 1_555
C13 H9 1_555 1_555
C14 S1 1_555 1_555
C15 C14 1_555 1_555
H10 C15 1_555 1_555
C16 C11 1_555 1_555
H11 C16 1_555 1_555
C17 O2 1_555 1_555
O8 Cu1 1_555 1_555
S1B O4B 1_555 1_555
O1B C11B 1_555 1_555
O2B Cu2 1_555 1_555
O3B Cu2 1_555 1_555
O5B S1B 1_555 1_555
O6B S1B 1_555 1_555
C11B C12B 1_555 1_555
C12B C13B 1_555 1_555
C13B H9B 1_555 1_555
C14B S1B 1_555 1_555
C15B C14B 1_555 1_555
H10B C15B 1_555 1_555
C16B C11B 1_555 1_555
H11B C16B 1_555 1_555
C17B O2B 1_555 1_555
O7B Cu2 1_555 1_555
Cu1B O1B 1_555 1_555
N1B Cu1B 1_555 1_555
N2B Cu1B 1_555 1_555
C1B N1B 1_555 1_555
H1B C1B 1_555 1_555
C2B C1B 1_555 1_555
H2B C2B 1_555 1_555
C3B C2B 1_555 1_555
H3B C3B 1_555 1_555
C4B C3B 1_555 1_555
H4B C4B 1_555 1_555
C5B N1B 1_555 1_555
C6B N2B 1_555 1_555
C7B C6B 1_555 1_555
H5B C7B 1_555 1_555
C8B C7B 1_555 1_555
H6B C8B 1_555 1_555
C9B C8B 1_555 1_555
H7B C9B 1_555 1_555
C10B N2B 1_555 1_555
H8B C10B 1_555 1_555
O8B Cu1B 1_555 1_555
O6_2 Cu1 1_555 1_555
Cu1_2 O6 1_555 1_555
Cu1B_2 O6B 1_555 1_555
O6B_2 Cu1B 1_555 1_555
O3 C17 1_555 1_555
C4 C5 1_555 1_555
C5 C6 1_555 1_555
C9 C10 1_555 1_555
C12 C17 1_555 1_555
C13 C14 1_555 1_555
C15 C16 1_555 1_555
O2B Cu1B 1_555 1_555
O3B C17B 1_555 1_555
C12B C17B 1_555 1_555
C13B C14B 1_555 1_555
C15B C16B 1_555 1_555
C4B C5B 1_555 1_555
C5B C6B 1_555 1_555
C9B C10B 1_555 1_555

#END
