
#######################################################################
#
#                 Cambridge Crystallographic Data Centre
#                                CCDC 
#
#######################################################################
#
# If this CIF has been generated from an entry in the Cambridge 
# Structural Database, then it will include bibliographic, chemical, 
# crystal, experimental, refinement or atomic coordinate data resulting 
# from the CCDC's data processing and validation procedures.
#
#######################################################################

data_PACLIP
_symmetry_cell_setting           orthorhombic
_symmetry_space_group_name_H-M   'P n a 21'
_symmetry_Int_Tables_number      33
_space_group_name_Hall           'P 2c -2n'
loop_
_symmetry_equiv_pos_site_id
_symmetry_equiv_pos_as_xyz
1 x,y,z
2 -x,-y,1/2+z
3 1/2+x,1/2-y,z
4 1/2-x,1/2+y,1/2+z
_cell_length_a                   9.5883(3)
_cell_length_b                   19.9709(2)
_cell_length_c                   8.1735(3)
_cell_angle_alpha                90
_cell_angle_beta                 90
_cell_angle_gamma                90
_cell_volume                     1565.12
loop_
_atom_site_label
_atom_site_type_symbol
_atom_site_fract_x
_atom_site_fract_y
_atom_site_fract_z
Zn1 Zn 0.78822(3) 0.656240(12) 0.21071(5)
N1 N 0.8700(2) 0.55665(10) 0.2221(3)
C1 C 0.7796(3) 0.50976(13) 0.2749(4)
C2 C 0.7141(4) 0.39544(17) 0.3480(5)
H1 H 0.7386 0.3507 0.3604
C3 C 0.9995(3) 0.53798(15) 0.1866(4)
H2 H 1.0632 0.5702 0.1525
C4 C 0.6386(3) 0.53042(13) 0.3104(3)
C5 C 0.3735(3) 0.57094(19) 0.3727(4)
H3 H 0.2838 0.5865 0.3937
C6 C 0.8161(3) 0.44191(15) 0.2917(4)
C7 C 0.5412(3) 0.48275(16) 0.3643(3)
C8 C 1.0433(3) 0.47114(17) 0.1988(6)
H4 H 1.1343 0.4595 0.1716
N2 N 0.6071(2) 0.59599(11) 0.2879(3)
C9 C 0.4053(3) 0.50564(18) 0.3939(4)
H5 H 0.3369 0.4758 0.4282
C10 C 0.4776(3) 0.61501(17) 0.3185(4)
H6 H 0.4543 0.6598 0.3033
C11 C 0.9536(4) 0.42431(15) 0.2499(4)
H7 H 0.9823 0.3799 0.2579
C12 C 0.5834(4) 0.41476(16) 0.3838(4)
H8 H 0.5195 0.3833 0.4217
O1 O 0.8488(2) 0.66693(11) 0.4740(3)
O2 O 0.6910(2) 0.74243(10) 0.2847(3)
O3 O 0.7240(2) 0.66005(10) 0.9714(3)
C13 C 0.6952(2) 0.69731(14) 0.6986(4)
H9 H 0.6150 0.7264 0.7127
H10 H 0.6607 0.6528 0.6742
C14 C 0.7796(3) 0.72209(16) 0.5536(4)
H11 H 0.8513 0.7527 0.5949
O4 O 0.8865(2) 0.72677(12) 0.8639(2)
C15 C 0.6898(3) 0.76014(14) 0.4337(3)
C16 C 0.7757(3) 0.69489(14) 0.8577(4)
O5 O 0.62156(18) 0.80872(10) 0.4878(3)
O6 O 0.9824(2) 0.69132(13) 0.1395(3)
H12 H 0.9773 0.7068 0.0468
H13 H 1.043(5) 0.721(2) 0.201(8)
H14 H 0.916(5) 0.676(2) 0.473(7)
O3_2 O 0.7240(2) 0.66005(10) -0.0286(3)
Zn1_2 Zn 0.78822(3) 0.656240(12) 1.21071(5)
loop_
_geom_bond_atom_site_label_1
_geom_bond_atom_site_label_2
_geom_bond_site_symmetry_1
_geom_bond_site_symmetry_2
Zn1 N1 1_555 1_555
N1 C1 1_555 1_555
C1 C4 1_555 1_555
C2 H1 1_555 1_555
C3 N1 1_555 1_555
H2 C3 1_555 1_555
C4 C7 1_555 1_555
C5 H3 1_555 1_555
C6 C1 1_555 1_555
C7 C9 1_555 1_555
C8 C3 1_555 1_555
H4 C8 1_555 1_555
N2 Zn1 1_555 1_555
C9 C5 1_555 1_555
H5 C9 1_555 1_555
C10 C5 1_555 1_555
H6 C10 1_555 1_555
C11 C6 1_555 1_555
H7 C11 1_555 1_555
C12 C2 1_555 1_555
H8 C12 1_555 1_555
O1 Zn1 1_555 1_555
O2 Zn1 1_555 1_555
O3 C16 1_555 1_555
C13 H9 1_555 1_555
H10 C13 1_555 1_555
C14 O1 1_555 1_555
H11 C14 1_555 1_555
O4 C16 1_555 1_555
C15 O2 1_555 1_555
C16 C13 1_555 1_555
O5 C15 1_555 1_555
O6 Zn1 1_555 1_555
H12 O6 1_555 1_555
H13 O6 1_555 1_555
H14 O1 1_555 1_555
O3_2 Zn1 1_555 1_555
Zn1_2 O3 1_555 1_555
C2 C6 1_555 1_555
C4 N2 1_555 1_555
C7 C12 1_555 1_555
C8 C11 1_555 1_555
N2 C10 1_555 1_555
C13 C14 1_555 1_555
C14 C15 1_555 1_555

#END
