
#######################################################################
#
#                 Cambridge Crystallographic Data Centre
#                                CCDC 
#
#######################################################################
#
# If this CIF has been generated from an entry in the Cambridge 
# Structural Database, then it will include bibliographic, chemical, 
# crystal, experimental, refinement or atomic coordinate data resulting 
# from the CCDC's data processing and validation procedures.
#
#######################################################################

data_PACLOV
_symmetry_cell_setting           monoclinic
_symmetry_space_group_name_H-M   'P 21/c'
_symmetry_Int_Tables_number      14
_space_group_name_Hall           '-P 2ybc'
loop_
_symmetry_equiv_pos_site_id
_symmetry_equiv_pos_as_xyz
1 x,y,z
2 x,1/2-y,1/2+z
3 -x,-y,-z
4 -x,1/2+y,1/2-z
_cell_length_a                   7.0117(3)
_cell_length_b                   19.7344(6)
_cell_length_c                   11.9375(3)
_cell_angle_alpha                90
_cell_angle_beta                 94.636(3)
_cell_angle_gamma                90
_cell_volume                     1646.41
loop_
_atom_site_label
_atom_site_type_symbol
_atom_site_fract_x
_atom_site_fract_y
_atom_site_fract_z
C1 C 0.8274(5) 0.47157(18) -0.2259(3)
H1 H 0.8462 0.4423 -0.2851
C2 C 0.8407(5) 0.54080(18) -0.2431(3)
H2 H 0.8659 0.5579 -0.3130
C3 C 0.8157(5) 0.58388(18) -0.1542(3)
H3 H 0.8261 0.6305 -0.1634
C4 C 0.7754(5) 0.55756(17) -0.0520(3)
H4 H 0.7586 0.5861 0.0085
C5 C 0.7602(4) 0.48795(16) -0.0406(3)
C6 C 0.7161(4) 0.45369(16) 0.0638(3)
C7 C 0.6910(5) 0.48630(18) 0.1645(3)
H5 H 0.6947 0.5334 0.1685
C8 C 0.6605(5) 0.4485(2) 0.2587(3)
H6 H 0.6464 0.4697 0.3271
C9 C 0.6513(5) 0.3789(2) 0.2500(3)
H7 H 0.6314 0.3525 0.3125
C10 C 0.6720(5) 0.34933(18) 0.1477(3)
H8 H 0.6637 0.3024 0.1417
C11 C 0.4109(5) 0.28108(16) -0.1091(3)
C12 C 0.2711(4) 0.22406(16) -0.0954(3)
H9 H 0.2983 0.2045 -0.0213
H10 H 0.2938 0.1891 -0.1500
C13 C 0.0610(4) 0.24306(16) -0.1091(3)
H11 H -0.0121 0.2016 -0.0982
C14 C -0.0074(5) 0.27112(15) -0.2247(3)
N1 N 0.7886(4) 0.44546(13) -0.1268(2)
N2 N 0.7035(4) 0.38549(13) 0.0561(2)
Cu1 Cu 0.75525(6) 0.346989(19) -0.09243(3)
O1 O 0.5869(3) 0.26668(11) -0.0774(2)
O2 O 0.3593(3) 0.33686(11) -0.1478(2)
O3 O -0.1410(3) 0.31545(12) -0.22972(18)
O4 O 0.0610(4) 0.24651(13) -0.30790(19)
O5 O 0.0123(3) 0.29005(12) -0.0253(2)
H12 H 0.018(7) 0.275(3) 0.031(4)
O3_2 O 0.8590(3) 0.31545(12) -0.22972(18)
O5_2 O 1.0123(3) 0.29005(12) -0.0253(2)
Cu1_2 Cu -0.24475(6) 0.346989(19) -0.09243(3)
H12_2 H 1.018(7) 0.275(3) 0.031(4)
O6 O 0.7000(5) 0.35106(19) -0.4533(3)
O7 O 0.0238(5) 0.43015(18) 0.5076(3)
O8 O 0.3573(5) 0.39583(17) -0.3644(3)
loop_
_geom_bond_atom_site_label_1
_geom_bond_atom_site_label_2
_geom_bond_site_symmetry_1
_geom_bond_site_symmetry_2
C1 H1 1_555 1_555
C2 C1 1_555 1_555
H2 C2 1_555 1_555
C3 C2 1_555 1_555
H3 C3 1_555 1_555
C4 C3 1_555 1_555
H4 C4 1_555 1_555
C5 C4 1_555 1_555
C6 C5 1_555 1_555
C7 C6 1_555 1_555
H5 C7 1_555 1_555
C8 C7 1_555 1_555
H6 C8 1_555 1_555
C9 C8 1_555 1_555
H7 C9 1_555 1_555
C10 C9 1_555 1_555
H8 C10 1_555 1_555
C11 C12 1_555 1_555
C12 H9 1_555 1_555
H10 C12 1_555 1_555
C13 C12 1_555 1_555
H11 C13 1_555 1_555
C14 C13 1_555 1_555
N1 C1 1_555 1_555
N2 C6 1_555 1_555
Cu1 N1 1_555 1_555
O1 C11 1_555 1_555
O2 C11 1_555 1_555
O3 C14 1_555 1_555
O4 C14 1_555 1_555
O5 C13 1_555 1_555
H12 O5 1_555 1_555
O3_2 Cu1 1_555 1_555
O5_2 Cu1 1_555 1_555
Cu1_2 O3 1_555 1_555
H12_2 O5_2 1_555 1_555
C5 N1 1_555 1_555
C10 N2 1_555 1_555
N2 Cu1 1_555 1_555
Cu1 O1 1_555 1_555
O5 Cu1_2 1_555 1_555

#END
