
#######################################################################
#
#                 Cambridge Crystallographic Data Centre
#                                CCDC 
#
#######################################################################
#
# If this CIF has been generated from an entry in the Cambridge 
# Structural Database, then it will include bibliographic, chemical, 
# crystal, experimental, refinement or atomic coordinate data resulting 
# from the CCDC's data processing and validation procedures.
#
#######################################################################

data_PACLUB01
_symmetry_cell_setting           monoclinic
_symmetry_space_group_name_H-M   'P 21/c'
_symmetry_Int_Tables_number      14
_space_group_name_Hall           '-P 2ybc'
loop_
_symmetry_equiv_pos_site_id
_symmetry_equiv_pos_as_xyz
1 x,y,z
2 -x,1/2+y,1/2-z
3 -x,-y,-z
4 x,1/2-y,1/2+z
_cell_length_a                   8.6362(10)
_cell_length_b                   14.8632(17)
_cell_length_c                   15.9582(17)
_cell_angle_alpha                90
_cell_angle_beta                 98.186(2)
_cell_angle_gamma                90
_cell_volume                     2027.55
loop_
_atom_site_label
_atom_site_type_symbol
_atom_site_fract_x
_atom_site_fract_y
_atom_site_fract_z
C1 C 0.1874(10) 0.8380(6) -0.0074(5)
H1 H 0.2627 0.8851 -0.0092
C2 C 0.0368(11) 0.8506(7) -0.0492(6)
H2 H 0.0078 0.9047 -0.0803
C3 C -0.0696(12) 0.7822(7) -0.0448(6)
H3 H -0.1747 0.7887 -0.0732
C4 C -0.0259(9) 0.7035(6) -0.0003(5)
H4 H -0.0989 0.6553 0.0029
C5 C 0.1271(9) 0.6964(6) 0.0394(5)
C6 C 0.1874(9) 0.6180(6) 0.0924(5)
C7 C 0.0961(10) 0.5426(6) 0.1041(5)
H5 H -0.0119 0.5401 0.0794
C8 C 0.1645(11) 0.4741(6) 0.1528(6)
H6 H 0.1062 0.4202 0.1592
C9 C 0.3208(11) 0.4809(6) 0.1926(6)
H7 H 0.3696 0.4335 0.2279
C10 C 0.3999(10) 0.5577(6) 0.1786(5)
H8 H 0.5058 0.5647 0.2057
C11 C 0.7691(8) 0.7431(5) 0.1774(5)
C12 C 0.8921(9) 0.7005(6) 0.2280(5)
H9 H 0.8755 0.6418 0.2502
C13 C 1.0373(9) 0.7411(5) 0.2465(5)
H10 H 1.1220 0.7106 0.2805
C14 C 1.0595(8) 0.8278(5) 0.2157(5)
C15 C 0.9385(8) 0.8712(5) 0.1641(5)
H11 H 0.9556 0.9295 0.1413
C16 C 0.7924(8) 0.8291(5) 0.1451(5)
C17 C 0.6716(10) 0.8776(6) 0.0862(5)
Cu1 Cu 0.44331(11) 0.73734(7) 0.09945(6)
Cu2 Cu 0.5000 1.0000 0.0000
N1 N 0.2327(8) 0.7625(5) 0.0363(4)
N2 N 0.3361(8) 0.6246(4) 0.1289(4)
O1 O 0.7053(7) 0.9544(4) 0.0590(4)
O2 O 0.5353(6) 0.8456(4) 0.0628(3)
O3 O 0.6347(6) 0.6979(4) 0.1609(4)
O4 O 1.2349(7) 0.9662(4) 0.1998(4)
O5 O 1.2511(7) 0.8945(4) 0.3381(4)
O6 O 1.3640(6) 0.8207(4) 0.2258(4)
O7 O 0.4339(8) 1.0392(4) 0.1043(4)
H12 H 0.4317 0.9945 0.1373
H13 H 0.4990 1.0778 0.1273
S1 S 1.2413(2) 0.88193(14) 0.24610(13)
O8 O 0.4973(7) 0.6576(4) -0.0387(4)
H14 H 0.4322 0.6190 -0.0257
H15 H 0.5898 0.6377 -0.0253
C1B C 0.8126(10) 1.1620(6) 0.0074(5)
H1B H 0.7373 1.1149 0.0092
C2B C 0.9632(11) 1.1494(7) 0.0492(6)
H2B H 0.9922 1.0953 0.0803
C3B C 1.0696(12) 1.2178(7) 0.0448(6)
H3B H 1.1747 1.2113 0.0732
C4B C 1.0259(9) 1.2965(6) 0.0003(5)
H4B H 1.0989 1.3447 -0.0029
C5B C 0.8729(9) 1.3036(6) -0.0394(5)
C6B C 0.8126(9) 1.3820(6) -0.0924(5)
C7B C 0.9039(10) 1.4574(6) -0.1041(5)
H5B H 1.0119 1.4599 -0.0794
C8B C 0.8355(11) 1.5259(6) -0.1528(6)
H6B H 0.8938 1.5798 -0.1592
C9B C 0.6792(11) 1.5191(6) -0.1926(6)
H7B H 0.6304 1.5665 -0.2279
C10B C 0.6001(10) 1.4423(6) -0.1786(5)
H8B H 0.4942 1.4353 -0.2057
C11B C 0.2309(8) 1.2569(5) -0.1774(5)
C12B C 0.1079(9) 1.2995(6) -0.2280(5)
H9B H 0.1245 1.3582 -0.2502
C13B C -0.0373(9) 1.2589(5) -0.2465(5)
H10B H -0.1220 1.2894 -0.2805
C14B C -0.0595(8) 1.1722(5) -0.2157(5)
C15B C 0.0615(8) 1.1288(5) -0.1641(5)
H11B H 0.0444 1.0705 -0.1413
C16B C 0.2076(8) 1.1709(5) -0.1451(5)
C17B C 0.3284(10) 1.1224(6) -0.0862(5)
Cu1B Cu 0.55669(11) 1.26266(7) -0.09945(6)
N1B N 0.7673(8) 1.2375(5) -0.0363(4)
N2B N 0.6639(8) 1.3754(4) -0.1289(4)
O1B O 0.2947(7) 1.0456(4) -0.0590(4)
O2B O 0.4647(6) 1.1544(4) -0.0628(3)
O3B O 0.3653(6) 1.3021(4) -0.1609(4)
O4B O -0.2349(7) 1.0338(4) -0.1998(4)
O5B O -0.2511(7) 1.1055(4) -0.3381(4)
O6B O -0.3640(6) 1.1793(4) -0.2258(4)
O7B O 0.5661(8) 0.9608(4) -0.1043(4)
H12B H 0.5683 1.0055 -0.1373
H13B H 0.5010 0.9222 -0.1273
S1B S -0.2413(2) 1.11807(14) -0.24610(13)
O8B O 0.5027(7) 1.3424(4) 0.0387(4)
H14B H 0.5678 1.3810 0.0257
H15B H 0.4102 1.3623 0.0253
Cu1_2 Cu 1.44331(11) 0.73734(7) 0.09945(6)
Cu1B_2 Cu -0.44331(11) 1.26266(7) -0.09945(6)
O6_2 O 0.3640(6) 0.8207(4) 0.2258(4)
O6B_2 O 0.6360(6) 1.1793(4) -0.2258(4)
O9 O 0.7078(7) 0.5510(4) 0.0654(4)
H16 H 0.6738 0.5068 0.0913
H17 H 0.7342 0.5328 0.0190
O10 O 0.4450(9) 0.2106(6) 0.1476(5)
H18 H 0.4872 0.1858 0.1085
H19 H 0.5084 0.2093 0.1935
loop_
_geom_bond_atom_site_label_1
_geom_bond_atom_site_label_2
_geom_bond_site_symmetry_1
_geom_bond_site_symmetry_2
C1 H1 1_555 1_555
C2 C1 1_555 1_555
H2 C2 1_555 1_555
C3 C2 1_555 1_555
H3 C3 1_555 1_555
C4 C3 1_555 1_555
H4 C4 1_555 1_555
C5 C4 1_555 1_555
C6 C5 1_555 1_555
C7 C6 1_555 1_555
H5 C7 1_555 1_555
C8 C7 1_555 1_555
H6 C8 1_555 1_555
C9 C8 1_555 1_555
H7 C9 1_555 1_555
C10 C9 1_555 1_555
H8 C10 1_555 1_555
C11 C12 1_555 1_555
C12 H9 1_555 1_555
C13 C12 1_555 1_555
H10 C13 1_555 1_555
C14 C13 1_555 1_555
C15 C14 1_555 1_555
H11 C15 1_555 1_555
C16 C11 1_555 1_555
C17 C16 1_555 1_555
Cu1 N1 1_555 1_555
Cu2 O1 1_555 1_555
N1 C1 1_555 1_555
N2 C6 1_555 1_555
O1 C17 1_555 1_555
O2 C17 1_555 1_555
O3 C11 1_555 1_555
O4 S1 1_555 1_555
O5 S1 1_555 1_555
O6 S1 1_555 1_555
O7 Cu2 1_555 1_555
H12 O7 1_555 1_555
H13 O7 1_555 1_555
S1 C14 1_555 1_555
O8 Cu1 1_555 1_555
H14 O8 1_555 1_555
H15 O8 1_555 1_555
O9 H16 1_555 1_555
H17 O9 1_555 1_555
O10 H18 1_555 1_555
H19 O10 1_555 1_555
C1B H1B 1_555 1_555
C2B C1B 1_555 1_555
H2B C2B 1_555 1_555
C3B C2B 1_555 1_555
H3B C3B 1_555 1_555
C4B C3B 1_555 1_555
H4B C4B 1_555 1_555
C5B C4B 1_555 1_555
C6B C5B 1_555 1_555
C7B C6B 1_555 1_555
H5B C7B 1_555 1_555
C8B C7B 1_555 1_555
H6B C8B 1_555 1_555
C9B C8B 1_555 1_555
H7B C9B 1_555 1_555
C10B C9B 1_555 1_555
H8B C10B 1_555 1_555
C11B C12B 1_555 1_555
C12B H9B 1_555 1_555
C13B C12B 1_555 1_555
H10B C13B 1_555 1_555
C14B C13B 1_555 1_555
C15B C14B 1_555 1_555
H11B C15B 1_555 1_555
C16B C11B 1_555 1_555
C17B C16B 1_555 1_555
Cu1B N1B 1_555 1_555
N1B C1B 1_555 1_555
N2B C6B 1_555 1_555
O1B Cu2 1_555 1_555
O2B Cu2 1_555 1_555
O3B C11B 1_555 1_555
O4B S1B 1_555 1_555
O5B S1B 1_555 1_555
O6B S1B 1_555 1_555
O7B Cu2 1_555 1_555
H12B O7B 1_555 1_555
H13B O7B 1_555 1_555
S1B C14B 1_555 1_555
O8B Cu1B 1_555 1_555
H14B O8B 1_555 1_555
H15B O8B 1_555 1_555
Cu1_2 O6 1_555 1_555
Cu1B_2 O6B 1_555 1_555
O6_2 Cu1 1_555 1_555
O6B_2 Cu1B 1_555 1_555
C5 N1 1_555 1_555
C10 N2 1_555 1_555
C15 C16 1_555 1_555
Cu1 N2 1_555 1_555
Cu1 O2 1_555 1_555
Cu1 O3 1_555 1_555
Cu2 O2 1_555 1_555
C5B N1B 1_555 1_555
C10B N2B 1_555 1_555
C15B C16B 1_555 1_555
C17B O1B 1_555 1_555
C17B O2B 1_555 1_555
Cu1B N2B 1_555 1_555
Cu1B O2B 1_555 1_555
Cu1B O3B 1_555 1_555

#END
