
#######################################################################
#
#                 Cambridge Crystallographic Data Centre
#                                CCDC 
#
#######################################################################
#
# If this CIF has been generated from an entry in the Cambridge 
# Structural Database, then it will include bibliographic, chemical, 
# crystal, experimental, refinement or atomic coordinate data resulting 
# from the CCDC's data processing and validation procedures.
#
#######################################################################

data_PACLOV01
_symmetry_cell_setting           monoclinic
_symmetry_space_group_name_H-M   'P 21/c'
_symmetry_Int_Tables_number      14
_space_group_name_Hall           '-P 2ybc'
loop_
_symmetry_equiv_pos_site_id
_symmetry_equiv_pos_as_xyz
1 x,y,z
2 x,1/2-y,1/2+z
3 -x,-y,-z
4 -x,1/2+y,1/2-z
_cell_length_a                   7.0113(14)
_cell_length_b                   19.734(4)
_cell_length_c                   11.920(2)
_cell_angle_alpha                90
_cell_angle_beta                 94.71(3)
_cell_angle_gamma                90
_cell_volume                     1643.69
loop_
_atom_site_label
_atom_site_type_symbol
_atom_site_fract_x
_atom_site_fract_y
_atom_site_fract_z
Cu1 Cu -0.75570(4) 0.846767(13) -0.90770(2)
O1 O -1.0119(2) 0.78990(9) -0.97534(12)
O3 O -0.8594(2) 0.81513(9) -0.77028(13)
O5 O -1.0607(3) 0.74617(9) -0.69285(14)
O7 O -1.3586(3) 0.83654(8) -0.85280(16)
O8 O -1.5863(2) 0.76644(9) -0.92273(16)
N1 N -0.7034(3) 0.88524(10) -1.05596(17)
N2 N -0.7880(3) 0.94555(10) -0.87336(17)
C1 C -0.6705(4) 0.84896(13) -1.1473(2)
H1 H -0.6599 0.8021 -1.1410
C2 C -0.6518(4) 0.87875(15) -1.2506(2)
H2 H -0.6348 0.8523 -1.3136
C3 C -0.6587(4) 0.94887(15) -1.2589(2)
H3 H -0.6425 0.9702 -1.3271
C4 C -0.6900(3) 0.98642(13) -1.1646(2)
H4 H -0.6938 1.0335 -1.1683
C5 C -0.7157(3) 0.95343(12) -1.06415(19)
C6 C -0.7607(3) 0.98782(11) -0.95913(19)
C7 C -0.7754(3) 1.05740(12) -0.9480(2)
H5 H -0.7580 1.0859 -1.0085
C8 C -0.8164(4) 1.08365(13) -0.8450(2)
H6 H -0.8271 1.1302 -0.8354
C9 C -0.8413(4) 1.04062(14) -0.7572(2)
H7 H -0.8666 1.0576 -0.6872
C10 C -0.8282(4) 0.97165(13) -0.7741(2)
H8 H -0.8477 0.9424 -0.7149
C11 C -0.9924(3) 0.77086(11) -0.77566(17)
C12 C -1.0599(3) 0.74260(11) -0.89169(17)
H9 H -0.9866 0.7012 -0.9026
C13 C -1.2705(3) 0.72377(11) -0.9052(2)
H10 H -1.2982 0.7043 -0.9794
H11 H -1.2931 0.6888 -0.8506
C14 C -1.4109(3) 0.78112(11) -0.89111(18)
H16 H -1.021(6) 0.7718(19) -1.0402(17)
O8_2 O -0.5863(2) 0.76644(9) -0.92273(16)
Cu1_2 Cu -1.75570(4) 0.846767(13) -0.90770(2)
O2 O -0.3561(5) 0.60400(15) -0.1362(2)
H14 H -0.364(11) 0.623(4) -0.210(3)
H18 H -0.450(9) 0.597(4) -0.082(5)
O4 O 0.0232(4) 0.43037(15) 0.0078(2)
H12 H 0.120(7) 0.424(3) 0.067(4)
H13 H -0.092(5) 0.405(3) 0.004(5)
O6 O -0.7033(5) 0.85000(17) -0.5498(3)
H15 H -0.678(3) 0.8087(7) -0.5099(17)
H17 H -0.638(3) 0.8795(11) -0.5040(19)
loop_
_geom_bond_atom_site_label_1
_geom_bond_atom_site_label_2
_geom_bond_site_symmetry_1
_geom_bond_site_symmetry_2
Cu1 O1 1_555 1_555
O1 C12 1_555 1_555
O2 H14 1_555 1_555
O3 Cu1 1_555 1_555
O4 H12 1_555 1_555
O5 C11 1_555 1_555
O6 H15 1_555 1_555
O7 C14 1_555 1_555
O8 C14 1_555 1_555
N1 Cu1 1_555 1_555
N2 Cu1 1_555 1_555
C1 N1 1_555 1_555
H1 C1 1_555 1_555
C2 C1 1_555 1_555
H2 C2 1_555 1_555
C3 C2 1_555 1_555
H3 C3 1_555 1_555
C4 C3 1_555 1_555
H4 C4 1_555 1_555
C5 N1 1_555 1_555
C6 N2 1_555 1_555
C7 C6 1_555 1_555
H5 C7 1_555 1_555
C8 C7 1_555 1_555
H6 C8 1_555 1_555
C9 C8 1_555 1_555
H7 C9 1_555 1_555
C10 N2 1_555 1_555
H8 C10 1_555 1_555
C11 O3 1_555 1_555
C12 C11 1_555 1_555
H9 C12 1_555 1_555
C13 C12 1_555 1_555
H10 C13 1_555 1_555
H11 C13 1_555 1_555
C14 C13 1_555 1_555
H13 O4 1_555 1_555
H16 O1 1_555 1_555
H17 O6 1_555 1_555
H18 O2 1_555 1_555
O8_2 Cu1 1_555 1_555
Cu1_2 O8 1_555 1_555
C4 C5 1_555 1_555
C5 C6 1_555 1_555
C9 C10 1_555 1_555

#END
