
#######################################################################
#
#                 Cambridge Crystallographic Data Centre
#                                CCDC 
#
#######################################################################
#
# If this CIF has been generated from an entry in the Cambridge 
# Structural Database, then it will include bibliographic, chemical, 
# crystal, experimental, refinement or atomic coordinate data resulting 
# from the CCDC's data processing and validation procedures.
#
#######################################################################

data_PACMEM
_symmetry_cell_setting           monoclinic
_symmetry_space_group_name_H-M   'C 2/c'
_symmetry_Int_Tables_number      15
_space_group_name_Hall           '-C 2yn'
loop_
_symmetry_equiv_pos_site_id
_symmetry_equiv_pos_as_xyz
1 x,y,z
2 1/2+x,1/2+y,z
3 x,-y,1/2+z
4 1/2+x,1/2-y,1/2+z
5 -x,-y,-z
6 1/2-x,1/2-y,-z
7 -x,y,1/2-z
8 1/2-x,1/2+y,1/2-z
_cell_length_a                   27.077(1)
_cell_length_b                   9.887(1)
_cell_length_c                   9.217(1)
_cell_angle_alpha                90
_cell_angle_beta                 108.85(1)
_cell_angle_gamma                90
_cell_volume                     2335.15
loop_
_atom_site_label
_atom_site_type_symbol
_atom_site_fract_x
_atom_site_fract_y
_atom_site_fract_z
Co1 Co 0.281652(9) 0.87757(3) 0.04973(3)
N1 N 0.36255(7) 0.86824(17) 0.1270(2)
O1 O 0.28910(5) 0.96001(15) 0.27660(15)
C1 C 0.22347(8) 0.7899(2) 0.2516(2)
H1 H 0.2320 0.7124 0.3178
O2 O 0.23513(5) 0.76139(14) 0.11677(15)
O3 O 0.25180(6) 0.94698(15) 0.45879(16)
C2 C 0.16647(8) 0.8231(2) 0.2203(2)
C3 C 0.47116(8) 0.8546(2) 0.2235(3)
C4 C 0.38941(8) 0.9115(3) 0.0365(3)
H2 H 0.3707 0.9478 -0.0627
C5 C 0.44307(9) 0.9056(3) 0.0807(3)
H3 H 0.4614 0.9367 0.0136
C6 C 0.25734(8) 0.9085(2) 0.3339(2)
C7 C 0.38934(8) 0.8152(3) 0.2630(3)
H4 H 0.3701 0.7820 0.3266
C8 C 0.08584(11) 0.7902(4) 0.2738(4)
H5 H 0.0661 0.7460 0.3297
C9 C 0.13830(10) 0.7618(3) 0.3046(3)
H6 H 0.1554 0.6995 0.3850
C10 C 0.44293(8) 0.8075(3) 0.3154(3)
H7 H 0.4607 0.7690 0.4141
C11 C 0.08870(12) 0.9409(3) 0.0760(4)
H8 H 0.0714 1.0019 -0.0055
C12 C 0.06130(12) 0.8802(4) 0.1610(4)
H9 H 0.0253 0.9024 0.1428
C13 C 0.14113(10) 0.9133(3) 0.1056(3)
H10 H 0.1605 0.9566 0.0478
C3F C 0.52884(8) 0.8546(2) 0.2765(3)
C5F C 0.55693(9) 0.9056(3) 0.4193(3)
C4F C 0.61059(8) 0.9115(3) 0.4635(3)
N1F N 0.63745(7) 0.86824(17) 0.3730(2)
C7F C 0.61066(8) 0.8152(3) 0.2370(3)
H4F H 0.6299 0.7820 0.1734
C10F C 0.55707(8) 0.8075(3) 0.1846(3)
H7F H 0.5393 0.7690 0.0859
H2F H 0.6293 0.9478 0.5627
H3F H 0.5386 0.9367 0.4864
O1E O 0.21090(5) 0.53999(15) -0.27660(15)
C1E C 0.27653(8) 0.7101(2) -0.2516(2)
H1E H 0.2680 0.7876 -0.3178
O2E O 0.26487(5) 0.73861(14) -0.11677(15)
O3E O 0.24820(6) 0.55302(15) -0.45879(16)
C2E C 0.33353(8) 0.6769(2) -0.2203(2)
C6E C 0.24266(8) 0.5915(2) -0.3339(2)
C8E C 0.41416(11) 0.7098(4) -0.2738(4)
H5E H 0.4339 0.7540 -0.3297
C9E C 0.36170(10) 0.7382(3) -0.3046(3)
H6E H 0.3446 0.8005 -0.3850
C11E C 0.41130(12) 0.5591(3) -0.0760(4)
H8E H 0.4286 0.4981 0.0055
C12E C 0.43870(12) 0.6198(4) -0.1610(4)
H9E H 0.4747 0.5976 -0.1428
C13E C 0.35887(10) 0.5867(3) -0.1056(3)
H10E H 0.3395 0.5434 -0.0478
Co1F Co 0.718348(9) 0.87757(3) 0.45027(3)
O3B O 0.25180(6) 1.05302(15) -0.04121(16)
Co1E Co 0.218348(9) 0.62243(3) -0.04973(3)
Co1B Co 0.281652(9) 1.12243(3) 0.54973(3)
Co1G Co 0.218348(9) 0.37757(3) -0.54973(3)
O1F O 0.71090(5) 0.96001(15) 0.22340(15)
O2C O 0.73513(5) 0.73861(14) 0.61677(15)
O2F O 0.76487(5) 0.76139(14) 0.38323(15)
O3D O 0.74820(6) 1.05302(15) 0.54121(16)
loop_
_geom_bond_atom_site_label_1
_geom_bond_atom_site_label_2
_geom_bond_site_symmetry_1
_geom_bond_site_symmetry_2
Co1 N1 1_555 1_555
N1 C4 1_555 1_555
O1 Co1 1_555 1_555
C1 H1 1_555 1_555
O2 Co1 1_555 1_555
O3 C6 1_555 1_555
C2 C1 1_555 1_555
C3 C5 1_555 1_555
C4 H2 1_555 1_555
C5 C4 1_555 1_555
H3 C5 1_555 1_555
C6 O1 1_555 1_555
C7 N1 1_555 1_555
H4 C7 1_555 1_555
C8 H5 1_555 1_555
C9 C2 1_555 1_555
H6 C9 1_555 1_555
C10 C3 1_555 1_555
H7 C10 1_555 1_555
C11 H8 1_555 1_555
C12 C8 1_555 1_555
H9 C12 1_555 1_555
C13 C2 1_555 1_555
H10 C13 1_555 1_555
C3F C3 1_555 1_555
C5F C3F 1_555 1_555
C4F C5F 1_555 1_555
N1F C4F 1_555 1_555
C7F N1F 1_555 1_555
H4F C7F 1_555 1_555
C10F C3F 1_555 1_555
H7F C10F 1_555 1_555
H2F C4F 1_555 1_555
H3F C5F 1_555 1_555
O1E C6E 1_555 1_555
C1E H1E 1_555 1_555
O2E Co1 1_555 1_555
O3E C6E 1_555 1_555
C2E C1E 1_555 1_555
C6E C1E 1_555 1_555
C8E H5E 1_555 1_555
C9E C2E 1_555 1_555
H6E C9E 1_555 1_555
C11E H8E 1_555 1_555
C12E C8E 1_555 1_555
H9E C12E 1_555 1_555
C13E C2E 1_555 1_555
H10E C13E 1_555 1_555
Co1F N1F 1_555 1_555
O3B Co1 1_555 1_555
Co1E O2 1_555 1_555
Co1B O3 1_555 1_555
Co1G O3E 1_555 1_555
O1F Co1F 1_555 1_555
O2C Co1F 1_555 1_555
O2F Co1F 1_555 1_555
O3D Co1F 1_555 1_555
C1 C6 1_555 1_555
C1 O2 1_555 1_555
C7 C10 1_555 1_555
C8 C9 1_555 1_555
C11 C12 1_555 1_555
C11 C13 1_555 1_555
C7F C10F 1_555 1_555
O1E Co1E 1_555 1_555
C1E O2E 1_555 1_555
O2E Co1E 1_555 1_555
C8E C9E 1_555 1_555
C11E C12E 1_555 1_555
C11E C13E 1_555 1_555

#END
