
#######################################################################
#
#                 Cambridge Crystallographic Data Centre
#                                CCDC 
#
#######################################################################
#
# If this CIF has been generated from an entry in the Cambridge 
# Structural Database, then it will include bibliographic, chemical, 
# crystal, experimental, refinement or atomic coordinate data resulting 
# from the CCDC's data processing and validation procedures.
#
#######################################################################

data_PACMUC
_symmetry_cell_setting           monoclinic
_symmetry_space_group_name_H-M   'P 2/n'
_symmetry_Int_Tables_number      13
_space_group_name_Hall           '-P 2yac'
loop_
_symmetry_equiv_pos_site_id
_symmetry_equiv_pos_as_xyz
1 x,y,z
2 1/2+x,-y,1/2+z
3 -x,-y,-z
4 1/2-x,y,1/2-z
_cell_length_a                   14.821(2)
_cell_length_b                   14.562(2)
_cell_length_c                   19.517(3)
_cell_angle_alpha                90
_cell_angle_beta                 103.993(3)
_cell_angle_gamma                90
_cell_volume                     4087.23
loop_
_atom_site_label
_atom_site_type_symbol
_atom_site_fract_x
_atom_site_fract_y
_atom_site_fract_z
Ni1 Ni 0.13802(3) 0.61254(4) 0.10503(3)
Ni2 Ni 0.33051(3) 0.66494(4) 0.10292(3)
Ni3 Ni 0.2500 0.56081(5) 0.2500
Na1 Na 0.0000 0.5000 0.0000
O1 O 0.19990(18) 0.7253(2) 0.08330(15)
O2 O 0.01097(18) 0.6615(2) 0.05093(16)
O3 O 0.26787(17) 0.5674(2) 0.15085(15)
H1 H 0.2782 0.5047 0.1332
O4 O 0.14534(19) 0.5552(2) 0.00909(15)
O5 O 0.29277(19) 0.5915(2) 0.01015(15)
O6 O 0.06843(18) 0.4976(2) 0.11980(15)
O7 O 0.15165(19) 0.4585(2) 0.22775(16)
O8 O 0.14683(18) 0.65691(19) 0.20914(14)
O9 O 0.13833(18) 0.7397(2) 0.30387(15)
N1 N 0.3743(2) 0.7777(3) 0.0507(2)
N2 N 0.4759(2) 0.6183(3) 0.1199(2)
C1 C 0.0567(4) 1.0260(4) -0.0950(3)
H2 H -0.0104 1.0194 -0.1144
H3 H 0.0881 1.0286 -0.1338
H4 H 0.0692 1.0827 -0.0673
C2 C 0.0927(3) 0.9448(3) -0.0482(3)
C3 C 0.1869(3) 0.9358(4) -0.0140(3)
H5 H 0.2280 0.9830 -0.0211
C4 C 0.1656(3) 0.7919(3) 0.0404(2)
C5 C 0.0686(3) 0.7982(3) 0.0057(2)
C6 C 0.0353(3) 0.8747(3) -0.0370(2)
H6 H -0.0293 0.8783 -0.0589
C7 C 0.3263(3) 0.8613(3) 0.0649(3)
H7 H 0.3568 0.9153 0.0495
H8 H 0.3333 0.8666 0.1165
C8 C 0.3632(3) 0.7689(4) -0.0270(2)
H9 H 0.3856 0.8249 -0.0453
H10 H 0.2974 0.7597 -0.0502
H11 H 0.3993 0.7161 -0.0367
C9 C 0.4748(3) 0.7830(4) 0.0879(3)
H12 H 0.5061 0.8291 0.0643
H13 H 0.4808 0.8033 0.1373
C10 C 0.5206(3) 0.6936(4) 0.0879(3)
H14 H 0.5864 0.6992 0.1143
H15 H 0.5199 0.6768 0.0386
C11 C 0.4855(3) 0.5310(4) 0.0830(3)
C12 C 0.5210(3) 0.6119(4) 0.1976(2)
H16 H 0.4811 0.5736 0.2202
H17 H 0.5232 0.6742 0.2182
C13 C 0.6200(3) 0.5716(4) 0.2166(3)
H18 H 0.6433 0.5704 0.2681
H19 H 0.6609 0.6098 0.1958
H20 H 0.6187 0.5090 0.1981
C14 C 0.0006(3) 0.7320(3) 0.0144(2)
H21 H -0.0612 0.7440 -0.0117
C15 C 0.2156(3) 0.5550(3) -0.0175(2)
C16 C 0.2074(3) 0.5053(4) -0.0857(3)
H22 H 0.2661 0.5105 -0.1002
H23 H 0.1570 0.5324 -0.1220
H24 H 0.1939 0.4404 -0.0796
C17 C 0.0865(3) 0.4465(3) 0.1744(2)
C18 C 0.0219(3) 0.3664(4) 0.1742(3)
H25 H 0.0423 0.3319 0.2183
H26 H 0.0228 0.3261 0.1341
H27 H -0.0414 0.3892 0.1700
C19 C 0.1233(3) 0.7279(3) 0.2384(2)
C20 C 0.0746(4) 0.8039(3) 0.1917(3)
H28 H 0.0600 0.8537 0.2209
H29 H 0.0169 0.7803 0.1609
H30 H 0.1151 0.8271 0.1627
C33 C 0.2242(3) 0.8636(3) 0.0288(2)
C34 C 0.4461(4) 0.4469(4) 0.1104(3)
H41 H 0.4565 0.3930 0.0832
H42 H 0.3792 0.4552 0.1055
H43 H 0.4771 0.4378 0.1603
O3C O 0.23213(17) 0.5674(2) 0.34915(15)
H1C H 0.2218 0.5047 0.3668
O6C O 0.43157(18) 0.4976(2) 0.38020(15)
O7C O 0.34835(19) 0.4585(2) 0.27225(16)
C17C C 0.4135(3) 0.4465(3) 0.3256(2)
C18C C 0.4781(3) 0.3664(4) 0.3258(3)
H25C H 0.4577 0.3319 0.2817
H26C H 0.4772 0.3261 0.3659
H27C H 0.5414 0.3892 0.3300
O8C O 0.35317(18) 0.65691(19) 0.29086(14)
O9C O 0.36167(18) 0.7397(2) 0.19613(15)
C19C C 0.3767(3) 0.7279(3) 0.2616(2)
C20C C 0.4254(4) 0.8039(3) 0.3083(3)
H28C H 0.4400 0.8537 0.2791
H29C H 0.4831 0.7803 0.3391
H30C H 0.3849 0.8271 0.3373
Ni1C Ni 0.36198(3) 0.61254(4) 0.39497(3)
Ni2C Ni 0.16949(3) 0.66494(4) 0.39708(3)
O1B O -0.19990(18) 0.2747(2) -0.08330(15)
O2B O -0.01097(18) 0.3385(2) -0.05093(16)
N1B N -0.3743(2) 0.2223(3) -0.0507(2)
N2B N -0.4759(2) 0.3817(3) -0.1199(2)
C1B C -0.0567(4) -0.0260(4) 0.0950(3)
H2B H 0.0104 -0.0194 0.1144
H3B H -0.0881 -0.0286 0.1338
H4B H -0.0692 -0.0827 0.0673
C2B C -0.0927(3) 0.0552(3) 0.0482(3)
C3B C -0.1869(3) 0.0642(4) 0.0140(3)
H5B H -0.2280 0.0170 0.0211
C4B C -0.1656(3) 0.2081(3) -0.0404(2)
C5B C -0.0686(3) 0.2018(3) -0.0057(2)
C6B C -0.0353(3) 0.1253(3) 0.0370(2)
H6B H 0.0293 0.1217 0.0589
C7B C -0.3263(3) 0.1387(3) -0.0649(3)
H7B H -0.3568 0.0847 -0.0495
H8B H -0.3333 0.1334 -0.1165
C8B C -0.3632(3) 0.2311(4) 0.0270(2)
H9B H -0.3856 0.1751 0.0453
H10B H -0.2974 0.2403 0.0502
H11B H -0.3993 0.2839 0.0367
C9B C -0.4748(3) 0.2170(4) -0.0879(3)
H12B H -0.5061 0.1709 -0.0643
H13B H -0.4808 0.1967 -0.1373
C10B C -0.5206(3) 0.3064(4) -0.0879(3)
H14B H -0.5864 0.3008 -0.1143
H15B H -0.5199 0.3232 -0.0386
C11B C -0.4855(3) 0.4690(4) -0.0830(3)
C12B C -0.5210(3) 0.3881(4) -0.1976(2)
H16B H -0.4811 0.4264 -0.2202
H17B H -0.5232 0.3258 -0.2182
C13B C -0.6200(3) 0.4284(4) -0.2166(3)
H18B H -0.6433 0.4296 -0.2681
H19B H -0.6609 0.3902 -0.1958
H20B H -0.6187 0.4910 -0.1981
C14B C -0.0006(3) 0.2680(3) -0.0144(2)
H21B H 0.0612 0.2560 0.0117
C33B C -0.2242(3) 0.1364(3) -0.0288(2)
C34B C -0.4461(4) 0.5531(4) -0.1104(3)
H41B H -0.4565 0.6070 -0.0832
H42B H -0.3792 0.5448 -0.1055
H43B H -0.4771 0.5622 -0.1603
O4B O -0.14534(19) 0.4448(2) -0.00909(15)
O5B O -0.29277(19) 0.4085(2) -0.01015(15)
C15B C -0.2156(3) 0.4450(3) 0.0175(2)
C16B C -0.2074(3) 0.4947(4) 0.0857(3)
H22B H -0.2661 0.4895 0.1002
H23B H -0.1570 0.4676 0.1220
H24B H -0.1939 0.5596 0.0796
O6B O -0.06843(18) 0.5024(2) -0.11980(15)
Na1A Na 0.5000 0.5000 0.5000
O1C O 0.30010(18) 0.7253(2) 0.41670(15)
O2C O 0.48903(18) 0.6615(2) 0.44907(16)
O4C O 0.35466(19) 0.5552(2) 0.49091(15)
O5C O 0.20723(19) 0.5915(2) 0.48985(15)
N1C N 0.1257(2) 0.7777(3) 0.4493(2)
N2C N 0.0241(2) 0.6183(3) 0.3801(2)
Ni1B Ni -0.13802(3) 0.38746(4) -0.10503(3)
Ni2B Ni -0.33051(3) 0.33506(4) -0.10292(3)
C21 C 0.6576(3) 0.0149(3) 0.2450(3)
C22 C 0.5690(3) -0.0087(4) 0.2072(3)
H31 H 0.5612 -0.0636 0.1801
C23 C 0.4904(4) 0.0446(4) 0.2070(4)
H32 H 0.4308 0.0258 0.1806
C24 C 0.5006(4) 0.1245(4) 0.2457(4)
H33 H 0.4481 0.1620 0.2453
C25 C 0.5864(4) 0.1497(4) 0.2847(4)
H34 H 0.5932 0.2042 0.3122
C26 C 0.6639(3) 0.0958(3) 0.2843(3)
H35 H 0.7230 0.1147 0.3116
C27 C 0.7458(3) -0.1146(3) 0.1801(3)
C28 C 0.6967(3) -0.0926(4) 0.1117(3)
H36 H 0.6598 -0.0385 0.1046
C29 C 0.6995(4) -0.1471(4) 0.0530(3)
H37 H 0.6636 -0.1305 0.0074
C30 C 0.7543(4) -0.2244(4) 0.0614(4)
H38 H 0.7565 -0.2617 0.0219
C31 C 0.8064(4) -0.2474(4) 0.1285(4)
H39 H 0.8461 -0.2995 0.1348
C32 C 0.8005(4) -0.1945(4) 0.1859(3)
H40 H 0.8349 -0.2128 0.2315
B1 B 0.7500 -0.0499(5) 0.2500
C21C C 0.8424(3) 0.0149(3) 0.2550(3)
C22C C 0.9310(3) -0.0087(4) 0.2928(3)
H31C H 0.9388 -0.0636 0.3199
C23C C 1.0096(4) 0.0446(4) 0.2930(4)
H32C H 1.0692 0.0258 0.3194
C24C C 0.9994(4) 0.1245(4) 0.2543(4)
H33C H 1.0519 0.1620 0.2547
C25C C 0.9136(4) 0.1497(4) 0.2153(4)
H34C H 0.9068 0.2042 0.1878
C26C C 0.8361(3) 0.0958(3) 0.2157(3)
H35C H 0.7770 0.1147 0.1884
C27C C 0.7542(3) -0.1146(3) 0.3199(3)
C28C C 0.8033(3) -0.0926(4) 0.3883(3)
H36C H 0.8402 -0.0385 0.3954
C29C C 0.8005(4) -0.1471(4) 0.4470(3)
H37C H 0.8364 -0.1305 0.4926
C30C C 0.7457(4) -0.2244(4) 0.4386(4)
H38C H 0.7435 -0.2617 0.4781
C31C C 0.6936(4) -0.2474(4) 0.3715(4)
H39C H 0.6539 -0.2995 0.3652
C32C C 0.6995(4) -0.1945(4) 0.3141(3)
H40C H 0.6651 -0.2128 0.2685
loop_
_geom_bond_atom_site_label_1
_geom_bond_atom_site_label_2
_geom_bond_site_symmetry_1
_geom_bond_site_symmetry_2
Ni1 O1 1_555 1_555
Ni2 O1 1_555 1_555
Ni3 O3 1_555 1_555
Na1 O2 1_555 1_555
O1 C4 1_555 1_555
O2 Ni1 1_555 1_555
O3 Ni1 1_555 1_555
H1 O3 1_555 1_555
O4 Ni1 1_555 1_555
O5 Ni2 1_555 1_555
O6 Ni1 1_555 1_555
O7 Ni3 1_555 1_555
O8 Ni1 1_555 1_555
O9 C19 1_555 1_555
N1 Ni2 1_555 1_555
N2 Ni2 1_555 1_555
C1 H2 1_555 1_555
H3 C1 1_555 1_555
H4 C1 1_555 1_555
C2 C1 1_555 1_555
C3 C2 1_555 1_555
H5 C3 1_555 1_555
C4 C5 1_555 1_555
C5 C6 1_555 1_555
C6 C2 1_555 1_555
H6 C6 1_555 1_555
C7 N1 1_555 1_555
H7 C7 1_555 1_555
H8 C7 1_555 1_555
C8 N1 1_555 1_555
H9 C8 1_555 1_555
H10 C8 1_555 1_555
H11 C8 1_555 1_555
C9 N1 1_555 1_555
H12 C9 1_555 1_555
H13 C9 1_555 1_555
C10 N2 1_555 1_555
H14 C10 1_555 1_555
H15 C10 1_555 1_555
C11 N2 1_555 1_555
C12 N2 1_555 1_555
H16 C12 1_555 1_555
H17 C12 1_555 1_555
C13 C12 1_555 1_555
H18 C13 1_555 1_555
H19 C13 1_555 1_555
H20 C13 1_555 1_555
C14 O2 1_555 1_555
H21 C14 1_555 1_555
C15 O4 1_555 1_555
C16 C15 1_555 1_555
H22 C16 1_555 1_555
H23 C16 1_555 1_555
H24 C16 1_555 1_555
C17 O6 1_555 1_555
C18 C17 1_555 1_555
H25 C18 1_555 1_555
H26 C18 1_555 1_555
H27 C18 1_555 1_555
C19 O8 1_555 1_555
C20 C19 1_555 1_555
H28 C20 1_555 1_555
H29 C20 1_555 1_555
H30 C20 1_555 1_555
C21 C22 1_555 1_555
C22 H31 1_555 1_555
C23 C22 1_555 1_555
H32 C23 1_555 1_555
C24 C23 1_555 1_555
H33 C24 1_555 1_555
C25 C24 1_555 1_555
H34 C25 1_555 1_555
C26 C21 1_555 1_555
H35 C26 1_555 1_555
C27 C28 1_555 1_555
C28 H36 1_555 1_555
C29 C28 1_555 1_555
H37 C29 1_555 1_555
C30 C29 1_555 1_555
H38 C30 1_555 1_555
C31 C30 1_555 1_555
H39 C31 1_555 1_555
C32 C27 1_555 1_555
H40 C32 1_555 1_555
B1 C21 1_555 1_555
C33 C3 1_555 1_555
C34 C11 1_555 1_555
H41 C34 1_555 1_555
H42 C34 1_555 1_555
H43 C34 1_555 1_555
C21C B1 1_555 1_555
C22C C21C 1_555 1_555
H31C C22C 1_555 1_555
C23C C22C 1_555 1_555
H32C C23C 1_555 1_555
C24C C23C 1_555 1_555
H33C C24C 1_555 1_555
C25C C24C 1_555 1_555
H34C C25C 1_555 1_555
C26C C21C 1_555 1_555
H35C C26C 1_555 1_555
C27C B1 1_555 1_555
C28C C27C 1_555 1_555
H36C C28C 1_555 1_555
C29C C28C 1_555 1_555
H37C C29C 1_555 1_555
C30C C29C 1_555 1_555
H38C C30C 1_555 1_555
C31C C30C 1_555 1_555
H39C C31C 1_555 1_555
C32C C27C 1_555 1_555
H40C C32C 1_555 1_555
O3C Ni3 1_555 1_555
H1C O3C 1_555 1_555
O6C C17C 1_555 1_555
O7C Ni3 1_555 1_555
C17C O7C 1_555 1_555
C18C C17C 1_555 1_555
H25C C18C 1_555 1_555
H26C C18C 1_555 1_555
H27C C18C 1_555 1_555
O8C Ni3 1_555 1_555
O9C Ni2 1_555 1_555
C19C O8C 1_555 1_555
C20C C19C 1_555 1_555
H28C C20C 1_555 1_555
H29C C20C 1_555 1_555
H30C C20C 1_555 1_555
Ni1C O3C 1_555 1_555
Ni2C O9 1_555 1_555
O1B C4B 1_555 1_555
O2B Na1 1_555 1_555
N1B C7B 1_555 1_555
N2B C10B 1_555 1_555
C1B H2B 1_555 1_555
H3B C1B 1_555 1_555
H4B C1B 1_555 1_555
C2B C1B 1_555 1_555
C3B C2B 1_555 1_555
H5B C3B 1_555 1_555
C4B C5B 1_555 1_555
C5B C6B 1_555 1_555
C6B C2B 1_555 1_555
H6B C6B 1_555 1_555
C7B H7B 1_555 1_555
H8B C7B 1_555 1_555
C8B N1B 1_555 1_555
H9B C8B 1_555 1_555
H10B C8B 1_555 1_555
H11B C8B 1_555 1_555
C9B N1B 1_555 1_555
H12B C9B 1_555 1_555
H13B C9B 1_555 1_555
C10B C9B 1_555 1_555
H14B C10B 1_555 1_555
H15B C10B 1_555 1_555
C11B N2B 1_555 1_555
C12B N2B 1_555 1_555
H16B C12B 1_555 1_555
H17B C12B 1_555 1_555
C13B C12B 1_555 1_555
H18B C13B 1_555 1_555
H19B C13B 1_555 1_555
H20B C13B 1_555 1_555
C14B O2B 1_555 1_555
H21B C14B 1_555 1_555
C33B C3B 1_555 1_555
C34B C11B 1_555 1_555
H41B C34B 1_555 1_555
H42B C34B 1_555 1_555
H43B C34B 1_555 1_555
O4B Na1 1_555 1_555
O5B C15B 1_555 1_555
C15B O4B 1_555 1_555
C16B C15B 1_555 1_555
H22B C16B 1_555 1_555
H23B C16B 1_555 1_555
H24B C16B 1_555 1_555
O6B Na1 1_555 1_555
Na1A O6C 1_555 1_555
O1C Ni1C 1_555 1_555
O2C Ni1C 1_555 1_555
O4C Ni1C 1_555 1_555
O5C Ni2C 1_555 1_555
N1C Ni2C 1_555 1_555
N2C Ni2C 1_555 1_555
Ni1B O1B 1_555 1_555
Ni2B O1B 1_555 1_555
Ni2 O3 1_555 1_555
Ni3 O8 1_555 1_555
Na1 O6 1_555 1_555
Na1 O4 1_555 1_555
O5 C15 1_555 1_555
O7 C17 1_555 1_555
C4 C33 1_555 1_555
C5 C14 1_555 1_555
C7 C33 1_555 1_555
C9 C10 1_555 1_555
C25 C26 1_555 1_555
C27 B1 1_555 1_555
C31 C32 1_555 1_555
C25C C26C 1_555 1_555
C31C C32C 1_555 1_555
O3C Ni2C 1_555 1_555
O6C Ni1C 1_555 1_555
O8C Ni1C 1_555 1_555
O9C C19C 1_555 1_555
Ni2C O1C 1_555 1_555
O2B Ni1B 1_555 1_555
N1B Ni2B 1_555 1_555
N2B Ni2B 1_555 1_555
C4B C33B 1_555 1_555
C5B C14B 1_555 1_555
C7B C33B 1_555 1_555
O4B Ni1B 1_555 1_555
O5B Ni2B 1_555 1_555
O6B Ni1B 1_555 1_555
Na1A O2C 1_555 1_555
Na1A O4C 1_555 1_555

#END
