
#######################################################################
#
#                 Cambridge Crystallographic Data Centre
#                                CCDC 
#
#######################################################################
#
# If this CIF has been generated from an entry in the Cambridge 
# Structural Database, then it will include bibliographic, chemical, 
# crystal, experimental, refinement or atomic coordinate data resulting 
# from the CCDC's data processing and validation procedures.
#
#######################################################################

data_PACSUI
_symmetry_cell_setting           monoclinic
_symmetry_space_group_name_H-M   'P 21/c'
_symmetry_Int_Tables_number      14
_space_group_name_Hall           '-P 2ybc'
loop_
_symmetry_equiv_pos_site_id
_symmetry_equiv_pos_as_xyz
1 x,y,z
2 x,1/2-y,1/2+z
3 -x,-y,-z
4 -x,1/2+y,1/2-z
_cell_length_a                   7.909(3)
_cell_length_b                   11.813(4)
_cell_length_c                   20.796(7)
_cell_angle_alpha                90
_cell_angle_beta                 94.375(6)
_cell_angle_gamma                90
_cell_volume                     1937.29
loop_
_atom_site_label
_atom_site_type_symbol
_atom_site_fract_x
_atom_site_fract_y
_atom_site_fract_z
La1 La 0.43772(5) 0.55468(4) 0.10461(2)
N1 N 0.9829(6) 0.3771(4) 0.1331(3)
H1 H 1.0405 0.4389 0.1342
N2 N -0.0663(6) 0.6999(5) 0.1744(3)
H2 H -0.1284 0.6437 0.1608
O1 O 0.7426(5) 0.4817(4) 0.1157(2)
O2 O 1.3297(6) 0.3764(4) 0.1444(2)
O3 O 1.3323(6) 0.1996(4) 0.1817(3)
O4 O 0.1648(6) 0.5916(4) 0.1629(2)
O5 O -0.3985(5) 0.7135(4) 0.1461(2)
O6 O -0.4140(6) 0.8912(4) 0.1827(3)
C1 C 0.8111(8) 0.3844(6) 0.1213(3)
C2 C 0.7226(9) 0.2802(7) 0.1166(4)
H3 H 0.6059 0.2802 0.1067
C3 C 0.8051(9) 0.1810(7) 0.1261(4)
H4 H 0.7439 0.1138 0.1235
C4 C 0.9840(9) 0.1772(7) 0.1401(4)
H5 H 1.0408 0.1088 0.1468
C5 C 1.0687(8) 0.2778(6) 0.1433(4)
C6 C 1.2603(7) 0.2845(6) 0.1577(4)
C7 C 0.1045(8) 0.6844(6) 0.1812(3)
C8 C 0.1996(9) 0.7805(7) 0.2066(4)
H6 H 0.3169 0.7751 0.2131
C9 C 0.1235(8) 0.8776(6) 0.2211(4)
H7 H 0.1881 0.9376 0.2384
C10 C -0.0552(8) 0.8896(6) 0.2103(3)
H8 H -0.1078 0.9579 0.2185
C11 C -0.1466(8) 0.8001(6) 0.1879(3)
C12 C -0.3374(7) 0.8023(5) 0.1710(3)
O7 O 0.2870(15) 0.7287(14) 0.0513(7)
O8 O -0.1939(8) 0.5184(6) -0.0287(4)
O9 O -0.4238(16) 0.6106(14) -0.0077(8)
N3 N 0.0158(11) 0.6821(9) 0.0228(5)
H9 H 0.0507 0.6153 0.0140
C13 C 0.1325(12) 0.7586(10) 0.0428(5)
C14 C 0.0716(13) 0.8720(9) 0.0503(6)
H10 H 0.1474 0.9300 0.0619
C15 C -0.0954(14) 0.8942(10) 0.0407(6)
H11 H -0.1324 0.9682 0.0458
C16 C -0.2175(15) 0.8091(9) 0.0230(6)
H12 H -0.3328 0.8252 0.0171
C17 C -0.1551(14) 0.7016(10) 0.0153(6)
C18 C -0.2665(11) 0.6035(8) -0.0069(5)
O13 O 0.5169(6) 0.5408(5) 0.2270(2)
H17 H 0.5518 0.6001 0.2468
H18 H 0.4659 0.4950 0.2504
O2_2 O 0.3297(6) 0.3764(4) 0.1444(2)
O5_2 O 0.6015(5) 0.7135(4) 0.1461(2)
O8B O 0.1939(8) 0.4816(6) 0.0287(4)
O9_2 O 0.5762(16) 0.6106(14) -0.0077(8)
O9B O 0.4238(16) 0.3894(14) 0.0077(8)
La1_2 La 1.43772(5) 0.55468(4) 0.10461(2)
La1_3 La -0.56228(5) 0.55468(4) 0.10461(2)
La1B La -0.43772(5) 0.44532(4) -0.10461(2)
O14 O 0.405(2) 0.0135(11) 0.0868(6)
O10? O -0.426(3) 0.607(2) 0.0043(14)
O11? O 0.274(3) 0.729(3) 0.0641(13)
O12? O 0.1575(14) 0.5673(10) 0.0292(7)
N4? N -0.1547(19) 0.6537(17) 0.0097(10)
H13? H -0.1314 0.5838 0.0028
C19? C -0.316(2) 0.6850(15) 0.0038(9)
C20? C -0.355(2) 0.8018(16) 0.0061(10)
H14? H -0.4657 0.8283 -0.0013
C21? C -0.215(3) 0.878(2) 0.0207(11)
H15? H -0.2373 0.9546 0.0242
C22? C -0.048(2) 0.8416(15) 0.0297(10)
H16? H 0.0416 0.8922 0.0378
C23? C -0.021(2) 0.7263(19) 0.0261(12)
C24? C 0.1522(16) 0.6729(11) 0.0382(9)
loop_
_geom_bond_atom_site_label_1
_geom_bond_atom_site_label_2
_geom_bond_site_symmetry_1
_geom_bond_site_symmetry_2
La1 O1 1_555 1_555
N1 H1 1_555 1_555
N2 H2 1_555 1_555
O1 C1 1_555 1_555
O2 C6 1_555 1_555
O3 C6 1_555 1_555
O4 La1 1_555 1_555
O5 C12 1_555 1_555
O6 C12 1_555 1_555
C1 N1 1_555 1_555
C2 C1 1_555 1_555
H3 C2 1_555 1_555
C3 C2 1_555 1_555
H4 C3 1_555 1_555
C4 C3 1_555 1_555
H5 C4 1_555 1_555
C5 N1 1_555 1_555
C6 C5 1_555 1_555
C7 N2 1_555 1_555
C8 C7 1_555 1_555
H6 C8 1_555 1_555
C9 C8 1_555 1_555
H7 C9 1_555 1_555
C10 C9 1_555 1_555
H8 C10 1_555 1_555
C11 N2 1_555 1_555
C12 C11 1_555 1_555
O7 La1 1_555 1_555
O8 C18 1_555 1_555
O9 C18 1_555 1_555
N3 H9 1_555 1_555
C13 O7 1_555 1_555
C14 C13 1_555 1_555
H10 C14 1_555 1_555
C15 C14 1_555 1_555
H11 C15 1_555 1_555
C16 C15 1_555 1_555
H12 C16 1_555 1_555
C17 N3 1_555 1_555
C18 C17 1_555 1_555
O13 La1 1_555 1_555
H17 O13 1_555 1_555
H18 O13 1_555 1_555
O2_2 La1 1_555 1_555
O5_2 La1 1_555 1_555
O8B La1 1_555 1_555
O9_2 La1 1_555 1_555
O9B La1 1_555 1_555
La1_2 O2 1_555 1_555
La1_3 O5 1_555 1_555
La1B O8 1_555 1_555
O4 C7 1_555 1_555
C4 C5 1_555 1_555
C10 C11 1_555 1_555
O9 La1_3 1_555 1_555
O9 La1B 1_555 1_555
N3 C13 1_555 1_555
C16 C17 1_555 1_555

#END
