
#######################################################################
#
#                 Cambridge Crystallographic Data Centre
#                                CCDC 
#
#######################################################################
#
# If this CIF has been generated from an entry in the Cambridge 
# Structural Database, then it will include bibliographic, chemical, 
# crystal, experimental, refinement or atomic coordinate data resulting 
# from the CCDC's data processing and validation procedures.
#
#######################################################################

data_PACTAP
_symmetry_cell_setting           triclinic
_symmetry_space_group_name_H-M   'P -1'
_symmetry_Int_Tables_number      2
_space_group_name_Hall           '-P 1'
loop_
_symmetry_equiv_pos_site_id
_symmetry_equiv_pos_as_xyz
1 x,y,z
2 -x,-y,-z
_cell_length_a                   9.959(6)
_cell_length_b                   11.999(7)
_cell_length_c                   12.434(7)
_cell_angle_alpha                69.841(8)
_cell_angle_beta                 85.862(9)
_cell_angle_gamma                68.310(9)
_cell_volume                     1293.46
loop_
_atom_site_label
_atom_site_type_symbol
_atom_site_fract_x
_atom_site_fract_y
_atom_site_fract_z
Eu1 Eu 0.73704(3) 0.52615(2) -0.01602(2)
N1 N 0.7132(5) 0.5120(4) 0.4456(4)
H1 H 0.7978 0.4525 0.4612
N2 N 0.6298(4) 0.0965(4) -0.0422(3)
H2 H 0.5479 0.1032 -0.0121
N3 N 1.0152(5) 0.3394(4) -0.3032(4)
H3 H 0.9309 0.3990 -0.3153
O1 O 0.6522(4) 0.4847(4) 0.1777(3)
O2 O 0.8415(5) 0.3829(5) 0.3061(4)
O3 O 0.7361(4) 0.5425(4) 0.6131(3)
O4 O 0.6499(4) 0.3650(3) 0.0066(3)
O5 O 0.4712(4) 0.2939(3) 0.0198(3)
O6 O 0.6250(4) -0.0703(3) -0.0868(3)
O7 O 0.9051(4) 0.4552(3) -0.1467(3)
O8 O 1.1272(4) 0.4033(4) -0.0742(3)
O9 O 0.9684(6) 0.2935(5) -0.4561(4)
C1 C 0.7190(7) 0.4610(6) 0.2708(5)
C2 C 0.6398(6) 0.5383(5) 0.3462(4)
C3 C 0.5064(7) 0.6293(6) 0.3194(5)
H4 H 0.4550 0.6475 0.2520
C4 C 0.4460(7) 0.6966(6) 0.3948(5)
H5 H 0.3535 0.7592 0.3776
C5 C 0.5203(7) 0.6714(6) 0.4913(5)
H6 H 0.4794 0.7182 0.5394
C6 C 0.6608(7) 0.5742(6) 0.5217(5)
C7 C 0.5974(6) 0.2874(4) -0.0001(4)
C8 C 0.6901(5) 0.1814(4) -0.0408(4)
C9 C 0.8217(6) 0.1718(5) -0.0834(5)
H7 H 0.8652 0.2278 -0.0817
C10 C 0.8909(7) 0.0745(6) -0.1303(6)
H8 H 0.9817 0.0658 -0.1591
C11 C 0.8273(7) -0.0064(5) -0.1342(6)
H9 H 0.8739 -0.0680 -0.1677
C12 C 0.6904(6) 0.0011(5) -0.0879(4)
C13 C 1.0404(6) 0.4010(5) -0.1399(4)
C14 C 1.1023(6) 0.3201(5) -0.2143(4)
C15 C 1.2366(6) 0.2284(5) -0.1920(5)
H10 H 1.2973 0.2161 -0.1321
C16 C 1.2821(7) 0.1523(6) -0.2615(5)
H11 H 1.3736 0.0882 -0.2468
C17 C 1.1950(8) 0.1708(6) -0.3494(5)
H12 H 1.2270 0.1189 -0.3942
C18 C 1.0533(8) 0.2698(6) -0.3745(5)
O10 O 0.9256(4) 0.3294(3) 0.1060(3)
H13 H 1.0111 0.3279 0.0953
H14 H 0.9018 0.3206 0.1745
O11 O 0.7723(4) 0.7196(3) -0.1475(3)
H15 H 0.7843 0.7256 -0.2173
H16 H 0.7256 0.7901 -0.1380
O12 O 0.5980(4) 0.5818(4) -0.1961(3)
H17 H 0.6472 0.5624 -0.2503
H18 H 0.5236 0.5613 -0.1865
O5A O 0.5288(4) 0.7061(3) -0.0198(3)
O8A O 0.8728(4) 0.5967(4) 0.0742(3)
Eu1A Eu 0.26296(3) 0.47385(2) 0.01602(2)
Eu1A_2 Eu 1.26296(3) 0.47385(2) 0.01602(2)
O13 O 0.8217(7) 0.7412(6) 0.6335(4)
O14 O 0.4232(16) 0.8627(10) 0.6867(11)
O15 O 0.879(2) 0.1059(15) 0.496(2)
O16 O 0.841(2) 0.1256(15) 0.2611(16)
O17 O 0.631(4) 0.999(2) 0.562(2)
loop_
_geom_bond_atom_site_label_1
_geom_bond_atom_site_label_2
_geom_bond_site_symmetry_1
_geom_bond_site_symmetry_2
Eu1 O1 1_555 1_555
N1 H1 1_555 1_555
N2 H2 1_555 1_555
N3 H3 1_555 1_555
O1 C1 1_555 1_555
O2 C1 1_555 1_555
O3 C6 1_555 1_555
O4 Eu1 1_555 1_555
O5 C7 1_555 1_555
O6 C12 1_555 1_555
O7 Eu1 1_555 1_555
O8 C13 1_555 1_555
O9 C18 1_555 1_555
C1 C2 1_555 1_555
C2 N1 1_555 1_555
C3 C2 1_555 1_555
H4 C3 1_555 1_555
C4 C3 1_555 1_555
H5 C4 1_555 1_555
C5 C4 1_555 1_555
H6 C5 1_555 1_555
C6 N1 1_555 1_555
C7 O4 1_555 1_555
C8 N2 1_555 1_555
C9 C8 1_555 1_555
H7 C9 1_555 1_555
C10 C9 1_555 1_555
H8 C10 1_555 1_555
C11 C10 1_555 1_555
H9 C11 1_555 1_555
C12 N2 1_555 1_555
C13 O7 1_555 1_555
C14 N3 1_555 1_555
C15 C14 1_555 1_555
H10 C15 1_555 1_555
C16 C15 1_555 1_555
H11 C16 1_555 1_555
C17 C16 1_555 1_555
H12 C17 1_555 1_555
C18 N3 1_555 1_555
O10 Eu1 1_555 1_555
H13 O10 1_555 1_555
H14 O10 1_555 1_555
O11 Eu1 1_555 1_555
H15 O11 1_555 1_555
H16 O11 1_555 1_555
O12 Eu1 1_555 1_555
H17 O12 1_555 1_555
H18 O12 1_555 1_555
O5A Eu1 1_555 1_555
O8A Eu1 1_555 1_555
Eu1A O5 1_555 1_555
Eu1A_2 O8 1_555 1_555
C5 C6 1_555 1_555
C7 C8 1_555 1_555
C11 C12 1_555 1_555
C13 C14 1_555 1_555
C17 C18 1_555 1_555

#END
