
#######################################################################
#
#                 Cambridge Crystallographic Data Centre
#                                CCDC 
#
#######################################################################
#
# If this CIF has been generated from an entry in the Cambridge 
# Structural Database, then it will include bibliographic, chemical, 
# crystal, experimental, refinement or atomic coordinate data resulting 
# from the CCDC's data processing and validation procedures.
#
#######################################################################

data_PACVOF
_symmetry_cell_setting           monoclinic
_symmetry_space_group_name_H-M   'C c'
_symmetry_Int_Tables_number      9
_space_group_name_Hall           'C -2yc'
loop_
_symmetry_equiv_pos_site_id
_symmetry_equiv_pos_as_xyz
1 x,y,z
2 x,-y,1/2+z
3 1/2+x,1/2+y,z
4 1/2+x,1/2-y,1/2+z
_cell_length_a                   19.2652(15)
_cell_length_b                   12.9285(10)
_cell_length_c                   14.4703(11)
_cell_angle_alpha                90
_cell_angle_beta                 115.3510(10)
_cell_angle_gamma                90
_cell_volume                     3257.05
loop_
_atom_site_label
_atom_site_type_symbol
_atom_site_fract_x
_atom_site_fract_y
_atom_site_fract_z
Zn1 Zn 0.448793(17) 0.81955(3) 0.18102(2)
Zn2 Zn 0.313770(18) 0.68018(3) 0.09945(2)
O1 O 0.27056(15) 0.7909(2) -0.01455(19)
O2 O 0.38445(14) 0.87160(19) 0.03729(18)
O3 O 0.29467(16) 1.2160(2) -0.3098(2)
O4 O 0.38472(15) 1.09205(19) -0.26436(19)
O5 O 0.37298(14) 0.61635(19) 0.02711(18)
O6 O 0.48458(15) 0.69764(19) 0.12078(19)
O7 O 0.38519(14) 0.39755(18) -0.26708(18)
O8 O 0.47299(14) 0.27199(18) -0.19519(18)
N1 N 0.54387(17) 0.9093(2) 0.2247(2)
N2 N 0.22271(17) 0.5833(2) 0.0646(2)
C1 C 0.5378(2) 1.0133(3) 0.2182(3)
H1 H 0.4882 1.0435 0.1863
C2 C 0.6014(2) 1.0775(3) 0.2564(3)
H2 H 0.5947 1.1504 0.2497
C3 C 0.6747(2) 1.0365(3) 0.3042(3)
C4 C 0.6808(2) 0.9294(3) 0.3092(3)
H3 H 0.7300 0.8977 0.3400
C5 C 0.6151(2) 0.8688(3) 0.2692(3)
H4 H 0.6205 0.7957 0.2733
C6 C 0.1495(2) 0.6162(3) 0.0167(3)
H5 H 0.1399 0.6881 0.0042
C7 C 0.0876(2) 0.5490(3) -0.0151(3)
H6 H 0.0368 0.5751 -0.0491
C8 C 0.0997(2) 0.4436(3) 0.0026(3)
C9 C 0.2350(2) 0.4819(3) 0.0833(3)
H7 H 0.2864 0.4580 0.1179
C10 C 0.3252(2) 1.1322(3) -0.2659(3)
C11 C 0.4443(2) 0.6299(3) 0.0579(3)
C12 C 0.4432(2) 0.3598(3) -0.1955(3)
C13 C 0.48404(19) 0.4237(2) -0.1005(2)
C14 C 0.3133(2) 0.8615(3) -0.0198(3)
C15 C 0.2776(2) 0.9457(3) -0.0978(3)
C16 C 0.1758(2) 0.4106(3) 0.0542(3)
H8 H 0.1869 0.3394 0.0693
C17 C 0.0344(3) 0.3673(4) -0.0339(3)
H9 H -0.0022 0.3862 -0.0061
H10 H 0.0544 0.2977 -0.0105
H11 H 0.0084 0.3683 -0.1088
C18 C 0.7446(2) 1.1044(3) 0.3498(3)
H12 H 0.7845 1.0694 0.4087
H13 H 0.7311 1.1699 0.3720
H14 H 0.7639 1.1181 0.2983
C19 C 0.4858(2) 0.5556(2) 0.0185(3)
C20 C 0.4459(2) 0.4978(3) -0.0699(3)
H15 H 0.3925 0.5091 -0.1093
C21 C 0.56501(19) 0.5427(3) 0.0732(2)
H16 H 0.5930 0.5853 0.1308
C22 C 0.60311(19) 0.4676(3) 0.0435(3)
H17 H 0.6569 0.4578 0.0815
C23 C 0.56220(18) 0.4069(2) -0.0419(2)
H18 H 0.5877 0.3536 -0.0604
C24 C 0.28408(19) 1.0786(3) -0.2107(2)
C25 C 0.3178(2) 0.9951(3) -0.1457(3)
H19 H 0.3677 0.9721 -0.1342
C26 C 0.21213(19) 1.1147(3) -0.2243(3)
H20 H 0.1905 1.1737 -0.2658
C27 C 0.1722(2) 1.0647(3) -0.1774(3)
H21 H 0.1229 1.0888 -0.1873
C28 C 0.20452(19) 0.9791(3) -0.1160(3)
H22 H 0.1762 0.9431 -0.0861
O4A O 0.38472(15) 0.90795(19) 0.23564(19)
O8A O 0.47299(14) 0.72801(18) 0.30481(18)
O3A O 0.29467(16) 0.7840(2) 0.1902(2)
O7A O 0.38519(14) 0.60245(18) 0.23292(18)
Zn2A Zn 0.313770(18) 1.31982(3) -0.40055(2)
Zn1A Zn 0.448793(17) 1.18045(3) -0.31898(2)
Zn2A_2 Zn 0.313770(18) 0.31982(3) -0.40055(2)
Zn1A_2 Zn 0.448793(17) 0.18045(3) -0.31898(2)
Cl1 Cl 0.35204(6) 0.72252(7) 0.80589(7)
Cl2 Cl 0.25753(5) 0.86449(7) 0.61484(7)
C29 C 0.3792(2) 0.7349(3) 0.7066(3)
C30 C 0.3383(2) 0.7985(3) 0.6235(3)
C31 C 0.4420(2) 0.6791(3) 0.7103(3)
H23 H 0.4696 0.6346 0.7664
C32 C 0.3612(2) 0.8081(3) 0.5447(3)
H24 H 0.3334 0.8520 0.4882
C33 C 0.4239(3) 0.7542(3) 0.5485(3)
H25 H 0.4398 0.7615 0.4951
C34 C 0.4641(2) 0.6893(3) 0.6307(3)
H26 H 0.5070 0.6515 0.6327
loop_
_geom_bond_atom_site_label_1
_geom_bond_atom_site_label_2
_geom_bond_site_symmetry_1
_geom_bond_site_symmetry_2
Zn1 O2 1_555 1_555
Zn2 O1 1_555 1_555
O1 C14 1_555 1_555
O2 C14 1_555 1_555
O3 C10 1_555 1_555
O4 C10 1_555 1_555
O5 Zn2 1_555 1_555
O6 Zn1 1_555 1_555
O7 C12 1_555 1_555
O8 C12 1_555 1_555
N1 Zn1 1_555 1_555
N2 Zn2 1_555 1_555
C1 N1 1_555 1_555
H1 C1 1_555 1_555
C2 C1 1_555 1_555
H2 C2 1_555 1_555
C3 C2 1_555 1_555
C4 C3 1_555 1_555
H3 C4 1_555 1_555
C5 N1 1_555 1_555
H4 C5 1_555 1_555
C6 N2 1_555 1_555
H5 C6 1_555 1_555
C7 C6 1_555 1_555
H6 C7 1_555 1_555
C8 C7 1_555 1_555
C9 N2 1_555 1_555
H7 C9 1_555 1_555
C10 C24 1_555 1_555
C11 O5 1_555 1_555
C12 C13 1_555 1_555
C13 C20 1_555 1_555
C14 C15 1_555 1_555
C15 C25 1_555 1_555
C16 C8 1_555 1_555
H8 C16 1_555 1_555
C17 C8 1_555 1_555
H9 C17 1_555 1_555
H10 C17 1_555 1_555
H11 C17 1_555 1_555
C18 C3 1_555 1_555
H12 C18 1_555 1_555
H13 C18 1_555 1_555
H14 C18 1_555 1_555
C19 C11 1_555 1_555
C20 C19 1_555 1_555
H15 C20 1_555 1_555
C21 C19 1_555 1_555
H16 C21 1_555 1_555
C22 C21 1_555 1_555
H17 C22 1_555 1_555
C23 C13 1_555 1_555
H18 C23 1_555 1_555
C24 C25 1_555 1_555
C25 H19 1_555 1_555
C26 C24 1_555 1_555
H20 C26 1_555 1_555
C27 C26 1_555 1_555
H21 C27 1_555 1_555
C28 C15 1_555 1_555
H22 C28 1_555 1_555
Cl1 C29 1_555 1_555
Cl2 C30 1_555 1_555
C29 C30 1_555 1_555
C30 C32 1_555 1_555
C31 C29 1_555 1_555
H23 C31 1_555 1_555
C32 H24 1_555 1_555
C33 C32 1_555 1_555
H25 C33 1_555 1_555
C34 C31 1_555 1_555
H26 C34 1_555 1_555
O4A Zn1 1_555 1_555
O8A Zn1 1_555 1_555
O3A Zn2 1_555 1_555
O7A Zn2 1_555 1_555
Zn2A O3 1_555 1_555
Zn1A O4 1_555 1_555
Zn2A_2 O7 1_555 1_555
Zn1A_2 O8 1_555 1_555
O6 C11 1_555 1_555
C4 C5 1_555 1_555
C9 C16 1_555 1_555
C22 C23 1_555 1_555
C27 C28 1_555 1_555
C33 C34 1_555 1_555

#END
