
#######################################################################
#
#                 Cambridge Crystallographic Data Centre
#                                CCDC 
#
#######################################################################
#
# If this CIF has been generated from an entry in the Cambridge 
# Structural Database, then it will include bibliographic, chemical, 
# crystal, experimental, refinement or atomic coordinate data resulting 
# from the CCDC's data processing and validation procedures.
#
#######################################################################

data_PACWIA
_symmetry_cell_setting           monoclinic
_symmetry_space_group_name_H-M   'C 2/c'
_symmetry_Int_Tables_number      15
_space_group_name_Hall           '-C 2yn'
loop_
_symmetry_equiv_pos_site_id
_symmetry_equiv_pos_as_xyz
1 x,y,z
2 1/2+x,1/2+y,z
3 x,-y,1/2+z
4 1/2+x,1/2-y,1/2+z
5 -x,-y,-z
6 1/2-x,1/2-y,-z
7 -x,y,1/2-z
8 1/2-x,1/2+y,1/2-z
_cell_length_a                   19.291(7)
_cell_length_b                   13.439(5)
_cell_length_c                   13.864(5)
_cell_angle_alpha                90
_cell_angle_beta                 114.797(6)
_cell_angle_gamma                90
_cell_volume                     3262.87
loop_
_atom_site_label
_atom_site_type_symbol
_atom_site_fract_x
_atom_site_fract_y
_atom_site_fract_z
Zn1 Zn 0.31922(7) 0.68615(7) 0.04123(8)
O1 O 0.3522(4) 0.7811(5) 0.1659(5)
O2 O 0.2474(5) 0.8741(5) 0.1024(5)
O3 O 0.3475(5) 1.2014(5) 0.4667(6)
O4 O 0.2409(4) 1.1099(5) 0.3931(5)
O5 O 0.6100(6) 0.4347(10) 0.1955(8)
N1 N 0.4112(5) 0.5984(5) 0.0798(5)
C1 C 0.4817(7) 0.6352(9) 0.1234(8)
H1 H 0.4860 0.7056 0.1289
C2 C 0.5471(8) 0.5837(13) 0.1605(10)
H2 H 0.5959 0.6148 0.1902
C3 C 0.5382(7) 0.4838(14) 0.1521(8)
C4 C 0.4677(8) 0.4376(8) 0.1065(8)
H3 H 0.4629 0.3673 0.1006
C5 C 0.4035(6) 0.5006(7) 0.0694(7)
H4 H 0.3539 0.4726 0.0364
C6 C 0.4650(12) 1.013(2) 0.361(3)
H5 H 0.5188 1.0200 0.3857
C7 C 0.3129(6) 0.8552(7) 0.1664(8)
C8 C 0.3492(6) 0.9296(8) 0.2522(10)
C9 C 0.3083(7) 1.1294(7) 0.4120(8)
C10 C 0.3478(8) 1.0643(9) 0.3657(11)
C11 C 0.3123(6) 0.9942(6) 0.2894(7)
H6 H 0.2581 0.9906 0.2605
C12 C 0.4251(11) 0.9401(17) 0.288(2)
H7 H 0.4523 0.8959 0.2630
C13 C 0.4218(11) 1.0779(18) 0.395(2)
H8 H 0.4467 1.1320 0.4407
C14 C 0.6014(12) 0.3383(12) 0.1908(12)
H9 H 0.5829 0.3169 0.2434
H10 H 0.6506 0.3063 0.2061
H11 H 0.5644 0.3192 0.1196
O1E O 0.1478(4) 0.7189(5) -0.1659(5)
O2E O 0.2526(5) 0.6259(5) -0.1024(5)
O3E O 0.1525(5) 0.2986(5) -0.4667(6)
O4E O 0.2591(4) 0.3901(5) -0.3931(5)
C6E C 0.0350(12) 0.487(2) -0.361(3)
H5E H -0.0188 0.4800 -0.3857
C7E C 0.1871(6) 0.6448(7) -0.1664(8)
C8E C 0.1508(6) 0.5704(8) -0.2522(10)
C9E C 0.1917(7) 0.3706(7) -0.4120(8)
C10E C 0.1522(8) 0.4357(9) -0.3657(11)
C11E C 0.1877(6) 0.5058(6) -0.2894(7)
H6E H 0.2419 0.5094 -0.2605
C12E C 0.0749(11) 0.5599(17) -0.288(2)
H7E H 0.0477 0.6041 -0.2630
C13E C 0.0782(11) 0.4221(18) -0.395(2)
H8E H 0.0533 0.3680 -0.4407
Zn1E Zn 0.18078(7) 0.81385(7) -0.04123(8)
O5E O -0.1100(6) 1.0653(10) -0.1955(8)
N1E N 0.0888(5) 0.9016(5) -0.0798(5)
C1E C 0.0183(7) 0.8648(9) -0.1234(8)
H1E H 0.0140 0.7944 -0.1289
C2E C -0.0471(8) 0.9163(13) -0.1605(10)
H2E H -0.0959 0.8852 -0.1902
C3E C -0.0382(7) 1.0162(14) -0.1521(8)
C4E C 0.0323(8) 1.0624(8) -0.1065(8)
H3E H 0.0371 1.1327 -0.1006
C5E C 0.0965(6) 0.9994(7) -0.0694(7)
H4E H 0.1461 1.0274 -0.0364
C14E C -0.1014(12) 1.1617(12) -0.1908(12)
H9E H -0.0829 1.1831 -0.2434
H10E H -0.1506 1.1937 -0.2061
H11E H -0.0644 1.1808 -0.1196
O3B O 0.3475(5) 0.7986(5) -0.0333(6)
O4G O 0.2591(4) 0.6099(5) 0.1069(5)
Zn1B Zn 0.31922(7) 1.31385(7) 0.54123(8)
Zn1G Zn 0.18078(7) 1.18615(7) 0.45877(8)
Zn1G_2 Zn 0.18078(7) 0.18615(7) -0.54123(8)
Zn1B_2 Zn 0.31922(7) 0.31385(7) -0.45877(8)
O3G O 0.1525(5) 0.7014(5) 0.0333(6)
O4B O 0.2409(4) 0.8901(5) -0.1069(5)
C15 C 0.2795(13) 0.8383(15) 0.5507(16)
H12 H 0.3009 0.8991 0.5853
C16 C 0.3040(13) 0.7998(15) 0.4781(16)
H13 H 0.3411 0.8351 0.4632
C17 C 0.2252(16) 0.7920(19) 0.5747(15)
H14 H 0.2081 0.8197 0.6240
C17E C 0.2748(16) 0.7080(19) 0.4253(15)
C15E C 0.2205(13) 0.6617(15) 0.4493(16)
H12E H 0.1991 0.6009 0.4147
C16E C 0.1960(13) 0.7002(15) 0.5219(16)
H13E H 0.1589 0.6649 0.5368
H14E H 0.2919 0.6803 0.3760
loop_
_geom_bond_atom_site_label_1
_geom_bond_atom_site_label_2
_geom_bond_site_symmetry_1
_geom_bond_site_symmetry_2
Zn1 O1 1_555 1_555
O1 C7 1_555 1_555
O2 C7 1_555 1_555
O3 C9 1_555 1_555
O4 C9 1_555 1_555
O5 C3 1_555 1_555
N1 Zn1 1_555 1_555
C1 N1 1_555 1_555
H1 C1 1_555 1_555
C2 C1 1_555 1_555
H2 C2 1_555 1_555
C3 C2 1_555 1_555
C4 C3 1_555 1_555
H3 C4 1_555 1_555
C5 N1 1_555 1_555
H4 C5 1_555 1_555
C6 H5 1_555 1_555
C7 C8 1_555 1_555
C8 C11 1_555 1_555
C9 C10 1_555 1_555
C10 C11 1_555 1_555
C11 H6 1_555 1_555
C12 C6 1_555 1_555
H7 C12 1_555 1_555
C13 C6 1_555 1_555
H8 C13 1_555 1_555
C14 O5 1_555 1_555
H9 C14 1_555 1_555
H10 C14 1_555 1_555
H11 C14 1_555 1_555
C15 H12 1_555 1_555
C16 C15 1_555 1_555
H13 C16 1_555 1_555
C17 C15 1_555 1_555
H14 C17 1_555 1_555
C17E C16 1_555 1_555
C15E C17E 1_555 1_555
H12E C15E 1_555 1_555
C16E C17 1_555 1_555
H13E C16E 1_555 1_555
H14E C17E 1_555 1_555
O1E C7E 1_555 1_555
O2E Zn1 1_555 1_555
O3E C9E 1_555 1_555
O4E C9E 1_555 1_555
C6E H5E 1_555 1_555
C7E O2E 1_555 1_555
C8E C7E 1_555 1_555
C9E C10E 1_555 1_555
C10E C11E 1_555 1_555
C11E C8E 1_555 1_555
H6E C11E 1_555 1_555
C12E C6E 1_555 1_555
H7E C12E 1_555 1_555
C13E C6E 1_555 1_555
H8E C13E 1_555 1_555
Zn1E O2 1_555 1_555
O5E C3E 1_555 1_555
N1E Zn1E 1_555 1_555
C1E N1E 1_555 1_555
H1E C1E 1_555 1_555
C2E C1E 1_555 1_555
H2E C2E 1_555 1_555
C3E C2E 1_555 1_555
C4E C3E 1_555 1_555
H3E C4E 1_555 1_555
C5E N1E 1_555 1_555
H4E C5E 1_555 1_555
C14E O5E 1_555 1_555
H9E C14E 1_555 1_555
H10E C14E 1_555 1_555
H11E C14E 1_555 1_555
O3B Zn1 1_555 1_555
O4G Zn1 1_555 1_555
Zn1B O3 1_555 1_555
Zn1G O4 1_555 1_555
Zn1G_2 O3E 1_555 1_555
Zn1B_2 O4E 1_555 1_555
O3G Zn1E 1_555 1_555
O4B Zn1E 1_555 1_555
C4 C5 1_555 1_555
C8 C12 1_555 1_555
C10 C13 1_555 1_555
C15E C16E 1_555 1_555
O1E Zn1E 1_555 1_555
C8E C12E 1_555 1_555
C10E C13E 1_555 1_555
C4E C5E 1_555 1_555

#END
