
#######################################################################
#
#                 Cambridge Crystallographic Data Centre
#                                CCDC 
#
#######################################################################
#
# If this CIF has been generated from an entry in the Cambridge 
# Structural Database, then it will include bibliographic, chemical, 
# crystal, experimental, refinement or atomic coordinate data resulting 
# from the CCDC's data processing and validation procedures.
#
#######################################################################

data_PACWEW
_symmetry_cell_setting           tetragonal
_symmetry_space_group_name_H-M   'P 4/n c c'
_symmetry_Int_Tables_number      130
_space_group_name_Hall           '-P 4a 2ac'
loop_
_symmetry_equiv_pos_site_id
_symmetry_equiv_pos_as_xyz
1 x,y,z
2 1/2-y,x,z
3 y,1/2-x,z
4 1/2+y,1/2+x,1/2-z
5 1/2+x,1/2+y,-z
6 x,1/2-y,1/2+z
7 1/2-x,y,1/2+z
8 y,x,1/2+z
9 -x,-y,-z
10 1/2+y,-x,-z
11 -y,1/2+x,-z
12 1/2-y,1/2-x,1/2+z
13 1/2-x,1/2-y,z
14 -x,1/2+y,1/2-z
15 1/2+x,-y,1/2-z
16 -y,-x,1/2-z
_cell_length_a                   19.0707(7)
_cell_length_b                   19.0707(7)
_cell_length_c                   16.2329(11)
_cell_angle_alpha                90
_cell_angle_beta                 90
_cell_angle_gamma                90
_cell_volume                     5903.77
loop_
_atom_site_label
_atom_site_type_symbol
_atom_site_fract_x
_atom_site_fract_y
_atom_site_fract_z
Zn1 Zn 0.02284(2) 0.44963(2) 0.68288(3)
O1 O 0.02775(15) 0.54767(14) 0.63835(19)
O2 O -0.02343(14) 0.60695(15) 0.74141(18)
O3 O 0.05695(13) 0.92042(15) 0.64058(19)
O4 O -0.00298(16) 0.86730(14) 0.74106(18)
N1 N 0.06883(16) 0.39401(16) 0.5910(2)
C1 C 0.00982(19) 0.60353(19) 0.6746(2)
C2 C 0.03005(19) 0.67115(19) 0.6325(3)
C3 C 0.02107(19) 0.73513(18) 0.6722(2)
H1 H 0.0014 0.7366 0.7259
C4 C 0.0571(2) 0.6693(2) 0.5529(3)
H2 H 0.0627 0.6256 0.5258
C5 C 0.04114(19) 0.79754(19) 0.6328(3)
C6 C 0.0759(2) 0.7306(2) 0.5129(3)
H3 H 0.0936 0.7291 0.4583
C7 C 0.03106(19) 0.86714(19) 0.6748(2)
C8 C 0.0685(2) 0.7945(2) 0.5535(3)
H4 H 0.0823 0.8366 0.5267
C9 C 0.08831(19) 0.4218(2) 0.5179(2)
H5 H 0.0817 0.4705 0.5087
C10 C 0.0786(2) 0.3250(2) 0.6029(3)
H6 H 0.0642 0.3048 0.6537
C11 C 0.1087(2) 0.2821(2) 0.5440(3)
H7 H 0.1161 0.2337 0.5550
C12 C 0.1278(2) 0.3104(2) 0.4690(3)
H8 H 0.1475 0.2817 0.4271
C13 C 0.1177(2) 0.3813(2) 0.4560(2)
H9 H 0.1307 0.4020 0.4051
O1C O 0.04767(14) 0.52775(15) 0.86165(19)
O2C O 0.10695(15) 0.47657(14) 0.75859(18)
O3C O 0.42042(15) 0.55695(13) 0.85942(19)
O4C O 0.36730(14) 0.49702(16) 0.75894(18)
C1C C 0.10353(19) 0.50982(19) 0.8254(2)
C2C C 0.17115(19) 0.53005(19) 0.8675(3)
C3C C 0.23513(18) 0.52107(19) 0.8278(2)
H1C H 0.2366 0.5014 0.7741
C4C C 0.1693(2) 0.5571(2) 0.9471(3)
H2C H 0.1256 0.5627 0.9742
C5C C 0.29754(19) 0.54114(19) 0.8672(3)
C6C C 0.2306(2) 0.5759(2) 0.9871(3)
H3C H 0.2291 0.5936 1.0417
C7C C 0.36714(19) 0.53106(19) 0.8252(2)
C8C C 0.2945(2) 0.5685(2) 0.9465(3)
H4C H 0.3366 0.5823 0.9733
O3B O -0.07958(15) 0.44305(13) 0.64058(19)
O4B O -0.13270(14) 0.50298(16) 0.74106(18)
O3M O -0.05695(13) 0.42042(15) 0.85942(19)
O4M O 0.00298(16) 0.36730(14) 0.75894(18)
Zn1C Zn -0.05037(2) 0.52284(2) 0.81712(3)
N1C N -0.10599(16) 0.56883(16) 0.9090(2)
C9C C -0.0782(2) 0.58831(19) 0.9821(2)
H5C H -0.0295 0.5817 0.9913
C10C C -0.1750(2) 0.5786(2) 0.8971(3)
H6C H -0.1952 0.5642 0.8463
C11C C -0.2179(2) 0.6087(2) 0.9560(3)
H7C H -0.2663 0.6161 0.9450
C12C C -0.1896(2) 0.6278(2) 1.0310(3)
H8C H -0.2183 0.6475 1.0729
C13C C -0.1187(2) 0.6177(2) 1.0440(2)
H9C H -0.0980 0.6307 1.0949
Zn1A Zn 0.05037(2) 1.02284(2) 0.68288(3)
Zn1M Zn -0.02284(2) 0.94963(2) 0.81712(3)
Zn1N Zn 0.52284(2) 0.55037(2) 0.81712(3)
Zn1B Zn 0.44963(2) 0.47716(2) 0.68288(3)
C16 C 0.2007(6) 0.7007(6) 0.7500
C17 C 0.2269(7) 0.7224(6) 0.6736(8)
C17L C 0.2731(7) 0.7776(6) 0.6736(8)
C16L C 0.2993(6) 0.7993(6) 0.7500
C17O C 0.2776(6) 0.7731(7) 0.8264(8)
C17C C 0.2224(6) 0.7269(7) 0.8264(8)
C14? C 0.2261(5) 0.1798(5) 0.2634(5)
C15? C 0.1843(5) 0.2171(5) 0.2644(5)
loop_
_geom_bond_atom_site_label_1
_geom_bond_atom_site_label_2
_geom_bond_site_symmetry_1
_geom_bond_site_symmetry_2
Zn1 O1 1_555 1_555
O1 C1 1_555 1_555
O2 C1 1_555 1_555
O3 C7 1_555 1_555
O4 C7 1_555 1_555
N1 Zn1 1_555 1_555
C1 C2 1_555 1_555
C2 C3 1_555 1_555
C3 H1 1_555 1_555
C4 C2 1_555 1_555
H2 C4 1_555 1_555
C5 C3 1_555 1_555
C6 C4 1_555 1_555
H3 C6 1_555 1_555
C7 C5 1_555 1_555
C8 C5 1_555 1_555
H4 C8 1_555 1_555
C9 N1 1_555 1_555
H5 C9 1_555 1_555
C10 N1 1_555 1_555
H6 C10 1_555 1_555
C11 C10 1_555 1_555
H7 C11 1_555 1_555
C12 C11 1_555 1_555
H8 C12 1_555 1_555
C13 C9 1_555 1_555
H9 C13 1_555 1_555
C16 C17 1_555 1_555
C17 C17L 1_555 1_555
C17L C16L 1_555 1_555
C16L C17O 1_555 1_555
C17O C17C 1_555 1_555
C17C C16 1_555 1_555
O1C C1C 1_555 1_555
O2C Zn1 1_555 1_555
O3C C7C 1_555 1_555
O4C C7C 1_555 1_555
C1C O2C 1_555 1_555
C2C C1C 1_555 1_555
C3C C2C 1_555 1_555
H1C C3C 1_555 1_555
C4C C2C 1_555 1_555
H2C C4C 1_555 1_555
C5C C3C 1_555 1_555
C6C C4C 1_555 1_555
H3C C6C 1_555 1_555
C7C C5C 1_555 1_555
C8C C5C 1_555 1_555
H4C C8C 1_555 1_555
O3B Zn1 1_555 1_555
O4B Zn1C 1_555 1_555
O3M Zn1C 1_555 1_555
O4M Zn1 1_555 1_555
Zn1C O2 1_555 1_555
N1C Zn1C 1_555 1_555
C9C N1C 1_555 1_555
H5C C9C 1_555 1_555
C10C N1C 1_555 1_555
H6C C10C 1_555 1_555
C11C C10C 1_555 1_555
H7C C11C 1_555 1_555
C12C C11C 1_555 1_555
H8C C12C 1_555 1_555
C13C C9C 1_555 1_555
H9C C13C 1_555 1_555
Zn1A O3 1_555 1_555
Zn1M O4 1_555 1_555
Zn1N O3C 1_555 1_555
Zn1B O4C 1_555 1_555
C6 C8 1_555 1_555
C12 C13 1_555 1_555
O1C Zn1C 1_555 1_555
C6C C8C 1_555 1_555
C12C C13C 1_555 1_555

#END
