
#######################################################################
#
#                 Cambridge Crystallographic Data Centre
#                                CCDC 
#
#######################################################################
#
# If this CIF has been generated from an entry in the Cambridge 
# Structural Database, then it will include bibliographic, chemical, 
# crystal, experimental, refinement or atomic coordinate data resulting 
# from the CCDC's data processing and validation procedures.
#
#######################################################################

data_PACWUM
_symmetry_cell_setting           monoclinic
_symmetry_space_group_name_H-M   'C 2/c'
_symmetry_Int_Tables_number      15
_space_group_name_Hall           '-C 2yn'
loop_
_symmetry_equiv_pos_site_id
_symmetry_equiv_pos_as_xyz
1 x,y,z
2 1/2+x,1/2+y,z
3 x,-y,1/2+z
4 1/2+x,1/2-y,1/2+z
5 -x,-y,-z
6 1/2-x,1/2-y,-z
7 -x,y,1/2-z
8 1/2-x,1/2+y,1/2-z
_cell_length_a                   20.416(3)
_cell_length_b                   13.2052(18)
_cell_length_c                   13.8901(19)
_cell_angle_alpha                90
_cell_angle_beta                 109.477(2)
_cell_angle_gamma                90
_cell_volume                     3530.44
loop_
_atom_site_label
_atom_site_type_symbol
_atom_site_fract_x
_atom_site_fract_y
_atom_site_fract_z
Cl1 Cl -0.7331(2) -0.7951(3) -0.1620(3)
Cl2 Cl -0.6424(3) -0.6188(4) 0.1019(4)
C18 C -0.7001(5) -0.6959(7) 0.0185(8)
C19 C -0.6895(11) -0.7395(13) -0.0657(13)
C20 C -0.7465(10) -0.7560(12) -0.0563(11)
C21 C -0.766(3) -0.835(2) -0.1046(17)
C21E C -0.734(3) -0.665(2) 0.1046(17)
Cl1E Cl -0.7669(2) -0.7049(3) 0.1620(3)
C19E C -0.8105(11) -0.7605(13) 0.0657(13)
C18E C -0.7999(5) -0.8041(7) -0.0185(8)
Cl2E Cl -0.8576(3) -0.8812(4) -0.1019(4)
C20E C -0.7535(10) -0.7440(12) 0.0563(11)
Zn1 Zn -0.18931(4) -0.31931(5) 0.52573(5)
O1 O -0.2479(2) -0.3732(3) 0.3874(3)
O2 O -0.2478(3) -0.5989(4) 0.0912(4)
O3 O -0.3409(3) -0.6992(4) 0.0421(4)
O4 O -0.3390(3) -0.2706(4) 0.3476(3)
N1 N -0.4019(4) -0.1024(6) 0.4326(4)
C1 C -0.5289(6) -0.1296(10) 0.3538(8)
H1 H -0.5670 -0.1749 0.3299
C2 C -0.4866(8) 0.1394(10) 0.3819(9)
H2 H -0.4472 0.1826 0.4052
C3 C -0.5533(6) 0.1768(11) 0.3405(9)
H3 H -0.5603 0.2480 0.3371
C4 C -0.5357(7) -0.0297(8) 0.3494(7)
C5 C -0.6073(6) 0.0148(10) 0.3031(7)
H4 H -0.6477 -0.0258 0.2754
C6 C -0.4810(5) 0.0413(7) 0.3871(5)
C7 C -0.6096(5) 0.1142(9) 0.3041(7)
H5 H -0.6540 0.1452 0.2773
C8 C -0.4615(5) -0.1610(11) 0.3960(7)
H6 H -0.4546 -0.2323 0.4010
C9 C -0.4071(7) -0.0074(9) 0.4311(7)
H7 H -0.3669 0.0339 0.4563
C10 C -0.3474(4) -0.5505(5) 0.1306(4)
C11 C -0.4187(4) -0.5540(6) 0.1014(6)
H8 H -0.4437 -0.6026 0.0524
C12 C -0.4547(4) -0.4869(6) 0.1429(6)
H9 H -0.5041 -0.4884 0.1209
C13 C -0.3112(3) -0.4816(5) 0.2044(4)
H10 H -0.2619 -0.4789 0.2248
C14 C -0.4184(4) -0.4185(5) 0.2161(5)
H11 H -0.4428 -0.3724 0.2444
C15 C -0.3078(3) -0.3472(5) 0.3345(5)
C16 C -0.3463(3) -0.4166(5) 0.2487(4)
C17 C -0.3083(4) -0.6215(5) 0.0838(4)
Zn1B Zn -0.18931(4) -0.68069(5) 0.02573(5)
Zn1G Zn -0.31069(4) -0.81931(5) -0.02573(5)
O2B O -0.2478(3) -0.4011(4) 0.5912(4)
C17B C -0.3083(4) -0.3785(5) 0.5838(4)
O3B O -0.3409(3) -0.3008(4) 0.5421(4)
Zn1E Zn -0.31069(4) -0.18069(5) 0.47427(5)
O1E O -0.2521(2) -0.1268(3) 0.6126(3)
O4E O -0.1610(3) -0.2294(4) 0.6524(3)
O3G O -0.1591(3) -0.1992(4) 0.4579(4)
O2G O -0.2522(3) -0.0989(4) 0.4088(4)
N1E N -0.0981(4) -0.3976(6) 0.5674(4)
C8E C -0.0385(5) -0.3390(11) 0.6040(7)
C1E C 0.0289(6) -0.3704(10) 0.6462(8)
H1E H 0.0670 -0.3251 0.6701
C4E C 0.0357(7) -0.4703(8) 0.6506(7)
C5E C 0.1073(6) -0.5148(10) 0.6969(7)
H4E H 0.1477 -0.4742 0.7246
C7E C 0.1096(5) -0.6142(9) 0.6959(7)
C3E C 0.0533(6) -0.6768(11) 0.6595(9)
C2E C -0.0134(8) -0.6394(10) 0.6181(9)
H2E H -0.0528 -0.6826 0.5948
C6E C -0.0190(5) -0.5413(7) 0.6129(5)
C9E C -0.0929(7) -0.4926(9) 0.5689(7)
H7E H -0.1331 -0.5339 0.5437
H3E H 0.0603 -0.7480 0.6629
H5E H 0.1540 -0.6452 0.7227
H6E H -0.0454 -0.2677 0.5990
C10B C -0.3474(4) -0.4495(5) 0.6306(4)
C11B C -0.4187(4) -0.4460(6) 0.6014(6)
H8B H -0.4437 -0.3974 0.5524
C12B C -0.4547(4) -0.5131(6) 0.6429(6)
H9B H -0.5041 -0.5116 0.6209
C14B C -0.4184(4) -0.5815(5) 0.7161(5)
H11B H -0.4428 -0.6276 0.7444
C16B C -0.3463(3) -0.5834(5) 0.7487(4)
C13B C -0.3112(3) -0.5184(5) 0.7044(4)
H10B H -0.2619 -0.5211 0.7248
C15B C -0.3078(3) -0.6528(5) 0.8345(5)
O1B O -0.2479(2) -0.6268(3) 0.8874(3)
O4B O -0.3390(3) -0.7294(4) 0.8476(3)
Zn1B_2 Zn -0.18931(4) -0.68069(5) 1.02573(5)
Zn1G_2 Zn -0.31069(4) -0.81931(5) 0.97427(5)
loop_
_geom_bond_atom_site_label_1
_geom_bond_atom_site_label_2
_geom_bond_site_symmetry_1
_geom_bond_site_symmetry_2
Zn1 O1 1_555 1_555
O1 C15 1_555 1_555
O2 C17 1_555 1_555
O3 C17 1_555 1_555
O4 C15 1_555 1_555
N1 C8 1_555 1_555
C1 H1 1_555 1_555
C2 H2 1_555 1_555
C3 C2 1_555 1_555
H3 C3 1_555 1_555
C4 C1 1_555 1_555
C5 C4 1_555 1_555
H4 C5 1_555 1_555
C6 C2 1_555 1_555
C7 C3 1_555 1_555
H5 C7 1_555 1_555
C8 C1 1_555 1_555
H6 C8 1_555 1_555
C9 N1 1_555 1_555
H7 C9 1_555 1_555
C10 C11 1_555 1_555
C11 H8 1_555 1_555
C12 C11 1_555 1_555
H9 C12 1_555 1_555
C13 C10 1_555 1_555
H10 C13 1_555 1_555
C14 C12 1_555 1_555
H11 C14 1_555 1_555
C15 C16 1_555 1_555
C16 C13 1_555 1_555
C17 C10 1_555 1_555
Cl1 C19 1_555 1_555
Cl2 C18 1_555 1_555
C18 C19 1_555 1_555
C19 C20 1_555 1_555
C20 Cl1 1_555 1_555
C21 Cl1 1_555 1_555
Zn1B O2 1_555 1_555
Zn1G O3 1_555 1_555
O2B Zn1 1_555 1_555
C17B O2B 1_555 1_555
O3B C17B 1_555 1_555
Zn1E O4 1_555 1_555
O1E Zn1E 1_555 1_555
O4E Zn1 1_555 1_555
O3G Zn1 1_555 1_555
O2G Zn1E 1_555 1_555
N1E Zn1 1_555 1_555
C8E N1E 1_555 1_555
C1E C8E 1_555 1_555
H1E C1E 1_555 1_555
C4E C1E 1_555 1_555
C5E C4E 1_555 1_555
H4E C5E 1_555 1_555
C7E C5E 1_555 1_555
C3E C7E 1_555 1_555
C2E C3E 1_555 1_555
H2E C2E 1_555 1_555
C6E C4E 1_555 1_555
C9E N1E 1_555 1_555
H7E C9E 1_555 1_555
H3E C3E 1_555 1_555
H5E C7E 1_555 1_555
H6E C8E 1_555 1_555
C10B C17B 1_555 1_555
C11B C10B 1_555 1_555
H8B C11B 1_555 1_555
C12B C11B 1_555 1_555
H9B C12B 1_555 1_555
C14B C12B 1_555 1_555
H11B C14B 1_555 1_555
C16B C14B 1_555 1_555
C13B C10B 1_555 1_555
H10B C13B 1_555 1_555
C15B C16B 1_555 1_555
O1B C15B 1_555 1_555
O4B C15B 1_555 1_555
C21E Cl2 1_555 1_555
Cl1E C21E 1_555 1_555
C19E Cl1E 1_555 1_555
C18E C20 1_555 1_555
Cl2E C21 1_555 1_555
C20E C18 1_555 1_555
Zn1B_2 O1B 1_555 1_555
Zn1G_2 O4B 1_555 1_555
N1 Zn1E 1_555 1_555
C4 C6 1_555 1_555
C5 C7 1_555 1_555
C6 C9 1_555 1_555
C14 C16 1_555 1_555
C18 C20 1_555 1_555
C18 C21E 1_555 1_555
C20 C20E 1_555 1_555
C20 C21 1_555 1_555
C21 C18E 1_555 1_555
O3B Zn1E 1_555 1_555
C2E C6E 1_555 1_555
C6E C9E 1_555 1_555
C16B C13B 1_555 1_555
C21E C20E 1_555 1_555
Cl1E C20E 1_555 1_555
C19E C18E 1_555 1_555
C19E C20E 1_555 1_555
C18E Cl2E 1_555 1_555
C18E C20E 1_555 1_555

#END
