
#######################################################################
#
#                 Cambridge Crystallographic Data Centre
#                                CCDC 
#
#######################################################################
#
# If this CIF has been generated from an entry in the Cambridge 
# Structural Database, then it will include bibliographic, chemical, 
# crystal, experimental, refinement or atomic coordinate data resulting 
# from the CCDC's data processing and validation procedures.
#
#######################################################################

data_PACXEX
_symmetry_cell_setting           monoclinic
_symmetry_space_group_name_H-M   'C 2/c'
_symmetry_Int_Tables_number      15
_space_group_name_Hall           '-C 2yn'
loop_
_symmetry_equiv_pos_site_id
_symmetry_equiv_pos_as_xyz
1 x,y,z
2 1/2+x,1/2+y,z
3 x,-y,1/2+z
4 1/2+x,1/2-y,1/2+z
5 -x,-y,-z
6 1/2-x,1/2-y,-z
7 -x,y,1/2-z
8 1/2-x,1/2+y,1/2-z
_cell_length_a                   19.206(2)
_cell_length_b                   13.0543(16)
_cell_length_c                   14.3339(18)
_cell_angle_alpha                90
_cell_angle_beta                 109.542(2)
_cell_angle_gamma                90
_cell_volume                     3386.79
loop_
_atom_site_label
_atom_site_type_symbol
_atom_site_fract_x
_atom_site_fract_y
_atom_site_fract_z
Zn1 Zn 0.315880(16) -0.18016(2) 0.52511(2)
O1 O 0.26209(11) -0.10753(16) 0.39519(16)
O2 O 0.14815(12) 0.21402(15) 0.05184(16)
O3 O 0.24771(11) 0.11104(15) 0.08909(15)
O4 O 0.16377(11) -0.20962(14) 0.36720(15)
N1 N 0.09150(12) -0.40770(17) 0.42178(17)
C1 C 0.19749(16) -0.1353(2) 0.3469(2)
C2 C 0.18440(16) 0.1353(2) 0.0897(2)
C3 C 0.14785(15) 0.0612(2) 0.1396(2)
C4 C 0.18952(15) -0.00161(19) 0.2157(2)
H1 H 0.2419 0.0033 0.2386
C5 C 0.15513(15) -0.07172(19) 0.2588(2)
C6 C 0.42125(16) -0.5813(2) 0.2789(2)
H2 H 0.4450 -0.6321 0.2528
C7 C 0.46319(17) -0.5178(2) 0.3539(2)
H3 H 0.5155 -0.5242 0.3782
C8 C 0.42875(16) -0.4450(2) 0.3933(2)
H4 H 0.4574 -0.3992 0.4429
C9 C 0.09637(16) -0.5106(2) 0.4211(2)
H5 H 0.1440 -0.5411 0.4408
C10 C 0.03452(17) -0.5741(2) 0.3928(2)
C11 C -0.03396(16) -0.5275(2) 0.3636(2)
H6 H -0.0773 -0.5686 0.3441
C12 C -0.04054(16) -0.4211(2) 0.3623(2)
C13 C 0.02401(15) -0.3646(2) 0.3924(2)
H7 H 0.0206 -0.2920 0.3922
C14 C -0.11468(16) -0.3695(2) 0.3325(2)
H8 H -0.1389 -0.3761 0.2608
H9 H -0.1082 -0.2969 0.3504
H10 H -0.1453 -0.4021 0.3667
C15 C 0.0434(2) -0.6888(2) 0.3951(3)
H11 H -0.0030 -0.7213 0.3935
H12 H 0.0830 -0.7088 0.4559
H13 H 0.0561 -0.7110 0.3375
Zn1G Zn 0.184120(16) 0.31984(2) -0.02511(2)
Zn1B Zn 0.315880(16) 0.18016(2) 0.02511(2)
O2G O 0.35185(12) -0.28598(15) 0.44816(16)
C2G C 0.31560(16) -0.3647(2) 0.4103(2)
O3G O 0.25229(11) -0.38896(15) 0.41091(15)
Zn1E Zn 0.184120(16) -0.31984(2) 0.47489(2)
O1E O 0.23791(11) -0.39247(16) 0.60481(16)
O4E O 0.33623(11) -0.29038(14) 0.63280(15)
O3B O 0.24771(11) -0.11104(15) 0.58909(15)
O2B O 0.14815(12) -0.21402(15) 0.55184(16)
N1E N 0.40850(12) -0.09230(17) 0.57822(17)
C9E C 0.40363(16) 0.0106(2) 0.5789(2)
H5E H 0.3560 0.0411 0.5592
C10E C 0.46548(17) 0.0741(2) 0.6072(2)
C11E C 0.53396(16) 0.0275(2) 0.6364(2)
H6E H 0.5773 0.0686 0.6559
C12E C 0.54054(16) -0.0789(2) 0.6377(2)
C13E C 0.47599(15) -0.1354(2) 0.6076(2)
H7E H 0.4794 -0.2080 0.6078
C14E C 0.61468(16) -0.1305(2) 0.6675(2)
H8E H 0.6389 -0.1239 0.7392
H9E H 0.6082 -0.2031 0.6496
H10E H 0.6453 -0.0979 0.6333
C15E C 0.4566(2) 0.1888(2) 0.6049(3)
H11E H 0.5030 0.2213 0.6065
H12E H 0.4170 0.2088 0.5441
H13E H 0.4439 0.2110 0.6625
C3G C 0.35215(15) -0.4388(2) 0.3604(2)
C4G C 0.31048(15) -0.50161(19) 0.2843(2)
H1G H 0.2581 -0.4967 0.2614
C5G C 0.34487(15) -0.57172(19) 0.2412(2)
C1G C 0.30251(16) -0.6353(2) 0.1531(2)
O1G O 0.23791(11) -0.60753(16) 0.10481(16)
O4G O 0.33623(11) -0.70962(14) 0.13280(15)
C6G C 0.07875(16) -0.0813(2) 0.2211(2)
H2G H 0.0550 -0.1321 0.2472
C7G C 0.03681(17) -0.0178(2) 0.1461(2)
H3G H -0.0155 -0.0242 0.1218
C8G C 0.07125(16) 0.0550(2) 0.1067(2)
H4G H 0.0426 0.1008 0.0571
Zn1G_2 Zn 0.184120(16) -0.68016(2) -0.02511(2)
Zn1B_2 Zn 0.315880(16) -0.81984(2) 0.02511(2)
C16 C 0.2448(2) 0.2699(3) 0.4038(3)
H14 H 0.2409 0.2834 0.3371
C17 C 0.2717(2) 0.3426(3) 0.4750(4)
H15 H 0.2870 0.4071 0.4579
C18 C 0.2232(2) 0.1767(3) 0.4298(3)
H16 H 0.2046 0.1254 0.3807
C18E C 0.2768(2) 0.3233(3) 0.5702(3)
C16E C 0.2552(2) 0.2301(3) 0.5962(3)
H14E H 0.2591 0.2166 0.6629
C17E C 0.2283(2) 0.1574(3) 0.5250(4)
H15E H 0.2130 0.0929 0.5421
H16E H 0.2954 0.3746 0.6193
loop_
_geom_bond_atom_site_label_1
_geom_bond_atom_site_label_2
_geom_bond_site_symmetry_1
_geom_bond_site_symmetry_2
Zn1 O1 1_555 1_555
O1 C1 1_555 1_555
O2 C2 1_555 1_555
O3 C2 1_555 1_555
O4 C1 1_555 1_555
N1 C9 1_555 1_555
C1 C5 1_555 1_555
C2 C3 1_555 1_555
C3 C4 1_555 1_555
C4 H1 1_555 1_555
C5 C4 1_555 1_555
C6 H2 1_555 1_555
C7 C6 1_555 1_555
H3 C7 1_555 1_555
C8 C7 1_555 1_555
H4 C8 1_555 1_555
C9 H5 1_555 1_555
C10 C9 1_555 1_555
C11 C10 1_555 1_555
H6 C11 1_555 1_555
C12 C11 1_555 1_555
C13 N1 1_555 1_555
H7 C13 1_555 1_555
C14 C12 1_555 1_555
H8 C14 1_555 1_555
H9 C14 1_555 1_555
H10 C14 1_555 1_555
C15 C10 1_555 1_555
H11 C15 1_555 1_555
H12 C15 1_555 1_555
H13 C15 1_555 1_555
C16 H14 1_555 1_555
C17 C16 1_555 1_555
H15 C17 1_555 1_555
C18 C16 1_555 1_555
H16 C18 1_555 1_555
Zn1G O2 1_555 1_555
Zn1B O3 1_555 1_555
O2G Zn1 1_555 1_555
C2G O2G 1_555 1_555
O3G C2G 1_555 1_555
Zn1E O4 1_555 1_555
O1E Zn1E 1_555 1_555
O4E Zn1 1_555 1_555
O3B Zn1 1_555 1_555
O2B Zn1E 1_555 1_555
N1E Zn1 1_555 1_555
C9E N1E 1_555 1_555
H5E C9E 1_555 1_555
C10E C9E 1_555 1_555
C11E C10E 1_555 1_555
H6E C11E 1_555 1_555
C12E C11E 1_555 1_555
C13E N1E 1_555 1_555
H7E C13E 1_555 1_555
C14E C12E 1_555 1_555
H8E C14E 1_555 1_555
H9E C14E 1_555 1_555
H10E C14E 1_555 1_555
C15E C10E 1_555 1_555
H11E C15E 1_555 1_555
H12E C15E 1_555 1_555
H13E C15E 1_555 1_555
C3G C8 1_555 1_555
C4G C3G 1_555 1_555
H1G C4G 1_555 1_555
C5G C6 1_555 1_555
C1G C5G 1_555 1_555
O1G C1G 1_555 1_555
O4G C1G 1_555 1_555
C6G C5 1_555 1_555
H2G C6G 1_555 1_555
C7G C6G 1_555 1_555
H3G C7G 1_555 1_555
C8G C3 1_555 1_555
H4G C8G 1_555 1_555
C18E C17 1_555 1_555
C16E C18E 1_555 1_555
H14E C16E 1_555 1_555
C17E C18 1_555 1_555
H15E C17E 1_555 1_555
H16E C18E 1_555 1_555
Zn1G_2 O1G 1_555 1_555
Zn1B_2 O4G 1_555 1_555
N1 Zn1E 1_555 1_555
C12 C13 1_555 1_555
C2G C3G 1_555 1_555
O3G Zn1E 1_555 1_555
C12E C13E 1_555 1_555
C4G C5G 1_555 1_555
C7G C8G 1_555 1_555
C16E C17E 1_555 1_555

#END
