
#######################################################################
#
#                 Cambridge Crystallographic Data Centre
#                                CCDC 
#
#######################################################################
#
# If this CIF has been generated from an entry in the Cambridge 
# Structural Database, then it will include bibliographic, chemical, 
# crystal, experimental, refinement or atomic coordinate data resulting 
# from the CCDC's data processing and validation procedures.
#
#######################################################################

data_PACXAT
_symmetry_cell_setting           monoclinic
_symmetry_space_group_name_H-M   'C 2/c'
_symmetry_Int_Tables_number      15
_space_group_name_Hall           '-C 2yn'
loop_
_symmetry_equiv_pos_site_id
_symmetry_equiv_pos_as_xyz
1 x,y,z
2 1/2+x,1/2+y,z
3 x,-y,1/2+z
4 1/2+x,1/2-y,1/2+z
5 -x,-y,-z
6 1/2-x,1/2-y,-z
7 -x,y,1/2-z
8 1/2-x,1/2+y,1/2-z
_cell_length_a                   18.8097(17)
_cell_length_b                   13.1619(12)
_cell_length_c                   14.3915(13)
_cell_angle_alpha                90
_cell_angle_beta                 109.109(2)
_cell_angle_gamma                90
_cell_volume                     3366.6
loop_
_atom_site_label
_atom_site_type_symbol
_atom_site_fract_x
_atom_site_fract_y
_atom_site_fract_z
Cl1 Cl 0.30267(8) -0.71507(11) 0.19387(11)
Cl2 Cl 0.15364(9) -0.60492(11) -0.07610(12)
C16 C 0.2174(3) -0.6950(5) -0.0141(5)
C17 C 0.2497(5) -0.6903(6) 0.0863(6)
C18 C 0.1848(4) -0.6560(5) -0.0874(5)
C19 C 0.2994(4) -0.7638(5) 0.1395(5)
C20 C 0.2161(4) -0.6474(5) 0.0163(5)
C21 C 0.2650(4) -0.7243(5) 0.0665(6)
C16E C 0.2826(3) -0.8050(5) 0.0141(5)
Cl2E Cl 0.34636(9) -0.89508(11) 0.07610(12)
C18E C 0.3152(4) -0.8440(5) 0.0874(5)
C17E C 0.2503(5) -0.8097(6) -0.0863(6)
Cl1E Cl 0.19733(8) -0.78493(11) -0.19387(11)
C19E C 0.2006(4) -0.7362(5) -0.1395(5)
C20E C 0.2839(4) -0.8526(5) -0.0163(5)
C21E C 0.2350(4) -0.7757(5) -0.0665(6)
Zn1 Zn 0.317420(13) 0.318320(18) -0.475430(17)
O1 O 0.33433(10) 0.20601(12) -0.37096(12)
O2 O 0.24995(9) -0.11103(12) -0.09041(12)
O3 O 0.23371(9) 0.10545(13) -0.39654(12)
O4 O 0.35191(10) -0.21187(12) -0.05425(12)
N1 N 0.08588(11) 0.09867(14) -0.57975(13)
C1 C 0.29992(13) 0.13320(17) -0.34929(16)
C2 C 0.34290(13) 0.07159(16) -0.26031(15)
C3 C 0.42055(13) 0.08521(18) -0.22158(17)
H1 H 0.0560 0.6372 -0.2529
C4 C 0.46395(13) 0.0234(2) -0.14607(18)
H2 H -0.0170 0.5319 -0.3790
C5 C 0.42938(13) -0.05083(18) -0.10744(17)
H3 H 0.0410 0.4048 -0.4423
C6 C 0.35124(13) -0.06061(16) -0.14141(16)
C7 C 0.19167(12) 0.50014(16) -0.28101(15)
H4 H 0.2448 0.4924 -0.2565
C8 C 0.01890(13) 0.14578(17) -0.60633(16)
H5 H 0.0179 0.2179 -0.6053
C9 C -0.04905(13) 0.09350(18) -0.63537(16)
C10 C -0.04574(14) -0.01219(18) -0.63716(17)
H6 H -0.0911 -0.0504 -0.6566
C11 C 0.02283(14) -0.06259(18) -0.61104(17)
C12 C 0.08757(13) -0.00289(17) -0.58274(17)
H7 H 0.1351 -0.0358 -0.5647
C13 C -0.12284(14) 0.1487(2) -0.6615(2)
H8 H -0.1500 0.1407 -0.7319
H9 H -0.1136 0.2211 -0.6461
H10 H -0.1530 0.1205 -0.6236
C14 C 0.02786(16) -0.17665(18) -0.6106(2)
H11 H 0.0416 -0.1993 -0.6673
H12 H -0.0209 -0.2057 -0.6142
H13 H 0.0662 -0.1992 -0.5498
C15 C 0.31450(13) -0.13403(17) -0.09181(15)
Zn1G Zn 0.182580(13) -0.181680(18) -0.024570(17)
Zn1B Zn 0.317420(13) -0.318320(18) 0.024570(17)
O2G O 0.25005(9) 0.38897(12) -0.40959(12)
C15G C 0.18550(13) 0.36597(17) -0.40819(15)
O4G O 0.14809(10) 0.28813(12) -0.44575(12)
Zn1E Zn 0.182580(13) 0.181680(18) -0.524570(17)
O1E O 0.16567(10) 0.29399(12) -0.62904(12)
O3E O 0.26629(9) 0.39455(13) -0.60346(12)
O4B O 0.35191(10) 0.21187(12) -0.55425(12)
O2B O 0.24995(9) 0.11103(12) -0.59041(12)
N1E N 0.41412(11) 0.40133(14) -0.42025(13)
C8E C 0.48110(13) 0.35422(17) -0.39367(16)
H5E H 0.4821 0.2821 -0.3947
C9E C 0.54905(13) 0.40650(18) -0.36463(16)
C10E C 0.54574(14) 0.51219(18) -0.36284(17)
H6E H 0.5911 0.5504 -0.3434
C11E C 0.47717(14) 0.56259(18) -0.38896(17)
C12E C 0.41243(13) 0.50289(17) -0.41726(17)
H7E H 0.3649 0.5358 -0.4353
C14E C 0.47214(16) 0.67665(18) -0.3894(2)
H11E H 0.4584 0.6993 -0.3327
H12E H 0.5209 0.7057 -0.3858
H13E H 0.4338 0.6992 -0.4502
C13E C 0.62284(14) 0.3513(2) -0.3385(2)
H8E H 0.6500 0.3593 -0.2681
H9E H 0.6136 0.2789 -0.3539
H10E H 0.6530 0.3795 -0.3764
C6G C 0.14876(13) 0.43939(16) -0.35859(16)
C5G C 0.07062(13) 0.44917(18) -0.39256(17)
C4G C 0.03605(13) 0.5234(2) -0.35393(18)
C3G C 0.07945(13) 0.58521(18) -0.27842(17)
C2G C 0.15710(13) 0.57159(16) -0.23969(15)
C1G C 0.20008(13) 0.63320(17) -0.15071(16)
O1G O 0.16567(10) 0.70601(12) -0.12904(12)
O3G O 0.26629(9) 0.60545(13) -0.10346(12)
C7G C 0.30833(12) 0.00014(16) -0.21899(15)
H4G H 0.2552 -0.0076 -0.2435
H1G H 0.4440 0.1372 -0.2471
H2G H 0.5170 0.0319 -0.1210
H3G H 0.4590 -0.0952 -0.0577
Zn1G_2 Zn 0.182580(13) 0.818320(18) -0.024570(17)
Zn1B_2 Zn 0.317420(13) 0.681680(18) 0.024570(17)
loop_
_geom_bond_atom_site_label_1
_geom_bond_atom_site_label_2
_geom_bond_site_symmetry_1
_geom_bond_site_symmetry_2
Zn1 O1 1_555 1_555
O1 C1 1_555 1_555
O2 C15 1_555 1_555
O3 C1 1_555 1_555
O4 C15 1_555 1_555
N1 C8 1_555 1_555
C1 C2 1_555 1_555
C2 C3 1_555 1_555
C3 C4 1_555 1_555
H1 C3G 1_555 1_555
C4 C5 1_555 1_555
H2 C4G 1_555 1_555
C5 C6 1_555 1_555
H3 C5G 1_555 1_555
C6 C15 1_555 1_555
C7 H4 1_555 1_555
C8 H5 1_555 1_555
C9 C8 1_555 1_555
C10 C9 1_555 1_555
H6 C10 1_555 1_555
C11 C10 1_555 1_555
C12 N1 1_555 1_555
H7 C12 1_555 1_555
C13 C9 1_555 1_555
H8 C13 1_555 1_555
H9 C13 1_555 1_555
H10 C13 1_555 1_555
C14 C11 1_555 1_555
H11 C14 1_555 1_555
H12 C14 1_555 1_555
H13 C14 1_555 1_555
Cl1 C17 1_555 1_555
Cl2 C16 1_555 1_555
C16 C17 1_555 1_555
C17 C19 1_555 1_555
C18 Cl2 1_555 1_555
C19 Cl1 1_555 1_555
C20 Cl2 1_555 1_555
C21 Cl1 1_555 1_555
Zn1G O2 1_555 1_555
Zn1B O4 1_555 1_555
O2G Zn1 1_555 1_555
C15G O2G 1_555 1_555
O4G C15G 1_555 1_555
Zn1E O3 1_555 1_555
O1E Zn1E 1_555 1_555
O3E Zn1 1_555 1_555
O4B Zn1 1_555 1_555
O2B Zn1E 1_555 1_555
N1E Zn1 1_555 1_555
C8E N1E 1_555 1_555
H5E C8E 1_555 1_555
C9E C8E 1_555 1_555
C10E C9E 1_555 1_555
H6E C10E 1_555 1_555
C11E C10E 1_555 1_555
C12E N1E 1_555 1_555
H7E C12E 1_555 1_555
C14E C11E 1_555 1_555
H11E C14E 1_555 1_555
H12E C14E 1_555 1_555
H13E C14E 1_555 1_555
C13E C9E 1_555 1_555
H8E C13E 1_555 1_555
H9E C13E 1_555 1_555
H10E C13E 1_555 1_555
C6G C7 1_555 1_555
C5G C6G 1_555 1_555
C4G C5G 1_555 1_555
C3G C4G 1_555 1_555
C2G C7 1_555 1_555
C1G C2G 1_555 1_555
O1G C1G 1_555 1_555
O3G C1G 1_555 1_555
C7G C2 1_555 1_555
H4G C7G 1_555 1_555
H1G C3 1_555 1_555
H2G C4 1_555 1_555
H3G C5 1_555 1_555
C16E C21 1_555 1_555
Cl2E C16E 1_555 1_555
C18E C19 1_555 1_555
C17E C16E 1_555 1_555
Cl1E C17E 1_555 1_555
C19E C18 1_555 1_555
C20E C16E 1_555 1_555
C21E C16 1_555 1_555
Zn1G_2 O1G 1_555 1_555
Zn1B_2 O3G 1_555 1_555
N1 Zn1E 1_555 1_555
C6 C7G 1_555 1_555
C11 C12 1_555 1_555
C16 C20 1_555 1_555
C16 C18 1_555 1_555
C16 C21 1_555 1_555
C17 C20 1_555 1_555
C17 C21 1_555 1_555
C18 C20 1_555 1_555
C19 C21 1_555 1_555
C20 C21 1_555 1_555
C15G C6G 1_555 1_555
O4G Zn1E 1_555 1_555
C11E C12E 1_555 1_555
C3G C2G 1_555 1_555
C16E C21E 1_555 1_555
C16E C18E 1_555 1_555
Cl2E C18E 1_555 1_555
Cl2E C20E 1_555 1_555
C18E C20E 1_555 1_555
C17E C20E 1_555 1_555
C17E C19E 1_555 1_555
C17E C21E 1_555 1_555
Cl1E C19E 1_555 1_555
Cl1E C21E 1_555 1_555
C19E C21E 1_555 1_555
C20E C21E 1_555 1_555

#END
