
#######################################################################
#
#                 Cambridge Crystallographic Data Centre
#                                CCDC 
#
#######################################################################
#
# If this CIF has been generated from an entry in the Cambridge 
# Structural Database, then it will include bibliographic, chemical, 
# crystal, experimental, refinement or atomic coordinate data resulting 
# from the CCDC's data processing and validation procedures.
#
#######################################################################

data_PACXIB
_symmetry_cell_setting           monoclinic
_symmetry_space_group_name_H-M   'C c'
_symmetry_Int_Tables_number      9
_space_group_name_Hall           'C -2yc'
loop_
_symmetry_equiv_pos_site_id
_symmetry_equiv_pos_as_xyz
1 x,y,z
2 x,-y,1/2+z
3 1/2+x,1/2+y,z
4 1/2+x,1/2-y,1/2+z
_cell_length_a                   19.796(2)
_cell_length_b                   12.2755(15)
_cell_length_c                   14.8457(18)
_cell_angle_alpha                90
_cell_angle_beta                 116.064(2)
_cell_angle_gamma                90
_cell_volume                     3240.71
loop_
_atom_site_label
_atom_site_type_symbol
_atom_site_fract_x
_atom_site_fract_y
_atom_site_fract_z
Zn1 Zn 0.437810(18) 0.67409(3) 0.44698(2)
Zn2 Zn 0.567640(18) 0.82660(3) 0.53075(2)
N1 N 0.34519(18) 0.5800(3) 0.4105(3)
N2 N 0.66471(19) 0.9145(3) 0.5787(3)
C1 C 0.5669(3) 0.6324(3) 0.4082(3)
C2 C 0.4490(3) 1.1295(3) 0.0819(3)
C3 C 0.5643(3) 0.3668(4) 0.1483(3)
C4 C 0.4357(3) 0.8662(3) 0.3330(3)
O1 O 0.39340(17) 0.7909(2) 0.3384(2)
O2 O 0.42189(17) 1.2171(2) 0.0383(2)
O3 O 0.60487(16) 0.7018(2) 0.4723(2)
O4 O 0.59098(16) 0.2747(2) 0.1489(2)
C5 C 0.7993(3) 0.9211(4) 0.6539(4)
H1 H 0.8456 0.8825 0.6788
O5 O 0.49695(15) 0.6142(2) 0.3776(2)
O6 O 0.50625(17) 1.0824(2) 0.0857(2)
C6 C 0.2759(3) 0.6236(4) 0.3624(4)
H2 H 0.2716 0.6996 0.3491
O7 O 0.50716(16) 0.4090(2) 0.0774(2)
O8 O 0.50412(15) 0.8782(2) 0.3902(2)
C7 C 0.7315(3) 0.8649(3) 0.6129(4)
H3 H 0.7327 0.7877 0.6089
C8 C 0.2111(3) 0.5628(4) 0.3316(4)
H4 H 0.1633 0.5967 0.2980
C9 C 0.2877(2) 0.4080(3) 0.4012(4)
H5 H 0.2936 0.3324 0.4166
C10 C 0.7294(2) 1.0847(3) 0.6210(3)
H6 H 0.7265 1.1619 0.6220
C11 C 0.7992(2) 1.0338(3) 0.6585(3)
C12 C 0.8713(2) 1.0976(4) 0.7032(4)
H7 H 0.9099 1.0551 0.7571
H8 H 0.8630 1.1664 0.7305
H9 H 0.8878 1.1129 0.6512
C13 C 0.2161(2) 0.4517(4) 0.3500(3)
C14 C 0.6643(2) 1.0234(3) 0.5824(3)
H10 H 0.6172 1.0600 0.5574
C15 C 0.3502(2) 0.4735(3) 0.4300(3)
H11 H 0.3986 0.4417 0.4649
C16 C 0.5677(3) 0.5067(4) 0.2753(4)
H12 H 0.5150 0.5169 0.2385
C17 C 0.4398(3) 0.9958(4) 0.2045(4)
H13 H 0.4892 0.9712 0.2198
C18 C 0.3996(2) 0.9495(3) 0.2517(3)
C19 C 0.6050(2) 0.4340(3) 0.2401(3)
C20 C 0.6071(2) 0.5637(3) 0.3633(3)
C23 C 0.4072(2) 1.0781(3) 0.1352(3)
C25 C 0.6822(2) 0.4199(3) 0.2952(3)
H17 H 0.7075 0.3677 0.2739
C26 C 0.7229(2) 0.4811(3) 0.3811(3)
H18 H 0.7759 0.4733 0.4161
C27 C 0.6854(2) 0.5541(3) 0.4157(3)
H19 H 0.7127 0.5966 0.4740
C30 C 0.3360(2) 1.1172(3) 0.1152(3)
H21 H 0.3143 1.1749 0.0688
C31 C 0.3280(2) 0.9857(3) 0.2295(3)
H22 H 0.2999 0.9517 0.2597
C32 C 0.2970(2) 1.0713(4) 0.1634(4)
H23 H 0.2489 1.0986 0.1512
C34 C 0.1469(3) 0.3803(4) 0.3146(4)
H25 H 0.1173 0.4002 0.3504
H26 H 0.1621 0.3038 0.3279
H27 H 0.1164 0.3907 0.2424
O2A O 0.42189(17) 0.7829(2) 0.5383(2)
O7A O 0.50716(16) 0.5910(2) 0.5774(2)
O4A O 0.59098(16) 0.7253(2) 0.6489(2)
O6A O 0.50625(17) 0.9176(2) 0.5857(2)
Zn1A Zn 0.437810(18) 1.32591(3) -0.05302(2)
Zn2A Zn 0.567640(18) 0.17340(3) 0.03075(2)
Zn2A_2 Zn 0.567640(18) 1.17340(3) 0.03075(2)
Zn1A_2 Zn 0.437810(18) 0.32591(3) -0.05302(2)
C21 C 0.4826(4) 0.1822(4) 0.4181(5)
H14 H 0.4475 0.1276 0.3804
C22 C 0.5286(3) 0.3113(4) 0.5549(5)
H15 H 0.5251 0.3435 0.6109
C24 C 0.5875(3) 0.2964(5) 0.4456(5)
H16 H 0.6255 0.3190 0.4269
N3 N 0.4197(3) 0.1982(4) 0.5284(5)
C28 C 0.4799(2) 0.2301(3) 0.4999(3)
C29 C 0.5825(3) 0.3443(4) 0.5255(5)
H20 H 0.6166 0.4008 0.5613
O9 O 0.4178(3) 0.2414(4) 0.6004(4)
O10 O 0.3732(2) 0.1332(4) 0.4750(4)
C33 C 0.5385(3) 0.2167(5) 0.3926(4)
H24 H 0.5426 0.1841 0.3372
loop_
_geom_bond_atom_site_label_1
_geom_bond_atom_site_label_2
_geom_bond_site_symmetry_1
_geom_bond_site_symmetry_2
Zn1 N1 1_555 1_555
Zn2 N2 1_555 1_555
N1 C6 1_555 1_555
N2 C7 1_555 1_555
C1 O3 1_555 1_555
C2 O2 1_555 1_555
C3 O4 1_555 1_555
C4 O1 1_555 1_555
O1 Zn1 1_555 1_555
O2 Zn1A 1_555 1_555
O3 Zn2 1_555 1_555
O4 Zn2A 1_555 1_555
C5 H1 1_555 1_555
O5 Zn1 1_555 1_555
O6 C2 1_555 1_555
C6 H2 1_555 1_555
O7 C3 1_555 1_555
O8 Zn2 1_555 1_555
C7 C5 1_555 1_555
H3 C7 1_555 1_555
C8 C6 1_555 1_555
H4 C8 1_555 1_555
C9 H5 1_555 1_555
C10 H6 1_555 1_555
C11 C5 1_555 1_555
C12 C11 1_555 1_555
H7 C12 1_555 1_555
H8 C12 1_555 1_555
H9 C12 1_555 1_555
C13 C8 1_555 1_555
C14 N2 1_555 1_555
H10 C14 1_555 1_555
C15 N1 1_555 1_555
H11 C15 1_555 1_555
C16 H12 1_555 1_555
C17 H13 1_555 1_555
C18 C4 1_555 1_555
C19 C3 1_555 1_555
C20 C1 1_555 1_555
C21 H14 1_555 1_555
C22 H15 1_555 1_555
C23 C2 1_555 1_555
C24 H16 1_555 1_555
N3 C28 1_555 1_555
C25 C19 1_555 1_555
H17 C25 1_555 1_555
C26 C25 1_555 1_555
H18 C26 1_555 1_555
C27 C20 1_555 1_555
H19 C27 1_555 1_555
C28 C21 1_555 1_555
C29 C22 1_555 1_555
H20 C29 1_555 1_555
C30 C23 1_555 1_555
H21 C30 1_555 1_555
C31 C18 1_555 1_555
H22 C31 1_555 1_555
C32 C30 1_555 1_555
H23 C32 1_555 1_555
O9 N3 1_555 1_555
O10 N3 1_555 1_555
C33 C21 1_555 1_555
H24 C33 1_555 1_555
C34 C13 1_555 1_555
H25 C34 1_555 1_555
H26 C34 1_555 1_555
H27 C34 1_555 1_555
O2A Zn1 1_555 1_555
O7A Zn1 1_555 1_555
O4A Zn2 1_555 1_555
O6A Zn2 1_555 1_555
Zn2A_2 O6 1_555 1_555
Zn1A_2 O7 1_555 1_555
C1 O5 1_555 1_555
C4 O8 1_555 1_555
C9 C13 1_555 1_555
C9 C15 1_555 1_555
C10 C11 1_555 1_555
C10 C14 1_555 1_555
C16 C20 1_555 1_555
C16 C19 1_555 1_555
C17 C23 1_555 1_555
C17 C18 1_555 1_555
C22 C28 1_555 1_555
C24 C29 1_555 1_555
C24 C33 1_555 1_555
C26 C27 1_555 1_555
C31 C32 1_555 1_555

#END
