
#######################################################################
#
#                 Cambridge Crystallographic Data Centre
#                                CCDC 
#
#######################################################################
#
# If this CIF has been generated from an entry in the Cambridge 
# Structural Database, then it will include bibliographic, chemical, 
# crystal, experimental, refinement or atomic coordinate data resulting 
# from the CCDC's data processing and validation procedures.
#
#######################################################################

data_PACZEA
_symmetry_cell_setting           monoclinic
_symmetry_space_group_name_H-M   'P 21/c'
_symmetry_Int_Tables_number      14
_space_group_name_Hall           '-P 2ybc'
loop_
_symmetry_equiv_pos_site_id
_symmetry_equiv_pos_as_xyz
1 x,y,z
2 -x,1/2+y,1/2-z
3 -x,-y,-z
4 x,1/2-y,1/2+z
_cell_length_a                   11.971(2)
_cell_length_b                   15.940(3)
_cell_length_c                   16.398(6)
_cell_angle_alpha                90
_cell_angle_beta                 116.91(2)
_cell_angle_gamma                90
_cell_volume                     2790.21
loop_
_atom_site_label
_atom_site_type_symbol
_atom_site_fract_x
_atom_site_fract_y
_atom_site_fract_z
H1 H 0.428(5) 0.990(3) 0.542(4)
H2 H 0.522(5) 0.999(3) 0.626(4)
Sm1 Sm 0.554324(14) 0.823072(10) 0.580272(11)
Sm2 Sm 0.544830(14) 0.783810(10) 0.308560(11)
S1 S 0.72544(7) 0.90767(5) 0.81864(6)
O1 O 0.6720(2) 0.90080(14) 0.52422(16)
O2 O 0.5356(2) 0.73033(14) 0.44336(15)
O3 O 0.4693(2) 0.67934(15) 0.53739(17)
O4 O 0.3564(2) 0.85111(16) 0.44800(15)
O5 O 0.4781(3) 0.96557(16) 0.5850(2)
O6 O -0.3390(2) 0.78137(15) 0.22172(16)
O7 O -0.2488(2) 0.75781(16) 0.13419(17)
O8 O 0.6928(2) 0.89991(16) 0.72190(16)
O9 O 0.7052(2) 0.99065(16) 0.84437(19)
O10 O 0.6661(2) 0.84361(16) 0.84977(17)
O11 O 0.7254(2) 0.85294(17) 0.41932(17)
O12 O 0.4175(2) 0.87796(14) 0.34100(16)
O13 O 0.4695(3) 0.88995(17) 0.19219(19)
H3 H 0.4155 0.9179 0.1972
H4 H 0.4676 0.8836 0.1431
O14 O 1.3359(2) 0.78552(16) 0.74362(16)
O15 O 1.4352(2) 0.80251(15) 0.66187(16)
C1 C 0.3333(3) 0.8669(2) 0.3674(2)
C2 C 0.1993(3) 0.8735(3) 0.2943(2)
H5 H 0.1862 0.8312 0.2483
H6 H 0.1888 0.9278 0.2650
C3 C 0.0974(3) 0.8637(3) 0.3241(3)
H7 H 0.1179 0.8168 0.3662
H8 H 0.0943 0.9139 0.3565
C4 C -0.0298(3) 0.8491(3) 0.2446(3)
H9 H -0.0256 0.7997 0.2116
H10 H -0.0503 0.8965 0.2033
C5 C 1.3365(3) 0.8123(2) 0.6717(2)
C6 C 1.2237(3) 0.8513(3) 0.5961(3)
H11 H 1.1940 0.8147 0.5432
H12 H 1.2484 0.9039 0.5792
C7 C 1.1161(3) 0.8683(3) 0.6189(3)
H13 H 1.1140 0.8238 0.6585
H14 H 1.1328 0.9204 0.6530
C8 C 0.9886(3) 0.8743(3) 0.5374(2)
H15 H 0.9890 0.9192 0.4975
H16 H 0.9701 0.8223 0.5031
C9 C 0.8880(3) 0.8912(3) 0.5667(2)
H17 H 0.8988 0.9483 0.5895
H18 H 0.9032 0.8545 0.6178
C10 C 0.7525(3) 0.8809(2) 0.4973(2)
C11 C 0.8886(3) 0.8899(2) 0.8785(2)
C12 C 0.9584(4) 0.8885(3) 0.8323(3)
H19 H 0.9206 0.8958 0.7692
C13 C 1.0875(4) 0.8760(4) 0.8805(4)
H20 H 1.1357 0.8737 0.8493
C14 C 1.1425(4) 0.8672(4) 0.9719(4)
H21 H 1.2288 0.8604 1.0037
C15 C 1.0732(5) 0.8682(4) 1.0179(4)
H22 H 1.1121 0.8613 1.0811
C16 C 0.9439(4) 0.8797(3) 0.9714(3)
H23 H 0.8960 0.8803 1.0029
C17 C -0.2465(3) 0.7904(2) 0.2043(2)
C18 C -0.1340(3) 0.8372(3) 0.2715(3)
H24 H -0.1004 0.8076 0.3294
H25 H -0.1610 0.8921 0.2811
C19 C 0.4866(3) 0.6705(2) 0.4683(2)
C20 C 0.4466(4) 0.5914(2) 0.4113(3)
H26 H 0.5066 0.5794 0.3882
H27 H 0.3660 0.6012 0.3591
C21 C 0.4365(3) 0.5147(2) 0.4638(3)
H28 H 0.3840 0.5285 0.4928
H29 H 0.3965 0.4693 0.4210
H1_2 H -0.572(5) 0.990(3) 0.542(4)
H2_2 H -0.478(5) 0.999(3) 0.626(4)
Sm1_2 Sm -0.445676(14) 0.823072(10) 0.580272(11)
Sm1C Sm -0.445676(14) 0.676928(10) 0.080272(11)
Sm1_3 Sm 1.554324(14) 0.823072(10) 0.580272(11)
Sm1B Sm 0.445676(14) 0.176928(10) 0.419728(11)
Sm1C_2 Sm 1.554324(14) 0.676928(10) 1.080272(11)
Sm1C_3 Sm 0.554324(14) 0.676928(10) 0.080272(11)
Sm2B Sm 0.455170(14) 0.216190(10) 0.691440(11)
Sm2_2 Sm -0.455170(14) 0.783810(10) 0.308560(11)
Sm2C Sm 0.544830(14) 0.716190(10) 0.808560(11)
Sm2C_2 Sm 1.544830(14) 0.716190(10) 0.808560(11)
S1C S 0.72544(7) 0.59233(5) 0.31864(6)
O1_2 O -0.3280(2) 0.90080(14) 0.52422(16)
O2B O 0.4644(2) 0.26967(14) 0.55664(15)
O2_2 O -0.4644(2) 0.73033(14) 0.44336(15)
O3B O 0.5307(2) 0.32066(15) 0.46261(17)
O3_2 O -0.5307(2) 0.67934(15) 0.53739(17)
O4C O 1.3564(2) 0.64889(16) 0.94800(15)
O4_2 O -0.6436(2) 0.85111(16) 0.44800(15)
O5_2 O -0.5219(3) 0.96557(16) 0.5850(2)
O6C O 0.6610(2) 0.71863(15) 0.72172(16)
O6_2 O 0.6610(2) 0.78137(15) 0.22172(16)
O6C_2 O -0.3390(2) 0.71863(15) 0.72172(16)
O6B O 0.3390(2) 0.21863(15) 0.77828(16)
O7C O 0.7512(2) 0.74219(16) 0.63419(17)
O7C_2 O -0.2488(2) 0.74219(16) 0.63419(17)
O8C O 0.6928(2) 0.60009(16) 0.22190(16)
O8_2 O -0.3072(2) 0.89991(16) 0.72190(16)
O9C O 0.7052(2) 0.50935(16) 0.34437(19)
O10C O 0.6661(2) 0.65639(16) 0.34977(17)
O10A O 0.3339(2) 0.34361(16) 0.65023(17)
O11_2 O -0.2746(2) 0.85294(17) 0.41932(17)
O11B O 0.2746(2) 0.14706(17) 0.58068(17)
O12C O 1.4175(2) 0.62204(14) 0.84100(16)
O12B O 0.5825(2) 0.12204(14) 0.65900(16)
O13B O 0.5305(3) 0.11005(17) 0.80781(19)
H3B H 0.5845 0.0821 0.8028
H4B H 0.5324 0.1164 0.8569
O14_2 O 0.3359(2) 0.78552(16) 0.74362(16)
O14C O 0.3359(2) 0.71448(16) 0.24362(16)
O14A O 0.6641(2) 0.28552(16) 0.75638(16)
O15_2 O 0.4352(2) 0.80251(15) 0.66187(16)
O15C O 0.4352(2) 0.69749(15) 0.16187(16)
O15_3 O -0.5648(2) 0.80251(15) 0.66187(16)
O15A O 0.5648(2) 0.30251(15) 0.83813(16)
C1C C 1.3333(3) 0.6331(2) 0.8674(2)
C2C C 1.1993(3) 0.6265(3) 0.7943(2)
H5C H 1.1862 0.6688 0.7483
H6C H 1.1888 0.5722 0.7650
C3C C 1.0974(3) 0.6363(3) 0.8241(3)
H7C H 1.1179 0.6832 0.8662
H8C H 1.0943 0.5861 0.8565
C4C C 0.9702(3) 0.6509(3) 0.7446(3)
H9C H 0.9744 0.7003 0.7116
H10C H 0.9497 0.6035 0.7033
C5_2 C 0.3365(3) 0.8123(2) 0.6717(2)
C6_2 C 0.2237(3) 0.8513(3) 0.5961(3)
H11_2 H 0.1940 0.8147 0.5432
H12_2 H 0.2484 0.9039 0.5792
C7_2 C 0.1161(3) 0.8683(3) 0.6189(3)
H13_2 H 0.1140 0.8238 0.6585
H14_2 H 0.1328 0.9204 0.6530
C8_2 C -0.0114(3) 0.8743(3) 0.5374(2)
H15_2 H -0.0110 0.9192 0.4975
H16_2 H -0.0299 0.8223 0.5031
C9_2 C -0.1120(3) 0.8912(3) 0.5667(2)
H17_2 H -0.1012 0.9483 0.5895
H18_2 H -0.0968 0.8545 0.6178
C10_2 C -0.2475(3) 0.8809(2) 0.4973(2)
C11C C 0.8886(3) 0.6101(2) 0.3785(2)
C12C C 0.9584(4) 0.6115(3) 0.3323(3)
H19C H 0.9206 0.6042 0.2692
C13C C 1.0875(4) 0.6240(4) 0.3805(4)
H20C H 1.1357 0.6263 0.3493
C14C C 1.1425(4) 0.6328(4) 0.4719(4)
H21C H 1.2288 0.6396 0.5037
C15C C 1.0732(5) 0.6318(4) 0.5179(4)
H22C H 1.1121 0.6387 0.5811
C16C C 0.9439(4) 0.6203(3) 0.4714(3)
H23C H 0.8960 0.6197 0.5029
C17C C 0.7535(3) 0.7096(2) 0.7043(2)
C18C C 0.8660(3) 0.6628(3) 0.7715(3)
H24C H 0.8996 0.6924 0.8294
H25C H 0.8390 0.6079 0.7811
C19B C 0.5134(3) 0.3295(2) 0.5317(2)
C20B C 0.5534(4) 0.4086(2) 0.5887(3)
H26B H 0.4934 0.4206 0.6118
H27B H 0.6340 0.3988 0.6409
C21B C 0.5635(3) 0.4853(2) 0.5362(3)
H28B H 0.6160 0.4715 0.5072
H29B H 0.6035 0.5307 0.5790
loop_
_geom_bond_atom_site_label_1
_geom_bond_atom_site_label_2
_geom_bond_site_symmetry_1
_geom_bond_site_symmetry_2
H1 O5 1_555 1_555
H2 O5 1_555 1_555
Sm1 O1 1_555 1_555
Sm2 O2 1_555 1_555
S1 O8 1_555 1_555
O1 C10 1_555 1_555
O2 Sm1 1_555 1_555
O3 Sm1 1_555 1_555
O4 Sm1 1_555 1_555
O5 Sm1 1_555 1_555
O6 C17 1_555 1_555
O7 C17 1_555 1_555
O8 Sm1 1_555 1_555
O9 S1 1_555 1_555
O10 S1 1_555 1_555
O11 Sm2 1_555 1_555
O12 Sm2 1_555 1_555
O13 Sm2 1_555 1_555
H3 O13 1_555 1_555
H4 O13 1_555 1_555
O14 C5 1_555 1_555
O15 C5 1_555 1_555
C1 O4 1_555 1_555
C2 C1 1_555 1_555
H5 C2 1_555 1_555
H6 C2 1_555 1_555
C3 C2 1_555 1_555
H7 C3 1_555 1_555
H8 C3 1_555 1_555
C4 C3 1_555 1_555
H9 C4 1_555 1_555
H10 C4 1_555 1_555
C5 C6 1_555 1_555
C6 H11 1_555 1_555
H12 C6 1_555 1_555
C7 C6 1_555 1_555
H13 C7 1_555 1_555
H14 C7 1_555 1_555
C8 C7 1_555 1_555
H15 C8 1_555 1_555
H16 C8 1_555 1_555
C9 C8 1_555 1_555
H17 C9 1_555 1_555
H18 C9 1_555 1_555
C10 O11 1_555 1_555
C11 S1 1_555 1_555
C12 C11 1_555 1_555
H19 C12 1_555 1_555
C13 C12 1_555 1_555
H20 C13 1_555 1_555
C14 C13 1_555 1_555
H21 C14 1_555 1_555
C15 C14 1_555 1_555
H22 C15 1_555 1_555
C16 C11 1_555 1_555
H23 C16 1_555 1_555
C17 C18 1_555 1_555
C18 C4 1_555 1_555
H24 C18 1_555 1_555
H25 C18 1_555 1_555
C19 O2 1_555 1_555
C20 C19 1_555 1_555
H26 C20 1_555 1_555
H27 C20 1_555 1_555
C21 C20 1_555 1_555
H28 C21 1_555 1_555
H29 C21 1_555 1_555
H1_2 O5_2 1_555 1_555
H2_2 O5_2 1_555 1_555
Sm1_2 O1_2 1_555 1_555
Sm1C O6 1_555 1_555
Sm1_3 O15 1_555 1_555
Sm1B O2B 1_555 1_555
Sm1C_2 O4C 1_555 1_555
Sm1C_3 O6_2 1_555 1_555
Sm2B O2B 1_555 1_555
Sm2_2 O6 1_555 1_555
Sm2C O10 1_555 1_555
Sm2C_2 O14 1_555 1_555
S1C O8C 1_555 1_555
O1_2 C10_2 1_555 1_555
O2B C19B 1_555 1_555
O2_2 Sm1_2 1_555 1_555
O3B Sm1B 1_555 1_555
O3_2 Sm1_2 1_555 1_555
O4C C1C 1_555 1_555
O4_2 Sm1_2 1_555 1_555
O5_2 Sm1_2 1_555 1_555
O6C Sm1 1_555 1_555
O6_2 Sm2 1_555 1_555
O6C_2 Sm1_2 1_555 1_555
O6B Sm2B 1_555 1_555
O7C Sm1 1_555 1_555
O7C_2 Sm1_2 1_555 1_555
O8C Sm1C_3 1_555 1_555
O8_2 Sm1_2 1_555 1_555
O9C S1C 1_555 1_555
O10C Sm2 1_555 1_555
O10A Sm2B 1_555 1_555
O11_2 Sm2_2 1_555 1_555
O11B Sm2B 1_555 1_555
O12C Sm2C_2 1_555 1_555
O12B Sm2B 1_555 1_555
O13B Sm2B 1_555 1_555
H3B O13B 1_555 1_555
H4B O13B 1_555 1_555
O14_2 Sm2C 1_555 1_555
O14C Sm2 1_555 1_555
O14A Sm2B 1_555 1_555
O15_2 Sm1 1_555 1_555
O15C Sm2 1_555 1_555
O15_3 Sm1_2 1_555 1_555
O15A Sm2B 1_555 1_555
C1C O12C 1_555 1_555
C2C C1C 1_555 1_555
H5C C2C 1_555 1_555
H6C C2C 1_555 1_555
C3C C2C 1_555 1_555
H7C C3C 1_555 1_555
H8C C3C 1_555 1_555
C4C C3C 1_555 1_555
H9C C4C 1_555 1_555
H10C C4C 1_555 1_555
C5_2 O14_2 1_555 1_555
C6_2 C5_2 1_555 1_555
H11_2 C6_2 1_555 1_555
H12_2 C6_2 1_555 1_555
C7_2 C6_2 1_555 1_555
H13_2 C7_2 1_555 1_555
H14_2 C7_2 1_555 1_555
C8_2 C7_2 1_555 1_555
H15_2 C8_2 1_555 1_555
H16_2 C8_2 1_555 1_555
C9_2 C8_2 1_555 1_555
H17_2 C9_2 1_555 1_555
H18_2 C9_2 1_555 1_555
C10_2 O11_2 1_555 1_555
C11C S1C 1_555 1_555
C12C C11C 1_555 1_555
H19C C12C 1_555 1_555
C13C C12C 1_555 1_555
H20C C13C 1_555 1_555
C14C C13C 1_555 1_555
H21C C14C 1_555 1_555
C15C C14C 1_555 1_555
H22C C15C 1_555 1_555
C16C C11C 1_555 1_555
H23C C16C 1_555 1_555
C17C O6C 1_555 1_555
C18C C4C 1_555 1_555
H24C C18C 1_555 1_555
H25C C18C 1_555 1_555
C19B O3B 1_555 1_555
C20B C19B 1_555 1_555
H26B C20B 1_555 1_555
H27B C20B 1_555 1_555
C21B C21 1_555 1_555
H28B C21B 1_555 1_555
H29B C21B 1_555 1_555
O3 C19 1_555 1_555
O7 Sm1C 1_555 1_555
O12 C1 1_555 1_555
O15 Sm2C_2 1_555 1_555
C9 C10 1_555 1_555
C15 C16 1_555 1_555
Sm1C_3 O15C 1_555 1_555
Sm2_2 O2_2 1_555 1_555
Sm2C O6C 1_555 1_555
Sm2C O15_2 1_555 1_555
S1C O10C 1_555 1_555
O7C C17C 1_555 1_555
O15_2 C5_2 1_555 1_555
C9_2 C10_2 1_555 1_555
C15C C16C 1_555 1_555
C17C C18C 1_555 1_555
C20B C21B 1_555 1_555

#END
