
#######################################################################
#
#                 Cambridge Crystallographic Data Centre
#                                CCDC 
#
#######################################################################
#
# If this CIF has been generated from an entry in the Cambridge 
# Structural Database, then it will include bibliographic, chemical, 
# crystal, experimental, refinement or atomic coordinate data resulting 
# from the CCDC's data processing and validation procedures.
#
#######################################################################

data_PACZIE
_symmetry_cell_setting           monoclinic
_symmetry_space_group_name_H-M   'P 21/c'
_symmetry_Int_Tables_number      14
_space_group_name_Hall           '-P 2ybc'
loop_
_symmetry_equiv_pos_site_id
_symmetry_equiv_pos_as_xyz
1 x,y,z
2 -x,1/2+y,1/2-z
3 -x,-y,-z
4 x,1/2-y,1/2+z
_cell_length_a                   12.010(2)
_cell_length_b                   16.002(3)
_cell_length_c                   16.475(6)
_cell_angle_alpha                90
_cell_angle_beta                 116.89(2)
_cell_angle_gamma                90
_cell_volume                     2823.89
loop_
_atom_site_label
_atom_site_type_symbol
_atom_site_fract_x
_atom_site_fract_y
_atom_site_fract_z
Nd1 Nd -0.04534(8) 0.28428(5) 0.19107(6)
Nd2 Nd -0.05422(8) 0.32341(5) -0.08012(5)
S1 S -0.2269(4) 0.0918(2) 0.1810(3)
O1 O -0.0345(10) 0.2288(6) 0.0562(7)
O2 O -0.2284(12) 0.3544(7) 0.0800(7)
O3 O -0.1669(12) 0.1548(6) 0.1507(8)
O4 O -0.1629(11) 0.2181(6) -0.2212(7)
O5 O 0.0656(11) 0.3016(6) -0.1624(7)
O6 O 0.1647(11) 0.2857(7) -0.2446(7)
O7 O 0.0334(13) 0.3908(7) 0.3108(8)
H1 H 0.0860 0.4195 0.3051
H2 H -0.0399 0.3706 0.2838
O8 O 0.0847(10) 0.3776(6) 0.1588(7)
O9 O -0.1935(12) 0.4013(6) -0.2222(7)
O10 O -0.2060(13) 0.0091(6) 0.1560(9)
O11 O -0.2525(11) 0.2420(6) -0.1336(7)
O12 O 0.0258(11) 0.4668(6) -0.0843(8)
H3 H -0.0333 0.4981 -0.1125
H4 H 0.0866 0.4985 -0.0517
O13 O 0.1474(11) 0.3512(6) 0.0538(7)
O14 O 0.0338(12) 0.1782(6) -0.0362(7)
O15 O -0.1745(11) 0.4011(6) -0.0235(8)
C1 C 0.2992(15) 0.3733(10) 0.2061(11)
H5 H 0.3096 0.3300 0.2502
H6 H 0.3086 0.4268 0.2363
C2 C 0.1718(16) 0.3673(9) 0.1334(10)
C3 C 0.0522(18) 0.0920(9) 0.0870(12)
H7 H 0.1321 0.1013 0.1396
H8 H -0.0086 0.0806 0.1092
C4 C 0.4026(16) 0.3630(10) 0.1772(11)
H9 H 0.3820 0.3177 0.1338
H10 H 0.4068 0.4140 0.1468
C5 C -0.2519(18) 0.2091(10) -0.2037(11)
C6 C -0.2554(17) 0.3825(9) 0.0022(11)
C7 C 0.0152(17) 0.1694(9) 0.0321(11)
C8 C -0.4898(17) 0.3731(11) -0.0380(12)
H11 H -0.4734 0.3217 -0.0033
H12 H -0.4921 0.4185 0.0003
C9 C 0.6329(17) 0.3375(11) 0.2286(12)
H13 H 0.6170 0.3567 0.1710
H14 H 0.6062 0.2882 0.1908
C10 C 0.1621(16) 0.3119(9) -0.1722(10)
C11 C -0.3848(18) 0.3917(11) -0.0643(13)
H15 H -0.4071 0.4036 -0.1245
H16 H -0.381(18) 0.341(4) -0.079(12)
C12 C -0.6176(17) 0.3672(11) -0.1208(12)
H17 H -0.6149 0.3215 -0.1586
H18 H -0.6328 0.4183 -0.1558
C13 C -0.7232(16) 0.3522(10) -0.0971(11)
H19 H -0.7476 0.4056 -0.0823
H20 H -0.6936 0.3175 -0.0431
C14 C 0.5275(16) 0.3481(10) 0.2558(11)
H21 H 0.5488 0.3941 0.2985
H22 H 0.5224 0.2980 0.2870
C15 C 0.0627(16) 0.0143(9) 0.0360(11)
H23 H 0.1162 0.0275 0.0079
H24 H 0.1020 -0.0306 0.0792
C16 C -0.639(2) 0.1328(13) 0.0273(15)
H25 H -0.7248 0.1407 -0.0057
C17 C -0.387(2) 0.1100(12) 0.1228(14)
C18 C -0.582(2) 0.1222(13) 0.1221(15)
H26 H -0.6305 0.1252 0.1525
C19 C -0.443(2) 0.1190(13) 0.0296(15)
H27 H -0.3951 0.1186 -0.0014
C20 C -0.572(2) 0.1290(13) -0.0162(15)
H28 H -0.6086 0.1350 -0.0791
C21 C -0.458(2) 0.1090(12) 0.1682(15)
H29 H -0.4226 0.0998 0.2306
Nd1C Nd -0.04534(8) 0.21572(5) -0.30893(6)
Nd1C_2 Nd -1.04534(8) 0.21572(5) -0.30893(6)
Nd1_2 Nd 0.95466(8) 0.28428(5) 0.19107(6)
Nd1B Nd 0.04534(8) -0.28428(5) -0.19107(6)
Nd2C Nd -0.05422(8) 0.17659(5) 0.41988(5)
Nd2_2 Nd -1.05422(8) 0.32341(5) -0.08012(5)
Nd2C_2 Nd 0.94578(8) 0.17659(5) 0.41988(5)
Nd2B Nd 0.05422(8) -0.32341(5) 0.08012(5)
Nd2C_3 Nd -1.05422(8) 0.17659(5) -0.58012(5)
Nd2_3 Nd 0.94578(8) 0.32341(5) -0.08012(5)
S1C S -0.2269(4) 0.4082(2) -0.3190(3)
O1B O 0.0345(10) -0.2288(6) -0.0562(7)
O1_2 O 0.9655(10) 0.2288(6) 0.0562(7)
O2_2 O 0.7716(12) 0.3544(7) 0.0800(7)
O2B O 0.2284(12) -0.3544(7) -0.0800(7)
O3C O -0.1669(12) 0.3452(6) -0.3493(8)
O3B O 0.1669(12) -0.1548(6) -0.1507(8)
O4C O -0.1629(11) 0.2819(6) 0.2788(7)
O4C_2 O 0.8371(11) 0.2819(6) 0.2788(7)
O4A O 0.1629(11) -0.2819(6) -0.2788(7)
O4_2 O 0.8371(11) 0.2181(6) -0.2212(7)
O5C O 0.0656(11) 0.1984(6) 0.3376(7)
O5_2 O -0.9344(11) 0.3016(6) -0.1624(7)
O5A O -0.0656(11) -0.1984(6) -0.3376(7)
O5_3 O 1.0656(11) 0.3016(6) -0.1624(7)
O6C O 0.1647(11) 0.2143(7) 0.2554(7)
O6_2 O -0.8353(11) 0.2857(7) -0.2446(7)
O6A O -0.1647(11) -0.2143(7) -0.2554(7)
O7B O -0.0334(13) -0.3908(7) -0.3108(8)
H1B H -0.0860 -0.4195 -0.3051
H2B H 0.0399 -0.3706 -0.2838
O8C O -0.9153(10) 0.1224(6) -0.3412(7)
O8B O -0.0847(10) -0.3776(6) -0.1588(7)
O9C O -0.1935(12) 0.0987(6) 0.2778(7)
O9_2 O 0.8065(12) 0.4013(6) -0.2222(7)
O10C O -0.2060(13) 0.4909(6) -0.3440(9)
O11C O 0.7475(11) 0.2580(6) 0.3664(7)
O11_2 O 0.7475(11) 0.2420(6) -0.1336(7)
O12_2 O 1.0258(11) 0.4668(6) -0.0843(8)
H3_2 H 0.9667 0.4981 -0.1125
H4_2 H 1.0866 0.4985 -0.0517
O13C O -0.8526(11) 0.1488(6) -0.4462(7)
O13_2 O 1.1474(11) 0.3512(6) 0.0538(7)
O14B O -0.0338(12) -0.1782(6) 0.0362(7)
O14_2 O 1.0338(12) 0.1782(6) -0.0362(7)
O15_2 O 0.8255(11) 0.4011(6) -0.0235(8)
C1C C -0.7008(15) 0.1267(10) -0.2939(11)
H5C H -0.6904 0.1700 -0.2498
H6C H -0.6914 0.0732 -0.2637
C2C C -0.8282(16) 0.1327(9) -0.3666(10)
C3B C -0.0522(18) -0.0920(9) -0.0870(12)
H7B H -0.1321 -0.1013 -0.1396
H8B H 0.0086 -0.0806 -0.1092
C4C C -0.5974(16) 0.1370(10) -0.3228(11)
H9C H -0.6180 0.1823 -0.3662
H10C H -0.5932 0.0860 -0.3532
C5C C 0.7481(18) 0.2909(10) 0.2963(11)
C6_2 C 0.7446(17) 0.3825(9) 0.0022(11)
C7B C -0.0152(17) -0.1694(9) -0.0321(11)
C8_2 C 0.5102(17) 0.3731(11) -0.0380(12)
H11_2 H 0.5266 0.3217 -0.0033
H12_2 H 0.5079 0.4185 0.0003
C9C C -0.3671(17) 0.1625(11) -0.2714(12)
H13C H -0.3830 0.1433 -0.3290
H14C H -0.3938 0.2118 -0.3092
C10_2 C -0.8379(16) 0.3119(9) -0.1722(10)
C11_2 C 0.6152(18) 0.3917(11) -0.0643(13)
H15_2 H 0.5929 0.4036 -0.1245
H16_2 H 0.619(18) 0.341(4) -0.079(12)
C12_2 C 0.3824(17) 0.3672(11) -0.1208(12)
H17_2 H 0.3851 0.3215 -0.1586
H18_2 H 0.3672 0.4183 -0.1558
C13_2 C 0.2768(16) 0.3522(10) -0.0971(11)
H19_2 H 0.2524 0.4056 -0.0823
H20_2 H 0.3064 0.3175 -0.0431
C14C C -0.4725(16) 0.1519(10) -0.2442(11)
H21C H -0.4512 0.1059 -0.2015
H22C H -0.4776 0.2020 -0.2130
C15B C -0.0627(16) -0.0143(9) -0.0360(11)
H23B H -0.1162 -0.0275 -0.0079
H24B H -0.1020 0.0306 -0.0792
C16C C -0.639(2) 0.3672(13) -0.4727(15)
H25C H -0.7248 0.3593 -0.5057
C17C C -0.387(2) 0.3900(12) -0.3772(14)
C18C C -0.582(2) 0.3778(13) -0.3779(15)
H26C H -0.6305 0.3748 -0.3475
C19C C -0.443(2) 0.3810(13) -0.4704(15)
H27C H -0.3951 0.3814 -0.5014
C20C C -0.572(2) 0.3710(13) -0.5162(15)
H28C H -0.6086 0.3650 -0.5791
C21C C -0.458(2) 0.3910(12) -0.3318(15)
H29C H -0.4226 0.4002 -0.2694
loop_
_geom_bond_atom_site_label_1
_geom_bond_atom_site_label_2
_geom_bond_site_symmetry_1
_geom_bond_site_symmetry_2
Nd1 O1 1_555 1_555
Nd2 O1 1_555 1_555
S1 O3 1_555 1_555
O1 C7 1_555 1_555
O2 Nd1 1_555 1_555
O3 Nd1 1_555 1_555
O4 Nd2 1_555 1_555
O5 Nd2 1_555 1_555
O6 C10 1_555 1_555
O7 Nd1 1_555 1_555
H1 O7 1_555 1_555
H2 O7 1_555 1_555
O8 Nd1 1_555 1_555
O9 Nd2 1_555 1_555
O10 S1 1_555 1_555
O11 Nd2 1_555 1_555
O12 Nd2 1_555 1_555
H3 O12 1_555 1_555
H4 O12 1_555 1_555
O13 Nd2 1_555 1_555
O14 Nd2 1_555 1_555
O15 Nd2 1_555 1_555
C1 H5 1_555 1_555
H6 C1 1_555 1_555
C2 O8 1_555 1_555
C3 H7 1_555 1_555
H8 C3 1_555 1_555
C4 C1 1_555 1_555
H9 C4 1_555 1_555
H10 C4 1_555 1_555
C5 O4 1_555 1_555
C6 O2 1_555 1_555
C7 O14 1_555 1_555
C8 H11 1_555 1_555
H12 C8 1_555 1_555
C9 H13 1_555 1_555
H14 C9 1_555 1_555
C10 O5 1_555 1_555
C11 C6 1_555 1_555
H15 C11 1_555 1_555
H16 C11 1_555 1_555
C12 C8 1_555 1_555
H17 C12 1_555 1_555
H18 C12 1_555 1_555
C13 C12 1_555 1_555
H19 C13 1_555 1_555
H20 C13 1_555 1_555
C14 C4 1_555 1_555
H21 C14 1_555 1_555
H22 C14 1_555 1_555
C15 C3 1_555 1_555
H23 C15 1_555 1_555
H24 C15 1_555 1_555
C16 H25 1_555 1_555
C17 S1 1_555 1_555
C18 C16 1_555 1_555
H26 C18 1_555 1_555
C19 C17 1_555 1_555
H27 C19 1_555 1_555
C20 C16 1_555 1_555
H28 C20 1_555 1_555
C21 C17 1_555 1_555
H29 C21 1_555 1_555
Nd1C O4 1_555 1_555
Nd1C_2 O5_2 1_555 1_555
Nd1_2 O1_2 1_555 1_555
Nd1B O1B 1_555 1_555
Nd2C O4C 1_555 1_555
Nd2_2 O5_2 1_555 1_555
Nd2C_2 O4C_2 1_555 1_555
Nd2B O1B 1_555 1_555
Nd2C_3 O13C 1_555 1_555
Nd2_3 O1_2 1_555 1_555
S1C O9 1_555 1_555
O1B C7B 1_555 1_555
O2_2 Nd1_2 1_555 1_555
O2B Nd1B 1_555 1_555
O3C Nd1C 1_555 1_555
O3B Nd1B 1_555 1_555
O4C Nd1 1_555 1_555
O4C_2 Nd1_2 1_555 1_555
O4A Nd1B 1_555 1_555
O4_2 Nd2_3 1_555 1_555
O5C Nd1 1_555 1_555
O5_2 C10_2 1_555 1_555
O5A Nd1B 1_555 1_555
O5_3 Nd2_3 1_555 1_555
O6C Nd1 1_555 1_555
O6_2 Nd1C_2 1_555 1_555
O6A Nd1B 1_555 1_555
O7B Nd1B 1_555 1_555
H1B O7B 1_555 1_555
H2B O7B 1_555 1_555
O8C Nd1C_2 1_555 1_555
O8B Nd1B 1_555 1_555
O9C S1 1_555 1_555
O9_2 Nd2_3 1_555 1_555
O10C S1C 1_555 1_555
O11C Nd2C_2 1_555 1_555
O11_2 Nd2_3 1_555 1_555
O12_2 Nd2_3 1_555 1_555
H3_2 O12_2 1_555 1_555
H4_2 O12_2 1_555 1_555
O13C C2C 1_555 1_555
O13_2 Nd2_3 1_555 1_555
O14B Nd2B 1_555 1_555
O14_2 Nd2_3 1_555 1_555
O15_2 Nd2_3 1_555 1_555
C1C H5C 1_555 1_555
H6C C1C 1_555 1_555
C2C O8C 1_555 1_555
C3B H7B 1_555 1_555
H8B C3B 1_555 1_555
C4C C1C 1_555 1_555
H9C C4C 1_555 1_555
H10C C4C 1_555 1_555
C5C C9 1_555 1_555
C6_2 O2_2 1_555 1_555
C7B O14B 1_555 1_555
C8_2 H11_2 1_555 1_555
H12_2 C8_2 1_555 1_555
C9C C5 1_555 1_555
H13C C9C 1_555 1_555
H14C C9C 1_555 1_555
C10_2 C13 1_555 1_555
C11_2 C6_2 1_555 1_555
H15_2 C11_2 1_555 1_555
H16_2 C11_2 1_555 1_555
C12_2 C8_2 1_555 1_555
H17_2 C12_2 1_555 1_555
H18_2 C12_2 1_555 1_555
C13_2 C10 1_555 1_555
H19_2 C13_2 1_555 1_555
H20_2 C13_2 1_555 1_555
C14C C4C 1_555 1_555
H21C C14C 1_555 1_555
H22C C14C 1_555 1_555
C15B C15 1_555 1_555
H23B C15B 1_555 1_555
H24B C15B 1_555 1_555
C16C H25C 1_555 1_555
C17C S1C 1_555 1_555
C18C C16C 1_555 1_555
H26C C18C 1_555 1_555
C19C C17C 1_555 1_555
H27C C19C 1_555 1_555
C20C C16C 1_555 1_555
H28C C20C 1_555 1_555
C21C C17C 1_555 1_555
H29C C21C 1_555 1_555
O5 Nd1C 1_555 1_555
O6 Nd1C 1_555 1_555
O11 C5 1_555 1_555
O13 C2 1_555 1_555
O15 C6 1_555 1_555
C1 C2 1_555 1_555
C3 C7 1_555 1_555
C8 C11 1_555 1_555
C9 C14 1_555 1_555
C18 C21 1_555 1_555
C19 C20 1_555 1_555
Nd2C O5C 1_555 1_555
Nd2C O9C 1_555 1_555
S1C O3C 1_555 1_555
O4C_2 C5C 1_555 1_555
O6_2 C10_2 1_555 1_555
O11C C5C 1_555 1_555
O15_2 C6_2 1_555 1_555
C1C C2C 1_555 1_555
C3B C7B 1_555 1_555
C3B C15B 1_555 1_555
C8_2 C11_2 1_555 1_555
C9C C14C 1_555 1_555
C12_2 C13_2 1_555 1_555
C18C C21C 1_555 1_555
C19C C20C 1_555 1_555

#END
