
#######################################################################
#
#                 Cambridge Crystallographic Data Centre
#                                CCDC 
#
#######################################################################
#
# If this CIF has been generated from an entry in the Cambridge 
# Structural Database, then it will include bibliographic, chemical, 
# crystal, experimental, refinement or atomic coordinate data resulting 
# from the CCDC's data processing and validation procedures.
#
#######################################################################

data_PADBIH
_symmetry_cell_setting           monoclinic
_symmetry_space_group_name_H-M   'P 21/n'
_symmetry_Int_Tables_number      14
_space_group_name_Hall           '-P 2yn'
loop_
_symmetry_equiv_pos_site_id
_symmetry_equiv_pos_as_xyz
1 x,y,z
2 1/2-x,1/2+y,1/2-z
3 -x,-y,-z
4 1/2+x,1/2-y,1/2+z
_cell_length_a                   9.282(2)
_cell_length_b                   23.910(5)
_cell_length_c                   13.884(3)
_cell_angle_alpha                90
_cell_angle_beta                 103.424(3)
_cell_angle_gamma                90
_cell_volume                     2997.13
loop_
_atom_site_label
_atom_site_type_symbol
_atom_site_fract_x
_atom_site_fract_y
_atom_site_fract_z
Cd1 Cd 0.20565(4) 0.209305(15) 0.26273(3)
N1 N 0.1199(4) 0.27390(17) 0.1423(3)
N2 N 0.0568(4) 0.32297(18) 0.0040(3)
H1 H 0.0517 0.3333 -0.0561
N3 N 0.7838(4) 0.22932(16) -0.1121(3)
N4 N 0.8474(5) 0.18466(18) 0.0318(3)
H2 H 0.8508 0.1761 0.0924
O1 O 0.3049(4) 0.14972(16) 0.1752(3)
O2 O 0.4949(4) 0.17126(15) 0.2965(3)
O3 O 0.9211(4) 0.17318(16) 0.2397(3)
O4 O 1.1186(4) 0.14186(15) 0.3451(3)
C1 C 0.4394(6) 0.1461(2) 0.2174(4)
C2 C 0.5338(5) 0.11054(19) 0.1656(3)
C3 C 0.4772(6) 0.1005(2) 0.0653(4)
H3 H 0.3833 0.1137 0.0353
C4 C 0.5565(6) 0.0714(2) 0.0091(4)
H4 H 0.5161 0.0651 -0.0578
C5 C 0.6964(6) 0.0518(2) 0.0529(4)
H5 H 0.7513 0.0325 0.0155
C6 C 0.7536(6) 0.0610(2) 0.1514(4)
H6 H 0.8480 0.0478 0.1801
C7 C 0.6749(5) 0.08966(19) 0.2107(4)
C8 C 0.7404(5) 0.08978(19) 0.3190(4)
C9 C 0.6629(6) 0.0613(2) 0.3797(4)
H7 H 0.5657 0.0503 0.3528
C10 C 0.7250(6) 0.0490(2) 0.4775(4)
H8 H 0.6698 0.0307 0.5160
C11 C 0.8710(7) 0.0641(2) 0.5180(4)
H9 H 0.9155 0.0551 0.5833
C12 C 0.9494(6) 0.0927(2) 0.4601(4)
H10 H 1.0471 0.1027 0.4873
C13 C 0.8866(5) 0.1067(2) 0.3630(4)
C14 C 0.9781(6) 0.1422(2) 0.3089(4)
C15 C 0.0226(5) 0.3167(2) 0.1548(4)
C16 C -0.0319(6) 0.3308(2) 0.2366(4)
H11 H -0.0053 0.3108 0.2955
C17 C -0.1271(6) 0.3759(2) 0.2269(4)
H12 H -0.1668 0.3857 0.2802
C18 C -0.1654(6) 0.4068(2) 0.1410(5)
H13 H -0.2285 0.4373 0.1384
C19 C -0.1119(6) 0.3935(2) 0.0577(4)
H14 H -0.1382 0.4139 -0.0009
C20 C -0.0162(5) 0.3476(2) 0.0684(4)
C21 C 0.1380(6) 0.2798(2) 0.0508(4)
C22 C 0.2387(6) 0.2471(2) 0.0030(4)
H15 H 0.2111 0.2527 -0.0681
H16 H 0.2294 0.2076 0.0162
C23 C 0.3993(6) 0.2658(2) 0.0434(4)
H17 H 0.4035 0.3063 0.0425
H18 H 0.4316 0.2537 0.1118
C24 C 0.5047(5) 0.2426(2) -0.0153(4)
H19 H 0.4720 0.2546 -0.0836
H20 H 0.4999 0.2020 -0.0145
C25 C 0.6646(5) 0.2606(2) 0.0238(4)
H21 H 0.6747 0.2997 0.0079
H22 H 0.6907 0.2568 0.0953
C26 C 0.7679(5) 0.2266(2) -0.0193(4)
C27 C 0.8809(5) 0.1858(2) -0.1202(4)
C28 C 0.9356(6) 0.1681(2) -0.2000(4)
H23 H 0.9085 0.1858 -0.2611
C29 C 1.0320(7) 0.1231(3) -0.1851(5)
H24 H 1.0702 0.1105 -0.2375
C30 C 1.0728(6) 0.0964(3) -0.0951(5)
H25 H 1.1382 0.0665 -0.0884
C31 C 1.0201(6) 0.1126(2) -0.0153(5)
H26 H 1.0481 0.0945 0.0455
C32 C 0.9227(6) 0.1575(2) -0.0297(4)
Cd1C Cd 0.70565(4) 0.290695(15) -0.23727(3)
Cd1_2 Cd 1.20565(4) 0.209305(15) 0.26273(3)
N3C N 0.2838(4) 0.27068(16) 0.3879(3)
O4_2 O 0.1186(4) 0.14186(15) 0.3451(3)
O5 O 0.2753(6) 0.0402(2) 0.3295(4)
H27 H 0.2252 0.0672 0.3379
C33 C 0.3014(8) -0.0334(4) 0.2272(6)
H28 H 0.3904 -0.0191 0.2121
H29 H 0.2511 -0.0571 0.1742
H30 H 0.3263 -0.0545 0.2876
C34 C 0.2061(9) 0.0126(3) 0.2387(6)
H31 H 0.1088 -0.0010 0.2416
H32 H 0.1952 0.0383 0.1834
loop_
_geom_bond_atom_site_label_1
_geom_bond_atom_site_label_2
_geom_bond_site_symmetry_1
_geom_bond_site_symmetry_2
Cd1 N1 1_555 1_555
N1 C15 1_555 1_555
N2 H1 1_555 1_555
N3 C26 1_555 1_555
N4 H2 1_555 1_555
O1 Cd1 1_555 1_555
O2 C1 1_555 1_555
O3 C14 1_555 1_555
O4 C14 1_555 1_555
C1 O1 1_555 1_555
C2 C1 1_555 1_555
C3 C2 1_555 1_555
H3 C3 1_555 1_555
C4 C3 1_555 1_555
H4 C4 1_555 1_555
C5 C4 1_555 1_555
H5 C5 1_555 1_555
C6 C5 1_555 1_555
H6 C6 1_555 1_555
C7 C2 1_555 1_555
C8 C7 1_555 1_555
C9 C8 1_555 1_555
H7 C9 1_555 1_555
C10 C9 1_555 1_555
H8 C10 1_555 1_555
C11 C10 1_555 1_555
H9 C11 1_555 1_555
C12 C11 1_555 1_555
H10 C12 1_555 1_555
C13 C8 1_555 1_555
C14 C13 1_555 1_555
C15 C16 1_555 1_555
C16 H11 1_555 1_555
C17 C16 1_555 1_555
H12 C17 1_555 1_555
C18 C17 1_555 1_555
H13 C18 1_555 1_555
C19 C18 1_555 1_555
H14 C19 1_555 1_555
C20 N2 1_555 1_555
C21 N1 1_555 1_555
C22 C21 1_555 1_555
H15 C22 1_555 1_555
H16 C22 1_555 1_555
C23 C22 1_555 1_555
H17 C23 1_555 1_555
H18 C23 1_555 1_555
C24 C23 1_555 1_555
H19 C24 1_555 1_555
H20 C24 1_555 1_555
C25 C24 1_555 1_555
H21 C25 1_555 1_555
H22 C25 1_555 1_555
C26 N4 1_555 1_555
C27 N3 1_555 1_555
C28 C27 1_555 1_555
H23 C28 1_555 1_555
C29 C28 1_555 1_555
H24 C29 1_555 1_555
C30 C29 1_555 1_555
H25 C30 1_555 1_555
C31 C30 1_555 1_555
H26 C31 1_555 1_555
C32 N4 1_555 1_555
O5 H27 1_555 1_555
C33 H28 1_555 1_555
H29 C33 1_555 1_555
H30 C33 1_555 1_555
C34 O5 1_555 1_555
H31 C34 1_555 1_555
H32 C34 1_555 1_555
Cd1C N3 1_555 1_555
Cd1_2 O4 1_555 1_555
N3C Cd1 1_555 1_555
O4_2 Cd1 1_555 1_555
N2 C21 1_555 1_555
C6 C7 1_555 1_555
C12 C13 1_555 1_555
C15 C20 1_555 1_555
C19 C20 1_555 1_555
C25 C26 1_555 1_555
C27 C32 1_555 1_555
C31 C32 1_555 1_555
C33 C34 1_555 1_555

#END
