
#######################################################################
#
#                 Cambridge Crystallographic Data Centre
#                                CCDC 
#
#######################################################################
#
# If this CIF has been generated from an entry in the Cambridge 
# Structural Database, then it will include bibliographic, chemical, 
# crystal, experimental, refinement or atomic coordinate data resulting 
# from the CCDC's data processing and validation procedures.
#
#######################################################################

data_PADBED
_symmetry_cell_setting           orthorhombic
_symmetry_space_group_name_H-M   'P b c a'
_symmetry_Int_Tables_number      61
_space_group_name_Hall           '-P 2ac 2ab'
loop_
_symmetry_equiv_pos_site_id
_symmetry_equiv_pos_as_xyz
1 x,y,z
2 1/2-x,-y,1/2+z
3 -x,1/2+y,1/2-z
4 1/2+x,1/2-y,-z
5 -x,-y,-z
6 1/2+x,y,1/2-z
7 x,1/2-y,1/2+z
8 1/2-x,1/2+y,z
_cell_length_a                   12.903(3)
_cell_length_b                   12.278(3)
_cell_length_c                   13.015(3)
_cell_angle_alpha                90
_cell_angle_beta                 90
_cell_angle_gamma                90
_cell_volume                     2061.88
loop_
_atom_site_label
_atom_site_type_symbol
_atom_site_fract_x
_atom_site_fract_y
_atom_site_fract_z
Pr1 Pr 0.04620(2) 0.739320(19) 0.504507(18)
C1 C 0.0545(4) 1.0111(4) 0.5231(3)
C2 C 0.0794(4) 0.8004(4) 0.2566(4)
C3 C -0.0094(4) 0.7169(4) 0.2535(4)
C4 C 0.1229(4) 0.4723(4) 0.4137(4)
C5 C 0.1606(5) 0.4693(5) 0.3023(4)
H1 H 0.1864 0.3969 0.2869
H2 H 0.1026 0.4839 0.2569
C6 C 0.2455(5) 0.5517(5) 0.2822(5)
H3 H 0.3013 0.5411 0.3311
H4 H 0.2183 0.6247 0.2916
O1 O 0.1106(3) 0.9301(3) 0.5411(3)
O2 O 0.1171(3) 0.8238(3) 0.3424(3)
O3 O -0.0435(3) 0.6857(3) 0.3391(3)
O4 O 0.2410(3) 0.7455(3) 0.5178(3)
O5 O 0.1190(3) 0.5619(3) 0.4595(3)
O6 O 0.0989(3) 0.3830(3) 0.4559(3)
O7 O -0.0389(3) 0.6860(3) 0.1673(3)
O8 O 0.1081(3) 0.8393(4) 0.1714(3)
O9 O 0.0794(3) 1.1090(3) 0.5386(3)
N1 N 0.2881(3) 0.5399(4) 0.1718(4)
Pr1D Pr -0.04620(2) 1.260680(19) 0.495493(18)
Pr1D_2 Pr -0.04620(2) 0.260680(19) 0.495493(18)
Pr1F Pr 0.04620(2) 0.760680(19) 0.004507(18)
Pr1F_2 Pr 0.04620(2) 0.760680(19) 1.004507(18)
C1D C -0.0545(4) 0.9889(4) 0.4769(3)
C2F C 0.0794(4) 0.6996(4) 0.7566(4)
C3F C -0.0094(4) 0.7831(4) 0.7535(4)
C4D C -0.1229(4) 0.5277(4) 0.5863(4)
C5D C -0.1606(5) 0.5307(5) 0.6977(4)
H1D H -0.1864 0.6031 0.7131
H2D H -0.1026 0.5161 0.7431
C6D C -0.2455(5) 0.4483(5) 0.7178(5)
H3D H -0.3013 0.4589 0.6689
H4D H -0.2183 0.3753 0.7084
O1D O -0.1106(3) 1.0699(3) 0.4589(3)
O2F O 0.1171(3) 0.6762(3) 0.8424(3)
O2D O -0.1171(3) 1.1762(3) 0.6576(3)
O3F O -0.0435(3) 0.8143(3) 0.8391(3)
O3D O 0.0435(3) 1.3143(3) 0.6609(3)
O4D O -0.2410(3) 1.2545(3) 0.4822(3)
O5D O -0.1190(3) 0.4381(3) 0.5405(3)
O5D_2 O -0.1190(3) 1.4381(3) 0.5405(3)
O6D O -0.0989(3) 0.6170(3) 0.5441(3)
O6_2 O 0.0989(3) 1.3830(3) 0.4559(3)
O7F O -0.0389(3) 0.8140(3) 0.6673(3)
O7B O 0.0389(3) 1.1860(3) 0.3327(3)
O8F O 0.1081(3) 0.6607(4) 0.6714(3)
O8B O -0.1081(3) 1.3393(4) 0.3286(3)
O9D O -0.0794(3) 0.8910(3) 0.4614(3)
N1D N -0.2881(3) 0.4601(4) 0.8282(4)
loop_
_geom_bond_atom_site_label_1
_geom_bond_atom_site_label_2
_geom_bond_site_symmetry_1
_geom_bond_site_symmetry_2
Pr1 O1 1_555 1_555
C1 O1 1_555 1_555
C2 C3 1_555 1_555
C3 O3 1_555 1_555
C4 C5 1_555 1_555
C5 H1 1_555 1_555
H2 C5 1_555 1_555
C6 C5 1_555 1_555
H3 C6 1_555 1_555
H4 C6 1_555 1_555
O2 Pr1 1_555 1_555
O3 Pr1 1_555 1_555
O4 Pr1 1_555 1_555
O5 Pr1 1_555 1_555
O6 C4 1_555 1_555
O7 C3 1_555 1_555
O8 C2 1_555 1_555
O9 C1 1_555 1_555
N1 C6 1_555 1_555
Pr1D O9 1_555 1_555
Pr1D_2 O6 1_555 1_555
Pr1F O7 1_555 1_555
Pr1F_2 O2F 1_555 1_555
C1D C1 1_555 1_555
C2F C3F 1_555 1_555
C3F O3F 1_555 1_555
C4D C5D 1_555 1_555
C5D H1D 1_555 1_555
H2D C5D 1_555 1_555
C6D C5D 1_555 1_555
H3D C6D 1_555 1_555
H4D C6D 1_555 1_555
O1D Pr1D 1_555 1_555
O2F C2F 1_555 1_555
O2D Pr1D 1_555 1_555
O3F Pr1F_2 1_555 1_555
O3D Pr1D 1_555 1_555
O4D Pr1D 1_555 1_555
O5D Pr1D_2 1_555 1_555
O5D_2 Pr1D 1_555 1_555
O6D Pr1 1_555 1_555
O6_2 Pr1D 1_555 1_555
O7F Pr1 1_555 1_555
O7B Pr1D 1_555 1_555
O8F Pr1 1_555 1_555
O8B Pr1D 1_555 1_555
O9D Pr1 1_555 1_555
N1D C6D 1_555 1_555
C2 O2 1_555 1_555
C4 O5 1_555 1_555
O8 Pr1F 1_555 1_555
C1D O1D 1_555 1_555
C1D O9D 1_555 1_555
C2F O8F 1_555 1_555
C3F O7F 1_555 1_555
C4D O5D 1_555 1_555
C4D O6D 1_555 1_555

#END
