
#######################################################################
#
#                 Cambridge Crystallographic Data Centre
#                                CCDC 
#
#######################################################################
#
# If this CIF has been generated from an entry in the Cambridge 
# Structural Database, then it will include bibliographic, chemical, 
# crystal, experimental, refinement or atomic coordinate data resulting 
# from the CCDC's data processing and validation procedures.
#
#######################################################################

data_PADBON
_symmetry_cell_setting           monoclinic
_symmetry_space_group_name_H-M   'P 21/c'
_symmetry_Int_Tables_number      14
_space_group_name_Hall           '-P 2ybc'
loop_
_symmetry_equiv_pos_site_id
_symmetry_equiv_pos_as_xyz
1 x,y,z
2 -x,1/2+y,1/2-z
3 -x,-y,-z
4 x,1/2-y,1/2+z
_cell_length_a                   7.8121(11)
_cell_length_b                   16.827(2)
_cell_length_c                   20.642(3)
_cell_angle_alpha                90
_cell_angle_beta                 92.553(2)
_cell_angle_gamma                90
_cell_volume                     2710.78
loop_
_atom_site_label
_atom_site_type_symbol
_atom_site_fract_x
_atom_site_fract_y
_atom_site_fract_z
Cd1 Cd 0.07659(3) 0.024045(15) 0.315429(12)
N1 N -0.0451(4) -0.06717(17) 0.23999(14)
N2 N -0.1447(4) -0.18613(17) 0.21048(15)
H1 H -0.1768 -0.2348 0.2134
N3 N 0.0191(3) -0.10428(16) 0.36312(13)
N4 N 0.1972(3) 0.01302(18) 0.42098(13)
N5 N 0.2067(4) -0.04270(18) 0.51899(14)
H2 H 0.1891 -0.0763 0.5494
O1 O 0.3084(3) 0.03724(13) 0.26047(13)
O2 O 0.2893(3) 0.16321(14) 0.28778(12)
O3 O 0.8901(4) 0.11718(16) 0.26445(14)
O4 O 0.8825(4) 0.11386(16) 0.36903(13)
C1 C 0.3481(5) 0.1093(2) 0.25391(18)
C2 C 0.4637(4) 0.1279(2) 0.19940(16)
C3 C 0.4374(5) 0.0849(2) 0.1421(2)
H3 H 0.3558 0.0447 0.1402
C4 C 0.5291(6) 0.1007(3) 0.0885(2)
H4 H 0.5083 0.0717 0.0506
C5 C 0.6505(6) 0.1586(3) 0.0907(2)
H5 H 0.7130 0.1694 0.0544
C6 C 0.6801(5) 0.2014(2) 0.14724(19)
H6 H 0.7641 0.2406 0.1486
C7 C 0.5881(4) 0.18742(19) 0.20219(16)
C8 C 0.6226(4) 0.23907(19) 0.26005(16)
C9 C 0.5489(5) 0.3142(2) 0.2598(2)
H7 H 0.4819 0.3300 0.2237
C10 C 0.5715(5) 0.3659(2) 0.3109(2)
H8 H 0.5211 0.4160 0.3091
C11 C 0.6692(6) 0.3433(2) 0.3648(2)
H9 H 0.6831 0.3774 0.4001
C12 C 0.7462(5) 0.2697(2) 0.36601(19)
H10 H 0.8126 0.2546 0.4024
C13 C 0.7268(4) 0.2177(2) 0.31405(16)
C14 C 0.8365(5) 0.1438(2) 0.3157(2)
C15 C -0.0734(5) -0.0057(2) 0.12938(19)
H11 H -0.0334 0.0445 0.1413
C16 C -0.1242(6) -0.0227(3) 0.0663(2)
H12 H -0.1190 0.0170 0.0351
C17 C -0.1827(6) -0.0972(3) 0.0481(2)
H13 H -0.2140 -0.1060 0.0047
C18 C -0.1966(5) -0.1582(3) 0.0909(2)
H14 H -0.2374 -0.2080 0.0783
C19 C -0.1456(5) -0.1410(2) 0.15444(19)
C20 C -0.0841(5) -0.0663(2) 0.17451(18)
C21 C -0.0841(4) -0.1396(2) 0.25972(17)
C22 C -0.0619(5) -0.1608(2) 0.32794(18)
C23 C -0.1145(5) -0.2306(2) 0.3559(2)
H15 H -0.1692 -0.2699 0.3309
C24 C -0.0841(5) -0.2410(2) 0.4216(2)
H16 H -0.1208 -0.2872 0.4415
C25 C 0.0005(5) -0.1833(2) 0.45797(19)
H17 H 0.0219 -0.1899 0.5023
C26 C 0.0530(4) -0.1150(2) 0.42656(17)
C27 C 0.1498(5) -0.0487(2) 0.45598(18)
C28 C 0.2972(5) 0.0267(2) 0.52513(17)
C29 C 0.3880(5) 0.0623(3) 0.57758(19)
H18 H 0.3940 0.0393 0.6186
C30 C 0.4670(6) 0.1327(3) 0.5651(2)
H19 H 0.5266 0.1585 0.5990
C31 C 0.4623(5) 0.1675(2) 0.5038(2)
H20 H 0.5190 0.2154 0.4979
C32 C 0.3756(5) 0.1325(2) 0.45184(19)
H21 H 0.3735 0.1554 0.4108
C33 C 0.2915(5) 0.0615(2) 0.46310(17)
Cd1_2 Cd 1.07659(3) 0.024045(15) 0.315429(12)
O3_2 O -0.1099(4) 0.11718(16) 0.26445(14)
O4_2 O -0.1175(4) 0.11386(16) 0.36903(13)
loop_
_geom_bond_atom_site_label_1
_geom_bond_atom_site_label_2
_geom_bond_site_symmetry_1
_geom_bond_site_symmetry_2
Cd1 N1 1_555 1_555
N1 C20 1_555 1_555
N2 H1 1_555 1_555
N3 Cd1 1_555 1_555
N4 Cd1 1_555 1_555
N5 H2 1_555 1_555
O1 Cd1 1_555 1_555
O2 C1 1_555 1_555
O3 C14 1_555 1_555
O4 C14 1_555 1_555
C1 O1 1_555 1_555
C2 C1 1_555 1_555
C3 C2 1_555 1_555
H3 C3 1_555 1_555
C4 C3 1_555 1_555
H4 C4 1_555 1_555
C5 C4 1_555 1_555
H5 C5 1_555 1_555
C6 C5 1_555 1_555
H6 C6 1_555 1_555
C7 C2 1_555 1_555
C8 C7 1_555 1_555
C9 C8 1_555 1_555
H7 C9 1_555 1_555
C10 C9 1_555 1_555
H8 C10 1_555 1_555
C11 C10 1_555 1_555
H9 C11 1_555 1_555
C12 C11 1_555 1_555
H10 C12 1_555 1_555
C13 C8 1_555 1_555
C14 C13 1_555 1_555
C15 H11 1_555 1_555
C16 C15 1_555 1_555
H12 C16 1_555 1_555
C17 C16 1_555 1_555
H13 C17 1_555 1_555
C18 C17 1_555 1_555
H14 C18 1_555 1_555
C19 N2 1_555 1_555
C20 C15 1_555 1_555
C21 N1 1_555 1_555
C22 N3 1_555 1_555
C23 C22 1_555 1_555
H15 C23 1_555 1_555
C24 C23 1_555 1_555
H16 C24 1_555 1_555
C25 C24 1_555 1_555
H17 C25 1_555 1_555
C26 N3 1_555 1_555
C27 N4 1_555 1_555
C28 N5 1_555 1_555
C29 C28 1_555 1_555
H18 C29 1_555 1_555
C30 C29 1_555 1_555
H19 C30 1_555 1_555
C31 C30 1_555 1_555
H20 C31 1_555 1_555
C32 C31 1_555 1_555
H21 C32 1_555 1_555
C33 N4 1_555 1_555
Cd1_2 O3 1_555 1_555
O3_2 Cd1 1_555 1_555
O4_2 Cd1 1_555 1_555
N2 C21 1_555 1_555
N5 C27 1_555 1_555
O4 Cd1_2 1_555 1_555
C6 C7 1_555 1_555
C12 C13 1_555 1_555
C18 C19 1_555 1_555
C19 C20 1_555 1_555
C21 C22 1_555 1_555
C25 C26 1_555 1_555
C26 C27 1_555 1_555
C28 C33 1_555 1_555
C32 C33 1_555 1_555

#END
