
#######################################################################
#
#                 Cambridge Crystallographic Data Centre
#                                CCDC 
#
#######################################################################
#
# If this CIF has been generated from an entry in the Cambridge 
# Structural Database, then it will include bibliographic, chemical, 
# crystal, experimental, refinement or atomic coordinate data resulting 
# from the CCDC's data processing and validation procedures.
#
#######################################################################

data_PADCEE
_symmetry_cell_setting           triclinic
_symmetry_space_group_name_H-M   'P -1'
_symmetry_Int_Tables_number      2
_space_group_name_Hall           '-P 1'
loop_
_symmetry_equiv_pos_site_id
_symmetry_equiv_pos_as_xyz
1 x,y,z
2 -x,-y,-z
_cell_length_a                   8.760(5)
_cell_length_b                   9.707(5)
_cell_length_c                   13.728(8)
_cell_angle_alpha                102.982(6)
_cell_angle_beta                 96.333(6)
_cell_angle_gamma                113.119(6)
_cell_volume                     1020.16
loop_
_atom_site_label
_atom_site_type_symbol
_atom_site_fract_x
_atom_site_fract_y
_atom_site_fract_z
Zn1 Zn 0.84729(3) 0.56315(3) 0.74368(2)
O1 O 0.6610(2) 0.3741(2) 0.64548(13)
O2 O 0.6309(3) 0.3147(3) 0.79003(15)
O3 O 0.1124(2) -0.1448(2) 0.79703(14)
O4 O -0.0422(2) -0.3224(2) 0.64953(14)
O5 O 0.1477(3) -0.0720(3) 0.38107(15)
N1 N 1.0241(3) 0.5186(2) 0.82271(16)
N2 N 0.7331(3) 0.6889(2) 0.81944(16)
C1 C 0.4216(3) 0.1408(3) 0.64015(19)
C2 C 0.3284(3) 0.0464(3) 0.69389(19)
H1 H 0.3655 0.0717 0.7644
C3 C 0.1786(3) -0.0870(3) 0.64274(19)
C4 C 0.1229(3) -0.1227(3) 0.5380(2)
H2 H 0.0230 -0.2115 0.5037
C5 C 0.2154(4) -0.0268(3) 0.4839(2)
C6 C 0.3658(3) 0.1055(3) 0.5345(2)
H3 H 0.4283 0.1696 0.4984
C7 C 0.5823(3) 0.2852(3) 0.6969(2)
C8 C 0.0780(3) -0.1894(3) 0.7021(2)
C9 C 0.2331(5) 0.0247(4) 0.3225(2)
H4 H 0.2374 0.1270 0.3479
H5 H 0.1731 -0.0206 0.2520
H6 H 0.3468 0.0331 0.3279
C10 C 1.1102(3) 0.5993(3) 0.9188(2)
H7 H 1.0793 0.6737 0.9551
C11 C 1.2426(3) 0.5785(4) 0.9674(2)
H8 H 1.2978 0.6370 1.0349
C12 C 1.2926(3) 0.4703(3) 0.9149(2)
C13 C 1.1980(4) 0.3812(3) 0.8165(2)
H9 H 1.2231 0.3029 0.7797
C14 C 1.0671(4) 0.4084(3) 0.7732(2)
H10 H 1.0061 0.3478 0.7069
C15 C 1.4444(3) 0.4535(3) 0.9564(2)
H11 H 1.4639 0.3719 0.9189
C16 C 0.8029(3) 0.7961(3) 0.9119(2)
H12 H 0.9090 0.8119 0.9458
C17 C 0.7268(3) 0.8834(3) 0.9592(2)
H13 H 0.7789 0.9538 1.0243
C18 C 0.5693(3) 0.8653(3) 0.9083(2)
C19 C 0.4987(3) 0.7563(3) 0.8117(2)
H14 H 0.3952 0.7414 0.7746
C20 C 0.5815(3) 0.6702(3) 0.7709(2)
H15 H 0.5304 0.5961 0.7070
C21 C 0.4771(3) 0.9521(3) 0.9527(2)
H16 H 0.3781 0.9390 0.9111
Zn1_2 Zn -0.15271(3) -0.43685(3) 0.74368(2)
Zn1A Zn 2.15271(3) 0.43685(3) 1.25632(2)
Zn1A_2 Zn 0.15271(3) 1.43685(3) 1.25632(2)
Zn1A_3 Zn 1.15271(3) 2.43685(3) 1.25632(2)
O1A O 0.3390(2) 1.6259(2) 1.35452(13)
O2A O 0.3691(3) 1.6853(3) 1.20997(15)
O3A O 0.8876(2) 2.1448(2) 1.20297(14)
O4_2 O 0.9578(2) 0.6776(2) 0.64953(14)
O4A O 0.0422(2) 1.3224(2) 1.35047(14)
O4A_2 O 1.0422(2) 2.3224(2) 1.35047(14)
O5A O 0.8523(3) 2.0720(3) 1.61893(15)
N1A N 1.9759(3) 0.4814(2) 1.17729(16)
N1A_2 N -0.0241(3) 1.4814(2) 1.17729(16)
N2A N 0.2669(3) 1.3111(2) 1.18056(16)
C1A C 0.5784(3) 1.8592(3) 1.35985(19)
C2A C 0.6716(3) 1.9536(3) 1.30611(19)
H1A H 0.6345 1.9283 1.2356
C3A C 0.8214(3) 2.0870(3) 1.35726(19)
C4A C 0.8771(3) 2.1227(3) 1.4620(2)
H2A H 0.9770 2.2115 1.4963
C5A C 0.7846(4) 2.0268(3) 1.5161(2)
C6A C 0.6342(3) 1.8945(3) 1.4655(2)
H3A H 0.5717 1.8304 1.5016
C7A C 0.4177(3) 1.7148(3) 1.3031(2)
C8A C 0.9220(3) 2.1894(3) 1.2979(2)
C9A C 0.7669(5) 1.9753(4) 1.6775(2)
H4A H 0.7626 1.8730 1.6521
H5A H 0.8269 2.0206 1.7480
H6A H 0.6532 1.9669 1.6721
C10A C 1.8898(3) 0.4007(3) 1.0812(2)
H7A H 1.9207 0.3263 1.0449
C11A C 1.7574(3) 0.4215(4) 1.0326(2)
H8A H 1.7022 0.3630 0.9651
C12A C 1.7074(3) 0.5297(3) 1.0851(2)
C13A C 1.8020(4) 0.6188(3) 1.1835(2)
H9A H 1.7769 0.6971 1.2203
C14A C 1.9329(4) 0.5916(3) 1.2268(2)
H10A H 1.9939 0.6522 1.2931
C15A C 1.5556(3) 0.5465(3) 1.0436(2)
H11A H 1.5361 0.6281 1.0811
C16A C 0.1971(3) 1.2039(3) 1.0881(2)
H12A H 0.0910 1.1881 1.0542
C17A C 0.2732(3) 1.1166(3) 1.0408(2)
H13A H 0.2211 1.0462 0.9757
C18A C 0.4307(3) 1.1347(3) 1.0917(2)
C19A C 0.5013(3) 1.2437(3) 1.1883(2)
H14A H 0.6048 1.2586 1.2254
C20A C 0.4185(3) 1.3298(3) 1.2291(2)
H15A H 0.4696 1.4039 1.2930
C21A C 0.5229(3) 1.0479(3) 1.0473(2)
H16A H 0.6219 1.0610 1.0889
O6 O 0.7214(12) 0.4548(8) 0.4403(4)
H17 H 0.7342 0.4213 0.4899
H18 H 0.8067 0.4799 0.4158
loop_
_geom_bond_atom_site_label_1
_geom_bond_atom_site_label_2
_geom_bond_site_symmetry_1
_geom_bond_site_symmetry_2
Zn1 O1 1_555 1_555
O1 C7 1_555 1_555
O2 C7 1_555 1_555
O3 C8 1_555 1_555
O4 C8 1_555 1_555
O5 C5 1_555 1_555
N1 Zn1 1_555 1_555
N2 Zn1 1_555 1_555
C1 C2 1_555 1_555
C2 H1 1_555 1_555
C3 C2 1_555 1_555
C4 C3 1_555 1_555
H2 C4 1_555 1_555
C5 C4 1_555 1_555
C6 C1 1_555 1_555
H3 C6 1_555 1_555
C7 C1 1_555 1_555
C8 C3 1_555 1_555
C9 O5 1_555 1_555
H4 C9 1_555 1_555
H5 C9 1_555 1_555
H6 C9 1_555 1_555
C10 N1 1_555 1_555
H7 C10 1_555 1_555
C11 C10 1_555 1_555
H8 C11 1_555 1_555
C12 C11 1_555 1_555
C13 C12 1_555 1_555
H9 C13 1_555 1_555
C14 N1 1_555 1_555
H10 C14 1_555 1_555
C15 C12 1_555 1_555
H11 C15 1_555 1_555
C16 N2 1_555 1_555
H12 C16 1_555 1_555
C17 C16 1_555 1_555
H13 C17 1_555 1_555
C18 C17 1_555 1_555
C19 C18 1_555 1_555
H14 C19 1_555 1_555
C20 N2 1_555 1_555
H15 C20 1_555 1_555
C21 C18 1_555 1_555
H16 C21 1_555 1_555
O6 H17 1_555 1_555
H18 O6 1_555 1_555
Zn1_2 O4 1_555 1_555
Zn1A N1A 1_555 1_555
Zn1A_2 O1A 1_555 1_555
Zn1A_3 O4A_2 1_555 1_555
O1A C7A 1_555 1_555
O2A C7A 1_555 1_555
O3A C8A 1_555 1_555
O4_2 Zn1 1_555 1_555
O4A Zn1A_2 1_555 1_555
O4A_2 C8A 1_555 1_555
O5A C5A 1_555 1_555
N1A C10A 1_555 1_555
N1A_2 Zn1A_2 1_555 1_555
N2A Zn1A_2 1_555 1_555
C1A C2A 1_555 1_555
C2A H1A 1_555 1_555
C3A C2A 1_555 1_555
C4A C3A 1_555 1_555
H2A C4A 1_555 1_555
C5A C4A 1_555 1_555
C6A C1A 1_555 1_555
H3A C6A 1_555 1_555
C7A C1A 1_555 1_555
C8A C3A 1_555 1_555
C9A O5A 1_555 1_555
H4A C9A 1_555 1_555
H5A C9A 1_555 1_555
H6A C9A 1_555 1_555
C10A H7A 1_555 1_555
C11A C10A 1_555 1_555
H8A C11A 1_555 1_555
C12A C11A 1_555 1_555
C13A C12A 1_555 1_555
H9A C13A 1_555 1_555
C14A N1A 1_555 1_555
H10A C14A 1_555 1_555
C15A C15 1_555 1_555
H11A C15A 1_555 1_555
C16A N2A 1_555 1_555
H12A C16A 1_555 1_555
C17A C16A 1_555 1_555
H13A C17A 1_555 1_555
C18A C17A 1_555 1_555
C19A C18A 1_555 1_555
H14A C19A 1_555 1_555
C20A N2A 1_555 1_555
H15A C20A 1_555 1_555
C21A C21 1_555 1_555
H16A C21A 1_555 1_555
C5 C6 1_555 1_555
C13 C14 1_555 1_555
C19 C20 1_555 1_555
C5A C6A 1_555 1_555
C12A C15A 1_555 1_555
C13A C14A 1_555 1_555
C18A C21A 1_555 1_555
C19A C20A 1_555 1_555

#END
