
#######################################################################
#
#                 Cambridge Crystallographic Data Centre
#                                CCDC 
#
#######################################################################
#
# If this CIF has been generated from an entry in the Cambridge 
# Structural Database, then it will include bibliographic, chemical, 
# crystal, experimental, refinement or atomic coordinate data resulting 
# from the CCDC's data processing and validation procedures.
#
#######################################################################

data_PADCUU
_symmetry_cell_setting           orthorhombic
_symmetry_space_group_name_H-M   'C m c a'
_symmetry_Int_Tables_number      64
_space_group_name_Hall           '-C 2ac 2'
loop_
_symmetry_equiv_pos_site_id
_symmetry_equiv_pos_as_xyz
1 x,y,z
2 -x,1/2-y,1/2+z
3 -x,1/2+y,1/2-z
4 x,-y,-z
5 1/2+x,1/2+y,z
6 1/2-x,-y,1/2+z
7 1/2-x,y,1/2-z
8 1/2+x,1/2-y,-z
9 -x,-y,-z
10 x,1/2+y,1/2-z
11 x,1/2-y,1/2+z
12 -x,y,z
13 1/2-x,1/2-y,-z
14 1/2+x,y,1/2-z
15 1/2+x,-y,1/2+z
16 1/2-x,1/2+y,z
_cell_length_a                   9.0920(12)
_cell_length_b                   15.7478(18)
_cell_length_c                   14.0306(15)
_cell_angle_alpha                90
_cell_angle_beta                 90
_cell_angle_gamma                90
_cell_volume                     2008.89
loop_
_atom_site_label
_atom_site_type_symbol
_atom_site_fract_x
_atom_site_fract_y
_atom_site_fract_z
Zn1 Zn 0.5000 0.5000 0.0000
S1 S 0.5000 0.65724(5) 0.30102(6)
N1 N 0.13228(15) 0.39541(9) 0.15566(10)
N2 N 0.32690(15) 0.42745(9) 0.06927(11)
N3 N 0.5000 0.58982(14) 0.11731(18)
C1 C 0.0000 0.40476(18) 0.21304(19)
H1 H 0.0000 0.3623 0.2631
H2 H 0.0000 0.4603 0.2430
C2 C 0.21811(19) 0.45782(11) 0.12041(13)
H3 H 0.2021 0.5154 0.1311
C3 C 0.3088(2) 0.34058(12) 0.07129(16)
H4 H 0.3691 0.3018 0.0402
C4 C 0.1912(2) 0.32008(12) 0.12479(16)
H5 H 0.1568 0.2658 0.1382
C5 C 0.5000 0.61805(15) 0.1936(2)
Zn1_2 Zn -0.5000 0.5000 0.0000
S1C S 0.5000 0.34276(5) -0.30102(6)
N1K N -0.13228(15) 0.39541(9) 0.15566(10)
N1C N 0.13228(15) 0.60459(9) -0.15566(10)
N1H N -0.13228(15) 0.60459(9) -0.15566(10)
N2K N -0.32690(15) 0.42745(9) 0.06927(11)
N2C N 0.32690(15) 0.57255(9) -0.06927(11)
N2H N -0.32690(15) 0.57255(9) -0.06927(11)
N2H_2 N 0.67310(15) 0.57255(9) -0.06927(11)
N2K_2 N 0.67310(15) 0.42745(9) 0.06927(11)
N3C N 0.5000 0.41018(14) -0.11731(18)
C1C C 0.0000 0.59524(18) -0.21304(19)
H1C H 0.0000 0.6377 -0.2631
H2C H 0.0000 0.5397 -0.2430
C2K C -0.21811(19) 0.45782(11) 0.12041(13)
C2C C 0.21811(19) 0.54218(11) -0.12041(13)
C2H C -0.21811(19) 0.54218(11) -0.12041(13)
H3K H -0.2021 0.5154 0.1311
H3C H 0.2021 0.4846 -0.1311
H3H H -0.2021 0.4846 -0.1311
C3K C -0.3088(2) 0.34058(12) 0.07129(16)
C3C C 0.3088(2) 0.65942(12) -0.07129(16)
C3H C -0.3088(2) 0.65942(12) -0.07129(16)
H4K H -0.3691 0.3018 0.0402
H4C H 0.3691 0.6982 -0.0402
H4H H -0.3691 0.6982 -0.0402
C4K C -0.1912(2) 0.32008(12) 0.12479(16)
C4C C 0.1912(2) 0.67992(12) -0.12479(16)
C4H C -0.1912(2) 0.67992(12) -0.12479(16)
H5K H -0.1568 0.2658 0.1382
H5C H 0.1568 0.7342 -0.1382
H5H H -0.1568 0.7342 -0.1382
C5C C 0.5000 0.38195(15) -0.1936(2)
loop_
_geom_bond_atom_site_label_1
_geom_bond_atom_site_label_2
_geom_bond_site_symmetry_1
_geom_bond_site_symmetry_2
Zn1 N2 1_555 1_555
S1 C5 1_555 1_555
N1 C1 1_555 1_555
N2 C2 1_555 1_555
N3 Zn1 1_555 1_555
C1 H1 1_555 1_555
H2 C1 1_555 1_555
C2 N1 1_555 1_555
H3 C2 1_555 1_555
C3 N2 1_555 1_555
H4 C3 1_555 1_555
C4 N1 1_555 1_555
H5 C4 1_555 1_555
C5 N3 1_555 1_555
Zn1_2 N2K 1_555 1_555
S1C C5C 1_555 1_555
N1K C1 1_555 1_555
N1C C1C 1_555 1_555
N1H C1C 1_555 1_555
N2K C2K 1_555 1_555
N2C Zn1 1_555 1_555
N2H Zn1_2 1_555 1_555
N2H_2 Zn1 1_555 1_555
N2K_2 Zn1 1_555 1_555
N3C Zn1 1_555 1_555
C1C H1C 1_555 1_555
H2C C1C 1_555 1_555
C2K N1K 1_555 1_555
C2C N1C 1_555 1_555
C2H N1H 1_555 1_555
H3K C2K 1_555 1_555
H3C C2C 1_555 1_555
H3H C2H 1_555 1_555
C3K N2K 1_555 1_555
C3C N2C 1_555 1_555
C3H N2H 1_555 1_555
H4K C3K 1_555 1_555
H4C C3C 1_555 1_555
H4H C3H 1_555 1_555
C4K N1K 1_555 1_555
C4C N1C 1_555 1_555
C4H N1H 1_555 1_555
H5K C4K 1_555 1_555
H5C C4C 1_555 1_555
H5H C4H 1_555 1_555
C5C N3C 1_555 1_555
C3 C4 1_555 1_555
N2C C2C 1_555 1_555
N2H C2H 1_555 1_555
C3K C4K 1_555 1_555
C3C C4C 1_555 1_555
C3H C4H 1_555 1_555

#END
