
#######################################################################
#
#                 Cambridge Crystallographic Data Centre
#                                CCDC 
#
#######################################################################
#
# If this CIF has been generated from an entry in the Cambridge 
# Structural Database, then it will include bibliographic, chemical, 
# crystal, experimental, refinement or atomic coordinate data resulting 
# from the CCDC's data processing and validation procedures.
#
#######################################################################

data_PADDEF
_symmetry_cell_setting           orthorhombic
_symmetry_space_group_name_H-M   'C m c a'
_symmetry_Int_Tables_number      64
_space_group_name_Hall           '-C 2ac 2'
loop_
_symmetry_equiv_pos_site_id
_symmetry_equiv_pos_as_xyz
1 x,y,z
2 -x,1/2-y,1/2+z
3 -x,1/2+y,1/2-z
4 x,-y,-z
5 1/2+x,1/2+y,z
6 1/2-x,-y,1/2+z
7 1/2-x,y,1/2-z
8 1/2+x,1/2-y,-z
9 -x,-y,-z
10 x,1/2+y,1/2-z
11 x,1/2-y,1/2+z
12 -x,y,z
13 1/2-x,1/2-y,-z
14 1/2+x,y,1/2-z
15 1/2+x,-y,1/2+z
16 1/2-x,1/2+y,z
_cell_length_a                   9.3457(11)
_cell_length_b                   15.9331(16)
_cell_length_c                   14.0852(13)
_cell_angle_alpha                90
_cell_angle_beta                 90
_cell_angle_gamma                90
_cell_volume                     2097.37
loop_
_atom_site_label
_atom_site_type_symbol
_atom_site_fract_x
_atom_site_fract_y
_atom_site_fract_z
Cd1 Cd 0.5000 0.5000 0.0000
S1 S 0.5000 0.65190(7) 0.31303(9)
N1 N 0.12881(19) 0.38853(12) 0.15826(13)
N2 N 0.3173(2) 0.42175(12) 0.07276(14)
N3 N 0.5000 0.5945(2) 0.1270(3)
C1 C 0.2103(3) 0.45111(15) 0.12270(17)
H1 H 0.1925 0.5079 0.1324
C2 C 0.3038(3) 0.33603(15) 0.07575(19)
H2 H 0.3648 0.2982 0.0460
C3 C 0.1890(3) 0.31486(15) 0.1282(2)
H3 H 0.1569 0.2609 0.1415
C4 C 0.0000 0.3972(2) 0.2151(2)
H4 H 0.0000 0.3548 0.2645
H5 H 0.0000 0.4518 0.2455
C5 C 0.5000 0.6179(2) 0.2039(3)
Cd1_2 Cd -0.5000 0.5000 0.0000
S1C S 0.5000 0.34810(7) -0.31303(9)
N1K N -0.12881(19) 0.38853(12) 0.15826(13)
N1C N 0.12881(19) 0.61147(12) -0.15826(13)
N1H N -0.12881(19) 0.61147(12) -0.15826(13)
N2K N -0.3173(2) 0.42175(12) 0.07276(14)
N2C N 0.3173(2) 0.57825(12) -0.07276(14)
N2H N -0.3173(2) 0.57825(12) -0.07276(14)
N2H_2 N 0.6827(2) 0.57825(12) -0.07276(14)
N2K_2 N 0.6827(2) 0.42175(12) 0.07276(14)
N3C N 0.5000 0.4055(2) -0.1270(3)
C1K C -0.2103(3) 0.45111(15) 0.12270(17)
C1C C 0.2103(3) 0.54889(15) -0.12270(17)
C1H C -0.2103(3) 0.54889(15) -0.12270(17)
H1K H -0.1925 0.5079 0.1324
H1C H 0.1925 0.4921 -0.1324
H1H H -0.1925 0.4921 -0.1324
C2K C -0.3038(3) 0.33603(15) 0.07575(19)
C2C C 0.3038(3) 0.66397(15) -0.07575(19)
C2H C -0.3038(3) 0.66397(15) -0.07575(19)
H2K H -0.3648 0.2982 0.0460
H2C H 0.3648 0.7018 -0.0460
H2H H -0.3648 0.7018 -0.0460
C3K C -0.1890(3) 0.31486(15) 0.1282(2)
C3C C 0.1890(3) 0.68514(15) -0.1282(2)
C3H C -0.1890(3) 0.68514(15) -0.1282(2)
H3K H -0.1569 0.2609 0.1415
H3C H 0.1569 0.7391 -0.1415
H3H H -0.1569 0.7391 -0.1415
C4C C 0.0000 0.6028(2) -0.2151(2)
H4C H 0.0000 0.6452 -0.2645
H5C H 0.0000 0.5482 -0.2455
C5C C 0.5000 0.3821(2) -0.2039(3)
loop_
_geom_bond_atom_site_label_1
_geom_bond_atom_site_label_2
_geom_bond_site_symmetry_1
_geom_bond_site_symmetry_2
Cd1 N2 1_555 1_555
S1 C5 1_555 1_555
N1 C1 1_555 1_555
N2 C1 1_555 1_555
N3 Cd1 1_555 1_555
C1 H1 1_555 1_555
C2 N2 1_555 1_555
H2 C2 1_555 1_555
C3 N1 1_555 1_555
H3 C3 1_555 1_555
C4 N1 1_555 1_555
H4 C4 1_555 1_555
H5 C4 1_555 1_555
C5 N3 1_555 1_555
Cd1_2 N2K 1_555 1_555
S1C C5C 1_555 1_555
N1K C4 1_555 1_555
N1C C1C 1_555 1_555
N1H C1H 1_555 1_555
N2K C1K 1_555 1_555
N2C Cd1 1_555 1_555
N2H Cd1_2 1_555 1_555
N2H_2 Cd1 1_555 1_555
N2K_2 Cd1 1_555 1_555
N3C Cd1 1_555 1_555
C1K N1K 1_555 1_555
C1C N2C 1_555 1_555
C1H N2H 1_555 1_555
H1K C1K 1_555 1_555
H1C C1C 1_555 1_555
H1H C1H 1_555 1_555
C2K N2K 1_555 1_555
C2C N2C 1_555 1_555
C2H N2H 1_555 1_555
H2K C2K 1_555 1_555
H2C C2C 1_555 1_555
H2H C2H 1_555 1_555
C3K N1K 1_555 1_555
C3C N1C 1_555 1_555
C3H N1H 1_555 1_555
H3K C3K 1_555 1_555
H3C C3C 1_555 1_555
H3H C3H 1_555 1_555
C4C N1C 1_555 1_555
H4C C4C 1_555 1_555
H5C C4C 1_555 1_555
C5C N3C 1_555 1_555
C2 C3 1_555 1_555
N1H C4C 1_555 1_555
C2K C3K 1_555 1_555
C2C C3C 1_555 1_555
C2H C3H 1_555 1_555

#END
