
#######################################################################
#
#                 Cambridge Crystallographic Data Centre
#                                CCDC 
#
#######################################################################
#
# If this CIF has been generated from an entry in the Cambridge 
# Structural Database, then it will include bibliographic, chemical, 
# crystal, experimental, refinement or atomic coordinate data resulting 
# from the CCDC's data processing and validation procedures.
#
#######################################################################

data_PADDIJ
_symmetry_cell_setting           monoclinic
_symmetry_space_group_name_H-M   'P 21/c'
_symmetry_Int_Tables_number      14
_space_group_name_Hall           '-P 2ybc'
loop_
_symmetry_equiv_pos_site_id
_symmetry_equiv_pos_as_xyz
1 x,y,z
2 -x,1/2+y,1/2-z
3 -x,-y,-z
4 x,1/2-y,1/2+z
_cell_length_a                   12.9206(13)
_cell_length_b                   11.4901(14)
_cell_length_c                   15.5799(18)
_cell_angle_alpha                90
_cell_angle_beta                 101.827(2)
_cell_angle_gamma                90
_cell_volume                     2263.87
loop_
_atom_site_label
_atom_site_type_symbol
_atom_site_fract_x
_atom_site_fract_y
_atom_site_fract_z
Cu1 Cu 0.7427(2) 0.7717(3) 1.01845(18)
Cl1 Cl 0.9107(9) 0.6189(9) 1.0919(6)
N1 N 0.5671(12) 0.5452(14) 0.8386(10)
N2 N 0.6789(14) 0.6499(15) 0.9316(11)
N3 N 0.4344(12) 0.3964(13) 0.8258(10)
N4 N 0.3490(13) 0.2826(14) 0.8997(11)
N5 N 0.9463(14) 0.8549(15) 0.8540(11)
N6 N 0.8239(13) 0.8303(15) 0.9306(11)
N7 N 1.1005(13) 0.9592(16) 0.8346(12)
N8 N 1.1871(13) 1.1120(15) 0.8948(11)
O1 O 0.5898(17) 0.9355(15) 0.9519(12)
H1 H 0.5335 0.9025 0.9326
C1 C 0.5776(17) 0.6310(17) 0.8982(14)
H14 H 0.5218 0.6714 0.9137
C2 C 0.7339(17) 0.5735(19) 0.8905(15)
H15 H 0.8072 0.5685 0.9002
C3 C 0.6671(17) 0.5074(19) 0.8345(15)
H16 H 0.6844 0.4477 0.7997
C4 C 0.3638(16) 0.3915(17) 0.8774(14)
H17 H 0.3297 0.4557 0.8951
C5 C 0.4134(19) 0.2158(19) 0.8608(16)
H18 H 0.4200 0.1353 0.8653
C6 C 0.4665(18) 0.2857(18) 0.8144(15)
H19 H 0.5152 0.2625 0.7814
C7 C 0.4686(15) 0.4994(18) 0.7886(13)
H20 H 0.4142 0.5585 0.7847
H21 H 0.4772 0.4825 0.7295
C8 C 0.9209(17) 0.8070(19) 0.9251(14)
H22 H 0.9670 0.7623 0.9657
C9 C 0.7857(19) 0.894(2) 0.8586(16)
H23 H 0.7167 0.9221 0.8435
C10 C 0.8609(19) 0.913(2) 0.8110(17)
H24 H 0.8548 0.9562 0.7598
C11 C 1.1533(17) 1.009(2) 0.9101(15)
H25 H 1.1638 0.9744 0.9651
C12 C 1.1553(19) 1.129(2) 0.8064(15)
H26 H 1.1692 1.1951 0.7765
C13 C 1.1016(19) 1.036(2) 0.7690(16)
H27 H 1.0711 1.0271 0.7100
C14 C 1.0484(18) 0.8475(19) 0.8290(16)
H28 H 1.0928 0.7927 0.8671
H29 H 1.0386 0.8186 0.7694
Cu1B Cu 0.2573(2) 0.2283(3) 0.98155(18)
Cu1B_2 Cu 1.2573(2) 1.2283(3) 0.98155(18)
Cu1_2 Cu -0.2573(2) -0.2283(3) 1.01845(18)
Cl1B Cl 0.0893(9) 0.3811(9) 0.9081(6)
N1B N 0.4329(12) 0.4548(14) 1.1614(10)
N2B N 0.3211(14) 0.3501(15) 1.0684(11)
N3B N 0.5656(12) 0.6036(13) 1.1742(10)
N4B N 0.6510(13) 0.7174(14) 1.1003(11)
N5B N 0.0537(14) 0.1451(15) 1.1460(11)
N6B N 0.1761(13) 0.1697(15) 1.0694(11)
N7B N -0.1005(13) 0.0408(16) 1.1654(12)
N8B N 0.8129(13) 0.8880(15) 1.1052(11)
N8_2 N 0.1871(13) 0.1120(15) 0.8948(11)
N8B_2 N -0.1871(13) -0.1120(15) 1.1052(11)
O1B O 0.4102(17) 0.0645(15) 1.0481(12)
H1B H 0.4665 0.0975 1.0674
C1B C 0.4224(17) 0.3690(17) 1.1018(14)
H14B H 0.4782 0.3286 1.0863
C2B C 0.2661(17) 0.4265(19) 1.1095(15)
H15B H 0.1928 0.4315 1.0998
C3B C 0.3329(17) 0.4926(19) 1.1655(15)
H16B H 0.3156 0.5523 1.2003
C4B C 0.6362(16) 0.6085(17) 1.1226(14)
H17B H 0.6703 0.5443 1.1049
C5B C 0.5866(19) 0.7842(19) 1.1392(16)
H18B H 0.5800 0.8647 1.1347
C6B C 0.5335(18) 0.7143(18) 1.1856(15)
H19B H 0.4848 0.7375 1.2186
C7B C 0.5314(15) 0.5006(18) 1.2114(13)
H20B H 0.5858 0.4415 1.2153
H21B H 0.5228 0.5175 1.2705
C8B C 0.0791(17) 0.1930(19) 1.0749(14)
H22B H 0.0330 0.2377 1.0343
C9B C 0.2143(19) 0.106(2) 1.1414(16)
H23B H 0.2833 0.0779 1.1565
C10B C 0.1391(19) 0.087(2) 1.1890(17)
H24B H 0.1452 0.0438 1.2402
C11B C -0.1533(17) -0.009(2) 1.0899(15)
H25B H -0.1638 0.0256 1.0349
C12B C -0.1553(19) -0.129(2) 1.1936(15)
H26B H -0.1692 -0.1951 1.2235
C13B C -0.1016(19) -0.036(2) 1.2310(16)
H27B H -0.0711 -0.0271 1.2900
C14B C -0.0484(18) 0.1525(19) 1.1710(16)
H28B H -0.0928 0.2073 1.1329
H29B H -0.0386 0.1814 1.2306
O2 O 0.3900(14) 0.8769(14) 0.8801(11)
H2 H 0.3570 0.8442 0.8335
H3 H 0.3896 0.8305 0.9225
O3 O 0.2813(14) 0.7158(15) 0.7725(12)
H4 H 0.2208 0.7258 0.7396
H5 H 0.2736 0.7030 0.8246
O4 O 0.117(4) 0.756(5) 0.612(4)
H6 H 0.1465 0.8157 0.5958
H7 H 0.0845 0.7217 0.5659
O5 O 0.857(6) 0.122(7) 0.553(5)
H8 H 0.8129 0.1509 0.5102
H9 H 0.8560 0.0482 0.5481
O6 O 0.723(7) 0.315(7) 0.425(6)
H10 H 0.7003 0.3161 0.3698
H11 H 0.7853 0.2877 0.4348
O7 O 0.654(7) 0.160(7) 0.522(5)
H12 H 0.7156 0.1323 0.5399
H13 H 0.6585 0.2155 0.4870
loop_
_geom_bond_atom_site_label_1
_geom_bond_atom_site_label_2
_geom_bond_site_symmetry_1
_geom_bond_site_symmetry_2
Cu1 Cl1 1_555 1_555
N1 C1 1_555 1_555
N2 Cu1 1_555 1_555
N3 C4 1_555 1_555
N4 C4 1_555 1_555
N5 C8 1_555 1_555
N6 Cu1 1_555 1_555
N7 C11 1_555 1_555
N8 C11 1_555 1_555
O1 Cu1 1_555 1_555
H1 O1 1_555 1_555
O2 H2 1_555 1_555
H3 O2 1_555 1_555
O3 H4 1_555 1_555
H5 O3 1_555 1_555
O4 H6 1_555 1_555
H7 O4 1_555 1_555
O5 H8 1_555 1_555
H9 O5 1_555 1_555
O6 H10 1_555 1_555
H11 O6 1_555 1_555
O7 H12 1_555 1_555
H13 O7 1_555 1_555
C1 N2 1_555 1_555
H14 C1 1_555 1_555
C2 N2 1_555 1_555
H15 C2 1_555 1_555
C3 N1 1_555 1_555
H16 C3 1_555 1_555
C4 H17 1_555 1_555
C5 N4 1_555 1_555
H18 C5 1_555 1_555
C6 N3 1_555 1_555
H19 C6 1_555 1_555
C7 N1 1_555 1_555
H20 C7 1_555 1_555
H21 C7 1_555 1_555
C8 N6 1_555 1_555
H22 C8 1_555 1_555
C9 N6 1_555 1_555
H23 C9 1_555 1_555
C10 N5 1_555 1_555
H24 C10 1_555 1_555
C11 H25 1_555 1_555
C12 N8 1_555 1_555
H26 C12 1_555 1_555
C13 N7 1_555 1_555
H27 C13 1_555 1_555
C14 N5 1_555 1_555
H28 C14 1_555 1_555
H29 C14 1_555 1_555
Cu1B N4 1_555 1_555
Cu1B_2 N8 1_555 1_555
Cu1_2 N8B_2 1_555 1_555
Cl1B Cu1B 1_555 1_555
N1B C1B 1_555 1_555
N2B Cu1B 1_555 1_555
N3B C4B 1_555 1_555
N4B Cu1 1_555 1_555
N5B C8B 1_555 1_555
N6B Cu1B 1_555 1_555
N7B C11B 1_555 1_555
N8B Cu1 1_555 1_555
N8_2 Cu1B 1_555 1_555
N8B_2 C11B 1_555 1_555
O1B Cu1B 1_555 1_555
H1B O1B 1_555 1_555
C1B N2B 1_555 1_555
H14B C1B 1_555 1_555
C2B N2B 1_555 1_555
H15B C2B 1_555 1_555
C3B N1B 1_555 1_555
H16B C3B 1_555 1_555
C4B N4B 1_555 1_555
H17B C4B 1_555 1_555
C5B N4B 1_555 1_555
H18B C5B 1_555 1_555
C6B N3B 1_555 1_555
H19B C6B 1_555 1_555
C7B N1B 1_555 1_555
H20B C7B 1_555 1_555
H21B C7B 1_555 1_555
C8B N6B 1_555 1_555
H22B C8B 1_555 1_555
C9B N6B 1_555 1_555
H23B C9B 1_555 1_555
C10B N5B 1_555 1_555
H24B C10B 1_555 1_555
C11B H25B 1_555 1_555
C12B N8B_2 1_555 1_555
H26B C12B 1_555 1_555
C13B N7B 1_555 1_555
H27B C13B 1_555 1_555
C14B N5B 1_555 1_555
H28B C14B 1_555 1_555
H29B C14B 1_555 1_555
N3 C7 1_555 1_555
N7 C14 1_555 1_555
C2 C3 1_555 1_555
C5 C6 1_555 1_555
C9 C10 1_555 1_555
C12 C13 1_555 1_555
N3B C7B 1_555 1_555
N7B C14B 1_555 1_555
C2B C3B 1_555 1_555
C5B C6B 1_555 1_555
C9B C10B 1_555 1_555
C12B C13B 1_555 1_555

#END
