
#######################################################################
#
#                 Cambridge Crystallographic Data Centre
#                                CCDC 
#
#######################################################################
#
# If this CIF has been generated from an entry in the Cambridge 
# Structural Database, then it will include bibliographic, chemical, 
# crystal, experimental, refinement or atomic coordinate data resulting 
# from the CCDC's data processing and validation procedures.
#
#######################################################################

data_PADDUV
_symmetry_cell_setting           triclinic
_symmetry_space_group_name_H-M   'P -1'
_symmetry_Int_Tables_number      2
_space_group_name_Hall           '-P 1'
loop_
_symmetry_equiv_pos_site_id
_symmetry_equiv_pos_as_xyz
1 x,y,z
2 -x,-y,-z
_cell_length_a                   9.0573(11)
_cell_length_b                   9.1021(11)
_cell_length_c                   9.9793(12)
_cell_angle_alpha                64.2770(10)
_cell_angle_beta                 82.4490(10)
_cell_angle_gamma                61.3530(10)
_cell_volume                     647.379
loop_
_atom_site_label
_atom_site_type_symbol
_atom_site_fract_x
_atom_site_fract_y
_atom_site_fract_z
Co1 Co 0.0000 0.5000 0.5000
C1 C 0.1793(2) 0.2331(2) 0.80882(19)
C2 C 0.3458(2) 0.1130(2) 0.90868(18)
C3 C 0.3829(2) 0.1644(2) 1.00662(19)
C4 C 0.4643(2) -0.0527(2) 0.90333(19)
C5 C 0.0300(3) 0.2515(3) 0.3673(2)
H1 H -0.0753 0.3492 0.3197
C6 C 0.2548(3) -0.0531(3) 0.4112(3)
H2 H 0.3003 -0.0304 0.4775
H3 H 0.3298 -0.0699 0.3355
H4 H 0.2428 -0.1626 0.4669
C7 C -0.0012(4) 0.0927(4) 0.2395(3)
H5 H -0.1061 0.2051 0.1993
H6 H -0.0237 -0.0100 0.2927
H7 H 0.0659 0.0756 0.1594
C8 C 0.3359(3) 0.4726(3) 0.3574(3)
H8 H 0.3337 0.3833 0.3303
H9 H 0.3998 0.4049 0.4545
C9 C 0.4236(4) 0.5652(4) 0.2474(4)
H10 H 0.3609 0.6334 0.1510
H11 H 0.5347 0.4742 0.2429
H12 H 0.4326 0.6485 0.2765
Cl1 Cl 0.41876(7) -0.11851(8) 0.78233(7)
Cl2 Cl 0.23656(6) 0.36995(7) 1.01555(6)
N1 N 0.0902(2) 0.1041(2) 0.34121(18)
O1 O 0.05760(19) 0.2100(3) 0.86353(17)
O2 O 0.18489(15) 0.34345(17) 0.67980(13)
O3 O 0.10377(17) 0.26936(18) 0.45090(15)
O4 O 0.16737(15) 0.59530(17) 0.36918(14)
H13 H 0.1138 0.6495 0.2836
Co1_2 Co 1.0000 -0.5000 1.5000
C1A C 0.8207(2) -0.2331(2) 1.19118(19)
C2A C 0.6542(2) -0.1130(2) 1.09132(18)
C3A C 0.6171(2) -0.1644(2) 0.99338(19)
C4A C 0.5357(2) 0.0527(2) 1.09667(19)
C5A C -0.0300(3) 0.7485(3) 0.6327(2)
H1A H 0.0753 0.6508 0.6803
C6A C -0.2548(3) 1.0531(3) 0.5888(3)
H2A H -0.3003 1.0304 0.5225
H3A H -0.3298 1.0699 0.6645
H4A H -0.2428 1.1626 0.5331
C7A C 0.0012(4) 0.9073(4) 0.7605(3)
H5A H 0.1061 0.7949 0.8007
H6A H 0.0237 1.0100 0.7073
H7A H -0.0659 0.9244 0.8406
C8A C -0.3359(3) 0.5274(3) 0.6426(3)
H8A H -0.3337 0.6167 0.6697
H9A H -0.3998 0.5951 0.5455
C9A C -0.4236(4) 0.4348(4) 0.7526(4)
H10A H -0.3609 0.3666 0.8490
H11A H -0.5347 0.5258 0.7571
H12A H -0.4326 0.3515 0.7235
Cl1A Cl 0.58124(7) 0.11851(8) 1.21767(7)
Cl2A Cl 0.76344(6) -0.36995(7) 0.98445(6)
N1A N -0.0902(2) 0.8959(2) 0.65879(18)
O1A O 0.94240(19) -0.2100(3) 1.13647(17)
O2A O 0.81511(15) -0.34345(17) 1.32020(13)
O2A_2 O -0.18489(15) 0.65655(17) 0.32020(13)
O3A O -0.10377(17) 0.73064(18) 0.54910(15)
O4A O -0.16737(15) 0.40470(17) 0.63082(14)
H13A H -0.1138 0.3505 0.7164
loop_
_geom_bond_atom_site_label_1
_geom_bond_atom_site_label_2
_geom_bond_site_symmetry_1
_geom_bond_site_symmetry_2
Co1 O2 1_555 1_555
C1 C2 1_555 1_555
C2 C3 1_555 1_555
C3 Cl2 1_555 1_555
C4 C2 1_555 1_555
C5 H1 1_555 1_555
C6 H2 1_555 1_555
H3 C6 1_555 1_555
H4 C6 1_555 1_555
C7 H5 1_555 1_555
H6 C7 1_555 1_555
H7 C7 1_555 1_555
C8 H8 1_555 1_555
H9 C8 1_555 1_555
C9 C8 1_555 1_555
H10 C9 1_555 1_555
H11 C9 1_555 1_555
H12 C9 1_555 1_555
Cl1 C4 1_555 1_555
N1 C5 1_555 1_555
O1 C1 1_555 1_555
O2 C1 1_555 1_555
O3 Co1 1_555 1_555
O4 Co1 1_555 1_555
H13 O4 1_555 1_555
Co1_2 O2A 1_555 1_555
C1A C2A 1_555 1_555
C2A C3A 1_555 1_555
C3A C4 1_555 1_555
C4A C3 1_555 1_555
C5A H1A 1_555 1_555
C6A H2A 1_555 1_555
H3A C6A 1_555 1_555
H4A C6A 1_555 1_555
C7A H5A 1_555 1_555
H6A C7A 1_555 1_555
H7A C7A 1_555 1_555
C8A H8A 1_555 1_555
H9A C8A 1_555 1_555
C9A C8A 1_555 1_555
H10A C9A 1_555 1_555
H11A C9A 1_555 1_555
H12A C9A 1_555 1_555
Cl1A C4A 1_555 1_555
Cl2A C3A 1_555 1_555
N1A C5A 1_555 1_555
O1A C1A 1_555 1_555
O2A C1A 1_555 1_555
O2A_2 Co1 1_555 1_555
O3A Co1 1_555 1_555
O4A Co1 1_555 1_555
H13A O4A 1_555 1_555
C5 O3 1_555 1_555
C6 N1 1_555 1_555
C7 N1 1_555 1_555
C8 O4 1_555 1_555
C2A C4A 1_555 1_555
C5A O3A 1_555 1_555
C6A N1A 1_555 1_555
C7A N1A 1_555 1_555
C8A O4A 1_555 1_555

#END
