
#######################################################################
#
#                 Cambridge Crystallographic Data Centre
#                                CCDC 
#
#######################################################################
#
# If this CIF has been generated from an entry in the Cambridge 
# Structural Database, then it will include bibliographic, chemical, 
# crystal, experimental, refinement or atomic coordinate data resulting 
# from the CCDC's data processing and validation procedures.
#
#######################################################################

data_PADDOP
_symmetry_cell_setting           orthorhombic
_symmetry_space_group_name_H-M   'C m c a'
_symmetry_Int_Tables_number      64
_space_group_name_Hall           '-C 2ac 2'
loop_
_symmetry_equiv_pos_site_id
_symmetry_equiv_pos_as_xyz
1 x,y,z
2 -x,1/2-y,1/2+z
3 x,-y,-z
4 -x,1/2+y,1/2-z
5 1/2+x,1/2+y,z
6 1/2-x,-y,1/2+z
7 1/2+x,1/2-y,-z
8 1/2-x,y,1/2-z
9 -x,-y,-z
10 x,1/2+y,1/2-z
11 -x,y,z
12 x,1/2-y,1/2+z
13 1/2-x,1/2-y,-z
14 1/2+x,y,1/2-z
15 1/2-x,1/2+y,z
16 1/2+x,-y,1/2+z
_cell_length_a                   8.8606(9)
_cell_length_b                   14.8815(15)
_cell_length_c                   14.0615(15)
_cell_angle_alpha                90
_cell_angle_beta                 90
_cell_angle_gamma                90
_cell_volume                     1854.14
loop_
_atom_site_label
_atom_site_type_symbol
_atom_site_fract_x
_atom_site_fract_y
_atom_site_fract_z
Cu1 Cu 0.0000 0.0000 0.0000
O1 O 0.0000 -0.0949(4) 0.1494(4)
O2 O 0.0000 -0.1759(4) 0.2739(4)
O3 O 0.0000 -0.0335(5) 0.2880(5)
N1 N 0.1653(3) 0.0831(2) 0.0441(2)
N2 N 0.3649(3) 0.1697(2) 0.0374(3)
N3 N 0.0000 -0.1001(4) 0.2363(4)
C1 C 0.2758(4) 0.1123(3) -0.0110(3)
H1 H 0.2900 0.0956 -0.0741
C2 C 0.3089(4) 0.1763(3) 0.1283(3)
H2 H 0.3468 0.2113 0.1776
C3 C 0.1873(5) 0.1215(3) 0.1311(3)
H3 H 0.1275 0.1114 0.1844
C4 C 0.5000 0.2134(4) 0.0019(4)
H4 H 0.5000 0.2759 0.0215
H5 H 0.5000 0.2117 -0.0670
Cu1_2 Cu 1.0000 0.0000 0.0000
O1B O 0.0000 0.0949(4) -0.1494(4)
O2B O 0.0000 0.1759(4) -0.2739(4)
O3B O 0.0000 0.0335(5) -0.2880(5)
N1J N 0.8347(3) 0.0831(2) 0.0441(2)
N1B N 0.1653(3) -0.0831(2) -0.0441(2)
N1H N 0.8347(3) -0.0831(2) -0.0441(2)
N1H_2 N -0.1653(3) -0.0831(2) -0.0441(2)
N1J_2 N -0.1653(3) 0.0831(2) 0.0441(2)
N2J N 0.6351(3) 0.1697(2) 0.0374(3)
N2B N 0.3649(3) -0.1697(2) -0.0374(3)
N2H N 0.6351(3) -0.1697(2) -0.0374(3)
N3B N 0.0000 0.1001(4) -0.2363(4)
C1J C 0.7242(4) 0.1123(3) -0.0110(3)
C1B C 0.2758(4) -0.1123(3) 0.0110(3)
C1H C 0.7242(4) -0.1123(3) 0.0110(3)
H1J H 0.7100 0.0956 -0.0741
H1B H 0.2900 -0.0956 0.0741
H1H H 0.7100 -0.0956 0.0741
C2J C 0.6911(4) 0.1763(3) 0.1283(3)
C2B C 0.3089(4) -0.1763(3) -0.1283(3)
C2H C 0.6911(4) -0.1763(3) -0.1283(3)
H2J H 0.6532 0.2113 0.1776
H2B H 0.3468 -0.2113 -0.1776
H2H H 0.6532 -0.2113 -0.1776
C3J C 0.8127(5) 0.1215(3) 0.1311(3)
C3B C 0.1873(5) -0.1215(3) -0.1311(3)
C3H C 0.8127(5) -0.1215(3) -0.1311(3)
H3J H 0.8725 0.1114 0.1844
H3B H 0.1275 -0.1114 -0.1844
H3H H 0.8725 -0.1114 -0.1844
C4B C 0.5000 -0.2134(4) -0.0019(4)
H4B H 0.5000 -0.2759 -0.0215
H5B H 0.5000 -0.2117 0.0670
loop_
_geom_bond_atom_site_label_1
_geom_bond_atom_site_label_2
_geom_bond_site_symmetry_1
_geom_bond_site_symmetry_2
Cu1 O1 1_555 1_555
O1 N3 1_555 1_555
O2 N3 1_555 1_555
O3 N3 1_555 1_555
N1 Cu1 1_555 1_555
N2 C1 1_555 1_555
C1 N1 1_555 1_555
H1 C1 1_555 1_555
C2 N2 1_555 1_555
H2 C2 1_555 1_555
C3 N1 1_555 1_555
H3 C3 1_555 1_555
C4 N2 1_555 1_555
H4 C4 1_555 1_555
H5 C4 1_555 1_555
Cu1_2 N1J 1_555 1_555
O1B Cu1 1_555 1_555
O2B N3B 1_555 1_555
O3B N3B 1_555 1_555
N1J C1J 1_555 1_555
N1B Cu1 1_555 1_555
N1H Cu1_2 1_555 1_555
N1H_2 Cu1 1_555 1_555
N1J_2 Cu1 1_555 1_555
N2J C4 1_555 1_555
N2B C1B 1_555 1_555
N2H C1H 1_555 1_555
N3B O1B 1_555 1_555
C1J N2J 1_555 1_555
C1B N1B 1_555 1_555
C1H N1H 1_555 1_555
H1J C1J 1_555 1_555
H1B C1B 1_555 1_555
H1H C1H 1_555 1_555
C2J N2J 1_555 1_555
C2B N2B 1_555 1_555
C2H N2H 1_555 1_555
H2J C2J 1_555 1_555
H2B C2B 1_555 1_555
H2H C2H 1_555 1_555
C3J N1J 1_555 1_555
C3B N1B 1_555 1_555
C3H N1H 1_555 1_555
H3J C3J 1_555 1_555
H3B C3B 1_555 1_555
H3H C3H 1_555 1_555
C4B N2B 1_555 1_555
H4B C4B 1_555 1_555
H5B C4B 1_555 1_555
C2 C3 1_555 1_555
N2H C4B 1_555 1_555
C2J C3J 1_555 1_555
C2B C3B 1_555 1_555
C2H C3H 1_555 1_555

#END
