
#######################################################################
#
#                 Cambridge Crystallographic Data Centre
#                                CCDC 
#
#######################################################################
#
# If this CIF has been generated from an entry in the Cambridge 
# Structural Database, then it will include bibliographic, chemical, 
# crystal, experimental, refinement or atomic coordinate data resulting 
# from the CCDC's data processing and validation procedures.
#
#######################################################################

data_PADFAD
_symmetry_cell_setting           triclinic
_symmetry_space_group_name_H-M   'P -1'
_symmetry_Int_Tables_number      2
_space_group_name_Hall           '-P 1'
loop_
_symmetry_equiv_pos_site_id
_symmetry_equiv_pos_as_xyz
1 x,y,z
2 -x,-y,-z
_cell_length_a                   8.4499(14)
_cell_length_b                   9.1077(15)
_cell_length_c                   11.4214(19)
_cell_angle_alpha                90.705(2)
_cell_angle_beta                 105.211(3)
_cell_angle_gamma                107.235(2)
_cell_volume                     806.226
loop_
_atom_site_label
_atom_site_type_symbol
_atom_site_fract_x
_atom_site_fract_y
_atom_site_fract_z
Co1 Co 0.5000 1.0000 1.0000
Cl1 Cl 0.76156(6) 0.85926(6) 0.66720(4)
Cl2 Cl 0.65365(7) 0.78463(6) 0.38241(4)
N1 N 0.6920(2) 0.62551(18) 0.97583(14)
O1 O 0.49097(15) 0.98477(14) 0.81661(10)
O2 O 0.73220(17) 1.17233(15) 0.81281(11)
O3 O 0.74182(15) 1.17735(14) 1.04362(11)
H1 H 0.7527 1.1881 0.9747
O4 O 0.62388(17) 0.83232(15) 1.03269(11)
C1 C 0.5958(2) 1.06709(19) 0.76528(14)
C2 C 0.5466(2) 1.03178(19) 0.62734(14)
C3 C 0.6158(2) 0.93701(19) 0.57403(15)
C4 C 0.5697(2) 0.90533(19) 0.44821(15)
C5 C 0.6130(2) 0.7311(2) 0.95338(16)
H2 H 0.5455 0.7304 0.8745
C6 C 0.6738(3) 0.5091(2) 0.8798(2)
H3 H 0.6031 0.5272 0.8042
H4 H 0.6208 0.4082 0.9010
H5 H 0.7856 0.5154 0.8713
C7 C 0.8001(3) 0.6194(3) 1.0974(2)
H6 H 0.7879 0.6907 1.1544
H7 H 0.9185 0.6466 1.0964
H8 H 0.7649 0.5167 1.1213
C8 C 0.8915(3) 1.1538(3) 1.12382(19)
H9 H 0.9452 1.1043 1.0781
H10 H 0.8586 1.0897 1.1849
H11 H 0.9714 1.2517 1.1624
Co1_2 Co 0.5000 1.0000 0.0000
Cl1A Cl 0.23844(6) 1.14074(6) 0.33280(4)
Cl2A Cl 0.34635(7) 1.21537(6) 0.61759(4)
N1A N 0.3080(2) 1.37449(18) 1.02417(14)
O1A O 0.50903(15) 1.01523(14) 0.18339(10)
O1A_2 O 0.50903(15) 1.01523(14) 1.18339(10)
O2A O 0.26780(17) 0.82767(15) 0.18719(11)
O3A O 0.25818(15) 0.82265(14) 0.95638(11)
H1A H 0.2473 0.8119 1.0253
O4A O 0.37612(17) 1.16768(15) 0.96731(11)
C1A C 0.4042(2) 0.93291(19) 0.23472(14)
C2A C 0.4534(2) 0.96822(19) 0.37266(14)
C3A C 0.3842(2) 1.06299(19) 0.42597(15)
C4A C 0.4303(2) 1.09467(19) 0.55179(15)
C5A C 0.3870(2) 1.2689(2) 1.04662(16)
H2A H 0.4545 1.2696 1.1255
C6A C 0.3262(3) 1.4909(2) 1.1202(2)
H3A H 0.3969 1.4728 1.1958
H4A H 0.3792 1.5918 1.0990
H5A H 0.2144 1.4846 1.1287
C7A C 0.1999(3) 1.3806(3) 0.9026(2)
H6A H 0.2121 1.3093 0.8456
H7A H 0.0815 1.3534 0.9036
H8A H 0.2351 1.4833 0.8787
C8A C 0.1085(3) 0.8462(3) 0.87618(19)
H9A H 0.0548 0.8957 0.9219
H10A H 0.1414 0.9103 0.8151
H11A H 0.0286 0.7483 0.8376
N2 N 0.1848(2) 0.65185(19) 0.49274(15)
O5 O 0.3560(2) 0.59793(19) 0.66553(14)
C9 C 0.2599(3) 0.6684(2) 0.61234(19)
H12 H 0.2375 0.7396 0.6595
C10 C 0.0616(3) 0.7307(3) 0.4377(2)
H13 H -0.0510 0.6566 0.4073
H14 H 0.0952 0.7836 0.3717
H15 H 0.0591 0.8040 0.4978
C11 C 0.2165(3) 0.5463(3) 0.4122(2)
H16 H 0.3074 0.5088 0.4568
H17 H 0.2497 0.5994 0.3461
H18 H 0.1133 0.4610 0.3803
loop_
_geom_bond_atom_site_label_1
_geom_bond_atom_site_label_2
_geom_bond_site_symmetry_1
_geom_bond_site_symmetry_2
Co1 O1 1_555 1_555
Cl1 C3 1_555 1_555
Cl2 C4 1_555 1_555
N1 C5 1_555 1_555
N2 C9 1_555 1_555
O1 C1 1_555 1_555
O2 C1 1_555 1_555
O3 Co1 1_555 1_555
H1 O3 1_555 1_555
O4 Co1 1_555 1_555
O5 C9 1_555 1_555
C1 C2 1_555 1_555
C2 C3 1_555 1_555
C3 C4 1_555 1_555
C4 C2A 1_555 1_555
C5 O4 1_555 1_555
H2 C5 1_555 1_555
C6 N1 1_555 1_555
H3 C6 1_555 1_555
H4 C6 1_555 1_555
H5 C6 1_555 1_555
C7 N1 1_555 1_555
H6 C7 1_555 1_555
H7 C7 1_555 1_555
H8 C7 1_555 1_555
C8 O3 1_555 1_555
H9 C8 1_555 1_555
H10 C8 1_555 1_555
H11 C8 1_555 1_555
C9 H12 1_555 1_555
C10 N2 1_555 1_555
H13 C10 1_555 1_555
H14 C10 1_555 1_555
H15 C10 1_555 1_555
C11 N2 1_555 1_555
H16 C11 1_555 1_555
H17 C11 1_555 1_555
H18 C11 1_555 1_555
Co1_2 O1A 1_555 1_555
Cl1A C3A 1_555 1_555
Cl2A C4A 1_555 1_555
N1A C5A 1_555 1_555
O1A C1A 1_555 1_555
O1A_2 Co1 1_555 1_555
O2A C1A 1_555 1_555
O3A Co1 1_555 1_555
H1A O3A 1_555 1_555
O4A Co1 1_555 1_555
C1A C2A 1_555 1_555
C2A C3A 1_555 1_555
C3A C4A 1_555 1_555
C4A C2 1_555 1_555
C5A O4A 1_555 1_555
H2A C5A 1_555 1_555
C6A N1A 1_555 1_555
H3A C6A 1_555 1_555
H4A C6A 1_555 1_555
H5A C6A 1_555 1_555
C7A N1A 1_555 1_555
H6A C7A 1_555 1_555
H7A C7A 1_555 1_555
H8A C7A 1_555 1_555
C8A O3A 1_555 1_555
H9A C8A 1_555 1_555
H10A C8A 1_555 1_555
H11A C8A 1_555 1_555

#END
