
#######################################################################
#
#                 Cambridge Crystallographic Data Centre
#                                CCDC 
#
#######################################################################
#
# If this CIF has been generated from an entry in the Cambridge 
# Structural Database, then it will include bibliographic, chemical, 
# crystal, experimental, refinement or atomic coordinate data resulting 
# from the CCDC's data processing and validation procedures.
#
#######################################################################

data_PADJIP
_symmetry_cell_setting           orthorhombic
_symmetry_space_group_name_H-M   'P b c a'
_symmetry_Int_Tables_number      61
_space_group_name_Hall           '-P 2ac 2ab'
loop_
_symmetry_equiv_pos_site_id
_symmetry_equiv_pos_as_xyz
1 x,y,z
2 1/2-x,-y,1/2+z
3 -x,1/2+y,1/2-z
4 1/2+x,1/2-y,-z
5 -x,-y,-z
6 1/2+x,y,1/2-z
7 x,1/2-y,1/2+z
8 1/2-x,1/2+y,z
_cell_length_a                   15.469(3)
_cell_length_b                   16.664(4)
_cell_length_c                   21.200(5)
_cell_angle_alpha                90
_cell_angle_beta                 90
_cell_angle_gamma                90
_cell_volume                     5464.84
loop_
_atom_site_label
_atom_site_type_symbol
_atom_site_fract_x
_atom_site_fract_y
_atom_site_fract_z
Tb1 Tb 0.432671(14) 0.231950(16) 0.379762(10)
O1 O 0.5696(2) 0.2144(2) 0.33439(17)
O2 O 0.4823(2) 0.1108(3) 0.3180(2)
O3 O 0.8250(2) 0.1257(2) 0.11974(16)
O4 O 0.8273(2) 0.2093(3) 0.20317(18)
O5 O 0.5514(2) -0.1440(2) 0.19030(16)
O6 O 0.6500(2) -0.1356(2) 0.12146(17)
O7 O 0.5103(3) 0.3284(3) 0.44443(17)
N1 N 0.3668(3) 0.2396(3) 0.49076(18)
N2 N 0.4993(3) 0.1406(3) 0.4697(2)
N3 N 0.6053(3) 0.3953(4) 0.5003(2)
C1 C 0.6040(3) 0.1036(3) 0.2602(2)
C2 C 0.6735(3) 0.1433(3) 0.2405(2)
H1 H 0.6880 0.1939 0.2559
C3 C 0.7227(3) 0.1044(3) 0.1959(2)
C4 C 0.7014(3) 0.0244(3) 0.1717(2)
H2 H 0.7369 0.0018 0.1411
C5 C 0.6324(3) -0.0180(3) 0.1921(2)
C6 C 0.5837(3) 0.0231(3) 0.2362(2)
H3 H 0.5344 -0.0020 0.2518
C7 C 0.5492(3) 0.1465(4) 0.3070(2)
C8 C 0.7971(3) 0.1495(3) 0.1722(2)
C9 C 0.6100(3) -0.1043(4) 0.1666(2)
C10 C 0.3007(4) 0.2844(4) 0.5016(3)
H4 H 0.2719 0.3067 0.4674
C11 C 0.2704(5) 0.3011(5) 0.5616(3)
H5 H 0.2215 0.3329 0.5668
C12 C 0.3111(5) 0.2717(5) 0.6117(3)
H6 H 0.2912 0.2833 0.6520
C13 C 0.3816(4) 0.2248(4) 0.6038(3)
C14 C 0.4289(5) 0.1912(6) 0.6557(3)
H7 H 0.4143 0.2044 0.6969
C15 C 0.4918(5) 0.1424(6) 0.6445(3)
H8 H 0.5210 0.1200 0.6786
C16 C 0.5184(4) 0.1214(5) 0.5827(3)
C17 C 0.5826(4) 0.0670(5) 0.5703(4)
H9 H 0.6107 0.0415 0.6035
C18 C 0.6052(4) 0.0502(5) 0.5102(4)
H10 H 0.6488 0.0133 0.5018
C19 C 0.5627(4) 0.0887(4) 0.4612(3)
H11 H 0.5798 0.0773 0.4201
C20 C 0.4765(4) 0.1568(4) 0.5306(2)
C21 C 0.4067(4) 0.2083(4) 0.5413(2)
C22 C 0.5784(4) 0.3554(4) 0.4506(3)
H12 H 0.6175 0.3483 0.4177
C23 C 0.6888(5) 0.4282(6) 0.5041(4)
H13 H 0.7200 0.4163 0.4661
H14 H 0.7187 0.4055 0.5395
H15 H 0.6846 0.4853 0.5092
C24 C 0.5548(6) 0.4098(9) 0.5537(4)
H16 H 0.4987 0.3862 0.5480
H17 H 0.5488 0.4666 0.5598
H18 H 0.5821 0.3865 0.5900
Tb1E Tb 0.932671(14) 0.231950(16) 0.120238(10)
Tb1B Tb 0.567329(14) -0.268050(16) 0.120238(10)
O3E O 0.3250(2) 0.1257(2) 0.38026(16)
O4E O 0.3273(2) 0.2093(3) 0.29683(18)
O5B O 0.4486(2) 0.3560(2) 0.30970(16)
O6B O 0.3500(2) 0.3644(2) 0.37854(17)
O8 O 0.2829(3) -0.0103(4) 0.6214(3)
N4 N 0.1876(4) 0.0432(4) 0.6870(3)
C25 C 0.2608(5) 0.0387(5) 0.6621(4)
H19 H 0.3022 0.0755 0.6754
C26 C 0.1699(6) 0.1021(6) 0.7374(4)
H20 H 0.2183 0.1378 0.7416
H21 H 0.1608 0.0744 0.7766
H22 H 0.1191 0.1324 0.7269
C27 C 0.1265(6) -0.0163(6) 0.6698(5)
H23 H 0.1495 -0.0484 0.6361
H24 H 0.0741 0.0091 0.6560
H25 H 0.1144 -0.0499 0.7055
loop_
_geom_bond_atom_site_label_1
_geom_bond_atom_site_label_2
_geom_bond_site_symmetry_1
_geom_bond_site_symmetry_2
Tb1 O1 1_555 1_555
O1 C7 1_555 1_555
O2 Tb1 1_555 1_555
O3 C8 1_555 1_555
O4 C8 1_555 1_555
O5 C9 1_555 1_555
O6 C9 1_555 1_555
O7 Tb1 1_555 1_555
O8 C25 1_555 1_555
N1 Tb1 1_555 1_555
N2 Tb1 1_555 1_555
N3 C22 1_555 1_555
N4 C25 1_555 1_555
C1 C2 1_555 1_555
C2 H1 1_555 1_555
C3 C2 1_555 1_555
C4 C3 1_555 1_555
H2 C4 1_555 1_555
C5 C4 1_555 1_555
C6 C1 1_555 1_555
H3 C6 1_555 1_555
C7 O2 1_555 1_555
C8 C3 1_555 1_555
C9 C5 1_555 1_555
C10 N1 1_555 1_555
H4 C10 1_555 1_555
C11 C10 1_555 1_555
H5 C11 1_555 1_555
C12 C11 1_555 1_555
H6 C12 1_555 1_555
C13 C12 1_555 1_555
C14 C13 1_555 1_555
H7 C14 1_555 1_555
C15 C14 1_555 1_555
H8 C15 1_555 1_555
C16 C15 1_555 1_555
C17 C16 1_555 1_555
H9 C17 1_555 1_555
C18 C17 1_555 1_555
H10 C18 1_555 1_555
C19 N2 1_555 1_555
H11 C19 1_555 1_555
C20 N2 1_555 1_555
C21 N1 1_555 1_555
C22 O7 1_555 1_555
H12 C22 1_555 1_555
C23 N3 1_555 1_555
H13 C23 1_555 1_555
H14 C23 1_555 1_555
H15 C23 1_555 1_555
C24 N3 1_555 1_555
H16 C24 1_555 1_555
H17 C24 1_555 1_555
H18 C24 1_555 1_555
C25 H19 1_555 1_555
C26 N4 1_555 1_555
H20 C26 1_555 1_555
H21 C26 1_555 1_555
H22 C26 1_555 1_555
C27 N4 1_555 1_555
H23 C27 1_555 1_555
H24 C27 1_555 1_555
H25 C27 1_555 1_555
Tb1E O3 1_555 1_555
Tb1B O5 1_555 1_555
O3E Tb1 1_555 1_555
O4E Tb1 1_555 1_555
O5B Tb1 1_555 1_555
O6B Tb1 1_555 1_555
O4 Tb1E 1_555 1_555
O6 Tb1B 1_555 1_555
C1 C7 1_555 1_555
C5 C6 1_555 1_555
C13 C21 1_555 1_555
C16 C20 1_555 1_555
C18 C19 1_555 1_555
C20 C21 1_555 1_555

#END
