
#######################################################################
#
#                 Cambridge Crystallographic Data Centre
#                                CCDC 
#
#######################################################################
#
# If this CIF has been generated from an entry in the Cambridge 
# Structural Database, then it will include bibliographic, chemical, 
# crystal, experimental, refinement or atomic coordinate data resulting 
# from the CCDC's data processing and validation procedures.
#
#######################################################################

data_PADJUB
_symmetry_cell_setting           orthorhombic
_symmetry_space_group_name_H-M   'P b c a'
_symmetry_Int_Tables_number      61
_space_group_name_Hall           '-P 2ac 2ab'
loop_
_symmetry_equiv_pos_site_id
_symmetry_equiv_pos_as_xyz
1 x,y,z
2 1/2-x,-y,1/2+z
3 -x,1/2+y,1/2-z
4 1/2+x,1/2-y,-z
5 -x,-y,-z
6 1/2+x,y,1/2-z
7 x,1/2-y,1/2+z
8 1/2-x,1/2+y,z
_cell_length_a                   15.5730(18)
_cell_length_b                   16.7083(19)
_cell_length_c                   21.320(3)
_cell_angle_alpha                90
_cell_angle_beta                 90
_cell_angle_gamma                90
_cell_volume                     5547.43
loop_
_atom_site_label
_atom_site_type_symbol
_atom_site_fract_x
_atom_site_fract_y
_atom_site_fract_z
Nd1 Nd 0.433944(8) 0.230122(8) 0.380290(6)
O1 O 0.57148(12) 0.21119(14) 0.33404(11)
O2 O 0.48492(14) 0.10616(15) 0.32010(12)
O3 O 0.82456(13) 0.12354(14) 0.11943(9)
O4 O 0.82792(14) 0.20588(15) 0.20366(11)
O5 O 0.55132(13) -0.14422(13) 0.19011(10)
O6 O 0.65023(14) -0.13645(14) 0.12145(10)
O7 O 0.51361(15) 0.32756(16) 0.44555(12)
N1 N 0.36841(16) 0.23856(16) 0.49273(12)
N2 N 0.50079(15) 0.13908(17) 0.47266(12)
N3 N 0.6072(2) 0.3963(3) 0.50147(16)
C1 C 0.60493(16) 0.10052(18) 0.26080(13)
C2 C 0.67510(16) 0.14019(18) 0.24120(14)
H1 H 0.6900 0.1902 0.2569
C3 C 0.72352(16) 0.10165(18) 0.19616(13)
C4 C 0.70220(16) 0.02206(18) 0.17148(13)
H2 H 0.7370 -0.0004 0.1407
C5 C 0.63339(17) -0.01942(17) 0.19227(13)
C6 C 0.58499(17) 0.02067(18) 0.23650(13)
H3 H 0.5363 -0.0048 0.2519
C7 C 0.55130(18) 0.14241(19) 0.30779(14)
C8 C 0.79700(17) 0.14657(18) 0.17201(13)
C9 C 0.61025(17) -0.10535(18) 0.16639(13)
C10 C 0.3021(2) 0.2835(2) 0.50277(18)
H4 H 0.2731 0.3048 0.4685
C11 C 0.2725(3) 0.3014(3) 0.5631(2)
H5 H 0.2239 0.3331 0.5680
C12 C 0.3132(3) 0.2732(3) 0.61357(19)
H6 H 0.2941 0.2858 0.6537
C13 C 0.3834(3) 0.2256(2) 0.60534(17)
C14 C 0.4295(3) 0.1924(4) 0.65660(17)
H7 H 0.4142 0.2059 0.6974
C15 C 0.4926(3) 0.1434(4) 0.64695(19)
H8 H 0.5215 0.1219 0.6812
C16 C 0.5191(2) 0.1213(3) 0.58499(18)
C17 C 0.5839(3) 0.0662(3) 0.5730(2)
H9 H 0.6122 0.0412 0.6061
C18 C 0.6054(2) 0.0493(3) 0.5137(2)
H10 H 0.6487 0.0124 0.5055
C19 C 0.5629(2) 0.0871(2) 0.46408(19)
H11 H 0.5794 0.0749 0.4233
C20 C 0.4780(2) 0.1555(2) 0.53277(14)
C21 C 0.4087(2) 0.2081(2) 0.54316(14)
C22 C 0.5808(2) 0.3558(3) 0.45180(17)
H12 H 0.6196 0.3496 0.4190
C23 C 0.6885(3) 0.4315(5) 0.5059(3)
H13 H 0.7206 0.4203 0.4685
H14 H 0.7183 0.4100 0.5415
H15 H 0.6824 0.4884 0.5107
C24 C 0.5557(4) 0.4080(6) 0.5551(3)
H16 H 0.5004 0.3841 0.5485
H17 H 0.5490 0.4643 0.5627
H18 H 0.5828 0.3835 0.5907
Nd1E Nd 0.933944(8) 0.230122(8) 0.119710(6)
Nd1B Nd 0.566056(8) -0.269878(8) 0.119710(6)
O3E O 0.32456(13) 0.12354(14) 0.38057(9)
O4E O 0.32792(14) 0.20588(15) 0.29634(11)
O5B O 0.44868(13) 0.35578(13) 0.30989(10)
O6B O 0.34977(14) 0.36355(14) 0.37855(10)
O8 O 0.2813(2) -0.0113(3) 0.62073(16)
N4 N 0.1901(2) 0.0465(3) 0.68720(18)
C25 C 0.2619(3) 0.0391(3) 0.6606(2)
H19 H 0.3046 0.0751 0.6722
C26 C 0.1736(4) 0.1074(4) 0.7358(3)
H20 H 0.2224 0.1423 0.7392
H21 H 0.1638 0.0815 0.7753
H22 H 0.1239 0.1381 0.7245
C27 C 0.1276(4) -0.0127(4) 0.6719(4)
H23 H 0.1487 -0.0457 0.6385
H24 H 0.0754 0.0130 0.6590
H25 H 0.1165 -0.0453 0.7081
loop_
_geom_bond_atom_site_label_1
_geom_bond_atom_site_label_2
_geom_bond_site_symmetry_1
_geom_bond_site_symmetry_2
Nd1 O1 1_555 1_555
O1 C7 1_555 1_555
O2 Nd1 1_555 1_555
O3 C8 1_555 1_555
O4 C8 1_555 1_555
O5 C9 1_555 1_555
O6 C9 1_555 1_555
O7 Nd1 1_555 1_555
O8 C25 1_555 1_555
N1 Nd1 1_555 1_555
N2 Nd1 1_555 1_555
N3 C22 1_555 1_555
N4 C25 1_555 1_555
C1 C2 1_555 1_555
C2 H1 1_555 1_555
C3 C2 1_555 1_555
C4 C3 1_555 1_555
H2 C4 1_555 1_555
C5 C4 1_555 1_555
C6 C1 1_555 1_555
H3 C6 1_555 1_555
C7 O2 1_555 1_555
C8 C3 1_555 1_555
C9 C5 1_555 1_555
C10 N1 1_555 1_555
H4 C10 1_555 1_555
C11 C10 1_555 1_555
H5 C11 1_555 1_555
C12 C11 1_555 1_555
H6 C12 1_555 1_555
C13 C12 1_555 1_555
C14 C13 1_555 1_555
H7 C14 1_555 1_555
C15 C14 1_555 1_555
H8 C15 1_555 1_555
C16 C15 1_555 1_555
C17 C16 1_555 1_555
H9 C17 1_555 1_555
C18 C17 1_555 1_555
H10 C18 1_555 1_555
C19 N2 1_555 1_555
H11 C19 1_555 1_555
C20 N2 1_555 1_555
C21 N1 1_555 1_555
C22 O7 1_555 1_555
H12 C22 1_555 1_555
C23 N3 1_555 1_555
H13 C23 1_555 1_555
H14 C23 1_555 1_555
H15 C23 1_555 1_555
C24 N3 1_555 1_555
H16 C24 1_555 1_555
H17 C24 1_555 1_555
H18 C24 1_555 1_555
C25 H19 1_555 1_555
C26 N4 1_555 1_555
H20 C26 1_555 1_555
H21 C26 1_555 1_555
H22 C26 1_555 1_555
C27 N4 1_555 1_555
H23 C27 1_555 1_555
H24 C27 1_555 1_555
H25 C27 1_555 1_555
Nd1E O3 1_555 1_555
Nd1B O5 1_555 1_555
O3E Nd1 1_555 1_555
O4E Nd1 1_555 1_555
O5B Nd1 1_555 1_555
O6B Nd1 1_555 1_555
O4 Nd1E 1_555 1_555
O6 Nd1B 1_555 1_555
C1 C7 1_555 1_555
C5 C6 1_555 1_555
C13 C21 1_555 1_555
C16 C20 1_555 1_555
C18 C19 1_555 1_555
C20 C21 1_555 1_555

#END
