
#######################################################################
#
#                 Cambridge Crystallographic Data Centre
#                                CCDC 
#
#######################################################################
#
# If this CIF has been generated from an entry in the Cambridge 
# Structural Database, then it will include bibliographic, chemical, 
# crystal, experimental, refinement or atomic coordinate data resulting 
# from the CCDC's data processing and validation procedures.
#
#######################################################################

data_PADJOV
_symmetry_cell_setting           orthorhombic
_symmetry_space_group_name_H-M   'P b c a'
_symmetry_Int_Tables_number      61
_space_group_name_Hall           '-P 2ac 2ab'
loop_
_symmetry_equiv_pos_site_id
_symmetry_equiv_pos_as_xyz
1 x,y,z
2 1/2-x,-y,1/2+z
3 -x,1/2+y,1/2-z
4 1/2+x,1/2-y,-z
5 -x,-y,-z
6 1/2+x,y,1/2-z
7 x,1/2-y,1/2+z
8 1/2-x,1/2+y,z
_cell_length_a                   15.473(2)
_cell_length_b                   16.662(2)
_cell_length_c                   21.184(3)
_cell_angle_alpha                90
_cell_angle_beta                 90
_cell_angle_gamma                90
_cell_volume                     5461.47
loop_
_atom_site_label
_atom_site_type_symbol
_atom_site_fract_x
_atom_site_fract_y
_atom_site_fract_z
Eu1 Eu 0.432642(9) 0.232047(10) 0.379742(6)
O1 O 0.56960(15) 0.21473(15) 0.33431(11)
O2 O 0.48179(16) 0.11098(18) 0.31771(14)
O3 O 0.82522(14) 0.12568(16) 0.11956(11)
O4 O 0.82706(16) 0.20969(17) 0.20334(13)
O5 O 0.55151(14) -0.14402(15) 0.19052(11)
O6 O 0.65008(16) -0.13589(15) 0.12152(12)
O7 O 0.51017(17) 0.32846(18) 0.44475(13)
N1 N 0.36688(18) 0.23992(19) 0.49068(13)
N2 N 0.49952(18) 0.14037(19) 0.46984(14)
N3 N 0.6057(2) 0.3954(3) 0.50035(17)
C1 C 0.60368(19) 0.1038(2) 0.26025(15)
C2 C 0.6740(2) 0.1436(2) 0.24092(16)
H1 H 0.6889 0.1938 0.2567
C3 C 0.72290(19) 0.1045(2) 0.19559(15)
C4 C 0.70168(19) 0.0241(2) 0.17153(15)
H2 H 0.7370 0.0014 0.1408
C5 C 0.63289(19) -0.0179(2) 0.19232(15)
C6 C 0.58380(19) 0.0230(2) 0.23627(15)
H3 H 0.5346 -0.0023 0.2518
C7 C 0.5485(2) 0.1465(2) 0.30679(16)
C8 C 0.79676(19) 0.1497(2) 0.17195(16)
C9 C 0.6102(2) -0.1045(2) 0.16653(15)
C10 C 0.3001(3) 0.2843(3) 0.5012(2)
H4 H 0.2710 0.3063 0.4669
C11 C 0.2700(3) 0.3005(3) 0.5616(2)
H5 H 0.2206 0.3316 0.5667
C12 C 0.3110(3) 0.2721(3) 0.6122(2)
H6 H 0.2915 0.2844 0.6526
C13 C 0.3817(3) 0.2249(3) 0.60403(18)
C14 C 0.4283(4) 0.1919(4) 0.65556(19)
H7 H 0.4136 0.2058 0.6967
C15 C 0.4912(3) 0.1427(4) 0.6452(2)
H8 H 0.5198 0.1203 0.6796
C16 C 0.5186(3) 0.1211(3) 0.5826(2)
C17 C 0.5831(3) 0.0660(4) 0.5702(3)
H9 H 0.6114 0.0405 0.6033
C18 C 0.6049(3) 0.0494(3) 0.5100(3)
H10 H 0.6482 0.0122 0.5014
C19 C 0.5621(2) 0.0882(3) 0.4607(2)
H11 H 0.5786 0.0767 0.4194
C20 C 0.4770(2) 0.1563(2) 0.53057(16)
C21 C 0.4070(2) 0.2085(2) 0.54096(16)
C22 C 0.5788(2) 0.3548(3) 0.45075(18)
H12 H 0.6180 0.3466 0.4181
C23 C 0.6882(3) 0.4285(5) 0.5046(3)
H13 H 0.7198 0.4169 0.4667
H14 H 0.7179 0.4059 0.5402
H15 H 0.6837 0.4856 0.5097
C24 C 0.5545(4) 0.4095(6) 0.5542(3)
H16 H 0.4985 0.3858 0.5482
H17 H 0.5483 0.4663 0.5605
H18 H 0.5817 0.3860 0.5904
Eu1E Eu 0.932642(9) 0.232047(10) 0.120258(6)
Eu1B Eu 0.567358(9) -0.267953(10) 0.120258(6)
O3E O 0.32522(14) 0.12568(16) 0.38044(11)
O4E O 0.32706(16) 0.20969(17) 0.29666(13)
O5B O 0.44849(14) 0.35598(15) 0.30948(11)
O6B O 0.34992(16) 0.36411(15) 0.37848(12)
O8 O 0.2829(2) -0.0105(3) 0.62136(18)
N4 N 0.1879(3) 0.0439(3) 0.6874(2)
C25 C 0.2608(3) 0.0386(4) 0.6623(2)
H19 H 0.3025 0.0751 0.6755
C26 C 0.1698(4) 0.1027(4) 0.7376(3)
H20 H 0.2180 0.1385 0.7419
H21 H 0.1604 0.0751 0.7768
H22 H 0.1190 0.1329 0.7268
C27 C 0.1273(4) -0.0166(4) 0.6698(4)
H23 H 0.1509 -0.0483 0.6361
H24 H 0.0746 0.0083 0.6559
H25 H 0.1155 -0.0504 0.7054
loop_
_geom_bond_atom_site_label_1
_geom_bond_atom_site_label_2
_geom_bond_site_symmetry_1
_geom_bond_site_symmetry_2
Eu1 O1 1_555 1_555
O1 C7 1_555 1_555
O2 Eu1 1_555 1_555
O3 C8 1_555 1_555
O4 C8 1_555 1_555
O5 C9 1_555 1_555
O6 C9 1_555 1_555
O7 Eu1 1_555 1_555
O8 C25 1_555 1_555
N1 Eu1 1_555 1_555
N2 Eu1 1_555 1_555
N3 C22 1_555 1_555
N4 C25 1_555 1_555
C1 C2 1_555 1_555
C2 H1 1_555 1_555
C3 C2 1_555 1_555
C4 C3 1_555 1_555
H2 C4 1_555 1_555
C5 C4 1_555 1_555
C6 C1 1_555 1_555
H3 C6 1_555 1_555
C7 O2 1_555 1_555
C8 C3 1_555 1_555
C9 C5 1_555 1_555
C10 N1 1_555 1_555
H4 C10 1_555 1_555
C11 C10 1_555 1_555
H5 C11 1_555 1_555
C12 C11 1_555 1_555
H6 C12 1_555 1_555
C13 C12 1_555 1_555
C14 C13 1_555 1_555
H7 C14 1_555 1_555
C15 C14 1_555 1_555
H8 C15 1_555 1_555
C16 C15 1_555 1_555
C17 C16 1_555 1_555
H9 C17 1_555 1_555
C18 C17 1_555 1_555
H10 C18 1_555 1_555
C19 N2 1_555 1_555
H11 C19 1_555 1_555
C20 N2 1_555 1_555
C21 N1 1_555 1_555
C22 O7 1_555 1_555
H12 C22 1_555 1_555
C23 N3 1_555 1_555
H13 C23 1_555 1_555
H14 C23 1_555 1_555
H15 C23 1_555 1_555
C24 N3 1_555 1_555
H16 C24 1_555 1_555
H17 C24 1_555 1_555
H18 C24 1_555 1_555
C25 H19 1_555 1_555
C26 N4 1_555 1_555
H20 C26 1_555 1_555
H21 C26 1_555 1_555
H22 C26 1_555 1_555
C27 N4 1_555 1_555
H23 C27 1_555 1_555
H24 C27 1_555 1_555
H25 C27 1_555 1_555
Eu1E O3 1_555 1_555
Eu1B O5 1_555 1_555
O3E Eu1 1_555 1_555
O4E Eu1 1_555 1_555
O5B Eu1 1_555 1_555
O6B Eu1 1_555 1_555
O4 Eu1E 1_555 1_555
O6 Eu1B 1_555 1_555
C1 C7 1_555 1_555
C5 C6 1_555 1_555
C13 C21 1_555 1_555
C16 C20 1_555 1_555
C18 C19 1_555 1_555
C20 C21 1_555 1_555

#END
