
#######################################################################
#
#                 Cambridge Crystallographic Data Centre
#                                CCDC 
#
#######################################################################
#
# If this CIF has been generated from an entry in the Cambridge 
# Structural Database, then it will include bibliographic, chemical, 
# crystal, experimental, refinement or atomic coordinate data resulting 
# from the CCDC's data processing and validation procedures.
#
#######################################################################

data_PADKUB
_symmetry_cell_setting           triclinic
_symmetry_space_group_name_H-M   'P -1'
_symmetry_Int_Tables_number      2
_space_group_name_Hall           '-P 1'
loop_
_symmetry_equiv_pos_site_id
_symmetry_equiv_pos_as_xyz
1 x,y,z
2 -x,-y,-z
_cell_length_a                   8.7892(6)
_cell_length_b                   9.1380(6)
_cell_length_c                   11.5214(8)
_cell_angle_alpha                74.8690(10)
_cell_angle_beta                 81.7220(10)
_cell_angle_gamma                82.1450(10)
_cell_volume                     879.194
loop_
_atom_site_label
_atom_site_type_symbol
_atom_site_fract_x
_atom_site_fract_y
_atom_site_fract_z
Fe1 Fe 0.16328(4) 0.29733(5) 0.06448(3)
O1 O 0.1689(2) 0.0595(2) 0.12980(18)
O2 O 0.3070(3) -0.1503(3) 0.2232(3)
O3 O 0.9231(2) 0.3042(2) 0.09291(17)
O4 O 0.7685(2) 0.4845(2) -0.01723(17)
N1 N 0.4130(3) 0.2132(3) 0.0658(2)
N2 N 0.1567(3) 0.3091(3) -0.12680(19)
N3 N 0.1536(3) 0.3173(3) -0.7454(2)
C1 C 0.4348(3) 0.0704(3) 0.1348(3)
C2 C 0.5746(4) 0.0103(4) 0.1758(3)
H1 H 0.5882 -0.0933 0.2224
C3 C 0.6965(4) 0.1006(4) 0.1482(3)
H2 H 0.7938 0.0620 0.1790
C4 C 0.6764(3) 0.2460(3) 0.0758(2)
C5 C 0.5330(3) 0.2958(3) 0.0342(2)
H3 H 0.5196 0.3948 -0.0203
C6 C 0.2924(4) -0.0158(4) 0.1660(3)
C7 C 0.8008(3) 0.3533(3) 0.0476(2)
C8 C 0.2520(4) 0.3904(4) -0.2150(3)
H4 H 0.3241 0.4448 -0.1921
C9 C 0.2512(4) 0.3987(4) -0.3363(3)
H5 H 0.3221 0.4577 -0.3956
C10 C 0.1480(3) 0.3209(3) -0.3721(2)
C11 C 0.0486(3) 0.2388(4) -0.2812(3)
H6 H -0.0252 0.1838 -0.3014
C12 C 0.0569(3) 0.2355(4) -0.1618(2)
H7 H -0.0128 0.1776 -0.1005
C13 C 0.1464(3) 0.3227(4) -0.5012(2)
C14 C 0.2314(5) 0.4165(5) -0.5930(3)
H8 H 0.2913 0.4861 -0.5745
C15 C 0.2308(5) 0.4107(5) -0.7110(3)
H9 H 0.2893 0.4797 -0.7733
C16 C 0.0679(5) 0.2309(5) -0.6564(3)
H10 H 0.0069 0.1643 -0.6775
C17 C 0.0615(5) 0.2309(5) -0.5372(3)
H11 H -0.0032 0.1651 -0.4776
O3_2 O -0.0769(2) 0.3042(2) 0.09291(17)
O4A O 0.2315(2) 0.5155(2) 0.01723(17)
N3_2 N 0.1536(3) 0.3173(3) 0.2546(2)
Fe1_2 Fe 1.16328(4) 0.29733(5) 0.06448(3)
Fe1A Fe 0.83672(4) 0.70267(5) -0.06448(3)
Fe1_3 Fe 0.16328(4) 0.29733(5) -0.93552(3)
O5 O 0.3820(5) 0.7187(4) 0.4552(3)
H12 H 0.3576 0.7570 0.3797
C18 C 0.3820(9) 0.8294(7) 0.5223(6)
H13 H 0.4552 0.7979 0.5665
H14 H 0.2993 0.8369 0.5698
H15 H 0.4008 0.9167 0.4782
loop_
_geom_bond_atom_site_label_1
_geom_bond_atom_site_label_2
_geom_bond_site_symmetry_1
_geom_bond_site_symmetry_2
Fe1 O1 1_555 1_555
O1 C6 1_555 1_555
O2 C6 1_555 1_555
O3 C7 1_555 1_555
O4 C7 1_555 1_555
N1 Fe1 1_555 1_555
N2 Fe1 1_555 1_555
N3 C15 1_555 1_555
C1 N1 1_555 1_555
C2 C1 1_555 1_555
H1 C2 1_555 1_555
C3 C2 1_555 1_555
H2 C3 1_555 1_555
C4 C3 1_555 1_555
C5 N1 1_555 1_555
H3 C5 1_555 1_555
C6 C1 1_555 1_555
C7 C4 1_555 1_555
C8 N2 1_555 1_555
H4 C8 1_555 1_555
C9 C8 1_555 1_555
H5 C9 1_555 1_555
C10 C9 1_555 1_555
C11 C10 1_555 1_555
H6 C11 1_555 1_555
C12 N2 1_555 1_555
H7 C12 1_555 1_555
C13 C10 1_555 1_555
C14 C13 1_555 1_555
H8 C14 1_555 1_555
C15 C14 1_555 1_555
H9 C15 1_555 1_555
C16 N3 1_555 1_555
H10 C16 1_555 1_555
C17 C13 1_555 1_555
H11 C17 1_555 1_555
O5 H12 1_555 1_555
C18 O5 1_555 1_555
H13 C18 1_555 1_555
H14 C18 1_555 1_555
H15 C18 1_555 1_555
O3_2 Fe1 1_555 1_555
O4A Fe1 1_555 1_555
N3_2 Fe1 1_555 1_555
Fe1_2 O3 1_555 1_555
Fe1A O4 1_555 1_555
Fe1_3 N3 1_555 1_555
C4 C5 1_555 1_555
C11 C12 1_555 1_555
C16 C17 1_555 1_555

#END
