
#######################################################################
#
#                 Cambridge Crystallographic Data Centre
#                                CCDC 
#
#######################################################################
#
# If this CIF has been generated from an entry in the Cambridge 
# Structural Database, then it will include bibliographic, chemical, 
# crystal, experimental, refinement or atomic coordinate data resulting 
# from the CCDC's data processing and validation procedures.
#
#######################################################################

data_PADLIQ
_symmetry_cell_setting           triclinic
_symmetry_space_group_name_H-M   'P -1'
_symmetry_Int_Tables_number      2
_space_group_name_Hall           '-P 1'
loop_
_symmetry_equiv_pos_site_id
_symmetry_equiv_pos_as_xyz
1 x,y,z
2 -x,-y,-z
_cell_length_a                   8.887(7)
_cell_length_b                   9.295(7)
_cell_length_c                   10.827(8)
_cell_angle_alpha                110.446(12)
_cell_angle_beta                 90.927(11)
_cell_angle_gamma                100.388(11)
_cell_volume                     821.235
loop_
_atom_site_label
_atom_site_type_symbol
_atom_site_fract_x
_atom_site_fract_y
_atom_site_fract_z
Fe1 Fe -0.33387(11) 0.60972(13) -0.10844(10)
O1 O -0.3253(5) 0.7436(7) -0.2283(6)
O2 O -0.1842(7) 0.8308(11) -0.3690(9)
O3 O 0.4253(5) 0.5763(7) -0.1388(5)
O4 O 0.2704(5) 0.5277(6) 0.0088(5)
N1 N -0.0832(6) 0.6755(7) -0.1328(6)
N2 N -0.3486(7) 0.3921(7) -0.2908(6)
N3 N -0.3371(6) -0.2097(8) -0.9115(6)
C1 C -0.2016(9) 0.7683(11) -0.2842(10)
C2 C -0.0680(8) 0.7129(11) -0.2422(9)
C3 C 0.0653(10) 0.7073(14) -0.3070(11)
H1 H 0.0750 0.7373 -0.3804
C4 C 0.1853(9) 0.6556(13) -0.2608(9)
H2 H 0.2724 0.6431 -0.3069
C5 C 0.1735(8) 0.6232(9) -0.1452(8)
C6 C 0.0371(7) 0.6368(9) -0.0839(7)
H3 H 0.0289 0.6177 -0.0053
C7 C -0.4418(9) 0.3722(10) -0.3936(8)
H4 H -0.5053 0.4439 -0.3853
C8 C -0.4506(9) 0.2503(10) -0.5133(8)
H5 H -0.5198 0.2408 -0.5824
C9 C -0.3568(8) 0.1416(9) -0.5308(8)
C10 C -0.2643(10) 0.1601(11) -0.4192(8)
H6 H -0.2022 0.0884 -0.4229
C11 C -0.2637(10) 0.2844(10) -0.3032(8)
H7 H -0.2015 0.2930 -0.2301
C12 C -0.3529(8) 0.0170(9) -0.6616(7)
C13 C -0.4510(9) -0.0030(10) -0.7695(8)
H8 H -0.5264 0.0568 -0.7601
C14 C 0.3012(7) 0.5727(9) -0.0855(7)
C15 C -0.2422(10) -0.1865(12) -0.8069(9)
H9 H -0.1658 -0.2454 -0.8189
C16 C -0.4363(9) -0.1127(10) -0.8922(8)
H10 H -0.4986 -0.1194 -0.9646
C17 C -0.2498(10) -0.0818(12) -0.6823(9)
H11 H -0.1857 -0.0780 -0.6120
N3_2 N -0.3371(6) 0.7903(8) 0.0885(6)
Fe1_2 Fe -0.33387(11) -0.39028(13) -1.10844(10)
Fe1A Fe 0.33387(11) 0.39028(13) 0.10844(10)
O3_2 O -0.5747(5) 0.5763(7) -0.1388(5)
O4A O -0.2704(5) 0.4723(6) -0.0088(5)
Fe1_3 Fe 0.66613(11) 0.60972(13) -0.10844(10)
loop_
_geom_bond_atom_site_label_1
_geom_bond_atom_site_label_2
_geom_bond_site_symmetry_1
_geom_bond_site_symmetry_2
Fe1 O1 1_555 1_555
O1 C1 1_555 1_555
O2 C1 1_555 1_555
O3 C14 1_555 1_555
O4 C14 1_555 1_555
N1 Fe1 1_555 1_555
N2 Fe1 1_555 1_555
N3 C15 1_555 1_555
C1 C2 1_555 1_555
C2 N1 1_555 1_555
C3 C2 1_555 1_555
H1 C3 1_555 1_555
C4 C3 1_555 1_555
H2 C4 1_555 1_555
C5 C4 1_555 1_555
C6 N1 1_555 1_555
H3 C6 1_555 1_555
C7 N2 1_555 1_555
H4 C7 1_555 1_555
C8 C7 1_555 1_555
H5 C8 1_555 1_555
C9 C8 1_555 1_555
C10 C9 1_555 1_555
H6 C10 1_555 1_555
C11 N2 1_555 1_555
H7 C11 1_555 1_555
C12 C9 1_555 1_555
C13 C12 1_555 1_555
H8 C13 1_555 1_555
C14 C5 1_555 1_555
C15 H9 1_555 1_555
C16 N3 1_555 1_555
H10 C16 1_555 1_555
C17 C12 1_555 1_555
H11 C17 1_555 1_555
N3_2 Fe1 1_555 1_555
Fe1_2 N3 1_555 1_555
Fe1A O4 1_555 1_555
O3_2 Fe1 1_555 1_555
O4A Fe1 1_555 1_555
Fe1_3 O3 1_555 1_555
C5 C6 1_555 1_555
C10 C11 1_555 1_555
C13 C16 1_555 1_555
C15 C17 1_555 1_555

#END
