
#######################################################################
#
#                 Cambridge Crystallographic Data Centre
#                                CCDC 
#
#######################################################################
#
# If this CIF has been generated from an entry in the Cambridge 
# Structural Database, then it will include bibliographic, chemical, 
# crystal, experimental, refinement or atomic coordinate data resulting 
# from the CCDC's data processing and validation procedures.
#
#######################################################################

data_PADLIQ01
_symmetry_cell_setting           triclinic
_symmetry_space_group_name_H-M   'P -1'
_symmetry_Int_Tables_number      2
_space_group_name_Hall           '-P 1'
loop_
_symmetry_equiv_pos_site_id
_symmetry_equiv_pos_as_xyz
1 x,y,z
2 -x,-y,-z
_cell_length_a                   8.851(3)
_cell_length_b                   9.249(3)
_cell_length_c                   10.747(4)
_cell_angle_alpha                110.358(6)
_cell_angle_beta                 91.181(6)
_cell_angle_gamma                100.645(6)
_cell_volume                     807.186
loop_
_atom_site_label
_atom_site_type_symbol
_atom_site_fract_x
_atom_site_fract_y
_atom_site_fract_z
Fe1 Fe -0.33396(4) -0.39073(4) -0.10860(3)
O1 O -0.32456(19) -0.2566(2) -0.22912(18)
O2 O -0.1856(3) -0.1704(3) -0.3693(3)
O3 O 0.42544(18) -0.4242(2) -0.13971(17)
O4 O 0.27144(19) -0.4718(2) 0.00913(16)
N1 N -0.3339(2) -0.2056(3) 0.0867(2)
N2 N -0.0816(2) -0.3244(2) -0.1324(2)
N3 N -0.3491(2) 0.3923(2) 0.71105(19)
C1 C -0.2021(3) -0.2325(4) -0.2855(3)
C2 C -0.0664(3) -0.2876(3) -0.2418(3)
C3 C 0.0379(3) -0.3643(3) -0.0847(2)
H1 H 0.0298 -0.3848 -0.0060
C4 C 0.1737(3) -0.3769(3) -0.1458(2)
C5 C 0.1848(3) -0.3463(4) -0.2618(3)
H2 H 0.2727 -0.3569 -0.3073
C6 C 0.0637(3) -0.2994(4) -0.3100(3)
H3 H 0.0700 -0.2761 -0.3875
C7 C 0.3018(3) -0.4286(3) -0.0873(2)
C8 C -0.2415(3) -0.1868(4) 0.1930(3)
H4 H -0.1677 -0.2489 0.1817
C9 C -0.2487(4) -0.0814(4) 0.3180(3)
H5 H -0.1829 -0.0761 0.3888
C10 C -0.3532(3) 0.0171(3) 0.3395(2)
C11 C -0.4503(3) -0.0034(3) 0.2294(2)
H6 H -0.5251 0.0572 0.2381
C12 C -0.4365(3) -0.1128(3) 0.1075(2)
H7 H -0.5027 -0.1228 0.0353
C13 C -0.3571(3) 0.1407(3) 0.4698(2)
C14 C -0.2627(3) 0.1605(3) 0.5814(2)
H8 H -0.1996 0.0893 0.5776
C15 C -0.2623(3) 0.2850(3) 0.6973(2)
H9 H -0.1978 0.2953 0.7707
C16 C -0.4437(3) 0.3699(3) 0.6052(2)
H10 H -0.5087 0.4403 0.6128
C17 C -0.4508(3) 0.2491(3) 0.4859(2)
H11 H -0.5189 0.2397 0.4151
N3_2 N -0.3491(2) -0.6077(2) -0.28895(19)
Fe1_2 Fe -0.33396(4) 0.60927(4) 0.89140(3)
Fe1A Fe 0.33396(4) -0.60927(4) 0.10860(3)
O3_2 O -0.57456(18) -0.4242(2) -0.13971(17)
O4A O -0.27144(19) -0.5282(2) -0.00913(16)
Fe1_3 Fe 0.66604(4) -0.39073(4) -0.10860(3)
loop_
_geom_bond_atom_site_label_1
_geom_bond_atom_site_label_2
_geom_bond_site_symmetry_1
_geom_bond_site_symmetry_2
Fe1 O1 1_555 1_555
O1 C1 1_555 1_555
O2 C1 1_555 1_555
O3 C7 1_555 1_555
O4 C7 1_555 1_555
N1 Fe1 1_555 1_555
N2 Fe1 1_555 1_555
N3 C15 1_555 1_555
C1 C2 1_555 1_555
C2 N2 1_555 1_555
C3 N2 1_555 1_555
H1 C3 1_555 1_555
C4 C3 1_555 1_555
C5 C4 1_555 1_555
H2 C5 1_555 1_555
C6 C2 1_555 1_555
H3 C6 1_555 1_555
C7 C4 1_555 1_555
C8 N1 1_555 1_555
H4 C8 1_555 1_555
C9 C8 1_555 1_555
H5 C9 1_555 1_555
C10 C9 1_555 1_555
C11 C10 1_555 1_555
H6 C11 1_555 1_555
C12 N1 1_555 1_555
H7 C12 1_555 1_555
C13 C10 1_555 1_555
C14 C13 1_555 1_555
H8 C14 1_555 1_555
C15 C14 1_555 1_555
H9 C15 1_555 1_555
C16 N3 1_555 1_555
H10 C16 1_555 1_555
C17 C13 1_555 1_555
H11 C17 1_555 1_555
N3_2 Fe1 1_555 1_555
Fe1_2 N3 1_555 1_555
Fe1A O4 1_555 1_555
O3_2 Fe1 1_555 1_555
O4A Fe1 1_555 1_555
Fe1_3 O3 1_555 1_555
C5 C6 1_555 1_555
C11 C12 1_555 1_555
C16 C17 1_555 1_555

#END
