
#######################################################################
#
#                 Cambridge Crystallographic Data Centre
#                                CCDC 
#
#######################################################################
#
# If this CIF has been generated from an entry in the Cambridge 
# Structural Database, then it will include bibliographic, chemical, 
# crystal, experimental, refinement or atomic coordinate data resulting 
# from the CCDC's data processing and validation procedures.
#
#######################################################################

data_PADPAM
_symmetry_cell_setting           triclinic
_symmetry_space_group_name_H-M   'P -1'
_symmetry_Int_Tables_number      2
_space_group_name_Hall           '-P 1'
loop_
_symmetry_equiv_pos_site_id
_symmetry_equiv_pos_as_xyz
1 x,y,z
2 -x,-y,-z
_cell_length_a                   10.347(5)
_cell_length_b                   20.500(9)
_cell_length_c                   23.426(10)
_cell_angle_alpha                102.858(7)
_cell_angle_beta                 95.683(7)
_cell_angle_gamma                103.896(7)
_cell_volume                     4641.16
loop_
_atom_site_label
_atom_site_type_symbol
_atom_site_fract_x
_atom_site_fract_y
_atom_site_fract_z
Cd1 Cd 1.33096(4) 0.84160(2) 0.298750(18)
Cd2 Cd 1.18852(4) 0.65572(2) 0.196450(17)
Cd3 Cd 0.81469(4) 0.84128(2) -0.189140(18)
Cd4 Cd 1.67472(4) 0.66375(2) 0.695360(18)
C1 C 1.4716(6) 0.7827(3) 0.4512(2)
C2 C 1.3758(6) 0.7514(3) 0.4821(2)
H1 H 1.2849 0.7474 0.4708
C3 C 1.4153(6) 0.7264(3) 0.5293(2)
H2 H 1.3514 0.7057 0.5498
C4 C 1.5513(6) 0.7327(3) 0.5459(2)
C5 C 1.6460(6) 0.7646(3) 0.5161(2)
H3 H 1.7371 0.7693 0.5276
C6 C 1.6048(6) 0.7898(3) 0.4687(3)
H4 H 1.6688 0.8116 0.4489
C7 C 1.4265(7) 0.8088(3) 0.3993(2)
C8 C 1.5926(7) 0.7055(3) 0.5983(3)
C9 C 0.9018(5) 0.7726(3) 0.2540(2)
C10 C 0.8310(5) 0.7127(3) 0.2112(3)
H5 H 0.8781 0.6862 0.1885
C11 C 0.6913(5) 0.6915(3) 0.2017(2)
H6 H 0.6455 0.6509 0.1731
C12 C 0.6197(5) 0.7311(3) 0.2349(2)
C13 C 0.6882(5) 0.7920(3) 0.2769(3)
H7 H 0.6409 0.8189 0.2991
C14 C 0.8283(5) 0.8124(3) 0.2857(3)
H8 H 0.8741 0.8537 0.3134
C15 C 1.0529(4) 0.7938(3) 0.2667(2)
C16 C 0.4680(5) 0.7074(3) 0.2243(2)
C17 C 1.0522(5) 0.7164(3) 0.0452(2)
C18 C 0.9154(6) 0.7046(3) 0.0276(2)
H9 H 0.8545 0.6790 0.0464
C19 C 0.8682(6) 0.7304(3) -0.0173(2)
H10 H 0.7758 0.7214 -0.0291
C20 C 0.9578(5) 0.7697(3) -0.0453(2)
C21 C 1.0945(5) 0.7827(3) -0.0274(2)
H11 H 1.1550 0.8103 -0.0450
C22 C 1.1430(5) 0.7549(3) 0.0170(2)
H12 H 1.2353 0.7620 0.0276
C23 C 1.1032(6) 0.6906(3) 0.0964(2)
C24 C 0.9062(6) 0.7984(3) -0.0939(2)
C25 C 1.3855(5) 0.7697(3) 0.7676(2)
C26 C 1.3179(5) 0.7126(3) 0.7219(3)
H13 H 1.3662 0.6874 0.6988
C27 C 1.1769(5) 0.6927(3) 0.7103(3)
H14 H 1.1317 0.6539 0.6798
C28 C 1.1040(5) 0.7307(3) 0.7443(2)
C29 C 1.1714(5) 0.7878(3) 0.7902(2)
H15 H 1.1233 0.8133 0.8132
C30 C 1.3123(5) 0.8071(3) 0.8018(2)
H16 H 1.3576 0.8455 0.8327
C31 C 1.5374(5) 0.7933(3) 0.7804(3)
C32 C 0.9534(5) 0.7100(3) 0.7291(2)
C33 C 1.3483(6) 0.9118(4) 0.1305(3)
H17 H 1.3358 0.9062 0.0896
C34 C 1.3874(6) 0.9732(3) 0.1719(3)
H18 H 1.4066 1.0174 0.1655
C35 C 1.3928(5) 0.9565(3) 0.2265(3)
C36 C 1.4274(5) 0.9987(3) 0.2872(3)
C37 C 1.4704(6) 1.0709(3) 0.3002(3)
H19 H 1.4749 1.0933 0.2698
C38 C 1.5060(7) 1.1086(4) 0.3582(4)
H20 H 1.5346 1.1568 0.3675
C39 C 1.4991(7) 1.0743(4) 0.4021(3)
H21 H 1.5216 1.0990 0.4418
C40 C 1.1682(6) 0.5941(4) 0.3699(3)
H22 H 1.1795 0.6016 0.4109
C41 C 1.1238(6) 0.5317(4) 0.3295(3)
H23 H 1.0995 0.4880 0.3371
C42 C 1.1225(5) 0.5469(3) 0.2740(2)
C43 C 1.0801(5) 0.5010(3) 0.2144(3)
C44 C 1.0278(6) 0.4300(3) 0.2042(3)
H24 H 1.0198 0.4095 0.2358
C45 C 0.9878(7) 0.3900(4) 0.1470(3)
H25 H 0.9545 0.3421 0.1394
C46 C 0.9974(6) 0.4212(3) 0.1013(3)
H26 H 0.9688 0.3952 0.0622
C47 C 1.0503(6) 0.4921(3) 0.1144(3)
H27 H 1.0584 0.5133 0.0832
C48 C 0.8428(6) 0.9221(3) -0.3525(3)
H28 H 0.8332 0.9186 -0.3931
C49 C 0.8833(5) 0.9821(3) -0.3084(3)
H29 H 0.9065 1.0272 -0.3127
C50 C 0.8828(5) 0.9618(3) -0.2549(3)
C51 C 0.9181(5) 1.0015(3) -0.1935(3)
C52 C 0.9731(6) 1.0727(3) -0.1771(3)
H30 H 0.9869 1.0972 -0.2060
C53 C 1.0072(7) 1.1070(4) -0.1183(4)
H31 H 1.0429 1.1550 -0.1068
C54 C 0.9882(7) 1.0700(4) -0.0765(3)
H32 H 1.0097 1.0924 -0.0363
C55 C 0.9364(6) 0.9987(4) -0.0953(3)
H33 H 0.9257 0.9735 -0.0668
C56 C 1.6479(6) 0.5783(3) 0.8560(3)
H34 H 1.6574 0.5804 0.8963
C57 C 1.6094(6) 0.5195(3) 0.8108(3)
H35 H 1.5881 0.4737 0.8136
C58 C 1.6087(5) 0.5427(3) 0.7597(3)
C59 C 1.5723(5) 0.5027(3) 0.6969(3)
C60 C 1.5280(6) 0.4297(3) 0.6793(3)
H36 H 1.5234 0.4040 0.7074
C61 C 1.4919(6) 0.3973(4) 0.6206(4)
H37 H 1.4613 0.3491 0.6084
C62 C 1.5007(6) 0.4358(4) 0.5792(3)
H38 H 1.4753 0.4142 0.5389
C63 C 1.5477(6) 0.5065(3) 0.5988(3)
H39 H 1.5565 0.5323 0.5707
C99 C 1.4591(6) 1.0036(4) 0.3872(3)
H89 H 1.4583 0.9808 0.4173
N1 N 1.3306(4) 0.8599(3) 0.1582(2)
H90 H 1.3060 0.8163 0.1407
N2 N 1.3572(4) 0.8866(2) 0.2170(2)
N3 N 1.4203(4) 0.9652(2) 0.3303(2)
N4 N 1.1929(4) 0.6434(3) 0.3399(2)
H91 H 1.2218 0.6872 0.3562
N5 N 1.1665(4) 0.6149(2) 0.2806(2)
N6 N 1.0904(4) 0.5316(2) 0.1695(2)
N7 N 1.6695(4) 0.6324(3) 0.8319(2)
H92 H 1.6946 0.6751 0.8520
N8 N 1.6469(5) 0.6114(3) 0.7717(2)
N9 N 1.5818(4) 0.5407(3) 0.6563(2)
N10 N 0.8193(4) 0.8690(3) -0.3268(2)
H93 H 0.7917 0.8259 -0.3458
N11 N 0.8445(4) 0.8920(2) -0.2677(2)
N12 N 0.9008(4) 0.9642(2) -0.1526(2)
O1 O 1.5104(4) 0.8501(2) 0.38072(17)
O2 O 1.3033(4) 0.7860(2) 0.37544(17)
O3 O 1.7152(4) 0.7284(2) 0.62298(17)
O4 O 1.5074(4) 0.6635(2) 0.61516(18)
O5 O 1.1167(3) 0.75113(19) 0.24480(16)
O6 O 1.1114(3) 0.85262(19) 0.29863(17)
O7 O 0.4098(3) 0.64764(19) 0.19124(16)
O8 O 0.4002(3) 0.7456(2) 0.24890(16)
O9 O 1.0248(4) 0.6442(2) 0.11255(17)
O10 O 1.2243(4) 0.7183(2) 0.12125(16)
O11 O 0.7856(4) 0.7723(2) -0.12000(17)
O12 O 0.9849(4) 0.8468(2) -0.10820(17)
O13 O 1.6039(3) 0.7557(2) 0.75256(16)
O14 O 1.5945(3) 0.8494(2) 0.81742(17)
O15 O 0.8947(3) 0.65318(19) 0.69254(16)
O16 O 0.8870(3) 0.7492(2) 0.75372(16)
C9_2 C 1.9018(5) 0.7726(3) 0.2540(2)
C10_2 C 1.8310(5) 0.7127(3) 0.2112(3)
H5_2 H 1.8781 0.6862 0.1885
C11_2 C 1.6913(5) 0.6915(3) 0.2017(2)
H6_2 H 1.6455 0.6509 0.1731
C12_2 C 1.6197(5) 0.7311(3) 0.2349(2)
C13_2 C 1.6882(5) 0.7920(3) 0.2769(3)
H7_2 H 1.6409 0.8189 0.2991
C14_2 C 1.8283(5) 0.8124(3) 0.2857(3)
H8_2 H 1.8741 0.8537 0.3134
C15_2 C 2.0529(4) 0.7938(3) 0.2667(2)
C16_2 C 1.4680(5) 0.7074(3) 0.2243(2)
O5_2 O 2.1167(3) 0.75113(19) 0.24480(16)
O6_2 O 2.1114(3) 0.85262(19) 0.29863(17)
O7_2 O 1.4098(3) 0.64764(19) 0.19124(16)
O8_2 O 1.4002(3) 0.7456(2) 0.24890(16)
Cd1_2 Cd 2.33096(4) 0.84160(2) 0.298750(18)
Cd2_2 Cd 2.18852(4) 0.65572(2) 0.196450(17)
C25_2 C 2.3855(5) 0.7697(3) 0.7676(2)
C26_2 C 2.3179(5) 0.7126(3) 0.7219(3)
H13_2 H 2.3662 0.6874 0.6988
C27_2 C 2.1769(5) 0.6927(3) 0.7103(3)
H14_2 H 2.1317 0.6539 0.6798
C28_2 C 2.1040(5) 0.7307(3) 0.7443(2)
C29_2 C 2.1714(5) 0.7878(3) 0.7902(2)
H15_2 H 2.1233 0.8133 0.8132
C30_2 C 2.3123(5) 0.8071(3) 0.8018(2)
H16_2 H 2.3576 0.8455 0.8327
C31_2 C 2.5374(5) 0.7933(3) 0.7804(3)
C32_2 C 1.9534(5) 0.7100(3) 0.7291(2)
O13_2 O 2.6039(3) 0.7557(2) 0.75256(16)
O14_2 O 2.5945(3) 0.8494(2) 0.81742(17)
O15_2 O 1.8947(3) 0.65318(19) 0.69254(16)
O16_2 O 1.8870(3) 0.7492(2) 0.75372(16)
C33_2 C 2.3483(6) 0.9118(4) 0.1305(3)
H17_2 H 2.3358 0.9062 0.0896
C34_2 C 2.3874(6) 0.9732(3) 0.1719(3)
H18_2 H 2.4066 1.0174 0.1655
C35_2 C 2.3928(5) 0.9565(3) 0.2265(3)
C36_2 C 2.4274(5) 0.9987(3) 0.2872(3)
C37_2 C 2.4704(6) 1.0709(3) 0.3002(3)
H19_2 H 2.4749 1.0933 0.2698
C38_2 C 2.5060(7) 1.1086(4) 0.3582(4)
H20_2 H 2.5346 1.1568 0.3675
C39_2 C 2.4991(7) 1.0743(4) 0.4021(3)
H21_2 H 2.5216 1.0990 0.4418
C99_2 C 2.4591(6) 1.0036(4) 0.3872(3)
H89_2 H 2.4583 0.9808 0.4173
N1_2 N 2.3306(4) 0.8599(3) 0.1582(2)
H90_2 H 2.3060 0.8163 0.1407
N2_2 N 2.3572(4) 0.8866(2) 0.2170(2)
N3_2 N 2.4203(4) 0.9652(2) 0.3303(2)
C1_2 C 2.4716(6) 0.7827(3) 0.4512(2)
C2_2 C 2.3758(6) 0.7514(3) 0.4821(2)
H1_2 H 2.2849 0.7474 0.4708
C3_2 C 2.4153(6) 0.7264(3) 0.5293(2)
H2_2 H 2.3514 0.7057 0.5498
C4_2 C 2.5513(6) 0.7327(3) 0.5459(2)
C5_2 C 2.6460(6) 0.7646(3) 0.5161(2)
H3_2 H 2.7371 0.7693 0.5276
C6_2 C 2.6048(6) 0.7898(3) 0.4687(3)
H4_2 H 2.6688 0.8116 0.4489
C7_2 C 2.4265(7) 0.8088(3) 0.3993(2)
C8_2 C 2.5926(7) 0.7055(3) 0.5983(3)
O1_2 O 2.5104(4) 0.8501(2) 0.38072(17)
O2_2 O 2.3033(4) 0.7860(2) 0.37544(17)
O3_2 O 2.7152(4) 0.7284(2) 0.62298(17)
O4_2 O 2.5074(4) 0.6635(2) 0.61516(18)
C40_2 C 2.1682(6) 0.5941(4) 0.3699(3)
H22_2 H 2.1795 0.6016 0.4109
C41_2 C 2.1238(6) 0.5317(4) 0.3295(3)
H23_2 H 2.0995 0.4880 0.3371
C42_2 C 2.1225(5) 0.5469(3) 0.2740(2)
C43_2 C 2.0801(5) 0.5010(3) 0.2144(3)
C44_2 C 2.0278(6) 0.4300(3) 0.2042(3)
H24_2 H 2.0198 0.4095 0.2358
C45_2 C 1.9878(7) 0.3900(4) 0.1470(3)
H25_2 H 1.9545 0.3421 0.1394
C46_2 C 1.9974(6) 0.4212(3) 0.1013(3)
H26_2 H 1.9688 0.3952 0.0622
C47_2 C 2.0503(6) 0.4921(3) 0.1144(3)
H27_2 H 2.0584 0.5133 0.0832
N4_2 N 2.1929(4) 0.6434(3) 0.3399(2)
H91_2 H 2.2218 0.6872 0.3562
N5_2 N 2.1665(4) 0.6149(2) 0.2806(2)
N6_2 N 2.0904(4) 0.5316(2) 0.1695(2)
C17_2 C 2.0522(5) 0.7164(3) 0.0452(2)
C18_2 C 1.9154(6) 0.7046(3) 0.0276(2)
H9_2 H 1.8545 0.6790 0.0464
C19_2 C 1.8682(6) 0.7304(3) -0.0173(2)
H10_2 H 1.7758 0.7214 -0.0291
C20_2 C 1.9578(5) 0.7697(3) -0.0453(2)
C21_2 C 2.0945(5) 0.7827(3) -0.0274(2)
H11_2 H 2.1550 0.8103 -0.0450
C22_2 C 2.1430(5) 0.7549(3) 0.0170(2)
H12_2 H 2.2353 0.7620 0.0276
C23_2 C 2.1032(6) 0.6906(3) 0.0964(2)
C24_2 C 1.9062(6) 0.7984(3) -0.0939(2)
O9_2 O 2.0248(4) 0.6442(2) 0.11255(17)
O10_2 O 2.2243(4) 0.7183(2) 0.12125(16)
O11_2 O 1.7856(4) 0.7723(2) -0.12000(17)
O12_2 O 1.9849(4) 0.8468(2) -0.10820(17)
Cd3_2 Cd 1.81469(4) 0.84128(2) -0.189140(18)
Cd4_2 Cd 2.67472(4) 0.66375(2) 0.695360(18)
C48_2 C 1.8428(6) 0.9221(3) -0.3525(3)
H28_2 H 1.8332 0.9186 -0.3931
C49_2 C 1.8833(5) 0.9821(3) -0.3084(3)
H29_2 H 1.9065 1.0272 -0.3127
C50_2 C 1.8828(5) 0.9618(3) -0.2549(3)
C51_2 C 1.9181(5) 1.0015(3) -0.1935(3)
C52_2 C 1.9731(6) 1.0727(3) -0.1771(3)
H30_2 H 1.9869 1.0972 -0.2060
C53_2 C 2.0072(7) 1.1070(4) -0.1183(4)
H31_2 H 2.0429 1.1550 -0.1068
C54_2 C 1.9882(7) 1.0700(4) -0.0765(3)
H32_2 H 2.0097 1.0924 -0.0363
C55_2 C 1.9364(6) 0.9987(4) -0.0953(3)
H33_2 H 1.9257 0.9735 -0.0668
N10_2 N 1.8193(4) 0.8690(3) -0.3268(2)
H93_2 H 1.7917 0.8259 -0.3458
N11_2 N 1.8445(4) 0.8920(2) -0.2677(2)
N12_2 N 1.9008(4) 0.9642(2) -0.1526(2)
C56_2 C 2.6479(6) 0.5783(3) 0.8560(3)
H34_2 H 2.6574 0.5804 0.8963
C57_2 C 2.6094(6) 0.5195(3) 0.8108(3)
H35_2 H 2.5881 0.4737 0.8136
C58_2 C 2.6087(5) 0.5427(3) 0.7597(3)
C59_2 C 2.5723(5) 0.5027(3) 0.6969(3)
C60_2 C 2.5280(6) 0.4297(3) 0.6793(3)
H36_2 H 2.5234 0.4040 0.7074
C61_2 C 2.4919(6) 0.3973(4) 0.6206(4)
H37_2 H 2.4613 0.3491 0.6084
C62_2 C 2.5007(6) 0.4358(4) 0.5792(3)
H38_2 H 2.4753 0.4142 0.5389
C63_2 C 2.5477(6) 0.5065(3) 0.5988(3)
H39_2 H 2.5565 0.5323 0.5707
N7_2 N 2.6695(4) 0.6324(3) 0.8319(2)
H92_2 H 2.6946 0.6751 0.8520
N8_2 N 2.6469(5) 0.6114(3) 0.7717(2)
N9_2 N 2.5818(4) 0.5407(3) 0.6563(2)
O13_3 O 0.6039(3) 0.7557(2) -0.24744(16)
O14_3 O 0.5945(3) 0.8494(2) -0.18258(17)
O16_3 O 0.8870(3) 0.7492(2) -0.24628(16)
Cd2_3 Cd 0.18852(4) 0.65572(2) 0.196450(17)
Cd1_3 Cd 0.33096(4) 0.84160(2) 0.298750(18)
Cd3_3 Cd 1.81469(4) 0.84128(2) 0.810860(18)
Cd4_3 Cd 0.67472(4) 0.66375(2) 0.695360(18)
Cd3_4 Cd 0.81469(4) 0.84128(2) 0.810860(18)
O8_3 O 2.4002(3) 0.7456(2) 0.24890(16)
O7_3 O 2.4098(3) 0.64764(19) 0.19124(16)
Cd3_5 Cd 2.81469(4) 0.84128(2) 0.810860(18)
O13_4 O 1.6039(3) 0.7557(2) -0.24744(16)
O14_4 O 1.5945(3) 0.8494(2) -0.18258(17)
O16_4 O 1.8870(3) 0.7492(2) -0.24628(16)
O15_3 O 2.8947(3) 0.65318(19) 0.69254(16)
O16_5 O 2.8870(3) 0.7492(2) 0.75372(16)
C64 C 0.8572(7) 0.5820(5) 0.4785(3)
C65 C 0.8145(7) 0.5148(4) 0.4489(4)
C66 C 0.7878(7) 0.4963(4) 0.3883(4)
H40 H 0.7587 0.4493 0.3689
C67 C 0.8020(8) 0.5440(7) 0.3547(4)
C68 C 0.8444(8) 0.6119(6) 0.3841(5)
C69 C 0.8708(7) 0.6318(4) 0.4449(4)
H41 H 0.8982 0.6789 0.4642
C70 C 0.8887(9) 0.6072(6) 0.5455(4)
H42 H 0.8752 0.5680 0.5624
H43 H 0.8301 0.6350 0.5594
H44 H 0.9809 0.6346 0.5572
C71 C 0.7940(8) 0.4575(4) 0.4820(4)
H45 H 0.8179 0.4781 0.5240
H46 H 0.8501 0.4276 0.4699
H47 H 0.7012 0.4309 0.4730
C72 C 0.7682(8) 0.5177(6) 0.2879(3)
H48 H 0.7826 0.5565 0.2704
H49 H 0.6754 0.4911 0.2769
H50 H 0.8251 0.4889 0.2740
C73 C 0.8620(8) 0.6701(6) 0.3518(5)
H51 H 0.8407 0.6501 0.3098
H52 H 0.9537 0.6983 0.3618
H53 H 0.8027 0.6983 0.3637
C74 C 0.8786(8) 0.0964(6) 0.4912(4)
C75 C 0.8274(8) 0.0279(5) 0.4600(5)
C76 C 0.8010(8) 0.0123(6) 0.4010(5)
H54 H 0.7695 -0.0346 0.3812
C77 C 0.8150(11) 0.0558(10) 0.3688(5)
C78 C 0.8627(10) 0.1238(8) 0.3954(8)
C79 C 0.8960(9) 0.1450(5) 0.4581(6)
H55 H 0.9299 0.1920 0.4771
C80 C 0.9146(12) 0.1213(8) 0.5573(4)
H56 H 0.9468 0.1711 0.5685
H57 H 0.9838 0.1018 0.5707
H58 H 0.8362 0.1070 0.5750
C81 C 0.8038(9) -0.0275(6) 0.4952(6)
H59 H 0.7694 -0.0727 0.4682
H60 H 0.7399 -0.0193 0.5210
H61 H 0.8876 -0.0252 0.5183
C82 C 0.7785(10) 0.0240(9) 0.3007(4)
H62 H 0.7488 -0.0257 0.2926
H63 H 0.8565 0.0372 0.2825
H64 H 0.7076 0.0410 0.2849
C83 C 0.8835(10) 0.1779(8) 0.3597(7)
H65 H 0.8559 0.1553 0.3183
H66 H 0.9771 0.2030 0.3668
H67 H 0.8305 0.2096 0.3716
C84 C 0.4479(7) 0.1884(4) 1.0082(3)
C85 C 0.4134(8) 0.1240(5) 1.0205(4)
H68 H 0.4312 0.1224 1.0598
C86 C 0.3544(8) 0.0619(5) 0.9786(5)
C87 C 0.3336(7) 0.0640(5) 0.9204(4)
C88 C 0.3629(7) 0.1272(5) 0.9055(3)
H69 H 0.3434 0.1281 0.8661
C89 C 0.4220(7) 0.1904(4) 0.9491(3)
C90 C 0.5155(7) 0.2522(4) 1.0571(3)
H70 H 0.5235 0.2397 1.0942
H71 H 0.4626 0.2850 1.0590
H72 H 0.6036 0.2727 1.0495
C91 C 0.3202(9) -0.0056(5) 0.9969(5)
H73 H 0.2802 -0.0433 0.9626
H74 H 0.2577 -0.0035 1.0245
H75 H 0.4010 -0.0127 1.0154
C92 C 0.2734(8) -0.0002(5) 0.8709(5)
H76 H 0.2591 -0.0404 0.8866
H77 H 0.3337 -0.0036 0.8425
H78 H 0.1887 0.0023 0.8519
C93 C 0.4541(8) 0.2583(4) 0.9318(4)
H79 H 0.4300 0.2497 0.8896
H80 H 0.5489 0.2807 0.9432
H81 H 0.4040 0.2878 0.9515
C94 C 0.2795(7) 0.5652(4) 0.0137(3)
H82 H 0.2253 0.5572 -0.0242
H83 H 0.3155 0.6143 0.0306
H84 H 0.2249 0.5454 0.0397
C95 C 0.3942(6) 0.5317(3) 0.0059(3)
C96 C 0.4871(6) 0.5362(3) 0.0540(3)
H85 H 0.4777 0.5607 0.0912
C97 C 0.4061(6) 0.4938(3) -0.0502(3)
C98 C 0.3084(7) 0.4872(4) -0.1045(3)
H86 H 0.2418 0.5109 -0.0934
H87 H 0.3562 0.5074 -0.1322
H88 H 0.2650 0.4389 -0.1226
C97A C 0.5939(6) 0.5062(3) 0.0502(3)
C95A C 0.6058(6) 0.4683(3) -0.0059(3)
C94A C 0.7205(7) 0.4348(4) -0.0137(3)
H82A H 0.7747 0.4428 0.0242
H83A H 0.6845 0.3857 -0.0306
H84A H 0.7751 0.4546 -0.0397
C96A C 0.5129(6) 0.4638(3) -0.0540(3)
H85A H 0.5223 0.4393 -0.0912
C98A C 0.6916(7) 0.5128(4) 0.1045(3)
H86A H 0.7582 0.4891 0.0934
H87A H 0.6438 0.4926 0.1322
H88A H 0.7350 0.5611 0.1226
loop_
_geom_bond_atom_site_label_1
_geom_bond_atom_site_label_2
_geom_bond_site_symmetry_1
_geom_bond_site_symmetry_2
Cd1 N2 1_555 1_555
Cd2 N5 1_555 1_555
Cd3 N11 1_555 1_555
Cd4 N8 1_555 1_555
C1 C2 1_555 1_555
C2 H1 1_555 1_555
C3 C2 1_555 1_555
H2 C3 1_555 1_555
C4 C3 1_555 1_555
C5 C4 1_555 1_555
H3 C5 1_555 1_555
C6 C1 1_555 1_555
H4 C6 1_555 1_555
C7 C1 1_555 1_555
C8 C4 1_555 1_555
C9 C10 1_555 1_555
C10 H5 1_555 1_555
C11 C10 1_555 1_555
H6 C11 1_555 1_555
C12 C11 1_555 1_555
C13 C12 1_555 1_555
H7 C13 1_555 1_555
C14 C9 1_555 1_555
H8 C14 1_555 1_555
C15 C9 1_555 1_555
C16 C12 1_555 1_555
C17 C18 1_555 1_555
C18 H9 1_555 1_555
C19 C18 1_555 1_555
H10 C19 1_555 1_555
C20 C19 1_555 1_555
C21 C20 1_555 1_555
H11 C21 1_555 1_555
C22 C17 1_555 1_555
H12 C22 1_555 1_555
C23 C17 1_555 1_555
C24 C20 1_555 1_555
C25 C26 1_555 1_555
C26 H13 1_555 1_555
C27 C26 1_555 1_555
H14 C27 1_555 1_555
C28 C27 1_555 1_555
C29 C28 1_555 1_555
H15 C29 1_555 1_555
C30 C25 1_555 1_555
H16 C30 1_555 1_555
C31 C25 1_555 1_555
C32 C28 1_555 1_555
C33 H17 1_555 1_555
C34 C33 1_555 1_555
H18 C34 1_555 1_555
C35 C34 1_555 1_555
C36 C35 1_555 1_555
C37 C36 1_555 1_555
H19 C37 1_555 1_555
C38 C37 1_555 1_555
H20 C38 1_555 1_555
C39 C38 1_555 1_555
H21 C39 1_555 1_555
C40 H22 1_555 1_555
C41 C40 1_555 1_555
H23 C41 1_555 1_555
C42 C41 1_555 1_555
C43 C42 1_555 1_555
C44 C43 1_555 1_555
H24 C44 1_555 1_555
C45 C44 1_555 1_555
H25 C45 1_555 1_555
C46 C45 1_555 1_555
H26 C46 1_555 1_555
C47 C46 1_555 1_555
H27 C47 1_555 1_555
C48 H28 1_555 1_555
C49 C48 1_555 1_555
H29 C49 1_555 1_555
C50 C49 1_555 1_555
C51 C50 1_555 1_555
C52 C51 1_555 1_555
H30 C52 1_555 1_555
C53 C52 1_555 1_555
H31 C53 1_555 1_555
C54 C53 1_555 1_555
H32 C54 1_555 1_555
C55 C54 1_555 1_555
H33 C55 1_555 1_555
C56 H34 1_555 1_555
C57 C56 1_555 1_555
H35 C57 1_555 1_555
C58 C57 1_555 1_555
C59 C58 1_555 1_555
C60 C59 1_555 1_555
H36 C60 1_555 1_555
C61 C60 1_555 1_555
H37 C61 1_555 1_555
C62 C61 1_555 1_555
H38 C62 1_555 1_555
C63 C62 1_555 1_555
H39 C63 1_555 1_555
C64 C65 1_555 1_555
C65 C66 1_555 1_555
C66 H40 1_555 1_555
C67 C66 1_555 1_555
C68 C67 1_555 1_555
C69 C64 1_555 1_555
H41 C69 1_555 1_555
C70 C64 1_555 1_555
H42 C70 1_555 1_555
H43 C70 1_555 1_555
H44 C70 1_555 1_555
C71 C65 1_555 1_555
H45 C71 1_555 1_555
H46 C71 1_555 1_555
H47 C71 1_555 1_555
C72 C67 1_555 1_555
H48 C72 1_555 1_555
H49 C72 1_555 1_555
H50 C72 1_555 1_555
C73 C68 1_555 1_555
H51 C73 1_555 1_555
H52 C73 1_555 1_555
H53 C73 1_555 1_555
C74 C75 1_555 1_555
C75 C76 1_555 1_555
C76 H54 1_555 1_555
C77 C76 1_555 1_555
C78 C77 1_555 1_555
C79 C74 1_555 1_555
H55 C79 1_555 1_555
C80 C74 1_555 1_555
H56 C80 1_555 1_555
H57 C80 1_555 1_555
H58 C80 1_555 1_555
C81 C75 1_555 1_555
H59 C81 1_555 1_555
H60 C81 1_555 1_555
H61 C81 1_555 1_555
C82 C77 1_555 1_555
H62 C82 1_555 1_555
H63 C82 1_555 1_555
H64 C82 1_555 1_555
C83 C78 1_555 1_555
H65 C83 1_555 1_555
H66 C83 1_555 1_555
H67 C83 1_555 1_555
C84 C85 1_555 1_555
C85 H68 1_555 1_555
C86 C85 1_555 1_555
C87 C86 1_555 1_555
C88 C87 1_555 1_555
H69 C88 1_555 1_555
C89 C84 1_555 1_555
C90 C84 1_555 1_555
H70 C90 1_555 1_555
H71 C90 1_555 1_555
H72 C90 1_555 1_555
C91 C86 1_555 1_555
H73 C91 1_555 1_555
H74 C91 1_555 1_555
H75 C91 1_555 1_555
C92 C87 1_555 1_555
H76 C92 1_555 1_555
H77 C92 1_555 1_555
H78 C92 1_555 1_555
C93 C89 1_555 1_555
H79 C93 1_555 1_555
H80 C93 1_555 1_555
H81 C93 1_555 1_555
C94 H82 1_555 1_555
H83 C94 1_555 1_555
H84 C94 1_555 1_555
C95 C94 1_555 1_555
C96 C95 1_555 1_555
H85 C96 1_555 1_555
C97 C95 1_555 1_555
C98 C97 1_555 1_555
H86 C98 1_555 1_555
H87 C98 1_555 1_555
H88 C98 1_555 1_555
C99 C39 1_555 1_555
H89 C99 1_555 1_555
N1 C33 1_555 1_555
H90 N1 1_555 1_555
N2 C35 1_555 1_555
N3 Cd1 1_555 1_555
N4 C40 1_555 1_555
H91 N4 1_555 1_555
N5 C42 1_555 1_555
N6 Cd2 1_555 1_555
N7 C56 1_555 1_555
H92 N7 1_555 1_555
N8 C58 1_555 1_555
N9 Cd4 1_555 1_555
N10 C48 1_555 1_555
H93 N10 1_555 1_555
N11 C50 1_555 1_555
N12 Cd3 1_555 1_555
O1 Cd1 1_555 1_555
O2 Cd1 1_555 1_555
O3 Cd4 1_555 1_555
O4 Cd4 1_555 1_555
O5 Cd1 1_555 1_555
O6 Cd1 1_555 1_555
O7 C16 1_555 1_555
O8 C16 1_555 1_555
O9 Cd2 1_555 1_555
O10 Cd2 1_555 1_555
O11 Cd3 1_555 1_555
O12 Cd3 1_555 1_555
O13 Cd4 1_555 1_555
O14 C31 1_555 1_555
O15 C32 1_555 1_555
O16 C32 1_555 1_555
C97A C96 1_555 1_555
C95A C97A 1_555 1_555
C94A C95A 1_555 1_555
H82A C94A 1_555 1_555
H83A C94A 1_555 1_555
H84A C94A 1_555 1_555
C96A C97 1_555 1_555
H85A C96A 1_555 1_555
C98A C97A 1_555 1_555
H86A C98A 1_555 1_555
H87A C98A 1_555 1_555
H88A C98A 1_555 1_555
C9_2 C10_2 1_555 1_555
C10_2 H5_2 1_555 1_555
C11_2 C10_2 1_555 1_555
H6_2 C11_2 1_555 1_555
C12_2 C11_2 1_555 1_555
C13_2 C12_2 1_555 1_555
H7_2 C13_2 1_555 1_555
C14_2 C9_2 1_555 1_555
H8_2 C14_2 1_555 1_555
C15_2 C9_2 1_555 1_555
C16_2 C12_2 1_555 1_555
O5_2 C15_2 1_555 1_555
O6_2 C15_2 1_555 1_555
O7_2 Cd2 1_555 1_555
O8_2 Cd1 1_555 1_555
Cd1_2 O5_2 1_555 1_555
Cd2_2 O5_2 1_555 1_555
C25_2 C26_2 1_555 1_555
C26_2 H13_2 1_555 1_555
C27_2 C26_2 1_555 1_555
H14_2 C27_2 1_555 1_555
C28_2 C27_2 1_555 1_555
C29_2 C28_2 1_555 1_555
H15_2 C29_2 1_555 1_555
C30_2 C25_2 1_555 1_555
H16_2 C30_2 1_555 1_555
C31_2 C25_2 1_555 1_555
C32_2 C28_2 1_555 1_555
O13_2 C31_2 1_555 1_555
O14_2 C31_2 1_555 1_555
O15_2 Cd4 1_555 1_555
O16_2 Cd4 1_555 1_555
C33_2 H17_2 1_555 1_555
C34_2 C33_2 1_555 1_555
H18_2 C34_2 1_555 1_555
C35_2 C34_2 1_555 1_555
C36_2 C35_2 1_555 1_555
C37_2 C36_2 1_555 1_555
H19_2 C37_2 1_555 1_555
C38_2 C37_2 1_555 1_555
H20_2 C38_2 1_555 1_555
C39_2 C38_2 1_555 1_555
H21_2 C39_2 1_555 1_555
C99_2 C39_2 1_555 1_555
H89_2 C99_2 1_555 1_555
N1_2 C33_2 1_555 1_555
H90_2 N1_2 1_555 1_555
N2_2 Cd1_2 1_555 1_555
N3_2 Cd1_2 1_555 1_555
C1_2 C2_2 1_555 1_555
C2_2 H1_2 1_555 1_555
C3_2 C2_2 1_555 1_555
H2_2 C3_2 1_555 1_555
C4_2 C3_2 1_555 1_555
C5_2 C4_2 1_555 1_555
H3_2 C5_2 1_555 1_555
C6_2 C1_2 1_555 1_555
H4_2 C6_2 1_555 1_555
C7_2 C1_2 1_555 1_555
C8_2 C4_2 1_555 1_555
O1_2 Cd1_2 1_555 1_555
O2_2 Cd1_2 1_555 1_555
O3_2 C8_2 1_555 1_555
O4_2 C8_2 1_555 1_555
C40_2 H22_2 1_555 1_555
C41_2 C40_2 1_555 1_555
H23_2 C41_2 1_555 1_555
C42_2 C41_2 1_555 1_555
C43_2 C42_2 1_555 1_555
C44_2 C43_2 1_555 1_555
H24_2 C44_2 1_555 1_555
C45_2 C44_2 1_555 1_555
H25_2 C45_2 1_555 1_555
C46_2 C45_2 1_555 1_555
H26_2 C46_2 1_555 1_555
C47_2 C46_2 1_555 1_555
H27_2 C47_2 1_555 1_555
N4_2 C40_2 1_555 1_555
H91_2 N4_2 1_555 1_555
N5_2 Cd2_2 1_555 1_555
N6_2 Cd2_2 1_555 1_555
C17_2 C18_2 1_555 1_555
C18_2 H9_2 1_555 1_555
C19_2 C18_2 1_555 1_555
H10_2 C19_2 1_555 1_555
C20_2 C19_2 1_555 1_555
C21_2 C20_2 1_555 1_555
H11_2 C21_2 1_555 1_555
C22_2 C17_2 1_555 1_555
H12_2 C22_2 1_555 1_555
C23_2 C17_2 1_555 1_555
C24_2 C20_2 1_555 1_555
O9_2 Cd2_2 1_555 1_555
O10_2 Cd2_2 1_555 1_555
O11_2 C24_2 1_555 1_555
O12_2 C24_2 1_555 1_555
Cd3_2 O11_2 1_555 1_555
Cd4_2 O13_2 1_555 1_555
C48_2 H28_2 1_555 1_555
C49_2 C48_2 1_555 1_555
H29_2 C49_2 1_555 1_555
C50_2 C49_2 1_555 1_555
C51_2 C50_2 1_555 1_555
C52_2 C51_2 1_555 1_555
H30_2 C52_2 1_555 1_555
C53_2 C52_2 1_555 1_555
H31_2 C53_2 1_555 1_555
C54_2 C53_2 1_555 1_555
H32_2 C54_2 1_555 1_555
C55_2 C54_2 1_555 1_555
H33_2 C55_2 1_555 1_555
N10_2 C48_2 1_555 1_555
H93_2 N10_2 1_555 1_555
N11_2 Cd3_2 1_555 1_555
N12_2 Cd3_2 1_555 1_555
C56_2 H34_2 1_555 1_555
C57_2 C56_2 1_555 1_555
H35_2 C57_2 1_555 1_555
C58_2 C57_2 1_555 1_555
C59_2 C58_2 1_555 1_555
C60_2 C59_2 1_555 1_555
H36_2 C60_2 1_555 1_555
C61_2 C60_2 1_555 1_555
H37_2 C61_2 1_555 1_555
C62_2 C61_2 1_555 1_555
H38_2 C62_2 1_555 1_555
C63_2 C62_2 1_555 1_555
H39_2 C63_2 1_555 1_555
N7_2 C56_2 1_555 1_555
H92_2 N7_2 1_555 1_555
N8_2 Cd4_2 1_555 1_555
N9_2 Cd4_2 1_555 1_555
O13_3 Cd3 1_555 1_555
O14_3 Cd3 1_555 1_555
O16_3 Cd3 1_555 1_555
Cd2_3 O7 1_555 1_555
Cd1_3 O8 1_555 1_555
Cd3_3 O13 1_555 1_555
Cd4_3 O15 1_555 1_555
Cd3_4 O16 1_555 1_555
O8_3 Cd1_2 1_555 1_555
O7_3 Cd2_2 1_555 1_555
Cd3_5 O13_2 1_555 1_555
O13_4 Cd3_2 1_555 1_555
O14_4 Cd3_2 1_555 1_555
O16_4 Cd3_2 1_555 1_555
O15_3 Cd4_2 1_555 1_555
O16_5 Cd4_2 1_555 1_555
Cd2 O5 1_555 1_555
Cd2 O8_2 1_555 1_555
C5 C6 1_555 1_555
C7 O1 1_555 1_555
C7 O2 1_555 1_555
C8 O3 1_555 1_555
C8 O4 1_555 1_555
C13 C14 1_555 1_555
C15 O5 1_555 1_555
C15 O6 1_555 1_555
C21 C22 1_555 1_555
C23 O9 1_555 1_555
C23 O10 1_555 1_555
C24 O11 1_555 1_555
C24 O12 1_555 1_555
C29 C30 1_555 1_555
C31 O13 1_555 1_555
C36 N3 1_555 1_555
C43 N6 1_555 1_555
C47 N6 1_555 1_555
C51 N12 1_555 1_555
C55 N12 1_555 1_555
C59 N9 1_555 1_555
C63 N9 1_555 1_555
C68 C69 1_555 1_555
C78 C79 1_555 1_555
C88 C89 1_555 1_555
C99 N3 1_555 1_555
N1 N2 1_555 1_555
N4 N5 1_555 1_555
N7 N8 1_555 1_555
N10 N11 1_555 1_555
O8 Cd2_3 1_555 1_555
O14 Cd3_3 1_555 1_555
O16 Cd4_3 1_555 1_555
C95A C96A 1_555 1_555
C13_2 C14_2 1_555 1_555
C16_2 O7_2 1_555 1_555
C16_2 O8_2 1_555 1_555
O6_2 Cd1_2 1_555 1_555
Cd2_2 O8_3 1_555 1_555
C29_2 C30_2 1_555 1_555
C32_2 O15_2 1_555 1_555
C32_2 O16_2 1_555 1_555
O14_2 Cd3_5 1_555 1_555
O16_2 Cd3_3 1_555 1_555
C35_2 N2_2 1_555 1_555
C36_2 N3_2 1_555 1_555
C99_2 N3_2 1_555 1_555
N1_2 N2_2 1_555 1_555
C5_2 C6_2 1_555 1_555
C7_2 O1_2 1_555 1_555
C7_2 O2_2 1_555 1_555
O3_2 Cd4_2 1_555 1_555
O4_2 Cd4_2 1_555 1_555
C42_2 N5_2 1_555 1_555
C43_2 N6_2 1_555 1_555
C47_2 N6_2 1_555 1_555
N4_2 N5_2 1_555 1_555
C21_2 C22_2 1_555 1_555
C23_2 O9_2 1_555 1_555
C23_2 O10_2 1_555 1_555
O12_2 Cd3_2 1_555 1_555
C50_2 N11_2 1_555 1_555
C51_2 N12_2 1_555 1_555
C55_2 N12_2 1_555 1_555
N10_2 N11_2 1_555 1_555
C58_2 N8_2 1_555 1_555
C59_2 N9_2 1_555 1_555
C63_2 N9_2 1_555 1_555
N7_2 N8_2 1_555 1_555
Cd3_5 O16_5 1_555 1_555

#END
