
#######################################################################
#
#                 Cambridge Crystallographic Data Centre
#                                CCDC 
#
#######################################################################
#
# If this CIF has been generated from an entry in the Cambridge 
# Structural Database, then it will include bibliographic, chemical, 
# crystal, experimental, refinement or atomic coordinate data resulting 
# from the CCDC's data processing and validation procedures.
#
#######################################################################

data_PADPEQ
_symmetry_cell_setting           triclinic
_symmetry_space_group_name_H-M   'P -1'
_symmetry_Int_Tables_number      2
_space_group_name_Hall           '-P 1'
loop_
_symmetry_equiv_pos_site_id
_symmetry_equiv_pos_as_xyz
1 x,y,z
2 -x,-y,-z
_cell_length_a                   10.352(3)
_cell_length_b                   10.373(4)
_cell_length_c                   12.158(4)
_cell_angle_alpha                94.659(5)
_cell_angle_beta                 114.699(5)
_cell_angle_gamma                105.995(5)
_cell_volume                     1110.99
loop_
_atom_site_label
_atom_site_type_symbol
_atom_site_fract_x
_atom_site_fract_y
_atom_site_fract_z
Cd1 Cd -0.38251(3) 0.18083(3) 0.11059(3)
C1 C -0.5157(8) 0.3384(7) -0.2406(6)
H1 H -0.5651 0.3311 -0.3259
C2 C -0.4340(7) 0.4565(6) -0.1534(7)
H2 H -0.4154 0.5458 -0.1653
C3 C -0.3833(5) 0.4150(5) -0.0405(5)
C4 C -0.2882(6) 0.4964(5) 0.0869(6)
C5 C -0.2237(8) 0.6393(6) 0.1146(8)
H3 H -0.2421 0.6871 0.0513
C6 C -0.1340(9) 0.7078(7) 0.2346(11)
H4 H -0.0893 0.8031 0.2544
C7 C -0.1088(8) 0.6344(8) 0.3293(9)
H5 H -0.0484 0.6801 0.4122
C8 C -0.1754(7) 0.4936(7) 0.2966(7)
H6 H -0.1587 0.4441 0.3586
C9 C -0.1976(6) 0.1041(5) 0.3090(4)
C10 C -0.0953(5) 0.0505(5) 0.4094(4)
C11 C 0.0535(5) 0.0777(5) 0.4311(4)
H7 H 0.0903 0.1309 0.3856
C12 C -0.1470(5) -0.0254(6) 0.4792(4)
H8 H -0.2459 -0.0420 0.4662
C13 C -0.6841(4) 0.0794(4) 0.0553(4)
C14 C -0.8481(4) 0.0366(4) 0.0265(4)
C15 C -0.8947(5) 0.1124(5) 0.0922(5)
H9 H -0.8240 0.1886 0.1554
C16 C -0.9556(5) -0.0758(5) -0.0645(5)
H10 H -0.9264 -0.1289 -0.1089
N1 N -0.5137(5) 0.2317(5) -0.1832(4)
H11 H -0.5584 0.1463 -0.2209
N2 N -0.4328(5) 0.2774(4) -0.0596(4)
N3 N -0.2648(4) 0.4252(4) 0.1765(4)
O1 O -0.1387(4) 0.1995(4) 0.2694(3)
O2 O -0.3391(4) 0.0495(4) 0.2681(3)
O3 O -0.5950(3) 0.1923(3) 0.1295(3)
O4 O -0.6400(3) 0.0040(3) 0.0033(3)
C12A C 0.1470(5) 0.0254(6) 0.5208(4)
C10A C 0.0953(5) -0.0505(5) 0.5906(4)
C9A C 0.1976(6) -0.1041(5) 0.6910(4)
O1A O 0.1387(4) -0.1995(4) 0.7306(3)
Cd1A Cd 0.38251(3) -0.18083(3) 0.88941(3)
N2A N 0.4328(5) -0.2774(4) 1.0596(4)
C3A C 0.3833(5) -0.4150(5) 1.0405(5)
C2A C 0.4340(7) -0.4565(6) 1.1534(7)
C1A C 0.5157(8) -0.3384(7) 1.2406(6)
H1A H 0.5651 -0.3311 1.3259
N1A N 0.5137(5) -0.2317(5) 1.1832(4)
H11A H 0.5584 -0.1463 1.2209
H2A H 0.4154 -0.5458 1.1653
C4A C 0.2882(6) -0.4964(5) 0.9131(6)
C5A C 0.2237(8) -0.6393(6) 0.8854(8)
H3A H 0.2421 -0.6871 0.9487
C6A C 0.1340(9) -0.7078(7) 0.7654(11)
H4A H 0.0893 -0.8031 0.7456
C7A C 0.1088(8) -0.6344(8) 0.6707(9)
H5A H 0.0484 -0.6801 0.5878
C8A C 0.1754(7) -0.4936(7) 0.7034(7)
H6A H 0.1587 -0.4441 0.6414
N3A N 0.2648(4) -0.4252(4) 0.8235(4)
O2A O 0.3391(4) -0.0495(4) 0.7319(3)
O3A O 0.5950(3) -0.1923(3) 0.8705(3)
O4A O 0.6400(3) -0.0040(3) 0.9967(3)
O4_2 O 0.3600(3) 0.0040(3) 1.0033(3)
C11A C -0.0535(5) -0.0777(5) 0.5689(4)
H7A H -0.0903 -0.1309 0.6144
H8A H 0.2459 0.0420 0.5338
O4A_2 O -0.3600(3) -0.0040(3) -0.0033(3)
C16A C -1.0444(5) 0.0758(5) 0.0645(5)
C15A C -1.1053(5) -0.1124(5) -0.0922(5)
Cd1A_2 Cd -0.61749(3) -0.18083(3) -0.11059(3)
C14A C -1.1519(4) -0.0366(4) -0.0265(4)
H10A H -1.0736 0.1289 0.1089
H9A H -1.1760 -0.1886 -0.1554
C13A C -1.3159(4) -0.0794(4) -0.0553(4)
O3A_2 O -1.4050(3) -0.1923(3) -0.1295(3)
O4A_3 O -1.3600(3) -0.0040(3) -0.0033(3)
Cd1A_3 Cd -1.61749(3) -0.18083(3) -0.11059(3)
Cd1_2 Cd -1.38251(3) 0.18083(3) 0.11059(3)
C17 C -0.3691(14) 0.1902(10) 0.5798(14)
H12 H -0.3981 0.0992 0.5865
C18 C -0.4355(14) 0.2240(17) 0.4658(12)
H13 H -0.5089 0.1556 0.3962
C19 C -0.3921(16) 0.3600(19) 0.4558(11)
H14 H -0.4365 0.3826 0.3795
C20 C -0.2824(15) 0.4623(14) 0.5598(14)
H15 H -0.2533 0.5533 0.5531
C21 C -0.2160(12) 0.4285(9) 0.6738(12)
C22 C -0.2594(12) 0.2925(9) 0.6838(12)
C23 C -0.1930(15) 0.2587(15) 0.7978(14)
H16 H -0.2220 0.1677 0.8045
C24 C -0.0833(14) 0.361(2) 0.9018(12)
H17 H -0.0389 0.3383 0.9781
C25 C -0.0399(12) 0.4970(18) 0.8918(13)
H18 H 0.0335 0.5654 0.9614
C26 C -0.1063(13) 0.5308(11) 0.7778(15)
H19 H -0.0772 0.6218 0.7711
loop_
_geom_bond_atom_site_label_1
_geom_bond_atom_site_label_2
_geom_bond_site_symmetry_1
_geom_bond_site_symmetry_2
Cd1 N2 1_555 1_555
C1 H1 1_555 1_555
C2 C1 1_555 1_555
H2 C2 1_555 1_555
C3 C2 1_555 1_555
C4 C3 1_555 1_555
C5 C4 1_555 1_555
H3 C5 1_555 1_555
C6 C5 1_555 1_555
H4 C6 1_555 1_555
C7 C6 1_555 1_555
H5 C7 1_555 1_555
C8 C7 1_555 1_555
H6 C8 1_555 1_555
C9 C10 1_555 1_555
C10 C11 1_555 1_555
C11 H7 1_555 1_555
C12 C10 1_555 1_555
H8 C12 1_555 1_555
C13 C14 1_555 1_555
C14 C15 1_555 1_555
C15 H9 1_555 1_555
C16 C14 1_555 1_555
H10 C16 1_555 1_555
N1 C1 1_555 1_555
H11 N1 1_555 1_555
N2 C3 1_555 1_555
N3 Cd1 1_555 1_555
O1 Cd1 1_555 1_555
O2 Cd1 1_555 1_555
O3 Cd1 1_555 1_555
O4 Cd1 1_555 1_555
C17 H12 1_555 1_555
C18 C17 1_555 1_555
H13 C18 1_555 1_555
C19 C18 1_555 1_555
H14 C19 1_555 1_555
C20 C19 1_555 1_555
H15 C20 1_555 1_555
C21 C20 1_555 1_555
C22 C17 1_555 1_555
C23 C22 1_555 1_555
H16 C23 1_555 1_555
C24 C23 1_555 1_555
H17 C24 1_555 1_555
C25 C24 1_555 1_555
H18 C25 1_555 1_555
C26 C21 1_555 1_555
H19 C26 1_555 1_555
C12A C11 1_555 1_555
C10A C12A 1_555 1_555
C9A C10A 1_555 1_555
O1A C9A 1_555 1_555
Cd1A O1A 1_555 1_555
N2A Cd1A 1_555 1_555
C3A N2A 1_555 1_555
C2A C3A 1_555 1_555
C1A C2A 1_555 1_555
H1A C1A 1_555 1_555
N1A N2A 1_555 1_555
H11A N1A 1_555 1_555
H2A C2A 1_555 1_555
C4A C3A 1_555 1_555
C5A C4A 1_555 1_555
H3A C5A 1_555 1_555
C6A C5A 1_555 1_555
H4A C6A 1_555 1_555
C7A C6A 1_555 1_555
H5A C7A 1_555 1_555
C8A C7A 1_555 1_555
H6A C8A 1_555 1_555
N3A Cd1A 1_555 1_555
O2A C9A 1_555 1_555
O3A Cd1A 1_555 1_555
O4A Cd1A 1_555 1_555
O4_2 Cd1A 1_555 1_555
C11A C12 1_555 1_555
H7A C11A 1_555 1_555
H8A C12A 1_555 1_555
O4A_2 Cd1 1_555 1_555
C16A C15 1_555 1_555
C15A C16 1_555 1_555
Cd1A_2 O4 1_555 1_555
C14A C16A 1_555 1_555
H10A C16A 1_555 1_555
H9A C15A 1_555 1_555
C13A C14A 1_555 1_555
O3A_2 C13A 1_555 1_555
O4A_3 C13A 1_555 1_555
Cd1A_3 O3A_2 1_555 1_555
Cd1_2 O4A_3 1_555 1_555
C4 N3 1_555 1_555
C8 N3 1_555 1_555
C9 O1 1_555 1_555
C9 O2 1_555 1_555
C13 O3 1_555 1_555
C13 O4 1_555 1_555
N1 N2 1_555 1_555
C21 C22 1_555 1_555
C25 C26 1_555 1_555
C10A C11A 1_555 1_555
Cd1A O2A 1_555 1_555
C1A N1A 1_555 1_555
C4A N3A 1_555 1_555
C8A N3A 1_555 1_555
O4A_2 Cd1A_2 1_555 1_555
C15A C14A 1_555 1_555
O4A_3 Cd1A_3 1_555 1_555

#END
