
#######################################################################
#
#                 Cambridge Crystallographic Data Centre
#                                CCDC 
#
#######################################################################
#
# If this CIF has been generated from an entry in the Cambridge 
# Structural Database, then it will include bibliographic, chemical, 
# crystal, experimental, refinement or atomic coordinate data resulting 
# from the CCDC's data processing and validation procedures.
#
#######################################################################

data_PADPIU
_symmetry_cell_setting           triclinic
_symmetry_space_group_name_H-M   'P -1'
_symmetry_Int_Tables_number      2
_space_group_name_Hall           '-P 1'
loop_
_symmetry_equiv_pos_site_id
_symmetry_equiv_pos_as_xyz
1 x,y,z
2 -x,-y,-z
_cell_length_a                   8.905(3)
_cell_length_b                   11.137(4)
_cell_length_c                   17.484(2)
_cell_angle_alpha                82.342(6)
_cell_angle_beta                 81.312(3)
_cell_angle_gamma                82.361(4)
_cell_volume                     1687.49
loop_
_atom_site_label
_atom_site_type_symbol
_atom_site_fract_x
_atom_site_fract_y
_atom_site_fract_z
Cu1 Cu 0.24338(2) 0.305144(18) 0.767413(11)
Cu2 Cu -0.21197(2) 0.712830(18) 0.770210(12)
O1 O 0.08498(14) 0.66659(11) 0.65212(7)
O2 O -0.14433(14) 0.59962(11) 0.69056(7)
O3 O 0.12899(16) 0.22573(12) 0.62276(8)
O4 O 0.10484(14) 0.38304(11) 0.69341(7)
O5 O 0.46221(16) 0.04527(11) 0.79090(7)
O6 O 0.37951(14) 0.22119(11) 0.84155(7)
O7 O 0.46839(14) -0.21487(11) 0.86423(7)
O8 O 0.70942(14) -0.16701(11) 0.84390(7)
O9 O 0.03005(15) 0.70677(13) 0.80147(9)
O10 O 0.22708(18) 0.47883(12) 0.82491(8)
N1 N 0.41959(17) 0.35557(13) 0.68827(9)
N2 N 0.07053(17) 0.23109(14) 0.83763(9)
N3 N -0.24908(17) 0.57353(13) 0.85191(9)
N4 N -0.21615(17) 0.84790(13) 0.68210(9)
C1 C -0.2204(2) 0.57774(17) 0.92448(11)
H1 H -0.1717 0.6419 0.9342
C2 C -0.2605(2) 0.49036(19) 0.98561(11)
H2 H -0.2388 0.4956 1.0354
C3 C -0.3334(2) 0.39504(18) 0.97130(12)
H3 H -0.3629 0.3357 1.0114
C4 C -0.3618(2) 0.38943(17) 0.89607(12)
H4 H -0.4104 0.3261 0.8850
C5 C -0.3169(2) 0.47932(16) 0.83774(11)
H5 H -0.3341 0.4745 0.7871
C6 C -0.1213(2) 0.93436(17) 0.67224(12)
H6 H -0.0586 0.9356 0.7101
C7 C -0.1129(2) 1.02155(18) 0.60821(13)
H7 H -0.0444 1.0793 0.6024
C8 C -0.2085(3) 1.0212(2) 0.55296(13)
H8 H -0.2061 1.0796 0.5097
C9 C -0.3074(3) 0.9333(2) 0.56264(13)
H9 H -0.3724 0.9314 0.5260
C10 C -0.3082(2) 0.84772(18) 0.62799(12)
H10 H -0.3747 0.7883 0.6345
C11 C 0.5537(2) 0.28491(17) 0.67509(11)
H11 H 0.5669 0.2085 0.7037
C12 C 0.6723(2) 0.32249(18) 0.62041(12)
H12 H 0.7636 0.2718 0.6123
C13 C 0.6538(2) 0.43629(17) 0.57779(11)
H13 H 0.7317 0.4626 0.5401
C14 C 0.5175(2) 0.50992(16) 0.59231(11)
H14 H 0.5030 0.5875 0.5655
C15 C 0.4033(2) 0.46660(16) 0.64717(10)
H15 H 0.3113 0.5161 0.6562
C16 C -0.0286(2) 0.17124(17) 0.81061(11)
H16 H -0.0267 0.1746 0.7570
C17 C -0.1332(2) 0.10497(18) 0.85929(13)
H17 H -0.1990 0.0636 0.8388
C18 C -0.1381(2) 0.10131(18) 0.93910(12)
H18 H -0.2065 0.0566 0.9731
C19 C -0.0395(2) 0.16534(19) 0.96756(12)
H19 H -0.0422 0.1658 1.0209
C20 C 0.0629(2) 0.22856(18) 0.91520(11)
H20 H 0.1293 0.2711 0.9345
C21 C 0.5708(2) -0.15516(14) 0.87492(10)
C22 C 0.53397(18) -0.07016(14) 0.93739(10)
C23 C 0.47132(18) 0.05171(15) 0.92498(10)
C24 C 0.43580(19) 0.10913(15) 0.84529(10)
C25 C 0.09553(19) 0.33539(15) 0.63224(10)
C26 C 0.04221(18) 0.42236(15) 0.56554(10)
C27 C -0.00580(18) 0.54643(15) 0.57131(10)
C28 C -0.01995(19) 0.60671(15) 0.64519(10)
C29 C 0.43784(18) 0.11992(15) 0.98806(10)
H21 H 0.3955 0.2008 0.9801
C30 C -0.04665(19) 0.62181(15) 0.50598(10)
H22 H -0.0779 0.7041 0.5100
H23 H 0.062(3) 0.757(2) 0.8176(15)
H24 H 0.061(3) 0.700(2) 0.7610(17)
H25 H 0.158(4) 0.526(3) 0.8219(19)
H26 H 0.295(4) 0.519(3) 0.8074(18)
C30A C 0.04665(19) 0.37819(15) 0.49402(10)
C27A C 0.00580(18) 0.45357(15) 0.42869(10)
C26A C -0.04221(18) 0.57764(15) 0.43446(10)
C25A C -0.09553(19) 0.66461(15) 0.36776(10)
O3A O -0.12899(16) 0.77427(12) 0.37724(8)
O4A O -0.10484(14) 0.61696(11) 0.30659(7)
C28A C 0.01995(19) 0.39329(15) 0.35481(10)
O1A O -0.08498(14) 0.33341(11) 0.34788(7)
O2A O 0.14433(14) 0.40038(11) 0.30944(7)
H22A H 0.0779 0.2959 0.4900
C29A C 0.56216(18) -0.11992(15) 1.01194(10)
C23A C 0.52868(18) -0.05171(15) 1.07502(10)
C22A C 0.46603(18) 0.07016(14) 1.06261(10)
C21A C 0.4292(2) 0.15516(14) 1.12508(10)
O7A O 0.53161(14) 0.21487(11) 1.13577(7)
O8A O 0.29058(14) 0.16701(11) 1.15610(7)
C24A C 0.56420(19) -0.10913(15) 1.15471(10)
O5A O 0.53779(16) -0.04527(11) 1.20910(7)
O6A O 0.62049(14) -0.22119(11) 1.15845(7)
H21A H 0.6045 -0.2008 1.0199
Cu1A Cu -0.24338(2) 0.694856(18) 0.232587(11)
Cu2A Cu 0.21197(2) 0.287170(18) 0.229790(12)
O10A O -0.22708(18) 0.52117(12) 0.17509(8)
H25A H -0.158(4) 0.474(3) 0.1781(19)
H26A H -0.295(4) 0.481(3) 0.1926(18)
N1A N -0.41959(17) 0.64443(13) 0.31173(9)
C11A C -0.5537(2) 0.71509(17) 0.32491(11)
H11A H -0.5669 0.7915 0.2963
C12A C -0.6723(2) 0.67751(18) 0.37959(12)
H12A H -0.7636 0.7282 0.3877
C13A C -0.6538(2) 0.56371(17) 0.42221(11)
H13A H -0.7317 0.5374 0.4599
C14A C -0.5175(2) 0.49008(16) 0.40769(11)
H14A H -0.5030 0.4125 0.4345
C15A C -0.4033(2) 0.53340(16) 0.35283(10)
H15A H -0.3113 0.4839 0.3438
N2A N -0.07053(17) 0.76891(14) 0.16237(9)
C16A C 0.0286(2) 0.82876(17) 0.18939(11)
H16A H 0.0267 0.8254 0.2430
C17A C 0.1332(2) 0.89503(18) 0.14071(13)
H17A H 0.1990 0.9364 0.1612
C18A C 0.1381(2) 0.89869(18) 0.06090(12)
H18A H 0.2065 0.9434 0.0269
C19A C 0.0395(2) 0.83466(19) 0.03244(12)
H19A H 0.0422 0.8342 -0.0209
C20A C -0.0629(2) 0.77144(18) 0.08480(11)
H20A H -0.1293 0.7289 0.0655
O9A O -0.03005(15) 0.29323(13) 0.19853(9)
H23A H -0.062(3) 0.243(2) 0.1824(15)
H24A H -0.061(3) 0.300(2) 0.2390(17)
N3A N 0.24908(17) 0.42647(13) 0.14809(9)
C1A C 0.2204(2) 0.42226(17) 0.07552(11)
H1A H 0.1717 0.3581 0.0658
C2A C 0.2605(2) 0.50964(19) 0.01439(11)
H2A H 0.2388 0.5044 -0.0354
C3A C 0.3334(2) 0.60496(18) 0.02870(12)
H3A H 0.3629 0.6643 -0.0114
C4A C 0.3618(2) 0.61057(17) 0.10393(12)
H4A H 0.4104 0.6739 0.1150
C5A C 0.3169(2) 0.52068(16) 0.16226(11)
H5A H 0.3341 0.5255 0.2129
N4A N 0.21615(17) 0.15210(13) 0.31790(9)
C6A C 0.1213(2) 0.06564(17) 0.32776(12)
H6A H 0.0586 0.0644 0.2899
C7A C 0.1129(2) -0.02155(18) 0.39179(13)
H7A H 0.0444 -0.0793 0.3976
C8A C 0.2085(3) -0.0212(2) 0.44704(13)
H8A H 0.2061 -0.0796 0.4903
C9A C 0.3074(3) 0.0667(2) 0.43736(13)
H9A H 0.3724 0.0686 0.4740
C10A C 0.3082(2) 0.15228(18) 0.37201(12)
H10A H 0.3747 0.2117 0.3655
O8_2 O -0.29058(14) 0.83299(11) 0.84390(7)
Cu2_2 Cu 0.78803(2) -0.287170(18) 0.770210(12)
Cu2A_2 Cu 0.21197(2) 0.287170(18) 1.229790(12)
Cu1A_2 Cu 0.75662(2) -0.305144(18) 1.232587(11)
O6A_2 O -0.37951(14) 0.77881(11) 0.15845(7)
O8A_2 O 0.29058(14) 0.16701(11) 0.15610(7)
O11 O 0.82836(17) 0.11445(14) 0.15539(10)
H27 H 0.742(3) 0.144(2) 0.1450(15)
H28 H 0.814(3) 0.076(3) 0.1894(17)
O12 O 0.73342(19) 0.98671(13) 0.30870(9)
H29 H 0.776(4) 0.920(3) 0.331(2)
H30 H 0.667(3) 0.974(3) 0.2884(18)
O13 O 0.56258(18) 0.35746(13) 0.24495(10)
H31 H 0.553(3) 0.313(3) 0.2120(18)
H32 H 0.588(4) 0.315(3) 0.280(2)
O14 O 0.66181(17) 0.20253(14) 0.37870(9)
H33 H 0.690(3) 0.139(3) 0.3586(17)
H34 H 0.730(4) 0.231(3) 0.3787(19)
loop_
_geom_bond_atom_site_label_1
_geom_bond_atom_site_label_2
_geom_bond_site_symmetry_1
_geom_bond_site_symmetry_2
Cu1 O4 1_555 1_555
Cu2 O2 1_555 1_555
O1 C28 1_555 1_555
O2 C28 1_555 1_555
O3 C25 1_555 1_555
O4 C25 1_555 1_555
O5 C24 1_555 1_555
O6 Cu1 1_555 1_555
O7 C21 1_555 1_555
O8 C21 1_555 1_555
O9 Cu2 1_555 1_555
O10 Cu1 1_555 1_555
N1 Cu1 1_555 1_555
N2 Cu1 1_555 1_555
N3 Cu2 1_555 1_555
N4 Cu2 1_555 1_555
C1 N3 1_555 1_555
H1 C1 1_555 1_555
C2 C1 1_555 1_555
H2 C2 1_555 1_555
C3 C2 1_555 1_555
H3 C3 1_555 1_555
C4 C3 1_555 1_555
H4 C4 1_555 1_555
C5 N3 1_555 1_555
H5 C5 1_555 1_555
C6 N4 1_555 1_555
H6 C6 1_555 1_555
C7 C6 1_555 1_555
H7 C7 1_555 1_555
C8 C7 1_555 1_555
H8 C8 1_555 1_555
C9 C8 1_555 1_555
H9 C9 1_555 1_555
C10 N4 1_555 1_555
H10 C10 1_555 1_555
C11 N1 1_555 1_555
H11 C11 1_555 1_555
C12 C11 1_555 1_555
H12 C12 1_555 1_555
C13 C12 1_555 1_555
H13 C13 1_555 1_555
C14 C13 1_555 1_555
H14 C14 1_555 1_555
C15 N1 1_555 1_555
H15 C15 1_555 1_555
C16 N2 1_555 1_555
H16 C16 1_555 1_555
C17 C16 1_555 1_555
H17 C17 1_555 1_555
C18 C17 1_555 1_555
H18 C18 1_555 1_555
C19 C18 1_555 1_555
H19 C19 1_555 1_555
C20 N2 1_555 1_555
H20 C20 1_555 1_555
C21 C22 1_555 1_555
C22 C23 1_555 1_555
C23 C24 1_555 1_555
C24 O6 1_555 1_555
C25 C26 1_555 1_555
C26 C27 1_555 1_555
C27 C28 1_555 1_555
C29 C23 1_555 1_555
H21 C29 1_555 1_555
C30 C27 1_555 1_555
H22 C30 1_555 1_555
H23 O9 1_555 1_555
H24 O9 1_555 1_555
H25 O10 1_555 1_555
H26 O10 1_555 1_555
O11 H27 1_555 1_555
H28 O11 1_555 1_555
O12 H29 1_555 1_555
H30 O12 1_555 1_555
O13 H31 1_555 1_555
H32 O13 1_555 1_555
O14 H33 1_555 1_555
H34 O14 1_555 1_555
C30A C26 1_555 1_555
C27A C30A 1_555 1_555
C26A C30 1_555 1_555
C25A C26A 1_555 1_555
O3A C25A 1_555 1_555
O4A C25A 1_555 1_555
C28A C27A 1_555 1_555
O1A C28A 1_555 1_555
O2A C28A 1_555 1_555
H22A C30A 1_555 1_555
C29A C22 1_555 1_555
C23A C29A 1_555 1_555
C22A C29 1_555 1_555
C21A C22A 1_555 1_555
O7A C21A 1_555 1_555
O8A C21A 1_555 1_555
C24A C23A 1_555 1_555
O5A C24A 1_555 1_555
O6A C24A 1_555 1_555
H21A C29A 1_555 1_555
Cu1A O4A 1_555 1_555
Cu2A O2A 1_555 1_555
O10A Cu1A 1_555 1_555
H25A O10A 1_555 1_555
H26A O10A 1_555 1_555
N1A Cu1A 1_555 1_555
C11A N1A 1_555 1_555
H11A C11A 1_555 1_555
C12A C11A 1_555 1_555
H12A C12A 1_555 1_555
C13A C12A 1_555 1_555
H13A C13A 1_555 1_555
C14A C13A 1_555 1_555
H14A C14A 1_555 1_555
C15A N1A 1_555 1_555
H15A C15A 1_555 1_555
N2A Cu1A 1_555 1_555
C16A N2A 1_555 1_555
H16A C16A 1_555 1_555
C17A C16A 1_555 1_555
H17A C17A 1_555 1_555
C18A C17A 1_555 1_555
H18A C18A 1_555 1_555
C19A C18A 1_555 1_555
H19A C19A 1_555 1_555
C20A N2A 1_555 1_555
H20A C20A 1_555 1_555
O9A Cu2A 1_555 1_555
H23A O9A 1_555 1_555
H24A O9A 1_555 1_555
N3A Cu2A 1_555 1_555
C1A N3A 1_555 1_555
H1A C1A 1_555 1_555
C2A C1A 1_555 1_555
H2A C2A 1_555 1_555
C3A C2A 1_555 1_555
H3A C3A 1_555 1_555
C4A C3A 1_555 1_555
H4A C4A 1_555 1_555
C5A N3A 1_555 1_555
H5A C5A 1_555 1_555
N4A Cu2A 1_555 1_555
C6A N4A 1_555 1_555
H6A C6A 1_555 1_555
C7A C6A 1_555 1_555
H7A C7A 1_555 1_555
C8A C7A 1_555 1_555
H8A C8A 1_555 1_555
C9A C8A 1_555 1_555
H9A C9A 1_555 1_555
C10A N4A 1_555 1_555
H10A C10A 1_555 1_555
O8_2 Cu2 1_555 1_555
Cu2_2 O8 1_555 1_555
Cu2A_2 O8A 1_555 1_555
Cu1A_2 O6A 1_555 1_555
O6A_2 Cu1A 1_555 1_555
O8A_2 Cu2A 1_555 1_555
C4 C5 1_555 1_555
C9 C10 1_555 1_555
C14 C15 1_555 1_555
C19 C20 1_555 1_555
C27A C26A 1_555 1_555
C23A C22A 1_555 1_555
C14A C15A 1_555 1_555
C19A C20A 1_555 1_555
C4A C5A 1_555 1_555
C9A C10A 1_555 1_555

#END
