
#######################################################################
#
#                 Cambridge Crystallographic Data Centre
#                                CCDC 
#
#######################################################################
#
# If this CIF has been generated from an entry in the Cambridge 
# Structural Database, then it will include bibliographic, chemical, 
# crystal, experimental, refinement or atomic coordinate data resulting 
# from the CCDC's data processing and validation procedures.
#
#######################################################################

data_PADPIU01
_symmetry_cell_setting           triclinic
_symmetry_space_group_name_H-M   'P -1'
_symmetry_Int_Tables_number      2
_space_group_name_Hall           '-P 1'
loop_
_symmetry_equiv_pos_site_id
_symmetry_equiv_pos_as_xyz
1 x,y,z
2 -x,-y,-z
_cell_length_a                   8.9464(9)
_cell_length_b                   11.1622(11)
_cell_length_c                   17.4780(17)
_cell_angle_alpha                82.360(2)
_cell_angle_beta                 81.293(2)
_cell_angle_gamma                82.365(2)
_cell_volume                     1698.59
loop_
_atom_site_label
_atom_site_type_symbol
_atom_site_fract_x
_atom_site_fract_y
_atom_site_fract_z
Cu1 Cu 0.28804(10) 0.71317(8) 0.27010(5)
Cu2 Cu 0.74348(10) 0.30428(8) 0.26723(5)
C1 C 0.4934(8) 0.5468(6) 0.0714(4)
C2 C 0.5425(8) 0.4233(6) 0.0653(4)
C3 C 0.5470(7) 0.3784(6) -0.0058(4)
H1 H 0.5785 0.2944 -0.0095
C4 C 0.4815(8) 0.6065(6) 0.1460(4)
C5 C 0.5978(8) 0.3354(6) 0.1313(4)
O1 O 0.5837(6) 0.6652(4) 0.1527(3)
O2 O 0.3555(5) 0.5999(4) 0.1912(3)
O3 O 0.6298(6) 0.2269(4) 0.1230(3)
O4 O 0.6053(5) 0.3832(4) 0.1933(3)
C6 C 0.0350(8) 0.9300(6) 0.4368(4)
C7 C -0.0302(8) 1.0510(6) 0.4251(4)
C8 C -0.0617(7) 1.1189(6) 0.4880(4)
H2 H -0.1030 1.2018 0.4796
C9 C 0.0697(9) 0.8445(6) 0.3739(4)
C10 C -0.0655(8) 1.1090(6) 0.3454(4)
O5 O -0.0319(6) 0.7851(4) 0.3643(3)
O6 O 0.2088(6) 0.8327(4) 0.3432(3)
O7 O -0.0413(6) 1.0454(4) 0.2913(3)
O8 O -0.1210(5) 1.2204(4) 0.3412(3)
N1 N 0.2830(7) 0.8476(5) 0.1822(3)
C11 C 0.1917(9) 0.8484(8) 0.1290(5)
H3 H 0.1221 0.7893 0.1363
C12 C 0.1948(11) 0.9337(8) 0.0626(5)
H4 H 0.1302 0.9309 0.0246
C13 C 0.2910(11) 1.0202(8) 0.0530(5)
H5 H 0.2936 1.0799 0.0088
C14 C 0.3842(10) 1.0201(7) 0.1082(5)
H6 H 0.4526 1.0798 0.1025
C15 C 0.3788(9) 0.9338(7) 0.1718(5)
H7 H 0.4445 0.9347 0.2096
N2 N 0.2515(7) 0.5747(5) 0.3519(3)
C16 C 0.1846(9) 0.4803(7) 0.3374(5)
H8 H 0.1683 0.4751 0.2855
C17 C 0.1384(9) 0.3903(7) 0.3960(5)
H9 H 0.0874 0.3267 0.3846
C18 C 0.1681(10) 0.3947(8) 0.4716(5)
H10 H 0.1398 0.3334 0.5124
C19 C 0.2388(9) 0.4892(7) 0.4857(5)
H11 H 0.2599 0.4952 0.5366
C20 C 0.2790(9) 0.5756(7) 0.4248(4)
H12 H 0.3295 0.6400 0.4353
N3 N 0.9191(7) 0.3546(5) 0.1879(3)
C21 C 1.0522(9) 0.2861(7) 0.1751(5)
H13 H 1.0663 0.2087 0.2048
C22 C 1.1697(9) 0.3227(7) 0.1208(5)
H14 H 1.2619 0.2702 0.1122
C23 C 1.1531(9) 0.4361(7) 0.0788(4)
H15 H 1.2332 0.4639 0.0413
C24 C 1.0167(8) 0.5076(7) 0.0929(4)
H16 H 1.0006 0.5862 0.0650
C25 C 0.9043(8) 0.4646(6) 0.1476(4)
H17 H 0.8112 0.5155 0.1573
N4 N 0.5711(7) 0.2304(5) 0.3371(3)
C26 C 0.4724(8) 0.1710(7) 0.3117(5)
H18 H 0.4741 0.1738 0.2570
C27 C 0.3676(9) 0.1054(8) 0.3600(5)
H19 H 0.3000 0.0635 0.3393
C28 C 0.3643(9) 0.1028(7) 0.4388(5)
H20 H 0.2942 0.0578 0.4737
C29 C 0.4615(9) 0.1649(8) 0.4675(5)
H21 H 0.4598 0.1638 0.5220
C30 C 0.5621(9) 0.2291(8) 0.4152(4)
H22 H 0.6277 0.2742 0.4348
O9 O 0.5283(6) 0.7067(5) 0.3023(3)
H23 H 0.552(8) 0.715(6) 0.2538(8)
H24 H 0.557(8) 0.766(4) 0.319(3)
O10 O 0.7262(6) 0.4790(4) 0.3251(3)
H25 H 0.794(5) 0.525(5) 0.311(4)
H26 H 0.643(3) 0.519(5) 0.316(4)
C1A C 0.5066(8) 0.4532(6) -0.0714(4)
C2A C 0.4575(8) 0.5767(6) -0.0653(4)
C3A C 0.4530(7) 0.6216(6) 0.0058(4)
H1A H 0.4215 0.7056 0.0095
C4A C 0.5185(8) 0.3935(6) -0.1460(4)
C5A C 0.4022(8) 0.6646(6) -0.1313(4)
O1A O 0.4163(6) 0.3348(4) -0.1527(3)
O2A O 0.6445(5) 0.4001(4) -0.1912(3)
O3A O 0.3702(6) 0.7731(4) -0.1230(3)
O4A O 0.3947(5) 0.6168(4) -0.1933(3)
C6A C -0.0350(8) 1.0700(6) 0.5632(4)
C7A C 0.0302(8) 0.9490(6) 0.5749(4)
C8A C 0.0617(7) 0.8811(6) 0.5120(4)
H2A H 0.1030 0.7982 0.5204
C9A C -0.0697(9) 1.1555(6) 0.6261(4)
C10A C 0.0655(8) 0.8910(6) 0.6546(4)
O5A O 0.0319(6) 1.2149(4) 0.6357(3)
O6A O -0.2088(6) 1.1673(4) 0.6568(3)
O7A O 0.0413(6) 0.9546(4) 0.7087(3)
O8A O 0.1210(5) 0.7796(4) 0.6588(3)
Cu1A Cu -0.28804(10) 1.28683(8) 0.72990(5)
N1A N -0.2830(7) 1.1524(5) 0.8178(3)
C11A C -0.1917(9) 1.1516(8) 0.8710(5)
H3A H -0.1221 1.2107 0.8637
C12A C -0.1948(11) 1.0663(8) 0.9374(5)
H4A H -0.1302 1.0691 0.9754
C13A C -0.2910(11) 0.9798(8) 0.9470(5)
H5A H -0.2936 0.9201 0.9912
C14A C -0.3842(10) 0.9799(7) 0.8918(5)
H6A H -0.4526 0.9202 0.8975
C15A C -0.3788(9) 1.0662(7) 0.8282(5)
H7A H -0.4445 1.0653 0.7904
N2A N -0.2515(7) 1.4253(5) 0.6481(3)
C16A C -0.1846(9) 1.5197(7) 0.6626(5)
H8A H -0.1683 1.5249 0.7145
C17A C -0.1384(9) 1.6097(7) 0.6040(5)
H9A H -0.0874 1.6733 0.6154
C18A C -0.1681(10) 1.6053(8) 0.5284(5)
H10A H -0.1398 1.6666 0.4876
C19A C -0.2388(9) 1.5108(7) 0.5143(5)
H11A H -0.2599 1.5048 0.4634
C20A C -0.2790(9) 1.4244(7) 0.5752(4)
H12A H -0.3295 1.3600 0.5647
O9A O -0.5283(6) 1.2933(5) 0.6977(3)
H23A H -0.552(8) 1.285(6) 0.7462(8)
H24A H -0.557(8) 1.234(4) 0.681(3)
Cu2_2 Cu -0.25652(10) 1.30428(8) 0.26723(5)
N3_2 N -0.0809(7) 1.3546(5) 0.1879(3)
C21_2 C 0.0522(9) 1.2861(7) 0.1751(5)
H13_2 H 0.0663 1.2087 0.2048
C22_2 C 0.1697(9) 1.3227(7) 0.1208(5)
H14_2 H 0.2619 1.2702 0.1122
C23_2 C 0.1531(9) 1.4361(7) 0.0788(4)
H15_2 H 0.2332 1.4639 0.0413
C24_2 C 0.0167(8) 1.5076(7) 0.0929(4)
H16_2 H 0.0006 1.5862 0.0650
C25_2 C -0.0957(8) 1.4646(6) 0.1476(4)
H17_2 H -0.1888 1.5155 0.1573
N4_2 N -0.4289(7) 1.2304(5) 0.3371(3)
C26_2 C -0.5276(8) 1.1710(7) 0.3117(5)
H18_2 H -0.5259 1.1738 0.2570
C27_2 C -0.6324(9) 1.1054(8) 0.3600(5)
H19_2 H -0.7000 1.0635 0.3393
C28_2 C -0.6357(9) 1.1028(7) 0.4388(5)
H20_2 H -0.7058 1.0578 0.4737
C29_2 C -0.5385(9) 1.1649(8) 0.4675(5)
H21_2 H -0.5402 1.1638 0.5220
C30_2 C -0.4379(9) 1.2291(8) 0.4152(4)
H22_2 H -0.3723 1.2742 0.4348
O10_2 O -0.2738(6) 1.4790(4) 0.3251(3)
H25_2 H -0.206(5) 1.525(5) 0.311(4)
H26_2 H -0.357(3) 1.519(5) 0.316(4)
Cu1A_2 Cu 0.71196(10) 0.28683(8) -0.27010(5)
Cu2A Cu 0.25652(10) 0.69572(8) -0.26723(5)
Cu2A_2 Cu 0.25652(10) 0.69572(8) 0.73277(5)
O2A_2 O -0.3555(5) 1.4001(4) 0.8088(3)
O4_2 O -0.3947(5) 1.3832(4) 0.1933(3)
O8_2 O 0.8790(5) 0.2204(4) 0.3412(3)
O11 O 0.9357(8) 0.6411(5) 0.2561(3)
H27 H 0.962(10) 0.691(5) 0.282(4)
H28 H 0.905(10) 0.680(5) 0.216(3)
O12 O 0.7684(7) 1.0131(5) 0.1895(4)
H29 H 0.736(9) 1.076(4) 0.162(4)
H30 H 0.821(8) 1.037(6) 0.220(4)
O13 O 0.8371(6) 0.7964(5) 0.1209(4)
H31 H 0.750(4) 0.778(6) 0.119(5)
H32 H 0.826(7) 0.856(5) 0.146(4)
O14 O 0.6715(6) 0.8856(5) 0.3447(3)
H33 H 0.753(4) 0.842(5) 0.353(5)
H34 H 0.696(7) 0.948(4) 0.316(4)
loop_
_geom_bond_atom_site_label_1
_geom_bond_atom_site_label_2
_geom_bond_site_symmetry_1
_geom_bond_site_symmetry_2
Cu1 O2 1_555 1_555
Cu2 O4 1_555 1_555
C1 C2 1_555 1_555
C2 C3 1_555 1_555
C3 H1 1_555 1_555
C4 C1 1_555 1_555
C5 C2 1_555 1_555
O1 C4 1_555 1_555
O2 C4 1_555 1_555
O3 C5 1_555 1_555
O4 C5 1_555 1_555
C6 C7 1_555 1_555
C7 C8 1_555 1_555
C8 H2 1_555 1_555
C9 C6 1_555 1_555
C10 C7 1_555 1_555
O5 C9 1_555 1_555
O6 Cu1 1_555 1_555
O7 C10 1_555 1_555
O8 C10 1_555 1_555
N1 Cu1 1_555 1_555
C11 N1 1_555 1_555
H3 C11 1_555 1_555
C12 C11 1_555 1_555
H4 C12 1_555 1_555
C13 C12 1_555 1_555
H5 C13 1_555 1_555
C14 C13 1_555 1_555
H6 C14 1_555 1_555
C15 N1 1_555 1_555
H7 C15 1_555 1_555
N2 Cu1 1_555 1_555
C16 N2 1_555 1_555
H8 C16 1_555 1_555
C17 C16 1_555 1_555
H9 C17 1_555 1_555
C18 C17 1_555 1_555
H10 C18 1_555 1_555
C19 C18 1_555 1_555
H11 C19 1_555 1_555
C20 N2 1_555 1_555
H12 C20 1_555 1_555
N3 Cu2 1_555 1_555
C21 N3 1_555 1_555
H13 C21 1_555 1_555
C22 C21 1_555 1_555
H14 C22 1_555 1_555
C23 C22 1_555 1_555
H15 C23 1_555 1_555
C24 C23 1_555 1_555
H16 C24 1_555 1_555
C25 N3 1_555 1_555
H17 C25 1_555 1_555
N4 Cu2 1_555 1_555
C26 N4 1_555 1_555
H18 C26 1_555 1_555
C27 C26 1_555 1_555
H19 C27 1_555 1_555
C28 C27 1_555 1_555
H20 C28 1_555 1_555
C29 C28 1_555 1_555
H21 C29 1_555 1_555
C30 N4 1_555 1_555
H22 C30 1_555 1_555
O9 Cu1 1_555 1_555
H23 O9 1_555 1_555
H24 O9 1_555 1_555
O10 Cu2 1_555 1_555
H25 O10 1_555 1_555
H26 O10 1_555 1_555
O11 H27 1_555 1_555
H28 O11 1_555 1_555
O12 H29 1_555 1_555
H30 O12 1_555 1_555
O13 H31 1_555 1_555
H32 O13 1_555 1_555
O14 H33 1_555 1_555
H34 O14 1_555 1_555
C1A C3 1_555 1_555
C2A C1A 1_555 1_555
C3A C1 1_555 1_555
H1A C3A 1_555 1_555
C4A C1A 1_555 1_555
C5A C2A 1_555 1_555
O1A C4A 1_555 1_555
O2A C4A 1_555 1_555
O3A C5A 1_555 1_555
O4A C5A 1_555 1_555
C6A C8 1_555 1_555
C7A C6A 1_555 1_555
C8A C6 1_555 1_555
H2A C8A 1_555 1_555
C9A C6A 1_555 1_555
C10A C7A 1_555 1_555
O5A C9A 1_555 1_555
O6A C9A 1_555 1_555
O7A C10A 1_555 1_555
O8A C10A 1_555 1_555
Cu1A O6A 1_555 1_555
N1A Cu1A 1_555 1_555
C11A N1A 1_555 1_555
H3A C11A 1_555 1_555
C12A C11A 1_555 1_555
H4A C12A 1_555 1_555
C13A C12A 1_555 1_555
H5A C13A 1_555 1_555
C14A C13A 1_555 1_555
H6A C14A 1_555 1_555
C15A N1A 1_555 1_555
H7A C15A 1_555 1_555
N2A Cu1A 1_555 1_555
C16A N2A 1_555 1_555
H8A C16A 1_555 1_555
C17A C16A 1_555 1_555
H9A C17A 1_555 1_555
C18A C17A 1_555 1_555
H10A C18A 1_555 1_555
C19A C18A 1_555 1_555
H11A C19A 1_555 1_555
C20A N2A 1_555 1_555
H12A C20A 1_555 1_555
O9A Cu1A 1_555 1_555
H23A O9A 1_555 1_555
H24A O9A 1_555 1_555
Cu2_2 O8 1_555 1_555
N3_2 Cu2_2 1_555 1_555
C21_2 N3_2 1_555 1_555
H13_2 C21_2 1_555 1_555
C22_2 C21_2 1_555 1_555
H14_2 C22_2 1_555 1_555
C23_2 C22_2 1_555 1_555
H15_2 C23_2 1_555 1_555
C24_2 C23_2 1_555 1_555
H16_2 C24_2 1_555 1_555
C25_2 N3_2 1_555 1_555
H17_2 C25_2 1_555 1_555
N4_2 Cu2_2 1_555 1_555
C26_2 N4_2 1_555 1_555
H18_2 C26_2 1_555 1_555
C27_2 C26_2 1_555 1_555
H19_2 C27_2 1_555 1_555
C28_2 C27_2 1_555 1_555
H20_2 C28_2 1_555 1_555
C29_2 C28_2 1_555 1_555
H21_2 C29_2 1_555 1_555
C30_2 N4_2 1_555 1_555
H22_2 C30_2 1_555 1_555
O10_2 Cu2_2 1_555 1_555
H25_2 O10_2 1_555 1_555
H26_2 O10_2 1_555 1_555
Cu1A_2 O2A 1_555 1_555
Cu2A O4A 1_555 1_555
Cu2A_2 O8A 1_555 1_555
O2A_2 Cu1A 1_555 1_555
O4_2 Cu2_2 1_555 1_555
O8_2 Cu2 1_555 1_555
C9 O6 1_555 1_555
C14 C15 1_555 1_555
C19 C20 1_555 1_555
C24 C25 1_555 1_555
C29 C30 1_555 1_555
C2A C3A 1_555 1_555
C7A C8A 1_555 1_555
C14A C15A 1_555 1_555
C19A C20A 1_555 1_555
C24_2 C25_2 1_555 1_555
C29_2 C30_2 1_555 1_555

#END
