
#######################################################################
#
#                 Cambridge Crystallographic Data Centre
#                                CCDC 
#
#######################################################################
#
# If this CIF has been generated from an entry in the Cambridge 
# Structural Database, then it will include bibliographic, chemical, 
# crystal, experimental, refinement or atomic coordinate data resulting 
# from the CCDC's data processing and validation procedures.
#
#######################################################################

data_PADROD
_symmetry_cell_setting           monoclinic
_symmetry_space_group_name_H-M   'P 21/c'
_symmetry_Int_Tables_number      14
_space_group_name_Hall           '-P 2ybc'
loop_
_symmetry_equiv_pos_site_id
_symmetry_equiv_pos_as_xyz
1 x,y,z
2 -x,1/2+y,1/2-z
3 -x,-y,-z
4 x,1/2-y,1/2+z
_cell_length_a                   10.0125(17)
_cell_length_b                   5.5841(9)
_cell_length_c                   11.3939(19)
_cell_angle_alpha                90
_cell_angle_beta                 93.325(2)
_cell_angle_gamma                90
_cell_volume                     635.97
loop_
_atom_site_label
_atom_site_type_symbol
_atom_site_fract_x
_atom_site_fract_y
_atom_site_fract_z
Ag1 Ag 1.07897(3) 0.29277(6) 0.52842(3)
Ag2 Ag 0.44183(3) 0.01970(6) 0.13401(3)
C1 C 0.8590(4) 0.2345(7) 0.3310(3)
C2 C 0.7676(4) 0.0880(8) 0.2477(3)
H1 H 0.8207 0.0112 0.1899
H2 H 0.7253 -0.0366 0.2918
C3 C 0.7179(4) 0.3765(8) 0.0980(3)
H3 H 0.7164 0.2858 0.0253
H4 H 0.8101 0.4183 0.1195
C4 C 0.6363(4) 0.6045(7) 0.0786(3)
O1 O 0.9535(3) 0.1193(6) 0.3846(3)
O2 O 0.8330(3) 0.4512(6) 0.3430(3)
O3 O 0.6665(3) 0.2312(5) 0.1885(2)
O4 O 0.6751(3) 0.7342(6) -0.0052(3)
O5 O 0.5431(3) 0.6500(6) 0.1428(3)
Ag1B Ag 0.92103(3) 0.70723(6) 0.47158(3)
Ag1B_2 Ag 0.92103(3) -0.29277(6) 0.47158(3)
Ag1A Ag 0.92103(3) 0.79277(6) -0.02842(3)
Ag2B Ag 0.55817(3) -0.01970(6) -0.13401(3)
Ag2B_2 Ag 0.55817(3) 0.98030(6) -0.13401(3)
Ag2_2 Ag 0.44183(3) 1.01970(6) 0.13401(3)
O1B O 1.0465(3) -0.1193(6) 0.6154(3)
O2B O 1.1670(3) 0.5488(6) 0.6570(3)
O4A O 1.3249(3) 0.2342(6) 0.5052(3)
O4B O 0.3249(3) 0.2658(6) 0.0052(3)
O5_2 O 0.5431(3) -0.3500(6) 0.1428(3)
loop_
_geom_bond_atom_site_label_1
_geom_bond_atom_site_label_2
_geom_bond_site_symmetry_1
_geom_bond_site_symmetry_2
Ag1 O1 1_555 1_555
Ag2 O3 1_555 1_555
C1 C2 1_555 1_555
C2 H1 1_555 1_555
H2 C2 1_555 1_555
C3 H3 1_555 1_555
H4 C3 1_555 1_555
C4 C3 1_555 1_555
O1 C1 1_555 1_555
O2 C1 1_555 1_555
O3 C2 1_555 1_555
O4 C4 1_555 1_555
O5 C4 1_555 1_555
Ag1B Ag1 1_555 1_555
Ag1B_2 O1 1_555 1_555
Ag1A O4 1_555 1_555
Ag2B Ag2 1_555 1_555
Ag2B_2 O4 1_555 1_555
Ag2_2 O5 1_555 1_555
O1B Ag1 1_555 1_555
O2B Ag1 1_555 1_555
O4A Ag1 1_555 1_555
O4B Ag2 1_555 1_555
O5_2 Ag2 1_555 1_555
C3 O3 1_555 1_555
O2 Ag1B 1_555 1_555
Ag1B_2 O1B 1_555 1_555
Ag2B_2 Ag2_2 1_555 1_555

#END
