
#######################################################################
#
#                 Cambridge Crystallographic Data Centre
#                                CCDC 
#
#######################################################################
#
# If this CIF has been generated from an entry in the Cambridge 
# Structural Database, then it will include bibliographic, chemical, 
# crystal, experimental, refinement or atomic coordinate data resulting 
# from the CCDC's data processing and validation procedures.
#
#######################################################################

data_PADROD02
_symmetry_cell_setting           monoclinic
_symmetry_space_group_name_H-M   'P 21/c'
_symmetry_Int_Tables_number      14
_space_group_name_Hall           '-P 2ybc'
loop_
_symmetry_equiv_pos_site_id
_symmetry_equiv_pos_as_xyz
1 x,y,z
2 -x,1/2+y,1/2-z
3 -x,-y,-z
4 x,1/2-y,1/2+z
_cell_length_a                   5.3990(3)
_cell_length_b                   18.9695(9)
_cell_length_c                   6.4838(4)
_cell_angle_alpha                90
_cell_angle_beta                 110.265(6)
_cell_angle_gamma                90
_cell_volume                     622.943
loop_
_atom_site_label
_atom_site_type_symbol
_atom_site_fract_x
_atom_site_fract_y
_atom_site_fract_z
Ag1 Ag 0.60171(5) 0.399628(13) 0.04646(4)
Ag2 Ag 0.73337(5) -0.178550(13) 0.27539(4)
O1 O 0.8925(4) -0.07387(12) 0.2458(4)
O2 O 0.8019(4) 0.29228(12) 0.1468(4)
O3 O 0.5736(4) -0.01208(12) 0.3125(4)
O4 O 0.4561(4) 0.22694(12) 0.1451(4)
C1 C 0.7716(6) -0.01795(18) 0.2545(5)
C2 C 0.6910(6) 0.23465(18) 0.1543(5)
C3 C 0.8624(6) 0.17030(17) 0.1683(5)
H1 H 0.889(5) 0.1641(2) 0.0256(19)
H2 H 1.034(2) 0.17762(19) 0.288(3)
C4 C 0.8819(6) 0.04790(17) 0.1857(5)
H3 H 1.0727(11) 0.05254(18) 0.271(3)
H4 H 0.872(5) 0.04398(19) 0.0307(13)
O5 O 0.7436(4) 0.10851(12) 0.2144(4)
Ag1A Ag 0.39829(5) -0.100372(13) 0.45354(4)
Ag1C Ag 0.60171(5) 0.100372(13) 0.54646(4)
Ag2A Ag 1.26663(5) 0.321450(13) 0.22461(4)
Ag2A_2 Ag 0.26663(5) 0.321450(13) 0.22461(4)
O2A O 1.1981(4) -0.20772(12) 0.3532(4)
O3A O 0.4264(4) 0.48792(12) 0.1875(4)
O4A O 0.5439(4) -0.27306(12) 0.3549(4)
O5C O 0.7436(4) 0.39149(12) -0.2856(4)
loop_
_geom_bond_atom_site_label_1
_geom_bond_atom_site_label_2
_geom_bond_site_symmetry_1
_geom_bond_site_symmetry_2
Ag1 O2 1_555 1_555
Ag2 O1 1_555 1_555
O1 C1 1_555 1_555
O2 C2 1_555 1_555
O3 C1 1_555 1_555
O4 C2 1_555 1_555
C1 C4 1_555 1_555
C2 C3 1_555 1_555
C3 H1 1_555 1_555
H2 C3 1_555 1_555
C4 H3 1_555 1_555
H4 C4 1_555 1_555
O5 C3 1_555 1_555
Ag1A O3 1_555 1_555
Ag1C O5 1_555 1_555
Ag2A O2 1_555 1_555
Ag2A_2 O4 1_555 1_555
O2A Ag2 1_555 1_555
O3A Ag1 1_555 1_555
O4A Ag2 1_555 1_555
O5C Ag1 1_555 1_555
C4 O5 1_555 1_555

#END
