
#######################################################################
#
#                 Cambridge Crystallographic Data Centre
#                                CCDC 
#
#######################################################################
#
# If this CIF has been generated from an entry in the Cambridge 
# Structural Database, then it will include bibliographic, chemical, 
# crystal, experimental, refinement or atomic coordinate data resulting 
# from the CCDC's data processing and validation procedures.
#
#######################################################################

data_PADRET
_symmetry_cell_setting           monoclinic
_symmetry_space_group_name_H-M   'P 21/n'
_symmetry_Int_Tables_number      14
_space_group_name_Hall           '-P 2yn'
loop_
_symmetry_equiv_pos_site_id
_symmetry_equiv_pos_as_xyz
1 x,y,z
2 1/2-x,1/2+y,1/2-z
3 -x,-y,-z
4 1/2+x,1/2-y,1/2+z
_cell_length_a                   10.596(2)
_cell_length_b                   18.196(4)
_cell_length_c                   18.761(4)
_cell_angle_alpha                90
_cell_angle_beta                 103.37(3)
_cell_angle_gamma                90
_cell_volume                     3519.17
loop_
_atom_site_label
_atom_site_type_symbol
_atom_site_fract_x
_atom_site_fract_y
_atom_site_fract_z
Cu1 Cu 1.13751(7) -0.13849(4) 0.21425(4)
Cu2 Cu 0.56353(7) 0.02915(4) 0.24872(4)
N1 N 0.9630(5) -0.0785(3) 0.1945(3)
N2 N 0.7660(5) 0.1027(3) -0.1373(3)
N3 N 0.5324(5) 0.0631(2) 0.1517(3)
N4 N 0.4616(5) 0.1171(2) 0.0414(3)
N5 N 0.0706(6) 0.1605(4) 0.1562(5)
N6 N 1.2377(5) -0.1152(3) 0.3148(3)
N7 N 1.5654(5) -0.2623(2) 0.6777(3)
N8 N 1.3861(4) -0.0055(2) 0.6518(3)
N9 N 1.3203(5) 0.0488(3) 0.5410(3)
N10 N 1.2943(6) 0.2655(3) 0.7126(3)
C1 C 0.6245(6) 0.0525(3) 0.1122(3)
C2 C 0.5802(6) 0.0859(3) 0.0439(3)
C3 C 0.4351(6) 0.1015(3) 0.1063(3)
C4 C 0.3130(6) 0.1217(3) 0.1259(3)
C5 C 0.2922(6) 0.1162(4) 0.1954(4)
H1 H 0.3579 0.0991 0.2336
C6 C 0.1723(8) 0.1362(4) 0.2085(5)
H2 H 0.1617 0.1325 0.2562
C7 C 0.0941(7) 0.1666(4) 0.0891(5)
H3 H 0.0272 0.1840 0.0518
C8 C 0.2098(7) 0.1491(4) 0.0710(4)
H4 H 0.2193 0.1552 0.0233
C9 C 0.6441(6) 0.0912(3) -0.0178(3)
C10 C 0.5783(7) 0.1155(4) -0.0861(4)
H5 H 0.4917 0.1291 -0.0935
C11 C 0.6402(7) 0.1198(4) -0.1440(4)
H6 H 0.5921 0.1352 -0.1895
C12 C 0.8310(7) 0.0795(4) -0.0700(4)
H7 H 0.9174 0.0659 -0.0638
C13 C 0.7762(7) 0.0751(4) -0.0107(4)
H8 H 0.8269 0.0614 0.0347
C14 C 0.7423(6) 0.0089(3) 0.1413(3)
C15 C 0.8361(6) 0.0297(3) 0.2026(4)
H9 H 0.8268 0.0731 0.2271
C16 C 0.9443(6) -0.0149(3) 0.2272(3)
H10 H 1.0066 0.0000 0.2682
C17 C 0.8703(6) -0.0987(3) 0.1355(3)
H11 H 0.8800 -0.1431 0.1128
C18 C 0.7618(6) -0.0566(3) 0.1071(3)
H12 H 0.7020 -0.0721 0.0654
C19 C 1.2793(6) -0.0449(3) 0.3271(3)
H13 H 1.2847 -0.0158 0.2872
C20 C 1.3139(6) -0.0147(3) 0.3960(3)
H14 H 1.3370 0.0346 0.4015
C21 C 1.3147(6) -0.0573(3) 0.4572(3)
C22 C 1.2793(7) -0.1304(3) 0.4447(4)
H15 H 1.2812 -0.1618 0.4841
C23 C 1.2409(7) -0.1569(3) 0.3734(4)
H16 H 1.2163 -0.2059 0.3664
C24 C 1.3449(6) -0.0247(3) 0.5310(3)
C25 C 1.3861(6) -0.0579(3) 0.5988(3)
C26 C 1.3460(6) 0.0573(3) 0.6133(3)
C27 C 1.3296(6) 0.1284(3) 0.6485(4)
C28 C 1.3297(7) 0.1361(3) 0.7217(4)
H17 H 1.3409 0.0949 0.7518
C29 C 1.3133(6) 0.2043(3) 0.7511(4)
H18 H 1.3159 0.2070 0.8009
C30 C 1.2916(8) 0.2581(4) 0.6422(4)
H19 H 1.2769 0.3003 0.6135
C31 C 1.3088(7) 0.1926(3) 0.6072(4)
H20 H 1.3064 0.1918 0.5574
C32 C 1.4378(6) -0.1318(3) 0.6212(3)
C33 C 1.5325(6) -0.1643(3) 0.5891(3)
H21 H 1.5538 -0.1427 0.5485
C34 C 1.5930(6) -0.2281(3) 0.6183(3)
H22 H 1.6552 -0.2487 0.5967
C35 C 1.4701(6) -0.2325(3) 0.7051(3)
H23 H 1.4475 -0.2562 0.7442
C36 C 1.4036(6) -0.1688(3) 0.6789(3)
H24 H 1.3376 -0.1511 0.6994
Cu1B Cu 0.86249(7) 0.13849(4) -0.21425(4)
Cu1C Cu 1.63751(7) -0.36151(4) 0.71425(4)
Cu2B Cu 1.43647(7) -0.02915(4) 0.75128(4)
N2B N 1.2340(5) -0.1027(3) 0.1373(3)
N7C N 1.0654(5) -0.2377(2) 0.1777(3)
N8B N 0.6139(4) 0.0055(2) 0.3482(3)
O1 O 0.3922(11) 0.2512(8) 0.9571(9)
C37 C 0.4939(17) 0.3007(10) 0.9589(11)
C38 C 0.471(3) 0.3419(15) 0.8846(14)
O2 O 0.624(2) 0.3521(9) 0.9425(13)
O3? O 0.3343(15) 0.2408(8) 0.9492(9)
C39? C 0.582(3) 0.4261(10) 0.9283(16)
C40? C 0.500(3) 0.4842(15) 0.9567(18)
loop_
_geom_bond_atom_site_label_1
_geom_bond_atom_site_label_2
_geom_bond_site_symmetry_1
_geom_bond_site_symmetry_2
Cu1 N1 1_555 1_555
Cu2 N3 1_555 1_555
N1 C16 1_555 1_555
N2 C11 1_555 1_555
N3 C1 1_555 1_555
N4 C2 1_555 1_555
N5 C6 1_555 1_555
N6 Cu1 1_555 1_555
N7 C34 1_555 1_555
N8 C25 1_555 1_555
N9 C24 1_555 1_555
N10 C29 1_555 1_555
C1 C2 1_555 1_555
C2 C9 1_555 1_555
C3 N3 1_555 1_555
C4 C3 1_555 1_555
C5 C4 1_555 1_555
H1 C5 1_555 1_555
C6 C5 1_555 1_555
H2 C6 1_555 1_555
C7 N5 1_555 1_555
H3 C7 1_555 1_555
C8 C4 1_555 1_555
H4 C8 1_555 1_555
C9 C10 1_555 1_555
C10 H5 1_555 1_555
C11 C10 1_555 1_555
H6 C11 1_555 1_555
C12 N2 1_555 1_555
H7 C12 1_555 1_555
C13 C9 1_555 1_555
H8 C13 1_555 1_555
C14 C1 1_555 1_555
C15 C14 1_555 1_555
H9 C15 1_555 1_555
C16 C15 1_555 1_555
H10 C16 1_555 1_555
C17 N1 1_555 1_555
H11 C17 1_555 1_555
C18 C14 1_555 1_555
H12 C18 1_555 1_555
C19 N6 1_555 1_555
H13 C19 1_555 1_555
C20 C19 1_555 1_555
H14 C20 1_555 1_555
C21 C20 1_555 1_555
C22 C21 1_555 1_555
H15 C22 1_555 1_555
C23 N6 1_555 1_555
H16 C23 1_555 1_555
C24 C21 1_555 1_555
C25 C24 1_555 1_555
C26 N8 1_555 1_555
C27 C26 1_555 1_555
C28 C27 1_555 1_555
H17 C28 1_555 1_555
C29 C28 1_555 1_555
H18 C29 1_555 1_555
C30 N10 1_555 1_555
H19 C30 1_555 1_555
C31 C27 1_555 1_555
H20 C31 1_555 1_555
C32 C25 1_555 1_555
C33 C32 1_555 1_555
H21 C33 1_555 1_555
C34 C33 1_555 1_555
H22 C34 1_555 1_555
C35 N7 1_555 1_555
H23 C35 1_555 1_555
C36 C32 1_555 1_555
H24 C36 1_555 1_555
O1 C37 1_555 1_555
C37 C38 1_555 1_555
Cu1B N2 1_555 1_555
Cu1C N7 1_555 1_555
Cu2B N8 1_555 1_555
N2B Cu1 1_555 1_555
N7C Cu1 1_555 1_555
N8B Cu2 1_555 1_555
N4 C3 1_555 1_555
N9 C26 1_555 1_555
C7 C8 1_555 1_555
C12 C13 1_555 1_555
C17 C18 1_555 1_555
C22 C23 1_555 1_555
C30 C31 1_555 1_555
C35 C36 1_555 1_555

#END
