
#######################################################################
#
#                 Cambridge Crystallographic Data Centre
#                                CCDC 
#
#######################################################################
#
# If this CIF has been generated from an entry in the Cambridge 
# Structural Database, then it will include bibliographic, chemical, 
# crystal, experimental, refinement or atomic coordinate data resulting 
# from the CCDC's data processing and validation procedures.
#
#######################################################################

data_PADSIY
_symmetry_cell_setting           monoclinic
_symmetry_space_group_name_H-M   'C c'
_symmetry_Int_Tables_number      9
_space_group_name_Hall           'C -2yc'
loop_
_symmetry_equiv_pos_site_id
_symmetry_equiv_pos_as_xyz
1 x,y,z
2 x,-y,1/2+z
3 1/2+x,1/2+y,z
4 1/2+x,1/2-y,1/2+z
_cell_length_a                   18.2408(19)
_cell_length_b                   19.111(2)
_cell_length_c                   16.3122(17)
_cell_angle_alpha                90
_cell_angle_beta                 108.784(2)
_cell_angle_gamma                90
_cell_volume                     5383.57
loop_
_atom_site_label
_atom_site_type_symbol
_atom_site_fract_x
_atom_site_fract_y
_atom_site_fract_z
W1 W -0.00931(4) 1.05832(3) 0.24635(4)
Mn1 Mn -0.04238(14) 0.82675(14) 0.42698(15)
Mn2 Mn 0.11650(15) 0.86202(14) 0.08527(16)
N1 N -0.0115(8) 0.9149(8) 0.3592(9)
N2 N 0.0673(9) 0.9387(8) 0.1514(9)
N3 N -0.1525(11) 0.9766(12) 0.1230(11)
N4 N -0.1603(9) 1.0801(8) 0.3153(12)
N5 N -0.0356(8) 1.1194(8) 0.0486(9)
N6 N -0.0316(10) 1.2284(8) 0.2549(11)
N7 N 0.1678(9) 1.1158(8) 0.2707(10)
N8 N 0.0774(8) 1.0925(7) 0.4545(8)
N9 N -0.0919(7) 0.7327(7) 0.4780(8)
N10 N -0.2005(8) 0.7161(7) 0.3544(9)
H1 H -0.2249 0.6842 0.3190
N11 N -0.1692(8) 0.8357(8) 0.3544(9)
N12 N 0.0765(8) 0.7796(8) 0.4872(9)
N13 N 0.0461(9) 0.6709(8) 0.4166(11)
H2 H 0.0454 0.6277 0.4310
N14 N -0.0292(8) 0.7554(8) 0.3189(9)
N15 N 0.2373(9) 0.9068(8) 0.1509(10)
N16 N 0.3028(8) 0.7977(8) 0.1634(10)
H3 H 0.3378 0.7736 0.2007
N17 N 0.1935(9) 0.7863(8) 0.0396(10)
N18 N 0.1340(8) 0.7896(8) 0.2009(9)
N19 N 0.0838(10) 0.6923(9) 0.1149(12)
H4 H 0.0955 0.6499 0.1066
N20 N 0.0186(10) 0.7885(8) 0.0416(10)
C1 C -0.0092(9) 0.9651(8) 0.3175(10)
C2 C 0.0411(10) 0.9794(9) 0.1869(10)
C3 C -0.0993(10) 1.0049(10) 0.1678(12)
C4 C -0.1080(10) 1.0750(8) 0.2899(12)
C5 C -0.0257(10) 1.0986(9) 0.1159(11)
C6 C -0.0240(10) 1.1679(8) 0.2514(13)
C7 C 0.1055(12) 1.0963(9) 0.2572(11)
C8 C 0.0475(9) 1.0817(8) 0.3790(11)
C9 C -0.0473(11) 0.7076(10) 0.5522(13)
H5 H -0.0086 0.7362 0.5871
C10 C -0.0547(12) 0.6414(12) 0.5812(13)
H6 H -0.0235 0.6268 0.6357
C11 C -0.1085(15) 0.5970(11) 0.5289(16)
H7 H -0.1129 0.5513 0.5462
C12 C -0.1552(11) 0.6206(11) 0.4520(13)
H8 H -0.1916 0.5913 0.4146
C13 C -0.1471(10) 0.6911(10) 0.4298(12)
C14 C -0.2213(10) 0.7846(9) 0.3261(11)
C15 C -0.2955(10) 0.7948(11) 0.2748(12)
H9 H -0.3291 0.7570 0.2582
C16 C -0.3207(13) 0.8609(13) 0.2474(14)
H10 H -0.3704 0.8692 0.2098
C17 C -0.2669(14) 0.9162(13) 0.2795(16)
H11 H -0.2808 0.9626 0.2655
C18 C -0.1942(12) 0.8989(11) 0.3317(13)
H12 H -0.1596 0.9354 0.3529
C19 C 0.1336(13) 0.8171(11) 0.5461(12)
H13 H 0.1242 0.8640 0.5546
C20 C 0.2026(11) 0.7899(16) 0.5922(12)
H14 H 0.2403 0.8188 0.6284
C21 C 0.2180(14) 0.7201(14) 0.5867(14)
H15 H 0.2637 0.6995 0.6212
C22 C 0.1614(12) 0.6830(12) 0.5267(13)
H16 H 0.1682 0.6353 0.5202
C23 C 0.0963(11) 0.7143(12) 0.4770(13)
C24 C -0.0047(10) 0.6900(11) 0.3333(14)
C25 C -0.0250(12) 0.6377(11) 0.2728(15)
H17 H -0.0102 0.5914 0.2860
C26 C -0.0692(13) 0.6589(14) 0.1908(15)
H18 H -0.0845 0.6260 0.1465
C27 C -0.0903(11) 0.7252(13) 0.1741(14)
H19 H -0.1200 0.7384 0.1184
C28 C -0.0689(11) 0.7729(11) 0.2371(12)
H20 H -0.0819 0.8195 0.2238
C29 C 0.2448(12) 0.9742(11) 0.1755(14)
H21 H 0.2023 1.0029 0.1508
C30 C 0.3068(13) 1.0045(12) 0.2315(14)
H22 H 0.3058 1.0514 0.2461
C31 C 0.3726(14) 0.9645(12) 0.2672(14)
H23 H 0.4176 0.9829 0.3062
C32 C 0.3672(11) 0.8966(12) 0.2418(12)
H24 H 0.4101 0.8679 0.2641
C33 C 0.3027(11) 0.8688(10) 0.1859(13)
C34 C 0.2579(10) 0.7582(10) 0.0933(12)
C35 C 0.2858(12) 0.6922(10) 0.0803(15)
H25 H 0.3330 0.6762 0.1173
C36 C 0.2442(15) 0.6521(13) 0.0142(17)
H26 H 0.2596 0.6068 0.0069
C37 C 0.1776(17) 0.6807(12) -0.0424(15)
H27 H 0.1486 0.6554 -0.0906
C38 C 0.1542(11) 0.7464(11) -0.0277(12)
H28 H 0.1087 0.7640 -0.0664
C39 C 0.1678(11) 0.8164(11) 0.2772(13)
H29 H 0.1699 0.8647 0.2838
C40 C 0.2009(11) 0.7739(13) 0.3493(15)
H30 H 0.2243 0.7944 0.4031
C41 C 0.1996(15) 0.7046(12) 0.3421(16)
H31 H 0.2229 0.6759 0.3894
C42 C 0.1627(13) 0.6773(13) 0.2623(17)
H32 H 0.1612 0.6291 0.2544
C43 C 0.1270(11) 0.7214(10) 0.1919(15)
C44 C 0.0217(11) 0.7224(14) 0.0461(13)
C45 C -0.0300(14) 0.6741(14) -0.0037(14)
H33 H -0.0216 0.6262 0.0041
C46 C -0.0927(16) 0.6998(18) -0.0636(16)
H34 H -0.1293 0.6694 -0.0986
C47 C -0.1031(14) 0.7692(19) -0.0735(15)
H35 H -0.1466 0.7882 -0.1144
C48 C -0.0484(13) 0.8088(13) -0.0221(16)
H36 H -0.0559 0.8569 -0.0296
Mn1A Mn -0.04238(14) 1.17325(14) -0.07302(15)
Mn2A Mn 0.11650(15) 1.13798(14) 0.58527(16)
N5A N -0.0356(8) 0.8806(8) 0.5486(9)
N8A N 0.0774(8) 0.9075(7) -0.0455(8)
O1 O 0.7571(8) 0.0486(8) 0.4394(9)
H37 H 0.8004 0.0383 0.4768
H38 H 0.7627 0.0523 0.3899
O2 O 0.6069(8) 0.0191(8) 0.4042(12)
H39 H 0.5814 0.0547 0.4108
H40 H 0.6490 0.0166 0.4462
O3 O 0.5650(12) 0.9762(11) 0.6134(14)
H41 H 0.5259 1.0027 0.6057
H42 H 0.5676 0.9474 0.6539
O4 O 0.6853(12) 0.9655(11) 0.6186(13)
H43 H 0.7042 0.9260 0.6120
H44 H 0.7081 0.9977 0.6002
N21 N 0.3266(16) 0.0722(16) 1.005(2)
C49 C 0.2672(13) 0.0532(13) 0.9679(16)
C50 C 0.1855(13) 0.0296(13) 0.9210(18)
H45 H 0.1723 -0.0083 0.9523
H46 H 0.1818 0.0141 0.8639
H47 H 0.1505 0.0679 0.9171
loop_
_geom_bond_atom_site_label_1
_geom_bond_atom_site_label_2
_geom_bond_site_symmetry_1
_geom_bond_site_symmetry_2
W1 C1 1_555 1_555
Mn1 N1 1_555 1_555
Mn2 N2 1_555 1_555
N1 C1 1_555 1_555
N2 C2 1_555 1_555
N3 C3 1_555 1_555
N4 C4 1_555 1_555
N5 C5 1_555 1_555
N6 C6 1_555 1_555
N7 C7 1_555 1_555
N8 C8 1_555 1_555
N9 Mn1 1_555 1_555
N10 H1 1_555 1_555
N11 Mn1 1_555 1_555
N12 Mn1 1_555 1_555
N13 H2 1_555 1_555
N14 Mn1 1_555 1_555
N15 Mn2 1_555 1_555
N16 H3 1_555 1_555
N17 Mn2 1_555 1_555
N18 Mn2 1_555 1_555
N19 H4 1_555 1_555
N20 Mn2 1_555 1_555
C2 W1 1_555 1_555
C3 W1 1_555 1_555
C4 W1 1_555 1_555
C5 W1 1_555 1_555
C6 W1 1_555 1_555
C7 W1 1_555 1_555
C8 W1 1_555 1_555
C9 N9 1_555 1_555
H5 C9 1_555 1_555
C10 C9 1_555 1_555
H6 C10 1_555 1_555
C11 C10 1_555 1_555
H7 C11 1_555 1_555
C12 C11 1_555 1_555
H8 C12 1_555 1_555
C13 N9 1_555 1_555
C14 N10 1_555 1_555
C15 C14 1_555 1_555
H9 C15 1_555 1_555
C16 C15 1_555 1_555
H10 C16 1_555 1_555
C17 C16 1_555 1_555
H11 C17 1_555 1_555
C18 N11 1_555 1_555
H12 C18 1_555 1_555
C19 N12 1_555 1_555
H13 C19 1_555 1_555
C20 C19 1_555 1_555
H14 C20 1_555 1_555
C21 C20 1_555 1_555
H15 C21 1_555 1_555
C22 C21 1_555 1_555
H16 C22 1_555 1_555
C23 N12 1_555 1_555
C24 N13 1_555 1_555
C25 C24 1_555 1_555
H17 C25 1_555 1_555
C26 C25 1_555 1_555
H18 C26 1_555 1_555
C27 C26 1_555 1_555
H19 C27 1_555 1_555
C28 N14 1_555 1_555
H20 C28 1_555 1_555
C29 N15 1_555 1_555
H21 C29 1_555 1_555
C30 C29 1_555 1_555
H22 C30 1_555 1_555
C31 C30 1_555 1_555
H23 C31 1_555 1_555
C32 C31 1_555 1_555
H24 C32 1_555 1_555
C33 N15 1_555 1_555
C34 N16 1_555 1_555
C35 C34 1_555 1_555
H25 C35 1_555 1_555
C36 C35 1_555 1_555
H26 C36 1_555 1_555
C37 C36 1_555 1_555
H27 C37 1_555 1_555
C38 N17 1_555 1_555
H28 C38 1_555 1_555
C39 N18 1_555 1_555
H29 C39 1_555 1_555
C40 C39 1_555 1_555
H30 C40 1_555 1_555
C41 C40 1_555 1_555
H31 C41 1_555 1_555
C42 C41 1_555 1_555
H32 C42 1_555 1_555
C43 N18 1_555 1_555
C44 N19 1_555 1_555
C45 C44 1_555 1_555
H33 C45 1_555 1_555
C46 C45 1_555 1_555
H34 C46 1_555 1_555
C47 C46 1_555 1_555
H35 C47 1_555 1_555
C48 N20 1_555 1_555
H36 C48 1_555 1_555
O1 H37 1_555 1_555
H38 O1 1_555 1_555
O2 H39 1_555 1_555
H40 O2 1_555 1_555
O3 H41 1_555 1_555
H42 O3 1_555 1_555
O4 H43 1_555 1_555
H44 O4 1_555 1_555
N21 C49 1_555 1_555
C49 C50 1_555 1_555
C50 H45 1_555 1_555
H46 C50 1_555 1_555
H47 C50 1_555 1_555
Mn1A N5 1_555 1_555
Mn2A N8 1_555 1_555
N5A Mn1 1_555 1_555
N8A Mn2 1_555 1_555
N10 C13 1_555 1_555
N11 C14 1_555 1_555
N13 C23 1_555 1_555
N14 C24 1_555 1_555
N16 C33 1_555 1_555
N17 C34 1_555 1_555
N19 C43 1_555 1_555
N20 C44 1_555 1_555
C12 C13 1_555 1_555
C17 C18 1_555 1_555
C22 C23 1_555 1_555
C27 C28 1_555 1_555
C32 C33 1_555 1_555
C37 C38 1_555 1_555
C42 C43 1_555 1_555
C47 C48 1_555 1_555

#END
