
#######################################################################
#
#                 Cambridge Crystallographic Data Centre
#                                CCDC 
#
#######################################################################
#
# If this CIF has been generated from an entry in the Cambridge 
# Structural Database, then it will include bibliographic, chemical, 
# crystal, experimental, refinement or atomic coordinate data resulting 
# from the CCDC's data processing and validation procedures.
#
#######################################################################

data_PAFDUV
_symmetry_cell_setting           orthorhombic
_symmetry_space_group_name_H-M   'P 21 21 21'
_symmetry_Int_Tables_number      19
_space_group_name_Hall           'P 2ac 2ab'
loop_
_symmetry_equiv_pos_site_id
_symmetry_equiv_pos_as_xyz
1 x,y,z
2 1/2+x,1/2-y,-z
3 -x,1/2+y,1/2-z
4 1/2-x,-y,1/2+z
_cell_length_a                   8.174(1)
_cell_length_b                   10.302(3)
_cell_length_c                   17.006(5)
_cell_angle_alpha                90
_cell_angle_beta                 90
_cell_angle_gamma                90
_cell_volume                     1432.05
loop_
_atom_site_label
_atom_site_type_symbol
_atom_site_fract_x
_atom_site_fract_y
_atom_site_fract_z
Cu1 Cu 0.21450(6) -0.12348(5) 0.03121(3)
O1 O -0.4081(4) 0.2428(3) 0.0389(2)
O2 O 0.0185(4) -0.0305(3) 0.0065(2)
O3 O -0.0005(4) 0.2651(3) 0.2196(2)
O4 O 0.4284(4) -0.1954(3) 0.0252(2)
O5 O 0.6706(3) -0.2617(3) 0.0609(2)
O6 O 0.0834(4) -0.2639(3) 0.1208(2)
N1 N -0.1978(5) 0.2602(3) 0.1262(2)
N2 N -0.1941(4) 0.1041(3) 0.0245(2)
N3 N 0.1775(4) 0.0846(3) 0.1443(2)
N4 N 0.2744(4) -0.0016(3) 0.1141(2)
C1 C -0.2813(7) 0.3709(5) 0.1639(3)
C2 C -0.2756(6) 0.2061(4) 0.0623(3)
C3 C -0.2704(6) 0.0526(5) -0.0477(3)
C4 C -0.0449(5) 0.0579(4) 0.0476(2)
C5 C 0.0275(5) 0.1117(4) 0.1160(2)
C6 C -0.0516(5) 0.2151(4) 0.1589(2)
C7 C 0.4282(5) -0.0064(4) 0.1561(2)
C8 C 0.5501(5) -0.0988(4) 0.1386(4)
C9 C 0.6924(5) -0.1019(4) 0.1854(2)
C10 C 0.7166(6) -0.0140(4) 0.2462(2)
C11 C 0.5992(6) 0.0783(4) 0.2611(3)
C12 C 0.4563(5) 0.0836(4) 0.2170(2)
C13 C 0.5468(5) -0.1923(4) 0.0720(3)
H1 H -0.2109 0.3910 0.2054
H2 H -0.2918 0.4418 0.1286
H3 H -0.3864 0.3466 0.1827
H4 H -0.2820 -0.0419 -0.0404
H5 H -0.3748 0.0912 -0.0554
H6 H -0.2029 0.0702 -0.0919
H7 H 0.7736 -0.1657 0.1751
H8 H 0.8132 -0.0176 0.2772
H9 H 0.6160 0.1394 0.3022
H10 H 0.3769 0.1484 0.2280
O5A O 0.1706(3) -0.2383(3) -0.0609(2)
Cu1A Cu 0.71450(6) -0.37652(5) -0.03121(3)
loop_
_geom_bond_atom_site_label_1
_geom_bond_atom_site_label_2
_geom_bond_site_symmetry_1
_geom_bond_site_symmetry_2
Cu1 O2 1_555 1_555
O1 C2 1_555 1_555
O2 C4 1_555 1_555
O3 C6 1_555 1_555
O4 Cu1 1_555 1_555
O5 C13 1_555 1_555
O6 Cu1 1_555 1_555
N1 C1 1_555 1_555
N2 C2 1_555 1_555
N3 N4 1_555 1_555
N4 Cu1 1_555 1_555
C1 H1 1_555 1_555
C2 N1 1_555 1_555
C3 N2 1_555 1_555
C4 N2 1_555 1_555
C5 N3 1_555 1_555
C6 N1 1_555 1_555
C7 N4 1_555 1_555
C8 C7 1_555 1_555
C9 C8 1_555 1_555
C10 C9 1_555 1_555
C11 C10 1_555 1_555
C12 C7 1_555 1_555
C13 O4 1_555 1_555
H2 C1 1_555 1_555
H3 C1 1_555 1_555
H4 C3 1_555 1_555
H5 C3 1_555 1_555
H6 C3 1_555 1_555
H7 C9 1_555 1_555
H8 C10 1_555 1_555
H9 C11 1_555 1_555
H10 C12 1_555 1_555
O5A Cu1 1_555 1_555
Cu1A O5 1_555 1_555
C4 C5 1_555 1_555
C5 C6 1_555 1_555
C8 C13 1_555 1_555
C11 C12 1_555 1_555

#END
