
#######################################################################
#
#                 Cambridge Crystallographic Data Centre
#                                CCDC 
#
#######################################################################
#
# If this CIF has been generated from an entry in the Cambridge 
# Structural Database, then it will include bibliographic, chemical, 
# crystal, experimental, refinement or atomic coordinate data resulting 
# from the CCDC's data processing and validation procedures.
#
#######################################################################

data_PAFNER
_symmetry_cell_setting           monoclinic
_symmetry_space_group_name_H-M   'P 21/c'
_symmetry_Int_Tables_number      14
_space_group_name_Hall           '-P 2ybc'
loop_
_symmetry_equiv_pos_site_id
_symmetry_equiv_pos_as_xyz
1 x,y,z
2 -x,1/2+y,1/2-z
3 -x,-y,-z
4 x,1/2-y,1/2+z
_cell_length_a                   9.816(5)
_cell_length_b                   18.729(5)
_cell_length_c                   14.288(4)
_cell_angle_alpha                90
_cell_angle_beta                 118.08(2)
_cell_angle_gamma                90
_cell_volume                     2317.57
loop_
_atom_site_label
_atom_site_type_symbol
_atom_site_fract_x
_atom_site_fract_y
_atom_site_fract_z
Sn1 Sn 0.46846(2) 0.820418(10) 0.333017(14)
O1 O 0.2657(2) 0.81987(10) 0.17893(14)
O2 O 0.2373(3) 0.93756(11) 0.15585(16)
N1 N -0.3023(2) 0.81286(13) -0.48994(17)
N2 N -0.1283(2) 0.81897(13) -0.32112(17)
C1 C -0.0651(3) 0.77790(17) -0.3715(2)
H1 H 0.0320 0.7567 -0.3408
C2 C -0.1731(3) 0.77500(17) -0.4741(2)
H2 H -0.1620 0.7508 -0.5269
C3 C -0.2718(3) 0.83823(15) -0.3961(2)
H3 H -0.3398 0.8658 -0.3830
C4 C -0.0540(3) 0.83432(15) -0.2099(2)
C5 C 0.0058(3) 0.77807(15) -0.1398(2)
H4 H -0.0094 0.7313 -0.1645
C6 C 0.0886(3) 0.79203(15) -0.0322(2)
H5 H 0.1295 0.7543 0.0154
C7 C 0.1112(3) 0.86166(15) 0.0055(2)
C8 C 0.0467(3) 0.91774(16) -0.0660(2)
H6 H 0.0592 0.9644 -0.0411
C9 C -0.0363(3) 0.90445(16) -0.1740(2)
H7 H -0.0795 0.9419 -0.2218
C10 C 0.2111(3) 0.87592(16) 0.1227(2)
C11 C 0.4683(3) 0.70633(14) 0.3352(2)
C12 C 0.5817(3) 0.66856(15) 0.3229(2)
H8 H 0.6549 0.6935 0.3119
C13 C 0.5872(3) 0.59435(16) 0.3269(2)
H9 H 0.6641 0.5703 0.3191
C14 C 0.4797(4) 0.55637(16) 0.3423(2)
H10 H 0.4836 0.5068 0.3453
C15 C 0.3659(4) 0.59276(17) 0.3534(3)
H11 H 0.2919 0.5674 0.3629
C16 C 0.3607(3) 0.66674(16) 0.3504(2)
H12 H 0.2837 0.6903 0.3588
C17 C 0.3692(3) 0.87437(14) 0.4174(2)
C18 C 0.3222(3) 0.94522(16) 0.4006(2)
H13 H 0.3290 0.9712 0.3475
C19 C 0.2654(4) 0.97766(17) 0.4622(3)
H14 H 0.2344 1.0252 0.4499
C20 C 0.2541(4) 0.94010(17) 0.5419(2)
H15 H 0.2162 0.9623 0.5831
C21 C 0.2993(3) 0.86996(16) 0.5594(2)
H16 H 0.2920 0.8443 0.6126
C22 C 0.3559(3) 0.83732(15) 0.4977(2)
H17 H 0.3858 0.7897 0.5100
C23 C 0.6178(3) 0.85938(14) 0.2733(2)
C24 C 0.7573(3) 0.89356(15) 0.3348(2)
H18 H 0.7871 0.9028 0.4058
C25 C 0.8529(4) 0.91421(17) 0.2932(3)
H19 H 0.9450 0.9379 0.3358
C26 C 0.8120(4) 0.89974(17) 0.1885(3)
H20 H 0.8767 0.9132 0.1605
C27 C 0.6749(4) 0.86532(18) 0.1258(2)
H21 H 0.6470 0.8554 0.0552
C28 C 0.5784(3) 0.84532(16) 0.1674(2)
H22 H 0.4859 0.8222 0.1242
Sn1_2 Sn -0.53154(2) 0.820418(10) -0.666983(14)
N1_2 N 0.6977(2) 0.81286(13) 0.51006(17)
loop_
_geom_bond_atom_site_label_1
_geom_bond_atom_site_label_2
_geom_bond_site_symmetry_1
_geom_bond_site_symmetry_2
Sn1 O1 1_555 1_555
O1 C10 1_555 1_555
O2 C10 1_555 1_555
N1 C2 1_555 1_555
N2 C1 1_555 1_555
C1 H1 1_555 1_555
C2 C1 1_555 1_555
H2 C2 1_555 1_555
C3 N1 1_555 1_555
H3 C3 1_555 1_555
C4 N2 1_555 1_555
C5 C4 1_555 1_555
H4 C5 1_555 1_555
C6 C5 1_555 1_555
H5 C6 1_555 1_555
C7 C6 1_555 1_555
C8 C7 1_555 1_555
H6 C8 1_555 1_555
C9 C4 1_555 1_555
H7 C9 1_555 1_555
C10 C7 1_555 1_555
C11 Sn1 1_555 1_555
C12 C11 1_555 1_555
H8 C12 1_555 1_555
C13 C12 1_555 1_555
H9 C13 1_555 1_555
C14 C13 1_555 1_555
H10 C14 1_555 1_555
C15 C14 1_555 1_555
H11 C15 1_555 1_555
C16 C11 1_555 1_555
H12 C16 1_555 1_555
C17 Sn1 1_555 1_555
C18 C17 1_555 1_555
H13 C18 1_555 1_555
C19 C18 1_555 1_555
H14 C19 1_555 1_555
C20 C19 1_555 1_555
H15 C20 1_555 1_555
C21 C20 1_555 1_555
H16 C21 1_555 1_555
C22 C17 1_555 1_555
H17 C22 1_555 1_555
C23 Sn1 1_555 1_555
C24 C23 1_555 1_555
H18 C24 1_555 1_555
C25 C24 1_555 1_555
H19 C25 1_555 1_555
C26 C25 1_555 1_555
H20 C26 1_555 1_555
C27 C26 1_555 1_555
H21 C27 1_555 1_555
C28 C23 1_555 1_555
H22 C28 1_555 1_555
Sn1_2 N1 1_555 1_555
N1_2 Sn1 1_555 1_555
N2 C3 1_555 1_555
C8 C9 1_555 1_555
C15 C16 1_555 1_555
C21 C22 1_555 1_555
C27 C28 1_555 1_555

#END
