
#######################################################################
#
#                 Cambridge Crystallographic Data Centre
#                                CCDC 
#
#######################################################################
#
# If this CIF has been generated from an entry in the Cambridge 
# Structural Database, then it will include bibliographic, chemical, 
# crystal, experimental, refinement or atomic coordinate data resulting 
# from the CCDC's data processing and validation procedures.
#
#######################################################################

data_PAFNUF
_symmetry_cell_setting           monoclinic
_symmetry_space_group_name_H-M   'P 21/n'
_symmetry_Int_Tables_number      14
_space_group_name_Hall           '-P 2yn'
loop_
_symmetry_equiv_pos_site_id
_symmetry_equiv_pos_as_xyz
1 x,y,z
2 1/2-x,1/2+y,1/2-z
3 -x,-y,-z
4 1/2+x,1/2-y,1/2+z
_cell_length_a                   12.990(4)
_cell_length_b                   18.977(6)
_cell_length_c                   18.594(5)
_cell_angle_alpha                90
_cell_angle_beta                 93.94(1)
_cell_angle_gamma                90
_cell_volume                     4572.8
loop_
_atom_site_label
_atom_site_type_symbol
_atom_site_fract_x
_atom_site_fract_y
_atom_site_fract_z
Nd1 Nd 0.63610(4) 0.20231(3) 0.77893(3)
O1 O 0.7434(5) 0.2599(4) 0.7135(4)
C1 C 0.8282(7) 0.2923(6) 0.6924(6)
C2 C 0.9168(8) 0.2917(6) 0.7405(5)
C3 C 1.0052(8) 0.3261(6) 0.7186(6)
C4 C 1.0055(7) 0.3593(5) 0.6535(6)
C5 C 0.9169(8) 0.3579(6) 0.6064(6)
C6 C 0.8292(8) 0.3239(6) 0.6254(6)
C7 C 0.9161(8) 0.2523(5) 0.8118(6)
C8 C 0.8597(8) 0.2958(8) 0.8669(6)
C9 C 1.0207(9) 0.2292(6) 0.8446(7)
C10 C 0.7324(8) 0.3188(6) 0.5736(6)
C11 C 0.6554(10) 0.3763(9) 0.5883(9)
C12 C 0.7551(11) 0.3155(11) 0.4957(8)
O2 O 0.5061(5) 0.1564(4) 0.7104(4)
C13 C 0.4877(8) 0.0925(6) 0.6872(6)
C14 C 0.4128(8) 0.0500(6) 0.7200(6)
C15 C 0.3941(8) -0.0186(6) 0.6961(6)
C16 C 0.4474(9) -0.0462(6) 0.6415(6)
C17 C 0.5184(8) -0.0056(6) 0.6075(6)
C18 C 0.5373(8) 0.0634(6) 0.6291(6)
C19 C 0.3559(9) 0.0822(6) 0.7804(7)
C20 C 0.2466(10) 0.0523(9) 0.7891(9)
C21 C 0.4186(10) 0.0757(7) 0.8527(7)
C22 C 0.6061(8) 0.1116(6) 0.5877(6)
C23 C 0.5395(8) 0.1653(6) 0.5424(6)
C24 C 0.6812(8) 0.0746(7) 0.5411(6)
O3 O 0.5843(5) 0.2635(4) 0.8690(4)
C25 C 0.5264(8) 0.3159(5) 0.8953(6)
C26 C 0.5591(8) 0.3491(7) 0.9601(6)
C27 C 0.4965(8) 0.4045(6) 0.9832(6)
C28 C 0.4106(9) 0.4266(6) 0.9439(7)
C29 C 0.3790(9) 0.3919(6) 0.8804(7)
C30 C 0.4354(8) 0.3370(6) 0.8557(6)
C31 C 0.6522(8) 0.3247(6) 1.0058(6)
C32 C 0.7363(9) 0.3816(7) 1.0144(8)
C33 C 0.6231(11) 0.3008(9) 1.0792(7)
C34 C 0.4039(8) 0.2992(7) 0.7849(7)
C35 C 0.2879(10) 0.3004(9) 0.7649(8)
C36 C 0.4614(10) 0.3274(6) 0.7219(7)
O4 O 0.7039(5) 0.0985(4) 0.8145(4)
C37 C 0.7987(7) 0.0775(5) 0.8408(5)
C38 C 0.8708(8) 0.0499(6) 0.7955(6)
C39 C 0.9684(8) 0.0308(6) 0.8250(6)
C40 C 0.9953(8) 0.0387(6) 0.8967(6)
C41 C 0.9259(8) 0.0655(6) 0.9423(6)
C42 C 0.8269(8) 0.0863(6) 0.9168(6)
C43 C 0.8435(7) 0.0423(5) 0.7151(5)
C44 C 0.9063(8) 0.0961(7) 0.6730(6)
C45 C 0.8609(9) -0.0323(7) 0.6873(7)
C46 C 0.7474(9) 0.1142(7) 0.9663(6)
C47 C 0.6703(9) 0.0558(7) 0.9824(6)
C48 C 0.7962(10) 0.1432(7) 1.0357(6)
K1 K 0.6254(2) -0.0307(1) 0.7702(1)
H1 H 1.066 0.326 0.750
H2 H 1.066 0.383 0.640
H3 H 0.917 0.381 0.561
H4 H 0.877 0.211 0.803
H5 H 0.839 0.336 0.880
H6 H 0.794 0.309 0.846
H7 H 0.851 0.268 0.909
H8 H 1.012 0.201 0.886
H9 H 1.055 0.203 0.810
H10 H 1.061 0.269 0.859
H11 H 0.700 0.275 0.584
H12 H 0.684 0.421 0.577
H13 H 0.594 0.369 0.559
H14 H 0.641 0.375 0.637
H15 H 0.801 0.278 0.489
H16 H 0.693 0.309 0.467
H17 H 0.786 0.359 0.482
H18 H 0.344 -0.046 0.717
H19 H 0.436 -0.094 0.627
H20 H 0.554 -0.025 0.569
H21 H 0.348 0.131 0.770
H22 H 0.215 0.078 0.826
H23 H 0.206 0.057 0.745
H24 H 0.252 0.004 0.802
H25 H 0.424 0.028 0.866
H26 H 0.486 0.095 0.848
H27 H 0.385 0.102 0.888
H28 H 0.647 0.138 0.623
H29 H 0.583 0.199 0.522
H30 H 0.501 0.141 0.505
H31 H 0.494 0.188 0.572
H32 H 0.722 0.042 0.570
H33 H 0.644 0.050 0.503
H34 H 0.725 0.109 0.521
H35 H 0.515 0.427 1.028
H36 H 0.371 0.465 0.960
H37 H 0.318 0.407 0.853
H38 H 0.680 0.285 0.982
H39 H 0.795 0.363 1.042
H40 H 0.756 0.396 0.968
H41 H 0.711 0.421 1.039
H42 H 0.597 0.340 1.104
H43 H 0.572 0.265 1.074
H44 H 0.683 0.283 1.106
H45 H 0.423 0.251 0.791
H46 H 0.266 0.347 0.755
H47 H 0.273 0.272 0.723
H48 H 0.252 0.282 0.804
H49 H 0.534 0.325 0.734
H50 H 0.445 0.299 0.680
H51 H 0.441 0.375 0.712
H52 H 1.017 0.012 0.795
H53 H 1.062 0.026 0.916
H54 H 0.946 0.070 0.992
H55 H 0.772 0.053 0.706
H56 H 0.977 0.085 0.679
H57 H 0.884 0.094 0.623
H58 H 0.895 0.142 0.691
H59 H 0.822 -0.065 0.713
H60 H 0.838 -0.034 0.637
H61 H 0.932 -0.044 0.693
H62 H 0.710 0.151 0.942
H63 H 0.619 0.074 1.011
H64 H 0.638 0.039 0.938
H65 H 0.706 0.018 1.007
H66 H 0.833 0.107 1.061
H67 H 0.843 0.180 1.025
H68 H 0.744 0.161 1.064
K1A K 0.8746(2) 0.4693(1) 0.7298(1)
C1A C 0.6718(7) -0.2077(6) 0.8076(6)
C2A C 0.5832(8) -0.2083(6) 0.7595(5)
C3A C 0.4948(8) -0.1739(6) 0.7814(6)
C4A C 0.4945(7) -0.1407(5) 0.8465(6)
C5A C 0.5831(8) -0.1421(6) 0.8936(6)
C6A C 0.6708(8) -0.1761(6) 0.8746(6)
H2A H 0.434 -0.117 0.860
H1A H 0.434 -0.174 0.750
H3A H 0.583 -0.119 0.939
loop_
_geom_bond_atom_site_label_1
_geom_bond_atom_site_label_2
_geom_bond_site_symmetry_1
_geom_bond_site_symmetry_2
Nd1 O1 1_555 1_555
O1 C1 1_555 1_555
C1 C2 1_555 1_555
C2 C3 1_555 1_555
C3 C4 1_555 1_555
C4 C5 1_555 1_555
C5 C6 1_555 1_555
C6 C1 1_555 1_555
C7 C2 1_555 1_555
C8 C7 1_555 1_555
C9 C7 1_555 1_555
C10 C6 1_555 1_555
C11 C10 1_555 1_555
C12 C10 1_555 1_555
O2 Nd1 1_555 1_555
C13 O2 1_555 1_555
C14 C13 1_555 1_555
C15 C14 1_555 1_555
C16 C15 1_555 1_555
C17 C16 1_555 1_555
C18 C13 1_555 1_555
C19 C14 1_555 1_555
C20 C19 1_555 1_555
C21 C19 1_555 1_555
C22 C18 1_555 1_555
C23 C22 1_555 1_555
C24 C22 1_555 1_555
O3 Nd1 1_555 1_555
C25 O3 1_555 1_555
C26 C25 1_555 1_555
C27 C26 1_555 1_555
C28 C27 1_555 1_555
C29 C28 1_555 1_555
C30 C25 1_555 1_555
C31 C26 1_555 1_555
C32 C31 1_555 1_555
C33 C31 1_555 1_555
C34 C30 1_555 1_555
C35 C34 1_555 1_555
C36 C34 1_555 1_555
O4 Nd1 1_555 1_555
C37 O4 1_555 1_555
C38 C37 1_555 1_555
C39 C38 1_555 1_555
C40 C39 1_555 1_555
C41 C40 1_555 1_555
C42 C37 1_555 1_555
C43 C38 1_555 1_555
C44 C43 1_555 1_555
C45 C43 1_555 1_555
C46 C42 1_555 1_555
C47 C46 1_555 1_555
C48 C46 1_555 1_555
K1 C13 1_555 1_555
H1 C3 1_555 1_555
H2 C4 1_555 1_555
H3 C5 1_555 1_555
H4 C7 1_555 1_555
H5 C8 1_555 1_555
H6 C8 1_555 1_555
H7 C8 1_555 1_555
H8 C9 1_555 1_555
H9 C9 1_555 1_555
H10 C9 1_555 1_555
H11 C10 1_555 1_555
H12 C11 1_555 1_555
H13 C11 1_555 1_555
H14 C11 1_555 1_555
H15 C12 1_555 1_555
H16 C12 1_555 1_555
H17 C12 1_555 1_555
H18 C15 1_555 1_555
H19 C16 1_555 1_555
H20 C17 1_555 1_555
H21 C19 1_555 1_555
H22 C20 1_555 1_555
H23 C20 1_555 1_555
H24 C20 1_555 1_555
H25 C21 1_555 1_555
H26 C21 1_555 1_555
H27 C21 1_555 1_555
H28 C22 1_555 1_555
H29 C23 1_555 1_555
H30 C23 1_555 1_555
H31 C23 1_555 1_555
H32 C24 1_555 1_555
H33 C24 1_555 1_555
H34 C24 1_555 1_555
H35 C27 1_555 1_555
H36 C28 1_555 1_555
H37 C29 1_555 1_555
H38 C31 1_555 1_555
H39 C32 1_555 1_555
H40 C32 1_555 1_555
H41 C32 1_555 1_555
H42 C33 1_555 1_555
H43 C33 1_555 1_555
H44 C33 1_555 1_555
H45 C34 1_555 1_555
H46 C35 1_555 1_555
H47 C35 1_555 1_555
H48 C35 1_555 1_555
H49 C36 1_555 1_555
H50 C36 1_555 1_555
H51 C36 1_555 1_555
H52 C39 1_555 1_555
H53 C40 1_555 1_555
H54 C41 1_555 1_555
H55 C43 1_555 1_555
H56 C44 1_555 1_555
H57 C44 1_555 1_555
H58 C44 1_555 1_555
H59 C45 1_555 1_555
H60 C45 1_555 1_555
H61 C45 1_555 1_555
H62 C46 1_555 1_555
H63 C47 1_555 1_555
H64 C47 1_555 1_555
H65 C47 1_555 1_555
H66 C48 1_555 1_555
H67 C48 1_555 1_555
H68 C48 1_555 1_555
K1A C1 1_555 1_555
C1A K1 1_555 1_555
C2A K1 1_555 1_555
C3A K1 1_555 1_555
C4A K1 1_555 1_555
C5A K1 1_555 1_555
C6A K1 1_555 1_555
H2A C4A 1_555 1_555
H1A C3A 1_555 1_555
H3A C5A 1_555 1_555
C2 K1A 1_555 1_555
C3 K1A 1_555 1_555
C4 K1A 1_555 1_555
C5 K1A 1_555 1_555
C6 K1A 1_555 1_555
C14 K1 1_555 1_555
C15 K1 1_555 1_555
C16 K1 1_555 1_555
C17 C18 1_555 1_555
C17 K1 1_555 1_555
C18 K1 1_555 1_555
C29 C30 1_555 1_555
O4 K1 1_555 1_555
C41 C42 1_555 1_555
C1A C2A 1_555 1_555
C1A C6A 1_555 1_555
C2A C3A 1_555 1_555
C3A C4A 1_555 1_555
C4A C5A 1_555 1_555
C5A C6A 1_555 1_555

#END
