
#######################################################################
#
#                 Cambridge Crystallographic Data Centre
#                                CCDC 
#
#######################################################################
#
# If this CIF has been generated from an entry in the Cambridge 
# Structural Database, then it will include bibliographic, chemical, 
# crystal, experimental, refinement or atomic coordinate data resulting 
# from the CCDC's data processing and validation procedures.
#
#######################################################################

data_PAFVUN
_symmetry_cell_setting           trigonal
_symmetry_space_group_name_H-M   'P 32 2 1'
_symmetry_Int_Tables_number      154
_space_group_name_Hall           'P 32 2"'
loop_
_symmetry_equiv_pos_site_id
_symmetry_equiv_pos_as_xyz
1 x,y,z
2 -y,x-y,2/3+z
3 -x+y,-x,1/3+z
4 y,x,-z
5 x-y,-y,1/3-z
6 -x,-x+y,2/3-z
_cell_length_a                   9.898(2)
_cell_length_b                   9.898(2)
_cell_length_c                   11.175(5)
_cell_angle_alpha                90
_cell_angle_beta                 90
_cell_angle_gamma                120
_cell_volume                     948.141
loop_
_atom_site_label
_atom_site_type_symbol
_atom_site_fract_x
_atom_site_fract_y
_atom_site_fract_z
Bi1 Bi 0.0902(1) 1.0000 0.16667
O1 O 0.0000 0.8215 0.33334
C1 C 0.208(5) 0.871(4) 0.076(2)
C2 C 0.082(5) 0.733(4) 0.007(2)
C3 C 0.0000 0.6809(9) 0.33333
C4 C 0.0000 0.3991(9) 0.33333
C5 C -0.1258(2) 0.5475(9) 0.2846(4)
C6 C -0.1258(2) 0.4066(9) 0.2846(4)
F1 F 0.0000 0.2657(9) 0.33333
F2 F -0.2449(5) 0.555(1) 0.2386(7)
F3 F -0.2449(5) 0.280(1) 0.2386(7)
C6E C 0.1258(2) 0.5324(9) 0.3821(4)
C5E C 0.1258(2) 0.6733(9) 0.3821(4)
F3E F 0.2449(5) 0.5249(11) 0.4281(7)
F2E F 0.2449(5) 0.7999(11) 0.4281(7)
C1D C 0.337(6) 1.129(4) 0.257(2)
C2D C 0.349(6) 1.267(4) 0.326(2)
O1A O 0.1785 1.1785 0.00001
Bi1B Bi -0.0902(1) 0.9098(1) 0.50000
Bi1A Bi 0.0000 1.0902(1) -0.16666
C3A C 0.3191(9) 1.3191(9) -0.00000
O1B O -0.1785 1.0000 0.66667
C1B C -0.337(6) 0.792(5) 0.409(2)
C1E C -0.208(5) 0.663(6) 0.591(2)
O1B_2 O -0.1785 1.0000 -0.33333
C1A C 0.129(4) 1.337(6) -0.257(2)
C1C C -0.129(4) 1.208(5) -0.076(2)
C5A C 0.4525(9) 1.3267(9) -0.0487(4)
C5D C 0.3267(9) 1.4525(9) 0.0487(4)
Bi1A_2 Bi 0.0000 1.0902(1) 0.83334
C3B C -0.3191(9) 1.0000 0.66666
C2B C -0.349(6) 0.918(5) 0.340(2)
C2E C -0.082(5) 0.651(6) 0.660(2)
C2A C 0.267(4) 1.349(6) -0.326(2)
C2C C -0.267(4) 1.082(5) -0.007(2)
C6A C 0.5934(9) 1.4676(9) -0.0487(4)
F2A F 0.445(1) 1.2001(11) -0.0947(7)
C6D C 0.4676(9) 1.5934(9) 0.0487(4)
F2D F 0.2001(11) 1.445(1) 0.0947(7)
C5B C -0.3267(9) 1.1258(2) 0.6179(4)
C5C C -0.4525(9) 0.8742(2) 0.7154(4)
C4A C 0.6009(9) 1.6009(9) -0.00000
F3A F 0.720(1) 1.4751(11) -0.0947(7)
F3D F 0.4751(11) 1.720(1) 0.0947(7)
C6B C -0.4676(9) 1.1258(2) 0.6179(4)
F2B F -0.2001(11) 1.2449(5) 0.5719(7)
C6C C -0.5934(9) 0.8742(2) 0.7154(4)
F2C F -0.445(1) 0.7551(5) 0.7614(7)
F1A F 0.7343(9) 1.7343(9) -0.00000
C4B C -0.6009(9) 1.0000 0.66666
F3B F -0.4751(11) 1.2449(5) 0.5719(7)
F3C F -0.720(1) 0.7551(5) 0.7614(7)
F1B F -0.7343(9) 1.0000 0.66666
loop_
_geom_bond_atom_site_label_1
_geom_bond_atom_site_label_2
_geom_bond_site_symmetry_1
_geom_bond_site_symmetry_2
Bi1 O1 1_555 1_555
O1 C3 1_555 1_555
C1 Bi1 1_555 1_555
C2 C1 1_555 1_555
C3 C5 1_555 1_555
C4 C6 1_555 1_555
C5 C6 1_555 1_555
C6 F3 1_555 1_555
F1 C4 1_555 1_555
F2 C5 1_555 1_555
C6E C4 1_555 1_555
C5E C3 1_555 1_555
F3E C6E 1_555 1_555
F2E C5E 1_555 1_555
C1D Bi1 1_555 1_555
C2D C1D 1_555 1_555
O1A Bi1 1_555 1_555
Bi1B O1 1_555 1_555
Bi1A O1A 1_555 1_555
C3A O1A 1_555 1_555
O1B Bi1B 1_555 1_555
C1B Bi1B 1_555 1_555
C1E Bi1B 1_555 1_555
O1B_2 Bi1A 1_555 1_555
C1A Bi1A 1_555 1_555
C1C Bi1A 1_555 1_555
C5A C3A 1_555 1_555
C5D C3A 1_555 1_555
Bi1A_2 O1B 1_555 1_555
C3B O1B 1_555 1_555
C2B C1B 1_555 1_555
C2E C1E 1_555 1_555
C2A C1A 1_555 1_555
C2C C1C 1_555 1_555
C6A C5A 1_555 1_555
F2A C5A 1_555 1_555
C6D C5D 1_555 1_555
F2D C5D 1_555 1_555
C5B C3B 1_555 1_555
C5C C3B 1_555 1_555
C4A C6A 1_555 1_555
F3A C6A 1_555 1_555
F3D C6D 1_555 1_555
C6B C5B 1_555 1_555
F2B C5B 1_555 1_555
C6C C5C 1_555 1_555
F2C C5C 1_555 1_555
F1A C4A 1_555 1_555
C4B C6B 1_555 1_555
F3B C6B 1_555 1_555
F3C C6C 1_555 1_555
F1B C4B 1_555 1_555
C6E C5E 1_555 1_555
C6D C4A 1_555 1_555
C6C C4B 1_555 1_555

#END
