
#######################################################################
#
#                 Cambridge Crystallographic Data Centre
#                                CCDC 
#
#######################################################################
#
# If this CIF has been generated from an entry in the Cambridge 
# Structural Database, then it will include bibliographic, chemical, 
# crystal, experimental, refinement or atomic coordinate data resulting 
# from the CCDC's data processing and validation procedures.
#
#######################################################################

data_PAFWAU
_symmetry_cell_setting           trigonal
_symmetry_space_group_name_H-M   'P 31 2 1'
_symmetry_Int_Tables_number      152
_space_group_name_Hall           'P 31 2"'
loop_
_symmetry_equiv_pos_site_id
_symmetry_equiv_pos_as_xyz
1 x,y,z
2 -y,x-y,1/3+z
3 -x+y,-x,2/3+z
4 y,x,-z
5 x-y,-y,2/3-z
6 -x,-x+y,1/3-z
_cell_length_a                   9.326(3)
_cell_length_b                   9.326(3)
_cell_length_c                   11.160(6)
_cell_angle_alpha                90
_cell_angle_beta                 90
_cell_angle_gamma                120
_cell_volume                     840.593
loop_
_atom_site_label
_atom_site_type_symbol
_atom_site_fract_x
_atom_site_fract_y
_atom_site_fract_z
Bi1 Bi 0.09365(7) 1.0000 0.3333
O1 O 0.00000 0.8170(10) 0.16663
C1 C 0.213(3) 0.856(3) 0.422(2)
C2 C 0.099(3) 0.731(3) 0.491(2)
C3 C 0.00000 0.6710(10) 0.16663
C4 C 0.00000 0.3720(10) 0.16663
C5 C 0.1312(5) 0.6622(9) 0.1147(7)
C6 C 0.1312(5) 0.5122(9) 0.1147(7)
H1 H 0.00000 0.2700(10) 0.16663
H2 H 0.2206(9) 0.7576(10) 0.079(1)
H3 H 0.2206(9) 0.5056(10) 0.079(1)
C6E C -0.1312(5) 0.3810(10) 0.2186(7)
C5E C -0.1312(5) 0.5310(10) 0.2186(7)
H3E H -0.2206(9) 0.2850(13) 0.254(1)
H2E H -0.2206(9) 0.5370(13) 0.254(1)
C1D C 0.357(4) 1.144(3) 0.245(2)
C2D C 0.368(4) 1.269(3) 0.176(2)
O1A O 0.1830(10) 1.1830(10) 0.49996
Bi1B Bi -0.09365(7) 0.90635(7) -0.0000
Bi1A Bi 0.0000 1.09365(7) 0.6666
C3A C 0.3290(10) 1.3290(10) 0.49996
O1B O -0.1830(10) 1.00000 -0.16670
C1B C -0.357(4) 0.787(3) 0.089(2)
C1E C -0.213(3) 0.643(4) -0.089(2)
O1B_2 O -0.1830(10) 1.00000 0.83330
C1A C 0.144(3) 1.357(4) 0.755(2)
C1C C -0.144(3) 1.213(3) 0.578(2)
C5A C 0.3378(9) 1.4690(10) 0.4480(7)
C5D C 0.4690(10) 1.3378(9) 0.5520(7)
Bi1A_2 Bi 0.0000 1.09365(7) -0.3334
C3B C -0.3290(10) 1.00000 -0.16670
C2B C -0.368(4) 0.901(3) 0.158(2)
C2E C -0.099(3) 0.632(4) -0.158(2)
C2A C 0.269(3) 1.368(4) 0.824(2)
C2C C -0.269(3) 1.099(3) 0.509(2)
C6A C 0.4878(9) 1.6190(10) 0.4480(7)
H2A H 0.2424(10) 1.4630(13) 0.412(1)
C6D C 0.6190(10) 1.4878(9) 0.5520(7)
H2D H 0.4630(13) 1.2424(10) 0.588(1)
C5B C -0.4690(10) 0.8688(5) -0.2186(7)
C5C C -0.3378(9) 1.1312(5) -0.1147(7)
C4A C 0.6280(10) 1.6280(10) 0.49996
H3A H 0.4944(10) 1.7150(13) 0.412(1)
H3D H 0.7150(13) 1.4944(10) 0.588(1)
C6B C -0.6190(10) 0.8688(5) -0.2186(7)
H2B H -0.4630(13) 0.7794(9) -0.254(1)
C6C C -0.4878(9) 1.1312(5) -0.1147(7)
H2C H -0.2424(10) 1.2206(9) -0.079(1)
H1A H 0.7300(10) 1.7300(10) 0.49996
C4B C -0.6280(10) 1.00000 -0.16670
H3B H -0.7150(13) 0.7794(9) -0.254(1)
H3C H -0.4944(10) 1.2206(9) -0.079(1)
H1B H -0.7300(10) 1.00000 -0.16670
loop_
_geom_bond_atom_site_label_1
_geom_bond_atom_site_label_2
_geom_bond_site_symmetry_1
_geom_bond_site_symmetry_2
Bi1 O1 1_555 1_555
O1 C3 1_555 1_555
C1 Bi1 1_555 1_555
C2 C1 1_555 1_555
C3 C5 1_555 1_555
C4 C6 1_555 1_555
C5 C6 1_555 1_555
C6 H3 1_555 1_555
H1 C4 1_555 1_555
H2 C5 1_555 1_555
C6E C4 1_555 1_555
C5E C3 1_555 1_555
H3E C6E 1_555 1_555
H2E C5E 1_555 1_555
C1D Bi1 1_555 1_555
C2D C1D 1_555 1_555
O1A Bi1 1_555 1_555
Bi1B O1 1_555 1_555
Bi1A O1A 1_555 1_555
C3A O1A 1_555 1_555
O1B Bi1B 1_555 1_555
C1B Bi1B 1_555 1_555
C1E Bi1B 1_555 1_555
O1B_2 Bi1A 1_555 1_555
C1A Bi1A 1_555 1_555
C1C Bi1A 1_555 1_555
C5A C3A 1_555 1_555
C5D C3A 1_555 1_555
Bi1A_2 O1B 1_555 1_555
C3B O1B 1_555 1_555
C2B C1B 1_555 1_555
C2E C1E 1_555 1_555
C2A C1A 1_555 1_555
C2C C1C 1_555 1_555
C6A C5A 1_555 1_555
H2A C5A 1_555 1_555
C6D C5D 1_555 1_555
H2D C5D 1_555 1_555
C5B C3B 1_555 1_555
C5C C3B 1_555 1_555
C4A C6A 1_555 1_555
H3A C6A 1_555 1_555
H3D C6D 1_555 1_555
C6B C5B 1_555 1_555
H2B C5B 1_555 1_555
C6C C5C 1_555 1_555
H2C C5C 1_555 1_555
H1A C4A 1_555 1_555
C4B C6B 1_555 1_555
H3B C6B 1_555 1_555
H3C C6C 1_555 1_555
H1B C4B 1_555 1_555
C6E C5E 1_555 1_555
C6D C4A 1_555 1_555
C6C C4B 1_555 1_555

#END
