
#######################################################################
#
#                 Cambridge Crystallographic Data Centre
#                                CCDC 
#
#######################################################################
#
# If this CIF has been generated from an entry in the Cambridge 
# Structural Database, then it will include bibliographic, chemical, 
# crystal, experimental, refinement or atomic coordinate data resulting 
# from the CCDC's data processing and validation procedures.
#
#######################################################################

data_PAGNOB
_symmetry_cell_setting           monoclinic
_symmetry_space_group_name_H-M   'C 2/c'
_symmetry_Int_Tables_number      15
_space_group_name_Hall           '-C 2yn'
loop_
_symmetry_equiv_pos_site_id
_symmetry_equiv_pos_as_xyz
1 x,y,z
2 1/2+x,1/2+y,z
3 x,-y,1/2+z
4 1/2+x,1/2-y,1/2+z
5 -x,-y,-z
6 1/2-x,1/2-y,-z
7 -x,y,1/2-z
8 1/2-x,1/2+y,1/2-z
_cell_length_a                   15.335(2)
_cell_length_b                   15.535(2)
_cell_length_c                   15.106(2)
_cell_angle_alpha                90
_cell_angle_beta                 101.162(2)
_cell_angle_gamma                90
_cell_volume                     3530.62
loop_
_atom_site_label
_atom_site_type_symbol
_atom_site_fract_x
_atom_site_fract_y
_atom_site_fract_z
Mo1 Mo 1.009258(19) 0.112364(18) 0.50327(2)
Mo2 Mo 1.0000 0.11848(3) 0.7500
Mo3 Mo 1.0000 -0.10963(3) 0.7500
Mo4 Mo 0.863861(19) 0.005344(19) 0.59866(2)
Cu1 Cu 0.84754(3) 0.25119(3) 0.36285(3)
O1 O 0.92469(15) 0.18519(14) 0.45982(16)
O2 O 0.98471(15) 0.09353(14) 0.62060(14)
O3 O 1.02416(15) 0.08775(14) 0.37894(14)
O4 O 1.08749(15) -0.00094(14) 0.51142(15)
O5 O 1.09833(16) 0.17707(14) 0.53537(16)
O6 O 1.08799(15) 0.00431(14) 0.77340(15)
O7 O 1.08794(16) 0.18528(15) 0.75255(17)
O8 O 0.91388(15) -0.17771(14) 0.75929(16)
O9 O 0.80024(16) 0.09646(15) 0.58491(16)
O10 O 0.78787(16) -0.07631(15) 0.58541(17)
O11 O 0.77144(18) 0.31628(17) 0.2648(2)
H1 H 0.7186(13) 0.322(3) 0.272(3)
H2 H 0.759(3) 0.286(2) 0.2181(17)
N1 N 0.75288(19) 0.16881(17) 0.3683(2)
N2 N 0.4331(2) -0.15253(18) 0.3780(2)
C1 C 0.6787(2) 0.1897(2) 0.3975(3)
H3 H 0.674(2) 0.250(2) 0.412(2)
C2 C 0.6133(3) 0.1306(2) 0.4021(3)
H4 H 0.566(2) 0.1479(19) 0.419(2)
C3 C 0.6240(2) 0.0464(2) 0.3783(3)
C4 C 0.7003(3) 0.0259(2) 0.3482(3)
H5 H 0.709(2) -0.024(2) 0.335(2)
C5 C 0.7630(3) 0.0874(2) 0.3440(3)
H6 H 0.813(2) 0.075(2) 0.328(2)
C6 C 0.5557(2) -0.0208(2) 0.3816(3)
C7 C 0.5824(3) -0.1058(2) 0.3927(3)
H7 H 0.647(2) -0.118(2) 0.401(2)
C8 C 0.5193(3) -0.1687(3) 0.3889(3)
H8 H 0.535(2) -0.224(2) 0.398(2)
C9 C 0.4074(3) -0.0699(2) 0.3708(3)
H9 H 0.346(2) -0.060(2) 0.365(2)
C10 C 0.4668(3) -0.0037(2) 0.3726(3)
H10 H 0.447(2) 0.050(2) 0.367(3)
O2F O 1.01529(15) 0.09353(14) 0.87940(14)
O6F O 0.91201(15) 0.00431(14) 0.72660(15)
O7F O 0.91206(16) 0.18528(15) 0.74745(17)
Mo1F Mo 0.990742(19) 0.112364(18) 0.99673(2)
Mo4F Mo 1.136139(19) 0.005344(19) 0.90134(2)
O4D O 0.91251(15) 0.00094(14) 0.48858(15)
O3B O 1.02416(15) -0.08775(14) 0.87894(14)
O8F O 1.08612(15) -0.17771(14) 0.74071(16)
O1F O 1.07531(15) 0.18519(14) 1.04018(16)
O5F O 0.90167(16) 0.17707(14) 0.96463(16)
O9F O 1.19976(16) 0.09646(15) 0.91509(16)
O10F O 1.21213(16) -0.07631(15) 0.91459(17)
Cu1F Cu 1.15246(3) 0.25119(3) 1.13715(3)
N1A N 1.25288(19) 0.66881(17) 0.3683(2)
N2A N 0.9331(2) 0.34747(18) 0.3780(2)
C1A C 1.1787(2) 0.6897(2) 0.3975(3)
H3A H 1.174(2) 0.750(2) 0.412(2)
C2A C 1.1133(3) 0.6306(2) 0.4021(3)
H4A H 1.066(2) 0.6479(19) 0.419(2)
C3A C 1.1240(2) 0.5464(2) 0.3783(3)
C4A C 1.2003(3) 0.5259(2) 0.3482(3)
H5A H 1.209(2) 0.476(2) 0.335(2)
C5A C 1.2630(3) 0.5874(2) 0.3440(3)
H6A H 1.313(2) 0.575(2) 0.328(2)
C6A C 1.0557(2) 0.4792(2) 0.3816(3)
C7A C 1.0824(3) 0.3942(2) 0.3927(3)
H7A H 1.147(2) 0.382(2) 0.401(2)
C8A C 1.0193(3) 0.3313(3) 0.3889(3)
H8A H 1.035(2) 0.276(2) 0.398(2)
C9A C 0.9074(3) 0.4301(2) 0.3708(3)
H9A H 0.846(2) 0.440(2) 0.365(2)
C10A C 0.9668(3) 0.4963(2) 0.3726(3)
H10A H 0.947(2) 0.550(2) 0.367(3)
O11F O 1.22856(18) 0.31628(17) 1.2352(2)
H1F H 1.2814(13) 0.322(3) 1.228(3)
H2F H 1.241(3) 0.286(2) 1.2819(17)
O3D O 0.97584(15) -0.08775(14) 0.62106(14)
O8B O 0.91388(15) 0.17771(14) 0.25929(16)
Mo3B Mo 1.0000 0.10963(3) 0.2500
Mo4D Mo 1.136139(19) -0.005344(19) 0.40134(2)
Mo1D Mo 0.990742(19) -0.112364(18) 0.49673(2)
Cu1B Cu 0.84754(3) -0.25119(3) 0.86285(3)
Cu1A Cu 0.34754(3) -0.24881(3) 0.36285(3)
O3F O 0.97584(15) 0.08775(14) 1.12106(14)
O4B O 1.08749(15) 0.00094(14) 1.01142(15)
O4F O 0.91251(15) -0.00094(14) 0.98858(15)
Mo1B Mo 1.009258(19) -0.112364(18) 1.00327(2)
Cu1D Cu 1.15246(3) -0.25119(3) 0.63715(3)
O8D O 1.08612(15) 0.17771(14) 1.24071(16)
N1F N 1.24712(19) 0.16881(17) 1.1317(2)
N2G N 1.0669(2) 0.34747(18) 1.1220(2)
Cu1A_2 Cu 1.34754(3) 0.75119(3) 0.36285(3)
O12 O 0.2356(2) 0.2504(2) 0.3952(2)
H11 H 0.226(6) 0.1965(12) 0.398(6)
H12 H 0.2886(19) 0.240(5) 0.388(5)
loop_
_geom_bond_atom_site_label_1
_geom_bond_atom_site_label_2
_geom_bond_site_symmetry_1
_geom_bond_site_symmetry_2
Mo1 O1 1_555 1_555
Mo2 O2 1_555 1_555
Mo3 O6 1_555 1_555
Mo4 O2 1_555 1_555
Cu1 O1 1_555 1_555
O2 Mo1 1_555 1_555
O3 Mo1 1_555 1_555
O4 Mo1 1_555 1_555
O5 Mo1 1_555 1_555
O6 Mo2 1_555 1_555
O7 Mo2 1_555 1_555
O8 Mo3 1_555 1_555
O9 Mo4 1_555 1_555
O10 Mo4 1_555 1_555
O11 Cu1 1_555 1_555
H1 O11 1_555 1_555
H2 O11 1_555 1_555
N1 Cu1 1_555 1_555
N2 C8 1_555 1_555
C1 N1 1_555 1_555
H3 C1 1_555 1_555
C2 C1 1_555 1_555
H4 C2 1_555 1_555
C3 C2 1_555 1_555
C4 C3 1_555 1_555
H5 C4 1_555 1_555
C5 N1 1_555 1_555
H6 C5 1_555 1_555
C6 C3 1_555 1_555
C7 C6 1_555 1_555
H7 C7 1_555 1_555
C8 C7 1_555 1_555
H8 C8 1_555 1_555
C9 N2 1_555 1_555
H9 C9 1_555 1_555
C10 C6 1_555 1_555
H10 C10 1_555 1_555
O12 H11 1_555 1_555
H12 O12 1_555 1_555
O2F Mo2 1_555 1_555
O6F Mo2 1_555 1_555
O7F Mo2 1_555 1_555
Mo1F O2F 1_555 1_555
Mo4F O6 1_555 1_555
O4D Mo1 1_555 1_555
O3B Mo3 1_555 1_555
O8F Mo3 1_555 1_555
O1F Mo1F 1_555 1_555
O5F Mo1F 1_555 1_555
O9F Mo4F 1_555 1_555
O10F Mo4F 1_555 1_555
Cu1F O1F 1_555 1_555
N1A C1A 1_555 1_555
N2A Cu1 1_555 1_555
C1A H3A 1_555 1_555
C2A C1A 1_555 1_555
H4A C2A 1_555 1_555
C3A C2A 1_555 1_555
C4A C3A 1_555 1_555
H5A C4A 1_555 1_555
C5A N1A 1_555 1_555
H6A C5A 1_555 1_555
C6A C3A 1_555 1_555
C7A C6A 1_555 1_555
H7A C7A 1_555 1_555
C8A N2A 1_555 1_555
H8A C8A 1_555 1_555
C9A N2A 1_555 1_555
H9A C9A 1_555 1_555
C10A C6A 1_555 1_555
H10A C10A 1_555 1_555
O11F Cu1F 1_555 1_555
H1F O11F 1_555 1_555
H2F O11F 1_555 1_555
O3D Mo3 1_555 1_555
O8B Cu1 1_555 1_555
Mo3B O3 1_555 1_555
Mo4D O3 1_555 1_555
Mo1D O4 1_555 1_555
Cu1B O8 1_555 1_555
Cu1A N2 1_555 1_555
O3F Mo1F 1_555 1_555
O4B Mo1F 1_555 1_555
O4F Mo1F 1_555 1_555
Mo1B O3B 1_555 1_555
Cu1D O8F 1_555 1_555
O8D Cu1F 1_555 1_555
N1F Cu1F 1_555 1_555
N2G Cu1F 1_555 1_555
Cu1A_2 N1A 1_555 1_555
Mo3 O6F 1_555 1_555
Mo4 O6F 1_555 1_555
Mo4 O4D 1_555 1_555
Mo4 O3D 1_555 1_555
O4 Mo4D 1_555 1_555
C4 C5 1_555 1_555
C9 C10 1_555 1_555
O2F Mo4F 1_555 1_555
Mo4F O3B 1_555 1_555
Mo4F O4B 1_555 1_555
O4D Mo1D 1_555 1_555
C4A C5A 1_555 1_555
C7A C8A 1_555 1_555
C9A C10A 1_555 1_555
O3D Mo1D 1_555 1_555
O8B Mo3B 1_555 1_555
O4B Mo1B 1_555 1_555
O4F Mo1B 1_555 1_555

#END
