
#######################################################################
#
#                 Cambridge Crystallographic Data Centre
#                                CCDC 
#
#######################################################################
#
# If this CIF has been generated from an entry in the Cambridge 
# Structural Database, then it will include bibliographic, chemical, 
# crystal, experimental, refinement or atomic coordinate data resulting 
# from the CCDC's data processing and validation procedures.
#
#######################################################################

data_PAGQOE
_symmetry_cell_setting           monoclinic
_symmetry_space_group_name_H-M   'P 21/c'
_symmetry_Int_Tables_number      14
_space_group_name_Hall           '-P 2ybc'
loop_
_symmetry_equiv_pos_site_id
_symmetry_equiv_pos_as_xyz
1 x,y,z
2 x,1/2-y,1/2+z
3 -x,-y,-z
4 -x,1/2+y,1/2-z
_cell_length_a                   7.091(2)
_cell_length_b                   18.493(3)
_cell_length_c                   10.839(2)
_cell_angle_alpha                90
_cell_angle_beta                 103.879(5)
_cell_angle_gamma                90
_cell_volume                     1379.86
loop_
_atom_site_label
_atom_site_type_symbol
_atom_site_fract_x
_atom_site_fract_y
_atom_site_fract_z
Zn1 Zn 0.5000 0.0000 0.0000
Zn2 Zn 0.24452(4) 0.288340(13) 0.78062(2)
O1 O 0.1788(2) -0.07659(9) 0.68577(15)
O2 O 0.2544(2) -0.13684(8) 0.52640(15)
O3 O 0.2116(2) 0.19977(8) 0.67166(15)
O4 O 0.1948(2) 0.24710(8) 0.47638(15)
O5 O 0.4070(2) 0.01016(8) 0.16509(15)
O6 O 0.3354(2) 0.12847(8) 0.16555(15)
O7 O 0.7982(3) 0.00688(12) 0.0939(2)
O10 O -0.0465(3) 0.31082(10) 0.70316(18)
O11 O 0.5322(3) 0.25228(10) 0.84861(18)
O12 O 0.5058(3) 0.11281(10) -0.0224(2)
N1 N 0.2701(3) 0.11974(10) 0.39119(17)
C1 C 0.2109(3) 0.19644(12) 0.5551(2)
C2 C 0.2360(3) 0.12082(12) 0.5073(2)
C3 C 0.2241(3) 0.05761(11) 0.5732(2)
H1 H 0.2031 0.0591 0.6546
C4 C 0.2441(3) -0.00848(12) 0.5156(2)
C5 C 0.2242(3) -0.07947(12) 0.5813(2)
C6 C 0.2846(3) -0.00829(12) 0.3962(2)
H2 H 0.3020 -0.0515 0.3565
C7 C 0.2986(3) 0.05713(11) 0.3378(2)
C8 C 0.3494(3) 0.06556(12) 0.2111(2)
H3 H -0.084(4) 0.3372(17) 0.734(3)
H5 H -0.113(5) 0.2713(17) 0.700(3)
H6 H 0.855(5) -0.0263(18) 0.093(3)
H8 H 0.516(4) 0.1404(16) -0.074(3)
H9 H 0.813(5) 0.0159(18) 0.160(4)
H10 H 0.584(5) 0.2839(17) 0.879(3)
H11 H 0.586(5) 0.235(2) 0.796(4)
H14 H 0.456(5) 0.1279(17) 0.029(3)
O1B O 0.8212(2) 0.07659(9) -0.68577(15)
O2B O 0.7456(2) 0.13684(8) -0.52640(15)
O3B O 0.7884(2) -0.19977(8) -0.67166(15)
O4B O 0.8052(2) -0.24710(8) -0.47638(15)
O5B O 0.5930(2) -0.01016(8) -0.16509(15)
O6B O 0.6646(2) -0.12847(8) -0.16555(15)
N1B N 0.7299(3) -0.11974(10) -0.39119(17)
C1B C 0.7891(3) -0.19644(12) -0.5551(2)
C2B C 0.7640(3) -0.12082(12) -0.5073(2)
C3B C 0.7759(3) -0.05761(11) -0.5732(2)
H1B H 0.7969 -0.0591 -0.6546
C4B C 0.7559(3) 0.00848(12) -0.5156(2)
C5B C 0.7758(3) 0.07947(12) -0.5813(2)
C6B C 0.7154(3) 0.00829(12) -0.3962(2)
H2B H 0.6980 0.0515 -0.3565
C7B C 0.7014(3) -0.05713(11) -0.3378(2)
C8B C 0.6506(3) -0.06556(12) -0.2111(2)
O7B O 0.2018(3) -0.00688(12) -0.0939(2)
H6B H 0.145(5) 0.0263(18) -0.093(3)
H9B H 0.187(5) -0.0159(18) -0.160(4)
O12B O 0.4942(3) -0.11281(10) 0.0224(2)
H8B H 0.484(4) -0.1404(16) 0.074(3)
H14B H 0.544(5) -0.1279(17) -0.029(3)
Zn2B Zn 0.75548(4) -0.288340(13) -0.78062(2)
O10B O 1.0465(3) -0.31082(10) -0.70316(18)
H3B H 1.084(4) -0.3372(17) -0.734(3)
H5B H 1.113(5) -0.2713(17) -0.700(3)
O11B O 0.4678(3) -0.25228(10) -0.84861(18)
H10B H 0.416(5) -0.2839(17) -0.879(3)
H11B H 0.414(5) -0.235(2) -0.796(4)
O4A O 0.1948(2) 0.25290(8) 0.97638(15)
O6A O 0.3354(2) 0.37153(8) 0.66555(15)
N1A N 0.2701(3) 0.38026(10) 0.89119(17)
Zn2A Zn 0.24452(4) 0.211660(13) 0.28062(2)
Zn2C Zn 0.75548(4) -0.211660(13) -0.28062(2)
O4C O 0.8052(2) -0.25290(8) -0.97638(15)
O6C O 0.6646(2) -0.37153(8) -0.66555(15)
N1C N 0.7299(3) -0.38026(10) -0.89119(17)
O8 O 0.9735(3) 0.11561(12) 0.92634(19)
H12 H 0.921(5) 0.1053(19) 0.969(3)
H13 H 1.037(5) 0.144(2) 0.957(3)
O9 O 0.7516(3) 0.18589(10) 0.7105(2)
H4 H 0.812(4) 0.1643(16) 0.762(3)
H7 H 0.754(5) 0.1731(19) 0.650(4)
loop_
_geom_bond_atom_site_label_1
_geom_bond_atom_site_label_2
_geom_bond_site_symmetry_1
_geom_bond_site_symmetry_2
Zn1 O5 1_555 1_555
Zn2 O3 1_555 1_555
O1 C5 1_555 1_555
O2 C5 1_555 1_555
O3 C1 1_555 1_555
O4 C1 1_555 1_555
O5 C8 1_555 1_555
O6 C8 1_555 1_555
O7 Zn1 1_555 1_555
O8 H12 1_555 1_555
O9 H4 1_555 1_555
O10 Zn2 1_555 1_555
O11 Zn2 1_555 1_555
O12 Zn1 1_555 1_555
N1 C2 1_555 1_555
C1 C2 1_555 1_555
C2 C3 1_555 1_555
C3 H1 1_555 1_555
C4 C3 1_555 1_555
C5 C4 1_555 1_555
C6 C4 1_555 1_555
H2 C6 1_555 1_555
C7 N1 1_555 1_555
C8 C7 1_555 1_555
H3 O10 1_555 1_555
H5 O10 1_555 1_555
H6 O7 1_555 1_555
H7 O9 1_555 1_555
H8 O12 1_555 1_555
H9 O7 1_555 1_555
H10 O11 1_555 1_555
H11 O11 1_555 1_555
H13 O8 1_555 1_555
H14 O12 1_555 1_555
O1B C5B 1_555 1_555
O2B C5B 1_555 1_555
O3B C1B 1_555 1_555
O4B C1B 1_555 1_555
O5B Zn1 1_555 1_555
O6B C8B 1_555 1_555
N1B C2B 1_555 1_555
C1B C2B 1_555 1_555
C2B C3B 1_555 1_555
C3B H1B 1_555 1_555
C4B C3B 1_555 1_555
C5B C4B 1_555 1_555
C6B C4B 1_555 1_555
H2B C6B 1_555 1_555
C7B N1B 1_555 1_555
C8B O5B 1_555 1_555
O7B Zn1 1_555 1_555
H6B O7B 1_555 1_555
H9B O7B 1_555 1_555
O12B Zn1 1_555 1_555
H8B O12B 1_555 1_555
H14B O12B 1_555 1_555
Zn2B O3B 1_555 1_555
O10B Zn2B 1_555 1_555
H3B O10B 1_555 1_555
H5B O10B 1_555 1_555
O11B Zn2B 1_555 1_555
H10B O11B 1_555 1_555
H11B O11B 1_555 1_555
O4A Zn2 1_555 1_555
O6A Zn2 1_555 1_555
N1A Zn2 1_555 1_555
Zn2A O4 1_555 1_555
Zn2C O4B 1_555 1_555
O4C Zn2B 1_555 1_555
O6C Zn2B 1_555 1_555
N1C Zn2B 1_555 1_555
O6 Zn2A 1_555 1_555
N1 Zn2A 1_555 1_555
C6 C7 1_555 1_555
O6B Zn2C 1_555 1_555
N1B Zn2C 1_555 1_555
C6B C7B 1_555 1_555
C7B C8B 1_555 1_555

#END
