
#######################################################################
#
#                 Cambridge Crystallographic Data Centre
#                                CCDC 
#
#######################################################################
#
# If this CIF has been generated from an entry in the Cambridge 
# Structural Database, then it will include bibliographic, chemical, 
# crystal, experimental, refinement or atomic coordinate data resulting 
# from the CCDC's data processing and validation procedures.
#
#######################################################################

data_PAGQIY
_symmetry_cell_setting           monoclinic
_symmetry_space_group_name_H-M   'P 21/c'
_symmetry_Int_Tables_number      14
_space_group_name_Hall           '-P 2ybc'
loop_
_symmetry_equiv_pos_site_id
_symmetry_equiv_pos_as_xyz
1 x,y,z
2 x,1/2-y,1/2+z
3 -x,-y,-z
4 -x,1/2+y,1/2-z
_cell_length_a                   9.444(2)
_cell_length_b                   8.827(2)
_cell_length_c                   15.397(3)
_cell_angle_alpha                90
_cell_angle_beta                 91.806(5)
_cell_angle_gamma                90
_cell_volume                     1282.89
loop_
_atom_site_label
_atom_site_type_symbol
_atom_site_fract_x
_atom_site_fract_y
_atom_site_fract_z
Zn1 Zn 0.75438(4) 0.08271(4) 0.07703(3)
O1 O 0.9379(2) 0.1785(3) 0.03002(16)
O2 O 0.6419(3) 0.0968(3) -0.04521(16)
O3 O 0.4332(2) 0.0306(3) -0.10587(15)
O4 O 1.1395(3) 0.1150(3) -0.03335(17)
N1 N 0.8250(3) 0.0350(3) 0.2073(2)
N2 N 0.6779(3) 0.3052(3) 0.10619(19)
C1 C 0.8865(6) 0.1350(5) 0.2590(3)
H1 H 0.8985 0.2331 0.2385
C2 C 0.9346(9) 0.1010(6) 0.3430(3)
H2 H 0.9795 0.1749 0.3769
C3 C 0.9158(5) -0.0402(5) 0.3753(3)
H3 H 0.9468 -0.0651 0.4314
C4 C 0.8491(5) -0.1456(6) 0.3222(4)
H4 H 0.8333 -0.2436 0.3419
C5 C 0.8063(6) -0.1033(6) 0.2395(4)
H5 H 0.7617 -0.1753 0.2041
C6 C 0.5994(6) 0.3355(5) 0.1739(3)
H6 H 0.5806 0.2576 0.2125
C7 C 0.5440(7) 0.4777(6) 0.1898(3)
H7 H 0.4899 0.4942 0.2383
C8 C 0.5694(4) 0.5937(4) 0.1334(3)
H8 H 0.5320 0.6898 0.1420
C9 C 0.6517(5) 0.5634(4) 0.0640(3)
H9 H 0.6733 0.6399 0.0251
C10 C 0.7026(5) 0.4187(4) 0.0521(3)
H10 H 0.7568 0.3997 0.0039
C11 C 0.5222(3) 0.0366(4) -0.0437(2)
C12 C 1.0224(4) 0.0849(4) -0.0007(2)
C12B C 0.9776(4) -0.0849(4) 0.0007(2)
O1B O 1.0621(2) -0.1785(3) -0.03002(16)
O4B O 0.8605(3) -0.1150(3) 0.03335(17)
C11B C 0.4778(3) -0.0366(4) 0.0437(2)
O2B O 0.3581(3) -0.0968(3) 0.04521(16)
O3B O 0.5668(2) -0.0306(3) 0.10587(15)
Zn1B Zn 1.24562(4) -0.08271(4) -0.07703(3)
N1B N 1.1750(3) -0.0350(3) -0.2073(2)
C1B C 1.1135(6) -0.1350(5) -0.2590(3)
H1B H 1.1015 -0.2331 -0.2385
C2B C 1.0654(9) -0.1010(6) -0.3430(3)
H2B H 1.0205 -0.1749 -0.3769
C3B C 1.0842(5) 0.0402(5) -0.3753(3)
H3B H 1.0532 0.0651 -0.4314
C4B C 1.1509(5) 0.1456(6) -0.3222(4)
H4B H 1.1667 0.2436 -0.3419
C5B C 1.1937(6) 0.1033(6) -0.2395(4)
H5B H 1.2383 0.1753 -0.2041
N2B N 1.3221(3) -0.3052(3) -0.10619(19)
C6B C 1.4006(6) -0.3355(5) -0.1739(3)
H6B H 1.4194 -0.2576 -0.2125
C7B C 1.4560(7) -0.4777(6) -0.1898(3)
H7B H 1.5101 -0.4942 -0.2383
C8B C 1.4306(4) -0.5937(4) -0.1334(3)
H8B H 1.4680 -0.6898 -0.1420
C9B C 1.3483(5) -0.5634(4) -0.0640(3)
H9B H 1.3267 -0.6399 -0.0251
C10B C 1.2974(5) -0.4187(4) -0.0521(3)
H10B H 1.2432 -0.3997 -0.0039
Zn1B_2 Zn 0.24562(4) -0.08271(4) -0.07703(3)
O2B_2 O 1.3581(3) -0.0968(3) 0.04521(16)
O3_2 O 1.4332(2) 0.0306(3) -0.10587(15)
O5 O 0.804(3) 0.482(2) 0.3194(13)
loop_
_geom_bond_atom_site_label_1
_geom_bond_atom_site_label_2
_geom_bond_site_symmetry_1
_geom_bond_site_symmetry_2
Zn1 O1 1_555 1_555
O1 C12 1_555 1_555
O2 Zn1 1_555 1_555
O3 C11 1_555 1_555
O4 C12 1_555 1_555
N1 Zn1 1_555 1_555
N2 Zn1 1_555 1_555
C1 N1 1_555 1_555
H1 C1 1_555 1_555
C2 C1 1_555 1_555
H2 C2 1_555 1_555
C3 C2 1_555 1_555
H3 C3 1_555 1_555
C4 C3 1_555 1_555
H4 C4 1_555 1_555
C5 N1 1_555 1_555
H5 C5 1_555 1_555
C6 N2 1_555 1_555
H6 C6 1_555 1_555
C7 C6 1_555 1_555
H7 C7 1_555 1_555
C8 C7 1_555 1_555
H8 C8 1_555 1_555
C9 C8 1_555 1_555
H9 C9 1_555 1_555
C10 N2 1_555 1_555
H10 C10 1_555 1_555
C11 O2 1_555 1_555
C12 C12B 1_555 1_555
C12B O1B 1_555 1_555
O1B Zn1B 1_555 1_555
O4B Zn1 1_555 1_555
C11B C11 1_555 1_555
O2B C11B 1_555 1_555
O3B Zn1 1_555 1_555
Zn1B O4 1_555 1_555
N1B Zn1B 1_555 1_555
C1B N1B 1_555 1_555
H1B C1B 1_555 1_555
C2B C1B 1_555 1_555
H2B C2B 1_555 1_555
C3B C2B 1_555 1_555
H3B C3B 1_555 1_555
C4B C3B 1_555 1_555
H4B C4B 1_555 1_555
C5B N1B 1_555 1_555
H5B C5B 1_555 1_555
N2B Zn1B 1_555 1_555
C6B N2B 1_555 1_555
H6B C6B 1_555 1_555
C7B C6B 1_555 1_555
H7B C7B 1_555 1_555
C8B C7B 1_555 1_555
H8B C8B 1_555 1_555
C9B C8B 1_555 1_555
H9B C9B 1_555 1_555
C10B N2B 1_555 1_555
H10B C10B 1_555 1_555
Zn1B_2 O3 1_555 1_555
O2B_2 Zn1B 1_555 1_555
O3_2 Zn1B 1_555 1_555
C4 C5 1_555 1_555
C9 C10 1_555 1_555
C12B O4B 1_555 1_555
C11B O3B 1_555 1_555
O2B Zn1B_2 1_555 1_555
C4B C5B 1_555 1_555
C9B C10B 1_555 1_555

#END
