
#######################################################################
#
#                 Cambridge Crystallographic Data Centre
#                                CCDC 
#
#######################################################################
#
# If this CIF has been generated from an entry in the Cambridge 
# Structural Database, then it will include bibliographic, chemical, 
# crystal, experimental, refinement or atomic coordinate data resulting 
# from the CCDC's data processing and validation procedures.
#
#######################################################################

data_PAGVOK
_symmetry_cell_setting           orthorhombic
_symmetry_space_group_name_H-M   'P b c a'
_symmetry_Int_Tables_number      61
_space_group_name_Hall           '-P 2ac 2ab'
loop_
_symmetry_equiv_pos_site_id
_symmetry_equiv_pos_as_xyz
1 x,y,z
2 1/2-x,-y,1/2+z
3 -x,1/2+y,1/2-z
4 1/2+x,1/2-y,-z
5 -x,-y,-z
6 1/2+x,y,1/2-z
7 x,1/2-y,1/2+z
8 1/2-x,1/2+y,z
_cell_length_a                   14.1171(9)
_cell_length_b                   16.2833(10)
_cell_length_c                   18.4384(12)
_cell_angle_alpha                90
_cell_angle_beta                 90
_cell_angle_gamma                90
_cell_volume                     4238.49
loop_
_atom_site_label
_atom_site_type_symbol
_atom_site_fract_x
_atom_site_fract_y
_atom_site_fract_z
Sn1 Sn 0.125938(12) 0.157026(10) 0.584430(9)
P1 P 0.27451(4) 0.34678(4) 0.56230(4)
Cl1 Cl 0.00449(5) 0.04767(4) 0.60283(4)
Cl2 Cl 0.00757(5) 0.26271(4) 0.57173(4)
Cl3 Cl 0.08253(5) 0.62553(4) 0.57835(4)
Cl4 Cl 0.08993(6) 0.54112(5) 0.71608(4)
Cl5 Cl -0.01459(5) 0.47232(4) 0.59730(4)
O1 O 0.23943(12) 0.26113(11) 0.56987(10)
O2 O 0.25320(13) 0.52588(11) 0.59586(11)
N1 N 0.36462(15) 0.36677(13) 0.61344(12)
H1 H 0.3807 0.4202 0.6114
N2 N 0.30388(16) 0.38049(14) 0.48335(11)
H2 H 0.3656 0.3861 0.4722
N3 N 0.17696(15) 0.40411(12) 0.58555(11)
H3 H 0.1246 0.3729 0.5817
C1 C 0.3778(2) 0.33112(16) 0.68639(14)
H4 H 0.3467 0.2760 0.6873
C2 C 0.3322(3) 0.38431(19) 0.74480(16)
H5 H 0.2638 0.3875 0.7363
H6 H 0.3595 0.4396 0.7431
H7 H 0.3441 0.3600 0.7926
C3 C 0.4831(2) 0.3193(2) 0.69953(17)
H8 H 0.5082 0.2796 0.6646
H9 H 0.4931 0.2987 0.7489
H10 H 0.5158 0.3719 0.6936
C4 C 0.24013(19) 0.37275(17) 0.41998(14)
H11 H 0.1745 0.3621 0.4382
C5 C 0.2392(2) 0.45247(18) 0.37799(15)
H12 H 0.2184 0.4971 0.4098
H13 H 0.1955 0.4477 0.3369
H14 H 0.3031 0.4642 0.3600
C6 C 0.2697(2) 0.30049(19) 0.37287(15)
H15 H 0.2731 0.2507 0.4026
H16 H 0.3320 0.3116 0.3515
H17 H 0.2231 0.2926 0.3341
C7 C 0.18075(19) 0.48568(16) 0.59847(14)
C8 C 0.08687(19) 0.52885(16) 0.62070(14)
C9 C 0.1624(2) 0.16456(17) 0.69434(14)
H18 H 0.1556 0.2214 0.7109
H19 H 0.2282 0.1468 0.7008
H20 H 0.1204 0.1289 0.7227
C10 C 0.1574(2) 0.12632(18) 0.47705(15)
H21 H 0.2262 0.1242 0.4706
H22 H 0.1305 0.1678 0.4445
H23 H 0.1300 0.0725 0.4657
Sn1G Sn 0.374062(12) 0.657026(10) 0.584430(9)
O2G O 0.24680(13) 0.02588(11) 0.59586(11)
loop_
_geom_bond_atom_site_label_1
_geom_bond_atom_site_label_2
_geom_bond_site_symmetry_1
_geom_bond_site_symmetry_2
Sn1 Cl1 1_555 1_555
P1 O1 1_555 1_555
Cl2 Sn1 1_555 1_555
Cl3 C8 1_555 1_555
Cl4 C8 1_555 1_555
Cl5 C8 1_555 1_555
O1 Sn1 1_555 1_555
O2 C7 1_555 1_555
N1 P1 1_555 1_555
H1 N1 1_555 1_555
N2 P1 1_555 1_555
H2 N2 1_555 1_555
N3 P1 1_555 1_555
H3 N3 1_555 1_555
C1 N1 1_555 1_555
H4 C1 1_555 1_555
C2 C1 1_555 1_555
H5 C2 1_555 1_555
H6 C2 1_555 1_555
H7 C2 1_555 1_555
C3 C1 1_555 1_555
H8 C3 1_555 1_555
H9 C3 1_555 1_555
H10 C3 1_555 1_555
C4 N2 1_555 1_555
H11 C4 1_555 1_555
C5 C4 1_555 1_555
H12 C5 1_555 1_555
H13 C5 1_555 1_555
H14 C5 1_555 1_555
C6 C4 1_555 1_555
H15 C6 1_555 1_555
H16 C6 1_555 1_555
H17 C6 1_555 1_555
C7 N3 1_555 1_555
C8 C7 1_555 1_555
C9 Sn1 1_555 1_555
H18 C9 1_555 1_555
H19 C9 1_555 1_555
H20 C9 1_555 1_555
C10 Sn1 1_555 1_555
H21 C10 1_555 1_555
H22 C10 1_555 1_555
H23 C10 1_555 1_555
Sn1G O2 1_555 1_555
O2G Sn1 1_555 1_555

#END
