
#######################################################################
#
#                 Cambridge Crystallographic Data Centre
#                                CCDC 
#
#######################################################################
#
# If this CIF has been generated from an entry in the Cambridge 
# Structural Database, then it will include bibliographic, chemical, 
# crystal, experimental, refinement or atomic coordinate data resulting 
# from the CCDC's data processing and validation procedures.
#
#######################################################################

data_PAGVIC
_symmetry_cell_setting           orthorhombic
_symmetry_space_group_name_H-M   'P b c a'
_symmetry_Int_Tables_number      61
_space_group_name_Hall           '-P 2ac 2ab'
loop_
_symmetry_equiv_pos_site_id
_symmetry_equiv_pos_as_xyz
1 x,y,z
2 1/2-x,1/2+y,z
3 x,1/2-y,1/2+z
4 1/2-x,-y,1/2+z
5 -x,-y,-z
6 1/2+x,1/2-y,-z
7 -x,1/2+y,1/2-z
8 1/2+x,y,1/2-z
_cell_length_a                   18.428(4)
_cell_length_b                   17.203(6)
_cell_length_c                   15.796(4)
_cell_angle_alpha                90
_cell_angle_beta                 90
_cell_angle_gamma                90
_cell_volume                     5007.6
loop_
_atom_site_label
_atom_site_type_symbol
_atom_site_fract_x
_atom_site_fract_y
_atom_site_fract_z
Fe1 Fe -0.44224(3) 0.02757(3) 0.05000(3)
Na1 Na -0.24119(9) 0.05218(9) 0.2873(1)
O1 O -0.3298(2) 0.0825(2) 0.1646(2)
O2 O -0.3464(1) -0.0188(2) -0.0902(2)
O3 O -0.4946(2) -0.0948(2) 0.1639(2)
O4 O -0.5159(2) 0.1792(2) 0.0439(2)
N1 N -0.1375(2) 0.1155(2) 0.2176(2)
N2 N -0.3418(2) -0.0007(2) 0.3701(2)
N3 N -0.2138(2) -0.0706(2) 0.2127(2)
N4 N -0.2582(2) 0.1784(2) 0.3606(2)
C1 C -0.3751(2) 0.0605(3) 0.1182(3)
C2 C -0.3858(2) -0.0011(2) -0.0360(2)
C3 C -0.4764(2) -0.0470(3) 0.1172(3)
C4 C -0.4885(2) 0.1183(3) 0.0444(3)
C5 C -0.0685(2) 0.1036(3) 0.2391(3)
C6 C -0.0119(3) 0.1514(3) 0.2147(3)
C7 C -0.0276(3) 0.2142(3) 0.1642(4)
C8 C -0.0981(3) 0.2280(3) 0.1415(3)
C9 C -0.1501(2) 0.1774(3) 0.1692(3)
C10 C -0.3395(3) 0.0056(3) 0.4541(3)
C11 C -0.3892(3) -0.0284(4) 0.5062(4)
C12 C -0.4444(3) -0.0716(4) 0.4717(4)
C13 C -0.4475(3) -0.0779(4) 0.3854(5)
C14 C -0.3951(3) -0.0423(3) 0.3383(3)
C15 C -0.2486(2) -0.1027(3) 0.1470(3)
C16 C -0.2241(3) -0.1661(3) 0.1033(3)
C17 C -0.1599(3) -0.2006(3) 0.1288(3)
C18 C -0.1235(3) -0.1685(3) 0.1956(3)
C19 C -0.1521(3) -0.1048(3) 0.2350(3)
C20 C -0.2009(3) 0.2193(3) 0.3861(3)
C21 C -0.2038(3) 0.2899(3) 0.4272(3)
C22 C -0.2701(3) 0.3209(3) 0.4416(3)
C23 C -0.3306(3) 0.2819(3) 0.4174(3)
C24 C -0.3225(3) 0.2098(3) 0.3779(3)
H1 H -0.057 0.060 0.273
H2 H 0.036 0.141 0.232
H3 H 0.010 0.248 0.145
H4 H -0.110 0.271 0.107
H5 H -0.199 0.187 0.153
H6 H -0.301 0.035 0.479
H7 H -0.386 -0.022 0.566
H8 H -0.479 -0.096 0.507
H9 H -0.485 -0.106 0.359
H10 H -0.397 -0.048 0.279
H11 H -0.293 -0.080 0.130
H12 H -0.251 -0.186 0.057
H13 H -0.142 -0.245 0.101
H14 H -0.079 -0.190 0.214
H15 H -0.126 -0.083 0.282
H16 H -0.154 0.198 0.375
H17 H -0.161 0.316 0.445
H18 H -0.274 0.370 0.469
H19 H -0.378 0.303 0.427
H20 H -0.365 0.182 0.363
Fe1D Fe -0.55776(3) -0.02757(3) -0.05000(3)
O2C O -0.1536(1) 0.0188(2) 0.4098(2)
C1D C -0.6249(2) -0.0605(3) -0.1182(3)
C2D C -0.6142(2) 0.0011(2) 0.0360(2)
C3D C -0.5236(2) 0.0470(3) -0.1172(3)
C4D C -0.5115(2) -0.1183(3) -0.0444(3)
Na1C Na -0.25881(9) -0.05218(9) -0.2127(1)
O1D O -0.6702(2) -0.0825(2) -0.1646(2)
O2D O -0.6536(1) 0.0188(2) 0.0902(2)
O3D O -0.5054(2) 0.0948(2) -0.1639(2)
O4D O -0.4841(2) -0.1792(2) -0.0439(2)
Na1D Na -0.75881(9) -0.05218(9) -0.2873(1)
Na1G Na -0.74119(9) 0.05218(9) 0.2127(1)
O2G O -0.8464(1) -0.0188(2) -0.4098(2)
N1D N -0.8625(2) -0.1155(2) -0.2176(2)
N2D N -0.6582(2) 0.0007(2) -0.3701(2)
N3D N -0.7862(2) 0.0706(2) -0.2127(2)
N4D N -0.7418(2) -0.1784(2) -0.3606(2)
C5D C -0.9315(2) -0.1036(3) -0.2391(3)
C9D C -0.8499(2) -0.1774(3) -0.1692(3)
C10D C -0.6605(3) -0.0056(3) -0.4541(3)
C14D C -0.6049(3) 0.0423(3) -0.3383(3)
C15D C -0.7514(2) 0.1027(3) -0.1470(3)
C19D C -0.8479(3) 0.1048(3) -0.2350(3)
C20D C -0.7991(3) -0.2193(3) -0.3861(3)
C24D C -0.6775(3) -0.2098(3) -0.3779(3)
C6D C -0.9881(3) -0.1514(3) -0.2147(3)
H1D H -0.943 -0.060 -0.273
C8D C -0.9019(3) -0.2280(3) -0.1415(3)
H5D H -0.801 -0.187 -0.153
C11D C -0.6108(3) 0.0284(4) -0.5062(4)
H6D H -0.699 -0.035 -0.479
C13D C -0.5525(3) 0.0779(4) -0.3854(5)
H10D H -0.603 0.048 -0.279
C16D C -0.7759(3) 0.1661(3) -0.1033(3)
H11D H -0.707 0.080 -0.130
C18D C -0.8765(3) 0.1685(3) -0.1956(3)
H15D H -0.874 0.083 -0.282
C21D C -0.7962(3) -0.2899(3) -0.4272(3)
H16D H -0.846 -0.198 -0.375
C23D C -0.6694(3) -0.2819(3) -0.4174(3)
H20D H -0.635 -0.182 -0.363
C7D C -0.9724(3) -0.2142(3) -0.1642(4)
H2D H -1.036 -0.141 -0.232
H4D H -0.890 -0.271 -0.107
C12D C -0.5556(3) 0.0716(4) -0.4717(4)
H7D H -0.614 0.022 -0.566
H9D H -0.515 0.106 -0.359
C17D C -0.8401(3) 0.2006(3) -0.1288(3)
H12D H -0.749 0.186 -0.057
H14D H -0.921 0.190 -0.214
C22D C -0.7299(3) -0.3209(3) -0.4416(3)
H17D H -0.839 -0.316 -0.445
H19D H -0.622 -0.303 -0.427
H3D H -1.010 -0.248 -0.145
H8D H -0.521 0.096 -0.507
H13D H -0.858 0.245 -0.101
H18D H -0.726 -0.370 -0.469
loop_
_geom_bond_atom_site_label_1
_geom_bond_atom_site_label_2
_geom_bond_site_symmetry_1
_geom_bond_site_symmetry_2
Fe1 C1 1_555 1_555
Na1 O1 1_555 1_555
O1 C1 1_555 1_555
O2 C2 1_555 1_555
O3 C3 1_555 1_555
O4 C4 1_555 1_555
N1 Na1 1_555 1_555
N2 Na1 1_555 1_555
N3 Na1 1_555 1_555
N4 Na1 1_555 1_555
C2 Fe1 1_555 1_555
C3 Fe1 1_555 1_555
C4 Fe1 1_555 1_555
C5 N1 1_555 1_555
C6 C5 1_555 1_555
C7 C6 1_555 1_555
C8 C7 1_555 1_555
C9 N1 1_555 1_555
C10 N2 1_555 1_555
C11 C10 1_555 1_555
C12 C11 1_555 1_555
C13 C12 1_555 1_555
C14 N2 1_555 1_555
C15 N3 1_555 1_555
C16 C15 1_555 1_555
C17 C16 1_555 1_555
C18 C17 1_555 1_555
C19 N3 1_555 1_555
C20 N4 1_555 1_555
C21 C20 1_555 1_555
C22 C21 1_555 1_555
C23 C22 1_555 1_555
C24 N4 1_555 1_555
H1 C5 1_555 1_555
H2 C6 1_555 1_555
H3 C7 1_555 1_555
H4 C8 1_555 1_555
H5 C9 1_555 1_555
H6 C10 1_555 1_555
H7 C11 1_555 1_555
H8 C12 1_555 1_555
H9 C13 1_555 1_555
H10 C14 1_555 1_555
H11 C15 1_555 1_555
H12 C16 1_555 1_555
H13 C17 1_555 1_555
H14 C18 1_555 1_555
H15 C19 1_555 1_555
H16 C20 1_555 1_555
H17 C21 1_555 1_555
H18 C22 1_555 1_555
H19 C23 1_555 1_555
H20 C24 1_555 1_555
Fe1D Fe1 1_555 1_555
O2C Na1 1_555 1_555
C1D Fe1D 1_555 1_555
C2D Fe1D 1_555 1_555
C3D Fe1D 1_555 1_555
C4D Fe1D 1_555 1_555
Na1C O2 1_555 1_555
O1D C1D 1_555 1_555
O2D C2D 1_555 1_555
O3D C3D 1_555 1_555
O4D C4D 1_555 1_555
Na1D O1D 1_555 1_555
Na1G O2D 1_555 1_555
O2G Na1D 1_555 1_555
N1D Na1D 1_555 1_555
N2D Na1D 1_555 1_555
N3D Na1D 1_555 1_555
N4D Na1D 1_555 1_555
C5D N1D 1_555 1_555
C9D N1D 1_555 1_555
C10D N2D 1_555 1_555
C14D N2D 1_555 1_555
C15D N3D 1_555 1_555
C19D N3D 1_555 1_555
C20D N4D 1_555 1_555
C24D N4D 1_555 1_555
C6D C5D 1_555 1_555
H1D C5D 1_555 1_555
C8D C9D 1_555 1_555
H5D C9D 1_555 1_555
C11D C10D 1_555 1_555
H6D C10D 1_555 1_555
C13D C14D 1_555 1_555
H10D C14D 1_555 1_555
C16D C15D 1_555 1_555
H11D C15D 1_555 1_555
C18D C19D 1_555 1_555
H15D C19D 1_555 1_555
C21D C20D 1_555 1_555
H16D C20D 1_555 1_555
C23D C24D 1_555 1_555
H20D C24D 1_555 1_555
C7D C6D 1_555 1_555
H2D C6D 1_555 1_555
H4D C8D 1_555 1_555
C12D C11D 1_555 1_555
H7D C11D 1_555 1_555
H9D C13D 1_555 1_555
C17D C16D 1_555 1_555
H12D C16D 1_555 1_555
H14D C18D 1_555 1_555
C22D C21D 1_555 1_555
H17D C21D 1_555 1_555
H19D C23D 1_555 1_555
H3D C7D 1_555 1_555
H8D C12D 1_555 1_555
H13D C17D 1_555 1_555
H18D C22D 1_555 1_555
C8 C9 1_555 1_555
C13 C14 1_555 1_555
C18 C19 1_555 1_555
C23 C24 1_555 1_555
C8D C7D 1_555 1_555
C13D C12D 1_555 1_555
C18D C17D 1_555 1_555
C23D C22D 1_555 1_555

#END
