
#######################################################################
#
#                 Cambridge Crystallographic Data Centre
#                                CCDC 
#
#######################################################################
#
# If this CIF has been generated from an entry in the Cambridge 
# Structural Database, then it will include bibliographic, chemical, 
# crystal, experimental, refinement or atomic coordinate data resulting 
# from the CCDC's data processing and validation procedures.
#
#######################################################################

data_PAGZOO
_symmetry_cell_setting           monoclinic
_symmetry_space_group_name_H-M   'P 21/c'
_symmetry_Int_Tables_number      14
_space_group_name_Hall           '-P 2ybc'
loop_
_symmetry_equiv_pos_site_id
_symmetry_equiv_pos_as_xyz
1 x,y,z
2 -x,1/2+y,1/2-z
3 -x,-y,-z
4 x,1/2-y,1/2+z
_cell_length_a                   31.8017(3)
_cell_length_b                   19.8331(2)
_cell_length_c                   18.1605(2)
_cell_angle_alpha                90
_cell_angle_beta                 104.3134(5)
_cell_angle_gamma                90
_cell_volume                     11098.7
loop_
_atom_site_label
_atom_site_type_symbol
_atom_site_fract_x
_atom_site_fract_y
_atom_site_fract_z
Sn1 Sn 0.593051(8) 0.237653(13) 0.734058(14)
O1 O 0.61433(8) 0.18261(13) 0.64743(15)
O2 O 0.56997(8) 0.09878(13) 0.65915(15)
O3 O 0.42463(8) -0.18595(13) 0.65944(14)
N1 N 0.56198(10) -0.00321(15) 0.56667(17)
H1 H 0.5573(13) 0.021(2) 0.604(2)
N2 N 0.54297(9) -0.05952(15) 0.53902(16)
C1 C 0.59760(11) 0.12409(18) 0.6292(2)
C2 C 0.61302(11) 0.08719(18) 0.5689(2)
C3 C 0.64600(12) 0.1151(2) 0.5400(2)
H2 H 0.6580 0.1576 0.5585
C4 C 0.66147(13) 0.0823(2) 0.4853(2)
H3 H 0.6839 0.1020 0.4663
C5 C 0.64432(13) 0.0206(2) 0.4580(2)
H4 H 0.6554 -0.0022 0.4208
C6 C 0.61132(12) -0.0081(2) 0.4840(2)
H5 H 0.5994 -0.0503 0.4644
C7 C 0.59549(11) 0.02488(18) 0.53902(19)
C8 C 0.51242(11) -0.08458(18) 0.5701(2)
C9 C 0.49378(12) -0.14736(19) 0.5382(2)
H6 H 0.5028 -0.1658 0.4964
C10 C 0.46394(12) -0.18114(18) 0.5654(2)
C11 C 0.45037(12) -0.15440(18) 0.6301(2)
C12 C 0.46758(12) -0.08887(19) 0.6609(2)
C13 C 0.49740(12) -0.05646(19) 0.6314(2)
H7 H 0.5085 -0.0142 0.6520
C14 C 0.52618(12) 0.2491(2) 0.6752(2)
H8 H 0.5237 0.2920 0.6467
H9 H 0.5193 0.2125 0.6370
C15 C 0.61242(12) 0.16609(19) 0.8241(2)
H10 H 0.6076 0.1863 0.8712
H11 H 0.5933 0.1261 0.8119
C16 C 0.63227(12) 0.32172(19) 0.7184(2)
H12 H 0.6333 0.3547 0.7597
H13 H 0.6623 0.3058 0.7222
C17 C 0.49154(15) 0.2490(3) 0.7165(3)
H14 H 0.4927 0.2930 0.7428
H15 H 0.4634 0.2473 0.6781
C18 C 0.4910(2) 0.1991(4) 0.7694(5)
H16 H 0.4676 0.2085 0.7950
H17 H 0.5190 0.1994 0.8084
C19 C 0.48447(19) 0.1355(4) 0.7353(4)
H18 H 0.4693 0.1405 0.6816
H19 H 0.4669 0.1079 0.7611
H20 H 0.5126 0.1136 0.7393
C20 C 0.65965(14) 0.1423(2) 0.8400(3)
H21 H 0.6645 0.1077 0.8805
H22 H 0.6643 0.1207 0.7936
C21 C 0.69295(13) 0.1979(2) 0.8642(3)
H23 H 0.7223 0.1775 0.8765
H24 H 0.6911 0.2289 0.8208
C22 C 0.68773(16) 0.2376(3) 0.9308(3)
H25 H 0.6622 0.2669 0.9155
H26 H 0.7136 0.2654 0.9500
H27 H 0.6839 0.2069 0.9709
C23 C 0.61548(13) 0.3570(2) 0.6420(2)
H28 H 0.6173 0.3251 0.6009
H29 H 0.5845 0.3683 0.6359
C24 C 0.63959(15) 0.4202(2) 0.6325(3)
H30 H 0.6709 0.4098 0.6424
H31 H 0.6358 0.4535 0.6710
C25 C 0.62470(19) 0.4517(3) 0.5542(3)
H32 H 0.6278 0.4188 0.5156
H33 H 0.6425 0.4914 0.5511
H34 H 0.5942 0.4652 0.5453
C26 C 0.44330(16) -0.2455(2) 0.5310(3)
H35 H 0.4522 -0.2549 0.4841
H36 H 0.4116 -0.2410 0.5195
H37 H 0.4525 -0.2826 0.5670
C27 C 0.45166(15) -0.0608(2) 0.7257(3)
H38 H 0.4654 -0.0170 0.7407
H39 H 0.4591 -0.0919 0.7689
H40 H 0.4201 -0.0550 0.7098
Sn1A Sn 0.406949(8) -0.262347(13) 0.765942(14)
Sn1_2 Sn 0.593051(8) -0.762347(13) 0.734058(14)
O1A O 0.38567(8) -0.31739(13) 0.85257(15)
O2A O 0.43003(8) -0.40122(13) 0.84085(15)
O3A O 0.57537(8) 0.31405(13) 0.84056(14)
O3A_2 O 0.57537(8) -0.68595(13) 0.84056(14)
N1A N 0.43802(10) -0.50321(15) 0.93333(17)
H1A H 0.4427(13) -0.479(2) 0.896(2)
N2A N 0.45703(9) -0.55952(15) 0.96098(16)
C1A C 0.40240(11) -0.37591(18) 0.8708(2)
C2A C 0.38698(11) -0.41281(18) 0.9311(2)
C3A C 0.35400(12) -0.3849(2) 0.9600(2)
H2A H 0.3420 -0.3424 0.9415
C4A C 0.33853(13) -0.4177(2) 1.0147(2)
H3A H 0.3161 -0.3980 1.0337
C5A C 0.35568(13) -0.4794(2) 1.0420(2)
H4A H 0.3446 -0.5022 1.0792
C6A C 0.38868(12) -0.5081(2) 1.0160(2)
H5A H 0.4006 -0.5503 1.0356
C7A C 0.40451(11) -0.47512(18) 0.96098(19)
C8A C 0.48758(11) -0.58458(18) 0.9299(2)
C9A C 0.50622(12) -0.64736(19) 0.9618(2)
H6A H 0.4972 -0.6658 1.0036
C10A C 0.53606(12) -0.68114(18) 0.9346(2)
C11A C 0.54963(12) -0.65440(18) 0.8699(2)
C12A C 0.53242(12) -0.58887(19) 0.8391(2)
C13A C 0.50260(12) -0.55646(19) 0.8686(2)
H7A H 0.4915 -0.5142 0.8480
C14A C 0.47382(12) -0.2509(2) 0.8248(2)
H8A H 0.4763 -0.2080 0.8533
H9A H 0.4807 -0.2875 0.8630
C15A C 0.38758(12) -0.33391(19) 0.6759(2)
H10A H 0.3924 -0.3137 0.6288
H11A H 0.4067 -0.3739 0.6881
C16A C 0.36773(12) -0.17828(19) 0.7816(2)
H12A H 0.3667 -0.1453 0.7403
H13A H 0.3377 -0.1942 0.7778
C17A C 0.50846(15) -0.2510(3) 0.7835(3)
H14A H 0.5073 -0.2070 0.7572
H15A H 0.5366 -0.2527 0.8219
C18A C 0.5090(2) -0.3009(4) 0.7306(5)
H16A H 0.5324 -0.2915 0.7050
H17A H 0.4810 -0.3006 0.6916
C19A C 0.51553(19) -0.3645(4) 0.7647(4)
H18A H 0.5307 -0.3595 0.8184
H19A H 0.5331 -0.3921 0.7389
H20A H 0.4874 -0.3864 0.7607
C20A C 0.34035(14) -0.3577(2) 0.6600(3)
H21A H 0.3355 -0.3923 0.6195
H22A H 0.3357 -0.3793 0.7064
C21A C 0.30705(13) -0.3021(2) 0.6358(3)
H23A H 0.2777 -0.3225 0.6235
H24A H 0.3089 -0.2711 0.6792
C22A C 0.31227(16) -0.2624(3) 0.5692(3)
H25A H 0.3378 -0.2331 0.5845
H26A H 0.2864 -0.2346 0.5500
H27A H 0.3161 -0.2931 0.5291
C23A C 0.38452(13) -0.1430(2) 0.8580(2)
H28A H 0.3827 -0.1749 0.8991
H29A H 0.4155 -0.1317 0.8641
C24A C 0.36041(15) -0.0798(2) 0.8675(3)
H30A H 0.3291 -0.0902 0.8576
H31A H 0.3642 -0.0465 0.8290
C25A C 0.37530(19) -0.0483(3) 0.9458(3)
H32A H 0.3722 -0.0812 0.9844
H33A H 0.3575 -0.0086 0.9489
H34A H 0.4058 -0.0348 0.9547
C26A C 0.55670(16) -0.7455(2) 0.9690(3)
H35A H 0.5478 -0.7549 1.0159
H36A H 0.5884 -0.7410 0.9805
H37A H 0.5475 -0.7826 0.9330
C27A C 0.54834(15) -0.5608(2) 0.7743(3)
H38A H 0.5346 -0.5170 0.7593
H39A H 0.5409 -0.5919 0.7311
H40A H 0.5799 -0.5550 0.7902
Sn2 Sn 0.089826(7) 0.240062(12) 0.237778(13)
O4 O 0.11334(7) 0.19089(12) 0.15061(13)
O5 O 0.07216(8) 0.10239(12) 0.16083(13)
O6 O -0.06281(8) -0.18823(13) 0.16234(14)
N3 N 0.06636(9) 0.00441(14) 0.06322(17)
H41 H 0.0603(10) 0.0239(17) 0.1039(19)
N4 N 0.04877(9) -0.05292(14) 0.03468(15)
C28 C 0.09794(11) 0.13190(17) 0.12997(19)
C29 C 0.11243(10) 0.10078(17) 0.06523(19)
C30 C 0.14230(11) 0.13564(18) 0.0339(2)
H42 H 0.1537 0.1774 0.0556
C31 C 0.15549(12) 0.11080(19) -0.0274(2)
H43 H 0.1758 0.1351 -0.0477
C32 C 0.13872(12) 0.04948(19) -0.0593(2)
H44 H 0.1475 0.0323 -0.1019
C33 C 0.10946(11) 0.01327(18) -0.02972(19)
H45 H 0.0985 -0.0286 -0.0518
C34 C 0.09620(11) 0.03867(17) 0.03277(19)
C35 C 0.01992(11) -0.08109(18) 0.06725(19)
C36 C 0.00468(11) -0.05374(18) 0.12908(19)
H46 H 0.0144 -0.0104 0.1484
C37 C -0.02316(11) -0.08805(18) 0.1605(2)
C38 C -0.03862(11) -0.15476(18) 0.13123(19)
C39 C -0.02534(11) -0.18096(18) 0.0655(2)
C40 C 0.00313(11) -0.14522(18) 0.0367(2)
H47 H 0.0124 -0.1632 -0.0052
C41 C 0.02207(11) 0.23529(18) 0.1836(2)
H48 H 0.0101 0.2816 0.1783
H49 H 0.0183 0.2165 0.1319
C42 C 0.12622(11) 0.32807(18) 0.2246(2)
H50 H 0.1265 0.3594 0.2671
H51 H 0.1566 0.3149 0.2274
C43 C 0.11527(11) 0.17365(18) 0.3302(2)
H52 H 0.0909 0.1576 0.3506
H53 H 0.1277 0.1338 0.3103
C44 C -0.00381(11) 0.1921(2) 0.2271(2)
H54 H 0.0120 0.1494 0.2426
H55 H -0.0057 0.2163 0.2738
C45 C -0.04939(12) 0.1759(2) 0.1810(2)
H56 H -0.0475 0.1497 0.1355
H57 H -0.0647 0.2186 0.1633
C46 C -0.07586(14) 0.1358(2) 0.2256(3)
H58 H -0.0592 0.0964 0.2489
H59 H -0.1031 0.1209 0.1911
H60 H -0.0823 0.1645 0.2654
C47 C 0.10780(13) 0.3645(2) 0.1497(2)
H61 H 0.1087 0.3335 0.1074
H62 H 0.0770 0.3754 0.1460
C48 C 0.13157(17) 0.4291(2) 0.1397(3)
H63 H 0.1620 0.4171 0.1410
H64 H 0.1183 0.4470 0.0884
C49 C 0.1325(3) 0.4843(4) 0.1952(5)
H65 H 0.1516 0.5205 0.1859
H66 H 0.1435 0.4670 0.2469
H67 H 0.1031 0.5021 0.1893
C50 C 0.15010(12) 0.20321(19) 0.3961(2)
H68 H 0.1749 0.2188 0.3766
H69 H 0.1380 0.2429 0.4168
C51 C 0.16604(15) 0.1530(2) 0.4589(2)
H70 H 0.1410 0.1382 0.4781
H71 H 0.1770 0.1129 0.4370
C52 C 0.20095(15) 0.1769(3) 0.5250(3)
H72 H 0.2269 0.1883 0.5078
H73 H 0.2080 0.1411 0.5633
H74 H 0.1908 0.2168 0.5473
C53 C -0.03855(13) -0.0610(2) 0.2262(2)
H75 H -0.0244 -0.0177 0.2422
H76 H -0.0313 -0.0930 0.2685
H77 H -0.0701 -0.0545 0.2108
C54 C -0.04415(14) -0.24734(19) 0.0337(2)
H78 H -0.0316 -0.2606 -0.0082
H79 H -0.0757 -0.2430 0.0150
H80 H -0.0375 -0.2817 0.0737
Sn2A Sn -0.089826(7) -0.259938(12) 0.262222(13)
Sn2_2 Sn 0.089826(7) -0.759938(12) 0.237778(13)
O4A O -0.11334(7) -0.30911(12) 0.34939(13)
O5A O -0.07216(8) -0.39761(12) 0.33917(13)
O6A O 0.06281(8) 0.31177(13) 0.33766(14)
O6A_2 O 0.06281(8) -0.68823(13) 0.33766(14)
N3A N -0.06636(9) -0.49559(14) 0.43678(17)
H41A H -0.0603(10) -0.4761(17) 0.3961(19)
N4A N -0.04877(9) -0.55292(14) 0.46532(15)
C28A C -0.09794(11) -0.36810(17) 0.37003(19)
C29A C -0.11243(10) -0.39922(17) 0.43477(19)
C30A C -0.14230(11) -0.36436(18) 0.4661(2)
H42A H -0.1537 -0.3226 0.4444
C31A C -0.15549(12) -0.38920(19) 0.5274(2)
H43A H -0.1758 -0.3649 0.5477
C32A C -0.13872(12) -0.45052(19) 0.5593(2)
H44A H -0.1475 -0.4677 0.6019
C33A C -0.10946(11) -0.48673(18) 0.52972(19)
H45A H -0.0985 -0.5286 0.5518
C34A C -0.09620(11) -0.46133(17) 0.46723(19)
C35A C -0.01992(11) -0.58109(18) 0.43275(19)
C36A C -0.00468(11) -0.55374(18) 0.37092(19)
H46A H -0.0144 -0.5104 0.3516
C37A C 0.02316(11) -0.58805(18) 0.3395(2)
C38A C 0.03862(11) -0.65476(18) 0.36877(19)
C39A C 0.02534(11) -0.68096(18) 0.4345(2)
C40A C -0.00313(11) -0.64522(18) 0.4633(2)
H47A H -0.0124 -0.6632 0.5052
C41A C -0.02207(11) -0.26471(18) 0.3164(2)
H48A H -0.0101 -0.2184 0.3217
H49A H -0.0183 -0.2835 0.3681
C42A C -0.12622(11) -0.17193(18) 0.2754(2)
H50A H -0.1265 -0.1406 0.2329
H51A H -0.1566 -0.1851 0.2726
C43A C -0.11527(11) -0.32635(18) 0.1698(2)
H52A H -0.0909 -0.3424 0.1494
H53A H -0.1277 -0.3662 0.1897
C44A C 0.00381(11) -0.3079(2) 0.2729(2)
H54A H -0.0120 -0.3506 0.2574
H55A H 0.0057 -0.2837 0.2262
C45A C 0.04939(12) -0.3241(2) 0.3190(2)
H56A H 0.0475 -0.3503 0.3645
H57A H 0.0647 -0.2814 0.3367
C46A C 0.07586(14) -0.3642(2) 0.2744(3)
H58A H 0.0592 -0.4036 0.2511
H59A H 0.1031 -0.3791 0.3089
H60A H 0.0823 -0.3355 0.2346
C47A C -0.10780(13) -0.1355(2) 0.3503(2)
H61A H -0.1087 -0.1665 0.3926
H62A H -0.0770 -0.1246 0.3540
C48A C -0.13157(17) -0.0709(2) 0.3603(3)
H63A H -0.1620 -0.0829 0.3590
H64A H -0.1183 -0.0530 0.4116
C49A C -0.1325(3) -0.0157(4) 0.3048(5)
H65A H -0.1516 0.0205 0.3141
H66A H -0.1435 -0.0330 0.2531
H67A H -0.1031 0.0021 0.3107
C50A C -0.15010(12) -0.29679(19) 0.1039(2)
H68A H -0.1749 -0.2812 0.1234
H69A H -0.1380 -0.2571 0.0832
C51A C -0.16604(15) -0.3470(2) 0.0411(2)
H70A H -0.1410 -0.3618 0.0219
H71A H -0.1770 -0.3871 0.0630
C52A C -0.20095(15) -0.3231(3) -0.0250(3)
H72A H -0.2269 -0.3117 -0.0078
H73A H -0.2080 -0.3589 -0.0633
H74A H -0.1908 -0.2832 -0.0473
C53A C 0.03855(13) -0.5610(2) 0.2738(2)
H75A H 0.0244 -0.5177 0.2578
H76A H 0.0313 -0.5930 0.2315
H77A H 0.0701 -0.5545 0.2892
C54A C 0.04415(14) -0.74734(19) 0.4663(2)
H78A H 0.0316 -0.7606 0.5082
H79A H 0.0757 -0.7430 0.4850
H80A H 0.0375 -0.7817 0.4263
Sn3 Sn 0.327240(8) 0.233470(13) 0.033622(14)
O7 O 0.35159(8) 0.27818(14) -0.05439(15)
O8 O 0.29742(8) 0.35327(13) -0.07108(15)
O9 O 0.17119(9) 0.66787(13) -0.07616(15)
N5 N 0.30146(10) 0.46049(15) -0.15338(17)
H81 H 0.2906(10) 0.4363(17) -0.1226(19)
N6 N 0.28833(9) 0.52132(14) -0.17900(16)
C55 C 0.33098(12) 0.33195(18) -0.0864(2)
C56 C 0.35065(11) 0.36602(18) -0.14299(19)
C57 C 0.38543(11) 0.33611(19) -0.1651(2)
H82 H 0.3958 0.2936 -0.1441
C58 C 0.40504(12) 0.3663(2) -0.2161(2)
H83 H 0.4284 0.3446 -0.2307
C59 C 0.39032(13) 0.4289(2) -0.2459(2)
H84 H 0.4040 0.4503 -0.2806
C60 C 0.35623(12) 0.46017(19) -0.2258(2)
H85 H 0.3465 0.5031 -0.2465
C61 C 0.33582(11) 0.42899(18) -0.17501(19)
C62 C 0.25750(11) 0.55119(17) -0.15332(19)
C63 C 0.23546(11) 0.52478(18) -0.09912(19)
H86 H 0.2417 0.4803 -0.0802
C64 C 0.20601(11) 0.56205(17) -0.07470(19)
C65 C 0.19625(12) 0.63192(18) -0.1020(2)
C66 C 0.21738(12) 0.65720(17) -0.1597(2)
C67 C 0.24614(12) 0.61780(18) -0.1826(2)
H87 H 0.2596 0.6348 -0.2200
C68 C 0.32971(13) 0.32038(19) 0.1047(2)
H88 H 0.3403 0.3590 0.0797
H89 H 0.2998 0.3311 0.1077
C69 C 0.37980(12) 0.1635(2) 0.0684(2)
H90 H 0.3937 0.1724 0.1226
H91 H 0.3672 0.1177 0.0654
C70 C 0.27033(11) 0.19195(18) -0.0409(2)
H92 H 0.2531 0.1684 -0.0103
H93 H 0.2524 0.2291 -0.0686
C71 C 0.35784(13) 0.3144(2) 0.1846(2)
H94 H 0.3875 0.3012 0.1825
H95 H 0.3461 0.2784 0.2117
C72 C 0.35994(15) 0.3811(3) 0.2292(3)
H96 H 0.3757 0.4151 0.2064
H97 H 0.3301 0.3980 0.2242
C73 C 0.38187(17) 0.3738(3) 0.3113(3)
H98 H 0.3675 0.3383 0.3336
H99 H 0.3802 0.4166 0.3375
H100 H 0.4124 0.3617 0.3168
C74 C 0.41486(14) 0.1624(3) 0.0267(3)
H101 H 0.4293 0.2070 0.0321
H102 H 0.4015 0.1550 -0.0280
C75 C 0.44902(14) 0.1082(3) 0.0547(3)
H103 H 0.4646 0.1189 0.1077
H104 H 0.4341 0.0645 0.0555
C76 C 0.4815(2) 0.1005(4) 0.0084(5)
H105 H 0.4667 0.0868 -0.0433
H106 H 0.5028 0.0660 0.0314
H107 H 0.4964 0.1436 0.0068
C77 C 0.28099(11) 0.14258(18) -0.0982(2)
H108 H 0.2952 0.1675 -0.1327
H109 H 0.3020 0.1088 -0.0706
C78 C 0.24140(12) 0.1059(2) -0.1456(2)
H110 H 0.2302 0.0746 -0.1124
H111 H 0.2183 0.1393 -0.1663
C79 C 0.25129(16) 0.0663(2) -0.2109(2)
H112 H 0.2590 0.0976 -0.2472
H113 H 0.2256 0.0403 -0.2364
H114 H 0.2756 0.0356 -0.1912
C80 C 0.18194(13) 0.53558(19) -0.0193(2)
H115 H 0.1512 0.5297 -0.0452
H116 H 0.1846 0.5677 0.0226
H117 H 0.1943 0.4921 0.0008
C81 C 0.20635(15) 0.72729(18) -0.1899(2)
H118 H 0.2169 0.7338 -0.2357
H119 H 0.2201 0.7603 -0.1512
H120 H 0.1748 0.7335 -0.2024
Sn4 Sn 0.143010(8) -0.261730(13) 0.034180(14)
O10 O 0.11772(8) -0.21365(13) 0.11900(14)
O11 O 0.16859(8) -0.13472(13) 0.13045(14)
O12 O 0.29758(8) 0.17270(12) 0.13729(14)
N7 N 0.16149(9) -0.02621(15) 0.20797(16)
H121 H 0.1741(13) -0.056(2) 0.177(2)
N8 N 0.17390(9) 0.03529(14) 0.23196(16)
C82 C 0.13639(12) -0.15881(18) 0.1480(2)
C83 C 0.11715(11) -0.12554(17) 0.20593(19)
C84 C 0.08637(11) -0.15987(19) 0.2348(2)
H122 H 0.0778 -0.2040 0.2168
C85 C 0.06814(12) -0.13139(19) 0.2887(2)
H123 H 0.0478 -0.1560 0.3085
C86 C 0.07983(12) -0.0661(2) 0.3140(2)
H124 H 0.0668 -0.0458 0.3503
C87 C 0.11008(11) -0.03076(18) 0.2869(2)
H125 H 0.1178 0.0137 0.3046
C88 C 0.12932(11) -0.05993(17) 0.23386(19)
C89 C 0.20540(11) 0.06419(17) 0.20709(19)
C90 C 0.22921(11) 0.03472(17) 0.15765(19)
H126 H 0.2229 -0.0102 0.1404
C91 C 0.26038(11) 0.06909(17) 0.13490(18)
C92 C 0.26982(11) 0.13939(17) 0.15986(19)
C93 C 0.24639(11) 0.16896(17) 0.21136(19)
C94 C 0.21602(11) 0.13160(17) 0.23352(19)
H127 H 0.2012 0.1508 0.2679
C95 C 0.08671(13) -0.3235(2) -0.0049(2)
H128 H 0.0649 -0.2968 -0.0418
H129 H 0.0950 -0.3620 -0.0330
C96 C 0.20118(12) -0.30253(19) 0.1062(2)
H130 H 0.2186 -0.3229 0.0737
H131 H 0.2184 -0.2649 0.1345
C97 C 0.15177(11) -0.18200(18) -0.0390(2)
H132 H 0.1406 -0.1963 -0.0925
H133 H 0.1348 -0.1423 -0.0302
C98 C 0.06495(14) -0.3513(2) 0.0530(3)
H134 H 0.0552 -0.3135 0.0803
H135 H 0.0862 -0.3782 0.0907
C99 C 0.02591(15) -0.3957(2) 0.0172(3)
H136 H 0.0041 -0.3684 -0.0191
H137 H 0.0354 -0.4327 -0.0117
C100 C 0.00502(19) -0.4258(3) 0.0770(3)
H138 H 0.0254 -0.4569 0.1094
H139 H -0.0214 -0.4503 0.0517
H140 H -0.0024 -0.3896 0.1082
C101 C 0.19475(13) -0.35548(19) 0.1636(2)
H141 H 0.1777 -0.3934 0.1358
H142 H 0.1778 -0.3353 0.1970
C102 C 0.23758(14) -0.3828(2) 0.2127(2)
H143 H 0.2554 -0.3444 0.2376
H144 H 0.2312 -0.4114 0.2533
C103 C 0.26366(15) -0.4234(2) 0.1693(3)
H145 H 0.2475 -0.4642 0.1489
H146 H 0.2915 -0.4362 0.2034
H147 H 0.2689 -0.3963 0.1273
C104 C 0.19937(12) -0.16206(19) -0.0258(2)
H148 H 0.2163 -0.2024 -0.0328
H149 H 0.2101 -0.1469 0.0275
C105 C 0.20774(14) -0.1062(2) -0.0785(3)
H150 H 0.1948 -0.0636 -0.0660
H151 H 0.1932 -0.1180 -0.1317
C106 C 0.25615(15) -0.0951(2) -0.0720(3)
H152 H 0.2715 -0.0909 -0.0183
H153 H 0.2601 -0.0538 -0.0991
H154 H 0.2678 -0.1336 -0.0944
C107 C 0.28590(13) 0.03864(19) 0.0842(2)
H155 H 0.2801 -0.0099 0.0794
H156 H 0.3169 0.0461 0.1062
H157 H 0.2774 0.0598 0.0340
C108 C 0.25710(13) 0.23966(18) 0.2387(2)
H158 H 0.2394 0.2523 0.2737
H159 H 0.2510 0.2705 0.1952
H160 H 0.2879 0.2425 0.2651
O9_2 O 0.17119(9) -0.33213(13) -0.07616(15)
Sn4_2 Sn 0.143010(8) 0.738270(13) 0.034180(14)
C109? C 0.1042(4) 0.4683(6) 0.0754(6)
H161? H 0.1371 0.4561 0.1870
H162? H 0.1598 0.4181 0.1290
H163? H 0.0742 0.4695 0.0803
H164? H 0.1051 0.4468 0.0272
H165? H 0.1154 0.5144 0.0764
loop_
_geom_bond_atom_site_label_1
_geom_bond_atom_site_label_2
_geom_bond_site_symmetry_1
_geom_bond_site_symmetry_2
Sn1 O1 1_555 1_555
O1 C1 1_555 1_555
O2 C1 1_555 1_555
O3 C11 1_555 1_555
N1 H1 1_555 1_555
N2 N1 1_555 1_555
C1 C2 1_555 1_555
C2 C3 1_555 1_555
C3 H2 1_555 1_555
C4 C3 1_555 1_555
H3 C4 1_555 1_555
C5 C4 1_555 1_555
H4 C5 1_555 1_555
C6 C5 1_555 1_555
H5 C6 1_555 1_555
C7 N1 1_555 1_555
C8 N2 1_555 1_555
C9 C8 1_555 1_555
H6 C9 1_555 1_555
C10 C9 1_555 1_555
C11 C10 1_555 1_555
C12 C11 1_555 1_555
C13 C8 1_555 1_555
H7 C13 1_555 1_555
C14 Sn1 1_555 1_555
H8 C14 1_555 1_555
H9 C14 1_555 1_555
C15 Sn1 1_555 1_555
H10 C15 1_555 1_555
H11 C15 1_555 1_555
C16 Sn1 1_555 1_555
H12 C16 1_555 1_555
H13 C16 1_555 1_555
C17 C14 1_555 1_555
H14 C17 1_555 1_555
H15 C17 1_555 1_555
C18 C17 1_555 1_555
H16 C18 1_555 1_555
H17 C18 1_555 1_555
C19 C18 1_555 1_555
H18 C19 1_555 1_555
H19 C19 1_555 1_555
H20 C19 1_555 1_555
C20 C15 1_555 1_555
H21 C20 1_555 1_555
H22 C20 1_555 1_555
C21 C20 1_555 1_555
H23 C21 1_555 1_555
H24 C21 1_555 1_555
C22 C21 1_555 1_555
H25 C22 1_555 1_555
H26 C22 1_555 1_555
H27 C22 1_555 1_555
C23 C16 1_555 1_555
H28 C23 1_555 1_555
H29 C23 1_555 1_555
C24 C23 1_555 1_555
H30 C24 1_555 1_555
H31 C24 1_555 1_555
C25 C24 1_555 1_555
H32 C25 1_555 1_555
H33 C25 1_555 1_555
H34 C25 1_555 1_555
C26 C10 1_555 1_555
H35 C26 1_555 1_555
H36 C26 1_555 1_555
H37 C26 1_555 1_555
C27 C12 1_555 1_555
H38 C27 1_555 1_555
H39 C27 1_555 1_555
H40 C27 1_555 1_555
Sn2 O4 1_555 1_555
O4 C28 1_555 1_555
O5 C28 1_555 1_555
O6 C38 1_555 1_555
N3 H41 1_555 1_555
N4 N3 1_555 1_555
C28 C29 1_555 1_555
C29 C30 1_555 1_555
C30 H42 1_555 1_555
C31 C30 1_555 1_555
H43 C31 1_555 1_555
C32 C31 1_555 1_555
H44 C32 1_555 1_555
C33 C32 1_555 1_555
H45 C33 1_555 1_555
C34 N3 1_555 1_555
C35 N4 1_555 1_555
C36 C35 1_555 1_555
H46 C36 1_555 1_555
C37 C36 1_555 1_555
C38 C37 1_555 1_555
C39 C38 1_555 1_555
C40 C35 1_555 1_555
H47 C40 1_555 1_555
C41 Sn2 1_555 1_555
H48 C41 1_555 1_555
H49 C41 1_555 1_555
C42 Sn2 1_555 1_555
H50 C42 1_555 1_555
H51 C42 1_555 1_555
C43 Sn2 1_555 1_555
H52 C43 1_555 1_555
H53 C43 1_555 1_555
C44 C41 1_555 1_555
H54 C44 1_555 1_555
H55 C44 1_555 1_555
C45 C44 1_555 1_555
H56 C45 1_555 1_555
H57 C45 1_555 1_555
C46 C45 1_555 1_555
H58 C46 1_555 1_555
H59 C46 1_555 1_555
H60 C46 1_555 1_555
C47 C42 1_555 1_555
H61 C47 1_555 1_555
H62 C47 1_555 1_555
C48 C47 1_555 1_555
H63 C48 1_555 1_555
H64 C48 1_555 1_555
C49 C48 1_555 1_555
H65 C49 1_555 1_555
H66 C49 1_555 1_555
H67 C49 1_555 1_555
C50 C43 1_555 1_555
H68 C50 1_555 1_555
H69 C50 1_555 1_555
C51 C50 1_555 1_555
H70 C51 1_555 1_555
H71 C51 1_555 1_555
C52 C51 1_555 1_555
H72 C52 1_555 1_555
H73 C52 1_555 1_555
H74 C52 1_555 1_555
C53 C37 1_555 1_555
H75 C53 1_555 1_555
H76 C53 1_555 1_555
H77 C53 1_555 1_555
C54 C39 1_555 1_555
H78 C54 1_555 1_555
H79 C54 1_555 1_555
H80 C54 1_555 1_555
Sn3 O7 1_555 1_555
O7 C55 1_555 1_555
O8 C55 1_555 1_555
O9 C65 1_555 1_555
N5 H81 1_555 1_555
N6 N5 1_555 1_555
C55 C56 1_555 1_555
C56 C57 1_555 1_555
C57 H82 1_555 1_555
C58 C57 1_555 1_555
H83 C58 1_555 1_555
C59 C58 1_555 1_555
H84 C59 1_555 1_555
C60 C59 1_555 1_555
H85 C60 1_555 1_555
C61 N5 1_555 1_555
C62 N6 1_555 1_555
C63 C62 1_555 1_555
H86 C63 1_555 1_555
C64 C63 1_555 1_555
C65 C64 1_555 1_555
C66 C65 1_555 1_555
C67 C62 1_555 1_555
H87 C67 1_555 1_555
C68 Sn3 1_555 1_555
H88 C68 1_555 1_555
H89 C68 1_555 1_555
C69 Sn3 1_555 1_555
H90 C69 1_555 1_555
H91 C69 1_555 1_555
C70 Sn3 1_555 1_555
H92 C70 1_555 1_555
H93 C70 1_555 1_555
C71 C68 1_555 1_555
H94 C71 1_555 1_555
H95 C71 1_555 1_555
C72 C71 1_555 1_555
H96 C72 1_555 1_555
H97 C72 1_555 1_555
C73 C72 1_555 1_555
H98 C73 1_555 1_555
H99 C73 1_555 1_555
H100 C73 1_555 1_555
C74 C69 1_555 1_555
H101 C74 1_555 1_555
H102 C74 1_555 1_555
C75 C74 1_555 1_555
H103 C75 1_555 1_555
H104 C75 1_555 1_555
C76 C75 1_555 1_555
H105 C76 1_555 1_555
H106 C76 1_555 1_555
H107 C76 1_555 1_555
C77 C70 1_555 1_555
H108 C77 1_555 1_555
H109 C77 1_555 1_555
C78 C77 1_555 1_555
H110 C78 1_555 1_555
H111 C78 1_555 1_555
C79 C78 1_555 1_555
H112 C79 1_555 1_555
H113 C79 1_555 1_555
H114 C79 1_555 1_555
C80 C64 1_555 1_555
H115 C80 1_555 1_555
H116 C80 1_555 1_555
H117 C80 1_555 1_555
C81 C66 1_555 1_555
H118 C81 1_555 1_555
H119 C81 1_555 1_555
H120 C81 1_555 1_555
Sn4 O10 1_555 1_555
O10 C82 1_555 1_555
O11 C82 1_555 1_555
O12 Sn3 1_555 1_555
N7 H121 1_555 1_555
N8 N7 1_555 1_555
C82 C83 1_555 1_555
C83 C84 1_555 1_555
C84 H122 1_555 1_555
C85 C84 1_555 1_555
H123 C85 1_555 1_555
C86 C85 1_555 1_555
H124 C86 1_555 1_555
C87 C86 1_555 1_555
H125 C87 1_555 1_555
C88 N7 1_555 1_555
C89 N8 1_555 1_555
C90 C89 1_555 1_555
H126 C90 1_555 1_555
C91 C90 1_555 1_555
C92 O12 1_555 1_555
C93 C92 1_555 1_555
C94 C89 1_555 1_555
H127 C94 1_555 1_555
C95 Sn4 1_555 1_555
H128 C95 1_555 1_555
H129 C95 1_555 1_555
C96 Sn4 1_555 1_555
H130 C96 1_555 1_555
H131 C96 1_555 1_555
C97 Sn4 1_555 1_555
H132 C97 1_555 1_555
H133 C97 1_555 1_555
C98 C95 1_555 1_555
H134 C98 1_555 1_555
H135 C98 1_555 1_555
C99 C98 1_555 1_555
H136 C99 1_555 1_555
H137 C99 1_555 1_555
C100 C99 1_555 1_555
H138 C100 1_555 1_555
H139 C100 1_555 1_555
H140 C100 1_555 1_555
C101 C96 1_555 1_555
H141 C101 1_555 1_555
H142 C101 1_555 1_555
C102 C101 1_555 1_555
H143 C102 1_555 1_555
H144 C102 1_555 1_555
C103 C102 1_555 1_555
H145 C103 1_555 1_555
H146 C103 1_555 1_555
H147 C103 1_555 1_555
C104 C97 1_555 1_555
H148 C104 1_555 1_555
H149 C104 1_555 1_555
C105 C104 1_555 1_555
H150 C105 1_555 1_555
H151 C105 1_555 1_555
C106 C105 1_555 1_555
H152 C106 1_555 1_555
H153 C106 1_555 1_555
H154 C106 1_555 1_555
C107 C91 1_555 1_555
H155 C107 1_555 1_555
H156 C107 1_555 1_555
H157 C107 1_555 1_555
C108 C93 1_555 1_555
H158 C108 1_555 1_555
H159 C108 1_555 1_555
H160 C108 1_555 1_555
Sn1A O3 1_555 1_555
Sn1_2 O3A_2 1_555 1_555
O1A Sn1A 1_555 1_555
O2A C1A 1_555 1_555
O3A Sn1 1_555 1_555
O3A_2 C11A 1_555 1_555
N1A H1A 1_555 1_555
N2A N1A 1_555 1_555
C1A O1A 1_555 1_555
C2A C1A 1_555 1_555
C3A C2A 1_555 1_555
H2A C3A 1_555 1_555
C4A C3A 1_555 1_555
H3A C4A 1_555 1_555
C5A C4A 1_555 1_555
H4A C5A 1_555 1_555
C6A C5A 1_555 1_555
H5A C6A 1_555 1_555
C7A N1A 1_555 1_555
C8A N2A 1_555 1_555
C9A C8A 1_555 1_555
H6A C9A 1_555 1_555
C10A C9A 1_555 1_555
C11A C10A 1_555 1_555
C12A C11A 1_555 1_555
C13A C8A 1_555 1_555
H7A C13A 1_555 1_555
C14A Sn1A 1_555 1_555
H8A C14A 1_555 1_555
H9A C14A 1_555 1_555
C15A Sn1A 1_555 1_555
H10A C15A 1_555 1_555
H11A C15A 1_555 1_555
C16A Sn1A 1_555 1_555
H12A C16A 1_555 1_555
H13A C16A 1_555 1_555
C17A C14A 1_555 1_555
H14A C17A 1_555 1_555
H15A C17A 1_555 1_555
C18A C17A 1_555 1_555
H16A C18A 1_555 1_555
H17A C18A 1_555 1_555
C19A C18A 1_555 1_555
H18A C19A 1_555 1_555
H19A C19A 1_555 1_555
H20A C19A 1_555 1_555
C20A C15A 1_555 1_555
H21A C20A 1_555 1_555
H22A C20A 1_555 1_555
C21A C20A 1_555 1_555
H23A C21A 1_555 1_555
H24A C21A 1_555 1_555
C22A C21A 1_555 1_555
H25A C22A 1_555 1_555
H26A C22A 1_555 1_555
H27A C22A 1_555 1_555
C23A C16A 1_555 1_555
H28A C23A 1_555 1_555
H29A C23A 1_555 1_555
C24A C23A 1_555 1_555
H30A C24A 1_555 1_555
H31A C24A 1_555 1_555
C25A C24A 1_555 1_555
H32A C25A 1_555 1_555
H33A C25A 1_555 1_555
H34A C25A 1_555 1_555
C26A C10A 1_555 1_555
H35A C26A 1_555 1_555
H36A C26A 1_555 1_555
H37A C26A 1_555 1_555
C27A C12A 1_555 1_555
H38A C27A 1_555 1_555
H39A C27A 1_555 1_555
H40A C27A 1_555 1_555
Sn2A O6 1_555 1_555
Sn2_2 O6A_2 1_555 1_555
O4A Sn2A 1_555 1_555
O5A C28A 1_555 1_555
O6A Sn2 1_555 1_555
O6A_2 C38A 1_555 1_555
N3A H41A 1_555 1_555
N4A N3A 1_555 1_555
C28A O4A 1_555 1_555
C29A C28A 1_555 1_555
C30A C29A 1_555 1_555
H42A C30A 1_555 1_555
C31A C30A 1_555 1_555
H43A C31A 1_555 1_555
C32A C31A 1_555 1_555
H44A C32A 1_555 1_555
C33A C32A 1_555 1_555
H45A C33A 1_555 1_555
C34A N3A 1_555 1_555
C35A N4A 1_555 1_555
C36A C35A 1_555 1_555
H46A C36A 1_555 1_555
C37A C36A 1_555 1_555
C38A C37A 1_555 1_555
C39A C38A 1_555 1_555
C40A C35A 1_555 1_555
H47A C40A 1_555 1_555
C41A Sn2A 1_555 1_555
H48A C41A 1_555 1_555
H49A C41A 1_555 1_555
C42A Sn2A 1_555 1_555
H50A C42A 1_555 1_555
H51A C42A 1_555 1_555
C43A Sn2A 1_555 1_555
H52A C43A 1_555 1_555
H53A C43A 1_555 1_555
C44A C41A 1_555 1_555
H54A C44A 1_555 1_555
H55A C44A 1_555 1_555
C45A C44A 1_555 1_555
H56A C45A 1_555 1_555
H57A C45A 1_555 1_555
C46A C45A 1_555 1_555
H58A C46A 1_555 1_555
H59A C46A 1_555 1_555
H60A C46A 1_555 1_555
C47A C42A 1_555 1_555
H61A C47A 1_555 1_555
H62A C47A 1_555 1_555
C48A C47A 1_555 1_555
H63A C48A 1_555 1_555
H64A C48A 1_555 1_555
C49A C48A 1_555 1_555
H65A C49A 1_555 1_555
H66A C49A 1_555 1_555
H67A C49A 1_555 1_555
C50A C43A 1_555 1_555
H68A C50A 1_555 1_555
H69A C50A 1_555 1_555
C51A C50A 1_555 1_555
H70A C51A 1_555 1_555
H71A C51A 1_555 1_555
C52A C51A 1_555 1_555
H72A C52A 1_555 1_555
H73A C52A 1_555 1_555
H74A C52A 1_555 1_555
C53A C37A 1_555 1_555
H75A C53A 1_555 1_555
H76A C53A 1_555 1_555
H77A C53A 1_555 1_555
C54A C39A 1_555 1_555
H78A C54A 1_555 1_555
H79A C54A 1_555 1_555
H80A C54A 1_555 1_555
O9_2 Sn4 1_555 1_555
Sn4_2 O9 1_555 1_555
C2 C7 1_555 1_555
C6 C7 1_555 1_555
C12 C13 1_555 1_555
C29 C34 1_555 1_555
C33 C34 1_555 1_555
C39 C40 1_555 1_555
C56 C61 1_555 1_555
C60 C61 1_555 1_555
C66 C67 1_555 1_555
C83 C88 1_555 1_555
C87 C88 1_555 1_555
C91 C92 1_555 1_555
C93 C94 1_555 1_555
C2A C7A 1_555 1_555
C6A C7A 1_555 1_555
C12A C13A 1_555 1_555
C29A C34A 1_555 1_555
C33A C34A 1_555 1_555
C39A C40A 1_555 1_555

#END
