
#######################################################################
#
#                 Cambridge Crystallographic Data Centre
#                                CCDC 
#
#######################################################################
#
# If this CIF has been generated from an entry in the Cambridge 
# Structural Database, then it will include bibliographic, chemical, 
# crystal, experimental, refinement or atomic coordinate data resulting 
# from the CCDC's data processing and validation procedures.
#
#######################################################################

data_PAGZII
_symmetry_cell_setting           monoclinic
_symmetry_space_group_name_H-M   'P 21/c'
_symmetry_Int_Tables_number      14
_space_group_name_Hall           '-P 2ybc'
loop_
_symmetry_equiv_pos_site_id
_symmetry_equiv_pos_as_xyz
1 x,y,z
2 -x,1/2+y,1/2-z
3 -x,-y,-z
4 x,1/2-y,1/2+z
_cell_length_a                   14.5151(2)
_cell_length_b                   18.2399(2)
_cell_length_c                   8.9687(1)
_cell_angle_alpha                90
_cell_angle_beta                 103.6542(8)
_cell_angle_gamma                90
_cell_volume                     2307.39
loop_
_atom_site_label
_atom_site_type_symbol
_atom_site_fract_x
_atom_site_fract_y
_atom_site_fract_z
Sn1 Sn 0.236061(15) -0.029800(11) 0.26520(2)
O1 O 0.27159(17) 0.02536(12) 0.0761(3)
O2 O 0.14871(16) 0.10048(12) 0.0617(3)
O3 O -0.20488(16) 0.40189(12) 0.0033(3)
N1 N 0.13439(19) 0.21735(15) -0.1102(3)
H1 H 0.116(2) 0.187(2) -0.049(4)
N2 N 0.09920(19) 0.28204(14) -0.1545(3)
C1 C 0.2224(2) 0.08279(17) 0.0227(3)
C2 C 0.2610(2) 0.12798(17) -0.0873(3)
C3 C 0.3447(2) 0.10652(19) -0.1266(4)
H2 H 0.3759 0.0630 -0.0835
C4 C 0.3828(3) 0.1476(2) -0.2272(4)
H3 H 0.4393 0.1319 -0.2534
C5 C 0.3383(3) 0.2116(2) -0.2898(4)
H4 H 0.3645 0.2395 -0.3593
C6 C 0.2564(2) 0.23505(19) -0.2517(4)
H5 H 0.2266 0.2793 -0.2938
C7 C 0.2177(2) 0.19350(17) -0.1511(3)
C8 C 0.0234(2) 0.30602(17) -0.1103(3)
C9 C -0.0303(2) 0.26690(17) -0.0206(3)
H6 H -0.0108 0.2191 0.0158
C10 C -0.1085(2) 0.29698(17) 0.0131(3)
C11 C -0.1356(2) 0.37251(16) -0.0354(3)
C12 C -0.0829(2) 0.41092(17) -0.1294(3)
C13 C -0.0070(2) 0.37797(17) -0.1644(4)
H7 H 0.0271 0.4034 -0.2267
C14 C 0.3484(3) -0.1057(2) 0.2770(5)
H8 H 0.4046 -0.0888 0.3529
H9 H 0.3634 -0.1094 0.1763
H10 H 0.3292 -0.1539 0.3074
C15 C 0.0995(2) -0.0677(2) 0.1487(4)
H11 H 0.0719 -0.0966 0.2193
H12 H 0.1051 -0.0982 0.0614
H13 H 0.0585 -0.0256 0.1117
C16 C 0.2651(3) 0.0596(2) 0.4188(4)
H14 H 0.3124 0.0916 0.3902
H15 H 0.2897 0.0414 0.5234
H16 H 0.2067 0.0874 0.4141
C17 C -0.1715(2) 0.25627(19) 0.0945(4)
H17 H -0.1470 0.2065 0.1179
H18 H -0.2358 0.2539 0.0289
H19 H -0.1729 0.2817 0.1902
C18 C -0.1155(3) 0.48693(19) -0.1840(5)
H20 H -0.0765 0.5054 -0.2515
H21 H -0.1091 0.5196 -0.0954
H22 H -0.1820 0.4852 -0.2406
Sn1A Sn -0.236061(15) 0.470200(11) 0.23480(2)
O3A O 0.20488(16) -0.09811(12) 0.4967(3)
Cl1 Cl 0.43517(16) -0.29262(9) 0.1779(3)
Cl2 Cl 0.36757(14) -0.38794(14) 0.38446(19)
Cl3 Cl 0.49628(12) -0.44096(11) 0.2203(2)
C19 C 0.4041(3) -0.3801(2) 0.2133(5)
H23 H 0.3500 -0.3954 0.1275
loop_
_geom_bond_atom_site_label_1
_geom_bond_atom_site_label_2
_geom_bond_site_symmetry_1
_geom_bond_site_symmetry_2
Sn1 O1 1_555 1_555
O1 C1 1_555 1_555
O2 C1 1_555 1_555
O3 C11 1_555 1_555
N1 H1 1_555 1_555
N2 N1 1_555 1_555
C1 C2 1_555 1_555
C2 C3 1_555 1_555
C3 H2 1_555 1_555
C4 C3 1_555 1_555
H3 C4 1_555 1_555
C5 C4 1_555 1_555
H4 C5 1_555 1_555
C6 C5 1_555 1_555
H5 C6 1_555 1_555
C7 N1 1_555 1_555
C8 N2 1_555 1_555
C9 C8 1_555 1_555
H6 C9 1_555 1_555
C10 C9 1_555 1_555
C11 C10 1_555 1_555
C12 C11 1_555 1_555
C13 C8 1_555 1_555
H7 C13 1_555 1_555
C14 Sn1 1_555 1_555
H8 C14 1_555 1_555
H9 C14 1_555 1_555
H10 C14 1_555 1_555
C15 Sn1 1_555 1_555
H11 C15 1_555 1_555
H12 C15 1_555 1_555
H13 C15 1_555 1_555
C16 Sn1 1_555 1_555
H14 C16 1_555 1_555
H15 C16 1_555 1_555
H16 C16 1_555 1_555
C17 C10 1_555 1_555
H17 C17 1_555 1_555
H18 C17 1_555 1_555
H19 C17 1_555 1_555
C18 C12 1_555 1_555
H20 C18 1_555 1_555
H21 C18 1_555 1_555
H22 C18 1_555 1_555
Cl1 C19 1_555 1_555
Cl2 C19 1_555 1_555
Cl3 C19 1_555 1_555
C19 H23 1_555 1_555
Sn1A O3 1_555 1_555
O3A Sn1 1_555 1_555
C2 C7 1_555 1_555
C6 C7 1_555 1_555
C12 C13 1_555 1_555

#END
