
#######################################################################
#
#                 Cambridge Crystallographic Data Centre
#                                CCDC 
#
#######################################################################
#
# If this CIF has been generated from an entry in the Cambridge 
# Structural Database, then it will include bibliographic, chemical, 
# crystal, experimental, refinement or atomic coordinate data resulting 
# from the CCDC's data processing and validation procedures.
#
#######################################################################

data_PAHRAS
_symmetry_cell_setting           monoclinic
_symmetry_space_group_name_H-M   'C 2/c'
_symmetry_Int_Tables_number      15
_space_group_name_Hall           '-C 2yn'
loop_
_symmetry_equiv_pos_site_id
_symmetry_equiv_pos_as_xyz
1 x,y,z
2 1/2+x,1/2+y,z
3 x,-y,1/2+z
4 1/2+x,1/2-y,1/2+z
5 -x,-y,-z
6 1/2-x,1/2-y,-z
7 -x,y,1/2-z
8 1/2-x,1/2+y,1/2-z
_cell_length_a                   10.670(5)
_cell_length_b                   15.720(7)
_cell_length_c                   11.462(5)
_cell_angle_alpha                90
_cell_angle_beta                 90.627(7)
_cell_angle_gamma                90
_cell_volume                     1922.43
loop_
_atom_site_label
_atom_site_type_symbol
_atom_site_fract_x
_atom_site_fract_y
_atom_site_fract_z
Ag1 Ag 0.0000 0.09190(2) 0.7500
S1 S 0.22589(7) 0.02562(4) 1.09301(6)
S2 S 0.07117(7) 0.18455(4) 1.03058(6)
O1 O 0.09705(19) 0.23593(14) 0.72647(18)
O2 O 0.0000 0.3541(2) 0.7500
N1 N 0.1611(2) -0.03348(13) 0.89466(17)
N2 N 0.10473(19) 0.04552(13) 0.90370(16)
N3 N 0.0000 0.2766(2) 0.7500
C1 C 0.2954(3) -0.1345(2) 0.9999(3)
H1 H 0.2835 -0.1685 0.9310
H2 H 0.2638 -0.1645 1.0663
H3 H 0.3831 -0.1233 1.0112
C2 C 0.2268(3) -0.05257(17) 0.9860(2)
C3 C 0.1294(2) 0.08380(16) 1.0023(2)
C4 C 0.1202(2) 0.20187(17) 1.1815(2)
H4 H 0.0950 0.1545 1.2301
H5 H 0.2106 0.2080 1.1870
C5 C 0.0564(2) 0.28233(15) 1.21941(19)
C6 C 0.1089(2) 0.35968(17) 1.1893(2)
H6 H 0.1832 0.3602 1.1476
C7 C 0.0546(3) 0.43595(17) 1.2192(2)
H7 H 0.0918 0.4870 1.1977
C5F C -0.0564(2) 0.28233(15) 1.28059(19)
C4F C -0.1202(2) 0.20187(17) 1.3185(2)
S2F S -0.07117(7) 0.18455(4) 1.46942(6)
C3F C -0.1294(2) 0.08380(16) 1.4977(2)
S1F S -0.22589(7) 0.02562(4) 1.40699(6)
C2F C -0.2268(3) -0.05257(17) 1.5140(2)
N1F N -0.1611(2) -0.03348(13) 1.60534(17)
N2F N -0.10473(19) 0.04552(13) 1.59630(16)
C1F C -0.2954(3) -0.1345(2) 1.5001(3)
H1F H -0.2835 -0.1685 1.5690
H2F H -0.2638 -0.1645 1.4337
H3F H -0.3831 -0.1233 1.4888
H4F H -0.0950 0.1545 1.2699
H5F H -0.2106 0.2080 1.3130
C6F C -0.1089(2) 0.35968(17) 1.3107(2)
H6F H -0.1832 0.3602 1.3524
C7F C -0.0546(3) 0.43595(17) 1.2808(2)
H7F H -0.0918 0.4870 1.3023
O1F O -0.09705(19) 0.23593(14) 0.77353(18)
N2F_2 N -0.10473(19) 0.04552(13) 0.59630(16)
Ag1_2 Ag 0.0000 0.09190(2) 1.7500
loop_
_geom_bond_atom_site_label_1
_geom_bond_atom_site_label_2
_geom_bond_site_symmetry_1
_geom_bond_site_symmetry_2
Ag1 O1 1_555 1_555
S1 C2 1_555 1_555
S2 C3 1_555 1_555
O1 N3 1_555 1_555
O2 N3 1_555 1_555
N1 N2 1_555 1_555
N2 Ag1 1_555 1_555
N3 O1F 1_555 1_555
C1 H1 1_555 1_555
H2 C1 1_555 1_555
H3 C1 1_555 1_555
C2 N1 1_555 1_555
C3 S1 1_555 1_555
C4 S2 1_555 1_555
H4 C4 1_555 1_555
H5 C4 1_555 1_555
C5 C4 1_555 1_555
C6 C5 1_555 1_555
H6 C6 1_555 1_555
C7 C6 1_555 1_555
H7 C7 1_555 1_555
C5F C5 1_555 1_555
C4F C5F 1_555 1_555
S2F C4F 1_555 1_555
C3F S2F 1_555 1_555
S1F C3F 1_555 1_555
C2F S1F 1_555 1_555
N1F C2F 1_555 1_555
N2F C3F 1_555 1_555
C1F C2F 1_555 1_555
H1F C1F 1_555 1_555
H2F C1F 1_555 1_555
H3F C1F 1_555 1_555
H4F C4F 1_555 1_555
H5F C4F 1_555 1_555
C6F C5F 1_555 1_555
H6F C6F 1_555 1_555
C7F C7 1_555 1_555
H7F C7F 1_555 1_555
O1F Ag1 1_555 1_555
N2F_2 Ag1 1_555 1_555
Ag1_2 N2F 1_555 1_555
N2 C3 1_555 1_555
C1 C2 1_555 1_555
N1F N2F 1_555 1_555
C6F C7F 1_555 1_555

#END
