
#######################################################################
#
#                 Cambridge Crystallographic Data Centre
#                                CCDC 
#
#######################################################################
#
# If this CIF has been generated from an entry in the Cambridge 
# Structural Database, then it will include bibliographic, chemical, 
# crystal, experimental, refinement or atomic coordinate data resulting 
# from the CCDC's data processing and validation procedures.
#
#######################################################################

data_PAHSIB
_symmetry_cell_setting           triclinic
_symmetry_space_group_name_H-M   'P -1'
_symmetry_Int_Tables_number      2
_space_group_name_Hall           '-P 1'
loop_
_symmetry_equiv_pos_site_id
_symmetry_equiv_pos_as_xyz
1 x,y,z
2 -x,-y,-z
_cell_length_a                   9.8343(13)
_cell_length_b                   10.4632(14)
_cell_length_c                   14.3210(19)
_cell_angle_alpha                72.070(2)
_cell_angle_beta                 89.900(2)
_cell_angle_gamma                80.651(2)
_cell_volume                     1381.59
loop_
_atom_site_label
_atom_site_type_symbol
_atom_site_fract_x
_atom_site_fract_y
_atom_site_fract_z
Cu1 Cu 0.23190(11) 0.01432(11) 0.06983(8)
Cu2 Cu 0.23268(11) 0.01758(11) -0.43442(8)
V1 V 0.03175(15) -0.12069(16) -0.22687(11)
P1 P 0.0625(2) -0.1882(2) 0.00838(17)
P2 P 0.0343(2) -0.1911(2) -0.43429(17)
O1 O 0.1122(6) -0.1447(6) -0.0944(4)
O2 O 0.1479(6) -0.1419(6) 0.0767(4)
O3 O 0.1006(6) -0.3483(6) 0.0487(5)
H1 H 0.031(2) -0.3789(15) 0.074(5)
O4 O -0.0910(5) -0.1477(6) 0.0139(4)
O5 O -0.0205(6) -0.1752(6) -0.3391(4)
O6 O 0.1522(6) -0.1172(6) -0.4704(4)
O7 O 0.0938(6) -0.3513(6) -0.4090(4)
H2 H 0.113(8) -0.364(2) -0.4614(14)
O8 O -0.0811(6) -0.1637(6) -0.5124(4)
O13 O -0.0136(6) -0.3273(6) -0.1528(4)
O14 O 0.1937(6) -0.3278(7) -0.1988(5)
O15 O 0.1278(7) -0.5213(7) -0.1215(5)
O16 O -0.1138(6) -0.0292(6) -0.2165(4)
O17 O 0.1342(6) -0.0153(6) -0.2843(4)
N1 N 0.4170(7) -0.1051(7) 0.1153(5)
N2 N 0.3409(7) 0.1513(7) 0.0804(5)
N3 N 0.4109(7) -0.1119(7) -0.3847(5)
N4 N 0.3517(7) 0.1535(7) -0.4206(5)
N5 N 0.1038(8) -0.3960(9) -0.1570(6)
C1 C 0.4493(9) -0.2377(9) 0.1296(6)
H6 H 0.3811 -0.2840 0.1184
C2 C 0.5790(10) -0.3095(10) 0.1603(7)
H7 H 0.5976 -0.4029 0.1703
C3 C 0.6808(9) -0.2429(10) 0.1762(7)
H8 H 0.7694 -0.2902 0.1975
C4 C 0.6506(9) -0.1077(10) 0.1605(7)
H9 H 0.7186 -0.0600 0.1700
C5 C 0.5181(9) -0.0403(9) 0.1302(6)
C6 C 0.4730(8) 0.1061(9) 0.1114(6)
C7 C 0.5569(10) 0.1934(10) 0.1213(7)
H10 H 0.6494 0.1606 0.1410
C8 C 0.5053(10) 0.3300(10) 0.1025(7)
H11 H 0.5626 0.3893 0.1096
C9 C 0.3698(10) 0.3774(10) 0.0734(7)
H12 H 0.3314 0.4686 0.0617
C10 C 0.2912(9) 0.2832(10) 0.0620(6)
H13 H 0.1991 0.3142 0.0403
C11 C 0.4298(10) -0.2486(10) -0.3684(7)
H14 H 0.3554 -0.2875 -0.3799
C12 C 0.5566(10) -0.3332(11) -0.3351(7)
H15 H 0.5678 -0.4268 -0.3234
C13 C 0.6642(11) -0.2711(11) -0.3203(7)
H16 H 0.7509 -0.3235 -0.2995
C14 C 0.6451(10) -0.1293(11) -0.3362(7)
H17 H 0.7184 -0.0889 -0.3249
C15 C 0.5173(9) -0.0509(10) -0.3687(6)
C16 C 0.4841(9) 0.0995(9) -0.3865(6)
C17 C 0.5735(9) 0.1812(11) -0.3731(7)
H18 H 0.6636 0.1427 -0.3493
C18 C 0.5315(10) 0.3168(10) -0.3940(7)
H19 H 0.5920 0.3727 -0.3859
C19 C 0.4011(10) 0.3688(10) -0.4266(7)
H20 H 0.3698 0.4618 -0.4403
C20 C 0.3140(10) 0.2881(9) -0.4398(6)
H21 H 0.2239 0.3276 -0.4633
O4A O 0.0910(5) 0.1477(6) -0.0139(4)
O8A O 0.0811(6) 0.1637(6) -0.4876(4)
O16A O 0.1138(6) 0.0292(6) 0.2165(4)
Cu1A Cu -0.23190(11) -0.01432(11) -0.06983(8)
Cu2A Cu -0.23268(11) -0.01758(11) -0.56558(8)
V1A V -0.03175(15) 0.12069(16) 0.22687(11)
P3 P 0.0903(3) -0.3629(3) 0.33084(18)
O9 O -0.0455(6) -0.2603(7) 0.3121(6)
H3 H -0.034(2) -0.184(3) 0.310(7)
O10 O 0.1502(7) -0.4112(6) 0.4324(4)
O11 O 0.0526(7) -0.4767(7) 0.2948(5)
H4 H 0.001(8) -0.521(6) 0.332(4)
O12 O 0.1983(6) -0.3022(7) 0.2599(5)
H5 H 0.164(2) -0.236(6) 0.215(4)
loop_
_geom_bond_atom_site_label_1
_geom_bond_atom_site_label_2
_geom_bond_site_symmetry_1
_geom_bond_site_symmetry_2
Cu1 O2 1_555 1_555
Cu2 O6 1_555 1_555
V1 O1 1_555 1_555
P1 O1 1_555 1_555
P2 O5 1_555 1_555
P3 O9 1_555 1_555
O2 P1 1_555 1_555
O3 P1 1_555 1_555
H1 O3 1_555 1_555
O4 P1 1_555 1_555
O5 V1 1_555 1_555
O6 P2 1_555 1_555
O7 P2 1_555 1_555
H2 O7 1_555 1_555
O8 P2 1_555 1_555
O9 H3 1_555 1_555
O10 P3 1_555 1_555
O11 P3 1_555 1_555
H4 O11 1_555 1_555
O12 P3 1_555 1_555
H5 O12 1_555 1_555
O13 V1 1_555 1_555
O14 V1 1_555 1_555
O15 N5 1_555 1_555
O16 V1 1_555 1_555
O17 Cu2 1_555 1_555
N1 Cu1 1_555 1_555
N2 Cu1 1_555 1_555
N3 Cu2 1_555 1_555
N4 Cu2 1_555 1_555
N5 O13 1_555 1_555
C1 N1 1_555 1_555
H6 C1 1_555 1_555
C2 C1 1_555 1_555
H7 C2 1_555 1_555
C3 C2 1_555 1_555
H8 C3 1_555 1_555
C4 C3 1_555 1_555
H9 C4 1_555 1_555
C5 N1 1_555 1_555
C6 N2 1_555 1_555
C7 C6 1_555 1_555
H10 C7 1_555 1_555
C8 C7 1_555 1_555
H11 C8 1_555 1_555
C9 C8 1_555 1_555
H12 C9 1_555 1_555
C10 N2 1_555 1_555
H13 C10 1_555 1_555
C11 N3 1_555 1_555
H14 C11 1_555 1_555
C12 C11 1_555 1_555
H15 C12 1_555 1_555
C13 C12 1_555 1_555
H16 C13 1_555 1_555
C14 C13 1_555 1_555
H17 C14 1_555 1_555
C15 N3 1_555 1_555
C16 N4 1_555 1_555
C17 C16 1_555 1_555
H18 C17 1_555 1_555
C18 C17 1_555 1_555
H19 C18 1_555 1_555
C19 C18 1_555 1_555
H20 C19 1_555 1_555
C20 N4 1_555 1_555
H21 C20 1_555 1_555
O4A Cu1 1_555 1_555
O8A Cu2 1_555 1_555
O16A Cu1 1_555 1_555
Cu1A O4 1_555 1_555
Cu2A O8 1_555 1_555
V1A O16A 1_555 1_555
V1 O17 1_555 1_555
O14 N5 1_555 1_555
O16 Cu1A 1_555 1_555
C4 C5 1_555 1_555
C5 C6 1_555 1_555
C9 C10 1_555 1_555
C14 C15 1_555 1_555
C15 C16 1_555 1_555
C19 C20 1_555 1_555

#END
