
#######################################################################
#
#                 Cambridge Crystallographic Data Centre
#                                CCDC 
#
#######################################################################
#
# If this CIF has been generated from an entry in the Cambridge 
# Structural Database, then it will include bibliographic, chemical, 
# crystal, experimental, refinement or atomic coordinate data resulting 
# from the CCDC's data processing and validation procedures.
#
#######################################################################

data_PAHSOI
_symmetry_cell_setting           monoclinic
_symmetry_space_group_name_H-M   'P 21/c'
_symmetry_Int_Tables_number      14
_space_group_name_Hall           '-P 2ybc'
loop_
_symmetry_equiv_pos_site_id
_symmetry_equiv_pos_as_xyz
1 x,y,z
2 -x,1/2+y,1/2-z
3 -x,-y,-z
4 x,1/2-y,1/2+z
_cell_length_a                   11.4138(19)
_cell_length_b                   16.700(3)
_cell_length_c                   17.580(3)
_cell_angle_alpha                90
_cell_angle_beta                 97.639(3)
_cell_angle_gamma                90
_cell_volume                     3321.19
loop_
_atom_site_label
_atom_site_type_symbol
_atom_site_fract_x
_atom_site_fract_y
_atom_site_fract_z
Pd1 Pd 0.13141(2) 0.007396(17) 0.004024(17)
Pd2 Pd 0.36919(2) 0.005575(17) -0.002335(17)
N1 N 0.3737(2) -0.10646(19) -0.04403(19)
N2 N 0.1352(3) -0.08304(19) 0.08010(18)
C1 C 0.0835(3) -0.1540(2) -0.0349(2)
C2 C 0.0586(4) -0.2252(3) -0.0743(3)
C3 C 0.1118(3) -0.1559(2) 0.0460(2)
C4 C 0.4018(3) -0.1622(2) 0.0114(2)
O1 O 0.3040(2) 0.06159(17) -0.11012(16)
C5 C 0.1600(3) -0.0790(3) 0.1559(2)
H1 H 0.1745 -0.0289 0.1798
O2 O 0.1283(2) 0.09371(17) -0.07792(17)
C6 C 0.2117(3) 0.1024(3) -0.1171(2)
C7 C 0.4431(4) -0.0169(3) 0.1685(2)
H2 H 0.4389 0.0387 0.1761
C8 C 0.1145(4) -0.2272(3) 0.0874(3)
O3 O 0.3681(2) 0.11543(16) 0.04751(17)
C9 C 0.1422(4) -0.2205(3) 0.1673(3)
H3 H 0.1452 -0.2668 0.1979
C10 C 0.0271(4) -0.1453(3) -0.1906(3)
H4 H 0.0061 -0.1421 -0.2441
C11 C 0.0601(4) -0.2974(3) -0.0323(4)
H5 H 0.0414 -0.3455 -0.0589
C12 C 0.4590(4) -0.1850(3) 0.1482(3)
C13 C 0.2816(3) 0.1372(3) 0.0819(3)
C14 C 0.4276(3) -0.1325(2) 0.0874(2)
C15 C 0.0878(4) -0.2996(3) 0.0452(4)
H6 H 0.0895 -0.3488 0.0711
C16 C 0.2941(4) 0.2176(3) 0.1216(4)
H7 H 0.3758 0.2257 0.1434
H8 H 0.2442 0.2191 0.1621
H9 H 0.2703 0.2597 0.0846
C17 C 0.4091(4) -0.2446(3) -0.0043(3)
C18 C 0.1648(4) -0.1483(3) 0.2007(3)
H10 H 0.1837 -0.1448 0.2543
C19 C 0.3535(4) -0.2107(3) -0.1366(3)
H11 H 0.3351 -0.2264 -0.1881
C20 C 0.0560(3) -0.0742(3) -0.1488(2)
H12 H 0.0561 -0.0245 -0.1740
C21 C 0.0837(3) -0.0792(2) -0.0712(2)
C22 C 0.4205(3) -0.0487(2) 0.0961(2)
C23 C 0.0287(4) -0.2168(3) -0.1568(3)
H13 H 0.0100 -0.2627 -0.1870
C24 C 0.1952(5) 0.1663(4) -0.1777(4)
H14 H 0.2704 0.1919 -0.1816
H15 H 0.1394 0.2059 -0.1640
H16 H 0.1649 0.1424 -0.2267
C25 C 0.4726(4) -0.0686(3) 0.2312(3)
H17 H 0.4869 -0.0469 0.2809
C26 C 0.4658(4) -0.2670(3) 0.1309(3)
H18 H 0.4882 -0.3027 0.1716
C27 C 0.4420(4) -0.2972(3) 0.0598(4)
H19 H 0.4469 -0.3527 0.0518
C28 C 0.4813(4) -0.1497(4) 0.2220(3)
H20 H 0.5024 -0.1824 0.2652
C29 C 0.3833(4) -0.2676(3) -0.0815(3)
H21 H 0.3866 -0.3219 -0.0952
C30 C 0.3501(3) -0.1299(3) -0.1176(3)
H22 H 0.3311 -0.0915 -0.1564
O4 O 0.1891(2) 0.09737(17) 0.08704(17)
Pd1B Pd -0.13141(2) -0.007396(17) -0.004024(17)
Pd2B Pd 0.63081(2) -0.005575(17) 0.002335(17)
loop_
_geom_bond_atom_site_label_1
_geom_bond_atom_site_label_2
_geom_bond_site_symmetry_1
_geom_bond_site_symmetry_2
Pd1 Pd2 1_555 1_555
Pd2 N1 1_555 1_555
N1 C4 1_555 1_555
N2 Pd1 1_555 1_555
C1 C2 1_555 1_555
C2 C11 1_555 1_555
C3 N2 1_555 1_555
C4 C14 1_555 1_555
O1 Pd2 1_555 1_555
C5 N2 1_555 1_555
H1 C5 1_555 1_555
O2 Pd1 1_555 1_555
C6 O1 1_555 1_555
C7 H2 1_555 1_555
C8 C3 1_555 1_555
O3 Pd2 1_555 1_555
C9 C8 1_555 1_555
H3 C9 1_555 1_555
C10 H4 1_555 1_555
C11 H5 1_555 1_555
C12 C14 1_555 1_555
C13 O3 1_555 1_555
C14 C22 1_555 1_555
C15 C8 1_555 1_555
H6 C15 1_555 1_555
C16 C13 1_555 1_555
H7 C16 1_555 1_555
H8 C16 1_555 1_555
H9 C16 1_555 1_555
C17 C4 1_555 1_555
C18 C5 1_555 1_555
H10 C18 1_555 1_555
C19 H11 1_555 1_555
C20 C10 1_555 1_555
H12 C20 1_555 1_555
C21 Pd1 1_555 1_555
C22 Pd2 1_555 1_555
C23 C2 1_555 1_555
H13 C23 1_555 1_555
C24 C6 1_555 1_555
H14 C24 1_555 1_555
H15 C24 1_555 1_555
H16 C24 1_555 1_555
C25 C7 1_555 1_555
H17 C25 1_555 1_555
C26 C12 1_555 1_555
H18 C26 1_555 1_555
C27 C17 1_555 1_555
H19 C27 1_555 1_555
C28 C12 1_555 1_555
H20 C28 1_555 1_555
C29 C17 1_555 1_555
H21 C29 1_555 1_555
C30 N1 1_555 1_555
H22 C30 1_555 1_555
O4 Pd1 1_555 1_555
Pd1B Pd1 1_555 1_555
Pd2B Pd2 1_555 1_555
C1 C3 1_555 1_555
C1 C21 1_555 1_555
O2 C6 1_555 1_555
C7 C22 1_555 1_555
C9 C18 1_555 1_555
C10 C23 1_555 1_555
C11 C15 1_555 1_555
C13 O4 1_555 1_555
C19 C29 1_555 1_555
C19 C30 1_555 1_555
C20 C21 1_555 1_555
C25 C28 1_555 1_555
C26 C27 1_555 1_555

#END
