
#######################################################################
#
#                 Cambridge Crystallographic Data Centre
#                                CCDC 
#
#######################################################################
#
# If this CIF has been generated from an entry in the Cambridge 
# Structural Database, then it will include bibliographic, chemical, 
# crystal, experimental, refinement or atomic coordinate data resulting 
# from the CCDC's data processing and validation procedures.
#
#######################################################################

data_PAHSAT
_symmetry_cell_setting           triclinic
_symmetry_space_group_name_H-M   'P -1'
_symmetry_Int_Tables_number      2
_space_group_name_Hall           '-P 1'
loop_
_symmetry_equiv_pos_site_id
_symmetry_equiv_pos_as_xyz
1 x,y,z
2 -x,-y,-z
_cell_length_a                   10.5927(13)
_cell_length_b                   12.0359(15)
_cell_length_c                   12.1655(15)
_cell_angle_alpha                107.090(2)
_cell_angle_beta                 110.399(2)
_cell_angle_gamma                93.876(2)
_cell_volume                     1364.3
loop_
_atom_site_label
_atom_site_type_symbol
_atom_site_fract_x
_atom_site_fract_y
_atom_site_fract_z
Cu1 Cu -0.49668(6) -0.46008(6) -0.19268(5)
Cu2 Cu -0.46239(6) 0.04566(6) 0.32433(5)
V1 V -0.61902(8) -0.26064(8) 0.20562(8)
P1 P -0.68901(13) -0.48607(12) -0.04277(12)
P2 P -0.69191(13) -0.05126(13) 0.39950(12)
O1 O -0.6491(3) -0.3541(3) 0.0339(3)
O2 O -0.6385(3) -0.5137(3) -0.1470(3)
O3 O -0.8519(3) -0.5175(4) -0.1159(3)
H1 H -0.885(5) -0.540(5) -0.073(4)
O4 O -0.6537(3) -0.5610(3) 0.0388(3)
O5 O -0.6697(3) -0.1754(3) 0.3426(3)
O6 O -0.6049(3) 0.0439(3) 0.3861(3)
O7 O -0.8444(3) -0.0433(4) 0.3253(3)
H2 H -0.902(4) -0.097(3) 0.315(5)
O8 O -0.6781(3) -0.0296(3) 0.5327(3)
O9 O -0.8348(3) -0.3633(3) 0.1450(3)
O10 O -0.8222(4) -0.2110(3) 0.0899(3)
O11 O -1.0207(4) -0.3187(4) 0.0378(4)
N1 N -0.6332(4) -0.4173(4) -0.3305(3)
N2 N -0.3722(4) -0.4104(4) -0.2680(3)
N3 N -0.5802(4) 0.0919(4) 0.1825(3)
N4 N -0.3204(4) 0.0849(4) 0.2606(3)
N5 N -0.8958(5) -0.2981(4) 0.0892(4)
C1 C -0.7661(5) -0.4220(5) -0.3549(4)
H3 H -0.8039 -0.4534 -0.3095
C2 C -0.8505(5) -0.3825(5) -0.4446(5)
H4 H -0.9429 -0.3858 -0.4583
C3 C -0.7955(6) -0.3381(5) -0.5135(5)
H5 H -0.8505 -0.3115 -0.5751
C4 C -0.6579(6) -0.3334(5) -0.4901(5)
H6 H -0.6186 -0.3041 -0.5358
C5 C -0.5793(5) -0.3732(4) -0.3974(4)
C6 C -0.4308(5) -0.3708(5) -0.3635(4)
C7 C -0.3550(5) -0.3312(5) -0.4221(5)
H7 H -0.3961 -0.3023 -0.4864
C8 C -0.2175(6) -0.3357(5) -0.3828(5)
H8 H -0.1647 -0.3106 -0.4212
C9 C -0.1580(5) -0.3774(5) -0.2866(5)
H9 H -0.0652 -0.3810 -0.2593
C10 C -0.2391(6) -0.4136(5) -0.2320(5)
H10 H -0.1990 -0.4417 -0.1668
C11 C -0.7147(5) 0.0896(5) 0.1460(5)
H11 H -0.7617 0.0615 0.1872
C12 C -0.7870(6) 0.1274(5) 0.0494(5)
H12 H -0.8807 0.1258 0.0271
C13 C -0.7191(6) 0.1672(5) -0.0129(5)
H13 H -0.7661 0.1928 -0.0783
C14 C -0.5808(5) 0.1690(5) 0.0221(4)
H14 H -0.5329 0.1961 -0.0191
C15 C -0.5134(5) 0.1299(4) 0.1195(4)
C16 C -0.3651(5) 0.1256(4) 0.1645(4)
C17 C -0.2774(5) 0.1573(5) 0.1121(5)
H15 H -0.3096 0.1856 0.0460
C18 C -0.1426(6) 0.1464(5) 0.1590(5)
H16 H -0.0825 0.1675 0.1251
C19 C -0.0973(5) 0.1041(5) 0.2560(5)
H17 H -0.0065 0.0953 0.2882
C20 C -0.1883(5) 0.0751(5) 0.3047(5)
H18 H -0.1570 0.0473 0.3712
O12 O -0.4734(3) -0.6575(3) -0.2753(3)
O13 O -0.5128(3) -0.1511(3) 0.2158(3)
O4A O -0.3463(3) -0.4390(3) -0.0388(3)
O8A O -0.3219(3) 0.0296(3) 0.4673(3)
O12A O -0.5266(3) -0.3425(3) 0.2753(3)
Cu1A Cu -0.50332(6) -0.53992(6) 0.19268(5)
Cu2A Cu -0.53761(6) -0.04566(6) 0.67567(5)
V1A V -0.38098(8) -0.73936(8) -0.20562(8)
O14 O 0.2404(5) -0.7931(5) -0.3923(5)
H19 H 0.303(5) -0.753(4) -0.325(3)
H20 H 0.263(6) -0.858(3) -0.414(5)
O15 O 0.0369(5) -0.7826(4) -0.3052(5)
H21 H 0.088(5) -0.800(5) -0.343(5)
H22 H 0.063(6) -0.714(2) -0.259(5)
loop_
_geom_bond_atom_site_label_1
_geom_bond_atom_site_label_2
_geom_bond_site_symmetry_1
_geom_bond_site_symmetry_2
Cu1 O2 1_555 1_555
Cu2 O6 1_555 1_555
V1 O1 1_555 1_555
P1 O1 1_555 1_555
P2 O5 1_555 1_555
O2 P1 1_555 1_555
O3 P1 1_555 1_555
H1 O3 1_555 1_555
O4 P1 1_555 1_555
O5 V1 1_555 1_555
O6 P2 1_555 1_555
O7 P2 1_555 1_555
H2 O7 1_555 1_555
O8 P2 1_555 1_555
O9 V1 1_555 1_555
O10 V1 1_555 1_555
O11 N5 1_555 1_555
N1 Cu1 1_555 1_555
N2 Cu1 1_555 1_555
N3 Cu2 1_555 1_555
N4 Cu2 1_555 1_555
N5 O9 1_555 1_555
C1 N1 1_555 1_555
H3 C1 1_555 1_555
C2 C1 1_555 1_555
H4 C2 1_555 1_555
C3 C2 1_555 1_555
H5 C3 1_555 1_555
C4 C3 1_555 1_555
H6 C4 1_555 1_555
C5 N1 1_555 1_555
C6 N2 1_555 1_555
C7 C6 1_555 1_555
H7 C7 1_555 1_555
C8 C7 1_555 1_555
H8 C8 1_555 1_555
C9 C8 1_555 1_555
H9 C9 1_555 1_555
C10 N2 1_555 1_555
H10 C10 1_555 1_555
C11 N3 1_555 1_555
H11 C11 1_555 1_555
C12 C11 1_555 1_555
H12 C12 1_555 1_555
C13 C12 1_555 1_555
H13 C13 1_555 1_555
C14 C13 1_555 1_555
H14 C14 1_555 1_555
C15 N3 1_555 1_555
C16 N4 1_555 1_555
C17 C16 1_555 1_555
H15 C17 1_555 1_555
C18 C17 1_555 1_555
H16 C18 1_555 1_555
C19 C18 1_555 1_555
H17 C19 1_555 1_555
C20 N4 1_555 1_555
H18 C20 1_555 1_555
O12 Cu1 1_555 1_555
O13 Cu2 1_555 1_555
O14 H19 1_555 1_555
H20 O14 1_555 1_555
O15 H21 1_555 1_555
H22 O15 1_555 1_555
O4A Cu1 1_555 1_555
O8A Cu2 1_555 1_555
O12A V1 1_555 1_555
Cu1A O4 1_555 1_555
Cu2A O8 1_555 1_555
V1A O12 1_555 1_555
V1 O13 1_555 1_555
O10 N5 1_555 1_555
C4 C5 1_555 1_555
C5 C6 1_555 1_555
C9 C10 1_555 1_555
C14 C15 1_555 1_555
C15 C16 1_555 1_555
C19 C20 1_555 1_555
O12A Cu1A 1_555 1_555

#END
