
#######################################################################
#
#                 Cambridge Crystallographic Data Centre
#                                CCDC 
#
#######################################################################
#
# If this CIF has been generated from an entry in the Cambridge 
# Structural Database, then it will include bibliographic, chemical, 
# crystal, experimental, refinement or atomic coordinate data resulting 
# from the CCDC's data processing and validation procedures.
#
#######################################################################

data_PAHSOI04
_symmetry_cell_setting           monoclinic
_symmetry_space_group_name_H-M   'P 21/c'
_symmetry_Int_Tables_number      14
_space_group_name_Hall           '-P 2ybc'
loop_
_symmetry_equiv_pos_site_id
_symmetry_equiv_pos_as_xyz
1 x,y,z
2 -x,1/2+y,1/2-z
3 -x,-y,-z
4 x,1/2-y,1/2+z
_cell_length_a                   11.3819(5)
_cell_length_b                   16.6013(7)
_cell_length_c                   17.4899(7)
_cell_angle_alpha                90
_cell_angle_beta                 97.441(1)
_cell_angle_gamma                90
_cell_volume                     3276.96
loop_
_atom_site_label
_atom_site_type_symbol
_atom_site_fract_x
_atom_site_fract_y
_atom_site_fract_z
Pd1 Pd 0.368606(16) 0.008259(12) -0.005000(11)
Pd2 Pd 0.130984(16) 0.006399(12) 0.002586(11)
N1 N 0.36455(18) -0.08260(13) -0.08135(13)
N2 N 0.12615(18) -0.10681(13) 0.04383(13)
O1 O 0.13310(16) 0.11739(11) -0.04632(12)
O2 O 0.37250(16) 0.09534(12) 0.07677(12)
C1 C 0.4157(2) -0.15408(16) 0.03361(16)
C2 C 0.0971(2) -0.16283(16) -0.01261(16)
O3 O 0.19639(16) 0.06242(12) 0.11130(11)
C3 C 0.2883(2) 0.10338(18) 0.11715(17)
C4 C 0.0719(2) -0.13209(17) -0.08792(16)
C5 C 0.0794(2) -0.04731(16) -0.09701(15)
C6 C 0.0904(2) -0.24610(17) 0.00319(18)
C7 C 0.0571(2) -0.01510(19) -0.16991(16)
H1 H 0.0616 0.0414 -0.1777
C8 C 0.3387(2) -0.07878(18) -0.15798(15)
H2 H 0.3236 -0.0279 -0.1820
C9 C 0.1463(3) -0.21245(19) 0.13648(19)
H3 H 0.1651 -0.2284 0.1888
C10 C 0.4430(3) -0.22602(18) 0.07427(18)
C11 C 0.4156(2) -0.07852(17) 0.07033(16)
C12 C 0.0184(3) -0.1490(2) -0.22378(19)
H4 H -0.0031 -0.1822 -0.2676
C13 C 0.3562(3) -0.22195(19) -0.16970(18)
H5 H 0.3532 -0.2691 -0.2006
C14 C 0.3840(2) -0.22784(17) -0.08946(18)
C15 C 0.4722(3) -0.1457(2) 0.19067(19)
H6 H 0.4929 -0.1425 0.2450
C16 C 0.0276(2) -0.0674(2) -0.23284(17)
H7 H 0.0136 -0.0453 -0.2833
C17 C 0.3871(2) -0.15674(16) -0.04735(16)
O4 O 0.31031(17) 0.09912(11) -0.08843(12)
C18 C 0.3333(3) -0.14837(19) -0.20345(17)
H8 H 0.3138 -0.1445 -0.2578
C19 C 0.2186(2) 0.13933(17) -0.08288(17)
C20 C 0.0405(2) -0.18363(19) -0.15040(18)
C21 C 0.4433(2) -0.07463(19) 0.14817(16)
H9 H 0.4431 -0.0242 0.1739
C22 C 0.4711(3) -0.2191(2) 0.15539(19)
H10 H 0.4893 -0.2662 0.1855
C23 C 0.2057(3) 0.2198(2) -0.1211(2)
H11 H 0.1283 0.2428 -0.1146
H12 H 0.2119 0.2138 -0.1762
H13 H 0.2686 0.2558 -0.0976
C24 C 0.4398(3) -0.29939(19) 0.0320(2)
H14 H 0.4569 -0.3486 0.0590
C25 C 0.1500(2) -0.13102(18) 0.11678(17)
H15 H 0.1699 -0.0922 0.1562
C26 C 0.1155(3) -0.26976(19) 0.0803(2)
H16 H 0.1113 -0.3250 0.0940
C27 C 0.3044(3) 0.1696(3) 0.1762(2)
H17 H 0.3178 0.1460 0.2280
H18 H 0.2331 0.2033 0.1716
H19 H 0.3728 0.2027 0.1677
C28 C 0.4126(3) -0.30084(18) -0.0470(2)
H20 H 0.4126 -0.3507 -0.0738
C29 C 0.0343(3) -0.2681(2) -0.1333(2)
H21 H 0.0130 -0.3047 -0.1746
C30 C 0.0575(3) -0.29763(19) -0.0614(2)
H22 H 0.0518 -0.3540 -0.0533
Pd1B Pd 0.631394(16) -0.008259(12) 0.005000(11)
Pd2B Pd -0.130984(16) -0.006399(12) -0.002586(11)
loop_
_geom_bond_atom_site_label_1
_geom_bond_atom_site_label_2
_geom_bond_site_symmetry_1
_geom_bond_site_symmetry_2
Pd1 Pd2 1_555 1_555
Pd2 N2 1_555 1_555
N1 Pd1 1_555 1_555
N2 C2 1_555 1_555
O1 Pd2 1_555 1_555
O2 Pd1 1_555 1_555
C1 C10 1_555 1_555
C2 C4 1_555 1_555
O3 Pd2 1_555 1_555
C3 O2 1_555 1_555
C4 C5 1_555 1_555
C5 Pd2 1_555 1_555
C6 C2 1_555 1_555
C7 C5 1_555 1_555
H1 C7 1_555 1_555
C8 N1 1_555 1_555
H2 C8 1_555 1_555
C9 H3 1_555 1_555
C10 C22 1_555 1_555
C11 Pd1 1_555 1_555
C12 H4 1_555 1_555
C13 H5 1_555 1_555
C14 C13 1_555 1_555
C15 H6 1_555 1_555
C16 C7 1_555 1_555
H7 C16 1_555 1_555
C17 N1 1_555 1_555
O4 Pd1 1_555 1_555
C18 C8 1_555 1_555
H8 C18 1_555 1_555
C19 O1 1_555 1_555
C20 C4 1_555 1_555
C21 C11 1_555 1_555
H9 C21 1_555 1_555
C22 C15 1_555 1_555
H10 C22 1_555 1_555
C23 C19 1_555 1_555
H11 C23 1_555 1_555
H12 C23 1_555 1_555
H13 C23 1_555 1_555
C24 C10 1_555 1_555
H14 C24 1_555 1_555
C25 N2 1_555 1_555
H15 C25 1_555 1_555
C26 C6 1_555 1_555
H16 C26 1_555 1_555
C27 C3 1_555 1_555
H17 C27 1_555 1_555
H18 C27 1_555 1_555
H19 C27 1_555 1_555
C28 C14 1_555 1_555
H20 C28 1_555 1_555
C29 C20 1_555 1_555
H21 C29 1_555 1_555
C30 C6 1_555 1_555
H22 C30 1_555 1_555
Pd1B Pd1 1_555 1_555
Pd2B Pd2 1_555 1_555
C1 C11 1_555 1_555
C1 C17 1_555 1_555
O3 C3 1_555 1_555
C9 C25 1_555 1_555
C9 C26 1_555 1_555
C12 C16 1_555 1_555
C12 C20 1_555 1_555
C13 C18 1_555 1_555
C14 C17 1_555 1_555
C15 C21 1_555 1_555
O4 C19 1_555 1_555
C24 C28 1_555 1_555
C29 C30 1_555 1_555

#END
