
#######################################################################
#
#                 Cambridge Crystallographic Data Centre
#                                CCDC 
#
#######################################################################
#
# If this CIF has been generated from an entry in the Cambridge 
# Structural Database, then it will include bibliographic, chemical, 
# crystal, experimental, refinement or atomic coordinate data resulting 
# from the CCDC's data processing and validation procedures.
#
#######################################################################

data_PAHSOI03
_symmetry_cell_setting           monoclinic
_symmetry_space_group_name_H-M   'P 21/c'
_symmetry_Int_Tables_number      14
_space_group_name_Hall           '-P 2ybc'
loop_
_symmetry_equiv_pos_site_id
_symmetry_equiv_pos_as_xyz
1 x,y,z
2 -x,1/2+y,1/2-z
3 -x,-y,-z
4 x,1/2-y,1/2+z
_cell_length_a                   11.3622(14)
_cell_length_b                   16.569(2)
_cell_length_c                   17.444(2)
_cell_angle_alpha                90
_cell_angle_beta                 97.382(2)
_cell_angle_gamma                90
_cell_volume                     3256.79
loop_
_atom_site_label
_atom_site_type_symbol
_atom_site_fract_x
_atom_site_fract_y
_atom_site_fract_z
Pd1 Pd 0.631338(19) 0.508576(14) 0.005350(13)
Pd2 Pd 0.868982(19) 0.506675(14) -0.002672(13)
O1 O 0.86703(18) 0.61820(13) 0.04614(13)
O2 O 0.62774(19) 0.59593(13) -0.07655(14)
O3 O 0.80307(19) 0.56271(14) -0.11193(12)
O4 O 0.68914(19) 0.59941(13) 0.08870(13)
N1 N 0.8738(2) 0.39306(15) -0.04353(15)
N2 N 0.6360(2) 0.41763(16) 0.08227(15)
C1 C 0.5848(3) 0.34569(19) -0.03349(18)
C2 C 0.5573(3) 0.2735(2) -0.0744(2)
C3 C 0.9432(3) 0.4855(2) 0.16991(19)
H1 H 0.9383 0.5421 0.1772
C4 C 0.5841(3) 0.4218(2) -0.07020(18)
C5 C 0.9289(3) 0.36758(19) 0.08867(18)
C6 C 0.9212(3) 0.45267(19) 0.09740(17)
C7 C 0.6134(2) 0.34335(18) 0.04820(18)
C8 C 0.7813(3) 0.63995(19) 0.08293(19)
C9 C 0.6611(3) 0.4211(2) 0.15843(17)
H2 H 0.6750 0.4723 0.1826
C10 C 0.6451(3) 0.2781(2) 0.1706(2)
H3 H 0.6488 0.2309 0.2018
C11 C 0.7112(3) 0.6043(2) -0.1170(2)
C12 C 0.9101(3) 0.2536(2) -0.0029(2)
C13 C 0.9031(3) 0.33705(19) 0.01282(18)
C14 C 0.6161(3) 0.2716(2) 0.0892(2)
C15 C 0.5575(3) 0.4256(2) -0.14852(19)
H4 H 0.5589 0.4760 -0.1744
C16 C 0.6676(3) 0.3516(2) 0.2043(2)
H5 H 0.6876 0.3557 0.2588
C17 C 0.9599(3) 0.3163(2) 0.1515(2)
C18 C 0.8544(3) 0.2872(2) -0.1362(2)
H6 H 0.8371 0.2713 -0.1888
C19 C 0.9822(3) 0.3525(2) 0.2254(2)
H7 H 1.0036 0.3197 0.2697
C20 C 0.5880(3) 0.1984(2) 0.0475(2)
H8 H 0.5889 0.1485 0.0744
C21 C 0.5276(3) 0.3539(2) -0.1912(2)
H9 H 0.5067 0.3570 -0.2457
C22 C 0.9734(3) 0.4334(2) 0.2337(2)
H10 H 0.9880 0.4560 0.2840
C23 C 0.5283(3) 0.2805(2) -0.1555(2)
H11 H 0.5090 0.2334 -0.1855
C24 C 0.5596(3) 0.2000(2) -0.0315(2)
H12 H 0.5410 0.1508 -0.0584
C25 C 0.8491(3) 0.3683(2) -0.11685(19)
H13 H 0.8276 0.4070 -0.1564
C26 C 0.9667(3) 0.2314(2) 0.1343(2)
H14 H 0.9884 0.1948 0.1756
C27 C 0.9436(3) 0.2018(2) 0.0618(2)
H15 H 0.9496 0.1453 0.0537
C28 C 0.8844(3) 0.2294(2) -0.0801(2)
H16 H 0.8875 0.1740 -0.0936
C29 C 0.7946(4) 0.7208(2) 0.1212(3)
H17 H 0.8575 0.7512 0.1005
H18 H 0.8156 0.7136 0.1771
H19 H 0.7197 0.7505 0.1111
C30 C 0.6955(4) 0.6703(3) -0.1764(3)
H20 H 0.7067 0.6482 -0.2271
H21 H 0.7541 0.7129 -0.1623
H22 H 0.6154 0.6929 -0.1787
Pd1B Pd 0.368662(19) 0.491424(14) -0.005350(13)
Pd2B Pd 1.131018(19) 0.493325(14) 0.002672(13)
loop_
_geom_bond_atom_site_label_1
_geom_bond_atom_site_label_2
_geom_bond_site_symmetry_1
_geom_bond_site_symmetry_2
Pd1 Pd2 1_555 1_555
Pd2 O1 1_555 1_555
O1 C8 1_555 1_555
O2 Pd1 1_555 1_555
O3 Pd2 1_555 1_555
O4 Pd1 1_555 1_555
N1 Pd2 1_555 1_555
N2 Pd1 1_555 1_555
C1 C2 1_555 1_555
C2 C23 1_555 1_555
C3 H1 1_555 1_555
C4 Pd1 1_555 1_555
C5 C6 1_555 1_555
C6 Pd2 1_555 1_555
C7 N2 1_555 1_555
C8 O4 1_555 1_555
C9 N2 1_555 1_555
H2 C9 1_555 1_555
C10 H3 1_555 1_555
C11 O2 1_555 1_555
C12 C13 1_555 1_555
C13 N1 1_555 1_555
C14 C7 1_555 1_555
C15 C4 1_555 1_555
H4 C15 1_555 1_555
C16 C9 1_555 1_555
H5 C16 1_555 1_555
C17 C5 1_555 1_555
C18 H6 1_555 1_555
C19 C17 1_555 1_555
H7 C19 1_555 1_555
C20 C14 1_555 1_555
H8 C20 1_555 1_555
C21 C15 1_555 1_555
H9 C21 1_555 1_555
C22 C3 1_555 1_555
H10 C22 1_555 1_555
C23 C21 1_555 1_555
H11 C23 1_555 1_555
C24 C2 1_555 1_555
H12 C24 1_555 1_555
C25 N1 1_555 1_555
H13 C25 1_555 1_555
C26 C17 1_555 1_555
H14 C26 1_555 1_555
C27 C12 1_555 1_555
H15 C27 1_555 1_555
C28 C12 1_555 1_555
H16 C28 1_555 1_555
C29 C8 1_555 1_555
H17 C29 1_555 1_555
H18 C29 1_555 1_555
H19 C29 1_555 1_555
C30 C11 1_555 1_555
H20 C30 1_555 1_555
H21 C30 1_555 1_555
H22 C30 1_555 1_555
Pd1B Pd1 1_555 1_555
Pd2B Pd2 1_555 1_555
O3 C11 1_555 1_555
C1 C4 1_555 1_555
C1 C7 1_555 1_555
C3 C6 1_555 1_555
C5 C13 1_555 1_555
C10 C14 1_555 1_555
C10 C16 1_555 1_555
C18 C25 1_555 1_555
C18 C28 1_555 1_555
C19 C22 1_555 1_555
C20 C24 1_555 1_555
C26 C27 1_555 1_555

#END
