
#######################################################################
#
#                 Cambridge Crystallographic Data Centre
#                                CCDC 
#
#######################################################################
#
# If this CIF has been generated from an entry in the Cambridge 
# Structural Database, then it will include bibliographic, chemical, 
# crystal, experimental, refinement or atomic coordinate data resulting 
# from the CCDC's data processing and validation procedures.
#
#######################################################################

data_PAHTAU
_symmetry_cell_setting           triclinic
_symmetry_space_group_name_H-M   'P -1'
_symmetry_Int_Tables_number      2
_space_group_name_Hall           '-P 1'
loop_
_symmetry_equiv_pos_site_id
_symmetry_equiv_pos_as_xyz
1 x,y,z
2 -x,-y,-z
_cell_length_a                   6.4860(13)
_cell_length_b                   9.2530(19)
_cell_length_c                   10.621(2)
_cell_angle_alpha                76.58(3)
_cell_angle_beta                 83.52(3)
_cell_angle_gamma                83.50(3)
_cell_volume                     613.551
loop_
_atom_site_label
_atom_site_type_symbol
_atom_site_fract_x
_atom_site_fract_y
_atom_site_fract_z
Cd1 Cd 0.70305(6) 0.35914(5) 0.68567(4)
S1 S 0.4077(2) 0.53823(16) 0.74780(14)
S2 S 0.2125(2) 0.46289(15) 0.64365(12)
O1 O 0.3147(7) 0.3260(5) 0.6123(5)
O2 O 0.1755(6) 0.5804(4) 0.5283(4)
O3 O 0.0169(6) 0.4379(5) 0.7259(4)
N1 N 0.7388(7) 0.1213(5) 0.6481(4)
N2 N 0.7269(7) 0.1858(5) 0.8874(4)
C1 C 0.7322(9) 0.0904(7) 0.5325(6)
H1 H 0.7121 0.1690 0.4611
C2 C 0.7540(9) -0.0545(7) 0.5140(6)
H2 H 0.7453 -0.0716 0.4320
C3 C 0.7882(9) -0.1719(7) 0.6168(6)
H3 H 0.8086 -0.2690 0.6046
C4 C 0.7920(8) -0.1437(6) 0.7423(5)
C5 C 0.8143(9) -0.2597(6) 0.8570(6)
H4 H 0.8386 -0.3584 0.8495
C6 C 0.8008(8) -0.2283(6) 0.9751(6)
H5 H 0.8120 -0.3057 1.0482
C7 C 0.7697(8) -0.0780(6) 0.9897(5)
C8 C 0.7498(8) -0.0385(7) 1.1115(6)
H6 H 0.7587 -0.1127 1.1872
C9 C 0.7174(8) 0.1085(7) 1.1191(5)
H7 H 0.7009 0.1347 1.1993
C10 C 0.7097(8) 0.2176(7) 1.0043(6)
H8 H 0.6917 0.3173 1.0096
C11 C 0.7551(7) 0.0409(6) 0.8793(5)
C12 C 0.7644(8) 0.0069(6) 0.7535(5)
O2A O 0.8245(6) 0.4196(4) 0.4717(4)
O3_2 O 1.0169(6) 0.4379(5) 0.7259(4)
Cd1A Cd 0.29695(6) 0.64086(5) 0.31433(4)
Cd1_2 Cd -0.29695(6) 0.35914(5) 0.68567(4)
loop_
_geom_bond_atom_site_label_1
_geom_bond_atom_site_label_2
_geom_bond_site_symmetry_1
_geom_bond_site_symmetry_2
Cd1 S1 1_555 1_555
S1 S2 1_555 1_555
S2 O1 1_555 1_555
O1 Cd1 1_555 1_555
O2 S2 1_555 1_555
O3 S2 1_555 1_555
N1 Cd1 1_555 1_555
N2 Cd1 1_555 1_555
C1 N1 1_555 1_555
H1 C1 1_555 1_555
C2 C1 1_555 1_555
H2 C2 1_555 1_555
C3 C2 1_555 1_555
H3 C3 1_555 1_555
C4 C3 1_555 1_555
C5 C4 1_555 1_555
H4 C5 1_555 1_555
C6 C5 1_555 1_555
H5 C6 1_555 1_555
C7 C6 1_555 1_555
C8 C7 1_555 1_555
H6 C8 1_555 1_555
C9 C8 1_555 1_555
H7 C9 1_555 1_555
C10 N2 1_555 1_555
H8 C10 1_555 1_555
C11 N2 1_555 1_555
C12 N1 1_555 1_555
O2A Cd1 1_555 1_555
O3_2 Cd1 1_555 1_555
Cd1A O2 1_555 1_555
Cd1_2 O3 1_555 1_555
C4 C12 1_555 1_555
C7 C11 1_555 1_555
C9 C10 1_555 1_555
C11 C12 1_555 1_555

#END
