
#######################################################################
#
#                 Cambridge Crystallographic Data Centre
#                                CCDC 
#
#######################################################################
#
# If this CIF has been generated from an entry in the Cambridge 
# Structural Database, then it will include bibliographic, chemical, 
# crystal, experimental, refinement or atomic coordinate data resulting 
# from the CCDC's data processing and validation procedures.
#
#######################################################################

data_PAHTIC
_symmetry_cell_setting           monoclinic
_symmetry_space_group_name_H-M   'C 2/c'
_symmetry_Int_Tables_number      15
_space_group_name_Hall           '-C 2yn'
loop_
_symmetry_equiv_pos_site_id
_symmetry_equiv_pos_as_xyz
1 x,y,z
2 1/2+x,1/2+y,z
3 x,-y,1/2+z
4 1/2+x,1/2-y,1/2+z
5 -x,-y,-z
6 1/2-x,1/2-y,-z
7 -x,y,1/2-z
8 1/2-x,1/2+y,1/2-z
_cell_length_a                   24.309(10)
_cell_length_b                   10.161(4)
_cell_length_c                   9.326(4)
_cell_angle_alpha                90
_cell_angle_beta                 100.677(7)
_cell_angle_gamma                90
_cell_volume                     2263.68
loop_
_atom_site_label
_atom_site_type_symbol
_atom_site_fract_x
_atom_site_fract_y
_atom_site_fract_z
Mn1 Mn 0.0000 1.02748(6) 0.2500
N1 N 0.08919(9) 1.0167(2) 0.1954(2)
H1 H 0.0980 0.9307 0.1943
H2 H 0.0862 1.0456 0.1030
O1 O -0.02209(7) 0.87500(16) 0.08064(18)
O2 O 0.02422(8) 0.82012(17) -0.0958(2)
C1 C 0.01373(11) 0.8068(3) 0.0298(3)
C2 C 0.04916(12) 0.7112(2) 0.1287(3)
C3 C 0.03001(12) 0.6489(2) 0.2438(3)
C4 C 0.06742(15) 0.5777(3) 0.3431(3)
H3 H 0.0548 0.5349 0.4191
C5 C 0.12285(16) 0.5684(3) 0.3326(4)
H4 H 0.1476 0.5230 0.4034
C6 C 0.14186(14) 0.6264(3) 0.2174(4)
H5 H 0.1792 0.6186 0.2085
C7 C 0.10477(12) 0.6961(3) 0.1157(3)
H6 H 0.1173 0.7338 0.0367
C8 C 0.13668(11) 1.0814(3) 0.2784(3)
C9 C 0.16671(12) 1.0233(3) 0.4007(3)
H7 H 0.1575 0.9387 0.4261
C10 C 0.21072(12) 1.0890(3) 0.4872(3)
H8 H 0.2300 1.0480 0.5708
C11 C 0.22682(11) 1.2141(3) 0.4525(3)
C12 C 0.19660(12) 1.2679(3) 0.3265(3)
H9 H 0.2069 1.3505 0.2976
C13 C 0.15205(12) 1.2056(3) 0.2415(3)
H10 H 0.1322 1.2472 0.1590
C11E C 0.27318(11) 1.2859(3) 0.5475(3)
C10E C 0.28928(12) 1.4110(3) 0.5128(3)
C9E C 0.33329(12) 1.4767(3) 0.5993(3)
C8E C 0.36332(11) 1.4186(3) 0.7216(3)
N1E N 0.41081(9) 1.4833(2) 0.8046(2)
H1E H 0.4020 1.5693 0.8057
H2E H 0.4138 1.4544 0.8970
C13E C 0.34795(12) 1.2944(3) 0.7585(3)
C12E C 0.30340(12) 1.2321(3) 0.6735(3)
H9E H 0.2931 1.1495 0.7024
H10E H 0.3678 1.2528 0.8410
H7E H 0.3425 1.5613 0.5739
H8E H 0.2700 1.4520 0.4292
C3F C -0.03001(12) 0.6489(2) 0.2562(3)
C2F C -0.04916(12) 0.7112(2) 0.3713(3)
C1F C -0.01373(11) 0.8068(3) 0.4702(3)
O1F O 0.02209(7) 0.87500(16) 0.41936(18)
O2F O -0.02422(8) 0.82012(17) 0.5958(2)
C7F C -0.10477(12) 0.6961(3) 0.3843(3)
C6F C -0.14186(14) 0.6264(3) 0.2826(4)
C5F C -0.12285(16) 0.5684(3) 0.1674(4)
C4F C -0.06742(15) 0.5777(3) 0.1569(3)
H3F H -0.0548 0.5349 0.0809
H4F H -0.1476 0.5230 0.0966
H5F H -0.1792 0.6186 0.2915
H6F H -0.1173 0.7338 0.4633
N1F N -0.08919(9) 1.0167(2) 0.3046(2)
O2B O 0.02422(8) 1.17988(17) 0.4042(2)
O2D O -0.02422(8) 1.17988(17) 0.0958(2)
Mn1B Mn 0.0000 0.97252(6) -0.2500
Mn1C Mn 0.5000 1.47252(6) 0.7500
Mn1B_2 Mn 0.0000 0.97252(6) 0.7500
H1F H -0.0980 0.9307 0.3057
H2F H -0.0862 1.0456 0.3970
loop_
_geom_bond_atom_site_label_1
_geom_bond_atom_site_label_2
_geom_bond_site_symmetry_1
_geom_bond_site_symmetry_2
Mn1 N1 1_555 1_555
N1 H1 1_555 1_555
H2 N1 1_555 1_555
O1 Mn1 1_555 1_555
O2 C1 1_555 1_555
C1 O1 1_555 1_555
C2 C1 1_555 1_555
C3 C2 1_555 1_555
C4 C3 1_555 1_555
H3 C4 1_555 1_555
C5 C4 1_555 1_555
H4 C5 1_555 1_555
C6 C5 1_555 1_555
H5 C6 1_555 1_555
C7 C2 1_555 1_555
H6 C7 1_555 1_555
C8 N1 1_555 1_555
C9 C8 1_555 1_555
H7 C9 1_555 1_555
C10 C9 1_555 1_555
H8 C10 1_555 1_555
C11 C10 1_555 1_555
C12 C11 1_555 1_555
H9 C12 1_555 1_555
C13 C8 1_555 1_555
H10 C13 1_555 1_555
C11E C11 1_555 1_555
C10E C11E 1_555 1_555
C9E C10E 1_555 1_555
C8E C9E 1_555 1_555
N1E C8E 1_555 1_555
H1E N1E 1_555 1_555
H2E N1E 1_555 1_555
C13E C8E 1_555 1_555
C12E C11E 1_555 1_555
H9E C12E 1_555 1_555
H10E C13E 1_555 1_555
H7E C9E 1_555 1_555
H8E C10E 1_555 1_555
C3F C3 1_555 1_555
C2F C3F 1_555 1_555
C1F C2F 1_555 1_555
O1F Mn1 1_555 1_555
O2F C1F 1_555 1_555
C7F C2F 1_555 1_555
C6F C7F 1_555 1_555
C5F C6F 1_555 1_555
C4F C3F 1_555 1_555
H3F C4F 1_555 1_555
H4F C5F 1_555 1_555
H5F C6F 1_555 1_555
H6F C7F 1_555 1_555
N1F Mn1 1_555 1_555
O2B Mn1 1_555 1_555
O2D Mn1 1_555 1_555
Mn1B O2 1_555 1_555
Mn1C N1E 1_555 1_555
Mn1B_2 O2F 1_555 1_555
H1F N1F 1_555 1_555
H2F N1F 1_555 1_555
C6 C7 1_555 1_555
C12 C13 1_555 1_555
C13E C12E 1_555 1_555
C1F O1F 1_555 1_555
C5F C4F 1_555 1_555

#END
