
#######################################################################
#
#                 Cambridge Crystallographic Data Centre
#                                CCDC 
#
#######################################################################
#
# If this CIF has been generated from an entry in the Cambridge 
# Structural Database, then it will include bibliographic, chemical, 
# crystal, experimental, refinement or atomic coordinate data resulting 
# from the CCDC's data processing and validation procedures.
#
#######################################################################

data_PAHVIE
_symmetry_cell_setting           orthorhombic
_symmetry_space_group_name_H-M   'P n m a'
_symmetry_Int_Tables_number      62
_space_group_name_Hall           '-P 2ac 2n'
loop_
_symmetry_equiv_pos_site_id
_symmetry_equiv_pos_as_xyz
1 x,y,z
2 1/2+x,y,1/2-z
3 x,1/2-y,z
4 1/2-x,1/2+y,1/2+z
5 -x,-y,-z
6 1/2-x,-y,1/2+z
7 -x,1/2+y,-z
8 1/2+x,1/2-y,1/2-z
_cell_length_a                   8.711(11)
_cell_length_b                   10.050(13)
_cell_length_c                   10.224(13)
_cell_angle_alpha                90
_cell_angle_beta                 90
_cell_angle_gamma                90
_cell_volume                     895.066
loop_
_atom_site_label
_atom_site_type_symbol
_atom_site_fract_x
_atom_site_fract_y
_atom_site_fract_z
Ag1 Ag 0.04722(5) 0.7500 0.32019(4)
N1 N 0.0457(3) 0.5368(3) 0.3239(3)
H1 H 0.1436 0.5082 0.3234
H2 H 0.0011 0.5076 0.2498
C2 C -0.0337(4) 0.4751(3) 0.4367(3)
H3 H -0.0282 0.3800 0.4296
H4 H -0.1393 0.5025 0.4370
C2D C 0.0337(4) 0.5249(3) 0.5633(3)
N1D N -0.0457(3) 0.4632(3) 0.6761(3)
H1D H -0.1436 0.4918 0.6766
H2D H -0.0011 0.4924 0.7502
H3D H 0.0282 0.6200 0.5704
H4D H 0.1393 0.4975 0.5630
N1B N 0.0457(3) 0.9632(3) 0.3239(3)
Ag1D Ag -0.04722(5) 0.2500 0.67981(4)
H1B H 0.1436 0.9918 0.3234
H2B H 0.0011 0.9924 0.2498
S1 S 0.64497(13) 0.7500 0.56504(11)
C1 C 0.4396(6) 0.7500 0.5307(5)
O1 O 0.6658(3) 0.6296(3) 0.6389(3)
F1 F 0.3989(3) 0.6442(3) 0.4631(3)
O2 O 0.7145(4) 0.7500 0.4376(4)
F2 F 0.3591(4) 0.7500 0.6396(4)
F1B F 0.3989(3) 0.8558(3) 0.4631(3)
O1B O 0.6658(3) 0.8704(3) 0.6389(3)
loop_
_geom_bond_atom_site_label_1
_geom_bond_atom_site_label_2
_geom_bond_site_symmetry_1
_geom_bond_site_symmetry_2
Ag1 N1 1_555 1_555
S1 C1 1_555 1_555
N1 H1 1_555 1_555
H2 N1 1_555 1_555
C1 F1 1_555 1_555
C2 N1 1_555 1_555
H3 C2 1_555 1_555
H4 C2 1_555 1_555
O1 S1 1_555 1_555
O2 S1 1_555 1_555
F2 C1 1_555 1_555
F1B C1 1_555 1_555
O1B S1 1_555 1_555
C2D C2 1_555 1_555
N1D C2D 1_555 1_555
H1D N1D 1_555 1_555
H2D N1D 1_555 1_555
H3D C2D 1_555 1_555
H4D C2D 1_555 1_555
N1B Ag1 1_555 1_555
Ag1D N1D 1_555 1_555
H1B N1B 1_555 1_555
H2B N1B 1_555 1_555

#END
