
#######################################################################
#
#                 Cambridge Crystallographic Data Centre
#                                CCDC 
#
#######################################################################
#
# If this CIF has been generated from an entry in the Cambridge 
# Structural Database, then it will include bibliographic, chemical, 
# crystal, experimental, refinement or atomic coordinate data resulting 
# from the CCDC's data processing and validation procedures.
#
#######################################################################

data_PAHVAW
_symmetry_cell_setting           monoclinic
_symmetry_space_group_name_H-M   'C 2/c'
_symmetry_Int_Tables_number      15
_space_group_name_Hall           '-C 2yn'
loop_
_symmetry_equiv_pos_site_id
_symmetry_equiv_pos_as_xyz
1 x,y,z
2 1/2+x,1/2+y,z
3 x,-y,1/2+z
4 1/2+x,1/2-y,1/2+z
5 -x,-y,-z
6 1/2-x,1/2-y,-z
7 -x,y,1/2-z
8 1/2-x,1/2+y,1/2-z
_cell_length_a                   13.2692(11)
_cell_length_b                   9.1898(8)
_cell_length_c                   13.5155(11)
_cell_angle_alpha                90
_cell_angle_beta                 107.542(2)
_cell_angle_gamma                90
_cell_volume                     1571.45
loop_
_atom_site_label
_atom_site_type_symbol
_atom_site_fract_x
_atom_site_fract_y
_atom_site_fract_z
Cu1 Cu 0.2500 0.2500 0.5000
O1 O 0.3735(3) 0.3673(4) 0.3580(3)
O2 O 0.2972(3) 0.1614(4) 0.3888(3)
O3 O 0.3733(3) 0.4606(4) 0.0064(3)
H1 H 0.374(4) 0.510(6) -0.044(4)
O4 O 0.4182(3) 0.2832(4) -0.0857(3)
N1 N 0.3816(3) -0.1774(4) 0.1109(3)
H3 H 0.3915 -0.2063 0.0541
H4 H 0.3741 -0.2400 0.1555
C1 C 0.3775(4) -0.0240(5) 0.1316(3)
C2 C 0.3900(4) 0.0737(5) 0.0575(4)
H5 H 0.4039 0.0396 -0.0018
C3 C 0.3817(4) 0.2221(5) 0.0724(4)
C4 C 0.3648(4) 0.2742(5) 0.1628(4)
H6 H 0.3600 0.3738 0.1728
C5 C 0.3550(4) 0.1769(5) 0.2379(4)
C6 C 0.3591(4) 0.0266(5) 0.2222(3)
H7 H 0.3497 -0.0386 0.2713
C7 C 0.3931(4) 0.3237(6) -0.0107(4)
C8 C 0.3412(4) 0.2400(5) 0.3357(4)
O1E O 0.1265(3) 0.1327(4) 0.6420(3)
O2E O 0.2028(3) 0.3386(4) 0.6112(3)
O3E O 0.1267(3) 0.0394(4) 0.9936(3)
H1E H 0.126(4) -0.010(6) 1.044(4)
O4E O 0.0818(3) 0.2168(4) 1.0857(3)
N1E N 0.1184(3) 0.6774(4) 0.8891(3)
H3E H 0.1085 0.7063 0.9459
H4E H 0.1259 0.7400 0.8445
C1E C 0.1225(4) 0.5240(5) 0.8684(3)
C2E C 0.1100(4) 0.4263(5) 0.9425(4)
H5E H 0.0961 0.4604 1.0018
C3E C 0.1183(4) 0.2779(5) 0.9276(4)
C4E C 0.1352(4) 0.2258(5) 0.8372(4)
H6E H 0.1400 0.1262 0.8272
C5E C 0.1450(4) 0.3231(5) 0.7621(4)
C6E C 0.1409(4) 0.4734(5) 0.7778(3)
H7E H 0.1503 0.5386 0.7287
C7E C 0.1069(4) 0.1763(6) 1.0107(4)
C8E C 0.1588(4) 0.2600(5) 0.6643(4)
N1B N 0.3816(3) 0.1774(4) 0.6109(3)
N1G N 0.1184(3) 0.3226(4) 0.3891(3)
Cu1B Cu 0.2500 -0.2500 0.0000
Cu1B_2 Cu 0.2500 0.7500 1.0000
H3B H 0.3915 0.2063 0.5541
H4B H 0.3741 0.2400 0.6555
H3G H 0.1085 0.2937 0.4459
H4G H 0.1259 0.2600 0.3445
O5 O 0.0000 0.0963(6) 0.2500
H2 H -0.017(7) 0.036(9) 0.296(6)
H2F H 0.017(7) 0.036(9) 0.204(6)
loop_
_geom_bond_atom_site_label_1
_geom_bond_atom_site_label_2
_geom_bond_site_symmetry_1
_geom_bond_site_symmetry_2
Cu1 O2 1_555 1_555
O1 C8 1_555 1_555
O2 C8 1_555 1_555
O3 H1 1_555 1_555
O4 C7 1_555 1_555
O5 H2 1_555 1_555
N1 H3 1_555 1_555
H4 N1 1_555 1_555
C1 N1 1_555 1_555
C2 C1 1_555 1_555
H5 C2 1_555 1_555
C3 C2 1_555 1_555
C4 C3 1_555 1_555
H6 C4 1_555 1_555
C5 C4 1_555 1_555
C6 C1 1_555 1_555
H7 C6 1_555 1_555
C7 O3 1_555 1_555
C8 C5 1_555 1_555
H2F O5 1_555 1_555
O1E C8E 1_555 1_555
O2E Cu1 1_555 1_555
O3E H1E 1_555 1_555
O4E C7E 1_555 1_555
N1E H3E 1_555 1_555
H4E N1E 1_555 1_555
C1E N1E 1_555 1_555
C2E C1E 1_555 1_555
H5E C2E 1_555 1_555
C3E C2E 1_555 1_555
C4E C3E 1_555 1_555
H6E C4E 1_555 1_555
C5E C4E 1_555 1_555
C6E C1E 1_555 1_555
H7E C6E 1_555 1_555
C7E O3E 1_555 1_555
C8E O2E 1_555 1_555
N1B Cu1 1_555 1_555
N1G Cu1 1_555 1_555
Cu1B N1 1_555 1_555
Cu1B_2 N1E 1_555 1_555
H3B N1B 1_555 1_555
H4B N1B 1_555 1_555
H3G N1G 1_555 1_555
H4G N1G 1_555 1_555
C3 C7 1_555 1_555
C5 C6 1_555 1_555
C3E C7E 1_555 1_555
C5E C8E 1_555 1_555
C5E C6E 1_555 1_555

#END
