
#######################################################################
#
#                 Cambridge Crystallographic Data Centre
#                                CCDC 
#
#######################################################################
#
# If this CIF has been generated from an entry in the Cambridge 
# Structural Database, then it will include bibliographic, chemical, 
# crystal, experimental, refinement or atomic coordinate data resulting 
# from the CCDC's data processing and validation procedures.
#
#######################################################################

data_PAHVUQ
_symmetry_cell_setting           monoclinic
_symmetry_space_group_name_H-M   'C 2/c'
_symmetry_Int_Tables_number      15
_space_group_name_Hall           '-C 2yn'
loop_
_symmetry_equiv_pos_site_id
_symmetry_equiv_pos_as_xyz
1 x,y,z
2 x,-y,1/2+z
3 1/2+x,1/2+y,z
4 1/2+x,1/2-y,1/2+z
5 -x,-y,-z
6 -x,y,1/2-z
7 1/2-x,1/2-y,-z
8 1/2-x,1/2+y,1/2-z
_cell_length_a                   17.598(5)
_cell_length_b                   7.374(2)
_cell_length_c                   14.771(4)
_cell_angle_alpha                90
_cell_angle_beta                 101.894(4)
_cell_angle_gamma                90
_cell_volume                     1875.65
loop_
_atom_site_label
_atom_site_type_symbol
_atom_site_fract_x
_atom_site_fract_y
_atom_site_fract_z
Co1 Co 0.0000 0.38345(7) 0.2500
N1 N 0.11641(13) 0.3799(3) 0.20844(15)
N2 N 0.24990(16) 0.3720(4) 0.12992(18)
N3 N -0.03195(15) 0.5902(3) 0.15201(17)
N4 N -0.04773(16) 0.8840(3) 0.07377(15)
N5 N -0.03493(15) 1.1778(3) 0.15142(17)
C1 C 0.18943(16) 0.3834(4) 0.26355(18)
C2 C 0.19989(18) 0.3909(4) 0.36035(19)
H1 H 0.1570 0.3909 0.3880
C3 C 0.27270(19) 0.3981(5) 0.4137(2)
H2 H 0.2789 0.4058 0.4776
C4 C 0.33830(19) 0.3944(5) 0.3743(2)
H3 H 0.3876 0.3981 0.4120
C5 C 0.3302(2) 0.3853(5) 0.2810(2)
H4 H 0.3741 0.3822 0.2551
C6 C 0.25588(18) 0.3805(4) 0.2230(2)
C7 C 0.1796(2) 0.3667(5) 0.0804(2)
H5 H 0.1731 0.3593 0.0164
C8 C 0.11320(18) 0.3718(4) 0.1191(2)
H6 H 0.0647 0.3692 0.0795
C9 C -0.03907(16) 0.7321(4) 0.11942(18)
C10 C -0.04069(17) 1.0374(4) 0.11826(19)
N1E N -0.11641(13) 0.3799(3) 0.29156(15)
N2E N -0.24990(16) 0.3720(4) 0.37008(18)
C1E C -0.18943(16) 0.3834(4) 0.23645(18)
C2E C -0.19989(18) 0.3909(4) 0.13965(19)
H1E H -0.1570 0.3909 0.1120
C3E C -0.27270(19) 0.3981(5) 0.0863(2)
H2E H -0.2789 0.4058 0.0224
C4E C -0.33830(19) 0.3944(5) 0.1257(2)
H3E H -0.3876 0.3981 0.0880
C5E C -0.3302(2) 0.3853(5) 0.2190(2)
H4E H -0.3741 0.3822 0.2449
C6E C -0.25588(18) 0.3805(4) 0.2770(2)
C7E C -0.1796(2) 0.3667(5) 0.4196(2)
H5E H -0.1731 0.3593 0.4836
C8E C -0.11320(18) 0.3718(4) 0.3809(2)
H6E H -0.0647 0.3692 0.4205
N3E N 0.03195(15) 0.5902(3) 0.34799(17)
N4E N 0.04773(16) 0.8840(3) 0.42623(15)
N5E N 0.03493(15) 1.1778(3) 0.34858(17)
C9E C 0.03907(16) 0.7321(4) 0.38058(18)
C10E C 0.04069(17) 1.0374(4) 0.38174(19)
N5_2 N -0.03493(15) 0.1778(3) 0.15142(17)
N5E_2 N 0.03493(15) 0.1778(3) 0.34858(17)
Co1_2 Co 0.0000 1.38345(7) 0.2500
loop_
_geom_bond_atom_site_label_1
_geom_bond_atom_site_label_2
_geom_bond_site_symmetry_1
_geom_bond_site_symmetry_2
Co1 N1 1_555 1_555
N1 C1 1_555 1_555
N2 C6 1_555 1_555
N3 Co1 1_555 1_555
N4 C9 1_555 1_555
N5 C10 1_555 1_555
C1 C2 1_555 1_555
C2 H1 1_555 1_555
C3 C2 1_555 1_555
H2 C3 1_555 1_555
C4 C3 1_555 1_555
H3 C4 1_555 1_555
C5 C4 1_555 1_555
H4 C5 1_555 1_555
C6 C1 1_555 1_555
C7 N2 1_555 1_555
H5 C7 1_555 1_555
C8 N1 1_555 1_555
H6 C8 1_555 1_555
C9 N3 1_555 1_555
C10 N4 1_555 1_555
N1E Co1 1_555 1_555
N2E C6E 1_555 1_555
C1E N1E 1_555 1_555
C2E C1E 1_555 1_555
H1E C2E 1_555 1_555
C3E C2E 1_555 1_555
H2E C3E 1_555 1_555
C4E C3E 1_555 1_555
H3E C4E 1_555 1_555
C5E C4E 1_555 1_555
H4E C5E 1_555 1_555
C6E C1E 1_555 1_555
C7E N2E 1_555 1_555
H5E C7E 1_555 1_555
C8E N1E 1_555 1_555
H6E C8E 1_555 1_555
N3E Co1 1_555 1_555
N4E C9E 1_555 1_555
N5E C10E 1_555 1_555
C9E N3E 1_555 1_555
C10E N4E 1_555 1_555
N5_2 Co1 1_555 1_555
N5E_2 Co1 1_555 1_555
Co1_2 N5 1_555 1_555
C5 C6 1_555 1_555
C7 C8 1_555 1_555
C5E C6E 1_555 1_555
C7E C8E 1_555 1_555
N5E Co1_2 1_555 1_555

#END
