
#######################################################################
#
#                 Cambridge Crystallographic Data Centre
#                                CCDC 
#
#######################################################################
#
# If this CIF has been generated from an entry in the Cambridge 
# Structural Database, then it will include bibliographic, chemical, 
# crystal, experimental, refinement or atomic coordinate data resulting 
# from the CCDC's data processing and validation procedures.
#
#######################################################################

data_PAHXIG
_symmetry_cell_setting           triclinic
_symmetry_space_group_name_H-M   'P -1'
_symmetry_Int_Tables_number      2
_space_group_name_Hall           '-P 1'
loop_
_symmetry_equiv_pos_site_id
_symmetry_equiv_pos_as_xyz
1 x,y,z
2 -x,-y,-z
_cell_length_a                   5.783(2)
_cell_length_b                   8.229(2)
_cell_length_c                   10.827(3)
_cell_angle_alpha                105.65(3)
_cell_angle_beta                 97.48(3)
_cell_angle_gamma                97.689(9)
_cell_volume                     484.155
loop_
_atom_site_label
_atom_site_type_symbol
_atom_site_fract_x
_atom_site_fract_y
_atom_site_fract_z
Mn1 Mn 0.5000 0.5000 0.0000
N1 N 0.5089(5) 0.7027(3) 0.1940(2)
O1 O 0.7084(4) 0.3614(2) 0.1021(2)
O2 O 0.4240(4) 0.1530(3) 0.1092(3)
O3 O 1.0265(4) 0.2625(3) 0.2682(2)
O4 O 0.1667(4) 0.3516(3) 0.0211(2)
C1 C 0.6340(6) 0.2265(4) 0.1306(3)
C2 C 0.8191(6) 0.1452(4) 0.1937(3)
C3 C 1.0006(6) 0.3792(4) 0.3818(3)
C4 C 0.8021(6) 0.3753(4) 0.4409(3)
C5 C 1.1975(6) 0.5045(4) 0.4413(3)
C6 C 0.6763(6) 0.7262(4) 0.2977(3)
C7 C 0.6803(6) 0.8403(4) 0.4176(3)
C8 C 0.5027(5) 0.9382(3) 0.4358(3)
C9 C 0.3299(6) 0.9159(4) 0.3283(3)
C10 C 0.3381(6) 0.7979(4) 0.2105(3)
H1 H 0.059(5) 0.387(4) 0.062(3)
H2 H 0.226(6) 0.279(4) 0.053(3)
H3 H 0.7472 0.0876 0.2502
H4 H 0.8662 0.0587 0.1260
H5 H 0.6684 0.2920 0.4014
H6 H 1.3310 0.5083 0.4020
H7 H 0.7970 0.6620 0.2883
H8 H 0.8017 0.8517 0.4864
H9 H 0.2087 0.9798 0.3349
H10 H 0.2196 0.7844 0.1398
C8A C 0.4973(5) 1.0618(3) 0.5642(3)
C7A C 0.3197(6) 1.1597(4) 0.5824(3)
C6A C 0.3237(6) 1.2738(4) 0.7023(3)
N1A N 0.4911(5) 1.2973(3) 0.8060(2)
C10A C 0.6619(6) 1.2021(4) 0.7895(3)
C9A C 0.6701(6) 1.0841(4) 0.6717(3)
H9A H 0.7913 1.0202 0.6651
H10A H 0.7804 1.2156 0.8602
H7A H 0.2030 1.3380 0.7117
H8A H 0.1983 1.1483 0.5136
C5A C 0.8025(6) 0.4955(4) 0.5587(3)
C3A C 0.9994(6) 0.6208(4) 0.6182(3)
O3A O 0.9735(4) 0.7375(3) 0.7318(2)
C2A C 1.1809(6) 0.8548(4) 0.8063(3)
C1A C 1.3660(6) 0.7735(4) 0.8694(3)
O1A O 1.2916(4) 0.6386(2) 0.8979(2)
O2A O 1.5760(4) 0.8470(3) 0.8908(3)
H3A H 1.2528 0.9124 0.7498
H4A H 1.1338 0.9413 0.8740
C4A C 1.1979(6) 0.6247(4) 0.5591(3)
H5A H 1.3316 0.7080 0.5986
H6A H 0.6690 0.4917 0.5980
O4A O 0.8333(4) 0.6484(3) -0.0211(2)
H1A H 0.941(5) 0.613(4) -0.062(3)
H2A H 0.774(6) 0.721(4) -0.053(3)
N1A_2 N 0.4911(5) 0.2973(3) -0.1940(2)
O1A_2 O 0.2916(4) 0.6386(2) -0.1021(2)
Mn1_2 Mn 0.5000 1.5000 1.0000
Mn1_3 Mn 1.5000 0.5000 1.0000
loop_
_geom_bond_atom_site_label_1
_geom_bond_atom_site_label_2
_geom_bond_site_symmetry_1
_geom_bond_site_symmetry_2
Mn1 N1 1_555 1_555
N1 C6 1_555 1_555
O1 Mn1 1_555 1_555
O2 C1 1_555 1_555
O3 C2 1_555 1_555
O4 Mn1 1_555 1_555
C1 O1 1_555 1_555
C2 C1 1_555 1_555
C3 O3 1_555 1_555
C4 C3 1_555 1_555
C5 C3 1_555 1_555
C6 C7 1_555 1_555
C7 C8 1_555 1_555
C8 C9 1_555 1_555
C9 C10 1_555 1_555
C10 N1 1_555 1_555
H1 O4 1_555 1_555
H2 O4 1_555 1_555
H3 C2 1_555 1_555
H4 C2 1_555 1_555
H5 C4 1_555 1_555
H6 C5 1_555 1_555
H7 C6 1_555 1_555
H8 C7 1_555 1_555
H9 C9 1_555 1_555
H10 C10 1_555 1_555
C8A C8 1_555 1_555
C7A C8A 1_555 1_555
C6A C7A 1_555 1_555
N1A C6A 1_555 1_555
C10A N1A 1_555 1_555
C9A C8A 1_555 1_555
H9A C9A 1_555 1_555
H10A C10A 1_555 1_555
H7A C6A 1_555 1_555
H8A C7A 1_555 1_555
C5A C4 1_555 1_555
C3A C5A 1_555 1_555
O3A C3A 1_555 1_555
C2A O3A 1_555 1_555
C1A C2A 1_555 1_555
O1A C1A 1_555 1_555
O2A C1A 1_555 1_555
H3A C2A 1_555 1_555
H4A C2A 1_555 1_555
C4A C5 1_555 1_555
H5A C4A 1_555 1_555
H6A C5A 1_555 1_555
O4A Mn1 1_555 1_555
H1A O4A 1_555 1_555
H2A O4A 1_555 1_555
N1A_2 Mn1 1_555 1_555
O1A_2 Mn1 1_555 1_555
Mn1_2 N1A 1_555 1_555
Mn1_3 O1A 1_555 1_555
C10A C9A 1_555 1_555
C3A C4A 1_555 1_555

#END
