
#######################################################################
#
#                 Cambridge Crystallographic Data Centre
#                                CCDC 
#
#######################################################################
#
# If this CIF has been generated from an entry in the Cambridge 
# Structural Database, then it will include bibliographic, chemical, 
# crystal, experimental, refinement or atomic coordinate data resulting 
# from the CCDC's data processing and validation procedures.
#
#######################################################################

data_PAHXEB
_symmetry_cell_setting           monoclinic
_symmetry_space_group_name_H-M   'P 21/m'
_symmetry_Int_Tables_number      11
_space_group_name_Hall           '-P 2yb'
loop_
_symmetry_equiv_pos_site_id
_symmetry_equiv_pos_as_xyz
1 x,y,z
2 -x,1/2+y,-z
3 -x,-y,-z
4 x,1/2-y,z
_cell_length_a                   6.214(2)
_cell_length_b                   19.647(7)
_cell_length_c                   6.592(2)
_cell_angle_alpha                90
_cell_angle_beta                 115.90(2)
_cell_angle_gamma                90
_cell_volume                     723.959
loop_
_atom_site_label
_atom_site_type_symbol
_atom_site_fract_x
_atom_site_fract_y
_atom_site_fract_z
C1 C 0.7786(9) 0.4662(3) 0.3936(10)
C2 C 0.7876(9) 0.5377(3) 0.3801(10)
C3 C 0.9911(11) 0.4316(2) 0.5110(12)
C4 C 0.5621(10) 0.4187(3) 0.2942(11)
C5 C 0.5818(10) 0.5878(3) 0.2598(11)
O1 O 0.5885(7) 0.3575(2) 0.3253(8)
O2 O 0.3489(7) 0.4442(2) 0.1784(8)
O3 O 0.3666(7) 0.5649(2) 0.1536(8)
O4 O 0.6286(7) 0.6489(2) 0.2637(8)
O5 O 0.8954(13) 0.2500 0.6097(15)
O6 O 0.2868(10) 0.2500 0.4084(11)
O7 O 0.6180(10) 0.2500 0.0493(11)
O8 O -0.0019(11) 0.1632(2) 0.0062(12)
Li1 Li 0.5896(27) 0.2500 0.3512(31)
Li2 Li -0.0229(25) 0.2500 0.1431(31)
H1 H 0.3436(97) 0.4951(43) 0.158(11)
H2 H 0.9850(90) 0.3877(25) 0.5192(96)
H3 H 0.952(18) 0.2787(66) 0.696(17)
H4 H 0.3261(10) 0.2862(42) 0.521(12)
H5 H 0.546(11) 0.2103(29) -0.035(11)
H6 H 0.115(10) 0.1492(30) 0.072(11)
H7 H -0.107(10) 0.1386(31) -0.022(11)
C3B C 1.0089(11) 0.5684(2) 0.4890(12)
C2B C 1.2124(9) 0.4623(3) 0.6199(10)
O1C O 0.5885(7) 0.1425(2) 0.3253(8)
H3C H 0.952(18) 0.2213(66) 0.696(17)
H4C H 0.3261(10) 0.2138(42) 0.521(12)
Li2_2 Li 0.9771(25) 0.2500 0.1431(31)
H5C H 0.546(11) 0.2897(29) -0.035(11)
O7_2 O -0.3820(10) 0.2500 0.0493(11)
O8C O -0.0019(11) 0.3368(2) 0.0062(12)
C1B C 1.2214(9) 0.5338(3) 0.6064(10)
H2B H 1.0150(90) 0.6123(25) 0.4808(96)
C5B C 1.4182(10) 0.4122(3) 0.7402(11)
H6C H 0.115(10) 0.3508(30) 0.072(11)
H7C H -0.107(10) 0.3614(31) -0.022(11)
C4B C 1.4379(10) 0.5813(3) 0.7058(11)
O3B O 1.6334(7) 0.4351(2) 0.8464(8)
O4B O 1.3714(7) 0.3511(2) 0.7363(8)
O1B O 1.4115(7) 0.6425(2) 0.6747(8)
O2B O 1.6511(7) 0.5558(2) 0.8216(8)
Li1B Li 1.4104(27) 0.7500 0.6488(31)
H1B H 1.6564(97) 0.5049(43) 0.842(11)
H5_2 H -0.454(11) 0.2103(29) -0.035(11)
H5C_2 H -0.454(11) 0.2897(29) -0.035(11)
loop_
_geom_bond_atom_site_label_1
_geom_bond_atom_site_label_2
_geom_bond_site_symmetry_1
_geom_bond_site_symmetry_2
C1 C2 1_555 1_555
C2 C5 1_555 1_555
C3 C1 1_555 1_555
C4 C1 1_555 1_555
C5 O3 1_555 1_555
O1 C4 1_555 1_555
O2 C4 1_555 1_555
O4 C5 1_555 1_555
O5 Li1 1_555 1_555
O6 Li1 1_555 1_555
O7 Li1 1_555 1_555
O8 Li2 1_555 1_555
Li1 O1 1_555 1_555
Li2 O6 1_555 1_555
H1 O2 1_555 1_555
H2 C3 1_555 1_555
H3 O5 1_555 1_555
H4 O6 1_555 1_555
H5 O7 1_555 1_555
H6 O8 1_555 1_555
H7 O8 1_555 1_555
C3B C2 1_555 1_555
C2B C3 1_555 1_555
O1C Li1 1_555 1_555
H3C O5 1_555 1_555
H4C O6 1_555 1_555
Li2_2 O7 1_555 1_555
H5C O7 1_555 1_555
O7_2 Li2 1_555 1_555
O8C Li2 1_555 1_555
C1B C3B 1_555 1_555
H2B C3B 1_555 1_555
C5B C2B 1_555 1_555
H6C O8C 1_555 1_555
H7C O8C 1_555 1_555
C4B C1B 1_555 1_555
O3B C5B 1_555 1_555
O4B C5B 1_555 1_555
O1B C4B 1_555 1_555
O2B C4B 1_555 1_555
Li1B O1B 1_555 1_555
H1B O2B 1_555 1_555
H5_2 O7_2 1_555 1_555
H5C_2 O7_2 1_555 1_555
C2B C1B 1_555 1_555

#END
