
#######################################################################
#
#                 Cambridge Crystallographic Data Centre
#                                CCDC 
#
#######################################################################
#
# If this CIF has been generated from an entry in the Cambridge 
# Structural Database, then it will include bibliographic, chemical, 
# crystal, experimental, refinement or atomic coordinate data resulting 
# from the CCDC's data processing and validation procedures.
#
#######################################################################

data_PAJBUZ
_symmetry_cell_setting           monoclinic
_symmetry_space_group_name_H-M   'P 21/n'
_symmetry_Int_Tables_number      14
_space_group_name_Hall           '-P 2yn'
loop_
_symmetry_equiv_pos_site_id
_symmetry_equiv_pos_as_xyz
1 x,y,z
2 1/2-x,1/2+y,1/2-z
3 -x,-y,-z
4 1/2+x,1/2-y,1/2+z
_cell_length_a                   5.635(2)
_cell_length_b                   16.467(4)
_cell_length_c                   16.432(4)
_cell_angle_alpha                90
_cell_angle_beta                 99.29(2)
_cell_angle_gamma                90
_cell_volume                     1504.75
loop_
_atom_site_label
_atom_site_type_symbol
_atom_site_fract_x
_atom_site_fract_y
_atom_site_fract_z
Na1 Na 0.15627(17) 1.08769(6) 0.55238(5)
F1 F 0.0690(3) 0.85381(9) 0.71576(8)
F2 F 0.7638(3) 0.71932(9) 0.93407(9)
F3 F 0.2838(2) 0.99243(9) 0.89026(8)
F4 F 0.8533(2) 0.86508(9) 0.87156(8)
F5 F 0.0230(3) 0.70699(9) 0.78144(9)
O1 O 0.4724(3) 1.03211(10) 0.64600(9)
F6 F 1.0411(3) 1.17265(9) 0.84460(10)
F7 F 0.4394(3) 1.11912(10) 0.98752(9)
O2 O -0.2208(3) 1.03202(11) 0.52876(11)
F8 F 0.9212(3) 1.04699(9) 0.74201(8)
O3 O 0.2615(3) 1.17598(11) 0.46066(11)
N1 N 0.3957(4) 0.71278(12) 0.85674(11)
N2 N 0.4621(4) 0.95949(12) 0.67432(11)
O4 O 0.4085(3) 0.90037(10) 0.62389(9)
C1 C 0.8531(5) 1.12590(16) 0.85416(15)
C2 C 0.4678(4) 0.86558(14) 0.78780(13)
C3 C 0.5959(4) 0.75389(15) 0.87773(14)
C4 C 0.2548(4) 0.82180(14) 0.76691(13)
C5 C 0.5921(4) 1.01454(14) 0.80998(13)
C6 C 0.2296(4) 0.74805(16) 0.80172(14)
C7 C 0.6407(4) 0.82809(14) 0.84609(14)
C8 C 0.7897(4) 1.06256(15) 0.80093(14)
C9 C 0.4778(4) 1.03459(15) 0.87605(14)
N3 N 0.7403(4) 1.14507(13) 0.91556(12)
C10 C 0.5081(4) 0.94613(14) 0.75563(13)
C11 C 0.5579(5) 1.09957(15) 0.92560(14)
H1 H 0.349(5) 1.1587(14) 0.4249(14)
H2 H 0.263(5) 1.2281(6) 0.4601(16)
H3 H -0.296(6) 1.059(2) 0.489(2)
H4 H -0.313(6) 1.033(2) 0.5668(19)
Na1B Na -0.15627(17) 0.91231(6) 0.44762(5)
Na1A Na 0.34373(17) 0.58769(6) 0.94762(5)
O2B O 0.2208(3) 0.96798(11) 0.47124(11)
N1A N 0.1043(4) 1.21278(12) 0.64326(11)
H3B H 0.296(6) 0.941(2) 0.511(2)
H4B H 0.313(6) 0.967(2) 0.4332(19)
loop_
_geom_bond_atom_site_label_1
_geom_bond_atom_site_label_2
_geom_bond_site_symmetry_1
_geom_bond_site_symmetry_2
Na1 O1 1_555 1_555
F1 C4 1_555 1_555
F2 C3 1_555 1_555
F3 C9 1_555 1_555
F4 C7 1_555 1_555
F5 C6 1_555 1_555
O1 N2 1_555 1_555
F6 C1 1_555 1_555
F7 C11 1_555 1_555
O2 Na1 1_555 1_555
F8 C8 1_555 1_555
O3 Na1 1_555 1_555
N1 C3 1_555 1_555
N2 O4 1_555 1_555
C1 C8 1_555 1_555
C2 C4 1_555 1_555
C3 C7 1_555 1_555
C4 C6 1_555 1_555
C5 C8 1_555 1_555
C6 N1 1_555 1_555
C7 C2 1_555 1_555
C9 C5 1_555 1_555
N3 C1 1_555 1_555
C10 N2 1_555 1_555
C11 C9 1_555 1_555
H1 O3 1_555 1_555
H2 O3 1_555 1_555
H3 O2 1_555 1_555
H4 O2 1_555 1_555
Na1B O2 1_555 1_555
Na1A N1 1_555 1_555
O2B Na1 1_555 1_555
N1A Na1 1_555 1_555
H3B O2B 1_555 1_555
H4B O2B 1_555 1_555
C2 C10 1_555 1_555
C5 C10 1_555 1_555
N3 C11 1_555 1_555
Na1B O2B 1_555 1_555

#END
