
#######################################################################
#
#                 Cambridge Crystallographic Data Centre
#                                CCDC 
#
#######################################################################
#
# If this CIF has been generated from an entry in the Cambridge 
# Structural Database, then it will include bibliographic, chemical, 
# crystal, experimental, refinement or atomic coordinate data resulting 
# from the CCDC's data processing and validation procedures.
#
#######################################################################

data_PAJFAH
_symmetry_cell_setting           orthorhombic
_symmetry_space_group_name_H-M   'P 21 21 21'
_symmetry_Int_Tables_number      19
_space_group_name_Hall           'P 2ac 2ab'
loop_
_symmetry_equiv_pos_site_id
_symmetry_equiv_pos_as_xyz
1 x,y,z
2 1/2+x,1/2-y,-z
3 -x,1/2+y,1/2-z
4 1/2-x,-y,1/2+z
_cell_length_a                   5.172(1)
_cell_length_b                   8.691(1)
_cell_length_c                   25.511(3)
_cell_angle_alpha                90
_cell_angle_beta                 90
_cell_angle_gamma                90
_cell_volume                     1146.72
loop_
_atom_site_label
_atom_site_type_symbol
_atom_site_fract_x
_atom_site_fract_y
_atom_site_fract_z
O1 O 0.5887(3) 0.3795(1) 0.21329(5)
O2 O 0.2958(2) 0.2318(1) 0.17349(5)
O3 O 0.4633(3) 0.0526(1) 0.02695(4)
N1 N 0.6690(3) 0.1402(2) 0.10013(5)
C1 C 0.5071(3) 0.2899(2) 0.17513(6)
C2 C 0.7010(3) 0.2793(2) 0.13093(6)
C3 C 0.6436(4) 0.4062(2) 0.08964(7)
C4 C 0.4666(4) 0.3265(2) 0.05028(7)
C5 C 0.5284(3) 0.1569(2) 0.05647(6)
C6 C 0.5693(3) -0.2867(2) -0.07886(5)
C7 C 0.7011(3) -0.3015(2) -0.13270(5)
C8 C 0.6348(3) -0.1595(2) -0.16657(6)
C9 C 0.3945(4) -0.2075(2) -0.19703(6)
C10 C 0.4047(3) -0.3811(2) -0.19645(5)
O4 O 0.7084(2) -0.2377(1) -0.04190(4)
O5 O 0.3336(2) -0.3167(1) -0.07651(4)
O6 O 0.2609(3) -0.4696(1) -0.22107(4)
N2 N 0.5919(3) -0.4257(1) -0.16387(5)
Li1 Li 0.5569(5) -0.1702(3) 0.02436(9)
H1 H 0.731(4) 0.050(2) 0.1104(7)
H2 H 0.874(3) 0.290(2) 0.1439(6)
H3 H 0.564(3) 0.504(2) 0.1075(6)
H4 H 0.810(4) 0.434(2) 0.0723(7)
H5 H 0.287(5) 0.345(2) 0.062(17)
H6 H 0.483(3) 0.360(2) 0.0150(6)
H7 H 0.645(4) -0.525(2) -0.1598(6)
H8 H 0.886(3) -0.312(2) -0.1263(5)
H9 H 0.765(4) -0.134(2) -0.1905(7)
H10 H 0.596(4) -0.060(2) -0.1428(6)
H11 H 0.379(4) -0.171(2) -0.2332(6)
H12 H 0.236(4) -0.175(2) -0.1788(7)
H13 H 0.465(5) 0.393(2) 0.2357(7)
Li1A Li 1.0569(5) -0.3298(3) -0.02436(9)
Li1A_2 Li 0.0569(5) -0.3298(3) -0.02436(9)
O4A O 0.2084(2) -0.2623(1) 0.04190(4)
O5A O 0.8336(2) -0.1833(1) 0.07651(4)
loop_
_geom_bond_atom_site_label_1
_geom_bond_atom_site_label_2
_geom_bond_site_symmetry_1
_geom_bond_site_symmetry_2
O1 C1 1_555 1_555
O2 C1 1_555 1_555
O3 C5 1_555 1_555
N1 C2 1_555 1_555
C1 C2 1_555 1_555
C2 C3 1_555 1_555
C3 C4 1_555 1_555
C4 C5 1_555 1_555
C5 N1 1_555 1_555
C6 C7 1_555 1_555
C7 C8 1_555 1_555
C8 C9 1_555 1_555
C9 C10 1_555 1_555
C10 O6 1_555 1_555
O4 C6 1_555 1_555
O5 C6 1_555 1_555
N2 C7 1_555 1_555
Li1 O3 1_555 1_555
H1 N1 1_555 1_555
H2 C2 1_555 1_555
H3 C3 1_555 1_555
H4 C3 1_555 1_555
H5 C4 1_555 1_555
H6 C4 1_555 1_555
H7 N2 1_555 1_555
H8 C7 1_555 1_555
H9 C8 1_555 1_555
H10 C8 1_555 1_555
H11 C9 1_555 1_555
H12 C9 1_555 1_555
H13 O1 1_555 1_555
Li1A O4 1_555 1_555
Li1A_2 O5 1_555 1_555
O4A Li1 1_555 1_555
O5A Li1 1_555 1_555
C10 N2 1_555 1_555
O4 Li1 1_555 1_555
Li1A_2 O4A 1_555 1_555

#END
