
#######################################################################
#
#                 Cambridge Crystallographic Data Centre
#                                CCDC 
#
#######################################################################
#
# If this CIF has been generated from an entry in the Cambridge 
# Structural Database, then it will include bibliographic, chemical, 
# crystal, experimental, refinement or atomic coordinate data resulting 
# from the CCDC's data processing and validation procedures.
#
#######################################################################

data_PAJFEL
_symmetry_cell_setting           monoclinic
_symmetry_space_group_name_H-M   'C 2'
_symmetry_Int_Tables_number      5
_space_group_name_Hall           'C 2y'
loop_
_symmetry_equiv_pos_site_id
_symmetry_equiv_pos_as_xyz
1 x,y,z
2 1/2+x,1/2+y,z
3 -x,y,-z
4 1/2-x,1/2+y,-z
_cell_length_a                   15.013(2)
_cell_length_b                   8.966(1)
_cell_length_c                   13.103(1)
_cell_angle_alpha                90
_cell_angle_beta                 137.86(1)
_cell_angle_gamma                90
_cell_volume                     1183.38
loop_
_atom_site_label
_atom_site_type_symbol
_atom_site_fract_x
_atom_site_fract_y
_atom_site_fract_z
O1 O 0.7193(1) 0.6990(2) 0.6385(1)
O2 O 0.9380(1) 0.7128(2) 0.8045(1)
O3 O 0.5896(1) 0.5594(2) 0.1801(1)
N1 N 0.6856(1) 0.5712(2) 0.4196(1)
C1 C 0.8267(1) 0.6711(2) 0.6812(2)
C2 C 0.8165(1) 0.5759(2) 0.5773(2)
C3 C 0.9046(2) 0.6318(2) 0.5643(2)
C4 C 0.8302(2) 0.5827(2) 0.4061(2)
C5 C 0.6871(2) 0.5699(2) 0.3186(2)
O4 O 0.7767(1) 0.7940(2) 0.8591(1)
O5 O 0.5587(1) 0.7930(2) 0.6986(1)
O6 O 0.9277(1) 0.9594(2) 1.3200(1)
N2 N 0.8287(1) 0.8332(2) 1.1049(1)
C6 C 0.6713(2) 0.7920(2) 0.8266(2)
C7 C 0.6985(1) 0.7790(2) 0.9635(2)
C8 C 0.6033(2) 0.8719(2) 0.9491(2)
C9 C 0.6873(2) 0.9114(2) 1.1130(2)
C10 C 0.8287(2) 0.9064(2) 1.1937(2)
Na1 Na 1.00000 0.87730 1.00000
Na2 Na 0.50000 0.6363(1) 0.50000
H1 H 0.619(2) 0.559(2) 0.394(2)
H2 H 0.847(2) 0.472(2) 0.625(2)
H3 H 0.902(2) 0.754(3) 0.559(2)
H4 H 0.991(2) 0.588(2) 0.642(2)
H5 H 0.839(2) 0.644(3) 0.352(2)
H6 H 0.863(2) 0.481(3) 0.412(2)
H7 H 0.898(2) 0.808(2) 1.139(2)
H8 H 0.690(2) 0.672(2) 0.970(2)
H9 H 0.526(2) 0.808(3) 0.901(2)
H10 H 0.578(2) 0.966(2) 0.886(2)
H11 H 0.677(2) 0.834(2) 1.161(2)
H12 H 0.668(2) 0.996(3) 1.125(2)
H13 H 0.754(2) 0.761(3) 0.762(2)
O1B O 1.2807(1) 0.6990(2) 1.3615(1)
O2B O 1.0620(1) 0.7128(2) 1.1955(1)
O3B O 1.4104(1) 0.5594(2) 1.8199(1)
N1B N 1.3144(1) 0.5712(2) 1.5804(1)
C1B C 1.1733(1) 0.6711(2) 1.3188(2)
C2B C 1.1835(1) 0.5759(2) 1.4227(2)
C3B C 1.0954(2) 0.6318(2) 1.4357(2)
C4B C 1.1698(2) 0.5827(2) 1.5939(2)
C5B C 1.3129(2) 0.5699(2) 1.6814(2)
H1B H 1.381(2) 0.559(2) 1.606(2)
H2B H 1.153(2) 0.472(2) 1.375(2)
H3B H 1.098(2) 0.754(3) 1.441(2)
H4B H 1.009(2) 0.588(2) 1.358(2)
H5B H 1.161(2) 0.644(3) 1.648(2)
H6B H 1.137(2) 0.481(3) 1.588(2)
O4B O 1.2233(1) 0.7940(2) 1.1409(1)
O5B O 1.4413(1) 0.7930(2) 1.3014(1)
O6B O 1.0723(1) 0.9594(2) 0.6800(1)
N2B N 1.1713(1) 0.8332(2) 0.8951(1)
C6B C 1.3287(2) 0.7920(2) 1.1734(2)
C7B C 1.3015(1) 0.7790(2) 1.0365(2)
C8B C 1.3967(2) 0.8719(2) 1.0509(2)
C9B C 1.3127(2) 0.9114(2) 0.8870(2)
C10B C 1.1713(2) 0.9064(2) 0.8063(2)
H7B H 1.102(2) 0.808(2) 0.861(2)
H8B H 1.310(2) 0.672(2) 1.030(2)
H9B H 1.474(2) 0.808(3) 1.099(2)
H10B H 1.422(2) 0.966(2) 1.114(2)
H11B H 1.323(2) 0.834(2) 0.839(2)
H12B H 1.332(2) 0.996(3) 0.875(2)
H13B H 1.246(2) 0.761(3) 1.238(2)
Na1A Na 0.50000 0.37730 0.00000
Na2A Na 1.00000 1.1363(1) 1.50000
O3A O 1.0896(1) 1.0594(2) 1.1801(1)
O3C O 0.9104(1) 1.0594(2) 0.8199(1)
O1B_2 O 0.2807(1) 0.6990(2) 0.3615(1)
O5B_2 O 0.4413(1) 0.7930(2) 0.3014(1)
O6A O 0.4277(1) 0.4594(2) 0.3200(1)
O6C O 0.5723(1) 0.4594(2) 0.6800(1)
Na2_2 Na 1.50000 0.6363(1) 1.50000
Na1A_2 Na 1.50000 0.37730 2.00000
Na2A_2 Na 1.00000 1.1363(1) 0.50000
loop_
_geom_bond_atom_site_label_1
_geom_bond_atom_site_label_2
_geom_bond_site_symmetry_1
_geom_bond_site_symmetry_2
O1 C1 1_555 1_555
O2 C1 1_555 1_555
O3 C5 1_555 1_555
N1 C2 1_555 1_555
C1 C2 1_555 1_555
C2 C3 1_555 1_555
C3 C4 1_555 1_555
C4 C5 1_555 1_555
C5 N1 1_555 1_555
O4 C6 1_555 1_555
O5 C6 1_555 1_555
O6 C10 1_555 1_555
N2 C7 1_555 1_555
C6 C7 1_555 1_555
C7 C8 1_555 1_555
C8 C9 1_555 1_555
C9 C10 1_555 1_555
C10 N2 1_555 1_555
Na1 O2 1_555 1_555
Na2 O1 1_555 1_555
H1 N1 1_555 1_555
H2 C2 1_555 1_555
H3 C3 1_555 1_555
H4 C3 1_555 1_555
H5 C4 1_555 1_555
H6 C4 1_555 1_555
H7 N2 1_555 1_555
H8 C7 1_555 1_555
H9 C8 1_555 1_555
H10 C8 1_555 1_555
H11 C9 1_555 1_555
H12 C9 1_555 1_555
H13 O4 1_555 1_555
O1B C1B 1_555 1_555
O2B Na1 1_555 1_555
O3B C5B 1_555 1_555
N1B C2B 1_555 1_555
C1B O2B 1_555 1_555
C2B C1B 1_555 1_555
C3B C2B 1_555 1_555
C4B C3B 1_555 1_555
C5B N1B 1_555 1_555
H1B N1B 1_555 1_555
H2B C2B 1_555 1_555
H3B C3B 1_555 1_555
H4B C3B 1_555 1_555
H5B C4B 1_555 1_555
H6B C4B 1_555 1_555
O4B Na1 1_555 1_555
O5B C6B 1_555 1_555
O6B C10B 1_555 1_555
N2B C7B 1_555 1_555
C6B O4B 1_555 1_555
C7B C6B 1_555 1_555
C8B C7B 1_555 1_555
C9B C8B 1_555 1_555
C10B N2B 1_555 1_555
H7B N2B 1_555 1_555
H8B C7B 1_555 1_555
H9B C8B 1_555 1_555
H10B C8B 1_555 1_555
H11B C9B 1_555 1_555
H12B C9B 1_555 1_555
H13B O4B 1_555 1_555
Na1A O3 1_555 1_555
Na2A O6 1_555 1_555
O3A Na1 1_555 1_555
O3C Na1 1_555 1_555
O1B_2 Na2 1_555 1_555
O5B_2 Na2 1_555 1_555
O6A Na2 1_555 1_555
O6C Na2 1_555 1_555
Na2_2 O1B 1_555 1_555
Na1A_2 O3B 1_555 1_555
Na2A_2 O6B 1_555 1_555
O4 Na1 1_555 1_555
O5 Na2 1_555 1_555
C4B C5B 1_555 1_555
O5B Na2_2 1_555 1_555
C9B C10B 1_555 1_555

#END
