
#######################################################################
#
#                 Cambridge Crystallographic Data Centre
#                                CCDC 
#
#######################################################################
#
# If this CIF has been generated from an entry in the Cambridge 
# Structural Database, then it will include bibliographic, chemical, 
# crystal, experimental, refinement or atomic coordinate data resulting 
# from the CCDC's data processing and validation procedures.
#
#######################################################################

data_PAJGOX
_symmetry_cell_setting           monoclinic
_symmetry_space_group_name_H-M   'P 21/c'
_symmetry_Int_Tables_number      14
_space_group_name_Hall           '-P 2ybc'
loop_
_symmetry_equiv_pos_site_id
_symmetry_equiv_pos_as_xyz
1 x,y,z
2 x,1/2-y,1/2+z
3 -x,-y,-z
4 -x,1/2+y,1/2-z
_cell_length_a                   8.2682(17)
_cell_length_b                   20.593(4)
_cell_length_c                   8.3738(17)
_cell_angle_alpha                90
_cell_angle_beta                 103.273(4)
_cell_angle_gamma                90
_cell_volume                     1387.7
loop_
_atom_site_label
_atom_site_type_symbol
_atom_site_fract_x
_atom_site_fract_y
_atom_site_fract_z
Co1 Co 0.5000 0.5000 0.0000
N1 N 0.4034(2) 0.58620(8) 0.4340(2)
N2 N 0.5715(2) 0.58709(10) 0.4858(3)
N3 N 0.4957(2) 0.54301(8) 0.2346(2)
N4 N -0.2435(2) 0.84488(9) 0.3283(2)
N5 N -0.3620(2) 0.80809(9) 0.3736(3)
N6 N -0.3808(2) 0.91232(8) 0.4464(2)
N7 N 0.2645(2) 0.54614(9) -0.0864(2)
N8 N 0.1417(2) 0.52611(9) -0.1685(2)
N9 N 0.0185(3) 0.50864(12) -0.2576(4)
C1 C 0.1839(3) 0.66462(10) 0.4614(3)
C2 C 0.0330(3) 0.65135(11) 0.3566(3)
H1 H -0.0010 0.6075 0.3350
C3 C -0.0697(3) 0.70118(12) 0.2824(3)
H2 H -0.1730 0.6912 0.2099
C4 C -0.0237(3) 0.76489(11) 0.3127(3)
C5 C 0.1259(3) 0.77850(12) 0.4197(4)
H3 H 0.1588 0.8224 0.4425
C6 C 0.2290(3) 0.72854(12) 0.4945(3)
H4 H 0.3312 0.7385 0.5689
C7 C 0.2949(3) 0.60921(12) 0.5384(3)
H5 H 0.3644 0.6237 0.6451
H6 H 0.2249 0.5727 0.5600
C8 C -0.1352(3) 0.81853(13) 0.2272(3)
H7 H -0.0656 0.8540 0.1994
H8 H -0.2049 0.8016 0.1234
C9 C 0.6197(3) 0.56050(12) 0.3618(3)
H9 H 0.7335 0.5541 0.3618
C10 C 0.3613(3) 0.56009(11) 0.2858(3)
H10 H 0.2503 0.5544 0.2247
C11 C -0.4403(3) 0.85116(10) 0.4447(3)
H11 H -0.5312 0.8401 0.4911
C12 C -0.2571(3) 0.90603(11) 0.3714(3)
H12 H -0.1880 0.9405 0.3514
N1B N 0.5966(2) 0.41380(8) -0.4340(2)
N2B N 0.4285(2) 0.41291(10) -0.4858(3)
N3B N 0.5043(2) 0.45699(8) -0.2346(2)
N4B N 1.2435(2) 0.15512(9) -0.3283(2)
N5B N 1.3620(2) 0.19191(9) -0.3736(3)
N6B N 1.3808(2) 0.08768(8) -0.4464(2)
C1B C 0.8161(3) 0.33538(10) -0.4614(3)
C2B C 0.9670(3) 0.34865(11) -0.3566(3)
H1B H 1.0010 0.3925 -0.3350
C3B C 1.0697(3) 0.29882(12) -0.2824(3)
H2B H 1.1730 0.3088 -0.2099
C4B C 1.0237(3) 0.23511(11) -0.3127(3)
C5B C 0.8741(3) 0.22150(12) -0.4197(4)
H3B H 0.8412 0.1776 -0.4425
C6B C 0.7710(3) 0.27146(12) -0.4945(3)
H4B H 0.6688 0.2615 -0.5689
C7B C 0.7051(3) 0.39079(12) -0.5384(3)
H5B H 0.6356 0.3763 -0.6451
H6B H 0.7751 0.4273 -0.5600
C8B C 1.1352(3) 0.18147(13) -0.2272(3)
H7B H 1.0656 0.1460 -0.1994
H8B H 1.2049 0.1984 -0.1234
C9B C 0.3803(3) 0.43950(12) -0.3618(3)
H9B H 0.2665 0.4459 -0.3618
C10B C 0.6387(3) 0.43991(11) -0.2858(3)
H10B H 0.7497 0.4456 -0.2247
C11B C 1.4403(3) 0.14884(10) -0.4447(3)
H11B H 1.5312 0.1599 -0.4911
C12B C 1.2571(3) 0.09397(11) -0.3714(3)
H12B H 1.1880 0.0595 -0.3514
N7B N 0.7355(2) 0.45386(9) 0.0864(2)
N8B N 0.8583(2) 0.47389(9) 0.1685(2)
N9B N 0.9815(3) 0.49136(12) 0.2576(4)
N6A N 0.6192(2) 0.58768(8) -0.0536(2)
N6C N 0.3808(2) 0.41232(8) 0.0536(2)
Co1A Co -0.5000 1.0000 0.5000
Co1A_2 Co 1.5000 0.0000 -0.5000
loop_
_geom_bond_atom_site_label_1
_geom_bond_atom_site_label_2
_geom_bond_site_symmetry_1
_geom_bond_site_symmetry_2
Co1 N3 1_555 1_555
N1 N2 1_555 1_555
N2 C9 1_555 1_555
N3 C9 1_555 1_555
N4 N5 1_555 1_555
N5 C11 1_555 1_555
N6 C11 1_555 1_555
N7 Co1 1_555 1_555
N8 N7 1_555 1_555
N9 N8 1_555 1_555
C1 C2 1_555 1_555
C2 H1 1_555 1_555
C3 C2 1_555 1_555
H2 C3 1_555 1_555
C4 C3 1_555 1_555
C5 C4 1_555 1_555
H3 C5 1_555 1_555
C6 C1 1_555 1_555
H4 C6 1_555 1_555
C7 N1 1_555 1_555
H5 C7 1_555 1_555
H6 C7 1_555 1_555
C8 N4 1_555 1_555
H7 C8 1_555 1_555
H8 C8 1_555 1_555
C9 H9 1_555 1_555
C10 N1 1_555 1_555
H10 C10 1_555 1_555
C11 H11 1_555 1_555
C12 N4 1_555 1_555
H12 C12 1_555 1_555
N1B N2B 1_555 1_555
N2B C9B 1_555 1_555
N3B Co1 1_555 1_555
N4B N5B 1_555 1_555
N5B C11B 1_555 1_555
N6B C11B 1_555 1_555
C1B C2B 1_555 1_555
C2B H1B 1_555 1_555
C3B C2B 1_555 1_555
H2B C3B 1_555 1_555
C4B C3B 1_555 1_555
C5B C4B 1_555 1_555
H3B C5B 1_555 1_555
C6B C1B 1_555 1_555
H4B C6B 1_555 1_555
C7B N1B 1_555 1_555
H5B C7B 1_555 1_555
H6B C7B 1_555 1_555
C8B N4B 1_555 1_555
H7B C8B 1_555 1_555
H8B C8B 1_555 1_555
C9B N3B 1_555 1_555
H9B C9B 1_555 1_555
C10B N1B 1_555 1_555
H10B C10B 1_555 1_555
C11B H11B 1_555 1_555
C12B N4B 1_555 1_555
H12B C12B 1_555 1_555
N7B Co1 1_555 1_555
N8B N7B 1_555 1_555
N9B N8B 1_555 1_555
N6A Co1 1_555 1_555
N6C Co1 1_555 1_555
Co1A N6 1_555 1_555
Co1A_2 N6B 1_555 1_555
N3 C10 1_555 1_555
N6 C12 1_555 1_555
C1 C7 1_555 1_555
C4 C8 1_555 1_555
C5 C6 1_555 1_555
N3B C10B 1_555 1_555
N6B C12B 1_555 1_555
C1B C7B 1_555 1_555
C4B C8B 1_555 1_555
C5B C6B 1_555 1_555

#END
