
#######################################################################
#
#                 Cambridge Crystallographic Data Centre
#                                CCDC 
#
#######################################################################
#
# If this CIF has been generated from an entry in the Cambridge 
# Structural Database, then it will include bibliographic, chemical, 
# crystal, experimental, refinement or atomic coordinate data resulting 
# from the CCDC's data processing and validation procedures.
#
#######################################################################

data_PAJHEO
_symmetry_cell_setting           orthorhombic
_symmetry_space_group_name_H-M   'P n n a'
_symmetry_Int_Tables_number      52
_space_group_name_Hall           '-P 2a 2bc'
loop_
_symmetry_equiv_pos_site_id
_symmetry_equiv_pos_as_xyz
1 x,y,z
2 1/2+x,y,-z
3 1/2+x,1/2-y,1/2+z
4 -x,1/2+y,1/2+z
5 -x,-y,-z
6 1/2-x,-y,z
7 1/2-x,1/2+y,1/2-z
8 x,1/2-y,1/2-z
_cell_length_a                   29.5645(13)
_cell_length_b                   18.0613(7)
_cell_length_c                   6.5961(3)
_cell_angle_alpha                90
_cell_angle_beta                 90
_cell_angle_gamma                90
_cell_volume                     3522.14
loop_
_atom_site_label
_atom_site_type_symbol
_atom_site_fract_x
_atom_site_fract_y
_atom_site_fract_z
Ni1 Ni 0.306836(13) 0.52748(2) 0.99129(6)
O1 O 0.34417(7) 0.44444(12) 0.8217(4)
O2 O 0.28576(8) 0.38532(13) 0.6797(4)
O3 O 0.49061(9) 0.19494(15) 0.8146(5)
O4 O 0.27473(7) 0.61324(11) 1.1358(3)
O5 O 0.20897(7) 0.55445(11) 1.1890(4)
O6 O 0.07096(9) 0.69074(16) 1.2370(5)
N1 N 0.36813(9) 0.53974(13) 1.1381(4)
N2 N 0.33847(9) 0.60372(14) 0.7961(4)
N3 N 0.47096(13) 0.2500 0.7500
N4 N 0.09075(13) 0.7500 1.2500
C1 C 0.32311(12) 0.6383(2) 0.6334(6)
H1 H 0.2924 0.6356 0.6036
C2 C 0.35140(14) 0.6789(2) 0.5043(6)
H2 H 0.3393 0.7029 0.3921
C3 C 0.39653(13) 0.6832(2) 0.5424(6)
H3 H 0.4155 0.7093 0.4556
C4 C 0.41405(12) 0.64771(19) 0.7145(5)
C5 C 0.46118(13) 0.6477(2) 0.7675(6)
H4 H 0.4817 0.6723 0.6847
C6 C 0.47613(12) 0.6129(2) 0.9343(6)
H5 H 0.5069 0.6132 0.9631
C7 C 0.44580(11) 0.5754(2) 1.0689(6)
C8 C 0.45863(13) 0.5397(2) 1.2492(7)
H6 H 0.4889 0.5392 1.2882
C9 C 0.42694(14) 0.5060(2) 1.3670(6)
H7 H 0.4355 0.4819 1.4857
C10 C 0.38160(12) 0.50766(19) 1.3086(5)
H8 H 0.3601 0.4856 1.3920
C11 C 0.39953(11) 0.57365(17) 1.0208(5)
C12 C 0.38359(11) 0.60936(17) 0.8385(5)
C13 C 0.32519(11) 0.38840(16) 0.7474(5)
C14 C 0.35205(10) 0.31691(16) 0.7441(4)
C15 C 0.39883(10) 0.31726(17) 0.7455(5)
H9 H 0.4148 0.3616 0.7434
C16 C 0.42136(15) 0.2500 0.7500
C17 C 0.32898(15) 0.2500 0.7500
H10 H 0.2975 0.2500 0.7500
C18 C 0.23344(10) 0.61052(16) 1.1809(5)
C19 C 0.20974(10) 0.68353(16) 1.2238(4)
C20 C 0.16264(10) 0.68355(17) 1.2263(4)
H11 H 0.1465 0.6396 1.2123
C21 C 0.14037(14) 0.7500 1.2500
C22 C 0.23292(14) 0.7500 1.2500
H12 H 0.2644 0.7500 1.2500
O7 O 0.2500 0.5000 0.8224(5)
H13 H 0.2631(13) 0.4662(17) 0.754(6)
O3G O 0.49061(9) 0.30506(15) 0.6854(5)
C15G C 0.39883(10) 0.18274(17) 0.7545(5)
C14G C 0.35205(10) 0.18309(16) 0.7559(4)
C13G C 0.32519(11) 0.11160(16) 0.7526(5)
O1G O 0.34417(7) 0.05556(12) 0.6783(4)
O2G O 0.28576(8) 0.11468(13) 0.8203(4)
H9G H 0.4148 0.1384 0.7566
O6G O 0.07096(9) 0.80926(16) 1.2630(5)
C20G C 0.16264(10) 0.81645(17) 1.2737(4)
C19G C 0.20974(10) 0.81647(16) 1.2762(4)
C18G C 0.23344(10) 0.88948(16) 1.3191(5)
O4G O 0.27473(7) 0.88676(11) 1.3642(3)
O5G O 0.20897(7) 0.94555(11) 1.3110(4)
H11G H 0.1465 0.8604 1.2877
H13E H 0.2369(13) 0.5338(17) 0.754(6)
Ni1G Ni 0.306836(13) -0.02748(2) 0.50871(6)
N1G N 0.36813(9) -0.03974(13) 0.3619(4)
N2G N 0.33847(9) -0.10372(14) 0.7039(4)
C1G C 0.32311(12) -0.1383(2) 0.8666(6)
H1G H 0.2924 -0.1356 0.8964
C2G C 0.35140(14) -0.1789(2) 0.9957(6)
H2G H 0.3393 -0.2029 1.1079
C3G C 0.39653(13) -0.1832(2) 0.9576(6)
H3G H 0.4155 -0.2093 1.0444
C4G C 0.41405(12) -0.14771(19) 0.7855(5)
C5G C 0.46118(13) -0.1477(2) 0.7325(6)
H4G H 0.4817 -0.1723 0.8153
C6G C 0.47613(12) -0.1129(2) 0.5657(6)
H5G H 0.5069 -0.1132 0.5369
C7G C 0.44580(11) -0.0754(2) 0.4311(6)
C8G C 0.45863(13) -0.0397(2) 0.2508(7)
H6G H 0.4889 -0.0392 0.2118
C9G C 0.42694(14) -0.0060(2) 0.1330(6)
H7G H 0.4355 0.0181 0.0143
C10G C 0.38160(12) -0.00766(19) 0.1914(5)
H8G H 0.3601 0.0144 0.1080
C11G C 0.39953(11) -0.07365(17) 0.4792(5)
C12G C 0.38359(11) -0.10936(17) 0.6615(5)
O5E O 0.29103(7) 0.44555(11) 1.1890(4)
Ni1E Ni 0.193164(13) 0.47252(2) 0.99129(6)
Ni1G_2 Ni 0.306836(13) 0.97252(2) 1.50871(6)
Ni1F Ni 0.193164(13) 1.02748(2) 1.50871(6)
O4G_2 O 0.27473(7) -0.11324(11) 0.3642(3)
O5F O 0.29103(7) 0.05445(11) 0.3110(4)
O7F O 0.2500 0.0000 0.6776(5)
H13F H 0.2369(13) -0.0338(17) 0.746(6)
H13G H 0.2631(13) 0.0338(17) 0.746(6)
loop_
_geom_bond_atom_site_label_1
_geom_bond_atom_site_label_2
_geom_bond_site_symmetry_1
_geom_bond_site_symmetry_2
Ni1 O1 1_555 1_555
O1 C13 1_555 1_555
O2 C13 1_555 1_555
O3 N3 1_555 1_555
O4 Ni1 1_555 1_555
O5 C18 1_555 1_555
O6 N4 1_555 1_555
N1 Ni1 1_555 1_555
N2 Ni1 1_555 1_555
N3 C16 1_555 1_555
N4 C21 1_555 1_555
C1 N2 1_555 1_555
H1 C1 1_555 1_555
C2 C1 1_555 1_555
H2 C2 1_555 1_555
C3 C2 1_555 1_555
H3 C3 1_555 1_555
C4 C3 1_555 1_555
C5 C4 1_555 1_555
H4 C5 1_555 1_555
C6 C5 1_555 1_555
H5 C6 1_555 1_555
C7 C6 1_555 1_555
C8 C7 1_555 1_555
H6 C8 1_555 1_555
C9 C8 1_555 1_555
H7 C9 1_555 1_555
C10 N1 1_555 1_555
H8 C10 1_555 1_555
C11 N1 1_555 1_555
C12 N2 1_555 1_555
C13 C14 1_555 1_555
C14 C15 1_555 1_555
C15 H9 1_555 1_555
C16 C15 1_555 1_555
C17 C14 1_555 1_555
H10 C17 1_555 1_555
C18 O4 1_555 1_555
C19 C18 1_555 1_555
C20 C19 1_555 1_555
H11 C20 1_555 1_555
C21 C20 1_555 1_555
C22 C19 1_555 1_555
H12 C22 1_555 1_555
O7 Ni1 1_555 1_555
H13 O7 1_555 1_555
O3G N3 1_555 1_555
C15G C16 1_555 1_555
C14G C17 1_555 1_555
C13G C14G 1_555 1_555
O1G C13G 1_555 1_555
O2G C13G 1_555 1_555
H9G C15G 1_555 1_555
O6G N4 1_555 1_555
C20G C21 1_555 1_555
C19G C22 1_555 1_555
C18G C19G 1_555 1_555
O4G C18G 1_555 1_555
O5G C18G 1_555 1_555
H11G C20G 1_555 1_555
H13E O7 1_555 1_555
Ni1G O1G 1_555 1_555
N1G Ni1G 1_555 1_555
N2G Ni1G 1_555 1_555
C1G N2G 1_555 1_555
H1G C1G 1_555 1_555
C2G C1G 1_555 1_555
H2G C2G 1_555 1_555
C3G C2G 1_555 1_555
H3G C3G 1_555 1_555
C4G C3G 1_555 1_555
C5G C4G 1_555 1_555
H4G C5G 1_555 1_555
C6G C5G 1_555 1_555
H5G C6G 1_555 1_555
C7G C6G 1_555 1_555
C8G C7G 1_555 1_555
H6G C8G 1_555 1_555
C9G C8G 1_555 1_555
H7G C9G 1_555 1_555
C10G N1G 1_555 1_555
H8G C10G 1_555 1_555
C11G N1G 1_555 1_555
C12G N2G 1_555 1_555
O5E Ni1 1_555 1_555
Ni1E O5 1_555 1_555
Ni1G_2 O4G 1_555 1_555
Ni1F O5G 1_555 1_555
O4G_2 Ni1G 1_555 1_555
O5F Ni1G 1_555 1_555
O7F Ni1G 1_555 1_555
H13F O7F 1_555 1_555
H13G O7F 1_555 1_555
C4 C12 1_555 1_555
C7 C11 1_555 1_555
C9 C10 1_555 1_555
C11 C12 1_555 1_555
O7 Ni1E 1_555 1_555
C15G C14G 1_555 1_555
C20G C19G 1_555 1_555
C4G C12G 1_555 1_555
C7G C11G 1_555 1_555
C9G C10G 1_555 1_555
C11G C12G 1_555 1_555

#END
