
#######################################################################
#
#                 Cambridge Crystallographic Data Centre
#                                CCDC 
#
#######################################################################
#
# If this CIF has been generated from an entry in the Cambridge 
# Structural Database, then it will include bibliographic, chemical, 
# crystal, experimental, refinement or atomic coordinate data resulting 
# from the CCDC's data processing and validation procedures.
#
#######################################################################

data_PAJHOY
_symmetry_cell_setting           orthorhombic
_symmetry_space_group_name_H-M   'P b c a'
_symmetry_Int_Tables_number      61
_space_group_name_Hall           '-P 2ac 2ab'
loop_
_symmetry_equiv_pos_site_id
_symmetry_equiv_pos_as_xyz
1 x,y,z
2 1/2+x,y,1/2-z
3 x,1/2-y,1/2+z
4 1/2-x,1/2+y,z
5 -x,-y,-z
6 1/2-x,-y,1/2+z
7 -x,1/2+y,1/2-z
8 1/2+x,1/2-y,-z
_cell_length_a                   9.5540(5)
_cell_length_b                   15.4561(11)
_cell_length_c                   18.4412(9)
_cell_angle_alpha                90
_cell_angle_beta                 90
_cell_angle_gamma                90
_cell_volume                     2723.17
loop_
_atom_site_label
_atom_site_type_symbol
_atom_site_fract_x
_atom_site_fract_y
_atom_site_fract_z
Cu1 Cu 0.21624(3) 0.875133(18) 0.342460(15)
Cl1 Cl 0.20368(7) 0.71854(4) 0.31943(4)
N1 N 0.0401(2) 0.89634(13) 0.41078(11)
N2 N 0.3035(2) 0.85807(13) 0.44281(11)
N3 N 0.3999(2) 0.91447(13) 0.30275(10)
N4 N 0.6030(2) 0.90960(13) 0.24255(11)
C1 C -0.0904(3) 0.91788(16) 0.39392(15)
H1 H -0.1123 0.9287 0.3456
C2 C -0.1961(3) 0.92497(18) 0.44612(17)
H2 H -0.2864 0.9405 0.4323
C3 C -0.1665(3) 0.90903(19) 0.51732(16)
H3 H -0.2365 0.9133 0.5522
C4 C -0.0294(3) 0.88618(16) 0.53755(14)
C5 C 0.0129(3) 0.86706(19) 0.61057(15)
H4 H -0.0531 0.8690 0.6476
C6 C 0.1458(3) 0.8464(2) 0.62631(15)
H5 H 0.1703 0.8347 0.6741
C7 C 0.2504(3) 0.84217(17) 0.57104(14)
C8 C 0.3919(3) 0.82269(17) 0.58382(15)
H6 H 0.4227 0.8108 0.6306
C9 C 0.4833(3) 0.82133(17) 0.52747(16)
H7 H 0.5772 0.8086 0.5356
C10 C 0.4362(3) 0.83911(17) 0.45716(15)
H8 H 0.5001 0.8376 0.4191
C11 C 0.2119(3) 0.85946(15) 0.49912(14)
C12 C 0.0698(3) 0.88142(14) 0.48163(13)
C13 C 0.4912(2) 0.86555(16) 0.26610(13)
H9 H 0.4783 0.8067 0.2578
C14 C 0.4584(3) 0.99542(17) 0.30289(15)
H10 H 0.4199 1.0443 0.3244
C15 C 0.5817(3) 0.99249(16) 0.26647(14)
H11 H 0.6417 1.0390 0.2590
N4A N 0.1030(2) 0.90960(13) 0.25745(11)
Cu1A Cu 0.71624(3) 0.875133(18) 0.157540(15)
loop_
_geom_bond_atom_site_label_1
_geom_bond_atom_site_label_2
_geom_bond_site_symmetry_1
_geom_bond_site_symmetry_2
Cu1 Cl1 1_555 1_555
N1 Cu1 1_555 1_555
N2 Cu1 1_555 1_555
N3 Cu1 1_555 1_555
N4 C13 1_555 1_555
C1 N1 1_555 1_555
H1 C1 1_555 1_555
C2 C1 1_555 1_555
H2 C2 1_555 1_555
C3 C2 1_555 1_555
H3 C3 1_555 1_555
C4 C3 1_555 1_555
C5 C4 1_555 1_555
H4 C5 1_555 1_555
C6 C5 1_555 1_555
H5 C6 1_555 1_555
C7 C6 1_555 1_555
C8 C7 1_555 1_555
H6 C8 1_555 1_555
C9 C8 1_555 1_555
H7 C9 1_555 1_555
C10 N2 1_555 1_555
H8 C10 1_555 1_555
C11 N2 1_555 1_555
C12 N1 1_555 1_555
C13 N3 1_555 1_555
H9 C13 1_555 1_555
C14 N3 1_555 1_555
H10 C14 1_555 1_555
C15 N4 1_555 1_555
H11 C15 1_555 1_555
N4A Cu1 1_555 1_555
Cu1A N4 1_555 1_555
C4 C12 1_555 1_555
C7 C11 1_555 1_555
C9 C10 1_555 1_555
C11 C12 1_555 1_555
C14 C15 1_555 1_555

#END
