
#######################################################################
#
#                 Cambridge Crystallographic Data Centre
#                                CCDC 
#
#######################################################################
#
# If this CIF has been generated from an entry in the Cambridge 
# Structural Database, then it will include bibliographic, chemical, 
# crystal, experimental, refinement or atomic coordinate data resulting 
# from the CCDC's data processing and validation procedures.
#
#######################################################################

data_PAJHAK
_symmetry_cell_setting           triclinic
_symmetry_space_group_name_H-M   'P -1'
_symmetry_Int_Tables_number      2
_space_group_name_Hall           '-P 1'
loop_
_symmetry_equiv_pos_site_id
_symmetry_equiv_pos_as_xyz
1 x,y,z
2 -x,-y,-z
_cell_length_a                   5.703(3)
_cell_length_b                   10.313(5)
_cell_length_c                   12.805(6)
_cell_angle_alpha                86.978(6)
_cell_angle_beta                 84.452(7)
_cell_angle_gamma                77.115(7)
_cell_volume                     730.346
loop_
_atom_site_label
_atom_site_type_symbol
_atom_site_fract_x
_atom_site_fract_y
_atom_site_fract_z
Ag1 Ag 0.75137(11) 0.91168(6) 0.50699(4)
F1 F 0.8616(16) 0.7128(9) 0.9210(5)
N1 N 0.9338(12) 0.7175(7) 0.6085(5)
O1 O 0.8060(10) 1.0757(6) 0.6018(5)
O2 O 0.4124(10) 1.1708(7) 0.6162(5)
C1 C 0.8822(17) 0.6933(9) 0.7067(7)
H1 H 0.9872 0.6262 0.7411
C2 C 0.6675(18) 0.7660(9) 0.7664(7)
C3 C 0.662(2) 0.7753(11) 0.8737(8)
C4 C 0.462(3) 0.8432(16) 0.9346(11)
H2 H 0.4675 0.8514 1.0062
C5 C 0.261(3) 0.8967(14) 0.8869(12)
H3 H 0.1226 0.9381 0.9271
C6 C 0.256(2) 0.8913(11) 0.7785(11)
H4 H 0.1186 0.9326 0.7457
C7 C 0.4581(17) 0.8236(9) 0.7213(7)
H5 H 0.4534 0.8163 0.6495
C8 C 1.1502(16) 0.6318(8) 0.5563(7)
H6 H 1.2391 0.5734 0.6078
H7 H 1.2550 0.6860 0.5213
C9 C 1.0707(17) 0.5497(8) 0.4766(6)
H8 H 0.9725 0.6098 0.4290
H9 H 1.2130 0.5024 0.4356
C10 C 0.6218(13) 1.1569(7) 0.6407(6)
C11 C 0.6576(13) 1.2485(7) 0.7235(5)
C12 C 0.8733(17) 1.2292(9) 0.7694(7)
H10 H 1.0031 1.1616 0.7472
C13 C 0.8947(19) 1.3119(11) 0.8492(7)
H11 H 1.0382 1.2980 0.8813
C14 C 0.708(2) 1.4121(10) 0.8802(8)
H12 H 0.7223 1.4653 0.9346
C15 C 0.502(2) 1.4354(10) 0.8334(8)
H13 H 0.3781 1.5078 0.8525
C16 C 0.4713(16) 1.3516(9) 0.7562(7)
H14 H 0.3246 1.3654 0.7268
C9A C 0.9293(17) 0.4503(8) 0.5234(6)
C8A C 0.8498(16) 0.3682(8) 0.4437(7)
N1A N 1.0662(12) 0.2825(7) 0.3915(5)
C1A C 1.1178(17) 0.3067(9) 0.2933(7)
H1A H 1.0128 0.3738 0.2589
C2A C 1.3325(18) 0.2340(9) 0.2336(7)
C3A C 1.338(2) 0.2247(11) 0.1263(8)
F1A F 1.1384(16) 0.2872(9) 0.0790(5)
C4A C 1.538(3) 0.1568(16) 0.0654(11)
H2A H 1.5325 0.1486 -0.0062
C5A C 1.739(3) 0.1033(14) 0.1131(12)
H3A H 1.8774 0.0619 0.0729
C6A C 1.744(2) 0.1087(11) 0.2215(11)
H4A H 1.8814 0.0674 0.2543
C7A C 1.5419(17) 0.1764(9) 0.2787(7)
H5A H 1.5466 0.1837 0.3505
H6A H 0.7609 0.4266 0.3922
H7A H 0.7450 0.3140 0.4787
H8A H 1.0275 0.3902 0.5710
H9A H 0.7870 0.4976 0.5644
O1A O 0.1940(10) 0.9243(6) 0.3982(5)
O2A O 0.5876(10) 0.8292(7) 0.3838(5)
C10A C 0.3782(13) 0.8431(7) 0.3593(6)
C11A C 0.3424(13) 0.7515(7) 0.2765(5)
C12A C 0.1267(17) 0.7708(9) 0.2306(7)
H10A H -0.0031 0.8384 0.2528
C13A C 0.1053(19) 0.6881(11) 0.1508(7)
H11A H -0.0382 0.7020 0.1187
C14A C 0.292(2) 0.5879(10) 0.1198(8)
H12A H 0.2777 0.5347 0.0654
C15A C 0.498(2) 0.5646(10) 0.1666(8)
H13A H 0.6219 0.4922 0.1475
C16A C 0.5287(16) 0.6484(9) 0.2438(7)
H14A H 0.6754 0.6346 0.2732
Ag1A Ag 1.24863(11) 0.08832(6) 0.49301(4)
Ag1A_2 Ag 0.24863(11) 1.08832(6) 0.49301(4)
Ag1_2 Ag 1.75137(11) -0.08832(6) 0.50699(4)
O1A_2 O 1.1940(10) -0.0757(6) 0.3982(5)
O2_2 O 1.4124(10) 0.1708(7) 0.6162(5)
loop_
_geom_bond_atom_site_label_1
_geom_bond_atom_site_label_2
_geom_bond_site_symmetry_1
_geom_bond_site_symmetry_2
Ag1 N1 1_555 1_555
F1 C3 1_555 1_555
N1 C1 1_555 1_555
O1 Ag1 1_555 1_555
O2 C10 1_555 1_555
C1 H1 1_555 1_555
C2 C1 1_555 1_555
C3 C2 1_555 1_555
C4 C3 1_555 1_555
H2 C4 1_555 1_555
C5 C4 1_555 1_555
H3 C5 1_555 1_555
C6 C5 1_555 1_555
H4 C6 1_555 1_555
C7 C2 1_555 1_555
H5 C7 1_555 1_555
C8 N1 1_555 1_555
H6 C8 1_555 1_555
H7 C8 1_555 1_555
C9 C8 1_555 1_555
H8 C9 1_555 1_555
H9 C9 1_555 1_555
C10 O1 1_555 1_555
C11 C10 1_555 1_555
C12 C11 1_555 1_555
H10 C12 1_555 1_555
C13 C12 1_555 1_555
H11 C13 1_555 1_555
C14 C13 1_555 1_555
H12 C14 1_555 1_555
C15 C14 1_555 1_555
H13 C15 1_555 1_555
C16 C11 1_555 1_555
H14 C16 1_555 1_555
C9A C9 1_555 1_555
C8A C9A 1_555 1_555
N1A C8A 1_555 1_555
C1A N1A 1_555 1_555
H1A C1A 1_555 1_555
C2A C1A 1_555 1_555
C3A C2A 1_555 1_555
F1A C3A 1_555 1_555
C4A C3A 1_555 1_555
H2A C4A 1_555 1_555
C5A C4A 1_555 1_555
H3A C5A 1_555 1_555
C6A C5A 1_555 1_555
H4A C6A 1_555 1_555
C7A C2A 1_555 1_555
H5A C7A 1_555 1_555
H6A C8A 1_555 1_555
H7A C8A 1_555 1_555
H8A C9A 1_555 1_555
H9A C9A 1_555 1_555
O1A C10A 1_555 1_555
O2A Ag1 1_555 1_555
C10A O2A 1_555 1_555
C11A C10A 1_555 1_555
C12A C11A 1_555 1_555
H10A C12A 1_555 1_555
C13A C12A 1_555 1_555
H11A C13A 1_555 1_555
C14A C13A 1_555 1_555
H12A C14A 1_555 1_555
C15A C14A 1_555 1_555
H13A C15A 1_555 1_555
C16A C11A 1_555 1_555
H14A C16A 1_555 1_555
Ag1A N1A 1_555 1_555
Ag1A_2 Ag1 1_555 1_555
Ag1_2 Ag1A 1_555 1_555
O1A_2 Ag1A 1_555 1_555
O2_2 Ag1A 1_555 1_555
O2 Ag1A_2 1_555 1_555
C6 C7 1_555 1_555
C15 C16 1_555 1_555
C6A C7A 1_555 1_555
O1A Ag1A_2 1_555 1_555
C15A C16A 1_555 1_555

#END
