
#######################################################################
#
#                 Cambridge Crystallographic Data Centre
#                                CCDC 
#
#######################################################################
#
# If this CIF has been generated from an entry in the Cambridge 
# Structural Database, then it will include bibliographic, chemical, 
# crystal, experimental, refinement or atomic coordinate data resulting 
# from the CCDC's data processing and validation procedures.
#
#######################################################################

data_PAJJOA
_symmetry_cell_setting           orthorhombic
_symmetry_space_group_name_H-M   'P b c n'
_symmetry_Int_Tables_number      60
_space_group_name_Hall           '-P 2n 2ab'
loop_
_symmetry_equiv_pos_site_id
_symmetry_equiv_pos_as_xyz
1 x,y,z
2 1/2+x,1/2+y,1/2-z
3 1/2-x,1/2+y,z
4 x,-y,1/2+z
5 -x,-y,-z
6 1/2-x,1/2-y,1/2+z
7 1/2+x,1/2-y,-z
8 -x,y,1/2-z
_cell_length_a                   10.3280(12)
_cell_length_b                   13.2177(14)
_cell_length_c                   13.1813(16)
_cell_angle_alpha                90
_cell_angle_beta                 90
_cell_angle_gamma                90
_cell_volume                     1799.41
loop_
_atom_site_label
_atom_site_type_symbol
_atom_site_fract_x
_atom_site_fract_y
_atom_site_fract_z
Cd1 Cd 0.20862(6) 0.31873(4) 0.08417(5)
O1 O 0.4396(5) 0.3299(4) 0.1098(4)
O2 O 0.5927(5) 0.4414(4) 0.1471(4)
O3 O 0.6231(5) 0.6261(4) 0.1464(5)
H1 H 0.6113 0.5649 0.1509
O4 O 0.5054(6) 0.7628(4) 0.1218(5)
O5 O 0.1179(6) 0.3276(4) -0.0802(5)
O6 O 0.2054(8) 0.3402(6) 0.2590(6)
N1 N 0.2856(6) 0.6500(5) 0.0791(6)
C1 C 0.2047(8) 0.5726(6) 0.0628(7)
H2 H 0.1182 0.5811 0.0451
N2 N 0.2601(6) 0.4816(5) 0.0746(5)
C2 C 0.3860(7) 0.5021(6) 0.1011(5)
C3 C 0.4012(7) 0.6063(6) 0.1032(6)
C4 C 0.4770(8) 0.4184(6) 0.1200(6)
C5 C 0.5147(8) 0.6704(6) 0.1247(6)
H3 H 0.0640 0.2696 -0.0792
H4 H 0.1891 0.3162 -0.1244
H5 H 0.2535 0.3929 0.2906
H6 H 0.1378 0.3192 0.3030
O4B O -0.0054(6) 0.2628(4) 0.1218(5)
N1B N 0.2144(6) 0.1500(5) 0.0791(6)
Cd1B Cd 0.29138(6) 0.81873(4) 0.08417(5)
loop_
_geom_bond_atom_site_label_1
_geom_bond_atom_site_label_2
_geom_bond_site_symmetry_1
_geom_bond_site_symmetry_2
Cd1 O1 1_555 1_555
O1 C4 1_555 1_555
O2 C4 1_555 1_555
O3 H1 1_555 1_555
O4 C5 1_555 1_555
O5 Cd1 1_555 1_555
O6 Cd1 1_555 1_555
N1 C1 1_555 1_555
C1 H2 1_555 1_555
N2 Cd1 1_555 1_555
C2 N2 1_555 1_555
C3 N1 1_555 1_555
C4 C2 1_555 1_555
C5 O3 1_555 1_555
H3 O5 1_555 1_555
H4 O5 1_555 1_555
H5 O6 1_555 1_555
H6 O6 1_555 1_555
O4B Cd1 1_555 1_555
N1B Cd1 1_555 1_555
Cd1B O4 1_555 1_555
N1 Cd1B 1_555 1_555
C1 N2 1_555 1_555
C2 C3 1_555 1_555
C3 C5 1_555 1_555

#END
