
#######################################################################
#
#                 Cambridge Crystallographic Data Centre
#                                CCDC 
#
#######################################################################
#
# If this CIF has been generated from an entry in the Cambridge 
# Structural Database, then it will include bibliographic, chemical, 
# crystal, experimental, refinement or atomic coordinate data resulting 
# from the CCDC's data processing and validation procedures.
#
#######################################################################

data_PAJTIE
_symmetry_cell_setting           triclinic
_symmetry_space_group_name_H-M   'P -1'
_symmetry_Int_Tables_number      2
_space_group_name_Hall           '-P 1'
loop_
_symmetry_equiv_pos_site_id
_symmetry_equiv_pos_as_xyz
1 x,y,z
2 -x,-y,-z
_cell_length_a                   8.6690(7)
_cell_length_b                   8.8519(7)
_cell_length_c                   9.3328(8)
_cell_angle_alpha                114.159(2)
_cell_angle_beta                 94.764(2)
_cell_angle_gamma                106.412(2)
_cell_volume                     610.455
loop_
_atom_site_label
_atom_site_type_symbol
_atom_site_fract_x
_atom_site_fract_y
_atom_site_fract_z
Li1 Li -0.0092(2) 0.4673(2) -0.33505(19)
B1 B -0.59811(12) 0.22735(12) -0.64086(12)
C1 C -0.35598(10) 0.21424(11) -0.53902(10)
C2 C -0.47708(10) 0.02575(11) -0.65221(10)
O1 O -0.42979(7) 0.32714(8) -0.53797(8)
O2 O -0.21945(8) 0.25042(9) -0.46588(8)
O3 O -0.61346(7) 0.04142(8) -0.71170(8)
O4 O -0.45204(9) -0.10880(9) -0.68019(9)
C3 C -0.75183(10) 0.34638(12) -0.74372(10)
C4 C -0.80784(10) 0.33526(11) -0.59608(10)
O5 O -0.62936(8) 0.28348(9) -0.76588(8)
O6 O -0.81383(8) 0.40082(10) -0.82296(8)
O7 O -0.72209(7) 0.26145(8) -0.54239(7)
O8 O -0.91557(7) 0.38691(8) -0.54301(8)
C5 C 0.20340(14) 0.86761(13) -0.11751(13)
H1 H 0.1326(16) 0.8849(17) -0.0412(16)
H2 H 0.1604(16) 0.8882(17) -0.2035(16)
H3 H 0.3164(17) 0.9499(18) -0.0665(16)
O9 O 0.20013(8) 0.69028(8) -0.18311(7)
C6 C 0.26904(12) 0.65323(13) -0.06124(11)
H4 H 0.2022(15) 0.6723(16) 0.0206(15)
H5 H 0.3850(17) 0.7268(18) -0.0133(16)
C7 C 0.25813(11) 0.46405(13) -0.14034(11)
H6 H 0.3247(14) 0.4436(15) -0.2197(14)
H7 H 0.2981(15) 0.4322(16) -0.0586(15)
O10 O 0.08761(8) 0.35962(9) -0.21548(8)
C8 C 0.05617(14) 0.17565(13) -0.26861(14)
H8 H 0.0806(17) 0.1551(18) -0.1759(17)
H9 H 0.1243(16) 0.1343(18) -0.3416(17)
H10 H -0.0596(18) 0.1152(19) -0.3259(17)
O8_2 O 0.08443(7) 0.38691(8) -0.54301(8)
Li1_2 Li -1.0092(2) 0.4673(2) -0.33505(19)
Li1A Li -0.9908(2) 0.5327(2) -0.66495(19)
O6A O -0.18617(8) 0.59918(10) -0.17704(8)
O8A O -0.08443(7) 0.61309(8) -0.45699(8)
loop_
_geom_bond_atom_site_label_1
_geom_bond_atom_site_label_2
_geom_bond_site_symmetry_1
_geom_bond_site_symmetry_2
Li1 O2 1_555 1_555
B1 O1 1_555 1_555
C1 C2 1_555 1_555
C2 O3 1_555 1_555
O1 C1 1_555 1_555
O2 C1 1_555 1_555
O3 B1 1_555 1_555
O4 C2 1_555 1_555
C3 C4 1_555 1_555
C4 O7 1_555 1_555
O5 B1 1_555 1_555
O6 C3 1_555 1_555
O7 B1 1_555 1_555
O8 C4 1_555 1_555
C5 H1 1_555 1_555
H2 C5 1_555 1_555
H3 C5 1_555 1_555
O9 Li1 1_555 1_555
C6 O9 1_555 1_555
H4 C6 1_555 1_555
H5 C6 1_555 1_555
C7 C6 1_555 1_555
H6 C7 1_555 1_555
H7 C7 1_555 1_555
O10 Li1 1_555 1_555
C8 O10 1_555 1_555
H8 C8 1_555 1_555
H9 C8 1_555 1_555
H10 C8 1_555 1_555
O8_2 Li1 1_555 1_555
Li1_2 O8 1_555 1_555
Li1A O6 1_555 1_555
O6A Li1 1_555 1_555
O8A Li1 1_555 1_555
C3 O5 1_555 1_555
O8 Li1A 1_555 1_555
C5 O9 1_555 1_555
C7 O10 1_555 1_555

#END
