
#######################################################################
#
#                 Cambridge Crystallographic Data Centre
#                                CCDC 
#
#######################################################################
#
# If this CIF has been generated from an entry in the Cambridge 
# Structural Database, then it will include bibliographic, chemical, 
# crystal, experimental, refinement or atomic coordinate data resulting 
# from the CCDC's data processing and validation procedures.
#
#######################################################################

data_PAKCAG
_symmetry_cell_setting           monoclinic
_symmetry_space_group_name_H-M   'C 2/m'
_symmetry_Int_Tables_number      12
_space_group_name_Hall           '-C 2y'
loop_
_symmetry_equiv_pos_site_id
_symmetry_equiv_pos_as_xyz
1 x,y,z
2 1/2+x,1/2+y,z
3 -x,y,-z
4 1/2-x,1/2+y,-z
5 -x,-y,-z
6 1/2-x,1/2-y,-z
7 x,-y,z
8 1/2+x,1/2-y,z
_cell_length_a                   21.421(5)
_cell_length_b                   6.4292(12)
_cell_length_c                   12.190(3)
_cell_angle_alpha                90
_cell_angle_beta                 105.964(9)
_cell_angle_gamma                90
_cell_volume                     1614.06
loop_
_atom_site_label
_atom_site_type_symbol
_atom_site_fract_x
_atom_site_fract_y
_atom_site_fract_z
O8 O 0.4270(6) 0.0000 0.2753(11)
H3 H 0.432(7) -0.134(9) 0.265(14)
H3F H 0.432(7) 0.134(9) 0.265(14)
Fe1 Fe 0.29991(5) 0.5000 0.16411(8)
P1 P 0.26088(9) 0.0000 0.12482(15)
P2 P 0.43736(13) 0.4297(4) 0.1000(2)
O1 O 0.3935(2) 0.5000 0.1702(4)
O2 O 0.30089(17) 0.1906(5) 0.1762(3)
O3 O 0.2572(2) 0.5000 0.0049(4)
O4 O 0.1975(3) 0.0000 0.1644(4)
H1 H 0.1659 0.0000 0.1084
O5 O 0.5058(3) 0.5000 0.1602(5)
O6 O 0.4177(3) 0.5000 -0.0234(4)
O7 O 0.4431(5) 0.1883(13) 0.1030(8)
H2 H 0.4529 0.1483 0.1694
N1 N 0.2085(3) 0.5000 0.2054(5)
N2 N 0.3269(3) 0.5000 0.3530(5)
C1 C 0.1501(4) 0.5000 0.1316(7)
H4 H 0.1470 0.5000 0.0540
C2 C 0.0935(4) 0.5000 0.1650(7)
H5 H 0.0536 0.5000 0.1101
C3 C 0.0957(4) 0.5000 0.2786(8)
H6 H 0.0577 0.5000 0.3016
C4 C 0.1574(4) 0.5000 0.3603(7)
C5 C 0.2119(4) 0.5000 0.3189(6)
C6 C 0.2756(4) 0.5000 0.3971(6)
C7 C 0.2825(4) 0.5000 0.5161(7)
C8 C 0.3465(5) 0.5000 0.5880(7)
H7 H 0.3538 0.5000 0.6668
C9 C 0.3976(5) 0.5000 0.5420(7)
H8 H 0.4398 0.5000 0.5896
C10 C 0.3868(4) 0.5000 0.4230(7)
H9 H 0.4222 0.5000 0.3925
C11 C 0.1659(5) 0.5000 0.4805(8)
H10 H 0.1296 0.5000 0.5083
C12 C 0.2255(5) 0.5000 0.5544(7)
H11 H 0.2296 0.5000 0.6323
P1E P 0.23912(9) 0.5000 -0.12482(15)
P2F P 0.43736(13) 0.5703(4) 0.1000(2)
O2F O 0.30089(17) 0.8094(5) 0.1762(3)
O2F_2 O 0.30089(17) -0.1906(5) 0.1762(3)
O3E O 0.2428(2) 0.0000 -0.0049(4)
loop_
_geom_bond_atom_site_label_1
_geom_bond_atom_site_label_2
_geom_bond_site_symmetry_1
_geom_bond_site_symmetry_2
Fe1 O1 1_555 1_555
P1 O2 1_555 1_555
P2 O1 1_555 1_555
O1 P2F 1_555 1_555
O2 Fe1 1_555 1_555
O3 Fe1 1_555 1_555
O4 P1 1_555 1_555
H1 O4 1_555 1_555
O5 P2 1_555 1_555
O6 P2 1_555 1_555
O7 P2 1_555 1_555
H2 O7 1_555 1_555
O8 H3 1_555 1_555
N1 Fe1 1_555 1_555
N2 Fe1 1_555 1_555
C1 N1 1_555 1_555
H4 C1 1_555 1_555
C2 C1 1_555 1_555
H5 C2 1_555 1_555
C3 C2 1_555 1_555
H6 C3 1_555 1_555
C4 C3 1_555 1_555
C5 N1 1_555 1_555
C6 N2 1_555 1_555
C7 C6 1_555 1_555
C8 C7 1_555 1_555
H7 C8 1_555 1_555
C9 C8 1_555 1_555
H8 C9 1_555 1_555
C10 N2 1_555 1_555
H9 C10 1_555 1_555
C11 C4 1_555 1_555
H10 C11 1_555 1_555
C12 C7 1_555 1_555
H11 C12 1_555 1_555
P1E O3 1_555 1_555
P2F P2 1_555 1_555
O2F Fe1 1_555 1_555
O2F_2 P1 1_555 1_555
O3E P1 1_555 1_555
H3F O8 1_555 1_555
O5 P2F 1_555 1_555
O6 P2F 1_555 1_555
C4 C5 1_555 1_555
C5 C6 1_555 1_555
C9 C10 1_555 1_555
C11 C12 1_555 1_555

#END
