
#######################################################################
#
#                 Cambridge Crystallographic Data Centre
#                                CCDC 
#
#######################################################################
#
# If this CIF has been generated from an entry in the Cambridge 
# Structural Database, then it will include bibliographic, chemical, 
# crystal, experimental, refinement or atomic coordinate data resulting 
# from the CCDC's data processing and validation procedures.
#
#######################################################################

data_PAKGEP
_symmetry_cell_setting           monoclinic
_symmetry_space_group_name_H-M   'P 21/c'
_symmetry_Int_Tables_number      14
_space_group_name_Hall           '-P 2ybc'
loop_
_symmetry_equiv_pos_site_id
_symmetry_equiv_pos_as_xyz
1 x,y,z
2 -x,1/2+y,1/2-z
3 -x,-y,-z
4 x,1/2-y,1/2+z
_cell_length_a                   17.008(4)
_cell_length_b                   5.8612(15)
_cell_length_c                   16.125(4)
_cell_angle_alpha                90
_cell_angle_beta                 115.849(4)
_cell_angle_gamma                90
_cell_volume                     1446.63
loop_
_atom_site_label
_atom_site_type_symbol
_atom_site_fract_x
_atom_site_fract_y
_atom_site_fract_z
Ag1 Ag 0.498239(19) 0.53401(5) 0.597338(19)
Ag2 Ag 0.425381(19) 0.10918(5) 0.51420(2)
C1 C 0.6453(2) -0.0489(6) 0.7841(2)
C2 C 0.6294(2) -0.2628(6) 0.8097(2)
H1 H 0.5762 -0.3394 0.7731
C3 C 0.6907(3) -0.3653(7) 0.8887(2)
H2 H 0.6798 -0.5127 0.9058
C4 C 0.7678(2) -0.2537(7) 0.9427(2)
H3 H 0.8095 -0.3251 0.9969
C5 C 0.7850(2) -0.0379(7) 0.9185(2)
C6 C 0.7234(2) 0.0616(6) 0.8389(2)
H4 H 0.7346 0.2081 0.8212
C7 C 0.5802(2) 0.0681(6) 0.6997(2)
C8 C 0.8687(3) 0.0828(8) 0.9787(3)
H5 H 0.8653 0.2422 0.9591
H6 H 0.9177 0.0076 0.9732
H7 H 0.8778 0.0770 1.0430
C9 C 0.2419(2) 0.6459(6) 0.3537(2)
C10 C 0.2136(2) 0.8608(6) 0.3637(2)
H8 H 0.2497 0.9566 0.4133
C11 C 0.1317(2) 0.9349(7) 0.3006(3)
H9 H 0.1111 1.0809 0.3075
C12 C 0.0805(2) 0.7979(7) 0.2281(3)
H10 H 0.0245 0.8505 0.1856
C13 C 0.1087(2) 0.5842(7) 0.2156(2)
C14 C 0.1900(2) 0.5110(6) 0.2789(2)
H11 H 0.2107 0.3658 0.2712
C15 C 0.3271(2) 0.5558(6) 0.4238(2)
C16 C 0.0529(3) 0.4366(8) 0.1343(3)
H12 H 0.0883 0.3115 0.1283
H13 H 0.0301 0.5288 0.0780
H14 H 0.0041 0.3737 0.1439
O1 O 0.58519(16) 0.2781(4) 0.69443(17)
O2 O 0.52213(16) -0.0556(4) 0.63825(16)
O3 O 0.37575(16) 0.6836(4) 0.48944(16)
O4 O 0.34466(17) 0.3526(4) 0.41251(16)
Ag1B Ag 0.501761(19) 0.46599(5) 0.402662(19)
Ag1_2 Ag 0.498239(19) -0.46599(5) 0.597338(19)
Ag2B Ag 0.574619(19) 0.89082(5) 0.48580(2)
Ag2B_2 Ag 0.574619(19) -0.10918(5) 0.48580(2)
Ag2_2 Ag 0.425381(19) 1.10918(5) 0.51420(2)
O2_2 O 0.52213(16) 0.9444(4) 0.63825(16)
O3_2 O 0.37575(16) -0.3164(4) 0.48944(16)
loop_
_geom_bond_atom_site_label_1
_geom_bond_atom_site_label_2
_geom_bond_site_symmetry_1
_geom_bond_site_symmetry_2
Ag1 Ag2 1_555 1_555
Ag2 O2 1_555 1_555
C1 C2 1_555 1_555
C2 H1 1_555 1_555
C3 C2 1_555 1_555
H2 C3 1_555 1_555
C4 C3 1_555 1_555
H3 C4 1_555 1_555
C5 C4 1_555 1_555
C6 C1 1_555 1_555
H4 C6 1_555 1_555
C7 C1 1_555 1_555
C8 C5 1_555 1_555
H5 C8 1_555 1_555
H6 C8 1_555 1_555
H7 C8 1_555 1_555
C9 C10 1_555 1_555
C10 H8 1_555 1_555
C11 C10 1_555 1_555
H9 C11 1_555 1_555
C12 C11 1_555 1_555
H10 C12 1_555 1_555
C13 C12 1_555 1_555
C14 C9 1_555 1_555
H11 C14 1_555 1_555
C15 C9 1_555 1_555
C16 C13 1_555 1_555
H12 C16 1_555 1_555
H13 C16 1_555 1_555
H14 C16 1_555 1_555
O1 Ag1 1_555 1_555
O2 C7 1_555 1_555
O3 Ag1 1_555 1_555
O4 Ag2 1_555 1_555
Ag1B Ag1 1_555 1_555
Ag1_2 O2 1_555 1_555
Ag2B Ag1 1_555 1_555
Ag2B_2 Ag2 1_555 1_555
Ag2_2 O3 1_555 1_555
O2_2 Ag1 1_555 1_555
O3_2 Ag2 1_555 1_555
Ag2 Ag1B 1_555 1_555
C5 C6 1_555 1_555
C7 O1 1_555 1_555
C13 C14 1_555 1_555
C15 O3 1_555 1_555
C15 O4 1_555 1_555
Ag1B Ag2B 1_555 1_555
Ag1_2 Ag2B_2 1_555 1_555
Ag1_2 O3_2 1_555 1_555
Ag2B Ag2_2 1_555 1_555
Ag2_2 O2_2 1_555 1_555

#END
