
#######################################################################
#
#                 Cambridge Crystallographic Data Centre
#                                CCDC 
#
#######################################################################
#
# If this CIF has been generated from an entry in the Cambridge 
# Structural Database, then it will include bibliographic, chemical, 
# crystal, experimental, refinement or atomic coordinate data resulting 
# from the CCDC's data processing and validation procedures.
#
#######################################################################

data_PAKGIT
_symmetry_cell_setting           triclinic
_symmetry_space_group_name_H-M   'P -1'
_symmetry_Int_Tables_number      2
_space_group_name_Hall           '-P 1'
loop_
_symmetry_equiv_pos_site_id
_symmetry_equiv_pos_as_xyz
1 x,y,z
2 -x,-y,-z
_cell_length_a                   6.4572(9)
_cell_length_b                   8.8759(7)
_cell_length_c                   13.3198(13)
_cell_angle_alpha                85.783(3)
_cell_angle_beta                 77.549(6)
_cell_angle_gamma                89.797(4)
_cell_volume                     743.372
loop_
_atom_site_label
_atom_site_type_symbol
_atom_site_fract_x
_atom_site_fract_y
_atom_site_fract_z
Ag1 Ag 0.90779(5) 0.12943(3) 0.05076(3)
Ag2 Ag 0.59505(5) -0.36119(3) -0.05330(3)
C1 C 0.5422(6) 0.0073(4) -0.1857(3)
C2 C 0.3715(6) 0.1083(4) -0.1697(3)
H1 H 0.3455 0.1651 -0.1106
C3 C 0.2422(7) 0.1250(5) -0.2395(4)
H2 H 0.1263 0.1923 -0.2268
C4 C 0.2758(7) 0.0469(5) -0.3272(3)
C5 C 0.4444(7) -0.0532(5) -0.3426(3)
H3 H 0.4705 -0.1082 -0.4025
C6 C 0.5749(6) -0.0747(4) -0.2728(3)
H4 H 0.6867 -0.1455 -0.2844
C7 C 0.6904(6) -0.0033(4) -0.1132(3)
C8 C 0.1298(8) 0.0671(6) -0.4008(4)
H5 H 0.1271 0.1741 -0.4246
H6 H 0.1805 0.0074 -0.4600
H7 H -0.0135 0.0332 -0.3657
C9 C 0.9555(6) 0.4692(4) 0.1862(3)
C10 C 1.1300(6) 0.5685(4) 0.1707(3)
H8 H 1.1627 0.6358 0.1105
C11 C 1.2533(7) 0.5682(5) 0.2426(4)
H9 H 1.3727 0.6345 0.2300
C12 C 1.2106(7) 0.4753(4) 0.3328(3)
C13 C 1.0367(7) 0.3758(5) 0.3478(4)
H10 H 1.0027 0.3106 0.4090
C14 C 0.9136(7) 0.3711(5) 0.2746(3)
H11 H 0.7997 0.3002 0.2850
C15 C 0.8109(6) 0.4733(4) 0.1118(3)
C16 C 1.3432(8) 0.4809(6) 0.4131(4)
H12 H 1.3706 0.5864 0.4237
H13 H 1.4782 0.4303 0.3895
H14 H 1.2668 0.4296 0.4781
O1 O 0.7003(5) 0.1062(3) -0.0604(2)
O2 O 0.8018(4) -0.1225(3) -0.1136(2)
O3 O 0.8031(5) 0.5952(3) 0.0580(2)
O4 O 0.6992(4) 0.3552(3) 0.1116(2)
Ag1A Ag 1.09221(5) -0.12943(3) -0.05076(3)
Ag2A Ag 0.40495(5) -0.63881(3) 0.05330(3)
Ag2_2 Ag 0.59505(5) 0.63881(3) -0.05330(3)
Ag2A_2 Ag 0.40495(5) 0.36119(3) 0.05330(3)
O2A O 1.1982(4) 0.1225(3) 0.1136(2)
O3_2 O 0.8031(5) -0.4048(3) 0.0580(2)
O4A O 0.3008(4) -0.3552(3) -0.1116(2)
loop_
_geom_bond_atom_site_label_1
_geom_bond_atom_site_label_2
_geom_bond_site_symmetry_1
_geom_bond_site_symmetry_2
Ag1 O1 1_555 1_555
Ag2 O2 1_555 1_555
C1 C2 1_555 1_555
C2 H1 1_555 1_555
C3 C2 1_555 1_555
H2 C3 1_555 1_555
C4 C3 1_555 1_555
C5 C4 1_555 1_555
H3 C5 1_555 1_555
C6 C1 1_555 1_555
H4 C6 1_555 1_555
C7 C1 1_555 1_555
C8 C4 1_555 1_555
H5 C8 1_555 1_555
H6 C8 1_555 1_555
H7 C8 1_555 1_555
C9 C10 1_555 1_555
C10 H8 1_555 1_555
C11 C10 1_555 1_555
H9 C11 1_555 1_555
C12 C11 1_555 1_555
C13 C12 1_555 1_555
H10 C13 1_555 1_555
C14 C9 1_555 1_555
H11 C14 1_555 1_555
C15 C9 1_555 1_555
C16 C12 1_555 1_555
H12 C16 1_555 1_555
H13 C16 1_555 1_555
H14 C16 1_555 1_555
O1 C7 1_555 1_555
O2 C7 1_555 1_555
O3 C15 1_555 1_555
O4 Ag1 1_555 1_555
Ag1A Ag1 1_555 1_555
Ag2A Ag2 1_555 1_555
Ag2_2 O3 1_555 1_555
Ag2A_2 O4 1_555 1_555
O2A Ag1 1_555 1_555
O3_2 Ag2 1_555 1_555
O4A Ag2 1_555 1_555
C5 C6 1_555 1_555
C13 C14 1_555 1_555
C15 O4 1_555 1_555
O2 Ag1A 1_555 1_555
Ag2_2 Ag2A_2 1_555 1_555

#END
