
#######################################################################
#
#                 Cambridge Crystallographic Data Centre
#                                CCDC 
#
#######################################################################
#
# If this CIF has been generated from an entry in the Cambridge 
# Structural Database, then it will include bibliographic, chemical, 
# crystal, experimental, refinement or atomic coordinate data resulting 
# from the CCDC's data processing and validation procedures.
#
#######################################################################

data_PAKGAL
_symmetry_cell_setting           monoclinic
_symmetry_space_group_name_H-M   'P 21/c'
_symmetry_Int_Tables_number      14
_space_group_name_Hall           '-P 2ybc'
loop_
_symmetry_equiv_pos_site_id
_symmetry_equiv_pos_as_xyz
1 x,y,z
2 -x,1/2+y,1/2-z
3 -x,-y,-z
4 x,1/2-y,1/2+z
_cell_length_a                   12.0967(5)
_cell_length_b                   24.3827(12)
_cell_length_c                   10.9850(8)
_cell_angle_alpha                90
_cell_angle_beta                 101.901(2)
_cell_angle_gamma                90
_cell_volume                     3170.38
loop_
_atom_site_label
_atom_site_type_symbol
_atom_site_fract_x
_atom_site_fract_y
_atom_site_fract_z
Ag1 Ag 0.85483(7) 0.26075(3) 0.41735(7)
Ag2 Ag 0.78056(8) 0.32493(3) 0.20048(7)
Ag3 Ag 0.70105(7) 0.30701(3) 0.69056(7)
Ag4 Ag 0.60536(7) 0.22634(3) 0.38882(7)
C1 C 0.8443(9) 0.4137(4) 0.0121(9)
C2 C 0.9611(11) 0.4139(4) 0.0293(10)
H1 H 0.9961 0.3898 -0.0193
C3 C 1.0284(12) 0.4477(5) 0.1144(12)
H2 H 1.1084 0.4469 0.1258
C4 C 0.9752(14) 0.4827(5) 0.1819(11)
H3 H 1.0193 0.5063 0.2416
C5 C 0.8587(14) 0.4841(5) 0.1647(12)
H4 H 0.8244 0.5091 0.2120
C6 C 0.7908(10) 0.4499(4) 0.0798(10)
C7 C 0.7783(9) 0.3729(4) -0.0763(9)
C8 C 0.6653(11) 0.4540(4) 0.0638(11)
H5 H 0.6461 0.4865 0.1076
H6 H 0.6310 0.4570 -0.0249
H7 H 0.6364 0.4211 0.0981
C9 C 0.6272(9) 0.3961(4) 0.4985(8)
C10 C 0.5343(10) 0.3727(4) 0.5368(9)
H8 H 0.5106 0.3368 0.5100
C11 C 0.4766(11) 0.4012(5) 0.6130(10)
H9 H 0.4123 0.3854 0.6365
C12 C 0.5128(13) 0.4521(6) 0.6538(12)
H10 H 0.4748 0.4716 0.7079
C13 C 0.6038(13) 0.4753(5) 0.6173(12)
H11 H 0.6267 0.5111 0.6460
C14 C 0.6640(10) 0.4487(4) 0.5403(10)
C15 C 0.6912(9) 0.3614(4) 0.4236(8)
C16 C 0.7644(11) 0.4757(4) 0.5039(14)
H12 H 0.8008 0.5004 0.5706
H13 H 0.7392 0.4967 0.4271
H14 H 0.8184 0.4476 0.4903
C17 C 1.0240(9) 0.3065(4) 0.6298(9)
C18 C 1.0008(9) 0.3626(4) 0.6169(9)
H15 H 0.9484 0.3787 0.6599
C19 C 1.0535(10) 0.3950(5) 0.5419(11)
H16 H 1.0373 0.4330 0.5322
C20 C 1.1309(11) 0.3701(5) 0.4811(12)
H17 H 1.1661 0.3914 0.4274
C21 C 1.1574(10) 0.3150(4) 0.4976(11)
H18 H 1.2130 0.2994 0.4585
C22 C 1.1027(10) 0.2822(4) 0.5719(10)
C23 C 0.9578(8) 0.2731(4) 0.7045(10)
C24 C 1.1343(9) 0.2223(4) 0.5893(11)
H19 H 1.0691 0.2014 0.6039
H20 H 1.1571 0.2085 0.5144
H21 H 1.1971 0.2183 0.6610
C25 C 0.4194(8) 0.1849(4) 0.5547(9)
C26 C 0.3832(9) 0.2086(4) 0.4408(9)
H22 H 0.4119 0.2438 0.4264
C27 C 0.3061(10) 0.1836(5) 0.3444(10)
H23 H 0.2827 0.2010 0.2659
C28 C 0.2648(10) 0.1322(4) 0.3681(11)
H24 H 0.2121 0.1139 0.3051
C29 C 0.3010(10) 0.1075(4) 0.4843(10)
H25 H 0.2727 0.0722 0.4990
C30 C 0.3774(9) 0.1333(4) 0.5792(10)
C31 C 0.5051(9) 0.2160(4) 0.6492(9)
C32 C 0.4107(11) 0.1042(4) 0.7028(10)
H26 H 0.3787 0.0671 0.6956
H27 H 0.4932 0.1019 0.7266
H28 H 0.3817 0.1246 0.7664
O1 O 0.7199(6) 0.3395(3) -0.0244(6)
O2 O 0.7851(6) 0.3723(3) -0.1864(6)
O3 O 0.7066(6) 0.3787(2) 0.3219(6)
O4 O 0.7296(6) 0.3163(2) 0.4763(6)
O5 O 0.8914(6) 0.2375(3) 0.6398(6)
O6 O 0.9672(7) 0.2814(3) 0.8161(6)
O7 O 0.4936(7) 0.2178(3) 0.7588(6)
O8 O 0.5828(6) 0.2393(2) 0.6064(6)
Ag1C Ag 0.85483(7) 0.23925(3) 0.91735(7)
Ag2C Ag 0.78056(8) 0.17507(3) 0.70048(7)
Ag3C Ag 0.70105(7) 0.19299(3) 0.19056(7)
Ag3_2 Ag 0.70105(7) 0.30701(3) -0.30944(7)
Ag4C Ag 0.60536(7) 0.27366(3) 0.88882(7)
Ag4C_2 Ag 0.60536(7) 0.27366(3) -0.11118(7)
O1C O 0.7199(6) 0.1605(3) 0.4756(6)
O2_2 O 0.7851(6) 0.3723(3) 0.8136(6)
O5C O 0.8914(6) 0.2625(3) 0.1398(6)
O6C O 0.9672(7) 0.2186(3) 0.3161(6)
O7C O 0.4936(7) 0.2822(3) 0.2588(6)
loop_
_geom_bond_atom_site_label_1
_geom_bond_atom_site_label_2
_geom_bond_site_symmetry_1
_geom_bond_site_symmetry_2
Ag1 Ag2 1_555 1_555
Ag2 O1 1_555 1_555
Ag3 O4 1_555 1_555
Ag4 Ag1 1_555 1_555
C1 C2 1_555 1_555
C2 H1 1_555 1_555
C3 C2 1_555 1_555
H2 C3 1_555 1_555
C4 C3 1_555 1_555
H3 C4 1_555 1_555
C5 C4 1_555 1_555
H4 C5 1_555 1_555
C6 C1 1_555 1_555
C7 C1 1_555 1_555
C8 C6 1_555 1_555
H5 C8 1_555 1_555
H6 C8 1_555 1_555
H7 C8 1_555 1_555
C9 C10 1_555 1_555
C10 H8 1_555 1_555
C11 C10 1_555 1_555
H9 C11 1_555 1_555
C12 C11 1_555 1_555
H10 C12 1_555 1_555
C13 C12 1_555 1_555
H11 C13 1_555 1_555
C14 C9 1_555 1_555
C15 C9 1_555 1_555
C16 C14 1_555 1_555
H12 C16 1_555 1_555
H13 C16 1_555 1_555
H14 C16 1_555 1_555
C17 C18 1_555 1_555
C18 H15 1_555 1_555
C19 C18 1_555 1_555
H16 C19 1_555 1_555
C20 C19 1_555 1_555
H17 C20 1_555 1_555
C21 C20 1_555 1_555
H18 C21 1_555 1_555
C22 C17 1_555 1_555
C23 C17 1_555 1_555
C24 C22 1_555 1_555
H19 C24 1_555 1_555
H20 C24 1_555 1_555
H21 C24 1_555 1_555
C25 C26 1_555 1_555
C26 H22 1_555 1_555
C27 C26 1_555 1_555
H23 C27 1_555 1_555
C28 C27 1_555 1_555
H24 C28 1_555 1_555
C29 C28 1_555 1_555
H25 C29 1_555 1_555
C30 C25 1_555 1_555
C31 C25 1_555 1_555
C32 C30 1_555 1_555
H26 C32 1_555 1_555
H27 C32 1_555 1_555
H28 C32 1_555 1_555
O1 C7 1_555 1_555
O2 C7 1_555 1_555
O3 Ag2 1_555 1_555
O4 Ag1 1_555 1_555
O5 Ag1 1_555 1_555
O6 C23 1_555 1_555
O7 C31 1_555 1_555
O8 Ag3 1_555 1_555
Ag1C Ag3 1_555 1_555
Ag2C Ag3 1_555 1_555
Ag3C Ag1 1_555 1_555
Ag3_2 O2 1_555 1_555
Ag4C Ag3 1_555 1_555
Ag4C_2 O1 1_555 1_555
O1C Ag4 1_555 1_555
O2_2 Ag3 1_555 1_555
O5C Ag2 1_555 1_555
O6C Ag1 1_555 1_555
O7C Ag4 1_555 1_555
Ag2 Ag3C 1_555 1_555
Ag4 O8 1_555 1_555
Ag4 Ag3C 1_555 1_555
C5 C6 1_555 1_555
C13 C14 1_555 1_555
C15 O3 1_555 1_555
C15 O4 1_555 1_555
C21 C22 1_555 1_555
C23 O5 1_555 1_555
C29 C30 1_555 1_555
C31 O8 1_555 1_555
O5 Ag2C 1_555 1_555
O6 Ag1C 1_555 1_555
O7 Ag4C 1_555 1_555
Ag1C Ag2C 1_555 1_555
Ag1C Ag4C 1_555 1_555
Ag2C O1C 1_555 1_555
Ag3_2 Ag4C_2 1_555 1_555

#END
