
#######################################################################
#
#                 Cambridge Crystallographic Data Centre
#                                CCDC 
#
#######################################################################
#
# If this CIF has been generated from an entry in the Cambridge 
# Structural Database, then it will include bibliographic, chemical, 
# crystal, experimental, refinement or atomic coordinate data resulting 
# from the CCDC's data processing and validation procedures.
#
#######################################################################

data_PAKKUJ
_symmetry_cell_setting           monoclinic
_symmetry_space_group_name_H-M   'P 21'
_symmetry_Int_Tables_number      4
_space_group_name_Hall           'P 2yb'
loop_
_symmetry_equiv_pos_site_id
_symmetry_equiv_pos_as_xyz
1 x,y,z
2 -x,1/2+y,-z
_cell_length_a                   6.8047(4)
_cell_length_b                   13.4629(8)
_cell_length_c                   18.5385(11)
_cell_angle_alpha                90
_cell_angle_beta                 97.360(4)
_cell_angle_gamma                90
_cell_volume                     1684.34
loop_
_atom_site_label
_atom_site_type_symbol
_atom_site_fract_x
_atom_site_fract_y
_atom_site_fract_z
Co1 Co 0.26956(19) 0.34713(10) 0.27716(8)
Co2 Co 0.81530(19) 0.49023(10) 0.77203(7)
O1 O 0.4571(9) 0.2165(6) 0.2829(4)
H1 H 0.5648 0.2295 0.3062
O2 O 0.9972(10) 0.6232(5) 0.7847(4)
H2 H 1.1031 0.6103 0.8092
N1 N -0.6235(12) 0.8666(7) 0.2379(5)
O3 O 0.6884(10) 0.5459(6) 0.6684(4)
O4 O 0.4510(10) 0.4155(6) 0.3560(4)
N2 N 0.0730(11) 0.4691(7) 0.2688(5)
O5 O 0.1488(11) 0.2921(6) 0.1669(5)
O6 O -0.0065(10) 0.4174(6) -0.1484(4)
O7 O 0.0754(10) 0.2626(6) 0.3284(5)
H3 H -0.0240 0.2954 0.3327
O8 O 0.9508(10) 0.4504(6) 0.6786(4)
O9 O 0.3980(11) 0.3926(6) 0.1831(4)
O10 O 0.6164(9) 0.5723(6) 0.8264(4)
H4 H 0.5177 0.5386 0.8300
O11 O 0.7238(9) 0.3260(6) 0.3585(4)
O12 O 0.2609(10) 0.5144(6) -0.1396(4)
C1 C 0.2901(15) 0.3396(10) 0.1403(6)
C2 C -0.2460(16) 0.5350(8) 0.2203(7)
H5 H -0.3637 0.5270 0.1894
C3 C 0.8410(14) 0.5239(9) 0.5585(6)
C4 C -0.2983(15) 0.8039(9) 0.2735(6)
H6 H -0.1680 0.8174 0.2927
C5 C 0.8254(17) 0.5064(9) 0.6391(6)
C6 C -0.1050(16) 0.4593(9) 0.2290(7)
H7 H -0.1361 0.3989 0.2060
C7 C 0.6303(16) 0.3992(9) 0.3772(6)
C8 C 0.7380(14) 0.4734(9) 0.4340(6)
H8 H 0.8674 0.4874 0.4183
C9 C 0.1699(16) 0.4414(11) -0.1203(6)
C10 C -0.4334(16) 0.8782(9) 0.2666(6)
H9 H -0.3921 0.9412 0.2828
C11 C -0.2049(15) 0.6256(8) 0.2604(7)
C12 C -0.5517(17) 0.6932(11) 0.2218(9)
H10 H -0.5976 0.6311 0.2053
C13 C -0.3519(15) 0.7082(9) 0.2524(7)
C14 C 0.3246(18) 0.3252(9) 0.0636(6)
H11 H 0.4674 0.3226 0.0609
C15 C 0.9456(15) 0.3409(8) 0.5196(6)
H12 H 0.9642 0.3155 0.5684
H13 H 1.0687 0.3672 0.5077
H14 H 0.9017 0.2884 0.4864
C16 C 0.2659(14) 0.3720(8) -0.0622(6)
C17 C 0.7803(15) 0.4285(8) 0.5133(6)
C18 C 0.6984(16) 0.6016(9) 0.5231(6)
H15 H 0.7605 0.6665 0.5257
H16 H 0.5805 0.6046 0.5474
C19 C 0.6451(18) 0.5695(7) 0.4438(6)
H17 H 0.5024 0.5640 0.4321
H18 H 0.6923 0.6184 0.4117
C20 C 0.130(4) 0.266(2) -0.0401(17)
H19 H -0.0066 0.2839 -0.0366
H20 H 0.1311 0.2155 -0.0773
C21 C 0.225(6) 0.2280(17) 0.0303(10)
H21 H 0.3228 0.1772 0.0240
H22 H 0.1290 0.2020 0.0597
C22 C 0.5945(16) 0.3823(10) 0.5362(8)
H23 H 0.4915 0.4314 0.5337
H24 H 0.6222 0.3581 0.5852
H25 H 0.5521 0.3282 0.5042
C23 C 1.0581(16) 0.5564(9) 0.5509(5)
H26 H 1.0901 0.6153 0.5791
H27 H 1.0694 0.5697 0.5007
H28 H 1.1479 0.5041 0.5682
C24 C -0.6748(18) 0.7749(10) 0.2175(9)
H29 H -0.8064 0.7647 0.1985
C25 C 0.1073(17) 0.5536(11) 0.3050(8)
H30 H 0.2272 0.5599 0.3350
C26 C 0.075(2) 0.4634(9) 0.0256(7)
H31 H -0.0482 0.4289 0.0122
H32 H 0.0780 0.5218 -0.0039
H33 H 0.0852 0.4823 0.0759
C27 C 0.475(3) 0.3529(19) -0.0634(12)
H34 H 0.5412 0.4139 -0.0723
H35 H 0.4916 0.3063 -0.1014
H36 H 0.5314 0.3260 -0.0174
C28 C -0.0186(16) 0.6306(10) 0.3015(8)
H37 H 0.0191 0.6885 0.3270
C29 C 0.469(4) 0.455(2) 0.0406(15)
H38 H 0.4762 0.4791 0.0896
H39 H 0.4873 0.5095 0.0086
H40 H 0.5718 0.4067 0.0377
C30 C 0.236(3) 0.3999(18) 0.0146(7)
Co2A Co -0.81530(19) 0.99023(10) 0.22797(7)
Co2_2 Co -0.18470(19) 0.49023(10) -0.22797(7)
N1A N 0.6235(12) 0.3666(7) 0.7621(5)
O6_2 O 0.9935(10) 0.4174(6) 0.8516(4)
loop_
_geom_bond_atom_site_label_1
_geom_bond_atom_site_label_2
_geom_bond_site_symmetry_1
_geom_bond_site_symmetry_2
Co1 O1 1_555 1_555
Co2 O2 1_555 1_555
O1 H1 1_555 1_555
O2 H2 1_555 1_555
N1 C10 1_555 1_555
O3 Co2 1_555 1_555
O4 Co1 1_555 1_555
N2 Co1 1_555 1_555
O5 Co1 1_555 1_555
O6 C9 1_555 1_555
O7 Co1 1_555 1_555
H3 O7 1_555 1_555
O8 Co2 1_555 1_555
O9 Co1 1_555 1_555
O10 Co2 1_555 1_555
H4 O10 1_555 1_555
O11 C7 1_555 1_555
O12 C9 1_555 1_555
C1 O5 1_555 1_555
C2 H5 1_555 1_555
C3 C5 1_555 1_555
C4 H6 1_555 1_555
C5 O3 1_555 1_555
C6 N2 1_555 1_555
H7 C6 1_555 1_555
C7 O4 1_555 1_555
C8 C7 1_555 1_555
H8 C8 1_555 1_555
C9 C16 1_555 1_555
C10 C4 1_555 1_555
H9 C10 1_555 1_555
C11 C2 1_555 1_555
C12 H10 1_555 1_555
C13 C4 1_555 1_555
C14 C1 1_555 1_555
H11 C14 1_555 1_555
C15 H12 1_555 1_555
H13 C15 1_555 1_555
H14 C15 1_555 1_555
C16 C20 1_555 1_555
C17 C3 1_555 1_555
C18 C3 1_555 1_555
H15 C18 1_555 1_555
H16 C18 1_555 1_555
C19 C8 1_555 1_555
H17 C19 1_555 1_555
H18 C19 1_555 1_555
C20 H19 1_555 1_555
H20 C20 1_555 1_555
C21 C14 1_555 1_555
H21 C21 1_555 1_555
H22 C21 1_555 1_555
C22 C17 1_555 1_555
H23 C22 1_555 1_555
H24 C22 1_555 1_555
H25 C22 1_555 1_555
C23 C3 1_555 1_555
H26 C23 1_555 1_555
H27 C23 1_555 1_555
H28 C23 1_555 1_555
C24 N1 1_555 1_555
H29 C24 1_555 1_555
C25 N2 1_555 1_555
H30 C25 1_555 1_555
C26 H31 1_555 1_555
H32 C26 1_555 1_555
H33 C26 1_555 1_555
C27 C16 1_555 1_555
H34 C27 1_555 1_555
H35 C27 1_555 1_555
H36 C27 1_555 1_555
C28 C11 1_555 1_555
H37 C28 1_555 1_555
C29 H38 1_555 1_555
H39 C29 1_555 1_555
H40 C29 1_555 1_555
C30 C14 1_555 1_555
Co2A N1 1_555 1_555
Co2_2 O6 1_555 1_555
N1A Co2 1_555 1_555
O6_2 Co2 1_555 1_555
O8 C5 1_555 1_555
O9 C1 1_555 1_555
C2 C6 1_555 1_555
C8 C17 1_555 1_555
C11 C13 1_555 1_555
C12 C13 1_555 1_555
C12 C24 1_555 1_555
C15 C17 1_555 1_555
C16 C30 1_555 1_555
C18 C19 1_555 1_555
C20 C21 1_555 1_555
C25 C28 1_555 1_555
C26 C30 1_555 1_555
C29 C30 1_555 1_555

#END
