
#######################################################################
#
#                 Cambridge Crystallographic Data Centre
#                                CCDC 
#
#######################################################################
#
# If this CIF has been generated from an entry in the Cambridge 
# Structural Database, then it will include bibliographic, chemical, 
# crystal, experimental, refinement or atomic coordinate data resulting 
# from the CCDC's data processing and validation procedures.
#
#######################################################################

data_PAKLOE
_symmetry_cell_setting           monoclinic
_symmetry_space_group_name_H-M   'P 21/c'
_symmetry_Int_Tables_number      14
_space_group_name_Hall           '-P 2ybc'
loop_
_symmetry_equiv_pos_site_id
_symmetry_equiv_pos_as_xyz
1 x,y,z
2 -x,1/2+y,1/2-z
3 -x,-y,-z
4 x,1/2-y,1/2+z
_cell_length_a                   12.040(5)
_cell_length_b                   12.006(2)
_cell_length_c                   7.9747(18)
_cell_angle_alpha                90
_cell_angle_beta                 97.63(2)
_cell_angle_gamma                90
_cell_volume                     1142.55
loop_
_atom_site_label
_atom_site_type_symbol
_atom_site_fract_x
_atom_site_fract_y
_atom_site_fract_z
Cu1 Cu 0.42415(8) 0.57403(9) 0.63245(11)
Cu2 Cu 0.5000 0.5000 1.0000
N1 N 0.5576(5) 0.5814(6) 0.8134(7)
N2 N 0.6295(6) 0.6545(7) 0.8265(8)
N3 N 0.6975(6) 0.7209(7) 0.8355(10)
N4 N 0.3645(5) 0.5065(6) 0.8351(7)
N5 N 0.2687(6) 0.4868(6) 0.8535(8)
N6 N 0.1789(6) 0.4695(8) 0.8703(10)
N7 N 0.5111(5) 0.6231(6) 0.4544(7)
N8 N 0.4670(5) 0.6589(6) 0.3218(9)
N9 N 0.4303(7) 0.6905(8) 0.1901(9)
N10 N 0.2778(5) 0.5565(6) 0.4886(8)
N11 N 0.2388(5) 0.4484(6) 0.4649(7)
H1 H 0.2751 0.3898 0.5025
C1 C 0.1363(6) 0.4480(8) 0.3750(11)
C2 C 0.1071(7) 0.5558(9) 0.3425(11)
H2 H 0.0398 0.5812 0.2843
C3 C 0.1966(6) 0.6210(8) 0.4125(9)
C4 C 0.0763(8) 0.3398(9) 0.3385(13)
H3 H 0.1010 0.2873 0.4264
H4 H 0.0925 0.3112 0.2319
H5 H -0.0029 0.3513 0.3337
C5 C 0.2080(8) 0.7436(8) 0.4121(11)
H6 H 0.2799 0.7642 0.4709
H7 H 0.1500 0.7764 0.4675
H8 H 0.2017 0.7698 0.2975
Cu1B Cu 0.57585(8) 0.42597(9) 1.36755(11)
Cu1B_2 Cu 0.57585(8) 0.42597(9) 0.36755(11)
N1B N 0.4424(5) 0.4186(6) 1.1866(7)
N2B N 0.3705(6) 0.3455(7) 1.1735(8)
N3B N 0.3025(6) 0.2791(7) 1.1645(10)
N4B N 0.6355(5) 0.4935(6) 1.1649(7)
N5B N 0.7313(6) 0.5132(6) 1.1465(8)
N6B N 0.8211(6) 0.5305(8) 1.1297(10)
N7B N 0.4889(5) 0.3769(6) 0.5456(7)
N7B_2 N 0.4889(5) 0.3769(6) 1.5456(7)
N7_2 N 0.5111(5) 0.6231(6) 1.4544(7)
N8B N 0.5330(5) 0.3411(6) 0.6782(9)
N9B N 0.5697(7) 0.3095(8) 0.8099(9)
N10B N 0.7222(5) 0.4435(6) 1.5114(8)
N11B N 0.7612(5) 0.5516(6) 1.5351(7)
H1B H 0.7249 0.6102 1.4975
C1B C 0.8637(6) 0.5520(8) 1.6250(11)
C2B C 0.8929(7) 0.4442(9) 1.6575(11)
H2B H 0.9602 0.4188 1.7157
C3B C 0.8034(6) 0.3790(8) 1.5875(9)
C4B C 0.9237(8) 0.6602(9) 1.6615(13)
H3B H 0.8990 0.7127 1.5736
H4B H 0.9075 0.6888 1.7681
H5B H 1.0029 0.6487 1.6663
C5B C 0.7920(8) 0.2564(8) 1.5879(11)
H6B H 0.7201 0.2358 1.5291
H7B H 0.8500 0.2236 1.5325
H8B H 0.7983 0.2302 1.7025
loop_
_geom_bond_atom_site_label_1
_geom_bond_atom_site_label_2
_geom_bond_site_symmetry_1
_geom_bond_site_symmetry_2
Cu1 N1 1_555 1_555
Cu2 N1 1_555 1_555
N1 N2 1_555 1_555
N2 N3 1_555 1_555
N4 Cu1 1_555 1_555
N5 N4 1_555 1_555
N6 N5 1_555 1_555
N7 Cu1 1_555 1_555
N8 N7 1_555 1_555
N9 N8 1_555 1_555
N10 Cu1 1_555 1_555
N11 N10 1_555 1_555
H1 N11 1_555 1_555
C1 N11 1_555 1_555
C2 C1 1_555 1_555
H2 C2 1_555 1_555
C3 N10 1_555 1_555
C4 C1 1_555 1_555
H3 C4 1_555 1_555
H4 C4 1_555 1_555
H5 C4 1_555 1_555
C5 C3 1_555 1_555
H6 C5 1_555 1_555
H7 C5 1_555 1_555
H8 C5 1_555 1_555
Cu1B N1B 1_555 1_555
Cu1B_2 N7 1_555 1_555
N1B Cu2 1_555 1_555
N2B N1B 1_555 1_555
N3B N2B 1_555 1_555
N4B Cu2 1_555 1_555
N5B N4B 1_555 1_555
N6B N5B 1_555 1_555
N7B Cu1 1_555 1_555
N7B_2 Cu1B 1_555 1_555
N7_2 Cu1B 1_555 1_555
N8B N7B 1_555 1_555
N9B N8B 1_555 1_555
N10B Cu1B 1_555 1_555
N11B N10B 1_555 1_555
H1B N11B 1_555 1_555
C1B N11B 1_555 1_555
C2B C1B 1_555 1_555
H2B C2B 1_555 1_555
C3B N10B 1_555 1_555
C4B C1B 1_555 1_555
H3B C4B 1_555 1_555
H4B C4B 1_555 1_555
H5B C4B 1_555 1_555
C5B C3B 1_555 1_555
H6B C5B 1_555 1_555
H7B C5B 1_555 1_555
H8B C5B 1_555 1_555
Cu2 N4 1_555 1_555
C2 C3 1_555 1_555
Cu1B N4B 1_555 1_555
Cu1B_2 N7B 1_555 1_555
C2B C3B 1_555 1_555

#END
