
#######################################################################
#
#                 Cambridge Crystallographic Data Centre
#                                CCDC 
#
#######################################################################
#
# If this CIF has been generated from an entry in the Cambridge 
# Structural Database, then it will include bibliographic, chemical, 
# crystal, experimental, refinement or atomic coordinate data resulting 
# from the CCDC's data processing and validation procedures.
#
#######################################################################

data_PAKLES
_symmetry_cell_setting           monoclinic
_symmetry_space_group_name_H-M   'C 2/c'
_symmetry_Int_Tables_number      15
_space_group_name_Hall           '-C 2yn'
loop_
_symmetry_equiv_pos_site_id
_symmetry_equiv_pos_as_xyz
1 x,y,z
2 1/2+x,1/2+y,z
3 -x,y,1/2-z
4 1/2-x,1/2+y,1/2-z
5 -x,-y,-z
6 1/2-x,1/2-y,-z
7 x,-y,1/2+z
8 1/2+x,1/2-y,1/2+z
_cell_length_a                   13.784(1)
_cell_length_b                   8.219(1)
_cell_length_c                   26.268(2)
_cell_angle_alpha                90
_cell_angle_beta                 94.20(7)
_cell_angle_gamma                90
_cell_volume                     2967.93
loop_
_atom_site_label
_atom_site_type_symbol
_atom_site_fract_x
_atom_site_fract_y
_atom_site_fract_z
Gd1 Gd 0.67302(1) 0.50993(2) 0.31515(1)
Cu1 Cu 0.5000 0.5000 0.5000
O1 O 0.7835(2) 0.7293(3) 0.3208(1)
O2 O 0.6456(2) 0.5843(3) 0.2257(1)
O3 O 0.5142(2) 0.4299(3) 0.3388(1)
O4 O 0.7354(2) 0.2985(3) 0.3704(1)
O5 O 0.6113(2) 0.3900(4) 0.4724(1)
O6 O 0.4373(2) 0.5750(3) 0.4166(1)
O8 O 0.8190(2) 0.4142(3) 0.27711(9)
O9 O 0.9314(2) 0.2460(3) 0.1859(1)
O10 O 0.9884(2) 0.6050(3) 0.1459(1)
O11 O 0.8714(2) 0.7700(3) 0.23354(9)
O12 O 0.5714(2) 0.7066(3) 0.5052(1)
O13 O 0.6746(2) 0.5967(3) 0.40176(9)
O14 O 0.7477(2) 0.9661(3) 0.38846(9)
O15 O 0.6404(3) 1.0694(3) 0.4902(1)
C1 C 0.8656(2) 0.4662(4) 0.2406(1)
C2 C 0.9170(2) 0.3882(4) 0.2001(1)
C3 C 0.9423(2) 0.5502(4) 0.1810(1)
C4 C 0.8897(2) 0.6251(4) 0.221(1)
C5 C 0.6204(3) 0.7733(4) 0.4726(1)
C6 C 0.6668(3) 0.7281(4) 0.4265(1)
C7 C 0.6996(3) 0.8943(4) 0.4206(1)
C8 C 0.6518(3) 0.9421(4) 0.4665(1)
O5D O 0.3887(2) 0.6100(4) 0.5276(1)
O6D O 0.5627(2) 0.4250(3) 0.5834(1)
O12D O 0.4286(2) 0.2934(3) 0.4948(1)
O13D O 0.3254(2) 0.4033(3) 0.59824(9)
O14D O 0.2523(2) 0.0339(3) 0.61154(9)
O15D O 0.3596(3) -0.0694(3) 0.5098(1)
C5D C 0.3796(3) 0.2267(4) 0.5274(1)
C6D C 0.3332(3) 0.2719(4) 0.5735(1)
C7D C 0.3004(3) 0.1057(4) 0.5794(1)
C8D C 0.3482(3) 0.0579(4) 0.5335(1)
Gd1D Gd 0.32698(1) 0.49007(2) 0.68485(1)
O8C O 0.6810(2) 0.9142(3) 0.22289(9)
O9C O 0.5686(2) 0.7460(3) 0.3141(1)
O10C O 0.5116(2) 1.1050(3) 0.3541(1)
O11C O 0.6286(2) 1.2700(3) 0.26646(9)
C1C C 0.6344(2) 0.9662(4) 0.2594(1)
C2C C 0.5830(2) 0.8882(4) 0.2999(1)
C3C C 0.5577(2) 1.0502(4) 0.3190(1)
C4C C 0.6103(2) 1.1251(4) 0.279(1)
O11C_2 O 0.6286(2) 0.2700(3) 0.26646(9)
Gd1C Gd 0.82698(1) 0.00993(2) 0.18485(1)
Gd1C_2 Gd 0.82698(1) 1.00993(2) 0.18485(1)
Gd1_2 Gd 0.67302(1) 1.50993(2) 0.31515(1)
O1C O 0.7165(2) 1.2293(3) 0.1792(1)
O2C O 0.8544(2) 1.0843(3) 0.2743(1)
O3C O 0.9858(2) 0.9299(3) 0.1612(1)
O4C O 0.7646(2) 0.7985(3) 0.1296(1)
O9_2 O 0.9314(2) 1.2460(3) 0.1859(1)
O13C O 0.8254(2) 1.0967(3) 0.09824(9)
O7 O 0.5922(2) 1.0994(4) 0.5872(1)
loop_
_geom_bond_atom_site_label_1
_geom_bond_atom_site_label_2
_geom_bond_site_symmetry_1
_geom_bond_site_symmetry_2
Gd1 O1 1_555 1_555
Cu1 O5 1_555 1_555
O2 Gd1 1_555 1_555
O3 Gd1 1_555 1_555
O4 Gd1 1_555 1_555
O6 Cu1 1_555 1_555
O8 Gd1 1_555 1_555
O9 C2 1_555 1_555
O10 C3 1_555 1_555
O11 C4 1_555 1_555
O12 Cu1 1_555 1_555
O13 Gd1 1_555 1_555
O14 C7 1_555 1_555
O15 C8 1_555 1_555
C1 O8 1_555 1_555
C2 C1 1_555 1_555
C3 C2 1_555 1_555
C4 C1 1_555 1_555
C5 O12 1_555 1_555
C6 O13 1_555 1_555
C7 C6 1_555 1_555
C8 C5 1_555 1_555
O5D Cu1 1_555 1_555
O6D Cu1 1_555 1_555
O12D Cu1 1_555 1_555
O13D C6D 1_555 1_555
O14D C7D 1_555 1_555
O15D C8D 1_555 1_555
C5D O12D 1_555 1_555
C6D C5D 1_555 1_555
C7D C6D 1_555 1_555
C8D C5D 1_555 1_555
Gd1D O13D 1_555 1_555
O8C C1C 1_555 1_555
O9C Gd1 1_555 1_555
O10C C3C 1_555 1_555
O11C C4C 1_555 1_555
C1C C2C 1_555 1_555
C2C O9C 1_555 1_555
C3C C2C 1_555 1_555
C4C C1C 1_555 1_555
O11C_2 Gd1 1_555 1_555
Gd1C O9 1_555 1_555
Gd1C_2 O11 1_555 1_555
Gd1_2 O11C 1_555 1_555
O1C Gd1C_2 1_555 1_555
O2C Gd1C_2 1_555 1_555
O3C Gd1C_2 1_555 1_555
O4C Gd1C_2 1_555 1_555
O9_2 Gd1C_2 1_555 1_555
O13C Gd1C_2 1_555 1_555
C3 C4 1_555 1_555
C5 C6 1_555 1_555
C7 C8 1_555 1_555
C7D C8D 1_555 1_555
O8C Gd1C_2 1_555 1_555
C3C C4C 1_555 1_555

#END
