
#######################################################################
#
#                 Cambridge Crystallographic Data Centre
#                                CCDC 
#
#######################################################################
#
# If this CIF has been generated from an entry in the Cambridge 
# Structural Database, then it will include bibliographic, chemical, 
# crystal, experimental, refinement or atomic coordinate data resulting 
# from the CCDC's data processing and validation procedures.
#
#######################################################################

data_PAKTAX
_symmetry_cell_setting           monoclinic
_symmetry_space_group_name_H-M   'P 21/n'
_symmetry_Int_Tables_number      14
_space_group_name_Hall           '-P 2yn'
loop_
_symmetry_equiv_pos_site_id
_symmetry_equiv_pos_as_xyz
1 x,y,z
2 1/2-x,1/2+y,1/2-z
3 -x,-y,-z
4 1/2+x,1/2-y,1/2+z
_cell_length_a                   11.2038(3)
_cell_length_b                   19.6162(5)
_cell_length_c                   20.7538(7)
_cell_angle_alpha                90.00
_cell_angle_beta                 99.8350(10)
_cell_angle_gamma                90.00
_cell_volume                     4494.15
loop_
_atom_site_label
_atom_site_type_symbol
_atom_site_fract_x
_atom_site_fract_y
_atom_site_fract_z
La1 La 0.61863(2) 0.237940(12) 0.764476(13)
P1 P 0.87280(10) 0.36182(5) 0.80092(6)
P2 P 0.67951(10) 0.57996(5) 0.68285(6)
P3 P 0.52533(10) 0.40645(5) 0.83292(6)
O1 O 0.7264(3) 0.26475(17) 0.57974(16)
N1 N 0.7082(3) 0.2621(2) 0.6359(2)
O2 O 0.6220(3) 0.22444(14) 0.88987(14)
O3 O 0.4115(3) 0.24980(17) 0.68613(17)
O4 O 0.7896(2) 0.30638(12) 0.81712(13)
O5 O 0.6452(3) 0.30599(15) 0.66030(15)
O6 O 0.7556(3) 0.21472(15) 0.67514(17)
O7 O 0.5333(2) 0.34844(12) 0.78606(13)
O8 O 0.4812(3) 0.17407(16) 0.93414(17)
O9 O 0.4621(3) 0.18382(14) 0.82734(16)
O10 O 0.3461(3) 0.18420(17) 0.60233(17)
O11 O 0.7699(2) 0.63399(12) 0.70954(13)
N2 N 0.5204(4) 0.19401(18) 0.8858(2)
N3 N 0.4196(3) 0.1970(2) 0.6523(2)
O12 O 0.5072(3) 0.15966(16) 0.67082(18)
C1 C 0.4988(4) 0.37878(19) 0.9120(2)
C2 C 0.5402(4) 0.61761(19) 0.6415(2)
C3 C 0.9678(4) 0.3912(2) 0.8744(2)
C4 C 0.3153(4) 0.4381(2) 0.7485(2)
H1 H 0.3259 0.3952 0.7290
C5 C 0.3983(4) 0.4602(2) 0.8013(2)
C6 C 0.9497(4) 0.3447(2) 0.6807(2)
H2 H 0.8824 0.3719 0.6620
C7 C 1.1465(4) 0.2649(2) 0.7347(2)
H3 H 1.2136 0.2375 0.7533
C8 C 0.5496(4) 0.6686(2) 0.5957(2)
H4 H 0.6269 0.6818 0.5872
C9 C 0.7882(3) 0.43214(18) 0.75843(19)
H5 H 0.8441 0.4564 0.7342
H6 H 0.7240 0.4118 0.7253
C10 C 0.6615(3) 0.45759(19) 0.8493(2)
H7 H 0.6426 0.4967 0.8759
H8 H 0.7226 0.4298 0.8779
C11 C 0.8644(4) 0.5363(2) 0.6196(2)
H9 H 0.9139 0.5683 0.6462
C12 C 0.2809(4) 0.5622(2) 0.8045(3)
H10 H 0.2697 0.6053 0.8234
C13 C 1.1088(4) 0.4400(3) 0.9874(3)
H11 H 1.1575 0.4570 1.0260
C14 C 0.9720(3) 0.33279(19) 0.7474(2)
C15 C 1.0714(4) 0.2920(2) 0.7740(2)
H12 H 1.0869 0.2831 0.8196
C16 C 0.1989(4) 0.5401(3) 0.7516(3)
H13 H 0.1308 0.5674 0.7345
C17 C 0.4267(4) 0.6002(2) 0.6542(2)
H14 H 0.4191 0.5653 0.6850
C18 C 0.4463(5) 0.6999(2) 0.5629(2)
H15 H 0.4528 0.7335 0.5306
C19 C 0.3797(4) 0.5225(2) 0.8306(2)
H16 H 0.4342 0.5375 0.8681
C20 C 0.3573(4) 0.3374(2) 0.9781(2)
H17 H 0.2767 0.3253 0.9819
C21 C 1.0629(4) 0.4363(2) 0.8710(2)
H18 H 1.0808 0.4498 0.8297
C22 C 1.0162(4) 0.3942(2) 0.9918(2)
H19 H 1.0014 0.3797 1.0333
C23 C 0.3335(4) 0.6827(2) 0.5767(2)
H20 H 0.2629 0.7050 0.5547
C24 C 1.0262(4) 0.3169(2) 0.6409(2)
H21 H 1.0108 0.3252 0.5951
C25 C 0.3825(4) 0.3608(2) 0.9194(2)
H22 H 0.3186 0.3646 0.8831
C26 C 0.7424(4) 0.5292(2) 0.6253(2)
C27 C 1.1242(4) 0.2775(2) 0.6681(2)
H23 H 1.1764 0.2590 0.6410
C28 C 0.4483(4) 0.3315(2) 1.0313(2)
H24 H 0.4309 0.3161 1.0721
C29 C 0.2163(4) 0.4785(3) 0.7239(3)
H25 H 0.1598 0.4631 0.6873
C30 C 0.9452(4) 0.3697(2) 0.9351(2)
H26 H 0.8815 0.3384 0.9377
C31 C 1.1301(4) 0.4607(2) 0.9273(3)
H27 H 1.1928 0.4927 0.9248
C32 C 0.5909(4) 0.3718(2) 0.9657(2)
H28 H 0.6718 0.3834 0.9620
C33 C 0.3243(4) 0.6335(2) 0.6223(2)
H29 H 0.2470 0.6220 0.6322
C34 C 0.9133(5) 0.4966(2) 0.5752(2)
H30 H 0.9958 0.5019 0.5707
C35 C 0.6726(5) 0.4815(2) 0.5865(2)
H31 H 0.5897 0.4761 0.5900
C36 C 0.7222(6) 0.4417(3) 0.5429(3)
H32 H 0.6735 0.4091 0.5167
C37 C 0.5648(4) 0.3481(3) 1.0247(3)
H33 H 0.6284 0.3433 1.0611
C38 C 0.8408(6) 0.4493(3) 0.5375(3)
H34 H 0.8743 0.4217 0.5075
C39 C 0.8209(4) 0.53785(19) 0.8293(2)
H35 H 0.7799 0.5775 0.8443
H36 H 0.8728 0.5528 0.7985
H37 H 0.8704 0.5156 0.8669
C40 C 0.7262(4) 0.48744(19) 0.7952(2)
C41 C 0.6323(4) 0.52581(19) 0.74477(19)
H38 H 0.5836 0.5544 0.7698
H39 H 0.5768 0.4911 0.7216
La1A La 0.88137(2) 0.737940(12) 0.735524(13)
O11A O 0.7301(2) 0.13399(12) 0.79046(13)
C42 C 0.1413(10) 0.9080(5) 0.9264(5)
H40 H 0.1915 0.9482 0.9201
H41 H 0.0936 0.9223 0.9600
C43 C 0.2156(8) 0.8698(4) 0.9572(4)
H42 H 0.1823 0.8235 0.9560
H43 H 0.2350 0.8854 1.0026
H44 H 0.2893 0.8697 0.9377
O13 O 0.0577(3) 0.90908(18) 0.87187(19)
H45 H 0.0125 0.8748 0.8712
loop_
_geom_bond_atom_site_label_1
_geom_bond_atom_site_label_2
_geom_bond_site_symmetry_1
_geom_bond_site_symmetry_2
La1 O2 1_555 1_555
P1 O4 1_555 1_555
P2 O11 1_555 1_555
P3 O7 1_555 1_555
O1 N1 1_555 1_555
N1 O5 1_555 1_555
O2 N2 1_555 1_555
O3 La1 1_555 1_555
O4 La1 1_555 1_555
O5 La1 1_555 1_555
O6 La1 1_555 1_555
O7 La1 1_555 1_555
O8 N2 1_555 1_555
O9 La1 1_555 1_555
O10 N3 1_555 1_555
O11 La1A 1_555 1_555
N2 O9 1_555 1_555
N3 O3 1_555 1_555
O12 La1 1_555 1_555
C1 P3 1_555 1_555
C2 P2 1_555 1_555
C3 P1 1_555 1_555
C4 H1 1_555 1_555
C5 P3 1_555 1_555
C6 H2 1_555 1_555
C7 H3 1_555 1_555
C8 C2 1_555 1_555
H4 C8 1_555 1_555
C9 P1 1_555 1_555
H5 C9 1_555 1_555
H6 C9 1_555 1_555
C10 P3 1_555 1_555
H7 C10 1_555 1_555
H8 C10 1_555 1_555
C11 H9 1_555 1_555
C12 H10 1_555 1_555
C13 H11 1_555 1_555
C14 P1 1_555 1_555
C15 C7 1_555 1_555
H12 C15 1_555 1_555
C16 C12 1_555 1_555
H13 C16 1_555 1_555
C17 C2 1_555 1_555
H14 C17 1_555 1_555
C18 C8 1_555 1_555
H15 C18 1_555 1_555
C19 C5 1_555 1_555
H16 C19 1_555 1_555
C20 H17 1_555 1_555
C21 C3 1_555 1_555
H18 C21 1_555 1_555
C22 C13 1_555 1_555
H19 C22 1_555 1_555
C23 C18 1_555 1_555
H20 C23 1_555 1_555
C24 C6 1_555 1_555
H21 C24 1_555 1_555
C25 C1 1_555 1_555
H22 C25 1_555 1_555
C26 P2 1_555 1_555
C27 C7 1_555 1_555
H23 C27 1_555 1_555
C28 C20 1_555 1_555
H24 C28 1_555 1_555
C29 C4 1_555 1_555
H25 C29 1_555 1_555
C30 C3 1_555 1_555
H26 C30 1_555 1_555
C31 C13 1_555 1_555
H27 C31 1_555 1_555
C32 C1 1_555 1_555
H28 C32 1_555 1_555
C33 C17 1_555 1_555
H29 C33 1_555 1_555
C34 C11 1_555 1_555
H30 C34 1_555 1_555
C35 C26 1_555 1_555
H31 C35 1_555 1_555
C36 C35 1_555 1_555
H32 C36 1_555 1_555
C37 C28 1_555 1_555
H33 C37 1_555 1_555
C38 C34 1_555 1_555
H34 C38 1_555 1_555
C39 H35 1_555 1_555
H36 C39 1_555 1_555
H37 C39 1_555 1_555
C40 C9 1_555 1_555
C41 P2 1_555 1_555
H38 C41 1_555 1_555
H39 C41 1_555 1_555
C42 H40 1_555 1_555
H41 C42 1_555 1_555
C43 C42 1_555 1_555
H42 C43 1_555 1_555
H43 C43 1_555 1_555
H44 C43 1_555 1_555
O13 C42 1_555 1_555
H45 O13 1_555 1_555
O11A La1 1_555 1_555
N1 O6 1_555 1_555
N3 O12 1_555 1_555
C4 C5 1_555 1_555
C6 C14 1_555 1_555
C10 C40 1_555 1_555
C11 C26 1_555 1_555
C12 C19 1_555 1_555
C14 C15 1_555 1_555
C16 C29 1_555 1_555
C20 C25 1_555 1_555
C21 C31 1_555 1_555
C22 C30 1_555 1_555
C23 C33 1_555 1_555
C24 C27 1_555 1_555
C32 C37 1_555 1_555
C36 C38 1_555 1_555
C39 C40 1_555 1_555
C40 C41 1_555 1_555

#END
