
#######################################################################
#
#                 Cambridge Crystallographic Data Centre
#                                CCDC 
#
#######################################################################
#
# If this CIF has been generated from an entry in the Cambridge 
# Structural Database, then it will include bibliographic, chemical, 
# crystal, experimental, refinement or atomic coordinate data resulting 
# from the CCDC's data processing and validation procedures.
#
#######################################################################

data_PAKTOL
_symmetry_cell_setting           triclinic
_symmetry_space_group_name_H-M   'P -1'
_symmetry_Int_Tables_number      2
_space_group_name_Hall           '-P 1'
loop_
_symmetry_equiv_pos_site_id
_symmetry_equiv_pos_as_xyz
1 x,y,z
2 -x,-y,-z
_cell_length_a                   7.784(3)
_cell_length_b                   8.0112(18)
_cell_length_c                   10.438(2)
_cell_angle_alpha                76.189(17)
_cell_angle_beta                 70.27(2)
_cell_angle_gamma                67.98(2)
_cell_volume                     563.289
loop_
_atom_site_label
_atom_site_type_symbol
_atom_site_fract_x
_atom_site_fract_y
_atom_site_fract_z
Ag1 Ag 0.5671(2) 0.8410(2) 0.92023(16)
Ag2 Ag 0.7977(2) 0.51923(19) 1.07016(16)
I1 I 0.49916(18) 0.79585(16) 1.21622(12)
I2 I 0.92302(17) 0.61781(16) 0.77265(12)
S1 S 0.2614(7) 0.7769(6) 0.9278(5)
C1 C 0.199(3) 0.910(2) 0.7861(19)
N1 N 0.057(2) 1.067(2) 0.7804(17)
H1 H -0.0233 1.1202 0.8522
C2 C 0.054(3) 1.134(3) 0.6459(19)
H2 H -0.0361 1.2417 0.6155
C3 C 0.203(3) 1.017(3) 0.566(2)
H3 H 0.2389 1.0279 0.4690
N2 N 0.293(2) 0.881(2) 0.6520(16)
C4 C 0.456(3) 0.716(3) 0.609(2)
H4 H 0.4075 0.6125 0.6306
H5 H 0.5518 0.6903 0.6582
H6 H 0.5149 0.7351 0.5100
Ag1A Ag 0.4329(2) 1.1590(2) 1.07977(16)
Ag2A Ag 1.2023(2) 0.48077(19) 0.92984(16)
Ag2A_2 Ag 0.2023(2) 0.48077(19) 0.92984(16)
I1A I 0.50084(18) 1.20415(16) 0.78378(12)
I2A I 1.07698(17) 0.38219(16) 1.22735(12)
S1A S 0.7386(7) 0.2231(6) 1.0722(5)
loop_
_geom_bond_atom_site_label_1
_geom_bond_atom_site_label_2
_geom_bond_site_symmetry_1
_geom_bond_site_symmetry_2
Ag1 I1 1_555 1_555
Ag2 I1 1_555 1_555
I1 Ag1A 1_555 1_555
I2 Ag1 1_555 1_555
S1 Ag1 1_555 1_555
C1 S1 1_555 1_555
N1 C1 1_555 1_555
H1 N1 1_555 1_555
C2 N1 1_555 1_555
H2 C2 1_555 1_555
C3 C2 1_555 1_555
H3 C3 1_555 1_555
N2 C1 1_555 1_555
C4 N2 1_555 1_555
H4 C4 1_555 1_555
H5 C4 1_555 1_555
H6 C4 1_555 1_555
Ag1A I1A 1_555 1_555
Ag2A I2 1_555 1_555
Ag2A_2 S1 1_555 1_555
I1A Ag1 1_555 1_555
I2A Ag2 1_555 1_555
S1A Ag2 1_555 1_555
Ag2 I2 1_555 1_555
C3 N2 1_555 1_555
Ag2A I2A 1_555 1_555

#END
