
#######################################################################
#
#                 Cambridge Crystallographic Data Centre
#                                CCDC 
#
#######################################################################
#
# If this CIF has been generated from an entry in the Cambridge 
# Structural Database, then it will include bibliographic, chemical, 
# crystal, experimental, refinement or atomic coordinate data resulting 
# from the CCDC's data processing and validation procedures.
#
#######################################################################

data_PAKTEB
_symmetry_cell_setting           monoclinic
_symmetry_space_group_name_H-M   'P 21/n'
_symmetry_Int_Tables_number      14
_space_group_name_Hall           '-P 2yn'
loop_
_symmetry_equiv_pos_site_id
_symmetry_equiv_pos_as_xyz
1 x,y,z
2 1/2-x,1/2+y,1/2-z
3 -x,-y,-z
4 1/2+x,1/2-y,1/2+z
_cell_length_a                   11.2812(2)
_cell_length_b                   19.5645(4)
_cell_length_c                   20.1771(5)
_cell_angle_alpha                90.00
_cell_angle_beta                 100.1630(10)
_cell_angle_gamma                90.00
_cell_volume                     4383.44
loop_
_atom_site_label
_atom_site_type_symbol
_atom_site_fract_x
_atom_site_fract_y
_atom_site_fract_z
Pr1 Pr 0.620966(17) 0.239265(9) 0.764414(10)
P1 P 0.86907(8) 0.36475(4) 0.79450(5)
P2 P 0.67414(8) 0.58627(4) 0.67820(5)
P3 P 0.52644(8) 0.40746(4) 0.83084(5)
O1 O 0.7382(3) 0.26053(16) 0.57904(15)
N1 N 0.7159(3) 0.25809(16) 0.63640(17)
O2 O 0.6239(2) 0.22939(13) 0.89173(14)
O3 O 0.4125(3) 0.25003(13) 0.68789(16)
O4 O 0.7904(2) 0.30808(11) 0.81287(13)
O5 O 0.6450(2) 0.30173(13) 0.65665(14)
O6 O 0.7617(2) 0.21391(13) 0.67928(14)
O7 O 0.5371(2) 0.34847(12) 0.78482(13)
O8 O 0.4874(3) 0.17589(15) 0.93683(16)
O9 O 0.4701(2) 0.18305(14) 0.82772(15)
O10 O 0.3466(3) 0.18469(17) 0.60227(17)
O11 O 0.7708(2) 0.63664(11) 0.70548(12)
N2 N 0.5248(3) 0.19597(16) 0.88721(19)
N3 N 0.4214(3) 0.19832(17) 0.65201(18)
O12 O 0.5137(2) 0.16147(14) 0.66955(16)
C1 C 0.5006(3) 0.38244(17) 0.91317(19)
C2 C 0.5365(3) 0.62719(17) 0.63900(19)
C3 C 0.9662(3) 0.39375(17) 0.86959(19)
C4 C 0.3246(3) 0.43699(19) 0.7363(2)
H1 H 0.3420 0.3955 0.7154
C5 C 0.3990(3) 0.45918(17) 0.79510(19)
C6 C 0.9451(3) 0.35160(19) 0.6698(2)
H2 H 0.8770 0.3782 0.6510
C7 C 1.1435(4) 0.2734(2) 0.7247(2)
H3 H 1.2115 0.2466 0.7434
C8 C 0.5445(4) 0.67408(19) 0.5882(2)
H4 H 0.6202 0.6833 0.5756
C9 C 0.7817(3) 0.43530(17) 0.75203(18)
H5 H 0.8348 0.4598 0.7258
H6 H 0.7159 0.4149 0.7190
C10 C 0.6598(3) 0.46063(17) 0.84768(18)
H7 H 0.6394 0.5000 0.8744
H8 H 0.7216 0.4338 0.8778
C11 C 0.8456(3) 0.53816(18) 0.60811(19)
H9 H 0.8993 0.5678 0.6362
C12 C 0.2710(4) 0.5580(2) 0.7966(2)
H10 H 0.2525 0.5995 0.8170
C13 C 1.1091(4) 0.4431(2) 0.9853(2)
H11 H 1.1585 0.4598 1.0251
C14 C 0.9670(3) 0.33743(17) 0.73831(19)
C15 C 1.0664(3) 0.29733(19) 0.7651(2)
H12 H 1.0809 0.2865 0.8117
C16 C 0.1991(4) 0.5363(2) 0.7385(2)
H13 H 0.1312 0.5626 0.7188
C17 C 0.4256(3) 0.61575(19) 0.6580(2)
H14 H 0.4194 0.5846 0.6933
C18 C 0.4421(4) 0.7074(2) 0.5560(2)
H15 H 0.4476 0.7388 0.5207
C19 C 0.3713(3) 0.51978(18) 0.8261(2)
H16 H 0.4201 0.5348 0.8667
C20 C 0.3605(4) 0.3450(2) 0.9835(2)
H17 H 0.2803 0.3346 0.9886
C21 C 1.0606(3) 0.43935(18) 0.8651(2)
H18 H 1.0765 0.4528 0.8223
C22 C 1.0175(4) 0.3978(2) 0.9904(2)
H19 H 1.0037 0.3834 1.0334
C23 C 0.3324(4) 0.69537(19) 0.5748(2)
H20 H 0.2625 0.7186 0.5527
C24 C 1.0225(3) 0.3269(2) 0.6287(2)
H21 H 1.0075 0.3364 0.5817
C25 C 0.3831(3) 0.36693(19) 0.9214(2)
H22 H 0.3186 0.3714 0.8844
C26 C 0.7248(3) 0.53502(17) 0.61503(18)
C27 C 1.1216(4) 0.2884(2) 0.6571(2)
H23 H 1.1753 0.2721 0.6294
C28 C 0.4522(4) 0.33815(19) 1.0374(2)
H24 H 0.4356 0.3235 1.0797
C29 C 0.2256(4) 0.4757(2) 0.7086(2)
H25 H 0.1751 0.4606 0.6685
C30 C 0.9453(3) 0.37318(18) 0.9321(2)
H26 H 0.8816 0.3422 0.9352
C31 C 1.1299(3) 0.4645(2) 0.9229(2)
H27 H 1.1921 0.4966 0.9201
C32 C 0.5927(3) 0.3745(2) 0.9681(2)
H28 H 0.6733 0.3841 0.9633
C33 C 0.3240(3) 0.6498(2) 0.6254(2)
H29 H 0.2482 0.6416 0.6383
C34 C 0.8877(4) 0.4981(2) 0.5603(2)
H30 H 0.9702 0.5002 0.5561
C35 C 0.6489(4) 0.4917(2) 0.5732(2)
H31 H 0.5662 0.4896 0.5769
C36 C 0.6909(4) 0.4517(3) 0.5262(2)
H32 H 0.6377 0.4215 0.4986
C37 C 0.5692(4) 0.3527(2) 1.0299(2)
H33 H 0.6333 0.3478 1.0671
C38 C 0.8105(4) 0.4555(2) 0.5193(2)
H34 H 0.8391 0.4288 0.4861
C39 C 0.8198(3) 0.53998(17) 0.82714(19)
H35 H 0.7812 0.5813 0.8407
H36 H 0.8741 0.5524 0.7962
H37 H 0.8658 0.5177 0.8671
C40 C 0.7229(3) 0.49067(17) 0.79178(18)
C41 C 0.6287(3) 0.53098(18) 0.74181(19)
H38 H 0.5830 0.5596 0.7690
H39 H 0.5714 0.4972 0.7178
Pr1A Pr 0.879034(17) 0.739265(9) 0.735586(10)
O11A O 0.7292(2) 0.13664(11) 0.79452(12)
C42 C 0.1839(10) 0.8644(13) 0.9412(8)
H40 H 0.2480 0.8828 0.9193
H41 H 0.1838 0.8144 0.9383
H42 H 0.1980 0.8783 0.9886
O13 O 0.0608(7) 0.8923(3) 0.9056(5)
H43 H 0.0108 0.8601 0.8987
loop_
_geom_bond_atom_site_label_1
_geom_bond_atom_site_label_2
_geom_bond_site_symmetry_1
_geom_bond_site_symmetry_2
Pr1 O2 1_555 1_555
P1 O4 1_555 1_555
P2 O11 1_555 1_555
P3 O7 1_555 1_555
O1 N1 1_555 1_555
N1 O5 1_555 1_555
O2 N2 1_555 1_555
O3 Pr1 1_555 1_555
O4 Pr1 1_555 1_555
O5 Pr1 1_555 1_555
O6 Pr1 1_555 1_555
O7 Pr1 1_555 1_555
O8 N2 1_555 1_555
O9 Pr1 1_555 1_555
O10 N3 1_555 1_555
O11 Pr1A 1_555 1_555
N2 O9 1_555 1_555
N3 O3 1_555 1_555
O12 Pr1 1_555 1_555
C1 P3 1_555 1_555
C2 P2 1_555 1_555
C3 P1 1_555 1_555
C4 H1 1_555 1_555
C5 P3 1_555 1_555
C6 H2 1_555 1_555
C7 H3 1_555 1_555
C8 C2 1_555 1_555
H4 C8 1_555 1_555
C9 P1 1_555 1_555
H5 C9 1_555 1_555
H6 C9 1_555 1_555
C10 P3 1_555 1_555
H7 C10 1_555 1_555
H8 C10 1_555 1_555
C11 H9 1_555 1_555
C12 H10 1_555 1_555
C13 H11 1_555 1_555
C14 P1 1_555 1_555
C15 C7 1_555 1_555
H12 C15 1_555 1_555
C16 C12 1_555 1_555
H13 C16 1_555 1_555
C17 C2 1_555 1_555
H14 C17 1_555 1_555
C18 C8 1_555 1_555
H15 C18 1_555 1_555
C19 C5 1_555 1_555
H16 C19 1_555 1_555
C20 H17 1_555 1_555
C21 C3 1_555 1_555
H18 C21 1_555 1_555
C22 C13 1_555 1_555
H19 C22 1_555 1_555
C23 C18 1_555 1_555
H20 C23 1_555 1_555
C24 C6 1_555 1_555
H21 C24 1_555 1_555
C25 C1 1_555 1_555
H22 C25 1_555 1_555
C26 P2 1_555 1_555
C27 C7 1_555 1_555
H23 C27 1_555 1_555
C28 C20 1_555 1_555
H24 C28 1_555 1_555
C29 C4 1_555 1_555
H25 C29 1_555 1_555
C30 C3 1_555 1_555
H26 C30 1_555 1_555
C31 C13 1_555 1_555
H27 C31 1_555 1_555
C32 C1 1_555 1_555
H28 C32 1_555 1_555
C33 C17 1_555 1_555
H29 C33 1_555 1_555
C34 C11 1_555 1_555
H30 C34 1_555 1_555
C35 C26 1_555 1_555
H31 C35 1_555 1_555
C36 C35 1_555 1_555
H32 C36 1_555 1_555
C37 C28 1_555 1_555
H33 C37 1_555 1_555
C38 C34 1_555 1_555
H34 C38 1_555 1_555
C39 H35 1_555 1_555
H36 C39 1_555 1_555
H37 C39 1_555 1_555
C40 C9 1_555 1_555
C41 P2 1_555 1_555
H38 C41 1_555 1_555
H39 C41 1_555 1_555
C42 H40 1_555 1_555
H41 C42 1_555 1_555
H42 C42 1_555 1_555
O13 C42 1_555 1_555
H43 O13 1_555 1_555
O11A Pr1 1_555 1_555
N1 O6 1_555 1_555
N3 O12 1_555 1_555
C4 C5 1_555 1_555
C6 C14 1_555 1_555
C10 C40 1_555 1_555
C11 C26 1_555 1_555
C12 C19 1_555 1_555
C14 C15 1_555 1_555
C16 C29 1_555 1_555
C20 C25 1_555 1_555
C21 C31 1_555 1_555
C22 C30 1_555 1_555
C23 C33 1_555 1_555
C24 C27 1_555 1_555
C32 C37 1_555 1_555
C36 C38 1_555 1_555
C39 C40 1_555 1_555
C40 C41 1_555 1_555

#END
