
#######################################################################
#
#                 Cambridge Crystallographic Data Centre
#                                CCDC 
#
#######################################################################
#
# If this CIF has been generated from an entry in the Cambridge 
# Structural Database, then it will include bibliographic, chemical, 
# crystal, experimental, refinement or atomic coordinate data resulting 
# from the CCDC's data processing and validation procedures.
#
#######################################################################

data_PAKTIF
_symmetry_cell_setting           monoclinic
_symmetry_space_group_name_H-M   'P 21/c'
_symmetry_Int_Tables_number      14
_space_group_name_Hall           '-P 2ybc'
loop_
_symmetry_equiv_pos_site_id
_symmetry_equiv_pos_as_xyz
1 x,y,z
2 -x,1/2+y,1/2-z
3 -x,-y,-z
4 x,1/2-y,1/2+z
_cell_length_a                   17.3551(18)
_cell_length_b                   13.2762(12)
_cell_length_c                   7.9170(4)
_cell_angle_alpha                90
_cell_angle_beta                 93.313(6)
_cell_angle_gamma                90
_cell_volume                     1821.11
loop_
_atom_site_label
_atom_site_type_symbol
_atom_site_fract_x
_atom_site_fract_y
_atom_site_fract_z
W1 W 0.71786(3) 0.58665(4) 0.80555(8)
Ag1 Ag 0.76745(7) 0.35790(9) 0.76431(17)
Ag2 Ag 0.72424(7) 0.75428(10) 0.56376(16)
S1 S 0.7340(2) 0.2994(3) 0.4487(5)
C1 C 0.6568(8) 0.3677(11) 0.3665(18)
N1 N 0.6587(8) 0.4508(11) 0.2656(19)
H1 H 0.7011 0.4768 0.2277
C2 C 0.5871(10) 0.4881(14) 0.232(2)
H2 H 0.5735 0.5449 0.1632
C3 C 0.5389(9) 0.4290(13) 0.313(2)
H3 H 0.4845 0.4368 0.3140
N2 N 0.5822(7) 0.3547(9) 0.3960(16)
C4 C 0.5532(10) 0.2752(14) 0.503(2)
H4 H 0.5203 0.2294 0.4337
H5 H 0.5230 0.3053 0.5909
H6 H 0.5967 0.2376 0.5561
S2 S 0.9109(2) 0.3612(3) 0.7721(6)
C5 C 0.9394(8) 0.2386(12) 0.7488(19)
N3 N 0.9037(7) 0.1551(10) 0.7983(19)
H7 H 0.8590 0.1533 0.8453
C6 C 0.9486(9) 0.0721(12) 0.763(2)
H8 H 0.9367 0.0038 0.7863
C7 C 1.0128(9) 0.1063(11) 0.690(2)
H9 H 1.0540 0.0666 0.6521
N4 N 1.0063(7) 0.2095(9) 0.6827(17)
C8 C 1.0631(10) 0.2769(12) 0.616(2)
H10 H 1.0368 0.3341 0.5602
H11 H 1.0932 0.2406 0.5349
H12 H 1.0978 0.3015 0.7096
S3 S 0.6429(2) 0.4548(3) 0.7920(5)
S4 S 0.7936(2) 0.5869(3) 0.5910(5)
S5 S 0.6352(2) 0.7192(3) 0.8000(5)
S6 S 0.7923(2) 0.5782(3) 1.0438(5)
Ag1C Ag 0.76745(7) 0.14210(9) 0.26431(17)
Ag2C Ag 0.72424(7) 0.74572(10) 1.06376(16)
S1C S 0.7340(2) 0.2006(3) 0.9487(5)
S5C S 0.6352(2) 0.7808(3) 0.3000(5)
S6C S 0.7923(2) 0.9218(3) 0.5438(5)
loop_
_geom_bond_atom_site_label_1
_geom_bond_atom_site_label_2
_geom_bond_site_symmetry_1
_geom_bond_site_symmetry_2
W1 S3 1_555 1_555
Ag1 S1 1_555 1_555
Ag2 S4 1_555 1_555
S1 C1 1_555 1_555
C1 N1 1_555 1_555
N1 H1 1_555 1_555
C2 N1 1_555 1_555
H2 C2 1_555 1_555
C3 C2 1_555 1_555
H3 C3 1_555 1_555
N2 C1 1_555 1_555
C4 N2 1_555 1_555
H4 C4 1_555 1_555
H5 C4 1_555 1_555
H6 C4 1_555 1_555
S2 Ag1 1_555 1_555
C5 S2 1_555 1_555
N3 C5 1_555 1_555
H7 N3 1_555 1_555
C6 N3 1_555 1_555
H8 C6 1_555 1_555
C7 C6 1_555 1_555
H9 C7 1_555 1_555
N4 C5 1_555 1_555
C8 N4 1_555 1_555
H10 C8 1_555 1_555
H11 C8 1_555 1_555
H12 C8 1_555 1_555
S3 Ag1 1_555 1_555
S4 W1 1_555 1_555
S5 W1 1_555 1_555
S6 W1 1_555 1_555
Ag1C S1 1_555 1_555
Ag2C S5 1_555 1_555
S1C Ag1 1_555 1_555
S5C Ag2 1_555 1_555
S6C Ag2 1_555 1_555
Ag2 S5 1_555 1_555
C3 N2 1_555 1_555
C7 N4 1_555 1_555
S6 Ag2C 1_555 1_555

#END
