
#######################################################################
#
#                 Cambridge Crystallographic Data Centre
#                                CCDC 
#
#######################################################################
#
# If this CIF has been generated from an entry in the Cambridge 
# Structural Database, then it will include bibliographic, chemical, 
# crystal, experimental, refinement or atomic coordinate data resulting 
# from the CCDC's data processing and validation procedures.
#
#######################################################################

data_PALHOA
_symmetry_cell_setting           triclinic
_symmetry_space_group_name_H-M   'P -1'
_symmetry_Int_Tables_number      2
_space_group_name_Hall           '-P 1'
loop_
_symmetry_equiv_pos_site_id
_symmetry_equiv_pos_as_xyz
1 x,y,z
2 -x,-y,-z
_cell_length_a                   9.1880(18)
_cell_length_b                   10.925(2)
_cell_length_c                   11.907(2)
_cell_angle_alpha                65.23(3)
_cell_angle_beta                 75.63(3)
_cell_angle_gamma                89.58(3)
_cell_volume                     1044.93
loop_
_atom_site_label
_atom_site_type_symbol
_atom_site_fract_x
_atom_site_fract_y
_atom_site_fract_z
Cd1 Cd 0.49006(2) 0.307316(16) 0.595076(15)
O1 O 0.6575(3) 0.35842(19) 0.71855(18)
O2 O 0.6065(2) 0.51797(18) 0.55259(18)
O3 O 0.7499(2) 0.5439(2) 0.79546(18)
O4 O 0.4875(2) 0.1844(2) 0.4642(2)
O5 O 0.7033(2) 0.2647(2) 0.46697(19)
O6 O 0.8678(2) 0.1584(2) 0.30902(17)
N1 N 0.2747(3) 0.3024(2) 0.7526(2)
N2 N 0.4508(3) 0.0953(2) 0.77169(19)
C1 C 0.6606(3) 0.4792(2) 0.6481(2)
C2 C 0.7323(3) 0.5881(3) 0.6692(3)
H3 H 0.8309 0.6217 0.6077
H4 H 0.6708 0.6630 0.6525
C3 C 0.6220(3) 0.5232(3) 0.8935(2)
C4 C 0.6447(3) 0.4964(3) 1.0118(3)
H5 H 0.7428 0.4942 1.0203
C5 C 0.4754(3) 0.5271(3) 0.8820(3)
H6 H 0.4576 0.5456 0.8032
C6 C 0.6277(3) 0.2020(2) 0.4299(2)
C7 C 0.7077(3) 0.1470(3) 0.3350(3)
H7 H 0.6704 0.0521 0.3687
H8 H 0.6811 0.1951 0.2548
C8 C 0.9276(3) 0.0765(3) 0.4077(2)
C9 C 1.0791(3) 0.1084(3) 0.3892(3)
H9 H 1.1330 0.1814 0.3145
C10 C 0.8477(3) -0.0327(3) 0.5189(3)
H10 H 0.7455 -0.0552 0.5319
C11 C 0.1892(4) 0.4040(3) 0.7431(3)
H11 H 0.2095 0.4817 0.6659
C12 C 0.0700(4) 0.3969(4) 0.8460(4)
H12 H 0.0119 0.4689 0.8365
C13 C 0.0396(4) 0.2839(4) 0.9605(4)
H13 H -0.0382 0.2793 1.0296
C14 C 0.1257(3) 0.1752(3) 0.9734(3)
C15 C 0.0978(4) 0.0503(4) 1.0893(3)
H14 H 0.0216 0.0416 1.1611
C16 C 0.1795(4) -0.0532(4) 1.0955(3)
H15 H 0.1570 -0.1333 1.1706
C17 C 0.3002(4) -0.0431(3) 0.9893(2)
C18 C 0.3914(4) -0.1481(3) 0.9926(3)
H16 H 0.3719 -0.2302 1.0656
C19 C 0.5073(4) -0.1292(3) 0.8895(3)
H17 H 0.5679 -0.1982 0.8915
C20 C 0.5360(4) -0.0057(3) 0.7799(3)
H18 H 0.6173 0.0064 0.7103
C21 C 0.3345(3) 0.0783(2) 0.8741(2)
C22 C 0.2430(3) 0.1886(3) 0.8659(2)
Cd1A Cd 0.50994(2) 0.692684(16) 1.404924(15)
Cd1A_2 Cd 0.50994(2) 0.692684(16) 0.404924(15)
Cd1_2 Cd 0.49006(2) 0.307316(16) 1.595076(15)
Cd1A_3 Cd 1.50994(2) -0.307316(16) 0.404924(15)
O1A O 0.3425(3) 0.64158(19) 1.28145(18)
O2A O 0.3935(2) 0.48203(18) 1.44741(18)
O2A_2 O 0.3935(2) 0.48203(18) 0.44741(18)
O2_2 O 0.6065(2) 0.51797(18) 1.55259(18)
O3A O 0.2501(2) 0.4561(2) 1.20454(18)
O4A O 1.5125(2) -0.1844(2) 0.5358(2)
O4A_2 O 0.5125(2) 0.8156(2) 1.5358(2)
O5A O 1.2967(2) -0.2647(2) 0.53303(19)
O5A_2 O 0.2967(2) 0.7353(2) 1.53303(19)
O6A O 1.1322(2) -0.1584(2) 0.69098(17)
N1A N 0.7253(3) 0.6976(2) 1.2474(2)
N2A N 0.5492(3) 0.9047(2) 1.22831(19)
C1A C 0.3394(3) 0.5208(2) 1.3519(2)
C2A C 0.2677(3) 0.4119(3) 1.3308(3)
H3A H 0.1691 0.3783 1.3923
H4A H 0.3292 0.3370 1.3475
C3A C 0.3780(3) 0.4768(3) 1.1065(2)
C4A C 0.3553(3) 0.5036(3) 0.9882(3)
H5A H 0.2572 0.5058 0.9797
C5A C 0.5246(3) 0.4729(3) 1.1180(3)
H6A H 0.5424 0.4544 1.1968
C6A C 1.3723(3) -0.2020(2) 0.5701(2)
C7A C 1.2923(3) -0.1470(3) 0.6650(3)
H7A H 1.3296 -0.0521 0.6313
H8A H 1.3189 -0.1951 0.7452
C8A C 1.0724(3) -0.0765(3) 0.5923(2)
C9A C 0.9209(3) -0.1084(3) 0.6108(3)
H9A H 0.8670 -0.1814 0.6855
C10A C 1.1523(3) 0.0327(3) 0.4811(3)
H10A H 1.2545 0.0552 0.4681
C11A C 0.8108(4) 0.5960(3) 1.2569(3)
H11A H 0.7905 0.5183 1.3341
C12A C 0.9300(4) 0.6031(4) 1.1540(4)
H12A H 0.9881 0.5311 1.1635
C13A C 0.9604(4) 0.7161(4) 1.0395(4)
H13A H 1.0382 0.7207 0.9704
C14A C 0.8743(3) 0.8248(3) 1.0266(3)
C15A C 0.9022(4) 0.9497(4) 0.9107(3)
H14A H 0.9784 0.9584 0.8389
C16A C 0.8205(4) 1.0532(4) 0.9045(3)
H15A H 0.8430 1.1333 0.8294
C17A C 0.6998(4) 1.0431(3) 1.0107(2)
C18A C 0.6086(4) 1.1481(3) 1.0074(3)
H16A H 0.6281 1.2302 0.9344
C19A C 0.4927(4) 1.1292(3) 1.1105(3)
H17A H 0.4321 1.1982 1.1085
C20A C 0.4640(4) 1.0057(3) 1.2201(3)
H18A H 0.3827 0.9936 1.2897
C21A C 0.6655(3) 0.9217(2) 1.1259(2)
C22A C 0.7570(3) 0.8114(3) 1.1341(2)
O7 O 0.9515(6) 0.2911(6) 0.5748(6)
H1 H 0.977(12) 0.353(6) 0.595(9)
H2 H 0.922(12) 0.328(8) 0.507(6)
loop_
_geom_bond_atom_site_label_1
_geom_bond_atom_site_label_2
_geom_bond_site_symmetry_1
_geom_bond_site_symmetry_2
Cd1 O1 1_555 1_555
O1 C1 1_555 1_555
O2 Cd1 1_555 1_555
O3 C2 1_555 1_555
O4 Cd1 1_555 1_555
O5 Cd1 1_555 1_555
O6 C7 1_555 1_555
O7 H1 1_555 1_555
H2 O7 1_555 1_555
N1 Cd1 1_555 1_555
N2 Cd1 1_555 1_555
C1 O2 1_555 1_555
C2 C1 1_555 1_555
H3 C2 1_555 1_555
H4 C2 1_555 1_555
C3 O3 1_555 1_555
C4 C3 1_555 1_555
H5 C4 1_555 1_555
C5 C3 1_555 1_555
H6 C5 1_555 1_555
C6 O4 1_555 1_555
C7 C6 1_555 1_555
H7 C7 1_555 1_555
H8 C7 1_555 1_555
C8 O6 1_555 1_555
C9 C8 1_555 1_555
H9 C9 1_555 1_555
C10 C8 1_555 1_555
H10 C10 1_555 1_555
C11 N1 1_555 1_555
H11 C11 1_555 1_555
C12 C11 1_555 1_555
H12 C12 1_555 1_555
C13 C12 1_555 1_555
H13 C13 1_555 1_555
C14 C13 1_555 1_555
C15 C14 1_555 1_555
H14 C15 1_555 1_555
C16 C15 1_555 1_555
H15 C16 1_555 1_555
C17 C16 1_555 1_555
C18 C17 1_555 1_555
H16 C18 1_555 1_555
C19 C18 1_555 1_555
H17 C19 1_555 1_555
C20 N2 1_555 1_555
H18 C20 1_555 1_555
C21 N2 1_555 1_555
C22 N1 1_555 1_555
Cd1A O1A 1_555 1_555
Cd1A_2 O2 1_555 1_555
Cd1_2 O2A 1_555 1_555
Cd1A_3 O4A 1_555 1_555
O1A C1A 1_555 1_555
O2A Cd1A 1_555 1_555
O2A_2 Cd1 1_555 1_555
O2_2 Cd1A 1_555 1_555
O3A C2A 1_555 1_555
O4A C6A 1_555 1_555
O4A_2 Cd1A 1_555 1_555
O5A Cd1A_3 1_555 1_555
O5A_2 Cd1A 1_555 1_555
O6A C7A 1_555 1_555
N1A Cd1A 1_555 1_555
N2A Cd1A 1_555 1_555
C1A O2A 1_555 1_555
C2A C1A 1_555 1_555
H3A C2A 1_555 1_555
H4A C2A 1_555 1_555
C3A O3A 1_555 1_555
C4A C5 1_555 1_555
H5A C4A 1_555 1_555
C5A C4 1_555 1_555
H6A C5A 1_555 1_555
C6A O5A 1_555 1_555
C7A C6A 1_555 1_555
H7A C7A 1_555 1_555
H8A C7A 1_555 1_555
C8A O6A 1_555 1_555
C9A C10 1_555 1_555
H9A C9A 1_555 1_555
C10A C9 1_555 1_555
H10A C10A 1_555 1_555
C11A N1A 1_555 1_555
H11A C11A 1_555 1_555
C12A C11A 1_555 1_555
H12A C12A 1_555 1_555
C13A C12A 1_555 1_555
H13A C13A 1_555 1_555
C14A C13A 1_555 1_555
C15A C14A 1_555 1_555
H14A C15A 1_555 1_555
C16A C15A 1_555 1_555
H15A C16A 1_555 1_555
C17A C16A 1_555 1_555
C18A C17A 1_555 1_555
H16A C18A 1_555 1_555
C19A C18A 1_555 1_555
H17A C19A 1_555 1_555
C20A N2A 1_555 1_555
H18A C20A 1_555 1_555
C21A N2A 1_555 1_555
C22A N1A 1_555 1_555
O5 C6 1_555 1_555
C14 C22 1_555 1_555
C17 C21 1_555 1_555
C19 C20 1_555 1_555
C21 C22 1_555 1_555
Cd1A_2 O2A_2 1_555 1_555
Cd1_2 O2_2 1_555 1_555
C3A C4A 1_555 1_555
C3A C5A 1_555 1_555
C8A C9A 1_555 1_555
C8A C10A 1_555 1_555
C14A C22A 1_555 1_555
C17A C21A 1_555 1_555
C19A C20A 1_555 1_555
C21A C22A 1_555 1_555

#END
