
#######################################################################
#
#                 Cambridge Crystallographic Data Centre
#                                CCDC 
#
#######################################################################
#
# If this CIF has been generated from an entry in the Cambridge 
# Structural Database, then it will include bibliographic, chemical, 
# crystal, experimental, refinement or atomic coordinate data resulting 
# from the CCDC's data processing and validation procedures.
#
#######################################################################

data_PALHUG
_symmetry_cell_setting           monoclinic
_symmetry_space_group_name_H-M   'P 21/c'
_symmetry_Int_Tables_number      14
_space_group_name_Hall           '-P 2ybc'
loop_
_symmetry_equiv_pos_site_id
_symmetry_equiv_pos_as_xyz
1 x,y,z
2 -x,1/2+y,1/2-z
3 -x,-y,-z
4 x,1/2-y,1/2+z
_cell_length_a                   10.719(4)
_cell_length_b                   37.634(13)
_cell_length_c                   7.349(2)
_cell_angle_alpha                90
_cell_angle_beta                 106.841(4)
_cell_angle_gamma                90
_cell_volume                     2837.43
loop_
_atom_site_label
_atom_site_type_symbol
_atom_site_fract_x
_atom_site_fract_y
_atom_site_fract_z
Zn1 Zn 0.93250(8) 0.23923(2) 0.23108(11)
Zn2 Zn 1.17816(8) 0.03345(2) 0.62328(11)
V1 V 0.88498(12) 0.04979(3) 0.25231(16)
V2 V 0.67907(11) 0.21162(3) 0.89927(16)
V3 V 0.79307(12) 0.11718(3) 0.47599(17)
V4 V 0.96521(12) 0.07106(3) 0.87040(16)
Te1 Te 0.73330(4) 0.202717(13) 0.44680(6)
O1 O 0.7629(5) 0.20669(14) 0.7175(6)
O2 O 0.8750(5) 0.23382(13) 0.4740(6)
O3 O 0.6114(5) 0.24482(14) 0.3895(7)
O4 O 0.8706(5) 0.15714(14) 0.5054(7)
O5 O 0.8219(6) 0.09219(14) 0.2829(8)
O6 O 1.0338(5) 0.04627(17) 0.3931(7)
O7 O 0.8864(5) 0.04531(14) 0.0126(7)
O8 O 0.7929(5) 0.01764(14) 0.2973(7)
O9 O 0.7795(4) 0.20369(14) 0.1231(6)
O10 O 0.5576(5) 0.18471(14) 0.8573(7)
O11 O 0.8348(5) 0.09052(15) 0.6819(7)
O12 O 0.6401(5) 0.12691(15) 0.4230(7)
O13 O 1.0609(5) 0.04542(15) 0.7847(7)
O14 O 1.0541(6) 0.10197(16) 0.9960(8)
N1 N 1.0956(6) 0.27072(17) 0.3516(8)
N2 N 1.0799(5) 0.20061(17) 0.3036(7)
N3 N 1.2989(6) 0.03125(16) 0.4415(8)
N4 N 1.3343(6) 0.06587(17) 0.7619(8)
C1 C 1.0959(8) 0.3064(2) 0.3573(10)
H1 H 1.0186 0.3185 0.3027
C2 C 1.2082(7) 0.3256(2) 0.4424(10)
H2 H 1.2065 0.3503 0.4461
C3 C 1.3220(7) 0.3072(2) 0.5211(11)
H3 H 1.3983 0.3195 0.5795
C4 C 1.3231(7) 0.2705(2) 0.5136(11)
H4 H 1.4001 0.2579 0.5647
C5 C 1.2066(7) 0.2526(2) 0.4278(10)
C6 C 1.1969(7) 0.21356(19) 0.4121(9)
C7 C 1.2969(7) 0.1909(2) 0.5056(11)
H5 H 1.3759 0.2001 0.5801
C8 C 1.2775(8) 0.1542(2) 0.4867(11)
H6 H 1.3437 0.1387 0.5488
C9 C 1.1612(8) 0.1412(2) 0.3766(10)
H7 H 1.1476 0.1168 0.3624
C10 C 1.0630(8) 0.1650(2) 0.2855(10)
H8 H 0.9838 0.1562 0.2104
C11 C 1.2703(7) 0.0138(2) 0.2764(10)
H9 H 1.1875 0.0040 0.2295
C12 C 1.3566(7) 0.0096(2) 0.1731(11)
H10 H 1.3335 -0.0030 0.0593
C13 C 1.4793(8) 0.0245(2) 0.2416(10)
H11 H 1.5402 0.0220 0.1744
C14 C 1.5102(7) 0.0431(2) 0.4103(11)
H12 H 1.5921 0.0533 0.4587
C15 C 1.4164(7) 0.04628(19) 0.5073(9)
C16 C 1.4363(7) 0.06635(19) 0.6898(9)
C17 C 1.5489(7) 0.0851(2) 0.7772(11)
H13 H 1.6185 0.0851 0.7255
C18 C 1.5570(7) 0.1039(2) 0.9430(11)
H14 H 1.6316 0.1167 1.0037
C19 C 1.4508(7) 0.1031(2) 1.0164(10)
H15 H 1.4536 0.1153 1.1276
C20 C 1.3418(7) 0.0840(2) 0.9218(10)
H16 H 1.2708 0.0836 0.9705
Zn1C Zn 0.93250(8) 0.26077(2) 0.73108(11)
Zn2B Zn 0.82184(8) -0.03345(2) 0.37672(11)
V2C V 0.67907(11) 0.28838(3) 0.39927(16)
V2_2 V 0.67907(11) 0.21162(3) -0.10073(16)
V4_2 V 0.96521(12) 0.07106(3) -0.12960(16)
O2C O 0.8750(5) 0.26618(13) -0.0260(6)
O3C O 0.6114(5) 0.25518(14) 0.8895(7)
O7_2 O 0.8864(5) 0.04531(14) 1.0126(7)
O8B O 1.2071(5) -0.01764(14) 0.7027(7)
O9_2 O 0.7795(4) 0.20369(14) 1.1231(6)
loop_
_geom_bond_atom_site_label_1
_geom_bond_atom_site_label_2
_geom_bond_site_symmetry_1
_geom_bond_site_symmetry_2
Zn1 O2 1_555 1_555
Zn2 O6 1_555 1_555
V1 O5 1_555 1_555
V2 O1 1_555 1_555
V3 O4 1_555 1_555
V4 O11 1_555 1_555
Te1 O1 1_555 1_555
O2 Te1 1_555 1_555
O3 Te1 1_555 1_555
O4 Te1 1_555 1_555
O5 V3 1_555 1_555
O6 V1 1_555 1_555
O7 V1 1_555 1_555
O8 V1 1_555 1_555
O9 Zn1 1_555 1_555
O10 V2 1_555 1_555
O11 V3 1_555 1_555
O12 V3 1_555 1_555
O13 Zn2 1_555 1_555
O14 V4 1_555 1_555
N1 Zn1 1_555 1_555
N2 Zn1 1_555 1_555
N3 Zn2 1_555 1_555
N4 Zn2 1_555 1_555
C1 N1 1_555 1_555
H1 C1 1_555 1_555
C2 C1 1_555 1_555
H2 C2 1_555 1_555
C3 C2 1_555 1_555
H3 C3 1_555 1_555
C4 C3 1_555 1_555
H4 C4 1_555 1_555
C5 N1 1_555 1_555
C6 N2 1_555 1_555
C7 C6 1_555 1_555
H5 C7 1_555 1_555
C8 C7 1_555 1_555
H6 C8 1_555 1_555
C9 C8 1_555 1_555
H7 C9 1_555 1_555
C10 N2 1_555 1_555
H8 C10 1_555 1_555
C11 N3 1_555 1_555
H9 C11 1_555 1_555
C12 C11 1_555 1_555
H10 C12 1_555 1_555
C13 C12 1_555 1_555
H11 C13 1_555 1_555
C14 C13 1_555 1_555
H12 C14 1_555 1_555
C15 N3 1_555 1_555
C16 N4 1_555 1_555
C17 C16 1_555 1_555
H13 C17 1_555 1_555
C18 C17 1_555 1_555
H14 C18 1_555 1_555
C19 C18 1_555 1_555
H15 C19 1_555 1_555
C20 N4 1_555 1_555
H16 C20 1_555 1_555
Zn1C O2 1_555 1_555
Zn2B O8 1_555 1_555
V2C O3 1_555 1_555
V2_2 O9 1_555 1_555
V4_2 O7 1_555 1_555
O2C Zn1 1_555 1_555
O3C V2 1_555 1_555
O7_2 V4 1_555 1_555
O8B Zn2 1_555 1_555
O9_2 V2 1_555 1_555
V4 O13 1_555 1_555
C4 C5 1_555 1_555
C5 C6 1_555 1_555
C9 C10 1_555 1_555
C14 C15 1_555 1_555
C15 C16 1_555 1_555
C19 C20 1_555 1_555

#END
