
#######################################################################
#
#                 Cambridge Crystallographic Data Centre
#                                CCDC 
#
#######################################################################
#
# If this CIF has been generated from an entry in the Cambridge 
# Structural Database, then it will include bibliographic, chemical, 
# crystal, experimental, refinement or atomic coordinate data resulting 
# from the CCDC's data processing and validation procedures.
#
#######################################################################

data_PALJUI
_symmetry_cell_setting           monoclinic
_symmetry_space_group_name_H-M   'P 21/c'
_symmetry_Int_Tables_number      14
_space_group_name_Hall           '-P 2ybc'
loop_
_symmetry_equiv_pos_site_id
_symmetry_equiv_pos_as_xyz
1 x,y,z
2 -x,1/2+y,1/2-z
3 -x,-y,-z
4 x,1/2-y,1/2+z
_cell_length_a                   21.4713(19)
_cell_length_b                   7.7935(7)
_cell_length_c                   18.3207(15)
_cell_angle_alpha                90
_cell_angle_beta                 114.554(2)
_cell_angle_gamma                90
_cell_volume                     2788.49
loop_
_atom_site_label
_atom_site_type_symbol
_atom_site_fract_x
_atom_site_fract_y
_atom_site_fract_z
Co1 Co 0.69901(3) 0.28071(10) 0.58125(3)
N1 N 0.5978(2) 0.2776(6) 0.4888(2)
N2 N 0.6783(2) 0.2164(6) 0.1865(2)
N3 N 1.1179(3) 0.4289(8) 0.9007(3)
N4 N 0.8063(2) 0.3025(6) 0.6485(2)
C1 C 0.5395(3) 0.2866(8) 0.4989(3)
H1 H 0.5424 0.2930 0.5509
C2 C 0.4761(3) 0.2870(9) 0.4364(4)
H2 H 0.4369 0.2946 0.4460
C3 C 0.4710(3) 0.2759(9) 0.3594(4)
H3 H 0.4285 0.2781 0.3159
C4 C 0.5303(3) 0.2615(7) 0.3480(3)
H4 H 0.5282 0.2495 0.2966
C5 C 0.5926(3) 0.2651(6) 0.4136(3)
C6 C 0.6594(3) 0.2542(6) 0.4086(3)
C7 C 0.6462(3) 0.3457(8) 0.2015(3)
H5 H 0.6289 0.4314 0.1630
C8 C 0.6367(3) 0.3616(8) 0.2713(3)
H6 H 0.6124 0.4541 0.2785
C9 C 0.6633(2) 0.2399(7) 0.3292(3)
C10 C 0.6966(3) 0.1007(7) 0.3137(3)
H7 H 0.7146 0.0135 0.3514
C11 C 0.7025(3) 0.0941(7) 0.2426(3)
H8 H 0.7243 0.0000 0.2325
C12 C 1.1480(5) 0.4998(13) 0.9733(5)
H9 H 1.1945 0.4794 1.0026
C13 C 1.1161(5) 0.5982(13) 1.0070(5)
H10 H 1.1404 0.6472 1.0572
C14 C 1.0462(5) 0.6260(11) 0.9657(5)
H11 H 1.0226 0.6927 0.9880
C15 C 1.0121(4) 0.5525(9) 0.8906(4)
H12 H 0.9653 0.5675 0.8613
C16 C 1.0496(3) 0.4576(9) 0.8612(4)
C17 C 1.0209(3) 0.3844(9) 0.7804(4)
C18 C 0.8438(3) 0.3870(8) 0.6173(3)
H13 H 0.8220 0.4275 0.5650
C19 C 0.9122(3) 0.4171(8) 0.6582(4)
H14 H 0.9364 0.4743 0.6336
C20 C 0.9452(3) 0.3613(8) 0.7366(4)
C21 C 0.9076(3) 0.2726(8) 0.7705(4)
H15 H 0.9282 0.2327 0.8230
C22 C 0.8385(3) 0.2452(7) 0.7235(3)
H16 H 0.8134 0.1836 0.7455
O1 O 0.71196(18) 0.2562(5) 0.4700(2)
O2 O 1.0568(3) 0.3455(10) 0.7467(4)
O15 O 0.6991(2) 0.0162(5) 0.5834(2)
H17 H 0.7339 -0.0644 0.6099
H18 H 0.6731 -0.0417 0.5422
O16 O 0.6967(2) 0.5476(5) 0.5730(2)
H19 H 0.7279 0.6200 0.6034
H20 H 0.6740 0.5755 0.5290
Co1C Co 0.69901(3) 0.21929(10) 0.08125(3)
N2C N 0.6783(2) 0.2836(6) 0.6865(2)
Cl1 Cl 0.58348(8) 0.7799(2) 0.38713(8)
O3 O 0.6325(8) 0.6402(19) 0.4142(7)
O5 O 0.5842(7) 0.8776(15) 0.3252(6)
O7 O 0.5186(6) 0.688(2) 0.3582(6)
O9 O 0.5880(7) 0.8766(14) 0.4536(6)
Cl2 Cl 1.17929(17) 0.1266(4) 1.11853(19)
O11 O 1.1125(7) 0.139(2) 1.0556(11)
O12 O 1.2191(7) 0.1552(18) 1.0784(8)
O13 O 1.1877(9) -0.0253(16) 1.1483(9)
O14 O 1.1790(9) 0.2662(18) 1.1592(9)
O17 O 0.7931(2) 0.7831(6) 0.6625(3)
H21 H 0.8087 0.7293 0.7105
H22 H 0.8334 0.8115 0.6450
O18 O 1.0059(13) 0.078(3) 0.9459(13)
O4? O 0.5913(8) 0.6343(18) 0.4299(11)
O6? O 0.5949(7) 0.745(3) 0.3155(7)
O8? O 0.5228(7) 0.861(2) 0.3717(12)
O10? O 0.6431(6) 0.8933(14) 0.4317(6)
loop_
_geom_bond_atom_site_label_1
_geom_bond_atom_site_label_2
_geom_bond_site_symmetry_1
_geom_bond_site_symmetry_2
Co1 N1 1_555 1_555
Cl1 O3 1_555 1_555
Cl2 O11 1_555 1_555
N1 C1 1_555 1_555
N2 C7 1_555 1_555
N3 C12 1_555 1_555
N4 Co1 1_555 1_555
C1 H1 1_555 1_555
C2 C1 1_555 1_555
H2 C2 1_555 1_555
C3 C2 1_555 1_555
H3 C3 1_555 1_555
C4 C3 1_555 1_555
H4 C4 1_555 1_555
C5 N1 1_555 1_555
C6 C5 1_555 1_555
C7 H5 1_555 1_555
C8 C7 1_555 1_555
H6 C8 1_555 1_555
C9 C6 1_555 1_555
C10 C9 1_555 1_555
H7 C10 1_555 1_555
C11 N2 1_555 1_555
H8 C11 1_555 1_555
C12 H9 1_555 1_555
C13 C12 1_555 1_555
H10 C13 1_555 1_555
C14 C13 1_555 1_555
H11 C14 1_555 1_555
C15 C14 1_555 1_555
H12 C15 1_555 1_555
C16 N3 1_555 1_555
C17 C16 1_555 1_555
C18 N4 1_555 1_555
H13 C18 1_555 1_555
C19 C18 1_555 1_555
H14 C19 1_555 1_555
C20 C17 1_555 1_555
C21 C20 1_555 1_555
H15 C21 1_555 1_555
C22 N4 1_555 1_555
H16 C22 1_555 1_555
O1 Co1 1_555 1_555
O2 C17 1_555 1_555
O5 Cl1 1_555 1_555
O7 Cl1 1_555 1_555
O9 Cl1 1_555 1_555
O12 Cl2 1_555 1_555
O13 Cl2 1_555 1_555
O14 Cl2 1_555 1_555
O15 Co1 1_555 1_555
H17 O15 1_555 1_555
H18 O15 1_555 1_555
O16 Co1 1_555 1_555
H19 O16 1_555 1_555
H20 O16 1_555 1_555
O17 H21 1_555 1_555
H22 O17 1_555 1_555
Co1C N2 1_555 1_555
N2C Co1 1_555 1_555
C4 C5 1_555 1_555
C6 O1 1_555 1_555
C8 C9 1_555 1_555
C10 C11 1_555 1_555
C15 C16 1_555 1_555
C19 C20 1_555 1_555
C21 C22 1_555 1_555

#END
