
#######################################################################
#
#                 Cambridge Crystallographic Data Centre
#                                CCDC 
#
#######################################################################
#
# If this CIF has been generated from an entry in the Cambridge 
# Structural Database, then it will include bibliographic, chemical, 
# crystal, experimental, refinement or atomic coordinate data resulting 
# from the CCDC's data processing and validation procedures.
#
#######################################################################

data_PALJER
_symmetry_cell_setting           orthorhombic
_symmetry_space_group_name_H-M   'P n a 21'
_symmetry_Int_Tables_number      33
_space_group_name_Hall           'P 2c -2n'
loop_
_symmetry_equiv_pos_site_id
_symmetry_equiv_pos_as_xyz
1 x,y,z
2 1/2-x,1/2+y,1/2+z
3 1/2+x,1/2-y,z
4 -x,-y,1/2+z
_cell_length_a                   11.437(3)
_cell_length_b                   23.849(4)
_cell_length_c                   6.680(1)
_cell_angle_alpha                90
_cell_angle_beta                 90
_cell_angle_gamma                90
_cell_volume                     1822.04
loop_
_atom_site_label
_atom_site_type_symbol
_atom_site_fract_x
_atom_site_fract_y
_atom_site_fract_z
Cu1 Cu -0.2916(1) -0.33695(6) 0.000
O1 O -0.7916(8) -0.2556(4) -0.313(2)
O2 O -0.4514(7) -0.3489(3) -0.209(1)
N1 N -0.6820(8) -0.2257(4) -0.058(1)
N2 N -0.6205(8) -0.3024(4) -0.263(2)
N3 N -0.4046(8) -0.2838(4) 0.118(2)
N4 N -0.5746(9) -0.2006(4) 0.220(2)
C1 C -0.704(1) -0.2592(5) -0.215(2)
C2 C -0.521(1) -0.3114(5) -0.167(2)
C3 C -0.5030(9) -0.2744(4) 0.010(2)
C4 C -0.394(1) -0.2515(6) 0.283(2)
C5 C -0.475(1) -0.2132(5) 0.329(2)
C6 C -0.5843(9) -0.2328(4) 0.054(2)
N5 N -0.2068(8) -0.3934(4) -0.157(2)
N6 N -0.3294(8) -0.4049(4) 0.168(2)
C7 C -0.154(1) -0.3847(5) -0.338(2)
C8 C -0.100(1) -0.4266(5) -0.440(3)
C9 C -0.103(1) -0.4786(6) -0.366(3)
C10 C -0.163(1) -0.4917(5) -0.192(3)
C11 C -0.212(1) -0.4472(5) -0.089(2)
C12 C -0.281(1) -0.4534(5) 0.099(2)
C13 C -0.299(1) -0.5031(5) 0.198(2)
C14 C -0.361(2) -0.5046(7) 0.374(3)
C15 C -0.413(1) -0.4542(6) 0.439(3)
C16 C -0.392(1) -0.4069(6) 0.335(3)
H1 H -0.157 -0.348 -0.395
H2 H -0.057 -0.418 -0.562
H3 H -0.064 -0.508 -0.433
H4 H -0.171 -0.529 -0.145
H5 H -0.265 -0.537 0.147
H6 H -0.369 -0.539 0.448
H7 H -0.462 -0.453 0.553
H8 H -0.423 -0.372 0.386
H9 H -0.638 -0.326 -0.373
H10 H -0.327 -0.257 0.367
H11 H -0.464 -0.193 0.450
N1B N -0.1820(8) -0.2743(4) -0.058(1)
Cu1B Cu -0.7916(1) -0.16305(6) 0.000
O3 O -0.640(1) -0.3383(6) 0.327(3)
O4 O -0.770(1) -0.3802(4) 0.434(3)
O5 O -0.738(2) -0.3799(6) 0.130(3)
N7 N -0.718(1) -0.3687(4) 0.288(2)
O6 O -0.899(1) -0.3761(8) -0.155(3)
loop_
_geom_bond_atom_site_label_1
_geom_bond_atom_site_label_2
_geom_bond_site_symmetry_1
_geom_bond_site_symmetry_2
Cu1 O2 1_555 1_555
O1 C1 1_555 1_555
O2 C2 1_555 1_555
N1 C1 1_555 1_555
N2 C1 1_555 1_555
N3 Cu1 1_555 1_555
N4 C5 1_555 1_555
C2 N2 1_555 1_555
C3 N3 1_555 1_555
C4 N3 1_555 1_555
C5 C4 1_555 1_555
C6 N1 1_555 1_555
N5 Cu1 1_555 1_555
N6 Cu1 1_555 1_555
C7 N5 1_555 1_555
C8 C7 1_555 1_555
C9 C8 1_555 1_555
C10 C9 1_555 1_555
C11 N5 1_555 1_555
C12 N6 1_555 1_555
C13 C12 1_555 1_555
C14 C13 1_555 1_555
C15 C14 1_555 1_555
C16 N6 1_555 1_555
O3 N7 1_555 1_555
O4 N7 1_555 1_555
O5 N7 1_555 1_555
H1 C7 1_555 1_555
H2 C8 1_555 1_555
H3 C9 1_555 1_555
H4 C10 1_555 1_555
H5 C13 1_555 1_555
H6 C14 1_555 1_555
H7 C15 1_555 1_555
H8 C16 1_555 1_555
H9 N2 1_555 1_555
H10 C4 1_555 1_555
H11 C5 1_555 1_555
N1B Cu1 1_555 1_555
Cu1B N1 1_555 1_555
N4 C6 1_555 1_555
C2 C3 1_555 1_555
C3 C6 1_555 1_555
C10 C11 1_555 1_555
C11 C12 1_555 1_555
C15 C16 1_555 1_555

#END
