
#######################################################################
#
#                 Cambridge Crystallographic Data Centre
#                                CCDC 
#
#######################################################################
#
# If this CIF has been generated from an entry in the Cambridge 
# Structural Database, then it will include bibliographic, chemical, 
# crystal, experimental, refinement or atomic coordinate data resulting 
# from the CCDC's data processing and validation procedures.
#
#######################################################################

data_PALJAO
_symmetry_cell_setting           hexagonal
_symmetry_space_group_name_H-M   'P 62'
_symmetry_Int_Tables_number      171
_space_group_name_Hall           'P 62'
loop_
_symmetry_equiv_pos_site_id
_symmetry_equiv_pos_as_xyz
1 x,y,z
2 -y,x-y,2/3+z
3 -x+y,-x,1/3+z
4 -x,-y,z
5 y,-x+y,2/3+z
6 x-y,x,1/3+z
_cell_length_a                   17.523(3)
_cell_length_b                   17.523(3)
_cell_length_c                   11.551(2)
_cell_angle_alpha                90
_cell_angle_beta                 90
_cell_angle_gamma                120
_cell_volume                     3071.62
loop_
_atom_site_label
_atom_site_type_symbol
_atom_site_fract_x
_atom_site_fract_y
_atom_site_fract_z
Cd1 Cd 0.123997(12) 0.330235(12) 0.24055(3)
N1 N 0.25981(17) 0.36538(18) 0.3170(3)
N2 N 0.33234(16) 0.43295(19) 0.2663(3)
H1 H 0.3839 0.4519 0.2954
N3 N 0.54549(18) 0.67743(19) 0.0026(3)
N4 N -0.01959(15) 0.23341(16) 0.3005(2)
N5 N -0.08762(15) 0.23580(16) 0.2401(3)
H2 H -0.1419 0.2030 0.2595
N6 N -0.2563(4) 0.3266(6) -0.0319(9)
N7 N 0.11400(13) 0.24576(14) 0.4115(3)
C1 C 0.03512(18) 0.18510(19) 0.4522(3)
C2 C 0.0275(2) 0.1338(2) 0.5449(3)
H3 H -0.0278 0.0914 0.5715
C3 C 0.1031(2) 0.1457(3) 0.5991(4)
H4 H 0.0993 0.1126 0.6640
C4 C 0.1859(2) 0.2090(2) 0.5544(4)
H5 H 0.2379 0.2185 0.5889
C5 C 0.1874(2) 0.2559(2) 0.4590(3)
C6 C 0.2729(2) 0.3274(2) 0.4059(4)
C7 C 0.3216(2) 0.4690(2) 0.1709(4)
C8 C 0.4022(2) 0.5438(2) 0.1152(4)
C9 C 0.4824(3) 0.5839(4) 0.1618(5)
H6 H 0.4924 0.5669 0.2339
C10 C 0.5515(3) 0.6523(4) 0.0997(7)
H7 H 0.6065 0.6811 0.1350
C11 C 0.4677(3) 0.6382(4) -0.0385(5)
H8 H 0.4608 0.6543 -0.1128
C12 C 0.3929(3) 0.5746(4) 0.0150(5)
H9 H 0.3377 0.5539 -0.0181
C13 C -0.04318(17) 0.18004(17) 0.3897(3)
C14 C -0.0640(2) 0.2915(2) 0.1508(3)
C15 C -0.1348(2) 0.2981(3) 0.0851(5)
C16 C -0.2187(4) 0.2458(6) 0.1017(8)
H10 H -0.2381 0.1977 0.1510
C17 C -0.2790(6) 0.2620(7) 0.0457(12)
H11 H -0.3384 0.2260 0.0628
C18 C -0.1773(5) 0.3734(6) -0.0376(11)
H12 H -0.1567 0.4223 -0.0858
C19 C -0.1167(4) 0.3629(5) 0.0169(8)
H13 H -0.0577 0.4047 0.0051
O1 O 0.34608(17) 0.3439(2) 0.4491(3)
O2 O 0.24747(14) 0.44233(16) 0.1274(2)
O3 O -0.12028(12) 0.12565(13) 0.42403(19)
O4 O 0.01566(15) 0.34056(17) 0.1238(2)
Cd1A Cd 0.669765(12) 0.793762(17) -0.09278(3)
Cd1E Cd -0.206238(17) 0.123997(12) 0.57388(3)
N3B N 0.13194(26) 0.45451(18) 0.3359(3)
O3D O 0.12565(13) 0.24593(18) 0.09070(19)
O5 O 0.5000 0.5000 0.4061(5)
O6 O -0.2852(4) 0.1252(4) 0.2610(7)
loop_
_geom_bond_atom_site_label_1
_geom_bond_atom_site_label_2
_geom_bond_site_symmetry_1
_geom_bond_site_symmetry_2
Cd1 N1 1_555 1_555
N1 N2 1_555 1_555
N2 H1 1_555 1_555
N3 C10 1_555 1_555
N4 Cd1 1_555 1_555
N5 N4 1_555 1_555
H2 N5 1_555 1_555
N6 C17 1_555 1_555
N7 Cd1 1_555 1_555
C1 N7 1_555 1_555
C2 C1 1_555 1_555
H3 C2 1_555 1_555
C3 C2 1_555 1_555
H4 C3 1_555 1_555
C4 C3 1_555 1_555
H5 C4 1_555 1_555
C5 N7 1_555 1_555
C6 N1 1_555 1_555
C7 N2 1_555 1_555
C8 C7 1_555 1_555
C9 C8 1_555 1_555
H6 C9 1_555 1_555
C10 C9 1_555 1_555
H7 C10 1_555 1_555
C11 N3 1_555 1_555
H8 C11 1_555 1_555
C12 C8 1_555 1_555
H9 C12 1_555 1_555
C13 N4 1_555 1_555
C14 N5 1_555 1_555
C15 C14 1_555 1_555
C16 C15 1_555 1_555
H10 C16 1_555 1_555
C17 C16 1_555 1_555
H11 C17 1_555 1_555
C18 N6 1_555 1_555
H12 C18 1_555 1_555
C19 C15 1_555 1_555
H13 C19 1_555 1_555
O1 C6 1_555 1_555
O2 Cd1 1_555 1_555
O3 C13 1_555 1_555
O4 Cd1 1_555 1_555
Cd1A N3 1_555 1_555
Cd1E O3 1_555 1_555
N3B Cd1 1_555 1_555
O3D Cd1 1_555 1_555
C1 C13 1_555 1_555
C4 C5 1_555 1_555
C5 C6 1_555 1_555
C7 O2 1_555 1_555
C11 C12 1_555 1_555
C14 O4 1_555 1_555
C18 C19 1_555 1_555

#END
