
#######################################################################
#
#                 Cambridge Crystallographic Data Centre
#                                CCDC 
#
#######################################################################
#
# If this CIF has been generated from an entry in the Cambridge 
# Structural Database, then it will include bibliographic, chemical, 
# crystal, experimental, refinement or atomic coordinate data resulting 
# from the CCDC's data processing and validation procedures.
#
#######################################################################

data_PALKOD
_symmetry_cell_setting           orthorhombic
_symmetry_space_group_name_H-M   'P b c a'
_symmetry_Int_Tables_number      61
_space_group_name_Hall           '-P 2ac 2ab'
loop_
_symmetry_equiv_pos_site_id
_symmetry_equiv_pos_as_xyz
1 x,y,z
2 1/2-x,-y,1/2+z
3 -x,1/2+y,1/2-z
4 1/2+x,1/2-y,-z
5 -x,-y,-z
6 1/2+x,y,1/2-z
7 x,1/2-y,1/2+z
8 1/2-x,1/2+y,z
_cell_length_a                   11.1096(4)
_cell_length_b                   16.4860(6)
_cell_length_c                   17.7099(6)
_cell_angle_alpha                90
_cell_angle_beta                 90
_cell_angle_gamma                90
_cell_volume                     3243.62
loop_
_atom_site_label
_atom_site_type_symbol
_atom_site_fract_x
_atom_site_fract_y
_atom_site_fract_z
Cd1 Cd 0.818333(11) -0.074154(8) -0.202890(6)
S1 S 1.15359(4) -0.24961(2) -0.54118(2)
O1 O 0.82121(12) -0.03501(9) -0.33085(7)
O2 O 0.94318(12) -0.13427(8) -0.29662(6)
O3 O 0.76013(12) 0.02811(8) -0.59462(7)
O4 O 0.85781(13) -0.03369(9) -0.68749(7)
O5 O 1.18766(12) -0.24335(9) -0.62091(8)
O6 O 1.08623(12) -0.32387(8) -0.52410(8)
O7 O 1.25620(12) -0.23772(9) -0.49185(8)
O8 O 0.67352(13) -0.16880(10) -0.23759(9)
H1 H 0.679(2) -0.1866(19) -0.2783(18)
H2 H 0.606(3) -0.1553(17) -0.2308(16)
O9 O 0.89220(14) -0.18082(9) -0.13024(8)
H3 H 0.840(3) -0.1993(18) -0.1063(16)
H4 H 0.950(3) -0.1741(16) -0.1033(16)
N1 N 0.97717(14) 0.01990(9) -0.18101(9)
H5 H 1.033(2) 0.0098(16) -0.2137(14)
N2 N 1.07679(14) 0.16171(10) -0.10657(10)
H6 H 1.017(2) 0.1731(15) -0.0709(14)
H7 H 1.135(2) 0.1982(16) -0.1029(14)
C1 C 0.93296(15) -0.10120(10) -0.42750(9)
C2 C 0.87289(15) -0.05934(10) -0.48447(10)
H8 H 0.8126 -0.0226 -0.4719
C3 C 0.90213(15) -0.07190(10) -0.55993(10)
C4 C 0.99019(15) -0.12877(11) -0.57919(9)
H9 H 1.0085 -0.1388 -0.6296
C5 C 1.05009(14) -0.17020(10) -0.52212(9)
C6 C 1.02364(15) -0.15559(10) -0.44626(9)
H10 H 1.0665 -0.1821 -0.4085
C7 C 0.89721(15) -0.08826(10) -0.34673(9)
C8 C 0.83637(15) -0.02295(11) -0.61887(10)
C9 C 1.02992(17) 0.01527(11) -0.10420(10)
H11 H 1.0649 -0.0381 -0.0971
H12 H 0.9661 0.0217 -0.0673
C10 C 1.12623(17) 0.07912(11) -0.08977(12)
H13 H 1.1520 0.0765 -0.0375
H14 H 1.1956 0.0686 -0.1216
C11 C 1.02906(18) 0.16665(12) -0.18560(11)
H15 H 1.0937 0.1576 -0.2214
H16 H 0.9958 0.2202 -0.1947
C12 C 0.93215(17) 0.10283(12) -0.19585(10)
H17 H 0.8659 0.1144 -0.1618
H18 H 0.9016 0.1056 -0.2471
Cd1A Cd 0.681667(11) 0.074154(8) -0.702890(6)
O3A O 0.73987(12) -0.02811(8) -0.09462(7)
loop_
_geom_bond_atom_site_label_1
_geom_bond_atom_site_label_2
_geom_bond_site_symmetry_1
_geom_bond_site_symmetry_2
Cd1 O1 1_555 1_555
S1 O5 1_555 1_555
O1 C7 1_555 1_555
O2 Cd1 1_555 1_555
O3 C8 1_555 1_555
O4 C8 1_555 1_555
O6 S1 1_555 1_555
O7 S1 1_555 1_555
O8 Cd1 1_555 1_555
H1 O8 1_555 1_555
H2 O8 1_555 1_555
O9 Cd1 1_555 1_555
H3 O9 1_555 1_555
H4 O9 1_555 1_555
N1 Cd1 1_555 1_555
H5 N1 1_555 1_555
N2 H6 1_555 1_555
H7 N2 1_555 1_555
C1 C2 1_555 1_555
C2 H8 1_555 1_555
C3 C2 1_555 1_555
C4 C3 1_555 1_555
H9 C4 1_555 1_555
C5 S1 1_555 1_555
C6 C1 1_555 1_555
H10 C6 1_555 1_555
C7 O2 1_555 1_555
C8 C3 1_555 1_555
C9 N1 1_555 1_555
H11 C9 1_555 1_555
H12 C9 1_555 1_555
C10 N2 1_555 1_555
H13 C10 1_555 1_555
H14 C10 1_555 1_555
C11 N2 1_555 1_555
H15 C11 1_555 1_555
H16 C11 1_555 1_555
C12 N1 1_555 1_555
H17 C12 1_555 1_555
H18 C12 1_555 1_555
Cd1A O3 1_555 1_555
O3A Cd1 1_555 1_555
C1 C7 1_555 1_555
C4 C5 1_555 1_555
C5 C6 1_555 1_555
C9 C10 1_555 1_555
C11 C12 1_555 1_555

#END
