
#######################################################################
#
#                 Cambridge Crystallographic Data Centre
#                                CCDC 
#
#######################################################################
#
# If this CIF has been generated from an entry in the Cambridge 
# Structural Database, then it will include bibliographic, chemical, 
# crystal, experimental, refinement or atomic coordinate data resulting 
# from the CCDC's data processing and validation procedures.
#
#######################################################################

data_PALKAP
_symmetry_cell_setting           triclinic
_symmetry_space_group_name_H-M   'P -1'
_symmetry_Int_Tables_number      2
_space_group_name_Hall           '-P 1'
loop_
_symmetry_equiv_pos_site_id
_symmetry_equiv_pos_as_xyz
1 x,y,z
2 -x,-y,-z
_cell_length_a                   11.6432(5)
_cell_length_b                   15.0653(7)
_cell_length_c                   18.9497(8)
_cell_angle_alpha                67.8350(10)
_cell_angle_beta                 72.2880(10)
_cell_angle_gamma                89.7570(10)
_cell_volume                     2909.27
loop_
_atom_site_label
_atom_site_type_symbol
_atom_site_fract_x
_atom_site_fract_y
_atom_site_fract_z
Cd1 Cd 0.26758(3) 0.45108(2) 0.73813(2)
Cd2 Cd -0.21021(3) 0.96282(3) 0.74159(2)
N1 N -0.0800(3) 0.8556(3) 0.7172(2)
N2 N 0.3627(3) 0.6079(3) 0.6805(2)
N3 N -0.2150(6) 0.6818(4) 0.9166(3)
N4 N 0.0828(4) 0.3576(3) 0.8262(2)
N5 N 0.6611(4) 0.0703(3) 0.7678(3)
N6 N 0.3838(4) 0.4198(3) 0.8248(2)
N7 N 0.7221(6) 0.2144(5) 0.5519(3)
N8 N 0.2326(4) 0.4061(3) 0.6403(2)
C1 C 0.0108(5) 0.8420(4) 0.7473(3)
H1 H 0.0167 0.8744 0.7795
C2 C 0.0972(4) 0.7816(4) 0.7330(3)
H2 H 0.1617 0.7758 0.7531
C3 C 0.0848(4) 0.7302(3) 0.6879(3)
C4 C -0.0118(4) 0.7417(4) 0.6587(3)
H3 H -0.0233 0.7070 0.6294
C5 C -0.0910(5) 0.8058(4) 0.6740(3)
H4 H -0.1548 0.8146 0.6531
C6 C 0.1691(4) 0.6593(3) 0.6763(3)
C7 C 0.3008(4) 0.6838(3) 0.6590(3)
C8 C 0.3553(5) 0.7773(4) 0.6210(3)
H5 H 0.3098 0.8277 0.6058
C9 C 0.4782(5) 0.7961(4) 0.6052(3)
H6 H 0.5172 0.8591 0.5794
C10 C 0.5423(5) 0.7186(4) 0.6288(3)
H7 H 0.6251 0.7289 0.6200
C11 C 0.4827(4) 0.6269(4) 0.6651(3)
H8 H 0.5269 0.5754 0.6798
C12 C -0.2361(6) 0.6256(5) 0.8806(4)
H9 H -0.3031 0.6332 0.8629
C13 C -0.1632(5) 0.5565(4) 0.8683(3)
H10 H -0.1826 0.5160 0.8456
C14 C -0.0602(5) 0.5498(4) 0.8911(3)
C15 C -0.0367(6) 0.6081(4) 0.9274(3)
H11 H 0.0316 0.6040 0.9436
C16 C -0.1168(7) 0.6724(4) 0.9390(4)
H12 H -0.1013 0.7115 0.9640
C17 C 0.0342(5) 0.4890(4) 0.8669(3)
C18 C -0.0018(4) 0.3916(4) 0.8722(3)
C19 C -0.1123(5) 0.3375(4) 0.9258(4)
H13 H -0.1695 0.3630 0.9568
C20 C -0.1338(7) 0.2458(5) 0.9312(5)
H14 H -0.2055 0.2071 0.9678
C21 C -0.0496(7) 0.2098(5) 0.8826(5)
H15 H -0.0649 0.1483 0.8844
C22 C 0.0589(5) 0.2690(4) 0.8310(4)
H16 H 0.1167 0.2455 0.7987
C23 C 0.7036(5) 0.1554(4) 0.7586(4)
H17 H 0.7873 0.1700 0.7438
C24 C 0.6309(5) 0.2252(4) 0.7697(4)
H18 H 0.6650 0.2854 0.7615
C25 C 0.5065(5) 0.2031(3) 0.7932(3)
C26 C 0.4617(5) 0.1138(4) 0.8020(3)
H19 H 0.3785 0.0978 0.8159
C27 C 0.5392(5) 0.0494(4) 0.7902(4)
H20 H 0.5074 -0.0114 0.7978
C28 C 0.4234(5) 0.2771(4) 0.7993(3)
C29 C 0.4384(4) 0.3397(4) 0.8421(3)
C30 C 0.5005(5) 0.3148(4) 0.8970(3)
H21 H 0.5355 0.2577 0.9091
C31 C 0.5092(6) 0.3786(5) 0.9344(4)
H22 H 0.5496 0.3642 0.9721
C32 C 0.4578(6) 0.4610(5) 0.9141(4)
H23 H 0.4650 0.5054 0.9362
C33 C 0.3948(5) 0.4788(4) 0.8607(3)
H24 H 0.3578 0.5350 0.8488
C34 C 0.6070(7) 0.1792(5) 0.5797(4)
H25 H 0.5883 0.1138 0.5924
C35 C 0.5129(6) 0.2319(4) 0.5912(3)
H26 H 0.4329 0.2039 0.6090
C36 C 0.5395(5) 0.3277(4) 0.5759(3)
C37 C 0.6607(5) 0.3676(5) 0.5474(3)
H27 H 0.6818 0.4320 0.5365
C38 C 0.7492(6) 0.3071(6) 0.5359(4)
H28 H 0.8305 0.3327 0.5162
C39 C 0.4430(5) 0.3898(4) 0.5968(3)
C40 C 0.3204(5) 0.3748(3) 0.5932(3)
C41 C 0.2973(6) 0.3412(5) 0.5400(4)
H29 H 0.3592 0.3202 0.5079
C42 C 0.1824(7) 0.3387(6) 0.5344(4)
H30 H 0.1656 0.3154 0.4992
C43 C 0.0933(6) 0.3712(5) 0.5816(5)
H31 H 0.0154 0.3716 0.5779
C44 C 0.1208(5) 0.4035(4) 0.6349(4)
H32 H 0.0596 0.4239 0.6678
O1 O 0.1294(3) 0.5794(2) 0.6846(3)
O2 O 0.1407(3) 0.5204(3) 0.8429(3)
O3 O 0.3474(3) 0.2892(3) 0.7658(2)
O4 O 0.4672(4) 0.4522(3) 0.6173(3)
O22 O -0.3119(4) 0.8565(3) 0.8694(3)
H33 H -0.2970 0.7931 0.8989
H34 H -0.3525 0.8536 0.9181
O23 O -0.0786(5) 1.0334(4) 0.7798(4)
H35 H -0.0861 1.0030 0.8372
H36 H -0.0057 1.0585 0.7684
O24 O -0.1255(4) 1.0741(3) 0.6091(3)
H37 H -0.1710 1.1091 0.5838
H38 H -0.0730 1.0590 0.5612
O25 O -0.3499(4) 0.9021(4) 0.7000(3)
H39 H -0.4096 0.8439 0.7455
H40 H -0.3335 0.9124 0.6512
Cd2_2 Cd 0.78979(3) -0.03718(3) 0.74159(2)
N5_2 N -0.3389(4) 1.0703(3) 0.7678(3)
Cl1 Cl -0.20902(15) 1.49993(13) 0.68469(11)
O5 O -0.1072(8) 1.5372(8) 0.6185(4)
O6 O -0.2462(8) 1.5827(6) 0.7000(6)
O7 O -0.3086(7) 1.4638(5) 0.6762(6)
O8 O -0.1756(6) 1.4332(5) 0.7478(4)
Cl2 Cl -0.21321(16) 0.95531(12) 0.47341(10)
O9 O -0.2482(18) 0.9692(14) 0.4142(7)
O10 O -0.2104(9) 0.8654(6) 0.5175(7)
O11 O -0.1019(8) 1.0080(7) 0.4556(7)
O12 O -0.3024(6) 0.9836(6) 0.5265(6)
Cl3 Cl -0.1927(3) 0.92692(19) 1.00620(14)
O13 O -0.2481(10) 0.8370(6) 1.0431(6)
O14 O -0.0939(10) 0.9302(10) 0.9446(5)
O15 O -0.1710(12) 0.9550(11) 1.0614(7)
O16 O -0.2697(14) 0.9745(12) 0.9747(7)
Cl4 Cl -0.62275(16) 0.74193(13) 0.85913(10)
O17 O -0.7087(11) 0.7120(11) 0.8411(10)
O18 O -0.6223(8) 0.7999(8) 0.8938(8)
O19 O -0.5050(7) 0.7230(6) 0.8217(6)
O20 O -0.606(2) 0.8193(18) 0.7891(9)
O26 O 0.8394(7) 0.8925(7) 0.2859(6)
H41 H 0.8328 0.9526 0.2521
H42 H 0.8109 0.9156 0.3289
O27 O 0.8120(11) 1.0516(9) 0.1651(7)
H43 H 0.8975 1.0585 0.1394
H44 H 0.7568 1.0905 0.1415
O28 O -0.5106(13) 0.9123(9) 0.9830(6)
H45 H -0.4353 0.9268 0.9852
H46 H -0.5747 0.9421 0.9939
O21? O -0.6629(11) 0.6513(8) 0.9277(5)
loop_
_geom_bond_atom_site_label_1
_geom_bond_atom_site_label_2
_geom_bond_site_symmetry_1
_geom_bond_site_symmetry_2
Cd1 N2 1_555 1_555
Cd2 N1 1_555 1_555
Cl1 O5 1_555 1_555
Cl2 O9 1_555 1_555
Cl3 O13 1_555 1_555
Cl4 O17 1_555 1_555
N1 C1 1_555 1_555
N2 C7 1_555 1_555
N3 C12 1_555 1_555
N4 Cd1 1_555 1_555
N5 C23 1_555 1_555
N6 Cd1 1_555 1_555
N7 C34 1_555 1_555
N8 Cd1 1_555 1_555
C1 H1 1_555 1_555
C2 C1 1_555 1_555
H2 C2 1_555 1_555
C3 C2 1_555 1_555
C4 C3 1_555 1_555
H3 C4 1_555 1_555
C5 N1 1_555 1_555
H4 C5 1_555 1_555
C6 C3 1_555 1_555
C7 C6 1_555 1_555
C8 C7 1_555 1_555
H5 C8 1_555 1_555
C9 C8 1_555 1_555
H6 C9 1_555 1_555
C10 C9 1_555 1_555
H7 C10 1_555 1_555
C11 N2 1_555 1_555
H8 C11 1_555 1_555
C12 H9 1_555 1_555
C13 C12 1_555 1_555
H10 C13 1_555 1_555
C14 C13 1_555 1_555
C15 C14 1_555 1_555
H11 C15 1_555 1_555
C16 N3 1_555 1_555
H12 C16 1_555 1_555
C17 C14 1_555 1_555
C18 N4 1_555 1_555
C19 C18 1_555 1_555
H13 C19 1_555 1_555
C20 C19 1_555 1_555
H14 C20 1_555 1_555
C21 C20 1_555 1_555
H15 C21 1_555 1_555
C22 N4 1_555 1_555
H16 C22 1_555 1_555
C23 H17 1_555 1_555
C24 C23 1_555 1_555
H18 C24 1_555 1_555
C25 C24 1_555 1_555
C26 C25 1_555 1_555
H19 C26 1_555 1_555
C27 N5 1_555 1_555
H20 C27 1_555 1_555
C28 C25 1_555 1_555
C29 N6 1_555 1_555
C30 C29 1_555 1_555
H21 C30 1_555 1_555
C31 C30 1_555 1_555
H22 C31 1_555 1_555
C32 C31 1_555 1_555
H23 C32 1_555 1_555
C33 N6 1_555 1_555
H24 C33 1_555 1_555
C34 H25 1_555 1_555
C35 C34 1_555 1_555
H26 C35 1_555 1_555
C36 C35 1_555 1_555
C37 C36 1_555 1_555
H27 C37 1_555 1_555
C38 N7 1_555 1_555
H28 C38 1_555 1_555
C39 C36 1_555 1_555
C40 N8 1_555 1_555
C41 C40 1_555 1_555
H29 C41 1_555 1_555
C42 C41 1_555 1_555
H30 C42 1_555 1_555
C43 C42 1_555 1_555
H31 C43 1_555 1_555
C44 N8 1_555 1_555
H32 C44 1_555 1_555
O1 Cd1 1_555 1_555
O2 Cd1 1_555 1_555
O3 Cd1 1_555 1_555
O4 Cd1 1_555 1_555
O6 Cl1 1_555 1_555
O7 Cl1 1_555 1_555
O8 Cl1 1_555 1_555
O10 Cl2 1_555 1_555
O11 Cl2 1_555 1_555
O12 Cl2 1_555 1_555
O14 Cl3 1_555 1_555
O15 Cl3 1_555 1_555
O16 Cl3 1_555 1_555
O18 Cl4 1_555 1_555
O19 Cl4 1_555 1_555
O20 Cl4 1_555 1_555
O22 Cd2 1_555 1_555
H33 O22 1_555 1_555
H34 O22 1_555 1_555
O23 Cd2 1_555 1_555
H35 O23 1_555 1_555
H36 O23 1_555 1_555
O24 Cd2 1_555 1_555
H37 O24 1_555 1_555
H38 O24 1_555 1_555
O25 Cd2 1_555 1_555
H39 O25 1_555 1_555
H40 O25 1_555 1_555
O26 H41 1_555 1_555
H42 O26 1_555 1_555
O27 H43 1_555 1_555
H44 O27 1_555 1_555
O28 H45 1_555 1_555
H46 O28 1_555 1_555
Cd2_2 N5 1_555 1_555
N5_2 Cd2 1_555 1_555
C4 C5 1_555 1_555
C6 O1 1_555 1_555
C10 C11 1_555 1_555
C15 C16 1_555 1_555
C17 C18 1_555 1_555
C17 O2 1_555 1_555
C21 C22 1_555 1_555
C26 C27 1_555 1_555
C28 C29 1_555 1_555
C28 O3 1_555 1_555
C32 C33 1_555 1_555
C37 C38 1_555 1_555
C39 C40 1_555 1_555
C39 O4 1_555 1_555
C43 C44 1_555 1_555

#END
