
#######################################################################
#
#                 Cambridge Crystallographic Data Centre
#                                CCDC 
#
#######################################################################
#
# If this CIF has been generated from an entry in the Cambridge 
# Structural Database, then it will include bibliographic, chemical, 
# crystal, experimental, refinement or atomic coordinate data resulting 
# from the CCDC's data processing and validation procedures.
#
#######################################################################

data_PALKUJ
_symmetry_cell_setting           monoclinic
_symmetry_space_group_name_H-M   'P 21/c'
_symmetry_Int_Tables_number      14
_space_group_name_Hall           '-P 2ybc'
loop_
_symmetry_equiv_pos_site_id
_symmetry_equiv_pos_as_xyz
1 x,y,z
2 -x,1/2+y,1/2-z
3 -x,-y,-z
4 x,1/2-y,1/2+z
_cell_length_a                   14.4736(18)
_cell_length_b                   17.4714(2)
_cell_length_c                   11.8650(15)
_cell_angle_alpha                90
_cell_angle_beta                 103.3930(10)
_cell_angle_gamma                90
_cell_volume                     2918.75
loop_
_atom_site_label
_atom_site_type_symbol
_atom_site_fract_x
_atom_site_fract_y
_atom_site_fract_z
Cd1 Cd 0.531833(10) 0.228559(8) 0.327587(12)
S1 S 0.71373(3) 0.54058(3) 0.78750(4)
O1 O 0.53127(9) 0.35711(8) 0.33116(11)
O3 O 0.60772(11) 0.30699(8) 0.49720(12)
O5 O 0.52334(12) 0.62349(8) 0.26316(13)
O6 O 0.58233(11) 0.71312(8) 0.39050(13)
O7 O 0.64633(10) 0.50375(8) 0.84432(12)
O8 O 0.80543(10) 0.50161(9) 0.81286(12)
O9 O 0.72219(13) 0.62219(9) 0.81294(13)
O10 O 0.65281(11) 0.23937(9) 0.22369(13)
H5 H 0.634(2) 0.2284(15) 0.153(3)
H6 H 0.674(2) 0.2832(17) 0.224(2)
O11 O 0.41411(11) 0.20203(9) 0.42817(14)
H7 H 0.4201 0.2311 0.4837
H8 H 0.3618(11) 0.1900(17) 0.391(2)
O12 O 0.63246(11) 0.14293(8) 0.44463(12)
H9 H 0.6826 0.1644 0.4743
H10 H 0.6462(19) 0.1045(10) 0.413(2)
C1 C 0.60634(13) 0.44321(10) 0.47983(16)
C2 C 0.58260(13) 0.50576(10) 0.40637(16)
H17 H 0.5536 0.4978 0.3287
C3 C 0.60164(13) 0.58011(10) 0.44727(16)
C4 C 0.64382(13) 0.59263(10) 0.56383(16)
H18 H 0.6567 0.6421 0.5922
C5 C 0.66622(12) 0.52976(11) 0.63681(15)
C6 C 0.64880(13) 0.45522(10) 0.59591(16)
H19 H 0.6654 0.4139 0.6459
C7 C 0.58085(13) 0.36429(10) 0.43366(16)
C8 C 0.56884(14) 0.64436(11) 0.36298(17)
Cd1A Cd 0.468167(10) 0.728559(8) 0.172413(12)
O5A O 0.47666(12) 0.12349(8) 0.23684(13)
Cd2 Cd 0.102321(10) 0.220061(7) 0.324174(12)
S2 S 0.21428(3) 0.56186(3) 0.76405(4)
O13 O 0.08334(11) 0.34828(8) 0.32038(12)
O14 O 0.17008(10) 0.31164(8) 0.48991(13)
O15 O -0.03499(10) 0.61020(8) 0.25453(12)
O16 O 0.01208(11) 0.70238(8) 0.38201(12)
O17 O 0.24224(12) 0.49114(10) 0.82589(14)
O18 O 0.29622(10) 0.61070(8) 0.76261(12)
O19 O 0.14003(11) 0.60371(11) 0.80230(13)
O20 O 0.22127(11) 0.22791(9) 0.22193(14)
H11 H 0.1998 0.2151 0.1544
H12 H 0.238(2) 0.2709(18) 0.218(3)
O21 O -0.00985(10) 0.20510(8) 0.43773(12)
H13 H -0.0009 0.2377 0.4888
H14 H -0.062(2) 0.1946(16) 0.396(2)
O22 O 0.20882(15) 0.13757(10) 0.43958(14)
H15 H 0.2164 0.0998 0.4018
H16 H 0.234(2) 0.135(2) 0.5080(11)
C10 C 0.12510(13) 0.44397(10) 0.46614(16)
C11 C 0.07488(13) 0.50002(11) 0.39332(16)
H22 H 0.0437 0.4870 0.3181
C12 C 0.07048(13) 0.57521(10) 0.43120(16)
C13 C 0.11608(13) 0.59421(11) 0.54451(16)
H23 H 0.1144 0.6442 0.5709
C14 C 0.16415(13) 0.53760(11) 0.61782(16)
C15 C 0.17022(13) 0.46308(11) 0.57978(16)
H24 H 0.2040 0.4263 0.6294
C16 C 0.12687(13) 0.36291(11) 0.42387(17)
C17 C 0.01268(13) 0.63370(11) 0.35130(16)
Cd2A Cd -0.102321(10) 0.720061(7) 0.175826(12)
O15A O 0.03499(10) 0.11020(8) 0.24547(12)
O2 O -0.16733(11) 0.16017(10) 0.28360(16)
H1 H -0.178(2) 0.1149(7) 0.293(3)
H2 H -0.2169(14) 0.1825(17) 0.284(3)
O4 O 0.79469(14) 0.21778(12) 0.53748(19)
H3 H 0.8330 0.2124 0.4968
H4 H 0.817(3) 0.203(2) 0.6018(15)
C9 C 0.46469(14) 0.50724(12) 0.94298(16)
H20 H 0.4692 0.4669 0.8883
H21 H 0.4006 0.5074 0.9549
N1 N 0.48603(14) 0.58254(10) 0.89622(15)
H27 H 0.4910(19) 0.6173(11) 0.9472(18)
H28 H 0.537(2) 0.5782(16) 0.874(2)
H29 H 0.4359(19) 0.5966(15) 0.838(2)
C9B C 0.53531(14) 0.49276(12) 1.05702(16)
H20B H 0.5308 0.5331 1.1117
H21B H 0.5994 0.4926 1.0451
N1B N 0.51397(14) 0.41746(10) 1.10378(15)
H27B H 0.5090(19) 0.3827(11) 1.0528(18)
H28B H 0.463(2) 0.4218(16) 1.126(2)
H29B H 0.5641(19) 0.4034(15) 1.162(2)
C18 C 0.02557(14) 0.51388(11) 0.95488(16)
H25 H 0.0914 0.5248 0.9913
H26 H 0.0241 0.4744 0.8970
N2 N -0.02167(13) 0.58416(10) 0.89902(15)
H30 H -0.077(2) 0.5732(15) 0.872(2)
H31 H -0.0178(18) 0.6224(16) 0.949(2)
H32 H 0.0082(19) 0.5996(15) 0.848(2)
C18B C -0.02557(14) 0.48612(11) 1.04512(16)
H25B H -0.0914 0.4752 1.0087
H26B H -0.0241 0.5256 1.1030
N2B N 0.02167(13) 0.41584(10) 1.10098(15)
H30B H 0.077(2) 0.4268(15) 1.128(2)
H31B H 0.0178(18) 0.3776(16) 1.051(2)
H32B H -0.0082(19) 0.4004(15) 1.152(2)
loop_
_geom_bond_atom_site_label_1
_geom_bond_atom_site_label_2
_geom_bond_site_symmetry_1
_geom_bond_site_symmetry_2
Cd1 O1 1_555 1_555
Cd2 O13 1_555 1_555
S1 O7 1_555 1_555
S2 O17 1_555 1_555
O1 C7 1_555 1_555
O2 H1 1_555 1_555
H2 O2 1_555 1_555
O3 Cd1 1_555 1_555
O4 H3 1_555 1_555
H4 O4 1_555 1_555
O5 C8 1_555 1_555
O6 C8 1_555 1_555
O8 S1 1_555 1_555
O9 S1 1_555 1_555
O10 Cd1 1_555 1_555
H5 O10 1_555 1_555
H6 O10 1_555 1_555
O11 Cd1 1_555 1_555
H7 O11 1_555 1_555
H8 O11 1_555 1_555
O12 Cd1 1_555 1_555
H9 O12 1_555 1_555
H10 O12 1_555 1_555
O13 C16 1_555 1_555
O14 Cd2 1_555 1_555
O15 C17 1_555 1_555
O16 C17 1_555 1_555
O18 S2 1_555 1_555
O19 S2 1_555 1_555
O20 Cd2 1_555 1_555
H11 O20 1_555 1_555
H12 O20 1_555 1_555
O21 Cd2 1_555 1_555
H13 O21 1_555 1_555
H14 O21 1_555 1_555
O22 Cd2 1_555 1_555
H15 O22 1_555 1_555
H16 O22 1_555 1_555
C1 C2 1_555 1_555
C2 H17 1_555 1_555
C3 C2 1_555 1_555
C4 C3 1_555 1_555
H18 C4 1_555 1_555
C5 S1 1_555 1_555
C6 C1 1_555 1_555
H19 C6 1_555 1_555
C7 O3 1_555 1_555
C8 C3 1_555 1_555
C9 H20 1_555 1_555
H21 C9 1_555 1_555
C10 C11 1_555 1_555
C11 H22 1_555 1_555
C12 C11 1_555 1_555
C13 C12 1_555 1_555
H23 C13 1_555 1_555
C14 S2 1_555 1_555
C15 C10 1_555 1_555
H24 C15 1_555 1_555
C16 O14 1_555 1_555
C17 C12 1_555 1_555
C18 H25 1_555 1_555
H26 C18 1_555 1_555
N1 C9 1_555 1_555
H27 N1 1_555 1_555
H28 N1 1_555 1_555
H29 N1 1_555 1_555
N2 C18 1_555 1_555
H30 N2 1_555 1_555
H31 N2 1_555 1_555
H32 N2 1_555 1_555
Cd1A O5 1_555 1_555
Cd2A O15 1_555 1_555
O5A Cd1 1_555 1_555
O15A Cd2 1_555 1_555
C9B C9 1_555 1_555
H20B C9B 1_555 1_555
H21B C9B 1_555 1_555
C18B C18 1_555 1_555
H25B C18B 1_555 1_555
H26B C18B 1_555 1_555
N1B C9B 1_555 1_555
H27B N1B 1_555 1_555
H28B N1B 1_555 1_555
H29B N1B 1_555 1_555
N2B C18B 1_555 1_555
H30B N2B 1_555 1_555
H31B N2B 1_555 1_555
H32B N2B 1_555 1_555
C1 C7 1_555 1_555
C4 C5 1_555 1_555
C5 C6 1_555 1_555
C10 C16 1_555 1_555
C13 C14 1_555 1_555
C14 C15 1_555 1_555

#END
