
#######################################################################
#
#                 Cambridge Crystallographic Data Centre
#                                CCDC 
#
#######################################################################
#
# If this CIF has been generated from an entry in the Cambridge 
# Structural Database, then it will include bibliographic, chemical, 
# crystal, experimental, refinement or atomic coordinate data resulting 
# from the CCDC's data processing and validation procedures.
#
#######################################################################

data_PALWEG
_symmetry_cell_setting           triclinic
_symmetry_space_group_name_H-M   'P -1'
_symmetry_Int_Tables_number      2
_space_group_name_Hall           '-P 1'
loop_
_symmetry_equiv_pos_site_id
_symmetry_equiv_pos_as_xyz
1 x,y,z
2 -x,-y,-z
_cell_length_a                   7.726(3)
_cell_length_b                   8.870(3)
_cell_length_c                   14.216(5)
_cell_angle_alpha                84.897(4)
_cell_angle_beta                 79.723(4)
_cell_angle_gamma                73.883(4)
_cell_volume                     920.111
loop_
_atom_site_label
_atom_site_type_symbol
_atom_site_fract_x
_atom_site_fract_y
_atom_site_fract_z
Cd1 Cd 0.5000 1.5000 0.0000
Cd2 Cd 0.84162(7) 0.87552(6) -0.18477(4)
O1 O 0.5338(7) 0.9813(6) -0.1235(3)
O3 O 0.6282(7) 1.0594(6) -0.2698(4)
O5 O -0.0803(6) 1.0487(6) -0.1091(4)
O6 O 0.1494(8) 0.9738(7) -0.2257(4)
O7 O 0.2549(7) 1.4430(6) -0.0496(4)
O8 O 0.1646(7) 1.3327(6) 0.0897(4)
O9 O 0.3663(7) 1.7716(6) -0.0089(4)
H5 H 0.432(9) 1.838(7) -0.034(5)
H6 H 0.270(7) 1.833(7) 0.026(5)
N1 N -0.0215(8) 1.7303(7) 0.6895(4)
N2 N 0.3088(9) 1.4626(7) 0.4646(4)
H7 H 0.373(11) 1.388(10) 0.489(6)
N3 N 0.4172(8) 1.4835(7) 0.1652(4)
C1 C -0.0380(12) 1.7765(9) 0.6002(6)
H8 H -0.1244 1.8734 0.5892
C2 C 0.0607(12) 1.6948(10) 0.5216(5)
H9 H 0.0377 1.7327 0.4592
C3 C 0.1940(10) 1.5568(8) 0.5342(5)
C4 C 0.2104(12) 1.5076(10) 0.6286(6)
H10 H 0.2971 1.4120 0.6415
C5 C 0.1035(13) 1.5948(10) 0.7037(6)
H11 H 0.1187 1.5580 0.7673
C6 C 0.2924(12) 1.5973(10) 0.2121(6)
H12 H 0.2286 1.6833 0.1758
C7 C 0.2490(12) 1.5993(10) 0.3100(5)
H13 H 0.1599 1.6862 0.3394
C8 C 0.3347(9) 1.4752(8) 0.3658(5)
C9 C 0.4581(12) 1.3531(10) 0.3151(5)
H14 H 0.5171 1.2612 0.3487
C10 C 0.4956(12) 1.3627(10) 0.2187(5)
H15 H 0.5839 1.2774 0.1873
C11 C 0.5062(10) 1.0681(8) -0.1958(5)
C12 C 0.3281(9) 1.1958(8) -0.1971(5)
H16 H 0.3482 1.2965 -0.1832
H17 H 0.2981 1.2067 -0.2627
C13 C 0.1652(10) 1.1705(8) -0.1282(5)
C14 C 0.0749(10) 1.0574(8) -0.1563(5)
C15 C 0.0980(9) 1.2421(8) -0.0454(5)
H18 H -0.0130 1.2247 -0.0118
C16 C 0.1797(10) 1.3474(8) 0.0002(5)
Cd2A Cd 0.15838(7) 2.12448(6) 0.18477(4)
Cd2_2 Cd -0.15838(7) 0.87552(6) -0.18477(4)
Cd2A_2 Cd 0.15838(7) 1.12448(6) 0.18477(4)
Cd2_3 Cd -0.15838(7) 1.87552(6) 0.81523(4)
Cd2A_3 Cd 1.15838(7) 2.12448(6) 0.18477(4)
Cd2_4 Cd 0.84162(7) 1.87552(6) -0.18477(4)
Cd2A_4 Cd 1.15838(7) 1.12448(6) -0.81523(4)
O1A O 0.4662(7) 2.0187(6) 0.1235(3)
O3A O 0.3718(7) 1.9406(6) 0.2698(4)
O5A O 1.0803(6) 1.9513(6) 0.1091(4)
O5_2 O 0.9197(6) 1.0487(6) -0.1091(4)
O5A_2 O 0.0803(6) 1.9513(6) 0.1091(4)
O6A O 0.8506(8) 2.0262(7) 0.2257(4)
O6_2 O 1.1494(8) 0.9738(7) -0.2257(4)
O6A_2 O -0.1494(8) 2.0262(7) 0.2257(4)
O7A O 0.7451(7) 1.5570(6) 0.0496(4)
O8A O 0.8354(7) 1.6673(6) -0.0897(4)
O8A_2 O 0.8354(7) 0.6673(6) -0.0897(4)
O8_2 O 0.1646(7) 2.3327(6) 0.0897(4)
O9A O 0.6337(7) 1.2284(6) 0.0089(4)
H5A H 0.568(9) 1.162(7) 0.034(5)
H6A H 0.730(7) 1.167(7) -0.026(5)
N1A N 1.0215(8) 1.2697(7) -0.6895(4)
N1_2 N 0.9785(8) 0.7303(7) -0.3105(4)
N1A_2 N 0.0215(8) 2.2697(7) 0.3105(4)
N2A N 0.6912(9) 1.5374(7) -0.4646(4)
H7A H 0.627(11) 1.612(10) -0.489(6)
N3A N 0.5828(8) 1.5165(7) -0.1652(4)
C1A C 1.0380(12) 1.2235(9) -0.6002(6)
H8A H 1.1244 1.1266 -0.5892
C2A C 0.9393(12) 1.3052(10) -0.5216(5)
H9A H 0.9623 1.2673 -0.4592
C3A C 0.8060(10) 1.4432(8) -0.5342(5)
C4A C 0.7896(12) 1.4924(10) -0.6286(6)
H10A H 0.7029 1.5880 -0.6415
C5A C 0.8965(13) 1.4052(10) -0.7037(6)
H11A H 0.8813 1.4420 -0.7673
C6A C 0.7076(12) 1.4027(10) -0.2121(6)
H12A H 0.7714 1.3167 -0.1758
C7A C 0.7510(12) 1.4007(10) -0.3100(5)
H13A H 0.8401 1.3138 -0.3394
C8A C 0.6653(9) 1.5248(8) -0.3658(5)
C9A C 0.5419(12) 1.6469(10) -0.3151(5)
H14A H 0.4829 1.7388 -0.3487
C10A C 0.5044(12) 1.6373(10) -0.2187(5)
H15A H 0.4161 1.7226 -0.1873
C11A C 0.4938(10) 1.9319(8) 0.1958(5)
C12A C 0.6719(9) 1.8042(8) 0.1971(5)
H16A H 0.6518 1.7035 0.1832
H17A H 0.7019 1.7933 0.2627
C13A C 0.8348(10) 1.8295(8) 0.1282(5)
C14A C 0.9251(10) 1.9426(8) 0.1563(5)
C15A C 0.9020(9) 1.7579(8) 0.0454(5)
H18A H 1.0130 1.7753 0.0118
C16A C 0.8203(10) 1.6526(8) -0.0002(5)
O2 O 0.5376(8) 1.1794(7) -0.4451(4)
H1 H 0.583(10) 1.180(10) -0.393(3)
H2 H 0.625(8) 1.116(8) -0.484(4)
O4 O 0.2519(8) 1.0295(8) -0.4210(4)
H3 H 0.216(12) 1.017(10) -0.3589(19)
H4 H 0.328(10) 1.089(10) -0.426(6)
loop_
_geom_bond_atom_site_label_1
_geom_bond_atom_site_label_2
_geom_bond_site_symmetry_1
_geom_bond_site_symmetry_2
Cd1 O7 1_555 1_555
Cd2 O1 1_555 1_555
O1 C11 1_555 1_555
O2 H1 1_555 1_555
H2 O2 1_555 1_555
O3 Cd2 1_555 1_555
O4 H3 1_555 1_555
H4 O4 1_555 1_555
O5 C14 1_555 1_555
O6 C14 1_555 1_555
O7 C16 1_555 1_555
O8 C16 1_555 1_555
O9 Cd1 1_555 1_555
H5 O9 1_555 1_555
H6 O9 1_555 1_555
N1 C1 1_555 1_555
N2 H7 1_555 1_555
N3 Cd1 1_555 1_555
C1 H8 1_555 1_555
C2 C1 1_555 1_555
H9 C2 1_555 1_555
C3 N2 1_555 1_555
C4 C3 1_555 1_555
H10 C4 1_555 1_555
C5 N1 1_555 1_555
H11 C5 1_555 1_555
C6 N3 1_555 1_555
H12 C6 1_555 1_555
C7 C6 1_555 1_555
H13 C7 1_555 1_555
C8 N2 1_555 1_555
C9 C8 1_555 1_555
H14 C9 1_555 1_555
C10 N3 1_555 1_555
H15 C10 1_555 1_555
C11 O3 1_555 1_555
C12 C11 1_555 1_555
H16 C12 1_555 1_555
H17 C12 1_555 1_555
C13 C12 1_555 1_555
C14 C13 1_555 1_555
C15 C13 1_555 1_555
H18 C15 1_555 1_555
C16 C15 1_555 1_555
Cd2A O1A 1_555 1_555
Cd2_2 O5 1_555 1_555
Cd2A_2 O8 1_555 1_555
Cd2_3 N1 1_555 1_555
Cd2A_3 O5A 1_555 1_555
Cd2_4 O8A 1_555 1_555
Cd2A_4 N1A 1_555 1_555
O1A C11A 1_555 1_555
O3A Cd2A 1_555 1_555
O5A C14A 1_555 1_555
O5_2 Cd2 1_555 1_555
O5A_2 Cd2A 1_555 1_555
O6A Cd2A_3 1_555 1_555
O6_2 Cd2 1_555 1_555
O6A_2 Cd2A 1_555 1_555
O7A Cd1 1_555 1_555
O8A C16A 1_555 1_555
O8A_2 Cd2 1_555 1_555
O8_2 Cd2A 1_555 1_555
O9A Cd1 1_555 1_555
H5A O9A 1_555 1_555
H6A O9A 1_555 1_555
N1A C1A 1_555 1_555
N1_2 Cd2 1_555 1_555
N1A_2 Cd2A 1_555 1_555
N2A H7A 1_555 1_555
N3A Cd1 1_555 1_555
C1A H8A 1_555 1_555
C2A C1A 1_555 1_555
H9A C2A 1_555 1_555
C3A N2A 1_555 1_555
C4A C3A 1_555 1_555
H10A C4A 1_555 1_555
C5A N1A 1_555 1_555
H11A C5A 1_555 1_555
C6A N3A 1_555 1_555
H12A C6A 1_555 1_555
C7A C6A 1_555 1_555
H13A C7A 1_555 1_555
C8A N2A 1_555 1_555
C9A C8A 1_555 1_555
H14A C9A 1_555 1_555
C10A N3A 1_555 1_555
H15A C10A 1_555 1_555
C11A O3A 1_555 1_555
C12A C11A 1_555 1_555
H16A C12A 1_555 1_555
H17A C12A 1_555 1_555
C13A C12A 1_555 1_555
C14A O6A 1_555 1_555
C15A C13A 1_555 1_555
H18A C15A 1_555 1_555
C16A O7A 1_555 1_555
O6 Cd2_2 1_555 1_555
C2 C3 1_555 1_555
C4 C5 1_555 1_555
C7 C8 1_555 1_555
C9 C10 1_555 1_555
C2A C3A 1_555 1_555
C4A C5A 1_555 1_555
C7A C8A 1_555 1_555
C9A C10A 1_555 1_555
C13A C14A 1_555 1_555
C15A C16A 1_555 1_555

#END
