
#######################################################################
#
#                 Cambridge Crystallographic Data Centre
#                                CCDC 
#
#######################################################################
#
# If this CIF has been generated from an entry in the Cambridge 
# Structural Database, then it will include bibliographic, chemical, 
# crystal, experimental, refinement or atomic coordinate data resulting 
# from the CCDC's data processing and validation procedures.
#
#######################################################################

data_PALWUW
_symmetry_cell_setting           monoclinic
_symmetry_space_group_name_H-M   'C 2/c'
_symmetry_Int_Tables_number      15
_space_group_name_Hall           '-C 2yn'
loop_
_symmetry_equiv_pos_site_id
_symmetry_equiv_pos_as_xyz
1 x,y,z
2 -x,y,1/2-z
3 1/2+x,1/2+y,z
4 1/2-x,1/2+y,1/2-z
5 -x,-y,-z
6 x,-y,1/2+z
7 1/2-x,1/2-y,-z
8 1/2+x,1/2-y,1/2+z
_cell_length_a                   27.2048(5)
_cell_length_b                   8.59660(10)
_cell_length_c                   17.9747(3)
_cell_angle_alpha                90
_cell_angle_beta                 122.9540(10)
_cell_angle_gamma                90
_cell_volume                     3527.37
loop_
_atom_site_label
_atom_site_type_symbol
_atom_site_fract_x
_atom_site_fract_y
_atom_site_fract_z
Zn1 Zn 0.0000 0.01681(5) 0.2500
Zn2 Zn -0.091542(12) -0.18783(3) -0.039850(18)
O1 O -0.03490(7) -0.1836(2) 0.09383(11)
O3 O 0.04493(7) -0.1151(2) 0.21943(11)
O4 O 0.07695(8) -0.0253(2) 0.06471(12)
O5 O 0.15433(8) 0.0392(2) 0.19543(13)
O6 O 0.05746(9) -0.6541(3) 0.07411(13)
O7 O 0.14498(8) -0.5745(2) 0.18328(15)
N1 N 0.06616(8) 0.1615(2) 0.33274(13)
N2 N 0.20713(9) 0.4598(3) 0.49233(14)
H3 H 0.2135(12) 0.471(3) 0.5449(13)
N3 N 0.33631(9) 0.6699(2) 0.46675(13)
C1 C 0.07452(11) 0.2285(3) 0.40670(17)
H4 H 0.0478 0.2056 0.4236
C2 C 0.11996(12) 0.3281(3) 0.45833(17)
H5 H 0.1239 0.3733 0.5095
C3 C 0.16079(10) 0.3640(3) 0.43620(16)
C4 C 0.15240(11) 0.2934(3) 0.36006(16)
H6 H 0.1789 0.3126 0.3421
C5 C 0.10544(11) 0.1959(3) 0.31153(16)
H7 H 0.1003 0.1497 0.2597
C6 C 0.34282(11) 0.6456(3) 0.54610(16)
H8 H 0.3787 0.6757 0.5983
C7 C 0.30041(10) 0.5800(3) 0.55492(16)
H9 H 0.3068 0.5678 0.6121
C8 C 0.24750(10) 0.5309(3) 0.47955(16)
C9 C 0.23897(10) 0.5645(3) 0.39698(16)
H10 H 0.2028 0.5406 0.3437
C10 C 0.28366(10) 0.6327(3) 0.39418(16)
H11 H 0.2771 0.6550 0.3377
C11 C 0.01913(11) -0.1909(3) 0.14722(16)
C12 C 0.05801(11) -0.2930(3) 0.12972(17)
H12 H 0.0400 -0.2999 0.0643
C13 C 0.11986(10) -0.2234(3) 0.17361(17)
H13 H 0.1395 -0.2262 0.2389
H14 H 0.1433 -0.2870 0.1579
C14 C 0.11752(10) -0.0587(3) 0.14429(17)
C15 C 0.05870(12) -0.4558(3) 0.16543(18)
H15 H 0.0180 -0.4915 0.1406
H16 H 0.0790 -0.4519 0.2308
C16 C 0.09028(12) -0.5704(3) 0.13959(18)
Zn2A Zn 0.091542(12) -0.18783(3) 0.539850(18)
Zn2D Zn 0.091542(12) 0.18783(3) 0.039850(18)
Zn2D_2 Zn 0.091542(12) -0.81217(3) 0.039850(18)
Zn2G Zn 0.408458(12) 0.68783(3) 0.460150(18)
Zn2E Zn -0.091542(12) 0.18783(3) 0.460150(18)
Zn2E_2 Zn -0.091542(12) -0.81217(3) 0.460150(18)
Zn2F Zn -0.408458(12) 0.68783(3) 0.039850(18)
O1A O 0.03490(7) -0.1836(2) 0.40617(11)
O3A O -0.04493(7) -0.1151(2) 0.28057(11)
O4A O -0.07695(8) -0.0253(2) 0.43529(12)
O4D O -0.07695(8) 0.0253(2) -0.06471(12)
O4E O 0.07695(8) 0.0253(2) 0.56471(12)
O5A O -0.15433(8) 0.0392(2) 0.30457(13)
O6A O -0.05746(9) -0.6541(3) 0.42589(13)
O6D O -0.05746(9) -0.3459(3) -0.07411(13)
O6E O 0.05746(9) -0.3459(3) 0.57411(13)
O7A O -0.14498(8) -0.5745(2) 0.31672(15)
N1A N -0.06616(8) 0.1615(2) 0.16726(13)
N2A N -0.20713(9) 0.4598(3) 0.00767(14)
H3A H -0.2135(12) 0.471(3) -0.0449(13)
N3A N -0.33631(9) 0.6699(2) 0.03325(13)
N3G N -0.16369(9) -0.1699(2) -0.03325(13)
N3F N 0.16369(9) -0.1699(2) 0.53325(13)
C1A C -0.07452(11) 0.2285(3) 0.09330(17)
H4A H -0.0478 0.2056 0.0764
C2A C -0.11996(12) 0.3281(3) 0.04167(17)
H5A H -0.1239 0.3733 -0.0095
C3A C -0.16079(10) 0.3640(3) 0.06380(16)
C4A C -0.15240(11) 0.2934(3) 0.13994(16)
H6A H -0.1789 0.3126 0.1579
C5A C -0.10544(11) 0.1959(3) 0.18847(16)
H7A H -0.1003 0.1497 0.2403
C6A C -0.34282(11) 0.6456(3) -0.04610(16)
H8A H -0.3787 0.6757 -0.0983
C7A C -0.30041(10) 0.5800(3) -0.05492(16)
H9A H -0.3068 0.5678 -0.1121
C8A C -0.24750(10) 0.5309(3) 0.02045(16)
C9A C -0.23897(10) 0.5645(3) 0.10302(16)
H10A H -0.2028 0.5406 0.1563
C10A C -0.28366(10) 0.6327(3) 0.10582(16)
H11A H -0.2771 0.6550 0.1623
C11A C -0.01913(11) -0.1909(3) 0.35278(16)
C12A C -0.05801(11) -0.2930(3) 0.37028(17)
H12A H -0.0400 -0.2999 0.4357
C13A C -0.11986(10) -0.2234(3) 0.32639(17)
H13A H -0.1395 -0.2262 0.2611
H14A H -0.1433 -0.2870 0.3421
C14A C -0.11752(10) -0.0587(3) 0.35571(17)
C15A C -0.05870(12) -0.4558(3) 0.33457(18)
H15A H -0.0180 -0.4915 0.3594
H16A H -0.0790 -0.4519 0.2692
C16A C -0.09028(12) -0.5704(3) 0.36041(18)
O2 O 0.23280(9) -0.4716(3) 0.16339(13)
H1 H 0.2097(12) -0.518(4) 0.175(2)
H2 H 0.2681(9) -0.473(4) 0.2083(17)
loop_
_geom_bond_atom_site_label_1
_geom_bond_atom_site_label_2
_geom_bond_site_symmetry_1
_geom_bond_site_symmetry_2
Zn1 O3 1_555 1_555
Zn2 O1 1_555 1_555
O1 C11 1_555 1_555
O2 H1 1_555 1_555
H2 O2 1_555 1_555
O3 C11 1_555 1_555
O4 C14 1_555 1_555
O5 C14 1_555 1_555
O6 C16 1_555 1_555
O7 C16 1_555 1_555
N1 Zn1 1_555 1_555
N2 H3 1_555 1_555
N3 C6 1_555 1_555
C1 N1 1_555 1_555
H4 C1 1_555 1_555
C2 C1 1_555 1_555
H5 C2 1_555 1_555
C3 N2 1_555 1_555
C4 C3 1_555 1_555
H6 C4 1_555 1_555
C5 N1 1_555 1_555
H7 C5 1_555 1_555
C6 H8 1_555 1_555
C7 C6 1_555 1_555
H9 C7 1_555 1_555
C8 N2 1_555 1_555
C9 C8 1_555 1_555
H10 C9 1_555 1_555
C10 N3 1_555 1_555
H11 C10 1_555 1_555
C11 C12 1_555 1_555
C12 H12 1_555 1_555
C13 C12 1_555 1_555
H13 C13 1_555 1_555
H14 C13 1_555 1_555
C14 C13 1_555 1_555
C15 C12 1_555 1_555
H15 C15 1_555 1_555
H16 C15 1_555 1_555
C16 C15 1_555 1_555
Zn2A O1A 1_555 1_555
Zn2D O4 1_555 1_555
Zn2D_2 O6 1_555 1_555
Zn2G N3 1_555 1_555
Zn2E O4A 1_555 1_555
Zn2E_2 O6A 1_555 1_555
Zn2F N3A 1_555 1_555
O1A C11A 1_555 1_555
O3A Zn1 1_555 1_555
O4A C14A 1_555 1_555
O4D Zn2 1_555 1_555
O4E Zn2A 1_555 1_555
O5A C14A 1_555 1_555
O6A C16A 1_555 1_555
O6D Zn2 1_555 1_555
O6E Zn2A 1_555 1_555
O7A C16A 1_555 1_555
N1A Zn1 1_555 1_555
N2A H3A 1_555 1_555
N3A C6A 1_555 1_555
N3G Zn2 1_555 1_555
N3F Zn2A 1_555 1_555
C1A N1A 1_555 1_555
H4A C1A 1_555 1_555
C2A C1A 1_555 1_555
H5A C2A 1_555 1_555
C3A N2A 1_555 1_555
C4A C3A 1_555 1_555
H6A C4A 1_555 1_555
C5A N1A 1_555 1_555
H7A C5A 1_555 1_555
C6A H8A 1_555 1_555
C7A C6A 1_555 1_555
H9A C7A 1_555 1_555
C8A N2A 1_555 1_555
C9A C8A 1_555 1_555
H10A C9A 1_555 1_555
C10A N3A 1_555 1_555
H11A C10A 1_555 1_555
C11A O3A 1_555 1_555
C12A C11A 1_555 1_555
H12A C12A 1_555 1_555
C13A C12A 1_555 1_555
H13A C13A 1_555 1_555
H14A C13A 1_555 1_555
C14A C13A 1_555 1_555
C15A C12A 1_555 1_555
H15A C15A 1_555 1_555
H16A C15A 1_555 1_555
C16A C15A 1_555 1_555
C2 C3 1_555 1_555
C4 C5 1_555 1_555
C7 C8 1_555 1_555
C9 C10 1_555 1_555
C2A C3A 1_555 1_555
C4A C5A 1_555 1_555
C7A C8A 1_555 1_555
C9A C10A 1_555 1_555

#END
