
#######################################################################
#
#                 Cambridge Crystallographic Data Centre
#                                CCDC 
#
#######################################################################
#
# If this CIF has been generated from an entry in the Cambridge 
# Structural Database, then it will include bibliographic, chemical, 
# crystal, experimental, refinement or atomic coordinate data resulting 
# from the CCDC's data processing and validation procedures.
#
#######################################################################

data_PALWIK
_symmetry_cell_setting           orthorhombic
_symmetry_space_group_name_H-M   'P n a 21'
_symmetry_Int_Tables_number      33
_space_group_name_Hall           'P 2c -2n'
loop_
_symmetry_equiv_pos_site_id
_symmetry_equiv_pos_as_xyz
1 x,y,z
2 -x,-y,1/2+z
3 1/2+x,1/2-y,z
4 1/2-x,1/2+y,1/2+z
_cell_length_a                   25.439(4)
_cell_length_b                   10.5693(16)
_cell_length_c                   14.524(2)
_cell_angle_alpha                90
_cell_angle_beta                 90
_cell_angle_gamma                90
_cell_volume                     3905.1
loop_
_atom_site_label
_atom_site_type_symbol
_atom_site_fract_x
_atom_site_fract_y
_atom_site_fract_z
Cd1 Cd 0.192059(15) 0.22520(3) 0.35842(2)
Cd2 Cd 0.306920(15) 0.25775(3) 0.72580(2)
O1 O 0.23140(18) 0.0702(4) 0.4338(4)
O3 O 0.29889(15) 0.1495(3) 0.3612(4)
O5 O 0.35893(18) -0.1748(4) 0.7413(4)
O7 O 0.2838(2) -0.2565(4) 0.7054(3)
O9 O 0.34932(17) 0.1148(4) 0.5919(3)
O11 O 0.27539(16) 0.0788(4) 0.6653(3)
O13 O 0.21907(15) 0.4022(4) 0.4247(3)
O15 O 0.14419(16) 0.3749(4) 0.4967(3)
O16 O 0.18854(13) 0.3416(3) 0.7318(3)
O17 O 0.26138(15) 0.4066(4) 0.6596(3)
O18 O 0.13615(16) 0.6719(4) 0.3444(3)
O19 O 0.21802(19) 0.7311(4) 0.3771(4)
N1 N 0.38211(16) 0.3698(4) 0.6893(3)
N2 N 0.51975(18) 0.5764(4) 0.6645(4)
H11 H 0.509(2) 0.655(3) 0.682(4)
N3 N 0.67668(19) 0.4867(5) 0.6605(4)
H12 H 0.7109(9) 0.473(5) 0.651(4)
N4 N 0.1149(2) 0.1205(4) 0.3899(3)
N5 N -0.02712(18) -0.0763(4) 0.4117(4)
H13 H -0.024(2) -0.160(2) 0.418(4)
N6 N -0.1829(2) 0.0257(5) 0.4216(4)
H14 H -0.2151(12) 0.054(6) 0.412(5)
C1 C 0.4280(2) 0.3107(5) 0.6910(4)
H15 H 0.4280 0.2213 0.6972
C2 C 0.4755(2) 0.3714(5) 0.6841(4)
H16 H 0.5076 0.3266 0.6905
C3 C 0.4747(2) 0.5030(5) 0.6672(4)
C4 C 0.4268(2) 0.5634(5) 0.6627(4)
H17 H 0.4252 0.6521 0.6524
C5 C 0.3819(2) 0.4949(5) 0.6731(4)
H18 H 0.3490 0.5373 0.6688
C6 C 0.6422(3) 0.4035(6) 0.6260(5)
H19 H 0.6548 0.3264 0.6005
C7 C 0.5907(2) 0.4265(5) 0.6265(4)
H20 H 0.5669 0.3660 0.6021
C8 C 0.5717(2) 0.5418(5) 0.6640(4)
C9 C 0.6093(2) 0.6291(5) 0.6968(4)
H21 H 0.5987 0.7085 0.7211
C10 C 0.6611(2) 0.5970(5) 0.6931(4)
H22 H 0.6867 0.6555 0.7146
C11 C 0.0693(2) 0.1830(5) 0.3815(4)
H23 H 0.0703 0.2711 0.3687
C12 C 0.0207(2) 0.1247(5) 0.3909(4)
H24 H -0.0108 0.1727 0.3857
C13 C 0.0183(2) -0.0042(5) 0.4078(4)
C14 C 0.0669(2) -0.0698(5) 0.4157(5)
H25 H 0.0676 -0.1580 0.4285
C15 C 0.1121(2) -0.0037(5) 0.4046(4)
H26 H 0.1442 -0.0494 0.4075
C16 C -0.1687(2) -0.0851(6) 0.3861(4)
H27 H -0.1946 -0.1414 0.3631
C17 C -0.1165(2) -0.1184(5) 0.3828(4)
H28 H -0.1066 -0.1976 0.3572
C18 C -0.0782(2) -0.0378(5) 0.4163(5)
C19 C -0.0939(3) 0.0777(5) 0.4516(5)
H29 H -0.0684 0.1362 0.4733
C20 C -0.1463(2) 0.1077(6) 0.4552(5)
H30 H -0.1571 0.1860 0.4813
C21 C 0.2795(2) 0.0675(5) 0.4079(4)
C22 C 0.3106(2) -0.0448(5) 0.4459(5)
H31 H 0.3017 -0.1216 0.4101
H32 H 0.3487 -0.0284 0.4381
C23 C 0.2992(2) -0.0687(5) 0.5464(4)
H33 H 0.2615 -0.0933 0.5538
C24 C 0.3346(3) -0.1759(5) 0.5838(4)
H34 H 0.3284 -0.2538 0.5475
H35 H 0.3719 -0.1517 0.5759
C25 C 0.3244(2) -0.2026(5) 0.6829(4)
C26 C 0.3104(3) 0.0498(5) 0.6041(4)
C27 C 0.1851(2) 0.4344(5) 0.4855(4)
C28 C 0.1965(2) 0.5540(5) 0.5397(4)
H36 H 0.2344 0.5768 0.5318
C29 C 0.1854(2) 0.5324(5) 0.6425(4)
H37 H 0.1969 0.6075 0.6778
H38 H 0.1471 0.5221 0.6518
C30 C 0.2133(3) 0.4175(6) 0.6785(5)
C31 C 0.1718(2) 0.6908(5) 0.4013(4)
C32 C 0.1625(2) 0.6624(5) 0.5033(4)
H39 H 0.1701 0.7396 0.5396
H40 H 0.1250 0.6408 0.5125
Cd1C Cd 0.307941(15) -0.27480(3) 0.85842(2)
Cd2C Cd 0.193080(15) 0.75775(3) 0.22580(2)
O5C O 0.14107(18) 0.3252(4) 0.2413(4)
O7C O 0.2162(2) 0.2435(4) 0.2054(3)
O18C O 0.36385(16) 0.1719(4) 0.8444(3)
O19C O 0.28198(19) 0.2311(4) 0.8771(4)
O2 O -0.08452(19) -0.3838(5) 0.2536(4)
H1 H -0.0642 -0.3709 0.2991
H2 H -0.073(2) -0.383(7) 0.1999(17)
O4 O 0.0479(2) 0.4255(7) 0.5765(4)
H3 H 0.0172 0.4212 0.5536
H4 H 0.0751(14) 0.418(8) 0.545(4)
O6 O 0.59464(19) 0.8650(4) 0.8347(4)
H5 H 0.584(2) 0.940(3) 0.820(5)
H6 H 0.6281(8) 0.869(5) 0.829(5)
O8 O 0.44912(17) 0.0862(6) 0.5025(4)
H7 H 0.4436(15) 0.129(4) 0.4543(17)
H8 H 0.4261 0.1240 0.5347
O10 O 0.5043(2) 0.8423(5) 0.6608(5)
H9 H 0.5268 0.8477 0.7038
H10 H 0.4783(17) 0.891(6) 0.676(4)
O12 O -0.01842(19) -0.3430(4) 0.4028(4)
O14 O 0.44111(16) -0.0146(6) 0.7748(5)
loop_
_geom_bond_atom_site_label_1
_geom_bond_atom_site_label_2
_geom_bond_site_symmetry_1
_geom_bond_site_symmetry_2
Cd1 O1 1_555 1_555
Cd2 O9 1_555 1_555
O1 C21 1_555 1_555
O2 H1 1_555 1_555
H2 O2 1_555 1_555
O3 C21 1_555 1_555
O4 H3 1_555 1_555
H4 O4 1_555 1_555
O5 C25 1_555 1_555
O6 H5 1_555 1_555
H6 O6 1_555 1_555
O7 C25 1_555 1_555
O8 H7 1_555 1_555
H8 O8 1_555 1_555
O9 C26 1_555 1_555
O10 H9 1_555 1_555
H10 O10 1_555 1_555
O11 Cd2 1_555 1_555
O13 Cd1 1_555 1_555
O15 C27 1_555 1_555
O16 C30 1_555 1_555
O17 Cd2 1_555 1_555
O18 C31 1_555 1_555
O19 C31 1_555 1_555
N1 Cd2 1_555 1_555
N2 H11 1_555 1_555
N3 H12 1_555 1_555
N4 Cd1 1_555 1_555
N5 H13 1_555 1_555
N6 H14 1_555 1_555
C1 N1 1_555 1_555
H15 C1 1_555 1_555
C2 C1 1_555 1_555
H16 C2 1_555 1_555
C3 N2 1_555 1_555
C4 C3 1_555 1_555
H17 C4 1_555 1_555
C5 N1 1_555 1_555
H18 C5 1_555 1_555
C6 N3 1_555 1_555
H19 C6 1_555 1_555
C7 C6 1_555 1_555
H20 C7 1_555 1_555
C8 N2 1_555 1_555
C9 C8 1_555 1_555
H21 C9 1_555 1_555
C10 N3 1_555 1_555
H22 C10 1_555 1_555
C11 N4 1_555 1_555
H23 C11 1_555 1_555
C12 C11 1_555 1_555
H24 C12 1_555 1_555
C13 N5 1_555 1_555
C14 C13 1_555 1_555
H25 C14 1_555 1_555
C15 N4 1_555 1_555
H26 C15 1_555 1_555
C16 N6 1_555 1_555
H27 C16 1_555 1_555
C17 C16 1_555 1_555
H28 C17 1_555 1_555
C18 N5 1_555 1_555
C19 C18 1_555 1_555
H29 C19 1_555 1_555
C20 N6 1_555 1_555
H30 C20 1_555 1_555
C21 C22 1_555 1_555
C22 H31 1_555 1_555
H32 C22 1_555 1_555
C23 C22 1_555 1_555
H33 C23 1_555 1_555
C24 C23 1_555 1_555
H34 C24 1_555 1_555
H35 C24 1_555 1_555
C25 C24 1_555 1_555
C26 O11 1_555 1_555
C27 O13 1_555 1_555
C28 C27 1_555 1_555
H36 C28 1_555 1_555
C29 C28 1_555 1_555
H37 C29 1_555 1_555
H38 C29 1_555 1_555
C30 O17 1_555 1_555
C31 C32 1_555 1_555
C32 C28 1_555 1_555
H39 C32 1_555 1_555
H40 C32 1_555 1_555
Cd1C O5 1_555 1_555
Cd2C O18 1_555 1_555
O5C Cd1 1_555 1_555
O7C Cd1 1_555 1_555
O18C Cd2 1_555 1_555
O19C Cd2 1_555 1_555
O7 Cd1C 1_555 1_555
O19 Cd2C 1_555 1_555
C2 C3 1_555 1_555
C4 C5 1_555 1_555
C7 C8 1_555 1_555
C9 C10 1_555 1_555
C12 C13 1_555 1_555
C14 C15 1_555 1_555
C17 C18 1_555 1_555
C19 C20 1_555 1_555
C23 C26 1_555 1_555
C29 C30 1_555 1_555

#END
