
#######################################################################
#
#                 Cambridge Crystallographic Data Centre
#                                CCDC 
#
#######################################################################
#
# If this CIF has been generated from an entry in the Cambridge 
# Structural Database, then it will include bibliographic, chemical, 
# crystal, experimental, refinement or atomic coordinate data resulting 
# from the CCDC's data processing and validation procedures.
#
#######################################################################

data_PALYIM
_symmetry_cell_setting           monoclinic
_symmetry_space_group_name_H-M   'P 21/c'
_symmetry_Int_Tables_number      14
_space_group_name_Hall           '-P 2ybc'
loop_
_symmetry_equiv_pos_site_id
_symmetry_equiv_pos_as_xyz
1 x,y,z
2 -x,1/2+y,1/2-z
3 -x,-y,-z
4 x,1/2-y,1/2+z
_cell_length_a                   11.9008(7)
_cell_length_b                   12.8446(5)
_cell_length_c                   18.4671(9)
_cell_angle_alpha                90
_cell_angle_beta                 101.537(5)
_cell_angle_gamma                90
_cell_volume                     2765.87
loop_
_atom_site_label
_atom_site_type_symbol
_atom_site_fract_x
_atom_site_fract_y
_atom_site_fract_z
Mn1 Mn 0.32251(6) 0.72709(4) 0.31802(3)
C1 C 0.3265(4) 0.4678(3) 0.3036(2)
H1 H 0.4040 0.4490 0.2961
H2 H 0.2775 0.4050 0.2945
C2 C 0.3338(4) 0.5038(3) 0.3811(2)
C3 C 0.3432(4) 0.6019(3) 0.4772(2)
C4 C 0.3463(4) 0.6834(3) 0.5283(2)
H3 H 0.3385 0.7540 0.5128
C5 C 0.3609(4) 0.6566(3) 0.6017(2)
H4 H 0.3636 0.7102 0.6375
C6 C 0.3720(4) 0.5533(3) 0.6253(2)
H5 H 0.3808 0.5380 0.6764
C7 C 0.3704(4) 0.4741(3) 0.5760(2)
H6 H 0.3791 0.4038 0.5919
C8 C 0.3558(4) 0.4994(3) 0.5021(2)
C9 C 0.1530(4) 0.5465(3) 0.2287(2)
H7 H 0.1178 0.5286 0.2713
H8 H 0.1299 0.4934 0.1897
C10 C 0.1152(4) 0.6509(3) 0.2002(2)
C11 C 0.1044(4) 0.8188(3) 0.1867(2)
C12 C 0.1207(4) 0.9253(3) 0.1907(3)
H9 H 0.1791 0.9558 0.2272
C13 C 0.0486(4) 0.9855(3) 0.1394(3)
H10 H 0.0603 1.0587 0.1398
C14 C -0.0401(4) 0.9437(4) 0.0871(3)
H11 H -0.0890 0.9885 0.0540
C15 C -0.0578(4) 0.8367(4) 0.0831(3)
H12 H -0.1174 0.8066 0.0472
C16 C 0.0159(4) 0.7757(3) 0.1340(2)
C17 C 0.3350(4) 0.5524(3) 0.1874(2)
H13 H 0.2870 0.5912 0.1462
H14 H 0.3457 0.4807 0.1704
C18 C 0.4481(4) 0.6045(3) 0.2103(2)
C19 C 0.5865(4) 0.6977(3) 0.2709(2)
C20 C 0.6607(4) 0.7571(3) 0.3233(2)
H15 H 0.6337 0.7910 0.3623
C21 C 0.7730(4) 0.7653(3) 0.3171(2)
H16 H 0.8249 0.8043 0.3527
C22 C 0.8128(4) 0.7166(3) 0.2588(2)
H17 H 0.8908 0.7247 0.2552
C23 C 0.7421(4) 0.6581(3) 0.2073(2)
H18 H 0.7694 0.6257 0.1679
C24 C 0.6283(4) 0.6475(3) 0.2146(2)
C25 C 0.5389(4) 0.5171(3) 0.1141(2)
H19 H 0.5912 0.5454 0.0835
H20 H 0.4609 0.5147 0.0829
C26 C 0.5764(4) 0.4055(3) 0.1371(2)
C27 C 0.0942(5) 0.7649(5) 0.4003(4)
H21 H 0.0587 0.8160 0.4281
H22 H 0.1126 0.7016 0.4299
H23 H 0.0408 0.7478 0.3542
N1 N 0.2785(3) 0.5499(2) 0.25143(17)
N2 N 0.3288(3) 0.6030(2) 0.39988(17)
N3 N 0.3499(3) 0.4395(2) 0.43944(18)
H24 H 0.3557 0.3712 0.4380
N4 N 0.1662(3) 0.7381(2) 0.22752(18)
N5 N 0.0247(3) 0.6689(3) 0.14459(19)
H25 H -0.0204 0.6214 0.1196
N6 N 0.4718(3) 0.6703(2) 0.26656(17)
N7 N 0.5379(3) 0.5889(2) 0.17652(17)
O1 O 0.5555(3) 0.3373(2) 0.09153(17)
O2 O 0.6296(3) 0.3927(2) 0.20196(17)
O3 O 0.1965(3) 0.8074(2) 0.38372(17)
Mn1A Mn 0.67749(6) 0.22709(4) 0.18198(3)
O1A O 0.4445(3) 0.8373(2) 0.40847(17)
O2A O 0.3704(3) 0.8927(2) 0.29804(17)
B1 B 0.1795(6) 0.0218(4) 0.4984(3)
F1 F 0.1933(5) 0.1214(3) 0.5144(3)
F2 F 0.2822(4) -0.0260(4) 0.5048(2)
F3 F 0.1221(3) -0.0257(3) 0.5455(2)
F4 F 0.1269(3) 0.0129(2) 0.42609(17)
O4 O 0.3792(3) 0.2743(2) -0.02615(17)
loop_
_geom_bond_atom_site_label_1
_geom_bond_atom_site_label_2
_geom_bond_site_symmetry_1
_geom_bond_site_symmetry_2
Mn1 N1 1_555 1_555
B1 F1 1_555 1_555
C1 H1 1_555 1_555
H2 C1 1_555 1_555
C2 C1 1_555 1_555
C3 C4 1_555 1_555
C4 H3 1_555 1_555
C5 C4 1_555 1_555
H4 C5 1_555 1_555
C6 C5 1_555 1_555
H5 C6 1_555 1_555
C7 C6 1_555 1_555
H6 C7 1_555 1_555
C8 C3 1_555 1_555
C9 H7 1_555 1_555
H8 C9 1_555 1_555
C10 C9 1_555 1_555
C11 C12 1_555 1_555
C12 H9 1_555 1_555
C13 C12 1_555 1_555
H10 C13 1_555 1_555
C14 C13 1_555 1_555
H11 C14 1_555 1_555
C15 C14 1_555 1_555
H12 C15 1_555 1_555
C16 C11 1_555 1_555
C17 H13 1_555 1_555
H14 C17 1_555 1_555
C18 C17 1_555 1_555
C19 C20 1_555 1_555
C20 H15 1_555 1_555
C21 C20 1_555 1_555
H16 C21 1_555 1_555
C22 C21 1_555 1_555
H17 C22 1_555 1_555
C23 C22 1_555 1_555
H18 C23 1_555 1_555
C24 C19 1_555 1_555
C25 H19 1_555 1_555
H20 C25 1_555 1_555
C26 C25 1_555 1_555
C27 H21 1_555 1_555
H22 C27 1_555 1_555
H23 C27 1_555 1_555
N1 C1 1_555 1_555
N2 Mn1 1_555 1_555
N3 C2 1_555 1_555
H24 N3 1_555 1_555
N4 Mn1 1_555 1_555
N5 C10 1_555 1_555
H25 N5 1_555 1_555
N6 Mn1 1_555 1_555
N7 C18 1_555 1_555
O1 C26 1_555 1_555
O2 C26 1_555 1_555
O3 Mn1 1_555 1_555
F2 B1 1_555 1_555
F3 B1 1_555 1_555
F4 B1 1_555 1_555
Mn1A O1 1_555 1_555
O1A Mn1 1_555 1_555
O2A Mn1 1_555 1_555
C2 N2 1_555 1_555
C3 N2 1_555 1_555
C7 C8 1_555 1_555
C8 N3 1_555 1_555
C9 N1 1_555 1_555
C10 N4 1_555 1_555
C11 N4 1_555 1_555
C15 C16 1_555 1_555
C16 N5 1_555 1_555
C17 N1 1_555 1_555
C18 N6 1_555 1_555
C19 N6 1_555 1_555
C23 C24 1_555 1_555
C24 N7 1_555 1_555
C25 N7 1_555 1_555
C27 O3 1_555 1_555
O2 Mn1A 1_555 1_555

#END
