
#######################################################################
#
#                 Cambridge Crystallographic Data Centre
#                                CCDC 
#
#######################################################################
#
# If this CIF has been generated from an entry in the Cambridge 
# Structural Database, then it will include bibliographic, chemical, 
# crystal, experimental, refinement or atomic coordinate data resulting 
# from the CCDC's data processing and validation procedures.
#
#######################################################################

data_PALYOS
_symmetry_cell_setting           monoclinic
_symmetry_space_group_name_H-M   'P 21/c'
_symmetry_Int_Tables_number      14
_space_group_name_Hall           '-P 2ybc'
loop_
_symmetry_equiv_pos_site_id
_symmetry_equiv_pos_as_xyz
1 x,y,z
2 -x,1/2+y,1/2-z
3 -x,-y,-z
4 x,1/2-y,1/2+z
_cell_length_a                   11.9593(3)
_cell_length_b                   13.0459(2)
_cell_length_c                   18.4832(3)
_cell_angle_alpha                90
_cell_angle_beta                 100.952(2)
_cell_angle_gamma                90
_cell_volume                     2831.22
loop_
_atom_site_label
_atom_site_type_symbol
_atom_site_fract_x
_atom_site_fract_y
_atom_site_fract_z
Cd1 Cd -0.32363(4) 0.76868(3) 0.67855(2)
N1 N -0.2804(5) 0.9481(4) 0.7482(3)
N2 N -0.1662(5) 0.7610(4) 0.7723(3)
N3 N -0.0279(5) 0.8285(4) 0.8547(3)
H1 H 0.0168 0.8752 0.8796
N4 N -0.3278(5) 0.8970(4) 0.5972(3)
N5 N -0.3491(4) 1.0587(4) 0.5597(3)
H2 H -0.3537 1.1259 0.5621
N6 N -0.4748(5) 0.8281(4) 0.7326(3)
N7 N -0.5398(5) 0.9068(4) 0.8239(3)
C1 C -0.1563(6) 0.9500(5) 0.7708(3)
H3 H -0.1336 1.0024 0.8096
H4 H -0.1208 0.9676 0.7282
C2 C -0.1180(6) 0.8471(5) 0.7995(3)
C3 C -0.1056(6) 0.6812(5) 0.8123(3)
C4 C -0.1205(6) 0.5757(5) 0.8074(4)
H5 H -0.1785 0.5458 0.7713
C5 C -0.0475(7) 0.5158(6) 0.8574(4)
H6 H -0.0563 0.4435 0.8560
C6 C 0.0378(7) 0.5591(6) 0.9092(4)
H7 H 0.0863 0.5153 0.9424
C7 C 0.0552(7) 0.6632(6) 0.9147(4)
H8 H 0.1144 0.6921 0.9504
C8 C -0.0184(6) 0.7238(5) 0.8653(4)
C9 C -0.3258(6) 1.0287(5) 0.6949(3)
H9 H -0.2759 1.0898 0.7037
H10 H -0.4025 1.0490 0.7025
C10 C -0.3332(5) 0.9932(5) 0.6175(3)
C11 C -0.3426(6) 0.8988(5) 0.5206(3)
C12 C -0.3456(6) 0.8196(5) 0.4694(3)
H11 H -0.3379 0.7499 0.4842
C13 C -0.3605(6) 0.8479(6) 0.3956(4)
H12 H -0.3626 0.7959 0.3593
C14 C -0.3724(6) 0.9494(6) 0.3731(4)
H13 H -0.3820 0.9647 0.3220
C15 C -0.3706(6) 1.0279(5) 0.4222(3)
H14 H -0.3785 1.0973 0.4065
C16 C -0.3565(6) 1.0011(5) 0.4963(3)
C17 C -0.3386(6) 0.9442(5) 0.8105(3)
H15 H -0.3499 1.0146 0.8278
H16 H -0.2914 0.9061 0.8517
C18 C -0.4507(6) 0.8927(4) 0.7886(3)
C19 C -0.5879(6) 0.7996(4) 0.7293(3)
C20 C -0.6606(6) 0.7398(4) 0.6782(3)
H17 H -0.6334 0.7055 0.6396
C21 C -0.7731(6) 0.7317(5) 0.6853(4)
H18 H -0.8248 0.6930 0.6503
C22 C -0.8120(6) 0.7802(5) 0.7438(4)
H19 H -0.8893 0.7715 0.7481
C23 C -0.7430(6) 0.8392(5) 0.7946(4)
H20 H -0.7706 0.8718 0.8337
C24 C -0.6304(6) 0.8492(4) 0.7864(3)
C25 C -0.5396(6) 0.9745(5) 0.8872(3)
H21 H -0.4618 0.9759 0.9174
H22 H -0.5909 0.9453 0.9180
C26 C -0.5770(6) 1.0848(5) 0.8668(3)
O1 O -0.5577(4) 1.1506(3) 0.9132(2)
O2 O -0.6289(5) 1.0988(3) 0.8020(3)
O3 O -0.1849(5) 0.6944(4) 0.6104(3)
C27 C -0.0882(8) 0.7405(8) 0.5919(6)
H23 H -0.0497 0.6914 0.5648
H24 H -0.0361 0.7615 0.6370
H25 H -0.1112 0.8008 0.5610
H28 H -0.176(5) 0.6285(19) 0.597(5)
Cd1A Cd -0.67637(4) 1.26868(3) 0.82145(2)
O1A O -0.4423(4) 0.6506(3) 0.5868(2)
O2A O -0.3711(5) 0.5988(3) 0.6980(3)
Cl1 Cl -0.17550(16) 0.47072(13) 0.49979(9)
O4 O -0.2866(9) 0.5077(11) 0.4940(6)
O5 O -0.1740(14) 0.3621(10) 0.4916(8)
O6 O -0.1174(12) 0.5154(12) 0.4508(7)
O7 O -0.1168(19) 0.489(3) 0.5749(8)
O8 O 0.3837(6) 0.7656(4) 0.9747(3)
H26 H 0.433(9) 0.778(7) 1.014(6)
H27 H 0.319(8) 0.811(7) 0.988(5)
O9? O -0.2901(14) 0.4362(14) 0.4739(8)
O10? O -0.107(2) 0.3897(19) 0.4788(13)
O11? O -0.157(2) 0.5644(17) 0.4639(13)
O12? O -0.151(3) 0.485(3) 0.5782(10)
loop_
_geom_bond_atom_site_label_1
_geom_bond_atom_site_label_2
_geom_bond_site_symmetry_1
_geom_bond_site_symmetry_2
Cd1 N1 1_555 1_555
N1 C1 1_555 1_555
N2 Cd1 1_555 1_555
N3 H1 1_555 1_555
N4 Cd1 1_555 1_555
N5 H2 1_555 1_555
N6 Cd1 1_555 1_555
N7 C18 1_555 1_555
C1 H3 1_555 1_555
H4 C1 1_555 1_555
C2 N2 1_555 1_555
C3 N2 1_555 1_555
C4 C3 1_555 1_555
H5 C4 1_555 1_555
C5 C4 1_555 1_555
H6 C5 1_555 1_555
C6 C5 1_555 1_555
H7 C6 1_555 1_555
C7 C6 1_555 1_555
H8 C7 1_555 1_555
C8 N3 1_555 1_555
C9 N1 1_555 1_555
H9 C9 1_555 1_555
H10 C9 1_555 1_555
C10 N4 1_555 1_555
C11 N4 1_555 1_555
C12 C11 1_555 1_555
H11 C12 1_555 1_555
C13 C12 1_555 1_555
H12 C13 1_555 1_555
C14 C13 1_555 1_555
H13 C14 1_555 1_555
C15 C14 1_555 1_555
H14 C15 1_555 1_555
C16 N5 1_555 1_555
C17 N1 1_555 1_555
H15 C17 1_555 1_555
H16 C17 1_555 1_555
C18 N6 1_555 1_555
C19 N6 1_555 1_555
C20 C19 1_555 1_555
H17 C20 1_555 1_555
C21 C20 1_555 1_555
H18 C21 1_555 1_555
C22 C21 1_555 1_555
H19 C22 1_555 1_555
C23 C22 1_555 1_555
H20 C23 1_555 1_555
C24 N7 1_555 1_555
C25 N7 1_555 1_555
H21 C25 1_555 1_555
H22 C25 1_555 1_555
C26 C25 1_555 1_555
O1 C26 1_555 1_555
O2 C26 1_555 1_555
O3 Cd1 1_555 1_555
C27 O3 1_555 1_555
H23 C27 1_555 1_555
H24 C27 1_555 1_555
H25 C27 1_555 1_555
Cl1 O4 1_555 1_555
O5 Cl1 1_555 1_555
O6 Cl1 1_555 1_555
O7 Cl1 1_555 1_555
O8 H26 1_555 1_555
H27 O8 1_555 1_555
H28 O3 1_555 1_555
Cd1A O1 1_555 1_555
O1A Cd1 1_555 1_555
O2A Cd1 1_555 1_555
N3 C2 1_555 1_555
N5 C10 1_555 1_555
C1 C2 1_555 1_555
C3 C8 1_555 1_555
C7 C8 1_555 1_555
C9 C10 1_555 1_555
C11 C16 1_555 1_555
C15 C16 1_555 1_555
C17 C18 1_555 1_555
C19 C24 1_555 1_555
C23 C24 1_555 1_555
O2 Cd1A 1_555 1_555

#END
