
#######################################################################
#
#                 Cambridge Crystallographic Data Centre
#                                CCDC 
#
#######################################################################
#
# If this CIF has been generated from an entry in the Cambridge 
# Structural Database, then it will include bibliographic, chemical, 
# crystal, experimental, refinement or atomic coordinate data resulting 
# from the CCDC's data processing and validation procedures.
#
#######################################################################

data_PALYUX
_symmetry_cell_setting           monoclinic
_symmetry_space_group_name_H-M   'P 21/a'
_symmetry_Int_Tables_number      14
_space_group_name_Hall           '-P 2yab'
loop_
_symmetry_equiv_pos_site_id
_symmetry_equiv_pos_as_xyz
1 x,y,z
2 1/2-x,1/2+y,-z
3 -x,-y,-z
4 1/2+x,1/2-y,z
_cell_length_a                   15.4030(19)
_cell_length_b                   13.6135(16)
_cell_length_c                   17.400(2)
_cell_angle_alpha                90.00
_cell_angle_beta                 103.251(2)
_cell_angle_gamma                90.00
_cell_volume                     3551.44
loop_
_atom_site_label
_atom_site_type_symbol
_atom_site_fract_x
_atom_site_fract_y
_atom_site_fract_z
Cd1 Cd 0.071680(17) 0.600300(18) -0.241960(14)
O1 O -0.2309(2) 0.6550(3) -0.06867(16)
O2 O -0.09760(18) 0.8221(2) 0.15283(15)
O3 O -0.49240(16) 0.47920(18) 0.10253(14)
O4 O -0.35477(17) 0.64153(18) 0.32620(13)
O5 O -0.4235(2) 0.2618(2) 0.60376(19)
O6 O -0.2951(2) 0.6598(2) 0.53008(17)
O7 O 0.19522(19) 0.7139(2) -0.24226(19)
O8 O 0.2251(2) 0.5725(3) -0.19053(18)
O9 O -0.83218(19) 0.1695(3) 0.20075(18)
O10 O -0.0493(2) 0.4882(2) -0.28041(18)
O11 O -0.0573(3) 0.3420(3) -0.23689(18)
O12 O 0.0639(2) 0.4275(2) -0.19945(19)
N1 N 0.0551(2) 0.6321(2) -0.11468(16)
N2 N -0.14721(19) 0.7454(2) 0.03271(16)
N3 N -0.43791(17) 0.55112(19) 0.22400(15)
N4 N -0.48550(17) 0.2341(2) 0.29517(15)
N5 N -0.60113(19) 0.0586(2) 0.36423(15)
N6 N -0.5716(2) 0.2762(2) 0.53720(16)
N7 N 0.2533(2) 0.6524(3) -0.21071(19)
N8 N -0.0132(3) 0.4177(3) -0.23780(18)
C1 C -0.0060(2) 0.6941(3) -0.0984(2)
H1 H -0.0436 0.7263 -0.1402
C2 C -0.0159(2) 0.7127(3) -0.02279(19)
C3 C 0.0392(3) 0.6628(3) 0.0381(2)
H2 H 0.0343 0.6727 0.0899
C4 C 0.1012(3) 0.5989(4) 0.0224(2)
H3 H 0.1385 0.5645 0.0632
C5 C 0.1078(3) 0.5859(3) -0.0543(2)
H4 H 0.1508 0.5430 -0.0645
C6 C -0.0843(3) 0.7868(3) -0.0100(2)
H5 H -0.3829 0.3109 0.0609
H6 H -0.4462 0.3421 -0.0194
C7 C -0.2163(3) 0.6838(3) -0.0015(2)
C8 C -0.2658(2) 0.6608(3) 0.06048(18)
C9 C -0.3389(2) 0.6013(3) 0.05653(18)
H7 H -0.3671 0.5687 0.0106
C10 C -0.3672(2) 0.5938(2) 0.12641(17)
C11 C -0.3259(2) 0.6443(2) 0.19421(17)
C12 C -0.2531(2) 0.7047(2) 0.19768(18)
H8 H -0.2252 0.7382 0.2432
C13 C -0.2250(2) 0.7112(2) 0.12805(18)
C14 C -0.1481(2) 0.7678(3) 0.1110(2)
C15 C -0.4404(2) 0.5332(2) 0.14459(18)
C16 C -0.3715(2) 0.6159(2) 0.25817(18)
C17 C -0.5003(2) 0.5070(2) 0.2652(2)
H9 H -0.5080 0.5503 0.3074
H10 H -0.5579 0.4993 0.2288
C18 C -0.4678(2) 0.4083(2) 0.29923(18)
C19 C -0.3907(2) 0.3983(3) 0.35726(19)
H11 H -0.3586 0.4536 0.3786
C20 C -0.3616(2) 0.3064(3) 0.3834(2)
H12 H -0.3098 0.2985 0.4226
C21 C -0.4100(2) 0.2266(3) 0.3508(2)
H13 H -0.1104 -0.3357 -0.3681
C22 C 0.0126(2) -0.1757(2) -0.27062(18)
H14 H 0.0651 -0.1696 -0.2318
C23 C -0.5937(2) 0.1247(2) 0.42213(19)
H15 H -0.5729 0.1870 0.4136
C24 C -0.6145(2) 0.1068(2) 0.49341(18)
C25 C -0.6462(3) 0.0147(3) 0.5048(2)
H16 H -0.6618 -0.0007 0.5519
C26 C -0.6544(3) -0.0540(3) 0.4459(2)
H17 H -0.6758 -0.1165 0.4528
C27 C -0.6310(2) -0.0301(3) 0.3770(2)
H18 H -0.6361 -0.0775 0.3378
C28 C -0.6037(3) 0.1821(3) 0.5581(2)
H19 H -0.4378 0.8430 0.3955
H20 H -0.3393 0.8084 0.4283
C29 C -0.4840(3) 0.3081(3) 0.5638(2)
C30 C -0.4819(2) 0.4106(2) 0.53359(19)
C31 C -0.4116(2) 0.4750(3) 0.5422(2)
H21 H -0.3542 0.4589 0.5697
C32 C -0.4328(2) 0.5657(2) 0.50685(19)
C33 C -0.3739(3) 0.6517(3) 0.5036(2)
Cd1A Cd -0.571680(17) 0.100300(18) 0.241960(14)
Cd1_2 Cd 0.071680(17) -0.399700(18) -0.241960(14)
Cd1C Cd -0.428320(17) 0.899700(18) 0.758040(14)
O1A O -0.2691(2) 0.1550(3) 0.06867(16)
O2A O -0.40240(18) 0.3221(2) -0.15283(15)
O3A O -0.00760(16) -0.02080(18) -0.10253(14)
O4A O -0.14523(17) 0.14153(18) -0.32620(13)
O5B O -0.5765(2) 0.7382(2) 0.39624(19)
O6B O -0.7049(2) 0.3402(2) 0.46992(17)
O7A O -0.69522(19) 0.2139(2) 0.24226(19)
O8A O -0.7251(2) 0.0725(3) 0.19053(18)
O9A O 0.33218(19) 0.6695(3) -0.20075(18)
O10A O -0.4507(2) -0.0118(2) 0.28041(18)
O11A O -0.4427(3) -0.1580(3) 0.23689(18)
O12A O -0.5639(2) -0.0725(2) 0.19945(19)
N1A N -0.5551(2) 0.1321(2) 0.11468(16)
N2A N -0.35279(19) 0.2454(2) -0.03271(16)
N3A N -0.06209(17) 0.05112(19) -0.22400(15)
N4A N -0.01450(17) -0.2659(2) -0.29517(15)
N4A_2 N -0.01450(17) 0.7341(2) -0.29517(15)
N5A N 0.10113(19) 0.5586(2) -0.36423(15)
N5B N -0.39887(19) 0.9414(2) 0.63577(15)
N6B N -0.4284(2) 0.7238(2) 0.46280(16)
N7A N -0.7533(2) 0.1524(3) 0.21071(19)
N8A N -0.4868(3) -0.0823(3) 0.23780(18)
C1A C -0.4940(2) 0.1941(3) 0.0984(2)
H1A H -0.4564 0.2263 0.1402
C2A C -0.4841(2) 0.2127(3) 0.02279(19)
C3A C -0.5392(3) 0.1628(3) -0.0381(2)
H2A H -0.5343 0.1727 -0.0899
C4A C -0.6012(3) 0.0989(4) -0.0224(2)
H3A H -0.6385 0.0645 -0.0632
C5A C -0.6078(3) 0.0859(3) 0.0543(2)
H4A H -0.6508 0.0430 0.0645
C6A C -0.4157(3) 0.2868(3) 0.0100(2)
H5A H -0.1171 0.8109 -0.0609
H6A H -0.0538 0.8421 0.0194
C7A C -0.2837(3) 0.1838(3) 0.0015(2)
C8A C -0.2342(2) 0.1608(3) -0.06048(18)
C9A C -0.1611(2) 0.1013(3) -0.05653(18)
H7A H -0.1329 0.0687 -0.0106
C10A C -0.1328(2) 0.0938(2) -0.12641(17)
C11A C -0.1741(2) 0.1443(2) -0.19421(17)
C12A C -0.2469(2) 0.2047(2) -0.19768(18)
H8A H -0.2748 0.2382 -0.2432
C13A C -0.2750(2) 0.2112(2) -0.12805(18)
C14A C -0.3519(2) 0.2678(3) -0.1110(2)
C15A C -0.0596(2) 0.0332(2) -0.14459(18)
C16A C -0.1285(2) 0.1159(2) -0.25817(18)
C17A C 0.0003(2) 0.0070(2) -0.2652(2)
H9A H 0.0080 0.0503 -0.3074
H10A H 0.0579 -0.0007 -0.2288
C18A C -0.0322(2) -0.0917(2) -0.29923(18)
C19A C -0.1093(2) -0.1017(3) -0.35726(19)
H11A H -0.1414 -0.0464 -0.3786
C20A C -0.1384(2) -0.1936(3) -0.3834(2)
H12A H -0.1902 -0.2015 -0.4226
C21A C -0.0900(2) -0.2734(3) -0.3508(2)
H13A H -0.3896 0.1643 0.3681
C22A C -0.5126(2) 0.3243(2) 0.27062(18)
H14A H -0.5651 0.3304 0.2318
C23B C -0.4063(2) 0.8753(2) 0.57787(19)
H15B H -0.4271 0.8130 0.5864
C24B C -0.3855(2) 0.8932(2) 0.50659(18)
C25B C -0.3538(3) 0.9853(3) 0.4952(2)
H16B H -0.3382 1.0007 0.4481
C26B C -0.3456(3) 1.0540(3) 0.5541(2)
H17B H -0.3242 1.1165 0.5472
C27B C -0.3690(2) 1.0301(3) 0.6230(2)
H18B H -0.3639 1.0775 0.6622
C28B C -0.3963(3) 0.8179(3) 0.4419(2)
H19B H -0.5622 0.1570 0.6045
H20B H -0.6607 0.1916 0.5717
C29B C -0.5160(3) 0.6919(3) 0.4362(2)
C30B C -0.5181(2) 0.5894(2) 0.46641(19)
C31B C -0.5884(2) 0.5250(3) 0.4578(2)
H21B H -0.6458 0.5411 0.4303
C32B C -0.5672(2) 0.4343(2) 0.49315(19)
C33B C -0.6261(3) 0.3483(3) 0.4964(2)
O13 O 0.2361(5) 0.5758(6) -0.6736(4)
H22 H 0.1897 0.5496 -0.6688
C34 C 0.2486(12) 0.4362(9) -0.7506(10)
H23 H 0.2585 0.4176 -0.8011
H24 H 0.1896 0.4169 -0.7473
H25 H 0.2916 0.4041 -0.7096
C35 C 0.2579(8) 0.5424(10) -0.7411(8)
H26 H 0.3190 0.5607 -0.7400
H27 H 0.2198 0.5743 -0.7863
O14? O 0.2387(16) 0.481(2) -0.6741(15)
H28? H 0.2424 0.4564 -0.6305
C36? C 0.2845(13) 0.4334(13) -0.7110(8)
H29? H 0.2707 0.3638 -0.7133
H30? H 0.3480 0.4435 -0.6913
C37? C 0.2460(10) 0.4878(13) -0.7912(7)
H31? H 0.2662 0.4554 -0.8329
H32? H 0.2664 0.5547 -0.7872
H33? H 0.1821 0.4867 -0.8024
loop_
_geom_bond_atom_site_label_1
_geom_bond_atom_site_label_2
_geom_bond_site_symmetry_1
_geom_bond_site_symmetry_2
Cd1 O7 1_555 1_555
O1 C7 1_555 1_555
O2 C14 1_555 1_555
O3 C15 1_555 1_555
O4 C16 1_555 1_555
O5 C29 1_555 1_555
O6 C33 1_555 1_555
O7 N7 1_555 1_555
O8 Cd1 1_555 1_555
O9 N7A 1_555 1_555
O10 Cd1 1_555 1_555
O11 N8 1_555 1_555
O12 Cd1 1_555 1_555
N1 Cd1 1_555 1_555
N2 C6 1_555 1_555
N3 C15 1_555 1_555
N4 C21 1_555 1_555
N5 C23 1_555 1_555
N6 C28 1_555 1_555
N7 O8 1_555 1_555
N8 O10 1_555 1_555
C1 N1 1_555 1_555
H1 C1 1_555 1_555
C2 C1 1_555 1_555
C3 C2 1_555 1_555
H2 C3 1_555 1_555
C4 C3 1_555 1_555
H3 C4 1_555 1_555
C5 N1 1_555 1_555
H4 C5 1_555 1_555
C6 C2 1_555 1_555
H5 C6A 1_555 1_555
H6 C6A 1_555 1_555
C7 N2 1_555 1_555
C8 C7 1_555 1_555
C9 C8 1_555 1_555
H7 C9 1_555 1_555
C10 C9 1_555 1_555
C11 C10 1_555 1_555
C12 C11 1_555 1_555
H8 C12 1_555 1_555
C13 C8 1_555 1_555
C14 N2 1_555 1_555
C15 C10 1_555 1_555
C16 N3 1_555 1_555
C17 N3 1_555 1_555
H9 C17 1_555 1_555
H10 C17 1_555 1_555
C18 C17 1_555 1_555
C19 C18 1_555 1_555
H11 C19 1_555 1_555
C20 C19 1_555 1_555
H12 C20 1_555 1_555
C21 C20 1_555 1_555
H13 C21A 1_555 1_555
C22 H14 1_555 1_555
C23 H15 1_555 1_555
C24 C23 1_555 1_555
C25 C24 1_555 1_555
H16 C25 1_555 1_555
C26 C25 1_555 1_555
H17 C26 1_555 1_555
C27 N5 1_555 1_555
H18 C27 1_555 1_555
C28 C24 1_555 1_555
H19 C28B 1_555 1_555
H20 C28B 1_555 1_555
C29 N6 1_555 1_555
C30 C29 1_555 1_555
C31 C30 1_555 1_555
H21 C31 1_555 1_555
C32 C31 1_555 1_555
C33 C32 1_555 1_555
O13 H22 1_555 1_555
C34 H23 1_555 1_555
H24 C34 1_555 1_555
H25 C34 1_555 1_555
C35 O13 1_555 1_555
H26 C35 1_555 1_555
H27 C35 1_555 1_555
Cd1A N4 1_555 1_555
Cd1_2 N4A 1_555 1_555
Cd1C N5B 1_555 1_555
O1A C7A 1_555 1_555
O2A C14A 1_555 1_555
O3A C15A 1_555 1_555
O4A C16A 1_555 1_555
O5B C29B 1_555 1_555
O6B C33B 1_555 1_555
O7A Cd1A 1_555 1_555
O8A Cd1A 1_555 1_555
O9A N7 1_555 1_555
O10A Cd1A 1_555 1_555
O11A N8A 1_555 1_555
O12A Cd1A 1_555 1_555
N1A Cd1A 1_555 1_555
N2A C6A 1_555 1_555
N3A C15A 1_555 1_555
N4A C22 1_555 1_555
N4A_2 Cd1 1_555 1_555
N5A Cd1 1_555 1_555
N5B C23B 1_555 1_555
N6B C33 1_555 1_555
N7A O7A 1_555 1_555
N8A O10A 1_555 1_555
C1A N1A 1_555 1_555
H1A C1A 1_555 1_555
C2A C1A 1_555 1_555
C3A C2A 1_555 1_555
H2A C3A 1_555 1_555
C4A C3A 1_555 1_555
H3A C4A 1_555 1_555
C5A N1A 1_555 1_555
H4A C5A 1_555 1_555
C6A C2A 1_555 1_555
H5A C6 1_555 1_555
H6A C6 1_555 1_555
C7A N2A 1_555 1_555
C8A C7A 1_555 1_555
C9A C8A 1_555 1_555
H7A C9A 1_555 1_555
C10A C9A 1_555 1_555
C11A C10A 1_555 1_555
C12A C11A 1_555 1_555
H8A C12A 1_555 1_555
C13A C8A 1_555 1_555
C14A N2A 1_555 1_555
C15A C10A 1_555 1_555
C16A N3A 1_555 1_555
C17A N3A 1_555 1_555
H9A C17A 1_555 1_555
H10A C17A 1_555 1_555
C18A C22 1_555 1_555
C19A C18A 1_555 1_555
H11A C19A 1_555 1_555
C20A C19A 1_555 1_555
H12A C20A 1_555 1_555
C21A N4A 1_555 1_555
H13A C21 1_555 1_555
C22A N4 1_555 1_555
H14A C22A 1_555 1_555
C23B H15B 1_555 1_555
C24B C23B 1_555 1_555
C25B C24B 1_555 1_555
H16B C25B 1_555 1_555
C26B C25B 1_555 1_555
H17B C26B 1_555 1_555
C27B N5B 1_555 1_555
H18B C27B 1_555 1_555
C28B N6B 1_555 1_555
H19B C28 1_555 1_555
H20B C28 1_555 1_555
C29B N6B 1_555 1_555
C30B C32 1_555 1_555
C31B C30B 1_555 1_555
H21B C31B 1_555 1_555
C32B C30 1_555 1_555
C33B N6 1_555 1_555
O12 N8 1_555 1_555
N5 Cd1A 1_555 1_555
C4 C5 1_555 1_555
C11 C16 1_555 1_555
C12 C13 1_555 1_555
C13 C14 1_555 1_555
C18 C22A 1_555 1_555
C26 C27 1_555 1_555
C34 C35 1_555 1_555
O8A N7A 1_555 1_555
O12A N8A 1_555 1_555
C4A C5A 1_555 1_555
C11A C16A 1_555 1_555
C12A C13A 1_555 1_555
C13A C14A 1_555 1_555
C17A C18A 1_555 1_555
C20A C21A 1_555 1_555
C24B C28B 1_555 1_555
C26B C27B 1_555 1_555
C29B C30B 1_555 1_555
C31B C32B 1_555 1_555
C32B C33B 1_555 1_555

#END
