
#######################################################################
#
#                 Cambridge Crystallographic Data Centre
#                                CCDC 
#
#######################################################################
#
# If this CIF has been generated from an entry in the Cambridge 
# Structural Database, then it will include bibliographic, chemical, 
# crystal, experimental, refinement or atomic coordinate data resulting 
# from the CCDC's data processing and validation procedures.
#
#######################################################################

data_PALYIK
_symmetry_cell_setting           orthorhombic
_symmetry_space_group_name_H-M   'P b c a'
_symmetry_Int_Tables_number      61
_space_group_name_Hall           '-P 2ac 2ab'
loop_
_symmetry_equiv_pos_site_id
_symmetry_equiv_pos_as_xyz
1 x,y,z
2 1/2-x,-y,1/2+z
3 1/2+x,1/2-y,-z
4 -x,1/2+y,1/2-z
5 -x,-y,-z
6 1/2+x,y,1/2-z
7 1/2-x,1/2+y,z
8 x,1/2-y,1/2+z
_cell_length_a                   12.900(3)
_cell_length_b                   12.965(5)
_cell_length_c                   14.250(5)
_cell_angle_alpha                90
_cell_angle_beta                 90
_cell_angle_gamma                90
_cell_volume                     2383.29
loop_
_atom_site_label
_atom_site_type_symbol
_atom_site_fract_x
_atom_site_fract_y
_atom_site_fract_z
Cu1 Cu 0.22887(12) 0.56584(14) 0.06603(11)
Cu2 Cu 0.06714(13) 0.36837(14) 0.01595(12)
Cl1 Cl 0.13287(22) 0.50659(22) -0.06213(19)
Cl2 Cl 0.14238(22) 0.43188(23) 0.14781(18)
Cl3 Cl 0.28048(21) 0.70398(22) -0.01955(20)
Cl4 Cl 0.31082(22) 0.61813(24) 0.19734(19)
S1 S -0.01517(23) 0.31305(25) -0.11675(20)
N1 N 0.36470(75) 0.44703(78) 0.03163(66)
N2 N 0.38789(71) 0.37428(74) 0.09906(64)
N3 N -0.04452(65) 0.17976(71) 0.02837(60)
N4 N 0.00492(65) 0.24909(76) 0.08973(56)
C1 C -0.05854(87) 0.20330(91) -0.06501(80)
C2 C 0.40529(85) 0.41278(86) -0.04686(76)
C3 C 0.40030(95) 0.46117(91) -0.14062(81)
H1 H 0.34960 0.37730 0.15060
H2 H 0.07030 0.22260 0.11430
H3 H -0.03920 0.24490 0.12880
H4 H 0.41710 0.53980 -0.12590
H5 H 0.34130 0.42190 -0.19010
H6 H 0.47380 0.44470 -0.16680
C1B C 0.44146(87) 0.29670(91) 0.06501(80)
C2B C -0.09471(85) 0.08722(86) 0.04686(76)
N2B N -0.11211(71) 0.12572(74) -0.09906(64)
N3B N 0.45548(65) 0.32024(71) -0.02837(60)
S1B S 0.48483(23) 0.18695(25) 0.11675(20)
N1B N -0.13530(75) 0.05297(78) -0.03163(66)
C3B C -0.09970(95) 0.03883(91) 0.14062(81)
H1B H -0.15040 0.12270 -0.15060
N4B N 0.50492(65) 0.25091(76) -0.08973(56)
Cu2B Cu 0.56714(13) 0.13163(14) -0.01595(12)
Cu1B Cu -0.27113(12) -0.06584(14) -0.06603(11)
H4B H -0.08290 -0.03980 0.12590
H5B H -0.15870 0.07810 0.19010
H6B H -0.02620 0.05530 0.16680
H2B H 0.57030 0.27740 -0.11430
H3B H 0.46080 0.25510 -0.12880
Cl1B Cl 0.63287(22) -0.00659(22) 0.06213(19)
Cl2B Cl 0.64238(22) 0.06812(23) -0.14781(18)
Cl1B_2 Cl -0.36713(22) -0.00659(22) 0.06213(19)
Cl2B_2 Cl -0.35762(22) 0.06812(23) -0.14781(18)
Cl3B Cl -0.21952(21) -0.20398(22) 0.01955(20)
Cl4B Cl -0.18918(22) -0.11813(24) -0.19734(19)
Cu1B_2 Cu 0.72887(12) -0.06584(14) -0.06603(11)
O1 O -0.16459(71) 0.19395(72) -0.27899(57)
H7 H -0.17500 0.14560 -0.32300
H8 H -0.18490 0.26400 -0.27850
loop_
_geom_bond_atom_site_label_1
_geom_bond_atom_site_label_2
_geom_bond_site_symmetry_1
_geom_bond_site_symmetry_2
Cu1 Cl1 1_555 1_555
Cu2 Cl1 1_555 1_555
Cl2 Cu1 1_555 1_555
Cl3 Cu1 1_555 1_555
Cl4 Cu1 1_555 1_555
S1 Cu2 1_555 1_555
O1 H7 1_555 1_555
N1 Cu1 1_555 1_555
N2 N1 1_555 1_555
N3 N4 1_555 1_555
N4 Cu2 1_555 1_555
C1 S1 1_555 1_555
C2 N1 1_555 1_555
C3 C2 1_555 1_555
H1 N2 1_555 1_555
H2 N4 1_555 1_555
H3 N4 1_555 1_555
H4 C3 1_555 1_555
H5 C3 1_555 1_555
H6 C3 1_555 1_555
H8 O1 1_555 1_555
C1B N2 1_555 1_555
C2B N3 1_555 1_555
N2B C1 1_555 1_555
N3B C2 1_555 1_555
S1B C1B 1_555 1_555
N1B C2B 1_555 1_555
C3B C2B 1_555 1_555
H1B N2B 1_555 1_555
N4B N3B 1_555 1_555
Cu2B S1B 1_555 1_555
Cu1B N1B 1_555 1_555
H4B C3B 1_555 1_555
H5B C3B 1_555 1_555
H6B C3B 1_555 1_555
H2B N4B 1_555 1_555
H3B N4B 1_555 1_555
Cl1B Cu2B 1_555 1_555
Cl2B Cu2B 1_555 1_555
Cl1B_2 Cu1B 1_555 1_555
Cl2B_2 Cu1B 1_555 1_555
Cl3B Cu1B 1_555 1_555
Cl4B Cu1B 1_555 1_555
Cu1B_2 Cl1B 1_555 1_555
Cu2 Cl2 1_555 1_555
N3 C1 1_555 1_555
C1B N3B 1_555 1_555
N2B N1B 1_555 1_555
N4B Cu2B 1_555 1_555
Cl2B Cu1B_2 1_555 1_555

#END
