
#######################################################################
#
#                 Cambridge Crystallographic Data Centre
#                                CCDC 
#
#######################################################################
#
# If this CIF has been generated from an entry in the Cambridge 
# Structural Database, then it will include bibliographic, chemical, 
# crystal, experimental, refinement or atomic coordinate data resulting 
# from the CCDC's data processing and validation procedures.
#
#######################################################################

data_PALYOR
_symmetry_cell_setting           triclinic
_symmetry_space_group_name_H-M   'P -1'
_symmetry_Int_Tables_number      2
_space_group_name_Hall           '-P 1'
loop_
_symmetry_equiv_pos_site_id
_symmetry_equiv_pos_as_xyz
1 x,y,z
2 -x,-y,-z
_cell_length_a                   11.012(1)
_cell_length_b                   13.190(2)
_cell_length_c                   13.934(2)
_cell_angle_alpha                95.099(2)
_cell_angle_beta                 106.142(2)
_cell_angle_gamma                99.003(2)
_cell_volume                     1901.36
loop_
_atom_site_label
_atom_site_type_symbol
_atom_site_fract_x
_atom_site_fract_y
_atom_site_fract_z
Cd1 Cd 0.51900(2) 0.68193(2) 0.34854(2)
O1 O 0.1060(3) 0.9226(2) 0.6929(2)
O2 O 0.0318(3) 0.5714(2) 0.6659(2)
O3 O 0.0927(2) 0.9503(2) 1.1244(2)
O4 O 0.0355(3) 0.5986(2) 1.1008(2)
O5 O 0.5394(3) 0.1019(2) 0.2711(2)
O6 O 0.2159(2) 0.1300(2) -0.0071(2)
O7 O 0.6750(3) 0.6300(2) 0.4942(2)
O8 O 0.6614(3) 0.7903(2) 0.5025(2)
O9 O 0.8066(3) 0.7403(3) 0.6167(2)
O10 O 0.3574(3) 0.7056(2) 0.1926(2)
O11 O 0.4776(3) 0.8426(2) 0.2859(2)
O12 O 0.3448(3) 0.8535(2) 0.1420(3)
N1 N 0.3624(3) 0.6952(2) 0.4286(2)
N2 N 0.0752(2) 0.7452(2) 0.6554(2)
N3 N 0.0587(2) 0.7751(2) 1.1355(2)
N4 N 0.7030(3) 0.7124(2) 0.2977(2)
N5 N 0.4504(3) 0.5056(2) 0.2926(2)
N6 N 0.3618(3) 0.1265(2) 0.1474(2)
N7 N 0.7158(3) 0.7198(3) 0.5388(2)
N8 N 0.3926(3) 0.8021(2) 0.2056(2)
C1 C 0.3544(3) 0.7885(3) 0.4708(3)
C2 C 0.2579(3) 0.8057(3) 0.5114(3)
C3 C 0.1631(3) 0.7227(2) 0.5106(2)
C4 C 0.1729(3) 0.6261(3) 0.4698(2)
C5 C 0.2717(3) 0.6154(2) 0.4299(2)
C6 C 0.0498(3) 0.7382(3) 0.5464(2)
C7 C 0.0884(3) 0.8383(2) 0.7175(2)
C8 C 0.0758(3) 0.8095(2) 0.8152(2)
C9 C 0.0829(3) 0.8721(2) 0.9023(2)
C10 C 0.0699(3) 0.8198(2) 0.9823(2)
C11 C 0.0511(3) 0.7124(2) 0.9745(2)
C12 C 0.0405(3) 0.6498(2) 0.8869(2)
C13 C 0.0547(3) 0.7019(2) 0.8077(2)
C14 C 0.0508(3) 0.6600(2) 0.7036(2)
C15 C 0.0759(3) 0.8619(2) 1.0868(2)
C16 C 0.0463(3) 0.6833(2) 1.0746(2)
C17 C 0.0702(3) 0.7798(2) 1.2430(2)
C18 C -0.0580(3) 0.7551(2) 1.2620(2)
C19 C -0.1244(4) 0.8324(3) 1.2753(3)
C20 C 0.7591(4) 0.8089(3) 0.2938(3)
C21 C 0.7694(3) 0.6380(2) 0.2857(3)
C22 C -0.1136(3) 0.6561(2) 1.2683(3)
C23 C 0.5050(3) 0.4361(2) 0.3444(2)
C24 C 0.4615(4) 0.3317(3) 0.3199(3)
C25 C 0.3542(3) 0.2937(2) 0.2378(2)
C26 C 0.3019(4) 0.3650(3) 0.1819(3)
C27 C 0.3485(4) 0.4686(3) 0.2122(3)
C28 C 0.2994(4) 0.1780(3) 0.2125(3)
C29 C 0.4764(3) 0.0907(2) 0.1842(2)
C30 C 0.5011(3) 0.0399(2) 0.0930(2)
C31 C 0.6017(3) -0.0086(2) 0.0879(2)
C32 C 0.4030(3) 0.0489(2) 0.0091(2)
C33 C 0.3120(3) 0.1051(2) 0.0428(3)
H1 H 0.4180 0.8448 0.4727
H2 H 0.2562 0.8721 0.5390
H3 H 0.1125 0.5682 0.4694
H4 H 0.2757 0.5495 0.4024
H5 H 0.0229 0.8012 0.5249
H6 H -0.0211 0.6809 0.5143
H7 H 0.0954 0.9440 0.9071
H8 H 0.0250 0.5778 0.8815
H9 H 0.1134 0.8488 1.2770
H10 H 0.1229 0.7312 1.2716
H11 H -0.0905 0.9007 1.2717
H12 H 0.7169 0.8628 0.3042
H13 H 0.7339 0.5702 0.2894
H14 H -0.0715 0.6014 1.2608
H15 H 0.5766 0.4600 0.4002
H16 H 0.5037 0.2863 0.3582
H17 H 0.2341 0.3429 0.1230
H18 H 0.3076 0.5154 0.1752
H19 H 0.3114 0.1474 0.2744
H20 H 0.2077 0.1674 0.1787
H21 H 0.6675 -0.0141 0.1448
Cd1_2 Cd -0.48100(2) 0.68193(2) 1.34854(2)
Cd1A Cd 0.48100(2) -0.68193(2) -0.34854(2)
Cd1_3 Cd 1.51900(2) 0.68193(2) -0.65146(2)
O1_2 O 1.1060(3) 0.9226(2) -0.3071(2)
O2_2 O 1.0318(3) 0.5714(2) -0.3341(2)
O3_2 O 1.0927(2) 0.9503(2) 0.1244(2)
O4_2 O 1.0355(3) 0.5986(2) 0.1008(2)
O5A O 0.4606(3) -0.1019(2) -0.2711(2)
O6A O 0.7841(2) -0.1300(2) 0.0071(2)
O7A O 0.3250(3) -0.6300(2) -0.4942(2)
O8A O 0.3386(3) -0.7903(2) -0.5025(2)
O9A O 0.1934(3) -0.7403(3) -0.6167(2)
O10A O 0.6426(3) -0.7056(2) -0.1926(2)
O11A O 0.5224(3) -0.8426(2) -0.2859(2)
O12A O 0.6552(3) -0.8535(2) -0.1420(3)
N1A N 0.6376(3) -0.6952(2) -0.4286(2)
N1_2 N 1.3624(3) 0.6952(2) -0.5714(2)
N2_2 N 1.0752(2) 0.7452(2) -0.3446(2)
N3_2 N 1.0587(2) 0.7751(2) 0.1355(2)
N4_2 N -0.2970(3) 0.7124(2) 1.2977(2)
N4A N 0.2970(3) -0.7124(2) -0.2977(2)
N5A N 0.5496(3) -0.5056(2) -0.2926(2)
N6A N 0.6382(3) -0.1265(2) -0.1474(2)
N7A N 0.2842(3) -0.7198(3) -0.5388(2)
N8A N 0.6074(3) -0.8021(2) -0.2056(2)
C1_2 C 1.3544(3) 0.7885(3) -0.5292(3)
C2_2 C 1.2579(3) 0.8057(3) -0.4886(3)
C3_2 C 1.1631(3) 0.7227(2) -0.4894(2)
C4_2 C 1.1729(3) 0.6261(3) -0.5302(2)
C5_2 C 1.2717(3) 0.6154(2) -0.5701(2)
C6_2 C 1.0498(3) 0.7382(3) -0.4536(2)
C7_2 C 1.0884(3) 0.8383(2) -0.2825(2)
C8_2 C 1.0758(3) 0.8095(2) -0.1848(2)
C9_2 C 1.0829(3) 0.8721(2) -0.0977(2)
C10_2 C 1.0699(3) 0.8198(2) -0.0177(2)
C11_2 C 1.0511(3) 0.7124(2) -0.0255(2)
C12_2 C 1.0405(3) 0.6498(2) -0.1131(2)
C13_2 C 1.0547(3) 0.7019(2) -0.1923(2)
C14_2 C 1.0508(3) 0.6600(2) -0.2964(2)
C15_2 C 1.0759(3) 0.8619(2) 0.0868(2)
C16_2 C 1.0463(3) 0.6833(2) 0.0746(2)
C17_2 C 1.0702(3) 0.7798(2) 0.2430(2)
C18_2 C 0.9420(3) 0.7551(2) 0.2620(2)
C19_2 C 0.8756(4) 0.8324(3) 0.2753(3)
C20_2 C -0.2409(4) 0.8089(3) 1.2938(3)
C21_2 C -0.2306(3) 0.6380(2) 1.2857(3)
C22_2 C 0.8864(3) 0.6561(2) 0.2683(3)
C23A C 0.4950(3) -0.4361(2) -0.3444(2)
C24A C 0.5385(4) -0.3317(3) -0.3199(3)
C25A C 0.6458(3) -0.2937(2) -0.2378(2)
C26A C 0.6981(4) -0.3650(3) -0.1819(3)
C27A C 0.6515(4) -0.4686(3) -0.2122(3)
C28A C 0.7006(4) -0.1780(3) -0.2125(3)
C29A C 0.5236(3) -0.0907(2) -0.1842(2)
C30A C 0.4989(3) -0.0399(2) -0.0930(2)
C31A C 0.3983(3) 0.0086(2) -0.0879(2)
C32A C 0.5970(3) -0.0489(2) -0.0091(2)
C33A C 0.6880(3) -0.1051(2) -0.0428(3)
H1_2 H 1.4180 0.8448 -0.5273
H2_2 H 1.2562 0.8721 -0.4610
H3_2 H 1.1125 0.5682 -0.5306
H4_2 H 1.2757 0.5495 -0.5976
H5_2 H 1.0229 0.8012 -0.4751
H6_2 H 0.9789 0.6809 -0.4857
H7_2 H 1.0954 0.9440 -0.0929
H8_2 H 1.0250 0.5778 -0.1185
H9_2 H 1.1134 0.8488 0.2770
H10_2 H 1.1229 0.7312 0.2716
H11_2 H 0.9095 0.9007 0.2717
H12_2 H -0.2831 0.8628 1.3042
H13_2 H -0.2661 0.5702 1.2894
H14_2 H 0.9285 0.6014 0.2608
H15A H 0.4234 -0.4600 -0.4002
H16A H 0.4963 -0.2863 -0.3582
H17A H 0.7659 -0.3429 -0.1230
H18A H 0.6924 -0.5154 -0.1752
H19A H 0.6886 -0.1474 -0.2744
H20A H 0.7923 -0.1674 -0.1787
H21A H 0.3325 0.0141 -0.1448
Cl1 Cl 0.5387(2) 0.6863(2) 1.0374(1)
Cl2 Cl 0.3637(1) 0.6864(1) 0.8439(1)
Cl3 Cl 0.3040(2) 0.5317(1) 0.9620(1)
C34 C 0.3793(5) 0.6591(4) 0.9669(4)
H22 H 0.3339 0.7047 0.9976
loop_
_geom_bond_atom_site_label_1
_geom_bond_atom_site_label_2
_geom_bond_site_symmetry_1
_geom_bond_site_symmetry_2
Cd1 O7 1_555 1_555
Cl1 C34 1_555 1_555
Cl2 C34 1_555 1_555
Cl3 C34 1_555 1_555
O1 C7 1_555 1_555
O2 C14 1_555 1_555
O3 C15 1_555 1_555
O4 C16 1_555 1_555
O5 C29 1_555 1_555
O6 C33 1_555 1_555
O7 N7 1_555 1_555
O8 Cd1 1_555 1_555
O9 N7 1_555 1_555
O10 Cd1 1_555 1_555
O11 Cd1 1_555 1_555
O12 N8 1_555 1_555
N1 Cd1 1_555 1_555
N2 C6 1_555 1_555
N3 C15 1_555 1_555
N4 Cd1 1_555 1_555
N5 Cd1 1_555 1_555
N6 C28 1_555 1_555
N7 O8 1_555 1_555
N8 O10 1_555 1_555
C1 N1 1_555 1_555
C2 C1 1_555 1_555
C3 C2 1_555 1_555
C4 C3 1_555 1_555
C5 N1 1_555 1_555
C6 C3 1_555 1_555
C7 N2 1_555 1_555
C8 C7 1_555 1_555
C9 C8 1_555 1_555
C10 C9 1_555 1_555
C11 C10 1_555 1_555
C12 C11 1_555 1_555
C13 C8 1_555 1_555
C14 N2 1_555 1_555
C15 C10 1_555 1_555
C16 N3 1_555 1_555
C17 N3 1_555 1_555
C18 C17 1_555 1_555
C19 C18 1_555 1_555
C20 N4 1_555 1_555
C21 N4 1_555 1_555
C22 C18 1_555 1_555
C23 N5 1_555 1_555
C24 C23 1_555 1_555
C25 C24 1_555 1_555
C26 C25 1_555 1_555
C27 N5 1_555 1_555
C28 C25 1_555 1_555
C29 N6 1_555 1_555
C30 C29 1_555 1_555
C31 C30 1_555 1_555
C32 C30 1_555 1_555
C33 N6 1_555 1_555
C34 H22 1_555 1_555
H1 C1 1_555 1_555
H2 C2 1_555 1_555
H3 C4 1_555 1_555
H4 C5 1_555 1_555
H5 C6 1_555 1_555
H6 C6 1_555 1_555
H7 C9 1_555 1_555
H8 C12 1_555 1_555
H9 C17 1_555 1_555
H10 C17 1_555 1_555
H11 C19 1_555 1_555
H12 C20 1_555 1_555
H13 C21 1_555 1_555
H14 C22 1_555 1_555
H15 C23 1_555 1_555
H16 C24 1_555 1_555
H17 C26 1_555 1_555
H18 C27 1_555 1_555
H19 C28 1_555 1_555
H20 C28 1_555 1_555
H21 C31 1_555 1_555
Cd1_2 N4_2 1_555 1_555
Cd1A O7A 1_555 1_555
Cd1_3 N1_2 1_555 1_555
O1_2 C7_2 1_555 1_555
O2_2 C14_2 1_555 1_555
O3_2 C15_2 1_555 1_555
O4_2 C16_2 1_555 1_555
O5A C29A 1_555 1_555
O6A C33A 1_555 1_555
O7A N7A 1_555 1_555
O8A Cd1A 1_555 1_555
O9A N7A 1_555 1_555
O10A Cd1A 1_555 1_555
O11A Cd1A 1_555 1_555
O12A N8A 1_555 1_555
N1A Cd1A 1_555 1_555
N1_2 C1_2 1_555 1_555
N2_2 C6_2 1_555 1_555
N3_2 C15_2 1_555 1_555
N4_2 C20_2 1_555 1_555
N4A Cd1A 1_555 1_555
N5A Cd1A 1_555 1_555
N6A C28A 1_555 1_555
N7A O8A 1_555 1_555
N8A O10A 1_555 1_555
C1_2 C2_2 1_555 1_555
C2_2 C3_2 1_555 1_555
C3_2 C4_2 1_555 1_555
C4_2 C5_2 1_555 1_555
C5_2 N1_2 1_555 1_555
C6_2 C3_2 1_555 1_555
C7_2 N2_2 1_555 1_555
C8_2 C7_2 1_555 1_555
C9_2 C8_2 1_555 1_555
C10_2 C9_2 1_555 1_555
C11_2 C10_2 1_555 1_555
C12_2 C11_2 1_555 1_555
C13_2 C8_2 1_555 1_555
C14_2 N2_2 1_555 1_555
C15_2 C10_2 1_555 1_555
C16_2 N3_2 1_555 1_555
C17_2 N3_2 1_555 1_555
C18_2 C17_2 1_555 1_555
C19_2 C20 1_555 1_555
C20_2 C19 1_555 1_555
C21_2 C22 1_555 1_555
C22_2 C21 1_555 1_555
C23A N5A 1_555 1_555
C24A C23A 1_555 1_555
C25A C24A 1_555 1_555
C26A C25A 1_555 1_555
C27A N5A 1_555 1_555
C28A C25A 1_555 1_555
C29A N6A 1_555 1_555
C30A C29A 1_555 1_555
C31A C32 1_555 1_555
C32A C31 1_555 1_555
C33A N6A 1_555 1_555
H1_2 C1_2 1_555 1_555
H2_2 C2_2 1_555 1_555
H3_2 C4_2 1_555 1_555
H4_2 C5_2 1_555 1_555
H5_2 C6_2 1_555 1_555
H6_2 C6_2 1_555 1_555
H7_2 C9_2 1_555 1_555
H8_2 C12_2 1_555 1_555
H9_2 C17_2 1_555 1_555
H10_2 C17_2 1_555 1_555
H11_2 C19_2 1_555 1_555
H12_2 C20_2 1_555 1_555
H13_2 C21_2 1_555 1_555
H14_2 C22_2 1_555 1_555
H15A C23A 1_555 1_555
H16A C24A 1_555 1_555
H17A C26A 1_555 1_555
H18A C27A 1_555 1_555
H19A C28A 1_555 1_555
H20A C28A 1_555 1_555
H21A C31A 1_555 1_555
O11 N8 1_555 1_555
C4 C5 1_555 1_555
C11 C16 1_555 1_555
C12 C13 1_555 1_555
C13 C14 1_555 1_555
C26 C27 1_555 1_555
C32 C33 1_555 1_555
O11A N8A 1_555 1_555
N4_2 C21_2 1_555 1_555
C11_2 C16_2 1_555 1_555
C12_2 C13_2 1_555 1_555
C13_2 C14_2 1_555 1_555
C18_2 C19_2 1_555 1_555
C18_2 C22_2 1_555 1_555
C26A C27A 1_555 1_555
C30A C31A 1_555 1_555
C30A C32A 1_555 1_555
C32A C33A 1_555 1_555

#END
