
#######################################################################
#
#                 Cambridge Crystallographic Data Centre
#                                CCDC 
#
#######################################################################
#
# If this CIF has been generated from an entry in the Cambridge 
# Structural Database, then it will include bibliographic, chemical, 
# crystal, experimental, refinement or atomic coordinate data resulting 
# from the CCDC's data processing and validation procedures.
#
#######################################################################

data_PALYEH
_symmetry_cell_setting           triclinic
_symmetry_space_group_name_H-M   'P -1'
_symmetry_Int_Tables_number      2
_space_group_name_Hall           '-P 1'
loop_
_symmetry_equiv_pos_site_id
_symmetry_equiv_pos_as_xyz
1 x,y,z
2 -x,-y,-z
_cell_length_a                   7.060(3)
_cell_length_b                   10.345(3)
_cell_length_c                   11.697(4)
_cell_angle_alpha                106.86(2)
_cell_angle_beta                 113.33(2)
_cell_angle_gamma                96.39(3)
_cell_volume                     725.445
loop_
_atom_site_label
_atom_site_type_symbol
_atom_site_fract_x
_atom_site_fract_y
_atom_site_fract_z
Mn1 Mn 0.10852(9) -0.27710(5) -0.09738(5)
Cl1 Cl 0.2643(2) -0.28928(12) 0.13016(10)
O1 O -0.1882(6) -0.4254(4) -0.1572(4)
H1 H -0.307(7) -0.426(7) -0.215(7)
H2 H -0.188(12) -0.511(3) -0.169(8)
O2 O 0.2351(7) -0.4417(4) -0.1752(4)
H3 H 0.258(11) -0.504(6) -0.142(7)
H4 H 0.315(10) -0.439(8) -0.213(7)
N1 N -0.0654(7) -0.1210(4) -0.0496(4)
N2 N 0.0000 0.0000 0.0000
N3 N -0.3966(8) 0.1082(5) 0.0286(5)
N4 N -0.5000 0.0000 0.0000
O3 O -0.0243(6) -0.2854(3) -0.3088(3)
O4 O -0.4183(5) 0.4357(3) -0.6608(3)
N5 N -0.0846(5) -0.1876(3) -0.3545(3)
N6 N -0.3736(5) 0.3350(3) -0.6129(3)
C1 C -0.2335(7) -0.2251(4) -0.4831(4)
H5 H -0.2953 -0.3193 -0.5358
C2 C -0.2945(7) -0.1264(4) -0.5366(4)
H6 H -0.3953 -0.1547 -0.6256
C3 C -0.2073(6) 0.0168(4) -0.4595(4)
C4 C -0.0545(7) 0.0512(4) -0.3279(4)
H7 H 0.0073 0.1447 -0.2726
C5 C 0.0064(7) -0.0510(4) -0.2787(4)
H8 H 0.1124 -0.0253 -0.1915
C6 C -0.4630(7) 0.2001(4) -0.6927(4)
H9 H -0.5611 0.1774 -0.7814
C7 C -0.4129(7) 0.0953(4) -0.6464(4)
H10 H -0.4765 0.0026 -0.7040
C8 C -0.2674(6) 0.1260(4) -0.5138(4)
C9 C -0.1810(8) 0.2675(4) -0.4336(4)
H11 H -0.0856 0.2929 -0.3439
C10 C -0.2327(7) 0.3699(4) -0.4833(4)
H12 H -0.1709 0.4635 -0.4280
Mn1A Mn -0.10852(9) 0.27710(5) 0.09738(5)
Mn1_2 Mn -0.89148(9) -0.27710(5) -0.09738(5)
Cl1A Cl -0.2643(2) 0.28928(12) -0.13016(10)
O1A O 0.1882(6) 0.4254(4) 0.1572(4)
H1A H 0.307(7) 0.426(7) 0.215(7)
H2A H 0.188(12) 0.511(3) 0.169(8)
O2A O -0.2351(7) 0.4417(4) 0.1752(4)
H3A H -0.258(11) 0.504(6) 0.142(7)
H4A H -0.315(10) 0.439(8) 0.213(7)
N1A N 0.0654(7) 0.1210(4) 0.0496(4)
N3A N 0.3966(8) -0.1082(5) -0.0286(5)
N3A_2 N -0.6034(8) -0.1082(5) -0.0286(5)
O3A O 0.0243(6) 0.2854(3) 0.3088(3)
O4A O 0.4183(5) -0.4357(3) 0.6608(3)
N5A N 0.0846(5) 0.1876(3) 0.3545(3)
N6A N 0.3736(5) -0.3350(3) 0.6129(3)
C1A C 0.2335(7) 0.2251(4) 0.4831(4)
H5A H 0.2953 0.3193 0.5358
C2A C 0.2945(7) 0.1264(4) 0.5366(4)
H6A H 0.3953 0.1547 0.6256
C3A C 0.2073(6) -0.0168(4) 0.4595(4)
C4A C 0.0545(7) -0.0512(4) 0.3279(4)
H7A H -0.0073 -0.1447 0.2726
C5A C -0.0064(7) 0.0510(4) 0.2787(4)
H8A H -0.1124 0.0253 0.1915
C6A C 0.4630(7) -0.2001(4) 0.6927(4)
H9A H 0.5611 -0.1774 0.7814
C7A C 0.4129(7) -0.0953(4) 0.6464(4)
H10A H 0.4765 -0.0026 0.7040
C8A C 0.2674(6) -0.1260(4) 0.5138(4)
C9A C 0.1810(8) -0.2675(4) 0.4336(4)
H11A H 0.0856 -0.2929 0.3439
C10A C 0.2327(7) -0.3699(4) 0.4833(4)
H12A H 0.1709 -0.4635 0.4280
O5 O 0.2875(6) -0.6639(4) -0.0936(4)
H13 H 0.239(12) -0.672(7) -0.039(6)
H14 H 0.368(11) -0.580(4) -0.056(6)
loop_
_geom_bond_atom_site_label_1
_geom_bond_atom_site_label_2
_geom_bond_site_symmetry_1
_geom_bond_site_symmetry_2
Mn1 Cl1 1_555 1_555
O1 Mn1 1_555 1_555
H1 O1 1_555 1_555
H2 O1 1_555 1_555
O2 Mn1 1_555 1_555
H3 O2 1_555 1_555
H4 O2 1_555 1_555
N1 Mn1 1_555 1_555
N2 N1 1_555 1_555
N3 N4 1_555 1_555
N4 N3A_2 1_555 1_555
O3 Mn1 1_555 1_555
O4 N6 1_555 1_555
N5 O3 1_555 1_555
N6 C6 1_555 1_555
C1 N5 1_555 1_555
H5 C1 1_555 1_555
C2 C1 1_555 1_555
H6 C2 1_555 1_555
C3 C2 1_555 1_555
C4 C3 1_555 1_555
H7 C4 1_555 1_555
C5 N5 1_555 1_555
H8 C5 1_555 1_555
C6 H9 1_555 1_555
C7 C6 1_555 1_555
H10 C7 1_555 1_555
C8 C3 1_555 1_555
C9 C8 1_555 1_555
H11 C9 1_555 1_555
C10 N6 1_555 1_555
H12 C10 1_555 1_555
O5 H13 1_555 1_555
H14 O5 1_555 1_555
Mn1A N3 1_555 1_555
Mn1_2 N3A_2 1_555 1_555
Cl1A Mn1A 1_555 1_555
O1A Mn1A 1_555 1_555
H1A O1A 1_555 1_555
H2A O1A 1_555 1_555
O2A Mn1A 1_555 1_555
H3A O2A 1_555 1_555
H4A O2A 1_555 1_555
N1A N2 1_555 1_555
N3A Mn1 1_555 1_555
O3A Mn1A 1_555 1_555
O4A N6A 1_555 1_555
N5A O3A 1_555 1_555
N6A C6A 1_555 1_555
C1A N5A 1_555 1_555
H5A C1A 1_555 1_555
C2A C1A 1_555 1_555
H6A C2A 1_555 1_555
C3A C2A 1_555 1_555
C4A C3A 1_555 1_555
H7A C4A 1_555 1_555
C5A N5A 1_555 1_555
H8A C5A 1_555 1_555
C6A H9A 1_555 1_555
C7A C6A 1_555 1_555
H10A C7A 1_555 1_555
C8A C3A 1_555 1_555
C9A C8A 1_555 1_555
H11A C9A 1_555 1_555
C10A N6A 1_555 1_555
H12A C10A 1_555 1_555
C4 C5 1_555 1_555
C7 C8 1_555 1_555
C9 C10 1_555 1_555
Mn1A N1A 1_555 1_555
C4A C5A 1_555 1_555
C7A C8A 1_555 1_555
C9A C10A 1_555 1_555

#END
