
#######################################################################
#
#                 Cambridge Crystallographic Data Centre
#                                CCDC 
#
#######################################################################
#
# If this CIF has been generated from an entry in the Cambridge 
# Structural Database, then it will include bibliographic, chemical, 
# crystal, experimental, refinement or atomic coordinate data resulting 
# from the CCDC's data processing and validation procedures.
#
#######################################################################

data_PALYAD
_symmetry_cell_setting           triclinic
_symmetry_space_group_name_H-M   'P -1'
_symmetry_Int_Tables_number      2
_space_group_name_Hall           '-P 1'
loop_
_symmetry_equiv_pos_site_id
_symmetry_equiv_pos_as_xyz
1 x,y,z
2 -x,-y,-z
_cell_length_a                   8.877(3)
_cell_length_b                   11.036(3)
_cell_length_c                   11.584(4)
_cell_angle_alpha                72.62(2)
_cell_angle_beta                 71.06(2)
_cell_angle_gamma                87.98(3)
_cell_volume                     1022
loop_
_atom_site_label
_atom_site_type_symbol
_atom_site_fract_x
_atom_site_fract_y
_atom_site_fract_z
Mn1 Mn 0.12022(8) 0.11455(6) 0.36736(7)
Mn2 Mn 0.5000 0.5000 0.0000
N1 N 0.1706(5) 0.1822(4) 0.1557(4)
N2 N 0.2473(5) 0.2737(4) 0.0787(4)
N3 N 0.3225(6) 0.3629(4) -0.0012(4)
N4 N 0.3063(5) 0.2495(4) 0.3657(4)
N5 N 0.3513(5) 0.3479(4) 0.2890(4)
N6 N 0.3989(6) 0.4494(4) 0.2128(4)
N7 N 0.0700(5) 0.0337(4) 0.5826(5)
N8 N 0.0965(5) 0.0850(5) 0.6383(4)
N9 N 0.1218(9) 0.1510(7) 0.6998(6)
N10 N -0.0531(5) 0.2726(4) 0.3794(4)
N11 N 0.3223(5) 0.6542(4) -0.0125(4)
N12 N 0.3070(5) -0.0265(4) 0.3272(4)
C1 C -0.1292(6) 0.3177(5) 0.2929(5)
H1 H -0.1155 0.2788 0.2295
C2 C -0.2259(6) 0.4180(5) 0.2933(5)
H2 H -0.2791 0.4427 0.2337
C3 C -0.2441(6) 0.4829(4) 0.3839(5)
C4 C -0.1672(6) 0.4346(5) 0.4744(5)
H3 H -0.1794 0.4708 0.5396
C5 C -0.0733(6) 0.3334(5) 0.4671(6)
H4 H -0.0205 0.3056 0.5267
C6 C -0.3380(6) 0.5927(5) 0.3899(5)
H5 H -0.3465 0.6245 0.4575
C7 C -0.4125(6) 0.6521(4) 0.3092(5)
H6 H -0.4045 0.6208 0.2415
C8 C 0.3891(6) -0.0715(5) 0.4082(5)
H7 H 0.3820 -0.0315 0.4699
C9 C 0.4829(6) -0.1727(5) 0.4059(5)
H8 H 0.5391 -0.1981 0.4633
C10 C -0.5060(6) 0.7621(5) 0.3168(5)
C11 C -0.5877(6) 0.8104(5) 0.2304(5)
H9 H -0.5802 0.7737 0.1664
C12 C 0.3202(6) -0.0875(5) 0.2396(5)
H10 H 0.2642 -0.0590 0.1823
C13 C 0.1691(6) 0.6245(5) 0.0627(6)
H11 H 0.1363 0.5402 0.1109
C14 C 0.0590(6) 0.7166(5) 0.0701(6)
H12 H -0.0463 0.6922 0.1223
C15 C 0.1006(6) 0.8419(5) 0.0031(5)
C16 C 0.2599(6) 0.8723(5) -0.0788(5)
H13 H 0.2948 0.9554 -0.1299
C17 C 0.3630(6) 0.7761(4) -0.0815(5)
H14 H 0.4682 0.7975 -0.1351
C18 C -0.0170(7) 0.9382(5) 0.0172(5)
H15 H -0.1242 0.9095 0.0534
Mn1A Mn 0.87978(8) 0.88545(6) -0.36736(7)
Mn1A_2 Mn -0.12022(8) -0.11455(6) 0.63264(7)
Mn1_2 Mn -0.87978(8) 1.11455(6) 0.36736(7)
Mn1_3 Mn 1.12022(8) -0.88545(6) 0.36736(7)
Mn2_2 Mn -0.5000 1.5000 0.0000
N1A N 0.8294(5) 0.8178(4) -0.1557(4)
N2A N 0.7527(5) 0.7263(4) -0.0787(4)
N3A N 0.6775(6) 0.6371(4) 0.0012(4)
N4A N 0.6937(5) 0.7505(4) -0.3657(4)
N5A N 0.6487(5) 0.6521(4) -0.2890(4)
N6A N 0.6011(6) 0.5506(4) -0.2128(4)
N7A N -0.0700(5) -0.0337(4) 0.4174(5)
N7A_2 N 0.9300(5) 0.9663(4) -0.5826(5)
N7_2 N 1.0700(5) 1.0337(4) -0.4174(5)
N8A N -0.0965(5) -0.0850(5) 0.3617(4)
N9A N -0.1218(9) -0.1510(7) 0.3002(6)
N10A N 1.0531(5) 0.7274(4) -0.3794(4)
N10_2 N 0.9469(5) -0.7274(4) 0.3794(4)
N11A N -0.3223(5) 1.3458(4) 0.0125(4)
N11A_2 N 0.6777(5) 0.3458(4) 0.0125(4)
N12_2 N -0.6930(5) 0.9735(4) 0.3272(4)
N12A N 0.6930(5) 1.0265(4) -0.3272(4)
C1_2 C 0.8708(6) -0.6823(5) 0.2929(5)
H1_2 H 0.8845 -0.7212 0.2295
C2_2 C 0.7741(6) -0.5820(5) 0.2933(5)
H2_2 H 0.7209 -0.5573 0.2337
C3_2 C 0.7559(6) -0.5171(4) 0.3839(5)
C4_2 C 0.8328(6) -0.5654(5) 0.4744(5)
H3_2 H 0.8206 -0.5292 0.5396
C5_2 C 0.9267(6) -0.6666(5) 0.4671(6)
H4_2 H 0.9795 -0.6944 0.5267
C6_2 C 0.6620(6) -0.4073(5) 0.3899(5)
H5_2 H 0.6535 -0.3755 0.4575
C7_2 C 0.5875(6) -0.3479(4) 0.3092(5)
H6_2 H 0.5955 -0.3792 0.2415
C8_2 C -0.6109(6) 0.9285(5) 0.4082(5)
H7_2 H -0.6180 0.9685 0.4699
C9_2 C -0.5171(6) 0.8273(5) 0.4059(5)
H8_2 H -0.4609 0.8019 0.4633
C10_2 C 0.4940(6) -0.2379(5) 0.3168(5)
C11_2 C 0.4123(6) -0.1896(5) 0.2304(5)
H9_2 H 0.4198 -0.2263 0.1664
C12_2 C -0.6798(6) 0.9125(5) 0.2396(5)
H10_2 H -0.7358 0.9410 0.1823
C13A C -0.1691(6) 1.3755(5) -0.0627(6)
H11A H -0.1363 1.4598 -0.1109
C14A C -0.0590(6) 1.2834(5) -0.0701(6)
H12A H 0.0463 1.3078 -0.1223
C15A C -0.1006(6) 1.1581(5) -0.0031(5)
C16A C -0.2599(6) 1.1277(5) 0.0788(5)
H13A H -0.2948 1.0446 0.1299
C17A C -0.3630(6) 1.2239(4) 0.0815(5)
H14A H -0.4682 1.2025 0.1351
C18A C 0.0170(7) 1.0618(5) -0.0172(5)
H15A H 0.1242 1.0905 -0.0534
loop_
_geom_bond_atom_site_label_1
_geom_bond_atom_site_label_2
_geom_bond_site_symmetry_1
_geom_bond_site_symmetry_2
Mn1 N1 1_555 1_555
Mn2 N3 1_555 1_555
N1 N2 1_555 1_555
N2 N3 1_555 1_555
N4 Mn1 1_555 1_555
N5 N4 1_555 1_555
N6 Mn2 1_555 1_555
N7 Mn1 1_555 1_555
N8 N7 1_555 1_555
N9 N8 1_555 1_555
N10 Mn1 1_555 1_555
N11 Mn2 1_555 1_555
N12 Mn1 1_555 1_555
C1 N10 1_555 1_555
H1 C1 1_555 1_555
C2 C1 1_555 1_555
H2 C2 1_555 1_555
C3 C2 1_555 1_555
C4 C3 1_555 1_555
H3 C4 1_555 1_555
C5 N10 1_555 1_555
H4 C5 1_555 1_555
C6 C3 1_555 1_555
H5 C6 1_555 1_555
C7 C6 1_555 1_555
H6 C7 1_555 1_555
C8 N12 1_555 1_555
H7 C8 1_555 1_555
C9 C8 1_555 1_555
H8 C9 1_555 1_555
C10 C7 1_555 1_555
C11 C10 1_555 1_555
H9 C11 1_555 1_555
C12 N12 1_555 1_555
H10 C12 1_555 1_555
C13 N11 1_555 1_555
H11 C13 1_555 1_555
C14 C13 1_555 1_555
H12 C14 1_555 1_555
C15 C14 1_555 1_555
C16 C15 1_555 1_555
H13 C16 1_555 1_555
C17 N11 1_555 1_555
H14 C17 1_555 1_555
C18 C15 1_555 1_555
H15 C18 1_555 1_555
Mn1A N1A 1_555 1_555
Mn1A_2 N7 1_555 1_555
Mn1_2 N12_2 1_555 1_555
Mn1_3 N10_2 1_555 1_555
Mn2_2 N11A 1_555 1_555
N1A N2A 1_555 1_555
N2A N3A 1_555 1_555
N3A Mn2 1_555 1_555
N4A Mn1A 1_555 1_555
N5A N4A 1_555 1_555
N6A Mn2 1_555 1_555
N7A Mn1 1_555 1_555
N7A_2 Mn1A 1_555 1_555
N7_2 Mn1A 1_555 1_555
N8A N7A 1_555 1_555
N9A N8A 1_555 1_555
N10A Mn1A 1_555 1_555
N10_2 C1_2 1_555 1_555
N11A C13A 1_555 1_555
N11A_2 Mn2 1_555 1_555
N12_2 C8_2 1_555 1_555
N12A Mn1A 1_555 1_555
C1_2 H1_2 1_555 1_555
C2_2 C1_2 1_555 1_555
H2_2 C2_2 1_555 1_555
C3_2 C2_2 1_555 1_555
C4_2 C3_2 1_555 1_555
H3_2 C4_2 1_555 1_555
C5_2 N10_2 1_555 1_555
H4_2 C5_2 1_555 1_555
C6_2 C3_2 1_555 1_555
H5_2 C6_2 1_555 1_555
C7_2 C6_2 1_555 1_555
H6_2 C7_2 1_555 1_555
C8_2 H7_2 1_555 1_555
C9_2 C10 1_555 1_555
H8_2 C9_2 1_555 1_555
C10_2 C9 1_555 1_555
C11_2 C12 1_555 1_555
H9_2 C11_2 1_555 1_555
C12_2 C11 1_555 1_555
H10_2 C12_2 1_555 1_555
C13A H11A 1_555 1_555
C14A C13A 1_555 1_555
H12A C14A 1_555 1_555
C15A C14A 1_555 1_555
C16A C15A 1_555 1_555
H13A C16A 1_555 1_555
C17A N11A 1_555 1_555
H14A C17A 1_555 1_555
C18A C18 1_555 1_555
H15A C18A 1_555 1_555
N5 N6 1_555 1_555
C4 C5 1_555 1_555
C16 C17 1_555 1_555
Mn1A_2 N7A 1_555 1_555
N5A N6A 1_555 1_555
N12_2 C12_2 1_555 1_555
C4_2 C5_2 1_555 1_555
C7_2 C10_2 1_555 1_555
C8_2 C9_2 1_555 1_555
C10_2 C11_2 1_555 1_555
C15A C18A 1_555 1_555
C16A C17A 1_555 1_555

#END
