
#######################################################################
#
#                 Cambridge Crystallographic Data Centre
#                                CCDC 
#
#######################################################################
#
# If this CIF has been generated from an entry in the Cambridge 
# Structural Database, then it will include bibliographic, chemical, 
# crystal, experimental, refinement or atomic coordinate data resulting 
# from the CCDC's data processing and validation procedures.
#
#######################################################################

data_PALYUW
_symmetry_cell_setting           monoclinic
_symmetry_space_group_name_H-M   'P 21/a'
_symmetry_Int_Tables_number      14
_space_group_name_Hall           '-P 2yab'
loop_
_symmetry_equiv_pos_site_id
_symmetry_equiv_pos_as_xyz
1 x,y,z
2 1/2-x,1/2+y,-z
3 -x,-y,-z
4 1/2+x,1/2-y,z
_cell_length_a                   34.099(8)
_cell_length_b                   8.704(3)
_cell_length_c                   7.163(3)
_cell_angle_alpha                90
_cell_angle_beta                 96.14(2)
_cell_angle_gamma                90
_cell_volume                     2113.77
loop_
_atom_site_label
_atom_site_type_symbol
_atom_site_fract_x
_atom_site_fract_y
_atom_site_fract_z
Cu1 Cu 0.13126(2) 0.29093(8) 0.18600(10)
Cu2 Cu 0.09084(2) 0.55304(8) -0.33265(10)
Cu3 Cu 0.20066(2) 0.33778(9) -0.20251(12)
Cl1 Cl 0.06953(3) 0.22222(15) 0.24842(18)
Cl2 Cl 0.11022(4) 0.51826(13) 0.05598(18)
Cl3 Cl 0.14870(3) 0.44420(15) -0.41242(18)
Cl4 Cl 0.10912(4) 0.79567(14) -0.37779(22)
Cl5 Cl 0.20200(4) 0.08149(14) -0.27811(18)
S1 S 0.19511(3) 0.35300(12) 0.12948(17)
S2 S 0.02829(3) 0.63892(13) -0.29207(18)
O1 O 0.12026(10) 0.13366(39) -0.10219(53)
N1 N 0.25020(11) -0.03654(45) 0.23981(59)
N2 N 0.24849(11) 0.11394(47) 0.17888(58)
N3 N 0.19207(11) 0.06232(44) 0.26237(56)
N4 N 0.15344(10) 0.09003(46) 0.30953(54)
N5 N -0.02710(12) 0.25520(50) -0.20117(63)
N6 N -0.02431(12) 0.41252(50) -0.21006(61)
N7 N 0.03065(11) 0.33127(44) -0.27183(55)
N8 N 0.06914(11) 0.33414(43) -0.32680(59)
C1 C 0.21281(13) 0.17524(51) 0.18946(64)
C2 C 0.21554(13) -0.06686(55) 0.29243(67)
C3 C 0.20277(15) -0.21403(59) 0.37090(85)
C4 C 0.01010(13) 0.46136(56) -0.25673(69)
C5 C 0.00699(14) 0.20734(58) -0.24022(75)
C6 C 0.02026(18) 0.04451(66) -0.24275(95)
H1 H 0.2663(23) 0.1558(89) 0.152(10)
H2 H 0.1375(22) 0.0095(84) 0.259(10)
H3 H 0.1553(21) 0.0993(89) 0.437(11)
H4 H 0.2272(24) -0.2559(84) 0.419(10)
H5 H 0.1912(22) -0.1946(83) 0.498(10)
H6 H 0.1779(24) -0.2560(85) 0.287(11)
H7 H -0.0392(22) 0.4701(87) -0.204(11)
H8 H 0.0823(24) 0.2722(90) -0.236(11)
H9 H 0.0677(23) 0.2950(84) -0.467(11)
H10 H -0.0026(24) -0.0151(85) -0.235(11)
H11 H 0.0300(22) 0.0379(81) -0.337(11)
H12 H 0.0406(22) 0.0412(85) -0.150(11)
H13 H 0.1100(22) 0.0622(87) -0.070(10)
H14 H 0.1395(22) 0.1163(88) -0.166(10)
N1A N 0.24980(11) 0.46346(45) -0.23981(59)
Cu3A Cu 0.29934(2) -0.16222(9) 0.20251(12)
O2 O -0.10294(12) 0.12120(43) -0.10694(64)
H15 H -0.0854(22) 0.1316(89) -0.164(10)
H16 H -0.1148(23) 0.1972(89) -0.055(11)
O3 O 0.31240(12) 0.26169(47) 0.08520(62)
H17 H 0.3115(22) 0.3665(93) 0.1373(99)
H18 H 0.3354(22) 0.2131(85) 0.142(10)
loop_
_geom_bond_atom_site_label_1
_geom_bond_atom_site_label_2
_geom_bond_site_symmetry_1
_geom_bond_site_symmetry_2
Cu1 Cl1 1_555 1_555
Cu2 Cl2 1_555 1_555
Cu3 Cl3 1_555 1_555
Cl2 Cu1 1_555 1_555
Cl3 Cu2 1_555 1_555
Cl4 Cu2 1_555 1_555
Cl5 Cu3 1_555 1_555
S1 Cu1 1_555 1_555
S2 Cu2 1_555 1_555
O1 Cu1 1_555 1_555
O2 H15 1_555 1_555
O3 H17 1_555 1_555
N1 N2 1_555 1_555
N2 C1 1_555 1_555
N3 N4 1_555 1_555
N4 Cu1 1_555 1_555
N5 N6 1_555 1_555
N6 C4 1_555 1_555
N7 N8 1_555 1_555
N8 Cu2 1_555 1_555
C1 S1 1_555 1_555
C2 N1 1_555 1_555
C3 C2 1_555 1_555
C4 S2 1_555 1_555
C5 N5 1_555 1_555
C6 C5 1_555 1_555
H1 N2 1_555 1_555
H2 N4 1_555 1_555
H3 N4 1_555 1_555
H4 C3 1_555 1_555
H5 C3 1_555 1_555
H6 C3 1_555 1_555
H7 N6 1_555 1_555
H8 N8 1_555 1_555
H9 N8 1_555 1_555
H10 C6 1_555 1_555
H11 C6 1_555 1_555
H12 C6 1_555 1_555
H13 O1 1_555 1_555
H14 O1 1_555 1_555
H16 O2 1_555 1_555
H18 O3 1_555 1_555
N1A Cu3 1_555 1_555
Cu3A N1 1_555 1_555
Cu3 S1 1_555 1_555
N3 C2 1_555 1_555
N3 C1 1_555 1_555
N7 C4 1_555 1_555
N7 C5 1_555 1_555

#END
