
#######################################################################
#
#                 Cambridge Crystallographic Data Centre
#                                CCDC 
#
#######################################################################
#
# If this CIF has been generated from an entry in the Cambridge 
# Structural Database, then it will include bibliographic, chemical, 
# crystal, experimental, refinement or atomic coordinate data resulting 
# from the CCDC's data processing and validation procedures.
#
#######################################################################

data_PALZEJ
_symmetry_cell_setting           monoclinic
_symmetry_space_group_name_H-M   'P 21/c'
_symmetry_Int_Tables_number      14
_space_group_name_Hall           '-P 2ybc'
loop_
_symmetry_equiv_pos_site_id
_symmetry_equiv_pos_as_xyz
1 x,y,z
2 -x,1/2+y,1/2-z
3 -x,-y,-z
4 x,1/2-y,1/2+z
_cell_length_a                   11.948(2)
_cell_length_b                   9.1229(16)
_cell_length_c                   21.960(4)
_cell_angle_alpha                90
_cell_angle_beta                 93.121(3)
_cell_angle_gamma                90
_cell_volume                     2390.1
loop_
_atom_site_label
_atom_site_type_symbol
_atom_site_fract_x
_atom_site_fract_y
_atom_site_fract_z
Co1 Co 0.16354(2) 0.52382(3) 0.085228(13)
O1 O 0.52025(14) 0.1578(2) 0.16348(8)
O2 O 0.36190(17) 0.1337(2) 0.25864(10)
O3 O 0.15591(13) 0.75573(17) 0.08976(7)
O4 O 0.16217(13) 0.66002(17) -0.00163(7)
O5 O 0.10745(15) 1.21977(18) -0.02761(8)
O6 O 0.15723(14) 1.30337(17) 0.06539(8)
O7 O -0.01767(13) 0.52931(17) 0.07763(7)
H1 H -0.0377 0.6119 0.0628
H2 H -0.0412 0.4533 0.0586
N1 N 0.34553(16) 0.5088(2) 0.08698(9)
N2 N 0.51063(16) 0.3942(2) 0.07847(9)
N3 N 0.16675(16) 0.4769(2) 0.17941(8)
N4 N 0.17313(17) 0.3313(2) 0.26157(8)
C1 C 0.4308(2) 0.6138(3) 0.08340(10)
C2 C 0.5341(2) 0.5440(3) 0.07649(10)
C3 C 0.6325(2) 0.6210(3) 0.06748(11)
H3 H 0.6998 0.5733 0.0615
C4 C 0.6246(2) 0.7714(3) 0.06795(13)
H4 H 0.6881 0.8269 0.0615
C5 C 0.5239(2) 0.8432(3) 0.07786(14)
H5 H 0.5228 0.9451 0.0791
C6 C 0.4254(2) 0.7665(3) 0.08593(12)
H6 H 0.3587 0.8149 0.0927
C7 C 0.39887(19) 0.3824(3) 0.08455(11)
H7 H 0.3626 0.2925 0.0868
C8 C 0.5896(2) 0.2725(3) 0.07588(11)
H8 H 0.6574 0.3069 0.0581
H9 H 0.5571 0.1969 0.0494
C9 C 0.6200(2) 0.2068(3) 0.13781(12)
H10 H 0.6711 0.1252 0.1337
H11 H 0.6568 0.2797 0.1641
C10 C 0.5410(3) 0.0828(4) 0.22028(15)
H12 H 0.5719 0.1505 0.2508
H13 H 0.5950 0.0048 0.2154
C11 C 0.4347(3) 0.0205(3) 0.24038(17)
H14 H 0.3983 -0.0350 0.2073
H15 H 0.4506 -0.0459 0.2743
C12 C 0.2542(2) 0.0816(3) 0.27174(14)
H16 H 0.2616 -0.0012 0.2994
H17 H 0.2149 0.0487 0.2344
C13 C 0.1888(2) 0.2000(3) 0.30000(12)
H18 H 0.1158 0.1617 0.3090
H19 H 0.2269 0.2281 0.3384
C14 C 0.1885(2) 0.3443(3) 0.20096(10)
H20 H 0.2121 0.2674 0.1770
C15 C 0.13561(18) 0.5590(3) 0.22975(10)
C16 C 0.13737(19) 0.4668(3) 0.28113(10)
C17 C 0.1063(2) 0.5160(3) 0.33824(11)
H21 H 0.1050 0.4536 0.3717
C18 C 0.0779(2) 0.6619(3) 0.34214(11)
H22 H 0.0572 0.6993 0.3793
C19 C 0.0795(2) 0.7557(3) 0.29140(12)
H23 H 0.0612 0.8540 0.2962
C20 C 0.1075(2) 0.7065(3) 0.23466(11)
H24 H 0.1075 0.7691 0.2012
C21 C 0.15769(17) 0.7717(2) 0.03279(10)
C22 C 0.1558(2) 0.9239(2) 0.00522(10)
H25 H 0.0865 0.9357 -0.0193
H26 H 0.2171 0.9317 -0.0219
C23 C 0.1656(2) 1.0484(2) 0.05098(11)
H27 H 0.2410 1.0475 0.0697
H28 H 0.1147 1.0285 0.0829
C24 C 0.14123(18) 1.2032(2) 0.02656(11)
Co1_2 Co 0.16354(2) 1.52382(3) 0.085228(13)
O6_2 O 0.15723(14) 0.30337(17) 0.06539(8)
loop_
_geom_bond_atom_site_label_1
_geom_bond_atom_site_label_2
_geom_bond_site_symmetry_1
_geom_bond_site_symmetry_2
Co1 O3 1_555 1_555
O1 C9 1_555 1_555
O2 C11 1_555 1_555
O3 C21 1_555 1_555
O4 Co1 1_555 1_555
O5 C24 1_555 1_555
O6 C24 1_555 1_555
O7 Co1 1_555 1_555
H1 O7 1_555 1_555
H2 O7 1_555 1_555
N1 Co1 1_555 1_555
N2 C2 1_555 1_555
N3 Co1 1_555 1_555
N4 C13 1_555 1_555
C1 N1 1_555 1_555
C2 C1 1_555 1_555
C3 C2 1_555 1_555
H3 C3 1_555 1_555
C4 C3 1_555 1_555
H4 C4 1_555 1_555
C5 C4 1_555 1_555
H5 C5 1_555 1_555
C6 C1 1_555 1_555
H6 C6 1_555 1_555
C7 N1 1_555 1_555
H7 C7 1_555 1_555
C8 N2 1_555 1_555
H8 C8 1_555 1_555
H9 C8 1_555 1_555
C9 C8 1_555 1_555
H10 C9 1_555 1_555
H11 C9 1_555 1_555
C10 O1 1_555 1_555
H12 C10 1_555 1_555
H13 C10 1_555 1_555
C11 C10 1_555 1_555
H14 C11 1_555 1_555
H15 C11 1_555 1_555
C12 O2 1_555 1_555
H16 C12 1_555 1_555
H17 C12 1_555 1_555
C13 C12 1_555 1_555
H18 C13 1_555 1_555
H19 C13 1_555 1_555
C14 N3 1_555 1_555
H20 C14 1_555 1_555
C15 N3 1_555 1_555
C16 N4 1_555 1_555
C17 C16 1_555 1_555
H21 C17 1_555 1_555
C18 C17 1_555 1_555
H22 C18 1_555 1_555
C19 C18 1_555 1_555
H23 C19 1_555 1_555
C20 C15 1_555 1_555
H24 C20 1_555 1_555
C21 O4 1_555 1_555
C22 C21 1_555 1_555
H25 C22 1_555 1_555
H26 C22 1_555 1_555
C23 C22 1_555 1_555
H27 C23 1_555 1_555
H28 C23 1_555 1_555
C24 C23 1_555 1_555
Co1_2 O6 1_555 1_555
O6_2 Co1 1_555 1_555
N2 C7 1_555 1_555
N4 C14 1_555 1_555
C5 C6 1_555 1_555
C15 C16 1_555 1_555
C19 C20 1_555 1_555

#END
