
#######################################################################
#
#                 Cambridge Crystallographic Data Centre
#                                CCDC 
#
#######################################################################
#
# If this CIF has been generated from an entry in the Cambridge 
# Structural Database, then it will include bibliographic, chemical, 
# crystal, experimental, refinement or atomic coordinate data resulting 
# from the CCDC's data processing and validation procedures.
#
#######################################################################

data_PALZEI01
_symmetry_cell_setting           triclinic
_symmetry_space_group_name_H-M   'P -1'
_symmetry_Int_Tables_number      2
_space_group_name_Hall           '-P 1'
loop_
_symmetry_equiv_pos_site_id
_symmetry_equiv_pos_as_xyz
1 x,y,z
2 -x,-y,-z
_cell_length_a                   7.9179(6)
_cell_length_b                   12.1698(10)
_cell_length_c                   12.6444(6)
_cell_angle_alpha                69.023(5)
_cell_angle_beta                 73.269(5)
_cell_angle_gamma                87.855(7)
_cell_volume                     1086.56
loop_
_atom_site_label
_atom_site_type_symbol
_atom_site_fract_x
_atom_site_fract_y
_atom_site_fract_z
I1 I 0.32774(3) 0.64076(2) -0.24626(2)
I2 I 0.83755(4) 0.69436(2) -0.47514(2)
I3 I 0.26437(3) 0.00047(2) -0.03293(2)
Cu1 Cu 0.44719(7) 0.48482(4) -0.08876(4)
Cu2 Cu 0.65905(7) 0.70112(4) -0.26798(4)
Cu3 Cu 0.43645(7) 0.11836(4) 0.04797(4)
S1 S 0.25380(13) 0.42165(8) 0.10428(8)
S2 S 0.68008(13) 0.88188(8) -0.23720(8)
S3 S 0.52904(14) 0.30450(8) -0.09405(8)
N1 N 0.0710(4) 0.6142(3) 0.0463(3)
H1 H 0.0996 0.6197 -0.0281
N2 N 0.0553(4) 0.5433(3) 0.2325(3)
H2 H 0.0754 0.4968 0.2985
N3 N 1.0149(4) 0.8967(3) -0.3757(3)
H3 H 0.9825 0.8592 -0.4155
N4 N 0.9947(5) 0.9694(3) -0.2408(3)
H4 H 0.9450 0.9947 -0.1828
N5 N 0.6165(5) 0.2084(3) -0.2618(3)
H5 H 0.6324 0.1398 -0.2117
N6 N 0.5790(5) 0.3938(3) -0.3291(3)
H6 H 0.5490 0.4640 -0.3284
C1 C 0.1221(5) 0.5318(3) 0.1283(3)
C2 C -0.0385(6) 0.6959(4) 0.0917(4)
H7 H -0.1555 0.6980 0.0776
H8 H 0.0200 0.7766 0.0552
C3 C -0.0556(6) 0.6428(4) 0.2239(4)
H9 H -0.0117 0.7004 0.2505
H10 H -0.1799 0.6159 0.2716
C4 C 0.9052(5) 0.9158(3) -0.2845(3)
C5 C 1.1941(5) 0.9439(4) -0.4037(3)
H11 H 1.2796 0.8829 -0.4075
H12 H 1.2279 1.0119 -0.4797
C6 C 1.1835(6) 0.9819(4) -0.2989(4)
H13 H 1.2316 1.0646 -0.3263
H14 H 1.2478 0.9298 -0.2458
C7 C 0.5753(5) 0.3019(3) -0.2334(3)
C8 C 0.6332(6) 0.2316(4) -0.3872(4)
H15 H 0.5301 0.1957 -0.3957
H16 H 0.7429 0.2022 -0.4259
C9 C 0.6391(7) 0.3660(4) -0.4371(4)
H17 H 0.7604 0.4010 -0.4844
H18 H 0.5585 0.3941 -0.4869
I3A I 0.73563(3) -0.00047(2) 0.03293(2)
Cu1A Cu 0.55281(7) 0.51518(4) 0.08876(4)
Cu2A Cu 0.34095(7) 0.29888(4) 0.26798(4)
Cu3A Cu 0.56355(7) -0.11836(4) -0.04797(4)
Cu3A_2 Cu 0.56355(7) 0.88164(4) -0.04797(4)
S1A S 0.74620(13) 0.57835(8) -0.10428(8)
S2A S 0.31992(13) 0.11812(8) 0.23720(8)
loop_
_geom_bond_atom_site_label_1
_geom_bond_atom_site_label_2
_geom_bond_site_symmetry_1
_geom_bond_site_symmetry_2
I1 Cu1 1_555 1_555
I2 Cu2 1_555 1_555
I3 Cu3 1_555 1_555
Cu1 S1 1_555 1_555
Cu2 I1 1_555 1_555
Cu3 S3 1_555 1_555
S1 C1 1_555 1_555
S2 Cu2 1_555 1_555
S3 Cu1 1_555 1_555
N1 H1 1_555 1_555
N2 H2 1_555 1_555
N3 H3 1_555 1_555
N4 H4 1_555 1_555
N5 H5 1_555 1_555
N6 H6 1_555 1_555
C1 N1 1_555 1_555
C2 N1 1_555 1_555
H7 C2 1_555 1_555
H8 C2 1_555 1_555
C3 N2 1_555 1_555
H9 C3 1_555 1_555
H10 C3 1_555 1_555
C4 S2 1_555 1_555
C5 N3 1_555 1_555
H11 C5 1_555 1_555
H12 C5 1_555 1_555
C6 N4 1_555 1_555
H13 C6 1_555 1_555
H14 C6 1_555 1_555
C7 S3 1_555 1_555
C8 N5 1_555 1_555
H15 C8 1_555 1_555
H16 C8 1_555 1_555
C9 N6 1_555 1_555
H17 C9 1_555 1_555
H18 C9 1_555 1_555
I3A Cu3 1_555 1_555
Cu1A S1 1_555 1_555
Cu2A S1 1_555 1_555
Cu3A I3 1_555 1_555
Cu3A_2 S2 1_555 1_555
S1A Cu1 1_555 1_555
S2A Cu3 1_555 1_555
Cu2 S1A 1_555 1_555
N2 C1 1_555 1_555
N3 C4 1_555 1_555
N4 C4 1_555 1_555
N5 C7 1_555 1_555
N6 C7 1_555 1_555
C2 C3 1_555 1_555
C5 C6 1_555 1_555
C8 C9 1_555 1_555
I3A Cu3A 1_555 1_555
Cu1A S1A 1_555 1_555
Cu2A S2A 1_555 1_555

#END
