
#######################################################################
#
#                 Cambridge Crystallographic Data Centre
#                                CCDC 
#
#######################################################################
#
# If this CIF has been generated from an entry in the Cambridge 
# Structural Database, then it will include bibliographic, chemical, 
# crystal, experimental, refinement or atomic coordinate data resulting 
# from the CCDC's data processing and validation procedures.
#
#######################################################################

data_PALZAE01
_symmetry_cell_setting           triclinic
_symmetry_space_group_name_H-M   'P -1'
_symmetry_Int_Tables_number      2
_space_group_name_Hall           '-P 1'
loop_
_symmetry_equiv_pos_site_id
_symmetry_equiv_pos_as_xyz
1 x,y,z
2 -x,-y,-z
_cell_length_a                   7.6246(6)
_cell_length_b                   11.9848(10)
_cell_length_c                   12.2452(7)
_cell_angle_alpha                68.202(5)
_cell_angle_beta                 74.607(6)
_cell_angle_gamma                87.652(7)
_cell_volume                     999.606
loop_
_atom_site_label
_atom_site_type_symbol
_atom_site_fract_x
_atom_site_fract_y
_atom_site_fract_z
Br1 Br 0.67197(6) -0.14168(4) 1.24485(4)
Br2 Br 0.17266(6) -0.19931(4) 1.46529(4)
Br3 Br 0.73311(5) 0.49720(4) 1.02692(4)
Cu1 Cu 0.55473(8) 0.01336(5) 1.09294(5)
Cu2 Cu 0.35327(7) -0.20812(5) 1.26997(5)
Cu3 Cu 0.55208(7) 0.38304(5) 0.95612(5)
S1 S 0.74955(14) 0.08254(9) 0.89691(9)
S2 S 0.33598(14) -0.38996(10) 1.24002(9)
S3 S 0.47027(15) 0.19446(9) 1.10236(9)
N1 N 0.9231(5) -0.1225(3) 0.9592(3)
H1 H 0.8930 -0.1319 1.0368
N2 N 0.9549(5) -0.0354(3) 0.7633(3)
H2 H 0.9371 0.0157 0.6944
N3 N -0.0123(5) -0.3945(3) 1.3686(3)
H3 H 0.0188 -0.3511 1.4057
N4 N 0.0157(5) -0.4821(4) 1.2398(4)
H4 H 0.0700 -0.5146 1.1869
N5 N 0.4085(6) 0.2900(4) 1.2747(3)
H5 H 0.4238 0.3641 1.2202
N6 N 0.3883(5) 0.0965(3) 1.3474(3)
H6 H 0.3993 0.0229 1.3482
C1 C 0.8801(5) -0.0314(4) 0.8728(4)
C2 C 1.0272(6) -0.2066(4) 0.9104(4)
H7 H 0.9533 -0.2822 0.9348
H8 H 1.1393 -0.2257 0.9382
C3 C 1.0721(7) -0.1375(4) 0.7738(4)
H9 H 1.2026 -0.1095 0.7395
H10 H 1.0422 -0.1874 0.7316
C4 C 0.1029(6) -0.4222(4) 1.2826(4)
C5 C -0.1985(6) -0.4444(4) 1.3956(4)
H11 H -0.2337 -0.5118 1.4759
H12 H -0.2879 -0.3820 1.3940
C6 C -0.1822(6) -0.4882(5) 1.2906(4)
H13 H -0.2419 -0.4347 1.2294
H14 H -0.2359 -0.5716 1.3211
C7 C 0.4209(5) 0.1938(4) 1.2465(4)
C8 C 0.3667(7) 0.2609(5) 1.4060(4)
H15 H 0.2573 0.3005 1.4348
H16 H 0.4706 0.2849 1.4284
C9 C 0.3319(7) 0.1244(4) 1.4575(4)
H17 H 0.4064 0.0845 1.5146
H18 H 0.2016 0.1001 1.5000
Br3A Br 0.26689(5) 0.50280(4) 0.97308(4)
Cu1A Cu 0.44527(8) -0.01336(5) 0.90706(5)
Cu2A Cu 0.64673(7) 0.20812(5) 0.73003(5)
Cu3A Cu 0.44792(7) 0.61696(5) 1.04388(5)
Cu3A_2 Cu 0.44792(7) -0.38304(5) 1.04388(5)
S1A S 0.25045(14) -0.08254(9) 1.10309(9)
S2A S 0.66402(14) 0.38996(10) 0.75998(9)
loop_
_geom_bond_atom_site_label_1
_geom_bond_atom_site_label_2
_geom_bond_site_symmetry_1
_geom_bond_site_symmetry_2
Br1 Cu1 1_555 1_555
Br2 Cu2 1_555 1_555
Br3 Cu3 1_555 1_555
Cu1 S1 1_555 1_555
Cu2 Br1 1_555 1_555
Cu3 S3 1_555 1_555
S1 C1 1_555 1_555
S2 Cu2 1_555 1_555
S3 Cu1 1_555 1_555
N1 H1 1_555 1_555
N2 H2 1_555 1_555
N3 H3 1_555 1_555
N4 H4 1_555 1_555
N5 H5 1_555 1_555
N6 H6 1_555 1_555
C1 N1 1_555 1_555
C2 N1 1_555 1_555
H7 C2 1_555 1_555
H8 C2 1_555 1_555
C3 N2 1_555 1_555
H9 C3 1_555 1_555
H10 C3 1_555 1_555
C4 S2 1_555 1_555
C5 N3 1_555 1_555
H11 C5 1_555 1_555
H12 C5 1_555 1_555
C6 N4 1_555 1_555
H13 C6 1_555 1_555
H14 C6 1_555 1_555
C7 S3 1_555 1_555
C8 N5 1_555 1_555
H15 C8 1_555 1_555
H16 C8 1_555 1_555
C9 N6 1_555 1_555
H17 C9 1_555 1_555
H18 C9 1_555 1_555
Br3A Cu3 1_555 1_555
Cu1A S1 1_555 1_555
Cu2A S1 1_555 1_555
Cu3A Br3 1_555 1_555
Cu3A_2 S2 1_555 1_555
S1A Cu1 1_555 1_555
S2A Cu3 1_555 1_555
Cu2 S1A 1_555 1_555
N2 C1 1_555 1_555
N3 C4 1_555 1_555
N4 C4 1_555 1_555
N5 C7 1_555 1_555
N6 C7 1_555 1_555
C2 C3 1_555 1_555
C5 C6 1_555 1_555
C8 C9 1_555 1_555
Br3A Cu3A 1_555 1_555
Cu1A S1A 1_555 1_555
Cu2A S2A 1_555 1_555

#END
