
#######################################################################
#
#                 Cambridge Crystallographic Data Centre
#                                CCDC 
#
#######################################################################
#
# If this CIF has been generated from an entry in the Cambridge 
# Structural Database, then it will include bibliographic, chemical, 
# crystal, experimental, refinement or atomic coordinate data resulting 
# from the CCDC's data processing and validation procedures.
#
#######################################################################

data_PALZAE
_symmetry_cell_setting           triclinic
_symmetry_space_group_name_H-M   'P -1'
_symmetry_Int_Tables_number      2
_space_group_name_Hall           '-P 1'
loop_
_symmetry_equiv_pos_site_id
_symmetry_equiv_pos_as_xyz
1 x,y,z
2 -x,-y,-z
_cell_length_a                   7.5950(19)
_cell_length_b                   11.968(3)
_cell_length_c                   12.225(3)
_cell_angle_alpha                68.016(4)
_cell_angle_beta                 74.724(4)
_cell_angle_gamma                87.670(4)
_cell_volume                     991.921
loop_
_atom_site_label
_atom_site_type_symbol
_atom_site_fract_x
_atom_site_fract_y
_atom_site_fract_z
Cu1 Cu -0.05155(5) 0.11654(3) -0.45584(3)
Cu2 Cu -0.05368(5) 0.48757(3) -0.59344(3)
Cu3 Cu -0.14592(5) 0.29090(3) -0.22973(3)
Br1 Br 0.23288(4) -0.00378(3) -0.47221(3)
Br2 Br 0.17432(4) 0.35678(3) -0.25444(3)
Br3 Br -0.32706(4) 0.29911(3) -0.03383(3)
S1 S 0.03029(9) 0.30582(6) -0.60243(6)
N1 N 0.0957(5) 0.2106(3) -0.7755(3)
H1 H 0.070(5) 0.139(4) -0.728(4)
N2 N 0.1104(4) 0.4060(2) -0.8486(2)
H2 H 0.133(5) 0.474(3) -0.855(3)
C1 C 0.0798(4) 0.3072(2) -0.7469(3)
C2 C 0.1345(5) 0.2407(3) -0.9070(3)
H3 H 0.0285 0.2179 -0.9288
H4 H 0.2429 0.2008 -0.9370
C3 C 0.1715(5) 0.3779(3) -0.9580(3)
H5 H 0.3031 0.4013 -0.9979
H6 H 0.1004 0.4189 -1.0176
S2 S -0.24925(9) 0.41695(6) -0.39705(6)
N3 N -0.4243(3) 0.6224(2) -0.4590(2)
H7 H -0.378(5) 0.632(3) -0.5333(11)
N4 N -0.4541(3) 0.5354(2) -0.2634(2)
H8 H -0.439(5) 0.481(3) -0.199(2)
C4 C -0.3808(4) 0.5308(2) -0.3725(3)
C5 C -0.5277(4) 0.7078(3) -0.4111(3)
H9 H -0.6396 0.7281 -0.4396
H10 H -0.4523 0.7830 -0.4350
C6 C -0.5742(4) 0.6364(3) -0.2726(3)
H11 H -0.5461 0.6858 -0.2292
H12 H -0.7047 0.6071 -0.2390
S3 S -0.16377(9) 0.10899(6) -0.25975(6)
N5 N -0.5131(3) 0.1049(3) -0.1313(2)
H13 H -0.483(4) 0.145(3) -0.100(3)
N6 N -0.4843(4) 0.0165(3) -0.2602(3)
H14 H -0.434(5) 0.003(3) -0.325(4)
C7 C -0.3975(4) 0.0768(2) -0.2166(3)
C8 C -0.6995(4) 0.0543(3) -0.1045(3)
H15 H -0.7901 0.1163 -0.1049
H16 H -0.7339 -0.0144 -0.0247
C9 C -0.6831(4) 0.0129(3) -0.2112(3)
H17 H -0.7396 -0.0698 -0.1821
H18 H -0.7404 0.0687 -0.2731
Cu1A Cu 0.05155(5) -0.11654(3) -0.54416(3)
Cu2A Cu 0.05368(5) 0.51243(3) -0.40656(3)
Cu3A Cu 0.14592(5) 0.70910(3) -0.77027(3)
Br1A Br -0.23288(4) 0.00378(3) -0.52779(3)
Br2A Br -0.17432(4) 0.64322(3) -0.74556(3)
S2A S 0.24925(9) 0.58305(6) -0.60295(6)
loop_
_geom_bond_atom_site_label_1
_geom_bond_atom_site_label_2
_geom_bond_site_symmetry_1
_geom_bond_site_symmetry_2
Cu1 Br1 1_555 1_555
Cu2 S1 1_555 1_555
Cu3 Br2 1_555 1_555
Br1 Cu1A 1_555 1_555
Br2 Cu2A 1_555 1_555
Br3 Cu3 1_555 1_555
S1 Cu1 1_555 1_555
N1 H1 1_555 1_555
N2 H2 1_555 1_555
C1 S1 1_555 1_555
C2 N1 1_555 1_555
H3 C2 1_555 1_555
H4 C2 1_555 1_555
C3 N2 1_555 1_555
H5 C3 1_555 1_555
H6 C3 1_555 1_555
S2 Cu2 1_555 1_555
N3 H7 1_555 1_555
N4 H8 1_555 1_555
C4 S2 1_555 1_555
C5 N3 1_555 1_555
H9 C5 1_555 1_555
H10 C5 1_555 1_555
C6 N4 1_555 1_555
H11 C6 1_555 1_555
H12 C6 1_555 1_555
S3 Cu1 1_555 1_555
N5 H13 1_555 1_555
N6 H14 1_555 1_555
C7 S3 1_555 1_555
C8 N5 1_555 1_555
H15 C8 1_555 1_555
H16 C8 1_555 1_555
C9 N6 1_555 1_555
H17 C9 1_555 1_555
H18 C9 1_555 1_555
Cu1A Br1A 1_555 1_555
Cu2A S2 1_555 1_555
Cu3A Br2A 1_555 1_555
Br1A Cu1 1_555 1_555
Br2A Cu2 1_555 1_555
S2A Cu2 1_555 1_555
Cu3 S2 1_555 1_555
Cu3 S3 1_555 1_555
N1 C1 1_555 1_555
N2 C1 1_555 1_555
C2 C3 1_555 1_555
N3 C4 1_555 1_555
N4 C4 1_555 1_555
C5 C6 1_555 1_555
N5 C7 1_555 1_555
N6 C7 1_555 1_555
C8 C9 1_555 1_555
Cu2A S2A 1_555 1_555
Cu3A S2A 1_555 1_555

#END
