
#######################################################################
#
#                 Cambridge Crystallographic Data Centre
#                                CCDC 
#
#######################################################################
#
# If this CIF has been generated from an entry in the Cambridge 
# Structural Database, then it will include bibliographic, chemical, 
# crystal, experimental, refinement or atomic coordinate data resulting 
# from the CCDC's data processing and validation procedures.
#
#######################################################################

data_PALZIN
_symmetry_cell_setting           monoclinic
_symmetry_space_group_name_H-M   'P 21/c'
_symmetry_Int_Tables_number      14
_space_group_name_Hall           '-P 2ybc'
loop_
_symmetry_equiv_pos_site_id
_symmetry_equiv_pos_as_xyz
1 x,y,z
2 -x,1/2+y,1/2-z
3 -x,-y,-z
4 x,1/2-y,1/2+z
_cell_length_a                   20.1433(18)
_cell_length_b                   18.5739(16)
_cell_length_c                   18.3522(16)
_cell_angle_alpha                90
_cell_angle_beta                 100.5100(10)
_cell_angle_gamma                90
_cell_volume                     6751.09
loop_
_atom_site_label
_atom_site_type_symbol
_atom_site_fract_x
_atom_site_fract_y
_atom_site_fract_z
Zn1 Zn 0.388096(15) 0.744828(15) 0.401237(17)
Zn2 Zn 0.155905(15) 0.245190(15) 0.146084(16)
O1 O 0.25576(11) 0.67777(13) 0.34963(16)
O2 O 0.36332(10) 0.65571(10) 0.34723(12)
O3 O 0.17406(10) 0.33991(10) 0.19160(11)
O4 O 0.27574(10) 0.33071(11) 0.16160(12)
O5 O 0.34524(11) 0.82457(11) 0.34439(12)
O6 O 0.40011(14) 0.90455(13) 0.42275(14)
O7 O 0.20952(10) 1.17291(10) 0.20734(11)
O8 O 0.15025(12) 1.08843(12) 0.13951(14)
O9 O 0.53916(12) 0.70436(15) 0.68290(13)
O10 O 0.63106(11) 0.78122(14) 0.60632(13)
O11 O -0.06587(14) 0.10087(16) 0.00351(16)
O12 O 0.01819(16) 0.11308(16) -0.10881(16)
N1 N 0.37607(12) 0.73730(13) 0.50760(13)
N2 N 0.39594(14) 0.70062(17) 0.62478(14)
N3 N 0.59578(12) 0.78121(14) 0.45016(14)
N4 N 0.49013(11) 0.74385(12) 0.41398(13)
N5 N 0.05446(11) 0.23765(12) 0.14827(13)
N6 N -0.04764(12) 0.18787(14) 0.13276(15)
N7 N 0.13358(14) 0.20411(19) -0.07967(14)
N8 N 0.15527(12) 0.24414(13) 0.03600(13)
C1 C 0.32303(15) 0.76010(17) 0.54105(17)
C2 C 0.33537(16) 0.73806(19) 0.61503(18)
C3 C 0.2919(2) 0.7551(2) 0.6638(2)
H1 H 0.3004 0.7407 0.7131
C4 C 0.2362(2) 0.7946(3) 0.6342(3)
H2 H 0.2058 0.8074 0.6646
C5 C 0.2231(2) 0.8162(3) 0.5604(3)
H3 H 0.1844 0.8430 0.5430
C6 C 0.26595(17) 0.7991(2) 0.5120(2)
H4 H 0.2568 0.8131 0.4625
C7 C 0.41780(16) 0.70309(18) 0.55994(17)
H5 H 0.4583 0.6827 0.5527
C8 C 0.4308(2) 0.6634(2) 0.6926(2)
H6 H 0.3994 0.6571 0.7264
H7 H 0.4451 0.6161 0.6794
C9 C 0.4894(2) 0.7037(2) 0.72975(19)
H8 H 0.4764 0.7525 0.7393
H9 H 0.5078 0.6812 0.7768
C10 C 0.59751(18) 0.7418(2) 0.7173(2)
H10 H 0.6146 0.7206 0.7654
H11 H 0.5861 0.7916 0.7250
C11 C 0.65039(17) 0.73862(19) 0.6707(2)
H12 H 0.6928 0.7561 0.6987
H13 H 0.6568 0.6891 0.6565
C12 C 0.68179(16) 0.7853(2) 0.5623(2)
H14 H 0.6967 0.7373 0.5521
H15 H 0.7203 0.8119 0.5883
C13 C 0.65272(16) 0.8225(2) 0.4915(2)
H16 H 0.6374 0.8702 0.5022
H17 H 0.6873 0.8279 0.4614
C14 C 0.60001(14) 0.71539(17) 0.41591(16)
C15 C 0.53366(14) 0.69191(15) 0.39326(15)
C16 C 0.51965(16) 0.62737(16) 0.35544(17)
H18 H 0.4755 0.6115 0.3399
C17 C 0.57436(18) 0.58757(19) 0.3419(2)
H19 H 0.5669 0.5442 0.3163
C18 C 0.64051(18) 0.6115(2) 0.3661(2)
H20 H 0.6760 0.5827 0.3575
C19 C 0.65499(16) 0.6756(2) 0.40191(19)
H21 H 0.6991 0.6918 0.4162
C20 C 0.53018(14) 0.79476(16) 0.44777(17)
H22 H 0.5143 0.8359 0.4679
C21 C 0.00703(14) 0.29174(16) 0.15347(15)
C22 C -0.05696(15) 0.26061(16) 0.14365(17)
C23 C -0.11505(16) 0.3008(2) 0.1466(2)
H23 H -0.1575 0.2796 0.1410
C24 C -0.10595(19) 0.3732(2) 0.1584(3)
H24 H -0.1434 0.4018 0.1607
C25 C -0.04223(19) 0.4055(2) 0.1670(2)
H25 H -0.0385 0.4550 0.1741
C26 C 0.01496(16) 0.36555(17) 0.16515(19)
H26 H 0.0573 0.3870 0.1715
C27 C 0.01898(14) 0.17801(16) 0.13599(17)
H27 H 0.0381 0.1333 0.1301
C28 C -0.10011(17) 0.1333(2) 0.1153(2)
H28 H -0.1386 0.1470 0.1373
H29 H -0.0831 0.0878 0.1371
C29 C -0.12253(19) 0.1238(2) 0.0340(3)
H30 H -0.1582 0.0881 0.0244
H31 H -0.1399 0.1689 0.0116
C30 C -0.0838(2) 0.0789(3) -0.0699(3)
H32 H -0.1057 0.1185 -0.0994
H33 H -0.1161 0.0397 -0.0729
C31 C -0.0258(3) 0.0553(3) -0.1006(3)
H34 H -0.0012 0.0192 -0.0682
H35 H -0.0414 0.0332 -0.1485
C32 C 0.0779(3) 0.0919(3) -0.1297(3)
H36 H 0.0677 0.0634 -0.1746
H37 H 0.1033 0.0619 -0.0911
C33 C 0.1191(2) 0.1535(3) -0.1426(2)
H38 H 0.0961 0.1794 -0.1858
H39 H 0.1616 0.1360 -0.1537
C34 C 0.13678(15) 0.2782(2) -0.08458(17)
C35 C 0.15063(14) 0.30315(18) -0.01205(16)
C36 C 0.15667(18) 0.3763(2) 0.0020(2)
H40 H 0.1659 0.3938 0.0503
C37 C 0.1485(2) 0.4223(2) -0.0582(3)
H41 H 0.1523 0.4717 -0.0503
C38 C 0.1348(2) 0.3961(3) -0.1300(3)
H42 H 0.1296 0.4286 -0.1691
C39 C 0.12863(18) 0.3249(3) -0.1453(2)
H43 H 0.1195 0.3079 -0.1938
C40 C 0.14454(16) 0.18687(19) -0.00697(17)
H44 H 0.1445 0.1400 0.0108
C41 C 0.30015(15) 0.63959(15) 0.33321(16)
C42 C 0.28353(14) 0.56861(15) 0.29430(16)
C43 C 0.21673(15) 0.54875(16) 0.27014(18)
H45 H 0.1824 0.5804 0.2762
C44 C 0.20061(14) 0.48273(16) 0.23729(18)
H46 H 0.1555 0.4702 0.2220
C45 C 0.25082(13) 0.43490(14) 0.22680(15)
C46 C 0.31769(14) 0.45511(16) 0.24984(18)
H47 H 0.3521 0.4239 0.2428
C47 C 0.33356(15) 0.52093(16) 0.28297(18)
H48 H 0.3786 0.5336 0.2980
C48 C 0.23413(14) 0.36327(15) 0.19049(15)
C49 C 0.31587(14) 0.94607(15) 0.32280(16)
C50 C 0.32918(18) 1.01835(17) 0.33582(18)
H49 H 0.3645 1.0322 0.3732
C51 C 0.29066(17) 1.07030(16) 0.29385(18)
H50 H 0.3006 1.1187 0.3032
C52 C 0.23730(14) 1.05145(15) 0.23802(15)
C53 C 0.22433(16) 0.97945(17) 0.2254(2)
H51 H 0.1887 0.9655 0.1884
C54 C 0.26321(16) 0.92731(16) 0.2668(2)
H52 H 0.2538 0.8789 0.2568
C55 C 0.35800(16) 0.88906(16) 0.36802(17)
C56 C 0.19521(14) 1.10709(15) 0.19092(16)
Zn2_2 Zn 0.155905(15) 1.245190(15) 0.146084(16)
O7_2 O 0.20952(10) 0.17291(10) 0.20734(11)
C57 C 0.5494(4) 0.3985(3) 0.8613(5)
H53 H 0.5071 0.4024 0.8276
H54 H 0.5419 0.3793 0.9076
H55 H 0.5789 0.3670 0.8406
C58 C 0.6481(3) 0.4711(3) 0.9166(4)
H56 H 0.6473 0.4590 0.9673
H57 H 0.6652 0.5191 0.9141
H58 H 0.6768 0.4379 0.8969
C59 C 0.5477(3) 0.5302(4) 0.8448(3)
H59 H 0.5626 0.5735 0.8675
N9 N 0.5791(3) 0.4669(2) 0.8730(3)
O13 O 0.5043(3) 0.5315(3) 0.7953(4)
C60 C 0.6894(3) 0.4499(3) 0.4719(4)
H60 H 0.7322 0.4642 0.4607
H61 H 0.6573 0.4445 0.4266
H62 H 0.6943 0.4049 0.4981
C61 C 0.5988(3) 0.4999(4) 0.5242(4)
H63 H 0.5928 0.4600 0.5555
H64 H 0.5716 0.4930 0.4760
H65 H 0.5855 0.5436 0.5455
C62 C 0.7085(3) 0.5545(3) 0.5495(3)
H66 H 0.6931 0.5885 0.5796
N10 N 0.6657(2) 0.5046(2) 0.5178(2)
O14 O 0.7653(3) 0.5581(4) 0.5414(3)
C63 C 0.9658(3) 0.2924(4) 0.9391(4)
H67 H 0.9680 0.2514 0.9078
H68 H 0.9285 0.2870 0.9645
H69 H 1.0070 0.2960 0.9746
C64 C 0.9557(4) 0.4219(4) 0.9394(4)
H70 H 0.9600 0.4631 0.9090
H71 H 0.9925 0.4212 0.9808
H72 H 0.9137 0.4247 0.9570
C65 C 0.9577(4) 0.3590(4) 0.8248(4)
H73 H 0.9609 0.3173 0.7975
N11 N 0.95692(19) 0.3556(3) 0.8954(3)
O15 O 0.9539(2) 0.4217(3) 0.7933(3)
O16 O 0.4706(4) 0.0373(4) 0.4906(5)
loop_
_geom_bond_atom_site_label_1
_geom_bond_atom_site_label_2
_geom_bond_site_symmetry_1
_geom_bond_site_symmetry_2
Zn1 O2 1_555 1_555
Zn2 O3 1_555 1_555
O1 C41 1_555 1_555
O2 C41 1_555 1_555
O3 C48 1_555 1_555
O4 C48 1_555 1_555
O5 Zn1 1_555 1_555
O6 C55 1_555 1_555
O7 C56 1_555 1_555
O8 C56 1_555 1_555
O9 C9 1_555 1_555
O10 C11 1_555 1_555
O11 C29 1_555 1_555
O12 C31 1_555 1_555
N1 Zn1 1_555 1_555
N2 C2 1_555 1_555
N3 C13 1_555 1_555
N4 Zn1 1_555 1_555
N5 Zn2 1_555 1_555
N6 C22 1_555 1_555
N7 C33 1_555 1_555
N8 Zn2 1_555 1_555
C1 N1 1_555 1_555
C2 C1 1_555 1_555
C3 C2 1_555 1_555
H1 C3 1_555 1_555
C4 C3 1_555 1_555
H2 C4 1_555 1_555
C5 C4 1_555 1_555
H3 C5 1_555 1_555
C6 C1 1_555 1_555
H4 C6 1_555 1_555
C7 N1 1_555 1_555
H5 C7 1_555 1_555
C8 N2 1_555 1_555
H6 C8 1_555 1_555
H7 C8 1_555 1_555
C9 C8 1_555 1_555
H8 C9 1_555 1_555
H9 C9 1_555 1_555
C10 O9 1_555 1_555
H10 C10 1_555 1_555
H11 C10 1_555 1_555
C11 C10 1_555 1_555
H12 C11 1_555 1_555
H13 C11 1_555 1_555
C12 O10 1_555 1_555
H14 C12 1_555 1_555
H15 C12 1_555 1_555
C13 C12 1_555 1_555
H16 C13 1_555 1_555
H17 C13 1_555 1_555
C14 N3 1_555 1_555
C15 N4 1_555 1_555
C16 C15 1_555 1_555
H18 C16 1_555 1_555
C17 C16 1_555 1_555
H19 C17 1_555 1_555
C18 C17 1_555 1_555
H20 C18 1_555 1_555
C19 C14 1_555 1_555
H21 C19 1_555 1_555
C20 N3 1_555 1_555
H22 C20 1_555 1_555
C21 N5 1_555 1_555
C22 C21 1_555 1_555
C23 C22 1_555 1_555
H23 C23 1_555 1_555
C24 C23 1_555 1_555
H24 C24 1_555 1_555
C25 C24 1_555 1_555
H25 C25 1_555 1_555
C26 C21 1_555 1_555
H26 C26 1_555 1_555
C27 N5 1_555 1_555
H27 C27 1_555 1_555
C28 N6 1_555 1_555
H28 C28 1_555 1_555
H29 C28 1_555 1_555
C29 C28 1_555 1_555
H30 C29 1_555 1_555
H31 C29 1_555 1_555
C30 O11 1_555 1_555
H32 C30 1_555 1_555
H33 C30 1_555 1_555
C31 C30 1_555 1_555
H34 C31 1_555 1_555
H35 C31 1_555 1_555
C32 O12 1_555 1_555
H36 C32 1_555 1_555
H37 C32 1_555 1_555
C33 C32 1_555 1_555
H38 C33 1_555 1_555
H39 C33 1_555 1_555
C34 N7 1_555 1_555
C35 N8 1_555 1_555
C36 C35 1_555 1_555
H40 C36 1_555 1_555
C37 C36 1_555 1_555
H41 C37 1_555 1_555
C38 C37 1_555 1_555
H42 C38 1_555 1_555
C39 C34 1_555 1_555
H43 C39 1_555 1_555
C40 N7 1_555 1_555
H44 C40 1_555 1_555
C41 C42 1_555 1_555
C42 C43 1_555 1_555
C43 H45 1_555 1_555
C44 C43 1_555 1_555
H46 C44 1_555 1_555
C45 C44 1_555 1_555
C46 C45 1_555 1_555
H47 C46 1_555 1_555
C47 C42 1_555 1_555
H48 C47 1_555 1_555
C48 C45 1_555 1_555
C49 C50 1_555 1_555
C50 H49 1_555 1_555
C51 C50 1_555 1_555
H50 C51 1_555 1_555
C52 C51 1_555 1_555
C53 C52 1_555 1_555
H51 C53 1_555 1_555
C54 C49 1_555 1_555
H52 C54 1_555 1_555
C55 O5 1_555 1_555
C56 C52 1_555 1_555
C57 H53 1_555 1_555
H54 C57 1_555 1_555
H55 C57 1_555 1_555
C58 H56 1_555 1_555
H57 C58 1_555 1_555
H58 C58 1_555 1_555
C59 H59 1_555 1_555
C60 H60 1_555 1_555
H61 C60 1_555 1_555
H62 C60 1_555 1_555
C61 H63 1_555 1_555
H64 C61 1_555 1_555
H65 C61 1_555 1_555
C62 H66 1_555 1_555
C63 H67 1_555 1_555
H68 C63 1_555 1_555
H69 C63 1_555 1_555
C64 H70 1_555 1_555
H71 C64 1_555 1_555
H72 C64 1_555 1_555
C65 H73 1_555 1_555
N9 C57 1_555 1_555
N10 C60 1_555 1_555
N11 C63 1_555 1_555
O13 C59 1_555 1_555
O14 C62 1_555 1_555
O15 C65 1_555 1_555
Zn2_2 O7 1_555 1_555
O7_2 Zn2 1_555 1_555
N2 C7 1_555 1_555
N4 C20 1_555 1_555
N6 C27 1_555 1_555
N8 C40 1_555 1_555
C5 C6 1_555 1_555
C14 C15 1_555 1_555
C18 C19 1_555 1_555
C25 C26 1_555 1_555
C34 C35 1_555 1_555
C38 C39 1_555 1_555
C46 C47 1_555 1_555
C49 C55 1_555 1_555
C53 C54 1_555 1_555
C58 N9 1_555 1_555
C59 N9 1_555 1_555
C61 N10 1_555 1_555
C62 N10 1_555 1_555
C64 N11 1_555 1_555
C65 N11 1_555 1_555

#END
