
#######################################################################
#
#                 Cambridge Crystallographic Data Centre
#                                CCDC 
#
#######################################################################
#
# If this CIF has been generated from an entry in the Cambridge 
# Structural Database, then it will include bibliographic, chemical, 
# crystal, experimental, refinement or atomic coordinate data resulting 
# from the CCDC's data processing and validation procedures.
#
#######################################################################

data_PALZAF
_symmetry_cell_setting           monoclinic
_symmetry_space_group_name_H-M   'C 2/c'
_symmetry_Int_Tables_number      15
_space_group_name_Hall           '-C 2yn'
loop_
_symmetry_equiv_pos_site_id
_symmetry_equiv_pos_as_xyz
1 x,y,z
2 -x,y,1/2-z
3 1/2+x,1/2+y,z
4 1/2-x,1/2+y,1/2-z
5 -x,-y,-z
6 x,-y,1/2+z
7 1/2-x,1/2-y,-z
8 1/2+x,1/2-y,1/2+z
_cell_length_a                   25.8402(13)
_cell_length_b                   11.6244(6)
_cell_length_c                   18.1993(16)
_cell_angle_alpha                90
_cell_angle_beta                 133.5140(10)
_cell_angle_gamma                90
_cell_volume                     3964.45
loop_
_atom_site_label
_atom_site_type_symbol
_atom_site_fract_x
_atom_site_fract_y
_atom_site_fract_z
Zn1 Zn 0.5000 0.56610(3) 0.7500
N1 N 0.58129(9) 0.66806(15) 0.79996(13)
N2 N 0.63929(10) 0.80871(15) 0.80064(14)
N3 N 0.51658(10) 0.68289(15) 0.42885(13)
N4 N 0.51944(9) 0.53480(15) 0.35495(13)
O1 O 0.57789(10) 0.87119(15) 0.60588(13)
C1 C 0.65183(11) 0.63333(19) 0.85830(15)
C2 C 0.68799(12) 0.7217(2) 0.85788(16)
C3 C 0.75959(14) 0.7122(3) 0.9083(2)
H1 H 0.7836 0.7709 0.9074
C4 C 0.79249(15) 0.6118(3) 0.9590(2)
H2 H 0.8404 0.6024 0.9941
C5 C 0.75698(15) 0.5228(3) 0.9603(2)
H3 H 0.7818 0.4557 0.9957
C6 C 0.68626(13) 0.5315(2) 0.91057(17)
H4 H 0.6627 0.4723 0.9119
C7 C 0.57722(12) 0.77243(18) 0.76760(16)
H5 H 0.5356 0.8160 0.7262
C8 C 0.65131(16) 0.9215(2) 0.7776(2)
H6 H 0.6982 0.9496 0.8370
H7 H 0.6162 0.9758 0.7615
C9 C 0.64598(16) 0.9144(2) 0.6898(2)
H8 H 0.6524 0.9901 0.6746
H9 H 0.6827 0.8638 0.7065
C10 C 0.56190(16) 0.8747(2) 0.51399(19)
H10 H 0.6025 0.8477 0.5255
H11 H 0.5514 0.9530 0.4889
C11 C 0.49811(14) 0.7987(2) 0.43749(19)
H12 H 0.4710 0.7914 0.4562
H13 H 0.4676 0.8358 0.3717
C12 C 0.55837(11) 0.59965(18) 0.50347(15)
C13 C 0.55956(11) 0.50668(18) 0.45621(14)
C14 C 0.59555(13) 0.4062(2) 0.50889(17)
H14 H 0.5961 0.3438 0.4775
C15 C 0.63055(14) 0.4023(2) 0.60973(18)
H15 H 0.6555 0.3363 0.6473
C16 C 0.62909(13) 0.4961(2) 0.65613(17)
H16 H 0.6533 0.4907 0.7243
C17 C 0.59315(13) 0.5962(2) 0.60490(17)
H17 H 0.5922 0.6580 0.6364
C18 C 0.49528(12) 0.63948(18) 0.34354(16)
H18 H 0.4663 0.6792 0.2824
Zn1D Zn 0.5000 0.43390(3) 0.2500
N1D N 0.41871(9) 0.33194(15) 0.20004(13)
N1A N 0.41871(9) 0.66806(15) 0.70004(13)
N2D N 0.36071(10) 0.19129(15) 0.19936(14)
N3D N 0.48342(10) 0.31711(15) 0.57115(13)
N4D N 0.48056(9) 0.46520(15) 0.64505(13)
N4E N 0.51944(9) 0.46520(15) 0.85495(13)
O1D O 0.42211(10) 0.12881(15) 0.39412(13)
C1D C 0.34817(11) 0.36667(19) 0.14170(15)
C2D C 0.31201(12) 0.2783(2) 0.14212(16)
C3D C 0.24041(14) 0.2878(3) 0.0917(2)
H1D H 0.2164 0.2291 0.0926
C4D C 0.20751(15) 0.3882(3) 0.0410(2)
H2D H 0.1596 0.3976 0.0059
C5D C 0.24302(15) 0.4772(3) 0.0397(2)
H3D H 0.2182 0.5443 0.0043
C6D C 0.31374(13) 0.4685(2) 0.08943(17)
H4D H 0.3373 0.5277 0.0881
C7D C 0.42278(12) 0.22757(18) 0.23240(16)
H5D H 0.4644 0.1840 0.2738
C8D C 0.34869(16) 0.0785(2) 0.2224(2)
H6D H 0.3018 0.0504 0.1630
H7D H 0.3838 0.0242 0.2385
C9D C 0.35402(16) 0.0856(2) 0.3102(2)
H8D H 0.3476 0.0099 0.3254
H9D H 0.3173 0.1362 0.2935
C10D C 0.43810(16) 0.1253(2) 0.48601(19)
H10D H 0.3975 0.1523 0.4745
H11D H 0.4486 0.0470 0.5111
C11D C 0.50189(14) 0.2013(2) 0.56251(19)
H12D H 0.5290 0.2086 0.5438
H13D H 0.5324 0.1642 0.6283
C12D C 0.44163(11) 0.40035(18) 0.49653(15)
C13D C 0.44044(11) 0.49332(18) 0.54379(14)
C14D C 0.40445(13) 0.5938(2) 0.49111(17)
H14D H 0.4039 0.6562 0.5225
C15D C 0.36945(14) 0.5977(2) 0.39027(18)
H15D H 0.3445 0.6637 0.3527
C16D C 0.37091(13) 0.5039(2) 0.34387(17)
H16D H 0.3467 0.5093 0.2757
C17D C 0.40685(13) 0.4038(2) 0.39510(17)
H17D H 0.4078 0.3420 0.3636
C18D C 0.50472(12) 0.36052(18) 0.65646(16)
H18D H 0.5337 0.3208 0.7176
N6 N 0.7217(8) 0.1939(12) 0.8290(12)
O5 O 0.6649(8) 0.2234(18) 0.8020(13)
O6 O 0.7759(9) 0.181(2) 0.9195(11)
O7 O 0.7242(13) 0.177(2) 0.7644(15)
O11 O 0.6305(6) 0.2439(10) 0.8850(5)
N5? N 0.5062(8) 0.0367(4) 0.7595(14)
O2? O 0.5193(12) 0.1402(4) 0.7748(17)
O3? O 0.5379(7) -0.0296(11) 0.8330(13)
O4? O 0.4620(10) -0.0016(13) 0.6722(14)
N7? N 0.7248(6) 0.2074(7) 0.8489(7)
O8? O 0.6623(5) 0.1945(13) 0.7710(7)
O9? O 0.7430(5) 0.2074(10) 0.9309(6)
O10? O 0.7694(7) 0.2203(15) 0.8437(11)
O12? O 0.6427(10) 0.2455(17) 0.9314(12)
O13? O 0.7667(10) 0.2755(16) 0.8632(15)
O14? O 0.6846(9) 0.1876(16) 0.7787(12)
O15? O 0.7366(11) 0.209(2) 0.8389(17)
loop_
_geom_bond_atom_site_label_1
_geom_bond_atom_site_label_2
_geom_bond_site_symmetry_1
_geom_bond_site_symmetry_2
Zn1 N1 1_555 1_555
N1 C1 1_555 1_555
N2 C2 1_555 1_555
N3 C11 1_555 1_555
N4 C13 1_555 1_555
O1 C9 1_555 1_555
C1 C2 1_555 1_555
C2 C3 1_555 1_555
C3 H1 1_555 1_555
C4 C3 1_555 1_555
H2 C4 1_555 1_555
C5 C4 1_555 1_555
H3 C5 1_555 1_555
C6 C1 1_555 1_555
H4 C6 1_555 1_555
C7 N1 1_555 1_555
H5 C7 1_555 1_555
C8 N2 1_555 1_555
H6 C8 1_555 1_555
H7 C8 1_555 1_555
C9 C8 1_555 1_555
H8 C9 1_555 1_555
H9 C9 1_555 1_555
C10 O1 1_555 1_555
H10 C10 1_555 1_555
H11 C10 1_555 1_555
C11 C10 1_555 1_555
H12 C11 1_555 1_555
H13 C11 1_555 1_555
C12 N3 1_555 1_555
C13 C12 1_555 1_555
C14 C13 1_555 1_555
H14 C14 1_555 1_555
C15 C14 1_555 1_555
H15 C15 1_555 1_555
C16 C15 1_555 1_555
H16 C16 1_555 1_555
C17 C12 1_555 1_555
H17 C17 1_555 1_555
C18 N3 1_555 1_555
H18 C18 1_555 1_555
N6 O5 1_555 1_555
O6 N6 1_555 1_555
O7 N6 1_555 1_555
Zn1D N4 1_555 1_555
N1D Zn1D 1_555 1_555
N1A Zn1 1_555 1_555
N2D C2D 1_555 1_555
N3D C11D 1_555 1_555
N4D Zn1 1_555 1_555
N4E Zn1 1_555 1_555
O1D C9D 1_555 1_555
C1D N1D 1_555 1_555
C2D C1D 1_555 1_555
C3D C2D 1_555 1_555
H1D C3D 1_555 1_555
C4D C3D 1_555 1_555
H2D C4D 1_555 1_555
C5D C4D 1_555 1_555
H3D C5D 1_555 1_555
C6D C1D 1_555 1_555
H4D C6D 1_555 1_555
C7D N1D 1_555 1_555
H5D C7D 1_555 1_555
C8D N2D 1_555 1_555
H6D C8D 1_555 1_555
H7D C8D 1_555 1_555
C9D C8D 1_555 1_555
H8D C9D 1_555 1_555
H9D C9D 1_555 1_555
C10D O1D 1_555 1_555
H10D C10D 1_555 1_555
H11D C10D 1_555 1_555
C11D C10D 1_555 1_555
H12D C11D 1_555 1_555
H13D C11D 1_555 1_555
C12D N3D 1_555 1_555
C13D N4D 1_555 1_555
C14D C13D 1_555 1_555
H14D C14D 1_555 1_555
C15D C14D 1_555 1_555
H15D C15D 1_555 1_555
C16D C15D 1_555 1_555
H16D C16D 1_555 1_555
C17D C12D 1_555 1_555
H17D C17D 1_555 1_555
C18D N3D 1_555 1_555
H18D C18D 1_555 1_555
N2 C7 1_555 1_555
N4 C18 1_555 1_555
C5 C6 1_555 1_555
C16 C17 1_555 1_555
N2D C7D 1_555 1_555
N4D C18D 1_555 1_555
C5D C6D 1_555 1_555
C12D C13D 1_555 1_555
C16D C17D 1_555 1_555

#END
