
#######################################################################
#
#                 Cambridge Crystallographic Data Centre
#                                CCDC 
#
#######################################################################
#
# If this CIF has been generated from an entry in the Cambridge 
# Structural Database, then it will include bibliographic, chemical, 
# crystal, experimental, refinement or atomic coordinate data resulting 
# from the CCDC's data processing and validation procedures.
#
#######################################################################

data_PAMBUB
_symmetry_cell_setting           triclinic
_symmetry_space_group_name_H-M   'P -1'
_symmetry_Int_Tables_number      2
_space_group_name_Hall           '-P 1'
loop_
_symmetry_equiv_pos_site_id
_symmetry_equiv_pos_as_xyz
1 x,y,z
2 -x,-y,-z
_cell_length_a                   8.629(3)
_cell_length_b                   10.915(3)
_cell_length_c                   11.178(3)
_cell_angle_alpha                100.978(4)
_cell_angle_beta                 102.133(4)
_cell_angle_gamma                105.652(4)
_cell_volume                     956.359
loop_
_atom_site_label
_atom_site_type_symbol
_atom_site_fract_x
_atom_site_fract_y
_atom_site_fract_z
Ag1 Ag 0.42509(6) 0.61395(4) 0.24244(4)
N1 N 0.3728(5) 0.8030(4) 0.2541(4)
N2 N 0.3432(5) 1.4293(3) 0.6389(3)
N3 N 0.3253(5) 1.5423(3) 0.6980(3)
H1 H 0.3597 1.5648 0.7795
C1 C 0.2030(5) 1.5905(4) 0.5122(4)
C2 C 0.1257(6) 1.6446(4) 0.4246(4)
H2 H 0.1002 1.7225 0.4423
C3 C 0.0930(6) 1.5610(5) 0.3051(4)
H3 H 0.0418 1.5748 0.2292
C4 C 0.1483(6) 1.4533(4) 0.3158(4)
H4 H 0.1399 1.3839 0.2493
C5 C 0.2180(5) 1.4689(4) 0.4438(4)
C6 C 0.2878(5) 1.3911(4) 0.5124(4)
C7 C 0.2992(5) 1.2632(4) 0.4545(4)
C8 C 0.3367(6) 1.2400(4) 0.3387(4)
H5 H 0.3522 1.3061 0.2966
C9 C 0.3509(6) 1.1206(4) 0.2862(4)
H6 H 0.3753 1.1065 0.2085
C10 C 0.3293(6) 1.0211(4) 0.3474(4)
C11 C 0.3523(6) 0.8998(5) 0.2951(4)
C12 C 0.2901(6) 1.0427(4) 0.4614(4)
H7 H 0.2742 0.9761 0.5030
C13 C 0.2744(6) 1.1619(4) 0.5141(4)
H8 H 0.2468 1.1747 0.5906
C14 C 0.2597(5) 1.6243(4) 0.6441(4)
C15 C 0.2569(6) 1.7380(4) 0.7316(4)
C16 C 0.2969(7) 1.7784(5) 0.8592(4)
H9 H 0.3325 1.7330 0.9160
C17 C 0.2746(9) 1.9018(5) 0.8897(6)
H10 H 0.2894 1.9530 0.9705
C18 C 0.2290(11) 1.9311(6) 0.7824(7)
H11 H 0.2090 2.0095 0.7757
C19 C 0.0957(7) 0.2396(5) -0.0617(5)
F1 F -0.0057(4) 0.2971(4) -0.0183(3)
F2 F 0.0272(4) 0.1904(4) -0.1854(3)
F3 F 0.0983(5) 0.1424(4) -0.0111(4)
O1 O 0.2146(6) 1.8318(4) 0.6816(3)
O2 O 0.3642(4) 0.3878(3) 0.1056(3)
O3 O 0.3835(5) 0.2820(4) -0.0981(3)
O4 O 0.2735(5) 0.4630(4) -0.0764(3)
S1 S 0.30211(15) 0.35525(11) -0.03000(10)
Ag1A Ag 0.57491(6) 1.38605(4) 0.75756(4)
Ag1A_2 Ag 0.57491(6) 0.38605(4) -0.24244(4)
N2A N 0.6568(5) 0.5707(3) 0.3611(3)
O3A O 0.6165(5) 0.7180(4) 0.0981(3)
loop_
_geom_bond_atom_site_label_1
_geom_bond_atom_site_label_2
_geom_bond_site_symmetry_1
_geom_bond_site_symmetry_2
Ag1 N1 1_555 1_555
N1 C11 1_555 1_555
N2 N3 1_555 1_555
N3 H1 1_555 1_555
C1 C2 1_555 1_555
C2 H2 1_555 1_555
C3 C2 1_555 1_555
H3 C3 1_555 1_555
C4 C3 1_555 1_555
H4 C4 1_555 1_555
C5 C1 1_555 1_555
C6 N2 1_555 1_555
C7 C6 1_555 1_555
C8 C7 1_555 1_555
H5 C8 1_555 1_555
C9 C8 1_555 1_555
H6 C9 1_555 1_555
C10 C9 1_555 1_555
C11 C10 1_555 1_555
C12 C10 1_555 1_555
H7 C12 1_555 1_555
C13 C7 1_555 1_555
H8 C13 1_555 1_555
C14 N3 1_555 1_555
C15 C14 1_555 1_555
C16 C15 1_555 1_555
H9 C16 1_555 1_555
C17 C16 1_555 1_555
H10 C17 1_555 1_555
C18 C17 1_555 1_555
H11 C18 1_555 1_555
C19 F1 1_555 1_555
F2 C19 1_555 1_555
F3 C19 1_555 1_555
O1 C15 1_555 1_555
O2 Ag1 1_555 1_555
O3 S1 1_555 1_555
O4 S1 1_555 1_555
S1 C19 1_555 1_555
Ag1A N2 1_555 1_555
Ag1A_2 O3 1_555 1_555
N2A Ag1 1_555 1_555
O3A Ag1 1_555 1_555
C1 C14 1_555 1_555
C4 C5 1_555 1_555
C5 C6 1_555 1_555
C12 C13 1_555 1_555
C18 O1 1_555 1_555
O2 S1 1_555 1_555

#END
