
#######################################################################
#
#                 Cambridge Crystallographic Data Centre
#                                CCDC 
#
#######################################################################
#
# If this CIF has been generated from an entry in the Cambridge 
# Structural Database, then it will include bibliographic, chemical, 
# crystal, experimental, refinement or atomic coordinate data resulting 
# from the CCDC's data processing and validation procedures.
#
#######################################################################

data_PAMCUB
_symmetry_cell_setting           monoclinic
_symmetry_space_group_name_H-M   'C 2/c'
_symmetry_Int_Tables_number      15
_space_group_name_Hall           '-C 2yn'
loop_
_symmetry_equiv_pos_site_id
_symmetry_equiv_pos_as_xyz
1 x,y,z
2 1/2+x,1/2+y,z
3 -x,y,1/2-z
4 1/2-x,1/2+y,1/2-z
5 -x,-y,-z
6 1/2-x,1/2-y,-z
7 x,-y,1/2+z
8 1/2+x,1/2-y,1/2+z
_cell_length_a                   21.668(10)
_cell_length_b                   10.741(8)
_cell_length_c                   12.797(5)
_cell_angle_alpha                90
_cell_angle_beta                 110.22(4)
_cell_angle_gamma                90
_cell_volume                     2794.78
loop_
_atom_site_label
_atom_site_type_symbol
_atom_site_fract_x
_atom_site_fract_y
_atom_site_fract_z
Ru1 Ru -0.0018(1) 0.0482(1) 0.0787(1)
Cl1 Cl 0.0000 0.1683(2) 0.2500
O1 O -0.0933(2) 0.1108(4) -0.0072(3)
O2 O 0.0898(2) -0.0161(4) 0.1610(3)
O3 O 0.0342(2) 0.2030(3) 0.0324(3)
O4 O -0.0397(2) -0.1084(3) 0.1198(3)
C1 C -0.1180(3) 0.0857(5) -0.1101(5)
C2 C -0.1831(3) 0.1407(6) -0.1763(6)
C3 C -0.2138(4) 0.2206(7) -0.1209(7)
C4 C -0.2702(4) 0.1724(9) -0.3529(7)
C5 C -0.3014(4) 0.2494(10) -0.2984(9)
C6 C -0.2751(4) 0.2745(8) -0.1866(8)
C7 C -0.2098(4) 0.1163(8) -0.2911(6)
C8 C 0.0465(3) 0.2051(5) -0.0587(4)
C9 C 0.0680(3) 0.3229(5) -0.0944(4)
C10 C 0.0879(3) 0.3219(6) -0.1867(5)
C11 C 0.1063(4) 0.4361(7) -0.2225(7)
C12 C 0.1009(4) 0.5474(7) -0.1696(7)
C13 C 0.0810(4) 0.5455(7) -0.0757(7)
C14 C 0.0651(3) 0.4315(5) -0.0376(6)
Ru1D Ru 0.0018(1) -0.0482(1) -0.0787(1)
Ru1B Ru 0.0018(1) 0.0482(1) 0.4213(1)
C1D C 0.1180(3) -0.0857(5) 0.1101(5)
C8D C -0.0465(3) -0.2051(5) 0.0587(4)
O2D O -0.0898(2) 0.0161(4) -0.1610(3)
O4D O 0.0397(2) 0.1084(3) -0.1198(3)
Cl1D Cl 0.0000 -0.1683(2) -0.2500
O1D O 0.0933(2) -0.1108(4) 0.0072(3)
O3D O -0.0342(2) -0.2030(3) -0.0324(3)
Ru1F Ru -0.0018(1) -0.0482(1) 0.5787(1)
O1B O 0.0933(2) 0.1108(4) 0.5072(3)
O2B O -0.0898(2) -0.0161(4) 0.3390(3)
O3B O -0.0342(2) 0.2030(3) 0.4676(3)
O4B O 0.0397(2) -0.1084(3) 0.3802(3)
C2D C 0.1831(3) -0.1407(6) 0.1763(6)
C9D C -0.0680(3) -0.3229(5) 0.0944(4)
Ru1F_2 Ru -0.0018(1) -0.0482(1) -0.4213(1)
Cl1D_2 Cl 0.0000 -0.1683(2) 0.7500
O1F O -0.0933(2) -0.1108(4) 0.4928(3)
O2F O 0.0898(2) 0.0161(4) 0.6610(3)
O3F O 0.0342(2) -0.2030(3) 0.5324(3)
O4F O -0.0397(2) 0.1084(3) 0.6198(3)
C1B C 0.1180(3) 0.0857(5) 0.6101(5)
C1F C -0.1180(3) -0.0857(5) 0.3899(5)
C8B C -0.0465(3) 0.2051(5) 0.5587(4)
C8F C 0.0465(3) -0.2051(5) 0.4413(4)
C3D C 0.2138(4) -0.2206(7) 0.1209(7)
C7D C 0.2098(4) -0.1163(8) 0.2911(6)
C10D C -0.0879(3) -0.3219(6) 0.1867(5)
C14D C -0.0651(3) -0.4315(5) 0.0376(6)
C2B C 0.1831(3) 0.1407(6) 0.6763(6)
C2F C -0.1831(3) -0.1407(6) 0.3237(6)
C9B C -0.0680(3) 0.3229(5) 0.5944(4)
C9F C 0.0680(3) -0.3229(5) 0.4056(4)
C6D C 0.2751(4) -0.2745(8) 0.1866(8)
C4D C 0.2702(4) -0.1724(9) 0.3529(7)
C11D C -0.1063(4) -0.4361(7) 0.2225(7)
C13D C -0.0810(4) -0.5455(7) 0.0757(7)
C3B C 0.2138(4) 0.2206(7) 0.6209(7)
C7B C 0.2098(4) 0.1163(8) 0.7911(6)
C3F C -0.2138(4) -0.2206(7) 0.3791(7)
C7F C -0.2098(4) -0.1163(8) 0.2089(6)
C10B C -0.0879(3) 0.3219(6) 0.6867(5)
C14B C -0.0651(3) 0.4315(5) 0.5376(6)
C10F C 0.0879(3) -0.3219(6) 0.3133(5)
C14F C 0.0651(3) -0.4315(5) 0.4624(6)
C5D C 0.3014(4) -0.2494(10) 0.2984(9)
C12D C -0.1009(4) -0.5474(7) 0.1696(7)
C6B C 0.2751(4) 0.2745(8) 0.6866(8)
C4B C 0.2702(4) 0.1724(9) 0.8529(7)
C6F C -0.2751(4) -0.2745(8) 0.3134(8)
C4F C -0.2702(4) -0.1724(9) 0.1471(7)
C11B C -0.1063(4) 0.4361(7) 0.7225(7)
C13B C -0.0810(4) 0.5455(7) 0.5757(7)
C11F C 0.1063(4) -0.4361(7) 0.2775(7)
C13F C 0.0810(4) -0.5455(7) 0.4243(7)
C5B C 0.3014(4) 0.2494(10) 0.7984(9)
C5F C -0.3014(4) -0.2494(10) 0.2016(9)
C12B C -0.1009(4) 0.5474(7) 0.6696(7)
C12F C 0.1009(4) -0.5474(7) 0.3304(7)
loop_
_geom_bond_atom_site_label_1
_geom_bond_atom_site_label_2
_geom_bond_site_symmetry_1
_geom_bond_site_symmetry_2
Ru1 Cl1 1_555 1_555
Cl1 Ru1B 1_555 1_555
O1 Ru1 1_555 1_555
O2 Ru1 1_555 1_555
O3 Ru1 1_555 1_555
O4 Ru1 1_555 1_555
C1 O1 1_555 1_555
C2 C1 1_555 1_555
C3 C2 1_555 1_555
C4 C5 1_555 1_555
C5 C6 1_555 1_555
C6 C3 1_555 1_555
C7 C2 1_555 1_555
C8 O3 1_555 1_555
C9 C8 1_555 1_555
C10 C9 1_555 1_555
C11 C10 1_555 1_555
C12 C11 1_555 1_555
C13 C12 1_555 1_555
C14 C9 1_555 1_555
Ru1D Ru1 1_555 1_555
Ru1B Ru1F 1_555 1_555
C1D O2 1_555 1_555
C8D O4 1_555 1_555
O2D C1 1_555 1_555
O4D C8 1_555 1_555
Cl1D Ru1D 1_555 1_555
O1D Ru1D 1_555 1_555
O3D Ru1D 1_555 1_555
Ru1F Cl1D_2 1_555 1_555
O1B Ru1B 1_555 1_555
O2B Ru1B 1_555 1_555
O3B Ru1B 1_555 1_555
O4B Ru1B 1_555 1_555
C2D C1D 1_555 1_555
C9D C8D 1_555 1_555
Ru1F_2 Cl1D 1_555 1_555
O1F Ru1F 1_555 1_555
O2F Ru1F 1_555 1_555
O3F Ru1F 1_555 1_555
O4F Ru1F 1_555 1_555
C1B O1B 1_555 1_555
C1F O2B 1_555 1_555
C8B O3B 1_555 1_555
C8F O4B 1_555 1_555
C3D C2D 1_555 1_555
C7D C2D 1_555 1_555
C10D C9D 1_555 1_555
C14D C9D 1_555 1_555
C2B C1B 1_555 1_555
C2F C1F 1_555 1_555
C9B C8B 1_555 1_555
C9F C8F 1_555 1_555
C6D C3D 1_555 1_555
C4D C7D 1_555 1_555
C11D C10D 1_555 1_555
C13D C14D 1_555 1_555
C3B C2B 1_555 1_555
C7B C2B 1_555 1_555
C3F C2F 1_555 1_555
C7F C2F 1_555 1_555
C10B C9B 1_555 1_555
C14B C9B 1_555 1_555
C10F C9F 1_555 1_555
C14F C9F 1_555 1_555
C5D C6D 1_555 1_555
C12D C11D 1_555 1_555
C6B C3B 1_555 1_555
C4B C7B 1_555 1_555
C6F C3F 1_555 1_555
C4F C7F 1_555 1_555
C11B C10B 1_555 1_555
C13B C14B 1_555 1_555
C11F C10F 1_555 1_555
C13F C14F 1_555 1_555
C5B C6B 1_555 1_555
C5F C6F 1_555 1_555
C12B C11B 1_555 1_555
C12F C11F 1_555 1_555
C4 C7 1_555 1_555
C13 C14 1_555 1_555
Ru1D O2D 1_555 1_555
Ru1D O4D 1_555 1_555
C1D O1D 1_555 1_555
C8D O3D 1_555 1_555
O1F C1F 1_555 1_555
O2F C1B 1_555 1_555
O3F C8F 1_555 1_555
O4F C8B 1_555 1_555
C4D C5D 1_555 1_555
C13D C12D 1_555 1_555
C4B C5B 1_555 1_555
C4F C5F 1_555 1_555
C13B C12B 1_555 1_555
C13F C12F 1_555 1_555

#END
