
#######################################################################
#
#                 Cambridge Crystallographic Data Centre
#                                CCDC 
#
#######################################################################
#
# If this CIF has been generated from an entry in the Cambridge 
# Structural Database, then it will include bibliographic, chemical, 
# crystal, experimental, refinement or atomic coordinate data resulting 
# from the CCDC's data processing and validation procedures.
#
#######################################################################

data_PAMCAI
_symmetry_cell_setting           triclinic
_symmetry_space_group_name_H-M   'P -1'
_symmetry_Int_Tables_number      2
_space_group_name_Hall           '-P 1'
loop_
_symmetry_equiv_pos_site_id
_symmetry_equiv_pos_as_xyz
1 x,y,z
2 -x,-y,-z
_cell_length_a                   8.914(5)
_cell_length_b                   10.809(6)
_cell_length_c                   11.283(6)
_cell_angle_alpha                69.255(8)
_cell_angle_beta                 87.163(9)
_cell_angle_gamma                84.993(8)
_cell_volume                     1012.57
loop_
_atom_site_label
_atom_site_type_symbol
_atom_site_fract_x
_atom_site_fract_y
_atom_site_fract_z
Ag1 Ag 0.99790(6) 0.16386(5) 0.15589(6)
N1 N 1.2065(6) 0.4073(5) 0.0527(5)
N2 N 1.1076(5) 0.3704(4) 0.1539(5)
N3 N 0.9455(6) 0.0079(5) 0.6728(5)
C1 C 1.1850(7) 0.6305(6) 0.0278(6)
C2 C 1.2027(7) 0.7675(6) -0.0139(7)
C3 C 1.1213(7) 0.8155(6) 0.0693(7)
H1 H 1.1144 0.9034 0.0649
C4 C 1.0512(8) 0.7136(7) 0.1606(7)
C5 C 1.0857(6) 0.5985(6) 0.1375(6)
C6 C 1.0516(6) 0.4642(6) 0.1955(6)
C7 C 0.9551(7) 0.4162(6) 0.3113(6)
C8 C 0.8365(8) 0.4941(7) 0.3385(7)
C9 C 0.7502(8) 0.4478(8) 0.4469(8)
C10 C 0.7772(9) 0.3240(7) 0.5315(8)
C11 C 0.8921(8) 0.2446(7) 0.5061(7)
C12 C 0.9242(7) 0.1099(7) 0.5997(7)
C13 C 0.9825(7) 0.2877(6) 0.3986(6)
C14 C 1.2470(6) 0.5310(6) -0.0106(6)
C15 C 1.3630(7) 0.5429(7) -0.1099(6)
C16 C 1.4262(7) 0.6458(6) -0.1931(6)
H2 H 1.4041 0.7347 -0.2039
C17 C 1.5353(9) 0.5925(10) -0.2633(8)
C18 C 1.5272(8) 0.4638(9) -0.2185(7)
H3 H 1.5856 0.4048 -0.2481
O1 O 1.4221(5) 0.4272(4) -0.1229(4)
O5 O 1.2525(6) 0.1530(5) 0.0484(6)
H4 H 1.278(4) 0.818(4) -0.069(4)
H5 H 0.994(5) 0.718(5) 0.229(5)
H6 H 0.672(5) 0.500(4) 0.461(5)
H7 H 0.715(5) 0.289(5) 0.601(5)
H8 H 1.075(5) 0.228(5) 0.373(5)
H9 H 0.819(4) 0.576(4) 0.276(4)
H10 H 1.230(6) 0.329(5) 0.040(5)
H11 H 1.589(6) 0.637(5) -0.329(5)
H12 H 1.241(6) 0.145(6) -0.023(3)
H13 H 1.332(3) 0.112(5) 0.084(4)
Ag1A Ag 1.00210(6) -0.16386(5) 0.84411(6)
Ag1A_2 Ag 1.00210(6) 0.83614(5) -0.15589(6)
N3A N 1.0545(6) -0.0079(5) 0.3272(5)
C2A C 0.7973(7) 0.2325(6) 0.0139(7)
C3A C 0.8787(7) 0.1845(6) -0.0693(7)
H1A H 0.8856 0.0966 -0.0649
H4A H 0.722(4) 0.182(4) 0.069(4)
C19 C 0.3701(13) 0.1096(11) 0.6061(12)
O2 O 0.2840(6) 0.0951(5) 0.8270(5)
O3 O 0.5146(7) 0.1880(7) 0.7544(7)
O4 O 0.4966(6) -0.0421(6) 0.8027(6)
F1 F 0.4928(7) 0.1203(5) 0.5334(5)
F2 F 0.2966(6) 0.0151(7) 0.6054(7)
F3 F 0.2855(8) 0.2200(7) 0.5629(6)
S1 S 0.4246(3) 0.0892(2) 0.7647(2)
loop_
_geom_bond_atom_site_label_1
_geom_bond_atom_site_label_2
_geom_bond_site_symmetry_1
_geom_bond_site_symmetry_2
Ag1 N2 1_555 1_555
N1 N2 1_555 1_555
N2 C6 1_555 1_555
N3 C12 1_555 1_555
C1 C2 1_555 1_555
C2 C3 1_555 1_555
C3 H1 1_555 1_555
C4 C3 1_555 1_555
C5 C1 1_555 1_555
C6 C5 1_555 1_555
C7 C6 1_555 1_555
C8 C7 1_555 1_555
C9 C8 1_555 1_555
C10 C9 1_555 1_555
C11 C10 1_555 1_555
C12 C11 1_555 1_555
C13 C7 1_555 1_555
C14 N1 1_555 1_555
C15 C14 1_555 1_555
C16 C15 1_555 1_555
H2 C16 1_555 1_555
C17 C16 1_555 1_555
C18 C17 1_555 1_555
H3 C18 1_555 1_555
C19 F1 1_555 1_555
O1 C15 1_555 1_555
O2 S1 1_555 1_555
O3 S1 1_555 1_555
O4 S1 1_555 1_555
O5 Ag1 1_555 1_555
F2 C19 1_555 1_555
F3 C19 1_555 1_555
S1 C19 1_555 1_555
H4 C2 1_555 1_555
H5 C4 1_555 1_555
H6 C9 1_555 1_555
H7 C10 1_555 1_555
H8 C13 1_555 1_555
H9 C8 1_555 1_555
H10 N1 1_555 1_555
H11 C17 1_555 1_555
H12 O5 1_555 1_555
H13 O5 1_555 1_555
Ag1A N3 1_555 1_555
Ag1A_2 C2 1_555 1_555
N3A Ag1 1_555 1_555
C2A Ag1 1_555 1_555
C3A Ag1 1_555 1_555
H1A C3A 1_555 1_555
H4A C2A 1_555 1_555
C1 C14 1_555 1_555
C3 Ag1A_2 1_555 1_555
C4 C5 1_555 1_555
C11 C13 1_555 1_555
C18 O1 1_555 1_555
C2A C3A 1_555 1_555

#END
