
#######################################################################
#
#                 Cambridge Crystallographic Data Centre
#                                CCDC 
#
#######################################################################
#
# If this CIF has been generated from an entry in the Cambridge 
# Structural Database, then it will include bibliographic, chemical, 
# crystal, experimental, refinement or atomic coordinate data resulting 
# from the CCDC's data processing and validation procedures.
#
#######################################################################

data_PAMDOX
_symmetry_cell_setting           monoclinic
_symmetry_space_group_name_H-M   'P 21/n'
_symmetry_Int_Tables_number      14
_space_group_name_Hall           '-P 2yn'
loop_
_symmetry_equiv_pos_site_id
_symmetry_equiv_pos_as_xyz
1 x,y,z
2 1/2-x,1/2+y,1/2-z
3 -x,-y,-z
4 1/2+x,1/2-y,1/2+z
_cell_length_a                   12.332(12)
_cell_length_b                   10.334(10)
_cell_length_c                   16.890(17)
_cell_angle_alpha                90
_cell_angle_beta                 102.652(16)
_cell_angle_gamma                90
_cell_volume                     2100.18
loop_
_atom_site_label
_atom_site_type_symbol
_atom_site_fract_x
_atom_site_fract_y
_atom_site_fract_z
Cd1 Cd 0.92289(2) 0.18320(3) 0.259181(18)
O1 O 0.9207(3) 0.3326(3) 0.14340(19)
O2 O 0.5121(2) 0.5222(3) 0.13327(18)
O3 O 0.7652(3) 0.2732(3) 0.17725(19)
O4 O 1.1084(3) 0.1910(3) 0.2576(2)
C1 C 1.5156(4) -0.9030(4) 0.1395(3)
H1 H 1.5471 -0.8208 0.1562
O5 O 0.6878(2) 0.5797(3) 0.16350(19)
N1 N 0.9210(3) 0.0037(3) 0.1727(2)
C2 C 0.6096(3) 0.5130(4) 0.1226(2)
C3 C 0.8162(4) 0.3322(4) 0.1314(3)
N2 N 1.5263(3) -1.1346(4) 0.1551(2)
C4 C 0.6307(3) 0.4224(4) 0.0576(3)
H2 H 0.5929 0.4568 0.0040
H3 H 0.5972 0.3373 0.0647
C5 C 1.5651(4) -1.0152(4) 0.1762(3)
H4 H 1.6298 -1.0069 0.2184
C6 C 1.4201(4) -0.9114(4) 0.0786(3)
C7 C 0.8914(4) -0.2236(5) 0.1453(3)
H5 H 0.8555 -0.3015 0.1551
C8 C 1.3800(4) -1.0350(4) 0.0552(3)
H6 H 1.3164 -1.0460 0.0124
C9 C 0.8741(4) -0.1098(4) 0.1842(3)
H7 H 0.8263 -0.1125 0.2213
C10 C 0.9879(4) 0.0046(4) 0.1200(3)
H8 H 1.0211 0.0841 0.1098
C11 C 0.7521(3) 0.4031(4) 0.0583(3)
H9 H 0.7582 0.3545 0.0089
H10 H 0.7868 0.4889 0.0555
C12 C 1.0108(4) -0.1054(5) 0.0797(3)
H11 H 1.0601 -0.1006 0.0438
N3 N 1.0383(3) -0.4415(3) 0.1068(2)
H12 H 0.9993 -0.5090 0.1160
O6 O 1.2035(3) -0.3411(3) 0.13093(19)
C13 C 1.1446(4) -0.4292(4) 0.1468(3)
C14 C 0.9872(4) -0.3440(4) 0.0483(3)
H13 H 0.9173 -0.3785 0.0146
H14 H 1.0379 -0.3230 0.0120
N4 N 1.3547(3) -0.6898(3) 0.0953(2)
H15 H 1.4017 -0.6246 0.1012
C15 C 0.9623(4) -0.2213(4) 0.0915(3)
C16 C 1.3628(4) -0.7916(4) 0.0377(3)
H16 H 1.4047 -0.7588 -0.0019
H17 H 1.2872 -0.8150 0.0074
C17 C 1.4347(4) -1.1421(5) 0.0954(3)
H18 H 1.4053 -1.2254 0.0797
O7 O 1.2020(3) -0.7754(3) 0.1271(2)
C18 C 1.2766(4) -0.6932(4) 0.1401(3)
C19 C 1.2901(4) -0.5970(4) 0.2075(3)
H19 H 1.3456 -0.5317 0.1998
H20 H 1.3204 -0.6423 0.2593
C20 C 1.1844(4) -0.5274(4) 0.2147(3)
H21 H 1.1975 -0.4820 0.2676
H22 H 1.1251 -0.5921 0.2140
H23 H 1.130(4) 0.208(6) 0.2052(16)
H24 H 1.177(3) 0.170(5) 0.300(2)
Cd1A Cd 0.57711(2) 0.68320(3) 0.240819(18)
Cd1A_2 Cd 1.57711(2) -1.31680(3) 0.240819(18)
O2A O 0.9879(2) 0.0222(3) 0.36673(18)
O5A O 0.8122(2) 0.0797(3) 0.33650(19)
N2A N 0.9737(3) 0.3654(4) 0.3449(2)
loop_
_geom_bond_atom_site_label_1
_geom_bond_atom_site_label_2
_geom_bond_site_symmetry_1
_geom_bond_site_symmetry_2
Cd1 O1 1_555 1_555
O1 C3 1_555 1_555
O2 C2 1_555 1_555
O3 Cd1 1_555 1_555
O4 Cd1 1_555 1_555
C1 H1 1_555 1_555
O5 C2 1_555 1_555
N1 Cd1 1_555 1_555
C2 C4 1_555 1_555
C3 O3 1_555 1_555
N2 C5 1_555 1_555
C4 H2 1_555 1_555
H3 C4 1_555 1_555
C5 C1 1_555 1_555
H4 C5 1_555 1_555
C6 C1 1_555 1_555
C7 H5 1_555 1_555
C8 C6 1_555 1_555
H6 C8 1_555 1_555
C9 N1 1_555 1_555
H7 C9 1_555 1_555
C10 N1 1_555 1_555
H8 C10 1_555 1_555
C11 C3 1_555 1_555
H9 C11 1_555 1_555
H10 C11 1_555 1_555
C12 C10 1_555 1_555
H11 C12 1_555 1_555
N3 H12 1_555 1_555
O6 C13 1_555 1_555
C13 N3 1_555 1_555
C14 N3 1_555 1_555
H13 C14 1_555 1_555
H14 C14 1_555 1_555
N4 H15 1_555 1_555
C15 C7 1_555 1_555
C16 C6 1_555 1_555
H16 C16 1_555 1_555
H17 C16 1_555 1_555
C17 N2 1_555 1_555
H18 C17 1_555 1_555
O7 C18 1_555 1_555
C18 N4 1_555 1_555
C19 C18 1_555 1_555
H19 C19 1_555 1_555
H20 C19 1_555 1_555
C20 C13 1_555 1_555
H21 C20 1_555 1_555
H22 C20 1_555 1_555
H23 O4 1_555 1_555
H24 O4 1_555 1_555
Cd1A O2 1_555 1_555
Cd1A_2 N2 1_555 1_555
O2A Cd1 1_555 1_555
O5A Cd1 1_555 1_555
N2A Cd1 1_555 1_555
O5 Cd1A 1_555 1_555
C4 C11 1_555 1_555
C7 C9 1_555 1_555
C8 C17 1_555 1_555
C12 C15 1_555 1_555
C14 C15 1_555 1_555
N4 C16 1_555 1_555
C19 C20 1_555 1_555

#END
