
#######################################################################
#
#                 Cambridge Crystallographic Data Centre
#                                CCDC 
#
#######################################################################
#
# If this CIF has been generated from an entry in the Cambridge 
# Structural Database, then it will include bibliographic, chemical, 
# crystal, experimental, refinement or atomic coordinate data resulting 
# from the CCDC's data processing and validation procedures.
#
#######################################################################

data_PAMGER
_symmetry_cell_setting           triclinic
_symmetry_space_group_name_H-M   'P -1'
_symmetry_Int_Tables_number      2
_space_group_name_Hall           '-P 1'
loop_
_symmetry_equiv_pos_site_id
_symmetry_equiv_pos_as_xyz
1 x,y,z
2 -x,-y,-z
_cell_length_a                   5.1691(13)
_cell_length_b                   6.4094(16)
_cell_length_c                   9.396(3)
_cell_angle_alpha                72.66(3)
_cell_angle_beta                 88.67(3)
_cell_angle_gamma                76.90(3)
_cell_volume                     289.087
loop_
_atom_site_label
_atom_site_type_symbol
_atom_site_fract_x
_atom_site_fract_y
_atom_site_fract_z
Co1 Co 0.0000 0.0000 0.0000
F1 F 0.4555(7) 0.7171(5) -0.2903(3)
F2 F 0.7492(7) 0.8361(5) -0.5214(3)
O1 O 0.2250(7) 0.1573(5) -0.1728(4)
O2 O 0.0231(8) 0.5178(6) -0.2063(4)
O3 O 0.2763(8) -0.3028(5) 0.0141(4)
O4 O -0.2289(8) -0.0452(7) -0.1627(4)
C1 C 0.1829(9) 0.3648(7) -0.2393(5)
C2 C 0.3475(9) 0.4319(7) -0.3743(5)
C3 C 0.4717(10) 0.6073(7) -0.3925(5)
C4 C 0.6245(10) 0.6731(7) -0.5145(5)
H1 H 0.35(2) -0.33(2) -0.073(8)
H2 H 0.211(13) -0.417(8) 0.087(6)
H3 H -0.21(2) -0.187(8) -0.179(11)
H4 H -0.415(5) -0.028(14) -0.169(11)
Co1_2 Co 1.0000 1.0000 -1.0000
F1A F 0.5445(7) 0.2829(5) -0.7097(3)
F2A F 0.2508(7) 0.1639(5) -0.4786(3)
O1A O 0.7750(7) 0.8427(5) -0.8272(4)
O1A_2 O -0.2250(7) -0.1573(5) 0.1728(4)
O2A O 0.9769(8) 0.4822(6) -0.7937(4)
O3A O -0.2763(8) 0.3028(5) -0.0141(4)
O4A O 0.2289(8) 0.0452(7) 0.1627(4)
C1A C 0.8171(9) 0.6352(7) -0.7607(5)
C2A C 0.6525(9) 0.5681(7) -0.6257(5)
C3A C 0.5283(10) 0.3927(7) -0.6075(5)
C4A C 0.3755(10) 0.3269(7) -0.4855(5)
H1A H -0.35(2) 0.33(2) 0.073(8)
H2A H -0.211(13) 0.417(8) -0.087(6)
H3A H 0.21(2) 0.187(8) 0.179(11)
H4A H 0.415(5) 0.028(14) 0.169(11)
loop_
_geom_bond_atom_site_label_1
_geom_bond_atom_site_label_2
_geom_bond_site_symmetry_1
_geom_bond_site_symmetry_2
Co1 O1 1_555 1_555
F1 C3 1_555 1_555
F2 C4 1_555 1_555
O1 C1 1_555 1_555
O2 C1 1_555 1_555
O3 Co1 1_555 1_555
O4 Co1 1_555 1_555
C1 C2 1_555 1_555
C2 C3 1_555 1_555
C3 C4 1_555 1_555
C4 C2A 1_555 1_555
H1 O3 1_555 1_555
H2 O3 1_555 1_555
H3 O4 1_555 1_555
H4 O4 1_555 1_555
Co1_2 O1A 1_555 1_555
F1A C3A 1_555 1_555
F2A C4A 1_555 1_555
O1A C1A 1_555 1_555
O1A_2 Co1 1_555 1_555
O2A C1A 1_555 1_555
O3A Co1 1_555 1_555
O4A Co1 1_555 1_555
C1A C2A 1_555 1_555
C2A C3A 1_555 1_555
C3A C4A 1_555 1_555
C4A C2 1_555 1_555
H1A O3A 1_555 1_555
H2A O3A 1_555 1_555
H3A O4A 1_555 1_555
H4A O4A 1_555 1_555

#END
