
#######################################################################
#
#                 Cambridge Crystallographic Data Centre
#                                CCDC 
#
#######################################################################
#
# If this CIF has been generated from an entry in the Cambridge 
# Structural Database, then it will include bibliographic, chemical, 
# crystal, experimental, refinement or atomic coordinate data resulting 
# from the CCDC's data processing and validation procedures.
#
#######################################################################

data_PAMGUH
_symmetry_cell_setting           triclinic
_symmetry_space_group_name_H-M   'P -1'
_symmetry_Int_Tables_number      2
_space_group_name_Hall           '-P 1'
loop_
_symmetry_equiv_pos_site_id
_symmetry_equiv_pos_as_xyz
1 x,y,z
2 -x,-y,-z
_cell_length_a                   3.7181(11)
_cell_length_b                   6.760(2)
_cell_length_c                   10.202(3)
_cell_angle_alpha                106.78(2)
_cell_angle_beta                 92.74(2)
_cell_angle_gamma                92.82(3)
_cell_volume                     244.689
loop_
_atom_site_label
_atom_site_type_symbol
_atom_site_fract_x
_atom_site_fract_y
_atom_site_fract_z
Tl1 Tl 0.84837(13) 0.21259(7) 0.40741(4)
F1 F 0.753(2) 0.7361(12) 0.8473(7)
F2 F 0.724(3) 0.9029(11) 1.1102(8)
O1 O 0.664(3) 0.1362(14) 0.6638(9)
O2 O 0.433(3) 0.4141(16) 0.6256(8)
C1 C 0.540(3) 0.3141(17) 0.7010(11)
C2 C 0.517(3) 0.4073(16) 0.8559(10)
C3 C 0.621(3) 0.6143(18) 0.9187(11)
C4 C 0.601(3) 0.7068(16) 1.0590(11)
Tl1A Tl 0.15163(13) 0.78741(7) 1.59259(4)
Tl1A_2 Tl 0.15163(13) -0.21259(7) 0.59259(4)
Tl1A_3 Tl 1.15163(13) -0.21259(7) 0.59259(4)
Tl1_2 Tl -0.15163(13) 0.21259(7) 0.40741(4)
Tl1A_4 Tl 0.15163(13) 0.78741(7) 0.59259(4)
Tl1_3 Tl 0.84837(13) 1.21259(7) 1.40741(4)
Tl1_4 Tl -0.15163(13) 1.21259(7) 1.40741(4)
Tl1A_5 Tl 1.15163(13) 0.78741(7) 1.59259(4)
Tl1_5 Tl 0.84837(13) 0.21259(7) 1.40741(4)
F1A F 0.247(2) 0.2639(12) 1.1527(7)
F2A F 0.276(3) 0.0971(11) 0.8898(8)
O1A O 0.336(3) 0.8638(14) 1.3362(9)
O1A_2 O 0.336(3) -0.1362(14) 0.3362(9)
O1A_3 O 1.336(3) -0.1362(14) 0.3362(9)
O1_2 O 0.664(3) 1.1362(14) 1.6638(9)
O1_3 O -0.336(3) 1.1362(14) 1.6638(9)
O2A O 0.567(3) 0.5859(16) 1.3744(8)
O2_2 O 1.433(3) 0.4141(16) 0.6256(8)
O2A_2 O 0.567(3) 0.5859(16) 0.3744(8)
O2A_3 O -0.433(3) 0.5859(16) 1.3744(8)
O2_3 O 0.433(3) 0.4141(16) 1.6256(8)
C1A C 0.460(3) 0.6859(17) 1.2990(11)
C2A C 0.483(3) 0.5927(16) 1.1441(10)
C3A C 0.379(3) 0.3857(18) 1.0813(11)
C4A C 0.399(3) 0.2932(16) 0.9410(11)
loop_
_geom_bond_atom_site_label_1
_geom_bond_atom_site_label_2
_geom_bond_site_symmetry_1
_geom_bond_site_symmetry_2
Tl1 O1 1_555 1_555
F1 C3 1_555 1_555
F2 C4 1_555 1_555
O1 C1 1_555 1_555
O2 Tl1 1_555 1_555
C1 O2 1_555 1_555
C2 C1 1_555 1_555
C3 C2 1_555 1_555
C4 C3 1_555 1_555
Tl1A O1A 1_555 1_555
Tl1A_2 O1 1_555 1_555
Tl1A_3 O1 1_555 1_555
Tl1_2 O2 1_555 1_555
Tl1A_4 O2 1_555 1_555
Tl1_3 O1A 1_555 1_555
Tl1_4 O1A 1_555 1_555
Tl1A_5 O1_2 1_555 1_555
Tl1_5 O2A 1_555 1_555
F1A C3A 1_555 1_555
F2A C4A 1_555 1_555
O1A C1A 1_555 1_555
O1A_2 Tl1 1_555 1_555
O1A_3 Tl1 1_555 1_555
O1_2 Tl1A 1_555 1_555
O1_3 Tl1A 1_555 1_555
O2A Tl1A 1_555 1_555
O2_2 Tl1 1_555 1_555
O2A_2 Tl1 1_555 1_555
O2A_3 Tl1A 1_555 1_555
O2_3 Tl1A 1_555 1_555
C1A O2A 1_555 1_555
C2A C4 1_555 1_555
C3A C2A 1_555 1_555
C4A C2 1_555 1_555
Tl1A_2 O1A_2 1_555 1_555
Tl1A_3 O1A_3 1_555 1_555
Tl1_2 O1A_2 1_555 1_555
Tl1A_4 O2A_2 1_555 1_555
Tl1_3 O1_2 1_555 1_555
Tl1_4 O1_3 1_555 1_555
Tl1A_5 O2A 1_555 1_555
Tl1_5 O2_3 1_555 1_555
C1A C2A 1_555 1_555
C3A C4A 1_555 1_555

#END
