
#######################################################################
#
#                 Cambridge Crystallographic Data Centre
#                                CCDC 
#
#######################################################################
#
# If this CIF has been generated from an entry in the Cambridge 
# Structural Database, then it will include bibliographic, chemical, 
# crystal, experimental, refinement or atomic coordinate data resulting 
# from the CCDC's data processing and validation procedures.
#
#######################################################################

data_PAMGOB
_symmetry_cell_setting           triclinic
_symmetry_space_group_name_H-M   'P -1'
_symmetry_Int_Tables_number      2
_space_group_name_Hall           '-P 1'
loop_
_symmetry_equiv_pos_site_id
_symmetry_equiv_pos_as_xyz
1 x,y,z
2 -x,-y,-z
_cell_length_a                   7.3534(11)
_cell_length_b                   8.8387(13)
_cell_length_c                   10.4471(16)
_cell_angle_alpha                76.527(12)
_cell_angle_beta                 73.958(12)
_cell_angle_gamma                68.095(11)
_cell_volume                     598.992
loop_
_atom_site_label
_atom_site_type_symbol
_atom_site_fract_x
_atom_site_fract_y
_atom_site_fract_z
Pb1 Pb 0.29280(2) 0.851021(19) 0.576073(16)
F1 F -0.0122(5) 0.5426(4) 0.7049(3)
F2 F -0.0304(4) 0.3358(3) 0.9302(3)
F3 F -0.5929(5) 0.7527(4) 1.1358(3)
F4 F -0.5659(4) 0.9553(3) 0.9072(3)
O1 O -0.1172(5) 0.9113(5) 0.6243(4)
O2 O -0.4181(5) 0.9245(4) 0.6142(3)
O3 O 0.1101(6) 1.1179(5) 0.6921(5)
H1 H 0.19(4) 1.003(14) 0.68(3)
H2 H 0.077(13) 1.087(11) 0.778(6)
O4 O 0.2138(5) 0.6569(5) 0.4215(4)
H3 H 0.19(4) 0.72(3) 0.495(18)
H4 H 0.328(9) 0.593(10) 0.365(8)
O5 O 0.6371(6) 0.6858(5) 0.4234(4)
H5 H 0.625(13) 0.645(10) 0.350(5)
H6 H 0.700(9) 0.759(6) 0.377(6)
O6 O -0.2493(6) 0.2641(4) 1.1678(3)
O7 O -0.4096(6) 0.4721(4) 1.2846(3)
C1 C -0.2721(6) 0.8730(5) 0.6683(4)
C2 C -0.2842(6) 0.7555(5) 0.8009(4)
C3 C -0.1538(6) 0.5957(5) 0.8114(4)
C4 C -0.1679(6) 0.4873(5) 0.9303(4)
C5 C -0.3123(6) 0.5343(5) 1.0452(4)
C6 C -0.4438(6) 0.6963(5) 1.0332(4)
C7 C -0.4308(6) 0.8036(5) 0.9132(4)
C8 C -0.3237(7) 0.4136(5) 1.1765(4)
Pb1_2 Pb 1.29280(2) 0.851021(19) 0.576073(16)
Pb1A Pb -0.29280(2) 1.148979(19) 0.423927(16)
Pb1_3 Pb -0.70720(2) 0.851021(19) 0.576073(16)
Pb1A_2 Pb -0.29280(2) 0.148979(19) 1.423927(16)
Pb1A_3 Pb 0.70720(2) 1.148979(19) 0.423927(16)
Pb1A_4 Pb 0.70720(2) 0.148979(19) 1.423927(16)
F1_2 F 0.9878(5) 0.5426(4) 0.7049(3)
F2_2 F 0.9696(4) 0.3358(3) 0.9302(3)
F3_2 F 0.4071(5) 0.7527(4) 1.1358(3)
F4_2 F 0.4341(4) 0.9553(3) 0.9072(3)
O1_2 O 0.8828(5) 0.9113(5) 0.6243(4)
O1A O 0.1172(5) 1.0887(5) 0.3757(4)
O1A_2 O 1.1172(5) 1.0887(5) 0.3757(4)
O2_2 O 0.5819(5) 0.9245(4) 0.6142(3)
O2A O 0.4181(5) 1.0755(4) 0.3858(3)
O2_3 O 1.5819(5) 0.9245(4) 0.6142(3)
O2A_2 O 1.4181(5) 1.0755(4) 0.3858(3)
O3_2 O 1.1101(6) 1.1179(5) 0.6921(5)
H1_2 H 1.19(4) 1.003(14) 0.68(3)
H2_2 H 1.077(13) 1.087(11) 0.778(6)
O4_2 O 1.2138(5) 0.6569(5) 0.4215(4)
H3_2 H 1.19(4) 0.72(3) 0.495(18)
H4_2 H 1.328(9) 0.593(10) 0.365(8)
O5_2 O 1.6371(6) 0.6858(5) 0.4234(4)
H5_2 H 1.625(13) 0.645(10) 0.350(5)
H6_2 H 1.700(9) 0.759(6) 0.377(6)
O6_2 O 0.7507(6) 0.2641(4) 1.1678(3)
O6A O 0.2493(6) 0.7359(4) 0.8322(3)
O6A_2 O 1.2493(6) 0.7359(4) 0.8322(3)
O7_2 O 0.5904(6) 0.4721(4) 1.2846(3)
O7A O 0.4096(6) 0.5279(4) 0.7154(3)
O7A_2 O 1.4096(6) 0.5279(4) 0.7154(3)
C1_2 C 0.7279(6) 0.8730(5) 0.6683(4)
C2_2 C 0.7158(6) 0.7555(5) 0.8009(4)
C3_2 C 0.8462(6) 0.5957(5) 0.8114(4)
C4_2 C 0.8321(6) 0.4873(5) 0.9303(4)
C5_2 C 0.6877(6) 0.5343(5) 1.0452(4)
C6_2 C 0.5562(6) 0.6963(5) 1.0332(4)
C7_2 C 0.5692(6) 0.8036(5) 0.9132(4)
C8_2 C 0.6763(7) 0.4136(5) 1.1765(4)
O8 O 1.0000 0.0000 1.0000
loop_
_geom_bond_atom_site_label_1
_geom_bond_atom_site_label_2
_geom_bond_site_symmetry_1
_geom_bond_site_symmetry_2
Pb1 O1 1_555 1_555
F1 C3 1_555 1_555
F2 C4 1_555 1_555
F3 C6 1_555 1_555
F4 C7 1_555 1_555
O1 C1 1_555 1_555
O2 C1 1_555 1_555
O3 Pb1 1_555 1_555
H1 O3 1_555 1_555
H2 O3 1_555 1_555
O4 Pb1 1_555 1_555
H3 O4 1_555 1_555
H4 O4 1_555 1_555
O5 Pb1 1_555 1_555
H5 O5 1_555 1_555
H6 O5 1_555 1_555
O6 C8 1_555 1_555
O7 C8 1_555 1_555
C1 C2 1_555 1_555
C2 C3 1_555 1_555
C3 C4 1_555 1_555
C4 C5 1_555 1_555
C5 C6 1_555 1_555
C6 C7 1_555 1_555
C7 C2 1_555 1_555
C8 C5 1_555 1_555
Pb1_2 O1_2 1_555 1_555
Pb1A O1 1_555 1_555
Pb1_3 O2 1_555 1_555
Pb1A_2 O6 1_555 1_555
Pb1A_3 O1_2 1_555 1_555
Pb1A_4 O6_2 1_555 1_555
F1_2 C3_2 1_555 1_555
F2_2 C4_2 1_555 1_555
F3_2 C6_2 1_555 1_555
F4_2 C7_2 1_555 1_555
O1_2 C1_2 1_555 1_555
O1A Pb1 1_555 1_555
O1A_2 Pb1_2 1_555 1_555
O2_2 Pb1 1_555 1_555
O2A Pb1 1_555 1_555
O2_3 Pb1_2 1_555 1_555
O2A_2 Pb1_2 1_555 1_555
O3_2 Pb1_2 1_555 1_555
H1_2 O3_2 1_555 1_555
H2_2 O3_2 1_555 1_555
O4_2 Pb1_2 1_555 1_555
H3_2 O4_2 1_555 1_555
H4_2 O4_2 1_555 1_555
O5_2 Pb1_2 1_555 1_555
H5_2 O5_2 1_555 1_555
H6_2 O5_2 1_555 1_555
O6_2 C8_2 1_555 1_555
O6A Pb1 1_555 1_555
O6A_2 Pb1_2 1_555 1_555
O7_2 Pb1A_4 1_555 1_555
O7A Pb1 1_555 1_555
O7A_2 Pb1_2 1_555 1_555
C1_2 O2_2 1_555 1_555
C2_2 C1_2 1_555 1_555
C3_2 C2_2 1_555 1_555
C4_2 C3_2 1_555 1_555
C5_2 C4_2 1_555 1_555
C6_2 C5_2 1_555 1_555
C7_2 C2_2 1_555 1_555
C8_2 O7_2 1_555 1_555
O2 Pb1A 1_555 1_555
O7 Pb1A_2 1_555 1_555
Pb1A O1A 1_555 1_555
Pb1A_3 O1A_2 1_555 1_555
Pb1A_3 O2_2 1_555 1_555
Pb1A_3 O2A 1_555 1_555
C5_2 C8_2 1_555 1_555
C6_2 C7_2 1_555 1_555

#END
