
#######################################################################
#
#                 Cambridge Crystallographic Data Centre
#                                CCDC 
#
#######################################################################
#
# If this CIF has been generated from an entry in the Cambridge 
# Structural Database, then it will include bibliographic, chemical, 
# crystal, experimental, refinement or atomic coordinate data resulting 
# from the CCDC's data processing and validation procedures.
#
#######################################################################

data_PAMHAO
_symmetry_cell_setting           triclinic
_symmetry_space_group_name_H-M   'P -1'
_symmetry_Int_Tables_number      2
_space_group_name_Hall           '-P 1'
loop_
_symmetry_equiv_pos_site_id
_symmetry_equiv_pos_as_xyz
1 x,y,z
2 -x,-y,-z
_cell_length_a                   5.1941(10)
_cell_length_b                   6.4197(13)
_cell_length_c                   9.3841(18)
_cell_angle_alpha                73.02(2)
_cell_angle_beta                 88.35(2)
_cell_angle_gamma                76.35(2)
_cell_volume                     290.544
loop_
_atom_site_label
_atom_site_type_symbol
_atom_site_fract_x
_atom_site_fract_y
_atom_site_fract_z
Zn1 Zn 0.0000 0.0000 0.0000
F1 F 0.4537(4) 0.7167(3) -0.2892(2)
F2 F 0.7466(4) 0.8351(3) -0.5209(2)
O1 O 0.2262(4) 0.1593(3) -0.1727(2)
O2 O 0.0220(5) 0.5189(3) -0.2058(3)
O3 O 0.2729(5) -0.3005(3) 0.0138(3)
O4 O -0.2268(5) -0.0415(4) -0.1662(3)
C1 C 0.1841(6) 0.3653(5) -0.2404(3)
C2 C 0.3476(6) 0.4340(4) -0.3745(3)
C3 C 0.4709(6) 0.6077(5) -0.3930(3)
C4 C 0.6231(6) 0.6713(4) -0.5136(3)
H1 H 0.296(12) -0.314(10) -0.073(5)
H2 H 0.184(8) -0.392(7) 0.075(5)
H3 H -0.164(10) -0.132(8) -0.225(5)
H4 H -0.391(8) -0.011(7) -0.169(5)
Zn1_2 Zn 1.0000 1.0000 -1.0000
F1A F 0.5463(4) 0.2833(3) -0.7108(2)
F2A F 0.2534(4) 0.1649(3) -0.4791(2)
O1A O 0.7738(4) 0.8407(3) -0.8273(2)
O1A_2 O -0.2262(4) -0.1593(3) 0.1727(2)
O2A O 0.9780(5) 0.4811(3) -0.7942(3)
O3A O -0.2729(5) 0.3005(3) -0.0138(3)
O4A O 0.2268(5) 0.0415(4) 0.1662(3)
C1A C 0.8159(6) 0.6347(5) -0.7596(3)
C2A C 0.6524(6) 0.5660(4) -0.6255(3)
C3A C 0.5291(6) 0.3923(5) -0.6070(3)
C4A C 0.3769(6) 0.3287(4) -0.4864(3)
H1A H -0.296(12) 0.314(10) 0.073(5)
H2A H -0.184(8) 0.392(7) -0.075(5)
H3A H 0.164(10) 0.132(8) 0.225(5)
H4A H 0.391(8) 0.011(7) 0.169(5)
loop_
_geom_bond_atom_site_label_1
_geom_bond_atom_site_label_2
_geom_bond_site_symmetry_1
_geom_bond_site_symmetry_2
Zn1 O1 1_555 1_555
F1 C3 1_555 1_555
F2 C4 1_555 1_555
O1 C1 1_555 1_555
O2 C1 1_555 1_555
O3 Zn1 1_555 1_555
O4 Zn1 1_555 1_555
C1 C2 1_555 1_555
C2 C3 1_555 1_555
C3 C4 1_555 1_555
C4 C2A 1_555 1_555
H1 O3 1_555 1_555
H2 O3 1_555 1_555
H3 O4 1_555 1_555
H4 O4 1_555 1_555
Zn1_2 O1A 1_555 1_555
F1A C3A 1_555 1_555
F2A C4A 1_555 1_555
O1A C1A 1_555 1_555
O1A_2 Zn1 1_555 1_555
O2A C1A 1_555 1_555
O3A Zn1 1_555 1_555
O4A Zn1 1_555 1_555
C1A C2A 1_555 1_555
C2A C3A 1_555 1_555
C3A C4A 1_555 1_555
C4A C2 1_555 1_555
H1A O3A 1_555 1_555
H2A O3A 1_555 1_555
H3A O4A 1_555 1_555
H4A O4A 1_555 1_555

#END
