
#######################################################################
#
#                 Cambridge Crystallographic Data Centre
#                                CCDC 
#
#######################################################################
#
# If this CIF has been generated from an entry in the Cambridge 
# Structural Database, then it will include bibliographic, chemical, 
# crystal, experimental, refinement or atomic coordinate data resulting 
# from the CCDC's data processing and validation procedures.
#
#######################################################################

data_PAMKOF
_symmetry_cell_setting           monoclinic
_symmetry_space_group_name_H-M   'C 2/c'
_symmetry_Int_Tables_number      15
_space_group_name_Hall           '-C 2yn'
loop_
_symmetry_equiv_pos_site_id
_symmetry_equiv_pos_as_xyz
1 x,y,z
2 -x,y,1/2-z
3 1/2+x,1/2+y,z
4 1/2-x,1/2+y,1/2-z
5 -x,-y,-z
6 x,-y,1/2+z
7 1/2-x,1/2-y,-z
8 1/2+x,1/2-y,1/2+z
_cell_length_a                   13.359(3)
_cell_length_b                   23.502(5)
_cell_length_c                   7.3675(15)
_cell_angle_alpha                90
_cell_angle_beta                 97.269(2)
_cell_angle_gamma                90
_cell_volume                     2294.53
loop_
_atom_site_label
_atom_site_type_symbol
_atom_site_fract_x
_atom_site_fract_y
_atom_site_fract_z
Mn1 Mn 0.5000 0.06287(2) 0.7500
O1 O 0.59508(13) 0.07656(7) 1.0125(2)
O2 O 0.60822(14) -0.00358(8) 1.1748(3)
N1 N 0.40018(16) 0.13694(9) 0.8589(3)
O3 O 1.06862(16) 0.08753(12) 1.5987(3)
O4 O 1.02523(18) 0.17361(12) 1.5328(4)
N2 N 1.00933(19) 0.12263(13) 1.5271(4)
C1 C 0.76856(19) 0.12023(11) 1.2143(4)
H1 H 0.7306 0.1444 1.1327
C2 C 0.73437(18) 0.06558(11) 1.2399(3)
C3 C 0.63670(18) 0.04432(11) 1.1343(3)
C4 C 0.28157(18) 0.22659(10) 0.9703(3)
C5 C 0.3050(2) 0.14476(13) 0.7867(4)
H2 H 0.2774 0.1194 0.6971
C6 C 0.2448(2) 0.18805(12) 0.8361(4)
H3 H 0.1789 0.1915 0.7790
C7 C 0.3799(2) 0.21767(12) 1.0484(4)
H4 H 0.4087 0.2415 1.1414
C8 C 0.8822(2) 0.04821(13) 1.4555(4)
H5 H 0.9209 0.0242 1.5366
C9 C 0.7920(2) 0.02989(12) 1.3620(4)
H6 H 0.7695 -0.0068 1.3810
C10 C 0.91351(19) 0.10231(13) 1.4264(4)
C11 C 0.8583(2) 0.13925(12) 1.3082(4)
H7 H 0.8809 0.1761 1.2920
C12 C 0.4354(2) 0.17375(12) 0.9893(4)
H8 H 0.5017 0.1694 1.0435
Mn1D Mn 0.5000 -0.06287(2) 0.2500
Mn1D_2 Mn 0.5000 -0.06287(2) 1.2500
Mn1F Mn 0.0000 0.43713(2) 1.2500
O1A O 0.40492(13) 0.07656(7) 0.4875(2)
O2A O 0.39178(14) -0.00358(8) 0.3252(3)
O2D O 0.39178(14) 0.00358(8) 0.8252(3)
O2E O 0.60822(14) 0.00358(8) 0.6748(3)
N1F N 0.09982(16) 0.36306(9) 1.1411(3)
N1A N 0.59982(16) 0.13694(9) 0.6411(3)
O3A O -0.06862(16) 0.08753(12) -0.0987(3)
O4A O -0.02523(18) 0.17361(12) -0.0328(4)
N2A N -0.00933(19) 0.12263(13) -0.0271(4)
C1A C 0.23144(19) 0.12023(11) 0.2857(4)
H1A H 0.2694 0.1444 0.3673
C2A C 0.26563(18) 0.06558(11) 0.2601(3)
C3A C 0.36330(18) 0.04432(11) 0.3657(3)
C4F C 0.21843(18) 0.27341(10) 1.0297(3)
C5F C 0.1950(2) 0.35524(13) 1.2133(4)
H2F H 0.2226 0.3806 1.3029
C6F C 0.2552(2) 0.31195(12) 1.1639(4)
H3F H 0.3211 0.3085 1.2210
C7F C 0.1201(2) 0.28233(12) 0.9516(4)
H4F H 0.0913 0.2585 0.8586
C8A C 0.1178(2) 0.04821(13) 0.0445(4)
H5A H 0.0791 0.0242 -0.0366
C9A C 0.2080(2) 0.02989(12) 0.1380(4)
H6A H 0.2305 -0.0068 0.1190
C10A C 0.08649(19) 0.10231(13) 0.0736(4)
C11A C 0.1417(2) 0.13925(12) 0.1918(4)
H7A H 0.1191 0.1761 0.2080
C12F C 0.0646(2) 0.32625(12) 1.0107(4)
H8F H -0.0017 0.3306 0.9565
loop_
_geom_bond_atom_site_label_1
_geom_bond_atom_site_label_2
_geom_bond_site_symmetry_1
_geom_bond_site_symmetry_2
Mn1 O1 1_555 1_555
O1 C3 1_555 1_555
O2 C3 1_555 1_555
N1 Mn1 1_555 1_555
O3 N2 1_555 1_555
O4 N2 1_555 1_555
N2 C10 1_555 1_555
C1 H1 1_555 1_555
C2 C1 1_555 1_555
C3 C2 1_555 1_555
C4 C6 1_555 1_555
C5 N1 1_555 1_555
H2 C5 1_555 1_555
C6 C5 1_555 1_555
H3 C6 1_555 1_555
C7 C4 1_555 1_555
H4 C7 1_555 1_555
C8 H5 1_555 1_555
C9 C2 1_555 1_555
H6 C9 1_555 1_555
C10 C8 1_555 1_555
C11 C1 1_555 1_555
H7 C11 1_555 1_555
C12 N1 1_555 1_555
H8 C12 1_555 1_555
Mn1D O2A 1_555 1_555
Mn1D_2 O2 1_555 1_555
Mn1F N1F 1_555 1_555
O1A Mn1 1_555 1_555
O2A C3A 1_555 1_555
O2D Mn1 1_555 1_555
O2E Mn1 1_555 1_555
N1F C5F 1_555 1_555
N1A Mn1 1_555 1_555
O3A N2A 1_555 1_555
O4A N2A 1_555 1_555
N2A C10A 1_555 1_555
C1A H1A 1_555 1_555
C2A C1A 1_555 1_555
C3A O1A 1_555 1_555
C4F C4 1_555 1_555
C5F H2F 1_555 1_555
C6F C4F 1_555 1_555
H3F C6F 1_555 1_555
C7F C4F 1_555 1_555
H4F C7F 1_555 1_555
C8A H5A 1_555 1_555
C9A C2A 1_555 1_555
H6A C9A 1_555 1_555
C10A C8A 1_555 1_555
C11A C1A 1_555 1_555
H7A C11A 1_555 1_555
C12F N1F 1_555 1_555
H8F C12F 1_555 1_555
C7 C12 1_555 1_555
C8 C9 1_555 1_555
C10 C11 1_555 1_555
C2A C3A 1_555 1_555
C5F C6F 1_555 1_555
C7F C12F 1_555 1_555
C8A C9A 1_555 1_555
C10A C11A 1_555 1_555

#END
