
#######################################################################
#
#                 Cambridge Crystallographic Data Centre
#                                CCDC 
#
#######################################################################
#
# If this CIF has been generated from an entry in the Cambridge 
# Structural Database, then it will include bibliographic, chemical, 
# crystal, experimental, refinement or atomic coordinate data resulting 
# from the CCDC's data processing and validation procedures.
#
#######################################################################

data_PAMKIZ
_symmetry_cell_setting           monoclinic
_symmetry_space_group_name_H-M   'C 2/c'
_symmetry_Int_Tables_number      15
_space_group_name_Hall           '-C 2yn'
loop_
_symmetry_equiv_pos_site_id
_symmetry_equiv_pos_as_xyz
1 x,y,z
2 -x,y,1/2-z
3 1/2+x,1/2+y,z
4 1/2-x,1/2+y,1/2-z
5 -x,-y,-z
6 x,-y,1/2+z
7 1/2-x,1/2-y,-z
8 1/2+x,1/2-y,1/2+z
_cell_length_a                   20.088(13)
_cell_length_b                   11.676(7)
_cell_length_c                   9.961(6)
_cell_angle_alpha                90
_cell_angle_beta                 95.776(8)
_cell_angle_gamma                90
_cell_volume                     2324.47
loop_
_atom_site_label
_atom_site_type_symbol
_atom_site_fract_x
_atom_site_fract_y
_atom_site_fract_z
Mn1 Mn 0.0000 0.03416(6) 0.7500
O1 O 0.08201(17) 0.0503(2) 0.9043(3)
O2 O 0.07007(17) -0.0393(2) 1.0982(3)
N1 N 0.0000 -0.1632(4) 0.7500
N2 N 0.0000 -0.7685(4) 0.7500
C1 C 0.0945(2) 0.0380(3) 1.0285(4)
N3 N 0.2649(3) 0.1372(5) 1.4059(5)
C2 C 0.0000 -0.5292(4) 0.7500
C3 C 0.1425(2) 0.1198(4) 1.1006(4)
C4 C 0.0441(2) -0.3409(4) 0.8361(5)
H1 H 0.0754 -0.3789 0.8952
C5 C 0.1784(2) 0.0924(4) 1.2216(4)
H2 H 0.1720 0.0223 1.2628
C6 C 0.0416(2) -0.2228(4) 0.8346(5)
H3 H 0.0708 -0.1829 0.8964
O3 O 0.2464(3) 0.0553(4) 1.4702(5)
O4 O 0.3127(2) 0.1976(5) 1.4442(4)
C7 C 0.2241(2) 0.1701(4) 1.2810(5)
C8 C 0.0000 -0.4014(4) 0.7500
C9 C -0.0540(3) -0.5906(4) 0.7817(5)
H4 H -0.0923 -0.5529 0.8028
C10 C 0.1529(3) 0.2268(5) 1.0454(6)
H5 H 0.1300 0.2461 0.9627
C11 C -0.0517(3) -0.7098(4) 0.7826(5)
H6 H -0.0886 -0.7498 0.8075
C12 C 0.2334(4) 0.2764(5) 1.2276(6)
H7 H 0.2641 0.3275 1.2703
C13 C 0.1964(4) 0.3051(5) 1.1101(7)
H8 H 0.2005 0.3778 1.0735
Mn1_2 Mn 0.0000 -0.96584(6) 0.7500
Mn1D Mn 0.0000 -0.03416(6) 0.2500
Mn1D_2 Mn 0.0000 -0.03416(6) 1.2500
O1A O -0.08201(17) 0.0503(2) 0.5957(3)
O2A O -0.07007(17) -0.0393(2) 0.4018(3)
O2D O -0.07007(17) 0.0393(2) 0.9018(3)
O2E O 0.07007(17) 0.0393(2) 0.5982(3)
N2_2 N 0.0000 0.2315(4) 0.7500
C1A C -0.0945(2) 0.0380(3) 0.4715(4)
N3A N -0.2649(3) 0.1372(5) 0.0941(5)
C3A C -0.1425(2) 0.1198(4) 0.3994(4)
C4A C -0.0441(2) -0.3409(4) 0.6639(5)
H1A H -0.0754 -0.3789 0.6048
C5A C -0.1784(2) 0.0924(4) 0.2784(4)
H2A H -0.1720 0.0223 0.2372
C6A C -0.0416(2) -0.2228(4) 0.6654(5)
H3A H -0.0708 -0.1829 0.6036
O3A O -0.2464(3) 0.0553(4) 0.0298(5)
O4A O -0.3127(2) 0.1976(5) 0.0558(4)
C7A C -0.2241(2) 0.1701(4) 0.2190(5)
C9A C 0.0540(3) -0.5906(4) 0.7183(5)
H4A H 0.0923 -0.5529 0.6972
C10A C -0.1529(3) 0.2268(5) 0.4546(6)
H5A H -0.1300 0.2461 0.5373
C11A C 0.0517(3) -0.7098(4) 0.7174(5)
H6A H 0.0886 -0.7498 0.6925
C12A C -0.2334(4) 0.2764(5) 0.2724(6)
H7A H -0.2641 0.3275 0.2297
C13A C -0.1964(4) 0.3051(5) 0.3899(7)
H8A H -0.2005 0.3778 0.4265
loop_
_geom_bond_atom_site_label_1
_geom_bond_atom_site_label_2
_geom_bond_site_symmetry_1
_geom_bond_site_symmetry_2
Mn1 O1 1_555 1_555
O1 C1 1_555 1_555
O2 C1 1_555 1_555
N1 Mn1 1_555 1_555
N2 C11 1_555 1_555
C1 C3 1_555 1_555
N3 O3 1_555 1_555
C2 C8 1_555 1_555
C3 C5 1_555 1_555
C4 H1 1_555 1_555
C5 H2 1_555 1_555
C6 N1 1_555 1_555
H3 C6 1_555 1_555
O4 N3 1_555 1_555
C7 N3 1_555 1_555
C8 C4 1_555 1_555
C9 C2 1_555 1_555
H4 C9 1_555 1_555
C10 C3 1_555 1_555
H5 C10 1_555 1_555
C11 C9 1_555 1_555
H6 C11 1_555 1_555
C12 C7 1_555 1_555
H7 C12 1_555 1_555
C13 C10 1_555 1_555
H8 C13 1_555 1_555
Mn1_2 N2 1_555 1_555
Mn1D O2A 1_555 1_555
Mn1D_2 O2 1_555 1_555
O1A Mn1 1_555 1_555
O2A C1A 1_555 1_555
O2D Mn1 1_555 1_555
O2E Mn1 1_555 1_555
N2_2 Mn1 1_555 1_555
C1A O1A 1_555 1_555
N3A O3A 1_555 1_555
C3A C1A 1_555 1_555
C4A C8 1_555 1_555
H1A C4A 1_555 1_555
C5A C3A 1_555 1_555
H2A C5A 1_555 1_555
C6A N1 1_555 1_555
H3A C6A 1_555 1_555
O4A N3A 1_555 1_555
C7A N3A 1_555 1_555
C9A C2 1_555 1_555
H4A C9A 1_555 1_555
C10A C3A 1_555 1_555
H5A C10A 1_555 1_555
C11A N2 1_555 1_555
H6A C11A 1_555 1_555
C12A C7A 1_555 1_555
H7A C12A 1_555 1_555
C13A C10A 1_555 1_555
H8A C13A 1_555 1_555
C4 C6 1_555 1_555
C5 C7 1_555 1_555
C12 C13 1_555 1_555
C4A C6A 1_555 1_555
C5A C7A 1_555 1_555
C9A C11A 1_555 1_555
C12A C13A 1_555 1_555

#END
