
#######################################################################
#
#                 Cambridge Crystallographic Data Centre
#                                CCDC 
#
#######################################################################
#
# If this CIF has been generated from an entry in the Cambridge 
# Structural Database, then it will include bibliographic, chemical, 
# crystal, experimental, refinement or atomic coordinate data resulting 
# from the CCDC's data processing and validation procedures.
#
#######################################################################

data_PAMQIF
_symmetry_cell_setting           triclinic
_symmetry_space_group_name_H-M   'P -1'
_symmetry_Int_Tables_number      2
_space_group_name_Hall           '-P 1'
loop_
_symmetry_equiv_pos_site_id
_symmetry_equiv_pos_as_xyz
1 x,y,z
2 -x,-y,-z
_cell_length_a                   8.5224(7)
_cell_length_b                   10.6036(9)
_cell_length_c                   18.3452(14)
_cell_angle_alpha                103.901(7)
_cell_angle_beta                 92.165(6)
_cell_angle_gamma                111.942(7)
_cell_volume                     1477.64
loop_
_atom_site_label
_atom_site_type_symbol
_atom_site_fract_x
_atom_site_fract_y
_atom_site_fract_z
Cu1 Cu -0.7264(2) -0.19337(18) 0.29162(9)
Cu2 Cu -0.3849(2) -0.15804(18) 0.20151(9)
Cu3 Cu -0.6094(2) 0.06054(17) 0.45153(9)
Cu4 Cu -0.8527(2) -0.13770(18) -0.19597(9)
Cu5 Cu -1.6341(2) -0.93658(18) -0.03004(9)
Cu6 Cu -0.4661(2) 0.08667(19) 0.29105(10)
S1 S -1.1449(5) -0.2743(4) 0.6747(2)
S2 S -1.1108(5) -0.3129(4) 0.2012(2)
O1 O -0.8512(12) -0.2821(9) 0.3629(5)
O2 O -0.9285(12) -0.2373(11) 0.2207(6)
O3 O -0.5184(13) -0.2194(11) 0.3220(5)
O4 O -0.5866(11) -0.1041(9) 0.2179(4)
O5 O -0.6579(11) 0.0331(10) 0.3446(5)
O6 O -1.4745(12) -0.6685(10) -0.1286(5)
O7 O -0.2558(11) 0.0323(9) 0.2676(5)
O8 O -1.1907(15) -0.2134(12) 0.2259(6)
O9 O -0.2395(12) -0.0535(9) 0.1214(5)
O10 O -0.8215(12) -0.0887(9) 0.4571(6)
O11 O -1.4341(14) -0.7525(10) 0.4664(5)
O12 O -0.4605(10) -0.0902(9) 0.4390(5)
O13 O -0.9539(13) -0.2325(11) -0.1220(5)
O14 O -1.0140(13) -0.2948(9) 0.7196(5)
O15 O -0.5983(13) -0.1622(11) -0.1886(5)
O16 O -1.4565(14) -0.7558(11) -0.0303(6)
O17 O -0.8294(14) -0.0851(11) -0.0086(5)
O18 O -0.4967(14) -0.0831(10) -0.0676(5)
O19 O -1.3351(13) -0.7329(9) 0.3588(5)
O20 O -1.3154(13) -0.3498(14) 0.6855(6)
O21 O -1.0946(15) -0.1217(11) 0.6863(6)
O22 O -1.1811(18) -0.4379(11) 0.2248(6)
C1 C -1.0110(16) -0.3166(12) 0.4641(7)
C2 C -1.1122(17) -0.4510(13) 0.4283(7)
H1 H -1.1024 -0.4884 0.3782
C3 C -1.2323(18) -0.5362(16) 0.4645(7)
C4 C -1.2409(17) -0.4815(16) 0.5391(8)
H2 H -1.3218 -0.5357 0.5639
C5 C -1.1277(18) -0.3439(15) 0.5783(7)
C6 C -1.0155(16) -0.2594(13) 0.5407(7)
H3 H -0.9443 -0.1665 0.5657
C7 C -0.8868(18) -0.2176(18) 0.4248(9)
C8 C -1.3474(17) -0.6844(14) 0.4265(8)
C9 C -1.2833(16) -0.5198(12) -0.0190(8)
C10 C -1.1823(17) -0.4276(14) -0.0545(7)
H4 H -1.2007 -0.4505 -0.1072
C11 C -1.0502(16) -0.2982(13) -0.0142(7)
C12 C -1.0319(18) -0.2617(14) 0.0645(7)
H5 H -0.9511 -0.1743 0.0927
C13 C -1.1353(17) -0.3565(13) 0.1014(7)
C14 C -1.2600(17) -0.4864(14) 0.0581(7)
H6 H -1.3275 -0.5504 0.0825
C15 C -1.4164(18) -0.6614(13) -0.0608(10)
C16 C -0.9391(19) -0.1999(16) -0.0525(8)
C17 C -0.439(2) -0.1817(17) 0.3857(8)
C18 C -0.314(2) -0.234(2) 0.4014(10)
H7 H -0.2646 -0.1940 0.4538
H8 H -0.2257 -0.2091 0.3700
H9 H -0.3665 -0.3354 0.3908
C19 C -0.5019(17) -0.1577(15) -0.1337(8)
C20 C -0.395(3) -0.237(3) -0.1477(10)
H10 H -0.3286 -0.2238 -0.1009
H11 H -0.4653 -0.3357 -0.1686
H12 H -0.3195 -0.2045 -0.1829
Cu2A Cu -1.6151(2) -0.84196(18) -0.20151(9)
Cu2_2 Cu -1.3849(2) -0.15804(18) 0.20151(9)
Cu3_2 Cu -1.6094(2) -0.93946(17) 0.45153(9)
Cu3A Cu -0.3906(2) -0.06054(17) 0.54847(9)
Cu4A Cu -0.1473(2) 0.13770(18) 0.19597(9)
Cu4_2 Cu -0.8527(2) -0.13770(18) 0.80403(9)
Cu5A Cu -0.3659(2) -0.06342(18) 0.03004(9)
Cu5_2 Cu -0.6341(2) 0.06342(18) -0.03004(9)
Cu6A Cu -0.5339(2) -0.08667(19) -0.29105(10)
Cu6_2 Cu -1.4661(2) -0.91333(19) 0.29105(10)
O6A O -0.5255(12) -0.3315(10) 0.1286(5)
O7A O -0.7442(11) -0.0323(9) -0.2676(5)
O8_2 O -0.1907(15) -0.2134(12) 0.2259(6)
O9A O -0.7605(12) 0.0535(9) -0.1214(5)
O9A_2 O -1.7605(12) -0.9465(9) -0.1214(5)
O11_2 O -0.4341(14) 0.2475(10) 0.4664(5)
O12A O -0.5395(10) 0.0902(9) 0.5610(5)
O14_2 O -1.0140(13) -0.2948(9) -0.2804(5)
O15A O -0.4017(13) 0.1622(11) 0.1886(5)
O17_2 O -1.8294(14) -1.0851(11) -0.0086(5)
O18_2 O -1.4967(14) -1.0831(10) -0.0676(5)
O18A O -1.5033(14) -0.9169(10) 0.0676(5)
O19_2 O -0.3351(13) 0.2671(9) 0.3588(5)
loop_
_geom_bond_atom_site_label_1
_geom_bond_atom_site_label_2
_geom_bond_site_symmetry_1
_geom_bond_site_symmetry_2
Cu1 O1 1_555 1_555
Cu2 O4 1_555 1_555
Cu3 O5 1_555 1_555
Cu4 O13 1_555 1_555
Cu5 O16 1_555 1_555
Cu6 O4 1_555 1_555
S1 O14 1_555 1_555
S2 O2 1_555 1_555
O1 C7 1_555 1_555
O2 Cu1 1_555 1_555
O3 Cu1 1_555 1_555
O4 Cu1 1_555 1_555
O5 Cu1 1_555 1_555
O6 C15 1_555 1_555
O7 Cu2 1_555 1_555
O8 S2 1_555 1_555
O9 Cu2 1_555 1_555
O10 Cu3 1_555 1_555
O11 C8 1_555 1_555
O12 Cu3 1_555 1_555
O13 C16 1_555 1_555
O14 Cu4_2 1_555 1_555
O15 Cu4 1_555 1_555
O16 C15 1_555 1_555
O17 C16 1_555 1_555
O18 C19 1_555 1_555
O19 C8 1_555 1_555
O20 S1 1_555 1_555
O21 S1 1_555 1_555
O22 S2 1_555 1_555
C1 C2 1_555 1_555
C2 H1 1_555 1_555
C3 C2 1_555 1_555
C4 C3 1_555 1_555
H2 C4 1_555 1_555
C5 S1 1_555 1_555
C6 C1 1_555 1_555
H3 C6 1_555 1_555
C7 O10 1_555 1_555
C8 C3 1_555 1_555
C9 C10 1_555 1_555
C10 H4 1_555 1_555
C11 C10 1_555 1_555
C12 C11 1_555 1_555
H5 C12 1_555 1_555
C13 S2 1_555 1_555
C14 C9 1_555 1_555
H6 C14 1_555 1_555
C15 C9 1_555 1_555
C16 C11 1_555 1_555
C17 O3 1_555 1_555
C18 C17 1_555 1_555
H7 C18 1_555 1_555
H8 C18 1_555 1_555
H9 C18 1_555 1_555
C19 O15 1_555 1_555
C20 C19 1_555 1_555
H10 C20 1_555 1_555
H11 C20 1_555 1_555
H12 C20 1_555 1_555
Cu2A O6 1_555 1_555
Cu2_2 O8 1_555 1_555
Cu3_2 O11 1_555 1_555
Cu3A O12 1_555 1_555
Cu4A O7 1_555 1_555
Cu5A O9 1_555 1_555
Cu5_2 O17 1_555 1_555
Cu6A O15 1_555 1_555
Cu6_2 O19 1_555 1_555
O6A Cu2 1_555 1_555
O7A Cu4 1_555 1_555
O8_2 Cu2 1_555 1_555
O9A Cu4 1_555 1_555
O9A_2 Cu5 1_555 1_555
O11_2 Cu3 1_555 1_555
O12A Cu3 1_555 1_555
O14_2 Cu4 1_555 1_555
O15A Cu6 1_555 1_555
O17_2 Cu5 1_555 1_555
O18_2 Cu5 1_555 1_555
O18A Cu5 1_555 1_555
O19_2 Cu6 1_555 1_555
Cu6 O5 1_555 1_555
Cu6 O7 1_555 1_555
O9 Cu4A 1_555 1_555
O12 C17 1_555 1_555
O18 Cu5A 1_555 1_555
O18 Cu5_2 1_555 1_555
C1 C7 1_555 1_555
C4 C5 1_555 1_555
C5 C6 1_555 1_555
C12 C13 1_555 1_555
C13 C14 1_555 1_555
Cu2A O9A_2 1_555 1_555
Cu3A O12A 1_555 1_555
Cu4A O15A 1_555 1_555
Cu5_2 O9A 1_555 1_555
Cu6A O7A 1_555 1_555

#END
