
#######################################################################
#
#                 Cambridge Crystallographic Data Centre
#                                CCDC 
#
#######################################################################
#
# If this CIF has been generated from an entry in the Cambridge 
# Structural Database, then it will include bibliographic, chemical, 
# crystal, experimental, refinement or atomic coordinate data resulting 
# from the CCDC's data processing and validation procedures.
#
#######################################################################

data_PAMQEB
_symmetry_cell_setting           triclinic
_symmetry_space_group_name_H-M   'P -1'
_symmetry_Int_Tables_number      2
_space_group_name_Hall           '-P 1'
loop_
_symmetry_equiv_pos_site_id
_symmetry_equiv_pos_as_xyz
1 x,y,z
2 -x,-y,-z
_cell_length_a                   9.8550(10)
_cell_length_b                   10.2262(12)
_cell_length_c                   11.2271(12)
_cell_angle_alpha                87.016(9)
_cell_angle_beta                 64.142(10)
_cell_angle_gamma                68.121(10)
_cell_volume                     936.534
loop_
_atom_site_label
_atom_site_type_symbol
_atom_site_fract_x
_atom_site_fract_y
_atom_site_fract_z
Cu1 Cu 0.0000 0.0000 0.5000
Cu2 Cu -0.64817(6) 0.13500(6) 0.04814(6)
Cu3 Cu -0.05580(7) 0.17643(6) 0.27446(6)
O1 O -0.0976(4) 0.1803(3) 0.4542(3)
O2 O -0.0961(4) -0.0930(4) 0.4270(4)
O3 O -0.7832(4) 0.2424(3) -0.0334(3)
O4 O -0.5222(3) -0.0062(3) 0.1219(3)
O5 O -1.2228(4) 0.7290(3) -0.2119(3)
O6 O -0.1550(4) 0.0449(4) 0.2813(3)
O7 O -0.9589(4) 0.6381(3) -0.2623(4)
O8 O -0.9475(4) 0.1315(4) 0.0788(4)
O9 O -0.7369(4) -0.0445(4) 0.2735(3)
O10 O -1.4247(5) 0.2245(4) 0.0020(4)
O11 O -1.4748(5) 0.3698(5) -0.1322(5)
O12 O -0.6020(5) -0.3705(5) 0.6023(5)
O13 O -0.3711(7) -0.4164(7) 0.6020(7)
N1 N -0.4771(6) -0.3508(5) 0.5674(5)
N2 N -1.3932(5) 0.3089(5) -0.0761(5)
C1 C -0.2931(5) -0.1070(5) 0.3686(4)
C2 C -0.3821(5) -0.0599(5) 0.2974(4)
H1 H -0.3611 0.0053 0.2382
C3 C -0.5023(5) -0.1078(5) 0.3123(4)
C4 C -0.5330(5) -0.2059(5) 0.3997(5)
H2 H -0.6132 -0.2393 0.4113
C5 C -0.4411(6) -0.2526(5) 0.4691(5)
C6 C -0.3224(5) -0.2065(5) 0.4555(5)
H3 H -0.2622 -0.2408 0.5032
C7 C -0.5986(5) -0.0517(4) 0.2359(4)
C8 C -0.1712(5) -0.0472(5) 0.3591(5)
C9 C -1.0176(5) 0.2939(5) -0.0649(4)
C10 C -0.9933(5) 0.4064(4) -0.1330(5)
H4 H -0.9022 0.4255 -0.1486
C11 C -1.1043(5) 0.4910(5) -0.1783(5)
C12 C -1.2359(5) 0.4570(5) -0.1612(5)
H5 H -1.3104 0.5109 -0.1922
C13 C -1.2518(5) 0.3415(5) -0.0972(5)
C14 C -1.1482(5) 0.2598(5) -0.0471(5)
H6 H -1.1649 0.1839 -0.0025
C15 C -0.9088(5) 0.2165(5) -0.0023(5)
C16 C -1.0942(6) 0.6288(5) -0.2234(5)
Cu2A Cu 0.64817(6) -0.13500(6) 0.95186(6)
Cu2A_2 Cu -0.35183(6) -0.13500(6) -0.04814(6)
Cu2A_3 Cu -1.35183(6) 0.86500(6) -0.04814(6)
Cu2_2 Cu 0.35183(6) 0.13500(6) 1.04814(6)
Cu3A Cu 0.05580(7) -0.17643(6) 0.72554(6)
Cu3A_2 Cu -0.94420(7) 0.82357(6) -0.27446(6)
Cu3_2 Cu -1.05580(7) 0.17643(6) 0.27446(6)
O1A O 0.0976(4) -0.1803(3) 0.5458(3)
O2A O 0.0961(4) 0.0930(4) 0.5730(4)
O3A O -1.2168(4) 0.7576(3) 0.0334(3)
O3A_2 O 0.7832(4) -0.2424(3) 1.0334(3)
O4A O 0.5222(3) 0.0062(3) 0.8781(3)
O4A_2 O -0.4778(3) 0.0062(3) -0.1219(3)
O4_2 O 0.4778(3) -0.0062(3) 1.1219(3)
O5A O -0.7772(4) 0.2710(3) 0.2119(3)
O5_2 O 0.7772(4) -0.2710(3) 0.7881(3)
O6A O 0.1550(4) -0.0449(4) 0.7187(3)
O7A O -1.0411(4) 0.3619(3) 0.2623(4)
O7A_2 O -0.0411(4) 0.3619(3) 0.2623(4)
O7_2 O 0.0411(4) -0.3619(3) 0.7377(4)
O8A O -1.0525(4) 0.8685(4) -0.0788(4)
O8_2 O 0.0525(4) 0.1315(4) 0.0788(4)
O8A_2 O -0.0525(4) -0.1315(4) 0.9212(4)
O9A O 0.7369(4) 0.0445(4) 0.7265(3)
O10A O -0.5753(5) 0.7755(4) -0.0020(4)
O11A O -0.5252(5) 0.6302(5) 0.1322(5)
O12A O 0.6020(5) 0.3705(5) 0.3977(5)
O13A O 0.3711(7) 0.4164(7) 0.3980(7)
N1A N 0.4771(6) 0.3508(5) 0.4326(5)
N2A N -0.6068(5) 0.6911(5) 0.0761(5)
C1A C 0.2931(5) 0.1070(5) 0.6314(4)
C2A C 0.3821(5) 0.0599(5) 0.7026(4)
H1A H 0.3611 -0.0053 0.7618
C3A C 0.5023(5) 0.1078(5) 0.6877(4)
C4A C 0.5330(5) 0.2059(5) 0.6003(5)
H2A H 0.6132 0.2393 0.5887
C5A C 0.4411(6) 0.2526(5) 0.5309(5)
C6A C 0.3224(5) 0.2065(5) 0.5445(5)
H3A H 0.2622 0.2408 0.4968
C7A C 0.5986(5) 0.0517(4) 0.7641(4)
C8A C 0.1712(5) 0.0472(5) 0.6409(5)
C9A C -0.9824(5) 0.7061(5) 0.0649(4)
C10A C -1.0067(5) 0.5936(4) 0.1330(5)
H4A H -1.0978 0.5745 0.1486
C11A C -0.8957(5) 0.5090(5) 0.1783(5)
C12A C -0.7641(5) 0.5430(5) 0.1612(5)
H5A H -0.6896 0.4891 0.1922
C13A C -0.7482(5) 0.6585(5) 0.0972(5)
C14A C -0.8518(5) 0.7402(5) 0.0471(5)
H6A H -0.8351 0.8161 0.0025
C15A C -1.0912(5) 0.7835(5) 0.0023(5)
C16A C -0.9058(6) 0.3712(5) 0.2234(5)
loop_
_geom_bond_atom_site_label_1
_geom_bond_atom_site_label_2
_geom_bond_site_symmetry_1
_geom_bond_site_symmetry_2
Cu1 O1 1_555 1_555
Cu2 O3 1_555 1_555
Cu3 O1 1_555 1_555
O2 Cu1 1_555 1_555
O3 C15 1_555 1_555
O4 Cu2 1_555 1_555
O5 C16 1_555 1_555
O6 Cu3 1_555 1_555
O7 C16 1_555 1_555
O8 C15 1_555 1_555
O9 C7 1_555 1_555
O10 N2 1_555 1_555
O11 N2 1_555 1_555
O12 N1 1_555 1_555
O13 N1 1_555 1_555
N1 C5 1_555 1_555
N2 C13 1_555 1_555
C1 C2 1_555 1_555
C2 H1 1_555 1_555
C3 C2 1_555 1_555
C4 C3 1_555 1_555
H2 C4 1_555 1_555
C5 C4 1_555 1_555
C6 C1 1_555 1_555
H3 C6 1_555 1_555
C7 O4 1_555 1_555
C8 O2 1_555 1_555
C9 C10 1_555 1_555
C10 H4 1_555 1_555
C11 C10 1_555 1_555
C12 C11 1_555 1_555
H5 C12 1_555 1_555
C13 C12 1_555 1_555
C14 C9 1_555 1_555
H6 C14 1_555 1_555
C15 C9 1_555 1_555
C16 C11 1_555 1_555
Cu2A O3A_2 1_555 1_555
Cu2A_2 O4 1_555 1_555
Cu2A_3 O5 1_555 1_555
Cu2_2 O4A 1_555 1_555
Cu3A O1A 1_555 1_555
Cu3A_2 O7 1_555 1_555
Cu3_2 O8 1_555 1_555
O1A Cu1 1_555 1_555
O2A Cu1 1_555 1_555
O3A Cu2A_3 1_555 1_555
O4A Cu2A 1_555 1_555
O4A_2 Cu2 1_555 1_555
O4_2 Cu2A 1_555 1_555
O5A Cu2 1_555 1_555
O5_2 Cu2A 1_555 1_555
O6A Cu3A 1_555 1_555
O7A Cu3_2 1_555 1_555
O7A_2 Cu3 1_555 1_555
O7_2 Cu3A 1_555 1_555
O8A Cu3A_2 1_555 1_555
O8_2 Cu3 1_555 1_555
O8A_2 Cu3A 1_555 1_555
O9A C7A 1_555 1_555
O10A N2A 1_555 1_555
O11A N2A 1_555 1_555
O12A N1A 1_555 1_555
O13A N1A 1_555 1_555
N1A C5A 1_555 1_555
N2A C13A 1_555 1_555
C1A C2A 1_555 1_555
C2A H1A 1_555 1_555
C3A C2A 1_555 1_555
C4A C3A 1_555 1_555
H2A C4A 1_555 1_555
C5A C4A 1_555 1_555
C6A C1A 1_555 1_555
H3A C6A 1_555 1_555
C7A O4A 1_555 1_555
C8A O2A 1_555 1_555
C9A C10A 1_555 1_555
C10A H4A 1_555 1_555
C11A C10A 1_555 1_555
C12A C11A 1_555 1_555
H5A C12A 1_555 1_555
C13A C12A 1_555 1_555
C14A C9A 1_555 1_555
H6A C14A 1_555 1_555
C15A O3A 1_555 1_555
C16A O5A 1_555 1_555
O6 C8 1_555 1_555
C1 C8 1_555 1_555
C3 C7 1_555 1_555
C5 C6 1_555 1_555
C13 C14 1_555 1_555
Cu2A_2 O4A_2 1_555 1_555
Cu2_2 O4_2 1_555 1_555
O6A C8A 1_555 1_555
O7A C16A 1_555 1_555
O8A C15A 1_555 1_555
C1A C8A 1_555 1_555
C3A C7A 1_555 1_555
C5A C6A 1_555 1_555
C9A C15A 1_555 1_555
C11A C16A 1_555 1_555
C13A C14A 1_555 1_555

#END
