
#######################################################################
#
#                 Cambridge Crystallographic Data Centre
#                                CCDC 
#
#######################################################################
#
# If this CIF has been generated from an entry in the Cambridge 
# Structural Database, then it will include bibliographic, chemical, 
# crystal, experimental, refinement or atomic coordinate data resulting 
# from the CCDC's data processing and validation procedures.
#
#######################################################################

data_PAMTIH
_symmetry_cell_setting           orthorhombic
_symmetry_space_group_name_H-M   'P 21 21 21'
_symmetry_Int_Tables_number      19
_space_group_name_Hall           'P 2ac 2ab'
loop_
_symmetry_equiv_pos_site_id
_symmetry_equiv_pos_as_xyz
1 x,y,z
2 1/2-x,-y,1/2+z
3 1/2+x,1/2-y,-z
4 -x,1/2+y,1/2-z
_cell_length_a                   8.424(5)
_cell_length_b                   10.184(5)
_cell_length_c                   20.943(5)
_cell_angle_alpha                90
_cell_angle_beta                 90
_cell_angle_gamma                90
_cell_volume                     1796.7
loop_
_atom_site_label
_atom_site_type_symbol
_atom_site_fract_x
_atom_site_fract_y
_atom_site_fract_z
Cd1 Cd 0.39565(3) 1.16592(2) 0.476220(10)
O1 O 0.5386(3) 1.0173(3) 0.41388(14)
O2 O 0.9068(3) 1.1581(3) 0.45130(12)
O3 O 0.6659(2) 1.20439(19) 0.47974(10)
O4 O 0.3992(5) 1.0190(3) 0.55945(13)
O5 O 0.3919(5) 1.3086(3) 0.39172(15)
O6 O 0.1930(3) 1.0494(3) 0.43437(13)
C1 C 0.7602(5) 1.0274(5) 0.34145(19)
C2 C 0.7050(3) 1.0202(3) 0.40946(14)
C3 C 0.7612(3) 1.1352(3) 0.44931(15)
H1 H 0.485(5) 0.959(4) 0.396(2)
H2 H 0.72170 0.95240 0.31840
H3 H 0.87420 1.02830 0.34030
H4 H 0.72020 1.10610 0.32210
H5 H 0.74680 0.93930 0.42840
H6 H 0.355(9) 1.042(5) 0.5928(15)
H7 H 0.483(5) 1.003(4) 0.5767(19)
H8 H 0.328(5) 1.370(4) 0.397(2)
H9 H 0.471(5) 1.334(5) 0.3808(19)
H10 H 0.207(6) 1.031(5) 0.397(3)
H11 H 0.102(6) 1.090(4) 0.435(2)
Cd1B Cd 0.89565(3) 1.33408(2) 0.523780(10)
O2B O 0.4068(3) 1.3419(3) 0.54870(12)
O3B O 0.1659(2) 1.29561(19) 0.52026(10)
O7 O 0.1921(4) 0.5246(3) 0.3802(2)
O8 O 0.1833(3) 0.7044(2) 0.32076(16)
O9 O 0.4110(3) 0.80902(18) 0.35640(10)
O10 O 0.3233(3) 0.9322(3) 0.15389(12)
O11 O 0.3489(3) 0.8163(2) 0.24304(10)
O12 O 0.2017(3) 0.9432(2) 0.31277(11)
C4 C 0.4208(9) 0.6934(6) 0.4566(2)
C5 C 0.4039(5) 0.6836(3) 0.38512(17)
C6 C 0.2487(5) 0.6289(4) 0.3620(3)
C7 C 0.2292(7) 1.1406(4) 0.2499(2)
C8 C 0.1861(4) 0.9968(4) 0.25099(15)
C9 C 0.2925(4) 0.9128(4) 0.21004(16)
B1 B 0.2865(4) 0.8221(4) 0.31003(17)
H12 H 0.52350 0.72820 0.46690
H13 H 0.40950 0.60770 0.47520
H14 H 0.34000 0.75050 0.47320
H15 H 0.49050 0.62950 0.36830
H16 H 0.15700 1.18870 0.27650
H17 H 0.22270 1.17290 0.20690
H18 H 0.33550 1.15170 0.26560
H19 H 0.07600 0.98650 0.23670
loop_
_geom_bond_atom_site_label_1
_geom_bond_atom_site_label_2
_geom_bond_site_symmetry_1
_geom_bond_site_symmetry_2
Cd1 O1 1_555 1_555
O1 C2 1_555 1_555
O2 C3 1_555 1_555
O3 Cd1 1_555 1_555
O4 Cd1 1_555 1_555
O5 Cd1 1_555 1_555
O6 Cd1 1_555 1_555
C1 C2 1_555 1_555
C2 C3 1_555 1_555
C3 O3 1_555 1_555
O7 C6 1_555 1_555
O8 C6 1_555 1_555
O9 C5 1_555 1_555
O10 C9 1_555 1_555
O11 C9 1_555 1_555
O12 C8 1_555 1_555
C4 C5 1_555 1_555
C5 C6 1_555 1_555
C7 C8 1_555 1_555
C8 C9 1_555 1_555
B1 O8 1_555 1_555
H1 O1 1_555 1_555
H2 C1 1_555 1_555
H3 C1 1_555 1_555
H4 C1 1_555 1_555
H5 C2 1_555 1_555
H6 O4 1_555 1_555
H7 O4 1_555 1_555
H8 O5 1_555 1_555
H9 O5 1_555 1_555
H10 O6 1_555 1_555
H11 O6 1_555 1_555
H12 C4 1_555 1_555
H13 C4 1_555 1_555
H14 C4 1_555 1_555
H15 C5 1_555 1_555
H16 C7 1_555 1_555
H17 C7 1_555 1_555
H18 C7 1_555 1_555
H19 C8 1_555 1_555
Cd1B O2 1_555 1_555
O2B Cd1 1_555 1_555
O3B Cd1 1_555 1_555
O3 Cd1B 1_555 1_555
O9 B1 1_555 1_555
O11 B1 1_555 1_555
O12 B1 1_555 1_555

#END
