
#######################################################################
#
#                 Cambridge Crystallographic Data Centre
#                                CCDC 
#
#######################################################################
#
# If this CIF has been generated from an entry in the Cambridge 
# Structural Database, then it will include bibliographic, chemical, 
# crystal, experimental, refinement or atomic coordinate data resulting 
# from the CCDC's data processing and validation procedures.
#
#######################################################################

data_PAMYEI
_symmetry_cell_setting           monoclinic
_symmetry_space_group_name_H-M   'C 2/c'
_symmetry_Int_Tables_number      15
_space_group_name_Hall           '-C 2yn'
loop_
_symmetry_equiv_pos_site_id
_symmetry_equiv_pos_as_xyz
1 x,y,z
2 1/2+x,1/2+y,z
3 -x,y,1/2-z
4 1/2-x,1/2+y,1/2-z
5 -x,-y,-z
6 1/2-x,1/2-y,-z
7 x,-y,1/2+z
8 1/2+x,1/2-y,1/2+z
_cell_length_a                   27.937(9)
_cell_length_b                   8.828(3)
_cell_length_c                   19.072(6)
_cell_angle_alpha                90
_cell_angle_beta                 93.974(6)
_cell_angle_gamma                90
_cell_volume                     4692.38
loop_
_atom_site_label
_atom_site_type_symbol
_atom_site_fract_x
_atom_site_fract_y
_atom_site_fract_z
Cd1 Cd 0.5000 0.08102(6) 0.2500
Cd2 Cd 0.472933(15) -0.06082(4) 0.08080(2)
O1 O 0.54341(14) 0.0532(4) 0.15118(19)
O2 O 0.54618(14) 0.0309(4) 0.03773(18)
O3 O 0.45326(14) -0.1120(4) 0.20208(19)
O4 O 0.39604(16) -0.0930(5) 0.1184(2)
O5 O 0.45105(16) 0.1884(4) 0.08617(19)
O6 O 0.44646(16) 0.2425(4) 0.19963(19)
N1 N 0.50331(18) -0.2989(5) 0.0794(2)
C1 C 0.56446(19) 0.0749(6) 0.0965(3)
C2 C 0.6121(2) 0.1525(6) 0.1006(3)
C3 C 0.6301(2) 0.2155(7) 0.1630(3)
H1 H 0.6127 0.2093 0.2028
C4 C 0.6735(3) 0.2874(10) 0.1665(4)
H2 H 0.6855 0.3290 0.2089
C5 C 0.6999(3) 0.2994(9) 0.1083(4)
H3 H 0.7289 0.3518 0.1109
C6 C 0.6829(3) 0.2331(9) 0.0469(4)
H4 H 0.7008 0.2373 0.0076
C7 C 0.6393(2) 0.1603(8) 0.0427(3)
H5 H 0.6279 0.1159 0.0005
C8 C 0.4094(2) -0.1110(6) 0.1814(3)
C9 C 0.3720(2) -0.1354(7) 0.2332(3)
C10 C 0.3832(2) -0.2155(8) 0.2942(3)
H6 H 0.4144 -0.2503 0.3041
C11 C 0.3486(3) -0.2444(9) 0.3404(4)
H7 H 0.3561 -0.3019 0.3805
C12 C 0.3036(3) -0.1894(11) 0.3279(5)
H8 H 0.2803 -0.2075 0.3595
C13 C 0.2925(3) -0.1060(11) 0.2675(4)
H9 H 0.2618 -0.0665 0.2592
C14 C 0.3262(2) -0.0804(8) 0.2197(4)
H10 H 0.3182 -0.0265 0.1787
C15 C 0.4311(2) 0.2482(6) 0.1359(3)
C16 C 0.3854(2) 0.3339(6) 0.1197(3)
C17 C 0.3693(3) 0.4405(7) 0.1644(4)
H11 H 0.3872 0.4630 0.2060
C18 C 0.3268(3) 0.5144(9) 0.1480(5)
H12 H 0.3168 0.5895 0.1779
C19 C 0.2989(3) 0.4800(11) 0.0888(5)
H13 H 0.2699 0.5296 0.0785
C20 C 0.3145(3) 0.3704(11) 0.0446(4)
H14 H 0.2957 0.3451 0.0041
C21 C 0.3569(3) 0.2985(9) 0.0592(4)
H15 H 0.3670 0.2250 0.0286
C22 C 0.5361(2) -0.3480(5) 0.0385(3)
H16 H 0.5454 -0.2965 -0.0009
C23 C 0.5541(3) -0.4801(8) 0.0604(4)
H17 H 0.5775 -0.5356 0.0393
C24 C 0.5325(3) -0.5191(7) 0.1184(4)
H18 H 0.5378 -0.6057 0.1456
C25 C 0.5010(3) -0.4036(7) 0.1289(3)
H19 H 0.4808 -0.3992 0.1656
Cd2B Cd 0.527067(15) -0.06082(4) 0.41920(2)
Cd2D Cd 0.527067(15) 0.06082(4) -0.08080(2)
Cd2F Cd 0.472933(15) 0.06082(4) 0.58080(2)
O1B O 0.45659(14) 0.0532(4) 0.34882(19)
O2B O 0.45382(14) 0.0309(4) 0.46227(18)
O2D O 0.45382(14) -0.0309(4) -0.03773(18)
O2F O 0.54618(14) -0.0309(4) 0.53773(18)
O3B O 0.54674(14) -0.1120(4) 0.29792(19)
O4B O 0.60396(16) -0.0930(5) 0.3816(2)
O5B O 0.54895(16) 0.1884(4) 0.41383(19)
O6B O 0.55354(16) 0.2425(4) 0.30037(19)
N1B N 0.49669(18) -0.2989(5) 0.4206(2)
C1B C 0.43554(19) 0.0749(6) 0.4035(3)
C2B C 0.3879(2) 0.1525(6) 0.3994(3)
C3B C 0.3699(2) 0.2155(7) 0.3370(3)
H1B H 0.3873 0.2093 0.2972
C4B C 0.3265(3) 0.2874(10) 0.3335(4)
H2B H 0.3145 0.3290 0.2911
C5B C 0.3001(3) 0.2994(9) 0.3917(4)
H3B H 0.2711 0.3518 0.3891
C6B C 0.3171(3) 0.2331(9) 0.4531(4)
H4B H 0.2992 0.2373 0.4924
C7B C 0.3607(2) 0.1603(8) 0.4573(3)
H5B H 0.3721 0.1159 0.4995
C8B C 0.5906(2) -0.1110(6) 0.3186(3)
C9B C 0.6280(2) -0.1354(7) 0.2668(3)
C10B C 0.6168(2) -0.2155(8) 0.2058(3)
H6B H 0.5856 -0.2503 0.1959
C11B C 0.6514(3) -0.2444(9) 0.1596(4)
H7B H 0.6439 -0.3019 0.1195
C12B C 0.6964(3) -0.1894(11) 0.1721(5)
H8B H 0.7197 -0.2075 0.1405
C13B C 0.7075(3) -0.1060(11) 0.2325(4)
H9B H 0.7382 -0.0665 0.2408
C14B C 0.6738(2) -0.0804(8) 0.2803(4)
H10B H 0.6818 -0.0265 0.3213
C15B C 0.5689(2) 0.2482(6) 0.3641(3)
C16B C 0.6146(2) 0.3339(6) 0.3803(3)
C17B C 0.6307(3) 0.4405(7) 0.3356(4)
H11B H 0.6128 0.4630 0.2940
C18B C 0.6732(3) 0.5144(9) 0.3520(5)
H12B H 0.6832 0.5895 0.3221
C19B C 0.7011(3) 0.4800(11) 0.4112(5)
H13B H 0.7301 0.5296 0.4215
C20B C 0.6855(3) 0.3704(11) 0.4554(4)
H14B H 0.7043 0.3451 0.4959
C21B C 0.6431(3) 0.2985(9) 0.4408(4)
H15B H 0.6330 0.2250 0.4714
C22B C 0.4639(2) -0.3480(5) 0.4615(3)
H16B H 0.4546 -0.2965 0.5009
C23B C 0.4459(3) -0.4801(8) 0.4396(4)
H17B H 0.4225 -0.5356 0.4607
C24B C 0.4675(3) -0.5191(7) 0.3816(4)
H18B H 0.4622 -0.6057 0.3544
C25B C 0.4990(3) -0.4036(7) 0.3711(3)
H19B H 0.5192 -0.3992 0.3344
loop_
_geom_bond_atom_site_label_1
_geom_bond_atom_site_label_2
_geom_bond_site_symmetry_1
_geom_bond_site_symmetry_2
Cd1 O1 1_555 1_555
Cd2 O1 1_555 1_555
O1 C1 1_555 1_555
O2 Cd2 1_555 1_555
O3 Cd1 1_555 1_555
O4 Cd2 1_555 1_555
O5 Cd2 1_555 1_555
O6 Cd1 1_555 1_555
N1 Cd2 1_555 1_555
C1 O2 1_555 1_555
C2 C1 1_555 1_555
C3 C2 1_555 1_555
H1 C3 1_555 1_555
C4 C3 1_555 1_555
H2 C4 1_555 1_555
C5 C4 1_555 1_555
H3 C5 1_555 1_555
C6 C5 1_555 1_555
H4 C6 1_555 1_555
C7 C2 1_555 1_555
H5 C7 1_555 1_555
C8 O3 1_555 1_555
C9 C8 1_555 1_555
C10 C9 1_555 1_555
H6 C10 1_555 1_555
C11 C10 1_555 1_555
H7 C11 1_555 1_555
C12 C11 1_555 1_555
H8 C12 1_555 1_555
C13 C12 1_555 1_555
H9 C13 1_555 1_555
C14 C9 1_555 1_555
H10 C14 1_555 1_555
C15 O5 1_555 1_555
C16 C15 1_555 1_555
C17 C16 1_555 1_555
H11 C17 1_555 1_555
C18 C17 1_555 1_555
H12 C18 1_555 1_555
C19 C18 1_555 1_555
H13 C19 1_555 1_555
C20 C19 1_555 1_555
H14 C20 1_555 1_555
C21 C16 1_555 1_555
H15 C21 1_555 1_555
C22 N1 1_555 1_555
H16 C22 1_555 1_555
C23 C22 1_555 1_555
H17 C23 1_555 1_555
C24 C23 1_555 1_555
H18 C24 1_555 1_555
C25 N1 1_555 1_555
H19 C25 1_555 1_555
Cd2B O1B 1_555 1_555
Cd2D O2 1_555 1_555
Cd2F O2B 1_555 1_555
O1B Cd1 1_555 1_555
O2B Cd2B 1_555 1_555
O2D Cd2 1_555 1_555
O2F Cd2B 1_555 1_555
O3B Cd1 1_555 1_555
O4B Cd2B 1_555 1_555
O5B Cd2B 1_555 1_555
O6B Cd1 1_555 1_555
N1B Cd2B 1_555 1_555
C1B O1B 1_555 1_555
C2B C1B 1_555 1_555
C3B C2B 1_555 1_555
H1B C3B 1_555 1_555
C4B C3B 1_555 1_555
H2B C4B 1_555 1_555
C5B C4B 1_555 1_555
H3B C5B 1_555 1_555
C6B C5B 1_555 1_555
H4B C6B 1_555 1_555
C7B C2B 1_555 1_555
H5B C7B 1_555 1_555
C8B O3B 1_555 1_555
C9B C8B 1_555 1_555
C10B C9B 1_555 1_555
H6B C10B 1_555 1_555
C11B C10B 1_555 1_555
H7B C11B 1_555 1_555
C12B C11B 1_555 1_555
H8B C12B 1_555 1_555
C13B C12B 1_555 1_555
H9B C13B 1_555 1_555
C14B C9B 1_555 1_555
H10B C14B 1_555 1_555
C15B O5B 1_555 1_555
C16B C15B 1_555 1_555
C17B C16B 1_555 1_555
H11B C17B 1_555 1_555
C18B C17B 1_555 1_555
H12B C18B 1_555 1_555
C19B C18B 1_555 1_555
H13B C19B 1_555 1_555
C20B C19B 1_555 1_555
H14B C20B 1_555 1_555
C21B C16B 1_555 1_555
H15B C21B 1_555 1_555
C22B N1B 1_555 1_555
H16B C22B 1_555 1_555
C23B C22B 1_555 1_555
H17B C23B 1_555 1_555
C24B C23B 1_555 1_555
H18B C24B 1_555 1_555
C25B N1B 1_555 1_555
H19B C25B 1_555 1_555
Cd2 O3 1_555 1_555
O4 C8 1_555 1_555
O6 C15 1_555 1_555
C6 C7 1_555 1_555
C13 C14 1_555 1_555
C20 C21 1_555 1_555
C24 C25 1_555 1_555
Cd2B O3B 1_555 1_555
Cd2D O2D 1_555 1_555
Cd2F O2F 1_555 1_555
O2B C1B 1_555 1_555
O4B C8B 1_555 1_555
O6B C15B 1_555 1_555
C6B C7B 1_555 1_555
C13B C14B 1_555 1_555
C20B C21B 1_555 1_555
C24B C25B 1_555 1_555

#END
