
#######################################################################
#
#                 Cambridge Crystallographic Data Centre
#                                CCDC 
#
#######################################################################
#
# If this CIF has been generated from an entry in the Cambridge 
# Structural Database, then it will include bibliographic, chemical, 
# crystal, experimental, refinement or atomic coordinate data resulting 
# from the CCDC's data processing and validation procedures.
#
#######################################################################

data_PAMZOU
_symmetry_cell_setting           monoclinic
_symmetry_space_group_name_H-M   'C 2/c'
_symmetry_Int_Tables_number      15
_space_group_name_Hall           '-C 2yn'
loop_
_symmetry_equiv_pos_site_id
_symmetry_equiv_pos_as_xyz
1 x,y,z
2 -x,y,1/2-z
3 1/2+x,1/2+y,z
4 1/2-x,1/2+y,1/2-z
5 -x,-y,-z
6 x,-y,1/2+z
7 1/2-x,1/2-y,-z
8 1/2+x,1/2-y,1/2+z
_cell_length_a                   35.228(10)
_cell_length_b                   48.288(13)
_cell_length_c                   22.061(6)
_cell_angle_alpha                90
_cell_angle_beta                 124.400(4)
_cell_angle_gamma                90
_cell_volume                     30964.6
loop_
_atom_site_label
_atom_site_type_symbol
_atom_site_fract_x
_atom_site_fract_y
_atom_site_fract_z
C1 C 0.3062(5) 0.09103(19) 0.8540(6)
C2 C 0.3087(5) 0.0989(3) 0.7908(7)
C3 C 0.2967(11) 0.0707(4) 0.7414(14)
H1 H 0.2663 0.0639 0.7259
H2 H 0.3199 0.0566 0.7709
H3 H 0.2967 0.0750 0.6980
C4 C 0.2698(6) 0.1164(4) 0.7378(10)
H4 H 0.2416 0.1095 0.7317
H5 H 0.2662 0.1158 0.6905
H6 H 0.2754 0.1355 0.7559
C5 C 0.3562(6) 0.1028(5) 0.8105(8)
H7 H 0.3761 0.0881 0.8445
H8 H 0.3679 0.1208 0.8340
H9 H 0.3560 0.1018 0.7659
C6 C 0.2151(5) 0.0415(2) 0.9868(7)
C7 C 0.1895(7) 0.0437(3) 1.0215(14)
C8 C 0.1709(5) 0.0139(3) 1.0155(9)
H10 H 0.1967 0.0009 1.0411
H11 H 0.1506 0.0086 0.9637
H12 H 0.1536 0.0134 1.0381
C9 C 0.1500(6) 0.0634(4) 0.9814(11)
H13 H 0.1300 0.0579 0.9297
H14 H 0.1617 0.0822 0.9848
H15 H 0.1325 0.0631 1.0035
C10 C 0.2151(7) 0.0547(3) 1.0988(9)
H16 H 0.2416 0.0428 1.1313
H17 H 0.1945 0.0549 1.1155
H18 H 0.2257 0.0736 1.1000
C11 C 0.2287(5) 0.0141(3) 0.8383(8)
C12 C 0.2114(6) -0.0038(4) 0.7657(10)
C13 C 0.1952(5) -0.0318(3) 0.7803(8)
H19 H 0.2207 -0.0401 0.8261
H20 H 0.1854 -0.0446 0.7394
H21 H 0.1694 -0.0283 0.7845
C14 C 0.1734(5) 0.0088(3) 0.6966(6)
H22 H 0.1828 0.0271 0.6904
H23 H 0.1463 0.0107 0.6983
H24 H 0.1658 -0.0031 0.6551
C15 C 0.2613(8) -0.0137(4) 0.7739(12)
H25 H 0.2831 -0.0214 0.8231
H26 H 0.2751 0.0025 0.7665
H27 H 0.2540 -0.0278 0.7369
C16 C 0.3706(5) 0.0443(3) 1.1425(6)
C17 C 0.4010(7) 0.0452(4) 1.2283(12)
C18 C 0.3624(7) 0.0434(4) 1.2414(8)
H28 H 0.3452 0.0261 1.2206
H29 H 0.3414 0.0592 1.2176
H30 H 0.3759 0.0439 1.2943
C19 C 0.4275(7) 0.0695(3) 1.2625(7)
H31 H 0.4100 0.0857 1.2334
H32 H 0.4563 0.0683 1.2656
H33 H 0.4343 0.0711 1.3120
C20 C 0.4189(6) 0.0176(3) 1.2521(7)
H34 H 0.3982 0.0043 1.2140
H35 H 0.4212 0.0134 1.2976
H36 H 0.4494 0.0164 1.2611
C21 C 0.3430(7) -0.0654(3) 1.1018(9)
H37 H 0.3710 -0.0744 1.1375
C22 C 0.1042(5) 0.1230(4) 0.7023(9)
C23 C 0.2594(5) -0.1673(2) 1.0931(8)
H38 H 0.2302 -0.1598 1.0566
C24 C 0.2969(6) -0.1536(3) 1.1114(7)
C25 C 0.3377(4) -0.1659(2) 1.1619(6)
H39 H 0.3657 -0.1570 1.1761
C26 C 0.2855(6) -0.1244(3) 1.0737(8)
H40 H 0.2551 -0.1194 1.0349
C27 C 0.3174(6) -0.1087(3) 1.0967(9)
H41 H 0.3487 -0.1139 1.1295
C28 C -0.0502(5) 0.1774(3) 0.4365(9)
H42 H -0.0656 0.1728 0.3860
C29 C -0.0113(6) 0.1634(3) 0.4886(9)
H43 H 0.0030 0.1504 0.4750
C30 C -0.0091(5) 0.1899(4) 0.5794(9)
H44 H 0.0063 0.1955 0.6292
C31 C -0.0460(5) 0.2033(3) 0.5286(9)
H45 H -0.0583 0.2173 0.5430
C32 C 0.0486(6) 0.1584(4) 0.6386(11)
H46 H 0.0589 0.1664 0.6849
C33 C 0.0646(5) 0.1399(3) 0.6301(10)
H47 H 0.0552 0.1344 0.5822
C34 C 0.2960(10) -0.3655(4) 1.2058(14)
H48 H 0.3208 -0.3563 1.2057
H49 H 0.2674 -0.3550 1.1750
H50 H 0.2918 -0.3843 1.1864
C35 C 0.2696(5) -0.3816(2) 1.2766(8)
H51 H 0.2754 -0.3830 1.3254
H52 H 0.2670 -0.4002 1.2569
H53 H 0.2410 -0.3714 1.2438
C36 C 0.3131(5) -0.2818(3) 1.4450(9)
C37 C 0.3234(8) -0.2700(4) 1.5176(8)
C38 C 0.2895(7) -0.2792(3) 1.5281(10)
H54 H 0.2595 -0.2717 1.4892
H55 H 0.2972 -0.2728 1.5760
H56 H 0.2883 -0.2995 1.5265
C39 C 0.3326(12) -0.2419(5) 1.5227(18)
H57 H 0.3582 -0.2387 1.5176
H58 H 0.3410 -0.2350 1.5705
H59 H 0.3053 -0.2320 1.4834
C40 C 0.3677(7) -0.2802(9) 1.5831(11)
H60 H 0.3928 -0.2757 1.5778
H61 H 0.3661 -0.3003 1.5872
H62 H 0.3734 -0.2713 1.6275
C41 C 0.2276(4) -0.2224(2) 1.2570(5)
C42 C 0.2002(5) -0.1993(2) 1.2586(7)
C43 C 0.1563(4) -0.2110(3) 1.2536(7)
H63 H 0.1363 -0.2207 1.2067
H64 H 0.1394 -0.1956 1.2567
H65 H 0.1662 -0.2239 1.2942
C44 C 0.1872(4) -0.1799(2) 1.1964(6)
H66 H 0.1669 -0.1895 1.1495
H67 H 0.2150 -0.1738 1.2004
H68 H 0.1711 -0.1638 1.1988
C45 C 0.2321(5) -0.1848(3) 1.3317(8)
H69 H 0.2156 -0.1695 1.3364
H70 H 0.2588 -0.1775 1.3339
H71 H 0.2424 -0.1980 1.3719
C46 C 0.4504(6) -0.2069(3) 1.5250(7)
H72 H 0.4747 -0.2174 1.5264
H73 H 0.4351 -0.2189 1.5408
H74 H 0.4639 -0.1910 1.5581
C47 C 0.3853(5) -0.2724(2) 1.2586(7)
C48 C 0.4093(6) -0.2822(4) 1.2232(10)
C49 C 0.4192(6) -0.2578(3) 1.1914(9)
H75 H 0.4497 -0.2503 1.2284
H76 H 0.3959 -0.2434 1.1770
H77 H 0.4184 -0.2637 1.1482
C50 C 0.4480(6) -0.3022(4) 1.2615(9)
H78 H 0.4370 -0.3197 1.2687
H79 H 0.4723 -0.2946 1.3093
H80 H 0.4602 -0.3055 1.2317
C51 C 0.3723(9) -0.2944(6) 1.1471(12)
H81 H 0.3611 -0.3120 1.1536
H82 H 0.3858 -0.2976 1.1191
H83 H 0.3466 -0.2814 1.1204
O1 O 0.2056(2) 0.05741(14) 0.9358(4)
O2 O 0.2472(3) 0.02494(15) 1.0129(4)
O3 O 0.2193(3) 0.03942(15) 0.8238(4)
O4 O 0.2547(3) 0.00342(13) 0.8990(4)
O5 O 0.3451(3) 0.02508(15) 1.1081(4)
O6 O 0.2750(3) -0.28352(15) 1.3881(4)
O7 O 0.3499(3) -0.28615(15) 1.4484(4)
O8 O 0.3929(3) -0.28494(16) 1.3099(5)
O9 O 0.3534(3) -0.25355(15) 1.2258(4)
C52 C 0.2888(5) 0.1162(2) 1.0065(6)
C53 C 0.2855(4) 0.1396(2) 1.0520(6)
C54 C 0.2355(4) 0.1444(2) 1.0266(6)
H84 H 0.2178 0.1516 0.9762
H85 H 0.2348 0.1579 1.0591
H86 H 0.2221 0.1269 1.0281
C55 C 0.3125(4) 0.16521(19) 1.0523(6)
H87 H 0.2972 0.1725 1.0022
H88 H 0.3440 0.1597 1.0705
H89 H 0.3133 0.1796 1.0844
C56 C 0.3093(4) 0.1281(2) 1.1303(6)
H90 H 0.3417 0.1244 1.1505
H91 H 0.2942 0.1109 1.1291
H92 H 0.3072 0.1417 1.1612
C57 C 0.3799(6) 0.0159(3) 0.9942(7)
C58 C 0.4191(6) 0.0008(3) 0.9945(10)
C59 C 0.4053(5) -0.0279(3) 0.9675(10)
H93 H 0.3994 -0.0381 0.9997
H94 H 0.4301 -0.0370 0.9673
H95 H 0.3774 -0.0276 0.9174
C60 C 0.4175(8) 0.0138(5) 0.9295(11)
H96 H 0.3870 0.0108 0.8842
H97 H 0.4409 0.0051 0.9249
H98 H 0.4235 0.0337 0.9379
C61 C 0.4633(5) 0.0075(4) 1.0560(10)
H99 H 0.4676 -0.0004 1.1004
H100 H 0.4667 0.0277 1.0611
H101 H 0.4866 -0.0001 1.0494
C62 C 0.3407(5) -0.0386(3) 1.0818(7)
H102 H 0.3687 -0.0287 1.1022
C63 C 0.3009(8) -0.0785(3) 1.0656(9)
C64 C 0.2593(7) -0.0667(3) 1.0157(9)
H103 H 0.2317 -0.0773 0.9929
C65 C 0.2584(5) -0.0390(3) 0.9992(7)
H104 H 0.2300 -0.0299 0.9656
C66 C 0.1627(6) 0.0908(3) 0.7365(9)
H105 H 0.1783 0.0790 0.7229
C67 C 0.1244(6) 0.1059(4) 0.6778(11)
H106 H 0.1142 0.1044 0.6278
C68 C 0.1220(5) 0.1245(3) 0.7794(8)
H107 H 0.1083 0.1370 0.7951
C69 C 0.1590(4) 0.1081(2) 0.8313(6)
H108 H 0.1694 0.1088 0.8815
C70 C 0.4364(5) 0.1186(2) 1.1166(6)
H109 H 0.4193 0.1214 1.1374
C71 C 0.4738(4) 0.1329(3) 1.1447(7)
H110 H 0.4834 0.1458 1.1835
C72 C 0.4984(5) 0.1286(2) 1.1160(8)
C73 C 0.4842(4) 0.1099(3) 1.0583(7)
H111 H 0.5014 0.1072 1.0378
C74 C 0.4444(4) 0.0960(2) 1.0334(6)
H112 H 0.4342 0.0828 0.9951
C75 C 0.5400(5) 0.1432(3) 1.1384(7)
H113 H 0.5538 0.1388 1.1130
C76 C 0.5605(4) 0.1616(3) 1.1898(6)
H114 H 0.5473 0.1668 1.2155
C77 C 0.6658(5) 0.2058(2) 1.2833(5)
H115 H 0.6788 0.2198 1.3201
C78 C 0.6230(4) 0.1954(3) 1.2608(7)
H116 H 0.6077 0.2028 1.2814
C79 C 0.6018(5) 0.1742(3) 1.2085(7)
C80 C 0.6293(4) 0.1657(2) 1.1837(5)
H117 H 0.6176 0.1513 1.1482
C81 C 0.6719(4) 0.1766(2) 1.2066(6)
H118 H 0.6878 0.1693 1.1869
C82 C 0.2615(4) -0.1924(2) 1.1260(6)
H119 H 0.2337 -0.2015 1.1113
C83 C 0.3390(5) -0.1923(2) 1.1944(6)
H120 H 0.3676 -0.2010 1.2283
C84 C 0.0070(6) 0.1689(3) 0.5632(11)
C85 C 0.3117(5) -0.3356(3) 1.3072(7)
C86 C 0.3082(6) -0.3667(2) 1.2820(12)
C87 C 0.3512(7) -0.3798(4) 1.3474(15)
H121 H 0.3785 -0.3707 1.3550
H122 H 0.3518 -0.3995 1.3381
H123 H 0.3511 -0.3774 1.3914
C88 C 0.2304(4) -0.2763(3) 1.1341(7)
C89 C 0.2074(6) -0.2882(4) 1.0553(11)
C90 C 0.1794(7) -0.3138(4) 1.0445(8)
H124 H 0.1885 -0.3210 1.0924
H125 H 0.1849 -0.3280 1.0184
H126 H 0.1466 -0.3090 1.0156
C91 C 0.2023(5) -0.2711(3) 1.0038(7)
H127 H 0.1875 -0.2810 0.9570
H128 H 0.2325 -0.2644 1.0181
H129 H 0.1830 -0.2554 0.9985
C92 C 0.2534(6) -0.3050(5) 1.0771(12)
H130 H 0.2617 -0.3182 1.1166
H131 H 0.2787 -0.2920 1.0937
H132 H 0.2475 -0.3152 1.0341
C93 C 0.3837(5) -0.2210(2) 1.3883(8)
C94 C 0.4163(5) -0.1971(3) 1.4489(9)
C95 C 0.3802(5) -0.1814(3) 1.4532(9)
H133 H 0.3564 -0.1742 1.4044
H134 H 0.3950 -0.1659 1.4877
H135 H 0.3661 -0.1939 1.4701
C96 C 0.4320(5) -0.1820(2) 1.4081(7)
H136 H 0.4051 -0.1755 1.3610
H137 H 0.4503 -0.1944 1.3992
H138 H 0.4507 -0.1661 1.4372
Fe1 Fe 0.29934(6) 0.01864(3) 0.99905(8)
Fe2 Fe 0.24179(5) 0.07138(3) 0.89593(7)
Fe3 Fe 0.36664(5) -0.28414(3) 1.37239(8)
Fe4 Fe 0.30604(5) -0.23897(3) 1.24319(8)
N1 N 0.4186(3) 0.09984(19) 1.0604(6)
N2 N 0.2995(5) -0.02470(16) 1.0326(6)
N3 N 0.1799(3) 0.09127(17) 0.8108(6)
N4 N 0.6911(3) 0.19726(19) 1.2557(5)
N5 N 0.3011(4) -0.20367(17) 1.1769(6)
N6 N -0.0665(3) 0.1980(2) 0.4587(7)
O10 O 0.3285(2) 0.10998(12) 1.0253(3)
O11 O 0.29813(19) 0.05515(10) 0.9694(3)
O12 O 0.2524(3) 0.10534(14) 0.9570(4)
O13 O 0.30904(18) -0.26953(10) 1.3010(3)
O14 O 0.3421(3) 0.08673(13) 0.9144(4)
O15 O 0.2649(3) 0.08825(15) 0.8397(4)
O16 O 0.3769(2) 0.06627(15) 1.1157(4)
O17 O 0.3490(3) 0.00542(19) 0.9892(6)
O18 O 0.3903(2) 0.04303(17) 1.0110(4)
O19 O 0.2241(2) -0.28807(13) 1.1735(3)
O20 O 0.2566(2) -0.25560(13) 1.1452(3)
O21 O 0.2212(2) -0.24754(14) 1.2688(4)
O22 O 0.2583(2) -0.21772(13) 1.2470(4)
O23 O 0.2738(3) -0.32496(12) 1.2883(4)
O24 O 0.3489(3) -0.32400(14) 1.3399(4)
O25 O 0.3969(2) -0.24582(16) 1.4176(4)
O26 O 0.3546(3) -0.21564(15) 1.3268(4)
Ni1 Ni 0.35334(5) 0.07528(3) 1.01097(8)
Ni2 Ni 0.75429(5) 0.21564(3) 1.28260(7)
C28B C 0.4498(5) -0.3226(3) 1.4365(9)
C28_2 C 0.9498(5) 0.1774(3) 1.4365(9)
H42B H 0.4344 -0.3272 1.3860
C29B C 0.4887(6) -0.3366(3) 1.4886(9)
H43B H 0.5030 -0.3496 1.4750
C30B C 0.4909(5) -0.3101(4) 1.5794(9)
H44B H 0.5063 -0.3045 1.6292
C31B C 0.4540(5) -0.2967(3) 1.5286(9)
C31_2 C 0.9540(5) 0.2033(3) 1.5286(9)
H45B H 0.4417 -0.2827 1.5430
C34B C 0.7960(10) 0.1345(4) 1.2058(14)
C35B C 0.7696(5) 0.1184(2) 1.2766(8)
C36B C 0.8131(5) 0.2182(3) 1.4450(9)
C36B_2 C -0.1869(5) 0.2182(3) 0.4450(9)
C37B C 0.8234(8) 0.2300(4) 1.5176(8)
C37B_2 C -0.1766(8) 0.2300(4) 0.5176(8)
C38B C 0.7895(7) 0.2208(3) 1.5281(10)
C39B C 0.8326(12) 0.2581(5) 1.5227(18)
C40B C 0.8677(7) 0.2198(9) 1.5831(11)
C41B C 0.7276(4) 0.2776(2) 1.2570(5)
C42B C 0.7002(5) 0.3007(2) 1.2586(7)
C43B C 0.6563(4) 0.2890(3) 1.2536(7)
C44B C 0.6872(4) 0.3201(2) 1.1964(6)
C45B C 0.7321(5) 0.3152(3) 1.3317(8)
C47B C -0.1147(5) 0.2276(2) 0.2586(7)
C47B_2 C 0.8853(5) 0.2276(2) 1.2586(7)
C48B C -0.0907(6) 0.2178(4) 0.2232(10)
O6B O 0.7750(3) 0.21648(15) 1.3881(4)
O6B_2 O -0.2250(3) 0.21648(15) 0.3881(4)
O7B O -0.1501(3) 0.21385(15) 0.4484(4)
O7B_2 O 0.8499(3) 0.21385(15) 1.4484(4)
O8B O -0.1071(3) 0.21506(16) 0.3099(5)
O8B_2 O 0.8929(3) 0.21506(16) 1.3099(5)
O9B O 0.8534(3) 0.24645(15) 1.2258(4)
O9B_2 O -0.1466(3) 0.24645(15) 0.2258(4)
C77B C 0.1658(5) -0.2942(2) 1.2833(5)
H115B H 0.1788 -0.2802 1.3201
C78B C 0.1230(4) -0.3046(3) 1.2608(7)
H116B H 0.1077 -0.2972 1.2814
C79B C 0.1018(5) -0.3258(3) 1.2085(7)
C80B C 0.1293(4) -0.3343(2) 1.1837(5)
H117B H 0.1176 -0.3487 1.1482
C81B C 0.1719(4) -0.3234(2) 1.2066(6)
H118B H 0.1878 -0.3307 1.1869
C82B C 0.7615(4) 0.3076(2) 1.1260(6)
C83B C 0.8390(5) 0.3077(2) 1.1944(6)
C84B C 0.5070(6) -0.3311(3) 1.5632(11)
C85B C 0.8117(5) 0.1644(3) 1.3072(7)
C85B_2 C -0.1883(5) 0.1644(3) 0.3072(7)
C86B C 0.8082(6) 0.1333(2) 1.2820(12)
C86B_2 C -0.1918(6) 0.1333(2) 0.2820(12)
C87B C 0.8512(7) 0.1202(4) 1.3474(15)
C88B C 0.7304(4) 0.2237(3) 1.1341(7)
C89B C 0.7074(6) 0.2118(4) 1.0553(11)
C90B C 0.6794(7) 0.1862(4) 1.0445(8)
C91B C 0.7023(5) 0.2289(3) 1.0038(7)
C92B C 0.7534(6) 0.1950(5) 1.0771(12)
C93B C -0.1163(5) 0.2790(2) 0.3883(8)
C93B_2 C 0.8837(5) 0.2790(2) 1.3883(8)
C94B C -0.0837(5) 0.3029(3) 0.4489(9)
Fe3B Fe -0.13336(5) 0.21586(3) 0.37239(8)
Fe3B_2 Fe 0.86664(5) 0.21586(3) 1.37239(8)
Fe4B Fe 0.80604(5) 0.26103(3) 1.24319(8)
Fe4B_2 Fe -0.19396(5) 0.26103(3) 0.24319(8)
N4B N 0.1911(3) -0.30274(19) 1.2557(5)
N4_2 N -0.3089(3) 0.19726(19) 0.2557(5)
N5B N 0.8011(4) 0.29633(17) 1.1769(6)
N5B_2 N -0.1989(4) 0.29633(17) 0.1769(6)
N6B N 0.4335(3) -0.3020(2) 1.4587(7)
N6_2 N 0.9335(3) 0.1980(2) 1.4587(7)
O13B O 0.80904(18) 0.23047(10) 1.3010(3)
O13B_2 O -0.19096(18) 0.23047(10) 0.3010(3)
O19B O 0.7241(2) 0.21193(13) 1.1735(3)
O19B_2 O -0.2759(2) 0.21193(13) 0.1735(3)
O20B O 0.7566(2) 0.24440(13) 1.1452(3)
O20B_2 O -0.2434(2) 0.24440(13) 0.1452(3)
O21B O 0.7212(2) 0.25246(14) 1.2688(4)
O21B_2 O -0.2788(2) 0.25246(14) 0.2688(4)
O22B O 0.7583(2) 0.28228(13) 1.2470(4)
O22B_2 O -0.2417(2) 0.28228(13) 0.2470(4)
O23B O 0.7738(3) 0.17504(12) 1.2883(4)
O23B_2 O -0.2262(3) 0.17504(12) 0.2883(4)
O24B O -0.1511(3) 0.17600(14) 0.3399(4)
O24B_2 O 0.8489(3) 0.17600(14) 1.3399(4)
O25B O -0.1031(2) 0.25418(16) 0.4176(4)
O25B_2 O 0.8969(2) 0.25418(16) 1.4176(4)
O26B O 0.8546(3) 0.28436(15) 1.3268(4)
O26B_2 O -0.1454(3) 0.28436(15) 0.3268(4)
Ni2B Ni 0.25429(5) -0.28436(3) 1.28260(7)
Ni2_2 Ni -0.24571(5) 0.21564(3) 0.28260(7)
loop_
_geom_bond_atom_site_label_1
_geom_bond_atom_site_label_2
_geom_bond_site_symmetry_1
_geom_bond_site_symmetry_2
C1 C2 1_555 1_555
C2 C3 1_555 1_555
C3 H1 1_555 1_555
H2 C3 1_555 1_555
H3 C3 1_555 1_555
C4 C2 1_555 1_555
H4 C4 1_555 1_555
H5 C4 1_555 1_555
H6 C4 1_555 1_555
C5 C2 1_555 1_555
H7 C5 1_555 1_555
H8 C5 1_555 1_555
H9 C5 1_555 1_555
C6 C7 1_555 1_555
C7 C8 1_555 1_555
C8 H10 1_555 1_555
H11 C8 1_555 1_555
H12 C8 1_555 1_555
C9 C7 1_555 1_555
H13 C9 1_555 1_555
H14 C9 1_555 1_555
H15 C9 1_555 1_555
C10 C7 1_555 1_555
H16 C10 1_555 1_555
H17 C10 1_555 1_555
H18 C10 1_555 1_555
C11 C12 1_555 1_555
C12 C13 1_555 1_555
C13 H19 1_555 1_555
H20 C13 1_555 1_555
H21 C13 1_555 1_555
C14 C12 1_555 1_555
H22 C14 1_555 1_555
H23 C14 1_555 1_555
H24 C14 1_555 1_555
C15 C12 1_555 1_555
H25 C15 1_555 1_555
H26 C15 1_555 1_555
H27 C15 1_555 1_555
C16 C17 1_555 1_555
C17 C18 1_555 1_555
C18 H28 1_555 1_555
H29 C18 1_555 1_555
H30 C18 1_555 1_555
C19 C17 1_555 1_555
H31 C19 1_555 1_555
H32 C19 1_555 1_555
H33 C19 1_555 1_555
C20 C17 1_555 1_555
H34 C20 1_555 1_555
H35 C20 1_555 1_555
H36 C20 1_555 1_555
C21 H37 1_555 1_555
C22 C33 1_555 1_555
C23 H38 1_555 1_555
C24 C23 1_555 1_555
C25 C24 1_555 1_555
H39 C25 1_555 1_555
C26 C24 1_555 1_555
H40 C26 1_555 1_555
C27 C26 1_555 1_555
H41 C27 1_555 1_555
C28 H42 1_555 1_555
C29 C28 1_555 1_555
H43 C29 1_555 1_555
C30 H44 1_555 1_555
C31 C30 1_555 1_555
H45 C31 1_555 1_555
C32 H46 1_555 1_555
C33 C32 1_555 1_555
H47 C33 1_555 1_555
C34 H48 1_555 1_555
H49 C34 1_555 1_555
H50 C34 1_555 1_555
C35 H51 1_555 1_555
H52 C35 1_555 1_555
H53 C35 1_555 1_555
C36 C37 1_555 1_555
C37 C38 1_555 1_555
C38 H54 1_555 1_555
H55 C38 1_555 1_555
H56 C38 1_555 1_555
C39 C37 1_555 1_555
H57 C39 1_555 1_555
H58 C39 1_555 1_555
H59 C39 1_555 1_555
C40 C37 1_555 1_555
H60 C40 1_555 1_555
H61 C40 1_555 1_555
H62 C40 1_555 1_555
C41 C42 1_555 1_555
C42 C43 1_555 1_555
C43 H63 1_555 1_555
H64 C43 1_555 1_555
H65 C43 1_555 1_555
C44 C42 1_555 1_555
H66 C44 1_555 1_555
H67 C44 1_555 1_555
H68 C44 1_555 1_555
C45 C42 1_555 1_555
H69 C45 1_555 1_555
H70 C45 1_555 1_555
H71 C45 1_555 1_555
C46 H72 1_555 1_555
H73 C46 1_555 1_555
H74 C46 1_555 1_555
C47 C48 1_555 1_555
C48 C49 1_555 1_555
C49 H75 1_555 1_555
H76 C49 1_555 1_555
H77 C49 1_555 1_555
C50 C48 1_555 1_555
H78 C50 1_555 1_555
H79 C50 1_555 1_555
H80 C50 1_555 1_555
C51 C48 1_555 1_555
H81 C51 1_555 1_555
H82 C51 1_555 1_555
H83 C51 1_555 1_555
O1 C6 1_555 1_555
O2 C6 1_555 1_555
O3 C11 1_555 1_555
O4 C11 1_555 1_555
O5 C16 1_555 1_555
O6 C36 1_555 1_555
O7 C36 1_555 1_555
O8 C47 1_555 1_555
O9 C47 1_555 1_555
C52 C53 1_555 1_555
C53 C54 1_555 1_555
C54 H84 1_555 1_555
H85 C54 1_555 1_555
H86 C54 1_555 1_555
C55 C53 1_555 1_555
H87 C55 1_555 1_555
H88 C55 1_555 1_555
H89 C55 1_555 1_555
C56 C53 1_555 1_555
H90 C56 1_555 1_555
H91 C56 1_555 1_555
H92 C56 1_555 1_555
C57 C58 1_555 1_555
C58 C59 1_555 1_555
C59 H93 1_555 1_555
H94 C59 1_555 1_555
H95 C59 1_555 1_555
C60 C58 1_555 1_555
H96 C60 1_555 1_555
H97 C60 1_555 1_555
H98 C60 1_555 1_555
C61 C58 1_555 1_555
H99 C61 1_555 1_555
H100 C61 1_555 1_555
H101 C61 1_555 1_555
C62 C21 1_555 1_555
H102 C62 1_555 1_555
C63 C21 1_555 1_555
C64 C63 1_555 1_555
H103 C64 1_555 1_555
C65 C64 1_555 1_555
H104 C65 1_555 1_555
C66 H105 1_555 1_555
C67 C22 1_555 1_555
H106 C67 1_555 1_555
C68 C22 1_555 1_555
H107 C68 1_555 1_555
C69 C68 1_555 1_555
H108 C69 1_555 1_555
C70 H109 1_555 1_555
C71 C70 1_555 1_555
H110 C71 1_555 1_555
C72 C71 1_555 1_555
C73 C72 1_555 1_555
H111 C73 1_555 1_555
C74 C73 1_555 1_555
H112 C74 1_555 1_555
C75 C72 1_555 1_555
H113 C75 1_555 1_555
C76 C75 1_555 1_555
H114 C76 1_555 1_555
C77 H115 1_555 1_555
C78 C77 1_555 1_555
H116 C78 1_555 1_555
C79 C76 1_555 1_555
C80 C79 1_555 1_555
H117 C80 1_555 1_555
C81 C80 1_555 1_555
H118 C81 1_555 1_555
C82 C23 1_555 1_555
H119 C82 1_555 1_555
C83 C25 1_555 1_555
H120 C83 1_555 1_555
C84 C29 1_555 1_555
C85 C86 1_555 1_555
C86 C34 1_555 1_555
C87 C86 1_555 1_555
H121 C87 1_555 1_555
H122 C87 1_555 1_555
H123 C87 1_555 1_555
C88 C89 1_555 1_555
C89 C90 1_555 1_555
C90 H124 1_555 1_555
H125 C90 1_555 1_555
H126 C90 1_555 1_555
C91 C89 1_555 1_555
H127 C91 1_555 1_555
H128 C91 1_555 1_555
H129 C91 1_555 1_555
C92 C89 1_555 1_555
H130 C92 1_555 1_555
H131 C92 1_555 1_555
H132 C92 1_555 1_555
C93 C94 1_555 1_555
C94 C46 1_555 1_555
C95 C94 1_555 1_555
H133 C95 1_555 1_555
H134 C95 1_555 1_555
H135 C95 1_555 1_555
C96 C94 1_555 1_555
H136 C96 1_555 1_555
H137 C96 1_555 1_555
H138 C96 1_555 1_555
Fe1 O2 1_555 1_555
Fe2 O1 1_555 1_555
Fe3 O7 1_555 1_555
Fe4 O9 1_555 1_555
N1 C70 1_555 1_555
N2 C62 1_555 1_555
N3 C66 1_555 1_555
N4 C77 1_555 1_555
N5 C82 1_555 1_555
N6 C28 1_555 1_555
O10 C52 1_555 1_555
O11 Fe1 1_555 1_555
O12 C52 1_555 1_555
O13 Fe3 1_555 1_555
O14 C1 1_555 1_555
O15 C1 1_555 1_555
O16 C16 1_555 1_555
O17 C57 1_555 1_555
O18 C57 1_555 1_555
O19 C88 1_555 1_555
O20 C88 1_555 1_555
O21 C41 1_555 1_555
O22 C41 1_555 1_555
O23 C85 1_555 1_555
O24 C85 1_555 1_555
O25 C93 1_555 1_555
O26 C93 1_555 1_555
Ni1 N1 1_555 1_555
Ni2 N4 1_555 1_555
C28B H42B 1_555 1_555
C28_2 N6_2 1_555 1_555
C29B C28B 1_555 1_555
H43B C29B 1_555 1_555
C30B H44B 1_555 1_555
C31B C30B 1_555 1_555
C31_2 N6_2 1_555 1_555
H45B C31B 1_555 1_555
C34B C86B 1_555 1_555
C35B C86B 1_555 1_555
C36B C37B 1_555 1_555
C36B_2 C37B_2 1_555 1_555
C37B C38B 1_555 1_555
C39B C37B 1_555 1_555
C40B C37B 1_555 1_555
C41B C42B 1_555 1_555
C42B C43B 1_555 1_555
C44B C42B 1_555 1_555
C45B C42B 1_555 1_555
C47B C48B 1_555 1_555
C47B_2 O8B_2 1_555 1_555
O6B Ni2 1_555 1_555
O6B_2 C36B_2 1_555 1_555
O7B C36B_2 1_555 1_555
O7B_2 C36B 1_555 1_555
O8B C47B 1_555 1_555
O8B_2 Fe3B_2 1_555 1_555
O9B C47B_2 1_555 1_555
O9B_2 C47B 1_555 1_555
C77B H115B 1_555 1_555
C78B C77B 1_555 1_555
H116B C78B 1_555 1_555
C79B C78B 1_555 1_555
C80B C79B 1_555 1_555
H117B C80B 1_555 1_555
C81B C80B 1_555 1_555
H118B C81B 1_555 1_555
C82B N5B 1_555 1_555
C83B N5B 1_555 1_555
C84B C29B 1_555 1_555
C85B C86B 1_555 1_555
C85B_2 C86B_2 1_555 1_555
C86B C87B 1_555 1_555
C88B C89B 1_555 1_555
C89B C90B 1_555 1_555
C91B C89B 1_555 1_555
C92B C89B 1_555 1_555
C93B C94B 1_555 1_555
C93B_2 O25B_2 1_555 1_555
Fe3B N6 1_555 1_555
Fe3B_2 O7B_2 1_555 1_555
Fe4B O9B 1_555 1_555
Fe4B_2 O9B_2 1_555 1_555
N4B C77B 1_555 1_555
N4_2 Ni2_2 1_555 1_555
N5B Fe4B 1_555 1_555
N5B_2 Fe4B_2 1_555 1_555
N6B Fe3 1_555 1_555
N6_2 Fe3B_2 1_555 1_555
O13B Ni2 1_555 1_555
O13B_2 Fe3B 1_555 1_555
O19B Ni2 1_555 1_555
O19B_2 Ni2_2 1_555 1_555
O20B C88B 1_555 1_555
O20B_2 Fe4B_2 1_555 1_555
O21B Ni2 1_555 1_555
O21B_2 Ni2_2 1_555 1_555
O22B C41B 1_555 1_555
O22B_2 Fe4B_2 1_555 1_555
O23B Ni2 1_555 1_555
O23B_2 C85B_2 1_555 1_555
O24B C85B_2 1_555 1_555
O24B_2 C85B 1_555 1_555
O25B C93B 1_555 1_555
O25B_2 Fe3B_2 1_555 1_555
O26B C93B_2 1_555 1_555
O26B_2 C93B 1_555 1_555
Ni2B O6 1_555 1_555
Ni2_2 O6B_2 1_555 1_555
C27 C63 1_555 1_555
C30 C84 1_555 1_555
C31 N6 1_555 1_555
C32 C84 1_555 1_555
C35 C86 1_555 1_555
O3 Fe2 1_555 1_555
O4 Fe1 1_555 1_555
O5 Fe1 1_555 1_555
O8 Fe3 1_555 1_555
C65 N2 1_555 1_555
C66 C67 1_555 1_555
C69 N3 1_555 1_555
C74 N1 1_555 1_555
C78 C79 1_555 1_555
C81 N4 1_555 1_555
C83 N5 1_555 1_555
Fe1 N2 1_555 1_555
Fe1 O17 1_555 1_555
Fe2 N3 1_555 1_555
Fe2 O11 1_555 1_555
Fe2 O12 1_555 1_555
Fe2 O15 1_555 1_555
Fe3 O24 1_555 1_555
Fe3 O25 1_555 1_555
Fe4 N5 1_555 1_555
Fe4 O13 1_555 1_555
Fe4 O20 1_555 1_555
Fe4 O22 1_555 1_555
Fe4 O26 1_555 1_555
O10 Ni1 1_555 1_555
O11 Ni1 1_555 1_555
O13 Ni2B 1_555 1_555
O14 Ni1 1_555 1_555
O16 Ni1 1_555 1_555
O18 Ni1 1_555 1_555
O19 Ni2B 1_555 1_555
O21 Ni2B 1_555 1_555
O23 Ni2B 1_555 1_555
C28B N6B 1_555 1_555
C30B C84B 1_555 1_555
C31B N6B 1_555 1_555
C36B O6B 1_555 1_555
C41B O21B 1_555 1_555
O7B Fe3B 1_555 1_555
O8B Fe3B 1_555 1_555
C81B N4B 1_555 1_555
C85B O23B 1_555 1_555
C88B O19B 1_555 1_555
Fe3B O24B 1_555 1_555
Fe3B O25B 1_555 1_555
Fe3B_2 O13B 1_555 1_555
Fe3B_2 O24B_2 1_555 1_555
Fe4B O13B 1_555 1_555
Fe4B O20B 1_555 1_555
Fe4B O22B 1_555 1_555
Fe4B O26B 1_555 1_555
Fe4B_2 O13B_2 1_555 1_555
Fe4B_2 O26B_2 1_555 1_555
N4B Ni2B 1_555 1_555
O13B_2 Ni2_2 1_555 1_555
O23B_2 Ni2_2 1_555 1_555

#END
