
#######################################################################
#
#                 Cambridge Crystallographic Data Centre
#                                CCDC 
#
#######################################################################
#
# If this CIF has been generated from an entry in the Cambridge 
# Structural Database, then it will include bibliographic, chemical, 
# crystal, experimental, refinement or atomic coordinate data resulting 
# from the CCDC's data processing and validation procedures.
#
#######################################################################

data_PAMZUA
_symmetry_cell_setting           orthorhombic
_symmetry_space_group_name_H-M   'I 2 c b'
_symmetry_Int_Tables_number      45
_space_group_name_Hall           'I -2a 2'
loop_
_symmetry_equiv_pos_site_id
_symmetry_equiv_pos_as_xyz
1 x,y,z
2 1/2+x,y,-z
3 x,-y,-z
4 1/2+x,-y,z
5 1/2+x,1/2+y,1/2+z
6 x,1/2+y,1/2-z
7 1/2+x,1/2-y,1/2-z
8 x,1/2-y,1/2+z
_cell_length_a                   29.8502(4)
_cell_length_b                   30.3697(5)
_cell_length_c                   43.5112(8)
_cell_angle_alpha                90
_cell_angle_beta                 90
_cell_angle_gamma                90
_cell_volume                     39444.7
loop_
_atom_site_label
_atom_site_type_symbol
_atom_site_fract_x
_atom_site_fract_y
_atom_site_fract_z
C1 C 0.2540(6) 0.7229(5) -0.0310(3)
H1 H 0.2432 0.7490 -0.0226
C2 C 0.2826(5) 0.7253(4) -0.0566(3)
H2 H 0.2919 0.7522 -0.0646
C3 C 0.2956(3) 0.6874(4) -0.06875(17)
C4 C 0.2814(4) 0.6482(5) -0.0581(3)
H3 H 0.2915 0.6217 -0.0663
C5 C 0.3630(4) 0.6841(5) -0.1456(3)
C6 C 0.3992(4) 0.6490(4) -0.1848(2)
H4 H 0.4097 0.6223 -0.1924
C7 C 0.4021(3) 0.7220(5) -0.1833(2)
H5 H 0.4158 0.7478 -0.1901
C8 C 0.3763(4) 0.7225(5) -0.1566(2)
H6 H 0.3688 0.7487 -0.1469
C9 C 0.3402(5) 0.6910(7) -0.1207(4)
H7 H 0.3262 0.7176 -0.1253
C10 C 0.3257(6) 0.6838(5) -0.0945(4)
H8 H 0.3471 0.6643 -0.0870
C11 C 0.7308(3) 1.1004(3) -0.4470(2)
C12 C 0.7669(3) 1.0670(3) -0.4443(2)
C13 C 0.7892(5) 0.2713(6) -0.4240(4)
C14 C 0.5714(3) 0.3569(3) -0.3933(2)
H9 H 0.5447 0.3699 -0.3996
C15 C 0.5986(5) 0.3756(3) -0.3704(3)
C16 C 0.5926(5) 0.4177(3) -0.3529(3)
H10 H 0.6150 0.4265 -0.3394
C17 C 0.3331(7) 0.7845(9) -0.2679(5)
H11 H 0.3296 0.7600 -0.2541
H12 H 0.3050 0.7904 -0.2778
H13 H 0.3424 0.8100 -0.2565
C18 C 0.3407(6) 0.7393(6) -0.3074(5)
H14 H 0.3578 0.7275 -0.3241
H15 H 0.3136 0.7522 -0.3151
H16 H 0.3335 0.7161 -0.2932
C19 C 0.4912(7) 1.1712(10) -0.4492(6)
H17 H 0.5012 1.1920 -0.4643
H18 H 0.4591 1.1689 -0.4499
H19 H 0.5042 1.1429 -0.4533
C20 C 0.4859(4) 1.1497(7) -0.4018(5)
H20 H 0.4918 1.1535 -0.3803
H21 H 0.4992 1.1226 -0.4087
H22 H 0.4541 1.1487 -0.4052
C21 C 0.7445(4) 1.1583(9) -0.3549(5)
H23 H 0.7655 1.1540 -0.3385
H24 H 0.7544 1.1822 -0.3676
H25 H 0.7426 1.1319 -0.3670
C22 C 0.5680(6) 1.0677(5) -0.5135(3)
H26 H 0.5458 1.0885 -0.5069
H27 H 0.5743 1.0474 -0.4971
H28 H 0.5570 1.0518 -0.5310
C23 C 0.7898(7) 1.0643(8) -0.4745(4)
H29 H 0.7978 1.0933 -0.4813
H30 H 0.7701 1.0510 -0.4893
H31 H 0.8164 1.0467 -0.4726
C24 C 0.7527(6) 1.0261(6) -0.4314(7)
H32 H 0.7313 1.0125 -0.4449
H33 H 0.7391 1.0312 -0.4118
H34 H 0.7781 1.0070 -0.4290
C25 C 0.7982(8) 1.0777(11) -0.4193(7)
H35 H 0.8123 1.1055 -0.4234
H36 H 0.8207 1.0551 -0.4179
H37 H 0.7822 1.0793 -0.4002
C26 C 0.0703(9) 0.8089(8) -0.0005(4)
H38 H 0.0870 0.8313 0.0101
H39 H 0.0518 0.7934 0.0140
H40 H 0.0519 0.8222 -0.0159
C27 C 0.0808(12) 0.7411(6) -0.0321(6)
H41 H 0.1037 0.7223 -0.0404
H42 H 0.0630 0.7527 -0.0486
H43 H 0.0621 0.7244 -0.0184
C28 C 0.1357(8) 0.8013(10) -0.0362(5)
H44 H 0.1495 0.8251 -0.0251
H45 H 0.1205 0.8127 -0.0539
H46 H 0.1584 0.7808 -0.0426
C29 C 0.7777(6) 0.2997(9) -0.3976(5)
H47 H 0.7535 0.3190 -0.4031
H48 H 0.8033 0.3170 -0.3919
H49 H 0.7688 0.2817 -0.3805
C30 C 0.8206(11) 0.2353(10) -0.4125(7)
H50 H 0.8296 0.2171 -0.4294
H51 H 0.8053 0.2177 -0.3974
H52 H 0.8466 0.2486 -0.4033
C31 C 0.8085(7) 0.2887(9) -0.4522(5)
H53 H 0.7905 0.3127 -0.4595
H54 H 0.8094 0.2659 -0.4675
H55 H 0.8383 0.2990 -0.4482
C32 C 0.6496(7) 0.6509(10) -0.2587(4)
H56 H 0.6331 0.6239 -0.2572
H57 H 0.6405 0.6706 -0.2426
H58 H 0.6811 0.6449 -0.2568
C33 C 0.4637(12) 0.7257(6) -0.3965(5)
H59 H 0.4903 0.7433 -0.3950
H60 H 0.4402 0.7391 -0.3847
H61 H 0.4547 0.7238 -0.4176
C34 C 0.4305(8) 0.6566(12) -0.3871(4)
H62 H 0.4343 0.6270 -0.3797
H63 H 0.4214 0.6559 -0.4082
H64 H 0.4079 0.6712 -0.3751
C35 C 0.5111(9) 0.6594(12) -0.4005(3)
H65 H 0.5375 0.6771 -0.3979
H66 H 0.5042 0.6570 -0.4220
H67 H 0.5161 0.6306 -0.3921
C36 C 0.5716(3) 1.0469(2) -0.41598(17)
H68 H 0.5533 1.0622 -0.4295
C37 C 0.5592(3) 1.0088(2) -0.40430(18)
H69 H 0.5329 0.9965 -0.4118
C38 C 0.5810(3) 0.9859(2) -0.38256(18)
C39 C 0.6221(3) 1.0029(2) -0.37331(15)
H70 H 0.6396 0.9885 -0.3587
C40 C 0.6356(2) 1.0406(2) -0.38599(14)
H71 H 0.6630 1.0518 -0.3794
C41 C 0.5709(3) 0.8173(3) -0.3028(2)
H72 H 0.5874 0.8040 -0.2873
C42 C 0.5082(3) 0.8183(2) -0.33480(19)
H73 H 0.4820 0.8052 -0.3419
C43 C 0.5216(4) 0.8603(3) -0.34757(19)
H74 H 0.5038 0.8753 -0.3616
C44 C 0.5626(3) 0.8771(2) -0.33774(18)
C45 C 0.5859(4) 0.8555(3) -0.3144(2)
H75 H 0.6122 0.8678 -0.3067
C46 C 0.5809(3) 0.9197(3) -0.3493(2)
H76 H 0.6075 0.9303 -0.3410
C47 C 0.5609(3) 0.9432(3) -0.37106(18)
H77 H 0.5341 0.9332 -0.3794
C48 C 0.2511(6) 0.6494(5) -0.0344(3)
H78 H 0.2362 0.6236 -0.0293
C49 C 0.3752(4) 0.6484(4) -0.1568(3)
H79 H 0.3687 0.6220 -0.1470
C50 C 0.4129(3) 0.7567(3) -0.28067(19)
C51 C 0.3675(4) 0.7736(5) -0.2914(3)
C52 C 0.4087(4) 0.6068(3) -0.2772(2)
C53 C 0.3649(5) 0.5904(6) -0.2916(5)
C54 C 0.5168(3) 0.7541(3) -0.22585(18)
C55 C 0.5436(4) 0.7702(4) -0.1977(2)
C56 C 0.5094(3) 0.6064(3) -0.22470(17)
C57 C 0.5313(4) 0.5772(3) -0.1991(2)
C58 C 0.5575(3) 1.1826(3) -0.41822(14)
C59 C 0.5049(3) 1.1860(3) -0.4187(3)
C60 C 0.6703(3) 1.1750(3) -0.36964(17)
C61 C 0.7018(3) 1.1683(3) -0.3425(2)
C62 C 0.6298(3) 1.1124(3) -0.49369(19)
C63 C 0.6072(5) 1.0900(4) -0.5215(2)
C64 C 0.1352(4) 0.7574(3) 0.01035(17)
C65 C 0.1017(6) 0.7775(4) -0.0151(3)
C66 C 0.7421(4) 0.2535(3) -0.43534(18)
C67 C 0.5007(4) 0.5457(3) -0.3357(2)
H80 H 0.4758 0.5607 -0.3431
C68 C 0.5127(5) 0.5012(3) -0.3487(2)
H81 H 0.4935 0.4869 -0.3623
C69 C 0.5504(7) 0.4831(3) -0.3405(4)
C70 C 0.5761(5) 0.5026(3) -0.3170(3)
H82 H 0.6027 0.4897 -0.3104
C71 C 0.5606(4) 0.5422(3) -0.3036(2)
H83 H 0.5762 0.5532 -0.2868
C72 C 0.5870(3) 0.3176(3) -0.40592(19)
H84 H 0.5697 0.3052 -0.4214
C73 C 0.6375(3) 0.3531(3) -0.36209(19)
H85 H 0.6563 0.3639 -0.3468
C74 C 0.6466(3) 0.3163(3) -0.37651(19)
H86 H 0.6731 0.3028 -0.3703
C75 C 0.5584(5) 0.4415(4) -0.3556(3)
H87 H 0.5360 0.4314 -0.3687
C76 C 0.5919(3) 0.6759(4) -0.29527(18)
C77 C 0.6406(4) 0.6721(5) -0.2896(3)
C78 C 0.4880(3) 0.6809(3) -0.34902(15)
C79 C 0.4729(5) 0.6805(4) -0.38431(19)
C80 C 0.3710(9) 0.8120(8) -0.3119(6)
H88 H 0.3925 0.8060 -0.3278
H89 H 0.3806 0.8372 -0.3003
H90 H 0.3424 0.8179 -0.3210
C81 C 0.3686(7) 0.5508(9) -0.3117(5)
H91 H 0.3797 0.5265 -0.2998
H92 H 0.3889 0.5568 -0.3283
H93 H 0.3396 0.5436 -0.3198
C82 C 0.3455(15) 0.6284(11) -0.3106(12)
H94 H 0.3429 0.6541 -0.2979
H95 H 0.3164 0.6203 -0.3181
H96 H 0.3649 0.6346 -0.3276
C83 C 0.340(3) 0.597(3) -0.2618(12)
H97 H 0.3515 0.5762 -0.2469
H98 H 0.3089 0.5918 -0.2650
H99 H 0.3450 0.6262 -0.2546
C84 C 0.5694(5) 0.7317(7) -0.1856(4)
H100 H 0.5873 0.7193 -0.2018
H101 H 0.5489 0.7098 -0.1781
H102 H 0.5885 0.7412 -0.1692
C85 C 0.5837(7) 0.8009(8) -0.2099(4)
H103 H 0.6010 0.7850 -0.2248
H104 H 0.6025 0.8091 -0.1930
H105 H 0.5714 0.8269 -0.2192
C86 C 0.5150(5) 0.7922(5) -0.1752(3)
H106 H 0.4998 0.8164 -0.1848
H107 H 0.5331 0.8030 -0.1585
H108 H 0.4933 0.7717 -0.1674
C87 C 0.5608(9) 0.5448(7) -0.2115(3)
H109 H 0.5810 0.5584 -0.2257
H110 H 0.5436 0.5226 -0.2219
H111 H 0.5775 0.5315 -0.1951
C88 C 0.4968(8) 0.5638(12) -0.1773(6)
H112 H 0.4799 0.5890 -0.1710
H113 H 0.5107 0.5505 -0.1597
H114 H 0.4772 0.5428 -0.1869
C89 C 0.5577(11) 0.6152(9) -0.1786(6)
H115 H 0.5364 0.6361 -0.1709
H116 H 0.5793 0.6300 -0.1913
H117 H 0.5728 0.6014 -0.1616
C90 C 0.4884(3) 1.2305(4) -0.4109(5)
H118 H 0.4987 1.2384 -0.3907
H119 H 0.4563 1.2307 -0.4113
H120 H 0.4997 1.2514 -0.4256
C91 C 0.7032(4) 1.2154(4) -0.3248(3)
H121 H 0.6739 1.2221 -0.3169
H122 H 0.7122 1.2380 -0.3389
H123 H 0.7242 1.2139 -0.3081
C92 C 0.6835(8) 1.1292(5) -0.3251(4)
H124 H 0.6544 1.1362 -0.3171
H125 H 0.7033 1.1220 -0.3085
H126 H 0.6812 1.1044 -0.3387
C93 C 0.5981(7) 1.1216(7) -0.5473(3)
H127 H 0.6252 1.1371 -0.5524
H128 H 0.5756 1.1424 -0.5411
H129 H 0.5878 1.1056 -0.5650
C94 C 0.6426(6) 1.0584(7) -0.5324(4)
H130 H 0.6692 1.0744 -0.5378
H131 H 0.6318 1.0427 -0.5501
H132 H 0.6494 1.0378 -0.5163
C95 C 0.6653(5) 0.7134(5) -0.2922(5)
H133 H 0.6964 0.7082 -0.2881
H134 H 0.6537 0.7343 -0.2777
H135 H 0.6620 0.7249 -0.3127
C96 C 0.6607(5) 0.6389(6) -0.3134(5)
H136 H 0.6448 0.6114 -0.3122
H137 H 0.6918 0.6341 -0.3090
H138 H 0.6576 0.6507 -0.3338
Co1 Co 0.50557(4) 0.62694(3) -0.293080(19)
Co2 Co 0.63847(3) 1.12766(3) -0.426430(18)
Fe1 Fe 0.50945(3) 0.73535(3) -0.293360(18)
Fe2 Fe 0.45131(4) 0.68235(3) -0.240860(19)
Fe3 Fe 0.19755(4) 0.68355(3) 0.02383(2)
Fe4 Fe 0.64390(3) 0.23574(3) -0.421180(19)
N1 N 0.5262(3) 0.5639(2) -0.31333(16)
N2 N 0.5327(2) 0.79685(19) -0.31250(13)
N3 N 0.4074(2) 0.6831(2) -0.20011(14)
N4 N 0.6139(2) 1.06342(18) -0.40711(14)
N5 N 0.2418(4) 0.6855(3) -0.01815(16)
N6 N 0.6251(3) 0.29560(19) -0.39786(15)
O1 O 0.48755(15) 0.68148(11) -0.27597(8)
O2 O 0.16003(14) 0.68153(11) 0.05870(8)
O3 O 0.4919(2) 0.64388(19) -0.33737(10)
O4 O 0.49567(19) 0.71710(18) -0.33761(10)
O5 O 0.5709(2) 0.6426(2) -0.29770(13)
O6 O 0.57431(18) 0.71406(19) -0.29748(11)
O7 O 0.5207(2) 0.59646(16) -0.25158(12)
O8 O 0.4836(2) 0.63471(19) -0.21752(10)
O9 O 0.48790(19) 0.72869(19) -0.21775(10)
O10 O 0.52749(17) 0.76243(15) -0.25196(10)
O11 O 0.4470(2) 0.76517(15) -0.29317(12)
O12 O 0.40811(16) 0.72869(19) -0.25799(12)
O13 O 0.40616(18) 0.63637(19) -0.25613(12)
O14 O 0.4422(2) 0.59902(18) -0.29190(14)
O15 O 0.57539(16) 1.14638(16) -0.41920(12)
O16 O 0.57775(17) 0.21977(16) -0.41566(11)
O17 O 0.65664(17) 1.14042(16) -0.38221(10)
O18 O 0.66128(18) 0.21253(17) -0.37847(10)
O19 O 0.61841(18) 1.10297(16) -0.46748(11)
O20 O 0.1585(2) 0.6394(2) -0.00171(11)
O21 O 0.1642(2) 0.7337(2) 0.00273(12)
O22 O 0.62628(19) 0.26641(15) -0.46080(12)
O23 O 0.6964(2) 1.09375(16) -0.43130(12)
O24 O 0.23639(19) 0.6328(2) 0.03538(14)
O25 O 0.7069(2) 0.26336(18) -0.42243(13)
O26 O 0.24396(17) 0.7261(2) 0.04269(13)
C1D C 0.7540(6) 1.2229(5) -0.5310(3)
C1D_2 C 0.7540(6) 0.2229(5) -0.5310(3)
H1D H 0.7432 1.2490 -0.5226
H1D_2 H 0.7432 0.2490 -0.5226
C2D C 0.7826(5) 1.2253(4) -0.5566(3)
C2D_2 C 0.7826(5) 0.2253(4) -0.5566(3)
H2D H 0.7919 1.2522 -0.5646
H2D_2 H 0.7919 0.2522 -0.5646
C3D C 0.7956(3) 1.1874(4) -0.56875(17)
C3D_2 C 0.7956(3) 0.1874(4) -0.56875(17)
C4D C 0.7814(4) 1.1482(5) -0.5581(3)
C4D_2 C 0.7814(4) 0.1482(5) -0.5581(3)
H3D H 0.7915 1.1217 -0.5663
H3D_2 H 0.7915 0.1217 -0.5663
C11D C 0.2308(3) 0.6004(3) 0.0530(2)
C11_2 C 0.7308(3) 0.1004(3) -0.4470(2)
C12D C 0.2669(3) 0.5670(3) 0.0557(2)
C12_2 C 0.7669(3) 0.0670(3) -0.4443(2)
C13D C 0.2892(5) 0.7713(6) 0.0760(4)
C13_2 C 0.7892(5) 1.2713(6) -0.4240(4)
C14D C 0.0714(3) 0.8569(3) 0.1067(2)
C14_2 C 0.5714(3) 1.3569(3) -0.3933(2)
H9D H 0.0447 0.8699 0.1004
H9_2 H 0.5447 1.3699 -0.3996
C15D C 0.0986(5) 0.8756(3) 0.1296(3)
C15_2 C 0.5986(5) 1.3756(3) -0.3704(3)
C16D C 0.0926(5) 0.9177(3) 0.1471(3)
C19_2 C 0.4912(7) 0.1712(10) -0.4492(6)
C19D C -0.0088(7) 0.6712(10) 0.0508(6)
H17_2 H 0.5012 0.1920 -0.4643
H17D H 0.0012 0.6920 0.0357
H18_2 H 0.4591 0.1689 -0.4499
H18D H -0.0409 0.6689 0.0501
H19_2 H 0.5042 0.1429 -0.4533
H19D H 0.0042 0.6429 0.0467
C20_2 C 0.4859(4) 0.1497(7) -0.4018(5)
C20D C -0.0141(4) 0.6497(7) 0.0982(5)
H20_2 H 0.4918 0.1535 -0.3803
H20D H -0.0082 0.6535 0.1197
H21_2 H 0.4992 0.1226 -0.4087
H21D H -0.0008 0.6226 0.0913
H22_2 H 0.4541 0.1487 -0.4052
H22D H -0.0459 0.6487 0.0948
C21_2 C 0.7445(4) 0.1583(9) -0.3549(5)
C21D C 0.2445(4) 0.6583(9) 0.1451(5)
H23_2 H 0.7655 0.1540 -0.3385
H23D H 0.2655 0.6540 0.1615
H24_2 H 0.7544 0.1822 -0.3676
H24D H 0.2544 0.6822 0.1324
H25_2 H 0.7426 0.1319 -0.3670
H25D H 0.2426 0.6319 0.1330
C22D C 0.0680(6) 0.5677(5) -0.0135(3)
C22_2 C 0.5680(6) 0.0677(5) -0.5135(3)
H26D H 0.0458 0.5885 -0.0069
H27D H 0.0743 0.5474 0.0029
H28D H 0.0570 0.5518 -0.0310
C23D C 0.2898(7) 0.5643(8) 0.0255(4)
C23_2 C 0.7898(7) 0.0643(8) -0.4745(4)
H29D H 0.2978 0.5933 0.0187
H30D H 0.2701 0.5510 0.0107
H31D H 0.3164 0.5467 0.0274
C24D C 0.2527(6) 0.5261(6) 0.0686(7)
C24_2 C 0.7527(6) 0.0261(6) -0.4314(7)
H32D H 0.2313 0.5125 0.0551
H33D H 0.2391 0.5312 0.0882
H34D H 0.2781 0.5070 0.0710
C25D C 0.2982(8) 0.5777(11) 0.0807(7)
C25_2 C 0.7982(8) 0.0777(11) -0.4193(7)
H35D H 0.3123 0.6055 0.0766
H36D H 0.3207 0.5551 0.0821
H37D H 0.2822 0.5793 0.0998
C26D C 0.5703(9) 0.3089(8) -0.5005(4)
C26D_2 C 0.5703(9) 1.3089(8) -0.5005(4)
H38D H 0.5870 0.3313 -0.4899
H39D H 0.5518 0.2934 -0.4860
H40D H 0.5519 0.3222 -0.5159
C27D C 0.5808(12) 0.2411(6) -0.5321(6)
C27D_2 C 0.5808(12) 1.2411(6) -0.5321(6)
H41D H 0.6037 0.2223 -0.5404
H42D H 0.5630 0.2527 -0.5486
H43D H 0.5621 0.2244 -0.5184
C28D C 0.6357(8) 0.3013(10) -0.5362(5)
C28D_2 C 0.6357(8) 1.3013(10) -0.5362(5)
H44D H 0.6495 0.3251 -0.5251
H45D H 0.6205 0.3127 -0.5539
H46D H 0.6584 0.2808 -0.5426
C29D C 0.2777(6) 0.7997(9) 0.1024(5)
C29_2 C 0.7777(6) 1.2997(9) -0.3976(5)
H47D H 0.2535 0.8190 0.0969
H48D H 0.3033 0.8170 0.1081
H49D H 0.2688 0.7817 0.1195
C30D C 0.3206(11) 0.7353(10) 0.0875(7)
C30_2 C 0.8206(11) 1.2353(10) -0.4125(7)
H50D H 0.3296 0.7171 0.0706
H51D H 0.3053 0.7177 0.1026
H52D H 0.3466 0.7486 0.0967
C31D C 0.3085(7) 0.7887(9) 0.0478(5)
C31_2 C 0.8085(7) 1.2887(9) -0.4522(5)
H53D H 0.2905 0.8127 0.0405
H54D H 0.3094 0.7659 0.0325
H55D H 0.3383 0.7990 0.0518
C36D C 0.0716(3) 0.5469(2) 0.08402(17)
C36_2 C 0.5716(3) 0.0469(2) -0.41598(17)
H68D H 0.0533 0.5622 0.0705
H68_2 H 0.5533 0.0622 -0.4295
C37D C 0.0592(3) 0.5088(2) 0.09570(18)
C37_2 C 0.5592(3) 0.0088(2) -0.40430(18)
H69D H 0.0329 0.4965 0.0882
H69_2 H 0.5329 -0.0035 -0.4118
C38D C 0.0810(3) 0.4859(2) 0.11744(18)
C38_2 C 0.5810(3) -0.0141(2) -0.38256(18)
C39D C 0.1221(3) 0.5029(2) 0.12669(15)
C39_2 C 0.6221(3) 0.0029(2) -0.37331(15)
H70D H 0.1396 0.4885 0.1413
H70_2 H 0.6396 -0.0115 -0.3587
C40D C 0.1356(2) 0.5406(2) 0.11401(14)
C40_2 C 0.6356(2) 0.0406(2) -0.38599(14)
H71D H 0.1630 0.5518 0.1206
H71_2 H 0.6630 0.0518 -0.3794
C47D C 0.0609(3) 0.4432(3) 0.12894(18)
C48D C 0.7511(6) 1.1494(5) -0.5344(3)
C48D_2 C 0.7511(6) 0.1494(5) -0.5344(3)
H78D H 0.7362 1.1236 -0.5293
H78D_2 H 0.7362 0.1236 -0.5293
C58_2 C 0.5575(3) 0.1826(3) -0.41822(14)
C58D C 0.0575(3) 0.6826(3) 0.08178(14)
C59_2 C 0.5049(3) 0.1860(3) -0.4187(3)
C59D C 0.0049(3) 0.6860(3) 0.0813(3)
C60_2 C 0.6703(3) 0.1750(3) -0.36964(17)
C60D C 0.1703(3) 0.6750(3) 0.13036(17)
C61_2 C 0.7018(3) 0.1683(3) -0.3425(2)
C61D C 0.2018(3) 0.6683(3) 0.1575(2)
C62D C 0.1298(3) 0.6124(3) 0.00631(19)
C62_2 C 0.6298(3) 0.1124(3) -0.49369(19)
C63D C 0.1072(5) 0.5900(4) -0.0215(2)
C63_2 C 0.6072(5) 0.0900(4) -0.5215(2)
C64D C 0.6352(4) 0.2574(3) -0.48965(17)
C64D_2 C 0.6352(4) 1.2574(3) -0.48965(17)
C65D C 0.6017(6) 0.2775(4) -0.5151(3)
C65D_2 C 0.6017(6) 1.2775(4) -0.5151(3)
C66D C 0.2421(4) 0.7535(3) 0.06466(18)
C66_2 C 0.7421(4) 1.2535(3) -0.43534(18)
C72D C 0.0870(3) 0.8176(3) 0.09408(19)
C72_2 C 0.5870(3) 1.3176(3) -0.40592(19)
H84D H 0.0697 0.8052 0.0786
H84_2 H 0.5697 1.3052 -0.4214
C73D C 0.1375(3) 0.8531(3) 0.13791(19)
C73_2 C 0.6375(3) 1.3531(3) -0.36209(19)
H85D H 0.1563 0.8639 0.1532
H85_2 H 0.6563 1.3639 -0.3468
C74D C 0.1466(3) 0.8163(3) 0.12349(19)
C74_2 C 0.6466(3) 1.3163(3) -0.37651(19)
H86D H 0.1731 0.8028 0.1297
H86_2 H 0.6731 1.3028 -0.3703
C90_2 C 0.4884(3) 0.2305(4) -0.4109(5)
C90D C -0.0116(3) 0.7305(4) 0.0891(5)
H118_2 H 0.4987 0.2384 -0.3907
H118D H -0.0013 0.7384 0.1093
H119_2 H 0.4563 0.2307 -0.4113
H119D H -0.0437 0.7307 0.0887
H120_2 H 0.4997 0.2514 -0.4256
H120D H -0.0003 0.7514 0.0744
C91_2 C 0.7032(4) 0.2154(4) -0.3248(3)
C91D C 0.2032(4) 0.7154(4) 0.1752(3)
H121_2 H 0.6739 0.2221 -0.3169
H121D H 0.1739 0.7221 0.1831
H122_2 H 0.7122 0.2380 -0.3389
H122D H 0.2122 0.7380 0.1611
H123_2 H 0.7242 0.2139 -0.3081
H123D H 0.2242 0.7139 0.1919
C92_2 C 0.6835(8) 0.1292(5) -0.3251(4)
C92D C 0.1835(8) 0.6292(5) 0.1749(4)
H124_2 H 0.6544 0.1362 -0.3171
H124D H 0.1544 0.6362 0.1829
H125_2 H 0.7033 0.1220 -0.3085
H125D H 0.2033 0.6220 0.1915
H126_2 H 0.6812 0.1044 -0.3387
H126D H 0.1812 0.6044 0.1613
C93D C 0.0981(7) 0.6216(7) -0.0473(3)
C93_2 C 0.5981(7) 0.1216(7) -0.5473(3)
H127D H 0.1252 0.6371 -0.0524
H128D H 0.0756 0.6424 -0.0411
H129D H 0.0878 0.6056 -0.0650
C94D C 0.1426(6) 0.5584(7) -0.0324(4)
C94_2 C 0.6426(6) 0.0584(7) -0.5324(4)
H130D H 0.1692 0.5744 -0.0378
H131D H 0.1318 0.5427 -0.0501
H132D H 0.1494 0.5378 -0.0163
Co2D Co 0.13847(3) 0.62766(3) 0.073570(18)
Co2_2 Co 0.63847(3) 0.12766(3) -0.426430(18)
Fe3D Fe 0.69755(4) 1.18355(3) -0.47617(2)
Fe3D_2 Fe 0.69755(4) 0.18355(3) -0.47617(2)
Fe4D Fe 0.14390(3) 0.73574(3) 0.078820(19)
Fe4_2 Fe 0.64390(3) 1.23574(3) -0.421180(19)
N4D N 0.1139(2) 0.56342(18) 0.09289(14)
N4_2 N 0.6139(2) 0.06342(18) -0.40711(14)
N5D N 0.7418(4) 1.1855(3) -0.51815(16)
N5D_2 N 0.7418(4) 0.1855(3) -0.51815(16)
N6D N 0.1251(3) 0.79560(19) 0.10214(15)
N6_2 N 0.6251(3) 1.29560(19) -0.39786(15)
O2D O 0.66003(14) 1.18153(11) -0.44130(8)
O2D_2 O 0.66003(14) 0.18153(11) -0.44130(8)
O15D O 0.07539(16) 0.64638(16) 0.08080(12)
O15_2 O 0.57539(16) 0.14638(16) -0.41920(12)
O16_2 O 0.57775(17) 1.21977(16) -0.41566(11)
O16D O 0.07775(17) 0.71977(16) 0.08434(11)
O17D O 0.15664(17) 0.64042(16) 0.11779(10)
O17_2 O 0.65664(17) 0.14042(16) -0.38221(10)
O18_2 O 0.66128(18) 1.21253(17) -0.37847(10)
O18D O 0.16128(18) 0.71253(17) 0.12153(10)
O19D O 0.11841(18) 0.60297(16) 0.03252(11)
O19_2 O 0.61841(18) 0.10297(16) -0.46748(11)
O20D O 0.6585(2) 1.1394(2) -0.50171(11)
O20D_2 O 0.6585(2) 0.1394(2) -0.50171(11)
O21D O 0.6642(2) 0.2337(2) -0.49727(12)
O21D_2 O 0.6642(2) 1.2337(2) -0.49727(12)
O22D O 0.12628(19) 0.76641(15) 0.03920(12)
O22_2 O 0.62628(19) 1.26641(15) -0.46080(12)
O23D O 0.1964(2) 0.59375(16) 0.06870(12)
O23_2 O 0.6964(2) 0.09375(16) -0.43130(12)
O24D O 0.73639(19) 1.1328(2) -0.46462(14)
O24D_2 O 0.73639(19) 0.1328(2) -0.46462(14)
O25D O 0.2069(2) 0.76336(18) 0.07757(13)
O25_2 O 0.7069(2) 1.26336(18) -0.42243(13)
O26D O 0.74396(17) 0.2261(2) -0.45731(13)
O26D_2 O 0.74396(17) 1.2261(2) -0.45731(13)
loop_
_geom_bond_atom_site_label_1
_geom_bond_atom_site_label_2
_geom_bond_site_symmetry_1
_geom_bond_site_symmetry_2
C1 H1 1_555 1_555
C2 C1 1_555 1_555
H2 C2 1_555 1_555
C3 C2 1_555 1_555
C4 C3 1_555 1_555
H3 C4 1_555 1_555
C5 C8 1_555 1_555
C6 H4 1_555 1_555
C7 H5 1_555 1_555
C8 C7 1_555 1_555
H6 C8 1_555 1_555
C9 C5 1_555 1_555
H7 C9 1_555 1_555
C10 C3 1_555 1_555
H8 C10 1_555 1_555
C11 C12 1_555 1_555
C12 C23 1_555 1_555
C13 C29 1_555 1_555
C14 H9 1_555 1_555
C15 C14 1_555 1_555
C16 C15 1_555 1_555
H10 C16 1_555 1_555
C17 H11 1_555 1_555
H12 C17 1_555 1_555
H13 C17 1_555 1_555
C18 H14 1_555 1_555
H15 C18 1_555 1_555
H16 C18 1_555 1_555
C19 H17 1_555 1_555
H18 C19 1_555 1_555
H19 C19 1_555 1_555
C20 H20 1_555 1_555
H21 C20 1_555 1_555
H22 C20 1_555 1_555
C21 H23 1_555 1_555
H24 C21 1_555 1_555
H25 C21 1_555 1_555
C22 H26 1_555 1_555
H27 C22 1_555 1_555
H28 C22 1_555 1_555
C23 H29 1_555 1_555
H30 C23 1_555 1_555
H31 C23 1_555 1_555
C24 C12 1_555 1_555
H32 C24 1_555 1_555
H33 C24 1_555 1_555
H34 C24 1_555 1_555
C25 C12 1_555 1_555
H35 C25 1_555 1_555
H36 C25 1_555 1_555
H37 C25 1_555 1_555
C26 H38 1_555 1_555
H39 C26 1_555 1_555
H40 C26 1_555 1_555
C27 H41 1_555 1_555
H42 C27 1_555 1_555
H43 C27 1_555 1_555
C28 H44 1_555 1_555
H45 C28 1_555 1_555
H46 C28 1_555 1_555
C29 H47 1_555 1_555
H48 C29 1_555 1_555
H49 C29 1_555 1_555
C30 C13 1_555 1_555
H50 C30 1_555 1_555
H51 C30 1_555 1_555
H52 C30 1_555 1_555
C31 C13 1_555 1_555
H53 C31 1_555 1_555
H54 C31 1_555 1_555
H55 C31 1_555 1_555
C32 H56 1_555 1_555
H57 C32 1_555 1_555
H58 C32 1_555 1_555
C33 H59 1_555 1_555
H60 C33 1_555 1_555
H61 C33 1_555 1_555
C34 H62 1_555 1_555
H63 C34 1_555 1_555
H64 C34 1_555 1_555
C35 H65 1_555 1_555
H66 C35 1_555 1_555
H67 C35 1_555 1_555
C36 H68 1_555 1_555
C37 C36 1_555 1_555
H69 C37 1_555 1_555
C38 C37 1_555 1_555
C39 C38 1_555 1_555
H70 C39 1_555 1_555
C40 C39 1_555 1_555
H71 C40 1_555 1_555
C41 H72 1_555 1_555
C42 H73 1_555 1_555
C43 C42 1_555 1_555
H74 C43 1_555 1_555
C44 C43 1_555 1_555
C45 C41 1_555 1_555
H75 C45 1_555 1_555
C46 C44 1_555 1_555
H76 C46 1_555 1_555
C47 C38 1_555 1_555
H77 C47 1_555 1_555
C48 C4 1_555 1_555
H78 C48 1_555 1_555
C49 C5 1_555 1_555
H79 C49 1_555 1_555
C50 C51 1_555 1_555
C51 C17 1_555 1_555
C52 C53 1_555 1_555
C53 C81 1_555 1_555
C54 C55 1_555 1_555
C55 C84 1_555 1_555
C56 C57 1_555 1_555
C57 C87 1_555 1_555
C58 C59 1_555 1_555
C59 C19 1_555 1_555
C60 C61 1_555 1_555
C61 C21 1_555 1_555
C62 C63 1_555 1_555
C63 C22 1_555 1_555
C64 C65 1_555 1_555
C65 C26 1_555 1_555
C66 C13 1_555 1_555
C67 H80 1_555 1_555
C68 C67 1_555 1_555
H81 C68 1_555 1_555
C69 C68 1_555 1_555
C70 C69 1_555 1_555
H82 C70 1_555 1_555
C71 C70 1_555 1_555
H83 C71 1_555 1_555
C72 C14 1_555 1_555
H84 C72 1_555 1_555
C73 C15 1_555 1_555
H85 C73 1_555 1_555
C74 C73 1_555 1_555
H86 C74 1_555 1_555
C75 C16 1_555 1_555
H87 C75 1_555 1_555
C76 C77 1_555 1_555
C77 C32 1_555 1_555
C78 C79 1_555 1_555
C79 C33 1_555 1_555
C80 C51 1_555 1_555
H88 C80 1_555 1_555
H89 C80 1_555 1_555
H90 C80 1_555 1_555
C81 H91 1_555 1_555
H92 C81 1_555 1_555
H93 C81 1_555 1_555
C82 C53 1_555 1_555
H94 C82 1_555 1_555
H95 C82 1_555 1_555
H96 C82 1_555 1_555
C83 C53 1_555 1_555
H97 C83 1_555 1_555
H98 C83 1_555 1_555
H99 C83 1_555 1_555
C84 H100 1_555 1_555
H101 C84 1_555 1_555
H102 C84 1_555 1_555
C85 C55 1_555 1_555
H103 C85 1_555 1_555
H104 C85 1_555 1_555
H105 C85 1_555 1_555
C86 C55 1_555 1_555
H106 C86 1_555 1_555
H107 C86 1_555 1_555
H108 C86 1_555 1_555
C87 H109 1_555 1_555
H110 C87 1_555 1_555
H111 C87 1_555 1_555
C88 C57 1_555 1_555
H112 C88 1_555 1_555
H113 C88 1_555 1_555
H114 C88 1_555 1_555
C89 C57 1_555 1_555
H115 C89 1_555 1_555
H116 C89 1_555 1_555
H117 C89 1_555 1_555
C90 C59 1_555 1_555
H118 C90 1_555 1_555
H119 C90 1_555 1_555
H120 C90 1_555 1_555
C91 C61 1_555 1_555
H121 C91 1_555 1_555
H122 C91 1_555 1_555
H123 C91 1_555 1_555
C92 C61 1_555 1_555
H124 C92 1_555 1_555
H125 C92 1_555 1_555
H126 C92 1_555 1_555
C93 C63 1_555 1_555
H127 C93 1_555 1_555
H128 C93 1_555 1_555
H129 C93 1_555 1_555
C94 C63 1_555 1_555
H130 C94 1_555 1_555
H131 C94 1_555 1_555
H132 C94 1_555 1_555
C95 C77 1_555 1_555
H133 C95 1_555 1_555
H134 C95 1_555 1_555
H135 C95 1_555 1_555
C96 C77 1_555 1_555
H136 C96 1_555 1_555
H137 C96 1_555 1_555
H138 C96 1_555 1_555
Co1 N1 1_555 1_555
Co2 N4 1_555 1_555
Fe1 N2 1_555 1_555
Fe2 N3 1_555 1_555
Fe3 N5 1_555 1_555
Fe4 N6 1_555 1_555
N1 C67 1_555 1_555
N2 C41 1_555 1_555
N3 C6 1_555 1_555
N4 C36 1_555 1_555
N5 C1 1_555 1_555
N6 C72 1_555 1_555
O1 Co1 1_555 1_555
O2 Fe3 1_555 1_555
O3 C78 1_555 1_555
O4 C78 1_555 1_555
O5 C76 1_555 1_555
O6 C76 1_555 1_555
O7 C56 1_555 1_555
O8 C56 1_555 1_555
O9 C54 1_555 1_555
O10 C54 1_555 1_555
O11 C50 1_555 1_555
O12 C50 1_555 1_555
O13 C52 1_555 1_555
O14 C52 1_555 1_555
O15 C58 1_555 1_555
O16 Fe4 1_555 1_555
O17 C60 1_555 1_555
O18 Fe4 1_555 1_555
O19 C62 1_555 1_555
O20 Fe3 1_555 1_555
O21 C64 1_555 1_555
O22 Fe4 1_555 1_555
O23 C11 1_555 1_555
O24 Fe3 1_555 1_555
O25 C66 1_555 1_555
O26 Fe3 1_555 1_555
C1D H1D 1_555 1_555
C1D_2 H1D_2 1_555 1_555
C2D C1D 1_555 1_555
C2D_2 C1D_2 1_555 1_555
H2D C2D 1_555 1_555
H2D_2 C2D_2 1_555 1_555
C3D C2D 1_555 1_555
C3D_2 C2D_2 1_555 1_555
C4D C3D 1_555 1_555
C4D_2 C3D_2 1_555 1_555
H3D C4D 1_555 1_555
H3D_2 C4D_2 1_555 1_555
C11D O24 1_555 1_555
C11_2 C12_2 1_555 1_555
C12D C11D 1_555 1_555
C12_2 C23_2 1_555 1_555
C13D C29D 1_555 1_555
C13_2 C29_2 1_555 1_555
C14D H9D 1_555 1_555
C14_2 H9_2 1_555 1_555
C15D C14D 1_555 1_555
C15_2 C14_2 1_555 1_555
C16D C15D 1_555 1_555
C19_2 H17_2 1_555 1_555
C19D H17D 1_555 1_555
H18_2 C19_2 1_555 1_555
H18D C19D 1_555 1_555
H19_2 C19_2 1_555 1_555
H19D C19D 1_555 1_555
C20_2 H20_2 1_555 1_555
C20D H20D 1_555 1_555
H21_2 C20_2 1_555 1_555
H21D C20D 1_555 1_555
H22_2 C20_2 1_555 1_555
H22D C20D 1_555 1_555
C21_2 H23_2 1_555 1_555
C21D H23D 1_555 1_555
H24_2 C21_2 1_555 1_555
H24D C21D 1_555 1_555
H25_2 C21_2 1_555 1_555
H25D C21D 1_555 1_555
C22D H26D 1_555 1_555
C22_2 C63_2 1_555 1_555
H27D C22D 1_555 1_555
H28D C22D 1_555 1_555
C23D C12D 1_555 1_555
H29D C23D 1_555 1_555
H30D C23D 1_555 1_555
H31D C23D 1_555 1_555
C24D C12D 1_555 1_555
C24_2 C12_2 1_555 1_555
H32D C24D 1_555 1_555
H33D C24D 1_555 1_555
H34D C24D 1_555 1_555
C25D C12D 1_555 1_555
C25_2 C12_2 1_555 1_555
H35D C25D 1_555 1_555
H36D C25D 1_555 1_555
H37D C25D 1_555 1_555
C26D H38D 1_555 1_555
C26D_2 C65D_2 1_555 1_555
H39D C26D 1_555 1_555
H40D C26D 1_555 1_555
C27D H41D 1_555 1_555
C27D_2 C65D_2 1_555 1_555
H42D C27D 1_555 1_555
H43D C27D 1_555 1_555
C28D H44D 1_555 1_555
C28D_2 C65D_2 1_555 1_555
H45D C28D 1_555 1_555
H46D C28D 1_555 1_555
C29D H47D 1_555 1_555
H48D C29D 1_555 1_555
H49D C29D 1_555 1_555
C30D C13D 1_555 1_555
C30_2 C13_2 1_555 1_555
H50D C30D 1_555 1_555
H51D C30D 1_555 1_555
H52D C30D 1_555 1_555
C31D C13D 1_555 1_555
C31_2 C13_2 1_555 1_555
H53D C31D 1_555 1_555
H54D C31D 1_555 1_555
H55D C31D 1_555 1_555
C36D H68D 1_555 1_555
C36_2 H68_2 1_555 1_555
C37D C36D 1_555 1_555
C37_2 C36_2 1_555 1_555
H69D C37D 1_555 1_555
H69_2 C37_2 1_555 1_555
C38D C37D 1_555 1_555
C38_2 C37_2 1_555 1_555
C39D C38D 1_555 1_555
C39_2 C38_2 1_555 1_555
H70D C39D 1_555 1_555
H70_2 C39_2 1_555 1_555
C40D C39D 1_555 1_555
C40_2 C39_2 1_555 1_555
H71D C40D 1_555 1_555
H71_2 C40_2 1_555 1_555
C47D C38D 1_555 1_555
C48D C4D 1_555 1_555
C48D_2 C4D_2 1_555 1_555
H78D C48D 1_555 1_555
H78D_2 C48D_2 1_555 1_555
C58_2 O16 1_555 1_555
C58D C59D 1_555 1_555
C59_2 C19_2 1_555 1_555
C59D C19D 1_555 1_555
C60_2 O18 1_555 1_555
C60D C61D 1_555 1_555
C61_2 C21_2 1_555 1_555
C61D C21D 1_555 1_555
C62D O20 1_555 1_555
C62_2 C63_2 1_555 1_555
C63D C22D 1_555 1_555
C63_2 C93_2 1_555 1_555
C64D O22 1_555 1_555
C64D_2 C65D_2 1_555 1_555
C65D C26D 1_555 1_555
C66D O26 1_555 1_555
C66_2 C13_2 1_555 1_555
C72D C14D 1_555 1_555
C72_2 C14_2 1_555 1_555
H84D C72D 1_555 1_555
H84_2 C72_2 1_555 1_555
C73D C15D 1_555 1_555
C73_2 C15_2 1_555 1_555
H85D C73D 1_555 1_555
H85_2 C73_2 1_555 1_555
C74D C73D 1_555 1_555
C74_2 C73_2 1_555 1_555
H86D C74D 1_555 1_555
H86_2 C74_2 1_555 1_555
C90_2 C59_2 1_555 1_555
C90D C59D 1_555 1_555
H118_2 C90_2 1_555 1_555
H118D C90D 1_555 1_555
H119_2 C90_2 1_555 1_555
H119D C90D 1_555 1_555
H120_2 C90_2 1_555 1_555
H120D C90D 1_555 1_555
C91_2 C61_2 1_555 1_555
C91D C61D 1_555 1_555
H121_2 C91_2 1_555 1_555
H121D C91D 1_555 1_555
H122_2 C91_2 1_555 1_555
H122D C91D 1_555 1_555
H123_2 C91_2 1_555 1_555
H123D C91D 1_555 1_555
C92_2 C61_2 1_555 1_555
C92D C61D 1_555 1_555
H124_2 C92_2 1_555 1_555
H124D C92D 1_555 1_555
H125_2 C92_2 1_555 1_555
H125D C92D 1_555 1_555
H126_2 C92_2 1_555 1_555
H126D C92D 1_555 1_555
C93D C63D 1_555 1_555
H127D C93D 1_555 1_555
H128D C93D 1_555 1_555
H129D C93D 1_555 1_555
C94D C63D 1_555 1_555
C94_2 C63_2 1_555 1_555
H130D C94D 1_555 1_555
H131D C94D 1_555 1_555
H132D C94D 1_555 1_555
Co2D O2 1_555 1_555
Co2_2 N4_2 1_555 1_555
Fe3D N5D 1_555 1_555
Fe3D_2 N5D_2 1_555 1_555
Fe4D O2 1_555 1_555
Fe4_2 N6_2 1_555 1_555
N4D C36D 1_555 1_555
N4_2 C36_2 1_555 1_555
N5D C1D 1_555 1_555
N5D_2 C1D_2 1_555 1_555
N6D C72D 1_555 1_555
N6_2 C72_2 1_555 1_555
O2D Co2 1_555 1_555
O2D_2 Fe4 1_555 1_555
O15D C58D 1_555 1_555
O15_2 C58_2 1_555 1_555
O16_2 C58 1_555 1_555
O16D C58D 1_555 1_555
O17D C60D 1_555 1_555
O17_2 C60_2 1_555 1_555
O18_2 C60 1_555 1_555
O18D C60D 1_555 1_555
O19D C62D 1_555 1_555
O19_2 C62_2 1_555 1_555
O20D C62 1_555 1_555
O20D_2 C62_2 1_555 1_555
O21D C64D 1_555 1_555
O21D_2 C64D_2 1_555 1_555
O22D C64 1_555 1_555
O22_2 C64D_2 1_555 1_555
O23D C11D 1_555 1_555
O23_2 C11_2 1_555 1_555
O24D C11 1_555 1_555
O24D_2 C11_2 1_555 1_555
O25D C66D 1_555 1_555
O25_2 C66_2 1_555 1_555
O26D C66 1_555 1_555
O26D_2 C66_2 1_555 1_555
C6 C49 1_555 1_555
C7 N3 1_555 1_555
C9 C10 1_555 1_555
C18 C51 1_555 1_555
C20 C59 1_555 1_555
C27 C65 1_555 1_555
C28 C65 1_555 1_555
C34 C79 1_555 1_555
C35 C79 1_555 1_555
C40 N4 1_555 1_555
C42 N2 1_555 1_555
C44 C45 1_555 1_555
C46 C47 1_555 1_555
C48 N5 1_555 1_555
C69 C75 1_555 1_555
C71 N1 1_555 1_555
C74 N6 1_555 1_555
Co1 O3 1_555 1_555
Co1 O5 1_555 1_555
Co1 O7 1_555 1_555
Co1 O14 1_555 1_555
Co2 O15 1_555 1_555
Co2 O17 1_555 1_555
Co2 O19 1_555 1_555
Co2 O23 1_555 1_555
Fe1 O1 1_555 1_555
Fe1 O4 1_555 1_555
Fe1 O6 1_555 1_555
Fe1 O10 1_555 1_555
Fe1 O11 1_555 1_555
Fe2 O1 1_555 1_555
Fe2 O8 1_555 1_555
Fe2 O9 1_555 1_555
Fe2 O12 1_555 1_555
Fe2 O13 1_555 1_555
Fe3 O21 1_555 1_555
Fe4 O25 1_555 1_555
C13D C66D 1_555 1_555
C20_2 C59_2 1_555 1_555
C20D C59D 1_555 1_555
C27D C65D 1_555 1_555
C28D C65D 1_555 1_555
C40D N4D 1_555 1_555
C40_2 N4_2 1_555 1_555
C48D N5D 1_555 1_555
C48D_2 N5D_2 1_555 1_555
C58_2 C59_2 1_555 1_555
C60_2 C61_2 1_555 1_555
C62D C63D 1_555 1_555
C64D C65D 1_555 1_555
C74D N6D 1_555 1_555
C74_2 N6_2 1_555 1_555
Co2D N4D 1_555 1_555
Co2D O15D 1_555 1_555
Co2D O17D 1_555 1_555
Co2D O19D 1_555 1_555
Co2D O23D 1_555 1_555
Co2_2 O2D_2 1_555 1_555
Co2_2 O15_2 1_555 1_555
Co2_2 O17_2 1_555 1_555
Co2_2 O19_2 1_555 1_555
Co2_2 O23_2 1_555 1_555
Fe3D O2D 1_555 1_555
Fe3D O20D 1_555 1_555
Fe3D O21D_2 1_555 1_555
Fe3D O24D 1_555 1_555
Fe3D O26D_2 1_555 1_555
Fe3D_2 O2D_2 1_555 1_555
Fe3D_2 O20D_2 1_555 1_555
Fe3D_2 O21D 1_555 1_555
Fe3D_2 O24D_2 1_555 1_555
Fe3D_2 O26D 1_555 1_555
Fe4D N6D 1_555 1_555
Fe4D O16D 1_555 1_555
Fe4D O18D 1_555 1_555
Fe4D O22D 1_555 1_555
Fe4D O25D 1_555 1_555
Fe4_2 O2D 1_555 1_555
Fe4_2 O16_2 1_555 1_555
Fe4_2 O18_2 1_555 1_555
Fe4_2 O22_2 1_555 1_555
Fe4_2 O25_2 1_555 1_555

#END
