
#######################################################################
#
#                 Cambridge Crystallographic Data Centre
#                                CCDC 
#
#######################################################################
#
# If this CIF has been generated from an entry in the Cambridge 
# Structural Database, then it will include bibliographic, chemical, 
# crystal, experimental, refinement or atomic coordinate data resulting 
# from the CCDC's data processing and validation procedures.
#
#######################################################################

data_PANBEN
_symmetry_cell_setting           monoclinic
_symmetry_space_group_name_H-M   'P 21/n'
_symmetry_Int_Tables_number      14
_space_group_name_Hall           '-P 2yn'
loop_
_symmetry_equiv_pos_site_id
_symmetry_equiv_pos_as_xyz
1 x,y,z
2 1/2-x,1/2+y,1/2-z
3 -x,-y,-z
4 1/2+x,1/2-y,1/2+z
_cell_length_a                   16.656(3)
_cell_length_b                   18.157(3)
_cell_length_c                   20.666(4)
_cell_angle_alpha                90
_cell_angle_beta                 90.030(3)
_cell_angle_gamma                90
_cell_volume                     6249.87
loop_
_atom_site_label
_atom_site_type_symbol
_atom_site_fract_x
_atom_site_fract_y
_atom_site_fract_z
C1 C 0.7499(6) 0.0468(5) 0.0921(4)
C2 C 0.7498(6) -0.0204(6) 0.0513(5)
C3 C 0.793(3) 0.002(3) -0.0107(17)
H1 H 0.7948 -0.0401 -0.0403
H2 H 0.8473 0.0182 -0.0005
H3 H 0.7632 0.0426 -0.0314
C4 C 0.6673(17) -0.0561(18) 0.0443(15)
H4 H 0.6717 -0.0999 0.0169
H5 H 0.6301 -0.0209 0.0244
H6 H 0.6473 -0.0703 0.0871
C5 C 0.802(3) -0.0783(17) 0.0837(15)
H7 H 0.8029 -0.1230 0.0571
H8 H 0.7804 -0.0899 0.1265
H9 H 0.8569 -0.0593 0.0883
C6 C 0.7501(6) 0.1558(6) 0.2627(5)
C7 C 0.7499(6) 0.1624(7) 0.3365(5)
C8 C 0.806(2) 0.102(2) 0.3643(14)
H10 H 0.8587 0.1055 0.3438
H11 H 0.7826 0.0533 0.3555
H12 H 0.8114 0.1087 0.4111
C9 C 0.6731(16) 0.160(3) 0.3655(14)
H13 H 0.6466 0.1135 0.3544
H14 H 0.6406 0.2013 0.3496
H15 H 0.6786 0.1637 0.4126
C10 C 0.796(2) 0.2323(19) 0.3509(12)
H16 H 0.8482 0.2306 0.3291
H17 H 0.8042 0.2368 0.3977
H18 H 0.7655 0.2749 0.3352
C11 C 0.6944(16) 0.4489(13) 0.0099(12)
H19 H 0.6439 0.4432 0.0306
C12 C 0.6091(7) 0.2323(7) 0.0115(6)
C13 C 0.5406(11) 0.2384(12) -0.0374(10)
C14 C 0.5496(10) 0.2907(13) -0.0859(9)
H20 H 0.5071 0.2844 -0.1182
H21 H 0.6021 0.2845 -0.1066
H22 H 0.5461 0.3402 -0.0671
C15 C 0.5128(12) 0.1607(11) -0.0571(9)
H23 H 0.5174 0.1275 -0.0198
H24 H 0.5466 0.1425 -0.0924
H25 H 0.4568 0.1626 -0.0714
C16 C 0.4640(12) 0.2614(16) 0.0091(13)
H26 H 0.4540 0.2220 0.0405
H27 H 0.4162 0.2687 -0.0177
H28 H 0.4765 0.3072 0.0322
C17 C 0.632(3) 0.554(3) -0.037(3)
H29 H 0.5911 0.5243 -0.0593
H30 H 0.6389 0.6008 -0.0593
H31 H 0.6154 0.5624 0.0077
C18 C 0.6153(7) 0.3334(7) 0.1660(5)
C19 C 0.780(4) 0.542(5) -0.079(4)
H32 H 0.8094 0.5011 -0.0984
H33 H 0.8160 0.5713 -0.0518
H34 H 0.7574 0.5733 -0.1132
C20 C 0.5711(8) 0.3920(7) 0.2040(6)
C21 C 0.5264(10) 0.4423(9) 0.1546(7)
H35 H 0.4876 0.4129 0.1301
H36 H 0.5654 0.4642 0.1248
H37 H 0.4982 0.4815 0.1779
C22 C 0.5088(12) 0.3560(9) 0.2481(9)
H38 H 0.4727 0.3253 0.2222
H39 H 0.4776 0.3944 0.2701
H40 H 0.5361 0.3254 0.2804
C23 C 0.6253(14) 0.4376(13) 0.2403(10)
H41 H 0.6646 0.4599 0.2110
H42 H 0.6534 0.4076 0.2726
H43 H 0.5950 0.4766 0.2623
C24 C 0.8901(7) 0.2328(7) 0.0109(6)
C25 C 0.9585(10) 0.2403(12) -0.0369(9)
C26 C 0.9502(10) 0.2882(12) -0.0852(9)
H44 H 0.9182 0.3303 -0.0706
H45 H 0.9230 0.2642 -0.1216
H46 H 1.0033 0.3053 -0.0991
C27 C 0.9887(12) 0.1600(12) -0.0546(8)
H47 H 0.9801 0.1271 -0.0176
H48 H 1.0461 0.1616 -0.0650
H49 H 0.9587 0.1417 -0.0921
C28 C 1.0402(13) 0.2621(18) 0.0074(14)
H50 H 1.0420 0.2311 0.0462
H51 H 1.0374 0.3140 0.0202
H52 H 1.0887 0.2538 -0.0184
C29 C 0.8841(6) 0.3336(7) 0.1667(5)
C30 C 0.9305(7) 0.3920(7) 0.2037(6)
C31 C 0.9717(11) 0.4433(10) 0.1545(7)
H53 H 1.0119 0.4154 0.1300
H54 H 0.9980 0.4839 0.1774
H55 H 0.9314 0.4632 0.1246
C32 C 0.8719(13) 0.4359(13) 0.2396(11)
H56 H 0.8346 0.4592 0.2091
H57 H 0.8999 0.4740 0.2644
H58 H 0.8420 0.4040 0.2692
C33 C 0.9889(13) 0.3568(10) 0.2494(9)
H59 H 1.0271 0.3267 0.2249
H60 H 0.9598 0.3255 0.2801
H61 H 1.0181 0.3951 0.2731
C34 C -0.0030(5) 0.1353(6) 0.2262(5)
H62 H -0.0254 0.1714 0.2541
C35 C 0.0656(6) 0.0992(6) 0.2453(5)
H63 H 0.0891 0.1101 0.2861
C36 C 0.0999(5) 0.0483(6) 0.2065(5)
C37 C 0.0628(5) 0.0347(6) 0.1485(5)
H64 H 0.0850 -0.0009 0.1199
C38 C -0.0059(6) 0.0716(6) 0.1309(5)
H65 H -0.0301 0.0613 0.0903
C39 C 0.1748(6) 0.0078(6) 0.2277(5)
H66 H 0.1746 -0.0423 0.2088
H67 H 0.1747 0.0028 0.2754
C40 C 0.2505(5) 0.0483(6) 0.2065(5)
H68 H 0.2511 0.0524 0.1587
H69 H 0.2501 0.0987 0.2246
C41 C 0.3248(5) 0.0089(7) 0.2286(6)
H70 H 0.3247 -0.0418 0.2110
H71 H 0.3245 0.0055 0.2764
C42 C 0.5035(6) 0.1360(6) 0.2263(5)
H72 H 0.5263 0.1720 0.2540
C43 C 0.4350(6) 0.1002(6) 0.2455(5)
H73 H 0.4114 0.1118 0.2861
C44 C 0.4006(5) 0.0482(6) 0.2069(5)
C45 C 0.4373(6) 0.0350(6) 0.1490(5)
H74 H 0.4149 -0.0006 0.1205
C46 C 0.5055(5) 0.0716(6) 0.1307(5)
H75 H 0.5289 0.0611 0.0899
N1 N -0.0394(4) 0.1215(5) 0.1695(4)
N2 N 0.5397(4) 0.1216(5) 0.1691(4)
N3 N 0.7116(17) 0.5118(14) -0.0374(13)
O1 O 0.8162(4) 0.0738(4) 0.1085(3)
O2 O 0.7493(3) 0.2185(3) 0.1187(3)
O3 O 0.6835(4) 0.0735(4) 0.1092(3)
O4 O 0.7497(7) 0.4067(6) 0.0190(4)
O5 O 0.8164(4) 0.1537(4) 0.2350(3)
O6 O 0.6836(4) 0.1537(4) 0.2353(3)
O7 O 0.5962(4) 0.1896(5) 0.0554(4)
O8 O 0.6646(4) 0.2775(5) 0.0068(3)
O9 O 0.6006(4) 0.2683(5) 0.1759(4)
O10 O 0.6648(5) 0.3574(4) 0.1260(4)
O11 O 0.8350(5) 0.2781(5) 0.0067(3)
O12 O 0.9037(4) 0.1897(4) 0.0554(4)
O13 O 0.8348(5) 0.3580(4) 0.1255(4)
O14 O 0.8998(4) 0.2684(4) 0.1759(4)
Fe1 Fe 0.74998(9) 0.30626(8) 0.07281(7)
Fe2 Fe 0.65132(7) 0.17398(7) 0.14254(6)
Ni1 Ni 0.84856(7) 0.17380(7) 0.14252(6)
N1_2 N 0.9606(4) 0.1215(5) 0.1695(4)
Ni1_2 Ni -0.15144(7) 0.17380(7) 0.14252(6)
C47 C 0.750(2) 0.3176(16) -0.1176(13)
H76 H 0.7508 0.3214 -0.0718
C48 C 0.7525(17) 0.2370(15) -0.2332(13)
H77 H 0.7548 0.2858 -0.2532
H78 H 0.7039 0.2114 -0.2476
H79 H 0.7999 0.2084 -0.2458
C49 C 0.750(2) 0.175(2) -0.1102(18)
H80 H 0.7511 0.1908 -0.0648
H81 H 0.7974 0.1450 -0.1194
H82 H 0.7014 0.1464 -0.1184
N4 N 0.7506(16) 0.2456(12) -0.1555(14)
O15 O 0.7495(12) 0.3718(10) -0.1564(10)
O16 O 0.771(6) 0.2529(17) -0.355(3)
C50? C 0.702(3) -0.003(2) -0.0086(14)
C51? C 0.699(3) -0.0803(18) 0.0839(18)
C52? C 0.8331(16) -0.0549(19) 0.0414(18)
C53? C 0.6926(19) 0.0995(17) 0.3646(13)
C54? C 0.706(3) 0.2347(16) 0.3517(13)
C55? C 0.8289(19) 0.158(3) 0.3663(18)
C56? C 0.8056(16) 0.4484(13) 0.0070(13)
C57? C 0.872(3) 0.552(3) -0.040(3)
C58? C 0.722(4) 0.545(5) -0.078(4)
H83? H 0.7011 -0.0463 -0.0369
H84? H 0.7272 0.0383 -0.0315
H85? H 0.6471 0.0102 0.0035
H86? H 0.6990 -0.1247 0.0570
H87? H 0.6439 -0.0626 0.0893
H88? H 0.7219 -0.0919 0.1265
H89? H 0.8282 -0.0989 0.0143
H90? H 0.8558 -0.0685 0.0835
H91? H 0.8685 -0.0192 0.0201
H92? H 0.6400 0.1025 0.3436
H93? H 0.6864 0.1061 0.4114
H94? H 0.7165 0.0511 0.3560
H95? H 0.6537 0.2350 0.3298
H96? H 0.7381 0.2764 0.3364
H97? H 0.6978 0.2389 0.3985
H98? H 0.8236 0.1629 0.4133
H99? H 0.8627 0.1981 0.3497
H100? H 0.8536 0.1107 0.3559
H101? H 0.8569 0.4405 0.0258
H102? H 0.9083 0.5260 -0.0695
H103? H 0.8954 0.5513 0.0039
H104? H 0.8649 0.6026 -0.0541
H105? H 0.7045 0.5090 -0.1098
H106? H 0.7403 0.5900 -0.0996
H107? H 0.6777 0.5570 -0.0485
N5? N 0.7916(18) 0.5129(15) -0.0386(13)
O17? O 0.720(7) 0.262(2) -0.418(2)
loop_
_geom_bond_atom_site_label_1
_geom_bond_atom_site_label_2
_geom_bond_site_symmetry_1
_geom_bond_site_symmetry_2
C1 C2 1_555 1_555
C2 C3 1_555 1_555
C3 H1 1_555 1_555
H2 C3 1_555 1_555
H3 C3 1_555 1_555
C4 C2 1_555 1_555
H4 C4 1_555 1_555
H5 C4 1_555 1_555
H6 C4 1_555 1_555
C5 C2 1_555 1_555
H7 C5 1_555 1_555
H8 C5 1_555 1_555
H9 C5 1_555 1_555
C6 C7 1_555 1_555
C7 C8 1_555 1_555
C8 H10 1_555 1_555
H11 C8 1_555 1_555
H12 C8 1_555 1_555
C9 C7 1_555 1_555
H13 C9 1_555 1_555
H14 C9 1_555 1_555
H15 C9 1_555 1_555
C10 C7 1_555 1_555
H16 C10 1_555 1_555
H17 C10 1_555 1_555
H18 C10 1_555 1_555
C11 H19 1_555 1_555
C12 C13 1_555 1_555
C13 C14 1_555 1_555
C14 H20 1_555 1_555
H21 C14 1_555 1_555
H22 C14 1_555 1_555
C15 C13 1_555 1_555
H23 C15 1_555 1_555
H24 C15 1_555 1_555
H25 C15 1_555 1_555
C16 C13 1_555 1_555
H26 C16 1_555 1_555
H27 C16 1_555 1_555
H28 C16 1_555 1_555
C17 H29 1_555 1_555
H30 C17 1_555 1_555
H31 C17 1_555 1_555
C18 C20 1_555 1_555
C19 H32 1_555 1_555
H33 C19 1_555 1_555
H34 C19 1_555 1_555
C20 C21 1_555 1_555
C21 H35 1_555 1_555
H36 C21 1_555 1_555
H37 C21 1_555 1_555
C22 C20 1_555 1_555
H38 C22 1_555 1_555
H39 C22 1_555 1_555
H40 C22 1_555 1_555
C23 C20 1_555 1_555
H41 C23 1_555 1_555
H42 C23 1_555 1_555
H43 C23 1_555 1_555
C24 C25 1_555 1_555
C25 C26 1_555 1_555
C26 H44 1_555 1_555
H45 C26 1_555 1_555
H46 C26 1_555 1_555
C27 C25 1_555 1_555
H47 C27 1_555 1_555
H48 C27 1_555 1_555
H49 C27 1_555 1_555
C28 C25 1_555 1_555
H50 C28 1_555 1_555
H51 C28 1_555 1_555
H52 C28 1_555 1_555
C29 C30 1_555 1_555
C30 C31 1_555 1_555
C31 H53 1_555 1_555
H54 C31 1_555 1_555
H55 C31 1_555 1_555
C32 C30 1_555 1_555
H56 C32 1_555 1_555
H57 C32 1_555 1_555
H58 C32 1_555 1_555
C33 C30 1_555 1_555
H59 C33 1_555 1_555
H60 C33 1_555 1_555
H61 C33 1_555 1_555
C34 H62 1_555 1_555
C35 C34 1_555 1_555
H63 C35 1_555 1_555
C36 C35 1_555 1_555
C37 C36 1_555 1_555
H64 C37 1_555 1_555
C38 C37 1_555 1_555
H65 C38 1_555 1_555
C39 C36 1_555 1_555
H66 C39 1_555 1_555
H67 C39 1_555 1_555
C40 C39 1_555 1_555
H68 C40 1_555 1_555
H69 C40 1_555 1_555
C41 C40 1_555 1_555
H70 C41 1_555 1_555
H71 C41 1_555 1_555
C42 H72 1_555 1_555
C43 C42 1_555 1_555
H73 C43 1_555 1_555
C44 C41 1_555 1_555
C45 C44 1_555 1_555
H74 C45 1_555 1_555
C46 C45 1_555 1_555
H75 C46 1_555 1_555
N1 C34 1_555 1_555
N2 C42 1_555 1_555
N3 C11 1_555 1_555
O1 C1 1_555 1_555
O2 Fe1 1_555 1_555
O3 C1 1_555 1_555
O4 C11 1_555 1_555
O5 C6 1_555 1_555
O6 C6 1_555 1_555
O7 C12 1_555 1_555
O8 C12 1_555 1_555
O9 C18 1_555 1_555
O10 C18 1_555 1_555
O11 C24 1_555 1_555
O12 C24 1_555 1_555
O13 C29 1_555 1_555
O14 C29 1_555 1_555
Fe1 O4 1_555 1_555
Fe2 N2 1_555 1_555
Ni1 O1 1_555 1_555
C47 H76 1_555 1_555
C48 H77 1_555 1_555
H78 C48 1_555 1_555
H79 C48 1_555 1_555
C49 H80 1_555 1_555
H81 C49 1_555 1_555
H82 C49 1_555 1_555
N4 C47 1_555 1_555
O15 C47 1_555 1_555
N1_2 Ni1 1_555 1_555
Ni1_2 N1 1_555 1_555
C17 N3 1_555 1_555
C19 N3 1_555 1_555
C38 N1 1_555 1_555
C43 C44 1_555 1_555
C46 N2 1_555 1_555
O2 Fe2 1_555 1_555
O2 Ni1 1_555 1_555
O3 Fe2 1_555 1_555
O5 Ni1 1_555 1_555
O6 Fe2 1_555 1_555
O7 Fe2 1_555 1_555
O8 Fe1 1_555 1_555
O9 Fe2 1_555 1_555
O10 Fe1 1_555 1_555
O11 Fe1 1_555 1_555
O12 Ni1 1_555 1_555
O13 Fe1 1_555 1_555
O14 Ni1 1_555 1_555
C48 N4 1_555 1_555
C49 N4 1_555 1_555

#END
