
#######################################################################
#
#                 Cambridge Crystallographic Data Centre
#                                CCDC 
#
#######################################################################
#
# If this CIF has been generated from an entry in the Cambridge 
# Structural Database, then it will include bibliographic, chemical, 
# crystal, experimental, refinement or atomic coordinate data resulting 
# from the CCDC's data processing and validation procedures.
#
#######################################################################

data_PANBAJ
_symmetry_cell_setting           triclinic
_symmetry_space_group_name_H-M   'P -1'
_symmetry_Int_Tables_number      2
_space_group_name_Hall           '-P 1'
loop_
_symmetry_equiv_pos_site_id
_symmetry_equiv_pos_as_xyz
1 x,y,z
2 -x,-y,-z
_cell_length_a                   11.878(2)
_cell_length_b                   12.995(3)
_cell_length_c                   22.099(4)
_cell_angle_alpha                104.64(3)
_cell_angle_beta                 98.21(3)
_cell_angle_gamma                102.66(3)
_cell_volume                     3148.33
loop_
_atom_site_label
_atom_site_type_symbol
_atom_site_fract_x
_atom_site_fract_y
_atom_site_fract_z
C1 C -0.2193(13) -0.0070(13) -0.3489(7)
C2 C -0.2952(15) -0.0919(14) -0.4113(8)
C3 C -0.2191(16) -0.1361(15) -0.4550(8)
H1 H -0.2684 -0.1875 -0.4939
H2 H -0.1710 -0.1728 -0.4342
H3 H -0.1694 -0.0762 -0.4648
C4 C -0.3617(14) -0.0247(13) -0.4435(7)
H4 H -0.4112 0.0041 -0.4166
H5 H -0.4095 -0.0713 -0.4840
H6 H -0.3060 0.0352 -0.4499
C5 C -0.3772(16) -0.1847(14) -0.3985(7)
H7 H -0.4250 -0.1559 -0.3705
H8 H -0.3323 -0.2250 -0.3786
H9 H -0.4271 -0.2331 -0.4380
C6 C -0.1968(16) 0.2634(15) -0.2215(10)
C7 C -0.2544(18) 0.3540(19) -0.1945(10)
C8 C -0.224(3) 0.389(2) -0.1164(13)
H10 H -0.2532 0.3261 -0.1025
H11 H -0.2618 0.4457 -0.0999
H12 H -0.1406 0.4169 -0.1009
C9 C -0.208(3) 0.454(2) -0.2118(16)
H13 H -0.2485 0.5083 -0.1962
H14 H -0.2188 0.4371 -0.2574
H15 H -0.1250 0.4832 -0.1929
C10 C -0.392(2) 0.3082(18) -0.2103(13)
H16 H -0.4128 0.2426 -0.1974
H17 H -0.4209 0.2912 -0.2555
H18 H -0.4259 0.3628 -0.1877
C11 C 0.0011(16) -0.1122(15) -0.2123(7)
C12 C -0.0133(16) -0.2279(13) -0.2561(7)
C13 C -0.009(2) -0.2132(14) -0.3216(7)
H19 H -0.0131 -0.2828 -0.3513
H20 H 0.0640 -0.1610 -0.3193
H21 H -0.0739 -0.1865 -0.3356
C14 C -0.1307(18) -0.3094(15) -0.2596(11)
H22 H -0.1343 -0.3806 -0.2873
H23 H -0.1949 -0.2837 -0.2762
H24 H -0.1364 -0.3150 -0.2176
C15 C 0.0851(19) -0.2703(18) -0.2329(10)
H25 H 0.0783 -0.3419 -0.2611
H26 H 0.0821 -0.2755 -0.1906
H27 H 0.1588 -0.2208 -0.2321
C16 C 0.005(2) 0.1507(13) -0.0711(8)
C17 C 0.0086(17) 0.2095(17) 0.0017(8)
C18 C -0.013(3) 0.325(2) 0.0020(10)
H28 H -0.0888 0.3142 -0.0242
H29 H 0.0474 0.3647 -0.0146
H30 H -0.0106 0.3666 0.0450
C19 C -0.098(2) 0.138(2) 0.0238(11)
H31 H -0.0832 0.0693 0.0251
H32 H -0.1706 0.1251 -0.0060
H33 H -0.1042 0.1787 0.0656
C20 C 0.1336(19) 0.223(2) 0.0415(8)
H34 H 0.1461 0.1518 0.0387
H35 H 0.1389 0.2621 0.0854
H36 H 0.1927 0.2643 0.0248
C21 C -0.2019(16) -0.0957(12) 0.3010(9)
C22 C -0.2777(14) -0.0592(13) 0.3502(8)
C23 C -0.1961(15) 0.0241(13) 0.4103(7)
H37 H -0.1411 -0.0098 0.4284
H38 H -0.1538 0.0865 0.3994
H39 H -0.2420 0.0479 0.4408
C24 C -0.3371(15) -0.1640(13) 0.3657(7)
H40 H -0.2777 -0.1921 0.3852
H41 H -0.3880 -0.1468 0.3946
H42 H -0.3827 -0.2186 0.3270
C25 C -0.3675(16) -0.0116(15) 0.3212(7)
H43 H -0.4150 0.0098 0.3513
H44 H -0.3284 0.0519 0.3101
H45 H -0.4170 -0.0659 0.2833
C26 C -0.1967(15) -0.3571(14) 0.1753(7)
C27 C -0.2625(19) -0.4738(14) 0.1456(9)
C28 C -0.324(3) -0.515(2) 0.1886(12)
H46 H -0.3954 -0.4919 0.1889
H47 H -0.3434 -0.5944 0.1752
H48 H -0.2753 -0.4874 0.2309
C29 C -0.1664(18) -0.533(2) 0.1292(11)
H49 H -0.2030 -0.6099 0.1069
H50 H -0.1227 -0.4999 0.1026
H51 H -0.1137 -0.5273 0.1679
C30 C -0.338(2) -0.4878(18) 0.0802(11)
H52 H -0.4029 -0.4557 0.0863
H53 H -0.2909 -0.4514 0.0560
H54 H -0.3684 -0.5649 0.0574
C31 C 0.0105(15) -0.3874(14) 0.3474(8)
H55 H 0.0134 -0.4238 0.3059
C32 C 0.0100(16) -0.4407(14) 0.3911(8)
H56 H 0.0171 -0.5126 0.3806
C33 C -0.0005(14) -0.3923(15) 0.4497(8)
C34 C -0.0013(14) -0.2838(14) 0.4680(7)
H57 H -0.0045 -0.2477 0.5096
C35 C 0.0030(14) -0.2307(13) 0.4206(8)
H58 H 0.0033 -0.1566 0.4312
C36 C -0.0016(14) -0.4481(11) 0.5029(8)
H59 H -0.0049 -0.4055 0.5430
C37 C -0.4070(14) -0.2040(12) 0.0988(7)
H60 H -0.4140 -0.2483 0.1260
C38 C -0.4992(14) -0.2236(13) 0.0506(7)
H61 H -0.5676 -0.2776 0.0474
C39 C -0.4966(14) -0.1680(12) 0.0065(7)
C40 C -0.3963(14) -0.0818(13) 0.0183(7)
H62 H -0.3906 -0.0331 -0.0063
C41 C -0.3066(13) -0.0711(12) 0.0671(7)
H63 H -0.2364 -0.0191 0.0706
C42 C -0.5949(14) -0.1877(12) -0.0434(7)
H64 H -0.6675 -0.2139 -0.0338
C43 C -0.4155(14) -0.0122(13) -0.1856(7)
H65 H -0.4195 0.0432 -0.2049
C44 C -0.5101(14) -0.0558(13) -0.1663(7)
H66 H -0.5804 -0.0368 -0.1756
C45 C -0.5018(16) -0.1308(13) -0.1318(7)
C46 C -0.4000(14) -0.1704(14) -0.1292(7)
H67 H -0.3970 -0.2305 -0.1140
C47 C -0.3064(14) -0.1187(14) -0.1494(7)
H68 H -0.2354 -0.1372 -0.1422
C48 C -0.6015(14) -0.1752(12) -0.1023(7)
H69 H -0.6768 -0.1965 -0.1280
N1 N 0.0067(11) -0.2795(11) 0.3625(6)
N2 N -0.3137(12) -0.0416(10) -0.1795(5)
N3 N -0.3067(10) -0.1260(9) 0.1106(5)
O1 O -0.1395(9) 0.0706(9) -0.3522(4)
O2 O -0.0043(8) 0.1216(7) -0.2192(4)
O3 O -0.2363(9) -0.0270(9) -0.2963(4)
O4 O -0.1240(10) 0.2770(9) -0.2537(5)
O5 O -0.2278(9) 0.1743(9) -0.2024(5)
O6 O -0.0942(10) -0.0903(8) -0.2027(5)
O7 O 0.1023(10) -0.0455(9) -0.1871(5)
O8 O -0.1016(10) 0.1098(9) -0.1046(4)
O9 O 0.0975(10) 0.1449(11) -0.0860(5)
O10 O -0.2305(10) -0.1009(10) 0.2441(5)
O11 O -0.1102(10) -0.1230(8) 0.3272(4)
O12 O -0.2133(10) -0.2856(8) 0.1500(5)
O13 O -0.1242(10) -0.3308(8) 0.2304(5)
Fe1 Fe -0.1507(2) 0.04871(18) -0.20278(10)
Fe2 Fe -0.1414(2) -0.12053(18) 0.17179(10)
Co1 Co -0.0098(2) 0.19182(19) -0.28523(10)
C1A C 0.2193(13) 0.0070(13) 0.3489(7)
C2A C 0.2952(15) 0.0919(14) 0.4113(8)
C3A C 0.2191(16) 0.1361(15) 0.4550(8)
H1A H 0.2684 0.1875 0.4939
H2A H 0.1710 0.1728 0.4342
H3A H 0.1694 0.0762 0.4648
C4A C 0.3617(14) 0.0247(13) 0.4435(7)
H4A H 0.4112 -0.0041 0.4166
H5A H 0.4095 0.0713 0.4840
H6A H 0.3060 -0.0352 0.4499
C5A C 0.3772(16) 0.1847(14) 0.3985(7)
H7A H 0.4250 0.1559 0.3705
H8A H 0.3323 0.2250 0.3786
H9A H 0.4271 0.2331 0.4380
C6A C 0.1968(16) -0.2634(15) 0.2215(10)
C7A C 0.2544(18) -0.3540(19) 0.1945(10)
C8A C 0.224(3) -0.389(2) 0.1164(13)
H10A H 0.2532 -0.3261 0.1025
H11A H 0.2618 -0.4457 0.0999
H12A H 0.1406 -0.4169 0.1009
C9A C 0.208(3) -0.454(2) 0.2118(16)
H13A H 0.2485 -0.5083 0.1962
H14A H 0.2188 -0.4371 0.2574
H15A H 0.1250 -0.4832 0.1929
C10A C 0.392(2) -0.3082(18) 0.2103(13)
H16A H 0.4128 -0.2426 0.1974
H17A H 0.4209 -0.2912 0.2555
H18A H 0.4259 -0.3628 0.1877
C11A C -0.0011(16) 0.1122(15) 0.2123(7)
C12A C 0.0133(16) 0.2279(13) 0.2561(7)
C13A C 0.009(2) 0.2132(14) 0.3216(7)
H19A H 0.0131 0.2828 0.3513
H20A H -0.0640 0.1610 0.3193
H21A H 0.0739 0.1865 0.3356
C14A C 0.1307(18) 0.3094(15) 0.2596(11)
H22A H 0.1343 0.3806 0.2873
H23A H 0.1949 0.2837 0.2762
H24A H 0.1364 0.3150 0.2176
C15A C -0.0851(19) 0.2703(18) 0.2329(10)
H25A H -0.0783 0.3419 0.2611
H26A H -0.0821 0.2755 0.1906
H27A H -0.1588 0.2208 0.2321
C16A C -0.005(2) -0.1507(13) 0.0711(8)
C17A C -0.0086(17) -0.2095(17) -0.0017(8)
C18A C 0.013(3) -0.325(2) -0.0020(10)
H28A H 0.0888 -0.3142 0.0242
H29A H -0.0474 -0.3647 0.0146
H30A H 0.0106 -0.3666 -0.0450
C19A C 0.098(2) -0.138(2) -0.0238(11)
H31A H 0.0832 -0.0693 -0.0251
H32A H 0.1706 -0.1251 0.0060
H33A H 0.1042 -0.1787 -0.0656
C20A C -0.1336(19) -0.223(2) -0.0415(8)
H34A H -0.1461 -0.1518 -0.0387
H35A H -0.1389 -0.2621 -0.0854
H36A H -0.1927 -0.2643 -0.0248
C21A C 0.2019(16) 0.0957(12) -0.3010(9)
C22A C 0.2777(14) 0.0592(13) -0.3502(8)
C23A C 0.1961(15) -0.0241(13) -0.4103(7)
H37A H 0.1411 0.0098 -0.4284
H38A H 0.1538 -0.0865 -0.3994
H39A H 0.2420 -0.0479 -0.4408
C24A C 0.3371(15) 0.1640(13) -0.3657(7)
H40A H 0.2777 0.1921 -0.3852
H41A H 0.3880 0.1468 -0.3946
H42A H 0.3827 0.2186 -0.3270
C25A C 0.3675(16) 0.0116(15) -0.3212(7)
H43A H 0.4150 -0.0098 -0.3513
H44A H 0.3284 -0.0519 -0.3101
H45A H 0.4170 0.0659 -0.2833
C26A C 0.1967(15) 0.3571(14) -0.1753(7)
C27A C 0.2625(19) 0.4738(14) -0.1456(9)
C28A C 0.324(3) 0.515(2) -0.1886(12)
H46A H 0.3954 0.4919 -0.1889
H47A H 0.3434 0.5944 -0.1752
H48A H 0.2753 0.4874 -0.2309
C29A C 0.1664(18) 0.533(2) -0.1292(11)
H49A H 0.2030 0.6099 -0.1069
H50A H 0.1227 0.4999 -0.1026
H51A H 0.1137 0.5273 -0.1679
C30A C 0.338(2) 0.4878(18) -0.0802(11)
H52A H 0.4029 0.4557 -0.0863
H53A H 0.2909 0.4514 -0.0560
H54A H 0.3684 0.5649 -0.0574
C31A C -0.0105(15) -0.6126(14) 0.6526(8)
H55A H -0.0134 -0.5762 0.6941
C32A C -0.0100(16) -0.5593(14) 0.6089(8)
H56A H -0.0171 -0.4874 0.6194
C33A C 0.0005(14) -0.6077(15) 0.5503(8)
C34A C 0.0013(14) -0.7162(14) 0.5320(7)
H57A H 0.0045 -0.7523 0.4904
C35A C -0.0030(14) -0.7693(13) 0.5794(8)
H58A H -0.0033 -0.8434 0.5688
C36A C 0.0016(14) -0.5519(11) 0.4971(8)
H59A H 0.0049 -0.5945 0.4570
C37A C 0.4070(14) 0.2040(12) -0.0988(7)
H60A H 0.4140 0.2483 -0.1260
C38A C 0.4992(14) 0.2236(13) -0.0506(7)
H61A H 0.5676 0.2776 -0.0474
C39A C 0.4966(14) 0.1680(12) -0.0065(7)
C40A C 0.3963(14) 0.0818(13) -0.0183(7)
H62A H 0.3906 0.0331 0.0063
C41A C 0.3066(13) 0.0711(12) -0.0671(7)
H63A H 0.2364 0.0191 -0.0706
C42A C 0.5949(14) 0.1877(12) 0.0434(7)
H64A H 0.6675 0.2139 0.0338
C43A C 0.4155(14) 0.0122(13) 0.1856(7)
H65A H 0.4195 -0.0432 0.2049
C44A C 0.5101(14) 0.0558(13) 0.1663(7)
H66A H 0.5804 0.0368 0.1756
C45A C 0.5018(16) 0.1308(13) 0.1318(7)
C46A C 0.4000(14) 0.1704(14) 0.1292(7)
H67A H 0.3970 0.2305 0.1140
C47A C 0.3064(14) 0.1187(14) 0.1494(7)
H68A H 0.2354 0.1372 0.1422
C48A C 0.6015(14) 0.1752(12) 0.1023(7)
H69A H 0.6768 0.1965 0.1280
N1A N -0.0067(11) 0.2795(11) -0.3625(6)
N1A_2 N -0.0067(11) -0.7205(11) 0.6375(6)
N2A N 0.3137(12) 0.0416(10) 0.1795(5)
N3A N 0.3067(10) 0.1260(9) -0.1106(5)
O1A O 0.1395(9) -0.0706(9) 0.3522(4)
O2A O 0.0043(8) -0.1216(7) 0.2192(4)
O3A O 0.2363(9) 0.0270(9) 0.2963(4)
O4A O 0.1240(10) -0.2770(9) 0.2537(5)
O5A O 0.2278(9) -0.1743(9) 0.2024(5)
O6A O 0.0942(10) 0.0903(8) 0.2027(5)
O7A O -0.1023(10) 0.0455(9) 0.1871(5)
O8A O 0.1016(10) -0.1098(9) 0.1046(4)
O9A O -0.0975(10) -0.1449(11) 0.0860(5)
O10A O 0.2305(10) 0.1009(10) -0.2441(5)
O11A O 0.1102(10) 0.1230(8) -0.3272(4)
O12A O 0.2133(10) 0.2856(8) -0.1500(5)
O13A O 0.1242(10) 0.3308(8) -0.2304(5)
Fe1A Fe 0.1507(2) -0.04871(18) 0.20278(10)
Fe2A Fe 0.1414(2) 0.12053(18) -0.17179(10)
Co1A Co 0.0098(2) -0.19182(19) 0.28523(10)
Co1_2 Co -0.0098(2) -0.80818(19) 0.71477(10)
loop_
_geom_bond_atom_site_label_1
_geom_bond_atom_site_label_2
_geom_bond_site_symmetry_1
_geom_bond_site_symmetry_2
C1 C2 1_555 1_555
C2 C3 1_555 1_555
C3 H1 1_555 1_555
H2 C3 1_555 1_555
H3 C3 1_555 1_555
C4 C2 1_555 1_555
H4 C4 1_555 1_555
H5 C4 1_555 1_555
H6 C4 1_555 1_555
C5 C2 1_555 1_555
H7 C5 1_555 1_555
H8 C5 1_555 1_555
H9 C5 1_555 1_555
C6 C7 1_555 1_555
C7 C8 1_555 1_555
C8 H10 1_555 1_555
H11 C8 1_555 1_555
H12 C8 1_555 1_555
C9 C7 1_555 1_555
H13 C9 1_555 1_555
H14 C9 1_555 1_555
H15 C9 1_555 1_555
C10 C7 1_555 1_555
H16 C10 1_555 1_555
H17 C10 1_555 1_555
H18 C10 1_555 1_555
C11 C12 1_555 1_555
C12 C13 1_555 1_555
C13 H19 1_555 1_555
H20 C13 1_555 1_555
H21 C13 1_555 1_555
C14 C12 1_555 1_555
H22 C14 1_555 1_555
H23 C14 1_555 1_555
H24 C14 1_555 1_555
C15 C12 1_555 1_555
H25 C15 1_555 1_555
H26 C15 1_555 1_555
H27 C15 1_555 1_555
C16 C17 1_555 1_555
C17 C18 1_555 1_555
C18 H28 1_555 1_555
H29 C18 1_555 1_555
H30 C18 1_555 1_555
C19 C17 1_555 1_555
H31 C19 1_555 1_555
H32 C19 1_555 1_555
H33 C19 1_555 1_555
C20 C17 1_555 1_555
H34 C20 1_555 1_555
H35 C20 1_555 1_555
H36 C20 1_555 1_555
C21 C22 1_555 1_555
C22 C23 1_555 1_555
C23 H37 1_555 1_555
H38 C23 1_555 1_555
H39 C23 1_555 1_555
C24 C22 1_555 1_555
H40 C24 1_555 1_555
H41 C24 1_555 1_555
H42 C24 1_555 1_555
C25 C22 1_555 1_555
H43 C25 1_555 1_555
H44 C25 1_555 1_555
H45 C25 1_555 1_555
C26 C27 1_555 1_555
C27 C28 1_555 1_555
C28 H46 1_555 1_555
H47 C28 1_555 1_555
H48 C28 1_555 1_555
C29 C27 1_555 1_555
H49 C29 1_555 1_555
H50 C29 1_555 1_555
H51 C29 1_555 1_555
C30 C27 1_555 1_555
H52 C30 1_555 1_555
H53 C30 1_555 1_555
H54 C30 1_555 1_555
C31 H55 1_555 1_555
C32 C31 1_555 1_555
H56 C32 1_555 1_555
C33 C32 1_555 1_555
C34 C33 1_555 1_555
H57 C34 1_555 1_555
C35 C34 1_555 1_555
H58 C35 1_555 1_555
C36 C33 1_555 1_555
H59 C36 1_555 1_555
C37 H60 1_555 1_555
C38 C37 1_555 1_555
H61 C38 1_555 1_555
C39 C38 1_555 1_555
C40 C39 1_555 1_555
H62 C40 1_555 1_555
C41 C40 1_555 1_555
H63 C41 1_555 1_555
C42 C39 1_555 1_555
H64 C42 1_555 1_555
C43 H65 1_555 1_555
C44 C43 1_555 1_555
H66 C44 1_555 1_555
C45 C44 1_555 1_555
C46 C45 1_555 1_555
H67 C46 1_555 1_555
C47 C46 1_555 1_555
H68 C47 1_555 1_555
C48 C42 1_555 1_555
H69 C48 1_555 1_555
N1 C31 1_555 1_555
N2 C43 1_555 1_555
N3 C37 1_555 1_555
O1 C1 1_555 1_555
O2 Fe1 1_555 1_555
O3 C1 1_555 1_555
O4 C6 1_555 1_555
O5 C6 1_555 1_555
O6 C11 1_555 1_555
O7 C11 1_555 1_555
O8 C16 1_555 1_555
O9 C16 1_555 1_555
O10 C21 1_555 1_555
O11 C21 1_555 1_555
O12 C26 1_555 1_555
O13 C26 1_555 1_555
Fe1 N2 1_555 1_555
Fe2 N3 1_555 1_555
Co1 O1 1_555 1_555
C1A C2A 1_555 1_555
C2A C3A 1_555 1_555
C3A H1A 1_555 1_555
H2A C3A 1_555 1_555
H3A C3A 1_555 1_555
C4A C2A 1_555 1_555
H4A C4A 1_555 1_555
H5A C4A 1_555 1_555
H6A C4A 1_555 1_555
C5A C2A 1_555 1_555
H7A C5A 1_555 1_555
H8A C5A 1_555 1_555
H9A C5A 1_555 1_555
C6A C7A 1_555 1_555
C7A C8A 1_555 1_555
C8A H10A 1_555 1_555
H11A C8A 1_555 1_555
H12A C8A 1_555 1_555
C9A C7A 1_555 1_555
H13A C9A 1_555 1_555
H14A C9A 1_555 1_555
H15A C9A 1_555 1_555
C10A C7A 1_555 1_555
H16A C10A 1_555 1_555
H17A C10A 1_555 1_555
H18A C10A 1_555 1_555
C11A C12A 1_555 1_555
C12A C13A 1_555 1_555
C13A H19A 1_555 1_555
H20A C13A 1_555 1_555
H21A C13A 1_555 1_555
C14A C12A 1_555 1_555
H22A C14A 1_555 1_555
H23A C14A 1_555 1_555
H24A C14A 1_555 1_555
C15A C12A 1_555 1_555
H25A C15A 1_555 1_555
H26A C15A 1_555 1_555
H27A C15A 1_555 1_555
C16A C17A 1_555 1_555
C17A C18A 1_555 1_555
C18A H28A 1_555 1_555
H29A C18A 1_555 1_555
H30A C18A 1_555 1_555
C19A C17A 1_555 1_555
H31A C19A 1_555 1_555
H32A C19A 1_555 1_555
H33A C19A 1_555 1_555
C20A C17A 1_555 1_555
H34A C20A 1_555 1_555
H35A C20A 1_555 1_555
H36A C20A 1_555 1_555
C21A C22A 1_555 1_555
C22A C23A 1_555 1_555
C23A H37A 1_555 1_555
H38A C23A 1_555 1_555
H39A C23A 1_555 1_555
C24A C22A 1_555 1_555
H40A C24A 1_555 1_555
H41A C24A 1_555 1_555
H42A C24A 1_555 1_555
C25A C22A 1_555 1_555
H43A C25A 1_555 1_555
H44A C25A 1_555 1_555
H45A C25A 1_555 1_555
C26A C27A 1_555 1_555
C27A C28A 1_555 1_555
C28A H46A 1_555 1_555
H47A C28A 1_555 1_555
H48A C28A 1_555 1_555
C29A C27A 1_555 1_555
H49A C29A 1_555 1_555
H50A C29A 1_555 1_555
H51A C29A 1_555 1_555
C30A C27A 1_555 1_555
H52A C30A 1_555 1_555
H53A C30A 1_555 1_555
H54A C30A 1_555 1_555
C31A H55A 1_555 1_555
C32A C31A 1_555 1_555
H56A C32A 1_555 1_555
C33A C32A 1_555 1_555
C34A C33A 1_555 1_555
H57A C34A 1_555 1_555
C35A C34A 1_555 1_555
H58A C35A 1_555 1_555
C36A C36 1_555 1_555
H59A C36A 1_555 1_555
C37A H60A 1_555 1_555
C38A C37A 1_555 1_555
H61A C38A 1_555 1_555
C39A C38A 1_555 1_555
C40A C39A 1_555 1_555
H62A C40A 1_555 1_555
C41A C40A 1_555 1_555
H63A C41A 1_555 1_555
C42A C39A 1_555 1_555
H64A C42A 1_555 1_555
C43A H65A 1_555 1_555
C44A C43A 1_555 1_555
H66A C44A 1_555 1_555
C45A C44A 1_555 1_555
C46A C45A 1_555 1_555
H67A C46A 1_555 1_555
C47A C46A 1_555 1_555
H68A C47A 1_555 1_555
C48A C42A 1_555 1_555
H69A C48A 1_555 1_555
N1A Co1 1_555 1_555
N1A_2 C31A 1_555 1_555
N2A C43A 1_555 1_555
N3A C37A 1_555 1_555
O1A C1A 1_555 1_555
O2A Fe2 1_555 1_555
O3A C1A 1_555 1_555
O4A C6A 1_555 1_555
O5A C6A 1_555 1_555
O6A C11A 1_555 1_555
O7A Fe2 1_555 1_555
O8A C16A 1_555 1_555
O9A Fe2 1_555 1_555
O10A C21A 1_555 1_555
O11A Co1 1_555 1_555
O12A C26A 1_555 1_555
O13A Co1 1_555 1_555
Fe1A N2A 1_555 1_555
Fe2A O2 1_555 1_555
Co1A N1 1_555 1_555
Co1_2 N1A_2 1_555 1_555
C35 N1 1_555 1_555
C41 N3 1_555 1_555
C45 C48 1_555 1_555
C47 N2 1_555 1_555
O2 Co1 1_555 1_555
O3 Fe1 1_555 1_555
O4 Co1 1_555 1_555
O5 Fe1 1_555 1_555
O6 Fe1 1_555 1_555
O7 Fe2A 1_555 1_555
O8 Fe1 1_555 1_555
O9 Fe2A 1_555 1_555
O10 Fe2 1_555 1_555
O11 Co1A 1_555 1_555
O12 Fe2 1_555 1_555
O13 Co1A 1_555 1_555
C11A O7A 1_555 1_555
C16A O9A 1_555 1_555
C21A O11A 1_555 1_555
C26A O13A 1_555 1_555
C33A C36A 1_555 1_555
C35A N1A_2 1_555 1_555
C41A N3A 1_555 1_555
C45A C48A 1_555 1_555
C47A N2A 1_555 1_555
N3A Fe2A 1_555 1_555
O1A Co1A 1_555 1_555
O2A Fe1A 1_555 1_555
O2A Co1A 1_555 1_555
O3A Fe1A 1_555 1_555
O4A Co1A 1_555 1_555
O5A Fe1A 1_555 1_555
O6A Fe1A 1_555 1_555
O8A Fe1A 1_555 1_555
O10A Fe2A 1_555 1_555
O12A Fe2A 1_555 1_555

#END
