
#######################################################################
#
#                 Cambridge Crystallographic Data Centre
#                                CCDC 
#
#######################################################################
#
# If this CIF has been generated from an entry in the Cambridge 
# Structural Database, then it will include bibliographic, chemical, 
# crystal, experimental, refinement or atomic coordinate data resulting 
# from the CCDC's data processing and validation procedures.
#
#######################################################################

data_PANDOX
_symmetry_cell_setting           triclinic
_symmetry_space_group_name_H-M   'P 1'
_symmetry_Int_Tables_number      1
_space_group_name_Hall           'P 1'
loop_
_symmetry_equiv_pos_site_id
_symmetry_equiv_pos_as_xyz
1 x,y,z
_cell_length_a                   12.7489
_cell_length_b                   13.4715
_cell_length_c                   14.7015
_cell_angle_alpha                59.748
_cell_angle_beta                 63.949
_cell_angle_gamma                70.196
_cell_volume                     1936.89
loop_
_atom_site_label
_atom_site_type_symbol
_atom_site_fract_x
_atom_site_fract_y
_atom_site_fract_z
Ag1 Ag 0.3535 0.0625 0.0625
Ag2 Ag 0.3539(1) 0.46759(9) -0.52103(8)
Ag3 Ag 0.0504(1) 0.6040(1) -0.3830(1)
Ag4 Ag 0.6583(1) -0.0736(1) -0.0740(1)
P1 P 0.2565(3) 0.2373(3) -0.0508(2)
P2 P 0.4531(4) 0.2921(3) -0.4040(3)
P3 P 0.3606(3) -0.0590(3) 0.2497(2)
P4 P 0.3542(4) 0.5935(3) -0.7097(3)
P5 P -0.1079(4) 0.7590(3) -0.3871(3)
P6 P 0.8159(4) -0.2261(3) -0.0680(3)
O1 O 0.5639(9) 0.1094(7) -0.0848(7)
O2 O 0.2638(9) 0.6247(7) -0.4388(7)
O3 O 0.144(1) 0.433(1) -0.374(1)
O4 O 0.4552(9) -0.0822(9) -0.0192(7)
O5 O 0.724(2) 0.1080(9) -0.0656(9)
O6 O 0.594(1) 0.275(1) -0.125(1)
O7 O 0.172(1) 0.603(1) -0.273(1)
O8 O 0.341(1) 0.618(1) -0.336(1)
O9 O -0.023(1) 0.399(1) -0.3536(9)
O10 O 0.128(1) 0.279(1) -0.384(1)
O11 O 0.5356(9) -0.0540(8) -0.1913(7)
O12 O 0.338(1) -0.062(1) -0.100(1)
N1 N 0.643(1) 0.166(1) -0.087(1)
N2 N 0.260(1) 0.622(1) -0.348(1)
N3 N 0.092(1) 0.3663(9) -0.3685(8)
N4 N 0.445(1) -0.0753(9) -0.1028(8)
C1 C 0.353(1) 0.2984(9) -0.1967(8)
C2 C 0.375(1) 0.214(1) -0.249(1)
C3 C 0.302(1) -0.192(1) 0.298(1)
C4 C 0.395(1) 0.739(1) -0.7693(9)
C5 C -0.149(1) 0.824(1) -0.287(1)
C6 C 0.835(1) -0.275(1) -0.1711(9)
C7 C 0.227(1) 0.3478(9) -0.0046(8)
C8 C 0.123(1) 0.226(6) -0.0503(9)
C9 C 0.480(1) 0.191(1) -0.466(1)
C10 C 0.604(1) 0.279(1) -0.3991(9)
C11 C 0.267(1) 0.005(1) 0.3430(9)
C12 C 0.499(1) -0.092(1) 0.269(1)
C13 C 0.211(1) 0.647(1) -0.745(1)
C14 C 0.457(1) 0.535(1) -0.819(1)
C15 C -0.255(1) 0.725(1) -0.351(1)
C16 C -0.090(1) 0.885(1) -0.513(1)
C17 C 0.793(1) -0.3540(9) 0.0685(9)
C18 C 0.9539(1) -0.179(1) -0.109(1)
C4_2 C 0.395(1) -0.261(1) 0.2307(9)
C3_2 C 0.302(1) 0.808(1) -0.702(1)
C6_2 C -0.165(1) 0.725(1) -0.1711(9)
C5_2 C 0.851(1) -0.176(1) -0.287(1)
loop_
_geom_bond_atom_site_label_1
_geom_bond_atom_site_label_2
_geom_bond_site_symmetry_1
_geom_bond_site_symmetry_2
Ag1 P1 1_555 1_555
Ag2 P2 1_555 1_555
Ag3 P5 1_555 1_555
Ag4 P6 1_555 1_555
P1 C1 1_555 1_555
P2 C2 1_555 1_555
P3 Ag1 1_555 1_555
P4 Ag2 1_555 1_555
P5 C5 1_555 1_555
P6 C6 1_555 1_555
O1 Ag1 1_555 1_555
O2 Ag2 1_555 1_555
O3 Ag2 1_555 1_555
O4 Ag1 1_555 1_555
O5 N1 1_555 1_555
O6 N1 1_555 1_555
O7 Ag3 1_555 1_555
O8 N2 1_555 1_555
O9 N3 1_555 1_555
O10 N3 1_555 1_555
O11 Ag4 1_555 1_555
O12 N4 1_555 1_555
N1 O1 1_555 1_555
N2 O2 1_555 1_555
N3 O3 1_555 1_555
N4 O4 1_555 1_555
C1 C2 1_555 1_555
C3 P3 1_555 1_555
C4 P4 1_555 1_555
C5 C6_2 1_555 1_555
C6 C5_2 1_555 1_555
C7 P1 1_555 1_555
C8 P1 1_555 1_555
C9 P2 1_555 1_555
C10 P2 1_555 1_555
C11 P3 1_555 1_555
C12 P3 1_555 1_555
C13 P4 1_555 1_555
C14 P4 1_555 1_555
C15 P5 1_555 1_555
C16 P5 1_555 1_555
C17 P6 1_555 1_555
C18 P6 1_555 1_555
C4_2 C3 1_555 1_555
C3_2 C4 1_555 1_555
Ag3 O2 1_555 1_555
Ag3 O3 1_555 1_555
Ag4 O1 1_555 1_555
Ag4 O4 1_555 1_555
O7 N2 1_555 1_555
O11 N4 1_555 1_555

#END
