
#######################################################################
#
#                 Cambridge Crystallographic Data Centre
#                                CCDC 
#
#######################################################################
#
# If this CIF has been generated from an entry in the Cambridge 
# Structural Database, then it will include bibliographic, chemical, 
# crystal, experimental, refinement or atomic coordinate data resulting 
# from the CCDC's data processing and validation procedures.
#
#######################################################################

data_PANMOH
_symmetry_cell_setting           orthorhombic
_symmetry_space_group_name_H-M   'C c c m'
_symmetry_Int_Tables_number      66
_space_group_name_Hall           '-C 2 2n'
loop_
_symmetry_equiv_pos_site_id
_symmetry_equiv_pos_as_xyz
1 x,y,z
2 1/2+x,1/2+y,z
3 -x,-y,z
4 -x,y,1/2-z
5 x,-y,1/2-z
6 1/2-x,1/2-y,z
7 1/2-x,1/2+y,1/2-z
8 1/2+x,1/2-y,1/2-z
9 -x,-y,-z
10 1/2-x,1/2-y,-z
11 x,y,-z
12 x,-y,1/2+z
13 -x,y,1/2+z
14 1/2+x,1/2+y,-z
15 1/2+x,1/2-y,1/2+z
16 1/2-x,1/2+y,1/2+z
_cell_length_a                   9.231(3)
_cell_length_b                   13.375(4)
_cell_length_c                   13.354(4)
_cell_angle_alpha                90
_cell_angle_beta                 90
_cell_angle_gamma                90
_cell_volume                     1648.75
loop_
_atom_site_label
_atom_site_type_symbol
_atom_site_fract_x
_atom_site_fract_y
_atom_site_fract_z
Cu1 Cu 1.0000 0.5000 0.2500
Cu2 Cu 1.2500 0.2500 0.5000
N1 N 1.1774(3) 0.3525(2) 0.3873(2)
N2 N 1.0402(4) 0.1821(3) 0.5000
C1 C 1.1191(3) 0.4088(2) 0.3368(2)
C2 C 0.9716(4) 0.1615(3) 0.4162(3)
H1 H 1.0179 0.1751 0.3559
C3 C 0.8357(5) 0.1211(4) 0.4134(4)
H2 H 0.7909 0.1083 0.3524
C4 C 0.7675(7) 0.1001(6) 0.5000
H3 H 0.6755 0.0717 0.5000
Cu2A Cu 0.7500 0.7500 0.5000
Cu2L Cu 0.7500 0.2500 0.0000
Cu2K Cu 1.2500 0.7500 0.0000
N1B N 0.8226(3) 0.6475(2) 0.3873(2)
N1C N 0.8226(3) 0.3525(2) 0.1127(2)
N1D N 1.1774(3) 0.6475(2) 0.1127(2)
N1J N 1.1774(3) 0.3525(2) 0.6127(2)
N1I N 1.3226(3) 0.1475(2) 0.6127(2)
N1E N 1.3226(3) 0.1475(2) 0.3873(2)
N2I N 1.4598(4) 0.3179(3) 0.5000
C1B C 0.8809(3) 0.5912(2) 0.3368(2)
C1C C 0.8809(3) 0.4088(2) 0.1632(2)
C1D C 1.1191(3) 0.5912(2) 0.1632(2)
C2J C 0.9716(4) 0.1615(3) 0.5838(3)
C2I C 1.5284(4) 0.3385(3) 0.5838(3)
C2E C 1.5284(4) 0.3385(3) 0.4162(3)
H1J H 1.0179 0.1751 0.6441
H1I H 1.4821 0.3249 0.6441
H1E H 1.4821 0.3249 0.3559
C3J C 0.8357(5) 0.1211(4) 0.5866(4)
C3I C 1.6643(5) 0.3789(4) 0.5866(4)
C3E C 1.6643(5) 0.3789(4) 0.4134(4)
H2J H 0.7909 0.1083 0.6476
H2I H 1.7091 0.3917 0.6476
H2E H 1.7091 0.3917 0.3524
C4I C 1.7325(7) 0.3999(6) 0.5000
H3I H 1.8245 0.4283 0.5000
loop_
_geom_bond_atom_site_label_1
_geom_bond_atom_site_label_2
_geom_bond_site_symmetry_1
_geom_bond_site_symmetry_2
Cu1 C1 1_555 1_555
Cu2 N1 1_555 1_555
N1 C1 1_555 1_555
N2 Cu2 1_555 1_555
C2 N2 1_555 1_555
H1 C2 1_555 1_555
C3 C2 1_555 1_555
H2 C3 1_555 1_555
C4 C3 1_555 1_555
H3 C4 1_555 1_555
Cu2A N1B 1_555 1_555
Cu2L N1C 1_555 1_555
Cu2K N1D 1_555 1_555
N1B C1B 1_555 1_555
N1C C1C 1_555 1_555
N1D C1D 1_555 1_555
N1J Cu2 1_555 1_555
N1I Cu2 1_555 1_555
N1E Cu2 1_555 1_555
N2I Cu2 1_555 1_555
C1B Cu1 1_555 1_555
C1C Cu1 1_555 1_555
C1D Cu1 1_555 1_555
C2J N2 1_555 1_555
C2I N2I 1_555 1_555
C2E N2I 1_555 1_555
H1J C2J 1_555 1_555
H1I C2I 1_555 1_555
H1E C2E 1_555 1_555
C3J C4 1_555 1_555
C3I C2I 1_555 1_555
C3E C2E 1_555 1_555
H2J C3J 1_555 1_555
H2I C3I 1_555 1_555
H2E C3E 1_555 1_555
C4I C3I 1_555 1_555
H3I C4I 1_555 1_555
C2J C3J 1_555 1_555
C3E C4I 1_555 1_555

#END
