
#######################################################################
#
#                 Cambridge Crystallographic Data Centre
#                                CCDC 
#
#######################################################################
#
# If this CIF has been generated from an entry in the Cambridge 
# Structural Database, then it will include bibliographic, chemical, 
# crystal, experimental, refinement or atomic coordinate data resulting 
# from the CCDC's data processing and validation procedures.
#
#######################################################################

data_PANREC
_symmetry_cell_setting           monoclinic
_symmetry_space_group_name_H-M   'P 21'
_symmetry_Int_Tables_number      4
_space_group_name_Hall           'P 2yb'
loop_
_symmetry_equiv_pos_site_id
_symmetry_equiv_pos_as_xyz
1 x,y,z
2 -x,1/2+y,-z
_cell_length_a                   9.663(2)
_cell_length_b                   7.128(2)
_cell_length_c                   9.922(2)
_cell_angle_alpha                90
_cell_angle_beta                 98.42(3)
_cell_angle_gamma                90
_cell_volume                     676.04
loop_
_atom_site_label
_atom_site_type_symbol
_atom_site_fract_x
_atom_site_fract_y
_atom_site_fract_z
Zn1 Zn 1.05959(3) 0.11358(7) 0.67521(3)
O1 O 1.1961(2) 0.1721(3) 0.8258(2)
O2 O 0.9777(2) -0.0458(4) 0.5266(2)
O3 O 0.8220(2) -0.2555(3) 0.4365(2)
N1 N 0.9143(2) 0.0555(3) 0.7837(3)
C1 C 1.0690(3) 0.0598(4) 1.0006(3)
C2 C 1.1905(3) 0.1256(6) 0.9533(3)
C3 C 1.3152(3) 0.1426(6) 1.0501(3)
H2 H 1.3978 0.1833 1.0219
C4 C 1.3130(3) 0.0992(7) 1.1844(3)
H3 H 1.3954 0.1092 1.2454
C5 C 1.1928(4) 0.0410(5) 1.2325(3)
H4 H 1.1938 0.0165 1.3247
C6 C 1.0717(3) 0.0201(5) 1.1419(3)
H5 H 0.9906 -0.0205 1.1732
C7 C 0.9376(3) 0.0355(4) 0.9148(3)
H6 H 0.8616 0.0022 0.9574
C8 C 0.7727(3) 0.0397(4) 0.7173(3)
C9 C 0.7455(3) -0.0423(4) 0.5874(3)
C10 C 0.6067(3) -0.0603(4) 0.5258(3)
H7 H 0.5870 -0.1158 0.4403
C11 C 0.4978(3) 0.0033(5) 0.5902(4)
H8 H 0.4058 -0.0096 0.5480
C12 C 0.5260(3) 0.0856(5) 0.7168(3)
H9 H 0.4527 0.1290 0.7594
C13 C 0.6629(3) 0.1047(7) 0.7815(3)
H10 H 0.6811 0.1603 0.8671
C14 C 0.8564(3) -0.1198(4) 0.5137(3)
Zn1A Zn 0.94041(3) -0.38642(7) 0.32479(3)
O3A O 1.1780(2) 0.2445(3) 0.5635(2)
O4 O 0.3206(5) 0.5352(7) 0.8558(5)
H1 H 0.3826 0.4807 0.8230
C15 C 0.2736(6) 0.6874(8) 0.7739(6)
H11 H 0.2063 0.7570 0.8160
H12 H 0.2307 0.6432 0.6863
H13 H 0.3512 0.7671 0.7631
loop_
_geom_bond_atom_site_label_1
_geom_bond_atom_site_label_2
_geom_bond_site_symmetry_1
_geom_bond_site_symmetry_2
Zn1 O1 1_555 1_555
O1 C2 1_555 1_555
O2 Zn1 1_555 1_555
O3 C14 1_555 1_555
O4 H1 1_555 1_555
N1 Zn1 1_555 1_555
C1 C2 1_555 1_555
C2 C3 1_555 1_555
C3 H2 1_555 1_555
C4 C3 1_555 1_555
H3 C4 1_555 1_555
C5 C4 1_555 1_555
H4 C5 1_555 1_555
C6 C1 1_555 1_555
H5 C6 1_555 1_555
C7 N1 1_555 1_555
H6 C7 1_555 1_555
C8 N1 1_555 1_555
C9 C8 1_555 1_555
C10 C9 1_555 1_555
H7 C10 1_555 1_555
C11 C10 1_555 1_555
H8 C11 1_555 1_555
C12 C11 1_555 1_555
H9 C12 1_555 1_555
C13 C8 1_555 1_555
H10 C13 1_555 1_555
C14 O2 1_555 1_555
C15 O4 1_555 1_555
H11 C15 1_555 1_555
H12 C15 1_555 1_555
H13 C15 1_555 1_555
Zn1A O3 1_555 1_555
O3A Zn1 1_555 1_555
C1 C7 1_555 1_555
C5 C6 1_555 1_555
C9 C14 1_555 1_555
C12 C13 1_555 1_555

#END
