
#######################################################################
#
#                 Cambridge Crystallographic Data Centre
#                                CCDC 
#
#######################################################################
#
# If this CIF has been generated from an entry in the Cambridge 
# Structural Database, then it will include bibliographic, chemical, 
# crystal, experimental, refinement or atomic coordinate data resulting 
# from the CCDC's data processing and validation procedures.
#
#######################################################################

data_PANTON
_symmetry_cell_setting           monoclinic
_symmetry_space_group_name_H-M   'P 21/c'
_symmetry_Int_Tables_number      14
_space_group_name_Hall           '-P 2ybc'
loop_
_symmetry_equiv_pos_site_id
_symmetry_equiv_pos_as_xyz
1 x,y,z
2 -x,1/2+y,1/2-z
3 -x,-y,-z
4 x,1/2-y,1/2+z
_cell_length_a                   9.2199(6)
_cell_length_b                   21.794(1)
_cell_length_c                   7.2889(4)
_cell_angle_alpha                90
_cell_angle_beta                 99.900(3)
_cell_angle_gamma                90
_cell_volume                     1442.81
loop_
_atom_site_label
_atom_site_type_symbol
_atom_site_fract_x
_atom_site_fract_y
_atom_site_fract_z
Cu1 Cu 0.1047(1) 0.2467(1) 0.1810(1)
Cl1 Cl -0.0660(1) 0.2473(1) 0.3637(1)
O1 O 0.0758(3) 0.1040(1) 0.2180(4)
N1 N 0.1460(3) 0.3409(1) 0.1803(4)
N2 N 0.3027(3) 0.2467(1) 0.1236(4)
N3 N 0.1550(3) 0.1561(1) 0.1780(4)
N4 N 0.3331(3) 0.0838(1) 0.1294(5)
C1 C 0.0626(4) 0.3887(2) 0.2094(5)
C2 C 0.1111(4) 0.4495(2) 0.1980(6)
C3 C 0.2476(5) 0.4610(2) 0.1563(6)
C4 C 0.3397(4) 0.4118(2) 0.1292(5)
C5 C 0.4895(4) 0.4165(2) 0.0936(6)
C6 C 0.5708(4) 0.3673(2) 0.0690(6)
C7 C 0.5119(4) 0.3060(2) 0.0742(5)
C8 C 0.5869(3) 0.2504(2) 0.0563(5)
C9 C 0.5189(4) 0.1951(2) 0.0746(6)
C10 C 0.3747(4) 0.1945(1) 0.1088(5)
C11 C 0.3678(3) 0.3010(1) 0.1102(5)
C12 C 0.2809(4) 0.3532(1) 0.1376(5)
C13 C 0.2831(4) 0.1406(1) 0.1396(5)
H1 H -0.0330 0.1106 0.1595
H2 H 0.4296 0.0759 0.1245
H3 H 0.2706 0.0509 0.1176
H4 H -0.0376 0.3813 0.2408
H5 H 0.0459 0.4846 0.2183
H6 H 0.2826 0.5042 0.1456
H7 H 0.5339 0.4578 0.0878
H8 H 0.6736 0.3730 0.0456
H9 H 0.6900 0.2515 0.0311
H10 H 0.5727 0.1558 0.0631
Cu1C Cu 0.1047(1) 0.2533(1) 0.6810(1)
Cl1C Cl -0.0660(1) 0.2527(1) -0.1363(1)
N5 N 0.2616(3) -0.0639(1) 0.0073(6)
O2 O 0.1866(3) -0.0397(1) 0.1119(5)
O3 O 0.3886(3) -0.0469(1) 0.0064(4)
O4 O 0.2108(3) -0.1054(1) -0.1055(7)
loop_
_geom_bond_atom_site_label_1
_geom_bond_atom_site_label_2
_geom_bond_site_symmetry_1
_geom_bond_site_symmetry_2
Cu1 Cl1 1_555 1_555
Cl1 Cu1C 1_555 1_555
O1 N3 1_555 1_555
N1 Cu1 1_555 1_555
N2 Cu1 1_555 1_555
N3 Cu1 1_555 1_555
N4 C13 1_555 1_555
C1 N1 1_555 1_555
C2 C1 1_555 1_555
C3 C2 1_555 1_555
C4 C3 1_555 1_555
C5 C4 1_555 1_555
C6 C5 1_555 1_555
C7 C6 1_555 1_555
C8 C7 1_555 1_555
C9 C8 1_555 1_555
C10 N2 1_555 1_555
C11 N2 1_555 1_555
C12 N1 1_555 1_555
C13 N3 1_555 1_555
N5 O2 1_555 1_555
O3 N5 1_555 1_555
O4 N5 1_555 1_555
H1 O1 1_555 1_555
H2 N4 1_555 1_555
H3 N4 1_555 1_555
H4 C1 1_555 1_555
H5 C2 1_555 1_555
H6 C3 1_555 1_555
H7 C5 1_555 1_555
H8 C6 1_555 1_555
H9 C8 1_555 1_555
H10 C9 1_555 1_555
Cl1C Cu1 1_555 1_555
C4 C12 1_555 1_555
C7 C11 1_555 1_555
C9 C10 1_555 1_555
C10 C13 1_555 1_555
C11 C12 1_555 1_555

#END
