
#######################################################################
#
#                 Cambridge Crystallographic Data Centre
#                                CCDC 
#
#######################################################################
#
# If this CIF has been generated from an entry in the Cambridge 
# Structural Database, then it will include bibliographic, chemical, 
# crystal, experimental, refinement or atomic coordinate data resulting 
# from the CCDC's data processing and validation procedures.
#
#######################################################################

data_PANVOP
_symmetry_cell_setting           monoclinic
_symmetry_space_group_name_H-M   'P 21/c'
_symmetry_Int_Tables_number      14
_space_group_name_Hall           '-P 2ybc'
loop_
_symmetry_equiv_pos_site_id
_symmetry_equiv_pos_as_xyz
1 x,y,z
2 -x,1/2+y,1/2-z
3 -x,-y,-z
4 x,1/2-y,1/2+z
_cell_length_a                   27.011(8)
_cell_length_b                   7.962(1)
_cell_length_c                   20.270(5)
_cell_angle_alpha                90
_cell_angle_beta                 110.41(3)
_cell_angle_gamma                90
_cell_volume                     4085.63
loop_
_atom_site_label
_atom_site_type_symbol
_atom_site_fract_x
_atom_site_fract_y
_atom_site_fract_z
Ag1 Ag -0.49055(1) 0.50636(5) 0.19201(2)
N1 N -0.4010(1) 0.4251(5) 0.2518(2)
C1 C -0.3805(2) 0.4350(8) 0.3208(3)
C2 C -0.3280(2) 0.3896(9) 0.3611(3)
C3 C -0.2965(2) 0.3309(8) 0.3256(3)
C4 C -0.2849(2) 0.2646(8) 0.2130(4)
C5 C -0.3054(2) 0.2523(8) 0.1418(4)
C6 C -0.3576(2) 0.3014(8) 0.1054(3)
C7 C -0.3890(2) 0.3591(6) 0.1411(3)
C8 C -0.3692(2) 0.3726(6) 0.2157(3)
C9 C -0.3161(2) 0.3235(7) 0.2519(3)
S1 S -0.45517(5) 0.4146(2) 0.08864(6)
C10 C -0.4820(2) 0.2031(7) 0.0676(2)
C11 C -0.4826(2) 0.1140(6) 0.1337(3)
N2 N -0.4193(1) -0.0706(5) 0.3561(2)
C12 C -0.3963(2) -0.0417(8) 0.4248(3)
C13 C -0.3409(2) -0.0449(9) 0.4590(3)
C14 C -0.3093(2) -0.0753(9) 0.4209(3)
C15 C -0.3008(2) -0.1337(8) 0.3054(3)
C16 C -0.3243(2) -0.1693(8) 0.2362(3)
C17 C -0.3796(2) -0.1803(7) 0.2060(3)
C18 C -0.4110(2) -0.1492(5) 0.2458(2)
C19 C -0.3877(2) -0.1067(6) 0.3174(2)
C20 C -0.3317(2) -0.1040(7) 0.3477(3)
S2 S -0.48085(4) -0.1724(1) 0.20789(6)
C21 C -0.4947(2) -0.0724(6) 0.1223(2)
H1 H -0.408(2) 0.474(7) 0.341(3)
H2 H -0.316(2) 0.344(9) 0.414(3)
H3 H -0.260(2) 0.289(8) 0.350(3)
H4 H -0.252(2) 0.234(8) 0.243(3)
H5 H -0.284(2) 0.207(8) 0.114(3)
H6 H -0.372(2) 0.292(8) 0.058(3)
H7 H -0.455(2) 0.131(7) 0.045(3)
H8 H -0.516(2) 0.217(7) 0.039(3)
H9 H -0.445(2) 0.130(7) 0.169(3)
H10 H -0.508(2) 0.175(7) 0.152(3)
H11 H -0.421(2) -0.018(2) 0.449(3)
H12 H -0.331(2) -0.042(8) 0.519(4)
H13 H -0.272(2) -0.076(9) 0.440(3)
H14 H -0.262(2) -0.116(8) 0.330(3)
H15 H -0.303(2) -0.199(8) 0.208(3)
H16 H -0.396(2) -0.212(7) 0.156(3)
H17 H -0.474(2) -0.124(7) 0.095(3)
H18 H -0.531(2) -0.105(7) 0.098(3)
S2A S -0.51915(4) 0.3276(1) 0.29211(6)
Ag1A Ag -0.50945(1) 0.00636(5) 0.30799(2)
Ag1_2 Ag -0.49055(1) -0.49364(5) 0.19201(2)
N2A N -0.5807(1) 0.4294(5) 0.1439(2)
S2_2 S -0.48085(4) 0.8276(1) 0.20789(6)
Ag2 Ag 0.00626(1) 0.69637(5) 0.30231(2)
N3 N 0.0901(1) 0.5755(5) 0.3266(2)
C22 C 0.1119(2) 0.5790(7) 0.2765(2)
C23 C 0.1638(2) 0.5367(8) 0.2870(3)
C24 C 0.1958(2) 0.4897(7) 0.3521(3)
C25 C 0.2089(2) 0.4512(8) 0.4782(3)
C26 C 0.1889(2) 0.4600(9) 0.5311(3)
C27 C 0.1351(2) 0.4970(8) 0.5168(3)
C28 C 0.1015(2) 0.5299(6) 0.4493(2)
C29 C 0.1216(2) 0.5306(6) 0.3931(2)
C30 C 0.1759(2) 0.4894(6) 0.4075(3)
S3 S 0.03367(5) 0.5603(2) 0.43550(6)
C31 C 0.0066(2) 0.3568(6) 0.3973(3)
C32 C 0.0322(2) 0.2081(6) 0.4430(2)
N4 N 0.0832(1) 0.1273(5) 0.2315(2)
C33 C 0.1048(2) 0.1722(7) 0.1849(3)
C34 C 0.1595(2) 0.1648(9) 0.1979(3)
C35 C 0.1923(2) 0.1124(9) 0.2619(4)
C36 C 0.2036(2) 0.0108(9) 0.3826(4)
C37 C 0.1823(2) -0.0357(8) 0.4302(3)
C38 C 0.1267(2) -0.0333(7) 0.4132(3)
C39 C 0.0941(2) 0.0181(6) 0.3478(3)
C40 C 0.1155(2) 0.0730(6) 0.2958(3)
C41 C 0.1715(2) 0.0639(7) 0.3144(3)
S4 S 0.02421(4) 0.0120(1) 0.32406(6)
C42 C 0.0125(2) 0.0433(6) 0.4070(2)
H19 H 0.088(2) 0.611(7) 0.234(3)
H20 H 0.175(2) 0.532(7) 0.250(3)
H21 H 0.233(2) 0.471(7) 0.360(3)
H22 H 0.248(2) 0.428(8) 0.486(3)
H23 H 0.208(2) 0.436(8) 0.579(4)
H24 H 0.118(2) 0.484(7) 0.555(3)
H25 H 0.006(2) 0.333(7) 0.341(3)
H26 H -0.026(2) 0.361(7) 0.393(3)
H27 H 0.069(2) 0.227(7) 0.456(3)
H28 H 0.023(2) 0.205(7) 0.482(3)
H29 H 0.075(2) 0.206(7) 0.131(3)
H30 H 0.171(2) 0.208(8) 0.164(3)
H31 H 0.229(2) 0.097(8) 0.270(3)
H32 H 0.241(2) 0.010(8) 0.392(4)
H33 H 0.204(2) -0.080(8) 0.482(3)
H34 H 0.113(2) -0.061(7) 0.444(3)
H35 H -0.029(2) 0.025(6) 0.390(3)
H36 H 0.027(2) -0.050(7) 0.437(3)
S4A S -0.02421(4) 0.5120(1) 0.17594(6)
Ag2A Ag -0.00626(1) 0.19637(5) 0.19769(2)
Ag2_2 Ag 0.00626(1) -0.30363(5) 0.30231(2)
N4A N -0.0832(1) 0.6273(5) 0.2685(2)
S4_2 S 0.02421(4) 1.0120(1) 0.32406(6)
N5 N -0.6383(2) -0.6011(9) 0.4684(3)
O1 O -0.6811(2) -0.6450(10) 0.4305(3)
O2 O -0.6011(2) -0.6570(12) 0.4597(3)
O3 O -0.6341(4) -0.4991(11) 0.5128(4)
N6 N -0.1403(2) 0.0999(9) 0.3977(3)
O4 O -0.1826(2) 0.0714(12) 0.3910(4)
O5 O -0.1015(2) 0.0533(13) 0.4296(4)
O6 O -0.1365(4) 0.2274(11) 0.3622(4)
loop_
_geom_bond_atom_site_label_1
_geom_bond_atom_site_label_2
_geom_bond_site_symmetry_1
_geom_bond_site_symmetry_2
Ag1 N1 1_555 1_555
N1 C1 1_555 1_555
C1 C2 1_555 1_555
C2 C3 1_555 1_555
C3 C9 1_555 1_555
C4 C5 1_555 1_555
C5 C6 1_555 1_555
C6 C7 1_555 1_555
C7 C8 1_555 1_555
C8 N1 1_555 1_555
C9 C4 1_555 1_555
S1 Ag1 1_555 1_555
C10 S1 1_555 1_555
C11 C10 1_555 1_555
N2 C12 1_555 1_555
C12 C13 1_555 1_555
C13 C14 1_555 1_555
C14 C20 1_555 1_555
C15 C16 1_555 1_555
C16 C17 1_555 1_555
C17 C18 1_555 1_555
C18 C19 1_555 1_555
C19 N2 1_555 1_555
C20 C15 1_555 1_555
S2 C18 1_555 1_555
C21 C11 1_555 1_555
H1 C1 1_555 1_555
H2 C2 1_555 1_555
H3 C3 1_555 1_555
H4 C4 1_555 1_555
H5 C5 1_555 1_555
H6 C6 1_555 1_555
H7 C10 1_555 1_555
H8 C10 1_555 1_555
H9 C11 1_555 1_555
H10 C11 1_555 1_555
H11 C12 1_555 1_555
H12 C13 1_555 1_555
H13 C14 1_555 1_555
H14 C15 1_555 1_555
H15 C16 1_555 1_555
H16 C17 1_555 1_555
H17 C21 1_555 1_555
H18 C21 1_555 1_555
Ag2 N3 1_555 1_555
N3 C22 1_555 1_555
C22 C23 1_555 1_555
C23 C24 1_555 1_555
C24 C30 1_555 1_555
C25 C26 1_555 1_555
C26 C27 1_555 1_555
C27 C28 1_555 1_555
C28 C29 1_555 1_555
C29 N3 1_555 1_555
C30 C25 1_555 1_555
S3 Ag2 1_555 1_555
C31 S3 1_555 1_555
C32 C31 1_555 1_555
N4 C33 1_555 1_555
C33 C34 1_555 1_555
C34 C35 1_555 1_555
C35 C41 1_555 1_555
C36 C37 1_555 1_555
C37 C38 1_555 1_555
C38 C39 1_555 1_555
C39 C40 1_555 1_555
C40 N4 1_555 1_555
C41 C36 1_555 1_555
S4 C39 1_555 1_555
C42 C32 1_555 1_555
H19 C22 1_555 1_555
H20 C23 1_555 1_555
H21 C24 1_555 1_555
H22 C25 1_555 1_555
H23 C26 1_555 1_555
H24 C27 1_555 1_555
H25 C31 1_555 1_555
H26 C31 1_555 1_555
H27 C32 1_555 1_555
H28 C32 1_555 1_555
H29 C33 1_555 1_555
H30 C34 1_555 1_555
H31 C35 1_555 1_555
H32 C36 1_555 1_555
H33 C37 1_555 1_555
H34 C38 1_555 1_555
H35 C42 1_555 1_555
H36 C42 1_555 1_555
N5 O1 1_555 1_555
O2 N5 1_555 1_555
O3 N5 1_555 1_555
N6 O4 1_555 1_555
O5 N6 1_555 1_555
O6 N6 1_555 1_555
S2A Ag1 1_555 1_555
Ag1A N2 1_555 1_555
Ag1_2 S2 1_555 1_555
N2A Ag1 1_555 1_555
S2_2 Ag1 1_555 1_555
S4A Ag2 1_555 1_555
Ag2A N4 1_555 1_555
Ag2_2 S4 1_555 1_555
N4A Ag2 1_555 1_555
S4_2 Ag2 1_555 1_555
C7 S1 1_555 1_555
C8 C9 1_555 1_555
C19 C20 1_555 1_555
S2 C21 1_555 1_555
S2 Ag1A 1_555 1_555
C28 S3 1_555 1_555
C29 C30 1_555 1_555
C40 C41 1_555 1_555
S4 C42 1_555 1_555
S4 Ag2A 1_555 1_555
S2A Ag1A 1_555 1_555
S4A Ag2A 1_555 1_555

#END
