
#######################################################################
#
#                 Cambridge Crystallographic Data Centre
#                                CCDC 
#
#######################################################################
#
# If this CIF has been generated from an entry in the Cambridge 
# Structural Database, then it will include bibliographic, chemical, 
# crystal, experimental, refinement or atomic coordinate data resulting 
# from the CCDC's data processing and validation procedures.
#
#######################################################################

data_PANXUZ
_symmetry_cell_setting           trigonal
_symmetry_space_group_name_H-M   'P 31 2 1'
_symmetry_Int_Tables_number      152
_space_group_name_Hall           'P 31 2"'
loop_
_symmetry_equiv_pos_site_id
_symmetry_equiv_pos_as_xyz
1 x,y,z
2 -y,x-y,1/3+z
3 -x+y,-x,2/3+z
4 y,x,-z
5 -x,-x+y,1/3-z
6 x-y,-y,2/3-z
_cell_length_a                   13.0654(6)
_cell_length_b                   13.0654(6)
_cell_length_c                   12.3392(10)
_cell_angle_alpha                90
_cell_angle_beta                 90
_cell_angle_gamma                120
_cell_volume                     1824.16
loop_
_atom_site_label
_atom_site_type_symbol
_atom_site_fract_x
_atom_site_fract_y
_atom_site_fract_z
Cd1 Cd 0.839308(12) 0.674771(11) 0.985195(9)
C1 C 0.8428(3) 0.7607(3) 0.7380(2)
H1 H 0.8389 0.8223 0.7718
C2 C 0.8508(3) 0.7613(3) 0.6258(2)
H2 H 0.8509 0.8215 0.5856
C3 C 0.8586(2) 0.6717(3) 0.57493(17)
H3 H 0.8657 0.6712 0.5000
C4 C 0.85557(19) 0.5822(2) 0.63769(19)
H4 H 0.8599 0.5201 0.6054
C5 C 0.84603(17) 0.5866(2) 0.74951(17)
C6 C 0.84448(18) 0.4947(2) 0.81942(19)
H5 H 0.8496 0.4329 0.7875
C7 C 0.8356(2) 0.3993(2) 0.98304(18)
H6 H 0.8566 0.3541 0.9348
H7 H 0.7564 0.3469 1.0100
C8 C 0.92109(19) 0.44424(18) 1.07741(17)
C9 C 1.0418(2) 0.50503(18) 1.06301(17)
C10 C 0.88118(17) 0.42531(17) 1.18286(17)
C11 C 0.94504(15) 0.69795(15) 1.20601(13)
Cl1 Cl 0.89746(5) 0.89746(5) 1.0000
Cl2 Cl 0.61661(5) 0.61661(5) 1.0000
F1 F 1.08720(14) 0.52733(15) 0.96207(11)
F2 F 0.76398(12) 0.36833(13) 1.20276(12)
N1 N 0.84045(16) 0.67585(17) 0.79890(13)
N2 N 0.83641(16) 0.49678(16) 0.92192(14)
O1 O 0.84388(11) 0.64534(12) 1.16417(10)
O2 O 0.96499(12) 0.70745(13) 1.30565(10)
Cd1C Cd 0.674771(11) 0.839308(12) 1.014805(9)
Cd1D Cd 1.160692(12) 0.835463(16) 1.348138(9)
C1D C 1.1572(3) 0.9179(4) 1.5953(2)
H1D H 1.1611 0.9834 1.5615
C2D C 1.1492(3) 0.9105(4) 1.7075(2)
H2D H 1.1491 0.9706 1.7477
C3D C 1.1414(2) 0.8131(4) 1.75840(17)
H3D H 1.1343 0.8055 1.8333
C4D C 1.14443(19) 0.72663(28) 1.69564(19)
H4D H 1.1401 0.6602 1.7279
C5D C 1.15397(17) 0.74057(26) 1.58382(17)
C6D C 1.15552(18) 0.65022(27) 1.51391(19)
H5D H 1.1504 0.5833 1.5458
C7D C 1.1644(2) 0.5637(3) 1.35029(18)
H6D H 1.1434 0.4975 1.3985
H7D H 1.2436 0.5905 1.3233
C8D C 1.07891(19) 0.52315(26) 1.25592(17)
C9D C 0.9582(2) 0.46323(27) 1.27032(17)
C10D C 1.11882(17) 0.54413(24) 1.15047(17)
C11D C 1.05496(15) 0.75291(21) 1.12732(13)
F1D F 0.91280(14) 0.44013(21) 1.37126(11)
F2D F 1.23602(12) 0.60435(18) 1.13057(12)
N1D N 1.15955(16) 0.83540(23) 1.53443(13)
N1C N 0.67585(17) 0.84045(16) 1.20110(13)
N2D N 1.16359(16) 0.66037(23) 1.41141(14)
N2C N 0.49678(16) 0.83641(16) 1.07808(14)
O1D O 1.15612(11) 0.80146(16) 1.16916(10)
O1C O 0.64534(12) 0.84388(11) 0.83583(10)
O2D O 1.03501(12) 0.74246(18) 1.02768(10)
O2B O 0.74246(18) 1.03501(12) 0.97232(10)
loop_
_geom_bond_atom_site_label_1
_geom_bond_atom_site_label_2
_geom_bond_site_symmetry_1
_geom_bond_site_symmetry_2
Cd1 Cl1 1_555 1_555
C1 H1 1_555 1_555
C2 C1 1_555 1_555
H2 C2 1_555 1_555
C3 C2 1_555 1_555
H3 C3 1_555 1_555
C4 C3 1_555 1_555
H4 C4 1_555 1_555
C5 C4 1_555 1_555
C6 C5 1_555 1_555
H5 C6 1_555 1_555
C7 H6 1_555 1_555
H7 C7 1_555 1_555
C8 C7 1_555 1_555
C9 C8 1_555 1_555
C10 C8 1_555 1_555
C11 O1 1_555 1_555
Cl1 Cd1C 1_555 1_555
Cl2 Cd1 1_555 1_555
F1 C9 1_555 1_555
F2 C10 1_555 1_555
N1 Cd1 1_555 1_555
N2 Cd1 1_555 1_555
O1 Cd1 1_555 1_555
O2 C11 1_555 1_555
Cd1C Cl2 1_555 1_555
Cd1D O2 1_555 1_555
C1D H1D 1_555 1_555
C2D C1D 1_555 1_555
H2D C2D 1_555 1_555
C3D C2D 1_555 1_555
H3D C3D 1_555 1_555
C4D C3D 1_555 1_555
H4D C4D 1_555 1_555
C5D C4D 1_555 1_555
C6D C5D 1_555 1_555
H5D C6D 1_555 1_555
C7D H6D 1_555 1_555
H7D C7D 1_555 1_555
C8D C7D 1_555 1_555
C9D C10 1_555 1_555
C10D C9 1_555 1_555
C11D C11 1_555 1_555
F1D C9D 1_555 1_555
F2D C10D 1_555 1_555
N1D Cd1D 1_555 1_555
N1C Cd1C 1_555 1_555
N2D Cd1D 1_555 1_555
N2C Cd1C 1_555 1_555
O1D Cd1D 1_555 1_555
O1C Cd1C 1_555 1_555
O2D Cd1 1_555 1_555
O2B Cd1C 1_555 1_555
C1 N1 1_555 1_555
C5 N1 1_555 1_555
C6 N2 1_555 1_555
C7 N2 1_555 1_555
C1D N1D 1_555 1_555
C5D N1D 1_555 1_555
C6D N2D 1_555 1_555
C7D N2D 1_555 1_555
C8D C9D 1_555 1_555
C8D C10D 1_555 1_555
C11D O1D 1_555 1_555
C11D O2D 1_555 1_555

#END
