
#######################################################################
#
#                 Cambridge Crystallographic Data Centre
#                                CCDC 
#
#######################################################################
#
# If this CIF has been generated from an entry in the Cambridge 
# Structural Database, then it will include bibliographic, chemical, 
# crystal, experimental, refinement or atomic coordinate data resulting 
# from the CCDC's data processing and validation procedures.
#
#######################################################################

data_PANYAG
_symmetry_cell_setting           monoclinic
_symmetry_space_group_name_H-M   'C 2/c'
_symmetry_Int_Tables_number      15
_space_group_name_Hall           '-C 2yn'
loop_
_symmetry_equiv_pos_site_id
_symmetry_equiv_pos_as_xyz
1 x,y,z
2 -x,y,1/2-z
3 1/2+x,1/2+y,z
4 1/2-x,1/2+y,1/2-z
5 -x,-y,-z
6 x,-y,1/2+z
7 1/2-x,1/2-y,-z
8 1/2+x,1/2-y,1/2+z
_cell_length_a                   13.294(3)
_cell_length_b                   16.269(4)
_cell_length_c                   11.180(3)
_cell_angle_alpha                90
_cell_angle_beta                 99.609(4)
_cell_angle_gamma                90
_cell_volume                     2384.09
loop_
_atom_site_label
_atom_site_type_symbol
_atom_site_fract_x
_atom_site_fract_y
_atom_site_fract_z
Zn1 Zn 0.29362(5) 0.13742(4) 0.18194(6)
C1 C 0.1473(5) 0.2128(4) 0.3451(6)
H1 H 0.1730 0.2637 0.3272
C2 C 0.0776(5) 0.2101(4) 0.4266(6)
H2 H 0.0585 0.2579 0.4625
C3 C 0.0382(5) 0.1353(5) 0.4520(6)
H3 H -0.0095 0.1317 0.5039
C4 C 0.0707(5) 0.0653(4) 0.3992(6)
H4 H 0.0466 0.0138 0.4170
C5 C 0.1385(4) 0.0728(4) 0.3208(5)
C6 C 0.1793(5) 0.0012(4) 0.2626(5)
H5 H 0.1576 -0.0517 0.2769
C7 C 0.2859(5) -0.0608(4) 0.1423(6)
H6 H 0.2796 -0.0551 0.0550
H7 H 0.2482 -0.1093 0.1593
C8 C 0.3978(4) -0.0699(3) 0.1987(5)
C9 C 0.4271(5) -0.0730(4) 0.3246(5)
H8 H 0.3779 -0.0762 0.3747
C10 C 0.4719(5) -0.0713(3) 0.1262(6)
H9 H 0.4528 -0.0711 0.0423
C11 C 0.2238(4) 0.2155(3) -0.0423(5)
C12 C 0.5065(4) 0.1332(3) 0.1822(5)
N1 N 0.1779(3) 0.1473(3) 0.2931(4)
N2 N 0.2435(4) 0.0129(3) 0.1938(4)
O1 O 0.2119(3) 0.1469(2) 0.0047(3)
O2 O 0.1975(3) 0.2334(2) -0.1527(3)
O3 O 0.4271(3) 0.1283(2) 0.1046(3)
O4 O 0.5960(3) 0.1383(2) 0.1614(3)
Zn1A Zn 0.70638(5) 0.13742(4) 0.31806(6)
Zn1F Zn 0.20638(5) 0.36258(4) -0.18194(6)
C1A C 0.8527(5) 0.2128(4) 0.1549(6)
H1A H 0.8270 0.2637 0.1728
C2A C 0.9224(5) 0.2101(4) 0.0734(6)
H2A H 0.9415 0.2579 0.0375
C3A C 0.9618(5) 0.1353(5) 0.0480(6)
H3A H 1.0095 0.1317 -0.0039
C4A C 0.9293(5) 0.0653(4) 0.1008(6)
H4A H 0.9534 0.0138 0.0830
C5A C 0.8615(4) 0.0728(4) 0.1792(5)
C6A C 0.8207(5) 0.0012(4) 0.2374(5)
H5A H 0.8424 -0.0517 0.2231
C7A C 0.7141(5) -0.0608(4) 0.3577(6)
H6A H 0.7204 -0.0551 0.4450
H7A H 0.7518 -0.1093 0.3407
C8A C 0.6022(4) -0.0699(3) 0.3013(5)
C9A C 0.5729(5) -0.0730(4) 0.1754(5)
H8A H 0.6221 -0.0762 0.1253
C10A C 0.5281(5) -0.0713(3) 0.3738(6)
H9A H 0.5472 -0.0711 0.4577
C11F C 0.2762(4) 0.2845(3) 0.0423(5)
C12A C 0.4935(4) 0.1332(3) 0.3178(5)
N1A N 0.8221(3) 0.1473(3) 0.2069(4)
N2A N 0.7565(4) 0.0129(3) 0.3062(4)
O1F O 0.2881(3) 0.3531(2) -0.0047(3)
O1A O 0.7881(3) 0.1469(2) 0.4953(3)
O2F O 0.3025(3) 0.2666(2) 0.1527(3)
O2G O 0.6975(3) 0.2666(2) 0.3473(3)
O3A O 0.5729(3) 0.1283(2) 0.3954(3)
O4A O 0.4040(3) 0.1383(2) 0.3386(3)
O5 O 0.0000 0.1514(4) 0.7500
H10 H 0.0380 0.1937 0.7601
H10A H -0.0380 0.1937 0.7399
loop_
_geom_bond_atom_site_label_1
_geom_bond_atom_site_label_2
_geom_bond_site_symmetry_1
_geom_bond_site_symmetry_2
Zn1 N1 1_555 1_555
C1 H1 1_555 1_555
C2 C1 1_555 1_555
H2 C2 1_555 1_555
C3 C2 1_555 1_555
H3 C3 1_555 1_555
C4 C3 1_555 1_555
H4 C4 1_555 1_555
C5 C4 1_555 1_555
C6 C5 1_555 1_555
H5 C6 1_555 1_555
C7 H6 1_555 1_555
H7 C7 1_555 1_555
C8 C7 1_555 1_555
C9 C8 1_555 1_555
H8 C9 1_555 1_555
C10 C8 1_555 1_555
H9 C10 1_555 1_555
C11 O1 1_555 1_555
C12 O3 1_555 1_555
N1 C1 1_555 1_555
N2 Zn1 1_555 1_555
O1 Zn1 1_555 1_555
O2 C11 1_555 1_555
O3 Zn1 1_555 1_555
O4 C12 1_555 1_555
O5 H10 1_555 1_555
Zn1A O4 1_555 1_555
Zn1F O2 1_555 1_555
C1A H1A 1_555 1_555
C2A C1A 1_555 1_555
H2A C2A 1_555 1_555
C3A C2A 1_555 1_555
H3A C3A 1_555 1_555
C4A C3A 1_555 1_555
H4A C4A 1_555 1_555
C5A C4A 1_555 1_555
C6A C5A 1_555 1_555
H5A C6A 1_555 1_555
C7A H6A 1_555 1_555
H7A C7A 1_555 1_555
C8A C7A 1_555 1_555
C9A C10 1_555 1_555
H8A C9A 1_555 1_555
C10A C9 1_555 1_555
H9A C10A 1_555 1_555
C11F C11 1_555 1_555
C12A C12 1_555 1_555
N1A Zn1A 1_555 1_555
N2A Zn1A 1_555 1_555
O1F Zn1F 1_555 1_555
O1A Zn1A 1_555 1_555
O2F Zn1 1_555 1_555
O2G Zn1A 1_555 1_555
O3A Zn1A 1_555 1_555
O4A Zn1 1_555 1_555
H10A O5 1_555 1_555
C5 N1 1_555 1_555
C6 N2 1_555 1_555
C7 N2 1_555 1_555
C1A N1A 1_555 1_555
C5A N1A 1_555 1_555
C6A N2A 1_555 1_555
C7A N2A 1_555 1_555
C8A C9A 1_555 1_555
C8A C10A 1_555 1_555
C11F O1F 1_555 1_555
C11F O2F 1_555 1_555
C12A O3A 1_555 1_555
C12A O4A 1_555 1_555

#END
