
#######################################################################
#
#                 Cambridge Crystallographic Data Centre
#                                CCDC 
#
#######################################################################
#
# If this CIF has been generated from an entry in the Cambridge 
# Structural Database, then it will include bibliographic, chemical, 
# crystal, experimental, refinement or atomic coordinate data resulting 
# from the CCDC's data processing and validation procedures.
#
#######################################################################

data_PANYOU
_symmetry_cell_setting           orthorhombic
_symmetry_space_group_name_H-M   'P c a 21'
_symmetry_Int_Tables_number      29
_space_group_name_Hall           'P 2c -2ac'
loop_
_symmetry_equiv_pos_site_id
_symmetry_equiv_pos_as_xyz
1 x,y,z
2 -x,-y,1/2+z
3 1/2+x,-y,z
4 1/2-x,y,1/2+z
_cell_length_a                   24.0866(19)
_cell_length_b                   4.8855(4)
_cell_length_c                   22.2025(17)
_cell_angle_alpha                90
_cell_angle_beta                 90
_cell_angle_gamma                90
_cell_volume                     2612.68
loop_
_atom_site_label
_atom_site_type_symbol
_atom_site_fract_x
_atom_site_fract_y
_atom_site_fract_z
Zn1 Zn 0.628284(14) 0.49310(8) 0.37296(4)
C1 C 0.60727(18) 0.5569(8) 0.25715(18)
C2 C 0.61280(17) 0.6415(10) 0.19183(18)
H1 H 0.6500 0.5892 0.1767
H2 H 0.6092 0.8428 0.1885
C3 C 0.56795(17) 0.5031(9) 0.15358(17)
H3 H 0.5703 0.3020 0.1585
H4 H 0.5308 0.5629 0.1674
C4 C 0.66877(17) 0.3852(9) -0.0361(2)
H5 H 0.6575 0.3624 -0.0787
H6 H 0.6762 0.2013 -0.0192
C5 C 0.72025(19) 0.5529(10) -0.0333(2)
H7 H 0.7356 0.5429 0.0081
H8 H 0.7106 0.7464 -0.0414
C6 C 0.76504(18) 0.4632(9) -0.0777(2)
C7 C 0.51339(18) 1.0243(7) -0.02642(19)
H9 H 0.5339 1.1375 -0.0559
H10 H 0.4958 1.1479 0.0033
C8 C 0.46935(16) 0.8568(8) -0.05840(18)
H11 H 0.4878 0.7349 -0.0878
H12 H 0.4505 0.7393 -0.0284
C9 C 0.42598(14) 1.0246(7) -0.09107(15)
C10 C 0.59312(15) 0.7100(8) -0.02964(17)
C11 C 0.54314(15) 0.7798(8) 0.06541(17)
C12 C 0.61518(16) 0.4278(9) 0.05790(18)
N1 N 0.57528(13) 0.5749(6) 0.08953(14)
N2 N 0.62362(13) 0.5140(7) -0.00241(19)
N3 N 0.55244(12) 0.8337(6) 0.00482(13)
O1 O 0.65089(11) 0.5917(6) 0.29052(11)
O2 O 0.56379(13) 0.4697(7) 0.27736(14)
O3 O 0.81164(13) 0.5646(6) -0.07046(15)
O4 O 0.75224(13) 0.3019(9) -0.11823(18)
O5 O 0.43121(10) 1.2811(5) -0.08980(11)
O6 O 0.38756(10) 0.9041(5) -0.11794(12)
O7 O 0.64096(13) 0.2423(6) 0.08024(13)
O8 O 0.60101(12) 0.7744(6) -0.08170(13)
O9 O 0.50813(12) 0.8989(7) 0.09388(13)
Zn1A Zn 0.371716(14) 0.50690(8) -0.12704(4)
Zn1A_2 Zn 0.371716(14) 1.50690(8) -0.12704(4)
Zn1C Zn 0.871716(14) 0.49310(8) -0.12704(4)
O3C O 0.68836(13) 0.5646(6) 0.42954(15)
O5A O 0.56879(10) 0.7189(5) 0.41020(11)
O6A O 0.61244(10) 0.0959(5) 0.38206(12)
C13 C 0.2924(2) 0.1535(15) 0.2918(3)
H13 H 0.2937 0.2537 0.3300
H14 H 0.2998 0.2799 0.2584
H15 H 0.3207 0.0091 0.2920
C14 C 0.2334(3) -0.1162(13) 0.2280(3)
H16 H 0.1961 -0.1955 0.2254
H17 H 0.2611 -0.2630 0.2267
H18 H 0.2393 0.0087 0.1941
N4 N 0.23881(18) 0.0338(9) 0.2843(2)
H33 H 0.2124 0.1698 0.2855
H34 H 0.2321 -0.0833 0.3159
C15 C 0.1889(10) -0.037(2) 0.5388(7)
H19 H 0.2269 -0.0974 0.5469
H20 H 0.1861 0.0279 0.4972
H21 H 0.1633 -0.1903 0.5449
C16 C 0.1162(4) 0.269(4) 0.5670(5)
H22 H 0.1057 0.4186 0.5942
H23 H 0.0913 0.1133 0.5732
H24 H 0.1133 0.3319 0.5251
C17 C 0.2041(3) 0.362(3) 0.6160(3)
H25 H 0.1842 0.5118 0.6327
N5 N 0.1745(4) 0.184(2) 0.5797(3)
O11 O 0.2518(4) 0.347(2) 0.6284(3)
C18 C 0.4290(3) 0.6994(13) 0.3159(2)
H26 H 0.3999 0.5594 0.3143
H27 H 0.4183 0.8421 0.3447
H28 H 0.4640 0.6153 0.3288
C19 C 0.4782(3) 1.0344(14) 0.2525(4)
H29 H 0.4797 1.1008 0.2109
H30 H 0.5145 0.9604 0.2639
H31 H 0.4685 1.1861 0.2794
C20 C 0.4072(3) 0.7511(18) 0.2106(3)
H32 H 0.4137 0.8396 0.1731
N6 N 0.43599(18) 0.8184(9) 0.25743(19)
O10 O 0.3703(2) 0.5678(16) 0.2145(3)
loop_
_geom_bond_atom_site_label_1
_geom_bond_atom_site_label_2
_geom_bond_site_symmetry_1
_geom_bond_site_symmetry_2
Zn1 O1 1_555 1_555
C1 C2 1_555 1_555
C2 H1 1_555 1_555
H2 C2 1_555 1_555
C3 C2 1_555 1_555
H3 C3 1_555 1_555
H4 C3 1_555 1_555
C4 H5 1_555 1_555
H6 C4 1_555 1_555
C5 C4 1_555 1_555
H7 C5 1_555 1_555
H8 C5 1_555 1_555
C6 C5 1_555 1_555
C7 H9 1_555 1_555
H10 C7 1_555 1_555
C8 C7 1_555 1_555
H11 C8 1_555 1_555
H12 C8 1_555 1_555
C9 C8 1_555 1_555
C10 N2 1_555 1_555
C11 N1 1_555 1_555
C12 N1 1_555 1_555
C13 H13 1_555 1_555
H14 C13 1_555 1_555
H15 C13 1_555 1_555
C14 H16 1_555 1_555
H17 C14 1_555 1_555
H18 C14 1_555 1_555
C15 H19 1_555 1_555
H20 C15 1_555 1_555
H21 C15 1_555 1_555
C16 H22 1_555 1_555
H23 C16 1_555 1_555
H24 C16 1_555 1_555
C17 H25 1_555 1_555
C18 H26 1_555 1_555
H27 C18 1_555 1_555
H28 C18 1_555 1_555
C19 H29 1_555 1_555
H30 C19 1_555 1_555
H31 C19 1_555 1_555
C20 H32 1_555 1_555
N1 C3 1_555 1_555
N2 C4 1_555 1_555
N3 C7 1_555 1_555
N4 C13 1_555 1_555
H33 N4 1_555 1_555
H34 N4 1_555 1_555
N5 C15 1_555 1_555
N6 C18 1_555 1_555
O1 C1 1_555 1_555
O2 C1 1_555 1_555
O3 C6 1_555 1_555
O4 C6 1_555 1_555
O5 C9 1_555 1_555
O6 C9 1_555 1_555
O7 C12 1_555 1_555
O8 C10 1_555 1_555
O9 C11 1_555 1_555
O10 C20 1_555 1_555
O11 C17 1_555 1_555
Zn1A O6 1_555 1_555
Zn1A_2 O5 1_555 1_555
Zn1C O3 1_555 1_555
O3C Zn1 1_555 1_555
O5A Zn1 1_555 1_555
O6A Zn1 1_555 1_555
C10 N3 1_555 1_555
C11 N3 1_555 1_555
C12 N2 1_555 1_555
C14 N4 1_555 1_555
C16 N5 1_555 1_555
C17 N5 1_555 1_555
C19 N6 1_555 1_555
C20 N6 1_555 1_555

#END
