
#######################################################################
#
#                 Cambridge Crystallographic Data Centre
#                                CCDC 
#
#######################################################################
#
# If this CIF has been generated from an entry in the Cambridge 
# Structural Database, then it will include bibliographic, chemical, 
# crystal, experimental, refinement or atomic coordinate data resulting 
# from the CCDC's data processing and validation procedures.
#
#######################################################################

data_PANYIO
_symmetry_cell_setting           monoclinic
_symmetry_space_group_name_H-M   'C 2/c'
_symmetry_Int_Tables_number      15
_space_group_name_Hall           '-C 2yn'
loop_
_symmetry_equiv_pos_site_id
_symmetry_equiv_pos_as_xyz
1 x,y,z
2 -x,y,1/2-z
3 1/2+x,1/2+y,z
4 1/2-x,1/2+y,1/2-z
5 -x,-y,-z
6 x,-y,1/2+z
7 1/2-x,1/2-y,-z
8 1/2+x,1/2-y,1/2+z
_cell_length_a                   24.665(2)
_cell_length_b                   10.7741(9)
_cell_length_c                   16.0097(14)
_cell_angle_alpha                90
_cell_angle_beta                 93.1260(10)
_cell_angle_gamma                90
_cell_volume                     4248.14
loop_
_atom_site_label
_atom_site_type_symbol
_atom_site_fract_x
_atom_site_fract_y
_atom_site_fract_z
Zn1 Zn 0.523255(9) 0.73124(2) 0.166699(15)
C1 C 0.42911(9) 0.5684(2) 0.19589(16)
C2 C 0.38504(10) 0.4803(3) 0.16446(18)
H1 H 0.4020 0.4008 0.1492
H2 H 0.3670 0.5154 0.1130
C3 C 0.34174(9) 0.4537(2) 0.22727(17)
H3 H 0.3592 0.4452 0.2841
H4 H 0.3158 0.5238 0.2278
C4 C 0.33718(9) 0.2289(2) 0.22850(16)
C5 C 0.26699(8) 0.3450(2) 0.15084(14)
C6 C 0.26741(8) 0.1179(2) 0.14533(14)
C7 C 0.34145(9) 0.0038(2) 0.22081(15)
H5 H 0.3155 -0.0663 0.2164
H6 H 0.3570 0.0072 0.2791
C8 C 0.38669(10) -0.0174(2) 0.16142(16)
H7 H 0.3705 -0.0493 0.1077
H8 H 0.4039 0.0635 0.1500
C9 C 0.42994(9) -0.1062(2) 0.19338(15)
C10 C 0.19994(9) 0.2354(2) 0.05928(15)
H9 H 0.2032 0.1636 0.0214
H10 H 0.2027 0.3120 0.0255
C11 C 0.14488(8) 0.2318(2) 0.09665(14)
H11 H 0.1409 0.1524 0.1268
H12 H 0.1424 0.3001 0.1376
C12 C 0.09939(8) 0.24425(18) 0.02991(14)
N1 N 0.31258(7) 0.12139(18) 0.20024(11)
N2 N 0.24523(7) 0.23251(16) 0.12383(12)
O1 O 0.46164(7) 0.60375(17) 0.14357(11)
O2 O 0.43138(6) 0.59739(16) 0.27240(11)
O3 O 0.10910(7) 0.26366(14) -0.04311(10)
O4 O 0.05059(6) 0.23275(14) 0.05419(10)
O5 O 0.42987(6) -0.14103(16) 0.26856(10)
O6 O 0.46443(7) -0.13833(16) 0.14225(10)
O7 O 0.24698(6) 0.44377(16) 0.12808(12)
O8 O 0.24832(7) 0.02198(16) 0.11809(11)
O9 O 0.37879(8) 0.22719(18) 0.27239(14)
N3 N 0.31235(7) 0.33807(18) 0.20402(12)
Zn1A Zn 0.476745(9) 0.73124(2) 0.333301(15)
Zn1B Zn 0.023255(9) 0.23124(2) 0.166699(15)
Zn1A_2 Zn 0.476745(9) -0.26876(2) 0.333301(15)
Zn1_2 Zn 0.523255(9) -0.26876(2) 0.166699(15)
O2A O 0.56862(6) 0.59739(16) 0.22760(11)
O4B O 0.55059(6) 0.73275(14) 0.05419(10)
O5A O 0.57013(6) 0.85897(16) 0.23144(10)
O6_2 O 0.46443(7) 0.86167(16) 0.14225(10)
loop_
_geom_bond_atom_site_label_1
_geom_bond_atom_site_label_2
_geom_bond_site_symmetry_1
_geom_bond_site_symmetry_2
Zn1 O1 1_555 1_555
C1 C2 1_555 1_555
C2 H1 1_555 1_555
H2 C2 1_555 1_555
C3 C2 1_555 1_555
H3 C3 1_555 1_555
H4 C3 1_555 1_555
C4 N1 1_555 1_555
C5 N2 1_555 1_555
C6 N1 1_555 1_555
C7 H5 1_555 1_555
H6 C7 1_555 1_555
C8 C7 1_555 1_555
H7 C8 1_555 1_555
H8 C8 1_555 1_555
C9 C8 1_555 1_555
C10 H9 1_555 1_555
H10 C10 1_555 1_555
C11 C10 1_555 1_555
H11 C11 1_555 1_555
H12 C11 1_555 1_555
C12 C11 1_555 1_555
N1 C7 1_555 1_555
N2 C6 1_555 1_555
O1 C1 1_555 1_555
O2 C1 1_555 1_555
O3 C12 1_555 1_555
O4 C12 1_555 1_555
O5 C9 1_555 1_555
O6 C9 1_555 1_555
O7 C5 1_555 1_555
O8 C6 1_555 1_555
O9 C4 1_555 1_555
N3 C3 1_555 1_555
Zn1A O2 1_555 1_555
Zn1B O4 1_555 1_555
Zn1A_2 O5 1_555 1_555
Zn1_2 O6 1_555 1_555
O2A Zn1 1_555 1_555
O4B Zn1 1_555 1_555
O5A Zn1 1_555 1_555
O6_2 Zn1 1_555 1_555
C4 N3 1_555 1_555
C5 N3 1_555 1_555
C10 N2 1_555 1_555

#END
