
#######################################################################
#
#                 Cambridge Crystallographic Data Centre
#                                CCDC 
#
#######################################################################
#
# If this CIF has been generated from an entry in the Cambridge 
# Structural Database, then it will include bibliographic, chemical, 
# crystal, experimental, refinement or atomic coordinate data resulting 
# from the CCDC's data processing and validation procedures.
#
#######################################################################

data_PAPGIY
_symmetry_cell_setting           monoclinic
_symmetry_space_group_name_H-M   'P 21/n'
_symmetry_Int_Tables_number      14
_space_group_name_Hall           '-P 2yn'
loop_
_symmetry_equiv_pos_site_id
_symmetry_equiv_pos_as_xyz
1 x,y,z
2 1/2-x,1/2+y,1/2-z
3 -x,-y,-z
4 1/2+x,1/2-y,1/2+z
_cell_length_a                   11.4557(5)
_cell_length_b                   13.6034(4)
_cell_length_c                   17.3626(7)
_cell_angle_alpha                90
_cell_angle_beta                 101.600(4)
_cell_angle_gamma                90
_cell_volume                     2650.46
loop_
_atom_site_label
_atom_site_type_symbol
_atom_site_fract_x
_atom_site_fract_y
_atom_site_fract_z
Zn1 Zn 1.00088(4) 0.62593(3) 0.79340(2)
Zn2 Zn 0.77003(4) 0.35438(3) 0.77950(2)
C1 C 1.2274(4) 0.6174(3) 0.9142(2)
H1 H 1.2629 0.6657 0.8886
C2 C 1.1990(5) 0.5122(3) 1.0005(3)
H2 H 1.2087 0.4730 1.0452
C3 C 1.1037(4) 0.5149(3) 0.9421(3)
H3 H 1.0354 0.4770 0.9394
C4 C 1.3960(4) 0.5997(3) 1.0296(2)
H4 H 1.3869 0.6203 1.0815
H5 H 1.4304 0.6541 1.0057
C5 C 1.4812(3) 0.5130(3) 1.03776(19)
H6 H 1.5514 0.5284 1.0773
H7 H 1.4431 0.4563 1.0560
C6 C 0.8041(5) 0.2042(3) 0.9070(3)
H8 H 0.7253 0.1831 0.8945
C7 C 0.9876(7) 0.2139(5) 0.9685(5)
H9 H 1.0590 0.2046 1.0041
C8 C 0.9663(6) 0.2766(4) 0.9071(4)
H10 H 1.0230 0.3176 0.8926
C9 C 0.8695(6) 0.0934(4) 1.0212(3)
H11 H 0.7990 0.0555 0.9990
H12 H 0.8580 0.1224 1.0702
C10 C 0.9879(8) 0.0212(4) 1.0377(3)
H13 H 1.0567 0.0586 1.0637
H14 H 0.9753 -0.0318 1.0724
C11 C 0.9177(3) 0.3999(2) 0.6345(2)
C12 C 0.8314(4) 0.3232(3) 0.6236(2)
C13 C 0.8141(4) 0.2710(3) 0.5522(2)
H15 H 0.7574 0.2211 0.5430
C14 C 0.8782(4) 0.2917(3) 0.4962(2)
C15 C 0.9654(4) 0.3627(3) 0.5072(2)
H16 H 1.0112 0.3747 0.4696
C16 C 0.9818(4) 0.4152(3) 0.5760(2)
H17 H 1.0396 0.4642 0.5838
C17 C 0.9424(3) 0.4646(3) 0.7044(2)
C18 C 1.0167(4) 0.9234(2) 0.7502(2)
C19 C 0.9286(4) 0.9963(2) 0.72925(19)
C20 C 0.9675(3) 1.0947(2) 0.72866(19)
H18 H 0.9115 1.1447 0.7162
C21 C 1.0847(4) 1.1175(2) 0.7459(2)
C22 C 1.1736(3) 1.0472(3) 0.7672(2)
H19 H 1.2539 1.0643 0.7790
C23 C 1.1368(4) 0.9510(3) 0.7698(2)
H20 H 1.1940 0.9025 0.7851
C24 C 0.9900(4) 0.8162(3) 0.7528(2)
N1 N 1.1213(3) 0.5817(2) 0.88666(17)
N2 N 1.2794(3) 0.5776(2) 0.98251(19)
N3 N 0.8511(4) 0.2715(2) 0.8698(2)
N4 N 0.8882(6) 0.1696(3) 0.9670(3)
O1 O 0.9911(2) 0.54691(16) 0.69853(14)
O2 O 0.9165(2) 0.43801(15) 0.76900(14)
O3 O 0.7654(2) 0.29893(15) 0.67480(14)
O4 O 0.8898(2) 0.78331(16) 0.71865(15)
O5 O 1.0687(2) 0.75927(16) 0.78924(15)
O6 O 0.8127(2) 0.97973(15) 0.70960(14)
O7 O 0.8481(2) 0.62575(16) 0.83288(15)
Cl1 Cl 0.84433(12) 0.23047(9) 0.40648(6)
Cl2 Cl 1.12719(10) 1.23955(7) 0.73820(7)
H21 H 0.814(4) 0.678(3) 0.835(3)
H22 H 0.793(4) 0.578(3) 0.812(2)
Zn1B Zn 0.99912(4) -0.62593(3) 1.20660(2)
Zn1B_2 Zn 1.99912(4) 0.37407(3) 1.20660(2)
Zn2B Zn 1.22997(4) -0.35438(3) 1.22050(2)
Zn2A Zn 0.72997(4) 0.85438(3) 0.72050(2)
Zn2C Zn 1.27003(4) -0.85438(3) 1.27950(2)
C1B C 1.7726(4) 0.3826(3) 1.0858(2)
H1B H 1.7371 0.3343 1.1114
C2B C 1.8010(5) 0.4878(3) 0.9995(3)
H2B H 1.7913 0.5270 0.9548
C3B C 1.8963(4) 0.4851(3) 1.0579(3)
H3B H 1.9646 0.5230 1.0606
C4B C 1.6040(4) 0.4003(3) 0.9704(2)
H4B H 1.6131 0.3797 0.9185
H5B H 1.5696 0.3459 0.9943
C5B C 1.5188(3) 0.4870(3) 0.96224(19)
H6B H 1.4486 0.4716 0.9227
H7B H 1.5569 0.5437 0.9440
C6B C 1.1959(5) -0.2042(3) 1.0930(3)
H8B H 1.2747 -0.1831 1.1055
C7B C 1.0124(7) -0.2139(5) 1.0315(5)
H9B H 0.9410 -0.2046 0.9959
C8B C 1.0337(6) -0.2766(4) 1.0929(4)
H10B H 0.9770 -0.3176 1.1074
C9B C 1.1305(6) -0.0934(4) 0.9788(3)
H11B H 1.2010 -0.0555 1.0010
H12B H 1.1420 -0.1224 0.9298
C10B C 1.0121(8) -0.0212(4) 0.9623(3)
H13B H 0.9433 -0.0586 0.9363
H14B H 1.0247 0.0318 0.9276
C11B C 1.0823(3) -0.3999(2) 1.3655(2)
C12B C 1.1686(4) -0.3232(3) 1.3764(2)
C13B C 1.1859(4) -0.2710(3) 1.4478(2)
H15B H 1.2426 -0.2211 1.4570
C14B C 1.1218(4) -0.2917(3) 1.5038(2)
C15B C 1.0346(4) -0.3627(3) 1.4928(2)
H16B H 0.9888 -0.3747 1.5304
C16B C 1.0182(4) -0.4152(3) 1.4240(2)
H17B H 0.9604 -0.4642 1.4162
C17B C 1.0576(3) -0.4646(3) 1.2956(2)
C18B C 0.9833(4) -0.9234(2) 1.2498(2)
C19B C 1.0714(4) -0.9963(2) 1.27075(19)
C20B C 1.0325(3) -1.0947(2) 1.27134(19)
H18B H 1.0885 -1.1447 1.2838
C21B C 0.9153(4) -1.1175(2) 1.2541(2)
C22B C 0.8264(3) -1.0472(3) 1.2328(2)
H19B H 0.7461 -1.0643 1.2210
C23B C 0.8632(4) -0.9510(3) 1.2302(2)
H20B H 0.8060 -0.9025 1.2149
C24B C 1.0100(4) -0.8162(3) 1.2472(2)
N1B N 1.8787(3) 0.4183(2) 1.11334(17)
N1B_2 N 0.8787(3) -0.5817(2) 1.11334(17)
N2B N 1.7206(3) 0.4224(2) 1.01749(19)
N3B N 1.1489(4) -0.2715(2) 1.1302(2)
N4B N 1.1118(6) -0.1696(3) 1.0330(3)
O1B O 1.0089(2) -0.54691(16) 1.30147(14)
O2B O 1.0835(2) -0.43801(15) 1.23100(14)
O3B O 1.2346(2) -0.29893(15) 1.32520(14)
O4B O 1.1102(2) -0.78331(16) 1.28135(15)
O4A O 0.6102(2) 0.28331(16) 0.78135(15)
O4C O 1.3898(2) -0.28331(16) 1.21865(15)
O5B O 0.9313(2) -0.75927(16) 1.21076(15)
O6B O 1.1873(2) -0.97973(15) 1.29040(14)
O6A O 0.6873(2) 0.47973(15) 0.79040(14)
O6C O 1.3127(2) -0.47973(15) 1.20960(14)
O7B O 1.1519(2) -0.62575(16) 1.16712(15)
Cl1B Cl 1.15567(12) -0.23047(9) 1.59352(6)
Cl2B Cl 0.87281(10) -1.23955(7) 1.26180(7)
H21B H 1.186(4) -0.678(3) 1.165(3)
H22B H 1.207(4) -0.578(3) 1.188(2)
loop_
_geom_bond_atom_site_label_1
_geom_bond_atom_site_label_2
_geom_bond_site_symmetry_1
_geom_bond_site_symmetry_2
Zn1 N1 1_555 1_555
Zn2 N3 1_555 1_555
C1 H1 1_555 1_555
C2 H2 1_555 1_555
C3 C2 1_555 1_555
H3 C3 1_555 1_555
C4 H4 1_555 1_555
H5 C4 1_555 1_555
C5 C4 1_555 1_555
H6 C5 1_555 1_555
H7 C5 1_555 1_555
C6 H8 1_555 1_555
C7 H9 1_555 1_555
C8 C7 1_555 1_555
H10 C8 1_555 1_555
C9 H11 1_555 1_555
H12 C9 1_555 1_555
C10 C9 1_555 1_555
H13 C10 1_555 1_555
H14 C10 1_555 1_555
C11 C12 1_555 1_555
C12 C13 1_555 1_555
C13 H15 1_555 1_555
C14 C13 1_555 1_555
C15 C14 1_555 1_555
H16 C15 1_555 1_555
C16 C11 1_555 1_555
H17 C16 1_555 1_555
C17 C11 1_555 1_555
C18 C19 1_555 1_555
C19 C20 1_555 1_555
C20 H18 1_555 1_555
C21 C20 1_555 1_555
C22 C21 1_555 1_555
H19 C22 1_555 1_555
C23 C18 1_555 1_555
H20 C23 1_555 1_555
C24 C18 1_555 1_555
N1 C1 1_555 1_555
N2 C1 1_555 1_555
N3 C6 1_555 1_555
N4 C6 1_555 1_555
O1 Zn1 1_555 1_555
O2 Zn2 1_555 1_555
O3 Zn2 1_555 1_555
O4 C24 1_555 1_555
O5 Zn1 1_555 1_555
O6 C19 1_555 1_555
O7 Zn1 1_555 1_555
Cl1 C14 1_555 1_555
Cl2 C21 1_555 1_555
H21 O7 1_555 1_555
H22 O7 1_555 1_555
Zn1B N1B_2 1_555 1_555
Zn1B_2 N1B 1_555 1_555
Zn2B N3B 1_555 1_555
Zn2A O4 1_555 1_555
Zn2C O4B 1_555 1_555
C1B H1B 1_555 1_555
C2B H2B 1_555 1_555
C3B C2B 1_555 1_555
H3B C3B 1_555 1_555
C4B H4B 1_555 1_555
H5B C4B 1_555 1_555
C5B C5 1_555 1_555
H6B C5B 1_555 1_555
H7B C5B 1_555 1_555
C6B H8B 1_555 1_555
C7B H9B 1_555 1_555
C8B C7B 1_555 1_555
H10B C8B 1_555 1_555
C9B H11B 1_555 1_555
H12B C9B 1_555 1_555
C10B C10 1_555 1_555
H13B C10B 1_555 1_555
H14B C10B 1_555 1_555
C11B C12B 1_555 1_555
C12B C13B 1_555 1_555
C13B H15B 1_555 1_555
C14B C13B 1_555 1_555
C15B C14B 1_555 1_555
H16B C15B 1_555 1_555
C16B C11B 1_555 1_555
H17B C16B 1_555 1_555
C17B C11B 1_555 1_555
C18B C19B 1_555 1_555
C19B C20B 1_555 1_555
C20B H18B 1_555 1_555
C21B C20B 1_555 1_555
C22B C21B 1_555 1_555
H19B C22B 1_555 1_555
C23B C18B 1_555 1_555
H20B C23B 1_555 1_555
C24B C18B 1_555 1_555
N1B C1B 1_555 1_555
N2B C1B 1_555 1_555
N3B C6B 1_555 1_555
N4B C6B 1_555 1_555
O1B Zn1B 1_555 1_555
O2B Zn2B 1_555 1_555
O3B Zn2B 1_555 1_555
O4B C24B 1_555 1_555
O4A Zn2 1_555 1_555
O4C Zn2B 1_555 1_555
O5B Zn1B 1_555 1_555
O6B Zn2C 1_555 1_555
O6A Zn2 1_555 1_555
O6C Zn2B 1_555 1_555
O7B Zn1B 1_555 1_555
Cl1B C14B 1_555 1_555
Cl2B C21B 1_555 1_555
H21B O7B 1_555 1_555
H22B O7B 1_555 1_555
C2 N2 1_555 1_555
C3 N1 1_555 1_555
C4 N2 1_555 1_555
C7 N4 1_555 1_555
C8 N3 1_555 1_555
C9 N4 1_555 1_555
C12 O3 1_555 1_555
C15 C16 1_555 1_555
C17 O1 1_555 1_555
C17 O2 1_555 1_555
C22 C23 1_555 1_555
C24 O5 1_555 1_555
O6 Zn2A 1_555 1_555
C2B N2B 1_555 1_555
C3B N1B 1_555 1_555
C4B C5B 1_555 1_555
C4B N2B 1_555 1_555
C7B N4B 1_555 1_555
C8B N3B 1_555 1_555
C9B C10B 1_555 1_555
C9B N4B 1_555 1_555
C12B O3B 1_555 1_555
C15B C16B 1_555 1_555
C17B O1B 1_555 1_555
C17B O2B 1_555 1_555
C19B O6B 1_555 1_555
C22B C23B 1_555 1_555
C24B O5B 1_555 1_555

#END
