
#######################################################################
#
#                 Cambridge Crystallographic Data Centre
#                                CCDC 
#
#######################################################################
#
# If this CIF has been generated from an entry in the Cambridge 
# Structural Database, then it will include bibliographic, chemical, 
# crystal, experimental, refinement or atomic coordinate data resulting 
# from the CCDC's data processing and validation procedures.
#
#######################################################################

data_PAPGOE
_symmetry_cell_setting           monoclinic
_symmetry_space_group_name_H-M   'C 2/c'
_symmetry_Int_Tables_number      15
_space_group_name_Hall           '-C 2yn'
loop_
_symmetry_equiv_pos_site_id
_symmetry_equiv_pos_as_xyz
1 x,y,z
2 -x,y,1/2-z
3 1/2+x,1/2+y,z
4 1/2-x,1/2+y,1/2-z
5 -x,-y,-z
6 x,-y,1/2+z
7 1/2-x,1/2-y,-z
8 1/2+x,1/2-y,1/2+z
_cell_length_a                   21.8584(11)
_cell_length_b                   6.6597(3)
_cell_length_c                   18.0788(9)
_cell_angle_alpha                90
_cell_angle_beta                 103.031(5)
_cell_angle_gamma                90
_cell_volume                     2563.97
loop_
_atom_site_label
_atom_site_type_symbol
_atom_site_fract_x
_atom_site_fract_y
_atom_site_fract_z
Cd1 Cd 1.0000 0.29314(4) 0.7500
C1 C 0.97520(12) -0.0890(4) 0.64520(14)
H1 H 1.0131 -0.1401 0.6727
C2 C 0.88760(13) -0.0645(4) 0.56275(16)
H2 H 0.8535 -0.0899 0.5227
C3 C 0.89679(12) 0.0988(4) 0.60659(16)
H3 H 0.8690 0.2060 0.6026
C4 C 0.94770(14) -0.3890(4) 0.56135(15)
H4 H 0.9082 -0.4406 0.5318
H5 H 0.9613 -0.4762 0.6049
C5 C 0.99554(13) -0.3946(4) 0.51384(14)
H6 H 1.0353 -0.3452 0.5435
H7 H 0.9823 -0.3065 0.4704
C6 C 0.85411(10) 0.6222(4) 0.81189(12)
C7 C 0.82514(11) 0.5564(4) 0.86970(13)
C8 C 0.78408(12) 0.6810(4) 0.89581(15)
H8 H 0.7653 0.6391 0.9345
C9 C 0.77145(11) 0.8671(4) 0.86394(15)
C10 C 0.79743(11) 0.9348(4) 0.80600(15)
H9 H 0.7872 1.0607 0.7844
C11 C 0.83883(11) 0.8114(4) 0.78086(14)
H10 H 0.8571 0.8557 0.7421
C12 C 0.90107(10) 0.4933(4) 0.78620(13)
N1 N 0.95269(9) 0.0859(3) 0.65808(10)
N2 N 0.93758(10) -0.1860(3) 0.58800(11)
O1 O 0.92943(8) 0.5580(3) 0.73904(11)
O2 O 0.91300(10) 0.3224(3) 0.81613(12)
O3 O 0.83727(10) 0.3745(3) 0.90218(11)
H11 H 0.8622 0.3144 0.8824
Cl1 Cl 0.72061(3) 1.02561(13) 0.89870(5)
Cd1D Cd 1.0000 -1.29314(4) 0.2500
C1D C 1.02480(12) -0.9110(4) 0.35480(14)
H1D H 0.9869 -0.8599 0.3273
C2D C 1.11240(13) -0.9355(4) 0.43725(16)
H2D H 1.1465 -0.9101 0.4773
C3D C 1.10321(12) -1.0988(4) 0.39341(16)
H3D H 1.1310 -1.2060 0.3974
C4D C 1.05230(14) -0.6110(4) 0.43865(15)
H4D H 1.0918 -0.5594 0.4682
H5D H 1.0387 -0.5238 0.3951
C5D C 1.00446(13) -0.6054(4) 0.48616(14)
H6D H 0.9647 -0.6548 0.4565
H7D H 1.0177 -0.6935 0.5296
C6A C 1.14589(10) 0.6222(4) 0.68811(12)
C7A C 1.17486(11) 0.5564(4) 0.63030(13)
C8A C 1.21592(12) 0.6810(4) 0.60419(15)
H8A H 1.2347 0.6391 0.5655
C9A C 1.22855(11) 0.8671(4) 0.63606(15)
C10A C 1.20257(11) 0.9348(4) 0.69400(15)
H9A H 1.2128 1.0607 0.7156
C11A C 1.16117(11) 0.8114(4) 0.71914(14)
H10A H 1.1429 0.8557 0.7579
C12A C 1.09893(10) 0.4933(4) 0.71380(13)
N1D N 1.04731(9) -1.0859(3) 0.34192(10)
N1A N 1.04731(9) 0.0859(3) 0.84192(10)
N2D N 1.06242(10) -0.8140(3) 0.41200(11)
O1A O 1.07057(8) 0.5580(3) 0.76096(11)
O2A O 1.08700(10) 0.3224(3) 0.68387(12)
O3A O 1.16273(10) 0.3745(3) 0.59782(11)
H11A H 1.1378 0.3144 0.6176
Cl1A Cl 1.27939(3) 1.02561(13) 0.60130(5)
loop_
_geom_bond_atom_site_label_1
_geom_bond_atom_site_label_2
_geom_bond_site_symmetry_1
_geom_bond_site_symmetry_2
Cd1 N1 1_555 1_555
C1 H1 1_555 1_555
C2 H2 1_555 1_555
C3 C2 1_555 1_555
H3 C3 1_555 1_555
C4 H4 1_555 1_555
H5 C4 1_555 1_555
C5 C4 1_555 1_555
H6 C5 1_555 1_555
H7 C5 1_555 1_555
C6 C7 1_555 1_555
C7 C8 1_555 1_555
C8 H8 1_555 1_555
C9 C8 1_555 1_555
C10 C9 1_555 1_555
H9 C10 1_555 1_555
C11 C6 1_555 1_555
H10 C11 1_555 1_555
C12 C6 1_555 1_555
N1 C1 1_555 1_555
N2 C1 1_555 1_555
O1 Cd1 1_555 1_555
O2 Cd1 1_555 1_555
O3 C7 1_555 1_555
H11 O3 1_555 1_555
Cl1 C9 1_555 1_555
Cd1D N1D 1_555 1_555
C1D H1D 1_555 1_555
C2D H2D 1_555 1_555
C3D C2D 1_555 1_555
H3D C3D 1_555 1_555
C4D H4D 1_555 1_555
H5D C4D 1_555 1_555
C5D C5 1_555 1_555
H6D C5D 1_555 1_555
H7D C5D 1_555 1_555
C6A C7A 1_555 1_555
C7A C8A 1_555 1_555
C8A H8A 1_555 1_555
C9A C8A 1_555 1_555
C10A C9A 1_555 1_555
H9A C10A 1_555 1_555
C11A C6A 1_555 1_555
H10A C11A 1_555 1_555
C12A C6A 1_555 1_555
N1D C1D 1_555 1_555
N1A Cd1 1_555 1_555
N2D C1D 1_555 1_555
O1A Cd1 1_555 1_555
O2A Cd1 1_555 1_555
O3A C7A 1_555 1_555
H11A O3A 1_555 1_555
Cl1A C9A 1_555 1_555
C2 N2 1_555 1_555
C3 N1 1_555 1_555
C4 N2 1_555 1_555
C10 C11 1_555 1_555
C12 O1 1_555 1_555
C12 O2 1_555 1_555
C2D N2D 1_555 1_555
C3D N1D 1_555 1_555
C4D C5D 1_555 1_555
C4D N2D 1_555 1_555
C10A C11A 1_555 1_555
C12A O1A 1_555 1_555
C12A O2A 1_555 1_555

#END
