
#######################################################################
#
#                 Cambridge Crystallographic Data Centre
#                                CCDC 
#
#######################################################################
#
# If this CIF has been generated from an entry in the Cambridge 
# Structural Database, then it will include bibliographic, chemical, 
# crystal, experimental, refinement or atomic coordinate data resulting 
# from the CCDC's data processing and validation procedures.
#
#######################################################################

data_PAPHIZ
_symmetry_cell_setting           triclinic
_symmetry_space_group_name_H-M   'P -1'
_symmetry_Int_Tables_number      2
_space_group_name_Hall           '-P 1'
loop_
_symmetry_equiv_pos_site_id
_symmetry_equiv_pos_as_xyz
1 x,y,z
2 -x,-y,-z
_cell_length_a                   11.4230(5)
_cell_length_b                   11.6505(4)
_cell_length_c                   12.0593(6)
_cell_angle_alpha                88.882(4)
_cell_angle_beta                 65.940(4)
_cell_angle_gamma                67.746(4)
_cell_volume                     1338.92
loop_
_atom_site_label
_atom_site_type_symbol
_atom_site_fract_x
_atom_site_fract_y
_atom_site_fract_z
Cd1 Cd 0.65758(3) 0.08872(3) 0.61999(2)
C1 C 0.8481(5) 0.0469(5) 0.7634(4)
H1 H 0.7996 0.0067 0.8197
C2 C 0.9949(5) 0.1274(5) 0.6739(5)
H2 H 1.0656 0.1559 0.6541
C3 C 0.9116(5) 0.1450(5) 0.6181(4)
H3 H 0.9177 0.1852 0.5498
C4 C 1.0432(6) 0.0029(7) 0.8338(5)
H4 H 1.0885 -0.0875 0.8086
H5 H 1.1156 0.0340 0.8156
C5 C 0.9550(5) 0.0318(5) 0.9627(4)
H6 H 0.8821 0.0012 0.9809
H7 H 0.9103 0.1222 0.9881
C6 C 0.7343(4) -0.2057(4) 0.6358(3)
H8 H 0.7547 -0.2000 0.7022
C7 C 0.6715(4) -0.1579(4) 0.4919(3)
H9 H 0.6397 -0.1115 0.4387
C8 C 0.7064(4) -0.2821(4) 0.4907(3)
H10 H 0.7032 -0.3363 0.4375
C9 C 0.8001(5) -0.4380(4) 0.6131(4)
H11 H 0.7340 -0.4755 0.6248
H12 H 0.8072 -0.4313 0.6900
C10 C 0.9434(4) -0.5234(4) 0.5131(5)
H13 H 0.9725 -0.6056 0.5374
H14 H 0.9342 -0.5334 0.4378
C11 C 0.6319(4) 0.3006(3) 0.3365(3)
C12 C 0.6279(4) 0.4214(4) 0.3407(3)
C13 C 0.5874(4) 0.4988(4) 0.2622(4)
H15 H 0.5806 0.5808 0.2679
C14 C 0.5576(4) 0.4559(4) 0.1770(4)
H16 H 0.5324 0.5075 0.1235
C15 C 0.5651(4) 0.3356(4) 0.1710(4)
C16 C 0.6006(4) 0.2577(4) 0.2497(3)
H17 H 0.6037 0.1769 0.2450
C17 C 0.6622(4) 0.2194(4) 0.4269(3)
C18 C 0.2398(4) 0.2299(4) 0.9118(3)
C19 C 0.1945(4) 0.2157(4) 1.0361(4)
C20 C 0.0518(5) 0.2738(5) 1.1136(4)
H18 H 0.0204 0.2681 1.1970
C21 C -0.0428(5) 0.3390(5) 1.0696(4)
H19 H -0.1380 0.3756 1.1224
C22 C 0.0024(4) 0.3507(4) 0.9471(4)
C23 C 0.1432(4) 0.2976(4) 0.8696(4)
H20 H 0.1736 0.3077 0.7873
C24 C 0.3931(4) 0.1729(4) 0.8263(4)
N1 N 0.8163(3) 0.0956(3) 0.6755(3)
N2 N 0.9586(5) 0.0619(5) 0.7625(4)
N3 N 0.6899(3) -0.1107(3) 0.5833(3)
N4 N 0.7474(3) -0.3130(3) 0.5826(3)
O1 O 0.6848(3) 0.2628(3) 0.5078(3)
O2 O 0.6625(3) 0.1126(3) 0.4233(2)
O3 O 0.6625(4) 0.4656(3) 0.4200(3)
H21 H 0.6844 0.4113 0.4608
O4 O 0.4285(3) 0.1940(3) 0.7169(2)
O5 O 0.4794(3) 0.1075(3) 0.8651(3)
O6 O 0.2827(3) 0.1480(3) 1.0829(3)
H22 H 0.3632 0.1189 1.0284
Br1 Br 0.52670(7) 0.27422(7) 0.04978(5)
Br2 Br -0.13167(6) 0.43871(7) 0.88814(6)
Cd1A Cd 1.34242(3) -0.08872(3) 1.38001(2)
Cd1A_2 Cd 1.34242(3) -1.08872(3) 0.38001(2)
C1A C 1.1519(5) -0.0469(5) 1.2366(4)
H1A H 1.2004 -0.0067 1.1803
C2A C 1.0051(5) -0.1274(5) 1.3261(5)
H2A H 0.9344 -0.1559 1.3459
C3A C 1.0884(5) -0.1450(5) 1.3819(4)
H3A H 1.0823 -0.1852 1.4502
C4A C 0.9568(6) -0.0029(7) 1.1662(5)
H4A H 0.9115 0.0875 1.1914
H5A H 0.8844 -0.0340 1.1844
C5A C 1.0450(5) -0.0318(5) 1.0373(4)
H6A H 1.1179 -0.0012 1.0191
H7A H 1.0897 -0.1222 1.0119
C6A C 1.2657(4) -0.7943(4) 0.3642(3)
H8A H 1.2453 -0.8000 0.2978
C7A C 1.3285(4) -0.8421(4) 0.5081(3)
H9A H 1.3603 -0.8885 0.5613
C8A C 1.2936(4) -0.7179(4) 0.5093(3)
H10A H 1.2968 -0.6637 0.5625
C9A C 1.1999(5) -0.5620(4) 0.3869(4)
H11A H 1.2660 -0.5245 0.3752
H12A H 1.1928 -0.5687 0.3100
C10A C 1.0566(4) -0.4766(4) 0.4869(5)
H13A H 1.0275 -0.3944 0.4626
H14A H 1.0658 -0.4666 0.5622
C11A C 1.3681(4) -0.3006(3) 1.6635(3)
C12A C 1.3721(4) -0.4214(4) 1.6593(3)
C13A C 1.4126(4) -0.4988(4) 1.7378(4)
H15A H 1.4194 -0.5808 1.7321
C14A C 1.4424(4) -0.4559(4) 1.8230(4)
H16A H 1.4676 -0.5075 1.8765
C15A C 1.4349(4) -0.3356(4) 1.8290(4)
C16A C 1.3994(4) -0.2577(4) 1.7503(3)
H17A H 1.3963 -0.1769 1.7550
C17A C 1.3378(4) -0.2194(4) 1.5731(3)
C18A C 1.7602(4) -0.2299(4) 1.0882(3)
C19A C 1.8055(4) -0.2157(4) 0.9639(4)
C20A C 1.9482(5) -0.2738(5) 0.8864(4)
H18A H 1.9796 -0.2681 0.8030
C21A C 2.0428(5) -0.3390(5) 0.9304(4)
H19A H 2.1380 -0.3756 0.8776
C22A C 1.9976(4) -0.3507(4) 1.0529(4)
C23A C 1.8568(4) -0.2976(4) 1.1304(4)
H20A H 1.8264 -0.3077 1.2127
C24A C 1.6069(4) -0.1729(4) 1.1737(4)
N1A N 1.1837(3) -0.0956(3) 1.3245(3)
N2A N 1.0414(5) -0.0619(5) 1.2375(4)
N3A N 1.3101(3) -0.8893(3) 0.4167(3)
N3A_2 N 1.3101(3) 0.1107(3) 1.4167(3)
N4A N 1.2526(3) -0.6870(3) 0.4174(3)
O1A O 1.3152(3) -0.2628(3) 1.4922(3)
O2A O 1.3375(3) -0.1126(3) 1.5767(2)
O3A O 1.3375(4) -0.4656(3) 1.5800(3)
H21A H 1.3156 -0.4113 1.5392
O4A O 1.5715(3) -0.1940(3) 1.2831(2)
O5A O 1.5206(3) -0.1075(3) 1.1349(3)
O6A O 1.7173(3) -0.1480(3) 0.9171(3)
H22A H 1.6368 -0.1189 0.9716
Br1A Br 1.47330(7) -0.27422(7) 1.95022(5)
Br2A Br 2.13167(6) -0.43871(7) 1.11186(6)
loop_
_geom_bond_atom_site_label_1
_geom_bond_atom_site_label_2
_geom_bond_site_symmetry_1
_geom_bond_site_symmetry_2
Cd1 N1 1_555 1_555
C1 H1 1_555 1_555
C2 H2 1_555 1_555
C3 C2 1_555 1_555
H3 C3 1_555 1_555
C4 H4 1_555 1_555
H5 C4 1_555 1_555
C5 C4 1_555 1_555
H6 C5 1_555 1_555
H7 C5 1_555 1_555
C6 H8 1_555 1_555
C7 H9 1_555 1_555
C8 C7 1_555 1_555
H10 C8 1_555 1_555
C9 H11 1_555 1_555
H12 C9 1_555 1_555
C10 C9 1_555 1_555
H13 C10 1_555 1_555
H14 C10 1_555 1_555
C11 C12 1_555 1_555
C12 C13 1_555 1_555
C13 H15 1_555 1_555
C14 C13 1_555 1_555
H16 C14 1_555 1_555
C15 C14 1_555 1_555
C16 C11 1_555 1_555
H17 C16 1_555 1_555
C17 C11 1_555 1_555
C18 C19 1_555 1_555
C19 C20 1_555 1_555
C20 H18 1_555 1_555
C21 C20 1_555 1_555
H19 C21 1_555 1_555
C22 C21 1_555 1_555
C23 C18 1_555 1_555
H20 C23 1_555 1_555
C24 C18 1_555 1_555
N1 C1 1_555 1_555
N2 C1 1_555 1_555
N3 Cd1 1_555 1_555
N4 C6 1_555 1_555
O1 Cd1 1_555 1_555
O2 Cd1 1_555 1_555
O3 C12 1_555 1_555
H21 O3 1_555 1_555
O4 Cd1 1_555 1_555
O5 C24 1_555 1_555
O6 C19 1_555 1_555
H22 O6 1_555 1_555
Br1 C15 1_555 1_555
Br2 C22 1_555 1_555
Cd1A N1A 1_555 1_555
Cd1A_2 N3A 1_555 1_555
C1A H1A 1_555 1_555
C2A H2A 1_555 1_555
C3A C2A 1_555 1_555
H3A C3A 1_555 1_555
C4A H4A 1_555 1_555
H5A C4A 1_555 1_555
C5A C5 1_555 1_555
H6A C5A 1_555 1_555
H7A C5A 1_555 1_555
C6A H8A 1_555 1_555
C7A H9A 1_555 1_555
C8A C7A 1_555 1_555
H10A C8A 1_555 1_555
C9A H11A 1_555 1_555
H12A C9A 1_555 1_555
C10A C10 1_555 1_555
H13A C10A 1_555 1_555
H14A C10A 1_555 1_555
C11A C12A 1_555 1_555
C12A C13A 1_555 1_555
C13A H15A 1_555 1_555
C14A C13A 1_555 1_555
H16A C14A 1_555 1_555
C15A C14A 1_555 1_555
C16A C11A 1_555 1_555
H17A C16A 1_555 1_555
C17A C11A 1_555 1_555
C18A C19A 1_555 1_555
C19A C20A 1_555 1_555
C20A H18A 1_555 1_555
C21A C20A 1_555 1_555
H19A C21A 1_555 1_555
C22A C21A 1_555 1_555
C23A C18A 1_555 1_555
H20A C23A 1_555 1_555
C24A C18A 1_555 1_555
N1A C1A 1_555 1_555
N2A C1A 1_555 1_555
N3A C6A 1_555 1_555
N3A_2 Cd1A 1_555 1_555
N4A C6A 1_555 1_555
O1A Cd1A 1_555 1_555
O2A Cd1A 1_555 1_555
O3A C12A 1_555 1_555
H21A O3A 1_555 1_555
O4A Cd1A 1_555 1_555
O5A C24A 1_555 1_555
O6A C19A 1_555 1_555
H22A O6A 1_555 1_555
Br1A C15A 1_555 1_555
Br2A C22A 1_555 1_555
C2 N2 1_555 1_555
C3 N1 1_555 1_555
C4 N2 1_555 1_555
C6 N3 1_555 1_555
C7 N3 1_555 1_555
C8 N4 1_555 1_555
C9 N4 1_555 1_555
C15 C16 1_555 1_555
C17 O1 1_555 1_555
C17 O2 1_555 1_555
C22 C23 1_555 1_555
C24 O4 1_555 1_555
C2A N2A 1_555 1_555
C3A N1A 1_555 1_555
C4A C5A 1_555 1_555
C4A N2A 1_555 1_555
C7A N3A 1_555 1_555
C8A N4A 1_555 1_555
C9A C10A 1_555 1_555
C9A N4A 1_555 1_555
C15A C16A 1_555 1_555
C17A O1A 1_555 1_555
C17A O2A 1_555 1_555
C22A C23A 1_555 1_555
C24A O4A 1_555 1_555

#END
