
#######################################################################
#
#                 Cambridge Crystallographic Data Centre
#                                CCDC 
#
#######################################################################
#
# If this CIF has been generated from an entry in the Cambridge 
# Structural Database, then it will include bibliographic, chemical, 
# crystal, experimental, refinement or atomic coordinate data resulting 
# from the CCDC's data processing and validation procedures.
#
#######################################################################

data_PAPHOF
_symmetry_cell_setting           monoclinic
_symmetry_space_group_name_H-M   'P 21/n'
_symmetry_Int_Tables_number      14
_space_group_name_Hall           '-P 2yn'
loop_
_symmetry_equiv_pos_site_id
_symmetry_equiv_pos_as_xyz
1 x,y,z
2 1/2-x,1/2+y,1/2-z
3 -x,-y,-z
4 1/2+x,1/2-y,1/2+z
_cell_length_a                   12.5216(5)
_cell_length_b                   16.6325(5)
_cell_length_c                   18.2844(7)
_cell_angle_alpha                90
_cell_angle_beta                 106.623(4)
_cell_angle_gamma                90
_cell_volume                     3648.86
loop_
_atom_site_label
_atom_site_type_symbol
_atom_site_fract_x
_atom_site_fract_y
_atom_site_fract_z
Zn1 Zn 1.41438(2) -0.111291(14) -0.211328(14)
Zn2 Zn 0.73008(2) -0.140920(14) 0.241150(14)
C1 C 1.21672(19) -0.15117(13) -0.15933(13)
H1 H 1.1847 -0.1808 -0.2033
C2 C 1.2440(2) -0.09572(15) -0.04796(15)
H2 H 1.2356 -0.0801 -0.0011
C3 C 1.3284(2) -0.07683(15) -0.07585(14)
H3 H 1.3889 -0.0447 -0.0515
C4 C 1.0709(2) -0.18089(14) -0.09369(16)
H4 H 1.0900 -0.2137 -0.0479
H5 H 1.0410 -0.2163 -0.1369
C5 C 0.9819(2) -0.12146(14) -0.08910(16)
H6 H 0.9451 -0.1015 -0.1399
H7 H 1.0168 -0.0761 -0.0580
C6 C 0.8958(2) -0.15789(14) -0.05550(14)
H8 H 0.8501 -0.1956 -0.0916
H9 H 0.9331 -0.1873 -0.0094
C7 C 0.8225(2) -0.09411(15) -0.03687(15)
H10 H 0.8686 -0.0488 -0.0138
H11 H 0.7705 -0.0755 -0.0840
C8 C 0.6544(2) -0.15160(17) -0.00408(14)
H12 H 0.6078 -0.1609 -0.0530
C9 C 0.6312(2) -0.16557(17) 0.06209(14)
H13 H 0.5645 -0.1866 0.0664
C10 C 0.7958(2) -0.11835(14) 0.09145(13)
H14 H 0.8660 -0.1002 0.1190
C11 C 1.2558(2) -0.07356(14) -0.36098(12)
H15 H 1.2212 -0.0348 -0.3390
C12 C 1.3681(2) -0.16477(13) -0.37682(13)
H16 H 1.4270 -0.2011 -0.3670
C13 C 1.2923(2) -0.15368(14) -0.44460(14)
H17 H 1.2890 -0.1806 -0.4898
C14 C 1.1305(2) -0.05985(18) -0.49556(14)
H18 H 1.0950 -0.1019 -0.5310
H19 H 1.1621 -0.0213 -0.5234
C15 C 1.0451(2) -0.01917(16) -0.46769(13)
H20 H 1.0803 0.0220 -0.4312
H21 H 1.0111 -0.0579 -0.4415
C16 C 0.6464(2) -0.11548(13) 0.38418(12)
H22 H 0.5825 -0.0932 0.3511
C17 C 0.7648(2) -0.15766(15) 0.48836(14)
H23 H 0.7996 -0.1704 0.5391
C18 C 0.8048(2) -0.17097(15) 0.42805(14)
H24 H 0.8730 -0.1948 0.4308
C19 C 0.5830(2) -0.09780(14) 0.50062(14)
H25 H 0.5165 -0.1307 0.4834
H26 H 0.6151 -0.1072 0.5548
C20 C 0.5513(2) -0.01020(14) 0.48766(14)
H27 H 0.6131 0.0228 0.5160
H28 H 0.5371 0.0023 0.4339
C21 C 1.55655(18) 0.11398(12) -0.18309(11)
C22 C 1.5121(2) 0.19430(12) -0.20025(11)
C23 C 1.5932(2) 0.25660(13) -0.19379(13)
H29 H 1.5679 0.3090 -0.2053
C24 C 1.7044(2) 0.24353(13) -0.17187(13)
H30 H 1.7539 0.2859 -0.1689
C25 C 1.74377(19) 0.16526(13) -0.15370(12)
C26 C 1.67048(19) 0.10249(12) -0.15963(12)
H31 H 1.6984 0.0508 -0.1475
C27 C 1.48444(19) 0.04089(12) -0.19436(12)
C28 C 1.4635(2) -0.42769(12) -0.21729(12)
C29 C 1.51876(18) -0.35023(12) -0.20295(11)
C30 C 1.63334(19) -0.34663(13) -0.18513(11)
H32 H 1.6685 -0.2970 -0.1743
C31 C 1.69728(19) -0.41458(13) -0.18297(12)
C32 C 1.6471(2) -0.49017(13) -0.19836(13)
H33 H 1.6901 -0.5359 -0.1976
C33 C 1.5347(2) -0.49583(13) -0.21438(13)
H34 H 1.5022 -0.5465 -0.2240
C34 C 1.45652(19) -0.27322(12) -0.20842(11)
N1 N 1.31214(16) -0.11228(10) -0.14599(10)
N2 N 1.17205(17) -0.14260(11) -0.10180(11)
N3 N 0.75961(17) -0.12100(11) 0.01460(11)
N4 N 0.72061(16) -0.14431(11) 0.12263(10)
N5 N 1.34475(16) -0.11380(10) -0.32406(10)
N6 N 1.22104(17) -0.09552(11) -0.43466(10)
N7 N 0.72948(16) -0.14390(11) 0.36206(10)
N8 N 0.66330(17) -0.12193(11) 0.45992(11)
N9 N 1.86193(17) 0.15073(14) -0.12831(11)
N10 N 1.81617(17) -0.40731(13) -0.16586(11)
O1 O 1.38080(12) 0.04410(8) -0.22400(8)
O2 O 1.53224(12) -0.02724(8) -0.17538(9)
O3 O 1.40897(13) 0.21301(8) -0.22037(8)
O4 O 1.89666(15) 0.08223(11) -0.10948(11)
O5 O 1.92566(15) 0.20779(12) -0.12518(12)
O6 O 1.35236(12) -0.27027(8) -0.22943(8)
O7 O 1.51405(12) -0.20847(8) -0.19144(8)
O8 O 1.35872(13) -0.43960(8) -0.23264(9)
O9 O 1.86098(15) -0.34233(11) -0.14442(11)
O10 O 1.87079(14) -0.46701(11) -0.17294(10)
Zn1B Zn 0.58562(2) 0.111291(14) -0.788672(14)
Zn1B_2 Zn 0.58562(2) 0.111291(14) 0.211328(14)
Zn1C Zn 0.91438(2) -0.388709(14) 0.288672(14)
Zn2B Zn 1.26992(2) 0.140920(14) -0.241150(14)
Zn2C Zn 1.23008(2) -0.359080(14) -0.258850(14)
Zn2B_2 Zn 0.26992(2) 0.140920(14) 0.758850(14)
Zn2B_3 Zn 1.26992(2) 0.140920(14) -1.241150(14)
C1B C 0.78328(19) 0.15117(13) -0.84067(13)
H1B H 0.8153 0.1808 -0.7967
C2B C 0.7560(2) 0.09572(15) -0.95204(15)
H2B H 0.7644 0.0801 -0.9989
C3B C 0.6716(2) 0.07683(15) -0.92415(14)
H3B H 0.6111 0.0447 -0.9485
C4B C 0.9291(2) 0.18089(14) -0.90631(16)
H4B H 0.9100 0.2137 -0.9521
H5B H 0.9590 0.2163 -0.8631
C5B C 1.0181(2) 0.12146(14) -0.91090(16)
H6B H 1.0549 0.1015 -0.8601
H7B H 0.9832 0.0761 -0.9420
C6B C 1.1042(2) 0.15789(14) -0.94450(14)
H8B H 1.1499 0.1956 -0.9084
H9B H 1.0669 0.1873 -0.9906
C7B C 1.1775(2) 0.09411(15) -0.96313(15)
H10B H 1.1314 0.0488 -0.9862
H11B H 1.2295 0.0755 -0.9160
C8B C 1.3456(2) 0.15160(17) -0.99592(14)
H12B H 1.3922 0.1609 -0.9470
C9B C 1.3688(2) 0.16557(17) -1.06209(14)
H13B H 1.4355 0.1866 -1.0664
C10B C 1.2042(2) 0.11835(14) -1.09145(13)
H14B H 1.1340 0.1002 -1.1190
C11B C 0.7442(2) 0.07356(14) -0.63902(12)
H15B H 0.7788 0.0348 -0.6610
C12B C 0.6319(2) 0.16477(13) -0.62318(13)
H16B H 0.5730 0.2011 -0.6330
C13B C 0.7077(2) 0.15368(14) -0.55540(14)
H17B H 0.7110 0.1806 -0.5102
C14B C 0.8695(2) 0.05985(18) -0.50444(14)
H18B H 0.9050 0.1019 -0.4690
H19B H 0.8379 0.0213 -0.4766
C15B C 0.9549(2) 0.01917(16) -0.53231(13)
H20B H 0.9197 -0.0220 -0.5688
H21B H 0.9889 0.0579 -0.5585
C16B C 0.3536(2) 0.11548(13) 0.61582(12)
H22B H 0.4175 0.0932 0.6489
C17B C 0.2352(2) 0.15766(15) 0.51164(14)
H23B H 0.2004 0.1704 0.4609
C18B C 0.1952(2) 0.17097(15) 0.57195(14)
H24B H 0.1270 0.1948 0.5692
C19B C 0.4170(2) 0.09780(14) 0.49938(14)
H25B H 0.4835 0.1307 0.5166
H26B H 0.3849 0.1072 0.4452
C20B C 0.4487(2) 0.01020(14) 0.51234(14)
H27B H 0.3869 -0.0228 0.4840
H28B H 0.4629 -0.0023 0.5661
C21B C 0.44345(18) -0.11398(12) 0.18309(11)
C22B C 0.4879(2) -0.19430(12) 0.20025(11)
C23B C 0.4068(2) -0.25660(13) 0.19379(13)
H29B H 0.4321 -0.3090 0.2053
C24B C 0.2956(2) -0.24353(13) 0.17187(13)
H30B H 0.2461 -0.2859 0.1689
C25B C 0.25623(19) -0.16526(13) 0.15370(12)
C26B C 0.32952(19) -0.10249(12) 0.15963(12)
H31B H 0.3016 -0.0508 0.1475
C27B C 0.51556(19) -0.04089(12) 0.19436(12)
C28C C 0.9635(2) -0.07231(12) 0.28271(12)
C29C C 1.01876(18) -0.14977(12) 0.29705(11)
C30C C 1.13334(19) -0.15337(13) 0.31487(11)
H32C H 1.1685 -0.2030 0.3257
C31C C 1.19728(19) -0.08542(13) 0.31703(12)
C32C C 1.1471(2) -0.00983(13) 0.30164(13)
H33C H 1.1901 0.0359 0.3024
C33C C 1.0347(2) -0.00417(13) 0.28562(13)
H34C H 1.0022 0.0465 0.2760
C34C C 0.95652(19) -0.22678(12) 0.29158(11)
N1B N 0.68786(16) 0.11228(10) -0.85401(10)
N2B N 0.82795(17) 0.14260(11) -0.89820(11)
N3B N 1.24039(17) 0.12100(11) -1.01460(11)
N4B N 1.27939(16) 0.14431(11) -1.12263(10)
N4B_2 N 1.27939(16) 0.14431(11) -0.12263(10)
N5B N 0.65525(16) 0.11380(10) -0.67594(10)
N6B N 0.77896(17) 0.09552(11) -0.56534(10)
N7B N 0.27052(16) 0.14390(11) 0.63794(10)
N7B_2 N 1.27052(16) 0.14390(11) -0.36206(10)
N8B N 0.33670(17) 0.12193(11) 0.54008(11)
N9B N 0.13807(17) -0.15073(14) 0.12831(11)
N10C N 1.31617(17) -0.09269(13) 0.33414(11)
O1B O 0.61920(12) -0.04410(8) 0.22400(8)
O2B O 0.46776(12) 0.02724(8) 0.17538(9)
O2B_2 O 0.46776(12) 0.02724(8) -0.82462(9)
O3B O 0.59103(13) -0.21301(8) 0.22037(8)
O4B O 0.10334(15) -0.08223(11) 0.10948(11)
O5B O 0.07434(15) -0.20779(12) 0.12518(12)
O6C O 0.85236(12) -0.22973(8) 0.27057(8)
O6A O 1.14764(12) 0.22973(8) -0.27057(8)
O7C O 1.01405(12) -0.29153(8) 0.30856(8)
O7B O 0.48595(12) 0.20847(8) -0.80856(8)
O8C O 0.85872(13) -0.06040(8) 0.26736(9)
O8A O 1.14128(13) 0.06040(8) -0.26736(9)
O9C O 1.36098(15) -0.15767(11) 0.35558(11)
O10C O 1.37079(14) -0.03299(11) 0.32706(10)
O11 O 1.8175(3) 0.37581(14) -0.25434(19)
loop_
_geom_bond_atom_site_label_1
_geom_bond_atom_site_label_2
_geom_bond_site_symmetry_1
_geom_bond_site_symmetry_2
Zn1 N1 1_555 1_555
Zn2 N4 1_555 1_555
C1 H1 1_555 1_555
C2 H2 1_555 1_555
C3 C2 1_555 1_555
H3 C3 1_555 1_555
C4 H4 1_555 1_555
H5 C4 1_555 1_555
C5 C4 1_555 1_555
H6 C5 1_555 1_555
H7 C5 1_555 1_555
C6 C5 1_555 1_555
H8 C6 1_555 1_555
H9 C6 1_555 1_555
C7 C6 1_555 1_555
H10 C7 1_555 1_555
H11 C7 1_555 1_555
C8 H12 1_555 1_555
C9 C8 1_555 1_555
H13 C9 1_555 1_555
C10 H14 1_555 1_555
C11 H15 1_555 1_555
C12 H16 1_555 1_555
C13 C12 1_555 1_555
H17 C13 1_555 1_555
C14 H18 1_555 1_555
H19 C14 1_555 1_555
C15 C14 1_555 1_555
H20 C15 1_555 1_555
H21 C15 1_555 1_555
C16 H22 1_555 1_555
C17 H23 1_555 1_555
C18 C17 1_555 1_555
H24 C18 1_555 1_555
C19 H25 1_555 1_555
H26 C19 1_555 1_555
C20 C19 1_555 1_555
H27 C20 1_555 1_555
H28 C20 1_555 1_555
C21 C22 1_555 1_555
C22 C23 1_555 1_555
C23 H29 1_555 1_555
C24 C23 1_555 1_555
H30 C24 1_555 1_555
C25 C24 1_555 1_555
C26 C21 1_555 1_555
H31 C26 1_555 1_555
C27 C21 1_555 1_555
C28 C29 1_555 1_555
C29 C30 1_555 1_555
C30 H32 1_555 1_555
C31 C30 1_555 1_555
C32 C31 1_555 1_555
H33 C32 1_555 1_555
C33 C28 1_555 1_555
H34 C33 1_555 1_555
C34 C29 1_555 1_555
N1 C1 1_555 1_555
N2 C1 1_555 1_555
N3 C7 1_555 1_555
N4 C9 1_555 1_555
N5 Zn1 1_555 1_555
N6 C11 1_555 1_555
N7 Zn2 1_555 1_555
N8 C16 1_555 1_555
N9 C25 1_555 1_555
N10 C31 1_555 1_555
O1 C27 1_555 1_555
O2 Zn1 1_555 1_555
O3 C22 1_555 1_555
O4 N9 1_555 1_555
O5 N9 1_555 1_555
O6 C34 1_555 1_555
O7 Zn1 1_555 1_555
O8 C28 1_555 1_555
O9 N10 1_555 1_555
O10 N10 1_555 1_555
Zn1B N1B 1_555 1_555
Zn1B_2 O2B 1_555 1_555
Zn1C O7C 1_555 1_555
Zn2B O1 1_555 1_555
Zn2C O6 1_555 1_555
Zn2B_2 N7B 1_555 1_555
Zn2B_3 N4B 1_555 1_555
C1B H1B 1_555 1_555
C2B H2B 1_555 1_555
C3B C2B 1_555 1_555
H3B C3B 1_555 1_555
C4B H4B 1_555 1_555
H5B C4B 1_555 1_555
C5B C4B 1_555 1_555
H6B C5B 1_555 1_555
H7B C5B 1_555 1_555
C6B C5B 1_555 1_555
H8B C6B 1_555 1_555
H9B C6B 1_555 1_555
C7B C6B 1_555 1_555
H10B C7B 1_555 1_555
H11B C7B 1_555 1_555
C8B H12B 1_555 1_555
C9B C8B 1_555 1_555
H13B C9B 1_555 1_555
C10B H14B 1_555 1_555
C11B H15B 1_555 1_555
C12B H16B 1_555 1_555
C13B C12B 1_555 1_555
H17B C13B 1_555 1_555
C14B H18B 1_555 1_555
H19B C14B 1_555 1_555
C15B C15 1_555 1_555
H20B C15B 1_555 1_555
H21B C15B 1_555 1_555
C16B H22B 1_555 1_555
C17B H23B 1_555 1_555
C18B C17B 1_555 1_555
H24B C18B 1_555 1_555
C19B H25B 1_555 1_555
H26B C19B 1_555 1_555
C20B C20 1_555 1_555
H27B C20B 1_555 1_555
H28B C20B 1_555 1_555
C21B C22B 1_555 1_555
C22B C23B 1_555 1_555
C23B H29B 1_555 1_555
C24B C23B 1_555 1_555
H30B C24B 1_555 1_555
C25B C24B 1_555 1_555
C26B C21B 1_555 1_555
H31B C26B 1_555 1_555
C27B C21B 1_555 1_555
C28C C29C 1_555 1_555
C29C C30C 1_555 1_555
C30C H32C 1_555 1_555
C31C C30C 1_555 1_555
C32C C31C 1_555 1_555
H33C C32C 1_555 1_555
C33C C28C 1_555 1_555
H34C C33C 1_555 1_555
C34C C29C 1_555 1_555
N1B C1B 1_555 1_555
N2B C1B 1_555 1_555
N3B C7B 1_555 1_555
N4B C9B 1_555 1_555
N4B_2 Zn2B 1_555 1_555
N5B Zn1B 1_555 1_555
N6B C11B 1_555 1_555
N7B C16B 1_555 1_555
N7B_2 Zn2B 1_555 1_555
N8B C16B 1_555 1_555
N9B C25B 1_555 1_555
N10C C31C 1_555 1_555
O1B Zn2 1_555 1_555
O2B C27B 1_555 1_555
O2B_2 Zn1B 1_555 1_555
O3B Zn2 1_555 1_555
O4B N9B 1_555 1_555
O5B N9B 1_555 1_555
O6C Zn2 1_555 1_555
O6A Zn2B 1_555 1_555
O7C C34C 1_555 1_555
O7B Zn1B 1_555 1_555
O8C Zn2 1_555 1_555
O8A Zn2B 1_555 1_555
O9C N10C 1_555 1_555
O10C N10C 1_555 1_555
C2 N2 1_555 1_555
C3 N1 1_555 1_555
C4 N2 1_555 1_555
C8 N3 1_555 1_555
C10 N3 1_555 1_555
C10 N4 1_555 1_555
C11 N5 1_555 1_555
C12 N5 1_555 1_555
C13 N6 1_555 1_555
C14 N6 1_555 1_555
C16 N7 1_555 1_555
C17 N8 1_555 1_555
C18 N7 1_555 1_555
C19 N8 1_555 1_555
C25 C26 1_555 1_555
C27 O2 1_555 1_555
C32 C33 1_555 1_555
C34 O7 1_555 1_555
O3 Zn2B 1_555 1_555
O8 Zn2C 1_555 1_555
C2B N2B 1_555 1_555
C3B N1B 1_555 1_555
C4B N2B 1_555 1_555
C8B N3B 1_555 1_555
C10B N3B 1_555 1_555
C10B N4B 1_555 1_555
C11B N5B 1_555 1_555
C12B N5B 1_555 1_555
C13B N6B 1_555 1_555
C14B C15B 1_555 1_555
C14B N6B 1_555 1_555
C17B N8B 1_555 1_555
C18B N7B 1_555 1_555
C19B C20B 1_555 1_555
C19B N8B 1_555 1_555
C22B O3B 1_555 1_555
C25B C26B 1_555 1_555
C27B O1B 1_555 1_555
C28C O8C 1_555 1_555
C32C C33C 1_555 1_555
C34C O6C 1_555 1_555

#END
