
#######################################################################
#
#                 Cambridge Crystallographic Data Centre
#                                CCDC 
#
#######################################################################
#
# If this CIF has been generated from an entry in the Cambridge 
# Structural Database, then it will include bibliographic, chemical, 
# crystal, experimental, refinement or atomic coordinate data resulting 
# from the CCDC's data processing and validation procedures.
#
#######################################################################

data_PAPHUL
_symmetry_cell_setting           monoclinic
_symmetry_space_group_name_H-M   'C 2/c'
_symmetry_Int_Tables_number      15
_space_group_name_Hall           '-C 2yn'
loop_
_symmetry_equiv_pos_site_id
_symmetry_equiv_pos_as_xyz
1 x,y,z
2 -x,y,1/2-z
3 1/2+x,1/2+y,z
4 1/2-x,1/2+y,1/2-z
5 -x,-y,-z
6 x,-y,1/2+z
7 1/2-x,1/2-y,-z
8 1/2+x,1/2-y,1/2+z
_cell_length_a                   24.4367(9)
_cell_length_b                   15.4726(5)
_cell_length_c                   23.1895(9)
_cell_angle_alpha                90
_cell_angle_beta                 118.590(5)
_cell_angle_gamma                90
_cell_volume                     7698.83
loop_
_atom_site_label
_atom_site_type_symbol
_atom_site_fract_x
_atom_site_fract_y
_atom_site_fract_z
Cd1 Cd 0.335190(10) 0.303858(16) 0.252078(12)
Cd2 Cd 0.255672(10) 0.552274(16) 0.265247(11)
C1 C 0.43862(14) 0.2179(2) 0.38597(16)
H1 H 0.4517 0.1864 0.3606
C2 C 0.43163(17) 0.2658(3) 0.46980(19)
H2 H 0.4380 0.2749 0.5122
C3 C 0.38916(16) 0.3049(3) 0.41474(19)
H3 H 0.3609 0.3464 0.4130
C4 C 0.51278(15) 0.1495(3) 0.49392(17)
H4 H 0.5080 0.0958 0.4704
H5 H 0.5078 0.1369 0.5321
C5 C 0.57835(14) 0.1851(3) 0.51668(16)
H6 H 0.5809 0.2429 0.5341
H7 H 0.6082 0.1491 0.5520
C6 C 0.59623(14) 0.1886(3) 0.46238(16)
H8 H 0.5993 0.1300 0.4494
H9 H 0.5631 0.2172 0.4246
C7 C 0.65695(14) 0.2350(3) 0.48047(17)
H10 H 0.6651 0.2328 0.4434
H11 H 0.6528 0.2952 0.4893
C8 C 0.73607(15) 0.2267(2) 0.59951(17)
H12 H 0.7243 0.2777 0.6117
C9 C 0.78302(15) 0.1101(2) 0.60385(18)
H13 H 0.8108 0.0640 0.6197
C10 C 0.73941(16) 0.1214(2) 0.54013(19)
H14 H 0.7312 0.0848 0.5051
C11 C 0.36385(15) 0.5761(2) 0.41675(16)
H15 H 0.3849 0.6090 0.4000
C12 C 0.34455(17) 0.5059(3) 0.48538(18)
H16 H 0.3479 0.4804 0.5232
C13 C 0.29467(16) 0.5036(3) 0.42450(18)
H17 H 0.2573 0.4758 0.4139
C14 C 0.45294(15) 0.5691(3) 0.53133(16)
H18 H 0.4544 0.5692 0.5739
H19 H 0.4658 0.6258 0.5245
C15 C 0.49818(15) 0.5018(3) 0.53146(15)
H20 H 0.5394 0.5141 0.5674
H21 H 0.4857 0.4455 0.5395
C16 C 0.24110(15) 0.5981(3) 0.12515(16)
H22 H 0.2824 0.6164 0.1474
C17 C 0.14836(16) 0.5700(3) 0.04622(17)
H23 H 0.1136 0.5646 0.0050
C18 C 0.15284(15) 0.5469(3) 0.10426(17)
H24 H 0.1208 0.5225 0.1096
C19 C 0.22460(18) 0.6384(3) 0.01383(18)
H25 H 0.1921 0.6275 -0.0307
H26 H 0.2619 0.6086 0.0199
C20 C 0.23742(17) 0.7334(3) 0.02227(18)
H27 H 0.2675 0.7452 0.0676
H28 H 0.1993 0.7639 0.0124
C21 C 0.41540(12) 0.5583(2) 0.29129(13)
C22 C 0.38619(13) 0.6385(2) 0.29168(14)
C23 C 0.42603(14) 0.7121(2) 0.31657(16)
H29 H 0.4085 0.7649 0.3180
C24 C 0.48833(15) 0.7085(2) 0.33824(17)
H30 H 0.5130 0.7575 0.3549
C25 C 0.51465(13) 0.6304(2) 0.33507(15)
C26 C 0.47890(13) 0.5572(2) 0.31221(13)
H31 H 0.4977 0.5057 0.3107
C27 C 0.38316(13) 0.4723(2) 0.27241(14)
C28 C 0.37695(12) 0.0489(2) 0.20784(14)
C29 C 0.35118(13) -0.0323(2) 0.21372(15)
C30 C 0.36932(15) -0.1071(2) 0.19170(18)
H32 H 0.3524 -0.1601 0.1938
C31 C 0.41044(15) -0.1047(2) 0.16758(17)
H33 H 0.4210 -0.1550 0.1532
C32 C 0.43626(13) -0.0260(2) 0.16487(15)
C33 C 0.42023(13) 0.0493(2) 0.18503(14)
H34 H 0.4387 0.1012 0.1833
C34 C 0.36195(14) 0.1360(2) 0.22566(14)
N1 N 0.39351(12) 0.27495(19) 0.36178(13)
N2 N 0.46372(11) 0.20993(19) 0.45112(13)
N3 N 0.70997(11) 0.1974(2) 0.53799(13)
N4 N 0.78027(12) 0.17546(18) 0.64100(13)
N5 N 0.30664(12) 0.5475(2) 0.38108(13)
N6 N 0.38860(12) 0.5528(2) 0.47995(12)
N7 N 0.21107(11) 0.56438(19) 0.15414(12)
N8 N 0.20526(13) 0.6030(2) 0.05997(13)
N9 N 0.58093(12) 0.6259(2) 0.35938(14)
N10 N 0.48064(13) -0.0229(2) 0.14085(14)
O1 O 0.33119(9) 0.46024(14) 0.27048(11)
O2 O 0.40952(10) 0.41095(16) 0.26086(12)
O3 O 0.32740(9) 0.64902(14) 0.27183(11)
O4 O 0.60495(10) 0.55641(19) 0.35930(12)
O5 O 0.61243(11) 0.6917(2) 0.38092(19)
O6 O 0.31321(9) 0.14724(14) 0.23099(10)
O7 O 0.39763(10) 0.19741(15) 0.23367(12)
O8 O 0.31375(10) -0.04209(14) 0.23791(11)
O9 O 0.50715(11) 0.04489(18) 0.14290(13)
O10 O 0.49048(14) -0.0892(2) 0.11790(15)
O11 O 0.24314(12) 0.30212(19) 0.26074(17)
H35 H 0.226(4) 0.275(5) 0.240(4)
H36 H 0.226(3) 0.343(5) 0.261(4)
Cd1G Cd -0.164810(10) 0.196142(16) -0.247922(12)
Cd1G_2 Cd 0.835190(10) 0.196142(16) 0.752078(12)
Cd1C Cd 0.164810(10) 0.803858(16) 0.247922(12)
Cd2C Cd 0.244328(10) 0.052274(16) 0.234753(11)
Cd2D Cd 0.744328(10) 0.447726(16) 0.734753(11)
Cd2F Cd 0.244328(10) 0.947726(16) -0.265247(11)
Cd2G Cd -0.244328(10) -0.052274(16) -0.234753(11)
C1G C -0.06138(14) 0.2821(2) -0.11403(16)
H1G H -0.0483 0.3136 -0.1394
C2G C -0.06837(17) 0.2342(3) -0.03020(19)
H2G H -0.0620 0.2251 0.0122
C3G C -0.11084(16) 0.1951(3) -0.08526(19)
H3G H -0.1391 0.1536 -0.0870
C4G C 0.01278(15) 0.3505(3) -0.00608(17)
H4G H 0.0080 0.4042 -0.0296
H5G H 0.0078 0.3631 0.0321
C5G C 0.07835(14) 0.3149(3) 0.01668(16)
H6G H 0.0809 0.2571 0.0341
H7G H 0.1082 0.3509 0.0520
C6G C 0.09623(14) 0.3114(3) -0.03762(16)
H8G H 0.0993 0.3700 -0.0506
H9G H 0.0631 0.2828 -0.0754
C7G C 0.15695(14) 0.2650(3) -0.01953(17)
H10G H 0.1651 0.2672 -0.0566
H11G H 0.1528 0.2048 -0.0107
C8G C 0.23607(15) 0.2733(2) 0.09951(17)
H12G H 0.2243 0.2223 0.1117
C9G C 0.28302(15) 0.3899(2) 0.10385(18)
H13G H 0.3108 0.4360 0.1197
C10G C 0.23941(16) 0.3786(2) 0.04013(19)
H14G H 0.2312 0.4152 0.0051
C11D C 0.63615(15) 0.4239(2) 0.58325(16)
H15D H 0.6151 0.3910 0.6000
C12D C 0.65545(17) 0.4941(3) 0.51462(18)
H16D H 0.6521 0.5196 0.4768
C13D C 0.70533(16) 0.4964(3) 0.57550(18)
H17D H 0.7427 0.5242 0.5861
C14D C 0.54706(15) 0.4309(3) 0.46867(16)
H18D H 0.5456 0.4308 0.4261
H19D H 0.5342 0.3742 0.4755
C15D C 0.50182(15) 0.4982(3) 0.46854(15)
H20D H 0.4606 0.4859 0.4326
H21D H 0.5143 0.5545 0.4605
C16F C 0.25890(15) 0.9019(3) -0.12515(16)
H22F H 0.2176 0.8836 -0.1474
C17F C 0.35164(16) 0.9300(3) -0.04622(17)
H23F H 0.3864 0.9354 -0.0050
C18F C 0.34716(15) 0.9531(3) -0.10426(17)
H24F H 0.3792 0.9775 -0.1096
C19F C 0.27540(18) 0.8616(3) -0.01383(18)
H25F H 0.3079 0.8725 0.0307
H26F H 0.2381 0.8914 -0.0199
C20F C 0.26258(17) 0.7666(3) -0.02227(18)
H27F H 0.2325 0.7548 -0.0676
H28F H 0.3007 0.7361 -0.0124
C21G C -0.08460(12) -0.0583(2) -0.20871(13)
C22G C -0.11381(13) -0.1385(2) -0.20832(14)
C23G C -0.07397(14) -0.2121(2) -0.18343(16)
H29G H -0.0915 -0.2649 -0.1820
C24G C -0.01167(15) -0.2085(2) -0.16176(17)
H30G H 0.0130 -0.2575 -0.1451
C25G C 0.01465(13) -0.1304(2) -0.16493(15)
C26G C -0.02110(13) -0.0572(2) -0.18779(13)
H31G H -0.0023 -0.0057 -0.1893
C27G C -0.11684(13) 0.0277(2) -0.22759(14)
C28C C 0.12305(12) 0.5489(2) 0.29216(14)
C29C C 0.14882(13) 0.4677(2) 0.28628(15)
C30C C 0.13068(15) 0.3929(2) 0.30830(18)
H32C H 0.1476 0.3399 0.3062
C31C C 0.08956(15) 0.3953(2) 0.33242(17)
H33C H 0.0790 0.3450 0.3468
C32C C 0.06374(13) 0.4740(2) 0.33513(15)
C33C C 0.07977(13) 0.5493(2) 0.31497(14)
H34C H 0.0613 0.6012 0.3167
C34C C 0.13805(14) 0.6360(2) 0.27434(14)
N1G N -0.10649(12) 0.22505(19) -0.13822(13)
N2G N -0.03628(11) 0.29007(19) -0.04888(13)
N3G N 0.20997(11) 0.3026(2) 0.03799(13)
N4G N 0.28027(12) 0.32454(18) 0.14100(13)
N4_2 N -0.21973(12) 0.17546(18) -0.35900(13)
N5D N 0.69336(12) 0.4525(2) 0.61892(13)
N5C N 0.19336(12) 0.0475(2) 0.11892(13)
N6D N 0.61140(12) 0.4472(2) 0.52005(12)
N7F N 0.28893(11) 0.93562(19) -0.15414(12)
N7C N 0.28893(11) 0.06438(19) 0.34586(12)
N8F N 0.29474(13) 0.8970(2) -0.05997(13)
N9G N 0.08093(12) -0.1259(2) -0.14062(14)
N10C N 0.01936(13) 0.4771(2) 0.35915(14)
O1G O -0.16881(9) 0.03976(14) -0.22952(11)
O1C O 0.16881(9) -0.03976(14) 0.22952(11)
O2G O -0.09048(10) 0.08905(16) -0.23914(12)
O3G O -0.17260(9) -0.14902(14) -0.22817(11)
O3C O 0.17260(9) 0.14902(14) 0.22817(11)
O4G O 0.10495(10) -0.05641(19) -0.14070(12)
O5G O 0.11243(11) -0.1917(2) -0.11908(19)
O6C O 0.18679(9) 0.64724(14) 0.26901(10)
O6G O -0.18679(9) 0.35276(14) -0.26901(10)
O7C O 0.10237(10) 0.69741(15) 0.26633(12)
O7G O -0.10237(10) 0.30259(15) -0.26633(12)
O8C O 0.18625(10) 0.45791(14) 0.26209(11)
O9C O -0.00715(11) 0.54489(18) 0.35710(13)
O10C O 0.00952(14) 0.4108(2) 0.38210(15)
O11G O -0.25686(12) 0.19788(19) -0.23926(17)
H35G H -0.274(4) 0.225(5) -0.260(4)
H36G H -0.274(3) 0.157(5) -0.239(4)
O12 O 0.54332(18) 0.3309(3) 0.33412(18)
loop_
_geom_bond_atom_site_label_1
_geom_bond_atom_site_label_2
_geom_bond_site_symmetry_1
_geom_bond_site_symmetry_2
Cd1 N1 1_555 1_555
Cd2 N5 1_555 1_555
C1 H1 1_555 1_555
C2 H2 1_555 1_555
C3 C2 1_555 1_555
H3 C3 1_555 1_555
C4 H4 1_555 1_555
H5 C4 1_555 1_555
C5 C4 1_555 1_555
H6 C5 1_555 1_555
H7 C5 1_555 1_555
C6 C5 1_555 1_555
H8 C6 1_555 1_555
H9 C6 1_555 1_555
C7 C6 1_555 1_555
H10 C7 1_555 1_555
H11 C7 1_555 1_555
C8 H12 1_555 1_555
C9 H13 1_555 1_555
C10 C9 1_555 1_555
H14 C10 1_555 1_555
C11 H15 1_555 1_555
C12 H16 1_555 1_555
C13 C12 1_555 1_555
H17 C13 1_555 1_555
C14 H18 1_555 1_555
H19 C14 1_555 1_555
C15 C14 1_555 1_555
H20 C15 1_555 1_555
H21 C15 1_555 1_555
C16 H22 1_555 1_555
C17 H23 1_555 1_555
C18 C17 1_555 1_555
H24 C18 1_555 1_555
C19 H25 1_555 1_555
H26 C19 1_555 1_555
C20 C19 1_555 1_555
H27 C20 1_555 1_555
H28 C20 1_555 1_555
C21 C22 1_555 1_555
C22 C23 1_555 1_555
C23 H29 1_555 1_555
C24 C23 1_555 1_555
H30 C24 1_555 1_555
C25 C24 1_555 1_555
C26 C21 1_555 1_555
H31 C26 1_555 1_555
C27 C21 1_555 1_555
C28 C29 1_555 1_555
C29 C30 1_555 1_555
C30 H32 1_555 1_555
C31 C30 1_555 1_555
H33 C31 1_555 1_555
C32 C31 1_555 1_555
C33 C28 1_555 1_555
H34 C33 1_555 1_555
C34 C28 1_555 1_555
N1 C1 1_555 1_555
N2 C1 1_555 1_555
N3 C7 1_555 1_555
N4 C8 1_555 1_555
N5 C11 1_555 1_555
N6 C11 1_555 1_555
N7 Cd2 1_555 1_555
N8 C16 1_555 1_555
N9 C25 1_555 1_555
N10 C32 1_555 1_555
O1 Cd1 1_555 1_555
O2 Cd1 1_555 1_555
O3 Cd2 1_555 1_555
O4 N9 1_555 1_555
O5 N9 1_555 1_555
O6 Cd1 1_555 1_555
O7 Cd1 1_555 1_555
O8 C29 1_555 1_555
O9 N10 1_555 1_555
O10 N10 1_555 1_555
O11 Cd1 1_555 1_555
H35 O11 1_555 1_555
H36 O11 1_555 1_555
Cd1G N1G 1_555 1_555
Cd1G_2 N4 1_555 1_555
Cd1C O6C 1_555 1_555
Cd2C O6 1_555 1_555
Cd2D N5D 1_555 1_555
Cd2F N7F 1_555 1_555
Cd2G O1G 1_555 1_555
C1G H1G 1_555 1_555
C2G H2G 1_555 1_555
C3G C2G 1_555 1_555
H3G C3G 1_555 1_555
C4G H4G 1_555 1_555
H5G C4G 1_555 1_555
C5G C4G 1_555 1_555
H6G C5G 1_555 1_555
H7G C5G 1_555 1_555
C6G C5G 1_555 1_555
H8G C6G 1_555 1_555
H9G C6G 1_555 1_555
C7G C6G 1_555 1_555
H10G C7G 1_555 1_555
H11G C7G 1_555 1_555
C8G H12G 1_555 1_555
C9G H13G 1_555 1_555
C10G C9G 1_555 1_555
H14G C10G 1_555 1_555
C11D H15D 1_555 1_555
C12D H16D 1_555 1_555
C13D C12D 1_555 1_555
H17D C13D 1_555 1_555
C14D H18D 1_555 1_555
H19D C14D 1_555 1_555
C15D C15 1_555 1_555
H20D C15D 1_555 1_555
H21D C15D 1_555 1_555
C16F H22F 1_555 1_555
C17F H23F 1_555 1_555
C18F C17F 1_555 1_555
H24F C18F 1_555 1_555
C19F H25F 1_555 1_555
H26F C19F 1_555 1_555
C20F C20 1_555 1_555
H27F C20F 1_555 1_555
H28F C20F 1_555 1_555
C21G C22G 1_555 1_555
C22G C23G 1_555 1_555
C23G H29G 1_555 1_555
C24G C23G 1_555 1_555
H30G C24G 1_555 1_555
C25G C24G 1_555 1_555
C26G C21G 1_555 1_555
H31G C26G 1_555 1_555
C27G C21G 1_555 1_555
C28C C29C 1_555 1_555
C29C C30C 1_555 1_555
C30C H32C 1_555 1_555
C31C C30C 1_555 1_555
H33C C31C 1_555 1_555
C32C C31C 1_555 1_555
C33C C28C 1_555 1_555
H34C C33C 1_555 1_555
C34C C28C 1_555 1_555
N1G C1G 1_555 1_555
N2G C1G 1_555 1_555
N3G C7G 1_555 1_555
N4G Cd1 1_555 1_555
N4_2 Cd1G 1_555 1_555
N5D C11D 1_555 1_555
N5C Cd2C 1_555 1_555
N6D C11D 1_555 1_555
N7F C16F 1_555 1_555
N7C Cd2C 1_555 1_555
N8F C16F 1_555 1_555
N9G C25G 1_555 1_555
N10C C32C 1_555 1_555
O1G Cd1G 1_555 1_555
O1C Cd2C 1_555 1_555
O2G Cd1G 1_555 1_555
O3G Cd2G 1_555 1_555
O3C Cd2C 1_555 1_555
O4G N9G 1_555 1_555
O5G N9G 1_555 1_555
O6C Cd2 1_555 1_555
O6G Cd1G 1_555 1_555
O7C Cd1C 1_555 1_555
O7G Cd1G 1_555 1_555
O8C Cd2 1_555 1_555
O9C N10C 1_555 1_555
O10C N10C 1_555 1_555
O11G Cd1G 1_555 1_555
H35G O11G 1_555 1_555
H36G O11G 1_555 1_555
Cd2 O1 1_555 1_555
C2 N2 1_555 1_555
C3 N1 1_555 1_555
C4 N2 1_555 1_555
C8 N3 1_555 1_555
C9 N4 1_555 1_555
C10 N3 1_555 1_555
C12 N6 1_555 1_555
C13 N5 1_555 1_555
C14 N6 1_555 1_555
C16 N7 1_555 1_555
C17 N8 1_555 1_555
C18 N7 1_555 1_555
C19 N8 1_555 1_555
C22 O3 1_555 1_555
C25 C26 1_555 1_555
C27 O1 1_555 1_555
C27 O2 1_555 1_555
C32 C33 1_555 1_555
C34 O6 1_555 1_555
C34 O7 1_555 1_555
O8 Cd2C 1_555 1_555
C2G N2G 1_555 1_555
C3G N1G 1_555 1_555
C4G N2G 1_555 1_555
C8G N3G 1_555 1_555
C8G N4G 1_555 1_555
C9G N4G 1_555 1_555
C10G N3G 1_555 1_555
C12D N6D 1_555 1_555
C13D N5D 1_555 1_555
C14D C15D 1_555 1_555
C14D N6D 1_555 1_555
C17F N8F 1_555 1_555
C18F N7F 1_555 1_555
C19F C20F 1_555 1_555
C19F N8F 1_555 1_555
C22G O3G 1_555 1_555
C25G C26G 1_555 1_555
C27G O1G 1_555 1_555
C27G O2G 1_555 1_555
C29C O8C 1_555 1_555
C32C C33C 1_555 1_555
C34C O6C 1_555 1_555
C34C O7C 1_555 1_555

#END
