
#######################################################################
#
#                 Cambridge Crystallographic Data Centre
#                                CCDC 
#
#######################################################################
#
# If this CIF has been generated from an entry in the Cambridge 
# Structural Database, then it will include bibliographic, chemical, 
# crystal, experimental, refinement or atomic coordinate data resulting 
# from the CCDC's data processing and validation procedures.
#
#######################################################################

data_PAPKOI
_symmetry_cell_setting           orthorhombic
_symmetry_space_group_name_H-M   'P b c a'
_symmetry_Int_Tables_number      61
_space_group_name_Hall           '-P 2ac 2ab'
loop_
_symmetry_equiv_pos_site_id
_symmetry_equiv_pos_as_xyz
1 x,y,z
2 1/2-x,-y,1/2+z
3 -x,1/2+y,1/2-z
4 1/2+x,1/2-y,-z
5 -x,-y,-z
6 1/2+x,y,1/2-z
7 x,1/2-y,1/2+z
8 1/2-x,1/2+y,z
_cell_length_a                   11.0822(4)
_cell_length_b                   20.8637(9)
_cell_length_c                   22.9350(10)
_cell_angle_alpha                90
_cell_angle_beta                 90
_cell_angle_gamma                90
_cell_volume                     5302.93
loop_
_atom_site_label
_atom_site_type_symbol
_atom_site_fract_x
_atom_site_fract_y
_atom_site_fract_z
C1 C 0.4147(13) 0.5271(9) -0.0844(5)
C2 C 0.4123(15) 0.5405(9) -0.0262(6)
N1 N 0.4008(16) 0.5659(11) 0.0205(6)
C3 C 0.3296(6) 0.7051(5) -0.0874(3)
C4 C 0.3337(7) 0.7024(6) -0.0259(3)
N2 N 0.3404(8) 0.6904(7) 0.0219(3)
C5 C 0.3650(3) 0.69647(19) 0.76438(16)
C6 C 0.3546(3) 0.54559(19) 0.76633(17)
C7 C 0.1291(4) 0.6797(2) 0.63090(19)
H1 H 0.0971 0.7148 0.6505
C8 C 0.1448(4) 0.6842(2) 0.5719(2)
H2 H 0.1221 0.7212 0.5522
C9 C 0.1951(4) 0.6327(2) 0.54156(19)
C10 C 0.2308(4) 0.5801(2) 0.57367(19)
H3 H 0.2687 0.5457 0.5556
C11 C 0.2096(4) 0.5793(2) 0.63256(19)
H4 H 0.2328 0.5432 0.6534
C12 C 0.2083(4) 0.6378(3) 0.4768(2)
C13 C 0.0263(4) 0.6641(2) 0.87254(19)
H5 H 0.0014 0.7001 0.8519
C14 C 0.0188(4) 0.6664(2) 0.93197(19)
H6 H -0.0102 0.7028 0.9507
C15 C 0.0550(4) 0.6135(2) 0.96359(19)
C16 C 0.0906(4) 0.5598(2) 0.93340(19)
H7 H 0.1115 0.5226 0.9533
C17 C 0.0950(4) 0.5615(2) 0.8728(2)
H8 H 0.1185 0.5247 0.8529
C18 C 0.0549(5) 0.6120(3) 1.0293(2)
N3 N 0.4623(3) 0.67670(17) 0.76114(16)
N4 N 0.2573(3) 0.56463(17) 0.76495(15)
N5 N 0.1574(3) 0.62750(16) 0.66181(15)
N6 N 0.0669(3) 0.61403(16) 0.84180(15)
O1 O 0.2743(4) 0.59225(18) 0.45477(15)
H9 H 0.2789 0.5969 0.4193
O2 O 0.1597(4) 0.6791(2) 0.44880(17)
O3 O 0.0117(4) 0.66446(19) 1.05212(16)
H10 H 0.0133 0.6617 1.0878
O4 O 0.0937(4) 0.5668(2) 1.05639(16)
S1 S 0.22584(9) 0.72298(5) 0.76894(5)
S2 S 0.49341(8) 0.51843(6) 0.76751(6)
Ni1 Ni 0.10954(4) 0.62048(2) 0.75172(2)
N3E N -0.0377(3) 0.67670(17) 0.73886(16)
S2E S -0.00659(8) 0.51843(6) 0.73249(6)
Ni1E Ni 0.60954(4) 0.62048(2) 0.74828(2)
C19 C 0.4615(7) 0.6535(3) 0.1590(3)
H11 H 0.5237 0.6692 0.1358
C20 C 0.4715(5) 0.6553(2) 0.21906(19)
H12 H 0.5393 0.673 0.2368
C21 C 0.3787(4) 0.63031(19) 0.25225(18)
C22 C 0.2771(4) 0.6051(2) 0.2250(2)
H13 H 0.2143 0.5881 0.2471
C23 C 0.2703(7) 0.6054(3) 0.1657(3)
H14 H 0.2024 0.5892 0.147
C24 C 0.3874(5) 0.6306(2) 0.3184(2)
N7 N 0.3619(6) 0.6292(2) 0.1342(2)
H15 H 0.3566 0.6289 0.0968
O5 O 0.3070(4) 0.6016(2) 0.34429(16)
O6 O 0.4773(4) 0.6593(2) 0.33823(15)
loop_
_geom_bond_atom_site_label_1
_geom_bond_atom_site_label_2
_geom_bond_site_symmetry_1
_geom_bond_site_symmetry_2
C1 C2 1_555 1_555
C2 N1 1_555 1_555
C3 C4 1_555 1_555
C4 N2 1_555 1_555
C5 N3 1_555 1_555
C6 N4 1_555 1_555
C7 H1 1_555 1_555
C8 C7 1_555 1_555
H2 C8 1_555 1_555
C9 C8 1_555 1_555
C10 C9 1_555 1_555
H3 C10 1_555 1_555
C11 C10 1_555 1_555
H4 C11 1_555 1_555
C12 C9 1_555 1_555
C13 H5 1_555 1_555
C14 C13 1_555 1_555
H6 C14 1_555 1_555
C15 C14 1_555 1_555
C16 C15 1_555 1_555
H7 C16 1_555 1_555
C17 C16 1_555 1_555
H8 C17 1_555 1_555
C18 C15 1_555 1_555
N3 Ni1E 1_555 1_555
N4 Ni1 1_555 1_555
N5 C7 1_555 1_555
N6 C13 1_555 1_555
O1 C12 1_555 1_555
H9 O1 1_555 1_555
O2 C12 1_555 1_555
O3 C18 1_555 1_555
H10 O3 1_555 1_555
O4 C18 1_555 1_555
S1 C5 1_555 1_555
S2 C6 1_555 1_555
Ni1 N5 1_555 1_555
C19 H11 1_555 1_555
C20 C19 1_555 1_555
H12 C20 1_555 1_555
C21 C20 1_555 1_555
C22 C21 1_555 1_555
H13 C22 1_555 1_555
C23 C22 1_555 1_555
H14 C23 1_555 1_555
C24 C21 1_555 1_555
N7 C19 1_555 1_555
H15 N7 1_555 1_555
O5 C24 1_555 1_555
O6 C24 1_555 1_555
N3E Ni1 1_555 1_555
S2E Ni1 1_555 1_555
Ni1E S2 1_555 1_555
C11 N5 1_555 1_555
C17 N6 1_555 1_555
N6 Ni1 1_555 1_555
S1 Ni1 1_555 1_555
C23 N7 1_555 1_555

#END
