
#######################################################################
#
#                 Cambridge Crystallographic Data Centre
#                                CCDC 
#
#######################################################################
#
# If this CIF has been generated from an entry in the Cambridge 
# Structural Database, then it will include bibliographic, chemical, 
# crystal, experimental, refinement or atomic coordinate data resulting 
# from the CCDC's data processing and validation procedures.
#
#######################################################################

data_PAPKEX
_symmetry_cell_setting           cubic
_symmetry_space_group_name_H-M   'F d -3'
_symmetry_Int_Tables_number      203
_space_group_name_Hall           '-F 2uv 2vw 3'
loop_
_symmetry_equiv_pos_site_id
_symmetry_equiv_pos_as_xyz
1 x,y,z
2 1/4-x,1/4-y,z
3 1/4-x,y,1/4-z
4 x,1/4-y,1/4-z
5 z,x,y
6 z,1/4-x,1/4-y
7 1/4-z,1/4-x,y
8 1/4-z,x,1/4-y
9 y,z,x
10 1/4-y,z,1/4-x
11 y,1/4-z,1/4-x
12 1/4-y,1/4-z,x
13 x,1/2+y,1/2+z
14 z,1/2+x,1/2+y
15 y,1/2+z,1/2+x
16 1/2+x,y,1/2+z
17 1/2+z,x,1/2+y
18 1/2+y,z,1/2+x
19 1/2+x,1/2+y,z
20 1/2+z,1/2+x,y
21 1/2+y,1/2+z,x
22 1/4-x,3/4-y,1/2+z
23 1/4-x,1/2+y,3/4-z
24 x,3/4-y,3/4-z
25 z,3/4-x,3/4-y
26 1/4-z,3/4-x,1/2+y
27 1/4-z,1/2+x,3/4-y
28 1/4-y,1/2+z,3/4-x
29 y,3/4-z,3/4-x
30 1/4-y,3/4-z,1/2+x
31 3/4-x,1/4-y,1/2+z
32 3/4-x,y,3/4-z
33 1/2+x,1/4-y,3/4-z
34 1/2+z,1/4-x,3/4-y
35 3/4-z,1/4-x,1/2+y
36 3/4-z,x,3/4-y
37 3/4-y,z,3/4-x
38 1/2+y,1/4-z,3/4-x
39 3/4-y,1/4-z,1/2+x
40 3/4-x,3/4-y,z
41 3/4-x,1/2+y,1/4-z
42 1/2+x,3/4-y,1/4-z
43 1/2+z,3/4-x,1/4-y
44 3/4-z,3/4-x,y
45 3/4-z,1/2+x,1/4-y
46 3/4-y,1/2+z,1/4-x
47 1/2+y,3/4-z,1/4-x
48 3/4-y,3/4-z,x
49 -x,-y,-z
50 3/4+x,3/4+y,-z
51 3/4+x,-y,3/4+z
52 -x,3/4+y,3/4+z
53 -z,-x,-y
54 -z,3/4+x,3/4+y
55 3/4+z,3/4+x,-y
56 3/4+z,-x,3/4+y
57 -y,-z,-x
58 3/4+y,-z,3/4+x
59 -y,3/4+z,3/4+x
60 3/4+y,3/4+z,-x
61 -x,1/2-y,1/2-z
62 -z,1/2-x,1/2-y
63 -y,1/2-z,1/2-x
64 1/2-x,-y,1/2-z
65 1/2-z,-x,1/2-y
66 1/2-y,-z,1/2-x
67 1/2-x,1/2-y,-z
68 1/2-z,1/2-x,-y
69 1/2-y,1/2-z,-x
70 3/4+x,1/4+y,1/2-z
71 3/4+x,1/2-y,1/4+z
72 -x,1/4+y,1/4+z
73 -z,1/4+x,1/4+y
74 3/4+z,1/4+x,1/2-y
75 3/4+z,1/2-x,1/4+y
76 3/4+y,1/2-z,1/4+x
77 -y,1/4+z,1/4+x
78 3/4+y,1/4+z,1/2-x
79 1/4+x,3/4+y,1/2-z
80 1/4+x,-y,1/4+z
81 1/2-x,3/4+y,1/4+z
82 1/2-z,3/4+x,1/4+y
83 1/4+z,3/4+x,1/2-y
84 1/4+z,-x,1/4+y
85 1/4+y,-z,1/4+x
86 1/2-y,3/4+z,1/4+x
87 1/4+y,3/4+z,1/2-x
88 1/4+x,1/4+y,-z
89 1/4+x,1/2-y,3/4+z
90 1/2-x,1/4+y,3/4+z
91 1/2-z,1/4+x,3/4+y
92 1/4+z,1/4+x,-y
93 1/4+z,1/2-x,3/4+y
94 1/4+y,1/2-z,3/4+x
95 1/2-y,1/4+z,3/4+x
96 1/4+y,1/4+z,-x
_cell_length_a                   25.7202(5)
_cell_length_b                   25.7202(5)
_cell_length_c                   25.7202(5)
_cell_angle_alpha                90
_cell_angle_beta                 90
_cell_angle_gamma                90
_cell_volume                     17014.7
loop_
_atom_site_label
_atom_site_type_symbol
_atom_site_fract_x
_atom_site_fract_y
_atom_site_fract_z
O4 O -0.059(5) 0.391(6) 0.361(6)
Co1 Co 0.0000 0.5000 0.0000
Co2 Co 0.07845(6) 0.57845(6) 0.07845(6)
O1 O 0.1250 0.6250 0.1250
O2 O 0.0640(3) 0.5192(3) 0.1239(3)
O3 O -0.0069(3) 0.5026(3) 0.0801(3)
N1 N 0.0047(4) 0.3183(4) 0.2976(4)
C1 C 0.0239(5) 0.4932(4) 0.1151(4)
C2 C 0.0099(4) 0.4494(4) 0.1526(4)
C3 C -0.0324(5) 0.4196(4) 0.1444(5)
H1 H -0.0530 0.4258 0.1154
C4 C -0.0458(5) 0.3800(5) 0.1785(5)
H2 H -0.0753 0.3601 0.1722
C5 C -0.0155(4) 0.3700(5) 0.2214(4)
C6 C 0.0279(5) 0.4006(5) 0.2294(5)
H3 H 0.0487 0.3949 0.2584
C7 C 0.0407(5) 0.4393(4) 0.1952(4)
H4 H 0.0706 0.4590 0.2007
C8 C -0.0275(5) 0.3266(5) 0.2562(5)
Co1I Co -0.2500 0.0000 0.2500
Co1F Co 0.2500 0.2500 0.5000
Co1F_2 Co 0.2500 0.2500 -0.5000
Co1CC Co 0.5000 0.7500 -0.2500
Co1CC_2 Co -0.5000 0.7500 -0.2500
Co1I_2 Co -0.2500 1.0000 0.2500
Co1G Co 0.2500 1.0000 -0.2500
Co1QB Co -0.2500 0.7500 -0.5000
Co2I Co -0.32845(6) 0.07845(6) 0.17155(6)
Co2F Co 0.17155(6) 0.17155(6) 0.57845(6)
Co2F_2 Co 0.17155(6) 0.17155(6) -0.42155(6)
Co2A Co 0.17155(6) 0.67155(6) 0.07845(6)
Co2B Co 0.17155(6) 0.57845(6) 0.17155(6)
Co2C Co 0.07845(6) 0.67155(6) 0.17155(6)
Co2BA Co 0.57845(6) 0.67155(6) -0.32845(6)
Co2BA_2 Co -0.42155(6) 0.67155(6) -0.32845(6)
Co2I_2 Co -0.32845(6) 1.07845(6) 0.17155(6)
Co2VA Co -0.07845(6) 0.42155(6) -0.07845(6)
Co2EC Co 0.32845(6) 0.92155(6) -0.17155(6)
Co2QB Co -0.17155(6) 0.82845(6) -0.57845(6)
O1H O -0.3750 0.1250 0.1250
O1D O 0.1250 0.1250 0.6250
O1D_2 O 0.1250 0.1250 -0.3750
O2I O -0.2692(3) 0.1239(3) 0.1860(3)
O2F O 0.1261(3) 0.1860(3) 0.5192(3)
O2M O 0.1239(3) 0.5640(3) 0.0192(3)
O2U O 0.1860(3) 0.2308(3) -0.3761(3)
O2BA O 0.5192(3) 0.6261(3) -0.3140(3)
O2T O 0.0192(3) 0.6239(3) 0.0640(3)
O2PA O -0.3761(3) 0.6860(3) -0.2692(3)
O2NA O -0.3140(3) 1.0192(3) 0.1261(3)
O2VA O -0.0640(3) 0.4808(3) -0.1239(3)
O2EB O 0.2692(3) 0.8761(3) -0.1860(3)
O2BB O -0.1261(3) 0.8140(3) -0.5192(3)
O2IA O -0.3739(3) 0.0640(3) 0.2308(3)
O2NA_2 O -0.3140(3) 0.0192(3) 0.1261(3)
O2U_2 O 0.1860(3) 0.2308(3) 0.6239(3)
O2LA O 0.2308(3) 0.1261(3) 0.5640(3)
O2F_2 O 0.1261(3) 0.1860(3) -0.4808(3)
O2LA_2 O 0.2308(3) 0.1261(3) -0.4360(3)
O3I O -0.2526(3) 0.0801(3) 0.2569(3)
O3F O 0.1699(3) 0.2569(3) 0.5026(3)
O3M O 0.0801(3) 0.4931(3) 0.0026(3)
O3U O 0.2569(3) 0.2474(3) -0.4199(3)
O3BA O 0.5026(3) 0.6699(3) -0.2431(3)
O3T O 0.0026(3) 0.5801(3) -0.0069(3)
O3PA O -0.4199(3) 0.7569(3) -0.2526(3)
O3NA O -0.2431(3) 1.0026(3) 0.1699(3)
O3VA O 0.0069(3) 0.4974(3) -0.0801(3)
O3EB O 0.2526(3) 0.9199(3) -0.2569(3)
O3BB O -0.1699(3) 0.7431(3) -0.5026(3)
O3IB O -0.0801(3) 0.5069(3) -0.0026(3)
O3PB O -0.0026(3) 0.4199(3) 0.0069(3)
O3RB O -0.2569(3) -0.0026(3) 0.3301(3)
O3FC O -0.2474(3) -0.0801(3) 0.2431(3)
O3CB O -0.1699(3) 0.0069(3) 0.2526(3)
O3IA O -0.3301(3) -0.0069(3) 0.2474(3)
O3NA_2 O -0.2431(3) 0.0026(3) 0.1699(3)
N1F N -0.0476(4) 0.2453(4) 0.3183(4)
N1I N -0.0683(4) 0.2976(4) 0.2453(4)
N1M N 0.2976(4) 0.5047(4) -0.1817(4)
N1BA N 0.3183(4) 0.4524(4) -0.2547(4)
N1U N 0.2453(4) 0.4317(4) -0.2024(4)
N1T N -0.1817(4) 0.7976(4) 0.0047(4)
N1NA N -0.2547(4) 0.8183(4) -0.0476(4)
N1PA N -0.2024(4) 0.7453(4) -0.0683(4)
N1VA N -0.0047(4) 0.6817(4) -0.2976(4)
N1BB N 0.0476(4) 0.7547(4) -0.3183(4)
N1EB N 0.0683(4) 0.7024(4) -0.2453(4)
C1I C -0.2432(4) 0.1151(4) 0.2261(5)
C1F C 0.1349(4) 0.2261(5) 0.4932(4)
C1M C 0.1151(4) 0.5239(5) -0.0068(4)
C1U C 0.2261(5) 0.2568(4) -0.3849(4)
C1BA C 0.4932(4) 0.6349(4) -0.2739(5)
C1T C -0.0068(4) 0.6151(4) 0.0239(5)
C1PA C -0.3849(4) 0.7261(5) -0.2432(4)
C1NA C -0.2739(5) 0.9932(4) 0.1349(4)
C1VA C -0.0239(5) 0.5068(4) -0.1151(4)
C1EB C 0.2432(4) 0.8849(4) -0.2261(5)
C1BB C -0.1349(4) 0.7739(5) -0.4932(4)
C2I C -0.1994(4) 0.1526(4) 0.2401(4)
C2F C 0.0974(4) 0.2401(4) 0.4494(4)
C2M C 0.1526(4) 0.5099(4) -0.0506(4)
C2U C 0.2401(4) 0.3006(4) -0.3474(4)
C2BA C 0.4494(4) 0.5974(4) -0.2599(4)
C2T C -0.0506(4) 0.6526(4) 0.0099(4)
C2PA C -0.3474(4) 0.7401(4) -0.1994(4)
C2NA C -0.2599(4) 0.9494(4) 0.0974(4)
C2VA C -0.0099(4) 0.5506(4) -0.1526(4)
C2EB C 0.1994(4) 0.8474(4) -0.2401(4)
C2BB C -0.0974(4) 0.7599(4) -0.4494(4)
C3I C -0.1696(4) 0.1444(5) 0.2824(5)
C3F C 0.1056(5) 0.2824(5) 0.4196(4)
C3M C 0.1444(5) 0.4676(5) -0.0804(4)
C3U C 0.2824(5) 0.3304(4) -0.3556(5)
C3BA C 0.4196(4) 0.6056(5) -0.2176(5)
C3T C -0.0804(4) 0.6444(5) -0.0324(5)
C3PA C -0.3556(5) 0.7824(5) -0.1696(4)
C3NA C -0.2176(5) 0.9196(4) 0.1056(5)
C3VA C 0.0324(5) 0.5804(4) -0.1444(5)
C3EB C 0.1696(4) 0.8556(5) -0.2824(5)
C3BB C -0.1056(5) 0.7176(5) -0.4196(4)
H1I H -0.1758 0.1154 0.3030
H1F H 0.1346 0.3030 0.4258
H1M H 0.1154 0.4470 -0.0742
H1U H 0.3030 0.3242 -0.3846
H1BA H 0.4258 0.6346 -0.1970
H1T H -0.0742 0.6154 -0.0530
H1PA H -0.3846 0.8030 -0.1758
H1NA H -0.1970 0.9258 0.1346
H1VA H 0.0530 0.5742 -0.1154
H1EB H 0.1758 0.8846 -0.3030
H1BB H -0.1346 0.6970 -0.4258
C4I C -0.1300(5) 0.1785(5) 0.2958(5)
C4F C 0.0715(5) 0.2958(5) 0.3800(5)
C4M C 0.1785(5) 0.4542(5) -0.1200(5)
C4U C 0.2958(5) 0.3700(5) -0.3215(5)
C4BA C 0.3800(5) 0.5715(5) -0.2042(5)
C4T C -0.1200(5) 0.6785(5) -0.0458(5)
C4PA C -0.3215(5) 0.7958(5) -0.1300(5)
C4NA C -0.2042(5) 0.8800(5) 0.0715(5)
C4VA C 0.0458(5) 0.6200(5) -0.1785(5)
C4EB C 0.1300(5) 0.8215(5) -0.2958(5)
C4BB C -0.0715(5) 0.7042(5) -0.3800(5)
H2I H -0.1101 0.1722 0.3253
H2F H 0.0778 0.3253 0.3601
H2M H 0.1722 0.4247 -0.1399
H2U H 0.3253 0.3899 -0.3278
H2BA H 0.3601 0.5778 -0.1747
H2T H -0.1399 0.6722 -0.0753
H2PA H -0.3278 0.8253 -0.1101
H2NA H -0.1747 0.8601 0.0778
H2VA H 0.0753 0.6399 -0.1722
H2EB H 0.1101 0.8278 -0.3253
H2BB H -0.0778 0.6747 -0.3601
C5I C -0.1200(5) 0.2214(4) 0.2655(4)
C5F C 0.0286(4) 0.2655(4) 0.3700(5)
C5M C 0.2214(4) 0.4845(4) -0.1300(5)
C5U C 0.2655(4) 0.3800(5) -0.2786(4)
C5BA C 0.3700(5) 0.5286(4) -0.2345(4)
C5T C -0.1300(5) 0.7214(4) -0.0155(4)
C5PA C -0.2786(4) 0.7655(4) -0.1200(5)
C5NA C -0.2345(4) 0.8700(5) 0.0286(4)
C5VA C 0.0155(4) 0.6300(5) -0.2214(4)
C5EB C 0.1200(5) 0.7786(4) -0.2655(4)
C5BB C -0.0286(4) 0.7345(4) -0.3700(5)
C6I C -0.1506(5) 0.2294(5) 0.2221(5)
C6F C 0.0206(5) 0.2221(5) 0.4006(5)
C6M C 0.2294(5) 0.5279(5) -0.0994(5)
C6U C 0.2221(5) 0.3494(5) -0.2706(5)
C6BA C 0.4006(5) 0.5206(5) -0.2779(5)
C6T C -0.0994(5) 0.7294(5) 0.0279(5)
C6PA C -0.2706(5) 0.7221(5) -0.1506(5)
C6NA C -0.2779(5) 0.9006(5) 0.0206(5)
C6VA C -0.0279(5) 0.5994(5) -0.2294(5)
C6EB C 0.1506(5) 0.7706(5) -0.2221(5)
C6BB C -0.0206(5) 0.7779(5) -0.4006(5)
H3I H -0.1449 0.2584 0.2013
H3F H -0.0084 0.2013 0.3949
H3M H 0.2584 0.5487 -0.1051
H3U H 0.2013 0.3551 -0.2416
H3BA H 0.3949 0.4916 -0.2987
H3T H -0.1051 0.7584 0.0487
H3PA H -0.2416 0.7013 -0.1449
H3NA H -0.2987 0.8949 -0.0084
H3VA H -0.0487 0.6051 -0.2584
H3EB H 0.1449 0.7416 -0.2013
H3BB H 0.0084 0.7987 -0.3949
C7I C -0.1893(4) 0.1952(4) 0.2093(5)
C7F C 0.0548(4) 0.2093(5) 0.4393(4)
C7M C 0.1952(4) 0.5407(5) -0.0607(4)
C7U C 0.2093(5) 0.3107(4) -0.3048(4)
C7BA C 0.4393(4) 0.5548(4) -0.2907(5)
C7T C -0.0607(4) 0.6952(4) 0.0407(5)
C7PA C -0.3048(4) 0.7093(5) -0.1893(4)
C7NA C -0.2907(5) 0.9393(4) 0.0548(4)
C7VA C -0.0407(5) 0.5607(4) -0.1952(4)
C7EB C 0.1893(4) 0.8048(4) -0.2093(5)
C7BB C -0.0548(4) 0.7907(5) -0.4393(4)
H4I H -0.2090 0.2007 0.1794
H4F H 0.0493 0.1794 0.4590
H4M H 0.2007 0.5706 -0.0410
H4U H 0.1794 0.2910 -0.2993
H4BA H 0.4590 0.5493 -0.3206
H4T H -0.0410 0.7007 0.0706
H4PA H -0.2993 0.6794 -0.2090
H4NA H -0.3206 0.9590 0.0493
H4VA H -0.0706 0.5410 -0.2007
H4EB H 0.2090 0.7993 -0.1794
H4BB H -0.0493 0.8206 -0.4590
C8F C -0.0062(5) 0.2775(5) 0.3266(5)
C8I C -0.0766(5) 0.2562(5) 0.2775(5)
C8M C 0.2562(5) 0.4725(5) -0.1734(5)
C8BA C 0.3266(5) 0.4938(5) -0.2225(5)
C8U C 0.2775(5) 0.4234(5) -0.2438(5)
C8T C -0.1734(5) 0.7562(5) -0.0275(5)
C8NA C -0.2225(5) 0.8266(5) -0.0062(5)
C8PA C -0.2438(5) 0.7775(5) -0.0766(5)
C8VA C 0.0275(5) 0.6734(5) -0.2562(5)
C8BB C 0.0062(5) 0.7225(5) -0.3266(5)
C8EB C 0.0766(5) 0.7438(5) -0.2775(5)
loop_
_geom_bond_atom_site_label_1
_geom_bond_atom_site_label_2
_geom_bond_site_symmetry_1
_geom_bond_site_symmetry_2
Co1 O3 1_555 1_555
Co2 O1 1_555 1_555
O1 Co2A 1_555 1_555
O2 Co2 1_555 1_555
O3 C1 1_555 1_555
N1 C8 1_555 1_555
C1 O2 1_555 1_555
C2 C1 1_555 1_555
C3 C2 1_555 1_555
H1 C3 1_555 1_555
C4 C3 1_555 1_555
H2 C4 1_555 1_555
C5 C4 1_555 1_555
C6 C5 1_555 1_555
H3 C6 1_555 1_555
C7 C2 1_555 1_555
H4 C7 1_555 1_555
C8 C5 1_555 1_555
Co1I O3I 1_555 1_555
Co1F O3F 1_555 1_555
Co1F_2 O3U 1_555 1_555
Co1CC O3BA 1_555 1_555
Co1CC_2 O3PA 1_555 1_555
Co1I_2 O3NA 1_555 1_555
Co1G O3EB 1_555 1_555
Co1QB O3BB 1_555 1_555
Co2I O1H 1_555 1_555
Co2F O1D 1_555 1_555
Co2F_2 O1D_2 1_555 1_555
Co2B O1 1_555 1_555
Co2C O1 1_555 1_555
Co2BA O2BA 1_555 1_555
Co2BA_2 O2PA 1_555 1_555
Co2I_2 O2NA 1_555 1_555
Co2VA O2VA 1_555 1_555
Co2EC O2EB 1_555 1_555
Co2QB O2BB 1_555 1_555
O2I Co2I 1_555 1_555
O2F Co2F 1_555 1_555
O2M Co2 1_555 1_555
O2U Co2F_2 1_555 1_555
O2BA C1BA 1_555 1_555
O2T Co2 1_555 1_555
O2PA C1PA 1_555 1_555
O2NA C1NA 1_555 1_555
O2VA C1VA 1_555 1_555
O2EB C1EB 1_555 1_555
O2BB C1BB 1_555 1_555
O2IA Co2I 1_555 1_555
O2NA_2 Co2I 1_555 1_555
O2U_2 Co2F 1_555 1_555
O2LA Co2F 1_555 1_555
O2F_2 Co2F_2 1_555 1_555
O2LA_2 Co2F_2 1_555 1_555
O3I C1I 1_555 1_555
O3F C1F 1_555 1_555
O3M Co1 1_555 1_555
O3U C1U 1_555 1_555
O3BA C1BA 1_555 1_555
O3T Co1 1_555 1_555
O3PA C1PA 1_555 1_555
O3NA C1NA 1_555 1_555
O3VA Co1 1_555 1_555
O3EB C1EB 1_555 1_555
O3BB C1BB 1_555 1_555
O3IB Co1 1_555 1_555
O3PB Co1 1_555 1_555
O3RB Co1I 1_555 1_555
O3FC Co1I 1_555 1_555
O3CB Co1I 1_555 1_555
O3IA Co1I 1_555 1_555
O3NA_2 Co1I 1_555 1_555
N1F C8F 1_555 1_555
N1I C8 1_555 1_555
N1M C8M 1_555 1_555
N1BA C8BA 1_555 1_555
N1U C8M 1_555 1_555
N1T C8T 1_555 1_555
N1NA C8NA 1_555 1_555
N1PA C8T 1_555 1_555
N1VA C8VA 1_555 1_555
N1BB C8BB 1_555 1_555
N1EB C8VA 1_555 1_555
C1I O2I 1_555 1_555
C1F O2F 1_555 1_555
C1M O2M 1_555 1_555
C1U O2U 1_555 1_555
C1BA C2BA 1_555 1_555
C1T O2T 1_555 1_555
C1PA C2PA 1_555 1_555
C1NA C2NA 1_555 1_555
C1VA O3VA 1_555 1_555
C1EB C2EB 1_555 1_555
C1BB C2BB 1_555 1_555
C2I C1I 1_555 1_555
C2F C1F 1_555 1_555
C2M C1M 1_555 1_555
C2U C1U 1_555 1_555
C2BA C3BA 1_555 1_555
C2T C1T 1_555 1_555
C2PA C3PA 1_555 1_555
C2NA C3NA 1_555 1_555
C2VA C1VA 1_555 1_555
C2EB C3EB 1_555 1_555
C2BB C3BB 1_555 1_555
C3I C2I 1_555 1_555
C3F C2F 1_555 1_555
C3M C2M 1_555 1_555
C3U C2U 1_555 1_555
C3BA H1BA 1_555 1_555
C3T C2T 1_555 1_555
C3PA H1PA 1_555 1_555
C3NA H1NA 1_555 1_555
C3VA C2VA 1_555 1_555
C3EB H1EB 1_555 1_555
C3BB H1BB 1_555 1_555
H1I C3I 1_555 1_555
H1F C3F 1_555 1_555
H1M C3M 1_555 1_555
H1U C3U 1_555 1_555
H1T C3T 1_555 1_555
H1VA C3VA 1_555 1_555
C4I C3I 1_555 1_555
C4F C3F 1_555 1_555
C4M C3M 1_555 1_555
C4U C3U 1_555 1_555
C4BA C3BA 1_555 1_555
C4T C3T 1_555 1_555
C4PA C3PA 1_555 1_555
C4NA C3NA 1_555 1_555
C4VA C3VA 1_555 1_555
C4EB C3EB 1_555 1_555
C4BB C3BB 1_555 1_555
H2I C4I 1_555 1_555
H2F C4F 1_555 1_555
H2M C4M 1_555 1_555
H2U C4U 1_555 1_555
H2BA C4BA 1_555 1_555
H2T C4T 1_555 1_555
H2PA C4PA 1_555 1_555
H2NA C4NA 1_555 1_555
H2VA C4VA 1_555 1_555
H2EB C4EB 1_555 1_555
H2BB C4BB 1_555 1_555
C5I C4I 1_555 1_555
C5F C4F 1_555 1_555
C5M C4M 1_555 1_555
C5U C4U 1_555 1_555
C5BA C4BA 1_555 1_555
C5T C4T 1_555 1_555
C5PA C4PA 1_555 1_555
C5NA C4NA 1_555 1_555
C5VA C4VA 1_555 1_555
C5EB C4EB 1_555 1_555
C5BB C4BB 1_555 1_555
C6I C5I 1_555 1_555
C6F C5F 1_555 1_555
C6M C5M 1_555 1_555
C6U C5U 1_555 1_555
C6BA C5BA 1_555 1_555
C6T C5T 1_555 1_555
C6PA C5PA 1_555 1_555
C6NA C5NA 1_555 1_555
C6VA C5VA 1_555 1_555
C6EB C5EB 1_555 1_555
C6BB C5BB 1_555 1_555
H3I C6I 1_555 1_555
H3F C6F 1_555 1_555
H3M C6M 1_555 1_555
H3U C6U 1_555 1_555
H3BA C6BA 1_555 1_555
H3T C6T 1_555 1_555
H3PA C6PA 1_555 1_555
H3NA C6NA 1_555 1_555
H3VA C6VA 1_555 1_555
H3EB C6EB 1_555 1_555
H3BB C6BB 1_555 1_555
C7I C2I 1_555 1_555
C7F C2F 1_555 1_555
C7M C2M 1_555 1_555
C7U C2U 1_555 1_555
C7BA C2BA 1_555 1_555
C7T C2T 1_555 1_555
C7PA C2PA 1_555 1_555
C7NA C2NA 1_555 1_555
C7VA C2VA 1_555 1_555
C7EB C2EB 1_555 1_555
C7BB C2BB 1_555 1_555
H4I C7I 1_555 1_555
H4F C7F 1_555 1_555
H4M C7M 1_555 1_555
H4U C7U 1_555 1_555
H4BA C7BA 1_555 1_555
H4T C7T 1_555 1_555
H4PA C7PA 1_555 1_555
H4NA C7NA 1_555 1_555
H4VA C7VA 1_555 1_555
H4EB C7EB 1_555 1_555
H4BB C7BB 1_555 1_555
C8F N1 1_555 1_555
C8I N1F 1_555 1_555
C8M C5M 1_555 1_555
C8BA N1M 1_555 1_555
C8U N1BA 1_555 1_555
C8T C5T 1_555 1_555
C8NA N1T 1_555 1_555
C8PA N1NA 1_555 1_555
C8VA C5VA 1_555 1_555
C8BB N1VA 1_555 1_555
C8EB N1BB 1_555 1_555
C6 C7 1_555 1_555
O3M C1M 1_555 1_555
O3T C1T 1_555 1_555
N1I C8I 1_555 1_555
N1U C8U 1_555 1_555
N1PA C8PA 1_555 1_555
N1EB C8EB 1_555 1_555
C5I C8I 1_555 1_555
C5F C8F 1_555 1_555
C5U C8U 1_555 1_555
C5BA C8BA 1_555 1_555
C5PA C8PA 1_555 1_555
C5NA C8NA 1_555 1_555
C5EB C8EB 1_555 1_555
C5BB C8BB 1_555 1_555
C6I C7I 1_555 1_555
C6F C7F 1_555 1_555
C6M C7M 1_555 1_555
C6U C7U 1_555 1_555
C6BA C7BA 1_555 1_555
C6T C7T 1_555 1_555
C6PA C7PA 1_555 1_555
C6NA C7NA 1_555 1_555
C6VA C7VA 1_555 1_555
C6EB C7EB 1_555 1_555
C6BB C7BB 1_555 1_555

#END
