
#######################################################################
#
#                 Cambridge Crystallographic Data Centre
#                                CCDC 
#
#######################################################################
#
# If this CIF has been generated from an entry in the Cambridge 
# Structural Database, then it will include bibliographic, chemical, 
# crystal, experimental, refinement or atomic coordinate data resulting 
# from the CCDC's data processing and validation procedures.
#
#######################################################################

data_PAPKUO
_symmetry_cell_setting           triclinic
_symmetry_space_group_name_H-M   'P -1'
_symmetry_Int_Tables_number      2
_space_group_name_Hall           '-P 1'
loop_
_symmetry_equiv_pos_site_id
_symmetry_equiv_pos_as_xyz
1 x,y,z
2 -x,-y,-z
_cell_length_a                   7.967(3)
_cell_length_b                   10.714(4)
_cell_length_c                   25.047(7)
_cell_angle_alpha                90.457(12)
_cell_angle_beta                 47.347(15)
_cell_angle_gamma                104.474(13)
_cell_volume                     1482.9
loop_
_atom_site_label
_atom_site_type_symbol
_atom_site_fract_x
_atom_site_fract_y
_atom_site_fract_z
C25 C 0.445(2) 0.489(2) 0.3658(9)
C26 C 0.308(3) 0.5490(17) 0.4216(9)
H15 H 0.2137 0.5907 0.423
C27 C 0.309(4) 0.549(3) 0.4773(12)
H16 H 0.2074 0.5863 0.5182
C28 C 0.459(3) 0.4935(19) 0.4737(10)
C29 C 0.609(2) 0.4384(11) 0.4109(6)
H17 H 0.7162 0.4031 0.4056
C30 C 0.599(2) 0.4358(13) 0.3589(8)
H18 H 0.6982 0.3977 0.3178
Br1 Br 0.4414(5) 0.4874(3) 0.28944(18)
C31 C 0.524(3) 0.498(2) 0.3591(10)
C32 C 0.329(3) 0.5140(18) 0.4311(10)
H19 H 0.1907 0.521 0.4433
C33 C 0.344(4) 0.519(3) 0.4820(11)
H20 H 0.2169 0.5347 0.5289
C34 C 0.468(3) 0.4969(19) 0.5309(11)
C35 C 0.7207(19) 0.4855(9) 0.3998(6)
H21 H 0.8565 0.4767 0.3888
C36 C 0.712(2) 0.4805(12) 0.3453(7)
H22 H 0.8398 0.4649 0.2985
Br2 Br 0.5046(6) 0.4929(3) 0.2892(2)
C25A C 0.555(2) 0.511(2) 0.6342(9)
C26A C 0.692(3) 0.4510(17) 0.5784(9)
H15A H 0.7863 0.4093 0.577
C27A C 0.691(4) 0.451(3) 0.5227(12)
H16A H 0.7926 0.4137 0.4818
C28A C 0.541(3) 0.5065(19) 0.5263(10)
C29A C 0.391(2) 0.5616(11) 0.5891(6)
H17A H 0.2838 0.5969 0.5944
C30A C 0.401(2) 0.5642(13) 0.6411(8)
H18A H 0.3018 0.6023 0.6822
Br1A Br 0.5586(5) 0.5126(3) 0.71056(18)
C31A C 0.476(3) 0.502(2) 0.6409(10)
C32A C 0.671(3) 0.4860(18) 0.5689(10)
H19A H 0.8093 0.479 0.5567
C33A C 0.656(4) 0.481(3) 0.5180(11)
H20A H 0.7831 0.4653 0.4711
C34A C 0.532(3) 0.5031(19) 0.4691(11)
C35A C 0.2793(19) 0.5145(9) 0.6002(6)
H21A H 0.1435 0.5233 0.6112
C36A C 0.288(2) 0.5195(12) 0.6547(7)
H22A H 0.1602 0.5351 0.7015
Br2A Br 0.4954(6) 0.5071(3) 0.7108(2)
C1 C -0.2837(6) 0.4447(3) 0.05909(18)
C2 C 0.2865(6) 0.0593(3) -0.06176(18)
C3 C -0.2298(8) 0.2072(6) 0.1349(2)
H1 H -0.3729 0.1986 0.1461
C4 C -0.2511(8) 0.1871(6) 0.1941(2)
H2 H -0.4056 0.1625 0.2438
C5 C -0.0481(7) 0.2028(4) 0.1805(2)
C6 C 0.1689(7) 0.2354(4) 0.1059(2)
H3 H 0.3152 0.2461 0.0931
C7 C 0.1738(7) 0.2524(4) 0.0504(2)
H4 H 0.3257 0.2761 0.000
C8 C -0.0607(7) 0.1847(4) 0.2418(2)
C9 C -0.2730(7) 0.1590(5) 0.3154(2)
H5 H -0.4183 0.1497 0.3278
C10 C -0.2803(7) 0.1464(5) 0.3721(2)
H6 H -0.4292 0.1296 0.4226
C11 C -0.0739(7) 0.1580(4) 0.3555(2)
C12 C -0.0730(7) 0.1496(4) 0.4143(2)
C13 C -0.1082(7) 0.3144(4) -0.1166(2)
H7 H -0.1723 0.3742 -0.0851
C14 C -0.1221(8) 0.3056(4) -0.1683(2)
H8 H -0.1983 0.3569 -0.1712
C15 C -0.0246(7) 0.2217(4) -0.2163(2)
C16 C 0.0814(7) 0.1487(4) -0.2084(2)
H9 H 0.1527 0.0908 -0.2404
C17 C 0.0829(7) 0.1602(4) -0.1541(2)
H10 H 0.1522 0.1071 -0.1488
C18 C -0.0333(7) 0.2089(4) -0.2735(2)
C19 C -0.2295(8) 0.2202(5) -0.2599(2)
H11 H -0.3569 0.2394 -0.2145
C20 C -0.2369(7) 0.2032(5) -0.3132(2)
H12 H -0.3726 0.2079 -0.3035
C21 C -0.0471(7) 0.1795(4) -0.3809(2)
C22 C 0.1512(7) 0.1715(4) -0.3954(2)
H13 H 0.2821 0.1568 -0.4419
C23 C 0.1568(7) 0.1850(4) -0.3416(2)
H14 H 0.291 0.1781 -0.351
C24 C -0.0593(7) 0.1623(4) -0.4369(2)
N1 N -0.2195(5) 0.3651(3) 0.02479(16)
N2 N 0.2122(5) 0.1328(3) -0.06779(16)
N3 N -0.0232(6) 0.2375(3) 0.06371(17)
N4 N -0.0073(5) 0.2417(3) -0.10838(16)
O1 O -0.2704(5) 0.1442(3) 0.48071(15)
H23 H -0.253 0.1383 0.51
O2 O 0.1141(5) 0.1475(3) 0.39755(15)
O3 O -0.2477(6) 0.1605(4) -0.42037(16)
O4 O 0.1266(5) 0.1494(3) -0.50026(15)
H24 H 0.0978 0.1357 -0.5268
S1 S -0.37761(17) 0.55625(9) 0.10910(5)
S2 S 0.38775(17) -0.04446(9) -0.05091(6)
Ni1 Ni -0.00985(9) 0.24520(4) -0.02413(2)
C37 C 0.1379(9) 0.1814(8) 0.2814(3)
H25 H 0.2828 0.1884 0.2689
C38 C 0.1445(9) 0.1945(8) 0.2263(3)
H26 H 0.2937 0.2107 0.176
C1A C 0.2837(6) 0.5553(3) -0.05909(18)
C2A C -0.2865(6) -0.0593(3) 0.06176(18)
C3A C 0.2298(8) 0.7928(6) -0.1349(2)
H1A H 0.3729 0.8014 -0.1461
C4A C 0.2511(8) 0.8129(6) -0.1941(2)
H2A H 0.4056 0.8375 -0.2438
C5A C 0.0481(7) 0.7972(4) -0.1805(2)
C6A C -0.1689(7) 0.7646(4) -0.1059(2)
H3A H -0.3152 0.7539 -0.0931
C7A C -0.1738(7) 0.7476(4) -0.0504(2)
H4A H -0.3257 0.7239 0.000
C8A C 0.0607(7) 0.8153(4) -0.2418(2)
C9A C 0.2730(7) 0.8410(5) -0.3154(2)
H5A H 0.4183 0.8503 -0.3278
C10A C 0.2803(7) 0.8536(5) -0.3721(2)
H6A H 0.4292 0.8704 -0.4226
C11A C 0.0739(7) 0.8420(4) -0.3555(2)
C12A C 0.0730(7) 0.8504(4) -0.4143(2)
C13A C 0.1082(7) 0.6856(4) 0.1166(2)
H7A H 0.1723 0.6258 0.0851
C14A C 0.1221(8) 0.6944(4) 0.1683(2)
H8A H 0.1983 0.6431 0.1712
C15A C 0.0246(7) 0.7783(4) 0.2163(2)
C16A C -0.0814(7) 0.8513(4) 0.2084(2)
H9A H -0.1527 0.9092 0.2404
C17A C -0.0829(7) 0.8398(4) 0.1541(2)
H10A H -0.1522 0.8929 0.1488
C18A C 0.0333(7) 0.7911(4) 0.2735(2)
C19A C 0.2295(8) 0.7798(5) 0.2599(2)
H11A H 0.3569 0.7606 0.2145
C20A C 0.2369(7) 0.7968(5) 0.3132(2)
H12A H 0.3726 0.7921 0.3035
C21A C 0.0471(7) 0.8205(4) 0.3809(2)
C22A C -0.1512(7) 0.8285(4) 0.3954(2)
H13A H -0.2821 0.8432 0.4419
C23A C -0.1568(7) 0.8150(4) 0.3416(2)
H14A H -0.291 0.8219 0.351
C24A C 0.0593(7) 0.8377(4) 0.4369(2)
N1A N 0.2195(5) 0.6349(3) -0.02479(16)
N2A N -0.2122(5) -0.1328(3) 0.06779(16)
N2A_2 N -0.2122(5) 0.8672(3) 0.06779(16)
N3A N 0.0232(6) 0.7625(3) -0.06371(17)
N4A N 0.0073(5) 0.7583(3) 0.10838(16)
O1A O 0.2704(5) 0.8558(3) -0.48071(15)
H23A H 0.253 0.8617 -0.51
O2A O -0.1141(5) 0.8525(3) -0.39755(15)
O3A O 0.2477(6) 0.8395(4) 0.42037(16)
O4A O -0.1266(5) 0.8506(3) 0.50026(15)
H24A H -0.0978 0.8643 0.5268
S1A S 0.37761(17) 0.44375(9) -0.10910(5)
S2A S -0.38775(17) 0.04446(9) 0.05091(6)
S2_2 S 0.38775(17) 0.95554(9) -0.05091(6)
Ni1A Ni 0.00985(9) 0.75480(4) 0.02413(2)
Ni1A_2 Ni 0.00985(9) -0.24520(4) 0.02413(2)
C37A C -0.1379(9) 0.8186(8) -0.2814(3)
H25A H -0.2828 0.8116 -0.2689
C38A C -0.1445(9) 0.8055(8) -0.2263(3)
H26A H -0.2937 0.7893 -0.176
loop_
_geom_bond_atom_site_label_1
_geom_bond_atom_site_label_2
_geom_bond_site_symmetry_1
_geom_bond_site_symmetry_2
C1 N1 1_555 1_555
C2 N2 1_555 1_555
C3 H1 1_555 1_555
C4 C3 1_555 1_555
H2 C4 1_555 1_555
C5 C4 1_555 1_555
C6 C5 1_555 1_555
H3 C6 1_555 1_555
C7 C6 1_555 1_555
H4 C7 1_555 1_555
C8 C5 1_555 1_555
C9 C8 1_555 1_555
H5 C9 1_555 1_555
C10 C9 1_555 1_555
H6 C10 1_555 1_555
C11 C10 1_555 1_555
C12 C11 1_555 1_555
C13 H7 1_555 1_555
C14 C13 1_555 1_555
H8 C14 1_555 1_555
C15 C14 1_555 1_555
C16 C15 1_555 1_555
H9 C16 1_555 1_555
C17 C16 1_555 1_555
H10 C17 1_555 1_555
C18 C15 1_555 1_555
C19 C18 1_555 1_555
H11 C19 1_555 1_555
C20 C19 1_555 1_555
H12 C20 1_555 1_555
C21 C20 1_555 1_555
C22 C21 1_555 1_555
H13 C22 1_555 1_555
C23 C18 1_555 1_555
H14 C23 1_555 1_555
C24 C21 1_555 1_555
C25 C26 1_555 1_555
C26 H15 1_555 1_555
H15 H19 1_555 1_555
C27 C26 1_555 1_555
H16 C27 1_555 1_555
C28 C27 1_555 1_555
C29 C28 1_555 1_555
H17 C29 1_555 1_555
C30 C25 1_555 1_555
H18 C30 1_555 1_555
Br1 C25 1_555 1_555
C31 C25 1_555 1_555
C32 C25 1_555 1_555
H19 C26 1_555 1_555
C33 C27 1_555 1_555
H20 C27 1_555 1_555
C34 C28 1_555 1_555
C35 C28 1_555 1_555
H21 C35 1_555 1_555
C36 C29 1_555 1_555
H22 C36 1_555 1_555
Br2 C25 1_555 1_555
N1 Ni1 1_555 1_555
N2 Ni1 1_555 1_555
N3 C3 1_555 1_555
N4 C13 1_555 1_555
O1 C12 1_555 1_555
H23 O1 1_555 1_555
O2 C12 1_555 1_555
O3 C24 1_555 1_555
O4 C24 1_555 1_555
H24 O4 1_555 1_555
S1 C1 1_555 1_555
S2 C2 1_555 1_555
Ni1 N3 1_555 1_555
C37 C11 1_555 1_555
H25 C37 1_555 1_555
C38 C8 1_555 1_555
H26 C38 1_555 1_555
C1A N1A 1_555 1_555
C2A N2A 1_555 1_555
C3A H1A 1_555 1_555
C4A C3A 1_555 1_555
H2A C4A 1_555 1_555
C5A C4A 1_555 1_555
C6A C5A 1_555 1_555
H3A C6A 1_555 1_555
C7A C6A 1_555 1_555
H4A C7A 1_555 1_555
C8A C5A 1_555 1_555
C9A C8A 1_555 1_555
H5A C9A 1_555 1_555
C10A C9A 1_555 1_555
H6A C10A 1_555 1_555
C11A C10A 1_555 1_555
C12A C11A 1_555 1_555
C13A H7A 1_555 1_555
C14A C13A 1_555 1_555
H8A C14A 1_555 1_555
C15A C14A 1_555 1_555
C16A C15A 1_555 1_555
H9A C16A 1_555 1_555
C17A C16A 1_555 1_555
H10A C17A 1_555 1_555
C18A C15A 1_555 1_555
C19A C18A 1_555 1_555
H11A C19A 1_555 1_555
C20A C19A 1_555 1_555
H12A C20A 1_555 1_555
C21A C20A 1_555 1_555
C22A C21A 1_555 1_555
H13A C22A 1_555 1_555
C23A C18A 1_555 1_555
H14A C23A 1_555 1_555
C24A C21A 1_555 1_555
C25A C26A 1_555 1_555
C26A H15A 1_555 1_555
H15A H19A 1_555 1_555
C27A C26A 1_555 1_555
H16A C27A 1_555 1_555
C28A C34 1_555 1_555
C29A C34 1_555 1_555
H17A C29A 1_555 1_555
C30A C25A 1_555 1_555
H18A C30A 1_555 1_555
Br1A C25A 1_555 1_555
C31A C25A 1_555 1_555
C32A C25A 1_555 1_555
H19A C26A 1_555 1_555
C33A C34 1_555 1_555
H20A C27A 1_555 1_555
C34A C28 1_555 1_555
C35A C34 1_555 1_555
H21A C35A 1_555 1_555
C36A C29A 1_555 1_555
H22A C36A 1_555 1_555
Br2A C25A 1_555 1_555
N1A Ni1A 1_555 1_555
N2A Ni1A_2 1_555 1_555
N2A_2 Ni1A 1_555 1_555
N3A C3A 1_555 1_555
N4A C13A 1_555 1_555
O1A C12A 1_555 1_555
H23A O1A 1_555 1_555
O2A C12A 1_555 1_555
O3A C24A 1_555 1_555
O4A C24A 1_555 1_555
H24A O4A 1_555 1_555
S1A Ni1 1_555 1_555
S2A Ni1 1_555 1_555
S2_2 Ni1A 1_555 1_555
Ni1A S1 1_555 1_555
Ni1A_2 S2 1_555 1_555
C37A C11A 1_555 1_555
H25A C37A 1_555 1_555
C38A C8A 1_555 1_555
H26A C38A 1_555 1_555
C7 N3 1_555 1_555
C17 N4 1_555 1_555
C22 C23 1_555 1_555
C26 C31 1_555 1_555
C26 C32 1_555 1_555
C27 C32 1_555 1_555
H16 C33 1_555 1_555
H16 H20 1_555 1_555
C28 C33 1_555 1_555
C29 C30 1_555 1_555
C29 C35 1_555 1_555
C29 C34A 1_555 1_555
H17 C35 1_555 1_555
C30 C31 1_555 1_555
C30 C36 1_555 1_555
H18 C36 1_555 1_555
Br1 C31 1_555 1_555
Br1 Br2 1_555 1_555
C31 C32 1_555 1_555
C31 C36 1_555 1_555
C31 Br2 1_555 1_555
C32 H19 1_555 1_555
C32 C33 1_555 1_555
C33 H20 1_555 1_555
C33 C34A 1_555 1_555
C34 C34A 1_555 1_555
C35 C36 1_555 1_555
C35 C34A 1_555 1_555
N4 Ni1 1_555 1_555
C37 C38 1_555 1_555
C1A S1A 1_555 1_555
C2A S2A 1_555 1_555
C7A N3A 1_555 1_555
C17A N4A 1_555 1_555
C22A C23A 1_555 1_555
C26A C31A 1_555 1_555
C26A C32A 1_555 1_555
C27A C28A 1_555 1_555
C27A C32A 1_555 1_555
C27A C33A 1_555 1_555
H16A C33A 1_555 1_555
H16A H20A 1_555 1_555
C28A C29A 1_555 1_555
C28A C33A 1_555 1_555
C28A C34A 1_555 1_555
C28A C35A 1_555 1_555
C29A C30A 1_555 1_555
C29A C35A 1_555 1_555
H17A C35A 1_555 1_555
C30A C31A 1_555 1_555
C30A C36A 1_555 1_555
H18A C36A 1_555 1_555
Br1A C31A 1_555 1_555
Br1A Br2A 1_555 1_555
C31A C32A 1_555 1_555
C31A C36A 1_555 1_555
C31A Br2A 1_555 1_555
C32A H19A 1_555 1_555
C32A C33A 1_555 1_555
C33A H20A 1_555 1_555
C35A C36A 1_555 1_555
N3A Ni1A 1_555 1_555
N4A Ni1A 1_555 1_555
C37A C38A 1_555 1_555

#END
