
#######################################################################
#
#                 Cambridge Crystallographic Data Centre
#                                CCDC 
#
#######################################################################
#
# If this CIF has been generated from an entry in the Cambridge 
# Structural Database, then it will include bibliographic, chemical, 
# crystal, experimental, refinement or atomic coordinate data resulting 
# from the CCDC's data processing and validation procedures.
#
#######################################################################

data_PAPKOH
_symmetry_cell_setting           cubic
_symmetry_space_group_name_H-M   'F d -3'
_symmetry_Int_Tables_number      203
_space_group_name_Hall           '-F 2uv 2vw 3'
loop_
_symmetry_equiv_pos_site_id
_symmetry_equiv_pos_as_xyz
1 x,y,z
2 1/4-x,1/4-y,z
3 1/4-x,y,1/4-z
4 x,1/4-y,1/4-z
5 z,x,y
6 z,1/4-x,1/4-y
7 1/4-z,1/4-x,y
8 1/4-z,x,1/4-y
9 y,z,x
10 1/4-y,z,1/4-x
11 y,1/4-z,1/4-x
12 1/4-y,1/4-z,x
13 x,1/2+y,1/2+z
14 z,1/2+x,1/2+y
15 y,1/2+z,1/2+x
16 1/2+x,y,1/2+z
17 1/2+z,x,1/2+y
18 1/2+y,z,1/2+x
19 1/2+x,1/2+y,z
20 1/2+z,1/2+x,y
21 1/2+y,1/2+z,x
22 1/4-x,3/4-y,1/2+z
23 1/4-x,1/2+y,3/4-z
24 x,3/4-y,3/4-z
25 z,3/4-x,3/4-y
26 1/4-z,3/4-x,1/2+y
27 1/4-z,1/2+x,3/4-y
28 1/4-y,1/2+z,3/4-x
29 y,3/4-z,3/4-x
30 1/4-y,3/4-z,1/2+x
31 3/4-x,1/4-y,1/2+z
32 3/4-x,y,3/4-z
33 1/2+x,1/4-y,3/4-z
34 1/2+z,1/4-x,3/4-y
35 3/4-z,1/4-x,1/2+y
36 3/4-z,x,3/4-y
37 3/4-y,z,3/4-x
38 1/2+y,1/4-z,3/4-x
39 3/4-y,1/4-z,1/2+x
40 3/4-x,3/4-y,z
41 3/4-x,1/2+y,1/4-z
42 1/2+x,3/4-y,1/4-z
43 1/2+z,3/4-x,1/4-y
44 3/4-z,3/4-x,y
45 3/4-z,1/2+x,1/4-y
46 3/4-y,1/2+z,1/4-x
47 1/2+y,3/4-z,1/4-x
48 3/4-y,3/4-z,x
49 -x,-y,-z
50 3/4+x,3/4+y,-z
51 3/4+x,-y,3/4+z
52 -x,3/4+y,3/4+z
53 -z,-x,-y
54 -z,3/4+x,3/4+y
55 3/4+z,3/4+x,-y
56 3/4+z,-x,3/4+y
57 -y,-z,-x
58 3/4+y,-z,3/4+x
59 -y,3/4+z,3/4+x
60 3/4+y,3/4+z,-x
61 -x,1/2-y,1/2-z
62 -z,1/2-x,1/2-y
63 -y,1/2-z,1/2-x
64 1/2-x,-y,1/2-z
65 1/2-z,-x,1/2-y
66 1/2-y,-z,1/2-x
67 1/2-x,1/2-y,-z
68 1/2-z,1/2-x,-y
69 1/2-y,1/2-z,-x
70 3/4+x,1/4+y,1/2-z
71 3/4+x,1/2-y,1/4+z
72 -x,1/4+y,1/4+z
73 -z,1/4+x,1/4+y
74 3/4+z,1/4+x,1/2-y
75 3/4+z,1/2-x,1/4+y
76 3/4+y,1/2-z,1/4+x
77 -y,1/4+z,1/4+x
78 3/4+y,1/4+z,1/2-x
79 1/4+x,3/4+y,1/2-z
80 1/4+x,-y,1/4+z
81 1/2-x,3/4+y,1/4+z
82 1/2-z,3/4+x,1/4+y
83 1/4+z,3/4+x,1/2-y
84 1/4+z,-x,1/4+y
85 1/4+y,-z,1/4+x
86 1/2-y,3/4+z,1/4+x
87 1/4+y,3/4+z,1/2-x
88 1/4+x,1/4+y,-z
89 1/4+x,1/2-y,3/4+z
90 1/2-x,1/4+y,3/4+z
91 1/2-z,1/4+x,3/4+y
92 1/4+z,1/4+x,-y
93 1/4+z,1/2-x,3/4+y
94 1/4+y,1/2-z,3/4+x
95 1/2-y,1/4+z,3/4+x
96 1/4+y,1/4+z,-x
_cell_length_a                   25.6887(3)
_cell_length_b                   25.6887(3)
_cell_length_c                   25.6887(3)
_cell_angle_alpha                90
_cell_angle_beta                 90
_cell_angle_gamma                90
_cell_volume                     16952.2
loop_
_atom_site_label
_atom_site_type_symbol
_atom_site_fract_x
_atom_site_fract_y
_atom_site_fract_z
O4 O -0.1077(9) 0.3577(9) 0.3923(9)
Zn1 Zn 0.0000 0.5000 0.0000
Zn2 Zn 0.07855(2) 0.57855(2) 0.07855(2)
O1 O 0.1250 0.6250 0.1250
O2 O 0.06349(15) 0.52018(14) 0.12489(15)
O3 O -0.00826(14) 0.50335(15) 0.07996(14)
N1 N 0.00454(19) 0.31874(19) 0.29718(19)
C1 C 0.0226(2) 0.4941(2) 0.1155(2)
C2 C 0.0095(2) 0.4501(2) 0.1527(2)
C3 C -0.0343(2) 0.4205(2) 0.1445(2)
H1 H -0.0557 0.4272 0.1161
C4 C -0.0465(3) 0.3808(3) 0.1784(2)
H2 H -0.0758 0.3605 0.1723
C5 C -0.0155(2) 0.3708(2) 0.2215(2)
C6 C 0.0274(3) 0.4013(3) 0.2292(3)
H3 H 0.0483 0.3956 0.2583
C7 C 0.0402(3) 0.4402(3) 0.1947(3)
H4 H 0.0701 0.4599 0.2001
C8 C -0.0275(2) 0.3270(2) 0.2566(2)
Zn1I Zn -0.2500 0.0000 0.2500
Zn1F Zn 0.2500 0.2500 0.5000
Zn1F_2 Zn 0.2500 0.2500 -0.5000
Zn1CC Zn 0.5000 0.7500 -0.2500
Zn1CC_2 Zn -0.5000 0.7500 -0.2500
Zn1I_2 Zn -0.2500 1.0000 0.2500
Zn1G Zn 0.2500 1.0000 -0.2500
Zn1QB Zn -0.2500 0.7500 -0.5000
Zn2I Zn -0.32855(2) 0.07855(2) 0.17145(2)
Zn2F Zn 0.17145(2) 0.17145(2) 0.57855(2)
Zn2F_2 Zn 0.17145(2) 0.17145(2) -0.42145(2)
Zn2A Zn 0.17145(2) 0.67145(2) 0.07855(2)
Zn2B Zn 0.17145(2) 0.57855(2) 0.17145(2)
Zn2C Zn 0.07855(2) 0.67145(2) 0.17145(2)
Zn2BA Zn 0.57855(2) 0.67145(2) -0.32855(2)
Zn2BA_2 Zn -0.42145(2) 0.67145(2) -0.32855(2)
Zn2I_2 Zn -0.32855(2) 1.07855(2) 0.17145(2)
Zn2VA Zn -0.07855(2) 0.42145(2) -0.07855(2)
Zn2EC Zn 0.32855(2) 0.92145(2) -0.17145(2)
Zn2QB Zn -0.17145(2) 0.82855(2) -0.57855(2)
O1H O -0.3750 0.1250 0.1250
O1D O 0.1250 0.1250 0.6250
O1D_2 O 0.1250 0.1250 -0.3750
O2I O -0.27018(14) 0.12489(15) 0.18651(15)
O2F O 0.12511(15) 0.18651(15) 0.52018(14)
O2M O 0.12489(15) 0.56349(15) 0.02018(14)
O2U O 0.18651(15) 0.22982(14) -0.37511(15)
O2BA O 0.52018(14) 0.62511(15) -0.31349(15)
O2T O 0.02018(14) 0.62489(15) 0.06349(15)
O2PA O -0.37511(15) 0.68651(15) -0.27018(14)
O2NA O -0.31349(15) 1.02018(14) 0.12511(15)
O2VA O -0.06349(15) 0.47982(14) -0.12489(15)
O2EB O 0.27018(14) 0.87511(15) -0.18651(15)
O2BB O -0.12511(15) 0.81349(15) -0.52018(14)
O2IA O -0.37489(15) 0.06349(15) 0.22982(14)
O2NA_2 O -0.31349(15) 0.02018(14) 0.12511(15)
O2U_2 O 0.18651(15) 0.22982(14) 0.62489(15)
O2LA O 0.22982(14) 0.12511(15) 0.56349(15)
O2F_2 O 0.12511(15) 0.18651(15) -0.47982(14)
O2LA_2 O 0.22982(14) 0.12511(15) -0.43651(15)
O3I O -0.25335(15) 0.07996(14) 0.25826(14)
O3F O 0.17004(14) 0.25826(14) 0.50335(15)
O3M O 0.07996(14) 0.49174(14) 0.00335(15)
O3U O 0.25826(14) 0.24665(15) -0.42004(14)
O3BA O 0.50335(15) 0.67004(14) -0.24174(14)
O3T O 0.00335(15) 0.57996(14) -0.00826(14)
O3PA O -0.42004(14) 0.75826(14) -0.25335(15)
O3NA O -0.24174(14) 1.00335(15) 0.17004(14)
O3VA O 0.00826(14) 0.49665(15) -0.07996(14)
O3EB O 0.25335(15) 0.92004(14) -0.25826(14)
O3BB O -0.17004(14) 0.74174(14) -0.50335(15)
O3IB O -0.07996(14) 0.50826(14) -0.00335(15)
O3PB O -0.00335(15) 0.42004(14) 0.00826(14)
O3RB O -0.25826(14) -0.00335(15) 0.32996(14)
O3FC O -0.24665(15) -0.07996(14) 0.24174(14)
O3CB O -0.17004(14) 0.00826(14) 0.25335(15)
O3IA O -0.32996(14) -0.00826(14) 0.24665(15)
O3NA_2 O -0.24174(14) 0.00335(15) 0.17004(14)
N1F N -0.04718(19) 0.24546(19) 0.31874(19)
N1I N -0.06874(19) 0.29718(19) 0.24546(19)
N1M N 0.29718(19) 0.50454(19) -0.18126(19)
N1BA N 0.31874(19) 0.45282(19) -0.25454(19)
N1U N 0.24546(19) 0.43126(19) -0.20282(19)
N1T N -0.18126(19) 0.79718(19) 0.00454(19)
N1NA N -0.25454(19) 0.81874(19) -0.04718(19)
N1PA N -0.20282(19) 0.74546(19) -0.06874(19)
N1VA N -0.00454(19) 0.68126(19) -0.29718(19)
N1BB N 0.04718(19) 0.75454(19) -0.31874(19)
N1EB N 0.06874(19) 0.70282(19) -0.24546(19)
C1I C -0.2441(2) 0.1155(2) 0.2274(2)
C1F C 0.1345(2) 0.2274(2) 0.4941(2)
C1M C 0.1155(2) 0.5226(2) -0.0059(2)
C1U C 0.2274(2) 0.2559(2) -0.3845(2)
C1BA C 0.4941(2) 0.6345(2) -0.2726(2)
C1T C -0.0059(2) 0.6155(2) 0.0226(2)
C1PA C -0.3845(2) 0.7274(2) -0.2441(2)
C1NA C -0.2726(2) 0.9941(2) 0.1345(2)
C1VA C -0.0226(2) 0.5059(2) -0.1155(2)
C1EB C 0.2441(2) 0.8845(2) -0.2274(2)
C1BB C -0.1345(2) 0.7726(2) -0.4941(2)
C2I C -0.2001(2) 0.1527(2) 0.2405(2)
C2F C 0.0973(2) 0.2405(2) 0.4501(2)
C2M C 0.1527(2) 0.5095(2) -0.0499(2)
C2U C 0.2405(2) 0.2999(2) -0.3473(2)
C2BA C 0.4501(2) 0.5973(2) -0.2595(2)
C2T C -0.0499(2) 0.6527(2) 0.0095(2)
C2PA C -0.3473(2) 0.7405(2) -0.2001(2)
C2NA C -0.2595(2) 0.9501(2) 0.0973(2)
C2VA C -0.0095(2) 0.5499(2) -0.1527(2)
C2EB C 0.2001(2) 0.8473(2) -0.2405(2)
C2BB C -0.0973(2) 0.7595(2) -0.4501(2)
C3I C -0.1705(2) 0.1445(2) 0.2843(2)
C3F C 0.1055(2) 0.2843(2) 0.4205(2)
C3M C 0.1445(2) 0.4657(2) -0.0795(2)
C3U C 0.2843(2) 0.3295(2) -0.3555(2)
C3BA C 0.4205(2) 0.6055(2) -0.2157(2)
C3T C -0.0795(2) 0.6445(2) -0.0343(2)
C3PA C -0.3555(2) 0.7843(2) -0.1705(2)
C3NA C -0.2157(2) 0.9205(2) 0.1055(2)
C3VA C 0.0343(2) 0.5795(2) -0.1445(2)
C3EB C 0.1705(2) 0.8555(2) -0.2843(2)
C3BB C -0.1055(2) 0.7157(2) -0.4205(2)
H1I H -0.1772 0.1161 0.3057
H1F H 0.1339 0.3057 0.4272
H1M H 0.1161 0.4443 -0.0728
H1U H 0.3057 0.3228 -0.3839
H1BA H 0.4272 0.6339 -0.1943
H1T H -0.0728 0.6161 -0.0557
H1PA H -0.3839 0.8057 -0.1772
H1NA H -0.1943 0.9272 0.1339
H1VA H 0.0557 0.5728 -0.1161
H1EB H 0.1772 0.8839 -0.3057
H1BB H -0.1339 0.6943 -0.4272
C4I C -0.1308(3) 0.1784(2) 0.2965(3)
C4F C 0.0716(2) 0.2965(3) 0.3808(3)
C4M C 0.1784(2) 0.4535(3) -0.1192(3)
C4U C 0.2965(3) 0.3692(3) -0.3216(2)
C4BA C 0.3808(3) 0.5716(2) -0.2035(3)
C4T C -0.1192(3) 0.6784(2) -0.0465(3)
C4PA C -0.3216(2) 0.7965(3) -0.1308(3)
C4NA C -0.2035(3) 0.8808(3) 0.0716(2)
C4VA C 0.0465(3) 0.6192(3) -0.1784(2)
C4EB C 0.1308(3) 0.8216(2) -0.2965(3)
C4BB C -0.0716(2) 0.7035(3) -0.3808(3)
H2I H -0.1105 0.1723 0.3258
H2F H 0.0777 0.3258 0.3605
H2M H 0.1723 0.4242 -0.1395
H2U H 0.3258 0.3895 -0.3277
H2BA H 0.3605 0.5777 -0.1742
H2T H -0.1395 0.6723 -0.0758
H2PA H -0.3277 0.8258 -0.1105
H2NA H -0.1742 0.8605 0.0777
H2VA H 0.0758 0.6395 -0.1723
H2EB H 0.1105 0.8277 -0.3258
H2BB H -0.0777 0.6742 -0.3605
C5I C -0.1208(2) 0.2215(2) 0.2655(2)
C5F C 0.0285(2) 0.2655(2) 0.3708(2)
C5M C 0.2215(2) 0.4845(2) -0.1292(2)
C5U C 0.2655(2) 0.3792(2) -0.2785(2)
C5BA C 0.3708(2) 0.5285(2) -0.2345(2)
C5T C -0.1292(2) 0.7215(2) -0.0155(2)
C5PA C -0.2785(2) 0.7655(2) -0.1208(2)
C5NA C -0.2345(2) 0.8708(2) 0.0285(2)
C5VA C 0.0155(2) 0.6292(2) -0.2215(2)
C5EB C 0.1208(2) 0.7785(2) -0.2655(2)
C5BB C -0.0285(2) 0.7345(2) -0.3708(2)
C6I C -0.1513(3) 0.2292(3) 0.2226(3)
C6F C 0.0208(3) 0.2226(3) 0.4013(3)
C6M C 0.2292(3) 0.5274(3) -0.0987(3)
C6U C 0.2226(3) 0.3487(3) -0.2708(3)
C6BA C 0.4013(3) 0.5208(3) -0.2774(3)
C6T C -0.0987(3) 0.7292(3) 0.0274(3)
C6PA C -0.2708(3) 0.7226(3) -0.1513(3)
C6NA C -0.2774(3) 0.9013(3) 0.0208(3)
C6VA C -0.0274(3) 0.5987(3) -0.2292(3)
C6EB C 0.1513(3) 0.7708(3) -0.2226(3)
C6BB C -0.0208(3) 0.7774(3) -0.4013(3)
H3I H -0.1456 0.2583 0.2017
H3F H -0.0083 0.2017 0.3956
H3M H 0.2583 0.5483 -0.1044
H3U H 0.2017 0.3544 -0.2417
H3BA H 0.3956 0.4917 -0.2983
H3T H -0.1044 0.7583 0.0483
H3PA H -0.2417 0.7017 -0.1456
H3NA H -0.2983 0.8956 -0.0083
H3VA H -0.0483 0.6044 -0.2583
H3EB H 0.1456 0.7417 -0.2017
H3BB H 0.0083 0.7983 -0.3956
C7I C -0.1902(3) 0.1947(3) 0.2098(3)
C7F C 0.0553(3) 0.2098(3) 0.4402(3)
C7M C 0.1947(3) 0.5402(3) -0.0598(3)
C7U C 0.2098(3) 0.3098(3) -0.3053(3)
C7BA C 0.4402(3) 0.5553(3) -0.2902(3)
C7T C -0.0598(3) 0.6947(3) 0.0402(3)
C7PA C -0.3053(3) 0.7098(3) -0.1902(3)
C7NA C -0.2902(3) 0.9402(3) 0.0553(3)
C7VA C -0.0402(3) 0.5598(3) -0.1947(3)
C7EB C 0.1902(3) 0.8053(3) -0.2098(3)
C7BB C -0.0553(3) 0.7902(3) -0.4402(3)
H4I H -0.2099 0.2001 0.1799
H4F H 0.0499 0.1799 0.4599
H4M H 0.2001 0.5701 -0.0401
H4U H 0.1799 0.2901 -0.2999
H4BA H 0.4599 0.5499 -0.3201
H4T H -0.0401 0.7001 0.0701
H4PA H -0.2999 0.6799 -0.2099
H4NA H -0.3201 0.9599 0.0499
H4VA H -0.0701 0.5401 -0.2001
H4EB H 0.2099 0.7999 -0.1799
H4BB H -0.0499 0.8201 -0.4599
C8F C -0.0066(2) 0.2775(2) 0.3270(2)
C8I C -0.0770(2) 0.2566(2) 0.2775(2)
C8M C 0.2566(2) 0.4725(2) -0.1730(2)
C8BA C 0.3270(2) 0.4934(2) -0.2225(2)
C8U C 0.2775(2) 0.4230(2) -0.2434(2)
C8T C -0.1730(2) 0.7566(2) -0.0275(2)
C8NA C -0.2225(2) 0.8270(2) -0.0066(2)
C8PA C -0.2434(2) 0.7775(2) -0.0770(2)
C8VA C 0.0275(2) 0.6730(2) -0.2566(2)
C8BB C 0.0066(2) 0.7225(2) -0.3270(2)
C8EB C 0.0770(2) 0.7434(2) -0.2775(2)
loop_
_geom_bond_atom_site_label_1
_geom_bond_atom_site_label_2
_geom_bond_site_symmetry_1
_geom_bond_site_symmetry_2
Zn1 O3 1_555 1_555
Zn2 O1 1_555 1_555
O1 Zn2A 1_555 1_555
O2 Zn2 1_555 1_555
O3 C1 1_555 1_555
N1 C8 1_555 1_555
C1 O2 1_555 1_555
C2 C1 1_555 1_555
C3 C2 1_555 1_555
H1 C3 1_555 1_555
C4 C3 1_555 1_555
H2 C4 1_555 1_555
C5 C4 1_555 1_555
C6 C5 1_555 1_555
H3 C6 1_555 1_555
C7 C2 1_555 1_555
H4 C7 1_555 1_555
C8 C5 1_555 1_555
Zn1I O3I 1_555 1_555
Zn1F O3F 1_555 1_555
Zn1F_2 O3U 1_555 1_555
Zn1CC O3BA 1_555 1_555
Zn1CC_2 O3PA 1_555 1_555
Zn1I_2 O3NA 1_555 1_555
Zn1G O3EB 1_555 1_555
Zn1QB O3BB 1_555 1_555
Zn2I O1H 1_555 1_555
Zn2F O1D 1_555 1_555
Zn2F_2 O1D_2 1_555 1_555
Zn2B O1 1_555 1_555
Zn2C O1 1_555 1_555
Zn2BA O2BA 1_555 1_555
Zn2BA_2 O2PA 1_555 1_555
Zn2I_2 O2NA 1_555 1_555
Zn2VA O2VA 1_555 1_555
Zn2EC O2EB 1_555 1_555
Zn2QB O2BB 1_555 1_555
O2I Zn2I 1_555 1_555
O2F Zn2F 1_555 1_555
O2M Zn2 1_555 1_555
O2U Zn2F_2 1_555 1_555
O2BA C1BA 1_555 1_555
O2T Zn2 1_555 1_555
O2PA C1PA 1_555 1_555
O2NA C1NA 1_555 1_555
O2VA C1VA 1_555 1_555
O2EB C1EB 1_555 1_555
O2BB C1BB 1_555 1_555
O2IA Zn2I 1_555 1_555
O2NA_2 Zn2I 1_555 1_555
O2U_2 Zn2F 1_555 1_555
O2LA Zn2F 1_555 1_555
O2F_2 Zn2F_2 1_555 1_555
O2LA_2 Zn2F_2 1_555 1_555
O3I C1I 1_555 1_555
O3F C1F 1_555 1_555
O3M Zn1 1_555 1_555
O3U C1U 1_555 1_555
O3BA C1BA 1_555 1_555
O3T Zn1 1_555 1_555
O3PA C1PA 1_555 1_555
O3NA C1NA 1_555 1_555
O3VA Zn1 1_555 1_555
O3EB C1EB 1_555 1_555
O3BB C1BB 1_555 1_555
O3IB Zn1 1_555 1_555
O3PB Zn1 1_555 1_555
O3RB Zn1I 1_555 1_555
O3FC Zn1I 1_555 1_555
O3CB Zn1I 1_555 1_555
O3IA Zn1I 1_555 1_555
O3NA_2 Zn1I 1_555 1_555
N1F C8F 1_555 1_555
N1I C8 1_555 1_555
N1M C8M 1_555 1_555
N1BA C8BA 1_555 1_555
N1U C8M 1_555 1_555
N1T C8T 1_555 1_555
N1NA C8NA 1_555 1_555
N1PA C8T 1_555 1_555
N1VA C8VA 1_555 1_555
N1BB C8BB 1_555 1_555
N1EB C8VA 1_555 1_555
C1I O2I 1_555 1_555
C1F O2F 1_555 1_555
C1M O2M 1_555 1_555
C1U O2U 1_555 1_555
C1BA C2BA 1_555 1_555
C1T O2T 1_555 1_555
C1PA C2PA 1_555 1_555
C1NA C2NA 1_555 1_555
C1VA O3VA 1_555 1_555
C1EB C2EB 1_555 1_555
C1BB C2BB 1_555 1_555
C2I C1I 1_555 1_555
C2F C1F 1_555 1_555
C2M C1M 1_555 1_555
C2U C1U 1_555 1_555
C2BA C3BA 1_555 1_555
C2T C1T 1_555 1_555
C2PA C3PA 1_555 1_555
C2NA C3NA 1_555 1_555
C2VA C1VA 1_555 1_555
C2EB C3EB 1_555 1_555
C2BB C3BB 1_555 1_555
C3I C2I 1_555 1_555
C3F C2F 1_555 1_555
C3M C2M 1_555 1_555
C3U C2U 1_555 1_555
C3BA H1BA 1_555 1_555
C3T C2T 1_555 1_555
C3PA H1PA 1_555 1_555
C3NA H1NA 1_555 1_555
C3VA C2VA 1_555 1_555
C3EB H1EB 1_555 1_555
C3BB H1BB 1_555 1_555
H1I C3I 1_555 1_555
H1F C3F 1_555 1_555
H1M C3M 1_555 1_555
H1U C3U 1_555 1_555
H1T C3T 1_555 1_555
H1VA C3VA 1_555 1_555
C4I C3I 1_555 1_555
C4F C3F 1_555 1_555
C4M C3M 1_555 1_555
C4U C3U 1_555 1_555
C4BA C3BA 1_555 1_555
C4T C3T 1_555 1_555
C4PA C3PA 1_555 1_555
C4NA C3NA 1_555 1_555
C4VA C3VA 1_555 1_555
C4EB C3EB 1_555 1_555
C4BB C3BB 1_555 1_555
H2I C4I 1_555 1_555
H2F C4F 1_555 1_555
H2M C4M 1_555 1_555
H2U C4U 1_555 1_555
H2BA C4BA 1_555 1_555
H2T C4T 1_555 1_555
H2PA C4PA 1_555 1_555
H2NA C4NA 1_555 1_555
H2VA C4VA 1_555 1_555
H2EB C4EB 1_555 1_555
H2BB C4BB 1_555 1_555
C5I C4I 1_555 1_555
C5F C4F 1_555 1_555
C5M C4M 1_555 1_555
C5U C4U 1_555 1_555
C5BA C4BA 1_555 1_555
C5T C4T 1_555 1_555
C5PA C4PA 1_555 1_555
C5NA C4NA 1_555 1_555
C5VA C4VA 1_555 1_555
C5EB C4EB 1_555 1_555
C5BB C4BB 1_555 1_555
C6I C5I 1_555 1_555
C6F C5F 1_555 1_555
C6M C5M 1_555 1_555
C6U C5U 1_555 1_555
C6BA C5BA 1_555 1_555
C6T C5T 1_555 1_555
C6PA C5PA 1_555 1_555
C6NA C5NA 1_555 1_555
C6VA C5VA 1_555 1_555
C6EB C5EB 1_555 1_555
C6BB C5BB 1_555 1_555
H3I C6I 1_555 1_555
H3F C6F 1_555 1_555
H3M C6M 1_555 1_555
H3U C6U 1_555 1_555
H3BA C6BA 1_555 1_555
H3T C6T 1_555 1_555
H3PA C6PA 1_555 1_555
H3NA C6NA 1_555 1_555
H3VA C6VA 1_555 1_555
H3EB C6EB 1_555 1_555
H3BB C6BB 1_555 1_555
C7I C2I 1_555 1_555
C7F C2F 1_555 1_555
C7M C2M 1_555 1_555
C7U C2U 1_555 1_555
C7BA C2BA 1_555 1_555
C7T C2T 1_555 1_555
C7PA C2PA 1_555 1_555
C7NA C2NA 1_555 1_555
C7VA C2VA 1_555 1_555
C7EB C2EB 1_555 1_555
C7BB C2BB 1_555 1_555
H4I C7I 1_555 1_555
H4F C7F 1_555 1_555
H4M C7M 1_555 1_555
H4U C7U 1_555 1_555
H4BA C7BA 1_555 1_555
H4T C7T 1_555 1_555
H4PA C7PA 1_555 1_555
H4NA C7NA 1_555 1_555
H4VA C7VA 1_555 1_555
H4EB C7EB 1_555 1_555
H4BB C7BB 1_555 1_555
C8F N1 1_555 1_555
C8I N1F 1_555 1_555
C8M C5M 1_555 1_555
C8BA N1M 1_555 1_555
C8U N1BA 1_555 1_555
C8T C5T 1_555 1_555
C8NA N1T 1_555 1_555
C8PA N1NA 1_555 1_555
C8VA C5VA 1_555 1_555
C8BB N1VA 1_555 1_555
C8EB N1BB 1_555 1_555
C6 C7 1_555 1_555
O3M C1M 1_555 1_555
O3T C1T 1_555 1_555
N1I C8I 1_555 1_555
N1U C8U 1_555 1_555
N1PA C8PA 1_555 1_555
N1EB C8EB 1_555 1_555
C5I C8I 1_555 1_555
C5F C8F 1_555 1_555
C5U C8U 1_555 1_555
C5BA C8BA 1_555 1_555
C5PA C8PA 1_555 1_555
C5NA C8NA 1_555 1_555
C5EB C8EB 1_555 1_555
C5BB C8BB 1_555 1_555
C6I C7I 1_555 1_555
C6F C7F 1_555 1_555
C6M C7M 1_555 1_555
C6U C7U 1_555 1_555
C6BA C7BA 1_555 1_555
C6T C7T 1_555 1_555
C6PA C7PA 1_555 1_555
C6NA C7NA 1_555 1_555
C6VA C7VA 1_555 1_555
C6EB C7EB 1_555 1_555
C6BB C7BB 1_555 1_555

#END
