
#######################################################################
#
#                 Cambridge Crystallographic Data Centre
#                                CCDC 
#
#######################################################################
#
# If this CIF has been generated from an entry in the Cambridge 
# Structural Database, then it will include bibliographic, chemical, 
# crystal, experimental, refinement or atomic coordinate data resulting 
# from the CCDC's data processing and validation procedures.
#
#######################################################################

data_PAPKAU
_symmetry_cell_setting           triclinic
_symmetry_space_group_name_H-M   'P -1'
_symmetry_Int_Tables_number      2
_space_group_name_Hall           '-P 1'
loop_
_symmetry_equiv_pos_site_id
_symmetry_equiv_pos_as_xyz
1 x,y,z
2 -x,-y,-z
_cell_length_a                   10.1924(3)
_cell_length_b                   11.7060(3)
_cell_length_c                   16.9698(4)
_cell_angle_alpha                80.3176(8)
_cell_angle_beta                 82.9188(8)
_cell_angle_gamma                64.7791(7)
_cell_volume                     1802.57
loop_
_atom_site_label
_atom_site_type_symbol
_atom_site_fract_x
_atom_site_fract_y
_atom_site_fract_z
W1 W 0.77099(3) 0.40070(2) 0.197122(15)
I1 I 0.51782(7) 0.99829(5) 0.36167(4)
I2 I 1.12238(7) 0.29368(7) 0.58650(5)
I3 I 1.73953(7) 0.09014(7) -0.03085(4)
I4 I 1.15249(9) 0.90414(6) 0.31070(4)
Cu1 Cu 0.5000 0.5000 0.5000
Cu2 Cu 1.24581(8) 0.48563(8) 0.12611(5)
N1 N 0.6619(8) 0.1756(6) 0.2796(5)
N2 N 1.0017(9) 0.1381(7) 0.1244(5)
N3 N 1.0036(8) 0.2484(7) 0.3390(4)
N4 N 0.6490(9) 0.7149(7) 0.1542(6)
N5 N 0.6628(6) 0.5124(5) 0.5582(3)
N6 N 0.4001(6) 0.6984(5) 0.4858(3)
N7 N 1.3603(6) 0.2985(5) 0.1135(3)
N8 N 1.1263(6) 0.6636(5) 0.1553(3)
N9 N 1.0644(6) 0.4558(5) 0.1500(4)
N10 N 0.7559(7) 0.4569(6) -0.0003(3)
N11 N 0.6177(7) 0.5057(6) 0.3702(3)
N12 N 0.4288(6) 0.4844(5) 0.1574(3)
C1 C 1.5581(8) 0.1385(7) 0.0503(4)
C2 C 1.4764(8) 0.2641(7) 0.0619(4)
C3 C 0.7639(7) 0.4361(6) 0.0678(4)
C4 C 1.3236(9) 0.2069(8) 0.1553(4)
C5 C 1.3991(9) 0.0820(7) 0.1448(5)
C6 C 1.5192(9) 0.0456(7) 0.0910(5)
C7 C 0.9204(8) 0.2299(7) 0.1500(4)
C8 C 0.9241(7) 0.2988(6) 0.2908(4)
C9 C 0.9621(7) 0.4393(6) 0.1654(4)
C10 C 0.6670(8) 0.4751(6) 0.3079(4)
C11 C 0.5456(6) 0.4602(6) 0.1722(4)
C12 C 0.7033(7) 0.2517(6) 0.2517(4)
C13 C 0.6915(8) 0.6058(6) 0.1705(4)
C14 C 0.4617(8) 0.7663(7) 0.4382(4)
C15 C 0.4073(9) 0.8996(7) 0.4335(4)
C16 C 0.2810(10) 0.9636(8) 0.4773(6)
C17 C 0.2126(10) 0.8952(8) 0.5261(5)
C18 C 0.2763(9) 0.7640(8) 0.5303(4)
C19 C 0.6257(9) 0.6000(7) 0.6074(4)
C20 C 0.7283(11) 0.6095(9) 0.6510(5)
C21 C 0.8706(10) 0.5278(8) 0.6445(5)
C22 C 0.9080(9) 0.4347(8) 0.5952(5)
C23 C 0.8031(8) 0.4316(7) 0.5517(4)
C24 C 1.1669(8) 0.7143(6) 0.2073(4)
C25 C 1.0774(9) 0.8315(7) 0.2315(4)
C26 C 0.9424(9) 0.8965(7) 0.2037(6)
C27 C 0.9943(8) 0.7293(7) 0.1268(5)
C28 C 0.9006(9) 0.8437(8) 0.1492(6)
H1 H 1.5029 0.3266 0.0330
H2 H 1.2444 0.2296 0.1923
H3 H 1.3701 0.0210 0.1738
H4 H 1.5714 -0.0392 0.0830
H5 H 0.5444 0.7239 0.4067
H6 H 0.2421 1.0518 0.4741
H7 H 0.1262 0.9366 0.5553
H8 H 0.2332 0.7178 0.5651
H9 H 0.5287 0.6567 0.6131
H10 H 0.6986 0.6724 0.6845
H11 H 0.9399 0.5342 0.6722
H12 H 0.8313 0.3710 0.5167
H13 H 1.2581 0.6696 0.2280
H14 H 0.8796 0.9741 0.2206
H15 H 0.9654 0.6950 0.0901
H16 H 0.8094 0.8863 0.1283
W1A W 0.22901(3) 0.59930(2) 0.802878(15)
I1A I 0.48218(7) 0.00171(5) 0.63833(4)
I2A I -0.12238(7) 0.70632(7) 0.41350(5)
I3A I -0.73953(7) 0.90986(7) 1.03085(4)
I4A I -0.15249(9) 0.09586(6) 0.68930(4)
Cu2A Cu -0.24581(8) 0.51437(8) 0.87389(5)
Cu2A_2 Cu 0.75419(8) 0.51437(8) -0.12611(5)
Cu2_2 Cu 0.24581(8) 0.48563(8) 0.12611(5)
Cu2_3 Cu 0.24581(8) 0.48563(8) 1.12611(5)
Cu2A_3 Cu 0.75419(8) 0.51437(8) 0.87389(5)
N1A N 0.3381(8) 0.8244(6) 0.7204(5)
N2A N -0.0017(9) 0.8619(7) 0.8756(5)
N3A N -0.0036(8) 0.7516(7) 0.6610(4)
N4A N 0.3510(9) 0.2851(7) 0.8458(6)
N5A N 0.3372(6) 0.4876(5) 0.4418(3)
N6A N 0.5999(6) 0.3016(5) 0.5142(3)
N7A N -0.3603(6) 0.7015(5) 0.8865(3)
N8A N -0.1263(6) 0.3364(5) 0.8447(3)
N9A N -0.0644(6) 0.5442(5) 0.8500(4)
N10A N 0.2441(7) 0.5431(6) 1.0003(3)
N10A_2 N 1.2441(7) 0.5431(6) 0.0003(3)
N10_2 N -0.2441(7) 0.4569(6) 0.9997(3)
N11A N 0.3823(7) 0.4943(6) 0.6298(3)
N12A N 0.5712(6) 0.5156(5) 0.8426(3)
N12_2 N 1.4288(6) 0.4844(5) 0.1574(3)
N12A_2 N -0.4288(6) 0.5156(5) 0.8426(3)
C1A C -0.5581(8) 0.8615(7) 0.9497(4)
C2A C -0.4764(8) 0.7359(7) 0.9381(4)
C3A C 0.2361(7) 0.5639(6) 0.9322(4)
C4A C -0.3236(9) 0.7931(8) 0.8447(4)
C5A C -0.3991(9) 0.9180(7) 0.8552(5)
C6A C -0.5192(9) 0.9544(7) 0.9090(5)
C7A C 0.0796(8) 0.7701(7) 0.8500(4)
C8A C 0.0759(7) 0.7012(6) 0.7092(4)
C9A C 0.0379(7) 0.5607(6) 0.8346(4)
C10A C 0.3330(8) 0.5249(6) 0.6921(4)
C11A C 0.4544(6) 0.5398(6) 0.8278(4)
C12A C 0.2967(7) 0.7483(6) 0.7483(4)
C13A C 0.3085(8) 0.3942(6) 0.8295(4)
C14A C 0.5383(8) 0.2337(7) 0.5618(4)
C15A C 0.5927(9) 0.1004(7) 0.5665(4)
C16A C 0.7190(10) 0.0364(8) 0.5227(6)
C17A C 0.7874(10) 0.1048(8) 0.4739(5)
C18A C 0.7237(9) 0.2360(8) 0.4697(4)
C19A C 0.3743(9) 0.4000(7) 0.3926(4)
C20A C 0.2717(11) 0.3905(9) 0.3490(5)
C21A C 0.1294(10) 0.4722(8) 0.3555(5)
C22A C 0.0920(9) 0.5653(8) 0.4048(5)
C23A C 0.1969(8) 0.5684(7) 0.4483(4)
C24A C -0.1669(8) 0.2857(6) 0.7927(4)
C25A C -0.0774(9) 0.1685(7) 0.7685(4)
C26A C 0.0576(9) 0.1035(7) 0.7963(6)
C27A C 0.0057(8) 0.2707(7) 0.8732(5)
C28A C 0.0994(9) 0.1563(8) 0.8508(6)
H1A H -0.5029 0.6734 0.9670
H2A H -0.2444 0.7704 0.8077
H3A H -0.3701 0.9790 0.8262
H4A H -0.5714 1.0392 0.9170
H5A H 0.4556 0.2761 0.5933
H6A H 0.7579 -0.0518 0.5259
H7A H 0.8738 0.0634 0.4447
H8A H 0.7668 0.2822 0.4349
H9A H 0.4713 0.3433 0.3869
H10A H 0.3014 0.3276 0.3155
H11A H 0.0601 0.4658 0.3278
H12A H 0.1687 0.6290 0.4833
H13A H -0.2581 0.3304 0.7720
H14A H 0.1204 0.0259 0.7794
H15A H 0.0346 0.3050 0.9099
H16A H 0.1906 0.1137 0.8717
loop_
_geom_bond_atom_site_label_1
_geom_bond_atom_site_label_2
_geom_bond_site_symmetry_1
_geom_bond_site_symmetry_2
W1 C3 1_555 1_555
I1 C15 1_555 1_555
I2 C22 1_555 1_555
I3 C1 1_555 1_555
I4 C25 1_555 1_555
Cu1 N5 1_555 1_555
Cu2 N7 1_555 1_555
N1 C12 1_555 1_555
N2 C7 1_555 1_555
N3 C8 1_555 1_555
N4 C13 1_555 1_555
N5 C19 1_555 1_555
N6 Cu1 1_555 1_555
N7 C2 1_555 1_555
N8 Cu2 1_555 1_555
N9 Cu2 1_555 1_555
N10 C3 1_555 1_555
N11 Cu1 1_555 1_555
N12 C11 1_555 1_555
C1 C2 1_555 1_555
C2 H1 1_555 1_555
C4 N7 1_555 1_555
C5 C4 1_555 1_555
C6 C1 1_555 1_555
C7 W1 1_555 1_555
C8 W1 1_555 1_555
C9 W1 1_555 1_555
C10 W1 1_555 1_555
C11 W1 1_555 1_555
C12 W1 1_555 1_555
C13 W1 1_555 1_555
C14 N6 1_555 1_555
C15 C14 1_555 1_555
C16 C15 1_555 1_555
C17 C16 1_555 1_555
C18 N6 1_555 1_555
C19 C20 1_555 1_555
C20 C21 1_555 1_555
C21 C22 1_555 1_555
C22 C23 1_555 1_555
C23 N5 1_555 1_555
C24 N8 1_555 1_555
C25 C24 1_555 1_555
C26 C25 1_555 1_555
C27 N8 1_555 1_555
C28 C26 1_555 1_555
H2 C4 1_555 1_555
H3 C5 1_555 1_555
H4 C6 1_555 1_555
H5 C14 1_555 1_555
H6 C16 1_555 1_555
H7 C17 1_555 1_555
H8 C18 1_555 1_555
H9 C19 1_555 1_555
H10 C20 1_555 1_555
H11 C21 1_555 1_555
H12 C23 1_555 1_555
H13 C24 1_555 1_555
H14 C26 1_555 1_555
H15 C27 1_555 1_555
H16 C28 1_555 1_555
W1A C3A 1_555 1_555
I1A C15A 1_555 1_555
I2A C22A 1_555 1_555
I3A C1A 1_555 1_555
I4A C25A 1_555 1_555
Cu2A N7A 1_555 1_555
Cu2A_2 N10 1_555 1_555
Cu2_2 N12 1_555 1_555
Cu2_3 N10A 1_555 1_555
Cu2A_3 N12A 1_555 1_555
N1A C12A 1_555 1_555
N2A C7A 1_555 1_555
N3A C8A 1_555 1_555
N4A C13A 1_555 1_555
N5A Cu1 1_555 1_555
N6A Cu1 1_555 1_555
N7A C2A 1_555 1_555
N8A Cu2A 1_555 1_555
N9A Cu2A 1_555 1_555
N10A C3A 1_555 1_555
N10A_2 Cu2 1_555 1_555
N10_2 Cu2A 1_555 1_555
N11A Cu1 1_555 1_555
N12A C11A 1_555 1_555
N12_2 Cu2 1_555 1_555
N12A_2 Cu2A 1_555 1_555
C1A C2A 1_555 1_555
C2A H1A 1_555 1_555
C4A N7A 1_555 1_555
C5A C4A 1_555 1_555
C6A C1A 1_555 1_555
C7A W1A 1_555 1_555
C8A W1A 1_555 1_555
C9A W1A 1_555 1_555
C10A W1A 1_555 1_555
C11A W1A 1_555 1_555
C12A W1A 1_555 1_555
C13A W1A 1_555 1_555
C14A N6A 1_555 1_555
C15A C14A 1_555 1_555
C16A C15A 1_555 1_555
C17A C16A 1_555 1_555
C18A N6A 1_555 1_555
C19A N5A 1_555 1_555
C20A C19A 1_555 1_555
C21A C20A 1_555 1_555
C22A C21A 1_555 1_555
C23A N5A 1_555 1_555
C24A N8A 1_555 1_555
C25A C24A 1_555 1_555
C26A C25A 1_555 1_555
C27A N8A 1_555 1_555
C28A C26A 1_555 1_555
H2A C4A 1_555 1_555
H3A C5A 1_555 1_555
H4A C6A 1_555 1_555
H5A C14A 1_555 1_555
H6A C16A 1_555 1_555
H7A C17A 1_555 1_555
H8A C18A 1_555 1_555
H9A C19A 1_555 1_555
H10A C20A 1_555 1_555
H11A C21A 1_555 1_555
H12A C23A 1_555 1_555
H13A C24A 1_555 1_555
H14A C26A 1_555 1_555
H15A C27A 1_555 1_555
H16A C28A 1_555 1_555
N9 C9 1_555 1_555
N11 C10 1_555 1_555
C5 C6 1_555 1_555
C17 C18 1_555 1_555
C27 C28 1_555 1_555
N9A C9A 1_555 1_555
N11A C10A 1_555 1_555
C5A C6A 1_555 1_555
C17A C18A 1_555 1_555
C22A C23A 1_555 1_555
C27A C28A 1_555 1_555

#END
