
#######################################################################
#
#                 Cambridge Crystallographic Data Centre
#                                CCDC 
#
#######################################################################
#
# If this CIF has been generated from an entry in the Cambridge 
# Structural Database, then it will include bibliographic, chemical, 
# crystal, experimental, refinement or atomic coordinate data resulting 
# from the CCDC's data processing and validation procedures.
#
#######################################################################

data_PAPLID
_symmetry_cell_setting           triclinic
_symmetry_space_group_name_H-M   'P -1'
_symmetry_Int_Tables_number      2
_space_group_name_Hall           '-P 1'
loop_
_symmetry_equiv_pos_site_id
_symmetry_equiv_pos_as_xyz
1 x,y,z
2 -x,-y,-z
_cell_length_a                   8.0561(14)
_cell_length_b                   10.532(3)
_cell_length_c                   25.053(4)
_cell_angle_alpha                89.246(8)
_cell_angle_beta                 46.529(9)
_cell_angle_gamma                104.237(9)
_cell_volume                     1444.15
loop_
_atom_site_label
_atom_site_type_symbol
_atom_site_fract_x
_atom_site_fract_y
_atom_site_fract_z
C27 C 0.009(3) 0.4992(10) 0.4492(10)
C28 C -0.183(2) 0.5090(12) 0.5282(9)
C29 C 0.411(2) 0.4902(11) 0.3591(7)
H19 H 0.5541 0.4928 0.346
C30 C 0.2002(17) 0.4792(9) 0.3244(5)
H20 H 0.1957 0.4718 0.2876
C31 C 0.403(3) 0.4800(14) 0.3049(8)
H21 H 0.5382 0.4739 0.2556
C32 C 0.0014(16) 0.4884(9) 0.3936(6)
H22 H -0.1384 0.4877 0.405
C33 C -0.4240(18) 0.5161(9) 0.5716(6)
H23 H -0.4908 0.5147 0.5518
C34 C 0.208(2) 0.4966(11) 0.4325(7)
C35 C 0.5439(19) 0.4750(10) 0.3558(6)
H24 H 0.7027 0.4705 0.324
C36 C 0.2137(19) 0.4755(9) 0.3678(6)
H25 H 0.1482 0.4714 0.3474
C37 C -0.156(3) 0.4957(16) 0.5004(10)
C38 C 0.081(3) 0.4850(17) 0.4417(10)
C39 C 0.448(3) 0.4721(16) 0.3245(9)
H26 H 0.5454 0.4678 0.2732
N5 N -0.3234(13) 0.4938(7) 0.5012(4)
O5 O -0.2540(17) 0.4766(10) 0.4319(5)
H27 H -0.1246 0.459 0.4037
C27A C -0.009(3) 0.5008(10) 0.5508(10)
C28A C 0.183(2) 0.4910(12) 0.4718(9)
C29A C -0.411(2) 0.5098(11) 0.6409(7)
H19A H -0.5541 0.5072 0.654
C30A C -0.2002(17) 0.5208(9) 0.6756(5)
H20A H -0.1957 0.5282 0.7124
C31A C -0.403(3) 0.5200(14) 0.6951(8)
H21A H -0.5382 0.5261 0.7444
C32A C -0.0014(16) 0.5116(9) 0.6064(6)
H22A H 0.1384 0.5123 0.595
C33A C 0.4240(18) 0.4839(9) 0.4284(6)
H23A H 0.4908 0.4853 0.4482
C34A C -0.208(2) 0.5034(11) 0.5675(7)
C35A C -0.5439(19) 0.5250(10) 0.6442(6)
H24A H -0.7027 0.5295 0.676
C36A C -0.2137(19) 0.5245(9) 0.6322(6)
H25A H -0.1482 0.5286 0.6526
C37A C 0.156(3) 0.5043(16) 0.4996(10)
C38A C -0.081(3) 0.5150(17) 0.5583(10)
C39A C -0.448(3) 0.5279(16) 0.6755(9)
H26A H -0.5454 0.5322 0.7268
N5A N 0.3234(13) 0.5062(7) 0.4988(4)
O5A O 0.2540(17) 0.5234(10) 0.5681(5)
H27A H 0.1246 0.541 0.5963
C1 C -0.2878(5) 0.4403(3) 0.06023(17)
C2 C 0.2884(5) 0.0614(3) -0.06310(17)
C3 C -0.0904(6) 0.3223(4) -0.12300(18)
H1 H -0.1563 0.3816 -0.0911
C4 C -0.1030(6) 0.3154(4) -0.17519(19)
H2 H -0.1803 0.3668 -0.1777
C5 C -0.0007(6) 0.2319(4) -0.22448(18)
C6 C 0.1073(6) 0.1596(4) -0.21683(19)
H3 H 0.1827 0.1032 -0.2497
C7 C 0.1054(6) 0.1696(3) -0.16192(19)
H4 H 0.1758 0.1166 -0.1568
C8 C -0.0120(6) 0.2175(4) -0.28071(18)
C9 C -0.2198(6) 0.2150(4) -0.26249(19)
H5 H -0.3525 0.2266 -0.2145
C10 C -0.2338(6) 0.1956(4) -0.3139(2)
H6 H -0.3767 0.1932 -0.3009
C11 C -0.0397(6) 0.1797(4) -0.38446(18)
C12 C 0.1701(6) 0.1845(4) -0.40368(18)
H7 H 0.3046 0.1755 -0.4522
C13 C 0.1817(6) 0.2025(4) -0.35171(19)
H8 H 0.3245 0.2046 -0.3647
C14 C -0.0589(6) 0.1594(4) -0.43858(18)
C15 C -0.2289(6) 0.2090(4) 0.13336(19)
H9 H -0.3736 0.1956 0.1454
C16 C -0.2509(6) 0.1931(4) 0.19269(19)
H10 H -0.4069 0.1689 0.2437
C17 C -0.0443(6) 0.2126(4) 0.17779(18)
C18 C 0.1784(6) 0.2494(4) 0.10055(19)
H11 H 0.3266 0.2655 0.0867
C19 C 0.1820(6) 0.2620(4) 0.04526(18)
H12 H 0.3354 0.2863 -0.0064
C20 C -0.0582(6) 0.1940(4) 0.23912(18)
C21 C -0.2535(7) 0.2031(5) 0.3121(2)
H13 H -0.382 0.2214 0.3226
C22 C -0.2650(7) 0.1863(5) 0.3692(2)
H14 H -0.4001 0.193 0.4184
C23 C -0.0798(6) 0.1597(3) 0.35486(18)
C24 C 0.1134(6) 0.1470(4) 0.28317(19)
H15 H 0.2391 0.1262 0.2734
C25 C 0.1239(6) 0.1642(4) 0.22665(19)
H16 H 0.2579 0.1557 0.1779
C26 C -0.0797(6) 0.1470(4) 0.41390(18)
N1 N -0.2156(5) 0.3674(3) 0.02088(15)
N2 N 0.2168(5) 0.1351(3) -0.07130(14)
N3 N 0.0094(5) 0.2502(3) -0.11502(15)
N4 N -0.0169(5) 0.2422(3) 0.05935(15)
O1 O -0.2515(4) 0.1497(3) -0.41977(13)
O2 O 0.1346(4) 0.1537(3) -0.50518(13)
H17 H 0.1069 0.1414 -0.5318
O3 O -0.2781(4) 0.1452(3) 0.48185(13)
H18 H -0.2619 0.1388 0.5114
O4 O 0.1022(4) 0.1389(3) 0.39728(13)
S1 S -0.38730(15) 0.54448(9) 0.11559(5)
S2 S 0.38411(15) -0.04254(9) -0.04874(5)
Ni1 Ni -0.00124(8) 0.24971(5) -0.02875(2)
C1A C 0.2878(5) 0.5597(3) -0.06023(17)
C2A C -0.2884(5) -0.0614(3) 0.06310(17)
C3A C 0.0904(6) 0.6777(4) 0.12300(18)
H1A H 0.1563 0.6184 0.0911
C4A C 0.1030(6) 0.6846(4) 0.17519(19)
H2A H 0.1803 0.6332 0.1777
C5A C 0.0007(6) 0.7681(4) 0.22448(18)
C6A C -0.1073(6) 0.8404(4) 0.21683(19)
H3A H -0.1827 0.8968 0.2497
C7A C -0.1054(6) 0.8304(3) 0.16192(19)
H4A H -0.1758 0.8834 0.1568
C8A C 0.0120(6) 0.7825(4) 0.28071(18)
C9A C 0.2198(6) 0.7850(4) 0.26249(19)
H5A H 0.3525 0.7734 0.2145
C10A C 0.2338(6) 0.8044(4) 0.3139(2)
H6A H 0.3767 0.8068 0.3009
C11A C 0.0397(6) 0.8203(4) 0.38446(18)
C12A C -0.1701(6) 0.8155(4) 0.40368(18)
H7A H -0.3046 0.8245 0.4522
C13A C -0.1817(6) 0.7975(4) 0.35171(19)
H8A H -0.3245 0.7954 0.3647
C14A C 0.0589(6) 0.8406(4) 0.43858(18)
C15A C 0.2289(6) 0.7910(4) -0.13336(19)
H9A H 0.3736 0.8044 -0.1454
C16A C 0.2509(6) 0.8069(4) -0.19269(19)
H10A H 0.4069 0.8311 -0.2437
C17A C 0.0443(6) 0.7874(4) -0.17779(18)
C18A C -0.1784(6) 0.7506(4) -0.10055(19)
H11A H -0.3266 0.7345 -0.0867
C19A C -0.1820(6) 0.7380(4) -0.04526(18)
H12A H -0.3354 0.7137 0.0064
C20A C 0.0582(6) 0.8060(4) -0.23912(18)
C21A C 0.2535(7) 0.7969(5) -0.3121(2)
H13A H 0.382 0.7786 -0.3226
C22A C 0.2650(7) 0.8137(5) -0.3692(2)
H14A H 0.4001 0.807 -0.4184
C23A C 0.0798(6) 0.8403(3) -0.35486(18)
C24A C -0.1134(6) 0.8530(4) -0.28317(19)
H15A H -0.2391 0.8738 -0.2734
C25A C -0.1239(6) 0.8358(4) -0.22665(19)
H16A H -0.2579 0.8443 -0.1779
C26A C 0.0797(6) 0.8530(4) -0.41390(18)
N1A N 0.2156(5) 0.6326(3) -0.02088(15)
N2A N -0.2168(5) -0.1351(3) 0.07130(14)
N2A_2 N -0.2168(5) 0.8649(3) 0.07130(14)
N3A N -0.0094(5) 0.7498(3) 0.11502(15)
N4A N 0.0169(5) 0.7578(3) -0.05935(15)
O1A O 0.2515(4) 0.8503(3) 0.41977(13)
O2A O -0.1346(4) 0.8463(3) 0.50518(13)
H17A H -0.1069 0.8586 0.5318
O3A O 0.2781(4) 0.8548(3) -0.48185(13)
H18A H 0.2619 0.8612 -0.5114
O4A O -0.1022(4) 0.8611(3) -0.39728(13)
S1A S 0.38730(15) 0.45552(9) -0.11559(5)
S2A S -0.38411(15) 0.04254(9) 0.04874(5)
S2_2 S 0.38411(15) 0.95746(9) -0.04874(5)
Ni1A Ni 0.00124(8) 0.75029(5) 0.02875(2)
Ni1A_2 Ni 0.00124(8) -0.24971(5) 0.02875(2)
loop_
_geom_bond_atom_site_label_1
_geom_bond_atom_site_label_2
_geom_bond_site_symmetry_1
_geom_bond_site_symmetry_2
C1 N1 1_555 1_555
C2 N2 1_555 1_555
C3 H1 1_555 1_555
C4 C3 1_555 1_555
H2 C4 1_555 1_555
C5 C4 1_555 1_555
C6 C5 1_555 1_555
H3 C6 1_555 1_555
C7 C6 1_555 1_555
H4 C7 1_555 1_555
C8 C5 1_555 1_555
C9 C8 1_555 1_555
H5 C9 1_555 1_555
C10 C9 1_555 1_555
H6 C10 1_555 1_555
C11 C10 1_555 1_555
C12 C11 1_555 1_555
H7 C12 1_555 1_555
C13 C8 1_555 1_555
H8 C13 1_555 1_555
C14 C11 1_555 1_555
C15 H9 1_555 1_555
C16 C15 1_555 1_555
H10 C16 1_555 1_555
C17 C16 1_555 1_555
C18 C17 1_555 1_555
H11 C18 1_555 1_555
C19 C18 1_555 1_555
H12 C19 1_555 1_555
C20 C17 1_555 1_555
C21 C20 1_555 1_555
H13 C21 1_555 1_555
C22 C21 1_555 1_555
H14 C22 1_555 1_555
C23 C22 1_555 1_555
C24 C23 1_555 1_555
H15 C24 1_555 1_555
C25 C20 1_555 1_555
H16 C25 1_555 1_555
C26 C23 1_555 1_555
N1 Ni1 1_555 1_555
N2 Ni1 1_555 1_555
N3 C3 1_555 1_555
N4 C15 1_555 1_555
O1 C14 1_555 1_555
O2 C14 1_555 1_555
H17 O2 1_555 1_555
O3 C26 1_555 1_555
H18 O3 1_555 1_555
O4 C26 1_555 1_555
S1 C1 1_555 1_555
S2 C2 1_555 1_555
Ni1 N3 1_555 1_555
C27 C28 1_555 1_555
C28 C33 1_555 1_555
C29 H19 1_555 1_555
H19 C35 1_555 1_555
C30 H20 1_555 1_555
C31 C29 1_555 1_555
H21 C31 1_555 1_555
C32 C27 1_555 1_555
H22 C32 1_555 1_555
C33 H23 1_555 1_555
H23 N5 1_555 1_555
C34 C27 1_555 1_555
C35 C29 1_555 1_555
H24 C35 1_555 1_555
C36 C27 1_555 1_555
H25 C30 1_555 1_555
C37 C27 1_555 1_555
C38 C27 1_555 1_555
C39 C29 1_555 1_555
H26 C31 1_555 1_555
N5 C28 1_555 1_555
O5 C32 1_555 1_555
H27 C32 1_555 1_555
C1A N1A 1_555 1_555
C2A N2A 1_555 1_555
C3A H1A 1_555 1_555
C4A C3A 1_555 1_555
H2A C4A 1_555 1_555
C5A C4A 1_555 1_555
C6A C5A 1_555 1_555
H3A C6A 1_555 1_555
C7A C6A 1_555 1_555
H4A C7A 1_555 1_555
C8A C5A 1_555 1_555
C9A C8A 1_555 1_555
H5A C9A 1_555 1_555
C10A C9A 1_555 1_555
H6A C10A 1_555 1_555
C11A C10A 1_555 1_555
C12A C11A 1_555 1_555
H7A C12A 1_555 1_555
C13A C8A 1_555 1_555
H8A C13A 1_555 1_555
C14A C11A 1_555 1_555
C15A H9A 1_555 1_555
C16A C15A 1_555 1_555
H10A C16A 1_555 1_555
C17A C16A 1_555 1_555
C18A C17A 1_555 1_555
H11A C18A 1_555 1_555
C19A C18A 1_555 1_555
H12A C19A 1_555 1_555
C20A C17A 1_555 1_555
C21A C20A 1_555 1_555
H13A C21A 1_555 1_555
C22A C21A 1_555 1_555
H14A C22A 1_555 1_555
C23A C22A 1_555 1_555
C24A C23A 1_555 1_555
H15A C24A 1_555 1_555
C25A C20A 1_555 1_555
H16A C25A 1_555 1_555
C26A C23A 1_555 1_555
N1A Ni1A 1_555 1_555
N2A Ni1A_2 1_555 1_555
N2A_2 Ni1A 1_555 1_555
N3A C3A 1_555 1_555
N4A C15A 1_555 1_555
O1A C14A 1_555 1_555
O2A C14A 1_555 1_555
H17A O2A 1_555 1_555
O3A C26A 1_555 1_555
H18A O3A 1_555 1_555
O4A C26A 1_555 1_555
S1A Ni1 1_555 1_555
S2A Ni1 1_555 1_555
S2_2 Ni1A 1_555 1_555
Ni1A S1 1_555 1_555
Ni1A_2 S2 1_555 1_555
C27A C28A 1_555 1_555
C28A C34 1_555 1_555
C29A H19A 1_555 1_555
H19A C35A 1_555 1_555
C30A H20A 1_555 1_555
C31A C29A 1_555 1_555
H21A C31A 1_555 1_555
C32A C27A 1_555 1_555
H22A C32A 1_555 1_555
C33A C34 1_555 1_555
H23A C33A 1_555 1_555
C34A C28 1_555 1_555
C35A C33 1_555 1_555
H24A C35A 1_555 1_555
C36A C27A 1_555 1_555
H25A C30A 1_555 1_555
C37A C34 1_555 1_555
C38A C28 1_555 1_555
C39A C29A 1_555 1_555
H26A C31A 1_555 1_555
N5A C28A 1_555 1_555
O5A C32A 1_555 1_555
H27A C32A 1_555 1_555
C7 N3 1_555 1_555
C12 C13 1_555 1_555
C19 N4 1_555 1_555
C24 C25 1_555 1_555
N4 Ni1 1_555 1_555
C28 C37 1_555 1_555
C29 C34 1_555 1_555
C29 C36 1_555 1_555
H19 C39 1_555 1_555
C30 C31 1_555 1_555
C30 C32 1_555 1_555
C30 C36 1_555 1_555
C31 C36 1_555 1_555
C31 C39 1_555 1_555
H21 H26 1_555 1_555
C32 C36 1_555 1_555
C32 H25 1_555 1_555
C32 C38 1_555 1_555
H22 O5 1_555 1_555
H22 H27 1_555 1_555
C33 C37 1_555 1_555
C33 N5 1_555 1_555
C33 C34A 1_555 1_555
C34 C36 1_555 1_555
C34 C38 1_555 1_555
C35 C39 1_555 1_555
C35 C33A 1_555 1_555
C36 H25 1_555 1_555
C36 C38 1_555 1_555
C36 C39 1_555 1_555
C37 C38 1_555 1_555
C37 N5 1_555 1_555
C37 C34A 1_555 1_555
C38 C28A 1_555 1_555
C39 H26 1_555 1_555
N5 O5 1_555 1_555
O5 H27 1_555 1_555
C1A S1A 1_555 1_555
C2A S2A 1_555 1_555
C7A N3A 1_555 1_555
C12A C13A 1_555 1_555
C19A N4A 1_555 1_555
C24A C25A 1_555 1_555
N3A Ni1A 1_555 1_555
N4A Ni1A 1_555 1_555
C27A C34A 1_555 1_555
C27A C37A 1_555 1_555
C27A C38A 1_555 1_555
C28A C33A 1_555 1_555
C28A C37A 1_555 1_555
C29A C34A 1_555 1_555
C29A C35A 1_555 1_555
C29A C36A 1_555 1_555
H19A C39A 1_555 1_555
C30A C31A 1_555 1_555
C30A C32A 1_555 1_555
C30A C36A 1_555 1_555
C31A C36A 1_555 1_555
C31A C39A 1_555 1_555
H21A H26A 1_555 1_555
C32A C36A 1_555 1_555
C32A H25A 1_555 1_555
C32A C38A 1_555 1_555
H22A O5A 1_555 1_555
H22A H27A 1_555 1_555
C33A C37A 1_555 1_555
C33A N5A 1_555 1_555
H23A N5A 1_555 1_555
C34A C36A 1_555 1_555
C34A C38A 1_555 1_555
C35A C39A 1_555 1_555
C36A H25A 1_555 1_555
C36A C38A 1_555 1_555
C36A C39A 1_555 1_555
C37A C38A 1_555 1_555
C37A N5A 1_555 1_555
C39A H26A 1_555 1_555
N5A O5A 1_555 1_555
O5A H27A 1_555 1_555

#END
