
#######################################################################
#
#                 Cambridge Crystallographic Data Centre
#                                CCDC 
#
#######################################################################
#
# If this CIF has been generated from an entry in the Cambridge 
# Structural Database, then it will include bibliographic, chemical, 
# crystal, experimental, refinement or atomic coordinate data resulting 
# from the CCDC's data processing and validation procedures.
#
#######################################################################

data_PAPLOJ
_symmetry_cell_setting           triclinic
_symmetry_space_group_name_H-M   'P -1'
_symmetry_Int_Tables_number      2
_space_group_name_Hall           '-P 1'
loop_
_symmetry_equiv_pos_site_id
_symmetry_equiv_pos_as_xyz
1 x,y,z
2 -x,-y,-z
_cell_length_a                   8.080(3)
_cell_length_b                   10.559(4)
_cell_length_c                   25.127(8)
_cell_angle_alpha                90.539(14)
_cell_angle_beta                 46.499(17)
_cell_angle_gamma                104.295(16)
_cell_volume                     1467.01
loop_
_atom_site_label
_atom_site_type_symbol
_atom_site_fract_x
_atom_site_fract_y
_atom_site_fract_z
C15 C -0.2876(5) 0.4432(3) 0.06069(15)
C16 C 0.2880(5) 0.0598(3) -0.06272(15)
C17 C 0.0976(6) 0.1630(3) -0.15936(16)
H11 H 0.168 0.1099 -0.1547
C18 C 0.0989(6) 0.1525(3) -0.21454(17)
H12 H 0.1744 0.0957 -0.2479
C19 C -0.0110(5) 0.2256(3) -0.22112(15)
C20 C -0.1116(6) 0.3094(3) -0.17173(16)
H13 H -0.1891 0.3608 -0.1738
C21 C -0.0992(6) 0.3180(3) -0.11968(16)
H14 H -0.1646 0.3782 -0.0876
C22 C -0.0205(5) 0.2111(3) -0.27789(15)
C23 C 0.1750(6) 0.1958(3) -0.34907(16)
H15 H 0.3173 0.1978 -0.362
C24 C 0.1620(6) 0.1776(3) -0.40098(16)
H16 H 0.2954 0.1673 -0.4493
C25 C -0.0468(6) 0.1745(3) -0.38233(16)
C26 C -0.2421(6) 0.1904(3) -0.31154(16)
H17 H -0.3845 0.188 -0.2987
C27 C -0.2277(6) 0.2097(3) -0.25984(16)
H18 H -0.3598 0.2221 -0.2119
C28 C -0.0650(6) 0.1557(3) -0.43708(17)
C29 C -0.2294(6) 0.2127(4) 0.13361(16)
H19 H -0.3727 0.1993 0.1451
C30 C -0.2502(6) 0.1992(4) 0.19291(17)
H20 H -0.4043 0.1777 0.2434
C31 C -0.0442(5) 0.2171(3) 0.17846(16)
C32 C 0.1759(6) 0.2512(4) 0.10231(16)
H21 H 0.3226 0.2666 0.089
C33 C 0.1801(6) 0.2624(3) 0.04674(16)
H22 H 0.3317 0.2846 -0.0043
C34 C -0.0583(5) 0.1999(3) 0.24012(16)
C35 C -0.2546(6) 0.2076(4) 0.31253(17)
H23 H -0.3847 0.2241 0.3235
C36 C -0.2634(6) 0.1916(4) 0.36923(18)
H24 H -0.3986 0.1984 0.4184
C37 C -0.0789(5) 0.1658(3) 0.35533(16)
C38 C 0.1150(6) 0.1541(4) 0.28372(17)
H25 H 0.2418 0.1345 0.2736
C39 C 0.1253(6) 0.1708(4) 0.22697(17)
H26 H 0.2594 0.1624 0.1782
C40 C -0.0803(6) 0.1508(3) 0.41464(16)
N1 N -0.2176(4) 0.3669(3) 0.02280(13)
N2 N 0.2146(4) 0.1321(2) -0.07006(13)
N3 N 0.0017(5) 0.2447(3) -0.11222(13)
N4 N -0.0190(4) 0.2436(3) 0.06097(13)
O1 O 0.1310(4) 0.1531(2) -0.50399(11)
H27 H 0.1057 0.142 -0.5313
O2 O -0.2582(4) 0.1448(3) -0.41806(12)
O3 O -0.2790(4) 0.1463(3) 0.48205(11)
H28 H -0.2648 0.1378 0.5118
O4 O 0.1034(4) 0.1437(2) 0.39749(11)
S1 S -0.38530(15) 0.55081(8) 0.11446(4)
S2 S 0.38676(14) -0.04317(8) -0.04963(4)
Ni1 Ni -0.00468(8) 0.24728(4) -0.02706(2)
C15A C 0.2876(5) 0.5568(3) -0.06069(15)
C16A C -0.2880(5) -0.0598(3) 0.06272(15)
C17A C -0.0976(6) 0.8370(3) 0.15936(16)
H11A H -0.168 0.8901 0.1547
C18A C -0.0989(6) 0.8475(3) 0.21454(17)
H12A H -0.1744 0.9043 0.2479
C19A C 0.0110(5) 0.7744(3) 0.22112(15)
C20A C 0.1116(6) 0.6906(3) 0.17173(16)
H13A H 0.1891 0.6392 0.1738
C21A C 0.0992(6) 0.6820(3) 0.11968(16)
H14A H 0.1646 0.6218 0.0876
C22A C 0.0205(5) 0.7889(3) 0.27789(15)
C23A C -0.1750(6) 0.8042(3) 0.34907(16)
H15A H -0.3173 0.8022 0.362
C24A C -0.1620(6) 0.8224(3) 0.40098(16)
H16A H -0.2954 0.8327 0.4493
C25A C 0.0468(6) 0.8255(3) 0.38233(16)
C26A C 0.2421(6) 0.8096(3) 0.31154(16)
H17A H 0.3845 0.812 0.2987
C27A C 0.2277(6) 0.7903(3) 0.25984(16)
H18A H 0.3598 0.7779 0.2119
C28A C 0.0650(6) 0.8443(3) 0.43708(17)
C29A C 0.2294(6) 0.7873(4) -0.13361(16)
H19A H 0.3727 0.8007 -0.1451
C30A C 0.2502(6) 0.8008(4) -0.19291(17)
H20A H 0.4043 0.8223 -0.2434
C31A C 0.0442(5) 0.7829(3) -0.17846(16)
C32A C -0.1759(6) 0.7488(4) -0.10231(16)
H21A H -0.3226 0.7334 -0.089
C33A C -0.1801(6) 0.7376(3) -0.04674(16)
H22A H -0.3317 0.7154 0.0043
C34A C 0.0583(5) 0.8001(3) -0.24012(16)
C35A C 0.2546(6) 0.7924(4) -0.31253(17)
H23A H 0.3847 0.7759 -0.3235
C36A C 0.2634(6) 0.8084(4) -0.36923(18)
H24A H 0.3986 0.8016 -0.4184
C37A C 0.0789(5) 0.8342(3) -0.35533(16)
C38A C -0.1150(6) 0.8459(4) -0.28372(17)
H25A H -0.2418 0.8655 -0.2736
C39A C -0.1253(6) 0.8292(4) -0.22697(17)
H26A H -0.2594 0.8376 -0.1782
C40A C 0.0803(6) 0.8492(3) -0.41464(16)
N1A N 0.2176(4) 0.6331(3) -0.02280(13)
N2A N -0.2146(4) -0.1321(2) 0.07006(13)
N2A_2 N -0.2146(4) 0.8679(2) 0.07006(13)
N3A N -0.0017(5) 0.7553(3) 0.11222(13)
N4A N 0.0190(4) 0.7564(3) -0.06097(13)
O1A O -0.1310(4) 0.8469(2) 0.50399(11)
H27A H -0.1057 0.858 0.5313
O2A O 0.2582(4) 0.8552(3) 0.41806(12)
O3A O 0.2790(4) 0.8537(3) -0.48205(11)
H28A H 0.2648 0.8622 -0.5118
O4A O -0.1034(4) 0.8563(2) -0.39749(11)
S1A S 0.38530(15) 0.44919(8) -0.11446(4)
S2A S -0.38676(14) 0.04317(8) 0.04963(4)
S2_2 S 0.38676(14) 0.95683(8) -0.04963(4)
Ni1A Ni 0.00468(8) 0.75272(4) 0.02706(2)
Ni1A_2 Ni 0.00468(8) -0.24728(4) 0.02706(2)
C1 C 0.465(7) 0.491(2) 0.3007(16)
H1 H 0.5908 0.4848 0.2502
C2 C 0.232(6) 0.492(2) 0.3319(17)
H2 H 0.2006 0.4884 0.3016
C3 C 0.061(4) 0.497(2) 0.4053(11)
H3 H -0.0877 0.5019 0.425
C4 C 0.093(5) 0.496(2) 0.4545(14)
C5 C 0.309(7) 0.500(4) 0.427(2)
C6 C 0.487(6) 0.499(3) 0.351(2)
H4 H 0.6397 0.5041 0.3318
C7 C 0.3371(17) 0.5033(9) 0.4777(5)
H5 H 0.4866 0.5016 0.4586
C8 C 0.439(7) 0.479(2) 0.3165(15)
H6 H 0.556 0.4778 0.2646
C9 C 0.236(6) 0.480(2) 0.3446(16)
H7 H 0.2068 0.4774 0.3138
C10 C 0.042(4) 0.484(2) 0.4249(10)
C11 C 0.098(5) 0.497(3) 0.4666(14)
C12 C 0.330(6) 0.490(4) 0.430(2)
H8 H 0.3677 0.4933 0.4587
C13 C 0.509(7) 0.479(3) 0.354(2)
H9 H 0.6598 0.4722 0.331
C14 C -0.1660(18) 0.4913(8) 0.4497(5)
H10 H -0.1896 0.4925 0.4176
C1A C -0.465(7) 0.509(2) 0.6993(16)
H1A H -0.5908 0.5152 0.7498
C2A C -0.232(6) 0.508(2) 0.6681(17)
H2A H -0.2006 0.5116 0.6984
C3A C -0.061(4) 0.503(2) 0.5947(11)
H3A H 0.0877 0.4981 0.575
C4A C -0.093(5) 0.504(2) 0.5455(14)
C5A C -0.309(7) 0.500(4) 0.573(2)
C6A C -0.487(6) 0.501(3) 0.649(2)
H4A H -0.6397 0.4959 0.6682
C7A C -0.3371(17) 0.4967(9) 0.5223(5)
H5A H -0.4866 0.4984 0.5414
C8A C -0.439(7) 0.521(2) 0.6835(15)
H6A H -0.556 0.5222 0.7354
C9A C -0.236(6) 0.520(2) 0.6554(16)
H7A H -0.2068 0.5226 0.6862
C10A C -0.042(4) 0.516(2) 0.5751(10)
C11A C -0.098(5) 0.503(3) 0.5334(14)
C12A C -0.330(6) 0.510(4) 0.570(2)
H8A H -0.3677 0.5067 0.5413
C13A C -0.509(7) 0.521(3) 0.646(2)
H9A H -0.6598 0.5278 0.669
C14A C 0.1660(18) 0.5087(8) 0.5503(5)
H10A H 0.1896 0.5075 0.5824
loop_
_geom_bond_atom_site_label_1
_geom_bond_atom_site_label_2
_geom_bond_site_symmetry_1
_geom_bond_site_symmetry_2
C1 H1 1_555 1_555
H1 C8 1_555 1_555
C2 C1 1_555 1_555
H2 C2 1_555 1_555
C3 C2 1_555 1_555
H3 C3 1_555 1_555
C4 C3 1_555 1_555
C5 C4 1_555 1_555
C6 C1 1_555 1_555
H4 C6 1_555 1_555
C7 C5 1_555 1_555
H5 C7 1_555 1_555
C8 C1 1_555 1_555
H6 C1 1_555 1_555
C9 C1 1_555 1_555
H7 C2 1_555 1_555
C10 C2 1_555 1_555
C11 C3 1_555 1_555
C12 C4 1_555 1_555
H8 C5 1_555 1_555
C13 C1 1_555 1_555
H9 C6 1_555 1_555
C14 C3 1_555 1_555
H10 C14 1_555 1_555
C15 N1 1_555 1_555
C16 N2 1_555 1_555
C17 H11 1_555 1_555
C18 C17 1_555 1_555
H12 C18 1_555 1_555
C19 C18 1_555 1_555
C20 C19 1_555 1_555
H13 C20 1_555 1_555
C21 C20 1_555 1_555
H14 C21 1_555 1_555
C22 C19 1_555 1_555
C23 C22 1_555 1_555
H15 C23 1_555 1_555
C24 C23 1_555 1_555
H16 C24 1_555 1_555
C25 C24 1_555 1_555
C26 C25 1_555 1_555
H17 C26 1_555 1_555
C27 C22 1_555 1_555
H18 C27 1_555 1_555
C28 C25 1_555 1_555
C29 H19 1_555 1_555
C30 C29 1_555 1_555
H20 C30 1_555 1_555
C31 C30 1_555 1_555
C32 C31 1_555 1_555
H21 C32 1_555 1_555
C33 C32 1_555 1_555
H22 C33 1_555 1_555
C34 C31 1_555 1_555
C35 C34 1_555 1_555
H23 C35 1_555 1_555
C36 C35 1_555 1_555
H24 C36 1_555 1_555
C37 C36 1_555 1_555
C38 C37 1_555 1_555
H25 C38 1_555 1_555
C39 C34 1_555 1_555
H26 C39 1_555 1_555
C40 C37 1_555 1_555
N1 Ni1 1_555 1_555
N2 Ni1 1_555 1_555
N3 C17 1_555 1_555
N4 C29 1_555 1_555
O1 C28 1_555 1_555
H27 O1 1_555 1_555
O2 C28 1_555 1_555
O3 C40 1_555 1_555
H28 O3 1_555 1_555
O4 C40 1_555 1_555
S1 C15 1_555 1_555
S2 C16 1_555 1_555
Ni1 N3 1_555 1_555
C1A H1A 1_555 1_555
H1A C8A 1_555 1_555
C2A C1A 1_555 1_555
H2A C2A 1_555 1_555
C3A C2A 1_555 1_555
H3A C3A 1_555 1_555
C4A C4 1_555 1_555
C5A C4A 1_555 1_555
C6A C1A 1_555 1_555
H4A C6A 1_555 1_555
C7A C14 1_555 1_555
H5A C7A 1_555 1_555
C8A C1A 1_555 1_555
H6A C1A 1_555 1_555
C9A C1A 1_555 1_555
H7A C2A 1_555 1_555
C10A C2A 1_555 1_555
C11A C4 1_555 1_555
C12A C4A 1_555 1_555
H8A C5A 1_555 1_555
C13A C1A 1_555 1_555
H9A C6A 1_555 1_555
C14A C7 1_555 1_555
H10A C14A 1_555 1_555
C15A N1A 1_555 1_555
C16A N2A 1_555 1_555
C17A H11A 1_555 1_555
C18A C17A 1_555 1_555
H12A C18A 1_555 1_555
C19A C18A 1_555 1_555
C20A C19A 1_555 1_555
H13A C20A 1_555 1_555
C21A C20A 1_555 1_555
H14A C21A 1_555 1_555
C22A C19A 1_555 1_555
C23A C22A 1_555 1_555
H15A C23A 1_555 1_555
C24A C23A 1_555 1_555
H16A C24A 1_555 1_555
C25A C24A 1_555 1_555
C26A C25A 1_555 1_555
H17A C26A 1_555 1_555
C27A C22A 1_555 1_555
H18A C27A 1_555 1_555
C28A C25A 1_555 1_555
C29A H19A 1_555 1_555
C30A C29A 1_555 1_555
H20A C30A 1_555 1_555
C31A C30A 1_555 1_555
C32A C31A 1_555 1_555
H21A C32A 1_555 1_555
C33A C32A 1_555 1_555
H22A C33A 1_555 1_555
C34A C31A 1_555 1_555
C35A C34A 1_555 1_555
H23A C35A 1_555 1_555
C36A C35A 1_555 1_555
H24A C36A 1_555 1_555
C37A C36A 1_555 1_555
C38A C37A 1_555 1_555
H25A C38A 1_555 1_555
C39A C34A 1_555 1_555
H26A C39A 1_555 1_555
C40A C37A 1_555 1_555
N1A Ni1A 1_555 1_555
N2A Ni1A_2 1_555 1_555
N2A_2 Ni1A 1_555 1_555
N3A C17A 1_555 1_555
N4A C29A 1_555 1_555
O1A C28A 1_555 1_555
H27A O1A 1_555 1_555
O2A C28A 1_555 1_555
O3A C40A 1_555 1_555
H28A O3A 1_555 1_555
O4A C40A 1_555 1_555
S1A Ni1 1_555 1_555
S2A Ni1 1_555 1_555
S2_2 Ni1A 1_555 1_555
Ni1A S1 1_555 1_555
Ni1A_2 S2 1_555 1_555
H1 H6 1_555 1_555
C2 C8 1_555 1_555
C2 C9 1_555 1_555
H2 C9 1_555 1_555
H2 H7 1_555 1_555
C3 C9 1_555 1_555
C3 C10 1_555 1_555
H3 C10 1_555 1_555
H3 C14 1_555 1_555
C4 C10 1_555 1_555
C4 C11 1_555 1_555
C5 C6 1_555 1_555
C5 C11 1_555 1_555
C5 C12 1_555 1_555
C5 C13 1_555 1_555
C6 C8 1_555 1_555
C6 C12 1_555 1_555
C6 C13 1_555 1_555
H4 C13 1_555 1_555
H4 H9 1_555 1_555
C7 C12 1_555 1_555
C7 H8 1_555 1_555
C8 H6 1_555 1_555
C8 C9 1_555 1_555
C8 C13 1_555 1_555
C9 H7 1_555 1_555
C9 C10 1_555 1_555
C10 C11 1_555 1_555
C10 C14 1_555 1_555
C11 C12 1_555 1_555
C11 C4A 1_555 1_555
C11 C11A 1_555 1_555
C12 H8 1_555 1_555
C12 C13 1_555 1_555
C13 H9 1_555 1_555
C21 N3 1_555 1_555
C26 C27 1_555 1_555
C33 N4 1_555 1_555
C38 C39 1_555 1_555
N4 Ni1 1_555 1_555
H1A H6A 1_555 1_555
C2A C8A 1_555 1_555
C2A C9A 1_555 1_555
H2A C9A 1_555 1_555
H2A H7A 1_555 1_555
C3A C4A 1_555 1_555
C3A C9A 1_555 1_555
C3A C10A 1_555 1_555
C3A C11A 1_555 1_555
C3A C14A 1_555 1_555
H3A C10A 1_555 1_555
H3A C14A 1_555 1_555
C4A C10A 1_555 1_555
C4A C11A 1_555 1_555
C5A C6A 1_555 1_555
C5A C7A 1_555 1_555
C5A C11A 1_555 1_555
C5A C12A 1_555 1_555
C5A C13A 1_555 1_555
C6A C8A 1_555 1_555
C6A C12A 1_555 1_555
C6A C13A 1_555 1_555
H4A C13A 1_555 1_555
H4A H9A 1_555 1_555
C7A C12A 1_555 1_555
C7A H8A 1_555 1_555
C8A H6A 1_555 1_555
C8A C9A 1_555 1_555
C8A C13A 1_555 1_555
C9A H7A 1_555 1_555
C9A C10A 1_555 1_555
C10A C11A 1_555 1_555
C10A C14A 1_555 1_555
C11A C12A 1_555 1_555
C12A H8A 1_555 1_555
C12A C13A 1_555 1_555
C13A H9A 1_555 1_555
C15A S1A 1_555 1_555
C16A S2A 1_555 1_555
C21A N3A 1_555 1_555
C26A C27A 1_555 1_555
C33A N4A 1_555 1_555
C38A C39A 1_555 1_555
N3A Ni1A 1_555 1_555
N4A Ni1A 1_555 1_555

#END
