
#######################################################################
#
#                 Cambridge Crystallographic Data Centre
#                                CCDC 
#
#######################################################################
#
# If this CIF has been generated from an entry in the Cambridge 
# Structural Database, then it will include bibliographic, chemical, 
# crystal, experimental, refinement or atomic coordinate data resulting 
# from the CCDC's data processing and validation procedures.
#
#######################################################################

data_PAPLAV
_symmetry_cell_setting           triclinic
_symmetry_space_group_name_H-M   'P -1'
_symmetry_Int_Tables_number      2
_space_group_name_Hall           '-P 1'
loop_
_symmetry_equiv_pos_site_id
_symmetry_equiv_pos_as_xyz
1 x,y,z
2 -x,-y,-z
_cell_length_a                   7.9949(5)
_cell_length_b                   10.5604(6)
_cell_length_c                   25.1285(10)
_cell_angle_alpha                90.129(2)
_cell_angle_beta                 46.516(2)
_cell_angle_gamma                104.497(2)
_cell_volume                     1446.03
loop_
_atom_site_label
_atom_site_type_symbol
_atom_site_fract_x
_atom_site_fract_y
_atom_site_fract_z
C27 C -0.1277(19) 0.4714(9) 0.4498(7)
H19 H -0.2966 0.456 0.4803
C28 C -0.0326(18) 0.5015(9) 0.4800(4)
C29 C -0.2145(19) 0.4760(10) 0.5647(6)
H20 H -0.2795 0.4554 0.544
C30 C -0.3665(17) 0.4836(11) 0.6397(6)
H21 H -0.5353 0.4682 0.6703
C31 C -0.271(3) 0.5138(11) 0.6700(5)
H22 H -0.3752 0.519 0.7212
C32 C 0.024(3) 0.4637(10) 0.3748(7)
H23 H -0.0407 0.4431 0.3541
C33 C -0.5649(13) 0.5485(8) 0.6730(5)
H24 H -0.7101 0.568 0.6976
C34 C -0.4129(18) 0.5402(9) 0.5980(5)
H25 H -0.4542 0.554 0.5715
C35 C 0.2006(17) 0.4884(10) 0.4380(4)
C36 C 0.1403(15) 0.5087(10) 0.3992(5)
H26 H -0.0048 0.5283 0.4238
C37 C -0.2923(19) 0.4996(11) 0.6757(6)
H27 H -0.2511 0.4857 0.7023
C38 C -0.5046(17) 0.5281(9) 0.7118(4)
H28 H -0.6085 0.5338 0.763
C27A C 0.1277(19) 0.5286(9) 0.5502(7)
H19A H 0.2966 0.544 0.5197
C28A C 0.0326(18) 0.4985(9) 0.5200(4)
C29A C 0.2145(19) 0.5240(10) 0.4353(6)
H20A H 0.2795 0.5446 0.456
C30A C 0.3665(17) 0.5164(11) 0.3603(6)
H21A H 0.5353 0.5318 0.3297
C31A C 0.271(3) 0.4862(11) 0.3300(5)
H22A H 0.3752 0.481 0.2788
C32A C -0.024(3) 0.5363(10) 0.6252(7)
H23A H 0.0407 0.5569 0.6459
C33A C 0.5649(13) 0.4515(8) 0.3270(5)
H24A H 0.7101 0.432 0.3024
C34A C 0.4129(18) 0.4598(9) 0.4020(5)
H25A H 0.4542 0.446 0.4285
C35A C -0.2006(17) 0.5116(10) 0.5620(4)
C36A C -0.1403(15) 0.4913(10) 0.6008(5)
H26A H 0.0048 0.4717 0.5762
C37A C 0.2923(19) 0.5004(11) 0.3243(6)
H27A H 0.2511 0.5143 0.2977
C38A C 0.5046(17) 0.4719(9) 0.2882(4)
H28A H 0.6085 0.4662 0.237
C1 C -0.2869(7) 0.4432(4) 0.0590(2)
C2 C 0.2897(7) 0.0600(4) -0.0628(2)
C3 C -0.2343(8) 0.2131(5) 0.1348(3)
H1 H -0.3785 0.2034 0.1464
C4 C -0.2545(8) 0.1984(6) 0.1939(3)
H2 H -0.4097 0.1798 0.2445
C5 C -0.0481(8) 0.2109(5) 0.1796(2)
C6 C 0.1708(8) 0.2409(5) 0.1038(2)
H3 H 0.3183 0.2513 0.0904
C7 C 0.1772(7) 0.2557(4) 0.0482(2)
H4 H 0.3314 0.2782 -0.003
C8 C -0.0622(8) 0.1934(5) 0.2410(2)
C9 C -0.2886(17) 0.1504(11) 0.3185(5)
H5 H -0.4369 0.133 0.3316
C10 C -0.2998(17) 0.1331(11) 0.3761(5)
H6 H -0.4529 0.1032 0.4277
C11 C 0.125(2) 0.1831(11) 0.2837(6)
H7 H 0.2711 0.188 0.2703
C12 C 0.135(2) 0.1995(11) 0.2268(6)
H8 H 0.2875 0.2158 0.1758
C13 C -0.0784(8) 0.1609(5) 0.3556(2)
C14 C -0.0784(8) 0.1476(5) 0.4144(3)
C15 C -0.0962(8) 0.3183(4) -0.1202(2)
H9 H -0.1647 0.3767 -0.0875
C16 C -0.1074(8) 0.3126(5) -0.1725(2)
H10 H -0.1864 0.3638 -0.1742
C17 C -0.0001(7) 0.2298(4) -0.2237(2)
C18 C 0.1077(8) 0.1574(4) -0.2162(2)
H11 H 0.1853 0.1015 -0.2495
C19 C 0.1026(8) 0.1666(4) -0.1601(2)
H12 H 0.1722 0.113 -0.155
C20 C -0.0114(7) 0.2162(4) -0.2798(2)
C21 C -0.2213(8) 0.2110(5) -0.2617(2)
H13 H -0.3561 0.2218 -0.2136
C22 C -0.2360(8) 0.1901(5) -0.3133(2)
H14 H -0.3824 0.1838 -0.2997
C23 C -0.0372(7) 0.1786(4) -0.3844(2)
C24 C 0.1764(8) 0.1872(4) -0.4037(2)
H15 H 0.3137 0.1805 -0.4527
C25 C 0.1895(8) 0.2052(4) -0.3522(2)
H16 H 0.3354 0.2103 -0.3657
C26 C -0.0577(8) 0.1572(4) -0.4387(2)
N1 N -0.2173(6) 0.3667(3) 0.02229(19)
N2 N 0.2143(6) 0.1326(3) -0.06982(19)
N3 N -0.0225(6) 0.2401(3) 0.06223(19)
N4 N 0.0049(6) 0.2468(3) -0.11273(18)
O1 O -0.2774(7) 0.1437(6) 0.4819(2)
H17 H -0.2611 0.1363 0.5113
O2 O 0.1027(5) 0.1415(3) 0.39805(17)
O3 O -0.2517(6) 0.1426(4) -0.41960(18)
O4 O 0.1412(5) 0.1566(3) -0.50581(17)
H18 H 0.1146 0.144 -0.5328
S1 S -0.38629(19) 0.55188(10) 0.11176(6)
S2 S 0.38944(18) -0.04237(10) -0.04992(6)
Ni1 Ni -0.00521(10) 0.24677(5) -0.02668(3)
C1A C 0.2869(7) 0.5568(4) -0.0590(2)
C2A C -0.2897(7) -0.0600(4) 0.0628(2)
C3A C 0.2343(8) 0.7869(5) -0.1348(3)
H1A H 0.3785 0.7966 -0.1464
C4A C 0.2545(8) 0.8016(6) -0.1939(3)
H2A H 0.4097 0.8202 -0.2445
C5A C 0.0481(8) 0.7891(5) -0.1796(2)
C6A C -0.1708(8) 0.7591(5) -0.1038(2)
H3A H -0.3183 0.7487 -0.0904
C7A C -0.1772(7) 0.7443(4) -0.0482(2)
H4A H -0.3314 0.7218 0.003
C8A C 0.0622(8) 0.8066(5) -0.2410(2)
C9A C 0.2886(17) 0.8496(11) -0.3185(5)
H5A H 0.4369 0.867 -0.3316
C10A C 0.2998(17) 0.8669(11) -0.3761(5)
H6A H 0.4529 0.8968 -0.4277
C11A C -0.125(2) 0.8169(11) -0.2837(6)
H7A H -0.2711 0.812 -0.2703
C12A C -0.135(2) 0.8005(11) -0.2268(6)
H8A H -0.2875 0.7842 -0.1758
C13A C 0.0784(8) 0.8391(5) -0.3556(2)
C14A C 0.0784(8) 0.8524(5) -0.4144(3)
C15A C 0.0962(8) 0.6817(4) 0.1202(2)
H9A H 0.1647 0.6233 0.0875
C16A C 0.1074(8) 0.6874(5) 0.1725(2)
H10A H 0.1864 0.6362 0.1742
C17A C 0.0001(7) 0.7702(4) 0.2237(2)
C18A C -0.1077(8) 0.8426(4) 0.2162(2)
H11A H -0.1853 0.8985 0.2495
C19A C -0.1026(8) 0.8334(4) 0.1601(2)
H12A H -0.1722 0.887 0.155
C20A C 0.0114(7) 0.7838(4) 0.2798(2)
C21A C 0.2213(8) 0.7890(5) 0.2617(2)
H13A H 0.3561 0.7782 0.2136
C22A C 0.2360(8) 0.8099(5) 0.3133(2)
H14A H 0.3824 0.8162 0.2997
C23A C 0.0372(7) 0.8214(4) 0.3844(2)
C24A C -0.1764(8) 0.8128(4) 0.4037(2)
H15A H -0.3137 0.8195 0.4527
C25A C -0.1895(8) 0.7948(4) 0.3522(2)
H16A H -0.3354 0.7897 0.3657
C26A C 0.0577(8) 0.8428(4) 0.4387(2)
N1A N 0.2173(6) 0.6333(3) -0.02229(19)
N2A N -0.2143(6) -0.1326(3) 0.06982(19)
N2A_2 N -0.2143(6) 0.8674(3) 0.06982(19)
N3A N 0.0225(6) 0.7599(3) -0.06223(19)
N4A N -0.0049(6) 0.7532(3) 0.11273(18)
O1A O 0.2774(7) 0.8563(6) -0.4819(2)
H17A H 0.2611 0.8637 -0.5113
O2A O -0.1027(5) 0.8585(3) -0.39805(17)
O3A O 0.2517(6) 0.8574(4) 0.41960(18)
O4A O -0.1412(5) 0.8434(3) 0.50581(17)
H18A H -0.1146 0.856 0.5328
S1A S 0.38629(19) 0.44812(10) -0.11176(6)
S2A S -0.38944(18) 0.04237(10) 0.04992(6)
S2_2 S 0.38944(18) 0.95763(10) -0.04992(6)
Ni1A Ni 0.00521(10) 0.75323(5) 0.02668(3)
Ni1A_2 Ni 0.00521(10) -0.24677(5) 0.02668(3)
C39? C -0.2286(16) 0.2356(11) 0.3071(5)
C40? C -0.2409(16) 0.2193(11) 0.3650(5)
C41? C -0.105(2) 0.8670(11) -0.2849(6)
C42? C -0.113(2) 0.8523(11) -0.2292(6)
H29? H -0.3323 0.2752 0.3123
H30? H -0.3547 0.2463 0.4102
H31? H -0.224 0.896 -0.2763
H32? H -0.2351 0.8725 -0.1824
loop_
_geom_bond_atom_site_label_1
_geom_bond_atom_site_label_2
_geom_bond_site_symmetry_1
_geom_bond_site_symmetry_2
C1 N1 1_555 1_555
C2 N2 1_555 1_555
C3 H1 1_555 1_555
C4 C3 1_555 1_555
H2 C4 1_555 1_555
C5 C4 1_555 1_555
C6 C5 1_555 1_555
H3 C6 1_555 1_555
C7 C6 1_555 1_555
H4 C7 1_555 1_555
C8 C5 1_555 1_555
C9 C8 1_555 1_555
H5 C9 1_555 1_555
C10 C9 1_555 1_555
H6 C10 1_555 1_555
C11 H7 1_555 1_555
C12 C8 1_555 1_555
H8 C12 1_555 1_555
C13 C10 1_555 1_555
C14 C13 1_555 1_555
C15 H9 1_555 1_555
C16 C15 1_555 1_555
H10 C16 1_555 1_555
C17 C16 1_555 1_555
C18 C17 1_555 1_555
H11 C18 1_555 1_555
C19 C18 1_555 1_555
H12 C19 1_555 1_555
C20 C17 1_555 1_555
C21 C20 1_555 1_555
H13 C21 1_555 1_555
C22 C21 1_555 1_555
H14 C22 1_555 1_555
C23 C22 1_555 1_555
C24 C23 1_555 1_555
H15 C24 1_555 1_555
C25 C20 1_555 1_555
H16 C25 1_555 1_555
C26 C23 1_555 1_555
N1 Ni1 1_555 1_555
N2 Ni1 1_555 1_555
N3 C3 1_555 1_555
N4 C15 1_555 1_555
O1 C14 1_555 1_555
H17 O1 1_555 1_555
O2 C14 1_555 1_555
O3 C26 1_555 1_555
O4 C26 1_555 1_555
H18 O4 1_555 1_555
S1 C1 1_555 1_555
S2 C2 1_555 1_555
Ni1 N3 1_555 1_555
C27 H19 1_555 1_555
C28 C27 1_555 1_555
C29 C28 1_555 1_555
H20 C29 1_555 1_555
C30 C29 1_555 1_555
H21 C30 1_555 1_555
C31 C30 1_555 1_555
H22 C31 1_555 1_555
C32 C27 1_555 1_555
H23 C32 1_555 1_555
C33 C30 1_555 1_555
H24 C33 1_555 1_555
C34 C29 1_555 1_555
H25 C34 1_555 1_555
C35 C28 1_555 1_555
C36 C27 1_555 1_555
H26 C27 1_555 1_555
C37 C30 1_555 1_555
H27 C31 1_555 1_555
C38 C30 1_555 1_555
H28 C38 1_555 1_555
C1A N1A 1_555 1_555
C2A N2A 1_555 1_555
C3A H1A 1_555 1_555
C4A C3A 1_555 1_555
H2A C4A 1_555 1_555
C5A C4A 1_555 1_555
C6A C5A 1_555 1_555
H3A C6A 1_555 1_555
C7A C6A 1_555 1_555
H4A C7A 1_555 1_555
C8A C5A 1_555 1_555
C9A C8A 1_555 1_555
H5A C9A 1_555 1_555
C10A C9A 1_555 1_555
H6A C10A 1_555 1_555
C11A H7A 1_555 1_555
C12A C8A 1_555 1_555
H8A C12A 1_555 1_555
C13A C10A 1_555 1_555
C14A C13A 1_555 1_555
C15A H9A 1_555 1_555
C16A C15A 1_555 1_555
H10A C16A 1_555 1_555
C17A C16A 1_555 1_555
C18A C17A 1_555 1_555
H11A C18A 1_555 1_555
C19A C18A 1_555 1_555
H12A C19A 1_555 1_555
C20A C17A 1_555 1_555
C21A C20A 1_555 1_555
H13A C21A 1_555 1_555
C22A C21A 1_555 1_555
H14A C22A 1_555 1_555
C23A C22A 1_555 1_555
C24A C23A 1_555 1_555
H15A C24A 1_555 1_555
C25A C20A 1_555 1_555
H16A C25A 1_555 1_555
C26A C23A 1_555 1_555
N1A Ni1A 1_555 1_555
N2A Ni1A_2 1_555 1_555
N2A_2 Ni1A 1_555 1_555
N3A C3A 1_555 1_555
N4A C15A 1_555 1_555
O1A C14A 1_555 1_555
H17A O1A 1_555 1_555
O2A C14A 1_555 1_555
O3A C26A 1_555 1_555
O4A C26A 1_555 1_555
H18A O4A 1_555 1_555
S1A Ni1 1_555 1_555
S2A Ni1 1_555 1_555
S2_2 Ni1A 1_555 1_555
Ni1A S1 1_555 1_555
Ni1A_2 S2 1_555 1_555
C27A H19A 1_555 1_555
C28A C28 1_555 1_555
C29A C28 1_555 1_555
H20A C35 1_555 1_555
C30A C35 1_555 1_555
H21A C30A 1_555 1_555
C31A C32 1_555 1_555
H22A C31A 1_555 1_555
C32A C31 1_555 1_555
H23A C32A 1_555 1_555
C33A C30A 1_555 1_555
H24A C33A 1_555 1_555
C34A C35 1_555 1_555
H25A C34A 1_555 1_555
C35A C28 1_555 1_555
C36A C29 1_555 1_555
H26A C27A 1_555 1_555
C37A C32 1_555 1_555
H27A C31A 1_555 1_555
C38A C30A 1_555 1_555
H28A C38A 1_555 1_555
C7 N3 1_555 1_555
C11 C12 1_555 1_555
C11 C13 1_555 1_555
C19 N4 1_555 1_555
C24 C25 1_555 1_555
N4 Ni1 1_555 1_555
C28 C36 1_555 1_555
C28 H26 1_555 1_555
C29 C28A 1_555 1_555
C29 C35A 1_555 1_555
H20 C35A 1_555 1_555
C30 C34 1_555 1_555
C30 C35A 1_555 1_555
C30 C36A 1_555 1_555
H21 C33 1_555 1_555
C31 C37 1_555 1_555
C31 C38 1_555 1_555
C31 C36A 1_555 1_555
H22 C37 1_555 1_555
H22 C38 1_555 1_555
C32 C36 1_555 1_555
C33 C34 1_555 1_555
C33 C38 1_555 1_555
C34 C35A 1_555 1_555
C35 C36 1_555 1_555
C35 C28A 1_555 1_555
C35 C29A 1_555 1_555
C36 H26 1_555 1_555
C36 C29A 1_555 1_555
C36 C30A 1_555 1_555
C36 C31A 1_555 1_555
C36 C37A 1_555 1_555
C37 H27 1_555 1_555
C37 C38 1_555 1_555
C37 C32A 1_555 1_555
C37 C36A 1_555 1_555
C1A S1A 1_555 1_555
C2A S2A 1_555 1_555
C7A N3A 1_555 1_555
C11A C12A 1_555 1_555
C11A C13A 1_555 1_555
C19A N4A 1_555 1_555
C24A C25A 1_555 1_555
N3A Ni1A 1_555 1_555
N4A Ni1A 1_555 1_555
C27A C28A 1_555 1_555
C27A C32A 1_555 1_555
C27A C36A 1_555 1_555
C28A C29A 1_555 1_555
C28A C35A 1_555 1_555
C28A C36A 1_555 1_555
C28A H26A 1_555 1_555
C29A H20A 1_555 1_555
C29A C30A 1_555 1_555
C29A C34A 1_555 1_555
C30A C31A 1_555 1_555
C30A C34A 1_555 1_555
C30A C37A 1_555 1_555
H21A C33A 1_555 1_555
C31A C37A 1_555 1_555
C31A C38A 1_555 1_555
H22A C37A 1_555 1_555
H22A C38A 1_555 1_555
C32A C36A 1_555 1_555
C33A C34A 1_555 1_555
C33A C38A 1_555 1_555
C35A C36A 1_555 1_555
C36A H26A 1_555 1_555
C37A H27A 1_555 1_555
C37A C38A 1_555 1_555

#END
