
#######################################################################
#
#                 Cambridge Crystallographic Data Centre
#                                CCDC 
#
#######################################################################
#
# If this CIF has been generated from an entry in the Cambridge 
# Structural Database, then it will include bibliographic, chemical, 
# crystal, experimental, refinement or atomic coordinate data resulting 
# from the CCDC's data processing and validation procedures.
#
#######################################################################

data_PAPMAW
_symmetry_cell_setting           triclinic
_symmetry_space_group_name_H-M   'P -1'
_symmetry_Int_Tables_number      2
_space_group_name_Hall           '-P 1'
loop_
_symmetry_equiv_pos_site_id
_symmetry_equiv_pos_as_xyz
1 x,y,z
2 -x,-y,-z
_cell_length_a                   7.902(8)
_cell_length_b                   10.616(14)
_cell_length_c                   25.300(19)
_cell_angle_alpha                88.92(5)
_cell_angle_beta                 47.67(4)
_cell_angle_gamma                103.08(6)
_cell_volume                     1484.46
loop_
_atom_site_label
_atom_site_type_symbol
_atom_site_fract_x
_atom_site_fract_y
_atom_site_fract_z
C1 C -0.0149(8) 0.5133(3) 0.56003(18)
C2 C -0.0225(8) 0.5248(4) 0.6171(2)
H1 H 0.1184 0.5316 0.6075
C3 C -0.2183(7) 0.5017(4) 0.57330(18)
C4 C -0.2299(9) 0.5264(4) 0.6865(2)
H2 H -0.2312 0.5361 0.724
C5 C -0.4312(8) 0.5021(4) 0.64484(19)
H3 H -0.5733 0.4943 0.655
C6 C -0.4357(9) 0.5138(4) 0.7005(2)
H4 H -0.5807 0.5131 0.7482
C8 C 0.2222(7) 0.5128(4) 0.48513(19)
H6 H 0.3498 0.5969 0.4671
H7 H 0.2681 0.4388 0.4917
C1A C 0.0149(8) 0.4867(3) 0.43997(18)
C2A C 0.0225(8) 0.4752(4) 0.3829(2)
H1A H -0.1184 0.4684 0.3925
C3A C 0.2183(7) 0.4983(4) 0.42670(18)
C4A C 0.2299(9) 0.4736(4) 0.3135(2)
H2A H 0.2312 0.4639 0.276
C5A C 0.4312(8) 0.4979(4) 0.35516(19)
H3A H 0.5733 0.5057 0.345
C6A C 0.4357(9) 0.4862(4) 0.2995(2)
H4A H 0.5807 0.4869 0.2518
C8A C -0.2222(7) 0.4872(4) 0.51487(19)
H6A H -0.3498 0.4031 0.5329
H7A H -0.2681 0.5612 0.5083
C7 C -0.1055(5) 0.8428(3) -0.23245(15)
H5 H -0.2367 0.8552 -0.1859
Ni1 Ni 0.00717(7) 0.75100(4) 0.027170(19)
S1 S -0.38969(13) 1.04832(7) 0.04909(4)
S2 S 0.37806(13) 0.44875(7) -0.10972(4)
N1 N -0.2122(4) 0.8673(2) 0.06768(12)
N2 N 0.2176(4) 0.6290(2) -0.01849(12)
C9 C 0.2843(5) 0.5537(3) -0.05571(14)
N3 N 0.0243(4) 0.7574(2) -0.06124(12)
N4 N 0.0000(4) 0.7519(2) 0.11271(12)
C10 C -0.2884(5) 0.9420(3) 0.06133(13)
C11 C 0.0746(5) 0.8404(3) 0.43530(15)
O1 O 0.2735(4) 0.8547(2) 0.41606(11)
O2 O -0.0888(4) 0.8625(2) -0.40147(11)
O3 O 0.2924(4) 0.8570(2) -0.48331(11)
H8 H 0.2724 0.864 -0.5118
C12 C 0.0981(5) 0.8555(3) -0.41747(15)
C13 C -0.1734(5) 0.7434(3) -0.04949(14)
H9 H -0.3256 0.7235 -0.0001
C14 C -0.0925(5) 0.8459(3) 0.21222(15)
H10 H -0.165 0.904 0.2435
C15 C 0.0534(5) 0.7850(3) -0.17975(14)
C16 C 0.0274(5) 0.7856(3) 0.27690(14)
C17 C -0.1685(5) 0.7994(3) 0.34687(15)
H11 H -0.3123 0.7975 0.3591
O4 O -0.1175(4) 0.8413(2) 0.50063(10)
H12 H -0.087 0.8525 0.5265
C18 C 0.2532(5) 0.8082(3) 0.31100(15)
H13 H 0.3976 0.8114 0.2986
C19 C 0.0976(5) 0.8437(3) -0.35846(14)
C20 C -0.0932(5) 0.8353(3) 0.15759(15)
H14 H -0.1625 0.8894 0.1516
C21 C -0.1547(5) 0.8156(3) 0.39837(15)
H15 H -0.2901 0.8227 0.4459
C22 C 0.0576(5) 0.8216(3) 0.38054(14)
C23 C 0.2388(5) 0.7903(3) 0.25978(15)
H16 H 0.3733 0.7812 0.2127
C24 C 0.0713(5) 0.8057(3) -0.24207(14)
C25 C 0.1133(5) 0.6853(3) 0.17393(15)
H17 H 0.1894 0.6326 0.1773
C26 C 0.2652(6) 0.7915(3) -0.31227(16)
H18 H 0.3893 0.7679 -0.3206
C27 C 0.2791(5) 0.8114(3) -0.37000(15)
H19 H 0.4132 0.8027 -0.4173
C28 C 0.0989(5) 0.6777(3) 0.12220(15)
H20 H 0.1621 0.6168 0.0919
C29 C -0.0934(5) 0.8617(3) -0.28935(15)
H21 H -0.2155 0.887 -0.2814
C30 C -0.1666(5) 0.7563(3) -0.10553(15)
H22 H -0.3122 0.7457 -0.0937
C31 C 0.0152(5) 0.7709(3) 0.22095(14)
C32 C 0.2350(5) 0.7818(3) -0.13253(15)
H23 H 0.377 0.7893 -0.1426
C33 C 0.2575(5) 0.7967(3) -0.19182(16)
H24 H 0.4115 0.8148 -0.2406
C7A C 0.1055(5) 1.1572(3) 0.23245(15)
H5A H 0.2367 1.1448 0.1859
Ni1A Ni -0.00717(7) 1.24900(4) -0.027170(19)
Ni1A_2 Ni -0.00717(7) 0.24900(4) -0.027170(19)
S1A S 0.38969(13) 0.95168(7) -0.04909(4)
S2A S -0.37806(13) 0.55125(7) 0.10972(4)
S2_2 S 0.37806(13) 1.44875(7) -0.10972(4)
N1A N 0.2122(4) 1.1327(2) -0.06768(12)
N2A N -0.2176(4) 0.3710(2) 0.01849(12)
N2A_2 N -0.2176(4) 1.3710(2) 0.01849(12)
C9A C -0.2843(5) 0.4463(3) 0.05571(14)
N3A N -0.0243(4) 1.2426(2) 0.06124(12)
N4A N 0.0000(4) 1.2481(2) -0.11271(12)
C10A C 0.2884(5) 1.0580(3) -0.06133(13)
C11A C -0.0746(5) 1.1596(3) -0.43530(15)
O1A O -0.2735(4) 1.1453(2) -0.41606(11)
O2A O 0.0888(4) 1.1375(2) 0.40147(11)
O3A O -0.2924(4) 1.1430(2) 0.48331(11)
H8A H -0.2724 1.136 0.5118
C12A C -0.0981(5) 1.1445(3) 0.41747(15)
C13A C 0.1734(5) 1.2566(3) 0.04949(14)
H9A H 0.3256 1.2765 0.0001
C14A C 0.0925(5) 1.1541(3) -0.21222(15)
H10A H 0.165 1.096 -0.2435
C15A C -0.0534(5) 1.2150(3) 0.17975(14)
C16A C -0.0274(5) 1.2144(3) -0.27690(14)
C17A C 0.1685(5) 1.2006(3) -0.34687(15)
H11A H 0.3123 1.2025 -0.3591
O4A O 0.1175(4) 1.1587(2) -0.50063(10)
H12A H 0.087 1.1475 -0.5265
C18A C -0.2532(5) 1.1918(3) -0.31100(15)
H13A H -0.3976 1.1886 -0.2986
C19A C -0.0976(5) 1.1563(3) 0.35846(14)
C20A C 0.0932(5) 1.1647(3) -0.15759(15)
H14A H 0.1625 1.1106 -0.1516
C21A C 0.1547(5) 1.1844(3) -0.39837(15)
H15A H 0.2901 1.1773 -0.4459
C22A C -0.0576(5) 1.1784(3) -0.38054(14)
C23A C -0.2388(5) 1.2097(3) -0.25978(15)
H16A H -0.3733 1.2188 -0.2127
C24A C -0.0713(5) 1.1943(3) 0.24207(14)
C25A C -0.1133(5) 1.3147(3) -0.17393(15)
H17A H -0.1894 1.3674 -0.1773
C26A C -0.2652(6) 1.2085(3) 0.31227(16)
H18A H -0.3893 1.2321 0.3206
C27A C -0.2791(5) 1.1886(3) 0.37000(15)
H19A H -0.4132 1.1973 0.4173
C28A C -0.0989(5) 1.3223(3) -0.12220(15)
H20A H -0.1621 1.3832 -0.0919
C29A C 0.0934(5) 1.1383(3) 0.28935(15)
H21A H 0.2155 1.113 0.2814
C30A C 0.1666(5) 1.2437(3) 0.10553(15)
H22A H 0.3122 1.2543 0.0937
C31A C -0.0152(5) 1.2291(3) -0.22095(14)
C32A C -0.2350(5) 1.2182(3) 0.13253(15)
H23A H -0.377 1.2107 0.1426
C33A C -0.2575(5) 1.2033(3) 0.19182(16)
H24A H -0.4115 1.1852 0.2406
loop_
_geom_bond_atom_site_label_1
_geom_bond_atom_site_label_2
_geom_bond_site_symmetry_1
_geom_bond_site_symmetry_2
C1 C2 1_555 1_555
C2 H1 1_555 1_555
C3 C1 1_555 1_555
C4 C2 1_555 1_555
H2 C4 1_555 1_555
C5 C3 1_555 1_555
H3 C5 1_555 1_555
C6 C4 1_555 1_555
H4 C6 1_555 1_555
C7 H5 1_555 1_555
C8 C1 1_555 1_555
H6 C8 1_555 1_555
H7 C8 1_555 1_555
Ni1 N1 1_555 1_555
S1 C10 1_555 1_555
S2 C9 1_555 1_555
N1 C10 1_555 1_555
N2 Ni1 1_555 1_555
C9 N2 1_555 1_555
N3 Ni1 1_555 1_555
N4 Ni1 1_555 1_555
C11 O1 1_555 1_555
O2 C12 1_555 1_555
O3 H8 1_555 1_555
C12 O3 1_555 1_555
C13 N3 1_555 1_555
H9 C13 1_555 1_555
C14 H10 1_555 1_555
C15 C24 1_555 1_555
C16 C17 1_555 1_555
C17 H11 1_555 1_555
O4 C11 1_555 1_555
H12 O4 1_555 1_555
C18 H13 1_555 1_555
C19 C12 1_555 1_555
C20 N4 1_555 1_555
H14 C20 1_555 1_555
C21 C17 1_555 1_555
H15 C21 1_555 1_555
C22 C11 1_555 1_555
C23 C16 1_555 1_555
H16 C23 1_555 1_555
C24 C7 1_555 1_555
C25 H17 1_555 1_555
C26 C24 1_555 1_555
H18 C26 1_555 1_555
C27 C19 1_555 1_555
H19 C27 1_555 1_555
C28 N4 1_555 1_555
H20 C28 1_555 1_555
C29 C7 1_555 1_555
H21 C29 1_555 1_555
C30 C13 1_555 1_555
H22 C30 1_555 1_555
C31 C14 1_555 1_555
C32 N3 1_555 1_555
H23 C32 1_555 1_555
C33 C15 1_555 1_555
H24 C33 1_555 1_555
C1A C2A 1_555 1_555
C2A H1A 1_555 1_555
C3A C8 1_555 1_555
C4A C2A 1_555 1_555
H2A C4A 1_555 1_555
C5A C3A 1_555 1_555
H3A C5A 1_555 1_555
C6A C4A 1_555 1_555
H4A C6A 1_555 1_555
C7A H5A 1_555 1_555
C8A C3 1_555 1_555
H6A C8A 1_555 1_555
H7A C8A 1_555 1_555
Ni1A S1 1_555 1_555
Ni1A_2 S2 1_555 1_555
S1A Ni1 1_555 1_555
S2A Ni1 1_555 1_555
S2_2 Ni1A 1_555 1_555
N1A Ni1A 1_555 1_555
N2A Ni1A_2 1_555 1_555
N2A_2 Ni1A 1_555 1_555
C9A S2A 1_555 1_555
N3A Ni1A 1_555 1_555
N4A Ni1A 1_555 1_555
C10A S1A 1_555 1_555
C11A O1A 1_555 1_555
O2A C12A 1_555 1_555
O3A H8A 1_555 1_555
C12A O3A 1_555 1_555
C13A N3A 1_555 1_555
H9A C13A 1_555 1_555
C14A H10A 1_555 1_555
C15A C24A 1_555 1_555
C16A C17A 1_555 1_555
C17A H11A 1_555 1_555
O4A C11A 1_555 1_555
H12A O4A 1_555 1_555
C18A H13A 1_555 1_555
C19A C12A 1_555 1_555
C20A N4A 1_555 1_555
H14A C20A 1_555 1_555
C21A C17A 1_555 1_555
H15A C21A 1_555 1_555
C22A C11A 1_555 1_555
C23A C16A 1_555 1_555
H16A C23A 1_555 1_555
C24A C7A 1_555 1_555
C25A H17A 1_555 1_555
C26A C24A 1_555 1_555
H18A C26A 1_555 1_555
C27A C19A 1_555 1_555
H19A C27A 1_555 1_555
C28A N4A 1_555 1_555
H20A C28A 1_555 1_555
C29A C7A 1_555 1_555
H21A C29A 1_555 1_555
C30A C13A 1_555 1_555
H22A C30A 1_555 1_555
C31A C14A 1_555 1_555
C32A N3A 1_555 1_555
H23A C32A 1_555 1_555
C33A C15A 1_555 1_555
H24A C33A 1_555 1_555
C5 C6 1_555 1_555
C14 C20 1_555 1_555
C15 C30 1_555 1_555
C16 C31 1_555 1_555
C18 C22 1_555 1_555
C18 C23 1_555 1_555
C19 C29 1_555 1_555
C21 C22 1_555 1_555
C25 C28 1_555 1_555
C25 C31 1_555 1_555
C26 C27 1_555 1_555
C32 C33 1_555 1_555
C1A C3A 1_555 1_555
C1A C8A 1_555 1_555
C5A C6A 1_555 1_555
N1A C10A 1_555 1_555
N2A C9A 1_555 1_555
C14A C20A 1_555 1_555
C15A C30A 1_555 1_555
C16A C31A 1_555 1_555
C18A C22A 1_555 1_555
C18A C23A 1_555 1_555
C19A C29A 1_555 1_555
C21A C22A 1_555 1_555
C25A C28A 1_555 1_555
C25A C31A 1_555 1_555
C26A C27A 1_555 1_555
C32A C33A 1_555 1_555

#END
