
#######################################################################
#
#                 Cambridge Crystallographic Data Centre
#                                CCDC 
#
#######################################################################
#
# If this CIF has been generated from an entry in the Cambridge 
# Structural Database, then it will include bibliographic, chemical, 
# crystal, experimental, refinement or atomic coordinate data resulting 
# from the CCDC's data processing and validation procedures.
#
#######################################################################

data_PAPMIE
_symmetry_cell_setting           triclinic
_symmetry_space_group_name_H-M   'P -1'
_symmetry_Int_Tables_number      2
_space_group_name_Hall           '-P 1'
loop_
_symmetry_equiv_pos_site_id
_symmetry_equiv_pos_as_xyz
1 x,y,z
2 -x,-y,-z
_cell_length_a                   8.045(5)
_cell_length_b                   10.703(8)
_cell_length_c                   25.238(13)
_cell_angle_alpha                92.10(3)
_cell_angle_beta                 46.83(3)
_cell_angle_gamma                105.62(4)
_cell_volume                     1492.32
loop_
_atom_site_label
_atom_site_type_symbol
_atom_site_fract_x
_atom_site_fract_y
_atom_site_fract_z
C23 C 0.2404(18) 0.4909(9) 0.3244(6)
H14 H 0.1924 0.4879 0.2987
C24 C 0.376(2) 0.4980(12) 0.4010(9)
H15 H 0.4272 0.5003 0.4257
C25 C 0.4631(18) 0.4845(10) 0.2884(6)
H16 H 0.5704 0.4792 0.2375
O3 O -0.0536(16) 0.4712(9) 0.4507(5)
C26 C 0.153(2) 0.5067(10) 0.4382(6)
C27 C -0.1638(18) 0.5070(9) 0.4380(6)
C28 C 0.011(2) 0.4795(12) 0.4829(7)
C29 C 0.3237(17) 0.4767(9) 0.4821(6)
C30 C 0.084(2) 0.5020(10) 0.3986(7)
C31 C 0.5483(19) 0.4629(11) 0.4458(6)
H17 H 0.5976 0.466 0.471
C32 C 0.6985(19) 0.4444(11) 0.3724(6)
H18 H 0.8485 0.4338 0.3482
C33 C 0.6285(18) 0.4417(10) 0.3354(6)
H19 H 0.7302 0.4295 0.2857
C34 C 0.408(3) 0.4570(14) 0.3712(8)
H20 H 0.3632 0.4572 0.3448
C35 C 0.253(2) 0.4719(11) 0.4444(7)
C36 C 0.532(2) 0.4856(11) 0.3248(8)
H21 H 0.6852 0.4781 0.2996
O4 O -0.2327(13) 0.4949(8) 0.4072(4)
C24A C -0.376(2) 0.5020(12) 0.5990(9)
H15A H -0.4272 0.4997 0.5743
O3A O 0.0536(16) 0.5288(9) 0.5493(5)
C26A C -0.153(2) 0.4933(10) 0.5618(6)
C27A C 0.1638(18) 0.4930(9) 0.5620(6)
C27_2 C 0.8362(18) 0.5070(9) 0.4380(6)
C28A C -0.011(2) 0.5205(12) 0.5171(7)
C29A C -0.3237(17) 0.5233(9) 0.5179(6)
C29_2 C -0.6763(17) 0.4767(9) 0.4821(6)
C30A C -0.084(2) 0.4980(10) 0.6014(7)
C31_2 C -0.4517(19) 0.4629(11) 0.4458(6)
C31A C -0.5483(19) 0.5371(11) 0.5542(6)
H17_2 H -0.4024 0.466 0.471
C32_2 C -0.3015(19) 0.4444(11) 0.3724(6)
H18_2 H -0.1515 0.4338 0.3482
C33_2 C -0.3715(18) 0.4417(10) 0.3354(6)
C35A C -0.253(2) 0.5281(11) 0.5556(7)
O4_2 O 0.7673(13) 0.4949(8) 0.4072(4)
O4A O 0.2327(13) 0.5051(8) 0.5928(4)
Ni1 Ni 0.01042(10) 0.75786(6) 0.02407(3)
S1 S 0.3908(2) 0.95955(11) -0.05105(6)
S2 S -0.3811(2) 0.56047(12) 0.10804(6)
O1 O -0.1077(5) 0.8468(3) -0.39654(17)
H1 H -0.0846 0.8524 -0.4344
O2 O -0.1357(6) 0.8470(4) 0.50475(18)
N1 N 0.0039(6) 0.7605(4) 0.1094(2)
N2 N -0.2184(6) 0.3631(4) 0.02542(19)
N3 N 0.2122(6) 1.1289(3) -0.06940(18)
C1 C 0.2877(7) 1.0581(4) -0.0628(2)
C2 C 0.2608(8) 0.8048(5) -0.1960(2)
H2 H 0.4144 0.8241 -0.2457
C3 C -0.1689(8) 0.8194(5) 0.4015(2)
C4 C -0.0974(9) 0.8485(5) 0.2138(3)
H4 H -0.1715 0.9049 0.2473
C5 C 0.0804(8) 0.8466(6) -0.4148(3)
C6 C 0.0178(8) 0.7877(5) 0.2774(2)
C7 C -0.2850(7) 0.4450(4) 0.0591(2)
N4 N 0.0274(6) 0.7634(4) -0.06463(19)
C8 C -0.0970(9) 0.8385(5) 0.1588(3)
H5 H -0.1715 0.8892 0.1558
C9 C 0.0563(8) 0.7907(4) -0.1821(2)
C10 C 0.0708(8) 0.8075(4) -0.2439(2)
C11 C 0.1165(8) 0.6944(5) 0.1684(2)
H6 H 0.1945 0.6437 0.1698
C12 C 0.0379(8) 0.8176(6) 0.3838(3)
C13 C 0.1064(8) 0.6884(5) 0.1157(2)
H7 H 0.1749 0.6309 0.0823
C14 C -0.1708(8) 0.7491(5) -0.0510(2)
H8 H -0.3222 0.7284 -0.0007
C15 C -0.1777(8) 0.8053(5) 0.3486(2)
H9 H -0.3169 0.8074 0.3603
C16 C 0.2390(8) 0.7906(5) -0.1368(2)
H10 H 0.3812 0.8004 -0.1477
C17 C 0.0105(8) 0.7759(4) 0.2201(2)
C18 C 0.0823(8) 0.8350(5) -0.3571(2)
C19 C -0.1649(8) 0.7629(5) -0.1066(2)
H11 H -0.3096 0.7537 -0.094
C20 C 0.2203(8) 0.7843(6) 0.2606(3)
H12 H 0.3522 0.7722 0.213
C21 C 0.0514(9) 0.8358(7) 0.4392(3)
C22 C 0.2296(9) 0.7986(8) 0.3137(3)
H13 H 0.368 0.7954 0.3022
C37 C -0.1215(16) 0.8357(14) -0.2278(5)
H22 H -0.254 0.8447 -0.1794
C38 C -0.1093(18) 0.8498(14) -0.2849(5)
H23 H -0.2351 0.8701 -0.275
C39 C 0.2628(17) 0.8005(13) -0.3700(5)
H24 H 0.3892 0.7839 -0.417
C40 C 0.2536(16) 0.7909(13) -0.3128(5)
H25 H 0.3804 0.7722 -0.3226
O5 O 0.2767(7) 0.8550(7) -0.4826(2)
O6 O 0.2433(7) 0.8387(7) 0.4207(2)
H26 H 0.2313 0.8521 0.456
Ni1A Ni -0.01042(10) 0.24214(6) -0.02407(3)
Ni1A_2 Ni -0.01042(10) 1.24214(6) -0.02407(3)
S1A S -0.3908(2) 1.04045(11) 0.05105(6)
S2A S 0.3811(2) 0.43953(12) -0.10804(6)
S2A_2 S 0.3811(2) 1.43953(12) -0.10804(6)
O1A O 0.1077(5) 1.1532(3) 0.39654(17)
H1A H 0.0846 1.1476 0.4344
O2A O 0.1357(6) 1.1530(4) -0.50475(18)
N1A N -0.0039(6) 1.2395(4) -0.1094(2)
N2A N 0.2184(6) 0.6369(4) -0.02542(19)
N2_2 N -0.2184(6) 1.3631(4) 0.02542(19)
N3A N -0.2122(6) 0.8711(3) 0.06940(18)
C1A C -0.2877(7) 0.9419(4) 0.0628(2)
C2A C -0.2608(8) 1.1952(5) 0.1960(2)
H2A H -0.4144 1.1759 0.2457
C3A C 0.1689(8) 1.1806(5) -0.4015(2)
C4A C 0.0974(9) 1.1515(5) -0.2138(3)
H4A H 0.1715 1.0951 -0.2473
C5A C -0.0804(8) 1.1534(6) 0.4148(3)
C6A C -0.0178(8) 1.2123(5) -0.2774(2)
C7A C 0.2850(7) 0.5550(4) -0.0591(2)
N4A N -0.0274(6) 1.2366(4) 0.06463(19)
C8A C 0.0970(9) 1.1615(5) -0.1588(3)
H5A H 0.1715 1.1108 -0.1558
C9A C -0.0563(8) 1.2093(4) 0.1821(2)
C10A C -0.0708(8) 1.1925(4) 0.2439(2)
C11A C -0.1165(8) 1.3056(5) -0.1684(2)
H6A H -0.1945 1.3563 -0.1698
C12A C -0.0379(8) 1.1824(6) -0.3838(3)
C13A C -0.1064(8) 1.3116(5) -0.1157(2)
H7A H -0.1749 1.3691 -0.0823
C14A C 0.1708(8) 1.2509(5) 0.0510(2)
H8A H 0.3222 1.2716 0.0007
C15A C 0.1777(8) 1.1947(5) -0.3486(2)
H9A H 0.3169 1.1926 -0.3603
C16A C -0.2390(8) 1.2094(5) 0.1368(2)
H10A H -0.3812 1.1996 0.1477
C17A C -0.0105(8) 1.2241(4) -0.2201(2)
C18A C -0.0823(8) 1.1650(5) 0.3571(2)
C19A C 0.1649(8) 1.2371(5) 0.1066(2)
H11A H 0.3096 1.2463 0.094
C20A C -0.2203(8) 1.2157(6) -0.2606(3)
H12A H -0.3522 1.2278 -0.213
C21A C -0.0514(9) 1.1642(7) -0.4392(3)
C22A C -0.2296(9) 1.2014(8) -0.3137(3)
H13A H -0.368 1.2046 -0.3022
C37A C 0.1215(16) 1.1643(14) 0.2278(5)
H22A H 0.254 1.1553 0.1794
C38A C 0.1093(18) 1.1502(14) 0.2849(5)
H23A H 0.2351 1.1299 0.275
C39A C -0.2628(17) 1.1995(13) 0.3700(5)
H24A H -0.3892 1.2161 0.417
C40A C -0.2536(16) 1.2091(13) 0.3128(5)
H25A H -0.3804 1.2278 0.3226
O5A O -0.2767(7) 1.1450(7) 0.4826(2)
O6A O -0.2433(7) 1.1613(7) -0.4207(2)
H26A H -0.2313 1.1479 -0.456
H3? H -0.3016 0.8302 0.4493
C41? C -0.1302(19) 0.7574(14) -0.2327(6)
C42? C -0.1238(19) 0.7745(14) -0.2871(6)
C43? C -0.3032(16) 0.1044(12) 0.3757(5)
C44? C -0.2971(17) 0.1194(12) 0.3198(5)
H27? H -0.28 0.7088 -0.1847
H28? H -0.2704 0.7424 -0.2751
H29? H -0.4484 0.0558 0.4245
H30? H -0.4414 0.0819 0.3308
loop_
_geom_bond_atom_site_label_1
_geom_bond_atom_site_label_2
_geom_bond_site_symmetry_1
_geom_bond_site_symmetry_2
Ni1 S1 1_555 1_555
S1 C1 1_555 1_555
S2 Ni1 1_555 1_555
O1 H1 1_555 1_555
O2 C21 1_555 1_555
N1 Ni1 1_555 1_555
N2 C7 1_555 1_555
N3 C1 1_555 1_555
C2 H2 1_555 1_555
C3 C12 1_555 1_555
C4 H4 1_555 1_555
C5 O1 1_555 1_555
C6 C15 1_555 1_555
C7 S2 1_555 1_555
N4 Ni1 1_555 1_555
C8 N1 1_555 1_555
H5 C8 1_555 1_555
C9 C2 1_555 1_555
C10 C9 1_555 1_555
C11 H6 1_555 1_555
C12 C21 1_555 1_555
C13 N1 1_555 1_555
H7 C13 1_555 1_555
C14 N4 1_555 1_555
H8 C14 1_555 1_555
C15 C3 1_555 1_555
H9 C15 1_555 1_555
C16 C2 1_555 1_555
H10 C16 1_555 1_555
C17 C4 1_555 1_555
C18 C5 1_555 1_555
C19 C9 1_555 1_555
H11 C19 1_555 1_555
C20 C6 1_555 1_555
H12 C20 1_555 1_555
C21 O6 1_555 1_555
C22 C12 1_555 1_555
H13 C22 1_555 1_555
C23 H14 1_555 1_555
C24 H15 1_555 1_555
H15 C29 1_555 1_555
C25 C23 1_555 1_555
H16 C25 1_555 1_555
O3 C26 1_555 1_555
C26 C24 1_555 1_555
C27 O3 1_555 1_555
C28 O3 1_555 1_555
C29 C31 1_555 1_555
C30 C23 1_555 1_555
C31 H17 1_555 1_555
H17 O4_2 1_555 1_555
C32 C31 1_555 1_555
H18 C32 1_555 1_555
C33 C32 1_555 1_555
H19 C33 1_555 1_555
C34 C24 1_555 1_555
H20 C25 1_555 1_555
C35 C24 1_555 1_555
C36 C24 1_555 1_555
H21 C33 1_555 1_555
O4 C27 1_555 1_555
C37 C10 1_555 1_555
H22 C37 1_555 1_555
C38 C18 1_555 1_555
H23 C38 1_555 1_555
C39 C18 1_555 1_555
H24 C39 1_555 1_555
C40 C10 1_555 1_555
H25 C40 1_555 1_555
O5 C5 1_555 1_555
O6 H26 1_555 1_555
Ni1A N2 1_555 1_555
Ni1A_2 N3 1_555 1_555
S1A Ni1A_2 1_555 1_555
S2A Ni1A 1_555 1_555
S2A_2 Ni1A_2 1_555 1_555
O1A H1A 1_555 1_555
O2A C21A 1_555 1_555
N1A Ni1A_2 1_555 1_555
N2A Ni1 1_555 1_555
N2_2 Ni1A_2 1_555 1_555
N3A Ni1 1_555 1_555
C1A S1A 1_555 1_555
C2A H2A 1_555 1_555
C3A C12A 1_555 1_555
C4A H4A 1_555 1_555
C5A O1A 1_555 1_555
C6A C15A 1_555 1_555
C7A S2A 1_555 1_555
N4A Ni1A_2 1_555 1_555
C8A N1A 1_555 1_555
H5A C8A 1_555 1_555
C9A C2A 1_555 1_555
C10A C9A 1_555 1_555
C11A H6A 1_555 1_555
C12A C21A 1_555 1_555
C13A N1A 1_555 1_555
H7A C13A 1_555 1_555
C14A N4A 1_555 1_555
H8A C14A 1_555 1_555
C15A C3A 1_555 1_555
H9A C15A 1_555 1_555
C16A C2A 1_555 1_555
H10A C16A 1_555 1_555
C17A C4A 1_555 1_555
C18A C5A 1_555 1_555
C19A C9A 1_555 1_555
H11A C19A 1_555 1_555
C20A C6A 1_555 1_555
H12A C20A 1_555 1_555
C21A O6A 1_555 1_555
C22A C12A 1_555 1_555
H13A C22A 1_555 1_555
C24A H15A 1_555 1_555
H15A C29A 1_555 1_555
O3A C26A 1_555 1_555
C26A C28 1_555 1_555
C27A C29 1_555 1_555
C27_2 O4_2 1_555 1_555
C28A C26 1_555 1_555
C29A C27 1_555 1_555
C29_2 C31_2 1_555 1_555
C30A O3A 1_555 1_555
C31_2 O4 1_555 1_555
C31A C29A 1_555 1_555
H17_2 O4 1_555 1_555
C32_2 O4 1_555 1_555
H18_2 C32_2 1_555 1_555
C33_2 C32_2 1_555 1_555
C35A C24A 1_555 1_555
O4_2 C31 1_555 1_555
O4A C27A 1_555 1_555
C37A C10A 1_555 1_555
H22A C37A 1_555 1_555
C38A C18A 1_555 1_555
H23A C38A 1_555 1_555
C39A C18A 1_555 1_555
H24A C39A 1_555 1_555
C40A C10A 1_555 1_555
H25A C40A 1_555 1_555
O5A C5A 1_555 1_555
O6A H26A 1_555 1_555
C4 C8 1_555 1_555
C6 C17 1_555 1_555
N4 C16 1_555 1_555
C11 C13 1_555 1_555
C11 C17 1_555 1_555
C14 C19 1_555 1_555
C20 C22 1_555 1_555
H15 C35 1_555 1_555
C25 C36 1_555 1_555
O3 C30 1_555 1_555
C26 C28 1_555 1_555
C26 C30 1_555 1_555
C26 C35 1_555 1_555
C27 C30 1_555 1_555
C28 C35 1_555 1_555
C28 C28A 1_555 1_555
C29 C35 1_555 1_555
C32 O4_2 1_555 1_555
C33 C34 1_555 1_555
C33 C36 1_555 1_555
H19 H21 1_555 1_555
C34 H20 1_555 1_555
C34 C35 1_555 1_555
C34 C36 1_555 1_555
H20 C36 1_555 1_555
C36 H21 1_555 1_555
C37 C38 1_555 1_555
C39 C40 1_555 1_555
N2A C7A 1_555 1_555
N3A C1A 1_555 1_555
C4A C8A 1_555 1_555
C6A C17A 1_555 1_555
N4A C16A 1_555 1_555
C11A C13A 1_555 1_555
C11A C17A 1_555 1_555
C14A C19A 1_555 1_555
C20A C22A 1_555 1_555
C24A C26A 1_555 1_555
H15A C35A 1_555 1_555
O3A C27A 1_555 1_555
O3A C28A 1_555 1_555
C26A C28A 1_555 1_555
C26A C30A 1_555 1_555
C26A C35A 1_555 1_555
C27A C30A 1_555 1_555
C28A C35A 1_555 1_555
C29A C35A 1_555 1_555
C31_2 H17_2 1_555 1_555
C31_2 C32_2 1_555 1_555
C37A C38A 1_555 1_555
C39A C40A 1_555 1_555

#END
