
#######################################################################
#
#                 Cambridge Crystallographic Data Centre
#                                CCDC 
#
#######################################################################
#
# If this CIF has been generated from an entry in the Cambridge 
# Structural Database, then it will include bibliographic, chemical, 
# crystal, experimental, refinement or atomic coordinate data resulting 
# from the CCDC's data processing and validation procedures.
#
#######################################################################

data_PAPMUQ
_symmetry_cell_setting           triclinic
_symmetry_space_group_name_H-M   'P -1'
_symmetry_Int_Tables_number      2
_space_group_name_Hall           '-P 1'
loop_
_symmetry_equiv_pos_site_id
_symmetry_equiv_pos_as_xyz
1 x,y,z
2 -x,-y,-z
_cell_length_a                   8.0084(12)
_cell_length_b                   10.8831(17)
_cell_length_c                   25.266(3)
_cell_angle_alpha                94.429(7)
_cell_angle_beta                 47.263(7)
_cell_angle_gamma                108.899(6)
_cell_volume                     1497.63
loop_
_atom_site_label
_atom_site_type_symbol
_atom_site_fract_x
_atom_site_fract_y
_atom_site_fract_z
C1 C 0.2825(4) 0.8350(3) -0.37907(12)
H1 H 0.4141 0.826 -0.427
C2 C -0.2904(3) 0.93662(18) 0.06012(10)
C3 C 0.2903(3) 0.56195(19) -0.05970(10)
C4 C -0.1208(4) 0.8212(2) 0.15755(11)
H2 H -0.2017 0.8674 0.1568
C5 C -0.1284(4) 0.8264(2) 0.21406(11)
H3 H -0.2164 0.8732 0.2514
C6 C -0.0064(3) 0.7626(2) 0.21618(10)
C7 C 0.1131(4) 0.6925(2) 0.16020(11)
H4 H 0.197 0.6462 0.1593
C8 C 0.1091(4) 0.6907(2) 0.10607(11)
H5 H 0.1911 0.6422 0.0689
C9 C -0.0002(4) 0.7721(2) 0.27401(10)
C10 C -0.2010(4) 0.7765(2) 0.34629(11)
H6 H -0.3474 0.7686 0.3594
C11 C -0.1892(4) 0.7923(2) 0.39889(11)
H7 H -0.3274 0.7941 0.4476
C12 C 0.0260(4) 0.8056(2) 0.38013(11)
C13 C 0.2248(4) 0.7993(2) 0.30865(11)
H8 H 0.3706 0.8067 0.2958
C14 C 0.2129(4) 0.7823(2) 0.25614(11)
H9 H 0.3497 0.7777 0.2079
C15 C 0.0474(4) 0.8277(2) 0.43450(11)
C16 C -0.1691(3) 0.7601(2) -0.06007(10)
H10 H -0.3235 0.7362 -0.0106
C17 C -0.1591(4) 0.7793(2) -0.11588(11)
H11 H -0.3043 0.7691 -0.104
C18 C 0.0641(4) 0.8138(2) -0.18980(11)
C19 C 0.2682(4) 0.8264(3) -0.20240(12)
H12 H 0.4246 0.8492 -0.2513
C20 C 0.2417(4) 0.8054(2) -0.14300(11)
H13 H 0.3835 0.8141 -0.1532
C21 C 0.0816(4) 0.8340(2) -0.25137(11)
C22 C -0.0952(4) 0.8680(2) -0.23933(11)
H14 H -0.2222 0.8822 -0.1923
C23 C -0.0858(4) 0.8809(2) -0.29550(11)
H15 H -0.2071 0.9037 -0.2865
C24 C 0.0985(4) 0.8612(2) -0.36498(11)
C25 C 0.2735(4) 0.8220(3) -0.32257(12)
H16 H 0.4006 0.8045 -0.3327
C26 C 0.0945(4) 0.8662(2) -0.42308(11)
N1 N -0.2166(3) 0.86593(15) 0.06501(8)
N2 N 0.2168(3) 0.64712(16) -0.03545(9)
N3 N -0.0054(3) 0.75434(16) 0.10355(8)
N4 N 0.0274(3) 0.77342(16) -0.07202(9)
O1 O -0.1426(3) 0.83149(17) 0.50014(8)
H17 H -0.1109 0.8444 0.5262
O2 O 0.2464(3) 0.84271(18) 0.41462(8)
O3 O -0.0879(3) 0.87533(16) -0.40673(8)
O4 O 0.2797(3) 0.85624(19) -0.48784(8)
H18 H 0.26 0.8603 -0.5163
S1 S -0.39113(9) 1.03496(5) 0.05062(3)
S2 S 0.39118(9) 0.44024(5) -0.09304(3)
Ni1 Ni 0.00679(4) 0.75926(2) 0.016764(13)
C1A C -0.2825(4) 1.1650(3) 0.37907(12)
H1A H -0.4141 1.174 0.427
C2A C 0.2904(3) 1.06338(18) -0.06012(10)
C3A C -0.2903(3) 0.43805(19) 0.05970(10)
C4A C 0.1208(4) 1.1788(2) -0.15755(11)
H2A H 0.2017 1.1326 -0.1568
C5A C 0.1284(4) 1.1736(2) -0.21406(11)
H3A H 0.2164 1.1268 -0.2514
C6A C 0.0064(3) 1.2374(2) -0.21618(10)
C7A C -0.1131(4) 1.3075(2) -0.16020(11)
H4A H -0.197 1.3538 -0.1593
C8A C -0.1091(4) 1.3093(2) -0.10607(11)
H5A H -0.1911 1.3578 -0.0689
C9A C 0.0002(4) 1.2279(2) -0.27401(10)
C10A C 0.2010(4) 1.2235(2) -0.34629(11)
H6A H 0.3474 1.2314 -0.3594
C11A C 0.1892(4) 1.2077(2) -0.39889(11)
H7A H 0.3274 1.2059 -0.4476
C12A C -0.0260(4) 1.1944(2) -0.38013(11)
C13A C -0.2248(4) 1.2007(2) -0.30865(11)
H8A H -0.3706 1.1933 -0.2958
C14A C -0.2129(4) 1.2177(2) -0.25614(11)
H9A H -0.3497 1.2223 -0.2079
C15A C -0.0474(4) 1.1723(2) -0.43450(11)
C16A C 0.1691(3) 1.2399(2) 0.06007(10)
H10A H 0.3235 1.2638 0.0106
C17A C 0.1591(4) 1.2207(2) 0.11588(11)
H11A H 0.3043 1.2309 0.104
C18A C -0.0641(4) 1.1862(2) 0.18980(11)
C19A C -0.2682(4) 1.1736(3) 0.20240(12)
H12A H -0.4246 1.1508 0.2513
C20A C -0.2417(4) 1.1946(2) 0.14300(11)
H13A H -0.3835 1.1859 0.1532
C21A C -0.0816(4) 1.1660(2) 0.25137(11)
C22A C 0.0952(4) 1.1320(2) 0.23933(11)
H14A H 0.2222 1.1178 0.1923
C23A C 0.0858(4) 1.1191(2) 0.29550(11)
H15A H 0.2071 1.0963 0.2865
C24A C -0.0985(4) 1.1388(2) 0.36498(11)
C25A C -0.2735(4) 1.1780(3) 0.32257(12)
H16A H -0.4006 1.1955 0.3327
C26A C -0.0945(4) 1.1338(2) 0.42308(11)
N1A N 0.2166(3) 1.13407(15) -0.06501(8)
N2A N -0.2168(3) 0.35288(16) 0.03545(9)
N2A_2 N -0.2168(3) 1.35288(16) 0.03545(9)
N3A N 0.0054(3) 1.24566(16) -0.10355(8)
N4A N -0.0274(3) 1.22658(16) 0.07202(9)
O1A O 0.1426(3) 1.16851(17) -0.50014(8)
H17A H 0.1109 1.1556 -0.5262
O2A O -0.2464(3) 1.15729(18) -0.41462(8)
O3A O 0.0879(3) 1.12467(16) 0.40673(8)
O4A O -0.2797(3) 1.14376(19) 0.48784(8)
H18A H -0.26 1.1397 0.5163
S1A S 0.39113(9) 0.96504(5) -0.05062(3)
S2A S -0.39118(9) 0.55976(5) 0.09304(3)
S2_2 S 0.39118(9) 1.44024(5) -0.09304(3)
Ni1A Ni -0.00679(4) 1.24074(2) -0.016764(13)
Ni1A_2 Ni -0.00679(4) 0.24074(2) -0.016764(13)
C27 C 0.507(3) 0.454(2) 0.2599(8)
H19 H 0.603 0.4458 0.2099
C28 C 0.292(3) 0.476(3) 0.2981(9)
H20 H 0.2418 0.4842 0.2742
C29 C 0.149(3) 0.4859(15) 0.3729(6)
H21 H -0.0001 0.4991 0.3992
C30 C 0.222(2) 0.4768(12) 0.4080(5)
C31 C 0.436(2) 0.4546(13) 0.3697(6)
H22 H 0.4873 0.4469 0.3936
C32 C 0.581(2) 0.4434(16) 0.2947(6)
H23 H 0.7282 0.4288 0.2685
N5 N 0.095(2) 0.4861(6) 0.4834(6)
C27A C -0.507(3) 0.546(2) 0.7401(8)
H19A H -0.603 0.5542 0.7901
C28A C -0.292(3) 0.524(3) 0.7019(9)
H20A H -0.2418 0.5158 0.7258
C29A C -0.149(3) 0.5141(15) 0.6271(6)
H21A H 0.0001 0.5009 0.6008
C30A C -0.222(2) 0.5232(12) 0.5920(5)
C31A C -0.436(2) 0.5454(13) 0.6303(6)
H22A H -0.4873 0.5531 0.6064
C32A C -0.581(2) 0.5566(16) 0.7053(6)
H23A H -0.7282 0.5712 0.7315
N5A N -0.095(2) 0.5139(6) 0.5166(6)
C33? C 0.457(7) 0.460(5) 0.2646(19)
C34? C 0.244(7) 0.471(5) 0.2948(18)
C35? C 0.093(5) 0.488(3) 0.3661(13)
C36? C 0.140(5) 0.480(2) 0.4086(10)
C37? C 0.354(5) 0.467(3) 0.3803(14)
C38? C 0.519(6) 0.452(4) 0.3079(16)
H24? H 0.5702 0.4561 0.2139
H25? H 0.2028 0.4679 0.2672
H26? H -0.0471 0.5063 0.3865
H27? H 0.3868 0.469 0.4101
H28? H 0.6619 0.437 0.2873
N6? N -0.025(5) 0.5007(11) 0.4819(12)
loop_
_geom_bond_atom_site_label_1
_geom_bond_atom_site_label_2
_geom_bond_site_symmetry_1
_geom_bond_site_symmetry_2
C1 H1 1_555 1_555
C2 N1 1_555 1_555
C3 N2 1_555 1_555
C4 H2 1_555 1_555
C5 C4 1_555 1_555
H3 C5 1_555 1_555
C6 C5 1_555 1_555
C7 C6 1_555 1_555
H4 C7 1_555 1_555
C8 C7 1_555 1_555
H5 C8 1_555 1_555
C9 C6 1_555 1_555
C10 C9 1_555 1_555
H6 C10 1_555 1_555
C11 C10 1_555 1_555
H7 C11 1_555 1_555
C12 C11 1_555 1_555
C13 C12 1_555 1_555
H8 C13 1_555 1_555
C14 C9 1_555 1_555
H9 C14 1_555 1_555
C15 C12 1_555 1_555
C16 H10 1_555 1_555
C17 C16 1_555 1_555
H11 C17 1_555 1_555
C18 C17 1_555 1_555
C19 C18 1_555 1_555
H12 C19 1_555 1_555
C20 C19 1_555 1_555
H13 C20 1_555 1_555
C21 C18 1_555 1_555
C22 C21 1_555 1_555
H14 C22 1_555 1_555
C23 C22 1_555 1_555
H15 C23 1_555 1_555
C24 C1 1_555 1_555
C25 C1 1_555 1_555
H16 C25 1_555 1_555
C26 C24 1_555 1_555
N1 Ni1 1_555 1_555
N2 Ni1 1_555 1_555
N3 C4 1_555 1_555
N4 C16 1_555 1_555
O1 C15 1_555 1_555
H17 O1 1_555 1_555
O2 C15 1_555 1_555
O3 C26 1_555 1_555
O4 C26 1_555 1_555
H18 O4 1_555 1_555
S1 C2 1_555 1_555
S2 C3 1_555 1_555
Ni1 N3 1_555 1_555
C27 H19 1_555 1_555
C28 C27 1_555 1_555
H20 C28 1_555 1_555
C29 C28 1_555 1_555
H21 C29 1_555 1_555
C30 C29 1_555 1_555
C31 C30 1_555 1_555
H22 C31 1_555 1_555
C32 C27 1_555 1_555
H23 C32 1_555 1_555
N5 C30 1_555 1_555
C1A H1A 1_555 1_555
C2A N1A 1_555 1_555
C3A N2A 1_555 1_555
C4A H2A 1_555 1_555
C5A C4A 1_555 1_555
H3A C5A 1_555 1_555
C6A C5A 1_555 1_555
C7A C6A 1_555 1_555
H4A C7A 1_555 1_555
C8A C7A 1_555 1_555
H5A C8A 1_555 1_555
C9A C6A 1_555 1_555
C10A C9A 1_555 1_555
H6A C10A 1_555 1_555
C11A C10A 1_555 1_555
H7A C11A 1_555 1_555
C12A C11A 1_555 1_555
C13A C12A 1_555 1_555
H8A C13A 1_555 1_555
C14A C9A 1_555 1_555
H9A C14A 1_555 1_555
C15A C12A 1_555 1_555
C16A H10A 1_555 1_555
C17A C16A 1_555 1_555
H11A C17A 1_555 1_555
C18A C17A 1_555 1_555
C19A C18A 1_555 1_555
H12A C19A 1_555 1_555
C20A C19A 1_555 1_555
H13A C20A 1_555 1_555
C21A C18A 1_555 1_555
C22A C21A 1_555 1_555
H14A C22A 1_555 1_555
C23A C22A 1_555 1_555
H15A C23A 1_555 1_555
C24A C1A 1_555 1_555
C25A C1A 1_555 1_555
H16A C25A 1_555 1_555
C26A C24A 1_555 1_555
N1A Ni1A 1_555 1_555
N2A Ni1A_2 1_555 1_555
N2A_2 Ni1A 1_555 1_555
N3A C4A 1_555 1_555
N4A C16A 1_555 1_555
O1A C15A 1_555 1_555
H17A O1A 1_555 1_555
O2A C15A 1_555 1_555
O3A C26A 1_555 1_555
O4A C26A 1_555 1_555
H18A O4A 1_555 1_555
S1A Ni1 1_555 1_555
S2A Ni1 1_555 1_555
S2_2 Ni1A 1_555 1_555
Ni1A S1 1_555 1_555
Ni1A_2 S2 1_555 1_555
C27A H19A 1_555 1_555
C28A C27A 1_555 1_555
H20A C28A 1_555 1_555
C29A C28A 1_555 1_555
H21A C29A 1_555 1_555
C30A C29A 1_555 1_555
C31A C30A 1_555 1_555
H22A C31A 1_555 1_555
C32A C27A 1_555 1_555
H23A C32A 1_555 1_555
N5A N5 1_555 1_555
C8 N3 1_555 1_555
C13 C14 1_555 1_555
C20 N4 1_555 1_555
C21 C25 1_555 1_555
C23 C24 1_555 1_555
N4 Ni1 1_555 1_555
C31 C32 1_555 1_555
C2A S1A 1_555 1_555
C3A S2A 1_555 1_555
C8A N3A 1_555 1_555
C13A C14A 1_555 1_555
C20A N4A 1_555 1_555
C21A C25A 1_555 1_555
C23A C24A 1_555 1_555
N3A Ni1A 1_555 1_555
N4A Ni1A 1_555 1_555
C30A N5A 1_555 1_555
C31A C32A 1_555 1_555

#END
