
#######################################################################
#
#                 Cambridge Crystallographic Data Centre
#                                CCDC 
#
#######################################################################
#
# If this CIF has been generated from an entry in the Cambridge 
# Structural Database, then it will include bibliographic, chemical, 
# crystal, experimental, refinement or atomic coordinate data resulting 
# from the CCDC's data processing and validation procedures.
#
#######################################################################

data_PAPMOK
_symmetry_cell_setting           triclinic
_symmetry_space_group_name_H-M   'P -1'
_symmetry_Int_Tables_number      2
_space_group_name_Hall           '-P 1'
loop_
_symmetry_equiv_pos_site_id
_symmetry_equiv_pos_as_xyz
1 x,y,z
2 -x,-y,-z
_cell_length_a                   7.9188(15)
_cell_length_b                   10.940(3)
_cell_length_c                   25.131(4)
_cell_angle_alpha                95.100(10)
_cell_angle_beta                 47.478(8)
_cell_angle_gamma                109.418(10)
_cell_volume                     1484.16
loop_
_atom_site_label
_atom_site_type_symbol
_atom_site_fract_x
_atom_site_fract_y
_atom_site_fract_z
C1 C 0.2899(3) 0.56229(19) -0.05916(10)
C2 C -0.2914(3) 0.93569(18) 0.05917(9)
C3 C 0.1077(4) 0.6883(2) 0.10293(10)
H1 H 0.1888 0.6394 0.0657
C4 C 0.1117(4) 0.6903(2) 0.15720(11)
H2 H 0.1966 0.6443 0.1561
C5 C -0.0073(3) 0.7589(2) 0.21323(10)
C6 C -0.1288(4) 0.8232(2) 0.21143(11)
H3 H -0.217 0.87 0.249
C7 C -0.1200(4) 0.8184(2) 0.15461(11)
H4 H -0.2007 0.8649 0.1538
C8 C -0.0009(4) 0.7689(2) 0.27124(10)
C9 C 0.2134(4) 0.7799(3) 0.25328(11)
H5 H 0.3509 0.7751 0.2049
C10 C 0.2265(4) 0.7978(3) 0.30587(11)
H6 H 0.3743 0.8063 0.2929
C11 C 0.0277(4) 0.8035(2) 0.37704(10)
C12 C -0.1881(4) 0.7892(2) 0.39571(11)
H7 H -0.3271 0.791 0.4445
C13 C -0.2012(4) 0.7723(2) 0.34324(11)
H8 H -0.3501 0.7627 0.3566
C14 C 0.0510(4) 0.8270(2) 0.43137(11)
C15 C 0.2458(4) 0.8084(3) -0.14597(11)
H9 H 0.3882 0.8166 -0.1557
C16 C 0.2744(4) 0.8303(3) -0.20528(11)
H10 H 0.4324 0.853 -0.254
C17 C 0.0700(4) 0.8190(2) -0.19337(11)
C18 C -0.1541(4) 0.7847(2) -0.12013(10)
H11 H -0.2999 0.7748 -0.1087
C19 C -0.1658(4) 0.7649(2) -0.06422(11)
H12 H -0.3215 0.7421 -0.0149
C20 C 0.0880(4) 0.8382(2) -0.25501(11)
C21 C 0.2768(4) 0.8220(3) -0.32527(11)
H13 H 0.4025 0.8026 -0.3348
C22 C 0.2858(4) 0.8336(3) -0.38166(11)
H14 H 0.4149 0.8208 -0.429
C23 C 0.1054(4) 0.8641(2) -0.36874(10)
C24 C -0.0765(4) 0.8866(2) -0.29986(11)
H15 H -0.1973 0.9104 -0.2911
C25 C -0.0847(4) 0.8751(2) -0.24389(11)
H16 H -0.2092 0.8925 -0.1974
C26 C 0.1007(4) 0.8666(2) -0.42646(11)
N1 N -0.2164(3) 0.86523(16) 0.06264(8)
N2 N 0.2184(3) 0.64808(17) -0.03960(9)
N3 N -0.0051(3) 0.75225(16) 0.10050(8)
N4 N 0.0301(3) 0.77614(17) -0.07543(9)
O1 O 0.2540(3) 0.84636(19) 0.41082(8)
O2 O -0.1404(3) 0.82551(17) 0.49732(8)
H17 H -0.1062 0.8399 0.523
O3 O 0.2840(3) 0.85510(19) -0.49081(8)
H18 H 0.2624 0.8581 -0.519
O4 O -0.0797(3) 0.87951(17) -0.41084(8)
S1 S 0.39030(9) 0.43944(5) -0.08612(3)
S2 S -0.39381(9) 1.03474(5) 0.05152(3)
Ni1 Ni 0.00826(4) 0.75951(2) 0.013250(13)
C1A C -0.2899(3) 0.43771(19) 0.05916(10)
C2A C 0.2914(3) 1.06431(18) -0.05917(9)
C3A C -0.1077(4) 1.3117(2) -0.10293(10)
H1A H -0.1888 1.3606 -0.0657
C4A C -0.1117(4) 1.3097(2) -0.15720(11)
H2A H -0.1966 1.3557 -0.1561
C5A C 0.0073(3) 1.2411(2) -0.21323(10)
C6A C 0.1288(4) 1.1768(2) -0.21143(11)
H3A H 0.217 1.13 -0.249
C7A C 0.1200(4) 1.1816(2) -0.15461(11)
H4A H 0.2007 1.1351 -0.1538
C8A C 0.0009(4) 1.2311(2) -0.27124(10)
C9A C -0.2134(4) 1.2201(3) -0.25328(11)
H5A H -0.3509 1.2249 -0.2049
C10A C -0.2265(4) 1.2022(3) -0.30587(11)
H6A H -0.3743 1.1937 -0.2929
C11A C -0.0277(4) 1.1965(2) -0.37704(10)
C12A C 0.1881(4) 1.2108(2) -0.39571(11)
H7A H 0.3271 1.209 -0.4445
C13A C 0.2012(4) 1.2277(2) -0.34324(11)
H8A H 0.3501 1.2373 -0.3566
C14A C -0.0510(4) 1.1730(2) -0.43137(11)
C15A C -0.2458(4) 1.1916(3) 0.14597(11)
H9A H -0.3882 1.1834 0.1557
C16A C -0.2744(4) 1.1697(3) 0.20528(11)
H10A H -0.4324 1.147 0.254
C17A C -0.0700(4) 1.1810(2) 0.19337(11)
C18A C 0.1541(4) 1.2153(2) 0.12013(10)
H11A H 0.2999 1.2252 0.1087
C19A C 0.1658(4) 1.2351(2) 0.06422(11)
H12A H 0.3215 1.2579 0.0149
C20A C -0.0880(4) 1.1618(2) 0.25501(11)
C21A C -0.2768(4) 1.1780(3) 0.32527(11)
H13A H -0.4025 1.1974 0.3348
C22A C -0.2858(4) 1.1664(3) 0.38166(11)
H14A H -0.4149 1.1792 0.429
C23A C -0.1054(4) 1.1359(2) 0.36874(10)
C24A C 0.0765(4) 1.1134(2) 0.29986(11)
H15A H 0.1973 1.0896 0.2911
C25A C 0.0847(4) 1.1249(2) 0.24389(11)
H16A H 0.2092 1.1075 0.1974
C26A C -0.1007(4) 1.1334(2) 0.42646(11)
N1A N 0.2164(3) 1.13477(16) -0.06264(8)
N2A N -0.2184(3) 0.35192(17) 0.03960(9)
N2A_2 N -0.2184(3) 1.35192(17) 0.03960(9)
N3A N 0.0051(3) 1.24775(16) -0.10050(8)
N4A N -0.0301(3) 1.22386(17) 0.07543(9)
O1A O -0.2540(3) 1.15364(19) -0.41082(8)
O2A O 0.1404(3) 1.17449(17) -0.49732(8)
H17A H 0.1062 1.1601 -0.523
O3A O -0.2840(3) 1.14490(19) 0.49081(8)
H18A H -0.2624 1.1419 0.519
O4A O 0.0797(3) 1.12049(17) 0.41084(8)
S1A S -0.39030(9) 0.56056(5) 0.08612(3)
S1_2 S 0.39030(9) 1.43944(5) -0.08612(3)
S2A S 0.39381(9) 0.96526(5) -0.05152(3)
Ni1A Ni -0.00826(4) 1.24049(2) -0.013250(13)
Ni1A_2 Ni -0.00826(4) 0.24049(2) -0.013250(13)
C27 C 0.522(2) 0.4475(8) 0.2515(5)
H19 H 0.6216 0.4392 0.2013
C28 C 0.591(2) 0.4363(9) 0.2887(5)
H20 H 0.7351 0.4185 0.2645
C29 C 0.445(2) 0.4513(6) 0.3617(4)
H21 H 0.4937 0.4457 0.3869
C30 C 0.227(2) 0.4748(7) 0.3990(5)
C31 C 0.169(2) 0.4830(9) 0.3607(6)
H22 H 0.0214 0.4979 0.3852
C32 C 0.308(2) 0.4711(10) 0.2878(7)
H23 H 0.2591 0.4789 0.2631
C33 C 0.085(2) 0.4919(6) 0.4762(3)
H24 H 0.1706 0.4875 0.4896
C27A C -0.522(2) 0.5525(8) 0.7485(5)
H19A H -0.6216 0.5608 0.7987
C28A C -0.591(2) 0.5637(9) 0.7113(5)
H20A H -0.7351 0.5815 0.7355
C29A C -0.445(2) 0.5487(6) 0.6383(4)
H21A H -0.4937 0.5543 0.6131
C30A C -0.227(2) 0.5252(7) 0.6010(5)
C31A C -0.169(2) 0.5170(9) 0.6393(6)
H22A H -0.0214 0.5021 0.6148
C32A C -0.308(2) 0.5289(10) 0.7122(7)
H23A H -0.2591 0.5211 0.7369
C33A C -0.085(2) 0.5081(6) 0.5238(3)
H24A H -0.1706 0.5125 0.5104
C34? C 0.434(4) 0.4591(19) 0.2562(14)
C35? C 0.499(4) 0.4523(18) 0.2950(13)
C36? C 0.331(3) 0.4634(15) 0.3726(8)
C37? C 0.113(4) 0.4838(13) 0.4019(8)
C38? C 0.070(4) 0.4875(15) 0.3586(10)
C39? C 0.229(5) 0.4738(19) 0.2848(13)
C40? C -0.060(5) 0.4951(11) 0.4786(6)
H25? H 0.5448 0.4529 0.2057
H26? H 0.6475 0.4406 0.2719
H27? H 0.364 0.4575 0.4021
H28? H -0.0753 0.5002 0.3793
H29? H 0.1902 0.475 0.2564
H30? H -0.2174 0.4972 0.5036
loop_
_geom_bond_atom_site_label_1
_geom_bond_atom_site_label_2
_geom_bond_site_symmetry_1
_geom_bond_site_symmetry_2
C1 N2 1_555 1_555
C2 N1 1_555 1_555
C3 H1 1_555 1_555
C4 C3 1_555 1_555
H2 C4 1_555 1_555
C5 C4 1_555 1_555
C6 C5 1_555 1_555
H3 C6 1_555 1_555
C7 C6 1_555 1_555
H4 C7 1_555 1_555
C8 C5 1_555 1_555
C9 C8 1_555 1_555
H5 C9 1_555 1_555
C10 C9 1_555 1_555
H6 C10 1_555 1_555
C11 C10 1_555 1_555
C12 C11 1_555 1_555
H7 C12 1_555 1_555
C13 C8 1_555 1_555
H8 C13 1_555 1_555
C14 C11 1_555 1_555
C15 H9 1_555 1_555
C16 C15 1_555 1_555
H10 C16 1_555 1_555
C17 C16 1_555 1_555
C18 C17 1_555 1_555
H11 C18 1_555 1_555
C19 C18 1_555 1_555
H12 C19 1_555 1_555
C20 C17 1_555 1_555
C21 C20 1_555 1_555
H13 C21 1_555 1_555
C22 C21 1_555 1_555
H14 C22 1_555 1_555
C23 C22 1_555 1_555
C24 C23 1_555 1_555
H15 C24 1_555 1_555
C25 C20 1_555 1_555
H16 C25 1_555 1_555
C26 C23 1_555 1_555
N1 Ni1 1_555 1_555
N2 Ni1 1_555 1_555
N3 C3 1_555 1_555
N4 C15 1_555 1_555
O1 C14 1_555 1_555
O2 C14 1_555 1_555
H17 O2 1_555 1_555
O3 C26 1_555 1_555
H18 O3 1_555 1_555
O4 C26 1_555 1_555
S1 C1 1_555 1_555
S2 C2 1_555 1_555
Ni1 N3 1_555 1_555
C27 H19 1_555 1_555
C28 C27 1_555 1_555
H20 C28 1_555 1_555
C29 C28 1_555 1_555
H21 C29 1_555 1_555
C30 C29 1_555 1_555
C31 C30 1_555 1_555
H22 C31 1_555 1_555
C32 C27 1_555 1_555
H23 C32 1_555 1_555
C33 C30 1_555 1_555
H24 C33 1_555 1_555
C1A N2A 1_555 1_555
C2A N1A 1_555 1_555
C3A H1A 1_555 1_555
C4A C3A 1_555 1_555
H2A C4A 1_555 1_555
C5A C4A 1_555 1_555
C6A C5A 1_555 1_555
H3A C6A 1_555 1_555
C7A C6A 1_555 1_555
H4A C7A 1_555 1_555
C8A C5A 1_555 1_555
C9A C8A 1_555 1_555
H5A C9A 1_555 1_555
C10A C9A 1_555 1_555
H6A C10A 1_555 1_555
C11A C10A 1_555 1_555
C12A C11A 1_555 1_555
H7A C12A 1_555 1_555
C13A C8A 1_555 1_555
H8A C13A 1_555 1_555
C14A C11A 1_555 1_555
C15A H9A 1_555 1_555
C16A C15A 1_555 1_555
H10A C16A 1_555 1_555
C17A C16A 1_555 1_555
C18A C17A 1_555 1_555
H11A C18A 1_555 1_555
C19A C18A 1_555 1_555
H12A C19A 1_555 1_555
C20A C17A 1_555 1_555
C21A C20A 1_555 1_555
H13A C21A 1_555 1_555
C22A C21A 1_555 1_555
H14A C22A 1_555 1_555
C23A C22A 1_555 1_555
C24A C23A 1_555 1_555
H15A C24A 1_555 1_555
C25A C20A 1_555 1_555
H16A C25A 1_555 1_555
C26A C23A 1_555 1_555
N1A Ni1A 1_555 1_555
N2A Ni1A_2 1_555 1_555
N2A_2 Ni1A 1_555 1_555
N3A C3A 1_555 1_555
N4A C15A 1_555 1_555
O1A C14A 1_555 1_555
O2A C14A 1_555 1_555
H17A O2A 1_555 1_555
O3A C26A 1_555 1_555
H18A O3A 1_555 1_555
O4A C26A 1_555 1_555
S1A Ni1 1_555 1_555
S1_2 Ni1A 1_555 1_555
S2A Ni1 1_555 1_555
Ni1A S2 1_555 1_555
Ni1A_2 S1 1_555 1_555
C27A H19A 1_555 1_555
C28A C27A 1_555 1_555
H20A C28A 1_555 1_555
C29A C28A 1_555 1_555
H21A C29A 1_555 1_555
C30A C29A 1_555 1_555
C31A C30A 1_555 1_555
H22A C31A 1_555 1_555
C32A C27A 1_555 1_555
H23A C32A 1_555 1_555
C33A C33 1_555 1_555
H24A C33A 1_555 1_555
C7 N3 1_555 1_555
C12 C13 1_555 1_555
C19 N4 1_555 1_555
C24 C25 1_555 1_555
N4 Ni1 1_555 1_555
C31 C32 1_555 1_555
C1A S1A 1_555 1_555
C2A S2A 1_555 1_555
C7A N3A 1_555 1_555
C12A C13A 1_555 1_555
C19A N4A 1_555 1_555
C24A C25A 1_555 1_555
N3A Ni1A 1_555 1_555
N4A Ni1A 1_555 1_555
C30A C33A 1_555 1_555
C31A C32A 1_555 1_555

#END
