
#######################################################################
#
#                 Cambridge Crystallographic Data Centre
#                                CCDC 
#
#######################################################################
#
# If this CIF has been generated from an entry in the Cambridge 
# Structural Database, then it will include bibliographic, chemical, 
# crystal, experimental, refinement or atomic coordinate data resulting 
# from the CCDC's data processing and validation procedures.
#
#######################################################################

data_PAPNOL
_symmetry_cell_setting           triclinic
_symmetry_space_group_name_H-M   'P -1'
_symmetry_Int_Tables_number      2
_space_group_name_Hall           '-P 1'
loop_
_symmetry_equiv_pos_site_id
_symmetry_equiv_pos_as_xyz
1 x,y,z
2 -x,-y,-z
_cell_length_a                   23.888(3)
_cell_length_b                   15.070(9)
_cell_length_c                   31.114(4)
_cell_angle_alpha                120.34(3)
_cell_angle_beta                 35.968(7)
_cell_angle_gamma                136.79(4)
_cell_volume                     4403.01
loop_
_atom_site_label
_atom_site_type_symbol
_atom_site_fract_x
_atom_site_fract_y
_atom_site_fract_z
C1 C -0.6416(7) -0.4975(6) 0.5313(5)
H1 H -0.6349 -0.4904 0.5593
C2 C -0.5633(10) -0.5137(6) 0.4542(6)
H2 H -0.5062 -0.5204 0.4301
C3 C -0.5806(7) -0.5184(5) 0.4175(5)
C4 C -0.6694(7) -0.5120(6) 0.4536(4)
C5 C -0.7439(7) -0.4984(6) 0.5275(5)
C6 C -0.7336(8) -0.4920(6) 0.5670(5)
C7 C -0.5029(7) -0.5306(6) 0.3394(5)
H3 H -0.445 -0.5358 0.3153
C8 C -0.5121(7) -0.5348(6) 0.3008(5)
H4 H -0.4604 -0.5418 0.2498
C9 C -0.5992(7) -0.5285(6) 0.3370(5)
C10 C -0.6741(6) -0.5156(6) 0.4113(5)
C11 C -0.7606(6) -0.5113(6) 0.4450(4)
C12 C -0.7675(7) -0.5107(6) 0.4053(5)
C13 C -0.6846(7) -0.5180(6) 0.3266(4)
H5 H -0.6878 -0.5177 0.2982
C14 C -0.6062(7) -0.5249(6) 0.2952(5)
H6 H -0.5518 -0.5277 0.2436
C15 C -0.8575(8) -0.5044(7) 0.4403(5)
H7 H -0.8601 -0.5046 0.4114
C16 C -0.9386(10) -0.4980(6) 0.5162(6)
H8 H -0.998 -0.4952 0.5406
C17 C -0.9245(6) -0.4960(6) 0.5564(4)
C18 C -0.8360(7) -0.4998(6) 0.5203(5)
C19 C -0.8268(6) -0.4947(6) 0.5614(4)
C20 C -0.9076(8) -0.4848(6) 0.6360(5)
C21 C -1.0010(9) -0.4862(7) 0.6779(6)
H9 H -1.055 -0.4843 0.7297
C22 C -1.0072(9) -0.4909(6) 0.6351(6)
H10 H -1.0674 -0.4907 0.6587
C23 C -0.8976(9) -0.4774(6) 0.6813(5)
H11 H -0.9512 -0.4722 0.7326
C24 C -0.8079(8) -0.4783(7) 0.6455(5)
H12 H -0.7964 -0.4707 0.6705
C25 C -0.1991(3) -0.4433(4) -0.0580(2)
C26 C -0.4689(3) -0.5578(4) 0.0610(2)
C27 C -0.0349(3) 0.0556(4) -0.0590(2)
C28 C -0.3089(3) -0.0652(4) 0.0623(2)
C29 C 0.1334(3) 0.5564(4) -0.0583(2)
C30 C -0.6359(3) -1.0564(4) 0.0623(2)
C31 C -0.3776(4) -0.7600(4) 0.0524(2)
H13 H -0.3055 -0.7462 0.002
C32 C -0.4063(4) -0.7786(4) 0.1092(2)
H14 H -0.355 -0.779 0.097
C33 C -0.5092(4) -0.7966(4) 0.1835(2)
C34 C -0.5777(4) -0.7916(4) 0.1962(2)
H15 H -0.6471 -0.7992 0.2458
C35 C -0.5448(4) -0.7758(4) 0.1369(2)
H16 H -0.595 -0.7756 0.1476
C36 C -0.5397(4) -0.8135(4) 0.2447(2)
C37 C -0.4506(4) -0.7761(5) 0.2291(3)
H17 H -0.3703 -0.7401 0.179
C38 C -0.4772(4) -0.7906(5) 0.2854(3)
H18 H -0.4153 -0.7645 0.2737
C39 C -0.5938(4) -0.8431(4) 0.3588(2)
C40 C -0.6835(4) -0.8807(4) 0.3755(3)
H19 H -0.7636 -0.9165 0.4259
C41 C -0.6570(4) -0.8662(4) 0.3189(2)
H20 H -0.7192 -0.8924 0.3308
C42 C -0.6181(4) -0.8563(4) 0.4177(2)
C43 C -0.2603(4) -0.2955(4) 0.1092(2)
H21 H -0.2369 -0.3458 0.0725
C44 C -0.2685(4) -0.2846(4) 0.1612(2)
H22 H -0.2492 -0.325 0.159
C45 C -0.3056(4) -0.2130(4) 0.2168(2)
C46 C -0.3319(4) -0.1576(4) 0.2161(2)
H23 H -0.3595 -0.1104 0.2536
C47 C -0.3188(4) -0.1693(4) 0.1618(2)
H24 H -0.3349 -0.1272 0.162
C48 C -0.3166(4) -0.1993(4) 0.2734(2)
C49 C -0.2353(4) -0.1897(4) 0.2547(2)
H25 H -0.1749 -0.1955 0.2057
C50 C -0.2420(4) -0.1718(5) 0.3065(3)
H26 H -0.1848 -0.1622 0.2929
C51 C -0.3344(4) -0.1678(4) 0.3799(2)
C52 C -0.4171(4) -0.1813(4) 0.3993(2)
H27 H -0.4806 -0.1808 0.4491
C53 C -0.4081(4) -0.1956(4) 0.3465(2)
H28 H -0.4642 -0.2028 0.3601
C54 C -0.3411(4) -0.1504(4) 0.4346(2)
C55 C -0.0479(4) 0.2533(4) 0.0567(2)
H29 H 0.031 0.2845 0.0062
C56 C -0.0737(4) 0.2367(4) 0.1122(2)
H30 H -0.0127 0.2575 0.0994
C57 C -0.1893(4) 0.1896(4) 0.1871(2)
C58 C -0.2735(4) 0.1597(5) 0.2005(2)
H31 H -0.3544 0.1244 0.2501
C59 C -0.2403(4) 0.1810(5) 0.1423(2)
H32 H -0.2991 0.1619 0.1534
C60 C -0.2189(4) 0.1705(4) 0.2475(2)
C61 C -0.1509(4) 0.1590(5) 0.2309(2)
H33 H -0.0864 0.1604 0.1808
C62 C -0.1755(4) 0.1455(5) 0.2865(2)
H34 H -0.129 0.1355 0.2742
C63 C -0.2679(4) 0.1463(4) 0.3604(2)
C64 C -0.3403(4) 0.1500(4) 0.3774(2)
H35 H -0.4075 0.1439 0.4279
C65 C -0.3163(4) 0.1623(5) 0.3219(2)
H36 H -0.3669 0.1653 0.3347
C66 C -0.2852(4) 0.1433(4) 0.4172(2)
C67 C -0.3646(4) -0.8392(4) -0.1542(2)
H37 H -0.367 -0.8971 -0.1475
C68 C -0.3475(4) -0.8485(4) -0.2099(2)
H38 H -0.3356 -0.9092 -0.2416
C69 C -0.3476(4) -0.7680(4) -0.2199(2)
C70 C -0.3607(4) -0.6774(4) -0.1729(2)
H39 H -0.3593 -0.6187 -0.178
C71 C -0.3755(4) -0.6739(4) -0.1194(2)
H40 H -0.3843 -0.6117 -0.0882
C72 C -0.3354(4) -0.7800(4) -0.2769(2)
C73 C -0.2568(4) -0.8043(4) -0.3470(2)
H41 H -0.2082 -0.8092 -0.3585
C74 C -0.2492(4) -0.8211(4) -0.3988(2)
H42 H -0.1947 -0.836 -0.4461
C75 C -0.3211(4) -0.8164(4) -0.3822(2)
C76 C -0.3997(4) -0.7921(4) -0.3130(2)
H43 H -0.4491 -0.789 -0.3015
C77 C -0.4054(4) -0.7727(4) -0.2615(2)
H44 H -0.4574 -0.7541 -0.2151
C78 C -0.3163(4) -0.8349(4) -0.4365(2)
C79 C -0.1242(4) -0.2262(5) -0.1348(2)
H45 H -0.0703 -0.2188 -0.1458
C80 C -0.0937(4) -0.2133(5) -0.1940(2)
H46 H -0.0206 -0.1983 -0.244
C81 C -0.1691(4) -0.2221(4) -0.1804(2)
C82 C -0.2767(4) -0.2489(4) -0.1044(2)
H47 H -0.3337 -0.2586 -0.0911
C83 C -0.3009(4) -0.2612(4) -0.0494(2)
H48 H -0.3749 -0.2796 0.0013
C84 C -0.1383(4) -0.2038(4) -0.2412(2)
C85 C -0.0623(5) -0.2287(6) -0.3114(3)
H49 H -0.028 -0.2558 -0.3208
C86 C -0.0363(5) -0.2138(6) -0.3682(3)
H50 H 0.0143 -0.2322 -0.4156
C87 C -0.1618(5) -0.1471(6) -0.2835(3)
H51 H -0.195 -0.1186 -0.2744
C88 C -0.1886(5) -0.1635(6) -0.2279(3)
H52 H -0.2414 -0.1477 -0.1801
C89 C -0.0845(4) -0.1725(4) -0.3549(2)
C90 C -0.0626(4) -0.1596(4) -0.4125(2)
C91 C -0.0352(4) 0.1525(4) -0.1533(2)
H53 H -0.0336 0.0985 -0.1474
C92 C -0.0179(4) 0.1416(4) -0.2094(2)
H54 H -0.0006 0.0847 -0.2426
C93 C -0.0255(4) 0.2138(4) -0.2177(2)
C94 C -0.0469(4) 0.2977(4) -0.1690(2)
H55 H -0.0531 0.3491 -0.1723
C95 C -0.0592(4) 0.3068(4) -0.1153(2)
H56 H -0.0718 0.3668 -0.0833
C96 C -0.0151(4) 0.1971(4) -0.2744(2)
C97 C 0.0712(4) 0.1844(4) -0.3462(2)
H57 H 0.123 0.1852 -0.3583
C98 C 0.0819(4) 0.1706(4) -0.3998(2)
H58 H 0.1408 0.1619 -0.4481
C99 C 0.0066(4) 0.1694(4) -0.3829(2)
C100 C -0.0813(4) 0.1801(4) -0.3109(2)
H59 H -0.1343 0.1768 -0.2988
C101 C -0.0917(4) 0.1956(4) -0.2571(2)
H60 H -0.15 0.2051 -0.2089
C102 C 0.0175(4) 0.1583(4) -0.4390(2)
N1 N -0.2069(3) -0.3614(3) -0.02605(19)
N2 N -0.4585(3) -0.6381(3) 0.02686(18)
N3 N -0.0339(3) 0.1282(3) -0.06392(18)
N4 N -0.3096(3) -0.1358(3) 0.06876(18)
N5 N -0.6385(3) -1.1304(3) 0.06795(18)
N6 N 0.1309(3) 0.6415(3) -0.02880(18)
N7 N -0.4468(3) -0.7606(3) 0.06529(18)
N8 N -0.2839(3) -0.2387(3) 0.10857(18)
N9 N -0.1281(3) 0.2277(3) 0.07037(19)
N10 N -0.3783(3) -0.7536(3) -0.10866(18)
N11 N -0.2257(3) -0.2486(3) -0.06345(18)
N12 N -0.0542(3) 0.2345(3) -0.10654(18)
O1 O -0.5410(3) -0.8402(3) 0.39928(17)
O2 O -0.7204(3) -0.8852(3) 0.48604(16)
H61 H -0.7255 -0.8902 0.5149
O3 O -0.2628(3) -0.1330(3) 0.41570(18)
O4 O -0.4310(3) -0.1529(3) 0.50186(15)
H62 H -0.4279 -0.1424 0.5293
O5 O -0.2165(3) 0.1432(3) 0.39987(16)
O6 O -0.3742(3) 0.1412(3) 0.48454(17)
H63 H -0.3771 0.1397 0.5129
O7 O -0.3873(3) -0.8394(3) -0.41912(17)
O8 O -0.2332(3) -0.8450(3) -0.50275(16)
H64 H -0.2368 -0.855 -0.5298
O9 O 0.0246(3) -0.1620(3) -0.47941(16)
H65 H 0.032 -0.1543 -0.509
O10 O -0.1228(3) -0.1470(3) -0.39694(16)
O11 O 0.1019(3) 0.1508(3) -0.50489(16)
H66 H 0.1016 0.1449 -0.5331
O12 O -0.0516(3) 0.1558(3) -0.42228(17)
S1 S -0.18703(9) -0.55904(10) -0.10366(6)
S2 S -0.48239(9) -0.44455(10) 0.10849(6)
S3 S -0.03730(9) -0.04650(10) -0.05056(6)
S4 S -0.30559(9) 0.03410(10) 0.05097(6)
S5 S 0.13865(9) 0.43577(9) -0.10239(6)
S6 S -0.63062(9) -0.95401(9) 0.05165(6)
Ni1 Ni -0.41069(4) -0.75465(5) -0.02269(3)
Ni2 Ni -0.25696(4) -0.24635(5) 0.02395(3)
Ni3 Ni -0.08672(4) 0.23788(5) -0.01961(3)
N5A N -0.3615(3) -0.8696(3) -0.06795(18)
N6A N -0.1309(3) 0.3585(3) 0.02880(18)
Ni1A Ni -0.58931(4) -1.24535(5) 0.02269(3)
Ni3A Ni 0.08672(4) 0.76212(5) 0.01961(3)
C103? C -0.823(3) -1.806(3) 0.2894(16)
C104? C -0.793(3) -1.788(3) 0.2296(17)
C105? C -0.983(3) -1.848(3) 0.3212(14)
C106? C -1.004(3) -1.852(3) 0.3735(15)
H67? H -0.7687 -1.8018 0.277
H68? H -0.7181 -1.7685 0.1792
H69? H -1.0487 -1.8805 0.3343
H70? H -1.0774 -1.8704 0.4245
loop_
_geom_bond_atom_site_label_1
_geom_bond_atom_site_label_2
_geom_bond_site_symmetry_1
_geom_bond_site_symmetry_2
C1 H1 1_555 1_555
C2 C1 1_555 1_555
H2 C2 1_555 1_555
C3 C2 1_555 1_555
C4 C3 1_555 1_555
C5 C4 1_555 1_555
C6 C1 1_555 1_555
C7 C3 1_555 1_555
H3 C7 1_555 1_555
C8 C7 1_555 1_555
H4 C8 1_555 1_555
C9 C8 1_555 1_555
C10 C4 1_555 1_555
C11 C10 1_555 1_555
C12 C11 1_555 1_555
C13 C12 1_555 1_555
H5 C13 1_555 1_555
C14 C9 1_555 1_555
H6 C14 1_555 1_555
C15 C12 1_555 1_555
H7 C15 1_555 1_555
C16 C15 1_555 1_555
H8 C16 1_555 1_555
C17 C16 1_555 1_555
C18 C11 1_555 1_555
C19 C5 1_555 1_555
C20 C19 1_555 1_555
C21 C20 1_555 1_555
H9 C21 1_555 1_555
C22 C17 1_555 1_555
H10 C22 1_555 1_555
C23 C20 1_555 1_555
H11 C23 1_555 1_555
C24 C6 1_555 1_555
H12 C24 1_555 1_555
C25 N1 1_555 1_555
C26 N2 1_555 1_555
C27 N3 1_555 1_555
C28 N4 1_555 1_555
C29 N6 1_555 1_555
C30 N5 1_555 1_555
C31 H13 1_555 1_555
C32 C31 1_555 1_555
H14 C32 1_555 1_555
C33 C32 1_555 1_555
C34 C33 1_555 1_555
H15 C34 1_555 1_555
C35 C34 1_555 1_555
H16 C35 1_555 1_555
C36 C33 1_555 1_555
C37 C36 1_555 1_555
H17 C37 1_555 1_555
C38 C37 1_555 1_555
H18 C38 1_555 1_555
C39 C38 1_555 1_555
C40 C39 1_555 1_555
H19 C40 1_555 1_555
C41 C36 1_555 1_555
H20 C41 1_555 1_555
C42 C39 1_555 1_555
C43 H21 1_555 1_555
C44 C43 1_555 1_555
H22 C44 1_555 1_555
C45 C44 1_555 1_555
C46 C45 1_555 1_555
H23 C46 1_555 1_555
C47 C46 1_555 1_555
H24 C47 1_555 1_555
C48 C45 1_555 1_555
C49 C48 1_555 1_555
H25 C49 1_555 1_555
C50 C49 1_555 1_555
H26 C50 1_555 1_555
C51 C50 1_555 1_555
C52 C51 1_555 1_555
H27 C52 1_555 1_555
C53 C48 1_555 1_555
H28 C53 1_555 1_555
C54 C51 1_555 1_555
C55 H29 1_555 1_555
C56 C55 1_555 1_555
H30 C56 1_555 1_555
C57 C56 1_555 1_555
C58 C57 1_555 1_555
H31 C58 1_555 1_555
C59 C58 1_555 1_555
H32 C59 1_555 1_555
C60 C57 1_555 1_555
C61 C60 1_555 1_555
H33 C61 1_555 1_555
C62 C61 1_555 1_555
H34 C62 1_555 1_555
C63 C62 1_555 1_555
C64 C63 1_555 1_555
H35 C64 1_555 1_555
C65 C60 1_555 1_555
H36 C65 1_555 1_555
C66 C63 1_555 1_555
C67 H37 1_555 1_555
C68 C67 1_555 1_555
H38 C68 1_555 1_555
C69 C68 1_555 1_555
C70 C69 1_555 1_555
H39 C70 1_555 1_555
C71 C70 1_555 1_555
H40 C71 1_555 1_555
C72 C69 1_555 1_555
C73 C72 1_555 1_555
H41 C73 1_555 1_555
C74 C73 1_555 1_555
H42 C74 1_555 1_555
C75 C74 1_555 1_555
C76 C75 1_555 1_555
H43 C76 1_555 1_555
C77 C72 1_555 1_555
H44 C77 1_555 1_555
C78 C75 1_555 1_555
C79 H45 1_555 1_555
C80 C79 1_555 1_555
H46 C80 1_555 1_555
C81 C80 1_555 1_555
C82 C81 1_555 1_555
H47 C82 1_555 1_555
C83 C82 1_555 1_555
H48 C83 1_555 1_555
C84 C81 1_555 1_555
C85 C84 1_555 1_555
H49 C85 1_555 1_555
C86 C85 1_555 1_555
H50 C86 1_555 1_555
C87 H51 1_555 1_555
C88 C84 1_555 1_555
H52 C88 1_555 1_555
C89 C86 1_555 1_555
C90 C89 1_555 1_555
C91 H53 1_555 1_555
C92 C91 1_555 1_555
H54 C92 1_555 1_555
C93 C92 1_555 1_555
C94 C93 1_555 1_555
H55 C94 1_555 1_555
C95 C94 1_555 1_555
H56 C95 1_555 1_555
C96 C93 1_555 1_555
C97 C96 1_555 1_555
H57 C97 1_555 1_555
C98 C97 1_555 1_555
H58 C98 1_555 1_555
C99 C98 1_555 1_555
C100 C99 1_555 1_555
H59 C100 1_555 1_555
C101 C96 1_555 1_555
H60 C101 1_555 1_555
C102 C99 1_555 1_555
N1 Ni2 1_555 1_555
N2 Ni1 1_555 1_555
N3 Ni3 1_555 1_555
N4 Ni2 1_555 1_555
N5 Ni1A 1_555 1_555
N6 Ni3A 1_555 1_555
N7 C31 1_555 1_555
N8 C43 1_555 1_555
N9 C55 1_555 1_555
N10 C67 1_555 1_555
N11 C79 1_555 1_555
N12 C91 1_555 1_555
O1 C42 1_555 1_555
O2 C42 1_555 1_555
H61 O2 1_555 1_555
O3 C54 1_555 1_555
O4 C54 1_555 1_555
H62 O4 1_555 1_555
O5 C66 1_555 1_555
O6 C66 1_555 1_555
H63 O6 1_555 1_555
O7 C78 1_555 1_555
O8 C78 1_555 1_555
H64 O8 1_555 1_555
O9 C90 1_555 1_555
H65 O9 1_555 1_555
O10 C90 1_555 1_555
O11 C102 1_555 1_555
H66 O11 1_555 1_555
O12 C102 1_555 1_555
S1 C25 1_555 1_555
S2 C26 1_555 1_555
S3 C27 1_555 1_555
S4 C28 1_555 1_555
S5 C29 1_555 1_555
S6 C30 1_555 1_555
Ni1 N7 1_555 1_555
Ni2 N8 1_555 1_555
Ni3 N9 1_555 1_555
N5A Ni1 1_555 1_555
N6A Ni3 1_555 1_555
C5 C6 1_555 1_555
C9 C10 1_555 1_555
C13 C14 1_555 1_555
C17 C18 1_555 1_555
C18 C19 1_555 1_555
C21 C22 1_555 1_555
C23 C24 1_555 1_555
C35 N7 1_555 1_555
C40 C41 1_555 1_555
C47 N8 1_555 1_555
C52 C53 1_555 1_555
C59 N9 1_555 1_555
C64 C65 1_555 1_555
C71 N10 1_555 1_555
C76 C77 1_555 1_555
C83 N11 1_555 1_555
C87 C88 1_555 1_555
C87 C89 1_555 1_555
C95 N12 1_555 1_555
C100 C101 1_555 1_555
N10 Ni1 1_555 1_555
N11 Ni2 1_555 1_555
N12 Ni3 1_555 1_555
S1 Ni1 1_555 1_555
S2 Ni2 1_555 1_555
S3 Ni2 1_555 1_555
S4 Ni3 1_555 1_555
S5 Ni3 1_555 1_555
S6 Ni1 1_555 1_555

#END
