
#######################################################################
#
#                 Cambridge Crystallographic Data Centre
#                                CCDC 
#
#######################################################################
#
# If this CIF has been generated from an entry in the Cambridge 
# Structural Database, then it will include bibliographic, chemical, 
# crystal, experimental, refinement or atomic coordinate data resulting 
# from the CCDC's data processing and validation procedures.
#
#######################################################################

data_PAPNEB
_symmetry_cell_setting           triclinic
_symmetry_space_group_name_H-M   'P -1'
_symmetry_Int_Tables_number      2
_space_group_name_Hall           '-P 1'
loop_
_symmetry_equiv_pos_site_id
_symmetry_equiv_pos_as_xyz
1 x,y,z
2 -x,-y,-z
_cell_length_a                   8.0170(6)
_cell_length_b                   10.9346(11)
_cell_length_c                   25.160(2)
_cell_angle_alpha                95.529(6)
_cell_angle_beta                 47.384(5)
_cell_angle_gamma                108.006(5)
_cell_volume                     1523.39
loop_
_atom_site_label
_atom_site_type_symbol
_atom_site_fract_x
_atom_site_fract_y
_atom_site_fract_z
C19 C -0.2839(7) 0.4432(4) 0.0595(2)
C20 C 0.2863(7) 0.0601(4) -0.0579(2)
C21 C 0.1633(8) 0.2476(5) 0.0643(2)
H13 H 0.3154 0.2738 0.0155
C22 C 0.1568(8) 0.2320(5) 0.1195(2)
H14 H 0.3022 0.2481 0.1081
C23 C -0.0589(8) 0.1933(4) 0.1907(2)
C24 C -0.2628(8) 0.1716(6) 0.2032(3)
H15 H -0.4173 0.1444 0.2515
C25 C -0.2393(9) 0.1899(5) 0.1446(2)
H16 H -0.3817 0.1741 0.1543
C26 C -0.0752(8) 0.1753(4) 0.2526(2)
C27 C 0.1132(9) 0.1583(6) 0.2388(2)
H17 H 0.2501 0.1545 0.1902
C28 C 0.1071(9) 0.1464(6) 0.2944(2)
H18 H 0.2395 0.1345 0.2835
C29 C -0.0859(8) 0.1517(4) 0.3643(2)
C30 C -0.2784(9) 0.1642(5) 0.3795(2)
H19 H -0.4174 0.1645 0.4285
C31 C -0.2715(9) 0.1765(5) 0.3238(3)
H20 H -0.4062 0.186 0.3352
C32 C -0.0860(9) 0.1454(5) 0.4234(3)
C33 C -0.1241(8) 0.2989(5) -0.1006(2)
H21 H -0.2074 0.3484 -0.0631
C34 C -0.1301(8) 0.2929(5) -0.1549(2)
H22 H -0.2156 0.3383 -0.1539
C35 C -0.0129(7) 0.2214(4) -0.2098(2)
C36 C 0.1103(8) 0.1595(4) -0.2079(2)
H23 H 0.1963 0.1097 -0.2449
C37 C 0.1078(8) 0.1702(4) -0.1527(2)
H24 H 0.1934 0.126 -0.1529
C38 C -0.0206(8) 0.2099(4) -0.2675(2)
C39 C -0.2238(8) 0.2062(5) -0.2518(3)
H25 H -0.3584 0.2142 -0.2039
C40 C -0.2346(8) 0.1911(5) -0.3043(2)
H26 H -0.3763 0.189 -0.2923
C41 C -0.0412(8) 0.1790(5) -0.3746(2)
C42 C 0.1659(8) 0.1865(5) -0.3915(2)
H27 H 0.3024 0.1818 -0.4399
C43 C 0.1761(8) 0.2009(5) -0.3385(2)
H28 H 0.3188 0.2046 -0.3507
C44 C -0.0559(9) 0.1629(5) -0.4306(3)
N1 N -0.2170(6) 0.3556(3) 0.03813(19)
N2 N 0.2104(6) 0.1313(3) -0.06080(18)
N3 N -0.0310(7) 0.2281(4) 0.07576(19)
N4 N -0.0053(6) 0.2376(3) -0.09911(18)
O1 O 0.1004(6) 0.1392(3) 0.40531(17)
H29 H 0.0795 0.1345 0.4427
O2 O -0.2707(6) 0.1479(4) 0.48811(17)
O3 O -0.2519(6) 0.1527(4) -0.41089(17)
H30 H -0.2388 0.1447 -0.447
O4 O 0.1286(6) 0.1570(4) -0.49545(17)
S1 S -0.3795(2) 0.56822(12) 0.08959(7)
S2 S 0.3869(2) -0.04030(12) -0.05056(7)
Ni1 Ni -0.01231(11) 0.23907(6) -0.01323(3)
C19A C 0.2839(7) 0.5568(4) -0.0595(2)
C20A C -0.2863(7) -0.0601(4) 0.0579(2)
C21A C -0.1633(8) 0.7524(5) -0.0643(2)
H13A H -0.3154 0.7262 -0.0155
C22A C -0.1568(8) 0.7680(5) -0.1195(2)
H14A H -0.3022 0.7519 -0.1081
C23A C 0.0589(8) 0.8067(4) -0.1907(2)
C24A C 0.2628(8) 0.8284(6) -0.2032(3)
H15A H 0.4173 0.8556 -0.2515
C25A C 0.2393(9) 0.8101(5) -0.1446(2)
H16A H 0.3817 0.8259 -0.1543
C26A C 0.0752(8) 0.8247(4) -0.2526(2)
C27A C -0.1132(9) 0.8417(6) -0.2388(2)
H17A H -0.2501 0.8455 -0.1902
C28A C -0.1071(9) 0.8536(6) -0.2944(2)
H18A H -0.2395 0.8655 -0.2835
C29A C 0.0859(8) 0.8483(4) -0.3643(2)
C30A C 0.2784(9) 0.8358(5) -0.3795(2)
H19A H 0.4174 0.8355 -0.4285
C31A C 0.2715(9) 0.8235(5) -0.3238(3)
H20A H 0.4062 0.814 -0.3352
C32A C 0.0860(9) 0.8546(5) -0.4234(3)
C33A C 0.1241(8) 0.7011(5) 0.1006(2)
H21A H 0.2074 0.6516 0.0631
C34A C 0.1301(8) 0.7071(5) 0.1549(2)
H22A H 0.2156 0.6617 0.1539
C35A C 0.0129(7) 0.7786(4) 0.2098(2)
C36A C -0.1103(8) 0.8405(4) 0.2079(2)
H23A H -0.1963 0.8903 0.2449
C37A C -0.1078(8) 0.8298(4) 0.1527(2)
H24A H -0.1934 0.874 0.1529
C38A C 0.0206(8) 0.7901(4) 0.2675(2)
C39A C 0.2238(8) 0.7938(5) 0.2518(3)
H25A H 0.3584 0.7858 0.2039
C40A C 0.2346(8) 0.8089(5) 0.3043(2)
H26A H 0.3763 0.811 0.2923
C41A C 0.0412(8) 0.8210(5) 0.3746(2)
C42A C -0.1659(8) 0.8135(5) 0.3915(2)
H27A H -0.3024 0.8182 0.4399
C43A C -0.1761(8) 0.7991(5) 0.3385(2)
H28A H -0.3188 0.7954 0.3507
C44A C 0.0559(9) 0.8371(5) 0.4306(3)
N1A N 0.2170(6) 0.6444(3) -0.03813(19)
N2A N -0.2104(6) -0.1313(3) 0.06080(18)
N2A_2 N -0.2104(6) 0.8687(3) 0.06080(18)
N3A N 0.0310(7) 0.7719(4) -0.07576(19)
N4A N 0.0053(6) 0.7624(3) 0.09911(18)
O1A O -0.1004(6) 0.8608(3) -0.40531(17)
H29A H -0.0795 0.8655 -0.4427
O2A O 0.2707(6) 0.8521(4) -0.48811(17)
O3A O 0.2519(6) 0.8473(4) 0.41089(17)
H30A H 0.2388 0.8553 0.447
O4A O -0.1286(6) 0.8430(4) 0.49545(17)
S1A S 0.3795(2) 0.43178(12) -0.08959(7)
S2A S -0.3869(2) 0.04030(12) 0.05056(7)
S2_2 S 0.3869(2) 0.95970(12) -0.05056(7)
Ni1A Ni 0.01231(11) 0.76093(6) 0.01323(3)
Ni1A_2 Ni 0.01231(11) -0.23907(6) 0.01323(3)
C1 C -0.228(3) 0.514(2) 0.5934(12)
C2 C -0.369(3) 0.5129(18) 0.7139(10)
H1 H -0.3263 0.5025 0.7399
C3 C -0.069(3) 0.508(3) 0.5116(13)
C4 C -0.585(3) 0.5354(16) 0.7505(10)
H2 H -0.6833 0.5461 0.8004
C5 C -0.518(3) 0.5355(18) 0.6466(10)
H3 H -0.5672 0.5443 0.6223
C6 C -0.583(3) 0.5376(16) 0.7110(9)
H4 H -0.7332 0.5509 0.7398
C7 C -0.136(3) 0.5084(17) 0.6283(10)
H5 H 0.0188 0.5018 0.6008
C8 C -0.188(2) 0.5092(13) 0.4857(7)
C9 C -0.548(2) 0.5361(12) 0.5982(7)
H6 H -0.6997 0.5477 0.6273
C10 C -0.418(2) 0.5251(12) 0.5275(7)
C11 C 0.052(2) 0.4969(12) 0.5877(7)
H8 H 0.1138 0.496 0.6093
C12 C -0.290(3) 0.516(2) 0.6026(13)
C13 C -0.284(3) 0.5136(17) 0.7013(9)
H9 H -0.2305 0.5074 0.7247
C14 C -0.139(3) 0.5071(19) 0.5276(10)
H10 H -0.1926 0.5129 0.5041
C15 C -0.507(3) 0.5272(15) 0.7434(9)
H11 H -0.6039 0.5292 0.7943
C16 C -0.443(3) 0.5293(17) 0.6305(9)
C17 C -0.655(3) 0.5422(14) 0.7122(8)
H12 H -0.8058 0.5518 0.737
C18 C -0.211(2) 0.5054(16) 0.6358(9)
C1A C 0.228(3) 0.486(2) 0.4066(12)
C2A C 0.369(3) 0.4871(18) 0.2861(10)
H1A H 0.3263 0.4975 0.2601
C3A C 0.069(3) 0.492(3) 0.4884(13)
C4A C 0.585(3) 0.4646(16) 0.2495(10)
H2A H 0.6833 0.4539 0.1996
C5A C 0.518(3) 0.4645(18) 0.3534(10)
H3A H 0.5672 0.4557 0.3777
C6A C 0.583(3) 0.4624(16) 0.2890(9)
H4A H 0.7332 0.4491 0.2602
C7A C 0.136(3) 0.4916(17) 0.3717(10)
H5A H -0.0188 0.4982 0.3992
C8A C 0.188(2) 0.4908(13) 0.5143(7)
C9A C 0.548(2) 0.4639(12) 0.4018(7)
H6A H 0.6997 0.4523 0.3727
C10A C 0.418(2) 0.4749(12) 0.4725(7)
C11A C -0.052(2) 0.5031(12) 0.4123(7)
H8A H -0.1138 0.504 0.3907
C12A C 0.290(3) 0.484(2) 0.3974(13)
C13A C 0.284(3) 0.4864(17) 0.2987(9)
H9A H 0.2305 0.4926 0.2753
C14A C 0.139(3) 0.4929(19) 0.4724(10)
H10A H 0.1926 0.4871 0.4959
C15A C 0.507(3) 0.4728(15) 0.2566(9)
H11A H 0.6039 0.4708 0.2057
C16A C 0.443(3) 0.4707(17) 0.3695(9)
C17A C 0.655(3) 0.4578(14) 0.2878(8)
H12A H 0.8058 0.4482 0.263
C18A C 0.211(2) 0.4946(16) 0.3642(9)
H7? H -0.4768 0.5278 0.5053
loop_
_geom_bond_atom_site_label_1
_geom_bond_atom_site_label_2
_geom_bond_site_symmetry_1
_geom_bond_site_symmetry_2
C1 C3 1_555 1_555
C2 H1 1_555 1_555
H1 C13 1_555 1_555
C3 C8 1_555 1_555
C4 C2 1_555 1_555
H2 C4 1_555 1_555
C5 H3 1_555 1_555
H3 C9 1_555 1_555
C6 C4 1_555 1_555
H4 C6 1_555 1_555
C7 C1 1_555 1_555
H5 C7 1_555 1_555
C8 C10 1_555 1_555
C9 C5 1_555 1_555
H6 C9 1_555 1_555
C10 C9 1_555 1_555
C11 C7 1_555 1_555
H8 C11 1_555 1_555
C12 C1 1_555 1_555
C13 C2 1_555 1_555
H9 H1 1_555 1_555
C14 C1 1_555 1_555
H10 C3 1_555 1_555
C15 C2 1_555 1_555
H11 C4 1_555 1_555
C16 C1 1_555 1_555
C17 C4 1_555 1_555
H12 H4 1_555 1_555
C18 C1 1_555 1_555
C19 N1 1_555 1_555
C20 N2 1_555 1_555
C21 H13 1_555 1_555
C22 C21 1_555 1_555
H14 C22 1_555 1_555
C23 C22 1_555 1_555
C24 C23 1_555 1_555
H15 C24 1_555 1_555
C25 C24 1_555 1_555
H16 C25 1_555 1_555
C26 C23 1_555 1_555
C27 C26 1_555 1_555
H17 C27 1_555 1_555
C28 C27 1_555 1_555
H18 C28 1_555 1_555
C29 C28 1_555 1_555
C30 C29 1_555 1_555
H19 C30 1_555 1_555
C31 C26 1_555 1_555
H20 C31 1_555 1_555
C32 C29 1_555 1_555
C33 H21 1_555 1_555
C34 C33 1_555 1_555
H22 C34 1_555 1_555
C35 C34 1_555 1_555
C36 C35 1_555 1_555
H23 C36 1_555 1_555
C37 C36 1_555 1_555
H24 C37 1_555 1_555
C38 C35 1_555 1_555
C39 C38 1_555 1_555
H25 C39 1_555 1_555
C40 C39 1_555 1_555
H26 C40 1_555 1_555
C41 C40 1_555 1_555
C42 C41 1_555 1_555
H27 C42 1_555 1_555
C43 C38 1_555 1_555
H28 C43 1_555 1_555
C44 C41 1_555 1_555
N1 Ni1 1_555 1_555
N2 Ni1 1_555 1_555
N3 C21 1_555 1_555
N4 C33 1_555 1_555
O1 C32 1_555 1_555
H29 O1 1_555 1_555
O2 C32 1_555 1_555
O3 C44 1_555 1_555
H30 O3 1_555 1_555
O4 C44 1_555 1_555
S1 C19 1_555 1_555
S2 C20 1_555 1_555
Ni1 N3 1_555 1_555
C1A C3A 1_555 1_555
C2A H1A 1_555 1_555
H1A C13A 1_555 1_555
C3A C3 1_555 1_555
C4A C2A 1_555 1_555
H2A C4A 1_555 1_555
C5A H3A 1_555 1_555
H3A C9A 1_555 1_555
C6A C4A 1_555 1_555
H4A C6A 1_555 1_555
C7A C1A 1_555 1_555
H5A C7A 1_555 1_555
C8A C11 1_555 1_555
C9A C5A 1_555 1_555
H6A C9A 1_555 1_555
C10A C8A 1_555 1_555
C11A C8 1_555 1_555
H8A C11A 1_555 1_555
C12A C1A 1_555 1_555
C13A C2A 1_555 1_555
H9A H1A 1_555 1_555
C14A C3 1_555 1_555
H10A C3A 1_555 1_555
C15A C2A 1_555 1_555
H11A C4A 1_555 1_555
C16A C1A 1_555 1_555
C17A C4A 1_555 1_555
H12A H4A 1_555 1_555
C18A C1A 1_555 1_555
C19A N1A 1_555 1_555
C20A N2A 1_555 1_555
C21A H13A 1_555 1_555
C22A C21A 1_555 1_555
H14A C22A 1_555 1_555
C23A C22A 1_555 1_555
C24A C23A 1_555 1_555
H15A C24A 1_555 1_555
C25A C24A 1_555 1_555
H16A C25A 1_555 1_555
C26A C23A 1_555 1_555
C27A C26A 1_555 1_555
H17A C27A 1_555 1_555
C28A C27A 1_555 1_555
H18A C28A 1_555 1_555
C29A C28A 1_555 1_555
C30A C29A 1_555 1_555
H19A C30A 1_555 1_555
C31A C26A 1_555 1_555
H20A C31A 1_555 1_555
C32A C29A 1_555 1_555
C33A H21A 1_555 1_555
C34A C33A 1_555 1_555
H22A C34A 1_555 1_555
C35A C34A 1_555 1_555
C36A C35A 1_555 1_555
H23A C36A 1_555 1_555
C37A C36A 1_555 1_555
H24A C37A 1_555 1_555
C38A C35A 1_555 1_555
C39A C38A 1_555 1_555
H25A C39A 1_555 1_555
C40A C39A 1_555 1_555
H26A C40A 1_555 1_555
C41A C40A 1_555 1_555
C42A C41A 1_555 1_555
H27A C42A 1_555 1_555
C43A C38A 1_555 1_555
H28A C43A 1_555 1_555
C44A C41A 1_555 1_555
N1A Ni1A 1_555 1_555
N2A Ni1A_2 1_555 1_555
N2A_2 Ni1A 1_555 1_555
N3A C21A 1_555 1_555
N4A C33A 1_555 1_555
O1A C32A 1_555 1_555
H29A O1A 1_555 1_555
O2A C32A 1_555 1_555
O3A C44A 1_555 1_555
H30A O3A 1_555 1_555
O4A C44A 1_555 1_555
S1A Ni1 1_555 1_555
S2A Ni1 1_555 1_555
S2_2 Ni1A 1_555 1_555
Ni1A S1 1_555 1_555
Ni1A_2 S2 1_555 1_555
C2 C7 1_555 1_555
C2 C18 1_555 1_555
C3 C12 1_555 1_555
C3 C14 1_555 1_555
C4 C15 1_555 1_555
H2 C15 1_555 1_555
H2 H11 1_555 1_555
C5 C6 1_555 1_555
C5 C12 1_555 1_555
C5 C16 1_555 1_555
C5 C17 1_555 1_555
H3 C16 1_555 1_555
C6 C15 1_555 1_555
C6 C16 1_555 1_555
C6 C17 1_555 1_555
H4 C17 1_555 1_555
C7 C13 1_555 1_555
C7 C18 1_555 1_555
H5 C11 1_555 1_555
C8 C14 1_555 1_555
C8 H10 1_555 1_555
C9 C16 1_555 1_555
C11 C18 1_555 1_555
C12 C14 1_555 1_555
C12 C16 1_555 1_555
C12 C18 1_555 1_555
C13 H9 1_555 1_555
C13 C15 1_555 1_555
C13 C18 1_555 1_555
C14 H10 1_555 1_555
C14 C3A 1_555 1_555
C14 C14A 1_555 1_555
C15 H11 1_555 1_555
C16 C17 1_555 1_555
C17 H12 1_555 1_555
C25 N3 1_555 1_555
C30 C31 1_555 1_555
C37 N4 1_555 1_555
C42 C43 1_555 1_555
N4 Ni1 1_555 1_555
C1A C14A 1_555 1_555
C2A C7A 1_555 1_555
C2A C18A 1_555 1_555
C3A C8A 1_555 1_555
C3A C12A 1_555 1_555
C3A C14A 1_555 1_555
C4A C15A 1_555 1_555
H2A C15A 1_555 1_555
H2A H11A 1_555 1_555
C5A C6A 1_555 1_555
C5A C12A 1_555 1_555
C5A C16A 1_555 1_555
C5A C17A 1_555 1_555
H3A C16A 1_555 1_555
C6A C15A 1_555 1_555
C6A C16A 1_555 1_555
C6A C17A 1_555 1_555
H4A C17A 1_555 1_555
C7A C11A 1_555 1_555
C7A C13A 1_555 1_555
C7A C18A 1_555 1_555
H5A C11A 1_555 1_555
C8A C14A 1_555 1_555
C8A H10A 1_555 1_555
C9A C10A 1_555 1_555
C9A C16A 1_555 1_555
C11A C18A 1_555 1_555
C12A C14A 1_555 1_555
C12A C16A 1_555 1_555
C12A C18A 1_555 1_555
C13A H9A 1_555 1_555
C13A C15A 1_555 1_555
C13A C18A 1_555 1_555
C14A H10A 1_555 1_555
C15A H11A 1_555 1_555
C16A C17A 1_555 1_555
C17A H12A 1_555 1_555
C19A S1A 1_555 1_555
C20A S2A 1_555 1_555
C25A N3A 1_555 1_555
C30A C31A 1_555 1_555
C37A N4A 1_555 1_555
C42A C43A 1_555 1_555
N3A Ni1A 1_555 1_555
N4A Ni1A 1_555 1_555

#END
