
#######################################################################
#
#                 Cambridge Crystallographic Data Centre
#                                CCDC 
#
#######################################################################
#
# If this CIF has been generated from an entry in the Cambridge 
# Structural Database, then it will include bibliographic, chemical, 
# crystal, experimental, refinement or atomic coordinate data resulting 
# from the CCDC's data processing and validation procedures.
#
#######################################################################

data_PAPNIF
_symmetry_cell_setting           triclinic
_symmetry_space_group_name_H-M   'P -1'
_symmetry_Int_Tables_number      2
_space_group_name_Hall           '-P 1'
loop_
_symmetry_equiv_pos_site_id
_symmetry_equiv_pos_as_xyz
1 x,y,z
2 -x,-y,-z
_cell_length_a                   8.016(3)
_cell_length_b                   10.895(4)
_cell_length_c                   25.054(6)
_cell_angle_alpha                95.348(16)
_cell_angle_beta                 47.118(14)
_cell_angle_gamma                109.109(8)
_cell_volume                     1488.22
loop_
_atom_site_label
_atom_site_type_symbol
_atom_site_fract_x
_atom_site_fract_y
_atom_site_fract_z
C1 C 0.4818(7) 0.5481(3) 0.74635(18)
H1 H 0.3901 0.5551 0.7969
C28 C 0.3951(7) 0.5551(3) 0.71413(18)
H20 H 0.2452 0.5686 0.7428
C29 C 0.5241(6) 0.5428(3) 0.64139(18)
H21 H 0.462 0.5477 0.6205
C30 C 0.7459(6) 0.5230(3) 0.59758(17)
C31 C 0.8878(6) 0.5072(3) 0.52069(17)
C32 C 0.7982(6) 0.5056(3) 0.48698(18)
H22 H 0.6438 0.5132 0.5153
C33 C 0.9322(7) 0.4934(3) 0.41469(19)
H23 H 0.8701 0.4937 0.3932
C34 C 0.8374(6) 0.5196(3) 0.62939(18)
C35 C 0.6988(7) 0.5313(3) 0.70470(18)
H24 H 0.7583 0.5272 0.7265
C1A C 1.5182(7) 0.4519(3) 0.25365(18)
H1A H 1.6099 0.4449 0.2031
C28A C 1.6049(7) 0.4449(3) 0.28587(18)
H20A H 1.7548 0.4314 0.2572
C29A C 1.4759(6) 0.4572(3) 0.35861(18)
H21A H 1.538 0.4523 0.3795
C30A C 1.2541(6) 0.4770(3) 0.40242(17)
C31A C 1.1122(6) 0.4928(3) 0.47931(17)
C32A C 1.2018(6) 0.4944(3) 0.51302(18)
H22A H 1.3562 0.4868 0.4847
C33A C 1.0678(7) 0.5066(3) 0.58531(19)
H23A H 1.1299 0.5063 0.6068
C34A C 1.1626(6) 0.4804(3) 0.37061(18)
C35A C 1.3012(7) 0.4687(3) 0.29530(18)
H24A H 1.2417 0.4728 0.2735
C2 C 0.2900(5) 0.5613(2) -0.06054(13)
C3 C -0.2905(4) 0.9365(2) 0.05973(12)
C4 C 0.1145(5) 0.6942(3) 0.10293(14)
H2 H 0.1979 0.6458 0.0649
C5 C 0.1210(5) 0.6978(3) 0.15645(14)
H3 H 0.2096 0.6539 0.1544
C6 C -0.0025(5) 0.7660(3) 0.21392(14)
C7 C -0.1295(5) 0.8266(3) 0.21330(14)
H4 H -0.2214 0.8719 0.2519
C8 C -0.1218(5) 0.8207(3) 0.15665(14)
H5 H -0.2056 0.8656 0.1568
C9 C 0.0029(5) 0.7766(3) 0.27190(14)
C10 C 0.2159(5) 0.7865(3) 0.25366(14)
H6 H 0.3523 0.7812 0.2049
C11 C 0.2286(5) 0.8038(3) 0.30636(14)
H7 H 0.3732 0.8101 0.2938
C12 C 0.0296(5) 0.8119(3) 0.37773(14)
C13 C -0.1847(5) 0.7992(3) 0.39672(14)
H8 H -0.3223 0.8025 0.4458
C14 C -0.1967(5) 0.7818(3) 0.34401(14)
H9 H -0.343 0.7733 0.3571
C15 C 0.0500(5) 0.8325(3) 0.43283(14)
C16 C -0.1702(5) 0.7590(3) -0.06109(14)
H10 H -0.3248 0.7333 -0.0114
C17 C -0.1605(5) 0.7785(3) -0.11678(14)
H11 H -0.3057 0.7672 -0.105
C18 C 0.0631(5) 0.8148(3) -0.19071(14)
C19 C 0.2690(5) 0.8306(3) -0.20371(15)
H12 H 0.4258 0.856 -0.2529
C20 C 0.2426(5) 0.8091(3) -0.14438(14)
H13 H 0.3844 0.8194 -0.1543
C21 C 0.0805(4) 0.8347(3) -0.25209(13)
C22 C -0.0981(5) 0.8672(3) -0.23937(14)
H14 H -0.2261 0.8809 -0.1916
C23 C -0.0898(5) 0.8796(3) -0.29540(14)
H15 H -0.2116 0.902 -0.2861
C24 C 0.0960(5) 0.8596(3) -0.36555(13)
C25 C 0.2788(5) 0.8317(3) -0.37958(14)
H16 H 0.4095 0.8212 -0.4279
C26 C 0.2705(5) 0.8192(3) -0.32341(14)
H17 H 0.3959 0.7999 -0.3334
C27 C 0.0898(5) 0.8636(3) -0.42307(14)
N1 N 0.2171(4) 0.6471(2) -0.03819(11)
N2 N -0.2157(4) 0.8669(2) 0.06398(11)
N3 N -0.0040(4) 0.7557(2) 0.10150(11)
N4 N 0.0272(4) 0.7745(2) -0.07342(11)
O1 O 0.2485(4) 0.8478(2) 0.41287(11)
O2 O -0.1418(4) 0.8342(2) 0.49908(10)
H18 H -0.1121 0.8464 0.5259
O3 O -0.0927(4) 0.8725(2) -0.40644(10)
O4 O 0.2782(4) 0.8564(2) -0.48881(10)
H19 H 0.2587 0.8596 -0.5176
S1 S 0.39026(12) 0.43869(7) -0.09124(4)
S2 S -0.39033(12) 1.03516(7) 0.05054(4)
Ni1 Ni 0.00757(6) 0.75987(3) 0.015002(18)
C2A C -0.2900(5) 0.4387(2) 0.06054(13)
C3A C 0.2905(4) 1.0635(2) -0.05973(12)
C4A C -0.1145(5) 0.3058(3) -0.10293(14)
H2A H -0.1979 0.3542 -0.0649
C5A C -0.1210(5) 0.3022(3) -0.15645(14)
H3A H -0.2096 0.3461 -0.1544
C6A C 0.0025(5) 0.2340(3) -0.21392(14)
C7A C 0.1295(5) 0.1734(3) -0.21330(14)
H4A H 0.2214 0.1281 -0.2519
C8A C 0.1218(5) 0.1793(3) -0.15665(14)
H5A H 0.2056 0.1344 -0.1568
C9A C -0.0029(5) 0.2234(3) -0.27190(14)
C10A C -0.2159(5) 0.2135(3) -0.25366(14)
H6A H -0.3523 0.2188 -0.2049
C11A C -0.2286(5) 0.1962(3) -0.30636(14)
H7A H -0.3732 0.1899 -0.2938
C12A C -0.0296(5) 0.1881(3) -0.37773(14)
C13A C 0.1847(5) 0.2008(3) -0.39672(14)
H8A H 0.3223 0.1975 -0.4458
C14A C 0.1967(5) 0.2182(3) -0.34401(14)
H9A H 0.343 0.2267 -0.3571
C15A C -0.0500(5) 0.1675(3) -0.43283(14)
C16A C 0.1702(5) 0.2410(3) 0.06109(14)
H10A H 0.3248 0.2667 0.0114
C17A C 0.1605(5) 0.2215(3) 0.11678(14)
H11A H 0.3057 0.2328 0.105
C18A C -0.0631(5) 0.1852(3) 0.19071(14)
C19A C -0.2690(5) 0.1694(3) 0.20371(15)
H12A H -0.4258 0.144 0.2529
C20A C -0.2426(5) 0.1909(3) 0.14438(14)
H13A H -0.3844 0.1806 0.1543
C21A C -0.0805(4) 0.1653(3) 0.25209(13)
C22A C 0.0981(5) 0.1328(3) 0.23937(14)
H14A H 0.2261 0.1191 0.1916
C23A C 0.0898(5) 0.1204(3) 0.29540(14)
H15A H 0.2116 0.098 0.2861
C24A C -0.0960(5) 0.1404(3) 0.36555(13)
C25A C -0.2788(5) 0.1683(3) 0.37958(14)
H16A H -0.4095 0.1788 0.4279
C26A C -0.2705(5) 0.1808(3) 0.32341(14)
H17A H -0.3959 0.2001 0.3334
C27A C -0.0898(5) 0.1364(3) 0.42307(14)
N1A N -0.2171(4) 0.3529(2) 0.03819(11)
N2A N 0.2157(4) 1.1331(2) -0.06398(11)
N2A_2 N 0.2157(4) 0.1331(2) -0.06398(11)
N3A N 0.0040(4) 0.2443(2) -0.10150(11)
N4A N -0.0272(4) 0.2255(2) 0.07342(11)
O1A O -0.2485(4) 0.1522(2) -0.41287(11)
O2A O 0.1418(4) 0.1658(2) -0.49908(10)
H18A H 0.1121 0.1536 -0.5259
O3A O 0.0927(4) 0.1275(2) 0.40644(10)
O4A O -0.2782(4) 0.1436(2) 0.48881(10)
H19A H -0.2587 0.1404 0.5176
S1A S -0.39026(12) 0.56131(7) 0.09124(4)
S2A S 0.39033(12) 0.96484(7) -0.05054(4)
S2_2 S -0.39033(12) 0.03516(7) 0.05054(4)
Ni1A Ni -0.00757(6) 0.24013(3) -0.015002(18)
Ni1A_2 Ni -0.00757(6) 1.24013(3) -0.015002(18)
loop_
_geom_bond_atom_site_label_1
_geom_bond_atom_site_label_2
_geom_bond_site_symmetry_1
_geom_bond_site_symmetry_2
C1 H1 1_555 1_555
C2 N1 1_555 1_555
C3 N2 1_555 1_555
C4 H2 1_555 1_555
C5 C4 1_555 1_555
H3 C5 1_555 1_555
C6 C5 1_555 1_555
C7 C6 1_555 1_555
H4 C7 1_555 1_555
C8 C7 1_555 1_555
H5 C8 1_555 1_555
C9 C6 1_555 1_555
C10 C9 1_555 1_555
H6 C10 1_555 1_555
C11 C10 1_555 1_555
H7 C11 1_555 1_555
C12 C11 1_555 1_555
C13 C12 1_555 1_555
H8 C13 1_555 1_555
C14 C9 1_555 1_555
H9 C14 1_555 1_555
C15 C12 1_555 1_555
C16 H10 1_555 1_555
C17 C16 1_555 1_555
H11 C17 1_555 1_555
C18 C17 1_555 1_555
C19 C18 1_555 1_555
H12 C19 1_555 1_555
C20 C19 1_555 1_555
H13 C20 1_555 1_555
C21 C18 1_555 1_555
C22 C21 1_555 1_555
H14 C22 1_555 1_555
C23 C22 1_555 1_555
H15 C23 1_555 1_555
C24 C23 1_555 1_555
C25 C24 1_555 1_555
H16 C25 1_555 1_555
C26 C21 1_555 1_555
H17 C26 1_555 1_555
C27 C24 1_555 1_555
N1 Ni1 1_555 1_555
N2 Ni1 1_555 1_555
N3 C4 1_555 1_555
N4 C16 1_555 1_555
O1 C15 1_555 1_555
O2 C15 1_555 1_555
H18 O2 1_555 1_555
O3 C27 1_555 1_555
O4 C27 1_555 1_555
H19 O4 1_555 1_555
S1 C2 1_555 1_555
S2 C3 1_555 1_555
Ni1 N3 1_555 1_555
C28 C1 1_555 1_555
H20 C28 1_555 1_555
C29 C28 1_555 1_555
H21 C29 1_555 1_555
C30 C29 1_555 1_555
C31 C30 1_555 1_555
C32 C31 1_555 1_555
H22 C32 1_555 1_555
C33 C32 1_555 1_555
H23 C33 1_555 1_555
C34 C30 1_555 1_555
C35 C1 1_555 1_555
H24 C35 1_555 1_555
C1A H1A 1_555 1_555
C2A N1A 1_555 1_555
C3A N2A 1_555 1_555
C4A H2A 1_555 1_555
C5A C4A 1_555 1_555
H3A C5A 1_555 1_555
C6A C5A 1_555 1_555
C7A C6A 1_555 1_555
H4A C7A 1_555 1_555
C8A C7A 1_555 1_555
H5A C8A 1_555 1_555
C9A C6A 1_555 1_555
C10A C9A 1_555 1_555
H6A C10A 1_555 1_555
C11A C10A 1_555 1_555
H7A C11A 1_555 1_555
C12A C11A 1_555 1_555
C13A C12A 1_555 1_555
H8A C13A 1_555 1_555
C14A C9A 1_555 1_555
H9A C14A 1_555 1_555
C15A C12A 1_555 1_555
C16A H10A 1_555 1_555
C17A C16A 1_555 1_555
H11A C17A 1_555 1_555
C18A C17A 1_555 1_555
C19A C18A 1_555 1_555
H12A C19A 1_555 1_555
C20A C19A 1_555 1_555
H13A C20A 1_555 1_555
C21A C18A 1_555 1_555
C22A C21A 1_555 1_555
H14A C22A 1_555 1_555
C23A C22A 1_555 1_555
H15A C23A 1_555 1_555
C24A C23A 1_555 1_555
C25A C24A 1_555 1_555
H16A C25A 1_555 1_555
C26A C21A 1_555 1_555
H17A C26A 1_555 1_555
C27A C24A 1_555 1_555
N1A Ni1A 1_555 1_555
N2A Ni1A_2 1_555 1_555
N2A_2 Ni1A 1_555 1_555
N3A C4A 1_555 1_555
N4A C16A 1_555 1_555
O1A C15A 1_555 1_555
O2A C15A 1_555 1_555
H18A O2A 1_555 1_555
O3A C27A 1_555 1_555
O4A C27A 1_555 1_555
H19A O4A 1_555 1_555
S1A Ni1 1_555 1_555
S2A Ni1 1_555 1_555
S2_2 Ni1A 1_555 1_555
Ni1A S1 1_555 1_555
Ni1A_2 S2 1_555 1_555
C28A C1A 1_555 1_555
H20A C28A 1_555 1_555
C29A C28A 1_555 1_555
H21A C29A 1_555 1_555
C30A C29A 1_555 1_555
C31A C31 1_555 1_555
C32A C31A 1_555 1_555
H22A C32A 1_555 1_555
C33A C34 1_555 1_555
H23A C33A 1_555 1_555
C34A C33 1_555 1_555
C35A C1A 1_555 1_555
H24A C35A 1_555 1_555
C8 N3 1_555 1_555
C13 C14 1_555 1_555
C20 N4 1_555 1_555
C25 C26 1_555 1_555
N4 Ni1 1_555 1_555
C34 C35 1_555 1_555
C2A S1A 1_555 1_555
C3A S2A 1_555 1_555
C8A N3A 1_555 1_555
C13A C14A 1_555 1_555
C20A N4A 1_555 1_555
C25A C26A 1_555 1_555
N3A Ni1A 1_555 1_555
N4A Ni1A 1_555 1_555
C30A C31A 1_555 1_555
C30A C34A 1_555 1_555
C32A C33A 1_555 1_555
C34A C35A 1_555 1_555

#END
