
#######################################################################
#
#                 Cambridge Crystallographic Data Centre
#                                CCDC 
#
#######################################################################
#
# If this CIF has been generated from an entry in the Cambridge 
# Structural Database, then it will include bibliographic, chemical, 
# crystal, experimental, refinement or atomic coordinate data resulting 
# from the CCDC's data processing and validation procedures.
#
#######################################################################

data_PAPPIH
_symmetry_cell_setting           trigonal
_symmetry_space_group_name_H-M   'P 32 2 1'
_symmetry_Int_Tables_number      154
_space_group_name_Hall           'P 32 2"'
loop_
_symmetry_equiv_pos_site_id
_symmetry_equiv_pos_as_xyz
1 x,y,z
2 -y,x-y,2/3+z
3 -x+y,-x,1/3+z
4 y,x,-z
5 x-y,-y,1/3-z
6 -x,-x+y,2/3-z
_cell_length_a                   13.0785(10)
_cell_length_b                   13.0785(10)
_cell_length_c                   20.083(3)
_cell_angle_alpha                90
_cell_angle_beta                 90
_cell_angle_gamma                120
_cell_volume                     2974.92
loop_
_atom_site_label
_atom_site_type_symbol
_atom_site_fract_x
_atom_site_fract_y
_atom_site_fract_z
Cu1 Cu 0.61537(3) 0.61537(3) 0.0000
Br1 Br 0.48710(3) 0.74136(3) -0.027190(13)
N1 N 0.70593(18) 0.73723(19) 0.07237(9)
C1 C 0.6446(2) 0.7627(2) 0.11597(11)
H1 H 0.5659 0.7378 0.1067
C2 C 0.6936(2) 0.8252(2) 0.17507(12)
C3 C 0.8112(3) 0.8638(3) 0.18724(14)
H2 H 0.8466 0.9034 0.2265
C4 C 0.8753(3) 0.8426(3) 0.14033(14)
H3 H 0.9554 0.8713 0.1470
C5 C 0.8208(2) 0.7788(2) 0.08318(13)
H4 H 0.8650 0.7648 0.0520
N2 N 0.6171(2) 0.8414(2) 0.21659(10)
H5 H 0.5437 0.8037 0.2058
C6 C 0.6455(3) 0.9100(2) 0.27229(12)
O1 O 0.74466(19) 0.9676(2) 0.29332(10)
C7 C 0.5391(3) 0.9091(2) 0.30481(12)
H6 H 0.4737 0.8275 0.3079
C8 C 0.5002(3) 0.9815(3) 0.26332(13)
H7 H 0.5665 1.0610 0.2588
H8 H 0.4793 0.9474 0.2191
C9 C 0.3962(3) 0.9883(3) 0.29195(16)
H9 H 0.4112 1.0060 0.3396
C10 C 0.3846(5) 1.0867(4) 0.2601(2)
H10 H 0.3722 1.0726 0.2131
H11 H 0.4556 1.1606 0.2676
H12 H 0.3188 1.0893 0.2794
C11 C 0.2826(4) 0.8714(5) 0.2852(3)
H13 H 0.2197 0.8765 0.3067
H14 H 0.2918 0.8103 0.3058
H15 H 0.2642 0.8534 0.2389
N3 N 0.5731(2) 0.9579(2) 0.37141(10)
H16 H 0.6390 1.0225 0.3764
C12 C 0.5070(3) 0.9073(2) 0.42528(12)
O2 O 0.4142(2) 0.81322(18) 0.42422(9)
C13 C 0.5544(2) 0.9769(2) 0.48873(11)
C14 C 0.4744(2) 0.9599(2) 0.53845(11)
H17 H 0.3952 0.9047 0.5318
N4 N 0.5066(2) 1.02004(19) 0.59603(9)
C15 C 0.6212(2) 1.0982(2) 0.60538(12)
H18 H 0.6442 1.1405 0.6450
C16 C 0.7062(3) 1.1183(3) 0.55849(13)
H19 H 0.7853 1.1720 0.5668
C17 C 0.6720(3) 1.0574(3) 0.49925(13)
H20 H 0.7276 1.0705 0.4666
Cu1A Cu 0.38463(3) 1.00000(4) 0.6667
Cu1B Cu 1.00000(4) 0.38463(3) -0.6667
Br1C Br 0.74136(3) 0.48710(3) 0.027190(13)
N1C N 0.73723(19) 0.70593(18) -0.07237(9)
C1C C 0.7627(2) 0.6446(2) -0.11597(11)
H1C H 0.7378 0.5659 -0.1067
C2C C 0.8252(2) 0.6936(2) -0.17507(12)
C3C C 0.8638(3) 0.8112(3) -0.18724(14)
H2C H 0.9034 0.8466 -0.2265
C4C C 0.8426(3) 0.8753(3) -0.14033(14)
H3C H 0.8713 0.9554 -0.1470
C5C C 0.7788(2) 0.8208(2) -0.08318(13)
H4C H 0.7648 0.8650 -0.0520
N2C N 0.8414(2) 0.6171(2) -0.21659(10)
H5C H 0.8037 0.5437 -0.2058
C6C C 0.9100(2) 0.6455(3) -0.27229(12)
O1C O 0.9676(2) 0.74466(19) -0.29332(10)
C7C C 0.9091(2) 0.5391(3) -0.30481(12)
H6C H 0.8275 0.4737 -0.3079
C8C C 0.9815(3) 0.5002(3) -0.26332(13)
H7C H 1.0610 0.5665 -0.2588
H8C H 0.9474 0.4793 -0.2191
C9C C 0.9883(3) 0.3962(3) -0.29195(16)
H9C H 1.0060 0.4112 -0.3396
C10C C 1.0867(4) 0.3846(5) -0.2601(2)
H10C H 1.0726 0.3722 -0.2131
H11C H 1.1606 0.4556 -0.2676
H12C H 1.0893 0.3188 -0.2794
C11C C 0.8714(5) 0.2826(4) -0.2852(3)
H13C H 0.8765 0.2197 -0.3067
H14C H 0.8103 0.2918 -0.3058
H15C H 0.8534 0.2642 -0.2389
N3C N 0.9579(2) 0.5731(2) -0.37141(10)
H16C H 1.0225 0.6390 -0.3764
C12C C 0.9073(2) 0.5070(3) -0.42528(12)
O2C O 0.81322(18) 0.4142(2) -0.42422(9)
C13C C 0.9769(2) 0.5544(2) -0.48873(11)
C14C C 0.9599(2) 0.4744(2) -0.53845(11)
H17C H 0.9047 0.3952 -0.5318
N4C N 1.02004(19) 0.5066(2) -0.59603(9)
N4B N 0.51344(28) 0.4934(2) -0.07064(9)
N4E N 0.4934(2) 0.51344(28) 0.07064(9)
C15C C 1.0982(2) 0.6212(2) -0.60538(12)
H18C H 1.1405 0.6442 -0.6450
C16C C 1.1183(3) 0.7062(3) -0.55849(13)
H19C H 1.1720 0.7853 -0.5668
C17C C 1.0574(3) 0.6720(3) -0.49925(13)
H20C H 1.0705 0.7276 -0.4666
O3 O 0.6864(3) 0.3053(3) 0.15352(19)
H21 H 0.654(3) 0.315(3) 0.1800(18)
H22 H 0.680(5) 0.333(5) 0.132(3)
loop_
_geom_bond_atom_site_label_1
_geom_bond_atom_site_label_2
_geom_bond_site_symmetry_1
_geom_bond_site_symmetry_2
Cu1 Br1 1_555 1_555
N1 Cu1 1_555 1_555
C1 N1 1_555 1_555
H1 C1 1_555 1_555
C2 C1 1_555 1_555
C3 C2 1_555 1_555
H2 C3 1_555 1_555
C4 C3 1_555 1_555
H3 C4 1_555 1_555
C5 N1 1_555 1_555
H4 C5 1_555 1_555
N2 C2 1_555 1_555
H5 N2 1_555 1_555
C6 N2 1_555 1_555
O1 C6 1_555 1_555
C7 C6 1_555 1_555
H6 C7 1_555 1_555
C8 C7 1_555 1_555
H7 C8 1_555 1_555
H8 C8 1_555 1_555
C9 C8 1_555 1_555
H9 C9 1_555 1_555
C10 C9 1_555 1_555
H10 C10 1_555 1_555
H11 C10 1_555 1_555
H12 C10 1_555 1_555
C11 C9 1_555 1_555
H13 C11 1_555 1_555
H14 C11 1_555 1_555
H15 C11 1_555 1_555
N3 C7 1_555 1_555
H16 N3 1_555 1_555
C12 N3 1_555 1_555
O2 C12 1_555 1_555
C13 C12 1_555 1_555
C14 C13 1_555 1_555
H17 C14 1_555 1_555
N4 C14 1_555 1_555
C15 N4 1_555 1_555
H18 C15 1_555 1_555
C16 C15 1_555 1_555
H19 C16 1_555 1_555
C17 C13 1_555 1_555
H20 C17 1_555 1_555
O3 H21 1_555 1_555
H22 O3 1_555 1_555
Cu1A N4 1_555 1_555
Cu1B N4C 1_555 1_555
Br1C Cu1 1_555 1_555
N1C Cu1 1_555 1_555
C1C N1C 1_555 1_555
H1C C1C 1_555 1_555
C2C C1C 1_555 1_555
C3C C2C 1_555 1_555
H2C C3C 1_555 1_555
C4C C3C 1_555 1_555
H3C C4C 1_555 1_555
C5C N1C 1_555 1_555
H4C C5C 1_555 1_555
N2C C2C 1_555 1_555
H5C N2C 1_555 1_555
C6C N2C 1_555 1_555
O1C C6C 1_555 1_555
C7C C6C 1_555 1_555
H6C C7C 1_555 1_555
C8C C7C 1_555 1_555
H7C C8C 1_555 1_555
H8C C8C 1_555 1_555
C9C C8C 1_555 1_555
H9C C9C 1_555 1_555
C10C C9C 1_555 1_555
H10C C10C 1_555 1_555
H11C C10C 1_555 1_555
H12C C10C 1_555 1_555
C11C C9C 1_555 1_555
H13C C11C 1_555 1_555
H14C C11C 1_555 1_555
H15C C11C 1_555 1_555
N3C C7C 1_555 1_555
H16C N3C 1_555 1_555
C12C N3C 1_555 1_555
O2C C12C 1_555 1_555
C13C C12C 1_555 1_555
C14C C13C 1_555 1_555
H17C C14C 1_555 1_555
N4C C14C 1_555 1_555
N4B Cu1 1_555 1_555
N4E Cu1 1_555 1_555
C15C N4C 1_555 1_555
H18C C15C 1_555 1_555
C16C C15C 1_555 1_555
H19C C16C 1_555 1_555
C17C C13C 1_555 1_555
H20C C17C 1_555 1_555
C4 C5 1_555 1_555
C16 C17 1_555 1_555
C4C C5C 1_555 1_555
C16C C17C 1_555 1_555

#END
