
#######################################################################
#
#                 Cambridge Crystallographic Data Centre
#                                CCDC 
#
#######################################################################
#
# If this CIF has been generated from an entry in the Cambridge 
# Structural Database, then it will include bibliographic, chemical, 
# crystal, experimental, refinement or atomic coordinate data resulting 
# from the CCDC's data processing and validation procedures.
#
#######################################################################

data_PAPPED
_symmetry_cell_setting           trigonal
_symmetry_space_group_name_H-M   'P 32 2 1'
_symmetry_Int_Tables_number      154
_space_group_name_Hall           'P 32 2"'
loop_
_symmetry_equiv_pos_site_id
_symmetry_equiv_pos_as_xyz
1 x,y,z
2 -y,x-y,2/3+z
3 -x+y,-x,1/3+z
4 y,x,-z
5 x-y,-y,1/3-z
6 -x,-x+y,2/3-z
_cell_length_a                   12.9292(6)
_cell_length_b                   12.9292(6)
_cell_length_c                   20.1039(11)
_cell_angle_alpha                90
_cell_angle_beta                 90
_cell_angle_gamma                120
_cell_volume                     2910.41
loop_
_atom_site_label
_atom_site_type_symbol
_atom_site_fract_x
_atom_site_fract_y
_atom_site_fract_z
Cu1 Cu 0.37953(4) 0.37953(4) 0.0000
Cl1 Cl 0.50065(8) 0.25684(7) -0.02904(4)
N1 N 0.2896(2) 0.2556(2) 0.07201(11)
C1 C 0.1742(3) 0.2158(3) 0.08456(14)
H1 H 0.1286 0.2287 0.0535
C2 C 0.1213(3) 0.1558(3) 0.14296(15)
H2 H 0.0409 0.1289 0.1507
C3 C 0.1876(3) 0.1358(3) 0.18971(14)
H3 H 0.1534 0.0985 0.2298
C4 C 0.3051(3) 0.1718(3) 0.17588(13)
C5 C 0.3526(3) 0.2304(3) 0.11586(13)
H4 H 0.4313 0.2530 0.1056
N2 N 0.3832(2) 0.1563(2) 0.21772(11)
H5 H 0.4577 0.1952 0.2073
C6 C 0.3540(3) 0.0864(3) 0.27297(13)
O1 O 0.2538(2) 0.0279(2) 0.29422(11)
C7 C 0.4612(3) 0.0856(3) 0.30499(13)
H6 H 0.5275 0.1680 0.3084
C8 C 0.5012(3) 0.0134(3) 0.26375(15)
H7 H 0.5215 0.0476 0.2195
H8 H 0.4345 -0.0674 0.2595
C9 C 0.6084(4) 0.0075(4) 0.29212(17)
H9 H 0.5937 -0.0119 0.3395
C10 C 0.7211(4) 0.1249(4) 0.2857(3)
H10 H 0.7870 0.1176 0.3018
H11 H 0.7145 0.1840 0.3113
H12 H 0.7341 0.1485 0.2398
C11 C 0.6206(4) -0.0906(4) 0.2584(2)
H13 H 0.6241 -0.0793 0.2111
H14 H 0.5530 -0.1667 0.2694
H15 H 0.6924 -0.0879 0.2734
N3 N 0.4272(2) 0.0357(2) 0.37176(11)
H16 H 0.3616 -0.0309 0.3766
C12 C 0.4930(3) 0.0884(3) 0.42575(14)
O2 O 0.5851(2) 0.1854(2) 0.42465(9)
C13 C 0.4463(3) 0.0190(3) 0.48919(13)
C14 C 0.3279(3) -0.0642(3) 0.50017(13)
H19 H 0.2711 -0.0792 0.4675
C15 C 0.2943(3) -0.1250(3) 0.55987(15)
H20 H 0.2145 -0.1798 0.5684
C16 C 0.3803(3) -0.1033(3) 0.60625(14)
H21 H 0.3578 -0.1463 0.6458
N4 N 0.4958(2) -0.0224(2) 0.59685(10)
C17 C 0.5268(3) 0.0380(3) 0.53949(13)
H22 H 0.6064 0.0956 0.5331
Cu1A Cu 0.62047(4) 0.00000(6) 0.6667
Cu1B Cu 0.00000(6) 0.62047(4) -0.6667
Cl1C Cl 0.25684(7) 0.50065(8) 0.02904(4)
N1C N 0.2556(2) 0.2896(2) -0.07201(11)
C1C C 0.2158(3) 0.1742(3) -0.08456(14)
H1C H 0.2287 0.1286 -0.0535
C2C C 0.1558(3) 0.1213(3) -0.14296(15)
H2C H 0.1289 0.0409 -0.1507
C3C C 0.1358(3) 0.1876(3) -0.18971(14)
H3C H 0.0985 0.1534 -0.2298
C4C C 0.1718(3) 0.3051(3) -0.17588(13)
C5C C 0.2304(3) 0.3526(3) -0.11586(13)
H4C H 0.2530 0.4313 -0.1056
N2C N 0.1563(2) 0.3832(2) -0.21772(11)
H5C H 0.1952 0.4577 -0.2073
C6C C 0.0864(3) 0.3540(3) -0.27297(13)
O1C O 0.0279(2) 0.2538(2) -0.29422(11)
C7C C 0.0856(3) 0.4612(3) -0.30499(13)
H6C H 0.1680 0.5275 -0.3084
C8C C 0.0134(3) 0.5012(3) -0.26375(15)
H7C H 0.0476 0.5215 -0.2195
H8C H -0.0674 0.4345 -0.2595
C9C C 0.0075(4) 0.6084(4) -0.29212(17)
H9C H -0.0119 0.5937 -0.3395
C10C C 0.1249(4) 0.7211(4) -0.2857(3)
H10C H 0.1176 0.7870 -0.3018
H11C H 0.1840 0.7145 -0.3113
H12C H 0.1485 0.7341 -0.2398
C11C C -0.0906(4) 0.6206(4) -0.2584(2)
H13C H -0.0793 0.6241 -0.2111
H14C H -0.1667 0.5530 -0.2694
H15C H -0.0879 0.6924 -0.2734
N3C N 0.0357(2) 0.4272(2) -0.37176(11)
H16C H -0.0309 0.3616 -0.3766
C12C C 0.0884(3) 0.4930(3) -0.42575(14)
O2C O 0.1854(2) 0.5851(2) -0.42465(9)
C13C C 0.0190(3) 0.4463(3) -0.48919(13)
C14C C -0.0642(3) 0.3279(3) -0.50017(13)
H19C H -0.0792 0.2711 -0.4675
C15C C -0.1250(3) 0.2943(3) -0.55987(15)
H20C H -0.1798 0.2145 -0.5684
C16C C -0.1033(3) 0.3803(3) -0.60625(14)
H21C H -0.1463 0.3578 -0.6458
N4C N -0.0224(2) 0.4958(2) -0.59685(10)
N4B N 0.4818(3) 0.5042(2) -0.06982(10)
N4E N 0.5042(2) 0.4818(3) 0.06982(10)
C17C C 0.0380(3) 0.5268(3) -0.53949(13)
H22C H 0.0956 0.6064 -0.5331
O3 O 0.6256(2) 0.3089(3) 0.18827(16)
H17 H 0.660(3) 0.354(3) 0.2181(18)
H18 H 0.667(3) 0.325(3) 0.1536(17)
loop_
_geom_bond_atom_site_label_1
_geom_bond_atom_site_label_2
_geom_bond_site_symmetry_1
_geom_bond_site_symmetry_2
Cu1 Cl1 1_555 1_555
N1 Cu1 1_555 1_555
C1 N1 1_555 1_555
H1 C1 1_555 1_555
C2 C1 1_555 1_555
H2 C2 1_555 1_555
C3 C2 1_555 1_555
H3 C3 1_555 1_555
C4 C3 1_555 1_555
C5 N1 1_555 1_555
H4 C5 1_555 1_555
N2 C4 1_555 1_555
H5 N2 1_555 1_555
C6 N2 1_555 1_555
O1 C6 1_555 1_555
C7 C6 1_555 1_555
H6 C7 1_555 1_555
C8 C7 1_555 1_555
H7 C8 1_555 1_555
H8 C8 1_555 1_555
C9 C8 1_555 1_555
H9 C9 1_555 1_555
C10 C9 1_555 1_555
H10 C10 1_555 1_555
H11 C10 1_555 1_555
H12 C10 1_555 1_555
C11 C9 1_555 1_555
H13 C11 1_555 1_555
H14 C11 1_555 1_555
H15 C11 1_555 1_555
N3 C7 1_555 1_555
H16 N3 1_555 1_555
C12 N3 1_555 1_555
O2 C12 1_555 1_555
O3 H17 1_555 1_555
H18 O3 1_555 1_555
C13 C12 1_555 1_555
C14 C13 1_555 1_555
H19 C14 1_555 1_555
C15 C14 1_555 1_555
H20 C15 1_555 1_555
C16 C15 1_555 1_555
H21 C16 1_555 1_555
N4 C16 1_555 1_555
C17 C13 1_555 1_555
H22 C17 1_555 1_555
Cu1A N4 1_555 1_555
Cu1B N4C 1_555 1_555
Cl1C Cu1 1_555 1_555
N1C Cu1 1_555 1_555
C1C N1C 1_555 1_555
H1C C1C 1_555 1_555
C2C C1C 1_555 1_555
H2C C2C 1_555 1_555
C3C C2C 1_555 1_555
H3C C3C 1_555 1_555
C4C C3C 1_555 1_555
C5C N1C 1_555 1_555
H4C C5C 1_555 1_555
N2C C4C 1_555 1_555
H5C N2C 1_555 1_555
C6C N2C 1_555 1_555
O1C C6C 1_555 1_555
C7C C6C 1_555 1_555
H6C C7C 1_555 1_555
C8C C7C 1_555 1_555
H7C C8C 1_555 1_555
H8C C8C 1_555 1_555
C9C C8C 1_555 1_555
H9C C9C 1_555 1_555
C10C C9C 1_555 1_555
H10C C10C 1_555 1_555
H11C C10C 1_555 1_555
H12C C10C 1_555 1_555
C11C C9C 1_555 1_555
H13C C11C 1_555 1_555
H14C C11C 1_555 1_555
H15C C11C 1_555 1_555
N3C C7C 1_555 1_555
H16C N3C 1_555 1_555
C12C N3C 1_555 1_555
O2C C12C 1_555 1_555
C13C C12C 1_555 1_555
C14C C13C 1_555 1_555
H19C C14C 1_555 1_555
C15C C14C 1_555 1_555
H20C C15C 1_555 1_555
C16C C15C 1_555 1_555
H21C C16C 1_555 1_555
N4C C16C 1_555 1_555
N4B Cu1 1_555 1_555
N4E Cu1 1_555 1_555
C17C C13C 1_555 1_555
H22C C17C 1_555 1_555
C4 C5 1_555 1_555
N4 C17 1_555 1_555
C4C C5C 1_555 1_555
N4C C17C 1_555 1_555

#END
