
#######################################################################
#
#                 Cambridge Crystallographic Data Centre
#                                CCDC 
#
#######################################################################
#
# If this CIF has been generated from an entry in the Cambridge 
# Structural Database, then it will include bibliographic, chemical, 
# crystal, experimental, refinement or atomic coordinate data resulting 
# from the CCDC's data processing and validation procedures.
#
#######################################################################

data_PAPQII
_symmetry_cell_setting           triclinic
_symmetry_space_group_name_H-M   'P -1'
_symmetry_Int_Tables_number      2
_space_group_name_Hall           '-P 1'
loop_
_symmetry_equiv_pos_site_id
_symmetry_equiv_pos_as_xyz
1 x,y,z
2 -x,-y,-z
_cell_length_a                   8.1535(3)
_cell_length_b                   9.4052(3)
_cell_length_c                   12.3338(4)
_cell_angle_alpha                108.60
_cell_angle_beta                 96.0540(10)
_cell_angle_gamma                100.7710(10)
_cell_volume                     866.675
loop_
_atom_site_label
_atom_site_type_symbol
_atom_site_fract_x
_atom_site_fract_y
_atom_site_fract_z
C1 C 0.0705(4) 1.1046(3) 0.7887(3)
C2 C -0.0800(4) 1.1524(4) 0.8383(3)
H1 H -0.0713 1.1483 0.9162
H2 H -0.1820 1.0772 0.7918
C3 C -0.1009(4) 1.3127(4) 0.8442(3)
H3 H -0.1866 1.3389 0.8910
H4 H 0.0052 1.3868 0.8838
C4 C -0.1506(4) 1.3301(3) 0.7274(3)
H5 H -0.0589 1.3174 0.6838
H6 H -0.2498 1.2492 0.6834
C5 C -0.1894(5) 1.4863(4) 0.7404(3)
H7 H -0.2911 1.4926 0.7743
H8 H -0.0968 1.5667 0.7940
C6 C -0.3798(4) 1.8259(3) 0.5270(2)
C7 C -0.2886(4) 1.7008(4) 0.5271(3)
H9 H -0.1758 1.7304 0.5110
H10 H -0.3482 1.6071 0.4641
C8 C -0.2717(5) 1.6653(4) 0.6389(3)
H11 H -0.3803 1.6580 0.6647
H12 H -0.1904 1.7502 0.6983
C9 C -0.2151(4) 1.5167(4) 0.6265(3)
H13 H -0.1095 1.5217 0.5967
H14 H -0.2995 1.4309 0.5702
C10 C 0.2792(4) 0.6633(4) 0.7469(3)
H15 H 0.1924 0.6329 0.6832
C11 C 0.4986(5) 0.8480(3) 0.8743(3)
H16 H 0.5678 0.9471 0.8998
C12 C 0.3047(5) 0.5564(4) 0.7982(3)
H17 H 0.2380 0.4561 0.7679
C13 C 0.5309(5) 0.7487(4) 0.9316(3)
H18 H 0.6197 0.7814 0.9944
C14 C 0.4298(4) 0.5995(3) 0.8946(3)
C15 C 0.4513(5) 0.4851(4) 0.9504(3)
H19 H 0.3905 0.3837 0.9117
N1 N 0.3725(3) 0.8080(3) 0.7840(2)
O1 O 0.4864(3) 1.1334(3) 0.7900(2)
O2 O 0.1738(4) 0.8461(3) 0.5719(2)
O3 O 0.1390(3) 1.1649(3) 0.7215(2)
O4 O 0.1293(3) 1.0017(3) 0.8133(2)
O5 O -0.4552(4) 1.8769(3) 0.6061(2)
O6 O -0.3815(4) 1.8692(4) 0.4419(3)
U1 U 0.328880(14) 0.993421(12) 0.677918(9)
C1_2 C 1.0705(4) 0.1046(3) 0.7887(3)
C2_2 C 0.9200(4) 0.1524(4) 0.8383(3)
H1_2 H 0.9287 0.1483 0.9162
H2_2 H 0.8180 0.0772 0.7918
C3_2 C 0.8991(4) 0.3127(4) 0.8442(3)
H3_2 H 0.8134 0.3389 0.8910
H4_2 H 1.0052 0.3868 0.8838
C4_2 C 0.8494(4) 0.3301(3) 0.7274(3)
H5_2 H 0.9411 0.3174 0.6838
H6_2 H 0.7502 0.2492 0.6834
C5_2 C 0.8106(5) 0.4863(4) 0.7404(3)
H7_2 H 0.7089 0.4926 0.7743
H8_2 H 0.9032 0.5667 0.7940
C6_2 C 0.6202(4) 0.8259(3) 0.5270(2)
C7_2 C 0.7114(4) 0.7008(4) 0.5271(3)
H9_2 H 0.8242 0.7304 0.5110
H10_2 H 0.6518 0.6071 0.4641
C8_2 C 0.7283(5) 0.6653(4) 0.6389(3)
H11_2 H 0.6197 0.6580 0.6647
H12_2 H 0.8096 0.7502 0.6983
C9_2 C 0.7849(4) 0.5167(4) 0.6265(3)
H13_2 H 0.8905 0.5217 0.5967
H14_2 H 0.7005 0.4309 0.5702
C10A C 0.7208(4) 0.3367(4) 1.2531(3)
H15A H 0.8076 0.3671 1.3168
C11A C 0.5014(5) 0.1520(3) 1.1257(3)
H16A H 0.4322 0.0529 1.1002
C12A C 0.6953(5) 0.4436(4) 1.2018(3)
H17A H 0.7620 0.5439 1.2321
C13A C 0.4691(5) 0.2513(4) 1.0684(3)
H18A H 0.3803 0.2186 1.0056
C14A C 0.5702(4) 0.4005(3) 1.1054(3)
C15A C 0.5487(5) 0.5149(4) 1.0496(3)
H19A H 0.6095 0.6163 1.0883
N1A N 0.6275(3) 0.1920(3) 1.2160(2)
O1A O 0.5136(3) -0.1334(3) 1.2100(2)
O2A O 0.8262(4) 0.1539(3) 1.4281(2)
O3_2 O 1.1390(3) 0.1649(3) 0.7215(2)
O3A O 0.8610(3) -0.1649(3) 1.2785(2)
O4_2 O 1.1293(3) 0.0017(3) 0.8133(2)
O4A O 0.8707(3) -0.0017(3) 1.1867(2)
O5_2 O 0.5448(4) 0.8769(3) 0.6061(2)
O5A O 0.4552(4) 0.1231(3) 1.3939(2)
O6_2 O 0.6185(4) 0.8692(4) 0.4419(3)
O6A O 0.3815(4) 1.1308(4) 0.5581(3)
O6_3 O 0.6185(4) -0.1308(4) 1.4419(3)
U1A U 0.671120(14) 0.006579(12) 1.322082(9)
U1_2 U -0.671120(14) 1.993421(12) 0.677918(9)
U1A_2 U -0.328880(14) 2.006579(12) 0.322082(9)
U1_3 U 1.328880(14) -0.006579(12) 0.677918(9)
U1A_3 U 0.671120(14) 1.006579(12) 0.322082(9)
loop_
_geom_bond_atom_site_label_1
_geom_bond_atom_site_label_2
_geom_bond_site_symmetry_1
_geom_bond_site_symmetry_2
C1 C2 1_555 1_555
C2 H1 1_555 1_555
H2 C2 1_555 1_555
C3 C2 1_555 1_555
H3 C3 1_555 1_555
H4 C3 1_555 1_555
C4 C3 1_555 1_555
H5 C4 1_555 1_555
H6 C4 1_555 1_555
C5 C4 1_555 1_555
H7 C5 1_555 1_555
H8 C5 1_555 1_555
C6 C7 1_555 1_555
C7 H9 1_555 1_555
H10 C7 1_555 1_555
C8 C7 1_555 1_555
H11 C8 1_555 1_555
H12 C8 1_555 1_555
C9 C5 1_555 1_555
H13 C9 1_555 1_555
H14 C9 1_555 1_555
C10 H15 1_555 1_555
C11 H16 1_555 1_555
C12 C10 1_555 1_555
H17 C12 1_555 1_555
C13 C11 1_555 1_555
H18 C13 1_555 1_555
C14 C12 1_555 1_555
C15 C14 1_555 1_555
H19 C15 1_555 1_555
N1 C10 1_555 1_555
O1 U1 1_555 1_555
O2 U1 1_555 1_555
O3 C1 1_555 1_555
O4 C1 1_555 1_555
O5 C6 1_555 1_555
O6 C6 1_555 1_555
U1 N1 1_555 1_555
C1_2 C2_2 1_555 1_555
C2_2 H1_2 1_555 1_555
H2_2 C2_2 1_555 1_555
C3_2 C2_2 1_555 1_555
H3_2 C3_2 1_555 1_555
H4_2 C3_2 1_555 1_555
C4_2 C3_2 1_555 1_555
H5_2 C4_2 1_555 1_555
H6_2 C4_2 1_555 1_555
C5_2 C4_2 1_555 1_555
H7_2 C5_2 1_555 1_555
H8_2 C5_2 1_555 1_555
C6_2 C7_2 1_555 1_555
C7_2 H9_2 1_555 1_555
H10_2 C7_2 1_555 1_555
C8_2 C7_2 1_555 1_555
H11_2 C8_2 1_555 1_555
H12_2 C8_2 1_555 1_555
C9_2 C5_2 1_555 1_555
H13_2 C9_2 1_555 1_555
H14_2 C9_2 1_555 1_555
C10A H15A 1_555 1_555
C11A H16A 1_555 1_555
C12A C10A 1_555 1_555
H17A C12A 1_555 1_555
C13A C11A 1_555 1_555
H18A C13A 1_555 1_555
C14A C12A 1_555 1_555
C15A C15 1_555 1_555
H19A C15A 1_555 1_555
N1A C10A 1_555 1_555
O1A U1A 1_555 1_555
O2A U1A 1_555 1_555
O3_2 C1_2 1_555 1_555
O3A U1A 1_555 1_555
O4_2 C1_2 1_555 1_555
O4A U1A 1_555 1_555
O5_2 U1 1_555 1_555
O5A U1A 1_555 1_555
O6_2 C6_2 1_555 1_555
O6A U1 1_555 1_555
O6_3 U1A 1_555 1_555
U1A N1A 1_555 1_555
U1_2 O5 1_555 1_555
U1A_2 O6 1_555 1_555
U1_3 O3_2 1_555 1_555
U1A_3 O6_2 1_555 1_555
C8 C9 1_555 1_555
C11 N1 1_555 1_555
C13 C14 1_555 1_555
O3 U1 1_555 1_555
O4 U1 1_555 1_555
C6_2 O5_2 1_555 1_555
C8_2 C9_2 1_555 1_555
C11A N1A 1_555 1_555
C13A C14A 1_555 1_555
C14A C15A 1_555 1_555
O4_2 U1_3 1_555 1_555

#END
