
#######################################################################
#
#                 Cambridge Crystallographic Data Centre
#                                CCDC 
#
#######################################################################
#
# If this CIF has been generated from an entry in the Cambridge 
# Structural Database, then it will include bibliographic, chemical, 
# crystal, experimental, refinement or atomic coordinate data resulting 
# from the CCDC's data processing and validation procedures.
#
#######################################################################

data_PAPQUU
_symmetry_cell_setting           monoclinic
_symmetry_space_group_name_H-M   'C 2/c'
_symmetry_Int_Tables_number      15
_space_group_name_Hall           '-C 2yn'
loop_
_symmetry_equiv_pos_site_id
_symmetry_equiv_pos_as_xyz
1 x,y,z
2 -x,y,1/2-z
3 1/2+x,1/2+y,z
4 1/2-x,1/2+y,1/2-z
5 -x,-y,-z
6 x,-y,1/2+z
7 1/2-x,1/2-y,-z
8 1/2+x,1/2-y,1/2+z
_cell_length_a                   25.4837(8)
_cell_length_b                   15.9313(5)
_cell_length_c                   25.4808(11)
_cell_angle_alpha                90
_cell_angle_beta                 118.76
_cell_angle_gamma                90
_cell_volume                     9068.79
loop_
_atom_site_label
_atom_site_type_symbol
_atom_site_fract_x
_atom_site_fract_y
_atom_site_fract_z
C1 C 0.6619(2) 0.8783(3) 0.3897(2)
C2 C 0.6336(2) 0.9114(3) 0.4257(2)
H1 H 0.6259 0.8646 0.4453
H2 H 0.6620 0.9483 0.4567
C3 C 0.5758(2) 0.9588(3) 0.3899(2)
H3 H 0.5478 0.9232 0.3577
H4 H 0.5836 1.0077 0.3720
C4 C 0.54732(19) 0.9871(3) 0.42732(19)
H5 H 0.5763 1.0193 0.4612
H6 H 0.5367 0.9381 0.4428
C5 C 0.4917(2) 1.0403(3) 0.39197(19)
H7 H 0.5023 1.0875 0.3749
H8 H 0.4624 1.0069 0.3591
C6 C 0.46302(19) 1.0735(3) 0.42783(19)
H9 H 0.4923 1.1061 0.4613
H10 H 0.4511 1.0265 0.4440
C7 C 0.40857(18) 1.1280(3) 0.39071(19)
H11 H 0.4202 1.1738 0.3734
H12 H 0.3788 1.0947 0.3580
C8 C 0.3807(2) 1.1638(3) 0.4265(2)
H13 H 0.3729 1.1181 0.4469
H14 H 0.4096 1.2008 0.4569
C9 C 0.32368(19) 1.2117(3) 0.3908(2)
C10 C 0.1670(2) 1.3317(3) 0.2007(2)
C11 C 0.1408(2) 1.3475(4) 0.1351(2)
H15 H 0.1108 1.3912 0.1234
H16 H 0.1211 1.2968 0.1134
C12 C 0.1880(2) 1.3739(4) 0.1176(2)
H17 H 0.2171 1.3290 0.1280
H18 H 0.1687 1.3812 0.0745
C13 C 0.2203(3) 1.4530(4) 0.1469(3)
H19 H 0.2390 1.4456 0.1899
H20 H 0.1911 1.4977 0.1362
C14 C 0.2685(2) 1.4811(4) 0.1309(3)
H21 H 0.2498 1.4919 0.0882
H22 H 0.2860 1.5333 0.1515
C15 C 0.3173(2) 1.4174(3) 0.1472(2)
H23 H 0.3016 1.3711 0.1192
H24 H 0.3281 1.3955 0.1867
C16 C 0.3739(2) 1.4496(3) 0.1478(2)
H25 H 0.3999 1.4024 0.1528
H26 H 0.3630 1.4751 0.1093
C17 C 0.4081(2) 1.5128(3) 0.19638(19)
H27 H 0.3843 1.5635 0.1884
H28 H 0.4448 1.5273 0.1959
C18 C 0.42322(18) 1.4803(3) 0.25759(18)
C19 C 0.03872(19) 1.7882(3) 0.4273(2)
C20 C 0.09413(19) 1.7351(3) 0.4612(2)
H29 H 0.0828 1.6833 0.4732
H30 H 0.1215 1.7646 0.4975
C21 C 0.12679(19) 1.7134(3) 0.4266(2)
H31 H 0.1374 1.7649 0.4137
H32 H 0.1001 1.6819 0.3911
C22 C 0.18328(18) 1.6621(3) 0.46327(19)
H33 H 0.2095 1.6934 0.4991
H34 H 0.1724 1.6104 0.4757
C23 C 0.21733(19) 1.6407(3) 0.42984(19)
H35 H 0.1906 1.6111 0.3934
H36 H 0.2292 1.6925 0.4185
C24 C 0.27231(18) 1.5876(3) 0.46509(19)
H37 H 0.2604 1.5358 0.4765
H38 H 0.2990 1.6172 0.5016
C25 C 0.30628(18) 1.5662(3) 0.43179(18)
H39 H 0.2785 1.5433 0.3929
H40 H 0.3231 1.6173 0.4253
C26 C 0.35588(19) 1.5040(3) 0.46465(19)
H41 H 0.3833 1.5276 0.5034
H42 H 0.3387 1.4538 0.4717
C27 C 0.39128(18) 1.4790(3) 0.43417(18)
O1 O 0.25835(14) 1.39892(19) 0.33565(15)
O2 O 0.17446(14) 1.21444(19) 0.31597(15)
O3 O 0.29762(12) 1.21321(18) 0.33484(13)
O4 O 0.30145(15) 1.2511(2) 0.41861(14)
O5 O 0.71062(15) 0.8390(2) 0.41658(14)
O6 O 0.63742(14) 0.8866(2) 0.33429(14)
O7 O 0.14097(14) 1.3597(2) 0.22846(13)
O8 O 0.21402(15) 1.2889(2) 0.22871(14)
O9 O 0.51176(12) 1.48541(19) 0.40583(13)
O10 O 0.39035(13) 1.34579(19) 0.33632(13)
O11 O 0.42610(14) 1.4170(2) 0.45389(13)
O12 O 0.38669(12) 1.51719(19) 0.38907(13)
O13 O 0.40345(13) 1.5165(2) 0.28841(13)
O14 O 0.45518(13) 1.4157(2) 0.27812(13)
O15 O 0.02062(13) 1.8068(2) 0.37344(14)
O16 O 0.01213(14) 1.8165(2) 0.45446(13)
U1 U 0.217530(7) 1.306110(10) 0.326220(7)
U2 U 0.451170(6) 1.415070(9) 0.371470(6)
C1B C 0.1619(2) 1.3783(3) 0.3897(2)
C2B C 0.1336(2) 1.4114(3) 0.4257(2)
H1B H 0.1259 1.3646 0.4453
H2B H 0.1620 1.4483 0.4567
C3B C 0.0758(2) 1.4588(3) 0.3899(2)
H3B H 0.0478 1.4232 0.3577
H4B H 0.0836 1.5077 0.3720
C4B C 0.04732(19) 1.4871(3) 0.42732(19)
H5B H 0.0763 1.5193 0.4612
H6B H 0.0367 1.4381 0.4428
C5B C -0.0083(2) 1.5403(3) 0.39197(19)
H7B H 0.0023 1.5875 0.3749
H8B H -0.0376 1.5069 0.3591
C6B C -0.03698(19) 1.5735(3) 0.42783(19)
H9B H -0.0077 1.6061 0.4613
H10B H -0.0489 1.5265 0.4440
C7B C -0.09143(18) 1.6280(3) 0.39071(19)
H11B H -0.0798 1.6738 0.3734
H12B H -0.1212 1.5947 0.3580
C8B C -0.1193(2) 1.6638(3) 0.4265(2)
H13B H -0.1271 1.6181 0.4469
H14B H -0.0904 1.7008 0.4569
C9B C -0.17632(19) 1.7117(3) 0.3908(2)
C10B C -0.3330(2) 1.8317(3) 0.2007(2)
C11B C -0.3592(2) 1.8475(4) 0.1351(2)
H15B H -0.3892 1.8912 0.1234
H16B H -0.3789 1.7968 0.1134
C12B C -0.3120(2) 1.8739(4) 0.1176(2)
H17B H -0.2829 1.8290 0.1280
H18B H -0.3313 1.8812 0.0745
C13B C -0.2797(3) 1.9530(4) 0.1469(3)
H19B H -0.2610 1.9456 0.1899
H20B H -0.3089 1.9977 0.1362
C14B C -0.2315(2) 1.9811(4) 0.1309(3)
H21B H -0.2502 1.9919 0.0882
H22B H -0.2140 2.0333 0.1515
C15B C -0.1827(2) 1.9174(3) 0.1472(2)
H23B H -0.1984 1.8711 0.1192
H24B H -0.1719 1.8955 0.1867
C16B C -0.1261(2) 1.9496(3) 0.1478(2)
H25B H -0.1001 1.9024 0.1528
H26B H -0.1370 1.9751 0.1093
C17B C -0.0919(2) 2.0128(3) 0.19638(19)
H27B H -0.1157 2.0635 0.1884
H28B H -0.0552 2.0273 0.1959
C18B C -0.07678(18) 1.9803(3) 0.25759(18)
C19B C 0.53872(19) 1.2882(3) 0.4273(2)
C20B C 0.59413(19) 1.2351(3) 0.4612(2)
H29B H 0.5828 1.1833 0.4732
H30B H 0.6215 1.2646 0.4975
C21B C 0.62679(19) 1.2134(3) 0.4266(2)
H31B H 0.6374 1.2649 0.4137
H32B H 0.6001 1.1819 0.3911
C22B C 0.68328(18) 1.1621(3) 0.46327(19)
H33B H 0.7095 1.1934 0.4991
H34B H 0.6724 1.1104 0.4757
C23B C 0.71733(19) 1.1407(3) 0.42984(19)
H35B H 0.6906 1.1111 0.3934
H36B H 0.7292 1.1925 0.4185
C24B C 0.77231(18) 1.0876(3) 0.46509(19)
H37B H 0.7604 1.0358 0.4765
H38B H 0.7990 1.1172 0.5016
C25B C 0.80628(18) 1.0662(3) 0.43179(18)
H39B H 0.7785 1.0433 0.3929
H40B H 0.8231 1.1173 0.4253
C26B C 0.85588(19) 1.0040(3) 0.46465(19)
H41B H 0.8833 1.0276 0.5034
H42B H 0.8387 0.9538 0.4717
C27B C 0.89128(18) 0.9790(3) 0.43417(18)
O1B O -0.24165(14) 1.89892(19) 0.33565(15)
O2B O -0.32554(14) 1.71444(19) 0.31597(15)
O3B O -0.20238(12) 1.71321(18) 0.33484(13)
O4B O -0.19855(15) 1.7511(2) 0.41861(14)
O5B O 0.21062(15) 1.3390(2) 0.41658(14)
O5_2 O -0.28938(15) 1.8390(2) 0.41658(14)
O6B O 0.13742(14) 1.3866(2) 0.33429(14)
O6_2 O -0.36258(14) 1.8866(2) 0.33429(14)
O7B O -0.35903(14) 1.8597(2) 0.22846(13)
O8B O -0.28598(15) 1.7889(2) 0.22871(14)
O9B O 1.01176(12) 0.98541(19) 0.40583(13)
O10B O 0.89035(13) 0.84579(19) 0.33632(13)
O11B O 0.92610(14) 0.9170(2) 0.45389(13)
O12B O 0.88669(12) 1.01719(19) 0.38907(13)
O13B O -0.09655(13) 2.0165(2) 0.28841(13)
O13B_2 O 0.90345(13) 1.0165(2) 0.28841(13)
O14B O -0.04482(13) 1.9157(2) 0.27812(13)
O14B_2 O 0.95518(13) 0.9157(2) 0.27812(13)
O15B O 0.52062(13) 1.3068(2) 0.37344(14)
O15_2 O 1.02062(13) 0.8068(2) 0.37344(14)
O16B O 0.51213(14) 1.3165(2) 0.45446(13)
O16_2 O 1.01213(14) 0.8165(2) 0.45446(13)
U1B U -0.282470(7) 1.806110(10) 0.326220(7)
U1B_2 U 0.717530(7) 0.806110(10) 0.326220(7)
U2B U 0.951170(6) 0.915070(9) 0.371470(6)
U2B_2 U -0.048830(6) 1.915070(9) 0.371470(6)
C28 C 0.0818(2) 0.1828(3) 0.4277(2)
H43 H 0.1221 0.1798 0.4558
C29 C -0.0176(3) 0.1733(3) 0.4060(2)
H44 H -0.0455 0.1633 0.4190
C30 C -0.0363(2) 0.1929(3) 0.3478(2)
H45 H -0.0769 0.1979 0.3212
C31 C 0.0651(2) 0.2020(3) 0.3696(2)
H46 H 0.0940 0.2127 0.3581
C32 C 0.0050(2) 0.2053(3) 0.3279(2)
C33 C -0.0169(2) 0.2130(3) 0.2632(2)
H47 H -0.0580 0.2183 0.2387
N1 N 0.0405(2) 0.1685(3) 0.44426(18)
H48 H 0.0518 0.1558 0.4810
C28A C -0.0818(2) 0.1828(3) 0.0723(2)
H43A H -0.1221 0.1798 0.0442
C29A C 0.0176(3) 0.1733(3) 0.0940(2)
H44A H 0.0455 0.1633 0.0810
C30A C 0.0363(2) 0.1929(3) 0.1522(2)
H45A H 0.0769 0.1979 0.1788
C31A C -0.0651(2) 0.2020(3) 0.1304(2)
H46A H -0.0940 0.2127 0.1419
C32A C -0.0050(2) 0.2053(3) 0.1721(2)
C33A C 0.0169(2) 0.2130(3) 0.2368(2)
H47A H 0.0580 0.2183 0.2613
N1A N -0.0405(2) 0.1685(3) 0.05574(18)
H48A H -0.0518 0.1558 0.0190
C34 C 0.3351(3) 0.0703(3) 0.2291(2)
H49 H 0.3148 0.0201 0.2249
C35 C 0.33654(19) 0.2147(3) 0.23620(19)
H50 H 0.3176 0.2641 0.2372
C36 C 0.3922(2) 0.2172(3) 0.24084(19)
H51 H 0.4110 0.2686 0.2445
C37 C 0.3902(3) 0.0689(4) 0.2340(2)
H52 H 0.4077 0.0181 0.2331
C38 C 0.4206(2) 0.1436(4) 0.24016(19)
C39 C 0.4814(2) 0.1470(7) 0.2461(3)
N2 N 0.30976(16) 0.1416(3) 0.23028(15)
H53 H 0.2746 0.1406 0.2271
C34A C 0.6649(3) 0.0703(3) 0.2709(2)
H49A H 0.6852 0.0201 0.2751
C35A C 0.66346(19) 0.2147(3) 0.26380(19)
H50A H 0.6824 0.2641 0.2628
C36A C 0.6078(2) 0.2172(3) 0.25916(19)
H51A H 0.5890 0.2686 0.2555
C37A C 0.6098(3) 0.0689(4) 0.2660(2)
H52A H 0.5923 0.0181 0.2669
C38A C 0.5794(2) 0.1436(4) 0.25984(19)
C39A C 0.5186(2) 0.1470(7) 0.2539(3)
N2A N 0.69024(16) 0.1416(3) 0.26972(15)
H53A H 0.7254 0.1406 0.2729
O17 O 0.20256(19) 0.0922(3) 0.2174(2)
O18 O 0.2156(2) 0.1448(3) 0.46009(19)
loop_
_geom_bond_atom_site_label_1
_geom_bond_atom_site_label_2
_geom_bond_site_symmetry_1
_geom_bond_site_symmetry_2
C1 C2 1_555 1_555
C2 H1 1_555 1_555
H2 C2 1_555 1_555
C3 C2 1_555 1_555
H3 C3 1_555 1_555
H4 C3 1_555 1_555
C4 C3 1_555 1_555
H5 C4 1_555 1_555
H6 C4 1_555 1_555
C5 C4 1_555 1_555
H7 C5 1_555 1_555
H8 C5 1_555 1_555
C6 C5 1_555 1_555
H9 C6 1_555 1_555
H10 C6 1_555 1_555
C7 C6 1_555 1_555
H11 C7 1_555 1_555
H12 C7 1_555 1_555
C8 C7 1_555 1_555
H13 C8 1_555 1_555
H14 C8 1_555 1_555
C9 C8 1_555 1_555
C10 C11 1_555 1_555
C11 H15 1_555 1_555
H16 C11 1_555 1_555
C12 C11 1_555 1_555
H17 C12 1_555 1_555
H18 C12 1_555 1_555
C13 C12 1_555 1_555
H19 C13 1_555 1_555
H20 C13 1_555 1_555
C14 C13 1_555 1_555
H21 C14 1_555 1_555
H22 C14 1_555 1_555
C15 C14 1_555 1_555
H23 C15 1_555 1_555
H24 C15 1_555 1_555
C16 C15 1_555 1_555
H25 C16 1_555 1_555
H26 C16 1_555 1_555
C17 C16 1_555 1_555
H27 C17 1_555 1_555
H28 C17 1_555 1_555
C18 C17 1_555 1_555
C19 C20 1_555 1_555
C20 H29 1_555 1_555
H30 C20 1_555 1_555
C21 C20 1_555 1_555
H31 C21 1_555 1_555
H32 C21 1_555 1_555
C22 C21 1_555 1_555
H33 C22 1_555 1_555
H34 C22 1_555 1_555
C23 C22 1_555 1_555
H35 C23 1_555 1_555
H36 C23 1_555 1_555
C24 C23 1_555 1_555
H37 C24 1_555 1_555
H38 C24 1_555 1_555
C25 C24 1_555 1_555
H39 C25 1_555 1_555
H40 C25 1_555 1_555
C26 C25 1_555 1_555
H41 C26 1_555 1_555
H42 C26 1_555 1_555
C27 C26 1_555 1_555
O1 U1 1_555 1_555
O2 U1 1_555 1_555
O3 C9 1_555 1_555
O4 C9 1_555 1_555
O5 C1 1_555 1_555
O6 C1 1_555 1_555
O7 C10 1_555 1_555
O8 C10 1_555 1_555
O9 U2 1_555 1_555
O10 U2 1_555 1_555
O11 C27 1_555 1_555
O12 C27 1_555 1_555
O13 C18 1_555 1_555
O14 C18 1_555 1_555
O15 C19 1_555 1_555
O16 C19 1_555 1_555
U1 O3 1_555 1_555
U2 O11 1_555 1_555
C28 H43 1_555 1_555
C29 H44 1_555 1_555
C30 C29 1_555 1_555
H45 C30 1_555 1_555
C31 C28 1_555 1_555
H46 C31 1_555 1_555
C32 C30 1_555 1_555
C33 C32 1_555 1_555
H47 C33 1_555 1_555
N1 C28 1_555 1_555
H48 N1 1_555 1_555
C34 H49 1_555 1_555
C35 H50 1_555 1_555
C36 C35 1_555 1_555
H51 C36 1_555 1_555
C37 C34 1_555 1_555
H52 C37 1_555 1_555
C38 C36 1_555 1_555
C39 C38 1_555 1_555
N2 C34 1_555 1_555
H53 N2 1_555 1_555
C1B C2B 1_555 1_555
C2B H1B 1_555 1_555
H2B C2B 1_555 1_555
C3B C2B 1_555 1_555
H3B C3B 1_555 1_555
H4B C3B 1_555 1_555
C4B C3B 1_555 1_555
H5B C4B 1_555 1_555
H6B C4B 1_555 1_555
C5B C4B 1_555 1_555
H7B C5B 1_555 1_555
H8B C5B 1_555 1_555
C6B C5B 1_555 1_555
H9B C6B 1_555 1_555
H10B C6B 1_555 1_555
C7B C6B 1_555 1_555
H11B C7B 1_555 1_555
H12B C7B 1_555 1_555
C8B C7B 1_555 1_555
H13B C8B 1_555 1_555
H14B C8B 1_555 1_555
C9B C8B 1_555 1_555
C10B C11B 1_555 1_555
C11B H15B 1_555 1_555
H16B C11B 1_555 1_555
C12B C11B 1_555 1_555
H17B C12B 1_555 1_555
H18B C12B 1_555 1_555
C13B C12B 1_555 1_555
H19B C13B 1_555 1_555
H20B C13B 1_555 1_555
C14B C13B 1_555 1_555
H21B C14B 1_555 1_555
H22B C14B 1_555 1_555
C15B C14B 1_555 1_555
H23B C15B 1_555 1_555
H24B C15B 1_555 1_555
C16B C15B 1_555 1_555
H25B C16B 1_555 1_555
H26B C16B 1_555 1_555
C17B C16B 1_555 1_555
H27B C17B 1_555 1_555
H28B C17B 1_555 1_555
C18B C17B 1_555 1_555
C19B C20B 1_555 1_555
C20B H29B 1_555 1_555
H30B C20B 1_555 1_555
C21B C20B 1_555 1_555
H31B C21B 1_555 1_555
H32B C21B 1_555 1_555
C22B C21B 1_555 1_555
H33B C22B 1_555 1_555
H34B C22B 1_555 1_555
C23B C22B 1_555 1_555
H35B C23B 1_555 1_555
H36B C23B 1_555 1_555
C24B C23B 1_555 1_555
H37B C24B 1_555 1_555
H38B C24B 1_555 1_555
C25B C24B 1_555 1_555
H39B C25B 1_555 1_555
H40B C25B 1_555 1_555
C26B C25B 1_555 1_555
H41B C26B 1_555 1_555
H42B C26B 1_555 1_555
C27B C26B 1_555 1_555
O1B U1B 1_555 1_555
O2B U1B 1_555 1_555
O3B C9B 1_555 1_555
O4B C9B 1_555 1_555
O5B U1 1_555 1_555
O5_2 U1B 1_555 1_555
O6B U1 1_555 1_555
O6_2 U1B 1_555 1_555
O7B C10B 1_555 1_555
O8B C10B 1_555 1_555
O9B U2B 1_555 1_555
O10B U2B 1_555 1_555
O11B C27B 1_555 1_555
O12B C27B 1_555 1_555
O13B C18B 1_555 1_555
O13B_2 U2B 1_555 1_555
O14B C18B 1_555 1_555
O14B_2 U2B 1_555 1_555
O15B U2 1_555 1_555
O15_2 U2B 1_555 1_555
O16B U2 1_555 1_555
O16_2 U2B 1_555 1_555
U1B O3B 1_555 1_555
U1B_2 O5 1_555 1_555
U2B O11B 1_555 1_555
U2B_2 O15 1_555 1_555
C28A H43A 1_555 1_555
C29A H44A 1_555 1_555
C30A C29A 1_555 1_555
H45A C30A 1_555 1_555
C31A C28A 1_555 1_555
H46A C31A 1_555 1_555
C32A C30A 1_555 1_555
C33A C33 1_555 1_555
H47A C33A 1_555 1_555
N1A C28A 1_555 1_555
H48A N1A 1_555 1_555
C34A H49A 1_555 1_555
C35A H50A 1_555 1_555
C36A C35A 1_555 1_555
H51A C36A 1_555 1_555
C37A C34A 1_555 1_555
H52A C37A 1_555 1_555
C38A C36A 1_555 1_555
C39A C39 1_555 1_555
N2A C34A 1_555 1_555
H53A N2A 1_555 1_555
O4 U1 1_555 1_555
O6 U1B_2 1_555 1_555
O7 U1 1_555 1_555
O8 U1 1_555 1_555
O12 U2 1_555 1_555
O13 U2 1_555 1_555
O14 U2 1_555 1_555
O16 U2B_2 1_555 1_555
C29 N1 1_555 1_555
C31 C32 1_555 1_555
C35 N2 1_555 1_555
C37 C38 1_555 1_555
C1B O5B 1_555 1_555
C1B O6B 1_555 1_555
C19B O15B 1_555 1_555
C19B O16B 1_555 1_555
O4B U1B 1_555 1_555
O7B U1B 1_555 1_555
O8B U1B 1_555 1_555
O12B U2B 1_555 1_555
O13B U2B_2 1_555 1_555
O14B U2B_2 1_555 1_555
C29A N1A 1_555 1_555
C31A C32A 1_555 1_555
C32A C33A 1_555 1_555
C35A N2A 1_555 1_555
C37A C38A 1_555 1_555
C38A C39A 1_555 1_555

#END
