
#######################################################################
#
#                 Cambridge Crystallographic Data Centre
#                                CCDC 
#
#######################################################################
#
# If this CIF has been generated from an entry in the Cambridge 
# Structural Database, then it will include bibliographic, chemical, 
# crystal, experimental, refinement or atomic coordinate data resulting 
# from the CCDC's data processing and validation procedures.
#
#######################################################################

data_PAPVUZ
_symmetry_cell_setting           monoclinic
_symmetry_space_group_name_H-M   'P 21/c'
_symmetry_Int_Tables_number      14
_space_group_name_Hall           '-P 2ybc'
loop_
_symmetry_equiv_pos_site_id
_symmetry_equiv_pos_as_xyz
1 x,y,z
2 -x,1/2+y,1/2-z
3 -x,-y,-z
4 x,1/2-y,1/2+z
_cell_length_a                   15.2890(15)
_cell_length_b                   20.5000(16)
_cell_length_c                   21.7150(12)
_cell_angle_alpha                90
_cell_angle_beta                 123.397(3)
_cell_angle_gamma                90
_cell_volume                     5682.18
loop_
_atom_site_label
_atom_site_type_symbol
_atom_site_fract_x
_atom_site_fract_y
_atom_site_fract_z
C1 C -0.0090(5) 0.2604(3) -0.3139(4)
C2 C 0.1968(6) 0.2266(4) -0.2683(4)
C3 C 0.0266(6) 0.1934(4) -0.3996(3)
C4 C 0.1655(6) 0.1047(3) -0.3112(4)
C5 C -0.0437(6) 0.0934(4) -0.3674(4)
C6 C 0.1179(6) 0.0783(3) -0.2225(3)
C7 C -0.0493(5) 0.1566(4) -0.2644(4)
C8 C 0.1496(5) 0.2028(3) -0.1773(4)
C9 C -0.3012(6) 0.2880(4) -0.3931(4)
H1 H -0.2424 0.2758 -0.3461
C10 C -0.3792(6) 0.2423(4) -0.4354(5)
C11 C -0.4664(6) 0.2613(4) -0.5044(4)
C12 C -0.4747(6) 0.3261(4) -0.5313(4)
C13 C -0.5624(7) 0.3494(4) -0.5992(5)
H2 H -0.6183 0.3205 -0.6304
C14 C -0.5672(7) 0.4124(4) -0.6198(4)
H3 H -0.6255 0.4270 -0.6658
C15 C -0.4856(6) 0.4567(4) -0.5731(4)
C16 C -0.4874(6) 0.5252(4) -0.5973(4)
C17 C -0.4045(6) 0.5640(4) -0.5485(4)
C18 C -0.3235(5) 0.5373(4) -0.4840(4)
H4 H -0.2670 0.5654 -0.4517
C19 C -0.4003(6) 0.4349(4) -0.5086(4)
C20 C -0.3945(6) 0.3697(4) -0.4861(4)
C21 C -0.3644(6) 0.1732(3) -0.3995(4)
H5 H -0.2949 0.1706 -0.3535
H6 H -0.3706 0.1395 -0.4337
H7 H -0.4183 0.1664 -0.3890
C22 C -0.5521(7) 0.2083(5) -0.5513(5)
H8 H -0.5330 0.1674 -0.5235
H9 H -0.5567 0.2012 -0.5977
H10 H -0.6200 0.2234 -0.5621
C23 C -0.5804(7) 0.5485(4) -0.6661(5)
H11 H -0.6433 0.5297 -0.6716
H12 H -0.5764 0.5354 -0.7078
H13 H -0.5837 0.5962 -0.6647
C24 C -0.3983(6) 0.6383(4) -0.5614(4)
H14 H -0.4625 0.6599 -0.5722
H15 H -0.3909 0.6441 -0.6031
H16 H -0.3377 0.6575 -0.5170
C25 C -0.0608(7) 0.5513(3) -0.4251(4)
H17 H -0.0297 0.5637 -0.3751
C26 C -0.0641(5) 0.5967(3) -0.4726(4)
C27 C -0.1083(6) 0.5833(4) -0.5428(4)
C28 C -0.1525(5) 0.5164(4) -0.5683(4)
C29 C -0.1927(7) 0.4958(4) -0.6406(4)
H18 H -0.1961 0.5250 -0.6758
C30 C -0.2287(8) 0.4297(4) -0.6607(4)
H19 H -0.2562 0.4148 -0.7095
C31 C -0.2230(7) 0.3879(4) -0.6086(4)
C32 C -0.2593(6) 0.3205(4) -0.6269(5)
C33 C -0.2470(8) 0.2822(4) -0.5713(5)
C34 C -0.2098(7) 0.3077(4) -0.5069(4)
H20 H -0.2074 0.2800 -0.4709
C35 C -0.1809(5) 0.4096(3) -0.5367(3)
C36 C -0.1454(5) 0.4733(3) -0.5162(4)
C37 C -0.0233(6) 0.6678(4) -0.4402(4)
H21 H -0.0828 0.6980 -0.4618
H22 H 0.0266 0.6823 -0.4522
H23 H 0.0113 0.6669 -0.3865
C38 C -0.1186(7) 0.6324(4) -0.5991(4)
H24 H -0.1444 0.6740 -0.5928
H25 H -0.1682 0.6158 -0.6490
H26 H -0.0501 0.6390 -0.5919
C39 C -0.2946(7) 0.2889(5) -0.7018(5)
H27 H -0.3371 0.3200 -0.7417
H28 H -0.3362 0.2498 -0.7092
H29 H -0.2328 0.2767 -0.7021
C40 C -0.2781(6) 0.2073(4) -0.5868(4)
H30 H -0.2769 0.1885 -0.5448
H31 H -0.2281 0.1841 -0.5937
H32 H -0.3487 0.2031 -0.6315
C41 C 0.1167(6) 0.4772(4) -0.2263(4)
H33 H 0.1068 0.5226 -0.2241
C42 C 0.2113(7) 0.3838(5) -0.1697(5)
H34 H 0.2811 0.3702 -0.1565
H35 H 0.1579 0.3629 -0.2162
H36 H 0.2011 0.3707 -0.1307
C43 C 0.2871(7) 0.4974(5) -0.1226(4)
H37 H 0.3266 0.5145 -0.1424
H38 H 0.3344 0.4733 -0.0770
H39 H 0.2555 0.5337 -0.1121
C44 C -0.1119(6) 0.4241(4) -0.1945(4)
H40 H -0.1287 0.4685 -0.1931
C45 C -0.0162(7) 0.3299(4) -0.1244(5)
H41 H 0.0515 0.3333 -0.1192
H42 H -0.0630 0.3017 -0.1665
H43 H -0.0059 0.3111 -0.0794
C46 C -0.0313(7) 0.4280(4) -0.0662(4)
H44 H 0.0190 0.4014 -0.0236
H45 H -0.0940 0.4352 -0.0653
H46 H 0.0006 0.4701 -0.0641
N1 N -0.0536(5) 0.3086(3) -0.3289(3)
N2 N 0.2631(5) 0.2582(4) -0.2602(3)
N3 N 0.0010(5) 0.2103(3) -0.4592(3)
N4 N 0.2081(5) 0.0740(3) -0.3252(3)
N5 N -0.1004(5) 0.0566(3) -0.4068(3)
N6 N 0.1365(5) 0.0330(3) -0.1894(3)
N7 N -0.1124(5) 0.1490(3) -0.2533(3)
N8 N 0.1893(5) 0.2235(3) -0.1198(3)
N9 N -0.3079(4) 0.3496(3) -0.4178(3)
N10 N -0.3168(4) 0.4756(3) -0.4626(3)
N11 N -0.0983(5) 0.4910(3) -0.4442(3)
N12 N -0.1735(4) 0.3699(3) -0.4848(3)
N13 N 0.2022(5) 0.4526(4) -0.1782(3)
N14 N -0.0614(5) 0.3929(3) -0.1364(3)
O1 O 0.0394(4) 0.4428(3) -0.2801(3)
O2 O -0.1436(4) 0.3966(2) -0.2596(3)
Sm1 Sm -0.13879(2) 0.420220(16) -0.363530(18)
W1 W 0.06980(2) 0.165530(13) -0.291450(14)
N6A N -0.1365(5) 0.5330(3) -0.3106(3)
Sm1A Sm 0.13879(2) -0.079780(16) -0.136470(18)
O3 O -0.7099(12) 0.5340(9) -0.9330(8)
H47 H -0.6640 0.5160 -0.8925
H48 H -0.7257 0.5712 -0.9243
O4 O -0.5209(12) 0.4367(7) -0.2058(7)
H49 H -0.4994 0.4287 -0.1612
H50 H -0.5804 0.4190 -0.2343
O5 O -0.7249(17) 0.3146(11) -0.9357(11)
H51 H -0.7464 0.2769 -0.9544
H52 H -0.7048 0.3351 -0.9598
O6 O -0.7927(13) 0.4750(9) -1.0039(9)
H53 H -0.8412 0.4873 -1.0469
H54 H -0.7709 0.4370 -0.9866
O7 O -0.5377(11) 0.5524(10) -0.9608(9)
H55 H -0.5035 0.5332 -0.9193
H56 H -0.5854 0.5759 -0.9635
O8 O -0.5497(14) 0.3144(9) -0.8325(11)
H57 H -0.5787 0.3514 -0.8395
H58 H -0.5018 0.3098 -0.7871
loop_
_geom_bond_atom_site_label_1
_geom_bond_atom_site_label_2
_geom_bond_site_symmetry_1
_geom_bond_site_symmetry_2
C1 N1 1_555 1_555
C2 N2 1_555 1_555
C3 N3 1_555 1_555
C4 N4 1_555 1_555
C5 N5 1_555 1_555
C6 N6 1_555 1_555
C7 N7 1_555 1_555
C8 N8 1_555 1_555
C9 H1 1_555 1_555
C10 C9 1_555 1_555
C11 C10 1_555 1_555
C12 C11 1_555 1_555
C13 C12 1_555 1_555
H2 C13 1_555 1_555
C14 C13 1_555 1_555
H3 C14 1_555 1_555
C15 C14 1_555 1_555
C16 C15 1_555 1_555
C17 C16 1_555 1_555
C18 C17 1_555 1_555
H4 C18 1_555 1_555
C19 C15 1_555 1_555
C20 C12 1_555 1_555
C21 C10 1_555 1_555
H5 C21 1_555 1_555
H6 C21 1_555 1_555
H7 C21 1_555 1_555
C22 C11 1_555 1_555
H8 C22 1_555 1_555
H9 C22 1_555 1_555
H10 C22 1_555 1_555
C23 C16 1_555 1_555
H11 C23 1_555 1_555
H12 C23 1_555 1_555
H13 C23 1_555 1_555
C24 C17 1_555 1_555
H14 C24 1_555 1_555
H15 C24 1_555 1_555
H16 C24 1_555 1_555
C25 H17 1_555 1_555
C26 C25 1_555 1_555
C27 C26 1_555 1_555
C28 C27 1_555 1_555
C29 C28 1_555 1_555
H18 C29 1_555 1_555
C30 C29 1_555 1_555
H19 C30 1_555 1_555
C31 C30 1_555 1_555
C32 C31 1_555 1_555
C33 C32 1_555 1_555
C34 C33 1_555 1_555
H20 C34 1_555 1_555
C35 C31 1_555 1_555
C36 C28 1_555 1_555
C37 C26 1_555 1_555
H21 C37 1_555 1_555
H22 C37 1_555 1_555
H23 C37 1_555 1_555
C38 C27 1_555 1_555
H24 C38 1_555 1_555
H25 C38 1_555 1_555
H26 C38 1_555 1_555
C39 C32 1_555 1_555
H27 C39 1_555 1_555
H28 C39 1_555 1_555
H29 C39 1_555 1_555
C40 C33 1_555 1_555
H30 C40 1_555 1_555
H31 C40 1_555 1_555
H32 C40 1_555 1_555
C41 H33 1_555 1_555
C42 H34 1_555 1_555
H35 C42 1_555 1_555
H36 C42 1_555 1_555
C43 H37 1_555 1_555
H38 C43 1_555 1_555
H39 C43 1_555 1_555
C44 H40 1_555 1_555
C45 H41 1_555 1_555
H42 C45 1_555 1_555
H43 C45 1_555 1_555
C46 H44 1_555 1_555
H45 C46 1_555 1_555
H46 C46 1_555 1_555
N1 Sm1 1_555 1_555
N6 Sm1A 1_555 1_555
N9 C9 1_555 1_555
N10 C18 1_555 1_555
N11 C25 1_555 1_555
N12 C34 1_555 1_555
N13 C41 1_555 1_555
N14 C44 1_555 1_555
O1 C41 1_555 1_555
O2 C44 1_555 1_555
O3 H47 1_555 1_555
H48 O3 1_555 1_555
O4 H49 1_555 1_555
H50 O4 1_555 1_555
O5 H51 1_555 1_555
H52 O5 1_555 1_555
O6 H53 1_555 1_555
H54 O6 1_555 1_555
O7 H55 1_555 1_555
H56 O7 1_555 1_555
O8 H57 1_555 1_555
H58 O8 1_555 1_555
Sm1 N9 1_555 1_555
W1 C1 1_555 1_555
N6A Sm1 1_555 1_555
C2 W1 1_555 1_555
C3 W1 1_555 1_555
C4 W1 1_555 1_555
C5 W1 1_555 1_555
C6 W1 1_555 1_555
C7 W1 1_555 1_555
C8 W1 1_555 1_555
C19 C20 1_555 1_555
C19 N10 1_555 1_555
C20 N9 1_555 1_555
C35 C36 1_555 1_555
C35 N12 1_555 1_555
C36 N11 1_555 1_555
C42 N13 1_555 1_555
C43 N13 1_555 1_555
C45 N14 1_555 1_555
C46 N14 1_555 1_555
N10 Sm1 1_555 1_555
N11 Sm1 1_555 1_555
N12 Sm1 1_555 1_555
O1 Sm1 1_555 1_555
O2 Sm1 1_555 1_555

#END
