
#######################################################################
#
#                 Cambridge Crystallographic Data Centre
#                                CCDC 
#
#######################################################################
#
# If this CIF has been generated from an entry in the Cambridge 
# Structural Database, then it will include bibliographic, chemical, 
# crystal, experimental, refinement or atomic coordinate data resulting 
# from the CCDC's data processing and validation procedures.
#
#######################################################################

data_PAPVOT
_symmetry_cell_setting           tetragonal
_symmetry_space_group_name_H-M   'I 41/a c d'
_symmetry_Int_Tables_number      142
_space_group_name_Hall           '-I 4bd 2c'
loop_
_symmetry_equiv_pos_site_id
_symmetry_equiv_pos_as_xyz
1 x,y,z
2 1/2-x,-y,1/2+z
3 1/4-y,3/4+x,1/4+z
4 1/4+y,1/4-x,3/4+z
5 1/2-x,y,-z
6 x,-y,1/2-z
7 1/4+y,3/4+x,3/4-z
8 1/4-y,1/4-x,1/4-z
9 1/2+x,1/2+y,1/2+z
10 -x,1/2-y,z
11 3/4-y,1/4+x,3/4+z
12 3/4+y,3/4-x,1/4+z
13 -x,1/2+y,1/2-z
14 1/2+x,1/2-y,-z
15 3/4+y,1/4+x,1/4-z
16 3/4-y,3/4-x,3/4-z
17 -x,-y,-z
18 1/2+x,y,1/2-z
19 3/4+y,1/4-x,3/4-z
20 3/4-y,3/4+x,1/4-z
21 1/2+x,-y,z
22 -x,y,1/2+z
23 3/4-y,1/4-x,1/4+z
24 3/4+y,3/4+x,3/4+z
25 1/2-x,1/2-y,1/2-z
26 x,1/2+y,-z
27 1/4+y,3/4-x,1/4-z
28 1/4-y,1/4+x,3/4-z
29 x,1/2-y,1/2+z
30 1/2-x,1/2+y,z
31 1/4-y,3/4-x,3/4+z
32 1/4+y,1/4+x,1/4+z
_cell_length_a                   36.4209(18)
_cell_length_b                   36.4209(18)
_cell_length_c                   16.7366(16)
_cell_angle_alpha                90
_cell_angle_beta                 90
_cell_angle_gamma                90
_cell_volume                     22200.8
loop_
_atom_site_label
_atom_site_type_symbol
_atom_site_fract_x
_atom_site_fract_y
_atom_site_fract_z
C1 C 0.33607(10) 0.34019(10) -0.0816(2)
C2 C 0.36322(9) 0.40664(10) -0.0469(2)
C3 C 0.39398(10) 0.30815(11) -0.1252(3)
C4 C 0.39751(12) 0.35613(12) -0.2522(2)
C5 C 0.18997(9) 0.24234(10) 0.08371(19)
H1 H 0.1725 0.2553 0.0547
C6 C 0.18012(9) 0.21162(10) 0.12646(18)
H2 H 0.1564 0.2024 0.1214
C7 C 0.20451(9) 0.19434(9) 0.17642(18)
H3 H 0.1970 0.1749 0.2086
C8 C 0.24080(10) 0.20662(9) 0.1777(2)
C9 C 0.26819(10) 0.18861(10) 0.2308(2)
H4 H 0.2611 0.1692 0.2635
C10 C 0.30398(9) 0.20074(10) 0.2315(2)
H5 H 0.3221 0.1883 0.2599
C11 C 0.31231(9) 0.23293(10) 0.1875(2)
C12 C 0.34831(9) 0.24678(10) 0.19535(19)
H6 H 0.3653 0.2349 0.2279
C13 C 0.35787(10) 0.27766(10) 0.15483(19)
H7 H 0.3807 0.2886 0.1630
C14 C 0.33273(9) 0.29280(9) 0.1005(2)
H8 H 0.3398 0.3124 0.0682
C15 C 0.28731(9) 0.24973(9) 0.13702(19)
C16 C 0.25214(8) 0.23582(9) 0.13110(19)
Mo1 Mo 0.385751(8) 0.364249(8) -0.1250
N1 N 0.30748(7) 0.32883(8) -0.05824(17)
N2 N 0.34893(8) 0.43359(8) -0.01753(17)
N3 N 0.39708(9) 0.27472(9) -0.1207(2)
N4 N 0.40427(9) 0.35190(9) -0.32040(17)
N5 N 0.22705(8) 0.25389(8) 0.08455(17)
N6 N 0.29773(7) 0.27890(7) 0.09453(16)
O3 O 0.26414(12) 0.35654(13) 0.0884(3)
H21 H 0.2427 0.3713 0.0973
H22 H 0.2831 0.3713 0.0650
Sm1 Sm 0.2500 0.307258(7) 0.0000
C1O C 0.40981(10) 0.41393(10) -0.1684(2)
C2O C 0.34336(10) 0.38678(9) -0.2031(2)
C3O C 0.44185(11) 0.35602(10) -0.1248(3)
C4O C 0.39387(12) 0.35249(12) 0.0022(2)
C5D C 0.31003(9) 0.24234(10) -0.08371(19)
H1D H 0.3275 0.2553 -0.0547
C6D C 0.31988(9) 0.21162(10) -0.12646(18)
H2D H 0.3436 0.2024 -0.1214
C7D C 0.29549(9) 0.19434(9) -0.17642(18)
H3D H 0.3030 0.1749 -0.2086
C8D C 0.25920(10) 0.20662(9) -0.1777(2)
C9D C 0.23181(10) 0.18861(10) -0.2308(2)
H4D H 0.2389 0.1692 -0.2635
C10D C 0.19602(9) 0.20074(10) -0.2315(2)
H5D H 0.1779 0.1883 -0.2599
C11D C 0.18769(9) 0.23293(10) -0.1875(2)
C12D C 0.15169(9) 0.24678(10) -0.19535(19)
H6D H 0.1347 0.2349 -0.2279
C13D C 0.14213(10) 0.27766(10) -0.15483(19)
H7D H 0.1193 0.2886 -0.1630
C14D C 0.16727(9) 0.29280(9) -0.1005(2)
H8D H 0.1602 0.3124 -0.0682
C15D C 0.21269(9) 0.24973(9) -0.13702(19)
C16D C 0.24786(8) 0.23582(9) -0.13110(19)
N1O N 0.42117(8) 0.44252(7) -0.19176(17)
N1D N 0.19252(7) 0.32883(8) 0.05824(17)
N2O N 0.31641(8) 0.40107(8) -0.23247(17)
N3O N 0.47528(9) 0.35292(9) -0.1293(2)
N4O N 0.39810(9) 0.34573(9) 0.07040(17)
N5D N 0.27295(8) 0.25389(8) -0.08455(17)
N6D N 0.20227(7) 0.27890(7) -0.09453(16)
O3D O 0.23586(12) 0.35654(13) -0.0884(3)
H21D H 0.2573 0.3713 -0.0973
H22D H 0.2169 0.3713 -0.0650
Sm1J Sm 0.442742(7) 0.5000 -0.2500
C17 C 0.46901(10) 0.27087(9) 0.1730(2)
H9 H 0.4535 0.2531 0.2001
H10 H 0.4538 0.2846 0.1361
C18 C 0.48555(12) 0.29719(11) 0.2345(2)
H11 H 0.5115 0.2919 0.2414
H12 H 0.4735 0.2939 0.2857
C19 C 0.48074(11) 0.33645(11) 0.2065(2)
H13 H 0.5032 0.3497 0.2177
H14 H 0.4775 0.3362 0.1489
C20 C 0.44823(11) 0.35797(11) 0.2440(2)
H15 H 0.4531 0.3838 0.2412
H16 H 0.4261 0.3525 0.2153
H17 H 0.4454 0.3508 0.2989
N7 N 0.5000 0.2500 0.1250
C17I C 0.53099(10) 0.22913(9) 0.1730(2)
C17Z C 0.52087(9) 0.28099(10) 0.0770(2)
C17S C 0.47913(9) 0.21901(10) 0.0770(2)
H9I H 0.5465 0.2469 0.2001
H9Z H 0.5031 0.2965 0.0499
H9S H 0.4969 0.2035 0.0499
H10I H 0.5462 0.2154 0.1361
H10Z H 0.5346 0.2962 0.1139
H10S H 0.4654 0.2038 0.1139
C18I C 0.51445(12) 0.20281(11) 0.2345(2)
C18Z C 0.54719(11) 0.26445(12) 0.0155(2)
C18S C 0.45281(11) 0.23555(12) 0.0155(2)
H11I H 0.4885 0.2081 0.2414
H11Z H 0.5419 0.2385 0.0086
H11S H 0.4581 0.2615 0.0086
H12I H 0.5265 0.2061 0.2857
H12Z H 0.5439 0.2765 -0.0357
H12S H 0.4561 0.2235 -0.0357
C19I C 0.51926(11) 0.16355(11) 0.2065(2)
C19Z C 0.58645(11) 0.26926(11) 0.0435(2)
C19S C 0.41355(11) 0.23074(11) 0.0435(2)
H13I H 0.4968 0.1503 0.2177
H13Z H 0.5997 0.2468 0.0323
H13S H 0.4003 0.2532 0.0323
H14I H 0.5225 0.1638 0.1489
H14Z H 0.5862 0.2725 0.1011
H14S H 0.4138 0.2275 0.1011
C20I C 0.55177(11) 0.14203(11) 0.2440(2)
C20Z C 0.60797(11) 0.30177(11) 0.0060(2)
C20S C 0.39203(11) 0.19823(11) 0.0060(2)
H15I H 0.5469 0.1162 0.2412
H15Z H 0.6338 0.2969 0.0088
H15S H 0.3662 0.2031 0.0088
H16I H 0.5739 0.1475 0.2153
H16Z H 0.6025 0.3239 0.0347
H16S H 0.3975 0.1761 0.0347
H17I H 0.5546 0.1492 0.2989
H17Z H 0.6008 0.3046 -0.0489
H17S H 0.3992 0.1954 -0.0489
C21 C 0.15289(10) 0.40289(10) 0.6250
C22 C 0.18017(10) 0.43017(10) 0.6250
N9 N 0.20419(9) 0.45419(9) 0.6250
N8 N 0.2868(3) 0.5000 0.7500
O1 O 0.30376(16) 0.52366(17) 0.7898(4)
O2 O 0.2533(2) 0.5000 0.7500
O1E O 0.30376(16) 0.47634(17) 0.7102(4)
O4 O 0.2182(2) 0.3445(2) 0.4545(5)
H23 H 0.2100 0.3457 0.4123
H24 H 0.2383 0.3378 0.4651
O5 O 0.20232(15) 0.47046(18) 0.7904(4)
H25 H 0.2049 0.4525 0.8225
H26 H 0.1978 0.4625 0.7437
O6 O 0.1735(2) 0.3754(2) 0.8372(5)
H27 H 0.1711 0.3812 0.7883
H28 H 0.1599 0.3892 0.8657
H18? H 0.1524 0.3909 0.5739
H19? H 0.1294 0.4139 0.6352
H20? H 0.1582 0.3852 0.6659
H29? H 0.2403 0.3795 -0.0620
H30? H 0.2104 0.3550 -0.1032
loop_
_geom_bond_atom_site_label_1
_geom_bond_atom_site_label_2
_geom_bond_site_symmetry_1
_geom_bond_site_symmetry_2
C1 Mo1 1_555 1_555
C2 Mo1 1_555 1_555
C3 Mo1 1_555 1_555
C4 Mo1 1_555 1_555
C5 H1 1_555 1_555
C6 C5 1_555 1_555
H2 C6 1_555 1_555
C7 C6 1_555 1_555
H3 C7 1_555 1_555
C8 C7 1_555 1_555
C9 C8 1_555 1_555
H4 C9 1_555 1_555
C10 C9 1_555 1_555
H5 C10 1_555 1_555
C11 C10 1_555 1_555
C12 C11 1_555 1_555
H6 C12 1_555 1_555
C13 C12 1_555 1_555
H7 C13 1_555 1_555
C14 C13 1_555 1_555
H8 C14 1_555 1_555
C15 C11 1_555 1_555
C16 C8 1_555 1_555
C17 H9 1_555 1_555
H10 C17 1_555 1_555
C18 C17 1_555 1_555
H11 C18 1_555 1_555
H12 C18 1_555 1_555
C19 C18 1_555 1_555
H13 C19 1_555 1_555
H14 C19 1_555 1_555
C20 C19 1_555 1_555
H15 C20 1_555 1_555
H16 C20 1_555 1_555
H17 C20 1_555 1_555
C21 C22 1_555 1_555
C22 N9 1_555 1_555
Mo1 C1O 1_555 1_555
N1 C1 1_555 1_555
N2 C2 1_555 1_555
N3 C3 1_555 1_555
N4 C4 1_555 1_555
N5 C5 1_555 1_555
N6 C14 1_555 1_555
N7 C17 1_555 1_555
N8 O1 1_555 1_555
O2 N8 1_555 1_555
O3 H21 1_555 1_555
H22 O3 1_555 1_555
O4 H23 1_555 1_555
H24 O4 1_555 1_555
O5 H25 1_555 1_555
H26 O5 1_555 1_555
O6 H27 1_555 1_555
H28 O6 1_555 1_555
Sm1 N1 1_555 1_555
C1O N1O 1_555 1_555
C2O Mo1 1_555 1_555
C3O Mo1 1_555 1_555
C4O Mo1 1_555 1_555
C5D H1D 1_555 1_555
C6D C5D 1_555 1_555
H2D C6D 1_555 1_555
C7D C6D 1_555 1_555
H3D C7D 1_555 1_555
C8D C7D 1_555 1_555
C9D C8D 1_555 1_555
H4D C9D 1_555 1_555
C10D C9D 1_555 1_555
H5D C10D 1_555 1_555
C11D C10D 1_555 1_555
C12D C11D 1_555 1_555
H6D C12D 1_555 1_555
C13D C12D 1_555 1_555
H7D C13D 1_555 1_555
C14D C13D 1_555 1_555
H8D C14D 1_555 1_555
C15D C11D 1_555 1_555
C16D C8D 1_555 1_555
C17I N7 1_555 1_555
C17Z N7 1_555 1_555
C17S N7 1_555 1_555
H9I C17I 1_555 1_555
H9Z C17Z 1_555 1_555
H9S C17S 1_555 1_555
H10I C17I 1_555 1_555
H10Z C17Z 1_555 1_555
H10S C17S 1_555 1_555
C18I C17I 1_555 1_555
C18Z C17Z 1_555 1_555
C18S C17S 1_555 1_555
H11I C18I 1_555 1_555
H11Z C18Z 1_555 1_555
H11S C18S 1_555 1_555
H12I C18I 1_555 1_555
H12Z C18Z 1_555 1_555
H12S C18S 1_555 1_555
C19I C18I 1_555 1_555
C19Z C18Z 1_555 1_555
C19S C18S 1_555 1_555
H13I C19I 1_555 1_555
H13Z C19Z 1_555 1_555
H13S C19S 1_555 1_555
H14I C19I 1_555 1_555
H14Z C19Z 1_555 1_555
H14S C19S 1_555 1_555
C20I C19I 1_555 1_555
C20Z C19Z 1_555 1_555
C20S C19S 1_555 1_555
H15I C20I 1_555 1_555
H15Z C20Z 1_555 1_555
H15S C20S 1_555 1_555
H16I C20I 1_555 1_555
H16Z C20Z 1_555 1_555
H16S C20S 1_555 1_555
H17I C20I 1_555 1_555
H17Z C20Z 1_555 1_555
H17S C20S 1_555 1_555
N1O Sm1J 1_555 1_555
N1D Sm1 1_555 1_555
N2O C2O 1_555 1_555
N3O C3O 1_555 1_555
N4O C4O 1_555 1_555
N5D Sm1 1_555 1_555
N6D Sm1 1_555 1_555
O1E N8 1_555 1_555
O3D Sm1 1_555 1_555
H21D O3D 1_555 1_555
H22D O3D 1_555 1_555
C15 C16 1_555 1_555
C15 N6 1_555 1_555
C16 N5 1_555 1_555
N5 Sm1 1_555 1_555
N6 Sm1 1_555 1_555
O3 Sm1 1_555 1_555
C5D N5D 1_555 1_555
C14D N6D 1_555 1_555
C15D C16D 1_555 1_555
C15D N6D 1_555 1_555
C16D N5D 1_555 1_555

#END
