
#######################################################################
#
#                 Cambridge Crystallographic Data Centre
#                                CCDC 
#
#######################################################################
#
# If this CIF has been generated from an entry in the Cambridge 
# Structural Database, then it will include bibliographic, chemical, 
# crystal, experimental, refinement or atomic coordinate data resulting 
# from the CCDC's data processing and validation procedures.
#
#######################################################################

data_PAPWUA
_symmetry_cell_setting           monoclinic
_symmetry_space_group_name_H-M   'P 21/c'
_symmetry_Int_Tables_number      14
_space_group_name_Hall           '-P 2ybc'
loop_
_symmetry_equiv_pos_site_id
_symmetry_equiv_pos_as_xyz
1 x,y,z
2 -x,1/2+y,1/2-z
3 -x,-y,-z
4 x,1/2-y,1/2+z
_cell_length_a                   5.9790(5)
_cell_length_b                   18.5907(14)
_cell_length_c                   8.1134(6)
_cell_angle_alpha                90
_cell_angle_beta                 90.217(3)
_cell_angle_gamma                90
_cell_volume                     901.829
loop_
_atom_site_label
_atom_site_type_symbol
_atom_site_fract_x
_atom_site_fract_y
_atom_site_fract_z
C1 C 0.905(2) 0.2921(8) 0.5865(16)
H1 H 0.7670 0.2657 0.5849
H2 H 0.9155 0.3193 0.6869
H3 H 1.0283 0.2591 0.5803
C2 C 0.912(2) 0.3410(7) 0.4458(16)
C3 C 1.109(2) 0.3857(7) 0.4287(15)
H4 H 1.2330 0.3763 0.4953
C4 C 1.1210(18) 0.4433(6) 0.3139(13)
C5 C 1.309(2) 0.4945(7) 0.3219(16)
H5 H 1.3622 0.5040 0.2125
H6 H 1.4278 0.4742 0.3869
H7 H 1.2596 0.5385 0.3714
C6 C 0.948(2) 0.5124(7) 0.0837(15)
H8 H 1.0288 0.5538 0.1256
H9 H 0.7931 0.5261 0.0671
N1 N 0.9616(16) 0.4533(5) 0.2021(12)
H10 H 0.8558 0.4220 0.1990
N2 N 1.4548(19) 0.3443(6) -0.0566(14)
O1 O 0.7584(15) 0.3431(5) 0.3428(12)
O2 O 1.3804(16) 0.2932(5) 0.0267(11)
O3 O 1.5237(18) 0.3983(5) 0.0213(13)
O4 O 1.444(2) 0.3443(6) -0.2071(13)
Ag1 Ag 1.37906(17) 0.30595(5) 0.31332(14)
C1B C 1.095(2) 0.7079(8) -0.5865(16)
H1B H 1.2330 0.7343 -0.5849
H2B H 1.0845 0.6807 -0.6869
H3B H 0.9717 0.7409 -0.5803
C2B C 1.088(2) 0.6590(7) -0.4458(16)
C3B C 0.891(2) 0.6143(7) -0.4287(15)
C3B_2 C 1.891(2) 0.6143(7) -0.4287(15)
H4B H 1.7670 0.6237 -0.4953
H4B_2 H 0.7670 0.6237 -0.4953
C4B C 0.8790(18) 0.5567(6) -0.3139(13)
C5B C 0.691(2) 0.5055(7) -0.3219(16)
H5B H 0.6378 0.4960 -0.2125
H6B H 0.5722 0.5258 -0.3869
H7B H 0.7404 0.4615 -0.3714
C6B C 1.052(2) 0.4876(7) -0.0837(15)
H8B H 0.9712 0.4462 -0.1256
H9B H 1.2069 0.4739 -0.0671
N1B N 1.0384(16) 0.5467(5) -0.2021(12)
H10B H 1.1442 0.5780 -0.1990
N2B N 1.5452(19) 0.6557(6) 0.0566(14)
O1B O 1.2416(15) 0.6569(5) -0.3428(12)
O1_2 O 1.7584(15) 0.3431(5) 0.3428(12)
O2B O 1.6196(16) 0.7068(5) -0.0267(11)
O2A O 1.6196(16) 0.7932(5) -0.5267(11)
O2C O 1.3804(16) 0.2068(5) 0.5267(11)
O3B O 1.4763(18) 0.6017(5) -0.0213(13)
O4B O 1.556(2) 0.6557(6) 0.2071(13)
Ag1B Ag 1.62094(17) 0.69405(5) -0.31332(14)
Ag1A Ag 1.62094(17) 0.80595(5) 0.18668(14)
Ag1B_2 Ag 0.62094(17) 0.69405(5) -0.31332(14)
Ag1_2 Ag 0.37906(17) 0.30595(5) 0.31332(14)
Ag1C Ag 1.37906(17) 0.19405(5) -0.18668(14)
loop_
_geom_bond_atom_site_label_1
_geom_bond_atom_site_label_2
_geom_bond_site_symmetry_1
_geom_bond_site_symmetry_2
C1 H1 1_555 1_555
H2 C1 1_555 1_555
H3 C1 1_555 1_555
C2 C1 1_555 1_555
C3 C2 1_555 1_555
H4 C3 1_555 1_555
C4 C3 1_555 1_555
C5 C4 1_555 1_555
H5 C5 1_555 1_555
H6 C5 1_555 1_555
H7 C5 1_555 1_555
C6 H8 1_555 1_555
H9 C6 1_555 1_555
N1 C4 1_555 1_555
H10 N1 1_555 1_555
N2 O2 1_555 1_555
O1 C2 1_555 1_555
O2 Ag1 1_555 1_555
O3 N2 1_555 1_555
O4 N2 1_555 1_555
Ag1 C3 1_555 1_555
C1B H1B 1_555 1_555
H2B C1B 1_555 1_555
H3B C1B 1_555 1_555
C2B C1B 1_555 1_555
C3B C2B 1_555 1_555
C3B_2 H4B 1_555 1_555
H4B_2 C3B 1_555 1_555
C4B C3B 1_555 1_555
C5B C4B 1_555 1_555
H5B C5B 1_555 1_555
H6B C5B 1_555 1_555
H7B C5B 1_555 1_555
C6B C6 1_555 1_555
H8B C6B 1_555 1_555
H9B C6B 1_555 1_555
N1B C4B 1_555 1_555
H10B N1B 1_555 1_555
N2B O2B 1_555 1_555
O1B C2B 1_555 1_555
O1_2 Ag1 1_555 1_555
O2B Ag1B 1_555 1_555
O2A Ag1B 1_555 1_555
O2C Ag1 1_555 1_555
O3B N2B 1_555 1_555
O4B N2B 1_555 1_555
Ag1B C3B_2 1_555 1_555
Ag1A O2B 1_555 1_555
Ag1B_2 C3B 1_555 1_555
Ag1_2 O1 1_555 1_555
Ag1C O2 1_555 1_555
C6 N1 1_555 1_555
C6B N1B 1_555 1_555
O1B Ag1B 1_555 1_555

#END
