
#######################################################################
#
#                 Cambridge Crystallographic Data Centre
#                                CCDC 
#
#######################################################################
#
# If this CIF has been generated from an entry in the Cambridge 
# Structural Database, then it will include bibliographic, chemical, 
# crystal, experimental, refinement or atomic coordinate data resulting 
# from the CCDC's data processing and validation procedures.
#
#######################################################################

data_PAPWIO
_symmetry_cell_setting           tetragonal
_symmetry_space_group_name_H-M   'I 41/a c d'
_symmetry_Int_Tables_number      142
_space_group_name_Hall           '-I 4bd 2c'
loop_
_symmetry_equiv_pos_site_id
_symmetry_equiv_pos_as_xyz
1 x,y,z
2 1/4-y,3/4+x,1/4+z
3 -x,1/2-y,z
4 1/4+y,1/4-x,3/4+z
5 x,-y,1/2-z
6 1/2-x,y,-z
7 3/4+y,1/4+x,1/4-z
8 1/4-y,1/4-x,1/4-z
9 1/2+x,1/2+y,1/2+z
10 3/4-y,1/4+x,3/4+z
11 1/2-x,-y,1/2+z
12 3/4+y,3/4-x,1/4+z
13 1/2+x,1/2-y,-z
14 -x,1/2+y,1/2-z
15 1/4+y,3/4+x,3/4-z
16 3/4-y,3/4-x,3/4-z
17 -x,-y,-z
18 3/4+y,1/4-x,3/4-z
19 x,1/2+y,-z
20 3/4-y,3/4+x,1/4-z
21 -x,y,1/2+z
22 1/2+x,-y,z
23 1/4-y,3/4-x,3/4+z
24 3/4+y,3/4+x,3/4+z
25 1/2-x,1/2-y,1/2-z
26 1/4+y,3/4-x,1/4-z
27 1/2+x,y,1/2-z
28 1/4-y,1/4+x,3/4-z
29 1/2-x,1/2+y,z
30 x,1/2-y,1/2+z
31 3/4-y,1/4-x,1/4+z
32 1/4+y,1/4+x,1/4+z
_cell_length_a                   37.021(2)
_cell_length_b                   37.021(2)
_cell_length_c                   15.8242(18)
_cell_angle_alpha                90
_cell_angle_beta                 90
_cell_angle_gamma                90
_cell_volume                     21687.9
loop_
_atom_site_label
_atom_site_type_symbol
_atom_site_fract_x
_atom_site_fract_y
_atom_site_fract_z
C1 C 0.09040(11) 0.41440(12) 0.6677(3)
C2 C 0.15712(13) 0.38694(11) 0.7030(3)
C3 C 0.05698(13) 0.35622(12) 0.6240(3)
C4 C 0.10589(13) 0.35260(14) 0.4950(3)
C5 C -0.00740(14) 0.44023(11) 0.6656(3)
H1 H 0.0059 0.4228 0.6942
C6 C -0.03795(12) 0.43100(12) 0.6242(2)
H2 H -0.0473 0.4078 0.6307
C7 C -0.05510(11) 0.45455(12) 0.5738(3)
H3 H -0.0743 0.4470 0.5402
C8 C -0.04366(12) 0.49135(12) 0.5723(3)
C9 C -0.06166(11) 0.51833(12) 0.5197(3)
H4 H -0.0815 0.5119 0.4870
C10 C -0.04856(14) 0.55445(12) 0.5188(3)
H5 H -0.0610 0.5723 0.4893
C11 C -0.01673(13) 0.56295(11) 0.5627(3)
C12 C -0.00347(12) 0.59854(13) 0.5551(3)
H6 H -0.0158 0.6156 0.5229
C13 C 0.02776(12) 0.60742(12) 0.5960(2)
H7 H 0.0384 0.6299 0.5880
C14 C 0.04289(11) 0.58287(10) 0.6484(3)
H8 H 0.0627 0.5895 0.6810
C15 C -0.00064(11) 0.53741(12) 0.6117(2)
C16 C -0.01391(11) 0.50196(10) 0.6186(2)
Eu1 Eu 0.057735(8) 0.5000 0.7500
Mo1 Mo 0.114357(9) 0.364357(9) 0.6250
N1 N 0.07853(9) 0.44208(9) 0.6910(2)
N2 N 0.18310(11) 0.40157(11) 0.7336(2)
N3 N 0.02533(12) 0.35337(11) 0.6294(3)
N4 N 0.10153(11) 0.34548(11) 0.4289(3)
N5 N 0.00444(9) 0.47701(10) 0.6652(2)
N6 N 0.02933(9) 0.54771(9) 0.6547(2)
O3 O 0.10556(14) 0.51612(14) 0.6585(3)
H21 H 0.1202 0.4954 0.6456
H22 H 0.1202 0.5343 0.6851
C1F C 0.16440(12) 0.34040(11) 0.5823(3)
C2F C 0.13694(11) 0.40712(13) 0.5470(3)
C3F C 0.10622(12) 0.30698(13) 0.6260(3)
C4F C 0.10260(14) 0.35589(13) 0.7550(3)
C5D C -0.00740(14) 0.55977(11) 0.8344(3)
H1D H 0.0059 0.5772 0.8058
C6D C -0.03795(12) 0.56900(12) 0.8758(2)
H2D H -0.0473 0.5922 0.8693
C7D C -0.05510(11) 0.54545(12) 0.9262(3)
H3D H -0.0743 0.5530 0.9598
C8D C -0.04366(12) 0.50865(12) 0.9277(3)
C9D C -0.06166(11) 0.48167(12) 0.9803(3)
H4D H -0.0815 0.4881 1.0130
C10D C -0.04856(14) 0.44555(12) 0.9812(3)
H5D H -0.0610 0.4277 1.0107
C11D C -0.01673(13) 0.43705(11) 0.9373(3)
C12D C -0.00347(12) 0.40146(13) 0.9449(3)
H6D H -0.0158 0.3844 0.9771
C13D C 0.02776(12) 0.39258(12) 0.9040(2)
H7D H 0.0384 0.3701 0.9120
C14D C 0.04289(11) 0.41713(10) 0.8516(3)
H8D H 0.0627 0.4105 0.8190
C15D C -0.00064(11) 0.46259(12) 0.8883(2)
C16D C -0.01391(11) 0.49804(10) 0.8814(2)
Eu1F Eu 0.2500 0.307735(8) 0.5000
N1D N 0.07853(9) 0.55792(9) 0.8090(2)
N1F N 0.19208(9) 0.32853(9) 0.5590(2)
N2F N 0.15157(11) 0.43310(11) 0.5164(2)
N3F N 0.10337(11) 0.27533(12) 0.6206(3)
N4F N 0.09548(11) 0.35153(11) 0.8211(3)
N5D N 0.00444(9) 0.52299(10) 0.8348(2)
N6D N 0.02933(9) 0.45229(9) 0.8453(2)
O3D O 0.10556(14) 0.48388(14) 0.8415(3)
H21D H 0.1202 0.5046 0.8544
H22D H 0.1202 0.4657 0.8149
C17 C 0.97900(12) 0.21927(12) 0.9243(3)
H9 H 0.9960 0.2044 0.9553
H10 H 0.9662 0.2040 0.8845
C18 C 0.95265(13) 0.23621(16) 0.9843(3)
H11 H 0.9578 0.2618 0.9886
H12 H 0.9559 0.2256 1.0399
C19 C 0.91418(15) 0.23136(15) 0.9577(3)
H13 H 0.9010 0.2530 0.9731
H14 H 0.9136 0.2295 0.8966
C20 C 0.89399(15) 0.19875(14) 0.9941(3)
H15 H 0.8698 0.1985 0.9721
H16 H 0.9060 0.1767 0.9789
H17 H 0.8932 0.2008 1.0546
N7 N 1.0000 0.2500 0.8750
C17B C 1.02100(12) 0.28073(12) 0.9243(3)
C17AA C 1.03073(12) 0.22900(12) 0.8257(3)
C17Q C 0.96927(12) 0.27100(12) 0.8257(3)
H9B H 1.0040 0.2956 0.9553
H9AA H 1.0456 0.2460 0.7947
H9Q H 0.9544 0.2540 0.7947
H10B H 1.0338 0.2960 0.8845
H10AA H 1.0460 0.2162 0.8655
H10Q H 0.9540 0.2838 0.8655
C18B C 1.04735(13) 0.26379(16) 0.9843(3)
C18AA C 1.01379(16) 0.20265(13) 0.7657(3)
C18Q C 0.98621(16) 0.29735(13) 0.7657(3)
H11B H 1.0422 0.2382 0.9886
H11AA H 0.9882 0.2078 0.7614
H11Q H 1.0118 0.2922 0.7614
H12B H 1.0441 0.2744 1.0399
H12AA H 1.0244 0.2059 0.7101
H12Q H 0.9756 0.2941 0.7101
C19B C 1.08582(15) 0.26864(15) 0.9577(3)
C19AA C 1.01864(15) 0.16418(15) 0.7923(3)
C19Q C 0.98136(15) 0.33582(15) 0.7923(3)
H13B H 1.0990 0.2470 0.9731
H13AA H 0.9970 0.1510 0.7769
H13Q H 1.0030 0.3490 0.7769
H14B H 1.0864 0.2705 0.8966
H14AA H 1.0205 0.1636 0.8534
H14Q H 0.9795 0.3364 0.8534
C20B C 1.10601(15) 0.30125(14) 0.9941(3)
C20AA C 1.05125(14) 0.14399(15) 0.7559(3)
C20Q C 0.94875(14) 0.35601(15) 0.7559(3)
H15B H 1.1302 0.3015 0.9721
H15AA H 1.0515 0.1198 0.7779
H15Q H 0.9485 0.3802 0.7779
H16B H 1.0940 0.3233 0.9789
H16AA H 1.0733 0.1560 0.7711
H16Q H 0.9267 0.3440 0.7711
H17B H 1.1068 0.2992 1.0546
H17AA H 1.0492 0.1432 0.6954
H17Q H 0.9508 0.3568 0.6954
C21 C 0.15254(11) 0.59746(11) 0.3750
C22 C 0.17984(13) 0.57016(13) 0.3750
N9 N 0.20406(11) 0.54594(11) 0.3750
N8 N 0.2500 0.4640(4) 0.5000
O1 O 0.2263(5) 0.4453(5) 0.4609(9)
O2 O 0.2500 0.49651(10) 0.5000
O1E O 0.2737(5) 0.4453(5) 0.5391(9)
O4 O 0.0948(3) 0.5309(3) 0.2096(8)
H23 H 0.0961 0.5390 0.1674
H24 H 0.0882 0.5107 0.2202
O5 O 0.2193(3) 0.5476(2) 0.5408(6)
H25 H 0.2014 0.5451 0.5729
H26 H 0.2113 0.5522 0.4941
O6 O 0.1259(3) 0.5752(2) 0.5875(7)
H27 H 0.1318 0.5776 0.5386
H28 H 0.1397 0.5888 0.6159
H18? H 0.1353 0.5922 0.3329
H19? H 0.1637 0.6206 0.3666
H20? H 0.1400 0.5969 0.4254
H29? H 0.1284 0.4888 0.8153
H30? H 0.1037 0.4585 0.8536
loop_
_geom_bond_atom_site_label_1
_geom_bond_atom_site_label_2
_geom_bond_site_symmetry_1
_geom_bond_site_symmetry_2
C1 Mo1 1_555 1_555
C2 Mo1 1_555 1_555
C3 Mo1 1_555 1_555
C4 Mo1 1_555 1_555
C5 H1 1_555 1_555
C6 C5 1_555 1_555
H2 C6 1_555 1_555
C7 C6 1_555 1_555
H3 C7 1_555 1_555
C8 C7 1_555 1_555
C9 C8 1_555 1_555
H4 C9 1_555 1_555
C10 C9 1_555 1_555
H5 C10 1_555 1_555
C11 C10 1_555 1_555
C12 C11 1_555 1_555
H6 C12 1_555 1_555
C13 C12 1_555 1_555
H7 C13 1_555 1_555
C14 C13 1_555 1_555
H8 C14 1_555 1_555
C15 C11 1_555 1_555
C16 C8 1_555 1_555
C17 H9 1_555 1_555
H10 C17 1_555 1_555
C18 C17 1_555 1_555
H11 C18 1_555 1_555
H12 C18 1_555 1_555
C19 C18 1_555 1_555
H13 C19 1_555 1_555
H14 C19 1_555 1_555
C20 C19 1_555 1_555
H15 C20 1_555 1_555
H16 C20 1_555 1_555
H17 C20 1_555 1_555
C21 C22 1_555 1_555
C22 N9 1_555 1_555
Eu1 N1 1_555 1_555
Mo1 C1F 1_555 1_555
N1 C1 1_555 1_555
N2 C2 1_555 1_555
N3 C3 1_555 1_555
N4 C4 1_555 1_555
N5 C5 1_555 1_555
N6 C14 1_555 1_555
N7 C17 1_555 1_555
N8 O1 1_555 1_555
O2 N8 1_555 1_555
O3 Eu1 1_555 1_555
H21 O3 1_555 1_555
H22 O3 1_555 1_555
O4 H23 1_555 1_555
H24 O4 1_555 1_555
O5 H25 1_555 1_555
H26 O5 1_555 1_555
O6 H27 1_555 1_555
H28 O6 1_555 1_555
C1F N1F 1_555 1_555
C2F Mo1 1_555 1_555
C3F Mo1 1_555 1_555
C4F Mo1 1_555 1_555
C5D H1D 1_555 1_555
C6D C5D 1_555 1_555
H2D C6D 1_555 1_555
C7D C6D 1_555 1_555
H3D C7D 1_555 1_555
C8D C7D 1_555 1_555
C9D C8D 1_555 1_555
H4D C9D 1_555 1_555
C10D C9D 1_555 1_555
H5D C10D 1_555 1_555
C11D C10D 1_555 1_555
C12D C11D 1_555 1_555
H6D C12D 1_555 1_555
C13D C12D 1_555 1_555
H7D C13D 1_555 1_555
C14D C13D 1_555 1_555
H8D C14D 1_555 1_555
C15D C11D 1_555 1_555
C16D C8D 1_555 1_555
C17B N7 1_555 1_555
C17AA N7 1_555 1_555
C17Q N7 1_555 1_555
H9B C17B 1_555 1_555
H9AA C17AA 1_555 1_555
H9Q C17Q 1_555 1_555
H10B C17B 1_555 1_555
H10AA C17AA 1_555 1_555
H10Q C17Q 1_555 1_555
C18B C17B 1_555 1_555
C18AA C17AA 1_555 1_555
C18Q C17Q 1_555 1_555
H11B C18B 1_555 1_555
H11AA C18AA 1_555 1_555
H11Q C18Q 1_555 1_555
H12B C18B 1_555 1_555
H12AA C18AA 1_555 1_555
H12Q C18Q 1_555 1_555
C19B C18B 1_555 1_555
C19AA C18AA 1_555 1_555
C19Q C18Q 1_555 1_555
H13B C19B 1_555 1_555
H13AA C19AA 1_555 1_555
H13Q C19Q 1_555 1_555
H14B C19B 1_555 1_555
H14AA C19AA 1_555 1_555
H14Q C19Q 1_555 1_555
C20B C19B 1_555 1_555
C20AA C19AA 1_555 1_555
C20Q C19Q 1_555 1_555
H15B C20B 1_555 1_555
H15AA C20AA 1_555 1_555
H15Q C20Q 1_555 1_555
H16B C20B 1_555 1_555
H16AA C20AA 1_555 1_555
H16Q C20Q 1_555 1_555
H17B C20B 1_555 1_555
H17AA C20AA 1_555 1_555
H17Q C20Q 1_555 1_555
Eu1F N1F 1_555 1_555
N1D Eu1 1_555 1_555
N2F C2F 1_555 1_555
N3F C3F 1_555 1_555
N4F C4F 1_555 1_555
N5D Eu1 1_555 1_555
N6D Eu1 1_555 1_555
O1E N8 1_555 1_555
O3D Eu1 1_555 1_555
H21D O3D 1_555 1_555
H22D O3D 1_555 1_555
C15 C16 1_555 1_555
C15 N6 1_555 1_555
C16 N5 1_555 1_555
Eu1 N5 1_555 1_555
Eu1 N6 1_555 1_555
C5D N5D 1_555 1_555
C14D N6D 1_555 1_555
C15D C16D 1_555 1_555
C15D N6D 1_555 1_555
C16D N5D 1_555 1_555

#END
