
#######################################################################
#
#                 Cambridge Crystallographic Data Centre
#                                CCDC 
#
#######################################################################
#
# If this CIF has been generated from an entry in the Cambridge 
# Structural Database, then it will include bibliographic, chemical, 
# crystal, experimental, refinement or atomic coordinate data resulting 
# from the CCDC's data processing and validation procedures.
#
#######################################################################

data_PAPXAH
_symmetry_cell_setting           monoclinic
_symmetry_space_group_name_H-M   'P 21/n'
_symmetry_Int_Tables_number      14
_space_group_name_Hall           '-P 2yn'
loop_
_symmetry_equiv_pos_site_id
_symmetry_equiv_pos_as_xyz
1 x,y,z
2 1/2-x,1/2+y,1/2-z
3 -x,-y,-z
4 1/2+x,1/2-y,1/2+z
_cell_length_a                   8.5611(4)
_cell_length_b                   9.6326(5)
_cell_length_c                   14.2471(7)
_cell_angle_alpha                90
_cell_angle_beta                 98.892(2)
_cell_angle_gamma                90
_cell_volume                     1160.78
loop_
_atom_site_label
_atom_site_type_symbol
_atom_site_fract_x
_atom_site_fract_y
_atom_site_fract_z
C1 C -0.5252(6) -0.0649(5) 0.0240(4)
H1 H -0.6211 -0.1013 -0.0129
H2 H -0.5487 -0.0406 0.0864
C2 C -0.3977(6) -0.1771(5) 0.0344(4)
H3 H -0.3794 -0.2058 -0.0282
H4 H -0.2998 -0.1387 0.0676
C3 C -0.4425(6) -0.3021(6) 0.0878(4)
H5 H -0.4537 -0.2752 0.1520
H6 H -0.5436 -0.3377 0.0570
C4 C -0.2444(8) -0.4028(7) 0.2624(4)
H7 H -0.2269 -0.3044 0.2649
H8 H -0.1683 -0.4477 0.3092
H9 H -0.3491 -0.4226 0.2750
C5 C -0.2270(6) -0.4559(5) 0.1652(4)
C6 C -0.1103(6) -0.5574(5) 0.1551(4)
H10 H -0.0396 -0.5820 0.2088
C7 C -0.0956(6) -0.6229(5) 0.0684(4)
C8 C 0.0156(7) -0.7433(6) 0.0675(5)
H11 H -0.0441 -0.8270 0.0530
H12 H 0.0798 -0.7519 0.1287
H13 H 0.0822 -0.7279 0.0201
N1 N -0.3223(5) -0.4109(4) 0.0909(3)
H14 H -0.3134 -0.4497 0.0376
N2 N -0.3701(9) -0.3851(8) -0.2657(8)
O1 O -0.1768(4) -0.5846(4) -0.0093(3)
O2 O -0.4988(6) -0.3306(7) -0.2961(6)
O3 O -0.2562(7) -0.3288(7) -0.2811(6)
O4 O -0.3647(6) -0.5050(7) -0.2320(6)
Ag1 Ag -0.11326(5) -0.59788(4) -0.16513(3)
C1B C -0.4748(6) 0.0649(5) -0.0240(4)
H1B H -0.3789 0.1013 0.0129
H2B H -0.4513 0.0406 -0.0864
C2B C -0.6023(6) 0.1771(5) -0.0344(4)
H3B H -0.6206 0.2058 0.0282
H4B H -0.7002 0.1387 -0.0676
C3B C -0.5575(6) 0.3021(6) -0.0878(4)
H5B H -0.5463 0.2752 -0.1520
H6B H -0.4564 0.3377 -0.0570
C4B C -0.7556(8) 0.4028(7) -0.2624(4)
H7B H -0.7731 0.3044 -0.2649
H8B H -0.8317 0.4477 -0.3092
H9B H -0.6509 0.4226 -0.2750
C5B C -0.7730(6) 0.4559(5) -0.1652(4)
C6B C -0.8897(6) 0.5574(5) -0.1551(4)
C6B_2 C 0.1103(6) -0.4426(5) -0.1551(4)
C6_2 C -1.1103(6) 0.4426(5) 0.1551(4)
H10B H -0.9604 0.5820 -0.2088
H10B_2 H 0.0396 -0.4180 -0.2088
H10_2 H -1.0396 0.4180 0.2088
C7B C -0.9044(6) 0.6229(5) -0.0684(4)
C8B C -1.0156(7) 0.7433(6) -0.0675(5)
H11B H -0.9559 0.8270 -0.0530
H12B H -1.0798 0.7519 -0.1287
H13B H -1.0822 0.7279 -0.0201
N1B N -0.6777(5) 0.4109(4) -0.0909(3)
H14B H -0.6866 0.4497 -0.0376
N2B N -0.6299(9) 0.3851(8) 0.2657(8)
O1B O -0.8232(4) 0.5846(4) 0.0093(3)
O2A O -0.0012(6) -0.8306(7) -0.2039(6)
O2C O -0.9988(6) 0.8306(7) 0.2039(6)
O2B O -0.5012(6) 0.3306(7) 0.2961(6)
O3A O -0.2438(7) -0.8288(7) -0.2189(6)
O3C O -0.7562(7) 0.8288(7) 0.2189(6)
O3B O -0.7438(7) 0.3288(7) 0.2811(6)
O4B O -0.6353(6) 0.5050(7) 0.2320(6)
Ag1_2 Ag -1.11326(5) 0.40212(4) -0.16513(3)
Ag1B Ag 0.11326(5) -0.40212(4) 0.16513(3)
Ag1B_2 Ag -0.88674(5) 0.59788(4) 0.16513(3)
Ag1A Ag -0.38674(5) -0.09788(4) -0.33487(3)
Ag1C Ag -0.61326(5) 0.09788(4) 0.33487(3)
loop_
_geom_bond_atom_site_label_1
_geom_bond_atom_site_label_2
_geom_bond_site_symmetry_1
_geom_bond_site_symmetry_2
C1 H1 1_555 1_555
H2 C1 1_555 1_555
C2 C1 1_555 1_555
H3 C2 1_555 1_555
H4 C2 1_555 1_555
C3 C2 1_555 1_555
H5 C3 1_555 1_555
H6 C3 1_555 1_555
C4 H7 1_555 1_555
H8 C4 1_555 1_555
H9 C4 1_555 1_555
C5 C4 1_555 1_555
C6 C5 1_555 1_555
H10 C6 1_555 1_555
C7 C6 1_555 1_555
C8 C7 1_555 1_555
H11 C8 1_555 1_555
H12 C8 1_555 1_555
H13 C8 1_555 1_555
N1 C3 1_555 1_555
H14 N1 1_555 1_555
N2 O2 1_555 1_555
O1 C7 1_555 1_555
O2 Ag1A 1_555 1_555
O3 N2 1_555 1_555
O4 N2 1_555 1_555
Ag1 O1 1_555 1_555
C1B C1 1_555 1_555
H1B C1B 1_555 1_555
H2B C1B 1_555 1_555
C2B C1B 1_555 1_555
H3B C2B 1_555 1_555
H4B C2B 1_555 1_555
C3B C2B 1_555 1_555
H5B C3B 1_555 1_555
H6B C3B 1_555 1_555
C4B H7B 1_555 1_555
H8B C4B 1_555 1_555
H9B C4B 1_555 1_555
C5B C4B 1_555 1_555
C6B C5B 1_555 1_555
C6B_2 Ag1 1_555 1_555
C6_2 H10_2 1_555 1_555
H10B C6B 1_555 1_555
H10B_2 C6B_2 1_555 1_555
C7B C6B 1_555 1_555
C8B C7B 1_555 1_555
H11B C8B 1_555 1_555
H12B C8B 1_555 1_555
H13B C8B 1_555 1_555
N1B C3B 1_555 1_555
H14B N1B 1_555 1_555
N2B O2B 1_555 1_555
O1B C7B 1_555 1_555
O2A Ag1 1_555 1_555
O2C Ag1B_2 1_555 1_555
O2B Ag1C 1_555 1_555
O3A Ag1 1_555 1_555
O3C Ag1B_2 1_555 1_555
O3B N2B 1_555 1_555
O4B N2B 1_555 1_555
Ag1_2 C6B 1_555 1_555
Ag1B C6 1_555 1_555
Ag1B_2 C6_2 1_555 1_555
Ag1A O3 1_555 1_555
Ag1C O3B 1_555 1_555
C5 N1 1_555 1_555
O4 Ag1 1_555 1_555
C5B N1B 1_555 1_555
O1B Ag1B_2 1_555 1_555
O4B Ag1B_2 1_555 1_555

#END
