
#######################################################################
#
#                 Cambridge Crystallographic Data Centre
#                                CCDC 
#
#######################################################################
#
# If this CIF has been generated from an entry in the Cambridge 
# Structural Database, then it will include bibliographic, chemical, 
# crystal, experimental, refinement or atomic coordinate data resulting 
# from the CCDC's data processing and validation procedures.
#
#######################################################################

data_PAPXOV
_symmetry_cell_setting           monoclinic
_symmetry_space_group_name_H-M   'P 21/c'
_symmetry_Int_Tables_number      14
_space_group_name_Hall           '-P 2ybc'
loop_
_symmetry_equiv_pos_site_id
_symmetry_equiv_pos_as_xyz
1 x,y,z
2 -x,1/2+y,1/2-z
3 -x,-y,-z
4 x,1/2-y,1/2+z
_cell_length_a                   9.0801(5)
_cell_length_b                   8.1551(5)
_cell_length_c                   33.2742(18)
_cell_angle_alpha                90
_cell_angle_beta                 95.781(2)
_cell_angle_gamma                90
_cell_volume                     2451.39
loop_
_atom_site_label
_atom_site_type_symbol
_atom_site_fract_x
_atom_site_fract_y
_atom_site_fract_z
Ag1 Ag 0.91259(3) 0.33157(3) 0.271650(7)
O1 O -0.2507(3) 0.1717(3) 0.71524(7)
O2 O 0.1122(2) 0.2544(3) 0.51095(6)
O3 O 0.3937(2) 0.2606(3) 0.47534(7)
O4 O 1.1424(2) 0.2256(3) 0.36790(7)
C1 C 0.0300(3) 0.2444(4) 0.54348(9)
C2 C -0.3888(4) 0.1601(4) 0.70860(10)
O5 O 1.0429(3) 0.5464(3) 0.23284(8)
N1 N 0.8691(3) 0.3114(3) 0.38184(7)
H1 H 0.9399 0.2413 0.3857
C3 C -0.3941(3) 0.2172(4) 0.63576(9)
C4 C 0.7455(3) 0.2921(4) 0.40505(9)
N2 N -0.2461(3) 0.2273(3) 0.63776(7)
H2 H -0.2002 0.2266 0.6617
O6 O 1.1973(3) 0.5329(3) 0.18766(8)
C5 C -0.1547(3) 0.2392(4) 0.60543(9)
C6 C 0.7494(4) 0.3648(5) 0.44281(10)
H3 H 0.8330 0.4228 0.4531
C7 C 0.5054(3) 0.2675(4) 0.45025(9)
C8 C 0.8829(3) 0.4287(4) 0.35487(8)
O7 O 1.1103(4) 0.3133(3) 0.21325(11)
C9 C -0.0785(3) 0.3644(4) 0.54557(9)
H4 H -0.0896 0.4464 0.5261
C10 C 0.6201(4) 0.2094(4) 0.39015(9)
H5 H 0.6163 0.1609 0.3648
C11 C 1.0089(3) 0.4398(4) 0.33365(9)
H6 H 1.0098 0.5172 0.3132
C12 C -0.1697(3) 0.3620(4) 0.57654(9)
H7 H -0.2411 0.4430 0.5779
C13 C -0.4836(4) 0.2436(5) 0.59605(10)
H8 H -0.4901 0.3590 0.5904
H9 H -0.5812 0.1998 0.5972
H10 H -0.4368 0.1892 0.5751
C14 C 0.2049(3) 0.1170(4) 0.50467(9)
H11 H 0.2794 0.1049 0.5275
H12 H 0.1460 0.0175 0.5023
N3 N 1.1179(3) 0.4642(4) 0.21057(8)
C15 C 0.4987(3) 0.1969(4) 0.41224(10)
H13 H 0.4139 0.1417 0.4016
C16 C 0.0505(3) 0.1265(4) 0.57363(9)
H14 H 0.1254 0.0489 0.5732
C17 C -0.4639(4) 0.1822(4) 0.66991(10)
H15 H -0.5665 0.1727 0.6671
C18 C 1.1365(3) 0.3363(4) 0.34234(9)
C19 C -0.4745(5) 0.1236(6) 0.74401(12)
H16 H -0.4071 0.1119 0.7680
H17 H -0.5292 0.0237 0.7391
H18 H -0.5418 0.2120 0.7476
C20 C 0.2781(3) 0.1434(4) 0.46668(10)
H19 H 0.2067 0.1837 0.4453
H20 H 0.3187 0.0409 0.4579
C21 C 0.7628(4) 0.5534(4) 0.34903(11)
H21 H 0.6865 0.5271 0.3659
H22 H 0.8025 0.6598 0.3561
H23 H 0.7220 0.5536 0.3213
C22 C -0.0416(3) 0.1253(4) 0.60451(9)
H24 H -0.0273 0.0471 0.6249
C23 C 0.6299(4) 0.3517(5) 0.46518(10)
H25 H 0.6338 0.4002 0.4906
C24 C 1.2699(4) 0.3659(5) 0.31931(12)
H26 H 1.3466 0.2893 0.3281
H27 H 1.2421 0.3516 0.2909
H28 H 1.3054 0.4757 0.3243
Ag1C Ag -0.08741(3) 0.16843(3) 0.771650(7)
Ag1A Ag 1.08741(3) 0.83157(3) 0.228350(7)
O1C O 0.7493(3) 0.3283(3) 0.21524(7)
O5A O 0.9571(3) 0.0464(3) 0.26716(8)
loop_
_geom_bond_atom_site_label_1
_geom_bond_atom_site_label_2
_geom_bond_site_symmetry_1
_geom_bond_site_symmetry_2
Ag1 O5 1_555 1_555
O1 C2 1_555 1_555
O2 C1 1_555 1_555
O3 C7 1_555 1_555
O4 C18 1_555 1_555
C1 C9 1_555 1_555
C2 C17 1_555 1_555
O5 N3 1_555 1_555
N1 H1 1_555 1_555
C3 N2 1_555 1_555
C4 N1 1_555 1_555
N2 H2 1_555 1_555
O6 N3 1_555 1_555
C5 N2 1_555 1_555
C6 C4 1_555 1_555
H3 C6 1_555 1_555
C7 C15 1_555 1_555
C8 N1 1_555 1_555
O7 N3 1_555 1_555
C9 H4 1_555 1_555
C10 C4 1_555 1_555
H5 C10 1_555 1_555
C11 Ag1 1_555 1_555
H6 C11 1_555 1_555
C12 C5 1_555 1_555
H7 C12 1_555 1_555
C13 C3 1_555 1_555
H8 C13 1_555 1_555
H9 C13 1_555 1_555
H10 C13 1_555 1_555
C14 O2 1_555 1_555
H11 C14 1_555 1_555
H12 C14 1_555 1_555
C15 C10 1_555 1_555
H13 C15 1_555 1_555
C16 C1 1_555 1_555
H14 C16 1_555 1_555
C17 C3 1_555 1_555
H15 C17 1_555 1_555
C18 C11 1_555 1_555
C19 C2 1_555 1_555
H16 C19 1_555 1_555
H17 C19 1_555 1_555
H18 C19 1_555 1_555
C20 O3 1_555 1_555
H19 C20 1_555 1_555
H20 C20 1_555 1_555
C21 C8 1_555 1_555
H21 C21 1_555 1_555
H22 C21 1_555 1_555
H23 C21 1_555 1_555
C22 C5 1_555 1_555
H24 C22 1_555 1_555
C23 C6 1_555 1_555
H25 C23 1_555 1_555
C24 C18 1_555 1_555
H26 C24 1_555 1_555
H27 C24 1_555 1_555
H28 C24 1_555 1_555
Ag1C O1 1_555 1_555
Ag1A O5 1_555 1_555
O1C Ag1 1_555 1_555
O5A Ag1 1_555 1_555
C7 C23 1_555 1_555
C8 C11 1_555 1_555
C9 C12 1_555 1_555
C14 C20 1_555 1_555
C16 C22 1_555 1_555

#END
