
#######################################################################
#
#                 Cambridge Crystallographic Data Centre
#                                CCDC 
#
#######################################################################
#
# If this CIF has been generated from an entry in the Cambridge 
# Structural Database, then it will include bibliographic, chemical, 
# crystal, experimental, refinement or atomic coordinate data resulting 
# from the CCDC's data processing and validation procedures.
#
#######################################################################

data_PAPXIP
_symmetry_cell_setting           monoclinic
_symmetry_space_group_name_H-M   'P 21/n'
_symmetry_Int_Tables_number      14
_space_group_name_Hall           '-P 2yn'
loop_
_symmetry_equiv_pos_site_id
_symmetry_equiv_pos_as_xyz
1 x,y,z
2 1/2-x,1/2+y,1/2-z
3 -x,-y,-z
4 1/2+x,1/2-y,1/2+z
_cell_length_a                   16.456(2)
_cell_length_b                   5.2236(7)
_cell_length_c                   18.018(2)
_cell_angle_alpha                90
_cell_angle_beta                 113.186(3)
_cell_angle_gamma                90
_cell_volume                     1423.72
loop_
_atom_site_label
_atom_site_type_symbol
_atom_site_fract_x
_atom_site_fract_y
_atom_site_fract_z
C1 C -0.1235(2) -0.3663(6) 0.1515(2)
H1 H -0.0605 -0.3464 0.1711
H2 H -0.1402 -0.5282 0.1245
H3 H -0.1416 -0.3600 0.1960
C2 C -0.16857(19) -0.1503(6) 0.09227(19)
C3 C -0.26530(19) -0.1516(6) 0.05646(19)
H4 H -0.2946 -0.2512 0.0809
C4 C -0.31666(18) -0.0102(6) -0.01308(19)
C5 C -0.4153(2) -0.0681(7) -0.0522(2)
H5 H -0.4480 0.0890 -0.0610
H6 H -0.4314 -0.1772 -0.0173
H7 H -0.4285 -0.1524 -0.1030
C6 C -0.31231(18) 0.3158(6) -0.11542(18)
C7 C -0.39586(18) 0.2896(6) -0.17922(19)
H8 H -0.4343 0.1628 -0.1767
C8 C -0.3650(2) 0.6405(7) -0.2508(2)
H9 H -0.3833 0.7506 -0.2950
C9 C -0.2812(2) 0.6683(6) -0.1906(2)
H10 H -0.2433 0.7939 -0.1949
C10 C -0.25400(17) 0.5072(6) -0.12335(18)
C11 C -0.10552(18) 0.6818(6) -0.07210(19)
H11 H -0.1231 0.8592 -0.0728
H12 H -0.1016 0.6438 -0.1233
C12 C -0.01646(19) 0.6389(5) -0.0034(2)
H13 H -0.0207 0.6872 0.0469
H14 H 0.0268 0.7502 -0.0111
C13 C -0.4217(2) 0.4518(7) -0.2463(2)
H15 H -0.4770 0.4325 -0.2880
N1 N -0.27822(15) 0.1616(5) -0.04491(16)
H16 H -0.2225 0.1814 -0.0173
N2 N -0.37965(17) 0.5752(5) 0.16813(17)
O1 O -0.12379(12) 0.0146(4) 0.07515(13)
O2 O -0.17094(12) 0.5146(4) -0.06069(12)
O3 O -0.31063(16) 0.4468(5) 0.21303(15)
O4 O -0.42686(16) 0.4863(6) 0.10112(16)
O5 O 0.39378(14) 0.2124(5) -0.19238(16)
Ag1 Ag -0.288820(15) 0.09979(5) 0.149880(15)
C1B C 0.1235(2) 1.3663(6) -0.1515(2)
H1B H 0.0605 1.3464 -0.1711
H2B H 0.1402 1.5282 -0.1245
H3B H 0.1416 1.3600 -0.1960
C2B C 0.16857(19) 1.1503(6) -0.09227(19)
C3B C 0.26530(19) 1.1516(6) -0.05646(19)
H4B H 0.2946 1.2512 -0.0809
C4B C 0.31666(18) 1.0102(6) 0.01308(19)
C5B C 0.4153(2) 1.0681(7) 0.0522(2)
H5B H 0.4480 0.9110 0.0610
H6B H 0.4314 1.1772 0.0173
H7B H 0.4285 1.1524 0.1030
C6B C 0.31231(18) 0.6842(6) 0.11542(18)
C7B C 0.39586(18) 0.7104(6) 0.17922(19)
H8B H 0.4343 0.8372 0.1767
C8B C 0.3650(2) 0.3595(7) 0.2508(2)
H9B H 0.3833 0.2494 0.2950
C9B C 0.2812(2) 0.3317(6) 0.1906(2)
H10B H 0.2433 0.2061 0.1949
C10B C 0.25400(17) 0.4928(6) 0.12335(18)
C11B C 0.10552(18) 0.3182(6) 0.07210(19)
H11B H 0.1231 0.1408 0.0728
H12B H 0.1016 0.3562 0.1233
C12B C 0.01646(19) 0.3611(5) 0.0034(2)
H13B H 0.0207 0.3128 -0.0469
H14B H -0.0268 0.2498 0.0111
C13B C 0.4217(2) 0.5482(7) 0.2463(2)
H15B H 0.4770 0.5675 0.2880
N1B N 0.27822(15) 0.8384(5) 0.04491(16)
H16B H 0.2225 0.8186 0.0173
N2B N 0.37965(17) 0.4248(5) -0.16813(17)
O1B O 0.12379(12) 0.9854(4) -0.07515(13)
O2B O 0.17094(12) 0.4854(4) 0.06069(12)
O3B O 0.31063(16) 0.5532(5) -0.21303(15)
O3C O 0.18937(16) 1.0532(5) -0.28697(15)
O3A O -0.18937(16) -0.0532(5) 0.28697(15)
O4B O 0.42686(16) 0.5137(6) -0.10112(16)
O5B O -0.39378(14) -0.2124(5) 0.19238(16)
O5_2 O 0.39378(14) 1.2124(5) -0.19238(16)
O5B_2 O -0.39378(14) 0.7876(5) 0.19238(16)
Ag1B Ag 0.288820(15) 0.90021(5) -0.149880(15)
Ag1B_2 Ag 0.288820(15) -0.09979(5) -0.149880(15)
Ag1C Ag 0.211180(15) 0.40021(5) -0.350120(15)
Ag1A Ag -0.211180(15) 0.59979(5) 0.350120(15)
Ag1_2 Ag -0.288820(15) 1.09979(5) 0.149880(15)
loop_
_geom_bond_atom_site_label_1
_geom_bond_atom_site_label_2
_geom_bond_site_symmetry_1
_geom_bond_site_symmetry_2
C1 H1 1_555 1_555
H2 C1 1_555 1_555
H3 C1 1_555 1_555
C2 C1 1_555 1_555
C3 C2 1_555 1_555
H4 C3 1_555 1_555
C4 C3 1_555 1_555
C5 C4 1_555 1_555
H5 C5 1_555 1_555
H6 C5 1_555 1_555
H7 C5 1_555 1_555
C6 C7 1_555 1_555
C7 H8 1_555 1_555
C8 H9 1_555 1_555
C9 C8 1_555 1_555
H10 C9 1_555 1_555
C10 C6 1_555 1_555
C11 H11 1_555 1_555
H12 C11 1_555 1_555
C12 C11 1_555 1_555
H13 C12 1_555 1_555
H14 C12 1_555 1_555
C13 C7 1_555 1_555
H15 C13 1_555 1_555
N1 C4 1_555 1_555
H16 N1 1_555 1_555
N2 O3 1_555 1_555
O1 C2 1_555 1_555
O2 C10 1_555 1_555
O3 Ag1 1_555 1_555
O4 N2 1_555 1_555
O5 N2B 1_555 1_555
Ag1 C3 1_555 1_555
C1B H1B 1_555 1_555
H2B C1B 1_555 1_555
H3B C1B 1_555 1_555
C2B C1B 1_555 1_555
C3B C2B 1_555 1_555
H4B C3B 1_555 1_555
C4B C3B 1_555 1_555
C5B C4B 1_555 1_555
H5B C5B 1_555 1_555
H6B C5B 1_555 1_555
H7B C5B 1_555 1_555
C6B C7B 1_555 1_555
C7B H8B 1_555 1_555
C8B H9B 1_555 1_555
C9B C8B 1_555 1_555
H10B C9B 1_555 1_555
C10B C6B 1_555 1_555
C11B H11B 1_555 1_555
H12B C11B 1_555 1_555
C12B C12 1_555 1_555
H13B C12B 1_555 1_555
H14B C12B 1_555 1_555
C13B C7B 1_555 1_555
H15B C13B 1_555 1_555
N1B C4B 1_555 1_555
H16B N1B 1_555 1_555
N2B O3B 1_555 1_555
O1B C2B 1_555 1_555
O2B C10B 1_555 1_555
O3B Ag1B 1_555 1_555
O3C Ag1B 1_555 1_555
O3A Ag1 1_555 1_555
O4B N2B 1_555 1_555
O5B Ag1 1_555 1_555
O5_2 Ag1B 1_555 1_555
O5B_2 N2 1_555 1_555
Ag1B C3B 1_555 1_555
Ag1B_2 O5 1_555 1_555
Ag1C O3B 1_555 1_555
Ag1A O3 1_555 1_555
Ag1_2 O5B_2 1_555 1_555
C6 N1 1_555 1_555
C8 C13 1_555 1_555
C9 C10 1_555 1_555
C11 O2 1_555 1_555
C6B N1B 1_555 1_555
C8B C13B 1_555 1_555
C9B C10B 1_555 1_555
C11B C12B 1_555 1_555
C11B O2B 1_555 1_555

#END
