
#######################################################################
#
#                 Cambridge Crystallographic Data Centre
#                                CCDC 
#
#######################################################################
#
# If this CIF has been generated from an entry in the Cambridge 
# Structural Database, then it will include bibliographic, chemical, 
# crystal, experimental, refinement or atomic coordinate data resulting 
# from the CCDC's data processing and validation procedures.
#
#######################################################################

data_PAPYOW
_symmetry_cell_setting           monoclinic
_symmetry_space_group_name_H-M   'P 21/n'
_symmetry_Int_Tables_number      14
_space_group_name_Hall           '-P 2yn'
loop_
_symmetry_equiv_pos_site_id
_symmetry_equiv_pos_as_xyz
1 x,y,z
2 1/2-x,1/2+y,1/2-z
3 -x,-y,-z
4 1/2+x,1/2-y,1/2+z
_cell_length_a                   18.1419(5)
_cell_length_b                   18.9467(5)
_cell_length_c                   24.0974(6)
_cell_angle_alpha                90
_cell_angle_beta                 94.418(2)
_cell_angle_gamma                90
_cell_volume                     8258.37
loop_
_atom_site_label
_atom_site_type_symbol
_atom_site_fract_x
_atom_site_fract_y
_atom_site_fract_z
U1 U 0.32509(1) 1.566002(10) 1.361124(7)
U2 U 0.26307(1) 1.635250(10) 1.143260(8)
S1 S 0.61864(7) 1.33015(7) 1.52016(5)
S2 S 0.12503(8) 1.30127(7) 1.36001(5)
S3 S 0.16511(8) 1.88576(7) 1.41936(5)
O1 O 0.2515(2) 1.5628(2) 1.40508(16)
O2 O 0.3978(2) 1.5661(2) 1.31609(16)
O3 O 0.1757(2) 1.6772(2) 1.13210(16)
O4 O 0.3475(2) 1.5896(2) 1.15108(17)
O5 O 0.4128(2) 1.50298(19) 1.42749(15)
O6 O 0.3355(2) 1.43703(19) 1.37526(16)
O7 O 0.6123(2) 1.34855(19) 1.57967(14)
O8 O 0.6534(2) 1.3857(3) 1.48989(16)
O9 O 0.6503(2) 1.2611(2) 1.5145(2)
O10 O 0.2465(3) 1.5301(2) 1.28796(17)
O11 O 0.2094(2) 1.5472(2) 1.19949(15)
O12 O 0.1850(3) 1.2493(3) 1.3612(2)
O13 O 0.0515(3) 1.2716(3) 1.3609(2)
O14 O 0.1411(3) 1.3544(2) 1.40180(18)
O15 O 0.2806(2) 1.6727(2) 1.32486(15)
O16 O 0.2702(2) 1.6824(2) 1.23382(15)
O17 O 0.1023(2) 1.9335(2) 1.41781(18)
O18 O 0.2345(2) 1.9225(2) 1.43544(17)
O19 O 0.1569(2) 1.8231(2) 1.45283(15)
O20 O 0.2067(2) 1.5454(2) 1.08497(17)
H1 H 0.2220 1.5078 1.0658
H2 H 0.1695 1.5611 1.0683
O21 O 0.2898(3) 1.6567(2) 1.04767(17)
H3 H 0.3150 1.6232 1.0383
H4 H 0.2572 1.6600 1.0133
C1 C 0.3883(3) 1.4430(3) 1.4133(2)
C2 C 0.4209(3) 1.3787(3) 1.44117(19)
C3 C 0.4917(3) 1.3839(3) 1.4685(2)
H5 H 0.5162 1.4271 1.4708
C4 C 0.5247(3) 1.3242(3) 1.4922(2)
C5 C 0.4862(3) 1.2607(3) 1.4929(2)
H6 H 0.5082 1.2214 1.5104
C6 C 0.4155(3) 1.2561(3) 1.4676(2)
H7 H 0.3895 1.2138 1.4684
C7 C 0.3832(3) 1.3149(3) 1.4411(2)
H8 H 0.3361 1.3115 1.4232
C8 C 0.2126(3) 1.5105(3) 1.2429(2)
C9 C 0.1727(3) 1.4418(2) 1.2436(2)
C10 C 0.1678(3) 1.4073(3) 1.2940(2)
H9 H 0.1904 1.4262 1.3266
C11 C 0.1290(3) 1.3444(3) 1.2952(2)
C12 C 0.0951(3) 1.3148(3) 1.2464(2)
H10 H 0.0679 1.2733 1.2476
C13 C 0.1031(3) 1.3489(3) 1.1967(2)
H11 H 0.0821 1.3291 1.1638
C14 C 0.1410(3) 1.4109(3) 1.1944(2)
H12 H 0.1458 1.4327 1.1603
C15 C 0.2600(3) 1.7050(3) 1.28069(19)
C16 C 0.2200(3) 1.7729(3) 1.2880(2)
C17 C 0.2110(3) 1.7961(3) 1.3418(2)
H13 H 0.2311 1.7703 1.3721
C18 C 0.1725(3) 1.8573(3) 1.3503(2)
C19 C 0.1423(3) 1.8965(3) 1.3047(2)
H14 H 0.1167 1.9381 1.3105
C20 C 0.1504(3) 1.8733(3) 1.2515(2)
H15 H 0.1305 1.8994 1.2214
C21 C 0.1883(3) 1.8109(3) 1.2423(2)
H16 H 0.1925 1.7948 1.2062
U1B U 0.67491(1) 1.433998(10) 1.638876(7)
U2A U 0.23693(1) 1.135250(10) 1.356740(8)
O7B O 0.3877(2) 1.65145(19) 1.42033(14)
O12A O 0.3150(3) 1.7493(3) 1.1388(2)
Cs1 Cs 0.90873(2) 1.36986(2) 1.321244(18)
Cs2 Cs 0.72782(2) 1.26373(2) 1.215707(17)
O22 O 0.7071(2) 0.9147(2) 1.09643(17)
O23 O 0.8305(2) 1.2122(2) 1.10171(16)
O24 O 0.5355(2) 0.9540(2) 1.07792(16)
O25 O 0.6360(2) 1.2606(2) 1.10722(19)
O26 O 0.4949(2) 0.98807(19) 1.21634(16)
O27 O 0.5399(2) 1.3041(2) 1.21803(17)
O28 O 0.5924(2) 0.9683(2) 1.35464(16)
O29 O 0.6519(2) 1.2766(2) 1.32892(17)
O30 O 0.7645(2) 0.9164(2) 1.37118(16)
O31 O 0.8438(2) 1.2210(2) 1.32368(17)
O32 O 0.8081(2) 0.9081(2) 1.24246(16)
O33 O 0.9487(2) 1.1935(2) 1.21515(16)
N1 N 0.8111(2) 0.9854(2) 1.09935(18)
N2 N 0.7175(2) 1.0087(2) 1.03773(18)
N3 N 0.7605(2) 1.1309(2) 1.04862(19)
N4 N 0.8713(2) 1.0995(2) 1.08562(17)
N5 N 0.5886(2) 1.0445(3) 1.03065(19)
N6 N 0.4944(2) 1.0687(2) 1.08044(19)
N7 N 0.5312(2) 1.1922(2) 1.08885(19)
N8 N 0.6322(2) 1.1655(3) 1.0474(2)
N9 N 0.4507(2) 1.0892(2) 1.17120(18)
N10 N 0.4640(3) 1.0888(2) 1.26367(18)
N11 N 0.4811(2) 1.2166(2) 1.26476(17)
N12 N 0.4692(3) 1.2173(2) 1.17291(19)
N13 N 0.5402(2) 1.0797(2) 1.35061(18)
N14 N 0.6369(2) 1.0603(2) 1.41083(18)
N15 N 0.6692(2) 1.1813(2) 1.38818(19)
N16 N 0.5552(2) 1.2081(2) 1.35350(18)
N17 N 0.7671(2) 1.0279(2) 1.41071(18)
N18 N 0.8645(3) 0.9925(2) 1.36820(18)
N19 N 0.8979(2) 1.1149(2) 1.35055(18)
N20 N 0.7997(3) 1.1504(2) 1.3916(2)
N21 N 0.9092(3) 0.9721(2) 1.27799(18)
N22 N 0.8853(2) 0.9665(2) 1.18618(17)
N23 N 0.9402(2) 1.0828(2) 1.17539(18)
N24 N 0.9595(3) 1.0913(2) 1.26688(18)
C22 C 0.7410(3) 0.9647(3) 1.0795(2)
C23 C 0.8416(3) 1.0350(3) 1.0608(2)
H17 H 0.8768 1.0120 1.0377
C24 C 0.7718(3) 1.0609(3) 1.0254(2)
H18 H 0.7796 1.0628 0.9857
C25 C 0.8213(3) 1.1537(3) 1.0814(2)
C26 C 0.6448(3) 1.0028(3) 1.0072(2)
H19 H 0.6296 0.9537 1.0066
H20 H 0.6489 1.0175 0.9690
C27 C 0.7030(3) 1.1792(3) 1.0261(2)
H21 H 0.6982 1.1750 0.9859
H22 H 0.7179 1.2273 1.0353
C28 C 0.5388(3) 1.0156(3) 1.0655(2)
C29 C 0.5760(3) 1.1192(3) 1.0204(2)
H23 H 0.5671 1.1295 0.9806
C30 C 0.5072(3) 1.1357(3) 1.0528(2)
H24 H 0.4646 1.1494 1.0276
C31 C 0.6038(3) 1.2113(3) 1.0841(2)
C32 C 0.4358(3) 1.0575(3) 1.1171(2)
H25 H 0.4286 1.0072 1.1217
H26 H 0.3902 1.0770 1.0998
C33 C 0.4809(3) 1.2386(3) 1.1164(2)
H27 H 0.4336 1.2395 1.0947
H28 H 0.5006 1.2862 1.1171
C34 C 0.4729(3) 1.0483(3) 1.2174(2)
C35 C 0.4238(3) 1.1582(3) 1.1863(2)
H29 H 0.3722 1.1652 1.1723
C36 C 0.4324(3) 1.1574(3) 1.2517(2)
H30 H 0.3847 1.1632 1.2677
C37 C 0.5018(3) 1.2514(3) 1.2183(2)
C38 C 0.4719(3) 1.0589(3) 1.3189(2)
H31 H 0.4302 1.0736 1.3390
H32 H 0.4705 1.0079 1.3159
C39 C 0.4974(3) 1.2441(3) 1.3209(2)
H33 H 0.4527 1.2418 1.3404
H34 H 0.5110 1.2934 1.3182
C40 C 0.5905(3) 1.0298(3) 1.3703(2)
C41 C 0.5454(3) 1.1439(3) 1.3841(2)
H35 H 0.5049 1.1477 1.4086
C42 C 0.6217(3) 1.1336(3) 1.4178(2)
H36 H 0.6200 1.1466 1.4570
C43 C 0.6280(3) 1.2270(3) 1.3541(2)
C44 C 0.6996(3) 1.0227(3) 1.4379(2)
H37 H 0.6865 0.9732 1.4405
H38 H 0.7084 1.0405 1.4755
C45 C 0.7442(3) 1.1984(3) 1.4091(2)
H39 H 0.7467 1.1990 1.4494
H40 H 0.7558 1.2456 1.3967
C46 C 0.7960(3) 0.9735(3) 1.3825(2)
C47 C 0.8196(3) 1.0854(3) 1.4206(2)
H41 H 0.8318 1.0933 1.4604
C48 C 0.8878(3) 1.0604(3) 1.3908(2)
H42 H 0.9315 1.0557 1.4172
C49 C 0.8463(3) 1.1677(3) 1.3519(2)
C50 C 0.9087(3) 0.9480(3) 1.3352(2)
H43 H 0.9591 0.9472 1.3520
H44 H 0.8897 0.9002 1.3355
C51 C 0.9640(3) 1.1234(3) 1.3211(2)
H45 H 1.0055 1.1031 1.3433
H46 H 0.9738 1.1734 1.3171
C52 C 0.8622(3) 0.9450(3) 1.2365(2)
C53 C 0.9665(3) 1.0157(3) 1.2569(2)
H47 H 1.0160 0.9984 1.2691
C54 C 0.9510(3) 1.0104(3) 1.1926(2)
H48 H 0.9925 0.9887 1.1753
C55 C 0.9493(3) 1.1295(3) 1.2184(2)
C56 C 0.8571(3) 0.9372(3) 1.1334(2)
H49 H 0.8985 0.9229 1.1129
H50 H 0.8286 0.8953 1.1403
C57 C 0.9425(3) 1.1051(3) 1.1181(2)
H51 H 0.9590 1.1538 1.1176
H52 H 0.9786 1.0767 1.1006
O34 O 0.8826(3) 1.3280(3) 1.1979(2)
H53 H 0.8900 1.3539 1.1694
H54 H 0.9209 1.2964 1.1985
O35 O 0.8226(3) 1.4847(3) 1.2443(2)
H55 H 0.8442 1.4725 1.2098
H56 H 0.7763 1.4696 1.2332
O36 O 0.6490(7) 1.1177(6) 1.2043(5)
O37 O 0.8725(3) 0.6400(3) 0.9369(2)
H57 H 0.8282 0.6156 0.9352
H58 H 0.9035 0.5988 0.9399
O38 O 0.4748(5) 1.2651(5) 0.9552(3)
H59 H 0.5100 1.2491 0.9324
H60 H 0.4420 1.2353 0.9528
O39 O 0.4991(4) 0.6102(4) 0.9940(4)
H61 H 0.5366 0.5985 0.9736
H62 H 0.5048 0.6575 0.9973
O40 O 0.8685(3) 0.9469(2) 0.50894(19)
H63 H 0.8838 0.9884 0.5321
H64 H 0.9144 0.9333 0.5017
O41 O 0.3480(4) 1.1868(3) 0.9865(3)
O42 O 0.5685(3) 0.9491(3) 0.5440(2)
O43 O 0.6963(3) 0.8401(2) 0.45211(18)
O44 O 0.0011(4) 0.5771(4) 0.9407(3)
loop_
_geom_bond_atom_site_label_1
_geom_bond_atom_site_label_2
_geom_bond_site_symmetry_1
_geom_bond_site_symmetry_2
U1 O1 1_555 1_555
U2 O3 1_555 1_555
S1 O7 1_555 1_555
S2 O12 1_555 1_555
S3 O17 1_555 1_555
O2 U1 1_555 1_555
O4 U2 1_555 1_555
O5 U1 1_555 1_555
O6 U1 1_555 1_555
O7 U1B 1_555 1_555
O8 S1 1_555 1_555
O9 S1 1_555 1_555
O10 U1 1_555 1_555
O11 U2 1_555 1_555
O12 U2A 1_555 1_555
O13 S2 1_555 1_555
O14 S2 1_555 1_555
O15 U1 1_555 1_555
O16 U2 1_555 1_555
O18 S3 1_555 1_555
O19 S3 1_555 1_555
O20 U2 1_555 1_555
H1 O20 1_555 1_555
H2 O20 1_555 1_555
O21 U2 1_555 1_555
H3 O21 1_555 1_555
H4 O21 1_555 1_555
C1 O5 1_555 1_555
C2 C1 1_555 1_555
C3 C2 1_555 1_555
H5 C3 1_555 1_555
C4 S1 1_555 1_555
C5 C4 1_555 1_555
H6 C5 1_555 1_555
C6 C5 1_555 1_555
H7 C6 1_555 1_555
C7 C2 1_555 1_555
H8 C7 1_555 1_555
C8 O10 1_555 1_555
C9 C8 1_555 1_555
C10 C9 1_555 1_555
H9 C10 1_555 1_555
C11 S2 1_555 1_555
C12 C11 1_555 1_555
H10 C12 1_555 1_555
C13 C12 1_555 1_555
H11 C13 1_555 1_555
C14 C9 1_555 1_555
H12 C14 1_555 1_555
C15 O15 1_555 1_555
C16 C15 1_555 1_555
C17 C16 1_555 1_555
H13 C17 1_555 1_555
C18 S3 1_555 1_555
C19 C18 1_555 1_555
H14 C19 1_555 1_555
C20 C19 1_555 1_555
H15 C20 1_555 1_555
C21 C16 1_555 1_555
H16 C21 1_555 1_555
O22 C22 1_555 1_555
O23 C25 1_555 1_555
O24 C28 1_555 1_555
O25 C31 1_555 1_555
O26 C34 1_555 1_555
O27 C37 1_555 1_555
O28 C40 1_555 1_555
O29 C43 1_555 1_555
O30 C46 1_555 1_555
O31 C49 1_555 1_555
O32 C52 1_555 1_555
O33 C55 1_555 1_555
N1 C22 1_555 1_555
N2 C22 1_555 1_555
N3 C24 1_555 1_555
N4 C23 1_555 1_555
N5 C26 1_555 1_555
N6 C28 1_555 1_555
N7 C30 1_555 1_555
N8 C27 1_555 1_555
N9 C32 1_555 1_555
N10 C34 1_555 1_555
N11 C36 1_555 1_555
N12 C33 1_555 1_555
N13 C38 1_555 1_555
N14 C40 1_555 1_555
N15 C42 1_555 1_555
N16 C39 1_555 1_555
N17 C44 1_555 1_555
N18 C46 1_555 1_555
N19 C48 1_555 1_555
N20 C45 1_555 1_555
N21 C50 1_555 1_555
N22 C52 1_555 1_555
N23 C54 1_555 1_555
N24 C51 1_555 1_555
C23 N1 1_555 1_555
H17 C23 1_555 1_555
C24 N2 1_555 1_555
H18 C24 1_555 1_555
C25 N3 1_555 1_555
C26 N2 1_555 1_555
H19 C26 1_555 1_555
H20 C26 1_555 1_555
C27 N3 1_555 1_555
H21 C27 1_555 1_555
H22 C27 1_555 1_555
C28 N5 1_555 1_555
C29 N5 1_555 1_555
H23 C29 1_555 1_555
C30 N6 1_555 1_555
H24 C30 1_555 1_555
C31 N7 1_555 1_555
C32 N6 1_555 1_555
H25 C32 1_555 1_555
H26 C32 1_555 1_555
C33 N7 1_555 1_555
H27 C33 1_555 1_555
H28 C33 1_555 1_555
C34 N9 1_555 1_555
C35 N9 1_555 1_555
H29 C35 1_555 1_555
C36 N10 1_555 1_555
H30 C36 1_555 1_555
C37 N11 1_555 1_555
C38 N10 1_555 1_555
H31 C38 1_555 1_555
H32 C38 1_555 1_555
C39 N11 1_555 1_555
H33 C39 1_555 1_555
H34 C39 1_555 1_555
C40 N13 1_555 1_555
C41 N13 1_555 1_555
H35 C41 1_555 1_555
C42 N14 1_555 1_555
H36 C42 1_555 1_555
C43 N15 1_555 1_555
C44 N14 1_555 1_555
H37 C44 1_555 1_555
H38 C44 1_555 1_555
C45 N15 1_555 1_555
H39 C45 1_555 1_555
H40 C45 1_555 1_555
C46 N17 1_555 1_555
C47 N17 1_555 1_555
H41 C47 1_555 1_555
C48 N18 1_555 1_555
H42 C48 1_555 1_555
C49 N19 1_555 1_555
C50 N18 1_555 1_555
H43 C50 1_555 1_555
H44 C50 1_555 1_555
C51 N19 1_555 1_555
H45 C51 1_555 1_555
H46 C51 1_555 1_555
C52 N21 1_555 1_555
C53 N21 1_555 1_555
H47 C53 1_555 1_555
C54 N22 1_555 1_555
H48 C54 1_555 1_555
C55 N23 1_555 1_555
C56 N1 1_555 1_555
H49 C56 1_555 1_555
H50 C56 1_555 1_555
C57 N4 1_555 1_555
H51 C57 1_555 1_555
H52 C57 1_555 1_555
O34 H53 1_555 1_555
H54 O34 1_555 1_555
O35 H55 1_555 1_555
H56 O35 1_555 1_555
O37 H57 1_555 1_555
H58 O37 1_555 1_555
O38 H59 1_555 1_555
H60 O38 1_555 1_555
O39 H61 1_555 1_555
H62 O39 1_555 1_555
O40 H63 1_555 1_555
H64 O40 1_555 1_555
O7B U1 1_555 1_555
O12A U2 1_555 1_555
O6 C1 1_555 1_555
O11 C8 1_555 1_555
O16 C15 1_555 1_555
C3 C4 1_555 1_555
C6 C7 1_555 1_555
C10 C11 1_555 1_555
C13 C14 1_555 1_555
C17 C18 1_555 1_555
C20 C21 1_555 1_555
N4 C25 1_555 1_555
N8 C29 1_555 1_555
N8 C31 1_555 1_555
N12 C35 1_555 1_555
N12 C37 1_555 1_555
N16 C41 1_555 1_555
N16 C43 1_555 1_555
N20 C47 1_555 1_555
N20 C49 1_555 1_555
N22 C56 1_555 1_555
N23 C57 1_555 1_555
N24 C53 1_555 1_555
N24 C55 1_555 1_555
C23 C24 1_555 1_555
C29 C30 1_555 1_555
C35 C36 1_555 1_555
C41 C42 1_555 1_555
C47 C48 1_555 1_555
C53 C54 1_555 1_555

#END
