
#######################################################################
#
#                 Cambridge Crystallographic Data Centre
#                                CCDC 
#
#######################################################################
#
# If this CIF has been generated from an entry in the Cambridge 
# Structural Database, then it will include bibliographic, chemical, 
# crystal, experimental, refinement or atomic coordinate data resulting 
# from the CCDC's data processing and validation procedures.
#
#######################################################################

data_PAQDIV
_symmetry_cell_setting           orthorhombic
_symmetry_space_group_name_H-M   'P b c a'
_symmetry_Int_Tables_number      61
_space_group_name_Hall           '-P 2ac 2ab'
loop_
_symmetry_equiv_pos_site_id
_symmetry_equiv_pos_as_xyz
1 x,y,z
2 1/2+x,1/2-y,-z
3 -x,1/2+y,1/2-z
4 1/2-x,-y,1/2+z
5 -x,-y,-z
6 1/2-x,1/2+y,z
7 x,1/2-y,1/2+z
8 1/2+x,y,1/2-z
_cell_length_a                   11.368(6)
_cell_length_b                   9.844(3)
_cell_length_c                   18.639(6)
_cell_angle_alpha                90
_cell_angle_beta                 90
_cell_angle_gamma                90
_cell_volume                     2085.83
loop_
_atom_site_label
_atom_site_type_symbol
_atom_site_fract_x
_atom_site_fract_y
_atom_site_fract_z
Cu1 Cu -0.12607(2) 0.19581(3) 0.397310(15)
O1 O -0.24427(16) 0.30393(16) 0.45481(9)
O2 O -0.14365(16) 0.40739(19) 0.33656(10)
O3 O -0.24153(15) 0.60059(16) 0.35027(9)
O4 O -0.35065(15) 0.49254(17) 0.46657(9)
N1 N 0.00863(17) 0.2415(2) 0.46346(10)
N2 N -0.00956(18) 0.1339(2) 0.31671(11)
C1 C -0.2147(2) 0.4807(2) 0.36795(13)
C2 C -0.27564(19) 0.4214(2) 0.43614(12)
C3 C 0.0966(2) 0.3338(3) 0.43089(16)
H1 H 0.1524 0.3622 0.4673
H2 H 0.0572 0.4143 0.4128
C4 C 0.0874(2) 0.2346(3) 0.30522(15)
H3 H 0.0530 0.3188 0.2882
H4 H 0.1386 0.2006 0.2677
C5 C 0.1613(2) 0.2653(3) 0.37048(18)
H5 H 0.1943 0.1809 0.3882
H6 H 0.2263 0.3230 0.3560
C6 C 0.0408(3) -0.0013(3) 0.33357(15)
H7 H -0.0216 -0.0664 0.3382
H8 H 0.0839 0.0037 0.3778
H9 H 0.0928 -0.0286 0.2956
C7 C -0.0290(3) 0.2917(3) 0.53487(15)
H10 H 0.0385 0.3006 0.5655
H11 H -0.0834 0.2284 0.5557
H12 H -0.0664 0.3785 0.5296
C8 C -0.0722(3) 0.1242(3) 0.24652(15)
H13 H -0.0168 0.1028 0.2094
H14 H -0.1094 0.2095 0.2360
H15 H -0.1308 0.0541 0.2491
H16 H 0.045(2) 0.167(3) 0.4671(14)
Cu1E Cu -0.37393(2) 0.69581(3) 0.397310(15)
O3E O -0.25847(15) 0.10059(16) 0.35027(9)
O4E O -0.14935(15) -0.00746(17) 0.46657(9)
loop_
_geom_bond_atom_site_label_1
_geom_bond_atom_site_label_2
_geom_bond_site_symmetry_1
_geom_bond_site_symmetry_2
Cu1 O1 1_555 1_555
O1 C2 1_555 1_555
O2 Cu1 1_555 1_555
O3 C1 1_555 1_555
O4 C2 1_555 1_555
N1 Cu1 1_555 1_555
N2 Cu1 1_555 1_555
C1 O2 1_555 1_555
C2 C1 1_555 1_555
C3 N1 1_555 1_555
H1 C3 1_555 1_555
H2 C3 1_555 1_555
C4 N2 1_555 1_555
H3 C4 1_555 1_555
H4 C4 1_555 1_555
C5 C3 1_555 1_555
H5 C5 1_555 1_555
H6 C5 1_555 1_555
C6 N2 1_555 1_555
H7 C6 1_555 1_555
H8 C6 1_555 1_555
H9 C6 1_555 1_555
C7 N1 1_555 1_555
H10 C7 1_555 1_555
H11 C7 1_555 1_555
H12 C7 1_555 1_555
C8 N2 1_555 1_555
H13 C8 1_555 1_555
H14 C8 1_555 1_555
H15 C8 1_555 1_555
H16 N1 1_555 1_555
Cu1E O3 1_555 1_555
O3E Cu1 1_555 1_555
O4E Cu1 1_555 1_555
O4 Cu1E 1_555 1_555
C4 C5 1_555 1_555

#END
