
#######################################################################
#
#                 Cambridge Crystallographic Data Centre
#                                CCDC 
#
#######################################################################
#
# If this CIF has been generated from an entry in the Cambridge 
# Structural Database, then it will include bibliographic, chemical, 
# crystal, experimental, refinement or atomic coordinate data resulting 
# from the CCDC's data processing and validation procedures.
#
#######################################################################

data_PAQDAO
_symmetry_cell_setting           triclinic
_symmetry_space_group_name_H-M   'P -1'
_symmetry_Int_Tables_number      2
_space_group_name_Hall           '-P 1'
loop_
_symmetry_equiv_pos_site_id
_symmetry_equiv_pos_as_xyz
1 x,y,z
2 -x,-y,-z
_cell_length_a                   7.1455(6)
_cell_length_b                   8.7718(8)
_cell_length_c                   10.4620(9)
_cell_angle_alpha                67.487(2)
_cell_angle_beta                 87.840(2)
_cell_angle_gamma                78.498(2)
_cell_volume                     593.067
loop_
_atom_site_label
_atom_site_type_symbol
_atom_site_fract_x
_atom_site_fract_y
_atom_site_fract_z
I1 I 0.31459(5) -0.00782(4) 0.83896(3)
Cu1 Cu 0.41232(8) -0.10540(7) 1.09345(6)
N1 N 0.3091(5) -0.2803(4) 1.2435(4)
N2 N 0.2794(4) -0.5377(4) 1.3841(3)
C1 C 0.2680(5) -0.2802(5) 1.3748(4)
C2 C 0.2518(5) -0.4427(5) 1.4641(4)
C3 C 0.2212(5) -0.4819(6) 1.6042(4)
H1 H 0.2150 -0.5908 1.6643
C4 C 0.2007(6) -0.3519(7) 1.6497(5)
H2 H 0.1802 -0.3738 1.7428
C5 C 0.2095(6) -0.1886(7) 1.5606(5)
H3 H 0.1914 -0.1036 1.5950
C6 C 0.2444(6) -0.1503(6) 1.4231(5)
H4 H 0.2522 -0.0412 1.3642
C7 C 0.3134(5) -0.4354(5) 1.2536(4)
C8 C 0.2777(7) -0.7176(5) 1.4323(5)
H5 H 0.2509 -0.7596 1.5289
H6 H 0.4003 -0.7771 1.4192
H7 H 0.1809 -0.7341 1.3805
C9 C 0.1652(5) -0.4970(5) 1.0677(4)
C10 C 0.1504(6) -0.6347(5) 1.0363(4)
H8 H 0.2519 -0.7267 1.0604
C11 C 0.0120(6) -0.3621(5) 1.0299(4)
H9 H 0.0181 -0.2682 1.0492
C12 C 0.3453(5) -0.4913(5) 1.1348(4)
H10 H 0.4264 -0.6027 1.1674
H11 H 0.4135 -0.4155 1.0652
I1A I 0.68541(5) 0.00782(4) 1.16104(3)
Cu1A Cu 0.58768(8) 0.10540(7) 0.90655(6)
Cu1A_2 Cu -0.41232(8) -0.89460(7) 0.90655(6)
N1A N -0.3091(5) -0.7197(4) 0.7565(4)
N1A_2 N 0.6909(5) 0.2803(4) 0.7565(4)
N2A N -0.2794(4) -0.4623(4) 0.6159(3)
C1A C -0.2680(5) -0.7198(5) 0.6252(4)
C2A C -0.2518(5) -0.5573(5) 0.5359(4)
C3A C -0.2212(5) -0.5181(6) 0.3958(4)
H1A H -0.2150 -0.4092 0.3357
C4A C -0.2007(6) -0.6481(7) 0.3503(5)
H2A H -0.1802 -0.6262 0.2572
C5A C -0.2095(6) -0.8114(7) 0.4394(5)
H3A H -0.1914 -0.8964 0.4050
C6A C -0.2444(6) -0.8497(6) 0.5769(5)
H4A H -0.2522 -0.9588 0.6358
C7A C -0.3134(5) -0.5646(5) 0.7464(4)
C8A C -0.2777(7) -0.2824(5) 0.5677(5)
H5A H -0.2509 -0.2404 0.4711
H6A H -0.4003 -0.2229 0.5808
H7A H -0.1809 -0.2659 0.6195
C9A C -0.1652(5) -0.5030(5) 0.9323(4)
C10A C -0.1504(6) -0.3653(5) 0.9637(4)
H8A H -0.2519 -0.2733 0.9396
C11A C -0.0120(6) -0.6379(5) 0.9701(4)
H9A H -0.0181 -0.7318 0.9508
C12A C -0.3453(5) -0.5087(5) 0.8652(4)
H10A H -0.4264 -0.3973 0.8326
H11A H -0.4135 -0.5845 0.9348
loop_
_geom_bond_atom_site_label_1
_geom_bond_atom_site_label_2
_geom_bond_site_symmetry_1
_geom_bond_site_symmetry_2
I1 Cu1 1_555 1_555
Cu1 N1 1_555 1_555
N1 C1 1_555 1_555
N2 C2 1_555 1_555
C1 C2 1_555 1_555
C2 C3 1_555 1_555
C3 H1 1_555 1_555
C4 C3 1_555 1_555
H2 C4 1_555 1_555
C5 C4 1_555 1_555
H3 C5 1_555 1_555
C6 C1 1_555 1_555
H4 C6 1_555 1_555
C7 N1 1_555 1_555
C8 N2 1_555 1_555
H5 C8 1_555 1_555
H6 C8 1_555 1_555
H7 C8 1_555 1_555
C9 C10 1_555 1_555
C10 H8 1_555 1_555
C11 C9 1_555 1_555
H9 C11 1_555 1_555
C12 C7 1_555 1_555
H10 C12 1_555 1_555
H11 C12 1_555 1_555
I1A Cu1 1_555 1_555
Cu1A I1 1_555 1_555
Cu1A_2 N1A 1_555 1_555
N1A C1A 1_555 1_555
N1A_2 Cu1A 1_555 1_555
N2A C2A 1_555 1_555
C1A C2A 1_555 1_555
C2A C3A 1_555 1_555
C3A H1A 1_555 1_555
C4A C3A 1_555 1_555
H2A C4A 1_555 1_555
C5A C4A 1_555 1_555
H3A C5A 1_555 1_555
C6A C1A 1_555 1_555
H4A C6A 1_555 1_555
C7A N1A 1_555 1_555
C8A N2A 1_555 1_555
H5A C8A 1_555 1_555
H6A C8A 1_555 1_555
H7A C8A 1_555 1_555
C9A C10A 1_555 1_555
C10A C11 1_555 1_555
H8A C10A 1_555 1_555
C11A C10 1_555 1_555
H9A C11A 1_555 1_555
C12A C7A 1_555 1_555
H10A C12A 1_555 1_555
H11A C12A 1_555 1_555
N2 C7 1_555 1_555
C5 C6 1_555 1_555
C9 C12 1_555 1_555
I1A Cu1A 1_555 1_555
N2A C7A 1_555 1_555
C5A C6A 1_555 1_555
C9A C11A 1_555 1_555
C9A C12A 1_555 1_555

#END
