
#######################################################################
#
#                 Cambridge Crystallographic Data Centre
#                                CCDC 
#
#######################################################################
#
# If this CIF has been generated from an entry in the Cambridge 
# Structural Database, then it will include bibliographic, chemical, 
# crystal, experimental, refinement or atomic coordinate data resulting 
# from the CCDC's data processing and validation procedures.
#
#######################################################################

data_PAQDIW
_symmetry_cell_setting           monoclinic
_symmetry_space_group_name_H-M   'P 21/n'
_symmetry_Int_Tables_number      14
_space_group_name_Hall           '-P 2yn'
loop_
_symmetry_equiv_pos_site_id
_symmetry_equiv_pos_as_xyz
1 x,y,z
2 1/2-x,1/2+y,1/2-z
3 -x,-y,-z
4 1/2+x,1/2-y,1/2+z
_cell_length_a                   5.7847(7)
_cell_length_b                   17.012(2)
_cell_length_c                   11.2798(14)
_cell_angle_alpha                90
_cell_angle_beta                 104.402(4)
_cell_angle_gamma                90
_cell_volume                     1075.15
loop_
_atom_site_label
_atom_site_type_symbol
_atom_site_fract_x
_atom_site_fract_y
_atom_site_fract_z
Cu1 Cu 0.0000 0.5000 0.0000
Cl1 Cl 0.1396(3) 0.57512(8) -0.13179(13)
N1 N 0.2788(7) 0.6792(2) 0.2387(4)
N2 N 0.0617(7) 0.5892(2) 0.1186(3)
C1 C 0.2658(8) 0.6040(3) 0.1991(4)
C2 C 0.0687(8) 0.7160(3) 0.1794(4)
C3 C -0.0671(8) 0.6581(3) 0.1048(4)
C4 C -0.2951(9) 0.6759(3) 0.0332(5)
H1 H -0.3892 0.6384 -0.0164
C5 C -0.3736(11) 0.7523(4) 0.0400(5)
H2 H -0.5252 0.7659 -0.0059
C6 C -0.2350(13) 0.8093(4) 0.1124(6)
H3 H -0.2948 0.8601 0.1121
C7 C -0.0119(11) 0.7927(3) 0.1845(5)
H4 H 0.0804 0.8307 0.2339
C8 C 0.4806(9) 0.7151(3) 0.3254(5)
H5 H 0.4442 0.7690 0.3384
H6 H 0.6192 0.7128 0.2932
H7 H 0.5112 0.6872 0.4017
C9 C 0.4790(9) 0.5217(3) 0.3776(5)
C10 C 0.6895(10) 0.5338(3) 0.4666(5)
H8 H 0.8188 0.5571 0.4452
C11 C 0.2901(9) 0.4884(3) 0.4127(5)
H9 H 0.1464 0.4807 0.3548
C12 C 0.4577(9) 0.5457(3) 0.2456(5)
H10 H 0.6087 0.5677 0.2390
H11 H 0.4268 0.4992 0.1943
Cu1_2 Cu 1.0000 0.5000 1.0000
Cl1B Cl -0.1396(3) 0.42488(8) 0.13179(13)
N1B N 0.7212(7) 0.3208(2) 0.7613(4)
N2B N 0.9383(7) 0.4108(2) 0.8814(3)
N2B_2 N -0.0617(7) 0.4108(2) -0.1186(3)
C1B C 0.7342(8) 0.3960(3) 0.8009(4)
C2B C 0.9313(8) 0.2840(3) 0.8206(4)
C3B C 1.0671(8) 0.3419(3) 0.8952(4)
C4B C 1.2951(9) 0.3241(3) 0.9668(5)
H1B H 1.3892 0.3616 1.0164
C5B C 1.3736(11) 0.2477(4) 0.9600(5)
H2B H 1.5252 0.2341 1.0059
C6B C 1.2350(13) 0.1907(4) 0.8876(6)
H3B H 1.2948 0.1399 0.8879
C7B C 1.0119(11) 0.2073(3) 0.8155(5)
H4B H 0.9196 0.1693 0.7661
C8B C 0.5194(9) 0.2849(3) 0.6746(5)
H5B H 0.5558 0.2310 0.6616
H6B H 0.3808 0.2872 0.7068
H7B H 0.4888 0.3128 0.5983
C9B C 0.5210(9) 0.4783(3) 0.6224(5)
C10B C 0.3105(10) 0.4662(3) 0.5334(5)
H8B H 0.1812 0.4429 0.5548
C11B C 0.7099(9) 0.5116(3) 0.5873(5)
H9B H 0.8536 0.5193 0.6452
C12B C 0.5423(9) 0.4543(3) 0.7544(5)
H10B H 0.3913 0.4323 0.7610
H11B H 0.5732 0.5008 0.8057
loop_
_geom_bond_atom_site_label_1
_geom_bond_atom_site_label_2
_geom_bond_site_symmetry_1
_geom_bond_site_symmetry_2
Cu1 Cl1 1_555 1_555
N1 C1 1_555 1_555
N2 Cu1 1_555 1_555
C1 N2 1_555 1_555
C2 N1 1_555 1_555
C3 N2 1_555 1_555
C4 C3 1_555 1_555
H1 C4 1_555 1_555
C5 C4 1_555 1_555
H2 C5 1_555 1_555
C6 C5 1_555 1_555
H3 C6 1_555 1_555
C7 C2 1_555 1_555
H4 C7 1_555 1_555
C8 N1 1_555 1_555
H5 C8 1_555 1_555
H6 C8 1_555 1_555
H7 C8 1_555 1_555
C9 C10 1_555 1_555
C10 H8 1_555 1_555
C11 C9 1_555 1_555
H9 C11 1_555 1_555
C12 C1 1_555 1_555
H10 C12 1_555 1_555
H11 C12 1_555 1_555
Cu1_2 N2B 1_555 1_555
Cl1B Cu1 1_555 1_555
N1B C1B 1_555 1_555
N2B C1B 1_555 1_555
N2B_2 Cu1 1_555 1_555
C1B C12B 1_555 1_555
C2B N1B 1_555 1_555
C3B N2B 1_555 1_555
C4B C3B 1_555 1_555
H1B C4B 1_555 1_555
C5B C4B 1_555 1_555
H2B C5B 1_555 1_555
C6B C5B 1_555 1_555
H3B C6B 1_555 1_555
C7B C2B 1_555 1_555
H4B C7B 1_555 1_555
C8B N1B 1_555 1_555
H5B C8B 1_555 1_555
H6B C8B 1_555 1_555
H7B C8B 1_555 1_555
C9B C10B 1_555 1_555
C10B C11 1_555 1_555
H8B C10B 1_555 1_555
C11B C10 1_555 1_555
H9B C11B 1_555 1_555
C12B C9B 1_555 1_555
H10B C12B 1_555 1_555
H11B C12B 1_555 1_555
C2 C3 1_555 1_555
C6 C7 1_555 1_555
C9 C12 1_555 1_555
C2B C3B 1_555 1_555
C6B C7B 1_555 1_555
C9B C11B 1_555 1_555

#END
