
#######################################################################
#
#                 Cambridge Crystallographic Data Centre
#                                CCDC 
#
#######################################################################
#
# If this CIF has been generated from an entry in the Cambridge 
# Structural Database, then it will include bibliographic, chemical, 
# crystal, experimental, refinement or atomic coordinate data resulting 
# from the CCDC's data processing and validation procedures.
#
#######################################################################

data_PAQDOC
_symmetry_cell_setting           monoclinic
_symmetry_space_group_name_H-M   'P 21/c'
_symmetry_Int_Tables_number      14
_space_group_name_Hall           '-P 2ybc'
loop_
_symmetry_equiv_pos_site_id
_symmetry_equiv_pos_as_xyz
1 x,y,z
2 -x,1/2+y,1/2-z
3 -x,-y,-z
4 x,1/2-y,1/2+z
_cell_length_a                   11.102(2)
_cell_length_b                   14.458(3)
_cell_length_c                   23.518(4)
_cell_angle_alpha                90
_cell_angle_beta                 113.883(8)
_cell_angle_gamma                90
_cell_volume                     3451.71
loop_
_atom_site_label
_atom_site_type_symbol
_atom_site_fract_x
_atom_site_fract_y
_atom_site_fract_z
Cd1 Cd 1.13605(4) 0.25184(3) 0.665945(17)
C1 C 1.5014(6) 0.1129(4) 0.6518(3)
C2 C 1.6202(7) 0.1323(5) 0.6509(3)
H1 H 1.6232 0.1709 0.6199
C3 C 1.7360(6) 0.0973(5) 0.6938(3)
H2 H 1.8155 0.1129 0.6919
C4 C 1.7344(5) 0.0384(4) 0.7403(2)
C5 C 1.6145(6) 0.0188(4) 0.7417(3)
H3 H 1.6112 -0.0201 0.7725
C6 C 1.4992(6) 0.0553(5) 0.6985(3)
H4 H 1.4195 0.0412 0.7007
C7 C 1.3732(6) 0.1551(5) 0.6037(3)
H5 H 1.3632 0.2174 0.6165
H6 H 1.3794 0.1591 0.5638
C8 C 1.8614(6) -0.0023(4) 0.7876(3)
H7 H 1.8809 -0.0591 0.7710
H8 H 1.9329 0.0407 0.7942
N1 N 1.1700(5) 0.1208(3) 0.6210(2)
N2 N 1.2284(6) 0.0148(4) 0.5689(2)
C9 C 1.2559(6) 0.1002(4) 0.5966(3)
C10 C 1.0849(7) 0.0437(4) 0.6095(3)
C11 C 1.1214(7) -0.0222(5) 0.5770(3)
C12 C 1.0586(10) -0.1072(5) 0.5595(3)
H9 H 1.0818 -0.1502 0.5363
C13 C 0.9593(10) -0.1226(6) 0.5792(4)
H10 H 0.9160 -0.1792 0.5703
C14 C 0.9214(9) -0.0584(5) 0.6114(4)
H11 H 0.8530 -0.0725 0.6232
C15 C 0.9828(7) 0.0278(4) 0.6270(3)
H12 H 0.9559 0.0720 0.6482
C16 C 1.3044(9) -0.0303(6) 0.5375(4)
H13 H 1.3728 0.0107 0.5379
H14 H 1.2468 -0.0443 0.4953
H15 H 1.3430 -0.0864 0.5589
N3 N 1.8429(5) 0.0452(3) 0.8860(2)
N4 N 1.8559(4) -0.1062(3) 0.87222(19)
C17 C 1.8550(5) -0.0224(4) 0.8482(2)
C18 C 1.8437(5) -0.0906(4) 0.9290(2)
C19 C 1.8340(5) 0.0032(4) 0.9369(3)
C20 C 1.8216(6) 0.0400(4) 0.9887(3)
H16 H 1.8155 0.1035 0.9935
C21 C 1.8187(6) -0.0208(5) 1.0320(3)
H17 H 1.8096 0.0017 1.0671
C22 C 1.8291(6) -0.1172(5) 1.0255(3)
H18 H 1.8279 -0.1569 1.0564
C23 C 1.8412(6) -0.1528(4) 0.9732(3)
H19 H 1.8473 -0.2162 0.9682
C24 C 1.8370(7) 0.1454(4) 0.8742(3)
H20 H 1.8287 0.1775 0.9082
H21 H 1.7622 0.1591 0.8364
H22 H 1.9161 0.1648 0.8705
N5 N 0.8540(5) 0.2473(4) 0.5784(3)
O1 O 0.7340(5) 0.2450(4) 0.5512(3)
O2 O 0.9073(5) 0.2526(3) 0.6370(2)
O3 O 0.9262(5) 0.2454(3) 0.5504(2)
N6 N 1.1156(6) 0.2096(5) 0.7814(3)
O4 O 1.0987(6) 0.1911(5) 0.8281(2)
O5 O 1.1280(5) 0.1476(4) 0.7470(2)
O6 O 1.1199(6) 0.2899(4) 0.7647(2)
O7 O 1.3635(5) 0.2681(3) 0.7285(2)
Cd1A Cd 1.86395(4) -0.24816(3) 0.834055(17)
N4A N 1.1441(4) 0.3938(3) 0.62778(19)
O8 O -0.4494(7) 0.1382(5) 0.2000(3)
C25 C -0.3174(15) 0.1548(10) 0.2534(6)
H23 H -0.2992 0.2205 0.2599
H24 H -0.3155 0.1279 0.2916
C26 C -0.2304(17) 0.1138(13) 0.2363(8)
H25 H -0.1907 0.0619 0.2637
H26 H -0.1611 0.1571 0.2397
C27 C -0.2986(17) 0.0797(12) 0.1693(8)
H27 H -0.2840 0.0141 0.1661
H28 H -0.2689 0.1136 0.1417
C28 C -0.4350(18) 0.0991(14) 0.1559(8)
H29 H -0.4712 0.1382 0.1193
H30 H -0.4842 0.0416 0.1466
O9 O 1.4948(17) 0.2511(10) 0.8618(7)
C29 C 1.415(2) 0.3136(13) 0.8832(11)
H31 H 1.3236 0.3161 0.8537
H32 H 1.4511 0.3757 0.8913
C30 C 1.4295(19) 0.2691(12) 0.9358(10)
H33 H 1.3479 0.2710 0.9417
H34 H 1.4980 0.2983 0.9714
C31 C 1.4689(13) 0.1640(10) 0.9292(7)
H35 H 1.5524 0.1475 0.9625
H36 H 1.4015 0.1212 0.9292
C32 C 1.478(2) 0.1650(14) 0.8691(9)
H37 H 1.5528 0.1287 0.8701
H38 H 1.3985 0.1418 0.8363
loop_
_geom_bond_atom_site_label_1
_geom_bond_atom_site_label_2
_geom_bond_site_symmetry_1
_geom_bond_site_symmetry_2
Cd1 N1 1_555 1_555
C1 C2 1_555 1_555
C2 H1 1_555 1_555
C3 C2 1_555 1_555
H2 C3 1_555 1_555
C4 C3 1_555 1_555
C5 C4 1_555 1_555
H3 C5 1_555 1_555
C6 C1 1_555 1_555
H4 C6 1_555 1_555
C7 C1 1_555 1_555
H5 C7 1_555 1_555
H6 C7 1_555 1_555
C8 C4 1_555 1_555
H7 C8 1_555 1_555
H8 C8 1_555 1_555
N1 C9 1_555 1_555
N2 C9 1_555 1_555
C9 C7 1_555 1_555
C10 N1 1_555 1_555
C11 N2 1_555 1_555
C12 C11 1_555 1_555
H9 C12 1_555 1_555
C13 C12 1_555 1_555
H10 C13 1_555 1_555
C14 C13 1_555 1_555
H11 C14 1_555 1_555
C15 C10 1_555 1_555
H12 C15 1_555 1_555
C16 N2 1_555 1_555
H13 C16 1_555 1_555
H14 C16 1_555 1_555
H15 C16 1_555 1_555
N3 C17 1_555 1_555
N4 C17 1_555 1_555
C17 C8 1_555 1_555
C18 N4 1_555 1_555
C19 N3 1_555 1_555
C20 C19 1_555 1_555
H16 C20 1_555 1_555
C21 C20 1_555 1_555
H17 C21 1_555 1_555
C22 C21 1_555 1_555
H18 C22 1_555 1_555
C23 C18 1_555 1_555
H19 C23 1_555 1_555
C24 N3 1_555 1_555
H20 C24 1_555 1_555
H21 C24 1_555 1_555
H22 C24 1_555 1_555
N5 O1 1_555 1_555
O2 Cd1 1_555 1_555
O3 Cd1 1_555 1_555
N6 O4 1_555 1_555
O5 Cd1 1_555 1_555
O6 Cd1 1_555 1_555
O7 Cd1 1_555 1_555
O8 C25 1_555 1_555
C25 H23 1_555 1_555
H24 C25 1_555 1_555
C26 C25 1_555 1_555
H25 C26 1_555 1_555
H26 C26 1_555 1_555
C27 C26 1_555 1_555
H27 C27 1_555 1_555
H28 C27 1_555 1_555
C28 O8 1_555 1_555
H29 C28 1_555 1_555
H30 C28 1_555 1_555
O9 C29 1_555 1_555
C29 H31 1_555 1_555
H32 C29 1_555 1_555
C30 C29 1_555 1_555
H33 C30 1_555 1_555
H34 C30 1_555 1_555
C31 C30 1_555 1_555
H35 C31 1_555 1_555
H36 C31 1_555 1_555
C32 O9 1_555 1_555
H37 C32 1_555 1_555
H38 C32 1_555 1_555
Cd1A N4 1_555 1_555
N4A Cd1 1_555 1_555
C5 C6 1_555 1_555
C10 C11 1_555 1_555
C14 C15 1_555 1_555
C18 C19 1_555 1_555
C22 C23 1_555 1_555
N5 O2 1_555 1_555
N5 O3 1_555 1_555
N6 O5 1_555 1_555
N6 O6 1_555 1_555
C27 C28 1_555 1_555
C31 C32 1_555 1_555

#END
