
#######################################################################
#
#                 Cambridge Crystallographic Data Centre
#                                CCDC 
#
#######################################################################
#
# If this CIF has been generated from an entry in the Cambridge 
# Structural Database, then it will include bibliographic, chemical, 
# crystal, experimental, refinement or atomic coordinate data resulting 
# from the CCDC's data processing and validation procedures.
#
#######################################################################

data_PAQFEU
_symmetry_cell_setting           monoclinic
_symmetry_space_group_name_H-M   'P 21/n'
_symmetry_Int_Tables_number      14
_space_group_name_Hall           '-P 2yn'
loop_
_symmetry_equiv_pos_site_id
_symmetry_equiv_pos_as_xyz
1 x,y,z
2 1/2-x,1/2+y,1/2-z
3 -x,-y,-z
4 1/2+x,1/2-y,1/2+z
_cell_length_a                   9.6978(2)
_cell_length_b                   14.3144(3)
_cell_length_c                   14.9168(3)
_cell_angle_alpha                90
_cell_angle_beta                 101.038(2)
_cell_angle_gamma                90
_cell_volume                     2032.42
loop_
_atom_site_label
_atom_site_type_symbol
_atom_site_fract_x
_atom_site_fract_y
_atom_site_fract_z
H1 H -0.139(4) 0.505(4) 0.163(5)
H2 H 0.004(5) 0.485(4) 0.183(3)
H3 H 0.596(5) 0.503(3) 0.181(3)
H4 H 0.661(6) 0.5805(11) 0.156(4)
Cd1 Cd 0.0000 0.5000 0.0000
Cd2 Cd 0.5000 0.5000 0.0000
O1 O -0.0631(4) 0.5022(3) 0.1418(2)
O2 O 0.6491(3) 0.5224(2) 0.1454(2)
O3 O 0.4458(4) 0.4761(4) 0.2407(3)
O4 O 0.2128(7) 0.4271(6) 0.2298(3)
O5 O 0.2674(10) 0.5794(6) 0.2448(4)
N1 N 0.0059(4) 0.6704(3) 0.0004(2)
N2 N 0.5240(4) 0.3417(3) 0.0439(3)
N3 N 0.6563(5) -0.2947(3) 0.1841(3)
C1 C -0.0501(5) 0.7239(3) -0.0705(3)
H5 H -0.0950 0.6953 -0.1242
C2 C -0.0437(5) 0.8216(3) -0.0668(4)
H6 H -0.0832 0.8569 -0.1176
C3 C 0.0218(5) 0.8658(3) 0.0129(4)
C4 C 0.0821(5) 0.8095(3) 0.0844(4)
H7 H 0.1299 0.8360 0.1384
C5 C 0.0718(5) 0.7147(3) 0.0761(3)
H8 H 0.1129 0.6785 0.1258
C6 C 0.0324(6) 0.9702(4) 0.0278(4)
H9 H 0.0898 0.9920 0.0808
C7 C 0.6486(6) 0.3000(4) 0.0624(4)
H10 H 0.7281 0.3347 0.0582
C8 C 0.6652(7) 0.2064(4) 0.0880(4)
H11 H 0.7543 0.1797 0.1000
C9 C 0.5487(7) 0.1535(4) 0.0953(4)
C10 C 0.4211(7) 0.1982(4) 0.0775(5)
H12 H 0.3399 0.1658 0.0825
C11 C 0.4130(6) 0.2905(4) 0.0523(4)
H13 H 0.3250 0.3187 0.0404
C12 C 0.5473(8) 0.0508(5) 0.1201(4)
H14 H 0.4612 0.0239 0.1236
C13 C 0.6521(8) 0.0006(4) 0.1360(5)
H15 H 0.7395 0.0273 0.1360
C14 C 0.6446(8) -0.1032(4) 0.1557(4)
C15 C 0.5232(7) -0.1536(4) 0.1601(4)
H16 H 0.4365 -0.1239 0.1533
C16 C 0.5352(6) -0.2499(4) 0.1749(4)
H17 H 0.4547 -0.2838 0.1784
C17 C 0.7711(6) -0.2436(4) 0.1824(4)
H18 H 0.8576 -0.2739 0.1914
C18 C 0.7681(7) -0.1499(4) 0.1682(4)
H19 H 0.8511 -0.1177 0.1671
S1 S 0.26816(12) 0.51079(9) 0.07037(7)
S2 S 0.30458(12) 0.49327(9) 0.20952(7)
H1B H 0.139(4) 0.495(4) -0.163(5)
H2B H -0.004(5) 0.515(4) -0.183(3)
H3B H 0.404(5) 0.497(3) -0.181(3)
H4B H 0.339(6) 0.4195(11) -0.156(4)
Cd1_2 Cd 0.0000 1.5000 0.0000
Cd2_2 Cd -0.5000 0.5000 0.0000
O1B O 0.0631(4) 0.4978(3) -0.1418(2)
O2B O 0.3509(3) 0.4776(2) -0.1454(2)
O3B O -0.4458(4) 0.5239(4) -0.2407(3)
O4B O -0.2128(7) 0.5729(6) -0.2298(3)
O5B O -0.2674(10) 0.4206(6) -0.2448(4)
N1B N -0.0059(4) 1.3296(3) -0.0004(2)
N1B_2 N -0.0059(4) 0.3296(3) -0.0004(2)
N2B N 0.4760(4) 0.6583(3) -0.0439(3)
N3B N 0.3437(5) 1.2947(3) -0.1841(3)
C1B C 0.0501(5) 1.2761(3) 0.0705(3)
H5B H 0.0950 1.3047 0.1242
C2B C 0.0437(5) 1.1784(3) 0.0668(4)
H6B H 0.0832 1.1431 0.1176
C3B C -0.0218(5) 1.1342(3) -0.0129(4)
C4B C -0.0821(5) 1.1905(3) -0.0844(4)
H7B H -0.1299 1.1640 -0.1384
C5B C -0.0718(5) 1.2853(3) -0.0761(3)
H8B H -0.1129 1.3215 -0.1258
C6B C -0.0324(6) 1.0298(4) -0.0278(4)
H9B H -0.0898 1.0080 -0.0808
C7B C 0.3514(6) 0.7000(4) -0.0624(4)
H10B H 0.2719 0.6653 -0.0582
C8B C 0.3348(7) 0.7936(4) -0.0880(4)
H11B H 0.2457 0.8203 -0.1000
C9B C 0.4513(7) 0.8465(4) -0.0953(4)
C10B C 0.5789(7) 0.8018(4) -0.0775(5)
H12B H 0.6601 0.8342 -0.0825
C11B C 0.5870(6) 0.7095(4) -0.0523(4)
H13B H 0.6750 0.6813 -0.0404
C12B C 0.4527(8) 0.9492(5) -0.1201(4)
H14B H 0.5388 0.9761 -0.1236
C13B C 0.3479(8) 0.9994(4) -0.1360(5)
H15B H 0.2605 0.9727 -0.1360
C14B C 0.3554(8) 1.1032(4) -0.1557(4)
C15B C 0.4768(7) 1.1536(4) -0.1601(4)
H16B H 0.5635 1.1239 -0.1533
C16B C 0.4648(6) 1.2499(4) -0.1749(4)
H17B H 0.5453 1.2838 -0.1784
C17B C 0.2289(6) 1.2436(4) -0.1824(4)
H18B H 0.1424 1.2739 -0.1914
C18B C 0.2319(7) 1.1499(4) -0.1682(4)
H19B H 0.1489 1.1177 -0.1671
S1B S -0.26816(12) 0.48921(9) -0.07037(7)
S1B_2 S 0.73184(12) 0.48921(9) -0.07037(7)
S2B S -0.30458(12) 0.50673(9) -0.20952(7)
loop_
_geom_bond_atom_site_label_1
_geom_bond_atom_site_label_2
_geom_bond_site_symmetry_1
_geom_bond_site_symmetry_2
H1 O1 1_555 1_555
H2 O1 1_555 1_555
H3 O2 1_555 1_555
H4 O2 1_555 1_555
Cd1 O1 1_555 1_555
Cd2 O2 1_555 1_555
O3 S2 1_555 1_555
O4 S2 1_555 1_555
O5 S2 1_555 1_555
N1 Cd1 1_555 1_555
N2 Cd2 1_555 1_555
N3 C16 1_555 1_555
C1 N1 1_555 1_555
H5 C1 1_555 1_555
C2 C1 1_555 1_555
H6 C2 1_555 1_555
C3 C2 1_555 1_555
C4 C3 1_555 1_555
H7 C4 1_555 1_555
C5 N1 1_555 1_555
H8 C5 1_555 1_555
C6 C3 1_555 1_555
H9 C6 1_555 1_555
C7 N2 1_555 1_555
H10 C7 1_555 1_555
C8 C7 1_555 1_555
H11 C8 1_555 1_555
C9 C8 1_555 1_555
C10 C9 1_555 1_555
H12 C10 1_555 1_555
C11 N2 1_555 1_555
H13 C11 1_555 1_555
C12 C9 1_555 1_555
H14 C12 1_555 1_555
C13 C12 1_555 1_555
H15 C13 1_555 1_555
C14 C13 1_555 1_555
C15 C14 1_555 1_555
H16 C15 1_555 1_555
C16 C15 1_555 1_555
H17 C16 1_555 1_555
C17 N3 1_555 1_555
H18 C17 1_555 1_555
C18 C14 1_555 1_555
H19 C18 1_555 1_555
S1 Cd1 1_555 1_555
S2 S1 1_555 1_555
H1B O1B 1_555 1_555
H2B O1B 1_555 1_555
H3B O2B 1_555 1_555
H4B O2B 1_555 1_555
Cd1_2 N1B 1_555 1_555
Cd2_2 S1B 1_555 1_555
O1B Cd1 1_555 1_555
O2B Cd2 1_555 1_555
O3B S2B 1_555 1_555
O4B S2B 1_555 1_555
O5B S2B 1_555 1_555
N1B C1B 1_555 1_555
N1B_2 Cd1 1_555 1_555
N2B Cd2 1_555 1_555
N3B C16B 1_555 1_555
C1B H5B 1_555 1_555
C2B C1B 1_555 1_555
H6B C2B 1_555 1_555
C3B C2B 1_555 1_555
C4B C3B 1_555 1_555
H7B C4B 1_555 1_555
C5B N1B 1_555 1_555
H8B C5B 1_555 1_555
C6B C6 1_555 1_555
H9B C6B 1_555 1_555
C7B N2B 1_555 1_555
H10B C7B 1_555 1_555
C8B C7B 1_555 1_555
H11B C8B 1_555 1_555
C9B C8B 1_555 1_555
C10B C9B 1_555 1_555
H12B C10B 1_555 1_555
C11B N2B 1_555 1_555
H13B C11B 1_555 1_555
C12B C9B 1_555 1_555
H14B C12B 1_555 1_555
C13B C12B 1_555 1_555
H15B C13B 1_555 1_555
C14B C13B 1_555 1_555
C15B C14B 1_555 1_555
H16B C15B 1_555 1_555
C16B C15B 1_555 1_555
H17B C16B 1_555 1_555
C17B N3B 1_555 1_555
H18B C17B 1_555 1_555
C18B C14B 1_555 1_555
H19B C18B 1_555 1_555
S1B Cd1 1_555 1_555
S1B_2 Cd2 1_555 1_555
S2B S1B 1_555 1_555
Cd2 S1 1_555 1_555
C4 C5 1_555 1_555
C10 C11 1_555 1_555
C17 C18 1_555 1_555
C3B C6B 1_555 1_555
C4B C5B 1_555 1_555
C10B C11B 1_555 1_555
C17B C18B 1_555 1_555

#END
