
#######################################################################
#
#                 Cambridge Crystallographic Data Centre
#                                CCDC 
#
#######################################################################
#
# If this CIF has been generated from an entry in the Cambridge 
# Structural Database, then it will include bibliographic, chemical, 
# crystal, experimental, refinement or atomic coordinate data resulting 
# from the CCDC's data processing and validation procedures.
#
#######################################################################

data_PAQFIY
_symmetry_cell_setting           orthorhombic
_symmetry_space_group_name_H-M   'P b a n'
_symmetry_Int_Tables_number      50
_space_group_name_Hall           '-P 2ab 2b'
loop_
_symmetry_equiv_pos_site_id
_symmetry_equiv_pos_as_xyz
1 x,y,z
2 1/2-x,1/2-y,z
3 1/2-x,y,-z
4 x,1/2-y,-z
5 -x,-y,-z
6 1/2+x,1/2+y,-z
7 1/2+x,-y,z
8 -x,1/2+y,z
_cell_length_a                   14.9328(10)
_cell_length_b                   21.2840(14)
_cell_length_c                   10.4079(7)
_cell_angle_alpha                90
_cell_angle_beta                 90
_cell_angle_gamma                90
_cell_volume                     3307.94
loop_
_atom_site_label
_atom_site_type_symbol
_atom_site_fract_x
_atom_site_fract_y
_atom_site_fract_z
Cd1 Cd 0.2500 0.63323(3) 0.5000
Cd2 Cd 0.02973(5) 0.7500 0.5000
S1 S 0.15849(10) 0.70271(6) 0.35287(14)
S2 S 0.07003(10) 0.63295(7) 0.29284(14)
O1 O 0.0828(4) 0.6243(3) 0.1587(5)
O2 O 0.0915(3) 0.57777(19) 0.3678(5)
O3 O -0.0175(3) 0.6595(2) 0.3267(5)
N1 N 0.1878(3) 0.5720(2) 0.6532(5)
N2 N 0.0189(3) 0.3203(2) 1.3527(5)
C1 C 0.1626(4) 0.5125(3) 0.6266(6)
H1 H 0.1626 0.4989 0.5416
C2 C 0.1370(5) 0.4712(3) 0.7218(7)
H2 H 0.1207 0.4304 0.7001
C3 C 0.1351(4) 0.4896(3) 0.8482(6)
C4 C 0.1591(5) 0.5513(3) 0.8744(6)
H3 H 0.1575 0.5664 0.9582
C5 C 0.1855(4) 0.5904(3) 0.7740(6)
H4 H 0.2022 0.6315 0.7931
C6 C 0.0454(5) 0.3788(3) 1.3839(6)
H5 H 0.0468 0.3903 1.4701
C7 C 0.0707(5) 0.4225(3) 1.2918(7)
H6 H 0.0879 0.4626 1.3174
C8 C 0.0708(4) 0.4078(3) 1.1664(6)
C9 C 0.0412(5) 0.3478(3) 1.1325(7)
H7 H 0.0381 0.3360 1.0466
C10 C 0.0166(5) 0.3060(3) 1.2290(6)
H8 H -0.0024 0.2660 1.2054
C11 C 0.1073(4) 0.4437(3) 0.9467(7)
H9 H 0.0934 0.4034 0.9184
C12 C 0.1005(5) 0.4545(3) 1.0701(7)
H10 H 0.1154 0.4944 1.0995
Cd2D Cd -0.02973(5) 0.2500 1.5000
Cd2A Cd 0.47027(5) 0.7500 0.5000
Cd2E Cd 0.52973(5) 0.2500 -0.5000
S1B S 0.34151(10) 0.70271(6) 0.64713(14)
S1C S 0.15849(10) 0.79729(6) 0.64713(14)
S2B S 0.42997(10) 0.63295(7) 0.70716(14)
O1B O 0.4172(4) 0.6243(3) 0.8413(5)
O2B O 0.4085(3) 0.57777(19) 0.6322(5)
O3B O 0.5175(3) 0.6595(2) 0.6733(5)
N1B N 0.3122(3) 0.5720(2) 0.3468(5)
N2B N 0.4811(3) 0.3203(2) -0.3527(5)
N2D N -0.0189(3) 0.6797(2) 0.6473(5)
N2G N -0.0189(3) 0.8203(2) 0.3527(5)
C1B C 0.3374(4) 0.5125(3) 0.3734(6)
H1B H 0.3374 0.4989 0.4584
C2B C 0.3630(5) 0.4712(3) 0.2782(7)
H2B H 0.3793 0.4304 0.2999
C3B C 0.3649(4) 0.4896(3) 0.1518(6)
C4B C 0.3409(5) 0.5513(3) 0.1256(6)
H3B H 0.3425 0.5664 0.0418
C5B C 0.3145(4) 0.5904(3) 0.2260(6)
H4B H 0.2978 0.6315 0.2069
C6B C 0.4546(5) 0.3788(3) -0.3839(6)
H5B H 0.4532 0.3903 -0.4701
C7B C 0.4293(5) 0.4225(3) -0.2918(7)
H6B H 0.4121 0.4626 -0.3174
C8B C 0.4292(4) 0.4078(3) -0.1664(6)
C9B C 0.4588(5) 0.3478(3) -0.1325(7)
H7B H 0.4619 0.3360 -0.0466
C10B C 0.4834(5) 0.3060(3) -0.2290(6)
H8B H 0.5024 0.2660 -0.2054
C11B C 0.3927(4) 0.4437(3) 0.0533(7)
H9B H 0.4066 0.4034 0.0816
C12B C 0.3995(5) 0.4545(3) -0.0701(7)
H10B H 0.3846 0.4944 -0.0995
loop_
_geom_bond_atom_site_label_1
_geom_bond_atom_site_label_2
_geom_bond_site_symmetry_1
_geom_bond_site_symmetry_2
Cd1 S1 1_555 1_555
Cd2 S1 1_555 1_555
S1 S2 1_555 1_555
S2 O1 1_555 1_555
O2 S2 1_555 1_555
O3 S2 1_555 1_555
N1 Cd1 1_555 1_555
N2 C6 1_555 1_555
C1 N1 1_555 1_555
H1 C1 1_555 1_555
C2 C1 1_555 1_555
H2 C2 1_555 1_555
C3 C2 1_555 1_555
C4 C3 1_555 1_555
H3 C4 1_555 1_555
C5 N1 1_555 1_555
H4 C5 1_555 1_555
C6 H5 1_555 1_555
C7 C6 1_555 1_555
H6 C7 1_555 1_555
C8 C7 1_555 1_555
C9 C8 1_555 1_555
H7 C9 1_555 1_555
C10 N2 1_555 1_555
H8 C10 1_555 1_555
C11 C3 1_555 1_555
H9 C11 1_555 1_555
C12 C8 1_555 1_555
H10 C12 1_555 1_555
Cd2D N2 1_555 1_555
Cd2A S1B 1_555 1_555
Cd2E N2B 1_555 1_555
S1B Cd1 1_555 1_555
S1C Cd2 1_555 1_555
S2B S1B 1_555 1_555
O1B S2B 1_555 1_555
O2B S2B 1_555 1_555
O3B S2B 1_555 1_555
N1B Cd1 1_555 1_555
N2B C6B 1_555 1_555
N2D Cd2 1_555 1_555
N2G Cd2 1_555 1_555
C1B N1B 1_555 1_555
H1B C1B 1_555 1_555
C2B C1B 1_555 1_555
H2B C2B 1_555 1_555
C3B C2B 1_555 1_555
C4B C3B 1_555 1_555
H3B C4B 1_555 1_555
C5B N1B 1_555 1_555
H4B C5B 1_555 1_555
C6B H5B 1_555 1_555
C7B C6B 1_555 1_555
H6B C7B 1_555 1_555
C8B C7B 1_555 1_555
C9B C8B 1_555 1_555
H7B C9B 1_555 1_555
C10B N2B 1_555 1_555
H8B C10B 1_555 1_555
C11B C3B 1_555 1_555
H9B C11B 1_555 1_555
C12B C8B 1_555 1_555
H10B C12B 1_555 1_555
C4 C5 1_555 1_555
C9 C10 1_555 1_555
C11 C12 1_555 1_555
C4B C5B 1_555 1_555
C9B C10B 1_555 1_555
C11B C12B 1_555 1_555

#END
