
#######################################################################
#
#                 Cambridge Crystallographic Data Centre
#                                CCDC 
#
#######################################################################
#
# If this CIF has been generated from an entry in the Cambridge 
# Structural Database, then it will include bibliographic, chemical, 
# crystal, experimental, refinement or atomic coordinate data resulting 
# from the CCDC's data processing and validation procedures.
#
#######################################################################

data_PAQHUL
_symmetry_cell_setting           tetragonal
_symmetry_space_group_name_H-M   'I 41/a'
_symmetry_Int_Tables_number      88
_space_group_name_Hall           '-I 4ad'
loop_
_symmetry_equiv_pos_site_id
_symmetry_equiv_pos_as_xyz
1 x,y,z
2 3/4-y,1/4+x,1/4+z
3 1/2+x,1/2+y,1/2+z
4 1/4-y,3/4+x,3/4+z
5 1/4+y,1/4-x,1/4+z
6 1/2-x,-y,1/2+z
7 3/4+y,3/4-x,3/4+z
8 -x,1/2-y,z
9 -x,-y,-z
10 1/4+y,3/4-x,3/4-z
11 1/2-x,1/2-y,1/2-z
12 3/4+y,1/4-x,1/4-z
13 3/4-y,3/4+x,3/4-z
14 1/2+x,y,1/2-z
15 1/4-y,1/4+x,1/4-z
16 x,1/2+y,-z
_cell_length_a                   12.2079(3)
_cell_length_b                   12.2079(3)
_cell_length_c                   38.3284(6)
_cell_angle_alpha                90
_cell_angle_beta                 90
_cell_angle_gamma                90
_cell_volume                     5712.19
loop_
_atom_site_label
_atom_site_type_symbol
_atom_site_fract_x
_atom_site_fract_y
_atom_site_fract_z
Cd1 Cd 0.0000 0.2500 0.1250
Cd2 Cd 0.0000 0.2500 -0.3750
Be1 Be 0.0000 0.2500 -0.122(2)
O1 O -0.0563(19) 0.3474(17) -0.1018(6)
O2 O -0.080(2) 0.194(2) -0.1530(7)
O3 O 0.0208(7) 0.4402(6) 0.1277(2)
H1 H 0.0868 0.4559 0.1327
O4 O 0.0384(6) 0.0634(6) -0.3745(2)
H2 H 0.0153 0.0347 -0.3557
N1 N 0.0000 0.2500 0.0659(13)
N2 N 0.0000 0.2500 -0.3145(11)
C1 C -0.113(3) 0.417(3) -0.0455(10)
H3 H -0.1516 0.4597 -0.0628
H4 H -0.0595 0.4612 -0.0338
H5 H -0.1630 0.3903 -0.0281
C2 C -0.054(3) 0.334(3) -0.0643(10)
C3 C 0.0000 0.2500 -0.0505(19)
C4 C 0.0000 0.2500 -0.0051(12)
C5 C -0.093(3) 0.2122(19) 0.0120(8)
H6 H -0.1562 0.1929 -0.0017
C6 C -0.094(2) 0.2019(19) 0.0471(7)
H7 H -0.1540 0.1650 0.0583
C7 C -0.188(3) 0.150(3) -0.2011(10)
H8 H -0.2289 0.1046 -0.1855
H9 H -0.1626 0.1050 -0.2200
H10 H -0.2369 0.2051 -0.2100
C8 C -0.0840(13) 0.198(2) -0.1828(7)
C9 C 0.0000 0.2500 -0.2047(17)
C10 C 0.0000 0.2500 -0.2380(11)
C11 C 0.040(2) 0.166(3) -0.2587(8)
H11 H 0.0729 0.1026 -0.2480
C12 C 0.0262(17) 0.169(2) -0.2963(8)
H12 H 0.0415 0.1040 -0.3095
H13 H -0.0023 0.0285 -0.3952
H14 H -0.0003 0.4747 0.1046
Cd1_2 Cd 0.0000 0.2500 -0.8750
Be1K Be 0.0000 0.2500 -0.628(2)
O1G O 0.0563(19) 0.1526(17) -0.1018(6)
O1N O -0.0974(17) 0.1937(19) -0.6482(6)
O1K O 0.0974(17) 0.3063(19) -0.6482(6)
O2G O 0.080(2) 0.306(2) -0.1530(7)
O2N O 0.056(2) 0.170(2) -0.5970(7)
O2K O -0.056(2) 0.330(2) -0.5970(7)
O3N O -0.1902(6) 0.2708(7) 0.1223(2)
O3K O 0.1902(6) 0.2292(7) 0.1223(2)
O3G O -0.0208(7) 0.0598(6) 0.1277(2)
H1N H -0.2059 0.3368 0.1173
H1K H 0.2059 0.1632 0.1173
H1G H -0.0868 0.0441 0.1327
O4N O 0.1866(6) 0.2884(6) -0.3755(2)
O4K O -0.1866(6) 0.2116(6) -0.3755(2)
O4G O -0.0384(6) 0.4366(6) -0.3745(2)
H2N H 0.2153 0.2653 -0.3943
H2K H -0.2153 0.2347 -0.3943
H2G H -0.0153 0.4653 -0.3557
N1K N 0.0000 0.2500 -0.8159(13)
N1K_2 N 0.0000 0.2500 0.1841(13)
N2K N 0.0000 0.2500 -0.4355(11)
C1G C 0.113(3) 0.083(3) -0.0455(10)
C1N C -0.167(3) 0.137(3) -0.7045(10)
C1K C 0.167(3) 0.363(3) -0.7045(10)
H3G H 0.1516 0.0403 -0.0628
H3N H -0.2097 0.0984 -0.6872
H3K H 0.2097 0.4016 -0.6872
H4G H 0.0595 0.0388 -0.0338
H4N H -0.2112 0.1905 -0.7162
H4K H 0.2112 0.3095 -0.7162
H5G H 0.1630 0.1097 -0.0281
H5N H -0.1403 0.0870 -0.7219
H5K H 0.1403 0.4130 -0.7219
C2G C 0.054(3) 0.166(3) -0.0643(10)
C2N C -0.084(3) 0.196(3) -0.6857(10)
C2K C 0.084(3) 0.304(3) -0.6857(10)
C3K C 0.0000 0.2500 -0.6995(19)
C4K C 0.0000 0.2500 -0.7449(12)
C5N C 0.0378(19) 0.157(3) -0.7620(8)
C5K C -0.0378(19) 0.343(3) -0.7620(8)
C5G C 0.093(3) 0.2878(19) 0.0120(8)
H6N H 0.0571 0.0938 -0.7483
H6K H -0.0571 0.4062 -0.7483
H6G H 0.1562 0.3071 -0.0017
C6N C 0.0481(19) 0.156(2) -0.7971(7)
C6K C -0.0481(19) 0.344(2) -0.7971(7)
C6G C 0.094(2) 0.2981(19) 0.0471(7)
H7K H -0.0850 0.4040 -0.8083
H7N H 0.0850 0.0960 -0.8083
H7G H 0.1540 0.3350 0.0583
C7G C 0.188(3) 0.350(3) -0.2011(10)
C7K C -0.100(3) 0.438(3) -0.5489(10)
C7N C 0.100(3) 0.062(3) -0.5489(10)
H8G H 0.2289 0.3954 -0.1855
H8K H -0.1454 0.4789 -0.5645
H8N H 0.1454 0.0211 -0.5645
H9G H 0.1626 0.3950 -0.2200
H9K H -0.1450 0.4126 -0.5300
H9N H 0.1450 0.0874 -0.5300
H10G H 0.2369 0.2949 -0.2100
H10K H -0.0449 0.4869 -0.5400
H10N H 0.0449 0.0131 -0.5400
C8G C 0.0840(13) 0.302(2) -0.1828(7)
C8N C 0.052(2) 0.1660(13) -0.5672(7)
C8K C -0.052(2) 0.3340(13) -0.5672(7)
C9K C 0.0000 0.2500 -0.5453(17)
C10K C 0.0000 0.2500 -0.5120(11)
C11N C 0.084(3) 0.290(2) -0.4913(8)
C11K C -0.084(3) 0.210(2) -0.4913(8)
C11G C -0.040(2) 0.334(3) -0.2587(8)
H11K H -0.1474 0.1771 -0.5020
H11N H 0.1474 0.3229 -0.5020
H11G H -0.0729 0.3974 -0.2480
C12N C 0.081(2) 0.2762(17) -0.4537(8)
C12K C -0.081(2) 0.2238(17) -0.4537(8)
C12G C -0.0262(17) 0.331(2) -0.2963(8)
H12K H -0.1460 0.2085 -0.4405
H12N H 0.1460 0.2915 -0.4405
H12G H -0.0415 0.3960 -0.3095
H13N H 0.2215 0.2477 -0.3548
H13K H -0.2215 0.2523 -0.3548
H13G H 0.0023 0.4715 -0.3952
H14N H -0.2247 0.2497 0.1454
H14K H 0.2247 0.2503 0.1454
H14G H 0.0003 0.0253 0.1046
Cl1 Cl 0.76858(19) 0.5159(2) 0.06421(5)
O5 O 0.7622(7) 0.6277(6) 0.0748(2)
O6 O 0.734(2) 0.505(3) 0.02953(19)
O7 O 0.8801(5) 0.4781(6) 0.0663(2)
O8 O 0.7003(6) 0.4474(7) 0.0871(2)
loop_
_geom_bond_atom_site_label_1
_geom_bond_atom_site_label_2
_geom_bond_site_symmetry_1
_geom_bond_site_symmetry_2
Cd1 O3 1_555 1_555
Cd2 O4 1_555 1_555
Be1 O1 1_555 1_555
O1 C2 1_555 1_555
O2 Be1 1_555 1_555
O3 H1 1_555 1_555
O4 H2 1_555 1_555
N1 Cd1 1_555 1_555
N2 Cd2 1_555 1_555
C1 H3 1_555 1_555
H4 C1 1_555 1_555
H5 C1 1_555 1_555
C2 C1 1_555 1_555
C3 C2 1_555 1_555
C4 C3 1_555 1_555
C5 C4 1_555 1_555
H6 C5 1_555 1_555
C6 N1 1_555 1_555
H7 C6 1_555 1_555
C7 H8 1_555 1_555
H9 C7 1_555 1_555
H10 C7 1_555 1_555
C8 O2 1_555 1_555
C9 C8 1_555 1_555
C10 C9 1_555 1_555
C11 C10 1_555 1_555
H11 C11 1_555 1_555
C12 N2 1_555 1_555
H12 C12 1_555 1_555
H13 O4 1_555 1_555
H14 O3 1_555 1_555
Cl1 O5 1_555 1_555
O6 Cl1 1_555 1_555
O7 Cl1 1_555 1_555
O8 Cl1 1_555 1_555
Cd1_2 N1K 1_555 1_555
Be1K O1N 1_555 1_555
O1G Be1 1_555 1_555
O1N C2N 1_555 1_555
O1K Be1K 1_555 1_555
O2G Be1 1_555 1_555
O2N Be1K 1_555 1_555
O2K Be1K 1_555 1_555
O3N Cd1 1_555 1_555
O3K Cd1 1_555 1_555
O3G Cd1 1_555 1_555
H1N O3N 1_555 1_555
H1K O3K 1_555 1_555
H1G O3G 1_555 1_555
O4N Cd2 1_555 1_555
O4K Cd2 1_555 1_555
O4G Cd2 1_555 1_555
H2N O4N 1_555 1_555
H2K O4K 1_555 1_555
H2G O4G 1_555 1_555
N1K C6N 1_555 1_555
N1K_2 Cd1 1_555 1_555
N2K Cd2 1_555 1_555
C1G H3G 1_555 1_555
C1N H3N 1_555 1_555
C1K H3K 1_555 1_555
H4G C1G 1_555 1_555
H4N C1N 1_555 1_555
H4K C1K 1_555 1_555
H5G C1G 1_555 1_555
H5N C1N 1_555 1_555
H5K C1K 1_555 1_555
C2G C3 1_555 1_555
C2N C1N 1_555 1_555
C2K O1K 1_555 1_555
C3K C2N 1_555 1_555
C4K C3K 1_555 1_555
C5N C4K 1_555 1_555
C5K C4K 1_555 1_555
C5G C4 1_555 1_555
H6N C5N 1_555 1_555
H6K C5K 1_555 1_555
H6G C5G 1_555 1_555
C6N C5N 1_555 1_555
C6K N1K 1_555 1_555
C6G N1 1_555 1_555
H7K C6K 1_555 1_555
H7N C6N 1_555 1_555
H7G C6G 1_555 1_555
C7G H8G 1_555 1_555
C7K H8K 1_555 1_555
C7N H8N 1_555 1_555
H9G C7G 1_555 1_555
H9K C7K 1_555 1_555
H9N C7N 1_555 1_555
H10G C7G 1_555 1_555
H10K C7K 1_555 1_555
H10N C7N 1_555 1_555
C8G C9 1_555 1_555
C8N O2N 1_555 1_555
C8K O2K 1_555 1_555
C9K C8N 1_555 1_555
C10K C9K 1_555 1_555
C11N C10K 1_555 1_555
C11K C10K 1_555 1_555
C11G C10 1_555 1_555
H11K C11K 1_555 1_555
H11N C11N 1_555 1_555
H11G C11G 1_555 1_555
C12N N2K 1_555 1_555
C12K N2K 1_555 1_555
C12G N2 1_555 1_555
H12K C12K 1_555 1_555
H12N C12N 1_555 1_555
H12G C12G 1_555 1_555
H13N O4N 1_555 1_555
H13K O4K 1_555 1_555
H13G O4G 1_555 1_555
H14N O3N 1_555 1_555
H14K O3K 1_555 1_555
H14G O3G 1_555 1_555
C5 C6 1_555 1_555
C7 C8 1_555 1_555
C11 C12 1_555 1_555
O1G C2G 1_555 1_555
O2G C8G 1_555 1_555
C1G C2G 1_555 1_555
C1K C2K 1_555 1_555
C2K C3K 1_555 1_555
C5K C6K 1_555 1_555
C5G C6G 1_555 1_555
C7G C8G 1_555 1_555
C7K C8K 1_555 1_555
C7N C8N 1_555 1_555
C8K C9K 1_555 1_555
C11N C12N 1_555 1_555
C11K C12K 1_555 1_555
C11G C12G 1_555 1_555

#END
