
#######################################################################
#
#                 Cambridge Crystallographic Data Centre
#                                CCDC 
#
#######################################################################
#
# If this CIF has been generated from an entry in the Cambridge 
# Structural Database, then it will include bibliographic, chemical, 
# crystal, experimental, refinement or atomic coordinate data resulting 
# from the CCDC's data processing and validation procedures.
#
#######################################################################

data_PAQHIZ
_symmetry_cell_setting           triclinic
_symmetry_space_group_name_H-M   'P -1'
_symmetry_Int_Tables_number      2
_space_group_name_Hall           '-P 1'
loop_
_symmetry_equiv_pos_site_id
_symmetry_equiv_pos_as_xyz
1 x,y,z
2 -x,-y,-z
_cell_length_a                   7.16260(10)
_cell_length_b                   11.8788(2)
_cell_length_c                   16.0524(3)
_cell_angle_alpha                78.8040(10)
_cell_angle_beta                 77.7260(10)
_cell_angle_gamma                76.9240(10)
_cell_volume                     1284.57
loop_
_atom_site_label
_atom_site_type_symbol
_atom_site_fract_x
_atom_site_fract_y
_atom_site_fract_z
Cd1 Cd 0.464097(14) 0.252261(9) 1.022361(6)
Be1 Be -0.6136(3) 0.27260(19) 1.49481(13)
S1 S 0.71140(6) 0.06612(3) 1.09890(3)
S2 S 0.23930(6) 0.42652(3) 0.92489(3)
O1 O -0.51273(17) 0.37925(10) 1.44253(7)
O2 O -0.52557(19) 0.16679(11) 1.44044(8)
O3 O 1.44006(15) 0.23505(10) 0.59026(7)
O4 O 1.15406(17) 0.30973(12) 0.50717(7)
N1 N 0.21511(19) 0.25153(12) 1.14452(8)
N2 N 0.71228(19) 0.25454(12) 0.90099(9)
N3 N 0.66774(19) -0.12236(11) 1.02723(9)
N4 N 0.4108(2) 0.61549(12) 0.92870(9)
C1 C -0.2840(3) 0.47626(17) 1.34614(15)
H1 H -0.373(5) 0.540(3) 1.364(2)
H2 H -0.259(4) 0.488(2) 1.2834(18)
H3 H -0.170(5) 0.469(3) 1.364(2)
C2 C -0.3629(2) 0.36701(14) 1.38321(10)
C3 C -0.2771(2) 0.26031(13) 1.35273(9)
C4 C -0.3709(3) 0.16405(14) 1.38309(10)
C5 C -0.2963(4) 0.05030(18) 1.34913(16)
H4 H -0.330(5) -0.009(3) 1.391(2)
H5 H -0.150(5) 0.032(3) 1.337(2)
H6 H -0.327(5) 0.048(3) 1.300(3)
C6 C 0.2318(2) 0.26626(19) 1.22333(11)
H7 H 0.357(4) 0.277(2) 1.2317(16)
C7 C 0.0794(3) 0.26766(19) 1.29313(11)
H8 H 0.107(4) 0.275(2) 1.3475(17)
C8 C -0.1028(2) 0.25458(13) 1.28249(9)
C9 C -0.1184(2) 0.23942(14) 1.20075(10)
H9 H -0.235(4) 0.232(2) 1.1906(15)
C10 C 0.0413(2) 0.23801(15) 1.13442(10)
H10 H 0.028(3) 0.229(2) 1.0800(15)
C11 C 1.3908(3) 0.20290(17) 0.74226(11)
H11 H 1.355(6) 0.136(4) 0.770(3)
H12 H 1.328(5) 0.254(3) 0.782(2)
H13 H 1.523(6) 0.187(4) 0.734(3)
C12 C 1.3131(2) 0.23637(12) 0.65975(9)
C13 C 1.1112(2) 0.26916(13) 0.65963(9)
C14 C 1.0425(2) 0.30702(15) 0.58106(11)
C15 C 0.8297(3) 0.3497(3) 0.57903(16)
H14 H 0.756(5) 0.325(3) 0.630(3)
H15 H 0.801(6) 0.308(4) 0.544(3)
H16 H 0.801(5) 0.419(3) 0.546(2)
C16 C 0.7696(3) 0.35429(16) 0.86211(13)
H17 H 0.718(4) 0.421(2) 0.8926(17)
C17 C 0.8981(3) 0.36255(16) 0.78430(13)
H18 H 0.937(4) 0.434(2) 0.7619(18)
C18 C 0.9733(2) 0.26470(13) 0.74356(10)
C19 C 0.9154(2) 0.16100(14) 0.78551(10)
H19 H 0.964(3) 0.092(2) 0.7614(15)
C20 C 0.7861(2) 0.15942(14) 0.86329(10)
H20 H 0.747(3) 0.088(2) 0.8921(15)
C21 C 0.6838(2) -0.04343(13) 1.05622(9)
C22 C 0.3395(2) 0.53678(13) 0.92817(10)
Cd1A Cd 0.535903(14) -0.252261(9) 0.977639(6)
Cd1A_2 Cd 0.535903(14) 0.747739(9) 0.977639(6)
Be1_2 Be 1.3864(3) 0.27260(19) 0.49481(13)
O3_2 O -0.55994(15) 0.23505(10) 1.59026(7)
O4_2 O -0.84594(17) 0.30973(12) 1.50717(7)
N3A N 0.33226(19) 0.12236(11) 0.97277(9)
N4A N 0.5892(2) 0.38451(12) 1.07130(9)
O5 O -0.1782(10) 0.0597(7) 1.6122(5)
C23 C -0.147(2) 0.0050(7) 1.5545(8)
loop_
_geom_bond_atom_site_label_1
_geom_bond_atom_site_label_2
_geom_bond_site_symmetry_1
_geom_bond_site_symmetry_2
Cd1 S1 1_555 1_555
Be1 O1 1_555 1_555
S1 C21 1_555 1_555
S2 Cd1 1_555 1_555
O1 C2 1_555 1_555
O2 Be1 1_555 1_555
O3 C12 1_555 1_555
O4 C14 1_555 1_555
N1 Cd1 1_555 1_555
N2 Cd1 1_555 1_555
N3 C21 1_555 1_555
N4 C22 1_555 1_555
C1 H1 1_555 1_555
H2 C1 1_555 1_555
H3 C1 1_555 1_555
C2 C1 1_555 1_555
C3 C2 1_555 1_555
C4 O2 1_555 1_555
C5 C4 1_555 1_555
H4 C5 1_555 1_555
H5 C5 1_555 1_555
H6 C5 1_555 1_555
C6 N1 1_555 1_555
H7 C6 1_555 1_555
C7 C6 1_555 1_555
H8 C7 1_555 1_555
C8 C3 1_555 1_555
C9 C8 1_555 1_555
H9 C9 1_555 1_555
C10 N1 1_555 1_555
H10 C10 1_555 1_555
C11 H11 1_555 1_555
H12 C11 1_555 1_555
H13 C11 1_555 1_555
C12 C11 1_555 1_555
C13 C12 1_555 1_555
C14 C13 1_555 1_555
C15 C14 1_555 1_555
H14 C15 1_555 1_555
H15 C15 1_555 1_555
H16 C15 1_555 1_555
C16 N2 1_555 1_555
H17 C16 1_555 1_555
C17 C16 1_555 1_555
H18 C17 1_555 1_555
C18 C13 1_555 1_555
C19 C18 1_555 1_555
H19 C19 1_555 1_555
C20 N2 1_555 1_555
H20 C20 1_555 1_555
C22 S2 1_555 1_555
O5 C23 1_555 1_555
Cd1A N3 1_555 1_555
Cd1A_2 N4 1_555 1_555
Be1_2 O3 1_555 1_555
O3_2 Be1 1_555 1_555
O4_2 Be1 1_555 1_555
N3A Cd1 1_555 1_555
N4A Cd1 1_555 1_555
O4 Be1_2 1_555 1_555
C3 C4 1_555 1_555
C7 C8 1_555 1_555
C9 C10 1_555 1_555
C17 C18 1_555 1_555
C19 C20 1_555 1_555

#END
