
#######################################################################
#
#                 Cambridge Crystallographic Data Centre
#                                CCDC 
#
#######################################################################
#
# If this CIF has been generated from an entry in the Cambridge 
# Structural Database, then it will include bibliographic, chemical, 
# crystal, experimental, refinement or atomic coordinate data resulting 
# from the CCDC's data processing and validation procedures.
#
#######################################################################

data_PAQHOF
_symmetry_cell_setting           tetragonal
_symmetry_space_group_name_H-M   'I 41/a'
_symmetry_Int_Tables_number      88
_space_group_name_Hall           '-I 4ad'
loop_
_symmetry_equiv_pos_site_id
_symmetry_equiv_pos_as_xyz
1 x,y,z
2 3/4-y,1/4+x,1/4+z
3 1/2+x,1/2+y,1/2+z
4 1/4-y,3/4+x,3/4+z
5 1/4+y,1/4-x,1/4+z
6 1/2-x,-y,1/2+z
7 3/4+y,3/4-x,3/4+z
8 -x,1/2-y,z
9 -x,-y,-z
10 1/4+y,3/4-x,3/4-z
11 1/2-x,1/2-y,1/2-z
12 3/4+y,1/4-x,1/4-z
13 3/4-y,3/4+x,3/4-z
14 1/2+x,y,1/2-z
15 1/4-y,1/4+x,1/4-z
16 x,1/2+y,-z
_cell_length_a                   12.1635(5)
_cell_length_b                   12.1635(5)
_cell_length_c                   37.414(2)
_cell_angle_alpha                90
_cell_angle_beta                 90
_cell_angle_gamma                90
_cell_volume                     5535.43
loop_
_atom_site_label
_atom_site_type_symbol
_atom_site_fract_x
_atom_site_fract_y
_atom_site_fract_z
Zn1 Zn 0.0000 0.2500 0.1250
Zn2 Zn 0.0000 0.2500 -0.3750
Be1 Be 0.0000 0.2500 -0.12395(7)
O1 O 0.02676(17) 0.42552(12) 0.12419(3)
O2 O 0.01941(16) 0.07517(12) -0.37689(3)
O3 O -0.06029(10) 0.33782(10) -0.09820(3)
O4 O -0.08885(10) 0.19164(11) -0.14969(3)
N1 N 0.0000 0.2500 0.06943(5)
N2 N 0.0000 0.2500 -0.31798(5)
C1 C -0.08655(13) 0.21183(14) 0.05091(4)
H1 H -0.153(2) 0.183(2) 0.0646(6)
C2 C -0.08942(14) 0.21007(14) 0.01376(4)
H2 H -0.153(2) 0.180(2) 0.0020(7)
C3 C 0.0000 0.2500 -0.00557(6)
C4 C 0.0000 0.2500 -0.04529(6)
C5 C -0.05748(13) 0.33193(13) -0.06395(4)
C6 C -0.11925(17) 0.41989(15) -0.04418(5)
H3 H -0.157(2) 0.465(2) -0.0614(8)
H4 H -0.071(2) 0.459(2) -0.0314(7)
H5 H -0.171(3) 0.387(3) -0.0278(9)
C7 C -0.08421(14) 0.19635(14) -0.18388(4)
C8 C 0.0000 0.2500 -0.20271(6)
C9 C -0.1772(2) 0.1422(2) -0.20358(6)
H6 H -0.219(3) 0.092(3) -0.1865(8)
H7 H -0.151(3) 0.096(3) -0.2207(9)
H8 H -0.220(3) 0.196(3) -0.2151(10)
C10 C 0.0000 0.2500 -0.24264(6)
C11 C 0.04374(15) 0.16283(15) -0.26207(4)
H9 H 0.075(2) 0.100(2) -0.2499(7)
C12 C 0.04166(15) 0.16568(15) -0.29927(4)
H10 H 0.0704(19) 0.1013(19) -0.3129(6)
H11 H -0.0334(19) 0.4320(18) 0.1213(5)
H12 H 0.091(3) 0.471(3) 0.1359(10)
H13 H -0.0414(18) 0.0617(16) -0.3739(4)
H14 H 0.081(3) 0.032(3) -0.3895(11)
Zn1_2 Zn 0.0000 0.2500 -0.8750
Be1K Be 0.0000 0.2500 -0.62605(7)
O1N O -0.17552(12) 0.27676(17) 0.12581(3)
O1K O 0.17552(12) 0.22324(17) 0.12581(3)
O1G O -0.02676(17) 0.07448(12) 0.12419(3)
O2N O 0.17483(12) 0.26941(16) -0.37311(3)
O2K O -0.17483(12) 0.23059(16) -0.37311(3)
O2G O -0.01941(16) 0.42483(12) -0.37689(3)
O3G O 0.06029(10) 0.16218(10) -0.09820(3)
O3N O -0.08782(10) 0.18971(10) -0.65180(3)
O3K O 0.08782(10) 0.31029(10) -0.65180(3)
O4G O 0.08885(10) 0.30836(11) -0.14969(3)
O4N O 0.05836(11) 0.16115(10) -0.60031(3)
O4K O -0.05836(11) 0.33885(10) -0.60031(3)
N1K N 0.0000 0.2500 -0.81943(5)
N1K_2 N 0.0000 0.2500 0.18057(5)
N2K N 0.0000 0.2500 -0.43202(5)
C1G C 0.08655(13) 0.28817(14) 0.05091(4)
C1N C 0.03817(14) 0.16345(13) -0.80091(4)
C1K C -0.03817(14) 0.33655(13) -0.80091(4)
H1G H 0.153(2) 0.317(2) 0.0646(6)
H1K H -0.067(2) 0.403(2) -0.8146(6)
H1N H 0.067(2) 0.097(2) -0.8146(6)
C2G C 0.08942(14) 0.28993(14) 0.01376(4)
C2N C 0.03993(14) 0.16058(14) -0.76376(4)
C2K C -0.03993(14) 0.33942(14) -0.76376(4)
H2G H 0.153(2) 0.320(2) 0.0020(7)
H2K H -0.070(2) 0.403(2) -0.7520(7)
H2N H 0.070(2) 0.097(2) -0.7520(7)
C3K C 0.0000 0.2500 -0.74443(6)
C4K C 0.0000 0.2500 -0.70471(6)
C5G C 0.05748(13) 0.16807(13) -0.06395(4)
C5N C -0.08193(13) 0.19252(13) -0.68605(4)
C5K C 0.08193(13) 0.30748(13) -0.68605(4)
C6G C 0.11925(17) 0.08011(15) -0.04418(5)
C6K C 0.16989(15) 0.36925(17) -0.70582(5)
C6N C -0.16989(15) 0.13075(17) -0.70582(5)
H3G H 0.157(2) 0.035(2) -0.0614(8)
H3K H 0.215(2) 0.407(2) -0.6886(8)
H3N H -0.215(2) 0.093(2) -0.6886(8)
H4G H 0.071(2) 0.041(2) -0.0314(7)
H4K H 0.209(2) 0.321(2) -0.7186(7)
H4N H -0.209(2) 0.179(2) -0.7186(7)
H5G H 0.171(3) 0.113(3) -0.0278(9)
H5K H 0.137(3) 0.421(3) -0.7222(9)
H5N H -0.137(3) 0.079(3) -0.7222(9)
C7G C 0.08421(14) 0.30365(14) -0.18388(4)
C7N C 0.05365(14) 0.16579(14) -0.56612(4)
C7K C -0.05365(14) 0.33421(14) -0.56612(4)
C8K C 0.0000 0.2500 -0.54729(6)
C9G C 0.1772(2) 0.3578(2) -0.20358(6)
C9K C -0.1078(2) 0.4272(2) -0.54642(6)
C9N C 0.1078(2) 0.0728(2) -0.54642(6)
H6G H 0.219(3) 0.408(3) -0.1865(8)
H6K H -0.158(3) 0.469(3) -0.5635(8)
H6N H 0.158(3) 0.031(3) -0.5635(8)
H7G H 0.151(3) 0.404(3) -0.2207(9)
H7K H -0.154(3) 0.401(3) -0.5293(9)
H7N H 0.154(3) 0.099(3) -0.5293(9)
H8G H 0.220(3) 0.304(3) -0.2151(10)
H8K H -0.054(3) 0.470(3) -0.5349(10)
H8N H 0.054(3) 0.030(3) -0.5349(10)
C10K C 0.0000 0.2500 -0.50736(6)
C11N C 0.08717(15) 0.29374(15) -0.48793(4)
C11K C -0.08717(15) 0.20626(15) -0.48793(4)
C11G C -0.04374(15) 0.33717(15) -0.26207(4)
H9K H -0.150(2) 0.175(2) -0.5001(7)
H9N H 0.150(2) 0.325(2) -0.5001(7)
H9G H -0.075(2) 0.400(2) -0.2499(7)
C12N C 0.08432(15) 0.29166(15) -0.45073(4)
C12K C -0.08432(15) 0.20834(15) -0.45073(4)
C12G C -0.04166(15) 0.33432(15) -0.29927(4)
H10K H -0.1487(19) 0.1796(19) -0.4371(6)
H10N H 0.1487(19) 0.3204(19) -0.4371(6)
H10G H -0.0704(19) 0.3987(19) -0.3129(6)
H11N H -0.1820(18) 0.2166(19) 0.1287(5)
H11K H 0.1820(18) 0.2834(19) 0.1287(5)
H11G H 0.0334(19) 0.0680(18) 0.1213(5)
H12N H -0.221(3) 0.341(3) 0.1141(10)
H12K H 0.221(3) 0.159(3) 0.1141(10)
H12G H -0.091(3) 0.029(3) 0.1359(10)
H13N H 0.1883(16) 0.2086(18) -0.3761(4)
H13K H -0.1883(16) 0.2914(18) -0.3761(4)
H13G H 0.0414(18) 0.4383(16) -0.3739(4)
H14N H 0.218(3) 0.331(3) -0.3605(11)
H14K H -0.218(3) 0.169(3) -0.3605(11)
H14G H -0.081(3) 0.468(3) -0.3895(11)
Cl1 Cl 0.76830(6) 0.51873(6) 0.065852(18)
O5 O 0.76696(15) 0.63458(14) 0.07376(5)
O6 O 0.7209(2) 0.5022(2) 0.03149(7)
O7 O 0.88001(12) 0.47960(14) 0.06601(5)
O8 O 0.70587(16) 0.46086(18) 0.09313(6)
Cl2? Cl 0.7371(4) 0.4834(4) 0.06565(12)
O9? O 0.7304(8) 0.3709(8) 0.0725(3)
O10? O 0.6208(10) 0.5162(12) 0.0654(3)
O11? O 0.7864(15) 0.5383(17) 0.0958(4)
O12? O 0.7797(15) 0.5013(15) 0.0312(4)
loop_
_geom_bond_atom_site_label_1
_geom_bond_atom_site_label_2
_geom_bond_site_symmetry_1
_geom_bond_site_symmetry_2
Zn1 O1 1_555 1_555
Zn2 O2 1_555 1_555
Be1 O3 1_555 1_555
O1 H11 1_555 1_555
O2 H13 1_555 1_555
O3 C5 1_555 1_555
O4 Be1 1_555 1_555
N1 Zn1 1_555 1_555
N2 Zn2 1_555 1_555
C1 N1 1_555 1_555
H1 C1 1_555 1_555
C2 C1 1_555 1_555
H2 C2 1_555 1_555
C3 C2 1_555 1_555
C4 C3 1_555 1_555
C5 C4 1_555 1_555
C6 C5 1_555 1_555
H3 C6 1_555 1_555
H4 C6 1_555 1_555
H5 C6 1_555 1_555
C7 O4 1_555 1_555
C8 C7 1_555 1_555
C9 C7 1_555 1_555
H6 C9 1_555 1_555
H7 C9 1_555 1_555
H8 C9 1_555 1_555
C10 C8 1_555 1_555
C11 C10 1_555 1_555
H9 C11 1_555 1_555
C12 N2 1_555 1_555
H10 C12 1_555 1_555
H12 O1 1_555 1_555
H14 O2 1_555 1_555
Cl1 O5 1_555 1_555
O6 Cl1 1_555 1_555
O7 Cl1 1_555 1_555
O8 Cl1 1_555 1_555
Zn1_2 N1K 1_555 1_555
Be1K O3N 1_555 1_555
O1N Zn1 1_555 1_555
O1K Zn1 1_555 1_555
O1G Zn1 1_555 1_555
O2N Zn2 1_555 1_555
O2K Zn2 1_555 1_555
O2G Zn2 1_555 1_555
O3G Be1 1_555 1_555
O3N C5N 1_555 1_555
O3K Be1K 1_555 1_555
O4G Be1 1_555 1_555
O4N Be1K 1_555 1_555
O4K Be1K 1_555 1_555
N1K C1N 1_555 1_555
N1K_2 Zn1 1_555 1_555
N2K Zn2 1_555 1_555
C1G N1 1_555 1_555
C1N H1N 1_555 1_555
C1K N1K 1_555 1_555
H1G C1G 1_555 1_555
H1K C1K 1_555 1_555
C2G C3 1_555 1_555
C2N C1N 1_555 1_555
C2K C1K 1_555 1_555
H2G C2G 1_555 1_555
H2K C2K 1_555 1_555
H2N C2N 1_555 1_555
C3K C2N 1_555 1_555
C4K C3K 1_555 1_555
C5G C4 1_555 1_555
C5N C4K 1_555 1_555
C5K O3K 1_555 1_555
C6G C5G 1_555 1_555
C6K C5K 1_555 1_555
C6N C5N 1_555 1_555
H3G C6G 1_555 1_555
H3K C6K 1_555 1_555
H3N C6N 1_555 1_555
H4G C6G 1_555 1_555
H4K C6K 1_555 1_555
H4N C6N 1_555 1_555
H5G C6G 1_555 1_555
H5K C6K 1_555 1_555
H5N C6N 1_555 1_555
C7G C8 1_555 1_555
C7N O4N 1_555 1_555
C7K O4K 1_555 1_555
C8K C7N 1_555 1_555
C9G C7G 1_555 1_555
C9K C7K 1_555 1_555
C9N C7N 1_555 1_555
H6G C9G 1_555 1_555
H6K C9K 1_555 1_555
H6N C9N 1_555 1_555
H7G C9G 1_555 1_555
H7K C9K 1_555 1_555
H7N C9N 1_555 1_555
H8G C9G 1_555 1_555
H8K C9K 1_555 1_555
H8N C9N 1_555 1_555
C10K C8K 1_555 1_555
C11N C10K 1_555 1_555
C11K C10K 1_555 1_555
C11G C10 1_555 1_555
H9K C11K 1_555 1_555
H9N C11N 1_555 1_555
H9G C11G 1_555 1_555
C12N N2K 1_555 1_555
C12K N2K 1_555 1_555
C12G N2 1_555 1_555
H10K C12K 1_555 1_555
H10N C12N 1_555 1_555
H10G C12G 1_555 1_555
H11N O1N 1_555 1_555
H11K O1K 1_555 1_555
H11G O1G 1_555 1_555
H12N O1N 1_555 1_555
H12K O1K 1_555 1_555
H12G O1G 1_555 1_555
H13N O2N 1_555 1_555
H13K O2K 1_555 1_555
H13G O2G 1_555 1_555
H14N O2N 1_555 1_555
H14K O2K 1_555 1_555
H14G O2G 1_555 1_555
C11 C12 1_555 1_555
O3G C5G 1_555 1_555
O4G C7G 1_555 1_555
C1G C2G 1_555 1_555
C2K C3K 1_555 1_555
C4K C5K 1_555 1_555
C7K C8K 1_555 1_555
C11N C12N 1_555 1_555
C11K C12K 1_555 1_555
C11G C12G 1_555 1_555

#END
