
#######################################################################
#
#                 Cambridge Crystallographic Data Centre
#                                CCDC 
#
#######################################################################
#
# If this CIF has been generated from an entry in the Cambridge 
# Structural Database, then it will include bibliographic, chemical, 
# crystal, experimental, refinement or atomic coordinate data resulting 
# from the CCDC's data processing and validation procedures.
#
#######################################################################

data_PAQJAT
_symmetry_cell_setting           triclinic
_symmetry_space_group_name_H-M   'P -1'
_symmetry_Int_Tables_number      2
_space_group_name_Hall           '-P 1'
loop_
_symmetry_equiv_pos_site_id
_symmetry_equiv_pos_as_xyz
1 x,y,z
2 -x,-y,-z
_cell_length_a                   15.3783(18)
_cell_length_b                   17.940(2)
_cell_length_c                   18.821(2)
_cell_angle_alpha                101.116(2)
_cell_angle_beta                 114.079(2)
_cell_angle_gamma                91.376(2)
_cell_volume                     4621.04
loop_
_atom_site_label
_atom_site_type_symbol
_atom_site_fract_x
_atom_site_fract_y
_atom_site_fract_z
Cd1 Cd -0.53083(2) 0.447440(17) -0.14572(2)
Cd2 Cd 0.45307(2) 0.019360(16) -0.756840(17)
Be1 Be -0.9933(4) -0.0890(3) -0.1634(3)
Be2 Be -0.0496(4) 0.1567(3) -0.4328(3)
Be3 Be 1.0081(6) 0.5355(5) -0.3187(6)
O1 O -1.0374(2) -0.02006(16) -0.20542(18)
O2 O -0.8809(2) -0.07786(16) -0.14097(19)
O3 O -0.0401(2) 0.82887(16) -0.22287(17)
O4 O -0.0194(2) 0.91278(17) -0.08967(18)
O5 O -0.1593(2) 0.12602(16) -0.45525(17)
O6 O -0.0234(2) 0.23184(16) -0.36174(17)
O7 O -0.0435(2) 0.17409(17) -0.51106(17)
O8 O 0.0253(2) 0.09581(16) -0.40387(16)
O9 O 1.0268(3) 0.4770(2) -0.3871(2)
O10 O 0.8940(3) 0.5286(3) -0.3495(4)
O11 O 0.0589(3) -0.3807(2) -1.3071(2)
O12 O 0.0536(3) -0.4874(2) -1.2341(3)
O13 O -0.4151(3) 0.4823(3) -0.0112(2)
O14 O -0.3834(3) 0.4557(2) 0.1033(2)
O15 O -0.4217(3) 0.3660(2) -0.0011(3)
O16 O -0.6512(3) 0.4503(2) -0.2682(2)
O17 O 0.5331(3) -0.0623(2) -0.6616(2)
O18 O 0.5848(2) -0.05333(19) -0.7511(2)
O19 O 0.6299(3) -0.1405(2) -0.6826(2)
O20 O 0.4579(3) 0.0496(2) -0.8786(2)
O21 O 0.3461(2) 0.09061(19) -0.84447(19)
O22 O 0.3554(4) 0.1182(3) -0.9481(3)
N1 N -0.6233(2) 0.35139(19) -0.1361(2)
N2 N -0.4465(3) 0.5489(2) -0.1580(2)
N3 N -0.4402(3) 0.3643(2) -0.1893(2)
N4 N 0.3749(2) 0.0540(2) -0.6742(2)
N5 N 0.5575(3) 0.1305(2) -0.6931(2)
N6 N 0.3507(3) -0.0852(2) -0.8466(2)
N7 N -0.4069(3) 0.4349(2) 0.0301(3)
N8 N 0.5836(3) -0.0869(2) -0.6981(2)
N9 N 0.3853(3) 0.0867(3) -0.8917(2)
C1 C -1.0422(4) 0.0968(3) -0.2437(3)
H1 H -1.0149 0.1451 -0.2069
H2 H -1.1081 0.0872 -0.2530
H3 H -1.0399 0.0988 -0.2936
C2 C -0.9861(3) 0.0344(2) -0.2093(2)
C3 C -0.8867(3) 0.0371(2) -0.1852(2)
C4 C -0.8389(3) -0.0211(2) -0.1517(3)
C5 C -0.7324(4) -0.0244(3) -0.1265(4)
H4 H -0.7112 -0.0657 -0.1001
H5 H -0.6989 0.0238 -0.0924
H6 H -0.7208 -0.0305 -0.1736
C6 C -0.8317(3) 0.1048(2) -0.1921(3)
H7 H -0.8721 0.1234 -0.2378
H8 H -0.7772 0.0880 -0.2005
C7 C -0.7964(3) 0.1706(2) -0.1176(2)
H9 H -0.7601 0.1513 -0.0712
H10 H -0.8510 0.1905 -0.1116
C8 C -0.7080(3) 0.3629(2) -0.1339(3)
H11 H -0.7293 0.4125 -0.1369
C9 C -0.7655(3) 0.3071(3) -0.1273(3)
H12 H -0.8258 0.3178 -0.1261
C10 C -0.7360(3) 0.2344(2) -0.1229(2)
C11 C -0.6483(3) 0.2229(3) -0.1250(3)
H13 H -0.6253 0.1738 -0.1226
C12 C -0.5942(3) 0.2825(3) -0.1309(3)
H14 H -0.5334 0.2737 -0.1319
C13 C -0.1263(4) 0.7072(3) -0.2725(4)
H15 H -0.1036 0.7097 -0.3126
H16 H -0.1029 0.6648 -0.2486
H17 H -0.1952 0.7005 -0.2965
C14 C -0.0908(3) 0.7803(2) -0.2093(3)
C15 C -0.1124(3) 0.7928(2) -0.1436(3)
C16 C -0.0755(3) 0.8609(3) -0.0860(3)
C17 C -0.0969(5) 0.8796(4) -0.0139(3)
H18 H -0.0597 0.9265 0.0207
H19 H -0.0821 0.8387 0.0138
H20 H -0.1641 0.8843 -0.0306
C18 C -0.1745(3) 0.7312(3) -0.1345(3)
H21 H -0.1616 0.7383 -0.0791
H22 H -0.1569 0.6820 -0.1510
C19 C -0.2822(3) 0.7320(3) -0.1819(3)
H23 H -0.2953 0.7267 -0.2371
H24 H -0.3008 0.7801 -0.1639
C20 C -0.4441(4) 0.5506(3) -0.2272(3)
H25 H -0.4808 0.5100 -0.2724
C21 C -0.3924(4) 0.6085(3) -0.2374(3)
H26 H -0.3922 0.6066 -0.2887
C22 C -0.3410(3) 0.6683(3) -0.1745(3)
C23 C -0.3440(4) 0.6666(3) -0.1025(3)
H27 H -0.3097 0.7074 -0.0569
C24 C -0.3964(4) 0.6069(3) -0.0954(3)
H28 H -0.3975 0.6067 -0.0448
C25 C -0.3142(3) 0.1256(3) -0.4616(3)
H29 H -0.3236 0.0848 -0.5062
H30 H -0.3569 0.1627 -0.4805
H31 H -0.3300 0.1049 -0.4243
C26 C -0.2106(3) 0.1607(2) -0.4237(3)
C27 C -0.1773(3) 0.2258(2) -0.3619(2)
C28 C -0.0819(3) 0.2581(2) -0.3331(2)
C29 C -0.0402(4) 0.3270(3) -0.2657(3)
H32 H -0.0807 0.3672 -0.2753
H33 H 0.0225 0.3437 -0.2601
H34 H -0.0329 0.3126 -0.2172
C30 C -0.2445(4) 0.2617(3) -0.3289(3)
H35 H -0.3069 0.2571 -0.3721
H36 H -0.2229 0.3153 -0.3073
C31 C -0.2548(4) 0.2267(3) -0.2631(3)
H37 H -0.1929 0.2293 -0.2199
H38 H -0.2813 0.1740 -0.2845
C32 C -0.4766(4) 0.3025(3) -0.2499(3)
H39 H -0.5450 0.2908 -0.2780
C33 C -0.4184(4) 0.2550(3) -0.2731(3)
H40 H -0.4465 0.2109 -0.3162
C34 C -0.3198(3) 0.2711(3) -0.2340(3)
C35 C -0.2833(4) 0.3341(3) -0.1706(3)
H41 H -0.2152 0.3460 -0.1407
C36 C -0.3447(4) 0.3786(3) -0.1501(3)
H42 H -0.3179 0.4219 -0.1059
C37 C 0.0026(4) 0.1654(4) -0.6159(3)
H43 H 0.0245 0.1280 -0.6469
H44 H 0.0383 0.2147 -0.6019
H45 H -0.0637 0.1710 -0.6453
C38 C 0.0138(3) 0.1435(2) -0.5404(2)
C39 C 0.0796(3) 0.0947(2) -0.5049(2)
C40 C 0.0822(3) 0.0734(2) -0.4362(2)
C41 C 0.1517(3) 0.0231(2) -0.3944(3)
H46 H 0.1274 0.0021 -0.3620
H47 H 0.2133 0.0512 -0.3601
H48 H 0.1589 -0.0187 -0.4313
C42 C 0.1458(3) 0.0660(2) -0.5422(3)
H49 H 0.1100 0.0537 -0.5991
H50 H 0.1682 0.0199 -0.5259
C43 C 0.2324(3) 0.1244(3) -0.5207(3)
H51 H 0.2758 0.1286 -0.4659
H52 H 0.2111 0.1736 -0.5266
C44 C 0.2896(3) 0.0810(3) -0.7008(3)
H53 H 0.2594 0.0841 -0.7558
C45 C 0.2433(3) 0.1044(3) -0.6528(3)
H54 H 0.1820 0.1230 -0.6746
C46 C 0.2848(3) 0.1009(2) -0.5728(2)
C47 C 0.3732(3) 0.0739(3) -0.5453(3)
H55 H 0.4056 0.0717 -0.4902
C48 C 0.4158(3) 0.0512(3) -0.5970(3)
H56 H 0.4770 0.0321 -0.5769
C49 C 0.9966(5) 0.3691(3) -0.4900(3)
H57 H 0.9580 0.3713 -0.5443
H58 H 0.9899 0.3175 -0.4843
H59 H 1.0625 0.3837 -0.4776
C50 C 0.9632(4) 0.4226(3) -0.4371(3)
C51 C 0.8694(4) 0.4127(3) -0.4426(3)
C52 C 0.8393(5) 0.4685(4) -0.3975(5)
C53 C 0.7360(5) 0.4666(5) -0.4070(7)
H60 H 0.6980 0.4768 -0.4584
H61 H 0.7288 0.5051 -0.3673
H62 H 0.7115 0.4174 -0.4057
C54 C 0.8024(4) 0.3416(3) -0.4954(3)
H63 H 0.7577 0.3332 -0.4733
H64 H 0.8386 0.2986 -0.4931
C55 C 0.7435(4) 0.3429(3) -0.5827(3)
H65 H 0.7864 0.3478 -0.6074
H66 H 0.7071 0.3858 -0.5868
C56 C 0.6532(3) 0.1331(3) -0.6713(3)
H67 H 0.6797 0.0860 -0.6796
C57 C 0.7138(4) 0.1998(3) -0.6367(3)
H68 H 0.7814 0.1993 -0.6215
C58 C 0.6776(4) 0.2694(3) -0.6243(3)
C59 C 0.5800(4) 0.2664(3) -0.6452(4)
H69 H 0.5526 0.3129 -0.6363
C60 C 0.5232(4) 0.1971(3) -0.6793(3)
H70 H 0.4557 0.1968 -0.6937
C61 C 0.1589(5) -0.2659(3) -1.2394(3)
H71 H 0.2272 -0.2614 -1.2094
H72 H 0.1343 -0.2244 -1.2157
H73 H 0.1454 -0.2624 -1.2931
C62 C 0.1170(3) -0.3410(3) -1.2378(3)
C63 C 0.1401(3) -0.3657(2) -1.1670(3)
C64 C 0.1066(4) -0.4405(3) -1.1692(3)
C65 C 0.1323(6) -0.4708(4) -1.0957(4)
H74 H 0.1175 -0.4360 -1.0576
H75 H 0.1998 -0.4754 -1.0727
H76 H 0.0976 -0.5200 -1.1072
C66 C 0.2070(3) -0.3148(3) -1.0889(3)
H77 H 0.2572 -0.2894 -1.0964
H78 H 0.2360 -0.3460 -1.0512
C67 C 0.1592(3) -0.2545(3) -1.0526(3)
H79 H 0.1138 -0.2798 -1.0395
H80 H 0.1243 -0.2270 -1.0924
C68 C 0.3829(4) -0.1394(3) -0.8844(3)
H81 H 0.4510 -0.1398 -0.8650
C69 C 0.3255(4) -0.1957(3) -0.9491(3)
H82 H 0.3537 -0.2339 -0.9733
C70 C 0.2274(3) -0.1977(2) -0.9792(3)
C71 C 0.1941(4) -0.1450(4) -0.9365(4)
H83 H 0.1264 -0.1463 -0.9514
C72 C 0.2569(4) -0.0902(3) -0.8726(3)
H84 H 0.2307 -0.0534 -0.8449
C73 C -0.7142(6) 0.5069(5) -0.2891(5)
H85 H -0.7570 0.4925 -0.3448
H86 H -0.7507 0.5115 -0.2578
H87 H -0.6775 0.5549 -0.2785
H88 H -0.6828 0.3993 -0.2948
Cd1A Cd -0.46917(2) 0.552560(17) 0.14572(2)
Be1_2 Be 0.0067(4) 0.9110(3) -0.1634(3)
Be3_2 Be 0.0081(6) -0.4645(5) -1.3187(6)
O3_2 O -1.0401(2) -0.17113(16) -0.22287(17)
O4_2 O -1.0194(2) -0.08722(17) -0.08967(18)
O11_2 O 1.0589(3) 0.6193(2) -0.3071(2)
O12_2 O 1.0536(3) 0.5126(2) -0.2341(3)
O14A O -0.6166(3) 0.5443(2) -0.1033(2)
N10 N 0.0114(8) 0.3344(6) -0.0509(6)
O23 O -0.0089(7) 0.2690(5) -0.0869(6)
O24 O 0.0918(5) 0.3593(4) -0.0337(4)
O25 O -0.0434(7) 0.3717(6) -0.0417(7)
O26 O -0.7239(3) 0.3136(3) -0.3573(3)
C74 C -0.7968(5) 0.2715(4) -0.3477(4)
O27 O -0.7567(8) 0.3206(4) -0.5069(5)
C75 C -0.7639(15) 0.3898(10) -0.5064(10)
O28 O -0.1257(6) 0.5004(5) -0.0774(5)
C76 C -0.1425(8) 0.5089(5) -0.1546(7)
O29 O -0.5999(8) 0.3128(7) -0.5416(7)
C77 C -0.5286(14) 0.2896(11) -0.4758(11)
O30 O 0.5914(13) 0.2865(13) -0.8444(11)
C78 C 0.5893(13) 0.2075(12) -0.8805(10)
C79? C 0.4967(6) 0.4802(9) -0.5376(5)
loop_
_geom_bond_atom_site_label_1
_geom_bond_atom_site_label_2
_geom_bond_site_symmetry_1
_geom_bond_site_symmetry_2
Cd1 O13 1_555 1_555
Cd2 O17 1_555 1_555
Be1 O1 1_555 1_555
Be2 O5 1_555 1_555
Be3 O9 1_555 1_555
O1 C2 1_555 1_555
O2 Be1 1_555 1_555
O3 C14 1_555 1_555
O4 C16 1_555 1_555
O5 C26 1_555 1_555
O6 Be2 1_555 1_555
O7 Be2 1_555 1_555
O8 Be2 1_555 1_555
O9 C50 1_555 1_555
O10 Be3 1_555 1_555
O11 C62 1_555 1_555
O12 C64 1_555 1_555
O13 N7 1_555 1_555
O14 N7 1_555 1_555
O15 N7 1_555 1_555
O16 Cd1 1_555 1_555
O17 N8 1_555 1_555
O18 Cd2 1_555 1_555
O19 N8 1_555 1_555
O20 Cd2 1_555 1_555
O21 Cd2 1_555 1_555
O22 N9 1_555 1_555
N1 Cd1 1_555 1_555
N2 Cd1 1_555 1_555
N3 Cd1 1_555 1_555
N4 Cd2 1_555 1_555
N5 Cd2 1_555 1_555
N6 Cd2 1_555 1_555
N8 O18 1_555 1_555
N9 O20 1_555 1_555
C1 H1 1_555 1_555
H2 C1 1_555 1_555
H3 C1 1_555 1_555
C2 C1 1_555 1_555
C3 C2 1_555 1_555
C4 O2 1_555 1_555
C5 C4 1_555 1_555
H4 C5 1_555 1_555
H5 C5 1_555 1_555
H6 C5 1_555 1_555
C6 C3 1_555 1_555
H7 C6 1_555 1_555
H8 C6 1_555 1_555
C7 C6 1_555 1_555
H9 C7 1_555 1_555
H10 C7 1_555 1_555
C8 N1 1_555 1_555
H11 C8 1_555 1_555
C9 C8 1_555 1_555
H12 C9 1_555 1_555
C10 C7 1_555 1_555
C11 C10 1_555 1_555
H13 C11 1_555 1_555
C12 N1 1_555 1_555
H14 C12 1_555 1_555
C13 H15 1_555 1_555
H16 C13 1_555 1_555
H17 C13 1_555 1_555
C14 C13 1_555 1_555
C15 C14 1_555 1_555
C16 C15 1_555 1_555
C17 C16 1_555 1_555
H18 C17 1_555 1_555
H19 C17 1_555 1_555
H20 C17 1_555 1_555
C18 C15 1_555 1_555
H21 C18 1_555 1_555
H22 C18 1_555 1_555
C19 C18 1_555 1_555
H23 C19 1_555 1_555
H24 C19 1_555 1_555
C20 N2 1_555 1_555
H25 C20 1_555 1_555
C21 C20 1_555 1_555
H26 C21 1_555 1_555
C22 C19 1_555 1_555
C23 C22 1_555 1_555
H27 C23 1_555 1_555
C24 N2 1_555 1_555
H28 C24 1_555 1_555
C25 H29 1_555 1_555
H30 C25 1_555 1_555
H31 C25 1_555 1_555
C26 C25 1_555 1_555
C27 C26 1_555 1_555
C28 O6 1_555 1_555
C29 C28 1_555 1_555
H32 C29 1_555 1_555
H33 C29 1_555 1_555
H34 C29 1_555 1_555
C30 C27 1_555 1_555
H35 C30 1_555 1_555
H36 C30 1_555 1_555
C31 C30 1_555 1_555
H37 C31 1_555 1_555
H38 C31 1_555 1_555
C32 N3 1_555 1_555
H39 C32 1_555 1_555
C33 C32 1_555 1_555
H40 C33 1_555 1_555
C34 C31 1_555 1_555
C35 C34 1_555 1_555
H41 C35 1_555 1_555
C36 N3 1_555 1_555
H42 C36 1_555 1_555
C37 H43 1_555 1_555
H44 C37 1_555 1_555
H45 C37 1_555 1_555
C38 O7 1_555 1_555
C39 C38 1_555 1_555
C40 O8 1_555 1_555
C41 C40 1_555 1_555
H46 C41 1_555 1_555
H47 C41 1_555 1_555
H48 C41 1_555 1_555
C42 C39 1_555 1_555
H49 C42 1_555 1_555
H50 C42 1_555 1_555
C43 C42 1_555 1_555
H51 C43 1_555 1_555
H52 C43 1_555 1_555
C44 N4 1_555 1_555
H53 C44 1_555 1_555
C45 C44 1_555 1_555
H54 C45 1_555 1_555
C46 C43 1_555 1_555
C47 C46 1_555 1_555
H55 C47 1_555 1_555
C48 N4 1_555 1_555
H56 C48 1_555 1_555
C49 H57 1_555 1_555
H58 C49 1_555 1_555
H59 C49 1_555 1_555
C50 C49 1_555 1_555
C51 C50 1_555 1_555
C52 O10 1_555 1_555
C53 C52 1_555 1_555
H60 C53 1_555 1_555
H61 C53 1_555 1_555
H62 C53 1_555 1_555
C54 C51 1_555 1_555
H63 C54 1_555 1_555
H64 C54 1_555 1_555
C55 C54 1_555 1_555
H65 C55 1_555 1_555
H66 C55 1_555 1_555
C56 N5 1_555 1_555
H67 C56 1_555 1_555
C57 C56 1_555 1_555
H68 C57 1_555 1_555
C58 C55 1_555 1_555
C59 C58 1_555 1_555
H69 C59 1_555 1_555
C60 N5 1_555 1_555
H70 C60 1_555 1_555
C61 H71 1_555 1_555
H72 C61 1_555 1_555
H73 C61 1_555 1_555
C62 C61 1_555 1_555
C63 C62 1_555 1_555
C64 C63 1_555 1_555
C65 C64 1_555 1_555
H74 C65 1_555 1_555
H75 C65 1_555 1_555
H76 C65 1_555 1_555
C66 C63 1_555 1_555
H77 C66 1_555 1_555
H78 C66 1_555 1_555
C67 C66 1_555 1_555
H79 C67 1_555 1_555
H80 C67 1_555 1_555
C68 N6 1_555 1_555
H81 C68 1_555 1_555
C69 C68 1_555 1_555
H82 C69 1_555 1_555
C70 C67 1_555 1_555
C71 C70 1_555 1_555
H83 C71 1_555 1_555
C72 N6 1_555 1_555
H84 C72 1_555 1_555
C73 O16 1_555 1_555
H85 C73 1_555 1_555
H86 C73 1_555 1_555
H87 C73 1_555 1_555
H88 O16 1_555 1_555
N10 O23 1_555 1_555
O24 N10 1_555 1_555
O25 N10 1_555 1_555
O26 C74 1_555 1_555
O27 C75 1_555 1_555
O28 C76 1_555 1_555
O29 C77 1_555 1_555
O30 C78 1_555 1_555
Cd1A O14 1_555 1_555
Be1_2 O3 1_555 1_555
Be3_2 O11 1_555 1_555
O3_2 Be1 1_555 1_555
O4_2 Be1 1_555 1_555
O11_2 Be3 1_555 1_555
O12_2 Be3 1_555 1_555
O14A Cd1 1_555 1_555
O4 Be1_2 1_555 1_555
O12 Be3_2 1_555 1_555
O21 N9 1_555 1_555
C3 C4 1_555 1_555
C9 C10 1_555 1_555
C11 C12 1_555 1_555
C21 C22 1_555 1_555
C23 C24 1_555 1_555
C27 C28 1_555 1_555
C33 C34 1_555 1_555
C35 C36 1_555 1_555
C37 C38 1_555 1_555
C39 C40 1_555 1_555
C45 C46 1_555 1_555
C47 C48 1_555 1_555
C51 C52 1_555 1_555
C57 C58 1_555 1_555
C59 C60 1_555 1_555
C69 C70 1_555 1_555
C71 C72 1_555 1_555

#END
