
#######################################################################
#
#                 Cambridge Crystallographic Data Centre
#                                CCDC 
#
#######################################################################
#
# If this CIF has been generated from an entry in the Cambridge 
# Structural Database, then it will include bibliographic, chemical, 
# crystal, experimental, refinement or atomic coordinate data resulting 
# from the CCDC's data processing and validation procedures.
#
#######################################################################

data_PAQJOG
_symmetry_cell_setting           monoclinic
_symmetry_space_group_name_H-M   'P 21/c'
_symmetry_Int_Tables_number      14
_space_group_name_Hall           '-P 2ybc'
loop_
_symmetry_equiv_pos_site_id
_symmetry_equiv_pos_as_xyz
1 x,y,z
2 -x,1/2+y,1/2-z
3 -x,-y,-z
4 x,1/2-y,1/2+z
_cell_length_a                   12.424(5)
_cell_length_b                   8.496(3)
_cell_length_c                   8.399(4)
_cell_angle_alpha                90
_cell_angle_beta                 96.41(3)
_cell_angle_gamma                90
_cell_volume                     881.008
loop_
_atom_site_label
_atom_site_type_symbol
_atom_site_fract_x
_atom_site_fract_y
_atom_site_fract_z
Mn1 Mn 0.0000 0.0000 0.0000
N1 N -0.1067(3) -0.1543(3) -0.1631(3)
N2 N -0.0832(2) -0.2659(3) -0.2319(3)
N3 N 0.0615(3) 0.1187(3) -0.2045(4)
N4 N 0.1356(2) -0.1838(3) -0.0083(3)
C1 C 0.1216(2) -0.3362(3) 0.0250(3)
C2 C 0.1927(3) -0.4523(4) -0.0079(4)
C3 C 0.2835(2) -0.4117(3) -0.0799(4)
C4 C 0.2994(3) -0.2544(4) -0.1133(4)
C5 C 0.2247(3) -0.1450(4) -0.0748(4)
C6 C 0.3619(3) -0.5300(4) -0.1291(5)
O1 O 0.4308(3) -0.5024(3) -0.2131(5)
O2 O 0.3461(2) -0.6720(3) -0.0685(3)
C7 C 0.4145(3) -0.7963(4) -0.1151(6)
H1 H 0.0606(2) -0.3649(3) 0.0729(3)
H2 H 0.1800(3) -0.5566(4) 0.0178(4)
H3 H 0.3599(3) -0.2229(4) -0.1611(4)
H4 H 0.2368(3) -0.0394(4) -0.0960(4)
H5 H 0.3908(15) -0.8277(23) -0.2232(13)
H6 H 0.4105(18) -0.8847(13) -0.0447(22)
H7 H 0.4880(5) -0.7597(11) -0.1086(33)
N3A N -0.0615(3) -0.3813(3) -0.2955(4)
Mn1A Mn 0.0000 -0.5000 -0.5000
Mn1C Mn 0.0000 -0.5000 0.5000
N1C N -0.1067(3) -0.3457(3) 0.3369(3)
N2C N -0.0832(2) -0.2341(3) 0.2681(3)
N3B N -0.0615(3) -0.1187(3) 0.2045(4)
N1B N 0.1067(3) 0.1543(3) 0.1631(3)
N4B N -0.1356(2) 0.1838(3) 0.0083(3)
C1B C -0.1216(2) 0.3362(3) -0.0250(3)
C2B C -0.1927(3) 0.4523(4) 0.0079(4)
C3B C -0.2835(2) 0.4117(3) 0.0799(4)
C4B C -0.2994(3) 0.2544(4) 0.1133(4)
C5B C -0.2247(3) 0.1450(4) 0.0748(4)
H4B H -0.2368(3) 0.0394(4) 0.0960(4)
H3B H -0.3599(3) 0.2229(4) 0.1611(4)
C6B C -0.3619(3) 0.5300(4) 0.1291(5)
O1B O -0.4308(3) 0.5024(3) 0.2131(5)
O2B O -0.3461(2) 0.6720(3) 0.0685(3)
C7B C -0.4145(3) 0.7963(4) 0.1151(6)
H5B H -0.3908(15) 0.8277(23) 0.2232(13)
H6B H -0.4105(18) 0.8847(13) 0.0447(22)
H7B H -0.4880(5) 0.7597(11) 0.1086(33)
H2B H -0.1800(3) 0.5566(4) -0.0178(4)
H1B H -0.0606(2) 0.3649(3) -0.0729(3)
loop_
_geom_bond_atom_site_label_1
_geom_bond_atom_site_label_2
_geom_bond_site_symmetry_1
_geom_bond_site_symmetry_2
Mn1 N1 1_555 1_555
N1 N2 1_555 1_555
N2 N3A 1_555 1_555
N3 Mn1 1_555 1_555
N4 Mn1 1_555 1_555
C1 N4 1_555 1_555
C2 C1 1_555 1_555
C3 C2 1_555 1_555
C4 C3 1_555 1_555
C5 N4 1_555 1_555
C6 C3 1_555 1_555
O1 C6 1_555 1_555
O2 C6 1_555 1_555
C7 O2 1_555 1_555
H1 C1 1_555 1_555
H2 C2 1_555 1_555
H3 C4 1_555 1_555
H4 C5 1_555 1_555
H5 C7 1_555 1_555
H6 C7 1_555 1_555
H7 C7 1_555 1_555
N3A Mn1A 1_555 1_555
Mn1C N1C 1_555 1_555
N1C N2C 1_555 1_555
N2C N3B 1_555 1_555
N3B Mn1 1_555 1_555
N1B Mn1 1_555 1_555
N4B Mn1 1_555 1_555
C1B N4B 1_555 1_555
C2B C1B 1_555 1_555
C3B C2B 1_555 1_555
C4B C3B 1_555 1_555
C5B N4B 1_555 1_555
H4B C5B 1_555 1_555
H3B C4B 1_555 1_555
C6B C3B 1_555 1_555
O1B C6B 1_555 1_555
O2B C6B 1_555 1_555
C7B O2B 1_555 1_555
H5B C7B 1_555 1_555
H6B C7B 1_555 1_555
H7B C7B 1_555 1_555
H2B C2B 1_555 1_555
H1B C1B 1_555 1_555
C4 C5 1_555 1_555
C4B C5B 1_555 1_555

#END
