
#######################################################################
#
#                 Cambridge Crystallographic Data Centre
#                                CCDC 
#
#######################################################################
#
# If this CIF has been generated from an entry in the Cambridge 
# Structural Database, then it will include bibliographic, chemical, 
# crystal, experimental, refinement or atomic coordinate data resulting 
# from the CCDC's data processing and validation procedures.
#
#######################################################################

data_PAQMUR
_symmetry_cell_setting           triclinic
_symmetry_space_group_name_H-M   'P -1'
_symmetry_Int_Tables_number      2
_space_group_name_Hall           '-P 1'
loop_
_symmetry_equiv_pos_site_id
_symmetry_equiv_pos_as_xyz
1 x,y,z
2 -x,-y,-z
_cell_length_a                   11.0240(6)
_cell_length_b                   11.5966(6)
_cell_length_c                   13.2520(6)
_cell_angle_alpha                80.074(4)
_cell_angle_beta                 89.417(4)
_cell_angle_gamma                89.113(4)
_cell_volume                     1668.54
loop_
_atom_site_label
_atom_site_type_symbol
_atom_site_fract_x
_atom_site_fract_y
_atom_site_fract_z
Zn1 Zn 0.75000(2) 0.25153(2) 0.749509(18)
O1 O 0.72356(15) 0.40843(14) 0.64018(12)
H1 H 0.705(2) 0.4718(17) 0.6560(19)
H2 H 0.718(2) 0.418(2) 0.5773(14)
O2 O 0.77447(15) 0.09550(13) 0.86022(12)
H3 H 0.727(2) 0.075(2) 0.9055(17)
H4 H 0.807(2) 0.0336(18) 0.8493(19)
S1 S 0.30017(5) -0.03405(4) 0.55070(4)
S2 S 0.19513(5) 0.08083(5) 0.45493(4)
N1 N 0.60510(16) 0.16663(16) 0.67145(13)
C1 C 0.5265(2) 0.2238(2) 0.60285(17)
H5 H 0.5370 0.3055 0.5810
C2 C 0.4314(2) 0.1712(2) 0.56216(17)
H6 H 0.3782 0.2159 0.5141
C3 C 0.41487(19) 0.05187(19) 0.59279(16)
C4 C 0.4968(2) -0.00965(19) 0.66192(17)
H7 H 0.4892 -0.0917 0.6837
C5 C 0.5888(2) 0.05040(19) 0.69812(17)
H8 H 0.6445 0.0072 0.7449
N2 N -0.11215(16) 0.19093(15) 0.65364(14)
C6 C -0.0166(2) 0.1291(2) 0.69670(17)
H9 H -0.0143 0.1102 0.7693
C7 C 0.0787(2) 0.0912(2) 0.64168(17)
H10 H 0.1436 0.0463 0.6757
C8 C 0.0775(2) 0.12017(19) 0.53587(17)
C9 C -0.0209(2) 0.18369(19) 0.48905(17)
H11 H -0.0245 0.2044 0.4166
C10 C -0.1131(2) 0.21600(19) 0.55025(17)
H12 H -0.1808 0.2581 0.5179
S3 S 0.30390(5) 0.41575(5) 1.04693(4)
S4 S 0.19792(5) 0.53227(5) 0.95386(4)
N3 N 0.61408(16) 0.31504(15) 0.84616(14)
C11 C 0.5218(2) 0.3836(2) 0.80488(18)
H13 H 0.5224 0.4090 0.7328
C12 C 0.4264(2) 0.4193(2) 0.86051(18)
H14 H 0.3643 0.4692 0.8276
C13 C 0.4229(2) 0.38098(19) 0.96539(17)
C14 C 0.5185(2) 0.31230(19) 1.01051(17)
H15 H 0.5197 0.2861 1.0825
C15 C 0.6117(2) 0.28274(19) 0.94914(17)
H16 H 0.6777 0.2373 0.9809
N4 N -0.10483(16) 0.33418(15) 0.82734(13)
C16 C -0.0790(2) 0.4474(2) 0.79278(17)
H17 H -0.1265 0.4886 0.7384
C17 C 0.0116(2) 0.5073(2) 0.83119(17)
H18 H 0.0246 0.5877 0.8049
C18 C 0.08382(19) 0.44745(19) 0.90948(16)
C19 C 0.0580(2) 0.3314(2) 0.94759(17)
H19 H 0.1047 0.2883 1.0016
C20 C -0.0368(2) 0.27916(19) 0.90560(17)
H20 H -0.0550 0.2002 0.9335
Zn1_2 Zn -0.25000(2) 0.25153(2) 0.749509(18)
N2_2 N 0.88785(16) 0.19093(15) 0.65364(14)
N4_2 N 0.89517(16) 0.33418(15) 0.82734(13)
O3 O 0.30151(16) 0.81815(18) 0.81151(14)
O4 O 0.1259(2) 0.8743(2) 0.85965(17)
O5 O 0.13860(17) 0.76112(16) 0.74584(14)
N5 N 0.1879(2) 0.81705(19) 0.80513(16)
O6 O 0.82466(16) 0.69783(16) 0.71602(15)
O7 O 0.65441(17) 0.77373(15) 0.75525(13)
O8 O 0.65428(17) 0.62659(15) 0.67506(15)
N6 N 0.71197(19) 0.69971(17) 0.71536(15)
O9 O 0.29722(17) 0.55004(16) 0.56033(12)
H21 H 0.3371 0.5920 0.5934
C21 C 0.1867(7) 0.5125(6) 0.6164(7)
H22 H 0.1166 0.5618 0.5885
H23 H 0.1950 0.5167 0.6900
C22 C 0.1711(9) 0.3888(6) 0.6014(8)
H24 H 0.1054 0.3531 0.6458
H25 H 0.2467 0.3446 0.6188
H26 H 0.1511 0.3876 0.5297
O10 O 0.3386(3) -0.0145(3) 0.9554(2)
H27 H 0.3228 -0.0569 0.9120
C23 C 0.2712(6) 0.0955(5) 0.9314(4)
H28 H 0.2883 0.1448 0.9834
H29 H 0.1831 0.0796 0.9335
C24 C 0.3052(5) 0.1596(5) 0.8277(4)
H30 H 0.2698 0.2388 0.8178
H31 H 0.2745 0.1177 0.7752
H32 H 0.3938 0.1646 0.8220
O11 O 0.40391(19) 0.6767(2) 0.6764(2)
H33 H 0.368(3) 0.715(3) 0.717(2)
H34 H 0.4767(18) 0.671(3) 0.683(3)
O12 O 0.87418(18) 0.88919(16) 0.83890(15)
H35 H 0.841(3) 0.841(2) 0.808(2)
H36 H 0.9489(17) 0.880(3) 0.836(2)
C25? C 0.2193(8) 0.4705(7) 0.6245(8)
C26? C 0.1201(9) 0.4333(8) 0.5623(9)
C27? C 0.3982(5) 0.0459(5) 0.9140(4)
C28? C 0.2823(7) 0.1121(7) 0.8911(6)
H37? H 0.1841 0.5091 0.6794
H38? H 0.2667 0.4010 0.6571
H39? H 0.4834 0.0078 1.0392
H40? H 0.0562 0.3959 0.6080
H41? H 0.1526 0.3775 0.5208
H42? H 0.0863 0.5019 0.5173
H43? H 0.3999 -0.0232 0.8793
H44? H 0.4673 0.0963 0.8878
H45? H 0.2750 0.1374 0.8169
H46? H 0.2813 0.1809 0.9250
H47? H 0.2141 0.0617 0.9164
O13? O 0.4099(3) 0.0084(3) 1.0232(2)
loop_
_geom_bond_atom_site_label_1
_geom_bond_atom_site_label_2
_geom_bond_site_symmetry_1
_geom_bond_site_symmetry_2
Zn1 O1 1_555 1_555
O1 H1 1_555 1_555
H2 O1 1_555 1_555
O2 Zn1 1_555 1_555
H3 O2 1_555 1_555
H4 O2 1_555 1_555
S1 S2 1_555 1_555
S2 C8 1_555 1_555
N1 Zn1 1_555 1_555
C1 N1 1_555 1_555
H5 C1 1_555 1_555
C2 C1 1_555 1_555
H6 C2 1_555 1_555
C3 S1 1_555 1_555
C4 C3 1_555 1_555
H7 C4 1_555 1_555
C5 N1 1_555 1_555
H8 C5 1_555 1_555
N2 C6 1_555 1_555
C6 H9 1_555 1_555
C7 C6 1_555 1_555
H10 C7 1_555 1_555
C8 C7 1_555 1_555
C9 C8 1_555 1_555
H11 C9 1_555 1_555
C10 N2 1_555 1_555
H12 C10 1_555 1_555
S3 S4 1_555 1_555
S4 C18 1_555 1_555
N3 Zn1 1_555 1_555
C11 N3 1_555 1_555
H13 C11 1_555 1_555
C12 C11 1_555 1_555
H14 C12 1_555 1_555
C13 S3 1_555 1_555
C14 C13 1_555 1_555
H15 C14 1_555 1_555
C15 N3 1_555 1_555
H16 C15 1_555 1_555
N4 C16 1_555 1_555
C16 H17 1_555 1_555
C17 C16 1_555 1_555
H18 C17 1_555 1_555
C18 C17 1_555 1_555
C19 C18 1_555 1_555
H19 C19 1_555 1_555
C20 N4 1_555 1_555
H20 C20 1_555 1_555
O3 N5 1_555 1_555
O4 N5 1_555 1_555
O5 N5 1_555 1_555
O6 N6 1_555 1_555
O7 N6 1_555 1_555
O8 N6 1_555 1_555
O9 H21 1_555 1_555
C21 O9 1_555 1_555
H22 C21 1_555 1_555
H23 C21 1_555 1_555
C22 C21 1_555 1_555
H24 C22 1_555 1_555
H25 C22 1_555 1_555
H26 C22 1_555 1_555
O10 H27 1_555 1_555
C23 O10 1_555 1_555
H28 C23 1_555 1_555
H29 C23 1_555 1_555
C24 C23 1_555 1_555
H30 C24 1_555 1_555
H31 C24 1_555 1_555
H32 C24 1_555 1_555
O11 H33 1_555 1_555
H34 O11 1_555 1_555
O12 H35 1_555 1_555
H36 O12 1_555 1_555
Zn1_2 N2 1_555 1_555
N2_2 Zn1 1_555 1_555
N4_2 Zn1 1_555 1_555
C2 C3 1_555 1_555
C4 C5 1_555 1_555
C9 C10 1_555 1_555
C12 C13 1_555 1_555
C14 C15 1_555 1_555
N4 Zn1_2 1_555 1_555
C19 C20 1_555 1_555

#END
