
#######################################################################
#
#                 Cambridge Crystallographic Data Centre
#                                CCDC 
#
#######################################################################
#
# If this CIF has been generated from an entry in the Cambridge 
# Structural Database, then it will include bibliographic, chemical, 
# crystal, experimental, refinement or atomic coordinate data resulting 
# from the CCDC's data processing and validation procedures.
#
#######################################################################

data_PAQTOS01
_symmetry_cell_setting           monoclinic
_symmetry_space_group_name_H-M   'C 2/c'
_symmetry_Int_Tables_number      15
_space_group_name_Hall           '-C 2yn'
loop_
_symmetry_equiv_pos_site_id
_symmetry_equiv_pos_as_xyz
1 x,y,z
2 -x,y,1/2-z
3 1/2+x,1/2+y,z
4 1/2-x,1/2+y,1/2-z
5 -x,-y,-z
6 x,-y,1/2+z
7 1/2-x,1/2-y,-z
8 1/2+x,1/2-y,1/2+z
_cell_length_a                   7.366(3)
_cell_length_b                   25.065(10)
_cell_length_c                   30.377(12)
_cell_angle_alpha                90
_cell_angle_beta                 93.030(8)
_cell_angle_gamma                90
_cell_volume                     5600.63
loop_
_atom_site_label
_atom_site_type_symbol
_atom_site_fract_x
_atom_site_fract_y
_atom_site_fract_z
Ni1 Ni -0.5000 0.0000 -0.5000
Fe1 Fe -1.5000 -0.16221(4) -0.2500
N1 N -0.2915(5) 0.04872(15) -0.50102(12)
N2 N -0.5569(5) 0.02803(15) -0.44141(11)
C1 C -0.1704(7) 0.0556(2) -0.53435(16)
C2 C -0.0383(10) 0.0948(3) -0.5219(2)
H1 H 0.0616 0.1041 -0.5377
C3 C -0.0819(10) 0.1160(3) -0.4837(2)
H2 H -0.0240 0.1444 -0.4690
C4 C -0.2368(7) 0.0865(2) -0.46944(16)
C5 C -0.3186(7) 0.0966(2) -0.43052(15)
C6 C -0.4702(6) 0.0674(2) -0.41807(14)
C7 C -0.5523(7) 0.0747(2) -0.37599(16)
H3 H -0.5185 0.0996 -0.3544
C8 C -0.6850(7) 0.0390(2) -0.37435(16)
H4 H -0.7595 0.0337 -0.3510
C9 C -0.6926(6) 0.0102(2) -0.41503(13)
C10 C -0.1784(6) 0.0288(2) -0.57411(14)
C11 C -0.2398(8) 0.1384(2) -0.39936(17)
C12 C -0.3366(12) 0.1870(3) -0.3917(2)
H5 H -0.4487 0.1938 -0.4061
C13 C -0.2573(16) 0.2234(3) -0.3620(3)
H6 H -0.3189 0.2549 -0.3565
C14 C -0.0870(13) 0.2144(3) -0.3401(2)
C15 C 0.0038(11) 0.1695(4) -0.3495(3)
H7 H 0.1197 0.1642 -0.3366
C16 C -0.0695(9) 0.1308(3) -0.3779(2)
H8 H -0.0048 0.0997 -0.3826
C17 C 0.0049(18) 0.2545(4) -0.3072(3)
O1 O -0.1058(12) 0.2922(2) -0.29578(16)
O2 O 0.1611(14) 0.2439(4) -0.2926(3)
C18 C -0.0526(6) 0.0459(2) -0.60913(14)
C19 C 0.1340(7) 0.0342(2) -0.60451(16)
H9 H 0.1792 0.0139 -0.5808
C20 C 0.2524(7) 0.0533(2) -0.63576(15)
H10 H 0.3761 0.0460 -0.6324
C21 C 0.1856(6) 0.08266(19) -0.67116(14)
C22 C -0.0025(7) 0.0933(2) -0.67681(15)
H11 H -0.0482 0.1129 -0.7009
C23 C -0.1189(7) 0.0738(3) -0.64569(17)
H12 H -0.2433 0.0798 -0.6497
C24 C 0.3090(6) 0.10650(18) -0.70349(14)
O3 O 0.4786(4) 0.10021(14) -0.69958(11)
O4 O 0.2461(4) 0.13800(14) -0.73346(10)
Fe1D Fe 0.5000 0.16221(4) -0.7500
Fe1F Fe -1.0000 -0.33779(4) -0.7500
Fe1B Fe 0.0000 0.33779(4) -0.2500
N1D N -0.7085(5) -0.04872(15) -0.49898(12)
N2D N -0.4431(5) -0.02803(15) -0.55859(11)
C1D C -0.8296(7) -0.0556(2) -0.46565(16)
C2D C -0.9617(10) -0.0948(3) -0.4781(2)
H1D H -1.0616 -0.1041 -0.4623
C3D C -0.9181(10) -0.1160(3) -0.5163(2)
H2D H -0.9760 -0.1444 -0.5310
C4D C -0.7632(7) -0.0865(2) -0.53056(16)
C5D C -0.6814(7) -0.0966(2) -0.56948(15)
C6D C -0.5298(6) -0.0674(2) -0.58193(14)
C7D C -0.4477(7) -0.0747(2) -0.62401(16)
H3D H -0.4815 -0.0996 -0.6456
C8D C -0.3150(7) -0.0390(2) -0.62565(16)
H4D H -0.2405 -0.0337 -0.6490
C9D C -0.3074(6) -0.0102(2) -0.58497(13)
C10D C -0.8216(6) -0.0288(2) -0.42589(14)
C11D C -0.7602(8) -0.1384(2) -0.60064(17)
C12D C -0.6634(12) -0.1870(3) -0.6083(2)
H5D H -0.5513 -0.1938 -0.5939
C13D C -0.7427(16) -0.2234(3) -0.6380(3)
H6D H -0.6811 -0.2549 -0.6435
C14D C -0.9130(13) -0.2144(3) -0.6599(2)
C15D C -1.0038(11) -0.1695(4) -0.6505(3)
H7D H -1.1197 -0.1642 -0.6634
C16D C -0.9305(9) -0.1308(3) -0.6221(2)
H8D H -0.9952 -0.0997 -0.6174
C17D C -1.0049(18) -0.2545(4) -0.6928(3)
O1D O -0.8942(12) -0.2922(2) -0.70422(16)
O1B O -1.6058(12) -0.2078(2) -0.29578(16)
O1C O -1.3942(12) -0.2078(2) -0.20422(16)
O2D O -1.1611(14) -0.2439(4) -0.7074(3)
C18D C -0.9474(6) -0.0459(2) -0.39087(14)
C19D C -1.1340(7) -0.0342(2) -0.39549(16)
H9D H -1.1792 -0.0139 -0.4192
C20D C -1.2524(7) -0.0533(2) -0.36424(15)
H10D H -1.3761 -0.0460 -0.3676
C21D C -1.1856(6) -0.08266(19) -0.32884(14)
C22D C -0.9975(7) -0.0933(2) -0.32319(15)
H11D H -0.9518 -0.1129 -0.2991
C23D C -0.8811(7) -0.0738(3) -0.35431(17)
H12D H -0.7567 -0.0798 -0.3503
C24D C -1.3090(6) -0.10650(18) -0.29651(14)
O3D O -1.4786(4) -0.10021(14) -0.30042(11)
O3E O -1.5214(4) -0.10021(14) -0.19958(11)
O4D O -1.2461(4) -0.13800(14) -0.26654(10)
O4E O -1.7539(4) -0.13800(14) -0.23346(10)
Rb1 Rb -0.5000 0.26365(5) -0.2500
loop_
_geom_bond_atom_site_label_1
_geom_bond_atom_site_label_2
_geom_bond_site_symmetry_1
_geom_bond_site_symmetry_2
Ni1 N1 1_555 1_555
Fe1 O1B 1_555 1_555
N1 C1 1_555 1_555
N2 Ni1 1_555 1_555
C1 C2 1_555 1_555
C2 H1 1_555 1_555
C3 C2 1_555 1_555
H2 C3 1_555 1_555
C4 N1 1_555 1_555
C5 C4 1_555 1_555
C6 N2 1_555 1_555
C7 C6 1_555 1_555
H3 C7 1_555 1_555
C8 C7 1_555 1_555
H4 C8 1_555 1_555
C9 N2 1_555 1_555
C10 C1 1_555 1_555
C11 C5 1_555 1_555
C12 C11 1_555 1_555
H5 C12 1_555 1_555
C13 C12 1_555 1_555
H6 C13 1_555 1_555
C14 C13 1_555 1_555
C15 C14 1_555 1_555
H7 C15 1_555 1_555
C16 C11 1_555 1_555
H8 C16 1_555 1_555
C17 C14 1_555 1_555
O1 C17 1_555 1_555
O2 C17 1_555 1_555
C18 C10 1_555 1_555
C19 C18 1_555 1_555
H9 C19 1_555 1_555
C20 C19 1_555 1_555
H10 C20 1_555 1_555
C21 C20 1_555 1_555
C22 C21 1_555 1_555
H11 C22 1_555 1_555
C23 C18 1_555 1_555
H12 C23 1_555 1_555
C24 C21 1_555 1_555
O3 C24 1_555 1_555
O4 C24 1_555 1_555
Fe1D O3 1_555 1_555
Fe1F O1D 1_555 1_555
Fe1B O1 1_555 1_555
N1D Ni1 1_555 1_555
N2D Ni1 1_555 1_555
C1D N1D 1_555 1_555
C2D C1D 1_555 1_555
H1D C2D 1_555 1_555
C3D C2D 1_555 1_555
H2D C3D 1_555 1_555
C4D N1D 1_555 1_555
C5D C4D 1_555 1_555
C6D N2D 1_555 1_555
C7D C6D 1_555 1_555
H3D C7D 1_555 1_555
C8D C7D 1_555 1_555
H4D C8D 1_555 1_555
C9D C10 1_555 1_555
C10D C9 1_555 1_555
C11D C5D 1_555 1_555
C12D C11D 1_555 1_555
H5D C12D 1_555 1_555
C13D C12D 1_555 1_555
H6D C13D 1_555 1_555
C14D C13D 1_555 1_555
C15D C14D 1_555 1_555
H7D C15D 1_555 1_555
C16D C11D 1_555 1_555
H8D C16D 1_555 1_555
C17D C14D 1_555 1_555
O1D C17D 1_555 1_555
O1C Fe1 1_555 1_555
O2D C17D 1_555 1_555
C18D C10D 1_555 1_555
C19D C18D 1_555 1_555
H9D C19D 1_555 1_555
C20D C19D 1_555 1_555
H10D C20D 1_555 1_555
C21D C20D 1_555 1_555
C22D C21D 1_555 1_555
H11D C22D 1_555 1_555
C23D C18D 1_555 1_555
H12D C23D 1_555 1_555
C24D C21D 1_555 1_555
O3D Fe1 1_555 1_555
O3E Fe1 1_555 1_555
O4D Fe1 1_555 1_555
O4E Fe1 1_555 1_555
C3 C4 1_555 1_555
C5 C6 1_555 1_555
C8 C9 1_555 1_555
C15 C16 1_555 1_555
C22 C23 1_555 1_555
O4 Fe1D 1_555 1_555
N2D C9D 1_555 1_555
C1D C10D 1_555 1_555
C3D C4D 1_555 1_555
C5D C6D 1_555 1_555
C8D C9D 1_555 1_555
C15D C16D 1_555 1_555
C22D C23D 1_555 1_555
C24D O3D 1_555 1_555
C24D O4D 1_555 1_555

#END
