
#######################################################################
#
#                 Cambridge Crystallographic Data Centre
#                                CCDC 
#
#######################################################################
#
# If this CIF has been generated from an entry in the Cambridge 
# Structural Database, then it will include bibliographic, chemical, 
# crystal, experimental, refinement or atomic coordinate data resulting 
# from the CCDC's data processing and validation procedures.
#
#######################################################################

data_PAQTIM
_symmetry_cell_setting           monoclinic
_symmetry_space_group_name_H-M   'C 2/c'
_symmetry_Int_Tables_number      15
_space_group_name_Hall           '-C 2yn'
loop_
_symmetry_equiv_pos_site_id
_symmetry_equiv_pos_as_xyz
1 x,y,z
2 -x,y,1/2-z
3 1/2+x,1/2+y,z
4 1/2-x,1/2+y,1/2-z
5 -x,-y,-z
6 x,-y,1/2+z
7 1/2-x,1/2-y,-z
8 1/2+x,1/2-y,1/2+z
_cell_length_a                   7.3599(4)
_cell_length_b                   24.7921(13)
_cell_length_c                   29.7428(16)
_cell_angle_alpha                90
_cell_angle_beta                 94.438(2)
_cell_angle_gamma                90
_cell_volume                     5410.82
loop_
_atom_site_label
_atom_site_type_symbol
_atom_site_fract_x
_atom_site_fract_y
_atom_site_fract_z
Cs1 Cs 0.50432(9) -0.23084(3) 0.27118(3)
Cs1A Cs 0.49568(9) -0.23084(3) 0.22882(3)
O5 O 0.650(3) -0.2064(8) 0.3735(6)
N3 N 0.8553(19) -0.1840(6) 0.4313(4)
C25 C 0.874(2) -0.1786(7) 0.4824(5)
C26 C 1.0302(18) -0.1546(6) 0.4134(5)
C27 C 0.722(3) -0.2008(8) 0.4133(7)
Ni1 Ni 0.0000 0.0000 0.5000
Fe1 Fe 1.0000 -0.15343(3) 0.2500
C1 C -0.3288(6) 0.0538(2) 0.53435(14)
C2 C -0.4599(9) 0.0954(3) 0.52325(18)
H1 H -0.5558 0.1054 0.5401
N1 N -0.2072(5) 0.04926(14) 0.50128(11)
C3 C -0.4183(9) 0.1173(3) 0.4840(2)
H2 H -0.4791 0.1454 0.4686
C4 C -0.2612(6) 0.08865(19) 0.47040(15)
C5 C -0.1780(6) 0.10099(17) 0.43147(15)
C6 C -0.0277(6) 0.07251(17) 0.41853(14)
C7 C 0.0494(7) 0.0812(2) 0.37586(17)
H3 H 0.0120 0.1064 0.3539
N2 N 0.0597(4) 0.03103(14) 0.44253(11)
C8 C 0.1868(7) 0.0453(2) 0.37435(16)
H4 H 0.2628 0.0411 0.3510
C9 C 0.1936(5) 0.01468(18) 0.41562(14)
C10 C -0.3228(5) 0.02514(18) 0.57401(13)
C11 C -0.2565(7) 0.1436(2) 0.40093(17)
C12 C -0.1626(11) 0.1909(2) 0.3932(2)
H5 H -0.0483 0.1971 0.4079
C13 C -0.2424(15) 0.2293(3) 0.3630(3)
H6 H -0.1812 0.2613 0.3579
C14 C -0.4122(12) 0.2198(4) 0.3405(3)
C15 C -0.5053(11) 0.1738(4) 0.3486(3)
H7 H -0.6201 0.1679 0.3341
C16 C -0.4288(8) 0.1355(3) 0.3786(2)
H8 H -0.4931 0.1041 0.3839
C17 C -0.5204(15) 0.2601(5) 0.3049(3)
O1 O -0.6568(13) 0.2455(4) 0.2863(4)
O2 O -0.4119(7) 0.2976(2) 0.29721(18)
C18 C -0.4512(6) 0.0401(2) 0.60844(14)
C19 C -0.3841(6) 0.0678(3) 0.64696(16)
H9 H -0.2598 0.0745 0.6519
C20 C -0.5022(6) 0.0855(2) 0.67801(16)
H10 H -0.4571 0.1047 0.7034
C21 C -0.6869(6) 0.07483(19) 0.67133(14)
C22 C -0.7549(6) 0.04526(19) 0.63391(15)
H11 H -0.8783 0.0369 0.6300
C23 C -0.6369(6) 0.02826(19) 0.60228(15)
H12 H -0.6820 0.0090 0.5770
C24 C -0.8124(5) 0.09841(17) 0.70273(13)
O3 O -0.7480(4) 0.13042(14) 0.73408(10)
O4 O -0.9804(4) 0.09047(14) 0.69884(11)
Fe1D Fe -1.0000 0.15343(3) 0.7500
Fe1B Fe -0.5000 0.34657(3) 0.2500
Fe1F Fe 0.5000 -0.34657(3) 0.7500
C1D C 0.3288(6) -0.0538(2) 0.46565(14)
C2D C 0.4599(9) -0.0954(3) 0.47675(18)
H1D H 0.5558 -0.1054 0.4599
N1D N 0.2072(5) -0.04926(14) 0.49872(11)
C3D C 0.4183(9) -0.1173(3) 0.5160(2)
H2D H 0.4791 -0.1454 0.5314
C4D C 0.2612(6) -0.08865(19) 0.52960(15)
C5D C 0.1780(6) -0.10099(17) 0.56853(15)
C6D C 0.0277(6) -0.07251(17) 0.58147(14)
C7D C -0.0494(7) -0.0812(2) 0.62414(17)
H3D H -0.0120 -0.1064 0.6461
N2D N -0.0597(4) -0.03103(14) 0.55747(11)
C8D C -0.1868(7) -0.0453(2) 0.62565(16)
H4D H -0.2628 -0.0411 0.6490
C9D C -0.1936(5) -0.01468(18) 0.58438(14)
C10D C 0.3228(5) -0.02514(18) 0.42599(13)
C11D C 0.2565(7) -0.1436(2) 0.59907(17)
C12D C 0.1626(11) -0.1909(2) 0.6068(2)
H5D H 0.0483 -0.1971 0.5921
C13D C 0.2424(15) -0.2293(3) 0.6370(3)
H6D H 0.1812 -0.2613 0.6421
C14D C 0.4122(12) -0.2198(4) 0.6595(3)
C15D C 0.5053(11) -0.1738(4) 0.6514(3)
H7D H 0.6201 -0.1679 0.6659
C16D C 0.4288(8) -0.1355(3) 0.6214(2)
H8D H 0.4931 -0.1041 0.6161
C17D C 0.5204(15) -0.2601(5) 0.6951(3)
O1D O 0.6568(13) -0.2455(4) 0.7137(4)
O2D O 0.4119(7) -0.2976(2) 0.70279(18)
O2B O 1.0881(7) -0.2024(2) 0.29721(18)
O2C O 0.9119(7) -0.2024(2) 0.20279(18)
C18D C 0.4512(6) -0.0401(2) 0.39156(14)
C19D C 0.3841(6) -0.0678(3) 0.35304(16)
H9D H 0.2598 -0.0745 0.3481
C20D C 0.5022(6) -0.0855(2) 0.32199(16)
H10D H 0.4571 -0.1047 0.2966
C21D C 0.6869(6) -0.07483(19) 0.32867(14)
C22D C 0.7549(6) -0.04526(19) 0.36609(15)
H11D H 0.8783 -0.0369 0.3700
C23D C 0.6369(6) -0.02826(19) 0.39772(15)
H12D H 0.6820 -0.0090 0.4230
C24D C 0.8124(5) -0.09841(17) 0.29727(13)
O3D O 0.7480(4) -0.13042(14) 0.26592(10)
O3E O 1.2520(4) -0.13042(14) 0.23408(10)
O4D O 0.9804(4) -0.09047(14) 0.30116(11)
O4E O 1.0196(4) -0.09047(14) 0.19884(11)
O6? O 0.991(3) -0.2559(8) 0.4889(6)
N4? N 0.983(2) -0.1923(7) 0.4360(5)
C28? C 0.8553(19) -0.1840(6) 0.4313(4)
C29? C 1.068(3) -0.2183(8) 0.4702(6)
O7? O 0.569(5) -0.3585(14) 0.2419(13)
N5? N 0.789(2) -0.4276(11) 0.2493(9)
C30? C 0.615(4) -0.4613(13) 0.2464(11)
C31? C 1.0000 -0.4358(18) 0.2500
C32? C 0.737(6) -0.3702(18) 0.2475(14)
loop_
_geom_bond_atom_site_label_1
_geom_bond_atom_site_label_2
_geom_bond_site_symmetry_1
_geom_bond_site_symmetry_2
Ni1 N1 1_555 1_555
Fe1 O2B 1_555 1_555
Cs1 Cs1A 1_555 1_555
C1 C2 1_555 1_555
C2 H1 1_555 1_555
N1 C1 1_555 1_555
C3 C2 1_555 1_555
H2 C3 1_555 1_555
C4 N1 1_555 1_555
C5 C4 1_555 1_555
C6 C5 1_555 1_555
C7 C6 1_555 1_555
H3 C7 1_555 1_555
N2 Ni1 1_555 1_555
C8 C7 1_555 1_555
H4 C8 1_555 1_555
C9 N2 1_555 1_555
C10 C1 1_555 1_555
C11 C5 1_555 1_555
C12 C11 1_555 1_555
H5 C12 1_555 1_555
C13 C12 1_555 1_555
H6 C13 1_555 1_555
C14 C13 1_555 1_555
C15 C14 1_555 1_555
H7 C15 1_555 1_555
C16 C11 1_555 1_555
H8 C16 1_555 1_555
C17 C14 1_555 1_555
O1 C17 1_555 1_555
O2 C17 1_555 1_555
C18 C10 1_555 1_555
C19 C18 1_555 1_555
H9 C19 1_555 1_555
C20 C19 1_555 1_555
H10 C20 1_555 1_555
C21 C20 1_555 1_555
C22 C21 1_555 1_555
H11 C22 1_555 1_555
C23 C18 1_555 1_555
H12 C23 1_555 1_555
C24 C21 1_555 1_555
O3 C24 1_555 1_555
O4 C24 1_555 1_555
O5 C27 1_555 1_555
N3 C25 1_555 1_555
C26 N3 1_555 1_555
C27 N3 1_555 1_555
Fe1D O3 1_555 1_555
Fe1B O2 1_555 1_555
Fe1F O2D 1_555 1_555
C1D C2D 1_555 1_555
C2D H1D 1_555 1_555
N1D Ni1 1_555 1_555
C3D C2D 1_555 1_555
H2D C3D 1_555 1_555
C4D N1D 1_555 1_555
C5D C4D 1_555 1_555
C6D C5D 1_555 1_555
C7D C6D 1_555 1_555
H3D C7D 1_555 1_555
N2D Ni1 1_555 1_555
C8D C7D 1_555 1_555
H4D C8D 1_555 1_555
C9D C10 1_555 1_555
C10D C9 1_555 1_555
C11D C5D 1_555 1_555
C12D C11D 1_555 1_555
H5D C12D 1_555 1_555
C13D C12D 1_555 1_555
H6D C13D 1_555 1_555
C14D C13D 1_555 1_555
C15D C14D 1_555 1_555
H7D C15D 1_555 1_555
C16D C11D 1_555 1_555
H8D C16D 1_555 1_555
C17D C14D 1_555 1_555
O1D C17D 1_555 1_555
O2D C17D 1_555 1_555
O2C Fe1 1_555 1_555
C18D C10D 1_555 1_555
C19D C18D 1_555 1_555
H9D C19D 1_555 1_555
C20D C19D 1_555 1_555
H10D C20D 1_555 1_555
C21D C20D 1_555 1_555
C22D C21D 1_555 1_555
H11D C22D 1_555 1_555
C23D C18D 1_555 1_555
H12D C23D 1_555 1_555
C24D C21D 1_555 1_555
O3D Fe1 1_555 1_555
O3E Fe1 1_555 1_555
O4D Fe1 1_555 1_555
O4E Fe1 1_555 1_555
C3 C4 1_555 1_555
C6 N2 1_555 1_555
C8 C9 1_555 1_555
C15 C16 1_555 1_555
C22 C23 1_555 1_555
O4 Fe1D 1_555 1_555
C1D N1D 1_555 1_555
C1D C10D 1_555 1_555
C3D C4D 1_555 1_555
C6D N2D 1_555 1_555
N2D C9D 1_555 1_555
C8D C9D 1_555 1_555
C15D C16D 1_555 1_555
C22D C23D 1_555 1_555
C24D O3D 1_555 1_555
C24D O4D 1_555 1_555

#END
