
#######################################################################
#
#                 Cambridge Crystallographic Data Centre
#                                CCDC 
#
#######################################################################
#
# If this CIF has been generated from an entry in the Cambridge 
# Structural Database, then it will include bibliographic, chemical, 
# crystal, experimental, refinement or atomic coordinate data resulting 
# from the CCDC's data processing and validation procedures.
#
#######################################################################

data_PAQTOS
_symmetry_cell_setting           monoclinic
_symmetry_space_group_name_H-M   'C 2/c'
_symmetry_Int_Tables_number      15
_space_group_name_Hall           '-C 2yn'
loop_
_symmetry_equiv_pos_site_id
_symmetry_equiv_pos_as_xyz
1 x,y,z
2 -x,y,1/2-z
3 1/2+x,1/2+y,z
4 1/2-x,1/2+y,1/2-z
5 -x,-y,-z
6 x,-y,1/2+z
7 1/2-x,1/2-y,-z
8 1/2+x,1/2-y,1/2+z
_cell_length_a                   7.2383(4)
_cell_length_b                   24.6730(13)
_cell_length_c                   30.0729(17)
_cell_angle_alpha                90
_cell_angle_beta                 94.671(2)
_cell_angle_gamma                90
_cell_volume                     5352.9
loop_
_atom_site_label
_atom_site_type_symbol
_atom_site_fract_x
_atom_site_fract_y
_atom_site_fract_z
Rb1 Rb -0.5006(3) 0.22847(7) 0.26939(8)
Rb1A Rb -0.4994(3) 0.22847(7) 0.23061(8)
O6 O -0.338(5) 0.2037(17) 0.3751(10)
C28 C -0.264(3) 0.2024(10) 0.4144(8)
N4 N -0.092(3) 0.1867(8) 0.4359(7)
C29 C 0.004(7) 0.218(2) 0.4742(15)
C30 C 0.046(2) 0.1549(7) 0.4145(6)
Fe1 Fe 0.0000 0.15416(5) 0.2500
Ni1 Ni -1.0000 0.0000 0.5000
C1 C -0.7324(10) 0.0882(3) 0.5299(2)
C2 C -0.5753(13) 0.1177(4) 0.5169(3)
H1 H -0.5139 0.1457 0.5326
C3 C -0.5332(13) 0.0966(4) 0.4774(3)
H2 H -0.4365 0.1071 0.4608
C4 C -0.6681(10) 0.0546(3) 0.4662(2)
N1 N -0.7906(7) 0.0497(2) 0.49910(16)
C5 C -0.6767(8) 0.0266(3) 0.42641(19)
C6 C -0.8068(9) -0.0130(3) 0.4161(2)
C7 C -0.8155(10) -0.0436(3) 0.3751(2)
H3 H -0.7394 -0.0393 0.3519
C8 C -0.9536(9) -0.0795(3) 0.3767(2)
H4 H -0.9923 -0.1046 0.3548
C9 C -1.0310(9) -0.0716(3) 0.4191(2)
N2 N -0.9409(7) -0.0302(2) 0.44298(16)
C10 C -0.8182(9) 0.1008(3) 0.5684(2)
C11 C -0.5475(8) 0.0425(3) 0.3925(2)
C12 C -0.3585(9) 0.0304(3) 0.3977(2)
H5 H -0.3100 0.0109 0.4224
C13 C -0.2440(9) 0.0477(3) 0.3659(2)
H6 H -0.1180 0.0399 0.3696
C14 C -0.3135(8) 0.0764(3) 0.3288(2)
C15 C -0.5022(10) 0.0868(4) 0.3228(2)
H7 H -0.5505 0.1054 0.2976
C16 C -0.6193(9) 0.0696(4) 0.3544(2)
H8 H -0.7459 0.0763 0.3501
C17 C -0.1893(8) 0.0997(2) 0.29669(18)
O1 O -0.0190(6) 0.0909(2) 0.30010(14)
O2 O -0.2568(6) 0.13181(19) 0.26623(13)
C18 C -0.7375(11) 0.1433(3) 0.5995(2)
C19 C -0.8337(14) 0.1897(3) 0.6072(3)
H9 H -0.9496 0.1960 0.5924
C20 C -0.7542(17) 0.2276(4) 0.6379(4)
H10 H -0.8176 0.2594 0.6432
C21 C -0.5832(15) 0.2182(4) 0.6601(3)
C22 C -0.4857(14) 0.1738(5) 0.6513(4)
H11 H -0.3677 0.1683 0.6652
C23 C -0.5640(12) 0.1360(4) 0.6210(3)
H12 H -0.4974 0.1049 0.6152
C24 C -0.4790(18) 0.2600(6) 0.6950(4)
O3 O -0.3340(15) 0.2473(5) 0.7134(4)
O4 O -0.5935(11) 0.2976(3) 0.7032(2)
Fe1F Fe -0.5000 0.34584(5) 0.7500
Fe1B Fe -1.5000 -0.34584(5) 0.2500
Fe1D Fe -2.0000 -0.15416(5) 0.7500
C1D C -1.2676(10) -0.0882(3) 0.4701(2)
C2D C -1.4247(13) -0.1177(4) 0.4831(3)
H1D H -1.4861 -0.1457 0.4674
C3D C -1.4668(13) -0.0966(4) 0.5226(3)
H2D H -1.5635 -0.1071 0.5392
C4D C -1.3319(10) -0.0546(3) 0.5338(2)
N1D N -1.2094(7) -0.0497(2) 0.50090(16)
C5D C -1.3233(8) -0.0266(3) 0.57359(19)
C6D C -1.1932(9) 0.0130(3) 0.5839(2)
C7D C -1.1845(10) 0.0436(3) 0.6249(2)
H3D H -1.2606 0.0393 0.6481
C8D C -1.0464(9) 0.0795(3) 0.6233(2)
H4D H -1.0077 0.1046 0.6452
C9D C -0.9690(9) 0.0716(3) 0.5809(2)
N2D N -1.0591(7) 0.0302(2) 0.55702(16)
C10D C -1.1818(9) -0.1008(3) 0.4316(2)
C11D C -1.4525(8) -0.0425(3) 0.6075(2)
C12D C -1.6415(9) -0.0304(3) 0.6023(2)
H5D H -1.6900 -0.0109 0.5776
C13D C -1.7560(9) -0.0477(3) 0.6341(2)
H6D H -1.8820 -0.0399 0.6304
C14D C -1.6865(8) -0.0764(3) 0.6712(2)
C15D C -1.4978(10) -0.0868(4) 0.6772(2)
H7D H -1.4495 -0.1054 0.7024
C16D C -1.3807(9) -0.0696(4) 0.6456(2)
H8D H -1.2541 -0.0763 0.6499
C17D C -1.8107(8) -0.0997(2) 0.70331(18)
O1D O -1.9810(6) -0.0909(2) 0.69990(14)
O1A O 0.0190(6) 0.0909(2) 0.19990(14)
O2D O -1.7432(6) -0.13181(19) 0.73377(13)
O2A O 0.2568(6) 0.13181(19) 0.23377(13)
C18D C -1.2625(11) -0.1433(3) 0.4005(2)
C19D C -1.1663(14) -0.1897(3) 0.3928(3)
H9D H -1.0504 -0.1960 0.4076
C20D C -1.2458(17) -0.2276(4) 0.3621(4)
H10D H -1.1824 -0.2594 0.3568
C21D C -1.4168(15) -0.2182(4) 0.3399(3)
C22D C -1.5143(14) -0.1738(5) 0.3487(4)
H11D H -1.6323 -0.1683 0.3348
C23D C -1.4360(12) -0.1360(4) 0.3790(3)
H12D H -1.5026 -0.1049 0.3848
C24D C -1.5210(18) -0.2600(6) 0.3050(4)
O3D O -1.6660(15) -0.2473(5) 0.2866(4)
O4D O -1.4065(11) -0.2976(3) 0.2968(2)
O4F O 0.0935(11) 0.2024(3) 0.2968(2)
O4G O -0.0935(11) 0.2024(3) 0.2032(2)
O5? O -0.513(4) 0.3480(11) 0.2308(8)
C25? C -0.645(6) 0.3637(16) 0.2510(18)
N3? N -0.716(4) 0.4202(12) 0.2548(12)
C26? C -0.555(4) 0.4562(12) 0.2547(14)
C27? C -0.914(4) 0.4350(19) 0.2558(18)
loop_
_geom_bond_atom_site_label_1
_geom_bond_atom_site_label_2
_geom_bond_site_symmetry_1
_geom_bond_site_symmetry_2
Fe1 O1 1_555 1_555
Ni1 N1 1_555 1_555
Rb1 Rb1A 1_555 1_555
C1 C2 1_555 1_555
C2 H1 1_555 1_555
C3 C2 1_555 1_555
H2 C3 1_555 1_555
C4 C3 1_555 1_555
N1 C1 1_555 1_555
C5 C4 1_555 1_555
C6 C5 1_555 1_555
C7 C6 1_555 1_555
H3 C7 1_555 1_555
C8 C7 1_555 1_555
H4 C8 1_555 1_555
C9 C8 1_555 1_555
N2 Ni1 1_555 1_555
C10 C1 1_555 1_555
C11 C5 1_555 1_555
C12 C11 1_555 1_555
H5 C12 1_555 1_555
C13 C12 1_555 1_555
H6 C13 1_555 1_555
C14 C13 1_555 1_555
C15 C14 1_555 1_555
H7 C15 1_555 1_555
C16 C11 1_555 1_555
H8 C16 1_555 1_555
C17 C14 1_555 1_555
O1 C17 1_555 1_555
O2 Fe1 1_555 1_555
C18 C10 1_555 1_555
C19 C18 1_555 1_555
H9 C19 1_555 1_555
C20 C19 1_555 1_555
H10 C20 1_555 1_555
C21 C20 1_555 1_555
C22 C21 1_555 1_555
H11 C22 1_555 1_555
C23 C18 1_555 1_555
H12 C23 1_555 1_555
C24 C21 1_555 1_555
O3 C24 1_555 1_555
O4 C24 1_555 1_555
O6 C28 1_555 1_555
C28 N4 1_555 1_555
N4 C29 1_555 1_555
C30 N4 1_555 1_555
Fe1F O4 1_555 1_555
Fe1B O4D 1_555 1_555
Fe1D O1D 1_555 1_555
C1D C2D 1_555 1_555
C2D H1D 1_555 1_555
C3D C2D 1_555 1_555
H2D C3D 1_555 1_555
C4D C3D 1_555 1_555
N1D Ni1 1_555 1_555
C5D C4D 1_555 1_555
C6D C5D 1_555 1_555
C7D C6D 1_555 1_555
H3D C7D 1_555 1_555
C8D C7D 1_555 1_555
H4D C8D 1_555 1_555
C9D C10 1_555 1_555
N2D Ni1 1_555 1_555
C10D C9 1_555 1_555
C11D C5D 1_555 1_555
C12D C11D 1_555 1_555
H5D C12D 1_555 1_555
C13D C12D 1_555 1_555
H6D C13D 1_555 1_555
C14D C13D 1_555 1_555
C15D C14D 1_555 1_555
H7D C15D 1_555 1_555
C16D C11D 1_555 1_555
H8D C16D 1_555 1_555
C17D C14D 1_555 1_555
O1D C17D 1_555 1_555
O1A Fe1 1_555 1_555
O2D Fe1D 1_555 1_555
O2A Fe1 1_555 1_555
C18D C10D 1_555 1_555
C19D C18D 1_555 1_555
H9D C19D 1_555 1_555
C20D C19D 1_555 1_555
H10D C20D 1_555 1_555
C21D C20D 1_555 1_555
C22D C21D 1_555 1_555
H11D C22D 1_555 1_555
C23D C18D 1_555 1_555
H12D C23D 1_555 1_555
C24D C21D 1_555 1_555
O3D C24D 1_555 1_555
O4D C24D 1_555 1_555
O4F Fe1 1_555 1_555
O4G Fe1 1_555 1_555
C4 N1 1_555 1_555
C6 N2 1_555 1_555
C9 N2 1_555 1_555
C15 C16 1_555 1_555
C17 O2 1_555 1_555
C22 C23 1_555 1_555
C1D N1D 1_555 1_555
C1D C10D 1_555 1_555
C4D N1D 1_555 1_555
C6D N2D 1_555 1_555
C8D C9D 1_555 1_555
C9D N2D 1_555 1_555
C15D C16D 1_555 1_555
C17D O2D 1_555 1_555
C22D C23D 1_555 1_555

#END
