
#######################################################################
#
#                 Cambridge Crystallographic Data Centre
#                                CCDC 
#
#######################################################################
#
# If this CIF has been generated from an entry in the Cambridge 
# Structural Database, then it will include bibliographic, chemical, 
# crystal, experimental, refinement or atomic coordinate data resulting 
# from the CCDC's data processing and validation procedures.
#
#######################################################################

data_PAQVOU
_symmetry_cell_setting           monoclinic
_symmetry_space_group_name_H-M   'C 2/c'
_symmetry_Int_Tables_number      15
_space_group_name_Hall           '-C 2yn'
loop_
_symmetry_equiv_pos_site_id
_symmetry_equiv_pos_as_xyz
1 x,y,z
2 -x,y,1/2-z
3 1/2+x,1/2+y,z
4 1/2-x,1/2+y,1/2-z
5 -x,-y,-z
6 x,-y,1/2+z
7 1/2-x,1/2-y,-z
8 1/2+x,1/2-y,1/2+z
_cell_length_a                   7.4852(11)
_cell_length_b                   24.226(4)
_cell_length_c                   30.107(4)
_cell_angle_alpha                90
_cell_angle_beta                 93.299(4)
_cell_angle_gamma                90
_cell_volume                     5450.45
loop_
_atom_site_label
_atom_site_type_symbol
_atom_site_fract_x
_atom_site_fract_y
_atom_site_fract_z
Fe1 Fe -1.0000 -0.15213(4) 0.7500
Ni1 Ni 0.0000 0.0000 0.5000
N1 N -0.2025(5) -0.05010(14) 0.50230(12)
N2 N 0.0572(4) -0.03014(14) 0.44277(11)
C1 C -0.3199(6) -0.0557(2) 0.53586(16)
C2 C -0.4470(8) -0.0992(3) 0.5246(2)
H1 H -0.5384 -0.1111 0.5420
C3 C -0.4111(8) -0.1187(3) 0.4862(2)
H2 H -0.4742 -0.1466 0.4710
C4 C -0.2572(7) -0.0901(2) 0.47062(15)
C5 C -0.1797(6) -0.10087(18) 0.43106(14)
C6 C -0.0307(6) -0.07245(17) 0.41855(14)
C7 C 0.0479(7) -0.0814(2) 0.37766(16)
H3 H 0.0134 -0.1076 0.3562
C8 C 0.1833(6) -0.0447(2) 0.37573(15)
H4 H 0.2586 -0.0406 0.3524
C9 C 0.1898(6) -0.01369(18) 0.41539(14)
C10 C -0.3131(6) -0.02746(19) 0.57478(14)
C11 C -0.2608(7) -0.1432(2) 0.40085(16)
C12 C -0.1805(9) -0.1921(2) 0.3930(2)
H5 H -0.0716 -0.2006 0.4078
C13 C -0.2606(11) -0.2299(2) 0.3625(2)
H6 H -0.2058 -0.2636 0.3576
C14 C -0.4205(8) -0.2169(3) 0.3397(2)
C15 C -0.5004(9) -0.1710(3) 0.3498(3)
H7 H -0.6142 -0.1640 0.3370
C16 C -0.4213(8) -0.1323(3) 0.3789(2)
H8 H -0.4782 -0.0987 0.3833
C17 C -0.5063(11) -0.2571(3) 0.3068(2)
O1 O -0.4185(6) -0.29903(16) 0.29698(13)
O2 O -0.6542(7) -0.2453(3) 0.2886(2)
C18 C -0.4424(6) -0.04277(18) 0.60928(14)
C19 C -0.6227(6) -0.02963(19) 0.60327(16)
H9 H -0.6634 -0.0100 0.5781
C20 C -0.7426(6) -0.0454(2) 0.63431(16)
H10 H -0.8632 -0.0364 0.6301
C21 C -0.6807(6) -0.07498(18) 0.67199(14)
C22 C -0.4990(6) -0.0873(2) 0.67735(15)
H11 H -0.4564 -0.1071 0.7022
C23 C -0.3818(6) -0.0709(2) 0.64663(15)
H12 H -0.2606 -0.0789 0.6511
C24 C -0.8069(6) -0.09748(18) 0.70341(14)
O3 O -0.9717(4) -0.08809(14) 0.69895(11)
O4 O -0.7521(4) -0.12888(13) 0.73477(10)
Fe1F Fe -0.5000 -0.34787(4) 0.2500
Fe1B Fe 0.5000 0.34787(4) 0.7500
Fe1D Fe 1.0000 0.15213(4) 0.2500
N1D N 0.2025(5) 0.05010(14) 0.49770(12)
N2D N -0.0572(4) 0.03014(14) 0.55723(11)
C1D C 0.3199(6) 0.0557(2) 0.46414(16)
C2D C 0.4470(8) 0.0992(3) 0.4754(2)
H1D H 0.5384 0.1111 0.4580
C3D C 0.4111(8) 0.1187(3) 0.5138(2)
H2D H 0.4742 0.1466 0.5290
C4D C 0.2572(7) 0.0901(2) 0.52938(15)
C5D C 0.1797(6) 0.10087(18) 0.56894(14)
C6D C 0.0307(6) 0.07245(17) 0.58145(14)
C7D C -0.0479(7) 0.0814(2) 0.62234(16)
H3D H -0.0134 0.1076 0.6438
C8D C -0.1833(6) 0.0447(2) 0.62427(15)
H4D H -0.2586 0.0406 0.6476
C9D C -0.1898(6) 0.01369(18) 0.58461(14)
C10D C 0.3131(6) 0.02746(19) 0.42522(14)
C11D C 0.2608(7) 0.1432(2) 0.59915(16)
C12D C 0.1805(9) 0.1921(2) 0.6070(2)
H5D H 0.0716 0.2006 0.5922
C13D C 0.2606(11) 0.2299(2) 0.6375(2)
H6D H 0.2058 0.2636 0.6424
C14D C 0.4205(8) 0.2169(3) 0.6603(2)
C15D C 0.5004(9) 0.1710(3) 0.6502(3)
H7D H 0.6142 0.1640 0.6630
C16D C 0.4213(8) 0.1323(3) 0.6211(2)
H8D H 0.4782 0.0987 0.6167
C17D C 0.5063(11) 0.2571(3) 0.6932(2)
O1D O 0.4185(6) 0.29903(16) 0.70302(13)
O1F O -1.0815(6) -0.20097(16) 0.70302(13)
O1G O -0.9185(6) -0.20097(16) 0.79698(13)
O2D O 0.6542(7) 0.2453(3) 0.7114(2)
C18D C 0.4424(6) 0.04277(18) 0.39072(14)
C19D C 0.6227(6) 0.02963(19) 0.39673(16)
H9D H 0.6634 0.0100 0.4219
C20D C 0.7426(6) 0.0454(2) 0.36569(16)
H10D H 0.8632 0.0364 0.3699
C21D C 0.6807(6) 0.07498(18) 0.32801(14)
C22D C 0.4990(6) 0.0873(2) 0.32265(15)
H11D H 0.4564 0.1071 0.2978
C23D C 0.3818(6) 0.0709(2) 0.35337(15)
H12D H 0.2606 0.0789 0.3489
C24D C 0.8069(6) 0.09748(18) 0.29659(14)
O3D O 0.9717(4) 0.08809(14) 0.30105(11)
O3A O -1.0283(4) -0.08809(14) 0.80105(11)
O4D O 0.7521(4) 0.12888(13) 0.26523(10)
O4A O -1.2479(4) -0.12888(13) 0.76523(10)
Li1 Li 0.5000 0.2283(6) 0.2500
loop_
_geom_bond_atom_site_label_1
_geom_bond_atom_site_label_2
_geom_bond_site_symmetry_1
_geom_bond_site_symmetry_2
Fe1 O3 1_555 1_555
Ni1 N1 1_555 1_555
N1 C1 1_555 1_555
N2 Ni1 1_555 1_555
C1 C2 1_555 1_555
C2 H1 1_555 1_555
C3 C2 1_555 1_555
H2 C3 1_555 1_555
C4 N1 1_555 1_555
C5 C4 1_555 1_555
C6 N2 1_555 1_555
C7 C6 1_555 1_555
H3 C7 1_555 1_555
C8 C7 1_555 1_555
H4 C8 1_555 1_555
C9 N2 1_555 1_555
C10 C1 1_555 1_555
C11 C5 1_555 1_555
C12 C11 1_555 1_555
H5 C12 1_555 1_555
C13 C12 1_555 1_555
H6 C13 1_555 1_555
C14 C13 1_555 1_555
C15 C14 1_555 1_555
H7 C15 1_555 1_555
C16 C11 1_555 1_555
H8 C16 1_555 1_555
C17 C14 1_555 1_555
O1 C17 1_555 1_555
O2 C17 1_555 1_555
C18 C10 1_555 1_555
C19 C18 1_555 1_555
H9 C19 1_555 1_555
C20 C19 1_555 1_555
H10 C20 1_555 1_555
C21 C20 1_555 1_555
C22 C21 1_555 1_555
H11 C22 1_555 1_555
C23 C18 1_555 1_555
H12 C23 1_555 1_555
C24 C21 1_555 1_555
O3 C24 1_555 1_555
O4 Fe1 1_555 1_555
Fe1F O1 1_555 1_555
Fe1B O1D 1_555 1_555
Fe1D O3D 1_555 1_555
N1D Ni1 1_555 1_555
N2D Ni1 1_555 1_555
C1D N1D 1_555 1_555
C2D C1D 1_555 1_555
H1D C2D 1_555 1_555
C3D C2D 1_555 1_555
H2D C3D 1_555 1_555
C4D N1D 1_555 1_555
C5D C4D 1_555 1_555
C6D N2D 1_555 1_555
C7D C6D 1_555 1_555
H3D C7D 1_555 1_555
C8D C7D 1_555 1_555
H4D C8D 1_555 1_555
C9D C10 1_555 1_555
C10D C9 1_555 1_555
C11D C5D 1_555 1_555
C12D C11D 1_555 1_555
H5D C12D 1_555 1_555
C13D C12D 1_555 1_555
H6D C13D 1_555 1_555
C14D C13D 1_555 1_555
C15D C14D 1_555 1_555
H7D C15D 1_555 1_555
C16D C11D 1_555 1_555
H8D C16D 1_555 1_555
C17D C14D 1_555 1_555
O1D C17D 1_555 1_555
O1F Fe1 1_555 1_555
O1G Fe1 1_555 1_555
O2D C17D 1_555 1_555
C18D C10D 1_555 1_555
C19D C18D 1_555 1_555
H9D C19D 1_555 1_555
C20D C19D 1_555 1_555
H10D C20D 1_555 1_555
C21D C20D 1_555 1_555
C22D C21D 1_555 1_555
H11D C22D 1_555 1_555
C23D C18D 1_555 1_555
H12D C23D 1_555 1_555
C24D C21D 1_555 1_555
O3D C24D 1_555 1_555
O3A Fe1 1_555 1_555
O4D Fe1D 1_555 1_555
O4A Fe1 1_555 1_555
C3 C4 1_555 1_555
C5 C6 1_555 1_555
C8 C9 1_555 1_555
C15 C16 1_555 1_555
C22 C23 1_555 1_555
C24 O4 1_555 1_555
N2D C9D 1_555 1_555
C1D C10D 1_555 1_555
C3D C4D 1_555 1_555
C5D C6D 1_555 1_555
C8D C9D 1_555 1_555
C15D C16D 1_555 1_555
C22D C23D 1_555 1_555
C24D O4D 1_555 1_555

#END
