
#######################################################################
#
#                 Cambridge Crystallographic Data Centre
#                                CCDC 
#
#######################################################################
#
# If this CIF has been generated from an entry in the Cambridge 
# Structural Database, then it will include bibliographic, chemical, 
# crystal, experimental, refinement or atomic coordinate data resulting 
# from the CCDC's data processing and validation procedures.
#
#######################################################################

data_PAQVIM
_symmetry_cell_setting           monoclinic
_symmetry_space_group_name_H-M   'P 21/n'
_symmetry_Int_Tables_number      14
_space_group_name_Hall           '-P 2yn'
loop_
_symmetry_equiv_pos_site_id
_symmetry_equiv_pos_as_xyz
1 x,y,z
2 1/2-x,1/2+y,1/2-z
3 -x,-y,-z
4 1/2+x,1/2-y,1/2+z
_cell_length_a                   11.7937(2)
_cell_length_b                   12.1161(3)
_cell_length_c                   15.5763(2)
_cell_angle_alpha                90
_cell_angle_beta                 93.750(2)
_cell_angle_gamma                90
_cell_volume                     2220.99
loop_
_atom_site_label
_atom_site_type_symbol
_atom_site_fract_x
_atom_site_fract_y
_atom_site_fract_z
S1 S -0.25301(10) -0.23330(1) -0.49279(7)
O1 O -0.3333(3) -0.1962(3) -0.4255(2)
O2 O -0.3145(3) -0.3164(3) -0.5506(2)
O3 O -0.1520(3) -0.2819(3) -0.4489(2)
O4 O -0.2262(3) -0.1378(3) -0.5466(2)
O5 O -0.5646(3) 0.0415(3) -0.4509(2)
O6 O -0.5676(3) -0.1890(3) -0.4510(2)
O7 O -0.5146(3) -0.4050(3) -0.4790(2)
O8 O -0.2923(3) -0.4984(3) -0.4411(2)
N1 N -0.4919(3) -0.0980(4) -0.2995(3)
C1 C -0.5722(4) -0.1632(5) -0.2667(3)
C2 C -0.5915(4) -0.1642(5) -0.1799(3)
C3 C -0.5276(4) -0.0965(5) -0.1244(3)
C4 C -0.4460(4) -0.0287(5) -0.1566(3)
C5 C -0.4300(4) -0.0311(4) -0.2450(3)
C6 C -0.3442(4) 0.0390(4) -0.2849(3)
C7 C -0.2736(4) 0.1131(5) -0.2390(3)
C8 C -0.1963(4) 0.1739(5) -0.2832(3)
C9 C -0.1913(4) 0.1595(5) -0.3710(3)
C10 C -0.2645(4) 0.0848(5) -0.4126(3)
N2 N -0.3406(3) 0.0254(4) -0.3711(3)
N3 N -0.2724(3) -0.5602(4) -0.6063(3)
C11 C -0.1862(4) -0.6229(5) -0.5722(3)
C12 C -0.1157(4) -0.6844(5) -0.6215(3)
C13 C -0.1344(4) -0.6806(5) -0.7102(3)
C14 C -0.2238(4) -0.6182(5) -0.7464(3)
C15 C -0.2927(4) -0.5589(5) -0.6929(3)
C16 C -0.3941(4) -0.4948(4) -0.7252(3)
C17 C -0.4293(4) -0.4896(5) -0.8127(3)
C18 C -0.5278(4) -0.4309(5) -0.8366(3)
C19 C -0.5881(4) -0.3805(5) -0.7732(3)
C20 C -0.5463(4) -0.3895(5) -0.6875(3)
N4 N -0.4512(3) -0.4456(4) -0.6632(3)
V1 V -0.47124(7) -0.09480(7) -0.43571(5)
V2 V -0.37813(7) -0.46915(7) -0.52245(5)
H1 H -0.6367(3) 0.0570(3) -0.4358(2)
H2 H -0.5435(3) -0.3430(3) -0.4822(2)
H3 H -0.6168(4) -0.2097(5) -0.3047(3)
H4 H -0.6481(4) -0.2109(5) -0.1588(3)
H5 H -0.5394(4) -0.0965(5) -0.0647(3)
H6 H -0.4015(4) 0.0188(5) -0.1194(3)
H7 H -0.2782(4) 0.1220(5) -0.1787(3)
H8 H -0.1472(4) 0.2251(5) -0.2533(3)
H9 H -0.1385(4) 0.2000(5) -0.4021(3)
H10 H -0.2611(4) 0.0750(5) -0.4729(3)
H11 H -0.1733(4) -0.6250(5) -0.5113(3)
H12 H -0.0561(4) -0.7280(5) -0.5952(2)
H13 H -0.0865(4) -0.7205(5) -0.7459(3)
H14 H -0.2381(4) -0.6156(5) -0.8071(3)
H15 H -0.3872(4) -0.5252(5) -0.8547(3)
H16 H -0.5537(4) -0.4253(5) -0.8954(3)
H17 H -0.6560(4) -0.3408(5) -0.7880(3)
H18 H -0.5870(4) -0.3544(5) -0.6444(3)
V2B V -0.62187(7) -0.53085(7) -0.47755(5)
O2B O -0.6855(3) -0.6836(3) -0.4494(2)
S1B S -0.74699(10) -0.76670(1) -0.50721(7)
O1B O -0.6667(3) -0.8038(3) -0.5745(2)
O3B O -0.8480(3) -0.7181(3) -0.5511(2)
O4B O -0.7738(3) -0.8622(3) -0.4534(2)
O7B O -0.4854(3) -0.5950(3) -0.5210(2)
H2B H -0.4565(3) -0.6570(3) -0.5178(2)
O8B O -0.7077(3) -0.5016(3) -0.5589(2)
N3B N -0.7276(3) -0.4398(4) -0.3937(3)
C11B C -0.8138(4) -0.3771(5) -0.4278(3)
C12B C -0.8843(4) -0.3156(5) -0.3785(3)
C13B C -0.8656(4) -0.3194(5) -0.2898(3)
C14B C -0.7762(4) -0.3818(5) -0.2536(3)
C15B C -0.7073(4) -0.4411(5) -0.3071(3)
C16B C -0.6059(4) -0.5052(4) -0.2748(3)
C17B C -0.5707(4) -0.5104(5) -0.1873(3)
C18B C -0.4722(4) -0.5691(5) -0.1634(3)
C19B C -0.4119(4) -0.6195(5) -0.2268(3)
C20B C -0.4537(4) -0.6105(5) -0.3125(3)
N4B N -0.5488(3) -0.5544(4) -0.3368(3)
H18B H -0.4130(4) -0.6456(5) -0.3556(3)
H17B H -0.3440(4) -0.6592(5) -0.2120(3)
H16B H -0.4463(4) -0.5747(5) -0.1046(3)
H15B H -0.6128(4) -0.4748(5) -0.1453(3)
H14B H -0.7619(4) -0.3844(5) -0.1929(3)
H13B H -0.9135(4) -0.2795(5) -0.2541(3)
H12B H -0.9439(4) -0.2720(5) -0.4048(2)
H11B H -0.8267(4) -0.3750(5) -0.4887(3)
O5B O -0.4354(3) -0.0415(3) -0.5491(2)
H1B H -0.3633(3) -0.0570(3) -0.5642(2)
V1B V -0.52876(7) 0.09480(7) -0.56429(5)
O1B_2 O -0.6667(3) 0.1962(3) -0.5745(2)
O6B O -0.4324(3) 0.1890(3) -0.5490(2)
N1B N -0.5081(3) 0.0980(4) -0.7005(3)
N2B N -0.6594(3) -0.0254(4) -0.6289(3)
C1B C -0.4278(4) 0.1632(5) -0.7333(3)
C5B C -0.5700(4) 0.0311(4) -0.7550(3)
C6B C -0.6558(4) -0.0390(4) -0.7151(3)
C10B C -0.7355(4) -0.0848(5) -0.5874(3)
C2B C -0.4085(4) 0.1642(5) -0.8201(3)
H3B H -0.3832(4) 0.2097(5) -0.6953(3)
C4B C -0.5540(4) 0.0287(5) -0.8434(3)
C7B C -0.7264(4) -0.1131(5) -0.7610(3)
C9B C -0.8087(4) -0.1595(5) -0.6290(3)
H10B H -0.7389(4) -0.0750(5) -0.5271(3)
C3B C -0.4724(4) 0.0965(5) -0.8756(3)
H4B H -0.3519(4) 0.2109(5) -0.8412(3)
H6B H -0.5985(4) -0.0188(5) -0.8806(3)
C8B C -0.8037(4) -0.1739(5) -0.7168(3)
H7B H -0.7218(4) -0.1220(5) -0.8213(3)
H9B H -0.8615(4) -0.2000(5) -0.5979(3)
H5B H -0.4606(4) 0.0965(5) -0.9353(3)
H8B H -0.8528(4) -0.2251(5) -0.7467(3)
V1B_2 V -0.52876(7) -0.90520(7) -0.56429(5)
loop_
_geom_bond_atom_site_label_1
_geom_bond_atom_site_label_2
_geom_bond_site_symmetry_1
_geom_bond_site_symmetry_2
S1 O1 1_555 1_555
O1 V1 1_555 1_555
O2 S1 1_555 1_555
O3 S1 1_555 1_555
O4 S1 1_555 1_555
O5 V1 1_555 1_555
O6 V1 1_555 1_555
O7 V2 1_555 1_555
O8 V2 1_555 1_555
N1 C1 1_555 1_555
C1 C2 1_555 1_555
C2 C3 1_555 1_555
C3 C4 1_555 1_555
C4 C5 1_555 1_555
C5 N1 1_555 1_555
C6 C5 1_555 1_555
C7 C6 1_555 1_555
C8 C7 1_555 1_555
C9 C8 1_555 1_555
C10 C9 1_555 1_555
N2 C6 1_555 1_555
N3 C11 1_555 1_555
C11 C12 1_555 1_555
C12 C13 1_555 1_555
C13 C14 1_555 1_555
C14 C15 1_555 1_555
C15 N3 1_555 1_555
C16 C15 1_555 1_555
C17 C16 1_555 1_555
C18 C17 1_555 1_555
C19 C18 1_555 1_555
C20 C19 1_555 1_555
N4 C16 1_555 1_555
V1 N1 1_555 1_555
V2 O2 1_555 1_555
H1 O5 1_555 1_555
H2 O7 1_555 1_555
H3 C1 1_555 1_555
H4 C2 1_555 1_555
H5 C3 1_555 1_555
H6 C4 1_555 1_555
H7 C7 1_555 1_555
H8 C8 1_555 1_555
H9 C9 1_555 1_555
H10 C10 1_555 1_555
H11 C11 1_555 1_555
H12 C12 1_555 1_555
H13 C13 1_555 1_555
H14 C14 1_555 1_555
H15 C17 1_555 1_555
H16 C18 1_555 1_555
H17 C19 1_555 1_555
H18 C20 1_555 1_555
V2B O7 1_555 1_555
O2B V2B 1_555 1_555
S1B O2B 1_555 1_555
O1B S1B 1_555 1_555
O3B S1B 1_555 1_555
O4B S1B 1_555 1_555
O7B V2 1_555 1_555
H2B O7B 1_555 1_555
O8B V2B 1_555 1_555
N3B V2B 1_555 1_555
C11B N3B 1_555 1_555
C12B C11B 1_555 1_555
C13B C12B 1_555 1_555
C14B C13B 1_555 1_555
C15B N3B 1_555 1_555
C16B C15B 1_555 1_555
C17B C16B 1_555 1_555
C18B C17B 1_555 1_555
C19B C18B 1_555 1_555
C20B C19B 1_555 1_555
N4B V2B 1_555 1_555
H18B C20B 1_555 1_555
H17B C19B 1_555 1_555
H16B C18B 1_555 1_555
H15B C17B 1_555 1_555
H14B C14B 1_555 1_555
H13B C13B 1_555 1_555
H12B C12B 1_555 1_555
H11B C11B 1_555 1_555
O5B V1 1_555 1_555
H1B O5B 1_555 1_555
V1B O5 1_555 1_555
O1B_2 V1B 1_555 1_555
O6B V1B 1_555 1_555
N1B V1B 1_555 1_555
N2B V1B 1_555 1_555
C1B N1B 1_555 1_555
C5B N1B 1_555 1_555
C6B N2B 1_555 1_555
C10B N2B 1_555 1_555
C2B C1B 1_555 1_555
H3B C1B 1_555 1_555
C4B C5B 1_555 1_555
C7B C6B 1_555 1_555
C9B C10B 1_555 1_555
H10B C10B 1_555 1_555
C3B C2B 1_555 1_555
H4B C2B 1_555 1_555
H6B C4B 1_555 1_555
C8B C7B 1_555 1_555
H7B C7B 1_555 1_555
H9B C9B 1_555 1_555
H5B C3B 1_555 1_555
H8B C8B 1_555 1_555
V1B_2 O1B 1_555 1_555
C10 N2 1_555 1_555
N2 V1 1_555 1_555
N3 V2 1_555 1_555
C20 N4 1_555 1_555
N4 V2 1_555 1_555
V2B O7B 1_555 1_555
C14B C15B 1_555 1_555
C16B N4B 1_555 1_555
C20B N4B 1_555 1_555
O5B V1B 1_555 1_555
C5B C6B 1_555 1_555
C4B C3B 1_555 1_555
C9B C8B 1_555 1_555

#END
