
#######################################################################
#
#                 Cambridge Crystallographic Data Centre
#                                CCDC 
#
#######################################################################
#
# If this CIF has been generated from an entry in the Cambridge 
# Structural Database, then it will include bibliographic, chemical, 
# crystal, experimental, refinement or atomic coordinate data resulting 
# from the CCDC's data processing and validation procedures.
#
#######################################################################

data_PAQVIO
_symmetry_cell_setting           monoclinic
_symmetry_space_group_name_H-M   'C 2/c'
_symmetry_Int_Tables_number      15
_space_group_name_Hall           '-C 2yn'
loop_
_symmetry_equiv_pos_site_id
_symmetry_equiv_pos_as_xyz
1 x,y,z
2 -x,y,1/2-z
3 1/2+x,1/2+y,z
4 1/2-x,1/2+y,1/2-z
5 -x,-y,-z
6 x,-y,1/2+z
7 1/2-x,1/2-y,-z
8 1/2+x,1/2-y,1/2+z
_cell_length_a                   7.090(2)
_cell_length_b                   25.628(9)
_cell_length_c                   30.347(10)
_cell_angle_alpha                90
_cell_angle_beta                 93.375(7)
_cell_angle_gamma                90
_cell_volume                     5504.56
loop_
_atom_site_label
_atom_site_type_symbol
_atom_site_fract_x
_atom_site_fract_y
_atom_site_fract_z
Ni1 Ni 0.0000 0.0000 0.0000
Fe1 Fe 1.0000 -0.17206(7) -0.2500
N1 N 0.2065(10) -0.0487(3) -0.0005(2)
N2 N -0.0543(8) -0.0244(2) 0.0579(2)
C1 C 0.3343(12) -0.0568(4) -0.0339(3)
C2 C 0.4658(18) -0.0987(5) -0.0223(4)
H1 H 0.5599 -0.1118 -0.0393
C3 C 0.425(2) -0.1141(5) 0.0168(5)
H2 H 0.4866 -0.1407 0.0327
C4 C 0.1774(14) -0.0917(3) 0.0696(3)
C5 C 0.2688(15) -0.0839(4) 0.0322(3)
C6 C 0.0316(10) -0.0630(3) 0.0833(3)
C7 C -0.0449(12) -0.0673(4) 0.1260(3)
H3 H -0.0083 -0.0904 0.1485
C8 C -0.1787(12) -0.0312(5) 0.1265(3)
H4 H -0.2519 -0.0244 0.1503
C9 C -0.1939(10) -0.0045(3) 0.0856(3)
C10 C 0.3232(10) -0.0327(3) -0.0740(3)
C11 C 0.2546(15) -0.1330(3) 0.0997(3)
C12 C 0.4321(13) -0.1375(3) 0.1213(3)
H5 H 0.5236 -0.1122 0.1173
C13 C 0.4728(10) -0.1797(4) 0.1490(3)
H6 H 0.5916 -0.1827 0.1635
C14 C 0.3360(14) -0.2175(3) 0.1551(3)
C15 C 0.1584(12) -0.2130(4) 0.1334(3)
H7 H 0.0669 -0.2383 0.1374
C16 C 0.1178(11) -0.1708(4) 0.1057(3)
H8 H -0.0010 -0.1678 0.0912
C17 C 0.387(2) -0.2618(6) 0.1898(5)
O1 O 0.5326(13) -0.2657(3) 0.2028(3)
O2 O 0.2537(15) -0.2913(5) 0.2026(4)
C18 C 0.4493(6) -0.0511(2) -0.10982(17)
C19 C 0.3746(5) -0.0821(2) -0.14415(19)
H9 H 0.2455 -0.0888 -0.1468
C20 C 0.4929(7) -0.1032(2) -0.17449(16)
H10 H 0.4429 -0.1239 -0.1975
C21 C 0.6858(6) -0.09319(19) -0.17050(15)
C22 C 0.7605(5) -0.06218(19) -0.13617(17)
H11 H 0.8896 -0.0555 -0.1335
C23 C 0.6422(7) -0.04115(19) -0.10583(15)
H12 H 0.6922 -0.0204 -0.0829
C24 C 0.8118(11) -0.1180(3) -0.2018(3)
O3 O 0.7379(7) -0.14664(19) -0.23325(17)
O4 O 0.9860(6) -0.1145(2) -0.19815(18)
Fe1F Fe 0.5000 -0.32794(7) 0.2500
Fe1B Fe -0.5000 0.32794(7) -0.2500
Fe1D Fe -1.0000 0.17206(7) 0.2500
N1D N -0.2065(10) 0.0487(3) 0.0005(2)
N2D N 0.0543(8) 0.0244(2) -0.0579(2)
C1D C -0.3343(12) 0.0568(4) 0.0339(3)
C2D C -0.4658(18) 0.0987(5) 0.0223(4)
H1D H -0.5599 0.1118 0.0393
C3D C -0.425(2) 0.1141(5) -0.0168(5)
H2D H -0.4866 0.1407 -0.0327
C4D C -0.1774(14) 0.0917(3) -0.0696(3)
C5D C -0.2688(15) 0.0839(4) -0.0322(3)
C6D C -0.0316(10) 0.0630(3) -0.0833(3)
C7D C 0.0449(12) 0.0673(4) -0.1260(3)
H3D H 0.0083 0.0904 -0.1485
C8D C 0.1787(12) 0.0312(5) -0.1265(3)
H4D H 0.2519 0.0244 -0.1503
C9D C 0.1939(10) 0.0045(3) -0.0856(3)
C10D C -0.3232(10) 0.0327(3) 0.0740(3)
C11D C -0.2546(15) 0.1330(3) -0.0997(3)
C12D C -0.4321(13) 0.1375(3) -0.1213(3)
H5D H -0.5236 0.1122 -0.1173
C13D C -0.4728(10) 0.1797(4) -0.1490(3)
H6D H -0.5916 0.1827 -0.1635
C14D C -0.3360(14) 0.2175(3) -0.1551(3)
C15D C -0.1584(12) 0.2130(4) -0.1334(3)
H7D H -0.0669 0.2383 -0.1374
C16D C -0.1178(11) 0.1708(4) -0.1057(3)
H8D H 0.0010 0.1678 -0.0912
C17D C -0.387(2) 0.2618(6) -0.1898(5)
O1D O -0.5326(13) 0.2657(3) -0.2028(3)
O1F O 0.9674(13) -0.2343(3) -0.2028(3)
O1G O 1.0326(13) -0.2343(3) -0.2972(3)
O2D O -0.2537(15) 0.2913(5) -0.2026(4)
C18D C -0.4493(6) 0.0511(2) 0.10982(17)
C19D C -0.3746(5) 0.0821(2) 0.14415(19)
H9D H -0.2455 0.0888 0.1468
C20D C -0.4929(7) 0.1032(2) 0.17449(16)
H10D H -0.4429 0.1239 0.1975
C21D C -0.6858(6) 0.09319(19) 0.17050(15)
C22D C -0.7605(5) 0.06218(19) 0.13617(17)
H11D H -0.8896 0.0555 0.1335
C23D C -0.6422(7) 0.04115(19) 0.10583(15)
H12D H -0.6922 0.0204 0.0829
C24D C -0.8118(11) 0.1180(3) 0.2018(3)
O3D O -0.7379(7) 0.14664(19) 0.23325(17)
O3A O 1.2621(7) -0.14664(19) -0.26675(17)
O4D O -0.9860(6) 0.1145(2) 0.19815(18)
O4A O 1.0140(6) -0.1145(2) -0.30185(18)
Na1 Na -0.5000 0.2190(3) 0.2500
loop_
_geom_bond_atom_site_label_1
_geom_bond_atom_site_label_2
_geom_bond_site_symmetry_1
_geom_bond_site_symmetry_2
Ni1 N1 1_555 1_555
Fe1 O3 1_555 1_555
N1 C1 1_555 1_555
N2 Ni1 1_555 1_555
C1 C2 1_555 1_555
C2 H1 1_555 1_555
C3 C2 1_555 1_555
H2 C3 1_555 1_555
C4 C5 1_555 1_555
C5 N1 1_555 1_555
C6 N2 1_555 1_555
C7 C6 1_555 1_555
H3 C7 1_555 1_555
C8 C7 1_555 1_555
H4 C8 1_555 1_555
C9 N2 1_555 1_555
C10 C1 1_555 1_555
C11 C4 1_555 1_555
C12 C11 1_555 1_555
H5 C12 1_555 1_555
C13 C12 1_555 1_555
H6 C13 1_555 1_555
C14 C13 1_555 1_555
C15 C14 1_555 1_555
H7 C15 1_555 1_555
C16 C11 1_555 1_555
H8 C16 1_555 1_555
C17 C14 1_555 1_555
O1 C17 1_555 1_555
O2 C17 1_555 1_555
C18 C10 1_555 1_555
C19 C18 1_555 1_555
H9 C19 1_555 1_555
C20 C19 1_555 1_555
H10 C20 1_555 1_555
C21 C20 1_555 1_555
C22 C21 1_555 1_555
H11 C22 1_555 1_555
C23 C18 1_555 1_555
H12 C23 1_555 1_555
C24 C21 1_555 1_555
O3 C24 1_555 1_555
O4 Fe1 1_555 1_555
Fe1F O1 1_555 1_555
Fe1B O1D 1_555 1_555
Fe1D O3D 1_555 1_555
N1D Ni1 1_555 1_555
N2D Ni1 1_555 1_555
C1D N1D 1_555 1_555
C2D C1D 1_555 1_555
H1D C2D 1_555 1_555
C3D C2D 1_555 1_555
H2D C3D 1_555 1_555
C4D C5D 1_555 1_555
C5D N1D 1_555 1_555
C6D N2D 1_555 1_555
C7D C6D 1_555 1_555
H3D C7D 1_555 1_555
C8D C7D 1_555 1_555
H4D C8D 1_555 1_555
C9D C10 1_555 1_555
C10D C9 1_555 1_555
C11D C4D 1_555 1_555
C12D C11D 1_555 1_555
H5D C12D 1_555 1_555
C13D C12D 1_555 1_555
H6D C13D 1_555 1_555
C14D C13D 1_555 1_555
C15D C14D 1_555 1_555
H7D C15D 1_555 1_555
C16D C11D 1_555 1_555
H8D C16D 1_555 1_555
C17D C14D 1_555 1_555
O1D C17D 1_555 1_555
O1F Fe1 1_555 1_555
O1G Fe1 1_555 1_555
O2D C17D 1_555 1_555
C18D C10D 1_555 1_555
C19D C18D 1_555 1_555
H9D C19D 1_555 1_555
C20D C19D 1_555 1_555
H10D C20D 1_555 1_555
C21D C20D 1_555 1_555
C22D C21D 1_555 1_555
H11D C22D 1_555 1_555
C23D C18D 1_555 1_555
H12D C23D 1_555 1_555
C24D C21D 1_555 1_555
O3D C24D 1_555 1_555
O3A Fe1 1_555 1_555
O4D Fe1D 1_555 1_555
O4A Fe1 1_555 1_555
C3 C5 1_555 1_555
C4 C6 1_555 1_555
C8 C9 1_555 1_555
C15 C16 1_555 1_555
C22 C23 1_555 1_555
C24 O4 1_555 1_555
N2D C9D 1_555 1_555
C1D C10D 1_555 1_555
C3D C5D 1_555 1_555
C4D C6D 1_555 1_555
C8D C9D 1_555 1_555
C15D C16D 1_555 1_555
C22D C23D 1_555 1_555
C24D O4D 1_555 1_555

#END
