
#######################################################################
#
#                 Cambridge Crystallographic Data Centre
#                                CCDC 
#
#######################################################################
#
# If this CIF has been generated from an entry in the Cambridge 
# Structural Database, then it will include bibliographic, chemical, 
# crystal, experimental, refinement or atomic coordinate data resulting 
# from the CCDC's data processing and validation procedures.
#
#######################################################################

data_PAQXUC
_symmetry_cell_setting           hexagonal
_symmetry_space_group_name_H-M   'P 65'
_symmetry_Int_Tables_number      170
_space_group_name_Hall           'P 65'
loop_
_symmetry_equiv_pos_site_id
_symmetry_equiv_pos_as_xyz
1 x,y,z
2 -y,x-y,2/3+z
3 -x+y,-x,1/3+z
4 -x,-y,1/2+z
5 y,-x+y,1/6+z
6 x-y,x,5/6+z
_cell_length_a                   10.5423(17)
_cell_length_b                   10.5423(17)
_cell_length_c                   20.448(4)
_cell_angle_alpha                90
_cell_angle_beta                 90
_cell_angle_gamma                120
_cell_volume                     1968.12
loop_
_atom_site_label
_atom_site_type_symbol
_atom_site_fract_x
_atom_site_fract_y
_atom_site_fract_z
O1 O 1.1850(3) 0.8119(3) 1.14839(12)
H1 H 1.1823 0.7407 1.1692
H2 H 1.1092 0.8179 1.1567
O2 O 1.2736(3) 0.7570(3) 0.93356(12)
H3 H 1.2909 0.8280 0.9083
H4 H 1.3162 0.7120 0.9196
Cd1 Cd 1.23842(2) 0.79340(2) 1.042554(17)
C1 C 0.8757(3) 0.8246(3) 0.97663(14)
C2 C 0.7475(3) 0.6988(3) 0.95926(14)
H5 H 0.7375 0.6054 0.9672
C3 C 0.6336(3) 0.7086(3) 0.93032(14)
C4 C 0.6479(3) 0.8456(3) 0.92084(13)
H6 H 0.5689 0.8522 0.9021
C5 C 0.7758(3) 0.9739(3) 0.93823(13)
C6 C 0.8902(3) 0.9609(3) 0.96649(14)
H7 H 0.9783 1.0466 0.9788
C7 C 0.7890(3) 1.1197(3) 0.92481(13)
C8 C 0.6638(3) 1.1287(3) 0.91420(14)
H8 H 0.5716 1.0414 0.9176
C9 C 0.7940(4) 1.3765(3) 0.89643(15)
H9 H 0.7967 1.4655 0.8858
C10 C 0.9238(4) 1.3791(4) 0.90838(17)
H10 H 1.0141 1.4690 0.9074
C11 C 0.9212(4) 1.2493(4) 0.92185(16)
H11 H 1.0102 1.2492 0.9291
C12 C 1.0005(3) 0.8093(3) 1.00423(14)
C13 C 0.5006(3) 0.5734(3) 0.90486(14)
O3 O 1.1239(3) 0.9225(3) 1.01006(11)
O4 O 0.9789(2) 0.6849(2) 1.01955(10)
O5 O 0.5197(3) 0.4704(2) 0.89119(13)
O6 O 0.3847(2) 0.5771(2) 0.89629(11)
N1 N 0.6648(3) 1.2534(3) 0.89937(12)
Cd1E Cd 0.44502(3) 0.23842(2) 0.875887(17)
Cd1E_2 Cd 0.44502(3) 1.23842(2) 0.875887(17)
O5D O 1.4704(2) 0.9507(4) 1.05786(13)
N1D N 1.2534(3) 0.5886(4) 1.06604(12)
loop_
_geom_bond_atom_site_label_1
_geom_bond_atom_site_label_2
_geom_bond_site_symmetry_1
_geom_bond_site_symmetry_2
O1 H1 1_555 1_555
H2 O1 1_555 1_555
O2 H3 1_555 1_555
H4 O2 1_555 1_555
Cd1 O1 1_555 1_555
C1 C2 1_555 1_555
C2 H5 1_555 1_555
C3 C2 1_555 1_555
C4 C3 1_555 1_555
H6 C4 1_555 1_555
C5 C4 1_555 1_555
C6 C1 1_555 1_555
H7 C6 1_555 1_555
C7 C5 1_555 1_555
C8 C7 1_555 1_555
H8 C8 1_555 1_555
C9 H9 1_555 1_555
C10 C9 1_555 1_555
H10 C10 1_555 1_555
C11 C7 1_555 1_555
H11 C11 1_555 1_555
C12 C1 1_555 1_555
C13 C3 1_555 1_555
O3 Cd1 1_555 1_555
O4 Cd1 1_555 1_555
O5 C13 1_555 1_555
O6 C13 1_555 1_555
N1 C8 1_555 1_555
Cd1E O5 1_555 1_555
Cd1E_2 N1 1_555 1_555
O5D Cd1 1_555 1_555
N1D Cd1 1_555 1_555
O2 Cd1 1_555 1_555
C5 C6 1_555 1_555
C9 N1 1_555 1_555
C10 C11 1_555 1_555
C12 O3 1_555 1_555
C12 O4 1_555 1_555

#END
