
#######################################################################
#
#                 Cambridge Crystallographic Data Centre
#                                CCDC 
#
#######################################################################
#
# If this CIF has been generated from an entry in the Cambridge 
# Structural Database, then it will include bibliographic, chemical, 
# crystal, experimental, refinement or atomic coordinate data resulting 
# from the CCDC's data processing and validation procedures.
#
#######################################################################

data_PAQYAJ
_symmetry_cell_setting           hexagonal
_symmetry_space_group_name_H-M   'P 61'
_symmetry_Int_Tables_number      169
_space_group_name_Hall           'P 61'
loop_
_symmetry_equiv_pos_site_id
_symmetry_equiv_pos_as_xyz
1 x,y,z
2 -y,x-y,1/3+z
3 -x+y,-x,2/3+z
4 -x,-y,1/2+z
5 y,-x+y,5/6+z
6 x-y,x,1/6+z
_cell_length_a                   10.5544(2)
_cell_length_b                   10.5544(2)
_cell_length_c                   20.4446(6)
_cell_angle_alpha                90
_cell_angle_beta                 90
_cell_angle_gamma                120
_cell_volume                     1972.32
loop_
_atom_site_label
_atom_site_type_symbol
_atom_site_fract_x
_atom_site_fract_y
_atom_site_fract_z
Cd1 Cd 1.445024(17) 0.206589(16) 1.031443(12)
O1 O 1.5172(2) 0.2437(2) 0.92256(9)
H1 H 1.6066 0.2822 0.9116
H2 H 1.4634 0.1838 0.8932
O2 O 1.3727(2) 0.1881(2) 1.13757(9)
H3 H 1.2908 0.1834 1.1439
H4 H 1.4367 0.2508 1.1632
O3 O 0.80774(19) 0.42305(18) 0.88528(8)
O4 O 1.04931(19) 0.52953(18) 0.87967(10)
N1 N 0.4117(2) -0.2534(2) 0.88828(9)
C1 C 1.0514(2) 0.1758(2) 0.96575(10)
C2 C 1.0491(2) 0.3015(2) 0.94784(10)
H5 H 1.1310 0.3929 0.9550
C3 C 0.9247(2) 0.2912(2) 0.91924(10)
C4 C 0.8020(2) 0.1541(2) 0.90974(10)
H6 H 0.7182 0.1475 0.8914
C5 C 0.8021(2) 0.0258(2) 0.92730(10)
C6 C 0.9288(2) 0.0390(2) 0.95505(10)
H7 H 0.9314 -0.0449 0.9666
C7 C 0.6694(2) -0.1191(2) 0.91359(10)
C8 C 1.1907(3) 0.1902(3) 0.99337(11)
C9 C 0.5346(2) -0.1289(2) 0.90301(10)
H8 H 0.5295 -0.0438 0.9064
C10 C 0.4177(3) -0.3769(3) 0.88516(11)
H9 H 0.3333 -0.4639 0.8746
C11 C 0.5459(3) -0.3795(3) 0.89711(13)
H10 H 0.5466 -0.4672 0.8962
O5 O 1.29443(17) 0.31556(18) 1.00820(7)
O6 O 1.20130(18) 0.07762(19) 0.99896(8)
C12 C 0.6720(3) -0.2497(3) 0.91029(11)
H11 H 0.7594 -0.2492 0.9170
C13 C 0.9267(2) 0.4263(2) 0.89369(10)
Cd1D Cd 0.206589(16) -0.238435(23) 0.864776(12)
Cd1D_2 Cd 1.206589(16) 0.761565(23) 0.864776(12)
O4E O 1.51978(26) 0.04931(19) 1.04634(10)
N1E N 1.6651(3) 0.4117(2) 1.05495(9)
loop_
_geom_bond_atom_site_label_1
_geom_bond_atom_site_label_2
_geom_bond_site_symmetry_1
_geom_bond_site_symmetry_2
Cd1 O1 1_555 1_555
O1 H1 1_555 1_555
H2 O1 1_555 1_555
O2 Cd1 1_555 1_555
H3 O2 1_555 1_555
H4 O2 1_555 1_555
O3 C13 1_555 1_555
O4 C13 1_555 1_555
N1 C9 1_555 1_555
C1 C2 1_555 1_555
C2 H5 1_555 1_555
C3 C2 1_555 1_555
C4 C3 1_555 1_555
H6 C4 1_555 1_555
C5 C4 1_555 1_555
C6 C1 1_555 1_555
H7 C6 1_555 1_555
C7 C5 1_555 1_555
C8 C1 1_555 1_555
C9 C7 1_555 1_555
H8 C9 1_555 1_555
C10 N1 1_555 1_555
H9 C10 1_555 1_555
C11 C10 1_555 1_555
H10 C11 1_555 1_555
O5 Cd1 1_555 1_555
O6 Cd1 1_555 1_555
C12 C7 1_555 1_555
H11 C12 1_555 1_555
C13 C3 1_555 1_555
Cd1D N1 1_555 1_555
Cd1D_2 O4 1_555 1_555
O4E Cd1 1_555 1_555
N1E Cd1 1_555 1_555
C5 C6 1_555 1_555
C8 O5 1_555 1_555
C8 O6 1_555 1_555
C11 C12 1_555 1_555

#END
