
#######################################################################
#
#                 Cambridge Crystallographic Data Centre
#                                CCDC 
#
#######################################################################
#
# If this CIF has been generated from an entry in the Cambridge 
# Structural Database, then it will include bibliographic, chemical, 
# crystal, experimental, refinement or atomic coordinate data resulting 
# from the CCDC's data processing and validation procedures.
#
#######################################################################

data_PAQYAJ01
_symmetry_cell_setting           hexagonal
_symmetry_space_group_name_H-M   'P 61'
_symmetry_Int_Tables_number      169
_space_group_name_Hall           'P 61'
loop_
_symmetry_equiv_pos_site_id
_symmetry_equiv_pos_as_xyz
1 x,y,z
2 -x,-y,1/2+z
3 -y,x-y,1/3+z
4 -x+y,-x,2/3+z
5 x-y,x,1/6+z
6 y,-x+y,5/6+z
_cell_length_a                   10.5266(3)
_cell_length_b                   10.5266(3)
_cell_length_c                   20.4442(10)
_cell_angle_alpha                90
_cell_angle_beta                 90
_cell_angle_gamma                120
_cell_volume                     1961.9
loop_
_atom_site_label
_atom_site_type_symbol
_atom_site_fract_x
_atom_site_fract_y
_atom_site_fract_z
Cd1 Cd 0.55545(3) 0.76201(2) 0.749590(17)
O1 O -0.1235(3) 1.0774(3) 0.61530(13)
O2 O 0.0212(3) 1.3150(3) 0.60606(12)
N1 N 0.3356(3) 0.7470(3) 0.72612(13)
O3 O 0.6278(4) 0.8157(4) 0.64442(17)
O4 O 0.4820(4) 0.7255(4) 0.85814(16)
C1 C 0.0006(4) 1.1901(4) 0.62107(17)
C2 C 0.2524(3) 1.3012(3) 0.66674(15)
H1 H 0.2621 1.3928 0.6591
C3 C 0.2109(3) 0.8803(3) 0.70110(15)
C4 C 0.2239(3) 1.0258(4) 0.68752(15)
C5 C 0.2054(4) 0.6236(4) 0.72906(17)
H2 H 0.2027 0.5362 0.7394
C6 C 0.1245(3) 1.1755(4) 0.64933(16)
C7 C 0.1100(3) 1.0388(4) 0.65935(16)
H3 H 0.0237 0.9549 0.6472
C8 C 0.3660(4) 1.2909(3) 0.69554(15)
C9 C 0.3369(4) 0.8711(4) 0.71169(17)
H4 H 0.4273 0.9568 0.7085
C10 C 0.0783(4) 0.7507(4) 0.70429(17)
H5 H -0.0092 0.7505 0.6976
C11 C 0.3524(4) 1.1552(4) 0.70512(15)
H6 H 0.4298 1.1490 0.7236
C12 C 0.0770(4) 0.6209(4) 0.7176(2)
H7 H -0.0113 0.5325 0.7186
O5 O 0.6156(3) 1.4231(3) 0.72931(12)
C13 C 0.5000(4) 1.4270(4) 0.72080(16)
O6 O 0.4809(3) 1.5310(3) 0.73420(15)
H8 H 0.532(5) 0.718(5) 0.880(2)
H9 H 0.392(5) 0.677(4) 0.8698(18)
H10 H 0.574(5) 0.820(5) 0.628(2)
H11 H 0.707(5) 0.899(6) 0.635(2)
Cd1_2 Cd 0.55545(3) 1.76201(2) 0.749590(17)
Cd1E Cd -0.23799(2) 1.20656(4) 0.582923(17)
O1D O 0.7991(4) 0.8765(3) 0.78197(13)
O2D O 0.7062(4) 1.0212(3) 0.77273(12)
O6_2 O 0.4809(3) 0.5310(3) 0.73420(15)
loop_
_geom_bond_atom_site_label_1
_geom_bond_atom_site_label_2
_geom_bond_site_symmetry_1
_geom_bond_site_symmetry_2
Cd1 N1 1_555 1_555
O1 C1 1_555 1_555
O2 C1 1_555 1_555
N1 C5 1_555 1_555
O3 Cd1 1_555 1_555
O4 Cd1 1_555 1_555
C1 C6 1_555 1_555
C2 H1 1_555 1_555
C3 C4 1_555 1_555
C4 C7 1_555 1_555
C5 H2 1_555 1_555
C6 C2 1_555 1_555
C7 C6 1_555 1_555
H3 C7 1_555 1_555
C8 C2 1_555 1_555
C9 N1 1_555 1_555
H4 C9 1_555 1_555
C10 C3 1_555 1_555
H5 C10 1_555 1_555
C11 C4 1_555 1_555
H6 C11 1_555 1_555
C12 C5 1_555 1_555
H7 C12 1_555 1_555
O5 C13 1_555 1_555
C13 C8 1_555 1_555
O6 C13 1_555 1_555
H8 O4 1_555 1_555
H9 O4 1_555 1_555
H10 O3 1_555 1_555
H11 O3 1_555 1_555
Cd1_2 O6 1_555 1_555
Cd1E O1 1_555 1_555
O1D Cd1 1_555 1_555
O2D Cd1 1_555 1_555
O6_2 Cd1 1_555 1_555
O2 Cd1E 1_555 1_555
C3 C9 1_555 1_555
C8 C11 1_555 1_555
C10 C12 1_555 1_555

#END
