
#######################################################################
#
#                 Cambridge Crystallographic Data Centre
#                                CCDC 
#
#######################################################################
#
# If this CIF has been generated from an entry in the Cambridge 
# Structural Database, then it will include bibliographic, chemical, 
# crystal, experimental, refinement or atomic coordinate data resulting 
# from the CCDC's data processing and validation procedures.
#
#######################################################################

data_PAQYIR
_symmetry_cell_setting           hexagonal
_symmetry_space_group_name_H-M   'P 61'
_symmetry_Int_Tables_number      169
_space_group_name_Hall           'P 61'
loop_
_symmetry_equiv_pos_site_id
_symmetry_equiv_pos_as_xyz
1 x,y,z
2 -y,x-y,1/3+z
3 -x+y,-x,2/3+z
4 -x,-y,1/2+z
5 y,-x+y,5/6+z
6 x-y,x,1/6+z
_cell_length_a                   10.2723(4)
_cell_length_b                   10.2723(4)
_cell_length_c                   20.4692(9)
_cell_angle_alpha                90
_cell_angle_beta                 90
_cell_angle_gamma                120
_cell_volume                     1870.54
loop_
_atom_site_label
_atom_site_type_symbol
_atom_site_fract_x
_atom_site_fract_y
_atom_site_fract_z
O1 O 0.5146(3) 0.2605(3) -0.05991(10)
H1 H 0.4613 0.2751 -0.0324
H2 H 0.6072 0.3147 -0.0504
O2 O 0.3666(2) 0.1853(3) -0.25663(11)
H3 H 0.2850 0.1043 -0.2644
H4 H 0.4344 0.1958 -0.2835
Zn1 Zn 0.44379(4) 0.23503(4) -0.160760(17)
C1 C 0.0598(3) -0.1280(3) -0.09519(13)
C2 C -0.0663(3) -0.1128(3) -0.08391(14)
H5 H -0.0637 -0.0221 -0.0958
C3 C -0.1964(3) -0.2297(3) -0.05529(13)
C4 C -0.1953(3) -0.3599(3) -0.03722(14)
H6 H -0.2824 -0.4402 -0.0177
C5 C -0.0689(3) -0.3750(3) -0.04715(13)
C6 C 0.0572(3) -0.2594(3) -0.07675(13)
H7 H 0.1426 -0.2701 -0.0845
C7 C -0.3329(3) -0.2184(3) -0.04123(13)
C8 C -0.3303(4) -0.0818(4) -0.03715(15)
H8 H -0.2394 0.0101 -0.0442
C9 C -0.4626(4) -0.0815(4) -0.02262(17)
H9 H -0.4631 0.0106 -0.0203
C10 C -0.5934(3) -0.2167(4) -0.01158(14)
H10 H -0.6824 -0.2152 -0.0004
C11 C -0.4701(3) -0.3483(3) -0.03187(14)
H11 H -0.4738 -0.4421 -0.0369
C12 C 0.2015(4) -0.0016(3) -0.12359(14)
C13 C -0.0684(3) -0.5123(3) -0.02086(13)
N1 N -0.5989(3) -0.3504(3) -0.01610(11)
O3 O 0.2198(3) 0.1291(2) -0.12648(11)
O4 O 0.3051(2) -0.0259(2) -0.14138(10)
O5 O 0.0586(2) -0.4898(2) -0.00403(11)
O6 O -0.1903(2) -0.6320(2) -0.01420(10)
Zn1E Zn -0.79124(6) -0.55621(4) 0.005907(17)
Zn1E_2 Zn 0.20876(6) -0.55621(4) 0.005907(17)
N1D N 0.6496(3) 0.2485(4) -0.18277(11)
O5D O 0.5102(2) 0.4516(3) -0.17070(11)
loop_
_geom_bond_atom_site_label_1
_geom_bond_atom_site_label_2
_geom_bond_site_symmetry_1
_geom_bond_site_symmetry_2
O1 H1 1_555 1_555
H2 O1 1_555 1_555
O2 H3 1_555 1_555
H4 O2 1_555 1_555
Zn1 O1 1_555 1_555
C1 C2 1_555 1_555
C2 H5 1_555 1_555
C3 C2 1_555 1_555
C4 C3 1_555 1_555
H6 C4 1_555 1_555
C5 C4 1_555 1_555
C6 C1 1_555 1_555
H7 C6 1_555 1_555
C7 C3 1_555 1_555
C8 C7 1_555 1_555
H8 C8 1_555 1_555
C9 C8 1_555 1_555
H9 C9 1_555 1_555
C10 C9 1_555 1_555
H10 C10 1_555 1_555
C11 C7 1_555 1_555
H11 C11 1_555 1_555
C12 C1 1_555 1_555
C13 C5 1_555 1_555
N1 C10 1_555 1_555
O3 Zn1 1_555 1_555
O4 Zn1 1_555 1_555
O5 C13 1_555 1_555
O6 C13 1_555 1_555
Zn1E N1 1_555 1_555
Zn1E_2 O5 1_555 1_555
N1D Zn1 1_555 1_555
O5D Zn1 1_555 1_555
O2 Zn1 1_555 1_555
C5 C6 1_555 1_555
C11 N1 1_555 1_555
C12 O3 1_555 1_555
C12 O4 1_555 1_555

#END
