
#######################################################################
#
#                 Cambridge Crystallographic Data Centre
#                                CCDC 
#
#######################################################################
#
# If this CIF has been generated from an entry in the Cambridge 
# Structural Database, then it will include bibliographic, chemical, 
# crystal, experimental, refinement or atomic coordinate data resulting 
# from the CCDC's data processing and validation procedures.
#
#######################################################################

data_PAQZAK
_symmetry_cell_setting           monoclinic
_symmetry_space_group_name_H-M   'P 21/c'
_symmetry_Int_Tables_number      14
_space_group_name_Hall           '-P 2ybc'
loop_
_symmetry_equiv_pos_site_id
_symmetry_equiv_pos_as_xyz
1 x,y,z
2 -x,1/2+y,1/2-z
3 -x,-y,-z
4 x,1/2-y,1/2+z
_cell_length_a                   13.550(3)
_cell_length_b                   8.9600(18)
_cell_length_c                   13.820(3)
_cell_angle_alpha                90
_cell_angle_beta                 99.16(3)
_cell_angle_gamma                90
_cell_volume                     1656.46
loop_
_atom_site_label
_atom_site_type_symbol
_atom_site_fract_x
_atom_site_fract_y
_atom_site_fract_z
Pb1 Pb 0.64652(2) 0.05023(3) 0.49958(2)
N1 N 0.9629(6) 0.1662(14) 0.4004(6)
N2 N 0.9272(8) -0.3731(15) 0.3627(9)
S1 S 0.40468(16) -0.2167(3) 0.19374(16)
O1 O 0.5384(5) -0.1009(8) 0.3695(5)
O2 O 0.7283(5) -0.1569(8) 0.4326(5)
O3 O 0.8170(6) 0.1385(13) 0.4569(7)
C1 C 0.5837(6) -0.1811(9) 0.3174(5)
C2 C 0.5338(6) -0.2467(10) 0.2297(6)
C3 C 0.6934(6) -0.2136(10) 0.3541(6)
C4 C 0.7440(6) -0.3042(10) 0.2957(6)
C5 C 0.4037(8) -0.4068(12) 0.3540(8)
H1 H 0.4712 -0.4239 0.3532
C6 C 0.2513(8) -0.2857(15) 0.2887(9)
H2 H 0.2159 -0.2202 0.2438
C7 C 0.3518(6) -0.3104(11) 0.2869(6)
C8 C 0.3566(10) -0.4787(13) 0.4230(10)
H3 H 0.3927 -0.5418 0.4691
C9 C 0.2566(11) -0.4560(16) 0.4225(11)
H4 H 0.2243 -0.5072 0.4670
C10 C 0.2028(9) -0.3576(19) 0.3565(9)
H5 H 0.1354 -0.3402 0.3578
C11 C 0.8899(9) 0.212(2) 0.4421(9)
H6 H 0.8927 0.3104 0.4634
C12 C 1.0443(12) 0.2707(19) 0.3897(12)
H7 H 1.0299 0.3666 0.4152
H8 H 1.0502 0.2801 0.3217
H9 H 1.1060 0.2336 0.4255
C13 C 0.9782(18) 0.021(2) 0.3679(13)
H10 H 0.9453 -0.0490 0.4045
H11 H 1.0485 -0.0001 0.3773
H12 H 0.9512 0.0129 0.2995
C14 C 0.8458(7) -0.3446(12) 0.3319(6)
C15 C 0.6987(6) -0.3575(9) 0.2032(6)
O4 O 0.7442(5) -0.4343(7) 0.1502(5)
C16 C 0.5886(6) -0.3202(9) 0.1670(5)
O5 O 0.5568(4) -0.3563(7) 0.0815(4)
Pb1C Pb 0.64652(2) -0.55023(3) -0.00042(2)
Pb1A Pb 0.35348(2) -0.44977(3) 0.00042(2)
O4C O 0.7442(5) -0.0657(7) 0.6502(5)
O5A O 0.4432(4) 0.1437(7) 0.4185(4)
O5C O 0.5568(4) -0.1437(7) 0.5815(4)
loop_
_geom_bond_atom_site_label_1
_geom_bond_atom_site_label_2
_geom_bond_site_symmetry_1
_geom_bond_site_symmetry_2
Pb1 O1 1_555 1_555
N1 C11 1_555 1_555
N2 C14 1_555 1_555
S1 C2 1_555 1_555
O1 C1 1_555 1_555
O2 Pb1 1_555 1_555
O3 Pb1 1_555 1_555
C1 C2 1_555 1_555
C2 C16 1_555 1_555
C3 O2 1_555 1_555
C4 C3 1_555 1_555
C5 H1 1_555 1_555
C6 H2 1_555 1_555
C7 S1 1_555 1_555
C8 C5 1_555 1_555
H3 C8 1_555 1_555
C9 C8 1_555 1_555
H4 C9 1_555 1_555
C10 C6 1_555 1_555
H5 C10 1_555 1_555
C11 O3 1_555 1_555
H6 C11 1_555 1_555
C12 N1 1_555 1_555
H7 C12 1_555 1_555
H8 C12 1_555 1_555
H9 C12 1_555 1_555
C13 N1 1_555 1_555
H10 C13 1_555 1_555
H11 C13 1_555 1_555
H12 C13 1_555 1_555
C14 C4 1_555 1_555
C15 C4 1_555 1_555
O4 C15 1_555 1_555
C16 C15 1_555 1_555
O5 C16 1_555 1_555
Pb1C O4 1_555 1_555
Pb1A O5 1_555 1_555
O4C Pb1 1_555 1_555
O5A Pb1 1_555 1_555
O5C Pb1 1_555 1_555
C1 C3 1_555 1_555
C5 C7 1_555 1_555
C6 C7 1_555 1_555
C9 C10 1_555 1_555
O5 Pb1C 1_555 1_555

#END
