
#######################################################################
#
#                 Cambridge Crystallographic Data Centre
#                                CCDC 
#
#######################################################################
#
# If this CIF has been generated from an entry in the Cambridge 
# Structural Database, then it will include bibliographic, chemical, 
# crystal, experimental, refinement or atomic coordinate data resulting 
# from the CCDC's data processing and validation procedures.
#
#######################################################################

data_PAQZEO
_symmetry_cell_setting           monoclinic
_symmetry_space_group_name_H-M   'P 21/n'
_symmetry_Int_Tables_number      14
_space_group_name_Hall           '-P 2yn'
loop_
_symmetry_equiv_pos_site_id
_symmetry_equiv_pos_as_xyz
1 x,y,z
2 1/2-x,1/2+y,1/2-z
3 -x,-y,-z
4 1/2+x,1/2-y,1/2+z
_cell_length_a                   9.6073(11)
_cell_length_b                   13.1029(15)
_cell_length_c                   15.1440(19)
_cell_angle_alpha                90
_cell_angle_beta                 100.668(4)
_cell_angle_gamma                90
_cell_volume                     1873.43
loop_
_atom_site_label
_atom_site_type_symbol
_atom_site_fract_x
_atom_site_fract_y
_atom_site_fract_z
Cu1 Cu 0.42936(8) 0.15696(6) 0.84566(5)
O1 O 0.2804(5) 0.0975(4) 0.9079(3)
O2 O 0.2753(5) 0.2526(4) 0.8567(3)
O3 O 0.0963(5) 0.1989(4) 0.9226(3)
N1 N 0.5057(5) 0.2382(4) 0.7522(3)
N2 N 0.6445(5) 0.2195(4) 0.7431(4)
N3 N 0.5548(5) 0.3368(4) 0.6461(3)
N4 N 0.5331(6) 0.4097(4) 0.5764(4)
N5 N 0.2162(5) 0.3107(4) 0.6002(3)
N6 N 0.0825(6) 0.2985(4) 0.4659(4)
N7 N 0.8878(5) 0.3754(4) 0.6829(4)
N8 N 0.9899(6) 0.5255(4) 0.6874(4)
N9 N 0.2125(6) 0.1826(5) 0.8964(4)
C1 C 0.4533(6) 0.3091(5) 0.6925(4)
C2 C 0.6708(6) 0.2791(5) 0.6789(4)
C3 C 0.3096(7) 0.3554(5) 0.6772(4)
H1 H 0.2680 0.3459 0.7310
H2 H 0.3176 0.4290 0.6674
C4 C 0.8089(7) 0.2842(5) 0.6479(4)
H3 H 0.8650 0.2233 0.6683
H4 H 0.7922 0.2853 0.5821
C5 C 0.1748(7) 0.3547(5) 0.5196(4)
H5 H 0.2080 0.4182 0.5035
C6 C 0.0652(8) 0.2130(5) 0.5151(5)
H6 H 0.0056 0.1579 0.4941
C7 C 0.1461(8) 0.2195(6) 0.5984(5)
H7 H 0.1528 0.1714 0.6450
C8 C 0.9283(7) 0.4522(5) 0.6343(4)
H8 H 0.9146 0.4534 0.5712
C9 C 0.9884(8) 0.4942(6) 0.7736(5)
H9 H 1.0286 0.5304 0.8257
C10 C 0.9206(8) 0.4038(6) 0.7726(5)
H10 H 0.9000 0.3678 0.8223
H21 H 0.555(9) 0.386(6) 0.529(4)
Cu1A Cu 1.07064(8) 0.65696(6) 0.65434(5)
Cu1C Cu -0.07064(8) 0.34304(6) 0.34566(5)
N6C N 0.5825(6) 0.2015(4) 0.9659(4)
N8A N 0.5101(6) 0.0255(4) 0.8126(4)
O4 O 0.5126(7) 0.1424(4) 0.5209(4)
H11 H 0.5018 0.1822 0.4910
H12 H 0.5771 0.1313 0.5099
O5 O 0.7153(6) -0.0124(5) 0.5370(4)
H13 H 0.6654 -0.0464 0.5271
H14 H 0.7207 -0.0275 0.4730
O6 O 0.9395(7) -0.0026(7) 0.6776(4)
H15 H 0.9288 0.0190 0.7068
H16 H 0.8788 0.0046 0.6324
O7 O 0.8198(6) 0.0353(4) 0.3874(4)
H17 H 0.8074 0.0875 0.3791
H18 H 0.8817 0.0237 0.3620
O8 O 0.8665(6) 0.0922(4) 0.8310(4)
H19 H 0.8076 0.1265 0.8224
H20 H 0.9372 0.1354 0.8556
loop_
_geom_bond_atom_site_label_1
_geom_bond_atom_site_label_2
_geom_bond_site_symmetry_1
_geom_bond_site_symmetry_2
Cu1 O1 1_555 1_555
O1 N9 1_555 1_555
O2 Cu1 1_555 1_555
O3 N9 1_555 1_555
O4 H11 1_555 1_555
O5 H13 1_555 1_555
O6 H15 1_555 1_555
O7 H17 1_555 1_555
O8 H19 1_555 1_555
N1 Cu1 1_555 1_555
N2 N1 1_555 1_555
N3 N4 1_555 1_555
N4 H21 1_555 1_555
N5 C3 1_555 1_555
N6 C5 1_555 1_555
N7 C4 1_555 1_555
N8 C8 1_555 1_555
N9 O2 1_555 1_555
C1 N1 1_555 1_555
C2 N2 1_555 1_555
C3 C1 1_555 1_555
H1 C3 1_555 1_555
H2 C3 1_555 1_555
C4 C2 1_555 1_555
H3 C4 1_555 1_555
H4 C4 1_555 1_555
C5 N5 1_555 1_555
H5 C5 1_555 1_555
C6 N6 1_555 1_555
H6 C6 1_555 1_555
C7 N5 1_555 1_555
H7 C7 1_555 1_555
C8 N7 1_555 1_555
H8 C8 1_555 1_555
C9 N8 1_555 1_555
H9 C9 1_555 1_555
C10 N7 1_555 1_555
H10 C10 1_555 1_555
H12 O4 1_555 1_555
H14 O5 1_555 1_555
H16 O6 1_555 1_555
H18 O7 1_555 1_555
H20 O8 1_555 1_555
Cu1A N8 1_555 1_555
Cu1C N6 1_555 1_555
N6C Cu1 1_555 1_555
N8A Cu1 1_555 1_555
N3 C1 1_555 1_555
N3 C2 1_555 1_555
C6 C7 1_555 1_555
C9 C10 1_555 1_555

#END
