
#######################################################################
#
#                 Cambridge Crystallographic Data Centre
#                                CCDC 
#
#######################################################################
#
# If this CIF has been generated from an entry in the Cambridge 
# Structural Database, then it will include bibliographic, chemical, 
# crystal, experimental, refinement or atomic coordinate data resulting 
# from the CCDC's data processing and validation procedures.
#
#######################################################################

data_PARDET
_symmetry_cell_setting           triclinic
_symmetry_space_group_name_H-M   'P -1'
_symmetry_Int_Tables_number      2
_space_group_name_Hall           '-P 1'
loop_
_symmetry_equiv_pos_site_id
_symmetry_equiv_pos_as_xyz
1 x,y,z
2 -x,-y,-z
_cell_length_a                   13.1905(5)
_cell_length_b                   22.2229(8)
_cell_length_c                   23.8116(8)
_cell_angle_alpha                109.958(3)
_cell_angle_beta                 99.584(3)
_cell_angle_gamma                98.114(3)
_cell_volume                     6319.85
loop_
_atom_site_label
_atom_site_type_symbol
_atom_site_fract_x
_atom_site_fract_y
_atom_site_fract_z
C1 C 0.1638(6) 0.2260(4) 0.6855(3)
C2 C 0.2718(7) 0.2301(5) 0.7014(4)
H1 H 0.3074 0.2447 0.7423
C3 C 0.3247(9) 0.2119(5) 0.6548(6)
H2 H 0.3970 0.2153 0.6653
C4 C 0.2761(9) 0.1895(5) 0.5952(6)
H3 H 0.3137 0.1770 0.5649
C5 C 0.1688(9) 0.1856(4) 0.5797(4)
H4 H 0.1342 0.1699 0.5385
C6 C 0.1118(7) 0.2045(4) 0.6243(3)
H5 H 0.0401 0.2027 0.6134
C7 C 0.0179(5) 0.3765(4) 0.8216(4)
C8 C 0.0147(7) 0.4217(4) 0.8782(4)
H6 H 0.0214 0.4105 0.9127
C9 C 0.0013(8) 0.4841(5) 0.8823(6)
H7 H -0.0004 0.5147 0.9201
C10 C -0.0092(9) 0.5012(5) 0.8333(7)
H8 H -0.0196 0.5427 0.8369
C11 C -0.0044(8) 0.4576(5) 0.7785(6)
H9 H -0.0103 0.4700 0.7447
C12 C 0.0091(7) 0.3942(4) 0.7714(5)
H10 H 0.0122 0.3647 0.7334
C13 C -0.1045(6) 0.1459(4) 0.8103(3)
C14 C -0.0683(8) 0.1220(4) 0.8557(4)
H11 H -0.0035 0.1427 0.8831
C15 C -0.1280(10) 0.0682(5) 0.8600(5)
H12 H -0.1035 0.0533 0.8907
C16 C -0.2227(10) 0.0363(5) 0.8196(5)
H13 H -0.2614 -0.0006 0.8221
C17 C -0.2598(7) 0.0591(4) 0.7757(5)
H14 H -0.3244 0.0377 0.7485
C18 C -0.2023(6) 0.1141(4) 0.7710(4)
H15 H -0.2296 0.1296 0.7413
C19 C -0.0601(5) 0.0858(3) 0.6471(3)
C20 C -0.0268(6) 0.0540(3) 0.6862(4)
H16 H -0.0088 0.0760 0.7286
C21 C -0.0214(7) -0.0120(4) 0.6596(5)
H17 H 0.0001 -0.0341 0.6847
C22 C -0.0474(7) -0.0443(4) 0.5971(5)
H18 H -0.0447 -0.0883 0.5800
C23 C -0.0777(7) -0.0112(4) 0.5598(4)
H19 H -0.0946 -0.0330 0.5174
C24 C -0.0831(7) 0.0536(4) 0.5845(4)
H20 H -0.1022 0.0756 0.5588
C25 C -0.2196(6) 0.2869(3) 0.7233(4)
C26 C -0.2349(6) 0.3012(4) 0.7812(4)
H21 H -0.1918 0.2902 0.8096
C27 C -0.3156(9) 0.3324(5) 0.7972(6)
H22 H -0.3273 0.3423 0.8365
C28 C -0.3789(9) 0.3487(5) 0.7542(7)
H23 H -0.4344 0.3684 0.7645
C29 C -0.3605(8) 0.3363(6) 0.6984(7)
H24 H -0.4018 0.3493 0.6709
C30 C -0.2815(6) 0.3045(4) 0.6803(5)
H25 H -0.2701 0.2952 0.6409
C31 C -0.4856(6) 0.1678(4) 0.3936(4)
C32 C -0.5389(8) 0.1429(4) 0.4293(5)
H26 H -0.5045 0.1476 0.4685
C33 C -0.6446(9) 0.1108(5) 0.4057(7)
H27 H -0.6815 0.0939 0.4290
C34 C -0.6936(9) 0.1046(5) 0.3476(8)
H28 H -0.7638 0.0828 0.3316
C35 C -0.6424(9) 0.1291(6) 0.3140(6)
H29 H -0.6772 0.1248 0.2750
C36 C -0.5382(6) 0.1608(4) 0.3365(4)
H30 H -0.5032 0.1776 0.3125
C37 C -0.1348(5) 0.2169(3) 0.3804(3)
C38 C -0.0304(6) 0.2112(4) 0.3973(4)
H31 H 0.0055 0.2284 0.4383
C39 C 0.0191(7) 0.1791(4) 0.3510(5)
H32 H 0.0878 0.1746 0.3619
C40 C -0.0317(8) 0.1546(4) 0.2908(5)
H33 H 0.0017 0.1338 0.2605
C41 C -0.1335(8) 0.1611(4) 0.2758(4)
H34 H -0.1687 0.1446 0.2346
C42 C -0.1856(6) 0.1916(4) 0.3199(3)
H35 H -0.2549 0.1948 0.3084
C43 C -0.2352(4) 0.40372(17) 0.5400(2)
C44 C -0.2167(4) 0.4202(2) 0.6031(2)
H36 H -0.2060 0.3886 0.6197
C45 C -0.2143(4) 0.4838(3) 0.64159(19)
H37 H -0.2019 0.4948 0.6838
C46 C -0.2303(4) 0.5310(2) 0.6169(3)
H38 H -0.2286 0.5736 0.6426
C47 C -0.2487(4) 0.5145(2) 0.5537(3)
H39 H -0.2594 0.5461 0.5372
C48 C -0.2512(4) 0.4509(2) 0.5153(2)
H40 H -0.2635 0.4399 0.4730
C49 C -0.5235(6) 0.3096(3) 0.4488(4)
C50 C -0.5028(7) 0.3067(4) 0.5071(4)
H41 H -0.4344 0.3097 0.5272
C51 C -0.5852(9) 0.2993(4) 0.5343(4)
H42 H -0.5719 0.2968 0.5729
C52 C -0.6856(8) 0.2956(5) 0.5061(5)
H43 H -0.7402 0.2900 0.5253
C53 C -0.7067(7) 0.2999(4) 0.4495(6)
H44 H -0.7752 0.2988 0.4311
C54 C -0.6275(6) 0.3059(4) 0.4201(4)
H45 H -0.6425 0.3074 0.3811
C55 C -0.2276(5) 0.3478(3) 0.3428(3)
C56 C -0.1304(5) 0.3749(4) 0.3812(4)
H46 H -0.1150 0.3676 0.4175
C57 C -0.0541(7) 0.4133(4) 0.3670(5)
H47 H 0.0110 0.4322 0.3944
C58 C -0.0727(7) 0.4236(5) 0.3141(5)
H48 H -0.0204 0.4483 0.3044
C59 C -0.1696(8) 0.3971(5) 0.2747(5)
H49 H -0.1834 0.4049 0.2385
C60 C -0.2476(6) 0.3589(4) 0.2878(4)
H50 H -0.3128 0.3407 0.2604
C61 C 0.3312(5) 0.3721(3) 1.1125(3)
C62 C 0.3293(7) 0.4204(4) 1.1670(4)
H51 H 0.3515 0.4158 1.2042
C63 C 0.2940(9) 0.4759(4) 1.1659(6)
H52 H 0.2922 0.5083 1.2026
C64 C 0.2617(8) 0.4837(5) 1.1120(7)
H53 H 0.2372 0.5209 1.1118
C65 C 0.2657(7) 0.4367(5) 1.0583(5)
H54 H 0.2455 0.4425 1.0215
C66 C 0.2993(6) 0.3802(4) 1.0577(4)
H55 H 0.3005 0.3480 1.0207
C67 C 0.2207(5) 0.1589(3) 1.0897(3)
C68 C 0.1963(6) 0.1214(4) 1.1227(5)
H56 H 0.2476 0.1204 1.1541
C69 C 0.0938(9) 0.0846(5) 1.1090(7)
H57 H 0.0769 0.0593 1.1316
C70 C 0.0182(8) 0.0856(5) 1.0623(7)
H58 H -0.0493 0.0602 1.0524
C71 C 0.0432(7) 0.1243(6) 1.0303(5)
H59 H -0.0080 0.1258 0.9991
C72 C 0.1456(5) 0.1619(4) 1.0443(4)
H60 H 0.1621 0.1885 1.0229
C73 C 0.6030(6) 0.2001(4) 1.0799(4)
C74 C 0.6935(6) 0.2124(5) 1.1251(6)
H61 H 0.6953 0.2353 1.1662
C75 C 0.7815(9) 0.1898(8) 1.1080(10)
H62 H 0.8419 0.1962 1.1376
C76 C 0.7774(13) 0.1584(9) 1.0477(11)
H63 H 0.8369 0.1444 1.0367
C77 C 0.6894(12) 0.1462(5) 1.0020(8)
H64 H 0.6889 0.1239 0.9610
C78 C 0.6015(7) 0.1681(4) 1.0189(5)
H65 H 0.5413 0.1612 0.9889
C79 C 0.5423(6) 0.3417(4) 1.0291(4)
C80 C 0.6242(5) 0.3600(4) 1.0812(4)
H66 H 0.6221 0.3386 1.1086
C81 C 0.7091(7) 0.4109(4) 1.0918(5)
H67 H 0.7648 0.4219 1.1256
C82 C 0.7123(9) 0.4447(6) 1.0537(6)
H68 H 0.7692 0.4787 1.0616
C83 C 0.6313(10) 0.4279(6) 1.0040(6)
H69 H 0.6333 0.4508 0.9778
C84 C 0.5465(8) 0.3778(5) 0.9915(5)
H70 H 0.4914 0.3679 0.9577
C85 C 0.2845(5) 0.1188(3) 0.9466(4)
C86 C 0.3144(6) 0.0739(4) 0.9708(4)
H71 H 0.3633 0.0885 1.0082
C87 C 0.2723(8) 0.0073(4) 0.9402(5)
H72 H 0.2931 -0.0229 0.9562
C88 C 0.1997(8) -0.0128(5) 0.8857(5)
H73 H 0.1701 -0.0572 0.8651
C89 C 0.1692(8) 0.0306(5) 0.8606(5)
H74 H 0.1203 0.0155 0.8232
C90 C 0.2115(6) 0.0969(4) 0.8910(4)
H75 H 0.1909 0.1267 0.8743
C91 C 0.2848(10) 0.4126(7) 0.7737(7)
H76 H 0.2687 0.3800 0.7323
H77 H 0.2313 0.4386 0.7769
C92 C 0.3859(10) 0.4534(7) 0.7870(7)
H78 H 0.3789 0.4955 0.7849
H79 H 0.4254 0.4332 0.7575
C93 C 0.4398(8) 0.4621(5) 0.8485(6)
H80 H 0.4364 0.5041 0.8780
H81 H 0.5132 0.4599 0.8502
C94 C 0.3834(8) 0.4073(5) 0.8618(5)
H82 H 0.4248 0.3741 0.8589
H83 H 0.3712 0.4234 0.9029
C95 C 0.0120(8) 0.3055(7) 1.0062(4)
H84 H 0.0659 0.3455 1.0252
H85 H 0.0435 0.2695 1.0092
C96 C -0.0713(9) 0.3107(7) 1.0378(5)
H86 H -0.0601 0.3543 1.0689
H87 H -0.0768 0.2789 1.0573
C97 C -0.1665(9) 0.2974(8) 0.9895(6)
H88 H -0.2150 0.2585 0.9859
H89 H -0.2015 0.3340 0.9998
C98 C -0.1384(8) 0.2887(10) 0.9373(6)
H90 H -0.1600 0.3209 0.9215
H91 H -0.1740 0.2455 0.9076
C99 C -0.3423(8) 0.0547(5) 0.6036(6)
H92 H -0.2979 0.0463 0.6356
H93 H -0.3318 0.0283 0.5640
C100 C -0.4560(9) 0.0409(6) 0.6060(8)
H94 H -0.4900 -0.0039 0.5797
H95 H -0.4625 0.0480 0.6476
C101 C -0.5034(9) 0.0877(6) 0.5837(8)
H96 H -0.5323 0.0684 0.5397
H97 H -0.5587 0.1014 0.6042
C102 C -0.4168(8) 0.1419(7) 0.5993(9)
H98 H -0.4180 0.1563 0.5651
H99 H -0.4233 0.1782 0.6344
C103 C -0.2279(8) 0.0342(5) 0.4251(5)
H100 H -0.2615 0.0212 0.4536
H101 H -0.1551 0.0556 0.4453
C104 C -0.2345(8) -0.0252(4) 0.3673(5)
H102 H -0.2911 -0.0611 0.3618
H103 H -0.1687 -0.0401 0.3682
C105 C -0.2568(10) 0.0033(6) 0.3169(6)
H104 H -0.1923 0.0266 0.3127
H105 H -0.2921 -0.0310 0.2776
C106 C -0.3252(9) 0.0478(5) 0.3393(4)
H106 H -0.3234 0.0808 0.3211
H107 H -0.3973 0.0241 0.3303
C107 C 0.0666(10) 0.3605(7) 0.6073(6)
H108 H 0.0830 0.3198 0.6089
H109 H 0.0232 0.3752 0.6362
C108 C 0.1633(8) 0.4091(6) 0.6251(5)
H110 H 0.2240 0.3899 0.6309
H111 H 0.1659 0.4450 0.6629
C109 C 0.1617(7) 0.4329(5) 0.5726(4)
H112 H 0.1708 0.4802 0.5874
H113 H 0.2173 0.4204 0.5519
C110 C 0.0558(7) 0.4003(5) 0.5302(5)
H114 H 0.0111 0.4318 0.5329
H115 H 0.0628 0.3820 0.4881
C111 C -0.4926(7) 0.4577(4) 0.4136(4)
H116 H -0.4524 0.4584 0.4520
H117 H -0.5653 0.4369 0.4079
C112 C -0.4849(7) 0.5258(4) 0.4144(4)
H118 H -0.4195 0.5545 0.4413
H119 H -0.5435 0.5438 0.4278
C113 C -0.4883(9) 0.5171(5) 0.3482(5)
H120 H -0.5601 0.5100 0.3257
H121 H -0.4468 0.5554 0.3458
C114 C -0.4426(9) 0.4578(4) 0.3227(4)
H122 H -0.4820 0.4307 0.2813
H123 H -0.3697 0.4709 0.3218
C115 C 0.1775(9) 0.2809(5) 1.2528(5)
H124 H 0.2269 0.3087 1.2910
H125 H 0.1770 0.2355 1.2468
C116 C 0.0700(10) 0.2943(7) 1.2535(7)
H126 H 0.0677 0.3233 1.2941
H127 H 0.0186 0.2539 1.2420
C117 C 0.0477(11) 0.3263(9) 1.2076(7)
H128 H -0.0257 0.3122 1.1858
H129 H 0.0644 0.3737 1.2278
C118 C 0.1123(7) 0.3058(6) 1.1681(5)
H130 H 0.1323 0.3389 1.1516
H131 H 0.0758 0.2655 1.1342
C119 C 0.5718(8) 0.1014(5) 1.1895(5)
H132 H 0.5823 0.1338 1.2306
H133 H 0.6328 0.1103 1.1734
C120 C 0.5568(11) 0.0350(5) 1.1904(6)
H134 H 0.5236 0.0327 1.2233
H135 H 0.6234 0.0216 1.1958
C121 C 0.4861(9) -0.0073(5) 1.1285(5)
H136 H 0.5248 -0.0342 1.1025
H137 H 0.4274 -0.0356 1.1329
C122 C 0.4479(9) 0.0396(4) 1.1017(4)
H138 H 0.4794 0.0396 1.0677
H139 H 0.3719 0.0275 1.0870
C123 C 0.5536(9) 0.2259(10) 0.8812(8)
H140 H 0.5903 0.2243 0.9194
H141 H 0.5716 0.2704 0.8829
C124 C 0.5848(12) 0.1824(7) 0.8309(9)
H142 H 0.6181 0.1512 0.8430
H143 H 0.6340 0.2066 0.8161
C125 C 0.4899(11) 0.1495(8) 0.7842(6)
H144 H 0.4907 0.1037 0.7637
H145 H 0.4823 0.1697 0.7539
C126 C 0.4024(10) 0.1561(8) 0.8165(5)
H146 H 0.3443 0.1665 0.7933
H147 H 0.3771 0.1156 0.8217
O1 O 0.1121(4) 0.2465(3) 0.7318(2)
O2 O 0.0295(4) 0.3149(2) 0.8169(2)
O3 O -0.0447(4) 0.1989(2) 0.8070(2)
O4 O -0.0762(4) 0.1487(2) 0.6714(2)
O5 O -0.1424(4) 0.2532(2) 0.7047(2)
O6 O -0.3805(4) 0.2000(2) 0.4158(3)
O7 O -0.1836(4) 0.2466(2) 0.4245(2)
O8 O -0.2351(4) 0.3413(2) 0.5031(2)
O9 O -0.4436(3) 0.3161(2) 0.4197(2)
O10 O -0.3060(3) 0.3122(2) 0.3563(2)
O11 O 0.3585(4) 0.3150(2) 1.1133(2)
O12 O 0.3218(3) 0.1932(2) 1.1027(2)
O13 O 0.5140(4) 0.2184(2) 1.0960(2)
O14 O 0.4615(3) 0.2896(2) 1.0141(2)
O15 O 0.3248(4) 0.1852(2) 0.9764(2)
O16 O 0.2871(4) 0.3809(3) 0.8180(3)
O17 O -0.0258(4) 0.2948(4) 0.9450(3)
O18 O -0.3205(4) 0.1234(3) 0.6132(3)
O19 O -0.2818(5) 0.0772(3) 0.4045(3)
O20 O 0.0109(4) 0.3491(3) 0.5486(2)
O21 O -0.4504(5) 0.4228(3) 0.3634(2)
O22 O 0.2052(4) 0.2951(3) 1.2025(3)
O23 O 0.4793(4) 0.1034(3) 1.1510(3)
O24 O 0.4438(4) 0.2070(3) 0.8737(3)
Cl1 Cl -0.16708(18) 0.20685(10) 0.54468(9)
Cl2 Cl -0.54509(15) 0.26773(10) 0.24521(9)
Cl3 Cl 0.22206(15) 0.27493(11) 0.89204(10)
Fe1 Fe -0.02744(7) 0.22803(5) 0.74261(5)
Fe2 Fe -0.31478(7) 0.28526(5) 0.42276(4)
Fe3 Fe 0.39766(7) 0.24184(5) 1.05750(4)
Li1 Li 0.1802(11) 0.3113(7) 0.8114(6)
Li2 Li 0.0391(9) 0.2736(7) 0.8771(7)
Li3 Li -0.1825(10) 0.1777(6) 0.6294(6)
Li4 Li -0.2667(11) 0.1690(6) 0.4431(6)
Li5 Li -0.1235(10) 0.2947(6) 0.5132(6)
Li6 Li -0.4437(10) 0.3326(6) 0.3448(5)
Li7 Li 0.3256(10) 0.2798(6) 1.1714(7)
Li8 Li 0.4498(10) 0.1857(6) 1.1500(6)
Li9 Li 0.3664(9) 0.2407(6) 0.9348(6)
Cl2_2 Cl 0.45491(15) 0.26773(10) 1.24521(9)
Li7_2 Li -0.6744(10) 0.2798(6) 0.1714(7)
Li8_2 Li -0.5502(10) 0.1857(6) 0.1500(6)
loop_
_geom_bond_atom_site_label_1
_geom_bond_atom_site_label_2
_geom_bond_site_symmetry_1
_geom_bond_site_symmetry_2
C1 C2 1_555 1_555
C2 H1 1_555 1_555
C3 C2 1_555 1_555
H2 C3 1_555 1_555
C4 C3 1_555 1_555
H3 C4 1_555 1_555
C5 C4 1_555 1_555
H4 C5 1_555 1_555
C6 C1 1_555 1_555
H5 C6 1_555 1_555
C7 C8 1_555 1_555
C8 H6 1_555 1_555
C9 C8 1_555 1_555
H7 C9 1_555 1_555
C10 C9 1_555 1_555
H8 C10 1_555 1_555
C11 C10 1_555 1_555
H9 C11 1_555 1_555
C12 C7 1_555 1_555
H10 C12 1_555 1_555
C13 C14 1_555 1_555
C14 H11 1_555 1_555
C15 C14 1_555 1_555
H12 C15 1_555 1_555
C16 C15 1_555 1_555
H13 C16 1_555 1_555
C17 C16 1_555 1_555
H14 C17 1_555 1_555
C18 C13 1_555 1_555
H15 C18 1_555 1_555
C19 C20 1_555 1_555
C20 H16 1_555 1_555
C21 C20 1_555 1_555
H17 C21 1_555 1_555
C22 C21 1_555 1_555
H18 C22 1_555 1_555
C23 C22 1_555 1_555
H19 C23 1_555 1_555
C24 C19 1_555 1_555
H20 C24 1_555 1_555
C25 C26 1_555 1_555
C26 H21 1_555 1_555
C27 C26 1_555 1_555
H22 C27 1_555 1_555
C28 C27 1_555 1_555
H23 C28 1_555 1_555
C29 C28 1_555 1_555
H24 C29 1_555 1_555
C30 C25 1_555 1_555
H25 C30 1_555 1_555
C31 C32 1_555 1_555
C32 H26 1_555 1_555
C33 C32 1_555 1_555
H27 C33 1_555 1_555
C34 C33 1_555 1_555
H28 C34 1_555 1_555
C35 C34 1_555 1_555
H29 C35 1_555 1_555
C36 C31 1_555 1_555
H30 C36 1_555 1_555
C37 C38 1_555 1_555
C38 H31 1_555 1_555
C39 C38 1_555 1_555
H32 C39 1_555 1_555
C40 C39 1_555 1_555
H33 C40 1_555 1_555
C41 C40 1_555 1_555
H34 C41 1_555 1_555
C42 C37 1_555 1_555
H35 C42 1_555 1_555
C43 C44 1_555 1_555
C44 H36 1_555 1_555
C45 C44 1_555 1_555
H37 C45 1_555 1_555
C46 C45 1_555 1_555
H38 C46 1_555 1_555
C47 C46 1_555 1_555
H39 C47 1_555 1_555
C48 C43 1_555 1_555
H40 C48 1_555 1_555
C49 C50 1_555 1_555
C50 H41 1_555 1_555
C51 C50 1_555 1_555
H42 C51 1_555 1_555
C52 C51 1_555 1_555
H43 C52 1_555 1_555
C53 C52 1_555 1_555
H44 C53 1_555 1_555
C54 C49 1_555 1_555
H45 C54 1_555 1_555
C55 C56 1_555 1_555
C56 H46 1_555 1_555
C57 C56 1_555 1_555
H47 C57 1_555 1_555
C58 C57 1_555 1_555
H48 C58 1_555 1_555
C59 C58 1_555 1_555
H49 C59 1_555 1_555
C60 C55 1_555 1_555
H50 C60 1_555 1_555
C61 C62 1_555 1_555
C62 H51 1_555 1_555
C63 C62 1_555 1_555
H52 C63 1_555 1_555
C64 C63 1_555 1_555
H53 C64 1_555 1_555
C65 C64 1_555 1_555
H54 C65 1_555 1_555
C66 C61 1_555 1_555
H55 C66 1_555 1_555
C67 C68 1_555 1_555
C68 H56 1_555 1_555
C69 C68 1_555 1_555
H57 C69 1_555 1_555
C70 C69 1_555 1_555
H58 C70 1_555 1_555
C71 C70 1_555 1_555
H59 C71 1_555 1_555
C72 C67 1_555 1_555
H60 C72 1_555 1_555
C73 C74 1_555 1_555
C74 H61 1_555 1_555
C75 C74 1_555 1_555
H62 C75 1_555 1_555
C76 C75 1_555 1_555
H63 C76 1_555 1_555
C77 C76 1_555 1_555
H64 C77 1_555 1_555
C78 C73 1_555 1_555
H65 C78 1_555 1_555
C79 C80 1_555 1_555
C80 H66 1_555 1_555
C81 C80 1_555 1_555
H67 C81 1_555 1_555
C82 C81 1_555 1_555
H68 C82 1_555 1_555
C83 C82 1_555 1_555
H69 C83 1_555 1_555
C84 C79 1_555 1_555
H70 C84 1_555 1_555
C85 C86 1_555 1_555
C86 H71 1_555 1_555
C87 C86 1_555 1_555
H72 C87 1_555 1_555
C88 C87 1_555 1_555
H73 C88 1_555 1_555
C89 C88 1_555 1_555
H74 C89 1_555 1_555
C90 C85 1_555 1_555
H75 C90 1_555 1_555
C91 H76 1_555 1_555
H77 C91 1_555 1_555
C92 C91 1_555 1_555
H78 C92 1_555 1_555
H79 C92 1_555 1_555
C93 C92 1_555 1_555
H80 C93 1_555 1_555
H81 C93 1_555 1_555
C94 C93 1_555 1_555
H82 C94 1_555 1_555
H83 C94 1_555 1_555
C95 H84 1_555 1_555
H85 C95 1_555 1_555
C96 C95 1_555 1_555
H86 C96 1_555 1_555
H87 C96 1_555 1_555
C97 C96 1_555 1_555
H88 C97 1_555 1_555
H89 C97 1_555 1_555
C98 C97 1_555 1_555
H90 C98 1_555 1_555
H91 C98 1_555 1_555
C99 H92 1_555 1_555
H93 C99 1_555 1_555
C100 C99 1_555 1_555
H94 C100 1_555 1_555
H95 C100 1_555 1_555
C101 C100 1_555 1_555
H96 C101 1_555 1_555
H97 C101 1_555 1_555
C102 C101 1_555 1_555
H98 C102 1_555 1_555
H99 C102 1_555 1_555
C103 H100 1_555 1_555
H101 C103 1_555 1_555
C104 C103 1_555 1_555
H102 C104 1_555 1_555
H103 C104 1_555 1_555
C105 C104 1_555 1_555
H104 C105 1_555 1_555
H105 C105 1_555 1_555
C106 C105 1_555 1_555
H106 C106 1_555 1_555
H107 C106 1_555 1_555
C107 H108 1_555 1_555
H109 C107 1_555 1_555
C108 C107 1_555 1_555
H110 C108 1_555 1_555
H111 C108 1_555 1_555
C109 C108 1_555 1_555
H112 C109 1_555 1_555
H113 C109 1_555 1_555
C110 C109 1_555 1_555
H114 C110 1_555 1_555
H115 C110 1_555 1_555
C111 H116 1_555 1_555
H117 C111 1_555 1_555
C112 C111 1_555 1_555
H118 C112 1_555 1_555
H119 C112 1_555 1_555
C113 C112 1_555 1_555
H120 C113 1_555 1_555
H121 C113 1_555 1_555
C114 C113 1_555 1_555
H122 C114 1_555 1_555
H123 C114 1_555 1_555
C115 H124 1_555 1_555
H125 C115 1_555 1_555
C116 C115 1_555 1_555
H126 C116 1_555 1_555
H127 C116 1_555 1_555
C117 C116 1_555 1_555
H128 C117 1_555 1_555
H129 C117 1_555 1_555
C118 C117 1_555 1_555
H130 C118 1_555 1_555
H131 C118 1_555 1_555
C119 H132 1_555 1_555
H133 C119 1_555 1_555
C120 C119 1_555 1_555
H134 C120 1_555 1_555
H135 C120 1_555 1_555
C121 C120 1_555 1_555
H136 C121 1_555 1_555
H137 C121 1_555 1_555
C122 C121 1_555 1_555
H138 C122 1_555 1_555
H139 C122 1_555 1_555
C123 H140 1_555 1_555
H141 C123 1_555 1_555
C124 C123 1_555 1_555
H142 C124 1_555 1_555
H143 C124 1_555 1_555
C125 C124 1_555 1_555
H144 C125 1_555 1_555
H145 C125 1_555 1_555
C126 C125 1_555 1_555
H146 C126 1_555 1_555
H147 C126 1_555 1_555
O1 C1 1_555 1_555
O2 C7 1_555 1_555
O3 C13 1_555 1_555
O4 C19 1_555 1_555
O5 C25 1_555 1_555
O6 C31 1_555 1_555
O7 C37 1_555 1_555
O8 C43 1_555 1_555
O9 C49 1_555 1_555
O10 C55 1_555 1_555
O11 C61 1_555 1_555
O12 C67 1_555 1_555
O13 C73 1_555 1_555
O14 C79 1_555 1_555
O15 C85 1_555 1_555
O16 C91 1_555 1_555
O17 C95 1_555 1_555
O18 C99 1_555 1_555
O19 C103 1_555 1_555
O20 C107 1_555 1_555
O21 C111 1_555 1_555
O22 C115 1_555 1_555
O23 C119 1_555 1_555
O24 C123 1_555 1_555
Cl1 Li3 1_555 1_555
Cl2 Li6 1_555 1_555
Cl3 Li1 1_555 1_555
Fe1 O1 1_555 1_555
Fe2 O6 1_555 1_555
Fe3 O11 1_555 1_555
Li1 O1 1_555 1_555
Li2 O2 1_555 1_555
Li3 O4 1_555 1_555
Li4 O6 1_555 1_555
Li5 O7 1_555 1_555
Li6 O9 1_555 1_555
Li7 O11 1_555 1_555
Li8 O12 1_555 1_555
Li9 O14 1_555 1_555
Cl2_2 Li7 1_555 1_555
Li7_2 Cl2 1_555 1_555
Li8_2 Cl2 1_555 1_555
C5 C6 1_555 1_555
C11 C12 1_555 1_555
C17 C18 1_555 1_555
C23 C24 1_555 1_555
C29 C30 1_555 1_555
C35 C36 1_555 1_555
C41 C42 1_555 1_555
C47 C48 1_555 1_555
C53 C54 1_555 1_555
C59 C60 1_555 1_555
C65 C66 1_555 1_555
C71 C72 1_555 1_555
C77 C78 1_555 1_555
C83 C84 1_555 1_555
C89 C90 1_555 1_555
C94 O16 1_555 1_555
C98 O17 1_555 1_555
C102 O18 1_555 1_555
C106 O19 1_555 1_555
C110 O20 1_555 1_555
C114 O21 1_555 1_555
C118 O22 1_555 1_555
C122 O23 1_555 1_555
C126 O24 1_555 1_555
O2 Fe1 1_555 1_555
O2 Li1 1_555 1_555
O3 Fe1 1_555 1_555
O3 Li2 1_555 1_555
O4 Fe1 1_555 1_555
O5 Fe1 1_555 1_555
O5 Li3 1_555 1_555
O7 Fe2 1_555 1_555
O7 Li4 1_555 1_555
O8 Fe2 1_555 1_555
O8 Li5 1_555 1_555
O9 Fe2 1_555 1_555
O10 Fe2 1_555 1_555
O10 Li6 1_555 1_555
O12 Fe3 1_555 1_555
O12 Li7 1_555 1_555
O13 Fe3 1_555 1_555
O13 Li8 1_555 1_555
O14 Fe3 1_555 1_555
O15 Fe3 1_555 1_555
O15 Li9 1_555 1_555
O16 Li1 1_555 1_555
O17 Li2 1_555 1_555
O18 Li3 1_555 1_555
O19 Li4 1_555 1_555
O20 Li5 1_555 1_555
O21 Li6 1_555 1_555
O22 Li7 1_555 1_555
O23 Li8 1_555 1_555
O24 Li9 1_555 1_555
Cl1 Li4 1_555 1_555
Cl1 Li5 1_555 1_555
Cl3 Li2 1_555 1_555
Cl3 Li9 1_555 1_555
Li8 Cl2_2 1_555 1_555

#END
