
#######################################################################
#
#                 Cambridge Crystallographic Data Centre
#                                CCDC 
#
#######################################################################
#
# If this CIF has been generated from an entry in the Cambridge 
# Structural Database, then it will include bibliographic, chemical, 
# crystal, experimental, refinement or atomic coordinate data resulting 
# from the CCDC's data processing and validation procedures.
#
#######################################################################

data_PARMIG
_symmetry_cell_setting           tetragonal
_symmetry_space_group_name_H-M   'P 43 21 2'
_symmetry_Int_Tables_number      96
_space_group_name_Hall           'P 4nw 2abw'
loop_
_symmetry_equiv_pos_site_id
_symmetry_equiv_pos_as_xyz
1 x,y,z
2 -x,-y,1/2+z
3 1/2-y,1/2+x,3/4+z
4 1/2+y,1/2-x,1/4+z
5 1/2-x,1/2+y,3/4-z
6 1/2+x,1/2-y,1/4-z
7 y,x,-z
8 -y,-x,1/2-z
_cell_length_a                   15.0363(3)
_cell_length_b                   15.0363(3)
_cell_length_c                   8.3862(4)
_cell_angle_alpha                90
_cell_angle_beta                 90
_cell_angle_gamma                90
_cell_volume                     1896.04
loop_
_atom_site_label
_atom_site_type_symbol
_atom_site_fract_x
_atom_site_fract_y
_atom_site_fract_z
C1 C 0.7590(3) 1.1223(2) 0.5519(4)
C2 C 0.7578(3) 1.0552(2) 0.4210(4)
C3 C 0.7670(3) 0.9640(2) 0.4575(4)
C4 C 0.7627(3) 0.8989(2) 0.3422(4)
C5 C 0.7487(3) 0.9258(2) 0.1843(4)
C6 C 0.7432(3) 1.0165(2) 0.1502(4)
C7 C 0.7470(3) 1.0818(2) 0.2661(4)
C8 C 0.7314(3) 0.9371(3) -0.0679(5)
H1 H 0.7258 0.9229 -0.1754
N1 N 0.7398(3) 0.87748(19) 0.0446(3)
N2 N 0.7319(3) 1.0209(2) -0.0126(4)
H2 H 0.7262 1.0685 -0.0685
Ni1 Ni 0.74420(3) 0.74420(3) 0.0000
O1 O 0.7607(2) 1.09966(16) 0.6952(3)
O2 O 0.75505(18) 1.20412(15) 0.5153(3)
H3 H 0.742(3) 1.139(3) 0.243(5)
H4 H 0.779(2) 0.949(2) 0.563(5)
H5 H 0.769(2) 0.837(2) 0.366(4)
C1F C 1.1223(2) 0.7590(3) -0.5519(4)
C2F C 1.0552(2) 0.7578(3) -0.4210(4)
C3F C 0.9640(2) 0.7670(3) -0.4575(4)
C4F C 0.8989(2) 0.7627(3) -0.3422(4)
C5F C 0.9258(2) 0.7487(3) -0.1843(4)
C6F C 1.0165(2) 0.7432(3) -0.1502(4)
C7F C 1.0818(2) 0.7470(3) -0.2661(4)
C8F C 0.9371(3) 0.7314(3) 0.0679(5)
H1F H 0.9229 0.7258 0.1754
N1F N 0.87748(19) 0.7398(3) -0.0446(3)
N2F N 1.0209(2) 0.7319(3) 0.0126(4)
H2F H 1.0685 0.7262 0.0685
Ni1B Ni 0.75580(3) 1.24420(3) 0.7500
Ni1C Ni 1.24420(3) 0.75580(3) -0.7500
O1C O 0.59966(16) 0.7393(2) -0.0548(3)
O1D O 0.7393(2) 0.59966(16) 0.0548(3)
O1F O 1.09966(16) 0.7607(2) -0.6952(3)
O2C O 0.70412(15) 0.74495(18) -0.2347(3)
O2D O 0.74495(18) 0.70412(15) 0.2347(3)
O2F O 1.20412(15) 0.75505(18) -0.5153(3)
H3F H 1.139(3) 0.742(3) -0.243(5)
H4F H 0.949(2) 0.779(2) -0.563(5)
H5F H 0.837(2) 0.769(2) -0.366(4)
O3 O 0.5168(10) -0.0042(12) 0.733(2)
O4 O 0.0044(13) -0.0044(13) 0.2500
O5 O 0.0226(11) 0.0226(11) 0.5000
loop_
_geom_bond_atom_site_label_1
_geom_bond_atom_site_label_2
_geom_bond_site_symmetry_1
_geom_bond_site_symmetry_2
C1 C2 1_555 1_555
C2 C3 1_555 1_555
C3 C4 1_555 1_555
C4 C5 1_555 1_555
C5 C6 1_555 1_555
C6 C7 1_555 1_555
C7 C2 1_555 1_555
C8 H1 1_555 1_555
N1 C5 1_555 1_555
N2 C6 1_555 1_555
H2 N2 1_555 1_555
Ni1 N1 1_555 1_555
O1 C1 1_555 1_555
O2 C1 1_555 1_555
H3 C7 1_555 1_555
H4 C3 1_555 1_555
H5 C4 1_555 1_555
C1F C2F 1_555 1_555
C2F C3F 1_555 1_555
C3F C4F 1_555 1_555
C4F C5F 1_555 1_555
C5F C6F 1_555 1_555
C6F C7F 1_555 1_555
C7F C2F 1_555 1_555
C8F H1F 1_555 1_555
N1F Ni1 1_555 1_555
N2F C6F 1_555 1_555
H2F N2F 1_555 1_555
Ni1B O1 1_555 1_555
Ni1C O1F 1_555 1_555
O1C Ni1 1_555 1_555
O1D Ni1 1_555 1_555
O1F C1F 1_555 1_555
O2C Ni1 1_555 1_555
O2D Ni1 1_555 1_555
O2F C1F 1_555 1_555
H3F C7F 1_555 1_555
H4F C3F 1_555 1_555
H5F C4F 1_555 1_555
C8 N1 1_555 1_555
C8 N2 1_555 1_555
O2 Ni1B 1_555 1_555
C5F N1F 1_555 1_555
C8F N1F 1_555 1_555
C8F N2F 1_555 1_555
Ni1C O2F 1_555 1_555

#END
