
#######################################################################
#
#                 Cambridge Crystallographic Data Centre
#                                CCDC 
#
#######################################################################
#
# If this CIF has been generated from an entry in the Cambridge 
# Structural Database, then it will include bibliographic, chemical, 
# crystal, experimental, refinement or atomic coordinate data resulting 
# from the CCDC's data processing and validation procedures.
#
#######################################################################

data_PARNUT
_symmetry_cell_setting           cubic
_symmetry_space_group_name_H-M   'I -4 3 d'
_symmetry_Int_Tables_number      220
_space_group_name_Hall           'I -4bd 2c 3'
loop_
_symmetry_equiv_pos_site_id
_symmetry_equiv_pos_as_xyz
1 x,y,z
2 1/2-x,-y,1/2+z
3 -x,1/2+y,1/2-z
4 1/2+x,1/2-y,-z
5 z,x,y
6 1/2+z,1/2-x,-y
7 1/2-z,-x,1/2+y
8 -z,1/2+x,1/2-y
9 y,z,x
10 -y,1/2+z,1/2-x
11 1/2+y,1/2-z,-x
12 1/2-y,-z,1/2+x
13 1/4+y,1/4+x,1/4+z
14 1/4-y,3/4-x,3/4+z
15 3/4+y,1/4-x,3/4-z
16 3/4-y,3/4+x,1/4-z
17 1/4+x,1/4+z,1/4+y
18 3/4-x,3/4+z,1/4-y
19 1/4-x,3/4-z,3/4+y
20 3/4+x,1/4-z,3/4-y
21 1/4+z,1/4+y,1/4+x
22 3/4+z,1/4-y,3/4-x
23 3/4-z,3/4+y,1/4-x
24 1/4-z,3/4-y,3/4+x
25 1/2+x,1/2+y,1/2+z
26 -x,1/2-y,z
27 1/2-x,y,-z
28 x,-y,1/2-z
29 1/2+z,1/2+x,1/2+y
30 z,-x,1/2-y
31 -z,1/2-x,y
32 1/2-z,x,-y
33 1/2+y,1/2+z,1/2+x
34 1/2-y,z,-x
35 y,-z,1/2-x
36 -y,1/2-z,x
37 3/4+y,3/4+x,3/4+z
38 3/4-y,1/4-x,1/4+z
39 1/4+y,3/4-x,1/4-z
40 1/4-y,1/4+x,3/4-z
41 3/4+x,3/4+z,3/4+y
42 1/4-x,1/4+z,3/4-y
43 3/4-x,1/4-z,1/4+y
44 1/4+x,3/4-z,1/4-y
45 3/4+z,3/4+y,3/4+x
46 1/4+z,3/4-y,1/4-x
47 1/4-z,1/4+y,3/4-x
48 3/4-z,1/4-y,1/4+x
_cell_length_a                   24.557(3)
_cell_length_b                   24.557(3)
_cell_length_c                   24.557(3)
_cell_angle_alpha                90
_cell_angle_beta                 90
_cell_angle_gamma                90
_cell_volume                     14809
loop_
_atom_site_label
_atom_site_type_symbol
_atom_site_fract_x
_atom_site_fract_y
_atom_site_fract_z
Cu1 Cu 0.75701(3) 0.65931(3) 0.92616(3)
O1 O 0.80395(16) 0.66512(15) 0.99141(16)
O2 O 0.5000 0.7500 0.7345(2)
N1 N 0.7725(2) 0.7398(2) 0.9224(2)
O3 O 0.70289(18) 0.6632(2) 0.86744(18)
C1 C 0.8385(3) 0.7105(2) 0.9890(3)
H1 H 0.8723 0.7006 0.9713
H2 H 0.8468 0.7228 1.0256
C2 C 0.6140(2) 0.6716(2) 0.8324(2)
C3 C 0.5929(3) 0.7285(3) 0.7547(3)
H3 H 0.6045 0.7492 0.7251
C4 C 0.5383(3) 0.7228(3) 0.7655(3)
C5 C 0.8233(3) 0.8109(3) 0.9631(3)
H4 H 0.8506 0.8218 0.9870
C6 C 0.5589(3) 0.6645(3) 0.8410(3)
H5 H 0.5471 0.6421 0.8692
C7 C 0.6308(3) 0.7030(3) 0.7882(3)
H6 H 0.6677 0.7070 0.7811
C8 C 0.8109(3) 0.7563(3) 0.9574(3)
C9 C 0.5214(3) 0.6900(3) 0.8087(3)
H7 H 0.4845 0.6854 0.8155
O4 O 0.63454(19) 0.6199(2) 0.91019(19)
C10 C 0.7457(3) 0.7769(3) 0.8932(3)
H8 H 0.7193 0.7652 0.8688
C11 C 0.6534(3) 0.6490(2) 0.8735(3)
C12 C 0.7956(4) 0.8482(3) 0.9340(4)
H9 H 0.8033 0.8851 0.9381
C13 C 0.7555(4) 0.8315(3) 0.8978(3)
H10 H 0.7360 0.8566 0.8772
Cu1U Cu 0.67616(3) 0.59069(3) 0.99299(3)
Cu1UA Cu 0.82384(3) 0.59069(3) 1.00701(3)
Cu1Y Cu 0.24299(3) 0.84069(3) 0.92616(3)
Cu1TA Cu 0.32384(3) 0.90931(3) 0.99299(3)
O1U O 0.74141(16) 0.58488(15) 0.94605(16)
O1Z O 0.69605(16) 0.66512(15) 1.00859(16)
N1U N 0.6724(2) 0.5102(2) 0.9775(2)
O3Y O 0.29711(18) 0.8368(2) 0.86744(18)
O3U O 0.61744(18) 0.5868(2) 1.04711(18)
C1U C 0.7390(3) 0.5395(2) 0.9115(3)
H1U H 0.7213 0.5494 0.8777
H2U H 0.7756 0.5272 0.9032
C2Y C 0.3860(2) 0.8284(2) 0.8324(2)
C3Y C 0.4071(3) 0.7715(3) 0.7547(3)
H3Y H 0.3955 0.7508 0.7251
C4Y C 0.4617(3) 0.7772(3) 0.7655(3)
C5U C 0.7131(3) 0.4391(3) 0.9267(3)
H4U H 0.7370 0.4282 0.8994
C6Y C 0.4411(3) 0.8355(3) 0.8410(3)
H5Y H 0.4529 0.8579 0.8692
C7Y C 0.3692(3) 0.7970(3) 0.7882(3)
H6Y H 0.3323 0.7930 0.7811
C8U C 0.7074(3) 0.4937(3) 0.9391(3)
C9Y C 0.4786(3) 0.8100(3) 0.8087(3)
H7Y H 0.5155 0.8146 0.8155
O4Y O 0.36546(19) 0.8801(2) 0.91019(19)
O4UA O 0.83981(19) 0.6301(2) 0.88454(19)
C10U C 0.6432(3) 0.4731(3) 1.0043(3)
H8U H 0.6188 0.4848 1.0307
C11Y C 0.3466(3) 0.8510(2) 0.8735(3)
C12U C 0.6840(4) 0.4018(3) 0.9544(4)
H9U H 0.6881 0.3649 0.9467
C13U C 0.6478(3) 0.4185(3) 0.9945(4)
H10U H 0.6272 0.3934 1.0140
loop_
_geom_bond_atom_site_label_1
_geom_bond_atom_site_label_2
_geom_bond_site_symmetry_1
_geom_bond_site_symmetry_2
Cu1 O1 1_555 1_555
O1 C1 1_555 1_555
O2 C4 1_555 1_555
N1 Cu1 1_555 1_555
O3 Cu1 1_555 1_555
C1 H1 1_555 1_555
H2 C1 1_555 1_555
C2 C6 1_555 1_555
C3 H3 1_555 1_555
C4 C3 1_555 1_555
C5 H4 1_555 1_555
C6 H5 1_555 1_555
C7 C2 1_555 1_555
H6 C7 1_555 1_555
C8 N1 1_555 1_555
C9 C4 1_555 1_555
H7 C9 1_555 1_555
O4 C11 1_555 1_555
C10 N1 1_555 1_555
H8 C10 1_555 1_555
C11 O3 1_555 1_555
C12 C5 1_555 1_555
H9 C12 1_555 1_555
C13 C10 1_555 1_555
H10 C13 1_555 1_555
Cu1U O4 1_555 1_555
Cu1UA O1 1_555 1_555
Cu1Y O3Y 1_555 1_555
Cu1TA O4Y 1_555 1_555
O1U Cu1 1_555 1_555
O1Z Cu1U 1_555 1_555
N1U Cu1U 1_555 1_555
O3Y C11Y 1_555 1_555
O3U Cu1U 1_555 1_555
C1U O1U 1_555 1_555
H1U C1U 1_555 1_555
H2U C1U 1_555 1_555
C2Y C6Y 1_555 1_555
C3Y H3Y 1_555 1_555
C4Y O2 1_555 1_555
C5U H4U 1_555 1_555
C6Y H5Y 1_555 1_555
C7Y C2Y 1_555 1_555
H6Y C7Y 1_555 1_555
C8U N1U 1_555 1_555
C9Y C4Y 1_555 1_555
H7Y C9Y 1_555 1_555
O4Y C11Y 1_555 1_555
O4UA Cu1 1_555 1_555
C10U N1U 1_555 1_555
H8U C10U 1_555 1_555
C11Y C2Y 1_555 1_555
C12U C5U 1_555 1_555
H9U C12U 1_555 1_555
C13U C10U 1_555 1_555
H10U C13U 1_555 1_555
C1 C8 1_555 1_555
C2 C11 1_555 1_555
C3 C7 1_555 1_555
C5 C8 1_555 1_555
C6 C9 1_555 1_555
C12 C13 1_555 1_555
Cu1U O1U 1_555 1_555
C1U C8U 1_555 1_555
C3Y C4Y 1_555 1_555
C3Y C7Y 1_555 1_555
C5U C8U 1_555 1_555
C6Y C9Y 1_555 1_555
C12U C13U 1_555 1_555

#END
