
#######################################################################
#
#                 Cambridge Crystallographic Data Centre
#                                CCDC 
#
#######################################################################
#
# If this CIF has been generated from an entry in the Cambridge 
# Structural Database, then it will include bibliographic, chemical, 
# crystal, experimental, refinement or atomic coordinate data resulting 
# from the CCDC's data processing and validation procedures.
#
#######################################################################

data_PARPUU
_symmetry_cell_setting           orthorhombic
_symmetry_space_group_name_H-M   'P n m a'
_symmetry_Int_Tables_number      62
_space_group_name_Hall           '-P 2ac 2n'
loop_
_symmetry_equiv_pos_site_id
_symmetry_equiv_pos_as_xyz
1 x,y,z
2 1/2-x,-y,1/2+z
3 1/2+x,1/2-y,1/2-z
4 -x,1/2+y,-z
5 -x,-y,-z
6 1/2+x,y,1/2-z
7 1/2-x,1/2+y,1/2+z
8 x,1/2-y,z
_cell_length_a                   14.8325(10)
_cell_length_b                   6.7792(10)
_cell_length_c                   10.6726(10)
_cell_angle_alpha                90
_cell_angle_beta                 90
_cell_angle_gamma                90
_cell_volume                     1073.16
loop_
_atom_site_label
_atom_site_type_symbol
_atom_site_fract_x
_atom_site_fract_y
_atom_site_fract_z
Ga1 Ga 0.00000 0.5000 0.0000
O1 O -0.12915(4) 0.41629(7) -0.03261(7)
O2 O -0.02979(6) 0.7500 -0.06790(7)
O3 O -0.46416(4) 0.08310(8) -0.32159(5)
O4 O -0.31230(6) 0.2500 0.30723(9)
O5 O -0.18413(6) 0.2500 0.21091(1)
O6 O -0.60557(7) 0.2500 -0.13293(8)
O7 O -0.59404(6) 0.2500 0.07835(8)
C1 C -0.16675(8) 0.2500 -0.02970(2)
C2 C -0.55696(4) 0.2500 -0.02939(1)
C3 C -0.45513(8) 0.2500 -0.03144(1)
C4 C -0.30817(8) 0.2500 -0.14970(1)
C5 C -0.40282(8) 0.2500 -0.15013(1)
C6 C -0.26765(8) 0.2500 -0.02988(1)
C7 C -0.41255(8) 0.2500 0.08897(1)
C8 C -0.26920(8) 0.2500 0.20736(1)
C9 C -0.44695(1) 0.2500 -0.27729(1)
C10 C -0.31628(8) 0.2500 0.08410(1)
Ga1C Ga 0.00000 1.0000 0.0000
Ga1B Ga -0.50000 0.0000 -0.5000
Ga1C_2 Ga 0.00000 0.0000 0.0000
Ga1A Ga -0.50000 0.5000 -0.5000
O1G O -0.12915(4) 0.08371(7) -0.03261(7)
O1D O 0.12915(4) 0.58371(7) 0.03261(7)
O2C O 0.02979(6) 0.2500 0.06790(7)
O3G O -0.46416(4) 0.41690(8) -0.32159(5)
O3B O 0.03584(4) 0.41690(8) -0.17841(5)
O3F O -0.03584(4) 0.58310(8) 0.17841(5)
O8 O 0.22870(6) 0.2500 -0.06678(9)
loop_
_geom_bond_atom_site_label_1
_geom_bond_atom_site_label_2
_geom_bond_site_symmetry_1
_geom_bond_site_symmetry_2
Ga1 O1 1_555 1_555
O1 C1 1_555 1_555
O2 Ga1 1_555 1_555
O3 C9 1_555 1_555
O4 C8 1_555 1_555
O5 C8 1_555 1_555
O6 C2 1_555 1_555
O7 C2 1_555 1_555
C1 C6 1_555 1_555
C2 C3 1_555 1_555
C3 C5 1_555 1_555
C4 C5 1_555 1_555
C5 C9 1_555 1_555
C6 C4 1_555 1_555
C7 C3 1_555 1_555
C8 C10 1_555 1_555
C9 O3G 1_555 1_555
C10 C6 1_555 1_555
Ga1C O2 1_555 1_555
Ga1B O3 1_555 1_555
Ga1C_2 O1G 1_555 1_555
Ga1A O3G 1_555 1_555
O1G C1 1_555 1_555
O1D Ga1 1_555 1_555
O2C Ga1 1_555 1_555
O3B Ga1 1_555 1_555
O3F Ga1 1_555 1_555
C7 C10 1_555 1_555
Ga1C_2 O2C 1_555 1_555

#END
