
#######################################################################
#
#                 Cambridge Crystallographic Data Centre
#                                CCDC 
#
#######################################################################
#
# If this CIF has been generated from an entry in the Cambridge 
# Structural Database, then it will include bibliographic, chemical, 
# crystal, experimental, refinement or atomic coordinate data resulting 
# from the CCDC's data processing and validation procedures.
#
#######################################################################

data_PARQEG
_symmetry_cell_setting           monoclinic
_symmetry_space_group_name_H-M   'P 21'
_symmetry_Int_Tables_number      4
_space_group_name_Hall           'P 2yb'
loop_
_symmetry_equiv_pos_site_id
_symmetry_equiv_pos_as_xyz
1 x,y,z
2 -x,1/2+y,-z
_cell_length_a                   8.5777(12)
_cell_length_b                   5.8968(8)
_cell_length_c                   16.506(2)
_cell_angle_alpha                90
_cell_angle_beta                 92.350(2)
_cell_angle_gamma                90
_cell_volume                     834.188
loop_
_atom_site_label
_atom_site_type_symbol
_atom_site_fract_x
_atom_site_fract_y
_atom_site_fract_z
Na1 Na -0.41273(7) -0.07771(11) 1.03002(3)
O1 O -0.49782(15) -0.3906(2) 1.09273(7)
O2 O -0.47683(15) -0.7634(2) 1.09871(8)
O3 O -0.86841(14) -0.5449(2) 1.60822(7)
C1 C -0.61263(19) -0.6568(3) 1.40207(9)
C2 C -0.79178(17) -0.5674(3) 1.53739(9)
C3 C -0.37669(18) -0.5514(3) 1.21340(9)
C4 C -0.51163(18) -0.6878(3) 1.33688(9)
H1 H -0.4523 -0.8235 1.3343
C5 C -0.45641(16) -0.5702(3) 1.12816(8)
C6 C -0.49757(18) -0.5272(3) 1.27772(9)
C7 C -0.5932(2) -0.3302(3) 1.28017(9)
H2 H -0.5874 -0.2197 1.2385
C8 C -0.70412(19) -0.7704(3) 1.53280(10)
H3 H -0.7050 -0.8766 1.5761
C9 C -0.79461(19) -0.4149(3) 1.47497(9)
H4 H -0.8568 -0.2820 1.4775
C10 C -0.70355(18) -0.4562(3) 1.40582(9)
C11 C -0.61861(18) -0.8144(3) 1.46684(9)
H5 H -0.5622 -0.9527 1.4642
C12 C -0.6938(2) -0.2972(3) 1.34180(10)
H6 H -0.7578 -0.1657 1.3415
C13 C -0.2595(2) -0.3553(3) 1.21717(11)
H7 H -0.2100 -0.3471 1.2717
H8 H -0.3140 -0.2125 1.2049
H9 H -0.1796 -0.3807 1.1774
C14 C -0.9486(2) -0.3379(4) 1.62112(12)
H10 H -0.9983 -0.3436 1.6735
H11 H -1.0285 -0.3156 1.5777
H12 H -0.8743 -0.2116 1.6211
O4 O -0.14405(14) -0.0555(3) 1.04743(8)
N1 N 0.07017(17) 0.0931(3) 1.11318(9)
C15 C -0.0802(2) 0.0853(4) 1.09267(12)
C16 C 0.1759(3) -0.0658(5) 1.07534(18)
H13 H 0.1150 -0.1802 1.0448
H14 H 0.2414 -0.1405 1.1174
H15 H 0.2422 0.0168 1.0384
C17 C 0.1379(2) 0.2771(4) 1.16069(14)
H16 H 0.0545 0.3693 1.1827
H17 H 0.2017 0.3717 1.1262
H18 H 0.2035 0.2151 1.2054
H19 H -0.326(2) -0.692(4) 1.2203(11)
H20 H -0.142(3) 0.204(5) 1.1213(15)
Na1A Na -0.58727(7) -0.57771(11) 0.96998(3)
Na1_2 Na -0.41273(7) -1.07771(11) 1.03002(3)
O1A O -0.50218(15) 0.1094(2) 0.90727(7)
O2_2 O -0.47683(15) 0.2366(2) 1.09871(8)
O2A O -0.52317(15) -0.2634(2) 0.90129(8)
loop_
_geom_bond_atom_site_label_1
_geom_bond_atom_site_label_2
_geom_bond_site_symmetry_1
_geom_bond_site_symmetry_2
Na1 O1 1_555 1_555
O1 C5 1_555 1_555
O2 C5 1_555 1_555
O3 C2 1_555 1_555
C1 C4 1_555 1_555
C2 C8 1_555 1_555
C3 C5 1_555 1_555
C4 H1 1_555 1_555
C6 C3 1_555 1_555
C7 C6 1_555 1_555
H2 C7 1_555 1_555
C8 H3 1_555 1_555
C9 C2 1_555 1_555
H4 C9 1_555 1_555
C10 C1 1_555 1_555
C11 C1 1_555 1_555
H5 C11 1_555 1_555
C12 C7 1_555 1_555
H6 C12 1_555 1_555
C13 C3 1_555 1_555
H7 C13 1_555 1_555
H8 C13 1_555 1_555
H9 C13 1_555 1_555
C14 O3 1_555 1_555
H10 C14 1_555 1_555
H11 C14 1_555 1_555
H12 C14 1_555 1_555
O4 Na1 1_555 1_555
N1 C15 1_555 1_555
C15 O4 1_555 1_555
C16 N1 1_555 1_555
H13 C16 1_555 1_555
H14 C16 1_555 1_555
H15 C16 1_555 1_555
C17 N1 1_555 1_555
H16 C17 1_555 1_555
H17 C17 1_555 1_555
H18 C17 1_555 1_555
H19 C3 1_555 1_555
H20 C15 1_555 1_555
Na1A O1 1_555 1_555
Na1_2 O2 1_555 1_555
O1A Na1 1_555 1_555
O2_2 Na1 1_555 1_555
O2A Na1 1_555 1_555
O2 Na1A 1_555 1_555
C4 C6 1_555 1_555
C8 C11 1_555 1_555
C9 C10 1_555 1_555
C10 C12 1_555 1_555
Na1A O2A 1_555 1_555

#END
