
#######################################################################
#
#                 Cambridge Crystallographic Data Centre
#                                CCDC 
#
#######################################################################
#
# If this CIF has been generated from an entry in the Cambridge 
# Structural Database, then it will include bibliographic, chemical, 
# crystal, experimental, refinement or atomic coordinate data resulting 
# from the CCDC's data processing and validation procedures.
#
#######################################################################

data_PARTOS
_symmetry_cell_setting           orthorhombic
_symmetry_space_group_name_H-M   'F d d 2'
_symmetry_Int_Tables_number      43
_space_group_name_Hall           'F 2 -2d'
loop_
_symmetry_equiv_pos_site_id
_symmetry_equiv_pos_as_xyz
1 x,y,z
2 -x,-y,z
3 1/4+x,1/4-y,1/4+z
4 1/4-x,1/4+y,1/4+z
5 x,1/2+y,1/2+z
6 -x,1/2-y,1/2+z
7 1/4+x,3/4-y,3/4+z
8 1/4-x,3/4+y,3/4+z
9 1/2+x,y,1/2+z
10 1/2-x,-y,1/2+z
11 3/4+x,1/4-y,3/4+z
12 3/4-x,1/4+y,3/4+z
13 1/2+x,1/2+y,z
14 1/2-x,1/2-y,z
15 3/4+x,3/4-y,1/4+z
16 3/4-x,3/4+y,1/4+z
_cell_length_a                   39.7575(9)
_cell_length_b                   10.3307(4)
_cell_length_c                   11.1347(4)
_cell_angle_alpha                90
_cell_angle_beta                 90
_cell_angle_gamma                90
_cell_volume                     4573.28
loop_
_atom_site_label
_atom_site_type_symbol
_atom_site_fract_x
_atom_site_fract_y
_atom_site_fract_z
Cu1 Cu 0.0000 0.0000 -0.00309(4)
C1 C 0.0000 0.0000 0.4317(6)
O1 O -0.03890(5) -0.11715(19) -0.0120(2)
O2 O -0.06046(6) 0.0797(2) -0.0115(3)
C2 C -0.00230(10) -0.1146(4) 0.6288(4)
H1 H -0.0037 -0.1933 0.5885
N1 N 0.0000 0.0000 0.1790(5)
N2 N 0.0000 0.0000 0.8140(5)
C3 C -0.06380(9) -0.0408(3) -0.0216(3)
C4 C -0.00248(9) -0.1108(3) 0.7524(3)
H2 H -0.0044 -0.1881 0.7947
C5 C -0.02859(9) -0.0090(4) 0.2431(4)
H3 H -0.0488 -0.0148 0.2015
C6 C -0.13231(10) -0.2746(3) -0.1165(4)
C7 C -0.02966(10) -0.0102(4) 0.3670(4)
H4 H -0.0501 -0.0179 0.4068
O3 O -0.16619(7) -0.4429(3) -0.1895(4)
C8 C -0.09806(9) -0.0971(3) -0.0459(3)
C9 C -0.10068(9) -0.2212(3) -0.0937(3)
H5 H -0.0814 -0.2686 -0.1104
C10 C -0.13477(10) -0.4059(3) -0.1702(4)
C11 C -0.12676(9) -0.0268(3) -0.0205(4)
H6 H -0.1250 0.0566 0.0102
O4 O -0.11081(8) -0.4735(3) -0.1921(4)
C12 C -0.15827(10) -0.0808(4) -0.0406(4)
H7 H -0.1776 -0.0344 -0.0214
C13 C -0.16088(9) -0.2035(4) -0.0892(4)
H8 H -0.1820 -0.2386 -0.1039
C14 C 0.0000 0.0000 0.5653(6)
H9 H -0.1690(13) -0.514(4) -0.206(5)
Cu1_2 Cu 0.0000 0.0000 0.99691(4)
O1A O 0.03890(5) 0.11715(19) -0.0120(2)
O2A O 0.06046(6) -0.0797(2) -0.0115(3)
C2A C 0.00230(10) 0.1146(4) 0.6288(4)
H1A H 0.0037 0.1933 0.5885
N2_2 N 0.0000 0.0000 -0.1860(5)
C3A C 0.06380(9) 0.0408(3) -0.0216(3)
C4A C 0.00248(9) 0.1108(3) 0.7524(3)
H2A H 0.0044 0.1881 0.7947
C5A C 0.02859(9) 0.0090(4) 0.2431(4)
H3A H 0.0488 0.0148 0.2015
C6A C 0.13231(10) 0.2746(3) -0.1165(4)
C7A C 0.02966(10) 0.0102(4) 0.3670(4)
H4A H 0.0501 0.0179 0.4068
O3A O 0.16619(7) 0.4429(3) -0.1895(4)
C8A C 0.09806(9) 0.0971(3) -0.0459(3)
C9A C 0.10068(9) 0.2212(3) -0.0937(3)
H5A H 0.0814 0.2686 -0.1104
C10A C 0.13477(10) 0.4059(3) -0.1702(4)
C11A C 0.12676(9) 0.0268(3) -0.0205(4)
H6A H 0.1250 -0.0566 0.0102
O4A O 0.11081(8) 0.4735(3) -0.1921(4)
C12A C 0.15827(10) 0.0808(4) -0.0406(4)
H7A H 0.1776 0.0344 -0.0214
C13A C 0.16088(9) 0.2035(4) -0.0892(4)
H8A H 0.1820 0.2386 -0.1039
H9A H 0.1690(13) 0.514(4) -0.206(5)
loop_
_geom_bond_atom_site_label_1
_geom_bond_atom_site_label_2
_geom_bond_site_symmetry_1
_geom_bond_site_symmetry_2
Cu1 O1 1_555 1_555
C1 C7 1_555 1_555
O1 C3 1_555 1_555
O2 Cu1 1_555 1_555
C2 H1 1_555 1_555
N1 Cu1 1_555 1_555
N2 C4 1_555 1_555
C3 O2 1_555 1_555
C4 C2 1_555 1_555
H2 C4 1_555 1_555
C5 N1 1_555 1_555
H3 C5 1_555 1_555
C6 C9 1_555 1_555
C7 C5 1_555 1_555
H4 C7 1_555 1_555
O3 C10 1_555 1_555
C8 C3 1_555 1_555
C9 C8 1_555 1_555
H5 C9 1_555 1_555
C10 C6 1_555 1_555
C11 C8 1_555 1_555
H6 C11 1_555 1_555
O4 C10 1_555 1_555
C12 C11 1_555 1_555
H7 C12 1_555 1_555
C13 C6 1_555 1_555
H8 C13 1_555 1_555
C14 C1 1_555 1_555
H9 O3 1_555 1_555
Cu1_2 N2 1_555 1_555
O1A Cu1 1_555 1_555
O2A Cu1 1_555 1_555
C2A C14 1_555 1_555
H1A C2A 1_555 1_555
N2_2 Cu1 1_555 1_555
C3A O1A 1_555 1_555
C4A N2 1_555 1_555
H2A C4A 1_555 1_555
C5A N1 1_555 1_555
H3A C5A 1_555 1_555
C6A C9A 1_555 1_555
C7A C1 1_555 1_555
H4A C7A 1_555 1_555
O3A C10A 1_555 1_555
C8A C3A 1_555 1_555
C9A C8A 1_555 1_555
H5A C9A 1_555 1_555
C10A C6A 1_555 1_555
C11A C8A 1_555 1_555
H6A C11A 1_555 1_555
O4A C10A 1_555 1_555
C12A C11A 1_555 1_555
H7A C12A 1_555 1_555
C13A C6A 1_555 1_555
H8A C13A 1_555 1_555
H9A O3A 1_555 1_555
C2 C14 1_555 1_555
C12 C13 1_555 1_555
O2A C3A 1_555 1_555
C2A C4A 1_555 1_555
C5A C7A 1_555 1_555
C12A C13A 1_555 1_555

#END
