
#######################################################################
#
#                 Cambridge Crystallographic Data Centre
#                                CCDC 
#
#######################################################################
#
# If this CIF has been generated from an entry in the Cambridge 
# Structural Database, then it will include bibliographic, chemical, 
# crystal, experimental, refinement or atomic coordinate data resulting 
# from the CCDC's data processing and validation procedures.
#
#######################################################################

data_PARTEI
_symmetry_cell_setting           triclinic
_symmetry_space_group_name_H-M   'P -1'
_symmetry_Int_Tables_number      2
_space_group_name_Hall           '-P 1'
loop_
_symmetry_equiv_pos_site_id
_symmetry_equiv_pos_as_xyz
1 x,y,z
2 -x,-y,-z
_cell_length_a                   8.753(2)
_cell_length_b                   9.2809(12)
_cell_length_c                   9.8593(13)
_cell_angle_alpha                71.162(11)
_cell_angle_beta                 65.136(17)
_cell_angle_gamma                78.756(15)
_cell_volume                     686.126
loop_
_atom_site_label
_atom_site_type_symbol
_atom_site_fract_x
_atom_site_fract_y
_atom_site_fract_z
Mn1 Mn 1.0000 0.0000 1.0000
N1 N 0.7733(2) -0.1110(2) 1.2027(2)
N2 N 0.6193(2) -0.1173(2) 1.2089(2)
H1 H 0.600(3) -0.075(3) 1.132(3)
C1 C 0.7677(3) -0.1880(3) 1.3435(3)
H2 H 0.8585 -0.2029 1.3734
C2 C 0.6109(3) -0.2438(3) 1.4411(3)
C3 C 0.5199(3) -0.1950(4) 1.3493(3)
H3 H 0.4078 -0.2129 1.3794
C4 C 0.5551(5) -0.3379(6) 1.6086(4)
H4 H 0.6460 -0.3530 1.6430
H5 H 0.5238 -0.4350 1.6174
H6 H 0.4598 -0.2853 1.6718
N3 N 0.9718(2) -0.1183(2) 0.8431(2)
N4 N 0.8625(2) -0.0666(2) 0.7727(2)
H7 H 0.782(3) 0.004(3) 0.802(3)
C5 C 1.0610(3) -0.2341(3) 0.7866(3)
H8 H 1.1476 -0.2925 0.8147
C6 C 1.0088(3) -0.2572(3) 0.6801(3)
C7 C 0.8813(3) -0.1481(3) 0.6759(3)
H9 H 0.8179 -0.1327 0.6162
C8 C 1.0744(4) -0.3793(4) 0.5953(4)
H10 H 1.1662 -0.4393 0.6205
H11 H 1.1134 -0.3325 0.4854
H12 H 0.9856 -0.4437 0.6258
O1 O 1.15779(17) -0.20015(16) 1.06476(19)
O2 O 1.3757(2) -0.12732(17) 1.0817(2)
C9 C 1.3050(2) -0.2212(2) 1.0630(2)
C10 C 1.4055(2) -0.3665(2) 1.0322(2)
C11 C 1.3294(2) -0.4826(2) 1.0272(2)
H13 H 1.2150 -0.4712 1.0456
C12 C 1.5771(2) -0.3857(2) 1.0050(2)
H14 H 1.6288 -0.3093 1.0085
Mn1_2 Mn 2.0000 -1.0000 1.0000
N1A N 1.2267(2) 0.1110(2) 0.7973(2)
N2A N 1.3807(2) 0.1173(2) 0.7911(2)
H1A H 1.400(3) 0.075(3) 0.868(3)
C1A C 1.2323(3) 0.1880(3) 0.6565(3)
H2A H 1.1415 0.2029 0.6266
C2A C 1.3891(3) 0.2438(3) 0.5589(3)
C3A C 1.4801(3) 0.1950(4) 0.6507(3)
H3A H 1.5922 0.2129 0.6206
C4A C 1.4449(5) 0.3379(6) 0.3914(4)
H4A H 1.3540 0.3530 0.3570
H5A H 1.4762 0.4350 0.3826
H6A H 1.5402 0.2853 0.3282
N3A N 1.0282(2) 0.1183(2) 1.1569(2)
N4A N 1.1375(2) 0.0666(2) 1.2273(2)
H7A H 1.218(3) -0.004(3) 1.198(3)
C5A C 0.9390(3) 0.2341(3) 1.2134(3)
H8A H 0.8524 0.2925 1.1853
C6A C 0.9912(3) 0.2572(3) 1.3199(3)
C7A C 1.1187(3) 0.1481(3) 1.3241(3)
H9A H 1.1821 0.1327 1.3838
C8A C 0.9256(4) 0.3793(4) 1.4047(4)
H10A H 0.8338 0.4393 1.3795
H11A H 0.8866 0.3325 1.5146
H12A H 1.0144 0.4437 1.3742
O1A O 1.84221(17) -0.79985(16) 0.93524(19)
O1A_2 O 0.84221(17) 0.20015(16) 0.93524(19)
O2A O 1.6243(2) -0.87268(17) 0.9183(2)
C9A C 1.6950(2) -0.7788(2) 0.9370(2)
C10A C 1.5945(2) -0.6335(2) 0.9678(2)
C11A C 1.6706(2) -0.5174(2) 0.9728(2)
H13A H 1.7850 -0.5288 0.9544
C12A C 1.4229(2) -0.6143(2) 0.9950(2)
H14A H 1.3712 -0.6907 0.9915
loop_
_geom_bond_atom_site_label_1
_geom_bond_atom_site_label_2
_geom_bond_site_symmetry_1
_geom_bond_site_symmetry_2
Mn1 N1 1_555 1_555
N1 N2 1_555 1_555
N2 H1 1_555 1_555
C1 N1 1_555 1_555
H2 C1 1_555 1_555
C2 C1 1_555 1_555
C3 N2 1_555 1_555
H3 C3 1_555 1_555
C4 C2 1_555 1_555
H4 C4 1_555 1_555
H5 C4 1_555 1_555
H6 C4 1_555 1_555
N3 Mn1 1_555 1_555
N4 N3 1_555 1_555
H7 N4 1_555 1_555
C5 N3 1_555 1_555
H8 C5 1_555 1_555
C6 C5 1_555 1_555
C7 N4 1_555 1_555
H9 C7 1_555 1_555
C8 C6 1_555 1_555
H10 C8 1_555 1_555
H11 C8 1_555 1_555
H12 C8 1_555 1_555
O1 Mn1 1_555 1_555
O2 C9 1_555 1_555
C9 O1 1_555 1_555
C10 C9 1_555 1_555
C11 C10 1_555 1_555
H13 C11 1_555 1_555
C12 C10 1_555 1_555
H14 C12 1_555 1_555
Mn1_2 O1A 1_555 1_555
N1A Mn1 1_555 1_555
N2A N1A 1_555 1_555
H1A N2A 1_555 1_555
C1A N1A 1_555 1_555
H2A C1A 1_555 1_555
C2A C1A 1_555 1_555
C3A N2A 1_555 1_555
H3A C3A 1_555 1_555
C4A C2A 1_555 1_555
H4A C4A 1_555 1_555
H5A C4A 1_555 1_555
H6A C4A 1_555 1_555
N3A Mn1 1_555 1_555
N4A N3A 1_555 1_555
H7A N4A 1_555 1_555
C5A N3A 1_555 1_555
H8A C5A 1_555 1_555
C6A C5A 1_555 1_555
C7A N4A 1_555 1_555
H9A C7A 1_555 1_555
C8A C6A 1_555 1_555
H10A C8A 1_555 1_555
H11A C8A 1_555 1_555
H12A C8A 1_555 1_555
O1A C9A 1_555 1_555
O1A_2 Mn1 1_555 1_555
O2A C9A 1_555 1_555
C9A C10A 1_555 1_555
C10A C11A 1_555 1_555
C11A C12 1_555 1_555
H13A C11A 1_555 1_555
C12A C11 1_555 1_555
H14A C12A 1_555 1_555
C2 C3 1_555 1_555
C6 C7 1_555 1_555
C2A C3A 1_555 1_555
C6A C7A 1_555 1_555
C10A C12A 1_555 1_555

#END
