
#######################################################################
#
#                 Cambridge Crystallographic Data Centre
#                                CCDC 
#
#######################################################################
#
# If this CIF has been generated from an entry in the Cambridge 
# Structural Database, then it will include bibliographic, chemical, 
# crystal, experimental, refinement or atomic coordinate data resulting 
# from the CCDC's data processing and validation procedures.
#
#######################################################################

data_PARVIP
_symmetry_cell_setting           monoclinic
_symmetry_space_group_name_H-M   'P 21/c'
_symmetry_Int_Tables_number      14
_space_group_name_Hall           '-P 2ybc'
loop_
_symmetry_equiv_pos_site_id
_symmetry_equiv_pos_as_xyz
1 x,y,z
2 -x,1/2+y,1/2-z
3 -x,-y,-z
4 x,1/2-y,1/2+z
_cell_length_a                   9.960(4)
_cell_length_b                   13.429(6)
_cell_length_c                   19.779(7)
_cell_angle_alpha                90
_cell_angle_beta                 111.794(17)
_cell_angle_gamma                90
_cell_volume                     2456.41
loop_
_atom_site_label
_atom_site_type_symbol
_atom_site_fract_x
_atom_site_fract_y
_atom_site_fract_z
Cd1 Cd 0.46168(3) 0.58759(3) 0.102532(17)
N1 N 0.2322(5) 0.5935(3) 0.0175(3)
C1 C 0.1105(5) 0.6513(4) 0.0105(3)
O1 O 0.4106(5) 0.7072(3) 0.1888(2)
N2 N 0.0482(4) 0.5419(4) -0.0801(2)
C2 C 0.0944(6) 0.7307(5) 0.0533(3)
H1 H 0.1707 0.7523 0.0944
O2 O 0.3890(4) 0.5440(4) 0.2007(2)
O3 O 0.5380(4) 0.8560(3) 0.51214(19)
N3 N -0.0982(4) 0.7851(3) -0.2730(2)
C3 C -0.0402(7) 0.7751(5) 0.0312(3)
H2 H -0.0533 0.8292 0.0574
N4 N -0.3071(5) 0.8705(4) -0.3213(2)
C4 C -0.1582(6) 0.7415(5) -0.0297(3)
H3 H -0.2476 0.7726 -0.0420
O4 O 0.4794(6) 0.9263(3) 0.4023(3)
O5 O 0.3286(6) 0.5151(4) 0.5062(3)
N5 N 0.3281(6) 0.5004(4) 0.4448(3)
C5 C -0.1427(6) 0.6620(5) -0.0717(3)
H4 H -0.2198 0.6389 -0.1119
O6 O 0.2921(8) 0.4218(4) 0.4127(4)
C6 C -0.0060(6) 0.6193(4) -0.0504(3)
C7 C 0.1899(5) 0.5306(4) -0.0380(3)
H5 H 0.2503 0.4840 -0.0469
C8 C -0.0243(6) 0.4957(4) -0.1524(3)
H6 H -0.1130 0.4640 -0.1541
H7 H 0.0379 0.4445 -0.1596
C9 C -0.0602(7) 0.5728(5) -0.2147(3)
H8 H -0.0882 0.5374 -0.2607
H9 H -0.1426 0.6120 -0.2156
C10 C 0.0618(6) 0.6420(4) -0.2087(3)
H10 H 0.1438 0.6033 -0.2091
H11 H 0.0912 0.6769 -0.1625
C11 C 0.0210(6) 0.7185(5) -0.2707(3)
H12 H 0.1054 0.7586 -0.2653
H13 H -0.0065 0.6834 -0.3167
C12 C -0.1015(5) 0.8533(4) -0.2197(3)
C13 C -0.0033(6) 0.8746(5) -0.1495(3)
H14 H 0.0844 0.8412 -0.1296
C14 C -0.0422(8) 0.9472(6) -0.1113(3)
H15 H 0.0202 0.9620 -0.0641
C15 C -0.1720(7) 0.9994(5) -0.1409(3)
H16 H -0.1943 1.0477 -0.1131
C16 C -0.2692(7) 0.9807(5) -0.2115(3)
H17 H -0.3551 1.0162 -0.2318
C17 C -0.2313(6) 0.9057(4) -0.2505(3)
C18 C -0.2246(5) 0.7999(4) -0.3317(3)
H18 H -0.2497 0.7635 -0.3747
C19 C 0.3990(5) 0.6322(5) 0.2246(3)
C20 C 0.3994(5) 0.6476(4) 0.3002(3)
C21 C 0.4335(6) 0.7401(4) 0.3344(3)
H19 H 0.4514 0.7937 0.3092
C22 C 0.4413(5) 0.7539(4) 0.4065(2)
C23 C 0.4107(5) 0.6754(4) 0.4433(3)
H20 H 0.4155 0.6829 0.4909
C24 C 0.3724(6) 0.5846(4) 0.4074(3)
C25 C 0.3685(6) 0.5691(4) 0.3377(3)
H21 H 0.3455 0.5067 0.3161
C26 C 0.4904(5) 0.8547(4) 0.4429(3)
Cd1C Cd 0.46168(3) 0.91241(3) 0.602532(17)
Cd1C_2 Cd -0.53832(3) 0.91241(3) -0.397468(17)
Cd1A Cd 0.53832(3) 1.08759(3) 0.397468(17)
O3C O 0.5380(4) 0.6440(3) 0.01214(19)
N4C N 0.6929(5) 0.6295(4) 0.1787(2)
O4A O 0.5206(6) 0.4263(3) 0.0977(3)
loop_
_geom_bond_atom_site_label_1
_geom_bond_atom_site_label_2
_geom_bond_site_symmetry_1
_geom_bond_site_symmetry_2
Cd1 N1 1_555 1_555
N1 C1 1_555 1_555
C1 C2 1_555 1_555
O1 Cd1 1_555 1_555
N2 C6 1_555 1_555
C2 H1 1_555 1_555
O2 Cd1 1_555 1_555
O3 C26 1_555 1_555
N3 C11 1_555 1_555
C3 C2 1_555 1_555
H2 C3 1_555 1_555
N4 C17 1_555 1_555
C4 C3 1_555 1_555
H3 C4 1_555 1_555
O4 C26 1_555 1_555
O5 N5 1_555 1_555
N5 O6 1_555 1_555
C5 C4 1_555 1_555
H4 C5 1_555 1_555
C6 C1 1_555 1_555
C7 N1 1_555 1_555
H5 C7 1_555 1_555
C8 N2 1_555 1_555
H6 C8 1_555 1_555
H7 C8 1_555 1_555
C9 C8 1_555 1_555
H8 C9 1_555 1_555
H9 C9 1_555 1_555
C10 C9 1_555 1_555
H10 C10 1_555 1_555
H11 C10 1_555 1_555
C11 C10 1_555 1_555
H12 C11 1_555 1_555
H13 C11 1_555 1_555
C12 N3 1_555 1_555
C13 C12 1_555 1_555
H14 C13 1_555 1_555
C14 C13 1_555 1_555
H15 C14 1_555 1_555
C15 C14 1_555 1_555
H16 C15 1_555 1_555
C16 C15 1_555 1_555
H17 C16 1_555 1_555
C17 C12 1_555 1_555
C18 N3 1_555 1_555
H18 C18 1_555 1_555
C19 O1 1_555 1_555
C20 C19 1_555 1_555
C21 C20 1_555 1_555
H19 C21 1_555 1_555
C22 C21 1_555 1_555
C23 C22 1_555 1_555
H20 C23 1_555 1_555
C24 N5 1_555 1_555
C25 C20 1_555 1_555
H21 C25 1_555 1_555
C26 C22 1_555 1_555
Cd1C O3 1_555 1_555
Cd1C_2 N4 1_555 1_555
Cd1A O4 1_555 1_555
O3C Cd1 1_555 1_555
N4C Cd1 1_555 1_555
O4A Cd1 1_555 1_555
N2 C7 1_555 1_555
O2 C19 1_555 1_555
N4 C18 1_555 1_555
C5 C6 1_555 1_555
C16 C17 1_555 1_555
C23 C24 1_555 1_555
C24 C25 1_555 1_555

#END
