
#######################################################################
#
#                 Cambridge Crystallographic Data Centre
#                                CCDC 
#
#######################################################################
#
# If this CIF has been generated from an entry in the Cambridge 
# Structural Database, then it will include bibliographic, chemical, 
# crystal, experimental, refinement or atomic coordinate data resulting 
# from the CCDC's data processing and validation procedures.
#
#######################################################################

data_PARVOV
_symmetry_cell_setting           orthorhombic
_symmetry_space_group_name_H-M   'P n a 21'
_symmetry_Int_Tables_number      33
_space_group_name_Hall           'P 2c -2n'
loop_
_symmetry_equiv_pos_site_id
_symmetry_equiv_pos_as_xyz
1 x,y,z
2 -x,-y,1/2+z
3 1/2-x,1/2+y,1/2+z
4 1/2+x,1/2-y,z
_cell_length_a                   18.181(5)
_cell_length_b                   22.175(5)
_cell_length_c                   18.450(5)
_cell_angle_alpha                90
_cell_angle_beta                 90
_cell_angle_gamma                90
_cell_volume                     7438.37
loop_
_atom_site_label
_atom_site_type_symbol
_atom_site_fract_x
_atom_site_fract_y
_atom_site_fract_z
Cd1 Cd 0.62327(2) 0.500703(19) 0.92682(3)
S1 S 0.82357(9) 0.51014(7) 0.94519(11)
O1 O 0.6250(3) 0.6156(2) 0.9343(4)
N1 N 0.5983(4) 0.5045(3) 1.0438(4)
C1 C 0.8527(3) 0.4342(2) 0.9403(4)
Cd2 Cd 0.55359(2) 0.824169(18) 0.93487(2)
S2 S 0.42365(9) 0.49311(7) 0.93315(13)
O3 O 0.6184(3) 0.3965(2) 0.9142(4)
N2 N 0.6434(4) 0.5163(3) 0.8093(3)
C2 C 0.9278(3) 0.4210(3) 0.9358(4)
H1 H 0.9617 0.4523 0.9324
Cd3 Cd 0.67989(2) 0.178108(18) 0.94967(3)
O5 O 0.7459(3) 0.5066(2) 0.9623(4)
N3 N 0.5497(3) 0.5425(3) 1.1451(3)
C3 C 0.9525(3) 0.3609(2) 0.9363(4)
O6 O 0.8392(5) 0.5372(3) 0.8769(4)
N4 N 0.6330(4) 0.5635(3) 0.7037(3)
C4 C 0.8989(3) 0.3155(3) 0.9412(4)
H2 H 0.9137 0.2753 0.9418
O7 O 0.8652(3) 0.5359(3) 1.0039(4)
N5 N 0.5381(3) 0.8431(3) 1.0562(3)
C5 C 0.8252(3) 0.3289(3) 0.9449(4)
O8 O 0.7922(2) 0.22531(19) 0.9532(3)
N6 N 0.5460(4) 0.8194(3) 0.8100(4)
C6 C 0.8032(3) 0.3884(3) 0.9447(4)
H3 H 0.7533 0.3974 0.9476
O9 O 0.7019(2) 0.29155(19) 0.9499(3)
N7 N 0.5003(3) 0.8854(2) 1.1591(3)
C7 C 1.0317(3) 0.3463(2) 0.9373(4)
O10 O 1.0509(2) 0.2937(2) 0.9465(3)
N8 N 0.5160(4) 0.7877(3) 0.6994(4)
C8 C 0.7699(3) 0.2788(3) 0.9500(4)
O11 O 1.0770(2) 0.38826(18) 0.9311(3)
N9 N 0.3212(3) 0.8104(3) 1.3248(4)
C9 C 0.6108(4) 0.4634(3) 1.1005(4)
O12 O 0.4337(2) 0.77829(19) 0.9390(4)
N10 N 0.6677(4) 1.1578(3) 1.0732(4)
C10 C 0.6470(5) 0.4104(4) 1.1042(5)
H4 H 0.6679 0.3934 1.0629
O13 O 0.4949(3) 0.9186(2) 0.9116(3)
N11 N 0.3576(4) 0.7663(3) 1.2229(4)
C11 C 0.6524(6) 0.3815(5) 1.1711(6)
H5 H 0.6762 0.3444 1.1736
O14 O 0.1588(2) 0.6051(2) 0.9431(3)
N12 N 0.6366(3) 1.1047(3) 1.1700(3)
C12 C 0.6243(5) 0.4055(4) 1.2327(5)
H6 H 0.6308 0.3854 1.2765
O15 O 0.1803(2) 0.7008(2) 0.9391(4)
C13 C 0.5861(5) 0.4593(4) 1.2312(4)
H7 H 0.5653 0.4754 1.2730
O16 O 0.4278(4) 0.4750(3) 1.0090(4)
C14 C 0.5801(4) 0.4884(3) 1.1647(4)
O17 O 0.3733(3) 0.4570(2) 0.8888(4)
C15 C 0.5642(5) 0.5514(4) 1.0743(4)
H8 H 0.5518 0.5864 1.0493
O18 O 0.4954(3) 0.4995(2) 0.8995(3)
C16 C 0.5133(5) 0.5847(4) 1.1943(5)
H9 H 0.5502 0.6052 1.2231
H10 H 0.4818 0.5623 1.2272
O19 O 0.5284(2) 0.71678(19) 0.9423(4)
C17 C 0.4670(5) 0.6317(4) 1.1542(5)
H11 H 0.4285 0.6117 1.1268
H12 H 0.4977 0.6539 1.1205
C18 C 0.4327(5) 0.6750(4) 1.2088(5)
H13 H 0.4008 0.6528 1.2414
H14 H 0.4713 0.6935 1.2376
O20 O 0.7463(3) 0.0850(2) 0.9531(4)
C19 C 0.3905(6) 0.7217(4) 1.1728(5)
H15 H 0.3515 0.7028 1.1450
H16 H 0.4224 0.7426 1.1390
C20 C 0.3208(4) 0.8162(3) 1.2013(5)
C21 C 0.2961(4) 0.8448(3) 1.2658(4)
C22 C 0.2566(4) 0.8977(4) 1.2622(5)
H17 H 0.2405 0.9170 1.3041
C23 C 0.2419(5) 0.9210(4) 1.1949(6)
H18 H 0.2147 0.9564 1.1912
C24 C 0.2668(5) 0.8928(4) 1.1321(5)
H19 H 0.2556 0.9098 1.0873
C25 C 0.3064(5) 0.8419(4) 1.1342(5)
H20 H 0.3238 0.8242 1.0918
C26 C 0.3569(4) 0.7642(3) 1.2959(4)
H21 H 0.3790 0.7337 1.3230
C27 C 0.5462(4) 0.8389(4) 1.1775(4)
C28 C 0.5681(6) 0.8171(4) 1.2460(5)
H22 H 0.5526 0.8355 1.2886
C29 C 0.6137(6) 0.7671(4) 1.2470(6)
H23 H 0.6292 0.7510 1.2910
C30 C 0.6375(5) 0.7397(4) 1.1795(5)
H24 H 0.6684 0.7063 1.1814
C31 C 0.6167(4) 0.7605(3) 1.1150(5)
H25 H 0.6318 0.7419 1.0723
C32 C 0.5704(4) 0.8127(3) 1.1139(4)
C33 C 0.4981(4) 0.8848(3) 1.0850(4)
H26 H 0.4704 0.9119 1.0580
C34 C 0.4670(5) 0.9287(3) 1.2089(5)
H27 H 0.4436 0.9069 1.2482
H28 H 0.4290 0.9509 1.1833
C35 C 0.5191(5) 0.9711(3) 1.2390(4)
H29 H 0.5585 0.9488 1.2621
H30 H 0.4947 0.9948 1.2760
C36 C 0.5532(4) 1.0149(3) 1.1814(4)
H31 H 0.5811 0.9921 1.1461
H32 H 0.5142 1.0361 1.1561
C37 C 0.6033(5) 1.0601(4) 1.2193(4)
H33 H 0.5752 1.0813 1.2559
H34 H 0.6423 1.0383 1.2437
C38 C 0.6820(4) 1.1506(3) 1.1944(4)
C39 C 0.7002(4) 1.1831(3) 1.1333(4)
C40 C 0.7453(4) 1.2344(3) 1.1402(5)
H35 H 0.7590 1.2572 1.1001
C41 C 0.7684(5) 1.2495(4) 1.2091(5)
H36 H 0.7973 1.2837 1.2153
C42 C 0.7499(6) 1.2151(4) 1.2697(5)
H37 H 0.7680 1.2258 1.3151
C43 C 0.7053(5) 1.1659(4) 1.2630(5)
H38 H 0.6911 1.1435 1.3032
C44 C 0.6314(4) 1.1109(3) 1.0986(4)
H39 H 0.6048 1.0847 1.0693
C45 C 0.6842(4) 0.4845(3) 0.7570(4)
C46 C 0.7269(4) 0.4336(4) 0.7625(5)
H40 H 0.7329 0.4138 0.8065
C47 C 0.7601(5) 0.4134(4) 0.7011(5)
H41 H 0.7876 0.3780 0.7030
C48 C 0.7542(5) 0.4441(5) 0.6354(5)
H42 H 0.7796 0.4296 0.5952
C49 C 0.7128(5) 0.4940(4) 0.6282(4)
H43 H 0.7079 0.5137 0.5840
C50 C 0.6777(4) 0.5146(3) 0.6909(4)
C51 C 0.6153(4) 0.5625(3) 0.7741(4)
H44 H 0.5860 0.5916 0.7960
C52 C 0.6113(5) 0.6077(3) 0.6485(4)
H45 H 0.5868 0.5868 0.6091
H46 H 0.6553 0.6265 0.6290
C53 C 0.5601(5) 0.6570(4) 0.6775(4)
H47 H 0.5847 0.6793 0.7157
H48 H 0.5162 0.6388 0.6977
C54 C 0.5391(6) 0.7001(4) 0.6157(4)
H49 H 0.5174 0.6771 0.5764
H50 H 0.5830 0.7196 0.5974
C55 C 0.4839(6) 0.7486(4) 0.6415(5)
H51 H 0.4696 0.7734 0.6006
H52 H 0.4400 0.7290 0.6599
C56 C 0.5624(6) 0.8358(4) 0.6903(5)
C57 C 0.5801(4) 0.8541(3) 0.7594(4)
C58 C 0.6278(5) 0.9031(3) 0.7678(5)
H53 H 0.6410 0.9169 0.8136
C59 C 0.6547(6) 0.9301(4) 0.7058(6)
H54 H 0.6862 0.9628 0.7111
C60 C 0.6382(7) 0.9119(5) 0.6383(6)
H55 H 0.6576 0.9324 0.5987
C61 C 0.5941(7) 0.8646(5) 0.6279(5)
H56 H 0.5841 0.8506 0.5814
C62 C 0.5068(5) 0.7787(4) 0.7718(5)
H57 H 0.4776 0.7487 0.7921
C63 C 0.3865(3) 0.5672(3) 0.9348(4)
C64 C 0.3113(3) 0.5777(3) 0.9387(4)
H58 H 0.2789 0.5453 0.9394
C65 C 0.2846(3) 0.6352(3) 0.9417(4)
C66 C 0.3326(3) 0.6842(3) 0.9432(5)
H59 H 0.3142 0.7232 0.9460
C67 C 0.4092(3) 0.6745(3) 0.9407(4)
C68 C 0.4349(3) 0.6144(2) 0.9356(4)
H60 H 0.4851 0.6070 0.9327
C69 C 0.4606(4) 0.7262(3) 0.9404(5)
C70 C 0.2015(3) 0.6485(3) 0.9424(5)
Cd2C Cd 0.05359(2) 0.675831(18) 0.93487(2)
Cd3C Cd 1.17989(2) 0.321892(18) 0.94967(3)
Cd3A Cd 0.32011(2) 0.821892(18) 1.44967(3)
Cd3_2 Cd 0.67989(2) 1.178108(18) 0.94967(3)
O10C O 0.5509(2) 0.2063(2) 0.9465(3)
O11C O 0.5770(2) 0.11174(18) 0.9311(3)
N9A N 0.6788(3) 0.1896(3) 0.8248(4)
N10_2 N 0.6677(4) 0.1578(3) 1.0732(4)
O14C O 0.6588(2) 0.8949(2) 0.9431(3)
O15C O 0.6803(2) 0.7992(2) 0.9391(4)
O2 O 0.7658(7) 0.6672(4) 0.9580(5)
O4 O 0.6114(8) 1.0015(3) 0.9845(6)
loop_
_geom_bond_atom_site_label_1
_geom_bond_atom_site_label_2
_geom_bond_site_symmetry_1
_geom_bond_site_symmetry_2
Cd1 O1 1_555 1_555
S1 C1 1_555 1_555
N1 Cd1 1_555 1_555
C1 C2 1_555 1_555
Cd2 N5 1_555 1_555
S2 O16 1_555 1_555
O3 Cd1 1_555 1_555
N2 Cd1 1_555 1_555
C2 H1 1_555 1_555
Cd3 O8 1_555 1_555
O5 Cd1 1_555 1_555
N3 C14 1_555 1_555
C3 C2 1_555 1_555
O6 S1 1_555 1_555
N4 C50 1_555 1_555
C4 C3 1_555 1_555
H2 C4 1_555 1_555
O7 S1 1_555 1_555
N5 C32 1_555 1_555
C5 C4 1_555 1_555
O8 C8 1_555 1_555
N6 Cd2 1_555 1_555
C6 C1 1_555 1_555
H3 C6 1_555 1_555
O9 Cd3 1_555 1_555
N7 C27 1_555 1_555
C7 C3 1_555 1_555
O10 C7 1_555 1_555
N8 C55 1_555 1_555
C8 C5 1_555 1_555
O11 C7 1_555 1_555
N9 C21 1_555 1_555
C9 N1 1_555 1_555
O12 Cd2 1_555 1_555
N10 C39 1_555 1_555
C10 C9 1_555 1_555
H4 C10 1_555 1_555
O13 Cd2 1_555 1_555
N11 C19 1_555 1_555
C11 C10 1_555 1_555
H5 C11 1_555 1_555
O14 C70 1_555 1_555
N12 C37 1_555 1_555
C12 C11 1_555 1_555
H6 C12 1_555 1_555
O15 C70 1_555 1_555
C13 C12 1_555 1_555
H7 C13 1_555 1_555
C14 C9 1_555 1_555
O17 S2 1_555 1_555
C15 N1 1_555 1_555
H8 C15 1_555 1_555
O18 Cd1 1_555 1_555
C16 N3 1_555 1_555
H9 C16 1_555 1_555
H10 C16 1_555 1_555
O19 Cd2 1_555 1_555
C17 C16 1_555 1_555
H11 C17 1_555 1_555
H12 C17 1_555 1_555
C18 C17 1_555 1_555
H13 C18 1_555 1_555
H14 C18 1_555 1_555
O20 Cd3 1_555 1_555
C19 C18 1_555 1_555
H15 C19 1_555 1_555
H16 C19 1_555 1_555
C20 N11 1_555 1_555
C21 C20 1_555 1_555
C22 C21 1_555 1_555
H17 C22 1_555 1_555
C23 C22 1_555 1_555
H18 C23 1_555 1_555
C24 C23 1_555 1_555
H19 C24 1_555 1_555
C25 C20 1_555 1_555
H20 C25 1_555 1_555
C26 N9 1_555 1_555
H21 C26 1_555 1_555
C27 C28 1_555 1_555
C28 H22 1_555 1_555
C29 C28 1_555 1_555
H23 C29 1_555 1_555
C30 C29 1_555 1_555
H24 C30 1_555 1_555
C31 C30 1_555 1_555
H25 C31 1_555 1_555
C32 C27 1_555 1_555
C33 N5 1_555 1_555
H26 C33 1_555 1_555
C34 N7 1_555 1_555
H27 C34 1_555 1_555
H28 C34 1_555 1_555
C35 C34 1_555 1_555
H29 C35 1_555 1_555
H30 C35 1_555 1_555
C36 C35 1_555 1_555
H31 C36 1_555 1_555
H32 C36 1_555 1_555
C37 C36 1_555 1_555
H33 C37 1_555 1_555
H34 C37 1_555 1_555
C38 N12 1_555 1_555
C39 C38 1_555 1_555
C40 C39 1_555 1_555
H35 C40 1_555 1_555
C41 C40 1_555 1_555
H36 C41 1_555 1_555
C42 C41 1_555 1_555
H37 C42 1_555 1_555
C43 C38 1_555 1_555
H38 C43 1_555 1_555
C44 N10 1_555 1_555
H39 C44 1_555 1_555
C45 N2 1_555 1_555
C46 C45 1_555 1_555
H40 C46 1_555 1_555
C47 C46 1_555 1_555
H41 C47 1_555 1_555
C48 C47 1_555 1_555
H42 C48 1_555 1_555
C49 C48 1_555 1_555
H43 C49 1_555 1_555
C50 C45 1_555 1_555
C51 N2 1_555 1_555
H44 C51 1_555 1_555
C52 N4 1_555 1_555
H45 C52 1_555 1_555
H46 C52 1_555 1_555
C53 C52 1_555 1_555
H47 C53 1_555 1_555
H48 C53 1_555 1_555
C54 C53 1_555 1_555
H49 C54 1_555 1_555
H50 C54 1_555 1_555
C55 C54 1_555 1_555
H51 C55 1_555 1_555
H52 C55 1_555 1_555
C56 N8 1_555 1_555
C57 N6 1_555 1_555
C58 C57 1_555 1_555
H53 C58 1_555 1_555
C59 C58 1_555 1_555
H54 C59 1_555 1_555
C60 C59 1_555 1_555
H55 C60 1_555 1_555
C61 C56 1_555 1_555
H56 C61 1_555 1_555
C62 N6 1_555 1_555
H57 C62 1_555 1_555
C63 S2 1_555 1_555
C64 C63 1_555 1_555
H58 C64 1_555 1_555
C65 C64 1_555 1_555
C66 C65 1_555 1_555
H59 C66 1_555 1_555
C67 C66 1_555 1_555
C68 C63 1_555 1_555
H60 C68 1_555 1_555
C69 O12 1_555 1_555
C70 C65 1_555 1_555
Cd2C O14 1_555 1_555
Cd3C O10 1_555 1_555
Cd3A N9 1_555 1_555
Cd3_2 N10 1_555 1_555
O10C Cd3 1_555 1_555
O11C Cd3 1_555 1_555
N9A Cd3 1_555 1_555
N10_2 Cd3 1_555 1_555
O14C Cd2 1_555 1_555
O15C Cd2 1_555 1_555
S1 O5 1_555 1_555
S2 O18 1_555 1_555
N3 C15 1_555 1_555
N4 C51 1_555 1_555
C5 C6 1_555 1_555
O9 C8 1_555 1_555
N7 C33 1_555 1_555
N8 C62 1_555 1_555
O11 Cd3C 1_555 1_555
N11 C26 1_555 1_555
N12 C44 1_555 1_555
O15 Cd2C 1_555 1_555
C13 C14 1_555 1_555
O19 C69 1_555 1_555
C24 C25 1_555 1_555
C31 C32 1_555 1_555
C42 C43 1_555 1_555
C49 C50 1_555 1_555
C56 C57 1_555 1_555
C60 C61 1_555 1_555
C67 C68 1_555 1_555
C67 C69 1_555 1_555

#END
