
#######################################################################
#
#                 Cambridge Crystallographic Data Centre
#                                CCDC 
#
#######################################################################
#
# If this CIF has been generated from an entry in the Cambridge 
# Structural Database, then it will include bibliographic, chemical, 
# crystal, experimental, refinement or atomic coordinate data resulting 
# from the CCDC's data processing and validation procedures.
#
#######################################################################

data_PARWOW
_symmetry_cell_setting           monoclinic
_symmetry_space_group_name_H-M   'C 2/c'
_symmetry_Int_Tables_number      15
_space_group_name_Hall           '-C 2yn'
loop_
_symmetry_equiv_pos_site_id
_symmetry_equiv_pos_as_xyz
1 x,y,z
2 -x,y,1/2-z
3 1/2+x,1/2+y,z
4 1/2-x,1/2+y,1/2-z
5 -x,-y,-z
6 x,-y,1/2+z
7 1/2-x,1/2-y,-z
8 1/2+x,1/2-y,1/2+z
_cell_length_a                   25.876(8)
_cell_length_b                   9.8293(8)
_cell_length_c                   17.814(3)
_cell_angle_alpha                90
_cell_angle_beta                 133.12(3)
_cell_angle_gamma                90
_cell_volume                     3307.19
loop_
_atom_site_label
_atom_site_type_symbol
_atom_site_fract_x
_atom_site_fract_y
_atom_site_fract_z
Cd1 Cd 0.0000 0.09528(3) 0.2500
N1 N 0.07909(11) 0.2598(3) 0.29093(17)
N2 N 0.12440(11) 0.4462(3) 0.28764(17)
N3 N 0.39401(12) 0.5122(3) 0.42721(17)
N4 N 0.44375(13) 0.4288(3) 0.57860(18)
O1 O 0.17520(11) 0.3613(3) -0.01353(16)
O2 O 0.07172(11) 0.4255(3) -0.07022(16)
O3 O -0.07372(12) -0.07484(18) 0.23019(18)
H1 H -0.0516 -0.1377 0.2411
H2 H -0.1131 -0.0753 0.1763
C1 C 0.15126(15) 0.2532(3) 0.3665(2)
H6 H 0.1768 0.1812 0.4122
C2 C 0.17990(16) 0.3658(3) 0.3650(2)
H7 H 0.2279 0.3854 0.4079
C3 C 0.06554(15) 0.3779(3) 0.2457(2)
H8 H 0.0201 0.4099 0.1909
C4 C 0.12926(17) 0.5791(3) 0.2558(2)
H9 H 0.1533 0.6427 0.3125
H10 H 0.0821 0.6137 0.1992
C5 C 0.16935(15) 0.5671(3) 0.2226(2)
C6 C 0.13640(14) 0.5114(3) 0.12692(19)
H11 H 0.0884 0.4903 0.0812
C7 C 0.17414(13) 0.4870(3) 0.09895(19)
C8 C 0.24605(14) 0.5190(3) 0.16795(19)
H12 H 0.2720 0.5009 0.1505
C9 C 0.27911(15) 0.5773(3) 0.2620(2)
C10 C 0.24022(16) 0.6014(3) 0.2883(2)
H13 H 0.2623 0.6414 0.3514
C11 C 0.35807(16) 0.6053(3) 0.3400(2)
H14 H 0.3766 0.5933 0.3080
H15 H 0.3668 0.6986 0.3638
C12 C 0.42339(16) 0.5389(4) 0.5230(2)
H16 H 0.4288 0.6263 0.5476
C13 C 0.4253(2) 0.3257(5) 0.5148(3)
H17 H 0.4328 0.2340 0.5325
C14 C 0.3943(3) 0.3745(4) 0.4216(3)
H18 H 0.3765 0.3235 0.3641
C15 C 0.13745(15) 0.4201(3) -0.0034(2)
Cd1F Cd -0.5000 0.40472(3) -0.2500
Cd1F_2 Cd 0.5000 0.40472(3) 0.7500
N1A N -0.07909(11) 0.2598(3) 0.20907(17)
N2A N -0.12440(11) 0.4462(3) 0.21236(17)
N3A N -0.39401(12) 0.5122(3) 0.07279(17)
N4A N -0.44375(13) 0.4288(3) -0.07860(18)
N4F N 0.05625(13) 0.0712(3) 0.42140(18)
N4G N -0.05625(13) 0.0712(3) 0.07860(18)
O1A O -0.17520(11) 0.3613(3) 0.51353(16)
O2A O -0.07172(11) 0.4255(3) 0.57022(16)
O3A O 0.07372(12) -0.07484(18) 0.26981(18)
H1A H 0.0516 -0.1377 0.2589
H2A H 0.1131 -0.0753 0.3237
C1A C -0.15126(15) 0.2532(3) 0.1335(2)
H6A H -0.1768 0.1812 0.0878
C2A C -0.17990(16) 0.3658(3) 0.1350(2)
H7A H -0.2279 0.3854 0.0921
C3A C -0.06554(15) 0.3779(3) 0.2543(2)
H8A H -0.0201 0.4099 0.3091
C4A C -0.12926(17) 0.5791(3) 0.2442(2)
H9A H -0.1533 0.6427 0.1875
H10A H -0.0821 0.6137 0.3008
C5A C -0.16935(15) 0.5671(3) 0.2774(2)
C6A C -0.13640(14) 0.5114(3) 0.37308(19)
H11A H -0.0884 0.4903 0.4188
C7A C -0.17414(13) 0.4870(3) 0.40105(19)
C8A C -0.24605(14) 0.5190(3) 0.33205(19)
H12A H -0.2720 0.5009 0.3495
C9A C -0.27911(15) 0.5773(3) 0.2380(2)
C10A C -0.24022(16) 0.6014(3) 0.2117(2)
H13A H -0.2623 0.6414 0.1486
C11A C -0.35807(16) 0.6053(3) 0.1600(2)
H14A H -0.3766 0.5933 0.1920
H15A H -0.3668 0.6986 0.1362
C12A C -0.42339(16) 0.5389(4) -0.0230(2)
H16A H -0.4288 0.6263 -0.0476
C13A C -0.4253(2) 0.3257(5) -0.0148(3)
H17A H -0.4328 0.2340 -0.0325
C14A C -0.3943(3) 0.3745(4) 0.0784(3)
H18A H -0.3765 0.3235 0.1359
C15A C -0.13745(15) 0.4201(3) 0.5034(2)
O4 O 0.00000(12) 0.70570(18) 0.25000(18)
H3 H 0.0164 0.6520 0.2988
H3A H -0.0164 0.6520 0.2012
O5 O 0.29998(12) 0.3989(2) 0.03711(18)
H4 H 0.2610 0.3875 0.0214
H5 H 0.3071 0.3321 0.0148
loop_
_geom_bond_atom_site_label_1
_geom_bond_atom_site_label_2
_geom_bond_site_symmetry_1
_geom_bond_site_symmetry_2
Cd1 N1 1_555 1_555
N1 C1 1_555 1_555
N2 C2 1_555 1_555
N3 C11 1_555 1_555
N4 C12 1_555 1_555
O1 C15 1_555 1_555
O2 C15 1_555 1_555
O3 Cd1 1_555 1_555
H1 O3 1_555 1_555
H2 O3 1_555 1_555
O4 H3 1_555 1_555
O5 H4 1_555 1_555
H5 O5 1_555 1_555
C1 H6 1_555 1_555
C2 C1 1_555 1_555
H7 C2 1_555 1_555
C3 N1 1_555 1_555
H8 C3 1_555 1_555
C4 N2 1_555 1_555
H9 C4 1_555 1_555
H10 C4 1_555 1_555
C5 C4 1_555 1_555
C6 C5 1_555 1_555
H11 C6 1_555 1_555
C7 C6 1_555 1_555
C8 C7 1_555 1_555
H12 C8 1_555 1_555
C9 C8 1_555 1_555
C10 C5 1_555 1_555
H13 C10 1_555 1_555
C11 C9 1_555 1_555
H14 C11 1_555 1_555
H15 C11 1_555 1_555
C12 N3 1_555 1_555
H16 C12 1_555 1_555
C13 N4 1_555 1_555
H17 C13 1_555 1_555
C14 N3 1_555 1_555
H18 C14 1_555 1_555
C15 C7 1_555 1_555
Cd1F N4A 1_555 1_555
Cd1F_2 N4 1_555 1_555
N1A Cd1 1_555 1_555
N2A C2A 1_555 1_555
N3A C11A 1_555 1_555
N4A C12A 1_555 1_555
N4F Cd1 1_555 1_555
N4G Cd1 1_555 1_555
O1A C15A 1_555 1_555
O2A C15A 1_555 1_555
O3A Cd1 1_555 1_555
H1A O3A 1_555 1_555
H2A O3A 1_555 1_555
H3A O4 1_555 1_555
C1A N1A 1_555 1_555
H6A C1A 1_555 1_555
C2A C1A 1_555 1_555
H7A C2A 1_555 1_555
C3A N1A 1_555 1_555
H8A C3A 1_555 1_555
C4A N2A 1_555 1_555
H9A C4A 1_555 1_555
H10A C4A 1_555 1_555
C5A C4A 1_555 1_555
C6A C5A 1_555 1_555
H11A C6A 1_555 1_555
C7A C6A 1_555 1_555
C8A C7A 1_555 1_555
H12A C8A 1_555 1_555
C9A C8A 1_555 1_555
C10A C5A 1_555 1_555
H13A C10A 1_555 1_555
C11A C9A 1_555 1_555
H14A C11A 1_555 1_555
H15A C11A 1_555 1_555
C12A N3A 1_555 1_555
H16A C12A 1_555 1_555
C13A N4A 1_555 1_555
H17A C13A 1_555 1_555
C14A N3A 1_555 1_555
H18A C14A 1_555 1_555
C15A C7A 1_555 1_555
N2 C3 1_555 1_555
C9 C10 1_555 1_555
C13 C14 1_555 1_555
N2A C3A 1_555 1_555
C9A C10A 1_555 1_555
C13A C14A 1_555 1_555

#END
