
#######################################################################
#
#                 Cambridge Crystallographic Data Centre
#                                CCDC 
#
#######################################################################
#
# If this CIF has been generated from an entry in the Cambridge 
# Structural Database, then it will include bibliographic, chemical, 
# crystal, experimental, refinement or atomic coordinate data resulting 
# from the CCDC's data processing and validation procedures.
#
#######################################################################

data_PARWAI
_symmetry_cell_setting           monoclinic
_symmetry_space_group_name_H-M   'P 21/m'
_symmetry_Int_Tables_number      11
_space_group_name_Hall           '-P 2yb'
loop_
_symmetry_equiv_pos_site_id
_symmetry_equiv_pos_as_xyz
1 x,y,z
2 -x,1/2+y,-z
3 -x,-y,-z
4 x,1/2-y,z
_cell_length_a                   9.3568(8)
_cell_length_b                   15.2796(14)
_cell_length_c                   9.5459(9)
_cell_angle_alpha                90
_cell_angle_beta                 116.5170(10)
_cell_angle_gamma                90
_cell_volume                     1221.19
loop_
_atom_site_label
_atom_site_type_symbol
_atom_site_fract_x
_atom_site_fract_y
_atom_site_fract_z
O5 O 0.2616(6) 0.2016(4) 0.7466(7)
O5C O 0.2616(6) 0.2984(4) 0.7466(7)
Co1 Co 0.09096(4) -0.2500 -0.01846(4)
O1 O 0.1877(2) -0.2500 -0.1612(2)
O2 O 0.4389(3) -0.2500 0.0128(2)
O3 O 0.2404(3) -0.2500 -0.7990(2)
O4 O 0.0442(3) -0.2500 -0.7300(2)
N1 N -0.04635(19) -0.14115(11) -0.07499(18)
N2 N -0.20181(19) -0.03664(11) -0.0561(2)
C1 C -0.1049(2) -0.10393(14) 0.0132(2)
H1 H -0.0809 -0.1228 0.1140
C2 C -0.1117(2) -0.09357(13) -0.2154(2)
C3 C -0.0932(3) -0.10334(15) -0.3504(3)
H2 H -0.0277 -0.1466 -0.3594
C4 C -0.1762(3) -0.04596(18) -0.4709(3)
H3 H -0.1668 -0.0509 -0.5636
C5 C -0.2743(3) 0.01935(18) -0.4582(3)
H4 H -0.3276 0.0570 -0.5421
C6 C -0.2938(3) 0.02938(15) -0.3259(3)
H5 H -0.3595 0.0727 -0.3177
C7 C -0.2106(2) -0.02831(13) -0.2043(2)
C8 C -0.2921(3) 0.01377(16) 0.0090(3)
H6 H -0.2328 0.0150 0.1222
H7 H -0.3038 0.0736 -0.0286
C9 C -0.4547(3) -0.02480(15) -0.0364(3)
H8 H -0.5156 -0.0237 -0.1494
H9 H -0.4431 -0.0854 -0.0029
C10 C 0.3366(3) -0.2500 -0.1221(3)
C11 C 0.3822(3) -0.2500 -0.2539(3)
C12 C 0.2679(3) -0.2500 -0.4091(3)
H10 H 0.1602 -0.2500 -0.4325
C13 C 0.3120(3) -0.2500 -0.5299(3)
C14 C 0.4730(3) -0.2500 -0.4946(3)
H11 H 0.5037 -0.2500 -0.5748
C15 C 0.5874(3) -0.2500 -0.3406(3)
H12 H 0.6951 -0.2500 -0.3173
C16 C 0.5430(3) -0.2500 -0.2212(3)
H13 H 0.6211 -0.2500 -0.1177
C17 C 0.1877(4) -0.2500 -0.6967(3)
Co1_2 Co 0.09096(4) -0.2500 -1.01846(4)
Co1A Co -1.09096(4) 0.2500 0.01846(4)
O3_2 O 0.2404(3) -0.2500 0.2010(2)
N1B N -0.95365(19) 0.14115(11) 0.07499(18)
N1C N -0.04635(19) -0.35885(11) -0.07499(18)
N2B N -0.79819(19) 0.03664(11) 0.0561(2)
C1B C -0.8951(2) 0.10393(14) -0.0132(2)
H1B H -0.9191 0.1228 -0.1140
C2B C -0.8883(2) 0.09357(13) 0.2154(2)
C3B C -0.9068(3) 0.10334(15) 0.3504(3)
H2B H -0.9723 0.1466 0.3594
C4B C -0.8238(3) 0.04596(18) 0.4709(3)
H3B H -0.8332 0.0509 0.5636
C5B C -0.7257(3) -0.01935(18) 0.4582(3)
H4B H -0.6724 -0.0570 0.5421
C6B C -0.7062(3) -0.02938(15) 0.3259(3)
H5B H -0.6405 -0.0727 0.3177
C7B C -0.7894(2) 0.02831(13) 0.2043(2)
C8B C -0.7079(3) -0.01377(16) -0.0090(3)
H6B H -0.7672 -0.0150 -0.1222
H7B H -0.6962 -0.0736 0.0286
C9B C -0.5453(3) 0.02480(15) 0.0364(3)
H8B H -0.4844 0.0237 0.1494
H9B H -0.5569 0.0854 0.0029
loop_
_geom_bond_atom_site_label_1
_geom_bond_atom_site_label_2
_geom_bond_site_symmetry_1
_geom_bond_site_symmetry_2
Co1 O1 1_555 1_555
O1 C10 1_555 1_555
O2 C10 1_555 1_555
O3 C17 1_555 1_555
O4 C17 1_555 1_555
N1 Co1 1_555 1_555
N2 C1 1_555 1_555
C1 N1 1_555 1_555
H1 C1 1_555 1_555
C2 N1 1_555 1_555
C3 C2 1_555 1_555
H2 C3 1_555 1_555
C4 C3 1_555 1_555
H3 C4 1_555 1_555
C5 C4 1_555 1_555
H4 C5 1_555 1_555
C6 C5 1_555 1_555
H5 C6 1_555 1_555
C7 N2 1_555 1_555
C8 N2 1_555 1_555
H6 C8 1_555 1_555
H7 C8 1_555 1_555
C9 C8 1_555 1_555
H8 C9 1_555 1_555
H9 C9 1_555 1_555
C10 C11 1_555 1_555
C11 C12 1_555 1_555
C12 H10 1_555 1_555
C13 C12 1_555 1_555
C14 C13 1_555 1_555
H11 C14 1_555 1_555
C15 C14 1_555 1_555
H12 C15 1_555 1_555
C16 C11 1_555 1_555
H13 C16 1_555 1_555
C17 C13 1_555 1_555
O5 O5C 1_555 1_555
Co1_2 O3 1_555 1_555
Co1A N1B 1_555 1_555
O3_2 Co1 1_555 1_555
N1B C1B 1_555 1_555
N1C Co1 1_555 1_555
N2B C1B 1_555 1_555
C1B H1B 1_555 1_555
C2B N1B 1_555 1_555
C3B C2B 1_555 1_555
H2B C3B 1_555 1_555
C4B C3B 1_555 1_555
H3B C4B 1_555 1_555
C5B C4B 1_555 1_555
H4B C5B 1_555 1_555
C6B C5B 1_555 1_555
H5B C6B 1_555 1_555
C7B N2B 1_555 1_555
C8B N2B 1_555 1_555
H6B C8B 1_555 1_555
H7B C8B 1_555 1_555
C9B C9 1_555 1_555
H8B C9B 1_555 1_555
H9B C9B 1_555 1_555
C2 C7 1_555 1_555
C6 C7 1_555 1_555
C15 C16 1_555 1_555
C2B C7B 1_555 1_555
C6B C7B 1_555 1_555
C8B C9B 1_555 1_555

#END
