
#######################################################################
#
#                 Cambridge Crystallographic Data Centre
#                                CCDC 
#
#######################################################################
#
# If this CIF has been generated from an entry in the Cambridge 
# Structural Database, then it will include bibliographic, chemical, 
# crystal, experimental, refinement or atomic coordinate data resulting 
# from the CCDC's data processing and validation procedures.
#
#######################################################################

data_PARXAJ
_symmetry_cell_setting           monoclinic
_symmetry_space_group_name_H-M   'P 2/c'
_symmetry_Int_Tables_number      13
_space_group_name_Hall           '-P 2yc'
loop_
_symmetry_equiv_pos_site_id
_symmetry_equiv_pos_as_xyz
1 x,y,z
2 -x,y,1/2-z
3 -x,-y,-z
4 x,-y,1/2+z
_cell_length_a                   8.8844(4)
_cell_length_b                   10.4799(5)
_cell_length_c                   17.2726(7)
_cell_angle_alpha                90
_cell_angle_beta                 98.368(4)
_cell_angle_gamma                90
_cell_volume                     1591.09
loop_
_atom_site_label
_atom_site_type_symbol
_atom_site_fract_x
_atom_site_fract_y
_atom_site_fract_z
C1 C 0.9262(6) 1.2502(7) 0.0968(4)
H1 H 0.9293 1.1785 0.1325
H2 H 0.8243 1.2856 0.0911
Cd1 Cd 0.5000 0.93189(6) -0.2500
Cd2 Cd 0.5000 0.56120(6) -0.2500
Cl1 Cl 0.45089(16) 0.75875(17) -0.15355(8)
N1 N 1.2462(5) 1.4309(5) 0.1918(3)
N2 N 1.0329(6) 1.3468(6) 0.1317(3)
C2 C 1.1024(7) 1.1889(6) 0.0012(4)
H3 H 1.1840 1.2153 0.0376
C3 C 1.1647(7) 1.3271(7) 0.1793(4)
H4 H 1.1946 1.2482 0.2009
C4 C 0.9547(6) 1.2020(6) 0.0193(4)
C5 C 1.1310(7) 1.1379(6) -0.0689(4)
C6 C 0.8610(7) 1.1084(6) -0.1064(4)
C7 C 0.7338(7) 1.0511(7) -0.1631(5)
O1 O 0.5992(4) 1.0691(4) -0.1483(2)
C8 C 0.8360(6) 1.1601(6) -0.0362(4)
H5 H 0.7367 1.1672 -0.0255
C9 C 1.0068(8) 1.0982(6) -0.1233(4)
H6 H 1.0234 1.0648 -0.1712
O2 O 0.7601(5) 0.9900(5) -0.2203(3)
C10 C 1.0312(8) 1.4740(8) 0.1123(4)
H7 H 0.9552 1.5169 0.0797
C11 C 1.1613(8) 1.5241(7) 0.1499(4)
H8 H 1.1895 1.6094 0.1478
N3 N 1.3608(5) 1.2460(6) -0.1016(3)
C12 C 1.2920(7) 1.1247(6) -0.0872(4)
H9 H 1.2910 1.0709 -0.1330
H10 H 1.3539 1.0828 -0.0437
C13 C 1.4371(10) 1.3235(8) -0.0466(4)
H11 H 1.4530 1.3100 0.0072
N4 N 1.4451(6) 1.4096(5) -0.1616(3)
C14 C 1.3730(7) 1.3005(7) -0.1696(4)
H12 H 1.3344 1.2651 -0.2178
C15 C 1.4857(10) 1.4241(8) -0.0851(4)
H13 H 1.5396 1.4933 -0.0614
C1A C 0.0738(6) 1.2502(7) -0.5968(4)
H1A H 0.0707 1.1785 -0.6325
H2A H 0.1757 1.2856 -0.5911
Cd2B Cd 1.5000 1.43880(6) 0.2500
Cd2_2 Cd 1.5000 1.56120(6) -0.2500
Cd2B_2 Cd -0.5000 1.43880(6) -0.7500
Cd2_3 Cd -0.5000 1.56120(6) -0.2500
Cl1A Cl 0.54911(16) 0.75875(17) -0.34645(8)
N1A N -0.2462(5) 1.4309(5) -0.6918(3)
N1B N 0.7538(5) 0.5691(5) -0.1918(3)
N1C N 0.2462(5) 0.5691(5) -0.3082(3)
N2A N -0.0329(6) 1.3468(6) -0.6317(3)
C2A C -0.1024(7) 1.1889(6) -0.5012(4)
H3A H -0.1840 1.2153 -0.5376
C3A C -0.1647(7) 1.3271(7) -0.6793(4)
H4A H -0.1946 1.2482 -0.7009
C4A C 0.0453(6) 1.2020(6) -0.5193(4)
C5A C -0.1310(7) 1.1379(6) -0.4311(4)
C6A C 0.1390(7) 1.1084(6) -0.3936(4)
C7A C 0.2662(7) 1.0511(7) -0.3369(5)
O1A O 0.4008(4) 1.0691(4) -0.3517(2)
C8A C 0.1640(6) 1.1601(6) -0.4638(4)
H5A H 0.2633 1.1672 -0.4745
C9A C -0.0068(8) 1.0982(6) -0.3767(4)
H6A H -0.0234 1.0648 -0.3288
O2A O 0.2399(5) 0.9900(5) -0.2797(3)
C10A C -0.0312(8) 1.4740(8) -0.6123(4)
H7A H 0.0448 1.5169 -0.5797
C11A C -0.1613(8) 1.5241(7) -0.6499(4)
H8A H -0.1895 1.6094 -0.6478
N3A N -0.3608(5) 1.2460(6) -0.3984(3)
C12A C -0.2920(7) 1.1247(6) -0.4128(4)
H9A H -0.2910 1.0709 -0.3670
H10A H -0.3539 1.0828 -0.4563
C13A C -0.4371(10) 1.3235(8) -0.4534(4)
H11A H -0.4530 1.3100 -0.5072
N4A N -0.4451(6) 1.4096(5) -0.3384(3)
N4_2 N 0.4451(6) 0.4096(5) -0.1616(3)
N4A_2 N 0.5549(6) 0.4096(5) -0.3384(3)
C14A C -0.3730(7) 1.3005(7) -0.3304(4)
H12A H -0.3344 1.2651 -0.2822
C15A C -0.4857(10) 1.4241(8) -0.4149(4)
H13A H -0.5396 1.4933 -0.4386
loop_
_geom_bond_atom_site_label_1
_geom_bond_atom_site_label_2
_geom_bond_site_symmetry_1
_geom_bond_site_symmetry_2
C1 H1 1_555 1_555
H2 C1 1_555 1_555
Cd1 Cl1 1_555 1_555
Cd2 Cl1 1_555 1_555
N1 C3 1_555 1_555
N2 C1 1_555 1_555
C2 H3 1_555 1_555
C3 N2 1_555 1_555
H4 C3 1_555 1_555
C4 C1 1_555 1_555
C5 C2 1_555 1_555
C6 C7 1_555 1_555
C7 O1 1_555 1_555
O1 Cd1 1_555 1_555
C8 C4 1_555 1_555
H5 C8 1_555 1_555
C9 C5 1_555 1_555
H6 C9 1_555 1_555
O2 Cd1 1_555 1_555
C10 N2 1_555 1_555
H7 C10 1_555 1_555
C11 N1 1_555 1_555
H8 C11 1_555 1_555
N3 C12 1_555 1_555
C12 C5 1_555 1_555
H9 C12 1_555 1_555
H10 C12 1_555 1_555
C13 N3 1_555 1_555
H11 C13 1_555 1_555
N4 C14 1_555 1_555
C14 N3 1_555 1_555
H12 C14 1_555 1_555
C15 C13 1_555 1_555
H13 C15 1_555 1_555
C1A H1A 1_555 1_555
H2A C1A 1_555 1_555
Cd2B N1 1_555 1_555
Cd2_2 N4 1_555 1_555
Cd2B_2 N1A 1_555 1_555
Cd2_3 N4A 1_555 1_555
Cl1A Cd1 1_555 1_555
N1A C3A 1_555 1_555
N1B Cd2 1_555 1_555
N1C Cd2 1_555 1_555
N2A C1A 1_555 1_555
C2A H3A 1_555 1_555
C3A N2A 1_555 1_555
H4A C3A 1_555 1_555
C4A C1A 1_555 1_555
C5A C2A 1_555 1_555
C6A C7A 1_555 1_555
C7A O1A 1_555 1_555
O1A Cd1 1_555 1_555
C8A C4A 1_555 1_555
H5A C8A 1_555 1_555
C9A C5A 1_555 1_555
H6A C9A 1_555 1_555
O2A Cd1 1_555 1_555
C10A N2A 1_555 1_555
H7A C10A 1_555 1_555
C11A N1A 1_555 1_555
H8A C11A 1_555 1_555
N3A C12A 1_555 1_555
C12A C5A 1_555 1_555
H9A C12A 1_555 1_555
H10A C12A 1_555 1_555
C13A N3A 1_555 1_555
H11A C13A 1_555 1_555
N4A C14A 1_555 1_555
N4_2 Cd2 1_555 1_555
N4A_2 Cd2 1_555 1_555
C14A N3A 1_555 1_555
H12A C14A 1_555 1_555
C15A C13A 1_555 1_555
H13A C15A 1_555 1_555
Cd2 Cl1A 1_555 1_555
C2 C4 1_555 1_555
C6 C8 1_555 1_555
C6 C9 1_555 1_555
C7 O2 1_555 1_555
C10 C11 1_555 1_555
N4 C15 1_555 1_555
C2A C4A 1_555 1_555
C6A C8A 1_555 1_555
C6A C9A 1_555 1_555
C7A O2A 1_555 1_555
C10A C11A 1_555 1_555
N4A C15A 1_555 1_555

#END
