
#######################################################################
#
#                 Cambridge Crystallographic Data Centre
#                                CCDC 
#
#######################################################################
#
# If this CIF has been generated from an entry in the Cambridge 
# Structural Database, then it will include bibliographic, chemical, 
# crystal, experimental, refinement or atomic coordinate data resulting 
# from the CCDC's data processing and validation procedures.
#
#######################################################################

data_PARXEN
_symmetry_cell_setting           monoclinic
_symmetry_space_group_name_H-M   'C 2/c'
_symmetry_Int_Tables_number      15
_space_group_name_Hall           '-C 2yn'
loop_
_symmetry_equiv_pos_site_id
_symmetry_equiv_pos_as_xyz
1 x,y,z
2 -x,y,1/2-z
3 1/2+x,1/2+y,z
4 1/2-x,1/2+y,1/2-z
5 -x,-y,-z
6 x,-y,1/2+z
7 1/2-x,1/2-y,-z
8 1/2+x,1/2-y,1/2+z
_cell_length_a                   21.3069(15)
_cell_length_b                   10.2826(7)
_cell_length_c                   17.8765(12)
_cell_angle_alpha                90
_cell_angle_beta                 99.143(7)
_cell_angle_gamma                90
_cell_volume                     3866.81
loop_
_atom_site_label
_atom_site_type_symbol
_atom_site_fract_x
_atom_site_fract_y
_atom_site_fract_z
Cd1 Cd 0.163138(11) -0.25073(2) 0.529027(13)
N1 N 0.18549(14) -0.3870(3) 0.62867(15)
N2 N 0.23852(15) -0.5411(3) 0.69680(15)
N3 N 0.56117(15) -0.7046(3) 0.5596(2)
N4 N 0.45669(14) -0.6822(3) 0.52681(18)
O1 O 0.10047(12) -0.3721(3) 0.43535(14)
O2 O 0.12337(13) -0.1748(3) 0.39981(14)
O3 O 0.25046(11) -1.1153(2) 0.51840(13)
O4 O 0.19124(12) -1.0521(2) 0.60064(14)
C1 C 0.0239(2) -0.1821(4) 0.2814(2)
H1 H 0.0407 -0.1033 0.3007
C2 C 0.04661(18) -0.2944(4) 0.3149(2)
C3 C 0.02347(16) -0.4164(3) 0.28361(18)
C4 C 0.04582(18) -0.5379(4) 0.3141(2)
H2 H 0.0768 -0.5396 0.3571
C5 C 0.02328(18) -0.6519(4) 0.2823(2)
H3 H 0.0389 -0.7303 0.3035
C6 C 0.09459(18) -0.2808(4) 0.3873(2)
C7 C 0.27500(15) -0.9110(3) 0.58057(18)
C8 C 0.26765(16) -0.8345(3) 0.64270(18)
H4 H 0.2402 -0.8610 0.6753
C9 C 0.30110(17) -0.7187(3) 0.65631(19)
C10 C 0.34032(16) -0.6796(3) 0.6065(2)
H5 H 0.3617 -0.6007 0.6146
C11 C 0.34883(15) -0.7547(3) 0.5448(2)
C12 C 0.31624(15) -0.8714(3) 0.53220(18)
H6 H 0.3220 -0.9233 0.4912
C13 C 0.23703(16) -1.0346(3) 0.56602(19)
C14 C 0.29065(19) -0.6318(3) 0.72158(19)
H7 H 0.2805 -0.6846 0.7630
H8 H 0.3292 -0.5836 0.7396
C15 C 0.1763(2) -0.5526(4) 0.7052(2)
H9 H 0.1592 -0.6147 0.7340
C16 C 0.14429(19) -0.4575(4) 0.6643(2)
H10 H 0.1009 -0.4419 0.6606
C17 C 0.24204(18) -0.4410(3) 0.65000(19)
H11 H 0.2794 -0.4128 0.6344
C18 C 0.39168(17) -0.7087(4) 0.4896(2)
H12 H 0.3927 -0.7748 0.4511
H13 H 0.3739 -0.6303 0.4646
C19 C 0.47861(19) -0.5760(4) 0.5704(2)
H14 H 0.4547 -0.5065 0.5836
C20 C 0.5427(2) -0.5935(4) 0.5901(2)
H15 H 0.5697 -0.5369 0.6203
C21 C 0.50744(19) -0.7562(4) 0.5224(2)
H16 H 0.5057 -0.8348 0.4964
Cd1B Cd -0.336862(11) 0.24927(2) 0.529027(13)
Cd1B_2 Cd 0.663138(11) -0.75073(2) 0.529027(13)
Cd1_2 Cd 0.163138(11) -1.25073(2) 0.529027(13)
Cd1F Cd 0.336862(11) -1.24927(2) 0.470973(13)
Cd1A Cd -0.163138(11) -0.25073(2) -0.029027(13)
Cd1B_3 Cd -0.336862(11) -0.75073(2) 0.529027(13)
Cd1D Cd -0.163138(11) -0.74927(2) 0.470973(13)
N1B N -0.31451(14) 0.1130(3) 0.62867(15)
N2B N -0.26148(15) -0.0411(3) 0.69680(15)
N3B N 0.06117(15) -0.2046(3) 0.5596(2)
N3_2 N -0.43883(15) 0.2954(3) 0.5596(2)
N4B N -0.04331(14) -0.1822(3) 0.52681(18)
O1A O -0.10047(12) -0.3721(3) 0.06465(14)
O1B O -0.39953(12) 0.1279(3) 0.43535(14)
O2A O -0.12337(13) -0.1748(3) 0.10019(14)
O2B O -0.37663(13) 0.3252(3) 0.39981(14)
O3B O -0.24954(11) -0.6153(2) 0.51840(13)
O3_2 O 0.25046(11) -0.1153(2) 0.51840(13)
O3F O 0.24954(11) -0.3847(2) 0.48160(13)
O3B_2 O -0.24954(11) 0.3847(2) 0.51840(13)
O3D O -0.25046(11) 0.1153(2) 0.48160(13)
O4B O -0.30876(12) -0.5521(2) 0.60064(14)
O4_2 O 0.19124(12) -0.0521(2) 0.60064(14)
O4B_2 O -0.30876(12) 0.4479(2) 0.60064(14)
C1A C -0.0239(2) -0.1821(4) 0.2186(2)
H1A H -0.0407 -0.1033 0.1993
C2A C -0.04661(18) -0.2944(4) 0.1851(2)
C3A C -0.02347(16) -0.4164(3) 0.21639(18)
C4A C -0.04582(18) -0.5379(4) 0.1859(2)
H2A H -0.0768 -0.5396 0.1429
C5A C -0.02328(18) -0.6519(4) 0.2177(2)
H3A H -0.0389 -0.7303 0.1965
C6A C -0.09459(18) -0.2808(4) 0.1127(2)
C7B C -0.22500(15) -0.4110(3) 0.58057(18)
C8B C -0.23235(16) -0.3345(3) 0.64270(18)
H4B H -0.2598 -0.3610 0.6753
C9B C -0.19890(17) -0.2187(3) 0.65631(19)
C10B C -0.15968(16) -0.1796(3) 0.6065(2)
H5B H -0.1383 -0.1007 0.6146
C11B C -0.15117(15) -0.2547(3) 0.5448(2)
C12B C -0.18376(15) -0.3714(3) 0.53220(18)
H6B H -0.1780 -0.4233 0.4912
C13B C -0.26297(16) -0.5346(3) 0.56602(19)
C14B C -0.20935(19) -0.1318(3) 0.72158(19)
H7B H -0.2195 -0.1846 0.7630
H8B H -0.1708 -0.0836 0.7396
C15B C -0.3237(2) -0.0526(4) 0.7052(2)
H9B H -0.3408 -0.1147 0.7340
C16B C -0.35571(19) 0.0425(4) 0.6643(2)
H10B H -0.3991 0.0581 0.6606
C17B C -0.25796(18) 0.0590(3) 0.65000(19)
H11B H -0.2206 0.0872 0.6344
C18B C -0.10832(17) -0.2087(4) 0.4896(2)
H12B H -0.1073 -0.2748 0.4511
H13B H -0.1261 -0.1303 0.4646
C19B C -0.02139(19) -0.0760(4) 0.5704(2)
H14B H -0.0453 -0.0065 0.5836
C20B C 0.0427(2) -0.0935(4) 0.5901(2)
H15B H 0.0697 -0.0369 0.6203
C21B C 0.00744(19) -0.2562(4) 0.5224(2)
H16B H 0.0057 -0.3348 0.4964
loop_
_geom_bond_atom_site_label_1
_geom_bond_atom_site_label_2
_geom_bond_site_symmetry_1
_geom_bond_site_symmetry_2
Cd1 N1 1_555 1_555
N1 C16 1_555 1_555
N2 C14 1_555 1_555
N3 C20 1_555 1_555
N4 C18 1_555 1_555
O1 Cd1 1_555 1_555
O2 Cd1 1_555 1_555
O3 C13 1_555 1_555
O4 C13 1_555 1_555
C1 H1 1_555 1_555
C2 C1 1_555 1_555
C3 C2 1_555 1_555
C4 C3 1_555 1_555
H2 C4 1_555 1_555
C5 C4 1_555 1_555
H3 C5 1_555 1_555
C6 O1 1_555 1_555
C7 C8 1_555 1_555
C8 H4 1_555 1_555
C9 C8 1_555 1_555
C10 C9 1_555 1_555
H5 C10 1_555 1_555
C11 C10 1_555 1_555
C12 C7 1_555 1_555
H6 C12 1_555 1_555
C13 C7 1_555 1_555
C14 C9 1_555 1_555
H7 C14 1_555 1_555
H8 C14 1_555 1_555
C15 N2 1_555 1_555
H9 C15 1_555 1_555
C16 C15 1_555 1_555
H10 C16 1_555 1_555
C17 N1 1_555 1_555
H11 C17 1_555 1_555
C18 C11 1_555 1_555
H12 C18 1_555 1_555
H13 C18 1_555 1_555
C19 N4 1_555 1_555
H14 C19 1_555 1_555
C20 C19 1_555 1_555
H15 C20 1_555 1_555
C21 N3 1_555 1_555
H16 C21 1_555 1_555
Cd1B N1B 1_555 1_555
Cd1B_2 N3 1_555 1_555
Cd1_2 O3 1_555 1_555
Cd1F O3 1_555 1_555
Cd1A O1A 1_555 1_555
Cd1B_3 O3B 1_555 1_555
Cd1D O3B 1_555 1_555
N1B C16B 1_555 1_555
N2B C14B 1_555 1_555
N3B Cd1 1_555 1_555
N3_2 Cd1B 1_555 1_555
N4B C18B 1_555 1_555
O1A C6A 1_555 1_555
O1B Cd1B 1_555 1_555
O2A Cd1A 1_555 1_555
O2B Cd1B 1_555 1_555
O3B C13B 1_555 1_555
O3_2 Cd1 1_555 1_555
O3F Cd1 1_555 1_555
O3B_2 Cd1B 1_555 1_555
O3D Cd1B 1_555 1_555
O4B Cd1B_3 1_555 1_555
O4_2 Cd1 1_555 1_555
O4B_2 Cd1B 1_555 1_555
C1A C1 1_555 1_555
H1A C1A 1_555 1_555
C2A C1A 1_555 1_555
C3A C3 1_555 1_555
C4A C3A 1_555 1_555
H2A C4A 1_555 1_555
C5A C5 1_555 1_555
H3A C5A 1_555 1_555
C6A O2A 1_555 1_555
C7B C8B 1_555 1_555
C8B H4B 1_555 1_555
C9B C8B 1_555 1_555
C10B C9B 1_555 1_555
H5B C10B 1_555 1_555
C11B C10B 1_555 1_555
C12B C7B 1_555 1_555
H6B C12B 1_555 1_555
C13B O4B 1_555 1_555
C14B C9B 1_555 1_555
H7B C14B 1_555 1_555
H8B C14B 1_555 1_555
C15B N2B 1_555 1_555
H9B C15B 1_555 1_555
C16B C15B 1_555 1_555
H10B C16B 1_555 1_555
C17B N1B 1_555 1_555
H11B C17B 1_555 1_555
C18B C11B 1_555 1_555
H12B C18B 1_555 1_555
H13B C18B 1_555 1_555
C19B N4B 1_555 1_555
H14B C19B 1_555 1_555
C20B N3B 1_555 1_555
H15B C20B 1_555 1_555
C21B N3B 1_555 1_555
H16B C21B 1_555 1_555
N2 C17 1_555 1_555
N4 C21 1_555 1_555
O2 C6 1_555 1_555
O4 Cd1_2 1_555 1_555
C2 C6 1_555 1_555
C11 C12 1_555 1_555
N2B C17B 1_555 1_555
N4B C21B 1_555 1_555
C2A C3A 1_555 1_555
C2A C6A 1_555 1_555
C4A C5A 1_555 1_555
C7B C13B 1_555 1_555
C11B C12B 1_555 1_555
C19B C20B 1_555 1_555

#END
