
#######################################################################
#
#                 Cambridge Crystallographic Data Centre
#                                CCDC 
#
#######################################################################
#
# If this CIF has been generated from an entry in the Cambridge 
# Structural Database, then it will include bibliographic, chemical, 
# crystal, experimental, refinement or atomic coordinate data resulting 
# from the CCDC's data processing and validation procedures.
#
#######################################################################

data_PARYEN
_symmetry_cell_setting           triclinic
_symmetry_space_group_name_H-M   'P -1'
_symmetry_Int_Tables_number      2
_space_group_name_Hall           '-P 1'
loop_
_symmetry_equiv_pos_site_id
_symmetry_equiv_pos_as_xyz
1 x,y,z
2 -x,-y,-z
_cell_length_a                   9.89(2)
_cell_length_b                   10.02(2)
_cell_length_c                   15.19(3)
_cell_angle_alpha                105.59(2)
_cell_angle_beta                 93.567(10)
_cell_angle_gamma                118.26(2)
_cell_volume                     1244.85
loop_
_atom_site_label
_atom_site_type_symbol
_atom_site_fract_x
_atom_site_fract_y
_atom_site_fract_z
C17 C 0.1344(7) 0.0045(7) 0.1469(4)
C18 C 0.2790(7) 0.0156(7) 0.1570(4)
C19 C 0.4093(7) 0.1500(8) 0.1540(4)
C20 C 0.3947(7) 0.2734(8) 0.1416(5)
C21 C 0.2504(7) 0.2637(8) 0.1312(4)
C22 C 0.1199(6) 0.1291(7) 0.1341(4)
H9 H 0.048(5) -0.084(5) 0.152(3)
H10 H 0.276(5) -0.067(5) 0.168(3)
H11 H 0.503(5) 0.143(5) 0.159(3)
H12 H 0.475(5) 0.347(5) 0.133(3)
H13 H 0.240(5) 0.343(5) 0.120(3)
H14 H 0.024(5) 0.114(5) 0.123(3)
Ag1 Ag 0.11033(4) 0.03989(4) 0.41160(2)
Ag2 Ag 0.39868(4) 0.02399(4) 0.41034(3)
F1 F -0.1379(5) -0.5480(4) 0.2925(3)
F2 F 0.0657(4) -0.5418(4) 0.2444(2)
F3 F -0.2209(4) -0.4793(5) 0.1567(3)
F4 F 0.0100(5) -0.3850(4) 0.1239(2)
F5 F -0.2374(5) -0.6805(5) 0.0037(3)
F6 F -0.2263(5) -0.7799(4) 0.1116(3)
F7 F -0.0291(4) -0.6737(4) 0.0547(2)
F8 F 0.3305(3) -0.0916(3) 0.7155(2)
F9 F 0.1289(3) -0.0576(3) 0.7234(2)
F10 F 0.5271(3) 0.2232(4) 0.7585(2)
F11 F 0.3346(4) 0.2694(3) 0.7484(2)
F12 F 0.4288(5) 0.1086(4) 0.9013(2)
F13 F 0.4927(4) 0.3522(3) 0.9238(2)
F14 F 0.2506(4) 0.1736(5) 0.8944(2)
O1 O -0.0034(4) -0.2242(4) 0.3309(3)
O2 O 0.2196(4) -0.2337(4) 0.3291(2)
O3 O 0.1372(3) -0.0141(4) 0.5599(2)
O4 O 0.3697(3) -0.0025(4) 0.5637(2)
C1 C 0.3206(5) 0.2777(5) 0.3919(3)
C2 C 0.4660(5) 0.2797(5) 0.4007(3)
C3 C 0.5615(5) 0.3377(5) 0.4890(3)
C4 C 0.4946(5) 0.3607(5) 0.5664(3)
C5 C 0.3548(5) 0.3576(5) 0.5576(3)
C6 C 0.2722(5) 0.3321(5) 0.4706(3)
C7 C 0.1659(5) 0.4029(5) 0.4661(4)
C8 C 0.7370(6) 0.4060(6) 0.5023(4)
C9 C 0.0771(6) -0.2890(5) 0.3106(3)
C10 C -0.0239(6) -0.4705(5) 0.2517(4)
C11 C -0.0933(6) -0.4972(6) 0.1541(4)
C12 C -0.1493(7) -0.6622(6) 0.0792(5)
C13 C 0.2569(5) -0.0074(5) 0.5975(3)
C14 C 0.2713(5) 0.0008(5) 0.7008(3)
C15 C 0.3789(5) 0.1733(5) 0.7706(3)
C16 C 0.3862(6) 0.2000(6) 0.8744(3)
H1 H 0.278(5) 0.260(5) 0.340(3)
H2 H 0.512(5) 0.276(5) 0.349(3)
H3 H 0.552(5) 0.389(5) 0.627(3)
H4 H 0.320(5) 0.384(5) 0.613(3)
H5 H 0.094(5) 0.368(5) 0.500(3)
H6 H 0.122(5) 0.368(5) 0.401(3)
H7 H 0.756(5) 0.364(5) 0.445(3)
H8 H 0.771(5) 0.376(5) 0.547(3)
Ag1A Ag -0.11033(4) -0.03989(4) 0.58840(2)
Ag1A_2 Ag 0.88967(4) 0.96011(4) 0.58840(2)
Ag2A Ag -0.39868(4) -0.02399(4) 0.58966(3)
Ag2A_2 Ag 0.60132(4) -0.02399(4) 0.58966(3)
Ag2A_3 Ag 0.60132(4) 0.97601(4) 0.58966(3)
Ag2_2 Ag -0.60132(4) 0.02399(4) 0.41034(3)
F1A F 0.1379(5) 0.5480(4) 0.7075(3)
F2A F -0.0657(4) 0.5418(4) 0.7556(2)
F3A F 0.2209(4) 0.4793(5) 0.8433(3)
F4A F -0.0100(5) 0.3850(4) 0.8761(2)
F5A F 0.2374(5) 0.6805(5) 0.9963(3)
F6A F 0.2263(5) 0.7799(4) 0.8884(3)
F7A F 0.0291(4) 0.6737(4) 0.9453(2)
F8A F -0.3305(3) 0.0916(3) 0.2845(2)
F9A F -0.1289(3) 0.0576(3) 0.2766(2)
F10A F -0.5271(3) -0.2232(4) 0.2415(2)
F11A F -0.3346(4) -0.2694(3) 0.2516(2)
F12A F -0.4288(5) -0.1086(4) 0.0987(2)
F13A F -0.4927(4) -0.3522(3) 0.0762(2)
F14A F -0.2506(4) -0.1736(5) 0.1056(2)
O1A O 0.0034(4) 0.2242(4) 0.6691(3)
O2A O -0.2196(4) 0.2337(4) 0.6709(2)
O3A O -0.1372(3) 0.0141(4) 0.4401(2)
O4A O -0.3697(3) 0.0025(4) 0.4363(2)
O4A_2 O 0.6303(3) 0.0025(4) 0.4363(2)
O4_2 O -0.6303(3) -0.0025(4) 0.5637(2)
C1A C 0.6794(5) 0.7223(5) 0.6081(3)
C1A_2 C -0.3206(5) -0.2777(5) 0.6081(3)
C2A C 0.5340(5) 0.7203(5) 0.5993(3)
C2A_2 C -0.4660(5) -0.2797(5) 0.5993(3)
C3A C 0.4385(5) 0.6623(5) 0.5110(3)
C3A_2 C -0.5615(5) -0.3377(5) 0.5110(3)
C4A C 0.5054(5) 0.6393(5) 0.4336(3)
C5A C 0.6452(5) 0.6424(5) 0.4424(3)
C6A C 0.7278(5) 0.6679(5) 0.5294(3)
C6A_2 C -0.2722(5) -0.3321(5) 0.5294(3)
C7A C 0.8341(5) 0.5971(5) 0.5339(4)
C8A C 0.2630(6) 0.5940(6) 0.4977(4)
C9A C -0.0771(6) 0.2890(5) 0.6894(3)
C10A C 0.0239(6) 0.4705(5) 0.7483(4)
C11A C 0.0933(6) 0.4972(6) 0.8459(4)
C12A C 0.1493(7) 0.6622(6) 0.9208(5)
C13A C -0.2569(5) 0.0074(5) 0.4025(3)
C14A C -0.2713(5) -0.0008(5) 0.2992(3)
C15A C -0.3789(5) -0.1733(5) 0.2294(3)
C16A C -0.3862(6) -0.2000(6) 0.1256(3)
H1A H 0.722(5) 0.740(5) 0.660(3)
H1A_2 H -0.278(5) -0.260(5) 0.660(3)
H2A H 0.488(5) 0.724(5) 0.651(3)
H2A_2 H -0.512(5) -0.276(5) 0.651(3)
H3A H 0.448(5) 0.611(5) 0.373(3)
H4A H 0.680(5) 0.616(5) 0.387(3)
H5A H 0.906(5) 0.632(5) 0.500(3)
H6A H 0.878(5) 0.632(5) 0.599(3)
H7A H 0.244(5) 0.636(5) 0.555(3)
H8A H 0.229(5) 0.624(5) 0.453(3)
loop_
_geom_bond_atom_site_label_1
_geom_bond_atom_site_label_2
_geom_bond_site_symmetry_1
_geom_bond_site_symmetry_2
Ag1 O1 1_555 1_555
Ag2 O2 1_555 1_555
F1 C10 1_555 1_555
F2 C10 1_555 1_555
F3 C11 1_555 1_555
F4 C11 1_555 1_555
F5 C12 1_555 1_555
F6 C12 1_555 1_555
F7 C12 1_555 1_555
F8 C14 1_555 1_555
F9 C14 1_555 1_555
F10 C15 1_555 1_555
F11 C15 1_555 1_555
F12 C16 1_555 1_555
F13 C16 1_555 1_555
F14 C16 1_555 1_555
O1 C9 1_555 1_555
O2 C9 1_555 1_555
O3 Ag1 1_555 1_555
O4 Ag2 1_555 1_555
C1 Ag1 1_555 1_555
C2 Ag2 1_555 1_555
C3 Ag2 1_555 1_555
C4 C3 1_555 1_555
C5 C4 1_555 1_555
C6 Ag1 1_555 1_555
C7 C6 1_555 1_555
C8 C3 1_555 1_555
C9 C10 1_555 1_555
C10 C11 1_555 1_555
C11 C12 1_555 1_555
C13 O3 1_555 1_555
C14 C13 1_555 1_555
C15 C14 1_555 1_555
C16 C15 1_555 1_555
C17 C18 1_555 1_555
C18 C19 1_555 1_555
C19 C20 1_555 1_555
C20 C21 1_555 1_555
C21 C22 1_555 1_555
C22 C17 1_555 1_555
H1 C1 1_555 1_555
H2 C2 1_555 1_555
H3 C4 1_555 1_555
H4 C5 1_555 1_555
H5 C7 1_555 1_555
H6 C7 1_555 1_555
H7 C8 1_555 1_555
H8 C8 1_555 1_555
H9 C17 1_555 1_555
H10 C18 1_555 1_555
H11 C19 1_555 1_555
H12 C20 1_555 1_555
H13 C21 1_555 1_555
H14 C22 1_555 1_555
Ag1A O3 1_555 1_555
Ag1A_2 C1A 1_555 1_555
Ag2A O2A 1_555 1_555
Ag2A_2 O4 1_555 1_555
Ag2A_3 C2A 1_555 1_555
Ag2_2 O4A 1_555 1_555
F1A C10A 1_555 1_555
F2A C10A 1_555 1_555
F3A C11A 1_555 1_555
F4A C11A 1_555 1_555
F5A C12A 1_555 1_555
F6A C12A 1_555 1_555
F7A C12A 1_555 1_555
F8A C14A 1_555 1_555
F9A C14A 1_555 1_555
F10A C15A 1_555 1_555
F11A C15A 1_555 1_555
F12A C16A 1_555 1_555
F13A C16A 1_555 1_555
F14A C16A 1_555 1_555
O1A Ag1A 1_555 1_555
O2A C9A 1_555 1_555
O3A Ag1 1_555 1_555
O4A Ag2A 1_555 1_555
O4A_2 Ag2 1_555 1_555
O4_2 Ag2A 1_555 1_555
C1A C2A 1_555 1_555
C1A_2 Ag1A 1_555 1_555
C2A C3A 1_555 1_555
C2A_2 Ag2A 1_555 1_555
C3A Ag2A_3 1_555 1_555
C3A_2 Ag2A 1_555 1_555
C4A C3A 1_555 1_555
C5A C4A 1_555 1_555
C6A Ag1A_2 1_555 1_555
C6A_2 Ag1A 1_555 1_555
C7A C8 1_555 1_555
C8A C7 1_555 1_555
C9A O1A 1_555 1_555
C10A C9A 1_555 1_555
C11A C10A 1_555 1_555
C12A C11A 1_555 1_555
C13A O3A 1_555 1_555
C14A C13A 1_555 1_555
C15A C14A 1_555 1_555
C16A C15A 1_555 1_555
H1A C1A 1_555 1_555
H1A_2 C1A_2 1_555 1_555
H2A C2A 1_555 1_555
H2A_2 C2A_2 1_555 1_555
H3A C4A 1_555 1_555
H4A C5A 1_555 1_555
H5A C7A 1_555 1_555
H6A C7A 1_555 1_555
H7A C8A 1_555 1_555
H8A C8A 1_555 1_555
O4 C13 1_555 1_555
C1 C2 1_555 1_555
C1 C6 1_555 1_555
C2 C3 1_555 1_555
C5 C6 1_555 1_555
Ag1A O3A 1_555 1_555
Ag2A_2 O4A_2 1_555 1_555
Ag2_2 O4_2 1_555 1_555
O4A C13A 1_555 1_555
C1A C6A 1_555 1_555
C1A_2 C2A_2 1_555 1_555
C1A_2 C6A_2 1_555 1_555
C2A_2 C3A_2 1_555 1_555
C3A C8A 1_555 1_555
C5A C6A 1_555 1_555
C6A C7A 1_555 1_555

#END
