
#######################################################################
#
#                 Cambridge Crystallographic Data Centre
#                                CCDC 
#
#######################################################################
#
# If this CIF has been generated from an entry in the Cambridge 
# Structural Database, then it will include bibliographic, chemical, 
# crystal, experimental, refinement or atomic coordinate data resulting 
# from the CCDC's data processing and validation procedures.
#
#######################################################################

data_PARYAJ
_symmetry_cell_setting           triclinic
_symmetry_space_group_name_H-M   'P -1'
_symmetry_Int_Tables_number      2
_space_group_name_Hall           '-P 1'
loop_
_symmetry_equiv_pos_site_id
_symmetry_equiv_pos_as_xyz
1 x,y,z
2 -x,-y,-z
_cell_length_a                   10.8793(2)
_cell_length_b                   11.7609(6)
_cell_length_c                   12.4095
_cell_angle_alpha                69.23(1)
_cell_angle_beta                 80.88(2)
_cell_angle_gamma                58.91(1)
_cell_volume                     1270.76
loop_
_atom_site_label
_atom_site_type_symbol
_atom_site_fract_x
_atom_site_fract_y
_atom_site_fract_z
Ag1 Ag 0.68168(2) 0.42801(2) 0.43219(2)
Ag2 Ag 0.95035(2) 0.36113(2) 0.54413(2)
F1 F 0.9045(2) 0.7801(2) 0.2230(2)
F2 F 0.7143(2) 0.8116(2) 0.1522(2)
F3 F 1.0697(2) 0.5562(2) 0.1378(2)
F4 F 0.8761(3) 0.6079(2) 0.0572(2)
F5 F 1.0318(3) 0.7055(3) -0.0880(2)
F6 F 0.8315(3) 0.8707(2) -0.0595(2)
F7 F 1.0218(4) 0.8210(4) 0.0161(2)
F8 F 0.6398(2) 0.4567(2) 0.8674(2)
F9 F 0.4446(2) 0.4981(2) 0.7969(2)
F10 F 0.7628(2) 0.1778(2) 0.8903(2)
F11 F 0.5687(3) 0.2215(2) 0.8184(2)
F12 F 0.5922(4) 0.1105(3) 1.0477(2)
F13 F 0.6119(4) 0.2727(3) 1.0654(2)
F14 F 0.4196(3) 0.3232(3) 0.9952(3)
O1 O 0.7604(2) 0.5620(2) 0.2932(2)
O2 O 0.9339(2) 0.5483(2) 0.3830(2)
O3 O 0.7833(2) 0.3903(2) 0.6852(2)
O4 O 0.5769(2) 0.4538(2) 0.6061(2)
C1 C 0.9394(4) 0.2063(3) 0.3936(3)
C2 C 1.0462(3) 0.1607(3) 0.4734(3)
C3 C 1.0396(3) 0.0881(3) 0.5893(3)
C4 C 0.9099(3) 0.0906(3) 0.6256(3)
C5 C 0.8062(3) 0.1339(3) 0.5467(3)
C6 C 0.8262(3) 0.1791(3) 0.4274(3)
C7 C 0.7501(4) 0.1671(3) 0.3433(4)
C8 C 1.1752(4) -0.0131(3) 0.6642(3)
C9 C 0.8475(3) 0.5958(3) 0.3017(2)
C10 C 0.6570(3) 0.4208(3) 0.6868(2)
C11 C 0.8494(3) 0.7143(3) 0.1942(2)
C12 C 0.9374(3) 0.6599(3) 0.0957(2)
C13 C 0.9569(4) 0.7667(4) -0.0101(3)
C14 C 0.5884(3) 0.4134(3) 0.8073(2)
C15 C 0.6210(3) 0.2637(3) 0.8781(2)
C16 C 0.5589(4) 0.2421(4) 0.9988(3)
H1 H 0.952(4) 0.242(3) 0.319(3)
H2 H 1.127(4) 0.161(3) 0.445(3)
H3 H 0.898(4) 0.053(3) 0.702(3)
H4 H 0.728(4) 0.119(3) 0.571(3)
H5 H 0.651(4) 0.203(3) 0.356(3)
H6 H 0.752(4) 0.230(4) 0.267(3)
H7 H 1.243(4) 0.024(3) 0.638(3)
H8 H 1.154(4) -0.022(3) 0.741(3)
Ag1A Ag 0.31832(2) 0.57199(2) 0.56781(2)
Ag1A_2 Ag 1.31832(2) -0.42801(2) 0.56781(2)
Ag1A_3 Ag 1.31832(2) 0.57199(2) 0.56781(2)
Ag2A Ag 1.04965(2) 0.63887(2) 0.45587(2)
Ag2A_2 Ag 1.04965(2) -0.36113(2) 0.45587(2)
Ag2A_3 Ag 0.04965(2) 0.63887(2) 0.45587(2)
F1A F 1.0955(2) 0.2199(2) 0.7770(2)
F2A F 1.2857(2) 0.1884(2) 0.8478(2)
F3A F 0.9303(2) 0.4438(2) 0.8622(2)
F4A F 1.1239(3) 0.3921(2) 0.9428(2)
F5A F 0.9682(3) 0.2945(3) 1.0880(2)
F6A F 1.1685(3) 0.1293(2) 1.0595(2)
F7A F 0.9782(4) 0.1790(4) 0.9839(2)
F8A F 0.3602(2) 0.5433(2) 0.1326(2)
F9A F 0.5554(2) 0.5019(2) 0.2031(2)
F10A F 0.2372(2) 0.8222(2) 0.1097(2)
F11A F 0.4313(3) 0.7785(2) 0.1816(2)
F12A F 0.4078(4) 0.8895(3) -0.0477(2)
F13A F 0.3881(4) 0.7273(3) -0.0654(2)
F14A F 0.5804(3) 0.6768(3) 0.0048(3)
O1A O 1.2396(2) 0.4380(2) 0.7068(2)
O1A_2 O 0.2396(2) 0.4380(2) 0.7068(2)
O2A O 1.0661(2) 0.4517(2) 0.6170(2)
O3A O 0.2167(2) 0.6097(2) 0.3148(2)
O3A_2 O 1.2167(2) 0.6097(2) 0.3148(2)
O4A O 0.4231(2) 0.5462(2) 0.3939(2)
C1A C 1.0606(4) -0.2063(3) 0.6064(3)
C2A C 0.9538(3) -0.1607(3) 0.5266(3)
C2A_2 C 0.9538(3) 0.8393(3) 0.5266(3)
C3A C 0.9604(3) -0.0881(3) 0.4107(3)
C3A_2 C 0.9604(3) 0.9119(3) 0.4107(3)
C4A C 1.0901(3) -0.0906(3) 0.3744(3)
C5A C 1.1938(3) -0.1339(3) 0.4533(3)
C6A C 1.1738(3) -0.1791(3) 0.5726(3)
C6A_2 C 0.1738(3) 0.8209(3) 0.5726(3)
C7A C 1.2499(4) -0.1671(3) 0.6567(4)
C8A C 0.8248(4) 0.0131(3) 0.3358(3)
C9A C 1.1525(3) 0.4042(3) 0.6983(2)
C10A C 0.3430(3) 0.5792(3) 0.3132(2)
C11A C 1.1506(3) 0.2857(3) 0.8058(2)
C12A C 1.0626(3) 0.3401(3) 0.9043(2)
C13A C 1.0431(4) 0.2333(4) 1.0101(3)
C14A C 0.4116(3) 0.5866(3) 0.1927(2)
C15A C 0.3790(3) 0.7363(3) 0.1219(2)
C16A C 0.4411(4) 0.7579(4) 0.0012(3)
H1A H 1.048(4) -0.242(3) 0.681(3)
H2A H 0.873(4) -0.161(3) 0.555(3)
H2A_2 H 0.873(4) 0.839(3) 0.555(3)
H3A H 1.102(4) -0.053(3) 0.298(3)
H4A H 1.272(4) -0.119(3) 0.429(3)
H5A H 1.349(4) -0.203(3) 0.644(3)
H6A H 1.248(4) -0.230(4) 0.733(3)
H7A H 0.757(4) -0.024(3) 0.362(3)
H8A H 0.846(4) 0.022(3) 0.259(3)
C17 C 0.3801(3) 0.0743(3) 0.2613(2)
C18 C 0.4616(3) -0.0144(3) 0.3645(2)
C19 C 0.4595(3) 0.0439(3) 0.4473(2)
C20 C 0.3756(3) 0.1924(3) 0.4239(2)
C21 C 0.2971(3) 0.2770(3) 0.3205(2)
C22 C 0.2988(3) 0.2188(3) 0.2404(2)
C23 C 0.3769(3) 0.2475(3) 0.5104(3)
C24 C 0.5464(3) -0.1643(3) 0.3902(2)
H9 H 0.383(4) 0.036(3) 0.206(3)
H10 H 0.239(4) 0.375(3) 0.306(3)
H11 H 0.238(4) 0.274(3) 0.172(3)
H12 H 0.319(4) 0.345(4) 0.493(3)
H13 H 0.551(4) -0.198(3) 0.336(3)
C17A C 0.6199(3) -0.0743(3) 0.7387(2)
C18A C 0.5384(3) 0.0144(3) 0.6355(2)
C19A C 0.5405(3) -0.0439(3) 0.5527(2)
C20A C 0.6244(3) -0.1924(3) 0.5761(2)
C21A C 0.7029(3) -0.2770(3) 0.6795(2)
C22A C 0.7012(3) -0.2188(3) 0.7596(2)
C23A C 0.6231(3) -0.2475(3) 0.4896(3)
C24A C 0.4536(3) 0.1643(3) 0.6098(2)
H9A H 0.617(4) -0.036(3) 0.794(3)
H10A H 0.761(4) -0.375(3) 0.694(3)
H11A H 0.762(4) -0.274(3) 0.828(3)
H12A H 0.681(4) -0.345(4) 0.507(3)
H13A H 0.449(4) 0.198(3) 0.664(3)
loop_
_geom_bond_atom_site_label_1
_geom_bond_atom_site_label_2
_geom_bond_site_symmetry_1
_geom_bond_site_symmetry_2
Ag1 O1 1_555 1_555
Ag2 O2 1_555 1_555
F1 C11 1_555 1_555
F2 C11 1_555 1_555
F3 C12 1_555 1_555
F4 C12 1_555 1_555
F5 C13 1_555 1_555
F6 C13 1_555 1_555
F7 C13 1_555 1_555
F8 C14 1_555 1_555
F9 C14 1_555 1_555
F10 C15 1_555 1_555
F11 C15 1_555 1_555
F12 C16 1_555 1_555
F13 C16 1_555 1_555
F14 C16 1_555 1_555
O1 C9 1_555 1_555
O2 C9 1_555 1_555
O3 Ag2 1_555 1_555
O4 Ag1 1_555 1_555
C1 C2 1_555 1_555
C2 Ag2 1_555 1_555
C3 Ag2 1_555 1_555
C4 C3 1_555 1_555
C5 C4 1_555 1_555
C6 Ag1 1_555 1_555
C7 C6 1_555 1_555
C8 C3 1_555 1_555
C9 C11 1_555 1_555
C10 O3 1_555 1_555
C11 C12 1_555 1_555
C12 C13 1_555 1_555
C14 C10 1_555 1_555
C15 C14 1_555 1_555
C16 C15 1_555 1_555
C17 C18 1_555 1_555
C18 C19 1_555 1_555
C19 C20 1_555 1_555
C20 C21 1_555 1_555
C21 C22 1_555 1_555
C22 C17 1_555 1_555
C23 C20 1_555 1_555
C24 C18 1_555 1_555
H1 C1 1_555 1_555
H2 C2 1_555 1_555
H3 C4 1_555 1_555
H4 C5 1_555 1_555
H5 C7 1_555 1_555
H6 C7 1_555 1_555
H7 C8 1_555 1_555
H8 C8 1_555 1_555
H9 C17 1_555 1_555
H10 C21 1_555 1_555
H11 C22 1_555 1_555
H12 C23 1_555 1_555
H13 C24 1_555 1_555
Ag1A O4 1_555 1_555
Ag1A_2 C6A 1_555 1_555
Ag1A_3 O1A 1_555 1_555
Ag2A O2 1_555 1_555
Ag2A_2 C2A 1_555 1_555
Ag2A_3 O3A 1_555 1_555
F1A C11A 1_555 1_555
F2A C11A 1_555 1_555
F3A C12A 1_555 1_555
F4A C12A 1_555 1_555
F5A C13A 1_555 1_555
F6A C13A 1_555 1_555
F7A C13A 1_555 1_555
F8A C14A 1_555 1_555
F9A C14A 1_555 1_555
F10A C15A 1_555 1_555
F11A C15A 1_555 1_555
F12A C16A 1_555 1_555
F13A C16A 1_555 1_555
F14A C16A 1_555 1_555
O1A C9A 1_555 1_555
O1A_2 Ag1A 1_555 1_555
O2A Ag2 1_555 1_555
O3A C10A 1_555 1_555
O3A_2 Ag2A 1_555 1_555
O4A Ag1 1_555 1_555
C1A C2A 1_555 1_555
C2A C3A 1_555 1_555
C2A_2 Ag2A 1_555 1_555
C3A Ag2A_2 1_555 1_555
C3A_2 Ag2A 1_555 1_555
C4A C3A 1_555 1_555
C5A C4A 1_555 1_555
C6A C1A 1_555 1_555
C6A_2 Ag1A 1_555 1_555
C7A C8 1_555 1_555
C8A C7 1_555 1_555
C9A O2A 1_555 1_555
C10A O4A 1_555 1_555
C11A C9A 1_555 1_555
C12A C11A 1_555 1_555
C13A C12A 1_555 1_555
C14A C10A 1_555 1_555
C15A C14A 1_555 1_555
C16A C15A 1_555 1_555
C17A C18A 1_555 1_555
C18A C19A 1_555 1_555
C19A C19 1_555 1_555
C20A C19A 1_555 1_555
C21A C20A 1_555 1_555
C22A C17A 1_555 1_555
C23A C24 1_555 1_555
C24A C23 1_555 1_555
H1A C1A 1_555 1_555
H2A C2A 1_555 1_555
H2A_2 C2A_2 1_555 1_555
H3A C4A 1_555 1_555
H4A C5A 1_555 1_555
H5A C7A 1_555 1_555
H6A C7A 1_555 1_555
H7A C8A 1_555 1_555
H8A C8A 1_555 1_555
H9A C17A 1_555 1_555
H10A C21A 1_555 1_555
H11A C22A 1_555 1_555
H12A C23A 1_555 1_555
H13A C24A 1_555 1_555
O4 C10 1_555 1_555
C1 C6 1_555 1_555
C2 C3 1_555 1_555
C5 C6 1_555 1_555
Ag1A O4A 1_555 1_555
Ag2A O2A 1_555 1_555
C2A_2 C3A_2 1_555 1_555
C3A C8A 1_555 1_555
C5A C6A 1_555 1_555
C6A C7A 1_555 1_555
C18A C24A 1_555 1_555
C20A C23A 1_555 1_555
C21A C22A 1_555 1_555

#END
