
#######################################################################
#
#                 Cambridge Crystallographic Data Centre
#                                CCDC 
#
#######################################################################
#
# If this CIF has been generated from an entry in the Cambridge 
# Structural Database, then it will include bibliographic, chemical, 
# crystal, experimental, refinement or atomic coordinate data resulting 
# from the CCDC's data processing and validation procedures.
#
#######################################################################

data_PARZAL
_symmetry_cell_setting           orthorhombic
_symmetry_space_group_name_H-M   'P c a 21'
_symmetry_Int_Tables_number      29
_space_group_name_Hall           'P 2c -2ac'
loop_
_symmetry_equiv_pos_site_id
_symmetry_equiv_pos_as_xyz
1 x,y,z
2 -x,-y,1/2+z
3 1/2+x,-y,z
4 1/2-x,y,1/2+z
_cell_length_a                   25.361(5)
_cell_length_b                   7.8374(16)
_cell_length_c                   12.844(3)
_cell_angle_alpha                90
_cell_angle_beta                 90
_cell_angle_gamma                90
_cell_volume                     2552.93
loop_
_atom_site_label
_atom_site_type_symbol
_atom_site_fract_x
_atom_site_fract_y
_atom_site_fract_z
O1 O 0.3533(3) 0.5691(14) 0.7887(7)
C1 C 0.1898(4) 1.0707(14) 0.5586(8)
C2 C 0.1018(4) 1.2026(15) 0.5734(9)
H1 H 0.0964 1.1852 0.5026
C3 C 0.1504(3) 1.1503(13) 0.6191(9)
C4 C 0.1576(4) 1.1911(15) 0.7253(8)
H2 H 0.1896 1.1643 0.7567
C5 C 0.2732(3) 0.5077(15) 0.0363(8)
C6 C 0.3098(3) 0.5961(14) 0.1060(9)
C7 C 0.3632(4) 0.6191(15) 0.0764(8)
H3 H 0.3751 0.5769 0.0129
C8 C 0.2947(4) 0.6481(18) 0.2023(9)
H4 H 0.2602 0.6291 0.2242
C9 C 0.3305(4) 0.7306(15) 0.2694(8)
H5 H 0.3193 0.7680 0.3344
C10 C 0.3820(4) 0.7563(14) 0.2398(8)
C11 C 0.3972(4) 0.7030(16) 0.1410(9)
H6 H 0.4313 0.7252 0.1183
C12 C 0.0624(4) 1.2786(15) 0.6319(8)
H7 H 0.0304 1.3058 0.6008
C13 C 0.0703(3) 1.3149(13) 0.7371(8)
C14 C 0.1191(4) 1.2689(15) 0.7842(8)
H8 H 0.1249 1.2912 0.8544
C15 C 0.4199(4) 0.8378(15) 0.3103(8)
C16 C 0.0303(4) 1.4017(15) 0.7981(8)
N1 N 0.1821(3) 1.0057(13) 0.4633(7)
N2 N 0.2280(3) 0.9309(13) 0.4353(7)
N3 N 0.2639(3) 0.9591(15) 0.5103(7)
N4 N 0.2406(3) 1.0453(13) 0.5874(7)
N5 N -0.0161(3) 1.4569(13) 0.7586(7)
N6 N -0.0407(3) 1.5232(13) 0.8433(8)
N7 N -0.0127(4) 1.5086(16) 0.9237(8)
N8 N 0.0328(4) 1.4332(16) 0.9013(8)
N9 N 0.4693(3) 0.8932(13) 0.2787(7)
N10 N 0.4902(3) 0.9675(13) 0.3647(7)
N11 N 0.4565(3) 0.9560(14) 0.4399(7)
N12 N 0.4127(3) 0.8759(14) 0.4104(7)
N13 N 0.2845(3) 0.4615(15) -0.0607(7)
N14 N 0.2421(4) 0.3783(13) -0.0972(8)
N15 N 0.2066(3) 0.3728(14) -0.0249(8)
N16 N 0.2248(3) 0.4563(17) 0.0600(7)
O3 O 0.3256(3) 0.9198(9) 0.7413(5)
O4 O 0.4026(2) 1.1706(10) 0.7759(6)
O5 O 0.4306(2) 0.8712(9) 0.6712(6)
O6 O 0.3637(2) 1.1096(9) 0.5765(5)
Pb1 Pb 0.350566(13) 0.79167(6) 0.57610(3)
Pb2 Pb 0.310604(15) 1.21572(6) 0.71046(3)
Pb3 Pb 0.453418(14) 1.14531(6) 0.61743(3)
Pb4 Pb 0.400383(14) 0.89968(5) 0.84895(3)
N1C N 0.3179(3) 1.0057(13) 0.9633(7)
Pb4C Pb 0.099617(14) 0.89968(5) 0.34895(3)
O2 O 0.4139(3) 0.4922(12) 0.5896(7)
loop_
_geom_bond_atom_site_label_1
_geom_bond_atom_site_label_2
_geom_bond_site_symmetry_1
_geom_bond_site_symmetry_2
C1 C3 1_555 1_555
C2 H1 1_555 1_555
C3 C2 1_555 1_555
C4 C3 1_555 1_555
H2 C4 1_555 1_555
C5 C6 1_555 1_555
C6 C7 1_555 1_555
C7 H3 1_555 1_555
C8 C6 1_555 1_555
H4 C8 1_555 1_555
C9 C8 1_555 1_555
H5 C9 1_555 1_555
C10 C9 1_555 1_555
C11 C7 1_555 1_555
H6 C11 1_555 1_555
C12 C2 1_555 1_555
H7 C12 1_555 1_555
C13 C12 1_555 1_555
C14 C4 1_555 1_555
H8 C14 1_555 1_555
C15 C10 1_555 1_555
C16 C13 1_555 1_555
N1 C1 1_555 1_555
N2 N1 1_555 1_555
N3 N2 1_555 1_555
N4 C1 1_555 1_555
N5 C16 1_555 1_555
N6 N5 1_555 1_555
N7 N6 1_555 1_555
N8 C16 1_555 1_555
N9 C15 1_555 1_555
N10 N9 1_555 1_555
N11 N10 1_555 1_555
N12 C15 1_555 1_555
N13 C5 1_555 1_555
N14 N13 1_555 1_555
N15 N14 1_555 1_555
N16 C5 1_555 1_555
O3 Pb1 1_555 1_555
O4 Pb2 1_555 1_555
O5 Pb1 1_555 1_555
O6 Pb1 1_555 1_555
Pb1 N3 1_555 1_555
Pb2 N4 1_555 1_555
Pb3 N11 1_555 1_555
Pb4 O3 1_555 1_555
N1C Pb4 1_555 1_555
Pb4C N1 1_555 1_555
C10 C11 1_555 1_555
C13 C14 1_555 1_555
N3 N4 1_555 1_555
N7 N8 1_555 1_555
N11 N12 1_555 1_555
N12 Pb1 1_555 1_555
N15 N16 1_555 1_555
O3 Pb2 1_555 1_555
O4 Pb3 1_555 1_555
O4 Pb4 1_555 1_555
O5 Pb3 1_555 1_555
O5 Pb4 1_555 1_555
O6 Pb2 1_555 1_555
O6 Pb3 1_555 1_555

#END
