
#######################################################################
#
#                 Cambridge Crystallographic Data Centre
#                                CCDC 
#
#######################################################################
#
# If this CIF has been generated from an entry in the Cambridge 
# Structural Database, then it will include bibliographic, chemical, 
# crystal, experimental, refinement or atomic coordinate data resulting 
# from the CCDC's data processing and validation procedures.
#
#######################################################################

data_PARZEP
_symmetry_cell_setting           tetragonal
_symmetry_space_group_name_H-M   'P 42/m b c'
_symmetry_Int_Tables_number      135
_space_group_name_Hall           '-P 4c 2ab'
loop_
_symmetry_equiv_pos_site_id
_symmetry_equiv_pos_as_xyz
1 x,y,z
2 -y,x,1/2+z
3 -x,-y,z
4 y,-x,1/2+z
5 1/2+x,1/2-y,-z
6 1/2+y,1/2+x,1/2-z
7 1/2-x,1/2+y,-z
8 1/2-y,1/2-x,1/2-z
9 -x,-y,-z
10 y,-x,1/2-z
11 x,y,-z
12 -y,x,1/2-z
13 1/2-x,1/2+y,z
14 1/2-y,1/2-x,1/2+z
15 1/2+x,1/2-y,z
16 1/2+y,1/2+x,1/2+z
_cell_length_a                   13.4523(10)
_cell_length_b                   13.4523(10)
_cell_length_c                   14.5250(14)
_cell_angle_alpha                90
_cell_angle_beta                 90
_cell_angle_gamma                90
_cell_volume                     2628.51
loop_
_atom_site_label
_atom_site_type_symbol
_atom_site_fract_x
_atom_site_fract_y
_atom_site_fract_z
Pb1 Pb 0.14516(3) -0.01121(3) 0.65958(5)
O1 O 0.1021(7) -0.0164(6) 0.8198(8)
N1 N 0.2512(9) 0.1337(9) 0.7363(12)
N2 N 0.2087(9) 0.2247(9) 0.7421(13)
C1 C 0.3488(11) 0.1512(11) 0.7500
C2 C 0.4256(11) 0.0744(11) 0.7500
C3 C 0.4026(11) -0.0252(10) 0.7511(17)
H3 H 0.3362 -0.0443 0.7535
Pb1I Pb -0.01121(3) -0.14516(3) 0.84042(5)
Pb1K Pb 0.01121(3) 0.14516(3) 0.84042(5)
Pb1B Pb -0.14516(3) 0.01121(3) 0.65958(5)
Pb1G Pb 0.51121(3) 0.35484(3) 0.84042(5)
Pb1E Pb 0.48879(3) -0.35484(3) 0.84042(5)
Pb1B_2 Pb 0.85484(3) 0.01121(3) 0.65958(5)
O1I O -0.0164(6) -0.1021(7) 0.6802(8)
O1K O 0.0164(6) 0.1021(7) 0.6802(8)
O1B O -0.1021(7) 0.0164(6) 0.8198(8)
N1G N 0.3663(9) 0.2488(9) 0.7637(12)
N1E N 0.6337(9) -0.2488(9) 0.7637(12)
N1B N 0.7488(9) -0.1337(9) 0.7363(12)
N1I N 0.1337(9) -0.2512(9) 0.7637(12)
N1K N -0.1337(9) 0.2512(9) 0.7637(12)
N1B_2 N -0.2512(9) -0.1337(9) 0.7363(12)
N2G N 0.2753(9) 0.2913(9) 0.7579(13)
N2E N 0.7247(9) -0.2913(9) 0.7579(13)
N2B N 0.7913(9) -0.2247(9) 0.7421(13)
C1B C 0.6512(11) -0.1512(11) 0.7500
C2B C 0.5744(11) -0.0744(11) 0.7500
C3E C 0.4748(10) -0.0974(11) 0.7489(17)
C3B C 0.5974(11) 0.0252(10) 0.7511(17)
C3G C 0.5252(10) 0.0974(11) 0.7489(17)
H3B H 0.6638 0.0443 0.7535
H3G H 0.5443 0.1638 0.7465
H3E H 0.4557 -0.1638 0.7465
O2 O 0.1473(10) 0.1082(10) 0.5000
H1 H 0.0896 0.1515 0.5000
H2 H 0.2064 0.1495 0.5000
N3 N 0.1834(12) -0.2866(11) 0.5000
N4 N 0.1909(12) -0.1880(11) 0.5000
N5 N 0.1034(12) -0.1465(12) 0.5000
N6 N 0.0325(12) -0.2203(13) 0.5000
C4 C 0.0857(15) -0.3055(13) 0.5000
C5 C 0.0422(14) -0.4046(14) 0.5000
C6 C 0.1006(17) -0.4881(15) 0.5000
H4 H 0.1694 -0.4809 0.5000
C7 C -0.0607(14) -0.4177(13) 0.5000
H5 H -0.1024 -0.3625 0.5000
N3B N -0.1834(12) -0.7134(11) 0.5000
N4B N -0.1909(12) -0.8120(11) 0.5000
N5B N -0.1034(12) -0.8535(12) 0.5000
N6B N -0.0325(12) -0.7797(13) 0.5000
C4B C -0.0857(15) -0.6945(13) 0.5000
C5B C -0.0422(14) -0.5954(14) 0.5000
C6B C -0.1006(17) -0.5119(15) 0.5000
H4B H -0.1694 -0.5191 0.5000
C7B C 0.0607(14) -0.5823(13) 0.5000
H5B H 0.1024 -0.6375 0.5000
loop_
_geom_bond_atom_site_label_1
_geom_bond_atom_site_label_2
_geom_bond_site_symmetry_1
_geom_bond_site_symmetry_2
Pb1 O1 1_555 1_555
O1 Pb1I 1_555 1_555
O2 H1 1_555 1_555
H2 O2 1_555 1_555
N1 Pb1 1_555 1_555
N2 N1 1_555 1_555
N3 N4 1_555 1_555
N4 N5 1_555 1_555
N5 N6 1_555 1_555
N6 C4 1_555 1_555
C1 N1 1_555 1_555
C2 C1 1_555 1_555
C3 C2 1_555 1_555
H3 C3 1_555 1_555
C4 N3 1_555 1_555
C5 C4 1_555 1_555
C6 C5 1_555 1_555
H4 C6 1_555 1_555
C7 C5 1_555 1_555
H5 C7 1_555 1_555
Pb1I O1I 1_555 1_555
Pb1K O1 1_555 1_555
Pb1B O1I 1_555 1_555
Pb1G N1G 1_555 1_555
Pb1E N1E 1_555 1_555
Pb1B_2 N1B 1_555 1_555
O1I Pb1 1_555 1_555
O1K Pb1 1_555 1_555
O1B Pb1I 1_555 1_555
N1G C1 1_555 1_555
N1E N2E 1_555 1_555
N1B N2B 1_555 1_555
N1I Pb1I 1_555 1_555
N1K Pb1K 1_555 1_555
N1B_2 Pb1B 1_555 1_555
N2G N2 1_555 1_555
N2E N2B 1_555 1_555
N3B N4B 1_555 1_555
N4B N5B 1_555 1_555
N5B N6B 1_555 1_555
N6B C4B 1_555 1_555
C1B N1E 1_555 1_555
C2B C1B 1_555 1_555
C3E C3 1_555 1_555
C3B C2B 1_555 1_555
C3G C2 1_555 1_555
H3B C3B 1_555 1_555
H3G C3G 1_555 1_555
H3E C3E 1_555 1_555
C4B N3B 1_555 1_555
C5B C4B 1_555 1_555
C6B C7 1_555 1_555
H4B C6B 1_555 1_555
C7B C6 1_555 1_555
H5B C7B 1_555 1_555
Pb1K O1K 1_555 1_555
Pb1K O1B 1_555 1_555
Pb1B O1K 1_555 1_555
Pb1B O1B 1_555 1_555
N1G N2G 1_555 1_555
N1B C1B 1_555 1_555
C2B C3E 1_555 1_555
C3B C3G 1_555 1_555
C5B C6B 1_555 1_555
C5B C7B 1_555 1_555

#END
