
#######################################################################
#
#                 Cambridge Crystallographic Data Centre
#                                CCDC 
#
#######################################################################
#
# If this CIF has been generated from an entry in the Cambridge 
# Structural Database, then it will include bibliographic, chemical, 
# crystal, experimental, refinement or atomic coordinate data resulting 
# from the CCDC's data processing and validation procedures.
#
#######################################################################

data_PASBOB
_symmetry_cell_setting           monoclinic
_symmetry_space_group_name_H-M   'P 21/c'
_symmetry_Int_Tables_number      14
_space_group_name_Hall           '-P 2ybc'
loop_
_symmetry_equiv_pos_site_id
_symmetry_equiv_pos_as_xyz
1 x,y,z
2 -x,1/2+y,1/2-z
3 -x,-y,-z
4 x,1/2-y,1/2+z
_cell_length_a                   7.9520(3)
_cell_length_b                   23.0200(7)
_cell_length_c                   15.1000(6)
_cell_angle_alpha                90
_cell_angle_beta                 92.9520(18)
_cell_angle_gamma                90
_cell_volume                     2760.46
loop_
_atom_site_label
_atom_site_type_symbol
_atom_site_fract_x
_atom_site_fract_y
_atom_site_fract_z
Ag1 Ag 0.81466(5) 0.486131(15) 0.02697(2)
Ag2 Ag 0.32901(5) 0.540543(15) 0.52739(3)
N1 N 0.7691(5) 0.57879(16) 0.0484(3)
N2 N 0.7690(5) 0.67601(16) 0.0328(2)
N3 N 0.6960(5) 0.65956(15) 0.1090(2)
N4 N 0.5680(5) 0.67851(16) 0.2395(2)
N5 N 0.4344(5) 0.68908(16) 0.3710(2)
N6 N 0.3780(6) 0.72096(17) 0.4397(3)
N7 N 0.3502(5) 0.62488(16) 0.4644(2)
N8 N 1.2446(5) 0.45142(16) -0.4636(2)
N9 N 1.2021(5) 0.35680(16) -0.4914(3)
N10 N 1.1417(5) 0.37234(15) -0.4115(2)
N11 N 0.9981(5) 0.35426(15) -0.2858(2)
N12 N 0.8579(5) 0.34434(16) -0.1566(2)
N13 N 0.7849(6) 0.31280(17) -0.0922(3)
N14 N 0.7911(5) 0.40820(16) -0.0582(3)
C1 C 0.6985(6) 0.60133(19) 0.1170(3)
H1 H 0.6558 0.5800 0.1648
C2 C 0.8124(6) 0.62570(19) -0.0016(3)
H2 H 0.8681 0.6224 -0.0555
C3 C 0.6320(6) 0.70144(19) 0.1678(3)
C4 C 0.6365(6) 0.75986(19) 0.1487(3)
H3 H 0.6859 0.7740 0.0969
C5 C 0.5654(7) 0.7970(2) 0.2084(3)
H4 H 0.5641 0.8377 0.1975
C6 C 0.4962(6) 0.77538(19) 0.2839(3)
H5 H 0.4464 0.8001 0.3255
C7 C 0.5031(6) 0.7157(2) 0.2955(3)
C8 C 0.4155(7) 0.6322(2) 0.3869(3)
H6 H 0.4449 0.6018 0.3480
C9 C 0.3288(7) 0.6802(2) 0.4939(3)
H7 H 0.2822 0.6887 0.5491
C10 C 1.1688(6) 0.42888(19) -0.3953(3)
H8 H 1.1388 0.4493 -0.3438
C11 C 1.2618(6) 0.4062(2) -0.5193(3)
H9 H 1.3131 0.4098 -0.5745
C12 C 1.0648(6) 0.33108(19) -0.3564(3)
C13 C 1.0638(7) 0.2725(2) -0.3769(3)
H10 H 1.1129 0.2582 -0.4287
C14 C 0.9879(7) 0.2360(2) -0.3185(3)
H11 H 0.9828 0.1955 -0.3300
C15 C 0.9195(7) 0.2579(2) -0.2435(3)
H12 H 0.8687 0.2333 -0.2020
C16 C 0.9280(6) 0.31740(19) -0.2313(3)
C17 C 0.8604(6) 0.40132(19) -0.1356(3)
H13 H 0.9046 0.4315 -0.1704
C18 C 0.7486(7) 0.3532(2) -0.0347(3)
H14 H 0.6968 0.3447 0.0191
Ag2_2 Ag 1.32901(5) 0.540543(15) -0.47261(3)
N8_2 N 0.2446(5) 0.45142(16) 0.5364(2)
F1 F 1.0995(4) 0.37971(12) 0.29200(19)
F2 F 0.8362(4) 0.37342(14) 0.3151(2)
F3 F 0.9791(5) 0.44607(13) 0.3660(2)
O1 O 0.9034(5) 0.41188(15) 0.1426(2)
O2 O 0.8979(5) 0.49696(14) 0.2145(2)
C19 C 0.9155(6) 0.4438(2) 0.2091(3)
C20 C 0.9580(7) 0.4112(2) 0.2962(3)
F4 F 0.7289(4) 0.54090(17) 0.8297(2)
F5 F 0.5171(6) 0.59738(13) 0.8363(2)
F6 F 0.5066(4) 0.51195(12) 0.88804(18)
O3 O 0.4881(5) 0.55822(14) 0.6689(2)
O4 O 0.4771(5) 0.46761(14) 0.7255(2)
C21 C 0.4996(6) 0.5205(2) 0.7285(3)
C22 C 0.5604(7) 0.5431(2) 0.8204(3)
loop_
_geom_bond_atom_site_label_1
_geom_bond_atom_site_label_2
_geom_bond_site_symmetry_1
_geom_bond_site_symmetry_2
Ag1 N1 1_555 1_555
Ag2 N7 1_555 1_555
F1 C20 1_555 1_555
F2 C20 1_555 1_555
F3 C20 1_555 1_555
F4 C22 1_555 1_555
F5 C22 1_555 1_555
F6 C22 1_555 1_555
O1 C19 1_555 1_555
O2 C19 1_555 1_555
O3 C21 1_555 1_555
O4 C21 1_555 1_555
N1 C1 1_555 1_555
N2 N3 1_555 1_555
N3 C1 1_555 1_555
N4 C3 1_555 1_555
N5 N6 1_555 1_555
N6 C9 1_555 1_555
N7 C8 1_555 1_555
N8 C10 1_555 1_555
N9 N10 1_555 1_555
N10 C10 1_555 1_555
N11 C12 1_555 1_555
N12 N13 1_555 1_555
N13 C18 1_555 1_555
N14 Ag1 1_555 1_555
C1 H1 1_555 1_555
C2 N1 1_555 1_555
H2 C2 1_555 1_555
C3 N3 1_555 1_555
C4 C3 1_555 1_555
H3 C4 1_555 1_555
C5 C4 1_555 1_555
H4 C5 1_555 1_555
C6 C5 1_555 1_555
H5 C6 1_555 1_555
C7 N4 1_555 1_555
C8 N5 1_555 1_555
H6 C8 1_555 1_555
C9 N7 1_555 1_555
H7 C9 1_555 1_555
C10 H8 1_555 1_555
C11 N8 1_555 1_555
H9 C11 1_555 1_555
C12 N10 1_555 1_555
C13 C12 1_555 1_555
H10 C13 1_555 1_555
C14 C13 1_555 1_555
H11 C14 1_555 1_555
C15 C14 1_555 1_555
H12 C15 1_555 1_555
C16 N11 1_555 1_555
C17 N12 1_555 1_555
H13 C17 1_555 1_555
C18 N14 1_555 1_555
H14 C18 1_555 1_555
C19 C20 1_555 1_555
C21 C22 1_555 1_555
Ag2_2 N8 1_555 1_555
N8_2 Ag2 1_555 1_555
N2 C2 1_555 1_555
N5 C7 1_555 1_555
N9 C11 1_555 1_555
N12 C16 1_555 1_555
N14 C17 1_555 1_555
C6 C7 1_555 1_555
C15 C16 1_555 1_555

#END
