
#######################################################################
#
#                 Cambridge Crystallographic Data Centre
#                                CCDC 
#
#######################################################################
#
# If this CIF has been generated from an entry in the Cambridge 
# Structural Database, then it will include bibliographic, chemical, 
# crystal, experimental, refinement or atomic coordinate data resulting 
# from the CCDC's data processing and validation procedures.
#
#######################################################################

data_PASBAO
_symmetry_cell_setting           triclinic
_symmetry_space_group_name_H-M   'P -1'
_symmetry_Int_Tables_number      2
_space_group_name_Hall           '-P 1'
loop_
_symmetry_equiv_pos_site_id
_symmetry_equiv_pos_as_xyz
1 x,y,z
2 -x,-y,-z
_cell_length_a                   7.977
_cell_length_b                   8.818
_cell_length_c                   15.252
_cell_angle_alpha                88.62
_cell_angle_beta                 79.86
_cell_angle_gamma                76.96
_cell_volume                     1028.72
loop_
_atom_site_label
_atom_site_type_symbol
_atom_site_fract_x
_atom_site_fract_y
_atom_site_fract_z
Ag1 Ag 0.7253(2) 0.07378(17) 0.06486(10)
C1 C 0.5670(18) 0.308(2) -0.0639(10)
H1 H 0.4805 0.2480 -0.0522
C2 C 0.843(2) 0.344(2) -0.0524(12)
H2 H 0.9513 0.3051 -0.0329
C3 C 0.825(2) 0.478(2) -0.1045(13)
H3 H 0.9137 0.5351 -0.1160
C4 C 0.671(2) 0.524(2) -0.1385(12)
H4 H 0.6559 0.6128 -0.1750
C5 C 0.540(2) 0.442(2) -0.1206(11)
C6 C 0.369(2) 0.487(2) -0.1499(12)
C7 C 0.214(2) 0.654(3) -0.2474(12)
H5 H 0.1319 0.7254 -0.2018
H6 H 0.1591 0.5685 -0.2590
C8 C 0.252(2) 0.740(2) -0.3301(14)
H7 H 0.1405 0.7964 -0.3473
H8 H 0.3192 0.8170 -0.3200
C9 C 0.373(3) 0.717(3) -0.4797(15)
H9 H 0.4400 0.6439 -0.5275
H10 H 0.4370 0.7968 -0.4723
H11 H 0.2591 0.7660 -0.4951
C10 C 0.862(2) -0.1179(18) 0.2182(12)
H12 H 0.9686 -0.0930 0.1900
C11 C 0.566(3) -0.092(2) 0.2276(13)
H13 H 0.4627 -0.0497 0.2043
C12 C 0.558(3) -0.192(3) 0.3014(15)
H14 H 0.4497 -0.2103 0.3311
C13 C 0.712(2) -0.261(2) 0.3290(13)
H15 H 0.7111 -0.3362 0.3748
C14 C 0.865(2) -0.224(2) 0.2915(13)
C15 C 1.035(2) -0.288(2) 0.3209(13)
C16 C 1.203(3) -0.505(3) 0.3810(17)
H16 H 1.3023 -0.4716 0.3428
H17 H 1.1984 -0.4716 0.4431
C17 C 1.228(3) -0.678(3) 0.3753(16)
H18 H 1.1896 -0.7063 0.3210
H19 H 1.3538 -0.7276 0.3710
C18 C 1.172(3) -0.895(3) 0.457(2)
H20 H 1.1069 -0.9290 0.5121
H21 H 1.2978 -0.9303 0.4573
H22 H 1.1426 -0.9403 0.4056
N1 N 0.710(2) 0.2666(16) -0.0282(11)
N2 N 0.718(2) -0.0545(15) 0.1895(10)
N3 N 0.793(2) -0.1105(17) -0.1103(10)
O1 O 0.2430(17) 0.4359(16) -0.1224(9)
O2 O 0.3740(16) 0.5929(16) -0.2157(10)
O3 O 0.3482(17) 0.6357(15) -0.4000(9)
O4 O 1.1498(18) -0.2159(17) 0.3185(12)
O5 O 1.0389(17) -0.4342(16) 0.3506(10)
O6 O 1.129(2) -0.7351(17) 0.4534(10)
O7 O 0.8178(19) -0.1418(16) -0.1921(10)
O8 O 0.6347(19) -0.075(2) -0.0657(8)
O9 O 0.9370(16) -0.1162(15) -0.0717(7)
Ag1A Ag 0.2747(2) -0.07378(17) -0.06486(10)
Ag1A_2 Ag 1.2747(2) -0.07378(17) -0.06486(10)
O8A O 0.3653(19) 0.075(2) 0.0657(8)
O9A O 1.0630(16) 0.1162(15) 0.0717(7)
loop_
_geom_bond_atom_site_label_1
_geom_bond_atom_site_label_2
_geom_bond_site_symmetry_1
_geom_bond_site_symmetry_2
Ag1 N1 1_555 1_555
C1 H1 1_555 1_555
C2 H2 1_555 1_555
C3 C2 1_555 1_555
H3 C3 1_555 1_555
C4 C3 1_555 1_555
H4 C4 1_555 1_555
C5 C1 1_555 1_555
C6 C5 1_555 1_555
C7 H5 1_555 1_555
H6 C7 1_555 1_555
C8 C7 1_555 1_555
H7 C8 1_555 1_555
H8 C8 1_555 1_555
C9 H9 1_555 1_555
H10 C9 1_555 1_555
H11 C9 1_555 1_555
C10 H12 1_555 1_555
C11 H13 1_555 1_555
C12 C11 1_555 1_555
H14 C12 1_555 1_555
C13 C12 1_555 1_555
H15 C13 1_555 1_555
C14 C10 1_555 1_555
C15 C14 1_555 1_555
C16 H16 1_555 1_555
H17 C16 1_555 1_555
C17 C16 1_555 1_555
H18 C17 1_555 1_555
H19 C17 1_555 1_555
C18 H20 1_555 1_555
H21 C18 1_555 1_555
H22 C18 1_555 1_555
N1 C1 1_555 1_555
N2 Ag1 1_555 1_555
N3 O7 1_555 1_555
O1 C6 1_555 1_555
O2 C6 1_555 1_555
O3 C8 1_555 1_555
O4 C15 1_555 1_555
O5 C15 1_555 1_555
O6 C17 1_555 1_555
O8 Ag1 1_555 1_555
O9 Ag1 1_555 1_555
Ag1A O8 1_555 1_555
Ag1A_2 O9 1_555 1_555
O8A Ag1 1_555 1_555
O9A Ag1 1_555 1_555
C2 N1 1_555 1_555
C4 C5 1_555 1_555
C7 O2 1_555 1_555
C9 O3 1_555 1_555
C10 N2 1_555 1_555
C11 N2 1_555 1_555
C13 C14 1_555 1_555
C16 O5 1_555 1_555
C18 O6 1_555 1_555
N3 O8 1_555 1_555
N3 O9 1_555 1_555
Ag1A O8A 1_555 1_555
Ag1A_2 O9A 1_555 1_555

#END
