
#######################################################################
#
#                 Cambridge Crystallographic Data Centre
#                                CCDC 
#
#######################################################################
#
# If this CIF has been generated from an entry in the Cambridge 
# Structural Database, then it will include bibliographic, chemical, 
# crystal, experimental, refinement or atomic coordinate data resulting 
# from the CCDC's data processing and validation procedures.
#
#######################################################################

data_PASBUI
_symmetry_cell_setting           triclinic
_symmetry_space_group_name_H-M   'P -1'
_symmetry_Int_Tables_number      2
_space_group_name_Hall           '-P 1'
loop_
_symmetry_equiv_pos_site_id
_symmetry_equiv_pos_as_xyz
1 x,y,z
2 -x,-y,-z
_cell_length_a                   10.603(2)
_cell_length_b                   12.390(3)
_cell_length_c                   12.774(3)
_cell_angle_alpha                80.25(3)
_cell_angle_beta                 70.91(3)
_cell_angle_gamma                67.35(3)
_cell_volume                     1461.73
loop_
_atom_site_label
_atom_site_type_symbol
_atom_site_fract_x
_atom_site_fract_y
_atom_site_fract_z
O1 O 0.0000 0.0000 0.5000
C1 C 0.145(2) -0.0795(17) 0.3224(16)
H1 H 0.0510 -0.0774 0.3279
H2 H 0.2146 -0.1568 0.3025
H3 H 0.1693 -0.0217 0.2661
C2 C 0.146(3) -0.055(2) 0.422(2)
H4 H 0.1991 -0.0016 0.4085
H5 H 0.1978 -0.1275 0.4573
C1A C -0.145(2) 0.0795(17) 0.6776(16)
H1A H -0.0510 0.0774 0.6721
H2A H -0.2146 0.1568 0.6975
H3A H -0.1693 0.0217 0.7339
C2A C -0.146(3) 0.055(2) 0.578(2)
H4A H -0.1991 0.0016 0.5915
H5A H -0.1978 0.1275 0.5427
W1 W -0.21757(2) 0.689509(16) 0.202935(15)
C3 C -0.4178(6) 0.7197(5) 0.4648(4)
C4 C -0.4511(6) 0.6508(5) 0.5594(5)
H6 H -0.5142 0.6771 0.6289
C5 C 0.1096(6) 0.5455(5) 0.2384(4)
C6 C -0.3748(6) 0.5376(5) 0.5323(4)
C7 C -0.4079(7) 0.8560(5) -0.1736(4)
C8 C -0.3139(6) 0.4960(5) 0.1202(4)
C9 C -0.1633(6) 1.0804(5) -0.0104(4)
C10 C -0.4803(7) 0.8493(5) 0.4571(5)
H7 H -0.4089 0.8818 0.4534
H8 H -0.5610 0.8766 0.5220
H9 H -0.5120 0.8746 0.3909
C11 C -0.2969(6) 0.3778(5) 0.1394(5)
H10 H -0.3238 0.3348 0.1021
C12 C 0.0842(7) 0.3935(5) 0.3492(5)
C13 C -0.3693(7) 0.4272(5) 0.6042(5)
H11 H -0.4400 0.4464 0.6757
H12 H -0.2751 0.3891 0.6146
H13 H -0.3894 0.3749 0.5686
C14 C -0.3773(7) 0.5744(5) 0.0342(5)
H14 H -0.4564 0.6419 0.0688
H15 H -0.4113 0.5321 -0.0012
H16 H -0.3054 0.6003 -0.0210
C15 C 0.1802(6) 0.4469(5) 0.2946(5)
H17 H 0.2757 0.4217 0.2950
C16 C -0.2330(6) 0.3360(5) 0.2234(5)
C17 C 0.1760(6) 0.6310(5) 0.1703(5)
H18 H 0.1662 0.6402 0.0961
H19 H 0.2764 0.6023 0.1662
H20 H 0.1286 0.7061 0.2043
C18 C -0.1809(8) 0.2146(5) 0.2697(6)
H21 H -0.0782 0.1880 0.2552
H22 H -0.2046 0.1638 0.2352
H23 H -0.2257 0.2124 0.3491
C19 C 0.1016(8) 0.2880(6) 0.4257(7)
H24 H 0.0416 0.3102 0.5000
H25 H 0.2006 0.2521 0.4259
H26 H 0.0740 0.2326 0.4012
N1 N -0.0267(5) 0.5537(4) 0.2561(4)
N2 N -0.0397(5) 0.4574(4) 0.3255(4)
N3 N -0.3215(5) 0.6507(4) 0.3815(3)
N4 N -0.2962(5) 0.5372(4) 0.4247(3)
N5 N -0.2636(5) 0.5273(4) 0.1916(3)
N6 N -0.2152(5) 0.4265(4) 0.2552(4)
N7 N -0.3470(5) 0.8253(4) -0.1101(4)
N8 N -0.0905(5) 1.1302(4) -0.0159(4)
S1 S -0.44097(14) 0.79564(11) 0.18424(11)
S2 S -0.06963(14) 0.65217(11) 0.02417(10)
S3 S -0.15992(15) 0.82556(11) 0.26033(11)
S4 S -0.4974(2) 0.89976(13) -0.26765(13)
S5 S -0.26703(18) 1.00971(14) -0.00994(13)
Cu1 Cu -0.28170(7) 0.77634(6) 0.01686(5)
Cu2 Cu -0.34694(8) 0.92711(6) 0.19442(6)
Cu3 Cu -0.05999(8) 0.81035(6) 0.07590(6)
B1 B -0.1804(7) 0.4350(5) 0.3605(5)
H27 H -0.177(6) 0.355(5) 0.411(4)
W1A W -0.78243(2) 1.310491(16) -0.202935(15)
W1A_2 W 0.21757(2) 1.310491(16) -0.202935(15)
C3A C -0.5822(6) 1.2803(5) -0.4648(4)
C4A C -0.5489(6) 1.3492(5) -0.5594(5)
H6A H -0.4858 1.3229 -0.6289
C5A C -1.1096(6) 1.4545(5) -0.2384(4)
C6A C -0.6252(6) 1.4624(5) -0.5323(4)
C7A C -0.5921(7) 1.1440(5) 0.1736(4)
C8A C -0.6861(6) 1.5040(5) -0.1202(4)
C9A C 0.1633(6) 0.9196(5) 0.0104(4)
C10A C -0.5197(7) 1.1507(5) -0.4571(5)
H7A H -0.5911 1.1182 -0.4534
H8A H -0.4390 1.1234 -0.5220
H9A H -0.4880 1.1254 -0.3909
C11A C -0.7031(6) 1.6222(5) -0.1394(5)
H10A H -0.6762 1.6652 -0.1021
C12A C -1.0842(7) 1.6065(5) -0.3492(5)
C13A C -0.6307(7) 1.5728(5) -0.6042(5)
H11A H -0.5600 1.5536 -0.6757
H12A H -0.7249 1.6109 -0.6146
H13A H -0.6106 1.6251 -0.5686
C14A C -0.6227(7) 1.4256(5) -0.0342(5)
H14A H -0.5436 1.3581 -0.0688
H15A H -0.5887 1.4679 0.0012
H16A H -0.6946 1.3997 0.0210
C15A C -1.1802(6) 1.5531(5) -0.2946(5)
H17A H -1.2757 1.5783 -0.2950
C16A C -0.7670(6) 1.6640(5) -0.2234(5)
C17A C -1.1760(6) 1.3690(5) -0.1703(5)
H18A H -1.1662 1.3598 -0.0961
H19A H -1.2764 1.3977 -0.1662
H20A H -1.1286 1.2939 -0.2043
C18A C -0.8191(8) 1.7854(5) -0.2697(6)
H21A H -0.9218 1.8120 -0.2552
H22A H -0.7954 1.8362 -0.2352
H23A H -0.7743 1.7876 -0.3491
C19A C -1.1016(8) 1.7120(6) -0.4257(7)
H24A H -1.0416 1.6898 -0.5000
H25A H -1.2006 1.7479 -0.4259
H26A H -1.0740 1.7674 -0.4012
N1A N -0.9733(5) 1.4463(4) -0.2561(4)
N2A N -0.9603(5) 1.5426(4) -0.3255(4)
N3A N -0.6785(5) 1.3493(4) -0.3815(3)
N4A N -0.7038(5) 1.4628(4) -0.4247(3)
N5A N -0.7364(5) 1.4727(4) -0.1916(3)
N6A N -0.7848(5) 1.5735(4) -0.2552(4)
N7A N -0.6530(5) 1.1747(4) 0.1101(4)
N8A N 0.0905(5) 0.8698(4) 0.0159(4)
S1A S -0.55903(14) 1.20436(11) -0.18424(11)
S2A S -0.93037(14) 1.34783(11) -0.02417(10)
S2A_2 S 0.06963(14) 1.34783(11) -0.02417(10)
S3A S -0.84008(15) 1.17444(11) -0.26033(11)
S3A_2 S 0.15992(15) 1.17444(11) -0.26033(11)
S4A S -0.5026(2) 1.10024(13) 0.26765(13)
S5A S 0.26703(18) 0.99029(14) 0.00994(13)
S5A_2 S -0.73297(18) 0.99029(14) 0.00994(13)
Cu1A Cu -0.71830(7) 1.22366(6) -0.01686(5)
Cu2A Cu -0.65306(8) 1.07289(6) -0.19442(6)
Cu2A_2 Cu 0.34694(8) 1.07289(6) -0.19442(6)
Cu3A Cu 0.05999(8) 1.18965(6) -0.07590(6)
Cu3A_2 Cu -0.94001(8) 1.18965(6) -0.07590(6)
B1A B -0.8196(7) 1.5650(5) -0.3605(5)
H27A H -0.823(6) 1.645(5) -0.411(4)
loop_
_geom_bond_atom_site_label_1
_geom_bond_atom_site_label_2
_geom_bond_site_symmetry_1
_geom_bond_site_symmetry_2
O1 C2 1_555 1_555
C1 H1 1_555 1_555
H2 C1 1_555 1_555
H3 C1 1_555 1_555
C2 C1 1_555 1_555
H4 C2 1_555 1_555
H5 C2 1_555 1_555
W1 N1 1_555 1_555
C3 C4 1_555 1_555
C4 H6 1_555 1_555
C5 C15 1_555 1_555
C6 C4 1_555 1_555
C7 N7 1_555 1_555
C8 C11 1_555 1_555
C9 N8 1_555 1_555
C10 C3 1_555 1_555
H7 C10 1_555 1_555
H8 C10 1_555 1_555
H9 C10 1_555 1_555
C11 H10 1_555 1_555
C12 C15 1_555 1_555
C13 C6 1_555 1_555
H11 C13 1_555 1_555
H12 C13 1_555 1_555
H13 C13 1_555 1_555
C14 C8 1_555 1_555
H14 C14 1_555 1_555
H15 C14 1_555 1_555
H16 C14 1_555 1_555
C15 H17 1_555 1_555
C16 C11 1_555 1_555
C17 C5 1_555 1_555
H18 C17 1_555 1_555
H19 C17 1_555 1_555
H20 C17 1_555 1_555
C18 C16 1_555 1_555
H21 C18 1_555 1_555
H22 C18 1_555 1_555
H23 C18 1_555 1_555
C19 C12 1_555 1_555
H24 C19 1_555 1_555
H25 C19 1_555 1_555
H26 C19 1_555 1_555
N1 C5 1_555 1_555
N2 C12 1_555 1_555
N3 W1 1_555 1_555
N4 C6 1_555 1_555
N5 W1 1_555 1_555
N6 C16 1_555 1_555
N7 Cu1 1_555 1_555
N8 Cu3A 1_555 1_555
S1 W1 1_555 1_555
S2 W1 1_555 1_555
S3 W1 1_555 1_555
S4 C7 1_555 1_555
S5 C9 1_555 1_555
Cu1 S1 1_555 1_555
Cu2 S1 1_555 1_555
Cu3 S2 1_555 1_555
B1 N2 1_555 1_555
H27 B1 1_555 1_555
C1A H1A 1_555 1_555
H2A C1A 1_555 1_555
H3A C1A 1_555 1_555
C2A O1 1_555 1_555
H4A C2A 1_555 1_555
H5A C2A 1_555 1_555
W1A N1A 1_555 1_555
W1A_2 S2A_2 1_555 1_555
C3A C4A 1_555 1_555
C4A H6A 1_555 1_555
C5A C15A 1_555 1_555
C6A C4A 1_555 1_555
C7A N7A 1_555 1_555
C8A C11A 1_555 1_555
C9A N8A 1_555 1_555
C10A C3A 1_555 1_555
H7A C10A 1_555 1_555
H8A C10A 1_555 1_555
H9A C10A 1_555 1_555
C11A H10A 1_555 1_555
C12A C15A 1_555 1_555
C13A C6A 1_555 1_555
H11A C13A 1_555 1_555
H12A C13A 1_555 1_555
H13A C13A 1_555 1_555
C14A C8A 1_555 1_555
H14A C14A 1_555 1_555
H15A C14A 1_555 1_555
H16A C14A 1_555 1_555
C15A H17A 1_555 1_555
C16A C11A 1_555 1_555
C17A C5A 1_555 1_555
H18A C17A 1_555 1_555
H19A C17A 1_555 1_555
H20A C17A 1_555 1_555
C18A C16A 1_555 1_555
H21A C18A 1_555 1_555
H22A C18A 1_555 1_555
H23A C18A 1_555 1_555
C19A C12A 1_555 1_555
H24A C19A 1_555 1_555
H25A C19A 1_555 1_555
H26A C19A 1_555 1_555
N1A C5A 1_555 1_555
N2A C12A 1_555 1_555
N3A W1A 1_555 1_555
N4A C6A 1_555 1_555
N5A W1A 1_555 1_555
N6A C16A 1_555 1_555
N7A Cu1A 1_555 1_555
N8A Cu3 1_555 1_555
S1A W1A 1_555 1_555
S2A W1A 1_555 1_555
S2A_2 Cu3A 1_555 1_555
S3A W1A 1_555 1_555
S3A_2 W1A_2 1_555 1_555
S4A Cu2 1_555 1_555
S5A C9A 1_555 1_555
S5A_2 Cu2A 1_555 1_555
Cu1A S1A 1_555 1_555
Cu2A S4 1_555 1_555
Cu2A_2 S3A_2 1_555 1_555
Cu3A S3A_2 1_555 1_555
Cu3A_2 S2A 1_555 1_555
B1A N2A 1_555 1_555
H27A B1A 1_555 1_555
C3 N3 1_555 1_555
C8 N5 1_555 1_555
N1 N2 1_555 1_555
N3 N4 1_555 1_555
N4 B1 1_555 1_555
N5 N6 1_555 1_555
N6 B1 1_555 1_555
S2 Cu1 1_555 1_555
S3 Cu2 1_555 1_555
S3 Cu3 1_555 1_555
S5 Cu2 1_555 1_555
C1A C2A 1_555 1_555
C3A N3A 1_555 1_555
C7A S4A 1_555 1_555
C8A N5A 1_555 1_555
N1A N2A 1_555 1_555
N3A N4A 1_555 1_555
N4A B1A 1_555 1_555
N5A N6A 1_555 1_555
N6A B1A 1_555 1_555
S1A Cu2A 1_555 1_555
S2A Cu1A 1_555 1_555
S3A Cu2A 1_555 1_555
S3A Cu3A_2 1_555 1_555
S5A Cu2A_2 1_555 1_555

#END
