
#######################################################################
#
#                 Cambridge Crystallographic Data Centre
#                                CCDC 
#
#######################################################################
#
# If this CIF has been generated from an entry in the Cambridge 
# Structural Database, then it will include bibliographic, chemical, 
# crystal, experimental, refinement or atomic coordinate data resulting 
# from the CCDC's data processing and validation procedures.
#
#######################################################################

data_PASDIY
_symmetry_cell_setting           triclinic
_symmetry_space_group_name_H-M   'P -1'
_symmetry_Int_Tables_number      2
_space_group_name_Hall           '-P 1'
loop_
_symmetry_equiv_pos_site_id
_symmetry_equiv_pos_as_xyz
1 x,y,z
2 -x,-y,-z
_cell_length_a                   8.463(2)
_cell_length_b                   11.263(3)
_cell_length_c                   11.774(3)
_cell_angle_alpha                110.960(2)
_cell_angle_beta                 96.523(3)
_cell_angle_gamma                108.941(2)
_cell_volume                     957.164
loop_
_atom_site_label
_atom_site_type_symbol
_atom_site_fract_x
_atom_site_fract_y
_atom_site_fract_z
Zn1 Zn 0.64466(3) 0.03072(2) 0.30826(2)
C1 C 0.2037(2) -0.0378(2) 0.18674(19)
C2 C 0.2466(3) -0.0349(2) 0.07616(19)
C3 C 0.2372(2) 0.0671(2) 0.03803(19)
C4 C 0.1862(2) 0.1682(2) 0.11208(19)
C5 C 0.1414(2) 0.1653(2) 0.22156(19)
C6 C 0.1485(3) 0.0618(2) 0.25860(19)
P1 P 0.23824(7) -0.16077(5) 0.24137(5)
O1 O 0.43011(18) -0.11127(14) 0.29769(13)
O2 O 0.12781(19) -0.18222(15) 0.32989(14)
O3 O 0.17505(18) -0.30065(14) 0.11922(14)
C7 C 0.2926(3) -0.3605(2) 0.0601(2)
C8 C 0.2995(4) -0.4687(3) 0.1041(3)
H1 H 0.279(3) -0.102(3) 0.026(2)
H2 H 0.435(3) 0.351(3) 0.591(2)
H3 H 0.121(3) 0.060(2) 0.329(2)
H4 H 0.508(3) 0.166(3) 0.522(2)
H5 H 0.402(3) -0.289(3) 0.089(2)
H6 H 0.701(3) 0.285(3) 0.274(2)
H7 H 0.640(4) 0.481(3) 0.344(3)
H8 H 0.180(3) 0.236(3) 0.085(2)
H9 H 0.804(4) -0.065(3) 0.407(3)
C9 C 0.2195(4) -0.4194(3) -0.0802(2)
H11 H 0.828(3) 0.057(3) 0.497(3)
H12 H 0.303(4) -0.455(3) -0.123(3)
H14 H 0.377(4) -0.510(3) 0.067(3)
H15 H 0.101(5) -0.505(4) -0.110(3)
H17 H 0.203(4) -0.347(4) -0.107(3)
C10 C 0.2791(2) 0.0690(2) -0.08225(19)
H19 H 0.079(5) 0.442(5) 0.319(4)
H20 H 0.341(5) -0.429(4) 0.195(4)
H21 H 0.177(5) -0.551(4) 0.076(4)
O4 O 0.30284(19) -0.03737(15) -0.15396(13)
O5 O 0.2890(2) 0.16871(16) -0.10722(14)
C11 C 0.0882(3) 0.2743(2) 0.3033(2)
O6 O 0.0498(2) 0.27665(17) 0.39971(16)
O7 O 0.0921(2) 0.36796(18) 0.26033(16)
N1 N 0.6074(2) 0.20762(17) 0.38700(16)
C12 C 0.5314(3) 0.2303(2) 0.4823(2)
C13 C 0.4875(3) 0.3428(2) 0.5286(2)
C14 C 0.5237(3) 0.4394(2) 0.47674(19)
C15 C 0.6061(3) 0.4163(2) 0.3794(2)
C16 C 0.6449(3) 0.3011(2) 0.3377(2)
O8 O 0.8095(2) 0.01478(18) 0.42750(17)
Zn1A Zn 0.35534(3) -0.03072(2) -0.30826(2)
Zn1A_2 Zn 0.35534(3) 0.96928(2) 0.69174(2)
C1A C 0.7963(2) 0.0378(2) -0.18674(19)
C2A C 0.7534(3) 0.0349(2) -0.07616(19)
C3A C 0.7628(2) -0.0671(2) -0.03803(19)
C4A C 0.8138(2) -0.1682(2) -0.11208(19)
C5A C 0.8586(2) -0.1653(2) -0.22156(19)
C6A C 0.8515(3) -0.0618(2) -0.25860(19)
P1A P 0.76176(7) 0.16077(5) -0.24137(5)
O1A O 0.56989(18) 0.11127(14) -0.29769(13)
O2A O 0.87219(19) 0.18222(15) -0.32989(14)
O3A O 0.82495(18) 0.30065(14) -0.11922(14)
C7A C 0.7074(3) 0.3605(2) -0.0601(2)
C8A C 0.7005(4) 0.4687(3) -0.1041(3)
H1A H 0.721(3) 0.102(3) -0.026(2)
H2A H 0.565(3) 0.649(3) 0.409(2)
H3A H 0.879(3) -0.060(2) -0.329(2)
H4A H 0.492(3) 0.834(3) 0.478(2)
H5A H 0.598(3) 0.289(3) -0.089(2)
H6A H 0.299(3) 0.715(3) 0.726(2)
H7A H 0.360(4) 0.519(3) 0.656(3)
H8A H 0.820(3) -0.236(3) -0.085(2)
H9A H 0.196(4) 0.065(3) -0.407(3)
C9A C 0.7805(4) 0.4194(3) 0.0802(2)
H11A H 0.172(3) -0.057(3) -0.497(3)
H12A H 0.697(4) 0.455(3) 0.123(3)
H14A H 0.623(4) 0.510(3) -0.067(3)
H15A H 0.899(5) 0.505(4) 0.110(3)
H17A H 0.797(4) 0.347(4) 0.107(3)
C10A C 0.7209(2) -0.0690(2) 0.08225(19)
H19A H 0.921(5) -0.442(5) -0.319(4)
H20A H 0.659(5) 0.429(4) -0.195(4)
H21A H 0.823(5) 0.551(4) -0.076(4)
O4A O 0.69716(19) 0.03737(15) 0.15396(13)
O5A O 0.7110(2) -0.16871(16) 0.10722(14)
C11A C 0.9118(3) -0.2743(2) -0.3033(2)
O6A O 0.9502(2) -0.27665(17) -0.39971(16)
O7A O 0.9079(2) -0.36796(18) -0.26033(16)
N1A N 0.3926(2) 0.79238(17) 0.61300(16)
N1A_2 N 0.3926(2) -0.20762(17) -0.38700(16)
C12A C 0.4686(3) 0.7697(2) 0.5177(2)
C13A C 0.5125(3) 0.6572(2) 0.4714(2)
C14A C 0.4763(3) 0.5606(2) 0.52326(19)
C15A C 0.3939(3) 0.5837(2) 0.6206(2)
C16A C 0.3551(3) 0.6989(2) 0.6623(2)
O8A O 0.1905(2) -0.01478(18) -0.42750(17)
H10 H 0.134(4) 0.239(3) 0.695(3)
H18 H 0.252(5) 0.230(4) 0.765(4)
O9 O 0.2266(2) 0.24478(17) 0.69634(16)
H13 H 0.069(4) 0.652(4) 0.367(3)
H16 H 0.005(4) 0.613(3) 0.448(3)
O10 O 0.0285(2) 0.57968(17) 0.38370(17)
loop_
_geom_bond_atom_site_label_1
_geom_bond_atom_site_label_2
_geom_bond_site_symmetry_1
_geom_bond_site_symmetry_2
Zn1 O1 1_555 1_555
C1 C2 1_555 1_555
C2 C3 1_555 1_555
C3 C4 1_555 1_555
C4 C5 1_555 1_555
C5 C6 1_555 1_555
C6 C1 1_555 1_555
P1 C1 1_555 1_555
O1 P1 1_555 1_555
O2 P1 1_555 1_555
O3 P1 1_555 1_555
C7 O3 1_555 1_555
C8 C7 1_555 1_555
H1 C2 1_555 1_555
H2 C13 1_555 1_555
H3 C6 1_555 1_555
H4 C12 1_555 1_555
H5 C7 1_555 1_555
H6 C16 1_555 1_555
H7 C15 1_555 1_555
H8 C4 1_555 1_555
H9 O8 1_555 1_555
C9 C7 1_555 1_555
H10 O9 1_555 1_555
H11 O8 1_555 1_555
H12 C9 1_555 1_555
H13 O10 1_555 1_555
H14 C8 1_555 1_555
H15 C9 1_555 1_555
H16 O10 1_555 1_555
H17 C9 1_555 1_555
H18 O9 1_555 1_555
C10 C3 1_555 1_555
H19 O7 1_555 1_555
H20 C8 1_555 1_555
H21 C8 1_555 1_555
O4 C10 1_555 1_555
O5 C10 1_555 1_555
C11 C5 1_555 1_555
O6 C11 1_555 1_555
O7 C11 1_555 1_555
N1 Zn1 1_555 1_555
C12 N1 1_555 1_555
C13 C12 1_555 1_555
C14 C13 1_555 1_555
C15 C14 1_555 1_555
C16 N1 1_555 1_555
O8 Zn1 1_555 1_555
Zn1A O4 1_555 1_555
Zn1A_2 N1A 1_555 1_555
C1A C2A 1_555 1_555
C2A C3A 1_555 1_555
C3A C4A 1_555 1_555
C4A C5A 1_555 1_555
C5A C6A 1_555 1_555
C6A C1A 1_555 1_555
P1A C1A 1_555 1_555
O1A Zn1A 1_555 1_555
O2A P1A 1_555 1_555
O3A P1A 1_555 1_555
C7A O3A 1_555 1_555
C8A C7A 1_555 1_555
H1A C2A 1_555 1_555
H2A C13A 1_555 1_555
H3A C6A 1_555 1_555
H4A C12A 1_555 1_555
H5A C7A 1_555 1_555
H6A C16A 1_555 1_555
H7A C15A 1_555 1_555
H8A C4A 1_555 1_555
H9A O8A 1_555 1_555
C9A C7A 1_555 1_555
H11A O8A 1_555 1_555
H12A C9A 1_555 1_555
H14A C8A 1_555 1_555
H15A C9A 1_555 1_555
H17A C9A 1_555 1_555
C10A C3A 1_555 1_555
H19A O7A 1_555 1_555
H20A C8A 1_555 1_555
H21A C8A 1_555 1_555
O4A Zn1 1_555 1_555
O5A C10A 1_555 1_555
C11A C5A 1_555 1_555
O6A C11A 1_555 1_555
O7A C11A 1_555 1_555
N1A C12A 1_555 1_555
N1A_2 Zn1A 1_555 1_555
C12A C13A 1_555 1_555
C13A C14A 1_555 1_555
C14A C14 1_555 1_555
C15A C14A 1_555 1_555
C16A N1A 1_555 1_555
O8A Zn1A 1_555 1_555
C15 C16 1_555 1_555
P1A O1A 1_555 1_555
C10A O4A 1_555 1_555
C15A C16A 1_555 1_555

#END
