
#######################################################################
#
#                 Cambridge Crystallographic Data Centre
#                                CCDC 
#
#######################################################################
#
# If this CIF has been generated from an entry in the Cambridge 
# Structural Database, then it will include bibliographic, chemical, 
# crystal, experimental, refinement or atomic coordinate data resulting 
# from the CCDC's data processing and validation procedures.
#
#######################################################################

data_PASDUK
_symmetry_cell_setting           triclinic
_symmetry_space_group_name_H-M   'P -1'
_symmetry_Int_Tables_number      2
_space_group_name_Hall           '-P 1'
loop_
_symmetry_equiv_pos_site_id
_symmetry_equiv_pos_as_xyz
1 x,y,z
2 -x,-y,-z
_cell_length_a                   5.1360(14)
_cell_length_b                   12.264(3)
_cell_length_c                   12.574(3)
_cell_angle_alpha                69.555(3)
_cell_angle_beta                 79.414(3)
_cell_angle_gamma                82.245(3)
_cell_volume                     727.333
loop_
_atom_site_label
_atom_site_type_symbol
_atom_site_fract_x
_atom_site_fract_y
_atom_site_fract_z
Zn1 Zn 0.26250(8) 0.14500(2) 0.47312(3)
P1 P 0.83434(17) 0.09853(5) 0.34754(6)
O2 O 1.1186(4) 0.11048(17) 0.35609(18)
O3 O 0.7882(5) -0.03013(16) 0.37370(18)
O4 O 0.6368(5) 0.15609(17) 0.42027(18)
O5 O 0.1489(5) 0.41759(17) 0.10696(18)
O6 O 0.2872(5) 0.44171(18) -0.07899(18)
H1 H 0.1513 0.4855 -0.0867
O7 O 1.3123(6) 0.0960(3) -0.0652(2)
H2 H 1.4075 0.0853 -0.1212
O8 O 1.1183(6) 0.2412(4) -0.1998(2)
N1 N 0.0405(6) 0.29204(19) 0.4829(3)
C1 C -0.3840(7) 0.4576(2) 0.4964(3)
C2 C 0.7928(7) 0.1717(2) 0.1986(2)
C3 C 0.5804(7) 0.2535(2) 0.1702(3)
H3 H 0.4609 0.2712 0.2281
C4 C 0.5430(7) 0.3098(2) 0.0558(3)
C5 C 0.3081(7) 0.3940(2) 0.0311(2)
C6 C 0.7228(7) 0.2855(3) -0.0312(3)
H4 H 0.6995 0.3233 -0.1074
C7 C 0.9394(7) 0.2040(3) -0.0037(3)
C8 C 1.1307(8) 0.1829(4) -0.1000(3)
C9 C 0.9713(7) 0.1469(2) 0.1104(3)
H5 H 1.1133 0.0914 0.1283
C10 C -0.2749(14) 0.3881(5) 0.5828(5)
H6 H -0.3388 0.3928 0.6554
C11 C -0.0656(14) 0.3065(5) 0.5714(6)
H7 H -0.0012 0.2586 0.6382
C12 C -0.0472(14) 0.3706(5) 0.3753(6)
H8 H 0.0318 0.3628 0.3053
C13 C -0.2486(14) 0.4560(5) 0.3799(6)
H9 H -0.2994 0.5110 0.3132
Zn1A Zn -1.26250(8) 0.85500(2) 0.52688(3)
Zn1_2 Zn -1.73750(8) 1.14500(2) 0.47312(3)
Zn1_3 Zn 1.26250(8) 0.14500(2) 0.47312(3)
Zn1A_2 Zn -2.26250(8) 0.85500(2) 0.52688(3)
Zn1A_3 Zn 0.73750(8) -0.14500(2) 0.52688(3)
P1A P -1.83434(17) 0.90147(5) 0.65246(6)
O2A O -2.1186(4) 0.88952(17) 0.64391(18)
O2_2 O 0.1186(4) 0.11048(17) 0.35609(18)
O2A_2 O -1.1186(4) 0.88952(17) 0.64391(18)
O3A O -1.7882(5) 1.03013(16) 0.62630(18)
O3_2 O -1.2118(5) 0.96987(16) 0.37370(18)
O3A_2 O 0.2118(5) 0.03013(16) 0.62630(18)
O4A O -1.6368(5) 0.84391(17) 0.57973(18)
O5A O -1.1489(5) 0.58241(17) 0.89304(18)
O6A O -1.2872(5) 0.55829(18) 1.07899(18)
H1A H -1.1513 0.5145 1.0867
O7A O -2.3123(6) 0.9040(3) 1.0652(2)
H2A H -2.4075 0.9147 1.1212
O8A O -2.1183(6) 0.7588(4) 1.1998(2)
N1A N -1.0405(6) 0.70796(19) 0.5171(3)
C1A C -0.6160(7) 0.5424(2) 0.5036(3)
C2A C -1.7928(7) 0.8283(2) 0.8014(2)
C3A C -1.5804(7) 0.7465(2) 0.8298(3)
H3A H -1.4609 0.7288 0.7719
C4A C -1.5430(7) 0.6902(2) 0.9442(3)
C5A C -1.3081(7) 0.6060(2) 0.9689(2)
C6A C -1.7228(7) 0.7145(3) 1.0312(3)
H4A H -1.6995 0.6767 1.1074
C7A C -1.9394(7) 0.7960(3) 1.0037(3)
C8A C -2.1307(8) 0.8171(4) 1.1000(3)
C9A C -1.9713(7) 0.8531(2) 0.8896(3)
H5A H -2.1133 0.9086 0.8717
C10A C -0.7251(14) 0.6119(5) 0.4172(5)
H6A H -0.6612 0.6072 0.3446
C11A C -0.9344(14) 0.6935(5) 0.4286(6)
H7A H -0.9988 0.7414 0.3618
C12A C -0.9528(14) 0.6294(5) 0.6247(6)
H8A H -1.0318 0.6372 0.6947
C13A C -0.7514(14) 0.5440(5) 0.6201(6)
H9A H -0.7006 0.4890 0.6868
O1 O -0.4168(6) 0.0668(3) 0.7445(2)
C14? C -0.3623(13) 0.3464(5) 0.5995(5)
C15? C 0.0046(14) 0.3875(5) 0.4061(6)
C16? C -0.2019(15) 0.4720(5) 0.4089(6)
C17? C -0.1424(13) 0.2695(5) 0.5903(5)
H10? H -0.4896 0.3312 0.6648
H11? H 0.1296 0.4036 0.3400
H12? H -0.2088 0.5405 0.3464
H13? H -0.1114 0.2034 0.6527
loop_
_geom_bond_atom_site_label_1
_geom_bond_atom_site_label_2
_geom_bond_site_symmetry_1
_geom_bond_site_symmetry_2
Zn1 O4 1_555 1_555
P1 O2 1_555 1_555
O2 Zn1_3 1_555 1_555
O3 P1 1_555 1_555
O4 P1 1_555 1_555
O5 C5 1_555 1_555
O6 H1 1_555 1_555
O7 H2 1_555 1_555
O8 C8 1_555 1_555
N1 Zn1 1_555 1_555
C1 C10 1_555 1_555
C2 P1 1_555 1_555
C3 C2 1_555 1_555
H3 C3 1_555 1_555
C4 C3 1_555 1_555
C5 O6 1_555 1_555
C6 C4 1_555 1_555
H4 C6 1_555 1_555
C7 C6 1_555 1_555
C8 O7 1_555 1_555
C9 C2 1_555 1_555
H5 C9 1_555 1_555
C10 H6 1_555 1_555
C11 N1 1_555 1_555
H7 C11 1_555 1_555
C12 N1 1_555 1_555
H8 C12 1_555 1_555
C13 C1 1_555 1_555
H9 C13 1_555 1_555
Zn1A O2A_2 1_555 1_555
Zn1_2 O3A 1_555 1_555
Zn1A_2 O2A 1_555 1_555
Zn1A_3 O3 1_555 1_555
P1A O2A 1_555 1_555
O2_2 Zn1 1_555 1_555
O3A P1A 1_555 1_555
O3_2 Zn1A 1_555 1_555
O3A_2 Zn1 1_555 1_555
O4A Zn1A 1_555 1_555
O5A C5A 1_555 1_555
O6A H1A 1_555 1_555
O7A H2A 1_555 1_555
O8A C8A 1_555 1_555
N1A Zn1A 1_555 1_555
C1A C1 1_555 1_555
C2A P1A 1_555 1_555
C3A C2A 1_555 1_555
H3A C3A 1_555 1_555
C4A C3A 1_555 1_555
C5A O6A 1_555 1_555
C6A C4A 1_555 1_555
H4A C6A 1_555 1_555
C7A C6A 1_555 1_555
C8A O7A 1_555 1_555
C9A C2A 1_555 1_555
H5A C9A 1_555 1_555
C10A C1A 1_555 1_555
H6A C10A 1_555 1_555
C11A N1A 1_555 1_555
H7A C11A 1_555 1_555
C12A N1A 1_555 1_555
H8A C12A 1_555 1_555
C13A C1A 1_555 1_555
H9A C13A 1_555 1_555
C4 C5 1_555 1_555
C7 C8 1_555 1_555
C7 C9 1_555 1_555
C10 C11 1_555 1_555
C12 C13 1_555 1_555
P1A O4A 1_555 1_555
C4A C5A 1_555 1_555
C7A C8A 1_555 1_555
C7A C9A 1_555 1_555
C10A C11A 1_555 1_555
C12A C13A 1_555 1_555

#END
