
#######################################################################
#
#                 Cambridge Crystallographic Data Centre
#                                CCDC 
#
#######################################################################
#
# If this CIF has been generated from an entry in the Cambridge 
# Structural Database, then it will include bibliographic, chemical, 
# crystal, experimental, refinement or atomic coordinate data resulting 
# from the CCDC's data processing and validation procedures.
#
#######################################################################

data_PASFIA
_symmetry_cell_setting           monoclinic
_symmetry_space_group_name_H-M   'C 2/c'
_symmetry_Int_Tables_number      15
_space_group_name_Hall           '-C 2yn'
loop_
_symmetry_equiv_pos_site_id
_symmetry_equiv_pos_as_xyz
1 x,y,z
2 -x,y,1/2-z
3 1/2+x,1/2+y,z
4 1/2-x,1/2+y,1/2-z
5 -x,-y,-z
6 x,-y,1/2+z
7 1/2-x,1/2-y,-z
8 1/2+x,1/2-y,1/2+z
_cell_length_a                   19.4082(4)
_cell_length_b                   12.5929(2)
_cell_length_c                   7.5885(2)
_cell_angle_alpha                90
_cell_angle_beta                 107.0340(10)
_cell_angle_gamma                90
_cell_volume                     1773.31
loop_
_atom_site_label
_atom_site_type_symbol
_atom_site_fract_x
_atom_site_fract_y
_atom_site_fract_z
Cu1 Cu 0.20534(5) 0.68383(6) 0.27775(13)
Cu2 Cu 0.0000 0.62947(18) -0.2500
Cu3 Cu 0.0000 0.30257(18) -0.2500
O1 O 0.1092(3) 0.6144(4) 0.0830(7)
O2 O 0.0715(3) 0.4544(4) -0.0260(7)
O3 O 0.1498(3) 0.2441(4) -0.0552(7)
O4 O 0.1002(3) 0.2410(5) 0.1733(9)
N1 N 0.2319(3) 0.5337(4) 0.3087(8)
N2 N 0.2619(3) 0.3180(4) 0.2998(8)
C1 C 0.2941(4) 0.4923(5) 0.4169(10)
H1 H 0.3272 0.5365 0.4971
C2 C 0.3093(4) 0.3857(6) 0.4106(10)
H2 H 0.3532 0.3598 0.4843
C3 C 0.1976(4) 0.3580(5) 0.2002(9)
C4 C 0.1835(3) 0.4669(5) 0.2013(8)
C5 C 0.1157(4) 0.5160(5) 0.0753(9)
C6 C 0.1441(3) 0.2749(5) 0.0943(9)
Cu1A Cu -0.20534(5) 0.68383(6) -0.77775(13)
Cu1E Cu 0.20534(5) 0.31617(6) -0.22225(13)
Cu1C Cu 0.29466(5) 0.18383(6) 0.22225(13)
Cu1D Cu -0.20534(5) 0.31617(6) -0.27775(13)
Cu1B Cu -0.29466(5) 0.18383(6) -0.72225(13)
Cu2D Cu 0.0000 0.37053(18) 0.2500
Cu2D_2 Cu 0.0000 0.37053(18) -0.7500
O1A O -0.1092(3) 0.6144(4) -0.5830(7)
O2A O -0.0715(3) 0.4544(4) -0.4740(7)
O3A O -0.1498(3) 0.2441(4) -0.4448(7)
O3E O 0.1498(3) 0.7559(4) 0.4448(7)
O3D O -0.1498(3) 0.7559(4) -0.9448(7)
O4A O -0.1002(3) 0.2410(5) -0.6733(9)
O4D O -0.1002(3) 0.7590(5) -0.1733(9)
O4E O 0.1002(3) 0.7590(5) -0.3267(9)
N1A N -0.2319(3) 0.5337(4) -0.8087(8)
N2A N -0.2619(3) 0.3180(4) -0.7998(8)
N2C N 0.2381(3) 0.8180(4) 0.2002(8)
N2B N -0.2381(3) 0.8180(4) -0.7002(8)
C1A C -0.2941(4) 0.4923(5) -0.9169(10)
H1A H -0.3272 0.5365 -0.9971
C2A C -0.3093(4) 0.3857(6) -0.9106(10)
H2A H -0.3532 0.3598 -0.9843
C3A C -0.1976(4) 0.3580(5) -0.7002(9)
C4A C -0.1835(3) 0.4669(5) -0.7013(8)
C5A C -0.1157(4) 0.5160(5) -0.5753(9)
C6A C -0.1441(3) 0.2749(5) -0.5943(9)
O5 O 0.0019(11) 0.1016(17) -0.049(3)
loop_
_geom_bond_atom_site_label_1
_geom_bond_atom_site_label_2
_geom_bond_site_symmetry_1
_geom_bond_site_symmetry_2
Cu1 O1 1_555 1_555
Cu2 O1 1_555 1_555
Cu3 O2 1_555 1_555
O1 C5 1_555 1_555
O2 C5 1_555 1_555
O3 C6 1_555 1_555
O4 C6 1_555 1_555
N1 Cu1 1_555 1_555
N2 C2 1_555 1_555
C1 N1 1_555 1_555
H1 C1 1_555 1_555
C2 C1 1_555 1_555
H2 C2 1_555 1_555
C3 N2 1_555 1_555
C4 N1 1_555 1_555
C5 C4 1_555 1_555
C6 C3 1_555 1_555
Cu1A O1A 1_555 1_555
Cu1E O3 1_555 1_555
Cu1C N2 1_555 1_555
Cu1D O3A 1_555 1_555
Cu1B N2A 1_555 1_555
Cu2D O4 1_555 1_555
Cu2D_2 O4A 1_555 1_555
O1A Cu2 1_555 1_555
O2A Cu3 1_555 1_555
O3A C6A 1_555 1_555
O3E Cu1 1_555 1_555
O3D Cu1A 1_555 1_555
O4A C6A 1_555 1_555
O4D Cu2 1_555 1_555
O4E Cu2 1_555 1_555
N1A Cu1A 1_555 1_555
N2A C2A 1_555 1_555
N2C Cu1 1_555 1_555
N2B Cu1A 1_555 1_555
C1A N1A 1_555 1_555
H1A C1A 1_555 1_555
C2A C1A 1_555 1_555
H2A C2A 1_555 1_555
C3A N2A 1_555 1_555
C4A N1A 1_555 1_555
C5A O1A 1_555 1_555
C6A C3A 1_555 1_555
C3 C4 1_555 1_555
O2A C5A 1_555 1_555
C3A C4A 1_555 1_555
C4A C5A 1_555 1_555

#END
