
#######################################################################
#
#                 Cambridge Crystallographic Data Centre
#                                CCDC 
#
#######################################################################
#
# If this CIF has been generated from an entry in the Cambridge 
# Structural Database, then it will include bibliographic, chemical, 
# crystal, experimental, refinement or atomic coordinate data resulting 
# from the CCDC's data processing and validation procedures.
#
#######################################################################

data_PASFAS
_symmetry_cell_setting           monoclinic
_symmetry_space_group_name_H-M   'C 2/c'
_symmetry_Int_Tables_number      15
_space_group_name_Hall           '-C 2yn'
loop_
_symmetry_equiv_pos_site_id
_symmetry_equiv_pos_as_xyz
1 x,y,z
2 -x,y,1/2-z
3 1/2+x,1/2+y,z
4 1/2-x,1/2+y,1/2-z
5 -x,-y,-z
6 x,-y,1/2+z
7 1/2-x,1/2-y,-z
8 1/2+x,1/2-y,1/2+z
_cell_length_a                   19.3929(10)
_cell_length_b                   12.5914(6)
_cell_length_c                   7.5890(3)
_cell_angle_alpha                90
_cell_angle_beta                 107.013(2)
_cell_angle_gamma                90
_cell_volume                     1772.02
loop_
_atom_site_label
_atom_site_type_symbol
_atom_site_fract_x
_atom_site_fract_y
_atom_site_fract_z
Cu1 Cu 0.20535(4) 0.68377(6) 0.27827(11)
Cu2 Cu 0.0000 0.62914(15) -0.2500
Cu3 Cu 0.0000 0.30281(14) -0.2500
O1 O 0.1092(2) 0.6145(3) 0.0829(6)
O2 O 0.0716(2) 0.4540(4) -0.0292(7)
O3 O 0.1500(2) 0.2441(3) -0.0568(6)
O4 O 0.1003(3) 0.2411(4) 0.1762(7)
N1 N 0.2322(2) 0.5342(4) 0.3095(6)
N2 N 0.2617(3) 0.3179(4) 0.3020(6)
C1 C 0.2946(3) 0.4935(5) 0.4161(8)
H1 H 0.3283 0.5376 0.4948
C2 C 0.3089(3) 0.3852(5) 0.4089(8)
H2 H 0.3529 0.3590 0.4814
C3 C 0.1972(3) 0.3581(5) 0.1986(8)
C4 C 0.1831(3) 0.4646(4) 0.1982(7)
C5 C 0.1161(3) 0.5158(5) 0.0742(7)
C6 C 0.1441(3) 0.2746(5) 0.0945(8)
Cu1A Cu -0.20535(4) 0.68377(6) -0.77827(11)
Cu1E Cu 0.20535(4) 0.31623(6) -0.22173(11)
Cu1C Cu 0.29465(4) 0.18377(6) 0.22173(11)
Cu1D Cu -0.20535(4) 0.31623(6) -0.27827(11)
Cu1B Cu -0.29465(4) 0.18377(6) -0.72173(11)
Cu2D Cu 0.0000 0.37086(15) 0.2500
Cu2D_2 Cu 0.0000 0.37086(15) -0.7500
O1A O -0.1092(2) 0.6145(3) -0.5829(6)
O2A O -0.0716(2) 0.4540(4) -0.4708(7)
O3A O -0.1500(2) 0.2441(3) -0.4432(6)
O3E O 0.1500(2) 0.7559(3) 0.4432(6)
O3D O -0.1500(2) 0.7559(3) -0.9432(6)
O4A O -0.1003(3) 0.2411(4) -0.6762(7)
O4D O -0.1003(3) 0.7589(4) -0.1762(7)
O4E O 0.1003(3) 0.7589(4) -0.3238(7)
N1A N -0.2322(2) 0.5342(4) -0.8095(6)
N2A N -0.2617(3) 0.3179(4) -0.8020(6)
N2C N 0.2383(3) 0.8179(4) 0.1980(6)
N2B N -0.2383(3) 0.8179(4) -0.6980(6)
C1A C -0.2946(3) 0.4935(5) -0.9161(8)
H1A H -0.3283 0.5376 -0.9948
C2A C -0.3089(3) 0.3852(5) -0.9089(8)
H2A H -0.3529 0.3590 -0.9814
C3A C -0.1972(3) 0.3581(5) -0.6986(8)
C4A C -0.1831(3) 0.4646(4) -0.6982(7)
C5A C -0.1161(3) 0.5158(5) -0.5742(7)
C6A C -0.1441(3) 0.2746(5) -0.5945(8)
O5 O -0.0002(6) 0.1038(9) -0.050(2)
loop_
_geom_bond_atom_site_label_1
_geom_bond_atom_site_label_2
_geom_bond_site_symmetry_1
_geom_bond_site_symmetry_2
Cu1 O1 1_555 1_555
Cu2 O1 1_555 1_555
Cu3 O2 1_555 1_555
O1 C5 1_555 1_555
O2 C5 1_555 1_555
O3 C6 1_555 1_555
O4 C6 1_555 1_555
N1 Cu1 1_555 1_555
N2 C2 1_555 1_555
C1 N1 1_555 1_555
H1 C1 1_555 1_555
C2 C1 1_555 1_555
H2 C2 1_555 1_555
C3 N2 1_555 1_555
C4 N1 1_555 1_555
C5 C4 1_555 1_555
C6 C3 1_555 1_555
Cu1A O1A 1_555 1_555
Cu1E O3 1_555 1_555
Cu1C N2 1_555 1_555
Cu1D O3A 1_555 1_555
Cu1B N2A 1_555 1_555
Cu2D O4 1_555 1_555
Cu2D_2 O4A 1_555 1_555
O1A Cu2 1_555 1_555
O2A Cu3 1_555 1_555
O3A C6A 1_555 1_555
O3E Cu1 1_555 1_555
O3D Cu1A 1_555 1_555
O4A C6A 1_555 1_555
O4D Cu2 1_555 1_555
O4E Cu2 1_555 1_555
N1A Cu1A 1_555 1_555
N2A C2A 1_555 1_555
N2C Cu1 1_555 1_555
N2B Cu1A 1_555 1_555
C1A N1A 1_555 1_555
H1A C1A 1_555 1_555
C2A C1A 1_555 1_555
H2A C2A 1_555 1_555
C3A N2A 1_555 1_555
C4A N1A 1_555 1_555
C5A O1A 1_555 1_555
C6A C3A 1_555 1_555
C3 C4 1_555 1_555
O2A C5A 1_555 1_555
C3A C4A 1_555 1_555
C4A C5A 1_555 1_555

#END
