
#######################################################################
#
#                 Cambridge Crystallographic Data Centre
#                                CCDC 
#
#######################################################################
#
# If this CIF has been generated from an entry in the Cambridge 
# Structural Database, then it will include bibliographic, chemical, 
# crystal, experimental, refinement or atomic coordinate data resulting 
# from the CCDC's data processing and validation procedures.
#
#######################################################################

data_PASFEW
_symmetry_cell_setting           monoclinic
_symmetry_space_group_name_H-M   'C 2/c'
_symmetry_Int_Tables_number      15
_space_group_name_Hall           '-C 2yn'
loop_
_symmetry_equiv_pos_site_id
_symmetry_equiv_pos_as_xyz
1 x,y,z
2 -x,y,1/2-z
3 1/2+x,1/2+y,z
4 1/2-x,1/2+y,1/2-z
5 -x,-y,-z
6 x,-y,1/2+z
7 1/2-x,1/2-y,-z
8 1/2+x,1/2-y,1/2+z
_cell_length_a                   19.3848(4)
_cell_length_b                   12.5209(2)
_cell_length_c                   7.7134(2)
_cell_angle_alpha                90
_cell_angle_beta                 107.8220(10)
_cell_angle_gamma                90
_cell_volume                     1782.32
loop_
_atom_site_label
_atom_site_type_symbol
_atom_site_fract_x
_atom_site_fract_y
_atom_site_fract_z
Cu1 Cu 0.20681(4) 0.68003(5) 0.28648(11)
Cu2 Cu 0.0000 0.63303(14) -0.2500
Cu3 Cu 0.0000 0.30041(15) -0.2500
O1 O 0.1100(2) 0.6160(3) 0.0788(6)
O2 O 0.0709(3) 0.4567(3) -0.0397(7)
O3 O 0.1507(2) 0.2406(3) -0.0626(6)
O4 O 0.0915(3) 0.2403(4) 0.1427(8)
N1 N 0.2304(2) 0.5282(3) 0.3105(6)
N2 N 0.2576(2) 0.3116(4) 0.3004(6)
C1 C 0.2909(3) 0.4844(4) 0.4261(8)
H1 H 0.3237 0.5267 0.5117
C2 C 0.3038(3) 0.3751(5) 0.4159(9)
H2 H 0.3463 0.3462 0.4931
C3 C 0.1943(3) 0.3518(4) 0.1941(7)
C4 C 0.1819(2) 0.4630(4) 0.1986(7)
C5 C 0.1155(3) 0.5158(4) 0.0681(7)
C6 C 0.1410(3) 0.2721(4) 0.0820(7)
Cu1A Cu -0.20681(4) 0.68003(5) -0.78648(11)
Cu1E Cu 0.20681(4) 0.31997(5) -0.21352(11)
Cu1C Cu 0.29319(4) 0.18003(5) 0.21352(11)
Cu1D Cu -0.20681(4) 0.31997(5) -0.28648(11)
Cu1B Cu -0.29319(4) 0.18003(5) -0.71352(11)
Cu2D Cu 0.0000 0.36697(14) 0.2500
Cu2D_2 Cu 0.0000 0.36697(14) -0.7500
O1A O -0.1100(2) 0.6160(3) -0.5788(6)
O2A O -0.0709(3) 0.4567(3) -0.4603(7)
O3A O -0.1507(2) 0.2406(3) -0.4374(6)
O3E O 0.1507(2) 0.7594(3) 0.4374(6)
O3D O -0.1507(2) 0.7594(3) -0.9374(6)
O4A O -0.0915(3) 0.2403(4) -0.6427(8)
O4D O -0.0915(3) 0.7597(4) -0.1427(8)
O4E O 0.0915(3) 0.7597(4) -0.3573(8)
N1A N -0.2304(2) 0.5282(3) -0.8105(6)
N2A N -0.2576(2) 0.3116(4) -0.8004(6)
N2C N 0.2424(2) 0.8116(4) 0.1996(6)
N2B N -0.2424(2) 0.8116(4) -0.6996(6)
C1A C -0.2909(3) 0.4844(4) -0.9261(8)
H1A H -0.3237 0.5267 -1.0117
C2A C -0.3038(3) 0.3751(5) -0.9159(9)
H2A H -0.3463 0.3462 -0.9931
C3A C -0.1943(3) 0.3518(4) -0.6941(7)
C4A C -0.1819(2) 0.4630(4) -0.6986(7)
C5A C -0.1155(3) 0.5158(4) -0.5681(7)
C6A C -0.1410(3) 0.2721(4) -0.5820(7)
loop_
_geom_bond_atom_site_label_1
_geom_bond_atom_site_label_2
_geom_bond_site_symmetry_1
_geom_bond_site_symmetry_2
Cu1 O1 1_555 1_555
Cu2 O1 1_555 1_555
Cu3 O2 1_555 1_555
O1 C5 1_555 1_555
O2 C5 1_555 1_555
O3 C6 1_555 1_555
O4 C6 1_555 1_555
N1 Cu1 1_555 1_555
N2 C2 1_555 1_555
C1 N1 1_555 1_555
H1 C1 1_555 1_555
C2 C1 1_555 1_555
H2 C2 1_555 1_555
C3 N2 1_555 1_555
C4 N1 1_555 1_555
C5 C4 1_555 1_555
C6 C3 1_555 1_555
Cu1A O1A 1_555 1_555
Cu1E O3 1_555 1_555
Cu1C N2 1_555 1_555
Cu1D O3A 1_555 1_555
Cu1B N2A 1_555 1_555
Cu2D O4 1_555 1_555
Cu2D_2 O4A 1_555 1_555
O1A Cu2 1_555 1_555
O2A Cu3 1_555 1_555
O3A C6A 1_555 1_555
O3E Cu1 1_555 1_555
O3D Cu1A 1_555 1_555
O4A C6A 1_555 1_555
O4D Cu2 1_555 1_555
O4E Cu2 1_555 1_555
N1A Cu1A 1_555 1_555
N2A C2A 1_555 1_555
N2C Cu1 1_555 1_555
N2B Cu1A 1_555 1_555
C1A N1A 1_555 1_555
H1A C1A 1_555 1_555
C2A C1A 1_555 1_555
H2A C2A 1_555 1_555
C3A N2A 1_555 1_555
C4A N1A 1_555 1_555
C5A O1A 1_555 1_555
C6A C3A 1_555 1_555
C3 C4 1_555 1_555
O2A C5A 1_555 1_555
C3A C4A 1_555 1_555
C4A C5A 1_555 1_555

#END
