
#######################################################################
#
#                 Cambridge Crystallographic Data Centre
#                                CCDC 
#
#######################################################################
#
# If this CIF has been generated from an entry in the Cambridge 
# Structural Database, then it will include bibliographic, chemical, 
# crystal, experimental, refinement or atomic coordinate data resulting 
# from the CCDC's data processing and validation procedures.
#
#######################################################################

data_PASFUM
_symmetry_cell_setting           triclinic
_symmetry_space_group_name_H-M   'P -1'
_symmetry_Int_Tables_number      2
_space_group_name_Hall           '-P 1'
loop_
_symmetry_equiv_pos_site_id
_symmetry_equiv_pos_as_xyz
1 x,y,z
2 -x,-y,-z
_cell_length_a                   9.2237(18)
_cell_length_b                   11.182(2)
_cell_length_c                   19.434(5)
_cell_angle_alpha                99.623(18)
_cell_angle_beta                 94.382(19)
_cell_angle_gamma                114.218(12)
_cell_volume                     1778.7
loop_
_atom_site_label
_atom_site_type_symbol
_atom_site_fract_x
_atom_site_fract_y
_atom_site_fract_z
C1 C 0.0697(6) 0.8375(5) 0.5211(3)
H1 H -0.0400 0.8205 0.5212
C2 C 0.1711(6) 0.9481(5) 0.5000(3)
H2 H 0.1315 1.0080 0.4860
C3 C 0.5544(5) 0.9139(4) 0.5237(2)
C4 C 0.3919(5) 0.8852(4) 0.5231(2)
C5 C 0.2819(6) 0.7719(5) 0.5441(2)
H3 H 0.3182 0.7112 0.5596
C6 C 0.1260(6) 0.7480(5) 0.5427(3)
H4 H 0.0536 0.6702 0.5564
C7 C 0.6040(6) 0.7072(5) 0.5201(2)
H5 H 0.5643 0.6631 0.4718
C8 C 0.6632(5) 0.6625(4) 0.5711(2)
H6 H 0.6713 0.5795 0.5641
C9 C 0.6784(5) 0.8530(4) 0.6211(2)
H7 H 0.6989 0.9318 0.6553
C10 C 0.4878(5) 0.7764(5) 0.7567(2)
H8 H 0.4339 0.7265 0.7105
C11 C 0.4186(5) 0.8221(5) 0.8073(2)
H9 H 0.3107 0.8120 0.8033
C12 C 0.6691(5) 0.8760(5) 0.8464(2)
H10 H 0.7688 0.9122 0.8775
C13 C 0.5666(7) 1.2769(5) 0.9068(3)
H11 H 0.5885 1.3282 0.8714
C14 C 0.5543(6) 1.1502(5) 0.8926(3)
H12 H 0.5652 1.1122 0.8469
C15 C 0.5253(5) 1.0739(5) 0.9455(2)
C16 C 0.5185(5) 0.9440(5) 0.9342(2)
C17 C 0.4946(5) 0.8692(5) 0.9862(2)
C18 C 0.4833(6) 0.7356(5) 0.9744(3)
H13 H 0.4972 0.6958 0.9297
C19 C 0.4531(6) 0.6663(5) 1.0256(3)
H14 H 0.4447 0.5774 1.0165
C20 C 1.0486(5) 0.8651(5) 0.8784(2)
H15 H 1.0967 0.9552 0.8727
C21 C 1.0939(5) 0.8219(5) 0.9329(2)
H16 H 1.1773 0.8738 0.9720
C22 C 0.8938(5) 0.6555(4) 0.8591(2)
H17 H 0.8125 0.5679 0.8385
C23 C 1.1835(7) 0.4124(6) 0.8473(3)
H18 H 1.2280 0.4152 0.8048
C24 C 1.1222(6) 0.5006(5) 0.8696(2)
H19 H 1.1226 0.5635 0.8422
C25 C 1.0571(6) 0.5000(5) 0.9338(2)
C26 C 0.9975(6) 0.5918(5) 0.9611(2)
C27 C 0.9409(6) 0.5955(5) 1.0257(2)
C28 C 0.8769(6) 0.6869(5) 1.0523(3)
H20 H 0.8761 0.7515 1.0263
C29 C 0.8176(7) 0.6841(6) 1.1135(3)
H21 H 0.7765 0.7467 1.1304
C30 C 0.0297(6) 0.3720(5) 0.6453(3)
C31 C 0.4024(5) 0.3242(4) 0.6896(2)
C32 C 0.3415(5) 0.1999(4) 0.7063(2)
H22 H 0.4123 0.1632 0.7206
C33 C 0.1765(5) 0.1282(4) 0.7021(2)
C34 C 0.0752(5) 0.1825(4) 0.6798(2)
H23 H -0.0379 0.1338 0.6767
C35 C 0.1372(5) 0.3075(4) 0.6620(2)
C36 C 0.3026(5) 0.3799(4) 0.6672(2)
H24 H 0.3464 0.4657 0.6556
C37 C 0.1111(5) -0.0059(4) 0.7229(2)
C38 C 0.3364(5) 0.9757(4) 0.4987(2)
N1 N 0.6134(4) 0.8285(3) 0.55264(17)
N2 N 0.7097(4) 0.7540(3) 0.63411(17)
N3 N 0.9223(4) 0.7608(3) 0.83160(18)
N4 N 0.9947(4) 0.6875(4) 0.92043(18)
N5 N 0.6471(4) 0.8123(3) 0.78144(17)
N6 N 0.5361(4) 0.8857(4) 0.86533(17)
Ni1 Ni 0.81121(6) 0.75645(5) 0.73304(3)
O1 O 0.0779(4) 0.4862(4) 0.6392(2)
O2 O -0.1244(4) 0.2912(3) 0.63852(17)
O3 O 0.6404(3) 0.5575(3) 0.72522(15)
O4 O 0.6841(3) 0.3700(3) 0.75273(15)
O5 O -0.0337(3) -0.0475(3) 0.73700(15)
O6 O 0.1976(4) -0.0638(3) 0.72558(19)
O7 O 0.6618(3) 0.3957(3) 0.63136(14)
H25 H 0.9648 0.6016 0.6677
O9 O 0.9712(4) 0.6881(3) 0.69084(19)
H28 H 1.0597 0.7539 0.6922
S1 S 0.61544(13) 0.41842(11) 0.70055(6)
H29 H -0.2050 0.3349 0.6407
C1A C 0.9303(6) 1.1625(5) 0.4789(3)
H1A H 1.0400 1.1795 0.4788
C2A C 0.8289(6) 1.0519(5) 0.5000(3)
H2A H 0.8685 0.9920 0.5140
C3A C 0.4456(5) 1.0861(4) 0.4763(2)
C4A C 0.6081(5) 1.1148(4) 0.4769(2)
C5A C 0.7181(6) 1.2281(5) 0.4559(2)
H3A H 0.6818 1.2888 0.4404
C6A C 0.8740(6) 1.2520(5) 0.4573(3)
H4A H 0.9464 1.3298 0.4436
C7A C 0.3960(6) 1.2928(5) 0.4799(2)
H5A H 0.4357 1.3369 0.5282
C8A C 0.3368(5) 1.3375(4) 0.4289(2)
H6A H 0.3287 1.4205 0.4359
C9A C 0.3216(5) 1.1470(4) 0.3789(2)
H7A H 0.3011 1.0682 0.3447
C10A C 0.5122(5) 1.2236(5) 1.2433(2)
H8A H 0.5661 1.2735 1.2895
C11A C 0.5814(5) 1.1779(5) 1.1927(2)
H9A H 0.6893 1.1880 1.1967
C12A C 0.3309(5) 1.1240(5) 1.1536(2)
H10A H 0.2312 1.0878 1.1225
C13A C 0.4334(7) 0.7231(5) 1.0932(3)
H11A H 0.4115 0.6718 1.1286
C14A C 0.4457(6) 0.8498(5) 1.1074(3)
H12A H 0.4348 0.8878 1.1531
C15A C 0.4747(5) 0.9261(5) 1.0545(2)
C16A C 0.4815(5) 1.0560(5) 1.0658(2)
C17A C 0.5054(5) 1.1308(5) 1.0138(2)
C18A C 0.5167(6) 1.2644(5) 1.0256(3)
H13A H 0.5028 1.3042 1.0703
C19A C 0.5469(6) 1.3337(5) 0.9744(3)
H14A H 0.5553 1.4226 0.9835
C20A C 0.9514(5) 0.1349(5) 1.1216(2)
H15A H 0.9033 0.0448 1.1273
C21A C 0.9061(5) 0.1781(5) 1.0671(2)
H16A H 0.8227 0.1262 1.0280
C22A C 1.1062(5) 0.3445(4) 1.1409(2)
H17A H 1.1875 0.4321 1.1615
C23A C 0.8165(7) 0.5876(6) 1.1527(3)
H18A H 0.7720 0.5848 1.1952
C24A C 0.8778(6) 0.4994(5) 1.1304(2)
H19A H 0.8774 0.4365 1.1578
C25A C 0.9429(6) 0.5000(5) 1.0662(2)
C26A C 1.0025(6) 0.4082(5) 1.0389(2)
C27A C 1.0591(6) 0.4045(5) 0.9743(2)
C28A C 1.1231(6) 0.3131(5) 0.9477(3)
H20A H 1.1239 0.2485 0.9737
C29A C 1.1824(7) 0.3159(6) 0.8865(3)
H21A H 1.2235 0.2533 0.8696
C30A C 0.9703(6) 1.6280(5) 0.3547(3)
C31A C 0.5976(5) 1.6758(4) 0.3104(2)
C32A C 0.6585(5) 1.8001(4) 0.2937(2)
H22A H 0.5877 1.8368 0.2794
C33A C 0.8235(5) 1.8718(4) 0.2979(2)
C34A C 0.9248(5) 1.8175(4) 0.3202(2)
H23A H 1.0379 1.8662 0.3233
C35A C 0.8628(5) 1.6925(4) 0.3380(2)
C36A C 0.6974(5) 1.6201(4) 0.3328(2)
H24A H 0.6536 1.5343 0.3444
C37A C 0.8889(5) 2.0059(4) 0.2771(2)
C38A C 0.6636(5) 1.0243(4) 0.5013(2)
N1A N 0.3866(4) 1.1715(3) 0.44736(17)
N2A N 0.2903(4) 1.2460(3) 0.36589(17)
N3A N 1.0777(4) 0.2392(3) 1.16840(18)
N3A_2 N 0.0777(4) 1.2392(3) 0.16840(18)
N4A N 1.0053(4) 0.3125(4) 1.07957(18)
N5A N 0.3529(4) 1.1877(3) 1.21856(17)
N5A_2 N 0.3529(4) 1.1877(3) 0.21856(17)
N6A N 0.4639(4) 1.1143(4) 1.13467(17)
Ni1A Ni 0.18879(6) 1.24355(5) 0.26696(3)
Ni1_2 Ni -0.18879(6) -0.24355(5) 0.73304(3)
Ni1A_2 Ni 0.18879(6) 1.24355(5) 1.26696(3)
Ni1A_3 Ni 1.18879(6) 0.24355(5) 1.26696(3)
Ni1A_4 Ni 1.18879(6) 2.24355(5) 0.26696(3)
O1A O 0.9221(4) 1.5138(4) 0.3608(2)
O2A O 1.1244(4) 1.7088(3) 0.36148(17)
O3A O 0.3596(3) 1.4425(3) 0.27478(15)
O4A O 0.3159(3) 1.6300(3) 0.24727(15)
O5A O 1.0337(3) 2.0475(3) 0.26300(15)
O5_2 O 0.9663(3) 0.9525(3) 0.73700(15)
O5A_2 O 0.0337(3) 1.0475(3) 0.26300(15)
O6A O 0.8024(4) 2.0638(3) 0.27442(19)
O7A O 0.3382(3) 1.6043(3) 0.36864(14)
H25A H 0.0352 1.3984 0.3323
O9A O 0.0288(4) 1.3119(3) 0.30916(19)
H28A H -0.0597 1.2461 0.3078
S1A S 0.38456(13) 1.58158(11) 0.29945(6)
H29A H 1.2050 1.6651 0.3593
O8 O 0.7385(11) 1.1149(7) 0.7590(5)
H26 H 0.7843 1.1884 0.7866
H27 H 0.7402 1.1574 0.7329
loop_
_geom_bond_atom_site_label_1
_geom_bond_atom_site_label_2
_geom_bond_site_symmetry_1
_geom_bond_site_symmetry_2
C1 H1 1_555 1_555
C2 C1 1_555 1_555
H2 C2 1_555 1_555
C3 C4 1_555 1_555
C4 C5 1_555 1_555
C5 H3 1_555 1_555
C6 C1 1_555 1_555
H4 C6 1_555 1_555
C7 H5 1_555 1_555
C8 C7 1_555 1_555
H6 C8 1_555 1_555
C9 H7 1_555 1_555
C10 H8 1_555 1_555
C11 C10 1_555 1_555
H9 C11 1_555 1_555
C12 H10 1_555 1_555
C13 H11 1_555 1_555
C14 C13 1_555 1_555
H12 C14 1_555 1_555
C15 C14 1_555 1_555
C16 C15 1_555 1_555
C17 C16 1_555 1_555
C18 C17 1_555 1_555
H13 C18 1_555 1_555
C19 C18 1_555 1_555
H14 C19 1_555 1_555
C20 H15 1_555 1_555
C21 C20 1_555 1_555
H16 C21 1_555 1_555
C22 H17 1_555 1_555
C23 H18 1_555 1_555
C24 C23 1_555 1_555
H19 C24 1_555 1_555
C25 C24 1_555 1_555
C26 C25 1_555 1_555
C27 C26 1_555 1_555
C28 C27 1_555 1_555
H20 C28 1_555 1_555
C29 C28 1_555 1_555
H21 C29 1_555 1_555
C30 C35 1_555 1_555
C31 C32 1_555 1_555
C32 H22 1_555 1_555
C33 C32 1_555 1_555
C34 C33 1_555 1_555
H23 C34 1_555 1_555
C35 C34 1_555 1_555
C36 C31 1_555 1_555
H24 C36 1_555 1_555
C37 C33 1_555 1_555
C38 C2 1_555 1_555
N1 C3 1_555 1_555
N2 C8 1_555 1_555
N3 C20 1_555 1_555
N4 C21 1_555 1_555
N5 C10 1_555 1_555
N6 C11 1_555 1_555
Ni1 N2 1_555 1_555
O1 C30 1_555 1_555
O2 C30 1_555 1_555
O3 Ni1 1_555 1_555
O4 S1 1_555 1_555
O5 C37 1_555 1_555
O6 C37 1_555 1_555
O7 S1 1_555 1_555
H25 O9 1_555 1_555
O8 H26 1_555 1_555
H27 O8 1_555 1_555
O9 Ni1 1_555 1_555
H28 O9 1_555 1_555
S1 C31 1_555 1_555
H29 O2 1_555 1_555
C1A H1A 1_555 1_555
C2A C1A 1_555 1_555
H2A C2A 1_555 1_555
C3A C38 1_555 1_555
C4A C3A 1_555 1_555
C5A C4A 1_555 1_555
H3A C5A 1_555 1_555
C6A C1A 1_555 1_555
H4A C6A 1_555 1_555
C7A H5A 1_555 1_555
C8A C7A 1_555 1_555
H6A C8A 1_555 1_555
C9A H7A 1_555 1_555
C10A H8A 1_555 1_555
C11A C10A 1_555 1_555
H9A C11A 1_555 1_555
C12A H10A 1_555 1_555
C13A C19 1_555 1_555
H11A C13A 1_555 1_555
C14A C13A 1_555 1_555
H12A C14A 1_555 1_555
C15A C17 1_555 1_555
C16A C15A 1_555 1_555
C17A C15 1_555 1_555
C18A C17A 1_555 1_555
H13A C18A 1_555 1_555
C19A C13 1_555 1_555
H14A C19A 1_555 1_555
C20A H15A 1_555 1_555
C21A C20A 1_555 1_555
H16A C21A 1_555 1_555
C22A H17A 1_555 1_555
C23A C29 1_555 1_555
H18A C23A 1_555 1_555
C24A C23A 1_555 1_555
H19A C24A 1_555 1_555
C25A C27 1_555 1_555
C26A C25A 1_555 1_555
C27A C25 1_555 1_555
C28A C27A 1_555 1_555
H20A C28A 1_555 1_555
C29A C23 1_555 1_555
H21A C29A 1_555 1_555
C30A C35A 1_555 1_555
C31A C32A 1_555 1_555
C32A H22A 1_555 1_555
C33A C32A 1_555 1_555
C34A C33A 1_555 1_555
H23A C34A 1_555 1_555
C35A C34A 1_555 1_555
C36A C31A 1_555 1_555
H24A C36A 1_555 1_555
C37A C33A 1_555 1_555
C38A C3 1_555 1_555
N1A C3A 1_555 1_555
N2A C8A 1_555 1_555
N3A C20A 1_555 1_555
N3A_2 Ni1A 1_555 1_555
N4A C21A 1_555 1_555
N5A C10A 1_555 1_555
N5A_2 Ni1A 1_555 1_555
N6A C11A 1_555 1_555
Ni1A N2A 1_555 1_555
Ni1_2 O5 1_555 1_555
Ni1A_2 N5A 1_555 1_555
Ni1A_3 N3A 1_555 1_555
Ni1A_4 O5A 1_555 1_555
O1A C30A 1_555 1_555
O2A C30A 1_555 1_555
O3A Ni1A 1_555 1_555
O4A S1A 1_555 1_555
O5A C37A 1_555 1_555
O5_2 Ni1 1_555 1_555
O5A_2 Ni1A 1_555 1_555
O6A C37A 1_555 1_555
O7A S1A 1_555 1_555
H25A O9A 1_555 1_555
O9A Ni1A 1_555 1_555
H28A O9A 1_555 1_555
S1A C31A 1_555 1_555
H29A O2A 1_555 1_555
C4 C38 1_555 1_555
C5 C6 1_555 1_555
C7 N1 1_555 1_555
C9 N1 1_555 1_555
C9 N2 1_555 1_555
C12 N5 1_555 1_555
C12 N6 1_555 1_555
C16 N6 1_555 1_555
C22 N3 1_555 1_555
C22 N4 1_555 1_555
C26 N4 1_555 1_555
C35 C36 1_555 1_555
N3 Ni1 1_555 1_555
N5 Ni1 1_555 1_555
O3 S1 1_555 1_555
C2A C38A 1_555 1_555
C4A C38A 1_555 1_555
C5A C6A 1_555 1_555
C7A N1A 1_555 1_555
C9A N1A 1_555 1_555
C9A N2A 1_555 1_555
C12A N5A 1_555 1_555
C12A N6A 1_555 1_555
C14A C15A 1_555 1_555
C16A C17A 1_555 1_555
C16A N6A 1_555 1_555
C18A C19A 1_555 1_555
C22A N3A 1_555 1_555
C22A N4A 1_555 1_555
C24A C25A 1_555 1_555
C26A C27A 1_555 1_555
C26A N4A 1_555 1_555
C28A C29A 1_555 1_555
C35A C36A 1_555 1_555
O3A S1A 1_555 1_555

#END
