
#######################################################################
#
#                 Cambridge Crystallographic Data Centre
#                                CCDC 
#
#######################################################################
#
# If this CIF has been generated from an entry in the Cambridge 
# Structural Database, then it will include bibliographic, chemical, 
# crystal, experimental, refinement or atomic coordinate data resulting 
# from the CCDC's data processing and validation procedures.
#
#######################################################################

data_PASGIB01
_symmetry_cell_setting           trigonal
_symmetry_space_group_name_H-M   'P 32 2 1'
_symmetry_Int_Tables_number      154
_space_group_name_Hall           'P 32 2"'
loop_
_symmetry_equiv_pos_site_id
_symmetry_equiv_pos_as_xyz
1 x,y,z
2 -y,x-y,2/3+z
3 -x+y,-x,1/3+z
4 x-y,-y,1/3-z
5 -x,-x+y,2/3-z
6 y,x,-z
_cell_length_a                   11.9175(6)
_cell_length_b                   11.9175(6)
_cell_length_c                   8.3253(13)
_cell_angle_alpha                90
_cell_angle_beta                 90
_cell_angle_gamma                120
_cell_volume                     1024
loop_
_atom_site_label
_atom_site_type_symbol
_atom_site_fract_x
_atom_site_fract_y
_atom_site_fract_z
Zn1 Zn 0.0000 0.28791(3) 0.3333
O1 O -0.08498(19) 0.12867(13) 0.48915(17)
N1 N -0.06437(18) 0.39613(17) 0.4742(2)
O2 O -0.2045(2) 0.62253(19) 0.86305(18)
C1 C -0.1487(3) 0.4463(3) 0.7068(3)
H1 H -0.1892 0.4209 0.8063
C2 C -0.1208(3) 0.3644(2) 0.6195(3)
H2 H -0.1418 0.2844 0.6632
C3 C -0.03247(19) 0.51252(18) 0.4135(2)
O3 O -0.10327(17) 0.77058(15) 0.66991(19)
C4 C -0.1157(2) 0.5663(2) 0.6442(3)
C5 C -0.0578(2) 0.5991(2) 0.4957(2)
H3 H -0.0356 0.6789 0.4503
C6 C -0.1436(2) 0.6615(2) 0.7341(3)
H4 H -0.0101 0.1364 0.4850
H5 H -0.1315 0.0651 0.4301
Zn1A Zn -0.28791(3) 0.71209(3) 1.0000
Zn1B Zn 0.28791(3) 1.0000 -0.3334
O1D O 0.08498(19) 0.21365(23) 0.17752(17)
N1D N 0.06437(18) 0.46050(25) 0.1925(2)
O2D O 0.2045(2) 0.82703(28) -0.19638(18)
O2B O -0.17297(28) 0.2045(2) 0.19638(18)
O2C O 0.17297(28) 0.37747(19) 0.47028(18)
C1D C 0.1487(3) 0.5950(4) -0.0401(3)
H1D H 0.1892 0.6101 -0.1396
C2D C 0.1208(3) 0.4852(4) 0.0472(3)
H2D H 0.1418 0.4262 0.0035
C3D C 0.03247(19) 0.54499(26) 0.2532(2)
O3D O 0.10327(17) 0.87385(23) -0.00324(19)
C4D C 0.1157(2) 0.6820(3) 0.0225(3)
C5D C 0.0578(2) 0.6569(3) 0.1710(2)
H3D H 0.0356 0.7145 0.2164
C6D C 0.1436(2) 0.8051(3) -0.0674(3)
H4D H 0.0101 0.1465 0.1817
H5D H 0.1315 0.1966 0.2366
loop_
_geom_bond_atom_site_label_1
_geom_bond_atom_site_label_2
_geom_bond_site_symmetry_1
_geom_bond_site_symmetry_2
Zn1 O1 1_555 1_555
O1 H4 1_555 1_555
N1 Zn1 1_555 1_555
O2 C6 1_555 1_555
C1 H1 1_555 1_555
C2 N1 1_555 1_555
H2 C2 1_555 1_555
C3 N1 1_555 1_555
O3 C6 1_555 1_555
C4 C1 1_555 1_555
C5 C3 1_555 1_555
H3 C5 1_555 1_555
C6 C4 1_555 1_555
H5 O1 1_555 1_555
Zn1A O2 1_555 1_555
Zn1B O2D 1_555 1_555
O1D Zn1 1_555 1_555
N1D Zn1 1_555 1_555
O2D C6D 1_555 1_555
O2B Zn1 1_555 1_555
O2C Zn1 1_555 1_555
C1D H1D 1_555 1_555
C2D N1D 1_555 1_555
H2D C2D 1_555 1_555
C3D C3 1_555 1_555
O3D C6D 1_555 1_555
C4D C1D 1_555 1_555
C5D C3D 1_555 1_555
H3D C5D 1_555 1_555
C6D C4D 1_555 1_555
H4D O1D 1_555 1_555
H5D O1D 1_555 1_555
C1 C2 1_555 1_555
C4 C5 1_555 1_555
N1D C3D 1_555 1_555
C1D C2D 1_555 1_555
C4D C5D 1_555 1_555

#END
