
#######################################################################
#
#                 Cambridge Crystallographic Data Centre
#                                CCDC 
#
#######################################################################
#
# If this CIF has been generated from an entry in the Cambridge 
# Structural Database, then it will include bibliographic, chemical, 
# crystal, experimental, refinement or atomic coordinate data resulting 
# from the CCDC's data processing and validation procedures.
#
#######################################################################

data_PASGIB02
_symmetry_cell_setting           trigonal
_symmetry_space_group_name_H-M   'P 32 2 1'
_symmetry_Int_Tables_number      154
_space_group_name_Hall           'P 32 2"'
loop_
_symmetry_equiv_pos_site_id
_symmetry_equiv_pos_as_xyz
1 x,y,z
2 -y,x-y,2/3+z
3 -x+y,-x,1/3+z
4 x-y,-y,1/3-z
5 -x,-x+y,2/3-z
6 y,x,-z
_cell_length_a                   11.9166(4)
_cell_length_b                   11.9166(4)
_cell_length_c                   8.3263(4)
_cell_angle_alpha                90
_cell_angle_beta                 90
_cell_angle_gamma                120
_cell_volume                     1023.97
loop_
_atom_site_label
_atom_site_type_symbol
_atom_site_fract_x
_atom_site_fract_y
_atom_site_fract_z
Zn1 Zn 0.28795(3) 0.0000 0.1667
O1 O 0.12899(14) -0.0848(2) 0.01195(18)
N1 N 0.39654(18) -0.06395(19) 0.0262(2)
O2 O 0.6226(2) -0.2041(2) -0.36278(19)
C1 C 0.4465(3) -0.1490(3) -0.2066(3)
H1 H 0.4207 -0.1901 -0.3057
C2 C 0.3644(2) -0.1203(3) -0.1194(3)
H2 H 0.2847 -0.1408 -0.1632
C3 C 0.6614(2) -0.1431(2) -0.2329(3)
C4 C 0.5991(2) -0.0577(2) 0.0048(3)
H3 H 0.6787 -0.0356 0.0505
C5 C 0.5126(2) -0.0322(2) 0.0866(3)
O3 O 0.77043(16) -0.10352(19) -0.1696(2)
C6 C 0.5667(2) -0.1159(2) -0.1444(3)
H4 H 0.0522 -0.1279 0.0492
H5 H 0.1282 -0.0186 -0.0340
Zn1A Zn 1.0000 0.28795(3) 0.8334
Zn1B Zn 0.71205(3) -0.28795(3) -0.5000
O1C O 0.21379(24) 0.0848(2) 0.32138(18)
N1C N 0.46049(26) 0.06395(19) 0.3071(2)
O2C O 0.8267(3) 0.2041(2) 0.69611(19)
O2A O 0.2041(2) -0.1733(3) 0.30389(19)
O2D O 0.3774(2) 0.1733(3) 0.02945(19)
C1C C 0.5955(4) 0.1490(3) 0.5399(3)
H1C H 0.6108 0.1901 0.6390
C2C C 0.4847(4) 0.1203(3) 0.4527(3)
H2C H 0.4255 0.1408 0.4965
C3C C 0.8045(3) 0.1431(2) 0.5662(3)
C4C C 0.6568(3) 0.0577(2) 0.3285(3)
H3C H 0.7143 0.0356 0.2828
C5C C 0.5448(3) 0.0322(2) 0.2467(3)
O3C O 0.87395(25) 0.10352(19) 0.5029(2)
C6C C 0.6826(3) 0.1159(2) 0.4777(3)
H4C H 0.1801 0.1279 0.2841
H5C H 0.1468 0.0186 0.3673
loop_
_geom_bond_atom_site_label_1
_geom_bond_atom_site_label_2
_geom_bond_site_symmetry_1
_geom_bond_site_symmetry_2
Zn1 O1 1_555 1_555
O1 H4 1_555 1_555
N1 Zn1 1_555 1_555
O2 C3 1_555 1_555
C1 H1 1_555 1_555
C2 N1 1_555 1_555
H2 C2 1_555 1_555
C3 O3 1_555 1_555
C4 H3 1_555 1_555
C5 N1 1_555 1_555
C6 C1 1_555 1_555
H5 O1 1_555 1_555
Zn1A O2C 1_555 1_555
Zn1B O2 1_555 1_555
O1C Zn1 1_555 1_555
N1C Zn1 1_555 1_555
O2C C3C 1_555 1_555
O2A Zn1 1_555 1_555
O2D Zn1 1_555 1_555
C1C H1C 1_555 1_555
C2C N1C 1_555 1_555
H2C C2C 1_555 1_555
C3C O3C 1_555 1_555
C4C H3C 1_555 1_555
C5C C5 1_555 1_555
C6C C1C 1_555 1_555
H4C O1C 1_555 1_555
H5C O1C 1_555 1_555
C1 C2 1_555 1_555
C3 C6 1_555 1_555
C4 C5 1_555 1_555
C4 C6 1_555 1_555
N1C C5C 1_555 1_555
C1C C2C 1_555 1_555
C3C C6C 1_555 1_555
C4C C5C 1_555 1_555
C4C C6C 1_555 1_555

#END
