
#######################################################################
#
#                 Cambridge Crystallographic Data Centre
#                                CCDC 
#
#######################################################################
#
# If this CIF has been generated from an entry in the Cambridge 
# Structural Database, then it will include bibliographic, chemical, 
# crystal, experimental, refinement or atomic coordinate data resulting 
# from the CCDC's data processing and validation procedures.
#
#######################################################################

data_PASGIB
_symmetry_cell_setting           trigonal
_symmetry_space_group_name_H-M   'P 32 2 1'
_symmetry_Int_Tables_number      154
_space_group_name_Hall           'P 32 2"'
loop_
_symmetry_equiv_pos_site_id
_symmetry_equiv_pos_as_xyz
1 x,y,z
2 -y,x-y,2/3+z
3 -x+y,-x,1/3+z
4 x-y,-y,1/3-z
5 -x,-x+y,2/3-z
6 y,x,-z
_cell_length_a                   11.9058(7)
_cell_length_b                   11.9058(7)
_cell_length_c                   8.3177(11)
_cell_angle_alpha                90
_cell_angle_beta                 90
_cell_angle_gamma                120
_cell_volume                     1021.06
loop_
_atom_site_label
_atom_site_type_symbol
_atom_site_fract_x
_atom_site_fract_y
_atom_site_fract_z
Zn1 Zn 0.28792(4) 0.0000 0.1667
O1 O 0.1286(2) -0.0832(3) 0.0134(2)
H1 H 0.1306 -0.1265 -0.0743
H2 H 0.0580 -0.0766 0.0342
N1 N 0.3962(3) -0.0638(3) 0.0255(3)
O2 O 0.6226(3) -0.2042(3) -0.3628(3)
C1 C 0.4469(4) -0.1485(4) -0.2070(4)
H3 H 0.4211 -0.1895 -0.3063
C2 C 0.3652(4) -0.1198(4) -0.1197(4)
H4 H 0.2855 -0.1403 -0.1639
C3 C 0.5132(3) -0.0320(3) 0.0868(4)
O3 O 0.7706(2) -0.1037(3) -0.1698(3)
C4 C 0.5665(4) -0.1156(4) -0.1448(4)
C5 C 0.5995(3) -0.0566(4) 0.0036(4)
H5 H 0.6799 -0.0332 0.0481
C6 C 0.6619(3) -0.1434(3) -0.2335(4)
Zn1A Zn 1.0000 0.28792(4) 0.8334
Zn1B Zn 0.71208(4) -0.28792(4) -0.5000
O1C O 0.2118(4) 0.0832(3) 0.3199(2)
H1C H 0.2571 0.1265 0.4076
H2C H 0.1346 0.0766 0.2991
N1C N 0.4600(4) 0.0638(3) 0.3078(3)
O2C O 0.8268(4) 0.2042(3) 0.6961(3)
O2A O 0.2042(3) -0.1732(4) 0.3039(3)
O2D O 0.3774(3) 0.1732(4) 0.0295(3)
C1C C 0.5954(6) 0.1485(4) 0.5403(4)
H3C H 0.6106 0.1895 0.6396
C2C C 0.4850(6) 0.1198(4) 0.4530(4)
H4C H 0.4258 0.1403 0.4972
C3C C 0.5452(4) 0.0320(3) 0.2465(4)
O3C O 0.8743(4) 0.1037(3) 0.5031(3)
C4C C 0.6821(6) 0.1156(4) 0.4781(4)
C5C C 0.6561(5) 0.0566(4) 0.3297(4)
H5C H 0.7131 0.0332 0.2852
C6C C 0.8053(4) 0.1434(3) 0.5668(4)
loop_
_geom_bond_atom_site_label_1
_geom_bond_atom_site_label_2
_geom_bond_site_symmetry_1
_geom_bond_site_symmetry_2
Zn1 O1 1_555 1_555
O1 H1 1_555 1_555
H2 O1 1_555 1_555
N1 Zn1 1_555 1_555
O2 C6 1_555 1_555
C1 H3 1_555 1_555
C2 N1 1_555 1_555
H4 C2 1_555 1_555
C3 N1 1_555 1_555
O3 C6 1_555 1_555
C4 C1 1_555 1_555
C5 C3 1_555 1_555
H5 C5 1_555 1_555
C6 C4 1_555 1_555
Zn1A O2C 1_555 1_555
Zn1B O2 1_555 1_555
O1C Zn1 1_555 1_555
H1C O1C 1_555 1_555
H2C O1C 1_555 1_555
N1C Zn1 1_555 1_555
O2C C6C 1_555 1_555
O2A Zn1 1_555 1_555
O2D Zn1 1_555 1_555
C1C H3C 1_555 1_555
C2C N1C 1_555 1_555
H4C C2C 1_555 1_555
C3C C3 1_555 1_555
O3C C6C 1_555 1_555
C4C C1C 1_555 1_555
C5C C3C 1_555 1_555
H5C C5C 1_555 1_555
C6C C4C 1_555 1_555
C1 C2 1_555 1_555
C4 C5 1_555 1_555
N1C C3C 1_555 1_555
C1C C2C 1_555 1_555
C4C C5C 1_555 1_555

#END
