
#######################################################################
#
#                 Cambridge Crystallographic Data Centre
#                                CCDC 
#
#######################################################################
#
# If this CIF has been generated from an entry in the Cambridge 
# Structural Database, then it will include bibliographic, chemical, 
# crystal, experimental, refinement or atomic coordinate data resulting 
# from the CCDC's data processing and validation procedures.
#
#######################################################################

data_PASGIA
_symmetry_cell_setting           monoclinic
_symmetry_space_group_name_H-M   'P 21/n'
_symmetry_Int_Tables_number      14
_space_group_name_Hall           '-P 2yn'
loop_
_symmetry_equiv_pos_site_id
_symmetry_equiv_pos_as_xyz
1 x,y,z
2 1/2-x,1/2+y,1/2-z
3 -x,-y,-z
4 1/2+x,1/2-y,1/2+z
_cell_length_a                   5.3361(5)
_cell_length_b                   22.343(2)
_cell_length_c                   8.9611(10)
_cell_angle_alpha                90
_cell_angle_beta                 99.768(5)
_cell_angle_gamma                90
_cell_volume                     1052.89
loop_
_atom_site_label
_atom_site_type_symbol
_atom_site_fract_x
_atom_site_fract_y
_atom_site_fract_z
Cu1 Cu 0.85404(4) 0.213125(10) 0.61174(3)
O1 O 0.6600(3) 0.25152(7) 0.43106(18)
O2 O 0.5734(3) 0.32901(6) 0.27507(17)
O3 O 1.1323(3) 0.26921(7) 0.59670(18)
O4 O 1.2713(3) 0.36227(8) 0.6069(3)
O5 O 0.6240(3) 0.25813(8) 0.75932(19)
N1 N 0.6220(3) 0.13957(8) 0.5783(2)
N2 N 0.0965(4) -0.00235(9) 0.5477(2)
C1 C 0.6795(4) 0.30610(11) 0.3990(2)
C2 C 0.8314(4) 0.34841(9) 0.5122(2)
H1 H 0.7393 0.3547 0.5953
H2 H 0.8447 0.3868 0.4634
C3 C 1.0990(4) 0.32619(9) 0.5763(2)
C4 C 0.6329(4) 0.09683(10) 0.6841(3)
H3 H 0.7619 0.0987 0.7679
C5 C 0.4608(5) 0.05015(11) 0.6741(3)
H4 H 0.4758 0.0209 0.7489
C6 C 0.2666(4) 0.04766(10) 0.5512(3)
C7 C 0.2529(5) 0.09104(11) 0.4396(3)
H5 H 0.1249 0.0900 0.3551
C8 C 0.4344(5) 0.13588(10) 0.4569(3)
H6 H 0.4268 0.1648 0.3816
H7 H 0.481(3) 0.266(2) 0.723(4)
H8 H 0.629(5) 0.2555(14) 0.8496(12)
Cu1C Cu 1.35404(4) 0.286875(10) 1.11174(3)
Cu1C_2 Cu 0.35404(4) 0.286875(10) 0.11174(3)
Cu1B Cu -0.85404(4) -0.213125(10) 0.38826(3)
O1C O 1.1600(3) 0.24848(7) 0.93106(18)
O2C O 1.0734(3) 0.17099(6) 0.77507(17)
O2_2 O 1.5734(3) 0.32901(6) 1.27507(17)
O3C O 1.6323(3) 0.23079(7) 1.09670(18)
O4C O 1.7713(3) 0.13773(8) 1.1069(3)
O5C O 1.1240(3) 0.24187(8) 1.25932(19)
N1B N -0.6220(3) -0.13957(8) 0.4217(2)
N1C N 1.1220(3) 0.36043(8) 1.0783(2)
N2B N -0.0965(4) 0.00235(9) 0.4523(2)
C1C C 1.1795(4) 0.19390(11) 0.8990(2)
C2C C 1.3314(4) 0.15159(9) 1.0122(2)
H1C H 1.2393 0.1453 1.0953
H2C H 1.3447 0.1132 0.9634
C3C C 1.5990(4) 0.17381(9) 1.0763(2)
C4B C -0.6329(4) -0.09683(10) 0.3159(3)
H3B H -0.7619 -0.0987 0.2321
C5B C -0.4608(5) -0.05015(11) 0.3259(3)
H4B H -0.4758 -0.0209 0.2511
C6B C -0.2666(4) -0.04766(10) 0.4488(3)
C7B C -0.2529(5) -0.09104(11) 0.5604(3)
H5B H -0.1249 -0.0900 0.6449
C8B C -0.4344(5) -0.13588(10) 0.5431(3)
H6B H -0.4268 -0.1648 0.6184
H7C H 0.981(3) 0.234(2) 1.223(4)
H8C H 1.129(5) 0.2445(14) 1.3496(12)
O6 O 1.2581(6) 0.48171(10) 0.5264(3)
H9 H 1.290(7) 0.4464(6) 0.538(4)
H10 H 1.133(16) 0.486(3) 0.565(14)
loop_
_geom_bond_atom_site_label_1
_geom_bond_atom_site_label_2
_geom_bond_site_symmetry_1
_geom_bond_site_symmetry_2
Cu1 O1 1_555 1_555
O1 C1 1_555 1_555
O2 C1 1_555 1_555
O3 Cu1 1_555 1_555
O4 C3 1_555 1_555
O5 Cu1 1_555 1_555
N1 Cu1 1_555 1_555
N2 C6 1_555 1_555
C1 C2 1_555 1_555
C2 H1 1_555 1_555
H2 C2 1_555 1_555
C3 O3 1_555 1_555
C4 N1 1_555 1_555
H3 C4 1_555 1_555
C5 C4 1_555 1_555
H4 C5 1_555 1_555
C6 C5 1_555 1_555
C7 C6 1_555 1_555
H5 C7 1_555 1_555
C8 N1 1_555 1_555
H6 C8 1_555 1_555
H7 O5 1_555 1_555
H8 O5 1_555 1_555
O6 H9 1_555 1_555
H10 O6 1_555 1_555
Cu1C O1C 1_555 1_555
Cu1C_2 O2 1_555 1_555
Cu1B N1B 1_555 1_555
O1C C1C 1_555 1_555
O2C Cu1 1_555 1_555
O2_2 Cu1C 1_555 1_555
O3C Cu1C 1_555 1_555
O4C C3C 1_555 1_555
O5C Cu1C 1_555 1_555
N1B C4B 1_555 1_555
N1C Cu1C 1_555 1_555
N2B N2 1_555 1_555
C1C O2C 1_555 1_555
C2C C1C 1_555 1_555
H1C C2C 1_555 1_555
H2C C2C 1_555 1_555
C3C O3C 1_555 1_555
C4B H3B 1_555 1_555
C5B C4B 1_555 1_555
H4B C5B 1_555 1_555
C6B N2B 1_555 1_555
C7B C6B 1_555 1_555
H5B C7B 1_555 1_555
C8B N1B 1_555 1_555
H6B C8B 1_555 1_555
H7C O5C 1_555 1_555
H8C O5C 1_555 1_555
C2 C3 1_555 1_555
C7 C8 1_555 1_555
C2C C3C 1_555 1_555
C5B C6B 1_555 1_555
C7B C8B 1_555 1_555

#END
