
#######################################################################
#
#                 Cambridge Crystallographic Data Centre
#                                CCDC 
#
#######################################################################
#
# If this CIF has been generated from an entry in the Cambridge 
# Structural Database, then it will include bibliographic, chemical, 
# crystal, experimental, refinement or atomic coordinate data resulting 
# from the CCDC's data processing and validation procedures.
#
#######################################################################

data_PASGEX03
_symmetry_cell_setting           trigonal
_symmetry_space_group_name_H-M   'P 31 2 1'
_symmetry_Int_Tables_number      152
_space_group_name_Hall           'P 31 2"'
loop_
_symmetry_equiv_pos_site_id
_symmetry_equiv_pos_as_xyz
1 x,y,z
2 -y,x-y,1/3+z
3 -x+y,-x,2/3+z
4 y,x,-z
5 x-y,-y,2/3-z
6 -x,-x+y,1/3-z
_cell_length_a                   11.9194(6)
_cell_length_b                   11.9194(6)
_cell_length_c                   8.3261(11)
_cell_angle_alpha                90
_cell_angle_beta                 90
_cell_angle_gamma                120
_cell_volume                     1024.43
loop_
_atom_site_label
_atom_site_type_symbol
_atom_site_fract_x
_atom_site_fract_y
_atom_site_fract_z
Zn1 Zn 0.71209(3) 0.71209(3) 0.0000
O1 O 0.7875(2) 0.87121(17) 0.1539(2)
H1 H 0.7422 0.8690 0.2415
H2 H 0.8647 0.9418 0.1333
O2 O 0.1732(2) 0.3776(3) 0.5297(2)
N1 N 0.5399(2) 0.6037(2) 0.1411(3)
C1 C 0.4047(3) 0.5533(4) 0.3737(3)
H3 H 0.3891 0.5797 0.4763
C2 C 0.5150(3) 0.6353(3) 0.2863(3)
H4 H 0.5755 0.7181 0.3310
C3 C 0.3176(3) 0.4336(3) 0.3117(3)
O3 O 0.1259(2) 0.2296(2) 0.3367(3)
C4 C 0.1949(3) 0.3385(3) 0.3998(4)
C5 C 0.3435(3) 0.4001(3) 0.1623(3)
H5 H 0.2841 0.3178 0.1156
C6 C 0.4550(3) 0.4869(2) 0.0800(3)
Zn1A Zn 0.28791(3) 0.00000(4) -0.6667
Zn1B Zn 0.00000(4) 0.28791(3) 0.6667
O1C O 0.87121(17) 0.7875(2) -0.1539(2)
H1C H 0.8690 0.7422 -0.2415
H2C H 0.9418 0.8647 -0.1333
O2C O 0.3776(3) 0.1732(2) -0.5297(2)
O2A O 0.6224(3) 0.7956(4) -0.1370(2)
O2D O 0.7956(4) 0.6224(3) 0.1370(2)
N1C N 0.6037(2) 0.5399(2) -0.1411(3)
C1C C 0.5533(4) 0.4047(3) -0.3737(3)
H3C H 0.5797 0.3891 -0.4763
C2C C 0.6353(3) 0.5150(3) -0.2863(3)
H4C H 0.7181 0.5755 -0.3310
C3C C 0.4336(3) 0.3176(3) -0.3117(3)
O3C O 0.2296(2) 0.1259(2) -0.3367(3)
C4C C 0.3385(3) 0.1949(3) -0.3998(4)
C5C C 0.4001(3) 0.3435(3) -0.1623(3)
H5C H 0.3178 0.2841 -0.1156
C6C C 0.4869(2) 0.4550(3) -0.0800(3)
loop_
_geom_bond_atom_site_label_1
_geom_bond_atom_site_label_2
_geom_bond_site_symmetry_1
_geom_bond_site_symmetry_2
Zn1 O1 1_555 1_555
O1 H1 1_555 1_555
H2 O1 1_555 1_555
O2 C4 1_555 1_555
N1 Zn1 1_555 1_555
C1 H3 1_555 1_555
C2 N1 1_555 1_555
H4 C2 1_555 1_555
C3 C1 1_555 1_555
O3 C4 1_555 1_555
C4 C3 1_555 1_555
C5 C3 1_555 1_555
H5 C5 1_555 1_555
C6 N1 1_555 1_555
Zn1A O2C 1_555 1_555
Zn1B O2 1_555 1_555
O1C Zn1 1_555 1_555
H1C O1C 1_555 1_555
H2C O1C 1_555 1_555
O2C C4C 1_555 1_555
O2A Zn1 1_555 1_555
O2D Zn1 1_555 1_555
N1C Zn1 1_555 1_555
C1C H3C 1_555 1_555
C2C N1C 1_555 1_555
H4C C2C 1_555 1_555
C3C C1C 1_555 1_555
O3C C4C 1_555 1_555
C4C C3C 1_555 1_555
C5C C3C 1_555 1_555
H5C C5C 1_555 1_555
C6C C6 1_555 1_555
C1 C2 1_555 1_555
C5 C6 1_555 1_555
N1C C6C 1_555 1_555
C1C C2C 1_555 1_555
C5C C6C 1_555 1_555

#END
