
#######################################################################
#
#                 Cambridge Crystallographic Data Centre
#                                CCDC 
#
#######################################################################
#
# If this CIF has been generated from an entry in the Cambridge 
# Structural Database, then it will include bibliographic, chemical, 
# crystal, experimental, refinement or atomic coordinate data resulting 
# from the CCDC's data processing and validation procedures.
#
#######################################################################

data_PASGIB04
_symmetry_cell_setting           trigonal
_symmetry_space_group_name_H-M   'P 32 2 1'
_symmetry_Int_Tables_number      154
_space_group_name_Hall           'P 32 2"'
loop_
_symmetry_equiv_pos_site_id
_symmetry_equiv_pos_as_xyz
1 x,y,z
2 -y,x-y,2/3+z
3 -x+y,-x,1/3+z
4 y,x,-z
5 -x,-x+y,2/3-z
6 x-y,-y,1/3-z
_cell_length_a                   11.846(2)
_cell_length_b                   11.846(2)
_cell_length_c                   8.3276(17)
_cell_angle_alpha                90
_cell_angle_beta                 90
_cell_angle_gamma                120
_cell_volume                     1012.03
loop_
_atom_site_label
_atom_site_type_symbol
_atom_site_fract_x
_atom_site_fract_y
_atom_site_fract_z
Zn1 Zn 0.71251(8) 0.0000 0.6667
O1 O 0.2280(5) 0.1016(5) 0.3282(5)
O2 O 0.3775(6) 0.2041(6) 0.1356(4)
O3 O 0.7883(6) -0.0834(6) 0.8222(4)
N1 N 0.6042(6) 0.0640(6) 0.5258(5)
C1 C 0.4869(6) 0.0325(6) 0.5844(6)
C2 C 0.3997(6) 0.0564(7) 0.5058(6)
H1 H 0.3192 0.0331 0.5511
C3 C 0.4348(7) 0.1170(7) 0.3555(6)
C4 C 0.5555(8) 0.1487(9) 0.2922(6)
H2 H 0.5809 0.1888 0.1923
C5 C 0.6372(8) 0.1204(8) 0.3787(6)
H3 H 0.7174 0.1405 0.3350
C6 C 0.3381(7) 0.1427(7) 0.2659(6)
Zn1A Zn 0.0000 -0.28749(8) 1.3334
Zn1B Zn 0.28749(8) 0.28749(8) 0.0000
O1E O 0.1264(7) -0.1016(5) 1.0051(5)
O2E O 0.1734(8) -0.2041(6) 1.1977(4)
O2A O 0.7959(6) 0.1734(8) 0.8023(4)
O2D O 0.6225(6) -0.1734(8) 0.5311(4)
O3E O 0.8717(8) 0.0834(6) 0.5111(4)
N1E N 0.5402(8) -0.0640(6) 0.8075(5)
C1E C 0.4544(8) -0.0325(6) 0.7489(6)
C2E C 0.3433(9) -0.0564(7) 0.8275(6)
H1E H 0.2861 -0.0331 0.7822
C3E C 0.3178(10) -0.1170(7) 0.9778(6)
C4E C 0.4068(12) -0.1487(9) 1.0411(6)
H2E H 0.3921 -0.1888 1.1410
C5E C 0.5168(11) -0.1204(8) 0.9546(6)
H3E H 0.5769 -0.1405 0.9983
C6E C 0.1954(10) -0.1427(7) 1.0674(6)
loop_
_geom_bond_atom_site_label_1
_geom_bond_atom_site_label_2
_geom_bond_site_symmetry_1
_geom_bond_site_symmetry_2
Zn1 O3 1_555 1_555
O1 C6 1_555 1_555
O2 C6 1_555 1_555
N1 Zn1 1_555 1_555
C1 N1 1_555 1_555
C2 C1 1_555 1_555
H1 C2 1_555 1_555
C3 C2 1_555 1_555
C4 C3 1_555 1_555
H2 C4 1_555 1_555
C5 N1 1_555 1_555
H3 C5 1_555 1_555
C6 C3 1_555 1_555
Zn1A O2E 1_555 1_555
Zn1B O2 1_555 1_555
O1E C6E 1_555 1_555
O2E C6E 1_555 1_555
O2A Zn1 1_555 1_555
O2D Zn1 1_555 1_555
O3E Zn1 1_555 1_555
N1E Zn1 1_555 1_555
C1E C1 1_555 1_555
C2E C1E 1_555 1_555
H1E C2E 1_555 1_555
C3E C2E 1_555 1_555
C4E C3E 1_555 1_555
H2E C4E 1_555 1_555
C5E N1E 1_555 1_555
H3E C5E 1_555 1_555
C6E C3E 1_555 1_555
C4 C5 1_555 1_555
N1E C1E 1_555 1_555
C4E C5E 1_555 1_555

#END
