
#######################################################################
#
#                 Cambridge Crystallographic Data Centre
#                                CCDC 
#
#######################################################################
#
# If this CIF has been generated from an entry in the Cambridge 
# Structural Database, then it will include bibliographic, chemical, 
# crystal, experimental, refinement or atomic coordinate data resulting 
# from the CCDC's data processing and validation procedures.
#
#######################################################################

data_PASGEX02
_symmetry_cell_setting           trigonal
_symmetry_space_group_name_H-M   'P 31 2 1'
_symmetry_Int_Tables_number      152
_space_group_name_Hall           'P 31 2"'
loop_
_symmetry_equiv_pos_site_id
_symmetry_equiv_pos_as_xyz
1 x,y,z
2 -y,x-y,1/3+z
3 -x+y,-x,2/3+z
4 y,x,-z
5 x-y,-y,2/3-z
6 -x,-x+y,1/3-z
_cell_length_a                   11.8429(11)
_cell_length_b                   11.8429(11)
_cell_length_c                   8.2715(14)
_cell_angle_alpha                90
_cell_angle_beta                 90
_cell_angle_gamma                120
_cell_volume                     1004.69
loop_
_atom_site_label
_atom_site_type_symbol
_atom_site_fract_x
_atom_site_fract_y
_atom_site_fract_z
Zn1 Zn 0.71216(6) 0.71216(6) 0.0000
O1 O 0.8716(3) 0.7884(4) -0.1533(3)
H1 H 0.8702 0.7437 -0.2420
H2 H 0.9422 0.8662 -0.1314
O2 O 0.3777(4) 0.1734(3) -0.5295(4)
N1 N 0.6036(4) 0.5398(4) -0.1411(4)
C1 C 0.5523(6) 0.4049(5) -0.3737(6)
H3 H 0.5788 0.3899 -0.4774
C2 C 0.6345(5) 0.5150(5) -0.2853(6)
H4 H 0.7151 0.5742 -0.3291
C3 C 0.4339(5) 0.3174(5) -0.3116(5)
C4 C 0.3386(5) 0.1943(5) -0.3986(6)
O3 O 0.2295(3) 0.1262(3) -0.3367(4)
C5 C 0.4002(5) 0.3435(5) -0.1622(5)
H5 H 0.3193 0.2863 -0.1175
C6 C 0.4866(4) 0.4546(4) -0.0796(5)
Zn1A Zn 0.28784(6) 0.00000(8) -0.6667
Zn1B Zn 0.00000(8) 0.28784(6) 0.6667
O1C O 0.7884(4) 0.8716(3) 0.1533(3)
H1C H 0.7437 0.8702 0.2420
H2C H 0.8662 0.9422 0.1314
O2C O 0.1734(3) 0.3777(4) 0.5295(4)
O2B O 0.7957(5) 0.6223(4) 0.1372(4)
O2E O 0.6223(4) 0.7957(5) -0.1372(4)
N1C N 0.5398(4) 0.6036(4) 0.1411(4)
C1C C 0.4049(5) 0.5523(6) 0.3737(6)
H3C H 0.3899 0.5788 0.4774
C2C C 0.5150(5) 0.6345(5) 0.2853(6)
H4C H 0.5742 0.7151 0.3291
C3C C 0.3174(5) 0.4339(5) 0.3116(5)
C4C C 0.1943(5) 0.3386(5) 0.3986(6)
O3C O 0.1262(3) 0.2295(3) 0.3367(4)
C5C C 0.3435(5) 0.4002(5) 0.1622(5)
H5C H 0.2863 0.3193 0.1175
C6C C 0.4546(4) 0.4866(4) 0.0796(5)
loop_
_geom_bond_atom_site_label_1
_geom_bond_atom_site_label_2
_geom_bond_site_symmetry_1
_geom_bond_site_symmetry_2
Zn1 O1 1_555 1_555
O1 H1 1_555 1_555
H2 O1 1_555 1_555
O2 C4 1_555 1_555
N1 Zn1 1_555 1_555
C1 H3 1_555 1_555
C2 N1 1_555 1_555
H4 C2 1_555 1_555
C3 C1 1_555 1_555
C4 C3 1_555 1_555
O3 C4 1_555 1_555
C5 C3 1_555 1_555
H5 C5 1_555 1_555
C6 N1 1_555 1_555
Zn1A O2 1_555 1_555
Zn1B O2C 1_555 1_555
O1C Zn1 1_555 1_555
H1C O1C 1_555 1_555
H2C O1C 1_555 1_555
O2C C4C 1_555 1_555
O2B Zn1 1_555 1_555
O2E Zn1 1_555 1_555
N1C Zn1 1_555 1_555
C1C H3C 1_555 1_555
C2C N1C 1_555 1_555
H4C C2C 1_555 1_555
C3C C1C 1_555 1_555
C4C C3C 1_555 1_555
O3C C4C 1_555 1_555
C5C C3C 1_555 1_555
H5C C5C 1_555 1_555
C6C C6 1_555 1_555
C1 C2 1_555 1_555
C5 C6 1_555 1_555
N1C C6C 1_555 1_555
C1C C2C 1_555 1_555
C5C C6C 1_555 1_555

#END
