
#######################################################################
#
#                 Cambridge Crystallographic Data Centre
#                                CCDC 
#
#######################################################################
#
# If this CIF has been generated from an entry in the Cambridge 
# Structural Database, then it will include bibliographic, chemical, 
# crystal, experimental, refinement or atomic coordinate data resulting 
# from the CCDC's data processing and validation procedures.
#
#######################################################################

data_PASGAT
_symmetry_cell_setting           monoclinic
_symmetry_space_group_name_H-M   'C 2/c'
_symmetry_Int_Tables_number      15
_space_group_name_Hall           '-C 2yn'
loop_
_symmetry_equiv_pos_site_id
_symmetry_equiv_pos_as_xyz
1 x,y,z
2 -x,y,1/2-z
3 1/2+x,1/2+y,z
4 1/2-x,1/2+y,1/2-z
5 -x,-y,-z
6 x,-y,1/2+z
7 1/2-x,1/2-y,-z
8 1/2+x,1/2-y,1/2+z
_cell_length_a                   21.783(6)
_cell_length_b                   11.251(2)
_cell_length_c                   15.826(4)
_cell_angle_alpha                90
_cell_angle_beta                 130.550(4)
_cell_angle_gamma                90
_cell_volume                     2947.15
loop_
_atom_site_label
_atom_site_type_symbol
_atom_site_fract_x
_atom_site_fract_y
_atom_site_fract_z
Zn1 Zn 0.14342(2) 0.59193(3) 0.15934(3)
O1 O 0.26350(14) 0.5874(2) 0.2395(2)
O2 O 0.26981(14) 0.4189(2) 0.1722(2)
O3 O 0.51743(15) 0.8190(2) 0.5330(2)
O4 O 0.62830(15) 0.7591(2) 0.5696(2)
O5 O 0.57211(14) 0.3634(2) 0.3987(2)
H1 H 0.5450 0.3034 0.3631
O6 O 0.16804(16) 0.6963(2) 0.2893(2)
O7 O 0.10908(17) 0.4714(2) 0.0306(2)
N1 N 0.13455(17) 0.4566(2) 0.2403(2)
N2 N 0.08793(18) 0.4699(3) 0.2701(3)
N3 N 0.17110(18) 0.3206(2) 0.3622(2)
C1 C 0.1843(2) 0.3682(3) 0.2971(3)
H2 H 0.2233 0.3418 0.2932
C2 C 0.1117(2) 0.3874(3) 0.3432(3)
H3 H 0.0903 0.3758 0.3785
C3 C 0.2174(2) 0.2248(3) 0.4431(3)
H4 H 0.2419 0.1750 0.4210
H5 H 0.1813 0.1748 0.4445
C4 C 0.3919(2) 0.5275(3) 0.3062(3)
C5 C 0.4278(2) 0.6285(3) 0.3721(3)
H6 H 0.3960 0.6875 0.3694
C6 C 0.5112(2) 0.6418(3) 0.4420(3)
C7 C 0.5583(2) 0.5529(3) 0.4485(3)
H7 H 0.6147 0.5618 0.4966
C8 C 0.5224(2) 0.4507(3) 0.3841(3)
C9 C 0.4390(2) 0.4397(3) 0.3106(3)
H8 H 0.4142 0.3729 0.2639
C10 C 0.3022(2) 0.5091(3) 0.2342(3)
C11 C 0.5535(2) 0.7474(3) 0.5182(3)
H9 H 0.191(2) 0.761(4) 0.302(3)
H10 H 0.197(2) 0.669(4) 0.350(3)
H11 H 0.078(2) 0.430(3) 0.017(3)
H12 H 0.152(2) 0.433(3) 0.053(3)
Zn1G Zn -0.35658(2) 0.90807(3) -0.34066(3)
Zn1G_2 Zn 0.64342(2) 0.90807(3) 0.65934(3)
Zn1F Zn 0.35658(2) -0.09193(3) 0.84066(3)
O1G O -0.23650(14) 0.9126(2) -0.2605(2)
O2G O -0.23019(14) 1.0811(2) -0.3278(2)
O3G O 0.01743(15) 0.6810(2) 0.0330(2)
O3_2 O -0.48257(15) 0.8190(2) -0.4670(2)
O4G O 0.12830(15) 0.7409(2) 0.0696(2)
O4_2 O -0.37170(15) 0.7591(2) -0.4304(2)
O5G O 0.07211(14) 1.1366(2) -0.1013(2)
H1G H 0.0450 1.1966 -0.1369
O6G O -0.33196(16) 0.8037(2) -0.2107(2)
O7G O -0.39092(17) 1.0286(2) -0.4694(2)
N1F N 0.36545(17) 0.0434(2) 0.7597(2)
N1G N -0.36545(17) 1.0434(2) -0.2597(2)
N2F N 0.41207(18) 0.0301(3) 0.7299(3)
N3F N 0.32890(18) 0.1794(2) 0.6378(2)
C1F C 0.3157(2) 0.1318(3) 0.7029(3)
H2F H 0.2767 0.1582 0.7068
C2F C 0.3883(2) 0.1126(3) 0.6568(3)
H3F H 0.4097 0.1242 0.6215
C3F C 0.2826(2) 0.2752(3) 0.5569(3)
H4F H 0.2581 0.3250 0.5790
H5F H 0.3187 0.3252 0.5555
C4G C -0.1081(2) 0.9725(3) -0.1938(3)
C5G C -0.0722(2) 0.8715(3) -0.1279(3)
H6G H -0.1040 0.8125 -0.1306
C6G C 0.0112(2) 0.8582(3) -0.0580(3)
C7G C 0.0583(2) 0.9471(3) -0.0515(3)
H7G H 0.1147 0.9382 -0.0034
C8G C 0.0224(2) 1.0493(3) -0.1159(3)
C9G C -0.0610(2) 1.0603(3) -0.1894(3)
H8G H -0.0858 1.1271 -0.2361
C10G C -0.1978(2) 0.9909(3) -0.2658(3)
C11G C 0.0535(2) 0.7526(3) 0.0182(3)
H9G H -0.309(2) 0.739(4) -0.198(3)
H10G H -0.303(2) 0.831(4) -0.150(3)
H11G H -0.422(2) 1.070(3) -0.483(3)
H12G H -0.348(2) 1.067(3) -0.447(3)
O8 O 0.26761(17) 0.5797(3) 0.4886(2)
H13 H 0.315(2) 0.604(3) 0.517(3)
H14 H 0.263(2) 0.585(3) 0.538(3)
O9 O 0.5000 0.1817(3) 0.2500
H15 H 0.534(2) 0.133(3) 0.257(3)
H15A H 0.466(2) 0.133(3) 0.243(3)
loop_
_geom_bond_atom_site_label_1
_geom_bond_atom_site_label_2
_geom_bond_site_symmetry_1
_geom_bond_site_symmetry_2
Zn1 O1 1_555 1_555
O1 C10 1_555 1_555
O2 C10 1_555 1_555
O3 C11 1_555 1_555
O4 C11 1_555 1_555
O5 H1 1_555 1_555
O6 Zn1 1_555 1_555
O7 Zn1 1_555 1_555
O8 H13 1_555 1_555
O9 H15 1_555 1_555
N1 Zn1 1_555 1_555
N2 N1 1_555 1_555
N3 C1 1_555 1_555
C1 N1 1_555 1_555
H2 C1 1_555 1_555
C2 N2 1_555 1_555
H3 C2 1_555 1_555
C3 N3 1_555 1_555
H4 C3 1_555 1_555
H5 C3 1_555 1_555
C4 C5 1_555 1_555
C5 H6 1_555 1_555
C6 C5 1_555 1_555
C7 C6 1_555 1_555
H7 C7 1_555 1_555
C8 O5 1_555 1_555
C9 C4 1_555 1_555
H8 C9 1_555 1_555
C10 C4 1_555 1_555
C11 C6 1_555 1_555
H9 O6 1_555 1_555
H10 O6 1_555 1_555
H11 O7 1_555 1_555
H12 O7 1_555 1_555
H14 O8 1_555 1_555
Zn1G O1G 1_555 1_555
Zn1G_2 O3 1_555 1_555
Zn1F N1F 1_555 1_555
O1G C10G 1_555 1_555
O2G C10G 1_555 1_555
O3G Zn1 1_555 1_555
O3_2 Zn1G 1_555 1_555
O4G Zn1 1_555 1_555
O4_2 Zn1G 1_555 1_555
O5G H1G 1_555 1_555
O6G Zn1G 1_555 1_555
O7G Zn1G 1_555 1_555
N1F N2F 1_555 1_555
N1G Zn1G 1_555 1_555
N2F C2F 1_555 1_555
N3F C1F 1_555 1_555
C1F N1F 1_555 1_555
H2F C1F 1_555 1_555
C2F N3F 1_555 1_555
H3F C2F 1_555 1_555
C3F C3 1_555 1_555
H4F C3F 1_555 1_555
H5F C3F 1_555 1_555
C4G C5G 1_555 1_555
C5G H6G 1_555 1_555
C6G C5G 1_555 1_555
C7G C6G 1_555 1_555
H7G C7G 1_555 1_555
C8G O5G 1_555 1_555
C9G C4G 1_555 1_555
H8G C9G 1_555 1_555
C10G C4G 1_555 1_555
C11G O3G 1_555 1_555
H9G O6G 1_555 1_555
H10G O6G 1_555 1_555
H11G O7G 1_555 1_555
H12G O7G 1_555 1_555
H15A O9 1_555 1_555
O4 Zn1G_2 1_555 1_555
N3 C2 1_555 1_555
C7 C8 1_555 1_555
C8 C9 1_555 1_555
O4G C11G 1_555 1_555
N3F C3F 1_555 1_555
C6G C11G 1_555 1_555
C7G C8G 1_555 1_555
C8G C9G 1_555 1_555

#END
