
#######################################################################
#
#                 Cambridge Crystallographic Data Centre
#                                CCDC 
#
#######################################################################
#
# If this CIF has been generated from an entry in the Cambridge 
# Structural Database, then it will include bibliographic, chemical, 
# crystal, experimental, refinement or atomic coordinate data resulting 
# from the CCDC's data processing and validation procedures.
#
#######################################################################

data_PASJUQ
_symmetry_cell_setting           triclinic
_symmetry_space_group_name_H-M   'P -1'
_symmetry_Int_Tables_number      2
_space_group_name_Hall           '-P 1'
loop_
_symmetry_equiv_pos_site_id
_symmetry_equiv_pos_as_xyz
1 x,y,z
2 -x,-y,-z
_cell_length_a                   10.005(2)
_cell_length_b                   11.303(3)
_cell_length_c                   12.206(3)
_cell_angle_alpha                100.797(3)
_cell_angle_beta                 107.308(4)
_cell_angle_gamma                98.944(4)
_cell_volume                     1261.25
loop_
_atom_site_label
_atom_site_type_symbol
_atom_site_fract_x
_atom_site_fract_y
_atom_site_fract_z
C1 C 0.0086(6) 0.3396(5) 0.5142(4)
C2 C -0.0662(7) 0.2716(5) 0.4019(5)
H1 H -0.0773 0.1863 0.3828
C3 C -0.1273(8) 0.3323(5) 0.3142(5)
H2 H -0.1811 0.2860 0.2377
C4 C -0.1082(7) 0.4588(5) 0.3404(5)
H3 H -0.1470 0.4977 0.2815
C5 C -0.0306(5) 0.5287(4) 0.4552(4)
C6 C 0.0889(6) 0.1696(5) 0.5783(4)
H4 H 0.1437 0.1635 0.5248
H5 H -0.0039 0.1125 0.5391
C7 C 0.1686(6) 0.1361(5) 0.6921(5)
C8 C 0.3527(7) 0.4661(6) 0.4599(6)
H6 H 0.2529 0.4421 0.4327
C9 C 0.4321(7) 0.4174(6) 0.5461(6)
H7 H 0.3852 0.3620 0.5775
C10 C 0.5803(6) 0.4497(5) 0.5866(5)
C11 C 0.6700(7) 0.3933(7) 0.6759(6)
H8 H 0.6913 0.3209 0.6338
H9 H 0.7606 0.4522 0.7198
C12 C 0.5577(6) 0.2423(5) 0.7654(5)
H10 H 0.5597 0.1723 0.7124
C13 C 0.5267(9) 0.3596(6) 0.9067(6)
H11 H 0.5029 0.3876 0.9736
C14 C 0.5837(10) 0.4324(6) 0.8503(6)
H12 H 0.6046 0.5184 0.8691
C15 C 0.5424(6) 0.0428(5) 0.4820(4)
C16 C 0.6931(6) 0.0763(6) 0.5396(5)
H13 H 0.7505 0.1325 0.5163
C17 C 0.7532(7) 0.0250(6) 0.6300(5)
H14 H 0.8522 0.0475 0.6681
C18 C 0.6711(6) -0.0598(6) 0.6667(5)
H15 H 0.7150 -0.0922 0.7292
C19 C 0.5260(6) -0.0954(5) 0.6110(5)
C20 C 0.4938(7) -0.2370(5) 0.7276(4)
H16 H 0.5810 -0.2589 0.7196
H17 H 0.4261 -0.3131 0.7172
C21 C 0.5291(6) -0.1582(5) 0.8530(5)
C22 C 0.1966(6) -0.1033(5) 0.9991(5)
H18 H 0.2850 -0.0980 1.0555
C23 C -0.0322(6) -0.1510(5) 0.9040(6)
H19 H -0.1305 -0.1838 0.8799
C24 C 0.0359(6) -0.0805(5) 0.8512(5)
H20 H -0.0087 -0.0549 0.7842
C25 C 0.0513(8) -0.2341(5) 1.0856(5)
H21 H -0.0278 -0.2141 1.1103
H22 H 0.1376 -0.2084 1.1549
C26 C 0.0217(6) -0.3728(5) 1.0372(5)
C27 C 0.0803(9) -0.4252(6) 0.9579(7)
H23 H 0.1356 -0.3750 0.9277
C28 C 0.0582(9) -0.5533(5) 0.9218(7)
H24 H 0.0997 -0.5877 0.8683
N1 N 0.5080(5) 0.2380(4) 0.8522(4)
N2 N 0.6051(6) 0.3568(5) 0.7606(4)
N3 N 0.1792(5) -0.0521(4) 0.9099(4)
N4 N 0.0698(5) -0.1648(4) 0.9988(4)
O1 O 0.4948(5) -0.0584(4) 0.8672(5)
O2 O 0.5947(5) -0.2043(4) 0.9302(3)
O3 O 0.1829(4) 0.2009(4) 0.7898(3)
O4 O 0.2143(5) 0.0397(3) 0.6772(3)
O5 O 0.4353(5) -0.1806(4) 0.6359(3)
O6 O 0.0697(5) 0.2912(3) 0.6062(3)
Cd1 Cd 0.35252(4) 0.08194(3) 0.88074(3)
C1A C -0.0086(6) 0.6604(5) 0.4858(4)
C2A C 0.0662(7) 0.7284(5) 0.5981(5)
H1A H 0.0773 0.8137 0.6172
C3A C 0.1273(8) 0.6677(5) 0.6858(5)
H2A H 0.1811 0.7140 0.7623
C4A C 0.1082(7) 0.5412(5) 0.6596(5)
H3A H 0.1470 0.5023 0.7185
C5A C 0.0306(5) 0.4713(4) 0.5448(4)
C6A C -0.0889(6) 0.8304(5) 0.4217(4)
H4A H -0.1437 0.8365 0.4752
H5A H 0.0039 0.8875 0.4609
C7A C -0.1686(6) 0.8639(5) 0.3079(5)
C7A_2 C -0.1686(6) -1.1361(5) 1.3079(5)
C8A C 0.6473(7) 0.5339(6) 0.5401(6)
H6A H 0.7471 0.5579 0.5673
C9A C 0.5679(7) 0.5826(6) 0.4539(6)
H7A H 0.6148 0.6380 0.4225
C10A C 0.4197(6) 0.5503(5) 0.4134(5)
C11A C 0.3300(7) 0.6067(7) 0.3241(6)
H8A H 0.3087 0.6791 0.3662
H9A H 0.2394 0.5478 0.2802
C12A C 0.4423(6) 0.7577(5) 0.2346(5)
H10A H 0.4403 0.8277 0.2876
C13A C 0.4733(9) 0.6404(6) 0.0933(6)
H11A H 0.4971 0.6124 0.0264
C14A C 0.4163(10) 0.5676(6) 0.1497(6)
H12A H 0.3954 0.4816 0.1309
C15A C 0.4576(6) -0.0428(5) 0.5180(4)
C16A C 0.3069(6) -0.0763(6) 0.4604(5)
H13A H 0.2495 -0.1325 0.4837
C17A C 0.2468(7) -0.0250(6) 0.3700(5)
H14A H 0.1478 -0.0475 0.3319
C18A C 0.3289(6) 0.0598(6) 0.3333(5)
H15A H 0.2850 0.0922 0.2708
C19A C 0.4740(6) 0.0954(5) 0.3890(5)
C20A C 0.5062(7) 0.2370(5) 0.2724(4)
H16A H 0.4190 0.2589 0.2804
H17A H 0.5739 0.3131 0.2828
C21A C 0.4709(6) 0.1582(5) 0.1470(5)
C22A C -0.1966(6) -0.8967(5) 1.0009(5)
H18A H -0.2850 -0.9020 0.9445
C23A C 0.0322(6) -0.8490(5) 1.0960(6)
H19A H 0.1305 -0.8162 1.1201
C24A C -0.0359(6) -0.9195(5) 1.1488(5)
H20A H 0.0087 -0.9451 1.2158
C25A C -0.0513(8) -0.7659(5) 0.9144(5)
H21A H 0.0278 -0.7859 0.8897
H22A H -0.1376 -0.7916 0.8451
C26A C -0.0217(6) -0.6272(5) 0.9628(5)
C27A C -0.0803(9) -0.5748(6) 1.0421(7)
H23A H -0.1356 -0.6250 1.0723
C28A C -0.0582(9) -0.4467(5) 1.0782(7)
H24A H -0.0997 -0.4123 1.1317
N1A N 0.4920(5) 0.7620(4) 0.1478(4)
N1A_2 N -0.5080(5) -1.2380(4) 1.1478(4)
N2A N 0.3949(6) 0.6432(5) 0.2394(4)
N3A N -0.1792(5) -0.9479(4) 1.0901(4)
N4A N -0.0698(5) -0.8352(4) 1.0012(4)
O1A O 0.5052(5) 0.0584(4) 0.1328(5)
O1A_2 O -0.4948(5) -0.9416(4) 1.1328(5)
O2A O 0.4053(5) 0.2043(4) 0.0698(3)
O2_2 O -0.4053(5) -1.2043(4) 0.9302(3)
O2A_2 O 0.4053(5) 0.2043(4) 1.0698(3)
O3A O -0.1829(4) 0.7991(4) 0.2102(3)
O3A_2 O -0.1829(4) -1.2009(4) 1.2102(3)
O4A O -0.2143(5) 0.9603(3) 0.3228(3)
O4A_2 O -0.2143(5) -1.0397(3) 1.3228(3)
O5A O 0.5647(5) 0.1806(4) 0.3641(3)
O6A O -0.0697(5) 0.7088(3) 0.3938(3)
Cd1A Cd -0.35252(4) -1.08194(3) 1.11926(3)
Cd1_2 Cd 0.35252(4) 0.08194(3) -0.11926(3)
Cd1A_2 Cd -0.35252(4) 0.91806(3) 0.11926(3)
Cd1A_3 Cd 0.64748(4) -0.08194(3) 0.11926(3)
Cd1A_4 Cd 0.64748(4) -0.08194(3) 1.11926(3)
Cd1A_5 Cd 0.64748(4) 0.91806(3) 0.11926(3)
loop_
_geom_bond_atom_site_label_1
_geom_bond_atom_site_label_2
_geom_bond_site_symmetry_1
_geom_bond_site_symmetry_2
C1 C2 1_555 1_555
C2 H1 1_555 1_555
C3 C2 1_555 1_555
H2 C3 1_555 1_555
C4 C3 1_555 1_555
H3 C4 1_555 1_555
C5 C4 1_555 1_555
C6 H4 1_555 1_555
H5 C6 1_555 1_555
C7 C6 1_555 1_555
C8 H6 1_555 1_555
C9 C8 1_555 1_555
H7 C9 1_555 1_555
C10 C9 1_555 1_555
C11 C10 1_555 1_555
H8 C11 1_555 1_555
H9 C11 1_555 1_555
C12 H10 1_555 1_555
C13 H11 1_555 1_555
C14 C13 1_555 1_555
H12 C14 1_555 1_555
C15 C16 1_555 1_555
C16 H13 1_555 1_555
C17 C16 1_555 1_555
H14 C17 1_555 1_555
C18 C17 1_555 1_555
H15 C18 1_555 1_555
C19 C18 1_555 1_555
C20 H16 1_555 1_555
H17 C20 1_555 1_555
C21 C20 1_555 1_555
C22 H18 1_555 1_555
C23 H19 1_555 1_555
C24 C23 1_555 1_555
H20 C24 1_555 1_555
C25 H21 1_555 1_555
H22 C25 1_555 1_555
C26 C25 1_555 1_555
C27 C26 1_555 1_555
H23 C27 1_555 1_555
C28 C27 1_555 1_555
H24 C28 1_555 1_555
N1 C12 1_555 1_555
N2 C11 1_555 1_555
N3 C22 1_555 1_555
N4 C22 1_555 1_555
O1 C21 1_555 1_555
O2 C21 1_555 1_555
O3 C7 1_555 1_555
O4 C7 1_555 1_555
O5 C19 1_555 1_555
O6 C1 1_555 1_555
Cd1 N1 1_555 1_555
C1A C5 1_555 1_555
C2A C1A 1_555 1_555
H1A C2A 1_555 1_555
C3A C2A 1_555 1_555
H2A C3A 1_555 1_555
C4A C3A 1_555 1_555
H3A C4A 1_555 1_555
C5A C1 1_555 1_555
C6A H4A 1_555 1_555
H5A C6A 1_555 1_555
C7A C6A 1_555 1_555
C7A_2 O3A_2 1_555 1_555
C8A C10 1_555 1_555
H6A C8A 1_555 1_555
C9A C8A 1_555 1_555
H7A C9A 1_555 1_555
C10A C8 1_555 1_555
C11A C10A 1_555 1_555
H8A C11A 1_555 1_555
H9A C11A 1_555 1_555
C12A H10A 1_555 1_555
C13A H11A 1_555 1_555
C14A C13A 1_555 1_555
H12A C14A 1_555 1_555
C15A C15 1_555 1_555
C16A C15A 1_555 1_555
H13A C16A 1_555 1_555
C17A C16A 1_555 1_555
H14A C17A 1_555 1_555
C18A C17A 1_555 1_555
H15A C18A 1_555 1_555
C19A C15 1_555 1_555
C20A H16A 1_555 1_555
H17A C20A 1_555 1_555
C21A C20A 1_555 1_555
C22A H18A 1_555 1_555
C23A H19A 1_555 1_555
C24A C23A 1_555 1_555
H20A C24A 1_555 1_555
C25A H21A 1_555 1_555
H22A C25A 1_555 1_555
C26A C28 1_555 1_555
C27A C26A 1_555 1_555
H23A C27A 1_555 1_555
C28A C26 1_555 1_555
H24A C28A 1_555 1_555
N1A C12A 1_555 1_555
N1A_2 Cd1A 1_555 1_555
N2A C11A 1_555 1_555
N3A C22A 1_555 1_555
N4A C22A 1_555 1_555
O1A C21A 1_555 1_555
O1A_2 Cd1A 1_555 1_555
O2A C21A 1_555 1_555
O2_2 Cd1A 1_555 1_555
O2A_2 Cd1 1_555 1_555
O3A C7A 1_555 1_555
O3A_2 Cd1A 1_555 1_555
O4A C7A 1_555 1_555
O4A_2 C7A_2 1_555 1_555
O5A C19A 1_555 1_555
O6A C1A 1_555 1_555
Cd1A N3A 1_555 1_555
Cd1_2 O2A 1_555 1_555
Cd1A_2 O3A 1_555 1_555
Cd1A_3 O1A 1_555 1_555
Cd1A_4 O2 1_555 1_555
Cd1A_5 N1A 1_555 1_555
C5 C5A 1_555 1_555
C6 O6 1_555 1_555
C12 N2 1_555 1_555
C13 N1 1_555 1_555
C14 N2 1_555 1_555
C19 C15A 1_555 1_555
C20 O5 1_555 1_555
C23 N4 1_555 1_555
C24 N3 1_555 1_555
C25 N4 1_555 1_555
N3 Cd1 1_555 1_555
O1 Cd1 1_555 1_555
O3 Cd1 1_555 1_555
O4 Cd1 1_555 1_555
C4A C5A 1_555 1_555
C6A O6A 1_555 1_555
C9A C10A 1_555 1_555
C12A N2A 1_555 1_555
C13A N1A 1_555 1_555
C14A N2A 1_555 1_555
C18A C19A 1_555 1_555
C20A O5A 1_555 1_555
C23A N4A 1_555 1_555
C24A N3A 1_555 1_555
C25A C26A 1_555 1_555
C25A N4A 1_555 1_555
C27A C28A 1_555 1_555
O4A Cd1A_2 1_555 1_555
O4A_2 Cd1A 1_555 1_555

#END
