
#######################################################################
#
#                 Cambridge Crystallographic Data Centre
#                                CCDC 
#
#######################################################################
#
# If this CIF has been generated from an entry in the Cambridge 
# Structural Database, then it will include bibliographic, chemical, 
# crystal, experimental, refinement or atomic coordinate data resulting 
# from the CCDC's data processing and validation procedures.
#
#######################################################################

data_PASJOK
_symmetry_cell_setting           triclinic
_symmetry_space_group_name_H-M   'P -1'
_symmetry_Int_Tables_number      2
_space_group_name_Hall           '-P 1'
loop_
_symmetry_equiv_pos_site_id
_symmetry_equiv_pos_as_xyz
1 x,y,z
2 -x,-y,-z
_cell_length_a                   13.0060(13)
_cell_length_b                   13.6370(14)
_cell_length_c                   14.1040(15)
_cell_angle_alpha                79.9710(17)
_cell_angle_beta                 64.3890(15)
_cell_angle_gamma                71.2760(15)
_cell_volume                     2134.53
loop_
_atom_site_label
_atom_site_type_symbol
_atom_site_fract_x
_atom_site_fract_y
_atom_site_fract_z
C1 C 0.4206(7) 0.4994(6) 1.1886(6)
C2 C 0.5053(8) 0.4131(7) 1.2244(7)
H1 H 0.4654 0.3607 1.2645
H2 H 0.5727 0.3809 1.1630
C3 C 0.4775(7) 0.4623(6) 1.3927(6)
C4 C 0.3677(8) 0.4489(6) 1.4430(7)
H3 H 0.3320 0.4317 1.4061
C5 C 0.3084(7) 0.4614(7) 1.5522(7)
H4 H 0.2340 0.4497 1.5876
C6 C 0.3561(7) 0.4898(6) 1.6070(7)
H5 H 0.3151 0.4981 1.6791
C7 C 0.4686(6) 0.5066(6) 1.5536(6)
C8 C 0.4757(8) 0.1578(7) 1.1580(6)
C9 C 0.4174(8) 0.0777(7) 1.2314(7)
H6 H 0.3378 0.1126 1.2786
H7 H 0.4108 0.0319 1.1901
C10 C 0.4567(7) 0.0553(6) 1.3854(7)
C11 C 0.3878(7) 0.1514(7) 1.4198(7)
H8 H 0.3567 0.1989 1.3764
C12 C 0.3631(8) 0.1796(7) 1.5198(8)
H9 H 0.3136 0.2451 1.5419
C13 C 0.4079(7) 0.1162(6) 1.5848(7)
H10 H 0.3876 0.1368 1.6516
C14 C 0.4882(7) 0.0152(6) 1.5503(6)
C15 C 0.4155(7) 0.3141(7) 0.8835(6)
C16 C 0.3405(7) 0.3064(7) 0.8288(7)
H11 H 0.3889 0.3021 0.7539
H12 H 0.3175 0.2426 0.8532
C17 C 0.1467(7) 0.4002(7) 0.9446(7)
C18 C 0.1475(8) 0.3372(7) 1.0314(7)
H13 H 0.2102 0.2779 1.0250
C19 C 0.0537(7) 0.3621(7) 1.1295(7)
H14 H 0.0557 0.3208 1.1889
C20 C -0.0416(7) 0.4474(7) 1.1386(7)
H15 H -0.1028 0.4636 1.2045
C21 C -0.0482(6) 0.5113(6) 1.0493(6)
C22 C 0.9101(7) 0.2776(6) 0.8230(7)
C23 C 1.0261(7) 0.3082(7) 0.7642(6)
H16 H 1.0219 0.3663 0.7981
H17 H 1.0909 0.2507 0.7696
C24 C 0.9913(6) 0.4333(6) 0.6289(6)
C25 C 0.9081(7) 0.5045(6) 0.6993(6)
H18 H 0.8841 0.4895 0.7713
C26 C 0.8595(7) 0.6013(7) 0.6606(7)
H19 H 0.8036 0.6514 0.7081
C27 C 0.8909(7) 0.6250(6) 0.5557(7)
H20 H 0.8587 0.6910 0.5327
C28 C 0.9732(6) 0.5485(6) 0.4812(6)
C29 C 0.8005(8) 0.0415(7) 0.8756(7)
C30 C 0.8721(8) -0.0672(6) 0.8289(7)
H21 H 0.9510 -0.0849 0.8278
H22 H 0.8334 -0.1185 0.8737
C31 C 0.9531(7) -0.0156(6) 0.6455(6)
C32 C 1.0105(7) 0.0425(6) 0.6627(7)
H23 H 1.0034 0.0480 0.7302
C33 C 1.0820(7) 0.0950(7) 0.5744(7)
H24 H 1.1212 0.1355 0.5853
C34 C 1.0942(7) 0.0876(6) 0.4757(7)
H25 H 1.1411 0.1228 0.4197
C35 C 1.0362(6) 0.0269(6) 0.4574(6)
C36 C 0.6747(7) 0.1736(6) 0.6366(6)
H26 H 0.6241 0.1423 0.6935
C37 C 0.8013(7) 0.2734(6) 0.5722(6)
H27 H 0.8416 0.3128 0.5831
C38 C 0.8196(7) 0.2627(6) 0.4708(6)
H28 H 0.8719 0.2935 0.4149
C39 C 0.7606(6) 0.2063(6) 0.4526(6)
C40 C 0.6886(7) 0.1587(7) 0.5395(6)
H29 H 0.6499 0.1165 0.5307
C41 C 0.7688(6) 0.1952(6) 0.3456(6)
C42 C 0.7412(7) 0.1166(6) 0.3212(6)
H30 H 0.7227 0.0633 0.3708
C43 C 0.7406(8) 0.1160(7) 0.2245(7)
H31 H 0.7181 0.0631 0.2118
C44 C 0.8049(7) 0.2596(6) 0.1667(6)
H32 H 0.8299 0.3082 0.1133
C45 C 0.8053(7) 0.2663(7) 0.2636(6)
H33 H 0.8303 0.3189 0.2738
N1 N 0.7288(5) 0.2303(5) 0.6563(5)
N2 N 0.7704(6) 0.1871(5) 0.1473(5)
O1 O 0.5122(4) 0.2425(4) 0.8620(4)
O2 O 0.3801(5) 0.3860(4) 0.9438(4)
O4 O 0.3986(5) 0.4788(4) 1.1146(4)
O6 O 0.3805(5) 0.5841(4) 1.2290(4)
O7 O 0.4056(5) 0.2388(5) 1.1415(5)
O8 O 0.5830(5) 0.1380(5) 1.1198(5)
O9 O 0.7327(5) 0.1023(4) 0.8407(4)
O10 O 0.8212(5) 0.0533(4) 0.9526(4)
O11 O 0.8516(4) 0.2777(4) 0.7724(4)
O12 O 0.8875(5) 0.2510(5) 0.9186(5)
O13 O 0.8815(5) -0.0700(4) 0.7243(4)
O14 O 1.0515(4) 0.3361(4) 0.6556(4)
O15 O 0.5470(5) 0.4471(5) 1.2870(4)
O16 O 0.4822(5) 0.0162(4) 1.2931(5)
O17 O 0.2375(5) 0.3892(4) 0.8449(4)
O18 O 0.6362(4) 0.3096(4) 0.9688(4)
Zn1 Zn 0.68671(8) 0.26092(7) 0.81010(7)
Zn2 Zn 0.46218(8) 0.34844(7) 1.04087(7)
Zn3 Zn 0.74480(8) 0.19107(7) 1.01438(7)
C1A C 0.5794(7) 0.5006(6) 1.8114(6)
C2A C 0.4947(8) 0.5869(7) 1.7756(7)
H1A H 0.5346 0.6393 1.7355
H2A H 0.4273 0.6191 1.8370
C3A C 0.5225(7) 0.5377(6) 1.6073(6)
C4A C 0.6323(8) 0.5511(6) 1.5570(7)
H3A H 0.6680 0.5683 1.5939
C5A C 0.6916(7) 0.5386(7) 1.4478(7)
H4A H 0.7660 0.5503 1.4124
C6A C 0.6439(7) 0.5102(6) 1.3930(7)
H5A H 0.6849 0.5019 1.3209
C7A C 0.5314(6) 0.4934(6) 1.4464(6)
C8A C 0.5243(8) -0.1578(7) 1.8420(6)
C9A C 0.5826(8) -0.0777(7) 1.7686(7)
H6A H 0.6622 -0.1126 1.7214
H7A H 0.5892 -0.0319 1.8099
C10A C 0.5433(7) -0.0553(6) 1.6146(7)
C11A C 0.6122(7) -0.1514(7) 1.5802(7)
H8A H 0.6433 -0.1989 1.6236
C12A C 0.6369(8) -0.1796(7) 1.4802(8)
H9A H 0.6864 -0.2451 1.4581
C13A C 0.5921(7) -0.1162(6) 1.4152(7)
H10A H 0.6124 -0.1368 1.3484
C14A C 0.5118(7) -0.0152(6) 1.4497(6)
C15A C -0.4155(7) 0.6859(7) 1.1165(6)
C16A C -0.3405(7) 0.6936(7) 1.1712(7)
H11A H -0.3889 0.6979 1.2461
H12A H -0.3175 0.7574 1.1468
C17A C -0.1467(7) 0.5998(7) 1.0554(7)
C18A C -0.1475(8) 0.6628(7) 0.9686(7)
H13A H -0.2102 0.7221 0.9750
C19A C -0.0537(7) 0.6379(7) 0.8705(7)
H14A H -0.0557 0.6792 0.8111
C20A C 0.0416(7) 0.5526(7) 0.8614(7)
H15A H 0.1028 0.5364 0.7955
C21A C 0.0482(6) 0.4887(6) 0.9507(6)
C22A C 1.0899(7) 0.7224(6) 0.1770(7)
C23A C 0.9739(7) 0.6918(7) 0.2358(6)
H16A H 0.9781 0.6337 0.2019
H17A H 0.9091 0.7493 0.2304
C24A C 1.0087(6) 0.5667(6) 0.3711(6)
C25A C 1.0919(7) 0.4955(6) 0.3007(6)
H18A H 1.1159 0.5105 0.2287
C26A C 1.1405(7) 0.3987(7) 0.3394(7)
H19A H 1.1964 0.3486 0.2919
C27A C 1.1091(7) 0.3750(6) 0.4443(7)
H20A H 1.1413 0.3090 0.4673
C28A C 1.0268(6) 0.4515(6) 0.5188(6)
C29A C 1.1995(8) -0.0415(7) 0.1244(7)
C30A C 1.1279(8) 0.0672(6) 0.1711(7)
H21A H 1.0490 0.0849 0.1722
H22A H 1.1666 0.1185 0.1263
C31A C 1.0469(7) 0.0156(6) 0.3545(6)
C32A C 0.9895(7) -0.0425(6) 0.3373(7)
H23A H 0.9966 -0.0480 0.2698
C33A C 0.9180(7) -0.0950(7) 0.4256(7)
H24A H 0.8788 -0.1355 0.4147
C34A C 0.9058(7) -0.0876(6) 0.5243(7)
H25A H 0.8589 -0.1228 0.5803
C35A C 0.9638(6) -0.0269(6) 0.5426(6)
C36A C -0.6747(7) 0.8264(6) 1.3634(6)
H26A H -0.6241 0.8577 1.3065
C37A C -0.8013(7) 0.7266(6) 1.4278(6)
H27A H -0.8416 0.6872 1.4169
C38A C -0.8196(7) 0.7373(6) 1.5292(6)
H28A H -0.8719 0.7065 1.5851
C39A C -0.7606(6) 0.7937(6) 1.5474(6)
C40A C -0.6886(7) 0.8413(7) 1.4605(6)
H29A H -0.6499 0.8835 1.4693
C41A C -0.7688(6) 0.8048(6) 1.6544(6)
C42A C -0.7412(7) 0.8834(6) 1.6788(6)
H30A H -0.7227 0.9367 1.6292
C43A C -0.7406(8) 0.8840(7) 1.7755(7)
H31A H -0.7181 0.9369 1.7882
C44A C -0.8049(7) 0.7404(6) 1.8333(6)
H32A H -0.8299 0.6918 1.8867
C45A C -0.8053(7) 0.7337(7) 1.7364(6)
H33A H -0.8303 0.6811 1.7262
N1A N -0.7288(5) 0.7697(5) 1.3437(5)
N2A N -0.7704(6) 0.8129(5) 1.8527(5)
N2_2 N 0.7704(6) 0.1871(5) 1.1473(5)
N2A_2 N -0.7704(6) 0.8129(5) 0.8527(5)
O1A O -0.5122(4) 0.7575(4) 1.1380(4)
O2A O -0.3801(5) 0.6140(4) 1.0562(4)
O4A O 0.6014(5) 0.5212(4) 1.8854(4)
O4A_2 O -0.3986(5) 0.5212(4) 0.8854(4)
O6A O 0.6195(5) 0.4159(4) 1.7710(4)
O6_2 O -0.6195(5) 0.5841(4) 1.2290(4)
O6A_2 O 0.6195(5) 0.4159(4) 0.7710(4)
O7A O 0.5944(5) -0.2388(5) 1.8585(5)
O7A_2 O -0.4056(5) 0.7612(5) 0.8585(5)
O8A O 0.4170(5) -0.1380(5) 1.8802(5)
O8A_2 O -0.5830(5) 0.8620(5) 0.8802(5)
O9A O 1.2673(5) -0.1023(4) 0.1593(4)
O9A_2 O -0.7327(5) 0.8977(4) 1.1593(4)
O10A O 1.1788(5) -0.0533(4) 0.0474(4)
O10A_2 O -0.8212(5) 0.9467(4) 1.0474(4)
O11A O 1.1484(4) 0.7223(4) 0.2276(4)
O11A_2 O -0.8516(4) 0.7223(4) 1.2276(4)
O12A O 1.1125(5) 0.7490(5) 0.0814(5)
O12A_2 O -0.8875(5) 0.7490(5) 1.0814(5)
O13A O 1.1185(5) 0.0700(4) 0.2757(4)
O14A O 0.9485(4) 0.6639(4) 0.3444(4)
O15A O 0.4530(5) 0.5529(5) 1.7130(4)
O16A O 0.5178(5) -0.0162(4) 1.7069(5)
O17A O -0.2375(5) 0.6108(4) 1.1551(4)
O18A O -0.6362(4) 0.6904(4) 1.0312(4)
Zn1A Zn -0.68671(8) 0.73908(7) 1.18990(7)
Zn1_2 Zn 0.68671(8) 0.26092(7) 1.81010(7)
Zn1A_2 Zn 0.31329(8) 0.73908(7) 1.18990(7)
Zn1A_3 Zn 1.31329(8) -0.26092(7) 0.18990(7)
Zn1A_4 Zn 1.31329(8) 0.73908(7) 0.18990(7)
Zn2A Zn -0.46218(8) 0.65156(7) 0.95913(7)
Zn2A_2 Zn 0.53782(8) -0.34844(7) 1.95913(7)
Zn2A_3 Zn 0.53782(8) 0.65156(7) 1.95913(7)
Zn3A Zn -0.74480(8) 0.80893(7) 0.98562(7)
Zn3_2 Zn 0.74480(8) 0.19107(7) 0.01438(7)
Zn3A_2 Zn -0.74480(8) 0.80893(7) 1.98562(7)
Zn3A_3 Zn 0.25520(8) -0.19107(7) 1.98562(7)
Zn3A_4 Zn 1.25520(8) -0.19107(7) -0.01438(7)
Zn3A_5 Zn 1.25520(8) 0.80893(7) -0.01438(7)
O3 O 0.4126(16) 0.0688(15) 0.9793(16)
O5 O 0.8698(12) -0.1219(11) 1.0891(12)
loop_
_geom_bond_atom_site_label_1
_geom_bond_atom_site_label_2
_geom_bond_site_symmetry_1
_geom_bond_site_symmetry_2
C1 C2 1_555 1_555
C2 H1 1_555 1_555
H2 C2 1_555 1_555
C3 C4 1_555 1_555
C4 H3 1_555 1_555
C5 C4 1_555 1_555
H4 C5 1_555 1_555
C6 C5 1_555 1_555
H5 C6 1_555 1_555
C7 C6 1_555 1_555
C8 C9 1_555 1_555
C9 H6 1_555 1_555
H7 C9 1_555 1_555
C10 C11 1_555 1_555
C11 H8 1_555 1_555
C12 C11 1_555 1_555
H9 C12 1_555 1_555
C13 C12 1_555 1_555
H10 C13 1_555 1_555
C14 C13 1_555 1_555
C15 C16 1_555 1_555
C16 H11 1_555 1_555
H12 C16 1_555 1_555
C17 C18 1_555 1_555
C18 H13 1_555 1_555
C19 C18 1_555 1_555
H14 C19 1_555 1_555
C20 C19 1_555 1_555
H15 C20 1_555 1_555
C21 C20 1_555 1_555
C22 C23 1_555 1_555
C23 H16 1_555 1_555
H17 C23 1_555 1_555
C24 C25 1_555 1_555
C25 H18 1_555 1_555
C26 C25 1_555 1_555
H19 C26 1_555 1_555
C27 C26 1_555 1_555
H20 C27 1_555 1_555
C28 C27 1_555 1_555
C29 C30 1_555 1_555
C30 H21 1_555 1_555
H22 C30 1_555 1_555
C31 C32 1_555 1_555
C32 H23 1_555 1_555
C33 C32 1_555 1_555
H24 C33 1_555 1_555
C34 C33 1_555 1_555
H25 C34 1_555 1_555
C35 C34 1_555 1_555
C36 H26 1_555 1_555
C37 H27 1_555 1_555
C38 C37 1_555 1_555
H28 C38 1_555 1_555
C39 C38 1_555 1_555
C40 C36 1_555 1_555
H29 C40 1_555 1_555
C41 C39 1_555 1_555
C42 C41 1_555 1_555
H30 C42 1_555 1_555
C43 C42 1_555 1_555
H31 C43 1_555 1_555
C44 H32 1_555 1_555
C45 C41 1_555 1_555
H33 C45 1_555 1_555
N1 C36 1_555 1_555
N2 C43 1_555 1_555
O1 C15 1_555 1_555
O2 C15 1_555 1_555
O4 C1 1_555 1_555
O6 C1 1_555 1_555
O7 C8 1_555 1_555
O8 C8 1_555 1_555
O9 C29 1_555 1_555
O10 C29 1_555 1_555
O11 C22 1_555 1_555
O12 C22 1_555 1_555
O13 C30 1_555 1_555
O14 C23 1_555 1_555
O15 C2 1_555 1_555
O16 C9 1_555 1_555
O17 C16 1_555 1_555
O18 Zn1 1_555 1_555
Zn1 N1 1_555 1_555
Zn2 O2 1_555 1_555
Zn3 O8 1_555 1_555
C1A C2A 1_555 1_555
C2A H1A 1_555 1_555
H2A C2A 1_555 1_555
C3A C7 1_555 1_555
C4A C3A 1_555 1_555
H3A C4A 1_555 1_555
C5A C4A 1_555 1_555
H4A C5A 1_555 1_555
C6A C5A 1_555 1_555
H5A C6A 1_555 1_555
C7A C3 1_555 1_555
C8A C9A 1_555 1_555
C9A H6A 1_555 1_555
H7A C9A 1_555 1_555
C10A C14 1_555 1_555
C11A C10A 1_555 1_555
H8A C11A 1_555 1_555
C12A C11A 1_555 1_555
H9A C12A 1_555 1_555
C13A C12A 1_555 1_555
H10A C13A 1_555 1_555
C14A C10 1_555 1_555
C15A C16A 1_555 1_555
C16A H11A 1_555 1_555
H12A C16A 1_555 1_555
C17A C21 1_555 1_555
C18A C17A 1_555 1_555
H13A C18A 1_555 1_555
C19A C18A 1_555 1_555
H14A C19A 1_555 1_555
C20A C19A 1_555 1_555
H15A C20A 1_555 1_555
C21A C17 1_555 1_555
C22A C23A 1_555 1_555
C23A H16A 1_555 1_555
H17A C23A 1_555 1_555
C24A C28 1_555 1_555
C25A C24A 1_555 1_555
H18A C25A 1_555 1_555
C26A C25A 1_555 1_555
H19A C26A 1_555 1_555
C27A C26A 1_555 1_555
H20A C27A 1_555 1_555
C28A C24 1_555 1_555
C29A C30A 1_555 1_555
C30A H21A 1_555 1_555
H22A C30A 1_555 1_555
C31A C35 1_555 1_555
C32A C31A 1_555 1_555
H23A C32A 1_555 1_555
C33A C32A 1_555 1_555
H24A C33A 1_555 1_555
C34A C33A 1_555 1_555
H25A C34A 1_555 1_555
C35A C31 1_555 1_555
C36A H26A 1_555 1_555
C37A H27A 1_555 1_555
C38A C37A 1_555 1_555
H28A C38A 1_555 1_555
C39A C38A 1_555 1_555
C40A C36A 1_555 1_555
H29A C40A 1_555 1_555
C41A C39A 1_555 1_555
C42A C41A 1_555 1_555
H30A C42A 1_555 1_555
C43A C42A 1_555 1_555
H31A C43A 1_555 1_555
C44A H32A 1_555 1_555
C45A C41A 1_555 1_555
H33A C45A 1_555 1_555
N1A C36A 1_555 1_555
N2A C43A 1_555 1_555
N2_2 Zn3 1_555 1_555
N2A_2 Zn3A 1_555 1_555
O1A C15A 1_555 1_555
O2A C15A 1_555 1_555
O4A C1A 1_555 1_555
O4A_2 Zn2A 1_555 1_555
O6A C1A 1_555 1_555
O6_2 Zn1A 1_555 1_555
O6A_2 Zn1 1_555 1_555
O7A C8A 1_555 1_555
O7A_2 Zn2A 1_555 1_555
O8A C8A 1_555 1_555
O8A_2 Zn3A 1_555 1_555
O9A C29A 1_555 1_555
O9A_2 Zn1A 1_555 1_555
O10A C29A 1_555 1_555
O10A_2 Zn3A 1_555 1_555
O11A C22A 1_555 1_555
O11A_2 Zn1A 1_555 1_555
O12A C22A 1_555 1_555
O12A_2 Zn3A 1_555 1_555
O13A C30A 1_555 1_555
O14A C23A 1_555 1_555
O15A C2A 1_555 1_555
O16A C9A 1_555 1_555
O17A C16A 1_555 1_555
O18A Zn1A 1_555 1_555
Zn1A N1A 1_555 1_555
Zn1_2 O6A 1_555 1_555
Zn1A_2 O6 1_555 1_555
Zn1A_3 O9A 1_555 1_555
Zn1A_4 O11A 1_555 1_555
Zn2A O2A 1_555 1_555
Zn2A_2 O7A 1_555 1_555
Zn2A_3 O4A 1_555 1_555
Zn3A O18A 1_555 1_555
Zn3_2 N2 1_555 1_555
Zn3A_2 N2A 1_555 1_555
Zn3A_3 O8A 1_555 1_555
Zn3A_4 O10A 1_555 1_555
Zn3A_5 O12A 1_555 1_555
C3 O15 1_555 1_555
C7 C7A 1_555 1_555
C10 O16 1_555 1_555
C14 C14A 1_555 1_555
C17 O17 1_555 1_555
C21 C21A 1_555 1_555
C24 O14 1_555 1_555
C28 C28A 1_555 1_555
C31 O13 1_555 1_555
C35 C35A 1_555 1_555
C37 N1 1_555 1_555
C39 C40 1_555 1_555
C44 C45 1_555 1_555
C44 N2 1_555 1_555
O1 Zn1 1_555 1_555
O4 Zn2 1_555 1_555
O7 Zn2 1_555 1_555
O9 Zn1 1_555 1_555
O10 Zn3 1_555 1_555
O11 Zn1 1_555 1_555
O12 Zn3 1_555 1_555
O18 Zn2 1_555 1_555
O18 Zn3 1_555 1_555
C3A O15A 1_555 1_555
C6A C7A 1_555 1_555
C10A O16A 1_555 1_555
C13A C14A 1_555 1_555
C17A O17A 1_555 1_555
C20A C21A 1_555 1_555
C24A O14A 1_555 1_555
C27A C28A 1_555 1_555
C31A O13A 1_555 1_555
C34A C35A 1_555 1_555
C37A N1A 1_555 1_555
C39A C40A 1_555 1_555
C44A C45A 1_555 1_555
C44A N2A 1_555 1_555
O1A Zn1A 1_555 1_555
O18A Zn2A 1_555 1_555

#END
