
#######################################################################
#
#                 Cambridge Crystallographic Data Centre
#                                CCDC 
#
#######################################################################
#
# If this CIF has been generated from an entry in the Cambridge 
# Structural Database, then it will include bibliographic, chemical, 
# crystal, experimental, refinement or atomic coordinate data resulting 
# from the CCDC's data processing and validation procedures.
#
#######################################################################

data_PASJIE
_symmetry_cell_setting           monoclinic
_symmetry_space_group_name_H-M   'P 2/c'
_symmetry_Int_Tables_number      13
_space_group_name_Hall           '-P 2yc'
loop_
_symmetry_equiv_pos_site_id
_symmetry_equiv_pos_as_xyz
1 x,y,z
2 -x,y,1/2-z
3 -x,-y,-z
4 x,-y,1/2+z
_cell_length_a                   23.039(2)
_cell_length_b                   8.7560(6)
_cell_length_c                   21.7481(19)
_cell_angle_alpha                90
_cell_angle_beta                 109.477(5)
_cell_angle_gamma                90
_cell_volume                     4136.18
loop_
_atom_site_label
_atom_site_type_symbol
_atom_site_fract_x
_atom_site_fract_y
_atom_site_fract_z
Cu1 Cu 0.25290(2) 0.62591(5) 0.371934(19)
O1 O 0.24745(14) 0.6324(3) 0.46172(13)
N1 N 0.26477(18) 0.2248(4) 0.56703(16)
C1 C 0.2391(3) 0.6417(5) 0.5843(2)
H1 H 0.2335 0.7323 0.5589
Cu2 Cu 0.19609(3) 0.19685(6) 0.47981(2)
O2 O 0.22752(16) 0.3858(3) 0.45085(13)
N2 N 0.1274(2) 0.1670(5) 0.39684(19)
C2 C 0.2463(2) 0.5031(4) 0.55629(18)
O3 O 0.2377(2) 0.6445(4) 0.77835(16)
N3 N 0.16060(16) 0.6519(5) 0.32974(17)
C3 C 0.25597(19) 0.3706(4) 0.59494(18)
O4 O 0.26183(13) 0.3999(3) 0.78580(12)
N4 N 0.34219(15) 0.5761(4) 0.41633(15)
C4 C 0.2565(2) 0.3812(4) 0.65862(19)
H2 H 0.2625 0.2914 0.6844
O5 O 0.3712(2) 0.0663(6) 0.4935(2)
C5 C 0.24870(19) 0.5199(4) 0.68571(18)
O6 O 0.26920(19) 0.0615(4) 0.46461(17)
C6 C 0.2399(3) 0.6511(5) 0.6477(2)
H3 H 0.2344 0.7470 0.6655
O7 O 0.1543(2) 0.0936(5) 0.53233(17)
C7 C 0.24017(19) 0.5057(5) 0.48469(19)
O8 O 0.1694(2) 0.0108(6) 0.6321(2)
C8 C 0.2493(2) 0.5255(5) 0.75545(18)
O9 O 0.26862(17) 0.8729(3) 0.36699(14)
C9 C 0.3253(2) 0.2154(6) 0.5558(2)
H4 H 0.3574 0.1807 0.5963
H5 H 0.3370 0.3181 0.5449
C10 C 0.3220(3) 0.1030(7) 0.4996(3)
C11 C 0.2552(3) 0.0894(5) 0.6039(2)
H6 H 0.2737 -0.0021 0.5911
H7 H 0.2757 0.1062 0.6513
C12 C 0.1888(3) 0.0639(6) 0.5903(3)
C13 C 0.0729(3) 0.1210(8) 0.3961(3)
H8 H 0.0681 0.0893 0.4359
C14 C 0.0214(3) 0.1166(9) 0.3390(3)
H9 H -0.0174 0.0858 0.3411
C15 C 0.0269(3) 0.1562(8) 0.2808(2)
C16 C 0.0854(3) 0.1991(10) 0.2813(3)
H10 H 0.0918 0.2252 0.2416
C17 C 0.1342(3) 0.2038(9) 0.3396(2)
H11 H 0.1737 0.2337 0.3390
C18 C 0.1206(3) 0.6087(10) 0.3573(3)
H12 H 0.1360 0.5649 0.3997
C19 C 0.0577(3) 0.6228(11) 0.3290(3)
H13 H 0.0314 0.5965 0.3530
C20 C 0.0334(2) 0.6747(6) 0.2666(2)
C21 C 0.0750(3) 0.7265(8) 0.2381(3)
H14 H 0.0604 0.7720 0.1961
C22 C 0.1373(2) 0.7133(7) 0.2699(3)
H15 H 0.1648 0.7487 0.2488
C23 C 0.3800(2) 0.6804(6) 0.4550(3)
H16 H 0.3634 0.7769 0.4602
C24 C 0.4398(3) 0.6549(7) 0.4864(4)
H17 H 0.4642 0.7343 0.5120
C25 C 0.46721(19) 0.5156(5) 0.4826(2)
C26 C 0.4279(2) 0.4067(6) 0.4446(3)
H18 H 0.4430 0.3076 0.4405
C27 C 0.3674(2) 0.4408(6) 0.4128(3)
H19 H 0.3418 0.3637 0.3867
Cu1A Cu -0.25290(2) 0.62591(5) 0.128066(19)
Cu1B Cu -0.25290(2) 0.37409(5) -0.371934(19)
Cu1B_2 Cu 0.74710(2) 0.37409(5) 0.628066(19)
Cu1C Cu 0.25290(2) 0.37409(5) 0.871934(19)
O1A O -0.24745(14) 0.6324(3) 0.03828(13)
N1A N -0.26477(18) 0.2248(4) -0.06703(16)
C1A C -0.2391(3) 0.6417(5) -0.0843(2)
H1A H -0.2335 0.7323 -0.0589
Cu2A Cu -0.19609(3) 0.19685(6) 0.02019(2)
O2A O -0.22752(16) 0.3858(3) 0.04915(13)
N2A N -0.1274(2) 0.1670(5) 0.10316(19)
C2A C -0.2463(2) 0.5031(4) -0.05629(18)
O3A O -0.2377(2) 0.6445(4) -0.27835(16)
N3A N -0.16060(16) 0.6519(5) 0.17026(17)
C3A C -0.25597(19) 0.3706(4) -0.09494(18)
O4A O -0.26183(13) 0.3999(3) -0.28580(12)
O4B O -0.26183(13) 0.6001(3) 0.21420(12)
O4C O 0.26183(13) 0.6001(3) 0.28580(12)
N4B N 0.65781(15) 0.4239(4) 0.58367(15)
N4A N -0.34219(15) 0.5761(4) 0.08367(15)
C4A C -0.2565(2) 0.3812(4) -0.15862(19)
H2A H -0.2625 0.2914 -0.1844
O5A O -0.3712(2) 0.0663(6) 0.0065(2)
C5A C -0.24870(19) 0.5199(4) -0.18571(18)
O6A O -0.26920(19) 0.0615(4) 0.03539(17)
C6A C -0.2399(3) 0.6511(5) -0.1477(2)
H3A H -0.2344 0.7470 -0.1655
O7A O -0.1543(2) 0.0936(5) -0.03233(17)
C7A C -0.24017(19) 0.5057(5) 0.01531(19)
O8A O -0.1694(2) 0.0108(6) -0.1321(2)
C8A C -0.2493(2) 0.5255(5) -0.25545(18)
O9A O -0.26862(17) 0.8729(3) 0.13301(14)
C9A C -0.3253(2) 0.2154(6) -0.0558(2)
H4A H -0.3574 0.1807 -0.0963
H5A H -0.3370 0.3181 -0.0449
C10A C -0.3220(3) 0.1030(7) 0.0004(3)
C11A C -0.2552(3) 0.0894(5) -0.1039(2)
H6A H -0.2737 -0.0021 -0.0911
H7A H -0.2757 0.1062 -0.1513
C12A C -0.1888(3) 0.0639(6) -0.0903(3)
C13A C -0.0729(3) 0.1210(8) 0.1039(3)
H8A H -0.0681 0.0893 0.0641
C14A C -0.0214(3) 0.1166(9) 0.1610(3)
H9A H 0.0174 0.0858 0.1589
C15A C -0.0269(3) 0.1562(8) 0.2192(2)
C16A C -0.0854(3) 0.1991(10) 0.2187(3)
H10A H -0.0918 0.2252 0.2584
C17A C -0.1342(3) 0.2038(9) 0.1604(2)
H11A H -0.1737 0.2337 0.1610
C18A C -0.1206(3) 0.6087(10) 0.1427(3)
H12A H -0.1360 0.5649 0.1003
C19A C -0.0577(3) 0.6228(11) 0.1710(3)
H13A H -0.0314 0.5965 0.1470
C20A C -0.0334(2) 0.6747(6) 0.2334(2)
C21A C -0.0750(3) 0.7265(8) 0.2619(3)
H14A H -0.0604 0.7720 0.3039
C22A C -0.1373(2) 0.7133(7) 0.2301(3)
H15A H -0.1648 0.7487 0.2512
C23B C 0.6200(2) 0.3196(6) 0.5450(3)
H16B H 0.6366 0.2231 0.5398
C24B C 0.5602(3) 0.3451(7) 0.5136(4)
H17B H 0.5358 0.2657 0.4880
C25B C 0.53279(19) 0.4844(5) 0.5174(2)
C26B C 0.5721(2) 0.5933(6) 0.5554(3)
H18B H 0.5570 0.6924 0.5595
C27B C 0.6326(2) 0.5592(6) 0.5872(3)
H19B H 0.6582 0.6363 0.6133
N5 N -0.0809(5) 0.4201(14) 0.4499(6)
O10 O -0.1025(6) 0.5664(12) 0.5201(5)
C28 C -0.0769(10) 0.387(3) 0.3843(10)
H20 H -0.0943 0.4722 0.3548
H21 H -0.1000 0.2933 0.3669
H22 H -0.0337 0.3724 0.3879
C29 C -0.0733(12) 0.290(3) 0.4883(12)
H23 H -0.1137 0.2512 0.4867
H24 H -0.0489 0.3148 0.5335
H25 H -0.0519 0.2112 0.4718
C30 C -0.0904(7) 0.5461(15) 0.4741(7)
H26 H -0.0868 0.6352 0.4507
O11 O 0.0393(7) 0.0919(18) 0.5762(9)
O12 O 0.4070(4) 0.0428(9) 0.3813(4)
O13 O 0.5243(6) -0.042(3) 0.4104(10)
O14 O 0.3659(6) 0.1886(16) 0.7835(6)
O15 O 0.2321(4) 1.0465(5) 0.2588(2)
O16 O 0.4138(10) 0.698(2) 0.7047(10)
loop_
_geom_bond_atom_site_label_1
_geom_bond_atom_site_label_2
_geom_bond_site_symmetry_1
_geom_bond_site_symmetry_2
Cu1 O1 1_555 1_555
O1 C7 1_555 1_555
N1 Cu2 1_555 1_555
C1 H1 1_555 1_555
Cu2 O2 1_555 1_555
O2 C7 1_555 1_555
N2 Cu2 1_555 1_555
C2 C1 1_555 1_555
O3 C8 1_555 1_555
N3 Cu1 1_555 1_555
C3 N1 1_555 1_555
O4 C8 1_555 1_555
N4 Cu1 1_555 1_555
C4 C3 1_555 1_555
H2 C4 1_555 1_555
O5 C10 1_555 1_555
N5 C28 1_555 1_555
C5 C4 1_555 1_555
O6 Cu2 1_555 1_555
C6 C1 1_555 1_555
H3 C6 1_555 1_555
O7 Cu2 1_555 1_555
C7 C2 1_555 1_555
O8 C12 1_555 1_555
C8 C5 1_555 1_555
O9 Cu1 1_555 1_555
C9 N1 1_555 1_555
H4 C9 1_555 1_555
H5 C9 1_555 1_555
O10 C30 1_555 1_555
C10 O6 1_555 1_555
C11 N1 1_555 1_555
H6 C11 1_555 1_555
H7 C11 1_555 1_555
C12 O7 1_555 1_555
C13 N2 1_555 1_555
H8 C13 1_555 1_555
C14 C13 1_555 1_555
H9 C14 1_555 1_555
C15 C14 1_555 1_555
C16 C15 1_555 1_555
H10 C16 1_555 1_555
C17 N2 1_555 1_555
H11 C17 1_555 1_555
C18 N3 1_555 1_555
H12 C18 1_555 1_555
C19 C18 1_555 1_555
H13 C19 1_555 1_555
C20 C19 1_555 1_555
C21 C20 1_555 1_555
H14 C21 1_555 1_555
C22 N3 1_555 1_555
H15 C22 1_555 1_555
C23 N4 1_555 1_555
H16 C23 1_555 1_555
C24 C23 1_555 1_555
H17 C24 1_555 1_555
C25 C24 1_555 1_555
C26 C25 1_555 1_555
H18 C26 1_555 1_555
C27 N4 1_555 1_555
H19 C27 1_555 1_555
C28 H20 1_555 1_555
H21 C28 1_555 1_555
H22 C28 1_555 1_555
C29 N5 1_555 1_555
H23 C29 1_555 1_555
H24 C29 1_555 1_555
H25 C29 1_555 1_555
C30 N5 1_555 1_555
H26 C30 1_555 1_555
Cu1A O1A 1_555 1_555
Cu1B O4A 1_555 1_555
Cu1B_2 N4B 1_555 1_555
Cu1C O4 1_555 1_555
O1A C7A 1_555 1_555
N1A Cu2A 1_555 1_555
C1A H1A 1_555 1_555
Cu2A O2A 1_555 1_555
O2A C7A 1_555 1_555
N2A Cu2A 1_555 1_555
C2A C1A 1_555 1_555
O3A C8A 1_555 1_555
N3A Cu1A 1_555 1_555
C3A N1A 1_555 1_555
O4A C8A 1_555 1_555
O4B Cu1A 1_555 1_555
O4C Cu1 1_555 1_555
N4B C23B 1_555 1_555
N4A Cu1A 1_555 1_555
C4A C3A 1_555 1_555
H2A C4A 1_555 1_555
O5A C10A 1_555 1_555
C5A C4A 1_555 1_555
O6A Cu2A 1_555 1_555
C6A C1A 1_555 1_555
H3A C6A 1_555 1_555
O7A Cu2A 1_555 1_555
C7A C2A 1_555 1_555
O8A C12A 1_555 1_555
C8A C5A 1_555 1_555
O9A Cu1A 1_555 1_555
C9A N1A 1_555 1_555
H4A C9A 1_555 1_555
H5A C9A 1_555 1_555
C10A O6A 1_555 1_555
C11A N1A 1_555 1_555
H6A C11A 1_555 1_555
H7A C11A 1_555 1_555
C12A O7A 1_555 1_555
C13A N2A 1_555 1_555
H8A C13A 1_555 1_555
C14A C13A 1_555 1_555
H9A C14A 1_555 1_555
C15A C15 1_555 1_555
C16A C15A 1_555 1_555
H10A C16A 1_555 1_555
C17A N2A 1_555 1_555
H11A C17A 1_555 1_555
C18A N3A 1_555 1_555
H12A C18A 1_555 1_555
C19A C18A 1_555 1_555
H13A C19A 1_555 1_555
C20A C20 1_555 1_555
C21A C20A 1_555 1_555
H14A C21A 1_555 1_555
C22A N3A 1_555 1_555
H15A C22A 1_555 1_555
C23B H16B 1_555 1_555
C24B C23B 1_555 1_555
H17B C24B 1_555 1_555
C25B C25 1_555 1_555
C26B C25B 1_555 1_555
H18B C26B 1_555 1_555
C27B N4B 1_555 1_555
H19B C27B 1_555 1_555
C2 C3 1_555 1_555
C5 C6 1_555 1_555
C9 C10 1_555 1_555
C11 C12 1_555 1_555
C16 C17 1_555 1_555
C21 C22 1_555 1_555
C26 C27 1_555 1_555
C2A C3A 1_555 1_555
C5A C6A 1_555 1_555
C9A C10A 1_555 1_555
C11A C12A 1_555 1_555
C14A C15A 1_555 1_555
C16A C17A 1_555 1_555
C19A C20A 1_555 1_555
C21A C22A 1_555 1_555
C24B C25B 1_555 1_555
C26B C27B 1_555 1_555

#END
