
#######################################################################
#
#                 Cambridge Crystallographic Data Centre
#                                CCDC 
#
#######################################################################
#
# If this CIF has been generated from an entry in the Cambridge 
# Structural Database, then it will include bibliographic, chemical, 
# crystal, experimental, refinement or atomic coordinate data resulting 
# from the CCDC's data processing and validation procedures.
#
#######################################################################

data_PASKEB
_symmetry_cell_setting           triclinic
_symmetry_space_group_name_H-M   'P -1'
_symmetry_Int_Tables_number      2
_space_group_name_Hall           '-P 1'
loop_
_symmetry_equiv_pos_site_id
_symmetry_equiv_pos_as_xyz
1 x,y,z
2 -x,-y,-z
_cell_length_a                   7.4527(4)
_cell_length_b                   11.7415(6)
_cell_length_c                   12.1560(6)
_cell_angle_alpha                90.2620(10)
_cell_angle_beta                 103.3540(10)
_cell_angle_gamma                103.3080(10)
_cell_volume                     1005.29
loop_
_atom_site_label
_atom_site_type_symbol
_atom_site_fract_x
_atom_site_fract_y
_atom_site_fract_z
O1 O 1.0435(3) 0.69704(19) 0.5247(2)
C1 C 1.1075(4) 0.7807(3) 0.4707(3)
O2 O 1.2226(4) 0.7824(2) 0.4098(2)
O3 O -0.2908(4) 0.6847(2) 0.8443(2)
Cd1 Cd 0.0000 0.5000 0.5000
Cd2 Cd 0.45024(3) 0.657897(19) 0.670697(18)
Cd3 Cd -0.33112(3) 0.363727(19) 0.646959(19)
C2 C 0.0968(4) 0.5232(3) 0.7814(3)
C3 C 0.7162(4) 0.7838(3) 0.5062(3)
O4 O -0.0142(3) 0.4768(2) 0.69123(19)
O5 O 0.3120(3) 0.54112(18) 0.51673(17)
N1 N 0.2807(5) 0.9696(3) 0.7801(3)
O6 O -0.3612(3) 0.5239(2) 0.73685(19)
O7 O -0.3396(4) 0.2644(2) 0.8080(2)
O8 O 0.2613(3) 0.5827(2) 0.7894(2)
C4 C 0.8684(4) 0.8936(3) 0.5019(3)
O9 O 0.6719(4) 0.7741(2) 0.5987(2)
N2 N 0.3945(4) 0.8299(3) 0.7286(3)
C5 C 0.0366(4) 0.5083(3) 0.8920(3)
N3 N 0.4688(6) 1.0177(3) 0.7914(4)
C6 C 0.2404(5) 0.8588(3) 0.7424(3)
H1 H 0.1203 0.8084 0.7278
C7 C 0.5285(6) 0.9306(4) 0.7593(4)
H2 H 0.6546 0.9371 0.7576
C8 C -0.1231(4) 0.5411(3) 0.9119(3)
C9 C 0.1558(4) 0.4674(3) 0.9804(3)
H3 H 0.2609 0.4449 0.9667
C10 C -0.2643(4) 0.5878(3) 0.8248(3)
C11 C 0.8243(4) 1.0001(3) 0.5177(3)
H4 H 0.7053 1.0004 0.5293
C12 C 1.0470(4) 0.8935(3) 0.4834(3)
C13 C 0.0803(6) 1.0184(4) 0.9056(3)
C14 C -0.0229(7) 1.0920(4) 0.9343(4)
H5 H -0.0408 1.1548 0.8902
C15 C 0.1006(7) 0.9253(4) 0.9727(4)
H6 H 0.1681 0.8732 0.9548
C16 C 0.1536(7) 1.0419(4) 0.8005(4)
H7 H 0.0458 1.0300 0.7357
H8 H 0.2207 1.1237 0.8051
O11 O 0.6455(3) 0.7170(2) 0.4193(2)
H9 H -0.3825 0.1905 0.8047
H10 H -0.3688 0.2836 0.8678
H11 H 0.3296 0.4727 0.5277
O1A O 0.9565(3) 1.30296(19) 0.4753(2)
O1_2 O 0.0435(3) 0.69704(19) 0.5247(2)
O1A_2 O -0.0435(3) 0.30296(19) 0.4753(2)
C1A C 0.8925(4) 1.2193(3) 0.5293(3)
O2A O 0.7774(4) 1.2176(2) 0.5902(2)
O2_2 O 0.2226(4) 0.7824(2) 0.4098(2)
O2A_2 O -0.2226(4) 0.2176(2) 0.5902(2)
O3A O 0.2908(4) 0.3153(2) 1.1557(2)
O3_2 O 0.7092(4) 0.6847(2) 0.8443(2)
O3A_2 O -0.7092(4) 0.3153(2) 0.1557(2)
Cd1_2 Cd 0.0000 0.5000 1.5000
Cd1_3 Cd 1.0000 0.5000 0.5000
Cd1_4 Cd 1.0000 1.5000 0.5000
Cd2A Cd -0.45024(3) 0.342103(19) 0.329303(18)
Cd2_2 Cd -0.54976(3) 0.657897(19) 0.670697(18)
Cd2A_2 Cd -0.45024(3) 0.342103(19) 1.329303(18)
Cd2A_3 Cd -0.45024(3) 1.342103(19) 1.329303(18)
Cd2A_4 Cd 0.54976(3) 0.342103(19) 1.329303(18)
Cd2A_5 Cd 1.54976(3) 1.342103(19) 0.329303(18)
Cd3A Cd 0.33112(3) 0.636273(19) 0.353041(19)
Cd3_2 Cd 0.66888(3) 1.363727(19) 0.646959(19)
Cd3_3 Cd 1.66888(3) 1.363727(19) 0.646959(19)
Cd3A_2 Cd 0.33112(3) 0.636273(19) 1.353041(19)
Cd3A_3 Cd 1.33112(3) 0.636273(19) 0.353041(19)
C2A C -0.0968(4) 0.4768(3) 1.2186(3)
C3A C 1.2838(4) 1.2162(3) 0.4938(3)
O4A O 0.0142(3) 0.5232(2) 1.30877(19)
O4A_2 O 0.0142(3) 0.5232(2) 0.30877(19)
O5A O -0.3120(3) 0.45888(18) 0.48327(17)
N1A N -0.2807(5) 1.0304(3) 1.2199(3)
O6A O 0.3612(3) 0.4761(2) 1.26315(19)
O6_2 O 0.6388(3) 0.5239(2) 0.73685(19)
O6A_2 O -0.6388(3) 0.4761(2) 0.26315(19)
O6A_3 O 0.3612(3) 0.4761(2) 0.26315(19)
O7A O 0.3396(4) 0.7356(2) 0.1920(2)
O8A O -0.2613(3) 0.4173(2) 1.2106(2)
O8A_2 O -0.2613(3) 0.4173(2) 0.2106(2)
C4A C 1.1316(4) 1.1064(3) 0.4981(3)
O9A O 1.3281(4) 1.2259(2) 0.4013(2)
O9A_2 O -0.6719(4) 0.2259(2) 0.4013(2)
N2A N -0.3945(4) 1.1701(3) 1.2714(3)
N2A_2 N -0.3945(4) 0.1701(3) 0.2714(3)
C5A C -0.0366(4) 0.4917(3) 1.1080(3)
N3A N -0.4688(6) 0.9823(3) 1.2086(4)
C6A C -0.2404(5) 1.1412(3) 1.2576(3)
H1A H -0.1203 1.1916 1.2722
C7A C -0.5285(6) 1.0694(4) 1.2407(4)
H2A H -0.6546 1.0629 1.2424
C8A C 0.1231(4) 0.4589(3) 1.0881(3)
C9A C -0.1558(4) 0.5326(3) 1.0196(3)
H3A H -0.2609 0.5551 1.0333
C10A C 0.2643(4) 0.4122(3) 1.1752(3)
C10_2 C 0.7357(4) 0.5878(3) 0.8248(3)
C10A_2 C -0.7357(4) 0.4122(3) 0.1752(3)
C11A C 1.1757(4) 0.9999(3) 0.4823(3)
H4A H 1.2947 0.9996 0.4707
C12A C 0.9530(4) 1.1065(3) 0.5166(3)
C13A C -0.0803(6) 0.9816(4) 1.0944(3)
C14A C 0.0229(7) 0.9080(4) 1.0657(4)
H5A H 0.0408 0.8452 1.1098
C15A C -0.1006(7) 1.0747(4) 1.0273(4)
H6A H -0.1681 1.1268 1.0452
C16A C -0.1536(7) 0.9581(4) 1.1995(4)
H7A H -0.0458 0.9700 1.2643
H8A H -0.2207 0.8763 1.1949
O11A O 1.3545(3) 1.2830(2) 0.5807(2)
O11A_2 O -0.6455(3) 0.2830(2) 0.5807(2)
H9A H 0.3825 0.8095 0.1953
H10A H 0.3688 0.7164 0.1322
H11A H -0.3296 0.5273 0.4723
O10 O 0.5253(5) 0.2835(4) -0.0001(3)
H12 H 0.4262 0.2463 0.0191
H13 H 0.5730 0.3239 0.0623
loop_
_geom_bond_atom_site_label_1
_geom_bond_atom_site_label_2
_geom_bond_site_symmetry_1
_geom_bond_site_symmetry_2
O1 C1 1_555 1_555
C1 O2 1_555 1_555
O2 Cd3A_3 1_555 1_555
O3 C10 1_555 1_555
Cd1 O4 1_555 1_555
Cd2 O5 1_555 1_555
Cd3 O4 1_555 1_555
C2 O4 1_555 1_555
C3 C4 1_555 1_555
O5 Cd1 1_555 1_555
N1 N3 1_555 1_555
O6 Cd3 1_555 1_555
O7 Cd3 1_555 1_555
O8 Cd2 1_555 1_555
C4 C11 1_555 1_555
O9 Cd2 1_555 1_555
N2 Cd2 1_555 1_555
C5 C2 1_555 1_555
N3 C7 1_555 1_555
C6 N1 1_555 1_555
H1 C6 1_555 1_555
C7 N2 1_555 1_555
H2 C7 1_555 1_555
C8 C5 1_555 1_555
C9 C5 1_555 1_555
H3 C9 1_555 1_555
C10 O6 1_555 1_555
C11 H4 1_555 1_555
C12 C1 1_555 1_555
C13 C14 1_555 1_555
O10 H12 1_555 1_555
C14 H5 1_555 1_555
C15 C13 1_555 1_555
H6 C15 1_555 1_555
C16 N1 1_555 1_555
H7 C16 1_555 1_555
H8 C16 1_555 1_555
O11 C3 1_555 1_555
H9 O7 1_555 1_555
H10 O7 1_555 1_555
H11 O5 1_555 1_555
H13 O10 1_555 1_555
O1A C1A 1_555 1_555
O1_2 Cd1 1_555 1_555
O1A_2 Cd1 1_555 1_555
C1A O2A 1_555 1_555
O2A Cd3_2 1_555 1_555
O2_2 Cd3A 1_555 1_555
O2A_2 Cd3 1_555 1_555
O3A Cd2A_4 1_555 1_555
O3_2 Cd2 1_555 1_555
O3A_2 Cd2A 1_555 1_555
Cd1_2 O4A 1_555 1_555
Cd1_3 O1 1_555 1_555
Cd1_4 O1A 1_555 1_555
Cd2A O5A 1_555 1_555
Cd2_2 O3 1_555 1_555
Cd2A_2 O8A 1_555 1_555
Cd2A_3 N2A 1_555 1_555
Cd2A_4 O6A 1_555 1_555
Cd2A_5 O9A 1_555 1_555
Cd3A O5 1_555 1_555
Cd3_3 O11A 1_555 1_555
Cd3A_2 O4A 1_555 1_555
C2A O4A 1_555 1_555
C3A C4A 1_555 1_555
O4A_2 Cd1 1_555 1_555
O5A Cd1 1_555 1_555
N1A N3A 1_555 1_555
O6A Cd3A_2 1_555 1_555
O6_2 Cd2 1_555 1_555
O6A_2 Cd2A 1_555 1_555
O6A_3 Cd3A 1_555 1_555
O7A Cd3A 1_555 1_555
O8A C2A 1_555 1_555
O8A_2 Cd2A 1_555 1_555
C4A C11A 1_555 1_555
O9A C3A 1_555 1_555
O9A_2 Cd2A 1_555 1_555
N2A C6A 1_555 1_555
N2A_2 Cd2A 1_555 1_555
C5A C2A 1_555 1_555
N3A C7A 1_555 1_555
C6A N1A 1_555 1_555
H1A C6A 1_555 1_555
C7A N2A 1_555 1_555
H2A C7A 1_555 1_555
C8A C9 1_555 1_555
C9A C8 1_555 1_555
H3A C9A 1_555 1_555
C10A O3A 1_555 1_555
C10_2 O3_2 1_555 1_555
C10A_2 O3A_2 1_555 1_555
C11A C12 1_555 1_555
H4A C11A 1_555 1_555
C12A C11 1_555 1_555
C13A C14A 1_555 1_555
C14A C15 1_555 1_555
H5A C14A 1_555 1_555
C15A C14 1_555 1_555
H6A C15A 1_555 1_555
C16A N1A 1_555 1_555
H7A C16A 1_555 1_555
H8A C16A 1_555 1_555
O11A C3A 1_555 1_555
O11A_2 Cd3 1_555 1_555
H9A O7A 1_555 1_555
H10A O7A 1_555 1_555
H11A O5A 1_555 1_555
Cd3 O5A 1_555 1_555
C2 O8 1_555 1_555
C3 O9 1_555 1_555
O6 Cd2_2 1_555 1_555
C4 C12 1_555 1_555
N2 C6 1_555 1_555
C8 C10 1_555 1_555
C13 C16 1_555 1_555
O11 Cd3A 1_555 1_555
C1A C12A 1_555 1_555
Cd3A O4A_2 1_555 1_555
O6A C10A 1_555 1_555
O6_2 C10_2 1_555 1_555
O6A_2 C10A_2 1_555 1_555
C4A C12A 1_555 1_555
C5A C8A 1_555 1_555
C5A C9A 1_555 1_555
C8A C10A 1_555 1_555
C13A C15A 1_555 1_555
C13A C16A 1_555 1_555

#END
