
#######################################################################
#
#                 Cambridge Crystallographic Data Centre
#                                CCDC 
#
#######################################################################
#
# If this CIF has been generated from an entry in the Cambridge 
# Structural Database, then it will include bibliographic, chemical, 
# crystal, experimental, refinement or atomic coordinate data resulting 
# from the CCDC's data processing and validation procedures.
#
#######################################################################

data_PASKIE
_symmetry_cell_setting           orthorhombic
_symmetry_space_group_name_H-M   'P 21 21 21'
_symmetry_Int_Tables_number      19
_space_group_name_Hall           'P 2ac 2ab'
loop_
_symmetry_equiv_pos_site_id
_symmetry_equiv_pos_as_xyz
1 x,y,z
2 1/2-x,-y,1/2+z
3 -x,1/2+y,1/2-z
4 1/2+x,1/2-y,-z
_cell_length_a                   11.880(4)
_cell_length_b                   14.302(5)
_cell_length_c                   21.278(7)
_cell_angle_alpha                90
_cell_angle_beta                 90
_cell_angle_gamma                90
_cell_volume                     3615.3
loop_
_atom_site_label
_atom_site_type_symbol
_atom_site_fract_x
_atom_site_fract_y
_atom_site_fract_z
Mn1 Mn 0.10954(3) 0.20102(3) 0.233557(18)
F1 F 0.3271(4) 0.0143(4) 0.10515(17)
F2 F 0.4499(3) -0.0158(4) 0.1674(2)
F3 F 0.3107(5) -0.0913(3) 0.1601(3)
F4 F 0.2916(3) 0.1384(3) 0.42651(12)
F5 F 0.4138(3) 0.0451(2) 0.39252(15)
F6 F 0.4280(3) 0.1886(3) 0.37401(16)
F7 F 0.0072(3) 0.2731(3) 0.01905(11)
F8 F 0.1020(3) 0.1517(2) 0.01661(12)
F9 F 0.1753(3) 0.2738(3) -0.01460(11)
F10 F 0.4759(4) 0.3394(5) 0.1197(2)
F11 F 0.4828(3) 0.2713(5) 0.1997(4)
F12 F 0.4387(3) 0.4040(4) 0.1962(3)
O1 O -0.04008(15) 0.11989(11) 0.24557(8)
O2 O -0.02936(15) -0.19747(12) 0.20853(8)
O3 O 0.0531(3) 0.01933(18) 0.46533(10)
O4 O -0.1838(4) 0.0047(3) 0.4801(2)
O5 O -0.1962(3) 0.1349(3) 0.42718(17)
O6 O 0.19215(17) 0.08162(14) 0.19284(10)
O7 O 0.19806(16) 0.15381(14) 0.31618(9)
O8 O 0.07460(17) 0.23973(14) 0.13773(9)
O9 O 0.25401(19) 0.28874(17) 0.21713(11)
N1 N -0.06097(17) 0.03908(13) 0.22156(10)
N2 N -0.05021(18) -0.10932(14) 0.20186(10)
C1 C -0.0178(2) -0.04328(16) 0.24241(11)
C2 C -0.1464(3) 0.0245(2) 0.17018(14)
C3 C -0.1031(3) -0.06991(18) 0.14300(13)
C4 C -0.1448(5) 0.1050(3) 0.1239(2)
H1 H -0.160(4) 0.156(3) 0.149(2)
H2 H -0.201(4) 0.099(3) 0.101(2)
H3 H -0.068(4) 0.111(3) 0.100(2)
C5 C -0.2621(3) 0.0144(3) 0.2033(2)
H4 H -0.318(4) 0.004(3) 0.176(2)
H5 H -0.261(3) -0.038(2) 0.2307(17)
C6 C -0.2998(4) 0.0965(3) 0.2423(3)
H6 H -0.3719 0.0831 0.2605
H7 H -0.3055 0.1509 0.2161
H8 H -0.2460 0.1077 0.2751
C7 C -0.1931(4) -0.1354(3) 0.1192(2)
H9 H -0.155(3) -0.193(3) 0.1063(16)
H10 H -0.215(4) -0.106(3) 0.083(2)
H11 H -0.257(4) -0.148(3) 0.151(2)
C8 C -0.0043(4) -0.0548(3) 0.09573(16)
H12 H -0.045(3) -0.034(3) 0.0496(19)
H13 H 0.064(2) -0.0040(18) 0.1138(11)
C9 C 0.0578(5) -0.1392(4) 0.0757(2)
H14 H 0.1163 -0.1218 0.0468
H15 H 0.0069 -0.1818 0.0554
H16 H 0.0905 -0.1689 0.1118
C10 C 0.0466(2) -0.05757(17) 0.29986(12)
C11 C 0.0173(3) -0.0088(2) 0.35385(13)
H17 H -0.040(2) 0.0318(18) 0.3507(11)
C12 C 0.0760(3) -0.0247(2) 0.40907(13)
C13 C 0.1647(3) -0.0874(2) 0.41048(17)
H18 H 0.190(3) -0.089(2) 0.4519(18)
C14 C 0.1943(3) -0.1339(2) 0.35696(18)
H19 H 0.265(3) -0.183(3) 0.3554(18)
C15 C 0.1352(2) -0.1210(2) 0.30109(16)
H20 H 0.147(3) -0.149(2) 0.2721(15)
C16 C -0.0193(4) 0.0982(3) 0.46451(16)
H21 H 0.005(2) 0.132(2) 0.4319(15)
C17 C -0.0005(5) 0.1489(3) 0.52631(18)
H22 H 0.0774 0.1659 0.5300
H23 H -0.0209 0.1086 0.5605
H24 H -0.0462 0.2042 0.5275
C18 C -0.1412(4) 0.0703(3) 0.45802(18)
C19 C -0.3165(5) 0.1249(7) 0.4195(3)
H25 H -0.3452 0.1769 0.3959
H26 H -0.3519 0.1232 0.4600
H27 H -0.3323 0.0678 0.3974
C20 C 0.3463(4) -0.0082(4) 0.1608(2)
C21 C 0.2855(3) 0.0498(2) 0.21037(16)
C22 C 0.3373(3) 0.0609(2) 0.26811(19)
H28 H 0.409(3) 0.033(2) 0.2801(13)
C23 C 0.2896(3) 0.1104(2) 0.31635(16)
C24 C 0.3548(3) 0.1197(3) 0.3779(2)
C25 C 0.1055(4) 0.2425(3) 0.02863(16)
C26 C 0.1476(3) 0.2579(2) 0.09670(15)
C27 C 0.2563(4) 0.2860(3) 0.1057(2)
H29 H 0.293(3) 0.291(3) 0.078(2)
C28 C 0.3022(3) 0.2978(3) 0.16519(19)
C29 C 0.4236(4) 0.3286(4) 0.1694(3)
Mn1B Mn -0.10954(3) -0.29898(3) 0.266443(18)
O2B O 0.02936(15) 0.30253(12) 0.29147(8)
loop_
_geom_bond_atom_site_label_1
_geom_bond_atom_site_label_2
_geom_bond_site_symmetry_1
_geom_bond_site_symmetry_2
Mn1 O1 1_555 1_555
F1 C20 1_555 1_555
F2 C20 1_555 1_555
F3 C20 1_555 1_555
F4 C24 1_555 1_555
F5 C24 1_555 1_555
F6 C24 1_555 1_555
F7 C25 1_555 1_555
F8 C25 1_555 1_555
F9 C25 1_555 1_555
F10 C29 1_555 1_555
F11 C29 1_555 1_555
F12 C29 1_555 1_555
O1 N1 1_555 1_555
O2 N2 1_555 1_555
O3 C12 1_555 1_555
O4 C18 1_555 1_555
O5 C18 1_555 1_555
O6 Mn1 1_555 1_555
O7 Mn1 1_555 1_555
O8 Mn1 1_555 1_555
O9 Mn1 1_555 1_555
N1 C1 1_555 1_555
N2 C1 1_555 1_555
C1 C10 1_555 1_555
C2 N1 1_555 1_555
C3 N2 1_555 1_555
C4 C2 1_555 1_555
H1 C4 1_555 1_555
H2 C4 1_555 1_555
H3 C4 1_555 1_555
C5 C2 1_555 1_555
H4 C5 1_555 1_555
H5 C5 1_555 1_555
C6 C5 1_555 1_555
H6 C6 1_555 1_555
H7 C6 1_555 1_555
H8 C6 1_555 1_555
C7 C3 1_555 1_555
H9 C7 1_555 1_555
H10 C7 1_555 1_555
H11 C7 1_555 1_555
C8 C3 1_555 1_555
H12 C8 1_555 1_555
H13 C8 1_555 1_555
C9 C8 1_555 1_555
H14 C9 1_555 1_555
H15 C9 1_555 1_555
H16 C9 1_555 1_555
C10 C11 1_555 1_555
C11 H17 1_555 1_555
C12 C11 1_555 1_555
C13 C12 1_555 1_555
H18 C13 1_555 1_555
C14 C13 1_555 1_555
H19 C14 1_555 1_555
C15 C10 1_555 1_555
H20 C15 1_555 1_555
C16 O3 1_555 1_555
H21 C16 1_555 1_555
C17 C16 1_555 1_555
H22 C17 1_555 1_555
H23 C17 1_555 1_555
H24 C17 1_555 1_555
C18 C16 1_555 1_555
C19 O5 1_555 1_555
H25 C19 1_555 1_555
H26 C19 1_555 1_555
H27 C19 1_555 1_555
C20 C21 1_555 1_555
C21 O6 1_555 1_555
C22 C21 1_555 1_555
H28 C22 1_555 1_555
C23 O7 1_555 1_555
C24 C23 1_555 1_555
C25 C26 1_555 1_555
C26 O8 1_555 1_555
C27 C26 1_555 1_555
H29 C27 1_555 1_555
C28 O9 1_555 1_555
C29 C28 1_555 1_555
Mn1B O2 1_555 1_555
O2B Mn1 1_555 1_555
C2 C3 1_555 1_555
C14 C15 1_555 1_555
C22 C23 1_555 1_555
C27 C28 1_555 1_555

#END
