
#######################################################################
#
#                 Cambridge Crystallographic Data Centre
#                                CCDC 
#
#######################################################################
#
# If this CIF has been generated from an entry in the Cambridge 
# Structural Database, then it will include bibliographic, chemical, 
# crystal, experimental, refinement or atomic coordinate data resulting 
# from the CCDC's data processing and validation procedures.
#
#######################################################################

data_PASMUT
_symmetry_cell_setting           monoclinic
_symmetry_space_group_name_H-M   'P 21/n'
_symmetry_Int_Tables_number      14
_space_group_name_Hall           '-P 2yn'
loop_
_symmetry_equiv_pos_site_id
_symmetry_equiv_pos_as_xyz
1 x,y,z
2 1/2-x,1/2+y,1/2-z
3 -x,-y,-z
4 1/2+x,1/2-y,1/2+z
_cell_length_a                   11.8113(10)
_cell_length_b                   16.3344(14)
_cell_length_c                   13.8479(12)
_cell_angle_alpha                90
_cell_angle_beta                 112.8510(10)
_cell_angle_gamma                90
_cell_volume                     2462
loop_
_atom_site_label
_atom_site_type_symbol
_atom_site_fract_x
_atom_site_fract_y
_atom_site_fract_z
Zn1 Zn 0.39669(3) 0.54738(2) -0.59978(3)
Zn2 Zn 0.25546(4) 0.54509(2) -0.28345(3)
Zn3 Zn 0.05188(3) 0.36869(2) -0.87276(3)
C1 C 0.2438(3) 0.46616(19) -0.4928(2)
C2 C 0.1669(3) 0.39501(19) -0.4811(2)
H1 H 0.1034 0.4193 -0.4610
C3 C 0.2341(3) 0.33016(19) -0.3950(2)
H2 H 0.1668 0.2952 -0.3946
C4 C 0.3171(3) 0.27011(19) -0.4225(2)
H3 H 0.3336 0.2255 -0.3715
C5 C 0.2437(3) 0.23032(18) -0.5307(2)
H4 H 0.1762 0.2026 -0.5195
C6 C 0.1764(3) 0.28973(19) -0.6212(2)
H5 H 0.1182 0.2563 -0.6773
C7 C 0.0976(3) 0.34746(19) -0.5843(2)
H6 H 0.0492 0.3084 -0.5624
C8 C 0.2942(3) 0.3589(2) -0.2813(3)
C9 C 0.4422(3) 0.30611(19) -0.4048(2)
C10 C 0.3071(3) 0.1606(2) -0.5634(2)
C11 C 0.2643(3) 0.32649(18) -0.6659(2)
C12 C -0.0029(3) 0.39632(19) -0.6686(2)
O1 O 0.2658(2) 0.47163(13) -0.57392(16)
O2 O 0.2779(2) 0.52129(13) -0.42138(17)
O3 O 0.2559(2) 0.42397(14) -0.25400(18)
O4 O 0.3700(2) 0.31233(15) -0.21772(18)
O5 O 0.4579(2) 0.38218(13) -0.39453(17)
O6 O 0.5300(2) 0.25669(13) -0.39503(18)
O7 O 0.3821(2) 0.11459(13) -0.49492(17)
O8 O 0.2717(2) 0.14629(15) -0.65929(18)
O9 O 0.37710(19) 0.31732(14) -0.61398(17)
O10 O 0.2226(2) 0.36094(13) -0.75487(16)
O11 O -0.0261(2) 0.38516(14) -0.76362(16)
O12 O -0.0684(2) 0.44046(15) -0.63623(17)
O13 O 0.3401(2) 0.50621(14) -0.75234(17)
H7 H 0.2999 0.5421 -0.7925
O14 O 0.2820(2) 0.65076(14) -0.63326(18)
H8 H 0.3237 0.6923 -0.6251
O15 O 0.5183(2) 0.44109(13) -0.56307(17)
O16 O 0.2657(3) 0.67375(17) -0.3069(3)
H9 H 0.2076 0.6967 -0.2999
O17 O 0.4547(2) 0.55277(19) -0.2115(2)
H10 H 0.4844 0.5257 -0.2458
O18 O 0.2680(2) 0.5653(2) -0.1303(2)
H11 H 0.1996 0.5754 -0.1313
O19 O 0.0677(2) 0.49656(14) -0.87252(19)
H12 H 0.0808 0.5111 -0.9239
O20 O 0.1457(3) 0.36688(18) -0.9755(2)
H13 H 0.1143 0.3326 -1.0214
H14 H 0.2992 0.4619 -0.7615
H15 H 0.5822 0.4479 -0.5765
H16 H 0.3259 0.6929 -0.3185
H17 H 0.2461 0.6505 -0.7000
H18 H 0.3287 0.5684 -0.0727
H19 H 0.0437 0.5239 -0.8324
H20 H 0.2231 0.3664 -0.9530
H21 H 0.4889 0.5934 -0.1742
H22 H 0.4789 0.3967 -0.5815
Zn1B Zn 0.60331(3) 0.45262(2) -0.40022(3)
Zn2B Zn -0.25546(4) 0.45491(2) -0.71655(3)
Zn3C Zn 0.55188(3) 0.13131(2) -0.37276(3)
O5B O 0.5421(2) 0.61782(13) -0.60547(17)
O6C O 0.0300(2) 0.24331(13) -0.89503(18)
O7C O -0.1179(2) 0.38541(13) -0.99492(17)
O12B O 0.0684(2) 0.55954(15) -0.36377(17)
O15B O 0.4817(2) 0.55891(13) -0.43693(17)
H15B H 0.4178 0.5521 -0.4235
H22B H 0.5211 0.6033 -0.4185
O21 O 0.1021(3) 0.6591(2) -0.5488(2)
H24 H 0.1607 0.6624 -0.5696
H31 H 0.1324 0.6410 -0.4868
O22 O 0.5992(4) 0.6685(3) -0.0736(3)
H27 H 0.5940 0.6830 -0.1342
H28 H 0.5943 0.6530 -0.0168
O23 O 0.5100(4) 0.4121(3) -0.0525(3)
H25 H 0.4464 0.4330 -0.0469
H30 H 0.4752 0.3812 -0.1062
O24 O 0.0633(3) 0.26063(19) -0.1478(3)
H23 H 0.0229 0.2469 -0.2124
H29 H -0.0016 0.2421 -0.1428
O25 O 0.0206(3) 0.40522(17) -0.2489(2)
H26 H -0.0161 0.3953 -0.3140
H32 H 0.0941 0.4115 -0.2052
loop_
_geom_bond_atom_site_label_1
_geom_bond_atom_site_label_2
_geom_bond_site_symmetry_1
_geom_bond_site_symmetry_2
Zn1 O1 1_555 1_555
Zn2 O2 1_555 1_555
Zn3 O10 1_555 1_555
C1 C2 1_555 1_555
C2 H1 1_555 1_555
C3 C2 1_555 1_555
H2 C3 1_555 1_555
C4 C3 1_555 1_555
H3 C4 1_555 1_555
C5 C4 1_555 1_555
H4 C5 1_555 1_555
C6 C5 1_555 1_555
H5 C6 1_555 1_555
C7 C2 1_555 1_555
H6 C7 1_555 1_555
C8 C3 1_555 1_555
C9 C4 1_555 1_555
C10 C5 1_555 1_555
C11 C6 1_555 1_555
C12 C7 1_555 1_555
O1 C1 1_555 1_555
O2 C1 1_555 1_555
O3 Zn2 1_555 1_555
O4 C8 1_555 1_555
O5 C9 1_555 1_555
O6 C9 1_555 1_555
O7 C10 1_555 1_555
O8 C10 1_555 1_555
O9 C11 1_555 1_555
O10 C11 1_555 1_555
O11 Zn3 1_555 1_555
O12 C12 1_555 1_555
O13 Zn1 1_555 1_555
H7 O13 1_555 1_555
O14 Zn1 1_555 1_555
H8 O14 1_555 1_555
O15 Zn1 1_555 1_555
O16 Zn2 1_555 1_555
H9 O16 1_555 1_555
O17 Zn2 1_555 1_555
H10 O17 1_555 1_555
O18 Zn2 1_555 1_555
H11 O18 1_555 1_555
O19 Zn3 1_555 1_555
H12 O19 1_555 1_555
O20 Zn3 1_555 1_555
H13 O20 1_555 1_555
O21 H24 1_555 1_555
O22 H27 1_555 1_555
O23 H25 1_555 1_555
O24 H23 1_555 1_555
O25 H26 1_555 1_555
H14 O13 1_555 1_555
H15 O15 1_555 1_555
H16 O16 1_555 1_555
H17 O14 1_555 1_555
H18 O18 1_555 1_555
H19 O19 1_555 1_555
H20 O20 1_555 1_555
H21 O17 1_555 1_555
H22 O15 1_555 1_555
H28 O22 1_555 1_555
H29 O24 1_555 1_555
H30 O23 1_555 1_555
H31 O21 1_555 1_555
H32 O25 1_555 1_555
Zn1B O5 1_555 1_555
Zn2B O12 1_555 1_555
Zn3C O6 1_555 1_555
O5B Zn1 1_555 1_555
O6C Zn3 1_555 1_555
O7C Zn3 1_555 1_555
O12B Zn2 1_555 1_555
O15B Zn1 1_555 1_555
H15B O15B 1_555 1_555
H22B O15B 1_555 1_555
C6 C7 1_555 1_555
C8 O3 1_555 1_555
C12 O11 1_555 1_555
O7 Zn3C 1_555 1_555
O15 Zn1B 1_555 1_555
Zn1B O15B 1_555 1_555

#END
