
#######################################################################
#
#                 Cambridge Crystallographic Data Centre
#                                CCDC 
#
#######################################################################
#
# If this CIF has been generated from an entry in the Cambridge 
# Structural Database, then it will include bibliographic, chemical, 
# crystal, experimental, refinement or atomic coordinate data resulting 
# from the CCDC's data processing and validation procedures.
#
#######################################################################

data_PASMAZ
_symmetry_cell_setting           monoclinic
_symmetry_space_group_name_H-M   'P 21/n'
_symmetry_Int_Tables_number      14
_space_group_name_Hall           '-P 2yn'
loop_
_symmetry_equiv_pos_site_id
_symmetry_equiv_pos_as_xyz
1 x,y,z
2 1/2-x,1/2+y,1/2-z
3 -x,-y,-z
4 1/2+x,1/2-y,1/2+z
_cell_length_a                   11.796(3)
_cell_length_b                   12.218(3)
_cell_length_c                   18.964(11)
_cell_angle_alpha                90
_cell_angle_beta                 93.794(16)
_cell_angle_gamma                90
_cell_volume                     2727.17
loop_
_atom_site_label
_atom_site_type_symbol
_atom_site_fract_x
_atom_site_fract_y
_atom_site_fract_z
C1 C 0.3884(4) 0.0986(3) 0.1915(2)
C2 C 0.4577(3) 0.1868(4) 0.1555(2)
C3 C 0.4755(4) 0.1492(4) 0.0792(2)
C4 C 0.5847(4) 0.1471(4) 0.4274(2)
C5 C 0.6889(4) 0.2100(3) 0.4035(2)
C6 C 0.7970(4) 0.1532(4) 0.4361(2)
C7 C 1.0176(4) 0.2055(4) 0.2166(2)
C8 C 0.9126(3) 0.2368(3) 0.1677(2)
C9 C 0.9079(4) 0.1658(4) 0.0994(2)
Cu1 Cu 0.56393(5) 0.13034(4) 0.28547(3)
Cu2 Cu 0.68972(4) 0.17603(5) 0.13626(3)
Cu3 Cu 0.84210(5) 0.19297(5) 0.30149(3)
La1 La 0.195623(18) 0.217572(19) 0.074526(11)
O1 O 0.2894(3) 0.0809(3) 0.16565(16)
O2 O 0.4345(3) 0.0492(3) 0.24451(17)
O4 O 0.5599(2) 0.2070(2) 0.19302(16)
O5 O 0.6868(6) 0.3547(5) 0.0841(3)
O6 O 0.3908(3) 0.1459(3) 0.03684(16)
O7 O 0.6847(5) -0.0003(5) 0.2469(4)
O8 O 0.5756(3) 0.1241(3) 0.06567(18)
O9 O 0.1694(3) 0.4125(3) 0.12387(19)
O10 O 0.3844(3) 0.2798(2) 0.15095(16)
O11 O 0.1812(3) 0.0073(3) 0.04329(18)
O12 O 0.5306(3) 0.0890(3) 0.38115(16)
O14 O 0.6885(3) 0.2146(2) 0.33080(15)
O16 O 0.8698(3) 0.1234(3) 0.39408(17)
O18 O 0.9977(3) 0.1767(4) 0.27952(18)
O20 O 0.8132(3) 0.2244(3) 0.20216(16)
O22 O 0.5610(3) 0.1575(3) 0.48985(16)
O24 O 0.8062(3) 0.1411(3) 0.50160(16)
O26 O 0.6905(3) 0.3158(2) 0.43571(15)
O28 O 1.1132(3) 0.2099(3) 0.19504(19)
O29 O 0.9301(3) 0.3461(3) 0.1464(2)
O30 O 0.8115(3) 0.1246(3) 0.08086(19)
O31 O 0.9934(3) 0.1524(3) 0.06652(17)
La1C La 0.695623(18) 0.282428(19) 0.574526(11)
La1_2 La 1.195623(18) 0.217572(19) 0.074526(11)
O22C O 0.0610(3) 0.3425(3) -0.01015(16)
O24C O 0.3062(3) 0.3589(3) 0.00160(16)
O26C O 0.1905(3) 0.1842(2) -0.06429(15)
O28_2 O 0.1132(3) 0.2099(3) 0.19504(19)
O31_2 O -0.0066(3) 0.1524(3) 0.06652(17)
O3 O 0.8949(4) 0.3706(4) 0.3619(2)
O13 O 0.5076(4) 0.4143(4) 0.3826(3)
O15 O 1.1157(4) 0.3863(4) 0.4217(2)
O17 O 0.9075(5) -0.0623(4) 0.2593(3)
O19 O 0.8279(4) 0.4136(4) -0.0171(3)
O21 O 0.4720(6) 0.4559(5) 0.0870(3)
O23 O 1.2104(7) 0.1993(6) 0.3743(4)
O25 O 0.3825(7) 0.2767(5) 0.3057(4)
O27 O 0.3259(5) 0.4804(5) 0.2284(3)
loop_
_geom_bond_atom_site_label_1
_geom_bond_atom_site_label_2
_geom_bond_site_symmetry_1
_geom_bond_site_symmetry_2
C1 C2 1_555 1_555
C2 C3 1_555 1_555
C3 O6 1_555 1_555
C4 C5 1_555 1_555
C5 C6 1_555 1_555
C6 O16 1_555 1_555
C7 C8 1_555 1_555
C8 C9 1_555 1_555
C9 O30 1_555 1_555
Cu1 O2 1_555 1_555
Cu2 O4 1_555 1_555
Cu3 O14 1_555 1_555
La1 O1 1_555 1_555
O1 C1 1_555 1_555
O2 C1 1_555 1_555
O4 C2 1_555 1_555
O5 Cu2 1_555 1_555
O6 La1 1_555 1_555
O7 Cu1 1_555 1_555
O8 C3 1_555 1_555
O9 La1 1_555 1_555
O10 C2 1_555 1_555
O11 La1 1_555 1_555
O12 C4 1_555 1_555
O14 C5 1_555 1_555
O16 Cu3 1_555 1_555
O18 C7 1_555 1_555
O20 C8 1_555 1_555
O22 C4 1_555 1_555
O24 C6 1_555 1_555
O26 C5 1_555 1_555
O28 C7 1_555 1_555
O29 C8 1_555 1_555
O30 Cu2 1_555 1_555
O31 C9 1_555 1_555
La1C O22 1_555 1_555
La1_2 O28 1_555 1_555
O22C La1 1_555 1_555
O24C La1 1_555 1_555
O26C La1 1_555 1_555
O28_2 La1 1_555 1_555
O31_2 La1 1_555 1_555
Cu1 O4 1_555 1_555
Cu1 O12 1_555 1_555
Cu1 O14 1_555 1_555
Cu2 O8 1_555 1_555
Cu2 O20 1_555 1_555
Cu3 O18 1_555 1_555
Cu3 O20 1_555 1_555
La1 O10 1_555 1_555
O24 La1C 1_555 1_555
O26 La1C 1_555 1_555
O31 La1_2 1_555 1_555

#END
