
#######################################################################
#
#                 Cambridge Crystallographic Data Centre
#                                CCDC 
#
#######################################################################
#
# If this CIF has been generated from an entry in the Cambridge 
# Structural Database, then it will include bibliographic, chemical, 
# crystal, experimental, refinement or atomic coordinate data resulting 
# from the CCDC's data processing and validation procedures.
#
#######################################################################

data_PASNAA
_symmetry_cell_setting           monoclinic
_symmetry_space_group_name_H-M   'P 21/n'
_symmetry_Int_Tables_number      14
_space_group_name_Hall           '-P 2yn'
loop_
_symmetry_equiv_pos_site_id
_symmetry_equiv_pos_as_xyz
1 x,y,z
2 1/2-x,1/2+y,1/2-z
3 -x,-y,-z
4 1/2+x,1/2-y,1/2+z
_cell_length_a                   11.8151(13)
_cell_length_b                   16.3216(19)
_cell_length_c                   13.8362(16)
_cell_angle_alpha                90
_cell_angle_beta                 112.7660(10)
_cell_angle_gamma                90
_cell_volume                     2460.32
loop_
_atom_site_label
_atom_site_type_symbol
_atom_site_fract_x
_atom_site_fract_y
_atom_site_fract_z
Co1 Co -0.10152(6) 0.04589(4) 0.90086(5)
Co2 Co 0.24033(7) -0.04652(5) 0.78217(6)
Co3 Co -0.05133(6) 0.36891(4) 0.87331(5)
C1 C 0.0577(5) 0.1936(3) 0.9049(4)
C2 C 0.1922(5) 0.3386(3) 1.0640(4)
C3 C 0.2355(5) 0.1727(3) 1.1667(4)
C4 C 0.5023(5) 0.1035(3) 1.1690(4)
C5 C 0.2557(4) 0.0334(3) 0.9929(4)
C6 C 0.2073(5) 0.1401(3) 0.7823(4)
C7 C 0.2663(5) 0.1694(3) 0.8950(4)
H1 H 0.3336 0.2044 0.8946
C8 C 0.1826(5) 0.2296(3) 0.9225(4)
H2 H 0.1662 0.2743 0.8716
C9 C 0.2558(5) 0.2696(3) 1.0310(4)
H3 H 0.3230 0.2978 1.0197
C10 C 0.3235(5) 0.2105(3) 1.1215(4)
H4 H 0.3815 0.2441 1.1776
C11 C 0.4024(5) 0.1520(3) 1.0845(4)
H5 H 0.4510 0.1909 1.0625
C12 C 0.3329(4) 0.1043(3) 0.9812(4)
H6 H 0.3964 0.0798 0.9611
O1 O 0.1169(3) 0.3845(2) 0.9957(3)
O2 O 0.2266(4) 0.3531(2) 1.1588(3)
O3 O 0.1236(3) 0.1827(2) 1.1154(3)
O4 O 0.2776(3) 0.1388(2) 1.2557(3)
O5 O 0.5261(3) 0.1150(2) 1.2637(3)
O6 O 0.5690(4) 0.0590(3) 1.1370(3)
O7 O 0.2334(3) 0.0285(2) 1.0743(3)
O8 O 0.2215(3) -0.0214(2) 0.9215(3)
O9 O 0.2432(4) 0.0744(2) 0.7550(3)
O10 O 0.1324(4) 0.1875(3) 0.7176(3)
O11 O 0.0419(3) 0.1179(2) 0.8946(3)
O12 O -0.0296(3) 0.2431(2) 0.8945(3)
O13 O -0.1611(3) 0.0078(2) 0.7461(3)
H7 H -0.1987 -0.0376 0.7264
H8 H -0.2039 0.0436 0.7077
O14 O -0.2170(3) 0.1501(2) 0.8686(3)
H9 H -0.1762 0.1915 0.8720
H10 H -0.2333 0.1462 0.8029
O15 O -0.0176(3) 0.0591(2) 1.0634(3)
H11 H 0.0206 0.1039 1.0846
H12 H -0.0619 0.0516 1.0984
O16 O 0.2322(5) -0.1737(3) 0.8057(4)
H13 H 0.1719 -0.1840 0.8190
H14 H 0.2837 -0.2108 0.8076
O17 O 0.2330(4) -0.0667(3) 0.6303(3)
H15 H 0.1614 -0.0654 0.5885
H16 H 0.2893 -0.0798 0.6078
O18 O 0.0427(4) -0.0515(3) 0.7106(4)
H17 H 0.0138 -0.0143 0.7337
H18 H 0.0211 -0.0955 0.6802
O19 O -0.1440(4) 0.3656(3) 0.9772(4)
H19 H -0.1109 0.3319 1.0236
H20 H -0.2211 0.3662 0.9451
O20 O -0.0672(4) 0.4965(2) 0.8732(3)
H21 H -0.0435 0.5193 0.8287
H22 H -0.1219 0.5333 0.8596
Co1B Co 0.10152(6) -0.04589(4) 1.09914(5)
Co2B Co -0.24033(7) 0.04652(5) 1.21783(6)
Co2_2 Co -0.75967(7) -0.04652(5) 0.78217(6)
Co2B_2 Co 0.75967(7) 0.04652(5) 1.21783(6)
Co3B Co 0.05133(6) -0.36891(4) 1.12669(5)
Co3A Co -0.44867(6) -0.13109(4) 0.62669(5)
Co3C Co 0.44867(6) 0.13109(4) 1.37331(5)
C1B C -0.0577(5) -0.1936(3) 1.0951(4)
C2B C -0.1922(5) -0.3386(3) 0.9360(4)
C3B C -0.2355(5) -0.1727(3) 0.8333(4)
C4B C -0.5023(5) -0.1035(3) 0.8310(4)
C5B C -0.2557(4) -0.0334(3) 1.0071(4)
C6B C -0.2073(5) -0.1401(3) 1.2177(4)
C7B C -0.2663(5) -0.1694(3) 1.1050(4)
H1B H -0.3336 -0.2044 1.1054
C8B C -0.1826(5) -0.2296(3) 1.0775(4)
H2B H -0.1662 -0.2743 1.1284
C9B C -0.2558(5) -0.2696(3) 0.9690(4)
H3B H -0.3230 -0.2978 0.9803
C10B C -0.3235(5) -0.2105(3) 0.8785(4)
H4B H -0.3815 -0.2441 0.8224
C11B C -0.4024(5) -0.1520(3) 0.9155(4)
H5B H -0.4510 -0.1909 0.9375
C12B C -0.3329(4) -0.1043(3) 1.0188(4)
H6B H -0.3964 -0.0798 1.0389
O1B O -0.1169(3) -0.3845(2) 1.0043(3)
O2B O -0.2266(4) -0.3531(2) 0.8412(3)
O3B O -0.1236(3) -0.1827(2) 0.8846(3)
O4B O -0.2776(3) -0.1388(2) 0.7443(3)
O4A O 0.2224(3) -0.3612(2) 1.2443(3)
O4C O -0.2224(3) 0.3612(2) 0.7557(3)
O5B O -0.5261(3) -0.1150(2) 0.7363(3)
O5A O -0.0261(3) -0.3850(2) 1.2363(3)
O5C O 0.0261(3) 0.3850(2) 0.7637(3)
O6B O -0.5690(4) -0.0590(3) 0.8630(3)
O6_2 O -0.4310(4) 0.0590(3) 1.1370(3)
O6B_2 O 0.4310(4) -0.0590(3) 0.8630(3)
O7B O -0.2334(3) -0.0285(2) 0.9257(3)
O8B O -0.2215(3) 0.0214(2) 1.0785(3)
O9B O -0.2432(4) -0.0744(2) 1.2450(3)
O10B O -0.1324(4) -0.1875(3) 1.2824(3)
O11B O -0.0419(3) -0.1179(2) 1.1054(3)
O12B O 0.0296(3) -0.2431(2) 1.1055(3)
O13B O 0.1611(3) -0.0078(2) 1.2539(3)
H7B H 0.1987 0.0376 1.2736
H8B H 0.2039 -0.0436 1.2923
O14B O 0.2170(3) -0.1501(2) 1.1314(3)
H9B H 0.1762 -0.1915 1.1280
H10B H 0.2333 -0.1462 1.1971
O15B O 0.0176(3) -0.0591(2) 0.9366(3)
H11B H -0.0206 -0.1039 0.9154
H12B H 0.0619 -0.0516 0.9016
O16B O -0.2322(5) 0.1737(3) 1.1943(4)
H13B H -0.1719 0.1840 1.1810
H14B H -0.2837 0.2108 1.1924
O17B O -0.2330(4) 0.0667(3) 1.3697(3)
H15B H -0.1614 0.0654 1.4115
H16B H -0.2893 0.0798 1.3922
O18B O -0.0427(4) 0.0515(3) 1.2894(4)
H17B H -0.0138 0.0143 1.2663
H18B H -0.0211 0.0955 1.3198
O19B O 0.1440(4) -0.3656(3) 1.0228(4)
H19B H 0.1109 -0.3319 0.9764
H20B H 0.2211 -0.3662 1.0549
O20B O 0.0672(4) -0.4965(2) 1.1268(3)
H21B H 0.0435 -0.5193 1.1713
H22B H 0.1219 -0.5333 1.1404
O21 O 0.8986(7) 0.8320(5) 0.5708(7)
H23 H 0.9662 0.8253 0.5618
H24 H 0.8989 0.8216 0.6319
O22 O 0.6036(5) 0.1596(4) 0.9518(4)
H25 H 0.6266 0.1307 1.0081
H26 H 0.6710 0.1522 0.9430
O23 O -0.0100(6) 0.0893(4) 0.5512(5)
H27 H 0.0224 0.1179 0.6070
H28 H 0.0359 0.0496 0.5464
O24 O 0.9795(5) 0.4055(3) 0.2495(5)
H29 H 1.0175 0.3976 0.3151
H30 H 0.9113 0.4102 0.2561
O25 O 0.9384(5) 0.2598(3) 0.1506(4)
H31 H 0.9546 0.2997 0.1932
H32 H 1.0020 0.2314 0.1558
loop_
_geom_bond_atom_site_label_1
_geom_bond_atom_site_label_2
_geom_bond_site_symmetry_1
_geom_bond_site_symmetry_2
Co1 O11 1_555 1_555
Co2 O8 1_555 1_555
Co3 O1 1_555 1_555
C1 C8 1_555 1_555
C2 C9 1_555 1_555
C3 C10 1_555 1_555
C4 C11 1_555 1_555
C5 C12 1_555 1_555
C6 C7 1_555 1_555
C7 H1 1_555 1_555
C8 C7 1_555 1_555
H2 C8 1_555 1_555
C9 C8 1_555 1_555
H3 C9 1_555 1_555
C10 C9 1_555 1_555
H4 C10 1_555 1_555
C11 C10 1_555 1_555
H5 C11 1_555 1_555
C12 C7 1_555 1_555
H6 C12 1_555 1_555
O1 C2 1_555 1_555
O2 C2 1_555 1_555
O3 C3 1_555 1_555
O4 C3 1_555 1_555
O5 C4 1_555 1_555
O6 C4 1_555 1_555
O7 C5 1_555 1_555
O8 C5 1_555 1_555
O9 Co2 1_555 1_555
O10 C6 1_555 1_555
O11 C1 1_555 1_555
O12 Co3 1_555 1_555
O13 Co1 1_555 1_555
H7 O13 1_555 1_555
H8 O13 1_555 1_555
O14 Co1 1_555 1_555
H9 O14 1_555 1_555
H10 O14 1_555 1_555
O15 Co1 1_555 1_555
H11 O15 1_555 1_555
H12 O15 1_555 1_555
O16 Co2 1_555 1_555
H13 O16 1_555 1_555
H14 O16 1_555 1_555
O17 Co2 1_555 1_555
H15 O17 1_555 1_555
H16 O17 1_555 1_555
O18 Co2 1_555 1_555
H17 O18 1_555 1_555
H18 O18 1_555 1_555
O19 Co3 1_555 1_555
H19 O19 1_555 1_555
H20 O19 1_555 1_555
O20 Co3 1_555 1_555
H21 O20 1_555 1_555
H22 O20 1_555 1_555
O21 H23 1_555 1_555
H24 O21 1_555 1_555
O22 H25 1_555 1_555
H26 O22 1_555 1_555
O23 H27 1_555 1_555
H28 O23 1_555 1_555
O24 H29 1_555 1_555
H30 O24 1_555 1_555
O25 H31 1_555 1_555
H32 O25 1_555 1_555
Co1B O7 1_555 1_555
Co2B O6_2 1_555 1_555
Co2_2 O6B 1_555 1_555
Co2B_2 O6 1_555 1_555
Co3B O1B 1_555 1_555
Co3A O4B 1_555 1_555
Co3C O4 1_555 1_555
C1B C8B 1_555 1_555
C2B C9B 1_555 1_555
C3B C10B 1_555 1_555
C4B C11B 1_555 1_555
C5B C12B 1_555 1_555
C6B C7B 1_555 1_555
C7B H1B 1_555 1_555
C8B C7B 1_555 1_555
H2B C8B 1_555 1_555
C9B C8B 1_555 1_555
H3B C9B 1_555 1_555
C10B C9B 1_555 1_555
H4B C10B 1_555 1_555
C11B C10B 1_555 1_555
H5B C11B 1_555 1_555
C12B C7B 1_555 1_555
H6B C12B 1_555 1_555
O1B C2B 1_555 1_555
O2B C2B 1_555 1_555
O3B C3B 1_555 1_555
O4B C3B 1_555 1_555
O4A Co3B 1_555 1_555
O4C Co3 1_555 1_555
O5B Co3A 1_555 1_555
O5A Co3B 1_555 1_555
O5C Co3 1_555 1_555
O6B C4B 1_555 1_555
O6B_2 Co2 1_555 1_555
O7B Co1 1_555 1_555
O8B Co2B 1_555 1_555
O9B Co2B 1_555 1_555
O10B C6B 1_555 1_555
O11B Co1B 1_555 1_555
O12B Co3B 1_555 1_555
O13B Co1B 1_555 1_555
H7B O13B 1_555 1_555
H8B O13B 1_555 1_555
O14B Co1B 1_555 1_555
H9B O14B 1_555 1_555
H10B O14B 1_555 1_555
O15B Co1 1_555 1_555
H11B O15B 1_555 1_555
H12B O15B 1_555 1_555
O16B Co2B 1_555 1_555
H13B O16B 1_555 1_555
H14B O16B 1_555 1_555
O17B Co2B 1_555 1_555
H15B O17B 1_555 1_555
H16B O17B 1_555 1_555
O18B Co2B 1_555 1_555
H17B O18B 1_555 1_555
H18B O18B 1_555 1_555
O19B Co3B 1_555 1_555
H19B O19B 1_555 1_555
H20B O19B 1_555 1_555
O20B Co3B 1_555 1_555
H21B O20B 1_555 1_555
H22B O20B 1_555 1_555
C1 O12 1_555 1_555
C6 O9 1_555 1_555
C11 C12 1_555 1_555
O5 Co3C 1_555 1_555
O15 Co1B 1_555 1_555
Co1B O15B 1_555 1_555
C1B O11B 1_555 1_555
C1B O12B 1_555 1_555
C4B O5B 1_555 1_555
C5B O7B 1_555 1_555
C5B O8B 1_555 1_555
C6B O9B 1_555 1_555
C11B C12B 1_555 1_555

#END
