
#######################################################################
#
#                 Cambridge Crystallographic Data Centre
#                                CCDC 
#
#######################################################################
#
# If this CIF has been generated from an entry in the Cambridge 
# Structural Database, then it will include bibliographic, chemical, 
# crystal, experimental, refinement or atomic coordinate data resulting 
# from the CCDC's data processing and validation procedures.
#
#######################################################################

data_PASNAA01
_symmetry_cell_setting           monoclinic
_symmetry_space_group_name_H-M   'P 21/c'
_symmetry_Int_Tables_number      14
_space_group_name_Hall           '-P 2ybc'
loop_
_symmetry_equiv_pos_site_id
_symmetry_equiv_pos_as_xyz
1 x,y,z
2 -x,1/2+y,1/2-z
3 -x,-y,-z
4 x,1/2-y,1/2+z
_cell_length_a                   11.7749(4)
_cell_length_b                   16.2590(7)
_cell_length_c                   14.2792(5)
_cell_angle_alpha                90
_cell_angle_beta                 116.962(2)
_cell_angle_gamma                90
_cell_volume                     2436.59
loop_
_atom_site_label
_atom_site_type_symbol
_atom_site_fract_x
_atom_site_fract_y
_atom_site_fract_z
Co1 Co 0.45762(4) 0.45182(3) 0.71993(3)
Co2 Co -0.00180(4) 0.54589(2) 0.59897(3)
Co3 Co 0.07517(4) 0.86986(2) 0.62692(3)
O1 O 0.15881(19) 0.52833(13) 0.42592(16)
O2 O 0.29908(19) 0.47834(13) 0.57941(16)
O3 O 0.4892(2) 0.57379(13) 0.74665(17)
O4 O 0.4133(2) 0.68770(14) 0.78389(17)
O5 O 0.14918(19) 0.61727(13) 0.60577(16)
O6 O 0.0765(2) 0.74350(13) 0.60540(17)
O7 O 0.1212(2) 0.88568(13) 0.50377(16)
O8 O 0.0664(2) 0.85264(14) 0.33895(17)
O9 O 0.00904(19) 0.68303(13) 0.38602(16)
O10 O 0.02169(19) 0.63849(13) 0.24467(16)
O11 O 0.2629(2) 0.61433(13) 0.23615(16)
O12 O 0.4372(2) 0.56124(14) 0.36467(17)
O13 O 0.4256(2) 0.32510(15) 0.6981(2)
H1 H 0.4670 0.3060 0.6673
H2 H 0.3465 0.3163 0.6605
O14 O 0.6018(2) 0.43032(16) 0.87208(18)
H3 H 0.6732 0.4278 0.8709
H4 H 0.6030 0.4694 0.9121
O15 O 0.3329(2) 0.44918(15) 0.79285(19)
H5 H 0.2599 0.4319 0.7489
H6 H 0.3636 0.4171 0.8456
O16 O 0.08126(19) 0.44066(13) 0.56421(16)
H7 H 0.0608 0.3966 0.5850
H8 H 0.1596 0.4483 0.5813
O17 O 0.09217(19) 0.50791(13) 0.75401(16)
H9 H 0.0668 0.4600 0.7595
H10 H 0.1719 0.5068 0.7735
O18 O -0.0860(2) 0.65065(13) 0.62981(17)
H11 H -0.0598 0.6514 0.6959
H12 H -0.0469 0.6887 0.6155
O19 O -0.1214(2) 0.86539(14) 0.52316(17)
H13 H -0.1440 0.8156 0.5072
H14 H -0.1629 0.8864 0.5528
O20 O 0.0604(2) 0.99751(13) 0.62921(17)
H15 H 0.1331 1.0178 0.6690
H16 H 0.0079 1.0104 0.6525
C1 C 0.2628(3) 0.53337(19) 0.5078(2)
C2 C 0.3534(3) 0.60451(19) 0.5195(2)
H27 H 0.4389 0.5791 0.5405
C3 C 0.3725(3) 0.66971(19) 0.6055(2)
H28 H 0.4423 0.7053 0.6065
C4 C 0.2618(3) 0.73025(19) 0.5779(2)
H29 H 0.2973 0.7760 0.6301
C5 C 0.2262(3) 0.77011(18) 0.4691(2)
H30 H 0.3063 0.7992 0.4805
C6 C 0.2034(3) 0.71050(18) 0.3785(2)
H31 H 0.2055 0.7447 0.3212
C7 C 0.3201(3) 0.65240(19) 0.4165(2)
H32 H 0.3922 0.6924 0.4395
C8 C 0.4254(3) 0.64040(19) 0.7197(2)
C9 C 0.1541(3) 0.69389(19) 0.5954(2)
C10 C 0.1280(3) 0.83913(18) 0.4351(2)
C11 C 0.0698(3) 0.67308(18) 0.3332(2)
C12 C 0.3362(3) 0.60380(19) 0.3319(2)
Co1B Co 0.54238(4) 0.54818(3) 0.28007(3)
Co2B Co 0.00180(4) 0.45411(2) 0.40103(3)
Co3C Co 0.07517(4) 0.63014(2) 0.12692(3)
O1B O -0.15881(19) 0.47167(13) 0.57408(16)
O10C O 0.02169(19) 0.86151(13) 0.74467(16)
O11C O 0.2629(2) 0.88567(13) 0.73615(16)
O12B O 0.5628(2) 0.43876(14) 0.63533(17)
O16B O -0.08126(19) 0.55934(13) 0.43579(16)
H7B H -0.0608 0.6034 0.4150
H8B H -0.1596 0.5517 0.4187
O21 O 0.4362(3) 0.91227(16) 0.4455(2)
H17 H 0.3882 0.9401 0.3915
H18 H 0.5084 0.9056 0.4466
O22 O 0.7907(2) 0.76189(14) 0.35171(19)
H19 H 0.8603 0.7376 0.3652
H20 H 0.7383 0.7539 0.2881
O23 O 0.6703(3) 0.66700(18) 0.0707(2)
H21 H 0.7292 0.7028 0.0961
H22 H 0.6170 0.6812 0.0090
O24 O 0.6511(2) 0.84206(17) 0.0458(2)
H23 H 0.5990 0.8430 0.0718
H24 H 0.7074 0.8790 0.0747
O25 O 0.7271(2) 0.90580(15) 0.24751(19)
H25 H 0.6799 0.8744 0.2624
H26 H 0.6866 0.9216 0.1841
loop_
_geom_bond_atom_site_label_1
_geom_bond_atom_site_label_2
_geom_bond_site_symmetry_1
_geom_bond_site_symmetry_2
Co1 O2 1_555 1_555
Co2 O5 1_555 1_555
Co3 O6 1_555 1_555
O1 C1 1_555 1_555
O2 C1 1_555 1_555
O3 Co1 1_555 1_555
O4 C8 1_555 1_555
O5 C9 1_555 1_555
O6 C9 1_555 1_555
O7 Co3 1_555 1_555
O8 C10 1_555 1_555
O9 C11 1_555 1_555
O10 C11 1_555 1_555
O11 C12 1_555 1_555
O12 C12 1_555 1_555
O13 Co1 1_555 1_555
H1 O13 1_555 1_555
H2 O13 1_555 1_555
O14 Co1 1_555 1_555
H3 O14 1_555 1_555
H4 O14 1_555 1_555
O15 Co1 1_555 1_555
H5 O15 1_555 1_555
H6 O15 1_555 1_555
O16 Co2 1_555 1_555
H7 O16 1_555 1_555
H8 O16 1_555 1_555
O17 Co2 1_555 1_555
H9 O17 1_555 1_555
H10 O17 1_555 1_555
O18 Co2 1_555 1_555
H11 O18 1_555 1_555
H12 O18 1_555 1_555
O19 Co3 1_555 1_555
H13 O19 1_555 1_555
H14 O19 1_555 1_555
O20 Co3 1_555 1_555
H15 O20 1_555 1_555
H16 O20 1_555 1_555
O21 H17 1_555 1_555
H18 O21 1_555 1_555
O22 H19 1_555 1_555
H20 O22 1_555 1_555
O23 H21 1_555 1_555
H22 O23 1_555 1_555
O24 H23 1_555 1_555
H24 O24 1_555 1_555
O25 H25 1_555 1_555
H26 O25 1_555 1_555
C1 C2 1_555 1_555
C2 H27 1_555 1_555
C3 C2 1_555 1_555
H28 C3 1_555 1_555
C4 C3 1_555 1_555
H29 C4 1_555 1_555
C5 C4 1_555 1_555
H30 C5 1_555 1_555
C6 C5 1_555 1_555
H31 C6 1_555 1_555
C7 C2 1_555 1_555
H32 C7 1_555 1_555
C8 O3 1_555 1_555
C9 C4 1_555 1_555
C10 O7 1_555 1_555
C11 C6 1_555 1_555
C12 C7 1_555 1_555
Co1B O12 1_555 1_555
Co2B O1 1_555 1_555
Co3C O10 1_555 1_555
O1B Co2 1_555 1_555
O10C Co3 1_555 1_555
O11C Co3 1_555 1_555
O12B Co1 1_555 1_555
O16B Co2 1_555 1_555
H7B O16B 1_555 1_555
H8B O16B 1_555 1_555
O11 Co3C 1_555 1_555
O16 Co2B 1_555 1_555
C3 C8 1_555 1_555
C5 C10 1_555 1_555
C6 C7 1_555 1_555
Co2B O16B 1_555 1_555

#END
