
#######################################################################
#
#                 Cambridge Crystallographic Data Centre
#                                CCDC 
#
#######################################################################
#
# If this CIF has been generated from an entry in the Cambridge 
# Structural Database, then it will include bibliographic, chemical, 
# crystal, experimental, refinement or atomic coordinate data resulting 
# from the CCDC's data processing and validation procedures.
#
#######################################################################

data_PASNOO
_symmetry_cell_setting           monoclinic
_symmetry_space_group_name_H-M   'P 21/n'
_symmetry_Int_Tables_number      14
_space_group_name_Hall           '-P 2yn'
loop_
_symmetry_equiv_pos_site_id
_symmetry_equiv_pos_as_xyz
1 x,y,z
2 1/2-x,1/2+y,1/2-z
3 -x,-y,-z
4 1/2+x,1/2-y,1/2+z
_cell_length_a                   10.2897(17)
_cell_length_b                   11.3848(19)
_cell_length_c                   20.042(3)
_cell_angle_alpha                90
_cell_angle_beta                 90.712(2)
_cell_angle_gamma                90
_cell_volume                     2347.66
loop_
_atom_site_label
_atom_site_type_symbol
_atom_site_fract_x
_atom_site_fract_y
_atom_site_fract_z
Zn1 Zn -0.27479(3) 0.56792(3) 0.110992(18)
C1 C -0.0414(3) 0.5592(3) 0.16671(18)
C2 C 0.0932(3) 0.5387(3) 0.19802(15)
H1 H 0.0988 0.4530 0.2013
C3 C 0.1058(3) 0.5794(3) 0.27092(15)
H2 H 0.0367 0.5395 0.2954
C4 C 0.2367(3) 0.5324(3) 0.29997(16)
H3 H 0.2311 0.4469 0.2952
C5 C 0.3561(3) 0.5679(3) 0.25899(15)
H4 H 0.4274 0.5191 0.2762
C6 C 0.3367(3) 0.5293(3) 0.18600(15)
H5 H 0.3251 0.4441 0.1893
C7 C 0.2098(3) 0.5712(3) 0.15287(15)
H6 H 0.1993 0.5226 0.1128
C8 C 0.0799(3) 0.7110(3) 0.27751(17)
C9 C 0.2542(4) 0.5526(3) 0.37375(17)
C10 C 0.3964(3) 0.6943(3) 0.27486(16)
C11 C 0.4538(3) 0.5423(3) 0.14054(17)
C12 C 0.2190(3) 0.6972(3) 0.12742(16)
C13 C -0.3111(4) 0.3169(3) 0.05270(17)
H7 H -0.3317 0.3571 0.0136
C14 C -0.3148(4) 0.1955(3) 0.05183(17)
H8 H -0.3359 0.1557 0.0126
C15 C -0.2868(3) 0.1333(3) 0.10998(16)
C16 C -0.2553(3) 0.1989(3) 0.16622(17)
H9 H -0.2359 0.1614 0.2063
C17 C -0.2527(3) 0.3202(3) 0.16263(17)
H10 H -0.2314 0.3623 0.2010
C18 C -0.2875(3) 0.0034(3) 0.11247(16)
C19 C -0.3762(4) -0.0638(3) 0.07680(18)
H11 H -0.4405 -0.0275 0.0511
C20 C -0.3692(4) -0.1843(3) 0.07943(19)
H12 H -0.4298 -0.2274 0.0548
C21 C -0.1983(3) -0.1781(3) 0.15146(18)
H13 H -0.1369 -0.2166 0.1780
C22 C -0.1995(4) -0.0578(3) 0.15157(19)
H14 H -0.1404 -0.0170 0.1783
N1 N -0.2792(2) 0.3795(2) 0.10692(13)
N2 N -0.2806(3) -0.2427(2) 0.11529(13)
O1 O -0.1388(2) 0.5621(2) 0.20204(12)
O2 O -0.0513(2) 0.5644(2) 0.10329(12)
O3 O 0.0700(2) 0.7756(2) 0.23016(12)
O4 O 0.0603(2) 0.7527(2) 0.33853(11)
H15 H 0.0758 0.7012 0.3661
O5 O 0.1695(3) 0.5850(2) 0.41096(12)
O6 O 0.3731(3) 0.5259(2) 0.39480(12)
H16 H 0.3826 0.5471 0.4336
O7 O 0.3380(2) 0.7526(2) 0.31553(11)
O8 O 0.5026(2) 0.7358(2) 0.24826(12)
H17 H 0.5314 0.6879 0.2217
O9 O 0.5629(2) 0.56894(19) 0.16910(11)
O10 O 0.4438(2) 0.5236(2) 0.08021(11)
O11 O 0.3103(2) 0.7601(2) 0.13943(13)
O12 O 0.1260(2) 0.7311(2) 0.08514(12)
H18 H 0.0714 0.6790 0.0816
O13 O -0.2864(2) 0.5862(2) 0.00897(11)
H19 H -0.3458 0.5453 -0.0057
H20 H -0.2239 0.6085 -0.0154
Zn1_2 Zn -0.27479(3) -0.43208(3) 0.110992(18)
Zn1_3 Zn 0.72521(3) 0.56792(3) 0.110992(18)
N2_2 N -0.2806(3) 0.7573(2) 0.11529(13)
O9_2 O -0.4371(2) 0.56894(19) 0.16910(11)
O14 O 0.9339(3) 0.6580(2) 0.93970(13)
H21 H 0.9748 0.5939 0.9333
H23 H 0.9079 0.6578 0.8992
O15 O 0.4468(3) 0.6268(3) 0.50488(14)
H22 H 0.4639 0.6984 0.4966
H24 H 0.4926 0.6171 0.5400
loop_
_geom_bond_atom_site_label_1
_geom_bond_atom_site_label_2
_geom_bond_site_symmetry_1
_geom_bond_site_symmetry_2
Zn1 N1 1_555 1_555
C1 C2 1_555 1_555
C2 H1 1_555 1_555
C3 C2 1_555 1_555
H2 C3 1_555 1_555
C4 C3 1_555 1_555
H3 C4 1_555 1_555
C5 C4 1_555 1_555
H4 C5 1_555 1_555
C6 C5 1_555 1_555
H5 C6 1_555 1_555
C7 C2 1_555 1_555
H6 C7 1_555 1_555
C8 C3 1_555 1_555
C9 C4 1_555 1_555
C10 C5 1_555 1_555
C11 C6 1_555 1_555
C12 C7 1_555 1_555
C13 H7 1_555 1_555
C14 C13 1_555 1_555
H8 C14 1_555 1_555
C15 C14 1_555 1_555
C16 C15 1_555 1_555
H9 C16 1_555 1_555
C17 C16 1_555 1_555
H10 C17 1_555 1_555
C18 C15 1_555 1_555
C19 C18 1_555 1_555
H11 C19 1_555 1_555
C20 C19 1_555 1_555
H12 C20 1_555 1_555
C21 H13 1_555 1_555
C22 C18 1_555 1_555
H14 C22 1_555 1_555
N1 C13 1_555 1_555
N2 C20 1_555 1_555
O1 Zn1 1_555 1_555
O2 Zn1 1_555 1_555
O3 C8 1_555 1_555
O4 C8 1_555 1_555
H15 O4 1_555 1_555
O5 C9 1_555 1_555
O6 C9 1_555 1_555
H16 O6 1_555 1_555
O7 C10 1_555 1_555
O8 C10 1_555 1_555
H17 O8 1_555 1_555
O9 C11 1_555 1_555
O10 C11 1_555 1_555
O11 C12 1_555 1_555
O12 C12 1_555 1_555
H18 O12 1_555 1_555
O13 Zn1 1_555 1_555
H19 O13 1_555 1_555
H20 O13 1_555 1_555
O14 H21 1_555 1_555
O15 H22 1_555 1_555
H23 O14 1_555 1_555
H24 O15 1_555 1_555
Zn1_2 N2 1_555 1_555
Zn1_3 O9 1_555 1_555
N2_2 Zn1 1_555 1_555
O9_2 Zn1 1_555 1_555
C1 O1 1_555 1_555
C1 O2 1_555 1_555
C6 C7 1_555 1_555
C17 N1 1_555 1_555
C21 C22 1_555 1_555
C21 N2 1_555 1_555

#END
