
#######################################################################
#
#                 Cambridge Crystallographic Data Centre
#                                CCDC 
#
#######################################################################
#
# If this CIF has been generated from an entry in the Cambridge 
# Structural Database, then it will include bibliographic, chemical, 
# crystal, experimental, refinement or atomic coordinate data resulting 
# from the CCDC's data processing and validation procedures.
#
#######################################################################

data_PASNEE
_symmetry_cell_setting           monoclinic
_symmetry_space_group_name_H-M   'C 2/c'
_symmetry_Int_Tables_number      15
_space_group_name_Hall           '-C 2yn'
loop_
_symmetry_equiv_pos_site_id
_symmetry_equiv_pos_as_xyz
1 x,y,z
2 -x,y,1/2-z
3 1/2+x,1/2+y,z
4 1/2-x,1/2+y,1/2-z
5 -x,-y,-z
6 x,-y,1/2+z
7 1/2-x,1/2-y,-z
8 1/2+x,1/2-y,1/2+z
_cell_length_a                   17.0978(17)
_cell_length_b                   8.3863(8)
_cell_length_c                   27.613(3)
_cell_angle_alpha                90
_cell_angle_beta                 104.6500(10)
_cell_angle_gamma                90
_cell_volume                     3830.63
loop_
_atom_site_label
_atom_site_type_symbol
_atom_site_fract_x
_atom_site_fract_y
_atom_site_fract_z
Cu1 Cu 0.5000 0.26199(5) 0.7500
Cu2 Cu 0.435561(19) 0.01720(4) 0.581783(12)
Cu3 Cu 0.820030(19) 0.28584(4) 0.775570(12)
C1 C 0.61400(15) 0.2516(3) 0.62991(9)
H1 H 0.6066 0.3618 0.6178
C2 C 0.60814(15) 0.1520(3) 0.58167(9)
H2 H 0.5581 0.1851 0.5577
C3 C 0.67790(15) 0.2004(3) 0.55863(9)
H3 H 0.6671 0.3124 0.5492
C4 C 0.76320(15) 0.2018(3) 0.59508(9)
H4 H 0.7978 0.2593 0.5776
C5 C 0.76202(15) 0.3039(3) 0.64117(9)
H5 H 0.7438 0.4088 0.6271
C6 C 0.69710(15) 0.2540(3) 0.66852(9)
H6 H 0.6944 0.3418 0.6915
C7 C 0.54671(16) 0.2274(3) 0.65588(10)
C8 C 0.60319(16) -0.0293(3) 0.58645(9)
C9 C 0.67238(16) 0.1146(3) 0.50921(10)
C10 C 0.80617(16) 0.0460(3) 0.61196(10)
C11 C 0.84796(15) 0.3339(3) 0.67281(10)
C12 C 0.71153(15) 0.1032(3) 0.70093(9)
O1 O 0.56071(11) 0.2789(2) 0.69940(7)
O2 O 0.47865(11) 0.1715(3) 0.63303(7)
O3 O 0.53630(11) -0.0913(2) 0.58939(7)
O4 O 0.66249(11) -0.1116(2) 0.58411(7)
O5 O 0.60326(11) 0.1110(3) 0.47911(7)
O6 O 0.73484(11) 0.0586(2) 0.49916(7)
O7 O 0.82965(12) -0.0412(2) 0.57808(7)
H7 H 0.8076 -0.0084 0.5500
O8 O 0.82706(13) 0.0098(2) 0.65569(7)
O9 O 0.90191(11) 0.3492(2) 0.65017(7)
O10 O 0.86154(11) 0.3569(2) 0.71991(7)
O11 O 0.76685(11) 0.0997(2) 0.74099(7)
O12 O 0.66362(11) -0.0110(2) 0.68754(7)
O13 O 0.5000 0.0287(3) 0.7500
H8 H 0.5460 -0.0039 0.7622
O14 O 0.5000 0.4930(4) 0.7500
H9 H 0.4896 0.5255 0.7757
O15 O 0.37160(12) 0.2209(2) 0.69110(8)
H10 H 0.3552 0.3057 0.6775
O16 O 0.33109(12) 0.1218(3) 0.57727(8)
H11 H 0.2988 0.0953 0.5512
O17 O 0.95032(12) 0.1939(3) 0.81393(8)
H12 H 0.9502 0.1502 0.8405
O18 O 0.79105(13) 0.1890(2) 0.83449(7)
H13 H 0.8085 0.2451 0.8592
H15 H 0.7401 0.1813 0.8295
H16 H 0.3979 0.1778 0.6722
H18 H 0.9906 0.2572 0.8204
H19 H 0.3246 0.2213 0.5716
Cu2A Cu 0.564439(19) 0.01720(4) 0.918217(12)
Cu2D Cu 0.564439(19) -0.01720(4) 0.418217(12)
Cu2E Cu 0.435561(19) -0.01720(4) 1.081783(12)
Cu3A Cu 0.179970(19) 0.28584(4) 0.724430(12)
Cu3C Cu 0.679970(19) -0.21416(4) 0.724430(12)
Cu3B Cu 0.320030(19) -0.21416(4) 0.775570(12)
C1A C 0.38600(15) 0.2516(3) 0.87009(9)
H1A H 0.3934 0.3618 0.8822
C2A C 0.39186(15) 0.1520(3) 0.91833(9)
H2A H 0.4419 0.1851 0.9423
C3A C 0.32210(15) 0.2004(3) 0.94137(9)
H3A H 0.3329 0.3124 0.9508
C4A C 0.23680(15) 0.2018(3) 0.90492(9)
H4A H 0.2022 0.2593 0.9224
C5A C 0.23798(15) 0.3039(3) 0.85883(9)
H5A H 0.2562 0.4088 0.8729
C6A C 0.30290(15) 0.2540(3) 0.83148(9)
H6A H 0.3056 0.3418 0.8085
C7A C 0.45329(16) 0.2274(3) 0.84412(10)
C8A C 0.39681(16) -0.0293(3) 0.91355(9)
C9A C 0.32762(16) 0.1146(3) 0.99079(10)
C10A C 0.19383(16) 0.0460(3) 0.88804(10)
C11A C 0.15204(15) 0.3339(3) 0.82719(10)
C12A C 0.28847(15) 0.1032(3) 0.79907(9)
O1A O 0.43929(11) 0.2789(2) 0.80060(7)
O2A O 0.52135(11) 0.1715(3) 0.86697(7)
O3A O 0.46370(11) -0.0913(2) 0.91061(7)
O4A O 0.33751(11) -0.1116(2) 0.91589(7)
O5A O 0.39674(11) 0.1110(3) 1.02089(7)
O5D O 0.39674(11) -0.1110(3) 0.52089(7)
O5E O 0.60326(11) -0.1110(3) 0.97911(7)
O6A O 0.26516(11) 0.0586(2) 1.00084(7)
O7A O 0.17035(12) -0.0412(2) 0.92192(7)
H7A H 0.1924 -0.0084 0.9500
O8A O 0.17294(13) 0.0098(2) 0.84431(7)
O9A O 0.09809(11) 0.3492(2) 0.84983(7)
O10A O 0.13846(11) 0.3569(2) 0.78009(7)
O11A O 0.23315(11) 0.0997(2) 0.75901(7)
O12A O 0.33638(11) -0.0110(2) 0.81246(7)
O12C O 0.83638(11) 0.4890(2) 0.81246(7)
O12B O 0.16362(11) 0.4890(2) 0.68754(7)
H8A H 0.4540 -0.0039 0.7378
H9A H 0.5104 0.5255 0.7243
O15A O 0.62840(12) 0.2209(2) 0.80890(8)
H10A H 0.6448 0.3057 0.8225
O16A O 0.66891(12) 0.1218(3) 0.92273(8)
H11A H 0.7012 0.0953 0.9488
O17A O 0.04968(12) 0.1939(3) 0.68607(8)
H12A H 0.0498 0.1502 0.6595
O18A O 0.20895(13) 0.1890(2) 0.66551(7)
H13A H 0.1915 0.2451 0.6408
H15A H 0.2599 0.1813 0.6705
H16A H 0.6021 0.1778 0.8278
H18A H 0.0094 0.2572 0.6796
H19A H 0.6754 0.2213 0.9284
O19 O 0.5060(2) 0.5713(4) 0.57831(14)
H17 H 0.4810 0.5709 0.5473
H21 H 0.4983 0.6706 0.5725
O20 O 0.6099(4) 0.6547(8) 0.5080(2)
H14 H 0.5824 0.7328 0.4930
H20 H 0.6604 0.6451 0.5107
loop_
_geom_bond_atom_site_label_1
_geom_bond_atom_site_label_2
_geom_bond_site_symmetry_1
_geom_bond_site_symmetry_2
Cu1 O1 1_555 1_555
Cu2 O2 1_555 1_555
Cu3 O10 1_555 1_555
C1 H1 1_555 1_555
C2 C1 1_555 1_555
H2 C2 1_555 1_555
C3 C2 1_555 1_555
H3 C3 1_555 1_555
C4 C3 1_555 1_555
H4 C4 1_555 1_555
C5 C4 1_555 1_555
H5 C5 1_555 1_555
C6 C1 1_555 1_555
H6 C6 1_555 1_555
C7 C1 1_555 1_555
C8 C2 1_555 1_555
C9 C3 1_555 1_555
C10 C4 1_555 1_555
C11 C5 1_555 1_555
C12 C6 1_555 1_555
O1 C7 1_555 1_555
O2 C7 1_555 1_555
O3 Cu2 1_555 1_555
O4 C8 1_555 1_555
O5 C9 1_555 1_555
O6 C9 1_555 1_555
O7 C10 1_555 1_555
H7 O7 1_555 1_555
O8 C10 1_555 1_555
O9 C11 1_555 1_555
O10 C11 1_555 1_555
O11 Cu3 1_555 1_555
O12 C12 1_555 1_555
O13 Cu1 1_555 1_555
H8 O13 1_555 1_555
O14 Cu1 1_555 1_555
H9 O14 1_555 1_555
O15 Cu1 1_555 1_555
H10 O15 1_555 1_555
O16 Cu2 1_555 1_555
H11 O16 1_555 1_555
O17 Cu3 1_555 1_555
H12 O17 1_555 1_555
O18 Cu3 1_555 1_555
H13 O18 1_555 1_555
O19 H17 1_555 1_555
O20 H14 1_555 1_555
H15 O18 1_555 1_555
H16 O15 1_555 1_555
H18 O17 1_555 1_555
H19 O16 1_555 1_555
H20 O20 1_555 1_555
H21 O19 1_555 1_555
Cu2A O2A 1_555 1_555
Cu2D O5 1_555 1_555
Cu2E O5A 1_555 1_555
Cu3A O10A 1_555 1_555
Cu3C O12 1_555 1_555
Cu3B O12A 1_555 1_555
C1A H1A 1_555 1_555
C2A C1A 1_555 1_555
H2A C2A 1_555 1_555
C3A C2A 1_555 1_555
H3A C3A 1_555 1_555
C4A C3A 1_555 1_555
H4A C4A 1_555 1_555
C5A C4A 1_555 1_555
H5A C5A 1_555 1_555
C6A C1A 1_555 1_555
H6A C6A 1_555 1_555
C7A C1A 1_555 1_555
C8A C2A 1_555 1_555
C9A C3A 1_555 1_555
C10A C4A 1_555 1_555
C11A C5A 1_555 1_555
C12A C6A 1_555 1_555
O1A Cu1 1_555 1_555
O2A C7A 1_555 1_555
O3A Cu2A 1_555 1_555
O4A C8A 1_555 1_555
O5A C9A 1_555 1_555
O5D Cu2 1_555 1_555
O5E Cu2A 1_555 1_555
O6A C9A 1_555 1_555
O7A C10A 1_555 1_555
H7A O7A 1_555 1_555
O8A C10A 1_555 1_555
O9A C11A 1_555 1_555
O10A C11A 1_555 1_555
O11A Cu3A 1_555 1_555
O12A C12A 1_555 1_555
O12C Cu3 1_555 1_555
O12B Cu3A 1_555 1_555
H8A O13 1_555 1_555
H9A O14 1_555 1_555
O15A Cu1 1_555 1_555
H10A O15A 1_555 1_555
O16A Cu2A 1_555 1_555
H11A O16A 1_555 1_555
O17A Cu3A 1_555 1_555
H12A O17A 1_555 1_555
O18A Cu3A 1_555 1_555
H13A O18A 1_555 1_555
H15A O18A 1_555 1_555
H16A O15A 1_555 1_555
H18A O17A 1_555 1_555
H19A O16A 1_555 1_555
C5 C6 1_555 1_555
C8 O3 1_555 1_555
C12 O11 1_555 1_555
C5A C6A 1_555 1_555
C7A O1A 1_555 1_555
C8A O3A 1_555 1_555
C12A O11A 1_555 1_555

#END
