
#######################################################################
#
#                 Cambridge Crystallographic Data Centre
#                                CCDC 
#
#######################################################################
#
# If this CIF has been generated from an entry in the Cambridge 
# Structural Database, then it will include bibliographic, chemical, 
# crystal, experimental, refinement or atomic coordinate data resulting 
# from the CCDC's data processing and validation procedures.
#
#######################################################################

data_PASPUW
_symmetry_cell_setting           triclinic
_symmetry_space_group_name_H-M   'P -1'
_symmetry_Int_Tables_number      2
_space_group_name_Hall           '-P 1'
loop_
_symmetry_equiv_pos_site_id
_symmetry_equiv_pos_as_xyz
1 x,y,z
2 -x,-y,-z
_cell_length_a                   12.5500(6)
_cell_length_b                   12.9301(6)
_cell_length_c                   16.1279(7)
_cell_angle_alpha                106.080(4)
_cell_angle_beta                 93.353(4)
_cell_angle_gamma                118.627(5)
_cell_volume                     2149.86
loop_
_atom_site_label
_atom_site_type_symbol
_atom_site_fract_x
_atom_site_fract_y
_atom_site_fract_z
Mn1 Mn 0.0000 0.5000 1.0000
Mn2 Mn -0.20059(8) 0.54498(9) 1.08793(5)
Mn3 Mn -1.11414(8) -0.34744(9) 0.29086(5)
Cs1 Cs -1.21030(5) -0.55017(5) 0.43779(3)
S1 S -0.54245(17) 0.28127(17) 0.52723(10)
S2 S 0.60968(14) 1.12146(15) 1.19048(10)
S3 S -0.09369(15) 0.91996(16) 0.79675(12)
O1 O -0.1471(4) 0.4570(4) 0.9042(3)
O2 O 0.0023(4) 0.6666(4) 1.0892(2)
O3 O 0.1215(4) 0.5765(4) 0.9097(2)
O4 O 0.7903(5) 0.7041(5) 1.1371(3)
O5 O -0.2960(4) 0.4760(5) 0.9589(3)
O6 O -0.6546(4) 0.5563(4) 0.8591(3)
O7 O -1.0389(4) -0.3009(4) 0.4203(2)
O8 O 0.0933(4) 0.5082(4) 0.7635(3)
O9 O 0.0392(4) 0.7452(4) 1.2363(3)
O10 O 0.8295(5) 0.7779(5) 1.2845(3)
O11 O -0.7016(4) 0.4837(4) 0.7126(3)
O12 O -0.8988(6) -0.3216(5) 0.4910(4)
O13 O -0.4606(5) 0.2817(5) 0.4689(3)
O14 O -0.6025(5) 0.3513(5) 0.5253(3)
O15 O -0.0423(4) 1.0281(4) 0.8764(3)
O16 O -0.0818(4) 0.9362(5) 0.7133(3)
O17 O 0.6582(4) 1.2243(4) 1.2737(3)
O18 O 0.6211(4) 1.1482(4) 1.1099(3)
C1 C -0.2514(6) 0.4515(6) 0.8975(4)
C2 C -0.3233(6) 0.4076(6) 0.8036(4)
C3 C -0.2748(6) 0.3814(7) 0.7322(4)
H1 H -0.1974 0.3883 0.7408
C4 C -0.3407(6) 0.3446(6) 0.6476(4)
H2 H -0.3075 0.3282 0.5989
C5 C -0.4553(6) 0.3326(6) 0.6365(4)
C6 C -0.5086(6) 0.3558(7) 0.7068(4)
H3 H -0.5874 0.3456 0.6976
C7 C -0.4399(6) 0.3950(7) 0.7922(4)
H4 H -0.4722 0.4125 0.8411
C8 C -0.6560(6) 0.1245(6) 0.5073(4)
C9 C -0.6211(6) 0.0419(6) 0.5189(4)
H5 H -0.5372 0.0703 0.5375
C10 C -0.7079(6) -0.0796(7) 0.5036(4)
H6 H -0.6826 -0.1332 0.5127
C11 C -0.8342(6) -0.1262(6) 0.4744(4)
C12 C -0.8683(6) -0.0421(7) 0.4620(4)
H7 H -0.9519 -0.0710 0.4418
C13 C -0.7818(7) 0.0811(6) 0.4789(4)
H8 H -0.8066 0.1358 0.4715
C14 C -0.9291(7) -0.2577(7) 0.4619(4)
C15 C 0.0908(5) 0.5775(6) 0.8337(4)
C16 C 0.0492(6) 0.6667(6) 0.8266(4)
C17 C 0.0221(6) 0.6724(7) 0.7440(4)
H9 H 0.0296 0.6213 0.6941
C18 C -0.0164(6) 0.7547(7) 0.7355(4)
H10 H -0.0305 0.7622 0.6808
C19 C -0.0328(6) 0.8232(6) 0.8082(4)
C20 C -0.0067(6) 0.8194(7) 0.8914(4)
H11 H -0.0166 0.8691 0.9407
C21 C 0.0338(6) 0.7408(6) 0.8995(4)
H12 H 0.0515 0.7370 0.9550
C22 C -0.2529(6) 0.8210(6) 0.7926(4)
C23 C -0.3314(6) 0.7309(7) 0.7119(4)
H13 H -0.3022 0.7266 0.6601
C24 C -0.4535(6) 0.6479(6) 0.7102(4)
H14 H -0.5076 0.5884 0.6565
C25 C -0.4962(6) 0.6521(6) 0.7871(4)
C26 C -0.4159(6) 0.7441(6) 0.8668(4)
H15 H -0.4451 0.7489 0.9186
C27 C -0.2953(6) 0.8269(7) 0.8702(4)
H16 H -0.2419 0.8869 0.9239
C28 C -0.6284(6) 0.5579(6) 0.7864(4)
C29 C 0.0745(6) 0.7443(6) 1.1657(4)
C30 C 0.2078(5) 0.8398(6) 1.1716(4)
C31 C 0.2800(6) 0.9343(6) 1.2506(4)
H17 H 0.2457 0.9390 1.3001
C32 C 0.4020(6) 1.0221(6) 1.2580(4)
H18 H 0.4506 1.0851 1.3121
C33 C 0.4513(5) 1.0154(5) 1.1835(3)
C34 C 0.3802(6) 0.9218(6) 1.1030(4)
H19 H 0.4142 0.9179 1.0533
C35 C 0.2578(6) 0.8340(6) 1.0972(4)
H20 H 0.2089 0.7709 1.0432
C36 C 0.6777(6) 1.0311(6) 1.1953(4)
C37 C 0.7204(7) 1.0334(7) 1.2769(4)
H21 H 0.7216 1.0887 1.3286
C38 C 0.7614(7) 0.9525(7) 1.2810(4)
H22 H 0.7897 0.9530 1.3358
C39 C 0.7606(6) 0.8712(6) 1.2042(4)
C40 C 0.7215(7) 0.8729(7) 1.1244(4)
H23 H 0.7223 0.8188 1.0729
C41 C 0.6801(7) 0.9539(7) 1.1179(4)
H24 H 0.6550 0.9556 1.0631
C42 C 0.7973(6) 0.7797(6) 1.2107(5)
Mn2A Mn 0.20059(8) 0.45502(9) 0.91207(5)
Mn2_2 Mn 0.79941(8) 0.54498(9) 1.08793(5)
Mn2A_2 Mn -0.79941(8) 0.45502(9) 0.91207(5)
Mn3A Mn 1.11414(8) 1.34744(9) 1.70914(5)
Mn3A_2 Mn 0.11414(8) 0.34744(9) 0.70914(5)
Mn3_2 Mn -0.11414(8) 0.65256(9) 1.29086(5)
Mn3_3 Mn 0.88586(8) 0.65256(9) 1.29086(5)
Mn3A_3 Mn -0.88586(8) 0.34744(9) 0.70914(5)
Cs1A Cs 1.21030(5) 1.55017(5) 1.56221(3)
Cs1A_2 Cs -0.78970(5) 0.55017(5) 0.56221(3)
Cs1A_3 Cs -0.78970(5) -0.44983(5) 0.56221(3)
Cs1_2 Cs -0.21030(5) 0.44983(5) 0.43779(3)
Cs1_3 Cs 0.78970(5) 1.44983(5) 1.43779(3)
Cs1A_4 Cs 0.21030(5) 0.55017(5) 1.56221(3)
Cs1_4 Cs 0.78970(5) 0.44983(5) 1.43779(3)
S1A S 0.54245(17) 0.71873(17) 1.47277(10)
S2A S -0.60968(14) -0.12146(15) 0.80952(10)
S3A S 0.09369(15) 0.08004(16) 1.20325(12)
O1A O 0.1471(4) 0.5430(4) 1.0958(3)
O2A O -0.0023(4) 0.3334(4) 0.9108(2)
O3A O -0.1215(4) 0.4235(4) 1.0903(2)
O4A O -0.7903(5) 0.2959(5) 0.8629(3)
O4_2 O -0.2097(5) 0.7041(5) 1.1371(3)
O4A_2 O 0.2097(5) 0.2959(5) 0.8629(3)
O5A O 0.2960(4) 0.5240(5) 1.0411(3)
O6A O 0.6546(4) 0.4437(4) 1.1409(3)
O6A_2 O -0.3454(4) 0.4437(4) 1.1409(3)
O6_2 O 0.3454(4) 0.5563(4) 0.8591(3)
O7A O 1.0389(4) 1.3009(4) 1.5797(2)
O8A O -0.0933(4) 0.4918(4) 1.2365(3)
O8A_2 O -1.0933(4) -0.5082(4) 0.2365(3)
O8_2 O 1.0933(4) 1.5082(4) 1.7635(3)
O9A O -0.0392(4) 0.2548(4) 0.7637(3)
O9_2 O -0.9608(4) -0.2548(4) 0.2363(3)
O9A_2 O 0.9608(4) 1.2548(4) 1.7637(3)
O10A O -0.8295(5) 0.2221(5) 0.7155(3)
O10_2 O -1.1705(5) -0.2221(5) 0.2845(3)
O10A_2 O 1.1705(5) 1.2221(5) 1.7155(3)
O11A O 0.7016(4) 0.5163(4) 1.2874(3)
O11A_2 O -1.2984(4) -0.4837(4) 0.2874(3)
O11_2 O 1.2984(4) 1.4837(4) 1.7126(3)
O12A O 0.8988(6) 1.3216(5) 1.5090(4)
O12A_2 O -1.1012(6) -0.6784(5) 0.5090(4)
O12_2 O 1.1012(6) 1.6784(5) 1.4910(4)
O13A O 0.4606(5) 0.7183(5) 1.5311(3)
O13_2 O -1.4606(5) -0.7183(5) 0.4689(3)
O13A_2 O 1.4606(5) 1.7183(5) 1.5311(3)
O14A O 0.6025(5) 0.6487(5) 1.4747(3)
O15A O 0.0423(4) -0.0281(4) 1.1236(3)
O16A O 0.0818(4) 0.0638(5) 1.2867(3)
O17A O -0.6582(4) -0.2243(4) 0.7263(3)
O17_2 O -1.3418(4) -0.7757(4) 0.2737(3)
O17A_2 O 1.3418(4) 1.7757(4) 1.7263(3)
O18A O -0.6211(4) -0.1482(4) 0.8901(3)
C1A C 0.2514(6) 0.5485(6) 1.1025(4)
C2A C 0.3233(6) 0.5924(6) 1.1964(4)
C3A C 0.2748(6) 0.6186(7) 1.2678(4)
H1A H 0.1974 0.6117 1.2592
C4A C 0.3407(6) 0.6554(6) 1.3524(4)
H2A H 0.3075 0.6718 1.4011
C5A C 0.4553(6) 0.6674(6) 1.3635(4)
C6A C 0.5086(6) 0.6442(7) 1.2932(4)
H3A H 0.5874 0.6544 1.3024
C7A C 0.4399(6) 0.6050(7) 1.2078(4)
H4A H 0.4722 0.5875 1.1589
C8A C 0.6560(6) 0.8755(6) 1.4927(4)
C9A C 0.6211(6) 0.9581(6) 1.4811(4)
H5A H 0.5372 0.9297 1.4625
C10A C 0.7079(6) 1.0796(7) 1.4964(4)
H6A H 0.6826 1.1332 1.4873
C11A C 0.8342(6) 1.1262(6) 1.5256(4)
C12A C 0.8683(6) 1.0421(7) 1.5380(4)
H7A H 0.9519 1.0710 1.5582
C13A C 0.7818(7) 0.9189(6) 1.5211(4)
H8A H 0.8066 0.8642 1.5285
C14A C 0.9291(7) 1.2577(7) 1.5381(4)
C15A C -0.0908(5) 0.4225(6) 1.1663(4)
C16A C -0.0492(6) 0.3333(6) 1.1734(4)
C17A C -0.0221(6) 0.3276(7) 1.2560(4)
H9A H -0.0296 0.3787 1.3059
C18A C 0.0164(6) 0.2453(7) 1.2645(4)
H10A H 0.0305 0.2378 1.3192
C19A C 0.0328(6) 0.1768(6) 1.1918(4)
C20A C 0.0067(6) 0.1806(7) 1.1086(4)
H11A H 0.0166 0.1309 1.0593
C21A C -0.0338(6) 0.2592(6) 1.1005(4)
H12A H -0.0515 0.2630 1.0450
C22A C 0.2529(6) 0.1790(6) 1.2074(4)
C23A C 0.3314(6) 0.2691(7) 1.2881(4)
H13A H 0.3022 0.2734 1.3399
C24A C 0.4535(6) 0.3521(6) 1.2898(4)
H14A H 0.5076 0.4116 1.3435
C25A C 0.4962(6) 0.3479(6) 1.2129(4)
C26A C 0.4159(6) 0.2559(6) 1.1332(4)
H15A H 0.4451 0.2511 1.0814
C27A C 0.2953(6) 0.1731(7) 1.1298(4)
H16A H 0.2419 0.1131 1.0761
C28A C 0.6284(6) 0.4421(6) 1.2136(4)
C29A C -0.0745(6) 0.2557(6) 0.8343(4)
C30A C -0.2078(5) 0.1602(6) 0.8284(4)
C31A C -0.2800(6) 0.0657(6) 0.7494(4)
H17A H -0.2457 0.0610 0.6999
C32A C -0.4020(6) -0.0221(6) 0.7420(4)
H18A H -0.4506 -0.0851 0.6879
C33A C -0.4513(5) -0.0154(5) 0.8165(3)
C34A C -0.3802(6) 0.0782(6) 0.8970(4)
H19A H -0.4142 0.0821 0.9467
C35A C -0.2578(6) 0.1660(6) 0.9028(4)
H20A H -0.2089 0.2291 0.9568
C36A C -0.6777(6) -0.0311(6) 0.8047(4)
C37A C -0.7204(7) -0.0334(7) 0.7231(4)
H21A H -0.7216 -0.0887 0.6714
C38A C -0.7614(7) 0.0475(7) 0.7190(4)
H22A H -0.7897 0.0470 0.6642
C39A C -0.7606(6) 0.1288(6) 0.7958(4)
C40A C -0.7215(7) 0.1271(7) 0.8756(4)
H23A H -0.7223 0.1812 0.9271
C41A C -0.6801(7) 0.0461(7) 0.8821(4)
H24A H -0.6550 0.0444 0.9369
C42A C -0.7973(6) 0.2203(6) 0.7893(5)
loop_
_geom_bond_atom_site_label_1
_geom_bond_atom_site_label_2
_geom_bond_site_symmetry_1
_geom_bond_site_symmetry_2
Mn1 O1 1_555 1_555
Mn2 O2 1_555 1_555
Mn3 O7 1_555 1_555
Cs1 O7 1_555 1_555
S1 O13 1_555 1_555
S2 O17 1_555 1_555
S3 O15 1_555 1_555
O1 C1 1_555 1_555
O2 Mn1 1_555 1_555
O3 Mn1 1_555 1_555
O4 C42 1_555 1_555
O5 Mn2 1_555 1_555
O6 C28 1_555 1_555
O7 C14 1_555 1_555
O8 C15 1_555 1_555
O9 C29 1_555 1_555
O10 C42 1_555 1_555
O11 C28 1_555 1_555
O12 C14 1_555 1_555
O13 Cs1_2 1_555 1_555
O14 S1 1_555 1_555
O16 S3 1_555 1_555
O17 Cs1_3 1_555 1_555
O18 S2 1_555 1_555
C1 O5 1_555 1_555
C2 C1 1_555 1_555
C3 C2 1_555 1_555
H1 C3 1_555 1_555
C4 C3 1_555 1_555
H2 C4 1_555 1_555
C5 S1 1_555 1_555
C6 C5 1_555 1_555
H3 C6 1_555 1_555
C7 C2 1_555 1_555
H4 C7 1_555 1_555
C8 S1 1_555 1_555
C9 C8 1_555 1_555
H5 C9 1_555 1_555
C10 C9 1_555 1_555
H6 C10 1_555 1_555
C11 C10 1_555 1_555
C12 C11 1_555 1_555
H7 C12 1_555 1_555
C13 C8 1_555 1_555
H8 C13 1_555 1_555
C14 C11 1_555 1_555
C15 O3 1_555 1_555
C16 C15 1_555 1_555
C17 C16 1_555 1_555
H9 C17 1_555 1_555
C18 C17 1_555 1_555
H10 C18 1_555 1_555
C19 S3 1_555 1_555
C20 C19 1_555 1_555
H11 C20 1_555 1_555
C21 C16 1_555 1_555
H12 C21 1_555 1_555
C22 S3 1_555 1_555
C23 C22 1_555 1_555
H13 C23 1_555 1_555
C24 C23 1_555 1_555
H14 C24 1_555 1_555
C25 C24 1_555 1_555
C26 C25 1_555 1_555
H15 C26 1_555 1_555
C27 C22 1_555 1_555
H16 C27 1_555 1_555
C28 C25 1_555 1_555
C29 O2 1_555 1_555
C30 C29 1_555 1_555
C31 C30 1_555 1_555
H17 C31 1_555 1_555
C32 C31 1_555 1_555
H18 C32 1_555 1_555
C33 S2 1_555 1_555
C34 C33 1_555 1_555
H19 C34 1_555 1_555
C35 C30 1_555 1_555
H20 C35 1_555 1_555
C36 S2 1_555 1_555
C37 C36 1_555 1_555
H21 C37 1_555 1_555
C38 C37 1_555 1_555
H22 C38 1_555 1_555
C39 C38 1_555 1_555
C40 C39 1_555 1_555
H23 C40 1_555 1_555
C41 C36 1_555 1_555
H24 C41 1_555 1_555
C42 C39 1_555 1_555
Mn2A O3 1_555 1_555
Mn2_2 O4 1_555 1_555
Mn2A_2 O6 1_555 1_555
Mn3A O7A 1_555 1_555
Mn3A_2 O8 1_555 1_555
Mn3_2 O9 1_555 1_555
Mn3_3 O10 1_555 1_555
Mn3A_3 O11 1_555 1_555
Cs1A O7A 1_555 1_555
Cs1A_2 O11 1_555 1_555
Cs1A_3 O12 1_555 1_555
Cs1_3 O12A 1_555 1_555
Cs1A_4 O13A 1_555 1_555
Cs1_4 O11A 1_555 1_555
S1A O13A 1_555 1_555
S2A O17A 1_555 1_555
S3A O15A 1_555 1_555
O1A Mn1 1_555 1_555
O2A Mn1 1_555 1_555
O3A Mn1 1_555 1_555
O4A Mn2A_2 1_555 1_555
O4_2 Mn2 1_555 1_555
O4A_2 Mn2A 1_555 1_555
O5A Mn2A 1_555 1_555
O6A Mn2_2 1_555 1_555
O6A_2 Mn2 1_555 1_555
O6_2 Mn2A 1_555 1_555
O7A C14A 1_555 1_555
O8A Mn3_2 1_555 1_555
O8A_2 Mn3 1_555 1_555
O8_2 Mn3A 1_555 1_555
O9A Mn3A_2 1_555 1_555
O9_2 Mn3 1_555 1_555
O9A_2 Mn3A 1_555 1_555
O10A Mn3A_3 1_555 1_555
O10_2 Mn3 1_555 1_555
O10A_2 Mn3A 1_555 1_555
O11A Mn3_3 1_555 1_555
O11A_2 Mn3 1_555 1_555
O11_2 Mn3A 1_555 1_555
O12A C14A 1_555 1_555
O12A_2 Cs1 1_555 1_555
O12_2 Cs1A 1_555 1_555
O13_2 Cs1 1_555 1_555
O13A_2 Cs1A 1_555 1_555
O14A S1A 1_555 1_555
O16A S3A 1_555 1_555
O17A Cs1A_3 1_555 1_555
O17_2 Cs1 1_555 1_555
O17A_2 Cs1A 1_555 1_555
O18A S2A 1_555 1_555
C1A O1A 1_555 1_555
C2A C1A 1_555 1_555
C3A C2A 1_555 1_555
H1A C3A 1_555 1_555
C4A C3A 1_555 1_555
H2A C4A 1_555 1_555
C5A S1A 1_555 1_555
C6A C5A 1_555 1_555
H3A C6A 1_555 1_555
C7A C2A 1_555 1_555
H4A C7A 1_555 1_555
C8A S1A 1_555 1_555
C9A C8A 1_555 1_555
H5A C9A 1_555 1_555
C10A C9A 1_555 1_555
H6A C10A 1_555 1_555
C11A C10A 1_555 1_555
C12A C11A 1_555 1_555
H7A C12A 1_555 1_555
C13A C8A 1_555 1_555
H8A C13A 1_555 1_555
C14A C11A 1_555 1_555
C15A O3A 1_555 1_555
C16A C15A 1_555 1_555
C17A C16A 1_555 1_555
H9A C17A 1_555 1_555
C18A C17A 1_555 1_555
H10A C18A 1_555 1_555
C19A S3A 1_555 1_555
C20A C19A 1_555 1_555
H11A C20A 1_555 1_555
C21A C16A 1_555 1_555
H12A C21A 1_555 1_555
C22A S3A 1_555 1_555
C23A C22A 1_555 1_555
H13A C23A 1_555 1_555
C24A C23A 1_555 1_555
H14A C24A 1_555 1_555
C25A C24A 1_555 1_555
C26A C25A 1_555 1_555
H15A C26A 1_555 1_555
C27A C22A 1_555 1_555
H16A C27A 1_555 1_555
C28A O6A 1_555 1_555
C29A O2A 1_555 1_555
C30A C29A 1_555 1_555
C31A C30A 1_555 1_555
H17A C31A 1_555 1_555
C32A C31A 1_555 1_555
H18A C32A 1_555 1_555
C33A S2A 1_555 1_555
C34A C33A 1_555 1_555
H19A C34A 1_555 1_555
C35A C30A 1_555 1_555
H20A C35A 1_555 1_555
C36A S2A 1_555 1_555
C37A C36A 1_555 1_555
H21A C37A 1_555 1_555
C38A C37A 1_555 1_555
H22A C38A 1_555 1_555
C39A C38A 1_555 1_555
C40A C39A 1_555 1_555
H23A C40A 1_555 1_555
C41A C36A 1_555 1_555
H24A C41A 1_555 1_555
C42A O4A 1_555 1_555
Mn2 O3A 1_555 1_555
Cs1 O11A_2 1_555 1_555
C4 C5 1_555 1_555
C6 C7 1_555 1_555
C12 C13 1_555 1_555
C18 C19 1_555 1_555
C20 C21 1_555 1_555
C26 C27 1_555 1_555
C32 C33 1_555 1_555
C34 C35 1_555 1_555
C40 C41 1_555 1_555
Mn2A O2A 1_555 1_555
Cs1A O11_2 1_555 1_555
O5A C1A 1_555 1_555
O8A C15A 1_555 1_555
O9A C29A 1_555 1_555
O10A C42A 1_555 1_555
O11A C28A 1_555 1_555
C4A C5A 1_555 1_555
C6A C7A 1_555 1_555
C12A C13A 1_555 1_555
C18A C19A 1_555 1_555
C20A C21A 1_555 1_555
C25A C28A 1_555 1_555
C26A C27A 1_555 1_555
C32A C33A 1_555 1_555
C34A C35A 1_555 1_555
C39A C42A 1_555 1_555
C40A C41A 1_555 1_555

#END
