
#######################################################################
#
#                 Cambridge Crystallographic Data Centre
#                                CCDC 
#
#######################################################################
#
# If this CIF has been generated from an entry in the Cambridge 
# Structural Database, then it will include bibliographic, chemical, 
# crystal, experimental, refinement or atomic coordinate data resulting 
# from the CCDC's data processing and validation procedures.
#
#######################################################################

data_PASPAC
_symmetry_cell_setting           monoclinic
_symmetry_space_group_name_H-M   'P 21/c'
_symmetry_Int_Tables_number      14
_space_group_name_Hall           '-P 2ybc'
loop_
_symmetry_equiv_pos_site_id
_symmetry_equiv_pos_as_xyz
1 x,y,z
2 -x,1/2+y,1/2-z
3 -x,-y,-z
4 x,1/2-y,1/2+z
_cell_length_a                   20.700(5)
_cell_length_b                   11.623(3)
_cell_length_c                   29.216(6)
_cell_angle_alpha                90
_cell_angle_beta                 118.682(13)
_cell_angle_gamma                90
_cell_volume                     6166.74
loop_
_atom_site_label
_atom_site_type_symbol
_atom_site_fract_x
_atom_site_fract_y
_atom_site_fract_z
Cd1 Cd 0.80066(3) 0.54964(6) 0.84057(3)
Cd2 Cd 0.30489(4) 0.55553(7) 0.83910(3)
C1 C 0.6476(5) 0.5517(7) 0.7986(4)
C2 C 0.5642(4) 0.5721(8) 0.7677(3)
H1 H 0.5594 0.6560 0.7654
C3 C 0.5268(5) 0.5321(7) 0.7098(3)
H2 H 0.5514 0.5755 0.6937
C4 C 0.4467(5) 0.5739(7) 0.6823(3)
H3 H 0.4508 0.6578 0.6855
C5 C 0.4007(4) 0.5404(7) 0.7099(3)
H4 H 0.3563 0.5881 0.6936
C6 C 0.4427(4) 0.5788(8) 0.7670(3)
H5 H 0.4468 0.6625 0.7652
C7 C 0.5235(4) 0.5365(7) 0.7977(3)
H6 H 0.5460 0.5817 0.8300
C8 C 0.5317(5) 0.4067(8) 0.6970(4)
C9 C 0.4073(5) 0.5524(8) 0.6229(4)
C10 C 0.3736(5) 0.4161(8) 0.7054(4)
C11 C 0.3970(5) 0.5620(7) 0.7946(4)
C12 C 0.5384(5) 0.4114(8) 0.8149(4)
C13 C 1.1478(5) 0.5443(8) 0.8013(4)
C14 C 1.0641(4) 0.5410(7) 0.7697(3)
H7 H 1.0534 0.4586 0.7638
C15 C 1.0289(5) 0.5913(7) 0.7132(4)
H8 H 1.0530 0.5519 0.6957
C16 C 0.9480(5) 0.5540(8) 0.6846(4)
H9 H 0.9510 0.4702 0.6888
C17 C 0.9025(5) 0.5912(8) 0.7120(4)
H10 H 0.8559 0.5490 0.6943
C18 C 0.9423(5) 0.5450(7) 0.7692(4)
H11 H 0.9431 0.4617 0.7645
C19 C 1.0252(4) 0.5764(7) 0.8007(3)
H12 H 1.0452 0.5250 0.8310
C20 C 1.0376(5) 0.7204(8) 0.7069(4)
C21 C 0.9110(7) 0.5689(9) 0.6266(4)
C22 C 0.8817(5) 0.7168(7) 0.7092(4)
C23 C 0.8958(5) 0.5576(8) 0.7961(4)
C24 C 1.0476(5) 0.6978(8) 0.8236(4)
C25 C 0.8855(6) 0.6319(11) 0.9625(5)
H13 H 0.8719 0.7047 0.9477
C26 C 0.9242(6) 0.6217(13) 1.0164(5)
H14 H 0.9357 0.6867 1.0374
C27 C 0.9454(6) 0.5144(13) 1.0383(4)
H15 H 0.9716 0.5062 1.0744
C28 C 0.9276(6) 0.4200(12) 1.0067(4)
H16 H 0.9417 0.3471 1.0212
C29 C 0.8874(5) 0.4334(10) 0.9516(4)
C30 C 0.8637(5) 0.3330(9) 0.9151(4)
C31 C 0.8845(7) 0.2209(11) 0.9299(5)
H17 H 0.9167 0.2043 0.9647
C32 C 0.8589(8) 0.1348(12) 0.8948(5)
H18 H 0.8749 0.0598 0.9051
C33 C 0.8091(7) 0.1583(10) 0.8436(5)
H19 H 0.7889 0.1001 0.8189
C34 C 0.7906(6) 0.2702(10) 0.8310(5)
H20 H 0.7577 0.2878 0.7964
C35 C 0.3815(6) 0.6019(12) 0.9651(4)
H21 H 0.3668 0.6774 0.9547
C36 C 0.4211(7) 0.5774(16) 1.0176(5)
H22 H 0.4317 0.6354 1.0422
C37 C 0.4442(8) 0.4688(17) 1.0332(5)
H23 H 0.4711 0.4512 1.0685
C38 C 0.4275(6) 0.3838(13) 0.9958(4)
H24 H 0.4440 0.3090 1.0061
C39 C 0.3865(5) 0.4092(11) 0.9433(4)
C40 C 0.3641(5) 0.3223(10) 0.9014(4)
C41 C 0.3855(8) 0.2110(12) 0.9119(6)
H25 H 0.4139 0.1865 0.9462
C42 C 0.3646(9) 0.1329(12) 0.8707(7)
H26 H 0.3812 0.0573 0.8772
C43 C 0.3208(6) 0.1677(11) 0.8222(5)
H27 H 0.3018 0.1151 0.7948
C44 C 0.3038(6) 0.2828(11) 0.8129(5)
H28 H 0.2766 0.3085 0.7787
N1 N 0.8672(4) 0.5395(8) 0.9311(3)
N2 N 0.8172(4) 0.3580(7) 0.8657(3)
N3 N 0.3636(4) 0.5202(9) 0.9284(3)
N4 N 0.3257(4) 0.3586(7) 0.8521(3)
O1 O 0.6814(3) 0.5165(6) 0.7750(2)
O2 O 0.6802(3) 0.5800(6) 0.8453(2)
O3 O 0.5975(4) 0.3661(6) 0.7088(3)
H37 H 0.6293 0.4078 0.7307
O4 O 0.4767(4) 0.3465(6) 0.6723(3)
O5 O 0.4507(4) 0.5754(8) 0.6038(3)
H38 H 0.4270 0.5756 0.5719
O6 O 0.3435(4) 0.5252(7) 0.5978(3)
O7 O 0.3195(4) 0.3853(6) 0.6582(3)
H39 H 0.3153 0.4340 0.6366
O8 O 0.3936(4) 0.3524(6) 0.7416(3)
O9 O 0.3296(4) 0.5749(6) 0.7698(3)
O10 O 0.4307(4) 0.5405(6) 0.8437(3)
O11 O 0.5191(4) 0.3747(6) 0.8492(3)
H40 H 0.4893 0.4195 0.8503
O12 O 0.5729(4) 0.3492(6) 0.8011(3)
O13 O 1.1849(3) 0.5911(6) 0.7816(3)
O14 O 1.1785(3) 0.4942(6) 0.8435(3)
O15 O 1.1048(4) 0.7564(6) 0.7192(3)
H41 H 1.1336 0.7021 0.7301
O16 O 0.9871(4) 0.7867(6) 0.6888(3)
O17 O 0.9525(7) 0.5950(12) 0.6071(4)
O18 O 0.8444(6) 0.5435(8) 0.5987(4)
H42 H 0.8237 0.5951 0.5775
O19 O 0.8377(3) 0.7534(5) 0.6618(2)
H43 H 0.8336 0.8235 0.6621
O20 O 0.9003(4) 0.7751(5) 0.7484(3)
O21 O 0.8299(4) 0.5326(7) 0.7725(3)
O22 O 0.9264(4) 0.5871(7) 0.8438(3)
O23 O 1.0256(4) 0.7322(7) 0.8568(3)
H44 H 0.9953 0.6865 0.8567
O24 O 1.0882(4) 0.7574(6) 0.8147(3)
O25 O 0.7915(4) 0.7444(7) 0.8383(4)
O26 O 0.3351(5) 0.7461(8) 0.8592(4)
Cd2_2 Cd 1.30489(4) 0.55553(7) 0.83910(3)
O13_2 O 0.1849(3) 0.5911(6) 0.7816(3)
C45 C 0.6882(7) 0.7721(12) 0.4392(5)
H29 H 0.6637 0.7421 0.4056
C46 C 0.7068(8) 0.7015(12) 0.4804(5)
H30 H 0.6949 0.6237 0.4758
C47 C 0.7450(7) 0.7505(11) 0.5310(5)
H31 H 0.7604 0.7039 0.5603
C48 C 0.7593(6) 0.8663(10) 0.5368(4)
H32 H 0.7831 0.8979 0.5701
C49 C 0.7391(5) 0.9364(10) 0.4942(4)
C50 C 0.7509(5) 1.0607(9) 0.4945(4)
C51 C 0.7874(6) 1.1229(11) 0.5398(5)
H33 H 0.8076 1.0866 0.5721
C52 C 0.7933(7) 1.2383(12) 0.5364(6)
H34 H 0.8178 1.2825 0.5665
C53 C 0.7619(8) 1.2911(12) 0.4866(6)
H35 H 0.7656 1.3701 0.4835
C54 C 0.7262(8) 1.2236(12) 0.4432(6)
H36 H 0.7048 1.2579 0.4105
N5 N 0.7046(5) 0.8853(8) 0.4460(3)
N6 N 0.7211(5) 1.1095(9) 0.4467(4)
O27 O 0.8926(6) 0.8871(8) 0.8374(5)
O28 O 0.2189(7) 0.8781(10) 0.8167(7)
O29 O 0.4080(11) 0.5694(19) 0.5011(5)
loop_
_geom_bond_atom_site_label_1
_geom_bond_atom_site_label_2
_geom_bond_site_symmetry_1
_geom_bond_site_symmetry_2
Cd1 N1 1_555 1_555
Cd2 N3 1_555 1_555
C1 C2 1_555 1_555
C2 H1 1_555 1_555
C3 C2 1_555 1_555
H2 C3 1_555 1_555
C4 C3 1_555 1_555
H3 C4 1_555 1_555
C5 C4 1_555 1_555
H4 C5 1_555 1_555
C6 C5 1_555 1_555
H5 C6 1_555 1_555
C7 C2 1_555 1_555
H6 C7 1_555 1_555
C8 C3 1_555 1_555
C9 C4 1_555 1_555
C10 C5 1_555 1_555
C11 C6 1_555 1_555
C12 C7 1_555 1_555
C13 C14 1_555 1_555
C14 H7 1_555 1_555
C15 C14 1_555 1_555
H8 C15 1_555 1_555
C16 C15 1_555 1_555
H9 C16 1_555 1_555
C17 C16 1_555 1_555
H10 C17 1_555 1_555
C18 C17 1_555 1_555
H11 C18 1_555 1_555
C19 C14 1_555 1_555
H12 C19 1_555 1_555
C20 C15 1_555 1_555
C21 C16 1_555 1_555
C22 C17 1_555 1_555
C23 C18 1_555 1_555
C24 C19 1_555 1_555
C25 H13 1_555 1_555
C26 C25 1_555 1_555
H14 C26 1_555 1_555
C27 C26 1_555 1_555
H15 C27 1_555 1_555
C28 C27 1_555 1_555
H16 C28 1_555 1_555
C29 C28 1_555 1_555
C30 C29 1_555 1_555
C31 C30 1_555 1_555
H17 C31 1_555 1_555
C32 C31 1_555 1_555
H18 C32 1_555 1_555
C33 C32 1_555 1_555
H19 C33 1_555 1_555
C34 C33 1_555 1_555
H20 C34 1_555 1_555
C35 H21 1_555 1_555
C36 C35 1_555 1_555
H22 C36 1_555 1_555
C37 C36 1_555 1_555
H23 C37 1_555 1_555
C38 C37 1_555 1_555
H24 C38 1_555 1_555
C39 C38 1_555 1_555
C40 C39 1_555 1_555
C41 C40 1_555 1_555
H25 C41 1_555 1_555
C42 C41 1_555 1_555
H26 C42 1_555 1_555
C43 C42 1_555 1_555
H27 C43 1_555 1_555
C44 C43 1_555 1_555
H28 C44 1_555 1_555
C45 H29 1_555 1_555
C46 C45 1_555 1_555
H30 C46 1_555 1_555
C47 C46 1_555 1_555
H31 C47 1_555 1_555
C48 C47 1_555 1_555
H32 C48 1_555 1_555
C49 C48 1_555 1_555
C50 C49 1_555 1_555
C51 C50 1_555 1_555
H33 C51 1_555 1_555
C52 C51 1_555 1_555
H34 C52 1_555 1_555
C53 C52 1_555 1_555
H35 C53 1_555 1_555
C54 C53 1_555 1_555
H36 C54 1_555 1_555
N1 C25 1_555 1_555
N2 Cd1 1_555 1_555
N3 C35 1_555 1_555
N4 Cd2 1_555 1_555
N5 C45 1_555 1_555
N6 C50 1_555 1_555
O1 Cd1 1_555 1_555
O2 Cd1 1_555 1_555
O3 C8 1_555 1_555
H37 O3 1_555 1_555
O4 C8 1_555 1_555
O5 C9 1_555 1_555
H38 O5 1_555 1_555
O6 C9 1_555 1_555
O7 C10 1_555 1_555
H39 O7 1_555 1_555
O8 C10 1_555 1_555
O9 Cd2 1_555 1_555
O10 Cd2 1_555 1_555
O11 C12 1_555 1_555
H40 O11 1_555 1_555
O12 C12 1_555 1_555
O13 C13 1_555 1_555
O14 C13 1_555 1_555
O15 C20 1_555 1_555
H41 O15 1_555 1_555
O16 C20 1_555 1_555
O17 C21 1_555 1_555
O18 C21 1_555 1_555
H42 O18 1_555 1_555
O19 C22 1_555 1_555
H43 O19 1_555 1_555
O20 C22 1_555 1_555
O21 Cd1 1_555 1_555
O22 Cd1 1_555 1_555
O23 C24 1_555 1_555
H44 O23 1_555 1_555
O24 C24 1_555 1_555
O25 Cd1 1_555 1_555
O26 Cd2 1_555 1_555
Cd2_2 O13 1_555 1_555
O13_2 Cd2 1_555 1_555
C1 O1 1_555 1_555
C1 O2 1_555 1_555
C6 C7 1_555 1_555
C11 O9 1_555 1_555
C11 O10 1_555 1_555
C18 C19 1_555 1_555
C23 O21 1_555 1_555
C23 O22 1_555 1_555
C29 N1 1_555 1_555
C30 N2 1_555 1_555
C34 N2 1_555 1_555
C39 N3 1_555 1_555
C40 N4 1_555 1_555
C44 N4 1_555 1_555
C49 N5 1_555 1_555
C54 N6 1_555 1_555

#END
