
#######################################################################
#
#                 Cambridge Crystallographic Data Centre
#                                CCDC 
#
#######################################################################
#
# If this CIF has been generated from an entry in the Cambridge 
# Structural Database, then it will include bibliographic, chemical, 
# crystal, experimental, refinement or atomic coordinate data resulting 
# from the CCDC's data processing and validation procedures.
#
#######################################################################

data_PASPOQ
_symmetry_cell_setting           triclinic
_symmetry_space_group_name_H-M   'P -1'
_symmetry_Int_Tables_number      2
_space_group_name_Hall           '-P 1'
loop_
_symmetry_equiv_pos_site_id
_symmetry_equiv_pos_as_xyz
1 x,y,z
2 -x,-y,-z
_cell_length_a                   12.7407(3)
_cell_length_b                   12.7787(3)
_cell_length_c                   15.9960(4)
_cell_angle_alpha                86.701(2)
_cell_angle_beta                 72.142(2)
_cell_angle_gamma                60.438(3)
_cell_volume                     2142.27
loop_
_atom_site_label
_atom_site_type_symbol
_atom_site_fract_x
_atom_site_fract_y
_atom_site_fract_z
Mn1 Mn 0.0000 0.5000 0.0000
Mn2 Mn 0.85450(3) 0.75564(3) -0.70935(2)
Mn3 Mn -0.04292(3) 0.73886(3) 0.08735(2)
K1 K 1.07366(6) 0.62388(6) -0.58206(4)
S1 S 0.22053(6) 0.79725(6) -0.47701(4)
S2 S -0.61947(5) 0.49817(5) 0.19097(4)
S3 S 0.42604(6) -0.01964(5) 0.20096(5)
O1 O 0.04336(17) 0.60527(16) -0.09109(11)
O2 O -0.16861(14) 0.66168(14) 0.08744(11)
O3 O 0.07789(15) 0.54119(14) 0.09370(11)
O4 O 0.80924(16) 0.72578(16) -0.57942(11)
O5 O -0.26596(19) -0.06313(16) 0.28080(15)
O6 O -0.24323(16) 0.70077(16) 0.23418(12)
O7 O -0.00611(16) -0.20154(16) 0.29791(12)
O8 O 0.01420(16) 0.57446(15) 0.24065(12)
O9 O -0.20241(18) -0.09446(17) 0.13390(15)
O10 O 0.0273(2) 0.77069(19) -0.03957(12)
O11 O 0.05386(18) -0.22175(17) 0.15101(13)
O12 O 0.8329(2) 0.5670(2) -0.50712(16)
O13 O 0.14689(17) 0.92344(18) -0.48512(12)
O14 O 0.22468(18) 0.70986(19) -0.53295(12)
O15 O -0.65228(17) 0.51572(16) 0.11107(12)
O16 O -0.71910(15) 0.54796(15) 0.27493(12)
O17 O 0.44961(19) -0.02773(17) 0.28384(14)
O18 O 0.53029(16) -0.07337(16) 0.12034(14)
O19 O 0.8872(3) 0.8402(2) -0.47639(17)
C1 C 0.0518(2) 0.6989(2) -0.10164(16)
C2 C 0.0936(2) 0.7252(2) -0.19469(16)
C3 C 0.1052(3) 0.8276(2) -0.21212(17)
H1 H 0.0877 0.8804 -0.1656
C4 C 0.1427(3) 0.8511(2) -0.29820(17)
H2 H 0.1504 0.9195 -0.3103
C5 C 0.1685(2) 0.7712(2) -0.36614(15)
C6 C 0.1566(3) 0.6698(3) -0.34999(17)
H3 H 0.1730 0.6177 -0.3965
C7 C 0.1200(3) 0.6469(2) -0.26390(17)
H4 H 0.1129 0.5781 -0.2522
C8 C 0.3796(2) 0.7611(2) -0.49446(15)
C9 C 0.4211(2) 0.8408(2) -0.52841(17)
H5 H 0.3650 0.9164 -0.5408
C10 C 0.5475(2) 0.8067(2) -0.54384(17)
H6 H 0.5764 0.8596 -0.5675
C11 C 0.6314(2) 0.6953(2) -0.52461(15)
C12 C 0.5878(2) 0.6157(2) -0.49059(17)
H7 H 0.6437 0.5401 -0.4782
C13 C 0.4620(2) 0.6486(2) -0.47515(17)
H8 H 0.4329 0.5957 -0.4520
C14 C 0.7688(2) 0.6580(2) -0.53780(16)
C15 C -0.2438(2) 0.6658(2) 0.16329(16)
C16 C -0.3391(2) 0.6264(2) 0.16913(15)
C17 C -0.3361(2) 0.5711(2) 0.09550(16)
H9 H -0.2749 0.5587 0.0413
C18 C -0.4239(2) 0.5342(2) 0.10238(16)
H10 H -0.4224 0.4977 0.0530
C19 C -0.5135(2) 0.5525(2) 0.18334(15)
C20 C -0.5183(2) 0.6074(2) 0.25752(16)
H11 H -0.5794 0.6194 0.3117
C21 C -0.4304(2) 0.6441(2) 0.24955(16)
H12 H -0.4326 0.6811 0.2990
C22 C -0.5242(2) 0.3414(2) 0.19452(15)
C23 C -0.4451(3) 0.2657(2) 0.11692(18)
H13 H -0.4461 0.2951 0.0625
C24 C -0.3642(3) 0.1451(2) 0.12182(19)
H14 H -0.3103 0.0929 0.0700
C25 C -0.3625(2) 0.1012(2) 0.20220(18)
C26 C -0.4452(3) 0.1775(2) 0.27907(18)
H15 H -0.4462 0.1476 0.3335
C27 C -0.5267(3) 0.2984(2) 0.27541(17)
H16 H -0.5826 0.3500 0.3271
C28 C -0.2706(2) -0.0290(2) 0.2063(2)
C29 C 0.0612(2) -0.1976(2) 0.22302(18)
C30 C 0.1557(2) -0.1572(2) 0.21772(16)
C31 C 0.1545(2) -0.1096(2) 0.29386(17)
H17 H 0.0973 -0.1047 0.3482
C32 C 0.2386(2) -0.0693(2) 0.28870(17)
H18 H 0.2381 -0.0368 0.3395
C33 C 0.3231(2) -0.0776(2) 0.20785(17)
C34 C 0.3271(3) -0.1271(3) 0.13183(18)
H19 H 0.3858 -0.1336 0.0777
C35 C 0.2424(3) -0.1668(3) 0.13750(17)
H20 H 0.2438 -0.2003 0.0868
C36 C 0.3287(2) 0.1353(2) 0.19110(17)
C37 C 0.2519(3) 0.2165(2) 0.26632(18)
H21 H 0.2537 0.1909 0.3217
C38 C 0.1721(3) 0.3365(2) 0.25852(18)
H22 H 0.1199 0.3917 0.3090
C39 C 0.1693(2) 0.3751(2) 0.17582(16)
C40 C 0.2458(2) 0.2919(2) 0.10142(17)
H23 H 0.2433 0.3169 0.0460
C41 C 0.3264(2) 0.1713(2) 0.10842(18)
H24 H 0.3780 0.1157 0.0581
C42 C 0.0807(2) 0.5060(2) 0.17021(16)
Mn2A Mn -0.85450(3) 0.24436(3) 0.70935(2)
Mn2_2 Mn -0.14550(3) -0.24436(3) 0.29065(2)
Mn2_3 Mn -0.14550(3) 0.75564(3) 0.29065(2)
Mn2A_2 Mn 0.14550(3) 1.24436(3) -0.29065(2)
Mn2A_3 Mn 0.14550(3) 0.24436(3) -0.29065(2)
Mn3A Mn 0.04292(3) 0.26114(3) -0.08735(2)
Mn3_2 Mn -0.04292(3) -0.26114(3) 0.08735(2)
Mn3A_2 Mn 0.04292(3) 1.26114(3) -0.08735(2)
K1A K -1.07366(6) 0.37612(6) 0.58206(4)
K1_2 K 0.07366(6) -0.37612(6) 0.41794(4)
K1A_2 K 0.92634(6) 0.37612(6) -0.41794(4)
K1_3 K 0.07366(6) 0.62388(6) -0.58206(4)
K1_4 K -0.92634(6) 0.62388(6) 0.41794(4)
K1A_3 K -0.07366(6) 0.37612(6) 0.58206(4)
K1A_4 K -0.07366(6) 1.37612(6) -0.41794(4)
S1A S -0.22053(6) 0.20275(6) 0.47701(4)
S2A S 0.61947(5) 0.50183(5) -0.19097(4)
S3A S -0.42604(6) 1.01964(5) -0.20096(5)
O1A O -0.04336(17) 0.39473(16) 0.09109(11)
O2A O 0.16861(14) 0.33832(14) -0.08744(11)
O3A O -0.07789(15) 0.45881(14) -0.09370(11)
O4A O -0.80924(16) 0.27422(16) 0.57942(11)
O5A O 0.26596(19) 1.06313(16) -0.28080(15)
O5_2 O 0.73404(19) 0.93687(16) -0.71920(15)
O5A_2 O -0.73404(19) 0.06313(16) 0.71920(15)
O6A O 0.24323(16) 0.29923(16) -0.23418(12)
O6_2 O 0.75677(16) 0.70077(16) -0.76582(12)
O6A_2 O -0.75677(16) 0.29923(16) 0.76582(12)
O7A O 0.00611(16) 1.20154(16) -0.29791(12)
O7_2 O 0.99389(16) 0.79846(16) -0.70209(12)
O7A_2 O -0.99389(16) 0.20154(16) 0.70209(12)
O8A O -0.01420(16) 0.42554(15) -0.24065(12)
O8_2 O 1.01420(16) 0.57446(15) -0.75935(12)
O8A_2 O -1.01420(16) 0.42554(15) 0.75935(12)
O9A O 0.20241(18) 1.09446(17) -0.13390(15)
O9_2 O -0.20241(18) 0.90554(17) 0.13390(15)
O9A_2 O 0.20241(18) 0.09446(17) -0.13390(15)
O10A O -0.0273(2) 0.22931(19) 0.03957(12)
O11A O -0.05386(18) 1.22175(17) -0.15101(13)
O11_2 O 0.05386(18) 0.77825(17) 0.15101(13)
O11A_2 O -0.05386(18) 0.22175(17) -0.15101(13)
O12A O -0.8329(2) 0.4330(2) 0.50712(16)
O12A_2 O 1.1671(2) 0.4330(2) -0.49288(16)
O12_2 O -1.1671(2) 0.5670(2) 0.49288(16)
O13A O -0.14689(17) 0.07656(18) 0.48512(12)
O14A O -0.22468(18) 0.29014(19) 0.53295(12)
O14_2 O 1.22468(18) 0.70986(19) -0.53295(12)
O14A_2 O -1.22468(18) 0.29014(19) 0.53295(12)
O15A O 0.65228(17) 0.48428(16) -0.11107(12)
O16A O 0.71910(15) 0.45204(15) -0.27493(12)
O16_2 O 1.28090(15) 0.54796(15) -0.72507(12)
O16A_2 O -1.28090(15) 0.45204(15) 0.72507(12)
O17A O -0.44961(19) 1.02773(17) -0.28384(14)
O18A O -0.53029(16) 1.07337(16) -0.12034(14)
O19A O -0.8872(3) 0.1598(2) 0.47639(17)
C1A C -0.0518(2) 0.3011(2) 0.10164(16)
C2A C -0.0936(2) 0.2748(2) 0.19469(16)
C3A C -0.1052(3) 0.1724(2) 0.21212(17)
H1A H -0.0877 0.1196 0.1656
C4A C -0.1427(3) 0.1489(2) 0.29820(17)
H2A H -0.1504 0.0805 0.3103
C5A C -0.1685(2) 0.2288(2) 0.36614(15)
C6A C -0.1566(3) 0.3302(3) 0.34999(17)
H3A H -0.1730 0.3823 0.3965
C7A C -0.1200(3) 0.3531(2) 0.26390(17)
H4A H -0.1129 0.4219 0.2522
C8A C -0.3796(2) 0.2389(2) 0.49446(15)
C9A C -0.4211(2) 0.1592(2) 0.52841(17)
H5A H -0.3650 0.0836 0.5408
C10A C -0.5475(2) 0.1933(2) 0.54384(17)
H6A H -0.5764 0.1404 0.5675
C11A C -0.6314(2) 0.3047(2) 0.52461(15)
C12A C -0.5878(2) 0.3843(2) 0.49059(17)
H7A H -0.6437 0.4599 0.4782
C13A C -0.4620(2) 0.3514(2) 0.47515(17)
H8A H -0.4329 0.4043 0.4520
C14A C -0.7688(2) 0.3420(2) 0.53780(16)
C15A C 0.2438(2) 0.3342(2) -0.16329(16)
C16A C 0.3391(2) 0.3736(2) -0.16913(15)
C17A C 0.3361(2) 0.4289(2) -0.09550(16)
H9A H 0.2749 0.4413 -0.0413
C18A C 0.4239(2) 0.4658(2) -0.10238(16)
H10A H 0.4224 0.5023 -0.0530
C19A C 0.5135(2) 0.4475(2) -0.18334(15)
C20A C 0.5183(2) 0.3926(2) -0.25752(16)
H11A H 0.5794 0.3806 -0.3117
C21A C 0.4304(2) 0.3559(2) -0.24955(16)
H12A H 0.4326 0.3189 -0.2990
C22A C 0.5242(2) 0.6586(2) -0.19452(15)
C23A C 0.4451(3) 0.7343(2) -0.11692(18)
H13A H 0.4461 0.7049 -0.0625
C24A C 0.3642(3) 0.8549(2) -0.12182(19)
H14A H 0.3103 0.9071 -0.0700
C25A C 0.3625(2) 0.8988(2) -0.20220(18)
C26A C 0.4452(3) 0.8225(2) -0.27907(18)
H15A H 0.4462 0.8524 -0.3335
C27A C 0.5267(3) 0.7016(2) -0.27541(17)
H16A H 0.5826 0.6500 -0.3271
C28A C 0.2706(2) 1.0290(2) -0.2063(2)
C29A C -0.0612(2) 1.1976(2) -0.22302(18)
C30A C -0.1557(2) 1.1572(2) -0.21772(16)
C31A C -0.1545(2) 1.1096(2) -0.29386(17)
H17A H -0.0973 1.1047 -0.3482
C32A C -0.2386(2) 1.0693(2) -0.28870(17)
H18A H -0.2381 1.0368 -0.3395
C33A C -0.3231(2) 1.0776(2) -0.20785(17)
C34A C -0.3271(3) 1.1271(3) -0.13183(18)
H19A H -0.3858 1.1336 -0.0777
C35A C -0.2424(3) 1.1668(3) -0.13750(17)
H20A H -0.2438 1.2003 -0.0868
C36A C -0.3287(2) 0.8647(2) -0.19110(17)
C37A C -0.2519(3) 0.7835(2) -0.26632(18)
H21A H -0.2537 0.8091 -0.3217
C38A C -0.1721(3) 0.6635(2) -0.25852(18)
H22A H -0.1199 0.6083 -0.3090
C39A C -0.1693(2) 0.6249(2) -0.17582(16)
C40A C -0.2458(2) 0.7081(2) -0.10142(17)
H23A H -0.2433 0.6831 -0.0460
C41A C -0.3264(2) 0.8287(2) -0.10842(18)
H24A H -0.3780 0.8843 -0.0581
C42A C -0.0807(2) 0.4940(2) -0.17021(16)
loop_
_geom_bond_atom_site_label_1
_geom_bond_atom_site_label_2
_geom_bond_site_symmetry_1
_geom_bond_site_symmetry_2
Mn1 O1 1_555 1_555
Mn2 O4 1_555 1_555
Mn3 O2 1_555 1_555
K1 O4 1_555 1_555
S1 O13 1_555 1_555
S2 O15 1_555 1_555
S3 O17 1_555 1_555
O1 C1 1_555 1_555
O2 Mn1 1_555 1_555
O3 Mn1 1_555 1_555
O4 C14 1_555 1_555
O5 C28 1_555 1_555
O6 C15 1_555 1_555
O7 C29 1_555 1_555
O8 C42 1_555 1_555
O9 C28 1_555 1_555
O10 Mn3 1_555 1_555
O11 C29 1_555 1_555
O12 C14 1_555 1_555
O14 S1 1_555 1_555
O16 S2 1_555 1_555
O18 S3 1_555 1_555
O19 K1 1_555 1_555
C1 O10 1_555 1_555
C2 C1 1_555 1_555
C3 C2 1_555 1_555
H1 C3 1_555 1_555
C4 C3 1_555 1_555
H2 C4 1_555 1_555
C5 S1 1_555 1_555
C6 C5 1_555 1_555
H3 C6 1_555 1_555
C7 C2 1_555 1_555
H4 C7 1_555 1_555
C8 S1 1_555 1_555
C9 C8 1_555 1_555
H5 C9 1_555 1_555
C10 C9 1_555 1_555
H6 C10 1_555 1_555
C11 C10 1_555 1_555
C12 C11 1_555 1_555
H7 C12 1_555 1_555
C13 C8 1_555 1_555
H8 C13 1_555 1_555
C14 C11 1_555 1_555
C15 O2 1_555 1_555
C16 C15 1_555 1_555
C17 C16 1_555 1_555
H9 C17 1_555 1_555
C18 C17 1_555 1_555
H10 C18 1_555 1_555
C19 S2 1_555 1_555
C20 C19 1_555 1_555
H11 C20 1_555 1_555
C21 C16 1_555 1_555
H12 C21 1_555 1_555
C22 S2 1_555 1_555
C23 C22 1_555 1_555
H13 C23 1_555 1_555
C24 C23 1_555 1_555
H14 C24 1_555 1_555
C25 C24 1_555 1_555
C26 C25 1_555 1_555
H15 C26 1_555 1_555
C27 C22 1_555 1_555
H16 C27 1_555 1_555
C28 C25 1_555 1_555
C29 C30 1_555 1_555
C30 C31 1_555 1_555
C31 H17 1_555 1_555
C32 C31 1_555 1_555
H18 C32 1_555 1_555
C33 S3 1_555 1_555
C34 C33 1_555 1_555
H19 C34 1_555 1_555
C35 C30 1_555 1_555
H20 C35 1_555 1_555
C36 S3 1_555 1_555
C37 C36 1_555 1_555
H21 C37 1_555 1_555
C38 C37 1_555 1_555
H22 C38 1_555 1_555
C39 C38 1_555 1_555
C40 C39 1_555 1_555
H23 C40 1_555 1_555
C41 C36 1_555 1_555
H24 C41 1_555 1_555
C42 O3 1_555 1_555
Mn2A O4A 1_555 1_555
Mn2_2 O5 1_555 1_555
Mn2_3 O6 1_555 1_555
Mn2A_2 O5A 1_555 1_555
Mn2A_3 O6A 1_555 1_555
Mn3A O2A 1_555 1_555
Mn3_2 O9 1_555 1_555
Mn3A_2 O9A 1_555 1_555
K1A O4A 1_555 1_555
K1_2 O7 1_555 1_555
K1A_2 O12 1_555 1_555
K1_3 O14 1_555 1_555
K1_4 O16 1_555 1_555
K1A_3 O14A 1_555 1_555
K1A_4 O7A 1_555 1_555
S1A O13A 1_555 1_555
S2A O15A 1_555 1_555
S3A O17A 1_555 1_555
O1A Mn1 1_555 1_555
O2A Mn1 1_555 1_555
O3A Mn1 1_555 1_555
O4A C14A 1_555 1_555
O5A C28A 1_555 1_555
O5_2 Mn2 1_555 1_555
O5A_2 Mn2A 1_555 1_555
O6A C15A 1_555 1_555
O6_2 Mn2 1_555 1_555
O6A_2 Mn2A 1_555 1_555
O7A Mn2A_2 1_555 1_555
O7_2 Mn2 1_555 1_555
O7A_2 Mn2A 1_555 1_555
O8A Mn2A_3 1_555 1_555
O8_2 Mn2 1_555 1_555
O8A_2 Mn2A 1_555 1_555
O9A C28A 1_555 1_555
O9_2 Mn3 1_555 1_555
O9A_2 Mn3A 1_555 1_555
O10A Mn3A 1_555 1_555
O11A Mn3A_2 1_555 1_555
O11_2 Mn3 1_555 1_555
O11A_2 Mn3A 1_555 1_555
O12A K1_4 1_555 1_555
O12A_2 K1 1_555 1_555
O12_2 K1A 1_555 1_555
O14A S1A 1_555 1_555
O14_2 K1 1_555 1_555
O14A_2 K1A 1_555 1_555
O16A K1A_2 1_555 1_555
O16_2 K1 1_555 1_555
O16A_2 K1A 1_555 1_555
O18A S3A 1_555 1_555
O19A K1A 1_555 1_555
C1A O1A 1_555 1_555
C2A C1A 1_555 1_555
C3A C2A 1_555 1_555
H1A C3A 1_555 1_555
C4A C3A 1_555 1_555
H2A C4A 1_555 1_555
C5A S1A 1_555 1_555
C6A C5A 1_555 1_555
H3A C6A 1_555 1_555
C7A C2A 1_555 1_555
H4A C7A 1_555 1_555
C8A S1A 1_555 1_555
C9A C8A 1_555 1_555
H5A C9A 1_555 1_555
C10A C9A 1_555 1_555
H6A C10A 1_555 1_555
C11A C10A 1_555 1_555
C12A C11A 1_555 1_555
H7A C12A 1_555 1_555
C13A C8A 1_555 1_555
H8A C13A 1_555 1_555
C14A O12A 1_555 1_555
C15A O2A 1_555 1_555
C16A C15A 1_555 1_555
C17A C16A 1_555 1_555
H9A C17A 1_555 1_555
C18A C17A 1_555 1_555
H10A C18A 1_555 1_555
C19A S2A 1_555 1_555
C20A C19A 1_555 1_555
H11A C20A 1_555 1_555
C21A C16A 1_555 1_555
H12A C21A 1_555 1_555
C22A S2A 1_555 1_555
C23A C22A 1_555 1_555
H13A C23A 1_555 1_555
C24A C23A 1_555 1_555
H14A C24A 1_555 1_555
C25A C24A 1_555 1_555
C26A C25A 1_555 1_555
H15A C26A 1_555 1_555
C27A C22A 1_555 1_555
H16A C27A 1_555 1_555
C28A C25A 1_555 1_555
C29A O7A 1_555 1_555
C30A C29A 1_555 1_555
C31A C30A 1_555 1_555
H17A C31A 1_555 1_555
C32A C31A 1_555 1_555
H18A C32A 1_555 1_555
C33A S3A 1_555 1_555
C34A C33A 1_555 1_555
H19A C34A 1_555 1_555
C35A C30A 1_555 1_555
H20A C35A 1_555 1_555
C36A S3A 1_555 1_555
C37A C36A 1_555 1_555
H21A C37A 1_555 1_555
C38A C37A 1_555 1_555
H22A C38A 1_555 1_555
C39A C38A 1_555 1_555
C40A C39A 1_555 1_555
H23A C40A 1_555 1_555
C41A C36A 1_555 1_555
H24A C41A 1_555 1_555
C42A O3A 1_555 1_555
Mn3 O3 1_555 1_555
K1 O7_2 1_555 1_555
O7 Mn2_2 1_555 1_555
O8 Mn2_3 1_555 1_555
O11 Mn3_2 1_555 1_555
C4 C5 1_555 1_555
C6 C7 1_555 1_555
C12 C13 1_555 1_555
C18 C19 1_555 1_555
C20 C21 1_555 1_555
C26 C27 1_555 1_555
C32 C33 1_555 1_555
C34 C35 1_555 1_555
C39 C42 1_555 1_555
C40 C41 1_555 1_555
Mn3A O3A 1_555 1_555
K1A O7A_2 1_555 1_555
S2A O16A 1_555 1_555
O8A C42A 1_555 1_555
O10A C1A 1_555 1_555
O11A C29A 1_555 1_555
C4A C5A 1_555 1_555
C6A C7A 1_555 1_555
C11A C14A 1_555 1_555
C12A C13A 1_555 1_555
C18A C19A 1_555 1_555
C20A C21A 1_555 1_555
C26A C27A 1_555 1_555
C32A C33A 1_555 1_555
C34A C35A 1_555 1_555
C39A C42A 1_555 1_555
C40A C41A 1_555 1_555

#END
