
#######################################################################
#
#                 Cambridge Crystallographic Data Centre
#                                CCDC 
#
#######################################################################
#
# If this CIF has been generated from an entry in the Cambridge 
# Structural Database, then it will include bibliographic, chemical, 
# crystal, experimental, refinement or atomic coordinate data resulting 
# from the CCDC's data processing and validation procedures.
#
#######################################################################

data_PASPEG
_symmetry_cell_setting           triclinic
_symmetry_space_group_name_H-M   'P -1'
_symmetry_Int_Tables_number      2
_space_group_name_Hall           '-P 1'
loop_
_symmetry_equiv_pos_site_id
_symmetry_equiv_pos_as_xyz
1 x,y,z
2 -x,-y,-z
_cell_length_a                   12.8575(16)
_cell_length_b                   14.2518(17)
_cell_length_c                   16.053(3)
_cell_angle_alpha                101.572(2)
_cell_angle_beta                 107.553(2)
_cell_angle_gamma                112.3380(10)
_cell_volume                     2422.78
loop_
_atom_site_label
_atom_site_type_symbol
_atom_site_fract_x
_atom_site_fract_y
_atom_site_fract_z
Co1 Co 0.63645(4) -0.16921(3) 0.32132(3)
Co2 Co 1.0000 0.5000 1.0000
C1 C 0.8158(3) 0.0995(2) 0.5927(2)
H1 H 0.8281 0.1563 0.5654
C2 C 0.7826(3) 0.1389(2) 0.6740(2)
H2 H 0.7157 0.1556 0.6462
C3 C 0.8927(3) 0.2481(2) 0.7454(2)
H3 H 0.9027 0.2956 0.7087
C4 C 1.0186(3) 0.2478(2) 0.7806(2)
H4 H 1.0809 0.3243 0.8138
C5 C 1.0442(3) 0.2088(2) 0.6957(2)
H5 H 1.0420 0.2602 0.6637
C6 C 0.9403(3) 0.0976(2) 0.6224(2)
H6 H 0.9579 0.0900 0.5668
C7 C 0.7129(3) -0.0036(3) 0.5111(2)
C8 C 0.7351(3) 0.0622(3) 0.7226(3)
C9 C 0.8636(3) 0.3034(2) 0.8205(2)
C10 C 1.0442(3) 0.1907(3) 0.8491(2)
C11 C 1.1764(3) 0.2259(3) 0.7259(2)
C12 C 0.9288(3) -0.0030(3) 0.6458(2)
C13 C 0.5428(5) -0.3909(4) 0.3465(4)
H7 H 0.4734 -0.4087 0.2937
C14 C 0.5457(5) -0.4717(4) 0.3804(4)
H8 H 0.4805 -0.5420 0.3491
C15 C 0.6430(4) -0.4500(3) 0.4595(3)
C16 C 0.7348(6) -0.3443(4) 0.4989(3)
H9 H 0.8038 -0.3235 0.5532
C17 C 0.7270(6) -0.2684(4) 0.4600(3)
H10 H 0.7920 -0.1978 0.4883
C18 C 0.6516(4) -0.5341(3) 0.4990(3)
C19 C 0.5898(5) -0.6430(4) 0.4450(4)
H11 H 0.5392 -0.6667 0.3817
C20 C 0.6038(6) -0.7170(4) 0.4860(5)
H12 H 0.5620 -0.7899 0.4477
C21 C 0.7308(5) -0.5880(4) 0.6251(4)
H13 H 0.7804 -0.5672 0.6882
C22 C 0.7251(5) -0.5071(4) 0.5919(3)
H14 H 0.7704 -0.4349 0.6319
C23 C 0.5977(4) 0.0118(3) 0.2629(3)
H15 H 0.5665 0.0128 0.3081
C24 C 0.5883(4) 0.0764(3) 0.2118(3)
H16 H 0.5512 0.1194 0.2227
C25 C 0.6337(3) 0.0782(3) 0.1437(2)
C26 C 0.6897(4) 0.0134(3) 0.1338(3)
H17 H 0.7236 0.0125 0.0903
C27 C 0.6956(4) -0.0496(3) 0.1879(3)
H18 H 0.7340 -0.0922 0.1794
C28 C 0.6197(3) 0.1426(3) 0.0825(3)
C29 C 0.5571(4) 0.2018(4) 0.0882(3)
H19 H 0.5255 0.2052 0.1331
C30 C 0.5414(5) 0.2560(4) 0.0272(4)
H20 H 0.4981 0.2948 0.0321
C31 C 0.6466(4) 0.2012(4) -0.0423(3)
H21 H 0.6793 0.2008 -0.0867
C32 C 0.6659(4) 0.1444(3) 0.0156(3)
H22 H 0.7105 0.1072 0.0095
C33 C 0.9954(4) 0.6346(3) 0.8705(3)
H23 H 0.9489 0.6539 0.8981
C34 C 1.0102(4) 0.6699(3) 0.7992(3)
H24 H 0.9755 0.7128 0.7806
C35 C 1.0766(3) 0.6416(3) 0.7553(3)
C36 C 1.1306(4) 0.5815(3) 0.7899(3)
H25 H 1.1783 0.5620 0.7640
C37 C 1.1132(4) 0.5513(3) 0.8623(3)
H26 H 1.1517 0.5125 0.8851
C38 C 1.0872(4) 0.6715(3) 0.6736(3)
C39 C 1.0714(5) 0.7553(4) 0.6559(3)
H27 H 1.0554 0.7983 0.6967
C40 C 1.0793(6) 0.7767(4) 0.5774(4)
H28 H 1.0710 0.8365 0.5686
C41 C 1.1165(7) 0.6406(5) 0.5332(4)
H29 H 1.1328 0.5995 0.4910
C42 C 1.1146(6) 0.6136(5) 0.6105(4)
H30 H 1.1313 0.5577 0.6204
N1 N 0.6307(3) -0.2919(2) 0.3837(2)
N2 N 0.6716(4) -0.6919(3) 0.5747(3)
N3 N 0.6492(3) -0.0527(2) 0.25190(19)
N4 N 0.5849(3) 0.2559(3) -0.0385(2)
N5 N 1.0440(3) 0.5742(2) 0.9024(2)
N6 N 1.0976(5) 0.7186(4) 0.5140(3)
O1 O 0.7429(2) -0.04076(18) 0.44965(14)
O2 O 0.6050(2) -0.0432(2) 0.50685(18)
O3 O 0.6295(3) -0.0267(2) 0.67215(19)
H31 H 0.6068 -0.0320 0.6171
O4 O 0.7858(3) 0.0858(2) 0.80617(18)
O5 O 0.7648(2) 0.3059(2) 0.79809(16)
O6 O 0.9502(2) 0.35265(18) 0.90383(15)
O7 O 1.0486(3) 0.2302(2) 0.93231(16)
H32 H 1.0162 0.2698 0.9309
O8 O 1.0698(3) 0.1181(2) 0.83179(17)
O9 O 1.2598(2) 0.3094(2) 0.7928(2)
O10 O 1.1951(2) 0.15696(18) 0.67810(16)
O11 O 1.0162(2) -0.0308(2) 0.6463(2)
H33 H 1.0751 0.0202 0.6472
O12 O 0.8399(2) -0.0609(2) 0.65536(19)
O13 O 0.4766(2) -0.1739(2) 0.32841(16)
H34 H 0.4914 -0.1428 0.3827
O14 O 0.5281(2) -0.30044(19) 0.18991(16)
H35 H 0.4972 -0.2794 0.1501
O15 O 1.1826(2) 0.5201(2) 1.06077(17)
H36 H 1.2261 0.5774 1.1056
H38 H 0.3979 -0.2234 0.2990
H40 H 0.5873 -0.3054 0.1810
H41 H 1.2172 0.4802 1.0545
Co1A Co 1.36355(4) 0.16921(3) 0.67868(3)
Co2_2 Co 1.0000 -0.5000 0.0000
C1A C 1.1842(3) -0.0995(2) 0.4073(2)
H1A H 1.1719 -0.1563 0.4346
C2A C 1.2174(3) -0.1389(2) 0.3260(2)
H2A H 1.2843 -0.1556 0.3538
C3A C 1.1073(3) -0.2481(2) 0.2546(2)
H3A H 1.0973 -0.2956 0.2913
C4A C 0.9814(3) -0.2478(2) 0.2194(2)
H4A H 0.9191 -0.3243 0.1862
C5A C 0.9558(3) -0.2088(2) 0.3043(2)
H5A H 0.9580 -0.2602 0.3363
C6A C 1.0597(3) -0.0976(2) 0.3776(2)
H6A H 1.0421 -0.0900 0.4332
C7A C 1.2871(3) 0.0036(3) 0.4889(2)
C8A C 1.2649(3) -0.0622(3) 0.2774(3)
C9A C 1.1364(3) -0.3034(2) 0.1795(2)
C10A C 0.9558(3) -0.1907(3) 0.1509(2)
C11A C 0.8236(3) -0.2259(3) 0.2741(2)
C12A C 1.0712(3) 0.0030(3) 0.3542(2)
C13A C 1.4572(5) 0.3909(4) 0.6535(4)
H7A H 1.5266 0.4087 0.7063
C14A C 1.4543(5) 0.4717(4) 0.6196(4)
H8A H 1.5195 0.5420 0.6509
C15A C 1.3570(4) 0.4500(3) 0.5405(3)
C16A C 1.2652(6) 0.3443(4) 0.5011(3)
H9A H 1.1962 0.3235 0.4468
C17A C 1.2730(6) 0.2684(4) 0.5400(3)
H10A H 1.2080 0.1978 0.5117
C18A C 1.3484(4) 0.5341(3) 0.5010(3)
C19A C 1.4102(5) 0.6430(4) 0.5550(4)
H11A H 1.4608 0.6667 0.6183
C20A C 1.3962(6) 0.7170(4) 0.5140(5)
H12A H 1.4380 0.7899 0.5523
C21A C 1.2692(5) 0.5880(4) 0.3749(4)
H13A H 1.2196 0.5672 0.3118
C22A C 1.2749(5) 0.5071(4) 0.4081(3)
H14A H 1.2296 0.4349 0.3681
C23A C 1.4023(4) -0.0118(3) 0.7371(3)
H15A H 1.4335 -0.0128 0.6919
C24A C 1.4117(4) -0.0764(3) 0.7882(3)
H16A H 1.4488 -0.1194 0.7773
C25A C 1.3663(3) -0.0782(3) 0.8563(2)
C26A C 1.3103(4) -0.0134(3) 0.8662(3)
H17A H 1.2764 -0.0125 0.9097
C27A C 1.3044(4) 0.0496(3) 0.8121(3)
H18A H 1.2660 0.0922 0.8206
C28A C 1.3803(3) -0.1426(3) 0.9175(3)
C29A C 1.4429(4) -0.2018(4) 0.9118(3)
H19A H 1.4745 -0.2052 0.8669
C30A C 1.4586(5) -0.2560(4) 0.9728(4)
H20A H 1.5019 -0.2948 0.9679
C31A C 1.3534(4) -0.2012(4) 1.0423(3)
H21A H 1.3207 -0.2008 1.0867
C32A C 1.3341(4) -0.1444(3) 0.9844(3)
H22A H 1.2895 -0.1072 0.9905
C33A C 1.0046(4) 0.3654(3) 1.1295(3)
H23A H 1.0511 0.3461 1.1019
C34A C 0.9898(4) 0.3301(3) 1.2008(3)
H24A H 1.0245 0.2872 1.2194
C35A C 0.9234(3) 0.3584(3) 1.2447(3)
C36A C 0.8694(4) 0.4185(3) 1.2101(3)
H25A H 0.8217 0.4380 1.2360
C37A C 0.8868(4) 0.4487(3) 1.1377(3)
H26A H 0.8483 0.4875 1.1149
C38A C 0.9128(4) 0.3285(3) 1.3264(3)
C39A C 0.9286(5) 0.2447(4) 1.3441(3)
H27A H 0.9446 0.2017 1.3033
C40A C 0.9207(6) 0.2233(4) 1.4226(4)
H28A H 0.9290 0.1635 1.4314
C41A C 0.8835(7) 0.3594(5) 1.4668(4)
H29A H 0.8672 0.4005 1.5090
C42A C 0.8854(6) 0.3864(5) 1.3895(4)
H30A H 0.8687 0.4423 1.3796
N1A N 1.3693(3) 0.2919(2) 0.6163(2)
N2A N 1.3284(4) 0.6919(3) 0.4253(3)
N3A N 1.3508(3) 0.0527(2) 0.74810(19)
N4A N 1.4151(3) -0.2559(3) 1.0385(2)
N5A N 0.9560(3) 0.4258(2) 1.0976(2)
N6A N 0.9024(5) 0.2814(4) 1.4860(3)
O1A O 1.2571(2) 0.04076(18) 0.55035(14)
O2A O 1.3950(2) 0.0432(2) 0.49315(18)
O3A O 1.3705(3) 0.0267(2) 0.32785(19)
H31A H 1.3932 0.0320 0.3829
O4A O 1.2142(3) -0.0858(2) 0.19383(18)
O5A O 1.2352(2) -0.3059(2) 0.20191(16)
O6A O 1.0498(2) -0.35265(18) 0.09617(15)
O6A_2 O 1.0498(2) 0.64735(18) 1.09617(15)
O7A O 0.9514(3) -0.2302(2) 0.06769(16)
H32A H 0.9838 -0.2698 0.0691
O8A O 0.9302(3) -0.1181(2) 0.16821(17)
O9A O 0.7402(2) -0.3094(2) 0.2072(2)
O10A O 0.8049(2) -0.15696(18) 0.32190(16)
O11A O 0.9838(2) 0.0308(2) 0.3537(2)
H33A H 0.9249 -0.0202 0.3528
O12A O 1.1601(2) 0.0609(2) 0.34464(19)
O13A O 1.5234(2) 0.1739(2) 0.67159(16)
H34A H 1.5086 0.1428 0.6173
O14A O 1.4719(2) 0.30044(19) 0.81009(16)
H35A H 1.5028 0.2794 0.8499
O15A O 0.8174(2) 0.4799(2) 0.93923(17)
H36A H 0.7739 0.4226 0.8944
H38A H 1.6021 0.2234 0.7010
H40A H 1.4127 0.3054 0.8190
H41A H 0.7828 0.5198 0.9455
O16 O 0.8499(7) 0.8015(5) 0.7564(4)
H42 H 0.8304 0.8239 0.7130
H46 H 0.7711 0.7690 0.7222
O17 O 0.6444(8) 0.7339(8) 0.7977(6)
H39 H 0.6280 0.7822 0.7798
O18 O 0.7322(6) 0.9488(5) 0.9071(5)
H44 H 0.7366 0.9831 0.8704
H47 H 0.7833 0.9344 0.8908
O19 O 0.3488(12) 0.4589(6) 0.9749(5)
H37 H 0.4010 0.4331 0.9729
H48 H 0.3339 0.4061 0.9264
O20 O 0.0461(6) 0.9749(5) 0.9304(4)
H43 H 0.0072 0.9221 0.8764
H45 H 0.0603 1.0268 0.9131
O21 O 0.3112(13) 0.3763(16) 0.0959(9)
H49 H 0.3525 0.4451 0.1150
loop_
_geom_bond_atom_site_label_1
_geom_bond_atom_site_label_2
_geom_bond_site_symmetry_1
_geom_bond_site_symmetry_2
Co1 N1 1_555 1_555
Co2 N5 1_555 1_555
C1 H1 1_555 1_555
C2 C1 1_555 1_555
H2 C2 1_555 1_555
C3 C2 1_555 1_555
H3 C3 1_555 1_555
C4 C3 1_555 1_555
H4 C4 1_555 1_555
C5 C4 1_555 1_555
H5 C5 1_555 1_555
C6 C1 1_555 1_555
H6 C6 1_555 1_555
C7 C1 1_555 1_555
C8 C2 1_555 1_555
C9 C3 1_555 1_555
C10 C4 1_555 1_555
C11 C5 1_555 1_555
C12 C6 1_555 1_555
C13 H7 1_555 1_555
C14 C13 1_555 1_555
H8 C14 1_555 1_555
C15 C14 1_555 1_555
C16 C15 1_555 1_555
H9 C16 1_555 1_555
C17 C16 1_555 1_555
H10 C17 1_555 1_555
C18 C15 1_555 1_555
C19 C18 1_555 1_555
H11 C19 1_555 1_555
C20 C19 1_555 1_555
H12 C20 1_555 1_555
C21 H13 1_555 1_555
C22 C18 1_555 1_555
H14 C22 1_555 1_555
C23 H15 1_555 1_555
C24 C23 1_555 1_555
H16 C24 1_555 1_555
C25 C24 1_555 1_555
C26 C25 1_555 1_555
H17 C26 1_555 1_555
C27 C26 1_555 1_555
H18 C27 1_555 1_555
C28 C25 1_555 1_555
C29 C28 1_555 1_555
H19 C29 1_555 1_555
C30 C29 1_555 1_555
H20 C30 1_555 1_555
C31 H21 1_555 1_555
C32 C28 1_555 1_555
H22 C32 1_555 1_555
C33 H23 1_555 1_555
C34 C33 1_555 1_555
H24 C34 1_555 1_555
C35 C34 1_555 1_555
C36 C35 1_555 1_555
H25 C36 1_555 1_555
C37 C36 1_555 1_555
H26 C37 1_555 1_555
C38 C35 1_555 1_555
C39 C38 1_555 1_555
H27 C39 1_555 1_555
C40 C39 1_555 1_555
H28 C40 1_555 1_555
C41 H29 1_555 1_555
C42 C38 1_555 1_555
H30 C42 1_555 1_555
N1 C13 1_555 1_555
N2 C20 1_555 1_555
N3 Co1 1_555 1_555
N4 C30 1_555 1_555
N5 C33 1_555 1_555
N6 C40 1_555 1_555
O1 Co1 1_555 1_555
O2 C7 1_555 1_555
O3 C8 1_555 1_555
H31 O3 1_555 1_555
O4 C8 1_555 1_555
O5 C9 1_555 1_555
O6 Co2 1_555 1_555
O7 C10 1_555 1_555
H32 O7 1_555 1_555
O8 C10 1_555 1_555
O9 C11 1_555 1_555
O10 C11 1_555 1_555
O11 C12 1_555 1_555
H33 O11 1_555 1_555
O12 C12 1_555 1_555
O13 Co1 1_555 1_555
H34 O13 1_555 1_555
O14 Co1 1_555 1_555
H35 O14 1_555 1_555
O15 Co2 1_555 1_555
H36 O15 1_555 1_555
O16 H42 1_555 1_555
O17 H39 1_555 1_555
O18 H44 1_555 1_555
O19 H37 1_555 1_555
O20 H43 1_555 1_555
O21 H49 1_555 1_555
H38 O13 1_555 1_555
H40 O14 1_555 1_555
H41 O15 1_555 1_555
H45 O20 1_555 1_555
H46 O16 1_555 1_555
H47 O18 1_555 1_555
H48 O19 1_555 1_555
Co1A O10 1_555 1_555
Co2_2 O6A 1_555 1_555
C1A H1A 1_555 1_555
C2A C1A 1_555 1_555
H2A C2A 1_555 1_555
C3A C2A 1_555 1_555
H3A C3A 1_555 1_555
C4A C3A 1_555 1_555
H4A C4A 1_555 1_555
C5A C4A 1_555 1_555
H5A C5A 1_555 1_555
C6A C1A 1_555 1_555
H6A C6A 1_555 1_555
C7A C1A 1_555 1_555
C8A C2A 1_555 1_555
C9A C3A 1_555 1_555
C10A C4A 1_555 1_555
C11A C5A 1_555 1_555
C12A C6A 1_555 1_555
C13A H7A 1_555 1_555
C14A C13A 1_555 1_555
H8A C14A 1_555 1_555
C15A C14A 1_555 1_555
C16A C15A 1_555 1_555
H9A C16A 1_555 1_555
C17A C16A 1_555 1_555
H10A C17A 1_555 1_555
C18A C15A 1_555 1_555
C19A C18A 1_555 1_555
H11A C19A 1_555 1_555
C20A C19A 1_555 1_555
H12A C20A 1_555 1_555
C21A H13A 1_555 1_555
C22A C18A 1_555 1_555
H14A C22A 1_555 1_555
C23A H15A 1_555 1_555
C24A C23A 1_555 1_555
H16A C24A 1_555 1_555
C25A C24A 1_555 1_555
C26A C25A 1_555 1_555
H17A C26A 1_555 1_555
C27A C26A 1_555 1_555
H18A C27A 1_555 1_555
C28A C25A 1_555 1_555
C29A C28A 1_555 1_555
H19A C29A 1_555 1_555
C30A C29A 1_555 1_555
H20A C30A 1_555 1_555
C31A H21A 1_555 1_555
C32A C28A 1_555 1_555
H22A C32A 1_555 1_555
C33A H23A 1_555 1_555
C34A C33A 1_555 1_555
H24A C34A 1_555 1_555
C35A C34A 1_555 1_555
C36A C35A 1_555 1_555
H25A C36A 1_555 1_555
C37A C36A 1_555 1_555
H26A C37A 1_555 1_555
C38A C35A 1_555 1_555
C39A C38A 1_555 1_555
H27A C39A 1_555 1_555
C40A C39A 1_555 1_555
H28A C40A 1_555 1_555
C41A H29A 1_555 1_555
C42A C38A 1_555 1_555
H30A C42A 1_555 1_555
N1A Co1A 1_555 1_555
N2A C20A 1_555 1_555
N3A Co1A 1_555 1_555
N4A C30A 1_555 1_555
N5A Co2 1_555 1_555
N6A C40A 1_555 1_555
O1A Co1A 1_555 1_555
O2A C7A 1_555 1_555
O3A C8A 1_555 1_555
H31A O3A 1_555 1_555
O4A C8A 1_555 1_555
O5A C9A 1_555 1_555
O6A C9A 1_555 1_555
O6A_2 Co2 1_555 1_555
O7A C10A 1_555 1_555
H32A O7A 1_555 1_555
O8A C10A 1_555 1_555
O9A C11A 1_555 1_555
O10A Co1 1_555 1_555
O11A C12A 1_555 1_555
H33A O11A 1_555 1_555
O12A C12A 1_555 1_555
O13A Co1A 1_555 1_555
H34A O13A 1_555 1_555
O14A Co1A 1_555 1_555
H35A O14A 1_555 1_555
O15A Co2 1_555 1_555
H36A O15A 1_555 1_555
H38A O13A 1_555 1_555
H40A O14A 1_555 1_555
H41A O15A 1_555 1_555
C5 C6 1_555 1_555
C7 O1 1_555 1_555
C9 O6 1_555 1_555
C17 N1 1_555 1_555
C21 C22 1_555 1_555
C21 N2 1_555 1_555
C23 N3 1_555 1_555
C27 N3 1_555 1_555
C31 C32 1_555 1_555
C31 N4 1_555 1_555
C37 N5 1_555 1_555
C41 C42 1_555 1_555
C41 N6 1_555 1_555
C5A C6A 1_555 1_555
C7A O1A 1_555 1_555
C11A O10A 1_555 1_555
C13A N1A 1_555 1_555
C17A N1A 1_555 1_555
C21A C22A 1_555 1_555
C21A N2A 1_555 1_555
C23A N3A 1_555 1_555
C27A N3A 1_555 1_555
C31A C32A 1_555 1_555
C31A N4A 1_555 1_555
C33A N5A 1_555 1_555
C37A N5A 1_555 1_555
C41A C42A 1_555 1_555
C41A N6A 1_555 1_555

#END
