
#######################################################################
#
#                 Cambridge Crystallographic Data Centre
#                                CCDC 
#
#######################################################################
#
# If this CIF has been generated from an entry in the Cambridge 
# Structural Database, then it will include bibliographic, chemical, 
# crystal, experimental, refinement or atomic coordinate data resulting 
# from the CCDC's data processing and validation procedures.
#
#######################################################################

data_PASQUX
_symmetry_cell_setting           monoclinic
_symmetry_space_group_name_H-M   'C c'
_symmetry_Int_Tables_number      9
_space_group_name_Hall           'C -2yc'
loop_
_symmetry_equiv_pos_site_id
_symmetry_equiv_pos_as_xyz
1 x,y,z
2 x,-y,1/2+z
3 1/2+x,1/2+y,z
4 1/2+x,1/2-y,1/2+z
_cell_length_a                   11.667(2)
_cell_length_b                   8.3608(16)
_cell_length_c                   12.363(2)
_cell_angle_alpha                90
_cell_angle_beta                 93.224(2)
_cell_angle_gamma                90
_cell_volume                     1204.05
loop_
_atom_site_label
_atom_site_type_symbol
_atom_site_fract_x
_atom_site_fract_y
_atom_site_fract_z
Cu1 Cu 0.13538(4) 0.47619(4) 0.45844(4)
N1 N 0.1292(4) 0.4830(4) 0.6174(4)
N2 N 0.1213(4) 0.5168(4) 0.7965(4)
O1 O 0.0469(3) 0.2399(3) 0.4886(2)
O2 O -0.0144(3) 0.1004(4) 0.6260(2)
H1 H -0.0320 0.1205 0.6878
O3 O -0.0377(3) 0.1553(4) 0.8290(2)
O4 O 0.0263(2) 0.3411(3) 0.9477(2)
O5 O 0.3484(3) 1.1953(4) 0.6656(3)
O6 O 0.2965(2) 0.3947(4) 0.4727(2)
H2 H 0.3095 0.3552 0.5355
H3 H 0.3480 0.3805 0.4276
C1 C 0.0770(3) 0.3525(5) 0.6598(3)
C2 C 0.0712(3) 0.3726(5) 0.7690(3)
C3 C 0.1545(3) 0.5825(5) 0.7029(3)
C4 C 0.2028(3) 0.7433(5) 0.6936(3)
C5 C 0.2531(4) 0.7956(6) 0.5987(3)
H4 H 0.2554 0.7265 0.5400
C6 C 0.2984(4) 0.9454(6) 0.5911(3)
H5 H 0.3297 0.9784 0.5273
C7 C 0.2977(4) 1.0483(5) 0.6791(3)
C8 C 0.2479(4) 1.0013(5) 0.7728(4)
H6 H 0.2464 1.0708 0.8314
C9 C 0.2005(3) 0.8517(5) 0.7789(3)
H7 H 0.1659 0.8218 0.8418
C10 C 0.0360(3) 0.2262(5) 0.5851(3)
C11 C 0.0156(3) 0.2809(5) 0.8531(3)
C12 C 0.3815(4) 1.2831(6) 0.7607(4)
H8 H 0.4154 1.3827 0.7408
H9 H 0.4364 1.2222 0.8044
H10 H 0.3152 1.3037 0.8011
Cu1A Cu 0.13538(4) 0.52381(4) 0.95844(4)
N2A N 0.1213(4) 0.4832(4) 0.2965(4)
O4A O 0.0263(2) 0.6589(3) 0.4477(2)
loop_
_geom_bond_atom_site_label_1
_geom_bond_atom_site_label_2
_geom_bond_site_symmetry_1
_geom_bond_site_symmetry_2
Cu1 N1 1_555 1_555
N1 C1 1_555 1_555
N2 C2 1_555 1_555
O1 Cu1 1_555 1_555
O2 H1 1_555 1_555
O3 C11 1_555 1_555
O4 C11 1_555 1_555
O5 C7 1_555 1_555
O6 Cu1 1_555 1_555
H2 O6 1_555 1_555
H3 O6 1_555 1_555
C1 C2 1_555 1_555
C2 C11 1_555 1_555
C3 N1 1_555 1_555
C4 C3 1_555 1_555
C5 C4 1_555 1_555
H4 C5 1_555 1_555
C6 C5 1_555 1_555
H5 C6 1_555 1_555
C7 C6 1_555 1_555
C8 C7 1_555 1_555
H6 C8 1_555 1_555
C9 C4 1_555 1_555
H7 C9 1_555 1_555
C10 O1 1_555 1_555
C12 O5 1_555 1_555
H8 C12 1_555 1_555
H9 C12 1_555 1_555
H10 C12 1_555 1_555
Cu1A N2 1_555 1_555
N2A Cu1 1_555 1_555
O4A Cu1 1_555 1_555
N2 C3 1_555 1_555
O2 C10 1_555 1_555
O4 Cu1A 1_555 1_555
C1 C10 1_555 1_555
C8 C9 1_555 1_555

#END
