
#######################################################################
#
#                 Cambridge Crystallographic Data Centre
#                                CCDC 
#
#######################################################################
#
# If this CIF has been generated from an entry in the Cambridge 
# Structural Database, then it will include bibliographic, chemical, 
# crystal, experimental, refinement or atomic coordinate data resulting 
# from the CCDC's data processing and validation procedures.
#
#######################################################################

data_PASQEH
_symmetry_cell_setting           triclinic
_symmetry_space_group_name_H-M   'P -1'
_symmetry_Int_Tables_number      2
_space_group_name_Hall           '-P 1'
loop_
_symmetry_equiv_pos_site_id
_symmetry_equiv_pos_as_xyz
1 x,y,z
2 -x,-y,-z
_cell_length_a                   12.700(5)
_cell_length_b                   12.714(5)
_cell_length_c                   15.990(5)
_cell_angle_alpha                72.773(5)
_cell_angle_beta                 88.047(5)
_cell_angle_gamma                60.583(5)
_cell_volume                     2128.76
loop_
_atom_site_label
_atom_site_type_symbol
_atom_site_fract_x
_atom_site_fract_y
_atom_site_fract_z
Mn1 Mn 0.0000 1.0000 0.0000
Mn2 Mn 0.26714(4) 1.85600(4) -0.71153(3)
Mn3 Mn 0.24269(4) 0.95817(4) 0.08716(3)
S1 S 0.00872(6) 0.37761(6) 0.18809(5)
S2 S 0.29598(7) 1.21433(7) -0.47533(5)
S3 S -0.51402(6) 1.42919(7) 0.20126(6)
O1 O 0.09913(17) 1.04591(18) -0.09480(13)
O2 O 0.16532(16) 0.83306(17) 0.08544(13)
O3 O 0.04459(17) 1.07761(17) 0.09331(13)
O4 O 0.25391(19) 1.78813(19) -0.58054(13)
O5 O -0.55095(18) 0.7400(2) 0.27476(14)
O6 O 0.21235(18) 0.75641(19) 0.23209(13)
O7 O -0.69179(18) 0.99404(18) 0.30086(14)
O8 O 0.08190(17) 1.01227(19) 0.24057(13)
O9 O -0.58698(17) 0.79842(19) 0.12780(14)
O10 O 0.26557(19) 1.0332(2) -0.04054(13)
O11 O -0.71540(18) 1.0512(2) 0.15423(14)
O12 O 0.0795(2) 1.8318(2) -0.52537(16)
H1 H 0.0726 1.9025 -0.5384
O13 O 0.02412(17) 0.34509(18) 0.10813(13)
O14 O 0.06201(17) 0.27755(18) 0.27193(13)
O15 O 0.2051(2) 1.2231(2) -0.53283(14)
O16 O 0.4229(2) 1.13542(19) -0.48153(14)
O17 O -0.51872(19) 1.4530(2) 0.28405(17)
O18 O -0.57058(19) 1.53324(19) 0.12060(16)
C1 C 0.1737(2) 0.7564(3) 0.16165(19)
C2 C 0.1345(2) 0.6607(2) 0.16706(18)
C3 C 0.0744(2) 0.6655(3) 0.09322(18)
H2 H 0.0585 0.7283 0.0394
C4 C 0.0385(2) 0.5768(3) 0.10008(18)
H3 H -0.0011 0.5793 0.0511
C5 C 0.0625(2) 0.4841(2) 0.18110(18)
C6 C 0.1214(2) 0.4780(3) 0.25519(19)
H4 H 0.1364 0.4156 0.3090
C7 C 0.1575(3) 0.5672(3) 0.24742(19)
H5 H 0.1975 0.5641 0.2965
C8 C -0.1485(2) 0.4734(3) 0.19121(18)
C9 C -0.2273(3) 0.5476(3) 0.11305(19)
H6 H -0.1995 0.5421 0.0591
C10 C -0.3487(3) 0.6306(3) 0.1168(2)
H7 H -0.4032 0.6814 0.0650
C11 C -0.3891(2) 0.6378(3) 0.19791(19)
C12 C -0.3098(3) 0.5607(3) 0.2753(2)
H8 H -0.3378 0.5646 0.3294
C13 C -0.1886(3) 0.4778(3) 0.2725(2)
H9 H -0.1347 0.4256 0.3245
C14 C -0.5197(2) 0.7322(3) 0.2006(2)
C15 C 0.1771(3) 1.7575(3) -0.54498(19)
C16 C 0.2089(3) 1.6207(3) -0.52691(18)
C17 C 0.1248(3) 1.5836(3) -0.49375(18)
H10 H 0.0497 1.6427 -0.4831
C18 C 0.1537(3) 1.4588(3) -0.47690(19)
H11 H 0.0982 1.4334 -0.4548
C19 C 0.2661(3) 1.3715(3) -0.49317(18)
C20 C 0.3511(3) 1.4061(3) -0.52517(19)
H12 H 0.4265 1.3463 -0.5350
C21 C 0.3212(3) 1.5320(3) -0.54238(19)
H13 H 0.3770 1.5571 -0.5644
C22 C 0.2685(3) 1.1655(3) -0.36554(18)
C23 C 0.1647(3) 1.1563(3) -0.3517(2)
H14 H 0.1122 1.1732 -0.3992
C24 C 0.1404(3) 1.1217(3) -0.26623(19)
H15 H 0.0706 1.1160 -0.2559
C25 C 0.2200(2) 1.0953(3) -0.19537(19)
C26 C 0.3242(3) 1.1051(3) -0.21065(19)
H16 H 0.3771 1.0878 -0.1633
C27 C 0.3489(3) 1.1407(3) -0.29615(19)
H17 H 0.4179 1.1477 -0.3069
C28 C 0.1931(3) 1.0560(3) -0.10354(19)
C29 C -0.6898(2) 1.0611(3) 0.22553(19)
C30 C -0.6516(2) 1.1571(3) 0.22013(19)
C31 C -0.5998(3) 1.1558(3) 0.29578(19)
H18 H -0.5923 1.0978 0.3502
C32 C -0.5594(3) 1.2402(3) 0.2905(2)
H19 H -0.5241 1.2392 0.3409
C33 C -0.5724(2) 1.3266(3) 0.2087(2)
C34 C -0.6250(3) 1.3297(3) 0.1328(2)
H20 H -0.6338 1.3887 0.0786
C35 C -0.6642(3) 1.2439(3) 0.13865(19)
H21 H -0.6989 1.2444 0.0882
C36 C -0.3588(3) 1.3311(3) 0.1909(2)
C37 C -0.2746(3) 1.2547(3) 0.2669(2)
H22 H -0.2982 1.2577 0.3222
C38 C -0.1548(3) 1.1739(3) 0.2585(2)
H23 H -0.0974 1.1222 0.3087
C39 C -0.1198(2) 1.1696(3) 0.1756(2)
C40 C -0.2061(3) 1.2444(3) 0.1010(2)
H24 H -0.1832 1.2398 0.0457
C41 C -0.3264(3) 1.3260(3) 0.1083(2)
H25 H -0.3843 1.3766 0.0583
C42 C 0.0118(2) 1.0798(3) 0.16990(19)
Mn2A Mn -0.26714(4) 0.14400(4) 0.71153(3)
Mn2_2 Mn -0.73286(4) 0.85600(4) 0.28847(3)
Mn2_3 Mn 0.26714(4) 0.85600(4) 0.28847(3)
Mn2A_2 Mn 0.73286(4) 1.14400(4) -0.28847(3)
Mn2A_3 Mn -0.26714(4) 1.14400(4) -0.28847(3)
Mn3A Mn -0.24269(4) 1.04183(4) -0.08716(3)
Mn3_2 Mn -0.75731(4) 0.95817(4) 0.08716(3)
Mn3A_2 Mn 0.75731(4) 1.04183(4) -0.08716(3)
S1A S -0.00872(6) 1.62239(6) -0.18809(5)
S2A S -0.29598(7) 0.78567(7) 0.47533(5)
S3A S 0.51402(6) 0.57081(7) -0.20126(6)
O1A O -0.09913(17) 0.95409(18) 0.09480(13)
O2A O -0.16532(16) 1.16694(17) -0.08544(13)
O3A O -0.04459(17) 0.92239(17) -0.09331(13)
O4A O -0.25391(19) 0.21187(19) 0.58054(13)
O5A O 0.55095(18) 1.2600(2) -0.27476(14)
O5_2 O 0.44905(18) 1.7400(2) -0.72524(14)
O5A_2 O -0.44905(18) 0.2600(2) 0.72524(14)
O6A O -0.21235(18) 1.24359(19) -0.23209(13)
O6_2 O 0.21235(18) 1.75641(19) -0.76791(13)
O6A_2 O -0.21235(18) 0.24359(19) 0.76791(13)
O7A O 0.69179(18) 1.00596(18) -0.30086(14)
O7_2 O 0.30821(18) 1.99404(18) -0.69914(14)
O7A_2 O -0.30821(18) 0.00596(18) 0.69914(14)
O8A O -0.08190(17) 0.98773(19) -0.24057(13)
O8_2 O 0.08190(17) 2.01227(19) -0.75943(13)
O8A_2 O -0.08190(17) -0.01227(19) 0.75943(13)
O9A O 0.58698(17) 1.20158(19) -0.12780(14)
O9_2 O 0.41302(17) 0.79842(19) 0.12780(14)
O9A_2 O -0.41302(17) 1.20158(19) -0.12780(14)
O10A O -0.26557(19) 0.9668(2) 0.04054(13)
O11A O 0.71540(18) 0.9488(2) -0.15423(14)
O11_2 O 0.28460(18) 1.0512(2) 0.15423(14)
O11A_2 O -0.28460(18) 0.9488(2) -0.15423(14)
O12A O -0.0795(2) 0.1682(2) 0.52537(16)
H1A H -0.0726 0.0975 0.5384
O13A O -0.02412(17) 1.65491(18) -0.10813(13)
O14A O -0.06201(17) 1.72245(18) -0.27193(13)
O15A O -0.2051(2) 0.7769(2) 0.53283(14)
O16A O -0.4229(2) 0.86458(19) 0.48153(14)
O17A O 0.51872(19) 0.5470(2) -0.28405(17)
O18A O 0.57058(19) 0.46676(19) -0.12060(16)
C1A C -0.1737(2) 1.2436(3) -0.16165(19)
C2A C -0.1345(2) 1.3393(2) -0.16706(18)
C3A C -0.0744(2) 1.3345(3) -0.09322(18)
H2A H -0.0585 1.2717 -0.0394
C4A C -0.0385(2) 1.4232(3) -0.10008(18)
H3A H 0.0011 1.4207 -0.0511
C5A C -0.0625(2) 1.5159(2) -0.18110(18)
C6A C -0.1214(2) 1.5220(3) -0.25519(19)
H4A H -0.1364 1.5844 -0.3090
C7A C -0.1575(3) 1.4328(3) -0.24742(19)
H5A H -0.1975 1.4359 -0.2965
C8A C 0.1485(2) 1.5266(3) -0.19121(18)
C9A C 0.2273(3) 1.4524(3) -0.11305(19)
H6A H 0.1995 1.4579 -0.0591
C10A C 0.3487(3) 1.3694(3) -0.1168(2)
H7A H 0.4032 1.3186 -0.0650
C11A C 0.3891(2) 1.3622(3) -0.19791(19)
C12A C 0.3098(3) 1.4393(3) -0.2753(2)
H8A H 0.3378 1.4354 -0.3294
C13A C 0.1886(3) 1.5222(3) -0.2725(2)
H9A H 0.1347 1.5744 -0.3245
C14A C 0.5197(2) 1.2678(3) -0.2006(2)
C15A C -0.1771(3) 0.2425(3) 0.54498(19)
C16A C -0.2089(3) 0.3793(3) 0.52691(18)
C17A C -0.1248(3) 0.4164(3) 0.49375(18)
H10A H -0.0497 0.3573 0.4831
C18A C -0.1537(3) 0.5412(3) 0.47690(19)
H11A H -0.0982 0.5666 0.4548
C19A C -0.2661(3) 0.6285(3) 0.49317(18)
C20A C -0.3511(3) 0.5939(3) 0.52517(19)
H12A H -0.4265 0.6537 0.5350
C21A C -0.3212(3) 0.4680(3) 0.54238(19)
H13A H -0.3770 0.4429 0.5644
C22A C -0.2685(3) 0.8345(3) 0.36554(18)
C23A C -0.1647(3) 0.8437(3) 0.3517(2)
H14A H -0.1122 0.8268 0.3992
C24A C -0.1404(3) 0.8783(3) 0.26623(19)
H15A H -0.0706 0.8840 0.2559
C25A C -0.2200(2) 0.9047(3) 0.19537(19)
C26A C -0.3242(3) 0.8949(3) 0.21065(19)
H16A H -0.3771 0.9122 0.1633
C27A C -0.3489(3) 0.8593(3) 0.29615(19)
H17A H -0.4179 0.8523 0.3069
C28A C -0.1931(3) 0.9440(3) 0.10354(19)
C29A C 0.6898(2) 0.9389(3) -0.22553(19)
C30A C 0.6516(2) 0.8429(3) -0.22013(19)
C31A C 0.5998(3) 0.8442(3) -0.29578(19)
H18A H 0.5923 0.9022 -0.3502
C32A C 0.5594(3) 0.7598(3) -0.2905(2)
H19A H 0.5241 0.7608 -0.3409
C33A C 0.5724(2) 0.6734(3) -0.2087(2)
C34A C 0.6250(3) 0.6703(3) -0.1328(2)
H20A H 0.6338 0.6113 -0.0786
C35A C 0.6642(3) 0.7561(3) -0.13865(19)
H21A H 0.6989 0.7556 -0.0882
C36A C 0.3588(3) 0.6689(3) -0.1909(2)
C37A C 0.2746(3) 0.7453(3) -0.2669(2)
H22A H 0.2982 0.7423 -0.3222
C38A C 0.1548(3) 0.8261(3) -0.2585(2)
H23A H 0.0974 0.8778 -0.3087
C39A C 0.1198(2) 0.8304(3) -0.1756(2)
C40A C 0.2061(3) 0.7556(3) -0.1010(2)
H24A H 0.1832 0.7602 -0.0457
C41A C 0.3264(3) 0.6740(3) -0.1083(2)
H25A H 0.3843 0.6234 -0.0583
C42A C -0.0118(2) 0.9202(3) -0.16990(19)
O19 O 0.1103(3) 0.0686(2) 0.42351(19)
O20 O 0.6517(2) 0.1152(3) 0.48058(17)
O21 O 0.0000 1.0000 0.5000
loop_
_geom_bond_atom_site_label_1
_geom_bond_atom_site_label_2
_geom_bond_site_symmetry_1
_geom_bond_site_symmetry_2
Mn1 O1 1_555 1_555
Mn2 O4 1_555 1_555
Mn3 O2 1_555 1_555
S1 O13 1_555 1_555
S2 O15 1_555 1_555
S3 O17 1_555 1_555
O1 C28 1_555 1_555
O2 Mn1 1_555 1_555
O3 Mn1 1_555 1_555
O4 C15 1_555 1_555
O5 C14 1_555 1_555
O6 C1 1_555 1_555
O7 C29 1_555 1_555
O8 C42 1_555 1_555
O9 C14 1_555 1_555
O10 Mn3 1_555 1_555
O11 C29 1_555 1_555
O12 H1 1_555 1_555
O14 S1 1_555 1_555
O16 S2 1_555 1_555
O18 S3 1_555 1_555
C1 O2 1_555 1_555
C2 C1 1_555 1_555
C3 C2 1_555 1_555
H2 C3 1_555 1_555
C4 C3 1_555 1_555
H3 C4 1_555 1_555
C5 S1 1_555 1_555
C6 C5 1_555 1_555
H4 C6 1_555 1_555
C7 C2 1_555 1_555
H5 C7 1_555 1_555
C8 S1 1_555 1_555
C9 C8 1_555 1_555
H6 C9 1_555 1_555
C10 C9 1_555 1_555
H7 C10 1_555 1_555
C11 C10 1_555 1_555
C12 C11 1_555 1_555
H8 C12 1_555 1_555
C13 C8 1_555 1_555
H9 C13 1_555 1_555
C14 C11 1_555 1_555
C15 O12 1_555 1_555
C16 C15 1_555 1_555
C17 C16 1_555 1_555
H10 C17 1_555 1_555
C18 C17 1_555 1_555
H11 C18 1_555 1_555
C19 S2 1_555 1_555
C20 C19 1_555 1_555
H12 C20 1_555 1_555
C21 C16 1_555 1_555
H13 C21 1_555 1_555
C22 S2 1_555 1_555
C23 C22 1_555 1_555
H14 C23 1_555 1_555
C24 C23 1_555 1_555
H15 C24 1_555 1_555
C25 C24 1_555 1_555
C26 C25 1_555 1_555
H16 C26 1_555 1_555
C27 C22 1_555 1_555
H17 C27 1_555 1_555
C28 O10 1_555 1_555
C29 C30 1_555 1_555
C30 C31 1_555 1_555
C31 H18 1_555 1_555
C32 C31 1_555 1_555
H19 C32 1_555 1_555
C33 S3 1_555 1_555
C34 C33 1_555 1_555
H20 C34 1_555 1_555
C35 C30 1_555 1_555
H21 C35 1_555 1_555
C36 S3 1_555 1_555
C37 C36 1_555 1_555
H22 C37 1_555 1_555
C38 C37 1_555 1_555
H23 C38 1_555 1_555
C39 C38 1_555 1_555
C40 C39 1_555 1_555
H24 C40 1_555 1_555
C41 C36 1_555 1_555
H25 C41 1_555 1_555
C42 O3 1_555 1_555
Mn2A O4A 1_555 1_555
Mn2_2 O5 1_555 1_555
Mn2_3 O6 1_555 1_555
Mn2A_2 O5A 1_555 1_555
Mn2A_3 O6A 1_555 1_555
Mn3A O2A 1_555 1_555
Mn3_2 O9 1_555 1_555
Mn3A_2 O9A 1_555 1_555
S1A O13A 1_555 1_555
S2A O15A 1_555 1_555
S3A O17A 1_555 1_555
O1A Mn1 1_555 1_555
O2A Mn1 1_555 1_555
O3A Mn1 1_555 1_555
O4A C15A 1_555 1_555
O5A C14A 1_555 1_555
O5_2 Mn2 1_555 1_555
O5A_2 Mn2A 1_555 1_555
O6A C1A 1_555 1_555
O6_2 Mn2 1_555 1_555
O6A_2 Mn2A 1_555 1_555
O7A Mn2A_2 1_555 1_555
O7_2 Mn2 1_555 1_555
O7A_2 Mn2A 1_555 1_555
O8A Mn2A_3 1_555 1_555
O8_2 Mn2 1_555 1_555
O8A_2 Mn2A 1_555 1_555
O9A C14A 1_555 1_555
O9_2 Mn3 1_555 1_555
O9A_2 Mn3A 1_555 1_555
O10A Mn3A 1_555 1_555
O11A Mn3A_2 1_555 1_555
O11_2 Mn3 1_555 1_555
O11A_2 Mn3A 1_555 1_555
O12A H1A 1_555 1_555
O14A S1A 1_555 1_555
O16A S2A 1_555 1_555
O18A S3A 1_555 1_555
C1A O2A 1_555 1_555
C2A C1A 1_555 1_555
C3A C2A 1_555 1_555
H2A C3A 1_555 1_555
C4A C3A 1_555 1_555
H3A C4A 1_555 1_555
C5A S1A 1_555 1_555
C6A C5A 1_555 1_555
H4A C6A 1_555 1_555
C7A C2A 1_555 1_555
H5A C7A 1_555 1_555
C8A S1A 1_555 1_555
C9A C8A 1_555 1_555
H6A C9A 1_555 1_555
C10A C9A 1_555 1_555
H7A C10A 1_555 1_555
C11A C10A 1_555 1_555
C12A C11A 1_555 1_555
H8A C12A 1_555 1_555
C13A C8A 1_555 1_555
H9A C13A 1_555 1_555
C14A C11A 1_555 1_555
C15A O12A 1_555 1_555
C16A C15A 1_555 1_555
C17A C16A 1_555 1_555
H10A C17A 1_555 1_555
C18A C17A 1_555 1_555
H11A C18A 1_555 1_555
C19A S2A 1_555 1_555
C20A C19A 1_555 1_555
H12A C20A 1_555 1_555
C21A C16A 1_555 1_555
H13A C21A 1_555 1_555
C22A S2A 1_555 1_555
C23A C22A 1_555 1_555
H14A C23A 1_555 1_555
C24A C23A 1_555 1_555
H15A C24A 1_555 1_555
C25A C24A 1_555 1_555
C26A C25A 1_555 1_555
H16A C26A 1_555 1_555
C27A C22A 1_555 1_555
H17A C27A 1_555 1_555
C28A O1A 1_555 1_555
C29A O7A 1_555 1_555
C30A C29A 1_555 1_555
C31A C30A 1_555 1_555
H18A C31A 1_555 1_555
C32A C31A 1_555 1_555
H19A C32A 1_555 1_555
C33A S3A 1_555 1_555
C34A C33A 1_555 1_555
H20A C34A 1_555 1_555
C35A C30A 1_555 1_555
H21A C35A 1_555 1_555
C36A S3A 1_555 1_555
C37A C36A 1_555 1_555
H22A C37A 1_555 1_555
C38A C37A 1_555 1_555
H23A C38A 1_555 1_555
C39A C38A 1_555 1_555
C40A C39A 1_555 1_555
H24A C40A 1_555 1_555
C41A C36A 1_555 1_555
H25A C41A 1_555 1_555
C42A O3A 1_555 1_555
Mn3 O3 1_555 1_555
O7 Mn2_2 1_555 1_555
O8 Mn2_3 1_555 1_555
O11 Mn3_2 1_555 1_555
C4 C5 1_555 1_555
C6 C7 1_555 1_555
C12 C13 1_555 1_555
C18 C19 1_555 1_555
C20 C21 1_555 1_555
C25 C28 1_555 1_555
C26 C27 1_555 1_555
C32 C33 1_555 1_555
C34 C35 1_555 1_555
C39 C42 1_555 1_555
C40 C41 1_555 1_555
Mn3A O3A 1_555 1_555
O8A C42A 1_555 1_555
O10A C28A 1_555 1_555
O11A C29A 1_555 1_555
C4A C5A 1_555 1_555
C6A C7A 1_555 1_555
C12A C13A 1_555 1_555
C18A C19A 1_555 1_555
C20A C21A 1_555 1_555
C25A C28A 1_555 1_555
C26A C27A 1_555 1_555
C32A C33A 1_555 1_555
C34A C35A 1_555 1_555
C39A C42A 1_555 1_555
C40A C41A 1_555 1_555

#END
