
#######################################################################
#
#                 Cambridge Crystallographic Data Centre
#                                CCDC 
#
#######################################################################
#
# If this CIF has been generated from an entry in the Cambridge 
# Structural Database, then it will include bibliographic, chemical, 
# crystal, experimental, refinement or atomic coordinate data resulting 
# from the CCDC's data processing and validation procedures.
#
#######################################################################

data_PASREI
_symmetry_cell_setting           orthorhombic
_symmetry_space_group_name_H-M   'P b c a'
_symmetry_Int_Tables_number      61
_space_group_name_Hall           '-P 2ac 2ab'
loop_
_symmetry_equiv_pos_site_id
_symmetry_equiv_pos_as_xyz
1 x,y,z
2 1/2-x,-y,1/2+z
3 -x,1/2+y,1/2-z
4 1/2+x,1/2-y,-z
5 -x,-y,-z
6 1/2+x,y,1/2-z
7 x,1/2-y,1/2+z
8 1/2-x,1/2+y,z
_cell_length_a                   17.4706(18)
_cell_length_b                   12.8946(13)
_cell_length_c                   18.194(2)
_cell_angle_alpha                90
_cell_angle_beta                 90
_cell_angle_gamma                90
_cell_volume                     4098.68
loop_
_atom_site_label
_atom_site_type_symbol
_atom_site_fract_x
_atom_site_fract_y
_atom_site_fract_z
Co1 Co 0.243108(17) 0.79652(2) 1.004148(14)
N1 N 0.25349(9) 0.96035(14) 1.01085(9)
N2 N 0.26944(11) 1.13298(13) 1.02147(10)
N3 N 0.33176(11) 0.75598(14) 0.92962(9)
N4 N 0.18653(12) 0.79505(14) 0.90106(10)
O1 O 0.14902(9) 0.83276(12) 1.07564(8)
O2 O 0.10104(11) 0.95938(13) 1.14329(9)
H1 H 0.1083 1.0215 1.1500
O3 O 0.11900(11) 1.14984(12) 1.15570(8)
O4 O 0.18586(10) 1.27461(12) 1.09965(8)
O5 O 0.54471(10) 0.98773(14) 0.80099(8)
C1 C 0.14831(13) 0.92556(18) 1.09497(11)
C2 C 0.20229(12) 0.99754(15) 1.06110(10)
C3 C 0.21222(13) 1.10221(15) 1.06801(10)
C4 C 0.16987(15) 1.18057(17) 1.11064(11)
C5 C 0.29278(14) 1.04544(15) 0.98846(10)
C6 C 0.35773(13) 1.03941(15) 0.93717(11)
C7 C 0.42764(13) 1.08228(18) 0.95472(12)
H2 H 0.4321 1.1222 0.9971
C8 C 0.49154(15) 1.0673(2) 0.91066(12)
H3 H 0.5384 1.0960 0.9238
C9 C 0.48476(14) 1.00917(17) 0.84689(11)
C10 C 0.41408(14) 0.97030(18) 0.82703(12)
H4 H 0.4089 0.9337 0.7833
C11 C 0.35181(14) 0.98503(18) 0.87101(11)
H5 H 0.3046 0.9584 0.8567
C12 C 0.61983(15) 0.9966(2) 0.82953(15)
H6 H 0.6562 0.9799 0.7918
H7 H 0.6259 0.9496 0.8700
H8 H 0.6283 1.0664 0.8461
C13 C 0.40506(14) 0.7412(2) 0.94689(13)
H9 H 0.4214 0.7589 0.9939
C14 C 0.45770(17) 0.7009(2) 0.89853(16)
H10 H 0.5084 0.6910 0.9125
C15 C 0.43333(18) 0.6756(3) 0.82918(17)
H11 H 0.4674 0.6473 0.7954
C16 C 0.35897(17) 0.6922(2) 0.80999(14)
H12 H 0.3423 0.6766 0.7627
C17 C 0.30829(15) 0.73238(17) 0.86113(11)
C18 C 0.22761(15) 0.75495(17) 0.84521(11)
C19 C 0.19493(17) 0.7393(2) 0.77681(13)
H13 H 0.2239 0.7119 0.7386
C20 C 0.11929(19) 0.7644(3) 0.76577(16)
H14 H 0.0966 0.7538 0.7201
C21 C 0.07788(17) 0.8050(2) 0.82246(16)
H15 H 0.0267 0.8226 0.8161
C22 C 0.11341(16) 0.8195(2) 0.88954(14)
H16 H 0.0852 0.8474 0.9281
Co1G Co 0.256892(17) 1.29652(2) 1.004148(14)
N2G N 0.23056(11) 0.63298(13) 1.02147(10)
O4G O 0.31414(10) 0.77461(12) 1.09965(8)
loop_
_geom_bond_atom_site_label_1
_geom_bond_atom_site_label_2
_geom_bond_site_symmetry_1
_geom_bond_site_symmetry_2
Co1 N1 1_555 1_555
N1 C2 1_555 1_555
N2 C3 1_555 1_555
N3 Co1 1_555 1_555
N4 Co1 1_555 1_555
O1 Co1 1_555 1_555
O2 H1 1_555 1_555
O3 C4 1_555 1_555
O4 C4 1_555 1_555
O5 C9 1_555 1_555
C1 O1 1_555 1_555
C2 C1 1_555 1_555
C3 C2 1_555 1_555
C4 C3 1_555 1_555
C5 N1 1_555 1_555
C6 C5 1_555 1_555
C7 C6 1_555 1_555
H2 C7 1_555 1_555
C8 C7 1_555 1_555
H3 C8 1_555 1_555
C9 C8 1_555 1_555
C10 C9 1_555 1_555
H4 C10 1_555 1_555
C11 C6 1_555 1_555
H5 C11 1_555 1_555
C12 O5 1_555 1_555
H6 C12 1_555 1_555
H7 C12 1_555 1_555
H8 C12 1_555 1_555
C13 N3 1_555 1_555
H9 C13 1_555 1_555
C14 C13 1_555 1_555
H10 C14 1_555 1_555
C15 C14 1_555 1_555
H11 C15 1_555 1_555
C16 C15 1_555 1_555
H12 C16 1_555 1_555
C17 N3 1_555 1_555
C18 N4 1_555 1_555
C19 C18 1_555 1_555
H13 C19 1_555 1_555
C20 C19 1_555 1_555
H14 C20 1_555 1_555
C21 C20 1_555 1_555
H15 C21 1_555 1_555
C22 N4 1_555 1_555
H16 C22 1_555 1_555
Co1G N2 1_555 1_555
N2G Co1 1_555 1_555
O4G Co1 1_555 1_555
N2 C5 1_555 1_555
O2 C1 1_555 1_555
O4 Co1G 1_555 1_555
C10 C11 1_555 1_555
C16 C17 1_555 1_555
C17 C18 1_555 1_555
C21 C22 1_555 1_555

#END
