
#######################################################################
#
#                 Cambridge Crystallographic Data Centre
#                                CCDC 
#
#######################################################################
#
# If this CIF has been generated from an entry in the Cambridge 
# Structural Database, then it will include bibliographic, chemical, 
# crystal, experimental, refinement or atomic coordinate data resulting 
# from the CCDC's data processing and validation procedures.
#
#######################################################################

data_PASRIM
_symmetry_cell_setting           monoclinic
_symmetry_space_group_name_H-M   'P 21/c'
_symmetry_Int_Tables_number      14
_space_group_name_Hall           '-P 2ybc'
loop_
_symmetry_equiv_pos_site_id
_symmetry_equiv_pos_as_xyz
1 x,y,z
2 -x,1/2+y,1/2-z
3 -x,-y,-z
4 x,1/2-y,1/2+z
_cell_length_a                   10.3055(9)
_cell_length_b                   16.9232(14)
_cell_length_c                   12.7590(11)
_cell_angle_alpha                90
_cell_angle_beta                 101.9760(10)
_cell_angle_gamma                90
_cell_volume                     2176.76
loop_
_atom_site_label
_atom_site_type_symbol
_atom_site_fract_x
_atom_site_fract_y
_atom_site_fract_z
Co1 Co 0.52900(3) 0.764655(16) 0.82031(2)
N1 N 0.51850(16) 0.75053(9) 0.98182(12)
N2 N 0.49415(16) 0.72681(9) 1.15029(12)
N3 N 0.66472(17) 0.67293(10) 0.79716(13)
N4 N 0.71288(17) 0.82557(10) 0.84842(14)
O1 O 0.40388(15) 0.86282(9) 0.83917(11)
O2 O 0.28436(16) 0.91067(9) 0.95102(12)
H1 H 0.2741 0.9014 1.0119
O3 O 0.25865(16) 0.88520(9) 1.13632(12)
O4 O 0.35736(14) 0.81118(9) 1.27461(11)
O5 O 0.86765(16) 0.43692(9) 1.04574(16)
C1 C 0.3695(2) 0.86224(12) 0.92694(16)
C2 C 0.42936(19) 0.80341(11) 1.00672(15)
C3 C 0.41384(19) 0.78862(11) 1.10914(15)
C4 C 0.3387(2) 0.83035(12) 1.17833(16)
C5 C 0.55425(19) 0.70511(11) 1.07060(14)
C6 C 0.64270(19) 0.63642(11) 1.07533(15)
C7 C 0.6023(2) 0.56314(13) 1.10439(19)
H2 H 0.5244 0.5591 1.1300
C8 C 0.6755(2) 0.49551(14) 1.0962(2)
H3 H 0.6462 0.4466 1.1152
C9 C 0.7915(2) 0.50131(13) 1.05995(18)
C10 C 0.8385(2) 0.57449(13) 1.03730(18)
H4 H 0.9199 0.5786 1.0171
C11 C 0.7642(2) 0.64153(12) 1.04471(17)
H5 H 0.7959 0.6906 1.0290
C12 C 0.7985(3) 0.36767(15) 1.0047(3)
H6 H 0.8610 0.3268 0.9980
H7 H 0.7440 0.3787 0.9356
H8 H 0.7436 0.3505 1.0525
C13 C 0.6412(3) 0.59692(14) 0.7751(2)
H9 H 0.5591 0.5762 0.7802
C14 C 0.7339(3) 0.54700(17) 0.7447(3)
H10 H 0.7138 0.4941 0.7298
C15 C 0.8533(3) 0.57615(19) 0.7369(3)
H11 H 0.9158 0.5432 0.7163
C16 C 0.8838(3) 0.65602(17) 0.7599(2)
C17 C 1.0089(3) 0.6910(2) 0.7561(3)
H12 H 1.0740 0.6608 0.7346
C18 C 1.0336(3) 0.7672(2) 0.7833(3)
H13 H 1.1151 0.7891 0.7789
C19 C 0.9368(2) 0.81522(15) 0.8190(2)
C20 C 0.9582(3) 0.89370(17) 0.8533(3)
H14 H 1.0406 0.9171 0.8562
C21 C 0.8606(3) 0.93502(16) 0.8819(3)
H15 H 0.8746 0.9873 0.9039
C22 C 0.7379(3) 0.89974(14) 0.8786(2)
H16 H 0.6709 0.9294 0.8984
C23 C 0.8121(2) 0.78348(13) 0.81964(17)
C24 C 0.7856(2) 0.70189(13) 0.79065(17)
Co1C Co 0.52900(3) 0.735345(16) 1.32031(2)
N2C N 0.49415(16) 0.77319(9) 0.65029(12)
O4C O 0.35736(14) 0.68882(9) 0.77461(11)
loop_
_geom_bond_atom_site_label_1
_geom_bond_atom_site_label_2
_geom_bond_site_symmetry_1
_geom_bond_site_symmetry_2
Co1 N1 1_555 1_555
N1 C2 1_555 1_555
N2 C3 1_555 1_555
N3 Co1 1_555 1_555
N4 Co1 1_555 1_555
O1 Co1 1_555 1_555
O2 H1 1_555 1_555
O3 C4 1_555 1_555
O4 C4 1_555 1_555
O5 C9 1_555 1_555
C1 O1 1_555 1_555
C2 C1 1_555 1_555
C3 C2 1_555 1_555
C4 C3 1_555 1_555
C5 N1 1_555 1_555
C6 C5 1_555 1_555
C7 C6 1_555 1_555
H2 C7 1_555 1_555
C8 C7 1_555 1_555
H3 C8 1_555 1_555
C9 C8 1_555 1_555
C10 C9 1_555 1_555
H4 C10 1_555 1_555
C11 C6 1_555 1_555
H5 C11 1_555 1_555
C12 O5 1_555 1_555
H6 C12 1_555 1_555
H7 C12 1_555 1_555
H8 C12 1_555 1_555
C13 N3 1_555 1_555
H9 C13 1_555 1_555
C14 C13 1_555 1_555
H10 C14 1_555 1_555
C15 C14 1_555 1_555
H11 C15 1_555 1_555
C16 C15 1_555 1_555
C17 C16 1_555 1_555
H12 C17 1_555 1_555
C18 C17 1_555 1_555
H13 C18 1_555 1_555
C19 C18 1_555 1_555
C20 C19 1_555 1_555
H14 C20 1_555 1_555
C21 C20 1_555 1_555
H15 C21 1_555 1_555
C22 N4 1_555 1_555
H16 C22 1_555 1_555
C23 N4 1_555 1_555
C24 N3 1_555 1_555
Co1C N2 1_555 1_555
N2C Co1 1_555 1_555
O4C Co1 1_555 1_555
N2 C5 1_555 1_555
O2 C1 1_555 1_555
O4 Co1C 1_555 1_555
C10 C11 1_555 1_555
C16 C24 1_555 1_555
C19 C23 1_555 1_555
C21 C22 1_555 1_555
C23 C24 1_555 1_555

#END
