
#######################################################################
#
#                 Cambridge Crystallographic Data Centre
#                                CCDC 
#
#######################################################################
#
# If this CIF has been generated from an entry in the Cambridge 
# Structural Database, then it will include bibliographic, chemical, 
# crystal, experimental, refinement or atomic coordinate data resulting 
# from the CCDC's data processing and validation procedures.
#
#######################################################################

data_PASRUY
_symmetry_cell_setting           monoclinic
_symmetry_space_group_name_H-M   'P 21/n'
_symmetry_Int_Tables_number      14
_space_group_name_Hall           '-P 2yn'
loop_
_symmetry_equiv_pos_site_id
_symmetry_equiv_pos_as_xyz
1 x,y,z
2 1/2-x,1/2+y,1/2-z
3 -x,-y,-z
4 1/2+x,1/2-y,1/2+z
_cell_length_a                   19.821(3)
_cell_length_b                   7.4740(13)
_cell_length_c                   20.988(4)
_cell_angle_alpha                90
_cell_angle_beta                 105.716(2)
_cell_angle_gamma                90
_cell_volume                     2992.97
loop_
_atom_site_label
_atom_site_type_symbol
_atom_site_fract_x
_atom_site_fract_y
_atom_site_fract_z
Co1 Co 0.355836(19) 0.22599(5) 0.227178(17)
Co2 Co 0.5000 0.5000 0.5000
N1 N 0.22332(12) 0.5762(3) 0.34185(10)
N2 N 0.31294(12) 0.4788(3) 0.42052(10)
H1 H 0.3389 0.4534 0.4594
N3 N 0.40676(12) -0.0776(3) 0.37013(10)
H2 H 0.3757 -0.0005 0.3508
N4 N 0.46744(12) -0.2624(3) 0.44558(10)
N5 N 0.42037(13) 0.3434(3) 0.17275(11)
O1 O 0.41702(10) 0.3343(3) 0.31372(9)
O2 O 0.44064(10) 0.3541(3) 0.42288(9)
O3 O 0.29378(10) 0.4494(3) 0.20849(9)
O4 O 0.20254(9) 0.6136(3) 0.21280(8)
O5 O 0.42069(11) -0.0059(3) 0.24048(9)
O6 O 0.51050(13) -0.1888(4) 0.25810(11)
H3 H 0.5313 -0.2584 0.2870
O7 O 0.58177(11) -0.3807(3) 0.34658(10)
O8 O 0.57813(10) -0.4710(3) 0.44697(9)
O9 O 0.08068(13) 0.6063(4) 0.58248(11)
O10 O 0.27766(13) 0.0757(4) 0.61924(11)
C1 C 0.40143(14) 0.3784(4) 0.36531(13)
C2 C 0.33197(14) 0.4591(4) 0.36273(12)
C3 C 0.27519(14) 0.5201(4) 0.31409(13)
C4 C 0.25804(14) 0.5264(4) 0.24048(13)
C5 C 0.24688(15) 0.5443(4) 0.40670(13)
C6 C 0.20624(15) 0.5636(4) 0.45475(13)
C7 C 0.13449(16) 0.5292(4) 0.43451(15)
H8 H 0.1137 0.4953 0.3910
C8 C 0.09426(17) 0.5446(5) 0.47779(15)
H9 H 0.0464 0.5217 0.4637
C9 C 0.12506(17) 0.5946(5) 0.54300(15)
C10 C 0.19600(17) 0.6274(5) 0.56405(14)
H10 H 0.2167 0.6606 0.6077
C11 C 0.23650(16) 0.6108(4) 0.51980(14)
H11 H 0.2845 0.6317 0.5341
C12 C 0.1103(2) 0.6336(7) 0.65195(18)
H12 H 0.0734 0.6394 0.6736
H13 H 0.1363 0.7436 0.6590
H14 H 0.1411 0.5360 0.6699
C13 C 0.46107(16) -0.1112(4) 0.27669(13)
C14 C 0.45526(14) -0.1539(4) 0.34358(13)
C15 C 0.49309(15) -0.2679(4) 0.39110(13)
C16 C 0.55557(15) -0.3823(4) 0.39500(13)
C17 C 0.41554(14) -0.1432(4) 0.43219(12)
C18 C 0.37751(15) -0.0820(4) 0.47844(13)
C19 C 0.31417(16) 0.0080(4) 0.45825(15)
H15 H 0.2945 0.0298 0.4134
C20 C 0.27978(17) 0.0658(4) 0.50363(15)
H16 H 0.2377 0.1280 0.4895
C21 C 0.30828(17) 0.0307(4) 0.57008(15)
C22 C 0.37213(17) -0.0563(4) 0.59137(14)
H17 H 0.3916 -0.0774 0.6363
C23 C 0.40672(16) -0.1113(4) 0.54665(14)
H18 H 0.4498 -0.1685 0.5614
C24 C 0.2087(2) 0.1446(7) 0.6001(2)
H19 H 0.1934 0.1702 0.6388
H20 H 0.1778 0.0580 0.5734
H21 H 0.2078 0.2525 0.5751
C25 C 0.4885(2) 0.3088(7) 0.1866(2)
H22 H 0.5079 0.2324 0.2217
C26 C 0.5315(2) 0.3787(7) 0.1524(2)
H23 H 0.5790 0.3502 0.1638
C27 C 0.5035(3) 0.4920(7) 0.1005(2)
H24 H 0.5313 0.5397 0.0755
C28 C 0.4348(3) 0.5329(6) 0.0865(2)
H25 H 0.4147 0.6114 0.0523
C29 C 0.3950(2) 0.4563(5) 0.12384(19)
H26 H 0.3477 0.4858 0.1140
Co1B Co 0.644164(19) -0.22599(5) 0.772822(17)
Co1A Co 0.144164(19) 0.72599(5) 0.272822(17)
Co1C Co 0.855836(19) -0.72599(5) 0.727178(17)
Co2_2 Co 0.5000 -0.5000 0.5000
N1B N 0.77668(12) -0.5762(3) 0.65815(10)
N1A N 0.27668(12) 0.0762(3) 0.15815(10)
N1C N 0.72332(12) -0.0762(3) 0.84185(10)
N2B N 0.68706(12) -0.4788(3) 0.57948(10)
H1B H 0.6611 -0.4534 0.5406
N3B N 0.59324(12) 0.0776(3) 0.62987(10)
H2B H 0.6243 0.0005 0.6492
N4B N 0.53256(12) 0.2624(3) 0.55442(10)
N4_2 N 0.46744(12) 0.7376(3) 0.44558(10)
N5B N 0.57963(13) -0.3434(3) 0.82725(11)
O1B O 0.58298(10) -0.3343(3) 0.68628(9)
O2B O 0.55936(10) -0.3541(3) 0.57712(9)
O2B_2 O 0.55936(10) 0.6459(3) 0.57712(9)
O3B O 0.70622(10) -0.4494(3) 0.79151(9)
O4B O 0.79746(9) -0.6136(3) 0.78720(8)
O4A O 0.29746(9) 0.1136(3) 0.28720(8)
O4C O 0.70254(9) -0.1136(3) 0.71280(8)
O5B O 0.57931(11) 0.0059(3) 0.75952(9)
O6B O 0.48950(13) 0.1888(4) 0.74190(11)
H3B H 0.4687 0.2584 0.7130
O7B O 0.41823(11) 0.3807(3) 0.65342(10)
O8B O 0.42187(10) 0.4710(3) 0.55303(9)
O8_2 O 0.57813(10) 0.5290(3) 0.44697(9)
O9B O 0.91932(13) -0.6063(4) 0.41752(11)
O10B O 0.72234(13) -0.0757(4) 0.38076(11)
C1B C 0.59857(14) -0.3784(4) 0.63469(13)
C2B C 0.66803(14) -0.4591(4) 0.63727(12)
C3B C 0.72481(14) -0.5201(4) 0.68591(13)
C4B C 0.74196(14) -0.5264(4) 0.75952(13)
C5B C 0.75312(15) -0.5443(4) 0.59330(13)
C6B C 0.79376(15) -0.5636(4) 0.54525(13)
C7B C 0.86551(16) -0.5292(4) 0.56549(15)
H8B H 0.8863 -0.4953 0.6090
C8B C 0.90574(17) -0.5446(5) 0.52221(15)
H9B H 0.9536 -0.5217 0.5363
C9B C 0.87494(17) -0.5946(5) 0.45700(15)
C10B C 0.80400(17) -0.6274(5) 0.43595(14)
H10B H 0.7833 -0.6606 0.3923
C11B C 0.76350(16) -0.6108(4) 0.48020(14)
H11B H 0.7155 -0.6317 0.4659
C12B C 0.8897(2) -0.6336(7) 0.34805(18)
H12B H 0.9266 -0.6394 0.3264
H13B H 0.8637 -0.7436 0.3410
H14B H 0.8589 -0.5360 0.3301
C13B C 0.53893(16) 0.1112(4) 0.72331(13)
C14B C 0.54474(14) 0.1539(4) 0.65642(13)
C15B C 0.50691(15) 0.2679(4) 0.60890(13)
C16B C 0.44443(15) 0.3823(4) 0.60500(13)
C17B C 0.58446(14) 0.1432(4) 0.56781(12)
C18B C 0.62249(15) 0.0820(4) 0.52156(13)
C19B C 0.68583(16) -0.0080(4) 0.54175(15)
H15B H 0.7055 -0.0298 0.5866
C20B C 0.72022(17) -0.0658(4) 0.49637(15)
H16B H 0.7623 -0.1280 0.5105
C21B C 0.69172(17) -0.0307(4) 0.42992(15)
C22B C 0.62787(17) 0.0563(4) 0.40863(14)
H17B H 0.6084 0.0774 0.3637
C23B C 0.59328(16) 0.1113(4) 0.45335(14)
H18B H 0.5502 0.1685 0.4386
C24B C 0.7913(2) -0.1446(7) 0.3999(2)
H19B H 0.8066 -0.1702 0.3612
H20B H 0.8222 -0.0580 0.4266
H21B H 0.7922 -0.2525 0.4249
C25B C 0.5115(2) -0.3088(7) 0.8134(2)
H22B H 0.4921 -0.2324 0.7783
C26B C 0.4685(2) -0.3787(7) 0.8476(2)
H23B H 0.4210 -0.3502 0.8362
C27B C 0.4965(3) -0.4920(7) 0.8995(2)
H24B H 0.4687 -0.5397 0.9245
C28B C 0.5652(3) -0.5329(6) 0.9135(2)
H25B H 0.5853 -0.6114 0.9477
C29B C 0.6050(2) -0.4563(5) 0.87616(19)
H26B H 0.6523 -0.4858 0.8860
O11 O 0.29155(19) 0.8242(5) 0.72991(16)
H4 H 0.2609 0.8561 0.7492
H5 H 0.2978 0.9161 0.7083
O12 O 0.68911(17) 0.5358(5) 0.28056(16)
H6 H 0.6674 0.5445 0.3102
H7 H 0.6950 0.4240 0.2771
loop_
_geom_bond_atom_site_label_1
_geom_bond_atom_site_label_2
_geom_bond_site_symmetry_1
_geom_bond_site_symmetry_2
Co1 N5 1_555 1_555
Co2 O2 1_555 1_555
N1 C3 1_555 1_555
N2 H1 1_555 1_555
N3 H2 1_555 1_555
N4 C15 1_555 1_555
N5 C25 1_555 1_555
O1 Co1 1_555 1_555
O2 C1 1_555 1_555
O3 Co1 1_555 1_555
O4 C4 1_555 1_555
O5 Co1 1_555 1_555
O6 H3 1_555 1_555
O7 C16 1_555 1_555
O8 C16 1_555 1_555
O9 C9 1_555 1_555
O10 C21 1_555 1_555
O11 H4 1_555 1_555
H5 O11 1_555 1_555
O12 H6 1_555 1_555
H7 O12 1_555 1_555
C1 O1 1_555 1_555
C2 N2 1_555 1_555
C3 C2 1_555 1_555
C4 O3 1_555 1_555
C5 N1 1_555 1_555
C6 C5 1_555 1_555
C7 C6 1_555 1_555
H8 C7 1_555 1_555
C8 C7 1_555 1_555
H9 C8 1_555 1_555
C9 C8 1_555 1_555
C10 C9 1_555 1_555
H10 C10 1_555 1_555
C11 C6 1_555 1_555
H11 C11 1_555 1_555
C12 O9 1_555 1_555
H12 C12 1_555 1_555
H13 C12 1_555 1_555
H14 C12 1_555 1_555
C13 O5 1_555 1_555
C14 N3 1_555 1_555
C15 C14 1_555 1_555
C16 C15 1_555 1_555
C17 N3 1_555 1_555
C18 C17 1_555 1_555
C19 C18 1_555 1_555
H15 C19 1_555 1_555
C20 C19 1_555 1_555
H16 C20 1_555 1_555
C21 C20 1_555 1_555
C22 C21 1_555 1_555
H17 C22 1_555 1_555
C23 C18 1_555 1_555
H18 C23 1_555 1_555
C24 O10 1_555 1_555
H19 C24 1_555 1_555
H20 C24 1_555 1_555
H21 C24 1_555 1_555
C25 H22 1_555 1_555
C26 C25 1_555 1_555
H23 C26 1_555 1_555
C27 C26 1_555 1_555
H24 C27 1_555 1_555
C28 C27 1_555 1_555
H25 C28 1_555 1_555
C29 N5 1_555 1_555
H26 C29 1_555 1_555
Co1B N1C 1_555 1_555
Co1A N1 1_555 1_555
Co1C N1B 1_555 1_555
Co2_2 N4 1_555 1_555
N1B C3B 1_555 1_555
N1A Co1 1_555 1_555
N2B H1B 1_555 1_555
N3B H2B 1_555 1_555
N4B Co2 1_555 1_555
N4_2 Co2 1_555 1_555
N5B Co1B 1_555 1_555
O1B Co1B 1_555 1_555
O2B Co2_2 1_555 1_555
O2B_2 Co2 1_555 1_555
O3B Co1B 1_555 1_555
O4B Co1C 1_555 1_555
O4A Co1 1_555 1_555
O4C Co1B 1_555 1_555
O5B Co1B 1_555 1_555
O6B H3B 1_555 1_555
O7B C16B 1_555 1_555
O8B Co2 1_555 1_555
O8_2 Co2 1_555 1_555
O9B C9B 1_555 1_555
O10B C21B 1_555 1_555
C1B O1B 1_555 1_555
C2B N2B 1_555 1_555
C3B C2B 1_555 1_555
C4B O3B 1_555 1_555
C5B N1B 1_555 1_555
C6B C5B 1_555 1_555
C7B C6B 1_555 1_555
H8B C7B 1_555 1_555
C8B C7B 1_555 1_555
H9B C8B 1_555 1_555
C9B C8B 1_555 1_555
C10B C9B 1_555 1_555
H10B C10B 1_555 1_555
C11B C6B 1_555 1_555
H11B C11B 1_555 1_555
C12B O9B 1_555 1_555
H12B C12B 1_555 1_555
H13B C12B 1_555 1_555
H14B C12B 1_555 1_555
C13B O5B 1_555 1_555
C14B N3B 1_555 1_555
C15B N4B 1_555 1_555
C16B O8B 1_555 1_555
C17B N3B 1_555 1_555
C18B C17B 1_555 1_555
C19B C18B 1_555 1_555
H15B C19B 1_555 1_555
C20B C19B 1_555 1_555
H16B C20B 1_555 1_555
C21B C20B 1_555 1_555
C22B C21B 1_555 1_555
H17B C22B 1_555 1_555
C23B C18B 1_555 1_555
H18B C23B 1_555 1_555
C24B O10B 1_555 1_555
H19B C24B 1_555 1_555
H20B C24B 1_555 1_555
H21B C24B 1_555 1_555
C25B N5B 1_555 1_555
H22B C25B 1_555 1_555
C26B C25B 1_555 1_555
H23B C26B 1_555 1_555
C27B C26B 1_555 1_555
H24B C27B 1_555 1_555
C28B C27B 1_555 1_555
H25B C28B 1_555 1_555
C29B N5B 1_555 1_555
H26B C29B 1_555 1_555
N2 C5 1_555 1_555
N4 C17 1_555 1_555
O4 Co1A 1_555 1_555
O6 C13 1_555 1_555
O8 Co2_2 1_555 1_555
C1 C2 1_555 1_555
C3 C4 1_555 1_555
C10 C11 1_555 1_555
C13 C14 1_555 1_555
C22 C23 1_555 1_555
C28 C29 1_555 1_555
N2B C5B 1_555 1_555
N4B C17B 1_555 1_555
O2B C1B 1_555 1_555
O4B C4B 1_555 1_555
O6B C13B 1_555 1_555
C1B C2B 1_555 1_555
C3B C4B 1_555 1_555
C10B C11B 1_555 1_555
C13B C14B 1_555 1_555
C14B C15B 1_555 1_555
C15B C16B 1_555 1_555
C22B C23B 1_555 1_555
C28B C29B 1_555 1_555

#END
