
#######################################################################
#
#                 Cambridge Crystallographic Data Centre
#                                CCDC 
#
#######################################################################
#
# If this CIF has been generated from an entry in the Cambridge 
# Structural Database, then it will include bibliographic, chemical, 
# crystal, experimental, refinement or atomic coordinate data resulting 
# from the CCDC's data processing and validation procedures.
#
#######################################################################

data_PASRAE
_symmetry_cell_setting           orthorhombic
_symmetry_space_group_name_H-M   'P b c a'
_symmetry_Int_Tables_number      61
_space_group_name_Hall           '-P 2ac 2ab'
loop_
_symmetry_equiv_pos_site_id
_symmetry_equiv_pos_as_xyz
1 x,y,z
2 1/2-x,-y,1/2+z
3 1/2+x,1/2-y,-z
4 -x,1/2+y,1/2-z
5 -x,-y,-z
6 1/2+x,y,1/2-z
7 1/2-x,1/2+y,z
8 x,1/2-y,1/2+z
_cell_length_a                   17.550(4)
_cell_length_b                   12.839(3)
_cell_length_c                   18.150(4)
_cell_angle_alpha                90
_cell_angle_beta                 90
_cell_angle_gamma                90
_cell_volume                     4089.64
loop_
_atom_site_label
_atom_site_type_symbol
_atom_site_fract_x
_atom_site_fract_y
_atom_site_fract_z
Zn1 Zn 0.24268(2) 0.70009(3) 0.49902(3)
O1 O 0.14624(14) 0.6646(2) 0.42891(15)
O2 O 0.09802(18) 0.5381(2) 0.36061(18)
H1 H 0.1061 0.4761 0.3530
O3 O 0.11544(17) 0.3480(2) 0.34795(16)
O4 O 0.18325(17) 0.2228(2) 0.40193(15)
O5 O 0.54329(16) 0.5123(2) 0.69851(15)
N1 N 0.26893(17) 0.3644(2) 0.47871(17)
N2 N 0.25259(16) 0.5370(2) 0.49007(16)
N3 N 0.33337(17) 0.7405(2) 0.57329(18)
N4 N 0.18762(18) 0.7066(2) 0.60344(18)
C1 C 0.1458(2) 0.5723(3) 0.4083(2)
C2 C 0.2008(2) 0.4995(3) 0.4408(2)
C3 C 0.2107(2) 0.3947(3) 0.4331(2)
C4 C 0.1676(2) 0.3168(3) 0.3914(2)
C5 C 0.2926(2) 0.4518(3) 0.51094(19)
C6 C 0.3569(2) 0.4580(3) 0.5624(2)
C7 C 0.3507(2) 0.5111(3) 0.6287(2)
H2 H 0.3035 0.5370 0.6431
C8 C 0.4131(2) 0.5264(3) 0.6737(2)
H3 H 0.4077 0.5616 0.7182
C9 C 0.4840(2) 0.4890(3) 0.6523(2)
C10 C 0.4909(2) 0.4333(3) 0.5886(2)
H4 H 0.5379 0.4062 0.5747
C11 C 0.4272(2) 0.4173(3) 0.5444(2)
H5 H 0.4321 0.3780 0.5016
C12 C 0.6184(2) 0.5042(4) 0.6692(3)
H6 H 0.6546 0.5265 0.7056
H7 H 0.6227 0.5475 0.6263
H8 H 0.6285 0.4331 0.6560
C13 C 0.4058(2) 0.7550(3) 0.5554(3)
H9 H 0.4218 0.7360 0.5085
C14 C 0.4584(3) 0.7966(4) 0.6030(3)
H10 H 0.5087 0.8063 0.5885
C15 C 0.4350(3) 0.8236(4) 0.6722(3)
H11 H 0.4693 0.8525 0.7055
C16 C 0.3606(3) 0.8077(4) 0.6922(3)
H12 H 0.3441 0.8244 0.7395
C17 C 0.3104(2) 0.7667(3) 0.6414(2)
C18 C 0.2292(2) 0.7453(3) 0.6591(2)
C19 C 0.1988(3) 0.7625(3) 0.7278(2)
H13 H 0.2289 0.7890 0.7655
C20 C 0.1235(3) 0.7402(4) 0.7401(3)
H14 H 0.1021 0.7515 0.7863
C21 C 0.0798(3) 0.7008(4) 0.6834(3)
H15 H 0.0285 0.6851 0.6905
C22 C 0.1141(2) 0.6853(3) 0.6160(3)
H16 H 0.0849 0.6588 0.5776
Zn1F Zn 0.25732(2) 0.20009(3) 0.49902(3)
O4F O 0.31675(17) 0.7228(2) 0.40193(15)
N1F N 0.23107(17) 0.8644(2) 0.47871(17)
loop_
_geom_bond_atom_site_label_1
_geom_bond_atom_site_label_2
_geom_bond_site_symmetry_1
_geom_bond_site_symmetry_2
Zn1 O1 1_555 1_555
O1 C1 1_555 1_555
O2 H1 1_555 1_555
O3 C4 1_555 1_555
O4 C4 1_555 1_555
O5 C9 1_555 1_555
N1 C3 1_555 1_555
N2 Zn1 1_555 1_555
N3 Zn1 1_555 1_555
N4 Zn1 1_555 1_555
C1 O2 1_555 1_555
C2 N2 1_555 1_555
C3 C2 1_555 1_555
C4 C3 1_555 1_555
C5 N1 1_555 1_555
C6 C5 1_555 1_555
C7 C6 1_555 1_555
H2 C7 1_555 1_555
C8 C7 1_555 1_555
H3 C8 1_555 1_555
C9 C8 1_555 1_555
C10 C9 1_555 1_555
H4 C10 1_555 1_555
C11 C6 1_555 1_555
H5 C11 1_555 1_555
C12 O5 1_555 1_555
H6 C12 1_555 1_555
H7 C12 1_555 1_555
H8 C12 1_555 1_555
C13 N3 1_555 1_555
H9 C13 1_555 1_555
C14 C13 1_555 1_555
H10 C14 1_555 1_555
C15 C14 1_555 1_555
H11 C15 1_555 1_555
C16 C15 1_555 1_555
H12 C16 1_555 1_555
C17 N3 1_555 1_555
C18 N4 1_555 1_555
C19 C18 1_555 1_555
H13 C19 1_555 1_555
C20 C19 1_555 1_555
H14 C20 1_555 1_555
C21 C20 1_555 1_555
H15 C21 1_555 1_555
C22 N4 1_555 1_555
H16 C22 1_555 1_555
Zn1F O4 1_555 1_555
O4F Zn1 1_555 1_555
N1F Zn1 1_555 1_555
N1 Zn1F 1_555 1_555
N2 C5 1_555 1_555
C1 C2 1_555 1_555
C10 C11 1_555 1_555
C16 C17 1_555 1_555
C17 C18 1_555 1_555
C21 C22 1_555 1_555

#END
