
#######################################################################
#
#                 Cambridge Crystallographic Data Centre
#                                CCDC 
#
#######################################################################
#
# If this CIF has been generated from an entry in the Cambridge 
# Structural Database, then it will include bibliographic, chemical, 
# crystal, experimental, refinement or atomic coordinate data resulting 
# from the CCDC's data processing and validation procedures.
#
#######################################################################

data_PASWOX
_symmetry_cell_setting           monoclinic
_symmetry_space_group_name_H-M   'P 21'
_symmetry_Int_Tables_number      4
_space_group_name_Hall           'P 2yb'
loop_
_symmetry_equiv_pos_site_id
_symmetry_equiv_pos_as_xyz
1 x,y,z
2 -x,1/2+y,-z
_cell_length_a                   9.2540(19)
_cell_length_b                   10.250(2)
_cell_length_c                   11.625(2)
_cell_angle_alpha                90
_cell_angle_beta                 104.400(3)
_cell_angle_gamma                90
_cell_volume                     1068.03
loop_
_atom_site_label
_atom_site_type_symbol
_atom_site_fract_x
_atom_site_fract_y
_atom_site_fract_z
Ag1 Ag -1.74132(8) -1.74034(15) -0.86741(6)
C1 C -1.4297(13) -1.4317(12) -0.8458(10)
H1 H -1.3800 -1.4690 -0.7739
C2 C -1.3525(14) -1.3940(12) -0.9275(10)
H2 H -1.2504 -1.4101 -0.9091
C3 C -1.5551(16) -1.3133(14) -1.0557(12)
H3 H -1.5971 -1.2688 -1.1258
C4 C -1.6487(13) -1.3523(13) -0.9828(11)
H4 H -1.7511 -1.3380 -1.0071
C5 C -1.5864(13) -1.4126(9) -0.8735(10)
C6 C -1.6780(14) -1.4404(11) -0.7885(10)
H5 H -1.7828 -1.4388 -0.8301
H6 H -1.6613 -1.3730 -0.7280
C7 C -1.6959(11) -1.5884(10) -0.6226(9)
H7 H -1.7991 -1.5572 -0.6398
C8 C -1.6052(14) -1.5104(12) -0.5198(10)
H8 H -1.5008 -1.5334 -0.5076
H9 H -1.6154 -1.4184 -0.5396
C9 C -1.6517(16) -1.5331(12) -0.4061(10)
H10 H -1.7533 -1.5026 -0.4156
H11 H -1.5876 -1.4831 -0.3427
C10 C -1.6425(15) -1.6778(11) -0.3722(10)
H12 H -1.5395 -1.7066 -0.3542
H13 H -1.6798 -1.6906 -0.3020
C11 C -1.7348(11) -1.7563(17) -0.4745(8)
H14 H -1.8388 -1.7330 -0.4847
H15 H -1.7247 -1.8479 -0.4530
C12 C -1.6957(8) -1.739(2) -0.5926(7)
H16 H -1.5947 -1.7733 -0.5849
C13 C -1.7920(15) -1.9503(12) -0.6766(10)
H17 H -1.6906 -1.9809 -0.6674
H18 H -1.8224 -1.9722 -0.6049
C14 C -1.8920(14) -2.0161(11) -0.7798(10)
C15 C -2.0357(17) -2.0370(17) -0.7814(12)
H19 H -2.0719 -2.0103 -0.7174
C16 C -2.1335(16) -2.0995(14) -0.8802(11)
H20 H -2.2321 -2.1140 -0.8783
C17 C -1.9522(13) -2.1158(11) -0.9758(11)
H21 H -1.9194 -2.1413 -1.0419
C18 C -1.8493(15) -2.0542(13) -0.8804(11)
H22 H -1.7520 -2.0393 -0.8856
N1 N -1.4120(11) -1.3372(10) -1.0289(8)
N2 N -1.6405(10) -1.5700(9) -0.7308(7)
H23 H -1.5394 -1.5784 -0.7101
N3 N -1.7970(9) -1.8058(8) -0.6931(7)
H24 H -1.8915 -1.7789 -0.6958
N4 N -2.0886(11) -2.1378(9) -0.9752(8)
Ag1A Ag -2.25868(8) -2.24034(15) -1.13259(6)
Ag1A_2 Ag -1.25868(8) -1.24034(15) -1.13259(6)
N1A N -1.5880(11) -1.8372(10) -0.9711(8)
N4A N -1.9114(11) -1.6378(9) -1.0248(8)
Cl1 Cl -1.8442(11) -2.190(2) -0.3674(11)
O1 O -1.6776(13) -2.192(4) -0.3489(19)
O2 O -1.903(3) -2.067(2) -0.415(2)
O3 O -1.867(2) -2.224(4) -0.2544(16)
O4 O -1.889(2) -2.286(3) -0.462(2)
O5 O -2.005(3) -1.866(3) -0.293(3)
H25 H -2.0549 -1.8788 -0.3637
H26 H -1.9329 -1.9177 -0.2940
loop_
_geom_bond_atom_site_label_1
_geom_bond_atom_site_label_2
_geom_bond_site_symmetry_1
_geom_bond_site_symmetry_2
Ag1 N2 1_555 1_555
Cl1 O1 1_555 1_555
C1 H1 1_555 1_555
C2 C1 1_555 1_555
H2 C2 1_555 1_555
C3 H3 1_555 1_555
C4 C3 1_555 1_555
H4 C4 1_555 1_555
C5 C1 1_555 1_555
C6 C5 1_555 1_555
H5 C6 1_555 1_555
H6 C6 1_555 1_555
C7 H7 1_555 1_555
C8 C7 1_555 1_555
H8 C8 1_555 1_555
H9 C8 1_555 1_555
C9 C8 1_555 1_555
H10 C9 1_555 1_555
H11 C9 1_555 1_555
C10 C9 1_555 1_555
H12 C10 1_555 1_555
H13 C10 1_555 1_555
C11 C10 1_555 1_555
H14 C11 1_555 1_555
H15 C11 1_555 1_555
C12 C7 1_555 1_555
H16 C12 1_555 1_555
C13 H17 1_555 1_555
H18 C13 1_555 1_555
C14 C13 1_555 1_555
C15 C14 1_555 1_555
H19 C15 1_555 1_555
C16 C15 1_555 1_555
H20 C16 1_555 1_555
C17 H21 1_555 1_555
C18 C14 1_555 1_555
H22 C18 1_555 1_555
N1 C2 1_555 1_555
N2 C6 1_555 1_555
H23 N2 1_555 1_555
N3 Ag1 1_555 1_555
H24 N3 1_555 1_555
N4 C16 1_555 1_555
O2 Cl1 1_555 1_555
O3 Cl1 1_555 1_555
O4 Cl1 1_555 1_555
O5 H25 1_555 1_555
H26 O5 1_555 1_555
Ag1A N4 1_555 1_555
Ag1A_2 N1 1_555 1_555
N1A Ag1 1_555 1_555
N4A Ag1 1_555 1_555
C3 N1 1_555 1_555
C4 C5 1_555 1_555
C7 N2 1_555 1_555
C11 C12 1_555 1_555
C12 N3 1_555 1_555
C13 N3 1_555 1_555
C17 C18 1_555 1_555
C17 N4 1_555 1_555

#END
