
#######################################################################
#
#                 Cambridge Crystallographic Data Centre
#                                CCDC 
#
#######################################################################
#
# If this CIF has been generated from an entry in the Cambridge 
# Structural Database, then it will include bibliographic, chemical, 
# crystal, experimental, refinement or atomic coordinate data resulting 
# from the CCDC's data processing and validation procedures.
#
#######################################################################

data_PASXAJ
_symmetry_cell_setting           orthorhombic
_symmetry_space_group_name_H-M   'P b c a'
_symmetry_Int_Tables_number      61
_space_group_name_Hall           '-P 2ac 2ab'
loop_
_symmetry_equiv_pos_site_id
_symmetry_equiv_pos_as_xyz
1 x,y,z
2 1/2-x,-y,1/2+z
3 -x,1/2+y,1/2-z
4 1/2+x,1/2-y,-z
5 -x,-y,-z
6 1/2+x,y,1/2-z
7 x,1/2-y,1/2+z
8 1/2-x,1/2+y,z
_cell_length_a                   12.470(2)
_cell_length_b                   17.688(3)
_cell_length_c                   20.330(4)
_cell_angle_alpha                90
_cell_angle_beta                 90
_cell_angle_gamma                90
_cell_volume                     4484.18
loop_
_atom_site_label
_atom_site_type_symbol
_atom_site_fract_x
_atom_site_fract_y
_atom_site_fract_z
Li1 Li 0.5868(4) 0.1220(2) 0.4020(2)
Si1 Si 0.30209(7) 0.41529(5) 0.51698(4)
Si2 Si 0.03175(7) 0.40189(5) 0.73279(4)
N1 N 0.46041(19) 0.15207(13) 0.45926(12)
N2 N 0.22258(16) 0.35388(12) 0.56063(9)
N3 N 0.09002(15) 0.33482(12) 0.68503(9)
C1 C 0.2365(2) 0.28212(16) 0.57560(13)
C2 C 0.3141(2) 0.23514(14) 0.53570(13)
C3 C 0.2983(2) 0.22376(15) 0.46982(14)
H1 H 0.2382 0.2437 0.4490
C4 C 0.3723(3) 0.18257(17) 0.43481(14)
H2 H 0.3593 0.1756 0.3902
C5 C 0.4736(2) 0.16258(16) 0.52310(15)
H3 H 0.5345 0.1423 0.5427
C6 C 0.4025(2) 0.20186(17) 0.56250(13)
H4 H 0.4150 0.2056 0.6075
C7 C 0.1896(2) 0.24066(13) 0.62696(12)
H5 H 0.2005 0.1887 0.6252
C8 C 0.1280(2) 0.26640(15) 0.68114(13)
C9 C 0.1064(2) 0.20713(16) 0.73616(14)
C10 C 0.1755(2) 0.13619(15) 0.73205(12)
H6 H 0.1549 0.1072 0.6942
H7 H 0.1655 0.1064 0.7710
H8 H 0.2496 0.1503 0.7283
C11 C 0.1287(2) 0.24232(15) 0.80410(12)
H9 H 0.2018 0.2591 0.8061
H10 H 0.1164 0.2052 0.8377
H11 H 0.0817 0.2846 0.8109
C12 C -0.0113(2) 0.18435(14) 0.73188(13)
H12 H -0.0554 0.2288 0.7332
H13 H -0.0290 0.1521 0.7683
H14 H -0.0237 0.1578 0.6914
C13 C 0.1236(2) 0.44532(16) 0.79434(12)
H15 H 0.1431 0.4082 0.8267
H16 H 0.0881 0.4869 0.8155
H17 H 0.1870 0.4633 0.7726
C14 C -0.0012(2) 0.48008(13) 0.67306(13)
H18 H 0.0639 0.4996 0.6544
H19 H -0.0383 0.5199 0.6957
H20 H -0.0460 0.4606 0.6386
C15 C -0.09759(19) 0.37875(15) 0.77421(12)
H21 H -0.1482 0.3611 0.7421
H22 H -0.1253 0.4232 0.7953
H23 H -0.0858 0.3400 0.8065
C16 C 0.4479(2) 0.39406(16) 0.52042(16)
H24 H 0.4713 0.3942 0.5654
H25 H 0.4867 0.4318 0.4962
H26 H 0.4610 0.3452 0.5014
C17 C 0.2632(3) 0.42355(18) 0.43025(12)
H27 H 0.2688 0.3750 0.4094
H28 H 0.3100 0.4587 0.4085
H29 H 0.1906 0.4413 0.4274
C18 C 0.2793(2) 0.50842(14) 0.55581(15)
H30 H 0.2052 0.5223 0.5512
H31 H 0.3235 0.5457 0.5348
H32 H 0.2973 0.5057 0.6017
Li1C Li 0.0868(4) 0.3780(2) 0.5980(2)
N2C N 0.72258(16) 0.14612(12) 0.43937(9)
N3C N 0.59002(15) 0.16518(12) 0.31497(9)
loop_
_geom_bond_atom_site_label_1
_geom_bond_atom_site_label_2
_geom_bond_site_symmetry_1
_geom_bond_site_symmetry_2
Li1 N1 1_555 1_555
Si1 N2 1_555 1_555
Si2 N3 1_555 1_555
N1 C4 1_555 1_555
N2 C1 1_555 1_555
N3 C8 1_555 1_555
C1 C2 1_555 1_555
C2 C3 1_555 1_555
C3 H1 1_555 1_555
C4 C3 1_555 1_555
H2 C4 1_555 1_555
C5 N1 1_555 1_555
H3 C5 1_555 1_555
C6 C2 1_555 1_555
H4 C6 1_555 1_555
C7 C1 1_555 1_555
H5 C7 1_555 1_555
C8 C7 1_555 1_555
C9 C8 1_555 1_555
C10 C9 1_555 1_555
H6 C10 1_555 1_555
H7 C10 1_555 1_555
H8 C10 1_555 1_555
C11 C9 1_555 1_555
H9 C11 1_555 1_555
H10 C11 1_555 1_555
H11 C11 1_555 1_555
C12 C9 1_555 1_555
H12 C12 1_555 1_555
H13 C12 1_555 1_555
H14 C12 1_555 1_555
C13 Si2 1_555 1_555
H15 C13 1_555 1_555
H16 C13 1_555 1_555
H17 C13 1_555 1_555
C14 Si2 1_555 1_555
H18 C14 1_555 1_555
H19 C14 1_555 1_555
H20 C14 1_555 1_555
C15 Si2 1_555 1_555
H21 C15 1_555 1_555
H22 C15 1_555 1_555
H23 C15 1_555 1_555
C16 Si1 1_555 1_555
H24 C16 1_555 1_555
H25 C16 1_555 1_555
H26 C16 1_555 1_555
C17 Si1 1_555 1_555
H27 C17 1_555 1_555
H28 C17 1_555 1_555
H29 C17 1_555 1_555
C18 Si1 1_555 1_555
H30 C18 1_555 1_555
H31 C18 1_555 1_555
H32 C18 1_555 1_555
Li1C N2 1_555 1_555
N2C Li1 1_555 1_555
N3C Li1 1_555 1_555
N3 Li1C 1_555 1_555
C5 C6 1_555 1_555

#END
