
#######################################################################
#
#                 Cambridge Crystallographic Data Centre
#                                CCDC 
#
#######################################################################
#
# If this CIF has been generated from an entry in the Cambridge 
# Structural Database, then it will include bibliographic, chemical, 
# crystal, experimental, refinement or atomic coordinate data resulting 
# from the CCDC's data processing and validation procedures.
#
#######################################################################

data_PASZUF
_symmetry_cell_setting           monoclinic
_symmetry_space_group_name_H-M   'C 2/c'
_symmetry_Int_Tables_number      15
_space_group_name_Hall           '-C 2yn'
loop_
_symmetry_equiv_pos_site_id
_symmetry_equiv_pos_as_xyz
1 x,y,z
2 1/2+x,1/2+y,z
3 -x,y,1/2-z
4 1/2-x,1/2+y,1/2-z
5 -x,-y,-z
6 1/2-x,1/2-y,-z
7 x,-y,1/2+z
8 1/2+x,1/2-y,1/2+z
_cell_length_a                   9.896(3)
_cell_length_b                   15.383(4)
_cell_length_c                   13.949(4)
_cell_angle_alpha                90
_cell_angle_beta                 98.966(5)
_cell_angle_gamma                90
_cell_volume                     2097.51
loop_
_atom_site_label
_atom_site_type_symbol
_atom_site_fract_x
_atom_site_fract_y
_atom_site_fract_z
Mn1 Mn 0.2500 0.2500 0.5000
O1 O -0.0843(2) 0.44014(14) 0.37678(18)
N1 N 0.0673(2) 0.15941(14) 0.50552(16)
N2 N -0.1117(2) 0.07531(15) 0.45701(17)
N3 N -0.2498(2) 0.21526(14) 0.15641(15)
N4 N -0.2944(2) 0.14706(15) 0.28696(16)
N5 N 0.0996(2) 0.35505(15) 0.45792(17)
C1 C 0.0057(3) 0.10983(17) 0.4354(2)
H1 H 0.0390 0.0996 0.3776
C2 C -0.1263(3) 0.1056(2) 0.5469(2)
H2 H -0.1975 0.0935 0.5811
C3 C -0.0158(3) 0.1570(2) 0.5762(2)
H3 H 0.0013 0.1862 0.6352
C4 C -0.3024(2) 0.14457(18) 0.18951(18)
H4 H -0.3401 0.0988 0.1506
C5 C -0.2323(3) 0.22437(18) 0.3176(2)
H5 H -0.2126 0.2444 0.3812
C6 C -0.2055(3) 0.26553(17) 0.23684(19)
H6 H -0.1635 0.3195 0.2358
C7 C -0.2102(3) 0.02338(19) 0.3925(2)
H7 H -0.2410 -0.0246 0.4287
H8 H -0.1659 -0.0007 0.3411
C8 C -0.3331(3) 0.0771(2) 0.3479(2)
H9 H -0.3990 0.0395 0.3092
H10 H -0.3767 0.1017 0.3993
C9 C 0.0091(3) 0.39654(17) 0.41818(19)
Mn1G Mn -0.2500 0.2500 0.0000
Mn1G_2 Mn 0.7500 0.2500 1.0000
O1E O 0.5843(2) 0.05986(14) 0.62322(18)
N1E N 0.4327(2) 0.34059(14) 0.49448(16)
N2E N 0.6117(2) 0.42469(15) 0.54299(17)
N3E N 0.7498(2) 0.28474(14) 0.84359(15)
N3G N 0.2502(2) 0.28474(14) 0.65641(15)
N3B N 0.2498(2) 0.21526(14) 0.34359(15)
N4E N 0.7944(2) 0.35294(15) 0.71304(16)
N5E N 0.4004(2) 0.14495(15) 0.54208(17)
C1E C 0.4943(3) 0.39017(17) 0.5646(2)
H1E H 0.4610 0.4004 0.6224
C2E C 0.6263(3) 0.3944(2) 0.4531(2)
H2E H 0.6975 0.4065 0.4189
C3E C 0.5158(3) 0.3430(2) 0.4238(2)
H3E H 0.4987 0.3138 0.3648
C4E C 0.8024(2) 0.35543(18) 0.81049(18)
H4E H 0.8401 0.4012 0.8494
C5E C 0.7323(3) 0.27563(18) 0.6824(2)
H5E H 0.7126 0.2556 0.6188
C6E C 0.7055(3) 0.23447(17) 0.76316(19)
H6E H 0.6635 0.1805 0.7642
C7E C 0.7102(3) 0.47662(19) 0.6075(2)
H7E H 0.7410 0.5246 0.5713
H8E H 0.6659 0.5007 0.6589
C8E C 0.8331(3) 0.4229(2) 0.6521(2)
H9E H 0.8990 0.4605 0.6908
H10E H 0.8767 0.3983 0.6007
C9E C 0.4909(3) 0.10346(17) 0.58182(19)
loop_
_geom_bond_atom_site_label_1
_geom_bond_atom_site_label_2
_geom_bond_site_symmetry_1
_geom_bond_site_symmetry_2
Mn1 N1 1_555 1_555
O1 C9 1_555 1_555
N1 C1 1_555 1_555
N2 C1 1_555 1_555
N3 C4 1_555 1_555
N4 C4 1_555 1_555
N5 Mn1 1_555 1_555
C1 H1 1_555 1_555
C2 N2 1_555 1_555
H2 C2 1_555 1_555
C3 N1 1_555 1_555
H3 C3 1_555 1_555
C4 H4 1_555 1_555
C5 N4 1_555 1_555
H5 C5 1_555 1_555
C6 N3 1_555 1_555
H6 C6 1_555 1_555
C7 N2 1_555 1_555
H7 C7 1_555 1_555
H8 C7 1_555 1_555
C8 N4 1_555 1_555
H9 C8 1_555 1_555
H10 C8 1_555 1_555
C9 N5 1_555 1_555
Mn1G N3 1_555 1_555
Mn1G_2 N3E 1_555 1_555
O1E C9E 1_555 1_555
N1E Mn1 1_555 1_555
N2E C1E 1_555 1_555
N3E C4E 1_555 1_555
N3G Mn1 1_555 1_555
N3B Mn1 1_555 1_555
N4E C4E 1_555 1_555
N5E Mn1 1_555 1_555
C1E N1E 1_555 1_555
H1E C1E 1_555 1_555
C2E N2E 1_555 1_555
H2E C2E 1_555 1_555
C3E N1E 1_555 1_555
H3E C3E 1_555 1_555
C4E H4E 1_555 1_555
C5E N4E 1_555 1_555
H5E C5E 1_555 1_555
C6E N3E 1_555 1_555
H6E C6E 1_555 1_555
C7E N2E 1_555 1_555
H7E C7E 1_555 1_555
H8E C7E 1_555 1_555
C8E N4E 1_555 1_555
H9E C8E 1_555 1_555
H10E C8E 1_555 1_555
C9E N5E 1_555 1_555
C2 C3 1_555 1_555
C5 C6 1_555 1_555
C7 C8 1_555 1_555
C2E C3E 1_555 1_555
C5E C6E 1_555 1_555
C7E C8E 1_555 1_555

#END
