
#######################################################################
#
#                 Cambridge Crystallographic Data Centre
#                                CCDC 
#
#######################################################################
#
# If this CIF has been generated from an entry in the Cambridge 
# Structural Database, then it will include bibliographic, chemical, 
# crystal, experimental, refinement or atomic coordinate data resulting 
# from the CCDC's data processing and validation procedures.
#
#######################################################################

data_PASZAL
_symmetry_cell_setting           orthorhombic
_symmetry_space_group_name_H-M   'P b c a'
_symmetry_Int_Tables_number      61
_space_group_name_Hall           '-P 2ac 2ab'
loop_
_symmetry_equiv_pos_site_id
_symmetry_equiv_pos_as_xyz
1 x,y,z
2 1/2-x,-y,1/2+z
3 -x,1/2+y,1/2-z
4 1/2+x,1/2-y,-z
5 -x,-y,-z
6 1/2+x,y,1/2-z
7 x,1/2-y,1/2+z
8 1/2-x,1/2+y,z
_cell_length_a                   12.9561(18)
_cell_length_b                   9.8851(14)
_cell_length_c                   22.797(3)
_cell_angle_alpha                90
_cell_angle_beta                 90
_cell_angle_gamma                90
_cell_volume                     2919.67
loop_
_atom_site_label
_atom_site_type_symbol
_atom_site_fract_x
_atom_site_fract_y
_atom_site_fract_z
Cu1 Cu 0.620280(13) 0.759743(17) 0.501661(7)
S1 S 0.36811(2) 0.85830(4) 0.859756(15)
S2 S 0.36865(2) 0.75067(3) 0.562093(15)
O1 O 0.47274(8) 0.69914(11) 0.55445(5)
O2 O 0.29293(8) 0.67025(10) 0.52984(4)
O3 O 0.36017(8) 0.89480(11) 0.54903(5)
O4 O 0.26233(8) 0.90803(12) 0.85824(5)
O5 O 0.43584(8) 0.94983(11) 0.89203(5)
O6 O 0.37337(8) 0.71899(12) 0.88183(5)
O7 O 0.68942(9) 0.65078(12) 0.56138(5)
O8 O 0.61477(10) 0.59851(12) 0.45217(6)
O9 O 0.54810(9) 0.86053(12) 0.44034(5)
O10 O 0.63335(8) 0.92981(11) 0.54686(5)
C1 C 0.33632(11) 0.73138(14) 0.63753(6)
C2 C 0.25149(13) 0.65497(17) 0.65066(6)
H1 H 0.2160 0.6107 0.6209
C3 C 0.21768(13) 0.64303(18) 0.70914(7)
H2 H 0.1604 0.5898 0.7177
C4 C 0.26778(12) 0.70854(17) 0.75338(6)
H3 H 0.2430 0.7021 0.7916
C5 C 0.35755(11) 0.78653(15) 0.74170(6)
C6 C 0.39454(10) 0.79710(14) 0.68273(6)
C7 C 0.48650(11) 0.87064(16) 0.67163(6)
H4 H 0.5114 0.8765 0.6335
C8 C 0.53918(12) 0.93300(17) 0.71592(7)
H5 H 0.6001 0.9791 0.7077
C9 C 0.50184(11) 0.92788(16) 0.77390(7)
H6 H 0.5371 0.9725 0.8037
C10 C 0.41343(10) 0.85703(14) 0.78643(6)
H7 H 0.496(2) 0.837(3) 0.4247(12)
H8 H 0.735(2) 0.674(3) 0.5808(12)
H9 H 0.6770(19) 0.924(2) 0.5755(11)
H10 H 0.5583(19) 0.942(3) 0.4381(11)
H11 H 0.6479(18) 0.988(3) 0.5277(11)
H12 H 0.558(2) 0.580(3) 0.4394(11)
H13 H 0.6509(19) 0.602(3) 0.5801(11)
H14 H 0.646(2) 0.529(3) 0.4634(12)
Cu1C Cu 0.120280(13) 0.740257(17) 0.498339(7)
O2C O 0.79293(8) 0.82975(10) 0.47016(4)
loop_
_geom_bond_atom_site_label_1
_geom_bond_atom_site_label_2
_geom_bond_site_symmetry_1
_geom_bond_site_symmetry_2
Cu1 O1 1_555 1_555
S1 O4 1_555 1_555
S2 O1 1_555 1_555
O2 S2 1_555 1_555
O3 S2 1_555 1_555
O5 S1 1_555 1_555
O6 S1 1_555 1_555
O7 Cu1 1_555 1_555
O8 Cu1 1_555 1_555
O9 Cu1 1_555 1_555
O10 Cu1 1_555 1_555
C1 S2 1_555 1_555
C2 C1 1_555 1_555
H1 C2 1_555 1_555
C3 C2 1_555 1_555
H2 C3 1_555 1_555
C4 C3 1_555 1_555
H3 C4 1_555 1_555
C5 C4 1_555 1_555
C6 C1 1_555 1_555
C7 C6 1_555 1_555
H4 C7 1_555 1_555
C8 C7 1_555 1_555
H5 C8 1_555 1_555
C9 C8 1_555 1_555
H6 C9 1_555 1_555
C10 S1 1_555 1_555
H7 O9 1_555 1_555
H8 O7 1_555 1_555
H9 O10 1_555 1_555
H10 O9 1_555 1_555
H11 O10 1_555 1_555
H12 O8 1_555 1_555
H13 O7 1_555 1_555
H14 O8 1_555 1_555
Cu1C O2 1_555 1_555
O2C Cu1 1_555 1_555
C5 C6 1_555 1_555
C5 C10 1_555 1_555
C9 C10 1_555 1_555

#END
