
#######################################################################
#
#                 Cambridge Crystallographic Data Centre
#                                CCDC 
#
#######################################################################
#
# If this CIF has been generated from an entry in the Cambridge 
# Structural Database, then it will include bibliographic, chemical, 
# crystal, experimental, refinement or atomic coordinate data resulting 
# from the CCDC's data processing and validation procedures.
#
#######################################################################

data_PATCOD
_symmetry_cell_setting           monoclinic
_symmetry_space_group_name_H-M   'C 2/c'
_symmetry_Int_Tables_number      15
_space_group_name_Hall           '-C 2yn'
loop_
_symmetry_equiv_pos_site_id
_symmetry_equiv_pos_as_xyz
1 x,y,z
2 1/2+x,1/2+y,z
3 -x,y,1/2-z
4 1/2-x,1/2+y,1/2-z
5 -x,-y,-z
6 1/2-x,1/2-y,-z
7 x,-y,1/2+z
8 1/2+x,1/2-y,1/2+z
_cell_length_a                   18.7614(13)
_cell_length_b                   25.3542(17)
_cell_length_c                   16.1008(11)
_cell_angle_alpha                90
_cell_angle_beta                 99.4410(10)
_cell_angle_gamma                90
_cell_volume                     7555.09
loop_
_atom_site_label
_atom_site_type_symbol
_atom_site_fract_x
_atom_site_fract_y
_atom_site_fract_z
O1 O 0.22572(7) 0.10378(5) 0.63891(8)
Cu1 Cu 0.413657(11) 0.126851(8) 0.808587(13)
Cu2 Cu 0.089850(11) -0.128870(8) 0.451460(13)
V1 V 0.257484(15) 0.080851(11) 0.896839(17)
V2 V 0.331060(16) -0.122970(12) 0.752930(19)
V3 V 0.241250(15) -0.055530(11) 0.876790(17)
V4 V 0.197560(16) 0.136360(12) 0.533970(18)
P1 P 0.27873(2) 0.069295(17) 0.69918(3)
P2 P 0.22175(2) -0.087110(17) 0.58727(3)
O2 O 0.35351(7) 0.09360(5) 0.71621(8)
O3 O 0.24456(7) 0.05785(5) 0.77711(7)
O4 O 0.33305(7) 0.11220(5) 0.89112(8)
O5 O 0.24908(8) 0.00706(5) 0.91837(8)
O6 O 0.27183(7) -0.08487(5) 0.52177(7)
O7 O 0.18880(7) -0.12206(5) 0.38553(8)
O8 O 0.14562(7) -0.10572(5) 0.55453(8)
O9 O 0.25590(7) -0.12343(5) 0.66053(8)
O10 O 0.40824(8) -0.11311(8) 0.72291(11)
O11 O 0.33207(9) -0.17932(6) 0.80080(10)
O12 O 0.31484(7) -0.06954(5) 0.82435(8)
O13 O 0.16607(7) -0.06218(6) 0.81231(8)
O14 O 0.24403(7) 0.10115(5) 0.46018(8)
O15 O 0.22360(8) 0.19738(5) 0.54118(9)
O16 O 0.11010(8) 0.13484(6) 0.50581(9)
N1 N 0.39116(8) 0.20284(6) 0.77420(9)
N2 N 0.49118(8) 0.16252(6) 0.88192(9)
N3 N 0.47341(8) 0.06355(6) 0.85573(10)
N4 N 0.10463(8) -0.20748(6) 0.47045(9)
N5 N 0.00801(8) -0.15558(6) 0.37438(9)
N6 N 0.04215(8) -0.05960(6) 0.40860(9)
C1 C 0.33729(10) 0.21941(8) 0.71476(12)
H1 H 0.3068 0.1940 0.6833
C2 C 0.32463(11) 0.27276(8) 0.69765(13)
H2 H 0.2867 0.2837 0.6545
C3 C 0.36843(12) 0.30965(8) 0.74488(14)
H3 H 0.3602 0.3463 0.7351
C4 C 0.42460(11) 0.29265(7) 0.80674(13)
H4 H 0.4553 0.3174 0.8393
C5 C 0.43490(10) 0.23886(7) 0.81994(11)
C6 C 0.49311(10) 0.21537(7) 0.88179(11)
C7 C 0.54771(10) 0.24204(8) 0.93503(12)
H5 H 0.5497 0.2795 0.9355
C8 C 0.59909(10) 0.21235(8) 0.98739(13)
H6 H 0.6365 0.2297 1.0243
C9 C 0.59622(10) 0.15744(8) 0.98627(12)
H7 H 0.6311 0.1371 1.0221
C10 C 0.54088(10) 0.13324(7) 0.93125(11)
C11 C 0.53024(9) 0.07586(7) 0.91653(11)
C12 C 0.57448(10) 0.03709(8) 0.95829(12)
H8 H 0.6126 0.0462 1.0024
C13 C 0.56224(10) -0.01528(8) 0.93465(13)
H9 H 0.5930 -0.0423 0.9613
C14 C 0.50473(10) -0.02788(8) 0.87180(12)
H10 H 0.4957 -0.0634 0.8543
C15 C 0.46068(10) 0.01288(7) 0.83519(12)
H11 H 0.4200 0.0044 0.7940
C16 C 0.15968(9) -0.23062(7) 0.52076(11)
H12 H 0.1917 -0.2095 0.5588
C17 C 0.17127(10) -0.28469(7) 0.51883(12)
H13 H 0.2103 -0.3004 0.5557
C18 C 0.12517(10) -0.31558(7) 0.46239(12)
H14 H 0.1330 -0.3525 0.4592
C19 C 0.06728(10) -0.29191(7) 0.41047(12)
H15 H 0.0350 -0.3123 0.3715
C20 C 0.05801(9) -0.23777(7) 0.41711(11)
C21 C -0.00163(9) -0.20790(7) 0.36755(11)
C22 C -0.06332(10) -0.22880(8) 0.31920(12)
H16 H -0.0709 -0.2658 0.3150
C23 C -0.11378(10) -0.19352(8) 0.27703(11)
H17 H -0.1564 -0.2066 0.2433
C24 C -0.10249(10) -0.13941(8) 0.28378(11)
H18 H -0.1362 -0.1153 0.2540
C25 C -0.04052(9) -0.12150(7) 0.33536(11)
C26 C -0.02031(9) -0.06601(7) 0.35351(11)
C27 C -0.06004(10) -0.02314(8) 0.31792(12)
H19 H -0.1032 -0.0283 0.2788
C28 C -0.03572(10) 0.02766(8) 0.34046(12)
H20 H -0.0626 0.0575 0.3175
C29 C 0.02801(10) 0.03422(8) 0.39663(12)
H21 H 0.0456 0.0685 0.4127
C30 C 0.06561(10) -0.01069(7) 0.42893(12)
H22 H 0.1097 -0.0064 0.4669
C31 C 0.28600(9) 0.00782(7) 0.64592(10)
H23 H 0.3015 0.0148 0.5910
H24 H 0.3236 -0.0142 0.6799
C32 C 0.21476(9) -0.02249(7) 0.63117(11)
H25 H 0.1969 -0.0260 0.6854
H26 H 0.1787 -0.0018 0.5926
V1F V 0.257484(15) -0.080851(11) 0.396839(17)
V3F V 0.241250(15) 0.055530(11) 0.376790(17)
O6F O 0.27183(7) 0.08487(5) 1.02177(7)
O7F O 0.18880(7) 0.12206(5) 0.88553(8)
O14F O 0.24403(7) -0.10115(5) 0.96018(8)
loop_
_geom_bond_atom_site_label_1
_geom_bond_atom_site_label_2
_geom_bond_site_symmetry_1
_geom_bond_site_symmetry_2
O1 V4 1_555 1_555
Cu1 O2 1_555 1_555
Cu2 O7 1_555 1_555
V1 O3 1_555 1_555
V2 O9 1_555 1_555
V3 O5 1_555 1_555
V4 O14 1_555 1_555
P1 O1 1_555 1_555
P2 O6 1_555 1_555
O2 P1 1_555 1_555
O3 P1 1_555 1_555
O4 Cu1 1_555 1_555
O5 V1 1_555 1_555
O6 V1F 1_555 1_555
O7 V1F 1_555 1_555
O8 Cu2 1_555 1_555
O9 P2 1_555 1_555
O10 V2 1_555 1_555
O11 V2 1_555 1_555
O12 V2 1_555 1_555
O13 V3 1_555 1_555
O14 V3F 1_555 1_555
O15 V4 1_555 1_555
O16 V4 1_555 1_555
N1 Cu1 1_555 1_555
N2 Cu1 1_555 1_555
N3 Cu1 1_555 1_555
N4 Cu2 1_555 1_555
N5 Cu2 1_555 1_555
N6 Cu2 1_555 1_555
C1 N1 1_555 1_555
H1 C1 1_555 1_555
C2 C1 1_555 1_555
H2 C2 1_555 1_555
C3 C2 1_555 1_555
H3 C3 1_555 1_555
C4 C3 1_555 1_555
H4 C4 1_555 1_555
C5 N1 1_555 1_555
C6 N2 1_555 1_555
C7 C6 1_555 1_555
H5 C7 1_555 1_555
C8 C7 1_555 1_555
H6 C8 1_555 1_555
C9 C8 1_555 1_555
H7 C9 1_555 1_555
C10 N2 1_555 1_555
C11 N3 1_555 1_555
C12 C11 1_555 1_555
H8 C12 1_555 1_555
C13 C12 1_555 1_555
H9 C13 1_555 1_555
C14 C13 1_555 1_555
H10 C14 1_555 1_555
C15 N3 1_555 1_555
H11 C15 1_555 1_555
C16 N4 1_555 1_555
H12 C16 1_555 1_555
C17 C16 1_555 1_555
H13 C17 1_555 1_555
C18 C17 1_555 1_555
H14 C18 1_555 1_555
C19 C18 1_555 1_555
H15 C19 1_555 1_555
C20 N4 1_555 1_555
C21 N5 1_555 1_555
C22 C21 1_555 1_555
H16 C22 1_555 1_555
C23 C22 1_555 1_555
H17 C23 1_555 1_555
C24 C23 1_555 1_555
H18 C24 1_555 1_555
C25 N5 1_555 1_555
C26 N6 1_555 1_555
C27 C26 1_555 1_555
H19 C27 1_555 1_555
C28 C27 1_555 1_555
H20 C28 1_555 1_555
C29 C28 1_555 1_555
H21 C29 1_555 1_555
C30 N6 1_555 1_555
H22 C30 1_555 1_555
C31 P1 1_555 1_555
H23 C31 1_555 1_555
H24 C31 1_555 1_555
C32 P2 1_555 1_555
H25 C32 1_555 1_555
H26 C32 1_555 1_555
O6F V1 1_555 1_555
O7F V1 1_555 1_555
O14F V3 1_555 1_555
V1 O4 1_555 1_555
V3 O12 1_555 1_555
P2 O8 1_555 1_555
C4 C5 1_555 1_555
C5 C6 1_555 1_555
C9 C10 1_555 1_555
C10 C11 1_555 1_555
C14 C15 1_555 1_555
C19 C20 1_555 1_555
C20 C21 1_555 1_555
C24 C25 1_555 1_555
C25 C26 1_555 1_555
C29 C30 1_555 1_555
C31 C32 1_555 1_555

#END
