
#######################################################################
#
#                 Cambridge Crystallographic Data Centre
#                                CCDC 
#
#######################################################################
#
# If this CIF has been generated from an entry in the Cambridge 
# Structural Database, then it will include bibliographic, chemical, 
# crystal, experimental, refinement or atomic coordinate data resulting 
# from the CCDC's data processing and validation procedures.
#
#######################################################################

data_PATCUJ
_symmetry_cell_setting           triclinic
_symmetry_space_group_name_H-M   'P -1'
_symmetry_Int_Tables_number      2
_space_group_name_Hall           '-P 1'
loop_
_symmetry_equiv_pos_site_id
_symmetry_equiv_pos_as_xyz
1 x,y,z
2 -x,-y,-z
_cell_length_a                   10.361(3)
_cell_length_b                   10.443(4)
_cell_length_c                   12.259(4)
_cell_angle_alpha                83.080(6)
_cell_angle_beta                 86.584(6)
_cell_angle_gamma                82.832(6)
_cell_volume                     1305.13
loop_
_atom_site_label
_atom_site_type_symbol
_atom_site_fract_x
_atom_site_fract_y
_atom_site_fract_z
O1 O 0.0458(2) -0.0307(2) 0.84769(19)
P1 P 0.17342(7) -0.01889(8) 0.89755(6)
C1 C 0.2551(3) 0.1041(4) 0.8164(3)
H1 H 0.2697 0.0811 0.7419
H2 H 0.1986 0.1858 0.8132
C2 C 0.3854(3) 0.1234(4) 0.8603(3)
H3 H 0.3726 0.1409 0.9364
H4 H 0.4451 0.0443 0.8580
O2 O 0.1578(2) 0.0185(2) 1.01386(18)
O3 O 0.5748(3) 0.3260(3) 0.9450(2)
Cu1 Cu 0.83240(4) 0.37900(4) 0.70277(3)
V1 V -0.12957(5) 0.06787(5) 0.83696(4)
V2 V 0.60186(6) 0.27454(6) 1.09136(5)
P2 P 0.59984(8) 0.26310(8) 0.83631(7)
O4 O 0.9192(2) 0.2120(2) 0.8155(2)
O5 O 0.6559(2) 0.3592(2) 0.7482(2)
O6 O 0.6821(2) 0.1332(2) 0.8567(2)
O7 O -0.1516(3) 0.0162(3) 0.7210(2)
O8 O 0.2574(3) -0.1507(3) 0.8924(2)
O9 O 0.4746(4) 0.2202(5) 1.1519(4)
O10 O 0.6298(4) 0.3978(4) 1.1479(3)
N1 N 0.8677(3) 0.5113(3) 0.8008(3)
N2 N 1.0051(3) 0.4106(3) 0.6464(2)
N3 N 0.8457(3) 0.2829(3) 0.5685(2)
C3 C 0.7868(4) 0.5600(4) 0.8788(4)
H5 H 0.7025 0.5372 0.8876
C4 C 0.8255(5) 0.6438(5) 0.9471(4)
H6 H 0.7682 0.6760 1.0013
C5 C 0.9493(5) 0.6783(4) 0.9337(4)
H7 H 0.9765 0.7349 0.9783
C6 C 1.0330(5) 0.6286(4) 0.8535(4)
H8 H 1.1173 0.6512 0.8434
C7 C 0.9906(4) 0.5448(3) 0.7884(3)
C8 C 1.0708(3) 0.4847(3) 0.6997(3)
C9 C 1.2005(4) 0.4973(4) 0.6684(3)
H9 H 1.2475 0.5487 0.7041
C10 C 1.2579(4) 0.4315(5) 0.5830(4)
H10 H 1.3442 0.4393 0.5609
C11 C 1.1885(4) 0.3546(4) 0.5305(3)
H11 H 1.2273 0.3099 0.4735
C12 C 1.0599(4) 0.3454(3) 0.5644(3)
C13 C 0.9673(4) 0.2701(4) 0.5195(3)
C14 C 0.9977(5) 0.1957(5) 0.4337(3)
H12 H 1.0818 0.1867 0.4022
C15 C 0.9015(5) 0.1349(5) 0.3954(4)
H13 H 0.9198 0.0848 0.3374
C16 C 0.7789(5) 0.1494(5) 0.4437(4)
H14 H 0.7127 0.1100 0.4181
C17 C 0.7540(4) 0.2229(4) 0.5310(3)
H15 H 0.6709 0.2307 0.5645
C18 C 0.4447(3) 0.2356(4) 0.7928(3)
H16 H 0.3848 0.3143 0.7965
H17 H 0.4541 0.2186 0.7165
O2A O -0.1578(2) -0.0185(2) 0.98614(18)
V1A V 0.12957(5) -0.06787(5) 1.16304(4)
V1_2 V 0.87043(5) 0.06787(5) 0.83696(4)
V2A V 0.39814(6) -0.27454(6) 0.90864(5)
O4_2 O -0.0808(2) 0.2120(2) 0.8155(2)
O6_2 O -0.3179(2) 0.1332(2) 0.8567(2)
O8A O 0.7426(3) 0.1507(3) 1.1076(2)
O11 O 0.3512(6) 0.1101(7) 0.3474(4)
O12 O 0.5468(11) 0.9122(13) 0.4447(9)
O13 O 0.4737(5) 0.4081(5) 0.3721(4)
loop_
_geom_bond_atom_site_label_1
_geom_bond_atom_site_label_2
_geom_bond_site_symmetry_1
_geom_bond_site_symmetry_2
O1 P1 1_555 1_555
P1 C1 1_555 1_555
C1 H1 1_555 1_555
H2 C1 1_555 1_555
C2 C1 1_555 1_555
H3 C2 1_555 1_555
H4 C2 1_555 1_555
O2 P1 1_555 1_555
O3 V2 1_555 1_555
Cu1 O4 1_555 1_555
V1 O1 1_555 1_555
V2 O9 1_555 1_555
P2 O3 1_555 1_555
O4 V1_2 1_555 1_555
O5 Cu1 1_555 1_555
O6 P2 1_555 1_555
O7 V1 1_555 1_555
O8 P1 1_555 1_555
O10 V2 1_555 1_555
N1 Cu1 1_555 1_555
N2 Cu1 1_555 1_555
N3 Cu1 1_555 1_555
C3 N1 1_555 1_555
H5 C3 1_555 1_555
C4 C3 1_555 1_555
H6 C4 1_555 1_555
C5 C4 1_555 1_555
H7 C5 1_555 1_555
C6 C5 1_555 1_555
H8 C6 1_555 1_555
C7 N1 1_555 1_555
C8 N2 1_555 1_555
C9 C8 1_555 1_555
H9 C9 1_555 1_555
C10 C9 1_555 1_555
H10 C10 1_555 1_555
C11 C10 1_555 1_555
H11 C11 1_555 1_555
C12 N2 1_555 1_555
C13 N3 1_555 1_555
C14 C13 1_555 1_555
H12 C14 1_555 1_555
C15 C14 1_555 1_555
H13 C15 1_555 1_555
C16 C15 1_555 1_555
H14 C16 1_555 1_555
C17 N3 1_555 1_555
H15 C17 1_555 1_555
C18 C2 1_555 1_555
H16 C18 1_555 1_555
H17 C18 1_555 1_555
O2A V1 1_555 1_555
V1A O2 1_555 1_555
V1_2 O6 1_555 1_555
V2A O8 1_555 1_555
O4_2 V1 1_555 1_555
O6_2 V1 1_555 1_555
O8A V2 1_555 1_555
P2 O5 1_555 1_555
P2 C18 1_555 1_555
C6 C7 1_555 1_555
C7 C8 1_555 1_555
C11 C12 1_555 1_555
C12 C13 1_555 1_555
C16 C17 1_555 1_555

#END
