
#######################################################################
#
#                 Cambridge Crystallographic Data Centre
#                                CCDC 
#
#######################################################################
#
# If this CIF has been generated from an entry in the Cambridge 
# Structural Database, then it will include bibliographic, chemical, 
# crystal, experimental, refinement or atomic coordinate data resulting 
# from the CCDC's data processing and validation procedures.
#
#######################################################################

data_PATCIX
_symmetry_cell_setting           monoclinic
_symmetry_space_group_name_H-M   'P 21/n'
_symmetry_Int_Tables_number      14
_space_group_name_Hall           '-P 2yn'
loop_
_symmetry_equiv_pos_site_id
_symmetry_equiv_pos_as_xyz
1 x,y,z
2 1/2-x,1/2+y,1/2-z
3 -x,-y,-z
4 1/2+x,1/2-y,1/2+z
_cell_length_a                   10.5656(6)
_cell_length_b                   7.7040(4)
_cell_length_c                   22.4544(13)
_cell_angle_alpha                90
_cell_angle_beta                 99.1410(10)
_cell_angle_gamma                90
_cell_volume                     1804.52
loop_
_atom_site_label
_atom_site_type_symbol
_atom_site_fract_x
_atom_site_fract_y
_atom_site_fract_z
O1 O 0.29418(12) 0.54712(15) 0.17863(6)
Cu1 Cu 0.509433(19) 0.13629(2) 0.098516(9)
V1 V 0.13815(2) 0.65434(3) 0.196070(11)
P1 P 0.30343(4) -0.01212(5) 0.170936(17)
P2 P 0.35872(4) 0.36829(5) 0.182495(19)
O2 O 0.45604(12) 0.36538(14) 0.14005(6)
O3 O 0.40633(11) -0.03174(15) 0.13073(5)
O4 O 0.41541(12) 0.32199(15) 0.24735(5)
O5 O 0.19515(12) -0.14087(14) 0.15268(5)
O6 O 0.35886(12) -0.02380(14) 0.23806(5)
O7 O 0.01907(13) 0.58886(18) 0.14861(6)
N1 N 0.67389(14) 0.11356(19) 0.15890(7)
N2 N 0.63118(14) 0.24196(18) 0.05279(6)
N3 N 0.39633(15) 0.16498(19) 0.01501(6)
C1 C 0.68473(19) 0.0470(2) 0.21445(8)
H1 H 0.6140 -0.0063 0.2265
C2 C 0.7987(2) 0.0554(3) 0.25457(9)
H2 H 0.8057 0.0018 0.2921
C3 C 0.9014(2) 0.1436(3) 0.23851(10)
H3 H 0.9774 0.1541 0.2655
C4 C 0.88961(18) 0.2168(3) 0.18132(9)
H4 H 0.9572 0.2786 0.1696
C5 C 0.77597(16) 0.1961(2) 0.14225(8)
C6 C 0.75280(17) 0.2597(2) 0.07920(8)
C7 C 0.8441(2) 0.3271(3) 0.04698(10)
H5 H 0.9287 0.3429 0.0653
C8 C 0.8051(2) 0.3700(3) -0.01312(10)
H6 H 0.8648 0.4129 -0.0357
C9 C 0.6788(2) 0.3499(3) -0.04010(9)
H7 H 0.6528 0.3785 -0.0804
C10 C 0.59176(18) 0.2856(2) -0.00498(7)
C11 C 0.45468(18) 0.2524(2) -0.02536(7)
C12 C 0.3887(2) 0.3048(3) -0.08076(8)
H8 H 0.4305 0.3649 -0.1079
C13 C 0.2596(2) 0.2660(3) -0.09492(9)
H9 H 0.2132 0.3007 -0.1317
C14 C 0.2000(2) 0.1754(3) -0.05401(10)
H10 H 0.1133 0.1480 -0.0629
C15 C 0.27178(19) 0.1263(2) 0.00046(9)
H11 H 0.2320 0.0643 0.0279
C16 C 0.23762(16) 0.2047(2) 0.15971(8)
H12 H 0.196(2) 0.216(3) 0.1188(10)
H13 H 0.182(2) 0.210(3) 0.1799(10)
V1A V 0.36185(2) 0.15434(3) 0.303930(11)
V1_2 V 0.13815(2) -0.34566(3) 0.196070(11)
O4A O 0.08459(12) 0.82199(15) 0.25265(5)
O5_2 O 0.19515(12) 0.85913(14) 0.15268(5)
O6A O 0.14114(12) 0.47620(14) 0.26194(5)
loop_
_geom_bond_atom_site_label_1
_geom_bond_atom_site_label_2
_geom_bond_site_symmetry_1
_geom_bond_site_symmetry_2
O1 V1 1_555 1_555
Cu1 O2 1_555 1_555
V1 O7 1_555 1_555
P1 O3 1_555 1_555
P2 O1 1_555 1_555
O2 P2 1_555 1_555
O3 Cu1 1_555 1_555
O4 P2 1_555 1_555
O5 P1 1_555 1_555
O6 P1 1_555 1_555
N1 Cu1 1_555 1_555
N2 Cu1 1_555 1_555
N3 Cu1 1_555 1_555
C1 N1 1_555 1_555
H1 C1 1_555 1_555
C2 C1 1_555 1_555
H2 C2 1_555 1_555
C3 C2 1_555 1_555
H3 C3 1_555 1_555
C4 C3 1_555 1_555
H4 C4 1_555 1_555
C5 N1 1_555 1_555
C6 N2 1_555 1_555
C7 C6 1_555 1_555
H5 C7 1_555 1_555
C8 C7 1_555 1_555
H6 C8 1_555 1_555
C9 C8 1_555 1_555
H7 C9 1_555 1_555
C10 N2 1_555 1_555
C11 N3 1_555 1_555
C12 C11 1_555 1_555
H8 C12 1_555 1_555
C13 C12 1_555 1_555
H9 C13 1_555 1_555
C14 C13 1_555 1_555
H10 C14 1_555 1_555
C15 N3 1_555 1_555
H11 C15 1_555 1_555
C16 P1 1_555 1_555
H12 C16 1_555 1_555
H13 C16 1_555 1_555
V1A O4 1_555 1_555
V1_2 O5 1_555 1_555
O4A V1 1_555 1_555
O5_2 V1 1_555 1_555
O6A V1 1_555 1_555
P2 C16 1_555 1_555
O6 V1A 1_555 1_555
C4 C5 1_555 1_555
C5 C6 1_555 1_555
C9 C10 1_555 1_555
C10 C11 1_555 1_555
C14 C15 1_555 1_555

#END
