
#######################################################################
#
#                 Cambridge Crystallographic Data Centre
#                                CCDC 
#
#######################################################################
#
# If this CIF has been generated from an entry in the Cambridge 
# Structural Database, then it will include bibliographic, chemical, 
# crystal, experimental, refinement or atomic coordinate data resulting 
# from the CCDC's data processing and validation procedures.
#
#######################################################################

data_PATDAQ
_symmetry_cell_setting           monoclinic
_symmetry_space_group_name_H-M   'P 21/n'
_symmetry_Int_Tables_number      14
_space_group_name_Hall           '-P 2yn'
loop_
_symmetry_equiv_pos_site_id
_symmetry_equiv_pos_as_xyz
1 x,y,z
2 1/2-x,1/2+y,1/2-z
3 -x,-y,-z
4 1/2+x,1/2-y,1/2+z
_cell_length_a                   9.0201(7)
_cell_length_b                   17.2200(14)
_cell_length_c                   14.8472(12)
_cell_angle_alpha                90
_cell_angle_beta                 99.985(2)
_cell_angle_gamma                90
_cell_volume                     2271.23
loop_
_atom_site_label
_atom_site_type_symbol
_atom_site_fract_x
_atom_site_fract_y
_atom_site_fract_z
Cu1 Cu 0.25933(2) 0.065345(11) 0.300824(12)
V1 V -0.27235(3) -0.056080(15) 0.171500(19)
V2 V -0.00495(3) 0.235370(15) 0.313560(17)
P1 P -0.07101(4) 0.09177(2) 0.17549(3)
P2 P -0.39151(4) 0.08744(2) -0.18638(3)
O1 O 0.07089(12) 0.05022(7) 0.21780(8)
O2 O -0.08112(13) 0.17615(6) 0.20935(8)
O3 O -0.21288(13) 0.04804(7) 0.19367(8)
O4 O -0.38278(13) 0.03642(7) -0.26640(8)
O5 O -0.41639(13) 0.17361(6) -0.21727(8)
O6 O -0.51964(12) 0.06379(7) -0.13367(8)
O7 O -0.22284(14) -0.10425(7) 0.26520(9)
O8 O -0.18505(14) -0.09098(7) 0.09387(9)
O9 O 0.11785(13) 0.18417(7) 0.38059(8)
O10 O -0.13752(13) 0.25545(7) 0.36998(8)
N1 N 0.36093(15) 0.13903(8) 0.22320(9)
N2 N 0.40105(14) 0.11620(8) 0.39561(9)
N3 N 0.20941(14) 0.00928(8) 0.41162(9)
C1 C 0.11322(18) -0.04974(9) 0.41237(11)
H1 H 0.0516 -0.0650 0.3567
C2 C 0.10083(19) -0.08937(10) 0.49228(12)
H2 H 0.0307 -0.1306 0.4913
C3 C 0.1921(2) -0.06789(10) 0.57336(12)
H3 H 0.1865 -0.0949 0.6285
C4 C 0.29217(18) -0.00642(9) 0.57336(11)
H4 H 0.3555 0.0094 0.6282
C5 C 0.29710(17) 0.03114(9) 0.49129(10)
C6 C 0.39748(17) 0.09749(9) 0.48258(11)
C7 C 0.47935(19) 0.14021(10) 0.55382(11)
H5 H 0.4796 0.1264 0.6158
C8 C 0.56064(19) 0.20366(10) 0.53133(12)
H6 H 0.6175 0.2337 0.5788
C9 C 0.56031(18) 0.22404(10) 0.44045(11)
H7 H 0.6144 0.2680 0.4250
C10 C 0.47775(17) 0.17747(9) 0.37308(11)
C11 C 0.46313(17) 0.18711(9) 0.27269(11)
C12 C 0.55007(19) 0.23801(10) 0.23176(12)
H8 H 0.6184 0.2725 0.2676
C13 C 0.5351(2) 0.23746(11) 0.13678(12)
H9 H 0.5951 0.2710 0.1071
C14 C 0.43256(19) 0.18801(11) 0.08585(12)
H10 H 0.4210 0.1869 0.0210
C15 C 0.34665(18) 0.13989(10) 0.13200(11)
H11 H 0.2750 0.1063 0.0973
C16 C -0.22100(17) 0.08369(10) -0.10414(10)
H12 H -0.1432 0.1134 -0.1290
H13 H -0.1872 0.0289 -0.0985
C17 C -0.22593(17) 0.11430(10) -0.00802(10)
H14 H -0.2393 0.1714 -0.0097
H15 H -0.3117 0.0908 0.0157
C18 C -0.07769(17) 0.09309(10) 0.05433(10)
H16 H -0.0476 0.0409 0.0360
H17 H 0.0000 0.1301 0.0414
Cu1B Cu -0.25933(2) -0.065345(11) -0.300824(12)
V1B V -0.72765(3) 0.056080(15) -0.171500(19)
V2C V -0.50495(3) 0.264630(15) -0.186440(17)
O4B O 0.38278(13) -0.03642(7) 0.26640(8)
O5C O 0.08361(13) 0.32639(6) 0.28273(8)
O6B O -0.48036(12) -0.06379(7) 0.13367(8)
loop_
_geom_bond_atom_site_label_1
_geom_bond_atom_site_label_2
_geom_bond_site_symmetry_1
_geom_bond_site_symmetry_2
Cu1 O1 1_555 1_555
V1 O3 1_555 1_555
V2 O2 1_555 1_555
P1 O1 1_555 1_555
P2 O4 1_555 1_555
O2 P1 1_555 1_555
O3 P1 1_555 1_555
O4 Cu1B 1_555 1_555
O5 P2 1_555 1_555
O6 P2 1_555 1_555
O7 V1 1_555 1_555
O8 V1 1_555 1_555
O9 V2 1_555 1_555
O10 V2 1_555 1_555
N1 Cu1 1_555 1_555
N2 Cu1 1_555 1_555
N3 Cu1 1_555 1_555
C1 N3 1_555 1_555
H1 C1 1_555 1_555
C2 C1 1_555 1_555
H2 C2 1_555 1_555
C3 C2 1_555 1_555
H3 C3 1_555 1_555
C4 C3 1_555 1_555
H4 C4 1_555 1_555
C5 N3 1_555 1_555
C6 N2 1_555 1_555
C7 C6 1_555 1_555
H5 C7 1_555 1_555
C8 C7 1_555 1_555
H6 C8 1_555 1_555
C9 C8 1_555 1_555
H7 C9 1_555 1_555
C10 N2 1_555 1_555
C11 N1 1_555 1_555
C12 C11 1_555 1_555
H8 C12 1_555 1_555
C13 C12 1_555 1_555
H9 C13 1_555 1_555
C14 C13 1_555 1_555
H10 C14 1_555 1_555
C15 N1 1_555 1_555
H11 C15 1_555 1_555
C16 P2 1_555 1_555
H12 C16 1_555 1_555
H13 C16 1_555 1_555
C17 C16 1_555 1_555
H14 C17 1_555 1_555
H15 C17 1_555 1_555
C18 P1 1_555 1_555
H16 C18 1_555 1_555
H17 C18 1_555 1_555
V1B O6 1_555 1_555
V2C O5 1_555 1_555
O4B Cu1 1_555 1_555
O5C V2 1_555 1_555
O6B V1 1_555 1_555
C4 C5 1_555 1_555
C5 C6 1_555 1_555
C9 C10 1_555 1_555
C10 C11 1_555 1_555
C14 C15 1_555 1_555
C17 C18 1_555 1_555

#END
