
#######################################################################
#
#                 Cambridge Crystallographic Data Centre
#                                CCDC 
#
#######################################################################
#
# If this CIF has been generated from an entry in the Cambridge 
# Structural Database, then it will include bibliographic, chemical, 
# crystal, experimental, refinement or atomic coordinate data resulting 
# from the CCDC's data processing and validation procedures.
#
#######################################################################

data_PATDIY01
_symmetry_cell_setting           triclinic
_symmetry_space_group_name_H-M   'P -1'
_symmetry_Int_Tables_number      2
_space_group_name_Hall           '-P 1'
loop_
_symmetry_equiv_pos_site_id
_symmetry_equiv_pos_as_xyz
1 x,y,z
2 -x,-y,-z
_cell_length_a                   8.8605(9)
_cell_length_b                   10.7144(11)
_cell_length_c                   20.516(2)
_cell_angle_alpha                99.317(2)
_cell_angle_beta                 98.768(2)
_cell_angle_gamma                94.012(2)
_cell_volume                     1890.56
loop_
_atom_site_label
_atom_site_type_symbol
_atom_site_fract_x
_atom_site_fract_y
_atom_site_fract_z
Cu1 Cu 0.84246(3) 1.27860(3) 0.567769(15)
Cu2 Cu 0.85826(3) 0.78208(3) 0.075149(14)
V1 V 0.90472(5) 1.26646(4) 0.42005(2)
V2 V 0.78090(5) 1.59206(4) 0.63505(2)
V3 V 0.65966(5) 1.17166(4) 0.27384(2)
V4 V 0.67309(5) 1.69787(4) 0.77644(2)
V5 V 0.77476(5) 1.09227(4) 0.12650(2)
V6 V 0.91107(5) 1.76416(4) 0.92607(2)
N1 N 0.6222(2) 1.20401(19) 0.54846(10)
N2 N 0.8526(2) 1.15807(19) 0.62884(10)
N3 N 1.0690(2) 1.30648(19) 0.60499(10)
N4 N 0.6374(2) 0.70842(19) 0.05527(10)
N5 N 0.8675(2) 0.65590(19) 0.13319(10)
N6 N 1.0855(2) 0.80528(19) 0.11148(10)
O1 O 0.8497(2) 1.34952(16) 0.48777(8)
O2 O 0.9219(2) 1.12308(18) 0.43174(10)
O3 O 1.0830(2) 1.3351(2) 0.40710(9)
O4 O 0.7593(2) 1.26778(18) 0.34660(9)
O5 O 0.6087(2) 1.6019(2) 0.59884(10)
O6 O 0.8059(2) 1.67768(17) 0.72257(9)
O7 O 0.6511(2) 1.02550(17) 0.28341(9)
O8 O 0.4654(2) 1.2065(2) 0.25627(10)
O9 O 0.7501(2) 1.18829(18) 0.20677(10)
O10 O 0.5957(2) 1.56172(19) 0.78247(10)
O11 O 0.7661(2) 1.77670(19) 0.85483(9)
O12 O 0.6106(2) 1.0657(2) 0.07786(11)
O13 O 0.8336(2) 0.95537(17) 0.14067(9)
O14 O 0.86803(19) 1.85258(16) 0.99494(8)
O15 O 0.9122(2) 1.61866(18) 0.93689(10)
O16 O 0.9058(2) 1.18328(18) 0.08951(9)
O17 O 0.8048(2) 1.44241(18) 0.63804(9)
C1 C 0.5090(3) 1.2391(2) 0.50639(13)
C2 C 0.3585(3) 1.1860(3) 0.49833(13)
C3 C 0.3245(3) 1.0938(2) 0.53592(13)
C4 C 0.4418(3) 1.0579(2) 0.58039(13)
C5 C 0.5886(3) 1.1144(2) 0.58548(12)
C6 C 0.7248(3) 1.0858(2) 0.63110(12)
C7 C 0.7299(3) 0.9959(3) 0.67305(13)
C8 C 0.8690(3) 0.9872(3) 0.71303(13)
C9 C 1.0002(3) 1.0647(2) 0.71066(13)
C10 C 0.9880(3) 1.1502(2) 0.66612(12)
C11 C 1.1120(3) 1.2401(2) 0.65465(12)
C12 C 1.2594(3) 1.2593(3) 0.69114(14)
C13 C 1.3630(3) 1.3505(3) 0.67729(15)
C14 C 1.3191(3) 1.4183(3) 0.62721(15)
C15 C 1.1704(3) 1.3937(2) 0.59143(14)
C16 C 0.5242(3) 0.7461(2) 0.01377(12)
C17 C 0.3744(3) 0.6905(2) 0.00421(13)
C18 C 0.3403(3) 0.5940(2) 0.03863(13)
C19 C 0.4572(3) 0.5559(2) 0.08281(12)
C20 C 0.6047(3) 0.6142(2) 0.08953(12)
C21 C 0.7408(3) 0.5820(2) 0.13370(12)
C22 C 0.7459(3) 0.4864(2) 0.17211(13)
C23 C 0.8858(3) 0.4726(3) 0.21024(14)
C24 C 1.0176(3) 0.5507(2) 0.20929(13)
C25 C 1.0044(3) 0.6428(2) 0.16848(12)
C26 C 1.1289(3) 0.7334(2) 0.15845(12)
C27 C 1.2769(3) 0.7476(3) 0.19415(14)
C28 C 1.3817(3) 0.8403(3) 0.18177(15)
C29 C 1.3372(3) 0.9139(3) 0.13413(14)
C30 C 1.1869(3) 0.8935(2) 0.09955(14)
H1 H 0.536(3) 1.303(3) 0.4834(13)
H2 H 0.292(4) 1.213(3) 0.4708(16)
H3 H 0.233(3) 1.062(3) 0.5306(13)
H4 H 0.427(3) 0.999(3) 0.6052(15)
H5 H 0.653(3) 0.946(3) 0.6736(14)
H6 H 0.876(3) 0.926(3) 0.7440(15)
H7 H 1.097(3) 1.065(3) 0.7388(15)
H8 H 1.284(4) 1.215(3) 0.7267(15)
H9 H 1.468(4) 1.363(3) 0.7054(16)
H10 H 1.378(3) 1.473(3) 0.6192(14)
H11 H 1.142(3) 1.438(3) 0.5568(15)
H12 H 0.555(3) 0.816(2) -0.0063(12)
H13 H 0.302(3) 0.724(3) -0.0232(14)
H14 H 0.241(3) 0.557(3) 0.0321(13)
H15 H 0.437(4) 0.494(3) 0.1048(15)
H16 H 0.667(3) 0.434(3) 0.1727(14)
H17 H 0.890(4) 0.412(3) 0.2354(16)
H18 H 1.107(4) 0.546(3) 0.2376(15)
H19 H 1.303(4) 0.696(3) 0.2302(16)
H20 H 1.489(3) 0.852(3) 0.2084(14)
H21 H 1.402(3) 0.969(3) 0.1286(13)
H22 H 1.155(3) 0.935(3) 0.0627(15)
Cu2_2 Cu 0.85826(3) 1.78208(3) 1.075149(14)
V2A V 1.21910(5) 1.40794(4) 0.36495(2)
V4A V 0.32691(5) 1.30213(4) 0.22356(2)
V6A V 1.08893(5) 1.23584(4) 0.07393(2)
O3A O 0.9170(2) 1.6649(2) 0.59290(9)
O8A O 0.5346(2) 1.7935(2) 0.74373(10)
O14_2 O 0.86803(19) 0.85258(16) -0.00506(8)
O16A O 1.0942(2) 1.81672(18) 0.91049(9)
loop_
_geom_bond_atom_site_label_1
_geom_bond_atom_site_label_2
_geom_bond_site_symmetry_1
_geom_bond_site_symmetry_2
Cu1 N1 1_555 1_555
Cu2 N4 1_555 1_555
V1 O1 1_555 1_555
V2 O5 1_555 1_555
V3 O4 1_555 1_555
V4 O6 1_555 1_555
V5 O9 1_555 1_555
V6 O11 1_555 1_555
N1 C1 1_555 1_555
N2 Cu1 1_555 1_555
N3 Cu1 1_555 1_555
N4 C16 1_555 1_555
N5 Cu2 1_555 1_555
N6 Cu2 1_555 1_555
O1 Cu1 1_555 1_555
O2 V1 1_555 1_555
O3 V1 1_555 1_555
O4 V1 1_555 1_555
O6 V2 1_555 1_555
O7 V3 1_555 1_555
O8 V3 1_555 1_555
O9 V3 1_555 1_555
O10 V4 1_555 1_555
O11 V4 1_555 1_555
O12 V5 1_555 1_555
O13 Cu2 1_555 1_555
O14 V6 1_555 1_555
O15 V6 1_555 1_555
O16 V5 1_555 1_555
O17 Cu1 1_555 1_555
C1 C2 1_555 1_555
C2 C3 1_555 1_555
C3 C4 1_555 1_555
C4 C5 1_555 1_555
C5 N1 1_555 1_555
C6 N2 1_555 1_555
C7 C6 1_555 1_555
C8 C7 1_555 1_555
C9 C8 1_555 1_555
C10 N2 1_555 1_555
C11 N3 1_555 1_555
C12 C11 1_555 1_555
C13 C12 1_555 1_555
C14 C13 1_555 1_555
C15 N3 1_555 1_555
C16 C17 1_555 1_555
C17 C18 1_555 1_555
C18 C19 1_555 1_555
C19 C20 1_555 1_555
C20 N4 1_555 1_555
C21 N5 1_555 1_555
C22 C21 1_555 1_555
C23 C22 1_555 1_555
C24 C23 1_555 1_555
C25 N5 1_555 1_555
C26 N6 1_555 1_555
C27 C26 1_555 1_555
C28 C27 1_555 1_555
C29 C28 1_555 1_555
C30 N6 1_555 1_555
H1 C1 1_555 1_555
H2 C2 1_555 1_555
H3 C3 1_555 1_555
H4 C4 1_555 1_555
H5 C7 1_555 1_555
H6 C8 1_555 1_555
H7 C9 1_555 1_555
H8 C12 1_555 1_555
H9 C13 1_555 1_555
H10 C14 1_555 1_555
H11 C15 1_555 1_555
H12 C16 1_555 1_555
H13 C17 1_555 1_555
H14 C18 1_555 1_555
H15 C19 1_555 1_555
H16 C22 1_555 1_555
H17 C23 1_555 1_555
H18 C24 1_555 1_555
H19 C27 1_555 1_555
H20 C28 1_555 1_555
H21 C29 1_555 1_555
H22 C30 1_555 1_555
Cu2_2 O14 1_555 1_555
V2A O3 1_555 1_555
V4A O8 1_555 1_555
V6A O16 1_555 1_555
O3A V2 1_555 1_555
O8A V4 1_555 1_555
O14_2 Cu2 1_555 1_555
O16A V6 1_555 1_555
V2 O17 1_555 1_555
V5 O13 1_555 1_555
C5 C6 1_555 1_555
C9 C10 1_555 1_555
C10 C11 1_555 1_555
C14 C15 1_555 1_555
C20 C21 1_555 1_555
C24 C25 1_555 1_555
C25 C26 1_555 1_555
C29 C30 1_555 1_555

#END
