
#######################################################################
#
#                 Cambridge Crystallographic Data Centre
#                                CCDC 
#
#######################################################################
#
# If this CIF has been generated from an entry in the Cambridge 
# Structural Database, then it will include bibliographic, chemical, 
# crystal, experimental, refinement or atomic coordinate data resulting 
# from the CCDC's data processing and validation procedures.
#
#######################################################################

data_PATHOI
_symmetry_cell_setting           triclinic
_symmetry_space_group_name_H-M   'P -1'
_symmetry_Int_Tables_number      2
_space_group_name_Hall           '-P 1'
loop_
_symmetry_equiv_pos_site_id
_symmetry_equiv_pos_as_xyz
1 x,y,z
2 -x,-y,-z
_cell_length_a                   7.0399(17)
_cell_length_b                   11.346(2)
_cell_length_c                   11.441(6)
_cell_angle_alpha                70.63(2)
_cell_angle_beta                 88.92(3)
_cell_angle_gamma                86.345(13)
_cell_volume                     860.363
loop_
_atom_site_label
_atom_site_type_symbol
_atom_site_fract_x
_atom_site_fract_y
_atom_site_fract_z
Cu1 Cu 0.82842(12) 0.92255(8) 0.37175(7)
Cu2 Cu 0.35446(12) 0.83436(8) 0.53871(7)
Cl1 Cl 0.4763(2) 0.84571(14) 0.35365(13)
Cl2 Cl 1.0048(2) 0.75029(13) 0.48030(13)
N1 N 0.7103(6) 1.1870(4) 0.2908(4)
N2 N 0.7570(6) 1.0917(4) 0.2538(4)
C1 C 0.7271(8) 1.0984(5) 0.1373(5)
N3 N 0.5976(7) 1.1866(5) 0.0678(4)
N4 N 0.5463(7) 1.2817(5) 0.1008(4)
C2 C 0.6723(8) 1.3029(6) 0.1926(5)
C3 C 0.7844(8) 0.9864(5) 0.1073(5)
N5 N 0.8651(7) 0.8938(5) 0.2042(4)
C4 C 0.9272(9) 0.7857(6) 0.1862(6)
H1 H 0.9824 0.7200 0.2527
C5 C 0.9114(10) 0.7698(6) 0.0729(6)
H2 H 0.9590 0.6950 0.0616
C6 C 0.8251(9) 0.8644(6) -0.0244(6)
H3 H 0.8108 0.8537 -0.1017
C7 C 0.7607(8) 0.9738(6) -0.0071(5)
H4 H 0.7014 1.0392 -0.0721
C8 C 0.5703(8) 1.3918(5) 0.2498(5)
N6 N 0.5244(7) 1.3433(4) 0.3694(4)
C9 C 0.4124(9) 1.4135(6) 0.4201(6)
H5 H 0.3750 1.3789 0.5032
C10 C 0.3500(9) 1.5355(6) 0.3534(6)
H6 H 0.2708 1.5830 0.3904
C11 C 0.4063(10) 1.5855(6) 0.2325(6)
H7 H 0.3703 1.6691 0.1867
C12 C 0.5152(9) 1.5131(6) 0.1789(6)
H8 H 0.5516 1.5453 0.0953
O1 O 0.7538(5) 0.9944(3) 0.4995(3)
C13 C 0.7826(9) 0.9207(6) 0.6267(5)
H9 H 0.7388 0.9692 0.6787
H10 H 0.7115 0.8461 0.6461
H11 H 0.9170 0.8968 0.6416
O2 O 0.8337(6) 1.3514(4) 0.1215(4)
C14 C 0.9784(10) 1.3934(6) 0.1832(6)
H12 H 1.0821 1.4236 0.1262
H13 H 1.0261 1.3242 0.2541
H14 H 0.9246 1.4604 0.2108
Cu2_2 Cu 1.35446(12) 0.83436(8) 0.53871(7)
Cu2A Cu 0.64554(12) 1.16564(8) 0.46129(7)
Cl2_2 Cl 0.0048(2) 0.75029(13) 0.48030(13)
N1A N 0.2897(6) 0.8130(4) 0.7092(4)
N6A N 0.4756(7) 0.6567(4) 0.6306(4)
O1A O 0.2462(5) 1.0056(3) 0.5005(3)
loop_
_geom_bond_atom_site_label_1
_geom_bond_atom_site_label_2
_geom_bond_site_symmetry_1
_geom_bond_site_symmetry_2
Cu1 Cl1 1_555 1_555
Cu2 Cl1 1_555 1_555
Cl2 Cu1 1_555 1_555
N1 N2 1_555 1_555
N2 Cu1 1_555 1_555
C1 N2 1_555 1_555
N3 C1 1_555 1_555
N4 N3 1_555 1_555
C2 N1 1_555 1_555
C3 C1 1_555 1_555
N5 Cu1 1_555 1_555
C4 N5 1_555 1_555
H1 C4 1_555 1_555
C5 C4 1_555 1_555
H2 C5 1_555 1_555
C6 C5 1_555 1_555
H3 C6 1_555 1_555
C7 C3 1_555 1_555
H4 C7 1_555 1_555
C8 C2 1_555 1_555
N6 C8 1_555 1_555
C9 N6 1_555 1_555
H5 C9 1_555 1_555
C10 C9 1_555 1_555
H6 C10 1_555 1_555
C11 C10 1_555 1_555
H7 C11 1_555 1_555
C12 C8 1_555 1_555
H8 C12 1_555 1_555
O1 Cu1 1_555 1_555
C13 O1 1_555 1_555
H9 C13 1_555 1_555
H10 C13 1_555 1_555
H11 C13 1_555 1_555
O2 C2 1_555 1_555
C14 O2 1_555 1_555
H12 C14 1_555 1_555
H13 C14 1_555 1_555
H14 C14 1_555 1_555
Cu2_2 Cl2 1_555 1_555
Cu2A N1 1_555 1_555
Cl2_2 Cu2 1_555 1_555
N1A Cu2 1_555 1_555
N6A Cu2 1_555 1_555
O1A Cu2 1_555 1_555
N4 C2 1_555 1_555
C3 N5 1_555 1_555
C6 C7 1_555 1_555
N6 Cu2A 1_555 1_555
C11 C12 1_555 1_555
O1 Cu2A 1_555 1_555

#END
