
#######################################################################
#
#                 Cambridge Crystallographic Data Centre
#                                CCDC 
#
#######################################################################
#
# If this CIF has been generated from an entry in the Cambridge 
# Structural Database, then it will include bibliographic, chemical, 
# crystal, experimental, refinement or atomic coordinate data resulting 
# from the CCDC's data processing and validation procedures.
#
#######################################################################

data_PATKOM
_symmetry_cell_setting           monoclinic
_symmetry_space_group_name_H-M   'P 21/n'
_symmetry_Int_Tables_number      14
_space_group_name_Hall           '-P 2yn'
loop_
_symmetry_equiv_pos_site_id
_symmetry_equiv_pos_as_xyz
1 x,y,z
2 1/2-x,1/2+y,1/2-z
3 -x,-y,-z
4 1/2+x,1/2-y,1/2+z
_cell_length_a                   6.8893(7)
_cell_length_b                   13.4831(14)
_cell_length_c                   14.5221(17)
_cell_angle_alpha                90
_cell_angle_beta                 103.568(1)
_cell_angle_gamma                90
_cell_volume                     1311.3
loop_
_atom_site_label
_atom_site_type_symbol
_atom_site_fract_x
_atom_site_fract_y
_atom_site_fract_z
Pb1 Pb 0.11436(4) 0.907429(18) 0.64540(2)
O1 O 0.1457(8) 0.9609(4) 0.8229(3)
O2 O 0.1519(8) 0.9137(3) 0.9707(4)
O3 O -0.0709(9) 0.6172(4) 1.0145(4)
O4 O 0.0667(9) 0.7652(4) 1.0539(4)
H1 H 0.0954 0.8146 1.0269
O5 O -0.0951(7) 0.9080(3) 0.4657(4)
O6 O -0.1071(8) 0.8439(4) 0.3241(3)
H2 H -0.0842 0.7905 0.3017
O7 O -0.0386(8) 0.6830(4) 0.2574(3)
O8 O 0.1238(8) 0.5423(4) 0.3086(4)
O9 O -0.2364(7) 0.9639(4) 0.6431(3)
H3 H -0.330(7) 0.943(6) 0.600(3)
H4 H -0.254(9) 0.961(6) 0.6985(17)
N1 N -0.0195(8) 0.7850(4) 0.7500(4)
N2 N -0.1070(9) 0.6558(4) 0.8223(4)
H5 H -0.1529 0.5981 0.8311
N3 N 0.0830(8) 0.7400(4) 0.5581(4)
N4 N 0.1625(9) 0.6002(4) 0.4983(4)
H6 H 0.2079 0.5411 0.4953
C1 C 0.1100(10) 0.8989(5) 0.8814(6)
C2 C 0.0247(10) 0.8030(5) 0.8448(5)
C3 C -0.0307(10) 0.7222(5) 0.8910(5)
C4 C -0.0138(10) 0.6985(6) 0.9908(5)
C5 C -0.0994(11) 0.6941(5) 0.7387(5)
H7 H -0.1434 0.6622 0.6808
C6 C -0.0624(9) 0.8382(5) 0.4153(5)
C7 C 0.0260(10) 0.7441(5) 0.4599(5)
C8 C 0.0760(9) 0.6596(5) 0.4235(5)
C9 C 0.0556(10) 0.6228(6) 0.3234(5)
C10 C 0.1627(11) 0.6523(5) 0.5777(5)
H8 H 0.2132 0.6286 0.6388
Pb1C Pb -0.38564(4) 0.592571(18) 0.14540(2)
O7C O 0.4614(8) 0.8170(4) 0.7574(3)
loop_
_geom_bond_atom_site_label_1
_geom_bond_atom_site_label_2
_geom_bond_site_symmetry_1
_geom_bond_site_symmetry_2
Pb1 O1 1_555 1_555
O1 C1 1_555 1_555
O2 C1 1_555 1_555
O3 C4 1_555 1_555
O4 H1 1_555 1_555
O5 Pb1 1_555 1_555
O6 H2 1_555 1_555
O7 C9 1_555 1_555
O8 C9 1_555 1_555
O9 Pb1 1_555 1_555
H3 O9 1_555 1_555
H4 O9 1_555 1_555
N1 Pb1 1_555 1_555
N2 H5 1_555 1_555
N3 Pb1 1_555 1_555
N4 H6 1_555 1_555
C1 C2 1_555 1_555
C2 N1 1_555 1_555
C3 N2 1_555 1_555
C4 O4 1_555 1_555
C5 N1 1_555 1_555
H7 C5 1_555 1_555
C6 O5 1_555 1_555
C7 N3 1_555 1_555
C8 N4 1_555 1_555
C9 C8 1_555 1_555
C10 N3 1_555 1_555
H8 C10 1_555 1_555
Pb1C O7 1_555 1_555
O7C Pb1 1_555 1_555
O6 C6 1_555 1_555
N2 C5 1_555 1_555
N4 C10 1_555 1_555
C2 C3 1_555 1_555
C3 C4 1_555 1_555
C6 C7 1_555 1_555
C7 C8 1_555 1_555

#END
