
#######################################################################
#
#                 Cambridge Crystallographic Data Centre
#                                CCDC 
#
#######################################################################
#
# If this CIF has been generated from an entry in the Cambridge 
# Structural Database, then it will include bibliographic, chemical, 
# crystal, experimental, refinement or atomic coordinate data resulting 
# from the CCDC's data processing and validation procedures.
#
#######################################################################

data_PATKUR
_symmetry_cell_setting           monoclinic
_symmetry_space_group_name_H-M   'C 2/c'
_symmetry_Int_Tables_number      15
_space_group_name_Hall           '-C 2yn'
loop_
_symmetry_equiv_pos_site_id
_symmetry_equiv_pos_as_xyz
1 x,y,z
2 1/2+x,1/2+y,z
3 -x,y,1/2-z
4 1/2-x,1/2+y,1/2-z
5 -x,-y,-z
6 1/2-x,1/2-y,-z
7 x,-y,1/2+z
8 1/2+x,1/2-y,1/2+z
_cell_length_a                   15.685(6)
_cell_length_b                   10.972(5)
_cell_length_c                   8.236(7)
_cell_angle_alpha                90
_cell_angle_beta                 108.93(4)
_cell_angle_gamma                90
_cell_volume                     1340.72
loop_
_atom_site_label
_atom_site_type_symbol
_atom_site_fract_x
_atom_site_fract_y
_atom_site_fract_z
Co1 Co 0.5000 0.05967(12) 0.2500
O1 O 0.5568(3) 0.1688(4) 0.1286(6)
O2 O 0.5963(3) 0.0332(5) -0.0922(7)
P1 P 0.61710(9) 0.14382(14) 0.0214(2)
H1 H 0.610(3) 0.238(5) -0.097(7)
C1 C 0.7315(4) 0.1340(5) 0.1562(8)
C2 C 0.7664(4) 0.2187(6) 0.2860(9)
H2 H 0.7289 0.2825 0.3020
C3 C 0.8550(4) 0.2116(6) 0.3926(9)
H3 H 0.8786 0.2712 0.4793
C4 C 0.9084(4) 0.1180(7) 0.3719(9)
H4 H 0.9687 0.1116 0.4472
C5 C 0.8757(4) 0.0325(6) 0.2429(10)
H5 H 0.9135 -0.0315 0.2285
C6 C 0.7877(4) 0.0412(6) 0.1352(9)
H6 H 0.7652 -0.0167 0.0457
Co1F Co 0.5000 -0.05967(12) -0.2500
Co1F_2 Co 0.5000 -0.05967(12) 0.7500
O1B O 0.4432(3) 0.1688(4) 0.3714(6)
O2B O 0.4037(3) 0.0332(5) 0.5922(7)
O2F O 0.5963(3) -0.0332(5) 0.4078(7)
O2D O 0.4037(3) -0.0332(5) 0.0922(7)
P1B P 0.38290(9) 0.14382(14) 0.4786(2)
H1B H 0.390(3) 0.238(5) 0.597(7)
C1B C 0.2685(4) 0.1340(5) 0.3438(8)
C2B C 0.2336(4) 0.2187(6) 0.2140(9)
H2B H 0.2711 0.2825 0.1980
C3B C 0.1450(4) 0.2116(6) 0.1074(9)
H3B H 0.1214 0.2712 0.0207
C4B C 0.0916(4) 0.1180(7) 0.1281(9)
H4B H 0.0313 0.1116 0.0528
C5B C 0.1243(4) 0.0325(6) 0.2571(10)
H5B H 0.0865 -0.0315 0.2715
C6B C 0.2123(4) 0.0412(6) 0.3648(9)
H6B H 0.2348 -0.0167 0.4543
loop_
_geom_bond_atom_site_label_1
_geom_bond_atom_site_label_2
_geom_bond_site_symmetry_1
_geom_bond_site_symmetry_2
Co1 O1 1_555 1_555
O1 P1 1_555 1_555
O2 P1 1_555 1_555
P1 H1 1_555 1_555
C1 P1 1_555 1_555
C2 C1 1_555 1_555
H2 C2 1_555 1_555
C3 C2 1_555 1_555
H3 C3 1_555 1_555
C4 C3 1_555 1_555
H4 C4 1_555 1_555
C5 C4 1_555 1_555
H5 C5 1_555 1_555
C6 C1 1_555 1_555
H6 C6 1_555 1_555
Co1F O2 1_555 1_555
Co1F_2 O2B 1_555 1_555
O1B Co1 1_555 1_555
O2B P1B 1_555 1_555
O2F Co1 1_555 1_555
O2D Co1 1_555 1_555
P1B O1B 1_555 1_555
H1B P1B 1_555 1_555
C1B P1B 1_555 1_555
C2B C1B 1_555 1_555
H2B C2B 1_555 1_555
C3B C2B 1_555 1_555
H3B C3B 1_555 1_555
C4B C3B 1_555 1_555
H4B C4B 1_555 1_555
C5B C4B 1_555 1_555
H5B C5B 1_555 1_555
C6B C1B 1_555 1_555
H6B C6B 1_555 1_555
C5 C6 1_555 1_555
C5B C6B 1_555 1_555

#END
