
#######################################################################
#
#                 Cambridge Crystallographic Data Centre
#                                CCDC 
#
#######################################################################
#
# If this CIF has been generated from an entry in the Cambridge 
# Structural Database, then it will include bibliographic, chemical, 
# crystal, experimental, refinement or atomic coordinate data resulting 
# from the CCDC's data processing and validation procedures.
#
#######################################################################

data_PATLUT
_symmetry_cell_setting           monoclinic
_symmetry_space_group_name_H-M   'C 2/m'
_symmetry_Int_Tables_number      12
_space_group_name_Hall           '-C 2y'
loop_
_symmetry_equiv_pos_site_id
_symmetry_equiv_pos_as_xyz
1 x,y,z
2 -x,y,-z
3 1/2+x,1/2+y,z
4 1/2-x,1/2+y,-z
5 -x,-y,-z
6 x,-y,z
7 1/2-x,1/2-y,-z
8 1/2+x,1/2-y,z
_cell_length_a                   10.2970(3)
_cell_length_b                   23.2660(6)
_cell_length_c                   12.7760(3)
_cell_angle_alpha                90
_cell_angle_beta                 94.729(2)
_cell_angle_gamma                90
_cell_volume                     3050.33
loop_
_atom_site_label
_atom_site_type_symbol
_atom_site_fract_x
_atom_site_fract_y
_atom_site_fract_z
Mo1 Mo 1.29868(14) 0.0000 -0.34755(12)
Mo2 Mo 1.02965(11) -0.07660(5) -0.25817(9)
Mo3 Mo 0.72983(10) -0.07683(4) -0.41501(8)
Mo4 Mo 1.0000 -0.15255(6) -0.5000
Ag1 Ag 1.6865(2) 0.0000 -0.17638(13)
Ag2 Ag 1.3642(2) 0.0000 -0.09122(12)
Ag3 Ag 1.7500 -0.2500 0.0000
P1 P 1.0000 0.0000 -0.5000
O1 O 1.4351(12) 0.0000 -0.2687(10)
O2 O 1.0645(19) 0.0000 -0.3860(16)
O3 O 0.9559(13) -0.0534(6) -0.4434(10)
O4 O 0.6054(11) -0.1126(5) -0.3761(9)
O5 O 0.8480(11) -0.0789(6) -0.2942(9)
O6 O 1.0471(10) -0.1357(7) -0.3559(10)
O7 O 0.8273(10) -0.1355(6) -0.4734(9)
O8 O 0.695(2) 0.0000 -0.3771(12)
O9 O 1.148(2) 0.0000 -0.5037(15)
O10 O 1.0426(10) -0.1125(5) -0.1455(8)
O11 O 1.0000 -0.2240(5) -0.5000
O12 O 1.3268(14) -0.0562(4) -0.4446(7)
O13 O 1.2022(11) -0.0552(4) -0.2744(13)
O14 O 1.0017(17) 0.0000 -0.211(2)
O15 O 1.5000 -0.2927(6) 0.0000
N1 N 1.6912(11) -0.1348(4) -0.1140(8)
N2 N 1.6886(11) -0.1702(4) -0.0353(8)
N3 N 1.6487(11) -0.0862(4) 0.0240(8)
N4 N 1.6659(11) -0.0839(4) -0.0799(8)
N5 N 1.7237(11) -0.2236(4) 0.1465(7)
C1 C 1.6165(12) -0.1511(5) 0.2410(10)
H1 H 1.5734 -0.1160 0.2417
C2 C 1.6657(11) -0.1709(5) 0.1507(8)
C3 C 1.6646(11) -0.1404(5) 0.0512(9)
C4 C 1.6326(11) -0.1846(5) 0.3310(9)
H2 H 1.6009 -0.1723 0.3933
C5 C 1.7405(15) -0.2542(5) 0.2350(10)
H3 H 1.7844 -0.2891 0.2341
C6 C 1.6954(13) -0.2359(5) 0.3265(10)
H4 H 1.7077 -0.2586 0.3864
Mo1A Mo 0.70132(14) 0.0000 -0.65245(12)
Mo2A Mo 0.97035(11) -0.07660(5) -0.74183(9)
Mo2D Mo 0.97035(11) 0.07660(5) -0.74183(9)
Mo2E Mo 1.02965(11) 0.07660(5) -0.25817(9)
Mo3A Mo 1.27017(10) -0.07683(4) -0.58499(8)
Mo3D Mo 1.27017(10) 0.07683(4) -0.58499(8)
Mo3E Mo 0.72983(10) 0.07683(4) -0.41501(8)
Mo4D Mo 1.0000 0.15255(6) -0.5000
Ag1A Ag 0.3135(2) 0.0000 -0.82362(13)
Ag1_2 Ag 0.6865(2) 0.0000 -0.17638(13)
Ag1A_2 Ag 1.3135(2) 0.0000 -0.82362(13)
Ag1A_3 Ag 1.3135(2) 0.0000 0.17638(13)
Ag2A Ag 0.6358(2) 0.0000 -0.90878(12)
Ag2A_2 Ag 1.6358(2) 0.0000 0.09122(12)
Ag2_2 Ag 0.3642(2) 0.0000 -1.09122(12)
Ag3C Ag 1.7500 0.2500 0.0000
Ag3A Ag 1.2500 -0.2500 0.0000
Ag3B Ag 1.2500 0.2500 0.0000
Ag3A_2 Ag 2.2500 -0.2500 0.0000
O1A O 0.5649(12) 0.0000 -0.7313(10)
O2A O 0.9355(19) 0.0000 -0.6140(16)
O3A O 1.0441(13) -0.0534(6) -0.5566(10)
O3D O 1.0441(13) 0.0534(6) -0.5566(10)
O3E O 0.9559(13) 0.0534(6) -0.4434(10)
O4A O 1.3946(11) -0.1126(5) -0.6239(9)
O4D O 1.3946(11) 0.1126(5) -0.6239(9)
O4E O 0.6054(11) 0.1126(5) -0.3761(9)
O5A O 1.1520(11) -0.0789(6) -0.7058(9)
O5D O 1.1520(11) 0.0789(6) -0.7058(9)
O5E O 0.8480(11) 0.0789(6) -0.2942(9)
O6E O 1.0471(10) 0.1357(7) -0.3559(10)
O6D O 0.9529(10) 0.1357(7) -0.6441(10)
O6A O 0.9529(10) -0.1357(7) -0.6441(10)
O7E O 0.8273(10) 0.1355(6) -0.4734(9)
O7D O 1.1727(10) 0.1355(6) -0.5266(9)
O7A O 1.1727(10) -0.1355(6) -0.5266(9)
O8A O 1.305(2) 0.0000 -0.6229(12)
O8_2 O 1.695(2) 0.0000 -0.3771(12)
O8A_2 O 0.305(2) 0.0000 -0.6229(12)
O9A O 0.852(2) 0.0000 -0.4963(15)
O10D O 0.9574(10) 0.1125(5) -0.8545(8)
O10E O 1.0426(10) 0.1125(5) -0.1455(8)
O10A O 0.9574(10) -0.1125(5) -0.8545(8)
O11D O 1.0000 0.2240(5) -0.5000
O12A O 0.6732(14) -0.0562(4) -0.5554(7)
O12E O 1.3268(14) 0.0562(4) -0.4446(7)
O12D O 0.6732(14) 0.0562(4) -0.5554(7)
O13A O 0.7978(11) -0.0552(4) -0.7256(13)
O13D O 0.7978(11) 0.0552(4) -0.7256(13)
O13E O 1.2022(11) 0.0552(4) -0.2744(13)
O14A O 0.9983(17) 0.0000 -0.789(2)
O15F O 2.0000 -0.2073(6) 0.0000
O15D O 1.5000 0.2927(6) 0.0000
O15B O 2.0000 0.2073(6) 0.0000
N1E N 1.6912(11) 0.1348(4) -0.1140(8)
N1A N 1.3088(11) -0.1348(4) 0.1140(8)
N1D N 1.3088(11) 0.1348(4) 0.1140(8)
N2E N 1.6886(11) 0.1702(4) -0.0353(8)
N2A N 1.3114(11) -0.1702(4) 0.0353(8)
N2D N 1.3114(11) 0.1702(4) 0.0353(8)
N2F N 1.8114(11) -0.3298(4) 0.0353(8)
N2C N 1.8114(11) 0.3298(4) 0.0353(8)
N3E N 1.6487(11) 0.0862(4) 0.0240(8)
N3A N 1.3513(11) -0.0862(4) -0.0240(8)
N3D N 1.3513(11) 0.0862(4) -0.0240(8)
N3_2 N 0.6487(11) -0.0862(4) -0.9760(8)
N3E_2 N 0.6487(11) 0.0862(4) -0.9760(8)
N4E N 1.6659(11) 0.0839(4) -0.0799(8)
N4A N 1.3341(11) -0.0839(4) 0.0799(8)
N4D N 1.3341(11) 0.0839(4) 0.0799(8)
N4A_2 N 0.3341(11) -0.0839(4) -0.9201(8)
N4D_2 N 0.3341(11) 0.0839(4) -0.9201(8)
N5E N 1.7237(11) 0.2236(4) 0.1465(7)
N5A N 1.2763(11) -0.2236(4) -0.1465(7)
N5D N 1.2763(11) 0.2236(4) -0.1465(7)
N5F N 1.7763(11) -0.2764(4) -0.1465(7)
N5C N 1.7763(11) 0.2764(4) -0.1465(7)
C1E C 1.6165(12) 0.1511(5) 0.2410(10)
C1A C 1.3835(12) -0.1511(5) -0.2410(10)
C1D C 1.3835(12) 0.1511(5) -0.2410(10)
H1E H 1.5734 0.1160 0.2417
H1A H 1.4266 -0.1160 -0.2417
H1D H 1.4266 0.1160 -0.2417
C2E C 1.6657(11) 0.1709(5) 0.1507(8)
C2A C 1.3343(11) -0.1709(5) -0.1507(8)
C2D C 1.3343(11) 0.1709(5) -0.1507(8)
C3E C 1.6646(11) 0.1404(5) 0.0512(9)
C3A C 1.3354(11) -0.1404(5) -0.0512(9)
C3D C 1.3354(11) 0.1404(5) -0.0512(9)
C4E C 1.6326(11) 0.1846(5) 0.3310(9)
C4A C 1.3674(11) -0.1846(5) -0.3310(9)
C4D C 1.3674(11) 0.1846(5) -0.3310(9)
H2E H 1.6009 0.1723 0.3933
H2A H 1.3991 -0.1723 -0.3933
H2D H 1.3991 0.1723 -0.3933
C5E C 1.7405(15) 0.2542(5) 0.2350(10)
C5A C 1.2595(15) -0.2542(5) -0.2350(10)
C5D C 1.2595(15) 0.2542(5) -0.2350(10)
H3E H 1.7844 0.2891 0.2341
H3A H 1.2156 -0.2891 -0.2341
H3D H 1.2156 0.2891 -0.2341
C6E C 1.6954(13) 0.2359(5) 0.3265(10)
C6A C 1.3046(13) -0.2359(5) -0.3265(10)
C6D C 1.3046(13) 0.2359(5) -0.3265(10)
H4E H 1.7077 0.2586 0.3864
H4A H 1.2923 -0.2586 -0.3864
H4D H 1.2923 0.2586 -0.3864
loop_
_geom_bond_atom_site_label_1
_geom_bond_atom_site_label_2
_geom_bond_site_symmetry_1
_geom_bond_site_symmetry_2
Mo1 O1 1_555 1_555
Mo2 O2 1_555 1_555
Mo3 O3 1_555 1_555
Mo4 O3 1_555 1_555
Ag1 O1 1_555 1_555
Ag2 O1 1_555 1_555
Ag3 O15 1_555 1_555
P1 O2 1_555 1_555
O2 Mo1 1_555 1_555
O3 Mo2 1_555 1_555
O4 Mo3 1_555 1_555
O5 Mo2 1_555 1_555
O6 Mo2 1_555 1_555
O7 Mo3 1_555 1_555
O8 Mo3 1_555 1_555
O9 Mo1 1_555 1_555
O10 Mo2 1_555 1_555
O11 Mo4 1_555 1_555
O12 Mo1 1_555 1_555
O13 Mo1 1_555 1_555
O14 Mo2 1_555 1_555
O15 Ag3A 1_555 1_555
N1 N2 1_555 1_555
N2 Ag3 1_555 1_555
N3 N4 1_555 1_555
N4 Ag1 1_555 1_555
N5 Ag3 1_555 1_555
C1 H1 1_555 1_555
C2 N5 1_555 1_555
C3 N2 1_555 1_555
C4 C1 1_555 1_555
H2 C4 1_555 1_555
C5 N5 1_555 1_555
H3 C5 1_555 1_555
C6 C4 1_555 1_555
H4 C6 1_555 1_555
Mo1A O1A 1_555 1_555
Mo2A O2A 1_555 1_555
Mo2D O2A 1_555 1_555
Mo2E O2 1_555 1_555
Mo3A O9 1_555 1_555
Mo3D O9 1_555 1_555
Mo3E O8 1_555 1_555
Mo4D O3D 1_555 1_555
Ag1A O1A 1_555 1_555
Ag1_2 O8 1_555 1_555
Ag1A_2 O8A 1_555 1_555
Ag1A_3 N4A 1_555 1_555
Ag2A Ag2_2 1_555 1_555
Ag2A_2 Ag2 1_555 1_555
Ag3C O15D 1_555 1_555
Ag3A N2A 1_555 1_555
Ag3B O15D 1_555 1_555
Ag3A_2 O15F 1_555 1_555
O1A Ag2A 1_555 1_555
O2A P1 1_555 1_555
O3A Mo4 1_555 1_555
O3D P1 1_555 1_555
O3E P1 1_555 1_555
O4A Mo3A 1_555 1_555
O4D Mo3D 1_555 1_555
O4E Mo3E 1_555 1_555
O5A Mo2A 1_555 1_555
O5D Mo2D 1_555 1_555
O5E Mo2E 1_555 1_555
O6E Mo2E 1_555 1_555
O6D Mo2D 1_555 1_555
O6A Mo4 1_555 1_555
O7E Mo3E 1_555 1_555
O7D Mo3D 1_555 1_555
O7A Mo4 1_555 1_555
O8A Mo3A 1_555 1_555
O8_2 Ag1 1_555 1_555
O8A_2 Ag1A 1_555 1_555
O9A Mo3 1_555 1_555
O10D Mo2D 1_555 1_555
O10E Mo2E 1_555 1_555
O10A Mo2A 1_555 1_555
O11D Mo4D 1_555 1_555
O12A Mo3 1_555 1_555
O12E Mo1 1_555 1_555
O12D Mo1A 1_555 1_555
O13A Mo1A 1_555 1_555
O13D Mo1A 1_555 1_555
O13E Mo1 1_555 1_555
O14A Mo2A 1_555 1_555
O15F Ag3 1_555 1_555
O15B Ag3C 1_555 1_555
N1E N2E 1_555 1_555
N1A N2A 1_555 1_555
N1D N2D 1_555 1_555
N2E Ag3C 1_555 1_555
N2A C3A 1_555 1_555
N2D Ag3B 1_555 1_555
N2F Ag3 1_555 1_555
N2C Ag3C 1_555 1_555
N3E Ag2A_2 1_555 1_555
N3A Ag2 1_555 1_555
N3D Ag2 1_555 1_555
N3_2 Ag2A 1_555 1_555
N3E_2 Ag2A 1_555 1_555
N4E Ag1 1_555 1_555
N4A N1A 1_555 1_555
N4D Ag1A_3 1_555 1_555
N4A_2 Ag1A 1_555 1_555
N4D_2 Ag1A 1_555 1_555
N5E Ag3C 1_555 1_555
N5A Ag3A 1_555 1_555
N5D Ag3B 1_555 1_555
N5F Ag3 1_555 1_555
N5C Ag3C 1_555 1_555
C1E H1E 1_555 1_555
C1A H1A 1_555 1_555
C1D H1D 1_555 1_555
C2E N5E 1_555 1_555
C2A N5A 1_555 1_555
C2D N5D 1_555 1_555
C3E N2E 1_555 1_555
C3A N3A 1_555 1_555
C3D N2D 1_555 1_555
C4E C1E 1_555 1_555
C4A C1A 1_555 1_555
C4D C1D 1_555 1_555
H2E C4E 1_555 1_555
H2A C4A 1_555 1_555
H2D C4D 1_555 1_555
C5E N5E 1_555 1_555
C5A N5A 1_555 1_555
C5D N5D 1_555 1_555
H3E C5E 1_555 1_555
H3A C5A 1_555 1_555
H3D C5D 1_555 1_555
C6E C4E 1_555 1_555
C6A C4A 1_555 1_555
C6D C4D 1_555 1_555
H4E C6E 1_555 1_555
H4A C6A 1_555 1_555
H4D C6D 1_555 1_555
Mo2 O13 1_555 1_555
Mo3 O5 1_555 1_555
Mo4 O6 1_555 1_555
Mo4 O7 1_555 1_555
P1 O3 1_555 1_555
P1 O9 1_555 1_555
P1 O3A 1_555 1_555
P1 O9A 1_555 1_555
O12 Mo3A 1_555 1_555
O14 Mo2E 1_555 1_555
N1 N4 1_555 1_555
N3 C3 1_555 1_555
N3 Ag2A_2 1_555 1_555
C1 C2 1_555 1_555
C2 C3 1_555 1_555
C5 C6 1_555 1_555
Mo1A O2A 1_555 1_555
Mo1A O9A 1_555 1_555
Mo1A O12A 1_555 1_555
Mo2A O3A 1_555 1_555
Mo2A O6A 1_555 1_555
Mo2A O13A 1_555 1_555
Mo2D O3D 1_555 1_555
Mo2D O13D 1_555 1_555
Mo2D O14A 1_555 1_555
Mo2E O3E 1_555 1_555
Mo2E O13E 1_555 1_555
Mo3A O3A 1_555 1_555
Mo3A O5A 1_555 1_555
Mo3A O7A 1_555 1_555
Mo3D O3D 1_555 1_555
Mo3D O5D 1_555 1_555
Mo3D O8A 1_555 1_555
Mo3D O12E 1_555 1_555
Mo3E O3E 1_555 1_555
Mo3E O5E 1_555 1_555
Mo3E O9A 1_555 1_555
Mo3E O12D 1_555 1_555
Mo4D O3E 1_555 1_555
Mo4D O6E 1_555 1_555
Mo4D O6D 1_555 1_555
Mo4D O7E 1_555 1_555
Mo4D O7D 1_555 1_555
N1E N4E 1_555 1_555
N1D N4D 1_555 1_555
N3E N4E 1_555 1_555
N3E C3E 1_555 1_555
N3A N4A 1_555 1_555
N3D N4D 1_555 1_555
N3D C3D 1_555 1_555
C1E C2E 1_555 1_555
C1A C2A 1_555 1_555
C1D C2D 1_555 1_555
C2E C3E 1_555 1_555
C2A C3A 1_555 1_555
C2D C3D 1_555 1_555
C5E C6E 1_555 1_555
C5A C6A 1_555 1_555
C5D C6D 1_555 1_555

#END
