
#######################################################################
#
#                 Cambridge Crystallographic Data Centre
#                                CCDC 
#
#######################################################################
#
# If this CIF has been generated from an entry in the Cambridge 
# Structural Database, then it will include bibliographic, chemical, 
# crystal, experimental, refinement or atomic coordinate data resulting 
# from the CCDC's data processing and validation procedures.
#
#######################################################################

data_PATMAA
_symmetry_cell_setting           triclinic
_symmetry_space_group_name_H-M   'P -1'
_symmetry_Int_Tables_number      2
_space_group_name_Hall           '-P 1'
loop_
_symmetry_equiv_pos_site_id
_symmetry_equiv_pos_as_xyz
1 x,y,z
2 -x,-y,-z
_cell_length_a                   16.0720(6)
_cell_length_b                   16.3440(5)
_cell_length_c                   18.1110(4)
_cell_angle_alpha                72.641(2)
_cell_angle_beta                 86.882(2)
_cell_angle_gamma                60.58
_cell_volume                     3930.79
loop_
_atom_site_label
_atom_site_type_symbol
_atom_site_fract_x
_atom_site_fract_y
_atom_site_fract_z
O6 O -0.821(2) 0.544(2) -0.7138(15)
O8 O 0.650(2) 0.5510(18) -0.2042(15)
Mo1 Mo 1.11947(12) -0.26018(9) -0.95829(8)
Mo2 Mo 1.12198(12) -0.15910(11) -0.81095(7)
Mo3 Mo 0.74614(9) 0.13906(10) -1.02671(8)
Mo4 Mo 1.01225(10) 0.10216(9) -0.85701(7)
Mo5 Mo 0.86768(9) -0.00785(9) -0.83794(7)
Mo6 Mo 0.86462(8) -0.12246(8) -0.97519(6)
Mo7 Mo 0.73978(13) -0.12125(13) -0.54458(11)
Mo8 Mo 0.43280(13) 0.16269(10) -0.69306(7)
Mo9 Mo 0.37809(13) 0.25837(10) -0.53386(8)
Mo10 Mo 0.31305(11) 0.02787(11) -0.61635(7)
Mo11 Mo 0.55283(17) -0.09572(13) -0.65840(8)
Mo12 Mo 0.61888(9) 0.13758(9) -0.57470(7)
P1 P 1.0000 0.0000 -1.0000
Ag1 Ag 1.0000 0.5000 -0.5000
Ag2 Ag 0.5000 0.5000 -1.0000
Ag3 Ag 0.40072(12) 0.82669(12) -0.77647(8)
Ag4 Ag 0.74268(11) 0.68538(11) -0.96675(8)
Ag5 Ag 1.09884(10) 0.22059(12) -0.71475(7)
Ag6 Ag 0.61202(8) 0.61524(9) -0.63305(6)
Ag7 Ag 0.89863(7) 0.37723(8) -0.86632(6)
Ag8 Ag 0.74209(13) 0.29474(14) -0.54109(9)
P2 P 0.5000 0.0000 -0.5000
N1 N 0.8784(7) 0.7223(8) -1.1617(5)
N2 N 0.9506(8) 0.6671(8) -1.1033(6)
N3 N 0.7980(8) 0.7387(9) -1.1345(6)
N4 N 0.8156(7) 0.6945(8) -1.0574(5)
N5 N 0.9313(10) 0.6073(9) -0.6007(7)
N6 N 0.8759(9) 0.1819(9) -0.4883(6)
N7 N 0.3306(8) 0.7229(9) -0.5468(6)
N8 N 0.3949(8) 0.5995(8) -0.4056(6)
N9 N 0.3933(8) 0.7529(9) -0.6512(6)
N10 N 0.4657(8) 0.6786(8) -0.5959(6)
N11 N 0.3116(8) 0.7788(10) -0.6207(6)
N12 N 0.6715(8) 0.6837(8) -0.8734(5)
N13 N 0.6066(8) 0.6593(9) -0.7694(6)
N14 N 0.5408(8) 0.7434(8) -0.8226(6)
N15 N 0.6883(8) 0.6215(9) -0.7996(6)
N16 N 0.6121(7) 0.8067(8) -1.0141(6)
N17 N 0.8966(9) 0.4695(10) -0.5129(7)
N18 N 0.8626(10) 0.4064(10) -0.4772(8)
N19 N 0.7826(9) 0.4348(9) -0.5153(6)
N20 N 0.7610(8) 0.5172(8) -0.5779(6)
N21 N 0.8793(8) 0.5998(8) -0.9100(6)
N22 N 0.5866(8) 0.3706(8) -0.9166(6)
N23 N 0.6361(9) 0.5923(9) -1.0154(7)
N24 N 0.8165(8) 0.3079(9) -0.6276(6)
N25 N 0.7983(9) 0.3693(9) -0.7037(6)
N26 N 0.9541(8) 0.2684(9) -0.6714(6)
N27 N 0.8845(9) 0.3455(9) -0.7295(6)
N28 N 0.7211(8) 0.5582(8) -0.9777(6)
N29 N 0.7474(8) 0.4695(8) -0.9234(6)
N30 N 0.6070(8) 0.5236(8) -0.9849(6)
O1 O 0.9917(12) -0.0068(12) -0.9137(8)
O2 O 0.4287(10) 0.5640(9) -0.8911(7)
O3 O 0.2993(10) 0.9909(9) -0.8217(7)
O4 O 1.1222(15) -0.2472(15) -0.8559(8)
O5 O 0.7728(9) 0.0930(7) -0.9164(6)
O7 O 1.0972(8) -0.0307(8) -0.8059(9)
O9 O 0.9887(8) -0.2323(9) -0.9446(6)
O10 O 1.1046(9) 0.1112(9) -0.9187(6)
O11 O 1.2242(12) -0.1614(11) -0.8676(8)
O12 O 1.0819(9) -0.2176(10) -1.0652(7)
O13 O 0.8061(11) -0.0151(9) -0.7634(6)
O14 O 0.8561(9) -0.0970(8) -0.8813(6)
O15 O 1.0129(9) 0.1546(10) -0.7913(7)
O16 O 1.0121(12) 0.0800(12) -0.9873(9)
O17 O 0.7652(7) 0.0166(7) -1.0221(6)
O18 O 0.9096(9) 0.0764(8) -0.8308(10)
O19 O 1.1769(7) -0.3810(7) -0.9366(6)
O20 O 0.7978(9) -0.1762(8) -0.9654(6)
O21 O 0.6284(8) 0.2099(8) -1.0399(7)
O22 O 0.5068(9) 0.2339(9) -0.5462(8)
O23 O 0.6692(14) -0.1066(13) -0.6307(9)
O24 O 0.4990(11) 0.0920(11) -0.5564(8)
O25 O 0.3337(12) 0.1341(10) -0.6790(9)
O26 O 0.4216(13) -0.0554(10) -0.6573(10)
O27 O 0.7577(8) -0.1087(8) -0.4446(6)
O28 O 0.8529(10) -0.1823(9) -0.5609(8)
O29 O 0.5853(14) -0.2095(14) -0.5768(9)
O30 O 0.4531(12) 0.0236(12) -0.5809(9)
O31 O 0.6814(12) 0.1985(10) -0.6048(7)
O32 O 0.5840(13) -0.0902(12) -0.5324(9)
O33 O 0.2264(12) 0.0451(12) -0.6756(9)
O34 O 0.7073(8) 0.0114(7) -0.5845(6)
O35 O 0.3346(8) -0.0816(8) -0.5324(6)
O36 O 0.5765(9) -0.1399(8) -0.7340(6)
O37 O 0.3183(8) 0.3798(8) -0.5510(6)
O38 O 0.4048(10) 0.2387(11) -0.7829(6)
O39 O 0.3706(9) 0.2526(11) -0.6355(9)
O40 O 1.0956(13) -0.1027(12) -0.9535(9)
O41 O 0.5134(11) 0.0417(9) -0.7097(8)
O42 O 0.5469(10) 0.1647(10) -0.6645(9)
O43 O 0.7251(14) -0.2343(13) -0.4861(9)
O44 O 1.1755(9) -0.2321(8) -0.7240(6)
O45 O 0.9937(9) -0.1183(8) -0.7928(10)
O46 O 0.9154(12) -0.0041(12) -0.9716(9)
O47 O 1.2291(12) -0.2460(12) -0.9722(9)
O48 O 0.4136(12) -0.0029(11) -0.5018(9)
C1 C 0.8998(14) 0.1205(13) -0.4181(10)
H1 H 0.8512 0.1264 -0.3861
C2 C 0.9608(11) 0.6617(12) -0.6446(9)
H2 H 1.0195 0.6539 -0.6301
C3 C 0.7260(10) 0.2896(10) -0.8259(7)
H3 H 0.7799 0.2879 -0.8074
C4 C 1.0700(11) 0.5015(10) -0.8492(8)
H4 H 1.1339 0.4683 -0.8283
C5 C 0.9063(14) 0.7347(13) -0.7157(10)
H5 H 0.9282 0.7752 -0.7467
C6 C 0.9465(10) 0.1748(11) -0.5371(7)
C7 C 0.5467(9) 0.8283(9) -0.9609(6)
C8 C 0.7052(11) 0.2136(10) -0.7887(7)
H6 H 0.7442 0.1617 -0.7453
C9 C 1.0400(11) 0.1043(13) -0.5136(9)
H7 H 1.0875 0.1006 -0.5464
C10 C 0.9487(9) 0.5950(9) -0.9579(7)
C11 C 0.6267(11) 0.2185(10) -0.8182(8)
H8 H 0.6132 0.1676 -0.7966
C12 C 0.6666(9) 0.3662(9) -0.8893(7)
C13 C 0.5596(11) 0.5272(11) -0.4281(8)
H9 H 0.6061 0.5225 -0.4621
C14 C 0.4635(9) 0.5914(9) -0.4532(7)
C15 C 0.9083(9) 0.6506(9) -1.0393(7)
C16 C 0.8495(10) 0.6133(10) -0.6243(8)
C17 C 0.8296(9) 0.5389(10) -0.5728(7)
C18 C 0.9099(9) 0.2488(10) -0.6129(7)
C19 C 0.9981(12) 0.5081(12) -0.8026(8)
H10 H 1.0127 0.4806 -0.7488
C20 C 0.4979(13) 0.9464(13) -1.1105(8)
H11 H 0.4824 0.9833 -1.1630
C21 C 1.0629(12) 0.0364(13) -0.4374(9)
H12 H 1.1254 -0.0156 -0.4203
C22 C 0.6789(8) 0.4476(9) -0.9294(6)
C23 C 1.0432(10) 0.5469(9) -0.9298(8)
H13 H 1.0895 0.5441 -0.9636
C24 C 0.8229(12) 0.7440(12) -0.7369(9)
H14 H 0.7860 0.7907 -0.7832
C25 C 0.4318(11) 0.9732(12) -1.0574(8)
H15 H 0.3723 1.0306 -1.0727
C26 C 0.5127(12) 0.4793(12) -0.3025(8)
H16 H 0.5275 0.4413 -0.2503
C27 C 0.9059(11) 0.5547(10) -0.8349(7)
H17 H 0.8591 0.5548 -0.8024
C28 C 0.9907(13) 0.0486(15) -0.3884(9)
H18 H 1.0046 0.0086 -0.3368
C29 C 0.5823(9) 0.7553(9) -0.8845(7)
C30 C 0.5650(11) 0.3009(11) -0.8820(9)
H19 H 0.5088 0.3060 -0.8995
C31 C 0.5843(11) 0.8660(11) -1.0842(8)
H20 H 0.6287 0.8516 -1.1201
C32 C 0.4197(12) 0.5448(11) -0.3320(7)
H21 H 0.3718 0.5514 -0.2992
C33 C 0.7936(12) 0.6853(12) -0.6907(8)
H22 H 0.7343 0.6932 -0.7036
C34 C 0.4253(10) 0.6619(10) -0.5329(7)
C35 C 0.5852(11) 0.4689(11) -0.3496(8)
H23 H 0.6493 0.4246 -0.3299
C36 C 0.4574(10) 0.9111(11) -0.9797(8)
H24 H 0.4150 0.9258 -0.9423
Mo1A Mo 0.88053(12) 0.26018(9) -1.04171(8)
Mo2A Mo 0.87802(12) 0.15910(11) -1.18905(7)
Mo3A Mo 1.25386(9) -0.13906(10) -0.97329(8)
Mo4A Mo 0.98775(10) -0.10216(9) -1.14299(7)
Mo5A Mo 1.13232(9) 0.00785(9) -1.16206(7)
Mo6A Mo 1.13538(8) 0.12246(8) -1.02481(6)
Mo7A Mo 0.26022(13) 0.12125(13) -0.45542(11)
Mo8A Mo 0.56720(13) -0.16269(10) -0.30694(7)
Mo9A Mo 0.62191(13) -0.25837(10) -0.46614(8)
Mo10A Mo 0.68695(11) -0.02787(11) -0.38365(7)
Mo11A Mo 0.44717(17) 0.09572(13) -0.34160(8)
Mo12A Mo 0.38112(9) -0.13758(9) -0.42530(7)
Ag2_2 Ag 1.5000 0.5000 0.0000
Ag3A Ag 0.59928(12) 0.17331(12) -0.22353(8)
Ag3A_2 Ag 1.59928(12) 0.17331(12) -0.22353(8)
Ag4A Ag 1.25732(11) 0.31462(11) -0.03325(8)
Ag4A_2 Ag 1.25732(11) 0.31462(11) -1.03325(8)
Ag5A Ag 0.90116(10) 0.77941(12) -0.28525(7)
Ag5A_2 Ag 0.90116(10) 0.77941(12) -1.28525(7)
Ag5_2 Ag 0.09884(10) 0.22059(12) -0.71475(7)
Ag5A_3 Ag 0.90116(10) -0.22059(12) -1.28525(7)
Ag5A_4 Ag 0.90116(10) -0.22059(12) -0.28525(7)
Ag6A Ag 1.38798(8) 0.38476(9) -0.36695(6)
Ag6A_2 Ag 0.38798(8) 0.38476(9) -0.36695(6)
Ag7A Ag 1.10137(7) 0.62277(8) -0.13368(6)
Ag7A_2 Ag 1.10137(7) 0.62277(8) -1.13368(6)
Ag8A Ag 1.25791(13) 0.70526(14) -0.45891(9)
Ag8A_2 Ag 0.25791(13) 0.70526(14) -0.45891(9)
Ag8A_3 Ag 0.25791(13) -0.29474(14) -0.45891(9)
N1A N 1.1216(7) 0.2777(8) -0.8383(5)
N1_2 N 0.8784(7) 0.7223(8) -0.1617(5)
N2A N 1.0494(8) 0.3329(8) -0.8967(6)
N2_2 N 0.9506(8) 0.6671(8) -0.1033(6)
N3A N 1.2020(8) 0.2613(9) -0.8655(6)
N4A N 1.1844(7) 0.3055(8) -0.9426(5)
N4A_2 N 1.1844(7) 0.3055(8) 0.0574(5)
N5A N 1.0687(10) 0.3927(9) -0.3993(7)
N6A N 1.1241(9) 0.8181(9) -0.5117(6)
N7A N 0.6694(8) 0.2771(9) -0.4532(6)
N7_2 N 1.3306(8) 0.7229(9) -0.5468(6)
N8A N 0.6051(8) 0.4005(8) -0.5944(6)
N8_2 N 1.3949(8) 0.5995(8) -0.4056(6)
N9A N 0.6067(8) 0.2471(9) -0.3488(6)
N10A N 0.5343(8) 0.3214(8) -0.4041(6)
N10A_2 N 1.5343(8) 0.3214(8) -0.4041(6)
N11A N 0.6884(8) 0.2212(10) -0.3793(6)
N12A N 1.3285(8) 0.3163(8) -0.1266(5)
N13A N 1.3934(8) 0.3407(9) -0.2306(6)
N14A N 1.4592(8) 0.2566(8) -0.1774(6)
N14A_2 N 0.4592(8) 0.2566(8) -0.1774(6)
N15A N 1.3117(8) 0.3785(9) -0.2004(6)
N16A N 1.3879(7) 0.1933(8) 0.0141(6)
N17A N 1.1034(9) 0.5305(10) -0.4871(7)
N18A N 1.1374(10) 0.5936(10) -0.5228(8)
N19A N 1.2174(9) 0.5652(9) -0.4847(6)
N20A N 1.2390(8) 0.4828(8) -0.4221(6)
N21A N 1.1207(8) 0.4002(8) -1.0900(6)
N21A_2 N 1.1207(8) 0.4002(8) -0.0900(6)
N22A N 1.4134(8) 0.6294(8) -0.0834(6)
N22A_2 N 0.4134(8) 0.6294(8) -1.0834(6)
N23A N 1.3639(9) 0.4077(9) 0.0154(7)
N24A N 1.1835(8) 0.6921(9) -0.3724(6)
N25A N 1.2017(9) 0.6307(9) -0.2963(6)
N26A N 1.0459(8) 0.7316(9) -0.3286(6)
N27A N 1.1155(9) 0.6545(9) -0.2705(6)
N28A N 1.2789(8) 0.4418(8) -0.0223(6)
N29A N 1.2526(8) 0.5305(8) -0.0766(6)
N30A N 1.3930(8) 0.4764(8) -0.0151(6)
N30A_2 N 0.3930(8) 0.4764(8) -1.0151(6)
O1A O 1.0083(12) 0.0068(12) -1.0863(8)
O2A O 0.5713(10) 0.4360(9) -1.1089(7)
O3A O 0.7007(10) 0.0091(9) -0.1783(7)
O4A O 0.8778(15) 0.2472(15) -1.1441(8)
O5A O 1.2272(9) -0.0930(7) -1.0836(6)
O7A O 0.9028(8) 0.0307(8) -1.1941(9)
O9A O 1.0113(8) 0.2323(9) -1.0554(6)
O10A O 0.8954(9) -0.1112(9) -1.0813(6)
O11A O 0.7758(12) 0.1614(11) -1.1324(8)
O12A O 0.9181(9) 0.2176(10) -0.9348(7)
O13A O 1.1939(11) 0.0151(9) -1.2366(6)
O14A O 1.1439(9) 0.0970(8) -1.1187(6)
O15A O 0.9871(9) -0.1546(10) -1.2087(7)
O15A_2 O 0.9871(9) 0.8454(10) -0.2087(7)
O16A O 0.9879(12) -0.0800(12) -1.0127(9)
O17A O 1.2348(7) -0.0166(7) -0.9779(6)
O18A O 1.0904(9) -0.0764(8) -1.1692(10)
O19A O 0.8231(7) 0.3810(7) -1.0634(6)
O20A O 1.2022(9) 0.1762(8) -1.0346(6)
O21A O 1.3716(8) -0.2099(8) -0.9601(7)
O22A O 0.4932(9) -0.2339(9) -0.4538(8)
O23A O 0.3308(14) 0.1066(13) -0.3693(9)
O24A O 0.5010(11) -0.0920(11) -0.4436(8)
O25A O 0.6663(12) -0.1341(10) -0.3210(9)
O26A O 0.5784(13) 0.0554(10) -0.3427(10)
O27A O 0.2423(8) 0.1087(8) -0.5554(6)
O28A O 0.1471(10) 0.1823(9) -0.4391(8)
O29A O 0.4147(14) 0.2095(14) -0.4232(9)
O30A O 0.5469(12) -0.0236(12) -0.4191(9)
O31A O 0.3186(12) -0.1985(10) -0.3952(7)
O31A_2 O 1.3186(12) 0.8015(10) -0.3952(7)
O32A O 0.4160(13) 0.0902(12) -0.4676(9)
O33A O 0.7736(12) -0.0451(12) -0.3244(9)
O33_2 O 1.2264(12) 0.0451(12) -0.6756(9)
O33A_2 O 0.7736(12) 0.9549(12) -0.3244(9)
O34A O 0.2927(8) -0.0114(7) -0.4155(6)
O35A O 0.6654(8) 0.0816(8) -0.4676(6)
O36A O 0.4235(9) 0.1399(8) -0.2660(6)
O37A O 0.6817(8) -0.3798(8) -0.4490(6)
O38A O 0.5952(10) -0.2387(11) -0.2171(6)
O39A O 0.6294(9) -0.2526(11) -0.3645(9)
O40A O 0.9044(13) 0.1027(12) -1.0465(9)
O41A O 0.4866(11) -0.0417(9) -0.2903(8)
O42A O 0.4531(10) -0.1647(10) -0.3355(9)
O43A O 0.2749(14) 0.2343(13) -0.5139(9)
O44A O 0.8245(9) 0.2321(8) -1.2760(6)
O45A O 1.0063(9) 0.1183(8) -1.2072(10)
O46A O 1.0846(12) 0.0041(12) -1.0284(9)
O47A O 0.7709(12) 0.2460(12) -1.0278(9)
O48A O 0.5864(12) 0.0029(11) -0.4982(9)
C1A C 1.1002(14) 0.8795(13) -0.5819(10)
H1A H 1.1488 0.8736 -0.6139
C2A C 1.0392(11) 0.3383(12) -0.3554(9)
H2A H 0.9805 0.3461 -0.3699
C3A C 1.2740(10) 0.7104(10) -0.1741(7)
H3A H 1.2201 0.7121 -0.1926
C4A C 0.9300(11) 0.4985(10) -1.1508(8)
H4A H 0.8661 0.5317 -1.1717
C5A C 1.0937(14) 0.2653(13) -0.2843(10)
H5A H 1.0718 0.2248 -0.2533
C6A C 1.0535(10) 0.8252(11) -0.4629(7)
C7A C 1.4533(9) 0.1717(9) -0.0391(6)
C8A C 1.2948(11) 0.7864(10) -0.2113(7)
H6A H 1.2558 0.8383 -0.2547
C9A C 0.9600(11) 0.8957(13) -0.4864(9)
H7A H 0.9125 0.8994 -0.4536
C10A C 1.0513(9) 0.4050(9) -1.0421(7)
C11A C 1.3733(11) 0.7815(10) -0.1818(8)
H8A H 1.3868 0.8324 -0.2034
C12A C 1.3334(9) 0.6338(9) -0.1107(7)
C13A C 0.4404(11) 0.4728(11) -0.5719(8)
H9A H 0.3939 0.4775 -0.5379
C14A C 0.5365(9) 0.4086(9) -0.5468(7)
C15A C 1.0917(9) 0.3494(9) -0.9607(7)
C16A C 1.1505(10) 0.3867(10) -0.3757(8)
C17A C 1.1704(9) 0.4611(10) -0.4272(7)
C18A C 1.0901(9) 0.7512(10) -0.3871(7)
C19A C 1.0019(12) 0.4919(12) -1.1974(8)
H10A H 0.9873 0.5194 -1.2512
C20A C 1.5021(13) 0.0536(13) 0.1105(8)
H11A H 1.5176 0.0167 0.1630
C21A C 0.9371(12) 0.9636(13) -0.5626(9)
H12A H 0.8746 1.0156 -0.5797
C22A C 1.3211(8) 0.5524(9) -0.0706(6)
C23A C 0.9568(10) 0.4531(9) -1.0702(8)
H13A H 0.9105 0.4559 -1.0364
C24A C 1.1771(12) 0.2560(12) -0.2631(9)
H14A H 1.2140 0.2093 -0.2168
C25A C 1.5682(11) 0.0268(12) 0.0574(8)
H15A H 1.6277 -0.0306 0.0727
C26A C 0.4873(12) 0.5207(12) -0.6975(8)
H16A H 0.4725 0.5587 -0.7497
C27A C 1.0941(11) 0.4453(10) -1.1651(7)
H17A H 1.1409 0.4452 -1.1976
C28A C 1.0093(13) 0.9514(15) -0.6116(9)
H18A H 0.9954 0.9914 -0.6632
C29A C 1.4177(9) 0.2447(9) -0.1155(7)
C30A C 1.4350(11) 0.6991(11) -0.1180(9)
H19A H 1.4912 0.6940 -0.1005
C31A C 1.4157(11) 0.1340(11) 0.0842(8)
H20A H 1.3713 0.1484 0.1201
C32A C 0.5803(12) 0.4552(11) -0.6680(7)
H21A H 0.6282 0.4486 -0.7008
C33A C 1.2064(12) 0.3147(12) -0.3093(8)
H22A H 1.2657 0.3068 -0.2964
C34A C 0.5747(10) 0.3381(10) -0.4671(7)
C35A C 0.4148(11) 0.5311(11) -0.6504(8)
H23A H 0.3507 0.5754 -0.6701
C36A C 1.5426(10) 0.0889(11) -0.0203(8)
H24A H 1.5850 0.0742 -0.0577
loop_
_geom_bond_atom_site_label_1
_geom_bond_atom_site_label_2
_geom_bond_site_symmetry_1
_geom_bond_site_symmetry_2
Mo1 O4 1_555 1_555
Mo2 O4 1_555 1_555
Mo3 O5 1_555 1_555
Mo4 O1 1_555 1_555
Mo5 O1 1_555 1_555
Mo6 O9 1_555 1_555
Mo7 O23 1_555 1_555
Mo8 O24 1_555 1_555
Mo9 O22 1_555 1_555
Mo10 O25 1_555 1_555
Mo11 O23 1_555 1_555
Mo12 O22 1_555 1_555
P1 O1 1_555 1_555
Ag1 N5 1_555 1_555
Ag2 N22 1_555 1_555
Ag3 N9 1_555 1_555
Ag4 N4 1_555 1_555
Ag5 N26 1_555 1_555
Ag6 N10 1_555 1_555
Ag7 N27 1_555 1_555
Ag8 N6 1_555 1_555
P2 O24 1_555 1_555
N1 N2 1_555 1_555
N2 C15 1_555 1_555
N3 N1 1_555 1_555
N4 N3 1_555 1_555
N5 C2 1_555 1_555
N6 C1 1_555 1_555
N7 N11 1_555 1_555
N8 C14 1_555 1_555
N9 N10 1_555 1_555
N10 C34 1_555 1_555
N11 N9 1_555 1_555
N12 Ag4 1_555 1_555
N13 Ag6 1_555 1_555
N14 Ag3 1_555 1_555
N15 N12 1_555 1_555
N16 Ag4 1_555 1_555
N17 Ag1 1_555 1_555
N18 N17 1_555 1_555
N19 Ag8 1_555 1_555
N20 Ag6 1_555 1_555
N21 Ag4 1_555 1_555
N22 C12 1_555 1_555
N23 N28 1_555 1_555
N24 Ag8 1_555 1_555
N25 N24 1_555 1_555
N26 N27 1_555 1_555
N27 N25 1_555 1_555
N28 Ag4 1_555 1_555
N29 Ag7 1_555 1_555
N30 Ag2 1_555 1_555
O2 Ag2 1_555 1_555
O3 Ag3 1_555 1_555
O5 Mo5 1_555 1_555
O7 Mo2 1_555 1_555
O9 Mo1 1_555 1_555
O10 Mo4 1_555 1_555
O11 Mo2 1_555 1_555
O12 Mo1 1_555 1_555
O13 Mo5 1_555 1_555
O14 Mo5 1_555 1_555
O15 Mo4 1_555 1_555
O16 Mo4 1_555 1_555
O17 Mo3 1_555 1_555
O18 Mo4 1_555 1_555
O19 Mo1 1_555 1_555
O20 Mo6 1_555 1_555
O21 Mo3 1_555 1_555
O24 Mo12 1_555 1_555
O25 Mo8 1_555 1_555
O26 Mo10 1_555 1_555
O27 Mo7 1_555 1_555
O28 Mo7 1_555 1_555
O29 Mo11 1_555 1_555
O30 Mo8 1_555 1_555
O31 Mo12 1_555 1_555
O32 Mo7 1_555 1_555
O33 Mo10 1_555 1_555
O34 Mo7 1_555 1_555
O35 Mo10 1_555 1_555
O36 Mo11 1_555 1_555
O37 Mo9 1_555 1_555
O38 Mo8 1_555 1_555
O39 Mo8 1_555 1_555
O40 Mo1 1_555 1_555
O41 Mo8 1_555 1_555
O42 Mo8 1_555 1_555
O43 Mo7 1_555 1_555
O44 Mo2 1_555 1_555
O45 Mo2 1_555 1_555
O46 Mo5 1_555 1_555
O47 Mo1 1_555 1_555
O48 Mo10 1_555 1_555
C1 H1 1_555 1_555
C2 H2 1_555 1_555
C3 H3 1_555 1_555
C4 H4 1_555 1_555
C5 C2 1_555 1_555
H5 C5 1_555 1_555
C6 N6 1_555 1_555
C7 N16 1_555 1_555
C8 C3 1_555 1_555
H6 C8 1_555 1_555
C9 C6 1_555 1_555
H7 C9 1_555 1_555
C10 N21 1_555 1_555
C11 C8 1_555 1_555
H8 C11 1_555 1_555
C12 C3 1_555 1_555
C13 H9 1_555 1_555
C14 C13 1_555 1_555
C15 N4 1_555 1_555
C16 N5 1_555 1_555
C17 N17 1_555 1_555
C18 N24 1_555 1_555
C19 C4 1_555 1_555
H10 C19 1_555 1_555
C20 H11 1_555 1_555
C21 C9 1_555 1_555
H12 C21 1_555 1_555
C22 N29 1_555 1_555
C23 C4 1_555 1_555
H13 C23 1_555 1_555
C24 C5 1_555 1_555
H14 C24 1_555 1_555
C25 C20 1_555 1_555
H15 C25 1_555 1_555
C26 H16 1_555 1_555
C27 N21 1_555 1_555
H17 C27 1_555 1_555
C28 C1 1_555 1_555
H18 C28 1_555 1_555
C29 N12 1_555 1_555
C30 N22 1_555 1_555
H19 C30 1_555 1_555
C31 N16 1_555 1_555
H20 C31 1_555 1_555
C32 N8 1_555 1_555
H21 C32 1_555 1_555
C33 C16 1_555 1_555
H22 C33 1_555 1_555
C34 N7 1_555 1_555
C35 C13 1_555 1_555
H23 C35 1_555 1_555
C36 C7 1_555 1_555
H24 C36 1_555 1_555
Mo1A O4A 1_555 1_555
Mo2A O4A 1_555 1_555
Mo3A O11 1_555 1_555
Mo4A O12 1_555 1_555
Mo5A O1A 1_555 1_555
Mo6A O10 1_555 1_555
Mo7A O23A 1_555 1_555
Mo8A O24A 1_555 1_555
Mo9A O29 1_555 1_555
Mo10A O27 1_555 1_555
Mo11A O23A 1_555 1_555
Mo12A O35 1_555 1_555
Ag2_2 N22A 1_555 1_555
Ag3A N9A 1_555 1_555
Ag3A_2 N14A 1_555 1_555
Ag4A N4A_2 1_555 1_555
Ag4A_2 N4A 1_555 1_555
Ag5A N1_2 1_555 1_555
Ag5A_2 N1 1_555 1_555
Ag5_2 O33 1_555 1_555
Ag5A_3 O15A 1_555 1_555
Ag5A_4 O33A 1_555 1_555
Ag6A N10A_2 1_555 1_555
Ag6A_2 N10A 1_555 1_555
Ag7A N2_2 1_555 1_555
Ag7A_2 N2 1_555 1_555
Ag8A N6A 1_555 1_555
Ag8A_2 N7 1_555 1_555
Ag8A_3 O31A 1_555 1_555
N1A Ag5 1_555 1_555
N1_2 N2_2 1_555 1_555
N2A Ag7 1_555 1_555
N3A N1A 1_555 1_555
N4A N3A 1_555 1_555
N5A Ag1 1_555 1_555
N6A C1A 1_555 1_555
N7A Ag8 1_555 1_555
N7_2 Ag8A 1_555 1_555
N8A Ag8 1_555 1_555
N8_2 Ag8A 1_555 1_555
N9A N10A 1_555 1_555
N10A C34A 1_555 1_555
N11A N7A 1_555 1_555
N12A Ag4A 1_555 1_555
N13A Ag6A 1_555 1_555
N14A N13A 1_555 1_555
N14A_2 Ag3A 1_555 1_555
N15A N12A 1_555 1_555
N16A Ag4A 1_555 1_555
N17A Ag1 1_555 1_555
N18A N17A 1_555 1_555
N19A Ag8A 1_555 1_555
N20A Ag6A 1_555 1_555
N21A Ag4A_2 1_555 1_555
N21A_2 Ag4A 1_555 1_555
N22A C12A 1_555 1_555
N22A_2 Ag2 1_555 1_555
N23A N28A 1_555 1_555
N24A Ag8A 1_555 1_555
N25A N24A 1_555 1_555
N26A Ag5A 1_555 1_555
N27A Ag7A 1_555 1_555
N28A Ag4A 1_555 1_555
N29A Ag7A 1_555 1_555
N30A Ag2_2 1_555 1_555
N30A_2 Ag2 1_555 1_555
O1A P1 1_555 1_555
O2A Ag2 1_555 1_555
O3A Ag3A 1_555 1_555
O5A Mo3A 1_555 1_555
O7A Mo2A 1_555 1_555
O9A Mo1A 1_555 1_555
O10A Mo6 1_555 1_555
O11A Mo3 1_555 1_555
O12A Mo4 1_555 1_555
O13A Mo5A 1_555 1_555
O14A Mo5A 1_555 1_555
O15A Mo4A 1_555 1_555
O15A_2 Ag5A 1_555 1_555
O16A Mo6 1_555 1_555
O17A Mo3A 1_555 1_555
O18A Mo4A 1_555 1_555
O19A Mo1A 1_555 1_555
O20A Mo6A 1_555 1_555
O21A Mo3A 1_555 1_555
O22A Mo9A 1_555 1_555
O24A P2 1_555 1_555
O25A Mo8A 1_555 1_555
O26A Mo10A 1_555 1_555
O27A Mo10 1_555 1_555
O28A Mo7A 1_555 1_555
O29A Mo9 1_555 1_555
O30A P2 1_555 1_555
O31A Mo12A 1_555 1_555
O31A_2 Ag8A 1_555 1_555
O32A Mo9 1_555 1_555
O33A Mo10A 1_555 1_555
O33_2 Ag5 1_555 1_555
O33A_2 Ag5A 1_555 1_555
O34A Mo7A 1_555 1_555
O35A Mo12 1_555 1_555
O36A Mo11A 1_555 1_555
O37A Mo9A 1_555 1_555
O38A Mo8A 1_555 1_555
O39A Mo8A 1_555 1_555
O40A Mo3 1_555 1_555
O41A Mo8A 1_555 1_555
O42A Mo8A 1_555 1_555
O43A Mo9 1_555 1_555
O44A Mo2A 1_555 1_555
O45A Mo2A 1_555 1_555
O46A P1 1_555 1_555
O47A Mo3 1_555 1_555
O48A P2 1_555 1_555
C1A H1A 1_555 1_555
C2A N5A 1_555 1_555
H2A C2A 1_555 1_555
C3A H3A 1_555 1_555
C4A H4A 1_555 1_555
C5A C2A 1_555 1_555
H5A C5A 1_555 1_555
C6A N6A 1_555 1_555
C7A N16A 1_555 1_555
C8A C3A 1_555 1_555
H6A C8A 1_555 1_555
C9A C6A 1_555 1_555
H7A C9A 1_555 1_555
C10A N21A 1_555 1_555
C11A C8A 1_555 1_555
H8A C11A 1_555 1_555
C12A C3A 1_555 1_555
C13A H9A 1_555 1_555
C14A N8A 1_555 1_555
C15A N2A 1_555 1_555
C16A N5A 1_555 1_555
C17A N17A 1_555 1_555
C18A N24A 1_555 1_555
C19A C4A 1_555 1_555
H10A C19A 1_555 1_555
C20A H11A 1_555 1_555
C21A C9A 1_555 1_555
H12A C21A 1_555 1_555
C22A N29A 1_555 1_555
C23A C4A 1_555 1_555
H13A C23A 1_555 1_555
C24A C5A 1_555 1_555
H14A C24A 1_555 1_555
C25A C20A 1_555 1_555
H15A C25A 1_555 1_555
C26A H16A 1_555 1_555
C27A N21A 1_555 1_555
H17A C27A 1_555 1_555
C28A C1A 1_555 1_555
H18A C28A 1_555 1_555
C29A N12A 1_555 1_555
C30A N22A 1_555 1_555
H19A C30A 1_555 1_555
C31A N16A 1_555 1_555
H20A C31A 1_555 1_555
C32A N8A 1_555 1_555
H21A C32A 1_555 1_555
C33A C16A 1_555 1_555
H22A C33A 1_555 1_555
C34A N7A 1_555 1_555
C35A C13A 1_555 1_555
H23A C35A 1_555 1_555
C36A C7A 1_555 1_555
H24A C36A 1_555 1_555
Mo2 O40 1_555 1_555
Mo4 O7 1_555 1_555
Mo5 O18 1_555 1_555
Mo5 O45 1_555 1_555
Mo6 O14 1_555 1_555
Mo6 O17 1_555 1_555
Mo6 O46 1_555 1_555
Mo9 O39 1_555 1_555
Mo10 O30 1_555 1_555
Mo11 O26 1_555 1_555
Mo11 O32 1_555 1_555
Mo11 O41 1_555 1_555
Mo12 O34 1_555 1_555
Mo12 O42 1_555 1_555
P1 O16 1_555 1_555
P1 O40 1_555 1_555
P1 O46 1_555 1_555
P1 O16A 1_555 1_555
P1 O40A 1_555 1_555
Ag5 O15 1_555 1_555
Ag8 O31 1_555 1_555
P2 O30 1_555 1_555
P2 O32 1_555 1_555
P2 O48 1_555 1_555
P2 O32A 1_555 1_555
N8 Ag8A_2 1_555 1_555
N13 N14 1_555 1_555
N13 N15 1_555 1_555
N14 C29 1_555 1_555
N18 N19 1_555 1_555
N19 N20 1_555 1_555
N20 C17 1_555 1_555
N23 N30 1_555 1_555
N26 C18 1_555 1_555
N28 N29 1_555 1_555
N30 C22 1_555 1_555
O16 Mo6A 1_555 1_555
O32 Mo9A 1_555 1_555
O40 Mo3A 1_555 1_555
O43 Mo9A 1_555 1_555
O47 Mo3A 1_555 1_555
C6 C18 1_555 1_555
C7 C29 1_555 1_555
C10 C15 1_555 1_555
C10 C23 1_555 1_555
C11 C30 1_555 1_555
C12 C22 1_555 1_555
C14 C34 1_555 1_555
C16 C17 1_555 1_555
C19 C27 1_555 1_555
C20 C31 1_555 1_555
C21 C28 1_555 1_555
C24 C33 1_555 1_555
C25 C36 1_555 1_555
C26 C32 1_555 1_555
C26 C35 1_555 1_555
Mo1A O12A 1_555 1_555
Mo1A O40A 1_555 1_555
Mo1A O47A 1_555 1_555
Mo2A O11A 1_555 1_555
Mo2A O40A 1_555 1_555
Mo4A O1A 1_555 1_555
Mo4A O7A 1_555 1_555
Mo4A O10A 1_555 1_555
Mo4A O16A 1_555 1_555
Mo5A O5A 1_555 1_555
Mo5A O18A 1_555 1_555
Mo5A O45A 1_555 1_555
Mo5A O46A 1_555 1_555
Mo6A O9A 1_555 1_555
Mo6A O14A 1_555 1_555
Mo6A O17A 1_555 1_555
Mo6A O46A 1_555 1_555
Mo7A O27A 1_555 1_555
Mo7A O32A 1_555 1_555
Mo7A O43A 1_555 1_555
Mo8A O30A 1_555 1_555
Mo9A O39A 1_555 1_555
Mo10A O25A 1_555 1_555
Mo10A O30A 1_555 1_555
Mo10A O35A 1_555 1_555
Mo10A O48A 1_555 1_555
Mo11A O26A 1_555 1_555
Mo11A O29A 1_555 1_555
Mo11A O32A 1_555 1_555
Mo11A O41A 1_555 1_555
Mo12A O22A 1_555 1_555
Mo12A O24A 1_555 1_555
Mo12A O34A 1_555 1_555
Mo12A O42A 1_555 1_555
N1A N2A 1_555 1_555
N4A C15A 1_555 1_555
N9A N11A 1_555 1_555
N13A N15A 1_555 1_555
N14A C29A 1_555 1_555
N18A N19A 1_555 1_555
N19A N20A 1_555 1_555
N20A C17A 1_555 1_555
N23A N30A 1_555 1_555
N25A N27A 1_555 1_555
N26A N27A 1_555 1_555
N26A C18A 1_555 1_555
N28A N29A 1_555 1_555
N30A C22A 1_555 1_555
C6A C18A 1_555 1_555
C7A C29A 1_555 1_555
C10A C15A 1_555 1_555
C10A C23A 1_555 1_555
C11A C30A 1_555 1_555
C12A C22A 1_555 1_555
C13A C14A 1_555 1_555
C14A C34A 1_555 1_555
C16A C17A 1_555 1_555
C19A C27A 1_555 1_555
C20A C31A 1_555 1_555
C21A C28A 1_555 1_555
C24A C33A 1_555 1_555
C25A C36A 1_555 1_555
C26A C32A 1_555 1_555
C26A C35A 1_555 1_555

#END
