
#######################################################################
#
#                 Cambridge Crystallographic Data Centre
#                                CCDC 
#
#######################################################################
#
# If this CIF has been generated from an entry in the Cambridge 
# Structural Database, then it will include bibliographic, chemical, 
# crystal, experimental, refinement or atomic coordinate data resulting 
# from the CCDC's data processing and validation procedures.
#
#######################################################################

data_PATMII
_symmetry_cell_setting           monoclinic
_symmetry_space_group_name_H-M   'P 21/c'
_symmetry_Int_Tables_number      14
_space_group_name_Hall           '-P 2ybc'
loop_
_symmetry_equiv_pos_site_id
_symmetry_equiv_pos_as_xyz
1 x,y,z
2 -x,1/2+y,1/2-z
3 -x,-y,-z
4 x,1/2-y,1/2+z
_cell_length_a                   10.554(5)
_cell_length_b                   23.046(5)
_cell_length_c                   12.291(5)
_cell_angle_alpha                90
_cell_angle_beta                 101.345(5)
_cell_angle_gamma                90
_cell_volume                     2931.1
loop_
_atom_site_label
_atom_site_type_symbol
_atom_site_fract_x
_atom_site_fract_y
_atom_site_fract_z
O1 O 0.3004(10) 0.0252(3) 0.9043(6)
O2 O 0.3478(10) -0.0090(3) 1.1118(6)
O3 O 0.0140(8) -0.0234(4) 0.7051(10)
O4 O 0.0846(10) 0.1497(5) 0.9315(9)
O5 O 0.2076(8) -0.0746(3) 0.8362(6)
O6 O 0.0478(8) -0.1475(3) 0.9017(6)
O7 O -0.0961(6) 0.0728(3) 0.5904(5)
O8 O 0.0491(8) -0.1411(4) 0.6787(6)
O9 O -0.1296(7) 0.2149(3) 0.9140(6)
O10 O 0.2722(9) 0.0993(3) 1.0604(6)
O11 O 0.3161(8) 0.1404(3) 0.8610(7)
O12 O 0.1040(11) 0.0774(5) 0.7700(9)
O13 O 0.2492(8) -0.1129(3) 1.0451(6)
O14 O 0.4064(7) 0.0764(3) 1.2674(6)
Mo1 Mo 0.30947(6) -0.05080(3) 0.97792(6)
Mo2 Mo 0.21583(7) 0.09426(4) 0.89987(7)
Mo3 Mo 0.03411(8) -0.09410(3) 0.77846(7)
Mo4 Mo 0.27671(7) 0.05319(4) 1.18177(7)
Mo5 Mo -0.07565(8) 0.05092(4) 0.72067(6)
Mo6 Mo -0.08304(8) 0.14722(3) 0.94506(7)
Ag1 Ag 0.12862(6) -0.17809(3) 0.51623(6)
P1 P 0.0000 0.0000 1.0000
O15 O -0.0574(10) -0.0210(4) 0.8764(8)
Ag2 Ag -0.87844(6) -0.24759(3) 0.29596(6)
Ag3 Ag -0.26376(7) -0.21186(4) 0.61815(6)
O16 O 0.4524(7) -0.0729(5) 0.9619(7)
O17 O -0.1233(10) 0.1144(4) 0.7936(8)
O18 O 0.2177(8) -0.0091(4) 1.2710(10)
N1 N -0.6710(7) -0.2505(3) 0.3114(6)
N2 N -0.0696(6) -0.2332(3) 0.3309(5)
N3 N -0.1884(7) -0.2164(3) 0.4526(6)
N4 N -0.1894(6) -0.2503(3) 0.2845(6)
N5 N 0.5390(7) -0.1672(3) 0.5614(6)
N6 N 0.3340(7) -0.1573(3) 0.5352(6)
N7 N -0.0686(7) -0.2130(3) 0.4308(6)
N8 N 0.3763(8) -0.1119(3) 0.4843(7)
C1 C 0.5032(8) -0.1196(4) 0.5026(7)
N9 N 0.4309(8) -0.1908(3) 0.5813(7)
C2 C -0.2601(7) -0.2392(3) 0.3610(7)
C3 C -0.4030(7) -0.2458(4) 0.3419(7)
C4 C -0.6108(8) -0.2087(5) 0.2676(8)
H1 H -0.6608 -0.1802 0.2261
C5 C -0.4795(9) -0.2051(5) 0.2800(8)
H2 H -0.4423 -0.1751 0.2465
C6 C 0.7217(10) -0.0777(5) 0.5009(10)
H3 H 0.7573 -0.0997 0.5629
C7 C 0.5901(9) -0.0803(4) 0.4563(8)
O19 O 0.0131(9) 0.0558(4) 0.9245(8)
O20 O -0.1457(8) -0.0977(4) 0.7729(11)
O21 O 0.1397(9) 0.0131(4) 1.0099(8)
O22 O 0.0788(9) -0.0477(4) 0.9686(8)
C8 C 0.5421(13) -0.0448(6) 0.3694(13)
H4 H 0.4538 -0.0444 0.3403
C9 C -0.4625(9) -0.2900(5) 0.3861(12)
H5 H -0.4143 -0.3194 0.4263
N10 N 0.7495(12) -0.0101(5) 0.3670(10)
C10 C 0.7978(14) -0.0421(6) 0.4513(11)
H6 H 0.8863 -0.0409 0.4792
C11 C -0.5970(10) -0.2900(5) 0.3698(13)
H7 H -0.6368 -0.3197 0.4021
C12 C 0.6225(16) -0.0101(6) 0.3251(14)
H8 H 0.5892 0.0138 0.2653
O1B O -0.3004(10) -0.0252(3) 1.0957(6)
O2B O -0.3478(10) 0.0090(3) 0.8882(6)
O3B O -0.0140(8) 0.0234(4) 1.2949(10)
O4B O -0.0846(10) -0.1497(5) 1.0685(9)
O5B O -0.2076(8) 0.0746(3) 1.1638(6)
O6B O -0.0478(8) 0.1475(3) 1.0983(6)
O7B O 0.0961(6) -0.0728(3) 1.4096(5)
O8B O -0.0491(8) 0.1411(4) 1.3213(6)
O9B O 0.1296(7) -0.2149(3) 1.0860(6)
O10B O -0.2722(9) -0.0993(3) 0.9396(6)
O11B O -0.3161(8) -0.1404(3) 1.1390(7)
O12B O -0.1040(11) -0.0774(5) 1.2300(9)
O13B O -0.2492(8) 0.1129(3) 0.9549(6)
O14B O -0.4064(7) -0.0764(3) 0.7326(6)
Mo1B Mo -0.30947(6) 0.05080(3) 1.02208(6)
Mo2B Mo -0.21583(7) -0.09426(4) 1.10013(7)
Mo3B Mo -0.03411(8) 0.09410(3) 1.22154(7)
Mo4B Mo -0.27671(7) -0.05319(4) 0.81823(7)
Mo5B Mo 0.07565(8) -0.05092(4) 1.27933(6)
Mo6B Mo 0.08304(8) -0.14722(3) 1.05494(7)
Ag1B Ag -0.12862(6) 0.17809(3) 1.48377(6)
O15B O 0.0574(10) 0.0210(4) 1.1236(8)
Ag2B Ag 0.87844(6) 0.24759(3) 1.70404(6)
Ag2_2 Ag 0.12156(6) -0.24759(3) 0.29596(6)
Ag2B_2 Ag -0.12156(6) 0.24759(3) 1.70404(6)
Ag3B Ag 0.26376(7) 0.21186(4) 1.38185(6)
Ag3C Ag -0.26376(7) -0.28814(4) 0.11815(6)
Ag3_2 Ag 0.73624(7) -0.21186(4) 0.61815(6)
Ag3B_2 Ag -0.73624(7) 0.21186(4) 1.38185(6)
Ag3A Ag 0.26376(7) 0.28814(4) 1.88185(6)
O16B O -0.4524(7) 0.0729(5) 1.0381(7)
O17B O 0.1233(10) -0.1144(4) 1.2064(8)
O18B O -0.2177(8) 0.0091(4) 0.7290(10)
N1B N 0.6710(7) 0.2505(3) 1.6886(6)
N2B N 0.0696(6) 0.2332(3) 1.6691(5)
N2_2 N -1.0696(6) -0.2332(3) 0.3309(5)
N2B_2 N 1.0696(6) 0.2332(3) 1.6691(5)
N3B N 0.1884(7) 0.2164(3) 1.5474(6)
N4B N 0.1894(6) 0.2503(3) 1.7155(6)
N4C N -0.1894(6) -0.2497(3) 0.7845(6)
N4A N 0.1894(6) 0.2497(3) 1.2155(6)
N5B N -0.5390(7) 0.1672(3) 1.4386(6)
N5_2 N -0.4610(7) -0.1672(3) 0.5614(6)
N5B_2 N 0.4610(7) 0.1672(3) 1.4386(6)
N6B N -0.3340(7) 0.1573(3) 1.4648(6)
N7B N 0.0686(7) 0.2130(3) 1.5692(6)
N8B N -0.3763(8) 0.1119(3) 1.5157(7)
C1B C -0.5032(8) 0.1196(4) 1.4974(7)
N9B N -0.4309(8) 0.1908(3) 1.4187(7)
C2B C 0.2601(7) 0.2392(3) 1.6390(7)
C3B C 0.4030(7) 0.2458(4) 1.6581(7)
C4B C 0.6108(8) 0.2087(5) 1.7324(8)
H1B H 0.6608 0.1802 1.7739
C5B C 0.4795(9) 0.2051(5) 1.7200(8)
H2B H 0.4423 0.1751 1.7535
C6B C -0.7217(10) 0.0777(5) 1.4991(10)
H3B H -0.7573 0.0997 1.4371
C7B C -0.5901(9) 0.0803(4) 1.5437(8)
O19B O -0.0131(9) -0.0558(4) 1.0755(8)
O20B O 0.1457(8) 0.0977(4) 1.2271(11)
O21B O -0.1397(9) -0.0131(4) 0.9901(8)
O22B O -0.0788(9) 0.0477(4) 1.0314(8)
C8B C -0.5421(13) 0.0448(6) 1.6306(13)
H4B H -0.4538 0.0444 1.6597
C9B C 0.4625(9) 0.2900(5) 1.6139(12)
H5B H 0.4143 0.3194 1.5737
N10B N -0.7495(12) 0.0101(5) 1.6330(10)
C10B C -0.7978(14) 0.0421(6) 1.5487(11)
H6B H -0.8863 0.0409 1.5208
C11B C 0.5970(10) 0.2900(5) 1.6302(13)
H7B H 0.6368 0.3197 1.5979
C12B C -0.6225(16) 0.0101(6) 1.6749(14)
H8B H -0.5892 -0.0138 1.7347
loop_
_geom_bond_atom_site_label_1
_geom_bond_atom_site_label_2
_geom_bond_site_symmetry_1
_geom_bond_site_symmetry_2
O1 Mo1 1_555 1_555
O2 Mo1 1_555 1_555
O3 Mo3 1_555 1_555
O4 Mo2 1_555 1_555
O5 Mo1 1_555 1_555
O6 Mo3 1_555 1_555
O7 Mo5 1_555 1_555
O8 Mo3 1_555 1_555
O9 Mo6 1_555 1_555
O10 Mo2 1_555 1_555
O11 Mo2 1_555 1_555
O12 Mo2 1_555 1_555
O13 Mo1 1_555 1_555
O14 Mo4 1_555 1_555
Mo1 O16 1_555 1_555
Mo2 O1 1_555 1_555
Mo3 O5 1_555 1_555
Mo4 O2 1_555 1_555
Mo5 O3 1_555 1_555
Mo6 O4 1_555 1_555
Ag1 O8 1_555 1_555
P1 O15 1_555 1_555
O15 Mo3 1_555 1_555
Ag2 N1 1_555 1_555
Ag3 N3 1_555 1_555
O17 Mo5 1_555 1_555
O18 Mo4 1_555 1_555
N1 C4 1_555 1_555
N2 N4 1_555 1_555
N3 N7 1_555 1_555
N4 C2 1_555 1_555
N5 C1 1_555 1_555
N6 Ag1 1_555 1_555
N7 Ag1 1_555 1_555
N8 N6 1_555 1_555
C1 N8 1_555 1_555
N9 N5 1_555 1_555
C2 N3 1_555 1_555
C3 C2 1_555 1_555
C4 H1 1_555 1_555
C5 C3 1_555 1_555
H2 C5 1_555 1_555
C6 H3 1_555 1_555
C7 C1 1_555 1_555
O19 Mo2 1_555 1_555
O20 Mo3 1_555 1_555
O21 Mo1 1_555 1_555
O22 Mo1 1_555 1_555
C8 C7 1_555 1_555
H4 C8 1_555 1_555
C9 C3 1_555 1_555
H5 C9 1_555 1_555
N10 C10 1_555 1_555
C10 C6 1_555 1_555
H6 C10 1_555 1_555
C11 N1 1_555 1_555
H7 C11 1_555 1_555
C12 C8 1_555 1_555
H8 C12 1_555 1_555
O1B Mo1B 1_555 1_555
O2B Mo1B 1_555 1_555
O3B Mo3B 1_555 1_555
O4B Mo2B 1_555 1_555
O5B Mo1B 1_555 1_555
O6B Mo6 1_555 1_555
O7B Mo5B 1_555 1_555
O8B Mo3B 1_555 1_555
O9B Mo6B 1_555 1_555
O10B Mo2B 1_555 1_555
O11B Mo2B 1_555 1_555
O12B Mo2B 1_555 1_555
O13B Mo6 1_555 1_555
O14B Mo4B 1_555 1_555
Mo1B O13B 1_555 1_555
Mo2B O1B 1_555 1_555
Mo3B O5B 1_555 1_555
Mo4B O15 1_555 1_555
Mo5B O18 1_555 1_555
Mo6B O6 1_555 1_555
Ag1B O8B 1_555 1_555
O15B Mo4 1_555 1_555
Ag2B N1B 1_555 1_555
Ag2_2 N2 1_555 1_555
Ag2B_2 N2B 1_555 1_555
Ag3B N3B 1_555 1_555
Ag3C N4 1_555 1_555
Ag3_2 N5 1_555 1_555
Ag3B_2 N5B 1_555 1_555
Ag3A N4B 1_555 1_555
O16B Mo1B 1_555 1_555
O17B Mo5B 1_555 1_555
O18B Mo5 1_555 1_555
N1B C4B 1_555 1_555
N2B N4B 1_555 1_555
N2_2 Ag2 1_555 1_555
N2B_2 Ag2B 1_555 1_555
N3B N7B 1_555 1_555
N4B C2B 1_555 1_555
N4C Ag3 1_555 1_555
N4A Ag3B 1_555 1_555
N5B C1B 1_555 1_555
N5_2 Ag3 1_555 1_555
N5B_2 Ag3B 1_555 1_555
N6B Ag1B 1_555 1_555
N7B Ag1B 1_555 1_555
N8B N6B 1_555 1_555
C1B N8B 1_555 1_555
N9B N5B 1_555 1_555
C2B N3B 1_555 1_555
C3B C2B 1_555 1_555
C4B H1B 1_555 1_555
C5B C3B 1_555 1_555
H2B C5B 1_555 1_555
C6B H3B 1_555 1_555
C7B C1B 1_555 1_555
O19B P1 1_555 1_555
O20B Mo4 1_555 1_555
O21B P1 1_555 1_555
O22B P1 1_555 1_555
C8B C7B 1_555 1_555
H4B C8B 1_555 1_555
C9B C3B 1_555 1_555
H5B C9B 1_555 1_555
N10B C10B 1_555 1_555
C10B C6B 1_555 1_555
H6B C10B 1_555 1_555
C11B N1B 1_555 1_555
H7B C11B 1_555 1_555
C12B C8B 1_555 1_555
H8B C12B 1_555 1_555
O10 Mo4 1_555 1_555
O12 Mo5 1_555 1_555
O13 Mo6B 1_555 1_555
Mo4 O21 1_555 1_555
Mo5 O15 1_555 1_555
Mo5 O19 1_555 1_555
Mo6 O17 1_555 1_555
Mo6 O19 1_555 1_555
P1 O19 1_555 1_555
P1 O21 1_555 1_555
P1 O22 1_555 1_555
P1 O15B 1_555 1_555
N2 N7 1_555 1_555
N6 N9 1_555 1_555
C4 C5 1_555 1_555
C6 C7 1_555 1_555
O20 Mo4B 1_555 1_555
C9 C11 1_555 1_555
N10 C12 1_555 1_555
O2B Mo4B 1_555 1_555
O3B Mo5B 1_555 1_555
O4B Mo6B 1_555 1_555
O6B Mo3B 1_555 1_555
O10B Mo4B 1_555 1_555
O12B Mo5B 1_555 1_555
Mo1B O21B 1_555 1_555
Mo1B O22B 1_555 1_555
Mo2B O19B 1_555 1_555
Mo3B O15B 1_555 1_555
Mo3B O20B 1_555 1_555
Mo4B O18B 1_555 1_555
Mo4B O21B 1_555 1_555
Mo5B O15B 1_555 1_555
Mo5B O19B 1_555 1_555
Mo6B O17B 1_555 1_555
Mo6B O19B 1_555 1_555
N2B N7B 1_555 1_555
N6B N9B 1_555 1_555
C4B C5B 1_555 1_555
C6B C7B 1_555 1_555
C9B C11B 1_555 1_555
N10B C12B 1_555 1_555

#END
