
#######################################################################
#
#                 Cambridge Crystallographic Data Centre
#                                CCDC 
#
#######################################################################
#
# If this CIF has been generated from an entry in the Cambridge 
# Structural Database, then it will include bibliographic, chemical, 
# crystal, experimental, refinement or atomic coordinate data resulting 
# from the CCDC's data processing and validation procedures.
#
#######################################################################

data_PATMOO
_symmetry_cell_setting           triclinic
_symmetry_space_group_name_H-M   'P -1'
_symmetry_Int_Tables_number      2
_space_group_name_Hall           '-P 1'
loop_
_symmetry_equiv_pos_site_id
_symmetry_equiv_pos_as_xyz
1 x,y,z
2 -x,-y,-z
_cell_length_a                   10.216(5)
_cell_length_b                   12.903(5)
_cell_length_c                   13.395(5)
_cell_angle_alpha                96.572(5)
_cell_angle_beta                 112.215(5)
_cell_angle_gamma                97.623(5)
_cell_volume                     1593.9
loop_
_atom_site_label
_atom_site_type_symbol
_atom_site_fract_x
_atom_site_fract_y
_atom_site_fract_z
C1 C -0.4125(12) -0.0843(9) -0.2962(9)
C2 C -0.3409(12) -0.0470(9) -0.1770(10)
C3 C -0.5317(13) -0.0440(10) -0.3570(10)
H1 H -0.5605 0.0086 -0.3209
C4 C -0.3692(13) -0.1594(11) -0.3502(10)
H2 H -0.2894 -0.1876 -0.3121
C5 C -1.1164(13) 0.1775(10) -0.6163(10)
C6 C -1.1848(14) 0.2607(10) -0.5921(11)
C7 C -1.2929(18) 0.2978(11) -0.6741(13)
H3 H -1.3235 0.2653 -0.7469
C8 C -1.144(2) 0.3109(15) -0.4849(13)
H4 H -1.0746 0.2881 -0.4282
C9 C -1.202(2) 0.3908(12) -0.4625(14)
H5 H -1.1713 0.4226 -0.3895
C10 C -0.4442(17) -0.1936(11) -0.4622(11)
H6 H -0.4153 -0.2438 -0.5010
C11 C -1.299(2) 0.4274(14) -0.5342(16)
H7 H -1.3335 0.4849 -0.5120
C12 C -0.5643(15) -0.1500(12) -0.5143(10)
H8 H -0.6178 -0.1741 -0.5889
N1 N -1.0015(13) 0.1509(10) -0.5425(9)
N2 N -0.9653(12) 0.0759(10) -0.6025(9)
N3 N -1.0547(11) 0.0586(9) -0.7074(9)
N4 N -1.1521(10) 0.1212(8) -0.7168(9)
N5 N -0.3124(10) -0.0010(8) -0.0112(8)
N6 N -0.1887(11) -0.0072(8) -0.0138(8)
N7 N -0.4133(11) -0.0243(9) -0.1146(8)
N8 N -0.2019(10) -0.0357(8) -0.1163(8)
N9 N -1.3551(19) 0.3814(12) -0.6493(17)
N10 N -0.6059(11) -0.0765(10) -0.4632(9)
O1 O -0.5037(12) -0.3965(12) -0.6679(9)
O2 O -1.0770(12) -0.2313(12) -0.9388(10)
O3 O -0.6377(14) -0.5523(10) -0.8515(10)
O4 O -1.2410(11) -0.4226(8) -0.7284(9)
O5 O -1.0352(15) -0.5297(11) -0.7387(12)
O6 O -0.6409(10) -0.7588(7) -0.9297(9)
O7 O -0.8918(12) -0.6893(8) -0.6647(8)
O8 O -0.8758(17) -0.4122(13) -0.9333(13)
O9 O -1.0511(16) -0.4104(12) -0.9430(12)
O10 O -1.0691(15) -0.5504(11) -0.9288(12)
O11 O -0.8922(13) -0.2867(10) -1.1298(11)
O12 O -0.7126(14) -0.4217(9) -1.0935(11)
O13 O -0.7702(13) -0.5146(10) -0.7182(10)
O14 O -0.6034(11) -0.2126(8) -1.0127(11)
O15 O -0.8041(13) -0.2231(10) -0.9179(9)
O16 O -0.8336(15) -0.7009(8) -0.8458(11)
O17 O -0.8511(13) -0.1332(8) -0.7424(8)
O18 O -0.7548(13) -0.3192(9) -0.7475(9)
O19 O -1.0177(14) -0.3296(11) -0.7698(11)
O20 O -0.6238(15) -0.3550(10) -0.8792(10)
O21 O -0.8816(16) -0.5375(13) -0.9104(13)
O22 O -0.7240(12) -0.6145(11) -1.0647(10)
P1 P -1.0000 -0.5000 -1.0000
Mo1 Mo -0.89728(13) -0.24829(9) -0.82795(10)
Mo2 Mo -0.75771(13) -0.67968(10) -0.95558(11)
Mo3 Mo -0.72712(13) -0.30452(9) -1.00758(11)
Mo4 Mo -0.65943(12) -0.43073(9) -0.77586(10)
Mo5 Mo -1.16176(13) -0.44606(11) -0.81173(10)
Mo6 Mo -0.92993(15) -0.63391(10) -0.77471(10)
Ag1 Ag -0.79098(12) -0.00550(11) -0.54314(10)
Ag2 Ag -0.5000 -0.5000 -1.0000
Ag3 Ag -0.64048(11) -0.05234(10) -1.13681(8)
Ag4 Ag -0.99421(11) 0.02040(10) -0.84865(9)
C1A C -0.5875(12) 0.0843(9) -0.7038(9)
C2A C -0.6591(12) 0.0470(9) -0.8230(10)
C3A C -0.4683(13) 0.0440(10) -0.6430(10)
H1A H -0.4395 -0.0086 -0.6791
C4A C -0.6308(13) 0.1594(11) -0.6498(10)
H2A H -0.7106 0.1876 -0.6879
C5A C -0.8836(13) -0.1775(10) -1.3837(10)
C6A C -0.8152(14) -0.2607(10) -1.4079(11)
C7A C -0.7071(18) -0.2978(11) -1.3259(13)
H3A H -0.6765 -0.2653 -1.2531
C8A C -0.856(2) -0.3109(15) -1.5151(13)
H4A H -0.9254 -0.2881 -1.5718
C9A C -0.798(2) -0.3908(12) -1.5375(14)
H5A H -0.8287 -0.4226 -1.6105
C10A C -0.5558(17) 0.1936(11) -0.5378(11)
H6A H -0.5847 0.2438 -0.4990
C11A C -0.701(2) -0.4274(14) -1.4658(16)
H7A H -0.6665 -0.4849 -1.4880
C12A C -0.4357(15) 0.1500(12) -0.4857(10)
H8A H -0.3822 0.1741 -0.4111
N1A N -0.9985(13) -0.1509(10) -1.4575(9)
N2A N -1.0347(12) -0.0759(10) -1.3975(9)
N2A_2 N -1.0347(12) -1.0759(10) -1.3975(9)
N3A N -0.9453(11) -0.0586(9) -1.2926(9)
N4A N -0.8479(10) -0.1212(8) -1.2832(9)
N4_2 N -1.1521(10) -0.8788(8) -0.7168(9)
N5A N -0.6876(10) 0.0010(8) -0.9888(8)
N5_2 N -1.3124(10) -1.0010(8) -1.0112(8)
N6A N -0.8113(11) 0.0072(8) -0.9862(8)
N6_2 N -1.1887(11) -0.0072(8) -1.0138(8)
N7A N -0.5867(11) 0.0243(9) -0.8854(8)
N7_2 N -0.4133(11) -0.0243(9) -1.1146(8)
N7A_2 N -1.5867(11) -0.9757(9) -0.8854(8)
N8A N -0.7981(10) 0.0357(8) -0.8837(8)
N8_2 N -1.2019(10) -0.0357(8) -1.1163(8)
N9A N -0.6449(19) -0.3814(12) -1.3507(17)
N10A N -0.3941(11) 0.0765(10) -0.5368(9)
N10A_2 N -1.3941(11) -0.9235(10) -1.5368(9)
O1A O -1.4963(12) -0.6035(12) -1.3321(9)
O2A O -0.9230(12) -0.7687(12) -1.0612(10)
O3A O -1.3623(14) -0.4477(10) -1.1485(10)
O4A O -0.7590(11) -0.5774(8) -1.2716(9)
O5A O -0.9648(15) -0.4703(11) -1.2613(12)
O6A O -1.3591(10) -0.2412(7) -1.0703(9)
O7A O -1.1082(12) -0.3107(8) -1.3353(8)
O8A O -1.1242(17) -0.5878(13) -1.0667(13)
O9A O -0.9489(16) -0.5896(12) -1.0570(12)
O10A O -0.9309(15) -0.4496(11) -1.0712(12)
O11A O -1.1078(13) -0.7133(10) -0.8702(11)
O12A O -1.2874(14) -0.5783(9) -0.9065(11)
O12A_2 O -0.2874(14) -0.5783(9) -0.9065(11)
O13A O -1.2298(13) -0.4854(10) -1.2818(10)
O14A O -1.3966(11) -0.7874(8) -0.9873(11)
O15A O -1.1959(13) -0.7769(10) -1.0821(9)
O16A O -1.1664(15) -0.2991(8) -1.1542(11)
O17A O -1.1489(13) -0.8668(8) -1.2576(8)
O18A O -1.2452(13) -0.6808(9) -1.2525(9)
O19A O -0.9823(14) -0.6704(11) -1.2302(11)
O20A O -1.3762(15) -0.6450(10) -1.1208(10)
O21A O -1.1184(16) -0.4625(13) -1.0896(13)
O22A O -1.2760(12) -0.3855(11) -0.9353(10)
O22A_2 O -0.2760(12) -0.3855(11) -0.9353(10)
Mo1A Mo -1.10272(13) -0.75171(9) -1.17205(10)
Mo2A Mo -1.24229(13) -0.32032(10) -1.04442(11)
Mo3A Mo -1.27288(13) -0.69548(9) -0.99242(11)
Mo4A Mo -1.34057(12) -0.56927(9) -1.22414(10)
Mo5A Mo -0.83824(13) -0.55394(11) -1.18827(10)
Mo6A Mo -1.07007(15) -0.36609(10) -1.22529(10)
Ag1A Ag -1.20902(12) -0.99450(11) -1.45686(10)
Ag1A_2 Ag -1.20902(12) 0.00550(11) -1.45686(10)
Ag1A_3 Ag -0.20902(12) 0.00550(11) -0.45686(10)
Ag2_2 Ag -1.5000 -0.5000 -1.0000
Ag3A Ag -1.35952(11) -0.94766(10) -0.86319(8)
Ag3A_2 Ag -1.35952(11) 0.05234(10) -0.86319(8)
Ag3A_3 Ag -0.35952(11) 0.05234(10) 0.13681(8)
Ag3_2 Ag -0.64048(11) -0.05234(10) -0.13681(8)
Ag3A_4 Ag -0.35952(11) 0.05234(10) -0.86319(8)
Ag4A Ag -1.00579(11) -0.02040(10) -1.15135(9)
Ag4_2 Ag 0.00579(11) 0.02040(10) 0.15135(9)
Ag4A_2 Ag -0.00579(11) -0.02040(10) -0.15135(9)
loop_
_geom_bond_atom_site_label_1
_geom_bond_atom_site_label_2
_geom_bond_site_symmetry_1
_geom_bond_site_symmetry_2
C1 C2 1_555 1_555
C2 N7 1_555 1_555
C3 C1 1_555 1_555
H1 C3 1_555 1_555
C4 C1 1_555 1_555
H2 C4 1_555 1_555
C5 C6 1_555 1_555
C6 C7 1_555 1_555
C7 H3 1_555 1_555
C8 C6 1_555 1_555
H4 C8 1_555 1_555
C9 C8 1_555 1_555
H5 C9 1_555 1_555
C10 C4 1_555 1_555
H6 C10 1_555 1_555
C11 C9 1_555 1_555
H7 C11 1_555 1_555
C12 C10 1_555 1_555
H8 C12 1_555 1_555
N1 C5 1_555 1_555
N2 N1 1_555 1_555
N3 N2 1_555 1_555
N4 C5 1_555 1_555
N5 N6 1_555 1_555
N6 N8 1_555 1_555
N7 N5 1_555 1_555
N8 C2 1_555 1_555
N9 C7 1_555 1_555
N10 C3 1_555 1_555
O1 Mo4 1_555 1_555
O2 Mo1 1_555 1_555
O3 Mo2 1_555 1_555
O4 Mo5 1_555 1_555
O5 Mo5 1_555 1_555
O6 Mo2 1_555 1_555
O7 Mo6 1_555 1_555
O8 P1 1_555 1_555
O9 P1 1_555 1_555
O10 P1 1_555 1_555
O11 Mo3 1_555 1_555
O12 Mo3 1_555 1_555
O13 Mo4 1_555 1_555
O14 Mo3 1_555 1_555
O15 Mo1 1_555 1_555
O16 Mo2 1_555 1_555
O17 Mo1 1_555 1_555
O18 Mo1 1_555 1_555
O19 Mo1 1_555 1_555
O20 Mo3 1_555 1_555
O21 P1 1_555 1_555
O22 Mo2 1_555 1_555
P1 O8A 1_555 1_555
Mo1 O8 1_555 1_555
Mo2 O21 1_555 1_555
Mo3 O8 1_555 1_555
Mo4 O3 1_555 1_555
Mo5 O9 1_555 1_555
Mo6 O5 1_555 1_555
Ag1 N2 1_555 1_555
Ag2 O12 1_555 1_555
Ag3 O14 1_555 1_555
Ag4 N3 1_555 1_555
C1A C2A 1_555 1_555
C2A N7A 1_555 1_555
C3A C1A 1_555 1_555
H1A C3A 1_555 1_555
C4A C1A 1_555 1_555
H2A C4A 1_555 1_555
C5A C6A 1_555 1_555
C6A C7A 1_555 1_555
C7A H3A 1_555 1_555
C8A C6A 1_555 1_555
H4A C8A 1_555 1_555
C9A C8A 1_555 1_555
H5A C9A 1_555 1_555
C10A C4A 1_555 1_555
H6A C10A 1_555 1_555
C11A C9A 1_555 1_555
H7A C11A 1_555 1_555
C12A C10A 1_555 1_555
H8A C12A 1_555 1_555
N1A C5A 1_555 1_555
N2A N1A 1_555 1_555
N2A_2 Ag1A 1_555 1_555
N3A N2A 1_555 1_555
N4A Ag3 1_555 1_555
N4_2 Ag3A 1_555 1_555
N5A Ag3 1_555 1_555
N5_2 Ag3A 1_555 1_555
N6A N5A 1_555 1_555
N6_2 Ag4 1_555 1_555
N7A N5A 1_555 1_555
N7_2 Ag3 1_555 1_555
N7A_2 Ag3A 1_555 1_555
N8A Ag4 1_555 1_555
N8_2 N6_2 1_555 1_555
N9A C7A 1_555 1_555
N10A C3A 1_555 1_555
N10A_2 Ag1A 1_555 1_555
O1A Mo4A 1_555 1_555
O2A Mo2 1_555 1_555
O3A Mo2A 1_555 1_555
O4A Mo5A 1_555 1_555
O5A Mo5A 1_555 1_555
O6A Mo2A 1_555 1_555
O7A Mo6A 1_555 1_555
O8A Mo1A 1_555 1_555
O9A P1 1_555 1_555
O10A P1 1_555 1_555
O11A Mo6 1_555 1_555
O12A Mo5 1_555 1_555
O12A_2 Ag2 1_555 1_555
O13A Mo4A 1_555 1_555
O14A Mo3A 1_555 1_555
O15A Mo1A 1_555 1_555
O16A Mo2A 1_555 1_555
O17A Mo1A 1_555 1_555
O18A Mo1A 1_555 1_555
O19A Mo1A 1_555 1_555
O20A Mo3A 1_555 1_555
O21A P1 1_555 1_555
O22A Mo5 1_555 1_555
O22A_2 Ag2 1_555 1_555
Mo1A O2A 1_555 1_555
Mo2A O2 1_555 1_555
Mo3A O10 1_555 1_555
Mo4A O3A 1_555 1_555
Mo5A O12 1_555 1_555
Mo6A O11 1_555 1_555
Ag1A O17A 1_555 1_555
Ag1A_2 N2A 1_555 1_555
Ag1A_3 N10A 1_555 1_555
Ag2_2 O12A 1_555 1_555
Ag3A O14A 1_555 1_555
Ag3A_2 N4 1_555 1_555
Ag3A_3 N5 1_555 1_555
Ag3_2 N7 1_555 1_555
Ag3A_4 N7A 1_555 1_555
Ag4A N3A 1_555 1_555
Ag4_2 N6 1_555 1_555
Ag4A_2 N8 1_555 1_555
C11 N9 1_555 1_555
C12 N10 1_555 1_555
N3 N4 1_555 1_555
N10 Ag1 1_555 1_555
O8 Mo4 1_555 1_555
O9 Mo1 1_555 1_555
O9 Mo2A 1_555 1_555
O10 Mo5 1_555 1_555
O10 Mo6 1_555 1_555
O13 Mo6 1_555 1_555
O15 Mo3 1_555 1_555
O16 Mo6 1_555 1_555
O17 Ag1 1_555 1_555
O18 Mo4 1_555 1_555
O19 Mo5 1_555 1_555
O20 Mo4 1_555 1_555
O21 Mo4 1_555 1_555
O21 Mo6 1_555 1_555
O22 Ag2 1_555 1_555
O22 Mo5A 1_555 1_555
Mo2 O9A 1_555 1_555
Mo3 O10A 1_555 1_555
C2A N8A 1_555 1_555
C5A N4A 1_555 1_555
C11A N9A 1_555 1_555
C12A N10A 1_555 1_555
N3A N4A 1_555 1_555
N6A N8A 1_555 1_555
N6A Ag4A 1_555 1_555
N8_2 Ag4A 1_555 1_555
O5A Mo6A 1_555 1_555
O8A Mo3A 1_555 1_555
O8A Mo4A 1_555 1_555
O9A Mo1A 1_555 1_555
O9A Mo5A 1_555 1_555
O10A Mo5A 1_555 1_555
O10A Mo6A 1_555 1_555
O11A Mo3A 1_555 1_555
O12A Mo3A 1_555 1_555
O13A Mo6A 1_555 1_555
O15A Mo3A 1_555 1_555
O16A Mo6A 1_555 1_555
O18A Mo4A 1_555 1_555
O19A Mo5A 1_555 1_555
O20A Mo4A 1_555 1_555
O21A Mo2A 1_555 1_555
O21A Mo4A 1_555 1_555
O21A Mo6A 1_555 1_555
O22A Mo2A 1_555 1_555
O22A Ag2_2 1_555 1_555

#END
