
#######################################################################
#
#                 Cambridge Crystallographic Data Centre
#                                CCDC 
#
#######################################################################
#
# If this CIF has been generated from an entry in the Cambridge 
# Structural Database, then it will include bibliographic, chemical, 
# crystal, experimental, refinement or atomic coordinate data resulting 
# from the CCDC's data processing and validation procedures.
#
#######################################################################

data_PATMEE
_symmetry_cell_setting           monoclinic
_symmetry_space_group_name_H-M   'P 21/n'
_symmetry_Int_Tables_number      14
_space_group_name_Hall           '-P 2yn'
loop_
_symmetry_equiv_pos_site_id
_symmetry_equiv_pos_as_xyz
1 x,y,z
2 1/2-x,1/2+y,1/2-z
3 -x,-y,-z
4 1/2+x,1/2-y,1/2+z
_cell_length_a                   12.6610(5)
_cell_length_b                   22.2380(7)
_cell_length_c                   12.9530(5)
_cell_angle_alpha                90
_cell_angle_beta                 111.829(5)
_cell_angle_gamma                90
_cell_volume                     3385.49
loop_
_atom_site_label
_atom_site_type_symbol
_atom_site_fract_x
_atom_site_fract_y
_atom_site_fract_z
O6 O 0.020(2) -0.3342(12) 0.041(2)
O8 O -0.613(2) 0.1453(11) -0.0623(19)
O10 O -0.4730(12) -0.0755(8) -0.5221(16)
W1 W -0.93008(8) 0.09952(4) -0.27241(8)
W2 W -0.93559(8) -0.15422(4) -0.45397(8)
W3 W -0.87777(8) -0.05499(6) -0.22688(8)
W4 W -1.21610(8) 0.06305(4) -0.42632(8)
W5 W -0.71410(8) 0.03080(4) -0.33942(8)
W6 W -1.16021(8) -0.09236(5) -0.39298(8)
Ag1 Ag -0.37260(18) 0.05378(9) -0.1449(3)
Ag2 Ag -0.07754(15) 0.07003(8) -0.06192(17)
Ag3 Ag -0.2018(2) -0.20511(10) -0.1608(2)
Si1 Si -1.0000 0.0000 -0.5000
O1 O -0.997(3) -0.0600(18) -0.423(3)
O2 O -0.450(2) 0.0568(11) -0.0017(19)
O3 O -0.907(3) 0.0176(18) -0.369(3)
O4 O -0.1637(18) -0.2491(9) 0.0056(15)
O5 O -0.9128(17) 0.0228(10) -0.2035(17)
O7 O -1.2171(18) -0.0132(10) -0.3694(17)
O9 O -0.9687(17) 0.1526(10) -0.3890(17)
O11 O -0.6959(18) -0.0309(10) -0.4306(17)
O12 O -0.7457(18) -0.0277(10) -0.2484(18)
O13 O -0.7412(19) 0.0856(10) -0.4564(17)
O14 O -0.8155(17) -0.1279(10) -0.4903(17)
O15 O -1.0298(18) -0.0809(10) -0.2558(17)
O16 O -0.9052(17) -0.2278(10) -0.4380(17)
O17 O -0.874(3) 0.0095(19) -0.508(3)
O18 O -0.8656(18) -0.1290(11) -0.3069(18)
O19 O -1.3185(17) 0.0961(10) -0.3967(17)
O20 O -0.8986(17) 0.1468(10) -0.1638(16)
O21 O -0.5745(18) 0.0448(10) -0.2636(17)
O22 O -1.043(3) 0.0568(17) -0.456(3)
O23 O -1.0761(18) -0.1550(11) -0.4326(18)
O24 O -1.2374(15) -0.1364(8) -0.3438(14)
O25 O -0.8188(14) -0.0827(8) -0.0973(13)
O26 O -1.0855(17) 0.0860(10) -0.3025(17)
O27 O -0.7890(17) 0.0891(10) -0.2837(18)
C1 C -0.5813(19) -0.1439(10) -0.2342(19)
H1 H -0.6555 -0.1301 -0.2536
C2 C -0.4904(18) -0.1032(10) -0.2087(19)
H2 H -0.5027 -0.0619 -0.2118
C3 C -0.5598(18) -0.2022(10) -0.2303(19)
H3 H -0.6197 -0.2294 -0.2475
C4 C -0.656(2) 0.2740(10) -0.404(2)
H4 H -0.7244 0.2933 -0.4445
C5 C -0.4497(18) -0.2236(10) -0.2009(19)
H5 H -0.4357 -0.2647 -0.1958
C6 C -0.5548(19) 0.1951(10) -0.2882(19)
H6 H -0.5516 0.1601 -0.2477
C7 C -0.655(2) 0.2191(10) -0.344(2)
H7 H -0.7223 0.2016 -0.3444
C8 C -0.4549(19) 0.2192(10) -0.2874(19)
C9 C -0.2804(17) -0.0890(9) -0.1390(18)
C10 C -0.3829(17) -0.1265(9) -0.1790(18)
C11 C -0.5557(19) 0.2966(10) -0.399(2)
H8 H -0.5564 0.3319 -0.4376
C12 C -0.3443(18) 0.1952(9) -0.2330(18)
N1 N -0.2682(14) -0.0307(8) -0.1303(15)
N2 N -0.1792(14) -0.1175(7) -0.1019(13)
N3 N -0.1532(14) -0.0234(7) -0.0814(14)
N4 N -0.1024(14) -0.0731(8) -0.0699(14)
N5 N -0.3645(13) -0.1850(7) -0.1803(14)
N6 N -0.3068(14) 0.1453(8) -0.1681(15)
N7 N -0.2549(15) 0.2247(8) -0.2377(15)
N8 N -0.1622(15) 0.1931(8) -0.1806(15)
N9 N -0.1931(15) 0.1459(8) -0.1429(15)
N10 N -0.4529(14) 0.2707(8) -0.3410(14)
W1B W -1.06992(8) -0.09952(4) -0.72759(8)
W2B W -1.06441(8) 0.15422(4) -0.54603(8)
W3B W -1.12223(8) 0.05499(6) -0.77312(8)
W4B W -0.78390(8) -0.06305(4) -0.57368(8)
W5B W -1.28590(8) -0.03080(4) -0.66058(8)
W6B W -0.83979(8) 0.09236(5) -0.60702(8)
Ag1B Ag -1.62740(18) -0.05378(9) -0.8551(3)
Ag1B_2 Ag 0.37260(18) -0.05378(9) 0.1449(3)
Ag1A Ag -0.12740(18) -0.44622(9) -0.3551(3)
Ag2B Ag 0.07754(15) -0.07003(8) 0.06192(17)
Ag2A Ag -0.42246(15) -0.42997(8) -0.43808(17)
Ag3A Ag -0.2982(2) 0.29489(10) -0.3392(2)
Ag3B Ag 0.2018(2) 0.20511(10) 0.1608(2)
O1B O -1.003(3) 0.0600(18) -0.577(3)
O2B O -1.550(2) -0.0568(11) -0.9983(19)
O3B O -1.093(3) -0.0176(18) -0.631(3)
O4A O -0.3363(18) 0.2509(9) -0.5056(15)
O5B O -1.0872(17) -0.0228(10) -0.7965(17)
O7B O -0.7829(18) 0.0132(10) -0.6306(17)
O9B O -1.0313(17) -0.1526(10) -0.6110(17)
O11B O -1.3041(18) 0.0309(10) -0.5694(17)
O12B O -1.2543(18) 0.0277(10) -0.7516(18)
O13B O -1.2588(19) -0.0856(10) -0.5436(17)
O14B O -1.1845(17) 0.1279(10) -0.5097(17)
O15B O -0.9702(18) 0.0809(10) -0.7442(17)
O16B O -1.0948(17) 0.2278(10) -0.5620(17)
O17B O -1.126(3) -0.0095(19) -0.492(3)
O18B O -1.1344(18) 0.1290(11) -0.6931(18)
O19B O -0.6815(17) -0.0961(10) -0.6033(17)
O20B O -1.1014(17) -0.1468(10) -0.8362(16)
O21B O -1.4255(18) -0.0448(10) -0.7364(17)
O22B O -0.957(3) -0.0568(17) -0.544(3)
O23B O -0.9239(18) 0.1550(11) -0.5674(18)
O24B O -0.7626(15) 0.1364(8) -0.6562(14)
O25B O -1.1812(14) 0.0827(8) -0.9027(13)
O26B O -0.9145(17) -0.0860(10) -0.6975(17)
O27B O -1.2110(17) -0.0891(10) -0.7163(18)
C1B C 0.5813(19) 0.1439(10) 0.2342(19)
H1B H 0.6555 0.1301 0.2536
C2B C 0.4904(18) 0.1032(10) 0.2087(19)
H2B H 0.5027 0.0619 0.2118
C3B C 0.5598(18) 0.2022(10) 0.2303(19)
H3B H 0.6197 0.2294 0.2475
C4A C 0.156(2) -0.2260(10) -0.096(2)
H4A H 0.2244 -0.2067 -0.0555
C5B C 0.4497(18) 0.2236(10) 0.2009(19)
H5B H 0.4357 0.2647 0.1958
C6A C 0.0548(19) -0.3049(10) -0.2118(19)
H6A H 0.0516 -0.3399 -0.2523
C7A C 0.155(2) -0.2809(10) -0.156(2)
H7A H 0.2223 -0.2984 -0.1556
C8A C -0.0451(19) -0.2808(10) -0.2126(19)
C9B C 0.2804(17) 0.0890(9) 0.1390(18)
C10B C 0.3829(17) 0.1265(9) 0.1790(18)
C11A C 0.0557(19) -0.2034(10) -0.101(2)
H8A H 0.0564 -0.1681 -0.0624
C12A C -0.1557(18) -0.3048(9) -0.2670(18)
N1B N 0.2682(14) 0.0307(8) 0.1303(15)
N1B_2 N -1.7318(14) 0.0307(8) -0.8697(15)
N2B N 0.1792(14) 0.1175(7) 0.1019(13)
N2A N -0.3208(14) 0.3825(7) -0.3981(13)
N3B N 0.1532(14) 0.0234(7) 0.0814(14)
N4B N 0.1024(14) 0.0731(8) 0.0699(14)
N5B N 0.3645(13) 0.1850(7) 0.1803(14)
N5A N -0.1355(13) 0.3150(7) -0.3197(14)
N6A N -0.1932(14) -0.3547(8) -0.3319(15)
N6B N -1.6932(14) -0.1453(8) -0.8319(15)
N7A N -0.2451(15) -0.2753(8) -0.2623(15)
N8A N -0.3378(15) -0.3069(8) -0.3194(15)
N9A N -0.3069(15) -0.3541(8) -0.3571(15)
N9B N 0.1931(15) -0.1459(8) 0.1429(15)
N10A N -0.0471(14) -0.2293(8) -0.1590(14)
loop_
_geom_bond_atom_site_label_1
_geom_bond_atom_site_label_2
_geom_bond_site_symmetry_1
_geom_bond_site_symmetry_2
W1 O3 1_555 1_555
W2 O1 1_555 1_555
W3 O1 1_555 1_555
W4 O7 1_555 1_555
W5 O3 1_555 1_555
W6 O1 1_555 1_555
Ag1 O2 1_555 1_555
Ag2 N3 1_555 1_555
Ag3 O4 1_555 1_555
Si1 O1 1_555 1_555
O3 W3 1_555 1_555
O5 W1 1_555 1_555
O7 W6 1_555 1_555
O9 W1 1_555 1_555
O11 W5 1_555 1_555
O12 W3 1_555 1_555
O13 W5 1_555 1_555
O14 W2 1_555 1_555
O15 W3 1_555 1_555
O16 W2 1_555 1_555
O17 W5 1_555 1_555
O18 W2 1_555 1_555
O19 W4 1_555 1_555
O20 W1 1_555 1_555
O21 W5 1_555 1_555
O22 W1 1_555 1_555
O23 W2 1_555 1_555
O24 W6 1_555 1_555
O25 W3 1_555 1_555
O26 W1 1_555 1_555
O27 W1 1_555 1_555
C1 H1 1_555 1_555
C2 C1 1_555 1_555
H2 C2 1_555 1_555
C3 C1 1_555 1_555
H3 C3 1_555 1_555
C4 H4 1_555 1_555
C5 C3 1_555 1_555
H5 C5 1_555 1_555
C6 H6 1_555 1_555
C7 C4 1_555 1_555
H7 C7 1_555 1_555
C8 C6 1_555 1_555
C9 C10 1_555 1_555
C10 C2 1_555 1_555
C11 C4 1_555 1_555
H8 C11 1_555 1_555
C12 C8 1_555 1_555
N1 Ag1 1_555 1_555
N2 Ag3 1_555 1_555
N3 N1 1_555 1_555
N4 N2 1_555 1_555
N5 Ag3 1_555 1_555
N6 Ag1 1_555 1_555
N7 C12 1_555 1_555
N8 N7 1_555 1_555
N9 Ag2 1_555 1_555
N10 C8 1_555 1_555
W1B O3B 1_555 1_555
W2B O9 1_555 1_555
W3B O1B 1_555 1_555
W4B O11 1_555 1_555
W5B O3B 1_555 1_555
W6B O13 1_555 1_555
Ag1B O2B 1_555 1_555
Ag1B_2 N1B 1_555 1_555
Ag1A N6A 1_555 1_555
Ag2B N4 1_555 1_555
Ag2A N9A 1_555 1_555
Ag3A N7 1_555 1_555
Ag3B N2B 1_555 1_555
O1B Si1 1_555 1_555
O3B Si1 1_555 1_555
O4A Ag3A 1_555 1_555
O5B W1B 1_555 1_555
O7B W4B 1_555 1_555
O9B W2 1_555 1_555
O11B W4 1_555 1_555
O12B W3B 1_555 1_555
O13B W6 1_555 1_555
O14B W4 1_555 1_555
O15B W3B 1_555 1_555
O16B W2B 1_555 1_555
O17B W4 1_555 1_555
O18B W2B 1_555 1_555
O19B W4B 1_555 1_555
O20B W1B 1_555 1_555
O21B W5B 1_555 1_555
O22B W2 1_555 1_555
O23B W2B 1_555 1_555
O24B W6B 1_555 1_555
O25B W3B 1_555 1_555
O26B W1B 1_555 1_555
O27B W1B 1_555 1_555
C1B H1B 1_555 1_555
C2B C1B 1_555 1_555
H2B C2B 1_555 1_555
C3B C1B 1_555 1_555
H3B C3B 1_555 1_555
C4A H4A 1_555 1_555
C5B C3B 1_555 1_555
H5B C5B 1_555 1_555
C6A H6A 1_555 1_555
C7A C4A 1_555 1_555
H7A C7A 1_555 1_555
C8A C6A 1_555 1_555
C9B C10B 1_555 1_555
C10B C2B 1_555 1_555
C11A C4A 1_555 1_555
H8A C11A 1_555 1_555
C12A C8A 1_555 1_555
N1B C9B 1_555 1_555
N1B_2 Ag1B 1_555 1_555
N2B C9B 1_555 1_555
N2A Ag3A 1_555 1_555
N3B Ag2B 1_555 1_555
N4B Ag2 1_555 1_555
N5B Ag3B 1_555 1_555
N5A Ag3A 1_555 1_555
N6A C12A 1_555 1_555
N6B Ag1B 1_555 1_555
N7A Ag3 1_555 1_555
N8A N7A 1_555 1_555
N9A N6A 1_555 1_555
N9B Ag2B 1_555 1_555
N10A Ag3 1_555 1_555
W3 O5 1_555 1_555
W3 O18 1_555 1_555
W4 O22 1_555 1_555
W4 O26 1_555 1_555
W5 O12 1_555 1_555
W5 O27 1_555 1_555
W6 O15 1_555 1_555
W6 O23 1_555 1_555
W6 O17B 1_555 1_555
Ag1 O21 1_555 1_555
Si1 O3 1_555 1_555
Si1 O17 1_555 1_555
Si1 O22 1_555 1_555
Si1 O17B 1_555 1_555
Si1 O22B 1_555 1_555
O14 W4B 1_555 1_555
O17 W4B 1_555 1_555
O17 W6B 1_555 1_555
O22 W2B 1_555 1_555
C5 N5 1_555 1_555
C6 C7 1_555 1_555
C9 N1 1_555 1_555
C9 N2 1_555 1_555
C10 N5 1_555 1_555
C11 N10 1_555 1_555
C12 N6 1_555 1_555
N3 N4 1_555 1_555
N6 N9 1_555 1_555
N8 N9 1_555 1_555
N10 Ag3A 1_555 1_555
W1B O9B 1_555 1_555
W1B O22B 1_555 1_555
W2B O1B 1_555 1_555
W2B O14B 1_555 1_555
W3B O3B 1_555 1_555
W3B O5B 1_555 1_555
W3B O18B 1_555 1_555
W4B O22B 1_555 1_555
W4B O26B 1_555 1_555
W5B O11B 1_555 1_555
W5B O12B 1_555 1_555
W5B O13B 1_555 1_555
W5B O17B 1_555 1_555
W5B O27B 1_555 1_555
W6B O1B 1_555 1_555
W6B O7B 1_555 1_555
W6B O15B 1_555 1_555
W6B O23B 1_555 1_555
Ag1B O21B 1_555 1_555
C5B N5B 1_555 1_555
C6A C7A 1_555 1_555
C8A N10A 1_555 1_555
C10B N5B 1_555 1_555
C11A N10A 1_555 1_555
C12A N7A 1_555 1_555
N1B N3B 1_555 1_555
N2B N4B 1_555 1_555
N3B N4B 1_555 1_555
N8A N9A 1_555 1_555

#END
