
#######################################################################
#
#                 Cambridge Crystallographic Data Centre
#                                CCDC 
#
#######################################################################
#
# If this CIF has been generated from an entry in the Cambridge 
# Structural Database, then it will include bibliographic, chemical, 
# crystal, experimental, refinement or atomic coordinate data resulting 
# from the CCDC's data processing and validation procedures.
#
#######################################################################

data_PATNIJ
_symmetry_cell_setting           triclinic
_symmetry_space_group_name_H-M   'P -1'
_symmetry_Int_Tables_number      2
_space_group_name_Hall           '-P 1'
loop_
_symmetry_equiv_pos_site_id
_symmetry_equiv_pos_as_xyz
1 x,y,z
2 -x,-y,-z
_cell_length_a                   11.655(5)
_cell_length_b                   11.968(5)
_cell_length_c                   13.259(5)
_cell_angle_alpha                112.989(5)
_cell_angle_beta                 99.356(5)
_cell_angle_gamma                109.907(5)
_cell_volume                     1504.63
loop_
_atom_site_label
_atom_site_type_symbol
_atom_site_fract_x
_atom_site_fract_y
_atom_site_fract_z
Mo1 Mo -0.80435(10) 0.44839(10) 0.52828(10)
Mo2 Mo -0.44392(10) 0.21917(10) 0.34528(10)
Ag1 Ag -1.15175(10) 0.32080(11) 0.58990(10)
Ag2 Ag -0.88415(10) 0.71703(10) 0.71223(9)
Mo3 Mo -0.76625(11) 0.39265(12) 0.25551(9)
Mo4 Mo -0.46354(10) 0.43366(13) 0.22588(9)
Mo5 Mo -0.75432(11) 0.16870(10) 0.36291(11)
Mo6 Mo -0.50537(11) 0.72240(11) 0.38682(10)
Si1 Si -0.5000 0.5000 0.5000
S1 S -0.6804(5) 0.8095(6) 1.0038(5)
O1 O -0.9510(7) 0.4246(9) 0.5352(7)
O2 O -0.5096(11) 0.8264(13) 0.3349(13)
N1 N -0.8888(10) 0.6028(11) 0.8066(9)
N2 N -0.9681(12) 0.4749(13) 0.7705(10)
O3 O -0.8419(14) 0.4330(11) 0.3703(10)
C1 C -1.1523(15) -0.0069(15) 0.2673(15)
N3 N -1.1472(11) -0.0571(11) 0.3376(13)
O4 O -0.4375(12) 0.4071(12) 0.1021(8)
O5 O -0.6592(13) 0.4069(13) 0.4319(12)
O6 O -0.5394(13) 0.5122(14) 0.3849(12)
O7 O -0.6387(10) 0.3657(12) 0.1825(11)
O8 O -0.5317(14) 0.3460(14) 0.4715(12)
C2 C -0.8073(14) 0.6485(16) 0.9118(13)
N4 N -0.8374(13) 0.5466(17) 0.9359(12)
O9 O -0.7306(9) 0.6401(10) 0.5820(10)
O10 O -0.4491(9) 0.6113(11) 0.2809(12)
O11 O -0.5733(9) 0.7801(15) 0.5085(9)
O12 O -0.6789(9) 0.5774(10) 0.3008(11)
N5 N -0.9381(13) 0.4376(14) 0.8438(12)
O13 O -0.6630(9) 0.1814(15) 0.5042(9)
O14 O -0.4689(11) 0.2782(12) 0.2323(12)
O15 O -0.7199(9) 0.4747(11) 0.6686(10)
O16 O -0.8288(14) 0.2694(12) 0.4572(11)
O17 O -0.5711(13) 0.5569(14) 0.5879(13)
N6 N -1.1396(13) 0.0322(13) 0.4445(14)
N7 N -1.1423(11) 0.1331(11) 0.4336(11)
N8 N -0.8536(10) 0.8839(11) 0.6759(10)
S2 S -1.1670(8) -0.0952(8) 0.1223(5)
O18 O -0.8885(9) 0.3378(11) 0.1363(8)
O19 O -0.8712(9) 0.0138(9) 0.3024(9)
O20 O -0.4229(11) 0.0851(10) 0.2706(10)
O21 O -0.6257(10) 0.1376(14) 0.3056(10)
O22 O -1.2353(14) 0.1766(14) 0.6741(15)
O23 O -0.8014(16) 0.2189(13) 0.2508(12)
C3 C -1.1472(19) -0.1880(16) 0.3177(19)
H1 H -1.1525 -0.2380 0.2388
H2 H -1.0686 -0.1712 0.3702
H3 H -1.2206 -0.2396 0.3313
C4 C -1.173(3) 0.054(3) 0.016(2)
H4 H -1.1303 0.0078 -0.0298
H5 H -1.1072 0.1306 0.0877
C5 C -0.773(2) 0.551(3) 1.045(2)
H6 H -0.7034 0.6399 1.0962
H7 H -0.7390 0.4857 1.0261
H8 H -0.8351 0.5302 1.0821
C6 C -1.268(2) -0.042(2) 0.0434(16)
H9 H -1.3086 0.0034 0.0924
H10 H -1.3349 -0.1195 -0.0274
C7 C -0.764(3) 0.901(3) 1.046(2)
H11 H -0.8290 0.8497 1.0680
H12 H -0.7026 0.9824 1.1178
Mo2A Mo -0.55608(10) 0.78083(10) 0.65472(10)
Mo4A Mo -0.53646(10) 0.56634(13) 0.77412(9)
Mo6A Mo -0.49463(11) 0.27760(11) 0.61318(10)
C1A C -0.8477(15) 1.0069(15) 0.7327(15)
O5A O -0.3408(13) 0.5931(13) 0.5681(12)
O6A O -0.4606(13) 0.4878(14) 0.6151(12)
O8A O -0.4683(14) 0.6540(14) 0.5285(12)
O9A O -0.2694(9) 0.3599(10) 0.4180(10)
O11A O -0.4267(9) 0.2199(15) 0.4915(9)
O13A O -0.3370(9) 0.8186(15) 0.4958(9)
O15A O -0.2801(9) 0.5253(11) 0.3314(10)
O17A O -0.4289(13) 0.4431(14) 0.4121(13)
N7A N -0.8577(11) 0.8669(11) 0.5664(11)
N8A N -1.1464(10) 0.1161(11) 0.3241(10)
C4A C -0.827(3) 0.946(3) 0.984(2)
C7A C -1.236(3) 0.099(3) -0.046(2)
loop_
_geom_bond_atom_site_label_1
_geom_bond_atom_site_label_2
_geom_bond_site_symmetry_1
_geom_bond_site_symmetry_2
Mo1 O1 1_555 1_555
Mo2 O8 1_555 1_555
Ag1 O1 1_555 1_555
Ag2 N1 1_555 1_555
Mo3 O3 1_555 1_555
Mo4 O4 1_555 1_555
Mo5 O5 1_555 1_555
Mo6 O2 1_555 1_555
Si1 O5 1_555 1_555
S1 C2 1_555 1_555
N1 N2 1_555 1_555
N2 Ag1 1_555 1_555
O3 Mo1 1_555 1_555
C1 N3 1_555 1_555
N3 N6 1_555 1_555
O5 Mo1 1_555 1_555
O6 Mo3 1_555 1_555
O7 Mo3 1_555 1_555
O8 Mo5 1_555 1_555
C2 N1 1_555 1_555
N4 C2 1_555 1_555
O9 Mo1 1_555 1_555
O10 Mo4 1_555 1_555
O11 Mo6 1_555 1_555
O12 Mo3 1_555 1_555
N5 N2 1_555 1_555
O13 Mo5 1_555 1_555
O14 Mo2 1_555 1_555
O15 Mo1 1_555 1_555
O16 Mo1 1_555 1_555
O17 Mo1 1_555 1_555
N6 N7 1_555 1_555
N7 Ag1 1_555 1_555
N8 Ag2 1_555 1_555
S2 C1 1_555 1_555
O18 Mo3 1_555 1_555
O19 Mo5 1_555 1_555
O20 Mo2 1_555 1_555
O21 Mo2 1_555 1_555
O22 Ag1 1_555 1_555
O23 Mo3 1_555 1_555
C3 N3 1_555 1_555
H1 C3 1_555 1_555
H2 C3 1_555 1_555
H3 C3 1_555 1_555
C4 H4 1_555 1_555
H5 C4 1_555 1_555
C5 N4 1_555 1_555
H6 C5 1_555 1_555
H7 C5 1_555 1_555
H8 C5 1_555 1_555
C6 S2 1_555 1_555
H9 C6 1_555 1_555
H10 C6 1_555 1_555
C7 S1 1_555 1_555
H11 C7 1_555 1_555
H12 C7 1_555 1_555
Mo2A O9 1_555 1_555
Mo4A O15 1_555 1_555
Mo6A O8 1_555 1_555
C1A N8 1_555 1_555
O5A Si1 1_555 1_555
O6A Si1 1_555 1_555
O8A Mo6 1_555 1_555
O9A Mo2 1_555 1_555
O11A Mo2 1_555 1_555
O13A Mo6 1_555 1_555
O15A Mo4 1_555 1_555
O17A Mo2 1_555 1_555
N7A N8 1_555 1_555
N8A C1 1_555 1_555
C4A C7 1_555 1_555
C7A C4 1_555 1_555
Mo3 O5 1_555 1_555
Mo4 O6 1_555 1_555
Mo4 O7 1_555 1_555
Mo4 O14 1_555 1_555
Mo4 O17A 1_555 1_555
Mo5 O16 1_555 1_555
Mo5 O21 1_555 1_555
Mo5 O23 1_555 1_555
Mo6 O6 1_555 1_555
Mo6 O10 1_555 1_555
Mo6 O12 1_555 1_555
Si1 O6 1_555 1_555
Si1 O8 1_555 1_555
Si1 O17 1_555 1_555
Si1 O8A 1_555 1_555
Si1 O17A 1_555 1_555
N4 N5 1_555 1_555
O11 Mo2A 1_555 1_555
O13 Mo6A 1_555 1_555
O17 Mo2A 1_555 1_555
O17 Mo4A 1_555 1_555
N7 N8A 1_555 1_555
C4 C6 1_555 1_555
Mo2A O8A 1_555 1_555
Mo4A O6A 1_555 1_555
Mo6A O6A 1_555 1_555
Mo6A O11A 1_555 1_555

#END
