
#######################################################################
#
#                 Cambridge Crystallographic Data Centre
#                                CCDC 
#
#######################################################################
#
# If this CIF has been generated from an entry in the Cambridge 
# Structural Database, then it will include bibliographic, chemical, 
# crystal, experimental, refinement or atomic coordinate data resulting 
# from the CCDC's data processing and validation procedures.
#
#######################################################################

data_PATNEF
_symmetry_cell_setting           triclinic
_symmetry_space_group_name_H-M   'P -1'
_symmetry_Int_Tables_number      2
_space_group_name_Hall           '-P 1'
loop_
_symmetry_equiv_pos_site_id
_symmetry_equiv_pos_as_xyz
1 x,y,z
2 -x,-y,-z
_cell_length_a                   11.722(5)
_cell_length_b                   11.788(5)
_cell_length_c                   13.251(5)
_cell_angle_alpha                98.789(5)
_cell_angle_beta                 115.721(5)
_cell_angle_gamma                109.598(5)
_cell_volume                     1454.84
loop_
_atom_site_label
_atom_site_type_symbol
_atom_site_fract_x
_atom_site_fract_y
_atom_site_fract_z
Mo1 Mo 0.10590(12) -0.02752(11) 0.28567(9)
Ag1 Ag -0.16639(14) -0.62638(14) 0.10381(12)
Si1 Si 0.0000 0.0000 0.0000
S1 S 0.3786(6) -0.1852(5) 0.5297(4)
O1 O -0.0018(13) -0.2117(14) 0.1773(14)
O2 O 0.0739(12) -0.1677(11) -0.2049(13)
O3 O 0.1553(12) -0.2228(13) 0.0822(12)
O4 O 0.1600(16) 0.0394(14) 0.0318(13)
O5 O 0.1598(12) 0.1421(12) 0.3259(15)
O6 O 0.2903(16) 0.2982(19) 0.2553(14)
O7 O 0.0635(14) 0.3328(17) 0.1303(12)
O8 O 0.0650(16) -0.0753(13) 0.0855(13)
O9 O 0.387(2) 0.1325(12) 0.2015(10)
O10 O 0.3231(13) 0.0149(11) -0.1734(12)
O11 O 0.1459(13) -0.0505(12) 0.4150(10)
O12 O -0.0654(11) -0.4432(9) 0.0377(9)
O13 O -0.0915(16) -0.1531(14) -0.0713(13)
O14 O 0.326(2) 0.1740(12) -0.0007(11)
O15 O 0.0018(16) 0.0427(14) 0.1202(13)
O16 O 0.2543(14) -0.0250(13) 0.2749(14)
O17 O -0.0909(12) -0.0547(11) 0.2267(15)
O18 O 0.2339(16) 0.3285(18) 0.0474(12)
O19 O 0.1708(13) 0.3842(11) 0.3700(9)
O20 O 0.5060(10) 0.3780(10) 0.2129(10)
O21 O 0.4402(10) -0.0754(10) 0.2252(9)
O22 O 0.295(2) -0.0554(12) 0.0062(11)
O23 O -0.3393(14) -0.7585(14) 0.1357(14)
C1 C 0.121(4) -0.259(3) 0.577(2)
H1 H 0.2165 -0.1946 0.6342
H2 H 0.0592 -0.2184 0.5559
H3 H 0.0914 -0.3210 0.6102
C2 C 0.2045(18) -0.3014(15) 0.4345(14)
C3 C 0.4688(19) -0.2016(16) 0.4484(15)
H4 H 0.5591 -0.1254 0.4868
H5 H 0.4119 -0.2054 0.3675
C4 C 0.4948(18) -0.3186(18) 0.4426(16)
H6 H 0.5321 -0.3260 0.5211
H7 H 0.4054 -0.3948 0.3879
C5 C 0.710(2) -0.348(2) 0.206(2)
H8 H 0.7186 -0.3598 0.1366
H9 H 0.7199 -0.4136 0.2380
H10 H 0.7827 -0.2648 0.2650
C6 C 0.5203(16) -0.3427(14) 0.2427(15)
N1 N 0.0017(14) -0.4565(13) 0.2888(11)
N2 N -0.0171(16) -0.4187(16) 0.3753(14)
N3 N 0.115(2) -0.3232(15) 0.4680(15)
N4 N 0.1404(14) -0.3823(13) 0.3206(10)
N5 N 0.4783(15) -0.3717(15) 0.0621(13)
N6 N 0.3894(12) -0.3587(11) 0.1720(10)
N7 N 0.3669(13) -0.3755(12) 0.0615(11)
N8 N 0.5739(14) -0.3541(13) 0.1725(13)
Ag2 Ag -0.20698(11) -0.60022(11) -0.19351(9)
Mo2 Mo 0.34683(12) 0.25637(11) 0.15412(10)
S2 S 0.6177(5) -0.3114(6) 0.3936(4)
Mo3 Mo 0.21978(13) 0.01792(11) -0.11837(11)
Mo4 Mo 0.29736(12) -0.05773(11) 0.14478(10)
Mo5 Mo 0.10656(12) 0.26169(10) 0.24654(9)
Mo6 Mo -0.05068(12) -0.29880(10) 0.02926(11)
Mo1A Mo -0.10590(12) 0.02752(11) -0.28567(9)
Ag1A Ag 0.16639(14) 0.62638(14) -0.10381(12)
Ag1A_2 Ag 0.16639(14) -0.37362(14) -0.10381(12)
S1A S -0.3786(6) -0.8148(5) -0.5297(4)
O1A O 0.0018(13) 0.2117(14) -0.1773(14)
O2A O -0.0739(12) 0.1677(11) 0.2049(13)
O3A O -0.1553(12) 0.2228(13) -0.0822(12)
O4A O -0.1600(16) -0.0394(14) -0.0318(13)
O5A O -0.1598(12) -0.1421(12) -0.3259(15)
O6A O -0.2903(16) -0.2982(19) -0.2553(14)
O7A O -0.0635(14) -0.3328(17) -0.1303(12)
O8A O -0.0650(16) 0.0753(13) -0.0855(13)
O9A O -0.387(2) -0.1325(12) -0.2015(10)
O10A O -0.3231(13) -0.0149(11) 0.1734(12)
O11A O -0.1459(13) 0.0505(12) -0.4150(10)
O12A O 0.0654(11) 0.4432(9) -0.0377(9)
O13A O 0.0915(16) 0.1531(14) 0.0713(13)
O14A O -0.326(2) -0.1740(12) 0.0007(11)
O15A O -0.0018(16) -0.0427(14) -0.1202(13)
O16A O -0.2543(14) 0.0250(13) -0.2749(14)
O17A O 0.0909(12) 0.0547(11) -0.2267(15)
O18A O -0.2339(16) -0.3285(18) -0.0474(12)
O19A O -0.1708(13) -0.3842(11) -0.3700(9)
O20A O -0.5060(10) -0.3780(10) -0.2129(10)
O21A O -0.4402(10) 0.0754(10) -0.2252(9)
O22A O -0.295(2) 0.0554(12) -0.0062(11)
O23A O 0.3393(14) 0.7585(14) -0.1357(14)
C1A C -0.121(4) -0.741(3) -0.577(2)
H1A H -0.2165 -0.8054 -0.6342
H2A H -0.0592 -0.7816 -0.5559
H3A H -0.0914 -0.6790 -0.6102
C2A C -0.2045(18) -0.6986(15) -0.4345(14)
C3A C -0.4688(19) -0.7984(16) -0.4484(15)
H4A H -0.5591 -0.8746 -0.4868
H5A H -0.4119 -0.7946 -0.3675
C4A C -0.4948(18) -0.6814(18) -0.4426(16)
H6A H -0.5321 -0.6740 -0.5211
H7A H -0.4054 -0.6052 -0.3879
C5A C -0.710(2) -0.652(2) -0.206(2)
H8A H -0.7186 -0.6402 -0.1366
H9A H -0.7199 -0.5864 -0.2380
H10A H -0.7827 -0.7352 -0.2650
C6A C -0.5203(16) -0.6573(14) -0.2427(15)
N1A N -0.0017(14) -0.5435(13) -0.2888(11)
N1A_2 N -0.0017(14) 0.4565(13) -0.2888(11)
N2A N 0.0171(16) -0.5813(16) -0.3753(14)
N3A N -0.115(2) -0.6768(15) -0.4680(15)
N4A N -0.1404(14) -0.6177(13) -0.3206(10)
N4_2 N 0.1404(14) 0.6177(13) 0.3206(10)
N5A N -0.4783(15) -0.6283(15) -0.0621(13)
N6A N -0.3894(12) -0.6413(11) -0.1720(10)
N6_2 N 0.3894(12) 0.6413(11) 0.1720(10)
N7A N -0.3669(13) -0.6245(12) -0.0615(11)
N7_2 N 0.3669(13) 0.6245(12) 0.0615(11)
N8A N -0.5739(14) -0.6459(13) -0.1725(13)
Ag2A Ag 0.20698(11) 0.60022(11) 0.19351(9)
Ag2A_2 Ag 0.20698(11) -0.39978(11) 0.19351(9)
Mo2A Mo -0.34683(12) -0.25637(11) -0.15412(10)
S2A S -0.6177(5) -0.6886(6) -0.3936(4)
Mo3A Mo -0.21978(13) -0.01792(11) 0.11837(11)
Mo4A Mo -0.29736(12) 0.05773(11) -0.14478(10)
Mo5A Mo -0.10656(12) -0.26169(10) -0.24654(9)
Mo6A Mo 0.05068(12) 0.29880(10) -0.02926(11)
loop_
_geom_bond_atom_site_label_1
_geom_bond_atom_site_label_2
_geom_bond_site_symmetry_1
_geom_bond_site_symmetry_2
Mo1 O1 1_555 1_555
Ag1 O12 1_555 1_555
Si1 O4 1_555 1_555
S1 C2 1_555 1_555
O1 Mo6 1_555 1_555
O2 Mo3 1_555 1_555
O3 Mo4 1_555 1_555
O4 Mo2 1_555 1_555
O5 Mo1 1_555 1_555
O6 Mo2 1_555 1_555
O7 Mo5 1_555 1_555
O8 Mo1 1_555 1_555
O9 Mo2 1_555 1_555
O10 Mo3 1_555 1_555
O11 Mo1 1_555 1_555
O12 Ag2 1_555 1_555
O13 Si1 1_555 1_555
O14 Mo2 1_555 1_555
O15 Mo1 1_555 1_555
O16 Mo1 1_555 1_555
O17 Mo1 1_555 1_555
O18 Mo2 1_555 1_555
O19 Mo5 1_555 1_555
O20 Mo2 1_555 1_555
O21 Mo4 1_555 1_555
O22 Mo3 1_555 1_555
O23 Ag1 1_555 1_555
C1 H1 1_555 1_555
H2 C1 1_555 1_555
H3 C1 1_555 1_555
C2 N3 1_555 1_555
C3 S1 1_555 1_555
H4 C3 1_555 1_555
H5 C3 1_555 1_555
C4 C3 1_555 1_555
H6 C4 1_555 1_555
H7 C4 1_555 1_555
C5 H8 1_555 1_555
H9 C5 1_555 1_555
H10 C5 1_555 1_555
C6 N6 1_555 1_555
N1 Ag1 1_555 1_555
N2 N1 1_555 1_555
N3 C1 1_555 1_555
N4 C2 1_555 1_555
N5 N7 1_555 1_555
N6 N7 1_555 1_555
N7 Ag1A_2 1_555 1_555
N8 C5 1_555 1_555
Ag2 N4A 1_555 1_555
Mo2 O13A 1_555 1_555
S2 C4 1_555 1_555
Mo3 O4 1_555 1_555
Mo4 O4 1_555 1_555
Mo5 O5 1_555 1_555
Mo6 O3 1_555 1_555
Mo1A O1A 1_555 1_555
Ag1A O12A 1_555 1_555
Ag1A_2 N1A 1_555 1_555
S1A C2A 1_555 1_555
O1A Mo6A 1_555 1_555
O2A Mo5 1_555 1_555
O3A Mo4A 1_555 1_555
O4A Si1 1_555 1_555
O5A Mo1A 1_555 1_555
O6A Mo2A 1_555 1_555
O7A Mo6 1_555 1_555
O8A Si1 1_555 1_555
O9A Mo2A 1_555 1_555
O10A Mo3A 1_555 1_555
O11A Mo1A 1_555 1_555
O12A Ag2A 1_555 1_555
O13A Si1 1_555 1_555
O14A Mo2A 1_555 1_555
O15A Si1 1_555 1_555
O16A Mo1A 1_555 1_555
O17A Mo3 1_555 1_555
O18A Mo6 1_555 1_555
O19A Mo5A 1_555 1_555
O20A Mo2A 1_555 1_555
O21A Mo4A 1_555 1_555
O22A Mo3A 1_555 1_555
O23A Ag1A 1_555 1_555
C1A H1A 1_555 1_555
H2A C1A 1_555 1_555
H3A C1A 1_555 1_555
C2A N3A 1_555 1_555
C3A S1A 1_555 1_555
H4A C3A 1_555 1_555
H5A C3A 1_555 1_555
C4A C3A 1_555 1_555
H6A C4A 1_555 1_555
H7A C4A 1_555 1_555
C5A H8A 1_555 1_555
H9A C5A 1_555 1_555
H10A C5A 1_555 1_555
C6A N6A 1_555 1_555
N1A N2A 1_555 1_555
N1A_2 Ag1A 1_555 1_555
N2A N3A 1_555 1_555
N3A C1A 1_555 1_555
N4A C2A 1_555 1_555
N4_2 Ag2A 1_555 1_555
N5A N7A 1_555 1_555
N6A Ag2 1_555 1_555
N6_2 N7_2 1_555 1_555
N7A Ag1 1_555 1_555
N7_2 Ag1A 1_555 1_555
N8A C5A 1_555 1_555
Ag2A N6_2 1_555 1_555
Ag2A_2 N4 1_555 1_555
Mo2A O13 1_555 1_555
S2A C4A 1_555 1_555
Mo3A O15 1_555 1_555
Mo4A O4A 1_555 1_555
Mo5A O2 1_555 1_555
Mo6A O7 1_555 1_555
Si1 O8 1_555 1_555
Si1 O15 1_555 1_555
O6 Mo5 1_555 1_555
O8 Mo4 1_555 1_555
O8 Mo6 1_555 1_555
O9 Mo4 1_555 1_555
O12 Mo6 1_555 1_555
O13 Mo6 1_555 1_555
O13 Mo5A 1_555 1_555
O14 Mo3 1_555 1_555
O15 Mo5 1_555 1_555
O16 Mo4 1_555 1_555
O17 Mo3A 1_555 1_555
O18 Mo6A 1_555 1_555
O22 Mo4 1_555 1_555
C6 N8 1_555 1_555
C6 S2 1_555 1_555
N1 N4 1_555 1_555
N2 N3 1_555 1_555
N5 N8 1_555 1_555
N6 Ag2A_2 1_555 1_555
Mo3 O15A 1_555 1_555
Mo5 O13A 1_555 1_555
Mo1A O8A 1_555 1_555
Mo1A O15A 1_555 1_555
Mo1A O17A 1_555 1_555
O2A Mo3A 1_555 1_555
O3A Mo6A 1_555 1_555
O4A Mo2A 1_555 1_555
O4A Mo3A 1_555 1_555
O5A Mo5A 1_555 1_555
O6A Mo5A 1_555 1_555
O7A Mo5A 1_555 1_555
O8A Mo4A 1_555 1_555
O8A Mo6A 1_555 1_555
O9A Mo4A 1_555 1_555
O12A Mo6A 1_555 1_555
O13A Mo6A 1_555 1_555
O14A Mo3A 1_555 1_555
O15A Mo5A 1_555 1_555
O16A Mo4A 1_555 1_555
O18A Mo2A 1_555 1_555
O22A Mo4A 1_555 1_555
C6A N8A 1_555 1_555
C6A S2A 1_555 1_555
N1A N4A 1_555 1_555
N5A N8A 1_555 1_555
N6A N7A 1_555 1_555

#END
