
#######################################################################
#
#                 Cambridge Crystallographic Data Centre
#                                CCDC 
#
#######################################################################
#
# If this CIF has been generated from an entry in the Cambridge 
# Structural Database, then it will include bibliographic, chemical, 
# crystal, experimental, refinement or atomic coordinate data resulting 
# from the CCDC's data processing and validation procedures.
#
#######################################################################

data_PATNAB
_symmetry_cell_setting           monoclinic
_symmetry_space_group_name_H-M   'P 21/c'
_symmetry_Int_Tables_number      14
_space_group_name_Hall           '-P 2ybc'
loop_
_symmetry_equiv_pos_site_id
_symmetry_equiv_pos_as_xyz
1 x,y,z
2 -x,1/2+y,1/2-z
3 -x,-y,-z
4 x,1/2-y,1/2+z
_cell_length_a                   9.939(5)
_cell_length_b                   14.021(5)
_cell_length_c                   20.341(5)
_cell_angle_alpha                90
_cell_angle_beta                 107.325(16)
_cell_angle_gamma                90
_cell_volume                     2706.01
loop_
_atom_site_label
_atom_site_type_symbol
_atom_site_fract_x
_atom_site_fract_y
_atom_site_fract_z
O23 O 0.5109(9) 0.3347(6) -0.0169(5)
Cl1 Cl -0.4969(3) 0.01361(17) -0.45510(13)
Ag1 Ag 0.32829(8) 0.15419(5) -0.28177(4)
Ag2 Ag -0.15706(8) -0.02776(5) -0.54759(4)
Ag3 Ag -0.29940(8) -0.12956(7) -0.36485(4)
Mo1 Mo 0.85415(8) -0.12368(6) 0.11693(4)
Mo2 Mo 0.93113(8) -0.08270(5) -0.17133(4)
Mo3 Mo 0.66957(8) 0.05046(6) -0.12388(4)
Mo4 Mo 0.75252(8) -0.18568(6) -0.06077(5)
Mo5 Mo 1.27529(7) -0.10476(5) -0.05278(4)
Mo6 Mo -0.09910(8) 0.26070(5) -0.54610(4)
S1 S -0.2232(2) -0.01753(18) -0.44083(12)
Si1 Si 1.0000 0.0000 0.0000
O1 O 0.9917(8) -0.2055(10) 0.1102(5)
O2 O 0.8392(11) -0.1723(6) -0.1370(7)
O3 O 1.1074(8) -0.1311(5) -0.1313(4)
O4 O 0.9297(9) -0.2575(10) -0.0193(5)
O5 O 0.7705(11) 0.0024(6) -0.1782(7)
O6 O 1.1225(11) -0.0678(7) 0.0159(5)
O7 O -0.1468(10) 0.1504(5) -0.5725(4)
O8 O 0.5110(7) 0.0685(6) -0.1784(3)
O9 O 1.3945(8) -0.1627(6) -0.0787(6)
O10 O 0.6468(7) -0.2779(4) -0.0904(3)
O11 O 0.7754(8) -0.1825(6) 0.1656(4)
O12 O 1.1967(11) -0.2161(7) -0.0144(4)
O13 O 0.7552(11) 0.1669(6) -0.1150(4)
O14 O 0.7250(8) -0.0142(5) 0.0871(4)
O15 O 0.9722(7) -0.0410(5) 0.1751(4)
O16 O 0.7407(9) -0.1681(10) 0.0243(5)
O17 O 0.9498(11) -0.0990(7) 0.0224(5)
O18 O 1.0627(11) -0.0145(7) -0.0556(5)
O19 O 0.6309(12) 0.0751(7) -0.0359(4)
O20 O 0.6490(12) -0.0824(6) -0.0969(7)
O21 O -0.1001(9) -0.1152(6) -0.2533(4)
N1 N 0.0867(8) 0.1329(5) -0.3317(4)
C1 C 0.5621(8) 0.4129(6) -0.1888(4)
N2 N 0.0302(7) 0.0704(5) -0.3841(4)
N3 N 0.4690(7) 0.2806(5) -0.2349(4)
N4 N -0.1272(8) 0.1164(5) -0.3376(4)
N5 N 0.4546(7) 0.3544(5) -0.1929(4)
N6 N 0.6380(8) 0.3748(5) -0.2268(4)
N7 N -0.0073(8) 0.1610(5) -0.3045(4)
C2 C -0.2540(11) 0.1337(9) -0.3181(6)
H1 H -0.2338 0.1782 -0.2806
H2 H -0.2864 0.0748 -0.3041
H3 H -0.3257 0.1595 -0.3567
C3 C 0.7678(11) 0.4082(8) -0.2387(6)
H4 H 0.7953 0.4678 -0.2154
H5 H 0.7524 0.4168 -0.2872
H6 H 0.8410 0.3620 -0.2214
C4 C -0.1027(9) 0.0588(6) -0.3866(4)
N8 N 0.5785(8) 0.2917(5) -0.2548(4)
O22 O 0.8867(11) -0.0353(7) -0.0677(5)
S2 S 0.5907(2) 0.52089(15) -0.14610(11)
O6B O 0.8775(11) 0.0678(7) -0.0159(5)
O17B O 1.0502(11) 0.0990(7) -0.0224(5)
O18B O 0.9373(11) 0.0145(7) 0.0556(5)
O22B O 1.1133(11) 0.0353(7) 0.0677(5)
C1A C 0.4379(8) -0.0871(6) -0.3112(4)
N3A N 0.5310(7) -0.2194(5) -0.2651(4)
N5A N 0.5454(7) -0.1456(5) -0.3071(4)
N6A N 0.3620(8) -0.1252(5) -0.2732(4)
C3A C 0.2322(11) -0.0918(8) -0.2613(6)
H4A H 0.2047 -0.0322 -0.2846
H5A H 0.2476 -0.0832 -0.2128
H6A H 0.1590 -0.1380 -0.2786
N8A N 0.4215(8) -0.2083(5) -0.2452(4)
S2A S 0.4093(2) 0.02089(15) -0.35390(11)
Ag1A Ag 0.67171(8) -0.34581(5) -0.21823(4)
Ag2B Ag 0.15706(8) 0.02776(5) -0.45241(4)
Ag3A Ag 0.29940(8) 0.37044(7) -0.13515(4)
S1B S 0.2232(2) 0.01753(18) -0.55917(12)
N1B N -0.0867(8) -0.1329(5) -0.6683(4)
N2B N -0.0302(7) -0.0704(5) -0.6159(4)
N4B N 0.1272(8) -0.1164(5) -0.6624(4)
N7B N 0.0073(8) -0.1610(5) -0.6955(4)
C2B C 0.2540(11) -0.1337(9) -0.6819(6)
H1B H 0.2338 -0.1782 -0.7194
H2B H 0.2864 -0.0748 -0.6959
H3B H 0.3257 -0.1595 -0.6433
C4B C 0.1027(9) -0.0588(6) -0.6134(4)
O8A O 0.4890(7) -0.4315(6) -0.3216(3)
O7B O 0.1468(10) -0.1504(5) -0.4275(4)
O21A O 0.1001(9) 0.3848(6) -0.2467(4)
Mo1B Mo 1.14585(8) 0.12368(6) -0.11693(4)
Mo2B Mo 1.06887(8) 0.08270(5) 0.17133(4)
Mo3A Mo 0.33043(8) -0.44954(6) -0.37612(4)
Mo4B Mo 1.24748(8) 0.18568(6) 0.06077(5)
Mo5B Mo 0.72471(7) 0.10476(5) 0.05278(4)
Mo6B Mo 0.09910(8) -0.26070(5) -0.45390(4)
O15B O 1.0278(7) 0.0410(5) -0.1751(4)
O19B O 1.3691(12) -0.0751(7) 0.0359(4)
O14B O 1.2750(8) 0.0142(5) -0.0871(4)
O1A O 0.0083(8) 0.2945(10) -0.6102(5)
O13C O -0.2448(11) 0.3331(6) -0.6150(4)
O4A O 0.0703(9) 0.2425(10) -0.4807(5)
O12A O -0.1967(11) 0.2839(7) -0.4856(4)
O11B O 1.2246(8) 0.1825(6) -0.1656(4)
O16B O 1.2593(9) 0.1681(10) -0.0243(5)
O5B O 1.2295(11) -0.0024(6) 0.1782(7)
O2B O 1.1608(11) 0.1723(6) 0.1370(7)
O3B O 0.8926(8) 0.1311(5) 0.1313(4)
O20A O 0.3510(12) -0.5824(6) -0.4031(7)
O10B O 1.3532(7) 0.2779(4) 0.0904(3)
O9B O 0.6055(8) 0.1627(6) 0.0787(6)
S2C S -0.4093(2) -0.02089(15) -0.64610(11)
N5A_2 N -0.4546(7) -0.1456(5) -0.3071(4)
O21_2 O 0.8999(9) -0.1152(6) -0.2533(4)
O6A O -0.1225(11) 0.4322(7) -0.5159(5)
O17A O 0.0502(11) 0.4010(7) -0.5224(5)
Mo6A Mo 1.09910(8) -0.23930(5) 0.04610(4)
Mo6C Mo 0.90090(8) 0.23930(5) -0.04610(4)
Mo2_2 Mo -0.06887(8) -0.08270(5) -0.17133(4)
Ag1A_2 Ag 0.67171(8) 0.65419(5) -0.21823(4)
Ag2C Ag 0.84294(8) 0.52776(5) -0.04759(4)
Mo3B Mo 1.33043(8) -0.05046(6) 0.12388(4)
Ag3_2 Ag 0.70060(8) -0.12956(7) -0.36485(4)
N1A N 0.9133(8) -0.3671(5) -0.1683(4)
S2_2 S 0.5907(2) -0.47911(15) -0.14610(11)
S1A S 0.2232(2) 0.48247(18) -0.05917(12)
Ag3B Ag 0.29940(8) 0.12956(7) -0.63515(4)
Ag1B Ag -0.32829(8) -0.15419(5) -0.71823(4)
Mo2A Mo 0.06887(8) 0.41730(5) -0.32867(4)
O1B O 1.0083(8) 0.2055(10) -0.1102(5)
O21B O 1.1001(9) 0.1152(6) 0.2533(4)
O5A O 0.2295(11) -0.4976(6) -0.3218(7)
O13A O 0.2448(11) -0.3331(6) -0.3850(4)
O19A O 0.3691(12) -0.4249(7) -0.4641(4)
O22A O 0.1133(11) -0.5353(7) -0.4323(5)
O20B O 1.3510(12) 0.0824(6) 0.0969(7)
O4B O 1.0703(9) 0.2575(10) 0.0193(5)
O12B O 0.8033(11) 0.2161(7) 0.0144(4)
O1C O -0.0083(8) -0.2945(10) -0.3898(5)
O4C O -0.0703(9) -0.2425(10) -0.5193(5)
O12C O 0.1967(11) -0.2839(7) -0.5144(4)
O6C O 0.1225(11) -0.4322(7) -0.4841(5)
O17C O -0.0502(11) -0.4010(7) -0.4776(5)
Mo1A Mo 0.14585(8) 0.37632(6) -0.61693(4)
Mo3C Mo -0.33043(8) 0.44954(6) -0.62388(4)
Mo4A Mo 0.24748(8) 0.31432(6) -0.43923(5)
Mo5A Mo -0.27529(7) 0.39524(5) -0.44722(4)
Mo4A_2 Mo 0.24748(8) -0.68568(6) -0.43923(5)
loop_
_geom_bond_atom_site_label_1
_geom_bond_atom_site_label_2
_geom_bond_site_symmetry_1
_geom_bond_site_symmetry_2
Ag1 O8 1_555 1_555
Ag2 S1 1_555 1_555
Ag3 S1 1_555 1_555
Mo1 O1 1_555 1_555
Mo2 O2 1_555 1_555
Mo3 O5 1_555 1_555
Mo4 O2 1_555 1_555
Mo5 O3 1_555 1_555
Mo6 O7 1_555 1_555
S1 C4 1_555 1_555
Si1 O6 1_555 1_555
O1 Mo6A 1_555 1_555
O3 Mo2 1_555 1_555
O4 Mo4 1_555 1_555
O5 Mo2 1_555 1_555
O6 Mo5 1_555 1_555
O7 Ag2 1_555 1_555
O8 Mo3 1_555 1_555
O9 Mo5 1_555 1_555
O10 Mo4 1_555 1_555
O11 Mo1 1_555 1_555
O12 Mo5 1_555 1_555
O13 Mo3 1_555 1_555
O14 Mo1 1_555 1_555
O15 Mo1 1_555 1_555
O16 Mo1 1_555 1_555
O17 Mo1 1_555 1_555
O18 Mo2 1_555 1_555
O19 Mo3 1_555 1_555
O20 Mo3 1_555 1_555
O21 Ag3 1_555 1_555
N1 Ag1 1_555 1_555
C1 N5 1_555 1_555
N2 N1 1_555 1_555
N3 Ag1 1_555 1_555
N4 N7 1_555 1_555
N5 N3 1_555 1_555
N6 C1 1_555 1_555
N7 N1 1_555 1_555
C2 N4 1_555 1_555
H1 C2 1_555 1_555
H2 C2 1_555 1_555
H3 C2 1_555 1_555
C3 N6 1_555 1_555
H4 C3 1_555 1_555
H5 C3 1_555 1_555
H6 C3 1_555 1_555
C4 N2 1_555 1_555
N8 N3 1_555 1_555
O22 Mo2 1_555 1_555
S2 C1 1_555 1_555
O6B Si1 1_555 1_555
O17B Si1 1_555 1_555
O18B Si1 1_555 1_555
O22B Si1 1_555 1_555
C1A N5A 1_555 1_555
N3A N5A 1_555 1_555
N5A Ag3_2 1_555 1_555
N6A C1A 1_555 1_555
C3A N6A 1_555 1_555
H4A C3A 1_555 1_555
H5A C3A 1_555 1_555
H6A C3A 1_555 1_555
N8A N3A 1_555 1_555
S2A Ag1 1_555 1_555
Ag1A N3A 1_555 1_555
Ag2B Ag2 1_555 1_555
Ag3A N5 1_555 1_555
S1B Ag2B 1_555 1_555
N1B N2B 1_555 1_555
N2B Ag2 1_555 1_555
N4B N7B 1_555 1_555
N7B N1B 1_555 1_555
C2B N4B 1_555 1_555
H1B C2B 1_555 1_555
H2B C2B 1_555 1_555
H3B C2B 1_555 1_555
C4B S1B 1_555 1_555
O8A Ag1A 1_555 1_555
O7B Ag2B 1_555 1_555
O21A Ag3A 1_555 1_555
Mo1B O17B 1_555 1_555
Mo2B O15 1_555 1_555
Mo3A O8A 1_555 1_555
Mo4B O17B 1_555 1_555
Mo5B O14 1_555 1_555
Mo6B O7B 1_555 1_555
O15B Mo2 1_555 1_555
O19B Mo5 1_555 1_555
O14B Mo5 1_555 1_555
O1A Mo6 1_555 1_555
O13C Mo6 1_555 1_555
O4A Mo6 1_555 1_555
O12A Mo6 1_555 1_555
O11B Mo1B 1_555 1_555
O16B Mo1B 1_555 1_555
O5B Mo2B 1_555 1_555
O2B Mo2B 1_555 1_555
O3B Mo2B 1_555 1_555
O20A Mo3A 1_555 1_555
O10B Mo4B 1_555 1_555
O9B Mo5B 1_555 1_555
S2C Ag2 1_555 1_555
N5A_2 Ag3 1_555 1_555
O21_2 Mo2 1_555 1_555
O6A Mo6 1_555 1_555
O17A Mo6 1_555 1_555
Mo6A O4 1_555 1_555
Mo6C O13 1_555 1_555
Mo2_2 O21 1_555 1_555
Ag1A_2 S2 1_555 1_555
Ag2C S2 1_555 1_555
Mo3B O22B 1_555 1_555
Ag3_2 O21_2 1_555 1_555
N1A Ag1A 1_555 1_555
S2_2 Ag1A 1_555 1_555
S1A Ag3A 1_555 1_555
Ag3B S1B 1_555 1_555
Ag1B N1B 1_555 1_555
Mo2A O21A 1_555 1_555
O1B Mo1B 1_555 1_555
O21B Mo2B 1_555 1_555
O5A Mo3A 1_555 1_555
O13A Mo3A 1_555 1_555
O19A Mo3A 1_555 1_555
O22A Mo3A 1_555 1_555
O20B Mo4B 1_555 1_555
O4B Mo4B 1_555 1_555
O12B Mo5B 1_555 1_555
O1C Mo6B 1_555 1_555
O4C Mo6B 1_555 1_555
O12C Mo6B 1_555 1_555
O6C Mo6B 1_555 1_555
O17C Mo6B 1_555 1_555
Mo1A O1A 1_555 1_555
Mo3C O13C 1_555 1_555
Mo4A O4A 1_555 1_555
Mo5A O12A 1_555 1_555
Mo4A_2 O20A 1_555 1_555
Mo3 O22 1_555 1_555
Mo4 O17 1_555 1_555
Mo4 O20 1_555 1_555
Mo4 O22 1_555 1_555
Mo4 O16 1_555 1_555
Mo5 O18 1_555 1_555
Si1 O17 1_555 1_555
Si1 O18 1_555 1_555
Si1 O22 1_555 1_555
O6 Mo6A 1_555 1_555
O12 Mo6A 1_555 1_555
O17 Mo6A 1_555 1_555
O19 Mo5B 1_555 1_555
N2 Ag2B 1_555 1_555
N4 C4 1_555 1_555
N6 N8 1_555 1_555
O6B Mo5B 1_555 1_555
O6B Mo6C 1_555 1_555
O17B Mo6C 1_555 1_555
O18B Mo2B 1_555 1_555
O18B Mo5B 1_555 1_555
O22B Mo2B 1_555 1_555
O22B Mo4B 1_555 1_555
C1A S2A 1_555 1_555
N6A N8A 1_555 1_555
S2A Ag2B 1_555 1_555
N2B C4B 1_555 1_555
N4B C4B 1_555 1_555
Mo1B O14B 1_555 1_555
Mo1B O15B 1_555 1_555
Mo4B O2B 1_555 1_555
Mo4B O16B 1_555 1_555
Mo5B O3B 1_555 1_555
Mo6B O13A 1_555 1_555
O19B Mo3B 1_555 1_555
O5B Mo3B 1_555 1_555
S2C Ag1B 1_555 1_555
O6A Mo5A 1_555 1_555
O17A Mo1A 1_555 1_555
O17A Mo4A 1_555 1_555
Mo6C O1B 1_555 1_555
Mo6C O4B 1_555 1_555
Mo6C O12B 1_555 1_555
Mo3B O20B 1_555 1_555
O22A Mo4A_2 1_555 1_555

#END
