
#######################################################################
#
#                 Cambridge Crystallographic Data Centre
#                                CCDC 
#
#######################################################################
#
# If this CIF has been generated from an entry in the Cambridge 
# Structural Database, then it will include bibliographic, chemical, 
# crystal, experimental, refinement or atomic coordinate data resulting 
# from the CCDC's data processing and validation procedures.
#
#######################################################################

data_PATPAD
_symmetry_cell_setting           orthorhombic
_symmetry_space_group_name_H-M   'P 21 21 21'
_symmetry_Int_Tables_number      19
_space_group_name_Hall           'P 2ac 2ab'
loop_
_symmetry_equiv_pos_site_id
_symmetry_equiv_pos_as_xyz
1 x,y,z
2 1/2-x,-y,1/2+z
3 -x,1/2+y,1/2-z
4 1/2+x,1/2-y,-z
_cell_length_a                   6.690(3)
_cell_length_b                   8.682(4)
_cell_length_c                   17.825(8)
_cell_angle_alpha                90
_cell_angle_beta                 90
_cell_angle_gamma                90
_cell_volume                     1035.32
loop_
_atom_site_label
_atom_site_type_symbol
_atom_site_fract_x
_atom_site_fract_y
_atom_site_fract_z
Mn1 Mn 0.26934(12) -0.10102(8) 0.18704(4)
O1 O 0.7289(6) 0.1617(3) 0.28150(16)
N1 N 0.2593(7) -0.0322(3) 0.30921(19)
N2 N 0.2355(7) 0.0531(3) 0.42394(18)
H1 H 0.1919 0.0656 0.4689
O2 O 0.5791(5) -0.0228(4) 0.21566(18)
C1 C 0.4036(7) 0.1205(5) 0.3948(2)
O3 O 0.5331(6) 0.1771(4) 0.51281(19)
C2 C -0.0333(7) -0.1247(5) 0.3839(2)
N3 N -0.2320(7) -0.3498(4) 0.3575(2)
O4 O -0.0459(5) -0.1276(4) 0.16241(16)
H2 H -0.1535 -0.0873 0.1804
H3 H -0.0622 -0.1352 0.1145
C3 C -0.1720(7) -0.0817(6) 0.4379(2)
H4 H -0.1515 0.0077 0.4656
C4 C 0.4168(7) 0.0651(5) 0.3229(3)
C5 C 0.5253(7) 0.2196(6) 0.4461(3)
C6 C -0.0705(7) -0.2634(5) 0.3447(3)
H5 H 0.0210 -0.2957 0.3087
O5 O 0.6122(5) 0.3383(3) 0.42094(18)
C7 C 0.5863(8) 0.0695(5) 0.2701(3)
C8 C -0.3633(7) -0.3012(5) 0.4087(3)
H6 H -0.4780 -0.3594 0.4166
C9 C 0.1477(8) -0.0372(5) 0.3703(3)
C10 C -0.3369(7) -0.1684(5) 0.4506(3)
H7 H -0.4302 -0.1394 0.4866
Mn1B Mn 0.73066(12) 0.39898(8) 0.31296(4)
Mn1B_2 Mn -0.26934(12) -0.60102(8) 0.31296(4)
O1B O 0.2711(6) -0.3383(3) 0.21850(16)
N3B N 0.2320(7) 0.1502(4) 0.1425(2)
O5B O 0.3878(5) -0.1617(3) 0.07906(18)
loop_
_geom_bond_atom_site_label_1
_geom_bond_atom_site_label_2
_geom_bond_site_symmetry_1
_geom_bond_site_symmetry_2
Mn1 N1 1_555 1_555
O1 C7 1_555 1_555
N1 C4 1_555 1_555
N2 H1 1_555 1_555
O2 Mn1 1_555 1_555
C1 N2 1_555 1_555
O3 C5 1_555 1_555
C2 C3 1_555 1_555
N3 C6 1_555 1_555
O4 Mn1 1_555 1_555
H2 O4 1_555 1_555
H3 O4 1_555 1_555
C3 H4 1_555 1_555
C4 C1 1_555 1_555
C5 C1 1_555 1_555
C6 C2 1_555 1_555
H5 C6 1_555 1_555
O5 C5 1_555 1_555
C7 O2 1_555 1_555
C8 N3 1_555 1_555
H6 C8 1_555 1_555
C9 N1 1_555 1_555
C10 C3 1_555 1_555
H7 C10 1_555 1_555
Mn1B O1 1_555 1_555
Mn1B_2 N3 1_555 1_555
O1B Mn1 1_555 1_555
N3B Mn1 1_555 1_555
O5B Mn1 1_555 1_555
N2 C9 1_555 1_555
C2 C9 1_555 1_555
C4 C7 1_555 1_555
O5 Mn1B 1_555 1_555
C8 C10 1_555 1_555

#END
