
#######################################################################
#
#                 Cambridge Crystallographic Data Centre
#                                CCDC 
#
#######################################################################
#
# If this CIF has been generated from an entry in the Cambridge 
# Structural Database, then it will include bibliographic, chemical, 
# crystal, experimental, refinement or atomic coordinate data resulting 
# from the CCDC's data processing and validation procedures.
#
#######################################################################

data_PATPUW
_symmetry_cell_setting           triclinic
_symmetry_space_group_name_H-M   'P -1'
_symmetry_Int_Tables_number      2
_space_group_name_Hall           '-P 1'
loop_
_symmetry_equiv_pos_site_id
_symmetry_equiv_pos_as_xyz
1 x,y,z
2 -x,-y,-z
_cell_length_a                   7.9032(16)
_cell_length_b                   8.8984(18)
_cell_length_c                   11.495(2)
_cell_angle_alpha                98.10(3)
_cell_angle_beta                 96.61(3)
_cell_angle_gamma                114.66(3)
_cell_volume                     713.625
loop_
_atom_site_label
_atom_site_type_symbol
_atom_site_fract_x
_atom_site_fract_y
_atom_site_fract_z
Cu1 Cu 0.5000 0.0000 0.5000
S1 S 0.64927(11) 0.37715(9) 0.58938(7)
S2 S 0.84572(10) -0.00971(9) 0.64521(6)
C1 C 0.6667(11) 0.4282(8) 0.9544(5)
H1 H 0.5699 0.3905 1.0014
H2 H 0.7365 0.5491 0.9764
H3 H 0.7514 0.3779 0.9687
C2 C 0.5763(8) 0.3769(7) 0.8238(4)
H4 H 0.5055 0.2547 0.8015
H5 H 0.4882 0.4253 0.8097
C3 C 0.7230(6) 0.4355(5) 0.7486(4)
H6 H 0.8157 0.3943 0.7702
H7 H 0.7880 0.5580 0.7706
C4 C 0.5454(7) 0.5159(5) 0.5627(4)
H8 H 0.4516 0.5034 0.6128
H9 H 0.6432 0.6318 0.5860
C5 C 1.0361(4) 0.0503(4) 0.5641(3)
H10 H 1.0864 0.1702 0.5645
H11 H 1.1374 0.0288 0.6022
C6 C 0.9753(5) 0.1053(5) 0.7929(3)
H12 H 1.0668 0.0647 0.8188
H13 H 1.0439 0.2245 0.7924
C7 C 0.8379(6) 0.0817(6) 0.8793(3)
H14 H 0.9069 0.1578 0.9557
H15 H 0.7415 0.1142 0.8485
C8 C 0.7417(8) -0.0946(7) 0.8999(4)
H16 H 0.6577 -0.0987 0.9547
H17 H 0.8354 -0.1270 0.9330
H18 H 0.6703 -0.1709 0.8252
O1 O 0.4749(3) 0.2040(2) 0.5605(2)
O2 O 0.7408(3) 0.0926(3) 0.6094(2)
O3 O 0.2059(10) -0.1732(8) 0.8302(4)
O4 O 0.0332(5) -0.2794(5) 0.6394(5)
O5 O 0.2154(7) -0.4010(6) 0.7229(5)
O6 O 0.3592(5) -0.1453(6) 0.6676(3)
Cl1 Cl 0.20461(14) -0.24860(13) 0.71555(9)
Cu1_2 Cu 0.5000 1.0000 0.5000
Cu1_3 Cu 1.5000 0.0000 0.5000
S1A S 0.35073(11) 0.62285(9) 0.41062(7)
S2A S 1.15428(10) 0.00971(9) 0.35479(6)
C1A C 0.3333(11) 0.5718(8) 0.0456(5)
H1A H 0.4301 0.6095 -0.0014
H2A H 0.2635 0.4509 0.0236
H3A H 0.2486 0.6221 0.0313
C2A C 0.4237(8) 0.6231(7) 0.1762(4)
H4A H 0.4945 0.7453 0.1985
H5A H 0.5118 0.5747 0.1903
C3A C 0.2770(6) 0.5645(5) 0.2514(4)
H6A H 0.1843 0.6057 0.2298
H7A H 0.2120 0.4420 0.2294
C4A C 0.4546(7) 0.4841(5) 0.4373(4)
H8A H 0.5484 0.4966 0.3872
H9A H 0.3568 0.3682 0.4140
C5A C 0.9639(4) -0.0503(4) 0.4359(3)
H10A H 0.9136 -0.1702 0.4355
H11A H 0.8626 -0.0288 0.3978
C6A C 1.0247(5) -0.1053(5) 0.2071(3)
H12A H 0.9332 -0.0647 0.1812
H13A H 0.9561 -0.2245 0.2076
C7A C 1.1621(6) -0.0817(6) 0.1207(3)
H14A H 1.0931 -0.1578 0.0443
H15A H 1.2585 -0.1142 0.1515
C8A C 1.2583(8) 0.0946(7) 0.1001(4)
H16A H 1.3423 0.0987 0.0453
H17A H 1.1646 0.1270 0.0670
H18A H 1.3297 0.1709 0.1748
O1A O 0.5251(3) 0.7960(2) 0.4395(2)
O1A_2 O 0.5251(3) -0.2040(2) 0.4395(2)
O2A O 1.2592(3) -0.0926(3) 0.3906(2)
O2A_2 O 0.2592(3) -0.0926(3) 0.3906(2)
O3A O 0.7941(10) 0.1732(8) 0.1698(4)
O4A O 0.9668(5) 0.2794(5) 0.3606(5)
O5A O 0.7846(7) 0.4010(6) 0.2771(5)
O6A O 0.6408(5) 0.1453(6) 0.3324(3)
Cl1A Cl 0.79539(14) 0.24860(13) 0.28445(9)
loop_
_geom_bond_atom_site_label_1
_geom_bond_atom_site_label_2
_geom_bond_site_symmetry_1
_geom_bond_site_symmetry_2
Cu1 O1 1_555 1_555
S1 C3 1_555 1_555
S2 C5 1_555 1_555
C1 H1 1_555 1_555
H2 C1 1_555 1_555
H3 C1 1_555 1_555
C2 C1 1_555 1_555
H4 C2 1_555 1_555
H5 C2 1_555 1_555
C3 C2 1_555 1_555
H6 C3 1_555 1_555
H7 C3 1_555 1_555
C4 S1 1_555 1_555
H8 C4 1_555 1_555
H9 C4 1_555 1_555
C5 H10 1_555 1_555
H11 C5 1_555 1_555
C6 S2 1_555 1_555
H12 C6 1_555 1_555
H13 C6 1_555 1_555
C7 C6 1_555 1_555
H14 C7 1_555 1_555
H15 C7 1_555 1_555
C8 C7 1_555 1_555
H16 C8 1_555 1_555
H17 C8 1_555 1_555
H18 C8 1_555 1_555
O1 S1 1_555 1_555
O2 Cu1 1_555 1_555
O3 Cl1 1_555 1_555
O4 Cl1 1_555 1_555
O5 Cl1 1_555 1_555
O6 Cu1 1_555 1_555
Cl1 O6 1_555 1_555
Cu1_2 O1A 1_555 1_555
Cu1_3 O2A 1_555 1_555
S1A C3A 1_555 1_555
S2A C5A 1_555 1_555
C1A H1A 1_555 1_555
H2A C1A 1_555 1_555
H3A C1A 1_555 1_555
C2A C1A 1_555 1_555
H4A C2A 1_555 1_555
H5A C2A 1_555 1_555
C3A C2A 1_555 1_555
H6A C3A 1_555 1_555
H7A C3A 1_555 1_555
C4A C4 1_555 1_555
H8A C4A 1_555 1_555
H9A C4A 1_555 1_555
C5A C5 1_555 1_555
H10A C5A 1_555 1_555
H11A C5A 1_555 1_555
C6A S2A 1_555 1_555
H12A C6A 1_555 1_555
H13A C6A 1_555 1_555
C7A C6A 1_555 1_555
H14A C7A 1_555 1_555
H15A C7A 1_555 1_555
C8A C7A 1_555 1_555
H16A C8A 1_555 1_555
H17A C8A 1_555 1_555
H18A C8A 1_555 1_555
O1A S1A 1_555 1_555
O1A_2 Cu1 1_555 1_555
O2A S2A 1_555 1_555
O2A_2 Cu1 1_555 1_555
O3A Cl1A 1_555 1_555
O4A Cl1A 1_555 1_555
O5A Cl1A 1_555 1_555
O6A Cu1 1_555 1_555
Cl1A O6A 1_555 1_555
S2 O2 1_555 1_555
S1A C4A 1_555 1_555

#END
