
#######################################################################
#
#                 Cambridge Crystallographic Data Centre
#                                CCDC 
#
#######################################################################
#
# If this CIF has been generated from an entry in the Cambridge 
# Structural Database, then it will include bibliographic, chemical, 
# crystal, experimental, refinement or atomic coordinate data resulting 
# from the CCDC's data processing and validation procedures.
#
#######################################################################

data_PATPOQ
_symmetry_cell_setting           tetragonal
_symmetry_space_group_name_H-M   'P 4/n'
_symmetry_Int_Tables_number      85
_space_group_name_Hall           '-P 4a'
loop_
_symmetry_equiv_pos_site_id
_symmetry_equiv_pos_as_xyz
1 x,y,z
2 1/2-y,x,z
3 y,1/2-x,z
4 1/2-x,1/2-y,z
5 -x,-y,-z
6 1/2+y,-x,-z
7 -y,1/2+x,-z
8 1/2+x,1/2+y,-z
_cell_length_a                   11.614(3)
_cell_length_b                   11.614(3)
_cell_length_c                   9.249(5)
_cell_angle_alpha                90
_cell_angle_beta                 90
_cell_angle_gamma                90
_cell_volume                     1247.55
loop_
_atom_site_label
_atom_site_type_symbol
_atom_site_fract_x
_atom_site_fract_y
_atom_site_fract_z
Cl1 Cl 0.7500 0.2500 0.5000
O2 O 0.8481(3) 0.2684(3) 0.4102(4)
O2E O 0.7684(3) 0.1519(3) 0.5898(4)
O2F O 0.7316(3) 0.3481(3) 0.5898(4)
O2C O 0.6519(3) 0.2316(3) 0.4102(4)
Cu1 Cu 0.7500 0.7500 0.33030(9)
S1 S 0.63381(7) 0.51244(7) 0.33744(9)
O1 O 0.62369(19) 0.64174(18) 0.3081(3)
C1 C 0.6966(5) 0.4734(6) 0.0585(5)
H1 H 0.7041 0.5552 0.0478
H2 H 0.6768 0.4398 -0.0330
H3 H 0.7682 0.4417 0.0917
C2 C 0.6036(4) 0.4473(4) 0.1667(4)
H4 H 0.5971 0.3646 0.1789
H5 H 0.5305 0.4757 0.1307
C3 C 0.5004(3) 0.4771(3) 0.4241(4)
H6 H 0.4369 0.5102 0.3701
H7 H 0.4905 0.3942 0.4257
Cl2 Cl 0.7500 0.7500 0.7194(2)
O3 O 0.7586(10) 0.8617(7) 0.7631(14)
O4 O 0.7500 0.7500 0.5802(10)
Cu1G Cu 0.2500 0.2500 0.66970(9)
Cu1G_2 Cu 1.2500 0.2500 0.66970(9)
S1D S 0.36619(7) 0.48756(7) 0.66256(9)
S1A S 0.98756(7) 0.63381(7) 0.33744(9)
S1E S 1.01244(7) 0.36619(7) 0.66256(9)
O1D O 0.37631(19) 0.35826(18) 0.6919(3)
O1A O 0.85826(18) 0.62369(19) 0.3081(3)
O1E O 1.14174(18) 0.37631(19) 0.6919(3)
O1B O 0.64174(18) 0.87631(19) 0.3081(3)
O1C O 0.87631(19) 0.85826(18) 0.3081(3)
C1D C 0.3034(5) 0.5266(6) 0.9415(5)
C1A C 1.0266(6) 0.6966(5) 0.0585(5)
C1E C 0.9734(6) 0.3034(5) 0.9415(5)
H1D H 0.2959 0.4448 0.9522
H1A H 0.9448 0.7041 0.0478
H1E H 1.0552 0.2959 0.9522
H2D H 0.3232 0.5602 1.0330
H2A H 1.0602 0.6768 -0.0330
H2E H 0.9398 0.3232 1.0330
H3D H 0.2318 0.5583 0.9083
H3A H 1.0583 0.7682 0.0917
H3E H 0.9417 0.2318 0.9083
C2D C 0.3964(4) 0.5527(4) 0.8333(4)
C2A C 1.0527(4) 0.6036(4) 0.1667(4)
C2E C 0.9473(4) 0.3964(4) 0.8333(4)
H4D H 0.4029 0.6354 0.8211
H4A H 1.1354 0.5971 0.1789
H4E H 0.8646 0.4029 0.8211
H5D H 0.4695 0.5243 0.8693
H5A H 1.0243 0.5305 0.1307
H5E H 0.9757 0.4695 0.8693
C3D C 0.4996(3) 0.5229(3) 0.5759(4)
C3A C 1.0229(3) 0.5004(3) 0.4241(4)
C3E C 0.9771(3) 0.4996(3) 0.5759(4)
H6D H 0.5631 0.4898 0.6299
H6A H 0.9898 0.4369 0.3701
H6E H 1.0102 0.5631 0.6299
H7D H 0.5095 0.6058 0.5743
H7A H 1.1058 0.4905 0.4257
H7E H 0.8942 0.5095 0.5743
O3A O 0.6383(7) 0.7586(10) 0.7631(14)
O3B O 0.8617(7) 0.7414(10) 0.7631(14)
O3C O 0.7414(10) 0.6383(7) 0.7631(14)
loop_
_geom_bond_atom_site_label_1
_geom_bond_atom_site_label_2
_geom_bond_site_symmetry_1
_geom_bond_site_symmetry_2
Cu1 O1 1_555 1_555
S1 O1 1_555 1_555
C1 H1 1_555 1_555
H2 C1 1_555 1_555
H3 C1 1_555 1_555
C2 S1 1_555 1_555
H4 C2 1_555 1_555
H5 C2 1_555 1_555
C3 S1 1_555 1_555
H6 C3 1_555 1_555
H7 C3 1_555 1_555
Cl1 O2 1_555 1_555
Cl2 O3 1_555 1_555
O4 Cu1 1_555 1_555
Cu1G O1D 1_555 1_555
Cu1G_2 O1E 1_555 1_555
S1D O1D 1_555 1_555
S1A O1A 1_555 1_555
S1E O1E 1_555 1_555
O1A Cu1 1_555 1_555
O1B Cu1 1_555 1_555
O1C Cu1 1_555 1_555
C1D H1D 1_555 1_555
C1A H1A 1_555 1_555
C1E H1E 1_555 1_555
H2D C1D 1_555 1_555
H2A C1A 1_555 1_555
H2E C1E 1_555 1_555
H3D C1D 1_555 1_555
H3A C1A 1_555 1_555
H3E C1E 1_555 1_555
C2D S1D 1_555 1_555
C2A S1A 1_555 1_555
C2E S1E 1_555 1_555
H4D C2D 1_555 1_555
H4A C2A 1_555 1_555
H4E C2E 1_555 1_555
H5D C2D 1_555 1_555
H5A C2A 1_555 1_555
H5E C2E 1_555 1_555
C3D C3 1_555 1_555
C3A S1A 1_555 1_555
C3E S1E 1_555 1_555
H6D C3D 1_555 1_555
H6A C3A 1_555 1_555
H6E C3E 1_555 1_555
H7D C3D 1_555 1_555
H7A C3A 1_555 1_555
H7E C3E 1_555 1_555
O2E Cl1 1_555 1_555
O2F Cl1 1_555 1_555
O2C Cl1 1_555 1_555
O3A Cl2 1_555 1_555
O3B Cl2 1_555 1_555
O3C Cl2 1_555 1_555
C1 C2 1_555 1_555
Cl2 O4 1_555 1_555
S1D C3D 1_555 1_555
C1D C2D 1_555 1_555
C1A C2A 1_555 1_555
C1E C2E 1_555 1_555
C3A C3E 1_555 1_555

#END
