
#######################################################################
#
#                 Cambridge Crystallographic Data Centre
#                                CCDC 
#
#######################################################################
#
# If this CIF has been generated from an entry in the Cambridge 
# Structural Database, then it will include bibliographic, chemical, 
# crystal, experimental, refinement or atomic coordinate data resulting 
# from the CCDC's data processing and validation procedures.
#
#######################################################################

data_PATPOR
_symmetry_cell_setting           orthorhombic
_symmetry_space_group_name_H-M   'P 21 21 21'
_symmetry_Int_Tables_number      19
_space_group_name_Hall           'P 2ac 2ab'
loop_
_symmetry_equiv_pos_site_id
_symmetry_equiv_pos_as_xyz
1 x,y,z
2 1/2-x,-y,1/2+z
3 -x,1/2+y,1/2-z
4 1/2+x,1/2-y,-z
_cell_length_a                   6.7491(14)
_cell_length_b                   9.5380(19)
_cell_length_c                   16.526(3)
_cell_angle_alpha                90
_cell_angle_beta                 90
_cell_angle_gamma                90
_cell_volume                     1063.83
loop_
_atom_site_label
_atom_site_type_symbol
_atom_site_fract_x
_atom_site_fract_y
_atom_site_fract_z
Ca1 Ca 0.23449(5) -0.12703(4) -0.16622(2)
O1 O 0.1748(2) -0.35408(16) -0.19929(8)
O2 O 0.05770(19) -0.52854(16) -0.27438(8)
O3 O 0.5819(2) -0.1097(2) -0.17382(10)
H1 H 0.6274 -0.1333 -0.1282
H2 H 0.6831 -0.0737 -0.1969
O4 O -0.0264(2) -0.17174(15) -0.06884(8)
O5 O -0.1113(2) -0.30503(17) 0.03598(8)
N1 N -0.7414(3) -0.86419(18) -0.13380(10)
N2 N -0.2753(2) -0.55503(16) -0.18454(9)
N3 N -0.3541(2) -0.45550(18) -0.06847(9)
H3 H -0.4177 -0.4381 -0.0245
C1 C -0.4055(3) -0.5524(2) -0.12495(11)
C2 C -0.1359(2) -0.4538(2) -0.16615(11)
C3 C -0.8962(3) -0.8146(2) -0.09182(13)
H4 H -1.0064 -0.8722 -0.0856
C4 C 0.0454(3) -0.4418(2) -0.21680(11)
C5 C -0.5804(3) -0.6409(2) -0.11409(10)
C6 C -0.0978(3) -0.2812(2) -0.03820(11)
C7 C -0.9015(3) -0.6832(2) -0.05739(13)
H5 H -1.0106 -0.6544 -0.0273
C8 C -0.5870(3) -0.7769(2) -0.14532(12)
H6 H -0.4797 -0.8088 -0.1755
C9 C -0.1844(3) -0.39032(19) -0.09338(11)
C10 C -0.7412(3) -0.5948(2) -0.06838(11)
H7 H -0.7408 -0.5056 -0.0456
Ca1C Ca -0.26551(5) -0.37297(4) 0.16622(2)
Ca1B Ca -0.23449(5) -0.62703(4) -0.33378(2)
Ca1_2 Ca -0.76551(5) -1.12703(4) -0.16622(2)
O2B O -0.05770(19) -0.02854(16) -0.22562(8)
O5C O 0.3887(2) -0.19497(17) -0.03598(8)
N1_2 N 0.2586(3) 0.13581(18) -0.13380(10)
N2B N 0.2753(2) -0.05503(16) -0.31546(9)
loop_
_geom_bond_atom_site_label_1
_geom_bond_atom_site_label_2
_geom_bond_site_symmetry_1
_geom_bond_site_symmetry_2
Ca1 O1 1_555 1_555
O1 C4 1_555 1_555
O2 C4 1_555 1_555
O3 Ca1 1_555 1_555
H1 O3 1_555 1_555
H2 O3 1_555 1_555
O4 Ca1 1_555 1_555
O5 C6 1_555 1_555
N1 C3 1_555 1_555
N2 C1 1_555 1_555
N3 H3 1_555 1_555
C1 N3 1_555 1_555
C2 N2 1_555 1_555
C3 H4 1_555 1_555
C4 C2 1_555 1_555
C5 C1 1_555 1_555
C6 O4 1_555 1_555
C7 C3 1_555 1_555
H5 C7 1_555 1_555
C8 N1 1_555 1_555
H6 C8 1_555 1_555
C9 N3 1_555 1_555
C10 C5 1_555 1_555
H7 C10 1_555 1_555
Ca1C O5 1_555 1_555
Ca1B O2 1_555 1_555
Ca1_2 N1 1_555 1_555
O2B Ca1 1_555 1_555
O5C Ca1 1_555 1_555
N1_2 Ca1 1_555 1_555
N2B Ca1 1_555 1_555
N2 Ca1B 1_555 1_555
C2 C9 1_555 1_555
C5 C8 1_555 1_555
C6 C9 1_555 1_555
C7 C10 1_555 1_555

#END
