
#######################################################################
#
#                 Cambridge Crystallographic Data Centre
#                                CCDC 
#
#######################################################################
#
# If this CIF has been generated from an entry in the Cambridge 
# Structural Database, then it will include bibliographic, chemical, 
# crystal, experimental, refinement or atomic coordinate data resulting 
# from the CCDC's data processing and validation procedures.
#
#######################################################################

data_PATQEH
_symmetry_cell_setting           monoclinic
_symmetry_space_group_name_H-M   'P 21/n'
_symmetry_Int_Tables_number      14
_space_group_name_Hall           '-P 2yn'
loop_
_symmetry_equiv_pos_site_id
_symmetry_equiv_pos_as_xyz
1 x,y,z
2 1/2-x,1/2+y,1/2-z
3 -x,-y,-z
4 1/2+x,1/2-y,1/2+z
_cell_length_a                   7.784(2)
_cell_length_b                   11.184(4)
_cell_length_c                   15.254(5)
_cell_angle_alpha                90
_cell_angle_beta                 96.132(6)
_cell_angle_gamma                90
_cell_volume                     1320.36
loop_
_atom_site_label
_atom_site_type_symbol
_atom_site_fract_x
_atom_site_fract_y
_atom_site_fract_z
Cu1 Cu 0.0000 0.0000 0.0000
S1 S 0.21216(13) -0.09502(10) 0.16308(7)
S2 S 0.71487(13) -0.19093(10) 0.02024(7)
O1 O 0.1519(3) 0.0148(2) 0.10851(17)
O2 O 0.8821(3) -0.1281(2) 0.05621(17)
C1 C 0.0943(8) 0.0314(5) 0.3027(4)
H1 H 0.0326 0.0257 0.3538
H2 H 0.0357 0.0860 0.2612
H3 H 0.2094 0.0598 0.3199
C2 C 0.1026(6) -0.0886(5) 0.2613(3)
H4 H -0.0145 -0.1175 0.2469
H5 H 0.1601 -0.1429 0.3045
C3 C 0.4263(5) -0.0516(4) 0.2054(3)
H6 H 0.4251 0.0301 0.2266
H7 H 0.4670 -0.1027 0.2547
C4 C 0.5471(5) -0.0610(4) 0.1352(3)
H8 H 0.6546 -0.0210 0.1555
H9 H 0.4964 -0.0198 0.0828
C5 C 0.5861(5) -0.1878(4) 0.1113(3)
H10 H 0.6477 -0.2275 0.1617
H11 H 0.4788 -0.2306 0.0955
C6 C 0.7703(6) -0.3477(4) 0.0197(3)
H12 H 0.8204 -0.3655 -0.0344
H13 H 0.6653 -0.3944 0.0195
C7 C 0.8943(7) -0.3861(4) 0.0963(4)
H14 H 0.9175 -0.4701 0.0916
H15 H 1.0001 -0.3421 0.0962
H16 H 0.8447 -0.3710 0.1502
O3 O -0.3339(6) 0.3416(3) 0.0557(3)
O4 O -0.2950(6) 0.2201(4) 0.1780(3)
O5 O -0.0579(5) 0.2915(3) 0.1162(3)
Cl1 Cl -0.23030(15) 0.25088(10) 0.09755(8)
O6 O -0.2336(4) 0.1483(3) 0.0423(2)
Cu1_2 Cu 1.0000 0.0000 0.0000
Cu1_3 Cu -1.0000 0.0000 0.0000
S1B S -0.21216(13) 0.09502(10) -0.16308(7)
S2B S -0.71487(13) 0.19093(10) -0.02024(7)
O1B O -0.1519(3) -0.0148(2) -0.10851(17)
O2B O 0.1179(3) 0.1281(2) -0.05621(17)
O2_2 O -0.1179(3) -0.1281(2) 0.05621(17)
O2B_2 O -0.8821(3) 0.1281(2) -0.05621(17)
C1B C -0.0943(8) -0.0314(5) -0.3027(4)
H1B H -0.0326 -0.0257 -0.3538
H2B H -0.0357 -0.0860 -0.2612
H3B H -0.2094 -0.0598 -0.3199
C2B C -0.1026(6) 0.0886(5) -0.2613(3)
H4B H 0.0145 0.1175 -0.2469
H5B H -0.1601 0.1429 -0.3045
C3B C -0.4263(5) 0.0516(4) -0.2054(3)
H6B H -0.4251 -0.0301 -0.2266
H7B H -0.4670 0.1027 -0.2547
C4B C -0.5471(5) 0.0610(4) -0.1352(3)
H8B H -0.6546 0.0210 -0.1555
H9B H -0.4964 0.0198 -0.0828
C5B C -0.5861(5) 0.1878(4) -0.1113(3)
H10B H -0.6477 0.2275 -0.1617
H11B H -0.4788 0.2306 -0.0955
C6B C -0.7703(6) 0.3477(4) -0.0197(3)
H12B H -0.8204 0.3655 0.0344
H13B H -0.6653 0.3944 -0.0195
C7B C -0.8943(7) 0.3861(4) -0.0963(4)
H14B H -0.9175 0.4701 -0.0916
H15B H -1.0001 0.3421 -0.0962
H16B H -0.8447 0.3710 -0.1502
O3B O 0.3339(6) -0.3416(3) -0.0557(3)
O4B O 0.2950(6) -0.2201(4) -0.1780(3)
O5B O 0.0579(5) -0.2915(3) -0.1162(3)
Cl1B Cl 0.23030(15) -0.25088(10) -0.09755(8)
O6B O 0.2336(4) -0.1483(3) -0.0423(2)
loop_
_geom_bond_atom_site_label_1
_geom_bond_atom_site_label_2
_geom_bond_site_symmetry_1
_geom_bond_site_symmetry_2
Cu1 O1 1_555 1_555
S1 O1 1_555 1_555
S2 O2 1_555 1_555
O2 Cu1_2 1_555 1_555
C1 H1 1_555 1_555
H2 C1 1_555 1_555
H3 C1 1_555 1_555
C2 S1 1_555 1_555
H4 C2 1_555 1_555
H5 C2 1_555 1_555
C3 S1 1_555 1_555
H6 C3 1_555 1_555
H7 C3 1_555 1_555
C4 C3 1_555 1_555
H8 C4 1_555 1_555
H9 C4 1_555 1_555
C5 S2 1_555 1_555
H10 C5 1_555 1_555
H11 C5 1_555 1_555
C6 S2 1_555 1_555
H12 C6 1_555 1_555
H13 C6 1_555 1_555
C7 C6 1_555 1_555
H14 C7 1_555 1_555
H15 C7 1_555 1_555
H16 C7 1_555 1_555
O3 Cl1 1_555 1_555
O4 Cl1 1_555 1_555
O5 Cl1 1_555 1_555
Cl1 O6 1_555 1_555
O6 Cu1 1_555 1_555
Cu1_3 O2B_2 1_555 1_555
S1B O1B 1_555 1_555
S2B O2B_2 1_555 1_555
O1B Cu1 1_555 1_555
O2B Cu1 1_555 1_555
O2_2 Cu1 1_555 1_555
C1B H1B 1_555 1_555
H2B C1B 1_555 1_555
H3B C1B 1_555 1_555
C2B S1B 1_555 1_555
H4B C2B 1_555 1_555
H5B C2B 1_555 1_555
C3B S1B 1_555 1_555
H6B C3B 1_555 1_555
H7B C3B 1_555 1_555
C4B C3B 1_555 1_555
H8B C4B 1_555 1_555
H9B C4B 1_555 1_555
C5B S2B 1_555 1_555
H10B C5B 1_555 1_555
H11B C5B 1_555 1_555
C6B S2B 1_555 1_555
H12B C6B 1_555 1_555
H13B C6B 1_555 1_555
C7B C6B 1_555 1_555
H14B C7B 1_555 1_555
H15B C7B 1_555 1_555
H16B C7B 1_555 1_555
O3B Cl1B 1_555 1_555
O4B Cl1B 1_555 1_555
O5B Cl1B 1_555 1_555
Cl1B O6B 1_555 1_555
O6B Cu1 1_555 1_555
C1 C2 1_555 1_555
C4 C5 1_555 1_555
C1B C2B 1_555 1_555
C4B C5B 1_555 1_555

#END
