
#######################################################################
#
#                 Cambridge Crystallographic Data Centre
#                                CCDC 
#
#######################################################################
#
# If this CIF has been generated from an entry in the Cambridge 
# Structural Database, then it will include bibliographic, chemical, 
# crystal, experimental, refinement or atomic coordinate data resulting 
# from the CCDC's data processing and validation procedures.
#
#######################################################################

data_PATQUX
_symmetry_cell_setting           monoclinic
_symmetry_space_group_name_H-M   'P 21/c'
_symmetry_Int_Tables_number      14
_space_group_name_Hall           '-P 2ybc'
loop_
_symmetry_equiv_pos_site_id
_symmetry_equiv_pos_as_xyz
1 x,y,z
2 -x,1/2+y,1/2-z
3 -x,-y,-z
4 x,1/2-y,1/2+z
_cell_length_a                   10.612(4)
_cell_length_b                   13.454(5)
_cell_length_c                   9.890(4)
_cell_angle_alpha                90
_cell_angle_beta                 96.943(6)
_cell_angle_gamma                90
_cell_volume                     1401.68
loop_
_atom_site_label
_atom_site_type_symbol
_atom_site_fract_x
_atom_site_fract_y
_atom_site_fract_z
Cu1 Cu 0.5000 0.0000 0.0000
S1 S 0.33397(6) 0.19164(5) -0.03503(7)
S2 S 0.70156(6) 0.39259(5) -0.30631(6)
O1 O 0.42960(17) 0.12646(13) 0.05274(17)
O2 O 0.63575(17) 0.49178(12) -0.34971(18)
C1 C 0.0817(3) 0.2405(3) -0.0385(4)
H1 H 0.0995 0.3078 -0.0100
H2 H 0.0010 0.2208 -0.0129
H3 H 0.0796 0.2360 -0.1356
C2 C 0.1839(3) 0.1730(2) 0.0290(4)
H4 H 0.1577 0.1044 0.0139
H5 H 0.1942 0.1850 0.1264
C3 C 0.3691(2) 0.31446(18) 0.0335(3)
H6 H 0.3114 0.3623 -0.0142
H7 H 0.3566 0.3157 0.1291
C4 C 0.5043(2) 0.3430(2) 0.0185(3)
H8 H 0.5610 0.2950 0.0671
H9 H 0.5221 0.4073 0.0609
C5 C 0.5322(2) 0.3481(2) -0.1279(3)
H10 H 0.5145 0.2841 -0.1714
H11 H 0.4774 0.3972 -0.1769
C6 C 0.6689(2) 0.3755(2) -0.1346(3)
H12 H 0.2767 -0.1766 -0.4078
H13 H 0.3117 -0.0636 -0.4162
C7 C 0.1333(3) -0.0754(3) -0.2267(3)
H14 H 0.0871 -0.1327 -0.2661
H15 H 0.1021 -0.0611 -0.1405
C8 C 0.1037(3) 0.0119(3) -0.3198(4)
H16 H 0.1561 0.0672 -0.2878
H17 H 0.0160 0.0297 -0.3211
H18 H 0.1200 -0.0055 -0.4102
Cu1C Cu 0.5000 0.5000 -0.5000
Cu1C_2 Cu 0.5000 -0.5000 -0.5000
S1A S 0.66603(6) -0.30836(5) -0.46497(7)
S2A S 0.29844(6) -0.10741(5) -0.19369(6)
O1A O 0.57040(17) -0.37354(13) -0.55274(17)
O1B O 0.57040(17) -0.12646(13) -0.05274(17)
O2C O 0.63575(17) 0.00822(12) 0.15029(18)
O2A O 0.36425(17) -0.00822(12) -0.15029(18)
C1A C 0.9183(3) -0.2595(3) -0.4615(4)
H1A H 0.9005 -0.1922 -0.4900
H2A H 0.9990 -0.2792 -0.4871
H3A H 0.9204 -0.2640 -0.3644
C2A C 0.8161(3) -0.3270(2) -0.5290(4)
H4A H 0.8423 -0.3956 -0.5139
H5A H 0.8058 -0.3150 -0.6264
C3A C 0.6309(2) -0.18554(18) -0.5335(3)
H6A H 0.6886 -0.1377 -0.4858
H7A H 0.6434 -0.1843 -0.6291
C4A C 0.4957(2) -0.1570(2) -0.5185(3)
H8A H 0.4390 -0.2050 -0.5671
H9A H 0.4779 -0.0927 -0.5609
C5A C 0.4678(2) -0.1519(2) -0.3721(3)
H10A H 0.4855 -0.2159 -0.3286
H11A H 0.5226 -0.1028 -0.3231
C6A C 0.3311(2) -0.1245(2) -0.3654(3)
H12A H 0.7233 0.3234 -0.0922
H13A H 0.6883 0.4364 -0.0838
C7A C 0.8667(3) 0.4246(3) -0.2733(3)
H14A H 0.9129 0.3673 -0.2339
H15A H 0.8979 0.4389 -0.3595
C8A C 0.8963(3) 0.5119(3) -0.1802(4)
H16A H 0.8439 0.5672 -0.2122
H17A H 0.9840 0.5297 -0.1789
H18A H 0.8800 0.4945 -0.0898
O3 O 0.1993(2) -0.16986(16) 0.2816(2)
O4 O 0.1336(2) -0.05844(18) 0.1070(2)
O5 O 0.2477(2) -0.00199(17) 0.3069(2)
O6 O 0.3499(2) -0.09855(19) 0.1576(3)
Cl1 Cl 0.23256(7) -0.08205(5) 0.21324(7)
loop_
_geom_bond_atom_site_label_1
_geom_bond_atom_site_label_2
_geom_bond_site_symmetry_1
_geom_bond_site_symmetry_2
Cu1 O1 1_555 1_555
S1 O1 1_555 1_555
S2 O2 1_555 1_555
O2 Cu1C 1_555 1_555
C1 H1 1_555 1_555
H2 C1 1_555 1_555
H3 C1 1_555 1_555
C2 S1 1_555 1_555
H4 C2 1_555 1_555
H5 C2 1_555 1_555
C3 S1 1_555 1_555
H6 C3 1_555 1_555
H7 C3 1_555 1_555
C4 C3 1_555 1_555
H8 C4 1_555 1_555
H9 C4 1_555 1_555
C5 C4 1_555 1_555
H10 C5 1_555 1_555
H11 C5 1_555 1_555
C6 S2 1_555 1_555
H12 C6A 1_555 1_555
H13 C6A 1_555 1_555
C7 H14 1_555 1_555
H15 C7 1_555 1_555
C8 C7 1_555 1_555
H16 C8 1_555 1_555
H17 C8 1_555 1_555
H18 C8 1_555 1_555
O3 Cl1 1_555 1_555
O4 Cl1 1_555 1_555
O5 Cl1 1_555 1_555
O6 Cl1 1_555 1_555
Cu1C_2 O1A 1_555 1_555
S1A O1A 1_555 1_555
S2A C7 1_555 1_555
O1B Cu1 1_555 1_555
O2C Cu1 1_555 1_555
O2A Cu1 1_555 1_555
C1A H1A 1_555 1_555
H2A C1A 1_555 1_555
H3A C1A 1_555 1_555
C2A S1A 1_555 1_555
H4A C2A 1_555 1_555
H5A C2A 1_555 1_555
C3A S1A 1_555 1_555
H6A C3A 1_555 1_555
H7A C3A 1_555 1_555
C4A C3A 1_555 1_555
H8A C4A 1_555 1_555
H9A C4A 1_555 1_555
C5A C4A 1_555 1_555
H10A C5A 1_555 1_555
H11A C5A 1_555 1_555
C6A S2A 1_555 1_555
H12A C6 1_555 1_555
H13A C6 1_555 1_555
C7A S2 1_555 1_555
H14A C7A 1_555 1_555
H15A C7A 1_555 1_555
C8A C7A 1_555 1_555
H16A C8A 1_555 1_555
H17A C8A 1_555 1_555
H18A C8A 1_555 1_555
C1 C2 1_555 1_555
C5 C6 1_555 1_555
S2A O2A 1_555 1_555
C1A C2A 1_555 1_555
C5A C6A 1_555 1_555

#END
