
#######################################################################
#
#                 Cambridge Crystallographic Data Centre
#                                CCDC 
#
#######################################################################
#
# If this CIF has been generated from an entry in the Cambridge 
# Structural Database, then it will include bibliographic, chemical, 
# crystal, experimental, refinement or atomic coordinate data resulting 
# from the CCDC's data processing and validation procedures.
#
#######################################################################

data_PATQEI
_symmetry_cell_setting           triclinic
_symmetry_space_group_name_H-M   'P -1'
_symmetry_Int_Tables_number      2
_space_group_name_Hall           '-P 1'
loop_
_symmetry_equiv_pos_site_id
_symmetry_equiv_pos_as_xyz
1 x,y,z
2 -x,-y,-z
_cell_length_a                   8.9845(3)
_cell_length_b                   12.5760(6)
_cell_length_c                   14.3161(6)
_cell_angle_alpha                67.106(4)
_cell_angle_beta                 80.345(3)
_cell_angle_gamma                71.350(4)
_cell_volume                     1410.15
loop_
_atom_site_label
_atom_site_type_symbol
_atom_site_fract_x
_atom_site_fract_y
_atom_site_fract_z
Cd1 Cd 0.0000 0.0000 1.0000
C1 C -0.3690(8) 0.1390(6) 1.0056(5)
H1 H -0.3384 0.1891 0.9408
C2 C -0.5190(8) 0.1738(7) 1.0442(6)
H2 H -0.5891 0.2483 1.0074
C3 C -0.5670(8) 0.1032(7) 1.1337(6)
H3 H -0.6712 0.1264 1.1608
C4 C -0.4630(7) -0.0033(6) 1.1855(5)
C5 C -0.3135(7) -0.0336(6) 1.1451(4)
H4 H -0.2417 -0.1072 1.1816
C6 C -0.6431(7) -0.1220(6) 1.2956(5)
C7 C -0.6440(7) -0.2160(6) 1.3998(4)
H5 H -0.6386 -0.2943 1.3948
C8 C -0.4964(7) -0.2274(6) 1.4463(5)
H6 H -0.4270 -0.3119 1.4643
C9 C -0.4139(7) -0.1432(6) 1.3645(4)
C10 C -0.7927(7) -0.1777(6) 1.4673(5)
H7 H -0.8924 -0.1662 1.4377
C11 C -0.7867(7) -0.0632(5) 1.4770(4)
H8 H -0.8686 0.0098 1.4560
C12 C -0.6589(7) -0.0730(6) 1.5169(5)
H9 H -0.6438 -0.0078 1.5285
C13 C -0.5388(7) -0.1934(6) 1.5430(4)
H10 H -0.4439 -0.1950 1.5721
C14 C -0.7708(7) -0.2793(6) 1.5726(4)
H11 H -0.7603 -0.3576 1.5658
C15 C -0.9043(8) -0.2561(5) 1.6487(5)
C16 C -0.6773(8) -0.2659(6) 1.7160(5)
C17 C -0.6235(7) -0.2875(6) 1.6182(5)
H12 H -0.5498 -0.3702 1.6329
C18 C -0.9264(7) -0.2438(5) 1.8198(4)
C19 C -1.0038(8) -0.3321(6) 1.8777(5)
H13 H -1.0057 -0.3926 1.8542
C20 C -1.0767(8) -0.3279(6) 1.9697(5)
H14 H -1.1259 -0.3879 2.0125
C21 C -1.0770(7) -0.2348(6) 1.9984(5)
H15 H -1.1297 -0.2314 2.0609
C22 C -0.9331(7) -0.1544(6) 1.8534(4)
H16 H -0.8839 -0.0937 1.8122
N1 N -0.2645(6) 0.0375(5) 1.0553(4)
N2 N -0.5077(6) -0.0854(5) 1.2806(4)
N3 N -0.8411(6) -0.2497(5) 1.7283(4)
N4 N -1.0057(6) -0.1481(5) 1.9417(4)
O1 O -0.6002(6) -0.2621(5) 1.7751(3)
O2 O -1.0404(5) -0.2437(4) 1.6428(3)
O3 O -0.7430(5) -0.0800(4) 1.2341(3)
O4 O -0.2935(5) -0.1240(4) 1.3688(3)
O11 O -0.0562(5) 0.1483(4) 0.8403(3)
H17 H -0.0760 0.2164 0.8443
H18 H -0.140(9) 0.150(7) 0.796(6)
Cd1_2 Cd -1.0000 0.0000 2.0000
Cd1_3 Cd 1.0000 0.0000 0.0000
C1A C 0.3690(8) -0.1390(6) 0.9944(5)
H1A H 0.3384 -0.1891 1.0592
C2A C 0.5190(8) -0.1738(7) 0.9558(6)
H2A H 0.5891 -0.2483 0.9926
C3A C 0.5670(8) -0.1032(7) 0.8663(6)
H3A H 0.6712 -0.1264 0.8392
C4A C 0.4630(7) 0.0033(6) 0.8145(5)
C5A C 0.3135(7) 0.0336(6) 0.8549(4)
H4A H 0.2417 0.1072 0.8184
C6A C 0.6431(7) 0.1220(6) 0.7044(5)
C7A C 0.6440(7) 0.2160(6) 0.6002(4)
H5A H 0.6386 0.2943 0.6052
C8A C 0.4964(7) 0.2274(6) 0.5537(5)
H6A H 0.4270 0.3119 0.5357
C9A C 0.4139(7) 0.1432(6) 0.6355(4)
C10A C 0.7927(7) 0.1777(6) 0.5327(5)
H7A H 0.8924 0.1662 0.5623
C11A C 0.7867(7) 0.0632(5) 0.5230(4)
H8A H 0.8686 -0.0098 0.5440
C12A C 0.6589(7) 0.0730(6) 0.4831(5)
H9A H 0.6438 0.0078 0.4715
C13A C 0.5388(7) 0.1934(6) 0.4570(4)
H10A H 0.4439 0.1950 0.4279
C14A C 0.7708(7) 0.2793(6) 0.4274(4)
H11A H 0.7603 0.3576 0.4342
C15A C 0.9043(8) 0.2561(5) 0.3513(5)
C16A C 0.6773(8) 0.2659(6) 0.2840(5)
C17A C 0.6235(7) 0.2875(6) 0.3818(5)
H12A H 0.5498 0.3702 0.3671
C18A C 0.9264(7) 0.2438(5) 0.1802(4)
C19A C 1.0038(8) 0.3321(6) 0.1223(5)
H13A H 1.0057 0.3926 0.1458
C20A C 1.0767(8) 0.3279(6) 0.0303(5)
H14A H 1.1259 0.3879 -0.0125
C21A C 1.0770(7) 0.2348(6) 0.0016(5)
H15A H 1.1297 0.2314 -0.0609
C22A C 0.9331(7) 0.1544(6) 0.1466(4)
H16A H 0.8839 0.0937 0.1878
N1A N 0.2645(6) -0.0375(5) 0.9447(4)
N2A N 0.5077(6) 0.0854(5) 0.7194(4)
N3A N 0.8411(6) 0.2497(5) 0.2717(4)
N4A N 1.0057(6) 0.1481(5) 0.0583(4)
N4_2 N -0.0057(6) -0.1481(5) 0.9417(4)
N4A_2 N 0.0057(6) 0.1481(5) 1.0583(4)
O1A O 0.6002(6) 0.2621(5) 0.2249(3)
O2A O 1.0404(5) 0.2437(4) 0.3572(3)
O3A O 0.7430(5) 0.0800(4) 0.7659(3)
O4A O 0.2935(5) 0.1240(4) 0.6312(3)
O11A O 0.0562(5) -0.1483(4) 1.1597(3)
H17A H 0.0760 -0.2164 1.1557
H18A H 0.140(9) -0.150(7) 1.204(6)
O5 O 0.5061(17) -0.615(2) 1.7644(15)
O6 O 0.3388(17) -0.7156(7) 1.8043(9)
O7 O 0.3731(13) -0.5648(6) 1.6480(5)
O8 O 0.2644(9) -0.5197(5) 1.7898(5)
Cl1 Cl 0.3517(3) -0.60657(16) 1.75211(14)
O9 O 0.370(2) -0.4904(19) 1.0388(16)
O10 O 0.1310(14) -0.3918(11) 1.2044(10)
loop_
_geom_bond_atom_site_label_1
_geom_bond_atom_site_label_2
_geom_bond_site_symmetry_1
_geom_bond_site_symmetry_2
Cd1 N1 1_555 1_555
C1 H1 1_555 1_555
C2 C1 1_555 1_555
H2 C2 1_555 1_555
C3 C2 1_555 1_555
H3 C3 1_555 1_555
C4 C3 1_555 1_555
C5 C4 1_555 1_555
H4 C5 1_555 1_555
C6 C7 1_555 1_555
C7 H5 1_555 1_555
C8 C7 1_555 1_555
H6 C8 1_555 1_555
C9 C8 1_555 1_555
C10 C7 1_555 1_555
H7 C10 1_555 1_555
C11 C10 1_555 1_555
H8 C11 1_555 1_555
C12 C11 1_555 1_555
H9 C12 1_555 1_555
C13 C8 1_555 1_555
H10 C13 1_555 1_555
C14 C10 1_555 1_555
H11 C14 1_555 1_555
C15 C14 1_555 1_555
C16 C17 1_555 1_555
C17 C13 1_555 1_555
H12 C17 1_555 1_555
C18 C19 1_555 1_555
C19 H13 1_555 1_555
C20 C19 1_555 1_555
H14 C20 1_555 1_555
C21 C20 1_555 1_555
H15 C21 1_555 1_555
C22 C18 1_555 1_555
H16 C22 1_555 1_555
N1 C1 1_555 1_555
N2 C4 1_555 1_555
N3 C15 1_555 1_555
N4 C21 1_555 1_555
O1 C16 1_555 1_555
O2 C15 1_555 1_555
O3 C6 1_555 1_555
O4 C9 1_555 1_555
O5 Cl1 1_555 1_555
O6 Cl1 1_555 1_555
O7 Cl1 1_555 1_555
O8 Cl1 1_555 1_555
O11 Cd1 1_555 1_555
H17 O11 1_555 1_555
H18 O11 1_555 1_555
Cd1_2 N4 1_555 1_555
Cd1_3 N4A 1_555 1_555
C1A H1A 1_555 1_555
C2A C1A 1_555 1_555
H2A C2A 1_555 1_555
C3A C2A 1_555 1_555
H3A C3A 1_555 1_555
C4A C3A 1_555 1_555
C5A C4A 1_555 1_555
H4A C5A 1_555 1_555
C6A C7A 1_555 1_555
C7A H5A 1_555 1_555
C8A C7A 1_555 1_555
H6A C8A 1_555 1_555
C9A C8A 1_555 1_555
C10A C7A 1_555 1_555
H7A C10A 1_555 1_555
C11A C10A 1_555 1_555
H8A C11A 1_555 1_555
C12A C11A 1_555 1_555
H9A C12A 1_555 1_555
C13A C8A 1_555 1_555
H10A C13A 1_555 1_555
C14A C10A 1_555 1_555
H11A C14A 1_555 1_555
C15A C14A 1_555 1_555
C16A C17A 1_555 1_555
C17A C13A 1_555 1_555
H12A C17A 1_555 1_555
C18A C19A 1_555 1_555
C19A H13A 1_555 1_555
C20A C19A 1_555 1_555
H14A C20A 1_555 1_555
C21A C20A 1_555 1_555
H15A C21A 1_555 1_555
C22A C18A 1_555 1_555
H16A C22A 1_555 1_555
N1A Cd1 1_555 1_555
N2A C4A 1_555 1_555
N3A C15A 1_555 1_555
N4A C21A 1_555 1_555
N4_2 Cd1 1_555 1_555
N4A_2 Cd1 1_555 1_555
O1A C16A 1_555 1_555
O2A C15A 1_555 1_555
O3A C6A 1_555 1_555
O4A C9A 1_555 1_555
O11A Cd1 1_555 1_555
H17A O11A 1_555 1_555
H18A O11A 1_555 1_555
C5 N1 1_555 1_555
C6 N2 1_555 1_555
C9 N2 1_555 1_555
C12 C13 1_555 1_555
C14 C17 1_555 1_555
C16 N3 1_555 1_555
C18 N3 1_555 1_555
C22 N4 1_555 1_555
C1A N1A 1_555 1_555
C5A N1A 1_555 1_555
C6A N2A 1_555 1_555
C9A N2A 1_555 1_555
C12A C13A 1_555 1_555
C14A C17A 1_555 1_555
C16A N3A 1_555 1_555
C18A N3A 1_555 1_555
C22A N4A 1_555 1_555

#END
