
#######################################################################
#
#                 Cambridge Crystallographic Data Centre
#                                CCDC 
#
#######################################################################
#
# If this CIF has been generated from an entry in the Cambridge 
# Structural Database, then it will include bibliographic, chemical, 
# crystal, experimental, refinement or atomic coordinate data resulting 
# from the CCDC's data processing and validation procedures.
#
#######################################################################

data_PATQIM
_symmetry_cell_setting           triclinic
_symmetry_space_group_name_H-M   'P -1'
_symmetry_Int_Tables_number      2
_space_group_name_Hall           '-P 1'
loop_
_symmetry_equiv_pos_site_id
_symmetry_equiv_pos_as_xyz
1 x,y,z
2 -x,-y,-z
_cell_length_a                   9.597(5)
_cell_length_b                   11.831(5)
_cell_length_c                   13.041(5)
_cell_angle_alpha                102.587(5)
_cell_angle_beta                 95.215(5)
_cell_angle_gamma                107.603(5)
_cell_volume                     1357.74
loop_
_atom_site_label
_atom_site_type_symbol
_atom_site_fract_x
_atom_site_fract_y
_atom_site_fract_z
Cd1 Cd 1.0000 0.5000 0.5000
S1 S 0.82446(12) 0.47486(11) 0.24685(8)
F1 F 0.9935(4) 0.5552(3) 0.1168(2)
C1 C 1.1157(5) 0.7961(3) 0.6453(3)
H1 H 1.1863 0.7728 0.6841
N1 N 1.0260(4) 0.7145(3) 0.5584(3)
O1 O 1.1877(5) 0.8714(3) 0.8839(3)
O2 O 1.2721(3) 1.1646(2) 0.6995(2)
F2 F 0.8111(3) 0.3904(3) 0.0435(2)
N2 N 1.2060(4) 0.9981(3) 0.7710(3)
C2 C 1.1088(5) 0.9131(3) 0.6803(3)
F3 F 0.9990(3) 0.3844(3) 0.1387(2)
N3 N 1.3827(3) 1.4089(3) 1.2251(2)
O3 O 1.3553(4) 1.2390(3) 1.2893(2)
C3 C 1.0020(5) 0.9454(4) 0.6251(3)
H2 H 0.9915 1.0237 0.6490
O4 O 1.3949(3) 1.5380(2) 1.1159(2)
N4 N 1.2358(4) 1.5345(3) 1.4565(2)
C4 C 0.9127(5) 0.8621(4) 0.5358(4)
H3 H 0.8397 0.8820 0.4960
O5 O 0.9505(4) 0.5206(3) 0.3322(2)
C5 C 0.9299(5) 0.7486(4) 0.5043(3)
H4 H 0.8698 0.6925 0.4407
O6 O 0.7244(4) 0.3571(4) 0.2456(3)
C6 C 1.2414(6) 0.9704(4) 0.8664(3)
O7 O 0.7548(4) 0.5617(4) 0.2321(3)
C7 C 1.3519(6) 1.0839(4) 0.9417(3)
H5 H 1.4485 1.0702 0.9577
C8 C 1.3720(5) 1.1854(3) 0.8832(3)
H6 H 1.4787 1.2196 0.8769
C9 C 1.2811(5) 1.1223(3) 0.7744(3)
C10 C 1.2922(6) 1.1194(4) 1.0468(3)
H7 H 1.2745 1.0532 1.0852
C11 C 1.1567(5) 1.1492(4) 1.0226(3)
H8 H 1.0662 1.1097 1.0436
C12 C 1.1685(5) 1.2337(4) 0.9702(3)
H9 H 1.0872 1.2582 0.9488
C13 C 1.3218(4) 1.2886(3) 0.9468(3)
H10 H 1.3257 1.3534 0.9080
C14 C 1.4172(5) 1.2392(3) 1.1126(3)
H11 H 1.5136 1.2234 1.1222
C15 C 1.3813(5) 1.2898(4) 1.2197(3)
C16 C 1.4014(4) 1.4419(3) 1.1295(3)
C17 C 1.4305(4) 1.3405(3) 1.0535(3)
H12 H 1.5341 1.3705 1.0390
C18 C 1.3748(4) 1.4900(3) 1.3206(3)
C19 C 1.2471(4) 1.4652(3) 1.3641(3)
H13 H 1.1638 1.3962 1.3271
C20 C 1.3547(4) 1.6329(4) 1.5070(3)
H14 H 1.3491 1.6824 1.5735
C21 C 1.4819(5) 1.6639(4) 1.4665(3)
H15 H 1.5632 1.7343 1.5040
C22 C 1.4932(5) 1.5935(4) 1.3712(3)
H16 H 1.5806 1.6155 1.3408
C23 C 0.9116(5) 0.4495(4) 0.1299(3)
Cd1_2 Cd 1.0000 1.5000 1.5000
Cd1_3 Cd 1.0000 -0.5000 -0.5000
S1A S 1.17554(12) 0.52514(11) 0.75315(8)
F1A F 1.0065(4) 0.4448(3) 0.8832(2)
C1A C 0.8843(5) 0.2039(3) 0.3547(3)
H1A H 0.8137 0.2272 0.3159
N1A N 0.9740(4) 0.2855(3) 0.4416(3)
O1A O 0.8123(5) 0.1286(3) 0.1161(3)
O2A O 0.7279(3) -0.1646(2) 0.3005(2)
F2A F 1.1889(3) 0.6096(3) 0.9565(2)
N2A N 0.7940(4) 0.0019(3) 0.2290(3)
C2A C 0.8912(5) 0.0869(3) 0.3197(3)
F3A F 1.0010(3) 0.6156(3) 0.8613(2)
N3A N 0.6173(3) -0.4089(3) -0.2251(2)
O3A O 0.6447(4) -0.2390(3) -0.2893(2)
C3A C 0.9980(5) 0.0546(4) 0.3749(3)
H2A H 1.0085 -0.0237 0.3510
O4A O 0.6051(3) -0.5380(2) -0.1159(2)
N4A N 0.7642(4) -0.5345(3) -0.4565(2)
N4_2 N 1.2358(4) 0.5345(3) 0.4565(2)
N4A_2 N 0.7642(4) 0.4655(3) 0.5435(2)
C4A C 1.0873(5) 0.1379(4) 0.4642(4)
H3A H 1.1603 0.1180 0.5040
O5A O 1.0495(4) 0.4794(3) 0.6678(2)
C5A C 1.0701(5) 0.2514(4) 0.4957(3)
H4A H 1.1302 0.3075 0.5593
O6A O 1.2756(4) 0.6429(4) 0.7544(3)
C6A C 0.7586(6) 0.0296(4) 0.1336(3)
O7A O 1.2452(4) 0.4383(4) 0.7679(3)
C7A C 0.6481(6) -0.0839(4) 0.0583(3)
H5A H 0.5515 -0.0702 0.0423
C8A C 0.6280(5) -0.1854(3) 0.1168(3)
H6A H 0.5213 -0.2196 0.1231
C9A C 0.7189(5) -0.1223(3) 0.2256(3)
C10A C 0.7078(6) -0.1194(4) -0.0468(3)
H7A H 0.7255 -0.0532 -0.0852
C11A C 0.8433(5) -0.1492(4) -0.0226(3)
H8A H 0.9338 -0.1097 -0.0436
C12A C 0.8315(5) -0.2337(4) 0.0298(3)
H9A H 0.9128 -0.2582 0.0512
C13A C 0.6782(4) -0.2886(3) 0.0532(3)
H10A H 0.6743 -0.3534 0.0920
C14A C 0.5828(5) -0.2392(3) -0.1126(3)
H11A H 0.4864 -0.2234 -0.1222
C15A C 0.6187(5) -0.2898(4) -0.2197(3)
C16A C 0.5986(4) -0.4419(3) -0.1295(3)
C17A C 0.5695(4) -0.3405(3) -0.0535(3)
H12A H 0.4659 -0.3705 -0.0390
C18A C 0.6252(4) -0.4900(3) -0.3206(3)
C19A C 0.7529(4) -0.4652(3) -0.3641(3)
H13A H 0.8362 -0.3962 -0.3271
C20A C 0.6453(4) -0.6329(4) -0.5070(3)
H14A H 0.6509 -0.6824 -0.5735
C21A C 0.5181(5) -0.6639(4) -0.4665(3)
H15A H 0.4368 -0.7343 -0.5040
C22A C 0.5068(5) -0.5935(4) -0.3712(3)
H16A H 0.4194 -0.6155 -0.3408
C23A C 1.0884(5) 0.5505(4) 0.8701(3)
O8 O 1.5885(5) 1.0608(4) 0.7784(4)
C24 C 1.7326(8) 1.1541(6) 0.8068(5)
H17 H 1.8090 1.1198 0.8290
H18 H 1.7332 1.2226 0.8662
C25 C 1.5618(8) 1.0087(7) 0.6682(6)
H19 H 1.4593 0.9991 0.6377
H20 H 1.5734 0.9267 0.6533
C26 C 1.6721(11) 1.0927(9) 0.6178(8)
H21 H 1.7357 1.0501 0.5819
H22 H 1.6205 1.1221 0.5654
C27 C 1.7620(13) 1.1972(11) 0.7111(9)
H23 H 1.7318 1.2704 0.7124
H24 H 1.8689 1.2190 0.7066
loop_
_geom_bond_atom_site_label_1
_geom_bond_atom_site_label_2
_geom_bond_site_symmetry_1
_geom_bond_site_symmetry_2
Cd1 N1 1_555 1_555
S1 O5 1_555 1_555
F1 C23 1_555 1_555
C1 H1 1_555 1_555
N1 C1 1_555 1_555
O1 C6 1_555 1_555
O2 C9 1_555 1_555
F2 C23 1_555 1_555
N2 C2 1_555 1_555
C2 C1 1_555 1_555
F3 C23 1_555 1_555
N3 C15 1_555 1_555
O3 C15 1_555 1_555
C3 C2 1_555 1_555
H2 C3 1_555 1_555
O4 C16 1_555 1_555
N4 C19 1_555 1_555
C4 C3 1_555 1_555
H3 C4 1_555 1_555
O5 Cd1 1_555 1_555
C5 N1 1_555 1_555
H4 C5 1_555 1_555
O6 S1 1_555 1_555
C6 N2 1_555 1_555
O7 S1 1_555 1_555
C7 C6 1_555 1_555
H5 C7 1_555 1_555
C8 C7 1_555 1_555
H6 C8 1_555 1_555
C9 N2 1_555 1_555
C10 C7 1_555 1_555
H7 C10 1_555 1_555
C11 C10 1_555 1_555
H8 C11 1_555 1_555
C12 C11 1_555 1_555
H9 C12 1_555 1_555
C13 C8 1_555 1_555
H10 C13 1_555 1_555
C14 C10 1_555 1_555
H11 C14 1_555 1_555
C15 C14 1_555 1_555
C16 N3 1_555 1_555
C17 C13 1_555 1_555
H12 C17 1_555 1_555
C18 N3 1_555 1_555
C19 C18 1_555 1_555
H13 C19 1_555 1_555
C20 N4 1_555 1_555
H14 C20 1_555 1_555
C21 C20 1_555 1_555
H15 C21 1_555 1_555
C22 C18 1_555 1_555
H16 C22 1_555 1_555
C23 S1 1_555 1_555
O8 C24 1_555 1_555
C24 H17 1_555 1_555
H18 C24 1_555 1_555
C25 O8 1_555 1_555
H19 C25 1_555 1_555
H20 C25 1_555 1_555
C26 C25 1_555 1_555
H21 C26 1_555 1_555
H22 C26 1_555 1_555
C27 C24 1_555 1_555
H23 C27 1_555 1_555
H24 C27 1_555 1_555
Cd1_2 N4 1_555 1_555
Cd1_3 N4A 1_555 1_555
S1A O5A 1_555 1_555
F1A C23A 1_555 1_555
C1A H1A 1_555 1_555
N1A Cd1 1_555 1_555
O1A C6A 1_555 1_555
O2A C9A 1_555 1_555
F2A C23A 1_555 1_555
N2A C2A 1_555 1_555
C2A C1A 1_555 1_555
F3A C23A 1_555 1_555
N3A C15A 1_555 1_555
O3A C15A 1_555 1_555
C3A C2A 1_555 1_555
H2A C3A 1_555 1_555
O4A C16A 1_555 1_555
N4A C19A 1_555 1_555
N4_2 Cd1 1_555 1_555
N4A_2 Cd1 1_555 1_555
C4A C3A 1_555 1_555
H3A C4A 1_555 1_555
O5A Cd1 1_555 1_555
C5A N1A 1_555 1_555
H4A C5A 1_555 1_555
O6A S1A 1_555 1_555
C6A N2A 1_555 1_555
O7A S1A 1_555 1_555
C7A C6A 1_555 1_555
H5A C7A 1_555 1_555
C8A C7A 1_555 1_555
H6A C8A 1_555 1_555
C9A N2A 1_555 1_555
C10A C7A 1_555 1_555
H7A C10A 1_555 1_555
C11A C10A 1_555 1_555
H8A C11A 1_555 1_555
C12A C11A 1_555 1_555
H9A C12A 1_555 1_555
C13A C8A 1_555 1_555
H10A C13A 1_555 1_555
C14A C10A 1_555 1_555
H11A C14A 1_555 1_555
C15A C14A 1_555 1_555
C16A N3A 1_555 1_555
C17A C13A 1_555 1_555
H12A C17A 1_555 1_555
C18A N3A 1_555 1_555
C19A C18A 1_555 1_555
H13A C19A 1_555 1_555
C20A N4A 1_555 1_555
H14A C20A 1_555 1_555
C21A C20A 1_555 1_555
H15A C21A 1_555 1_555
C22A C18A 1_555 1_555
H16A C22A 1_555 1_555
C23A S1A 1_555 1_555
C4 C5 1_555 1_555
C8 C9 1_555 1_555
C12 C13 1_555 1_555
C14 C17 1_555 1_555
C16 C17 1_555 1_555
C21 C22 1_555 1_555
C26 C27 1_555 1_555
C1A N1A 1_555 1_555
C4A C5A 1_555 1_555
C8A C9A 1_555 1_555
C12A C13A 1_555 1_555
C14A C17A 1_555 1_555
C16A C17A 1_555 1_555
C21A C22A 1_555 1_555

#END
