
#######################################################################
#
#                 Cambridge Crystallographic Data Centre
#                                CCDC 
#
#######################################################################
#
# If this CIF has been generated from an entry in the Cambridge 
# Structural Database, then it will include bibliographic, chemical, 
# crystal, experimental, refinement or atomic coordinate data resulting 
# from the CCDC's data processing and validation procedures.
#
#######################################################################

data_PATQAD
_symmetry_cell_setting           triclinic
_symmetry_space_group_name_H-M   'P -1'
_symmetry_Int_Tables_number      2
_space_group_name_Hall           '-P 1'
loop_
_symmetry_equiv_pos_site_id
_symmetry_equiv_pos_as_xyz
1 x,y,z
2 -x,-y,-z
_cell_length_a                   7.815(3)
_cell_length_b                   8.810(3)
_cell_length_c                   13.419(5)
_cell_angle_alpha                88.899(6)
_cell_angle_beta                 78.171(6)
_cell_angle_gamma                66.659(6)
_cell_volume                     828.298
loop_
_atom_site_label
_atom_site_type_symbol
_atom_site_fract_x
_atom_site_fract_y
_atom_site_fract_z
Cu1 Cu 0.0000 0.0000 0.0000
S1 S 0.25410(11) 0.06721(9) 0.12563(6)
S2 S -0.08362(11) 0.33866(9) -0.08028(6)
O1 O 0.1641(3) -0.0464(2) 0.09613(16)
O2 O 0.0694(3) 0.1794(2) -0.05237(16)
C1 C -0.1700(7) 0.2872(7) 0.4375(4)
H1 H -0.2276 0.4051 0.4527
H2 H -0.1384 0.2329 0.4980
H3 H -0.2578 0.2524 0.4142
C2 C 0.0113(7) 0.2417(6) 0.3543(3)
H4 H -0.0212 0.2971 0.2935
H5 H 0.0977 0.2808 0.3772
C3 C 0.1095(6) 0.0600(5) 0.3286(3)
H6 H 0.0234 0.0229 0.3039
H7 H 0.1351 0.0055 0.3907
C4 C 0.2959(5) 0.0043(5) 0.2494(3)
H8 H 0.3610 -0.1154 0.2466
H9 H 0.3778 0.0517 0.2692
C5 C 0.4960(4) -0.0247(4) 0.0544(2)
H10 H 0.5758 0.0124 0.0854
H11 H 0.5437 -0.1444 0.0553
C6 C 0.4006(8) 0.2174(9) -0.4397(4)
H12 H 0.4101 0.2124 -0.5121
H13 H 0.4830 0.1124 -0.4205
H14 H 0.4382 0.3023 -0.4209
C7 C 0.1988(7) 0.2561(7) -0.3857(3)
H15 H 0.1614 0.1704 -0.4056
H16 H 0.1159 0.3603 -0.4072
C8 C 0.1710(6) 0.2681(6) -0.2706(3)
H17 H 0.2391 0.1594 -0.2482
H18 H 0.2257 0.3417 -0.2514
C9 C -0.0340(5) 0.3306(4) -0.2173(2)
H19 H -0.0892 0.2609 -0.2412
H20 H -0.0990 0.4414 -0.2380
C10 C 0.0051(5) 0.4910(4) -0.0563(2)
H21 H 0.1362 0.4569 -0.0935
H22 H -0.0707 0.5965 -0.0795
Cu1_2 Cu 1.0000 0.0000 0.0000
Cu1_3 Cu 0.0000 1.0000 0.0000
S1A S 0.74590(11) -0.06721(9) -0.12563(6)
S2A S 0.08362(11) 0.66134(9) 0.08028(6)
O1A O 0.8359(3) 0.0464(2) -0.09613(16)
O1A_2 O -0.1641(3) 0.0464(2) -0.09613(16)
O2A O -0.0694(3) 0.8206(2) 0.05237(16)
O2A_2 O -0.0694(3) -0.1794(2) 0.05237(16)
C1A C 1.1700(7) -0.2872(7) -0.4375(4)
H1A H 1.2276 -0.4051 -0.4527
H2A H 1.1384 -0.2329 -0.4980
H3A H 1.2578 -0.2524 -0.4142
C2A C 0.9887(7) -0.2417(6) -0.3543(3)
H4A H 1.0212 -0.2971 -0.2935
H5A H 0.9023 -0.2808 -0.3772
C3A C 0.8905(6) -0.0600(5) -0.3286(3)
H6A H 0.9766 -0.0229 -0.3039
H7A H 0.8649 -0.0055 -0.3907
C4A C 0.7041(5) -0.0043(5) -0.2494(3)
H8A H 0.6390 0.1154 -0.2466
H9A H 0.6222 -0.0517 -0.2692
C5A C 0.5040(4) 0.0247(4) -0.0544(2)
H10A H 0.4242 -0.0124 -0.0854
H11A H 0.4563 0.1444 -0.0553
C6A C -0.4006(8) 0.7826(9) 0.4397(4)
H12A H -0.4101 0.7876 0.5121
H13A H -0.4830 0.8876 0.4205
H14A H -0.4382 0.6977 0.4209
C7A C -0.1988(7) 0.7439(7) 0.3857(3)
H15A H -0.1614 0.8296 0.4056
H16A H -0.1159 0.6397 0.4072
C8A C -0.1710(6) 0.7319(6) 0.2706(3)
H17A H -0.2391 0.8406 0.2482
H18A H -0.2257 0.6583 0.2514
C9A C 0.0340(5) 0.6694(4) 0.2173(2)
H19A H 0.0892 0.7391 0.2412
H20A H 0.0990 0.5586 0.2380
C10A C -0.0051(5) 0.5090(4) 0.0563(2)
H21A H -0.1362 0.5431 0.0935
H22A H 0.0707 0.4035 0.0795
Cl1 Cl -0.43808(15) 0.33624(14) 0.18585(9)
O3 O -0.2536(5) 0.2260(5) 0.1417(3)
O4 O -0.4387(7) 0.4935(6) 0.1942(5)
O5 O -0.5019(9) 0.2911(9) 0.2784(4)
O6 O -0.5652(5) 0.3373(5) 0.1244(4)
loop_
_geom_bond_atom_site_label_1
_geom_bond_atom_site_label_2
_geom_bond_site_symmetry_1
_geom_bond_site_symmetry_2
Cu1 O1 1_555 1_555
S1 O1 1_555 1_555
S2 O2 1_555 1_555
O2 Cu1 1_555 1_555
C1 H1 1_555 1_555
H2 C1 1_555 1_555
H3 C1 1_555 1_555
C2 C1 1_555 1_555
H4 C2 1_555 1_555
H5 C2 1_555 1_555
C3 C2 1_555 1_555
H6 C3 1_555 1_555
H7 C3 1_555 1_555
C4 S1 1_555 1_555
H8 C4 1_555 1_555
H9 C4 1_555 1_555
C5 S1 1_555 1_555
H10 C5 1_555 1_555
H11 C5 1_555 1_555
C6 H12 1_555 1_555
H13 C6 1_555 1_555
H14 C6 1_555 1_555
C7 C6 1_555 1_555
H15 C7 1_555 1_555
H16 C7 1_555 1_555
C8 C7 1_555 1_555
H17 C8 1_555 1_555
H18 C8 1_555 1_555
C9 S2 1_555 1_555
H19 C9 1_555 1_555
H20 C9 1_555 1_555
C10 S2 1_555 1_555
H21 C10 1_555 1_555
H22 C10 1_555 1_555
Cl1 O3 1_555 1_555
O4 Cl1 1_555 1_555
O5 Cl1 1_555 1_555
O6 Cl1 1_555 1_555
Cu1_2 O1A 1_555 1_555
Cu1_3 O2A 1_555 1_555
S1A O1A 1_555 1_555
S2A O2A 1_555 1_555
O1A_2 Cu1 1_555 1_555
O2A_2 Cu1 1_555 1_555
C1A H1A 1_555 1_555
H2A C1A 1_555 1_555
H3A C1A 1_555 1_555
C2A C1A 1_555 1_555
H4A C2A 1_555 1_555
H5A C2A 1_555 1_555
C3A C2A 1_555 1_555
H6A C3A 1_555 1_555
H7A C3A 1_555 1_555
C4A S1A 1_555 1_555
H8A C4A 1_555 1_555
H9A C4A 1_555 1_555
C5A C5 1_555 1_555
H10A C5A 1_555 1_555
H11A C5A 1_555 1_555
C6A H12A 1_555 1_555
H13A C6A 1_555 1_555
H14A C6A 1_555 1_555
C7A C6A 1_555 1_555
H15A C7A 1_555 1_555
H16A C7A 1_555 1_555
C8A C7A 1_555 1_555
H17A C8A 1_555 1_555
H18A C8A 1_555 1_555
C9A S2A 1_555 1_555
H19A C9A 1_555 1_555
H20A C9A 1_555 1_555
C10A C10 1_555 1_555
H21A C10A 1_555 1_555
H22A C10A 1_555 1_555
C3 C4 1_555 1_555
C8 C9 1_555 1_555
S1A C5A 1_555 1_555
S2A C10A 1_555 1_555
C3A C4A 1_555 1_555
C8A C9A 1_555 1_555

#END
