
#######################################################################
#
#                 Cambridge Crystallographic Data Centre
#                                CCDC 
#
#######################################################################
#
# If this CIF has been generated from an entry in the Cambridge 
# Structural Database, then it will include bibliographic, chemical, 
# crystal, experimental, refinement or atomic coordinate data resulting 
# from the CCDC's data processing and validation procedures.
#
#######################################################################

data_PATREJ
_symmetry_cell_setting           monoclinic
_symmetry_space_group_name_H-M   'C 2/c'
_symmetry_Int_Tables_number      15
_space_group_name_Hall           '-C 2yn'
loop_
_symmetry_equiv_pos_site_id
_symmetry_equiv_pos_as_xyz
1 x,y,z
2 -x,y,1/2-z
3 1/2+x,1/2+y,z
4 1/2-x,1/2+y,1/2-z
5 -x,-y,-z
6 x,-y,1/2+z
7 1/2-x,1/2-y,-z
8 1/2+x,1/2-y,1/2+z
_cell_length_a                   25.5812(6)
_cell_length_b                   13.7824(3)
_cell_length_c                   13.6089(4)
_cell_angle_alpha                90
_cell_angle_beta                 97.767(1)
_cell_angle_gamma                90
_cell_volume                     4754.08
loop_
_atom_site_label
_atom_site_type_symbol
_atom_site_fract_x
_atom_site_fract_y
_atom_site_fract_z
Cd1 Cd 0.558804(9) 0.090578(17) 0.537154(16)
Cd2 Cd 0.5000 0.06104(3) 0.2500
Cl1 Cl 0.53538(3) 0.19217(6) 0.37716(6)
Cl2 Cl 0.41233(3) 0.02650(6) 0.30915(6)
Cl3 Cl 0.46295(3) -0.06410(6) 0.08413(6)
C1 C 0.68501(14) 0.1240(3) 0.5919(3)
H1 H 0.6744 0.1433 0.6532
C2 C 0.73715(14) 0.1353(3) 0.5779(2)
C3 C 0.75395(14) 0.1054(3) 0.4896(3)
H2 H 0.7895 0.1141 0.4781
C4 C 0.71666(15) 0.0620(3) 0.4185(3)
H3 H 0.7269 0.0373 0.3588
C5 C 0.66515(14) 0.0553(2) 0.4356(2)
H4 H 0.6400 0.0279 0.3855
C6 C 0.76024(14) 0.2556(3) 0.7155(2)
C7 C 0.80966(13) 0.2816(3) 0.7862(3)
H5 H 0.8188 0.3514 0.7780
C8 C 0.85361(13) 0.2170(3) 0.7571(2)
H6 H 0.8814 0.2578 0.7322
C9 C 0.82757(14) 0.1523(3) 0.6749(3)
C10 C 0.80182(13) 0.2612(3) 0.8964(2)
H7 H 0.7715 0.2988 0.9164
C11 C 0.79518(13) 0.1535(3) 0.9100(2)
H8 H 0.7655 0.1268 0.9355
C12 C 0.83369(14) 0.0989(3) 0.8839(3)
H9 H 0.8335 0.0301 0.8882
C13 C 0.87831(13) 0.1552(3) 0.8463(2)
H10 H 0.9066 0.1112 0.8281
C14 C 0.91985(13) 0.1745(3) 1.0253(3)
C15 C 0.89986(13) 0.2275(3) 0.9295(2)
H11 H 0.9288 0.2674 0.9077
C16 C 0.85550(14) 0.2938(3) 0.9555(2)
H12 H 0.8631 0.3625 0.9384
C17 C 0.85676(13) 0.2841(2) 1.0665(3)
C18 C 0.91055(14) 0.1978(3) 1.2052(3)
C19 C 0.91798(14) 0.2777(3) 1.2679(3)
H13 H 0.9144 0.3409 1.2398
C20 C 0.93687(16) 0.1790(3) 1.4044(3)
H14 H 0.9448 0.1715 1.4742
C21 C 0.93272(18) 0.0967(3) 1.3454(3)
H15 H 0.9398 0.0346 1.3744
C22 C 0.91818(16) 0.1051(3) 1.2434(3)
H16 H 0.9137 0.0495 1.2018
N1 N 0.64868(12) 0.0861(2) 0.5207(2)
N2 N 0.77390(11) 0.1800(2) 0.6539(2)
N3 N 0.89590(12) 0.2161(2) 1.1018(2)
N4 N 0.93007(12) 0.2690(2) 1.3665(2)
O1 O 0.71752(10) 0.2922(2) 0.70959(18)
O2 O 0.84760(11) 0.0874(2) 0.6338(2)
O3 O 0.82934(10) 0.32681(19) 1.11822(18)
O4 O 0.95107(11) 0.1085(2) 1.0356(2)
Cd1A Cd 0.441196(9) 0.090578(17) -0.037154(16)
Cd1D Cd 0.441196(9) -0.090578(17) 0.462846(16)
Cd1E Cd 0.558804(9) -0.090578(17) 0.037154(16)
Cd1F Cd 0.941196(9) 0.409422(17) 1.462846(16)
Cl1A Cl 0.46462(3) 0.19217(6) 0.12284(6)
Cl2A Cl 0.58767(3) 0.02650(6) 0.19085(6)
Cl2D Cl 0.58767(3) -0.02650(6) 0.69085(6)
Cl2E Cl 0.41233(3) -0.02650(6) -0.19085(6)
Cl3A Cl 0.53705(3) -0.06410(6) 0.41587(6)
Cl3E Cl 0.46295(3) 0.06410(6) 0.58413(6)
Cl3D Cl 0.53705(3) 0.06410(6) -0.08413(6)
C1F C 0.81499(14) 0.3760(3) 1.4081(3)
H1F H 0.8256 0.3567 1.3468
C2F C 0.76285(14) 0.3647(3) 1.4221(2)
C3F C 0.74605(14) 0.3946(3) 1.5104(3)
H2F H 0.7105 0.3859 1.5219
C4F C 0.78334(15) 0.4380(3) 1.5815(3)
H3F H 0.7731 0.4627 1.6412
C5F C 0.83485(14) 0.4447(2) 1.5644(2)
H4F H 0.8600 0.4721 1.6145
C6F C 0.73976(14) 0.2444(3) 1.2845(2)
C7F C 0.69034(13) 0.2184(3) 1.2138(3)
H5F H 0.6812 0.1486 1.2220
C8F C 0.64639(13) 0.2830(3) 1.2429(2)
H6F H 0.6186 0.2422 1.2678
C9F C 0.67243(14) 0.3477(3) 1.3251(3)
C10F C 0.69818(13) 0.2388(3) 1.1036(2)
H7F H 0.7285 0.2012 1.0836
C11F C 0.70482(13) 0.3465(3) 1.0900(2)
H8F H 0.7345 0.3732 1.0645
C12F C 0.66631(14) 0.4011(3) 1.1161(3)
H9F H 0.6665 0.4699 1.1118
C13F C 0.62169(13) 0.3448(3) 1.1537(2)
H10F H 0.5934 0.3888 1.1719
C14F C 0.58015(13) 0.3255(3) 0.9747(3)
C15F C 0.60014(13) 0.2725(3) 1.0705(2)
H11F H 0.5712 0.2326 1.0923
C16F C 0.64450(14) 0.2062(3) 1.0445(2)
H12F H 0.6369 0.1375 1.0616
C17F C 0.64324(13) 0.2159(2) 0.9335(3)
C18F C 0.58945(14) 0.3022(3) 0.7948(3)
C19F C 0.58202(14) 0.2223(3) 0.7321(3)
H13F H 0.5856 0.1591 0.7602
C20F C 0.56313(16) 0.3210(3) 0.5956(3)
H14F H 0.5552 0.3285 0.5258
C21F C 0.56728(18) 0.4033(3) 0.6546(3)
H15F H 0.5602 0.4654 0.6256
C22F C 0.58182(16) 0.3949(3) 0.7566(3)
H16F H 0.5863 0.4505 0.7982
N1F N 0.85132(12) 0.4139(2) 1.4793(2)
N1A N 0.35132(12) 0.0861(2) -0.0207(2)
N2F N 0.72610(11) 0.3200(2) 1.3461(2)
N3F N 0.60410(12) 0.2839(2) 0.8982(2)
N4F N 0.56993(12) 0.2310(2) 0.6335(2)
N4G N 0.43007(12) 0.2310(2) -0.1335(2)
O1F O 0.78248(10) 0.2078(2) 1.29041(18)
O2F O 0.65240(11) 0.4126(2) 1.3662(2)
O3F O 0.67066(10) 0.17319(19) 0.88178(18)
O4F O 0.54893(11) 0.3915(2) 0.9644(2)
O5 O 1.0000 0.103(2) 0.7500
O6 O 0.7225(11) 0.4348(19) 0.843(2)
loop_
_geom_bond_atom_site_label_1
_geom_bond_atom_site_label_2
_geom_bond_site_symmetry_1
_geom_bond_site_symmetry_2
Cd1 Cl1 1_555 1_555
Cd2 Cl1 1_555 1_555
Cl2 Cd2 1_555 1_555
Cl3 Cd2 1_555 1_555
C1 H1 1_555 1_555
C2 C1 1_555 1_555
C3 C2 1_555 1_555
H2 C3 1_555 1_555
C4 C3 1_555 1_555
H3 C4 1_555 1_555
C5 C4 1_555 1_555
H4 C5 1_555 1_555
C6 C7 1_555 1_555
C7 H5 1_555 1_555
C8 C7 1_555 1_555
H6 C8 1_555 1_555
C9 C8 1_555 1_555
C10 C7 1_555 1_555
H7 C10 1_555 1_555
C11 C10 1_555 1_555
H8 C11 1_555 1_555
C12 C11 1_555 1_555
H9 C12 1_555 1_555
C13 C8 1_555 1_555
H10 C13 1_555 1_555
C14 C15 1_555 1_555
C15 C13 1_555 1_555
H11 C15 1_555 1_555
C16 C10 1_555 1_555
H12 C16 1_555 1_555
C17 C16 1_555 1_555
C18 C19 1_555 1_555
C19 H13 1_555 1_555
C20 H14 1_555 1_555
C21 C20 1_555 1_555
H15 C21 1_555 1_555
C22 C18 1_555 1_555
H16 C22 1_555 1_555
N1 Cd1 1_555 1_555
N2 C2 1_555 1_555
N3 C14 1_555 1_555
N4 C19 1_555 1_555
O1 C6 1_555 1_555
O2 C9 1_555 1_555
O3 C17 1_555 1_555
O4 C14 1_555 1_555
Cd1A Cl3 1_555 1_555
Cd1D Cl2 1_555 1_555
Cd1E Cl3 1_555 1_555
Cd1F N4 1_555 1_555
Cl1A Cd2 1_555 1_555
Cl2A Cd2 1_555 1_555
Cl2D Cd1 1_555 1_555
Cl2E Cd1A 1_555 1_555
Cl3A Cd1 1_555 1_555
Cl3E Cd1 1_555 1_555
Cl3D Cd1A 1_555 1_555
C1F H1F 1_555 1_555
C2F C1F 1_555 1_555
C3F C2F 1_555 1_555
H2F C3F 1_555 1_555
C4F C3F 1_555 1_555
H3F C4F 1_555 1_555
C5F C4F 1_555 1_555
H4F C5F 1_555 1_555
C6F C7F 1_555 1_555
C7F H5F 1_555 1_555
C8F C7F 1_555 1_555
H6F C8F 1_555 1_555
C9F C8F 1_555 1_555
C10F C7F 1_555 1_555
H7F C10F 1_555 1_555
C11F C10F 1_555 1_555
H8F C11F 1_555 1_555
C12F C11F 1_555 1_555
H9F C12F 1_555 1_555
C13F C8F 1_555 1_555
H10F C13F 1_555 1_555
C14F C15F 1_555 1_555
C15F C13F 1_555 1_555
H11F C15F 1_555 1_555
C16F C10F 1_555 1_555
H12F C16F 1_555 1_555
C17F C16F 1_555 1_555
C18F C19F 1_555 1_555
C19F H13F 1_555 1_555
C20F H14F 1_555 1_555
C21F C20F 1_555 1_555
H15F C21F 1_555 1_555
C22F C18F 1_555 1_555
H16F C22F 1_555 1_555
N1F Cd1F 1_555 1_555
N1A Cd1A 1_555 1_555
N2F C2F 1_555 1_555
N3F C14F 1_555 1_555
N4F Cd1 1_555 1_555
N4G Cd1A 1_555 1_555
O1F C6F 1_555 1_555
O2F C9F 1_555 1_555
O3F C17F 1_555 1_555
O4F C14F 1_555 1_555
Cd2 Cl3A 1_555 1_555
C1 N1 1_555 1_555
C5 N1 1_555 1_555
C6 N2 1_555 1_555
C9 N2 1_555 1_555
C12 C13 1_555 1_555
C15 C16 1_555 1_555
C17 N3 1_555 1_555
C18 N3 1_555 1_555
C20 N4 1_555 1_555
C21 C22 1_555 1_555
Cd1A Cl1A 1_555 1_555
Cd1D Cl3A 1_555 1_555
Cd1D Cl3E 1_555 1_555
Cd1E Cl2A 1_555 1_555
Cd1E Cl3D 1_555 1_555
C1F N1F 1_555 1_555
C5F N1F 1_555 1_555
C6F N2F 1_555 1_555
C9F N2F 1_555 1_555
C12F C13F 1_555 1_555
C15F C16F 1_555 1_555
C17F N3F 1_555 1_555
C18F N3F 1_555 1_555
C19F N4F 1_555 1_555
C20F N4F 1_555 1_555
C21F C22F 1_555 1_555

#END
