
#######################################################################
#
#                 Cambridge Crystallographic Data Centre
#                                CCDC 
#
#######################################################################
#
# If this CIF has been generated from an entry in the Cambridge 
# Structural Database, then it will include bibliographic, chemical, 
# crystal, experimental, refinement or atomic coordinate data resulting 
# from the CCDC's data processing and validation procedures.
#
#######################################################################

data_PATRAE
_symmetry_cell_setting           rhombohedral
_symmetry_space_group_name_H-M   'R -3 c'
_symmetry_Int_Tables_number      167
_space_group_name_Hall           '-R 3 2"c'
loop_
_symmetry_equiv_pos_site_id
_symmetry_equiv_pos_as_xyz
1 x,y,z
2 -y,x-y,z
3 -x+y,-x,z
4 y,x,1/2-z
5 2/3+x,1/3+y,1/3+z
6 2/3-y,1/3+x-y,1/3+z
7 2/3-x+y,1/3-x,1/3+z
8 2/3+y,1/3+x,5/6-z
9 1/3+x,2/3+y,2/3+z
10 1/3+y,2/3+x,1/6-z
11 x-y,-y,1/2-z
12 -x,-x+y,1/2-z
13 1/3-y,2/3+x-y,2/3+z
14 1/3-x+y,2/3-x,2/3+z
15 1/3+x-y,2/3-y,1/6-z
16 1/3-x,2/3-x+y,1/6-z
17 2/3+x-y,1/3-y,5/6-z
18 2/3-x,1/3-x+y,5/6-z
19 -x,-y,-z
20 y,-x+y,-z
21 x-y,x,-z
22 -y,-x,1/2+z
23 1/3-x,2/3-y,2/3-z
24 1/3+y,2/3-x+y,2/3-z
25 1/3+x-y,2/3+x,2/3-z
26 1/3-y,2/3-x,1/6+z
27 2/3-x,1/3-y,1/3-z
28 2/3-y,1/3-x,5/6+z
29 -x+y,y,1/2+z
30 x,x-y,1/2+z
31 2/3+y,1/3-x+y,1/3-z
32 2/3+x-y,1/3+x,1/3-z
33 2/3-x+y,1/3+y,5/6+z
34 2/3+x,1/3+x-y,5/6+z
35 1/3-x+y,2/3+y,1/6+z
36 1/3+x,2/3+x-y,1/6+z
_cell_length_a                   10.339(2)
_cell_length_b                   10.339(2)
_cell_length_c                   65.69(1)
_cell_angle_alpha                90
_cell_angle_beta                 90
_cell_angle_gamma                120.00
_cell_volume                     6081.17
loop_
_atom_site_label
_atom_site_type_symbol
_atom_site_fract_x
_atom_site_fract_y
_atom_site_fract_z
Cu1 Cu -2.0000 -1.0000 0.0000
S1 S -1.22129(10) -0.96547(11) -0.029780(15)
C1 C -1.3438(6) -1.1840(6) -0.06006(7)
H1 H -1.3466 -1.2023 -0.0744
H2 H -1.3084 -1.2417 -0.0530
H3 H -1.4424 -1.2122 -0.0554
C2 C -1.2409(5) -1.0214(5) -0.05595(6)
H4 H -1.1428 -0.9942 -0.0612
H5 H -1.2764 -0.9648 -0.0635
C3 C -1.4114(5) -1.0285(5) -0.02399(6)
H6 H -1.4683 -1.1367 -0.0245
H7 H -1.4527 -0.9900 -0.0340
C4 C -1.4224(5) -0.9748(5) -0.00288(6)
H8 H -2.1335 -0.4989 -0.0025
H9 H -1.9880 -0.3669 0.0070
O1 O -1.1879(2) -1.0737(3) -0.01838(4)
Cu1_2 Cu -1.0000 -1.0000 0.0000
Cu1_3 Cu -2.0000 0.0000 0.0000
Cu1_4 Cu -3.0000 -2.0000 0.0000
S1R S -1.77871(10) -1.03453(11) 0.029780(15)
S1S S -1.96547(11) -0.74418(15) 0.029780(15)
S1A S -2.03453(11) -0.25582(15) -0.029780(15)
S1T S -2.25582(15) -1.22129(10) 0.029780(15)
S1B S -2.74418(15) -1.77871(10) -0.029780(15)
C1R C -1.6562(6) -0.8160(6) 0.06006(7)
C1S C -2.1840(6) -0.8402(8) 0.06006(7)
C1A C -1.8160(6) -0.1598(8) -0.06006(7)
C1T C -2.1598(8) -1.3438(6) 0.06006(7)
C1B C -2.8402(8) -1.6562(6) -0.06006(7)
H1R H -1.6534 -0.7977 0.0744
H1S H -2.2023 -0.8557 0.0744
H1A H -1.7977 -0.1443 -0.0744
H1T H -2.1443 -1.3466 0.0744
H1B H -2.8557 -1.6534 -0.0744
H2R H -1.6916 -0.7583 0.0530
H2S H -2.2417 -0.9333 0.0530
H2A H -1.7583 -0.0667 -0.0530
H2T H -2.0667 -1.3084 0.0530
H2B H -2.9333 -1.6916 -0.0530
H3R H -1.5576 -0.7878 0.0554
H3S H -2.2122 -0.7698 0.0554
H3A H -1.7878 -0.2302 -0.0554
H3T H -2.2302 -1.4424 0.0554
H3B H -2.7698 -1.5576 -0.0554
C2R C -1.7591(5) -0.9786(5) 0.05595(6)
C2S C -2.0214(5) -0.7805(7) 0.05595(6)
C2A C -1.9786(5) -0.2195(7) -0.05595(6)
C2T C -2.2195(7) -1.2409(5) 0.05595(6)
C2B C -2.7805(7) -1.7591(5) -0.05595(6)
H4R H -1.8572 -1.0058 0.0612
H4S H -1.9942 -0.8514 0.0612
H4A H -2.0058 -0.1486 -0.0612
H4T H -2.1486 -1.1428 0.0612
H4B H -2.8514 -1.8572 -0.0612
H5R H -1.7236 -1.0352 0.0635
H5S H -1.9648 -0.6884 0.0635
H5A H -2.0352 -0.3116 -0.0635
H5T H -2.3116 -1.2764 0.0635
H5B H -2.6884 -1.7236 -0.0635
C3R C -1.5886(5) -0.9715(5) 0.02399(6)
C3S C -2.0285(5) -0.6171(7) 0.02399(6)
C3A C -1.9715(5) -0.3829(7) -0.02399(6)
C3T C -2.3829(7) -1.4114(5) 0.02399(6)
C3B C -2.6171(7) -1.5886(5) -0.02399(6)
H6S H -2.1367 -0.6684 0.0245
H6A H -1.8633 -0.3316 -0.0245
H6R H -1.5317 -0.8633 0.0245
H6T H -2.3316 -1.4683 0.0245
H6B H -2.6684 -1.5317 -0.0245
H7S H -1.9900 -0.5373 0.0340
H7A H -2.0100 -0.4627 -0.0340
H7R H -1.5473 -1.0100 0.0340
H7T H -2.4627 -1.4527 0.0340
H7B H -2.5373 -1.5473 -0.0340
C4R C -1.5776(5) -1.0252(5) 0.00288(6)
C4S C -1.9748(5) -0.5524(7) 0.00288(6)
C4A C -2.0252(5) -0.4476(7) -0.00288(6)
C4T C -2.4476(7) -1.4224(5) 0.00288(6)
C4B C -2.5524(7) -1.5776(5) -0.00288(6)
H8R H -1.8665 -0.5011 0.0025
H8T H -1.6346 -1.1335 0.0025
H8B H -1.3654 -0.8665 -0.0025
H8S H -2.4989 -1.3654 0.0025
H8A H -2.5011 -1.6346 -0.0025
H9R H -2.0120 -0.6331 -0.0070
H9T H -1.6211 -0.9880 -0.0070
H9B H -1.3789 -1.0120 0.0070
H9S H -2.3669 -1.3789 -0.0070
H9A H -2.6331 -1.6211 0.0070
O1R O -1.8121(2) -0.9263(3) 0.01838(4)
O1S O -2.0737(3) -0.8858(4) 0.01838(4)
O1A O -1.9263(3) -0.1142(4) -0.01838(4)
O1T O -2.1142(4) -1.1879(2) 0.01838(4)
O1_2 O -2.1879(2) -1.0737(3) -0.01838(4)
O1A_2 O -1.9263(3) -1.1142(4) -0.01838(4)
O1B O -1.8858(4) -0.8121(2) -0.01838(4)
O1B_2 O -2.8858(4) -1.8121(2) -0.01838(4)
Cl1 Cl 0.0000 0.0000 0.11015(2)
O2 O 0.1304(6) 0.1246(6) 0.10362(8)
O3 O 0.0000 0.0000 0.13084(10)
O2A O -0.1246(6) 0.0058(8) 0.10362(8)
O2B O -0.0058(8) -0.1304(6) 0.10362(8)
loop_
_geom_bond_atom_site_label_1
_geom_bond_atom_site_label_2
_geom_bond_site_symmetry_1
_geom_bond_site_symmetry_2
Cu1 O1R 1_555 1_555
Cl1 O2 1_555 1_555
S1 C2 1_555 1_555
C1 H1 1_555 1_555
H2 C1 1_555 1_555
H3 C1 1_555 1_555
C2 C1 1_555 1_555
H4 C2 1_555 1_555
H5 C2 1_555 1_555
C3 S1 1_555 1_555
H6 C3 1_555 1_555
H7 C3 1_555 1_555
C4 C3 1_555 1_555
H8 C4A 1_555 1_555
H9 C4A 1_555 1_555
O1 S1 1_555 1_555
O3 Cl1 1_555 1_555
Cu1_2 O1 1_555 1_555
Cu1_3 O1A 1_555 1_555
Cu1_4 O1B_2 1_555 1_555
S1R C2R 1_555 1_555
S1S C2S 1_555 1_555
S1A C2A 1_555 1_555
S1T C2T 1_555 1_555
S1B C2B 1_555 1_555
C1R H1R 1_555 1_555
C1S H1S 1_555 1_555
C1A H1A 1_555 1_555
C1T H1T 1_555 1_555
C1B H1B 1_555 1_555
H2R C1R 1_555 1_555
H2S C1S 1_555 1_555
H2A C1A 1_555 1_555
H2T C1T 1_555 1_555
H2B C1B 1_555 1_555
H3R C1R 1_555 1_555
H3S C1S 1_555 1_555
H3A C1A 1_555 1_555
H3T C1T 1_555 1_555
H3B C1B 1_555 1_555
C2R C1R 1_555 1_555
C2S C1S 1_555 1_555
C2A C1A 1_555 1_555
C2T C1T 1_555 1_555
C2B C1B 1_555 1_555
H4R C2R 1_555 1_555
H4S C2S 1_555 1_555
H4A C2A 1_555 1_555
H4T C2T 1_555 1_555
H4B C2B 1_555 1_555
H5R C2R 1_555 1_555
H5S C2S 1_555 1_555
H5A C2A 1_555 1_555
H5T C2T 1_555 1_555
H5B C2B 1_555 1_555
C3R S1R 1_555 1_555
C3S S1S 1_555 1_555
C3A S1A 1_555 1_555
C3T S1T 1_555 1_555
C3B S1B 1_555 1_555
H6S C3S 1_555 1_555
H6A C3A 1_555 1_555
H6R C3R 1_555 1_555
H6T C3T 1_555 1_555
H6B C3B 1_555 1_555
H7S C3S 1_555 1_555
H7A C3A 1_555 1_555
H7R C3R 1_555 1_555
H7T C3T 1_555 1_555
H7B C3B 1_555 1_555
C4R C4 1_555 1_555
C4S C3S 1_555 1_555
C4A C3A 1_555 1_555
C4T C3T 1_555 1_555
C4B C3B 1_555 1_555
H8R C4S 1_555 1_555
H8T C4R 1_555 1_555
H8B C4 1_555 1_555
H8S C4T 1_555 1_555
H8A C4B 1_555 1_555
H9R C4S 1_555 1_555
H9T C4R 1_555 1_555
H9B C4 1_555 1_555
H9S C4T 1_555 1_555
H9A C4B 1_555 1_555
O1R S1R 1_555 1_555
O1S Cu1 1_555 1_555
O1A S1A 1_555 1_555
O1T Cu1 1_555 1_555
O1_2 Cu1 1_555 1_555
O1A_2 Cu1 1_555 1_555
O1B Cu1 1_555 1_555
O1B_2 S1B 1_555 1_555
O2A Cl1 1_555 1_555
O2B Cl1 1_555 1_555
S1S O1S 1_555 1_555
S1T O1T 1_555 1_555
C3R C4R 1_555 1_555
C4S C4A 1_555 1_555
C4T C4B 1_555 1_555

#END
