
#######################################################################
#
#                 Cambridge Crystallographic Data Centre
#                                CCDC 
#
#######################################################################
#
# If this CIF has been generated from an entry in the Cambridge 
# Structural Database, then it will include bibliographic, chemical, 
# crystal, experimental, refinement or atomic coordinate data resulting 
# from the CCDC's data processing and validation procedures.
#
#######################################################################

data_PATREI
_symmetry_cell_setting           tetragonal
_symmetry_space_group_name_H-M   'P 4/n c c'
_symmetry_Int_Tables_number      130
_space_group_name_Hall           '-P 4a 2ac'
loop_
_symmetry_equiv_pos_site_id
_symmetry_equiv_pos_as_xyz
1 x,y,z
2 1/2-y,x,z
3 y,1/2-x,z
4 1/2+y,1/2+x,1/2-z
5 1/2-x,1/2-y,z
6 -x,1/2+y,1/2-z
7 1/2+x,-y,1/2-z
8 -y,-x,1/2-z
9 -x,-y,-z
10 1/2+y,-x,-z
11 -y,1/2+x,-z
12 1/2-y,1/2-x,1/2+z
13 1/2+x,1/2+y,-z
14 x,1/2-y,1/2+z
15 1/2-x,y,1/2+z
16 y,x,1/2+z
_cell_length_a                   14.6317(2)
_cell_length_b                   14.6317(2)
_cell_length_c                   15.8750(6)
_cell_angle_alpha                90
_cell_angle_beta                 90
_cell_angle_gamma                90
_cell_volume                     3398.63
loop_
_atom_site_label
_atom_site_type_symbol
_atom_site_fract_x
_atom_site_fract_y
_atom_site_fract_z
Cl1 Cl 0.7500 0.2500 0.0000
O2 O 0.7195(4) 0.1721(4) 0.0368(4)
O2I O 0.6721(4) 0.2805(4) -0.0368(4)
O2J O 0.8279(4) 0.2195(4) -0.0368(4)
O2D O 0.7805(4) 0.3279(4) 0.0368(4)
Cu1 Cu 0.2500 0.2500 0.39420(5)
S1 S 0.45410(5) 0.29061(5) 0.41441(6)
C1 C 0.5480(6) 0.2479(6) 0.1762(5)
H1 H 0.5082 0.2406 0.1285
H2 H 0.5822 0.1927 0.1847
H3 H 0.5893 0.2977 0.1660
C2 C 0.4982(5) 0.2657(8) 0.2447(3)
H4 H 0.4568 0.2141 0.2482
H5 H 0.4605 0.3171 0.2278
C3 C 0.5186(3) 0.2841(5) 0.3269(2)
H6 H 0.5498 0.3426 0.3248
H7 H 0.5654 0.2397 0.3410
C4 C 0.5026(3) 0.3774(3) 0.4626(5)
H8 H 0.5167 0.3527 0.5177
H9 H 0.5611 0.3824 0.4342
C5 C 0.4813(3) 0.4650(2) 0.4795(3)
H10 H 0.4701 0.4903 0.4239
H11 H 0.4214 0.4600 0.5053
Cl2 Cl 0.2500 0.2500 0.61249(17)
O1 O 0.35907(13) 0.32363(13) 0.38598(15)
O3 O 0.2500 0.2500 0.6998(3)
O5 O 0.2112(10) 0.2816(9) 0.5364(4)
C5H C 0.5187(3) 0.5350(2) 0.5205(3)
O1A O 0.17637(13) 0.35907(13) 0.38598(15)
O1B O 0.32363(13) 0.14093(13) 0.38598(15)
O1D O 0.14093(13) 0.17637(13) 0.38598(15)
O5A O 0.2184(9) 0.2112(10) 0.5364(4)
O5B O 0.2816(9) 0.2888(10) 0.5364(4)
O5D O 0.2888(10) 0.2184(9) 0.5364(4)
O4? O 0.2058(9) 0.1572(5) 0.6027(7)
loop_
_geom_bond_atom_site_label_1
_geom_bond_atom_site_label_2
_geom_bond_site_symmetry_1
_geom_bond_site_symmetry_2
Cu1 O1 1_555 1_555
S1 C3 1_555 1_555
C1 H1 1_555 1_555
H2 C1 1_555 1_555
H3 C1 1_555 1_555
C2 C1 1_555 1_555
H4 C2 1_555 1_555
H5 C2 1_555 1_555
C3 C2 1_555 1_555
H6 C3 1_555 1_555
H7 C3 1_555 1_555
C4 S1 1_555 1_555
H8 C4 1_555 1_555
H9 C4 1_555 1_555
C5 C4 1_555 1_555
H10 C5 1_555 1_555
H11 C5 1_555 1_555
Cl1 O2 1_555 1_555
Cl2 O3 1_555 1_555
O1 S1 1_555 1_555
O5 Cu1 1_555 1_555
C5H C5 1_555 1_555
O1A Cu1 1_555 1_555
O1B Cu1 1_555 1_555
O1D Cu1 1_555 1_555
O2I Cl1 1_555 1_555
O2J Cl1 1_555 1_555
O2D Cl1 1_555 1_555
O5A Cu1 1_555 1_555
O5B Cu1 1_555 1_555
O5D Cu1 1_555 1_555
Cl2 O5 1_555 1_555
Cl2 O5A 1_555 1_555
Cl2 O5B 1_555 1_555
Cl2 O5D 1_555 1_555
O5 O5A 1_555 1_555
O5 O5B 1_555 1_555
O5 O5D 1_555 1_555
O5A O5B 1_555 1_555
O5A O5D 1_555 1_555
O5B O5D 1_555 1_555

#END
