
#######################################################################
#
#                 Cambridge Crystallographic Data Centre
#                                CCDC 
#
#######################################################################
#
# If this CIF has been generated from an entry in the Cambridge 
# Structural Database, then it will include bibliographic, chemical, 
# crystal, experimental, refinement or atomic coordinate data resulting 
# from the CCDC's data processing and validation procedures.
#
#######################################################################

data_PATSEK
_symmetry_cell_setting           triclinic
_symmetry_space_group_name_H-M   'P -1'
_symmetry_Int_Tables_number      2
_space_group_name_Hall           '-P 1'
loop_
_symmetry_equiv_pos_site_id
_symmetry_equiv_pos_as_xyz
1 x,y,z
2 -x,-y,-z
_cell_length_a                   10.426(5)
_cell_length_b                   14.228(5)
_cell_length_c                   15.195(5)
_cell_angle_alpha                101.070(5)
_cell_angle_beta                 100.043(5)
_cell_angle_gamma                92.132(5)
_cell_volume                     2172.37
loop_
_atom_site_label
_atom_site_type_symbol
_atom_site_fract_x
_atom_site_fract_y
_atom_site_fract_z
Cd1 Cd -0.29167(3) -1.26602(2) 0.39673(2)
Cd2 Cd -0.13859(3) -0.41767(2) 0.55294(2)
C1 C 0.0447(5) -0.7091(3) 0.2908(4)
C2 C -0.0060(5) -0.7660(3) 0.1959(3)
C3 C 0.0413(5) -0.7452(4) 0.1230(4)
H1 H 0.1044 -0.6948 0.1313
C4 C -0.0056(6) -0.8000(4) 0.0364(4)
H2 H 0.0250 -0.7850 -0.0136
C5 C -0.0972(5) -0.8764(4) 0.0237(3)
H3 H -0.1268 -0.9135 -0.0343
C6 C -0.1436(5) -0.8970(3) 0.0964(3)
C7 C -0.1007(5) -0.8399(3) 0.1837(3)
H4 H -0.1359 -0.8519 0.2330
C8 C -0.2703(6) -1.0394(3) 0.0097(3)
H5 H -0.3224 -1.0123 -0.0373
H6 H -0.1918 -1.0611 -0.0114
C9 C -0.3460(6) -1.1208(3) 0.0303(3)
C10 C -0.4783(6) -1.1386(3) -0.0038(3)
H7 H -0.5220 -1.0979 -0.0379
C11 C -0.5460(5) -1.2170(3) 0.0128(3)
H8 H -0.6348 -1.2285 -0.0112
C12 C -0.4849(5) -1.2786(3) 0.0641(3)
C13 C -0.3530(5) -1.2583(3) 0.1003(3)
H9 H -0.3100 -1.2977 0.1362
C14 C -0.2852(5) -1.1814(4) 0.0839(3)
H10 H -0.1968 -1.1693 0.1091
C15 C -0.5562(4) -1.3667(3) 0.0752(3)
C16 C -0.6428(4) -1.4198(3) -0.0011(3)
H11 H -0.6598 -1.3957 -0.0543
C17 C -0.7028(5) -1.5066(4) 0.0012(4)
H12 H -0.7596 -1.5407 -0.0500
C18 C -0.6786(5) -1.5430(4) 0.0797(4)
H13 H -0.7191 -1.6018 0.0815
C19 C -0.5942(4) -1.4923(3) 0.1556(3)
H14 H -0.5774 -1.5174 0.2083
C20 C -0.5338(4) -1.4034(3) 0.1540(3)
C21 C -0.4473(5) -1.3513(3) 0.2409(3)
C22 C -0.1338(5) -1.0849(3) 0.3442(4)
H15 H -0.1113 -1.1209 0.2920
C23 C -0.1055(5) -0.9893(3) 0.3736(3)
H16 H -0.0611 -0.9481 0.3466
C24 C -0.2109(5) -1.0465(3) 0.4655(3)
H17 H -0.2521 -1.0498 0.5146
C25 C -0.1574(4) -0.8695(3) 0.5054(3)
H18 H -0.1693 -0.8735 0.5665
H19 H -0.0744 -0.8339 0.5102
C26 C -0.2661(5) -0.8178(3) 0.4615(3)
H20 H -0.3490 -0.8524 0.4590
H21 H -0.2560 -0.8167 0.3994
C27 C -0.3240(4) -0.6884(3) 0.5858(3)
H22 H -0.3704 -0.7258 0.6152
C28 C -0.2985(4) -0.5920(3) 0.6069(3)
H23 H -0.3254 -0.5513 0.6548
C29 C -0.2102(4) -0.6426(3) 0.4914(3)
H24 H -0.1644 -0.6447 0.4438
C30 C 0.3835(4) -0.7323(3) 0.4451(3)
C31 C 0.4480(4) -0.7172(3) 0.3686(3)
C32 C 0.5051(5) -0.6250(3) 0.3755(3)
H25 H 0.4873 -0.5747 0.4196
C33 C 0.5866(5) -0.6076(4) 0.3184(4)
H26 H 0.6248 -0.5461 0.3243
C34 C 0.6125(5) -0.6816(4) 0.2514(4)
H27 H 0.6691 -0.6705 0.2129
C35 C 0.5529(5) -0.7718(4) 0.2429(3)
H28 H 0.5696 -0.8210 0.1973
C36 C 0.4699(4) -0.7923(3) 0.2990(3)
C37 C 0.4077(4) -0.8923(3) 0.2798(3)
C38 C 0.2745(5) -0.9110(3) 0.2726(3)
H29 H 0.2225 -0.8603 0.2855
C39 C 0.2175(5) -1.0038(3) 0.2465(3)
H30 H 0.1276 -1.0143 0.2408
C40 C 0.2919(5) -1.0813(3) 0.2288(3)
C41 C 0.4253(5) -1.0628(3) 0.2372(3)
H31 H 0.4778 -1.1137 0.2266
C42 C 0.4812(4) -0.9701(3) 0.2613(3)
H32 H 0.5707 -0.9595 0.2651
C43 C 0.2340(5) -1.1836(3) 0.1977(3)
H33 H 0.2153 -1.1995 0.1315
H34 H 0.2971 -1.2265 0.2189
C44 C 0.0713(4) -1.2913(3) 0.2225(4)
C45 C 0.0810(5) -1.3650(3) 0.1501(3)
H35 H 0.1201 -1.3533 0.1024
C46 C 0.0315(5) -1.4564(3) 0.1505(4)
H36 H 0.0346 -1.5056 0.1010
C47 C -0.0221(4) -1.4766(3) 0.2215(3)
H37 H -0.0531 -1.5389 0.2207
C48 C -0.0296(4) -1.4039(3) 0.2937(3)
C49 C 0.0143(4) -1.3099(3) 0.2925(3)
H38 H 0.0047 -1.2599 0.3397
C50 C -0.0737(4) -1.4206(3) 0.3779(3)
N1 N -0.1995(4) -1.1211(2) 0.4012(3)
N2 N -0.1562(4) -0.9661(2) 0.4513(3)
N3 N -0.2669(3) -0.7195(2) 0.5116(3)
N4 N -0.2276(3) -0.5631(2) 0.5479(2)
O1 O -0.0025(4) -0.7256(3) 0.3565(2)
O2 O 0.1356(3) -0.6451(2) 0.2989(2)
O3 O -0.2371(4) -0.9688(2) 0.0934(2)
O4 O -0.4756(3) -1.2718(2) 0.2801(2)
O5 O -0.3491(3) -1.3899(2) 0.2733(2)
O6 O -0.1070(3) -1.3499(2) 0.43245(19)
O7 O -0.0701(3) -1.5017(2) 0.3977(2)
O8 O 0.1200(4) -1.1970(2) 0.2306(3)
O9 O 0.3308(3) -0.6609(2) 0.4870(2)
O10 O 0.3887(3) -0.8087(2) 0.4737(2)
Cd1A Cd 0.29167(3) -0.73398(2) 0.60327(2)
Cd2A Cd 0.13859(3) -0.58233(2) 0.44706(2)
Cd2_2 Cd -0.13859(3) -1.41767(2) 0.55294(2)
Cd2A_2 Cd 0.13859(3) -1.58233(2) 0.44706(2)
O1A O 0.0025(4) -0.2744(3) 0.6435(2)
O2A O -0.1356(3) -0.3549(2) 0.7011(2)
O6_2 O -0.1070(3) -0.3499(2) 0.43245(19)
O7A O 0.0701(3) -0.4983(2) 0.6023(2)
O9A O -0.3308(3) -1.3391(2) 0.5130(2)
O9A_2 O -0.3308(3) -0.3391(2) 0.5130(2)
O10A O -0.3887(3) -1.1913(2) 0.5263(2)
O11 O 0.4564(16) -0.0438(13) 0.4583(11)
loop_
_geom_bond_atom_site_label_1
_geom_bond_atom_site_label_2
_geom_bond_site_symmetry_1
_geom_bond_site_symmetry_2
Cd1 N1 1_555 1_555
Cd2 N4 1_555 1_555
C1 C2 1_555 1_555
C2 C3 1_555 1_555
C3 H1 1_555 1_555
C4 C3 1_555 1_555
H2 C4 1_555 1_555
C5 C4 1_555 1_555
H3 C5 1_555 1_555
C6 C5 1_555 1_555
C7 C2 1_555 1_555
H4 C7 1_555 1_555
C8 H5 1_555 1_555
H6 C8 1_555 1_555
C9 C8 1_555 1_555
C10 C9 1_555 1_555
H7 C10 1_555 1_555
C11 C10 1_555 1_555
H8 C11 1_555 1_555
C12 C11 1_555 1_555
C13 C12 1_555 1_555
H9 C13 1_555 1_555
C14 C9 1_555 1_555
H10 C14 1_555 1_555
C15 C12 1_555 1_555
C16 C15 1_555 1_555
H11 C16 1_555 1_555
C17 C16 1_555 1_555
H12 C17 1_555 1_555
C18 C17 1_555 1_555
H13 C18 1_555 1_555
C19 C18 1_555 1_555
H14 C19 1_555 1_555
C20 C15 1_555 1_555
C21 C20 1_555 1_555
C22 H15 1_555 1_555
C23 C22 1_555 1_555
H16 C23 1_555 1_555
C24 H17 1_555 1_555
C25 H18 1_555 1_555
H19 C25 1_555 1_555
C26 C25 1_555 1_555
H20 C26 1_555 1_555
H21 C26 1_555 1_555
C27 H22 1_555 1_555
C28 C27 1_555 1_555
H23 C28 1_555 1_555
C29 H24 1_555 1_555
C30 C31 1_555 1_555
C31 C32 1_555 1_555
C32 H25 1_555 1_555
C33 C32 1_555 1_555
H26 C33 1_555 1_555
C34 C33 1_555 1_555
H27 C34 1_555 1_555
C35 C34 1_555 1_555
H28 C35 1_555 1_555
C36 C31 1_555 1_555
C37 C36 1_555 1_555
C38 C37 1_555 1_555
H29 C38 1_555 1_555
C39 C38 1_555 1_555
H30 C39 1_555 1_555
C40 C39 1_555 1_555
C41 C40 1_555 1_555
H31 C41 1_555 1_555
C42 C37 1_555 1_555
H32 C42 1_555 1_555
C43 C40 1_555 1_555
H33 C43 1_555 1_555
H34 C43 1_555 1_555
C44 C45 1_555 1_555
C45 H35 1_555 1_555
C46 C45 1_555 1_555
H36 C46 1_555 1_555
C47 C46 1_555 1_555
H37 C47 1_555 1_555
C48 C47 1_555 1_555
C49 C44 1_555 1_555
H38 C49 1_555 1_555
C50 C48 1_555 1_555
N1 C22 1_555 1_555
N2 C23 1_555 1_555
N3 C26 1_555 1_555
N4 C28 1_555 1_555
O1 C1 1_555 1_555
O2 C1 1_555 1_555
O3 C6 1_555 1_555
O4 Cd1 1_555 1_555
O5 Cd1 1_555 1_555
O6 Cd1 1_555 1_555
O7 C50 1_555 1_555
O8 C43 1_555 1_555
O9 C30 1_555 1_555
O10 C30 1_555 1_555
Cd1A O9 1_555 1_555
Cd2A O1 1_555 1_555
Cd2_2 O6 1_555 1_555
Cd2A_2 O7 1_555 1_555
O1A Cd2 1_555 1_555
O2A Cd2 1_555 1_555
O6_2 Cd2 1_555 1_555
O7A Cd2 1_555 1_555
O9A Cd1 1_555 1_555
O9A_2 Cd2 1_555 1_555
O10A Cd1 1_555 1_555
C6 C7 1_555 1_555
C8 O3 1_555 1_555
C13 C14 1_555 1_555
C19 C20 1_555 1_555
C21 O4 1_555 1_555
C21 O5 1_555 1_555
C24 N1 1_555 1_555
C24 N2 1_555 1_555
C25 N2 1_555 1_555
C27 N3 1_555 1_555
C29 N3 1_555 1_555
C29 N4 1_555 1_555
C35 C36 1_555 1_555
C41 C42 1_555 1_555
C44 O8 1_555 1_555
C48 C49 1_555 1_555
C50 O6 1_555 1_555
O2 Cd2A 1_555 1_555
O9 Cd2A 1_555 1_555
O10 Cd1A 1_555 1_555
Cd2_2 O9A 1_555 1_555

#END
