
#######################################################################
#
#                 Cambridge Crystallographic Data Centre
#                                CCDC 
#
#######################################################################
#
# If this CIF has been generated from an entry in the Cambridge 
# Structural Database, then it will include bibliographic, chemical, 
# crystal, experimental, refinement or atomic coordinate data resulting 
# from the CCDC's data processing and validation procedures.
#
#######################################################################

data_PATSUA
_symmetry_cell_setting           monoclinic
_symmetry_space_group_name_H-M   'P 21/c'
_symmetry_Int_Tables_number      14
_space_group_name_Hall           '-P 2ybc'
loop_
_symmetry_equiv_pos_site_id
_symmetry_equiv_pos_as_xyz
1 x,y,z
2 -x,1/2+y,1/2-z
3 -x,-y,-z
4 x,1/2-y,1/2+z
_cell_length_a                   13.655(5)
_cell_length_b                   8.902(5)
_cell_length_c                   21.908(5)
_cell_angle_alpha                90
_cell_angle_beta                 92.364(5)
_cell_angle_gamma                90
_cell_volume                     2660.8
loop_
_atom_site_label
_atom_site_type_symbol
_atom_site_fract_x
_atom_site_fract_y
_atom_site_fract_z
Cd1 Cd 0.41239(2) 0.32684(3) 0.022617(12)
C1 C 0.6116(3) 0.3361(5) 0.06575(17)
C2 C 0.7104(3) 0.3310(4) 0.09884(16)
C3 C 0.7309(3) 0.2150(4) 0.13966(16)
H1 H 0.6843 0.1409 0.1456
C4 C 0.8201(3) 0.2089(5) 0.17153(17)
C5 C 0.8889(3) 0.3207(5) 0.16346(18)
H2 H 0.9483 0.3188 0.1858
C6 C 0.8691(3) 0.4344(5) 0.12233(19)
H3 H 0.9160 0.5082 0.1164
C7 C 0.7798(3) 0.4402(5) 0.08954(18)
H4 H 0.7670 0.5171 0.0616
C8 C 0.7966(3) -0.0386(5) 0.20709(19)
H5 H 0.8078 -0.0833 0.1676
H6 H 0.7268 -0.0211 0.2098
C9 C 0.8318(3) -0.1441(5) 0.25741(18)
C10 C 0.8454(3) -0.2932(5) 0.24495(19)
H7 H 0.8414 -0.3269 0.2047
C11 C 0.8650(3) -0.3934(5) 0.29173(18)
H8 H 0.8747 -0.4941 0.2825
C12 C 0.8705(3) -0.3476(5) 0.35211(17)
C13 C 0.8599(3) -0.1965(5) 0.36464(18)
H9 H 0.8651 -0.1627 0.4048
C14 C 0.8416(3) -0.0951(5) 0.31736(18)
H10 H 0.8359 0.0067 0.3260
C15 C 0.8870(3) -0.4614(4) 0.40169(16)
C16 C 0.9587(3) -0.5695(5) 0.3950(2)
H11 H 0.9953 -0.5694 0.3601
C17 C 0.9767(4) -0.6774(6) 0.4392(2)
H12 H 1.0255 -0.7487 0.4341
C18 C 0.9232(4) -0.6802(6) 0.4905(2)
H13 H 0.9353 -0.7536 0.5201
C19 C 0.8512(3) -0.5744(5) 0.49840(19)
H14 H 0.8150 -0.5770 0.5334
C20 C 0.8318(3) -0.4623(4) 0.45421(16)
C21 C 0.7493(3) -0.3554(5) 0.46360(17)
N1 N 0.3792(3) 0.5695(4) 0.19950(15)
C22 C 0.3399(3) 0.6182(5) 0.10313(18)
H15 H 0.3159 0.6686 0.0685
C23 C 0.3008(3) 0.8147(5) 0.1820(2)
H16 H 0.2442 0.7928 0.2058
H17 H 0.2785 0.8751 0.1473
C24 C 0.3735(3) 0.9060(5) 0.22101(18)
H18 H 0.3372 0.9748 0.2460
H19 H 0.4095 0.8383 0.2484
C25 C 0.4462(3) 0.9957(5) 0.18538(18)
H20 H 0.4109 1.0680 0.1597
H21 H 0.4890 1.0510 0.2138
C26 C 0.5022(3) 0.8843(5) 0.08740(18)
H22 H 0.4632 0.9415 0.0605
C27 C 0.6000(3) 0.7282(5) 0.1252(2)
H23 H 0.6454 0.6503 0.1284
N2 N 0.3783(2) 0.4818(4) 0.10335(14)
C28 C 0.3999(3) 0.4575(5) 0.16336(19)
H24 H 0.4273 0.3681 0.1779
N3 N 0.3406(2) 0.6728(4) 0.15951(14)
N4 N 0.5058(2) 0.9008(4) 0.14714(14)
N5 N 0.5691(3) 0.7994(4) 0.17341(15)
N6 N 0.5613(2) 0.7757(4) 0.07081(14)
O1 O 0.5496(2) 0.2373(3) 0.07663(14)
O2 O 0.5934(2) 0.4405(3) 0.02881(12)
O3 O 0.8474(2) 0.0984(3) 0.21267(13)
O4 O 0.7614(2) -0.2458(3) 0.49879(13)
O5 O 0.66846(19) -0.3808(3) 0.43666(13)
Cd1B Cd 0.58761(2) 0.67316(3) -0.022617(12)
Cd1A Cd 0.58761(2) -0.17316(3) 0.477383(12)
N6B N 0.4387(2) 0.2243(4) -0.07081(14)
O2B O 0.4066(2) 0.5595(3) -0.02881(12)
O4A O 0.2386(2) 0.2542(3) 0.00121(13)
O5A O 0.33154(19) 0.1192(3) 0.06334(13)
loop_
_geom_bond_atom_site_label_1
_geom_bond_atom_site_label_2
_geom_bond_site_symmetry_1
_geom_bond_site_symmetry_2
Cd1 N2 1_555 1_555
C1 C2 1_555 1_555
C2 C3 1_555 1_555
C3 H1 1_555 1_555
C4 C3 1_555 1_555
C5 C4 1_555 1_555
H2 C5 1_555 1_555
C6 C5 1_555 1_555
H3 C6 1_555 1_555
C7 C2 1_555 1_555
H4 C7 1_555 1_555
C8 H5 1_555 1_555
H6 C8 1_555 1_555
C9 C8 1_555 1_555
C10 C9 1_555 1_555
H7 C10 1_555 1_555
C11 C10 1_555 1_555
H8 C11 1_555 1_555
C12 C11 1_555 1_555
C13 C12 1_555 1_555
H9 C13 1_555 1_555
C14 C9 1_555 1_555
H10 C14 1_555 1_555
C15 C12 1_555 1_555
C16 C15 1_555 1_555
H11 C16 1_555 1_555
C17 C16 1_555 1_555
H12 C17 1_555 1_555
C18 C17 1_555 1_555
H13 C18 1_555 1_555
C19 C18 1_555 1_555
H14 C19 1_555 1_555
C20 C15 1_555 1_555
C21 C20 1_555 1_555
N1 C28 1_555 1_555
C22 H15 1_555 1_555
C23 H16 1_555 1_555
H17 C23 1_555 1_555
C24 C23 1_555 1_555
H18 C24 1_555 1_555
H19 C24 1_555 1_555
C25 C24 1_555 1_555
H20 C25 1_555 1_555
H21 C25 1_555 1_555
C26 H22 1_555 1_555
C27 H23 1_555 1_555
N2 C22 1_555 1_555
C28 N2 1_555 1_555
H24 C28 1_555 1_555
N3 N1 1_555 1_555
N4 C25 1_555 1_555
N5 C27 1_555 1_555
N6 C26 1_555 1_555
O1 Cd1 1_555 1_555
O2 Cd1 1_555 1_555
O3 C4 1_555 1_555
O4 C21 1_555 1_555
O5 C21 1_555 1_555
Cd1B N6 1_555 1_555
Cd1A O4 1_555 1_555
N6B Cd1 1_555 1_555
O2B Cd1 1_555 1_555
O4A Cd1 1_555 1_555
O5A Cd1 1_555 1_555
C1 O1 1_555 1_555
C1 O2 1_555 1_555
C6 C7 1_555 1_555
C8 O3 1_555 1_555
C13 C14 1_555 1_555
C19 C20 1_555 1_555
C22 N3 1_555 1_555
C23 N3 1_555 1_555
C26 N4 1_555 1_555
C27 N6 1_555 1_555
N4 N5 1_555 1_555
O2 Cd1B 1_555 1_555
O5 Cd1A 1_555 1_555
Cd1B O2B 1_555 1_555

#END
