
#######################################################################
#
#                 Cambridge Crystallographic Data Centre
#                                CCDC 
#
#######################################################################
#
# If this CIF has been generated from an entry in the Cambridge 
# Structural Database, then it will include bibliographic, chemical, 
# crystal, experimental, refinement or atomic coordinate data resulting 
# from the CCDC's data processing and validation procedures.
#
#######################################################################

data_PATSAG
_symmetry_cell_setting           triclinic
_symmetry_space_group_name_H-M   'P -1'
_symmetry_Int_Tables_number      2
_space_group_name_Hall           '-P 1'
loop_
_symmetry_equiv_pos_site_id
_symmetry_equiv_pos_as_xyz
1 x,y,z
2 -x,-y,-z
_cell_length_a                   9.9307(10)
_cell_length_b                   11.8889(10)
_cell_length_c                   12.7078(13)
_cell_angle_alpha                79.514(8)
_cell_angle_beta                 75.083(9)
_cell_angle_gamma                79.507(8)
_cell_volume                     1411.05
loop_
_atom_site_label
_atom_site_type_symbol
_atom_site_fract_x
_atom_site_fract_y
_atom_site_fract_z
O3 O 1.3087(9) 0.7212(8) 0.6206(6)
O5 O 1.3509(16) 0.7951(13) 0.6630(10)
Cd1 Cd 1.00698(4) 0.54384(3) -0.14844(3)
C1 C 1.1820(5) 0.6230(4) -0.0441(4)
C2 C 1.2634(4) 0.6828(4) 0.0070(3)
C3 C 1.4084(5) 0.6464(4) -0.0126(4)
H1 H 1.4484 0.5918 -0.0598
C4 C 1.4936(5) 0.6886(4) 0.0356(4)
H2 H 1.5897 0.6619 0.0223
C5 C 1.4353(5) 0.7708(4) 0.1037(4)
H3 H 1.4918 0.7993 0.1379
C6 C 1.2931(5) 0.8113(4) 0.1217(4)
H4 H 1.2561 0.8685 0.1666
C7 C 1.2027(4) 0.7695(3) 0.0748(3)
C8 C 1.0526(4) 0.8238(4) 0.0933(4)
C9 C 0.9798(5) 0.8506(4) 0.0105(4)
H5 H 1.0237 0.8294 -0.0584
C10 C 0.8437(5) 0.9080(4) 0.0276(4)
H6 H 0.7966 0.9230 -0.0291
C11 C 0.7772(5) 0.9430(4) 0.1280(4)
C12 C 0.8484(5) 0.9180(4) 0.2111(4)
H7 H 0.8049 0.9410 0.2793
C13 C 0.9838(5) 0.8592(4) 0.1940(4)
H8 H 1.0298 0.8429 0.2514
C14 C 0.6309(5) 1.0105(4) 0.1454(4)
H9 H 0.6347 1.0904 0.1501
H10 H 0.5901 1.0090 0.0841
C15 C 0.4064(5) 0.9993(4) 0.2737(4)
C16 C 0.3290(5) 0.9325(4) 0.3613(4)
H11 H 0.3740 0.8678 0.3984
C17 C 0.1858(6) 0.9619(4) 0.3932(4)
H12 H 0.1334 0.9151 0.4498
C18 C 0.1191(5) 1.0607(4) 0.3416(4)
H13 H 0.0221 1.0804 0.3639
C19 C 0.1952(5) 1.1295(4) 0.2581(3)
C20 C 0.3402(5) 1.0989(4) 0.2227(4)
H14 H 0.3921 1.1451 0.1652
C21 C 0.1243(5) 1.2433(4) 0.2092(4)
C22 C 0.7395(6) 0.5156(5) -0.2559(4)
H15 H 0.6848 0.5598 -0.2026
C23 C 0.6752(7) 0.4835(6) -0.3277(5)
H16 H 0.5792 0.5060 -0.3224
C24 C 0.7529(7) 0.4187(5) -0.4063(5)
H17 H 0.7105 0.3966 -0.4551
C25 C 0.8959(6) 0.3859(4) -0.4129(4)
C26 C 0.9874(8) 0.3182(5) -0.4945(4)
H18 H 0.9500 0.2950 -0.5458
C27 C 1.1232(8) 0.2888(5) -0.4971(4)
H19 H 1.1786 0.2444 -0.5499
C28 C 1.1878(6) 0.3226(4) -0.4222(4)
C29 C 1.3303(6) 0.2942(5) -0.4238(5)
H20 H 1.3894 0.2512 -0.4763
C30 C 1.3831(6) 0.3292(5) -0.3488(5)
H21 H 1.4779 0.3088 -0.3482
C31 C 1.2939(5) 0.3956(5) -0.2730(4)
H22 H 1.3306 0.4196 -0.2219
C32 C 1.1031(5) 0.3903(4) -0.3422(4)
C33 C 0.9541(5) 0.4219(4) -0.3371(4)
N1 N 0.8761(4) 0.4862(3) -0.2595(3)
N2 N 1.1579(4) 0.4264(3) -0.2706(3)
O1 O 1.0625(4) 0.5973(3) 0.0071(3)
O2 O 1.2372(4) 0.5971(3) -0.1382(3)
O4 O 0.5473(3) 0.9588(3) 0.2452(3)
O6 O -0.0038(3) 1.2737(3) 0.2524(3)
O7 O 0.1917(3) 1.3045(3) 0.1314(3)
Cd1A Cd 0.99302(4) 0.45616(3) 0.14844(3)
Cd1A_2 Cd -0.00698(4) 1.45616(3) 0.14844(3)
O1A O 0.9375(4) 0.4027(3) -0.0071(3)
O6A O 1.0038(3) 0.7263(3) -0.2524(3)
O7A O 0.8083(3) 0.6955(3) -0.1314(3)
loop_
_geom_bond_atom_site_label_1
_geom_bond_atom_site_label_2
_geom_bond_site_symmetry_1
_geom_bond_site_symmetry_2
Cd1 N1 1_555 1_555
C1 C2 1_555 1_555
C2 C3 1_555 1_555
C3 H1 1_555 1_555
C4 C3 1_555 1_555
H2 C4 1_555 1_555
C5 C4 1_555 1_555
H3 C5 1_555 1_555
C6 C5 1_555 1_555
H4 C6 1_555 1_555
C7 C2 1_555 1_555
C8 C7 1_555 1_555
C9 C8 1_555 1_555
H5 C9 1_555 1_555
C10 C9 1_555 1_555
H6 C10 1_555 1_555
C11 C10 1_555 1_555
C12 C11 1_555 1_555
H7 C12 1_555 1_555
C13 C8 1_555 1_555
H8 C13 1_555 1_555
C14 C11 1_555 1_555
H9 C14 1_555 1_555
H10 C14 1_555 1_555
C15 C16 1_555 1_555
C16 H11 1_555 1_555
C17 C16 1_555 1_555
H12 C17 1_555 1_555
C18 C17 1_555 1_555
H13 C18 1_555 1_555
C19 C18 1_555 1_555
C20 C15 1_555 1_555
H14 C20 1_555 1_555
C21 C19 1_555 1_555
C22 H15 1_555 1_555
C23 C22 1_555 1_555
H16 C23 1_555 1_555
C24 C23 1_555 1_555
H17 C24 1_555 1_555
C25 C24 1_555 1_555
C26 C25 1_555 1_555
H18 C26 1_555 1_555
C27 C26 1_555 1_555
H19 C27 1_555 1_555
C28 C27 1_555 1_555
C29 C28 1_555 1_555
H20 C29 1_555 1_555
C30 C29 1_555 1_555
H21 C30 1_555 1_555
C31 C30 1_555 1_555
H22 C31 1_555 1_555
C32 C28 1_555 1_555
C33 C25 1_555 1_555
N1 C22 1_555 1_555
N2 Cd1 1_555 1_555
O1 Cd1 1_555 1_555
O2 Cd1 1_555 1_555
O3 O5 1_555 1_555
O4 C14 1_555 1_555
O6 C21 1_555 1_555
O7 C21 1_555 1_555
Cd1A O1 1_555 1_555
Cd1A_2 O6 1_555 1_555
O1A Cd1 1_555 1_555
O6A Cd1 1_555 1_555
O7A Cd1 1_555 1_555
C1 O1 1_555 1_555
C1 O2 1_555 1_555
C6 C7 1_555 1_555
C12 C13 1_555 1_555
C15 O4 1_555 1_555
C19 C20 1_555 1_555
C31 N2 1_555 1_555
C32 C33 1_555 1_555
C32 N2 1_555 1_555
C33 N1 1_555 1_555
O7 Cd1A_2 1_555 1_555
Cd1A O1A 1_555 1_555

#END
