
#######################################################################
#
#                 Cambridge Crystallographic Data Centre
#                                CCDC 
#
#######################################################################
#
# If this CIF has been generated from an entry in the Cambridge 
# Structural Database, then it will include bibliographic, chemical, 
# crystal, experimental, refinement or atomic coordinate data resulting 
# from the CCDC's data processing and validation procedures.
#
#######################################################################

data_PATSAF
_symmetry_cell_setting           orthorhombic
_symmetry_space_group_name_H-M   'F d d d'
_symmetry_Int_Tables_number      70
_space_group_name_Hall           '-F 2uv 2vw'
loop_
_symmetry_equiv_pos_site_id
_symmetry_equiv_pos_as_xyz
1 x,y,z
2 x,1/2+y,1/2+z
3 x,1/4-y,1/4-z
4 1/2+x,y,1/2+z
5 1/4-x,y,1/4-z
6 1/2+x,1/2+y,z
7 1/4-x,1/4-y,z
8 3/4-x,3/4-y,z
9 3/4-x,y,3/4-z
10 x,3/4-y,3/4-z
11 3/4-x,1/4-y,1/2+z
12 3/4-x,1/2+y,1/4-z
13 1/4-x,3/4-y,1/2+z
14 1/2+x,3/4-y,1/4-z
15 1/4-x,1/2+y,3/4-z
16 1/2+x,1/4-y,3/4-z
17 -x,-y,-z
18 -x,1/2-y,1/2-z
19 -x,3/4+y,3/4+z
20 1/2-x,-y,1/2-z
21 3/4+x,-y,3/4+z
22 1/2-x,1/2-y,-z
23 3/4+x,3/4+y,-z
24 1/4+x,1/4+y,-z
25 1/4+x,-y,1/4+z
26 -x,1/4+y,1/4+z
27 1/4+x,3/4+y,1/2-z
28 1/4+x,1/2-y,3/4+z
29 3/4+x,1/4+y,1/2-z
30 1/2-x,1/4+y,3/4+z
31 3/4+x,1/2-y,1/4+z
32 1/2-x,3/4+y,1/4+z
_cell_length_a                   49.567(17)
_cell_length_b                   18.394(6)
_cell_length_c                   8.701(3)
_cell_angle_alpha                90
_cell_angle_beta                 90
_cell_angle_gamma                90
_cell_volume                     7933.01
loop_
_atom_site_label
_atom_site_type_symbol
_atom_site_fract_x
_atom_site_fract_y
_atom_site_fract_z
Cu1 Cu 0.056150(14) -0.3750 0.1250
O1 O 0.08651(6) -0.79959(15) 0.5628(4)
O2 O 0.04907(6) -0.74756(15) 0.4739(4)
N1 N 0.04869(7) -0.32969(18) 0.3340(4)
N2 N 0.01652(10) -0.3750 0.1250
N3 N 0.13226(11) -0.6250 0.3750
C1 C 0.06705(9) -0.3078(2) 0.4352(5)
H1 H 0.0856 -0.3111 0.4087
C2 C 0.06004(10) -0.2804(2) 0.5785(6)
H2 H 0.0736 -0.2652 0.6490
C3 C 0.03298(10) -0.2754(2) 0.6170(5)
H3 H 0.0277 -0.2569 0.7144
C4 C 0.01370(9) -0.2976(2) 0.5123(5)
H4 H -0.0050 -0.2947 0.5366
C5 C 0.02218(8) -0.3244(2) 0.3702(5)
C6 C 0.00357(9) -0.3498(2) 0.2485(5)
C7 C -0.02446(9) -0.4013(2) -0.0033(5)
H5 H -0.0338 -0.4194 -0.0908
C8 C -0.03864(13) -0.3750 0.1250
H6 H -0.0578 -0.3750 0.1250
C9 C 0.07388(8) -0.74830(19) 0.4939(5)
C10 C 0.07605(12) -0.6250 0.3750
H7 H 0.0569 -0.6250 0.3750
C11 C 0.08998(9) -0.6846(2) 0.4331(5)
C12 C 0.11807(8) -0.6816(2) 0.4312(5)
H8 H 0.1278 -0.7217 0.4719
Cu1A Cu 0.056150(14) -0.8750 0.6250
O1I O 0.08651(6) -0.45041(15) 0.1872(4)
O1A O 0.08651(6) -0.29959(15) 0.0628(4)
O2I O 0.04907(6) -0.50244(15) 0.2761(4)
N1B N 0.04869(7) -0.42031(18) -0.0840(4)
C1B C 0.06705(9) -0.4422(2) -0.1852(5)
H1B H 0.0856 -0.4389 -0.1587
C2B C 0.06004(10) -0.4696(2) -0.3285(6)
H2B H 0.0736 -0.4848 -0.3990
C3B C 0.03298(10) -0.4746(2) -0.3670(5)
H3B H 0.0277 -0.4931 -0.4644
C4B C 0.01370(9) -0.4524(2) -0.2623(5)
H4B H -0.0050 -0.4553 -0.2866
C5B C 0.02218(8) -0.4256(2) -0.1202(5)
C6B C 0.00357(9) -0.4002(2) 0.0015(5)
C7B C -0.02446(9) -0.3487(2) 0.2533(5)
H5B H -0.0338 -0.3306 0.3408
C9I C 0.07388(8) -0.50170(19) 0.2561(5)
C11I C 0.08998(9) -0.5654(2) 0.3169(5)
C12I C 0.11807(8) -0.5684(2) 0.3188(5)
H8I H 0.1278 -0.5283 0.2781
O3 O 0.1250 -0.8750 0.8445(5)
O4 O 0.1250 -0.9485(6) 0.1250
loop_
_geom_bond_atom_site_label_1
_geom_bond_atom_site_label_2
_geom_bond_site_symmetry_1
_geom_bond_site_symmetry_2
Cu1 N1 1_555 1_555
O1 C9 1_555 1_555
O2 C9 1_555 1_555
N1 C1 1_555 1_555
N2 Cu1 1_555 1_555
N3 C12 1_555 1_555
C1 H1 1_555 1_555
C2 C1 1_555 1_555
H2 C2 1_555 1_555
C3 C2 1_555 1_555
H3 C3 1_555 1_555
C4 C3 1_555 1_555
H4 C4 1_555 1_555
C5 N1 1_555 1_555
C6 N2 1_555 1_555
C7 H5 1_555 1_555
C8 C7 1_555 1_555
H6 C8 1_555 1_555
C9 C11 1_555 1_555
C10 H7 1_555 1_555
C11 C10 1_555 1_555
C12 C11 1_555 1_555
H8 C12 1_555 1_555
Cu1A O1 1_555 1_555
O1I Cu1 1_555 1_555
O1A Cu1 1_555 1_555
O2I C9I 1_555 1_555
N1B Cu1 1_555 1_555
C1B N1B 1_555 1_555
H1B C1B 1_555 1_555
C2B C1B 1_555 1_555
H2B C2B 1_555 1_555
C3B C2B 1_555 1_555
H3B C3B 1_555 1_555
C4B C3B 1_555 1_555
H4B C4B 1_555 1_555
C5B N1B 1_555 1_555
C6B N2 1_555 1_555
C7B C6 1_555 1_555
H5B C7B 1_555 1_555
C9I O1I 1_555 1_555
C11I C10 1_555 1_555
C12I N3 1_555 1_555
H8I C12I 1_555 1_555
C4 C5 1_555 1_555
C5 C6 1_555 1_555
C7 C6B 1_555 1_555
C8 C7B 1_555 1_555
C4B C5B 1_555 1_555
C5B C6B 1_555 1_555
C9I C11I 1_555 1_555
C11I C12I 1_555 1_555

#END
