
#######################################################################
#
#                 Cambridge Crystallographic Data Centre
#                                CCDC 
#
#######################################################################
#
# If this CIF has been generated from an entry in the Cambridge 
# Structural Database, then it will include bibliographic, chemical, 
# crystal, experimental, refinement or atomic coordinate data resulting 
# from the CCDC's data processing and validation procedures.
#
#######################################################################

data_PATTIO
_symmetry_cell_setting           monoclinic
_symmetry_space_group_name_H-M   'C 2/c'
_symmetry_Int_Tables_number      15
_space_group_name_Hall           '-C 2yn'
loop_
_symmetry_equiv_pos_site_id
_symmetry_equiv_pos_as_xyz
1 x,y,z
2 1/2+x,1/2+y,z
3 -x,y,1/2-z
4 1/2-x,1/2+y,1/2-z
5 -x,-y,-z
6 1/2-x,1/2-y,-z
7 x,-y,1/2+z
8 1/2+x,1/2-y,1/2+z
_cell_length_a                   50.0409(10)
_cell_length_b                   11.7920(3)
_cell_length_c                   23.5506(5)
_cell_angle_alpha                90
_cell_angle_beta                 106.073(3)
_cell_angle_gamma                90
_cell_volume                     13353.6
loop_
_atom_site_label
_atom_site_type_symbol
_atom_site_fract_x
_atom_site_fract_y
_atom_site_fract_z
Cd1 Cd 0.0000 0.42659(3) 0.7500
P1 P 0.07570(2) 0.41484(9) 0.78194(5)
O1 O 0.04615(6) 0.4273(3) 0.77944(14)
O2 O 0.08235(7) 0.3297(3) 0.74187(14)
O3 O 0.09368(8) 0.4048(3) 0.84626(15)
O4 O 0.08341(7) 0.5397(3) 0.76709(17)
N1 N 0.0000 0.6283(4) 0.7500
N2 N 0.00020(7) 0.4428(3) 0.85187(14)
N3 N 0.0000 1.2289(3) 0.7500
C1 C 0.02097(9) 0.6882(3) 0.7418(2)
H1 H 0.0363 0.6491 0.7368
C2 C 0.02149(9) 0.8040(3) 0.7403(2)
H2 H 0.0365 0.8412 0.7326
C3 C 0.0000 0.8653(4) 0.7500
C4 C 0.0000 0.9906(4) 0.7500
C5 C -0.01960(9) 1.0540(3) 0.7676(2)
H3 H -0.0333 1.0171 0.7802
C6 C -0.01910(9) 1.1699(3) 0.7667(2)
H4 H -0.0328 1.2093 0.7783
C7 C 0.02314(8) 0.4715(4) 0.89291(17)
H5 H 0.0396 0.4767 0.8820
C8 C 0.02408(9) 0.4941(4) 0.95051(17)
H6 H 0.0409 0.5136 0.9774
C9 C -0.00001(8) 0.4880(3) 0.96893(15)
C10 C -0.02375(9) 0.4533(4) 0.92671(18)
H7 H -0.0404 0.4441 0.9367
C11 C -0.02269(9) 0.4323(4) 0.86987(18)
H8 H -0.0390 0.4094 0.8423
C12 C 0.10199(14) 0.3021(5) 0.8831(2)
C13 C 0.1059(2) 0.3446(7) 0.9441(3)
H9 H 0.0954 0.4131 0.9430
H10 H 0.1252 0.3597 0.9620
H11 H 0.0995 0.2884 0.9669
C14 C 0.12921(15) 0.2646(6) 0.8707(4)
H12 H 0.1253 0.2342 0.8315
H13 H 0.1380 0.2076 0.8988
H14 H 0.1414 0.3287 0.8742
C15 C 0.08060(16) 0.2131(6) 0.8700(3)
H15 H 0.0627 0.2469 0.8534
H16 H 0.0807 0.1741 0.9059
H17 H 0.0845 0.1603 0.8423
C16 C 0.10989(12) 0.5857(5) 0.7652(3)
C17 C 0.12154(14) 0.6410(7) 0.8231(4)
H18 H 0.1111 0.7082 0.8253
H19 H 0.1406 0.6610 0.8274
H20 H 0.1205 0.5898 0.8541
C18 C 0.13110(12) 0.5010(6) 0.7541(3)
H21 H 0.1232 0.4621 0.7175
H22 H 0.1358 0.4470 0.7858
H23 H 0.1475 0.5409 0.7520
C19 C 0.10249(19) 0.6650(10) 0.7158(5)
H24 H 0.0936 0.7302 0.7268
H25 H 0.0900 0.6287 0.6823
H26 H 0.1190 0.6883 0.7059
Cd1_2 Cd 0.0000 1.42659(3) 0.7500
Cd1F Cd 0.0000 0.57341(3) 1.2500
P1B P -0.07570(2) 0.41484(9) 0.71806(5)
O1B O -0.04615(6) 0.4273(3) 0.72056(14)
O2B O -0.08235(7) 0.3297(3) 0.75813(14)
O3B O -0.09368(8) 0.4048(3) 0.65374(15)
O4B O -0.08341(7) 0.5397(3) 0.73291(17)
N2D N -0.00020(7) 0.5572(3) 1.14813(14)
N2B N -0.00020(7) 0.4428(3) 0.64813(14)
N3_2 N 0.0000 0.2289(3) 0.7500
C1B C -0.02097(9) 0.6882(3) 0.7582(2)
H1B H -0.0363 0.6491 0.7632
C2B C -0.02149(9) 0.8040(3) 0.7597(2)
H2B H -0.0365 0.8412 0.7674
C5B C 0.01960(9) 1.0540(3) 0.7324(2)
H3B H 0.0333 1.0171 0.7198
C6B C 0.01910(9) 1.1699(3) 0.7333(2)
H4B H 0.0328 1.2093 0.7217
C7D C -0.02314(8) 0.5285(4) 1.10709(17)
H5D H -0.0396 0.5233 1.1180
C8D C -0.02408(9) 0.5059(4) 1.04949(17)
H6D H -0.0409 0.4864 1.0226
C9D C 0.00001(8) 0.5120(3) 1.03107(15)
C10D C 0.02375(9) 0.5467(4) 1.07329(18)
H7D H 0.0404 0.5559 1.0633
C11D C 0.02269(9) 0.5677(4) 1.13013(18)
H8D H 0.0390 0.5906 1.1577
C12B C -0.10199(14) 0.3021(5) 0.6169(2)
C13B C -0.1059(2) 0.3446(7) 0.5559(3)
H9B H -0.0954 0.4131 0.5570
H10B H -0.1252 0.3597 0.5380
H11B H -0.0995 0.2884 0.5331
C14B C -0.12921(15) 0.2646(6) 0.6293(4)
H12B H -0.1253 0.2342 0.6685
H13B H -0.1380 0.2076 0.6012
H14B H -0.1414 0.3287 0.6258
C15B C -0.08060(16) 0.2131(6) 0.6300(3)
H15B H -0.0627 0.2469 0.6466
H16B H -0.0807 0.1741 0.5941
H17B H -0.0845 0.1603 0.6577
C16B C -0.10989(12) 0.5857(5) 0.7348(3)
C17B C -0.12154(14) 0.6410(7) 0.6769(4)
H18B H -0.1111 0.7082 0.6747
H19B H -0.1406 0.6610 0.6726
H20B H -0.1205 0.5898 0.6459
C18B C -0.13110(12) 0.5010(6) 0.7459(3)
H21B H -0.1232 0.4621 0.7825
H22B H -0.1358 0.4470 0.7142
H23B H -0.1475 0.5409 0.7480
C19B C -0.10249(19) 0.6650(10) 0.7842(5)
H24B H -0.0936 0.7302 0.7732
H25B H -0.0900 0.6287 0.8177
H26B H -0.1190 0.6883 0.7941
O5 O 0.08626(7) 0.3333(3) 0.62447(14)
O6 O 0.08020(7) 0.9045(3) 0.20951(15)
O7 O 0.25335(7) 0.1322(3) 0.95867(14)
Cd2 Cd 0.166703(5) 0.02318(2) 1.083471(11)
P2 P 0.09203(2) -0.02855(9) 1.04507(5)
P3 P 0.24236(2) 0.05973(9) 1.11984(5)
O8 O 0.11925(5) 0.0304(2) 1.05718(12)
O9 O 0.08677(6) -0.0968(2) 1.09294(13)
O10 O 0.09122(7) -0.1050(3) 0.98946(15)
O11 O 0.06734(7) 0.0531(3) 1.01695(17)
O12 O 0.21371(6) 0.0224(3) 1.11033(13)
O13 O 0.24835(6) 0.1370(3) 1.07567(12)
N4 N 0.16697(7) 0.0280(2) 1.18385(13)
N5 N 0.16752(7) -0.1770(2) 1.08667(14)
N6 N 0.16782(6) -0.0062(3) 1.48410(12)
N7 N 0.16665(6) -0.7782(2) 1.08155(14)
C20 C 0.14387(8) 0.0115(4) 1.20091(17)
H27 H 0.1271 0.0022 1.1718
C21 C 0.14345(8) 0.0074(4) 1.25871(17)
H28 H 0.1268 -0.0051 1.2680
C22 C 0.16774(8) 0.0218(3) 1.30324(15)
C23 C 0.19168(8) 0.0395(3) 1.28556(17)
H29 H 0.2087 0.0492 1.3137
C24 C 0.19025(8) 0.0427(3) 1.22662(17)
H30 H 0.2066 0.0561 1.2161
C25 C 0.18631(10) -0.2356(3) 1.0687(2)
H31 H 0.2000 -0.1956 1.0573
C26 C 0.18670(10) -0.3518(3) 1.0661(2)
H32 H 0.2001 -0.3886 1.0522
C27 C 0.16714(8) -0.4139(3) 1.08436(17)
C28 C 0.14800(9) -0.3535(3) 1.1042(2)
H33 H 0.1344 -0.3910 1.1172
C29 C 0.14919(9) -0.2362(3) 1.1046(2)
H34 H 0.1361 -0.1969 1.1184
C30 C 0.19002(8) -0.0361(3) 1.46612(16)
H35 H 0.2056 -0.0643 1.4940
C31 C 0.19085(8) -0.0271(3) 1.40852(16)
H36 H 0.2067 -0.0492 1.3981
C32 C 0.16811(8) 0.0151(3) 1.36600(15)
C33 C 0.14535(9) 0.0467(3) 1.38520(17)
H37 H 0.1296 0.0761 1.3585
C34 C 0.14617(9) 0.0345(4) 1.44370(17)
H38 H 0.1306 0.0561 1.4554
C35 C 0.14721(10) -0.7183(3) 1.0969(2)
H39 H 0.1332 -0.7578 1.1073
C36 C 0.14652(10) -0.6026(3) 1.0985(2)
H40 H 0.1323 -0.5658 1.1096
C37 C 0.16691(8) -0.5404(3) 1.08356(17)
C38 C 0.18694(9) -0.6020(3) 1.0675(2)
H41 H 0.2013 -0.5648 1.0571
C39 C 0.18584(9) -0.7182(3) 1.0667(2)
H42 H 0.1996 -0.7572 1.0549
C40 C 0.07059(13) -0.1788(5) 0.9537(3)
C41 C 0.04566(11) -0.1994(5) 0.9769(3)
H43 H 0.0349 -0.1309 0.9736
H44 H 0.0519 -0.2219 1.0176
H45 H 0.0343 -0.2583 0.9542
C42 C 0.05142(12) 0.1305(5) 1.0446(3)
C43 C 0.03424(14) 0.0562(6) 1.0746(3)
H46 H 0.0465 0.0162 1.1071
H47 H 0.0236 0.0028 1.0466
H48 H 0.0219 0.1032 1.0891
C44 C 0.27939(13) -0.1058(6) 1.1093(3)
C45 C 0.29980(14) -0.0261(7) 1.0906(3)
H49 H 0.2904 0.0105 1.0541
H50 H 0.3152 -0.0692 1.0854
H51 H 0.3065 0.0301 1.1207
C46 C 0.26816(15) 0.1903(6) 1.2164(3)
C47 C 0.24941(18) 0.2933(10) 1.2045(4)
H52 H 0.2310 0.2710 1.1825
H53 H 0.2565 0.3477 1.1820
H54 H 0.2488 0.3267 1.2413
C48 C 0.29312(13) 0.2189(6) 1.1949(3)
H55 H 0.3058 0.1559 1.2021
H56 H 0.3023 0.2844 1.2157
H57 H 0.2872 0.2348 1.1533
O14 O 0.26621(12) -0.0241(5) 1.1438(3)
O17 O 0.24355(14) 0.1333(6) 1.1797(3)
C50 C 0.0646(2) -0.1352(10) 0.8922(4)
C51 C 0.0879(6) -0.294(2) 0.9636(14)
C54 C 0.0316(6) 0.165(3) 0.9785(14)
C55 C 0.0722(5) 0.189(3) 1.0931(18)
C57 C 0.2965(5) -0.154(3) 1.1750(12)
C59 C 0.2604(3) -0.1335(13) 1.0480(7)
C61 C 0.2728(2) 0.1519(9) 1.2780(3)
Cd2F Cd 0.166703(5) -0.02318(2) 1.583471(11)
Cd2_2 Cd 0.166703(5) -0.97682(2) 1.083471(11)
N6F N 0.16782(6) 0.0062(3) 0.98410(12)
N7_2 N 0.16665(6) 0.2218(2) 1.08155(14)
O15? O 0.25149(16) -0.0727(6) 1.1075(4)
O16? O 0.25949(17) 0.0745(7) 1.1839(3)
C49? C 0.0502(8) -0.068(3) 0.9003(15)
C52? C 0.0838(6) -0.283(3) 0.9481(19)
C53? C 0.0305(7) 0.196(2) 0.9988(16)
C56? C 0.0644(6) 0.230(3) 1.072(2)
C58? C 0.2907(7) -0.184(3) 1.1478(18)
C60? C 0.2737(4) -0.2283(16) 1.0734(12)
loop_
_geom_bond_atom_site_label_1
_geom_bond_atom_site_label_2
_geom_bond_site_symmetry_1
_geom_bond_site_symmetry_2
Cd1 O1 1_555 1_555
P1 O1 1_555 1_555
O2 P1 1_555 1_555
O3 P1 1_555 1_555
O4 P1 1_555 1_555
N1 Cd1 1_555 1_555
N2 Cd1 1_555 1_555
N3 C6 1_555 1_555
C1 N1 1_555 1_555
H1 C1 1_555 1_555
C2 C1 1_555 1_555
H2 C2 1_555 1_555
C3 C2 1_555 1_555
C4 C3 1_555 1_555
C5 C4 1_555 1_555
H3 C5 1_555 1_555
C6 C5 1_555 1_555
H4 C6 1_555 1_555
C7 N2 1_555 1_555
H5 C7 1_555 1_555
C8 C7 1_555 1_555
H6 C8 1_555 1_555
C9 C8 1_555 1_555
C10 C9 1_555 1_555
H7 C10 1_555 1_555
C11 N2 1_555 1_555
H8 C11 1_555 1_555
C12 O3 1_555 1_555
C13 C12 1_555 1_555
H9 C13 1_555 1_555
H10 C13 1_555 1_555
H11 C13 1_555 1_555
C14 C12 1_555 1_555
H12 C14 1_555 1_555
H13 C14 1_555 1_555
H14 C14 1_555 1_555
C15 C12 1_555 1_555
H15 C15 1_555 1_555
H16 C15 1_555 1_555
H17 C15 1_555 1_555
C16 O4 1_555 1_555
C17 C16 1_555 1_555
H18 C17 1_555 1_555
H19 C17 1_555 1_555
H20 C17 1_555 1_555
C18 C16 1_555 1_555
H21 C18 1_555 1_555
H22 C18 1_555 1_555
H23 C18 1_555 1_555
C19 C16 1_555 1_555
H24 C19 1_555 1_555
H25 C19 1_555 1_555
H26 C19 1_555 1_555
Cd2 O8 1_555 1_555
P2 O8 1_555 1_555
P3 O12 1_555 1_555
O9 P2 1_555 1_555
O10 P2 1_555 1_555
O11 P2 1_555 1_555
O12 Cd2 1_555 1_555
O13 P3 1_555 1_555
N4 Cd2 1_555 1_555
N5 Cd2 1_555 1_555
N6 C30 1_555 1_555
N7 C35 1_555 1_555
C20 N4 1_555 1_555
H27 C20 1_555 1_555
C21 C20 1_555 1_555
H28 C21 1_555 1_555
C22 C21 1_555 1_555
C23 C22 1_555 1_555
H29 C23 1_555 1_555
C24 N4 1_555 1_555
H30 C24 1_555 1_555
C25 N5 1_555 1_555
H31 C25 1_555 1_555
C26 C25 1_555 1_555
H32 C26 1_555 1_555
C27 C26 1_555 1_555
C28 C27 1_555 1_555
H33 C28 1_555 1_555
C29 N5 1_555 1_555
H34 C29 1_555 1_555
C30 H35 1_555 1_555
C31 C30 1_555 1_555
H36 C31 1_555 1_555
C32 C22 1_555 1_555
C33 C32 1_555 1_555
H37 C33 1_555 1_555
C34 N6 1_555 1_555
H38 C34 1_555 1_555
C35 H39 1_555 1_555
C36 C35 1_555 1_555
H40 C36 1_555 1_555
C37 C27 1_555 1_555
C38 C37 1_555 1_555
H41 C38 1_555 1_555
C39 N7 1_555 1_555
H42 C39 1_555 1_555
C40 O10 1_555 1_555
C41 C40 1_555 1_555
H43 C41 1_555 1_555
H44 C41 1_555 1_555
H45 C41 1_555 1_555
C42 O11 1_555 1_555
C43 C42 1_555 1_555
H46 C43 1_555 1_555
H47 C43 1_555 1_555
H48 C43 1_555 1_555
C44 C45 1_555 1_555
C45 H49 1_555 1_555
H50 C45 1_555 1_555
H51 C45 1_555 1_555
C46 C47 1_555 1_555
C47 H52 1_555 1_555
H53 C47 1_555 1_555
H54 C47 1_555 1_555
C48 C46 1_555 1_555
H55 C48 1_555 1_555
H56 C48 1_555 1_555
H57 C48 1_555 1_555
O14 P3 1_555 1_555
O17 P3 1_555 1_555
C50 C40 1_555 1_555
C51 C40 1_555 1_555
C54 C42 1_555 1_555
C55 C42 1_555 1_555
C57 C44 1_555 1_555
C59 C44 1_555 1_555
C61 C46 1_555 1_555
Cd1_2 N3 1_555 1_555
Cd1F N2D 1_555 1_555
P1B O1B 1_555 1_555
O1B Cd1 1_555 1_555
O2B P1B 1_555 1_555
O3B P1B 1_555 1_555
O4B P1B 1_555 1_555
N2D C7D 1_555 1_555
N2B Cd1 1_555 1_555
N3_2 Cd1 1_555 1_555
C1B N1 1_555 1_555
H1B C1B 1_555 1_555
C2B C3 1_555 1_555
H2B C2B 1_555 1_555
C5B C4 1_555 1_555
H3B C5B 1_555 1_555
C6B N3 1_555 1_555
H4B C6B 1_555 1_555
C7D H5D 1_555 1_555
C8D C7D 1_555 1_555
H6D C8D 1_555 1_555
C9D C9 1_555 1_555
C10D C9D 1_555 1_555
H7D C10D 1_555 1_555
C11D N2D 1_555 1_555
H8D C11D 1_555 1_555
C12B O3B 1_555 1_555
C13B C12B 1_555 1_555
H9B C13B 1_555 1_555
H10B C13B 1_555 1_555
H11B C13B 1_555 1_555
C14B C12B 1_555 1_555
H12B C14B 1_555 1_555
H13B C14B 1_555 1_555
H14B C14B 1_555 1_555
C15B C12B 1_555 1_555
H15B C15B 1_555 1_555
H16B C15B 1_555 1_555
H17B C15B 1_555 1_555
C16B O4B 1_555 1_555
C17B C16B 1_555 1_555
H18B C17B 1_555 1_555
H19B C17B 1_555 1_555
H20B C17B 1_555 1_555
C18B C16B 1_555 1_555
H21B C18B 1_555 1_555
H22B C18B 1_555 1_555
H23B C18B 1_555 1_555
C19B C16B 1_555 1_555
H24B C19B 1_555 1_555
H25B C19B 1_555 1_555
H26B C19B 1_555 1_555
Cd2F N6 1_555 1_555
Cd2_2 N7 1_555 1_555
N6F Cd2 1_555 1_555
N7_2 Cd2 1_555 1_555
C10 C11 1_555 1_555
C23 C24 1_555 1_555
C28 C29 1_555 1_555
C31 C32 1_555 1_555
C33 C34 1_555 1_555
C36 C37 1_555 1_555
C38 C39 1_555 1_555
C44 O14 1_555 1_555
C46 O17 1_555 1_555
C1B C2B 1_555 1_555
C5B C6B 1_555 1_555
C8D C9D 1_555 1_555
C10D C11D 1_555 1_555

#END
