
#######################################################################
#
#                 Cambridge Crystallographic Data Centre
#                                CCDC 
#
#######################################################################
#
# If this CIF has been generated from an entry in the Cambridge 
# Structural Database, then it will include bibliographic, chemical, 
# crystal, experimental, refinement or atomic coordinate data resulting 
# from the CCDC's data processing and validation procedures.
#
#######################################################################

data_PATTOV
_symmetry_cell_setting           triclinic
_symmetry_space_group_name_H-M   'P -1'
_symmetry_Int_Tables_number      2
_space_group_name_Hall           '-P 1'
loop_
_symmetry_equiv_pos_site_id
_symmetry_equiv_pos_as_xyz
1 x,y,z
2 -x,-y,-z
_cell_length_a                   10.344
_cell_length_b                   14.983
_cell_length_c                   15.682
_cell_angle_alpha                85.42
_cell_angle_beta                 71.03
_cell_angle_gamma                89.65
_cell_volume                     2290.61
loop_
_atom_site_label
_atom_site_type_symbol
_atom_site_fract_x
_atom_site_fract_y
_atom_site_fract_z
Cd1 Cd 0.10631(2) 0.419775(15) 0.243071(14)
C1 C 0.0491(3) 1.3439(2) 0.1035(2)
C2 C 0.0331(3) 1.3005(2) 0.02465(18)
C3 C -0.0034(3) 1.3530(2) -0.0409(2)
H1 H -0.0104 1.4146 -0.0375
C4 C -0.0294(3) 1.3146(3) -0.1107(2)
H2 H -0.0542 1.3501 -0.1540
C5 C -0.0183(4) 1.2239(3) -0.1160(2)
H3 H -0.0364 1.1979 -0.1629
C6 C 0.0192(3) 1.1712(2) -0.0526(2)
H4 H 0.0265 1.1098 -0.0574
C7 C 0.0466(3) 1.2079(2) 0.01879(18)
C8 C 0.0942(3) 1.14934(19) 0.08279(18)
C9 C 0.2173(3) 1.1667(2) 0.09518(19)
H5 H 0.2688 1.2172 0.0649
C10 C 0.2657(3) 1.1105(2) 0.15182(19)
H6 H 0.3495 1.1236 0.1586
C11 C 0.1921(3) 1.0357(2) 0.19822(19)
C12 C 0.0680(3) 1.0178(2) 0.1864(2)
H7 H 0.0165 0.9674 0.2172
C13 C 0.0196(3) 1.0734(2) 0.1298(2)
H8 H -0.0639 1.0601 0.1229
C14 C 0.2424(3) 0.9758(2) 0.2617(2)
H9 H 0.3347 0.9937 0.2569
H10 H 0.1840 0.9802 0.3236
C15 C 0.2554(3) 0.8176(2) 0.29663(18)
C16 C 0.2925(3) 0.8277(2) 0.3723(2)
H11 H 0.3158 0.8839 0.3846
C17 C 0.2943(3) 0.7530(2) 0.4292(2)
H12 H 0.3180 0.7598 0.4807
C18 C 0.2621(3) 0.6692(2) 0.41223(19)
H13 H 0.2623 0.6200 0.4523
C19 C 0.2291(3) 0.6584(2) 0.33455(18)
C20 C 0.2285(3) 0.7325(2) 0.27715(19)
H14 H 0.2095 0.7254 0.2240
C21 C 0.1936(3) 0.5683(2) 0.3130(2)
C22 C -0.1883(3) 0.5131(2) 0.2425(2)
H15 H -0.1775 0.4976 0.1843
C23 C -0.1606(4) 0.5269(3) 0.3667(2)
H16 H -0.1229 0.5216 0.4132
C24 C -0.4021(3) 0.6021(2) 0.2660(3)
H17 H -0.4850 0.5932 0.3176
H18 H -0.4153 0.5716 0.2170
C25 C -0.3818(3) 0.7005(2) 0.2374(2)
C26 C -0.3331(4) 0.7586(3) 0.2832(2)
H19 H -0.3050 0.7364 0.3313
C27 C -0.3247(4) 0.8497(3) 0.2593(2)
H20 H -0.2908 0.8875 0.2916
C28 C -0.3657(3) 0.8863(2) 0.1881(2)
C29 C -0.4124(3) 0.8268(2) 0.1417(2)
H21 H -0.4400 0.8484 0.0932
C30 C -0.4189(3) 0.7358(2) 0.1658(2)
H22 H -0.4495 0.6973 0.1323
C31 C -0.3606(3) 0.9839(2) 0.1650(2)
C32 C -0.3784(4) 1.0436(2) 0.2310(2)
H23 H -0.3944 1.0212 0.2906
C33 C -0.3731(4) 1.1343(2) 0.2110(2)
H24 H -0.3852 1.1720 0.2572
C34 C -0.3502(3) 1.1710(2) 0.1237(2)
C35 C -0.3331(3) 1.1131(3) 0.0578(2)
H25 H -0.3183 1.1361 -0.0015
C36 C -0.3373(3) 1.0212(3) 0.0772(2)
H26 H -0.3244 0.9838 0.0306
C37 C -0.3403(3) 1.2712(2) 0.1024(2)
H27 H -0.2603 1.2943 0.1135
H28 H -0.3287 1.2848 0.0388
C38 C -0.5751(3) 1.3370(2) 0.1399(2)
H29 H -0.5910 1.3282 0.0861
C39 C -0.5942(4) 1.3728(2) 0.2693(2)
H30 H -0.6303 1.3953 0.3256
C40 C 0.0687(3) 0.3028(3) 0.4337(2)
H31 H 0.0891 0.3524 0.4594
C41 C 0.0240(3) 0.2183(3) 0.3473(2)
H32 H 0.0060 0.1989 0.2973
C42 C 0.0751(4) 0.1848(3) 0.5557(2)
H33 H -0.0042 0.1487 0.5918
H34 H 0.0838 0.2343 0.5899
C43 C 0.2009(4) 0.1290(3) 0.5374(2)
C44 C 0.1925(3) 0.0383(3) 0.5602(2)
H35 H 0.1070 0.0103 0.5857
C45 C 0.3076(3) -0.0118(2) 0.5461(2)
H36 H 0.2988 -0.0730 0.5629
C46 C 0.4373(3) 0.0269(2) 0.50726(18)
C47 C 0.4446(4) 0.1181(3) 0.4816(2)
H37 H 0.5297 0.1459 0.4536
C48 C 0.3295(4) 0.1680(3) 0.4965(2)
H38 H 0.3376 0.2290 0.4789
N1 N 0.0551(3) 0.2199(2) 0.47110(18)
N2 N 0.0269(3) 0.1640(2) 0.4161(2)
N3 N 0.0493(3) 0.30521(19) 0.35504(17)
N4 N -0.2892(3) 0.56093(18) 0.28999(19)
N5 N -0.2725(3) 0.5711(2) 0.3727(2)
N6 N -0.1045(3) 0.48992(18) 0.28787(18)
N7 N -0.4613(3) 1.31587(17) 0.15670(17)
N8 N -0.4721(3) 1.3389(2) 0.2412(2)
N9 N -0.6636(2) 1.37232(17) 0.20952(17)
O1 O 0.1572(2) 0.50546(16) 0.37295(15)
O2 O 0.1971(2) 0.56024(14) 0.23197(14)
O4 O 0.2406(2) 0.88608(14) 0.23783(14)
O6 O -0.0188(3) 1.31433(16) 0.18085(15)
O8 O 0.1291(2) 1.40988(17) 0.08987(14)
Cd1A Cd 0.89369(2) -0.419775(15) 0.756929(14)
Cd1_2 Cd -0.89369(2) 1.419775(15) 0.243071(14)
Cd1_3 Cd 0.10631(2) 1.419775(15) 0.243071(14)
Cd1_4 Cd 1.10631(2) -0.580225(15) 0.243071(14)
Cd1_5 Cd 0.10631(2) -0.580225(15) 0.243071(14)
C1_2 C 0.0491(3) 0.3439(2) 0.1035(2)
C2_2 C 0.0331(3) 0.3005(2) 0.02465(18)
C3_2 C -0.0034(3) 0.3530(2) -0.0409(2)
H1_2 H -0.0104 0.4146 -0.0375
C4_2 C -0.0294(3) 0.3146(3) -0.1107(2)
H2_2 H -0.0542 0.3501 -0.1540
C5_2 C -0.0183(4) 0.2239(3) -0.1160(2)
H3_2 H -0.0364 0.1979 -0.1629
C6_2 C 0.0192(3) 0.1712(2) -0.0526(2)
H4_2 H 0.0265 0.1098 -0.0574
C7_2 C 0.0466(3) 0.2079(2) 0.01879(18)
C8_2 C 0.0942(3) 0.14934(19) 0.08279(18)
C9_2 C 0.2173(3) 0.1667(2) 0.09518(19)
H5_2 H 0.2688 0.2172 0.0649
C10_2 C 0.2657(3) 0.1105(2) 0.15182(19)
H6_2 H 0.3495 0.1236 0.1586
C11_2 C 0.1921(3) 0.0357(2) 0.19822(19)
C12_2 C 0.0680(3) 0.0178(2) 0.1864(2)
H7_2 H 0.0165 -0.0326 0.2172
C13_2 C 0.0196(3) 0.0734(2) 0.1298(2)
H8_2 H -0.0639 0.0601 0.1229
C14_2 C 0.2424(3) -0.0242(2) 0.2617(2)
H9_2 H 0.3347 -0.0063 0.2569
H10_2 H 0.1840 -0.0198 0.3236
C15_2 C 0.2554(3) -0.1824(2) 0.29663(18)
C16_2 C 0.2925(3) -0.1723(2) 0.3723(2)
H11_2 H 0.3158 -0.1161 0.3846
C17_2 C 0.2943(3) -0.2470(2) 0.4292(2)
H12_2 H 0.3180 -0.2402 0.4807
C18_2 C 0.2621(3) -0.3308(2) 0.41223(19)
H13_2 H 0.2623 -0.3800 0.4523
C19_2 C 0.2291(3) -0.3416(2) 0.33455(18)
C20_2 C 0.2285(3) -0.2675(2) 0.27715(19)
H14_2 H 0.2095 -0.2746 0.2240
C21_2 C 0.1936(3) -0.4317(2) 0.3130(2)
C22_2 C 0.8117(3) -0.4869(2) 0.2425(2)
H15_2 H 0.8225 -0.5024 0.1843
C23_2 C 0.8394(4) -0.4731(3) 0.3667(2)
H16_2 H 0.8771 -0.4784 0.4132
C24_2 C 0.5979(3) -0.3979(2) 0.2660(3)
H17_2 H 0.5150 -0.4068 0.3176
H18_2 H 0.5847 -0.4284 0.2170
C25_2 C 0.6182(3) -0.2995(2) 0.2374(2)
C26_2 C 0.6669(4) -0.2414(3) 0.2832(2)
H19_2 H 0.6950 -0.2636 0.3313
C27_2 C 0.6753(4) -0.1503(3) 0.2593(2)
H20_2 H 0.7092 -0.1125 0.2916
C28_2 C 0.6343(3) -0.1137(2) 0.1881(2)
C29_2 C 0.5876(3) -0.1732(2) 0.1417(2)
H21_2 H 0.5600 -0.1516 0.0932
C30_2 C 0.5811(3) -0.2642(2) 0.1658(2)
H22_2 H 0.5505 -0.3027 0.1323
C31_2 C 0.6394(3) -0.0161(2) 0.1650(2)
C32_2 C 0.6216(4) 0.0436(2) 0.2310(2)
H23_2 H 0.6056 0.0212 0.2906
C33_2 C 0.6269(4) 0.1343(2) 0.2110(2)
H24_2 H 0.6148 0.1720 0.2572
C34_2 C 0.6498(3) 0.1710(2) 0.1237(2)
C35_2 C 0.6669(3) 0.1131(3) 0.0578(2)
H25_2 H 0.6817 0.1361 -0.0015
C36_2 C 0.6627(3) 0.0212(3) 0.0772(2)
H26_2 H 0.6756 -0.0162 0.0306
C37_2 C 0.6597(3) 0.2712(2) 0.1024(2)
H27_2 H 0.7397 0.2943 0.1135
H28_2 H 0.6713 0.2848 0.0388
C38_2 C 0.4249(3) 0.3370(2) 0.1399(2)
H29_2 H 0.4090 0.3282 0.0861
C39_2 C 0.4058(4) 0.3728(2) 0.2693(2)
H30_2 H 0.3697 0.3953 0.3256
C40A C 0.9313(3) -0.3028(3) 0.5663(2)
H31A H 0.9109 -0.3524 0.5406
C41A C 0.9760(3) -0.2183(3) 0.6527(2)
H32A H 0.9940 -0.1989 0.7027
C42A C 0.9249(4) -0.1848(3) 0.4443(2)
H33A H 1.0042 -0.1487 0.4082
H34A H 0.9162 -0.2343 0.4101
C43A C 0.7991(4) -0.1290(3) 0.4626(2)
C44A C 0.8075(3) -0.0383(3) 0.4398(2)
H35A H 0.8930 -0.0103 0.4143
C45A C 0.6924(3) 0.0118(2) 0.4539(2)
H36A H 0.7012 0.0730 0.4371
C46A C 0.5627(3) -0.0269(2) 0.49274(18)
C47A C 0.5554(4) -0.1181(3) 0.5184(2)
H37A H 0.4703 -0.1459 0.5464
C48A C 0.6705(4) -0.1680(3) 0.5035(2)
H38A H 0.6624 -0.2290 0.5211
N1A N 0.9449(3) -0.2199(2) 0.52890(18)
N2A N 0.9731(3) -0.1640(2) 0.5839(2)
N3A N 0.9507(3) -0.30521(19) 0.64496(17)
N4_2 N 0.7108(3) -0.43907(18) 0.28999(19)
N5_2 N 0.7275(3) -0.4289(2) 0.3727(2)
N6_2 N 0.8955(3) -0.51008(18) 0.28787(18)
N6A N 1.1045(3) -0.48992(18) 0.71213(18)
N7_2 N 0.5387(3) 0.31587(17) 0.15670(17)
N8_2 N 0.5279(3) 0.3389(2) 0.2412(2)
N9_2 N 0.3364(2) 0.37232(17) 0.20952(17)
N9A N 0.6636(2) -0.37232(17) 0.79048(17)
O1_2 O 0.1572(2) -0.49454(16) 0.37295(15)
O1A O 0.8428(2) -0.50546(16) 0.62705(15)
O2_2 O 0.1971(2) -0.43976(14) 0.23197(14)
O2A O 0.8029(2) -0.56024(14) 0.76803(14)
O4_2 O 0.2406(2) -0.11392(14) 0.23783(14)
O6_2 O -0.0188(3) 0.31433(16) 0.18085(15)
O6A O 1.0188(3) -0.31433(16) 0.81915(15)
O8_2 O 0.1291(2) 0.40988(17) 0.08987(14)
O8A O 0.8709(2) -0.40988(17) 0.91013(14)
O3 O 0.4103(3) 0.59485(19) 0.06733(16)
H39 H 0.347(2) 0.588(2) 0.1228(9)
H40 H 0.387(3) 0.5555(18) 0.0342(16)
O5 O 0.3344(3) 1.4918(2) -0.0551(2)
H41 H 0.400(5) 1.460(3) -0.062(3)
H42 H 0.265(4) 1.464(3) -0.017(3)
O7 O -0.2967(3) 1.2969(3) 0.3523(2)
H43 H -0.213(3) 1.294(6) 0.310(4)
H44 H -0.349(6) 1.325(6) 0.322(4)
O9 O -0.5293(5) 1.4075(4) 0.4497(3)
loop_
_geom_bond_atom_site_label_1
_geom_bond_atom_site_label_2
_geom_bond_site_symmetry_1
_geom_bond_site_symmetry_2
Cd1 N3 1_555 1_555
C1 C2 1_555 1_555
C2 C3 1_555 1_555
C3 H1 1_555 1_555
C4 C3 1_555 1_555
H2 C4 1_555 1_555
C5 C4 1_555 1_555
H3 C5 1_555 1_555
C6 C5 1_555 1_555
H4 C6 1_555 1_555
C7 C2 1_555 1_555
C8 C7 1_555 1_555
C9 C8 1_555 1_555
H5 C9 1_555 1_555
C10 C9 1_555 1_555
H6 C10 1_555 1_555
C11 C10 1_555 1_555
C12 C11 1_555 1_555
H7 C12 1_555 1_555
C13 C8 1_555 1_555
H8 C13 1_555 1_555
C14 C11 1_555 1_555
H9 C14 1_555 1_555
H10 C14 1_555 1_555
C15 C16 1_555 1_555
C16 H11 1_555 1_555
C17 C16 1_555 1_555
H12 C17 1_555 1_555
C18 C17 1_555 1_555
H13 C18 1_555 1_555
C19 C18 1_555 1_555
C20 C15 1_555 1_555
H14 C20 1_555 1_555
C21 C19 1_555 1_555
C22 H15 1_555 1_555
C23 H16 1_555 1_555
C24 H17 1_555 1_555
H18 C24 1_555 1_555
C25 C24 1_555 1_555
C26 C25 1_555 1_555
H19 C26 1_555 1_555
C27 C26 1_555 1_555
H20 C27 1_555 1_555
C28 C27 1_555 1_555
C29 C28 1_555 1_555
H21 C29 1_555 1_555
C30 C25 1_555 1_555
H22 C30 1_555 1_555
C31 C28 1_555 1_555
C32 C31 1_555 1_555
H23 C32 1_555 1_555
C33 C32 1_555 1_555
H24 C33 1_555 1_555
C34 C33 1_555 1_555
C35 C34 1_555 1_555
H25 C35 1_555 1_555
C36 C31 1_555 1_555
H26 C36 1_555 1_555
C37 C34 1_555 1_555
H27 C37 1_555 1_555
H28 C37 1_555 1_555
C38 H29 1_555 1_555
C39 H30 1_555 1_555
C40 H31 1_555 1_555
C41 H32 1_555 1_555
C42 H33 1_555 1_555
H34 C42 1_555 1_555
C43 C42 1_555 1_555
C44 C43 1_555 1_555
H35 C44 1_555 1_555
C45 C44 1_555 1_555
H36 C45 1_555 1_555
C46 C45 1_555 1_555
C47 C46 1_555 1_555
H37 C47 1_555 1_555
C48 C43 1_555 1_555
H38 C48 1_555 1_555
N1 C40 1_555 1_555
N2 C41 1_555 1_555
N3 C40 1_555 1_555
N4 C22 1_555 1_555
N5 C23 1_555 1_555
N6 Cd1 1_555 1_555
N7 C37 1_555 1_555
N8 C39 1_555 1_555
N9 C38 1_555 1_555
O1 Cd1 1_555 1_555
O2 Cd1 1_555 1_555
O3 H39 1_555 1_555
O4 C14 1_555 1_555
H40 O3 1_555 1_555
O5 H41 1_555 1_555
O6 C1 1_555 1_555
H42 O5 1_555 1_555
O7 H43 1_555 1_555
O8 C1 1_555 1_555
H44 O7 1_555 1_555
Cd1A N3A 1_555 1_555
Cd1_2 N9 1_555 1_555
Cd1_3 O6 1_555 1_555
Cd1_4 N6_2 1_555 1_555
Cd1_5 O1_2 1_555 1_555
C1_2 C2_2 1_555 1_555
C2_2 C3_2 1_555 1_555
C3_2 H1_2 1_555 1_555
C4_2 C3_2 1_555 1_555
H2_2 C4_2 1_555 1_555
C5_2 C4_2 1_555 1_555
H3_2 C5_2 1_555 1_555
C6_2 C5_2 1_555 1_555
H4_2 C6_2 1_555 1_555
C7_2 C2_2 1_555 1_555
C8_2 C7_2 1_555 1_555
C9_2 C8_2 1_555 1_555
H5_2 C9_2 1_555 1_555
C10_2 C9_2 1_555 1_555
H6_2 C10_2 1_555 1_555
C11_2 C10_2 1_555 1_555
C12_2 C11_2 1_555 1_555
H7_2 C12_2 1_555 1_555
C13_2 C8_2 1_555 1_555
H8_2 C13_2 1_555 1_555
C14_2 C11_2 1_555 1_555
H9_2 C14_2 1_555 1_555
H10_2 C14_2 1_555 1_555
C15_2 C16_2 1_555 1_555
C16_2 H11_2 1_555 1_555
C17_2 C16_2 1_555 1_555
H12_2 C17_2 1_555 1_555
C18_2 C17_2 1_555 1_555
H13_2 C18_2 1_555 1_555
C19_2 C18_2 1_555 1_555
C20_2 C15_2 1_555 1_555
H14_2 C20_2 1_555 1_555
C21_2 C19_2 1_555 1_555
C22_2 H15_2 1_555 1_555
C23_2 H16_2 1_555 1_555
C24_2 H17_2 1_555 1_555
H18_2 C24_2 1_555 1_555
C25_2 C24_2 1_555 1_555
C26_2 C25_2 1_555 1_555
H19_2 C26_2 1_555 1_555
C27_2 C26_2 1_555 1_555
H20_2 C27_2 1_555 1_555
C28_2 C27_2 1_555 1_555
C29_2 C28_2 1_555 1_555
H21_2 C29_2 1_555 1_555
C30_2 C25_2 1_555 1_555
H22_2 C30_2 1_555 1_555
C31_2 C28_2 1_555 1_555
C32_2 C31_2 1_555 1_555
H23_2 C32_2 1_555 1_555
C33_2 C32_2 1_555 1_555
H24_2 C33_2 1_555 1_555
C34_2 C33_2 1_555 1_555
C35_2 C34_2 1_555 1_555
H25_2 C35_2 1_555 1_555
C36_2 C31_2 1_555 1_555
H26_2 C36_2 1_555 1_555
C37_2 C34_2 1_555 1_555
H27_2 C37_2 1_555 1_555
H28_2 C37_2 1_555 1_555
C38_2 H29_2 1_555 1_555
C39_2 H30_2 1_555 1_555
C40A H31A 1_555 1_555
C41A H32A 1_555 1_555
C42A H33A 1_555 1_555
H34A C42A 1_555 1_555
C43A C42A 1_555 1_555
C44A C43A 1_555 1_555
H35A C44A 1_555 1_555
C45A C44A 1_555 1_555
H36A C45A 1_555 1_555
C46A C46 1_555 1_555
C47A C46A 1_555 1_555
H37A C47A 1_555 1_555
C48A C43A 1_555 1_555
H38A C48A 1_555 1_555
N1A C40A 1_555 1_555
N2A C41A 1_555 1_555
N3A C40A 1_555 1_555
N4_2 C22_2 1_555 1_555
N5_2 C23_2 1_555 1_555
N6_2 C22_2 1_555 1_555
N6A Cd1A 1_555 1_555
N7_2 C37_2 1_555 1_555
N8_2 C39_2 1_555 1_555
N9_2 Cd1 1_555 1_555
N9A Cd1A 1_555 1_555
O1_2 C21_2 1_555 1_555
O1A Cd1A 1_555 1_555
O2_2 Cd1_5 1_555 1_555
O2A Cd1A 1_555 1_555
O4_2 C14_2 1_555 1_555
O6_2 Cd1 1_555 1_555
O6A Cd1A 1_555 1_555
O8_2 Cd1 1_555 1_555
O8A Cd1A 1_555 1_555
C6 C7 1_555 1_555
C12 C13 1_555 1_555
C15 O4 1_555 1_555
C19 C20 1_555 1_555
C21 O1 1_555 1_555
C21 O2 1_555 1_555
C22 N6 1_555 1_555
C23 N6 1_555 1_555
C24 N4 1_555 1_555
C29 C30 1_555 1_555
C35 C36 1_555 1_555
C38 N7 1_555 1_555
C39 N9 1_555 1_555
C41 N3 1_555 1_555
C42 N1 1_555 1_555
C47 C48 1_555 1_555
N1 N2 1_555 1_555
N4 N5 1_555 1_555
N7 N8 1_555 1_555
O8 Cd1_3 1_555 1_555
C1_2 O6_2 1_555 1_555
C1_2 O8_2 1_555 1_555
C6_2 C7_2 1_555 1_555
C12_2 C13_2 1_555 1_555
C15_2 O4_2 1_555 1_555
C19_2 C20_2 1_555 1_555
C21_2 O2_2 1_555 1_555
C23_2 N6_2 1_555 1_555
C24_2 N4_2 1_555 1_555
C29_2 C30_2 1_555 1_555
C35_2 C36_2 1_555 1_555
C38_2 N7_2 1_555 1_555
C38_2 N9_2 1_555 1_555
C39_2 N9_2 1_555 1_555
C41A N3A 1_555 1_555
C42A N1A 1_555 1_555
C45A C46A 1_555 1_555
C47A C48A 1_555 1_555
N1A N2A 1_555 1_555
N4_2 N5_2 1_555 1_555
N7_2 N8_2 1_555 1_555

#END
