
#######################################################################
#
#                 Cambridge Crystallographic Data Centre
#                                CCDC 
#
#######################################################################
#
# If this CIF has been generated from an entry in the Cambridge 
# Structural Database, then it will include bibliographic, chemical, 
# crystal, experimental, refinement or atomic coordinate data resulting 
# from the CCDC's data processing and validation procedures.
#
#######################################################################

data_PATTAH
_symmetry_cell_setting           monoclinic
_symmetry_space_group_name_H-M   'P 21/c'
_symmetry_Int_Tables_number      14
_space_group_name_Hall           '-P 2ybc'
loop_
_symmetry_equiv_pos_site_id
_symmetry_equiv_pos_as_xyz
1 x,y,z
2 -x,1/2+y,1/2-z
3 -x,-y,-z
4 x,1/2-y,1/2+z
_cell_length_a                   22.0506(8)
_cell_length_b                   13.8182(5)
_cell_length_c                   7.1851(3)
_cell_angle_alpha                90
_cell_angle_beta                 90.829(3)
_cell_angle_gamma                90
_cell_volume                     2189.07
loop_
_atom_site_label
_atom_site_type_symbol
_atom_site_fract_x
_atom_site_fract_y
_atom_site_fract_z
Cd1 Cd 0.259435(13) 0.67841(2) 0.30771(4)
C1 C 0.19705(19) 0.5197(3) 0.4105(5)
C2 C 0.15839(18) 0.4393(3) 0.4911(5)
C3 C 0.0993(2) 0.4316(3) 0.4260(5)
H1 H 0.0864 0.4714 0.3287
C4 C 0.0586(2) 0.3666(3) 0.5014(6)
H2 H 0.0190 0.3626 0.4558
C5 C 0.0780(2) 0.3084(3) 0.6444(6)
H3 H 0.0512 0.2647 0.6975
C6 C 0.13703(19) 0.3141(3) 0.7103(6)
H4 H 0.1495 0.2735 0.8067
C7 C 0.17842(19) 0.3793(3) 0.6359(5)
C8 C 0.24212(19) 0.3779(3) 0.7043(5)
C9 C 0.2881(2) 0.3550(3) 0.5822(6)
H5 H 0.2788 0.3425 0.4578
C10 C 0.3474(2) 0.3507(3) 0.6440(6)
H6 H 0.3775 0.3344 0.5603
C11 C 0.36344(19) 0.3699(3) 0.8263(6)
C12 C 0.3184(2) 0.3935(3) 0.9481(6)
H7 H 0.3283 0.4076 1.0714
C13 C 0.25799(19) 0.3964(3) 0.8881(6)
H8 H 0.2279 0.4110 0.9729
C14 C 0.42947(19) 0.3663(3) 0.8779(6)
H9 H 0.4466 0.3061 0.8336
H10 H 0.4503 0.4191 0.8171
C15 C 0.49846(19) 0.3749(3) 1.1312(5)
C16 C 0.5090(2) 0.3922(3) 1.3199(5)
H11 H 0.4764 0.4028 1.3982
C17 C 0.5671(2) 0.3937(3) 1.3914(5)
H12 H 0.5735 0.4060 1.5173
C18 C 0.61637(19) 0.3770(3) 1.2767(5)
H13 H 0.6557 0.3770 1.3251
C19 C 0.60552(18) 0.3605(3) 1.0890(5)
C20 C 0.54748(18) 0.3601(3) 1.0156(5)
H14 H 0.5411 0.3499 0.8888
C21 C 0.65654(18) 0.3438(3) 0.9585(5)
C22 C 0.1169(2) 0.7312(3) 0.2693(6)
H15 H 0.1092 0.6675 0.2347
C23 C 0.16372(19) 0.8556(3) 0.3468(5)
H16 H 0.1940 0.8999 0.3774
C24 C 0.0744(2) 0.9661(3) 0.3821(6)
H17 H 0.0654 0.9984 0.2650
H18 H 0.1013 1.0077 0.4543
C25 C 0.01633(18) 0.9516(3) 0.4867(5)
H19 H 0.0253 0.9230 0.6072
H20 H -0.0099 0.9075 0.4180
N1 N 0.17343(15) 0.7651(2) 0.2999(4)
N2 N 0.10528(16) 0.8751(2) 0.3448(4)
N3 N 0.07354(17) 0.7949(3) 0.2919(5)
O1 O 0.23168(13) 0.5665(2) 0.5185(4)
O2 O 0.19124(13) 0.5392(2) 0.2416(4)
O3 O 0.43911(13) 0.3732(2) 1.0722(4)
O4 O 0.64969(13) 0.3680(2) 0.7924(4)
O5 O 0.70627(12) 0.30523(18) 1.0130(4)
Cd1B Cd -0.259435(13) 1.32159(2) 0.69229(4)
Cd1B_2 Cd 0.740565(13) 0.32159(2) 0.69229(4)
Cd1A Cd 0.740565(13) 0.17841(2) 1.19229(4)
Cd1C Cd 0.259435(13) 0.82159(2) -0.19229(4)
C1B C 0.80295(19) 0.4803(3) 0.5895(5)
C2B C 0.84161(18) 0.5607(3) 0.5089(5)
C3B C 0.9007(2) 0.5684(3) 0.5740(5)
H1B H 0.9136 0.5286 0.6713
C4B C 0.9414(2) 0.6334(3) 0.4986(6)
H2B H 0.9810 0.6374 0.5442
C5B C 0.9220(2) 0.6916(3) 0.3556(6)
H3B H 0.9488 0.7353 0.3025
C6B C 0.86297(19) 0.6859(3) 0.2897(6)
H4B H 0.8505 0.7265 0.1933
C7B C 0.82158(19) 0.6207(3) 0.3641(5)
C8B C 0.75788(19) 0.6221(3) 0.2957(5)
C9B C 0.7119(2) 0.6450(3) 0.4178(6)
H5B H 0.7212 0.6575 0.5422
C10B C 0.6526(2) 0.6493(3) 0.3560(6)
H6B H 0.6225 0.6656 0.4397
C11B C 0.63656(19) 0.6301(3) 0.1737(6)
C12B C 0.6816(2) 0.6065(3) 0.0519(6)
H7B H 0.6717 0.5924 -0.0714
C13B C 0.74201(19) 0.6036(3) 0.1119(6)
H8B H 0.7721 0.5890 0.0271
C14B C 0.57053(19) 0.6337(3) 0.1221(6)
H9B H 0.5534 0.6939 0.1664
H10B H 0.5497 0.5809 0.1829
C15B C 0.50154(19) 0.6251(3) -0.1312(5)
C16B C 0.4910(2) 0.6078(3) -0.3199(5)
H11B H 0.5236 0.5972 -0.3982
C17B C 0.4329(2) 0.6063(3) -0.3914(5)
H12B H 0.4265 0.5940 -0.5173
C18B C 0.38363(19) 0.6230(3) -0.2767(5)
H13B H 0.3443 0.6230 -0.3251
C19B C 0.39448(18) 0.6395(3) -0.0890(5)
C20B C 0.45252(18) 0.6399(3) -0.0156(5)
H14B H 0.4589 0.6501 0.1112
C21B C 0.34346(18) 0.6562(3) 0.0415(5)
C22B C -0.1169(2) 1.2688(3) 0.7307(6)
H15B H -0.1092 1.3325 0.7653
C23B C -0.16372(19) 1.1444(3) 0.6532(5)
H16B H -0.1940 1.1001 0.6226
C24B C -0.0744(2) 1.0339(3) 0.6179(6)
H17B H -0.0654 1.0016 0.7350
H18B H -0.1013 0.9923 0.5457
C25B C -0.01633(18) 1.0484(3) 0.5133(5)
H19B H -0.0253 1.0770 0.3928
H20B H 0.0099 1.0925 0.5820
N1B N -0.17343(15) 1.2349(2) 0.7001(4)
N2B N -0.10528(16) 1.1249(2) 0.6552(4)
N3B N -0.07354(17) 1.2051(3) 0.7081(5)
O1B O 0.76832(13) 0.4335(2) 0.4815(4)
O1B_2 O -0.23168(13) 1.4335(2) 0.4815(4)
O2B O 0.80876(13) 0.4608(2) 0.7584(4)
O2B_2 O -0.19124(13) 1.4608(2) 0.7584(4)
O3B O 0.56089(13) 0.6268(2) -0.0722(4)
O4B O 0.35031(13) 0.6320(2) 0.2076(4)
O4_2 O -0.35031(13) 1.3680(2) 0.7924(4)
O5B O 0.29373(12) 0.69477(18) -0.0130(4)
O5A O 0.29373(12) 0.80523(18) 0.4870(4)
O5C O -0.29373(12) 1.19477(18) 0.5130(4)
O5_2 O -0.29373(12) 1.30523(18) 1.0130(4)
loop_
_geom_bond_atom_site_label_1
_geom_bond_atom_site_label_2
_geom_bond_site_symmetry_1
_geom_bond_site_symmetry_2
Cd1 N1 1_555 1_555
C1 C2 1_555 1_555
C2 C3 1_555 1_555
C3 H1 1_555 1_555
C4 C3 1_555 1_555
H2 C4 1_555 1_555
C5 C4 1_555 1_555
H3 C5 1_555 1_555
C6 C5 1_555 1_555
H4 C6 1_555 1_555
C7 C2 1_555 1_555
C8 C7 1_555 1_555
C9 C8 1_555 1_555
H5 C9 1_555 1_555
C10 C9 1_555 1_555
H6 C10 1_555 1_555
C11 C10 1_555 1_555
C12 C11 1_555 1_555
H7 C12 1_555 1_555
C13 C8 1_555 1_555
H8 C13 1_555 1_555
C14 C11 1_555 1_555
H9 C14 1_555 1_555
H10 C14 1_555 1_555
C15 C16 1_555 1_555
C16 H11 1_555 1_555
C17 C16 1_555 1_555
H12 C17 1_555 1_555
C18 C17 1_555 1_555
H13 C18 1_555 1_555
C19 C18 1_555 1_555
C20 C15 1_555 1_555
H14 C20 1_555 1_555
C21 C19 1_555 1_555
C22 H15 1_555 1_555
C23 H16 1_555 1_555
C24 H17 1_555 1_555
H18 C24 1_555 1_555
C25 C24 1_555 1_555
H19 C25 1_555 1_555
H20 C25 1_555 1_555
N1 C22 1_555 1_555
N2 C23 1_555 1_555
N3 C22 1_555 1_555
O1 Cd1 1_555 1_555
O2 Cd1 1_555 1_555
O3 C14 1_555 1_555
O4 C21 1_555 1_555
O5 C21 1_555 1_555
Cd1B N1B 1_555 1_555
Cd1B_2 O4 1_555 1_555
Cd1A O5 1_555 1_555
Cd1C O5B 1_555 1_555
C1B C2B 1_555 1_555
C2B C3B 1_555 1_555
C3B H1B 1_555 1_555
C4B C3B 1_555 1_555
H2B C4B 1_555 1_555
C5B C4B 1_555 1_555
H3B C5B 1_555 1_555
C6B C5B 1_555 1_555
H4B C6B 1_555 1_555
C7B C2B 1_555 1_555
C8B C7B 1_555 1_555
C9B C8B 1_555 1_555
H5B C9B 1_555 1_555
C10B C9B 1_555 1_555
H6B C10B 1_555 1_555
C11B C10B 1_555 1_555
C12B C11B 1_555 1_555
H7B C12B 1_555 1_555
C13B C8B 1_555 1_555
H8B C13B 1_555 1_555
C14B C11B 1_555 1_555
H9B C14B 1_555 1_555
H10B C14B 1_555 1_555
C15B C16B 1_555 1_555
C16B H11B 1_555 1_555
C17B C16B 1_555 1_555
H12B C17B 1_555 1_555
C18B C17B 1_555 1_555
H13B C18B 1_555 1_555
C19B C18B 1_555 1_555
C20B C15B 1_555 1_555
H14B C20B 1_555 1_555
C21B C19B 1_555 1_555
C22B H15B 1_555 1_555
C23B H16B 1_555 1_555
C24B H17B 1_555 1_555
H18B C24B 1_555 1_555
C25B C25 1_555 1_555
H19B C25B 1_555 1_555
H20B C25B 1_555 1_555
N1B C22B 1_555 1_555
N2B C23B 1_555 1_555
N3B C22B 1_555 1_555
O1B Cd1B_2 1_555 1_555
O1B_2 Cd1B 1_555 1_555
O2B Cd1B_2 1_555 1_555
O2B_2 Cd1B 1_555 1_555
O3B C14B 1_555 1_555
O4B Cd1 1_555 1_555
O4_2 Cd1B 1_555 1_555
O5B Cd1 1_555 1_555
O5A Cd1 1_555 1_555
O5C Cd1B 1_555 1_555
O5_2 Cd1B 1_555 1_555
C1 O1 1_555 1_555
C1 O2 1_555 1_555
C6 C7 1_555 1_555
C12 C13 1_555 1_555
C15 O3 1_555 1_555
C19 C20 1_555 1_555
C23 N1 1_555 1_555
C24 N2 1_555 1_555
N2 N3 1_555 1_555
O5 Cd1B_2 1_555 1_555
C1B O1B 1_555 1_555
C1B O2B 1_555 1_555
C6B C7B 1_555 1_555
C12B C13B 1_555 1_555
C15B O3B 1_555 1_555
C19B C20B 1_555 1_555
C21B O4B 1_555 1_555
C21B O5B 1_555 1_555
C23B N1B 1_555 1_555
C24B C25B 1_555 1_555
C24B N2B 1_555 1_555
N2B N3B 1_555 1_555

#END
