
#######################################################################
#
#                 Cambridge Crystallographic Data Centre
#                                CCDC 
#
#######################################################################
#
# If this CIF has been generated from an entry in the Cambridge 
# Structural Database, then it will include bibliographic, chemical, 
# crystal, experimental, refinement or atomic coordinate data resulting 
# from the CCDC's data processing and validation procedures.
#
#######################################################################

data_PAVDUM
_symmetry_cell_setting           triclinic
_symmetry_space_group_name_H-M   'P -1'
_symmetry_Int_Tables_number      2
_space_group_name_Hall           '-P 1'
loop_
_symmetry_equiv_pos_site_id
_symmetry_equiv_pos_as_xyz
1 x,y,z
2 -x,-y,-z
_cell_length_a                   9.7925(11)
_cell_length_b                   12.2494(12)
_cell_length_c                   12.7686(11)
_cell_angle_alpha                83.491(7)
_cell_angle_beta                 81.146(8)
_cell_angle_gamma                76.774(8)
_cell_volume                     1468.36
loop_
_atom_site_label
_atom_site_type_symbol
_atom_site_fract_x
_atom_site_fract_y
_atom_site_fract_z
Fe1 Fe 0.50000 0.00000 0.50000
O1 O 0.4600(3) -0.1437(2) 0.4405(2)
N1 N 0.0930(3) 0.2349(2) 0.5242(2)
N2 N 0.0432(3) 0.1409(2) 0.5602(2)
N3 N 0.2773(3) 0.0958(2) 0.5104(2)
N4 N 0.5203(3) -0.1153(2) 0.8297(2)
N5 N 0.3905(3) -0.1388(3) 0.8291(2)
N6 N 0.4752(3) -0.0713(2) 0.6661(2)
C1 C 0.1577(3) 0.0602(3) 0.5497(3)
C2 C 0.2315(3) 0.2067(3) 0.4950(3)
C3 C -0.0089(4) 0.3442(3) 0.5231(3)
C4 C 0.0573(4) 0.4458(3) 0.4979(3)
C5 C 0.3686(4) -0.1107(3) 0.7300(3)
C6 C 0.5680(4) -0.0759(3) 0.7338(3)
C7 C 0.5866(4) -0.1359(3) 0.9272(3)
C8 C 0.5031(4) -0.0617(3) 1.0140(3)
H1 H 0.37900 -0.13140 0.41630
H2 H 0.52800 -0.16550 0.39000
H3 H 0.65430 -0.05440 0.71580
H4 H 0.15630 -0.01520 0.56790
H5 H 0.28660 -0.11720 0.70500
H6 H 0.28850 0.25710 0.46760
H7 H -0.06620 0.35010 0.59210
H8 H -0.07160 0.34550 0.47090
H9 H 0.68140 -0.12200 0.91110
H10 H 0.59440 -0.21430 0.95330
H11 H 0.11140 0.44290 0.42750
H12 H 0.12150 0.44510 0.54880
H13 H 0.40730 -0.07400 1.02800
H14 H 0.54600 -0.08450 1.07880
Fe1_2 Fe -0.50000 1.00000 0.50000
Fe1_3 Fe 0.50000 0.00000 1.50000
O1A O 0.5400(3) 0.1437(2) 0.5595(2)
N1A N -0.0930(3) 0.7651(2) 0.4758(2)
N2A N -0.0432(3) 0.8591(2) 0.4398(2)
N3A N -0.2773(3) 0.9042(2) 0.4896(2)
N3A_2 N 0.7227(3) -0.0958(2) 0.4896(2)
N4A N 0.4797(3) 0.1153(2) 1.1703(2)
N5A N 0.6095(3) 0.1388(3) 1.1709(2)
N6A N 0.5248(3) 0.0713(2) 1.3339(2)
N6A_2 N 0.5248(3) 0.0713(2) 0.3339(2)
C1A C -0.1577(3) 0.9398(3) 0.4503(3)
C2A C -0.2315(3) 0.7933(3) 0.5050(3)
C3A C 0.0089(4) 0.6558(3) 0.4769(3)
C4A C -0.0573(4) 0.5542(3) 0.5021(3)
C5A C 0.6314(4) 0.1107(3) 1.2700(3)
C6A C 0.4320(4) 0.0759(3) 1.2662(3)
C7A C 0.4134(4) 0.1359(3) 1.0728(3)
C8A C 0.4969(4) 0.0617(3) 0.9860(3)
H1A H 0.62100 0.13140 0.58370
H2A H 0.47200 0.16550 0.61000
H3A H 0.34570 0.05440 1.28420
H4A H -0.15630 1.01520 0.43210
H5A H 0.71340 0.11720 1.29500
H6A H -0.28850 0.74290 0.53240
H7A H 0.06620 0.64990 0.40790
H8A H 0.07160 0.65450 0.52910
H9A H 0.31860 0.12200 1.08890
H10A H 0.40560 0.21430 1.04670
H11A H -0.11140 0.55710 0.57250
H12A H -0.12150 0.55490 0.45120
H13A H 0.59270 0.07400 0.97200
H14A H 0.45400 0.08450 0.92120
Fe2 Fe 0.50000 0.50000 0.00000
O2 O 0.3053(3) 0.4510(2) -0.0121(2)
N7 N 0.1780(3) 0.7792(2) 0.0936(2)
N8 N 0.2564(3) 0.7781(3) 0.1735(3)
N9 N 0.3675(3) 0.6496(2) 0.0600(2)
N10 N 0.5480(3) 0.3907(2) 0.3260(2)
N11 N 0.4176(3) 0.3681(3) 0.3310(2)
N12 N 0.4966(3) 0.4258(2) 0.1635(2)
C9 C 0.3682(4) 0.6982(3) 0.1497(3)
C10 C 0.2463(4) 0.7052(3) 0.0270(3)
C11 C 0.0456(4) 0.8615(3) 0.0836(3)
C12 C 0.0706(4) 0.9602(3) 0.0092(3)
C13 C 0.3919(4) 0.3898(3) 0.2316(3)
C14 C 0.5936(4) 0.4245(3) 0.2269(3)
C15 C 0.6193(4) 0.3785(3) 0.4205(3)
C16 C 0.5241(4) 0.4369(3) 0.5119(3)
H15 H 0.23040 0.47330 0.03150
H16 H 0.29160 0.40050 -0.04860
H17 H 0.68040 0.44430 0.20490
H18 H 0.57430 0.42310 0.57350
H19 H 0.44140 0.40410 0.52970
H20 H 0.70310 0.40990 0.40320
H21 H 0.64930 0.29920 0.44230
H22 H 0.30880 0.38120 0.20990
H23 H 0.21450 0.69310 -0.03480
H24 H 0.00370 0.88690 0.15290
H25 H -0.02040 0.82640 0.05740
H26 H 0.44170 0.67690 0.19100
H27 H 0.12080 0.93440 -0.05820
H28 H 0.12880 1.00000 0.03870
Fe2_2 Fe -0.50000 1.50000 0.00000
Fe2_3 Fe 0.50000 0.50000 1.00000
O2A O 0.6947(3) 0.5490(2) 0.0121(2)
N7A N -0.1780(3) 1.2208(2) -0.0936(2)
N8A N -0.2564(3) 1.2219(3) -0.1735(3)
N9A N -0.3675(3) 1.3504(2) -0.0600(2)
N9A_2 N 0.6325(3) 0.3504(2) -0.0600(2)
N10A N 0.4520(3) 0.6093(2) 0.6740(2)
N11A N 0.5824(3) 0.6319(3) 0.6690(2)
N12A N 0.5034(3) 0.5742(2) 0.8365(2)
N12A_2 N 0.5034(3) 0.5742(2) -0.1635(2)
C9A C -0.3682(4) 1.3018(3) -0.1497(3)
C10A C -0.2463(4) 1.2948(3) -0.0270(3)
C11A C -0.0456(4) 1.1385(3) -0.0836(3)
C12A C -0.0706(4) 1.0398(3) -0.0092(3)
C13A C 0.6081(4) 0.6102(3) 0.7684(3)
C14A C 0.4064(4) 0.5755(3) 0.7731(3)
C15A C 0.3807(4) 0.6215(3) 0.5795(3)
C16A C 0.4759(4) 0.5631(3) 0.4881(3)
H15A H 0.76960 0.52670 -0.03150
H16A H 0.70840 0.59950 0.04860
H17A H 0.31960 0.55570 0.79510
H18A H 0.42570 0.57690 0.42650
H19A H 0.55860 0.59590 0.47030
H20A H 0.29690 0.59010 0.59680
H21A H 0.35070 0.70080 0.55770
H22A H 0.69120 0.61880 0.79010
H23A H -0.21450 1.30690 0.03480
H24A H -0.00370 1.11310 -0.15290
H25A H 0.02040 1.17360 -0.05740
H26A H -0.44170 1.32310 -0.19100
H27A H -0.12080 1.06560 0.05820
H28A H -0.12880 1.00000 -0.03870
Cl1 Cl 0.00104(10) 0.23113(9) 0.24015(8)
O7 O -0.018(3) 0.201(2) 0.1388(9)
O8 O -0.065(2) 0.3512(5) 0.255(2)
O9 O 0.1500(4) 0.2078(19) 0.240(2)
O10 O -0.065(2) 0.1601(16) 0.3207(14)
Cl2 Cl 0.24380(9) 0.27983(8) 0.77546(7)
O11 O 0.1012(3) 0.3132(3) 0.7533(3)
O12 O 0.3206(5) 0.3606(4) 0.7219(3)
O13 O 0.2469(3) 0.2775(2) 0.8877(2)
O14 O 0.3031(4) 0.1722(3) 0.7415(3)
O15 O 0.0755(4) 0.5046(3) 0.1287(4)
H29 H 0.03930 0.44840 0.15240
H30 H 0.02950 0.56220 0.15990
O16 O 0.7743(3) 0.1059(3) 0.6446(2)
H31 H 0.84870 0.12210 0.61070
H32 H 0.76300 0.12640 0.70650
O3? O 0.0469(6) 0.1307(5) 0.1821(5)
O4? O -0.0671(4) 0.3193(4) 0.1723(4)
O5? O 0.1222(4) 0.2580(3) 0.2697(3)
O6? O -0.0940(4) 0.2065(3) 0.3313(3)
loop_
_geom_bond_atom_site_label_1
_geom_bond_atom_site_label_2
_geom_bond_site_symmetry_1
_geom_bond_site_symmetry_2
Fe1 O1 1_555 1_555
O1 H1 1_555 1_555
N1 N2 1_555 1_555
N2 C1 1_555 1_555
N3 Fe1 1_555 1_555
N4 N5 1_555 1_555
N5 C5 1_555 1_555
N6 Fe1 1_555 1_555
C1 N3 1_555 1_555
C2 N1 1_555 1_555
C3 N1 1_555 1_555
C4 C3 1_555 1_555
C5 N6 1_555 1_555
C6 N4 1_555 1_555
C7 N4 1_555 1_555
C8 C7 1_555 1_555
Fe2 O2 1_555 1_555
O2 H15 1_555 1_555
N7 N8 1_555 1_555
N8 C9 1_555 1_555
N9 Fe2 1_555 1_555
N10 N11 1_555 1_555
N11 C13 1_555 1_555
N12 Fe2 1_555 1_555
C9 N9 1_555 1_555
C10 N7 1_555 1_555
C11 N7 1_555 1_555
C12 C11 1_555 1_555
C13 N12 1_555 1_555
C14 N10 1_555 1_555
C15 N10 1_555 1_555
C16 C15 1_555 1_555
Cl1 O7 1_555 1_555
O8 Cl1 1_555 1_555
O9 Cl1 1_555 1_555
O10 Cl1 1_555 1_555
Cl2 O11 1_555 1_555
O12 Cl2 1_555 1_555
O13 Cl2 1_555 1_555
O14 Cl2 1_555 1_555
O15 H29 1_555 1_555
O16 H31 1_555 1_555
H2 O1 1_555 1_555
H3 C6 1_555 1_555
H4 C1 1_555 1_555
H5 C5 1_555 1_555
H6 C2 1_555 1_555
H7 C3 1_555 1_555
H8 C3 1_555 1_555
H9 C7 1_555 1_555
H10 C7 1_555 1_555
H11 C4 1_555 1_555
H12 C4 1_555 1_555
H13 C8 1_555 1_555
H14 C8 1_555 1_555
H16 O2 1_555 1_555
H17 C14 1_555 1_555
H18 C16 1_555 1_555
H19 C16 1_555 1_555
H20 C15 1_555 1_555
H21 C15 1_555 1_555
H22 C13 1_555 1_555
H23 C10 1_555 1_555
H24 C11 1_555 1_555
H25 C11 1_555 1_555
H26 C9 1_555 1_555
H27 C12 1_555 1_555
H28 C12 1_555 1_555
H30 O15 1_555 1_555
H32 O16 1_555 1_555
Fe1_2 N3A 1_555 1_555
Fe1_3 N6A 1_555 1_555
O1A Fe1 1_555 1_555
N1A N2A 1_555 1_555
N2A C1A 1_555 1_555
N3A C1A 1_555 1_555
N3A_2 Fe1 1_555 1_555
N4A N5A 1_555 1_555
N5A C5A 1_555 1_555
N6A C5A 1_555 1_555
N6A_2 Fe1 1_555 1_555
C1A H4A 1_555 1_555
C2A N1A 1_555 1_555
C3A N1A 1_555 1_555
C4A C4 1_555 1_555
C5A H5A 1_555 1_555
C6A N4A 1_555 1_555
C7A N4A 1_555 1_555
C8A C8 1_555 1_555
Fe2_2 N9A 1_555 1_555
Fe2_3 N12A 1_555 1_555
O2A Fe2 1_555 1_555
N7A N8A 1_555 1_555
N8A C9A 1_555 1_555
N9A C9A 1_555 1_555
N9A_2 Fe2 1_555 1_555
N10A N11A 1_555 1_555
N11A C13A 1_555 1_555
N12A C13A 1_555 1_555
N12A_2 Fe2 1_555 1_555
C9A H26A 1_555 1_555
C10A N7A 1_555 1_555
C11A N7A 1_555 1_555
C12A C12 1_555 1_555
C13A H22A 1_555 1_555
C14A N10A 1_555 1_555
C15A N10A 1_555 1_555
C16A C16 1_555 1_555
H1A O1A 1_555 1_555
H2A O1A 1_555 1_555
H3A C6A 1_555 1_555
H6A C2A 1_555 1_555
H7A C3A 1_555 1_555
H8A C3A 1_555 1_555
H9A C7A 1_555 1_555
H10A C7A 1_555 1_555
H11A C4A 1_555 1_555
H12A C4A 1_555 1_555
H13A C8A 1_555 1_555
H14A C8A 1_555 1_555
H15A O2A 1_555 1_555
H16A O2A 1_555 1_555
H17A C14A 1_555 1_555
H18A C16A 1_555 1_555
H19A C16A 1_555 1_555
H20A C15A 1_555 1_555
H21A C15A 1_555 1_555
H23A C10A 1_555 1_555
H24A C11A 1_555 1_555
H25A C11A 1_555 1_555
H27A C12A 1_555 1_555
H28A C12A 1_555 1_555
N3 C2 1_555 1_555
N6 C6 1_555 1_555
N9 C10 1_555 1_555
N12 C14 1_555 1_555
N3A C2A 1_555 1_555
N6A C6A 1_555 1_555
C3A C4A 1_555 1_555
C7A C8A 1_555 1_555
N9A C10A 1_555 1_555
N12A C14A 1_555 1_555
C11A C12A 1_555 1_555
C15A C16A 1_555 1_555

#END
