
#######################################################################
#
#                 Cambridge Crystallographic Data Centre
#                                CCDC 
#
#######################################################################
#
# If this CIF has been generated from an entry in the Cambridge 
# Structural Database, then it will include bibliographic, chemical, 
# crystal, experimental, refinement or atomic coordinate data resulting 
# from the CCDC's data processing and validation procedures.
#
#######################################################################

data_PAVDIA
_symmetry_cell_setting           triclinic
_symmetry_space_group_name_H-M   'P -1'
_symmetry_Int_Tables_number      2
_space_group_name_Hall           '-P 1'
loop_
_symmetry_equiv_pos_site_id
_symmetry_equiv_pos_as_xyz
1 x,y,z
2 -x,-y,-z
_cell_length_a                   8.374(5)
_cell_length_b                   10.294(12)
_cell_length_c                   10.885(10)
_cell_angle_alpha                62.72(8)
_cell_angle_beta                 86.99(6)
_cell_angle_gamma                85.99(8)
_cell_volume                     831.684
loop_
_atom_site_label
_atom_site_type_symbol
_atom_site_fract_x
_atom_site_fract_y
_atom_site_fract_z
Fe1 Fe 0.00000 0.00000 0.50000
N1 N 0.1814(9) -0.0569(9) 0.3769(8)
N2 N 0.4161(10) -0.1405(9) 0.3264(8)
N3 N 0.3099(10) -0.1079(9) 0.2251(8)
N4 N 0.1429(9) 0.1896(9) 0.4579(8)
N5 N 0.3169(10) 0.3671(9) 0.3481(9)
N6 N 0.2398(9) 0.3832(8) 0.4533(8)
N7 N -0.1372(9) 0.1372(9) 0.3147(8)
N8 N -0.3158(10) 0.2013(9) 0.1478(9)
N9 N -0.2405(9) 0.3198(8) 0.1344(8)
C1 C 0.3343(11) -0.1090(11) 0.4138(11)
C2 C 0.1730(11) -0.0603(11) 0.2576(10)
C3 C 0.3471(12) -0.1447(12) 0.1103(11)
C4 C 0.5037(11) -0.0827(11) 0.0383(11)
C5 C 0.2540(11) 0.2502(10) 0.3553(9)
C6 C 0.1361(11) 0.2773(10) 0.5167(11)
C7 C 0.2664(11) 0.5052(10) 0.4842(11)
C8 C 0.4291(11) 0.4901(10) 0.5496(10)
C9 C -0.2543(11) 0.0950(12) 0.2594(11)
C10 C -0.1362(11) 0.2816(11) 0.2325(10)
C11 C -0.2686(11) 0.4630(11) 0.0163(10)
C12 C -0.4319(10) 0.5334(11) 0.0174(10)
H1 H 0.08220 -0.03260 0.20390
H2 H 0.58680 -0.11540 0.10650
H3 H 0.53320 -0.12110 -0.02660
H4 H 0.26150 -0.10540 0.04430
H5 H 0.35420 -0.25020 0.14600
H6 H 0.37670 -0.12100 0.49580
H7 H 0.06910 0.26710 0.59120
H8 H 0.43100 0.56240 0.58330
H9 H 0.44060 0.39410 0.62840
H10 H 0.18200 0.50990 0.54670
H11 H 0.25990 0.59630 0.39920
H12 H 0.28350 0.21200 0.29430
H13 H -0.07140 0.34530 0.24330
H14 H -0.43070 0.63630 -0.04830
H15 H -0.45340 0.52710 0.10840
H16 H -0.25480 0.45260 -0.06780
H17 H -0.18840 0.52740 0.01460
H18 H -0.28700 -0.00040 0.29770
Fe1_2 Fe 1.00000 0.00000 -0.50000
Fe1_3 Fe 1.00000 1.00000 0.50000
Fe1_4 Fe -1.00000 1.00000 -0.50000
N1A N 0.8186(9) 0.0569(9) -0.3769(8)
N1A_2 N -0.1814(9) 0.0569(9) 0.6231(8)
N2A N 0.5839(10) 0.1405(9) -0.3264(8)
N3A N 0.6901(10) 0.1079(9) -0.2251(8)
N4A N 0.8571(9) 0.8104(9) 0.5421(8)
N4A_2 N -0.1429(9) -0.1896(9) 0.5421(8)
N5A N 0.6831(10) 0.6329(9) 0.6519(9)
N6A N 0.7602(9) 0.6168(8) 0.5467(8)
N7A N -0.8628(9) 0.8628(9) -0.3147(8)
N7A_2 N 0.1372(9) -0.1372(9) 0.6853(8)
N8A N -0.6842(10) 0.7987(9) -0.1478(9)
N9A N -0.7595(9) 0.6802(8) -0.1344(8)
C1A C 0.6657(11) 0.1090(11) -0.4138(11)
C2A C 0.8270(11) 0.0603(11) -0.2576(10)
C3A C 0.6529(12) 0.1447(12) -0.1103(11)
C4A C 0.4963(11) 0.0827(11) -0.0383(11)
C5A C 0.7460(11) 0.7498(10) 0.6447(9)
C6A C 0.8639(11) 0.7227(10) 0.4833(11)
C7A C 0.7336(11) 0.4948(10) 0.5158(11)
C8A C 0.5709(11) 0.5099(10) 0.4504(10)
C9A C -0.7457(11) 0.9050(12) -0.2594(11)
C10A C -0.8638(11) 0.7184(11) -0.2325(10)
C11A C -0.7314(11) 0.5370(11) -0.0163(10)
C12A C -0.5681(10) 0.4666(11) -0.0174(10)
H1A H 0.91780 0.03260 -0.20390
H2A H 0.41320 0.11540 -0.10650
H3A H 0.46680 0.12110 0.02660
H4A H 0.73850 0.10540 -0.04430
H5A H 0.64580 0.25020 -0.14600
H6A H 0.62330 0.12100 -0.49580
H7A H 0.93090 0.73290 0.40880
H8A H 0.56900 0.43760 0.41670
H9A H 0.55940 0.60590 0.37160
H10A H 0.81800 0.49010 0.45330
H11A H 0.74010 0.40370 0.60080
H12A H 0.71650 0.78800 0.70570
H13A H -0.92860 0.65470 -0.24330
H14A H -0.56930 0.36370 0.04830
H15A H -0.54660 0.47290 -0.10840
H16A H -0.74520 0.54740 0.06780
H17A H -0.81160 0.47260 -0.01460
H18A H -0.71300 1.00040 -0.29770
F1 F 0.1095(9) 0.1550(8) 0.8513(8)
F2 F 0.2083(8) 0.3684(8) 0.8119(7)
F3 F -0.0519(9) 0.3569(11) 0.7774(9)
F4 F 0.0419(9) 0.2527(9) 0.9956(8)
B1 B 0.0763(14) 0.2824(15) 0.8604(13)
loop_
_geom_bond_atom_site_label_1
_geom_bond_atom_site_label_2
_geom_bond_site_symmetry_1
_geom_bond_site_symmetry_2
Fe1 N1 1_555 1_555
N1 C1 1_555 1_555
N2 N3 1_555 1_555
N3 C2 1_555 1_555
N4 Fe1 1_555 1_555
N5 N6 1_555 1_555
N6 C6 1_555 1_555
N7 Fe1 1_555 1_555
N8 N9 1_555 1_555
N9 C10 1_555 1_555
C1 N2 1_555 1_555
C2 N1 1_555 1_555
C3 N3 1_555 1_555
C4 C3 1_555 1_555
C5 N4 1_555 1_555
C6 N4 1_555 1_555
C7 N6 1_555 1_555
C8 C7 1_555 1_555
C9 N7 1_555 1_555
C10 N7 1_555 1_555
C11 N9 1_555 1_555
C12 C11 1_555 1_555
F1 B1 1_555 1_555
F2 B1 1_555 1_555
F3 B1 1_555 1_555
F4 B1 1_555 1_555
H1 C2 1_555 1_555
H2 C4 1_555 1_555
H3 C4 1_555 1_555
H4 C3 1_555 1_555
H5 C3 1_555 1_555
H6 C1 1_555 1_555
H7 C6 1_555 1_555
H8 C8 1_555 1_555
H9 C8 1_555 1_555
H10 C7 1_555 1_555
H11 C7 1_555 1_555
H12 C5 1_555 1_555
H13 C10 1_555 1_555
H14 C12 1_555 1_555
H15 C12 1_555 1_555
H16 C11 1_555 1_555
H17 C11 1_555 1_555
H18 C9 1_555 1_555
Fe1_2 N1A 1_555 1_555
Fe1_3 N4A 1_555 1_555
Fe1_4 N7A 1_555 1_555
N1A C1A 1_555 1_555
N1A_2 Fe1 1_555 1_555
N2A N3A 1_555 1_555
N3A C2A 1_555 1_555
N4A C5A 1_555 1_555
N4A_2 Fe1 1_555 1_555
N5A N6A 1_555 1_555
N6A C6A 1_555 1_555
N7A C9A 1_555 1_555
N7A_2 Fe1 1_555 1_555
N8A N9A 1_555 1_555
N9A C10A 1_555 1_555
C1A N2A 1_555 1_555
C2A N1A 1_555 1_555
C3A N3A 1_555 1_555
C4A C4 1_555 1_555
C5A N5A 1_555 1_555
C6A N4A 1_555 1_555
C7A N6A 1_555 1_555
C8A C8 1_555 1_555
C9A N8A 1_555 1_555
C10A N7A 1_555 1_555
C11A N9A 1_555 1_555
C12A C12 1_555 1_555
H1A C2A 1_555 1_555
H2A C4A 1_555 1_555
H3A C4A 1_555 1_555
H4A C3A 1_555 1_555
H5A C3A 1_555 1_555
H6A C1A 1_555 1_555
H7A C6A 1_555 1_555
H8A C8A 1_555 1_555
H9A C8A 1_555 1_555
H10A C7A 1_555 1_555
H11A C7A 1_555 1_555
H12A C5A 1_555 1_555
H13A C10A 1_555 1_555
H14A C12A 1_555 1_555
H15A C12A 1_555 1_555
H16A C11A 1_555 1_555
H17A C11A 1_555 1_555
H18A C9A 1_555 1_555
N5 C5 1_555 1_555
N8 C9 1_555 1_555
C3A C4A 1_555 1_555
C7A C8A 1_555 1_555
C11A C12A 1_555 1_555

#END
