
#######################################################################
#
#                 Cambridge Crystallographic Data Centre
#                                CCDC 
#
#######################################################################
#
# If this CIF has been generated from an entry in the Cambridge 
# Structural Database, then it will include bibliographic, chemical, 
# crystal, experimental, refinement or atomic coordinate data resulting 
# from the CCDC's data processing and validation procedures.
#
#######################################################################

data_PAVKIH
_symmetry_cell_setting           monoclinic
_symmetry_space_group_name_H-M   'P 21/c'
_symmetry_Int_Tables_number      14
_space_group_name_Hall           '-P 2ybc'
loop_
_symmetry_equiv_pos_site_id
_symmetry_equiv_pos_as_xyz
1 x,y,z
2 -x,1/2+y,1/2-z
3 -x,-y,-z
4 x,1/2-y,1/2+z
_cell_length_a                   24.0395(4)
_cell_length_b                   14.8168(3)
_cell_length_c                   42.3734(6)
_cell_angle_alpha                90
_cell_angle_beta                 97.1210(10)
_cell_angle_gamma                90
_cell_volume                     14976.5
loop_
_atom_site_label
_atom_site_type_symbol
_atom_site_fract_x
_atom_site_fract_y
_atom_site_fract_z
Ag1 Ag 1.17127(4) 0.61165(8) 0.26811(3)
Ag2 Ag 1.33102(4) 0.83679(8) 0.22656(3)
Ag3 Ag 1.74829(4) 0.77625(7) 0.49791(2)
Ag4 Ag 1.5000 0.5000 0.5000
Ag5 Ag 2.0000 0.5000 0.5000
Ag6 Ag 1.53616(4) 0.45955(7) 0.33702(2)
Ag7 Ag 1.96468(4) 0.50218(7) 0.66376(2)
N1 N 1.0948(5) 0.6888(8) 0.2586(3)
C1 C 1.0816(6) 0.7350(10) 0.2307(3)
H1 H 1.1061 0.7320 0.2148
C2 C 1.0320(6) 0.7872(9) 0.2250(3)
H2 H 1.0222 0.8178 0.2054
C3 C 0.9975(5) 0.7918(8) 0.2499(3)
C4 C 1.0140(5) 0.7473(8) 0.2770(3)
H3 H 0.9922 0.7508 0.2942
C5 C 1.0631(6) 0.6961(10) 0.2802(3)
H4 H 1.0733 0.6648 0.2996
N2 N 0.9499(4) 0.8474(7) 0.2459(3)
C6 C 0.8965(6) 0.8062(9) 0.2475(4)
H5 H 0.9019 0.7438 0.2549
H6 H 0.8749 0.8066 0.2263
H7 H 0.8762 0.8400 0.2623
C7 C 0.9491(7) 0.9393(13) 0.2355(3)
O1 O 0.9073(4) 0.9759(6) 0.2260(2)
N3 N 1.2610(4) 0.9222(7) 0.2080(3)
C8 C 1.2095(6) 0.8937(9) 0.2032(4)
H8 H 1.2024 0.8329 0.2086
C9 C 1.1643(5) 0.9460(8) 0.1906(3)
H9 H 1.1273 0.9226 0.1867
C10 C 1.1772(5) 1.0366(9) 0.1842(3)
C11 C 1.2305(5) 1.0671(8) 0.1900(3)
H10 H 1.2391 1.1286 0.1866
C12 C 1.2721(5) 1.0072(10) 0.2010(3)
H11 H 1.3100 1.0271 0.2037
N4 N 1.1323(4) 1.0968(6) 0.1719(2)
C13 C 1.1402(6) 1.1446(11) 0.1422(3)
H12 H 1.1078 1.1835 0.1358
H13 H 1.1438 1.1004 0.1253
H14 H 1.1742 1.1815 0.1456
C14 C 1.0806(5) 1.0974(8) 0.1801(3)
O2 O 1.0423(3) 1.1360(6) 0.16491(19)
N5 N 1.8083(4) 0.7878(7) 0.5390(2)
C15 C 1.8040(5) 0.8500(9) 0.5628(3)
H15 H 1.7792 0.8994 0.5580
C16 C 1.8321(6) 0.8459(9) 0.5922(3)
H16 H 1.8293 0.8932 0.6070
C17 C 1.8665(5) 0.7683(9) 0.6007(3)
C18 C 1.8755(5) 0.7085(11) 0.5774(3)
H17 H 1.9012 0.6602 0.5823
C19 C 1.8479(6) 0.7168(10) 0.5465(3)
H18 H 1.8554 0.6752 0.5305
N6 N 1.8931(4) 0.7590(7) 0.6316(2)
C20 C 1.9279(6) 0.8355(9) 0.6461(3)
H19 H 1.9438 0.8192 0.6678
H20 H 1.9584 0.8479 0.6334
H21 H 1.9045 0.8894 0.6468
C21 C 1.8963(6) 0.6811(9) 0.6477(3)
O3 O 1.9289(4) 0.6687(6) 0.67181(18)
N7 N 1.5311(5) 0.4425(10) 0.4586(3)
C22 C 1.5860(6) 0.4339(11) 0.4579(3)
H22 H 1.6113 0.4603 0.4744
C23 C 1.6067(6) 0.3874(12) 0.4338(4)
H23 H 1.6461 0.3834 0.4336
C24 C 1.5705(6) 0.3457(10) 0.4096(3)
C25 C 1.5147(6) 0.3594(9) 0.4100(3)
H24 H 1.4888 0.3387 0.3928
C26 C 1.4956(7) 0.4027(13) 0.4351(3)
H25 H 1.4564 0.4051 0.4361
N8 N 1.5905(5) 0.2967(8) 0.3837(3)
C27 C 1.5607(7) 0.2080(9) 0.3782(4)
H26 H 1.5751 0.1762 0.3606
H27 H 1.5204 0.2187 0.3728
H28 H 1.5672 0.1712 0.3975
C28 C 1.6327(6) 0.3199(10) 0.3682(3)
O4 O 1.6540(5) 0.2696(8) 0.3502(2)
N9 N 1.9668(5) 0.4660(9) 0.5427(2)
C29 C 2.0033(7) 0.4328(11) 0.5676(4)
H29 H 2.0425 0.4403 0.5675
C30 C 1.9837(6) 0.3890(10) 0.5926(3)
H30 H 2.0097 0.3627 0.6086
C31 C 1.9287(6) 0.3827(10) 0.5947(4)
C32 C 1.8891(7) 0.4126(10) 0.5700(3)
H31 H 1.8498 0.4056 0.5700
C33 C 1.9133(6) 0.4538(10) 0.5457(3)
H32 H 1.8876 0.4764 0.5286
N10 N 1.9090(5) 0.3310(7) 0.6200(3)
C34 C 1.9340(6) 0.2406(11) 0.6278(4)
H33 H 1.9166 0.2139 0.6453
H34 H 1.9273 0.2014 0.6091
H35 H 1.9744 0.2469 0.6341
C35 C 1.8664(7) 0.3573(10) 0.6357(3)
O5 O 1.8464(4) 0.3075(8) 0.6561(2)
N11 N 1.4791(4) 0.4390(7) 0.2903(2)
C36 C 1.4306(5) 0.3948(8) 0.2906(3)
C37 C 1.3960(5) 0.3818(9) 0.2618(3)
H36 H 1.3620 0.3493 0.2621
C38 C 1.4092(5) 0.4141(9) 0.2330(3)
H37 H 1.3855 0.4051 0.2136
C39 C 1.4600(5) 0.4610(8) 0.2347(3)
H38 H 1.4720 0.4842 0.2157
C40 C 1.4927(6) 0.4741(10) 0.2631(3)
N12 N 1.0208(4) 1.0132(6) 0.2109(2)
C41 C 1.0698(5) 1.0537(8) 0.2110(3)
C42 C 1.1056(5) 1.0675(8) 0.2400(2)
H39 H 1.1403 1.0980 0.2399
C43 C 1.0888(5) 1.0357(9) 0.2686(3)
H40 H 1.1111 1.0452 0.2884
C44 C 1.0386(5) 0.9900(10) 0.2667(3)
H41 H 1.0257 0.9665 0.2853
C45 C 1.0086(6) 0.9792(9) 0.2386(3)
N13 N 1.4037(5) 0.7557(7) 0.2378(3)
C46 C 1.4196(5) 0.7147(8) 0.2645(3)
H42 H 1.3959 0.7189 0.2808
C47 C 1.4704(6) 0.6633(8) 0.2712(3)
H43 H 1.4798 0.6363 0.2915
C48 C 1.5032(6) 0.6542(9) 0.2494(4)
C49 C 1.4873(5) 0.6975(10) 0.2194(3)
H44 H 1.5094 0.6891 0.2025
C50 C 1.4413(6) 0.7504(9) 0.2150(3)
H45 H 1.4341 0.7848 0.1961
N14 N 1.5518(4) 0.6011(6) 0.2525(2)
C51 C 1.6055(6) 0.6415(9) 0.2484(3)
H46 H 1.6349 0.5953 0.2513
H47 H 1.6141 0.6895 0.2642
H48 H 1.6038 0.6670 0.2270
C52 C 1.5506(6) 0.5184(10) 0.2649(3)
O6 O 1.5944(4) 0.4748(6) 0.2750(2)
N15 N 1.2386(4) 0.5307(7) 0.2890(3)
C53 C 1.2917(6) 0.5584(11) 0.2957(3)
H49 H 1.3000 0.6193 0.2910
C54 C 1.3353(5) 0.5043(9) 0.3089(3)
H50 H 1.3723 0.5277 0.3131
C55 C 1.3243(5) 0.4175(8) 0.3156(2)
C56 C 1.2683(6) 0.3854(10) 0.3092(3)
H51 H 1.2588 0.3248 0.3136
C57 C 1.2301(5) 0.4441(10) 0.2968(3)
H52 H 1.1926 0.4228 0.2931
N16 N 1.3674(4) 0.3558(7) 0.3293(2)
C58 C 1.3611(6) 0.3102(11) 0.3595(3)
H53 H 1.3936 0.2710 0.3656
H54 H 1.3269 0.2737 0.3570
H55 H 1.3588 0.3554 0.3762
C59 C 1.4206(5) 0.3600(9) 0.3208(3)
O7 O 1.4589(4) 0.3195(7) 0.3382(2)
N17 N 1.6888(5) 0.7738(8) 0.4569(2)
C60 C 1.6927(7) 0.8268(10) 0.4314(3)
H56 H 1.7159 0.8787 0.4349
C61 C 1.6670(7) 0.8142(11) 0.4007(3)
H57 H 1.6735 0.8544 0.3841
C62 C 1.6303(6) 0.7392(10) 0.3948(3)
C63 C 1.6235(6) 0.6844(9) 0.4214(3)
H58 H 1.5990 0.6339 0.4190
C64 C 1.6511(6) 0.7032(9) 0.4501(3)
H59 H 1.6445 0.6649 0.4672
N18 N 1.6051(4) 0.7209(7) 0.3648(2)
C65 C 1.5716(6) 0.7983(10) 0.3477(3)
H60 H 1.5552 0.7782 0.3266
H61 H 1.5965 0.8497 0.3456
H62 H 1.5415 0.8165 0.3601
C66 C 1.6028(5) 0.6385(10) 0.3517(3)
O8 O 1.5719(4) 0.6224(6) 0.3269(2)
N19 N 1.6223(4) 0.4809(8) 0.3638(2)
C67 C 1.6441(5) 0.5700(10) 0.3656(3)
C68 C 1.6992(6) 0.5836(11) 0.3768(3)
H63 H 1.7135 0.6433 0.3786
C69 C 1.7333(6) 0.5138(10) 0.3853(3)
H64 H 1.7715 0.5251 0.3927
C70 C 1.7142(5) 0.4263(10) 0.3835(3)
H65 H 1.7382 0.3764 0.3890
C71 C 1.6566(6) 0.4157(9) 0.3728(3)
N20 N 1.8788(4) 0.5239(8) 0.6383(2)
C72 C 1.8429(6) 0.4495(10) 0.6314(3)
C73 C 1.7863(6) 0.4655(13) 0.6204(3)
H66 H 1.7629 0.4154 0.6140
C74 C 1.7640(6) 0.5482(10) 0.6186(3)
H67 H 1.7249 0.5572 0.6127
C75 C 1.8005(5) 0.6210(10) 0.6256(3)
H68 H 1.7872 0.6813 0.6235
C76 C 1.8565(6) 0.6035(9) 0.6359(3)
O9 O 1.4519(4) 0.5217(6) 0.3598(2)
O10 O 1.4999(5) 0.6513(9) 0.3867(3)
O11 O 1.4287(5) 0.6724(8) 0.3416(3)
S1 S 1.45053(16) 0.6168(3) 0.36765(9)
C77 C 1.3967(6) 0.6222(11) 0.3944(4)
F1 F 1.4128(5) 0.5814(8) 0.4221(2)
F2 F 1.3498(4) 0.5853(8) 0.3817(2)
F3 F 1.3874(4) 0.7094(7) 0.4024(2)
O12 O 2.0465(4) 0.5667(7) 0.6401(3)
O13 O 2.0010(5) 0.6861(10) 0.6095(3)
O14 O 2.0696(5) 0.7161(8) 0.6554(2)
S2 S 2.04892(16) 0.6590(3) 0.62989(9)
C78 C 2.1032(8) 0.6590(15) 0.6051(5)
F4 F 2.1508(4) 0.6226(8) 0.6173(3)
F5 F 2.1132(4) 0.7392(7) 0.5938(2)
F6 F 2.0869(7) 0.6091(9) 0.5770(3)
Ag1B Ag 1.82873(4) 0.38835(8) 0.73189(3)
Ag1C Ag 2.17127(4) 0.88835(8) 0.76811(3)
Ag2B Ag 1.66898(4) 0.16321(8) 0.77344(3)
Ag2C Ag 2.33102(4) 0.66321(8) 0.72656(3)
Ag3B Ag 1.25171(4) 0.22375(7) 0.50209(2)
Ag5_2 Ag 1.0000 0.5000 0.5000
Ag6B Ag 1.46384(4) 0.54045(7) 0.66298(2)
Ag7B Ag 1.03532(4) 0.49782(7) 0.33624(2)
Ag7C Ag 0.96468(4) 0.99782(7) 0.16376(2)
N1C N 2.0948(5) 0.8112(8) 0.7586(3)
N1B N 1.9052(5) 0.3112(8) 0.7414(3)
C1C C 2.0816(6) 0.7650(10) 0.7307(3)
H1C H 2.1061 0.7680 0.7148
C2C C 2.0320(6) 0.7128(9) 0.7250(3)
H2C H 2.0222 0.6822 0.7054
C3C C 1.9975(5) 0.7082(8) 0.7499(3)
C4C C 2.0140(5) 0.7527(8) 0.7770(3)
H3C H 1.9922 0.7492 0.7942
C5C C 2.0631(6) 0.8039(10) 0.7802(3)
H4C H 2.0733 0.8352 0.7996
N2C N 1.9499(4) 0.6526(7) 0.7459(3)
C6C C 1.8965(6) 0.6938(9) 0.7475(4)
H5C H 1.9019 0.7562 0.7549
H6C H 1.8749 0.6934 0.7263
H7C H 1.8762 0.6600 0.7623
C7C C 1.9491(7) 0.5607(13) 0.7355(3)
O1C O 1.9073(4) 0.5241(6) 0.7260(2)
N3C N 2.2610(4) 0.5778(7) 0.7080(3)
N3B N 1.7390(4) 0.0778(7) 0.7920(3)
C8C C 2.2095(6) 0.6063(9) 0.7032(4)
H8C H 2.2024 0.6671 0.7086
C9C C 2.1643(5) 0.5540(8) 0.6906(3)
H9C H 2.1273 0.5774 0.6867
C10C C 2.1772(5) 0.4634(9) 0.6842(3)
C11C C 2.2305(5) 0.4329(8) 0.6900(3)
H10C H 2.2391 0.3714 0.6866
C12C C 2.2721(5) 0.4928(10) 0.7010(3)
H11C H 2.3100 0.4729 0.7037
N4C N 2.1323(4) 0.4032(6) 0.6719(2)
C13C C 2.1402(6) 0.3554(11) 0.6422(3)
H12C H 2.1078 0.3165 0.6358
H13C H 2.1438 0.3996 0.6253
H14C H 2.1742 0.3185 0.6456
C14C C 2.0806(5) 0.4026(8) 0.6801(3)
O2C O 2.0423(3) 0.3640(6) 0.66491(19)
N5B N 1.1917(4) 0.2122(7) 0.4610(2)
C15B C 1.1960(5) 0.1500(9) 0.4372(3)
H15B H 1.2208 0.1006 0.4420
C16B C 1.1679(6) 0.1541(9) 0.4078(3)
H16B H 1.1707 0.1068 0.3930
C17B C 1.1335(5) 0.2317(9) 0.3993(3)
C18B C 1.1245(5) 0.2915(11) 0.4226(3)
H17B H 1.0988 0.3398 0.4177
C19B C 1.1521(6) 0.2832(10) 0.4535(3)
H18B H 1.1446 0.3248 0.4695
N6B N 1.1069(4) 0.2410(7) 0.3684(2)
C20B C 1.0721(6) 0.1645(9) 0.3539(3)
H19B H 1.0562 0.1808 0.3322
H20B H 1.0416 0.1521 0.3666
H21B H 1.0955 0.1106 0.3532
C21B C 1.1037(6) 0.3189(9) 0.3523(3)
O3B O 1.0711(4) 0.3313(6) 0.32819(18)
N7B N 1.4689(5) 0.5575(10) 0.5414(3)
C22B C 1.4140(6) 0.5661(11) 0.5421(3)
H22B H 1.3887 0.5397 0.5256
C23B C 1.3933(6) 0.6126(12) 0.5662(4)
H23B H 1.3539 0.6166 0.5664
C24B C 1.4295(6) 0.6543(10) 0.5904(3)
C25B C 1.4853(6) 0.6406(9) 0.5900(3)
H24B H 1.5112 0.6613 0.6072
C26B C 1.5044(7) 0.5973(13) 0.5649(3)
H25B H 1.5436 0.5949 0.5639
N8B N 1.4095(5) 0.7033(8) 0.6163(3)
C27B C 1.4393(7) 0.7920(9) 0.6218(4)
H26B H 1.4249 0.8238 0.6394
H27B H 1.4796 0.7813 0.6272
H28B H 1.4328 0.8288 0.6025
C28B C 1.3673(6) 0.6801(10) 0.6318(3)
O4B O 1.3460(5) 0.7304(8) 0.6498(2)
N9B N 1.0332(5) 0.5340(9) 0.4573(2)
N9B_2 N 2.0332(5) 0.5340(9) 0.4573(2)
C29B C 0.9967(7) 0.5672(11) 0.4324(4)
H29B H 0.9575 0.5597 0.4325
C30B C 1.0163(6) 0.6110(10) 0.4074(3)
H30B H 0.9903 0.6373 0.3914
C31B C 1.0713(6) 0.6173(10) 0.4053(4)
C32B C 1.1109(7) 0.5874(10) 0.4300(3)
H31B H 1.1502 0.5944 0.4300
C33B C 1.0867(6) 0.5462(10) 0.4543(3)
H32B H 1.1124 0.5236 0.4714
N10B N 1.0910(5) 0.6690(7) 0.3800(3)
C34B C 1.0660(6) 0.7594(11) 0.3722(4)
H33B H 1.0834 0.7861 0.3547
H34B H 1.0727 0.7986 0.3909
H35B H 1.0256 0.7531 0.3659
C35B C 1.1336(7) 0.6427(10) 0.3643(3)
O5B O 1.1536(4) 0.6925(8) 0.3439(2)
N11B N 1.5209(4) 0.5610(7) 0.7097(2)
C36B C 1.5694(5) 0.6052(8) 0.7094(3)
C37B C 1.6040(5) 0.6182(9) 0.7382(3)
H36B H 1.6380 0.6507 0.7379
C38B C 1.5908(5) 0.5859(9) 0.7670(3)
H37B H 1.6145 0.5949 0.7864
C39B C 1.5400(5) 0.5390(8) 0.7653(3)
H38B H 1.5280 0.5158 0.7843
C40B C 1.5073(6) 0.5259(10) 0.7369(3)
N12C N 2.0208(4) 0.4868(6) 0.7109(2)
N12A N 0.9792(4) 0.5132(6) 0.2891(2)
C41C C 2.0698(5) 0.4463(8) 0.7110(3)
C42C C 2.1056(5) 0.4325(8) 0.7400(2)
H39C H 2.1403 0.4020 0.7399
C43C C 2.0888(5) 0.4643(9) 0.7686(3)
H40C H 2.1111 0.4548 0.7884
C44C C 2.0386(5) 0.5100(10) 0.7667(3)
H41C H 2.0257 0.5335 0.7853
C45C C 2.0086(6) 0.5208(9) 0.7386(3)
N13B N 1.5963(5) 0.2443(7) 0.7622(3)
C46B C 1.5804(5) 0.2853(8) 0.7355(3)
H42B H 1.6041 0.2811 0.7192
C47B C 1.5296(6) 0.3367(8) 0.7288(3)
H43B H 1.5202 0.3637 0.7085
C48B C 1.4968(6) 0.3458(9) 0.7506(4)
C49B C 1.5127(5) 0.3025(10) 0.7806(3)
H44B H 1.4906 0.3109 0.7975
C50B C 1.5587(6) 0.2496(9) 0.7850(3)
H45B H 1.5659 0.2152 0.8039
N14B N 1.4482(4) 0.3989(6) 0.7475(2)
C51B C 1.3945(6) 0.3585(9) 0.7516(3)
H46B H 1.3651 0.4047 0.7487
H47B H 1.3859 0.3105 0.7358
H48B H 1.3962 0.3330 0.7730
C52B C 1.4494(6) 0.4816(10) 0.7351(3)
O6B O 1.4056(4) 0.5252(6) 0.7250(2)
N15B N 1.7614(4) 0.4693(7) 0.7110(3)
C53B C 1.7083(6) 0.4416(11) 0.7043(3)
H49B H 1.7000 0.3807 0.7090
C54B C 1.6647(5) 0.4957(9) 0.6911(3)
H50B H 1.6277 0.4723 0.6869
C55B C 1.6757(5) 0.5825(8) 0.6844(2)
C56B C 1.7317(6) 0.6146(10) 0.6908(3)
H51B H 1.7412 0.6752 0.6864
C57B C 1.7699(5) 0.5559(10) 0.7032(3)
H52B H 1.8074 0.5772 0.7069
N16B N 1.6326(4) 0.6442(7) 0.6707(2)
C58B C 1.6389(6) 0.6898(11) 0.6405(3)
H53B H 1.6064 0.7290 0.6344
H54B H 1.6731 0.7263 0.6430
H55B H 1.6412 0.6446 0.6238
C59B C 1.5794(5) 0.6400(9) 0.6792(3)
O7B O 1.5411(4) 0.6805(7) 0.6618(2)
N17B N 1.3112(5) 0.2262(8) 0.5431(2)
C60B C 1.3073(7) 0.1732(10) 0.5686(3)
H56B H 1.2841 0.1213 0.5651
C61B C 1.3330(7) 0.1858(11) 0.5993(3)
H57B H 1.3265 0.1456 0.6159
C62B C 1.3697(6) 0.2608(10) 0.6052(3)
C63B C 1.3765(6) 0.3156(9) 0.5786(3)
H58B H 1.4010 0.3661 0.5810
C64B C 1.3489(6) 0.2968(9) 0.5499(3)
H59B H 1.3555 0.3351 0.5328
N18B N 1.3949(4) 0.2791(7) 0.6352(2)
C65B C 1.4284(6) 0.2017(10) 0.6523(3)
H60B H 1.4448 0.2218 0.6734
H61B H 1.4035 0.1503 0.6544
H62B H 1.4585 0.1835 0.6399
C66B C 1.3972(5) 0.3615(10) 0.6483(3)
O8B O 1.4281(4) 0.3776(6) 0.6731(2)
N19B N 1.3777(4) 0.5191(8) 0.6362(2)
C67B C 1.3559(5) 0.4300(10) 0.6344(3)
C68B C 1.3008(6) 0.4164(11) 0.6232(3)
H63B H 1.2865 0.3567 0.6214
C69B C 1.2667(6) 0.4862(10) 0.6147(3)
H64B H 1.2285 0.4749 0.6073
C70B C 1.2858(5) 0.5737(10) 0.6165(3)
H65B H 1.2618 0.6236 0.6110
C71B C 1.3434(6) 0.5843(9) 0.6272(3)
N20B N 1.1212(4) 0.4761(8) 0.3617(2)
C72B C 1.1571(6) 0.5505(10) 0.3686(3)
C73B C 1.2137(6) 0.5345(13) 0.3796(3)
H66B H 1.2371 0.5846 0.3860
C74B C 1.2360(6) 0.4518(10) 0.3814(3)
H67B H 1.2751 0.4428 0.3873
C75B C 1.1995(5) 0.3790(10) 0.3744(3)
H68B H 1.2128 0.3187 0.3765
C76B C 1.1435(6) 0.3965(9) 0.3641(3)
O9B O 1.5481(4) 0.4783(6) 0.6402(2)
O10B O 1.5001(5) 0.3487(9) 0.6133(3)
O11B O 1.5713(5) 0.3276(8) 0.6584(3)
S1B S 1.54947(16) 0.3832(3) 0.63235(9)
C77B C 1.6033(6) 0.3778(11) 0.6056(4)
F1B F 1.5872(5) 0.4186(8) 0.5779(2)
F2B F 1.6502(4) 0.4147(8) 0.6183(2)
F3B F 1.6126(4) 0.2906(7) 0.5976(2)
O12B O 0.9535(4) 0.4333(7) 0.3599(3)
O13B O 0.9990(5) 0.3139(10) 0.3905(3)
O14B O 0.9304(5) 0.2839(8) 0.3446(2)
S2B S 0.95108(16) 0.3410(3) 0.37011(9)
C78B C 0.8968(8) 0.3410(15) 0.3949(5)
F4B F 0.8492(4) 0.3774(8) 0.3827(3)
F5B F 0.8868(4) 0.2608(7) 0.4062(2)
F6B F 0.9131(7) 0.3909(9) 0.4230(3)
O15 O 0.6810(7) 0.8225(10) 0.0271(3)
O16 O 0.6063(4) 0.9272(8) 0.0178(2)
O17 O 0.6533(5) 0.9035(8) 0.0710(2)
S3 S 0.65596(15) 0.9013(3) 0.03759(8)
C79 C 0.7066(8) 0.9860(14) 0.0309(4)
F7 F 0.7113(4) 0.9987(8) 0.00082(16)
F8 F 0.7563(5) 0.9660(11) 0.0446(3)
F9 F 0.6947(8) 1.0608(10) 0.0439(4)
O18 O 0.9008(5) 0.6063(8) 0.4836(2)
O19 O 0.8000(5) 0.6324(9) 0.4737(3)
O20 O 0.8509(5) 0.5685(11) 0.4315(3)
S4 S 0.85225(16) 0.6217(3) 0.46014(8)
C80 C 0.8627(9) 0.7313(16) 0.4476(4)
F10 F 0.8655(6) 0.7911(8) 0.4690(3)
F11 F 0.8228(8) 0.7574(12) 0.4234(4)
F12 F 0.9125(5) 0.7368(8) 0.4318(3)
O21 O 1.1924(8) 0.1821(13) 0.2998(4)
O22 O 1.2443(6) 0.1830(10) 0.3505(3)
O23 O 1.1911(4) 0.0489(7) 0.3324(2)
S5 S 1.22009(19) 0.1287(3) 0.32529(10)
C81 C 1.2728(12) 0.0989(18) 0.3039(7)
F13 F 1.2564(10) 0.0498(13) 0.2777(4)
F14 F 1.3037(5) 0.1650(8) 0.2964(4)
F15 F 1.3073(7) 0.0412(14) 0.3225(9)
O24 O 0.2527(7) 0.2700(10) 0.1535(3)
O25 O 0.3085(5) 0.4007(7) 0.1707(2)
O26 O 0.3067(10) 0.2716(16) 0.2047(8)
S6 S 0.27904(19) 0.3242(3) 0.17798(11)
C82 C 0.2286(15) 0.354(2) 0.2013(10)
F16 F 0.2530(14) 0.3968(16) 0.2279(6)
F17 F 0.1977(7) 0.4196(13) 0.1877(10)
F18 F 0.1938(7) 0.2881(12) 0.2051(5)
C83 C 0.4487(14) 0.9621(19) 0.3742(5)
H69 H 0.4647 1.0134 0.3868
H70 H 0.4725 0.9089 0.3789
H71 H 0.4109 0.9495 0.3795
C84 C 0.4458(12) 0.983(2) 0.3404(5)
C85 C 0.4272(12) 0.911(2) 0.3161(6)
H72 H 0.4273 0.9363 0.2947
H73 H 0.3893 0.8914 0.3189
H74 H 0.4531 0.8602 0.3190
O27 O 0.4681(13) 1.0305(14) 0.3251(6)
C86 C 1.2890(10) 0.808(2) 0.4343(9)
H75 H 1.2974 0.7446 0.4395
H76 H 1.2933 0.8438 0.4539
H77 H 1.3149 0.8303 0.4200
C87 C 1.2298(11) 0.816(2) 0.4184(6)
C88 C 1.1953(12) 0.8955(18) 0.4043(8)
H78 H 1.1560 0.8771 0.3992
H79 H 1.2097 0.9156 0.3848
H80 H 1.1979 0.9452 0.4197
O28 O 1.2084(14) 0.7455(17) 0.4185(6)
C89 C 1.2762(9) 0.7928(15) 0.3342(4)
H81 H 1.3136 0.7656 0.3374
H82 H 1.2495 0.7529 0.3429
H83 H 1.2771 0.8513 0.3450
C90 C 1.2585(7) 0.8060(11) 0.2993(4)
C91 C 1.2021(7) 0.8472(11) 0.2921(4)
H84 H 1.1921 0.8510 0.2690
H85 H 1.2025 0.9080 0.3013
H86 H 1.1745 0.8100 0.3013
O29 O 1.2862(7) 0.7824(8) 0.2798(3)
C92 C 1.0767(11) 0.5401(15) 0.1764(6)
H87 H 1.0600 0.5455 0.1962
H88 H 1.0674 0.5936 0.1632
H89 H 1.1176 0.5352 0.1813
C93 C 1.0547(11) 0.4590(18) 0.1591(5)
C94 C 1.0720(15) 0.433(3) 0.1281(6)
H90 H 1.0534 0.3769 0.1208
H91 H 1.1128 0.4247 0.1304
H92 H 1.0615 0.4811 0.1126
O30 O 1.0310(14) 0.4075(16) 0.1721(6)
C95 C 0.7821(10) 0.1520(15) 0.3412(4)
H93 H 0.8203 0.1763 0.3444
H94 H 0.7816 0.0921 0.3510
H95 H 0.7569 0.1924 0.3511
C96 C 0.7631(7) 0.1450(11) 0.3072(5)
C97 C 0.7055(7) 0.1076(13) 0.2987(4)
H96 H 0.6970 0.1038 0.2756
H97 H 0.6782 0.1472 0.3072
H98 H 0.7035 0.0472 0.3080
O31 O 0.7961(6) 0.1592(10) 0.2896(3)
loop_
_geom_bond_atom_site_label_1
_geom_bond_atom_site_label_2
_geom_bond_site_symmetry_1
_geom_bond_site_symmetry_2
Ag1 N1 1_555 1_555
Ag2 N3 1_555 1_555
Ag3 N5 1_555 1_555
Ag4 N7 1_555 1_555
Ag5 N9 1_555 1_555
Ag6 N11 1_555 1_555
Ag7 N20 1_555 1_555
N1 C1 1_555 1_555
C1 H1 1_555 1_555
C2 C1 1_555 1_555
H2 C2 1_555 1_555
C3 C2 1_555 1_555
C4 C3 1_555 1_555
H3 C4 1_555 1_555
C5 N1 1_555 1_555
H4 C5 1_555 1_555
N2 C3 1_555 1_555
C6 N2 1_555 1_555
H5 C6 1_555 1_555
H6 C6 1_555 1_555
H7 C6 1_555 1_555
C7 N2 1_555 1_555
O1 C7 1_555 1_555
N3 C8 1_555 1_555
C8 H8 1_555 1_555
C9 C8 1_555 1_555
H9 C9 1_555 1_555
C10 C9 1_555 1_555
C11 C10 1_555 1_555
H10 C11 1_555 1_555
C12 N3 1_555 1_555
H11 C12 1_555 1_555
N4 C10 1_555 1_555
C13 N4 1_555 1_555
H12 C13 1_555 1_555
H13 C13 1_555 1_555
H14 C13 1_555 1_555
C14 N4 1_555 1_555
O2 C14 1_555 1_555
N5 C15 1_555 1_555
C15 H15 1_555 1_555
C16 C15 1_555 1_555
H16 C16 1_555 1_555
C17 C16 1_555 1_555
C18 C17 1_555 1_555
H17 C18 1_555 1_555
C19 N5 1_555 1_555
H18 C19 1_555 1_555
N6 C17 1_555 1_555
C20 N6 1_555 1_555
H19 C20 1_555 1_555
H20 C20 1_555 1_555
H21 C20 1_555 1_555
C21 N6 1_555 1_555
O3 C21 1_555 1_555
N7 C22 1_555 1_555
C22 H22 1_555 1_555
C23 C22 1_555 1_555
H23 C23 1_555 1_555
C24 C23 1_555 1_555
C25 C24 1_555 1_555
H24 C25 1_555 1_555
C26 N7 1_555 1_555
H25 C26 1_555 1_555
N8 C24 1_555 1_555
C27 N8 1_555 1_555
H26 C27 1_555 1_555
H27 C27 1_555 1_555
H28 C27 1_555 1_555
C28 N8 1_555 1_555
O4 C28 1_555 1_555
N9 C29 1_555 1_555
C29 H29 1_555 1_555
C30 C29 1_555 1_555
H30 C30 1_555 1_555
C31 C30 1_555 1_555
C32 C31 1_555 1_555
H31 C32 1_555 1_555
C33 N9 1_555 1_555
H32 C33 1_555 1_555
N10 C31 1_555 1_555
C34 N10 1_555 1_555
H33 C34 1_555 1_555
H34 C34 1_555 1_555
H35 C34 1_555 1_555
C35 N10 1_555 1_555
O5 C35 1_555 1_555
N11 C36 1_555 1_555
C36 C37 1_555 1_555
C37 H36 1_555 1_555
C38 C37 1_555 1_555
H37 C38 1_555 1_555
C39 C38 1_555 1_555
H38 C39 1_555 1_555
C40 N11 1_555 1_555
N12 C41 1_555 1_555
C41 C14 1_555 1_555
C42 C41 1_555 1_555
H39 C42 1_555 1_555
C43 C42 1_555 1_555
H40 C43 1_555 1_555
C44 C43 1_555 1_555
H41 C44 1_555 1_555
C45 C7 1_555 1_555
N13 Ag2 1_555 1_555
C46 N13 1_555 1_555
H42 C46 1_555 1_555
C47 C46 1_555 1_555
H43 C47 1_555 1_555
C48 C47 1_555 1_555
C49 C48 1_555 1_555
H44 C49 1_555 1_555
C50 N13 1_555 1_555
H45 C50 1_555 1_555
N14 C48 1_555 1_555
C51 N14 1_555 1_555
H46 C51 1_555 1_555
H47 C51 1_555 1_555
H48 C51 1_555 1_555
C52 C40 1_555 1_555
O6 C52 1_555 1_555
N15 Ag1 1_555 1_555
C53 N15 1_555 1_555
H49 C53 1_555 1_555
C54 C53 1_555 1_555
H50 C54 1_555 1_555
C55 C54 1_555 1_555
C56 C55 1_555 1_555
H51 C56 1_555 1_555
C57 N15 1_555 1_555
H52 C57 1_555 1_555
N16 C55 1_555 1_555
C58 N16 1_555 1_555
H53 C58 1_555 1_555
H54 C58 1_555 1_555
H55 C58 1_555 1_555
C59 C36 1_555 1_555
O7 C59 1_555 1_555
N17 Ag3 1_555 1_555
C60 N17 1_555 1_555
H56 C60 1_555 1_555
C61 C60 1_555 1_555
H57 C61 1_555 1_555
C62 C61 1_555 1_555
C63 C62 1_555 1_555
H58 C63 1_555 1_555
C64 N17 1_555 1_555
H59 C64 1_555 1_555
N18 C62 1_555 1_555
C65 N18 1_555 1_555
H60 C65 1_555 1_555
H61 C65 1_555 1_555
H62 C65 1_555 1_555
C66 N18 1_555 1_555
O8 C66 1_555 1_555
N19 Ag6 1_555 1_555
C67 C66 1_555 1_555
C68 C67 1_555 1_555
H63 C68 1_555 1_555
C69 C68 1_555 1_555
H64 C69 1_555 1_555
C70 C69 1_555 1_555
H65 C70 1_555 1_555
C71 C28 1_555 1_555
N20 C72 1_555 1_555
C72 C35 1_555 1_555
C73 C72 1_555 1_555
H66 C73 1_555 1_555
C74 C73 1_555 1_555
H67 C74 1_555 1_555
C75 C74 1_555 1_555
H68 C75 1_555 1_555
C76 C21 1_555 1_555
O9 Ag6 1_555 1_555
O10 S1 1_555 1_555
O11 S1 1_555 1_555
S1 O9 1_555 1_555
C77 S1 1_555 1_555
F1 C77 1_555 1_555
F2 C77 1_555 1_555
F3 C77 1_555 1_555
O12 Ag7 1_555 1_555
O13 S2 1_555 1_555
O14 S2 1_555 1_555
S2 O12 1_555 1_555
C78 S2 1_555 1_555
F4 C78 1_555 1_555
F5 C78 1_555 1_555
F6 C78 1_555 1_555
O15 S3 1_555 1_555
O16 S3 1_555 1_555
O17 S3 1_555 1_555
S3 C79 1_555 1_555
C79 F7 1_555 1_555
F8 C79 1_555 1_555
F9 C79 1_555 1_555
O18 S4 1_555 1_555
O19 S4 1_555 1_555
O20 S4 1_555 1_555
S4 C80 1_555 1_555
C80 F10 1_555 1_555
F11 C80 1_555 1_555
F12 C80 1_555 1_555
O21 S5 1_555 1_555
O22 S5 1_555 1_555
O23 S5 1_555 1_555
S5 C81 1_555 1_555
C81 F13 1_555 1_555
F14 C81 1_555 1_555
F15 C81 1_555 1_555
O24 S6 1_555 1_555
O25 S6 1_555 1_555
O26 S6 1_555 1_555
S6 C82 1_555 1_555
C82 F16 1_555 1_555
F17 C82 1_555 1_555
F18 C82 1_555 1_555
C83 H69 1_555 1_555
H70 C83 1_555 1_555
H71 C83 1_555 1_555
C84 C83 1_555 1_555
C85 C84 1_555 1_555
H72 C85 1_555 1_555
H73 C85 1_555 1_555
H74 C85 1_555 1_555
O27 C84 1_555 1_555
C86 H75 1_555 1_555
H76 C86 1_555 1_555
H77 C86 1_555 1_555
C87 C86 1_555 1_555
C88 C87 1_555 1_555
H78 C88 1_555 1_555
H79 C88 1_555 1_555
H80 C88 1_555 1_555
O28 C87 1_555 1_555
C89 H81 1_555 1_555
H82 C89 1_555 1_555
H83 C89 1_555 1_555
C90 C89 1_555 1_555
C91 C90 1_555 1_555
H84 C91 1_555 1_555
H85 C91 1_555 1_555
H86 C91 1_555 1_555
O29 C90 1_555 1_555
C92 H87 1_555 1_555
H88 C92 1_555 1_555
H89 C92 1_555 1_555
C93 C92 1_555 1_555
C94 C93 1_555 1_555
H90 C94 1_555 1_555
H91 C94 1_555 1_555
H92 C94 1_555 1_555
O30 C93 1_555 1_555
C95 H93 1_555 1_555
H94 C95 1_555 1_555
H95 C95 1_555 1_555
C96 C95 1_555 1_555
C97 C96 1_555 1_555
H96 C97 1_555 1_555
H97 C97 1_555 1_555
H98 C97 1_555 1_555
O31 C96 1_555 1_555
Ag1B N1B 1_555 1_555
Ag1C N1C 1_555 1_555
Ag2B N3B 1_555 1_555
Ag2C N3C 1_555 1_555
Ag3B N5B 1_555 1_555
Ag5_2 N9B 1_555 1_555
Ag6B N11B 1_555 1_555
Ag7B N12A 1_555 1_555
Ag7C N12 1_555 1_555
N1C C1C 1_555 1_555
C1C H1C 1_555 1_555
C2C C1C 1_555 1_555
H2C C2C 1_555 1_555
C3C C2C 1_555 1_555
C4C C3C 1_555 1_555
H3C C4C 1_555 1_555
C5C N1C 1_555 1_555
H4C C5C 1_555 1_555
N2C C3C 1_555 1_555
C6C N2C 1_555 1_555
H5C C6C 1_555 1_555
H6C C6C 1_555 1_555
H7C C6C 1_555 1_555
C7C N2C 1_555 1_555
O1C C7C 1_555 1_555
N3C C8C 1_555 1_555
C8C H8C 1_555 1_555
C9C C8C 1_555 1_555
H9C C9C 1_555 1_555
C10C C9C 1_555 1_555
C11C C10C 1_555 1_555
H10C C11C 1_555 1_555
C12C N3C 1_555 1_555
H11C C12C 1_555 1_555
N4C C10C 1_555 1_555
C13C N4C 1_555 1_555
H12C C13C 1_555 1_555
H13C C13C 1_555 1_555
H14C C13C 1_555 1_555
C14C N4C 1_555 1_555
O2C C14C 1_555 1_555
N5B C15B 1_555 1_555
C15B H15B 1_555 1_555
C16B C15B 1_555 1_555
H16B C16B 1_555 1_555
C17B C16B 1_555 1_555
C18B C17B 1_555 1_555
H17B C18B 1_555 1_555
C19B N5B 1_555 1_555
H18B C19B 1_555 1_555
N6B C17B 1_555 1_555
C20B N6B 1_555 1_555
H19B C20B 1_555 1_555
H20B C20B 1_555 1_555
H21B C20B 1_555 1_555
C21B N6B 1_555 1_555
O3B C21B 1_555 1_555
N7B Ag4 1_555 1_555
C22B N7B 1_555 1_555
H22B C22B 1_555 1_555
C23B C22B 1_555 1_555
H23B C23B 1_555 1_555
C24B C23B 1_555 1_555
C25B C24B 1_555 1_555
H24B C25B 1_555 1_555
C26B N7B 1_555 1_555
H25B C26B 1_555 1_555
N8B C24B 1_555 1_555
C27B N8B 1_555 1_555
H26B C27B 1_555 1_555
H27B C27B 1_555 1_555
H28B C27B 1_555 1_555
C28B N8B 1_555 1_555
O4B C28B 1_555 1_555
N9B C29B 1_555 1_555
N9B_2 Ag5 1_555 1_555
C29B H29B 1_555 1_555
C30B C29B 1_555 1_555
H30B C30B 1_555 1_555
C31B C30B 1_555 1_555
C32B C31B 1_555 1_555
H31B C32B 1_555 1_555
C33B N9B 1_555 1_555
H32B C33B 1_555 1_555
N10B C31B 1_555 1_555
C34B N10B 1_555 1_555
H33B C34B 1_555 1_555
H34B C34B 1_555 1_555
H35B C34B 1_555 1_555
C35B N10B 1_555 1_555
O5B C35B 1_555 1_555
N11B C36B 1_555 1_555
C36B C37B 1_555 1_555
C37B H36B 1_555 1_555
C38B C37B 1_555 1_555
H37B C38B 1_555 1_555
C39B C38B 1_555 1_555
H38B C39B 1_555 1_555
C40B N11B 1_555 1_555
N12C Ag7 1_555 1_555
C41C C14C 1_555 1_555
C42C C41C 1_555 1_555
H39C C42C 1_555 1_555
C43C C42C 1_555 1_555
H40C C43C 1_555 1_555
C44C C43C 1_555 1_555
H41C C44C 1_555 1_555
C45C C7C 1_555 1_555
N13B Ag2B 1_555 1_555
C46B N13B 1_555 1_555
H42B C46B 1_555 1_555
C47B C46B 1_555 1_555
H43B C47B 1_555 1_555
C48B C47B 1_555 1_555
C49B C48B 1_555 1_555
H44B C49B 1_555 1_555
C50B N13B 1_555 1_555
H45B C50B 1_555 1_555
N14B C48B 1_555 1_555
C51B N14B 1_555 1_555
H46B C51B 1_555 1_555
H47B C51B 1_555 1_555
H48B C51B 1_555 1_555
C52B C40B 1_555 1_555
O6B C52B 1_555 1_555
N15B Ag1B 1_555 1_555
C53B N15B 1_555 1_555
H49B C53B 1_555 1_555
C54B C53B 1_555 1_555
H50B C54B 1_555 1_555
C55B C54B 1_555 1_555
C56B C55B 1_555 1_555
H51B C56B 1_555 1_555
C57B N15B 1_555 1_555
H52B C57B 1_555 1_555
N16B C55B 1_555 1_555
C58B N16B 1_555 1_555
H53B C58B 1_555 1_555
H54B C58B 1_555 1_555
H55B C58B 1_555 1_555
C59B C36B 1_555 1_555
O7B C59B 1_555 1_555
N17B Ag3B 1_555 1_555
C60B N17B 1_555 1_555
H56B C60B 1_555 1_555
C61B C60B 1_555 1_555
H57B C61B 1_555 1_555
C62B C61B 1_555 1_555
C63B C62B 1_555 1_555
H58B C63B 1_555 1_555
C64B N17B 1_555 1_555
H59B C64B 1_555 1_555
N18B C62B 1_555 1_555
C65B N18B 1_555 1_555
H60B C65B 1_555 1_555
H61B C65B 1_555 1_555
H62B C65B 1_555 1_555
C66B N18B 1_555 1_555
O8B C66B 1_555 1_555
N19B Ag6B 1_555 1_555
C67B C66B 1_555 1_555
C68B C67B 1_555 1_555
H63B C68B 1_555 1_555
C69B C68B 1_555 1_555
H64B C69B 1_555 1_555
C70B C69B 1_555 1_555
H65B C70B 1_555 1_555
C71B C28B 1_555 1_555
N20B Ag7B 1_555 1_555
C72B C35B 1_555 1_555
C73B C72B 1_555 1_555
H66B C73B 1_555 1_555
C74B C73B 1_555 1_555
H67B C74B 1_555 1_555
C75B C74B 1_555 1_555
H68B C75B 1_555 1_555
C76B C21B 1_555 1_555
O9B Ag6B 1_555 1_555
O10B S1B 1_555 1_555
O11B S1B 1_555 1_555
S1B O9B 1_555 1_555
C77B S1B 1_555 1_555
F1B C77B 1_555 1_555
F2B C77B 1_555 1_555
F3B C77B 1_555 1_555
O12B Ag7B 1_555 1_555
O13B S2B 1_555 1_555
O14B S2B 1_555 1_555
S2B O12B 1_555 1_555
C78B S2B 1_555 1_555
F4B C78B 1_555 1_555
F5B C78B 1_555 1_555
F6B C78B 1_555 1_555
C4 C5 1_555 1_555
C11 C12 1_555 1_555
C18 C19 1_555 1_555
C25 C26 1_555 1_555
C32 C33 1_555 1_555
C39 C40 1_555 1_555
N12 C45 1_555 1_555
C44 C45 1_555 1_555
C49 C50 1_555 1_555
N14 C52 1_555 1_555
C56 C57 1_555 1_555
N16 C59 1_555 1_555
C63 C64 1_555 1_555
N19 C67 1_555 1_555
N19 C71 1_555 1_555
C70 C71 1_555 1_555
N20 C76 1_555 1_555
C75 C76 1_555 1_555
C4C C5C 1_555 1_555
C11C C12C 1_555 1_555
C18B C19B 1_555 1_555
C25B C26B 1_555 1_555
C32B C33B 1_555 1_555
C39B C40B 1_555 1_555
N12C C41C 1_555 1_555
N12C C45C 1_555 1_555
C44C C45C 1_555 1_555
C49B C50B 1_555 1_555
N14B C52B 1_555 1_555
C56B C57B 1_555 1_555
N16B C59B 1_555 1_555
C63B C64B 1_555 1_555
N19B C67B 1_555 1_555
N19B C71B 1_555 1_555
C70B C71B 1_555 1_555
N20B C72B 1_555 1_555
N20B C76B 1_555 1_555
C75B C76B 1_555 1_555

#END
