
#######################################################################
#
#                 Cambridge Crystallographic Data Centre
#                                CCDC 
#
#######################################################################
#
# If this CIF has been generated from an entry in the Cambridge 
# Structural Database, then it will include bibliographic, chemical, 
# crystal, experimental, refinement or atomic coordinate data resulting 
# from the CCDC's data processing and validation procedures.
#
#######################################################################

data_PAVKAZ
_symmetry_cell_setting           triclinic
_symmetry_space_group_name_H-M   'P -1'
_symmetry_Int_Tables_number      2
_space_group_name_Hall           '-P 1'
loop_
_symmetry_equiv_pos_site_id
_symmetry_equiv_pos_as_xyz
1 x,y,z
2 -x,-y,-z
_cell_length_a                   11.225(2)
_cell_length_b                   11.237(2)
_cell_length_c                   12.435(3)
_cell_angle_alpha                95.87(3)
_cell_angle_beta                 103.14(3)
_cell_angle_gamma                118.47(3)
_cell_volume                     1301.43
loop_
_atom_site_label
_atom_site_type_symbol
_atom_site_fract_x
_atom_site_fract_y
_atom_site_fract_z
Zn1 Zn 0.19441(4) 0.21244(4) 0.26802(3)
Zn2 Zn 0.0000 0.0000 0.0000
Zn3 Zn 0.15493(4) -0.02981(4) -0.19290(4)
C1 C 0.4251(4) -0.0533(5) -0.1415(3)
H1 H 0.3743 -0.1307 -0.1148
C2 C 0.5639(5) -0.0146(5) -0.1409(4)
H2 H 0.6045 -0.0655 -0.1139
C3 C 0.6385(4) 0.0980(5) -0.1801(4)
H3 H 0.7314 0.1254 -0.1786
C4 C 0.5768(4) 0.1729(4) -0.2226(3)
C5 C 0.6467(5) 0.2923(5) -0.2673(4)
H4 H 0.7394 0.3235 -0.2682
C6 C 0.5822(5) 0.3595(5) -0.3075(4)
H5 H 0.6301 0.4357 -0.3365
C7 C 0.4391(4) 0.3157(4) -0.3065(3)
C8 C 0.3689(6) 0.3849(5) -0.3411(4)
H6 H 0.4125 0.4627 -0.3696
C9 C 0.2354(6) 0.3386(5) -0.3333(5)
H7 H 0.1884 0.3858 -0.3553
C10 C 0.1697(5) 0.2206(5) -0.2923(4)
H8 H 0.0775 0.1889 -0.2895
C11 C 0.3678(4) 0.1993(3) -0.2623(3)
C12 C 0.4369(4) 0.1272(4) -0.2204(3)
C13 C -0.1159(4) 0.3711(4) 0.4383(3)
H9 H -0.1943 0.2846 0.3961
C14 C -0.1358(4) 0.4662(4) 0.5011(3)
H10 H -0.2271 0.4422 0.5020
C15 C 0.0208(3) 0.4045(3) 0.4382(3)
C16 C 0.0385(4) 0.2960(3) 0.3745(3)
C17 C 0.3950(4) 0.5125(4) 0.0307(3)
H11 H 0.3245 0.5213 0.0515
C18 C 0.3997(3) 0.3917(3) 0.0336(3)
C19 C 0.4944(4) 0.6199(4) -0.0030(3)
H12 H 0.4902 0.7003 -0.0052
C20 C 0.2953(3) 0.2780(3) 0.0758(3)
C21 C 0.5450(4) 0.1151(4) 0.4553(3)
H13 H 0.5762 0.1927 0.4246
C22 C 0.4027(4) 0.0340(4) 0.4444(3)
C23 C 0.6425(4) 0.0815(4) 0.5119(4)
H14 H 0.7389 0.1377 0.5202
C24 C 0.2934(4) 0.0623(4) 0.3762(3)
C25 C 0.0541(4) -0.4558(4) -0.0867(3)
H15 H 0.0903 -0.4265 -0.1455
C26 C 0.0319(3) -0.3692(3) -0.0172(3)
C27 C 0.0230(4) -0.5851(4) -0.0692(3)
H16 H 0.0391 -0.6422 -0.1160
C28 C 0.0643(3) -0.2281(3) -0.0374(3)
N1 N 0.3641(3) 0.0166(3) -0.1788(2)
N2 N 0.2334(3) 0.1517(3) -0.2570(3)
O1 O -0.0633(3) 0.1731(2) 0.3462(2)
O2 O 0.1567(3) 0.3383(2) 0.3563(2)
O3 O 0.2759(3) 0.3221(3) 0.1646(2)
O4 O 0.2364(2) 0.1526(2) 0.0251(2)
O5 O 0.3391(3) 0.1840(3) 0.3611(2)
O6 O 0.1677(3) -0.0361(4) 0.3345(3)
O7 O 0.1247(3) -0.1875(3) -0.1112(2)
O8 O 0.0306(3) -0.1609(2) 0.0231(2)
O9 O 0.0200(2) 0.0379(2) 0.17067(17)
H17 H 0.0361 -0.0250 0.1919
Zn1A Zn 0.80559(4) 0.78756(4) -0.26802(3)
Zn1A_2 Zn -0.19441(4) 0.78756(4) 0.73198(3)
Zn1A_3 Zn 0.80559(4) -0.21244(4) 0.73198(3)
Zn1A_4 Zn -0.19441(4) -0.21244(4) -0.26802(3)
Zn2_2 Zn 1.0000 1.0000 0.0000
Zn2_3 Zn 0.0000 -1.0000 0.0000
Zn3A Zn -0.15493(4) -0.97019(4) 0.19290(4)
Zn3A_2 Zn -0.15493(4) 0.02981(4) 0.19290(4)
Zn3_2 Zn 0.15493(4) 0.97019(4) 0.80710(4)
C1A C -0.4251(4) -0.9467(5) 0.1415(3)
H1A H -0.3743 -0.8693 0.1148
C2A C -0.5639(5) -0.9854(5) 0.1409(4)
H2A H -0.6045 -0.9345 0.1139
C3A C -0.6385(4) -1.0980(5) 0.1801(4)
H3A H -0.7314 -1.1254 0.1786
C4A C -0.5768(4) -1.1729(4) 0.2226(3)
C5A C -0.6467(5) -1.2923(5) 0.2673(4)
H4A H -0.7394 -1.3235 0.2682
C6A C -0.5822(5) -1.3595(5) 0.3075(4)
H5A H -0.6301 -1.4357 0.3365
C7A C -0.4391(4) -1.3157(4) 0.3065(3)
C8A C -0.3689(6) -1.3849(5) 0.3411(4)
H6A H -0.4125 -1.4627 0.3696
C9A C -0.2354(6) -1.3386(5) 0.3333(5)
H7A H -0.1884 -1.3858 0.3553
C10A C -0.1697(5) -1.2206(5) 0.2923(4)
H8A H -0.0775 -1.1889 0.2895
C11A C -0.3678(4) -1.1993(3) 0.2623(3)
C12A C -0.4369(4) -1.1272(4) 0.2204(3)
C13A C 0.1159(4) 0.6289(4) 0.5617(3)
H9A H 0.1943 0.7154 0.6039
C14A C 0.1358(4) 0.5338(4) 0.4989(3)
H10A H 0.2271 0.5578 0.4980
C15A C -0.0208(3) 0.5955(3) 0.5618(3)
C16A C -0.0385(4) 0.7040(3) 0.6255(3)
C17A C 0.6050(4) 0.4875(4) -0.0307(3)
H11A H 0.6755 0.4787 -0.0515
C18A C 0.6003(3) 0.6083(3) -0.0336(3)
C19A C 0.5056(4) 0.3801(4) 0.0030(3)
H12A H 0.5098 0.2997 0.0052
C20A C 0.7047(3) 0.7220(3) -0.0758(3)
C21A C 0.4550(4) -0.1151(4) 0.5447(3)
H13A H 0.4238 -0.1927 0.5754
C22A C 0.5973(4) -0.0340(4) 0.5556(3)
C23A C 0.3575(4) -0.0815(4) 0.4881(4)
H14A H 0.2611 -0.1377 0.4798
C24A C 0.7066(4) -0.0623(4) 0.6238(3)
C25A C -0.0541(4) -0.5442(4) 0.0867(3)
H15A H -0.0903 -0.5735 0.1455
C26A C -0.0319(3) -0.6308(3) 0.0172(3)
C27A C -0.0230(4) -0.4149(4) 0.0692(3)
H16A H -0.0391 -0.3578 0.1160
C28A C -0.0643(3) -0.7719(3) 0.0374(3)
N1A N -0.3641(3) -1.0166(3) 0.1788(2)
N2A N -0.2334(3) -1.1517(3) 0.2570(3)
O1A O 0.0633(3) 0.8269(2) 0.6538(2)
O1A_2 O 0.0633(3) -0.1731(2) -0.3462(2)
O1_2 O -0.0633(3) -0.8269(2) 0.3462(2)
O2A O -0.1567(3) 0.6617(2) 0.6437(2)
O2A_2 O 0.8433(3) 0.6617(2) -0.3563(2)
O3A O 0.7241(3) 0.6779(3) -0.1646(2)
O4A O 0.7636(2) 0.8474(2) -0.0251(2)
O4A_2 O -0.2364(2) -0.1526(2) -0.0251(2)
O5A O 0.6609(3) -0.1840(3) 0.6389(2)
O5A_2 O 0.6609(3) 0.8160(3) -0.3611(2)
O6A O 0.8323(3) 0.0361(4) 0.6655(3)
O7A O -0.1247(3) -0.8125(3) 0.1112(2)
O8A O -0.0306(3) -0.8391(2) -0.0231(2)
O8A_2 O -0.0306(3) 0.1609(2) -0.0231(2)
O9A O -0.0200(2) -0.0379(2) -0.17067(17)
O9A_2 O 0.9800(2) 0.9621(2) -0.17067(17)
O9_2 O 0.0200(2) -0.9621(2) 0.17067(17)
H17A H -0.0361 0.0250 -0.1919
H17A_2 H 0.9639 1.0250 -0.1919
H17_2 H 0.0361 -1.0250 0.1919
loop_
_geom_bond_atom_site_label_1
_geom_bond_atom_site_label_2
_geom_bond_site_symmetry_1
_geom_bond_site_symmetry_2
Zn1 O2 1_555 1_555
Zn2 O4 1_555 1_555
Zn3 N1 1_555 1_555
C1 H1 1_555 1_555
C2 C1 1_555 1_555
H2 C2 1_555 1_555
C3 C2 1_555 1_555
H3 C3 1_555 1_555
C4 C3 1_555 1_555
C5 C4 1_555 1_555
H4 C5 1_555 1_555
C6 C5 1_555 1_555
H5 C6 1_555 1_555
C7 C6 1_555 1_555
C8 C7 1_555 1_555
H6 C8 1_555 1_555
C9 C8 1_555 1_555
H7 C9 1_555 1_555
C10 C9 1_555 1_555
H8 C10 1_555 1_555
C11 C7 1_555 1_555
C12 C4 1_555 1_555
C13 H9 1_555 1_555
C14 C13 1_555 1_555
H10 C14 1_555 1_555
C15 C13 1_555 1_555
C16 C15 1_555 1_555
C17 H11 1_555 1_555
C18 C17 1_555 1_555
C19 C17 1_555 1_555
H12 C19 1_555 1_555
C20 C18 1_555 1_555
C21 H13 1_555 1_555
C22 C21 1_555 1_555
C23 C21 1_555 1_555
H14 C23 1_555 1_555
C24 C22 1_555 1_555
C25 H15 1_555 1_555
C26 C25 1_555 1_555
C27 C25 1_555 1_555
H16 C27 1_555 1_555
C28 C26 1_555 1_555
N1 C1 1_555 1_555
N2 Zn3 1_555 1_555
O1 C16 1_555 1_555
O2 C16 1_555 1_555
O3 Zn1 1_555 1_555
O4 C20 1_555 1_555
O5 Zn1 1_555 1_555
O6 C24 1_555 1_555
O7 Zn3 1_555 1_555
O8 Zn2 1_555 1_555
O9 Zn1 1_555 1_555
H17 O9 1_555 1_555
Zn1A O2A_2 1_555 1_555
Zn1A_2 O2A 1_555 1_555
Zn1A_3 O5A 1_555 1_555
Zn1A_4 O9A 1_555 1_555
Zn2_2 O4A 1_555 1_555
Zn2_3 O8A 1_555 1_555
Zn3A N1A 1_555 1_555
Zn3A_2 O1 1_555 1_555
Zn3_2 O1A 1_555 1_555
C1A H1A 1_555 1_555
C2A C1A 1_555 1_555
H2A C2A 1_555 1_555
C3A C2A 1_555 1_555
H3A C3A 1_555 1_555
C4A C3A 1_555 1_555
C5A C4A 1_555 1_555
H4A C5A 1_555 1_555
C6A C5A 1_555 1_555
H5A C6A 1_555 1_555
C7A C6A 1_555 1_555
C8A C7A 1_555 1_555
H6A C8A 1_555 1_555
C9A C8A 1_555 1_555
H7A C9A 1_555 1_555
C10A C9A 1_555 1_555
H8A C10A 1_555 1_555
C11A C7A 1_555 1_555
C12A C4A 1_555 1_555
C13A H9A 1_555 1_555
C14A C15 1_555 1_555
H10A C14A 1_555 1_555
C15A C14 1_555 1_555
C16A C15A 1_555 1_555
C17A H11A 1_555 1_555
C18A C19 1_555 1_555
C19A C18 1_555 1_555
H12A C19A 1_555 1_555
C20A C18A 1_555 1_555
C21A H13A 1_555 1_555
C22A C23 1_555 1_555
C23A C22 1_555 1_555
H14A C23A 1_555 1_555
C24A C22A 1_555 1_555
C25A H15A 1_555 1_555
C26A C27 1_555 1_555
C27A C26 1_555 1_555
H16A C27A 1_555 1_555
C28A C26A 1_555 1_555
N1A C1A 1_555 1_555
N2A Zn3A 1_555 1_555
O1A C16A 1_555 1_555
O1A_2 Zn3 1_555 1_555
O1_2 Zn3A 1_555 1_555
O2A C16A 1_555 1_555
O3A Zn1A 1_555 1_555
O4A C20A 1_555 1_555
O4A_2 Zn2 1_555 1_555
O5A C24A 1_555 1_555
O5A_2 Zn1A 1_555 1_555
O6A C24A 1_555 1_555
O7A Zn3A 1_555 1_555
O8A C28A 1_555 1_555
O8A_2 Zn2 1_555 1_555
O9A Zn2 1_555 1_555
O9A_2 Zn1A 1_555 1_555
O9_2 Zn2_3 1_555 1_555
H17A O9A 1_555 1_555
H17A_2 O9A_2 1_555 1_555
H17_2 O9_2 1_555 1_555
Zn2 O9 1_555 1_555
Zn3 O9A 1_555 1_555
C10 N2 1_555 1_555
C11 C12 1_555 1_555
C11 N2 1_555 1_555
C12 N1 1_555 1_555
C20 O3 1_555 1_555
C24 O5 1_555 1_555
C28 O7 1_555 1_555
C28 O8 1_555 1_555
O9 Zn3A_2 1_555 1_555
Zn2_2 O9A_2 1_555 1_555
Zn3A O9_2 1_555 1_555
C10A N2A 1_555 1_555
C11A C12A 1_555 1_555
C11A N2A 1_555 1_555
C12A N1A 1_555 1_555
C13A C14A 1_555 1_555
C13A C15A 1_555 1_555
C17A C18A 1_555 1_555
C17A C19A 1_555 1_555
C20A O3A 1_555 1_555
C21A C22A 1_555 1_555
C21A C23A 1_555 1_555
C25A C26A 1_555 1_555
C25A C27A 1_555 1_555
C28A O7A 1_555 1_555

#END
