
#######################################################################
#
#                 Cambridge Crystallographic Data Centre
#                                CCDC 
#
#######################################################################
#
# If this CIF has been generated from an entry in the Cambridge 
# Structural Database, then it will include bibliographic, chemical, 
# crystal, experimental, refinement or atomic coordinate data resulting 
# from the CCDC's data processing and validation procedures.
#
#######################################################################

data_PAVKAZ01
_symmetry_cell_setting           triclinic
_symmetry_space_group_name_H-M   'P -1'
_symmetry_Int_Tables_number      2
_space_group_name_Hall           '-P 1'
loop_
_symmetry_equiv_pos_site_id
_symmetry_equiv_pos_as_xyz
1 x,y,z
2 -x,-y,-z
_cell_length_a                   11.1992(7)
_cell_length_b                   11.5934(7)
_cell_length_c                   11.8651(7)
_cell_angle_alpha                99.330(1)
_cell_angle_beta                 111.506(1)
_cell_angle_gamma                104.804(1)
_cell_volume                     1328.49
loop_
_atom_site_label
_atom_site_type_symbol
_atom_site_fract_x
_atom_site_fract_y
_atom_site_fract_z
Zn1 Zn 0.3828(1) 0.5390(1) 0.0107(1)
Zn2 Zn 0.6959(1) 0.7477(1) 0.2188(1)
Zn3 Zn 1.0000 1.0000 0.5000
O1 O 0.5856(4) 0.6218(4) 0.0514(4)
O2 O 0.4195(6) 0.5472(5) 0.1891(5)
O3 O 0.7757(6) 0.6444(5) 0.3130(5)
O4 O 0.7745(6) 0.9505(7) 0.4227(6)
O5 O 0.7959(6) 0.8574(5) 0.1494(5)
O6 O 0.5796(5) 0.8263(5) 0.2683(5)
O7 O 0.9916(6) 0.9924(6) 0.3034(5)
N1 N 0.1657(6) 0.4627(6) -0.0678(6)
N2 N 0.3270(7) 0.6788(6) -0.0691(6)
C1 C 0.4103(10) 0.7834(8) -0.0705(9)
C2 C -0.0120(12) 0.6944(12) -0.2514(9)
C3 C -0.0910(10) 0.5901(13) -0.2487(9)
C4 C -0.0550(10) 0.3187(10) -0.1244(10)
C5 C 0.3581(13) 0.8638(10) -0.1378(11)
C6 C 0.0892(8) 0.3579(8) -0.0667(9)
C7 C 0.1315(10) 0.7311(9) -0.1925(8)
C8 C -0.1169(10) 0.3916(12) -0.1825(10)
C9 C 0.2226(14) 0.8378(10) -0.1951(10)
C10 C 0.1909(8) 0.6513(7) -0.1285(7)
C11 C 0.1044(7) 0.5363(8) -0.1279(6)
C12 C 0.9484(8) 0.5870(7) 0.4514(7)
C13 C 0.8941(8) 0.6833(7) 0.4016(7)
C14 C 0.4314(7) 0.4560(7) 0.2323(6)
C15 C 0.8585(9) 0.4709(7) 0.4346(7)
C16 C 1.0895(8) 0.6149(7) 0.5161(8)
C17 C -0.0392(8) 0.5049(9) -0.1890(8)
C18 C 0.9136(7) 0.9379(6) 0.1904(6)
C19 C 0.6416(8) 1.0403(9) 0.5575(8)
C20 C 0.4657(9) 0.3817(7) 0.4262(7)
C21 C 0.5705(7) 0.9577(7) 0.4377(7)
C22 C 1.0916(8) 1.0442(7) 0.1257(7)
C23 C 0.6474(7) 0.9097(6) 0.3708(7)
C24 C 0.4677(7) 0.4791(7) 0.3720(6)
C25 C 0.5029(9) 0.5979(7) 0.4478(7)
C26 C 0.9589(7) 0.9707(6) 0.0916(7)
C27 C 0.4310(8) 0.9191(9) 0.3801(9)
C28 C 0.8652(8) 0.9265(7) -0.0354(7)
O8 O 0.4119(7) 0.3503(5) 0.1695(5)
O9 O 0.9688(7) 0.7950(5) 0.4510(7)
H1 H 0.504(12) 0.804(10) -0.027(11)
H2 H -0.052(13) 0.745(12) -0.293(12)
H3 H -0.185(14) 0.571(12) -0.288(13)
H4 H -0.107(13) 0.243(12) -0.122(12)
H5 H 0.417(13) 0.934(13) -0.142(13)
H6 H 0.131(11) 0.307(10) -0.026(10)
H7 H -0.212(14) 0.367(12) -0.219(13)
H8 H 0.189(13) 0.891(12) -0.237(13)
H9 H 0.765(10) 0.4510(90) 0.3910(90)
H10 H 1.149(10) 0.692(10) 0.5260(90)
H11 H 0.737(12) 1.069(10) 0.596(11)
H12 H 0.443(10) 0.302(10) 0.376(10)
H13 H 1.153(10) 1.0750(90) 0.211(10)
H14 H 0.505(10) 0.6640(90) 0.413(10)
H15 H 0.384(11) 0.865(10) 0.299(11)
H16 H 0.775(10) 0.8780(90) -0.0590(90)
Zn1A Zn 1.6172(1) 0.4610(1) 0.9893(1)
Zn1A_2 Zn 0.6172(1) 0.4610(1) -0.0107(1)
Zn1A_3 Zn 0.6172(1) 0.4610(1) 0.9893(1)
Zn1_2 Zn 1.3828(1) 0.5390(1) 1.0107(1)
Zn2A Zn 1.3041(1) 0.2523(1) 0.7812(1)
Zn2A_2 Zn 0.3041(1) 1.2523(1) 0.7812(1)
Zn2A_3 Zn 1.3041(1) 1.2523(1) -0.2188(1)
Zn3_2 Zn 1.0000 0.0000 0.5000
Zn3_3 Zn 0.0000 1.0000 0.5000
Zn3_4 Zn 1.0000 1.0000 -0.5000
O1A O 1.4144(4) 0.3782(4) 0.9486(4)
O1A_2 O 0.4144(4) 0.3782(4) -0.0514(4)
O1_2 O 1.5856(4) 0.6218(4) 1.0514(4)
O2A O 0.5805(6) 0.4528(5) 0.8109(5)
O2A_2 O 1.5805(6) 0.4528(5) 0.8109(5)
O3A O 1.2243(6) 0.3556(5) 0.6870(5)
O4A O 0.2255(6) 1.0495(7) 0.5773(6)
O4A_2 O 1.2255(6) 1.0495(7) 0.5773(6)
O5A O 1.2041(6) 1.1426(5) -0.1494(5)
O5A_2 O 1.2041(6) 0.1426(5) 0.8506(5)
O6A O 0.4204(5) 1.1737(5) 0.7317(5)
O6A_2 O 1.4204(5) 0.1737(5) 0.7317(5)
O7A O 1.0084(6) 1.0076(6) -0.3034(5)
O7A_2 O 1.0084(6) 1.0076(6) 0.6966(5)
N1A N 1.8343(6) 0.5373(6) 1.0678(6)
N2A N 1.6730(7) 0.3212(6) 1.0691(6)
C1A C 1.5897(10) 0.2166(8) 1.0705(9)
C2A C 2.0120(12) 0.3056(12) 1.2514(9)
C3A C 2.0910(10) 0.4099(13) 1.2487(9)
C4A C 2.0550(10) 0.6813(10) 1.1244(10)
C5A C 1.6419(13) 0.1362(10) 1.1378(11)
C6A C 1.9108(8) 0.6421(8) 1.0667(9)
C7A C 1.8685(10) 0.2689(9) 1.1925(8)
C8A C 2.1169(10) 0.6084(12) 1.1825(10)
C9A C 1.7774(14) 0.1622(10) 1.1951(10)
C10A C 1.8091(8) 0.3487(7) 1.1285(7)
C11A C 1.8956(7) 0.4637(8) 1.1279(6)
C12A C 1.0516(8) 0.4130(7) 0.5486(7)
C13A C 1.1059(8) 0.3167(7) 0.5984(7)
C14A C 0.5686(7) 0.5440(7) 0.7677(6)
C15A C 1.1415(9) 0.5291(7) 0.5654(7)
C16A C 0.9105(8) 0.3851(7) 0.4839(8)
C17A C 2.0392(8) 0.4951(9) 1.1890(8)
C18A C 1.0864(7) 1.0621(6) -0.1904(6)
C19A C 0.3584(8) 0.9597(9) 0.4425(8)
C20A C 0.5343(9) 0.6183(7) 0.5738(7)
C21A C 0.4295(7) 1.0423(7) 0.5623(7)
C22A C 0.9084(8) 0.9558(7) -0.1257(7)
C23A C 0.3526(7) 1.0903(6) 0.6292(7)
C24A C 0.5323(7) 0.5209(7) 0.6280(6)
C25A C 0.4971(9) 0.4021(7) 0.5522(7)
C26A C 1.0411(7) 1.0293(6) -0.0916(7)
C27A C 0.5690(8) 1.0809(9) 0.6199(9)
C28A C 1.1348(8) 1.0735(7) 0.0354(7)
O8A O 0.5881(7) 0.6497(5) 0.8305(5)
O9A O 1.0312(7) 0.2050(5) 0.5490(7)
O9A_2 O 1.0312(7) 1.2050(5) 0.5490(7)
H1A H 1.496(12) 0.196(10) 1.027(11)
H2A H 2.052(13) 0.255(12) 1.293(12)
H3A H 2.185(14) 0.429(12) 1.288(13)
H4A H 2.107(13) 0.757(12) 1.122(12)
H5A H 1.583(13) 0.066(13) 1.142(13)
H6A H 1.869(11) 0.693(10) 1.026(10)
H7A H 2.212(14) 0.633(12) 1.219(13)
H8A H 1.811(13) 0.109(12) 1.237(13)
H9A H 1.235(10) 0.5490(90) 0.6090(90)
H10A H 0.851(10) 0.308(10) 0.4740(90)
H11A H 0.263(12) 0.931(10) 0.404(11)
H12A H 0.557(10) 0.698(10) 0.624(10)
H13A H 0.847(10) 0.9250(90) -0.211(10)
H14A H 0.495(10) 0.3360(90) 0.587(10)
H15A H 0.616(11) 1.135(10) 0.701(11)
H16A H 1.225(10) 1.1220(90) 0.0590(90)
loop_
_geom_bond_atom_site_label_1
_geom_bond_atom_site_label_2
_geom_bond_site_symmetry_1
_geom_bond_site_symmetry_2
Zn1 O1 1_555 1_555
Zn2 O1 1_555 1_555
Zn3 O4 1_555 1_555
O1 Zn1A_2 1_555 1_555
O2 Zn1 1_555 1_555
O3 Zn2 1_555 1_555
O4 C23 1_555 1_555
O5 Zn2 1_555 1_555
O6 Zn2 1_555 1_555
O7 Zn3 1_555 1_555
N1 Zn1 1_555 1_555
N2 Zn1 1_555 1_555
C1 N2 1_555 1_555
C2 C3 1_555 1_555
C3 C17 1_555 1_555
C4 C6 1_555 1_555
C5 C1 1_555 1_555
C6 N1 1_555 1_555
C7 C2 1_555 1_555
C8 C4 1_555 1_555
C9 C5 1_555 1_555
C10 N2 1_555 1_555
C11 N1 1_555 1_555
C12 C13 1_555 1_555
C13 O3 1_555 1_555
C14 O2 1_555 1_555
C15 C12 1_555 1_555
C16 C12 1_555 1_555
C17 C8 1_555 1_555
C18 O5 1_555 1_555
C19 C21 1_555 1_555
C20 C24 1_555 1_555
C21 C23 1_555 1_555
C22 C26 1_555 1_555
C23 O6 1_555 1_555
C24 C14 1_555 1_555
C25 C24 1_555 1_555
C26 C18 1_555 1_555
C27 C21 1_555 1_555
C28 C26 1_555 1_555
O8 C14 1_555 1_555
O9 Zn3 1_555 1_555
H1 C1 1_555 1_555
H2 C2 1_555 1_555
H3 C3 1_555 1_555
H4 C4 1_555 1_555
H5 C5 1_555 1_555
H6 C6 1_555 1_555
H7 C8 1_555 1_555
H8 C9 1_555 1_555
H9 C15 1_555 1_555
H10 C16 1_555 1_555
H11 C19 1_555 1_555
H12 C20 1_555 1_555
H13 C22 1_555 1_555
H14 C25 1_555 1_555
H15 C27 1_555 1_555
H16 C28 1_555 1_555
Zn1A O1A 1_555 1_555
Zn1A_2 O1A_2 1_555 1_555
Zn1A_3 O2A 1_555 1_555
Zn1_2 O1A 1_555 1_555
Zn2A O1A 1_555 1_555
Zn2A_2 O6A 1_555 1_555
Zn2A_3 O5A 1_555 1_555
Zn3_2 O9A 1_555 1_555
Zn3_3 O4A 1_555 1_555
Zn3_4 O7A 1_555 1_555
O1A_2 Zn1 1_555 1_555
O1_2 Zn1A 1_555 1_555
O2A C14A 1_555 1_555
O2A_2 Zn1A 1_555 1_555
O3A Zn2A 1_555 1_555
O4A C23A 1_555 1_555
O4A_2 Zn3 1_555 1_555
O5A C18A 1_555 1_555
O5A_2 Zn2A 1_555 1_555
O6A C23A 1_555 1_555
O6A_2 Zn2A 1_555 1_555
O7A C18A 1_555 1_555
O7A_2 Zn3 1_555 1_555
N1A Zn1A 1_555 1_555
N2A Zn1A 1_555 1_555
C1A N2A 1_555 1_555
C2A C3A 1_555 1_555
C3A C17A 1_555 1_555
C4A C6A 1_555 1_555
C5A C1A 1_555 1_555
C6A N1A 1_555 1_555
C7A C2A 1_555 1_555
C8A C4A 1_555 1_555
C9A C5A 1_555 1_555
C10A N2A 1_555 1_555
C11A N1A 1_555 1_555
C12A C13A 1_555 1_555
C13A O3A 1_555 1_555
C14A C24A 1_555 1_555
C15A C16 1_555 1_555
C16A C15 1_555 1_555
C17A C8A 1_555 1_555
C18A C26A 1_555 1_555
C19A C27 1_555 1_555
C20A C25 1_555 1_555
C21A C19A 1_555 1_555
C22A C28 1_555 1_555
C23A C21A 1_555 1_555
C24A C20A 1_555 1_555
C25A C20 1_555 1_555
C26A C22A 1_555 1_555
C27A C19 1_555 1_555
C28A C22 1_555 1_555
O8A C14A 1_555 1_555
O9A C13A 1_555 1_555
O9A_2 Zn3 1_555 1_555
H1A C1A 1_555 1_555
H2A C2A 1_555 1_555
H3A C3A 1_555 1_555
H4A C4A 1_555 1_555
H5A C5A 1_555 1_555
H6A C6A 1_555 1_555
H7A C8A 1_555 1_555
H8A C9A 1_555 1_555
H9A C15A 1_555 1_555
H10A C16A 1_555 1_555
H11A C19A 1_555 1_555
H12A C20A 1_555 1_555
H13A C22A 1_555 1_555
H14A C25A 1_555 1_555
H15A C27A 1_555 1_555
H16A C28A 1_555 1_555
O7 C18 1_555 1_555
C7 C9 1_555 1_555
C7 C10 1_555 1_555
C10 C11 1_555 1_555
C11 C17 1_555 1_555
C13 O9 1_555 1_555
Zn1_2 O1_2 1_555 1_555
C7A C9A 1_555 1_555
C7A C10A 1_555 1_555
C10A C11A 1_555 1_555
C11A C17A 1_555 1_555
C12A C15A 1_555 1_555
C12A C16A 1_555 1_555
C21A C27A 1_555 1_555
C24A C25A 1_555 1_555
C26A C28A 1_555 1_555

#END
