
#######################################################################
#
#                 Cambridge Crystallographic Data Centre
#                                CCDC 
#
#######################################################################
#
# If this CIF has been generated from an entry in the Cambridge 
# Structural Database, then it will include bibliographic, chemical, 
# crystal, experimental, refinement or atomic coordinate data resulting 
# from the CCDC's data processing and validation procedures.
#
#######################################################################

data_PAVLEE
_symmetry_cell_setting           orthorhombic
_symmetry_space_group_name_H-M   'P n n m'
_symmetry_Int_Tables_number      58
_space_group_name_Hall           '-P 2 2n'
loop_
_symmetry_equiv_pos_site_id
_symmetry_equiv_pos_as_xyz
1 x,y,z
2 -x,-y,z
3 1/2-x,1/2+y,1/2-z
4 1/2+x,1/2-y,1/2-z
5 -x,-y,-z
6 x,y,-z
7 1/2+x,1/2-y,1/2+z
8 1/2-x,1/2+y,1/2+z
_cell_length_a                   10.7833(7)
_cell_length_b                   10.9040(7)
_cell_length_c                   14.0624(9)
_cell_angle_alpha                90
_cell_angle_beta                 90
_cell_angle_gamma                90
_cell_volume                     1653.47
loop_
_atom_site_label
_atom_site_type_symbol
_atom_site_fract_x
_atom_site_fract_y
_atom_site_fract_z
Ag1 Ag 0.0000 0.5000 0.18916(2)
O1 O 0.2504(2) 0.7594(2) 0.5000
C1 C 0.1823(3) 0.6880(3) 0.31222(19)
H1 H 0.1333 0.6622 0.3629
C2 C 0.3017(2) 0.8183(2) 0.42501(18)
C3 C 0.2722(2) 0.7725(3) 0.32863(18)
N1 N 0.1614(2) 0.6407(2) 0.22669(16)
N2 N 0.3746(2) 0.9050(2) 0.45023(15)
N3 N 0.3441(2) 0.8153(2) 0.25769(18)
C4 C 0.3229(4) 0.7664(4) 0.1730(2)
H2 H 0.3705 0.7925 0.1217
C5 C 0.2349(3) 0.6800(3) 0.1578(2)
H3 H 0.2259 0.6473 0.0971
Ag1E Ag 0.0000 0.5000 0.81084(2)
Ag1B Ag 0.5000 1.0000 0.31084(2)
Ag1F Ag 0.5000 1.0000 0.68916(2)
Ag1B_2 Ag -0.5000 0.0000 0.31084(2)
Ag1F_2 Ag -0.5000 0.0000 0.68916(2)
O1D O -0.2504(2) 0.2406(2) 0.5000
C1E C 0.1823(3) 0.6880(3) 0.68778(19)
C1A C -0.1823(3) 0.3120(3) 0.31222(19)
C1D C -0.1823(3) 0.3120(3) 0.68778(19)
H1E H 0.1333 0.6622 0.6371
H1A H -0.1333 0.3378 0.3629
H1D H -0.1333 0.3378 0.6371
C2E C 0.3017(2) 0.8183(2) 0.57499(18)
C2A C -0.3017(2) 0.1817(2) 0.42501(18)
C2D C -0.3017(2) 0.1817(2) 0.57499(18)
C3E C 0.2722(2) 0.7725(3) 0.67137(18)
C3A C -0.2722(2) 0.2275(3) 0.32863(18)
C3D C -0.2722(2) 0.2275(3) 0.67137(18)
N1E N 0.1614(2) 0.6407(2) 0.77331(16)
N1A N -0.1614(2) 0.3593(2) 0.22669(16)
N1D N -0.1614(2) 0.3593(2) 0.77331(16)
N2E N 0.3746(2) 0.9050(2) 0.54977(15)
N2A N -0.3746(2) 0.0950(2) 0.45023(15)
N2D N -0.3746(2) 0.0950(2) 0.54977(15)
N2B N 0.1254(2) 0.4050(2) 0.04977(15)
N2C N -0.1254(2) 0.5950(2) 0.04977(15)
N2F N -0.1254(2) 0.5950(2) 0.95023(15)
N2G N 0.1254(2) 0.4050(2) 0.95023(15)
N3E N 0.3441(2) 0.8153(2) 0.74231(18)
N3A N -0.3441(2) 0.1847(2) 0.25769(18)
N3D N -0.3441(2) 0.1847(2) 0.74231(18)
N3B N 0.1559(2) 0.3153(2) 0.24231(18)
N3C N -0.1559(2) 0.6847(2) 0.24231(18)
N3F N -0.1559(2) 0.6847(2) 0.75769(18)
N3G N 0.1559(2) 0.3153(2) 0.75769(18)
C4E C 0.3229(4) 0.7664(4) 0.8270(2)
C4A C -0.3229(4) 0.2336(4) 0.1730(2)
C4D C -0.3229(4) 0.2336(4) 0.8270(2)
H2E H 0.3705 0.7925 0.8783
H2A H -0.3705 0.2075 0.1217
H2D H -0.3705 0.2075 0.8783
C5E C 0.2349(3) 0.6800(3) 0.8422(2)
C5A C -0.2349(3) 0.3200(3) 0.1578(2)
C5D C -0.2349(3) 0.3200(3) 0.8422(2)
H3E H 0.2259 0.6473 0.9029
H3A H -0.2259 0.3527 0.0971
H3D H -0.2259 0.3527 0.9029
B2 B 0.5000 0.5000 0.0000
F6 F 0.435(4) 0.448(3) 0.074(2)
F6E F 0.435(4) 0.448(3) -0.074(2)
F6D F 0.565(4) 0.552(3) -0.074(2)
F6A F 0.565(4) 0.552(3) 0.074(2)
O2 O 0.5398(3) 0.6314(4) 0.5000
O3 O 0.5000 0.5000 0.3231(8)
B1? B 0.0317(17) 0.5261(17) 0.5000
F1? F 0.0070(18) 0.6481(14) 0.5000
F2? F 0.0000 0.5000 0.5975(8)
F3? F 0.1544(15) 0.497(2) 0.5000
F4? F -0.038(3) 0.459(3) 0.4431(18)
F5? F 0.3765(13) 0.523(4) 0.0000
F7? F 0.449(6) 0.615(3) 0.0000
loop_
_geom_bond_atom_site_label_1
_geom_bond_atom_site_label_2
_geom_bond_site_symmetry_1
_geom_bond_site_symmetry_2
Ag1 N1 1_555 1_555
O1 C2 1_555 1_555
C1 H1 1_555 1_555
C2 C3 1_555 1_555
C3 C1 1_555 1_555
N1 C1 1_555 1_555
N2 C2 1_555 1_555
N3 C3 1_555 1_555
C4 N3 1_555 1_555
H2 C4 1_555 1_555
C5 N1 1_555 1_555
H3 C5 1_555 1_555
B2 F6 1_555 1_555
Ag1E N1E 1_555 1_555
Ag1B N2 1_555 1_555
Ag1F N2E 1_555 1_555
Ag1B_2 N2A 1_555 1_555
Ag1F_2 N2D 1_555 1_555
O1D C2A 1_555 1_555
C1E H1E 1_555 1_555
C1A H1A 1_555 1_555
C1D H1D 1_555 1_555
C2E O1 1_555 1_555
C2A C3A 1_555 1_555
C2D O1D 1_555 1_555
C3E C1E 1_555 1_555
C3A C1A 1_555 1_555
C3D C1D 1_555 1_555
N1E C1E 1_555 1_555
N1A Ag1 1_555 1_555
N1D Ag1E 1_555 1_555
N2E N2 1_555 1_555
N2A C2A 1_555 1_555
N2D C2D 1_555 1_555
N2B Ag1 1_555 1_555
N2C Ag1 1_555 1_555
N2F Ag1E 1_555 1_555
N2G Ag1E 1_555 1_555
N3E Ag1F 1_555 1_555
N3A Ag1B_2 1_555 1_555
N3D Ag1F_2 1_555 1_555
N3B Ag1 1_555 1_555
N3C Ag1 1_555 1_555
N3F Ag1E 1_555 1_555
N3G Ag1E 1_555 1_555
C4E N3E 1_555 1_555
C4A N3A 1_555 1_555
C4D N3D 1_555 1_555
H2E C4E 1_555 1_555
H2A C4A 1_555 1_555
H2D C4D 1_555 1_555
C5E N1E 1_555 1_555
C5A N1A 1_555 1_555
C5D N1D 1_555 1_555
H3E C5E 1_555 1_555
H3A C5A 1_555 1_555
H3D C5D 1_555 1_555
F6E B2 1_555 1_555
F6D B2 1_555 1_555
F6A B2 1_555 1_555
N3 Ag1B 1_555 1_555
C4 C5 1_555 1_555
C1A N1A 1_555 1_555
C1D N1D 1_555 1_555
C2E C3E 1_555 1_555
C2E N2E 1_555 1_555
C2D C3D 1_555 1_555
C3E N3E 1_555 1_555
C3A N3A 1_555 1_555
C3D N3D 1_555 1_555
N2A N2D 1_555 1_555
C4E C5E 1_555 1_555
C4A C5A 1_555 1_555
C4D C5D 1_555 1_555

#END
