
#######################################################################
#
#                 Cambridge Crystallographic Data Centre
#                                CCDC 
#
#######################################################################
#
# If this CIF has been generated from an entry in the Cambridge 
# Structural Database, then it will include bibliographic, chemical, 
# crystal, experimental, refinement or atomic coordinate data resulting 
# from the CCDC's data processing and validation procedures.
#
#######################################################################

data_PAVLII
_symmetry_cell_setting           orthorhombic
_symmetry_space_group_name_H-M   'I m m 2'
_symmetry_Int_Tables_number      44
_space_group_name_Hall           'I 2 -2'
loop_
_symmetry_equiv_pos_site_id
_symmetry_equiv_pos_as_xyz
1 x,y,z
2 -x,-y,z
3 -x,y,z
4 x,-y,z
5 1/2+x,1/2+y,1/2+z
6 1/2-x,1/2-y,1/2+z
7 1/2-x,1/2+y,1/2+z
8 1/2+x,1/2-y,1/2+z
_cell_length_a                   13.856(7)
_cell_length_b                   10.659(6)
_cell_length_c                   11.177(6)
_cell_angle_alpha                90
_cell_angle_beta                 90
_cell_angle_gamma                90
_cell_volume                     1650.74
loop_
_atom_site_label
_atom_site_type_symbol
_atom_site_fract_x
_atom_site_fract_y
_atom_site_fract_z
Ag1 Ag 0.18822(6) 0.0000 0.5330(6)
N1 N 0.2435(7) 0.1691(12) 0.3657(8)
C1 C 0.3367(6) 0.2077(15) 0.3379(11)
H1 H 0.3891 0.1734 0.3783
C2 C 0.3515(5) 0.2976(14) 0.2497(11)
H2 H 0.4138 0.3235 0.2311
N2 N 0.2731(6) 0.3489(11) 0.1894(9)
C3 C 0.1800(5) 0.3103(9) 0.2172(8)
H3 H 0.1276 0.3446 0.1768
C4 C 0.1652(5) 0.2204(9) 0.3054(7)
O1 O 0.0000 0.2331(9) 0.2762(11)
N3 N 0.0509(7) 0.0994(8) 0.4118(8)
C5 C 0.0763(6) 0.1786(9) 0.3370(10)
Ag1A Ag -0.18822(6) 0.0000 0.5330(6)
Ag1E Ag 0.31178(6) 0.5000 0.0330(6)
Ag1D Ag -0.31178(6) 0.5000 0.0330(6)
Ag1E_2 Ag 0.31178(6) -0.5000 0.0330(6)
Ag1D_2 Ag -0.31178(6) -0.5000 0.0330(6)
N1B N -0.2435(7) 0.1691(12) 0.3657(8)
N1C N 0.2435(7) -0.1691(12) 0.3657(8)
N1A N -0.2435(7) -0.1691(12) 0.3657(8)
C1B C -0.3367(6) 0.2077(15) 0.3379(11)
C1C C 0.3367(6) -0.2077(15) 0.3379(11)
C1A C -0.3367(6) -0.2077(15) 0.3379(11)
H1B H -0.3891 0.1734 0.3783
H1C H 0.3891 -0.1734 0.3783
H1A H -0.3891 -0.1734 0.3783
C2B C -0.3515(5) 0.2976(14) 0.2497(11)
C2C C 0.3515(5) -0.2976(14) 0.2497(11)
C2A C -0.3515(5) -0.2976(14) 0.2497(11)
H2B H -0.4138 0.3235 0.2311
H2C H 0.4138 -0.3235 0.2311
H2A H -0.4138 -0.3235 0.2311
N2B N -0.2731(6) 0.3489(11) 0.1894(9)
N2C N 0.2731(6) -0.3489(11) 0.1894(9)
N2A N -0.2731(6) -0.3489(11) 0.1894(9)
N2E N 0.2269(6) 0.1511(11) 0.6894(9)
N2F N 0.2269(6) -0.1511(11) 0.6894(9)
N2D N -0.2269(6) -0.1511(11) 0.6894(9)
N2G N -0.2269(6) 0.1511(11) 0.6894(9)
C3B C -0.1800(5) 0.3103(9) 0.2172(8)
C3C C 0.1800(5) -0.3103(9) 0.2172(8)
C3A C -0.1800(5) -0.3103(9) 0.2172(8)
H3B H -0.1276 0.3446 0.1768
H3C H 0.1276 -0.3446 0.1768
H3A H -0.1276 -0.3446 0.1768
C4B C -0.1652(5) 0.2204(9) 0.3054(7)
C4C C 0.1652(5) -0.2204(9) 0.3054(7)
C4A C -0.1652(5) -0.2204(9) 0.3054(7)
O1A O 0.0000 -0.2331(9) 0.2762(11)
N3B N -0.0509(7) 0.0994(8) 0.4118(8)
N3C N 0.0509(7) -0.0994(8) 0.4118(8)
N3A N -0.0509(7) -0.0994(8) 0.4118(8)
C5B C -0.0763(6) 0.1786(9) 0.3370(10)
C5C C 0.0763(6) -0.1786(9) 0.3370(10)
C5A C -0.0763(6) -0.1786(9) 0.3370(10)
B1 B 1.0000 0.5000 1.002(2)
F1 F 1.0000 0.3683(12) 1.029(2)
F2 F 0.9015(9) 0.5000 1.034(3)
F1A F 1.0000 0.6317(12) 1.029(2)
F2A F 1.0985(9) 0.5000 1.034(3)
C6 C 0.0000 0.0000 0.049(4)
N4 N 0.0000 0.0000 0.156(4)
C7 C 0.0000 0.0000 -0.080(4)
O2 O 0.126(6) 0.5000 0.494(5)
F3? F 1.0000 0.5000 0.8764(14)
H4? H -0.0165 -0.0821 -0.1090
H5? H 0.0630 0.0224 -0.1090
H6? H -0.0465 0.0597 -0.1090
loop_
_geom_bond_atom_site_label_1
_geom_bond_atom_site_label_2
_geom_bond_site_symmetry_1
_geom_bond_site_symmetry_2
Ag1 N1 1_555 1_555
N1 C1 1_555 1_555
C1 H1 1_555 1_555
C2 C1 1_555 1_555
H2 C2 1_555 1_555
N2 C2 1_555 1_555
C3 N2 1_555 1_555
H3 C3 1_555 1_555
C4 N1 1_555 1_555
O1 C5 1_555 1_555
N3 Ag1 1_555 1_555
C5 C4 1_555 1_555
B1 F1 1_555 1_555
F2 B1 1_555 1_555
C6 N4 1_555 1_555
C7 C6 1_555 1_555
Ag1A N1B 1_555 1_555
Ag1E N2 1_555 1_555
Ag1D N2B 1_555 1_555
Ag1E_2 N2C 1_555 1_555
Ag1D_2 N2A 1_555 1_555
N1B C1B 1_555 1_555
N1C Ag1 1_555 1_555
N1A Ag1A 1_555 1_555
C1B H1B 1_555 1_555
C1C N1C 1_555 1_555
C1A N1A 1_555 1_555
H1C C1C 1_555 1_555
H1A C1A 1_555 1_555
C2B C1B 1_555 1_555
C2C C1C 1_555 1_555
C2A C1A 1_555 1_555
H2B C2B 1_555 1_555
H2C C2C 1_555 1_555
H2A C2A 1_555 1_555
N2B C2B 1_555 1_555
N2C C2C 1_555 1_555
N2A C2A 1_555 1_555
N2E Ag1 1_555 1_555
N2F Ag1 1_555 1_555
N2D Ag1A 1_555 1_555
N2G Ag1A 1_555 1_555
C3B N2B 1_555 1_555
C3C N2C 1_555 1_555
C3A N2A 1_555 1_555
H3B C3B 1_555 1_555
H3C C3C 1_555 1_555
H3A C3A 1_555 1_555
C4B N1B 1_555 1_555
C4C N1C 1_555 1_555
C4A N1A 1_555 1_555
O1A C5C 1_555 1_555
N3B N3 1_555 1_555
N3C Ag1 1_555 1_555
N3A Ag1A 1_555 1_555
C5B O1 1_555 1_555
C5C C4C 1_555 1_555
C5A C4A 1_555 1_555
F1A B1 1_555 1_555
F2A B1 1_555 1_555
C3 C4 1_555 1_555
N3 C5 1_555 1_555
Ag1A N3B 1_555 1_555
C3B C4B 1_555 1_555
C3C C4C 1_555 1_555
C3A C4A 1_555 1_555
C4B C5B 1_555 1_555
O1A C5A 1_555 1_555
N3B C5B 1_555 1_555
N3C N3A 1_555 1_555
N3C C5C 1_555 1_555
N3A C5A 1_555 1_555

#END
