
#######################################################################
#
#                 Cambridge Crystallographic Data Centre
#                                CCDC 
#
#######################################################################
#
# If this CIF has been generated from an entry in the Cambridge 
# Structural Database, then it will include bibliographic, chemical, 
# crystal, experimental, refinement or atomic coordinate data resulting 
# from the CCDC's data processing and validation procedures.
#
#######################################################################

data_PAVLOO
_symmetry_cell_setting           tetragonal
_symmetry_space_group_name_H-M   'P 42/m n m'
_symmetry_Int_Tables_number      136
_space_group_name_Hall           '-P 4n 2n'
loop_
_symmetry_equiv_pos_site_id
_symmetry_equiv_pos_as_xyz
1 x,y,z
2 1/2-y,1/2+x,1/2+z
3 1/2+y,1/2-x,1/2+z
4 y,x,-z
5 -x,-y,z
6 1/2-x,1/2+y,1/2-z
7 1/2+x,1/2-y,1/2-z
8 -y,-x,-z
9 -x,-y,-z
10 1/2+y,1/2-x,1/2-z
11 1/2-y,1/2+x,1/2-z
12 -y,-x,z
13 x,y,-z
14 1/2+x,1/2-y,1/2+z
15 1/2-x,1/2+y,1/2+z
16 y,x,z
_cell_length_a                   10.7675(17)
_cell_length_b                   10.7675(17)
_cell_length_c                   13.994(5)
_cell_angle_alpha                90
_cell_angle_beta                 90
_cell_angle_gamma                90
_cell_volume                     1622.45
loop_
_atom_site_label
_atom_site_type_symbol
_atom_site_fract_x
_atom_site_fract_y
_atom_site_fract_z
Ag1 Ag 0.5000 0.5000 0.18206(5)
N1 N 0.6101(4) 0.3899(4) 0.0496(4)
N2 N 0.8505(4) 0.1495(4) 0.2760(4)
N3 N 0.6696(4) 0.3304(4) 0.2424(4)
O1 O 0.7459(4) 0.2541(4) 0.0000
C1 C 0.6906(4) 0.3094(4) 0.0746(5)
C2 C 0.7283(5) 0.2717(5) 0.1722(5)
C3 C 0.8158(5) 0.1842(5) 0.1886(4)
H1 H 0.8535 0.1465 0.1364
C4 C 0.7919(6) 0.2081(6) 0.3459(5)
H2 H 0.8117 0.1883 0.4088
C5 C 0.7047(7) 0.2953(7) 0.3294(6)
H3 H 0.6670 0.3330 0.3817
Ag1I Ag 1.0000 0.0000 0.31794(5)
Ag1C Ag 0.5000 0.5000 -0.18206(5)
Ag1A Ag 1.0000 0.0000 -0.31794(5)
N1L N 0.6101(4) 0.3899(4) -0.0496(4)
N1O N 0.3899(4) 0.6101(4) 0.0496(4)
N2L N 0.8505(4) 0.1495(4) -0.2760(4)
N2I N 0.6495(4) 0.6495(4) 0.2240(4)
N2J N 0.3505(4) 0.3505(4) 0.2240(4)
N3L N 0.6696(4) 0.3304(4) -0.2424(4)
N3O N 0.3304(4) 0.6696(4) 0.2424(4)
C1L C 0.6906(4) 0.3094(4) -0.0746(5)
C2L C 0.7283(5) 0.2717(5) -0.1722(5)
C3L C 0.8158(5) 0.1842(5) -0.1886(4)
H1L H 0.8535 0.1465 -0.1364
C4L C 0.7919(6) 0.2081(6) -0.3459(5)
H2L H 0.8117 0.1883 -0.4088
C5L C 0.7047(7) 0.2953(7) -0.3294(6)
H3L H 0.6670 0.3330 -0.3817
As1 As 0.5000 0.0000 1.0000
F1 F 0.3399(9) 0.0150(10) 1.0000
F2 F 0.5145(9) 0.1104(10) 0.9159(11)
F1H F 0.6601(9) -0.0150(10) 1.0000
F2L F 0.5145(9) 0.1104(10) 1.0841(11)
F2H F 0.4855(9) -0.1104(10) 1.0841(11)
F2D F 0.4855(9) -0.1104(10) 0.9159(11)
F3? F 0.475(2) 0.145(2) 1.0000
F4? F 0.397(2) -0.0233(19) 0.9174(16)
loop_
_geom_bond_atom_site_label_1
_geom_bond_atom_site_label_2
_geom_bond_site_symmetry_1
_geom_bond_site_symmetry_2
Ag1 N1 1_555 1_555
N1 C1 1_555 1_555
N2 C3 1_555 1_555
N3 Ag1 1_555 1_555
O1 C1 1_555 1_555
C1 C2 1_555 1_555
C2 N3 1_555 1_555
C3 C2 1_555 1_555
H1 C3 1_555 1_555
C4 N2 1_555 1_555
H2 C4 1_555 1_555
C5 N3 1_555 1_555
H3 C5 1_555 1_555
As1 F1 1_555 1_555
F2 As1 1_555 1_555
Ag1I N2 1_555 1_555
Ag1C N1L 1_555 1_555
Ag1A N2L 1_555 1_555
N1L N1 1_555 1_555
N1O Ag1 1_555 1_555
N2L C3L 1_555 1_555
N2I Ag1 1_555 1_555
N2J Ag1 1_555 1_555
N3L Ag1C 1_555 1_555
N3O Ag1 1_555 1_555
C1L O1 1_555 1_555
C2L N3L 1_555 1_555
C3L C2L 1_555 1_555
H1L C3L 1_555 1_555
C4L N2L 1_555 1_555
H2L C4L 1_555 1_555
C5L N3L 1_555 1_555
H3L C5L 1_555 1_555
F1H As1 1_555 1_555
F2L As1 1_555 1_555
F2H As1 1_555 1_555
F2D As1 1_555 1_555
C4 C5 1_555 1_555
N1L C1L 1_555 1_555
C1L C2L 1_555 1_555
C4L C5L 1_555 1_555

#END
