
#######################################################################
#
#                 Cambridge Crystallographic Data Centre
#                                CCDC 
#
#######################################################################
#
# If this CIF has been generated from an entry in the Cambridge 
# Structural Database, then it will include bibliographic, chemical, 
# crystal, experimental, refinement or atomic coordinate data resulting 
# from the CCDC's data processing and validation procedures.
#
#######################################################################

data_PAVMAB
_symmetry_cell_setting           tetragonal
_symmetry_space_group_name_H-M   'P 42/m n m'
_symmetry_Int_Tables_number      136
_space_group_name_Hall           '-P 4n 2n'
loop_
_symmetry_equiv_pos_site_id
_symmetry_equiv_pos_as_xyz
1 x,y,z
2 1/2-y,1/2+x,1/2+z
3 1/2+y,1/2-x,1/2+z
4 y,x,-z
5 -x,-y,z
6 1/2-x,1/2+y,1/2-z
7 1/2+x,1/2-y,1/2-z
8 -y,-x,-z
9 -x,-y,-z
10 1/2+y,1/2-x,1/2-z
11 1/2-y,1/2+x,1/2-z
12 -y,-x,z
13 x,y,-z
14 1/2+x,1/2-y,1/2+z
15 1/2-x,1/2+y,1/2+z
16 y,x,z
_cell_length_a                   10.8706(19)
_cell_length_b                   10.8706(19)
_cell_length_c                   13.959(5)
_cell_angle_alpha                90
_cell_angle_beta                 90
_cell_angle_gamma                90
_cell_volume                     1649.53
loop_
_atom_site_label
_atom_site_type_symbol
_atom_site_fract_x
_atom_site_fract_y
_atom_site_fract_z
Ag1 Ag 0.5000 0.5000 0.18513(6)
N1 N 0.6084(4) 0.3916(4) 0.0498(5)
N2 N 0.8500(4) 0.1500(4) 0.2753(5)
N3 N 0.6692(5) 0.3308(5) 0.2435(5)
O1 O 0.7438(4) 0.2562(4) 0.0000
C1 C 0.6894(5) 0.3106(5) 0.0753(5)
C2 C 0.7265(5) 0.2735(5) 0.1719(5)
C3 C 0.8144(6) 0.1856(6) 0.1874(5)
H1 H 0.8513 0.1487 0.1346
C4 C 0.7926(7) 0.2074(7) 0.3455(6)
H2 H 0.8129 0.1871 0.4082
C5 C 0.7041(7) 0.2959(7) 0.3303(7)
H3 H 0.6673 0.3327 0.3832
Ag1I Ag 1.0000 0.0000 0.31487(6)
Ag1C Ag 0.5000 0.5000 -0.18513(6)
Ag1A Ag 1.0000 0.0000 -0.31487(6)
N1L N 0.6084(4) 0.3916(4) -0.0498(5)
N1O N 0.3916(4) 0.6084(4) 0.0498(5)
N2L N 0.8500(4) 0.1500(4) -0.2753(5)
N2I N 0.6500(4) 0.6500(4) 0.2247(5)
N2J N 0.3500(4) 0.3500(4) 0.2247(5)
N3L N 0.6692(5) 0.3308(5) -0.2435(5)
N3O N 0.3308(5) 0.6692(5) 0.2435(5)
C1L C 0.6894(5) 0.3106(5) -0.0753(5)
C2L C 0.7265(5) 0.2735(5) -0.1719(5)
C3L C 0.8144(6) 0.1856(6) -0.1874(5)
H1L H 0.8513 0.1487 -0.1346
C4L C 0.7926(7) 0.2074(7) -0.3455(6)
H2L H 0.8129 0.1871 -0.4082
C5L C 0.7041(7) 0.2959(7) -0.3303(7)
H3L H 0.6673 0.3327 -0.3832
Sb1 Sb 0.5000 0.0000 1.0000
F1 F 0.3275(9) 0.0169(9) 1.0000
F2 F 0.5136(8) 0.1193(9) 0.9093(10)
F1H F 0.6725(9) -0.0169(9) 1.0000
F2L F 0.5136(8) 0.1193(9) 1.0907(10)
F2H F 0.4864(8) -0.1193(9) 1.0907(10)
F2D F 0.4864(8) -0.1193(9) 0.9093(10)
F3? F 0.477(3) 0.145(3) 1.0000
F4? F 0.387(3) -0.025(3) 0.913(3)
loop_
_geom_bond_atom_site_label_1
_geom_bond_atom_site_label_2
_geom_bond_site_symmetry_1
_geom_bond_site_symmetry_2
Ag1 N1 1_555 1_555
N1 C1 1_555 1_555
N2 C3 1_555 1_555
N3 Ag1 1_555 1_555
O1 C1 1_555 1_555
C1 C2 1_555 1_555
C2 N3 1_555 1_555
C3 C2 1_555 1_555
H1 C3 1_555 1_555
C4 N2 1_555 1_555
H2 C4 1_555 1_555
C5 N3 1_555 1_555
H3 C5 1_555 1_555
Sb1 F1 1_555 1_555
F2 Sb1 1_555 1_555
Ag1I N2 1_555 1_555
Ag1C N1L 1_555 1_555
Ag1A N2L 1_555 1_555
N1L N1 1_555 1_555
N1O Ag1 1_555 1_555
N2L C3L 1_555 1_555
N2I Ag1 1_555 1_555
N2J Ag1 1_555 1_555
N3L Ag1C 1_555 1_555
N3O Ag1 1_555 1_555
C1L O1 1_555 1_555
C2L N3L 1_555 1_555
C3L C2L 1_555 1_555
H1L C3L 1_555 1_555
C4L N2L 1_555 1_555
H2L C4L 1_555 1_555
C5L N3L 1_555 1_555
H3L C5L 1_555 1_555
F1H Sb1 1_555 1_555
F2L Sb1 1_555 1_555
F2H Sb1 1_555 1_555
F2D Sb1 1_555 1_555
C4 C5 1_555 1_555
N1L C1L 1_555 1_555
C1L C2L 1_555 1_555
C4L C5L 1_555 1_555

#END
