
#######################################################################
#
#                 Cambridge Crystallographic Data Centre
#                                CCDC 
#
#######################################################################
#
# If this CIF has been generated from an entry in the Cambridge 
# Structural Database, then it will include bibliographic, chemical, 
# crystal, experimental, refinement or atomic coordinate data resulting 
# from the CCDC's data processing and validation procedures.
#
#######################################################################

data_PAWBOF
_symmetry_cell_setting           triclinic
_symmetry_space_group_name_H-M   'P -1'
_symmetry_Int_Tables_number      2
_space_group_name_Hall           '-P 1'
loop_
_symmetry_equiv_pos_site_id
_symmetry_equiv_pos_as_xyz
1 x,y,z
2 -x,-y,-z
_cell_length_a                   10.4232(19)
_cell_length_b                   10.9518(19)
_cell_length_c                   17.478(3)
_cell_angle_alpha                72.098(3)
_cell_angle_beta                 87.542(3)
_cell_angle_gamma                87.012(3)
_cell_volume                     1895.23
loop_
_atom_site_label
_atom_site_type_symbol
_atom_site_fract_x
_atom_site_fract_y
_atom_site_fract_z
Cu1 Cu 0.88660(3) 0.54985(3) 0.01308(2)
Cu2 Cu 0.46879(3) 0.99850(3) 0.428569(19)
S1 S 0.28509(7) 0.73753(7) 0.09689(5)
S2 S 0.28060(7) 0.92765(7) 0.08291(4)
O1 O 0.84693(18) 0.36768(17) 0.05670(12)
O2 O 1.03900(19) 0.28182(17) 0.03493(13)
O3 O 0.84873(19) 0.5478(2) -0.09653(12)
O4 O 1.04011(19) 0.4588(2) -0.11634(12)
O5 O 0.3032(2) 1.0634(2) 0.45978(13)
O6 O 0.3539(2) 1.0618(2) 0.58328(13)
O7 O 0.5256(2) 1.1767(2) 0.38695(12)
O8 O 0.5739(2) 1.18008(19) 0.50938(12)
N1 N 0.6938(2) 0.6135(2) 0.04247(13)
N2 N 0.4027(2) 0.9760(2) 0.31807(14)
C1 C 0.6631(3) 0.7352(3) 0.03373(19)
H1 H 0.7271 0.7941 0.0155
C2 C 0.5430(3) 0.7811(3) 0.0490(2)
H2 H 0.5279 0.8679 0.0429
C3 C 0.4459(2) 0.6972(3) 0.07441(15)
C4 C 0.4764(3) 0.5695(3) 0.0855(2)
H3 H 0.4139 0.5088 0.1037
C5 C 0.5990(3) 0.5321(3) 0.0689(2)
H4 H 0.6178 0.4451 0.0773
C6 C 0.3259(3) 0.9390(3) 0.17697(15)
C7 C 0.3851(3) 0.8411(3) 0.23566(17)
H5 H 0.4015 0.7609 0.2286
C8 C 0.4209(3) 0.8640(3) 0.30433(17)
H6 H 0.4606 0.7971 0.3436
C9 C 0.3434(4) 1.0688(3) 0.26211(19)
H7 H 0.3280 1.1466 0.2712
C10 C 0.3021(4) 1.0547(3) 0.1913(2)
H8 H 0.2591 1.1221 0.1544
C11 C 0.9240(3) 0.2735(3) 0.06015(16)
C12 C 0.7547(4) 0.1252(4) 0.1344(3)
H9 H 0.7049 0.1967 0.1372
C13 C 0.7074(5) 0.0041(5) 0.1653(3)
H10 H 0.6298 -0.0054 0.1932
C14 C 0.7783(5) -0.1000(4) 0.1598(3)
H11 H 0.7470 -0.1818 0.1819
C15 C 0.8957(5) -0.0843(4) 0.1217(3)
H12 H 0.9439 -0.1551 0.1164
C16 C 0.9430(4) 0.0357(3) 0.0914(2)
H13 H 1.0245 0.0452 0.0673
C17 C 0.8735(3) 0.1430(3) 0.09649(17)
C18 C 0.9310(3) 0.5075(3) -0.13874(17)
C19 C 0.8952(3) 0.5140(3) -0.22162(18)
C20 C 0.7825(4) 0.5752(4) -0.2545(2)
H14 H 0.7279 0.6162 -0.2260
C21 C 0.7489(5) 0.5741(5) -0.3305(3)
H15 H 0.6773 0.6423 -0.3556
C22 C 0.8302(6) 0.5208(6) -0.3738(3)
H16 H 0.8080 0.5276 -0.4252
C23 C 0.9443(6) 0.4614(5) -0.3432(3)
H17 H 0.9980 0.4223 -0.3726
C24 C 0.9740(4) 0.4573(4) -0.2670(2)
H18 H 1.0505 0.4172 -0.2457
C25 C 0.2762(3) 1.0778(3) 0.5274(2)
C26 C 0.1411(3) 1.1170(3) 0.5431(2)
C27 C 0.0562(3) 1.1601(4) 0.4805(3)
H19 H 0.0840 1.1657 0.4283
C28 C -0.0699(4) 1.1934(5) 0.4952(4)
H20 H -0.1267 1.2209 0.4535
C29 C -0.1116(4) 1.1836(5) 0.5702(4)
H21 H -0.1964 1.2077 0.5791
C30 C -0.0307(4) 1.1411(5) 0.6338(4)
H22 H -0.0608 1.1342 0.6857
C31 C 0.0976(4) 1.1074(4) 0.6201(3)
H23 H 0.1536 1.0777 0.6624
C32 C 0.5657(3) 1.2305(3) 0.43480(17)
C33 C 0.6067(3) 1.3665(3) 0.39991(18)
C34 C 0.6238(4) 1.4208(4) 0.3180(2)
H24 H 0.6085 1.3727 0.2840
C35 C 0.6618(5) 1.5467(4) 0.2869(3)
H25 H 0.6750 1.5808 0.2317
C36 C 0.6823(4) 1.6170(4) 0.3370(3)
H26 H 0.7057 1.7011 0.3158
C37 C 0.6648(4) 1.5647(4) 0.4180(2)
H27 H 0.6776 1.6134 0.4515
C38 C 0.6289(3) 1.4389(3) 0.4489(2)
H28 H 0.6186 1.4036 0.5042
Cu1A Cu 1.11340(3) 0.45015(3) -0.01308(2)
Cu2A Cu 0.53121(3) 1.00150(3) 0.571431(19)
O2A O 0.96100(19) 0.71818(17) -0.03493(13)
O4A O 0.95989(19) 0.5412(2) 0.11634(12)
O6A O 0.6461(2) 0.9382(2) 0.41672(13)
O8A O 0.4261(2) 0.81992(19) 0.49062(12)
loop_
_geom_bond_atom_site_label_1
_geom_bond_atom_site_label_2
_geom_bond_site_symmetry_1
_geom_bond_site_symmetry_2
Cu1 O1 1_555 1_555
Cu2 O5 1_555 1_555
S1 S2 1_555 1_555
S2 C6 1_555 1_555
O1 C11 1_555 1_555
O2 C11 1_555 1_555
O3 Cu1 1_555 1_555
O4 C18 1_555 1_555
O5 C25 1_555 1_555
O6 C25 1_555 1_555
O7 Cu2 1_555 1_555
O8 C32 1_555 1_555
N1 Cu1 1_555 1_555
N2 Cu2 1_555 1_555
C1 N1 1_555 1_555
H1 C1 1_555 1_555
C2 C1 1_555 1_555
H2 C2 1_555 1_555
C3 S1 1_555 1_555
C4 C3 1_555 1_555
H3 C4 1_555 1_555
C5 N1 1_555 1_555
H4 C5 1_555 1_555
C6 C7 1_555 1_555
C7 H5 1_555 1_555
C8 N2 1_555 1_555
H6 C8 1_555 1_555
C9 N2 1_555 1_555
H7 C9 1_555 1_555
C10 C6 1_555 1_555
H8 C10 1_555 1_555
C11 C17 1_555 1_555
C12 H9 1_555 1_555
C13 C12 1_555 1_555
H10 C13 1_555 1_555
C14 C13 1_555 1_555
H11 C14 1_555 1_555
C15 C14 1_555 1_555
H12 C15 1_555 1_555
C16 C15 1_555 1_555
H13 C16 1_555 1_555
C17 C12 1_555 1_555
C18 O3 1_555 1_555
C19 C18 1_555 1_555
C20 C19 1_555 1_555
H14 C20 1_555 1_555
C21 C20 1_555 1_555
H15 C21 1_555 1_555
C22 C21 1_555 1_555
H16 C22 1_555 1_555
C23 C22 1_555 1_555
H17 C23 1_555 1_555
C24 C19 1_555 1_555
H18 C24 1_555 1_555
C25 C26 1_555 1_555
C26 C27 1_555 1_555
C27 H19 1_555 1_555
C28 C27 1_555 1_555
H20 C28 1_555 1_555
C29 C28 1_555 1_555
H21 C29 1_555 1_555
C30 C29 1_555 1_555
H22 C30 1_555 1_555
C31 C26 1_555 1_555
H23 C31 1_555 1_555
C32 O7 1_555 1_555
C33 C32 1_555 1_555
C34 C33 1_555 1_555
H24 C34 1_555 1_555
C35 C34 1_555 1_555
H25 C35 1_555 1_555
C36 C35 1_555 1_555
H26 C36 1_555 1_555
C37 C36 1_555 1_555
H27 C37 1_555 1_555
C38 C33 1_555 1_555
H28 C38 1_555 1_555
Cu1A O2 1_555 1_555
Cu2A O6 1_555 1_555
O2A Cu1 1_555 1_555
O4A Cu1 1_555 1_555
O6A Cu2 1_555 1_555
O8A Cu2 1_555 1_555
O4 Cu1A 1_555 1_555
O8 Cu2A 1_555 1_555
C2 C3 1_555 1_555
C4 C5 1_555 1_555
C7 C8 1_555 1_555
C9 C10 1_555 1_555
C16 C17 1_555 1_555
C23 C24 1_555 1_555
C30 C31 1_555 1_555
C37 C38 1_555 1_555

#END
