
#######################################################################
#
#                 Cambridge Crystallographic Data Centre
#                                CCDC 
#
#######################################################################
#
# If this CIF has been generated from an entry in the Cambridge 
# Structural Database, then it will include bibliographic, chemical, 
# crystal, experimental, refinement or atomic coordinate data resulting 
# from the CCDC's data processing and validation procedures.
#
#######################################################################

data_PAWCEW
_symmetry_cell_setting           triclinic
_symmetry_space_group_name_H-M   'P -1'
_symmetry_Int_Tables_number      2
_space_group_name_Hall           '-P 1'
loop_
_symmetry_equiv_pos_site_id
_symmetry_equiv_pos_as_xyz
1 x,y,z
2 -x,-y,-z
_cell_length_a                   7.7799(16)
_cell_length_b                   10.803(2)
_cell_length_c                   12.147(2)
_cell_angle_alpha                88.75(3)
_cell_angle_beta                 78.96(3)
_cell_angle_gamma                69.74(3)
_cell_volume                     938.925
loop_
_atom_site_label
_atom_site_type_symbol
_atom_site_fract_x
_atom_site_fract_y
_atom_site_fract_z
Mn1 Mn 0.0000 0.0000 0.0000
Mn2 Mn 0.68319(4) -0.23465(3) -0.21191(2)
O1 O 0.2411(2) -0.10316(16) 0.07009(12)
O2 O 0.4681(2) -0.12385(17) -0.07796(12)
O3 O 0.8688(2) -0.23668(16) -0.10579(11)
O4 O 0.1157(2) -0.11496(16) -0.15929(11)
H1 H 0.0475 -0.0984 -0.2164
H2 H 0.2333 -0.1805 -0.1701
C1 C 0.4034(3) -0.15796(19) 0.01589(15)
C2 C 0.7181(3) -0.30749(18) 0.06099(15)
C3 C 1.1692(4) -0.4172(4) -0.5070(3)
H3 H 1.2685 -0.4968 -0.5243
N1 N 0.6161(3) -0.05404(19) -0.31224(14)
C4 C 0.5256(2) -0.27752(19) 0.06650(15)
N2 N 0.9030(3) -0.2835(2) -0.37316(15)
C5 C 1.1425(5) -0.3203(4) -0.5816(2)
H4 H 1.2222 -0.3342 -0.6514
C6 C 0.7273(3) -0.0637(2) -0.41427(16)
C7 C 0.8786(3) -0.1858(2) -0.44792(17)
C8 C 0.8173(3) -0.4198(2) 0.11196(17)
H5 H 0.9427 -0.4372 0.1130
C9 C 0.7007(4) 0.0407(3) -0.48779(18)
C10 C 0.5525(4) 0.1594(3) -0.4502(2)
H6 H 0.5298 0.2310 -0.4960
C11 C 0.4784(4) 0.0589(2) -0.27958(19)
H7 H 0.4019 0.0659 -0.2093
C12 C 0.8209(4) 0.0231(3) -0.5948(2)
H8 H 0.8019 0.0924 -0.6431
C13 C 0.9973(4) -0.2006(3) -0.55454(19)
C14 C 0.4429(4) 0.1694(3) -0.3472(2)
H9 H 0.3457 0.2478 -0.3216
C15 C 1.0436(4) -0.3953(3) -0.4025(2)
H10 H 1.0609 -0.4627 -0.3523
C16 C 0.9624(5) -0.0925(4) -0.62788(19)
H11 H 1.0377 -0.1019 -0.6988
C17 C 0.4403(3) -0.3629(2) 0.11814(15)
H12 H 0.3126 -0.3422 0.1230
C18 C 0.5414(3) -0.4784(2) 0.16258(16)
C19 C 0.7307(3) -0.5052(2) 0.16086(17)
H13 H 0.7990 -0.5809 0.1927
O5 O 0.5403(2) -0.68089(17) 0.24628(16)
O6 O 0.2840(2) -0.55403(16) 0.19323(14)
C20 C 0.4477(3) -0.5756(2) 0.20463(17)
O7 O 0.8820(2) -0.15924(15) 0.05938(12)
C21 C 0.8291(2) -0.22597(19) 0.00149(15)
Mn1_2 Mn 1.0000 0.0000 0.0000
Mn1_3 Mn -1.0000 0.0000 0.0000
Mn2A Mn -0.68319(4) 0.23465(3) 0.21191(2)
Mn2A_2 Mn 0.31681(4) -0.76535(3) 0.21191(2)
Mn2_2 Mn -0.31681(4) 0.76535(3) -0.21191(2)
O1A O -0.2411(2) 0.10316(16) -0.07009(12)
O2A O -0.4681(2) 0.12385(17) 0.07796(12)
O3A O -0.8688(2) 0.23668(16) 0.10579(11)
O4A O -0.1157(2) 0.11496(16) 0.15929(11)
H1A H -0.0475 0.0984 0.2164
H2A H -0.2333 0.1805 0.1701
C1A C -0.4034(3) 0.15796(19) -0.01589(15)
C2A C -0.7181(3) 0.30749(18) -0.06099(15)
C3A C -1.1692(4) 0.4172(4) 0.5070(3)
H3A H -1.2685 0.4968 0.5243
N1A N -0.6161(3) 0.05404(19) 0.31224(14)
C4A C -0.5256(2) 0.27752(19) -0.06650(15)
N2A N -0.9030(3) 0.2835(2) 0.37316(15)
C5A C -1.1425(5) 0.3203(4) 0.5816(2)
H4A H -1.2222 0.3342 0.6514
C6A C -0.7273(3) 0.0637(2) 0.41427(16)
C7A C -0.8786(3) 0.1858(2) 0.44792(17)
C8A C -0.8173(3) 0.4198(2) -0.11196(17)
H5A H -0.9427 0.4372 -0.1130
C9A C -0.7007(4) -0.0407(3) 0.48779(18)
C10A C -0.5525(4) -0.1594(3) 0.4502(2)
H6A H -0.5298 -0.2310 0.4960
C11A C -0.4784(4) -0.0589(2) 0.27958(19)
H7A H -0.4019 -0.0659 0.2093
C12A C -0.8209(4) -0.0231(3) 0.5948(2)
H8A H -0.8019 -0.0924 0.6431
C13A C -0.9973(4) 0.2006(3) 0.55454(19)
C14A C -0.4429(4) -0.1694(3) 0.3472(2)
H9A H -0.3457 -0.2478 0.3216
C15A C -1.0436(4) 0.3953(3) 0.4025(2)
H10A H -1.0609 0.4627 0.3523
C16A C -0.9624(5) 0.0925(4) 0.62788(19)
H11A H -1.0377 0.1019 0.6988
C17A C -0.4403(3) 0.3629(2) -0.11814(15)
H12A H -0.3126 0.3422 -0.1230
C18A C -0.5414(3) 0.4784(2) -0.16258(16)
C19A C -0.7307(3) 0.5052(2) -0.16086(17)
H13A H -0.7990 0.5809 -0.1927
O5A O -0.5403(2) 0.68089(17) -0.24628(16)
O5A_2 O 0.4597(2) -0.31911(17) -0.24628(16)
O5_2 O -0.4597(2) 0.31911(17) 0.24628(16)
O6A O -0.2840(2) 0.55403(16) -0.19323(14)
O6A_2 O 0.7160(2) -0.44597(16) -0.19323(14)
O6_2 O -0.7160(2) 0.44597(16) 0.19323(14)
C20A C -0.4477(3) 0.5756(2) -0.20463(17)
O7A O -0.8820(2) 0.15924(15) -0.05938(12)
O7_2 O -0.1180(2) -0.15924(15) 0.05938(12)
O7A_2 O 0.1180(2) 0.15924(15) -0.05938(12)
C21A C -0.8291(2) 0.22597(19) -0.00149(15)
loop_
_geom_bond_atom_site_label_1
_geom_bond_atom_site_label_2
_geom_bond_site_symmetry_1
_geom_bond_site_symmetry_2
Mn1 O1 1_555 1_555
Mn2 O2 1_555 1_555
O1 C1 1_555 1_555
O2 C1 1_555 1_555
O3 Mn2 1_555 1_555
O4 Mn1 1_555 1_555
H1 O4 1_555 1_555
H2 O4 1_555 1_555
C1 C4 1_555 1_555
C2 C4 1_555 1_555
C3 H3 1_555 1_555
N1 Mn2 1_555 1_555
C4 C17 1_555 1_555
N2 Mn2 1_555 1_555
C5 C3 1_555 1_555
H4 C5 1_555 1_555
C6 N1 1_555 1_555
C7 N2 1_555 1_555
C8 C2 1_555 1_555
H5 C8 1_555 1_555
C9 C6 1_555 1_555
C10 C9 1_555 1_555
H6 C10 1_555 1_555
C11 N1 1_555 1_555
H7 C11 1_555 1_555
C12 C9 1_555 1_555
H8 C12 1_555 1_555
C13 C5 1_555 1_555
C14 C10 1_555 1_555
H9 C14 1_555 1_555
C15 C3 1_555 1_555
H10 C15 1_555 1_555
C16 C12 1_555 1_555
H11 C16 1_555 1_555
C17 H12 1_555 1_555
C18 C17 1_555 1_555
C19 C8 1_555 1_555
H13 C19 1_555 1_555
O5 C20 1_555 1_555
O6 C20 1_555 1_555
C20 C18 1_555 1_555
O7 C21 1_555 1_555
C21 O3 1_555 1_555
Mn1_2 O7 1_555 1_555
Mn1_3 O7A 1_555 1_555
Mn2A O2A 1_555 1_555
Mn2A_2 O5 1_555 1_555
Mn2_2 O5A 1_555 1_555
O1A Mn1 1_555 1_555
O2A C1A 1_555 1_555
O3A Mn2A 1_555 1_555
O4A Mn1 1_555 1_555
H1A O4A 1_555 1_555
H2A O4A 1_555 1_555
C1A O1A 1_555 1_555
C2A C4A 1_555 1_555
C3A H3A 1_555 1_555
N1A Mn2A 1_555 1_555
C4A C1A 1_555 1_555
N2A Mn2A 1_555 1_555
C5A C3A 1_555 1_555
H4A C5A 1_555 1_555
C6A N1A 1_555 1_555
C7A N2A 1_555 1_555
C8A C2A 1_555 1_555
H5A C8A 1_555 1_555
C9A C6A 1_555 1_555
C10A C9A 1_555 1_555
H6A C10A 1_555 1_555
C11A N1A 1_555 1_555
H7A C11A 1_555 1_555
C12A C9A 1_555 1_555
H8A C12A 1_555 1_555
C13A C5A 1_555 1_555
C14A C10A 1_555 1_555
H9A C14A 1_555 1_555
C15A C3A 1_555 1_555
H10A C15A 1_555 1_555
C16A C12A 1_555 1_555
H11A C16A 1_555 1_555
C17A C4A 1_555 1_555
H12A C17A 1_555 1_555
C18A C17A 1_555 1_555
C19A C8A 1_555 1_555
H13A C19A 1_555 1_555
O5A C20A 1_555 1_555
O5A_2 Mn2 1_555 1_555
O5_2 Mn2A 1_555 1_555
O6A Mn2_2 1_555 1_555
O6A_2 Mn2 1_555 1_555
O6_2 Mn2A 1_555 1_555
C20A C18A 1_555 1_555
O7A C21A 1_555 1_555
O7_2 Mn1 1_555 1_555
O7A_2 Mn1 1_555 1_555
C21A O3A 1_555 1_555
C2 C21 1_555 1_555
N2 C15 1_555 1_555
C6 C7 1_555 1_555
C7 C13 1_555 1_555
C11 C14 1_555 1_555
C13 C16 1_555 1_555
C18 C19 1_555 1_555
O6 Mn2A_2 1_555 1_555
C2A C21A 1_555 1_555
N2A C15A 1_555 1_555
C6A C7A 1_555 1_555
C7A C13A 1_555 1_555
C11A C14A 1_555 1_555
C13A C16A 1_555 1_555
C18A C19A 1_555 1_555
O6A C20A 1_555 1_555

#END
