
#######################################################################
#
#                 Cambridge Crystallographic Data Centre
#                                CCDC 
#
#######################################################################
#
# If this CIF has been generated from an entry in the Cambridge 
# Structural Database, then it will include bibliographic, chemical, 
# crystal, experimental, refinement or atomic coordinate data resulting 
# from the CCDC's data processing and validation procedures.
#
#######################################################################

data_PAWGOJ
_symmetry_cell_setting           monoclinic
_symmetry_space_group_name_H-M   'P 21/c'
_symmetry_Int_Tables_number      14
_space_group_name_Hall           '-P 2ybc'
loop_
_symmetry_equiv_pos_site_id
_symmetry_equiv_pos_as_xyz
1 x,y,z
2 x,1/2-y,1/2+z
3 -x,-y,-z
4 -x,1/2+y,1/2-z
_cell_length_a                   10.335(8)
_cell_length_b                   19.823(4)
_cell_length_c                   15.340(4)
_cell_angle_alpha                90
_cell_angle_beta                 90.16(4)
_cell_angle_gamma                90
_cell_volume                     3142.7
loop_
_atom_site_label
_atom_site_type_symbol
_atom_site_fract_x
_atom_site_fract_y
_atom_site_fract_z
C1 C 0.4314(5) 0.3014(2) 0.7362(3)
N1 N 0.4617(6) 0.2477(3) 0.7507(4)
C2 C 0.4655(5) 0.4896(2) 0.6915(3)
N2 N 0.4788(6) 0.5454(3) 0.7020(4)
N3 N 0.2725(5) 0.3833(2) 0.5668(3)
C3 C 0.2604(8) 0.4315(3) 0.5090(5)
C4 C 0.2296(9) 0.4200(4) 0.4218(5)
C5 C 0.2163(8) 0.3561(6) 0.3957(5)
C6 C 0.2321(9) 0.3059(4) 0.4535(6)
C7 C 0.2599(8) 0.3215(3) 0.5382(5)
P1 P 0.17259(13) 0.43826(6) 0.83004(9)
C8 C -0.0007(5) 0.4224(3) 0.8130(3)
C9 C -0.0435(5) 0.3589(3) 0.7853(3)
C10 C 0.0464(6) 0.3004(3) 0.7695(5)
C11 C -0.1763(6) 0.3506(3) 0.7724(4)
C12 C -0.2627(6) 0.4015(4) 0.7856(4)
C13 C -0.2201(6) 0.4629(3) 0.8130(4)
C14 C -0.0905(5) 0.4730(3) 0.8274(4)
C15 C 0.2031(5) 0.4038(2) 0.9394(3)
C16 C 0.3287(5) 0.3993(3) 0.9727(3)
C17 C 0.4455(6) 0.4236(3) 0.9240(4)
C18 C 0.3451(6) 0.3728(3) 1.0561(4)
C19 C 0.2424(7) 0.3505(3) 1.1046(4)
C20 C 0.1195(6) 0.3542(3) 1.0720(4)
C21 C 0.1001(5) 0.3808(3) 0.9895(4)
C22 C 0.1854(5) 0.5295(2) 0.8454(3)
C23 C 0.1690(5) 0.5734(3) 0.7744(3)
C24 C 0.1298(6) 0.5489(3) 0.6847(4)
C25 C 0.1938(6) 0.6417(3) 0.7867(4)
C26 C 0.2298(6) 0.6674(3) 0.8670(5)
C27 C 0.2421(6) 0.6249(3) 0.9358(4)
C28 C 0.2192(5) 0.5565(3) 0.9258(3)
Ag1 Ag 0.32241(4) 0.40069(2) 0.71636(3)
Ag2 Ag 0.50211(5) 0.14758(2) 0.77623(4)
H1 H 0.27312 0.47679 0.52754
H2 H 0.21793 0.45624 0.38234
H3 H 0.19566 0.34619 0.33678
H4 H 0.22532 0.26014 0.43593
H5 H 0.26984 0.28564 0.57866
H6 H 0.12583 0.30803 0.79948
H7 H 0.00753 0.26037 0.79095
H8 H 0.06210 0.29635 0.70912
H9 H -0.20778 0.30788 0.75368
H10 H -0.35246 0.39412 0.77564
H11 H -0.28001 0.49857 0.82247
H12 H -0.06175 0.51599 0.84744
H13 H 0.51805 0.42350 0.96228
H14 H 0.46189 0.39431 0.87625
H15 H 0.43072 0.46796 0.90316
H16 H 0.42991 0.36985 1.07997
H17 H 0.25676 0.33247 1.16130
H18 H 0.04808 0.33875 1.10562
H19 H 0.01443 0.38318 0.96640
H20 H 0.04588 0.56477 0.67110
H21 H 0.18994 0.56564 0.64322
H22 H 0.13083 0.50108 0.68411
H23 H 0.18577 0.67170 0.73844
H24 H 0.24568 0.71437 0.87370
H25 H 0.26664 0.64222 0.99129
H26 H 0.22678 0.52733 0.97502
Ag2C Ag 0.49789(5) 0.64758(2) 0.72377(4)
N2C N 0.5212(6) 0.0454(3) 0.7980(4)
N4 N -0.3797(12) 0.3194(10) 0.4839(12)
C29 C -0.330(3) 0.3685(11) 0.5424(11)
C30 C -0.208(3) 0.3736(9) 0.5525(9)
C31 C -0.1302(12) 0.3318(12) 0.5082(15)
C32 C -0.176(2) 0.2883(7) 0.4546(9)
C33 C -0.290(2) 0.2818(6) 0.4433(7)
H27 H -0.38586 0.39732 0.57365
H28 H -0.17104 0.40598 0.59052
H29 H -0.03901 0.33339 0.51596
H30 H -0.11933 0.26005 0.42223
H31 H -0.31997 0.24833 0.40314
loop_
_geom_bond_atom_site_label_1
_geom_bond_atom_site_label_2
_geom_bond_site_symmetry_1
_geom_bond_site_symmetry_2
C1 N1 1_555 1_555
N1 Ag2 1_555 1_555
C2 N2 1_555 1_555
N2 Ag2C 1_555 1_555
N3 C3 1_555 1_555
C3 C4 1_555 1_555
C4 C5 1_555 1_555
C5 C6 1_555 1_555
C6 C7 1_555 1_555
C7 N3 1_555 1_555
P1 C8 1_555 1_555
C8 C9 1_555 1_555
C9 C10 1_555 1_555
C10 H6 1_555 1_555
C11 C9 1_555 1_555
C12 C11 1_555 1_555
C13 C12 1_555 1_555
C14 C8 1_555 1_555
C15 P1 1_555 1_555
C16 C15 1_555 1_555
C17 C16 1_555 1_555
C18 C16 1_555 1_555
C19 C18 1_555 1_555
C20 C19 1_555 1_555
C21 C15 1_555 1_555
C22 P1 1_555 1_555
C23 C22 1_555 1_555
C24 C23 1_555 1_555
C25 C23 1_555 1_555
C26 C25 1_555 1_555
C27 C26 1_555 1_555
C28 C22 1_555 1_555
N4 C29 1_555 1_555
C29 C30 1_555 1_555
C30 C31 1_555 1_555
C31 C32 1_555 1_555
C32 C33 1_555 1_555
C33 N4 1_555 1_555
Ag1 C1 1_555 1_555
Ag2 N2C 1_555 1_555
H1 C3 1_555 1_555
H2 C4 1_555 1_555
H3 C5 1_555 1_555
H4 C6 1_555 1_555
H5 C7 1_555 1_555
H7 C10 1_555 1_555
H8 C10 1_555 1_555
H9 C11 1_555 1_555
H10 C12 1_555 1_555
H11 C13 1_555 1_555
H12 C14 1_555 1_555
H13 C17 1_555 1_555
H14 C17 1_555 1_555
H15 C17 1_555 1_555
H16 C18 1_555 1_555
H17 C19 1_555 1_555
H18 C20 1_555 1_555
H19 C21 1_555 1_555
H20 C24 1_555 1_555
H21 C24 1_555 1_555
H22 C24 1_555 1_555
H23 C25 1_555 1_555
H24 C26 1_555 1_555
H25 C27 1_555 1_555
H26 C28 1_555 1_555
H27 C29 1_555 1_555
H28 C30 1_555 1_555
H29 C31 1_555 1_555
H30 C32 1_555 1_555
H31 C33 1_555 1_555
C2 Ag1 1_555 1_555
N3 Ag1 1_555 1_555
P1 Ag1 1_555 1_555
C13 C14 1_555 1_555
C20 C21 1_555 1_555
C27 C28 1_555 1_555

#END
