
#######################################################################
#
#                 Cambridge Crystallographic Data Centre
#                                CCDC 
#
#######################################################################
#
# If this CIF has been generated from an entry in the Cambridge 
# Structural Database, then it will include bibliographic, chemical, 
# crystal, experimental, refinement or atomic coordinate data resulting 
# from the CCDC's data processing and validation procedures.
#
#######################################################################

data_PAWGID01
_symmetry_cell_setting           monoclinic
_symmetry_space_group_name_H-M   'P 21/n'
_symmetry_Int_Tables_number      14
_space_group_name_Hall           '-P 2yn'
loop_
_symmetry_equiv_pos_site_id
_symmetry_equiv_pos_as_xyz
1 x,y,z
2 1/2-x,1/2+y,1/2-z
3 -x,-y,-z
4 1/2+x,1/2-y,1/2+z
_cell_length_a                   9.3275(5)
_cell_length_b                   22.9484(13)
_cell_length_c                   16.1416(11)
_cell_angle_alpha                90
_cell_angle_beta                 99.724(2)
_cell_angle_gamma                90
_cell_volume                     3405.49
loop_
_atom_site_label
_atom_site_type_symbol
_atom_site_fract_x
_atom_site_fract_y
_atom_site_fract_z
Ag1 Ag 0.68533(3) 0.260337(11) 0.355445(16)
P1 P 0.73990(8) 0.16571(3) 0.42506(5)
N1 N 0.4269(3) 0.25545(13) 0.3706(2)
C1 C 0.9252(3) 0.13736(14) 0.4314(2)
Ag2 Ag 0.27205(4) 0.252586(14) 0.53218(2)
P2 P 0.74632(8) 0.35940(3) 0.40819(5)
N2 N 0.6849(4) 0.25493(15) 0.2151(2)
C2 C 1.0041(4) 0.15476(17) 0.3705(2)
H1 H 0.9636 0.1805 0.3285
C3 C 1.1452(4) 0.1334(2) 0.3723(3)
H2 H 1.1974 0.1444 0.3306
C4 C 1.2070(4) 0.0966(2) 0.4349(3)
H3 H 1.3015 0.0832 0.4362
C5 C 1.1293(4) 0.07940(19) 0.4957(3)
H4 H 1.1715 0.0544 0.5382
C6 C 0.9879(4) 0.09919(16) 0.4941(3)
H5 H 0.9353 0.0869 0.5350
C7 C 0.7148(3) 0.17081(13) 0.53395(19)
C8 C 0.8218(3) 0.19900(14) 0.5916(2)
H6 H 0.9094 0.2095 0.5756
C9 C 0.7984(4) 0.21137(17) 0.6718(2)
H7 H 0.8700 0.2303 0.7093
C10 C 0.6696(4) 0.19590(18) 0.6968(2)
H8 H 0.6544 0.2042 0.7511
C11 C 0.5628(4) 0.16800(18) 0.6409(2)
H9 H 0.4759 0.1576 0.6578
C12 C 0.5838(4) 0.15545(15) 0.5600(2)
H10 H 0.5110 0.1368 0.5229
C13 C 0.6241(3) 0.10515(13) 0.3801(2)
C14 C 0.5377(4) 0.11374(16) 0.3027(2)
H11 H 0.5369 0.1497 0.2762
C15 C 0.4509(4) 0.0681(2) 0.2641(3)
H12 H 0.3932 0.0736 0.2118
C16 C 0.4516(4) 0.01503(19) 0.3039(3)
H13 H 0.3940 -0.0152 0.2783
C17 C 0.5359(4) 0.00635(16) 0.3805(3)
H14 H 0.5356 -0.0296 0.4071
C18 C 0.6218(3) 0.05117(14) 0.4185(2)
H15 H 0.6790 0.0450 0.4708
C19 C 0.9391(3) 0.37862(14) 0.4346(2)
C20 C 1.0222(4) 0.37876(18) 0.3712(3)
H16 H 0.9780 0.3709 0.3163
C21 C 1.1708(4) 0.3905(2) 0.3883(3)
H17 H 1.2253 0.3906 0.3450
C22 C 1.2359(4) 0.40170(18) 0.4690(3)
H18 H 1.3348 0.4101 0.4809
C23 C 1.1561(4) 0.4007(2) 0.5318(3)
H19 H 1.2017 0.4076 0.5867
C24 C 1.0075(4) 0.3895(2) 0.5157(3)
H20 H 0.9544 0.3893 0.5595
C25 C 0.6687(3) 0.41298(13) 0.3289(2)
C26 C 0.7369(4) 0.46414(15) 0.3115(2)
H21 H 0.8272 0.4739 0.3422
C27 C 0.6702(4) 0.50090(17) 0.2479(3)
H22 H 0.7174 0.5347 0.2356
C28 C 0.5363(5) 0.48780(18) 0.2036(2)
H23 H 0.4926 0.5125 0.1611
C29 C 0.4659(4) 0.43767(18) 0.2222(2)
H24 H 0.3734 0.4292 0.1931
C30 C 0.5328(4) 0.39987(15) 0.2841(2)
H25 H 0.4860 0.3657 0.2955
C31 C 0.6729(3) 0.38049(13) 0.50132(19)
C32 C 0.6565(4) 0.43782(15) 0.5247(2)
H26 H 0.6825 0.4677 0.4912
C33 C 0.6024(4) 0.45145(16) 0.5967(2)
H27 H 0.5924 0.4902 0.6117
C34 C 0.5632(4) 0.40748(17) 0.6464(2)
H28 H 0.5268 0.4166 0.6950
C35 C 0.5774(4) 0.35041(17) 0.6247(2)
H29 H 0.5510 0.3208 0.6585
C36 C 0.6316(4) 0.33686(15) 0.5520(2)
H30 H 0.6403 0.2980 0.5370
C37 C 0.3622(4) 0.25429(15) 0.4242(2)
C38 C 0.7093(5) 0.25226(17) 0.1483(3)
Ag2C Ag 0.77205(4) 0.247414(14) 0.03218(2)
C38C C 0.2093(5) 0.24774(17) 0.6483(3)
loop_
_geom_bond_atom_site_label_1
_geom_bond_atom_site_label_2
_geom_bond_site_symmetry_1
_geom_bond_site_symmetry_2
Ag1 P1 1_555 1_555
P1 C1 1_555 1_555
N1 Ag1 1_555 1_555
C1 C2 1_555 1_555
Ag2 C37 1_555 1_555
P2 Ag1 1_555 1_555
N2 Ag1 1_555 1_555
C2 H1 1_555 1_555
C3 C2 1_555 1_555
H2 C3 1_555 1_555
C4 C3 1_555 1_555
H3 C4 1_555 1_555
C5 C4 1_555 1_555
H4 C5 1_555 1_555
C6 C1 1_555 1_555
H5 C6 1_555 1_555
C7 P1 1_555 1_555
C8 C7 1_555 1_555
H6 C8 1_555 1_555
C9 C8 1_555 1_555
H7 C9 1_555 1_555
C10 C9 1_555 1_555
H8 C10 1_555 1_555
C11 C10 1_555 1_555
H9 C11 1_555 1_555
C12 C7 1_555 1_555
H10 C12 1_555 1_555
C13 P1 1_555 1_555
C14 C13 1_555 1_555
H11 C14 1_555 1_555
C15 C14 1_555 1_555
H12 C15 1_555 1_555
C16 C15 1_555 1_555
H13 C16 1_555 1_555
C17 C16 1_555 1_555
H14 C17 1_555 1_555
C18 C13 1_555 1_555
H15 C18 1_555 1_555
C19 P2 1_555 1_555
C20 C19 1_555 1_555
H16 C20 1_555 1_555
C21 C20 1_555 1_555
H17 C21 1_555 1_555
C22 C21 1_555 1_555
H18 C22 1_555 1_555
C23 C22 1_555 1_555
H19 C23 1_555 1_555
C24 C19 1_555 1_555
H20 C24 1_555 1_555
C25 P2 1_555 1_555
C26 C25 1_555 1_555
H21 C26 1_555 1_555
C27 C26 1_555 1_555
H22 C27 1_555 1_555
C28 C27 1_555 1_555
H23 C28 1_555 1_555
C29 C28 1_555 1_555
H24 C29 1_555 1_555
C30 C25 1_555 1_555
H25 C30 1_555 1_555
C31 P2 1_555 1_555
C32 C31 1_555 1_555
H26 C32 1_555 1_555
C33 C32 1_555 1_555
H27 C33 1_555 1_555
C34 C33 1_555 1_555
H28 C34 1_555 1_555
C35 C34 1_555 1_555
H29 C35 1_555 1_555
C36 C31 1_555 1_555
H30 C36 1_555 1_555
C37 N1 1_555 1_555
C38 N2 1_555 1_555
Ag2C C38 1_555 1_555
C38C Ag2 1_555 1_555
C5 C6 1_555 1_555
C11 C12 1_555 1_555
C17 C18 1_555 1_555
C23 C24 1_555 1_555
C29 C30 1_555 1_555
C35 C36 1_555 1_555

#END
