
#######################################################################
#
#                 Cambridge Crystallographic Data Centre
#                                CCDC 
#
#######################################################################
#
# If this CIF has been generated from an entry in the Cambridge 
# Structural Database, then it will include bibliographic, chemical, 
# crystal, experimental, refinement or atomic coordinate data resulting 
# from the CCDC's data processing and validation procedures.
#
#######################################################################

data_PAWGID
_symmetry_cell_setting           monoclinic
_symmetry_space_group_name_H-M   'P 21/c'
_symmetry_Int_Tables_number      14
_space_group_name_Hall           '-P 2ybc'
loop_
_symmetry_equiv_pos_site_id
_symmetry_equiv_pos_as_xyz
1 x,y,z
2 -x,1/2+y,1/2-z
3 -x,-y,-z
4 x,1/2-y,1/2+z
_cell_length_a                   9.708(2)
_cell_length_b                   20.159(8)
_cell_length_c                   19.154(4)
_cell_angle_alpha                90
_cell_angle_beta                 114.96(2)
_cell_angle_gamma                90
_cell_volume                     3398.41
loop_
_atom_site_label
_atom_site_type_symbol
_atom_site_fract_x
_atom_site_fract_y
_atom_site_fract_z
Ag1 Ag 0.17890(5) 0.18262(2) 0.17756(3)
Ag2 Ag 0.33662(7) 0.23392(3) -0.05721(3)
C1 C 0.2947(8) 0.2172(3) 0.0378(4)
N1 N 0.2676(6) 0.2053(3) 0.0876(3)
C2 C 0.3483(8) 0.2410(4) -0.1617(4)
N2 N 0.3332(7) 0.2565(3) 0.2766(3)
P1 P 0.25149(18) 0.07487(8) 0.24415(9)
C3 C 0.4322(7) 0.0408(3) 0.2519(3)
C4 C 0.5291(7) 0.0826(3) 0.2391(4)
C5 C 0.6672(8) 0.0600(4) 0.2430(4)
C6 C 0.7075(8) -0.0037(4) 0.2593(4)
C7 C 0.6115(8) -0.0472(4) 0.2722(5)
C8 C 0.4757(8) -0.0240(3) 0.2694(4)
C9 C 0.1157(6) 0.0096(3) 0.1992(3)
C10 C 0.0240(8) 0.0148(3) 0.1206(4)
C11 C -0.0788(9) -0.0338(4) 0.0818(4)
C12 C -0.0962(9) -0.0873(4) 0.1208(5)
C13 C -0.0082(9) -0.0931(4) 0.1990(5)
C14 C 0.0949(8) -0.0450(3) 0.2371(4)
C15 C 0.2684(7) 0.0770(3) 0.3429(3)
C16 C 0.1377(8) 0.0928(4) 0.3524(4)
C17 C 0.1464(9) 0.1034(4) 0.4262(5)
C18 C 0.2875(10) 0.0983(4) 0.4896(4)
C19 C 0.4122(10) 0.0816(4) 0.4799(4)
C20 C 0.4006(8) 0.0699(4) 0.4057(4)
P2 P -0.08522(18) 0.22414(8) 0.11806(8)
C21 C -0.1734(6) 0.2442(3) 0.1834(3)
C22 C -0.3153(7) 0.2710(3) 0.1592(4)
C23 C -0.3784(8) 0.2827(4) 0.2101(4)
C24 C -0.2928(8) 0.2707(4) 0.2870(4)
C25 C -0.1493(8) 0.2466(4) 0.3134(4)
C26 C -0.0870(7) 0.2321(3) 0.2614(3)
C27 C -0.1145(7) 0.3001(3) 0.0627(3)
C28 C -0.0233(8) 0.3539(3) 0.0987(4)
C29 C -0.0452(10) 0.4148(3) 0.0623(4)
C30 C -0.1525(9) 0.4214(4) -0.0117(4)
C31 C -0.2391(9) 0.3688(4) -0.0490(4)
C32 C -0.2228(8) 0.3088(3) -0.0117(4)
C33 C -0.2155(7) 0.1649(3) 0.0491(3)
C34 C -0.1785(8) 0.1459(3) -0.0115(4)
C35 C -0.2727(9) 0.1007(3) -0.0663(4)
C36 C -0.3943(9) 0.0742(3) -0.0589(4)
C37 C -0.4292(8) 0.0911(3) 0.0003(4)
C38 C -0.3387(7) 0.1375(3) 0.0557(4)
H1 H 0.50024 0.12976 0.22818
H2 H 0.73601 0.09021 0.23348
H3 H 0.80433 -0.02043 0.26102
H4 H 0.63864 -0.09442 0.28529
H5 H 0.40919 -0.05427 0.28065
H6 H 0.03571 0.05344 0.09244
H7 H -0.13853 -0.03055 0.02588
H8 H -0.17074 -0.12090 0.09432
H9 H -0.02251 -0.13148 0.22650
H10 H 0.15745 -0.04930 0.29295
H11 H 0.04036 0.09649 0.30739
H12 H 0.05493 0.11391 0.43372
H13 H 0.29590 0.10768 0.54088
H14 H 0.51042 0.07760 0.52399
H15 H 0.49011 0.05542 0.39909
H16 H -0.37022 0.28298 0.10547
H17 H -0.48223 0.29855 0.19245
H18 H -0.33588 0.27922 0.32376
H19 H -0.08871 0.24039 0.36861
H20 H 0.01554 0.21352 0.27934
H21 H 0.05988 0.34828 0.15083
H22 H 0.01683 0.45275 0.08963
H23 H -0.16680 0.46472 -0.03649
H24 H -0.31352 0.37348 -0.10320
H25 H -0.29092 0.27165 -0.03823
H26 H -0.08653 0.16444 -0.01495
H27 H -0.24884 0.08845 -0.10993
H28 H -0.45572 0.04209 -0.09762
H29 H -0.51724 0.07092 0.00366
H30 H -0.36363 0.15053 0.09856
N2C N 0.3332(7) 0.2435(3) -0.2234(3)
Ag1C Ag 0.17890(5) 0.31738(2) -0.32244(3)
loop_
_geom_bond_atom_site_label_1
_geom_bond_atom_site_label_2
_geom_bond_site_symmetry_1
_geom_bond_site_symmetry_2
Ag1 N1 1_555 1_555
Ag2 C1 1_555 1_555
C1 N1 1_555 1_555
C2 Ag2 1_555 1_555
N2 Ag1 1_555 1_555
P1 Ag1 1_555 1_555
C3 P1 1_555 1_555
C4 C3 1_555 1_555
C5 C4 1_555 1_555
C6 C5 1_555 1_555
C7 C6 1_555 1_555
C8 C3 1_555 1_555
C9 P1 1_555 1_555
C10 C9 1_555 1_555
C11 C10 1_555 1_555
C12 C11 1_555 1_555
C13 C12 1_555 1_555
C14 C9 1_555 1_555
C15 P1 1_555 1_555
C16 C15 1_555 1_555
C17 C16 1_555 1_555
C18 C17 1_555 1_555
C19 C18 1_555 1_555
C20 C15 1_555 1_555
P2 Ag1 1_555 1_555
C21 P2 1_555 1_555
C22 C21 1_555 1_555
C23 C22 1_555 1_555
C24 C23 1_555 1_555
C25 C24 1_555 1_555
C26 C21 1_555 1_555
C27 P2 1_555 1_555
C28 C27 1_555 1_555
C29 C28 1_555 1_555
C30 C29 1_555 1_555
C31 C30 1_555 1_555
C32 C27 1_555 1_555
C33 P2 1_555 1_555
C34 C33 1_555 1_555
C35 C34 1_555 1_555
C36 C35 1_555 1_555
C37 C36 1_555 1_555
C38 C33 1_555 1_555
H1 C4 1_555 1_555
H2 C5 1_555 1_555
H3 C6 1_555 1_555
H4 C7 1_555 1_555
H5 C8 1_555 1_555
H6 C10 1_555 1_555
H7 C11 1_555 1_555
H8 C12 1_555 1_555
H9 C13 1_555 1_555
H10 C14 1_555 1_555
H11 C16 1_555 1_555
H12 C17 1_555 1_555
H13 C18 1_555 1_555
H14 C19 1_555 1_555
H15 C20 1_555 1_555
H16 C22 1_555 1_555
H17 C23 1_555 1_555
H18 C24 1_555 1_555
H19 C25 1_555 1_555
H20 C26 1_555 1_555
H21 C28 1_555 1_555
H22 C29 1_555 1_555
H23 C30 1_555 1_555
H24 C31 1_555 1_555
H25 C32 1_555 1_555
H26 C34 1_555 1_555
H27 C35 1_555 1_555
H28 C36 1_555 1_555
H29 C37 1_555 1_555
H30 C38 1_555 1_555
N2C C2 1_555 1_555
Ag1C N2C 1_555 1_555
C7 C8 1_555 1_555
C13 C14 1_555 1_555
C19 C20 1_555 1_555
C25 C26 1_555 1_555
C31 C32 1_555 1_555
C37 C38 1_555 1_555

#END
