
#######################################################################
#
#                 Cambridge Crystallographic Data Centre
#                                CCDC 
#
#######################################################################
#
# If this CIF has been generated from an entry in the Cambridge 
# Structural Database, then it will include bibliographic, chemical, 
# crystal, experimental, refinement or atomic coordinate data resulting 
# from the CCDC's data processing and validation procedures.
#
#######################################################################

data_PAWKAA
_symmetry_cell_setting           monoclinic
_symmetry_space_group_name_H-M   'P 21/n'
_symmetry_Int_Tables_number      14
_space_group_name_Hall           '-P 2yn'
loop_
_symmetry_equiv_pos_site_id
_symmetry_equiv_pos_as_xyz
1 x,y,z
2 1/2-x,1/2+y,1/2-z
3 -x,-y,-z
4 1/2+x,1/2-y,1/2+z
_cell_length_a                   9.9025(8)
_cell_length_b                   6.2345(4)
_cell_length_c                   19.3319(15)
_cell_angle_alpha                90
_cell_angle_beta                 99.314(7)
_cell_angle_gamma                90
_cell_volume                     1177.76
loop_
_atom_site_label
_atom_site_type_symbol
_atom_site_fract_x
_atom_site_fract_y
_atom_site_fract_z
C1 C 0.1572(4) 0.2055(5) 0.07381(17)
C2 C 0.2230(4) 0.0264(6) 0.03737(19)
H1 H 0.1582 -0.0951 0.0282
H2 H 0.2425 0.0789 -0.0083
C3 C 0.3634(3) -0.2255(5) 0.11859(16)
H3 H 0.2932 -0.3276 0.1213
C4 C 0.4757(4) 0.0570(6) 0.0895(2)
H4 H 0.4961 0.1872 0.0679
C5 C 0.5619(4) -0.0597(6) 0.1351(2)
H5 H 0.6550 -0.0269 0.1520
C6 C 0.5444(4) -0.4057(6) 0.20305(19)
H6 H 0.6324 -0.4574 0.1913
H7 H 0.4793 -0.5274 0.1965
C7 C 0.5668(4) -0.3407(7) 0.2804(2)
N1 N 0.3511(3) -0.0489(4) 0.07999(14)
N2 N 0.4917(3) -0.2351(4) 0.15305(14)
O1 O 0.0355(2) 0.2507(4) 0.04583(12)
O2 O 0.2214(3) 0.2957(4) 0.12641(12)
O3 O 0.6066(3) -0.4755(5) 0.32308(14)
O4 O 0.5401(3) -0.1441(5) 0.29328(13)
Br1 Br -0.29285(4) 0.47709(6) 0.050678(19)
Zn1 Zn -0.06322(4) 0.42977(6) 0.10569(2)
O5 O 0.0314(3) 0.7145(5) 0.1252(2)
H8 H -0.025(5) 0.826(7) 0.143(2)
H9 H 0.027(5) 0.732(7) 0.0760(10)
O4A O -0.0401(3) 0.3559(5) 0.20672(13)
Zn1A Zn 0.56322(4) -0.07023(6) 0.39431(2)
O6 O 0.2251(3) 0.6175(5) 0.24491(14)
H10 H 0.129(2) 0.585(7) 0.231(2)
H11 H 0.240(4) 0.665(7) 0.2941(12)
loop_
_geom_bond_atom_site_label_1
_geom_bond_atom_site_label_2
_geom_bond_site_symmetry_1
_geom_bond_site_symmetry_2
C1 C2 1_555 1_555
C2 H1 1_555 1_555
H2 C2 1_555 1_555
C3 H3 1_555 1_555
C4 H4 1_555 1_555
C5 C4 1_555 1_555
H5 C5 1_555 1_555
C6 H6 1_555 1_555
H7 C6 1_555 1_555
C7 C6 1_555 1_555
N1 C2 1_555 1_555
N2 C3 1_555 1_555
O1 C1 1_555 1_555
O2 C1 1_555 1_555
O3 C7 1_555 1_555
O4 C7 1_555 1_555
Br1 Zn1 1_555 1_555
Zn1 O1 1_555 1_555
O5 Zn1 1_555 1_555
H8 O5 1_555 1_555
H9 O5 1_555 1_555
O6 H10 1_555 1_555
H11 O6 1_555 1_555
O4A Zn1 1_555 1_555
Zn1A O4 1_555 1_555
C3 N1 1_555 1_555
C4 N1 1_555 1_555
C5 N2 1_555 1_555
C6 N2 1_555 1_555

#END
