
#######################################################################
#
#                 Cambridge Crystallographic Data Centre
#                                CCDC 
#
#######################################################################
#
# If this CIF has been generated from an entry in the Cambridge 
# Structural Database, then it will include bibliographic, chemical, 
# crystal, experimental, refinement or atomic coordinate data resulting 
# from the CCDC's data processing and validation procedures.
#
#######################################################################

data_PAWQAF
_symmetry_cell_setting           triclinic
_symmetry_space_group_name_H-M   'P -1'
_symmetry_Int_Tables_number      2
_space_group_name_Hall           '-P 1'
loop_
_symmetry_equiv_pos_site_id
_symmetry_equiv_pos_as_xyz
1 x,y,z
2 -x,-y,-z
_cell_length_a                   23.063(9)
_cell_length_b                   17.557(6)
_cell_length_c                   10.170(10)
_cell_angle_alpha                90.02(5)
_cell_angle_beta                 94.88(6)
_cell_angle_gamma                101.06(3)
_cell_volume                     4026.29
loop_
_atom_site_label
_atom_site_type_symbol
_atom_site_fract_x
_atom_site_fract_y
_atom_site_fract_z
Ag1 Ag -0.26671(5) 0.50532(6) -0.08772(10)
Ag2 Ag -0.27877(6) 0.61490(7) 0.42092(10)
C1 C -0.2796(7) 0.5888(9) 0.2249(13)
N1 N -0.2826(5) 0.5594(9) 0.1210(12)
C2 C -0.2771(6) 0.6306(8) 0.6262(13)
N2 N -0.2785(6) 0.6383(8) 0.7390(14)
P1 P -0.15948(15) 0.5268(2) -0.0673(3)
C3 C -0.1235(6) 0.5442(9) -0.2249(13)
C4 C -0.1624(7) 0.5149(13) -0.3373(14)
C5 C -0.1417(7) 0.5411(11) -0.4691(12)
C6 C -0.0790(9) 0.5339(14) -0.4773(15)
C7 C -0.0400(8) 0.5575(15) -0.3702(18)
C8 C -0.0631(7) 0.5315(11) -0.2300(15)
C9 C -0.1299(6) 0.6145(8) 0.0371(12)
C10 C -0.0635(7) 0.6311(10) 0.0733(15)
C11 C -0.0484(8) 0.7052(12) 0.1669(19)
C12 C -0.0740(8) 0.7720(10) 0.1238(18)
C13 C -0.1370(7) 0.7519(9) 0.0851(16)
C14 C -0.1538(6) 0.6818(8) -0.0092(14)
C15 C -0.1315(6) 0.4471(8) 0.0145(13)
C16 C -0.1533(7) 0.4376(9) 0.1534(13)
C17 C -0.1363(8) 0.3698(10) 0.2263(15)
C18 C -0.1554(9) 0.2958(9) 0.1486(16)
C19 C -0.1330(9) 0.3022(9) 0.0121(16)
C20 C -0.1530(7) 0.3695(8) -0.0580(14)
P2 P -0.35926(15) 0.42744(19) -0.1788(3)
C21 C -0.3935(5) 0.3565(7) -0.0608(12)
C22 C -0.3460(6) 0.3263(7) 0.0282(12)
C23 C -0.3726(7) 0.2692(8) 0.1277(12)
C24 C -0.4182(6) 0.2032(8) 0.0661(13)
C25 C -0.4667(6) 0.2350(7) -0.0137(14)
C26 C -0.4417(6) 0.2889(7) -0.1171(12)
C27 C -0.4113(5) 0.4913(7) -0.2232(10)
C28 C -0.4179(7) 0.5439(8) -0.1064(13)
C29 C -0.4537(8) 0.6038(9) -0.1452(14)
C30 C -0.5137(7) 0.5707(10) -0.2155(15)
C31 C -0.5076(7) 0.5188(9) -0.3278(14)
C32 C -0.4733(6) 0.4567(7) -0.2867(12)
C33 C -0.3566(5) 0.3710(7) -0.3310(11)
C34 C -0.3395(6) 0.4287(8) -0.4396(12)
C35 C -0.3325(7) 0.3848(10) -0.5715(12)
C36 C -0.2877(7) 0.3318(10) -0.5447(13)
C37 C -0.3064(7) 0.2744(8) -0.4411(13)
C38 C -0.3136(6) 0.3159(8) -0.3082(12)
H1 H -0.11591 0.59948 -0.22707
H2 H -0.16859 0.46009 -0.33602
H3 H -0.19912 0.53126 -0.32949
H4 H -0.14529 0.59339 -0.48177
H5 H -0.16574 0.50918 -0.53657
H6 H -0.07829 0.48111 -0.49395
H7 H -0.06479 0.56429 -0.54964
H8 H -0.03039 0.61266 -0.36982
H9 H -0.00539 0.53708 -0.37953
H10 H -0.06257 0.47805 -0.21817
H11 H -0.03795 0.56122 -0.16203
H12 H -0.14490 0.60139 0.12036
H13 H -0.04326 0.64051 -0.00407
H14 H -0.05212 0.58804 0.11812
H15 H -0.06150 0.69016 0.25039
H16 H -0.00630 0.72122 0.17496
H17 H -0.05417 0.79454 0.05144
H18 H -0.06773 0.80838 0.19539
H19 H -0.15736 0.74063 0.16194
H20 H -0.14877 0.79511 0.04218
H21 H -0.13937 0.69613 -0.09173
H22 H -0.19586 0.66746 -0.01924
H23 H -0.08953 0.46004 0.01651
H24 H -0.19521 0.43117 0.14537
H25 H -0.13661 0.48345 0.20351
H26 H -0.09483 0.37932 0.24575
H27 H -0.15538 0.36462 0.30645
H28 H -0.19717 0.28223 0.14010
H29 H -0.13934 0.25601 0.19442
H30 H -0.09123 0.30986 0.01896
H31 H -0.14927 0.25557 -0.03718
H32 H -0.19502 0.35965 -0.06812
H33 H -0.13803 0.37331 -0.14254
H34 H -0.41467 0.38622 -0.01109
H35 H -0.32318 0.30155 -0.02557
H36 H -0.32098 0.36913 0.07416
H37 H -0.39059 0.29599 0.18864
H38 H -0.34140 0.24837 0.17286
H39 H -0.39987 0.17349 0.01010
H40 H -0.43504 0.17121 0.13393
H41 H -0.48642 0.26222 0.04342
H42 H -0.49441 0.19299 -0.05557
H43 H -0.42484 0.26033 -0.17813
H44 H -0.47292 0.30963 -0.16172
H45 H -0.39181 0.51883 -0.29242
H46 H -0.43690 0.51240 -0.04065
H47 H -0.37959 0.56922 -0.07167
H48 H -0.43187 0.63933 -0.20160
H49 H -0.45941 0.63034 -0.06719
H50 H -0.53819 0.54224 -0.15497
H51 H -0.53136 0.61243 -0.24882
H52 H -0.48783 0.54912 -0.39352
H53 H -0.54616 0.49424 -0.36320
H54 H -0.46954 0.42701 -0.36239
H55 H -0.49422 0.42421 -0.22489
H56 H -0.39423 0.33949 -0.35633
H57 H -0.30305 0.46206 -0.41163
H58 H -0.36960 0.45850 -0.45572
H59 H -0.36956 0.35478 -0.60360
H60 H -0.31862 0.42186 -0.63545
H61 H -0.25021 0.36238 -0.51635
H62 H -0.28485 0.30463 -0.62409
H63 H -0.34323 0.24251 -0.47099
H64 H -0.27720 0.24315 -0.42551
H65 H -0.27601 0.34447 -0.27418
H66 H -0.32810 0.27793 -0.24652
N2_2 N -0.2785(6) 0.6383(8) -0.2610(14)
Ag1_2 Ag -0.26671(5) 0.50532(6) 0.91228(10)
Ag3 Ag -0.26535(5) 0.00599(6) -0.31738(10)
Ag4 Ag -0.27832(6) 0.11284(7) -0.83274(10)
C39 C -0.2785(6) 0.0869(8) -0.6356(12)
N3 N -0.2796(6) 0.0613(8) -0.5349(11)
C40 C -0.2772(6) 0.1313(7) -1.0357(12)
N4 N -0.2767(5) 0.1372(7) -1.1512(14)
P3 P -0.15765(15) 0.0325(2) -0.2932(3)
C41 C -0.1248(6) 0.0560(9) -0.1199(12)
C42 C -0.1611(6) 0.0069(10) -0.0267(12)
C43 C -0.1410(7) 0.0350(11) 0.1172(14)
C44 C -0.0787(8) 0.0396(12) 0.1470(14)
C45 C -0.0432(8) 0.0922(12) 0.0539(16)
C46 C -0.0620(8) 0.0616(12) -0.0906(15)
C47 C -0.1308(5) 0.1185(7) -0.3938(11)
C48 C -0.0643(6) 0.1373(8) -0.4176(14)
C49 C -0.0538(7) 0.2042(10) -0.5126(15)
C50 C -0.0758(7) 0.2746(9) -0.4721(14)
C51 C -0.1395(7) 0.2562(9) -0.4466(14)
C52 C -0.1507(6) 0.1901(8) -0.3496(13)
C53 C -0.1254(6) -0.0456(8) -0.3603(13)
C54 C -0.1461(8) -0.0568(9) -0.5078(14)
C55 C -0.1200(8) -0.1232(9) -0.5662(16)
C56 C -0.1389(10) -0.1978(10) -0.4977(18)
C57 C -0.1191(10) -0.1879(10) -0.3525(18)
C58 C -0.1418(8) -0.1210(9) -0.2923(15)
P4 P -0.35811(15) -0.0726(2) -0.2652(3)
C59 C -0.3924(5) -0.1431(7) -0.3990(11)
C60 C -0.3439(6) -0.1737(7) -0.4682(12)
C61 C -0.3716(7) -0.2302(8) -0.5794(13)
C62 C -0.4176(6) -0.2959(8) -0.5360(13)
C63 C -0.4659(6) -0.2654(8) -0.4748(14)
C64 C -0.4404(6) -0.2104(7) -0.3591(13)
C65 C -0.4107(5) -0.0077(7) -0.2419(11)
C66 C -0.4157(7) 0.0444(8) -0.3617(13)
C67 C -0.4536(8) 0.1043(9) -0.3374(13)
C68 C -0.5132(7) 0.0700(10) -0.2903(13)
C69 C -0.5066(6) 0.0186(9) -0.1766(14)
C70 C -0.4714(6) -0.0428(8) -0.2019(12)
C71 C -0.3555(6) -0.1286(7) -0.1123(11)
C72 C -0.3394(6) -0.0735(8) 0.0049(13)
C73 C -0.3333(7) -0.1179(9) 0.1344(12)
C74 C -0.2866(7) -0.1690(9) 0.1259(13)
C75 C -0.3057(7) -0.2258(9) 0.0155(13)
C76 C -0.3116(6) -0.1841(8) -0.1187(12)
H67 H -0.12671 0.10936 -0.10828
H68 H -0.15677 -0.04538 -0.03668
H69 H -0.20171 0.01020 -0.04591
H70 H -0.15013 0.08481 0.12955
H71 H -0.16161 -0.00058 0.17561
H72 H -0.07002 -0.01069 0.14093
H73 H -0.06805 0.05979 0.23436
H74 H -0.04997 0.14330 0.06211
H75 H -0.00209 0.09193 0.07382
H76 H -0.05229 0.01207 -0.10023
H77 H -0.04128 0.09682 -0.14951
H78 H -0.14972 0.10129 -0.47832
H79 H -0.04137 0.15150 -0.33640
H80 H -0.05325 0.09306 -0.45454
H81 H -0.07326 0.18677 -0.59632
H82 H -0.01234 0.21850 -0.51957
H83 H -0.05318 0.29614 -0.39390
H84 H -0.07106 0.31136 -0.54064
H85 H -0.16275 0.24161 -0.52710
H86 H -0.15009 0.30090 -0.41017
H87 H -0.13013 0.20677 -0.26696
H88 H -0.19215 0.17738 -0.34053
H89 H -0.08361 -0.03008 -0.34653
H90 H -0.18811 -0.06963 -0.51824
H91 H -0.13272 -0.01017 -0.55243
H92 H -0.07817 -0.10958 -0.55758
H93 H -0.13386 -0.13005 -0.65721
H94 H -0.18065 -0.21306 -0.50981
H95 H -0.12094 -0.23658 -0.53442
H96 H -0.07723 -0.17802 -0.34064
H97 H -0.13461 -0.23440 -0.30883
H98 H -0.18368 -0.13429 -0.29530
H99 H -0.12556 -0.11423 -0.20301
H100 H -0.41331 -0.11419 -0.45905
H101 H -0.32175 -0.19925 -0.40562
H102 H -0.31825 -0.13116 -0.50361
H103 H -0.38980 -0.20269 -0.64616
H104 H -0.34111 -0.25146 -0.61416
H105 H -0.39926 -0.32576 -0.47342
H106 H -0.43437 -0.32750 -0.61080
H107 H -0.48599 -0.23834 -0.53925
H108 H -0.49323 -0.30780 -0.44386
H109 H -0.42357 -0.23879 -0.29171
H110 H -0.47171 -0.18960 -0.32672
H111 H -0.39240 0.02131 -0.16541
H112 H -0.43334 0.01296 -0.43592
H113 H -0.37723 0.07062 -0.37879
H114 H -0.43264 0.14057 -0.27270
H115 H -0.46002 0.13022 -0.41779
H116 H -0.53727 0.04084 -0.36031
H117 H -0.53158 0.11091 -0.26393
H118 H -0.48733 0.04963 -0.10345
H119 H -0.54504 -0.00641 -0.15657
H120 H -0.49197 -0.07655 -0.27056
H121 H -0.46713 -0.07131 -0.12352
H122 H -0.39356 -0.15956 -0.10302
H123 H -0.30300 -0.03973 -0.00677
H124 H -0.36979 -0.04402 0.00983
H125 H -0.37034 -0.14957 0.14890
H126 H -0.32125 -0.08166 0.20561
H127 H -0.24954 -0.13749 0.11122
H128 H -0.28290 -0.19603 0.20628
H129 H -0.34296 -0.25679 0.03027
H130 H -0.27712 -0.25797 0.01117
H131 H -0.27397 -0.15528 -0.13661
H132 H -0.32570 -0.22168 -0.18696
N4_2 N -0.2767(5) 0.1372(7) -0.1512(14)
Ag3_2 Ag -0.26535(5) 0.00599(6) -1.31738(10)
loop_
_geom_bond_atom_site_label_1
_geom_bond_atom_site_label_2
_geom_bond_site_symmetry_1
_geom_bond_site_symmetry_2
Ag1 N1 1_555 1_555
Ag2 C1 1_555 1_555
C1 N1 1_555 1_555
C2 Ag2 1_555 1_555
N2 C2 1_555 1_555
P1 Ag1 1_555 1_555
C3 P1 1_555 1_555
C4 C3 1_555 1_555
C5 C4 1_555 1_555
C6 C5 1_555 1_555
C7 C6 1_555 1_555
C8 C3 1_555 1_555
C9 P1 1_555 1_555
C10 C9 1_555 1_555
C11 C10 1_555 1_555
C12 C11 1_555 1_555
C13 C12 1_555 1_555
C14 C9 1_555 1_555
C15 P1 1_555 1_555
C16 C15 1_555 1_555
C17 C16 1_555 1_555
C18 C17 1_555 1_555
C19 C18 1_555 1_555
C20 C15 1_555 1_555
P2 Ag1 1_555 1_555
C21 P2 1_555 1_555
C22 C21 1_555 1_555
C23 C22 1_555 1_555
C24 C23 1_555 1_555
C25 C24 1_555 1_555
C26 C21 1_555 1_555
C27 P2 1_555 1_555
C28 C27 1_555 1_555
C29 C28 1_555 1_555
C30 C29 1_555 1_555
C31 C30 1_555 1_555
C32 C27 1_555 1_555
C33 P2 1_555 1_555
C34 C33 1_555 1_555
C35 C34 1_555 1_555
C36 C35 1_555 1_555
C37 C36 1_555 1_555
C38 C33 1_555 1_555
Ag3 N3 1_555 1_555
Ag4 C39 1_555 1_555
C39 N3 1_555 1_555
C40 Ag4 1_555 1_555
N4 C40 1_555 1_555
P3 Ag3 1_555 1_555
C41 P3 1_555 1_555
C42 C41 1_555 1_555
C43 C42 1_555 1_555
C44 C43 1_555 1_555
C45 C44 1_555 1_555
C46 C41 1_555 1_555
C47 P3 1_555 1_555
C48 C47 1_555 1_555
C49 C48 1_555 1_555
C50 C49 1_555 1_555
C51 C50 1_555 1_555
C52 C47 1_555 1_555
C53 P3 1_555 1_555
C54 C53 1_555 1_555
C55 C54 1_555 1_555
C56 C55 1_555 1_555
C57 C56 1_555 1_555
C58 C53 1_555 1_555
P4 Ag3 1_555 1_555
C59 P4 1_555 1_555
C60 C59 1_555 1_555
C61 C60 1_555 1_555
C62 C61 1_555 1_555
C63 C62 1_555 1_555
C64 C59 1_555 1_555
C65 P4 1_555 1_555
C66 C65 1_555 1_555
C67 C66 1_555 1_555
C68 C67 1_555 1_555
C69 C68 1_555 1_555
C70 C65 1_555 1_555
C71 P4 1_555 1_555
C72 C71 1_555 1_555
C73 C72 1_555 1_555
C74 C73 1_555 1_555
C75 C74 1_555 1_555
C76 C71 1_555 1_555
H1 C3 1_555 1_555
H2 C4 1_555 1_555
H3 C4 1_555 1_555
H4 C5 1_555 1_555
H5 C5 1_555 1_555
H6 C6 1_555 1_555
H7 C6 1_555 1_555
H8 C7 1_555 1_555
H9 C7 1_555 1_555
H10 C8 1_555 1_555
H11 C8 1_555 1_555
H12 C9 1_555 1_555
H13 C10 1_555 1_555
H14 C10 1_555 1_555
H15 C11 1_555 1_555
H16 C11 1_555 1_555
H17 C12 1_555 1_555
H18 C12 1_555 1_555
H19 C13 1_555 1_555
H20 C13 1_555 1_555
H21 C14 1_555 1_555
H22 C14 1_555 1_555
H23 C15 1_555 1_555
H24 C16 1_555 1_555
H25 C16 1_555 1_555
H26 C17 1_555 1_555
H27 C17 1_555 1_555
H28 C18 1_555 1_555
H29 C18 1_555 1_555
H30 C19 1_555 1_555
H31 C19 1_555 1_555
H32 C20 1_555 1_555
H33 C20 1_555 1_555
H34 C21 1_555 1_555
H35 C22 1_555 1_555
H36 C22 1_555 1_555
H37 C23 1_555 1_555
H38 C23 1_555 1_555
H39 C24 1_555 1_555
H40 C24 1_555 1_555
H41 C25 1_555 1_555
H42 C25 1_555 1_555
H43 C26 1_555 1_555
H44 C26 1_555 1_555
H45 C27 1_555 1_555
H46 C28 1_555 1_555
H47 C28 1_555 1_555
H48 C29 1_555 1_555
H49 C29 1_555 1_555
H50 C30 1_555 1_555
H51 C30 1_555 1_555
H52 C31 1_555 1_555
H53 C31 1_555 1_555
H54 C32 1_555 1_555
H55 C32 1_555 1_555
H56 C33 1_555 1_555
H57 C34 1_555 1_555
H58 C34 1_555 1_555
H59 C35 1_555 1_555
H60 C35 1_555 1_555
H61 C36 1_555 1_555
H62 C36 1_555 1_555
H63 C37 1_555 1_555
H64 C37 1_555 1_555
H65 C38 1_555 1_555
H66 C38 1_555 1_555
H67 C41 1_555 1_555
H68 C42 1_555 1_555
H69 C42 1_555 1_555
H70 C43 1_555 1_555
H71 C43 1_555 1_555
H72 C44 1_555 1_555
H73 C44 1_555 1_555
H74 C45 1_555 1_555
H75 C45 1_555 1_555
H76 C46 1_555 1_555
H77 C46 1_555 1_555
H78 C47 1_555 1_555
H79 C48 1_555 1_555
H80 C48 1_555 1_555
H81 C49 1_555 1_555
H82 C49 1_555 1_555
H83 C50 1_555 1_555
H84 C50 1_555 1_555
H85 C51 1_555 1_555
H86 C51 1_555 1_555
H87 C52 1_555 1_555
H88 C52 1_555 1_555
H89 C53 1_555 1_555
H90 C54 1_555 1_555
H91 C54 1_555 1_555
H92 C55 1_555 1_555
H93 C55 1_555 1_555
H94 C56 1_555 1_555
H95 C56 1_555 1_555
H96 C57 1_555 1_555
H97 C57 1_555 1_555
H98 C58 1_555 1_555
H99 C58 1_555 1_555
H100 C59 1_555 1_555
H101 C60 1_555 1_555
H102 C60 1_555 1_555
H103 C61 1_555 1_555
H104 C61 1_555 1_555
H105 C62 1_555 1_555
H106 C62 1_555 1_555
H107 C63 1_555 1_555
H108 C63 1_555 1_555
H109 C64 1_555 1_555
H110 C64 1_555 1_555
H111 C65 1_555 1_555
H112 C66 1_555 1_555
H113 C66 1_555 1_555
H114 C67 1_555 1_555
H115 C67 1_555 1_555
H116 C68 1_555 1_555
H117 C68 1_555 1_555
H118 C69 1_555 1_555
H119 C69 1_555 1_555
H120 C70 1_555 1_555
H121 C70 1_555 1_555
H122 C71 1_555 1_555
H123 C72 1_555 1_555
H124 C72 1_555 1_555
H125 C73 1_555 1_555
H126 C73 1_555 1_555
H127 C74 1_555 1_555
H128 C74 1_555 1_555
H129 C75 1_555 1_555
H130 C75 1_555 1_555
H131 C76 1_555 1_555
H132 C76 1_555 1_555
N2_2 Ag1 1_555 1_555
Ag1_2 N2 1_555 1_555
N4_2 Ag3 1_555 1_555
Ag3_2 N4 1_555 1_555
C7 C8 1_555 1_555
C13 C14 1_555 1_555
C19 C20 1_555 1_555
C25 C26 1_555 1_555
C31 C32 1_555 1_555
C37 C38 1_555 1_555
C45 C46 1_555 1_555
C51 C52 1_555 1_555
C57 C58 1_555 1_555
C63 C64 1_555 1_555
C69 C70 1_555 1_555
C75 C76 1_555 1_555

#END
