
#######################################################################
#
#                 Cambridge Crystallographic Data Centre
#                                CCDC 
#
#######################################################################
#
# If this CIF has been generated from an entry in the Cambridge 
# Structural Database, then it will include bibliographic, chemical, 
# crystal, experimental, refinement or atomic coordinate data resulting 
# from the CCDC's data processing and validation procedures.
#
#######################################################################

data_PAWSEM
_symmetry_cell_setting           monoclinic
_symmetry_space_group_name_H-M   'P 21/c'
_symmetry_Int_Tables_number      14
_space_group_name_Hall           '-P 2ybc'
loop_
_symmetry_equiv_pos_site_id
_symmetry_equiv_pos_as_xyz
1 x,y,z
2 -x,1/2+y,1/2-z
3 -x,-y,-z
4 x,1/2-y,1/2+z
_cell_length_a                   9.9665(1)
_cell_length_b                   15.5199(2)
_cell_length_c                   21.4797(2)
_cell_angle_alpha                90
_cell_angle_beta                 101.2908(8)
_cell_angle_gamma                90
_cell_volume                     3258.16
loop_
_atom_site_label
_atom_site_type_symbol
_atom_site_fract_x
_atom_site_fract_y
_atom_site_fract_z
Sn1 Sn 0.390615(18) 0.162857(11) 0.243906(8)
Br1 Br 0.88589(3) -0.679801(18) 0.617646(13)
O1 O 0.2989(2) 0.13338(12) 0.32470(8)
O2 O 0.37791(19) 0.25789(12) 0.36915(8)
O3 O 0.5323(2) -0.31472(12) 0.35246(8)
N1 N 0.2910(3) 0.02614(15) 0.42783(11)
N2 N 0.3062(3) -0.03944(15) 0.46149(10)
N3 N 0.5923(2) -0.38239(14) 0.46631(10)
H1 H 0.591(4) -0.381(2) 0.4304(17)
C1 C 0.3107(3) 0.19101(16) 0.36883(12)
C2 C 0.2345(3) 0.17669(16) 0.42201(12)
C3 C 0.2297(3) 0.09787(18) 0.45283(13)
C4 C 0.1644(4) 0.0921(2) 0.50480(15)
H2 H 0.1630 0.0388 0.5263
C5 C 0.1022(4) 0.1635(2) 0.52498(15)
H3 H 0.0578 0.1591 0.5602
C6 C 0.1043(3) 0.24160(19) 0.49398(14)
H4 H 0.0606 0.2906 0.5076
C7 C 0.1703(3) 0.24811(17) 0.44321(12)
H5 H 0.1721 0.3020 0.4224
C8 C 0.3590(3) -0.10995(17) 0.43175(12)
C9 C 0.4156(3) -0.17727(16) 0.46926(12)
H6 H 0.4153 -0.1761 0.5135
C10 C 0.4744(3) -0.24828(16) 0.44331(11)
C11 C 0.4739(3) -0.25112(16) 0.37658(11)
C12 C 0.4070(3) -0.18294(17) 0.33906(12)
H7 H 0.3988 -0.1853 0.2943
C13 C 0.3539(3) -0.11379(18) 0.36545(12)
H8 H 0.3133 -0.0679 0.3391
C14 C 0.5343(3) -0.31432(16) 0.48509(12)
H9 H 0.5323 -0.3088 0.5289
C15 C 0.6586(3) -0.45048(16) 0.50419(12)
C16 C 0.6681(3) -0.45411(17) 0.56958(12)
H10 H 0.6283 -0.4102 0.5909
C17 C 0.7361(3) -0.52237(18) 0.60324(12)
H11 H 0.7441 -0.5252 0.6480
C18 C 0.7926(3) -0.58678(17) 0.57166(12)
C19 C 0.7808(3) -0.5838(2) 0.50665(13)
H12 H 0.8180 -0.6286 0.4851
C20 C 0.7142(3) -0.51490(19) 0.47312(13)
H13 H 0.7068 -0.5120 0.4284
C21 C 0.2546(3) 0.26980(16) 0.22217(12)
C22 C 0.2861(4) 0.34845(19) 0.19745(16)
H14 H 0.3733 0.3560 0.1866
C23 C 0.1936(4) 0.4161(2) 0.18824(18)
H15 H 0.2188 0.4697 0.1725
C24 C 0.0646(4) 0.4057(2) 0.20189(16)
H16 H 0.0002 0.4515 0.1947
C25 C 0.0304(3) 0.32859(19) 0.22597(15)
H17 H -0.0580 0.3207 0.2354
C26 C 0.1256(3) 0.26194(18) 0.23651(14)
H18 H 0.1014 0.2094 0.2541
C27 C 0.3247(3) 0.04014(16) 0.20413(11)
C28 C 0.4228(3) -0.02290(18) 0.19947(12)
H19 H 0.5172 -0.0091 0.2112
C29 C 0.3839(3) -0.10559(18) 0.17792(13)
H20 H 0.4517 -0.1475 0.1747
C30 C 0.2469(4) -0.12683(18) 0.16115(13)
H21 H 0.2202 -0.1833 0.1467
C31 C 0.1492(3) -0.0654(2) 0.16563(14)
H22 H 0.0549 -0.0796 0.1542
C32 C 0.1880(3) 0.01735(18) 0.18684(13)
H23 H 0.1195 0.0590 0.1895
C33 C 0.5991(3) 0.15212(16) 0.29288(12)
C34 C 0.6292(3) 0.13678(19) 0.35805(12)
H24 H 0.5564 0.1327 0.3806
C35 C 0.7628(3) 0.12727(19) 0.39068(13)
H25 H 0.7808 0.1180 0.4353
C36 C 0.8703(3) 0.13127(18) 0.35839(14)
H26 H 0.9623 0.1264 0.3806
C37 C 0.8411(3) 0.14261(19) 0.29286(15)
H27 H 0.9135 0.1429 0.2699
C38 C 0.7084(3) 0.15337(17) 0.26096(13)
H28 H 0.6908 0.1618 0.2163
Sn1A Sn 0.609385(18) -0.337143(11) 0.256094(8)
O3A O 0.4677(2) 0.18528(12) 0.14754(8)
loop_
_geom_bond_atom_site_label_1
_geom_bond_atom_site_label_2
_geom_bond_site_symmetry_1
_geom_bond_site_symmetry_2
Sn1 O1 1_555 1_555
Br1 C18 1_555 1_555
O1 C1 1_555 1_555
O2 C1 1_555 1_555
O3 C11 1_555 1_555
N1 N2 1_555 1_555
N2 C8 1_555 1_555
N3 H1 1_555 1_555
C1 C2 1_555 1_555
C2 C3 1_555 1_555
C3 N1 1_555 1_555
C4 C3 1_555 1_555
H2 C4 1_555 1_555
C5 C4 1_555 1_555
H3 C5 1_555 1_555
C6 C5 1_555 1_555
H4 C6 1_555 1_555
C7 C2 1_555 1_555
H5 C7 1_555 1_555
C8 C9 1_555 1_555
C9 H6 1_555 1_555
C10 C9 1_555 1_555
C11 C10 1_555 1_555
C12 C11 1_555 1_555
H7 C12 1_555 1_555
C13 C8 1_555 1_555
H8 C13 1_555 1_555
C14 N3 1_555 1_555
H9 C14 1_555 1_555
C15 N3 1_555 1_555
C16 C15 1_555 1_555
H10 C16 1_555 1_555
C17 C16 1_555 1_555
H11 C17 1_555 1_555
C18 C17 1_555 1_555
C19 C18 1_555 1_555
H12 C19 1_555 1_555
C20 C15 1_555 1_555
H13 C20 1_555 1_555
C21 Sn1 1_555 1_555
C22 C21 1_555 1_555
H14 C22 1_555 1_555
C23 C22 1_555 1_555
H15 C23 1_555 1_555
C24 C23 1_555 1_555
H16 C24 1_555 1_555
C25 C24 1_555 1_555
H17 C25 1_555 1_555
C26 C21 1_555 1_555
H18 C26 1_555 1_555
C27 Sn1 1_555 1_555
C28 C27 1_555 1_555
H19 C28 1_555 1_555
C29 C28 1_555 1_555
H20 C29 1_555 1_555
C30 C29 1_555 1_555
H21 C30 1_555 1_555
C31 C30 1_555 1_555
H22 C31 1_555 1_555
C32 C27 1_555 1_555
H23 C32 1_555 1_555
C33 Sn1 1_555 1_555
C34 C33 1_555 1_555
H24 C34 1_555 1_555
C35 C34 1_555 1_555
H25 C35 1_555 1_555
C36 C35 1_555 1_555
H26 C36 1_555 1_555
C37 C36 1_555 1_555
H27 C37 1_555 1_555
C38 C33 1_555 1_555
H28 C38 1_555 1_555
Sn1A O3 1_555 1_555
O3A Sn1 1_555 1_555
C6 C7 1_555 1_555
C10 C14 1_555 1_555
C12 C13 1_555 1_555
C19 C20 1_555 1_555
C25 C26 1_555 1_555
C31 C32 1_555 1_555
C37 C38 1_555 1_555

#END
