
#######################################################################
#
#                 Cambridge Crystallographic Data Centre
#                                CCDC 
#
#######################################################################
#
# If this CIF has been generated from an entry in the Cambridge 
# Structural Database, then it will include bibliographic, chemical, 
# crystal, experimental, refinement or atomic coordinate data resulting 
# from the CCDC's data processing and validation procedures.
#
#######################################################################

data_PAXBOG
_symmetry_cell_setting           monoclinic
_symmetry_space_group_name_H-M   'C 2/c'
_symmetry_Int_Tables_number      15
_space_group_name_Hall           '-C 2yn'
loop_
_symmetry_equiv_pos_site_id
_symmetry_equiv_pos_as_xyz
1 x,y,z
2 1/2+x,1/2+y,z
3 -x,y,1/2-z
4 1/2-x,1/2+y,1/2-z
5 -x,-y,-z
6 1/2-x,1/2-y,-z
7 x,-y,1/2+z
8 1/2+x,1/2-y,1/2+z
_cell_length_a                   13.870(4)
_cell_length_b                   10.178(3)
_cell_length_c                   17.410(3)
_cell_angle_alpha                90.00
_cell_angle_beta                 90.053(2)
_cell_angle_gamma                90.00
_cell_volume                     2457.75
loop_
_atom_site_label
_atom_site_type_symbol
_atom_site_fract_x
_atom_site_fract_y
_atom_site_fract_z
Co1 Co 0.77284(4) 1.20862(5) 0.57316(3)
N1 N 0.7959(2) 1.1221(4) 0.6759(2)
N2 N 0.7794(4) 0.9984(5) 0.7753(3)
H1 H 0.7537 0.9442 0.8071
O1 O 0.7015(2) 1.0540(3) 0.52357(19)
O2 O 0.6749(2) 1.1084(3) 0.40230(19)
O3 O 0.3588(2) 0.7165(3) 0.4033(2)
O4 O 0.3980(2) 0.6666(3) 0.52264(19)
C1 C 0.6428(3) 0.8883(4) 0.4408(2)
H2 H 0.6997 0.8432 0.4205
C2 C 0.6126(3) 0.8125(4) 0.5108(3)
H3 H 0.5542 0.8508 0.5317
H4 H 0.6626 0.8189 0.5496
C3 C 0.5948(3) 0.6694(4) 0.4919(3)
H5 H 0.5723 0.6243 0.5376
H6 H 0.6548 0.6289 0.4761
C4 C 0.5201(3) 0.6538(4) 0.4280(2)
H7 H 0.5216 0.5613 0.4123
C5 C 0.5493(3) 0.7340(4) 0.3584(3)
H8 H 0.6081 0.6980 0.3368
H9 H 0.4992 0.7280 0.3196
C6 C 0.5654(3) 0.8766(4) 0.3789(3)
H10 H 0.5056 0.9146 0.3974
H11 H 0.5852 0.9249 0.3335
C7 C 0.6741(3) 1.0283(4) 0.4568(3)
C8 C 0.4189(3) 0.6823(4) 0.4536(3)
C9 C 0.7419(4) 1.0393(6) 0.7111(3)
H12 H 0.6823 1.0116 0.6926
C10 C 0.8619(6) 1.0541(9) 0.7821(4)
H13 H 0.9055 1.0425 0.8221
C11 C 0.8736(4) 1.1325(8) 0.7206(4)
H14 H 0.9270 1.1851 0.7109
Co1E Co 0.72716(4) 1.29138(5) 0.42684(3)
Co1D Co 0.22716(4) 0.79138(5) 0.42684(3)
Co1A Co 0.27284(4) 0.70862(5) 0.57316(3)
O2E O 0.8251(2) 1.3916(3) 0.59770(19)
O3D O 0.6412(2) 1.2835(3) 0.5967(2)
O4A O 0.8980(2) 1.1666(3) 0.52264(19)
loop_
_geom_bond_atom_site_label_1
_geom_bond_atom_site_label_2
_geom_bond_site_symmetry_1
_geom_bond_site_symmetry_2
Co1 N1 1_555 1_555
N1 C9 1_555 1_555
N2 H1 1_555 1_555
O1 Co1 1_555 1_555
O2 C7 1_555 1_555
O3 C8 1_555 1_555
O4 C8 1_555 1_555
C1 H2 1_555 1_555
C2 C1 1_555 1_555
H3 C2 1_555 1_555
H4 C2 1_555 1_555
C3 C2 1_555 1_555
H5 C3 1_555 1_555
H6 C3 1_555 1_555
C4 C3 1_555 1_555
H7 C4 1_555 1_555
C5 C4 1_555 1_555
H8 C5 1_555 1_555
H9 C5 1_555 1_555
C6 C1 1_555 1_555
H10 C6 1_555 1_555
H11 C6 1_555 1_555
C7 O1 1_555 1_555
C8 C4 1_555 1_555
C9 N2 1_555 1_555
H12 C9 1_555 1_555
C10 N2 1_555 1_555
H13 C10 1_555 1_555
C11 N1 1_555 1_555
H14 C11 1_555 1_555
Co1E O2 1_555 1_555
Co1D O3 1_555 1_555
Co1A O4 1_555 1_555
O2E Co1 1_555 1_555
O3D Co1 1_555 1_555
O4A Co1 1_555 1_555
C1 C7 1_555 1_555
C5 C6 1_555 1_555
C10 C11 1_555 1_555

#END
