
#######################################################################
#
#                 Cambridge Crystallographic Data Centre
#                                CCDC 
#
#######################################################################
#
# If this CIF has been generated from an entry in the Cambridge 
# Structural Database, then it will include bibliographic, chemical, 
# crystal, experimental, refinement or atomic coordinate data resulting 
# from the CCDC's data processing and validation procedures.
#
#######################################################################

data_PAXPEJ
_symmetry_cell_setting           orthorhombic
_symmetry_space_group_name_H-M   'P c a 21'
_symmetry_Int_Tables_number      29
_space_group_name_Hall           'P 2c -2ac'
loop_
_symmetry_equiv_pos_site_id
_symmetry_equiv_pos_as_xyz
1 x,y,z
2 -x,-y,1/2+z
3 1/2-x,y,1/2+z
4 1/2+x,-y,z
_cell_length_a                   9.5111(2)
_cell_length_b                   7.2829(1)
_cell_length_c                   20.3977(5)
_cell_angle_alpha                90
_cell_angle_beta                 90
_cell_angle_gamma                90
_cell_volume                     1412.92
loop_
_atom_site_label
_atom_site_type_symbol
_atom_site_fract_x
_atom_site_fract_y
_atom_site_fract_z
Ga1 Ga 0.6160(4) -0.1377(6) 0.3907(3)
Ga2 Ga 0.6206(4) 0.3599(6) 0.3980(3)
P1 P 0.4063(8) 0.114(1) 0.3030(4)
P2 P 0.8317(7) -0.384(1) 0.4794(4)
O1 O 0.480(1) 0.280(1) 0.3344(6)
O2 O 0.462(1) -0.068(1) 0.3271(7)
O3 O 0.2436(9) 0.134(2) 0.3141(5)
O4 O 0.770(1) -0.224(2) 0.4402(6)
O5 O 0.781(1) -0.572(1) 0.4577(6)
O6 O 0.9978(8) -0.372(2) 0.4754(5)
O7 O 0.363(2) -0.163(2) 0.0738(7)
O8 O 0.506(2) 0.074(2) 0.0876(8)
O9 O 0.749(2) -0.543(2) 0.7062(8)
O10 O 0.885(2) -0.294(2) 0.6998(8)
O11 O 0.584(1) -0.3914(8) 0.3732(6)
O12 O 0.659(1) 0.1079(8) 0.4193(6)
O13 O 0.479(1) -0.163(1) 0.4684(6)
O14 O 0.763(1) 0.338(1) 0.3223(5)
C1 C 0.437(1) 0.138(2) 0.2158(5)
C2 C 0.368(2) -0.024(2) 0.1815(5)
C3 C 0.400(3) -0.020(3) 0.1088(6)
C4 C 0.788(1) -0.346(2) 0.5656(5)
C5 C 0.869(2) -0.492(2) 0.6042(5)
C6 C 0.847(2) -0.455(2) 0.6770(5)
O3C O 0.7436(9) -0.134(2) 0.3141(5)
O5_2 O 0.781(1) 0.428(1) 0.4577(6)
O6C O 0.4978(8) 0.372(2) 0.4754(5)
O11_2 O 0.584(1) 0.6086(8) 0.3732(6)
Ga1C Ga 0.1160(4) 0.1377(6) 0.3907(3)
Ga2_2 Ga 0.6206(4) -0.6401(6) 0.3980(3)
Ga2C Ga 1.1206(4) -0.3599(6) 0.3980(3)
loop_
_geom_bond_atom_site_label_1
_geom_bond_atom_site_label_2
_geom_bond_site_symmetry_1
_geom_bond_site_symmetry_2
Ga1 O2 1_555 1_555
Ga2 O1 1_555 1_555
P1 O1 1_555 1_555
P2 O4 1_555 1_555
O2 P1 1_555 1_555
O3 P1 1_555 1_555
O4 Ga1 1_555 1_555
O5 P2 1_555 1_555
O6 P2 1_555 1_555
O7 C3 1_555 1_555
O8 C3 1_555 1_555
O9 C6 1_555 1_555
O10 C6 1_555 1_555
O11 Ga1 1_555 1_555
O12 Ga1 1_555 1_555
O13 Ga1 1_555 1_555
O14 Ga2 1_555 1_555
C1 P1 1_555 1_555
C2 C1 1_555 1_555
C3 C2 1_555 1_555
C4 P2 1_555 1_555
C5 C4 1_555 1_555
C6 C5 1_555 1_555
O3C Ga1 1_555 1_555
O5_2 Ga2 1_555 1_555
O6C Ga2 1_555 1_555
O11_2 Ga2 1_555 1_555
Ga1C O3 1_555 1_555
Ga2_2 O5 1_555 1_555
Ga2C O6 1_555 1_555
Ga2 O12 1_555 1_555
O11 Ga2_2 1_555 1_555

#END
