
#######################################################################
#
#                 Cambridge Crystallographic Data Centre
#                                CCDC 
#
#######################################################################
#
# If this CIF has been generated from an entry in the Cambridge 
# Structural Database, then it will include bibliographic, chemical, 
# crystal, experimental, refinement or atomic coordinate data resulting 
# from the CCDC's data processing and validation procedures.
#
#######################################################################

data_PAXQIO
_symmetry_cell_setting           triclinic
_symmetry_space_group_name_H-M   'P -1'
_symmetry_Int_Tables_number      2
_space_group_name_Hall           '-P 1'
loop_
_symmetry_equiv_pos_site_id
_symmetry_equiv_pos_as_xyz
1 x,y,z
2 -x,-y,-z
_cell_length_a                   7.895(2)
_cell_length_b                   8.095(3)
_cell_length_c                   12.643(3)
_cell_angle_alpha                91.95(2)
_cell_angle_beta                 96.112(14)
_cell_angle_gamma                98.512(13)
_cell_volume                     793.553
loop_
_atom_site_label
_atom_site_type_symbol
_atom_site_fract_x
_atom_site_fract_y
_atom_site_fract_z
O1 O 0.4423(16) 0.7248(18) -0.0086(9)
O2 O 0.4978(8) 0.5965(9) -0.2025(6)
O3 O 0.5914(16) 0.9362(11) -0.1507(10)
O4 O 0.7815(13) 0.7106(12) -0.0533(10)
N1 N 0.7230(9) 0.8434(8) 0.2395(6)
N2 N 0.9271(9) 0.8143(9) 0.3881(6)
N3 N 0.0437(9) 0.4257(9) 0.3093(6)
N4 N 0.1954(9) 0.6159(9) 0.2010(6)
C1 C 0.8420(13) 0.9529(11) 0.2002(8)
C2 C 1.0074(12) 0.9968(11) 0.2549(9)
C3 C 1.0445(11) 0.9219(11) 0.3472(8)
C4 C 0.7728(11) 0.7760(10) 0.3309(7)
C5 C -0.1012(11) 0.4187(13) 0.2412(8)
C6 C -0.1018(12) 0.5107(12) 0.1493(8)
C7 C 0.0502(12) 0.6085(11) 0.1339(7)
C8 C 0.1828(11) 0.5216(11) 0.2858(7)
Re1 Re 0.5794(1) 0.7424(1) -0.1024(1)
Ag1 Ag 0.9470(1) 0.6984(1) 0.5411(1)
Ag2 Ag 0.4427(1) 0.7788(1) 0.1857(1)
H1 H 0.8138(13) 1.0012(11) 0.1345(8)
H2 H 1.0909(12) 1.0766(11) 0.2282(9)
H3 H 1.1575(11) 0.9469(11) 0.3837(8)
H4 H 0.6913(11) 0.6938(10) 0.3573(7)
H5 H -0.2039(11) 0.3505(13) 0.2557(8)
H6 H -0.2024(12) 0.5056(12) 0.1001(8)
H7 H 0.0529(12) 0.6741(11) 0.0730(7)
H8 H 0.2846(11) 0.5243(11) 0.3337(7)
Ag2A Ag 0.5573(1) 1.2212(1) -0.1857(1)
O1A O 0.5577(16) 1.2752(18) 0.0086(9)
Re1A Re 0.4206(1) 1.2576(1) 0.1024(1)
O2A O 0.5022(8) 1.4035(9) 0.2025(6)
O3A O 0.4086(16) 1.0638(11) 0.1507(10)
N3A N 0.9563(9) 0.5743(9) 0.6907(6)
C5A C 1.1012(11) 0.5813(13) 0.7588(8)
C6A C 1.1018(12) 0.4893(12) 0.8507(8)
C7A C 0.9498(12) 0.3915(11) 0.8661(7)
N4A N 0.8046(9) 0.3841(9) 0.7990(6)
C8A C 0.8172(11) 0.4784(11) 0.7142(7)
H8A H 0.7154(11) 0.4757(11) 0.6663(7)
Ag2A_2 Ag 0.5573(1) 0.2212(1) 0.8143(1)
O1A_2 O 0.5577(16) 0.2752(18) 1.0086(9)
O3_2 O 0.5914(16) -0.0638(11) 0.8493(10)
N1A N 0.2770(9) 0.1566(8) 0.7605(6)
C1A C 0.1580(13) 0.0471(11) 0.7998(8)
C2A C -0.0074(12) 0.0032(11) 0.7451(9)
C3A C -0.0445(11) 0.0781(11) 0.6528(8)
N2A N 0.0729(9) 0.1857(9) 0.6119(6)
C4A C 0.2272(11) 0.2240(10) 0.6691(7)
H4A H 0.3087(11) 0.3062(10) 0.6427(7)
Ag1A Ag 0.0530(1) 0.3016(1) 0.4589(1)
H3A H -0.1575(11) 0.0531(11) 0.6163(8)
H2A H -0.0909(12) -0.0766(11) 0.7718(9)
H1A H 0.1862(13) -0.0012(11) 0.8655(8)
H7A H 0.9471(12) 0.3259(11) 0.9270(7)
H6A H 1.2024(12) 0.4944(12) 0.8999(8)
H5A H 1.2039(11) 0.6495(13) 0.7443(8)
O4A O 0.2185(13) 1.2894(12) 0.0533(10)
O5 O 0.4153(9) 0.8104(8) 0.4167(5)
O6 O 0.3356(8) 0.5405(8) 0.5451(5)
O7 O 0.3027(9) 0.8626(9) 0.6175(7)
O8 O 0.6406(8) 0.7797(8) 0.6028(6)
Re2 Re 0.4270(1) 0.7491(1) 0.5470(1)
loop_
_geom_bond_atom_site_label_1
_geom_bond_atom_site_label_2
_geom_bond_site_symmetry_1
_geom_bond_site_symmetry_2
O1 Re1 1_555 1_555
O2 Re1 1_555 1_555
O3 Re1 1_555 1_555
O4 Re1 1_555 1_555
N1 C1 1_555 1_555
N2 C3 1_555 1_555
N3 C5 1_555 1_555
N4 C7 1_555 1_555
C1 C2 1_555 1_555
C2 C3 1_555 1_555
C3 H3 1_555 1_555
C4 N1 1_555 1_555
C5 C6 1_555 1_555
C6 C7 1_555 1_555
C7 H7 1_555 1_555
C8 N3 1_555 1_555
Ag1 N2 1_555 1_555
Ag2 O1 1_555 1_555
H1 C1 1_555 1_555
H2 C2 1_555 1_555
H4 C4 1_555 1_555
H5 C5 1_555 1_555
H6 C6 1_555 1_555
H8 C8 1_555 1_555
O5 Re2 1_555 1_555
O6 Re2 1_555 1_555
O7 Re2 1_555 1_555
O8 Re2 1_555 1_555
Ag2A O3 1_555 1_555
O1A Ag2A 1_555 1_555
Re1A O1A 1_555 1_555
O2A Re1A 1_555 1_555
O3A Ag2 1_555 1_555
N3A Ag1 1_555 1_555
C5A N3A 1_555 1_555
C6A C5A 1_555 1_555
C7A C6A 1_555 1_555
N4A C7A 1_555 1_555
C8A N3A 1_555 1_555
H8A C8A 1_555 1_555
Ag2A_2 N4A 1_555 1_555
O1A_2 Ag2A_2 1_555 1_555
O3_2 Ag2A_2 1_555 1_555
N1A Ag2A_2 1_555 1_555
C1A N1A 1_555 1_555
C2A C1A 1_555 1_555
C3A C2A 1_555 1_555
N2A C3A 1_555 1_555
C4A N1A 1_555 1_555
H4A C4A 1_555 1_555
Ag1A N3 1_555 1_555
H3A C3A 1_555 1_555
H2A C2A 1_555 1_555
H1A C1A 1_555 1_555
H7A C7A 1_555 1_555
H6A C6A 1_555 1_555
H5A C5A 1_555 1_555
O4A Re1A 1_555 1_555
N1 Ag2 1_555 1_555
N2 C4 1_555 1_555
N4 C8 1_555 1_555
N4 Ag2 1_555 1_555
Re1A O3A 1_555 1_555
N4A C8A 1_555 1_555
N2A C4A 1_555 1_555
N2A Ag1A 1_555 1_555

#END
