
#######################################################################
#
#                 Cambridge Crystallographic Data Centre
#                                CCDC 
#
#######################################################################
#
# If this CIF has been generated from an entry in the Cambridge 
# Structural Database, then it will include bibliographic, chemical, 
# crystal, experimental, refinement or atomic coordinate data resulting 
# from the CCDC's data processing and validation procedures.
#
#######################################################################

data_PAXQOU
_symmetry_cell_setting           triclinic
_symmetry_space_group_name_H-M   'P -1'
_symmetry_Int_Tables_number      2
_space_group_name_Hall           '-P 1'
loop_
_symmetry_equiv_pos_site_id
_symmetry_equiv_pos_as_xyz
1 x,y,z
2 -x,-y,-z
_cell_length_a                   7.2417(7)
_cell_length_b                   8.1714(8)
_cell_length_c                   19.187(2)
_cell_angle_alpha                81.274(2)
_cell_angle_beta                 80.608(2)
_cell_angle_gamma                75.215(2)
_cell_volume                     1075.85
loop_
_atom_site_label
_atom_site_type_symbol
_atom_site_fract_x
_atom_site_fract_y
_atom_site_fract_z
Cl2 Cl 0.3615(3) -1.2298(3) 1.8101(1)
O5 O 0.2725(15) -1.3407(14) 1.7853(5)
O6 O 0.2185(10) -1.0889(11) 1.8366(4)
O7 O 0.4903(10) -1.1661(9) 1.7526(4)
O8 O 0.4735(11) -1.3171(10) 1.8651(4)
N1 N 0.0468(9) -0.4592(10) 1.6552(4)
N2 N 0.2258(10) -0.6818(11) 1.7304(4)
N3 N 0.0393(10) -0.1553(11) 1.4451(4)
N4 N 0.7946(10) -0.9062(11) 1.6697(4)
N5 N 0.6013(11) -0.8861(15) 1.8562(5)
N6 N 0.5957(10) -0.7371(10) 1.9529(4)
Ag1 Ag 0.0518(1) -0.3142(1) 1.5489(1)
Ag2 Ag 0.5101(1) -0.8628(1) 1.7431(1)
Ag3 Ag 0.5000 -0.5000 2.0000
C1 C -0.0983(12) -0.4311(13) 1.7091(5)
C2 C -0.0845(13) -0.5235(15) 1.7747(5)
C3 C 0.0817(13) -0.6491(14) 1.7834(5)
C4 C 0.2018(12) -0.5825(13) 1.6684(5)
C5 C -0.1262(13) -0.0603(14) 1.4234(5)
C6 C -0.1316(13) 0.0213(14) 1.3546(5)
C7 C 0.9620(14) -1.0000(14) 1.6900(5)
C8 C 0.8027(12) -0.8355(14) 1.6022(5)
C9 C 0.7147(14) -1.0261(14) 1.8889(6)
C10 C 0.7734(15) -1.0226(17) 1.9525(6)
C11 C 0.7111(13) -0.8769(16) 1.9839(6)
C12 C 0.5481(13) -0.7483(15) 1.8903(6)
H1 H -0.2122(12) -0.3458(13) 1.7015(5)
H2 H -0.1855(13) -0.5019(15) 1.8129(5)
H3 H 0.0938(13) -0.7144(14) 1.8285(5)
H4 H 0.3044(12) -0.6019(13) 1.6305(5)
H5 H -0.2418(13) -0.0487(14) 1.4558(5)
H6 H -0.2484(13) 0.0890(14) 1.3391(5)
H7 H 0.9625(14) -1.0540(14) 1.7374(5)
H8 H 0.6845(12) -0.7725(14) 1.5863(5)
H9 H 0.7539(14) -1.1283(14) 1.8669(6)
H10 H 0.8558(15) -1.1199(17) 1.9743(6)
H11 H 0.7493(13) -0.8730(16) 2.0286(6)
H12 H 0.4694(13) -0.6494(15) 1.8678(6)
C7A C 0.0380(14) 0.0000(14) 1.3100(5)
N4A N 0.2054(10) -0.0938(11) 1.3303(4)
Ag2A Ag 0.4899(1) -0.1372(1) 1.2569(1)
O7A O 0.5097(10) 0.1661(9) 1.2474(4)
Cl2A Cl 0.6385(3) 0.2298(3) 1.1899(1)
O5A O 0.7275(15) 0.3407(14) 1.2147(5)
O6A O 0.7815(10) 0.0889(11) 1.1634(4)
O8A O 0.5265(11) 0.3171(10) 1.1349(4)
N2A N 0.7742(10) -0.3182(11) 1.2696(4)
C3A C 0.9183(13) -0.3509(14) 1.2166(5)
C2A C 1.0845(13) -0.4765(15) 1.2253(5)
C1A C 1.0983(12) -0.5689(13) 1.2909(5)
N1A N 0.9532(9) -0.5408(10) 1.3448(4)
Ag1A Ag 0.9482(1) -0.6858(1) 1.4511(1)
N3A N 0.9607(10) -0.8447(11) 1.5549(4)
C5A C 1.1262(13) -0.9397(14) 1.5766(5)
C6A C 1.1316(13) -1.0213(14) 1.6454(5)
N6A N 0.4043(10) -0.2629(10) 2.0471(4)
C11A C 0.2889(13) -0.1231(16) 2.0161(6)
C10A C 0.2266(15) 0.0226(17) 2.0475(6)
C9A C 0.2853(14) 0.0261(14) 2.1111(6)
N5A N 0.3987(11) -0.1139(15) 2.1438(5)
Ag2A_2 Ag 0.4899(1) -0.1372(1) 2.2569(1)
C12A C 0.4519(13) -0.2517(15) 2.1097(6)
H12A H 0.5306(13) -0.3506(15) 2.1322(6)
H9A H 0.2461(14) 0.1283(14) 2.1331(6)
H10A H 0.1442(15) 0.1199(17) 2.0257(6)
H11A H 0.2507(13) -0.1270(16) 1.9714(6)
H6A H 1.2484(13) -1.0890(14) 1.6609(5)
H5A H 1.2418(13) -0.9513(14) 1.5442(5)
C4A C 0.7982(12) -0.4175(13) 1.3316(5)
H4A H 0.6956(12) -0.3981(13) 1.3695(5)
H1A H 1.2122(12) -0.6542(13) 1.2985(5)
H2A H 1.1855(13) -0.4981(15) 1.1871(5)
H3A H 0.9062(13) -0.2856(14) 1.1715(5)
N5A_2 N 0.3987(11) -0.1139(15) 1.1438(5)
C8A C 0.1973(12) -0.1645(14) 1.3978(5)
H7A H 0.0375(14) 0.0540(14) 1.2626(5)
O1 O 0.4159(12) -0.2729(13) 1.5286(6)
O2 O 0.5791(14) -0.4583(12) 1.6164(5)
O3 O 0.7433(11) -0.3977(12) 1.5042(5)
O4 O 0.6405(10) -0.1852(10) 1.5808(4)
Cl1 Cl 0.5926(3) -0.3270(3) 1.5574(1)
Cl3? Cl 1.0060(8) -0.4924(11) 1.0130(3)
O9? O 0.8456(26) -0.3918(28) 1.0474(12)
O10? O 1.1400(21) -0.5859(20) 1.0608(9)
O11? O 1.1037(21) -0.3958(24) 0.9576(9)
O12? O 0.9528(39) -0.6253(29) 0.9782(20)
loop_
_geom_bond_atom_site_label_1
_geom_bond_atom_site_label_2
_geom_bond_site_symmetry_1
_geom_bond_site_symmetry_2
O1 Cl1 1_555 1_555
O2 Cl1 1_555 1_555
O3 Cl1 1_555 1_555
O4 Cl1 1_555 1_555
Cl2 O5 1_555 1_555
O6 Cl2 1_555 1_555
O7 Cl2 1_555 1_555
O8 Cl2 1_555 1_555
N1 Ag1 1_555 1_555
N2 Ag2 1_555 1_555
N3 Ag1 1_555 1_555
N4 Ag2 1_555 1_555
N5 Ag2 1_555 1_555
N6 Ag3 1_555 1_555
Ag2 O7 1_555 1_555
Ag3 N6A 1_555 1_555
C1 N1 1_555 1_555
C2 C1 1_555 1_555
C3 N2 1_555 1_555
C4 N1 1_555 1_555
C5 N3 1_555 1_555
C6 C5 1_555 1_555
C7 N4 1_555 1_555
C8 N4 1_555 1_555
C9 N5 1_555 1_555
C10 C9 1_555 1_555
C11 N6 1_555 1_555
C12 N5 1_555 1_555
H1 C1 1_555 1_555
H2 C2 1_555 1_555
H3 C3 1_555 1_555
H4 C4 1_555 1_555
H5 C5 1_555 1_555
H6 C6 1_555 1_555
H7 C7 1_555 1_555
H8 C8 1_555 1_555
H9 C9 1_555 1_555
H10 C10 1_555 1_555
H11 C11 1_555 1_555
H12 C12 1_555 1_555
C7A C6 1_555 1_555
N4A C7A 1_555 1_555
Ag2A N4A 1_555 1_555
O7A Ag2A 1_555 1_555
Cl2A O7A 1_555 1_555
O5A Cl2A 1_555 1_555
O6A Cl2A 1_555 1_555
O8A Cl2A 1_555 1_555
N2A Ag2A 1_555 1_555
C3A N2A 1_555 1_555
C2A C3A 1_555 1_555
C1A C2A 1_555 1_555
N1A C1A 1_555 1_555
Ag1A N1A 1_555 1_555
N3A C8 1_555 1_555
C5A N3A 1_555 1_555
C6A C7 1_555 1_555
N6A C11A 1_555 1_555
C11A C10A 1_555 1_555
C10A C9A 1_555 1_555
C9A N5A 1_555 1_555
N5A Ag2A_2 1_555 1_555
C12A N6A 1_555 1_555
H12A C12A 1_555 1_555
H9A C9A 1_555 1_555
H10A C10A 1_555 1_555
H11A C11A 1_555 1_555
H6A C6A 1_555 1_555
H5A C5A 1_555 1_555
C4A N2A 1_555 1_555
H4A C4A 1_555 1_555
H1A C1A 1_555 1_555
H2A C2A 1_555 1_555
H3A C3A 1_555 1_555
N5A_2 Ag2A 1_555 1_555
C8A N3 1_555 1_555
H7A C7A 1_555 1_555
N2 C4 1_555 1_555
N6 C12 1_555 1_555
C2 C3 1_555 1_555
C10 C11 1_555 1_555
N4A C8A 1_555 1_555
N1A C4A 1_555 1_555
Ag1A N3A 1_555 1_555
C5A C6A 1_555 1_555
N5A C12A 1_555 1_555

#END
