
#######################################################################
#
#                 Cambridge Crystallographic Data Centre
#                                CCDC 
#
#######################################################################
#
# If this CIF has been generated from an entry in the Cambridge 
# Structural Database, then it will include bibliographic, chemical, 
# crystal, experimental, refinement or atomic coordinate data resulting 
# from the CCDC's data processing and validation procedures.
#
#######################################################################

data_PAXSEM01
_symmetry_cell_setting           orthorhombic
_symmetry_space_group_name_H-M   'P m n a'
_symmetry_Int_Tables_number      53
_space_group_name_Hall           '-P 2ac 2'
loop_
_symmetry_equiv_pos_site_id
_symmetry_equiv_pos_as_xyz
1 x,y,z
2 -x,y,z
3 1/2+x,-y,1/2+z
4 1/2+x,y,1/2-z
5 -x,-y,-z
6 x,-y,-z
7 1/2-x,y,1/2-z
8 1/2-x,-y,1/2+z
_cell_length_a                   7.742(5)
_cell_length_b                   5.411(6)
_cell_length_c                   10.561(6)
_cell_angle_alpha                90
_cell_angle_beta                 90
_cell_angle_gamma                90
_cell_volume                     442.421
loop_
_atom_site_label
_atom_site_type_symbol
_atom_site_fract_x
_atom_site_fract_y
_atom_site_fract_z
Mn1 Mn 0.0000 0.5000 0.5000
N1 N 0.2165(6) 0.2751(9) 0.5799(4)
N2 N 0.5000 -0.269(1) 0.8222(6)
C1 C 0.3451(6) 0.1880(9) 0.6160(4)
C2 C 0.5000 0.084(1) 0.6586(6)
C3 C 0.5000 -0.112(1) 0.7474(7)
C1A C 0.6549(6) 0.1880(9) 0.6160(4)
N1A N 0.7835(6) 0.2751(9) 0.5799(4)
N1A_2 N -0.2165(6) 0.2751(9) 0.5799(4)
N1D N -0.2165(6) 0.7249(9) 0.4201(4)
N1E N 0.2165(6) 0.7249(9) 0.4201(4)
N2E N 0.5000 1.269(1) 0.1778(6)
C1E C 0.3451(6) 0.8120(9) 0.3840(4)
C2E C 0.5000 0.916(1) 0.3414(6)
C3E C 0.5000 1.112(1) 0.2526(7)
C1D C 0.6549(6) 0.8120(9) 0.3840(4)
N1D_2 N 0.7835(6) 0.7249(9) 0.4201(4)
N2B N 0.0000 0.269(1) 0.3222(6)
N2C N 0.0000 0.731(1) 0.6778(6)
Mn1A Mn 1.0000 0.5000 0.5000
Mn1B Mn 0.5000 -0.5000 1.0000
Mn1C Mn 0.5000 1.5000 0.0000
loop_
_geom_bond_atom_site_label_1
_geom_bond_atom_site_label_2
_geom_bond_site_symmetry_1
_geom_bond_site_symmetry_2
Mn1 N1 1_555 1_555
N1 C1 1_555 1_555
N2 C3 1_555 1_555
C1 C2 1_555 1_555
C2 C3 1_555 1_555
C1A C2 1_555 1_555
N1A C1A 1_555 1_555
N1A_2 Mn1 1_555 1_555
N1D Mn1 1_555 1_555
N1E Mn1 1_555 1_555
N2E C3E 1_555 1_555
C1E N1E 1_555 1_555
C2E C1E 1_555 1_555
C3E C2E 1_555 1_555
C1D C2E 1_555 1_555
N1D_2 C1D 1_555 1_555
N2B Mn1 1_555 1_555
N2C Mn1 1_555 1_555
Mn1A N1A 1_555 1_555
Mn1B N2 1_555 1_555
Mn1C N2E 1_555 1_555
N1D_2 Mn1A 1_555 1_555

#END
