
#######################################################################
#
#                 Cambridge Crystallographic Data Centre
#                                CCDC 
#
#######################################################################
#
# If this CIF has been generated from an entry in the Cambridge 
# Structural Database, then it will include bibliographic, chemical, 
# crystal, experimental, refinement or atomic coordinate data resulting 
# from the CCDC's data processing and validation procedures.
#
#######################################################################

data_PAXWIV
_symmetry_cell_setting           triclinic
_symmetry_space_group_name_H-M   'P -1'
_symmetry_Int_Tables_number      2
_space_group_name_Hall           '-P 1'
loop_
_symmetry_equiv_pos_site_id
_symmetry_equiv_pos_as_xyz
1 x,y,z
2 -x,-y,-z
_cell_length_a                   7.2792(14)
_cell_length_b                   8.7439(17)
_cell_length_c                   10.405(2)
_cell_angle_alpha                102.324(2)
_cell_angle_beta                 92.963(2)
_cell_angle_gamma                113.482(2)
_cell_volume                     586.471
loop_
_atom_site_label
_atom_site_type_symbol
_atom_site_fract_x
_atom_site_fract_y
_atom_site_fract_z
Cu1 Cu 0.0000 1.0000 1.0000
Cu2 Cu 0.5000 1.0000 0.5000
N1 N -0.1328(3) 0.7390(2) 0.94389(18)
N2 N -0.1733(3) 0.6551(2) 1.04166(18)
H1 H -0.1474 0.7066 1.1250
N3 N 0.2147(3) 1.0216(3) 0.8307(2)
N4 N 0.4904(3) 0.9714(3) 0.7319(2)
N5 N -0.2045(3) 1.0093(3) 0.8696(2)
N6 N 0.7877(3) 1.1744(3) 0.5546(2)
N7 N 1.1480(3) 1.2869(3) 0.6352(2)
N8 N 0.3882(3) 1.1754(3) 0.5489(2)
C1 C -0.1941(4) 0.6150(3) 0.8308(2)
C2 C -0.2727(4) 0.4541(3) 0.8580(3)
H2 H -0.3250 0.3473 0.7963
C3 C -0.2580(3) 0.4837(3) 0.9944(2)
C4 C -0.1777(6) 0.6509(4) 0.6974(3)
H3 H -0.1174 0.7733 0.7076
H4 H -0.3103 0.6014 0.6458
H5 H -0.0947 0.6012 0.6526
C5 C -0.3183(4) 0.3638(3) 1.0821(3)
H6 H -0.2820 0.4290 1.1735
H7 H -0.2498 0.2893 1.0667
H8 H -0.4622 0.2957 1.0628
C6 C 0.3470(3) 0.9990(3) 0.7893(2)
C7 C -0.3498(3) 0.9923(3) 0.8091(2)
C8 C 0.9573(4) 1.2208(3) 0.5872(2)
C9 C 0.2683(3) 1.2221(3) 0.5852(2)
Cu1_2 Cu 1.0000 1.0000 1.0000
Cu1_3 Cu -1.0000 1.0000 1.0000
Cu2_2 Cu 1.5000 1.0000 0.5000
Cu2_3 Cu -0.5000 1.0000 0.5000
N1A N 0.1328(3) 1.2610(2) 1.05611(18)
N2A N 0.1733(3) 1.3449(2) 0.95834(18)
H1A H 0.1474 1.2934 0.8750
N3A N -0.2147(3) 0.9784(3) 1.1693(2)
N3_2 N -0.7853(3) 1.0216(3) 0.8307(2)
N4A N 0.5096(3) 1.0286(3) 0.2681(2)
N4_2 N -0.5096(3) 0.9714(3) 0.7319(2)
N5A N 0.2045(3) 0.9907(3) 1.1304(2)
N5_2 N 0.7955(3) 1.0093(3) 0.8696(2)
N6A N 0.2123(3) 0.8256(3) 0.4454(2)
N6_2 N -0.2123(3) 1.1744(3) 0.5546(2)
N7_2 N 0.1480(3) 1.2869(3) 0.6352(2)
N8_2 N 1.3882(3) 1.1754(3) 0.5489(2)
N8A N 0.6118(3) 0.8246(3) 0.4511(2)
C1A C 0.1941(4) 1.3850(3) 1.1692(2)
C2A C 0.2727(4) 1.5459(3) 1.1420(3)
H2A H 0.3250 1.6527 1.2037
C3A C 0.2580(3) 1.5163(3) 1.0056(2)
C4A C 0.1777(6) 1.3491(4) 1.3026(3)
H3A H 0.1174 1.2267 1.2924
H4A H 0.3103 1.3986 1.3542
H5A H 0.0947 1.3988 1.3474
C5A C 0.3183(4) 1.6362(3) 0.9179(3)
H6A H 0.2820 1.5710 0.8265
H7A H 0.2498 1.7107 0.9333
H8A H 0.4622 1.7043 0.9372
C6_2 C -0.6530(3) 0.9990(3) 0.7893(2)
C7_2 C 0.6502(3) 0.9923(3) 0.8091(2)
C8_2 C -0.0427(4) 1.2208(3) 0.5872(2)
C9_2 C 1.2683(3) 1.2221(3) 0.5852(2)
loop_
_geom_bond_atom_site_label_1
_geom_bond_atom_site_label_2
_geom_bond_site_symmetry_1
_geom_bond_site_symmetry_2
Cu1 N1 1_555 1_555
Cu2 N4 1_555 1_555
N1 N2 1_555 1_555
N2 H1 1_555 1_555
N3 Cu1 1_555 1_555
N4 C6 1_555 1_555
N5 Cu1 1_555 1_555
N6 Cu2 1_555 1_555
N7 C8 1_555 1_555
N8 Cu2 1_555 1_555
C1 N1 1_555 1_555
C2 C1 1_555 1_555
H2 C2 1_555 1_555
C3 N2 1_555 1_555
C4 C1 1_555 1_555
H3 C4 1_555 1_555
H4 C4 1_555 1_555
H5 C4 1_555 1_555
C5 C3 1_555 1_555
H6 C5 1_555 1_555
H7 C5 1_555 1_555
H8 C5 1_555 1_555
C6 N3 1_555 1_555
C7 N5 1_555 1_555
C8 N6 1_555 1_555
C9 N8 1_555 1_555
Cu1_2 N5_2 1_555 1_555
Cu1_3 N3_2 1_555 1_555
Cu2_2 N8_2 1_555 1_555
Cu2_3 N4_2 1_555 1_555
N1A Cu1 1_555 1_555
N2A N1A 1_555 1_555
H1A N2A 1_555 1_555
N3A Cu1 1_555 1_555
N3_2 C6_2 1_555 1_555
N4A Cu2 1_555 1_555
N4_2 C7 1_555 1_555
N5A Cu1 1_555 1_555
N5_2 C7_2 1_555 1_555
N6A Cu2 1_555 1_555
N6_2 Cu2_3 1_555 1_555
N7_2 C9 1_555 1_555
N8_2 C9_2 1_555 1_555
N8A Cu2 1_555 1_555
C1A N1A 1_555 1_555
C2A C1A 1_555 1_555
H2A C2A 1_555 1_555
C3A N2A 1_555 1_555
C4A C1A 1_555 1_555
H3A C4A 1_555 1_555
H4A C4A 1_555 1_555
H5A C4A 1_555 1_555
C5A C3A 1_555 1_555
H6A C5A 1_555 1_555
H7A C5A 1_555 1_555
H8A C5A 1_555 1_555
C6_2 N4_2 1_555 1_555
C7_2 N4 1_555 1_555
C8_2 N6_2 1_555 1_555
C9_2 N7 1_555 1_555
C2 C3 1_555 1_555
N7_2 C8_2 1_555 1_555
C2A C3A 1_555 1_555

#END
