
#######################################################################
#
#                 Cambridge Crystallographic Data Centre
#                                CCDC 
#
#######################################################################
#
# If this CIF has been generated from an entry in the Cambridge 
# Structural Database, then it will include bibliographic, chemical, 
# crystal, experimental, refinement or atomic coordinate data resulting 
# from the CCDC's data processing and validation procedures.
#
#######################################################################

data_PAYCOH
_symmetry_cell_setting           monoclinic
_symmetry_space_group_name_H-M   'P 21/c'
_symmetry_Int_Tables_number      14
_space_group_name_Hall           '-P 2ybc'
loop_
_symmetry_equiv_pos_site_id
_symmetry_equiv_pos_as_xyz
1 x,y,z
2 -x,1/2+y,1/2-z
3 -x,-y,-z
4 x,1/2-y,1/2+z
_cell_length_a                   10.958(6)
_cell_length_b                   24.663(9)
_cell_length_c                   7.339(4)
_cell_angle_alpha                90
_cell_angle_beta                 102.29(5)
_cell_angle_gamma                90
_cell_volume                     1937.96
loop_
_atom_site_label
_atom_site_type_symbol
_atom_site_fract_x
_atom_site_fract_y
_atom_site_fract_z
Hg1 Hg 0.5000 0.5000 0.5000
Hg2 Hg 0.39554(13) 0.58311(5) 0.98527(21)
Br1 Br 0.6535(4) 0.53830(12) 0.3381(5)
Br2 Br 0.5599(3) 0.58885(12) 0.8063(5)
Br3 Br 0.2681(3) 0.55797(12) 0.2088(5)
C1 C 0.244(3) 0.7680(10) 0.922(4)
C2 C 0.345(3) 0.7991(9) 0.991(4)
C3 C 0.458(3) 0.7753(10) 1.084(4)
C4 C 0.465(3) 0.7195(10) 1.095(4)
C5 C 0.574(3) 0.6910(12) 1.173(6)
C6 C 0.261(3) 0.7125(9) 0.934(4)
C7 C 0.1449(23) 0.6798(9) 0.861(4)
C8 C -0.062(3) 0.6469(12) 0.800(4)
C9 C 0.014(3) 0.6119(11) 0.695(4)
C10 C -0.182(3) 0.6733(14) 0.706(6)
C11 C -0.093(4) 0.6192(15) 0.974(5)
C12 C -0.015(3) 0.6236(14) 0.481(5)
C13 C 0.011(3) 0.5501(10) 0.728(5)
N1 N 0.3574(20) 0.6877(7) 1.013(3)
N2 N 0.0305(22) 0.6914(8) 0.877(4)
N3 N 0.1445(20) 0.6331(8) 0.768(3)
O1 O -0.0016(22) 0.7312(8) 0.974(4)
O2 O 0.2336(20) 0.6095(7) 0.713(3)
H1 H 0.161 0.785 0.868
H2 H 0.343 0.838 0.974
H3 H 0.529 0.798 1.140
H4 H 0.563 0.652 1.171
H5 H 0.645 0.699 1.120
H6 H 0.603 0.700 1.309
H7 H -0.169 0.690 0.591
H8 H -0.245 0.646 0.670
H9 H -0.206 0.699 0.781
H10 H -0.019 0.602 1.047
H11 H -0.118 0.646 1.055
H12 H -0.157 0.593 0.944
H13 H -0.013 0.661 0.456
H14 H 0.049 0.606 0.424
H15 H -0.094 0.609 0.418
H16 H 0.027 0.543 0.861
H17 H -0.068 0.535 0.674
H18 H 0.074 0.532 0.679
Br1B Br 0.3465(4) 0.46170(12) 0.6619(5)
Br2B Br 0.4401(3) 0.41115(12) 0.1937(5)
Br3B Br 0.7319(3) 0.44203(12) 0.7912(5)
Hg2B Hg 0.60446(13) 0.41689(5) 0.01473(21)
C1B C 0.756(3) 0.2320(10) 0.078(4)
C2B C 0.655(3) 0.2009(9) 0.009(4)
C3B C 0.542(3) 0.2247(10) -0.084(4)
C4B C 0.535(3) 0.2805(10) -0.095(4)
C5B C 0.426(3) 0.3090(12) -0.173(6)
C6B C 0.739(3) 0.2875(9) 0.066(4)
C7B C 0.8551(23) 0.3202(9) 0.139(4)
C8B C 1.062(3) 0.3531(12) 0.200(4)
C9B C 0.986(3) 0.3881(11) 0.305(4)
C10B C 1.182(3) 0.3267(14) 0.294(6)
C11B C 1.093(4) 0.3808(15) 0.026(5)
C12B C 1.015(3) 0.3764(14) 0.519(5)
C13B C 0.989(3) 0.4499(10) 0.272(5)
N1B N 0.6426(20) 0.3123(7) -0.013(3)
N2B N 0.9695(22) 0.3086(8) 0.123(4)
N3B N 0.8555(20) 0.3669(8) 0.232(3)
O1B O 1.0016(22) 0.2688(8) 0.026(4)
O2B O 0.7664(20) 0.3905(7) 0.287(3)
H1B H 0.839 0.215 0.132
H2B H 0.657 0.162 0.026
H3B H 0.471 0.202 -0.140
H4B H 0.437 0.348 -0.171
H5B H 0.355 0.301 -0.120
H6B H 0.397 0.300 -0.309
H7B H 1.169 0.310 0.409
H8B H 1.245 0.354 0.330
H9B H 1.206 0.301 0.219
H10B H 1.019 0.398 -0.047
H11B H 1.118 0.354 -0.055
H12B H 1.157 0.407 0.056
H13B H 1.013 0.339 0.544
H14B H 0.951 0.394 0.576
H15B H 1.094 0.391 0.582
H16B H 0.973 0.457 0.139
H17B H 1.068 0.465 0.326
H18B H 0.926 0.468 0.321
Br3_2 Br 0.2681(3) 0.55797(12) 1.2088(5)
Hg2_2 Hg 0.39554(13) 0.58311(5) -0.01473(21)
Hg2B_2 Hg 0.60446(13) 0.41689(5) 1.01473(21)
Br3B_2 Br 0.7319(3) 0.44203(12) -0.2088(5)
loop_
_geom_bond_atom_site_label_1
_geom_bond_atom_site_label_2
_geom_bond_site_symmetry_1
_geom_bond_site_symmetry_2
Hg1 Br1 1_555 1_555
Hg2 Br2 1_555 1_555
Br2 Hg1 1_555 1_555
Br3 Hg1 1_555 1_555
C1 C2 1_555 1_555
C2 C3 1_555 1_555
C3 C4 1_555 1_555
C4 C5 1_555 1_555
C5 H4 1_555 1_555
C6 C1 1_555 1_555
C7 C6 1_555 1_555
C8 C9 1_555 1_555
C9 C12 1_555 1_555
C10 C8 1_555 1_555
C11 C8 1_555 1_555
C12 H13 1_555 1_555
C13 C9 1_555 1_555
N1 Hg2 1_555 1_555
N2 C7 1_555 1_555
N3 C7 1_555 1_555
O1 N2 1_555 1_555
O2 Hg2 1_555 1_555
H1 C1 1_555 1_555
H2 C2 1_555 1_555
H3 C3 1_555 1_555
H5 C5 1_555 1_555
H6 C5 1_555 1_555
H7 C10 1_555 1_555
H8 C10 1_555 1_555
H9 C10 1_555 1_555
H10 C11 1_555 1_555
H11 C11 1_555 1_555
H12 C11 1_555 1_555
H14 C12 1_555 1_555
H15 C12 1_555 1_555
H16 C13 1_555 1_555
H17 C13 1_555 1_555
H18 C13 1_555 1_555
Br1B Hg1 1_555 1_555
Br2B Hg1 1_555 1_555
Br3B Hg1 1_555 1_555
Hg2B Br2B 1_555 1_555
C1B C2B 1_555 1_555
C2B C3B 1_555 1_555
C3B C4B 1_555 1_555
C4B C5B 1_555 1_555
C5B H4B 1_555 1_555
C6B C1B 1_555 1_555
C7B C6B 1_555 1_555
C8B C9B 1_555 1_555
C9B C12B 1_555 1_555
C10B C8B 1_555 1_555
C11B C8B 1_555 1_555
C12B H13B 1_555 1_555
C13B C9B 1_555 1_555
N1B Hg2B 1_555 1_555
N2B C7B 1_555 1_555
N3B C7B 1_555 1_555
O1B N2B 1_555 1_555
O2B Hg2B 1_555 1_555
H1B C1B 1_555 1_555
H2B C2B 1_555 1_555
H3B C3B 1_555 1_555
H5B C5B 1_555 1_555
H6B C5B 1_555 1_555
H7B C10B 1_555 1_555
H8B C10B 1_555 1_555
H9B C10B 1_555 1_555
H10B C11B 1_555 1_555
H11B C11B 1_555 1_555
H12B C11B 1_555 1_555
H14B C12B 1_555 1_555
H15B C12B 1_555 1_555
H16B C13B 1_555 1_555
H17B C13B 1_555 1_555
H18B C13B 1_555 1_555
Br3_2 Hg2 1_555 1_555
Hg2_2 Br3 1_555 1_555
Hg2B_2 Br3B 1_555 1_555
Br3B_2 Hg2B 1_555 1_555
C4 N1 1_555 1_555
C6 N1 1_555 1_555
C8 N2 1_555 1_555
C9 N3 1_555 1_555
N3 O2 1_555 1_555
C4B N1B 1_555 1_555
C6B N1B 1_555 1_555
C8B N2B 1_555 1_555
C9B N3B 1_555 1_555
N3B O2B 1_555 1_555

#END
