
#######################################################################
#
#                 Cambridge Crystallographic Data Centre
#                                CCDC 
#
#######################################################################
#
# If this CIF has been generated from an entry in the Cambridge 
# Structural Database, then it will include bibliographic, chemical, 
# crystal, experimental, refinement or atomic coordinate data resulting 
# from the CCDC's data processing and validation procedures.
#
#######################################################################

data_PAYDOK
_symmetry_cell_setting           triclinic
_symmetry_space_group_name_H-M   'P -1'
_symmetry_Int_Tables_number      2
_space_group_name_Hall           '-P 1'
loop_
_symmetry_equiv_pos_site_id
_symmetry_equiv_pos_as_xyz
1 x,y,z
2 -x,-y,-z
_cell_length_a                   8.545(2)
_cell_length_b                   10.699(3)
_cell_length_c                   11.215(3)
_cell_angle_alpha                76.903(5)
_cell_angle_beta                 87.833(5)
_cell_angle_gamma                77.160(5)
_cell_volume                     973.581
loop_
_atom_site_label
_atom_site_type_symbol
_atom_site_fract_x
_atom_site_fract_y
_atom_site_fract_z
Cd1 Cd 0.73166(2) 0.608007(18) 0.821278(16)
N1 N 0.8989(3) 0.4149(2) 0.7726(2)
N2 N 1.5508(3) -0.2090(2) 0.8722(2)
O1 O 1.1137(3) 0.0944(3) 1.0377(2)
C1 C 0.9091(4) 0.4024(4) 0.6568(3)
H1 H 0.8491 0.4689 0.5971
C2 C 1.0037(5) 0.2965(4) 0.6219(3)
H2 H 1.0097 0.2928 0.5398
C3 C 1.0909(4) 0.1944(3) 0.7093(3)
H3 H 1.1541 0.1205 0.6875
C4 C 1.0812(3) 0.2054(3) 0.8303(3)
C5 C 0.9845(3) 0.3188(3) 0.8561(3)
H4 H 0.9798 0.3276 0.9369
C6 C 1.1627(4) 0.0998(3) 0.9342(3)
C7 C 1.4426(4) -0.2286(3) 0.9592(3)
H5 H 1.4505 -0.3132 1.0067
C8 C 1.3195(4) -0.1299(3) 0.9822(3)
H6 H 1.2480 -0.1481 1.0450
C9 C 1.3027(3) -0.0036(3) 0.9114(2)
C10 C 1.4176(4) 0.0188(3) 0.8233(3)
H7 H 1.4137 0.1028 0.7757
C11 C 1.5389(4) -0.0866(3) 0.8074(3)
H8 H 1.6157 -0.0706 0.7483
O2 O 0.9921(3) 0.6479(2) 0.85165(19)
O3 O 0.5727(3) 0.6074(2) 0.64724(19)
O4 O 0.5016(3) 0.5111(2) 0.82736(19)
O5 O 0.8583(3) 0.7585(2) 0.68529(19)
C12 C 0.9794(4) 0.7337(3) 0.7540(3)
C13 C 1.1079(5) 0.8105(4) 0.7191(4)
H9 H 1.1939 0.7607 0.6802
H10 H 1.1481 0.8276 0.7912
H11 H 1.0637 0.8924 0.6635
C14 C 0.4849(4) 0.5416(3) 0.7123(3)
C15 C 0.3582(5) 0.4955(5) 0.6545(4)
H12 H 0.3583 0.5274 0.5673
H13 H 0.2548 0.5287 0.6856
H14 H 0.3807 0.4011 0.6737
O6 O 0.7517(3) 0.5164(3) 1.02658(19)
H15 H 0.8372 0.4677 1.0709
H16 H 0.6751 0.5070 1.0818
Cd1_2 Cd 1.73166(2) -0.391993(18) 0.821278(16)
N2_2 N 0.5508(3) 0.7910(2) 0.8722(2)
O7 O 0.7280(4) 0.9615(3) 0.4905(3)
H17 H 0.6774 0.9079 0.4650
H18 H 0.7817 0.9348 0.5615
O8 O 0.4924(4) 0.8260(3) 0.4497(3)
H19 H 0.5192 0.7528 0.5080
H20 H 0.4068 0.8825 0.4682
loop_
_geom_bond_atom_site_label_1
_geom_bond_atom_site_label_2
_geom_bond_site_symmetry_1
_geom_bond_site_symmetry_2
Cd1 N1 1_555 1_555
N1 C1 1_555 1_555
N2 C7 1_555 1_555
O1 C6 1_555 1_555
C1 H1 1_555 1_555
C2 C1 1_555 1_555
H2 C2 1_555 1_555
C3 C2 1_555 1_555
H3 C3 1_555 1_555
C4 C3 1_555 1_555
C5 N1 1_555 1_555
H4 C5 1_555 1_555
C6 C4 1_555 1_555
C7 H5 1_555 1_555
C8 C7 1_555 1_555
H6 C8 1_555 1_555
C9 C6 1_555 1_555
C10 C9 1_555 1_555
H7 C10 1_555 1_555
C11 N2 1_555 1_555
H8 C11 1_555 1_555
O2 Cd1 1_555 1_555
O3 Cd1 1_555 1_555
O4 Cd1 1_555 1_555
O5 Cd1 1_555 1_555
C12 O2 1_555 1_555
C13 C12 1_555 1_555
H9 C13 1_555 1_555
H10 C13 1_555 1_555
H11 C13 1_555 1_555
C14 O3 1_555 1_555
C15 C14 1_555 1_555
H12 C15 1_555 1_555
H13 C15 1_555 1_555
H14 C15 1_555 1_555
O6 Cd1 1_555 1_555
H15 O6 1_555 1_555
H16 O6 1_555 1_555
O7 H17 1_555 1_555
H18 O7 1_555 1_555
O8 H19 1_555 1_555
H20 O8 1_555 1_555
Cd1_2 N2 1_555 1_555
N2_2 Cd1 1_555 1_555
C4 C5 1_555 1_555
C8 C9 1_555 1_555
C10 C11 1_555 1_555
O4 C14 1_555 1_555
O5 C12 1_555 1_555

#END
