
#######################################################################
#
#                 Cambridge Crystallographic Data Centre
#                                CCDC 
#
#######################################################################
#
# If this CIF has been generated from an entry in the Cambridge 
# Structural Database, then it will include bibliographic, chemical, 
# crystal, experimental, refinement or atomic coordinate data resulting 
# from the CCDC's data processing and validation procedures.
#
#######################################################################

data_PAYDIE
_symmetry_cell_setting           monoclinic
_symmetry_space_group_name_H-M   'C 2/c'
_symmetry_Int_Tables_number      15
_space_group_name_Hall           '-C 2yn'
loop_
_symmetry_equiv_pos_site_id
_symmetry_equiv_pos_as_xyz
1 x,y,z
2 -x,y,1/2-z
3 1/2+x,1/2+y,z
4 1/2-x,1/2+y,1/2-z
5 -x,-y,-z
6 x,-y,1/2+z
7 1/2-x,1/2-y,-z
8 1/2+x,1/2-y,1/2+z
_cell_length_a                   8.3682(3)
_cell_length_b                   17.3251(6)
_cell_length_c                   28.6686(10)
_cell_angle_alpha                90
_cell_angle_beta                 92.8480(10)
_cell_angle_gamma                90
_cell_volume                     4151.24
loop_
_atom_site_label
_atom_site_type_symbol
_atom_site_fract_x
_atom_site_fract_y
_atom_site_fract_z
Zn1 Zn 0.61591(4) 0.232574(19) 0.342240(11)
S1 S 1.01800(9) 0.26433(4) 0.37668(3)
O1 O 0.8591(2) 0.23027(12) 0.37134(7)
O2 O 1.0907(3) 0.27321(13) 0.33170(8)
O3 O 1.1182(3) 0.22346(14) 0.41081(9)
O4 O 0.8751(3) 0.31120(12) 0.46469(7)
O5 O 1.0863(3) 0.62949(11) 0.37689(7)
O6 O 1.1071(3) 0.54964(13) 0.31619(8)
O7 O 0.6923(3) 0.17550(13) 0.28105(7)
O8 O 0.3893(3) 0.22125(19) 0.30948(9)
N1 N 0.5209(3) 0.30126(15) 0.39576(8)
N2 N 0.6531(3) 0.34633(15) 0.31609(9)
C1 C 0.9919(4) 0.35998(16) 0.39722(10)
C2 C 0.9203(4) 0.37230(17) 0.43963(10)
C3 C 0.8988(4) 0.44787(18) 0.45453(11)
H1 H 0.8495 0.4571 0.4824
C4 C 0.9496(4) 0.50923(17) 0.42853(11)
H2 H 0.9348 0.5593 0.4392
C5 C 1.0230(4) 0.49733(17) 0.38647(10)
C6 C 1.0417(4) 0.42181(17) 0.37114(10)
H3 H 1.0885 0.4128 0.3429
C7 C 1.0760(4) 0.56319(17) 0.35757(10)
C8 C 0.5305(4) 0.37811(19) 0.38722(11)
C9 C 0.4569(4) 0.2779(2) 0.43478(12)
H4 H 0.4499 0.2252 0.4406
C10 C 0.3996(5) 0.3299(3) 0.46746(13)
H5 H 0.3567 0.3118 0.4947
C11 C 0.4075(5) 0.4066(3) 0.45891(15)
H6 H 0.3691 0.4414 0.4803
C12 C 0.4733(5) 0.4339(2) 0.41789(14)
C13 C 0.4894(6) 0.5136(2) 0.40649(19)
H7 H 0.4525 0.5509 0.4267
C14 C 0.5563(6) 0.5357(2) 0.3673(2)
H8 H 0.5647 0.5881 0.3609
C15 C 0.6156(5) 0.4811(2) 0.33509(15)
C16 C 0.6890(6) 0.5010(2) 0.29391(17)
H9 H 0.7015 0.5528 0.2862
C17 C 0.7418(6) 0.4454(3) 0.26522(15)
H10 H 0.7913 0.4584 0.2380
C18 C 0.7207(5) 0.3679(2) 0.27727(12)
H11 H 0.7555 0.3300 0.2572
C19 C 0.6008(4) 0.40212(18) 0.34510(11)
H12 H 0.832(5) 0.328(2) 0.4885(9)
H13 H 0.665(6) 0.1314(13) 0.2903(16)
H14 H 0.7903(16) 0.176(2) 0.2762(13)
H15 H 0.301(3) 0.232(2) 0.3201(14)
H16 H 0.368(5) 0.204(2) 0.2826(7)
Zn1B Zn 1.11591(4) 0.732574(19) 0.342240(11)
O5B O 0.5863(3) 0.12949(11) 0.37689(7)
O9 O 1.0000 0.1982(2) 0.2500
H17 H 1.023(5) 0.2307(17) 0.2710(10)
H17A H 0.977(5) 0.2307(17) 0.2290(10)
O10 O 0.7309(3) 0.35044(14) 0.53999(8)
H18 H 0.669(4) 0.3148(17) 0.5466(14)
H19 H 0.784(4) 0.358(2) 0.5651(8)
loop_
_geom_bond_atom_site_label_1
_geom_bond_atom_site_label_2
_geom_bond_site_symmetry_1
_geom_bond_site_symmetry_2
Zn1 O1 1_555 1_555
S1 O1 1_555 1_555
O2 S1 1_555 1_555
O3 S1 1_555 1_555
O4 C2 1_555 1_555
O5 C7 1_555 1_555
O6 C7 1_555 1_555
O7 Zn1 1_555 1_555
O8 Zn1 1_555 1_555
O9 H17 1_555 1_555
O10 H18 1_555 1_555
N1 Zn1 1_555 1_555
N2 Zn1 1_555 1_555
C1 S1 1_555 1_555
C2 C1 1_555 1_555
C3 C2 1_555 1_555
H1 C3 1_555 1_555
C4 C3 1_555 1_555
H2 C4 1_555 1_555
C5 C4 1_555 1_555
C6 C1 1_555 1_555
H3 C6 1_555 1_555
C7 C5 1_555 1_555
C8 N1 1_555 1_555
C9 N1 1_555 1_555
H4 C9 1_555 1_555
C10 C9 1_555 1_555
H5 C10 1_555 1_555
C11 C10 1_555 1_555
H6 C11 1_555 1_555
C12 C8 1_555 1_555
C13 C12 1_555 1_555
H7 C13 1_555 1_555
C14 C13 1_555 1_555
H8 C14 1_555 1_555
C15 C14 1_555 1_555
C16 C15 1_555 1_555
H9 C16 1_555 1_555
C17 C16 1_555 1_555
H10 C17 1_555 1_555
C18 N2 1_555 1_555
H11 C18 1_555 1_555
C19 N2 1_555 1_555
H12 O4 1_555 1_555
H13 O7 1_555 1_555
H14 O7 1_555 1_555
H15 O8 1_555 1_555
H16 O8 1_555 1_555
H19 O10 1_555 1_555
Zn1B O5 1_555 1_555
O5B Zn1 1_555 1_555
H17A O9 1_555 1_555
C5 C6 1_555 1_555
C8 C19 1_555 1_555
C11 C12 1_555 1_555
C15 C19 1_555 1_555
C17 C18 1_555 1_555

#END
