
#######################################################################
#
#                 Cambridge Crystallographic Data Centre
#                                CCDC 
#
#######################################################################
#
# If this CIF has been generated from an entry in the Cambridge 
# Structural Database, then it will include bibliographic, chemical, 
# crystal, experimental, refinement or atomic coordinate data resulting 
# from the CCDC's data processing and validation procedures.
#
#######################################################################

data_PAYDEA
_symmetry_cell_setting           monoclinic
_symmetry_space_group_name_H-M   'C 2/c'
_symmetry_Int_Tables_number      15
_space_group_name_Hall           '-C 2yn'
loop_
_symmetry_equiv_pos_site_id
_symmetry_equiv_pos_as_xyz
1 x,y,z
2 -x,y,1/2-z
3 1/2+x,1/2+y,z
4 1/2-x,1/2+y,1/2-z
5 -x,-y,-z
6 x,-y,1/2+z
7 1/2-x,1/2-y,-z
8 1/2+x,1/2-y,1/2+z
_cell_length_a                   8.3369(4)
_cell_length_b                   17.3630(6)
_cell_length_c                   28.6382(10)
_cell_angle_alpha                90
_cell_angle_beta                 93.1890(10)
_cell_angle_gamma                90
_cell_volume                     4139.06
loop_
_atom_site_label
_atom_site_type_symbol
_atom_site_fract_x
_atom_site_fract_y
_atom_site_fract_z
Co1 Co 0.61702(3) 0.233252(12) 0.341796(8)
S1 S 1.01602(5) 0.26449(2) 0.376637(16)
O1 O 0.85592(16) 0.23081(7) 0.37033(5)
O2 O 1.09098(19) 0.27300(8) 0.33199(6)
O3 O 1.1137(2) 0.22279(8) 0.41122(6)
O4 O 0.8735(2) 0.31178(7) 0.46465(5)
O5 O 1.08477(16) 0.62905(7) 0.37595(4)
O6 O 1.1048(2) 0.54895(8) 0.31558(5)
O7 O 0.69134(16) 0.17451(7) 0.28018(4)
O8 O 0.39077(18) 0.22382(11) 0.30945(5)
N1 N 0.52131(18) 0.30093(9) 0.39551(5)
N2 N 0.6524(2) 0.34674(9) 0.31625(6)
C1 C 0.9907(2) 0.35987(9) 0.39700(6)
C2 C 0.9196(2) 0.37256(10) 0.43952(6)
C3 C 0.8980(3) 0.44848(11) 0.45451(6)
H1 H 0.8491 0.4578 0.4824
C4 C 0.9488(3) 0.50940(10) 0.42819(6)
H2 H 0.9343 0.5595 0.4386
C5 C 1.0217(2) 0.49711(10) 0.38621(6)
C6 C 1.0407(2) 0.42151(10) 0.37083(6)
H3 H 1.0875 0.4125 0.3426
C7 C 1.0749(2) 0.56273(10) 0.35690(6)
C8 C 0.5290(2) 0.37789(11) 0.38715(7)
C9 C 0.4570(3) 0.27742(14) 0.43451(7)
H4 H 0.4500 0.2248 0.4402
C10 C 0.3995(3) 0.32857(18) 0.46737(8)
H5 H 0.3574 0.3102 0.4946
C11 C 0.4060(3) 0.40557(18) 0.45891(9)
H6 H 0.3665 0.4400 0.4803
C12 C 0.4721(3) 0.43345(14) 0.41810(9)
C13 C 0.4873(4) 0.51322(16) 0.40639(13)
H7 H 0.4504 0.5503 0.4266
C14 C 0.5536(4) 0.53590(14) 0.36690(13)
H8 H 0.5605 0.5882 0.3604
C15 C 0.6139(3) 0.48139(13) 0.33467(10)
C16 C 0.6870(4) 0.50107(15) 0.29369(11)
H9 H 0.6988 0.5527 0.2859
C17 C 0.7411(4) 0.44549(15) 0.26510(10)
H10 H 0.7908 0.4584 0.2379
C18 C 0.7202(3) 0.36828(13) 0.27749(8)
H11 H 0.7556 0.3303 0.2576
C19 C 0.5997(2) 0.40207(11) 0.34500(7)
H12 H 0.829(3) 0.3290(15) 0.4878(6)
H13 H 0.665(4) 0.1300(9) 0.2888(9)
H14 H 0.7900(12) 0.1745(13) 0.2762(7)
H15 H 0.3019(19) 0.2343(14) 0.3198(9)
H16 H 0.371(3) 0.2041(13) 0.2833(5)
Co1B Co 1.11702(3) 0.733252(12) 0.341796(8)
O5B O 0.58477(16) 0.12905(7) 0.37595(4)
O9 O 1.0000 0.19799(15) 0.2500
H17 H 1.022(4) 0.2272(13) 0.2731(7)
H17A H 0.978(4) 0.2272(13) 0.2269(7)
O10 O 0.7312(2) 0.35058(9) 0.54035(5)
H18 H 0.663(3) 0.3175(13) 0.5465(10)
H19 H 0.789(3) 0.3586(17) 0.5647(6)
loop_
_geom_bond_atom_site_label_1
_geom_bond_atom_site_label_2
_geom_bond_site_symmetry_1
_geom_bond_site_symmetry_2
Co1 O1 1_555 1_555
S1 O1 1_555 1_555
O2 S1 1_555 1_555
O3 S1 1_555 1_555
O4 C2 1_555 1_555
O5 C7 1_555 1_555
O6 C7 1_555 1_555
O7 Co1 1_555 1_555
O8 Co1 1_555 1_555
O9 H17 1_555 1_555
O10 H18 1_555 1_555
N1 Co1 1_555 1_555
N2 Co1 1_555 1_555
C1 S1 1_555 1_555
C2 C1 1_555 1_555
C3 C2 1_555 1_555
H1 C3 1_555 1_555
C4 C3 1_555 1_555
H2 C4 1_555 1_555
C5 C4 1_555 1_555
C6 C1 1_555 1_555
H3 C6 1_555 1_555
C7 C5 1_555 1_555
C8 N1 1_555 1_555
C9 N1 1_555 1_555
H4 C9 1_555 1_555
C10 C9 1_555 1_555
H5 C10 1_555 1_555
C11 C10 1_555 1_555
H6 C11 1_555 1_555
C12 C8 1_555 1_555
C13 C12 1_555 1_555
H7 C13 1_555 1_555
C14 C13 1_555 1_555
H8 C14 1_555 1_555
C15 C14 1_555 1_555
C16 C15 1_555 1_555
H9 C16 1_555 1_555
C17 C16 1_555 1_555
H10 C17 1_555 1_555
C18 N2 1_555 1_555
H11 C18 1_555 1_555
C19 N2 1_555 1_555
H12 O4 1_555 1_555
H13 O7 1_555 1_555
H14 O7 1_555 1_555
H15 O8 1_555 1_555
H16 O8 1_555 1_555
H19 O10 1_555 1_555
Co1B O5 1_555 1_555
O5B Co1 1_555 1_555
H17A O9 1_555 1_555
C5 C6 1_555 1_555
C8 C19 1_555 1_555
C11 C12 1_555 1_555
C15 C19 1_555 1_555
C17 C18 1_555 1_555

#END
