
#######################################################################
#
#                 Cambridge Crystallographic Data Centre
#                                CCDC 
#
#######################################################################
#
# If this CIF has been generated from an entry in the Cambridge 
# Structural Database, then it will include bibliographic, chemical, 
# crystal, experimental, refinement or atomic coordinate data resulting 
# from the CCDC's data processing and validation procedures.
#
#######################################################################

data_PAYFIG
_symmetry_cell_setting           monoclinic
_symmetry_space_group_name_H-M   'C 2/c'
_symmetry_Int_Tables_number      15
_space_group_name_Hall           '-C 2yn'
loop_
_symmetry_equiv_pos_site_id
_symmetry_equiv_pos_as_xyz
1 x,y,z
2 -x,y,1/2-z
3 1/2+x,1/2+y,z
4 1/2-x,1/2+y,1/2-z
5 -x,-y,-z
6 x,-y,1/2+z
7 1/2-x,1/2-y,-z
8 1/2+x,1/2-y,1/2+z
_cell_length_a                   18.3852(13)
_cell_length_b                   11.8312(5)
_cell_length_c                   7.4609(5)
_cell_angle_alpha                90
_cell_angle_beta                 112.346(8)
_cell_angle_gamma                90
_cell_volume                     1501.02
loop_
_atom_site_label
_atom_site_type_symbol
_atom_site_fract_x
_atom_site_fract_y
_atom_site_fract_z
Pb1 Pb 0.5000 0.399831(16) 0.2500
Br1 Br 0.40287(3) 0.38883(3) 0.48715(6)
N1 N 0.5735(2) 0.2162(3) 0.3998(5)
C1 C 0.6822(3) 0.3265(4) 0.6184(6)
H1 H 0.6768 0.3765 0.5092
H2 H 0.7381 0.3151 0.6972
H3 H 0.6563 0.3610 0.6980
C2 C 0.6450(3) 0.2162(4) 0.5439(6)
C3 C 0.6839(3) 0.1139(4) 0.6216(7)
H4 H 0.7345 0.1152 0.7230
C4 C 0.6485(3) 0.0134(4) 0.5503(6)
H5 H 0.6743 -0.0554 0.6030
C5 C 0.5748(3) 0.0111(3) 0.4008(6)
C6 C 0.5374(3) 0.1159(3) 0.3270(6)
C7 C 0.5352(4) -0.0932(3) 0.3218(7)
H6 H 0.5598 -0.1631 0.3730
Pb1D Pb 0.5000 0.600169(16) 0.7500
Pb1D_2 Pb 0.5000 0.600169(16) -0.2500
Br1A Br 0.59713(3) 0.38883(3) 0.01285(6)
Br1D Br 0.59713(3) 0.61117(3) 0.51285(6)
Br1E Br 0.40287(3) 0.61117(3) -0.01285(6)
N1A N 0.4265(2) 0.2162(3) 0.1002(5)
C1A C 0.3178(3) 0.3265(4) -0.1184(6)
H1A H 0.3232 0.3765 -0.0092
H2A H 0.2619 0.3151 -0.1972
H3A H 0.3437 0.3610 -0.1980
C2A C 0.3550(3) 0.2162(4) -0.0439(6)
C3A C 0.3161(3) 0.1139(4) -0.1216(7)
H4A H 0.2655 0.1152 -0.2230
C4A C 0.3515(3) 0.0134(4) -0.0503(6)
H5A H 0.3257 -0.0554 -0.1030
C5A C 0.4252(3) 0.0111(3) 0.0992(6)
C6A C 0.4626(3) 0.1159(3) 0.1730(6)
C7A C 0.4648(4) -0.0932(3) 0.1782(7)
H6A H 0.4402 -0.1631 0.1270
loop_
_geom_bond_atom_site_label_1
_geom_bond_atom_site_label_2
_geom_bond_site_symmetry_1
_geom_bond_site_symmetry_2
Pb1 Br1 1_555 1_555
Br1 Pb1D 1_555 1_555
N1 Pb1 1_555 1_555
C1 H1 1_555 1_555
H2 C1 1_555 1_555
H3 C1 1_555 1_555
C2 N1 1_555 1_555
C3 C2 1_555 1_555
H4 C3 1_555 1_555
C4 C3 1_555 1_555
H5 C4 1_555 1_555
C5 C4 1_555 1_555
C6 N1 1_555 1_555
C7 C5 1_555 1_555
H6 C7 1_555 1_555
Pb1D Br1D 1_555 1_555
Pb1D_2 Br1A 1_555 1_555
Br1A Pb1 1_555 1_555
Br1D Pb1 1_555 1_555
Br1E Pb1 1_555 1_555
N1A Pb1 1_555 1_555
C1A H1A 1_555 1_555
H2A C1A 1_555 1_555
H3A C1A 1_555 1_555
C2A N1A 1_555 1_555
C3A C2A 1_555 1_555
H4A C3A 1_555 1_555
C4A C3A 1_555 1_555
H5A C4A 1_555 1_555
C5A C4A 1_555 1_555
C6A C6 1_555 1_555
C7A C7 1_555 1_555
H6A C7A 1_555 1_555
C1 C2 1_555 1_555
C5 C6 1_555 1_555
Pb1D_2 Br1E 1_555 1_555
N1A C6A 1_555 1_555
C1A C2A 1_555 1_555
C5A C6A 1_555 1_555
C5A C7A 1_555 1_555

#END
