
#######################################################################
#
#                 Cambridge Crystallographic Data Centre
#                                CCDC 
#
#######################################################################
#
# If this CIF has been generated from an entry in the Cambridge 
# Structural Database, then it will include bibliographic, chemical, 
# crystal, experimental, refinement or atomic coordinate data resulting 
# from the CCDC's data processing and validation procedures.
#
#######################################################################

data_PAYJIK
_symmetry_cell_setting           orthorhombic
_symmetry_space_group_name_H-M   'P b c a'
_symmetry_Int_Tables_number      61
_space_group_name_Hall           '-P 2ac 2ab'
loop_
_symmetry_equiv_pos_site_id
_symmetry_equiv_pos_as_xyz
1 x,y,z
2 1/2-x,-y,1/2+z
3 1/2+x,1/2-y,-z
4 -x,1/2+y,1/2-z
5 -x,-y,-z
6 1/2+x,y,1/2-z
7 1/2-x,1/2+y,z
8 x,1/2-y,1/2+z
_cell_length_a                   12.7034(4)
_cell_length_b                   11.3939(4)
_cell_length_c                   15.8258(5)
_cell_angle_alpha                90
_cell_angle_beta                 90
_cell_angle_gamma                90
_cell_volume                     2290.65
loop_
_atom_site_label
_atom_site_type_symbol
_atom_site_fract_x
_atom_site_fract_y
_atom_site_fract_z
Li1 Li 0.50924(9) 0.90999(11) 0.30769(8)
O1 O 0.36589(3) 0.97594(4) 0.31383(3)
O2 O 0.21632(3) 1.07434(4) 0.36227(3)
O3 O 0.09643(4) 1.00827(4) 0.27079(3)
O4 O 0.38947(4) 1.16989(4) 0.37533(3)
O5 O 0.34797(4) 1.01520(4) 0.46522(3)
O6 O 0.42797(4) 1.07518(5) 0.58279(3)
B1 B 0.33286(5) 1.05967(6) 0.37751(4)
C1 C 0.28304(4) 0.95743(5) 0.25349(4)
C2 C 0.18775(5) 1.01423(5) 0.29565(4)
C3 C 0.30791(5) 1.02291(6) 0.17184(4)
H1 H 0.3167(9) 1.1064(10) 0.1823(7)
H2 H 0.2509(10) 1.0133(10) 0.1323(7)
H3 H 0.3744(9) 0.9899(9) 0.1465(7)
C4 C 0.26552(5) 0.82752(5) 0.23795(4)
H4 H 0.3291(9) 0.7933(10) 0.2120(7)
H5 H 0.2057(9) 0.8176(9) 0.1987(7)
H6 H 0.2505(8) 0.7861(9) 0.2889(7)
C5 C 0.42313(5) 1.20239(5) 0.45830(4)
C6 C 0.40175(5) 1.09179(5) 0.50964(4)
C7 C 0.35561(7) 1.30226(7) 0.49223(5)
H7 H 0.3687(10) 1.3751(11) 0.4564(8)
H8 H 0.3770(11) 1.3184(12) 0.5514(9)
H9 H 0.2815(11) 1.2823(12) 0.4919(8)
C8 C 0.53960(6) 1.23386(7) 0.45795(5)
H10 H 0.5830(10) 1.1701(11) 0.4330(8)
H11 H 0.5636(9) 1.2482(10) 0.5166(8)
H12 H 0.5506(9) 1.3071(10) 0.4247(7)
O7 O 0.51220(4) 0.74779(4) 0.26871(3)
H13 H 0.5426(12) 0.7243(12) 0.2236(10)
H14 H 0.4774(11) 0.6878(12) 0.2863(9)
Li1D Li 0.49076(9) 1.09001(11) 0.69231(8)
Li1A Li 0.99076(9) 1.09001(11) 0.80769(8)
Li1E Li 0.00924(9) 0.90999(11) 0.19231(8)
O1D O 0.63411(3) 1.02406(4) 0.68617(3)
O2D O 0.78368(3) 0.92566(4) 0.63773(3)
O3D O 0.90357(4) 0.99173(4) 0.72921(3)
O3A O 0.40357(4) 0.99173(4) 0.77079(3)
O3E O 0.59643(4) 1.00827(4) 0.22921(3)
O4D O 0.61053(4) 0.83011(4) 0.62467(3)
O5D O 0.65203(4) 0.98480(4) 0.53478(3)
O6D O 0.57203(4) 0.92482(5) 0.41721(3)
B1D B 0.66714(5) 0.94033(6) 0.62249(4)
C1D C 0.71696(4) 1.04257(5) 0.74651(4)
C2D C 0.81225(5) 0.98577(5) 0.70435(4)
C3D C 0.69209(5) 0.97709(6) 0.82816(4)
H1D H 0.6833(9) 0.8936(10) 0.8177(7)
H2D H 0.7491(10) 0.9867(10) 0.8677(7)
H3D H 0.6256(9) 1.0101(9) 0.8535(7)
C4D C 0.73448(5) 1.17248(5) 0.76205(4)
H4D H 0.6709(9) 1.2067(10) 0.7880(7)
H5D H 0.7943(9) 1.1824(9) 0.8013(7)
H6D H 0.7495(8) 1.2139(9) 0.7111(7)
C5D C 0.57687(5) 0.79761(5) 0.54170(4)
C6D C 0.59825(5) 0.90821(5) 0.49036(4)
C7D C 0.64439(7) 0.69774(7) 0.50777(5)
H7D H 0.6313(10) 0.6249(11) 0.5436(8)
H8D H 0.6230(11) 0.6816(12) 0.4486(9)
H9D H 0.7185(11) 0.7177(12) 0.5081(8)
C8D C 0.46040(6) 0.76614(7) 0.54205(5)
H10D H 0.4170(10) 0.8299(11) 0.5670(8)
H11D H 0.4364(9) 0.7518(10) 0.4834(8)
H12D H 0.4494(9) 0.6929(10) 0.5753(7)
O7D O 0.48780(4) 1.25221(4) 0.73129(3)
H13D H 0.4574(12) 1.2757(12) 0.7764(10)
H14D H 0.5226(11) 1.3122(12) 0.7137(9)
loop_
_geom_bond_atom_site_label_1
_geom_bond_atom_site_label_2
_geom_bond_site_symmetry_1
_geom_bond_site_symmetry_2
Li1 O1 1_555 1_555
O1 B1 1_555 1_555
O2 B1 1_555 1_555
O3 C2 1_555 1_555
O4 B1 1_555 1_555
O5 B1 1_555 1_555
O6 C6 1_555 1_555
C1 O1 1_555 1_555
C2 O2 1_555 1_555
C3 C1 1_555 1_555
H1 C3 1_555 1_555
H2 C3 1_555 1_555
H3 C3 1_555 1_555
C4 C1 1_555 1_555
H4 C4 1_555 1_555
H5 C4 1_555 1_555
H6 C4 1_555 1_555
C5 O4 1_555 1_555
C6 O5 1_555 1_555
C7 C5 1_555 1_555
H7 C7 1_555 1_555
H8 C7 1_555 1_555
H9 C7 1_555 1_555
C8 C5 1_555 1_555
H10 C8 1_555 1_555
H11 C8 1_555 1_555
H12 C8 1_555 1_555
O7 Li1 1_555 1_555
H13 O7 1_555 1_555
H14 O7 1_555 1_555
Li1D O6 1_555 1_555
Li1A O3D 1_555 1_555
Li1E O3 1_555 1_555
O1D Li1D 1_555 1_555
O2D B1D 1_555 1_555
O3D C2D 1_555 1_555
O3A Li1D 1_555 1_555
O3E Li1 1_555 1_555
O4D B1D 1_555 1_555
O5D B1D 1_555 1_555
O6D Li1 1_555 1_555
B1D O1D 1_555 1_555
C1D O1D 1_555 1_555
C2D O2D 1_555 1_555
C3D C1D 1_555 1_555
H1D C3D 1_555 1_555
H2D C3D 1_555 1_555
H3D C3D 1_555 1_555
C4D C1D 1_555 1_555
H4D C4D 1_555 1_555
H5D C4D 1_555 1_555
H6D C4D 1_555 1_555
C5D O4D 1_555 1_555
C6D O5D 1_555 1_555
C7D C5D 1_555 1_555
H7D C7D 1_555 1_555
H8D C7D 1_555 1_555
H9D C7D 1_555 1_555
C8D C5D 1_555 1_555
H10D C8D 1_555 1_555
H11D C8D 1_555 1_555
H12D C8D 1_555 1_555
O7D Li1D 1_555 1_555
H13D O7D 1_555 1_555
H14D O7D 1_555 1_555
C1 C2 1_555 1_555
C5 C6 1_555 1_555
O6D C6D 1_555 1_555
C1D C2D 1_555 1_555
C5D C6D 1_555 1_555

#END
