
#######################################################################
#
#                 Cambridge Crystallographic Data Centre
#                                CCDC 
#
#######################################################################
#
# If this CIF has been generated from an entry in the Cambridge 
# Structural Database, then it will include bibliographic, chemical, 
# crystal, experimental, refinement or atomic coordinate data resulting 
# from the CCDC's data processing and validation procedures.
#
#######################################################################

data_PAYJUW
_symmetry_cell_setting           monoclinic
_symmetry_space_group_name_H-M   'P 21/n'
_symmetry_Int_Tables_number      14
_space_group_name_Hall           '-P 2yn'
loop_
_symmetry_equiv_pos_site_id
_symmetry_equiv_pos_as_xyz
1 x,y,z
2 1/2-x,1/2+y,1/2-z
3 -x,-y,-z
4 1/2+x,1/2-y,1/2+z
_cell_length_a                   7.1285(17)
_cell_length_b                   13.301(3)
_cell_length_c                   12.804(3)
_cell_angle_alpha                90
_cell_angle_beta                 90.540(4)
_cell_angle_gamma                90
_cell_volume                     1213.97
loop_
_atom_site_label
_atom_site_type_symbol
_atom_site_fract_x
_atom_site_fract_y
_atom_site_fract_z
Zn1 Zn 0.13104(3) 0.553340(17) 0.417142(17)
Cl1 Cl 0.29440(7) 0.65999(4) 0.31470(4)
O1 O 0.4360(2) 0.84000(11) 0.97522(12)
O2 O 0.2502(2) 0.91230(12) 1.09352(13)
O3 O 0.2669(2) 0.56544(13) 0.55787(12)
O4 O 0.0830(2) 0.49535(12) 0.67900(12)
N1 N 0.3143(2) 0.58092(13) 0.83280(13)
N2 N 0.2081(2) 0.67202(13) 0.96116(14)
C1 C 0.2938(3) 0.51606(15) 0.91696(16)
C2 C 0.3314(3) 0.41392(16) 0.92770(17)
H1 H 0.3829 0.3755 0.8724
C3 C 0.2899(3) 0.37134(16) 1.02313(18)
H2 H 0.3135 0.3018 1.0338
C4 C 0.2140(3) 0.42806(17) 1.10429(18)
H3 H 0.1854 0.3957 1.1683
C5 C 0.1792(3) 0.53041(16) 1.09412(16)
H4 H 0.1280 0.5689 1.1495
C6 C 0.2235(3) 0.57346(15) 0.99858(16)
C7 C 0.2610(3) 0.67345(15) 0.86146(16)
C8 C 0.2578(3) 0.75932(16) 0.78819(17)
H5 H 0.2142 0.8196 0.8246
H6 H 0.1726 0.7443 0.7297
H7 H 0.3844 0.7709 0.7617
C9 C 0.1487(3) 0.75902(15) 1.02331(17)
H8 H 0.1187 0.7357 1.0946
H9 H 0.0321 0.7867 0.9920
C10 C 0.2944(3) 0.84401(15) 1.03157(16)
C11 C 0.3852(3) 0.55606(16) 0.72945(16)
H10 H 0.4637 0.4948 0.7348
H11 H 0.4662 0.6116 0.7051
C12 C 0.2295(3) 0.53811(15) 0.64823(17)
Zn1B Zn -0.13104(3) 0.446660(17) 0.582858(17)
Zn1A Zn -0.63104(3) 0.053340(17) 0.082858(17)
Zn1A_2 Zn 0.36896(3) 1.053340(17) 1.082858(17)
Zn1C Zn -0.36896(3) -0.053340(17) -0.082858(17)
Zn1C_2 Zn 0.63104(3) 0.946660(17) 0.917142(17)
Cl1B Cl -0.29440(7) 0.34001(4) 0.68530(4)
O1B O -0.4360(2) 0.16000(11) 0.02478(12)
O1A O 0.0640(2) 0.34000(11) 0.52478(12)
O1C O -0.0640(2) 0.66000(11) 0.47522(12)
O2B O -0.2502(2) 0.08770(12) -0.09352(13)
O2A O 0.2498(2) 0.41230(12) 0.40648(13)
O2C O -0.2498(2) 0.58770(12) 0.59352(13)
O3B O -0.2669(2) 0.43456(13) 0.44213(12)
O4B O -0.0830(2) 0.50465(12) 0.32100(12)
N1B N -0.3143(2) 0.41908(13) 0.16720(13)
N2B N -0.2081(2) 0.32798(13) 0.03884(14)
C1B C -0.2938(3) 0.48394(15) 0.08304(16)
C2B C -0.3314(3) 0.58608(16) 0.07230(17)
H1B H -0.3829 0.6245 0.1276
C3B C -0.2899(3) 0.62866(16) -0.02313(18)
H2B H -0.3135 0.6982 -0.0338
C4B C -0.2140(3) 0.57194(17) -0.10429(18)
H3B H -0.1854 0.6043 -0.1683
C5B C -0.1792(3) 0.46959(16) -0.09412(16)
H4B H -0.1280 0.4311 -0.1495
C6B C -0.2235(3) 0.42654(15) 0.00142(16)
C7B C -0.2610(3) 0.32655(15) 0.13854(16)
C8B C -0.2578(3) 0.24068(16) 0.21181(17)
H5B H -0.2142 0.1804 0.1754
H6B H -0.1726 0.2557 0.2703
H7B H -0.3844 0.2291 0.2383
C9B C -0.1487(3) 0.24098(15) -0.02331(17)
H8B H -0.1187 0.2643 -0.0946
H9B H -0.0321 0.2133 0.0080
C10B C -0.2944(3) 0.15599(15) -0.03157(16)
C11B C -0.3852(3) 0.44394(16) 0.27055(16)
H10B H -0.4637 0.5052 0.2652
H11B H -0.4662 0.3884 0.2949
C12B C -0.2295(3) 0.46189(15) 0.35177(17)
loop_
_geom_bond_atom_site_label_1
_geom_bond_atom_site_label_2
_geom_bond_site_symmetry_1
_geom_bond_site_symmetry_2
Zn1 Cl1 1_555 1_555
O1 C10 1_555 1_555
O2 C10 1_555 1_555
O3 Zn1 1_555 1_555
O4 C12 1_555 1_555
N1 C1 1_555 1_555
N2 C6 1_555 1_555
C1 C2 1_555 1_555
C2 H1 1_555 1_555
C3 C2 1_555 1_555
H2 C3 1_555 1_555
C4 C3 1_555 1_555
H3 C4 1_555 1_555
C5 C4 1_555 1_555
H4 C5 1_555 1_555
C6 C1 1_555 1_555
C7 N1 1_555 1_555
C8 C7 1_555 1_555
H5 C8 1_555 1_555
H6 C8 1_555 1_555
H7 C8 1_555 1_555
C9 N2 1_555 1_555
H8 C9 1_555 1_555
H9 C9 1_555 1_555
C10 C9 1_555 1_555
C11 N1 1_555 1_555
H10 C11 1_555 1_555
H11 C11 1_555 1_555
C12 O3 1_555 1_555
Zn1B O4 1_555 1_555
Zn1A O1B 1_555 1_555
Zn1A_2 O2 1_555 1_555
Zn1C O2B 1_555 1_555
Zn1C_2 O1 1_555 1_555
Cl1B Zn1B 1_555 1_555
O1B C10B 1_555 1_555
O1A Zn1B 1_555 1_555
O1C Zn1 1_555 1_555
O2B C10B 1_555 1_555
O2A Zn1 1_555 1_555
O2C Zn1B 1_555 1_555
O3B Zn1B 1_555 1_555
O4B Zn1 1_555 1_555
N1B C1B 1_555 1_555
N2B C6B 1_555 1_555
C1B C2B 1_555 1_555
C2B H1B 1_555 1_555
C3B C2B 1_555 1_555
H2B C3B 1_555 1_555
C4B C3B 1_555 1_555
H3B C4B 1_555 1_555
C5B C4B 1_555 1_555
H4B C5B 1_555 1_555
C6B C1B 1_555 1_555
C7B N1B 1_555 1_555
C8B C7B 1_555 1_555
H5B C8B 1_555 1_555
H6B C8B 1_555 1_555
H7B C8B 1_555 1_555
C9B N2B 1_555 1_555
H8B C9B 1_555 1_555
H9B C9B 1_555 1_555
C10B C9B 1_555 1_555
C11B N1B 1_555 1_555
H10B C11B 1_555 1_555
H11B C11B 1_555 1_555
C12B O3B 1_555 1_555
N2 C7 1_555 1_555
C5 C6 1_555 1_555
C11 C12 1_555 1_555
O4B C12B 1_555 1_555
N2B C7B 1_555 1_555
C5B C6B 1_555 1_555
C11B C12B 1_555 1_555

#END
