
#######################################################################
#
#                 Cambridge Crystallographic Data Centre
#                                CCDC 
#
#######################################################################
#
# If this CIF has been generated from an entry in the Cambridge 
# Structural Database, then it will include bibliographic, chemical, 
# crystal, experimental, refinement or atomic coordinate data resulting 
# from the CCDC's data processing and validation procedures.
#
#######################################################################

data_PAYJOQ
_symmetry_cell_setting           monoclinic
_symmetry_space_group_name_H-M   'P 21/c'
_symmetry_Int_Tables_number      14
_space_group_name_Hall           '-P 2ybc'
loop_
_symmetry_equiv_pos_site_id
_symmetry_equiv_pos_as_xyz
1 x,y,z
2 -x,1/2+y,1/2-z
3 -x,-y,-z
4 x,1/2-y,1/2+z
_cell_length_a                   5.8725(10)
_cell_length_b                   15.013(3)
_cell_length_c                   19.241(8)
_cell_angle_alpha                90
_cell_angle_beta                 104.42(3)
_cell_angle_gamma                90
_cell_volume                     1642.92
loop_
_atom_site_label
_atom_site_type_symbol
_atom_site_fract_x
_atom_site_fract_y
_atom_site_fract_z
Zn1 Zn 0.35240(10) 0.25875(4) 0.08732(3)
O1 O 0.6391(5) 0.3452(2) 0.11677(17)
O2 O 0.3330(5) 0.3794(2) 0.15596(16)
O3 O 0.5760(4) 0.51458(17) 0.23919(13)
O4 O 0.8463(5) 0.6748(2) 0.36985(15)
O5 O 0.4722(5) 0.6501(2) 0.32328(16)
N1 N 0.1045(7) 0.3030(3) -0.00407(19)
N2 N 0.4670(6) 0.1904(3) 0.00778(18)
C1 C 0.5395(7) 0.3928(3) 0.1538(2)
C2 C 0.6835(6) 0.4618(3) 0.1988(2)
C3 C 0.9155(7) 0.4798(3) 0.2139(2)
H1 H 1.0259 0.4532 0.1933
C4 C 0.9582(7) 0.5469(3) 0.2670(2)
H2 H 1.1028 0.5724 0.2886
C5 C 0.7492(6) 0.5669(3) 0.28057(19)
C6 C 0.6828(7) 0.6332(3) 0.3271(2)
C7 C -0.0749(10) 0.3570(4) -0.0079(3)
H3 H -0.0992 0.3816 0.0340
C8 C -0.2319(10) 0.3783(4) -0.0746(4)
H4 H -0.3571 0.4170 -0.0767
C9 C -0.1958(10) 0.3409(4) -0.1357(3)
H5 H -0.2991 0.3539 -0.1797
C10 C -0.0086(9) 0.2843(4) -0.1334(3)
C11 C 0.0446(11) 0.2424(4) -0.1952(2)
H6 H -0.0532 0.2524 -0.2405
C12 C 0.2292(12) 0.1902(4) -0.1882(3)
H7 H 0.2631 0.1667 -0.2293
C13 C 0.3771(10) 0.1689(4) -0.1206(3)
C14 C 0.5738(13) 0.1132(5) -0.1103(4)
H8 H 0.6125 0.0874 -0.1497
C15 C 0.7072(12) 0.0968(5) -0.0442(4)
H9 H 0.8534 0.0666 -0.0303
C16 C 0.6508(9) 0.1371(4) 0.0144(3)
H10 H 0.7459 0.1262 0.0601
C17 C 0.1378(7) 0.2662(3) -0.0654(2)
C18 C 0.3306(8) 0.2074(3) -0.0590(2)
Zn1A Zn 0.64760(10) 0.75875(4) 0.41268(3)
O4A O 0.1537(5) 0.1748(2) 0.13015(15)
O5A O 0.5278(5) 0.1501(2) 0.17672(16)
loop_
_geom_bond_atom_site_label_1
_geom_bond_atom_site_label_2
_geom_bond_site_symmetry_1
_geom_bond_site_symmetry_2
Zn1 O1 1_555 1_555
O1 C1 1_555 1_555
O2 Zn1 1_555 1_555
O3 C2 1_555 1_555
O4 C6 1_555 1_555
O5 C6 1_555 1_555
N1 Zn1 1_555 1_555
N2 Zn1 1_555 1_555
C1 O2 1_555 1_555
C2 C1 1_555 1_555
C3 C2 1_555 1_555
H1 C3 1_555 1_555
C4 C3 1_555 1_555
H2 C4 1_555 1_555
C5 O3 1_555 1_555
C6 C5 1_555 1_555
C7 N1 1_555 1_555
H3 C7 1_555 1_555
C8 C7 1_555 1_555
H4 C8 1_555 1_555
C9 C8 1_555 1_555
H5 C9 1_555 1_555
C10 C9 1_555 1_555
C11 C10 1_555 1_555
H6 C11 1_555 1_555
C12 C11 1_555 1_555
H7 C12 1_555 1_555
C13 C12 1_555 1_555
C14 C13 1_555 1_555
H8 C14 1_555 1_555
C15 C14 1_555 1_555
H9 C15 1_555 1_555
C16 N2 1_555 1_555
H10 C16 1_555 1_555
C17 N1 1_555 1_555
C18 N2 1_555 1_555
Zn1A O4 1_555 1_555
O4A Zn1 1_555 1_555
O5A Zn1 1_555 1_555
O5 Zn1A 1_555 1_555
C4 C5 1_555 1_555
C10 C17 1_555 1_555
C13 C18 1_555 1_555
C15 C16 1_555 1_555
C17 C18 1_555 1_555

#END
