
#######################################################################
#
#                 Cambridge Crystallographic Data Centre
#                                CCDC 
#
#######################################################################
#
# If this CIF has been generated from an entry in the Cambridge 
# Structural Database, then it will include bibliographic, chemical, 
# crystal, experimental, refinement or atomic coordinate data resulting 
# from the CCDC's data processing and validation procedures.
#
#######################################################################

data_PAYLEI
_symmetry_cell_setting           monoclinic
_symmetry_space_group_name_H-M   'P 21/c'
_symmetry_Int_Tables_number      14
_space_group_name_Hall           '-P 2ybc'
loop_
_symmetry_equiv_pos_site_id
_symmetry_equiv_pos_as_xyz
1 x,y,z
2 -x,1/2+y,1/2-z
3 -x,-y,-z
4 x,1/2-y,1/2+z
_cell_length_a                   11.8862(18)
_cell_length_b                   5.6431(9)
_cell_length_c                   15.500(2)
_cell_angle_alpha                90
_cell_angle_beta                 95.687(2)
_cell_angle_gamma                90
_cell_volume                     1034.55
loop_
_atom_site_label
_atom_site_type_symbol
_atom_site_fract_x
_atom_site_fract_y
_atom_site_fract_z
Ni1 Ni 0.5000 0.0000 0.5000
S1 S 0.22867(5) 0.52524(11) 0.32025(4)
O1 O 0.03642(14) 0.3493(3) 0.36616(11)
N1 N -0.33708(16) 0.0597(4) 0.46039(13)
C1 C -0.3094(2) 0.2565(5) 0.41861(17)
H1 H -0.3640 0.3791 0.4099
O2 O 0.42671(14) 0.2203(3) 0.40344(10)
N2 N 0.04253(19) -0.0307(4) 0.33372(17)
C2 C -0.2055(2) 0.2898(5) 0.38770(18)
H2 H -0.1895 0.4322 0.3586
O3 O 0.41911(15) -0.0211(3) 0.28832(12)
N3 N 0.14163(18) 0.0782(4) 0.30919(16)
C3 C -0.1253(2) 0.1121(5) 0.39981(16)
O4 O 0.49432(15) -0.2945(3) 0.41919(12)
C4 C -0.1526(2) -0.0926(5) 0.44222(16)
H3 H -0.0996 -0.2183 0.4512
C5 C -0.2588(2) -0.1107(5) 0.47130(16)
H4 H -0.2769 -0.2515 0.5005
C6 C -0.0151(2) 0.1322(5) 0.36561(17)
C7 C 0.13385(19) 0.2981(5) 0.32989(16)
C8 C 0.3334(2) 0.3561(5) 0.26933(16)
H5 H 0.2953 0.2784 0.2171
H6 H 0.3895 0.4684 0.2495
C9 C 0.39724(19) 0.1663(5) 0.32486(16)
H7 H 0.459(2) -0.417(3) 0.4250(18)
H8 H 0.470(2) -0.229(5) 0.3738(11)
Ni1_2 Ni -0.5000 0.0000 0.5000
S1B S -0.22867(5) -0.52524(11) 0.67975(4)
O1B O -0.03642(14) -0.3493(3) 0.63384(11)
N1B N 0.33708(16) -0.0597(4) 0.53961(13)
N1_2 N 0.66292(16) 0.0597(4) 0.46039(13)
C1B C 0.3094(2) -0.2565(5) 0.58139(17)
H1B H 0.3640 -0.3791 0.5901
O2B O -0.42671(14) -0.2203(3) 0.59656(10)
O2B_2 O 0.57329(14) -0.2203(3) 0.59656(10)
N2B N -0.04253(19) 0.0307(4) 0.66628(17)
C2B C 0.2055(2) -0.2898(5) 0.61230(18)
H2B H 0.1895 -0.4322 0.6414
O3B O -0.41911(15) 0.0211(3) 0.71168(12)
N3B N -0.14163(18) -0.0782(4) 0.69081(16)
C3B C 0.1253(2) -0.1121(5) 0.60019(16)
O4B O 0.50568(15) 0.2945(3) 0.58081(12)
C4B C 0.1526(2) 0.0926(5) 0.55778(16)
H3B H 0.0996 0.2183 0.5488
C5B C 0.2588(2) 0.1107(5) 0.52870(16)
H4B H 0.2769 0.2515 0.4995
C6B C 0.0151(2) -0.1322(5) 0.63439(17)
C7B C -0.13385(19) -0.2981(5) 0.67011(16)
C8B C -0.3334(2) -0.3561(5) 0.73067(16)
H5B H -0.2953 -0.2784 0.7829
H6B H -0.3895 -0.4684 0.7505
C9B C -0.39724(19) -0.1663(5) 0.67514(16)
H7B H 0.541(2) 0.417(3) 0.5750(18)
H8B H 0.530(2) 0.229(5) 0.6262(11)
loop_
_geom_bond_atom_site_label_1
_geom_bond_atom_site_label_2
_geom_bond_site_symmetry_1
_geom_bond_site_symmetry_2
Ni1 O2 1_555 1_555
S1 C7 1_555 1_555
O1 C6 1_555 1_555
N1 C1 1_555 1_555
C1 H1 1_555 1_555
O2 C9 1_555 1_555
N2 N3 1_555 1_555
C2 C1 1_555 1_555
H2 C2 1_555 1_555
O3 C9 1_555 1_555
N3 C7 1_555 1_555
C3 C2 1_555 1_555
O4 Ni1 1_555 1_555
C4 C3 1_555 1_555
H3 C4 1_555 1_555
C5 N1 1_555 1_555
H4 C5 1_555 1_555
C6 N2 1_555 1_555
C7 O1 1_555 1_555
C8 S1 1_555 1_555
H5 C8 1_555 1_555
H6 C8 1_555 1_555
C9 C8 1_555 1_555
H7 O4 1_555 1_555
H8 O4 1_555 1_555
Ni1_2 N1 1_555 1_555
S1B C7B 1_555 1_555
O1B C6B 1_555 1_555
N1B Ni1 1_555 1_555
N1_2 Ni1 1_555 1_555
C1B N1B 1_555 1_555
H1B C1B 1_555 1_555
O2B Ni1_2 1_555 1_555
O2B_2 Ni1 1_555 1_555
N2B N3B 1_555 1_555
C2B C1B 1_555 1_555
H2B C2B 1_555 1_555
O3B C9B 1_555 1_555
N3B C7B 1_555 1_555
C3B C2B 1_555 1_555
O4B Ni1 1_555 1_555
C4B C3B 1_555 1_555
H3B C4B 1_555 1_555
C5B N1B 1_555 1_555
H4B C5B 1_555 1_555
C6B N2B 1_555 1_555
C7B O1B 1_555 1_555
C8B S1B 1_555 1_555
H5B C8B 1_555 1_555
H6B C8B 1_555 1_555
C9B O2B 1_555 1_555
H7B O4B 1_555 1_555
H8B O4B 1_555 1_555
C3 C6 1_555 1_555
C4 C5 1_555 1_555
C3B C6B 1_555 1_555
C4B C5B 1_555 1_555
C8B C9B 1_555 1_555

#END
