
#######################################################################
#
#                 Cambridge Crystallographic Data Centre
#                                CCDC 
#
#######################################################################
#
# If this CIF has been generated from an entry in the Cambridge 
# Structural Database, then it will include bibliographic, chemical, 
# crystal, experimental, refinement or atomic coordinate data resulting 
# from the CCDC's data processing and validation procedures.
#
#######################################################################

data_PAYMAE
_symmetry_cell_setting           monoclinic
_symmetry_space_group_name_H-M   'P 21/n'
_symmetry_Int_Tables_number      14
_space_group_name_Hall           '-P 2yn'
loop_
_symmetry_equiv_pos_site_id
_symmetry_equiv_pos_as_xyz
1 x,y,z
2 1/2-x,1/2+y,1/2-z
3 -x,-y,-z
4 1/2+x,1/2-y,1/2+z
_cell_length_a                   9.888(2)
_cell_length_b                   11.062(3)
_cell_length_c                   10.728(3)
_cell_angle_alpha                90
_cell_angle_beta                 104.011(3)
_cell_angle_gamma                90
_cell_volume                     1138.53
loop_
_atom_site_label
_atom_site_type_symbol
_atom_site_fract_x
_atom_site_fract_y
_atom_site_fract_z
Sn1 Sn 0.76495(4) 0.09531(3) 0.69409(3)
Cl1 Cl 0.7866(2) 0.01317(15) 0.49026(15)
N1 N 0.7199(4) 0.1001(4) 0.9090(4)
O1 O 0.7124(4) -0.0869(3) 0.7475(4)
O2 O 0.6676(4) -0.2145(3) 0.8914(4)
O3 O 0.6449(4) -0.1355(4) 1.1155(4)
H1 H 0.6449 -0.1867 1.0603
C1 C 0.6914(5) -0.1098(5) 0.8570(5)
C2 C 0.6943(5) -0.0099(4) 0.9495(5)
C3 C 0.6708(5) -0.0259(5) 1.0713(5)
C4 C 0.6769(6) 0.0734(6) 1.1493(5)
H2 H 0.6614 0.0647 1.2310
C5 C 0.7054(6) 0.1839(6) 1.1075(6)
H3 H 0.7111 0.2514 1.1602
C6 C 0.7257(6) 0.1942(5) 0.9857(6)
H4 H 0.7442 0.2701 0.9563
C7 C 0.5627(5) 0.1656(6) 0.6330(6)
H5 H 0.5517 0.2320 0.6874
H6 H 0.4961 0.1036 0.6378
H7 H 0.5477 0.1933 0.5459
C8 C 0.9766(5) 0.0902(6) 0.7906(6)
H8 H 0.9996 0.1611 0.8431
H9 H 1.0326 0.0877 0.7290
H10 H 0.9945 0.0195 0.8439
Sn1A Sn 0.73505(4) -0.40469(3) 0.80591(3)
O2A O 0.8324(4) 0.2855(3) 0.6086(4)
loop_
_geom_bond_atom_site_label_1
_geom_bond_atom_site_label_2
_geom_bond_site_symmetry_1
_geom_bond_site_symmetry_2
Sn1 Cl1 1_555 1_555
N1 Sn1 1_555 1_555
O1 Sn1 1_555 1_555
O2 C1 1_555 1_555
O3 H1 1_555 1_555
C1 O1 1_555 1_555
C2 N1 1_555 1_555
C3 O3 1_555 1_555
C4 C3 1_555 1_555
H2 C4 1_555 1_555
C5 C4 1_555 1_555
H3 C5 1_555 1_555
C6 N1 1_555 1_555
H4 C6 1_555 1_555
C7 Sn1 1_555 1_555
H5 C7 1_555 1_555
H6 C7 1_555 1_555
H7 C7 1_555 1_555
C8 Sn1 1_555 1_555
H8 C8 1_555 1_555
H9 C8 1_555 1_555
H10 C8 1_555 1_555
Sn1A O2 1_555 1_555
O2A Sn1 1_555 1_555
C1 C2 1_555 1_555
C2 C3 1_555 1_555
C5 C6 1_555 1_555

#END
