
#######################################################################
#
#                 Cambridge Crystallographic Data Centre
#                                CCDC 
#
#######################################################################
#
# If this CIF has been generated from an entry in the Cambridge 
# Structural Database, then it will include bibliographic, chemical, 
# crystal, experimental, refinement or atomic coordinate data resulting 
# from the CCDC's data processing and validation procedures.
#
#######################################################################

data_PAYREO
_symmetry_cell_setting           monoclinic
_symmetry_space_group_name_H-M   'C 2/c'
_symmetry_Int_Tables_number      15
_space_group_name_Hall           '-C 2yn'
loop_
_symmetry_equiv_pos_site_id
_symmetry_equiv_pos_as_xyz
1 x,y,z
2 -x,y,1/2-z
3 1/2+x,1/2+y,z
4 1/2-x,1/2+y,1/2-z
5 -x,-y,-z
6 x,-y,1/2+z
7 1/2-x,1/2-y,-z
8 1/2+x,1/2-y,1/2+z
_cell_length_a                   26.7189(18)
_cell_length_b                   10.1226(7)
_cell_length_c                   24.7622(17)
_cell_angle_alpha                90
_cell_angle_beta                 96.4210(10)
_cell_angle_gamma                90
_cell_volume                     6655.29
loop_
_atom_site_label
_atom_site_type_symbol
_atom_site_fract_x
_atom_site_fract_y
_atom_site_fract_z
Co1 Co 0.35527(2) 0.18383(5) 0.93942(2)
Co2 Co 0.39249(2) 0.51173(5) 0.84317(2)
O1 O 0.35636(11) 0.9743(3) 0.93314(11)
O2 O 0.32957(10) 1.0611(3) 1.00560(11)
O3 O 0.39712(11) 0.3391(2) 0.79982(11)
O4 O 0.39911(11) -0.2787(3) 0.84887(11)
O5 O 0.40607(11) -0.3629(3) 0.76863(12)
O6 O 0.38365(13) 0.2080(3) 0.86745(12)
O7 O 0.38119(11) 0.4917(3) 0.92200(11)
O8 O 0.34045(10) 0.3598(2) 0.97351(12)
N1 N 0.27837(13) 0.1840(3) 0.89985(13)
N2 N 0.43006(13) 0.1840(3) 0.98289(15)
N3 N 0.31207(13) 0.5260(4) 0.82074(14)
N4 N 0.47206(12) 0.4904(3) 0.86490(13)
C1 C 0.57532(19) 0.4548(6) 0.8862(2)
H1 H 0.6099 0.4427 0.8935
C2 C 0.24213(16) 0.2616(4) 0.91632(17)
H2 H 0.2506 0.3179 0.9456
C3 C 0.19321(17) 0.2620(5) 0.89223(18)
H3 H 0.1695 0.3181 0.9048
C4 C 0.21609(19) 0.0967(5) 0.83247(19)
H4 H 0.2080 0.0381 0.8039
C5 C 0.26455(18) 0.1030(5) 0.85853(18)
H5 H 0.2888 0.0476 0.8465
C6 C 0.28471(17) 0.4256(5) 0.79786(19)
H6 H 0.3013 0.3471 0.7920
C7 C 0.17994(18) 0.1788(5) 0.8495(2)
H7 H 0.1472 0.1777 0.8324
C8 C 0.28686(19) 0.6354(6) 0.8290(2)
H8 H 0.3047 0.7069 0.8449
C9 C 0.2091(2) 0.5456(7) 0.7917(2)
H9 H 0.1746 0.5526 0.7820
C10 C 0.43602(19) 0.2021(5) 1.0365(2)
H10 H 0.4074 0.2191 1.0535
C11 C 0.47211(19) 0.1616(5) 0.9598(2)
H11 H 0.4695 0.1499 0.9223
C12 C 0.4813(2) 0.1976(6) 1.0685(2)
H12 H 0.4832 0.2105 1.1058
C13 C 0.2356(2) 0.6492(7) 0.8152(2)
H13 H 0.2195 0.7280 0.8219
C14 C 0.5237(2) 0.1736(6) 1.0439(3)
H14 H 0.5550 0.1700 1.0644
C15 C 0.23382(19) 0.4310(6) 0.7825(2)
H15 H 0.2166 0.3588 0.7664
C16 C 0.5197(2) 0.1550(6) 0.9892(3)
H16 H 0.5481 0.1381 0.9718
C17 C 0.41050(13) 0.1095(4) 0.78952(15)
C18 C 0.41443(14) -0.1281(4) 0.77838(15)
C19 C 0.39595(14) 0.2272(4) 0.82185(16)
C20 C 0.40432(14) -0.0177(3) 0.80902(16)
H17 H 0.3933 -0.0292 0.8430
C21 C 0.32940(14) 0.8249(4) 0.99897(15)
C22 C 0.35306(13) 0.4719(4) 0.95844(15)
C23 C 0.29152(15) 0.6799(4) 1.05964(16)
H18 H 0.2735 0.6675 1.0893
C24 C 0.42825(16) 0.1257(4) 0.73977(17)
H19 H 0.4328 0.2104 0.7266
C25 C 0.33449(13) 0.5891(4) 0.98750(15)
C26 C 0.40588(14) -0.2644(4) 0.79965(17)
C27 C 0.30677(14) 0.5715(4) 1.03103(16)
H20 H 0.2983 0.4867 1.0412
C28 C 0.30321(15) 0.8062(4) 1.04375(16)
H21 H 0.2935 0.8788 1.0631
C29 C 0.34509(13) 0.7163(3) 0.97101(15)
H22 H 0.3628 0.7288 0.9411
C30 C 0.43154(16) -0.1094(4) 0.72835(17)
H23 H 0.4379 -0.1824 0.7073
C31 C 0.43943(18) 0.0167(4) 0.70894(19)
H24 H 0.4520 0.0283 0.6757
C32 C 0.33932(14) 0.9617(4) 0.97830(17)
C33 C 0.50228(17) 0.4938(5) 0.8263(2)
H25 H 0.4879 0.5093 0.7909
C34 C 0.49385(18) 0.4702(5) 0.91487(19)
H26 H 0.4736 0.4684 0.9431
C35 C 0.54507(19) 0.4515(6) 0.9272(2)
H27 H 0.5588 0.4369 0.9629
C36 C 0.55390(18) 0.4760(6) 0.8348(2)
H28 H 0.5734 0.4785 0.8060
Co1_2 Co 0.35527(2) 1.18383(5) 0.93942(2)
Co2_2 Co 0.39249(2) -0.48827(5) 0.84317(2)
O1_2 O 0.35636(11) -0.0257(3) 0.93314(11)
O2_2 O 0.32957(10) 0.0611(3) 1.00560(11)
O4_2 O 0.39911(11) 0.7213(3) 0.84887(11)
O5_2 O 0.40607(11) 0.6371(3) 0.76863(12)
loop_
_geom_bond_atom_site_label_1
_geom_bond_atom_site_label_2
_geom_bond_site_symmetry_1
_geom_bond_site_symmetry_2
Co1 O6 1_555 1_555
Co2 O3 1_555 1_555
O1 C32 1_555 1_555
O2 C32 1_555 1_555
O3 C19 1_555 1_555
O4 C26 1_555 1_555
O5 C26 1_555 1_555
O6 C19 1_555 1_555
O7 Co2 1_555 1_555
O8 Co1 1_555 1_555
N1 Co1 1_555 1_555
N2 Co1 1_555 1_555
N3 Co2 1_555 1_555
N4 Co2 1_555 1_555
C1 H1 1_555 1_555
C2 N1 1_555 1_555
H2 C2 1_555 1_555
C3 C2 1_555 1_555
H3 C3 1_555 1_555
C4 H4 1_555 1_555
C5 N1 1_555 1_555
H5 C5 1_555 1_555
C6 N3 1_555 1_555
H6 C6 1_555 1_555
C7 C3 1_555 1_555
H7 C7 1_555 1_555
C8 N3 1_555 1_555
H8 C8 1_555 1_555
C9 H9 1_555 1_555
C10 N2 1_555 1_555
H10 C10 1_555 1_555
C11 N2 1_555 1_555
H11 C11 1_555 1_555
C12 C10 1_555 1_555
H12 C12 1_555 1_555
C13 C8 1_555 1_555
H13 C13 1_555 1_555
C14 C12 1_555 1_555
H14 C14 1_555 1_555
C15 C6 1_555 1_555
H15 C15 1_555 1_555
C16 C11 1_555 1_555
H16 C16 1_555 1_555
C17 C19 1_555 1_555
C18 C20 1_555 1_555
C20 C17 1_555 1_555
H17 C20 1_555 1_555
C21 C28 1_555 1_555
C22 O7 1_555 1_555
C23 H18 1_555 1_555
C24 C17 1_555 1_555
H19 C24 1_555 1_555
C25 C22 1_555 1_555
C26 C18 1_555 1_555
C27 C23 1_555 1_555
H20 C27 1_555 1_555
C28 C23 1_555 1_555
H21 C28 1_555 1_555
C29 C21 1_555 1_555
H22 C29 1_555 1_555
C30 C18 1_555 1_555
H23 C30 1_555 1_555
C31 C24 1_555 1_555
H24 C31 1_555 1_555
C32 C21 1_555 1_555
C33 N4 1_555 1_555
H25 C33 1_555 1_555
C34 N4 1_555 1_555
H26 C34 1_555 1_555
C35 C1 1_555 1_555
H27 C35 1_555 1_555
C36 C1 1_555 1_555
H28 C36 1_555 1_555
Co1_2 O1 1_555 1_555
Co2_2 O4 1_555 1_555
O1_2 Co1 1_555 1_555
O2_2 Co1 1_555 1_555
O4_2 Co2 1_555 1_555
O5_2 Co2 1_555 1_555
O2 Co1_2 1_555 1_555
O5 Co2_2 1_555 1_555
O8 C22 1_555 1_555
C4 C5 1_555 1_555
C4 C7 1_555 1_555
C9 C13 1_555 1_555
C9 C15 1_555 1_555
C14 C16 1_555 1_555
C25 C27 1_555 1_555
C25 C29 1_555 1_555
C30 C31 1_555 1_555
C33 C36 1_555 1_555
C34 C35 1_555 1_555

#END
