
#######################################################################
#
#                 Cambridge Crystallographic Data Centre
#                                CCDC 
#
#######################################################################
#
# If this CIF has been generated from an entry in the Cambridge 
# Structural Database, then it will include bibliographic, chemical, 
# crystal, experimental, refinement or atomic coordinate data resulting 
# from the CCDC's data processing and validation procedures.
#
#######################################################################

data_PAYTAM
_symmetry_cell_setting           triclinic
_symmetry_space_group_name_H-M   'P -1'
_symmetry_Int_Tables_number      2
_space_group_name_Hall           '-P 1'
loop_
_symmetry_equiv_pos_site_id
_symmetry_equiv_pos_as_xyz
1 x,y,z
2 -x,-y,-z
_cell_length_a                   8.3244(17)
_cell_length_b                   12.992(3)
_cell_length_c                   13.540(3)
_cell_angle_alpha                85.79(3)
_cell_angle_beta                 84.67(3)
_cell_angle_gamma                87.17(3)
_cell_volume                     1452.76
loop_
_atom_site_label
_atom_site_type_symbol
_atom_site_fract_x
_atom_site_fract_y
_atom_site_fract_z
Cd1 Cd 0.16008(3) 0.030815(17) 0.077320(17)
Cd2 Cd 0.38339(3) -0.258900(16) 0.547070(15)
Cd3 Cd 0.17013(3) -0.508580(17) 0.221030(15)
O1 O -0.1133(3) 0.01484(17) 0.09031(15)
O2 O -0.3553(3) 0.00697(18) 0.17445(17)
H1 H -0.3953 -0.0381 0.1465
O3 O 0.1589(3) -0.33132(18) 0.21984(18)
O4 O 0.0193(3) -0.40654(16) 0.34811(17)
O5 O 0.1396(3) -0.30563(17) 0.50753(18)
O6 O -0.1027(3) -0.2697(2) 0.58004(18)
O7 O -0.2938(3) 0.08991(18) 0.46215(17)
O8 O -0.2171(3) 0.14979(17) 0.30916(17)
O9 O 0.1276(3) 0.19607(18) -0.00883(17)
O10 O 0.3778(3) 0.13809(17) 0.00776(17)
O11 O 0.2987(3) 0.35204(18) 0.10793(16)
H2 H 0.3902 0.3256 0.1010
O12 O 0.2293(4) 0.50979(18) 0.05480(17)
O13 O 0.3761(3) 0.59828(17) -0.33999(16)
O14 O 0.6352(3) 0.56376(16) -0.31637(16)
O15 O 0.5157(3) 0.39054(17) -0.43313(15)
O16 O 0.5220(4) 0.22733(19) -0.37873(19)
O17 O 0.1438(4) 0.1222(3) 0.2170(2)
H3 H 0.1858 0.0889 0.2650
H4 H 0.0472 0.1294 0.2412
O18 O 0.3002(4) -0.1137(3) 0.1143(3)
H5 H 0.3966 -0.1163 0.0873
H6 H 0.2859 -0.1668 0.1542
O19 O 0.5894(3) -0.20211(18) 0.62528(19)
H7 H 0.5794 -0.1366 0.6227
H8 H 0.6889 -0.2195 0.6143
O20 O -0.0312(3) -0.6158(2) 0.2434(2)
H9 H -0.0047 -0.6608 0.2884
H10 H -0.1237 -0.5955 0.2685
C1 C -0.2069(4) -0.0074(2) 0.1688(2)
C2 C 0.0634(4) -0.3266(2) 0.2965(2)
C3 C 0.0021(4) -0.2601(2) 0.5089(2)
C4 C -0.2286(4) 0.0777(2) 0.3753(2)
C5 C -0.1338(3) -0.0616(2) 0.2577(2)
C6 C -0.0544(3) -0.1566(2) 0.2429(2)
H19 H -0.0320 -0.1770 0.1784
C7 C -0.0074(3) -0.2223(2) 0.3227(2)
C8 C -0.0389(3) -0.1918(2) 0.4193(2)
C9 C -0.1116(4) -0.0943(2) 0.4335(2)
H20 H -0.1293 -0.0727 0.4977
C10 C -0.1586(3) -0.0284(2) 0.3547(2)
C11 C 0.2780(4) 0.2045(2) -0.0247(2)
C12 C 0.2843(4) 0.4197(2) 0.0387(2)
C13 C 0.4879(3) 0.5440(2) -0.3039(2)
C14 C 0.4981(4) 0.3204(2) -0.3644(2)
C15 C 0.3382(3) 0.2933(2) -0.0935(2)
C16 C 0.3343(4) 0.3948(2) -0.0658(2)
C17 C 0.3824(4) 0.4731(2) -0.1368(2)
H21 H 0.3779 0.5409 -0.1186
C18 C 0.4369(3) 0.4528(2) -0.2338(2)
C19 C 0.4427(3) 0.3504(2) -0.2610(2)
C20 C 0.3926(4) 0.2723(2) -0.1903(2)
H22 H 0.3956 0.2045 -0.2085
Cd1A Cd -0.16008(3) -0.030815(17) -0.077320(17)
Cd2A Cd -0.38339(3) 0.258900(16) 0.452930(15)
Cd2_2 Cd 0.38339(3) 0.741100(16) -0.452930(15)
Cd2A_2 Cd 0.61661(3) 0.258900(16) -0.547070(15)
Cd3_2 Cd 0.17013(3) 0.491420(17) 0.221030(15)
Cd3A Cd 0.82987(3) 0.508580(17) -0.221030(15)
O1A O 0.1133(3) -0.01484(17) -0.09031(15)
O7A O 0.2938(3) -0.08991(18) 0.53785(17)
O11_2 O 0.2987(3) -0.64796(18) 0.10793(16)
H2_2 H 0.3902 -0.6744 0.1010
O12_2 O 0.2293(4) -0.49021(18) 0.05480(17)
O13_2 O 0.3761(3) -0.40172(17) 0.66001(16)
O14A O 0.3648(3) -0.56376(16) 0.31637(16)
O15A O 0.4843(3) -0.39054(17) 0.43313(15)
O16A O 0.4780(4) -0.22733(19) 0.37873(19)
O21 O 0.1511(4) 0.6937(2) 0.9506(2)
H11 H 0.0610 0.7199 0.9737
H12 H 0.1606 0.6418 0.9920
O22 O 0.5749(4) 0.2208(2) 0.1579(2)
H13 H 0.5693 0.1581 0.1450
H14 H 0.6664 0.2381 0.1301
O23 O 0.6103(4) 0.0002(2) 0.6595(2)
H15 H 0.5277 0.0223 0.6948
H16 H 0.6288 0.0415 0.6084
O24 O 0.7826(3) 0.5204(2) 0.4913(2)
H17 H 0.8507 0.5474 0.4476
H18 H 0.6930 0.5225 0.4656
loop_
_geom_bond_atom_site_label_1
_geom_bond_atom_site_label_2
_geom_bond_site_symmetry_1
_geom_bond_site_symmetry_2
Cd1 O1 1_555 1_555
Cd2 O5 1_555 1_555
Cd3 O3 1_555 1_555
O1 C1 1_555 1_555
O2 H1 1_555 1_555
O3 C2 1_555 1_555
O4 Cd3 1_555 1_555
O5 C3 1_555 1_555
O6 C3 1_555 1_555
O7 C4 1_555 1_555
O8 C4 1_555 1_555
O9 Cd1 1_555 1_555
O10 Cd1 1_555 1_555
O11 H2 1_555 1_555
O12 C12 1_555 1_555
O13 C13 1_555 1_555
O14 C13 1_555 1_555
O15 C14 1_555 1_555
O16 C14 1_555 1_555
O17 Cd1 1_555 1_555
H3 O17 1_555 1_555
H4 O17 1_555 1_555
O18 Cd1 1_555 1_555
H5 O18 1_555 1_555
H6 O18 1_555 1_555
O19 Cd2 1_555 1_555
H7 O19 1_555 1_555
H8 O19 1_555 1_555
O20 Cd3 1_555 1_555
H9 O20 1_555 1_555
H10 O20 1_555 1_555
O21 H11 1_555 1_555
H12 O21 1_555 1_555
O22 H13 1_555 1_555
H14 O22 1_555 1_555
O23 H15 1_555 1_555
H16 O23 1_555 1_555
O24 H17 1_555 1_555
H18 O24 1_555 1_555
C1 O2 1_555 1_555
C2 O4 1_555 1_555
C3 C8 1_555 1_555
C4 C10 1_555 1_555
C5 C1 1_555 1_555
C6 C5 1_555 1_555
H19 C6 1_555 1_555
C7 C2 1_555 1_555
C8 C7 1_555 1_555
C9 C8 1_555 1_555
H20 C9 1_555 1_555
C10 C5 1_555 1_555
C11 O9 1_555 1_555
C12 O11 1_555 1_555
C13 C18 1_555 1_555
C14 C19 1_555 1_555
C15 C11 1_555 1_555
C16 C12 1_555 1_555
C17 C16 1_555 1_555
H21 C17 1_555 1_555
C18 C17 1_555 1_555
C19 C18 1_555 1_555
C20 C15 1_555 1_555
H22 C20 1_555 1_555
Cd1A O1 1_555 1_555
Cd2A O7 1_555 1_555
Cd2_2 O13 1_555 1_555
Cd2A_2 O15 1_555 1_555
Cd3_2 O11 1_555 1_555
Cd3A O14 1_555 1_555
O1A Cd1 1_555 1_555
O7A Cd2 1_555 1_555
O11_2 Cd3 1_555 1_555
H2_2 O11_2 1_555 1_555
O12_2 Cd3 1_555 1_555
O13_2 Cd2 1_555 1_555
O14A Cd3 1_555 1_555
O15A Cd2 1_555 1_555
O16A Cd2 1_555 1_555
O10 C11 1_555 1_555
O12 Cd3_2 1_555 1_555
O16 Cd2A_2 1_555 1_555
C6 C7 1_555 1_555
C9 C10 1_555 1_555
C15 C16 1_555 1_555
C19 C20 1_555 1_555
Cd1A O1A 1_555 1_555

#END
