
#######################################################################
#
#                 Cambridge Crystallographic Data Centre
#                                CCDC 
#
#######################################################################
#
# If this CIF has been generated from an entry in the Cambridge 
# Structural Database, then it will include bibliographic, chemical, 
# crystal, experimental, refinement or atomic coordinate data resulting 
# from the CCDC's data processing and validation procedures.
#
#######################################################################

data_PAYTUG
_symmetry_cell_setting           triclinic
_symmetry_space_group_name_H-M   'P -1'
_symmetry_Int_Tables_number      2
_space_group_name_Hall           '-P 1'
loop_
_symmetry_equiv_pos_site_id
_symmetry_equiv_pos_as_xyz
1 x,y,z
2 -x,-y,-z
_cell_length_a                   10.2028(14)
_cell_length_b                   10.2744(14)
_cell_length_c                   11.4529(16)
_cell_angle_alpha                75.405(2)
_cell_angle_beta                 83.480(2)
_cell_angle_gamma                61.499(2)
_cell_volume                     1021
loop_
_atom_site_label
_atom_site_type_symbol
_atom_site_fract_x
_atom_site_fract_y
_atom_site_fract_z
Zn1 Zn -0.12836(4) 0.60720(4) 1.18865(3)
N1 N -0.1733(3) 0.7657(3) 1.0358(2)
N2 N -0.1374(3) 0.8927(3) 0.8612(2)
N3 N -0.1584(3) 0.7322(3) 0.5120(3)
N4 N -0.1780(3) 0.6676(3) 0.3492(3)
O1 O 0.1045(3) 0.6829(3) 1.1935(2)
O2 O 0.0904(2) 0.4788(3) 1.1805(2)
O3 O 0.7971(2) 0.4629(3) 1.1786(2)
O4 O 0.5906(3) 0.6760(3) 1.1811(2)
C1 C 0.1634(3) 0.5512(4) 1.1811(3)
C2 C 0.3288(3) 0.4676(4) 1.1651(3)
C3 C 0.3983(4) 0.3254(4) 1.1412(3)
H1 H 0.3422 0.2771 1.1368
C4 C 0.5505(4) 0.2531(4) 1.1234(3)
H2 H 0.5964 0.1573 1.1060
C5 C 0.6341(4) 0.3236(4) 1.1315(3)
H3 H 0.7365 0.2752 1.1194
C6 C 0.5668(3) 0.4654(3) 1.1575(3)
C7 C 0.4142(3) 0.5373(4) 1.1729(3)
H4 H 0.3680 0.6340 1.1887
C8 C 0.6550(3) 0.5425(4) 1.1731(3)
C9 C -0.0785(3) 0.7650(4) 0.9477(3)
H5 H 0.0174 0.6858 0.9458
C10 C -0.2999(4) 0.9013(4) 1.0029(3)
H6 H -0.3871 0.9332 1.0477
C11 C -0.2793(4) 0.9816(4) 0.8960(3)
H7 H -0.3474 1.0774 0.8544
C12 C -0.0539(4) 0.9346(4) 0.7587(3)
H8 H 0.0289 0.8427 0.7412
H9 H -0.0129 0.9931 0.7809
C13 C -0.1483(4) 1.0259(4) 0.6473(3)
C14 C -0.2102(5) 1.1822(4) 0.6227(4)
H10 H -0.1920 1.2278 0.6752
C15 C -0.2984(5) 1.2723(5) 0.5217(4)
H11 H -0.3391 1.3776 0.5059
C16 C -0.3248(5) 1.2046(5) 0.4458(4)
H12 H -0.3853 1.2643 0.3781
C17 C -0.2638(4) 1.0504(5) 0.4677(3)
H13 H -0.2820 1.0065 0.4137
C18 C -0.1755(4) 0.9577(4) 0.5683(3)
C19 C -0.1066(4) 0.7864(4) 0.5940(3)
H14 H 0.0010 0.7444 0.5880
H15 H -0.1297 0.7492 0.6761
C20 C -0.0952(4) 0.6950(4) 0.4103(3)
H16 H -0.0031 0.6888 0.3846
C21 C -0.3031(5) 0.6908(5) 0.4175(4)
H17 H -0.3831 0.6807 0.3974
C22 C -0.2927(5) 0.7305(5) 0.5184(4)
H18 H -0.3624 0.7523 0.5799
Zn1_2 Zn -0.12836(4) 0.60720(4) 0.18865(3)
Zn1_3 Zn 0.87164(4) 0.60720(4) 1.18865(3)
N4_2 N -0.1780(3) 0.6676(3) 1.3492(3)
O3_2 O -0.2029(2) 0.4629(3) 1.1786(2)
loop_
_geom_bond_atom_site_label_1
_geom_bond_atom_site_label_2
_geom_bond_site_symmetry_1
_geom_bond_site_symmetry_2
Zn1 N1 1_555 1_555
N1 C9 1_555 1_555
N2 C9 1_555 1_555
N3 C19 1_555 1_555
N4 C20 1_555 1_555
O1 C1 1_555 1_555
O2 Zn1 1_555 1_555
O3 C8 1_555 1_555
O4 C8 1_555 1_555
C1 O2 1_555 1_555
C2 C1 1_555 1_555
C3 C2 1_555 1_555
H1 C3 1_555 1_555
C4 C3 1_555 1_555
H2 C4 1_555 1_555
C5 C4 1_555 1_555
H3 C5 1_555 1_555
C6 C5 1_555 1_555
C7 C2 1_555 1_555
H4 C7 1_555 1_555
C8 C6 1_555 1_555
C9 H5 1_555 1_555
C10 N1 1_555 1_555
H6 C10 1_555 1_555
C11 N2 1_555 1_555
H7 C11 1_555 1_555
C12 N2 1_555 1_555
H8 C12 1_555 1_555
H9 C12 1_555 1_555
C13 C12 1_555 1_555
C14 C13 1_555 1_555
H10 C14 1_555 1_555
C15 C14 1_555 1_555
H11 C15 1_555 1_555
C16 C15 1_555 1_555
H12 C16 1_555 1_555
C17 C16 1_555 1_555
H13 C17 1_555 1_555
C18 C13 1_555 1_555
C19 C18 1_555 1_555
H14 C19 1_555 1_555
H15 C19 1_555 1_555
C20 N3 1_555 1_555
H16 C20 1_555 1_555
C21 N4 1_555 1_555
H17 C21 1_555 1_555
C22 N3 1_555 1_555
H18 C22 1_555 1_555
Zn1_2 N4 1_555 1_555
Zn1_3 O3 1_555 1_555
N4_2 Zn1 1_555 1_555
O3_2 Zn1 1_555 1_555
C6 C7 1_555 1_555
C10 C11 1_555 1_555
C17 C18 1_555 1_555
C21 C22 1_555 1_555

#END
