
#######################################################################
#
#                 Cambridge Crystallographic Data Centre
#                                CCDC 
#
#######################################################################
#
# If this CIF has been generated from an entry in the Cambridge 
# Structural Database, then it will include bibliographic, chemical, 
# crystal, experimental, refinement or atomic coordinate data resulting 
# from the CCDC's data processing and validation procedures.
#
#######################################################################

data_PAYVES
_symmetry_cell_setting           triclinic
_symmetry_space_group_name_H-M   'P -1'
_symmetry_Int_Tables_number      2
_space_group_name_Hall           '-P 1'
loop_
_symmetry_equiv_pos_site_id
_symmetry_equiv_pos_as_xyz
1 x,y,z
2 -x,-y,-z
_cell_length_a                   7.9098(4)
_cell_length_b                   8.0028(4)
_cell_length_c                   8.0864(5)
_cell_angle_alpha                88.620(2)
_cell_angle_beta                 71.270(2)
_cell_angle_gamma                72.030(2)
_cell_volume                     459.518
loop_
_atom_site_label
_atom_site_type_symbol
_atom_site_fract_x
_atom_site_fract_y
_atom_site_fract_z
Sr1 Sr 0.685514(18) 0.654700(16) 0.373999(17)
O1 O 0.53412(17) 0.40183(16) 0.33347(15)
O2 O 0.63315(17) 0.12206(15) -0.40559(15)
O3 O 0.7094(2) 0.47815(16) 0.09101(16)
O4 O 0.76724(18) -0.16816(16) -0.41598(16)
O5 O 0.85222(17) 0.35498(17) 0.47402(19)
O6 O 1.03912(18) 0.5746(2) 0.23839(17)
N1 N 0.7457(2) -0.11960(18) 0.10565(18)
C1 C 0.7063(2) -0.0153(2) -0.34150(19)
C2 C 0.7184(2) 0.0071(2) -0.16144(19)
C3 C 0.6819(2) 0.1745(2) -0.0860(2)
H1 H 0.6607 0.2725 -0.1498
C4 C 0.6775(2) 0.1931(2) 0.0855(2)
C5 C 0.7511(2) -0.1354(2) -0.0614(2)
H2 H 0.7781 -0.2475 -0.1125
C6 C 0.6365(2) 0.3698(2) 0.1760(2)
C7 C 0.7093(2) 0.0429(2) 0.1755(2)
H3 H 0.7051 0.0559 0.2909
H4 H 1.1093 0.5659 0.1327
H5 H 0.9661 0.2895 0.4265
H6 H 0.7950 0.2793 0.4868
H7 H 1.0903 0.5704 0.3176
Sr1A Sr 0.314486(18) 0.345300(16) -0.373999(17)
Sr1_2 Sr 0.685514(18) -0.345300(16) -0.626001(17)
Sr1_3 Sr 0.685514(18) -0.345300(16) 0.373999(17)
Sr1_4 Sr 0.685514(18) 0.654700(16) -0.626001(17)
Sr1A_2 Sr 0.314486(18) 0.345300(16) 0.626001(17)
Sr1A_3 Sr 0.314486(18) 1.345300(16) -0.373999(17)
Sr1A_4 Sr 0.314486(18) 1.345300(16) 0.626001(17)
O1A O 0.46588(17) 0.59817(16) -0.33347(15)
O1_2 O 0.53412(17) 0.40183(16) -0.66653(15)
O1A_2 O 0.46588(17) 0.59817(16) 0.66653(15)
O2A O 0.36685(17) 0.87794(15) 0.40559(15)
O3A O 0.2906(2) 0.52185(16) -0.09101(16)
O4A O 0.23276(18) 1.16816(16) 0.41598(16)
O4_2 O 0.76724(18) 0.83184(16) 0.58402(16)
O4A_2 O 0.23276(18) 0.16816(16) -0.58402(16)
O5A O 0.14778(17) 0.64502(17) -0.47402(19)
O6A O -0.03912(18) 0.4254(2) -0.23839(17)
N1A N 0.2543(2) 1.11960(18) -0.10565(18)
N1_2 N 0.7457(2) 0.88040(18) 0.10565(18)
N1A_2 N 0.2543(2) 0.11960(18) -0.10565(18)
C1A C 0.2937(2) 1.0153(2) 0.34150(19)
C2A C 0.2816(2) 0.9929(2) 0.16144(19)
C3A C 0.3181(2) 0.8255(2) 0.0860(2)
H1A H 0.3393 0.7275 0.1498
C4A C 0.3225(2) 0.8069(2) -0.0855(2)
C5A C 0.2489(2) 1.1354(2) 0.0614(2)
H2A H 0.2219 1.2475 0.1125
C6A C 0.3635(2) 0.6302(2) -0.1760(2)
C7A C 0.2907(2) 0.9571(2) -0.1755(2)
H3A H 0.2949 0.9441 -0.2909
H4A H -0.1093 0.4341 -0.1327
H5A H 0.0339 0.7105 -0.4265
H6A H 0.2050 0.7207 -0.4868
H7A H -0.0903 0.4296 -0.3176
loop_
_geom_bond_atom_site_label_1
_geom_bond_atom_site_label_2
_geom_bond_site_symmetry_1
_geom_bond_site_symmetry_2
Sr1 O1 1_555 1_555
O1 C6 1_555 1_555
O2 C1 1_555 1_555
O3 Sr1 1_555 1_555
O4 C1 1_555 1_555
O5 Sr1 1_555 1_555
O6 Sr1 1_555 1_555
N1 C5 1_555 1_555
C1 C2 1_555 1_555
C2 C3 1_555 1_555
C3 H1 1_555 1_555
C4 C3 1_555 1_555
C5 C2 1_555 1_555
H2 C5 1_555 1_555
C6 O3 1_555 1_555
C7 N1 1_555 1_555
H3 C7 1_555 1_555
H4 O6 1_555 1_555
H5 O5 1_555 1_555
H6 O5 1_555 1_555
H7 O6 1_555 1_555
Sr1A O2 1_555 1_555
Sr1_2 O4 1_555 1_555
Sr1_3 N1 1_555 1_555
Sr1_4 O1A 1_555 1_555
Sr1A_2 O1 1_555 1_555
Sr1A_3 N1A 1_555 1_555
Sr1A_4 O4A 1_555 1_555
O1A Sr1A 1_555 1_555
O1_2 Sr1A 1_555 1_555
O1A_2 Sr1 1_555 1_555
O2A Sr1 1_555 1_555
O3A Sr1A 1_555 1_555
O4A C1A 1_555 1_555
O4_2 Sr1 1_555 1_555
O4A_2 Sr1A 1_555 1_555
O5A Sr1A 1_555 1_555
O6A Sr1A 1_555 1_555
N1A C5A 1_555 1_555
N1_2 Sr1 1_555 1_555
N1A_2 Sr1A 1_555 1_555
C1A O2A 1_555 1_555
C2A C1A 1_555 1_555
C3A C2A 1_555 1_555
H1A C3A 1_555 1_555
C4A C3A 1_555 1_555
C5A C2A 1_555 1_555
H2A C5A 1_555 1_555
C6A O1A 1_555 1_555
C7A N1A 1_555 1_555
H3A C7A 1_555 1_555
H4A O6A 1_555 1_555
H5A O5A 1_555 1_555
H6A O5A 1_555 1_555
H7A O6A 1_555 1_555
C4 C6 1_555 1_555
C4 C7 1_555 1_555
Sr1_4 O1_2 1_555 1_555
Sr1A_2 O1A_2 1_555 1_555
O3A C6A 1_555 1_555
C4A C6A 1_555 1_555
C4A C7A 1_555 1_555

#END
