
#######################################################################
#
#                 Cambridge Crystallographic Data Centre
#                                CCDC 
#
#######################################################################
#
# If this CIF has been generated from an entry in the Cambridge 
# Structural Database, then it will include bibliographic, chemical, 
# crystal, experimental, refinement or atomic coordinate data resulting 
# from the CCDC's data processing and validation procedures.
#
#######################################################################

data_PAZBEY01
_symmetry_cell_setting           triclinic
_symmetry_space_group_name_H-M   'P -1'
_symmetry_Int_Tables_number      2
_space_group_name_Hall           '-P 1'
loop_
_symmetry_equiv_pos_site_id
_symmetry_equiv_pos_as_xyz
1 x,y,z
2 -x,-y,-z
_cell_length_a                   10.124(2)
_cell_length_b                   10.658(2)
_cell_length_c                   10.847(2)
_cell_angle_alpha                111.36(3)
_cell_angle_beta                 115.27(3)
_cell_angle_gamma                93.80(3)
_cell_volume                     950.922
loop_
_atom_site_label
_atom_site_type_symbol
_atom_site_fract_x
_atom_site_fract_y
_atom_site_fract_z
Cu1 Cu 0.57325(4) 0.55239(3) 0.69315(4)
N1 N 0.5299(3) 0.6690(3) 0.8601(3)
N2 N 0.4174(3) 0.4022(3) 0.6687(3)
C1 C 0.5908(4) 0.8030(4) 0.9567(4)
H1 H 0.6627 0.8555 0.9504
C2 C 0.5497(5) 0.8678(4) 1.0680(4)
H2 H 0.5954 0.9617 1.1348
C3 C 0.4441(4) 0.7946(4) 1.0790(4)
H3 H 0.4162 0.8378 1.1522
C4 C 0.3770(4) 0.6521(4) 0.9781(4)
C5 C 0.2635(4) 0.5653(5) 0.9780(4)
H4 H 0.2307 0.6027 1.0484
C6 C 0.2032(4) 0.4301(5) 0.8776(5)
H5 H 0.1292 0.3758 0.8798
C7 C 0.2503(4) 0.3678(4) 0.7673(4)
C8 C 0.1949(4) 0.2260(4) 0.6609(5)
H6 H 0.1205 0.1661 0.6569
C9 C 0.2514(4) 0.1784(4) 0.5650(5)
H7 H 0.2157 0.0852 0.4947
C10 C 0.3638(4) 0.2690(3) 0.5710(4)
H8 H 0.4015 0.2341 0.5043
C11 C 0.3622(3) 0.4503(3) 0.7652(3)
C12 C 0.4247(3) 0.5954(3) 0.8710(3)
O1 O 0.7287(2) 0.7016(3) 0.7355(3)
O2 O 0.8905(3) 0.7262(4) 0.9616(3)
C13 C 0.8616(3) 0.7428(3) 0.8490(4)
C14 C 0.9838(4) 0.8155(4) 0.8339(4)
H9 H 0.9534 0.8908 0.8081
H10 H 1.0769 0.8557 0.9301
C15 C 1.0117(3) 0.7142(3) 0.7130(3)
H11 H 1.0410 0.6387 0.7390
H12 H 0.9180 0.6741 0.6174
C16 C 1.1329(3) 0.7812(3) 0.6934(3)
H13 H 1.2270 0.8193 0.7884
H14 H 1.1047 0.8583 0.6702
C17 C 1.1597(3) 0.6819(3) 0.5697(3)
H15 H 1.0661 0.6441 0.4741
H16 H 1.1883 0.6047 0.5925
C18 C 1.2831(4) 0.7533(3) 0.5536(4)
H17 H 1.2535 0.8292 0.5284
H18 H 1.3762 0.7930 0.6497
C19 C 1.3112(3) 0.6532(3) 0.4330(4)
O3 O 1.2515(4) 0.6454(3) 0.3038(3)
O4 O 1.3974(2) 0.5762(2) 0.4712(2)
Cu1_2 Cu 1.57325(4) 0.55239(3) 0.69315(4)
Cu1A Cu 1.42675(4) 0.44761(3) 0.30685(4)
O4_2 O 0.3974(2) 0.5762(2) 0.4712(2)
O4A O 0.6026(2) 0.4238(2) 0.5288(2)
O5 O 0.8681(4) 0.1432(3) 0.7507(4)
H19 H 0.8264 0.1982 0.7546
H20 H 0.9274 0.1736 0.8477
O6 O 0.3600(6) 0.0389(5) 0.2713(8)
H21 H 0.2852 -0.0175 0.2595
H22 H 0.2951 0.0897 0.2551
loop_
_geom_bond_atom_site_label_1
_geom_bond_atom_site_label_2
_geom_bond_site_symmetry_1
_geom_bond_site_symmetry_2
Cu1 N1 1_555 1_555
N1 C1 1_555 1_555
N2 Cu1 1_555 1_555
C1 H1 1_555 1_555
C2 C1 1_555 1_555
H2 C2 1_555 1_555
C3 C2 1_555 1_555
H3 C3 1_555 1_555
C4 C3 1_555 1_555
C5 C4 1_555 1_555
H4 C5 1_555 1_555
C6 C5 1_555 1_555
H5 C6 1_555 1_555
C7 C6 1_555 1_555
C8 C7 1_555 1_555
H6 C8 1_555 1_555
C9 C8 1_555 1_555
H7 C9 1_555 1_555
C10 N2 1_555 1_555
H8 C10 1_555 1_555
C11 N2 1_555 1_555
C12 N1 1_555 1_555
O1 Cu1 1_555 1_555
O2 C13 1_555 1_555
C13 O1 1_555 1_555
C14 C13 1_555 1_555
H9 C14 1_555 1_555
H10 C14 1_555 1_555
C15 C14 1_555 1_555
H11 C15 1_555 1_555
H12 C15 1_555 1_555
C16 C15 1_555 1_555
H13 C16 1_555 1_555
H14 C16 1_555 1_555
C17 C16 1_555 1_555
H15 C17 1_555 1_555
H16 C17 1_555 1_555
C18 C17 1_555 1_555
H17 C18 1_555 1_555
H18 C18 1_555 1_555
C19 C18 1_555 1_555
O3 C19 1_555 1_555
O4 C19 1_555 1_555
O5 H19 1_555 1_555
O6 H21 1_555 1_555
H20 O5 1_555 1_555
H22 O6 1_555 1_555
Cu1_2 O4 1_555 1_555
Cu1A O4 1_555 1_555
O4_2 Cu1 1_555 1_555
O4A Cu1 1_555 1_555
C4 C12 1_555 1_555
C7 C11 1_555 1_555
C9 C10 1_555 1_555
C11 C12 1_555 1_555

#END
