
#######################################################################
#
#                 Cambridge Crystallographic Data Centre
#                                CCDC 
#
#######################################################################
#
# If this CIF has been generated from an entry in the Cambridge 
# Structural Database, then it will include bibliographic, chemical, 
# crystal, experimental, refinement or atomic coordinate data resulting 
# from the CCDC's data processing and validation procedures.
#
#######################################################################

data_PAZBEY
_symmetry_cell_setting           monoclinic
_symmetry_space_group_name_H-M   'C 2/c'
_symmetry_Int_Tables_number      15
_space_group_name_Hall           '-C 2yn'
loop_
_symmetry_equiv_pos_site_id
_symmetry_equiv_pos_as_xyz
1 x,y,z
2 1/2+x,1/2+y,z
3 -x,y,1/2-z
4 1/2-x,1/2+y,1/2-z
5 -x,-y,-z
6 1/2-x,1/2-y,-z
7 x,-y,1/2+z
8 1/2+x,1/2-y,1/2+z
_cell_length_a                   20.344(2)
_cell_length_b                   9.8280(11)
_cell_length_c                   20.802(2)
_cell_angle_alpha                90
_cell_angle_beta                 116.101(7)
_cell_angle_gamma                90
_cell_volume                     3735.02
loop_
_atom_site_label
_atom_site_type_symbol
_atom_site_fract_x
_atom_site_fract_y
_atom_site_fract_z
Cu1 Cu 0.344057(12) 0.77943(2) 0.024220(12)
N1 N 0.42638(9) 0.91151(17) 0.08126(9)
N2 N 0.32666(9) 0.91916(18) -0.05298(9)
C1 C 0.47751(12) 0.9020(2) 0.14825(12)
H1 H 0.4765 0.8282 0.1758
C2 C 0.53290(12) 0.9991(3) 0.17880(13)
H2 H 0.5676 0.9894 0.2261
C3 C 0.53646(12) 1.1075(2) 0.13994(13)
H3 H 0.5730 1.1726 0.1605
C4 C 0.48377(12) 1.1199(2) 0.06776(13)
C5 C 0.48318(14) 1.2267(2) 0.02083(16)
H4 H 0.5189 1.2941 0.0377
C6 C 0.43117(15) 1.2307(2) -0.04793(15)
H5 H 0.4316 1.3013 -0.0775
C7 C 0.37571(12) 1.1288(2) -0.07600(13)
C8 C 0.32154(14) 1.1251(3) -0.14721(13)
H6 H 0.3193 1.1928 -0.1793
C9 C 0.27205(13) 1.0206(3) -0.16879(12)
H7 H 0.2356 1.0174 -0.2157
C10 C 0.27635(12) 0.9191(2) -0.12035(11)
H8 H 0.2425 0.8484 -0.1360
C11 C 0.37564(10) 1.0228(2) -0.03110(11)
C12 C 0.43011(10) 1.0182(2) 0.04158(11)
O1 O 0.36965(8) 0.65156(15) 0.10265(8)
O2 O 0.46213(11) 0.57313(19) 0.08501(12)
C13 C 0.41896(11) 0.5623(2) 0.11093(11)
C14 C 0.41734(12) 0.4358(2) 0.15193(12)
H9 H 0.4638 0.3885 0.1687
H10 H 0.4100 0.4615 0.1934
C15 C 0.35608(12) 0.3422(2) 0.10432(11)
H11 H 0.3653 0.3131 0.0645
H12 H 0.3104 0.3925 0.0849
C16 C 0.34803(12) 0.21716(19) 0.14340(12)
H13 H 0.3936 0.1666 0.1626
H14 H 0.3390 0.2462 0.1833
C17 C 0.28624(11) 0.1238(2) 0.09539(11)
H15 H 0.2410 0.1754 0.0747
H16 H 0.2963 0.0921 0.0565
C18 C 0.27607(14) 0.0020(2) 0.13461(12)
H17 H 0.3222 -0.0462 0.1581
H18 H 0.2626 0.0334 0.1714
C19 C 0.21812(12) -0.0949(2) 0.08550(12)
O3 O 0.16105(11) -0.1137(2) 0.09024(12)
O4 O 0.23358(8) -0.15715(15) 0.03965(8)
Cu1_2 Cu 0.344057(12) -0.22057(2) 0.024220(12)
Cu1E Cu 0.155943(12) -0.27943(2) -0.024220(12)
O4_2 O 0.23358(8) 0.84285(15) 0.03965(8)
O4E O 0.26642(8) 0.65715(15) -0.03965(8)
O5 O 0.10181(11) 0.9836(3) 0.17520(11)
H19 H 0.0565 0.9877 0.1459
H20 H 0.1248 0.9510 0.1525
O6 O 0.38213(14) 0.7225(2) 0.24175(12)
H21 H 0.3785 0.6506 0.2619
H22 H 0.3833 0.7027 0.2023
loop_
_geom_bond_atom_site_label_1
_geom_bond_atom_site_label_2
_geom_bond_site_symmetry_1
_geom_bond_site_symmetry_2
Cu1 N1 1_555 1_555
N1 C1 1_555 1_555
N2 Cu1 1_555 1_555
C1 H1 1_555 1_555
C2 C1 1_555 1_555
H2 C2 1_555 1_555
C3 C2 1_555 1_555
H3 C3 1_555 1_555
C4 C3 1_555 1_555
C5 C4 1_555 1_555
H4 C5 1_555 1_555
C6 C5 1_555 1_555
H5 C6 1_555 1_555
C7 C6 1_555 1_555
C8 C7 1_555 1_555
H6 C8 1_555 1_555
C9 C8 1_555 1_555
H7 C9 1_555 1_555
C10 N2 1_555 1_555
H8 C10 1_555 1_555
C11 N2 1_555 1_555
C12 N1 1_555 1_555
O1 Cu1 1_555 1_555
O2 C13 1_555 1_555
C13 O1 1_555 1_555
C14 C13 1_555 1_555
H9 C14 1_555 1_555
H10 C14 1_555 1_555
C15 C14 1_555 1_555
H11 C15 1_555 1_555
H12 C15 1_555 1_555
C16 C15 1_555 1_555
H13 C16 1_555 1_555
H14 C16 1_555 1_555
C17 C16 1_555 1_555
H15 C17 1_555 1_555
H16 C17 1_555 1_555
C18 C17 1_555 1_555
H17 C18 1_555 1_555
H18 C18 1_555 1_555
C19 C18 1_555 1_555
O3 C19 1_555 1_555
O4 C19 1_555 1_555
O5 H19 1_555 1_555
O6 H21 1_555 1_555
H20 O5 1_555 1_555
H22 O6 1_555 1_555
Cu1_2 O4 1_555 1_555
Cu1E O4 1_555 1_555
O4_2 Cu1 1_555 1_555
O4E Cu1 1_555 1_555
C4 C12 1_555 1_555
C7 C11 1_555 1_555
C9 C10 1_555 1_555
C11 C12 1_555 1_555

#END
