
#######################################################################
#
#                 Cambridge Crystallographic Data Centre
#                                CCDC 
#
#######################################################################
#
# If this CIF has been generated from an entry in the Cambridge 
# Structural Database, then it will include bibliographic, chemical, 
# crystal, experimental, refinement or atomic coordinate data resulting 
# from the CCDC's data processing and validation procedures.
#
#######################################################################

data_PAZFIG
_symmetry_cell_setting           monoclinic
_symmetry_space_group_name_H-M   'P 21/n'
_symmetry_Int_Tables_number      14
_space_group_name_Hall           '-P 2yn'
loop_
_symmetry_equiv_pos_site_id
_symmetry_equiv_pos_as_xyz
1 x,y,z
2 1/2-x,1/2+y,1/2-z
3 -x,-y,-z
4 1/2+x,1/2-y,1/2+z
_cell_length_a                   9.5843(5)
_cell_length_b                   17.8784(9)
_cell_length_c                   10.6912(6)
_cell_angle_alpha                90
_cell_angle_beta                 93.0940(10)
_cell_angle_gamma                90
_cell_volume                     1829.29
loop_
_atom_site_label
_atom_site_type_symbol
_atom_site_fract_x
_atom_site_fract_y
_atom_site_fract_z
Cu1 Cu 0.56301(3) 0.832834(15) 0.66350(3)
S1 S 1.36977(5) 0.86929(3) 0.93176(5)
N1 N 0.4979(2) 0.72707(11) 0.64007(17)
N2 N 0.3723(2) 0.85285(11) 0.58447(18)
O1 O 0.74982(16) 0.80106(9) 0.72584(16)
O2 O 0.8715(2) 0.90663(12) 0.7065(3)
O3 O 1.3950(2) 0.85464(12) 1.06382(16)
O4 O 1.33012(18) 0.94542(10) 0.9035(2)
O5 O 1.48650(17) 0.84350(10) 0.86174(16)
O6 O 0.62155(17) 0.93645(9) 0.63843(17)
C1 C 0.5734(3) 0.66601(14) 0.6667(2)
H1 H 0.6654 0.6713 0.6978
C2 C 0.5189(3) 0.59512(16) 0.6495(3)
H2 H 0.5732 0.5531 0.6686
C3 C 0.3829(3) 0.58757(16) 0.6035(3)
H3 H 0.3441 0.5402 0.5919
C4 C 0.3045(3) 0.65030(16) 0.5748(3)
H4 H 0.2125 0.6459 0.5435
C5 C 0.3645(2) 0.72007(13) 0.5932(2)
C6 C 0.2936(2) 0.79103(14) 0.5629(2)
C7 C 0.1574(3) 0.79643(16) 0.5127(2)
H5 H 0.1039 0.7537 0.4978
C8 C 0.1028(3) 0.86635(18) 0.4851(3)
H6 H 0.0116 0.8710 0.4516
C9 C 0.1833(3) 0.92886(17) 0.5073(3)
H7 H 0.1476 0.9763 0.4895
C10 C 0.3182(3) 0.91991(15) 0.5565(3)
H8 H 0.3734 0.9621 0.5706
C11 C 0.8603(2) 0.84039(14) 0.7388(2)
C12 C 0.9889(2) 0.80234(13) 0.7955(2)
C13 C 1.1043(2) 0.84650(13) 0.8305(2)
H9 H 1.1006 0.8980 0.8187
C14 C 1.2240(2) 0.81361(13) 0.8827(2)
C15 C 1.2310(2) 0.73644(13) 0.8995(2)
H10 H 1.3118 0.7145 0.9349
C16 C 1.1168(3) 0.69248(14) 0.8632(2)
H11 H 1.1212 0.6408 0.8728
C17 C 0.9960(2) 0.72586(13) 0.8124(2)
H12 H 0.9189 0.6964 0.7894
H13 H 0.7085(14) 0.9290(17) 0.660(3)
H14 H 0.596(3) 0.9723(13) 0.682(3)
Cu1_2 Cu 1.56301(3) 0.832834(15) 0.66350(3)
O5_2 O 0.48650(17) 0.84350(10) 0.86174(16)
O7 O 0.4952(3) 1.03623(11) 0.77158(19)
H15 H 0.543(3) 1.0675(15) 0.817(2)
H16 H 0.432(2) 1.0203(13) 0.820(2)
loop_
_geom_bond_atom_site_label_1
_geom_bond_atom_site_label_2
_geom_bond_site_symmetry_1
_geom_bond_site_symmetry_2
Cu1 N1 1_555 1_555
S1 O3 1_555 1_555
N1 C1 1_555 1_555
N2 Cu1 1_555 1_555
O1 Cu1 1_555 1_555
O2 C11 1_555 1_555
O4 S1 1_555 1_555
O5 S1 1_555 1_555
O6 Cu1 1_555 1_555
O7 H15 1_555 1_555
C1 H1 1_555 1_555
C2 C1 1_555 1_555
H2 C2 1_555 1_555
C3 C2 1_555 1_555
H3 C3 1_555 1_555
C4 C3 1_555 1_555
H4 C4 1_555 1_555
C5 N1 1_555 1_555
C6 N2 1_555 1_555
C7 C6 1_555 1_555
H5 C7 1_555 1_555
C8 C7 1_555 1_555
H6 C8 1_555 1_555
C9 C8 1_555 1_555
H7 C9 1_555 1_555
C10 N2 1_555 1_555
H8 C10 1_555 1_555
C11 O1 1_555 1_555
C12 C11 1_555 1_555
C13 C12 1_555 1_555
H9 C13 1_555 1_555
C14 S1 1_555 1_555
C15 C14 1_555 1_555
H10 C15 1_555 1_555
C16 C15 1_555 1_555
H11 C16 1_555 1_555
C17 C12 1_555 1_555
H12 C17 1_555 1_555
H13 O6 1_555 1_555
H14 O6 1_555 1_555
H16 O7 1_555 1_555
Cu1_2 O5 1_555 1_555
O5_2 Cu1 1_555 1_555
C4 C5 1_555 1_555
C5 C6 1_555 1_555
C9 C10 1_555 1_555
C13 C14 1_555 1_555
C16 C17 1_555 1_555

#END
