
#######################################################################
#
#                 Cambridge Crystallographic Data Centre
#                                CCDC 
#
#######################################################################
#
# If this CIF has been generated from an entry in the Cambridge 
# Structural Database, then it will include bibliographic, chemical, 
# crystal, experimental, refinement or atomic coordinate data resulting 
# from the CCDC's data processing and validation procedures.
#
#######################################################################

data_PAZREO
_symmetry_cell_setting           monoclinic
_symmetry_space_group_name_H-M   'P 21/n'
_symmetry_Int_Tables_number      14
_space_group_name_Hall           '-P 2yn'
loop_
_symmetry_equiv_pos_site_id
_symmetry_equiv_pos_as_xyz
1 x,y,z
2 1/2-x,1/2+y,1/2-z
3 -x,-y,-z
4 1/2+x,1/2-y,1/2+z
_cell_length_a                   10.1583(15)
_cell_length_b                   7.8911(11)
_cell_length_c                   17.594(3)
_cell_angle_alpha                90
_cell_angle_beta                 94.243(4)
_cell_angle_gamma                90
_cell_volume                     1406.47
loop_
_atom_site_label
_atom_site_type_symbol
_atom_site_fract_x
_atom_site_fract_y
_atom_site_fract_z
Cu1 Cu 0.58283(3) 0.75189(3) 0.187480(15)
S1 S 0.74605(5) 0.61762(7) 0.11791(3)
N1 N 0.33388(17) 0.5841(2) 0.12801(10)
N2 N 0.42190(17) 0.5895(2) 0.19087(10)
N3 N 0.47462(17) 0.9097(2) 0.11126(10)
N4 N 0.37931(17) 0.8396(2) 0.06205(9)
N5 N 0.84798(19) 0.3724(2) 0.22224(11)
C1 C 0.1051(2) 0.4875(4) 0.08619(16)
H1 H 0.0608 0.5968 0.0773
H2 H 0.0425 0.4054 0.1047
H3 H 0.1374 0.4464 0.0384
C2 C 0.2179(2) 0.5086(3) 0.14396(13)
C3 C 0.2338(2) 0.4630(3) 0.21915(14)
H4 H 0.1710 0.4065 0.2475
C4 C 0.3602(2) 0.5156(3) 0.24629(12)
C5 C 0.4298(3) 0.4949(4) 0.32330(14)
H5 H 0.5182 0.5447 0.3236
H6 H 0.4372 0.3741 0.3358
H7 H 0.3797 0.5525 0.3612
C6 C 0.3735(2) 0.6569(3) 0.05799(11)
H8 H 0.3098 0.6229 0.0154
H9 H 0.4613 0.6122 0.0474
C7 C 0.1905(3) 0.9197(4) -0.03088(15)
H10 H 0.2201 0.8400 -0.0688
H11 H 0.1590 1.0240 -0.0564
H12 H 0.1185 0.8685 -0.0046
C8 C 0.3023(2) 0.9601(3) 0.02555(12)
C9 C 0.3507(2) 1.1123(3) 0.05249(14)
H13 H 0.3187 1.2215 0.0377
C10 C 0.4562(2) 1.0767(3) 0.10591(13)
C11 C 0.5404(3) 1.1950(3) 0.15408(16)
H14 H 0.4998 1.2155 0.2020
H15 H 0.5489 1.3025 0.1270
H16 H 0.6280 1.1448 0.1649
C12 C 0.8049(2) 0.4735(3) 0.17987(12)
Cu1A Cu 0.91717(3) 0.25189(3) 0.312520(15)
N5A N 0.65202(19) 0.8724(2) 0.27776(11)
loop_
_geom_bond_atom_site_label_1
_geom_bond_atom_site_label_2
_geom_bond_site_symmetry_1
_geom_bond_site_symmetry_2
Cu1 S1 1_555 1_555
S1 C12 1_555 1_555
N1 N2 1_555 1_555
N2 Cu1 1_555 1_555
N3 Cu1 1_555 1_555
N4 N3 1_555 1_555
N5 C12 1_555 1_555
C1 H1 1_555 1_555
H2 C1 1_555 1_555
H3 C1 1_555 1_555
C2 N1 1_555 1_555
C3 C2 1_555 1_555
H4 C3 1_555 1_555
C4 N2 1_555 1_555
C5 C4 1_555 1_555
H5 C5 1_555 1_555
H6 C5 1_555 1_555
H7 C5 1_555 1_555
C6 N1 1_555 1_555
H8 C6 1_555 1_555
H9 C6 1_555 1_555
C7 H10 1_555 1_555
H11 C7 1_555 1_555
H12 C7 1_555 1_555
C8 N4 1_555 1_555
C9 C8 1_555 1_555
H13 C9 1_555 1_555
C10 N3 1_555 1_555
C11 C10 1_555 1_555
H14 C11 1_555 1_555
H15 C11 1_555 1_555
H16 C11 1_555 1_555
Cu1A N5 1_555 1_555
N5A Cu1 1_555 1_555
N4 C6 1_555 1_555
C1 C2 1_555 1_555
C3 C4 1_555 1_555
C7 C8 1_555 1_555
C9 C10 1_555 1_555

#END
