
#######################################################################
#
#                 Cambridge Crystallographic Data Centre
#                                CCDC 
#
#######################################################################
#
# If this CIF has been generated from an entry in the Cambridge 
# Structural Database, then it will include bibliographic, chemical, 
# crystal, experimental, refinement or atomic coordinate data resulting 
# from the CCDC's data processing and validation procedures.
#
#######################################################################

data_PAZRUE
_symmetry_cell_setting           monoclinic
_symmetry_space_group_name_H-M   'P 21/n'
_symmetry_Int_Tables_number      14
_space_group_name_Hall           '-P 2yn'
loop_
_symmetry_equiv_pos_site_id
_symmetry_equiv_pos_as_xyz
1 x,y,z
2 1/2-x,1/2+y,1/2-z
3 -x,-y,-z
4 1/2+x,1/2-y,1/2+z
_cell_length_a                   15.274(6)
_cell_length_b                   16.975(7)
_cell_length_c                   19.316(8)
_cell_angle_alpha                90
_cell_angle_beta                 112.096(7)
_cell_angle_gamma                90
_cell_volume                     4640.35
loop_
_atom_site_label
_atom_site_type_symbol
_atom_site_fract_x
_atom_site_fract_y
_atom_site_fract_z
Cu1 Cu 0.80044(6) 0.21035(5) 1.08724(5)
Cu2 Cu 0.73066(6) 0.27371(5) 0.85649(5)
O1 O 0.8879(3) 0.1406(3) 1.0629(3)
O2 O 0.8267(4) 0.1977(3) 0.9529(3)
O3 O 1.2159(4) 0.0856(4) 0.9393(3)
O4 O 1.3546(4) 0.2896(3) 0.7240(3)
O5 O 1.2391(4) 0.2236(3) 0.6403(3)
O6 O 0.7879(3) 0.2394(3) 0.7870(3)
O7 O 0.7023(6) 0.3173(5) 0.6962(4)
O8 O 0.8342(4) 0.0633(4) 0.5149(3)
O9 O 1.0806(4) 0.1251(3) 0.3191(3)
O10 O 1.1647(3) 0.1919(3) 0.4209(3)
N1 N 0.8831(4) 0.3024(4) 1.0918(3)
N2 N 1.1782(4) 0.6339(4) 1.1161(3)
N3 N 0.6940(5) 0.1334(4) 1.0568(4)
N4 N 0.6452(4) 0.1770(4) 0.8236(3)
N5 N 0.3929(7) -0.1850(6) 0.7249(7)
C1 C 0.9773(5) 0.2977(5) 1.1179(4)
H1 H 1.0054 0.2492 1.1349
C2 C 1.0343(5) 0.3606(5) 1.1208(4)
H2 H 1.0995 0.3539 1.1385
C3 C 0.9951(5) 0.4356(4) 1.0972(4)
C4 C 0.8976(5) 0.4405(5) 1.0708(4)
H3 H 0.8677 0.4885 1.0539
C5 C 0.8450(5) 0.3742(5) 1.0695(4)
H4 H 0.7796 0.3792 1.0524
C6 C 1.0577(5) 0.5048(5) 1.1017(4)
C7 C 1.0248(6) 0.5806(5) 1.0872(5)
H5 H 0.9604 0.5902 1.0723
C8 C 1.0846(5) 0.6415(5) 1.0941(5)
H6 H 1.0590 0.6917 1.0829
C9 C 1.2107(6) 0.5595(5) 1.1292(5)
H7 H 1.2754 0.5510 1.1441
C10 C 1.1526(5) 0.4952(5) 1.1214(5)
H8 H 1.1784 0.4449 1.1296
C11 C 0.6295(12) 0.1357(10) 1.0839(9)
H9 H 0.6338 0.1737 1.1197
C12 C 0.5528(12) 0.0837(11) 1.0621(9)
H10 H 0.5088 0.0885 1.0846
C13 C 0.5399(5) 0.0288(5) 1.0119(4)
C14 C 0.6081(7) 0.0268(7) 0.9857(6)
H11 H 0.6064 -0.0120 0.9512
C15 C 0.6815(7) 0.0795(7) 1.0073(6)
H12 H 0.7252 0.0760 0.9845
C16 C 0.5520(6) 0.1740(5) 0.8083(5)
H13 H 0.5209 0.2205 0.8104
C17 C 0.5002(6) 0.1057(5) 0.7896(5)
H14 H 0.4356 0.1071 0.7789
C18 C 0.5432(6) 0.0345(5) 0.7864(4)
C19 C 0.6394(5) 0.0368(5) 0.8020(4)
H15 H 0.6718 -0.0091 0.8006
C20 C 0.6871(5) 0.1083(5) 0.8198(4)
H16 H 0.7515 0.1086 0.8297
C21 C 0.4896(6) -0.0419(5) 0.7652(5)
C22 C 0.3929(7) -0.0447(6) 0.7322(6)
H17 H 0.3572 0.0013 0.7217
C23 C 0.3500(8) -0.1175(7) 0.7150(8)
H18 H 0.2843 -0.1182 0.6945
C24 C 0.4829(8) -0.1805(7) 0.7560(8)
H19 H 0.5162 -0.2277 0.7646
C25 C 0.5356(7) -0.1119(6) 0.7780(7)
H20 H 0.6011 -0.1139 0.8010
C26 C 0.8897(5) 0.1579(4) 0.9981(4)
C27 C 0.9730(5) 0.1331(4) 0.9804(4)
C28 C 0.9784(5) 0.1542(5) 0.9131(4)
H21 H 0.9268 0.1787 0.8771
C29 C 1.0572(5) 0.1403(5) 0.8977(4)
H22 H 1.0600 0.1576 0.8529
C30 C 1.1318(5) 0.1010(5) 0.9480(4)
C31 C 1.1271(5) 0.0758(5) 1.0151(4)
H23 H 1.1769 0.0475 1.0490
C32 C 1.0488(5) 0.0927(5) 1.0312(4)
H24 H 1.0467 0.0768 1.0767
C33 C 1.2340(6) 0.1213(5) 0.8801(5)
C34 C 1.1892(6) 0.0960(5) 0.8086(5)
H25 H 1.1461 0.0547 0.7975
C35 C 1.2095(6) 0.1337(5) 0.7529(5)
H26 H 1.1798 0.1170 0.7037
C36 C 1.2731(5) 0.1956(5) 0.7690(4)
C37 C 1.2912(5) 0.2402(5) 0.7084(4)
C38 C 1.3180(5) 0.2180(5) 0.8418(4)
H27 H 1.3619 0.2587 0.8532
C39 C 1.2998(6) 0.1819(5) 0.8985(4)
H28 H 1.3306 0.1976 0.9479
C40 C 0.7558(6) 0.2621(5) 0.7199(5)
C41 C 0.7823(6) 0.2112(5) 0.6663(4)
C42 C 0.7408(6) 0.2265(5) 0.5897(4)
H29 H 0.7007 0.2695 0.5725
C43 C 0.7596(6) 0.1778(6) 0.5393(5)
H30 H 0.7319 0.1873 0.4882
C44 C 0.8200(6) 0.1150(5) 0.5661(5)
C45 C 0.8628(6) 0.0983(5) 0.6420(5)
H31 H 0.9039 0.0559 0.6593
C46 C 0.8413(6) 0.1473(5) 0.6904(4)
H32 H 0.8679 0.1368 0.7414
C47 C 0.9008(6) 0.0852(5) 0.4859(4)
C48 C 0.8927(6) 0.0500(5) 0.4196(5)
H33 H 0.8460 0.0127 0.3972
C49 C 0.9556(6) 0.0714(5) 0.3870(4)
H34 H 0.9493 0.0494 0.3413
C50 C 1.0278(5) 0.1244(4) 0.4205(4)
C51 C 1.0948(5) 0.1473(5) 0.3831(5)
C52 C 1.0360(6) 0.1566(5) 0.4882(4)
H35 H 1.0856 0.1910 0.5123
C53 C 0.9726(6) 0.1389(5) 0.5207(5)
H36 H 0.9775 0.1626 0.5655
Cu1C Cu 0.30044(6) 0.28965(5) 1.58724(5)
Cu1C_2 Cu 1.30044(6) 0.28965(5) 0.58724(5)
Cu1B Cu 0.19956(6) -0.21035(5) 0.91276(5)
Cu1B_2 Cu 1.19956(6) 0.78965(5) 0.91276(5)
Cu2C Cu 0.23066(6) 0.22629(5) 1.35649(5)
Cu2C_2 Cu 1.23066(6) 0.22629(5) 0.35649(5)
Cu2B Cu 1.26934(6) 0.72629(5) 1.14351(5)
O1C O 0.3879(3) 0.3594(3) 1.5629(3)
O2C O 0.3267(4) 0.3023(3) 1.4529(3)
O3C O 0.7159(4) 0.4144(4) 1.4393(3)
O4C O 0.8546(4) 0.2104(3) 1.2240(3)
O4_2 O 0.3546(4) 0.2896(3) 1.7240(3)
O5C O 0.7391(4) 0.2764(3) 1.1403(3)
O5_2 O 0.2391(4) 0.2236(3) 1.6403(3)
O6C O 0.2879(3) 0.2606(3) 1.2870(3)
O7C O 0.2023(6) 0.1827(5) 1.1962(4)
O8C O 0.3342(4) 0.4367(4) 1.0149(3)
O9C O 0.5806(4) 0.3749(3) 0.8191(3)
O10C O 0.6647(3) 0.3081(3) 0.9209(3)
O10_2 O 0.1647(3) 0.1919(3) 1.4209(3)
N1B N 1.1169(4) 0.6976(4) 0.9082(3)
N1C N 0.3831(4) 0.1976(4) 1.5918(3)
N2B N 0.8218(4) 0.3661(4) 0.8839(3)
N2A N 0.3218(4) 0.1339(4) 1.3839(3)
N3B N 0.3060(5) -0.1334(4) 0.9432(4)
N3C N 0.1940(5) 0.3666(4) 1.5568(4)
N4C N 0.1452(4) 0.3230(4) 1.3236(3)
N5C N -0.1071(7) 0.6850(6) 1.2249(7)
C1B C 1.0227(5) 0.7023(5) 0.8821(4)
H1B H 0.9946 0.7508 0.8651
C2B C 0.9657(5) 0.6394(5) 0.8792(4)
H2B H 0.9005 0.6461 0.8615
C3B C 1.0049(5) 0.5644(4) 0.9028(4)
C4B C 1.1024(5) 0.5595(5) 0.9292(4)
H3B H 1.1323 0.5115 0.9461
C5B C 1.1550(5) 0.6258(5) 0.9305(4)
H4B H 1.2204 0.6208 0.9476
C6B C 0.9423(5) 0.4952(5) 0.8983(4)
C7B C 0.9752(6) 0.4194(5) 0.9128(5)
H5B H 1.0396 0.4098 0.9277
C8B C 0.9154(5) 0.3585(5) 0.9059(5)
H6B H 0.9410 0.3083 0.9171
C9B C 0.7893(6) 0.4405(5) 0.8708(5)
H7B H 0.7246 0.4490 0.8559
C10B C 0.8474(5) 0.5048(5) 0.8786(5)
H8B H 0.8216 0.5551 0.8704
C11B C 0.3705(12) -0.1357(10) 0.9161(9)
H9B H 0.3662 -0.1737 0.8803
C12B C 0.4472(12) -0.0837(11) 0.9379(9)
H10B H 0.4912 -0.0885 0.9154
C13B C 0.4601(5) -0.0288(5) 0.9881(4)
C14B C 0.3919(7) -0.0268(7) 1.0143(6)
H11B H 0.3936 0.0120 1.0488
C15B C 0.3185(7) -0.0795(7) 0.9927(6)
H12B H 0.2748 -0.0760 1.0155
C16C C 0.0520(6) 0.3260(5) 1.3083(5)
H13C H 0.0209 0.2795 1.3104
C17C C 0.0002(6) 0.3943(5) 1.2896(5)
H14C H -0.0644 0.3929 1.2789
C18C C 0.0432(6) 0.4655(5) 1.2864(4)
C19C C 0.1394(5) 0.4632(5) 1.3020(4)
H15C H 0.1718 0.5091 1.3006
C20C C 0.1871(5) 0.3917(5) 1.3198(4)
H16C H 0.2515 0.3914 1.3297
C21C C -0.0104(6) 0.5419(5) 1.2652(5)
C22C C -0.1071(7) 0.5447(6) 1.2322(6)
H17C H -0.1428 0.4987 1.2217
C23C C -0.1500(8) 0.6175(7) 1.2150(8)
H18C H -0.2157 0.6182 1.1945
C24C C -0.0171(8) 0.6805(7) 1.2560(8)
H19C H 0.0162 0.7277 1.2646
C25C C 0.0356(7) 0.6119(6) 1.2780(7)
H20C H 0.1011 0.6139 1.3010
C26C C 0.3897(5) 0.3421(4) 1.4981(4)
C27C C 0.4730(5) 0.3669(4) 1.4804(4)
C28C C 0.4784(5) 0.3458(5) 1.4131(4)
H21C H 0.4268 0.3213 1.3771
C29C C 0.5572(5) 0.3597(5) 1.3977(4)
H22C H 0.5600 0.3424 1.3529
C30C C 0.6318(5) 0.3990(5) 1.4480(4)
C31C C 0.6271(5) 0.4242(5) 1.5151(4)
H23C H 0.6769 0.4525 1.5490
C32C C 0.5488(5) 0.4073(5) 1.5312(4)
H24C H 0.5467 0.4232 1.5767
C33C C 0.7340(6) 0.3787(5) 1.3801(5)
C34C C 0.6892(6) 0.4040(5) 1.3086(5)
H25C H 0.6461 0.4453 1.2975
C35C C 0.7095(6) 0.3663(5) 1.2529(5)
H26C H 0.6798 0.3830 1.2037
C36C C 0.7731(5) 0.3044(5) 1.2690(4)
C37C C 0.7912(5) 0.2598(5) 1.2084(4)
C38C C 0.8180(5) 0.2820(5) 1.3418(4)
H27C H 0.8619 0.2413 1.3532
C39C C 0.7998(6) 0.3181(5) 1.3985(4)
H28C H 0.8306 0.3024 1.4479
C40C C 0.2558(6) 0.2379(5) 1.2199(5)
C41C C 0.2823(6) 0.2888(5) 1.1663(4)
C42C C 0.2408(6) 0.2735(5) 1.0897(4)
H29C H 0.2007 0.2305 1.0725
C43C C 0.2596(6) 0.3222(6) 1.0393(5)
H30C H 0.2319 0.3127 0.9882
C44C C 0.3200(6) 0.3850(5) 1.0661(5)
C45C C 0.3628(6) 0.4017(5) 1.1420(5)
H31C H 0.4039 0.4441 1.1593
C46C C 0.3413(6) 0.3527(5) 1.1904(4)
H32C H 0.3679 0.3632 1.2414
C47C C 0.4008(6) 0.4148(5) 0.9859(4)
C48C C 0.3927(6) 0.4500(5) 0.9196(5)
H33C H 0.3460 0.4873 0.8972
C49C C 0.4556(6) 0.4286(5) 0.8870(4)
H34C H 0.4493 0.4506 0.8413
C50C C 0.5278(5) 0.3756(4) 0.9205(4)
C51C C 0.5948(5) 0.3527(5) 0.8831(5)
C52C C 0.5360(6) 0.3434(5) 0.9882(4)
H35C H 0.5856 0.3090 1.0123
C53C C 0.4726(6) 0.3611(5) 1.0207(5)
H36C H 0.4775 0.3374 1.0655
O11 O 0.9704(4) 0.0410(3) 0.1949(3)
O12 O 0.6605(4) 0.4818(4) 0.7018(3)
loop_
_geom_bond_atom_site_label_1
_geom_bond_atom_site_label_2
_geom_bond_site_symmetry_1
_geom_bond_site_symmetry_2
Cu1 O1 1_555 1_555
Cu2 O2 1_555 1_555
O1 C26 1_555 1_555
O2 C26 1_555 1_555
O3 C30 1_555 1_555
O4 C37 1_555 1_555
O5 C37 1_555 1_555
O6 Cu2 1_555 1_555
O7 C40 1_555 1_555
O8 C44 1_555 1_555
O9 C51 1_555 1_555
O10 C51 1_555 1_555
N1 Cu1 1_555 1_555
N2 C8 1_555 1_555
N3 Cu1 1_555 1_555
N4 Cu2 1_555 1_555
N5 C23 1_555 1_555
C1 N1 1_555 1_555
H1 C1 1_555 1_555
C2 C1 1_555 1_555
H2 C2 1_555 1_555
C3 C2 1_555 1_555
C4 C3 1_555 1_555
H3 C4 1_555 1_555
C5 N1 1_555 1_555
H4 C5 1_555 1_555
C6 C3 1_555 1_555
C7 C6 1_555 1_555
H5 C7 1_555 1_555
C8 C7 1_555 1_555
H6 C8 1_555 1_555
C9 N2 1_555 1_555
H7 C9 1_555 1_555
C10 C6 1_555 1_555
H8 C10 1_555 1_555
C11 N3 1_555 1_555
H9 C11 1_555 1_555
C12 C11 1_555 1_555
H10 C12 1_555 1_555
C13 C12 1_555 1_555
C14 C13 1_555 1_555
H11 C14 1_555 1_555
C15 N3 1_555 1_555
H12 C15 1_555 1_555
C16 N4 1_555 1_555
H13 C16 1_555 1_555
C17 C16 1_555 1_555
H14 C17 1_555 1_555
C18 C17 1_555 1_555
C19 C18 1_555 1_555
H15 C19 1_555 1_555
C20 N4 1_555 1_555
H16 C20 1_555 1_555
C21 C18 1_555 1_555
C22 C21 1_555 1_555
H17 C22 1_555 1_555
C23 C22 1_555 1_555
H18 C23 1_555 1_555
C24 N5 1_555 1_555
H19 C24 1_555 1_555
C25 C21 1_555 1_555
H20 C25 1_555 1_555
C26 C27 1_555 1_555
C27 C28 1_555 1_555
C28 H21 1_555 1_555
C29 C28 1_555 1_555
H22 C29 1_555 1_555
C30 C29 1_555 1_555
C31 C30 1_555 1_555
H23 C31 1_555 1_555
C32 C27 1_555 1_555
H24 C32 1_555 1_555
C33 O3 1_555 1_555
C34 C33 1_555 1_555
H25 C34 1_555 1_555
C35 C34 1_555 1_555
H26 C35 1_555 1_555
C36 C35 1_555 1_555
C37 C36 1_555 1_555
C38 C36 1_555 1_555
H27 C38 1_555 1_555
C39 C33 1_555 1_555
H28 C39 1_555 1_555
C40 O6 1_555 1_555
C41 C40 1_555 1_555
C42 C41 1_555 1_555
H29 C42 1_555 1_555
C43 C42 1_555 1_555
H30 C43 1_555 1_555
C44 C43 1_555 1_555
C45 C44 1_555 1_555
H31 C45 1_555 1_555
C46 C41 1_555 1_555
H32 C46 1_555 1_555
C47 O8 1_555 1_555
C48 C47 1_555 1_555
H33 C48 1_555 1_555
C49 C48 1_555 1_555
H34 C49 1_555 1_555
C50 C49 1_555 1_555
C51 C50 1_555 1_555
C52 C50 1_555 1_555
H35 C52 1_555 1_555
C53 C47 1_555 1_555
H36 C53 1_555 1_555
Cu1C O1C 1_555 1_555
Cu1C_2 O4 1_555 1_555
Cu1B N3B 1_555 1_555
Cu1B_2 N1B 1_555 1_555
Cu2C O2C 1_555 1_555
Cu2C_2 O10 1_555 1_555
Cu2B N2 1_555 1_555
O1C C26C 1_555 1_555
O2C C26C 1_555 1_555
O3C C30C 1_555 1_555
O4C Cu1 1_555 1_555
O4_2 Cu1C 1_555 1_555
O5C Cu1 1_555 1_555
O5_2 Cu1C 1_555 1_555
O6C Cu2C 1_555 1_555
O7C C40C 1_555 1_555
O8C C44C 1_555 1_555
O9C C51C 1_555 1_555
O10C Cu2 1_555 1_555
O10_2 Cu2C 1_555 1_555
N1B C1B 1_555 1_555
N1C Cu1C 1_555 1_555
N2B Cu2 1_555 1_555
N2A Cu2C 1_555 1_555
N3B C11B 1_555 1_555
N3C Cu1C 1_555 1_555
N4C Cu2C 1_555 1_555
N5C C23C 1_555 1_555
C1B H1B 1_555 1_555
C2B C1B 1_555 1_555
H2B C2B 1_555 1_555
C3B C2B 1_555 1_555
C4B C3B 1_555 1_555
H3B C4B 1_555 1_555
C5B N1B 1_555 1_555
H4B C5B 1_555 1_555
C6B C3B 1_555 1_555
C7B C6B 1_555 1_555
H5B C7B 1_555 1_555
C8B N2B 1_555 1_555
H6B C8B 1_555 1_555
C9B N2B 1_555 1_555
H7B C9B 1_555 1_555
C10B C6B 1_555 1_555
H8B C10B 1_555 1_555
C11B H9B 1_555 1_555
C12B C11B 1_555 1_555
H10B C12B 1_555 1_555
C13B C13 1_555 1_555
C14B C13B 1_555 1_555
H11B C14B 1_555 1_555
C15B N3B 1_555 1_555
H12B C15B 1_555 1_555
C16C N4C 1_555 1_555
H13C C16C 1_555 1_555
C17C C16C 1_555 1_555
H14C C17C 1_555 1_555
C18C C17C 1_555 1_555
C19C C18C 1_555 1_555
H15C C19C 1_555 1_555
C20C N4C 1_555 1_555
H16C C20C 1_555 1_555
C21C C18C 1_555 1_555
C22C C21C 1_555 1_555
H17C C22C 1_555 1_555
C23C C22C 1_555 1_555
H18C C23C 1_555 1_555
C24C N5C 1_555 1_555
H19C C24C 1_555 1_555
C25C C21C 1_555 1_555
H20C C25C 1_555 1_555
C26C C27C 1_555 1_555
C27C C28C 1_555 1_555
C28C H21C 1_555 1_555
C29C C28C 1_555 1_555
H22C C29C 1_555 1_555
C30C C29C 1_555 1_555
C31C C30C 1_555 1_555
H23C C31C 1_555 1_555
C32C C27C 1_555 1_555
H24C C32C 1_555 1_555
C33C O3C 1_555 1_555
C34C C33C 1_555 1_555
H25C C34C 1_555 1_555
C35C C34C 1_555 1_555
H26C C35C 1_555 1_555
C36C C35C 1_555 1_555
C37C O4C 1_555 1_555
C38C C36C 1_555 1_555
H27C C38C 1_555 1_555
C39C C33C 1_555 1_555
H28C C39C 1_555 1_555
C40C O6C 1_555 1_555
C41C C40C 1_555 1_555
C42C C41C 1_555 1_555
H29C C42C 1_555 1_555
C43C C42C 1_555 1_555
H30C C43C 1_555 1_555
C44C C43C 1_555 1_555
C45C C44C 1_555 1_555
H31C C45C 1_555 1_555
C46C C41C 1_555 1_555
H32C C46C 1_555 1_555
C47C O8C 1_555 1_555
C48C C47C 1_555 1_555
H33C C48C 1_555 1_555
C49C C48C 1_555 1_555
H34C C49C 1_555 1_555
C50C C49C 1_555 1_555
C51C O10C 1_555 1_555
C52C C50C 1_555 1_555
H35C C52C 1_555 1_555
C53C C47C 1_555 1_555
H36C C53C 1_555 1_555
O5 Cu1C_2 1_555 1_555
C4 C5 1_555 1_555
C9 C10 1_555 1_555
C14 C15 1_555 1_555
C19 C20 1_555 1_555
C24 C25 1_555 1_555
C31 C32 1_555 1_555
C38 C39 1_555 1_555
C45 C46 1_555 1_555
C52 C53 1_555 1_555
O5C C37C 1_555 1_555
C4B C5B 1_555 1_555
C7B C8B 1_555 1_555
C9B C10B 1_555 1_555
C12B C13B 1_555 1_555
C14B C15B 1_555 1_555
C19C C20C 1_555 1_555
C24C C25C 1_555 1_555
C31C C32C 1_555 1_555
C36C C37C 1_555 1_555
C38C C39C 1_555 1_555
C45C C46C 1_555 1_555
C50C C51C 1_555 1_555
C52C C53C 1_555 1_555

#END
