
#######################################################################
#
#                 Cambridge Crystallographic Data Centre
#                                CCDC 
#
#######################################################################
#
# If this CIF has been generated from an entry in the Cambridge 
# Structural Database, then it will include bibliographic, chemical, 
# crystal, experimental, refinement or atomic coordinate data resulting 
# from the CCDC's data processing and validation procedures.
#
#######################################################################

data_PAZSAL
_symmetry_cell_setting           monoclinic
_symmetry_space_group_name_H-M   'C 2/c'
_symmetry_Int_Tables_number      15
_space_group_name_Hall           '-C 2yn'
loop_
_symmetry_equiv_pos_site_id
_symmetry_equiv_pos_as_xyz
1 x,y,z
2 1/2+x,1/2+y,z
3 -x,y,1/2-z
4 1/2-x,1/2+y,1/2-z
5 -x,-y,-z
6 1/2-x,1/2-y,-z
7 x,-y,1/2+z
8 1/2+x,1/2-y,1/2+z
_cell_length_a                   22.697(3)
_cell_length_b                   13.775(2)
_cell_length_c                   12.8409(19)
_cell_angle_alpha                90
_cell_angle_beta                 119.955(2)
_cell_angle_gamma                90
_cell_volume                     3478.43
loop_
_atom_site_label
_atom_site_type_symbol
_atom_site_fract_x
_atom_site_fract_y
_atom_site_fract_z
Cu1 Cu 1.046496(15) 0.47783(2) 0.38385(3)
N1 N 1.12443(10) 0.57036(15) 0.43216(19)
O1 O 0.97951(10) 0.37104(13) 0.34783(19)
O2 O 0.90329(10) 0.38084(13) 0.1525(2)
O3 O 0.75245(12) -0.02073(15) 0.2561(3)
O4 O 0.98723(9) -0.41068(13) 0.35345(17)
O5 O 0.92181(9) -0.46072(13) 0.42748(18)
C1 C 0.92976(13) 0.34036(18) 0.2541(3)
C2 C 0.89948(13) 0.24517(18) 0.2598(3)
C3 C 0.93554(15) 0.1829(2) 0.3548(3)
H1 H 0.9782 0.2010 0.4170
C4 C 0.90852(16) 0.0937(2) 0.3583(3)
H2 H 0.9339 0.0512 0.4212
C5 C 0.84450(14) 0.06757(19) 0.2694(3)
C6 C 0.80804(15) 0.1305(2) 0.1754(3)
H3 H 0.7643 0.1142 0.1157
C7 C 0.83604(14) 0.2179(2) 0.1690(3)
H4 H 0.8119 0.2585 0.1031
C8 C 0.81098(15) -0.02386(19) 0.2771(3)
C9 C 0.84934(14) -0.11699(19) 0.3106(3)
C10 C 0.83003(17) -0.1897(2) 0.3612(3)
H5 H 0.7953 -0.1781 0.3782
C11 C 0.86106(16) -0.2789(2) 0.3870(3)
H6 H 0.8477 -0.3266 0.4222
C12 C 0.91209(13) -0.29836(18) 0.3609(2)
C13 C 0.93179(15) -0.2264(2) 0.3111(3)
H7 H 0.9662 -0.2387 0.2936
C14 C 0.90156(15) -0.1357(2) 0.2864(3)
H8 H 0.9161 -0.0875 0.2537
C15 C 0.94262(13) -0.39856(18) 0.3840(2)
C16 C 1.16790(14) 0.5648(2) 0.3910(3)
H9 H 1.1643 0.5124 0.3425
C17 C 1.21750(14) 0.63236(19) 0.4166(3)
H10 H 1.2468 0.6247 0.3863
C18 C 1.22428(12) 0.71168(18) 0.4871(2)
C19 C 1.18015(15) 0.7153(2) 0.5325(3)
H11 H 1.1833 0.7661 0.5827
C20 C 1.13204(15) 0.6446(2) 0.5037(3)
H12 H 1.1034 0.6487 0.5358
Cu1E Cu 1.453504(15) 1.02217(2) 0.61615(3)
Cu1B Cu 0.953504(15) 0.47783(2) 0.11615(3)
Cu1_2 Cu 1.046496(15) -0.52217(2) 0.38385(3)
Cu1D Cu 0.953504(15) -0.47783(2) 0.61615(3)
Cu1B_2 Cu 0.953504(15) -0.52217(2) 0.11615(3)
Cu1F Cu 1.046496(15) -0.47783(2) -0.11615(3)
N1E N 1.37557(10) 0.92964(15) 0.56784(19)
O1B O 1.02049(10) 0.37104(13) 0.15217(19)
O1E O 1.52049(10) 1.12896(13) 0.65217(19)
O2B O 1.09671(10) 0.38084(13) 0.3475(2)
O2G O 1.40329(10) 1.11916(13) 0.6525(2)
O3B O 1.24755(12) -0.02073(15) 0.2439(3)
O4B O 1.01277(9) -0.41068(13) 0.14655(17)
O4_2 O 0.98723(9) 0.58932(13) 0.35345(17)
O4E O 1.51277(9) 0.91068(13) 0.64655(17)
O5B O 1.07819(9) -0.46072(13) 0.07252(18)
O5D O 1.07819(9) 0.46072(13) 0.57252(18)
O5A O 1.42181(9) 1.03928(13) 0.42748(18)
C1B C 1.07024(13) 0.34036(18) 0.2459(3)
C2B C 1.10052(13) 0.24517(18) 0.2402(3)
C3B C 1.06446(15) 0.1829(2) 0.1452(3)
H1B H 1.0218 0.2010 0.0830
C4B C 1.09148(16) 0.0937(2) 0.1417(3)
H2B H 1.0661 0.0512 0.0788
C5B C 1.15550(14) 0.06757(19) 0.2306(3)
C6B C 1.19196(15) 0.1305(2) 0.3246(3)
H3B H 1.2357 0.1142 0.3843
C7B C 1.16396(14) 0.2179(2) 0.3310(3)
H4B H 1.1881 0.2585 0.3969
C8B C 1.18902(15) -0.02386(19) 0.2229(3)
C9B C 1.15066(14) -0.11699(19) 0.1894(3)
C10B C 1.16997(17) -0.1897(2) 0.1388(3)
H5B H 1.2047 -0.1781 0.1218
C11B C 1.13894(16) -0.2789(2) 0.1130(3)
H6B H 1.1523 -0.3266 0.0778
C12B C 1.08791(13) -0.29836(18) 0.1391(2)
C13B C 1.06821(15) -0.2264(2) 0.1889(3)
H7B H 1.0338 -0.2387 0.2064
C14B C 1.09844(15) -0.1357(2) 0.2136(3)
H8B H 1.0839 -0.0875 0.2463
C15B C 1.05738(13) -0.39856(18) 0.1160(2)
C16E C 1.33210(14) 0.9352(2) 0.6090(3)
H9E H 1.3357 0.9876 0.6575
C17E C 1.28250(14) 0.86764(19) 0.5834(3)
H10E H 1.2532 0.8753 0.6137
C18E C 1.27572(12) 0.78832(18) 0.5129(2)
C19E C 1.31985(15) 0.7847(2) 0.4675(3)
H11E H 1.3167 0.7339 0.4173
C20E C 1.36796(15) 0.8554(2) 0.4963(3)
H12E H 1.3966 0.8513 0.4642
loop_
_geom_bond_atom_site_label_1
_geom_bond_atom_site_label_2
_geom_bond_site_symmetry_1
_geom_bond_site_symmetry_2
Cu1 N1 1_555 1_555
N1 C16 1_555 1_555
O1 Cu1 1_555 1_555
O2 C1 1_555 1_555
O3 C8 1_555 1_555
O4 C15 1_555 1_555
O5 C15 1_555 1_555
C1 O1 1_555 1_555
C2 C1 1_555 1_555
C3 C2 1_555 1_555
H1 C3 1_555 1_555
C4 C3 1_555 1_555
H2 C4 1_555 1_555
C5 C4 1_555 1_555
C6 C5 1_555 1_555
H3 C6 1_555 1_555
C7 C2 1_555 1_555
H4 C7 1_555 1_555
C8 C5 1_555 1_555
C9 C8 1_555 1_555
C10 C9 1_555 1_555
H5 C10 1_555 1_555
C11 C10 1_555 1_555
H6 C11 1_555 1_555
C12 C11 1_555 1_555
C13 C12 1_555 1_555
H7 C13 1_555 1_555
C14 C9 1_555 1_555
H8 C14 1_555 1_555
C15 C12 1_555 1_555
C16 H9 1_555 1_555
C17 C16 1_555 1_555
H10 C17 1_555 1_555
C18 C17 1_555 1_555
C19 C18 1_555 1_555
H11 C19 1_555 1_555
C20 N1 1_555 1_555
H12 C20 1_555 1_555
Cu1E N1E 1_555 1_555
Cu1B O2 1_555 1_555
Cu1_2 O4 1_555 1_555
Cu1D O5 1_555 1_555
Cu1B_2 O4B 1_555 1_555
Cu1F O5B 1_555 1_555
N1E C16E 1_555 1_555
O1B Cu1B 1_555 1_555
O1E Cu1E 1_555 1_555
O2B Cu1 1_555 1_555
O2G Cu1E 1_555 1_555
O3B C8B 1_555 1_555
O4B C15B 1_555 1_555
O4_2 Cu1 1_555 1_555
O4E Cu1E 1_555 1_555
O5B C15B 1_555 1_555
O5D Cu1 1_555 1_555
O5A Cu1E 1_555 1_555
C1B O1B 1_555 1_555
C2B C1B 1_555 1_555
C3B C2B 1_555 1_555
H1B C3B 1_555 1_555
C4B C3B 1_555 1_555
H2B C4B 1_555 1_555
C5B C4B 1_555 1_555
C6B C5B 1_555 1_555
H3B C6B 1_555 1_555
C7B C2B 1_555 1_555
H4B C7B 1_555 1_555
C8B C5B 1_555 1_555
C9B C8B 1_555 1_555
C10B C9B 1_555 1_555
H5B C10B 1_555 1_555
C11B C10B 1_555 1_555
H6B C11B 1_555 1_555
C12B C11B 1_555 1_555
C13B C12B 1_555 1_555
H7B C13B 1_555 1_555
C14B C9B 1_555 1_555
H8B C14B 1_555 1_555
C15B C12B 1_555 1_555
C16E H9E 1_555 1_555
C17E C16E 1_555 1_555
H10E C17E 1_555 1_555
C18E C18 1_555 1_555
C19E C18E 1_555 1_555
H11E C19E 1_555 1_555
C20E N1E 1_555 1_555
H12E C20E 1_555 1_555
C6 C7 1_555 1_555
C13 C14 1_555 1_555
C19 C20 1_555 1_555
O2B C1B 1_555 1_555
C6B C7B 1_555 1_555
C13B C14B 1_555 1_555
C17E C18E 1_555 1_555
C19E C20E 1_555 1_555

#END
