
#######################################################################
#
#                 Cambridge Crystallographic Data Centre
#                                CCDC 
#
#######################################################################
#
# If this CIF has been generated from an entry in the Cambridge 
# Structural Database, then it will include bibliographic, chemical, 
# crystal, experimental, refinement or atomic coordinate data resulting 
# from the CCDC's data processing and validation procedures.
#
#######################################################################

data_PAZSOZ
_symmetry_cell_setting           triclinic
_symmetry_space_group_name_H-M   'P -1'
_symmetry_Int_Tables_number      2
_space_group_name_Hall           '-P 1'
loop_
_symmetry_equiv_pos_site_id
_symmetry_equiv_pos_as_xyz
1 x,y,z
2 -x,-y,-z
_cell_length_a                   10.174(5)
_cell_length_b                   12.353(5)
_cell_length_c                   14.723(5)
_cell_angle_alpha                102.609(5)
_cell_angle_beta                 107.015(5)
_cell_angle_gamma                103.530(5)
_cell_volume                     1636.4
loop_
_atom_site_label
_atom_site_type_symbol
_atom_site_fract_x
_atom_site_fract_y
_atom_site_fract_z
C1 C 0.2038(3) 0.3996(3) 0.1958(3)
C2 C 0.1938(4) 0.2971(3) 0.1285(3)
H1 H 0.2529 0.2996 0.0908
C3 C 0.0973(3) 0.1917(3) 0.1171(2)
H2 H 0.0919 0.1237 0.0719
C4 C 0.0082(3) 0.1865(2) 0.1724(2)
C5 C 0.0202(3) 0.2875(2) 0.2408(2)
H3 H -0.0378 0.2838 0.2793
C6 C 0.1167(3) 0.3948(3) 0.2539(2)
C7 C 0.1285(5) 0.5050(3) 0.3288(3)
O1 O 0.2216(3) 0.5987(2) 0.3359(2)
O2 O 0.0481(4) 0.4990(2) 0.3774(2)
O3 O 0.2969(2) 0.5040(2) 0.2051(2)
O4 O -0.2494(3) 0.0738(2) 0.1557(2)
O5 O -0.0568(3) 0.0170(3) 0.2421(2)
O6 O -0.1326(3) -0.0274(2) 0.0668(2)
S1 S -0.11780(9) 0.05164(6) 0.15789(6)
C8 C 0.4062(4) 0.0997(3) 0.5017(3)
H4 H 0.4234 0.0763 0.5588
C9 C 0.2985(4) 0.1227(3) 0.3630(3)
H5 H 0.2265 0.1199 0.3056
C10 C 0.5077(4) 0.1657(3) 0.4786(3)
H6 H 0.6064 0.1971 0.5164
C11 C 0.5057(4) 0.2525(3) 0.3380(3)
H7 H 0.4401 0.2340 0.2699
H8 H 0.5944 0.2375 0.3360
C12 C 0.5390(4) 0.3796(3) 0.3931(3)
H9 H 0.6003 0.3956 0.4620
H10 H 0.4490 0.3934 0.3933
C13 C 0.6138(4) 0.4654(3) 0.3497(3)
H11 H 0.7042 0.4531 0.3487
H12 H 0.5523 0.4534 0.2817
C14 C 0.6431(4) 0.5875(3) 0.4135(3)
H13 H 0.5519 0.5970 0.4157
H14 H 0.7045 0.5977 0.4810
C15 C 0.8479(4) 0.7508(3) 0.4235(3)
H15 H 0.9145 0.7470 0.4805
C16 C 0.7512(4) 0.8024(3) 0.2983(3)
H16 H 0.7383 0.8421 0.2512
C17 C 0.6486(4) 0.7111(3) 0.2984(3)
H17 H 0.5538 0.6769 0.2530
N5 N 0.4387(3) 0.1783(2) 0.3887(2)
N6 N 0.2743(3) 0.0717(2) 0.4294(2)
N7 N 0.8762(3) 0.8283(2) 0.3767(2)
N8 N 0.7125(3) 0.6792(2) 0.3788(2)
Ag2 Ag 0.07446(3) -0.03996(2) 0.41638(2)
N7_2 N -0.1238(3) -0.1717(2) 0.3767(2)
Ag2_2 Ag 1.07446(3) 0.96004(2) 0.41638(2)
Ag2A Ag -0.07446(3) 0.03996(2) 0.58362(2)
C18 C 1.1924(4) 0.8889(3) 0.1301(3)
H18 H 1.1164 0.9011 0.0846
C19 C 1.4036(4) 0.8964(3) 0.2172(3)
H19 H 1.5040 0.9156 0.2441
C20 C 1.3099(4) 0.8260(3) 0.2440(3)
H20 H 1.3328 0.7876 0.2913
C21 C 1.0364(4) 0.7523(3) 0.1883(3)
H21 H 0.9645 0.7909 0.1698
H22 H 1.0483 0.7480 0.2551
C22 C 0.9834(3) 0.6304(3) 0.1167(3)
H23 H 1.0576 0.5936 0.1340
H24 H 0.9695 0.6355 0.0499
C23 C 0.8427(3) 0.5532(3) 0.1159(3)
H25 H 0.8543 0.5475 0.1822
H26 H 0.7659 0.5868 0.0957
C24 C 0.8034(3) 0.4326(3) 0.0431(3)
H27 H 0.8002 0.4407 -0.0215
H28 H 0.8794 0.3990 0.0660
C25 C 0.6443(4) 0.2633(3) 0.0689(3)
H29 H 0.7190 0.2474 0.1122
C26 C 0.4346(4) 0.2534(3) -0.0240(3)
H30 H 0.3348 0.2290 -0.0577
C27 C 0.5307(4) 0.3452(3) -0.0289(3)
H31 H 0.5099 0.3951 -0.0660
N1 N 0.6640(3) 0.3512(2) 0.03083(19)
N2 N 0.5063(3) 0.2015(2) 0.0380(2)
N3 N 1.3303(3) 0.9356(2) 0.1449(2)
N4 N 1.1752(3) 0.8220(2) 0.1885(2)
Ag1 Ag 0.41518(3) 0.05366(2) 0.07611(2)
N3_2 N 0.3303(3) -0.0644(2) 0.1449(2)
Ag1_2 Ag 1.41518(3) 1.05366(2) 0.07611(2)
Ag1A Ag 0.58482(3) -0.05366(2) -0.07611(2)
O7 O 0.1084(3) 0.6608(2) 0.5541(2)
H32 H 0.100(5) 0.621(3) 0.4952(19)
H33 H 0.051(4) 0.619(3) 0.575(3)
O8 O 0.2094(4) -0.0946(3) 0.6041(3)
H34 H 0.197(5) -0.1677(19) 0.598(3)
H35 H 0.141(4) -0.093(4) 0.624(3)
loop_
_geom_bond_atom_site_label_1
_geom_bond_atom_site_label_2
_geom_bond_site_symmetry_1
_geom_bond_site_symmetry_2
C1 C2 1_555 1_555
C2 H1 1_555 1_555
C3 C2 1_555 1_555
H2 C3 1_555 1_555
C4 C3 1_555 1_555
C5 C4 1_555 1_555
H3 C5 1_555 1_555
C6 C1 1_555 1_555
C7 C6 1_555 1_555
C8 H4 1_555 1_555
C9 H5 1_555 1_555
C10 C8 1_555 1_555
H6 C10 1_555 1_555
C11 H7 1_555 1_555
H8 C11 1_555 1_555
C12 C11 1_555 1_555
H9 C12 1_555 1_555
H10 C12 1_555 1_555
C13 C12 1_555 1_555
H11 C13 1_555 1_555
H12 C13 1_555 1_555
C14 C13 1_555 1_555
H13 C14 1_555 1_555
H14 C14 1_555 1_555
C15 H15 1_555 1_555
C16 H16 1_555 1_555
C17 C16 1_555 1_555
H17 C17 1_555 1_555
C18 H18 1_555 1_555
C19 H19 1_555 1_555
C20 C19 1_555 1_555
H20 C20 1_555 1_555
C21 H21 1_555 1_555
H22 C21 1_555 1_555
C22 C21 1_555 1_555
H23 C22 1_555 1_555
H24 C22 1_555 1_555
C23 C22 1_555 1_555
H25 C23 1_555 1_555
H26 C23 1_555 1_555
C24 C23 1_555 1_555
H27 C24 1_555 1_555
H28 C24 1_555 1_555
C25 H29 1_555 1_555
C26 H30 1_555 1_555
C27 C26 1_555 1_555
H31 C27 1_555 1_555
N1 C24 1_555 1_555
N2 C25 1_555 1_555
N3 C18 1_555 1_555
N4 C18 1_555 1_555
N5 C9 1_555 1_555
N6 C8 1_555 1_555
N7 C15 1_555 1_555
N8 C14 1_555 1_555
O1 C7 1_555 1_555
O2 C7 1_555 1_555
O3 C1 1_555 1_555
O4 S1 1_555 1_555
O5 S1 1_555 1_555
O6 S1 1_555 1_555
O7 H32 1_555 1_555
O8 H34 1_555 1_555
S1 C4 1_555 1_555
Ag1 N2 1_555 1_555
Ag2 N6 1_555 1_555
H33 O7 1_555 1_555
H35 O8 1_555 1_555
N3_2 Ag1 1_555 1_555
N7_2 Ag2 1_555 1_555
Ag1_2 N3 1_555 1_555
Ag1A Ag1 1_555 1_555
Ag2_2 N7 1_555 1_555
Ag2A Ag2 1_555 1_555
C5 C6 1_555 1_555
C9 N6 1_555 1_555
C10 N5 1_555 1_555
C11 N5 1_555 1_555
C15 N8 1_555 1_555
C16 N7 1_555 1_555
C17 N8 1_555 1_555
C19 N3 1_555 1_555
C20 N4 1_555 1_555
C21 N4 1_555 1_555
C25 N1 1_555 1_555
C26 N2 1_555 1_555
C27 N1 1_555 1_555

#END
