
#######################################################################
#
#                 Cambridge Crystallographic Data Centre
#                                CCDC 
#
#######################################################################
#
# If this CIF has been generated from an entry in the Cambridge 
# Structural Database, then it will include bibliographic, chemical, 
# crystal, experimental, refinement or atomic coordinate data resulting 
# from the CCDC's data processing and validation procedures.
#
#######################################################################

data_PAZSEP
_symmetry_cell_setting           triclinic
_symmetry_space_group_name_H-M   'P -1'
_symmetry_Int_Tables_number      2
_space_group_name_Hall           '-P 1'
loop_
_symmetry_equiv_pos_site_id
_symmetry_equiv_pos_as_xyz
1 x,y,z
2 -x,-y,-z
_cell_length_a                   10.85(2)
_cell_length_b                   11.59(2)
_cell_length_c                   12.95(2)
_cell_angle_alpha                101.24(3)
_cell_angle_beta                 110.72(3)
_cell_angle_gamma                99.68(3)
_cell_volume                     1443.18
loop_
_atom_site_label
_atom_site_type_symbol
_atom_site_fract_x
_atom_site_fract_y
_atom_site_fract_z
Ni1 Ni 0.0000 0.0000 1.0000
K1 K 0.52907(10) 0.28986(10) 0.75247(9)
N1 N 0.3419(5) 0.2873(5) 0.8588(4)
N2 N 0.4157(5) 0.4332(5) 1.1975(4)
O1 O 0.6512(3) 0.1809(3) 0.9330(3)
O2 O 0.8064(3) 0.3642(3) 0.8852(3)
O3 O 0.7102(4) 0.2738(3) 0.6409(3)
O4 O 0.4596(3) 0.3271(3) 0.5382(3)
O5 O 0.2807(3) 0.1447(3) 0.5617(3)
O6 O 0.4390(4) 0.0334(3) 0.7183(4)
S1 S 0.07666(14) 0.05539(12) 0.87731(11)
S2 S 0.14205(13) 0.15812(12) 1.13873(11)
C1 C 0.7929(5) 0.2318(5) 1.0121(5)
C2 C 0.8095(6) 0.2379(5) 1.1354(5)
H1 H 0.7762 0.1567 1.1397
H2 H 0.9057 0.2662 1.1855
C3 C 0.7338(6) 0.3218(5) 1.1786(5)
H3 H 0.6364 0.2896 1.1341
H4 H 0.7519 0.3259 1.2583
C4 C 0.7793(6) 0.4485(6) 1.1678(5)
H5 H 0.8746 0.4837 1.2188
H6 H 0.7266 0.4998 1.1916
C5 C 0.7611(6) 0.4463(5) 1.0451(5)
H7 H 0.7955 0.5280 1.0423
H8 H 0.6647 0.4190 0.9952
C6 C 0.8373(5) 0.3609(5) 1.0017(5)
C7 C 0.8749(6) 0.2976(6) 0.8282(5)
H9 H 0.8412 0.2110 0.8165
H10 H 0.9720 0.3211 0.8754
C8 C 0.8504(6) 0.3232(7) 0.7171(6)
H11 H 0.8750 0.4106 0.7285
H12 H 0.9071 0.2880 0.6835
C9 C 0.6766(6) 0.3187(6) 0.5421(5)
H13 H 0.7262 0.2918 0.4967
H14 H 0.7008 0.4070 0.5652
C10 C 0.5248(6) 0.2695(6) 0.4729(5)
H15 H 0.4993 0.2877 0.3993
H16 H 0.4984 0.1819 0.4593
C11 C 0.3142(5) 0.3107(5) 0.4786(4)
C12 C 0.2772(5) 0.3987(5) 0.5597(4)
H17 H 0.3285 0.4812 0.5736
H18 H 0.3009 0.3792 0.6327
C13 C 0.1246(5) 0.3896(5) 0.5071(5)
H19 H 0.1014 0.4461 0.5586
H20 H 0.1010 0.4108 0.4349
C14 C 0.0456(5) 0.2610(6) 0.4869(5)
H21 H -0.0514 0.2546 0.4520
H22 H 0.0652 0.2423 0.5600
C15 C 0.0822(5) 0.1693(5) 0.4093(4)
H23 H 0.0519 0.1821 0.3334
H24 H 0.0337 0.0879 0.4021
C16 C 0.2372(5) 0.1782(5) 0.4540(4)
C17 C 0.2587(6) 0.0167(5) 0.5448(5)
H25 H 0.3132 -0.0136 0.5058
H26 H 0.1634 -0.0235 0.4972
C18 C 0.2977(7) -0.0107(5) 0.6590(5)
H27 H 0.2519 0.0283 0.7024
H28 H 0.2708 -0.0979 0.6480
C19 C 0.4776(7) -0.0006(5) 0.8243(6)
H29 H 0.4235 0.0266 0.8652
H30 H 0.4581 -0.0886 0.8073
C20 C 0.6169(7) 0.0504(5) 0.8947(6)
H31 H 0.6706 0.0259 0.8523
H32 H 0.6405 0.0185 0.9610
C21 C 0.2802(6) 0.2443(5) 0.9055(5)
C22 C 0.2054(5) 0.1880(4) 0.9617(5)
C23 C 0.2324(5) 0.2326(4) 1.0738(5)
C24 C 0.3362(6) 0.3442(5) 1.1418(5)
K1A K -0.52907(10) -0.28986(10) 1.24753(9)
K1A_2 K 0.47093(10) 0.71014(10) 1.24753(9)
K1_2 K -0.47093(10) -0.71014(10) 0.75247(9)
N1A N -0.3419(5) -0.2873(5) 1.1412(4)
N2A N -0.4157(5) -0.4332(5) 0.8025(4)
N2A_2 N 0.5843(5) 0.5668(5) 0.8025(4)
N2_2 N -0.5843(5) -0.5668(5) 1.1975(4)
O1A O -0.6512(3) -0.1809(3) 1.0670(3)
O2A O -0.8064(3) -0.3642(3) 1.1148(3)
O3A O -0.7102(4) -0.2738(3) 1.3591(3)
O4A O -0.4596(3) -0.3271(3) 1.4618(3)
O5A O -0.2807(3) -0.1447(3) 1.4383(3)
O6A O -0.4390(4) -0.0334(3) 1.2817(4)
S1A S -0.07666(14) -0.05539(12) 1.12269(11)
S2A S -0.14205(13) -0.15812(12) 0.86127(11)
C1A C -0.7929(5) -0.2318(5) 0.9879(5)
C2A C -0.8095(6) -0.2379(5) 0.8646(5)
H1A H -0.7762 -0.1567 0.8603
H2A H -0.9057 -0.2662 0.8145
C3A C -0.7338(6) -0.3218(5) 0.8214(5)
H3A H -0.6364 -0.2896 0.8659
H4A H -0.7519 -0.3259 0.7417
C4A C -0.7793(6) -0.4485(6) 0.8322(5)
H5A H -0.8746 -0.4837 0.7812
H6A H -0.7266 -0.4998 0.8084
C5A C -0.7611(6) -0.4463(5) 0.9549(5)
H7A H -0.7955 -0.5280 0.9577
H8A H -0.6647 -0.4190 1.0048
C6A C -0.8373(5) -0.3609(5) 0.9983(5)
C7A C -0.8749(6) -0.2976(6) 1.1718(5)
H9A H -0.8412 -0.2110 1.1835
H10A H -0.9720 -0.3211 1.1246
C8A C -0.8504(6) -0.3232(7) 1.2829(6)
H11A H -0.8750 -0.4106 1.2715
H12A H -0.9071 -0.2880 1.3165
C9A C -0.6766(6) -0.3187(6) 1.4579(5)
H13A H -0.7262 -0.2918 1.5033
H14A H -0.7008 -0.4070 1.4348
C10A C -0.5248(6) -0.2695(6) 1.5271(5)
H15A H -0.4993 -0.2877 1.6007
H16A H -0.4984 -0.1819 1.5407
C11A C -0.3142(5) -0.3107(5) 1.5214(4)
C12A C -0.2772(5) -0.3987(5) 1.4403(4)
H17A H -0.3285 -0.4812 1.4264
H18A H -0.3009 -0.3792 1.3673
C13A C -0.1246(5) -0.3896(5) 1.4929(5)
H19A H -0.1014 -0.4461 1.4414
H20A H -0.1010 -0.4108 1.5651
C14A C -0.0456(5) -0.2610(6) 1.5131(5)
H21A H 0.0514 -0.2546 1.5480
H22A H -0.0652 -0.2423 1.4400
C15A C -0.0822(5) -0.1693(5) 1.5907(4)
H23A H -0.0519 -0.1821 1.6666
H24A H -0.0337 -0.0879 1.5979
C16A C -0.2372(5) -0.1782(5) 1.5460(4)
C17A C -0.2587(6) -0.0167(5) 1.4552(5)
H25A H -0.3132 0.0136 1.4942
H26A H -0.1634 0.0235 1.5028
C18A C -0.2977(7) 0.0107(5) 1.3410(5)
H27A H -0.2519 -0.0283 1.2976
H28A H -0.2708 0.0979 1.3520
C19A C -0.4776(7) 0.0006(5) 1.1757(6)
H29A H -0.4235 -0.0266 1.1348
H30A H -0.4581 0.0886 1.1927
C20A C -0.6169(7) -0.0504(5) 1.1053(6)
H31A H -0.6706 -0.0259 1.1477
H32A H -0.6405 -0.0185 1.0390
C21A C -0.2802(6) -0.2443(5) 1.0945(5)
C22A C -0.2054(5) -0.1880(4) 1.0383(5)
C23A C -0.2324(5) -0.2326(4) 0.9262(5)
C24A C -0.3362(6) -0.3442(5) 0.8582(5)
loop_
_geom_bond_atom_site_label_1
_geom_bond_atom_site_label_2
_geom_bond_site_symmetry_1
_geom_bond_site_symmetry_2
Ni1 S1 1_555 1_555
K1 N1 1_555 1_555
N1 C21 1_555 1_555
N2 C24 1_555 1_555
O1 K1 1_555 1_555
O2 K1 1_555 1_555
O3 K1 1_555 1_555
O4 K1 1_555 1_555
O5 K1 1_555 1_555
O6 K1 1_555 1_555
S1 C22 1_555 1_555
S2 Ni1 1_555 1_555
C1 O1 1_555 1_555
C2 C1 1_555 1_555
H1 C2 1_555 1_555
H2 C2 1_555 1_555
C3 C2 1_555 1_555
H3 C3 1_555 1_555
H4 C3 1_555 1_555
C4 C3 1_555 1_555
H5 C4 1_555 1_555
H6 C4 1_555 1_555
C5 C4 1_555 1_555
H7 C5 1_555 1_555
H8 C5 1_555 1_555
C6 O2 1_555 1_555
C7 O2 1_555 1_555
H9 C7 1_555 1_555
H10 C7 1_555 1_555
C8 O3 1_555 1_555
H11 C8 1_555 1_555
H12 C8 1_555 1_555
C9 O3 1_555 1_555
H13 C9 1_555 1_555
H14 C9 1_555 1_555
C10 O4 1_555 1_555
H15 C10 1_555 1_555
H16 C10 1_555 1_555
C11 O4 1_555 1_555
C12 C11 1_555 1_555
H17 C12 1_555 1_555
H18 C12 1_555 1_555
C13 C12 1_555 1_555
H19 C13 1_555 1_555
H20 C13 1_555 1_555
C14 C13 1_555 1_555
H21 C14 1_555 1_555
H22 C14 1_555 1_555
C15 C14 1_555 1_555
H23 C15 1_555 1_555
H24 C15 1_555 1_555
C16 O5 1_555 1_555
C17 O5 1_555 1_555
H25 C17 1_555 1_555
H26 C17 1_555 1_555
C18 O6 1_555 1_555
H27 C18 1_555 1_555
H28 C18 1_555 1_555
C19 O6 1_555 1_555
H29 C19 1_555 1_555
H30 C19 1_555 1_555
C20 O1 1_555 1_555
H31 C20 1_555 1_555
H32 C20 1_555 1_555
C21 C22 1_555 1_555
C22 C23 1_555 1_555
C23 S2 1_555 1_555
C24 C23 1_555 1_555
K1A N1A 1_555 1_555
K1A_2 N2 1_555 1_555
K1_2 N2A 1_555 1_555
N1A C21A 1_555 1_555
N2A C24A 1_555 1_555
N2A_2 K1 1_555 1_555
N2_2 K1A 1_555 1_555
O1A K1A 1_555 1_555
O2A K1A 1_555 1_555
O3A K1A 1_555 1_555
O4A K1A 1_555 1_555
O5A K1A 1_555 1_555
O6A K1A 1_555 1_555
S1A Ni1 1_555 1_555
S2A Ni1 1_555 1_555
C1A O1A 1_555 1_555
C2A C1A 1_555 1_555
H1A C2A 1_555 1_555
H2A C2A 1_555 1_555
C3A C2A 1_555 1_555
H3A C3A 1_555 1_555
H4A C3A 1_555 1_555
C4A C3A 1_555 1_555
H5A C4A 1_555 1_555
H6A C4A 1_555 1_555
C5A C4A 1_555 1_555
H7A C5A 1_555 1_555
H8A C5A 1_555 1_555
C6A O2A 1_555 1_555
C7A O2A 1_555 1_555
H9A C7A 1_555 1_555
H10A C7A 1_555 1_555
C8A O3A 1_555 1_555
H11A C8A 1_555 1_555
H12A C8A 1_555 1_555
C9A O3A 1_555 1_555
H13A C9A 1_555 1_555
H14A C9A 1_555 1_555
C10A O4A 1_555 1_555
H15A C10A 1_555 1_555
H16A C10A 1_555 1_555
C11A O4A 1_555 1_555
C12A C11A 1_555 1_555
H17A C12A 1_555 1_555
H18A C12A 1_555 1_555
C13A C12A 1_555 1_555
H19A C13A 1_555 1_555
H20A C13A 1_555 1_555
C14A C13A 1_555 1_555
H21A C14A 1_555 1_555
H22A C14A 1_555 1_555
C15A C14A 1_555 1_555
H23A C15A 1_555 1_555
H24A C15A 1_555 1_555
C16A O5A 1_555 1_555
C17A O5A 1_555 1_555
H25A C17A 1_555 1_555
H26A C17A 1_555 1_555
C18A O6A 1_555 1_555
H27A C18A 1_555 1_555
H28A C18A 1_555 1_555
C19A O6A 1_555 1_555
H29A C19A 1_555 1_555
H30A C19A 1_555 1_555
C20A O1A 1_555 1_555
H31A C20A 1_555 1_555
H32A C20A 1_555 1_555
C21A C22A 1_555 1_555
C22A S1A 1_555 1_555
C23A S2A 1_555 1_555
C24A C23A 1_555 1_555
C1 C6 1_555 1_555
C5 C6 1_555 1_555
C7 C8 1_555 1_555
C9 C10 1_555 1_555
C11 C16 1_555 1_555
C15 C16 1_555 1_555
C17 C18 1_555 1_555
C19 C20 1_555 1_555
C1A C6A 1_555 1_555
C5A C6A 1_555 1_555
C7A C8A 1_555 1_555
C9A C10A 1_555 1_555
C11A C16A 1_555 1_555
C15A C16A 1_555 1_555
C17A C18A 1_555 1_555
C19A C20A 1_555 1_555
C22A C23A 1_555 1_555

#END
