
#######################################################################
#
#                 Cambridge Crystallographic Data Centre
#                                CCDC 
#
#######################################################################
#
# If this CIF has been generated from an entry in the Cambridge 
# Structural Database, then it will include bibliographic, chemical, 
# crystal, experimental, refinement or atomic coordinate data resulting 
# from the CCDC's data processing and validation procedures.
#
#######################################################################

data_PAZTEQ
_symmetry_cell_setting           monoclinic
_symmetry_space_group_name_H-M   'C 2/c'
_symmetry_Int_Tables_number      15
_space_group_name_Hall           '-C 2yn'
loop_
_symmetry_equiv_pos_site_id
_symmetry_equiv_pos_as_xyz
1 x,y,z
2 1/2+x,1/2+y,z
3 -x,y,1/2-z
4 1/2-x,1/2+y,1/2-z
5 -x,-y,-z
6 1/2-x,1/2-y,-z
7 x,-y,1/2+z
8 1/2+x,1/2-y,1/2+z
_cell_length_a                   25.227(3)
_cell_length_b                   11.4304(13)
_cell_length_c                   18.886(2)
_cell_angle_alpha                90
_cell_angle_beta                 125.869(2)
_cell_angle_gamma                90
_cell_volume                     4413.11
loop_
_atom_site_label
_atom_site_type_symbol
_atom_site_fract_x
_atom_site_fract_y
_atom_site_fract_z
C1 C 0.22682(13) 0.9141(2) 0.21199(18)
C2 C 0.19369(13) 0.8085(3) 0.18068(19)
H1 H 0.2168 0.7387 0.2022
C3 C 0.12693(14) 0.8059(3) 0.1181(2)
H2 H 0.1056 0.7343 0.0980
C4 C 0.09088(13) 0.9095(3) 0.08450(19)
C5 C 0.12466(14) 1.0163(3) 0.1173(2)
H3 H 0.1018 1.0864 0.0967
C6 C 0.19129(14) 1.0176(3) 0.1795(2)
H4 H 0.2129 1.0889 0.2003
O1 O 0.34260(12) 0.9419(3) 0.25141(18)
O2 O 0.33014(10) 0.8084(2) 0.33706(17)
O3 O 0.32245(12) 1.0146(3) 0.35015(18)
O4 O 0.02644(10) 0.90558(19) 0.02280(16)
S1 S 0.31194(3) 0.91865(6) 0.29383(5)
H23 H 0.0000 1.0000 0.0000
C1D C -0.22682(13) 1.0859(2) -0.21199(18)
C2D C -0.19369(13) 1.1915(3) -0.18068(19)
H1D H -0.2168 1.2613 -0.2022
C3D C -0.12693(14) 1.1941(3) -0.1181(2)
H2D H -0.1056 1.2657 -0.0980
C4D C -0.09088(13) 1.0905(3) -0.08450(19)
C5D C -0.12466(14) 0.9837(3) -0.1173(2)
H3D H -0.1018 0.9136 -0.0967
C6D C -0.19129(14) 0.9824(3) -0.1795(2)
H4D H -0.2129 0.9111 -0.2003
O1D O -0.34260(12) 1.0581(3) -0.25141(18)
O2D O -0.33014(10) 1.1916(2) -0.33706(17)
O3D O -0.32245(12) 0.9854(3) -0.35015(18)
O4D O -0.02644(10) 1.09442(19) -0.02280(16)
S1D S -0.31194(3) 1.08135(6) -0.29383(5)
C7 C 0.97846(15) 0.7001(3) 0.7886(2)
H5 H 0.9632 0.6591 0.8158
C8 C 0.97765(15) 0.8211(3) 0.7902(2)
H6 H 0.9622 0.8597 0.8181
C9 C 1.0000 0.8845(3) 0.7500
C10 C 1.0000 1.0133(4) 0.7500
C11 C 0.99966(16) 1.0781(3) 0.8126(2)
H7 H 0.9993 1.0398 0.8558
C12 C 0.99978(16) 1.1980(3) 0.8103(2)
H8 H 0.9997 1.2386 0.8529
C13 C 1.16443(15) 0.3062(3) 0.8434(2)
H9 H 1.1625 0.3456 0.7988
C14 C 1.16840(15) 0.1860(3) 0.8457(2)
H10 H 1.1690 0.1460 0.8033
C15 C 1.17147(14) 0.1243(3) 0.91160(19)
C16 C 1.17447(14) -0.0041(3) 0.91458(19)
C17 C 1.19734(17) -0.0679(3) 0.8753(2)
H11 H 1.2145 -0.0292 0.8497
C18 C 1.19481(17) -0.1879(3) 0.8739(2)
H12 H 1.2102 -0.2276 0.8463
C19 C 1.16596(15) 0.3110(3) 0.9653(2)
H13 H 1.1650 0.3537 1.0064
C20 C 1.17005(15) 0.1907(3) 0.9726(2)
H14 H 1.1718 0.1540 1.0179
C21 C 1.15218(17) -0.0699(2) 0.9548(2)
H15 H 1.1381 -0.0321 0.9846
C22 C 1.15099(16) -0.1904(3) 0.9505(2)
H16 H 1.1352 -0.2314 0.9771
N1 N 1.16330(12) 0.3689(2) 0.90178(17)
N2 N 1.17146(12) -0.2517(2) 0.90998(16)
N3 N 1.0000 0.6396(3) 0.7500
N4 N 1.0000 1.2605(3) 0.7500
O5 O 1.09906(13) 0.5669(2) 0.97408(17)
Ag1 Ag 1.161360(14) 0.55981(2) 0.899260(19)
Ag2 Ag 1.0000 0.44949(3) 0.7500
H17 H 1.1211(18) 0.549(3) 1.0276(14)
H20 H 1.0615(12) 0.540(3) 0.950(3)
C7B C 1.02154(15) 0.7001(3) 0.7114(2)
H5B H 1.0368 0.6591 0.6842
C8B C 1.02235(15) 0.8211(3) 0.7098(2)
H6B H 1.0378 0.8597 0.6819
C11B C 1.00034(16) 1.0781(3) 0.6874(2)
H7B H 1.0007 1.0398 0.6442
C12B C 1.00022(16) 1.1980(3) 0.6897(2)
H8B H 1.0003 1.2386 0.6471
C13_2 C 1.16443(15) 1.3062(3) 0.8434(2)
H9_2 H 1.1625 1.3456 0.7988
C14_2 C 1.16840(15) 1.1860(3) 0.8457(2)
H10_2 H 1.1690 1.1460 0.8033
C15_2 C 1.17147(14) 1.1243(3) 0.91160(19)
C16_2 C 1.17447(14) 0.9959(3) 0.91458(19)
C17_2 C 1.19734(17) 0.9321(3) 0.8753(2)
H11_2 H 1.2145 0.9708 0.8497
C18_2 C 1.19481(17) 0.8121(3) 0.8739(2)
H12_2 H 1.2102 0.7724 0.8463
C19_2 C 1.16596(15) 1.3110(3) 0.9653(2)
H13_2 H 1.1650 1.3537 1.0064
C20_2 C 1.17005(15) 1.1907(3) 0.9726(2)
H14_2 H 1.1718 1.1540 1.0179
C21_2 C 1.15218(17) 0.9301(2) 0.9548(2)
H15_2 H 1.1381 0.9679 0.9846
C22_2 C 1.15099(16) 0.8096(3) 0.9505(2)
H16_2 H 1.1352 0.7686 0.9771
N1_2 N 1.16330(12) 1.3689(2) 0.90178(17)
N1B N 0.83670(12) 0.3689(2) 0.59822(17)
N2_2 N 1.17146(12) 0.7483(2) 0.90998(16)
N2B N 0.82854(12) 0.7483(2) 0.59002(16)
N4_2 N 1.0000 0.2605(3) 0.7500
O5B O 0.90094(13) 0.5669(2) 0.52592(17)
Ag1B Ag 0.838640(14) 0.55981(2) 0.600740(19)
Ag1_2 Ag 1.161360(14) -0.44019(2) 0.899260(19)
Ag1_3 Ag 1.161360(14) 1.55981(2) 0.899260(19)
Ag2_2 Ag 1.0000 1.44949(3) 0.7500
H17B H 0.8789(18) 0.549(3) 0.4724(14)
H20B H 0.9385(12) 0.540(3) 0.550(3)
O6 O 0.97382(14) 0.4476(2) 0.8758(2)
H21 H 0.9363(12) 0.471(3) 0.857(3)
H22 H 0.984(2) 0.421(3) 0.9234(18)
O7 O 0.96710(14) 0.6919(3) 0.9800(2)
H18 H 0.9811(18) 0.761(2) 0.990(3)
H19 H 0.9271(10) 0.697(4) 0.9378(19)
loop_
_geom_bond_atom_site_label_1
_geom_bond_atom_site_label_2
_geom_bond_site_symmetry_1
_geom_bond_site_symmetry_2
C1 C2 1_555 1_555
C2 H1 1_555 1_555
C3 C2 1_555 1_555
H2 C3 1_555 1_555
C4 C3 1_555 1_555
C5 C4 1_555 1_555
H3 C5 1_555 1_555
C6 C1 1_555 1_555
H4 C6 1_555 1_555
C7 H5 1_555 1_555
C8 C7 1_555 1_555
H6 C8 1_555 1_555
C9 C8 1_555 1_555
C10 C9 1_555 1_555
C11 C10 1_555 1_555
H7 C11 1_555 1_555
C12 C11 1_555 1_555
H8 C12 1_555 1_555
C13 H9 1_555 1_555
C14 C13 1_555 1_555
H10 C14 1_555 1_555
C15 C14 1_555 1_555
C16 C15 1_555 1_555
C17 C16 1_555 1_555
H11 C17 1_555 1_555
C18 C17 1_555 1_555
H12 C18 1_555 1_555
C19 H13 1_555 1_555
C20 C15 1_555 1_555
H14 C20 1_555 1_555
C21 C16 1_555 1_555
H15 C21 1_555 1_555
C22 C21 1_555 1_555
H16 C22 1_555 1_555
N1 C13 1_555 1_555
N2 C18 1_555 1_555
N3 C7 1_555 1_555
N4 C12 1_555 1_555
O1 S1 1_555 1_555
O2 S1 1_555 1_555
O3 S1 1_555 1_555
O4 C4 1_555 1_555
O5 Ag1 1_555 1_555
O6 H21 1_555 1_555
O7 H18 1_555 1_555
S1 C1 1_555 1_555
Ag1 N1 1_555 1_555
Ag2 N3 1_555 1_555
H17 O5 1_555 1_555
H19 O7 1_555 1_555
H20 O5 1_555 1_555
H22 O6 1_555 1_555
H23 O4 1_555 1_555
C1D C2D 1_555 1_555
C2D H1D 1_555 1_555
C3D C2D 1_555 1_555
H2D C3D 1_555 1_555
C4D C3D 1_555 1_555
C5D C4D 1_555 1_555
H3D C5D 1_555 1_555
C6D C1D 1_555 1_555
H4D C6D 1_555 1_555
C7B N3 1_555 1_555
H5B C7B 1_555 1_555
C8B C9 1_555 1_555
H6B C8B 1_555 1_555
C11B C10 1_555 1_555
H7B C11B 1_555 1_555
C12B N4 1_555 1_555
H8B C12B 1_555 1_555
C13_2 H9_2 1_555 1_555
C14_2 C13_2 1_555 1_555
H10_2 C14_2 1_555 1_555
C15_2 C14_2 1_555 1_555
C16_2 C15_2 1_555 1_555
C17_2 C16_2 1_555 1_555
H11_2 C17_2 1_555 1_555
C18_2 C17_2 1_555 1_555
H12_2 C18_2 1_555 1_555
C19_2 H13_2 1_555 1_555
C20_2 C15_2 1_555 1_555
H14_2 C20_2 1_555 1_555
C21_2 C16_2 1_555 1_555
H15_2 C21_2 1_555 1_555
C22_2 C21_2 1_555 1_555
H16_2 C22_2 1_555 1_555
N1_2 C13_2 1_555 1_555
N1B Ag1B 1_555 1_555
N2_2 Ag1 1_555 1_555
N2B Ag1B 1_555 1_555
N4_2 Ag2 1_555 1_555
O1D S1D 1_555 1_555
O2D S1D 1_555 1_555
O3D S1D 1_555 1_555
O4D H23 1_555 1_555
O5B Ag1B 1_555 1_555
S1D C1D 1_555 1_555
Ag1B Ag2 1_555 1_555
Ag1_2 N2 1_555 1_555
Ag1_3 N1_2 1_555 1_555
Ag2_2 N4 1_555 1_555
H17B O5B 1_555 1_555
H20B O5B 1_555 1_555
C5 C6 1_555 1_555
C19 C20 1_555 1_555
C19 N1 1_555 1_555
C22 N2 1_555 1_555
Ag1 Ag2 1_555 1_555
C4D O4D 1_555 1_555
C5D C6D 1_555 1_555
C7B C8B 1_555 1_555
C11B C12B 1_555 1_555
C18_2 N2_2 1_555 1_555
C19_2 C20_2 1_555 1_555
C19_2 N1_2 1_555 1_555
C22_2 N2_2 1_555 1_555
Ag1_3 Ag2_2 1_555 1_555

#END
