
#######################################################################
#
#                 Cambridge Crystallographic Data Centre
#                                CCDC 
#
#######################################################################
#
# If this CIF has been generated from an entry in the Cambridge 
# Structural Database, then it will include bibliographic, chemical, 
# crystal, experimental, refinement or atomic coordinate data resulting 
# from the CCDC's data processing and validation procedures.
#
#######################################################################

data_PAZWAP
_symmetry_cell_setting           triclinic
_symmetry_space_group_name_H-M   'P -1'
_symmetry_Int_Tables_number      2
_space_group_name_Hall           '-P 1'
loop_
_symmetry_equiv_pos_site_id
_symmetry_equiv_pos_as_xyz
1 x,y,z
2 -x,-y,-z
_cell_length_a                   5.8877(12)
_cell_length_b                   10.117(2)
_cell_length_c                   11.069(2)
_cell_angle_alpha                103.33(3)
_cell_angle_beta                 99.18(3)
_cell_angle_gamma                105.29(3)
_cell_volume                     601.569
loop_
_atom_site_label
_atom_site_type_symbol
_atom_site_fract_x
_atom_site_fract_y
_atom_site_fract_z
Dy1 Dy 0.34998(3) -0.195945(16) 0.566759(14)
N1 N -0.1896(9) -0.1985(5) -0.0660(4)
C1 C 0.0981(10) -0.2317(6) 0.0930(5)
H1 H 0.2147 -0.2751 0.1125
C2 C 0.0387(8) -0.1428(5) 0.1896(4)
C3 C -0.1371(8) -0.0805(4) 0.1561(4)
C4 C -0.2482(10) -0.1138(5) 0.0271(4)
H2 H -0.3696 -0.0748 0.0048
C5 C -0.2133(7) 0.0192(4) 0.2526(4)
C6 C 0.1673(7) -0.1212(4) 0.3241(4)
C7 C 0.0756(7) -0.5281(4) 0.4566(4)
O1 O 0.0978(6) -0.2187(4) 0.3747(3)
O2 O 0.3452(6) -0.0121(4) 0.3764(4)
O3 O -0.1471(6) 0.0278(3) 0.3694(3)
O4 O -0.3398(6) 0.0905(4) 0.2163(3)
O5 O 0.5959(7) -0.2818(4) 0.6876(3)
H3 H 0.6540 -0.2727 0.7656
H4 H 0.6242 -0.3533 0.6426
O6 O 0.2616(6) -0.4389(3) 0.4497(3)
O7 O 0.6115(6) -0.2214(4) 0.4360(3)
H5 H 0.7156 -0.1956 0.3939
H6 H 0.5515 -0.3119 0.4089
C8 C -0.0167(11) -0.2554(7) -0.0321(5)
H7 H 0.0278 -0.3135 -0.0961
O8 O 0.0014(6) -0.6593(3) 0.3999(3)
Dy1A Dy 0.65002(3) 0.195945(16) 0.433241(14)
Dy1A_2 Dy -0.34998(3) 0.195945(16) 0.433241(14)
Dy1A_3 Dy -0.34998(3) -0.804055(16) 0.433241(14)
Dy1_2 Dy 1.34998(3) -0.195945(16) 0.566759(14)
N1A N 1.1896(9) 0.1985(5) 1.0660(4)
C1A C 0.9019(10) 0.2317(6) 0.9070(5)
H1A H 0.7853 0.2751 0.8875
C2A C 0.9613(8) 0.1428(5) 0.8104(4)
C3A C 1.1371(8) 0.0805(4) 0.8439(4)
C4A C 1.2482(10) 0.1138(5) 0.9729(4)
H2A H 1.3696 0.0748 0.9952
C5A C 1.2133(7) -0.0192(4) 0.7474(4)
C6A C 0.8327(7) 0.1212(4) 0.6759(4)
C7A C -0.0756(7) -0.4719(4) 0.5434(4)
O1A O 0.9022(6) 0.2187(4) 0.6253(3)
O2A O 0.6548(6) 0.0121(4) 0.6236(4)
O3A O 1.1471(6) -0.0278(3) 0.6306(3)
O3A_2 O 0.1471(6) -0.0278(3) 0.6306(3)
O3_2 O 0.8529(6) 0.0278(3) 0.3694(3)
O4A O 1.3398(6) -0.0905(4) 0.7837(3)
O4A_2 O 0.3398(6) -0.0905(4) 0.7837(3)
O4_2 O 0.6602(6) 0.0905(4) 0.2163(3)
O5A O 0.4041(7) 0.2818(4) 0.3124(3)
H3A H 0.3460 0.2727 0.2344
H4A H 0.3758 0.3533 0.3574
O6A O -0.2616(6) -0.5611(3) 0.5503(3)
O6A_2 O 0.7384(6) 0.4389(3) 0.5503(3)
O7A O 0.3885(6) 0.2214(4) 0.5640(3)
H5A H 0.2844 0.1956 0.6061
H6A H 0.4485 0.3119 0.5911
C8A C 1.0167(11) 0.2554(7) 1.0321(5)
H7A H 0.9722 0.3135 1.0961
O8A O -0.0014(6) -0.3407(3) 0.6001(3)
O8_2 O 1.0014(6) 0.3407(3) 0.3999(3)
O9 O 0.6429(14) -0.4468(7) 0.2536(7)
H8 H 0.6159 -0.4563 0.3248
H9 H 0.5145 -0.4417 0.2099
loop_
_geom_bond_atom_site_label_1
_geom_bond_atom_site_label_2
_geom_bond_site_symmetry_1
_geom_bond_site_symmetry_2
Dy1 O1 1_555 1_555
N1 C4 1_555 1_555
C1 H1 1_555 1_555
C2 C1 1_555 1_555
C3 C2 1_555 1_555
C4 C3 1_555 1_555
H2 C4 1_555 1_555
C5 C3 1_555 1_555
C6 C2 1_555 1_555
C7 O6 1_555 1_555
O1 C6 1_555 1_555
O2 C6 1_555 1_555
O3 C5 1_555 1_555
O4 C5 1_555 1_555
O5 Dy1 1_555 1_555
H3 O5 1_555 1_555
H4 O5 1_555 1_555
O6 Dy1 1_555 1_555
O7 Dy1 1_555 1_555
H5 O7 1_555 1_555
H6 O7 1_555 1_555
C8 N1 1_555 1_555
H7 C8 1_555 1_555
O8 C7 1_555 1_555
O9 H8 1_555 1_555
H9 O9 1_555 1_555
Dy1A O2 1_555 1_555
Dy1A_2 O3 1_555 1_555
Dy1A_3 O8 1_555 1_555
Dy1_2 O3A 1_555 1_555
N1A C4A 1_555 1_555
C1A H1A 1_555 1_555
C2A C1A 1_555 1_555
C3A C2A 1_555 1_555
C4A C3A 1_555 1_555
H2A C4A 1_555 1_555
C5A C3A 1_555 1_555
C6A C2A 1_555 1_555
C7A C7 1_555 1_555
O1A Dy1A 1_555 1_555
O2A Dy1 1_555 1_555
O3A C5A 1_555 1_555
O3A_2 Dy1 1_555 1_555
O3_2 Dy1A 1_555 1_555
O4A Dy1_2 1_555 1_555
O4A_2 Dy1 1_555 1_555
O4_2 Dy1A 1_555 1_555
O5A Dy1A 1_555 1_555
H3A O5A 1_555 1_555
H4A O5A 1_555 1_555
O6A Dy1A_3 1_555 1_555
O6A_2 Dy1A 1_555 1_555
O7A Dy1A 1_555 1_555
H5A O7A 1_555 1_555
H6A O7A 1_555 1_555
C8A N1A 1_555 1_555
H7A C8A 1_555 1_555
O8A Dy1 1_555 1_555
O8_2 Dy1A 1_555 1_555
C1 C8 1_555 1_555
O4 Dy1A_2 1_555 1_555
C1A C8A 1_555 1_555
C5A O4A 1_555 1_555
C6A O1A 1_555 1_555
C6A O2A 1_555 1_555
C7A O6A 1_555 1_555
C7A O8A 1_555 1_555

#END
