
#######################################################################
#
#                 Cambridge Crystallographic Data Centre
#                                CCDC 
#
#######################################################################
#
# If this CIF has been generated from an entry in the Cambridge 
# Structural Database, then it will include bibliographic, chemical, 
# crystal, experimental, refinement or atomic coordinate data resulting 
# from the CCDC's data processing and validation procedures.
#
#######################################################################

data_PAZWET
_symmetry_cell_setting           triclinic
_symmetry_space_group_name_H-M   'P -1'
_symmetry_Int_Tables_number      2
_space_group_name_Hall           '-P 1'
loop_
_symmetry_equiv_pos_site_id
_symmetry_equiv_pos_as_xyz
1 x,y,z
2 -x,-y,-z
_cell_length_a                   6.0811(12)
_cell_length_b                   10.210(2)
_cell_length_c                   11.401(2)
_cell_angle_alpha                106.71(3)
_cell_angle_beta                 101.25(3)
_cell_angle_gamma                105.06(3)
_cell_volume                     626.213
loop_
_atom_site_label
_atom_site_type_symbol
_atom_site_fract_x
_atom_site_fract_y
_atom_site_fract_z
Sm1 Sm 0.14768(7) 0.68489(6) 0.44705(4)
C1 C 0.4039(16) 0.7276(12) 0.9153(9)
H1 H 0.2891 0.7696 0.8972
C2 C 0.4746(13) 0.6514(11) 0.8187(8)
C3 C 0.6508(14) 0.5916(10) 0.8478(8)
C4 C 0.7458(15) 0.6159(12) 0.9783(8)
H2 H 0.8632 0.5769 1.0002
N1 N 0.6787(14) 0.6900(10) 1.0704(7)
C5 C 0.3656(12) 0.6451(10) 0.6839(8)
C6 C 0.7317(14) 0.5024(10) 0.7503(9)
C7 C 0.4310(13) 1.0317(11) 0.5432(9)
C8 C 0.5033(18) 0.7418(15) 1.0392(11)
H3 H 0.4472 0.7889 1.1035
O1 O 0.4572(9) 0.7486(8) 0.6526(6)
O2 O 0.1777(8) 0.5434(7) 0.6125(5)
O3 O 0.6597(9) 0.4927(7) 0.6333(5)
O4 O 0.8713(10) 0.4372(8) 0.7815(6)
O5 O -0.1366(13) 0.7485(9) 0.3211(7)
H4 H -0.2057 0.7055 0.2404
H5 H -0.2225 0.7975 0.3502
O6 O -0.0922(10) 0.7397(8) 0.5857(7)
H6 H 0.0017 0.7966 0.6574
H7 H -0.2018 0.6775 0.5990
O7 O 0.2567(9) 0.9477(7) 0.5542(6)
O8 O 0.5050(10) 1.1704(8) 0.5927(6)
Sm1A Sm -0.14768(7) 0.31511(6) 0.55295(4)
Sm1A_2 Sm 0.85232(7) 0.31511(6) 0.55295(4)
Sm1A_3 Sm 0.85232(7) 1.31511(6) 0.55295(4)
Sm1_2 Sm -0.85232(7) 0.68489(6) 0.44705(4)
C1A C -0.4039(16) 0.2724(12) 0.0847(9)
H1A H -0.2891 0.2304 0.1028
C2A C -0.4746(13) 0.3486(11) 0.1813(8)
C3A C -0.6508(14) 0.4084(10) 0.1522(8)
C4A C -0.7458(15) 0.3841(12) 0.0217(8)
H2A H -0.8632 0.4231 -0.0002
N1A N -0.6787(14) 0.3100(10) -0.0704(7)
C5A C -0.3656(12) 0.3549(10) 0.3161(8)
C6A C -0.7317(14) 0.4976(10) 0.2497(9)
C7A C 0.5690(13) 0.9683(11) 0.4568(9)
C8A C -0.5033(18) 0.2582(15) -0.0392(11)
H3A H -0.4472 0.2111 -0.1035
O1A O -0.4572(9) 0.2514(8) 0.3474(6)
O2A O -0.1777(8) 0.4566(7) 0.3875(5)
O3A O -0.6597(9) 0.5073(7) 0.3667(5)
O3A_2 O 0.3403(9) 0.5073(7) 0.3667(5)
O3_2 O -0.3403(9) 0.4927(7) 0.6333(5)
O4A O -0.8713(10) 0.5628(8) 0.2185(6)
O4A_2 O 0.1287(10) 0.5628(8) 0.2185(6)
O4_2 O -0.1287(10) 0.4372(8) 0.7815(6)
O5A O 0.1366(13) 0.2515(9) 0.6789(7)
H4A H 0.2057 0.2945 0.7596
H5A H 0.2225 0.2025 0.6498
O6A O 0.0922(10) 0.2603(8) 0.4143(7)
H6A H -0.0017 0.2034 0.3426
H7A H 0.2018 0.3225 0.4010
O7A O 0.7433(9) 1.0523(7) 0.4458(6)
O7A_2 O -0.2567(9) 0.0523(7) 0.4458(6)
O8A O 0.4950(10) 0.8296(8) 0.4073(6)
O8_2 O -0.4950(10) 0.1704(8) 0.5927(6)
O9 O -0.114(3) 0.995(2) 0.762(2)
H8 H -0.2666 0.9572 0.7389
H9 H -0.0648 1.0549 0.8327
loop_
_geom_bond_atom_site_label_1
_geom_bond_atom_site_label_2
_geom_bond_site_symmetry_1
_geom_bond_site_symmetry_2
Sm1 O1 1_555 1_555
C1 H1 1_555 1_555
C2 C1 1_555 1_555
C3 C2 1_555 1_555
C4 C3 1_555 1_555
H2 C4 1_555 1_555
N1 C4 1_555 1_555
C5 C2 1_555 1_555
C6 C3 1_555 1_555
C7 O7 1_555 1_555
C8 C1 1_555 1_555
H3 C8 1_555 1_555
O1 C5 1_555 1_555
O2 Sm1 1_555 1_555
O3 C6 1_555 1_555
O4 C6 1_555 1_555
O5 Sm1 1_555 1_555
H4 O5 1_555 1_555
H5 O5 1_555 1_555
O6 Sm1 1_555 1_555
H6 O6 1_555 1_555
H7 O6 1_555 1_555
O7 Sm1 1_555 1_555
O8 C7 1_555 1_555
O9 H8 1_555 1_555
H9 O9 1_555 1_555
Sm1A O2 1_555 1_555
Sm1A_2 O3 1_555 1_555
Sm1A_3 O8 1_555 1_555
Sm1_2 O3A 1_555 1_555
C1A H1A 1_555 1_555
C2A C1A 1_555 1_555
C3A C2A 1_555 1_555
C4A C3A 1_555 1_555
H2A C4A 1_555 1_555
N1A C4A 1_555 1_555
C5A C2A 1_555 1_555
C6A C3A 1_555 1_555
C7A C7 1_555 1_555
C8A C1A 1_555 1_555
H3A C8A 1_555 1_555
O1A Sm1A 1_555 1_555
O2A Sm1 1_555 1_555
O3A C6A 1_555 1_555
O3A_2 Sm1 1_555 1_555
O3_2 Sm1A 1_555 1_555
O4A Sm1_2 1_555 1_555
O4A_2 Sm1 1_555 1_555
O4_2 Sm1A 1_555 1_555
O5A Sm1A 1_555 1_555
H4A O5A 1_555 1_555
H5A O5A 1_555 1_555
O6A Sm1A 1_555 1_555
H6A O6A 1_555 1_555
H7A O6A 1_555 1_555
O7A Sm1A_3 1_555 1_555
O7A_2 Sm1A 1_555 1_555
O8A Sm1 1_555 1_555
O8_2 Sm1A 1_555 1_555
N1 C8 1_555 1_555
C5 O2 1_555 1_555
O4 Sm1A_2 1_555 1_555
Sm1A O2A 1_555 1_555
N1A C8A 1_555 1_555
C5A O1A 1_555 1_555
C5A O2A 1_555 1_555
C6A O4A 1_555 1_555
C7A O7A 1_555 1_555
C7A O8A 1_555 1_555

#END
