
#######################################################################
#
#                 Cambridge Crystallographic Data Centre
#                                CCDC 
#
#######################################################################
#
# If this CIF has been generated from an entry in the Cambridge 
# Structural Database, then it will include bibliographic, chemical, 
# crystal, experimental, refinement or atomic coordinate data resulting 
# from the CCDC's data processing and validation procedures.
#
#######################################################################

data_PAZXUJ01
_symmetry_cell_setting           monoclinic
_symmetry_space_group_name_H-M   'P 21/c'
_symmetry_Int_Tables_number      14
_space_group_name_Hall           '-P 2ybc'
loop_
_symmetry_equiv_pos_site_id
_symmetry_equiv_pos_as_xyz
1 x,y,z
2 -x,1/2+y,1/2-z
3 -x,-y,-z
4 x,1/2-y,1/2+z
_cell_length_a                   9.834(2)
_cell_length_b                   13.753(2)
_cell_length_c                   9.890(2)
_cell_angle_alpha                90
_cell_angle_beta                 126.61(1)
_cell_angle_gamma                90
_cell_volume                     1073.7
loop_
_atom_site_label
_atom_site_type_symbol
_atom_site_fract_x
_atom_site_fract_y
_atom_site_fract_z
Cu1 Cu 0.2234(2) 0.39942(9) 0.9592(2)
S1 S 0.1855(4) 0.2244(2) 0.7129(4)
O1 O 0.183(1) 0.3320(6) 0.747(1)
O2 O 0.317(1) 0.1740(7) 0.862(1)
O3 O 0.216(1) 0.2781(6) 1.080(1)
O4 O 0.022(1) 0.1828(7) 0.646(1)
N1 N 0.279(1) 0.5301(9) 0.862(1)
N2 N 0.480(1) 0.3951(8) 1.095(1)
N3 N -0.027(1) 0.4286(8) 0.838(1)
N4 N 0.226(1) 0.5046(9) 1.132(1)
C1 C 0.181(2) 0.599(1) 0.744(2)
C2 C 0.248(2) 0.671(1) 0.707(2)
C3 C 0.580(1) 0.326(1) 1.212(1)
C4 C 0.444(1) 0.5374(9) 0.935(1)
C5 C -0.152(1) 0.3828(8) 0.694(1)
C6 C -0.319(2) 0.398(1) 0.631(2)
C7 C 0.352(1) 0.546(1) 1.280(2)
C8 C -0.067(1) 0.4796(9) 0.922(1)
H1 H 0.0625 0.5972 0.6872
H2 H 0.1746 0.7183 0.6242
H3 H 0.5325 0.2754 1.2364
H4 H -0.1214 0.3408 0.6384
H5 H -0.4081 0.3688 0.5272
H6 H 0.4660 0.5359 1.3207
O3C O 0.216(1) 0.2219(6) 0.580(1)
S1C S 0.1855(4) 0.2756(2) 1.2129(4)
C4B C 0.556(1) 0.4626(9) 1.065(1)
C8B C 0.067(1) 0.5204(9) 1.078(1)
C3B C 0.420(1) 0.674(1) 0.788(1)
C2B C 0.752(2) 0.329(1) 1.293(2)
N2B N 0.520(1) 0.6049(8) 0.905(1)
C7B C -0.352(1) 0.454(1) 0.720(2)
C6B C 0.319(2) 0.602(1) 1.369(2)
N4B N -0.226(1) 0.4954(9) 0.868(1)
Cu1C Cu 0.2234(2) 0.10058(9) 0.4592(2)
O1C O 0.183(1) 0.1680(6) 1.247(1)
O2C O 0.317(1) 0.3260(7) 1.362(1)
O4C O 0.022(1) 0.3172(7) 1.146(1)
N1B N 0.721(1) 0.4699(9) 1.138(1)
N3B N 0.027(1) 0.5714(8) 1.162(1)
H3B H 0.4675 0.7246 0.7636
C1B C 0.819(2) 0.401(1) 1.256(2)
H2B H 0.8254 0.2817 1.3758
Cu1B Cu 0.7766(2) 0.60058(9) 1.0408(2)
H6B H -0.4660 0.4641 0.6793
C5B C 0.152(1) 0.6172(8) 1.306(1)
H5B H 0.4081 0.6312 1.4728
Cu1B_2 Cu -0.2234(2) 0.60058(9) 1.0408(2)
Cu1C_2 Cu 0.2234(2) 0.10058(9) 1.4592(2)
H1B H 0.9375 0.4028 1.3128
H4B H 0.1214 0.6592 1.3616
O1B O -0.183(1) 0.6680(6) 1.253(1)
O3B O -0.216(1) 0.7219(6) 0.920(1)
N1B_2 N -0.279(1) 0.4699(9) 1.138(1)
N2B_2 N -0.480(1) 0.6049(8) 0.905(1)
O5 O 0.248(1) 0.4379(7) 0.553(1)
H7 H 0.2741 0.4142 0.5060
H8 H 0.2700 0.3973 0.6556
loop_
_geom_bond_atom_site_label_1
_geom_bond_atom_site_label_2
_geom_bond_site_symmetry_1
_geom_bond_site_symmetry_2
Cu1 O1 1_555 1_555
S1 O1 1_555 1_555
O2 S1 1_555 1_555
O3 Cu1 1_555 1_555
O4 S1 1_555 1_555
O5 H7 1_555 1_555
N1 Cu1 1_555 1_555
N2 Cu1 1_555 1_555
N3 Cu1 1_555 1_555
N4 Cu1 1_555 1_555
C1 N1 1_555 1_555
C2 C1 1_555 1_555
C3 N2 1_555 1_555
C4 N1 1_555 1_555
C5 N3 1_555 1_555
C6 C5 1_555 1_555
C7 N4 1_555 1_555
C8 N3 1_555 1_555
H1 C1 1_555 1_555
H2 C2 1_555 1_555
H3 C3 1_555 1_555
H4 C5 1_555 1_555
H5 C6 1_555 1_555
H6 C7 1_555 1_555
H8 O5 1_555 1_555
O3C S1 1_555 1_555
S1C O3 1_555 1_555
C4B N2 1_555 1_555
C8B N4 1_555 1_555
C3B C2 1_555 1_555
C2B C3 1_555 1_555
N2B C4 1_555 1_555
C7B C6 1_555 1_555
C6B C7 1_555 1_555
N4B C8 1_555 1_555
Cu1C O3C 1_555 1_555
O1C S1C 1_555 1_555
O2C S1C 1_555 1_555
O4C S1C 1_555 1_555
N1B C4B 1_555 1_555
N3B C8B 1_555 1_555
H3B C3B 1_555 1_555
C1B C2B 1_555 1_555
H2B C2B 1_555 1_555
Cu1B N2B 1_555 1_555
H6B C7B 1_555 1_555
C5B C6B 1_555 1_555
H5B C6B 1_555 1_555
Cu1B_2 N4B 1_555 1_555
Cu1C_2 O1C 1_555 1_555
H1B C1B 1_555 1_555
H4B C5B 1_555 1_555
O1B Cu1B_2 1_555 1_555
O3B Cu1B_2 1_555 1_555
N1B_2 Cu1B_2 1_555 1_555
N2B_2 Cu1B_2 1_555 1_555
C4 C4B 1_555 1_555
C8 C8B 1_555 1_555
C3B N2B 1_555 1_555
C7B N4B 1_555 1_555
N1B Cu1B 1_555 1_555
N1B C1B 1_555 1_555
N3B Cu1B_2 1_555 1_555
N3B C5B 1_555 1_555

#END
