
#######################################################################
#
#                 Cambridge Crystallographic Data Centre
#                                CCDC 
#
#######################################################################
#
# If this CIF has been generated from an entry in the Cambridge 
# Structural Database, then it will include bibliographic, chemical, 
# crystal, experimental, refinement or atomic coordinate data resulting 
# from the CCDC's data processing and validation procedures.
#
#######################################################################

data_PAZXUK
_symmetry_cell_setting           monoclinic
_symmetry_space_group_name_H-M   'P 2/c'
_symmetry_Int_Tables_number      13
_space_group_name_Hall           '-P 2yc'
loop_
_symmetry_equiv_pos_site_id
_symmetry_equiv_pos_as_xyz
1 x,y,z
2 -x,y,1/2-z
3 -x,-y,-z
4 x,-y,1/2+z
_cell_length_a                   13.091(3)
_cell_length_b                   5.4574(10)
_cell_length_c                   15.884(3)
_cell_angle_alpha                90
_cell_angle_beta                 95.411(13)
_cell_angle_gamma                90
_cell_volume                     1129.74
loop_
_atom_site_label
_atom_site_type_symbol
_atom_site_fract_x
_atom_site_fract_y
_atom_site_fract_z
Zn1 Zn 0.0000 0.2644(2) 0.7500
O1 O 0.0114(5) 0.5447(11) 0.6620(4)
O2 O 0.1369(5) 0.3142(12) 0.6522(4)
O3 O 0.1216(5) 0.6381(11) 0.5767(3)
N1 N -0.1045(4) 0.0571(9) 0.6798(3)
N2 N -0.3409(4) -0.6025(11) 0.5533(3)
N3 N 0.0919(5) 0.4993(13) 0.6293(4)
C1 C -0.1078(6) 0.0650(13) 0.5957(4)
C2 C -0.1726(6) -0.0861(14) 0.5451(4)
C3 C -0.2348(4) -0.2520(14) 0.5806(4)
C4 C -0.2316(5) -0.2555(15) 0.6673(4)
C5 C -0.1676(5) -0.0997(13) 0.7141(4)
C6 C -0.3012(5) -0.4163(14) 0.5264(5)
C7 C -0.3971(5) -0.7636(14) 0.4954(4)
C8 C -0.3757(6) -0.7910(18) 0.4132(5)
C9 C -0.4728(5) -0.9137(13) 0.5270(4)
C10 C -0.4968(6) -0.8934(16) 0.6112(5)
C11 C -0.4300(7) -0.963(2) 0.3613(5)
H1 H -0.061(5) 0.199(15) 0.579(4)
H2 H -0.175(5) -0.079(13) 0.485(4)
H3 H -0.270(5) -0.338(11) 0.697(3)
H4 H -0.166(4) -0.081(11) 0.774(3)
H5 H -0.312(5) -0.383(12) 0.468(4)
H6 H -0.325(5) -0.720(12) 0.394(3)
H7 H -0.466(5) -0.798(12) 0.636(4)
H8 H -0.414(5) -0.976(13) 0.316(4)
Zn1C Zn -1.0000 -2.2644(2) 0.2500
O1A O -0.0114(5) 0.5447(11) 0.8380(4)
O2A O -0.1369(5) 0.3142(12) 0.8478(4)
O3A O -0.1216(5) 0.6381(11) 0.9233(3)
N1B N -0.8955(4) -2.0571(9) 0.3202(3)
N1A N 0.1045(4) 0.0571(9) 0.8202(3)
N2B N -0.6591(4) -1.3975(11) 0.4467(3)
N3A N -0.0919(5) 0.4993(13) 0.8707(4)
C1B C -0.8922(6) -2.0650(13) 0.4043(4)
C2B C -0.8274(6) -1.9139(14) 0.4549(4)
C3B C -0.7652(4) -1.7480(14) 0.4194(4)
C4B C -0.7684(5) -1.7445(15) 0.3327(4)
C5B C -0.8324(5) -1.9003(13) 0.2859(4)
C6B C -0.6988(5) -1.5837(14) 0.4736(5)
C7B C -0.6029(5) -1.2364(14) 0.5046(4)
C8B C -0.6243(6) -1.2090(18) 0.5868(5)
C9B C -0.5272(5) -1.0863(13) 0.4730(4)
C10B C -0.5032(6) -1.1066(16) 0.3888(5)
C11B C -0.5700(7) -1.037(2) 0.6387(5)
H1B H -0.939(5) -2.199(15) 0.421(4)
H2B H -0.825(5) -1.921(13) 0.515(4)
H3B H -0.730(5) -1.662(11) 0.303(3)
H4B H -0.834(4) -1.919(11) 0.226(3)
H5B H -0.688(5) -1.617(12) 0.532(4)
H6B H -0.675(5) -1.280(12) 0.606(3)
H7B H -0.534(5) -1.202(12) 0.364(4)
H8B H -0.586(5) -1.024(13) 0.684(4)
loop_
_geom_bond_atom_site_label_1
_geom_bond_atom_site_label_2
_geom_bond_site_symmetry_1
_geom_bond_site_symmetry_2
Zn1 O1 1_555 1_555
O1 N3 1_555 1_555
O2 Zn1 1_555 1_555
O3 N3 1_555 1_555
N1 Zn1 1_555 1_555
N2 C6 1_555 1_555
N3 O2 1_555 1_555
C1 N1 1_555 1_555
C2 C1 1_555 1_555
C3 C2 1_555 1_555
C4 C3 1_555 1_555
C5 N1 1_555 1_555
C6 C3 1_555 1_555
C7 N2 1_555 1_555
C8 C7 1_555 1_555
C9 C7 1_555 1_555
C10 C9 1_555 1_555
C11 C8 1_555 1_555
H1 C1 1_555 1_555
H2 C2 1_555 1_555
H3 C4 1_555 1_555
H4 C5 1_555 1_555
H5 C6 1_555 1_555
H6 C8 1_555 1_555
H7 C10 1_555 1_555
H8 C11 1_555 1_555
Zn1C N1B 1_555 1_555
O1A Zn1 1_555 1_555
O2A Zn1 1_555 1_555
O3A N3A 1_555 1_555
N1B C1B 1_555 1_555
N1A Zn1 1_555 1_555
N2B C6B 1_555 1_555
N3A O1A 1_555 1_555
C1B C2B 1_555 1_555
C2B C3B 1_555 1_555
C3B C4B 1_555 1_555
C4B C5B 1_555 1_555
C5B N1B 1_555 1_555
C6B C3B 1_555 1_555
C7B N2B 1_555 1_555
C8B C7B 1_555 1_555
C9B C9 1_555 1_555
C10B C11 1_555 1_555
C11B C10 1_555 1_555
H1B C1B 1_555 1_555
H2B C2B 1_555 1_555
H3B C4B 1_555 1_555
H4B C5B 1_555 1_555
H5B C6B 1_555 1_555
H6B C8B 1_555 1_555
H7B C10B 1_555 1_555
H8B C11B 1_555 1_555
C4 C5 1_555 1_555
O2A N3A 1_555 1_555
C7B C9B 1_555 1_555
C8B C11B 1_555 1_555
C9B C10B 1_555 1_555

#END
