
#######################################################################
#
#                 Cambridge Crystallographic Data Centre
#                                CCDC 
#
#######################################################################
#
# If this CIF has been generated from an entry in the Cambridge 
# Structural Database, then it will include bibliographic, chemical, 
# crystal, experimental, refinement or atomic coordinate data resulting 
# from the CCDC's data processing and validation procedures.
#
#######################################################################

data_PAZXOD
_symmetry_cell_setting           triclinic
_symmetry_space_group_name_H-M   'P -1'
_symmetry_Int_Tables_number      2
_space_group_name_Hall           '-P 1'
loop_
_symmetry_equiv_pos_site_id
_symmetry_equiv_pos_as_xyz
1 x,y,z
2 -x,-y,-z
_cell_length_a                   8.199(2)
_cell_length_b                   8.633(3)
_cell_length_c                   10.049(2)
_cell_angle_alpha                114.47(2)
_cell_angle_beta                 92.67(2)
_cell_angle_gamma                90.48(2)
_cell_volume                     646.396
loop_
_atom_site_label
_atom_site_type_symbol
_atom_site_fract_x
_atom_site_fract_y
_atom_site_fract_z
N1 N -0.1211(2) 0.3481(2) -0.1511(2)
C1 C -0.2658(3) 0.2651(3) -0.1748(3)
C2 C -0.3681(3) 0.2964(3) -0.0616(3)
C3 C -0.3180(3) 0.4139(3) 0.0773(3)
N2 N -0.1703(2) 0.4928(2) 0.1017(2)
C4 C -0.0812(2) 0.4565(3) -0.0137(2)
N3 N -0.0688(2) 0.2050(2) -0.4847(2)
C5 C -0.1570(3) 0.2685(3) -0.5652(3)
C6 C -0.2200(3) 0.1645(3) -0.7034(3)
C7 C -0.1904(3) -0.0068(3) -0.7575(3)
N4 N -0.1049(2) -0.0716(2) -0.6766(2)
C8 C -0.0476(2) 0.0360(3) -0.5449(2)
O1 O -0.2321(2) 0.6133(2) 0.3960(2)
O2 O -0.5505(2) 0.6801(3) 0.4075(2)
O3 O -0.3360(3) 0.9285(2) 0.5419(2)
O4 O -0.3917(2) 0.6988(3) 0.6583(2)
O5 O 0.2967(2) 0.3056(3) 0.0759(2)
O6 O 0.0813(2) 0.3988(2) 0.2825(2)
O7 O 0.1581(3) 0.0761(3) 0.1486(3)
Cu1 Cu 0.05249(3) 0.34966(3) -0.29347(2)
Cr1 Cr -0.37848(4) 0.73195(4) 0.49783(4)
Cr2 Cr 0.22588(4) 0.26893(5) 0.20772(4)
H1 H -0.2984(3) 0.1827(3) -0.2715(3)
H2 H -0.4726(3) 0.2384(3) -0.0790(3)
H3 H -0.3879(3) 0.4386(3) 0.1572(3)
H4 H -0.1758(3) 0.3885(3) -0.5254(3)
H5 H -0.2839(3) 0.2099(3) -0.7607(3)
H6 H -0.2304(3) -0.0808(3) -0.8548(3)
C4A C 0.0812(2) 0.5435(3) 0.0137(2)
N1A N 0.1211(2) 0.6519(2) 0.1511(2)
C1A C 0.2658(3) 0.7349(3) 0.1748(3)
C2A C 0.3681(3) 0.7036(3) 0.0616(3)
C3A C 0.3180(3) 0.5861(3) -0.0773(3)
N2A N 0.1703(2) 0.5072(2) -0.1017(2)
H3A H 0.3879(3) 0.5614(3) -0.1572(3)
H2A H 0.4726(3) 0.7616(3) 0.0790(3)
H1A H 0.2984(3) 0.8173(3) 0.2715(3)
C8A C 0.0476(2) -0.0360(3) -0.4551(2)
N3A N 0.0688(2) -0.2050(2) -0.5153(2)
C5A C 0.1570(3) -0.2685(3) -0.4348(3)
C6A C 0.2200(3) -0.1645(3) -0.2966(3)
C7A C 0.1904(3) 0.0068(3) -0.2425(3)
N4A N 0.1049(2) 0.0716(2) -0.3234(2)
H6A H 0.2304(3) 0.0808(3) -0.1452(3)
H5A H 0.2839(3) -0.2099(3) -0.2393(3)
H4A H 0.1758(3) -0.3885(3) -0.4746(3)
Cu1A Cu -0.05249(3) 0.65034(3) 0.29347(2)
O1A O 0.2321(2) 0.3867(2) -0.3960(2)
O6A O -0.0813(2) 0.6012(2) -0.2825(2)
Cu1A_2 Cu -0.05249(3) -0.34966(3) -0.70653(2)
N3A_2 N 0.0688(2) 0.7950(2) 0.4847(2)
N4_2 N -0.1049(2) 0.9284(2) 0.3234(2)
O4A O 0.3917(2) 0.3012(3) 0.3417(2)
Cr2A Cr -0.22588(4) 0.73107(5) 0.79228(4)
Cr1A Cr 0.37848(4) 0.26805(4) 0.50217(4)
O5A O -0.2967(2) 0.6944(3) 0.9241(2)
O6A_2 O -0.0813(2) 0.6012(2) 0.7175(2)
O7A O -0.1581(3) 0.9239(3) 0.8514(3)
O1A_2 O 0.2321(2) 0.3867(2) 0.6040(2)
O2A O 0.5505(2) 0.3199(3) 0.5925(2)
O3A O 0.3360(3) 0.0715(2) 0.4581(2)
Cu1_2 Cu 0.05249(3) 0.34966(3) 0.70653(2)
loop_
_geom_bond_atom_site_label_1
_geom_bond_atom_site_label_2
_geom_bond_site_symmetry_1
_geom_bond_site_symmetry_2
N1 C1 1_555 1_555
C1 C2 1_555 1_555
C2 C3 1_555 1_555
C3 N2 1_555 1_555
N2 C4 1_555 1_555
C4 N1 1_555 1_555
N3 C5 1_555 1_555
C5 C6 1_555 1_555
C6 C7 1_555 1_555
C7 N4 1_555 1_555
N4 C8 1_555 1_555
C8 N3 1_555 1_555
O1 Cr1 1_555 1_555
O2 Cr1 1_555 1_555
O3 Cr1 1_555 1_555
O4 Cr1 1_555 1_555
O5 Cr2 1_555 1_555
O6 Cr2 1_555 1_555
O7 Cr2 1_555 1_555
Cu1 N1 1_555 1_555
Cr2 O4A 1_555 1_555
H1 C1 1_555 1_555
H2 C2 1_555 1_555
H3 C3 1_555 1_555
H4 C5 1_555 1_555
H5 C6 1_555 1_555
H6 C7 1_555 1_555
C4A C4 1_555 1_555
N1A C4A 1_555 1_555
C1A N1A 1_555 1_555
C2A C1A 1_555 1_555
C3A C2A 1_555 1_555
N2A Cu1 1_555 1_555
H3A C3A 1_555 1_555
H2A C2A 1_555 1_555
H1A C1A 1_555 1_555
C8A C8 1_555 1_555
N3A C8A 1_555 1_555
C5A N3A 1_555 1_555
C6A C5A 1_555 1_555
C7A C6A 1_555 1_555
N4A Cu1 1_555 1_555
H6A C7A 1_555 1_555
H5A C6A 1_555 1_555
H4A C5A 1_555 1_555
Cu1A N2 1_555 1_555
O1A Cu1 1_555 1_555
O6A Cu1 1_555 1_555
Cu1A_2 N4 1_555 1_555
N3A_2 Cu1A 1_555 1_555
N4_2 Cu1A 1_555 1_555
O4A Cr1A 1_555 1_555
Cr2A O4 1_555 1_555
Cr1A O1A_2 1_555 1_555
O5A Cr2A 1_555 1_555
O6A_2 Cr2A 1_555 1_555
O7A Cr2A 1_555 1_555
O1A_2 Cu1_2 1_555 1_555
O2A Cr1A 1_555 1_555
O3A Cr1A 1_555 1_555
Cu1_2 O6A_2 1_555 1_555
N3 Cu1 1_555 1_555
O1 Cu1A 1_555 1_555
O6 Cu1A 1_555 1_555
C4A N2A 1_555 1_555
N1A Cu1A 1_555 1_555
C3A N2A 1_555 1_555
C8A N4A 1_555 1_555
N3A Cu1A_2 1_555 1_555
C7A N4A 1_555 1_555

#END
