
#######################################################################
#
#                 Cambridge Crystallographic Data Centre
#                                CCDC 
#
#######################################################################
#
# If this CIF has been generated from an entry in the Cambridge 
# Structural Database, then it will include bibliographic, chemical, 
# crystal, experimental, refinement or atomic coordinate data resulting 
# from the CCDC's data processing and validation procedures.
#
#######################################################################

data_PAZZIA
_symmetry_cell_setting           monoclinic
_symmetry_space_group_name_H-M   'P 21/n'
_symmetry_Int_Tables_number      14
_space_group_name_Hall           '-P 2yn'
loop_
_symmetry_equiv_pos_site_id
_symmetry_equiv_pos_as_xyz
1 x,y,z
2 1/2-x,1/2+y,1/2-z
3 -x,-y,-z
4 1/2+x,1/2-y,1/2+z
_cell_length_a                   17.804(8)
_cell_length_b                   14.864(5)
_cell_length_c                   24.310(10)
_cell_angle_alpha                90
_cell_angle_beta                 111.371(12)
_cell_angle_gamma                90
_cell_volume                     5991.01
loop_
_atom_site_label
_atom_site_type_symbol
_atom_site_fract_x
_atom_site_fract_y
_atom_site_fract_z
Cu1 Cu 0.26906(3) 0.16849(2) 0.53735(2)
Cu2 Cu 0.30222(2) -0.33149(2) 0.48963(2)
N1 N 0.2684(2) 0.1079(2) 0.46341(11)
N2 N 0.2655(2) 0.0601(2) 0.57990(12)
N3 N 0.2942(2) -0.2074(2) 0.48851(12)
N4 N 0.2973(2) 0.5603(2) 0.44465(11)
N5 N 0.2985(2) 0.6083(2) 0.56297(11)
N6 N 0.2783(2) 0.2935(2) 0.53899(13)
C1 C 0.2763(2) -0.0392(2) 0.5041(1)
C2 C 0.2726(2) 0.0225(2) 0.4595(2)
C3 C 0.2719(2) -0.0191(2) 0.5601(1)
C4 C 0.2849(2) -0.1320(3) 0.4943(2)
C5 C 0.2671(2) 0.1659(2) 0.41548(13)
C6 C 0.1948(3) 0.1916(2) 0.3729(2)
C7 C 0.1951(3) 0.2555(3) 0.3314(2)
C8 C 0.2654(3) 0.2930(3) 0.3322(2)
C9 C 0.3362(3) 0.2662(3) 0.3737(2)
C10 C 0.3403(3) 0.2019(3) 0.4170(2)
C11 C 0.1133(2) 0.1532(3) 0.3724(2)
C12 C 0.0641(3) 0.1121(3) 0.3125(2)
C13 C 0.0672(4) 0.2252(3) 0.3904(3)
C14 C 0.4207(3) 0.1723(3) 0.4633(2)
C15 C 0.4553(3) 0.0932(3) 0.4382(3)
C16 C 0.4820(3) 0.2477(3) 0.4852(3)
C17 C 0.2650(3) 0.0656(2) 0.6389(2)
C18 C 0.3388(3) 0.0804(3) 0.6856(2)
C19 C 0.3363(3) 0.0866(3) 0.7422(2)
C20 C 0.2657(3) 0.0780(3) 0.7521(2)
C21 C 0.1932(3) 0.0657(3) 0.7060(2)
C22 C 0.1918(3) 0.0603(3) 0.6488(2)
C23 C 0.4174(3) 0.0935(3) 0.6732(2)
C24 C 0.4739(3) 0.1595(3) 0.7141(2)
C25 C 0.4571(4) 0.0008(4) 0.6772(3)
C26 C 0.1141(3) 0.0473(5) 0.5956(2)
C27 C 0.0634(11) 0.1220(8) 0.5886(9)
C28 C 0.0714(5) -0.0215(6) 0.5972(5)
C29 C 0.2961(2) 0.4606(2) 0.52300(13)
C30 C 0.2944(2) 0.4811(2) 0.46540(13)
C31 C 0.2926(2) 0.5244(2) 0.5675(2)
C32 C 0.2871(2) 0.3670(3) 0.5337(2)
C33 C 0.2765(2) 0.5669(2) 0.3824(1)
C34 C 0.1951(2) 0.5716(3) 0.3450(2)
C35 C 0.1743(2) 0.5777(3) 0.2847(2)
C36 C 0.2338(3) 0.5808(3) 0.2604(2)
C37 C 0.3140(3) 0.5783(3) 0.2967(2)
C38 C 0.3382(2) 0.5738(2) 0.3580(2)
C39 C 0.1306(3) 0.5705(3) 0.3729(2)
C40 C 0.0951(3) 0.4757(4) 0.3708(2)
C41 C 0.0640(3) 0.6394(3) 0.3438(2)
C42 C 0.4257(2) 0.5753(3) 0.3990(2)
C43 C 0.4812(3) 0.6316(3) 0.3756(2)
C44 C 0.4617(3) 0.4819(3) 0.4157(2)
C45 C 0.2832(2) 0.6664(2) 0.6055(1)
C46 C 0.3462(2) 0.7041(2) 0.6523(1)
C47 C 0.3323(3) 0.7662(3) 0.6888(2)
C48 C 0.2538(3) 0.7961(3) 0.6791(2)
C49 C 0.1906(3) 0.7570(3) 0.6328(2)
C50 C 0.2039(3) 0.6931(3) 0.5953(2)
C51 C 0.4341(2) 0.6706(3) 0.6641(2)
C52 C 0.4543(3) 0.5893(3) 0.7062(2)
C53 C 0.4956(3) 0.7444(3) 0.6880(2)
C54 C 0.1323(3) 0.6566(4) 0.5445(2)
C55 C 0.0782(3) 0.5953(4) 0.5678(2)
C56 C 0.0815(3) 0.7281(4) 0.5038(2)
H1 H 0.2749 -0.0019 0.4240
H2 H 0.2721 -0.0687 0.5848
H3 H 0.1455 0.2750 0.3027
H4 H 0.2652 0.3368 0.3037
H5 H 0.3854 0.2918 0.3743
H6 H 0.1252 0.1071 0.4014
H7 H 0.0300 0.1570 0.2882
H8 H 0.0321 0.0648 0.3187
H9 H 0.0985 0.0889 0.2939
H10 H 0.0809 0.2253 0.4320
H11 H 0.0112 0.2133 0.3714
H12 H 0.0793 0.2823 0.3781
H13 H 0.4106 0.1499 0.4965
H14 H 0.4376 0.0366 0.4470
H15 H 0.5123 0.0971 0.4566
H16 H 0.4403 0.0990 0.3966
H17 H 0.5130 0.2505 0.4606
H18 H 0.5166 0.2365 0.5248
H19 H 0.4547 0.3033 0.4832
H20 H 0.3855 0.0955 0.7745
H21 H 0.2666 0.0822 0.7914
H22 H 0.1449 0.0593 0.7138
H23 H 0.4027 0.1146 0.6338
H24 H 0.4627 0.2170 0.6959
H25 H 0.5281 0.1433 0.7206
H26 H 0.4665 0.1615 0.7509
H27 H 0.4936 -0.0090 0.7165
H28 H 0.4861 0.0016 0.6512
H29 H 0.4183 -0.0461 0.6660
H30 H 0.1220 0.0546 0.5593
H31 H 0.0334 0.0922 0.6085
H32 H 0.0285 0.1382 0.5500
H33 H 0.0874 0.1747 0.6099
H34 H 0.0869 -0.0680 0.5767
H35 H 0.0155 -0.0093 0.5779
H36 H 0.0816 -0.0399 0.6366
H37 H 0.2916 0.4314 0.4402
H38 H 0.2851 0.5007 0.6014
H39 H 0.1191 0.5796 0.2596
H40 H 0.2192 0.5835 0.2187
H41 H 0.3539 0.5807 0.2793
H42 H 0.1563 0.5860 0.4134
H43 H 0.0497 0.4697 0.3352
H44 H 0.0790 0.4669 0.4036
H45 H 0.1344 0.4319 0.3717
H46 H 0.0783 0.6953 0.3639
H47 H 0.0147 0.6187 0.3461
H48 H 0.0575 0.6471 0.3035
H49 H 0.4281 0.6038 0.4346
H50 H 0.5018 0.5931 0.3532
H51 H 0.5248 0.6570 0.4074
H52 H 0.4504 0.6783 0.3510
H53 H 0.4544 0.4625 0.4507
H54 H 0.5177 0.4833 0.4223
H55 H 0.4351 0.4415 0.3844
H56 H 0.3759 0.7913 0.7206
H57 H 0.2437 0.8399 0.7040
H58 H 0.1368 0.7756 0.6258
H59 H 0.4368 0.6516 0.6276
H60 H 0.4773 0.6103 0.7458
H61 H 0.4921 0.5522 0.6976
H62 H 0.4071 0.5555 0.7015
H63 H 0.5035 0.7759 0.6565
H64 H 0.5450 0.7179 0.7125
H65 H 0.4775 0.7852 0.7106
H66 H 0.1525 0.6193 0.5213
H67 H 0.0960 0.5346 0.5709
H68 H 0.0240 0.5989 0.5408
H69 H 0.0812 0.6161 0.6055
H70 H 0.0413 0.7486 0.5180
H71 H 0.0564 0.7060 0.4647
H72 H 0.1163 0.7766 0.5039
Cu2_2 Cu 0.30222(2) 0.66851(2) 0.48963(2)
N4_2 N 0.2973(2) -0.4397(2) 0.44465(11)
N5_2 N 0.2985(2) -0.3917(2) 0.56297(11)
Cl1 Cl 0.15789(10) 0.35828(11) 0.64799(9)
Cl2 Cl 0.33063(8) 0.36409(8) 0.70280(6)
C57 C 0.2462(3) 0.2924(3) 0.6725(2)
H73 H 0.2441 0.2507 0.7015
H74 H 0.2505 0.2607 0.6398
Cl3 Cl 0.34697(10) 0.86487(10) 0.35036(8)
Cl4 Cl 0.17512(10) 0.86894(11) 0.31928(9)
C58 C 0.2594(3) 0.7999(3) 0.3351(2)
H75 H 0.2530 0.7617 0.3024
H76 H 0.2649 0.7644 0.3688
loop_
_geom_bond_atom_site_label_1
_geom_bond_atom_site_label_2
_geom_bond_site_symmetry_1
_geom_bond_site_symmetry_2
Cu1 N1 1_555 1_555
Cu2 N3 1_555 1_555
Cl1 C57 1_555 1_555
Cl2 C57 1_555 1_555
Cl3 C58 1_555 1_555
Cl4 C58 1_555 1_555
N1 C2 1_555 1_555
N2 Cu1 1_555 1_555
N3 C4 1_555 1_555
N4 C30 1_555 1_555
N5 C31 1_555 1_555
N6 Cu1 1_555 1_555
C1 C2 1_555 1_555
C2 H1 1_555 1_555
C3 N2 1_555 1_555
C4 C1 1_555 1_555
C5 N1 1_555 1_555
C6 C5 1_555 1_555
C7 C6 1_555 1_555
C8 C7 1_555 1_555
C9 C8 1_555 1_555
C10 C5 1_555 1_555
C11 C6 1_555 1_555
C12 C11 1_555 1_555
C13 C11 1_555 1_555
C14 C10 1_555 1_555
C15 C14 1_555 1_555
C16 C14 1_555 1_555
C17 N2 1_555 1_555
C18 C17 1_555 1_555
C19 C18 1_555 1_555
C20 C19 1_555 1_555
C21 C20 1_555 1_555
C22 C17 1_555 1_555
C23 C18 1_555 1_555
C24 C23 1_555 1_555
C25 C23 1_555 1_555
C26 C22 1_555 1_555
C27 C26 1_555 1_555
C28 C26 1_555 1_555
C29 C30 1_555 1_555
C30 H37 1_555 1_555
C31 C29 1_555 1_555
C32 N6 1_555 1_555
C33 N4 1_555 1_555
C34 C33 1_555 1_555
C35 C34 1_555 1_555
C36 C35 1_555 1_555
C37 C36 1_555 1_555
C38 C33 1_555 1_555
C39 C34 1_555 1_555
C40 C39 1_555 1_555
C41 C39 1_555 1_555
C42 C38 1_555 1_555
C43 C42 1_555 1_555
C44 C42 1_555 1_555
C45 N5 1_555 1_555
C46 C45 1_555 1_555
C47 C46 1_555 1_555
C48 C47 1_555 1_555
C49 C48 1_555 1_555
C50 C45 1_555 1_555
C51 C46 1_555 1_555
C52 C51 1_555 1_555
C53 C51 1_555 1_555
C54 C50 1_555 1_555
C55 C54 1_555 1_555
C56 C54 1_555 1_555
C57 H73 1_555 1_555
C58 H75 1_555 1_555
H2 C3 1_555 1_555
H3 C7 1_555 1_555
H4 C8 1_555 1_555
H5 C9 1_555 1_555
H6 C11 1_555 1_555
H7 C12 1_555 1_555
H8 C12 1_555 1_555
H9 C12 1_555 1_555
H10 C13 1_555 1_555
H11 C13 1_555 1_555
H12 C13 1_555 1_555
H13 C14 1_555 1_555
H14 C15 1_555 1_555
H15 C15 1_555 1_555
H16 C15 1_555 1_555
H17 C16 1_555 1_555
H18 C16 1_555 1_555
H19 C16 1_555 1_555
H20 C19 1_555 1_555
H21 C20 1_555 1_555
H22 C21 1_555 1_555
H23 C23 1_555 1_555
H24 C24 1_555 1_555
H25 C24 1_555 1_555
H26 C24 1_555 1_555
H27 C25 1_555 1_555
H28 C25 1_555 1_555
H29 C25 1_555 1_555
H30 C26 1_555 1_555
H31 C27 1_555 1_555
H32 C27 1_555 1_555
H33 C27 1_555 1_555
H34 C28 1_555 1_555
H35 C28 1_555 1_555
H36 C28 1_555 1_555
H38 C31 1_555 1_555
H39 C35 1_555 1_555
H40 C36 1_555 1_555
H41 C37 1_555 1_555
H42 C39 1_555 1_555
H43 C40 1_555 1_555
H44 C40 1_555 1_555
H45 C40 1_555 1_555
H46 C41 1_555 1_555
H47 C41 1_555 1_555
H48 C41 1_555 1_555
H49 C42 1_555 1_555
H50 C43 1_555 1_555
H51 C43 1_555 1_555
H52 C43 1_555 1_555
H53 C44 1_555 1_555
H54 C44 1_555 1_555
H55 C44 1_555 1_555
H56 C47 1_555 1_555
H57 C48 1_555 1_555
H58 C49 1_555 1_555
H59 C51 1_555 1_555
H60 C52 1_555 1_555
H61 C52 1_555 1_555
H62 C52 1_555 1_555
H63 C53 1_555 1_555
H64 C53 1_555 1_555
H65 C53 1_555 1_555
H66 C54 1_555 1_555
H67 C55 1_555 1_555
H68 C55 1_555 1_555
H69 C55 1_555 1_555
H70 C56 1_555 1_555
H71 C56 1_555 1_555
H72 C56 1_555 1_555
H74 C57 1_555 1_555
H76 C58 1_555 1_555
Cu2_2 N4 1_555 1_555
N4_2 Cu2 1_555 1_555
N5_2 Cu2 1_555 1_555
N5 Cu2_2 1_555 1_555
C1 C3 1_555 1_555
C9 C10 1_555 1_555
C21 C22 1_555 1_555
C29 C32 1_555 1_555
C37 C38 1_555 1_555
C49 C50 1_555 1_555

#END
