
#######################################################################
#
#                 Cambridge Crystallographic Data Centre
#                                CCDC 
#
#######################################################################
#
# If this CIF has been generated from an entry in the Cambridge 
# Structural Database, then it will include bibliographic, chemical, 
# crystal, experimental, refinement or atomic coordinate data resulting 
# from the CCDC's data processing and validation procedures.
#
#######################################################################

data_PAZZEW
_symmetry_cell_setting           monoclinic
_symmetry_space_group_name_H-M   'P 21/n'
_symmetry_Int_Tables_number      14
_space_group_name_Hall           '-P 2yn'
loop_
_symmetry_equiv_pos_site_id
_symmetry_equiv_pos_as_xyz
1 x,y,z
2 1/2-x,1/2+y,1/2-z
3 -x,-y,-z
4 1/2+x,1/2-y,1/2+z
_cell_length_a                   8.836(2)
_cell_length_b                   20.328(5)
_cell_length_c                   11.854(3)
_cell_angle_alpha                90
_cell_angle_beta                 92.331(6)
_cell_angle_gamma                90
_cell_volume                     2127.43
loop_
_atom_site_label
_atom_site_type_symbol
_atom_site_fract_x
_atom_site_fract_y
_atom_site_fract_z
Cu1 Cu -0.11267(5) 0.29895(2) 0.57318(3)
N1 N 0.0268(3) 0.34168(13) 0.6752(2)
N2 N -0.0896(3) 0.20584(13) 0.6316(2)
N3 N 0.2462(3) 0.2033(1) 0.9531(2)
C1 C 0.0786(4) 0.2424(2) 0.7837(2)
C2 C 0.0929(4) 0.3103(2) 0.7594(2)
C3 C -0.0046(4) 0.1944(2) 0.7214(2)
C4 C 0.1686(4) 0.2201(2) 0.8779(2)
C5 C 0.0710(4) 0.4098(2) 0.6617(2)
C6 C 0.2160(4) 0.4254(2) 0.6273(2)
C7 C 0.2496(5) 0.4924(2) 0.6114(3)
C8 C 0.1436(5) 0.5400(2) 0.6289(3)
C9 C 0.0022(5) 0.5241(2) 0.6623(3)
C10 C -0.0390(4) 0.4583(2) 0.6794(2)
C11 C 0.3313(5) 0.3738(2) 0.6002(3)
C12 C 0.2973(5) 0.3402(2) 0.4881(3)
C13 C -0.1935(5) 0.4384(2) 0.7163(3)
C14 C -0.3095(5) 0.4927(2) 0.7267(3)
C15 C -0.1641(4) 0.1519(2) 0.5752(2)
C16 C -0.3193(4) 0.1439(2) 0.5876(2)
C17 C -0.3948(5) 0.0937(2) 0.5270(3)
C18 C -0.3150(5) 0.0528(2) 0.4570(3)
C19 C -0.1631(5) 0.0612(2) 0.4458(3)
C20 C -0.0837(4) 0.1110(2) 0.5025(2)
C21 C -0.4005(4) 0.1890(2) 0.6658(3)
C22 C -0.5722(5) 0.1854(2) 0.6618(3)
C23 C 0.0813(4) 0.1229(2) 0.4806(3)
C24 C 0.1024(5) 0.1761(2) 0.3921(3)
H1 H 0.1561 0.3355 0.8097
H2 H 0.0018 0.1502 0.7471
H3 H 0.3477 0.5045 0.5887
H4 H 0.1682 0.5848 0.6165
H5 H -0.0687 0.5581 0.6757
H6 H 0.4270 0.3948 0.5961
H7 H 0.3361 0.3418 0.6588
H8 H 0.2368 0.3025 0.5011
H9 H 0.3882 0.3272 0.4543
H10 H 0.2429 0.3697 0.4392
H11 H -0.2329 0.4071 0.6634
H12 H -0.1807 0.4183 0.7884
H13 H -0.3038 0.5105 0.8009
H14 H -0.4078 0.4752 0.7114
H15 H -0.2902 0.5265 0.6737
H16 H -0.5006 0.0879 0.5343
H17 H -0.3669 0.0188 0.4164
H18 H -0.1102 0.0327 0.3975
H19 H -0.3651 0.1795 0.7407
H20 H -0.3738 0.2328 0.6471
H21 H -0.6130 0.2152 0.6067
H22 H -0.6094 0.1962 0.7335
H23 H -0.6015 0.1418 0.6421
H24 H 0.1324 0.1358 0.5491
H25 H 0.1245 0.0832 0.4542
H26 H 0.1017 0.1569 0.3190
H27 H 0.1957 0.1983 0.4065
H28 H 0.0212 0.2065 0.3959
Cu1C Cu 0.38733(5) 0.20105(2) 1.07318(3)
N3C N -0.2538(3) 0.2967(1) 0.4531(2)
loop_
_geom_bond_atom_site_label_1
_geom_bond_atom_site_label_2
_geom_bond_site_symmetry_1
_geom_bond_site_symmetry_2
Cu1 N1 1_555 1_555
N1 C2 1_555 1_555
N2 Cu1 1_555 1_555
N3 C4 1_555 1_555
C1 C2 1_555 1_555
C2 H1 1_555 1_555
C3 N2 1_555 1_555
C4 C1 1_555 1_555
C5 N1 1_555 1_555
C6 C5 1_555 1_555
C7 C6 1_555 1_555
C8 C7 1_555 1_555
C9 C8 1_555 1_555
C10 C5 1_555 1_555
C11 C6 1_555 1_555
C12 C11 1_555 1_555
C13 C10 1_555 1_555
C14 C13 1_555 1_555
C15 N2 1_555 1_555
C16 C15 1_555 1_555
C17 C16 1_555 1_555
C18 C17 1_555 1_555
C19 C18 1_555 1_555
C20 C15 1_555 1_555
C21 C16 1_555 1_555
C22 C21 1_555 1_555
C23 C20 1_555 1_555
C24 C23 1_555 1_555
H2 C3 1_555 1_555
H3 C7 1_555 1_555
H4 C8 1_555 1_555
H5 C9 1_555 1_555
H6 C11 1_555 1_555
H7 C11 1_555 1_555
H8 C12 1_555 1_555
H9 C12 1_555 1_555
H10 C12 1_555 1_555
H11 C13 1_555 1_555
H12 C13 1_555 1_555
H13 C14 1_555 1_555
H14 C14 1_555 1_555
H15 C14 1_555 1_555
H16 C17 1_555 1_555
H17 C18 1_555 1_555
H18 C19 1_555 1_555
H19 C21 1_555 1_555
H20 C21 1_555 1_555
H21 C22 1_555 1_555
H22 C22 1_555 1_555
H23 C22 1_555 1_555
H24 C23 1_555 1_555
H25 C23 1_555 1_555
H26 C24 1_555 1_555
H27 C24 1_555 1_555
H28 C24 1_555 1_555
Cu1C N3 1_555 1_555
N3C Cu1 1_555 1_555
C1 C3 1_555 1_555
C9 C10 1_555 1_555
C19 C20 1_555 1_555

#END
