
#######################################################################
#
#                 Cambridge Crystallographic Data Centre
#                                CCDC 
#
#######################################################################
#
# If this CIF has been generated from an entry in the Cambridge 
# Structural Database, then it will include bibliographic, chemical, 
# crystal, experimental, refinement or atomic coordinate data resulting 
# from the CCDC's data processing and validation procedures.
#
#######################################################################

data_PEALCU10
_symmetry_cell_setting           monoclinic
_symmetry_space_group_name_H-M   'P 21'
_symmetry_Int_Tables_number      4
_space_group_name_Hall           'P 2yb'
loop_
_symmetry_equiv_pos_site_id
_symmetry_equiv_pos_as_xyz
1 x,y,z
2 -x,1/2+y,-z
_cell_length_a                   16.710(14)
_cell_length_b                   5.217(9)
_cell_length_c                   9.509(7)
_cell_angle_alpha                90
_cell_angle_beta                 98.40(6)
_cell_angle_gamma                90
_cell_volume                     820.064
loop_
_atom_site_label
_atom_site_type_symbol
_atom_site_fract_x
_atom_site_fract_y
_atom_site_fract_z
Cu1 Cu 0.49070 0.25000 0.25040
C1 C 0.41640 0.36570 -0.01970
C2 C 0.58310 0.10690 0.50150
H1 H 0.71800 0.82800 0.36400
H2 H 0.83900 0.94700 0.25000
H3 H 0.96000 0.67200 0.28900
H4 H 0.96400 0.29800 0.43700
H5 H 0.84500 0.17800 0.55200
C3 C 0.36300 0.15200 0.02480
C4 C 0.63630 0.29720 0.43210
C5 C 0.28680 0.28560 0.06020
C6 C 0.70190 0.42740 0.53630
C7 C 0.21510 0.11600 0.07720
C8 C 0.77440 0.49890 0.46690
C9 C 0.19190 -0.08850 -0.01110
C10 C 0.77280 0.71200 0.38090
C11 C 0.12130 -0.22650 -0.00230
C12 C 0.83980 0.77800 0.31660
C13 C 0.07210 -0.15380 0.09440
C14 C 0.90760 0.62510 0.33840
C15 C 0.09390 0.05010 0.18170
C16 C 0.90990 0.41360 0.42190
C17 C 0.16540 0.18410 0.17500
C18 C 0.84310 0.34830 0.48610
H6 H 0.34600 0.01200 -0.05900
H7 H 0.18300 0.34300 0.24700
H8 H 0.66600 0.19300 0.35500
H9 H 0.56400 0.60300 0.41100
H10 H 0.61500 0.55300 0.27600
H11 H 0.67700 0.60200 0.57700
H12 H 0.72200 0.29600 0.62400
H13 H 0.36200 -0.03400 0.20600
H14 H 0.42800 -0.14300 0.10700
H15 H 0.30300 0.38800 0.16000
H16 H 0.26700 0.42100 -0.02500
H17 H 0.23000 -0.14200 -0.08900
H18 H 0.10500 -0.39000 -0.07100
H19 H 0.01600 -0.25600 0.10200
H20 H 0.05400 0.10600 0.25700
N1 N 0.40650 0.01540 0.14980
N2 N 0.58040 0.47110 0.34280
O1 O 0.47040 0.45550 0.07800
O2 O 0.51730 0.03950 0.42140
O3 O 0.40280 0.44820 -0.14230
O4 O 0.60570 0.01900 0.62060
O3A O 0.59720 -0.05180 0.14230
O4A O 0.39430 0.51900 0.37940
Cu1A Cu 0.50930 0.75000 -0.25040
Cu1A_2 Cu 0.50930 -0.25000 0.74960
loop_
_geom_bond_atom_site_label_1
_geom_bond_atom_site_label_2
_geom_bond_site_symmetry_1
_geom_bond_site_symmetry_2
Cu1 N1 1_555 1_555
C1 C3 1_555 1_555
C2 C4 1_555 1_555
H1 C10 1_555 1_555
H2 C12 1_555 1_555
H3 C14 1_555 1_555
H4 C16 1_555 1_555
H5 C18 1_555 1_555
C3 C5 1_555 1_555
C4 C6 1_555 1_555
C5 C7 1_555 1_555
C6 C8 1_555 1_555
C7 C9 1_555 1_555
C8 C10 1_555 1_555
C9 C11 1_555 1_555
C10 C12 1_555 1_555
C11 C13 1_555 1_555
C12 C14 1_555 1_555
C13 C15 1_555 1_555
C14 C16 1_555 1_555
C15 C17 1_555 1_555
C16 C18 1_555 1_555
C17 C7 1_555 1_555
C18 C8 1_555 1_555
H6 C3 1_555 1_555
H7 C17 1_555 1_555
H8 C4 1_555 1_555
H9 N2 1_555 1_555
H10 N2 1_555 1_555
H11 C6 1_555 1_555
H12 C6 1_555 1_555
H13 N1 1_555 1_555
H14 N1 1_555 1_555
H15 C5 1_555 1_555
H16 C5 1_555 1_555
H17 C9 1_555 1_555
H18 C11 1_555 1_555
H19 C13 1_555 1_555
H20 C15 1_555 1_555
N1 C3 1_555 1_555
N2 Cu1 1_555 1_555
O1 Cu1 1_555 1_555
O2 Cu1 1_555 1_555
O3 C1 1_555 1_555
O4 C2 1_555 1_555
O3A Cu1 1_555 1_555
O4A Cu1 1_555 1_555
Cu1A O3 1_555 1_555
Cu1A_2 O4 1_555 1_555
C1 O1 1_555 1_555
C2 O2 1_555 1_555
C4 N2 1_555 1_555

#END
