
#######################################################################
#
#                 Cambridge Crystallographic Data Centre
#                                CCDC 
#
#######################################################################
#
# If this CIF has been generated from an entry in the Cambridge 
# Structural Database, then it will include bibliographic, chemical, 
# crystal, experimental, refinement or atomic coordinate data resulting 
# from the CCDC's data processing and validation procedures.
#
#######################################################################

data_PEBCEE
_symmetry_cell_setting           orthorhombic
_symmetry_space_group_name_H-M   'P 21 21 21'
_symmetry_Int_Tables_number      19
_space_group_name_Hall           'P 2ac 2ab'
loop_
_symmetry_equiv_pos_site_id
_symmetry_equiv_pos_as_xyz
1 x,y,z
2 1/2+x,1/2-y,-z
3 -x,1/2+y,1/2-z
4 1/2-x,-y,1/2+z
_cell_length_a                   11.095(2)
_cell_length_b                   16.413(2)
_cell_length_c                   8.263(1)
_cell_angle_alpha                90
_cell_angle_beta                 90
_cell_angle_gamma                90
_cell_volume                     1504.71
loop_
_atom_site_label
_atom_site_type_symbol
_atom_site_fract_x
_atom_site_fract_y
_atom_site_fract_z
Zn1 Zn 0.4020(2) 0.0169(1) 0.5796(2)
Zn2 Zn 0.0968(2) 0.0198(1) 0.5915(2)
Zn3 Zn 0.2810(2) -0.2880(1) 0.7241(2)
P1 P 0.2456(4) -0.0944(2) 0.8022(5)
P2 P 0.5415(4) -0.1175(3) 0.3865(6)
P3 P 0.4813(4) 0.1260(3) 0.8809(6)
O1 O 0.251(1) -0.0240(6) 0.674(1)
O2 O 0.517(1) -0.0676(9) 0.533(2)
O3 O 0.487(1) 0.0879(8) 0.716(2)
O4 O 0.129(1) -0.0839(8) 0.894(2)
O5 O 0.354(1) -0.0892(7) 0.913(2)
O6 O 0.514(1) -0.0753(9) 0.233(2)
O7 O 0.504(1) 0.0681(9) 1.018(2)
O8 O 0.246(1) -0.1741(6) 0.707(1)
O9 O 0.5673(9) 0.1986(7) 0.887(2)
O10 O 0.671(1) -0.1432(8) 0.399(2)
O11 O 0.461(1) -0.1946(8) 0.386(2)
O12 O 0.350(1) 0.1604(8) 0.904(2)
N1 N 0.261(1) -0.3261(7) 0.962(1)
N2 N 0.213(1) -0.3721(9) 1.247(2)
C1 C 0.256(2) -0.416(1) 0.971(2)
C2 C 0.356(2) -0.297(1) 1.080(2)
C3 C 0.142(1) -0.293(1) 1.018(2)
C4 C 0.247(2) -0.443(1) 1.148(2)
C5 C 0.312(2) -0.316(1) 1.249(2)
C6 C 0.107(2) -0.331(1) 1.174(2)
H1 H 0.195(1) -0.3905(9) 1.360(2)
H2 H 0.450(1) -0.2360(8) 0.473(2)
H3 H 0.315(1) 0.1652(8) 1.015(2)
H4 H 0.331(2) -0.438(1) 0.923(2)
H5 H 0.186(2) -0.436(1) 0.909(2)
H6 H 0.432(2) -0.327(1) 1.059(2)
H7 H 0.370(2) -0.238(1) 1.065(2)
H8 H 0.149(1) -0.233(1) 1.031(2)
H9 H 0.080(1) -0.305(1) 0.936(2)
H10 H 0.325(2) -0.465(1) 1.185(2)
H11 H 0.184(2) -0.485(1) 1.158(2)
H12 H 0.379(2) -0.339(1) 1.313(2)
H13 H 0.285(2) -0.264(1) 1.299(2)
H14 H 0.079(2) -0.288(1) 1.249(2)
H15 H 0.042(2) -0.371(1) 1.156(2)
O4C O 0.371(1) 0.0839(8) 0.394(2)
O5C O 0.146(1) 0.0892(7) 0.413(2)
O6C O -0.014(1) 0.0753(9) 0.733(2)
O7C O -0.004(1) -0.0681(9) 0.518(2)
O9B O 0.4327(9) -0.3014(7) 0.613(2)
O10A O 0.171(1) -0.3568(8) 0.601(2)
Zn1C Zn 0.0980(2) -0.0169(1) 1.0796(2)
Zn2C Zn 0.4032(2) -0.0198(1) 1.0915(2)
Zn2C_2 Zn 0.4032(2) -0.0198(1) 0.0915(2)
Zn3B Zn 0.7190(2) 0.2120(1) 0.7759(2)
Zn3A Zn 0.7810(2) -0.2120(1) 0.2759(2)
loop_
_geom_bond_atom_site_label_1
_geom_bond_atom_site_label_2
_geom_bond_site_symmetry_1
_geom_bond_site_symmetry_2
Zn1 O1 1_555 1_555
Zn2 O1 1_555 1_555
Zn3 O8 1_555 1_555
P1 O1 1_555 1_555
P2 O2 1_555 1_555
P3 O3 1_555 1_555
O2 Zn1 1_555 1_555
O3 Zn1 1_555 1_555
O4 P1 1_555 1_555
O5 P1 1_555 1_555
O6 P2 1_555 1_555
O7 P3 1_555 1_555
O8 P1 1_555 1_555
O9 P3 1_555 1_555
O10 P2 1_555 1_555
O11 P2 1_555 1_555
O12 P3 1_555 1_555
N1 Zn3 1_555 1_555
N2 C4 1_555 1_555
C1 N1 1_555 1_555
C2 N1 1_555 1_555
C3 N1 1_555 1_555
C4 C1 1_555 1_555
C5 N2 1_555 1_555
C6 N2 1_555 1_555
H1 N2 1_555 1_555
H2 O11 1_555 1_555
H3 O12 1_555 1_555
H4 C1 1_555 1_555
H5 C1 1_555 1_555
H6 C2 1_555 1_555
H7 C2 1_555 1_555
H8 C3 1_555 1_555
H9 C3 1_555 1_555
H10 C4 1_555 1_555
H11 C4 1_555 1_555
H12 C5 1_555 1_555
H13 C5 1_555 1_555
H14 C6 1_555 1_555
H15 C6 1_555 1_555
O4C Zn1 1_555 1_555
O5C Zn2 1_555 1_555
O6C Zn2 1_555 1_555
O7C Zn2 1_555 1_555
O9B Zn3 1_555 1_555
O10A Zn3 1_555 1_555
Zn1C O4 1_555 1_555
Zn2C O5 1_555 1_555
Zn2C_2 O6 1_555 1_555
Zn3B O9 1_555 1_555
Zn3A O10 1_555 1_555
O7 Zn2C 1_555 1_555
C2 C5 1_555 1_555
C3 C6 1_555 1_555

#END
