
#######################################################################
#
#                 Cambridge Crystallographic Data Centre
#                                CCDC 
#
#######################################################################
#
# If this CIF has been generated from an entry in the Cambridge 
# Structural Database, then it will include bibliographic, chemical, 
# crystal, experimental, refinement or atomic coordinate data resulting 
# from the CCDC's data processing and validation procedures.
#
#######################################################################

data_PEBDUX
_symmetry_cell_setting           triclinic
_symmetry_space_group_name_H-M   'P -1'
_symmetry_Int_Tables_number      2
_space_group_name_Hall           '-P 1'
loop_
_symmetry_equiv_pos_site_id
_symmetry_equiv_pos_as_xyz
1 x,y,z
2 -x,-y,-z
_cell_length_a                   12.1064(3)
_cell_length_b                   16.7048(4)
_cell_length_c                   21.6865(5)
_cell_angle_alpha                99.685(2)
_cell_angle_beta                 96.337(2)
_cell_angle_gamma                106.968(2)
_cell_volume                     4075.48
loop_
_atom_site_label
_atom_site_type_symbol
_atom_site_fract_x
_atom_site_fract_y
_atom_site_fract_z
Eu1 Eu 0.317339(14) 0.742819(10) 0.056354(8)
Eu2 Eu 0.710007(15) 0.751587(10) 0.456606(8)
P1 P 0.32193(7) 0.95945(5) 0.02326(4)
P2 P 0.16131(7) 0.51732(5) 0.06919(4)
P3 P 0.48477(8) 0.86109(5) 0.22215(4)
P4 P 0.57837(8) 0.64574(5) 0.28327(4)
O2 O 0.7986(6) 0.8713(4) 0.4179(3)
P5 P 0.8747(2) 0.95598(19) 0.40877(15)
C2 C 0.7980(6) 1.0329(4) 0.4161(3)
C3 C 0.8034(9) 1.0902(6) 0.3764(5)
H5 H 0.8482 1.0890 0.3431
C4 C 0.7430(8) 1.1498(6) 0.3851(4)
H6 H 0.7466 1.1888 0.3576
C5 C 0.6776(7) 1.1523(5) 0.4341(4)
H7 H 0.6392 1.1943 0.4412
C6 C 0.6695(6) 1.0936(5) 0.4715(3)
H8 H 0.6238 1.0938 0.5043
C7 C 0.7278(6) 1.0335(5) 0.4618(4)
H9 H 0.7191 0.9919 0.4874
C8 C 0.9218(5) 0.9458(4) 0.3330(3)
C9 C 0.8802(8) 0.8656(5) 0.2919(4)
H10 H 0.8280 0.8187 0.3041
C10 C 0.9151(8) 0.8543(5) 0.2330(4)
H11 H 0.8873 0.7997 0.2051
C11 C 0.9902(8) 0.9226(6) 0.2153(4)
H12 H 1.0133 0.9150 0.1748
C12 C 1.0316(7) 1.0009(6) 0.2553(4)
H13 H 1.0826 1.0475 0.2421
C13 C 1.0005(6) 1.0138(5) 0.3152(4)
H14 H 1.0324 1.0681 0.3434
C14 C 1.0095(4) 0.9942(3) 0.4656(2)
H15 H 1.0536 0.9531 0.4582
H16 H 1.0579 1.0497 0.4584
P6 P 0.67848(8) 0.52530(5) 0.47805(4)
O3 O 0.31656(19) 0.87551(14) 0.04065(11)
O4 O 0.23189(19) 0.61056(13) 0.08284(11)
O5 O 0.4102(2) 0.81215(14) 0.15955(11)
O6 O 0.6360(2) 0.68378(15) 0.35075(11)
O7 O 0.7046(2) 0.61537(14) 0.46884(11)
N1 N 0.5675(3) 0.76320(17) 0.07397(14)
O8 O 0.4938(2) 0.69695(14) 0.08399(11)
O9 O 0.5252(2) 0.80856(15) 0.04324(12)
O10 O 0.6727(2) 0.78233(16) 0.09249(13)
N2 N 0.0843(2) 0.75375(17) 0.06740(14)
O11 O 0.1631(2) 0.77667(15) 0.11501(12)
O12 O 0.1053(2) 0.71608(14) 0.01563(12)
O13 O -0.0085(2) 0.77018(19) 0.06851(14)
N3 N 0.3167(2) 0.67221(19) -0.07436(15)
O14 O 0.3104(3) 0.62720(18) -0.03617(14)
O15 O 0.3097(3) 0.7442(2) -0.06126(14)
O16 O 0.3349(3) 0.6446(2) -0.13117(14)
N4 N 0.9578(3) 0.76405(19) 0.46717(17)
O17 O 0.8882(2) 0.72850(16) 0.41609(12)
O18 O 0.9126(2) 0.79010(17) 0.51444(13)
O19 O 1.0614(3) 0.7740(2) 0.47211(18)
N5 N 0.6965(3) 0.8223(2) 0.58802(16)
O20 O 0.6940(3) 0.74513(18) 0.57115(13)
O21 O 0.7108(3) 0.86700(17) 0.54633(13)
O22 O 0.6813(4) 0.8501(2) 0.64088(15)
N6 N 0.4696(3) 0.7511(2) 0.4330(2)
O23 O 0.5490(3) 0.81140(17) 0.41799(14)
O24 O 0.4964(2) 0.70743(19) 0.46297(12)
O25 O 0.3649(3) 0.7428(2) 0.41102(18)
C15 C 0.3392(3) 1.0395(2) 0.09338(16)
C16 C 0.3908(3) 1.1265(2) 0.09617(18)
H17 H 0.4225 1.1452 0.0610
C17 C 0.3957(4) 1.1855(2) 0.15016(19)
H18 H 0.4301 1.2449 0.1519
C18 C 0.3506(4) 1.1583(3) 0.20195(19)
H19 H 0.3533 1.1991 0.2388
C19 C 0.3017(3) 1.0717(3) 0.19987(18)
H20 H 0.2722 1.0532 0.2356
C20 C 0.2955(3) 1.0119(2) 0.14559(16)
H21 H 0.2617 0.9525 0.1441
C21 C 0.1891(3) 0.9522(2) -0.02650(16)
C22 C 0.1604(4) 1.0252(3) -0.03342(19)
H22 H 0.2135 1.0802 -0.0136
C23 C 0.0552(5) 1.0179(4) -0.0689(2)
H23 H 0.0359 1.0682 -0.0731
C24 C -0.0208(4) 0.9405(4) -0.0980(2)
H24 H -0.0933 0.9365 -0.1222
C25 C 0.0066(4) 0.8666(4) -0.0926(2)
H25 H -0.0463 0.8121 -0.1137
C26 C 0.1121(3) 0.8727(3) -0.05618(19)
H26 H 0.1309 0.8223 -0.0518
C27 C 0.4401(3) 0.9943(2) -0.01976(16)
H27 H 0.4275 0.9515 -0.0596
H28 H 0.4403 1.0493 -0.0311
C28 C 0.0898(3) 0.4925(2) 0.13545(16)
C29 C 0.1369(3) 0.5456(2) 0.19429(17)
H29 H 0.2015 0.5961 0.1987
C30 C 0.0890(4) 0.5245(3) 0.24740(18)
H30 H 0.1210 0.5609 0.2880
C31 C -0.0045(3) 0.4512(3) 0.24126(19)
H31 H -0.0360 0.4371 0.2777
C32 C -0.0524(4) 0.3982(3) 0.18264(19)
H32 H -0.1174 0.3482 0.1785
C33 C -0.0052(3) 0.4183(2) 0.12949(17)
H33 H -0.0375 0.3816 0.0890
C34 C 0.2514(3) 0.4490(2) 0.05789(15)
C35 C 0.3712(3) 0.4851(2) 0.05997(15)
H34 H 0.4047 0.5452 0.0648
C36 C 0.4415(3) 0.4328(2) 0.05501(16)
H35 H 0.5235 0.4572 0.0570
C37 C 0.3924(3) 0.3453(2) 0.04723(17)
H36 H 0.4410 0.3097 0.0447
C38 C 0.2723(3) 0.3089(2) 0.04317(17)
H37 H 0.2385 0.2485 0.0365
C39 C 0.2026(3) 0.3606(2) 0.04882(17)
H38 H 0.1206 0.3358 0.0465
C40 C 0.0519(3) 0.4832(2) -0.00209(15)
H39 H 0.0901 0.5019 -0.0376
H40 H 0.0219 0.4198 -0.0124
C41 C 0.5890(3) 0.9619(2) 0.21611(17)
C42 C 0.5614(4) 1.0369(2) 0.2280(2)
H41 H 0.4906 1.0370 0.2430
C43 C 0.6370(4) 1.1127(3) 0.2181(2)
H42 H 0.6169 1.1640 0.2260
C44 C 0.7394(4) 1.1139(3) 0.1972(2)
H43 H 0.7906 1.1656 0.1904
C45 C 0.7680(4) 1.0398(3) 0.1862(2)
H44 H 0.8404 1.0409 0.1728
C46 C 0.6927(4) 0.9635(2) 0.19412(19)
H45 H 0.7122 0.9122 0.1845
C47 C 0.3956(3) 0.8822(2) 0.27895(17)
C48 C 0.2770(4) 0.8389(3) 0.2653(2)
H46 H 0.2445 0.7987 0.2263
C49 C 0.2054(4) 0.8538(4) 0.3080(2)
H47 H 0.1243 0.8220 0.2999
C50 C 0.2530(5) 0.9155(5) 0.3627(3)
H48 H 0.2033 0.9276 0.3914
C51 C 0.3711(5) 0.9601(4) 0.3768(2)
H49 H 0.4023 1.0021 0.4150
C52 C 0.4436(4) 0.9437(3) 0.3353(2)
H50 H 0.5253 0.9737 0.3447
C53 C 0.5724(3) 0.8007(2) 0.25298(16)
H51 H 0.6342 0.7989 0.2270
H52 H 0.6110 0.8296 0.2971
C54 C 0.6863(3) 0.6357(2) 0.23407(17)
C55 C 0.6622(3) 0.6211(2) 0.16792(17)
H53 H 0.5867 0.6166 0.1471
C56 C 0.7483(4) 0.6131(3) 0.13277(19)
H54 H 0.7313 0.6027 0.0878
C57 C 0.8581(4) 0.6200(3) 0.1618(2)
H55 H 0.9165 0.6143 0.1371
C58 C 0.8839(3) 0.6353(2) 0.22788(19)
H56 H 0.9598 0.6400 0.2482
C59 C 0.7986(3) 0.6437(2) 0.26378(18)
H57 H 0.8165 0.6551 0.3088
C60 C 0.4688(3) 0.5435(2) 0.27490(16)
C61 C 0.3948(3) 0.5339(2) 0.31976(17)
H58 H 0.4067 0.5796 0.3550
C62 C 0.3045(3) 0.4587(2) 0.31363(18)
H59 H 0.2549 0.4524 0.3447
C63 C 0.2863(3) 0.3919(2) 0.26160(18)
H60 H 0.2241 0.3400 0.2570
C64 C 0.3587(4) 0.4016(2) 0.2170(2)
H61 H 0.3458 0.3563 0.1814
C65 C 0.4503(3) 0.4768(2) 0.22341(17)
H62 H 0.5004 0.4825 0.1925
C66 C 0.4963(3) 0.7092(2) 0.25201(17)
H63 H 0.4584 0.6806 0.2078
H64 H 0.4336 0.7116 0.2773
C67 C 0.7990(3) 0.5095(2) 0.52461(15)
C68 C 0.9044(3) 0.5765(3) 0.54527(17)
H65 H 0.9120 0.6316 0.5367
C69 C 0.9984(3) 0.5606(3) 0.57875(19)
H66 H 1.0706 0.6055 0.5932
C70 C 0.9878(4) 0.4818(3) 0.59082(18)
H67 H 1.0531 0.4722 0.6132
C71 C 0.8835(4) 0.4151(3) 0.57100(18)
H68 H 0.8768 0.3603 0.5801
C72 C 0.7897(3) 0.4293(2) 0.53799(17)
H69 H 0.7179 0.3840 0.5242
C73 C 0.6488(3) 0.4512(2) 0.40298(16)
C74 C 0.7000(3) 0.4835(2) 0.35363(16)
H70 H 0.7426 0.5426 0.3598
C75 C 0.6884(3) 0.4290(2) 0.29604(17)
H71 H 0.7231 0.4505 0.2625
C76 C 0.6258(4) 0.3428(2) 0.28741(18)
H72 H 0.6187 0.3053 0.2480
C77 C 0.5735(4) 0.3110(2) 0.33566(19)
H73 H 0.5298 0.2520 0.3290
C78 C 0.5849(3) 0.3648(2) 0.39347(17)
H74 H 0.5493 0.3429 0.4266
C79 C 0.5555(3) 0.4961(2) 0.51816(16)
H75 H 0.5407 0.4363 0.5234
H76 H 0.5742 0.5335 0.5610
Eu1A Eu -0.317339(14) 0.257181(10) -0.056354(8)
Eu1A_2 Eu 0.682661(14) 1.257181(10) -0.056354(8)
Eu2A Eu -0.710007(15) 0.248413(10) -0.456606(8)
Eu2A_2 Eu 0.289993(15) 0.248413(10) 0.543394(8)
Eu2A_3 Eu 1.289993(15) 1.248413(10) 0.543394(8)
P1A P 0.67807(7) 1.04055(5) -0.02326(4)
P2A P -0.16131(7) 0.48268(5) -0.06919(4)
P3A P -0.48477(8) 0.13891(5) -0.22215(4)
P4A P -0.57837(8) 0.35426(5) -0.28327(4)
O2A O 1.2014(6) 1.1287(4) 0.5821(3)
O2A_2 O -0.7986(6) 0.1287(4) -0.4179(3)
P5A P 1.1253(2) 1.04402(19) 0.59123(15)
C2A C 1.2020(6) 0.9671(4) 0.5839(3)
C3A C 1.1966(9) 0.9098(6) 0.6236(5)
H5A H 1.1518 0.9110 0.6569
C4A C 1.2570(8) 0.8502(6) 0.6149(4)
H6A H 1.2534 0.8112 0.6424
C5A C 1.3224(7) 0.8477(5) 0.5659(4)
H7A H 1.3608 0.8057 0.5588
C6A C 1.3305(6) 0.9064(5) 0.5285(3)
H8A H 1.3762 0.9062 0.4957
C7A C 1.2722(6) 0.9665(5) 0.5382(4)
H9A H 1.2809 1.0081 0.5126
C8A C 1.0782(5) 1.0542(4) 0.6670(3)
C9A C 1.1198(8) 1.1344(5) 0.7081(4)
H10A H 1.1720 1.1813 0.6959
C10A C 1.0849(8) 1.1457(5) 0.7670(4)
H11A H 1.1127 1.2003 0.7949
C11A C 1.0098(8) 1.0774(6) 0.7847(4)
H12A H 0.9867 1.0850 0.8252
C12A C 0.9684(7) 0.9991(6) 0.7447(4)
H13A H 0.9174 0.9525 0.7579
C13A C 0.9995(6) 0.9862(5) 0.6848(4)
H14A H 0.9676 0.9319 0.6566
C14A C 0.9905(4) 1.0058(3) 0.5344(2)
H15A H 0.9464 1.0469 0.5418
H16A H 0.9421 0.9503 0.5416
P6A P 0.32152(8) 0.47470(5) 0.52195(4)
O3A O 0.68344(19) 1.12449(14) -0.04065(11)
O3A_2 O -0.31656(19) 0.12449(14) -0.04065(11)
O4A O -0.23189(19) 0.38944(13) -0.08284(11)
O5A O -0.4102(2) 0.18785(14) -0.15955(11)
O6A O -0.6360(2) 0.31622(15) -0.35075(11)
O7A O 0.2954(2) 0.38463(14) 0.53116(11)
O7A_2 O -0.7046(2) 0.38463(14) -0.46884(11)
N1A N -0.5675(3) 0.23680(17) -0.07397(14)
O8A O -0.4938(2) 0.30305(14) -0.08399(11)
O9A O -0.5252(2) 0.19144(15) -0.04324(12)
O10A O -0.6727(2) 0.21767(16) -0.09249(13)
N2A N -0.0843(2) 0.24625(17) -0.06740(14)
O11A O -0.1631(2) 0.22333(15) -0.11501(12)
O12A O -0.1053(2) 0.28392(14) -0.01563(12)
O13A O 0.0085(2) 0.22982(19) -0.06851(14)
N3A N -0.3167(2) 0.32779(19) 0.07436(15)
O14A O -0.3104(3) 0.37280(18) 0.03617(14)
O15A O -0.3097(3) 0.2558(2) 0.06126(14)
O16A O -0.3349(3) 0.3554(2) 0.13117(14)
N4A N -0.9578(3) 0.23595(19) -0.46717(17)
O17A O -0.8882(2) 0.27150(16) -0.41609(12)
O18A O -0.9126(2) 0.20990(17) -0.51444(13)
O19A O -1.0614(3) 0.2260(2) -0.47211(18)
N5A N -0.6965(3) 0.1777(2) -0.58802(16)
O20A O -0.6940(3) 0.25487(18) -0.57115(13)
O21A O -0.7108(3) 0.13300(17) -0.54633(13)
O22A O -0.6813(4) 0.1499(2) -0.64088(15)
N6A N -0.4696(3) 0.2489(2) -0.4330(2)
O23A O -0.5490(3) 0.18860(17) -0.41799(14)
O24A O -0.4964(2) 0.29257(19) -0.46297(12)
O25A O -0.3649(3) 0.2572(2) -0.41102(18)
C15A C 0.6608(3) 0.9605(2) -0.09338(16)
C16A C 0.6092(3) 0.8735(2) -0.09617(18)
H17A H 0.5775 0.8548 -0.0610
C17A C 0.6043(4) 0.8145(2) -0.15016(19)
H18A H 0.5699 0.7551 -0.1519
C18A C 0.6494(4) 0.8417(3) -0.20195(19)
H19A H 0.6467 0.8009 -0.2388
C19A C 0.6983(3) 0.9283(3) -0.19987(18)
H20A H 0.7278 0.9468 -0.2356
C20A C 0.7045(3) 0.9881(2) -0.14559(16)
H21A H 0.7383 1.0475 -0.1441
C21A C 0.8109(3) 1.0478(2) 0.02650(16)
C22A C 0.8396(4) 0.9748(3) 0.03342(19)
H22A H 0.7865 0.9198 0.0136
C23A C 0.9448(5) 0.9821(4) 0.0689(2)
H23A H 0.9641 0.9318 0.0731
C24A C 1.0208(4) 1.0595(4) 0.0980(2)
H24A H 1.0933 1.0635 0.1222
C25A C 0.9934(4) 1.1334(4) 0.0926(2)
H25A H 1.0463 1.1879 0.1137
C26A C 0.8879(3) 1.1273(3) 0.05618(19)
H26A H 0.8691 1.1777 0.0518
C27A C 0.5599(3) 1.0057(2) 0.01976(16)
H27A H 0.5725 1.0485 0.0596
H28A H 0.5597 0.9507 0.0311
C28A C -0.0898(3) 0.5075(2) -0.13545(16)
C29A C -0.1369(3) 0.4544(2) -0.19429(17)
H29A H -0.2015 0.4039 -0.1987
C30A C -0.0890(4) 0.4755(3) -0.24740(18)
H30A H -0.1210 0.4391 -0.2880
C31A C 0.0045(3) 0.5488(3) -0.24126(19)
H31A H 0.0360 0.5629 -0.2777
C32A C 0.0524(4) 0.6018(3) -0.18264(19)
H32A H 0.1174 0.6518 -0.1785
C33A C 0.0052(3) 0.5817(2) -0.12949(17)
H33A H 0.0375 0.6184 -0.0890
C34A C -0.2514(3) 0.5510(2) -0.05789(15)
C35A C -0.3712(3) 0.5149(2) -0.05997(15)
H34A H -0.4047 0.4548 -0.0648
C36A C -0.4415(3) 0.5672(2) -0.05501(16)
H35A H -0.5235 0.5428 -0.0570
C37A C -0.3924(3) 0.6547(2) -0.04723(17)
H36A H -0.4410 0.6903 -0.0447
C38A C -0.2723(3) 0.6911(2) -0.04317(17)
H37A H -0.2385 0.7515 -0.0365
C39A C -0.2026(3) 0.6394(2) -0.04882(17)
H38A H -0.1206 0.6642 -0.0465
C40A C -0.0519(3) 0.5168(2) 0.00209(15)
H39A H -0.0901 0.4981 0.0376
H40A H -0.0219 0.5802 0.0124
C41A C -0.5890(3) 0.0381(2) -0.21611(17)
C42A C -0.5614(4) -0.0369(2) -0.2280(2)
H41A H -0.4906 -0.0370 -0.2430
C43A C -0.6370(4) -0.1127(3) -0.2181(2)
H42A H -0.6169 -0.1640 -0.2260
C44A C -0.7394(4) -0.1139(3) -0.1972(2)
H43A H -0.7906 -0.1656 -0.1904
C45A C -0.7680(4) -0.0398(3) -0.1862(2)
H44A H -0.8404 -0.0409 -0.1728
C46A C -0.6927(4) 0.0365(2) -0.19412(19)
H45A H -0.7122 0.0878 -0.1845
C47A C -0.3956(3) 0.1178(2) -0.27895(17)
C48A C -0.2770(4) 0.1611(3) -0.2653(2)
H46A H -0.2445 0.2013 -0.2263
C49A C -0.2054(4) 0.1462(4) -0.3080(2)
H47A H -0.1243 0.1780 -0.2999
C50A C -0.2530(5) 0.0845(5) -0.3627(3)
H48A H -0.2033 0.0724 -0.3914
C51A C -0.3711(5) 0.0399(4) -0.3768(2)
H49A H -0.4023 -0.0021 -0.4150
C52A C -0.4436(4) 0.0563(3) -0.3353(2)
H50A H -0.5253 0.0263 -0.3447
C53A C -0.5724(3) 0.1993(2) -0.25298(16)
H51A H -0.6342 0.2011 -0.2270
H52A H -0.6110 0.1704 -0.2971
C54A C -0.6863(3) 0.3643(2) -0.23407(17)
C55A C -0.6622(3) 0.3789(2) -0.16792(17)
H53A H -0.5867 0.3834 -0.1471
C56A C -0.7483(4) 0.3869(3) -0.13277(19)
H54A H -0.7313 0.3973 -0.0878
C57A C -0.8581(4) 0.3800(3) -0.1618(2)
H55A H -0.9165 0.3857 -0.1371
C58A C -0.8839(3) 0.3647(2) -0.22788(19)
H56A H -0.9598 0.3600 -0.2482
C59A C -0.7986(3) 0.3563(2) -0.26378(18)
H57A H -0.8165 0.3449 -0.3088
C60A C -0.4688(3) 0.4565(2) -0.27490(16)
C61A C -0.3948(3) 0.4661(2) -0.31976(17)
H58A H -0.4067 0.4204 -0.3550
C62A C -0.3045(3) 0.5413(2) -0.31363(18)
H59A H -0.2549 0.5476 -0.3447
C63A C -0.2863(3) 0.6081(2) -0.26160(18)
H60A H -0.2241 0.6600 -0.2570
C64A C -0.3587(4) 0.5984(2) -0.2170(2)
H61A H -0.3458 0.6437 -0.1814
C65A C -0.4503(3) 0.5232(2) -0.22341(17)
H62A H -0.5004 0.5175 -0.1925
C66A C -0.4963(3) 0.2908(2) -0.25201(17)
H63A H -0.4584 0.3194 -0.2078
H64A H -0.4336 0.2884 -0.2773
C67A C 0.2010(3) 0.4905(2) 0.47539(15)
C68A C 0.0956(3) 0.4235(3) 0.45473(17)
H65A H 0.0880 0.3684 0.4633
C69A C 0.0016(3) 0.4394(3) 0.42125(19)
H66A H -0.0706 0.3945 0.4068
C70A C 0.0122(4) 0.5182(3) 0.40918(18)
H67A H -0.0531 0.5278 0.3868
C71A C 0.1165(4) 0.5849(3) 0.42900(18)
H68A H 0.1232 0.6397 0.4199
C72A C 0.2103(3) 0.5707(2) 0.46201(17)
H69A H 0.2821 0.6160 0.4758
C73A C 0.3512(3) 0.5488(2) 0.59702(16)
C74A C 0.3000(3) 0.5165(2) 0.64637(16)
H70A H 0.2574 0.4574 0.6402
C75A C 0.3116(3) 0.5710(2) 0.70396(17)
H71A H 0.2769 0.5495 0.7375
C76A C 0.3742(4) 0.6572(2) 0.71259(18)
H72A H 0.3813 0.6947 0.7520
C77A C 0.4265(4) 0.6890(2) 0.66434(19)
H73A H 0.4702 0.7480 0.6710
C78A C 0.4151(3) 0.6352(2) 0.60653(17)
H74A H 0.4507 0.6571 0.5734
C79A C 0.4445(3) 0.5039(2) 0.48184(16)
H75A H 0.4593 0.5637 0.4766
H76A H 0.4258 0.4665 0.4390
C1 C 0.0401(7) 0.2500(4) 0.3198(4)
H1 H 0.0207 0.2369 0.3604
H2 H -0.0293 0.2236 0.2867
H3 H 0.0660 0.3122 0.3234
O1 O 0.1338(6) 0.2164(3) 0.3032(4)
H4 H 0.1890 0.2558 0.2959
C80? C 0.756(2) 1.0358(12) 0.4198(11)
C81? C 0.9124(17) 0.9632(12) 0.3553(9)
C82? C 0.9604(16) 1.0232(10) 0.4922(9)
C83? C 0.772(3) 1.0981(18) 0.3835(14)
C84? C 0.881(2) 0.8862(14) 0.3116(11)
C85? C 0.706(3) 1.1541(17) 0.3952(16)
C86? C 0.924(2) 0.8787(13) 0.2555(11)
C87? C 0.631(3) 1.1485(15) 0.4379(14)
C88? C 1.0070(19) 0.9479(14) 0.2410(12)
C89? C 0.617(3) 1.0866(15) 0.4715(12)
C90? C 1.0381(19) 1.0245(13) 0.2836(12)
C91? C 0.682(3) 1.0310(16) 0.4631(12)
C92? C 0.991(2) 1.0334(12) 0.3391(11)
H77? H 1.0068 1.0786 0.4840
H78? H 0.9239 1.0359 0.5298
H79? H 0.8235 1.1024 0.3532
H80? H 0.8270 0.8371 0.3206
H81? H 0.7145 1.1983 0.3720
H82? H 0.8977 0.8253 0.2260
H83? H 0.5890 1.1882 0.4440
H84? H 1.0401 0.9421 0.2034
H85? H 0.5639 1.0812 0.5006
H86? H 1.0934 1.0730 0.2750
H87? H 0.6746 0.9887 0.4880
H88? H 1.0123 1.0882 0.3666
O26? O 0.779(2) 0.8818(9) 0.4309(11)
P7? P 0.8447(11) 0.9696(5) 0.4247(5)
loop_
_geom_bond_atom_site_label_1
_geom_bond_atom_site_label_2
_geom_bond_site_symmetry_1
_geom_bond_site_symmetry_2
C1 H1 1_555 1_555
H2 C1 1_555 1_555
H3 C1 1_555 1_555
O1 C1 1_555 1_555
H4 O1 1_555 1_555
Eu1 O3 1_555 1_555
Eu2 O2 1_555 1_555
P1 O3 1_555 1_555
P2 O4 1_555 1_555
P3 O5 1_555 1_555
P4 O6 1_555 1_555
O2 P5 1_555 1_555
P5 C2 1_555 1_555
C2 C3 1_555 1_555
C3 H5 1_555 1_555
C4 C3 1_555 1_555
H6 C4 1_555 1_555
C5 C4 1_555 1_555
H7 C5 1_555 1_555
C6 C5 1_555 1_555
H8 C6 1_555 1_555
C7 C2 1_555 1_555
H9 C7 1_555 1_555
C8 P5 1_555 1_555
C9 C8 1_555 1_555
H10 C9 1_555 1_555
C10 C9 1_555 1_555
H11 C10 1_555 1_555
C11 C10 1_555 1_555
H12 C11 1_555 1_555
C12 C11 1_555 1_555
H13 C12 1_555 1_555
C13 C8 1_555 1_555
H14 C13 1_555 1_555
C14 P5 1_555 1_555
H15 C14 1_555 1_555
H16 C14 1_555 1_555
P6 O7 1_555 1_555
O4 Eu1 1_555 1_555
O5 Eu1 1_555 1_555
O6 Eu2 1_555 1_555
O7 Eu2 1_555 1_555
N1 O8 1_555 1_555
O8 Eu1 1_555 1_555
O9 Eu1 1_555 1_555
O10 N1 1_555 1_555
N2 O11 1_555 1_555
O11 Eu1 1_555 1_555
O12 Eu1 1_555 1_555
O13 N2 1_555 1_555
N3 O14 1_555 1_555
O14 Eu1 1_555 1_555
O15 Eu1 1_555 1_555
O16 N3 1_555 1_555
N4 O17 1_555 1_555
O17 Eu2 1_555 1_555
O18 Eu2 1_555 1_555
O19 N4 1_555 1_555
N5 O20 1_555 1_555
O20 Eu2 1_555 1_555
O21 Eu2 1_555 1_555
O22 N5 1_555 1_555
N6 O23 1_555 1_555
O23 Eu2 1_555 1_555
O24 Eu2 1_555 1_555
O25 N6 1_555 1_555
C15 P1 1_555 1_555
C16 C15 1_555 1_555
H17 C16 1_555 1_555
C17 C16 1_555 1_555
H18 C17 1_555 1_555
C18 C17 1_555 1_555
H19 C18 1_555 1_555
C19 C18 1_555 1_555
H20 C19 1_555 1_555
C20 C15 1_555 1_555
H21 C20 1_555 1_555
C21 P1 1_555 1_555
C22 C21 1_555 1_555
H22 C22 1_555 1_555
C23 C22 1_555 1_555
H23 C23 1_555 1_555
C24 C23 1_555 1_555
H24 C24 1_555 1_555
C25 C24 1_555 1_555
H25 C25 1_555 1_555
C26 C21 1_555 1_555
H26 C26 1_555 1_555
C27 P1 1_555 1_555
H27 C27 1_555 1_555
H28 C27 1_555 1_555
C28 P2 1_555 1_555
C29 C28 1_555 1_555
H29 C29 1_555 1_555
C30 C29 1_555 1_555
H30 C30 1_555 1_555
C31 C30 1_555 1_555
H31 C31 1_555 1_555
C32 C31 1_555 1_555
H32 C32 1_555 1_555
C33 C28 1_555 1_555
H33 C33 1_555 1_555
C34 P2 1_555 1_555
C35 C34 1_555 1_555
H34 C35 1_555 1_555
C36 C35 1_555 1_555
H35 C36 1_555 1_555
C37 C36 1_555 1_555
H36 C37 1_555 1_555
C38 C37 1_555 1_555
H37 C38 1_555 1_555
C39 C34 1_555 1_555
H38 C39 1_555 1_555
C40 P2 1_555 1_555
H39 C40 1_555 1_555
H40 C40 1_555 1_555
C41 P3 1_555 1_555
C42 C41 1_555 1_555
H41 C42 1_555 1_555
C43 C42 1_555 1_555
H42 C43 1_555 1_555
C44 C43 1_555 1_555
H43 C44 1_555 1_555
C45 C44 1_555 1_555
H44 C45 1_555 1_555
C46 C41 1_555 1_555
H45 C46 1_555 1_555
C47 P3 1_555 1_555
C48 C47 1_555 1_555
H46 C48 1_555 1_555
C49 C48 1_555 1_555
H47 C49 1_555 1_555
C50 C49 1_555 1_555
H48 C50 1_555 1_555
C51 C50 1_555 1_555
H49 C51 1_555 1_555
C52 C47 1_555 1_555
H50 C52 1_555 1_555
C53 P3 1_555 1_555
H51 C53 1_555 1_555
H52 C53 1_555 1_555
C54 P4 1_555 1_555
C55 C54 1_555 1_555
H53 C55 1_555 1_555
C56 C55 1_555 1_555
H54 C56 1_555 1_555
C57 C56 1_555 1_555
H55 C57 1_555 1_555
C58 C57 1_555 1_555
H56 C58 1_555 1_555
C59 C54 1_555 1_555
H57 C59 1_555 1_555
C60 P4 1_555 1_555
C61 C60 1_555 1_555
H58 C61 1_555 1_555
C62 C61 1_555 1_555
H59 C62 1_555 1_555
C63 C62 1_555 1_555
H60 C63 1_555 1_555
C64 C63 1_555 1_555
H61 C64 1_555 1_555
C65 C60 1_555 1_555
H62 C65 1_555 1_555
C66 P4 1_555 1_555
H63 C66 1_555 1_555
H64 C66 1_555 1_555
C67 P6 1_555 1_555
C68 C67 1_555 1_555
H65 C68 1_555 1_555
C69 C68 1_555 1_555
H66 C69 1_555 1_555
C70 C69 1_555 1_555
H67 C70 1_555 1_555
C71 C70 1_555 1_555
H68 C71 1_555 1_555
C72 C67 1_555 1_555
H69 C72 1_555 1_555
C73 P6 1_555 1_555
C74 C73 1_555 1_555
H70 C74 1_555 1_555
C75 C74 1_555 1_555
H71 C75 1_555 1_555
C76 C75 1_555 1_555
H72 C76 1_555 1_555
C77 C76 1_555 1_555
H73 C77 1_555 1_555
C78 C73 1_555 1_555
H74 C78 1_555 1_555
C79 P6 1_555 1_555
H75 C79 1_555 1_555
H76 C79 1_555 1_555
Eu1A O3A_2 1_555 1_555
Eu1A_2 O3A 1_555 1_555
Eu2A O2A_2 1_555 1_555
Eu2A_2 O7A 1_555 1_555
Eu2A_3 O2A 1_555 1_555
P1A O3A 1_555 1_555
P2A O4A 1_555 1_555
P3A O5A 1_555 1_555
P4A O6A 1_555 1_555
O2A P5A 1_555 1_555
P5A C2A 1_555 1_555
C2A C3A 1_555 1_555
C3A H5A 1_555 1_555
C4A C3A 1_555 1_555
H6A C4A 1_555 1_555
C5A C4A 1_555 1_555
H7A C5A 1_555 1_555
C6A C5A 1_555 1_555
H8A C6A 1_555 1_555
C7A C2A 1_555 1_555
H9A C7A 1_555 1_555
C8A P5A 1_555 1_555
C9A C8A 1_555 1_555
H10A C9A 1_555 1_555
C10A C9A 1_555 1_555
H11A C10A 1_555 1_555
C11A C10A 1_555 1_555
H12A C11A 1_555 1_555
C12A C11A 1_555 1_555
H13A C12A 1_555 1_555
C13A C8A 1_555 1_555
H14A C13A 1_555 1_555
C14A C14 1_555 1_555
H15A C14A 1_555 1_555
H16A C14A 1_555 1_555
P6A O7A 1_555 1_555
O4A Eu1A 1_555 1_555
O5A Eu1A 1_555 1_555
O6A Eu2A 1_555 1_555
O7A_2 Eu2A 1_555 1_555
N1A O8A 1_555 1_555
O8A Eu1A 1_555 1_555
O9A Eu1A 1_555 1_555
O10A N1A 1_555 1_555
N2A O11A 1_555 1_555
O11A Eu1A 1_555 1_555
O12A Eu1A 1_555 1_555
O13A N2A 1_555 1_555
N3A O14A 1_555 1_555
O14A Eu1A 1_555 1_555
O15A Eu1A 1_555 1_555
O16A N3A 1_555 1_555
N4A O17A 1_555 1_555
O17A Eu2A 1_555 1_555
O18A Eu2A 1_555 1_555
O19A N4A 1_555 1_555
N5A O20A 1_555 1_555
O20A Eu2A 1_555 1_555
O21A Eu2A 1_555 1_555
O22A N5A 1_555 1_555
N6A O23A 1_555 1_555
O23A Eu2A 1_555 1_555
O24A Eu2A 1_555 1_555
O25A N6A 1_555 1_555
C15A P1A 1_555 1_555
C16A C15A 1_555 1_555
H17A C16A 1_555 1_555
C17A C16A 1_555 1_555
H18A C17A 1_555 1_555
C18A C17A 1_555 1_555
H19A C18A 1_555 1_555
C19A C18A 1_555 1_555
H20A C19A 1_555 1_555
C20A C15A 1_555 1_555
H21A C20A 1_555 1_555
C21A P1A 1_555 1_555
C22A C21A 1_555 1_555
H22A C22A 1_555 1_555
C23A C22A 1_555 1_555
H23A C23A 1_555 1_555
C24A C23A 1_555 1_555
H24A C24A 1_555 1_555
C25A C24A 1_555 1_555
H25A C25A 1_555 1_555
C26A C21A 1_555 1_555
H26A C26A 1_555 1_555
C27A C27 1_555 1_555
H27A C27A 1_555 1_555
H28A C27A 1_555 1_555
C28A P2A 1_555 1_555
C29A C28A 1_555 1_555
H29A C29A 1_555 1_555
C30A C29A 1_555 1_555
H30A C30A 1_555 1_555
C31A C30A 1_555 1_555
H31A C31A 1_555 1_555
C32A C31A 1_555 1_555
H32A C32A 1_555 1_555
C33A C28A 1_555 1_555
H33A C33A 1_555 1_555
C34A P2A 1_555 1_555
C35A C34A 1_555 1_555
H34A C35A 1_555 1_555
C36A C35A 1_555 1_555
H35A C36A 1_555 1_555
C37A C36A 1_555 1_555
H36A C37A 1_555 1_555
C38A C37A 1_555 1_555
H37A C38A 1_555 1_555
C39A C34A 1_555 1_555
H38A C39A 1_555 1_555
C40A C40 1_555 1_555
H39A C40A 1_555 1_555
H40A C40A 1_555 1_555
C41A P3A 1_555 1_555
C42A C41A 1_555 1_555
H41A C42A 1_555 1_555
C43A C42A 1_555 1_555
H42A C43A 1_555 1_555
C44A C43A 1_555 1_555
H43A C44A 1_555 1_555
C45A C44A 1_555 1_555
H44A C45A 1_555 1_555
C46A C41A 1_555 1_555
H45A C46A 1_555 1_555
C47A P3A 1_555 1_555
C48A C47A 1_555 1_555
H46A C48A 1_555 1_555
C49A C48A 1_555 1_555
H47A C49A 1_555 1_555
C50A C49A 1_555 1_555
H48A C50A 1_555 1_555
C51A C50A 1_555 1_555
H49A C51A 1_555 1_555
C52A C47A 1_555 1_555
H50A C52A 1_555 1_555
C53A P3A 1_555 1_555
H51A C53A 1_555 1_555
H52A C53A 1_555 1_555
C54A P4A 1_555 1_555
C55A C54A 1_555 1_555
H53A C55A 1_555 1_555
C56A C55A 1_555 1_555
H54A C56A 1_555 1_555
C57A C56A 1_555 1_555
H55A C57A 1_555 1_555
C58A C57A 1_555 1_555
H56A C58A 1_555 1_555
C59A C54A 1_555 1_555
H57A C59A 1_555 1_555
C60A P4A 1_555 1_555
C61A C60A 1_555 1_555
H58A C61A 1_555 1_555
C62A C61A 1_555 1_555
H59A C62A 1_555 1_555
C63A C62A 1_555 1_555
H60A C63A 1_555 1_555
C64A C63A 1_555 1_555
H61A C64A 1_555 1_555
C65A C60A 1_555 1_555
H62A C65A 1_555 1_555
C66A P4A 1_555 1_555
H63A C66A 1_555 1_555
H64A C66A 1_555 1_555
C67A P6A 1_555 1_555
C68A C67A 1_555 1_555
H65A C68A 1_555 1_555
C69A C68A 1_555 1_555
H66A C69A 1_555 1_555
C70A C69A 1_555 1_555
H67A C70A 1_555 1_555
C71A C70A 1_555 1_555
H68A C71A 1_555 1_555
C72A C67A 1_555 1_555
H69A C72A 1_555 1_555
C73A P6A 1_555 1_555
C74A C73A 1_555 1_555
H70A C74A 1_555 1_555
C75A C74A 1_555 1_555
H71A C75A 1_555 1_555
C76A C75A 1_555 1_555
H72A C76A 1_555 1_555
C77A C76A 1_555 1_555
H73A C77A 1_555 1_555
C78A C73A 1_555 1_555
H74A C78A 1_555 1_555
C79A C79 1_555 1_555
H75A C79A 1_555 1_555
H76A C79A 1_555 1_555
C6 C7 1_555 1_555
C12 C13 1_555 1_555
N1 O9 1_555 1_555
N2 O12 1_555 1_555
N3 O15 1_555 1_555
N4 O18 1_555 1_555
N5 O21 1_555 1_555
N6 O24 1_555 1_555
C19 C20 1_555 1_555
C25 C26 1_555 1_555
C32 C33 1_555 1_555
C38 C39 1_555 1_555
C45 C46 1_555 1_555
C51 C52 1_555 1_555
C53 C66 1_555 1_555
C58 C59 1_555 1_555
C64 C65 1_555 1_555
C71 C72 1_555 1_555
C77 C78 1_555 1_555
P1A C27A 1_555 1_555
P2A C40A 1_555 1_555
P5A C14A 1_555 1_555
C6A C7A 1_555 1_555
C12A C13A 1_555 1_555
P6A C79A 1_555 1_555
N1A O9A 1_555 1_555
N2A O12A 1_555 1_555
N3A O15A 1_555 1_555
N4A O18A 1_555 1_555
N5A O21A 1_555 1_555
N6A O24A 1_555 1_555
C19A C20A 1_555 1_555
C25A C26A 1_555 1_555
C32A C33A 1_555 1_555
C38A C39A 1_555 1_555
C45A C46A 1_555 1_555
C51A C52A 1_555 1_555
C53A C66A 1_555 1_555
C58A C59A 1_555 1_555
C64A C65A 1_555 1_555
C71A C72A 1_555 1_555
C77A C78A 1_555 1_555

#END
