
#######################################################################
#
#                 Cambridge Crystallographic Data Centre
#                                CCDC 
#
#######################################################################
#
# If this CIF has been generated from an entry in the Cambridge 
# Structural Database, then it will include bibliographic, chemical, 
# crystal, experimental, refinement or atomic coordinate data resulting 
# from the CCDC's data processing and validation procedures.
#
#######################################################################

data_PEBFEI
_symmetry_cell_setting           trigonal
_symmetry_space_group_name_H-M   'P 3 c 1'
_symmetry_Int_Tables_number      158
_space_group_name_Hall           'P 3 -2"c'
loop_
_symmetry_equiv_pos_site_id
_symmetry_equiv_pos_as_xyz
1 x,y,z
2 -y,x-y,z
3 -x+y,-x,z
4 -y,-x,1/2+z
5 -x+y,y,1/2+z
6 x,x-y,1/2+z
_cell_length_a                   14.110(2)
_cell_length_b                   14.110(2)
_cell_length_c                   16.758(3)
_cell_angle_alpha                90
_cell_angle_beta                 90
_cell_angle_gamma                120
_cell_volume                     2889.39
loop_
_atom_site_label
_atom_site_type_symbol
_atom_site_fract_x
_atom_site_fract_y
_atom_site_fract_z
Co1 Co 0.0000 1.0000 0.06275(10)
Co2 Co 0.6667 1.3333 0.70119(12)
N1 N 0.5256(7) 1.3152(9) 0.6436(6)
N2 N 0.4031(7) 1.2797(9) 0.5494(6)
N3 N 0.2564(11) 1.2029(11) 0.2173(7)
N4 N 0.1409(9) 1.1151(10) 0.1132(6)
C1 C 0.4970(14) 1.2840(13) 0.5701(7)
H1 H 0.5376(14) 1.2665(13) 0.5356(7)
C2 C 0.3599(10) 1.3079(9) 0.6140(8)
C3 C 0.2698(11) 1.3151(12) 0.6175(7)
H2 H 0.2168(11) 1.2945(12) 0.5780(7)
C4 C 0.2701(17) 1.3633(20) 0.6986(10)
H3 H 0.2197(17) 1.3865(20) 0.7073(10)
C5 C 0.3411(13) 1.3754(15) 0.7612(9)
H4 H 0.3279(13) 1.3927(15) 0.8120(9)
C6 C 0.4230(13) 1.3630(12) 0.7500(8)
H5 H 0.4684(13) 1.3724(12) 0.7931(8)
C7 C 0.4477(9) 1.3366(11) 0.6780(7)
C8 C 0.3507(11) 1.2423(10) 0.4669(6)
H6 H 0.2724(11) 1.1937(10) 0.4723(6)
H7 H 0.3814(11) 1.2029(10) 0.4399(6)
C9 C 0.3740(10) 1.3461(7) 0.4172(6)
H8 H 0.3573(10) 1.3932(7) 0.4492(6)
H9 H 0.4509(10) 1.3870(7) 0.4029(6)
C10 C 0.3021(15) 1.3108(18) 0.3396(11)
H10 H 0.2264(15) 1.2835(18) 0.3545(11)
H11 H 0.3247(15) 1.3750(18) 0.3064(11)
C11 C 0.3085(15) 1.2277(13) 0.2927(10)
H12 H 0.3852(15) 1.2511(13) 0.2846(10)
H13 H 0.2770(15) 1.1609(13) 0.3239(10)
C12 C 0.1696(9) 1.1127(10) 0.1915(7)
H14 H 0.1306(9) 1.0518(10) 0.2240(7)
C13 C 0.2911(10) 1.2716(13) 0.1506(9)
C14 C 0.3812(13) 1.3795(17) 0.1324(11)
H15 H 0.4227(13) 1.4201(17) 0.1758(11)
C15 C 0.4099(13) 1.4242(17) 0.0678(14)
H16 H 0.4772(13) 1.4874(17) 0.0606(14)
C16 C 0.3407(16) 1.3784(17) 0.0088(13)
H17 H 0.3563(16) 1.4163(17) -0.0392(13)
C17 C 0.2370(11) 1.2678(9) 0.0134(8)
H18 H 0.1868(11) 1.2353(9) -0.0278(8)
C18 C 0.2276(11) 1.2200(11) 0.0925(8)
S1 S 0.6667 1.3333 0.8607(5)
O1 O 0.5894(16) 1.2323(14) 0.8054(11)
O2 O 0.7194(19) 1.3017(22) 0.9231(12)
O3 O 0.7155(22) 1.4299(16) 0.8062(14)
O4 O 0.5694(11) 1.3398(12) 0.9077(8)
S2 S 0.0000 1.0000 -0.0992(3)
O5 O 0.0971(10) 1.0048(14) -0.0419(8)
O6 O -0.0377(20) 0.8923(13) -0.1425(14)
O7 O 0.0692(16) 1.0950(14) -0.1560(11)
O8 O -0.0677(15) 1.0144(20) -0.0400(10)
N1A N 0.6848(9) 1.2104(11) 0.6436(6)
N1B N 0.7896(11) 1.4744(7) 0.6436(6)
N4A N -0.1151(10) 1.0258(13) 0.1132(6)
N4B N -0.0258(13) 0.8591(9) 0.1132(6)
O1A O 0.7677(14) 1.3571(21) 0.8054(11)
O1B O 0.6429(21) 1.4106(16) 0.8054(11)
O2A O 0.6983(22) 1.4177(29) 0.9231(12)
O2B O 0.5823(29) 1.2806(19) 0.9231(12)
O3A O 0.5701(16) 1.2856(27) 0.8062(14)
O3B O 0.7144(27) 1.2845(22) 0.8062(14)
O4A O 0.6602(12) 1.2296(16) 0.9077(8)
O4B O 0.7704(16) 1.4306(11) 0.9077(8)
O5A O -0.0048(14) 1.0923(17) -0.0419(8)
O5B O -0.0923(17) 0.9029(10) -0.0419(8)
O6A O 0.1077(13) 1.0700(24) -0.1425(14)
O6B O -0.0700(24) 1.0377(20) -0.1425(14)
O7A O -0.0950(14) 0.9742(21) -0.1560(11)
O7B O 0.0258(21) 0.9308(16) -0.1560(11)
O8A O -0.0144(20) 0.9179(25) -0.0400(10)
O8B O 0.0821(25) 1.0677(15) -0.0400(10)
loop_
_geom_bond_atom_site_label_1
_geom_bond_atom_site_label_2
_geom_bond_site_symmetry_1
_geom_bond_site_symmetry_2
Co1 N4 1_555 1_555
Co2 N1 1_555 1_555
N1 C1 1_555 1_555
N2 C1 1_555 1_555
N3 C11 1_555 1_555
N4 C12 1_555 1_555
C1 H1 1_555 1_555
C2 N2 1_555 1_555
C3 C2 1_555 1_555
H2 C3 1_555 1_555
C4 C3 1_555 1_555
H3 C4 1_555 1_555
C5 C4 1_555 1_555
H4 C5 1_555 1_555
C6 C5 1_555 1_555
H5 C6 1_555 1_555
C7 N1 1_555 1_555
C8 N2 1_555 1_555
H6 C8 1_555 1_555
H7 C8 1_555 1_555
C9 C8 1_555 1_555
H8 C9 1_555 1_555
H9 C9 1_555 1_555
C10 C9 1_555 1_555
H10 C10 1_555 1_555
H11 C10 1_555 1_555
C11 C10 1_555 1_555
H12 C11 1_555 1_555
H13 C11 1_555 1_555
C12 N3 1_555 1_555
H14 C12 1_555 1_555
C13 N3 1_555 1_555
C14 C13 1_555 1_555
H15 C14 1_555 1_555
C15 C14 1_555 1_555
H16 C15 1_555 1_555
C16 C15 1_555 1_555
H17 C16 1_555 1_555
C17 C16 1_555 1_555
H18 C17 1_555 1_555
C18 N4 1_555 1_555
S1 O1 1_555 1_555
O1 Co2 1_555 1_555
O2 S1 1_555 1_555
O3 Co2 1_555 1_555
O4 S1 1_555 1_555
S2 O5 1_555 1_555
O5 Co1 1_555 1_555
O6 S2 1_555 1_555
O7 S2 1_555 1_555
O8 Co1 1_555 1_555
N1A Co2 1_555 1_555
N1B Co2 1_555 1_555
N4A Co1 1_555 1_555
N4B Co1 1_555 1_555
O1A Co2 1_555 1_555
O1B Co2 1_555 1_555
O2A S1 1_555 1_555
O2B S1 1_555 1_555
O3A Co2 1_555 1_555
O3B Co2 1_555 1_555
O4A S1 1_555 1_555
O4B S1 1_555 1_555
O5A Co1 1_555 1_555
O5B Co1 1_555 1_555
O6A S2 1_555 1_555
O6B S2 1_555 1_555
O7A S2 1_555 1_555
O7B S2 1_555 1_555
O8A Co1 1_555 1_555
O8B Co1 1_555 1_555
C2 C7 1_555 1_555
C6 C7 1_555 1_555
C13 C18 1_555 1_555
C17 C18 1_555 1_555
S1 O3 1_555 1_555
S1 O1A 1_555 1_555
S1 O1B 1_555 1_555
S1 O3A 1_555 1_555
S1 O3B 1_555 1_555
O1 O3A 1_555 1_555
O1 O3B 1_555 1_555
O2 O4A 1_555 1_555
O2 O4B 1_555 1_555
O3 O1A 1_555 1_555
O3 O1B 1_555 1_555
O4 O2A 1_555 1_555
O4 O2B 1_555 1_555
S2 O8 1_555 1_555
S2 O5A 1_555 1_555
S2 O5B 1_555 1_555
S2 O8A 1_555 1_555
S2 O8B 1_555 1_555
O5 O8A 1_555 1_555
O5 O8B 1_555 1_555
O6 O7A 1_555 1_555
O6 O7B 1_555 1_555
O6 O8A 1_555 1_555
O7 O6A 1_555 1_555
O7 O6B 1_555 1_555
O8 O5A 1_555 1_555
O8 O5B 1_555 1_555
O8 O6B 1_555 1_555
O1A O3B 1_555 1_555
O1B O3A 1_555 1_555
O2A O4B 1_555 1_555
O2B O4A 1_555 1_555
O5A O8B 1_555 1_555
O5B O8A 1_555 1_555
O6A O7B 1_555 1_555
O6A O8B 1_555 1_555
O6B O7A 1_555 1_555

#END
