
#######################################################################
#
#                 Cambridge Crystallographic Data Centre
#                                CCDC 
#
#######################################################################
#
# If this CIF has been generated from an entry in the Cambridge 
# Structural Database, then it will include bibliographic, chemical, 
# crystal, experimental, refinement or atomic coordinate data resulting 
# from the CCDC's data processing and validation procedures.
#
#######################################################################

data_PEBFEJ
_symmetry_cell_setting           orthorhombic
_symmetry_space_group_name_H-M   'A b a 2'
_symmetry_Int_Tables_number      41
_space_group_name_Hall           'A 2 -2ac'
loop_
_symmetry_equiv_pos_site_id
_symmetry_equiv_pos_as_xyz
1 x,y,z
2 -x,-y,z
3 1/2+x,-y,1/2+z
4 1/2-x,y,1/2+z
5 x,1/2+y,1/2+z
6 -x,1/2-y,1/2+z
7 1/2+x,1/2-y,z
8 1/2-x,1/2+y,z
_cell_length_a                   25.7691(10)
_cell_length_b                   23.6446(6)
_cell_length_c                   23.6446(6)
_cell_angle_alpha                90
_cell_angle_beta                 90
_cell_angle_gamma                90
_cell_volume                     14406.7
loop_
_atom_site_label
_atom_site_type_symbol
_atom_site_fract_x
_atom_site_fract_y
_atom_site_fract_z
Eu1 Eu 0.75057(8) 0.73227(2) 0.34732
O1 O 0.7903(4) 0.8149(4) 0.3983(5)
O2 O 0.7274(3) 0.7713(6) 0.4425(4)
N1 N 0.7617(6) 0.8088(6) 0.4418(6)
O3 O 0.7692(4) 0.8408(6) 0.4831(6)
N2 N 0.7347(5) 0.6401(6) 0.2694(6)
O4 O 0.7113(4) 0.6866(5) 0.2611(5)
O5 O 0.7720(4) 0.6382(4) 0.3053(5)
O6 O 0.7239(4) 0.5963(5) 0.2383(6)
O7 O 0.6839(5) 0.6784(5) 0.3820(6)
P1 P 0.6490(2) 0.6313(2) 0.4005(2)
C1 C 0.6788(5) 0.5663(6) 0.3916(6)
H1 H 0.653086 0.535417 0.398738
H2 H 0.687132 0.560534 0.350659
C2 C 0.7263(5) 0.5561(6) 0.4262(7)
H3 H 0.718831 0.565312 0.466657
H4 H 0.75377 0.583849 0.415194
C3 C 0.7479(6) 0.4961(4) 0.4220(4)
H5 H 0.721187 0.468528 0.435421
H6 H 0.779477 0.492761 0.446428
O8 O 0.8075(4) 0.2970(5) 0.3100(5)
P2 P 0.8368(2) 0.3466(2) 0.2865(3)
C4 C 0.8000(6) 0.4127(6) 0.2906(6)
H7 H 0.765367 0.40739 0.272285
H8 H 0.819607 0.44339 0.270836
C5 C 0.7922(5) 0.4292(5) 0.3549(8)
H9 H 0.826877 0.433395 0.373434
H10 H 0.773712 0.397912 0.374906
C6 C 0.7622(5) 0.4829(5) 0.3613(5)
H11 H 0.782657 0.515038 0.345156
H12 H 0.729941 0.480904 0.337853
O9 O 0.8153(5) 0.6946(5) 0.4034(6)
P3 P 0.85203(18) 0.6781(2) 0.4509(2)
C7 C 0.8203(5) 0.6843(6) 0.5208(6)
H13 H 0.844735 0.671376 0.55096
H14 H 0.813892 0.725124 0.529492
C8 C 0.7710(5) 0.6526(6) 0.5254(5)
H15 H 0.77788 0.611373 0.519813
H16 H 0.746724 0.665203 0.49497
C9 C 0.7459(6) 0.6618(4) 0.5828(5)
H17 H 0.767129 0.642884 0.612696
H18 H 0.712313 0.640581 0.584484
O10 O 0.6888(4) 0.7677(5) 0.7837(4)
P4 P 0.6604(2) 0.7934(2) 0.7364(3)
C10 C 0.6944(6) 0.7897(7) 0.6753(8)
H19 H 0.726231 0.813709 0.678317
H20 H 0.675068 0.809895 0.644732
C11 C 0.7092(5) 0.7321(8) 0.6552(5)
H21 H 0.728238 0.711723 0.68585
H22 H 0.678437 0.706399 0.657773
C12 C 0.7367(4) 0.7226(4) 0.5989(6)
H23 H 0.770502 0.743419 0.598927
H24 H 0.717071 0.742065 0.568068
C13 C 0.6284(5) 0.6424(6) 0.4735(4)
C14 C 0.6303(6) 0.6943(7) 0.4969(6)
C15 C 0.6120(8) 0.7060(9) 0.5508(6)
C16 C 0.5931(8) 0.6651(10) 0.5812(6)
C17 C 0.5883(8) 0.6110(10) 0.5599(6)
C18 C 0.6060(6) 0.5990(7) 0.5063(6)
H25 H 0.645679 0.725906 0.474398
H26 H 0.613326 0.745441 0.566015
H27 H 0.581867 0.673075 0.620886
H28 H 0.571917 0.580668 0.583398
H29 H 0.603052 0.559794 0.490701
C19 C 0.5939(4) 0.6273(5) 0.3557(5)
C20 C 0.5557(6) 0.5895(7) 0.3647(6)
C21 C 0.5141(7) 0.5823(8) 0.3283(7)
C22 C 0.5120(8) 0.6123(9) 0.2822(8)
C23 C 0.5486(7) 0.6532(8) 0.2704(7)
C24 C 0.5900(6) 0.6609(7) 0.3066(6)
H30 H 0.557415 0.565423 0.39942
H31 H 0.486107 0.554481 0.337298
H32 H 0.483106 0.6055 0.254778
H33 H 0.545176 0.677076 0.235734
H34 H 0.61694 0.690115 0.298126
C25 C 0.8507(5) 0.3323(6) 0.2144(4)
C26 C 0.8651(7) 0.2812(7) 0.1948(6)
C27 C 0.8793(8) 0.2714(8) 0.1392(6)
C28 C 0.8776(9) 0.3129(10) 0.1032(6)
C29 C 0.8647(8) 0.3671(9) 0.1198(6)
C30 C 0.8509(7) 0.3774(7) 0.1752(6)
H35 H 0.865659 0.248681 0.221836
H36 H 0.890739 0.232953 0.126841
H37 H 0.885748 0.305444 0.06251
H38 H 0.865406 0.398782 0.091809
H39 H 0.841071 0.416382 0.187553
C31 C 0.8970(4) 0.3551(5) 0.3203(5)
C32 C 0.9071(6) 0.3250(7) 0.3674(6)
C33 C 0.9514(6) 0.3324(9) 0.3997(8)
C34 C 0.9860(6) 0.3690(9) 0.3836(9)
C35 C 0.9782(6) 0.4029(9) 0.3368(9)
C36 C 0.9340(5) 0.3961(7) 0.3045(7)
H40 H 0.881266 0.29592 0.379653
H41 H 0.956704 0.309864 0.435011
H42 H 1.01892 0.372783 0.405571
H43 H 1.004457 0.432166 0.326279
H44 H 0.928263 0.420118 0.270252
C37 C 0.8757(4) 0.6126(4) 0.4431(6)
C38 C 0.8955(6) 0.5823(6) 0.4862(7)
C39 C 0.9153(7) 0.5282(7) 0.4800(9)
C40 C 0.9162(7) 0.5054(7) 0.4300(10)
C41 C 0.8953(7) 0.5326(7) 0.3836(10)
C42 C 0.8752(6) 0.5864(6) 0.3895(8)
H45 H 0.896024 0.599827 0.524734
H46 H 0.928697 0.506963 0.51347
H47 H 0.932326 0.467285 0.424965
H48 H 0.89468 0.513446 0.345922
H49 H 0.860334 0.606593 0.356038
C43 C 0.9076(4) 0.7245(5) 0.4535(5)
C44 C 0.9400(6) 0.7298(6) 0.4979(7)
C45 C 0.9814(7) 0.7672(7) 0.4988(8)
C46 C 0.9891(8) 0.8001(7) 0.4555(10)
C47 C 0.9587(7) 0.7963(7) 0.4076(9)
C48 C 0.9177(6) 0.7590(6) 0.4061(7)
H50 H 0.933942 0.705533 0.531884
H51 H 1.005048 0.768882 0.532247
H52 H 1.017614 0.828683 0.457018
H53 H 0.966484 0.820649 0.373998
H54 H 0.895201 0.756313 0.37171
C49 C 0.6000(4) 0.7593(5) 0.7265(5)
C50 C 0.5903(6) 0.7077(6) 0.7483(7)
C51 C 0.5458(6) 0.6771(8) 0.7364(9)
C52 C 0.5107(6) 0.6992(10) 0.7038(9)
C53 C 0.5180(6) 0.7511(9) 0.6782(9)
C54 C 0.5624(6) 0.7817(7) 0.6895(7)
H55 H 0.616583 0.69066 0.774371
H56 H 0.540789 0.638448 0.752715
H57 H 0.477613 0.678139 0.696972
H58 H 0.491286 0.766386 0.651669
H59 H 0.567806 0.81958 0.671556
C55 C 0.6462(5) 0.8635(4) 0.7515(6)
C56 C 0.6409(6) 0.8847(6) 0.8040(7)
C57 C 0.6253(8) 0.9398(6) 0.8147(9)
C58 C 0.6163(8) 0.9735(6) 0.7724(10)
C59 C 0.6193(8) 0.9548(6) 0.7171(9)
C60 C 0.6345(6) 0.9000(6) 0.7061(7)
H60 H 0.6487 0.859583 0.836896
H61 H 0.620965 0.953381 0.854414
H62 H 0.607121 1.013833 0.779976
H63 H 0.610434 0.980894 0.685298
H64 H 0.637125 0.886197 0.666163
Eu1C Eu 0.74943(8) 0.73227(2) 0.84732
Eu1G Eu 0.74943(8) 0.23227(2) 0.34732
O8G O 0.6925(4) 0.7970(5) 0.3100(5)
O10C O 0.8112(4) 0.7677(5) 0.2837(4)
N3 N 0.00000 0.50000 0.1712(9)
O11 O -0.0372(6) 0.4963(6) 0.1392(6)
O12 O 0.00000 0.50000 0.2217(9)
O11A O 0.0372(6) 0.5037(6) 0.1392(6)
C61 C 0.1396(11) 0.4812(12) 0.1808(10)
O13 O 0.1229(17) 0.4364(12) 0.2130(13)
C62 C 0.1272(12) 0.0778(14) 0.4713(14)
O14 O 0.0870(9) 0.0370(11) 0.4505(11)
C63 C 0.249(3) 0.0042(8) 0.0807(16)
O15 O 0.3114(6) 0.0023(6) 0.0840(11)
O16 O 0.0209(7) 0.0838(7) 0.0950(12)
O17 O 0.1045(7) 0.1383(7) 0.0670(8)
O18 O 0.00000 0.50000 0.0115(10)
O19 O 0.0731(6) 0.8597(6) 0.1154(7)
O20 O 0.1310(9) 0.8973(9) 0.1484(10)
O21? O -0.335(2) 0.0553(14) 0.2084(14)
loop_
_geom_bond_atom_site_label_1
_geom_bond_atom_site_label_2
_geom_bond_site_symmetry_1
_geom_bond_site_symmetry_2
Eu1 O1 1_555 1_555
O1 N1 1_555 1_555
O2 Eu1 1_555 1_555
N1 O2 1_555 1_555
O3 N1 1_555 1_555
N2 O4 1_555 1_555
O4 Eu1 1_555 1_555
O5 Eu1 1_555 1_555
O6 N2 1_555 1_555
O7 Eu1 1_555 1_555
P1 O7 1_555 1_555
C1 P1 1_555 1_555
H1 C1 1_555 1_555
H2 C1 1_555 1_555
C2 C1 1_555 1_555
H3 C2 1_555 1_555
H4 C2 1_555 1_555
C3 C2 1_555 1_555
H5 C3 1_555 1_555
H6 C3 1_555 1_555
O8 P2 1_555 1_555
P2 C4 1_555 1_555
C4 H7 1_555 1_555
H8 C4 1_555 1_555
C5 C4 1_555 1_555
H9 C5 1_555 1_555
H10 C5 1_555 1_555
C6 C3 1_555 1_555
H11 C6 1_555 1_555
H12 C6 1_555 1_555
O9 Eu1 1_555 1_555
P3 O9 1_555 1_555
C7 P3 1_555 1_555
H13 C7 1_555 1_555
H14 C7 1_555 1_555
C8 C7 1_555 1_555
H15 C8 1_555 1_555
H16 C8 1_555 1_555
C9 C8 1_555 1_555
H17 C9 1_555 1_555
H18 C9 1_555 1_555
O10 P4 1_555 1_555
P4 C10 1_555 1_555
C10 H19 1_555 1_555
H20 C10 1_555 1_555
C11 C10 1_555 1_555
H21 C11 1_555 1_555
H22 C11 1_555 1_555
C12 C9 1_555 1_555
H23 C12 1_555 1_555
H24 C12 1_555 1_555
C13 P1 1_555 1_555
C14 C13 1_555 1_555
C15 C14 1_555 1_555
C16 C15 1_555 1_555
C17 C16 1_555 1_555
C18 C13 1_555 1_555
H25 C14 1_555 1_555
H26 C15 1_555 1_555
H27 C16 1_555 1_555
H28 C17 1_555 1_555
H29 C18 1_555 1_555
C19 P1 1_555 1_555
C20 C19 1_555 1_555
C21 C20 1_555 1_555
C22 C21 1_555 1_555
C23 C22 1_555 1_555
C24 C19 1_555 1_555
H30 C20 1_555 1_555
H31 C21 1_555 1_555
H32 C22 1_555 1_555
H33 C23 1_555 1_555
H34 C24 1_555 1_555
C25 P2 1_555 1_555
C26 C25 1_555 1_555
C27 C26 1_555 1_555
C28 C27 1_555 1_555
C29 C28 1_555 1_555
C30 C25 1_555 1_555
H35 C26 1_555 1_555
H36 C27 1_555 1_555
H37 C28 1_555 1_555
H38 C29 1_555 1_555
H39 C30 1_555 1_555
C31 P2 1_555 1_555
C32 C31 1_555 1_555
C33 C32 1_555 1_555
C34 C33 1_555 1_555
C35 C34 1_555 1_555
C36 C31 1_555 1_555
H40 C32 1_555 1_555
H41 C33 1_555 1_555
H42 C34 1_555 1_555
H43 C35 1_555 1_555
H44 C36 1_555 1_555
C37 P3 1_555 1_555
C38 C37 1_555 1_555
C39 C38 1_555 1_555
C40 C39 1_555 1_555
C41 C40 1_555 1_555
C42 C37 1_555 1_555
H45 C38 1_555 1_555
H46 C39 1_555 1_555
H47 C40 1_555 1_555
H48 C41 1_555 1_555
H49 C42 1_555 1_555
C43 P3 1_555 1_555
C44 C43 1_555 1_555
C45 C44 1_555 1_555
C46 C45 1_555 1_555
C47 C46 1_555 1_555
C48 C43 1_555 1_555
H50 C44 1_555 1_555
H51 C45 1_555 1_555
H52 C46 1_555 1_555
H53 C47 1_555 1_555
H54 C48 1_555 1_555
C49 P4 1_555 1_555
C50 C49 1_555 1_555
C51 C50 1_555 1_555
C52 C51 1_555 1_555
C53 C52 1_555 1_555
C54 C49 1_555 1_555
H55 C50 1_555 1_555
H56 C51 1_555 1_555
H57 C52 1_555 1_555
H58 C53 1_555 1_555
H59 C54 1_555 1_555
C55 P4 1_555 1_555
C56 C55 1_555 1_555
C57 C56 1_555 1_555
C58 C57 1_555 1_555
C59 C58 1_555 1_555
C60 C55 1_555 1_555
H60 C56 1_555 1_555
H61 C57 1_555 1_555
H62 C58 1_555 1_555
H63 C59 1_555 1_555
H64 C60 1_555 1_555
N3 O11 1_555 1_555
O12 N3 1_555 1_555
C61 O13 1_555 1_555
C62 O14 1_555 1_555
C63 O15 1_555 1_555
Eu1C O10 1_555 1_555
Eu1G O8 1_555 1_555
O8G Eu1 1_555 1_555
O10C Eu1 1_555 1_555
O11A N3 1_555 1_555
N2 O5 1_555 1_555
C5 C6 1_555 1_555
C11 C12 1_555 1_555
C17 C18 1_555 1_555
C23 C24 1_555 1_555
C29 C30 1_555 1_555
C35 C36 1_555 1_555
C41 C42 1_555 1_555
C47 C48 1_555 1_555
C53 C54 1_555 1_555
C59 C60 1_555 1_555

#END
