
#######################################################################
#
#                 Cambridge Crystallographic Data Centre
#                                CCDC 
#
#######################################################################
#
# If this CIF has been generated from an entry in the Cambridge 
# Structural Database, then it will include bibliographic, chemical, 
# crystal, experimental, refinement or atomic coordinate data resulting 
# from the CCDC's data processing and validation procedures.
#
#######################################################################

data_PEBHIN
_symmetry_cell_setting           monoclinic
_symmetry_space_group_name_H-M   'P 21/c'
_symmetry_Int_Tables_number      14
_space_group_name_Hall           '-P 2ybc'
loop_
_symmetry_equiv_pos_site_id
_symmetry_equiv_pos_as_xyz
1 x,y,z
2 -x,1/2+y,1/2-z
3 -x,-y,-z
4 x,1/2-y,1/2+z
_cell_length_a                   8.086(4)
_cell_length_b                   9.066(4)
_cell_length_c                   16.679(7)
_cell_angle_alpha                90
_cell_angle_beta                 94.38(4)
_cell_angle_gamma                90
_cell_volume                     1219.13
loop_
_atom_site_label
_atom_site_type_symbol
_atom_site_fract_x
_atom_site_fract_y
_atom_site_fract_z
Bi1 Bi 0.00567(3) 0.19852(3) 0.23674(2)
Cl1 Cl 0.1698(3) 0.1938(2) 0.11266(14)
Cl2 Cl 0.1720(2) -0.0267(2) 0.30519(11)
C1 C 0.1882(8) 0.3543(8) 0.3027(5)
C2 C 0.3170(8) 0.4193(8) 0.2646(4)
C3 C 0.4196(8) 0.5213(8) 0.3042(5)
C4 C 0.3934(9) 0.5630(8) 0.3820(5)
C5 C 0.2650(9) 0.4982(8) 0.4204(5)
C6 C 0.1618(9) 0.3962(8) 0.3813(5)
O1 O -0.1583(8) 0.1907(5) 0.3654(4)
C7 C -0.1322(9) 0.1034(8) 0.4384(5)
C8 C -0.2923(13) 0.0933(13) 0.4740(7)
C9 C -0.4175(11) 0.1725(10) 0.4172(6)
C10 C -0.3134(9) 0.2654(9) 0.3655(5)
H1 H 0.3342(8) 0.3934(8) 0.2113(4)
H2 H 0.5078(8) 0.5628(8) 0.2783(5)
H3 H 0.4616(9) 0.6343(8) 0.4086(5)
H4 H 0.2486(9) 0.5245(8) 0.4737(5)
H5 H 0.0738(9) 0.3549(8) 0.4074(5)
H6 H -0.0488(9) 0.1513(8) 0.4764(5)
H7 H -0.0917(9) 0.0037(8) 0.4256(5)
H8 H -0.2855(13) 0.1406(13) 0.5277(7)
H9 H -0.3246(13) -0.0112(13) 0.4800(7)
H10 H -0.4856(11) 0.1012(10) 0.3841(6)
H11 H -0.4917(11) 0.2351(10) 0.4473(6)
H12 H -0.3666(9) 0.2735(9) 0.3102(5)
H13 H -0.2981(9) 0.3657(9) 0.3883(5)
Cl2A Cl -0.1720(2) 0.4733(2) 0.19481(11)
Bi1A Bi -0.00567(3) -0.30148(3) 0.26326(2)
Bi1A_2 Bi -0.00567(3) 0.69852(3) 0.26326(2)
Cl1A Cl -0.1698(3) -0.3062(2) 0.38734(14)
Cl2A_2 Cl -0.1720(2) -0.5267(2) 0.19481(11)
C1A C -0.1882(8) -0.1457(8) 0.1973(5)
O1A O 0.1583(8) -0.3093(5) 0.1346(4)
C2A C -0.3170(8) -0.0807(8) 0.2354(4)
C6A C -0.1618(9) -0.1038(8) 0.1187(5)
C7A C 0.1322(9) -0.3966(8) 0.0616(5)
C10A C 0.3134(9) -0.2346(9) 0.1345(5)
C3A C -0.4196(8) 0.0213(8) 0.1958(5)
H1A H -0.3342(8) -0.1066(8) 0.2887(4)
C5A C -0.2650(9) -0.0018(8) 0.0796(5)
H5A H -0.0738(9) -0.1451(8) 0.0926(5)
C8A C 0.2923(13) -0.4067(13) 0.0260(7)
H6A H 0.0488(9) -0.3487(8) 0.0236(5)
H7A H 0.0917(9) -0.4963(8) 0.0744(5)
C9A C 0.4175(11) -0.3275(10) 0.0828(6)
H12A H 0.3666(9) -0.2265(9) 0.1898(5)
H13A H 0.2981(9) -0.1343(9) 0.1117(5)
C4A C -0.3934(9) 0.0630(8) 0.1180(5)
H2A H -0.5078(8) 0.0628(8) 0.2217(5)
H4A H -0.2486(9) 0.0245(8) 0.0263(5)
H8A H 0.2855(13) -0.3594(13) -0.0277(7)
H9A H 0.3246(13) -0.5112(13) 0.0200(7)
H10A H 0.4856(11) -0.3988(10) 0.1159(6)
H11A H 0.4917(11) -0.2649(10) 0.0527(6)
H3A H -0.4616(9) 0.1343(8) 0.0914(5)
loop_
_geom_bond_atom_site_label_1
_geom_bond_atom_site_label_2
_geom_bond_site_symmetry_1
_geom_bond_site_symmetry_2
Bi1 Cl1 1_555 1_555
Cl2 Bi1 1_555 1_555
C1 Bi1 1_555 1_555
C2 C1 1_555 1_555
C3 C2 1_555 1_555
C4 C3 1_555 1_555
C5 C4 1_555 1_555
C6 C1 1_555 1_555
O1 Bi1 1_555 1_555
C7 O1 1_555 1_555
C8 C7 1_555 1_555
C9 C8 1_555 1_555
C10 O1 1_555 1_555
H1 C2 1_555 1_555
H2 C3 1_555 1_555
H3 C4 1_555 1_555
H4 C5 1_555 1_555
H5 C6 1_555 1_555
H6 C7 1_555 1_555
H7 C7 1_555 1_555
H8 C8 1_555 1_555
H9 C8 1_555 1_555
H10 C9 1_555 1_555
H11 C9 1_555 1_555
H12 C10 1_555 1_555
H13 C10 1_555 1_555
Cl2A Bi1 1_555 1_555
Bi1A Cl2 1_555 1_555
Bi1A_2 Cl2A 1_555 1_555
Cl1A Bi1A 1_555 1_555
Cl2A_2 Bi1A 1_555 1_555
C1A Bi1A 1_555 1_555
O1A Bi1A 1_555 1_555
C2A C1A 1_555 1_555
C6A C1A 1_555 1_555
C7A O1A 1_555 1_555
C10A O1A 1_555 1_555
C3A C2A 1_555 1_555
H1A C2A 1_555 1_555
C5A C6A 1_555 1_555
H5A C6A 1_555 1_555
C8A C7A 1_555 1_555
H6A C7A 1_555 1_555
H7A C7A 1_555 1_555
C9A C10A 1_555 1_555
H12A C10A 1_555 1_555
H13A C10A 1_555 1_555
C4A C3A 1_555 1_555
H2A C3A 1_555 1_555
H4A C5A 1_555 1_555
H8A C8A 1_555 1_555
H9A C8A 1_555 1_555
H10A C9A 1_555 1_555
H11A C9A 1_555 1_555
H3A C4A 1_555 1_555
C5 C6 1_555 1_555
C9 C10 1_555 1_555
C5A C4A 1_555 1_555
C8A C9A 1_555 1_555

#END
