
#######################################################################
#
#                 Cambridge Crystallographic Data Centre
#                                CCDC 
#
#######################################################################
#
# If this CIF has been generated from an entry in the Cambridge 
# Structural Database, then it will include bibliographic, chemical, 
# crystal, experimental, refinement or atomic coordinate data resulting 
# from the CCDC's data processing and validation procedures.
#
#######################################################################

data_PEBKIR
_symmetry_cell_setting           monoclinic
_symmetry_space_group_name_H-M   'C 2'
_symmetry_Int_Tables_number      5
_space_group_name_Hall           'C 2y'
loop_
_symmetry_equiv_pos_site_id
_symmetry_equiv_pos_as_xyz
1 x,y,z
2 -x,y,-z
3 1/2+x,1/2+y,z
4 1/2-x,1/2+y,-z
_cell_length_a                   14.1818(3)
_cell_length_b                   10.4988(3)
_cell_length_c                   14.8370(4)
_cell_angle_alpha                90
_cell_angle_beta                 116.571(5)
_cell_angle_gamma                90
_cell_volume                     1975.78
loop_
_atom_site_label
_atom_site_type_symbol
_atom_site_fract_x
_atom_site_fract_y
_atom_site_fract_z
Cu1 Cu -0.30514(3) -0.5218 -0.12248(3)
Br1 Br -0.18666(3) -0.45989(7) -0.19289(3)
C1 C -0.3743(2) -0.3805(4) -0.0997(2)
N1 N -0.3321(2) -0.2882(3) -0.0250(2)
C2 C -0.4025(3) -0.1873(4) -0.0416(3)
C3 C -0.4886(3) -0.2166(4) -0.1264(3)
N2 N -0.4700(2) -0.3324(3) -0.1599(2)
C4 C -0.5434(3) -0.3982(4) -0.2497(2)
C5 C -0.5444(3) -0.3641(5) -0.3405(3)
C6 C -0.4688(4) -0.2684(6) -0.3462(3)
C7 C -0.6178(4) -0.4273(5) -0.4279(3)
C8 C -0.6857(3) -0.5192(6) -0.4225(3)
C9 C -0.7644(5) -0.5856(6) -0.5184(4)
C10 C -0.6804(3) -0.5504(5) -0.3301(3)
C11 C -0.6090(3) -0.4903(5) -0.2420(3)
C12 C -0.6060(3) -0.5248(7) -0.1407(3)
N3 N -0.1820(2) -0.2078(3) 0.1154(2)
C13 C -0.2321(2) -0.2970(4) 0.0558(2)
O1 O -0.1907(2) -0.4145(3) 0.0697(2)
C14 C -0.0852(4) -0.4013(6) 0.1549(4)
C15 C -0.0807(3) -0.2663(4) 0.1917(3)
C16 C -0.0679(4) -0.2519(6) 0.2986(3)
C17 C -0.1583(5) -0.294(1) 0.3104(4)
C18 C 0.0324(4) -0.3139(7) 0.3721(4)
H1 H -0.3916 -0.1134 -0.0011
H2 H -0.5510 -0.1670 -0.1577
H3 H -0.6207 -0.4067 -0.4914
H4 H -0.7262 -0.6140 -0.3263
H5 H -0.4819 -0.2580 -0.4144
H6 H -0.4780 -0.1891 -0.3202
H7 H -0.3986 -0.2975 -0.3075
H8 H -0.7573 -0.5527 -0.5748
H9 H -0.7507 -0.6745 -0.5131
H10 H -0.8340 -0.5708 -0.5271
H11 H -0.5533 -0.4755 -0.0889
H12 H -0.6727 -0.5075 -0.1428
H13 H -0.5900 -0.6127 -0.1274
H14 H -0.0321 -0.4148 0.1334
H15 H -0.0762 -0.4603 0.2067
H16 H -0.0190 -0.2252 0.1965
H17 H -0.0631 -0.1633 0.3130
H18 H -0.1455 -0.2825 0.3784
H19 H -0.2183 -0.2454 0.2675
H20 H -0.1709 -0.3815 0.2930
H21 H 0.0394 -0.3042 0.4385
H22 H 0.0307 -0.4019 0.3567
H23 H 0.0906 -0.2748 0.3677
Cu1C Cu -0.19486(3) -0.0218 0.12248(3)
N3C N -0.3180(2) -0.7078(3) -0.1154(2)
loop_
_geom_bond_atom_site_label_1
_geom_bond_atom_site_label_2
_geom_bond_site_symmetry_1
_geom_bond_site_symmetry_2
Cu1 Br1 1_555 1_555
C1 Cu1 1_555 1_555
N1 C1 1_555 1_555
C2 N1 1_555 1_555
C3 C2 1_555 1_555
N2 C1 1_555 1_555
C4 N2 1_555 1_555
C5 C4 1_555 1_555
C6 C5 1_555 1_555
C7 C5 1_555 1_555
C8 C7 1_555 1_555
C9 C8 1_555 1_555
C10 C8 1_555 1_555
C11 C4 1_555 1_555
C12 C11 1_555 1_555
N3 C13 1_555 1_555
C13 N1 1_555 1_555
O1 C13 1_555 1_555
C14 O1 1_555 1_555
C15 N3 1_555 1_555
C16 C15 1_555 1_555
C17 C16 1_555 1_555
C18 C16 1_555 1_555
H1 C2 1_555 1_555
H2 C3 1_555 1_555
H3 C7 1_555 1_555
H4 C10 1_555 1_555
H5 C6 1_555 1_555
H6 C6 1_555 1_555
H7 C6 1_555 1_555
H8 C9 1_555 1_555
H9 C9 1_555 1_555
H10 C9 1_555 1_555
H11 C12 1_555 1_555
H12 C12 1_555 1_555
H13 C12 1_555 1_555
H14 C14 1_555 1_555
H15 C14 1_555 1_555
H16 C15 1_555 1_555
H17 C16 1_555 1_555
H18 C17 1_555 1_555
H19 C17 1_555 1_555
H20 C17 1_555 1_555
H21 C18 1_555 1_555
H22 C18 1_555 1_555
H23 C18 1_555 1_555
Cu1C N3 1_555 1_555
N3C Cu1 1_555 1_555
C3 N2 1_555 1_555
C10 C11 1_555 1_555
C14 C15 1_555 1_555

#END
