
#######################################################################
#
#                 Cambridge Crystallographic Data Centre
#                                CCDC 
#
#######################################################################
#
# If this CIF has been generated from an entry in the Cambridge 
# Structural Database, then it will include bibliographic, chemical, 
# crystal, experimental, refinement or atomic coordinate data resulting 
# from the CCDC's data processing and validation procedures.
#
#######################################################################

data_PEBLAL
_symmetry_cell_setting           triclinic
_symmetry_space_group_name_H-M   'P -1'
_symmetry_Int_Tables_number      2
_space_group_name_Hall           '-P 1'
loop_
_symmetry_equiv_pos_site_id
_symmetry_equiv_pos_as_xyz
1 x,y,z
2 -x,-y,-z
_cell_length_a                   7.6430(13)
_cell_length_b                   10.7813(18)
_cell_length_c                   11.0448(19)
_cell_angle_alpha                63.732(2)
_cell_angle_beta                 75.153(2)
_cell_angle_gamma                86.697(2)
_cell_volume                     787.241
loop_
_atom_site_label
_atom_site_type_symbol
_atom_site_fract_x
_atom_site_fract_y
_atom_site_fract_z
Cd1 Cd 0.5000 0.5000 0.0000
Cd2 Cd 0.063160(16) 0.142230(12) 0.353110(12)
O1 O -0.03528(17) 0.25486(13) 0.16222(13)
O2 O 0.17484(18) 0.97324(13) 0.29507(14)
O3 O 0.39572(19) 0.66760(15) -0.18199(15)
H1 H 0.300(2) 0.708(2) -0.178(2)
H2 H 0.472(3) 0.723(2) -0.256(2)
O4 O 0.31851(17) 0.18957(13) -0.60456(13)
O5 O 0.24318(17) 0.34493(13) 0.09896(13)
O6 O 0.07916(18) 0.77583(14) 0.49275(13)
O7 O 0.20567(19) -0.01004(14) -0.42427(15)
N1 N 0.3699(2) 0.61160(16) 0.13349(16)
C1 C 0.0859(2) 0.39922(18) -0.08043(18)
H3 H -0.0438 0.4063 -0.0805
H4 H 0.1434 0.4945 -0.1274
C2 C 0.3138(2) 0.09331(18) -0.48351(18)
C3 C 0.2258(2) 0.76152(19) 0.28322(19)
C4 C 0.3254(3) 0.82780(18) 0.1449(2)
H5 H 0.3449 0.9259 0.0991
C5 C 0.2725(3) 0.54735(19) 0.26700(19)
H6 H 0.2528 0.4493 0.3099
C6 C 0.1006(2) 0.33032(17) 0.06920(18)
C7 C 0.1996(2) 0.61806(19) 0.34465(19)
H7 H 0.1323 0.5690 0.4392
C8 C 0.1523(2) 0.84401(19) 0.36442(19)
C9 C 0.3612(3) 0.3269(2) -0.37664(19)
H8 H 0.4303 0.3793 -0.4701
C10 C 0.3959(3) 0.75059(19) 0.07443(19)
H9 H 0.4657 0.7973 -0.0197
C11 C 0.2390(3) 0.1094(2) -0.1848(2)
H10 H 0.2231 0.0113 -0.1459
C12 C 0.1558(3) 0.17677(19) -0.1060(2)
H11 H 0.0851 0.1246 -0.0130
C13 C 0.4409(3) 0.1104(2) -0.4062(2)
H12 H 0.4752 0.0185 -0.3443
H13 H 0.5528 0.1655 -0.4737
C14 C 0.2776(3) 0.39451(19) -0.2986(2)
H14 H 0.2904 0.4928 -0.3389
C15 C 0.3456(2) 0.18335(19) -0.32056(19)
C16 C 0.1751(2) 0.32088(18) -0.16198(18)
Cd2A Cd 0.936840(16) 0.857770(12) -0.353110(12)
Cd2_2 Cd 0.063160(16) 1.142230(12) 0.353110(12)
Cd2_3 Cd 0.063160(16) 0.142230(12) -0.646890(12)
Cd2A_2 Cd -0.063160(16) 0.857770(12) 0.646890(12)
Cd2A_3 Cd -0.063160(16) -0.142230(12) -0.353110(12)
Cd2A_4 Cd 0.936840(16) 0.857770(12) 0.646890(12)
Cd2_4 Cd 1.063160(16) 1.142230(12) 0.353110(12)
Cd2A_5 Cd 0.936840(16) -0.142230(12) -0.353110(12)
Cd2_5 Cd 1.063160(16) 0.142230(12) -0.646890(12)
O1A O 1.03528(17) 0.74514(13) -0.16222(13)
O2A O 0.82516(18) 0.02676(13) -0.29507(14)
O2_2 O 0.17484(18) -0.02676(13) 0.29507(14)
O2A_2 O 0.82516(18) 1.02676(13) -0.29507(14)
O3A O 0.60428(19) 0.33240(15) 0.18199(15)
H1A H 0.700(2) 0.292(2) 0.178(2)
H2A H 0.528(3) 0.277(2) 0.256(2)
O4A O 0.68149(17) 0.81043(13) 0.60456(13)
O4_2 O 0.31851(17) 0.18957(13) 0.39544(13)
O4A_2 O 0.68149(17) 0.81043(13) -0.39544(13)
O5A O 0.75682(17) 0.65507(13) -0.09896(13)
O6A O 0.92084(18) 0.22417(14) -0.49275(13)
O6A_2 O -0.07916(18) 0.22417(14) 0.50725(13)
O6_2 O 1.07916(18) 0.77583(14) -0.50725(13)
O7A O 0.79433(19) 1.01004(14) 0.42427(15)
O7A_2 O -0.20567(19) 0.01004(14) 0.42427(15)
O7_2 O 1.20567(19) 0.98996(14) -0.42427(15)
N1A N 0.6301(2) 0.38840(16) -0.13349(16)
C1A C 0.9141(2) 0.60078(18) 0.08043(18)
H3A H 1.0438 0.5937 0.0805
H4A H 0.8566 0.5055 0.1274
C2A C 0.6862(2) 0.90669(18) 0.48351(18)
C3A C 0.7742(2) 0.23848(19) -0.28322(19)
C4A C 0.6746(3) 0.17220(18) -0.1449(2)
H5A H 0.6551 0.0741 -0.0991
C5A C 0.7275(3) 0.45265(19) -0.26700(19)
H6A H 0.7472 0.5507 -0.3099
C6A C 0.8994(2) 0.66968(17) -0.06920(18)
C7A C 0.8004(2) 0.38194(19) -0.34465(19)
H7A H 0.8677 0.4310 -0.4392
C8A C 0.8477(2) 0.15599(19) -0.36442(19)
C9A C 0.6388(3) 0.6731(2) 0.37664(19)
H8A H 0.5697 0.6207 0.4701
C10A C 0.6041(3) 0.24941(19) -0.07443(19)
H9A H 0.5343 0.2027 0.0197
C11A C 0.7610(3) 0.8906(2) 0.1848(2)
H10A H 0.7769 0.9887 0.1459
C12A C 0.8442(3) 0.82323(19) 0.1060(2)
H11A H 0.9149 0.8754 0.0130
C13A C 0.5591(3) 0.8896(2) 0.4062(2)
H12A H 0.5248 0.9815 0.3443
H13A H 0.4472 0.8345 0.4737
C14A C 0.7224(3) 0.60549(19) 0.2986(2)
H14A H 0.7096 0.5072 0.3389
C15A C 0.6544(2) 0.81665(19) 0.32056(19)
C16A C 0.8249(2) 0.67912(18) 0.16198(18)
loop_
_geom_bond_atom_site_label_1
_geom_bond_atom_site_label_2
_geom_bond_site_symmetry_1
_geom_bond_site_symmetry_2
Cd1 O3 1_555 1_555
Cd2 O1 1_555 1_555
O1 C6 1_555 1_555
O2 C8 1_555 1_555
O3 H1 1_555 1_555
H2 O3 1_555 1_555
O4 C2 1_555 1_555
O5 Cd1 1_555 1_555
O6 C8 1_555 1_555
O7 C2 1_555 1_555
N1 Cd1 1_555 1_555
C1 H3 1_555 1_555
H4 C1 1_555 1_555
C2 C13 1_555 1_555
C3 C4 1_555 1_555
C4 H5 1_555 1_555
C5 N1 1_555 1_555
H6 C5 1_555 1_555
C6 O5 1_555 1_555
C7 C3 1_555 1_555
H7 C7 1_555 1_555
C8 C3 1_555 1_555
C9 H8 1_555 1_555
C10 N1 1_555 1_555
H9 C10 1_555 1_555
C11 H10 1_555 1_555
C12 C11 1_555 1_555
H11 C12 1_555 1_555
C13 H12 1_555 1_555
H13 C13 1_555 1_555
C14 C9 1_555 1_555
H14 C14 1_555 1_555
C15 C9 1_555 1_555
C16 C1 1_555 1_555
Cd2A O1A 1_555 1_555
Cd2_2 O2 1_555 1_555
Cd2_3 O4 1_555 1_555
Cd2A_2 O6 1_555 1_555
Cd2A_3 O7 1_555 1_555
Cd2A_4 O4A 1_555 1_555
Cd2_4 O7A 1_555 1_555
Cd2A_5 O2A 1_555 1_555
Cd2_5 O6A 1_555 1_555
O1A C6A 1_555 1_555
O2A C8A 1_555 1_555
O2_2 Cd2 1_555 1_555
O2A_2 Cd2A 1_555 1_555
O3A Cd1 1_555 1_555
H1A O3A 1_555 1_555
H2A O3A 1_555 1_555
O4A C2A 1_555 1_555
O4_2 Cd2 1_555 1_555
O4A_2 Cd2A 1_555 1_555
O5A Cd1 1_555 1_555
O6A C8A 1_555 1_555
O6A_2 Cd2 1_555 1_555
O6_2 Cd2A 1_555 1_555
O7A C2A 1_555 1_555
O7A_2 Cd2 1_555 1_555
O7_2 Cd2A 1_555 1_555
N1A Cd1 1_555 1_555
C1A H3A 1_555 1_555
H4A C1A 1_555 1_555
C2A C13A 1_555 1_555
C3A C4A 1_555 1_555
C4A H5A 1_555 1_555
C5A N1A 1_555 1_555
H6A C5A 1_555 1_555
C6A O5A 1_555 1_555
C7A C3A 1_555 1_555
H7A C7A 1_555 1_555
C8A C3A 1_555 1_555
C9A H8A 1_555 1_555
C10A N1A 1_555 1_555
H9A C10A 1_555 1_555
C11A H10A 1_555 1_555
C12A C11A 1_555 1_555
H11A C12A 1_555 1_555
C13A H12A 1_555 1_555
H13A C13A 1_555 1_555
C14A C9A 1_555 1_555
H14A C14A 1_555 1_555
C15A C9A 1_555 1_555
C16A C1A 1_555 1_555
C1 C6 1_555 1_555
C4 C10 1_555 1_555
C5 C7 1_555 1_555
C11 C15 1_555 1_555
C12 C16 1_555 1_555
C13 C15 1_555 1_555
C14 C16 1_555 1_555
C1A C6A 1_555 1_555
C4A C10A 1_555 1_555
C5A C7A 1_555 1_555
C11A C15A 1_555 1_555
C12A C16A 1_555 1_555
C13A C15A 1_555 1_555
C14A C16A 1_555 1_555

#END
