
#######################################################################
#
#                 Cambridge Crystallographic Data Centre
#                                CCDC 
#
#######################################################################
#
# If this CIF has been generated from an entry in the Cambridge 
# Structural Database, then it will include bibliographic, chemical, 
# crystal, experimental, refinement or atomic coordinate data resulting 
# from the CCDC's data processing and validation procedures.
#
#######################################################################

data_PEBMEQ
_symmetry_cell_setting           triclinic
_symmetry_space_group_name_H-M   'P -1'
_symmetry_Int_Tables_number      2
_space_group_name_Hall           '-P 1'
loop_
_symmetry_equiv_pos_site_id
_symmetry_equiv_pos_as_xyz
1 x,y,z
2 -x,-y,-z
_cell_length_a                   6.2546(3)
_cell_length_b                   7.4164(4)
_cell_length_c                   9.5419(5)
_cell_angle_alpha                106.544(3)
_cell_angle_beta                 104.657(2)
_cell_angle_gamma                94.447(1)
_cell_volume                     405.11
loop_
_atom_site_label
_atom_site_type_symbol
_atom_site_fract_x
_atom_site_fract_y
_atom_site_fract_z
Cu1 Cu 0.0000 0.0000 0.0000
N1 N 0.2147(4) 0.1051(4) 0.2145(3)
C1 C 0.4368(6) 0.1216(5) 0.2391(4)
H1 H 0.4890 0.0795 0.1518
N2 N 0.5908(5) 0.1909(4) 0.3731(3)
C2 C 0.5187(6) 0.2491(5) 0.4964(4)
N3 N 0.1620(5) 0.7785(4) -0.0464(3)
C3 C 0.6935(7) 0.3278(6) 0.6493(4)
H2 H 0.7293 0.2238 0.6911
H3 H 0.6357 0.4219 0.7194
H4 H 0.8291 0.3889 0.6369
N4 N 0.2345(5) 0.1801(4) -0.0922(3)
C4 C 0.2908(6) 0.2365(5) 0.4828(4)
H5 H 0.2389 0.2768 0.5703
N5 N 0.2836(5) 0.4779(4) -0.1547(3)
C5 C 0.1429(6) 0.1637(5) 0.3385(4)
H6 H -0.0134 0.1548 0.3266
C6 C 0.2526(5) 0.3242(4) -0.1148(4)
C7 C 0.2147(5) 0.6331(4) -0.0922(3)
Cu1_2 Cu 0.0000 -1.0000 0.0000
Cu1_3 Cu 0.0000 1.0000 0.0000
N1A N -0.2147(4) -0.1051(4) -0.2145(3)
C1A C -0.4368(6) -0.1216(5) -0.2391(4)
H1A H -0.4890 -0.0795 -0.1518
N2A N -0.5908(5) -0.1909(4) -0.3731(3)
C2A C -0.5187(6) -0.2491(5) -0.4964(4)
N3A N -0.1620(5) -0.7785(4) 0.0464(3)
N3_2 N 0.1620(5) -0.2215(4) -0.0464(3)
N3A_2 N -0.1620(5) 0.2215(4) 0.0464(3)
C3A C -0.6935(7) -0.3278(6) -0.6493(4)
H2A H -0.7293 -0.2238 -0.6911
H3A H -0.6357 -0.4219 -0.7194
H4A H -0.8291 -0.3889 -0.6369
N4A N -0.2345(5) -0.1801(4) 0.0922(3)
C4A C -0.2908(6) -0.2365(5) -0.4828(4)
H5A H -0.2389 -0.2768 -0.5703
N5A N -0.2836(5) -0.4779(4) 0.1547(3)
C5A C -0.1429(6) -0.1637(5) -0.3385(4)
H6A H 0.0134 -0.1548 -0.3266
C6A C -0.2526(5) -0.3242(4) 0.1148(4)
C7A C -0.2147(5) -0.6331(4) 0.0922(3)
loop_
_geom_bond_atom_site_label_1
_geom_bond_atom_site_label_2
_geom_bond_site_symmetry_1
_geom_bond_site_symmetry_2
Cu1 N1 1_555 1_555
N1 C1 1_555 1_555
C1 H1 1_555 1_555
N2 C1 1_555 1_555
C2 N2 1_555 1_555
N3 C7 1_555 1_555
C3 C2 1_555 1_555
H2 C3 1_555 1_555
H3 C3 1_555 1_555
H4 C3 1_555 1_555
N4 Cu1 1_555 1_555
C4 C2 1_555 1_555
H5 C4 1_555 1_555
N5 C6 1_555 1_555
C5 N1 1_555 1_555
H6 C5 1_555 1_555
C6 N4 1_555 1_555
C7 N5 1_555 1_555
Cu1_2 N3A 1_555 1_555
Cu1_3 N3 1_555 1_555
N1A Cu1 1_555 1_555
C1A N1A 1_555 1_555
H1A C1A 1_555 1_555
N2A C1A 1_555 1_555
C2A N2A 1_555 1_555
N3A C7A 1_555 1_555
N3_2 Cu1 1_555 1_555
N3A_2 Cu1 1_555 1_555
C3A C2A 1_555 1_555
H2A C3A 1_555 1_555
H3A C3A 1_555 1_555
H4A C3A 1_555 1_555
N4A Cu1 1_555 1_555
C4A C2A 1_555 1_555
H5A C4A 1_555 1_555
N5A C6A 1_555 1_555
C5A N1A 1_555 1_555
H6A C5A 1_555 1_555
C6A N4A 1_555 1_555
C7A N5A 1_555 1_555
C4 C5 1_555 1_555
C4A C5A 1_555 1_555

#END
