
#######################################################################
#
#                 Cambridge Crystallographic Data Centre
#                                CCDC 
#
#######################################################################
#
# If this CIF has been generated from an entry in the Cambridge 
# Structural Database, then it will include bibliographic, chemical, 
# crystal, experimental, refinement or atomic coordinate data resulting 
# from the CCDC's data processing and validation procedures.
#
#######################################################################

data_PEBNOB02
_symmetry_cell_setting           orthorhombic
_symmetry_space_group_name_H-M   'P b a 2'
_symmetry_Int_Tables_number      32
_space_group_name_Hall           'P 2 -2ab'
loop_
_symmetry_equiv_pos_site_id
_symmetry_equiv_pos_as_xyz
1 x,y,z
2 -x,-y,z
3 1/2+x,1/2-y,z
4 1/2-x,1/2+y,z
_cell_length_a                   31.8047(9)
_cell_length_b                   7.4805(3)
_cell_length_c                   9.8565(3)
_cell_angle_alpha                90
_cell_angle_beta                 90
_cell_angle_gamma                90
_cell_volume                     2345.01
loop_
_atom_site_label
_atom_site_type_symbol
_atom_site_fract_x
_atom_site_fract_y
_atom_site_fract_z
Tb1 Tb 0.09668(2) 0.92583(5) 0.65506(13)
O1 O 0.0347(2) 0.8313(11) 0.7901(7)
O2 O 0.0894(3) 0.9391(15) 0.8984(11)
O3 O 0.0830(4) 0.9981(17) 1.4113(10)
O4 O 0.0487(3) 0.7810(12) 1.5063(8)
O5 O 0.13031(18) 1.1954(9) 0.6447(14)
O6 O 0.1679(2) 1.3910(13) 0.7686(9)
O7 O 0.3244(2) 1.3588(11) 0.7184(8)
O8 O 0.3483(2) 1.3024(12) 0.5127(7)
O9 O 0.0996(3) 0.6051(13) 0.5949(12)
O10 O 0.0432(2) 1.1575(10) 0.6657(15)
H1 H 0.0195 1.1419 0.7039
H2 H 0.0485 1.2246 0.5979
N1 N -0.1474(3) 0.4579(17) 1.176(2)
N2 N 0.2059(3) 0.9846(14) -0.0374(9)
H3 H 0.2007 0.9529 -0.1196
C1 C 0.0548(5) 0.868(2) 0.8967(13)
C2 C 0.0334(4) 0.8219(19) 1.0275(14)
C3 C 0.0542(2) 0.8703(11) 1.1559(19)
H4 H 0.0799 0.9298 1.1551
C4 C 0.0364(4) 0.8292(19) 1.2705(12)
C5 C 0.0561(4) 0.871(2) 1.4031(14)
C6 C -0.0030(4) 0.7491(18) 1.2720(15)
H5 H -0.0150 0.7251 1.3560
C7 C -0.0250(3) 0.7037(11) 1.1602(17)
C8 C -0.0053(4) 0.7384(15) 1.0307(12)
H6 H -0.0185 0.7049 0.9504
C9 C -0.1233(4) 0.487(2) 1.2843(17)
H7 H -0.1340 0.4507 1.3677
C10 C -0.0862(7) 0.561(2) 1.285(2)
H8 H -0.0714 0.5738 1.3657
C11 C -0.0687(3) 0.6219(11) 1.158(2)
C12 C -0.0910(6) 0.604(3) 1.050(2)
H9 H -0.0816 0.6462 0.9664
C13 C -0.1326(5) 0.512(4) 1.063(2)
H10 H -0.1485 0.4939 0.9853
C14 C 0.1634(3) 1.2809(15) 0.6774(11)
C15 C 0.2010(3) 1.2495(13) 0.5829(10)
C16 C 0.2412(3) 1.2849(12) 0.6315(14)
H11 H 0.2450 1.3240 0.7202
C17 C 0.2756(3) 1.2613(14) 0.5464(9)
C18 C 0.3178(3) 1.3059(16) 0.5968(13)
C19 C 0.2688(3) 1.1989(13) 0.4150(9)
H12 H 0.2918 1.1811 0.3585
C20 C 0.2290(3) 1.1625(15) 0.3655(10)
C21 C 0.1945(3) 1.1859(14) 0.4532(10)
H13 H 0.1674 1.1586 0.4239
C22 C 0.2452(4) 1.0221(17) -0.0022(11)
H14 H 0.2670 1.0095 -0.0644
C23 C 0.2532(3) 1.0807(14) 0.1293(12)
H15 H 0.2806 1.1086 0.1542
C24 C 0.2212(3) 1.0986(14) 0.2239(11)
C25 C 0.1810(4) 1.051(2) 0.178(2)
H16 H 0.1585 1.0590 0.2378
C26 C 0.1741(4) 0.994(2) 0.0505(15)
H17 H 0.1471 0.9619 0.0236
Tb1_2 Tb 0.09668(2) 0.92583(5) 1.65506(13)
Tb1C Tb 0.40332(2) 1.42583(5) 0.65506(13)
O3_2 O 0.0830(4) 0.9981(17) 0.4113(10)
O4_2 O 0.0487(3) 0.7810(12) 0.5063(8)
O7C O 0.1756(2) 0.8588(11) 0.7184(8)
O8C O 0.1517(2) 0.8024(12) 0.5127(7)
O11 O 0.0000 0.5000 1.5991(16)
loop_
_geom_bond_atom_site_label_1
_geom_bond_atom_site_label_2
_geom_bond_site_symmetry_1
_geom_bond_site_symmetry_2
Tb1 O1 1_555 1_555
O1 C1 1_555 1_555
O2 Tb1 1_555 1_555
O3 C5 1_555 1_555
O4 C5 1_555 1_555
O5 Tb1 1_555 1_555
O6 C14 1_555 1_555
O7 C18 1_555 1_555
O8 C18 1_555 1_555
O9 Tb1 1_555 1_555
O10 Tb1 1_555 1_555
H1 O10 1_555 1_555
H2 O10 1_555 1_555
N1 C9 1_555 1_555
N2 H3 1_555 1_555
C1 O2 1_555 1_555
C2 C1 1_555 1_555
C3 C2 1_555 1_555
H4 C3 1_555 1_555
C4 C3 1_555 1_555
C5 C4 1_555 1_555
C6 C4 1_555 1_555
H5 C6 1_555 1_555
C7 C6 1_555 1_555
C8 C2 1_555 1_555
H6 C8 1_555 1_555
C9 H7 1_555 1_555
C10 C9 1_555 1_555
H8 C10 1_555 1_555
C11 C7 1_555 1_555
C12 C11 1_555 1_555
H9 C12 1_555 1_555
C13 N1 1_555 1_555
H10 C13 1_555 1_555
C14 O5 1_555 1_555
C15 C14 1_555 1_555
C16 C15 1_555 1_555
H11 C16 1_555 1_555
C17 C16 1_555 1_555
C18 C17 1_555 1_555
C19 C17 1_555 1_555
H12 C19 1_555 1_555
C20 C19 1_555 1_555
C21 C15 1_555 1_555
H13 C21 1_555 1_555
C22 N2 1_555 1_555
H14 C22 1_555 1_555
C23 C22 1_555 1_555
H15 C23 1_555 1_555
C24 C20 1_555 1_555
C25 C24 1_555 1_555
H16 C25 1_555 1_555
C26 N2 1_555 1_555
H17 C26 1_555 1_555
Tb1_2 O3 1_555 1_555
Tb1C O7 1_555 1_555
O3_2 Tb1 1_555 1_555
O4_2 Tb1 1_555 1_555
O7C Tb1 1_555 1_555
O8C Tb1 1_555 1_555
O4 Tb1_2 1_555 1_555
O8 Tb1C 1_555 1_555
C7 C8 1_555 1_555
C10 C11 1_555 1_555
C12 C13 1_555 1_555
C20 C21 1_555 1_555
C23 C24 1_555 1_555
C25 C26 1_555 1_555

#END
