
#######################################################################
#
#                 Cambridge Crystallographic Data Centre
#                                CCDC 
#
#######################################################################
#
# If this CIF has been generated from an entry in the Cambridge 
# Structural Database, then it will include bibliographic, chemical, 
# crystal, experimental, refinement or atomic coordinate data resulting 
# from the CCDC's data processing and validation procedures.
#
#######################################################################

data_PEBNOB
_symmetry_cell_setting           orthorhombic
_symmetry_space_group_name_H-M   'P b a 2'
_symmetry_Int_Tables_number      32
_space_group_name_Hall           'P 2 -2ab'
loop_
_symmetry_equiv_pos_site_id
_symmetry_equiv_pos_as_xyz
1 x,y,z
2 -x,-y,z
3 1/2+x,1/2-y,z
4 1/2-x,1/2+y,z
_cell_length_a                   31.7963(4)
_cell_length_b                   7.42310(10)
_cell_length_c                   9.86440(10)
_cell_angle_alpha                90
_cell_angle_beta                 90
_cell_angle_gamma                90
_cell_volume                     2328.27
loop_
_atom_site_label
_atom_site_type_symbol
_atom_site_fract_x
_atom_site_fract_y
_atom_site_fract_z
C1 C 0.0570(3) 0.3775(13) 1.5700(10)
C2 C 0.0540(3) 0.3706(12) 1.0649(10)
O1 O 0.03526(17) 0.3374(8) 0.9557(6)
O2 O 0.0898(2) 0.4454(8) 1.0621(8)
C3 C 0.0338(3) 0.3246(13) 1.1948(10)
C4 C 0.0546(2) 0.3732(9) 1.3166(13)
H1 H 0.0808 0.4342 1.3142
C5 C 0.0362(3) 0.3308(12) 1.4368(11)
C6 C -0.0036(3) 0.2471(12) 1.4439(10)
H2 H -0.0159 0.2218 1.5297
C7 C -0.0248(2) 0.2019(9) 1.3264(13)
C8 C -0.0048(3) 0.2371(13) 1.2018(10)
H3 H -0.0181 0.2001 1.1202
Tb1 Tb 0.096482(11) 0.43378(6) 0.81778(11)
C9 C -0.0676(2) 0.1201(10) 1.3320(12)
C10 C -0.0852(4) 0.0604(12) 1.4529(14)
H4 H -0.0701 0.0758 1.5353
C11 C -0.1237(3) -0.0199(13) 1.4551(12)
H5 H -0.1345 -0.0582 1.5401
N1 N -0.1472(3) -0.0481(13) 1.3447(10)
C12 C -0.1312(4) 0.0082(19) 1.2309(15)
H6 H -0.1471 -0.0124 1.1510
C13 C -0.0920(4) 0.0977(19) 1.2152(13)
H7 H -0.0828 0.1404 1.1294
O3 O 0.0486(2) 0.2814(9) 1.6730(7)
O4 O 0.08263(19) 0.5083(8) 1.5748(6)
O5 O 0.13035(15) 0.7074(7) 0.8132(10)
C14 C 0.1642(2) 0.7872(11) 0.8396(10)
C15 C 0.2412(2) 0.7940(9) 0.7943(9)
H8 H 0.2453 0.8373 0.8840
C16 C 0.2287(3) 0.6685(11) 0.5278(9)
C17 C 0.2694(2) 0.7055(12) 0.5772(8)
H9 H 0.2930 0.6884 0.5194
C18 C 0.2757(3) 0.7669(11) 0.7095(9)
C19 C 0.1950(3) 0.6946(11) 0.6157(9)
H10 H 0.1672 0.6690 0.5852
C20 C 0.2010(3) 0.7578(11) 0.7478(9)
O6 O 0.1687(2) 0.9024(9) 0.9319(8)
C21 C 0.2537(3) 0.5874(10) 0.2922(9)
H11 H 0.2818 0.6144 0.3182
C22 C 0.1814(3) 0.5544(11) 0.3457(10)
H12 H 0.1588 0.5592 0.4087
C23 C 0.2215(3) 0.6066(12) 0.3863(10)
O7 O 0.32479(19) 0.8655(8) 0.8817(7)
C24 C 0.3191(3) 0.8112(12) 0.7597(9)
N2 N 0.2060(2) 0.4888(12) 0.1254(8)
H13 H 0.2007 0.4567 0.0412
C25 C 0.2456(3) 0.5294(12) 0.1610(10)
H14 H 0.2678 0.5186 0.0971
C26 C 0.1740(3) 0.4959(18) 0.2159(13)
H15 H 0.1465 0.4606 0.1895
O8 O 0.34876(18) 0.8097(10) 0.6774(7)
O9 O 0.04304(16) 0.6642(7) 0.8386(7)
H16 H 0.0369 0.7215 0.7670
H17 H 0.0210 0.6408 0.8837
O10 O 0.10120(19) 0.1203(9) 0.8834(8)
H18 H 0.0810 0.0517 0.8595
H19 H 0.1246 0.0674 0.8708
C1_2 C 0.0570(3) 0.3775(13) 0.5700(10)
Tb1_2 Tb 0.096482(11) 0.43378(6) 1.81778(11)
Tb1C Tb 0.403518(11) 0.93378(6) 0.81778(11)
O3_2 O 0.0486(2) 0.2814(9) 0.6730(7)
O4_2 O 0.08263(19) 0.5083(8) 0.5748(6)
O7C O 0.17521(19) 0.3655(8) 0.8817(7)
O8C O 0.15124(18) 0.3097(10) 0.6774(7)
O11 O 0.0000 0.0000 0.7622(17)
H20 H 0.0068 0.0775 0.7016
H20A H -0.0068 -0.0775 0.7016
loop_
_geom_bond_atom_site_label_1
_geom_bond_atom_site_label_2
_geom_bond_site_symmetry_1
_geom_bond_site_symmetry_2
C1 C5 1_555 1_555
C2 O1 1_555 1_555
O1 Tb1 1_555 1_555
O2 C2 1_555 1_555
C3 C2 1_555 1_555
C4 C3 1_555 1_555
H1 C4 1_555 1_555
C5 C4 1_555 1_555
C6 C5 1_555 1_555
H2 C6 1_555 1_555
C7 C6 1_555 1_555
C8 C3 1_555 1_555
H3 C8 1_555 1_555
Tb1 O2 1_555 1_555
C9 C7 1_555 1_555
C10 C9 1_555 1_555
H4 C10 1_555 1_555
C11 C10 1_555 1_555
H5 C11 1_555 1_555
N1 C11 1_555 1_555
C12 N1 1_555 1_555
H6 C12 1_555 1_555
C13 C9 1_555 1_555
H7 C13 1_555 1_555
O3 C1 1_555 1_555
O4 C1 1_555 1_555
O5 Tb1 1_555 1_555
C14 O5 1_555 1_555
C15 H8 1_555 1_555
C16 C17 1_555 1_555
C17 H9 1_555 1_555
C18 C15 1_555 1_555
C19 C16 1_555 1_555
H10 C19 1_555 1_555
C20 C14 1_555 1_555
O6 C14 1_555 1_555
C21 H11 1_555 1_555
C22 H12 1_555 1_555
C23 C16 1_555 1_555
O7 C24 1_555 1_555
C24 C18 1_555 1_555
N2 H13 1_555 1_555
C25 C21 1_555 1_555
H14 C25 1_555 1_555
C26 C22 1_555 1_555
H15 C26 1_555 1_555
O8 C24 1_555 1_555
O9 Tb1 1_555 1_555
H16 O9 1_555 1_555
H17 O9 1_555 1_555
O10 Tb1 1_555 1_555
H18 O10 1_555 1_555
H19 O10 1_555 1_555
O11 H20 1_555 1_555
C1_2 O3_2 1_555 1_555
Tb1_2 O3 1_555 1_555
Tb1C O7 1_555 1_555
O3_2 Tb1 1_555 1_555
O4_2 Tb1 1_555 1_555
O7C Tb1 1_555 1_555
O8C Tb1 1_555 1_555
H20A O11 1_555 1_555
C7 C8 1_555 1_555
C12 C13 1_555 1_555
O4 Tb1_2 1_555 1_555
C15 C20 1_555 1_555
C17 C18 1_555 1_555
C19 C20 1_555 1_555
C21 C23 1_555 1_555
C22 C23 1_555 1_555
N2 C25 1_555 1_555
N2 C26 1_555 1_555
O8 Tb1C 1_555 1_555
C1_2 O4_2 1_555 1_555

#END
