
#######################################################################
#
#                 Cambridge Crystallographic Data Centre
#                                CCDC 
#
#######################################################################
#
# If this CIF has been generated from an entry in the Cambridge 
# Structural Database, then it will include bibliographic, chemical, 
# crystal, experimental, refinement or atomic coordinate data resulting 
# from the CCDC's data processing and validation procedures.
#
#######################################################################

data_PEBNOB01
_symmetry_cell_setting           orthorhombic
_symmetry_space_group_name_H-M   'P b a 2'
_symmetry_Int_Tables_number      32
_space_group_name_Hall           'P 2 -2ab'
loop_
_symmetry_equiv_pos_site_id
_symmetry_equiv_pos_as_xyz
1 x,y,z
2 -x,-y,z
3 1/2-x,1/2+y,z
4 1/2+x,1/2-y,z
_cell_length_a                   31.912(3)
_cell_length_b                   7.5236(6)
_cell_length_c                   9.9045(8)
_cell_angle_alpha                90
_cell_angle_beta                 90
_cell_angle_gamma                90
_cell_volume                     2378
loop_
_atom_site_label
_atom_site_type_symbol
_atom_site_fract_x
_atom_site_fract_y
_atom_site_fract_z
Tb1 Tb 0.096710(9) 0.92468(4) 0.67044(13)
O1 O 0.13071(16) 1.1967(7) 0.6856(11)
O2 O 0.1677(2) 1.3913(11) 0.5577(9)
O3 O 0.34896(17) 1.3025(10) 0.8146(7)
O4 O 0.3245(2) 1.3589(11) 0.6070(8)
O5 O 0.03476(19) 0.8315(10) 0.5365(7)
O6 O 0.0891(3) 0.9417(14) 0.4282(11)
O7 O 0.0835(4) 0.9937(17) -0.0859(9)
O8 O 0.0481(2) 0.7813(10) -0.1801(7)
O9 O 0.04325(15) 1.1575(8) 0.6658(14)
H1 H 0.0168 1.1490 0.6594
H2 H 0.0463 1.2688 0.6772
O10 O 0.0996(2) 0.6052(11) 0.7366(12)
H3 H 0.0901 0.5493 0.6686
H4 H 0.1231 0.5585 0.7549
N1 N 0.2063(2) 0.9835(12) 1.3637(8)
H5 H 0.2019 0.9299 1.4597
N2 N -0.1479(3) 0.4592(14) 0.1441(13)
C1 C 0.1634(2) 1.2795(12) 0.656(2)
C2 C 0.3179(3) 1.3053(14) 0.7311(12)
C3 C 0.2008(2) 1.2477(10) 0.7440(9)
C4 C 0.2417(2) 1.2845(10) 0.6957(12)
H6 H 0.2455 1.3252 0.6079
C5 C 0.2758(2) 1.2598(11) 0.7792(9)
C6 C 0.2683(3) 1.1978(11) 0.9105(9)
H7 H 0.2912 1.1816 0.9674
C7 C 0.2291(3) 1.1597(12) 0.9597(9)
C8 C 0.1945(2) 1.1842(12) 0.8713(10)
H8 H 0.1675 1.1569 0.9003
C9 C 0.2215(3) 1.0988(12) 1.1026(11)
C10 C 0.2532(3) 1.0786(12) 1.1951(13)
H9 H 0.2806 1.1039 1.1697
C11 C 0.2451(3) 1.0202(16) 1.3275(11)
H10 H 0.2669 1.0077 1.3890
C12 C 0.1742(4) 0.987(2) 1.2744(15)
H11 H 0.1476 0.9482 1.2995
C13 C 0.1813(4) 1.0497(19) 1.147(2)
H12 H 0.1588 1.0601 1.0876
C14 C 0.0545(4) 0.8652(18) 0.4316(14)
C15 C 0.0559(3) 0.8725(19) -0.0774(12)
C16 C 0.0338(4) 0.8222(14) 0.2947(12)
C17 C 0.0543(2) 0.8700(9) 0.1672(17)
H13 H 0.0798 0.9299 0.1680
C18 C 0.0367(3) 0.8280(16) 0.0526(12)
C19 C -0.0027(4) 0.7456(14) 0.0579(14)
H14 H -0.0144 0.7164 -0.0252
C20 C -0.0251(2) 0.7042(9) 0.1631(14)
C21 C -0.0055(3) 0.7409(11) 0.2978(11)
H15 H -0.0187 0.7114 0.3784
C22 C -0.0681(2) 0.6240(9) 0.169(2)
C23 C -0.0873(6) 0.5666(17) 0.041(2)
H16 H -0.0738 0.5868 -0.0408
C24 C -0.1235(4) 0.487(2) 0.0442(18)
H17 H -0.1330 0.4443 -0.0384
C25 C -0.1327(5) 0.516(3) 0.268(2)
H18 H -0.1490 0.5036 0.3452
C26 C -0.0894(7) 0.600(2) 0.278(2)
H19 H -0.0785 0.6322 0.3618
Tb1B Tb 0.403290(9) 1.42468(4) 0.67044(13)
Tb1_2 Tb 0.096710(9) 0.92468(4) -0.32956(13)
O3B O 0.15104(17) 0.8025(10) 0.8146(7)
O4B O 0.1755(2) 0.8589(11) 0.6070(8)
O7_2 O 0.0835(4) 0.9937(17) 0.9141(9)
O8_2 O 0.0481(2) 0.7813(10) 0.8199(7)
O11 O 0.0000 0.5000 0.7287(15)
loop_
_geom_bond_atom_site_label_1
_geom_bond_atom_site_label_2
_geom_bond_site_symmetry_1
_geom_bond_site_symmetry_2
Tb1 O1 1_555 1_555
O1 C1 1_555 1_555
O2 C1 1_555 1_555
O3 C2 1_555 1_555
O4 C2 1_555 1_555
O5 Tb1 1_555 1_555
O6 Tb1 1_555 1_555
O7 C15 1_555 1_555
O8 C15 1_555 1_555
O9 Tb1 1_555 1_555
H1 O9 1_555 1_555
H2 O9 1_555 1_555
O10 Tb1 1_555 1_555
H3 O10 1_555 1_555
H4 O10 1_555 1_555
N1 H5 1_555 1_555
N2 C24 1_555 1_555
C1 C3 1_555 1_555
C2 C5 1_555 1_555
C3 C4 1_555 1_555
C4 H6 1_555 1_555
C5 C4 1_555 1_555
C6 C5 1_555 1_555
H7 C6 1_555 1_555
C7 C6 1_555 1_555
C8 C3 1_555 1_555
H8 C8 1_555 1_555
C9 C7 1_555 1_555
C10 C9 1_555 1_555
H9 C10 1_555 1_555
C11 N1 1_555 1_555
H10 C11 1_555 1_555
C12 N1 1_555 1_555
H11 C12 1_555 1_555
C13 C9 1_555 1_555
H12 C13 1_555 1_555
C14 O5 1_555 1_555
C15 C18 1_555 1_555
C16 C14 1_555 1_555
C17 C16 1_555 1_555
H13 C17 1_555 1_555
C18 C17 1_555 1_555
C19 C18 1_555 1_555
H14 C19 1_555 1_555
C20 C19 1_555 1_555
C21 C16 1_555 1_555
H15 C21 1_555 1_555
C22 C20 1_555 1_555
C23 C22 1_555 1_555
H16 C23 1_555 1_555
C24 C23 1_555 1_555
H17 C24 1_555 1_555
C25 N2 1_555 1_555
H18 C25 1_555 1_555
C26 C22 1_555 1_555
H19 C26 1_555 1_555
Tb1B O3 1_555 1_555
Tb1_2 O7 1_555 1_555
O3B Tb1 1_555 1_555
O4B Tb1 1_555 1_555
O7_2 Tb1 1_555 1_555
O8_2 Tb1 1_555 1_555
O4 Tb1B 1_555 1_555
O6 C14 1_555 1_555
O8 Tb1_2 1_555 1_555
C7 C8 1_555 1_555
C10 C11 1_555 1_555
C12 C13 1_555 1_555
C20 C21 1_555 1_555
C25 C26 1_555 1_555

#END
