
#######################################################################
#
#                 Cambridge Crystallographic Data Centre
#                                CCDC 
#
#######################################################################
#
# If this CIF has been generated from an entry in the Cambridge 
# Structural Database, then it will include bibliographic, chemical, 
# crystal, experimental, refinement or atomic coordinate data resulting 
# from the CCDC's data processing and validation procedures.
#
#######################################################################

data_PEBNIV
_symmetry_cell_setting           orthorhombic
_symmetry_space_group_name_H-M   'C m c a'
_symmetry_Int_Tables_number      64
_space_group_name_Hall           '-C 2ac 2'
loop_
_symmetry_equiv_pos_site_id
_symmetry_equiv_pos_as_xyz
1 x,y,z
2 1/2+x,1/2+y,z
3 -x,1/2-y,1/2+z
4 -x,1/2+y,1/2-z
5 x,-y,-z
6 1/2-x,-y,1/2+z
7 1/2-x,y,1/2-z
8 1/2+x,1/2-y,-z
9 -x,-y,-z
10 1/2-x,1/2-y,-z
11 x,1/2+y,1/2-z
12 x,1/2-y,1/2+z
13 -x,y,z
14 1/2+x,y,1/2-z
15 1/2+x,-y,1/2+z
16 1/2-x,1/2+y,z
_cell_length_a                   30.6260(13)
_cell_length_b                   21.4227(13)
_cell_length_c                   12.0158(6)
_cell_angle_alpha                90
_cell_angle_beta                 90
_cell_angle_gamma                90
_cell_volume                     7883.47
loop_
_atom_site_label
_atom_site_type_symbol
_atom_site_fract_x
_atom_site_fract_y
_atom_site_fract_z
N4 N 0.3831(3) 0.4126(5) 0.4837(8)
C11 C 0.4065(4) 0.3955(6) 0.3908(10)
H5 H 0.3914 0.3837 0.3268
C12 C 0.4521(3) 0.3952(6) 0.3897(10)
H6 H 0.4666 0.3846 0.3244
C13 C 0.4761(3) 0.4103(5) 0.4825(8)
C14 C 0.4526(3) 0.4221(6) 0.5766(9)
H7 H 0.4670 0.4299 0.6433
C15 C 0.4069(4) 0.4225(6) 0.5735(9)
H8 H 0.3923 0.4304 0.6398
N4L N 0.6169(3) 0.4126(5) 0.4837(8)
C11L C 0.5935(4) 0.3955(6) 0.3908(10)
H5L H 0.6086 0.3837 0.3268
C12L C 0.5479(3) 0.3952(6) 0.3897(10)
H6L H 0.5334 0.3846 0.3244
C13L C 0.5239(3) 0.4103(5) 0.4825(8)
C14L C 0.5474(3) 0.4221(6) 0.5766(9)
H7L H 0.5330 0.4299 0.6433
C15L C 0.5931(4) 0.4225(6) 0.5735(9)
H8L H 0.6077 0.4304 0.6398
Zn1 Zn 0.31688(2) 0.24242(3) 0.21289(6)
Pr1 Pr 0.255490(16) 0.0000 0.5000
O1 O 0.28717(12) 0.06872(16) 0.3537(3)
O2 O 0.30476(13) 0.14206(19) 0.2295(3)
O3 O 0.29214(16) 0.0781(2) 0.6049(3)
O4 O 0.30885(15) 0.1570(2) 0.7151(3)
O5 O 0.20745(15) 0.0210(2) 0.6719(3)
O6 O 0.20214(14) 0.08424(18) 0.4688(3)
N1 N 0.30035(14) 0.2343(2) 0.3706(4)
N2 N 0.30235(14) 0.2413(2) 0.5541(4)
N3 N 0.38461(16) 0.2393(2) 0.2121(5)
C1 C 0.29622(15) 0.1244(2) 0.3283(4)
C2 C 0.29755(15) 0.1749(2) 0.4126(4)
C3 C 0.29868(15) 0.1795(2) 0.5269(4)
C4 C 0.29992(18) 0.1347(3) 0.6212(4)
C5 C 0.30328(17) 0.2729(3) 0.4583(4)
C6 C 0.4069(2) 0.2055(5) 0.2825(7)
H1 H 0.3916 0.1810 0.3331
C7 C 0.4524(2) 0.2042(5) 0.2861(8)
H2 H 0.4667 0.1798 0.3388
C8 C 0.47578(19) 0.2385(3) 0.2124(6)
C9 C 0.4530(2) 0.2748(5) 0.1401(9)
H3 H 0.4676 0.3010 0.0909
C10 C 0.4074(2) 0.2723(5) 0.1405(8)
H4 H 0.3924 0.2953 0.0872
O7 O 0.3445(6) 0.0000 0.5000
H9 H 0.318(3) 0.111(5) 0.132(11)
H10 H 0.163(4) 0.106(5) 0.509(8)
H11 H 0.311(2) 0.319(3) 0.449(6)
Zn1D Zn 0.31688(2) -0.24242(3) 0.78711(6)
Zn1K Zn 0.31688(2) 0.25758(3) 0.71289(6)
Zn1L Zn 0.68312(2) 0.24242(3) 0.21289(6)
Zn1J Zn 0.31688(2) -0.25758(3) 0.28711(6)
O1D O 0.28717(12) -0.06872(16) 0.6463(3)
O2D O 0.30476(13) -0.14206(19) 0.7705(3)
O3D O 0.29214(16) -0.0781(2) 0.3951(3)
O4D O 0.30885(15) -0.1570(2) 0.2849(3)
O4K O 0.30885(15) 0.3430(2) 0.2151(3)
O4J O 0.30885(15) -0.3430(2) 0.7849(3)
O5D O 0.20745(15) -0.0210(2) 0.3281(3)
O6D O 0.20214(14) -0.08424(18) 0.5312(3)
N1D N 0.30035(14) -0.2343(2) 0.6294(4)
N2D N 0.30235(14) -0.2413(2) 0.4459(4)
N2K N 0.30235(14) 0.2587(2) 0.0541(4)
N2J N 0.30235(14) -0.2587(2) 0.9459(4)
N3L N 0.61539(16) 0.2393(2) 0.2121(5)
N3D N 0.38461(16) -0.2393(2) 0.7879(5)
C1D C 0.29622(15) -0.1244(2) 0.6717(4)
C2D C 0.29755(15) -0.1749(2) 0.5874(4)
C3D C 0.29868(15) -0.1795(2) 0.4731(4)
C4D C 0.29992(18) -0.1347(3) 0.3788(4)
C5D C 0.30328(17) -0.2729(3) 0.5417(4)
C6L C 0.5931(2) 0.2055(5) 0.2825(7)
H1L H 0.6084 0.1810 0.3331
C7L C 0.5476(2) 0.2042(5) 0.2861(8)
H2L H 0.5333 0.1798 0.3388
C8L C 0.52422(19) 0.2385(3) 0.2124(6)
C9L C 0.5470(2) 0.2748(5) 0.1401(9)
H3L H 0.5324 0.3010 0.0909
C10L C 0.5926(2) 0.2723(5) 0.1405(8)
H4L H 0.6076 0.2953 0.0872
H9D H 0.318(3) -0.111(5) 0.868(11)
H10D H 0.163(4) -0.106(5) 0.491(8)
H11D H 0.311(2) -0.319(3) 0.551(6)
loop_
_geom_bond_atom_site_label_1
_geom_bond_atom_site_label_2
_geom_bond_site_symmetry_1
_geom_bond_site_symmetry_2
Zn1 O2 1_555 1_555
Pr1 O1 1_555 1_555
O1 C1 1_555 1_555
O2 C1 1_555 1_555
O3 Pr1 1_555 1_555
O4 C4 1_555 1_555
O5 Pr1 1_555 1_555
O6 Pr1 1_555 1_555
N1 Zn1 1_555 1_555
N2 C3 1_555 1_555
N3 Zn1 1_555 1_555
N4 C11 1_555 1_555
C1 C2 1_555 1_555
C2 N1 1_555 1_555
C3 C2 1_555 1_555
C4 O3 1_555 1_555
C5 N1 1_555 1_555
C6 N3 1_555 1_555
H1 C6 1_555 1_555
C7 C6 1_555 1_555
H2 C7 1_555 1_555
C8 C7 1_555 1_555
C9 C8 1_555 1_555
H3 C9 1_555 1_555
C10 N3 1_555 1_555
H4 C10 1_555 1_555
C11 H5 1_555 1_555
C12 C11 1_555 1_555
H6 C12 1_555 1_555
C13 C12 1_555 1_555
C14 C13 1_555 1_555
H7 C14 1_555 1_555
C15 N4 1_555 1_555
H8 C15 1_555 1_555
O7 Pr1 1_555 1_555
H9 O2 1_555 1_555
H10 O6 1_555 1_555
H11 C5 1_555 1_555
Zn1D O2D 1_555 1_555
Zn1K O4 1_555 1_555
Zn1L N3L 1_555 1_555
Zn1J O4D 1_555 1_555
O1D Pr1 1_555 1_555
O2D C1D 1_555 1_555
O3D Pr1 1_555 1_555
O4D C4D 1_555 1_555
O4K Zn1 1_555 1_555
O4J Zn1D 1_555 1_555
O5D Pr1 1_555 1_555
O6D Pr1 1_555 1_555
N1D Zn1D 1_555 1_555
N2D Zn1J 1_555 1_555
N2K Zn1 1_555 1_555
N2J Zn1D 1_555 1_555
N3L C6L 1_555 1_555
N3D Zn1D 1_555 1_555
N4L C11L 1_555 1_555
C1D O1D 1_555 1_555
C2D N1D 1_555 1_555
C3D N2D 1_555 1_555
C4D O3D 1_555 1_555
C5D N1D 1_555 1_555
C6L H1L 1_555 1_555
C7L C6L 1_555 1_555
H2L C7L 1_555 1_555
C8L C8 1_555 1_555
C9L C8L 1_555 1_555
H3L C9L 1_555 1_555
C10L N3L 1_555 1_555
H4L C10L 1_555 1_555
C11L H5L 1_555 1_555
C12L C11L 1_555 1_555
H6L C12L 1_555 1_555
C13L C13 1_555 1_555
C14L C13L 1_555 1_555
H7L C14L 1_555 1_555
C15L N4L 1_555 1_555
H8L C15L 1_555 1_555
H9D O2D 1_555 1_555
H10D O6D 1_555 1_555
H11D C5D 1_555 1_555
N2 C5 1_555 1_555
N2 Zn1K 1_555 1_555
C3 C4 1_555 1_555
C9 C10 1_555 1_555
C14 C15 1_555 1_555
N2D C5D 1_555 1_555
C1D C2D 1_555 1_555
C2D C3D 1_555 1_555
C3D C4D 1_555 1_555
C7L C8L 1_555 1_555
C9L C10L 1_555 1_555
C12L C13L 1_555 1_555
C14L C15L 1_555 1_555

#END
