
#######################################################################
#
#                 Cambridge Crystallographic Data Centre
#                                CCDC 
#
#######################################################################
#
# If this CIF has been generated from an entry in the Cambridge 
# Structural Database, then it will include bibliographic, chemical, 
# crystal, experimental, refinement or atomic coordinate data resulting 
# from the CCDC's data processing and validation procedures.
#
#######################################################################

data_PEBROF
_symmetry_cell_setting           triclinic
_symmetry_space_group_name_H-M   'P -1'
_symmetry_Int_Tables_number      2
_space_group_name_Hall           '-P 1'
loop_
_symmetry_equiv_pos_site_id
_symmetry_equiv_pos_as_xyz
1 x,y,z
2 -x,-y,-z
_cell_length_a                   8.0116(4)
_cell_length_b                   8.1202(4)
_cell_length_c                   13.8581(6)
_cell_angle_alpha                81.112(2)
_cell_angle_beta                 76.803(2)
_cell_angle_gamma                68.246(2)
_cell_volume                     812.792
loop_
_atom_site_label
_atom_site_type_symbol
_atom_site_fract_x
_atom_site_fract_y
_atom_site_fract_z
Cu1 Cu 0.96948(10) 0.79767(10) 0.70530(6)
N1 N 0.7697(7) 0.7945(8) 0.6137(4)
N2 N 0.2045(7) 0.8026(7) 0.6200(4)
N3 N 0.5152(8) 0.7867(10) 0.5450(5)
N4 N 1.0805(7) 0.5297(8) 0.7173(4)
N5 N 1.0277(8) 0.4161(8) 0.7886(5)
N6 N 0.7925(9) 0.7997(8) 0.8377(4)
H1 H 0.6910 0.7901 0.8206
N7 N 0.7216(8) 1.1798(8) 0.7379(5)
N8 N 0.8709(8) 1.0647(7) 0.6856(4)
C1 C 0.6420(8) 0.7940(8) 0.5866(5)
C2 C 0.3520(8) 0.7975(8) 0.5919(5)
C3 C 1.2243(9) 0.4255(9) 0.6561(5)
H2 H 1.2922 0.4677 0.5987
C4 C 1.2591(10) 0.2484(10) 0.6890(6)
H3 H 1.3520 0.1483 0.6590
C5 C 1.1333(10) 0.2472(10) 0.7726(6)
H4 H 1.1218 0.1447 0.8128
C6 C 0.8672(11) 0.4762(11) 0.8674(6)
H5 H 0.8739 0.3807 0.9219
H6 H 0.7556 0.4985 0.8407
C7 C 0.8530(10) 0.6440(9) 0.9088(5)
H7 H 0.7646 0.6617 0.9725
H8 H 0.9736 0.6318 0.9219
C8 C 0.7202(11) 0.9670(10) 0.8854(6)
H9 H 0.8238 0.9931 0.8988
H10 H 0.6422 0.9518 0.9502
C9 C 0.6126(12) 1.1209(12) 0.8269(6)
H11 H 0.5181 1.0896 0.8065
H12 H 0.5488 1.2211 0.8699
C10 C 0.6818(10) 1.3475(9) 0.6924(5)
H13 H 0.5819 1.4502 0.7146
C11 C 0.8112(11) 1.3403(10) 0.6099(6)
H14 H 0.8214 1.4368 0.5635
C12 C 0.9268(9) 1.1635(9) 0.6061(5)
H15 H 1.0299 1.1189 0.5552
Cu1_2 Cu -0.03052(10) 0.79767(10) 0.70530(6)
N2_2 N 1.2045(7) 0.8026(7) 0.6200(4)
Cl1 Cl 0.3298(2) 0.7332(2) 0.88220(13)
O1 O 0.3255(7) 0.5565(8) 0.8797(4)
O2 O 0.4107(9) 0.7333(9) 0.9642(4)
O3 O 0.4391(8) 0.7802(9) 0.7926(4)
O4 O 0.1485(8) 0.8539(9) 0.8932(8)
loop_
_geom_bond_atom_site_label_1
_geom_bond_atom_site_label_2
_geom_bond_site_symmetry_1
_geom_bond_site_symmetry_2
Cu1 N1 1_555 1_555
Cl1 O1 1_555 1_555
O2 Cl1 1_555 1_555
O3 Cl1 1_555 1_555
O4 Cl1 1_555 1_555
N1 C1 1_555 1_555
N2 C2 1_555 1_555
N3 C1 1_555 1_555
N4 Cu1 1_555 1_555
N5 N4 1_555 1_555
N6 Cu1 1_555 1_555
H1 N6 1_555 1_555
N7 N8 1_555 1_555
N8 Cu1 1_555 1_555
C2 N3 1_555 1_555
C3 N4 1_555 1_555
H2 C3 1_555 1_555
C4 C3 1_555 1_555
H3 C4 1_555 1_555
C5 N5 1_555 1_555
H4 C5 1_555 1_555
C6 N5 1_555 1_555
H5 C6 1_555 1_555
H6 C6 1_555 1_555
C7 N6 1_555 1_555
H7 C7 1_555 1_555
H8 C7 1_555 1_555
C8 N6 1_555 1_555
H9 C8 1_555 1_555
H10 C8 1_555 1_555
C9 N7 1_555 1_555
H11 C9 1_555 1_555
H12 C9 1_555 1_555
C10 N7 1_555 1_555
H13 C10 1_555 1_555
C11 C10 1_555 1_555
H14 C11 1_555 1_555
C12 N8 1_555 1_555
H15 C12 1_555 1_555
Cu1_2 N2 1_555 1_555
N2_2 Cu1 1_555 1_555
C4 C5 1_555 1_555
C6 C7 1_555 1_555
C8 C9 1_555 1_555
C11 C12 1_555 1_555

#END
