
#######################################################################
#
#                 Cambridge Crystallographic Data Centre
#                                CCDC 
#
#######################################################################
#
# If this CIF has been generated from an entry in the Cambridge 
# Structural Database, then it will include bibliographic, chemical, 
# crystal, experimental, refinement or atomic coordinate data resulting 
# from the CCDC's data processing and validation procedures.
#
#######################################################################

data_PEBRAR
_symmetry_cell_setting           monoclinic
_symmetry_space_group_name_H-M   'P 21/c'
_symmetry_Int_Tables_number      14
_space_group_name_Hall           '-P 2ybc'
loop_
_symmetry_equiv_pos_site_id
_symmetry_equiv_pos_as_xyz
1 x,y,z
2 -x,1/2+y,1/2-z
3 -x,-y,-z
4 x,1/2-y,1/2+z
_cell_length_a                   20.563(2)
_cell_length_b                   5.5740(6)
_cell_length_c                   15.2057(15)
_cell_angle_alpha                90
_cell_angle_beta                 104.8328(15)
_cell_angle_gamma                90
_cell_volume                     1684.77
loop_
_atom_site_label
_atom_site_type_symbol
_atom_site_fract_x
_atom_site_fract_y
_atom_site_fract_z
Ag1 Ag 0.216150(10) -0.62472(4) -0.403520(14)
C1 C 0.12851(12) -0.0200(4) -0.75026(15)
C2 C 0.16105(12) -0.3773(4) -0.63881(15)
C3 C 0.10192(12) -0.2971(5) -0.62736(16)
C4 C 0.28573(14) -0.5893(6) -0.59892(19)
H1 H 0.2833 -0.5934 -0.6641
H2 H 0.3151 -0.7187 -0.5681
H3 H 0.3039 -0.4344 -0.5736
C5 C 0.08088(15) -0.1710(5) -0.46587(18)
H4 H 0.1297 -0.1628 -0.4402
H5 H 0.0587 -0.2021 -0.4171
H6 H 0.0648 -0.0183 -0.4954
C6 C 0.39509(12) -0.0580(4) -0.38283(16)
C7 C 0.43506(13) -0.2249(5) -0.41124(17)
H7 H 0.4164 -0.3725 -0.4372
C8 C 0.50283(14) -0.1755(5) -0.40160(17)
H8 H 0.5301 -0.2893 -0.4219
C9 C 0.53111(12) 0.0381(5) -0.36261(16)
C10 C 0.48980(13) 0.2023(5) -0.33475(18)
H9 H 0.5084 0.3495 -0.3083
C11 C 0.42211(13) 0.1568(5) -0.34450(18)
H10 H 0.3946 0.2716 -0.3251
C12 C 0.60483(15) 0.0888(6) -0.3505(2)
H11 H 0.6145 0.2549 -0.3303
H12 H 0.6164 0.0648 -0.4085
H13 H 0.6315 -0.0205 -0.3048
O1 O 0.30680(10) -0.3739(3) -0.37252(15)
O2 O 0.27419(10) -0.0712(4) -0.48998(15)
O3 O 0.28624(10) 0.0364(4) -0.33261(15)
S1 S 0.12604(3) 0.19783(11) -0.82627(4)
S2 S 0.06544(3) -0.05787(12) -0.69665(4)
S3 S 0.19202(3) -0.22540(11) -0.71988(4)
S4 S 0.20282(3) -0.62892(10) -0.58234(4)
S5 S 0.06146(3) -0.40986(12) -0.54845(4)
S6 S 0.30866(3) -0.11951(10) -0.39549(4)
Ag1_2 Ag 0.216150(10) 0.37528(4) -0.403520(14)
Ag1C Ag 0.216150(10) 0.12472(4) -0.903520(14)
O3_2 O 0.28624(10) -0.9636(4) -0.33261(15)
S1C S 0.12604(3) -0.69783(11) -0.32627(4)
loop_
_geom_bond_atom_site_label_1
_geom_bond_atom_site_label_2
_geom_bond_site_symmetry_1
_geom_bond_site_symmetry_2
Ag1 O1 1_555 1_555
C1 S1 1_555 1_555
C2 C3 1_555 1_555
C3 S2 1_555 1_555
C4 H1 1_555 1_555
H2 C4 1_555 1_555
H3 C4 1_555 1_555
C5 H4 1_555 1_555
H5 C5 1_555 1_555
H6 C5 1_555 1_555
C6 C7 1_555 1_555
C7 H7 1_555 1_555
C8 C7 1_555 1_555
H8 C8 1_555 1_555
C9 C8 1_555 1_555
C10 C9 1_555 1_555
H9 C10 1_555 1_555
C11 C6 1_555 1_555
H10 C11 1_555 1_555
C12 C9 1_555 1_555
H11 C12 1_555 1_555
H12 C12 1_555 1_555
H13 C12 1_555 1_555
O1 S6 1_555 1_555
O2 S6 1_555 1_555
O3 S6 1_555 1_555
S1 Ag1C 1_555 1_555
S2 C1 1_555 1_555
S3 C1 1_555 1_555
S4 Ag1 1_555 1_555
S5 C3 1_555 1_555
S6 C6 1_555 1_555
Ag1_2 O3 1_555 1_555
O3_2 Ag1 1_555 1_555
S1C Ag1 1_555 1_555
C2 S3 1_555 1_555
C2 S4 1_555 1_555
C4 S4 1_555 1_555
C5 S5 1_555 1_555
C10 C11 1_555 1_555

#END
