
#######################################################################
#
#                 Cambridge Crystallographic Data Centre
#                                CCDC 
#
#######################################################################
#
# If this CIF has been generated from an entry in the Cambridge 
# Structural Database, then it will include bibliographic, chemical, 
# crystal, experimental, refinement or atomic coordinate data resulting 
# from the CCDC's data processing and validation procedures.
#
#######################################################################

data_PEBWUQ
_symmetry_cell_setting           triclinic
_symmetry_space_group_name_H-M   'P -1'
_symmetry_Int_Tables_number      2
_space_group_name_Hall           '-P 1'
loop_
_symmetry_equiv_pos_site_id
_symmetry_equiv_pos_as_xyz
1 x,y,z
2 -x,-y,-z
_cell_length_a                   5.6791(11)
_cell_length_b                   8.7859(17)
_cell_length_c                   12.144(2)
_cell_angle_alpha                99.929(2)
_cell_angle_beta                 91.851(2)
_cell_angle_gamma                97.333(2)
_cell_volume                     591.064
loop_
_atom_site_label
_atom_site_type_symbol
_atom_site_fract_x
_atom_site_fract_y
_atom_site_fract_z
Cu1 Cu 0.0000 1.0000 0.0000
Cu2 Cu 0.29522(13) 0.37748(8) 0.03918(6)
P1 P 0.1944(3) 0.72531(18) 0.07847(13)
O1 O 0.3616(7) 0.6039(5) 0.0434(3)
O2 O -0.0575(7) 0.6497(5) 0.0872(3)
O3 O 0.2187(7) 0.8461(5) 0.0019(4)
O4 O -0.2600(8) 0.8416(5) -0.0356(4)
H1 H -0.3847 0.8597 -0.0626
N1 N 0.3873(11) 0.4124(7) 0.2050(5)
C1 C 0.2948(11) 0.8222(8) 0.2206(5)
C2 C 0.1612(16) 0.8073(14) 0.3096(7)
H2 H 0.0123 0.7475 0.2985
C3 C 0.2421(18) 0.8787(14) 0.4146(7)
H3 H 0.1398 0.8684 0.4719
C4 C 0.4544(12) 0.9619(8) 0.4428(6)
C5 C 0.5899(18) 0.9824(14) 0.3537(8)
H4 H 0.7370 1.0443 0.3671
C6 C 0.5141(18) 0.9130(14) 0.2418(8)
H5 H 0.6110 0.9285 0.1834
C7 C 0.5794(15) 0.5021(12) 0.2521(7)
H6 H 0.6893 0.5441 0.2066
C8 C 0.6250(16) 0.5368(13) 0.3677(6)
H7 H 0.7624 0.6028 0.3968
C9 C 0.4757(15) 0.4776(9) 0.4390(6)
C10 C 0.277(2) 0.3827(13) 0.3896(7)
H8 H 0.1645 0.3380 0.4327
C11 C 0.247(2) 0.3545(14) 0.2730(7)
H9 H 0.1122 0.2876 0.2413
Cu1_2 Cu 1.0000 1.0000 1.0000
Cu2A Cu 0.70478(13) 1.62252(8) 0.96082(6)
Cu2A_2 Cu 0.70478(13) 0.62252(8) -0.03918(6)
Cu2A_3 Cu -0.29522(13) 0.62252(8) -0.03918(6)
Cu2_2 Cu 0.29522(13) 1.37748(8) 1.03918(6)
Cu2_3 Cu 1.29522(13) 1.37748(8) 1.03918(6)
Cu2A_4 Cu 0.70478(13) 0.62252(8) 0.96082(6)
Cu2_4 Cu 0.29522(13) 1.37748(8) 0.03918(6)
P1A P 0.8056(3) 1.27469(18) 0.92153(13)
O1A O 0.6384(7) 1.3961(5) 0.9566(3)
O1A_2 O 0.6384(7) 0.3961(5) -0.0434(3)
O1_2 O 0.3616(7) 1.6039(5) 1.0434(3)
O2A O 1.0575(7) 1.3503(5) 0.9128(3)
O2A_2 O 0.0575(7) 0.3503(5) -0.0872(3)
O2_2 O 0.9425(7) 1.6497(5) 1.0872(3)
O3A O 0.7813(7) 1.1539(5) 0.9981(4)
O3A_2 O -0.2187(7) 1.1539(5) -0.0019(4)
O4A O 0.2600(8) 1.1584(5) 0.0356(4)
O4A_2 O 0.2600(8) 0.1584(5) 0.0356(4)
O4_2 O 0.7400(8) 1.8416(5) 0.9644(4)
H1A H 0.3847 1.1403 0.0626
H1A_2 H 0.3847 0.1403 0.0626
H1_2 H 0.6153 1.8597 0.9374
N1A N 0.6127(11) 0.5876(7) 0.7950(5)
N1A_2 N 0.6127(11) 1.5876(7) 0.7950(5)
C1A C 0.7052(11) 1.1778(8) 0.7794(5)
C2A C 0.8388(16) 1.1927(14) 0.6904(7)
H2A H 0.9877 1.2525 0.7015
C3A C 0.7579(18) 1.1213(14) 0.5854(7)
H3A H 0.8602 1.1316 0.5281
C4A C 0.5456(12) 1.0381(8) 0.5572(6)
C5A C 0.4101(18) 1.0176(14) 0.6463(8)
H4A H 0.2630 0.9557 0.6329
C6A C 0.4859(18) 1.0870(14) 0.7582(8)
H5A H 0.3890 1.0715 0.8166
C7A C 0.4206(15) 0.4979(12) 0.7479(7)
H6A H 0.3107 0.4559 0.7934
C8A C 0.3750(16) 0.4632(13) 0.6323(6)
H7A H 0.2376 0.3972 0.6032
C9A C 0.5243(15) 0.5224(9) 0.5610(6)
C10A C 0.723(2) 0.6173(13) 0.6104(7)
H8A H 0.8355 0.6620 0.5673
C11A C 0.753(2) 0.6455(14) 0.7270(7)
H9A H 0.8878 0.7124 0.7587
loop_
_geom_bond_atom_site_label_1
_geom_bond_atom_site_label_2
_geom_bond_site_symmetry_1
_geom_bond_site_symmetry_2
Cu1 O3 1_555 1_555
Cu2 O1 1_555 1_555
P1 O1 1_555 1_555
O1 Cu2A_2 1_555 1_555
O2 P1 1_555 1_555
O3 P1 1_555 1_555
O4 Cu1 1_555 1_555
H1 O4 1_555 1_555
N1 Cu2 1_555 1_555
C1 P1 1_555 1_555
C2 C1 1_555 1_555
H2 C2 1_555 1_555
C3 C2 1_555 1_555
H3 C3 1_555 1_555
C4 C3 1_555 1_555
C5 C4 1_555 1_555
H4 C5 1_555 1_555
C6 C1 1_555 1_555
H5 C6 1_555 1_555
C7 N1 1_555 1_555
H6 C7 1_555 1_555
C8 C7 1_555 1_555
H7 C8 1_555 1_555
C9 C8 1_555 1_555
C10 C9 1_555 1_555
H8 C10 1_555 1_555
C11 N1 1_555 1_555
H9 C11 1_555 1_555
Cu1_2 O3A 1_555 1_555
Cu2A O1A 1_555 1_555
Cu2A_2 O1A_2 1_555 1_555
Cu2A_3 O2 1_555 1_555
Cu2_2 O1A 1_555 1_555
Cu2_3 O2A 1_555 1_555
Cu2A_4 N1A 1_555 1_555
Cu2_4 O4A 1_555 1_555
P1A O1A 1_555 1_555
O1A_2 Cu2 1_555 1_555
O1_2 Cu2A 1_555 1_555
O2A P1A 1_555 1_555
O2A_2 Cu2 1_555 1_555
O2_2 Cu2A 1_555 1_555
O3A P1A 1_555 1_555
O3A_2 Cu1 1_555 1_555
O4A Cu1 1_555 1_555
O4A_2 Cu2 1_555 1_555
O4_2 Cu2A 1_555 1_555
H1A O4A 1_555 1_555
H1A_2 O4A_2 1_555 1_555
H1_2 O4_2 1_555 1_555
N1A C7A 1_555 1_555
N1A_2 Cu2A 1_555 1_555
C1A P1A 1_555 1_555
C2A C1A 1_555 1_555
H2A C2A 1_555 1_555
C3A C2A 1_555 1_555
H3A C3A 1_555 1_555
C4A C4 1_555 1_555
C5A C4A 1_555 1_555
H4A C5A 1_555 1_555
C6A C1A 1_555 1_555
H5A C6A 1_555 1_555
C7A H6A 1_555 1_555
C8A C7A 1_555 1_555
H7A C8A 1_555 1_555
C9A C9 1_555 1_555
C10A C9A 1_555 1_555
H8A C10A 1_555 1_555
C11A N1A 1_555 1_555
H9A C11A 1_555 1_555
O4 Cu2A_3 1_555 1_555
C5 C6 1_555 1_555
C10 C11 1_555 1_555
Cu2_2 O1_2 1_555 1_555
C3A C4A 1_555 1_555
C5A C6A 1_555 1_555
C8A C9A 1_555 1_555
C10A C11A 1_555 1_555

#END
