
#######################################################################
#
#                 Cambridge Crystallographic Data Centre
#                                CCDC 
#
#######################################################################
#
# If this CIF has been generated from an entry in the Cambridge 
# Structural Database, then it will include bibliographic, chemical, 
# crystal, experimental, refinement or atomic coordinate data resulting 
# from the CCDC's data processing and validation procedures.
#
#######################################################################

data_PECDIL
_symmetry_cell_setting           triclinic
_symmetry_space_group_name_H-M   'P -1'
_symmetry_Int_Tables_number      2
_space_group_name_Hall           '-P 1'
loop_
_symmetry_equiv_pos_site_id
_symmetry_equiv_pos_as_xyz
1 x,y,z
2 -x,-y,-z
_cell_length_a                   6.642(3)
_cell_length_b                   8.050(2)
_cell_length_c                   15.156(5)
_cell_angle_alpha                104.39(2)
_cell_angle_beta                 91.13(3)
_cell_angle_gamma                94.84(3)
_cell_volume                     781.444
loop_
_atom_site_label
_atom_site_type_symbol
_atom_site_fract_x
_atom_site_fract_y
_atom_site_fract_z
U1 U 0.5000 0.5000 0.5000
O1 O 0.4151(3) 0.2015(2) 0.39734(13)
O2 O 0.3136(4) 0.4066(3) 0.34719(15)
O3 O 0.2439(5) 0.1440(3) 0.26858(17)
O4 O 0.2686(3) 0.4791(3) 0.55257(13)
O5 O 0.3893(3) 0.7300(2) 0.44485(12)
N1 N 0.3203(4) 0.2470(3) 0.33479(16)
N2 N 0.1062(3) 0.8646(3) 0.44880(13)
C1 C 1.2380(8) 0.6998(9) -0.2107(4)
H1 H 1.1916 0.5818 -0.2386
H2 H 1.3794 0.7192 -0.2205
H3 H 1.1638 0.7739 -0.2372
C2 C 1.2054(6) 0.7379(6) -0.1105(3)
H4 H 1.2573 0.8561 -0.0828
H5 H 1.2838 0.6641 -0.0844
C3 C 0.9886(6) 0.7134(6) -0.0854(2)
H6 H 0.9354 0.5959 -0.1140
H7 H 0.9104 0.7892 -0.1101
C4 C 0.9591(5) 0.7485(5) 0.0159(2)
H8 H 1.0131 0.8657 0.0446
H9 H 1.0360 0.6719 0.0405
C5 C 0.7399(5) 0.7249(5) 0.0403(2)
H10 H 0.6854 0.6080 0.0114
H11 H 0.6629 0.8022 0.0162
C6 C 0.7126(5) 0.7593(4) 0.14234(19)
H12 H 0.7903 0.6822 0.1662
H13 H 0.7677 0.8762 0.1710
C7 C 0.4948(5) 0.7366(4) 0.16895(18)
H14 H 0.4176 0.8177 0.1482
H15 H 0.4370 0.6213 0.1386
C8 C 0.4767(4) 0.7645(4) 0.27105(17)
H16 H 0.5423 0.8772 0.3012
H17 H 0.5483 0.6793 0.2910
C9 C 0.2602(4) 0.7528(3) 0.30095(16)
H18 H 0.1874 0.8380 0.2815
H19 H 0.1939 0.6398 0.2719
C10 C 0.2534(4) 0.7830(3) 0.40337(15)
C11 C 0.1025(4) 0.8955(3) 0.54869(16)
H20 H 0.2289 0.8680 0.5722
H21 H -0.0065 0.8220 0.5648
C12 C -0.0720(4) 0.9171(4) 0.40949(16)
H22 H -0.1903 0.8453 0.4189
H23 H -0.0581 0.8996 0.3443
U1_2 U -0.5000 1.5000 0.5000
O1A O 0.5849(3) 0.7985(2) 0.60266(13)
O2A O 0.6864(4) 0.5934(3) 0.65281(15)
O3A O 0.7561(5) 0.8560(3) 0.73142(17)
O4A O 0.7314(3) 0.5209(3) 0.44743(13)
O5A O -0.3893(3) 1.2700(2) 0.55515(12)
O5A_2 O 0.6107(3) 0.2700(2) 0.55515(12)
N1A N 0.6797(4) 0.7530(3) 0.66521(16)
N2A N -0.1062(3) 1.1354(3) 0.55120(13)
C1A C -1.2380(8) 1.3002(9) 1.2107(4)
H1A H -1.1916 1.4182 1.2386
H2A H -1.3794 1.2808 1.2205
H3A H -1.1638 1.2261 1.2372
C2A C -1.2054(6) 1.2621(6) 1.1105(3)
H4A H -1.2573 1.1439 1.0828
H5A H -1.2838 1.3359 1.0844
C3A C -0.9886(6) 1.2866(6) 1.0854(2)
H6A H -0.9354 1.4041 1.1140
H7A H -0.9104 1.2108 1.1101
C4A C -0.9591(5) 1.2515(5) 0.9841(2)
H8A H -1.0131 1.1343 0.9554
H9A H -1.0360 1.3281 0.9595
C5A C -0.7399(5) 1.2751(5) 0.9597(2)
H10A H -0.6854 1.3920 0.9886
H11A H -0.6629 1.1978 0.9838
C6A C -0.7126(5) 1.2407(4) 0.85766(19)
H12A H -0.7903 1.3178 0.8338
H13A H -0.7677 1.1238 0.8290
C7A C -0.4948(5) 1.2634(4) 0.83105(18)
H14A H -0.4176 1.1823 0.8518
H15A H -0.4370 1.3787 0.8614
C8A C -0.4767(4) 1.2355(4) 0.72895(17)
H16A H -0.5423 1.1228 0.6988
H17A H -0.5483 1.3207 0.7090
C9A C -0.2602(4) 1.2472(3) 0.69905(16)
H18A H -0.1874 1.1620 0.7185
H19A H -0.1939 1.3602 0.7281
C10A C -0.2534(4) 1.2170(3) 0.59663(15)
C11A C -0.1025(4) 1.1045(3) 0.45131(16)
H20A H -0.2289 1.1320 0.4278
H21A H 0.0065 1.1780 0.4352
C12A C 0.0720(4) 1.0829(4) 0.59051(16)
H22A H 0.1903 1.1547 0.5811
H23A H 0.0581 1.1004 0.6557
loop_
_geom_bond_atom_site_label_1
_geom_bond_atom_site_label_2
_geom_bond_site_symmetry_1
_geom_bond_site_symmetry_2
U1 O1 1_555 1_555
O1 N1 1_555 1_555
O2 U1 1_555 1_555
O3 N1 1_555 1_555
O4 U1 1_555 1_555
O5 U1 1_555 1_555
N1 O2 1_555 1_555
N2 C10 1_555 1_555
C1 H1 1_555 1_555
H2 C1 1_555 1_555
H3 C1 1_555 1_555
C2 C1 1_555 1_555
H4 C2 1_555 1_555
H5 C2 1_555 1_555
C3 C2 1_555 1_555
H6 C3 1_555 1_555
H7 C3 1_555 1_555
C4 C3 1_555 1_555
H8 C4 1_555 1_555
H9 C4 1_555 1_555
C5 C4 1_555 1_555
H10 C5 1_555 1_555
H11 C5 1_555 1_555
C6 C5 1_555 1_555
H12 C6 1_555 1_555
H13 C6 1_555 1_555
C7 C6 1_555 1_555
H14 C7 1_555 1_555
H15 C7 1_555 1_555
C8 C7 1_555 1_555
H16 C8 1_555 1_555
H17 C8 1_555 1_555
C9 C8 1_555 1_555
H18 C9 1_555 1_555
H19 C9 1_555 1_555
C10 O5 1_555 1_555
C11 N2 1_555 1_555
H20 C11 1_555 1_555
H21 C11 1_555 1_555
C12 N2 1_555 1_555
H22 C12 1_555 1_555
H23 C12 1_555 1_555
U1_2 O5A 1_555 1_555
O1A U1 1_555 1_555
O2A U1 1_555 1_555
O3A N1A 1_555 1_555
O4A U1 1_555 1_555
O5A C10A 1_555 1_555
O5A_2 U1 1_555 1_555
N1A O1A 1_555 1_555
N2A C10A 1_555 1_555
C1A H1A 1_555 1_555
H2A C1A 1_555 1_555
H3A C1A 1_555 1_555
C2A C1A 1_555 1_555
H4A C2A 1_555 1_555
H5A C2A 1_555 1_555
C3A C2A 1_555 1_555
H6A C3A 1_555 1_555
H7A C3A 1_555 1_555
C4A C3A 1_555 1_555
H8A C4A 1_555 1_555
H9A C4A 1_555 1_555
C5A C4A 1_555 1_555
H10A C5A 1_555 1_555
H11A C5A 1_555 1_555
C6A C5A 1_555 1_555
H12A C6A 1_555 1_555
H13A C6A 1_555 1_555
C7A C6A 1_555 1_555
H14A C7A 1_555 1_555
H15A C7A 1_555 1_555
C8A C7A 1_555 1_555
H16A C8A 1_555 1_555
H17A C8A 1_555 1_555
C9A C8A 1_555 1_555
H18A C9A 1_555 1_555
H19A C9A 1_555 1_555
C10A C9A 1_555 1_555
C11A C12 1_555 1_555
H20A C11A 1_555 1_555
H21A C11A 1_555 1_555
C12A C11 1_555 1_555
H22A C12A 1_555 1_555
H23A C12A 1_555 1_555
C9 C10 1_555 1_555
O2A N1A 1_555 1_555
N2A C11A 1_555 1_555
N2A C12A 1_555 1_555

#END
