
#######################################################################
#
#                 Cambridge Crystallographic Data Centre
#                                CCDC 
#
#######################################################################
#
# If this CIF has been generated from an entry in the Cambridge 
# Structural Database, then it will include bibliographic, chemical, 
# crystal, experimental, refinement or atomic coordinate data resulting 
# from the CCDC's data processing and validation procedures.
#
#######################################################################

data_PECDEI
_symmetry_cell_setting           monoclinic
_symmetry_space_group_name_H-M   'C 2/c'
_symmetry_Int_Tables_number      15
_space_group_name_Hall           '-C 2yn'
loop_
_symmetry_equiv_pos_site_id
_symmetry_equiv_pos_as_xyz
1 x,y,z
2 -x,y,1/2-z
3 1/2+x,1/2+y,z
4 1/2-x,1/2+y,1/2-z
5 -x,-y,-z
6 x,-y,1/2+z
7 1/2-x,1/2-y,-z
8 1/2+x,1/2-y,1/2+z
_cell_length_a                   28.891(3)
_cell_length_b                   12.8115(12)
_cell_length_c                   20.640(3)
_cell_angle_alpha                90
_cell_angle_beta                 128.629(4)
_cell_angle_gamma                90
_cell_volume                     5968.11
loop_
_atom_site_label
_atom_site_type_symbol
_atom_site_fract_x
_atom_site_fract_y
_atom_site_fract_z
Co1 Co 0.22041(3) 0.98351(5) 0.40876(4)
O1 O 0.27341(16) 1.0070(3) 0.52738(19)
N1 N 0.24016(18) 1.1978(3) 0.3821(2)
H1 H 0.2699 1.2012 0.4341
O2 O 0.64053(15) 0.5559(3) 0.8678(2)
N2 N 0.23070(18) 1.2882(3) 0.0986(2)
H2 H 0.2470 1.2572 0.0804
N3 N 0.20227(18) 1.1171(3) 0.3466(2)
O3 O 0.69158(16) 0.6962(3) 0.9372(2)
N4 N 0.48894(18) 0.9621(3) 0.9126(2)
C1 C 0.5931(2) 0.7851(4) 0.9144(3)
H3 H 0.6255 0.8281 0.9349
N5 N 0.23611(17) 1.3920(3) 0.1151(2)
C2 C 0.2262(2) 1.2727(4) 0.3268(3)
N6 N 0.45173(18) 0.7851(3) 0.8836(2)
C3 C 0.5469(2) 0.8221(4) 0.9113(3)
C4 C 0.4992(2) 0.7555(4) 0.8826(3)
C5 C 0.6450(2) 0.6455(4) 0.8981(3)
C6 C 0.2040(2) 1.4077(4) 0.1413(3)
C7 C 0.5923(2) 0.6858(4) 0.8879(3)
C8 C 0.1973(2) 1.5162(4) 0.1621(3)
H4 H 0.1753 1.5582 0.1128
H5 H 0.2358 1.5463 0.2023
H6 H 0.1766 1.5134 0.1845
C9 C 0.1759(2) 1.2388(4) 0.2512(3)
C10 C 0.1976(2) 1.2394(4) 0.1136(3)
C11 C 0.4010(2) 0.9155(4) 0.7712(3)
C12 C 0.4978(2) 0.6566(4) 0.8536(3)
H7 H 0.4652 0.6135 0.8321
C13 C 0.5471(2) 0.9327(4) 0.9380(3)
H8 H 0.5583 0.9808 0.9135
H9 H 0.5764 0.9381 0.9978
O4 O 0.3283(2) 1.1389(4) 0.5405(2)
C14 C 0.3639(2) 1.0369(5) 0.6591(3)
C15 C 0.3592(2) 0.9445(5) 0.6881(3)
H10 H 0.3276 0.9002 0.6517
C16 C 0.4521(2) 1.0767(4) 0.7960(3)
H11 H 0.4836 1.1212 0.8323
C17 C 0.2621(3) 1.3688(4) 0.3523(3)
H12 H 0.2796 1.3717 0.3251
H13 H 0.2929 1.3683 0.4113
H14 H 0.2372 1.4287 0.3369
C18 C 0.1800(2) 1.3151(4) 0.1427(3)
C19 C 0.1428(2) 1.2967(4) 0.1699(3)
H15 H 0.1297 1.3634 0.1754
H16 H 0.1079 1.2569 0.1275
C20 C 0.5438(2) 0.6218(4) 0.8563(3)
H17 H 0.5425 0.5554 0.8369
C21 C 0.4470(2) 0.9848(4) 0.8255(3)
C22 C 0.4688(2) 0.8787(4) 0.9363(3)
H18 H 0.5000 0.8603 0.9938
H19 H 0.4349 0.9025 0.9317
C23 C 0.4115(2) 1.1040(4) 0.7137(3)
H20 H 0.4156 1.1663 0.6945
C24 C 0.3971(2) 0.8118(4) 0.8006(3)
H21 H 0.3892 0.7584 0.7615
H22 H 0.3641 0.8125 0.8019
C25 C 0.1838(2) 1.1265(4) 0.0980(3)
H23 H 0.1417 1.1170 0.0595
H24 H 0.1994 1.0920 0.1492
H25 H 0.2015 1.0974 0.0752
C26 C 0.1626(2) 1.1423(4) 0.2661(3)
C27 C 0.3189(3) 1.0654(6) 0.5695(3)
C28 C 0.1134(3) 1.0699(5) 0.2069(4)
H26 H 0.1250 1.0259 0.1817
H27 H 0.0790 1.1094 0.1648
H28 H 0.1043 1.0275 0.2360
Co1G Co 0.72041(3) 0.51649(5) 0.90876(4)
Co1C Co 0.27959(3) 1.48351(5) 0.09124(4)
O2G O 0.14053(15) 0.9441(3) 0.3678(2)
N5C N 0.26389(17) 0.8920(3) 0.3849(2)
O5 O 0.0757(4) 0.2438(7) 0.4225(5)
O6? O 0.3711(5) 1.3572(8) 0.5707(6)
O7? O 0.0158(4) 0.1766(8) 0.3717(6)
O8? O 0.4471(4) 1.3773(6) 0.7046(5)
O9? O -0.0762(5) 0.8576(9) 0.4560(7)
O10? O -0.0188(7) 1.0974(9) 0.0025(7)
O11? O 0.0275(9) 1.0359(17) 0.0042(12)
loop_
_geom_bond_atom_site_label_1
_geom_bond_atom_site_label_2
_geom_bond_site_symmetry_1
_geom_bond_site_symmetry_2
Co1 O1 1_555 1_555
O1 C27 1_555 1_555
N1 H1 1_555 1_555
O2 C5 1_555 1_555
N2 H2 1_555 1_555
N3 Co1 1_555 1_555
O3 C5 1_555 1_555
N4 C13 1_555 1_555
C1 H3 1_555 1_555
N5 N2 1_555 1_555
C2 N1 1_555 1_555
N6 C4 1_555 1_555
C3 C1 1_555 1_555
C4 C3 1_555 1_555
C5 C7 1_555 1_555
C6 N5 1_555 1_555
C7 C1 1_555 1_555
C8 C6 1_555 1_555
H4 C8 1_555 1_555
H5 C8 1_555 1_555
H6 C8 1_555 1_555
C9 C2 1_555 1_555
C10 N2 1_555 1_555
C11 C15 1_555 1_555
C12 C4 1_555 1_555
H7 C12 1_555 1_555
C13 C3 1_555 1_555
H8 C13 1_555 1_555
H9 C13 1_555 1_555
O4 C27 1_555 1_555
C14 C15 1_555 1_555
C15 H10 1_555 1_555
C16 H11 1_555 1_555
C17 C2 1_555 1_555
H12 C17 1_555 1_555
H13 C17 1_555 1_555
H14 C17 1_555 1_555
C18 C6 1_555 1_555
C19 C9 1_555 1_555
H15 C19 1_555 1_555
H16 C19 1_555 1_555
C20 C7 1_555 1_555
H17 C20 1_555 1_555
C21 N4 1_555 1_555
C22 N4 1_555 1_555
H18 C22 1_555 1_555
H19 C22 1_555 1_555
C23 C14 1_555 1_555
H20 C23 1_555 1_555
C24 N6 1_555 1_555
H21 C24 1_555 1_555
H22 C24 1_555 1_555
C25 C10 1_555 1_555
H23 C25 1_555 1_555
H24 C25 1_555 1_555
H25 C25 1_555 1_555
C26 N3 1_555 1_555
C27 C14 1_555 1_555
C28 C26 1_555 1_555
H26 C28 1_555 1_555
H27 C28 1_555 1_555
H28 C28 1_555 1_555
Co1G O2 1_555 1_555
Co1C N5 1_555 1_555
O2G Co1 1_555 1_555
N5C Co1 1_555 1_555
N1 N3 1_555 1_555
N6 C22 1_555 1_555
C9 C26 1_555 1_555
C10 C18 1_555 1_555
C11 C21 1_555 1_555
C11 C24 1_555 1_555
C12 C20 1_555 1_555
C16 C21 1_555 1_555
C16 C23 1_555 1_555
C18 C19 1_555 1_555

#END
