
#######################################################################
#
#                 Cambridge Crystallographic Data Centre
#                                CCDC 
#
#######################################################################
#
# If this CIF has been generated from an entry in the Cambridge 
# Structural Database, then it will include bibliographic, chemical, 
# crystal, experimental, refinement or atomic coordinate data resulting 
# from the CCDC's data processing and validation procedures.
#
#######################################################################

data_PECGUB
_symmetry_cell_setting           monoclinic
_symmetry_space_group_name_H-M   'P 21/n'
_symmetry_Int_Tables_number      14
_space_group_name_Hall           '-P 2yn'
loop_
_symmetry_equiv_pos_site_id
_symmetry_equiv_pos_as_xyz
1 x,y,z
2 1/2-x,1/2+y,1/2-z
3 -x,-y,-z
4 1/2+x,1/2-y,1/2+z
_cell_length_a                   15.3574(9)
_cell_length_b                   6.6946(4)
_cell_length_c                   16.3705(9)
_cell_angle_alpha                90
_cell_angle_beta                 98.6950(10)
_cell_angle_gamma                90
_cell_volume                     1663.73
loop_
_atom_site_label
_atom_site_type_symbol
_atom_site_fract_x
_atom_site_fract_y
_atom_site_fract_z
Mn1 Mn 0.716936(16) 0.25799(4) 0.486473(15)
P1 P 0.66534(3) 0.75452(6) 0.50029(3)
P2 P 0.61846(3) 0.49001(7) 0.62938(3)
O1 O 0.69931(8) 0.57538(18) 0.46076(7)
O2 O 0.71914(7) 0.94024(18) 0.50876(8)
O3 O 0.56933(8) 0.81051(19) 0.45929(8)
H1 H 0.5408 0.7057 0.4455
O4 O 0.65532(8) 0.69395(18) 0.59490(7)
O5 O 0.66951(8) 0.31726(19) 0.60174(7)
O6 O 0.52080(7) 0.48399(18) 0.60445(8)
O7 O 0.63893(8) 0.5214(2) 0.72417(7)
H2 H 0.6934 0.5106 0.7397
C1 C 0.88965(12) 0.3076(3) 0.62509(11)
H3 H 0.8482 0.3268 0.6620
C2 C 0.97958(13) 0.3086(3) 0.65741(13)
H4 H 0.9983 0.3267 0.7149
C3 C 1.04007(13) 0.2831(3) 0.60474(14)
H5 H 1.1013 0.2844 0.6255
C4 C 1.01118(12) 0.2551(3) 0.51967(13)
C5 C 1.07059(13) 0.2263(3) 0.46103(15)
H6 H 1.1323 0.2260 0.4792
C6 C 1.03935(13) 0.1994(3) 0.37983(15)
H7 H 1.0797 0.1815 0.3419
C7 C 0.94670(13) 0.1976(3) 0.35004(12)
C8 C 0.91128(15) 0.1677(3) 0.26640(13)
H8 H 0.9494 0.1505 0.2263
C9 C 0.82198(15) 0.1636(3) 0.24308(12)
H9 H 0.7975 0.1426 0.1869
C10 C 0.76681(13) 0.1908(3) 0.30333(11)
H10 H 0.7048 0.1878 0.2867
C11 C 0.88659(12) 0.2237(3) 0.40635(11)
C12 C 0.91957(12) 0.2542(2) 0.49299(12)
N1 N 0.85966(10) 0.2811(2) 0.54536(9)
N2 N 0.79791(10) 0.2205(2) 0.38281(9)
O8 O 0.59253(8) 0.2050(2) 0.40327(8)
H11 H 0.5497(12) 0.304(2) 0.4051(16)
H12 H 0.5635(14) 0.092(2) 0.4189(15)
Mn1_2 Mn 0.716936(16) 1.25799(4) 0.486473(15)
O2_2 O 0.71914(7) -0.05976(18) 0.50876(8)
O9 O 0.70098(9) 0.0096(2) 0.70979(8)
H13 H 0.6876(16) -0.101(2) 0.6755(12)
H14 H 0.6875(16) 0.114(2) 0.6720(11)
loop_
_geom_bond_atom_site_label_1
_geom_bond_atom_site_label_2
_geom_bond_site_symmetry_1
_geom_bond_site_symmetry_2
Mn1 O1 1_555 1_555
P1 O1 1_555 1_555
P2 O4 1_555 1_555
O2 P1 1_555 1_555
O3 P1 1_555 1_555
H1 O3 1_555 1_555
O4 P1 1_555 1_555
O5 Mn1 1_555 1_555
O6 P2 1_555 1_555
O7 P2 1_555 1_555
H2 O7 1_555 1_555
C1 H3 1_555 1_555
C2 C1 1_555 1_555
H4 C2 1_555 1_555
C3 C2 1_555 1_555
H5 C3 1_555 1_555
C4 C3 1_555 1_555
C5 C4 1_555 1_555
H6 C5 1_555 1_555
C6 C5 1_555 1_555
H7 C6 1_555 1_555
C7 C6 1_555 1_555
C8 C7 1_555 1_555
H8 C8 1_555 1_555
C9 C8 1_555 1_555
H9 C9 1_555 1_555
C10 C9 1_555 1_555
H10 C10 1_555 1_555
C11 C7 1_555 1_555
C12 C4 1_555 1_555
N1 Mn1 1_555 1_555
N2 Mn1 1_555 1_555
O8 Mn1 1_555 1_555
H11 O8 1_555 1_555
H12 O8 1_555 1_555
O9 H13 1_555 1_555
H14 O9 1_555 1_555
Mn1_2 O2 1_555 1_555
O2_2 Mn1 1_555 1_555
P2 O5 1_555 1_555
C1 N1 1_555 1_555
C10 N2 1_555 1_555
C11 C12 1_555 1_555
C11 N2 1_555 1_555
C12 N1 1_555 1_555

#END
