
#######################################################################
#
#                 Cambridge Crystallographic Data Centre
#                                CCDC 
#
#######################################################################
#
# If this CIF has been generated from an entry in the Cambridge 
# Structural Database, then it will include bibliographic, chemical, 
# crystal, experimental, refinement or atomic coordinate data resulting 
# from the CCDC's data processing and validation procedures.
#
#######################################################################

data_PECGOV
_symmetry_cell_setting           monoclinic
_symmetry_space_group_name_H-M   'P 21/n'
_symmetry_Int_Tables_number      14
_space_group_name_Hall           '-P 2yn'
loop_
_symmetry_equiv_pos_site_id
_symmetry_equiv_pos_as_xyz
1 x,y,z
2 1/2-x,1/2+y,1/2-z
3 -x,-y,-z
4 1/2+x,1/2-y,1/2+z
_cell_length_a                   15.144(2)
_cell_length_b                   6.5629(9)
_cell_length_c                   16.293(2)
_cell_angle_alpha                90
_cell_angle_beta                 97.638(2)
_cell_angle_gamma                90
_cell_volume                     1604.97
loop_
_atom_site_label
_atom_site_type_symbol
_atom_site_fract_x
_atom_site_fract_y
_atom_site_fract_z
Ni1 Ni 0.721049(18) 0.25738(4) 0.486787(16)
P1 P 0.67261(4) 0.75299(8) 0.49998(3)
P2 P 0.61796(4) 0.48011(8) 0.62556(3)
O1 O 0.70822(10) 0.5705(2) 0.46040(9)
O2 O 0.72708(10) 0.9419(2) 0.50921(9)
O3 O 0.57633(11) 0.8114(2) 0.45878(10)
H1 H 0.5470 0.7048 0.4461
O4 O 0.65893(10) 0.6877(2) 0.59416(9)
O5 O 0.66858(10) 0.3034(2) 0.59629(9)
O6 O 0.51959(10) 0.4810(2) 0.60005(10)
O7 O 0.63576(11) 0.5047(3) 0.72095(9)
H2 H 0.6909 0.5031 0.7364
C1 C 0.87988(16) 0.3052(3) 0.62585(14)
H3 H 0.8374 0.3232 0.6632
C2 C 0.97039(17) 0.3061(4) 0.65736(16)
H4 H 0.9885 0.3228 0.7151
C3 C 1.03286(16) 0.2828(4) 0.60436(17)
H5 H 1.0946 0.2844 0.6250
C4 C 1.00470(16) 0.2565(3) 0.51923(16)
C5 C 1.06513(18) 0.2298(4) 0.45917(19)
H6 H 1.1275 0.2298 0.4766
C6 C 1.03412(17) 0.2047(4) 0.37787(19)
H7 H 1.0753 0.1899 0.3391
C7 C 0.94017(17) 0.2001(3) 0.34903(16)
C8 C 0.90381(19) 0.1709(4) 0.26582(16)
H8 H 0.9419 0.1560 0.2244
C9 C 0.81350(19) 0.1641(4) 0.24496(15)
H9 H 0.7883 0.1431 0.1890
C10 C 0.75807(18) 0.1883(3) 0.30714(14)
H10 H 0.6953 0.1828 0.2920
C11 C 0.87986(15) 0.2246(3) 0.40698(14)
C12 C 0.91264(15) 0.2546(3) 0.49327(14)
N1 N 0.85073(12) 0.2802(3) 0.54573(11)
N2 N 0.78990(13) 0.2185(3) 0.38608(11)
O8 O 0.60017(10) 0.2129(2) 0.41444(10)
H11 H 0.5561(14) 0.314(3) 0.4140(18)
H12 H 0.5681(15) 0.097(2) 0.4252(18)
Ni1_2 Ni 0.721049(18) 1.25738(4) 0.486787(16)
O2_2 O 0.72708(10) -0.0581(2) 0.50921(9)
O9 O 0.70485(12) 0.0023(2) 0.70914(10)
H13 H 0.6900(19) -0.114(2) 0.6763(13)
H14 H 0.6923(19) 0.104(3) 0.6685(12)
loop_
_geom_bond_atom_site_label_1
_geom_bond_atom_site_label_2
_geom_bond_site_symmetry_1
_geom_bond_site_symmetry_2
Ni1 O1 1_555 1_555
P1 O1 1_555 1_555
P2 O4 1_555 1_555
O2 P1 1_555 1_555
O3 P1 1_555 1_555
H1 O3 1_555 1_555
O4 P1 1_555 1_555
O5 Ni1 1_555 1_555
O6 P2 1_555 1_555
O7 P2 1_555 1_555
H2 O7 1_555 1_555
C1 H3 1_555 1_555
C2 C1 1_555 1_555
H4 C2 1_555 1_555
C3 C2 1_555 1_555
H5 C3 1_555 1_555
C4 C3 1_555 1_555
C5 C4 1_555 1_555
H6 C5 1_555 1_555
C6 C5 1_555 1_555
H7 C6 1_555 1_555
C7 C6 1_555 1_555
C8 C7 1_555 1_555
H8 C8 1_555 1_555
C9 C8 1_555 1_555
H9 C9 1_555 1_555
C10 C9 1_555 1_555
H10 C10 1_555 1_555
C11 C7 1_555 1_555
C12 C4 1_555 1_555
N1 Ni1 1_555 1_555
N2 Ni1 1_555 1_555
O8 Ni1 1_555 1_555
H11 O8 1_555 1_555
H12 O8 1_555 1_555
O9 H13 1_555 1_555
H14 O9 1_555 1_555
Ni1_2 O2 1_555 1_555
O2_2 Ni1 1_555 1_555
P2 O5 1_555 1_555
C1 N1 1_555 1_555
C10 N2 1_555 1_555
C11 C12 1_555 1_555
C11 N2 1_555 1_555
C12 N1 1_555 1_555

#END
