
#######################################################################
#
#                 Cambridge Crystallographic Data Centre
#                                CCDC 
#
#######################################################################
#
# If this CIF has been generated from an entry in the Cambridge 
# Structural Database, then it will include bibliographic, chemical, 
# crystal, experimental, refinement or atomic coordinate data resulting 
# from the CCDC's data processing and validation procedures.
#
#######################################################################

data_PECGIP
_symmetry_cell_setting           monoclinic
_symmetry_space_group_name_H-M   'P 21/n'
_symmetry_Int_Tables_number      14
_space_group_name_Hall           '-P 2yn'
loop_
_symmetry_equiv_pos_site_id
_symmetry_equiv_pos_as_xyz
1 x,y,z
2 1/2-x,1/2+y,1/2-z
3 -x,-y,-z
4 1/2+x,1/2-y,1/2+z
_cell_length_a                   15.209(2)
_cell_length_b                   6.6010(9)
_cell_length_c                   16.313(2)
_cell_angle_alpha                90
_cell_angle_beta                 98.013(2)
_cell_angle_gamma                90
_cell_volume                     1621.75
loop_
_atom_site_label
_atom_site_type_symbol
_atom_site_fract_x
_atom_site_fract_y
_atom_site_fract_z
Co1 Co 0.77995(2) 0.25641(5) 0.01328(2)
P1 P 0.82942(4) 0.75249(10) 0.00026(4)
P2 P 0.88163(4) 0.48283(10) -0.12654(4)
O1 O 0.79428(12) 0.5716(3) 0.03937(11)
O2 O 0.77504(11) 0.9407(3) -0.00855(11)
O3 O 0.92575(12) 0.8108(3) 0.04161(13)
H1 H 0.9545 0.7050 0.0560
O4 O 0.84209(12) 0.6891(3) -0.09416(11)
O5 O 0.83112(12) 0.3077(3) -0.09774(11)
O6 O 0.97980(11) 0.4818(3) -0.10131(12)
O7 O 0.86285(13) 0.5091(3) -0.22191(11)
H2 H 0.8080 0.4987 -0.2376
C1 C 0.61667(18) 0.3024(4) -0.12592(17)
H3 H 0.6589 0.3192 -0.1632
C2 C 0.52644(19) 0.3041(4) -0.15784(19)
H4 H 0.5081 0.3207 -0.2155
C3 C 0.46469(19) 0.2813(4) -0.1045(2)
H5 H 0.4031 0.2831 -0.1249
C4 C 0.49327(19) 0.2555(4) -0.01962(19)
C5 C 0.4335(2) 0.2301(4) 0.0403(2)
H6 H 0.3713 0.2305 0.0227
C6 C 0.4645(2) 0.2056(4) 0.1212(2)
H7 H 0.4234 0.1910 0.1597
C7 C 0.55820(19) 0.2012(4) 0.15075(19)
C8 C 0.5942(2) 0.1726(4) 0.23402(19)
H8 H 0.5560 0.1572 0.2750
C9 C 0.6841(2) 0.1671(4) 0.25581(18)
H9 H 0.7091 0.1476 0.3119
C10 C 0.7394(2) 0.1910(4) 0.19377(17)
H10 H 0.8020 0.1859 0.2092
C11 C 0.61824(18) 0.2253(4) 0.09310(17)
C12 C 0.58513(17) 0.2540(4) 0.00677(17)
N1 N 0.64627(15) 0.2784(3) -0.04586(14)
N2 N 0.70757(15) 0.2201(3) 0.11497(14)
O8 O 0.90283(12) 0.2097(3) 0.08819(12)
H11 H 0.9376(16) 0.095(3) 0.078(2)
H12 H 0.9464(15) 0.312(3) 0.088(2)
Co1_2 Co 0.77995(2) 1.25641(5) 0.01328(2)
O2_2 O 0.77504(11) -0.0593(3) -0.00855(11)
O9 O 0.70309(14) 0.5042(3) 0.70920(12)
H13 H 0.694(2) 0.393(3) 0.6729(14)
H14 H 0.694(2) 0.612(3) 0.6707(14)
loop_
_geom_bond_atom_site_label_1
_geom_bond_atom_site_label_2
_geom_bond_site_symmetry_1
_geom_bond_site_symmetry_2
Co1 O1 1_555 1_555
P1 O1 1_555 1_555
P2 O4 1_555 1_555
O2 P1 1_555 1_555
O3 P1 1_555 1_555
H1 O3 1_555 1_555
O4 P1 1_555 1_555
O5 Co1 1_555 1_555
O6 P2 1_555 1_555
O7 P2 1_555 1_555
H2 O7 1_555 1_555
C1 H3 1_555 1_555
C2 C1 1_555 1_555
H4 C2 1_555 1_555
C3 C2 1_555 1_555
H5 C3 1_555 1_555
C4 C3 1_555 1_555
C5 C4 1_555 1_555
H6 C5 1_555 1_555
C6 C5 1_555 1_555
H7 C6 1_555 1_555
C7 C6 1_555 1_555
C8 C7 1_555 1_555
H8 C8 1_555 1_555
C9 C8 1_555 1_555
H9 C9 1_555 1_555
C10 C9 1_555 1_555
H10 C10 1_555 1_555
C11 C7 1_555 1_555
C12 C4 1_555 1_555
N1 Co1 1_555 1_555
N2 Co1 1_555 1_555
O8 Co1 1_555 1_555
O9 H13 1_555 1_555
H11 O8 1_555 1_555
H12 O8 1_555 1_555
H14 O9 1_555 1_555
Co1_2 O2 1_555 1_555
O2_2 Co1 1_555 1_555
P2 O5 1_555 1_555
C1 N1 1_555 1_555
C10 N2 1_555 1_555
C11 C12 1_555 1_555
C11 N2 1_555 1_555
C12 N1 1_555 1_555

#END
