
#######################################################################
#
#                 Cambridge Crystallographic Data Centre
#                                CCDC 
#
#######################################################################
#
# If this CIF has been generated from an entry in the Cambridge 
# Structural Database, then it will include bibliographic, chemical, 
# crystal, experimental, refinement or atomic coordinate data resulting 
# from the CCDC's data processing and validation procedures.
#
#######################################################################

data_PECHOW
_symmetry_cell_setting           monoclinic
_symmetry_space_group_name_H-M   'C 2/c'
_symmetry_Int_Tables_number      15
_space_group_name_Hall           '-C 2yn'
loop_
_symmetry_equiv_pos_site_id
_symmetry_equiv_pos_as_xyz
1 x,y,z
2 -x,y,1/2-z
3 1/2+x,1/2+y,z
4 1/2-x,1/2+y,1/2-z
5 -x,-y,-z
6 x,-y,1/2+z
7 1/2-x,1/2-y,-z
8 1/2+x,1/2-y,1/2+z
_cell_length_a                   12.7255(8)
_cell_length_b                   27.5089(16)
_cell_length_c                   15.1927(9)
_cell_angle_alpha                90
_cell_angle_beta                 106.6930(10)
_cell_angle_gamma                90
_cell_volume                     5094.29
loop_
_atom_site_label
_atom_site_type_symbol
_atom_site_fract_x
_atom_site_fract_y
_atom_site_fract_z
Cd1 Cd 0.984183(19) 0.215484(9) 0.051714(17)
O1 O 1.2320(2) 0.45309(11) 0.1707(3)
O2 O 0.7143(3) -0.01680(12) -0.0738(3)
O3 O 1.10311(19) 0.18463(9) 0.19868(16)
O4 O 1.1432(2) 0.16907(9) 0.07045(17)
O5 O 1.4948(2) 0.26566(10) 0.39915(18)
O6 O 1.3445(2) 0.24553(10) 0.43548(18)
O7 O 0.8774(2) 0.23942(9) 0.14548(17)
H1 H 0.8087(17) 0.2397(14) 0.115(2)
H2 H 0.889(3) 0.2222(12) 0.1950(18)
N1 N 1.0863(2) 0.28745(10) 0.0955(2)
N2 N 1.3868(3) 0.41206(11) 0.2399(3)
N3 N 0.8764(3) 0.14472(12) 0.0211(2)
N4 N 0.5667(3) 0.02018(13) -0.0498(3)
C1 C 1.1744(4) 0.29675(15) 0.0679(3)
H3 H 1.1911 0.2754 0.0246
C2 C 1.2430(3) 0.33605(15) 0.0990(3)
H4 H 1.3062 0.3407 0.0786
C3 C 1.2190(3) 0.36820(13) 0.1596(3)
C4 C 1.1255(4) 0.35925(16) 0.1862(3)
H5 H 1.1045 0.3811 0.2265
C5 C 1.0634(3) 0.31878(15) 0.1544(3)
H6 H 1.0010 0.3128 0.1752
C6 C 1.2807(3) 0.41456(15) 0.1907(3)
C7 C 1.4506(3) 0.45647(14) 0.2688(4)
H7 H 1.4756 0.4582 0.3367
H8 H 1.4042 0.4853 0.2456
C8 C 1.4510(3) 0.36752(14) 0.2688(4)
H9 H 1.4047 0.3387 0.2458
H10 H 1.4763 0.3658 0.3367
C9 C 0.9108(4) 0.10176(16) 0.0577(4)
H11 H 0.9830 0.0993 0.0982
C10 C 0.8464(4) 0.06010(16) 0.0395(4)
H12 H 0.8742 0.0299 0.0669
C11 C 0.7416(4) 0.06347(15) -0.0188(3)
C12 C 0.7046(4) 0.10845(17) -0.0541(3)
H13 H 0.6314 0.1123 -0.0920
C13 C 0.7740(4) 0.14762(17) -0.0342(3)
H14 H 0.7480 0.1782 -0.0610
C14 C 0.6728(4) 0.01843(16) -0.0472(4)
C15 C 0.5217(4) 0.05105(15) 0.0094(4)
H15 H 0.4510 0.0652 -0.0270
H16 H 0.5730 0.0781 0.0343
C16 C 0.4955(4) -0.02150(16) -0.0866(4)
H17 H 0.5297 -0.0419 -0.1246
H18 H 0.4239 -0.0098 -0.1262
C17 C 1.1661(3) 0.16708(12) 0.1567(2)
C18 C 1.2708(3) 0.14075(13) 0.2105(2)
C19 C 1.3253(3) 0.16827(14) 0.3002(2)
H19 H 1.2747 0.1679 0.3390
H20 H 1.3925 0.1505 0.3339
C20 C 1.3560(3) 0.22074(14) 0.2878(3)
H21 H 1.4110 0.2215 0.2531
H22 H 1.2901 0.2385 0.2515
C21 C 1.4024(3) 0.24575(13) 0.3795(3)
C22 C 1.2343(4) 0.09026(14) 0.2363(3)
H23 H 1.1844 0.0945 0.2743
H24 H 1.2989 0.0718 0.2708
H25 H 1.1966 0.0725 0.1802
C23 C 1.3504(3) 0.13478(16) 0.1532(3)
H26 H 1.3164 0.1148 0.0991
H27 H 1.4175 0.1189 0.1902
H28 H 1.3685 0.1668 0.1333
Cd1G Cd 0.484183(19) 0.284516(9) -0.448286(17)
Cd1G_2 Cd 1.484183(19) 0.284516(9) 0.551714(17)
Cd1A Cd 2.015817(19) 0.215484(9) 0.448286(17)
Cd1D Cd 0.015817(19) -0.215484(9) -0.051714(17)
O1A O 1.7680(2) 0.45309(11) 0.3293(3)
O2D O 0.2857(3) 0.01680(12) 0.0738(3)
O3G O 0.60311(19) 0.31537(9) -0.30132(16)
O4G O 0.6432(2) 0.33093(9) -0.42955(17)
O5G O 0.9948(2) 0.23434(10) -0.10085(18)
O5_2 O 0.4948(2) 0.26566(10) -0.60085(18)
O6G O 0.8445(2) 0.25447(10) -0.06452(18)
O6_2 O 0.3445(2) 0.24553(10) -0.56452(18)
O7G O 0.3774(2) 0.26058(9) -0.35452(17)
H1G H 0.3087(17) 0.2603(14) -0.385(2)
H2G H 0.389(3) 0.2778(12) -0.3050(18)
N1A N 1.9137(2) 0.28745(10) 0.4045(2)
N1G N 0.5863(2) 0.21255(10) -0.4045(2)
N2A N 1.6132(3) 0.41206(11) 0.2601(3)
N3D N 0.1236(3) -0.14472(12) -0.0211(2)
N3G N 0.3764(3) 0.35528(12) -0.4789(2)
N4D N 0.4333(3) -0.02018(13) 0.0498(3)
C1A C 1.8256(4) 0.29675(15) 0.4321(3)
H3A H 1.8089 0.2754 0.4754
C2A C 1.7570(3) 0.33605(15) 0.4010(3)
H4A H 1.6938 0.3407 0.4214
C3A C 1.7810(3) 0.36820(13) 0.3404(3)
C4A C 1.8745(4) 0.35925(16) 0.3138(3)
H5A H 1.8955 0.3811 0.2735
C5A C 1.9366(3) 0.31878(15) 0.3456(3)
H6A H 1.9990 0.3128 0.3248
C6A C 1.7193(3) 0.41456(15) 0.3093(3)
C7A C 1.5494(3) 0.45647(14) 0.2312(4)
H7A H 1.5244 0.4582 0.1633
H8A H 1.5958 0.4853 0.2544
C8A C 1.5490(3) 0.36752(14) 0.2312(4)
H9A H 1.5953 0.3387 0.2542
H10A H 1.5237 0.3658 0.1633
C9D C 0.0892(4) -0.10176(16) -0.0577(4)
H11D H 0.0170 -0.0993 -0.0982
C10D C 0.1536(4) -0.06010(16) -0.0395(4)
H12D H 0.1258 -0.0299 -0.0669
C11D C 0.2584(4) -0.06347(15) 0.0188(3)
C12D C 0.2954(4) -0.10845(17) 0.0541(3)
H13D H 0.3686 -0.1123 0.0920
C13D C 0.2260(4) -0.14762(17) 0.0342(3)
H14D H 0.2520 -0.1782 0.0610
C14D C 0.3272(4) -0.01843(16) 0.0472(4)
C15D C 0.4783(4) -0.05105(15) -0.0094(4)
H15D H 0.5490 -0.0652 0.0270
H16D H 0.4270 -0.0781 -0.0343
C16D C 0.5045(4) 0.02150(16) 0.0866(4)
H17D H 0.4703 0.0419 0.1246
H18D H 0.5761 0.0098 0.1262
C17G C 0.6661(3) 0.33292(12) -0.3433(2)
C18G C 0.7708(3) 0.35925(13) -0.2895(2)
C19G C 0.8253(3) 0.33173(14) -0.1998(2)
H19G H 0.7747 0.3321 -0.1610
H20G H 0.8925 0.3495 -0.1661
C20G C 0.8560(3) 0.27926(14) -0.2122(3)
H21G H 0.9110 0.2785 -0.2469
H22G H 0.7901 0.2615 -0.2485
C21G C 0.9024(3) 0.25425(13) -0.1205(3)
C22G C 0.7343(4) 0.40974(14) -0.2637(3)
H23G H 0.6844 0.4055 -0.2257
H24G H 0.7989 0.4282 -0.2292
H25G H 0.6966 0.4275 -0.3198
C23G C 0.8504(3) 0.36522(16) -0.3468(3)
H26G H 0.8164 0.3852 -0.4009
H27G H 0.9175 0.3811 -0.3098
H28G H 0.8685 0.3332 -0.3667
O8 O 0.8923(4) -0.07551(19) 0.0214(3)
loop_
_geom_bond_atom_site_label_1
_geom_bond_atom_site_label_2
_geom_bond_site_symmetry_1
_geom_bond_site_symmetry_2
Cd1 O3 1_555 1_555
O1 C6 1_555 1_555
O2 C14 1_555 1_555
O3 C17 1_555 1_555
O4 Cd1 1_555 1_555
O5 C21 1_555 1_555
O6 C21 1_555 1_555
O7 Cd1 1_555 1_555
H1 O7 1_555 1_555
H2 O7 1_555 1_555
N1 Cd1 1_555 1_555
N2 C6 1_555 1_555
N3 Cd1 1_555 1_555
N4 C14 1_555 1_555
C1 N1 1_555 1_555
H3 C1 1_555 1_555
C2 C1 1_555 1_555
H4 C2 1_555 1_555
C3 C2 1_555 1_555
C4 C3 1_555 1_555
H5 C4 1_555 1_555
C5 N1 1_555 1_555
H6 C5 1_555 1_555
C6 C3 1_555 1_555
C7 N2 1_555 1_555
H7 C7 1_555 1_555
H8 C7 1_555 1_555
C8 N2 1_555 1_555
H9 C8 1_555 1_555
H10 C8 1_555 1_555
C9 N3 1_555 1_555
H11 C9 1_555 1_555
C10 C9 1_555 1_555
H12 C10 1_555 1_555
C11 C10 1_555 1_555
C12 C11 1_555 1_555
H13 C12 1_555 1_555
C13 N3 1_555 1_555
H14 C13 1_555 1_555
C14 C11 1_555 1_555
C15 N4 1_555 1_555
H15 C15 1_555 1_555
H16 C15 1_555 1_555
C16 N4 1_555 1_555
H17 C16 1_555 1_555
H18 C16 1_555 1_555
C17 O4 1_555 1_555
C18 C17 1_555 1_555
C19 C18 1_555 1_555
H19 C19 1_555 1_555
H20 C19 1_555 1_555
C20 C19 1_555 1_555
H21 C20 1_555 1_555
H22 C20 1_555 1_555
C21 C20 1_555 1_555
C22 C18 1_555 1_555
H23 C22 1_555 1_555
H24 C22 1_555 1_555
H25 C22 1_555 1_555
C23 C18 1_555 1_555
H26 C23 1_555 1_555
H27 C23 1_555 1_555
H28 C23 1_555 1_555
Cd1G O3G 1_555 1_555
Cd1G_2 O5 1_555 1_555
Cd1A N1A 1_555 1_555
Cd1D N3D 1_555 1_555
O1A C6A 1_555 1_555
O2D C14D 1_555 1_555
O3G C17G 1_555 1_555
O4G Cd1G 1_555 1_555
O5G Cd1 1_555 1_555
O5_2 Cd1G 1_555 1_555
O6G Cd1 1_555 1_555
O6_2 Cd1G 1_555 1_555
O7G Cd1G 1_555 1_555
H1G O7G 1_555 1_555
H2G O7G 1_555 1_555
N1A C1A 1_555 1_555
N1G Cd1G 1_555 1_555
N2A C6A 1_555 1_555
N3D C9D 1_555 1_555
N3G Cd1G 1_555 1_555
N4D C14D 1_555 1_555
C1A H3A 1_555 1_555
C2A C1A 1_555 1_555
H4A C2A 1_555 1_555
C3A C2A 1_555 1_555
C4A C3A 1_555 1_555
H5A C4A 1_555 1_555
C5A N1A 1_555 1_555
H6A C5A 1_555 1_555
C6A C3A 1_555 1_555
C7A C7 1_555 1_555
H7A C7A 1_555 1_555
H8A C7A 1_555 1_555
C8A C8 1_555 1_555
H9A C8A 1_555 1_555
H10A C8A 1_555 1_555
C9D H11D 1_555 1_555
C10D C9D 1_555 1_555
H12D C10D 1_555 1_555
C11D C10D 1_555 1_555
C12D C11D 1_555 1_555
H13D C12D 1_555 1_555
C13D N3D 1_555 1_555
H14D C13D 1_555 1_555
C14D C11D 1_555 1_555
C15D C16 1_555 1_555
H15D C15D 1_555 1_555
H16D C15D 1_555 1_555
C16D C15 1_555 1_555
H17D C16D 1_555 1_555
H18D C16D 1_555 1_555
C17G O4G 1_555 1_555
C18G C17G 1_555 1_555
C19G C18G 1_555 1_555
H19G C19G 1_555 1_555
H20G C19G 1_555 1_555
C20G C19G 1_555 1_555
H21G C20G 1_555 1_555
H22G C20G 1_555 1_555
C21G O5G 1_555 1_555
C22G C18G 1_555 1_555
H23G C22G 1_555 1_555
H24G C22G 1_555 1_555
H25G C22G 1_555 1_555
C23G C18G 1_555 1_555
H26G C23G 1_555 1_555
H27G C23G 1_555 1_555
H28G C23G 1_555 1_555
O6 Cd1G_2 1_555 1_555
C4 C5 1_555 1_555
C12 C13 1_555 1_555
O6G C21G 1_555 1_555
N2A C7A 1_555 1_555
N2A C8A 1_555 1_555
N4D C15D 1_555 1_555
N4D C16D 1_555 1_555
C4A C5A 1_555 1_555
C12D C13D 1_555 1_555
C20G C21G 1_555 1_555

#END
