
#######################################################################
#
#                 Cambridge Crystallographic Data Centre
#                                CCDC 
#
#######################################################################
#
# If this CIF has been generated from an entry in the Cambridge 
# Structural Database, then it will include bibliographic, chemical, 
# crystal, experimental, refinement or atomic coordinate data resulting 
# from the CCDC's data processing and validation procedures.
#
#######################################################################

data_PECJOY
_symmetry_cell_setting           triclinic
_symmetry_space_group_name_H-M   'P -1'
_symmetry_Int_Tables_number      2
_space_group_name_Hall           '-P 1'
loop_
_symmetry_equiv_pos_site_id
_symmetry_equiv_pos_as_xyz
1 x,y,z
2 -x,-y,-z
_cell_length_a                   6.2700(13)
_cell_length_b                   6.4100(13)
_cell_length_c                   8.9700(18)
_cell_angle_alpha                69.60(3)
_cell_angle_beta                 73.99(3)
_cell_angle_gamma                61.60(3)
_cell_volume                     294.575
loop_
_atom_site_label
_atom_site_type_symbol
_atom_site_fract_x
_atom_site_fract_y
_atom_site_fract_z
Cs1 Cs 1.0000 0.0000 1.0000
S1 S 0.6838(2) -0.2685(3) 0.85344(16)
C1 C 0.8302(8) -0.2465(8) 0.6621(6)
C2 C 1.2734(10) -0.4945(11) 0.7152(8)
H1 H 1.3643 -0.6529 0.6931
H2 H 1.3798 -0.4146 0.6906
H3 H 1.2066 -0.5139 0.8266
N1 N 1.0743(7) -0.3456(7) 0.6165(5)
N2 N 1.1232(8) -0.2877(8) 0.4534(5)
N3 N 0.9148(8) -0.1575(8) 0.4002(5)
N4 N 0.7318(7) -0.1279(7) 0.5247(5)
H4 H 0.5780 -0.0466 0.5170
Cs1_2 Cs 0.0000 0.0000 1.0000
Cs1_3 Cs 1.0000 -1.0000 1.0000
Cs1_4 Cs 1.0000 0.0000 0.0000
Cs1_5 Cs 2.0000 0.0000 1.0000
Cs1_6 Cs 2.0000 -1.0000 1.0000
Cs1_7 Cs 2.0000 0.0000 0.0000
S1_2 S 1.6838(2) -0.2685(3) 0.85344(16)
S1_3 S 0.6838(2) 0.7315(3) 0.85344(16)
S1A S 1.3162(2) -0.7315(3) 1.14656(16)
C1_2 C 1.8302(8) -0.2465(8) 0.6621(6)
C2_2 C 2.2734(10) -0.4945(11) 0.7152(8)
H1_2 H 2.3643 -0.6529 0.6931
H2_2 H 2.3798 -0.4146 0.6906
H3_2 H 2.2066 -0.5139 0.8266
N1_2 N 2.0743(7) -0.3456(7) 0.6165(5)
N2_2 N 2.1232(8) -0.2877(8) 0.4534(5)
N3_2 N 1.9148(8) -0.1575(8) 0.4002(5)
N3_3 N 0.9148(8) -0.1575(8) 1.4002(5)
N3A N 1.0852(8) 0.1575(8) 0.5998(5)
N4_2 N 1.7318(7) -0.1279(7) 0.5247(5)
H4_2 H 1.5780 -0.0466 0.5170
loop_
_geom_bond_atom_site_label_1
_geom_bond_atom_site_label_2
_geom_bond_site_symmetry_1
_geom_bond_site_symmetry_2
Cs1 S1 1_555 1_555
S1 C1 1_555 1_555
C1 N1 1_555 1_555
C2 H1 1_555 1_555
H2 C2 1_555 1_555
H3 C2 1_555 1_555
N1 C2 1_555 1_555
N2 N1 1_555 1_555
N3 N2 1_555 1_555
N4 C1 1_555 1_555
H4 N4 1_555 1_555
Cs1_2 S1 1_555 1_555
Cs1_3 S1 1_555 1_555
Cs1_4 N3 1_555 1_555
Cs1_5 S1_2 1_555 1_555
Cs1_6 S1_2 1_555 1_555
Cs1_7 N3_2 1_555 1_555
S1_2 Cs1 1_555 1_555
S1_3 Cs1 1_555 1_555
S1A Cs1 1_555 1_555
C1_2 S1_2 1_555 1_555
C2_2 H1_2 1_555 1_555
H2_2 C2_2 1_555 1_555
H3_2 C2_2 1_555 1_555
N1_2 C1_2 1_555 1_555
N2_2 N1_2 1_555 1_555
N3_2 N2_2 1_555 1_555
N3_3 Cs1 1_555 1_555
N3A Cs1 1_555 1_555
N4_2 C1_2 1_555 1_555
H4_2 N4_2 1_555 1_555
N3 N4 1_555 1_555
Cs1_3 S1A 1_555 1_555
Cs1_6 S1A 1_555 1_555
C2_2 N1_2 1_555 1_555
N3_2 N4_2 1_555 1_555

#END
