
#######################################################################
#
#                 Cambridge Crystallographic Data Centre
#                                CCDC 
#
#######################################################################
#
# If this CIF has been generated from an entry in the Cambridge 
# Structural Database, then it will include bibliographic, chemical, 
# crystal, experimental, refinement or atomic coordinate data resulting 
# from the CCDC's data processing and validation procedures.
#
#######################################################################

data_PECJAK
_symmetry_cell_setting           triclinic
_symmetry_space_group_name_H-M   'P -1'
_symmetry_Int_Tables_number      2
_space_group_name_Hall           '-P 1'
loop_
_symmetry_equiv_pos_site_id
_symmetry_equiv_pos_as_xyz
1 x,y,z
2 -x,-y,-z
_cell_length_a                   10.5158(9)
_cell_length_b                   12.6250(10)
_cell_length_c                   18.7789(15)
_cell_angle_alpha                96.0800(10)
_cell_angle_beta                 101.0230(10)
_cell_angle_gamma                107.1490(10)
_cell_volume                     2303.06
loop_
_atom_site_label
_atom_site_type_symbol
_atom_site_fract_x
_atom_site_fract_y
_atom_site_fract_z
Cd1 Cd 0.34186(3) 0.11608(2) 0.335291(14)
Cd2 Cd -0.82696(3) -0.11716(2) 0.162180(14)
O1 O 0.2405(3) 0.4569(3) 0.0614(2)
O2 O -0.8755(4) -0.2638(3) 0.0653(2)
H1 H -0.919(5) -0.332(2) 0.070(3)
H2 H -0.825(5) -0.265(4) 0.033(3)
O3 O -0.5965(3) -0.1064(3) 0.15154(17)
O4 O 0.1099(3) 0.1130(2) 0.34088(16)
O5 O 0.3833(3) 0.2551(3) 0.43895(18)
H3 H 0.416(5) 0.326(2) 0.433(3)
H4 H 0.326(4) 0.253(4) 0.467(2)
O6 O -0.6111(3) 0.0005(2) 0.24649(17)
O7 O 0.5898(3) 0.1996(2) 0.37227(16)
O8 O 0.9234(3) 0.8014(2) 0.13033(16)
O9 O 0.1287(3) 0.0037(2) 0.24803(16)
O10 O 1.2656(3) 0.5555(3) 0.44645(18)
N1 N 0.4485(3) 0.5786(3) 0.11899(19)
N2 N 0.6961(3) 0.7077(3) 0.09006(18)
N3 N 1.0638(3) 0.4260(3) 0.38491(18)
N4 N 0.8169(3) 0.2929(3) 0.41304(17)
N5 N 1.1656(3) 0.7549(3) 0.24201(18)
N6 N 0.8168(3) 0.9902(3) -0.08163(19)
N7 N 0.3491(3) 0.2487(3) 0.25916(18)
N8 N 0.6805(3) 0.0160(3) 0.58806(18)
C1 C 0.7419(4) 0.9313(4) 0.0242(2)
H5 H 0.6924 0.9395 0.0606
C2 C 0.3430(4) 0.4842(4) 0.1118(3)
C3 C 0.9423(4) 0.3334(3) 0.4713(2)
H6 H 0.9410 0.2782 0.5051
H7 H 0.9471 0.4054 0.5001
C4 C 0.7004(4) 0.1534(3) 0.4809(2)
C5 C 0.6986(4) 0.6366(4) 0.1468(2)
H8 H 0.7825 0.6718 0.1865
H9 H 0.7001 0.5622 0.1250
C6 C 0.6980(4) 0.2190(3) 0.4185(2)
C7 C 1.2618(4) 0.7047(4) 0.2531(2)
H10 H 1.3319 0.7219 0.2268
C8 C 0.7751(4) 0.0801(4) 0.4882(2)
H11 H 0.8351 0.0762 0.4568
C9 C 0.5701(4) 0.6701(3) 0.0320(2)
H12 H 0.5628 0.5979 0.0025
H13 H 0.5728 0.7263 -0.0011
C10 C 0.5733(4) 0.6215(3) 0.1787(2)
H14 H 0.5715 0.5678 0.2136
H15 H 0.5776 0.6945 0.2060
C11 C 0.2487(4) 0.3757(3) 0.2037(2)
H16 H 0.1767 0.4075 0.1975
C12 C 0.4455(4) 0.2748(3) 0.2209(2)
H17 H 0.5127 0.2379 0.2256
C13 C 0.4509(4) 0.3533(4) 0.1746(2)
H18 H 0.5220 0.3710 0.1490
C14 C 0.8811(4) 0.9122(3) -0.0820(2)
H19 H 0.9294 0.9054 -0.1192
C15 C 0.8140(4) 0.3628(3) 0.3554(2)
H20 H 0.8094 0.4367 0.3762
H21 H 0.7312 0.3258 0.3152
C16 C -0.1716(4) 0.0166(4) 0.3135(2)
H22 H -0.1461 0.0987 0.3305
H23 H -0.1414 -0.0171 0.3562
C17 C -0.3862(4) 0.0195(4) 0.2284(3)
H24 H -0.3479 0.0085 0.1851
H25 H -0.3611 0.1014 0.2458
C18 C -0.3276(4) -0.0324(4) 0.2872(3)
H26 H -0.3528 -0.1142 0.2692
H27 H -0.3687 -0.0229 0.3297
C19 C 1.1664(4) 0.5239(3) 0.3936(2)
C20 C 1.0582(4) 0.6519(3) 0.3260(2)
H28 H 0.9850 0.6342 0.3501
C21 C 1.0683(4) 0.3509(3) 0.4392(2)
H29 H 1.1524 0.3846 0.4791
H30 H 1.0698 0.2777 0.4154
C22 C 0.6169(4) 0.1591(3) 0.5298(2)
H31 H 0.5652 0.2095 0.5270
C23 C 0.6109(4) 0.0901(3) 0.5822(2)
H32 H 0.5550 0.0951 0.6158
C24 C 0.9407(4) 0.3805(3) 0.3246(2)
H33 H 0.9393 0.3080 0.2980
H34 H 0.9415 0.4334 0.2892
C25 C -0.0979(4) -0.0031(4) 0.2558(2)
H35 H -0.1243 0.0340 0.2141
H36 H -0.1264 -0.0849 0.2371
C26 C 1.1586(4) 0.5999(3) 0.3377(2)
C27 C 0.3519(4) 0.4059(3) 0.1659(2)
C28 C 0.8140(4) 0.7832(3) 0.0852(2)
C29 C 0.8084(4) 0.8520(3) 0.0244(2)
C30 C 0.8794(4) 0.8418(3) -0.0302(2)
H37 H 0.9256 0.7876 -0.0318
C31 C 0.7478(4) 0.9984(4) -0.0292(2)
H38 H 0.7012 1.0525 -0.0289
C32 C 1.2635(4) 0.6291(3) 0.3010(2)
H39 H 1.3356 0.5975 0.3088
C33 C 0.4457(4) 0.6547(4) 0.0650(2)
H40 H 0.4466 0.7285 0.0893
H41 H 0.3609 0.6226 0.0255
C34 C 0.2527(4) 0.2990(4) 0.2502(2)
H42 H 0.1839 0.2809 0.2774
C35 C 1.0664(4) 0.7292(3) 0.2790(2)
H43 H 0.9990 0.7658 0.2726
C36 C 0.7620(4) 0.0122(4) 0.5417(2)
H44 H 0.8128 -0.0388 0.5455
C37 C -0.5409(4) -0.0322(4) 0.2065(2)
C38 C 0.0568(4) 0.0415(3) 0.2842(2)
Cd1_2 Cd -0.65814(3) 0.11608(2) 0.335291(14)
Cd1A Cd 0.65814(3) -0.11608(2) 0.664709(14)
Cd2_2 Cd 1.17304(3) 0.88284(2) 0.162180(14)
Cd2_3 Cd 0.17304(3) -0.11716(2) 0.162180(14)
Cd2A Cd 0.82696(3) 1.11716(2) -0.162180(14)
O6_2 O 0.3889(3) 0.0005(2) 0.24649(17)
O8_2 O -1.0766(3) -0.1986(2) 0.13033(16)
O9_2 O -0.8713(3) 0.0037(2) 0.24803(16)
N5_2 N -0.8344(3) -0.2451(3) 0.24201(18)
N6A N -0.8168(3) 0.0098(3) 0.08163(19)
N8A N 0.3195(3) -0.0160(3) 0.41194(18)
Cl1 Cl 0.73463(11) 0.72053(9) 0.38456(6)
O11 O 0.8079(4) 0.7877(3) 0.45440(19)
O12 O 0.7289(4) 0.6057(3) 0.3894(2)
O13 O 0.8035(4) 0.7552(3) 0.3287(2)
O14 O 0.5996(4) 0.7268(4) 0.3664(2)
Cl2 Cl 0.78572(19) 0.27219(12) 0.12051(7)
O15 O 0.8606(7) 0.1999(6) 0.1401(4)
O16 O 0.796(2) 0.355(2) 0.0856(14)
O17 O 0.741(2) 0.317(3) 0.1724(11)
O18 O 0.6468(16) 0.1868(13) 0.0705(8)
O19 O 0.4634(5) 0.4652(3) 0.4073(3)
H45 H 0.443(6) 0.511(4) 0.438(3)
H46 H 0.532(5) 0.505(4) 0.391(3)
O20 O 1.0349(12) 0.5253(8) 0.0964(7)
O21? O 0.9282(9) 0.3697(11) 0.1372(6)
O22? O 0.721(2) 0.274(2) 0.1740(8)
O23? O 0.7320(12) 0.2594(12) 0.0510(4)
O24? O 0.9235(8) 0.5522(5) 0.0659(4)
loop_
_geom_bond_atom_site_label_1
_geom_bond_atom_site_label_2
_geom_bond_site_symmetry_1
_geom_bond_site_symmetry_2
Cd1 O4 1_555 1_555
Cd2 O2 1_555 1_555
O1 C2 1_555 1_555
O2 H1 1_555 1_555
H2 O2 1_555 1_555
O3 Cd2 1_555 1_555
O4 C38 1_555 1_555
O5 Cd1 1_555 1_555
H3 O5 1_555 1_555
H4 O5 1_555 1_555
O6 Cd2 1_555 1_555
O7 Cd1 1_555 1_555
O8 C28 1_555 1_555
O9 Cd1 1_555 1_555
O10 C19 1_555 1_555
N1 C2 1_555 1_555
N2 C5 1_555 1_555
N3 C19 1_555 1_555
N4 C3 1_555 1_555
N5 C7 1_555 1_555
N6 C14 1_555 1_555
N7 Cd1 1_555 1_555
N8 C23 1_555 1_555
C1 H5 1_555 1_555
C2 C27 1_555 1_555
C3 H6 1_555 1_555
H7 C3 1_555 1_555
C4 C6 1_555 1_555
C5 H8 1_555 1_555
H9 C5 1_555 1_555
C6 O7 1_555 1_555
C7 H10 1_555 1_555
C8 C4 1_555 1_555
H11 C8 1_555 1_555
C9 N2 1_555 1_555
H12 C9 1_555 1_555
H13 C9 1_555 1_555
C10 N1 1_555 1_555
H14 C10 1_555 1_555
H15 C10 1_555 1_555
C11 H16 1_555 1_555
C12 N7 1_555 1_555
H17 C12 1_555 1_555
C13 C12 1_555 1_555
H18 C13 1_555 1_555
C14 H19 1_555 1_555
C15 N4 1_555 1_555
H20 C15 1_555 1_555
H21 C15 1_555 1_555
C16 H22 1_555 1_555
H23 C16 1_555 1_555
C17 H24 1_555 1_555
H25 C17 1_555 1_555
C18 C16 1_555 1_555
H26 C18 1_555 1_555
H27 C18 1_555 1_555
C19 C26 1_555 1_555
C20 H28 1_555 1_555
C21 N3 1_555 1_555
H29 C21 1_555 1_555
H30 C21 1_555 1_555
C22 C4 1_555 1_555
H31 C22 1_555 1_555
C23 C22 1_555 1_555
H32 C23 1_555 1_555
C24 N3 1_555 1_555
H33 C24 1_555 1_555
H34 C24 1_555 1_555
C25 C16 1_555 1_555
H35 C25 1_555 1_555
H36 C25 1_555 1_555
C26 C20 1_555 1_555
C27 C11 1_555 1_555
C28 N2 1_555 1_555
C29 C1 1_555 1_555
C30 C14 1_555 1_555
H37 C30 1_555 1_555
C31 N6 1_555 1_555
H38 C31 1_555 1_555
C32 C7 1_555 1_555
H39 C32 1_555 1_555
C33 N1 1_555 1_555
H40 C33 1_555 1_555
H41 C33 1_555 1_555
C34 N7 1_555 1_555
H42 C34 1_555 1_555
C35 N5 1_555 1_555
H43 C35 1_555 1_555
C36 N8 1_555 1_555
H44 C36 1_555 1_555
C37 O3 1_555 1_555
C38 O9 1_555 1_555
Cl1 O11 1_555 1_555
O12 Cl1 1_555 1_555
O13 Cl1 1_555 1_555
O14 Cl1 1_555 1_555
Cl2 O15 1_555 1_555
O16 Cl2 1_555 1_555
O17 Cl2 1_555 1_555
O18 Cl2 1_555 1_555
O19 H45 1_555 1_555
H46 O19 1_555 1_555
Cd1_2 O6 1_555 1_555
Cd1A N8 1_555 1_555
Cd2_2 O8 1_555 1_555
Cd2_3 O9 1_555 1_555
Cd2A N6 1_555 1_555
O6_2 Cd1 1_555 1_555
O8_2 Cd2 1_555 1_555
O9_2 Cd2 1_555 1_555
N5_2 Cd2 1_555 1_555
N6A Cd2 1_555 1_555
N8A Cd1 1_555 1_555
O6 C37 1_555 1_555
N4 C6 1_555 1_555
N5 Cd2_2 1_555 1_555
C1 C31 1_555 1_555
C3 C21 1_555 1_555
C5 C10 1_555 1_555
C8 C36 1_555 1_555
C9 C33 1_555 1_555
C11 C34 1_555 1_555
C13 C27 1_555 1_555
C15 C24 1_555 1_555
C17 C18 1_555 1_555
C17 C37 1_555 1_555
C20 C35 1_555 1_555
C25 C38 1_555 1_555
C26 C32 1_555 1_555
C28 C29 1_555 1_555
C29 C30 1_555 1_555
Cd1_2 O9_2 1_555 1_555
Cd2_3 O6_2 1_555 1_555

#END
