
#######################################################################
#
#                 Cambridge Crystallographic Data Centre
#                                CCDC 
#
#######################################################################
#
# If this CIF has been generated from an entry in the Cambridge 
# Structural Database, then it will include bibliographic, chemical, 
# crystal, experimental, refinement or atomic coordinate data resulting 
# from the CCDC's data processing and validation procedures.
#
#######################################################################

data_PECJIS
_symmetry_cell_setting           monoclinic
_symmetry_space_group_name_H-M   'P 21/n'
_symmetry_Int_Tables_number      14
_space_group_name_Hall           '-P 2yn'
loop_
_symmetry_equiv_pos_site_id
_symmetry_equiv_pos_as_xyz
1 x,y,z
2 1/2-x,1/2+y,1/2-z
3 -x,-y,-z
4 1/2+x,1/2-y,1/2+z
_cell_length_a                   8.8467(10)
_cell_length_b                   10.1931(12)
_cell_length_c                   24.611(3)
_cell_angle_alpha                90
_cell_angle_beta                 99.5030(10)
_cell_angle_gamma                90
_cell_volume                     2188.85
loop_
_atom_site_label
_atom_site_type_symbol
_atom_site_fract_x
_atom_site_fract_y
_atom_site_fract_z
Cd1 Cd 0.83546(4) 0.89582(4) 0.034488(14)
O1 O 1.9183(4) 0.6364(4) 0.25919(14)
O2 O 1.2907(4) 0.9676(4) 0.30332(13)
O3 O 0.7478(4) 1.1079(3) 0.02506(14)
O4 O 0.9922(4) 1.1430(5) 0.02066(15)
O5 O 0.3455(4) 1.1743(3) -0.08502(14)
O6 O 0.2228(4) 1.3411(3) -0.05511(14)
N1 N 1.0257(4) 0.8936(4) 0.11316(15)
N2 N 1.4562(5) 0.8203(4) 0.27626(16)
N3 N 1.7759(5) 0.8007(4) 0.28586(15)
N4 N 2.1658(4) 0.6525(4) 0.45253(15)
C1 C 1.1060(6) 1.0009(5) 0.1312(2)
H1 H 1.0933 1.0777 0.1091
C2 C 1.2058(6) 1.0051(5) 0.18026(19)
H2 H 1.2571 1.0844 0.1923
C3 C 1.0500(6) 0.7859(5) 0.1442(2)
H3 H 0.9945 0.7087 0.1319
C4 C 1.1511(6) 0.7809(5) 0.1928(2)
H4 H 1.1664 0.7015 0.2132
C5 C 1.2305(5) 0.8932(5) 0.21178(19)
C6 C 1.3302(5) 0.8975(5) 0.26765(19)
C7 C 1.5508(6) 0.8167(6) 0.33068(19)
H5 H 1.5022 0.8701 0.3566
H6 H 1.5585 0.7252 0.3444
C8 C 1.7094(5) 0.8692(5) 0.32838(19)
H7 H 1.7755 0.8568 0.3646
H8 H 1.7034 0.9643 0.3202
C9 C 1.5226(6) 0.7559(5) 0.2330(2)
H9 H 1.5294 0.6602 0.2400
H10 H 1.4563 0.7703 0.1970
C10 C 1.6808(6) 0.8104(6) 0.23147(19)
H11 H 1.6725 0.9034 0.2197
H12 H 1.7293 0.7608 0.2043
C11 C 1.8871(6) 0.7098(5) 0.2951(2)
C12 C 1.9772(5) 0.6982(5) 0.35213(19)
C13 C 1.9637(6) 0.5845(5) 0.38197(19)
H13 H 1.8889 0.5204 0.3685
C14 C 2.0598(5) 0.5658(5) 0.43140(19)
H14 H 2.0499 0.4873 0.4513
C15 C 2.0866(5) 0.7905(5) 0.37427(19)
H15 H 2.0978 0.8705 0.3556
C16 C 2.1781(6) 0.7627(5) 0.42394(19)
H16 H 2.2538 0.8250 0.4386
C17 C 0.8556(6) 1.1815(5) 0.01656(18)
C18 C 0.8267(6) 1.3252(5) 0.0059(2)
H17 H 0.8621 1.3734 0.0405
H18 H 0.8904 1.3544 -0.0213
C19 C 0.6616(6) 1.3644(5) -0.0152(2)
H19 H 0.6483 1.4582 -0.0067
H20 H 0.5932 1.3128 0.0047
C20 C 0.6132(5) 1.3435(5) -0.07667(19)
H21 H 0.6819 1.3941 -0.0968
H22 H 0.6238 1.2495 -0.0854
C21 C 0.4474(5) 1.3866(5) -0.09602(19)
H23 H 0.4281 1.3906 -0.1368
H24 H 0.4337 1.4762 -0.0820
C22 C 0.3302(5) 1.2966(5) -0.07715(18)
Cd1B Cd 1.16454(4) 1.10418(4) -0.034488(14)
Cd1B_2 Cd 0.16454(4) 1.10418(4) -0.034488(14)
Cd1C Cd 2.33546(4) 0.60418(4) 0.534488(14)
O4B O 1.0078(4) 0.8570(5) -0.02066(15)
O5B O 0.6545(4) 0.8257(3) 0.08502(14)
O6B O 0.7772(4) 0.6589(3) 0.05511(14)
N4C N 0.6658(4) 0.8475(4) -0.04747(15)
loop_
_geom_bond_atom_site_label_1
_geom_bond_atom_site_label_2
_geom_bond_site_symmetry_1
_geom_bond_site_symmetry_2
Cd1 O3 1_555 1_555
O1 C11 1_555 1_555
O2 C6 1_555 1_555
O3 C17 1_555 1_555
O4 C17 1_555 1_555
O5 C22 1_555 1_555
O6 C22 1_555 1_555
N1 Cd1 1_555 1_555
N2 C6 1_555 1_555
N3 C8 1_555 1_555
N4 C14 1_555 1_555
C1 N1 1_555 1_555
H1 C1 1_555 1_555
C2 C1 1_555 1_555
H2 C2 1_555 1_555
C3 N1 1_555 1_555
H3 C3 1_555 1_555
C4 C3 1_555 1_555
H4 C4 1_555 1_555
C5 C2 1_555 1_555
C6 C5 1_555 1_555
C7 N2 1_555 1_555
H5 C7 1_555 1_555
H6 C7 1_555 1_555
C8 C7 1_555 1_555
H7 C8 1_555 1_555
H8 C8 1_555 1_555
C9 N2 1_555 1_555
H9 C9 1_555 1_555
H10 C9 1_555 1_555
C10 N3 1_555 1_555
H11 C10 1_555 1_555
H12 C10 1_555 1_555
C11 N3 1_555 1_555
C12 C11 1_555 1_555
C13 C12 1_555 1_555
H13 C13 1_555 1_555
C14 C13 1_555 1_555
H14 C14 1_555 1_555
C15 C12 1_555 1_555
H15 C15 1_555 1_555
C16 N4 1_555 1_555
H16 C16 1_555 1_555
C17 C18 1_555 1_555
C18 H17 1_555 1_555
H18 C18 1_555 1_555
C19 C18 1_555 1_555
H19 C19 1_555 1_555
H20 C19 1_555 1_555
C20 C19 1_555 1_555
H21 C20 1_555 1_555
H22 C20 1_555 1_555
C21 C20 1_555 1_555
H23 C21 1_555 1_555
H24 C21 1_555 1_555
C22 C21 1_555 1_555
Cd1B O4 1_555 1_555
Cd1B_2 O5 1_555 1_555
Cd1C N4 1_555 1_555
O4B Cd1 1_555 1_555
O5B Cd1 1_555 1_555
O6B Cd1 1_555 1_555
N4C Cd1 1_555 1_555
O6 Cd1B_2 1_555 1_555
C4 C5 1_555 1_555
C9 C10 1_555 1_555
C15 C16 1_555 1_555

#END
