
#######################################################################
#
#                 Cambridge Crystallographic Data Centre
#                                CCDC 
#
#######################################################################
#
# If this CIF has been generated from an entry in the Cambridge 
# Structural Database, then it will include bibliographic, chemical, 
# crystal, experimental, refinement or atomic coordinate data resulting 
# from the CCDC's data processing and validation procedures.
#
#######################################################################

data_PECKUE
_symmetry_cell_setting           monoclinic
_symmetry_space_group_name_H-M   'P 21/c'
_symmetry_Int_Tables_number      14
_space_group_name_Hall           '-P 2ybc'
loop_
_symmetry_equiv_pos_site_id
_symmetry_equiv_pos_as_xyz
1 x,y,z
2 -x,1/2+y,1/2-z
3 -x,-y,-z
4 x,1/2-y,1/2+z
_cell_length_a                   11.1733(4)
_cell_length_b                   6.7391(3)
_cell_length_c                   9.7645(3)
_cell_angle_alpha                90
_cell_angle_beta                 111.347(2)
_cell_angle_gamma                90
_cell_volume                     684.804
loop_
_atom_site_label
_atom_site_type_symbol
_atom_site_fract_x
_atom_site_fract_y
_atom_site_fract_z
Co1 Co 0.5000 0.0000 0.0000
O1 O -0.1114(2) 0.3118(3) -0.4825(2)
N1 N 0.32864(19) 0.1571(3) -0.14187(19)
N2 N 0.5287(2) 0.2312(3) 0.1594(2)
N3 N 0.6130(2) 0.3407(4) 0.4048(2)
N4 N 0.5687(2) 0.2840(3) 0.2807(2)
H1 H 0.361(3) 0.402(4) -0.046(3)
H2 H 0.257(3) -0.048(4) -0.269(3)
H3 H 0.178(3) 0.569(5) -0.196(3)
H4 H 0.085(3) 0.090(4) -0.425(3)
H5 H -0.040(2) 0.580(4) -0.386(3)
C1 C 0.3041(3) 0.3453(4) -0.1206(3)
C2 C 0.2422(3) 0.0710(5) -0.2591(3)
C3 C 0.1977(3) 0.4488(4) -0.2096(3)
C4 C 0.1356(3) 0.1630(4) -0.3541(3)
C5 C 0.1092(2) 0.3556(4) -0.3311(2)
C6 C -0.0128(3) 0.4569(4) -0.4331(3)
H6 H -0.178(3) 0.355(5) -0.512(3)
Co1C Co 0.5000 0.5000 0.5000
Co1_2 Co -0.5000 1.0000 -1.0000
Co1C_2 Co 0.5000 -0.5000 -0.5000
O1B O 0.1114(2) 0.6882(3) -0.5175(2)
N1B N -0.32864(19) 0.8429(3) -0.85813(19)
N1B_2 N 0.67136(19) -0.1571(3) 0.14187(19)
N2B N 0.4713(2) -0.2312(3) -0.1594(2)
N3B N 0.3870(2) -0.3407(4) -0.4048(2)
N3C N 0.6130(2) 0.1593(4) -0.0952(2)
N3A N 0.3870(2) -0.1593(4) 0.0952(2)
N4B N 0.4313(2) -0.2840(3) -0.2807(2)
H1B H -0.361(3) 0.598(4) -0.954(3)
H2B H -0.257(3) 1.048(4) -0.731(3)
H3B H -0.178(3) 0.431(5) -0.804(3)
H4B H -0.085(3) 0.910(4) -0.575(3)
H5B H 0.040(2) 0.420(4) -0.614(3)
C1B C -0.3041(3) 0.6547(4) -0.8794(3)
C2B C -0.2422(3) 0.9290(5) -0.7409(3)
C3B C -0.1977(3) 0.5512(4) -0.7904(3)
C4B C -0.1356(3) 0.8370(4) -0.6459(3)
C5B C -0.1092(2) 0.6444(4) -0.6689(2)
C6B C 0.0128(3) 0.5431(4) -0.5669(3)
H6B H 0.178(3) 0.645(5) -0.488(3)
loop_
_geom_bond_atom_site_label_1
_geom_bond_atom_site_label_2
_geom_bond_site_symmetry_1
_geom_bond_site_symmetry_2
Co1 N1 1_555 1_555
O1 C6 1_555 1_555
N1 C1 1_555 1_555
N2 Co1 1_555 1_555
N3 N4 1_555 1_555
N4 N2 1_555 1_555
H1 C1 1_555 1_555
H2 C2 1_555 1_555
H3 C3 1_555 1_555
H4 C4 1_555 1_555
H5 C6 1_555 1_555
C1 C3 1_555 1_555
C2 N1 1_555 1_555
C3 C5 1_555 1_555
C4 C2 1_555 1_555
C5 C4 1_555 1_555
C6 C5 1_555 1_555
H6 O1 1_555 1_555
Co1C N3 1_555 1_555
Co1_2 N1B 1_555 1_555
Co1C_2 N3B 1_555 1_555
O1B C6B 1_555 1_555
N1B C1B 1_555 1_555
N1B_2 Co1 1_555 1_555
N2B Co1 1_555 1_555
N3B N4B 1_555 1_555
N3C Co1 1_555 1_555
N3A Co1 1_555 1_555
N4B N2B 1_555 1_555
H1B C1B 1_555 1_555
H2B C2B 1_555 1_555
H3B C3B 1_555 1_555
H4B C4B 1_555 1_555
H5B C6B 1_555 1_555
C1B C3B 1_555 1_555
C2B N1B 1_555 1_555
C3B C5B 1_555 1_555
C4B C2B 1_555 1_555
C5B C4B 1_555 1_555
C6B C6 1_555 1_555
H6B O1B 1_555 1_555
C5B C6B 1_555 1_555

#END
