
#######################################################################
#
#                 Cambridge Crystallographic Data Centre
#                                CCDC 
#
#######################################################################
#
# If this CIF has been generated from an entry in the Cambridge 
# Structural Database, then it will include bibliographic, chemical, 
# crystal, experimental, refinement or atomic coordinate data resulting 
# from the CCDC's data processing and validation procedures.
#
#######################################################################

data_PECNAO
_symmetry_cell_setting           triclinic
_symmetry_space_group_name_H-M   'P -1'
_symmetry_Int_Tables_number      2
_space_group_name_Hall           '-P 1'
loop_
_symmetry_equiv_pos_site_id
_symmetry_equiv_pos_as_xyz
1 x,y,z
2 -x,-y,-z
_cell_length_a                   9.275(5)
_cell_length_b                   9.751(5)
_cell_length_c                   11.434(5)
_cell_angle_alpha                72.931(5)
_cell_angle_beta                 80.267(5)
_cell_angle_gamma                64.018(5)
_cell_volume                     887.65
loop_
_atom_site_label
_atom_site_type_symbol
_atom_site_fract_x
_atom_site_fract_y
_atom_site_fract_z
C1 C 0.9955(2) 0.4084(2) 0.28447(18)
H1 H 0.9559 0.4604 0.3471
C2 C 1.0345(2) 0.2562(2) 0.17049(16)
H2 H 1.0287 0.1818 0.1382
C3 C 1.1071(2) 0.4281(2) 0.19687(19)
H3 H 1.1576 0.4947 0.1882
C4 C 1.2482(3) 0.3084(3) 0.0196(2)
H4 H 1.3554 0.2579 0.0501
H5 H 1.2347 0.4108 -0.0334
C5 C 1.2349(2) 0.2122(3) -0.05437(18)
H6 H 1.1290 0.2630 -0.0874
H7 H 1.2478 0.1095 -0.0022
C6 C 1.3622(3) 0.1921(3) -0.1592(2)
H8 H 1.3673 0.2929 -0.1977
H9 H 1.4660 0.1195 -0.1259
C7 C 1.3315(2) 0.1323(3) -0.25421(19)
H10 H 1.3075 0.0415 -0.2145
H11 H 1.2384 0.2132 -0.2986
C8 C 1.5240(2) 0.1852(2) -0.42498(16)
H12 H 1.4744 0.2944 -0.4408
C9 C 1.6897(2) -0.0504(2) -0.43114(17)
H13 H 1.7772 -0.1348 -0.4530
C10 C 1.5746(2) -0.0625(2) -0.34364(17)
H14 H 1.5684 -0.1550 -0.2951
C11 C 0.95805(16) 0.12353(17) 0.63508(13)
C12 C 0.84338(17) 0.21292(17) 0.72426(13)
C13 C 0.87159(18) 0.15666(17) 0.84851(14)
H15 H 0.9641 0.0677 0.8758
C14 C 0.76170(18) 0.23313(18) 0.93218(14)
C15 C 0.62538(17) 0.36730(17) 0.89081(14)
H16 H 0.5521 0.4191 0.9465
C16 C 0.59781(17) 0.42462(17) 0.76642(14)
C17 C 0.70612(17) 0.34750(17) 0.68264(14)
H17 H 0.6873 0.3853 0.5995
C18 C 0.44851(17) 0.56857(17) 0.72227(15)
N1 N 1.46945(17) 0.08771(18) -0.34076(13)
N2 N 1.65744(16) 0.10555(16) -0.48248(12)
N3 N 0.94941(15) 0.30037(16) 0.26737(12)
N4 N 1.13117(18) 0.33104(18) 0.12351(14)
O1 O 0.93304(13) 0.18048(13) 0.52332(10)
O2 O 1.07320(12) -0.00321(12) 0.67950(10)
O3 O 0.79453(15) 0.16931(15) 1.05272(10)
H18 H 0.7227 0.2224 1.0942
O4 O 0.38784(13) 0.57808(13) 0.62841(11)
O5 O 0.38965(14) 0.67544(14) 0.77841(12)
Co1 Co 0.80380(2) 0.19792(2) 0.389042(18)
N2_2 N 0.65744(16) 0.10555(16) 0.51752(12)
O2A O 0.92680(12) 0.00321(12) 0.32050(10)
O4A O 0.61216(13) 0.42192(13) 0.37159(11)
Co1_2 Co 1.80380(2) 0.19792(2) -0.610958(18)
Co1A Co 1.19620(2) -0.19792(2) 0.610958(18)
Co1A_2 Co 0.19620(2) 0.80208(2) 0.610958(18)
loop_
_geom_bond_atom_site_label_1
_geom_bond_atom_site_label_2
_geom_bond_site_symmetry_1
_geom_bond_site_symmetry_2
C1 H1 1_555 1_555
C2 H2 1_555 1_555
C3 C1 1_555 1_555
H3 C3 1_555 1_555
C4 H4 1_555 1_555
H5 C4 1_555 1_555
C5 C4 1_555 1_555
H6 C5 1_555 1_555
H7 C5 1_555 1_555
C6 C5 1_555 1_555
H8 C6 1_555 1_555
H9 C6 1_555 1_555
C7 C6 1_555 1_555
H10 C7 1_555 1_555
H11 C7 1_555 1_555
C8 H12 1_555 1_555
C9 H13 1_555 1_555
C10 C9 1_555 1_555
H14 C10 1_555 1_555
C11 C12 1_555 1_555
C12 C13 1_555 1_555
C13 H15 1_555 1_555
C14 C13 1_555 1_555
C15 C14 1_555 1_555
H16 C15 1_555 1_555
C16 C15 1_555 1_555
C17 C12 1_555 1_555
H17 C17 1_555 1_555
C18 C16 1_555 1_555
N1 C7 1_555 1_555
N2 C8 1_555 1_555
N3 C1 1_555 1_555
N4 C2 1_555 1_555
O1 C11 1_555 1_555
O2 C11 1_555 1_555
O3 C14 1_555 1_555
H18 O3 1_555 1_555
O4 C18 1_555 1_555
O5 C18 1_555 1_555
Co1 N3 1_555 1_555
N2_2 Co1 1_555 1_555
O2A Co1 1_555 1_555
O4A Co1 1_555 1_555
Co1_2 N2 1_555 1_555
Co1A O2 1_555 1_555
Co1A_2 O4 1_555 1_555
C2 N3 1_555 1_555
C3 N4 1_555 1_555
C4 N4 1_555 1_555
C8 N1 1_555 1_555
C9 N2 1_555 1_555
C10 N1 1_555 1_555
C16 C17 1_555 1_555
O1 Co1 1_555 1_555

#END
