
#######################################################################
#
#                 Cambridge Crystallographic Data Centre
#                                CCDC 
#
#######################################################################
#
# If this CIF has been generated from an entry in the Cambridge 
# Structural Database, then it will include bibliographic, chemical, 
# crystal, experimental, refinement or atomic coordinate data resulting 
# from the CCDC's data processing and validation procedures.
#
#######################################################################

data_PECQOE
_symmetry_cell_setting           monoclinic
_symmetry_space_group_name_H-M   'P 21/c'
_symmetry_Int_Tables_number      14
_space_group_name_Hall           '-P 2ybc'
loop_
_symmetry_equiv_pos_site_id
_symmetry_equiv_pos_as_xyz
1 x,y,z
2 -x,1/2+y,1/2-z
3 -x,-y,-z
4 x,1/2-y,1/2+z
_cell_length_a                   16.097(3)
_cell_length_b                   15.619(3)
_cell_length_c                   14.524(2)
_cell_angle_alpha                90
_cell_angle_beta                 112.267(3)
_cell_angle_gamma                90
_cell_volume                     3379.3
loop_
_atom_site_label
_atom_site_type_symbol
_atom_site_fract_x
_atom_site_fract_y
_atom_site_fract_z
Cu1 Cu 0.24961(2) -0.25456(2) -0.48759(3)
Fe1 Fe 0.47430(3) -0.31128(2) -0.65096(3)
Fe2 Fe 0.02471(3) -0.17599(2) -0.32972(3)
C1 C 0.4981(3) -0.1242(2) -0.6238(3)
H1 H 0.4442 -0.1185 -0.6781
C2 C 0.5416(2) -0.0518(2) -0.5767(3)
H2 H 0.5176 0.0019 -0.5994
C3 C 0.62375(19) -0.0590(2) -0.4928(2)
H3 H 0.6553 -0.0112 -0.4595
C4 C 0.6518(2) -0.1353(2) -0.4658(2)
H4 H 0.7055 -0.1427 -0.4114
C5 C 0.6045(2) -0.20865(19) -0.5153(2)
C6 C 0.6363(2) -0.2990(2) -0.48316(19)
C7 C 0.5822(2) -0.44607(19) -0.5423(2)
C8 C 0.5048(2) -0.48629(19) -0.6187(2)
C9 C 0.4905(2) -0.5732(2) -0.6345(3)
H5 H 0.5342 -0.6111 -0.5954
C10 C 0.4144(3) -0.6051(2) -0.7055(3)
H6 H 0.4065 -0.6640 -0.7135
C11 C 0.3494(3) -0.5505(3) -0.7654(3)
H7 H 0.2971 -0.5709 -0.8146
C12 C 0.3655(2) -0.4644(2) -0.7490(3)
H8 H 0.3224 -0.4264 -0.7888
C13 C 0.54596(19) -0.32446(17) -0.7315(2)
C14 C 0.3891(2) -0.29642(19) -0.5852(2)
C15 C 0.3863(2) -0.26556(16) -0.7760(2)
C16 C 0.11412(19) -0.20137(18) -0.39005(19)
C17 C 0.11169(18) -0.21069(18) -0.2009(2)
C18 C -0.0524(2) -0.15667(19) -0.2556(2)
C19 C 0.1290(2) -0.0164(2) -0.2523(3)
H9 H 0.1731 -0.0507 -0.2073
C20 C 0.1444(3) 0.0679(2) -0.2500(3)
H10 H 0.1974 0.0915 -0.2055
C21 C 0.0767(3) 0.1196(2) -0.3179(3)
H11 H 0.0850 0.1784 -0.3200
C22 C 0.0001(3) 0.0828(2) -0.3794(3)
H12 H -0.0471 0.1165 -0.4203
C23 C -0.0077(2) -0.0049(2) -0.3812(2)
C24 C -0.0865(2) -0.0505(2) -0.4519(2)
C25 C -0.1363(2) -0.1990(2) -0.4954(3)
C26 C -0.1037(2) -0.2772(2) -0.4570(2)
C27 C -0.1588(3) -0.3442(3) -0.5074(3)
H13 H -0.2148 -0.3333 -0.5567
C28 C -0.1290(3) -0.4281(3) -0.4832(3)
H14 H -0.1770 -0.4604 -0.5259
C29 C -0.0462(3) -0.4440(2) -0.4102(3)
H15 H -0.0269 -0.5001 -0.3941
C30 C 0.0091(3) -0.3760(2) -0.3599(3)
H16 H 0.0619 -0.3923 -0.3206
N1 N 0.52948(17) -0.20096(17) -0.5954(2)
N2 N 0.57150(17) -0.35573(16) -0.54179(16)
N3 N 0.43983(18) -0.43185(15) -0.67906(19)
N4 N 0.05430(16) -0.05532(15) -0.31506(18)
N5 N -0.07416(18) -0.13917(18) -0.44331(18)
N6 N -0.02007(18) -0.29271(15) -0.38358(19)
N7 N 0.15843(17) -0.22562(17) -0.42909(19)
N8 N 0.34050(16) -0.28441(16) -0.54673(17)
N9 N -0.1010(2) -0.1419(2) -0.2196(3)
N10 N 0.5903(2) -0.3392(2) -0.7728(3)
N11 N 0.34110(17) -0.24681(17) -0.85149(18)
N12 N 0.15761(16) -0.22495(18) -0.12089(18)
O1 O 0.70397(16) -0.31741(16) -0.41575(19)
O2 O 0.64615(17) -0.48470(17) -0.4878(2)
O3 O -0.20624(16) -0.18814(17) -0.56497(18)
O4 O -0.15232(18) -0.01478(18) -0.5098(2)
O5 O 0.26384(17) -0.11452(15) -0.51983(19)
H17 H 0.2288 -0.0852 -0.5009
H18 H 0.2495 -0.1080 -0.5821
O6 O 0.2397(4) -0.4161(3) -0.4579(4)
H19 H 0.2615 -0.4225 -0.3951
H20 H 0.2753 -0.4470 -0.4869
Cu1C Cu 0.24961(2) -0.24544(2) 0.01241(3)
Cu1C_2 Cu 0.24961(2) -0.24544(2) -0.98759(3)
N11C N 0.34110(17) -0.25319(17) -0.35149(18)
N12C N 0.15761(16) -0.27505(18) -0.62089(18)
O7 O 0.74422(17) -0.04651(18) -0.2182(2)
H21 H 0.6888 -0.0541 -0.2527
H22 H 0.7752 -0.0799 -0.2387
O8 O 0.74345(18) -0.89205(18) -0.2895(2)
H23 H 0.7965 -0.9104 -0.2586
H24 H 0.7087 -0.9134 -0.2637
loop_
_geom_bond_atom_site_label_1
_geom_bond_atom_site_label_2
_geom_bond_site_symmetry_1
_geom_bond_site_symmetry_2
Cu1 N7 1_555 1_555
Fe1 C13 1_555 1_555
Fe2 C16 1_555 1_555
C1 H1 1_555 1_555
C2 C1 1_555 1_555
H2 C2 1_555 1_555
C3 C2 1_555 1_555
H3 C3 1_555 1_555
C4 C3 1_555 1_555
H4 C4 1_555 1_555
C5 C4 1_555 1_555
C6 C5 1_555 1_555
C7 C8 1_555 1_555
C8 C9 1_555 1_555
C9 H5 1_555 1_555
C10 C9 1_555 1_555
H6 C10 1_555 1_555
C11 C10 1_555 1_555
H7 C11 1_555 1_555
C12 C11 1_555 1_555
H8 C12 1_555 1_555
C13 N10 1_555 1_555
C14 Fe1 1_555 1_555
C15 Fe1 1_555 1_555
C16 N7 1_555 1_555
C17 Fe2 1_555 1_555
C18 Fe2 1_555 1_555
C19 H9 1_555 1_555
C20 C19 1_555 1_555
H10 C20 1_555 1_555
C21 C20 1_555 1_555
H11 C21 1_555 1_555
C22 C21 1_555 1_555
H12 C22 1_555 1_555
C23 C22 1_555 1_555
C24 C23 1_555 1_555
C25 C26 1_555 1_555
C26 C27 1_555 1_555
C27 H13 1_555 1_555
C28 C27 1_555 1_555
H14 C28 1_555 1_555
C29 C28 1_555 1_555
H15 C29 1_555 1_555
C30 C29 1_555 1_555
H16 C30 1_555 1_555
N1 Fe1 1_555 1_555
N2 Fe1 1_555 1_555
N3 Fe1 1_555 1_555
N4 Fe2 1_555 1_555
N5 Fe2 1_555 1_555
N6 Fe2 1_555 1_555
N8 Cu1 1_555 1_555
N9 C18 1_555 1_555
N11 C15 1_555 1_555
N12 C17 1_555 1_555
O1 C6 1_555 1_555
O2 C7 1_555 1_555
O3 C25 1_555 1_555
O4 C24 1_555 1_555
O5 Cu1 1_555 1_555
H17 O5 1_555 1_555
H18 O5 1_555 1_555
O6 Cu1 1_555 1_555
H19 O6 1_555 1_555
H20 O6 1_555 1_555
O7 H21 1_555 1_555
H22 O7 1_555 1_555
O8 H23 1_555 1_555
H24 O8 1_555 1_555
Cu1C N12 1_555 1_555
Cu1C_2 N11 1_555 1_555
N11C Cu1 1_555 1_555
N12C Cu1 1_555 1_555
C1 N1 1_555 1_555
C5 N1 1_555 1_555
C6 N2 1_555 1_555
C7 N2 1_555 1_555
C8 N3 1_555 1_555
C12 N3 1_555 1_555
C14 N8 1_555 1_555
C19 N4 1_555 1_555
C23 N4 1_555 1_555
C24 N5 1_555 1_555
C25 N5 1_555 1_555
C26 N6 1_555 1_555
C30 N6 1_555 1_555

#END
