
#######################################################################
#
#                 Cambridge Crystallographic Data Centre
#                                CCDC 
#
#######################################################################
#
# If this CIF has been generated from an entry in the Cambridge 
# Structural Database, then it will include bibliographic, chemical, 
# crystal, experimental, refinement or atomic coordinate data resulting 
# from the CCDC's data processing and validation procedures.
#
#######################################################################

data_PECQIY
_symmetry_cell_setting           orthorhombic
_symmetry_space_group_name_H-M   'P 21 21 21'
_symmetry_Int_Tables_number      19
_space_group_name_Hall           'P 2ac 2ab'
loop_
_symmetry_equiv_pos_site_id
_symmetry_equiv_pos_as_xyz
1 x,y,z
2 1/2-x,-y,1/2+z
3 -x,1/2+y,1/2-z
4 1/2+x,1/2-y,-z
_cell_length_a                   10.6602(10)
_cell_length_b                   11.9053(13)
_cell_length_c                   22.724(2)
_cell_angle_alpha                90
_cell_angle_beta                 90
_cell_angle_gamma                90
_cell_volume                     2883.97
loop_
_atom_site_label
_atom_site_type_symbol
_atom_site_fract_x
_atom_site_fract_y
_atom_site_fract_z
Fe1 Fe 0.35574(3) 0.54899(3) 1.087347(14)
Cu1 Cu 0.03653(3) 0.86967(3) 1.111490(13)
O1 O 0.35279(19) 0.57642(17) 1.26150(8)
O2 O 0.15806(19) 0.42750(18) 1.22241(8)
O3 O 0.25981(17) 0.85405(19) 1.25437(8)
O4 O 0.0586(2) 0.69481(18) 1.26290(8)
O6 O -0.12942(18) 0.98295(18) 1.15461(8)
H3 H -0.1098 0.9999 1.1898
H4 H -0.1386 1.0427 1.1346
N1 N 0.46484(19) 0.66404(17) 1.12301(9)
N2 N 0.29606(17) 0.53333(19) 1.16505(8)
N3 N 0.22657(17) 0.43575(18) 1.07057(8)
N4 N 0.5502(2) 0.3575(2) 1.10515(11)
N5 N 0.1801(2) 0.7396(2) 1.04480(12)
N6 N 0.46803(19) 0.57693(17) 0.96314(9)
N7 N 0.18183(18) 0.97748(19) 1.11785(10)
N8 N 0.10110(19) 0.82034(19) 1.18703(9)
N9 N -0.06566(18) 0.72816(18) 1.11974(9)
C1 C 0.5415(2) 0.7374(2) 1.09575(12)
H5 H 0.5485 0.7353 1.0550
C2 C 0.6098(3) 0.8154(3) 1.12691(15)
H6 H 0.6613 0.8659 1.1071
C3 C 0.6021(3) 0.8188(3) 1.18651(16)
H7 H 0.6502 0.8696 1.2079
C4 C 0.5219(3) 0.7459(3) 1.21502(13)
H8 H 0.5137 0.7480 1.2558
C5 C 0.4538(2) 0.6697(2) 1.18202(11)
C6 C 0.3627(2) 0.5895(2) 1.20897(11)
C7 C 0.2034(2) 0.4558(2) 1.17548(11)
C8 C 0.1619(2) 0.4032(2) 1.11875(11)
C9 C 0.0634(2) 0.3282(3) 1.11530(13)
H9 H 0.0196 0.3077 1.1490
C10 C 0.0309(3) 0.2844(3) 1.06159(14)
H10 H -0.0356 0.2343 1.0583
C11 C 0.0982(3) 0.3159(3) 1.01286(14)
H11 H 0.0790 0.2857 0.9762
C12 C 0.1943(2) 0.3922(2) 1.01845(11)
H12 H 0.2382 0.4141 0.9850
C13 C 0.4810(2) 0.4290(2) 1.09847(10)
C14 C 0.2420(2) 0.6683(3) 1.06149(12)
C15 C 0.4257(2) 0.5627(2) 1.00880(11)
C16 C 0.2198(3) 1.0537(3) 1.07888(13)
H13 H 0.1732 1.0643 1.0448
C17 C 0.3266(3) 1.1177(3) 1.08753(16)
H14 H 0.3505 1.1712 1.0599
C18 C 0.3967(3) 1.1010(3) 1.13732(17)
H15 H 0.4699 1.1418 1.1434
C19 C 0.3577(3) 1.0232(3) 1.17821(14)
H16 H 0.4033 1.0117 1.2126
C20 C 0.2497(2) 0.9625(2) 1.16738(12)
C21 C 0.2030(2) 0.8726(2) 1.20858(11)
C22 C 0.0421(3) 0.7319(2) 1.21328(11)
C23 C -0.0508(2) 0.6776(2) 1.17255(11)
C24 C -0.1114(3) 0.5797(3) 1.18620(15)
H17 H -0.0998 0.5468 1.2229
C25 C -0.1899(3) 0.5294(3) 1.14542(16)
H18 H -0.2329 0.4636 1.1543
C26 C -0.2024(3) 0.5800(3) 1.09124(16)
H19 H -0.2528 0.5475 1.0625
C27 C -0.1403(2) 0.6787(2) 1.07980(13)
H20 H -0.1502 0.7123 1.0432
Cu1C Cu 0.53653(3) 0.63033(3) 0.888510(13)
N6C N -0.03197(19) 0.92307(17) 1.03686(9)
O5 O 0.72568(19) 0.78942(18) 0.63130(9)
H1 H 0.6825 0.7561 0.6575
H2 H 0.8019 0.7689 0.6340
loop_
_geom_bond_atom_site_label_1
_geom_bond_atom_site_label_2
_geom_bond_site_symmetry_1
_geom_bond_site_symmetry_2
Fe1 N1 1_555 1_555
Cu1 O6 1_555 1_555
O1 C6 1_555 1_555
O2 C7 1_555 1_555
O3 C21 1_555 1_555
O4 C22 1_555 1_555
O5 H1 1_555 1_555
H2 O5 1_555 1_555
O6 H3 1_555 1_555
H4 O6 1_555 1_555
N1 C1 1_555 1_555
N2 Fe1 1_555 1_555
N3 Fe1 1_555 1_555
N4 C13 1_555 1_555
N5 Cu1 1_555 1_555
N6 C15 1_555 1_555
N7 Cu1 1_555 1_555
N8 Cu1 1_555 1_555
N9 Cu1 1_555 1_555
C1 H5 1_555 1_555
C2 C1 1_555 1_555
H6 C2 1_555 1_555
C3 C2 1_555 1_555
H7 C3 1_555 1_555
C4 C3 1_555 1_555
H8 C4 1_555 1_555
C5 N1 1_555 1_555
C6 N2 1_555 1_555
C7 N2 1_555 1_555
C8 N3 1_555 1_555
C9 C8 1_555 1_555
H9 C9 1_555 1_555
C10 C9 1_555 1_555
H10 C10 1_555 1_555
C11 C10 1_555 1_555
H11 C11 1_555 1_555
C12 N3 1_555 1_555
H12 C12 1_555 1_555
C13 Fe1 1_555 1_555
C14 Fe1 1_555 1_555
C15 Fe1 1_555 1_555
C16 N7 1_555 1_555
H13 C16 1_555 1_555
C17 C16 1_555 1_555
H14 C17 1_555 1_555
C18 C17 1_555 1_555
H15 C18 1_555 1_555
C19 C18 1_555 1_555
H16 C19 1_555 1_555
C20 N7 1_555 1_555
C21 N8 1_555 1_555
C22 N8 1_555 1_555
C23 N9 1_555 1_555
C24 C23 1_555 1_555
H17 C24 1_555 1_555
C25 C24 1_555 1_555
H18 C25 1_555 1_555
C26 C25 1_555 1_555
H19 C26 1_555 1_555
C27 N9 1_555 1_555
H20 C27 1_555 1_555
Cu1C N6 1_555 1_555
N6C Cu1 1_555 1_555
N5 C14 1_555 1_555
C4 C5 1_555 1_555
C5 C6 1_555 1_555
C7 C8 1_555 1_555
C11 C12 1_555 1_555
C19 C20 1_555 1_555
C20 C21 1_555 1_555
C22 C23 1_555 1_555
C26 C27 1_555 1_555

#END
