
#######################################################################
#
#                 Cambridge Crystallographic Data Centre
#                                CCDC 
#
#######################################################################
#
# If this CIF has been generated from an entry in the Cambridge 
# Structural Database, then it will include bibliographic, chemical, 
# crystal, experimental, refinement or atomic coordinate data resulting 
# from the CCDC's data processing and validation procedures.
#
#######################################################################

data_PEDBOQ
_symmetry_cell_setting           triclinic
_symmetry_space_group_name_H-M   'P -1'
_symmetry_Int_Tables_number      2
_space_group_name_Hall           '-P 1'
loop_
_symmetry_equiv_pos_site_id
_symmetry_equiv_pos_as_xyz
1 x,y,z
2 -x,-y,-z
_cell_length_a                   10.175(6)
_cell_length_b                   11.958(7)
_cell_length_c                   12.595(7)
_cell_angle_alpha                102.790(10)
_cell_angle_beta                 109.117(9)
_cell_angle_gamma                99.024(10)
_cell_volume                     1367.59
loop_
_atom_site_label
_atom_site_type_symbol
_atom_site_fract_x
_atom_site_fract_y
_atom_site_fract_z
Pd1 Pd 1.0000 1.0000 0.0000
Na1 Na 0.4589(3) 0.7154(3) 0.2628(2)
N1 N 0.6351(7) 0.7010(6) 0.1673(6)
N2 N 0.5914(8) 0.5217(6) -0.1912(6)
O1 O 0.3819(6) 0.8228(5) 0.0579(5)
O2 O 0.2060(6) 0.6572(5) 0.1047(5)
O3 O 0.2655(6) 0.7082(5) 0.3442(5)
O4 O 0.5268(6) 0.6647(5) 0.4557(4)
O5 O 0.6991(6) 0.8556(4) 0.4475(4)
O6 O 0.5050(6) 0.9508(5) 0.3075(5)
S1 S 0.8841(2) 0.92633(16) 0.11155(16)
S2 S 0.8464(2) 0.81874(17) -0.12414(16)
C1 C 0.2318(9) 0.7845(7) -0.0166(6)
C2 C 0.2140(9) 0.7814(7) -0.1442(7)
H1 H 0.1125 0.7597 -0.1931
H2 H 0.2549 0.8599 -0.1454
C3 C 0.2864(9) 0.6944(8) -0.1950(7)
H3 H 0.2684 0.6923 -0.2760
H4 H 0.3893 0.7206 -0.1513
C4 C 0.2325(10) 0.5727(7) -0.1900(7)
H5 H 0.2858 0.5205 -0.2178
H6 H 0.1321 0.5425 -0.2414
C5 C 0.2490(9) 0.5735(7) -0.0646(7)
H7 H 0.2074 0.4948 -0.0646
H8 H 0.3502 0.5949 -0.0152
C6 C 0.1762(9) 0.6601(7) -0.0148(7)
C7 C 0.1122(10) 0.6967(9) 0.1545(8)
H9 H 0.0146 0.6659 0.0972
H10 H 0.1336 0.7824 0.1753
C8 C 0.1225(9) 0.6598(10) 0.2582(8)
H11 H 0.0545 0.6873 0.2899
H12 H 0.0996 0.5741 0.2380
C9 C 0.2887(9) 0.6568(9) 0.4352(7)
H13 H 0.2677 0.5714 0.4039
H14 H 0.2261 0.6752 0.4768
C10 C 0.4411(9) 0.7039(9) 0.5166(7)
H15 H 0.4648 0.7898 0.5427
H16 H 0.4575 0.6754 0.5851
C11 C 0.6772(8) 0.6942(7) 0.5250(6)
C12 C 0.7413(9) 0.6196(7) 0.4501(7)
H17 H 0.7189 0.6367 0.3752
H18 H 0.6989 0.5363 0.4347
C13 C 0.9039(9) 0.6455(8) 0.5120(8)
H19 H 0.9266 0.6244 0.5849
H20 H 0.9429 0.5983 0.4626
C14 C 0.9696(9) 0.7737(9) 0.5373(7)
H21 H 0.9528 0.7929 0.4639
H22 H 1.0725 0.7900 0.5789
C15 C 0.9073(9) 0.8507(7) 0.6109(6)
H23 H 0.9490 0.9333 0.6222
H24 H 0.9337 0.8376 0.6876
C16 C 0.7433(9) 0.8258(7) 0.5548(6)
C17 C 0.7202(10) 0.9788(7) 0.4646(7)
H25 H 0.8220 1.0171 0.4975
H26 H 0.6772 1.0123 0.5185
C18 C 0.6527(10) 0.9971(7) 0.3507(8)
H27 H 0.6734 1.0811 0.3583
H28 H 0.6918 0.9587 0.2959
C19 C 0.4251(11) 0.9921(8) 0.2193(8)
H29 H 0.4563 1.0779 0.2441
H30 H 0.3252 0.9710 0.2102
C20 C 0.4344(10) 0.9481(8) 0.1053(8)
H31 H 0.3794 0.9854 0.0510
H32 H 0.5337 0.9702 0.1131
C21 C 0.7972(7) 0.8040(6) -0.0092(6)
C22 C 0.7023(8) 0.7073(6) -0.0114(6)
C23 C 0.6662(8) 0.7037(6) 0.0883(7)
C24 C 0.6397(8) 0.6054(7) -0.1132(7)
Na1A Na 1.5411(3) 1.2846(3) -0.2628(2)
Na1A_2 Na 0.5411(3) 0.2846(3) -0.2628(2)
Na1_2 Na 1.4589(3) 1.7154(3) 0.2628(2)
N1A N 1.3649(7) 1.2990(6) -0.1673(6)
N2A N 1.4086(8) 1.4783(6) 0.1912(6)
N2A_2 N 0.4086(8) 0.4783(6) 0.1912(6)
N2_2 N 1.5914(8) 1.5217(6) -0.1912(6)
O1A O 1.6181(6) 1.1772(5) -0.0579(5)
O2A O 1.7940(6) 1.3428(5) -0.1047(5)
O3A O 1.7345(6) 1.2918(5) -0.3442(5)
O4A O 1.4732(6) 1.3353(5) -0.4557(4)
O5A O 1.3009(6) 1.1444(4) -0.4475(4)
O6A O 1.4950(6) 1.0492(5) -0.3075(5)
S1A S 1.1159(2) 1.07367(16) -0.11155(16)
S2A S 1.1536(2) 1.18126(17) 0.12414(16)
C1A C 1.7682(9) 1.2155(7) 0.0166(6)
C2A C 1.7860(9) 1.2186(7) 0.1442(7)
H1A H 1.8875 1.2403 0.1931
H2A H 1.7451 1.1401 0.1454
C3A C 1.7136(9) 1.3056(8) 0.1950(7)
H3A H 1.7316 1.3077 0.2760
H4A H 1.6107 1.2794 0.1513
C4A C 1.7675(10) 1.4273(7) 0.1900(7)
H5A H 1.7142 1.4795 0.2178
H6A H 1.8679 1.4575 0.2414
C5A C 1.7510(9) 1.4265(7) 0.0646(7)
H7A H 1.7926 1.5052 0.0646
H8A H 1.6498 1.4051 0.0152
C6A C 1.8238(9) 1.3399(7) 0.0148(7)
C7A C 1.8878(10) 1.3033(9) -0.1545(8)
H9A H 1.9854 1.3341 -0.0972
H10A H 1.8664 1.2176 -0.1753
C8A C 1.8775(9) 1.3402(10) -0.2582(8)
H11A H 1.9455 1.3127 -0.2899
H12A H 1.9004 1.4259 -0.2380
C9A C 1.7113(9) 1.3432(9) -0.4352(7)
H13A H 1.7323 1.4286 -0.4039
H14A H 1.7739 1.3248 -0.4768
C10A C 1.5589(9) 1.2961(9) -0.5166(7)
H15A H 1.5352 1.2102 -0.5427
H16A H 1.5425 1.3246 -0.5851
C11A C 1.3228(8) 1.3058(7) -0.5250(6)
C12A C 1.2587(9) 1.3804(7) -0.4501(7)
H17A H 1.2811 1.3633 -0.3752
H18A H 1.3011 1.4637 -0.4347
C13A C 1.0961(9) 1.3545(8) -0.5120(8)
H19A H 1.0734 1.3756 -0.5849
H20A H 1.0571 1.4017 -0.4626
C14A C 1.0304(9) 1.2263(9) -0.5373(7)
H21A H 1.0472 1.2071 -0.4639
H22A H 0.9275 1.2100 -0.5789
C15A C 1.0927(9) 1.1493(7) -0.6109(6)
H23A H 1.0510 1.0667 -0.6222
H24A H 1.0663 1.1624 -0.6876
C16A C 1.2567(9) 1.1742(7) -0.5548(6)
C17A C 1.2798(10) 1.0212(7) -0.4646(7)
H25A H 1.1780 0.9829 -0.4975
H26A H 1.3228 0.9877 -0.5185
C18A C 1.3473(10) 1.0029(7) -0.3507(8)
H27A H 1.3266 0.9189 -0.3583
H28A H 1.3082 1.0413 -0.2959
C19A C 1.5749(11) 1.0079(8) -0.2193(8)
H29A H 1.5437 0.9221 -0.2441
H30A H 1.6748 1.0290 -0.2102
C20A C 1.5656(10) 1.0519(8) -0.1053(8)
H31A H 1.6206 1.0146 -0.0510
H32A H 1.4663 1.0298 -0.1131
C21A C 1.2028(7) 1.1960(6) 0.0092(6)
C22A C 1.2977(8) 1.2927(6) 0.0114(6)
C23A C 1.3338(8) 1.2963(6) -0.0883(7)
C24A C 1.3603(8) 1.3946(7) 0.1132(7)
loop_
_geom_bond_atom_site_label_1
_geom_bond_atom_site_label_2
_geom_bond_site_symmetry_1
_geom_bond_site_symmetry_2
Pd1 S1 1_555 1_555
Na1 N1 1_555 1_555
N1 C23 1_555 1_555
N2 C24 1_555 1_555
O1 Na1 1_555 1_555
O2 Na1 1_555 1_555
O3 Na1 1_555 1_555
O4 Na1 1_555 1_555
O5 Na1 1_555 1_555
O6 Na1 1_555 1_555
S1 C21 1_555 1_555
S2 Pd1 1_555 1_555
C1 O1 1_555 1_555
C2 C1 1_555 1_555
H1 C2 1_555 1_555
H2 C2 1_555 1_555
C3 C2 1_555 1_555
H3 C3 1_555 1_555
H4 C3 1_555 1_555
C4 C3 1_555 1_555
H5 C4 1_555 1_555
H6 C4 1_555 1_555
C5 C4 1_555 1_555
H7 C5 1_555 1_555
H8 C5 1_555 1_555
C6 O2 1_555 1_555
C7 O2 1_555 1_555
H9 C7 1_555 1_555
H10 C7 1_555 1_555
C8 O3 1_555 1_555
H11 C8 1_555 1_555
H12 C8 1_555 1_555
C9 O3 1_555 1_555
H13 C9 1_555 1_555
H14 C9 1_555 1_555
C10 O4 1_555 1_555
H15 C10 1_555 1_555
H16 C10 1_555 1_555
C11 O4 1_555 1_555
C12 C11 1_555 1_555
H17 C12 1_555 1_555
H18 C12 1_555 1_555
C13 C12 1_555 1_555
H19 C13 1_555 1_555
H20 C13 1_555 1_555
C14 C13 1_555 1_555
H21 C14 1_555 1_555
H22 C14 1_555 1_555
C15 C14 1_555 1_555
H23 C15 1_555 1_555
H24 C15 1_555 1_555
C16 O5 1_555 1_555
C17 O5 1_555 1_555
H25 C17 1_555 1_555
H26 C17 1_555 1_555
C18 O6 1_555 1_555
H27 C18 1_555 1_555
H28 C18 1_555 1_555
C19 O6 1_555 1_555
H29 C19 1_555 1_555
H30 C19 1_555 1_555
C20 O1 1_555 1_555
H31 C20 1_555 1_555
H32 C20 1_555 1_555
C21 S2 1_555 1_555
C22 C21 1_555 1_555
C23 C22 1_555 1_555
C24 C22 1_555 1_555
Na1A N1A 1_555 1_555
Na1A_2 N2 1_555 1_555
Na1_2 N2A 1_555 1_555
N1A C23A 1_555 1_555
N2A C24A 1_555 1_555
N2A_2 Na1 1_555 1_555
N2_2 Na1A 1_555 1_555
O1A Na1A 1_555 1_555
O2A Na1A 1_555 1_555
O3A Na1A 1_555 1_555
O4A Na1A 1_555 1_555
O5A Na1A 1_555 1_555
O6A Na1A 1_555 1_555
S1A Pd1 1_555 1_555
S2A Pd1 1_555 1_555
C1A O1A 1_555 1_555
C2A C1A 1_555 1_555
H1A C2A 1_555 1_555
H2A C2A 1_555 1_555
C3A C2A 1_555 1_555
H3A C3A 1_555 1_555
H4A C3A 1_555 1_555
C4A C3A 1_555 1_555
H5A C4A 1_555 1_555
H6A C4A 1_555 1_555
C5A C4A 1_555 1_555
H7A C5A 1_555 1_555
H8A C5A 1_555 1_555
C6A O2A 1_555 1_555
C7A O2A 1_555 1_555
H9A C7A 1_555 1_555
H10A C7A 1_555 1_555
C8A O3A 1_555 1_555
H11A C8A 1_555 1_555
H12A C8A 1_555 1_555
C9A O3A 1_555 1_555
H13A C9A 1_555 1_555
H14A C9A 1_555 1_555
C10A O4A 1_555 1_555
H15A C10A 1_555 1_555
H16A C10A 1_555 1_555
C11A O4A 1_555 1_555
C12A C11A 1_555 1_555
H17A C12A 1_555 1_555
H18A C12A 1_555 1_555
C13A C12A 1_555 1_555
H19A C13A 1_555 1_555
H20A C13A 1_555 1_555
C14A C13A 1_555 1_555
H21A C14A 1_555 1_555
H22A C14A 1_555 1_555
C15A C14A 1_555 1_555
H23A C15A 1_555 1_555
H24A C15A 1_555 1_555
C16A O5A 1_555 1_555
C17A O5A 1_555 1_555
H25A C17A 1_555 1_555
H26A C17A 1_555 1_555
C18A O6A 1_555 1_555
H27A C18A 1_555 1_555
H28A C18A 1_555 1_555
C19A O6A 1_555 1_555
H29A C19A 1_555 1_555
H30A C19A 1_555 1_555
C20A O1A 1_555 1_555
H31A C20A 1_555 1_555
H32A C20A 1_555 1_555
C21A S1A 1_555 1_555
C22A C21A 1_555 1_555
C23A C22A 1_555 1_555
C24A C22A 1_555 1_555
C1 C6 1_555 1_555
C5 C6 1_555 1_555
C7 C8 1_555 1_555
C9 C10 1_555 1_555
C11 C16 1_555 1_555
C15 C16 1_555 1_555
C17 C18 1_555 1_555
C19 C20 1_555 1_555
S2A C21A 1_555 1_555
C1A C6A 1_555 1_555
C5A C6A 1_555 1_555
C7A C8A 1_555 1_555
C9A C10A 1_555 1_555
C11A C16A 1_555 1_555
C15A C16A 1_555 1_555
C17A C18A 1_555 1_555
C19A C20A 1_555 1_555

#END
