
#######################################################################
#
#                 Cambridge Crystallographic Data Centre
#                                CCDC 
#
#######################################################################
#
# If this CIF has been generated from an entry in the Cambridge 
# Structural Database, then it will include bibliographic, chemical, 
# crystal, experimental, refinement or atomic coordinate data resulting 
# from the CCDC's data processing and validation procedures.
#
#######################################################################

data_PEDGUA
_symmetry_cell_setting           monoclinic
_symmetry_space_group_name_H-M   'P 21/n'
_symmetry_Int_Tables_number      14
_space_group_name_Hall           '-P 2yn'
loop_
_symmetry_equiv_pos_site_id
_symmetry_equiv_pos_as_xyz
1 x,y,z
2 1/2-x,1/2+y,1/2-z
3 -x,-y,-z
4 1/2+x,1/2-y,1/2+z
_cell_length_a                   13.367(1)
_cell_length_b                   13.852(1)
_cell_length_c                   14.023(1)
_cell_angle_alpha                90
_cell_angle_beta                 91.61(2)
_cell_angle_gamma                90
_cell_volume                     2595.47
loop_
_atom_site_label
_atom_site_type_symbol
_atom_site_fract_x
_atom_site_fract_y
_atom_site_fract_z
Ba1 Ba -1.03349(6) -0.06976(6) 0.76378(6)
Ba2 Ba -0.96536(6) -0.33780(6) 0.95550(5)
Ti1 Ti -0.8727(2) -0.3772(2) 0.5277(1)
Ti2 Ti -0.5820(2) -0.1111(2) 0.8829(1)
O1 O -1.078(1) 0.090(1) 0.649(1)
O2 O -1.116(1) 0.063(1) 0.891
O3 O -0.8526(7) -0.1064(9) 0.6709(7)
O4 O -1.2452(9) -0.082(1) 0.7256(8)
O5 O -0.9078(9) 0.072(1) 0.822(1)
O6 O -1.064(1) -0.134(1) 0.5804(9)
O7 O -0.4566(6) -0.1391(6) 0.9262(5)
O8 O -0.8939(6) -0.5044(7) 0.5482(6)
O9 O -0.8035(8) -0.4585(8) 1.0263(9)
O11 O -0.7942(6) -0.3730(6) 0.6601(6)
O12 O -0.9745(6) -0.3255(7) 0.6158(5)
O13 O -0.8153(6) -0.3507(8) 0.8163(6)
O14 O -1.0099(7) -0.2887(7) 0.7645(6)
O15 O -0.8854(6) -0.1521(7) 0.8859(6)
O16 O -0.6432(6) -0.2043(7) 0.9701(6)
O17 O -0.7878(7) -0.2576(7) 1.0287(6)
O18 O -0.7330(6) -0.1093(7) 0.8372(6)
O19 O -1.0127(7) -0.4664(7) 1.1133(6)
O20 O -1.0511(6) -0.4698(6) 1.2667(6)
O21 O -1.0157(8) -0.2626(7) 1.1301(6)
O22 O -1.0685(7) -0.2858(6) 1.2769(6)
O23 O -1.3146(6) -0.2657(7) 1.0201(6)
O24 O -1.1758(7) -0.3460(8) 0.9835(8)
O25 O -1.2415(6) -0.1025(6) 0.9657(6)
O26 O -1.0991(6) -0.1726(8) 0.9221(7)
C1 C -0.9518(9) -0.320(1) 0.7054(9)
C2 C -0.8448(8) -0.350(1) 0.7323(9)
C3 C -0.7934(9) -0.152(1) 0.892(1)
C4 C -0.740(1) -0.209(1) 0.9715(9)
C5 C -1.0328(9) -0.4245(9) 1.1888(8)
C6 C -1.040(1) -0.317(1) 1.1973(8)
C7 C -1.227(1) -0.273(1) 0.9906(9)
C8 C -1.1832(8) -0.176(1) 0.9542(8)
Ti1C Ti -0.3727(2) -0.1228(2) 1.0277(1)
O8A O -0.6061(6) -0.0044(7) 0.9518(6)
Ti1C_2 Ti -1.3727(2) -0.1228(2) 1.0277(1)
Ti2C Ti -1.0820(2) -0.3889(2) 1.3829(1)
O7C O -0.9566(6) -0.3609(6) 0.4262(5)
O20C O -0.5511(6) -0.0302(6) 0.7667(6)
O23C O -0.8146(6) -0.2343(7) 0.5201(6)
O25C O -0.7415(6) -0.3975(6) 0.4657(6)
O22C O -0.5685(7) -0.2142(6) 0.7769(6)
O19B O -0.9873(7) -0.5336(7) 0.8867(6)
Ba2B Ba -1.03464(6) -0.66220(6) 1.04450(5)
Ti2A Ti -0.9180(2) -0.6111(2) 0.6171(1)
O10 O 0.673(1) 0.073(1) 0.829(1)
O27 O 0.637(1) 0.425(1) 0.091(1)
O28 O 0.787(2) 0.222(1) 0.735(1)
loop_
_geom_bond_atom_site_label_1
_geom_bond_atom_site_label_2
_geom_bond_site_symmetry_1
_geom_bond_site_symmetry_2
Ba1 O1 1_555 1_555
Ba2 O9 1_555 1_555
Ti1 O8 1_555 1_555
Ti2 O7 1_555 1_555
O2 Ba1 1_555 1_555
O3 Ba1 1_555 1_555
O4 Ba1 1_555 1_555
O5 Ba1 1_555 1_555
O6 Ba1 1_555 1_555
O7 Ti1C 1_555 1_555
O8 Ti2A 1_555 1_555
O11 Ti1 1_555 1_555
O12 Ti1 1_555 1_555
O13 Ba2 1_555 1_555
O14 Ba1 1_555 1_555
O15 Ba1 1_555 1_555
O16 Ti2 1_555 1_555
O17 Ba2 1_555 1_555
O18 Ti2 1_555 1_555
O19 Ba2 1_555 1_555
O20 C5 1_555 1_555
O21 Ba2 1_555 1_555
O22 C6 1_555 1_555
O23 C7 1_555 1_555
O24 Ba2 1_555 1_555
O25 C8 1_555 1_555
O26 Ba1 1_555 1_555
C1 O12 1_555 1_555
C2 O11 1_555 1_555
C3 O15 1_555 1_555
C4 O16 1_555 1_555
C5 O19 1_555 1_555
C6 O21 1_555 1_555
C7 O24 1_555 1_555
C8 O26 1_555 1_555
O8A Ti2 1_555 1_555
Ti1C_2 O23 1_555 1_555
Ti2C O20 1_555 1_555
O7C Ti1 1_555 1_555
O20C Ti2 1_555 1_555
O23C Ti1 1_555 1_555
O25C Ti1 1_555 1_555
O22C Ti2 1_555 1_555
O19B Ba2 1_555 1_555
Ba2B O19 1_555 1_555
Ba2 O15 1_555 1_555
Ba2 O14 1_555 1_555
Ba2 O26 1_555 1_555
O13 C2 1_555 1_555
O14 C1 1_555 1_555
O17 C4 1_555 1_555
O18 C3 1_555 1_555
O22 Ti2C 1_555 1_555
O25 Ti1C_2 1_555 1_555
C1 C2 1_555 1_555
C3 C4 1_555 1_555
C5 C6 1_555 1_555
C7 C8 1_555 1_555
O19B Ba2B 1_555 1_555

#END
