
#######################################################################
#
#                 Cambridge Crystallographic Data Centre
#                                CCDC 
#
#######################################################################
#
# If this CIF has been generated from an entry in the Cambridge 
# Structural Database, then it will include bibliographic, chemical, 
# crystal, experimental, refinement or atomic coordinate data resulting 
# from the CCDC's data processing and validation procedures.
#
#######################################################################

data_PEDKUF
_symmetry_cell_setting           tetragonal
_symmetry_space_group_name_H-M   'I -4'
_symmetry_Int_Tables_number      82
_space_group_name_Hall           'I -4'
loop_
_symmetry_equiv_pos_site_id
_symmetry_equiv_pos_as_xyz
1 x,y,z
2 -x,-y,z
3 y,-x,-z
4 -y,x,-z
5 1/2+x,1/2+y,1/2+z
6 1/2-x,1/2-y,1/2+z
7 1/2+y,1/2-x,1/2-z
8 1/2-y,1/2+x,1/2-z
_cell_length_a                   20.1978(6)
_cell_length_b                   20.1978(6)
_cell_length_c                   25.0325(14)
_cell_angle_alpha                90
_cell_angle_beta                 90
_cell_angle_gamma                90
_cell_volume                     10212
loop_
_atom_site_label
_atom_site_type_symbol
_atom_site_fract_x
_atom_site_fract_y
_atom_site_fract_z
B1 B 0.9729(8) 0.0392(8) 0.3130(7)
F1 F 0.9463(15) -0.0037(13) 0.2723(10)
F2 F 1.0334(11) 0.0701(14) 0.2892(12)
F3 F 1.0000 0.0000 0.3577(9)
F4 F 0.9271(7) 0.0891(6) 0.3301(5)
B1A B 1.0271(8) -0.0392(8) 0.3130(7)
F1A F 1.0537(15) 0.0037(13) 0.2723(10)
F2A F 0.9666(11) -0.0701(14) 0.2892(12)
F4A F 1.0729(7) -0.0891(6) 0.3301(5)
Ag1 Ag 0.266858(14) 0.24615(2) 0.125385(14)
S1 S 0.36164(5) 0.23707(7) 0.04988(4)
S2 S 0.36678(5) 0.26149(6) 0.18604(4)
S3 S 0.68139(6) 0.32235(6) 0.31595(4)
S4 S 0.81367(8) 0.30804(6) 0.25769(4)
S5 S 0.81392(6) 0.18782(5) -0.02989(4)
S6 S 0.67613(5) 0.17403(6) -0.09294(4)
C1 C 0.4945(2) 0.2282(2) 0.06214(17)
H1 H 0.4931 0.2162 0.0263
C2 C 0.4356(2) 0.2391(2) 0.08886(18)
C3 C 0.4380(2) 0.2531(2) 0.14398(17)
C4 C 0.4979(2) 0.2599(3) 0.16868(17)
H2 H 0.4986 0.2701 0.2049
C5 C 0.6224(3) 0.2832(2) 0.22171(17)
H3 H 0.5824 0.2882 0.2398
C6 C 0.6808(2) 0.2960(2) 0.24829(15)
C7 C 0.7413(2) 0.2884(2) 0.22128(17)
C8 C 0.7413(2) 0.26730(19) 0.16792(14)
H4 H 0.7813 0.2622 0.1500
C9 C 0.7384(2) 0.2166(2) 0.05673(16)
H5 H 0.7791 0.2201 0.0739
C10 C 0.7368(2) 0.1978(2) 0.00334(16)
C11 C 0.6756(2) 0.1940(2) -0.02285(16)
C12 C 0.6178(2) 0.2046(2) 0.00446(16)
H6 H 0.5775 0.1996 -0.0130
C13 C 0.6188(2) 0.2231(2) 0.05844(17)
C14 C 0.5563(2) 0.2347(2) 0.08710(16)
C15 C 0.55805(19) 0.2522(2) 0.14211(16)
C16 C 0.6216(2) 0.2630(2) 0.16839(15)
C17 C 0.6815(2) 0.25370(19) 0.14110(14)
C18 C 0.6800(2) 0.23070(19) 0.08562(16)
C19 C 0.3741(2) 0.3119(3) 0.0128(2)
C20 C 0.3744(4) 0.3732(3) 0.0363(3)
H7 H 0.3667 0.3767 0.0729
C21 C 0.3852(4) 0.4273(4) 0.0083(5)
H8 H 0.3863 0.4681 0.0255
C22 C 0.3950(4) 0.4244(5) -0.0468(4)
H9 H 0.4013 0.4629 -0.0665
C23 C 0.3951(3) 0.3646(4) -0.0714(3)
H10 H 0.4019 0.3616 -0.1081
C24 C 0.3849(3) 0.3082(3) -0.0413(2)
H11 H 0.3853 0.2670 -0.0579
C25 C 0.3773(2) 0.1882(3) 0.22556(19)
C26 C 0.3859(3) 0.1953(3) 0.2794(2)
H12 H 0.3857 0.2366 0.2958
C27 C 0.3954(3) 0.1353(5) 0.3091(3)
H13 H 0.4021 0.1376 0.3458
C28 C 0.3947(4) 0.0747(4) 0.2849(4)
H14 H 0.4006 0.0368 0.3053
C29 C 0.3863(4) 0.0695(4) 0.2358(4)
H15 H 0.3865 0.0275 0.2206
C30 C 0.3763(3) 0.1257(3) 0.2017(3)
H16 H 0.3695 0.1207 0.1652
C31 C 0.5953(3) 0.3281(2) 0.33206(19)
C32 C 0.5663(3) 0.2801(3) 0.3629(2)
H17 H 0.5902 0.2430 0.3736
C33 C 0.4998(5) 0.2880(4) 0.3782(3)
H18 H 0.4802 0.2563 0.4000
C34 C 0.4645(6) 0.3395(4) 0.3623(4)
H19 H 0.4204 0.3435 0.3726
C35 C 0.4949(5) 0.3904(4) 0.3282(4)
H20 H 0.4704 0.4266 0.3163
C36 C 0.5600(3) 0.3833(3) 0.3144(3)
H21 H 0.5806 0.4151 0.2933
C37 C 0.8801(3) 0.2783(2) 0.2188(2)
C38 C 0.9002(3) 0.2121(4) 0.2214(3)
H22 H 0.8751 0.1822 0.2411
C39 C 0.9551(4) 0.1907(5) 0.1961(4)
H23 H 0.9680 0.1467 0.1988
C40 C 0.9929(7) 0.2358(4) 0.1653(4)
H24 H 1.0310 0.2210 0.1482
C41 C 0.9749(7) 0.2997(5) 0.1601(5)
H25 H 0.9998 0.3287 0.1394
C42 C 0.9162(5) 0.3222(4) 0.1873(4)
H26 H 0.9024 0.3659 0.1838
C43 C 0.8222(2) 0.0997(2) -0.03562(18)
C44 C 0.8833(3) 0.0780(3) -0.0551(2)
H27 H 0.9165 0.1083 -0.0633
C45 C 0.8937(3) 0.0104(3) -0.0619(2)
H28 H 0.9335 -0.0039 -0.0766
C46 C 0.8472(3) -0.0354(3) -0.0477(2)
H29 H 0.8547 -0.0805 -0.0519
C47 C 0.7881(3) -0.0117(3) -0.0268(3)
H30 H 0.7562 -0.0422 -0.0161
C48 C 0.7744(2) 0.0549(3) -0.0209(2)
H31 H 0.7340 0.0691 -0.0074
C49 C 0.5930(3) 0.1896(2) -0.11313(16)
C50 C 0.5765(3) 0.2478(3) -0.1372(2)
H32 H 0.6077 0.2811 -0.1419
C51 C 0.5099(5) 0.2560(4) -0.1551(3)
H33 H 0.4978 0.2956 -0.1713
C52 C 0.4666(5) 0.2108(4) -0.1493(4)
H34 H 0.4238 0.2178 -0.1618
C53 C 0.4836(5) 0.1462(4) -0.1228(4)
H35 H 0.4521 0.1132 -0.1176
C54 C 0.5476(4) 0.1386(3) -0.1069(3)
H36 H 0.5611 0.0989 -0.0917
Ag1G Ag 0.25385(2) -0.233142(14) 0.374615(14)
Ag1F Ag 0.74615(2) 0.233142(14) 0.374615(14)
Ag1C Ag 0.75385(2) 0.266858(14) -0.125385(14)
Ag1E Ag 0.233142(14) 0.25385(2) 0.625385(14)
S1G S 0.26293(7) -0.13836(5) 0.45012(4)
S2G S 0.23851(6) -0.13322(5) 0.31396(4)
S3G S 0.17765(6) 0.18139(6) 0.18405(4)
S3A S 0.31861(6) -0.32235(6) 0.31595(4)
S4G S 0.19196(6) 0.31367(8) 0.24231(4)
S4A S 0.18633(8) -0.30804(6) 0.25769(4)
S5G S 0.31218(5) 0.31392(6) 0.52989(4)
S5B S 0.18782(5) 0.18608(6) 0.02989(4)
S5D S 0.31392(6) -0.31218(5) 0.47011(4)
S6G S 0.32597(6) 0.17613(5) 0.59294(4)
S6B S 0.17403(6) 0.32387(5) 0.09294(4)
S6D S 0.17613(5) -0.32597(6) 0.40706(4)
C1G C 0.2718(2) -0.0055(2) 0.43786(17)
H1G H 0.2838 -0.0069 0.4737
C2G C 0.2609(2) -0.0644(2) 0.41114(18)
C3G C 0.2469(2) -0.0620(2) 0.35602(17)
C4G C 0.2401(3) -0.0021(2) 0.33132(17)
H2G H 0.2299 -0.0014 0.2951
C5G C 0.2168(2) 0.1224(3) 0.27829(17)
H3G H 0.2118 0.0824 0.2602
C6G C 0.2040(2) 0.1808(2) 0.25171(15)
C7G C 0.2116(2) 0.2413(2) 0.27872(17)
C8G C 0.23270(19) 0.2413(2) 0.33208(14)
H4G H 0.2378 0.2813 0.3500
C9G C 0.2834(2) 0.2384(2) 0.44327(16)
H5G H 0.2799 0.2791 0.4261
C10G C 0.3022(2) 0.2368(2) 0.49666(16)
C11G C 0.3060(2) 0.1756(2) 0.52285(16)
C12G C 0.2954(2) 0.1178(2) 0.49554(16)
H6G H 0.3004 0.0775 0.5130
C13G C 0.2769(2) 0.1188(2) 0.44156(17)
C14G C 0.2653(2) 0.0563(2) 0.41290(16)
C15G C 0.2478(2) 0.05805(19) 0.35789(16)
C16G C 0.2370(2) 0.1216(2) 0.33161(15)
C17G C 0.24630(19) 0.1815(2) 0.35890(14)
C18G C 0.26930(19) 0.1800(2) 0.41438(16)
C19G C 0.1881(3) -0.1259(2) 0.4872(2)
C20G C 0.1268(3) -0.1256(4) 0.4637(3)
H7G H 0.1233 -0.1333 0.4271
C21G C 0.0727(4) -0.1148(4) 0.4917(5)
H8G H 0.0319 -0.1137 0.4745
C22G C 0.0756(5) -0.1050(4) 0.5468(4)
H9G H 0.0371 -0.0987 0.5665
C23G C 0.1354(4) -0.1049(3) 0.5714(3)
H10G H 0.1384 -0.0981 0.6081
C24G C 0.1918(3) -0.1151(3) 0.5413(2)
H11G H 0.2330 -0.1147 0.5579
C25G C 0.3118(3) -0.1227(2) 0.27444(19)
C26G C 0.3047(3) -0.1141(3) 0.2206(2)
H12G H 0.2634 -0.1143 0.2042
C27G C 0.3647(5) -0.1046(3) 0.1909(3)
H13G H 0.3624 -0.0979 0.1542
C28G C 0.4253(4) -0.1053(4) 0.2151(4)
H14G H 0.4632 -0.0994 0.1947
C29G C 0.4305(4) -0.1137(4) 0.2642(4)
H15G H 0.4725 -0.1135 0.2794
C30G C 0.3743(3) -0.1237(3) 0.2983(3)
H16G H 0.3793 -0.1305 0.3348
C31G C 0.1719(2) 0.0953(3) 0.16794(19)
C32G C 0.2199(3) 0.0663(3) 0.1371(2)
H17G H 0.2570 0.0902 0.1264
C33G C 0.2120(4) -0.0002(5) 0.1218(3)
H18G H 0.2437 -0.0198 0.1000
C34G C 0.1605(4) -0.0355(6) 0.1377(4)
H19G H 0.1565 -0.0796 0.1274
C35G C 0.1096(4) -0.0051(5) 0.1718(4)
H20G H 0.0734 -0.0296 0.1837
C36G C 0.1167(3) 0.0600(3) 0.1856(3)
H21G H 0.0849 0.0806 0.2067
C37G C 0.2217(2) 0.3801(3) 0.2812(2)
C38G C 0.2879(4) 0.4002(3) 0.2786(3)
H22G H 0.3178 0.3751 0.2589
C39G C 0.3093(5) 0.4551(4) 0.3039(4)
H23G H 0.3533 0.4680 0.3012
C40G C 0.2642(4) 0.4929(7) 0.3347(4)
H24G H 0.2790 0.5310 0.3518
C41G C 0.2003(5) 0.4749(7) 0.3399(5)
H25G H 0.1713 0.4998 0.3606
C42G C 0.1778(4) 0.4162(5) 0.3127(4)
H26G H 0.1341 0.4024 0.3162
C43G C 0.4003(2) 0.3222(2) 0.53562(18)
C44G C 0.4220(3) 0.3833(3) 0.5551(2)
H27G H 0.3917 0.4165 0.5633
C45G C 0.4896(3) 0.3937(3) 0.5619(2)
H28G H 0.5039 0.4335 0.5766
C46G C 0.5354(3) 0.3472(3) 0.5477(2)
H29G H 0.5805 0.3547 0.5519
C47G C 0.5117(3) 0.2881(3) 0.5268(3)
H30G H 0.5422 0.2562 0.5161
C48G C 0.4451(3) 0.2744(2) 0.5209(2)
H31G H 0.4309 0.2340 0.5074
C49G C 0.3104(2) 0.0930(3) 0.61313(16)
C50G C 0.2522(3) 0.0765(3) 0.6372(2)
H32G H 0.2189 0.1077 0.6419
C51G C 0.2440(4) 0.0099(5) 0.6551(3)
H33G H 0.2044 -0.0022 0.6713
C52G C 0.2892(4) -0.0334(5) 0.6493(4)
H34G H 0.2822 -0.0762 0.6618
C53G C 0.3538(4) -0.0164(5) 0.6228(4)
H35G H 0.3868 -0.0479 0.6176
C54G C 0.3614(3) 0.0476(4) 0.6069(3)
H36G H 0.4011 0.0611 0.5917
B2? B 0.0155(6) 0.5874(6) -0.0491(5)
F5? F 0.0070(9) 0.5230(6) -0.0785(6)
F6? F 0.0658(7) 0.6252(7) -0.0736(6)
F7? F -0.0409(5) 0.6288(5) -0.0569(5)
F8? F 0.0228(6) 0.5709(5) 0.0062(4)
B3? B 0.0228(6) 0.5709(5) 0.0062(4)
F9? F 0.0000 0.5000 0.0178(5)
F10? F 0.0895(7) 0.5838(9) 0.0223(7)
F11? F -0.0079(6) 0.6234(6) 0.0355(5)
F12? F 0.0155(6) 0.5874(6) -0.0491(5)
O1? O 0.0000 0.5000 0.0621(6)
C55? C 0.0228(6) 0.5709(5) 0.0062(4)
C56? C 0.0000 0.5000 0.0178(5)
O2? O 0.0000 0.5000 -0.1290(10)
C57? C 0.0155(6) 0.5874(6) -0.0491(5)
C58? C 0.0070(9) 0.5230(6) -0.0785(6)
C59? C 0.0055(12) 0.5335(12) -0.0289(10)
loop_
_geom_bond_atom_site_label_1
_geom_bond_atom_site_label_2
_geom_bond_site_symmetry_1
_geom_bond_site_symmetry_2
Ag1 S1 1_555 1_555
S1 C2 1_555 1_555
S2 Ag1 1_555 1_555
S3 C6 1_555 1_555
S4 C7 1_555 1_555
S5 C10 1_555 1_555
S6 C11 1_555 1_555
C1 H1 1_555 1_555
C2 C1 1_555 1_555
C3 S2 1_555 1_555
C4 C3 1_555 1_555
H2 C4 1_555 1_555
C5 H3 1_555 1_555
C6 C5 1_555 1_555
C7 C6 1_555 1_555
C8 C7 1_555 1_555
H4 C8 1_555 1_555
C9 H5 1_555 1_555
C10 C9 1_555 1_555
C11 C10 1_555 1_555
C12 C11 1_555 1_555
H6 C12 1_555 1_555
C13 C12 1_555 1_555
C14 C1 1_555 1_555
C15 C4 1_555 1_555
C16 C5 1_555 1_555
C17 C8 1_555 1_555
C18 C9 1_555 1_555
C19 S1 1_555 1_555
C20 C19 1_555 1_555
H7 C20 1_555 1_555
C21 C20 1_555 1_555
H8 C21 1_555 1_555
C22 C21 1_555 1_555
H9 C22 1_555 1_555
C23 C22 1_555 1_555
H10 C23 1_555 1_555
C24 C19 1_555 1_555
H11 C24 1_555 1_555
C25 S2 1_555 1_555
C26 C25 1_555 1_555
H12 C26 1_555 1_555
C27 C26 1_555 1_555
H13 C27 1_555 1_555
C28 C27 1_555 1_555
H14 C28 1_555 1_555
C29 C28 1_555 1_555
H15 C29 1_555 1_555
C30 C25 1_555 1_555
H16 C30 1_555 1_555
C31 S3 1_555 1_555
C32 C31 1_555 1_555
H17 C32 1_555 1_555
C33 C32 1_555 1_555
H18 C33 1_555 1_555
C34 C33 1_555 1_555
H19 C34 1_555 1_555
C35 C34 1_555 1_555
H20 C35 1_555 1_555
C36 C31 1_555 1_555
H21 C36 1_555 1_555
C37 S4 1_555 1_555
C38 C37 1_555 1_555
H22 C38 1_555 1_555
C39 C38 1_555 1_555
H23 C39 1_555 1_555
C40 C39 1_555 1_555
H24 C40 1_555 1_555
C41 C40 1_555 1_555
H25 C41 1_555 1_555
C42 C37 1_555 1_555
H26 C42 1_555 1_555
C43 S5 1_555 1_555
C44 C43 1_555 1_555
H27 C44 1_555 1_555
C45 C44 1_555 1_555
H28 C45 1_555 1_555
C46 C45 1_555 1_555
H29 C46 1_555 1_555
C47 C46 1_555 1_555
H30 C47 1_555 1_555
C48 C43 1_555 1_555
H31 C48 1_555 1_555
C49 S6 1_555 1_555
C50 C49 1_555 1_555
H32 C50 1_555 1_555
C51 C50 1_555 1_555
H33 C51 1_555 1_555
C52 C51 1_555 1_555
H34 C52 1_555 1_555
C53 C52 1_555 1_555
H35 C53 1_555 1_555
C54 C49 1_555 1_555
H36 C54 1_555 1_555
B1 F1 1_555 1_555
F1 F2A 1_555 1_555
F2 B1 1_555 1_555
F3 B1 1_555 1_555
F4 B1 1_555 1_555
Ag1G S1G 1_555 1_555
Ag1F S3 1_555 1_555
Ag1C S5 1_555 1_555
Ag1E S5G 1_555 1_555
S1G C2G 1_555 1_555
S2G Ag1G 1_555 1_555
S3G Ag1 1_555 1_555
S3A Ag1G 1_555 1_555
S4G Ag1 1_555 1_555
S4A Ag1G 1_555 1_555
S5G C10G 1_555 1_555
S5B Ag1 1_555 1_555
S5D Ag1G 1_555 1_555
S6G Ag1E 1_555 1_555
S6B Ag1 1_555 1_555
S6D Ag1G 1_555 1_555
C1G H1G 1_555 1_555
C2G C1G 1_555 1_555
C3G S2G 1_555 1_555
C4G C3G 1_555 1_555
H2G C4G 1_555 1_555
C5G H3G 1_555 1_555
C6G S3G 1_555 1_555
C7G S4G 1_555 1_555
C8G C7G 1_555 1_555
H4G C8G 1_555 1_555
C9G H5G 1_555 1_555
C10G C9G 1_555 1_555
C11G S6G 1_555 1_555
C12G C11G 1_555 1_555
H6G C12G 1_555 1_555
C13G C12G 1_555 1_555
C14G C1G 1_555 1_555
C15G C4G 1_555 1_555
C16G C5G 1_555 1_555
C17G C8G 1_555 1_555
C18G C9G 1_555 1_555
C19G S1G 1_555 1_555
C20G C19G 1_555 1_555
H7G C20G 1_555 1_555
C21G C20G 1_555 1_555
H8G C21G 1_555 1_555
C22G C21G 1_555 1_555
H9G C22G 1_555 1_555
C23G C22G 1_555 1_555
H10G C23G 1_555 1_555
C24G C19G 1_555 1_555
H11G C24G 1_555 1_555
C25G S2G 1_555 1_555
C26G C25G 1_555 1_555
H12G C26G 1_555 1_555
C27G C26G 1_555 1_555
H13G C27G 1_555 1_555
C28G C27G 1_555 1_555
H14G C28G 1_555 1_555
C29G C28G 1_555 1_555
H15G C29G 1_555 1_555
C30G C25G 1_555 1_555
H16G C30G 1_555 1_555
C31G S3G 1_555 1_555
C32G C31G 1_555 1_555
H17G C32G 1_555 1_555
C33G C32G 1_555 1_555
H18G C33G 1_555 1_555
C34G C33G 1_555 1_555
H19G C34G 1_555 1_555
C35G C34G 1_555 1_555
H20G C35G 1_555 1_555
C36G C31G 1_555 1_555
H21G C36G 1_555 1_555
C37G S4G 1_555 1_555
C38G C37G 1_555 1_555
H22G C38G 1_555 1_555
C39G C38G 1_555 1_555
H23G C39G 1_555 1_555
C40G C39G 1_555 1_555
H24G C40G 1_555 1_555
C41G C40G 1_555 1_555
H25G C41G 1_555 1_555
C42G C37G 1_555 1_555
H26G C42G 1_555 1_555
C43G S5G 1_555 1_555
C44G C43G 1_555 1_555
H27G C44G 1_555 1_555
C45G C44G 1_555 1_555
H28G C45G 1_555 1_555
C46G C45G 1_555 1_555
H29G C46G 1_555 1_555
C47G C46G 1_555 1_555
H30G C47G 1_555 1_555
C48G C43G 1_555 1_555
H31G C48G 1_555 1_555
C49G S6G 1_555 1_555
C50G C49G 1_555 1_555
H32G C50G 1_555 1_555
C51G C50G 1_555 1_555
H33G C51G 1_555 1_555
C52G C51G 1_555 1_555
H34G C52G 1_555 1_555
C53G C52G 1_555 1_555
H35G C53G 1_555 1_555
C54G C49G 1_555 1_555
H36G C54G 1_555 1_555
B1A B1 1_555 1_555
F1A F2 1_555 1_555
F2A B1A 1_555 1_555
F4A B1A 1_555 1_555
S4 Ag1F 1_555 1_555
S6 Ag1C 1_555 1_555
C2 C3 1_555 1_555
C13 C14 1_555 1_555
C13 C18 1_555 1_555
C14 C15 1_555 1_555
C15 C16 1_555 1_555
C16 C17 1_555 1_555
C17 C18 1_555 1_555
C23 C24 1_555 1_555
C29 C30 1_555 1_555
C35 C36 1_555 1_555
C41 C42 1_555 1_555
C47 C48 1_555 1_555
C53 C54 1_555 1_555
F3 B1A 1_555 1_555
C2G C3G 1_555 1_555
C5G C6G 1_555 1_555
C6G C7G 1_555 1_555
C10G C11G 1_555 1_555
C13G C14G 1_555 1_555
C13G C18G 1_555 1_555
C14G C15G 1_555 1_555
C15G C16G 1_555 1_555
C16G C17G 1_555 1_555
C17G C18G 1_555 1_555
C23G C24G 1_555 1_555
C29G C30G 1_555 1_555
C35G C36G 1_555 1_555
C41G C42G 1_555 1_555
C47G C48G 1_555 1_555
C53G C54G 1_555 1_555
B1A F1A 1_555 1_555

#END
