
#######################################################################
#
#                 Cambridge Crystallographic Data Centre
#                                CCDC 
#
#######################################################################
#
# If this CIF has been generated from an entry in the Cambridge 
# Structural Database, then it will include bibliographic, chemical, 
# crystal, experimental, refinement or atomic coordinate data resulting 
# from the CCDC's data processing and validation procedures.
#
#######################################################################

data_PEDLIV
_symmetry_cell_setting           monoclinic
_symmetry_space_group_name_H-M   'P 21'
_symmetry_Int_Tables_number      4
_space_group_name_Hall           'P 2yb'
loop_
_symmetry_equiv_pos_site_id
_symmetry_equiv_pos_as_xyz
1 x,y,z
2 -x,1/2+y,-z
_cell_length_a                   8.8567(7)
_cell_length_b                   18.4590(15)
_cell_length_c                   15.4191(12)
_cell_angle_alpha                90
_cell_angle_beta                 90.509(2)
_cell_angle_gamma                90
_cell_volume                     2520.7
loop_
_atom_site_label
_atom_site_type_symbol
_atom_site_fract_x
_atom_site_fract_y
_atom_site_fract_z
C1 C 0.6136(5) 0.2953(3) 0.7544(3)
H1 H 0.6456 0.2859 0.8109
C2 C 0.7021(5) 0.3164(3) 0.6908(3)
H2 H 0.8056 0.3244 0.6945
C3 C 0.4719(4) 0.3076(2) 0.6437(2)
H3 H 0.3880 0.3090 0.6071
C4 C 0.6600(4) 0.3444(2) 0.5340(2)
C5 C 0.8034(4) 0.3738(2) 0.5227(3)
H4 H 0.8680 0.3806 0.5699
C6 C 0.8483(4) 0.3928(2) 0.4394(3)
H5 H 0.9451 0.4107 0.4309
C7 C 0.7520(4) 0.3856(2) 0.3700(3)
C8 C 0.6111(4) 0.3562(2) 0.3808(3)
H6 H 0.5465 0.3502 0.3335
C9 C 0.5664(4) 0.3356(2) 0.4624(3)
H7 H 0.4712 0.3153 0.4697
C10 C 0.7180(4) 0.4039(2) 0.2194(3)
C11 C 0.6053(4) 0.4536(2) 0.2039(3)
H8 H 0.5855 0.4899 0.2440
C12 C 0.5215(4) 0.4491(2) 0.1277(3)
H9 H 0.4454 0.4826 0.1164
C13 C 0.5510(4) 0.3949(2) 0.0687(2)
C14 C 0.6666(5) 0.3464(2) 0.0846(3)
H10 H 0.6887 0.3110 0.0437
C15 C 0.7499(5) 0.3499(2) 0.1609(3)
H11 H 0.8260 0.3164 0.1723
C16 C 0.4052(5) 0.4439(2) -0.0579(3)
H12 H 0.4112 0.4933 -0.0470
C17 C 0.3364(5) 0.4112(3) -0.1261(3)
H13 H 0.2883 0.4351 -0.1717
C18 C 0.4271(5) 0.3260(2) -0.0462(3)
H14 H 0.4532 0.2804 -0.0251
C19 C 0.1523(5) 0.1961(2) 0.6383(3)
H15 H 0.1439 0.2410 0.6112
C20 C 0.1293(6) 0.0813(3) 0.6639(3)
H16 H 0.1048 0.0325 0.6597
C21 C 0.2063(5) 0.1139(3) 0.7289(3)
H17 H 0.2437 0.0907 0.7780
C22 C 0.0093(5) 0.1277(2) 0.5267(3)
C23 C -0.0803(6) 0.1831(3) 0.4999(4)
H18 H -0.0907 0.2242 0.5341
C24 C -0.1567(6) 0.1780(3) 0.4205(3)
H19 H -0.2134 0.2168 0.3999
C25 C -0.1479(5) 0.1169(3) 0.3746(3)
C26 C -0.0601(6) 0.0615(3) 0.3999(3)
H20 H -0.0536 0.0200 0.3659
C27 C 0.0209(5) 0.0666(2) 0.4771(3)
H21 H 0.0827 0.0287 0.4951
C28 C -0.1769(4) 0.1316(2) 0.2226(3)
C29 C -0.0405(4) 0.1659(2) 0.2137(3)
H22 H 0.0198 0.1756 0.2620
C30 C 0.0061(4) 0.1858(2) 0.1319(3)
H23 H 0.0981 0.2094 0.1252
C31 C -0.0817(4) 0.1711(2) 0.0604(2)
C32 C -0.2182(4) 0.1372(3) 0.0686(3)
H24 H -0.2783 0.1276 0.0202
C33 C -0.2648(5) 0.1174(3) 0.1510(3)
H25 H -0.3571 0.0942 0.1578
C34 C 0.1078(4) 0.2101(2) -0.0485(3)
H26 H 0.1924 0.2069 -0.0125
C35 C -0.0336(4) 0.2278(3) -0.1590(3)
H27 H -0.0652 0.2394 -0.2150
C36 C -0.1266(5) 0.2046(3) -0.0943(3)
H28 H -0.2306 0.1979 -0.0973
Cu1 Cu 0.29019(5) 0.26028(3) 0.79779(3)
N1 N 0.4670(3) 0.28927(19) 0.7247(2)
N2 N 0.6137(3) 0.32426(18) 0.6187(2)
N3 N 0.4647(4) 0.38883(18) -0.0081(2)
N4 N 0.3484(4) 0.33749(19) -0.1176(2)
N5 N 0.2213(4) 0.18548(18) 0.7120(2)
N6 N 0.0947(4) 0.13437(18) 0.6061(2)
N7 N -0.0333(3) 0.19344(17) -0.0242(2)
N8 N 0.1106(3) 0.23146(18) -0.1301(2)
O1 O -0.2357(4) 0.1097(2) 0.29981(19)
O2 O 0.8083(3) 0.40928(19) 0.29285(18)
Cu1_2 Cu 0.29019(5) 0.26028(3) -0.20221(3)
N4_2 N 0.3484(4) 0.33749(19) 0.8824(2)
N8_2 N 0.1106(3) 0.23146(18) 0.8699(2)
C37 C 1.0142(5) 0.4825(2) 1.0864(3)
H29 H 0.9883 0.5286 1.1056
C38 C 1.0331(5) 0.3867(2) 1.0054(3)
H30 H 1.0236 0.3540 0.9597
C39 C 1.1103(5) 0.3769(3) 1.0788(3)
H31 H 1.1643 0.3352 1.0927
C40 C 0.8764(4) 0.4891(2) 0.9467(3)
C41 C 0.7704(4) 0.5387(2) 0.9719(3)
H32 H 0.7546 0.5477 1.0304
C42 C 0.6880(4) 0.5746(2) 0.9102(3)
H33 H 0.6178 0.6094 0.9266
C43 C 0.7087(4) 0.5593(2) 0.8235(3)
C44 C 0.8101(5) 0.5073(2) 0.7970(3)
H34 H 0.8199 0.4958 0.7387
C45 C 0.8975(5) 0.4725(2) 0.8602(3)
H35 H 0.9694 0.4384 0.8443
C46 C 0.5975(5) 0.5842(3) 0.6798(3)
C47 C 0.6170(5) 0.6371(3) 0.6202(3)
H36 H 0.6673 0.6796 0.6349
C48 C 0.5615(5) 0.6270(3) 0.5374(3)
H37 H 0.5762 0.6626 0.4957
C49 C 0.4843(4) 0.5646(2) 0.5159(3)
C50 C 0.4693(5) 0.5108(2) 0.5772(3)
H38 H 0.4205 0.4678 0.5630
C51 C 0.5266(5) 0.5209(2) 0.6590(3)
H39 H 0.5171 0.4846 0.7004
C52 C 0.4139(7) 0.6085(3) 0.3663(4)
H40 H 0.4621 0.6532 0.3668
C53 C 0.3305(7) 0.5810(3) 0.3023(3)
H41 H 0.3092 0.6045 0.2503
C54 C 0.3339(5) 0.5020(3) 0.4014(3)
H42 H 0.3171 0.4596 0.4323
Cl1 Cl 1.19907(19) 0.32804(8) 1.30918(9)
Cu2 Cu 1.18416(7) 0.44411(4) 1.24692(4)
N9 N 1.0997(4) 0.4362(2) 1.1309(2)
N10 N 0.9702(4) 0.45427(19) 1.0104(2)
N11 N 0.4150(4) 0.5578(2) 0.4317(2)
N12 N 0.2809(4) 0.5139(2) 0.3232(3)
O3 O 0.6311(4) 0.60417(17) 0.7653(2)
Cu2_2 Cu 0.18416(7) 0.44411(4) 0.24692(4)
N12_2 N 1.2809(4) 0.5139(2) 1.3232(3)
Cl2 Cl 0.2128(5) 0.3497(4) 0.5097(3)
Cl3 Cl 0.09788(11) 0.36799(6) 0.69819(7)
Cl4 Cl 0.47100(11) 0.15642(6) 0.89355(7)
O4 O 0.6299(5) 0.7525(2) 0.8474(3)
H43 H 0.5927 0.7151 0.8232
H44 H 0.6105 0.7896 0.8166
loop_
_geom_bond_atom_site_label_1
_geom_bond_atom_site_label_2
_geom_bond_site_symmetry_1
_geom_bond_site_symmetry_2
C1 H1 1_555 1_555
C2 C1 1_555 1_555
H2 C2 1_555 1_555
C3 H3 1_555 1_555
C4 C5 1_555 1_555
C5 H4 1_555 1_555
C6 C5 1_555 1_555
H5 C6 1_555 1_555
C7 C6 1_555 1_555
C8 C7 1_555 1_555
H6 C8 1_555 1_555
C9 C4 1_555 1_555
H7 C9 1_555 1_555
C10 C11 1_555 1_555
C11 H8 1_555 1_555
C12 C11 1_555 1_555
H9 C12 1_555 1_555
C13 C12 1_555 1_555
C14 C13 1_555 1_555
H10 C14 1_555 1_555
C15 C10 1_555 1_555
H11 C15 1_555 1_555
C16 H12 1_555 1_555
C17 C16 1_555 1_555
H13 C17 1_555 1_555
C18 H14 1_555 1_555
C19 H15 1_555 1_555
C20 H16 1_555 1_555
C21 C20 1_555 1_555
H17 C21 1_555 1_555
C22 C23 1_555 1_555
C23 H18 1_555 1_555
C24 C23 1_555 1_555
H19 C24 1_555 1_555
C25 C24 1_555 1_555
C26 C25 1_555 1_555
H20 C26 1_555 1_555
C27 C22 1_555 1_555
H21 C27 1_555 1_555
C28 C29 1_555 1_555
C29 H22 1_555 1_555
C30 C29 1_555 1_555
H23 C30 1_555 1_555
C31 C30 1_555 1_555
C32 C31 1_555 1_555
H24 C32 1_555 1_555
C33 C28 1_555 1_555
H25 C33 1_555 1_555
C34 H26 1_555 1_555
C35 H27 1_555 1_555
C36 C35 1_555 1_555
H28 C36 1_555 1_555
C37 H29 1_555 1_555
C38 H30 1_555 1_555
C39 C38 1_555 1_555
H31 C39 1_555 1_555
C40 C41 1_555 1_555
C41 H32 1_555 1_555
C42 C41 1_555 1_555
H33 C42 1_555 1_555
C43 C42 1_555 1_555
C44 C43 1_555 1_555
H34 C44 1_555 1_555
C45 C40 1_555 1_555
H35 C45 1_555 1_555
C46 C47 1_555 1_555
C47 H36 1_555 1_555
C48 C47 1_555 1_555
H37 C48 1_555 1_555
C49 C48 1_555 1_555
C50 C49 1_555 1_555
H38 C50 1_555 1_555
C51 C46 1_555 1_555
H39 C51 1_555 1_555
C52 H40 1_555 1_555
C53 C52 1_555 1_555
H41 C53 1_555 1_555
C54 H42 1_555 1_555
Cl1 Cu2 1_555 1_555
Cu1 N1 1_555 1_555
Cu2 N9 1_555 1_555
N1 C1 1_555 1_555
N2 C2 1_555 1_555
N3 C13 1_555 1_555
N4 C17 1_555 1_555
N5 C19 1_555 1_555
N6 C19 1_555 1_555
N7 C31 1_555 1_555
N8 C34 1_555 1_555
N9 C37 1_555 1_555
N10 C37 1_555 1_555
N11 C49 1_555 1_555
N12 C53 1_555 1_555
O1 C25 1_555 1_555
O2 C7 1_555 1_555
O3 C43 1_555 1_555
O4 H43 1_555 1_555
H44 O4 1_555 1_555
Cu1_2 N4 1_555 1_555
Cu2_2 N12 1_555 1_555
N4_2 Cu1 1_555 1_555
N8_2 Cu1 1_555 1_555
N12_2 Cu2 1_555 1_555
C3 N1 1_555 1_555
C3 N2 1_555 1_555
C4 N2 1_555 1_555
C8 C9 1_555 1_555
C10 O2 1_555 1_555
C14 C15 1_555 1_555
C16 N3 1_555 1_555
C18 N3 1_555 1_555
C18 N4 1_555 1_555
C20 N6 1_555 1_555
C21 N5 1_555 1_555
C22 N6 1_555 1_555
C26 C27 1_555 1_555
C28 O1 1_555 1_555
C32 C33 1_555 1_555
C34 N7 1_555 1_555
C35 N8 1_555 1_555
C36 N7 1_555 1_555
C38 N10 1_555 1_555
C39 N9 1_555 1_555
C40 N10 1_555 1_555
C44 C45 1_555 1_555
C46 O3 1_555 1_555
C50 C51 1_555 1_555
C52 N11 1_555 1_555
C54 N11 1_555 1_555
C54 N12 1_555 1_555
Cu1 N5 1_555 1_555
N8 Cu1_2 1_555 1_555

#END
