
#######################################################################
#
#                 Cambridge Crystallographic Data Centre
#                                CCDC 
#
#######################################################################
#
# If this CIF has been generated from an entry in the Cambridge 
# Structural Database, then it will include bibliographic, chemical, 
# crystal, experimental, refinement or atomic coordinate data resulting 
# from the CCDC's data processing and validation procedures.
#
#######################################################################

data_PEDLEQ
_symmetry_cell_setting           monoclinic
_symmetry_space_group_name_H-M   'C c'
_symmetry_Int_Tables_number      9
_space_group_name_Hall           'C -2yc'
loop_
_symmetry_equiv_pos_site_id
_symmetry_equiv_pos_as_xyz
1 x,y,z
2 x,-y,1/2+z
3 1/2+x,1/2+y,z
4 1/2+x,1/2-y,1/2+z
_cell_length_a                   25.2789(16)
_cell_length_b                   30.2370(16)
_cell_length_c                   19.7920(12)
_cell_angle_alpha                90
_cell_angle_beta                 128.4010(10)
_cell_angle_gamma                90
_cell_volume                     11855.7
loop_
_atom_site_label
_atom_site_type_symbol
_atom_site_fract_x
_atom_site_fract_y
_atom_site_fract_z
Sb1 Sb 0.35844(6) 0.86933(4) 0.35894(8)
F1 F 0.3837(5) 0.8535(3) 0.2917(6)
F2 F 0.3332(5) 0.8851(3) 0.4261(6)
F3 F 0.3563(5) 0.80996(9) 0.3817(6)
F4 F 0.3606(5) 0.92870(10) 0.3361(6)
F5 F 0.26803(15) 0.8663(3) 0.2623(4)
F6 F 0.44885(15) 0.8723(3) 0.4556(4)
Sb2 Sb 0.30968(6) 0.70947(4) 0.81864(7)
F7 F 0.3329(5) 0.65252(12) 0.8102(7)
F8 F 0.2865(5) 0.76643(12) 0.8270(7)
F9 F 0.3702(3) 0.7056(3) 0.93826(8)
F10 F 0.2492(3) 0.7133(3) 0.69902(8)
F11 F 0.2417(2) 0.6866(3) 0.8194(4)
F12 F 0.3776(2) 0.7324(3) 0.8179(4)
Ag1 Ag 0.47067(3) 0.59846(2) 0.36949(4)
Ag2 Ag 0.93919(4) 0.64175(3) 0.29993(5)
S1 S 0.58877(11) 0.66776(9) 0.37605(15)
S2 S 0.45508(10) 0.62468(8) 0.23113(13)
S3 S 0.43939(12) 0.46544(11) -0.07162(18)
S4 S 0.58479(11) 0.44198(7) -0.04007(14)
S5 S 0.89724(10) 0.56145(7) 0.29399(13)
S6 S 0.88815(14) 0.64415(11) 0.3922(2)
S7 S 0.05861(14) 0.63298(10) 0.44909(17)
S8 S 0.05568(12) 0.57904(9) 0.31730(16)
S9 S 0.32006(11) 0.60698(8) 0.26497(14)
S10 S 0.43815(10) 0.67828(7) 0.37792(13)
S11 S 0.44198(12) 0.81940(8) 0.68793(16)
S12 S 0.30793(19) 0.82171(18) 0.6823(3)
O1 O 0.8643(4) 0.7412(4) 0.6205(6)
O2 O 0.2051(5) 0.5645(4) -0.1015(7)
O3 O 0.3498(9) 0.3833(5) 0.1162(13)
O4 O 0.5888(5) 0.5638(3) -0.2696(7)
O5 O 0.8153(4) 0.4722(3) -0.0241(5)
O6 O 0.9981(6) 0.5661(5) 0.7285(8)
O7 O 0.0544(4) 0.7497(3) 0.6822(5)
O8 O 0.1023(7) 0.4993(4) 0.0861(8)
O9 O 0.0855(5) 0.6677(4) -0.0801(6)
O10 O 0.6696(4) 0.7742(3) 0.6783(5)
O11 O 0.6506(4) 0.6798(3) 0.8809(6)
C1 C 0.5878(5) 0.6316(3) 0.3042(6)
C2 C 0.5269(4) 0.6105(3) 0.2390(5)
C3 C 0.5245(4) 0.5824(3) 0.1831(6)
H1 H 0.4840 0.5684 0.1406
C4 C 0.5817(4) 0.5741(3) 0.1881(6)
C5 C 0.5798(4) 0.5430(3) 0.1312(6)
C6 C 0.5218(5) 0.5197(3) 0.0670(6)
H2 H 0.4825 0.5244 0.0606
C7 C 0.5198(4) 0.4901(3) 0.0128(6)
C8 C 0.5793(5) 0.4809(3) 0.0234(6)
C9 C 0.6378(4) 0.5037(3) 0.0858(6)
H3 H 0.6767 0.4984 0.0918
C10 C 0.6397(4) 0.5348(3) 0.1407(5)
C11 C 0.7014(4) 0.5585(3) 0.2046(5)
C12 C 0.7610(4) 0.5524(3) 0.2138(5)
H4 H 0.7604 0.5324 0.1776
C13 C 0.8191(4) 0.5746(3) 0.2733(6)
C14 C 0.8181(4) 0.6081(3) 0.3216(6)
C15 C 0.7610(5) 0.6152(4) 0.3149(7)
H5 H 0.7613 0.6368 0.3486
C16 C 0.7025(4) 0.5899(3) 0.2577(5)
C17 C 0.6430(5) 0.5959(3) 0.2526(6)
C18 C 0.6452(4) 0.6242(3) 0.3108(5)
H6 H 0.6855 0.6381 0.3542
C19 C 0.6743(5) 0.6862(4) 0.4480(6)
C20 C 0.7002(5) 0.7167(4) 0.4207(7)
H7 H 0.6737 0.7264 0.3638
C21 C 0.7652(6) 0.7316(4) 0.4800(9)
H8 H 0.7846 0.7491 0.4620
C22 C 0.8011(5) 0.7211(4) 0.5636(8)
C23 C 0.7770(5) 0.6904(5) 0.5937(7)
H9 H 0.8030 0.6825 0.6516
C24 C 0.7144(5) 0.6734(3) 0.5340(7)
H10 H 0.6979 0.6525 0.5512
C25 C 0.8994(7) 0.7374(7) 0.7089(10)
H11 H 0.9416 0.7529 0.7388
H12 H 0.8731 0.7500 0.7239
H13 H 0.9078 0.7068 0.7250
C26 C 0.3842(4) 0.6043(3) 0.1292(6)
C27 C 0.3565(5) 0.6319(4) 0.0600(6)
H14 H 0.3766 0.6587 0.0650
C28 C 0.2958(5) 0.6179(5) -0.0197(7)
H15 H 0.2772 0.6351 -0.0686
C29 C 0.2659(6) 0.5819(5) -0.0260(8)
C30 C 0.2951(6) 0.5517(5) 0.0456(8)
H16 H 0.2737 0.5251 0.0386
C31 C 0.3570(5) 0.5631(3) 0.1272(7)
H17 H 0.3777 0.5449 0.1752
C32 C 0.1686(7) 0.5936(6) -0.1676(10)
H18 H 0.1283 0.5794 -0.2156
H19 H 0.1565 0.6184 -0.1495
H20 H 0.1950 0.6035 -0.1844
C33 C 0.4163(5) 0.4408(4) -0.0099(9)
C34 C 0.3573(9) 0.4573(5) -0.0246(18)
H21 H 0.3341 0.4816 -0.0598
C35 C 0.3355(11) 0.4350(7) 0.0165(19)
H22 H 0.2943 0.4425 0.0033
C36 C 0.3737(11) 0.4028(5) 0.0750(15)
C37 C 0.4348(9) 0.3870(6) 0.0956(12)
H23 H 0.4604 0.3648 0.1360
C38 C 0.4542(7) 0.4082(5) 0.0489(9)
H24 H 0.4938 0.3993 0.0591
C39 C 0.3931(13) 0.3555(8) 0.1891(14)
H25 H 0.3695 0.3452 0.2098
H26 H 0.4066 0.3306 0.1729
H27 H 0.4323 0.3718 0.2339
C40 C 0.5843(5) 0.4781(3) -0.1113(6)
C41 C 0.5268(5) 0.5016(4) -0.1758(7)
H28 H 0.4863 0.4981 -0.1846
C42 C 0.5315(6) 0.5304(5) -0.2267(7)
H29 H 0.4939 0.5470 -0.2688
C43 C 0.5902(7) 0.5350(5) -0.2165(8)
C44 C 0.6467(6) 0.5106(5) -0.1533(7)
H30 H 0.6866 0.5134 -0.1459
C45 C 0.6433(5) 0.4822(4) -0.1013(6)
H31 H 0.6810 0.4657 -0.0593
C46 C 0.6498(8) 0.5732(6) -0.2546(10)
H32 H 0.6418 0.5942 -0.2965
H33 H 0.6816 0.5853 -0.1978
H34 H 0.6678 0.5464 -0.2593
C47 C 0.8713(4) 0.5339(3) 0.1984(6)
C48 C 0.8528(5) 0.4902(3) 0.1817(7)
H35 H 0.8539 0.4734 0.2219
C49 C 0.8329(6) 0.4710(4) 0.1067(8)
H36 H 0.8193 0.4415 0.0949
C50 C 0.8334(5) 0.4965(4) 0.0475(6)
C51 C 0.8532(5) 0.5403(4) 0.0628(7)
H37 H 0.8540 0.5565 0.0235
C52 C 0.8718(5) 0.5596(4) 0.1386(7)
H38 H 0.8846 0.5891 0.1502
C53 C 0.8242(8) 0.4962(8) -0.0804(9)
H39 H 0.8108 0.4777 -0.1281
H40 H 0.7968 0.5224 -0.1016
H41 H 0.8708 0.5043 -0.0485
C54 C 0.9231(5) 0.6209(5) 0.4964(8)
C55 C 0.9585(6) 0.5829(7) 0.5216(9)
H42 H 0.9671 0.5694 0.4871
C56 C 0.9817(8) 0.5643(8) 0.5992(12)
H43 H 1.0043 0.5373 0.6159
C57 C 0.9716(7) 0.5851(6) 0.6520(10)
C58 C 0.9372(9) 0.6274(5) 0.6255(10)
H44 H 0.9309 0.6426 0.6608
C59 C 0.9139(7) 0.6448(5) 0.5462(9)
H45 H 0.8926 0.6722 0.5279
C60 C 0.9907(16) 0.5870(8) 0.7833(13)
H46 H 1.0112 0.5695 0.8345
H47 H 1.0122 0.6154 0.7985
H48 H 0.9436 0.5907 0.7556
C61 C 0.1195(5) 0.6467(4) 0.4339(7)
C62 C 0.1176(4) 0.6205(3) 0.3751(6)
C63 C 0.1666(4) 0.6281(3) 0.3643(6)
H49 H 0.1668 0.6105 0.3260
C64 C 0.2151(4) 0.6613(3) 0.4094(5)
C65 C 0.2687(4) 0.6671(3) 0.4019(5)
C66 C 0.2697(4) 0.6403(3) 0.3429(6)
H50 H 0.2348 0.6203 0.3078
C67 C 0.3210(4) 0.6437(3) 0.3374(6)
C68 C 0.3745(4) 0.6732(3) 0.3905(5)
C69 C 0.3738(4) 0.6996(3) 0.4470(5)
H51 H 0.4091 0.7193 0.4823
C70 C 0.3205(4) 0.6974(3) 0.4526(5)
C71 C 0.3199(4) 0.7265(3) 0.5114(5)
C72 C 0.3712(5) 0.7571(3) 0.5648(6)
H52 H 0.4074 0.7588 0.5636
C73 C 0.3700(4) 0.7848(3) 0.6187(5)
C74 C 0.3131(6) 0.7843(4) 0.6162(7)
C75 C 0.2629(6) 0.7546(4) 0.5661(8)
H53 H 0.2254 0.7548 0.5647
C76 C 0.2664(5) 0.7236(3) 0.5165(6)
C77 C 0.2150(4) 0.6889(3) 0.4682(6)
C78 C 0.1661(5) 0.6799(3) 0.4792(6)
H54 H 0.1653 0.6969 0.5179
C79 C 0.0652(5) 0.6732(3) 0.5183(7)
C80 C 0.1014(6) 0.6640(5) 0.6049(8)
H55 H 0.1281 0.6387 0.6281
C81 C 0.0982(8) 0.6924(7) 0.6572(8)
H56 H 0.1252 0.6873 0.7162
C82 C 0.0555(5) 0.7280(4) 0.6225(7)
C83 C 0.0167(8) 0.7380(4) 0.5372(8)
H57 H -0.0126 0.7620 0.5141
C84 C 0.0230(8) 0.7100(4) 0.4847(8)
H58 H -0.0017 0.7164 0.4264
C85 C 0.0035(8) 0.7852(6) 0.6455(9)
H59 H 0.0055 0.7991 0.6907
H60 H -0.0407 0.7729 0.6037
H61 H 0.0124 0.8068 0.6182
C86 C 0.0705(4) 0.5581(3) 0.2467(6)
C87 C 0.1193(5) 0.5265(4) 0.2756(8)
H62 H 0.1445 0.5168 0.3324
C88 C 0.1316(6) 0.5089(5) 0.2225(9)
H63 H 0.1676 0.4896 0.2448
C89 C 0.0916(8) 0.5195(5) 0.1384(11)
C90 C 0.0405(7) 0.5535(5) 0.1051(8)
H64 H 0.0144 0.5627 0.0480
C91 C 0.0322(6) 0.5722(4) 0.1641(8)
H65 H 0.0002 0.5943 0.1456
C92 C 0.0601(15) 0.5045(8) -0.0018(14)
H66 H 0.0769 0.4876 -0.0259
H67 H 0.0580 0.5352 -0.0157
H68 H 0.0157 0.4943 -0.0254
C93 C 0.2509(4) 0.6282(3) 0.1620(6)
C94 C 0.2572(5) 0.6631(4) 0.1241(6)
H69 H 0.2988 0.6770 0.1529
C95 C 0.2030(6) 0.6784(4) 0.0436(7)
H70 H 0.2071 0.7032 0.0194
C96 C 0.1430(6) 0.6558(4) 0.0007(7)
C97 C 0.1345(5) 0.6220(5) 0.0383(8)
H71 H 0.0922 0.6090 0.0098
C98 C 0.1879(6) 0.6069(4) 0.1178(8)
C99 C 0.0898(8) 0.7037(5) -0.1198(10)
H72 H 0.0469 0.7085 -0.1751
H73 H 0.1233 0.6979 -0.1272
H74 H 0.1024 0.7295 -0.0846
C100 C 0.5054(5) 0.7062(3) 0.4711(6)
C101 C 0.5048(5) 0.7525(3) 0.4775(7)
H75 H 0.4669 0.7683 0.4340
C102 C 0.5596(6) 0.7749(4) 0.5474(7)
H76 H 0.5587 0.8055 0.5515
C103 C 0.6176(5) 0.7501(4) 0.6129(6)
C104 C 0.6183(5) 0.7041(3) 0.6046(7)
H77 H 0.6571 0.6884 0.6463
C105 C 0.5632(5) 0.6818(3) 0.5366(6)
H78 H 0.5638 0.6512 0.5335
C106 C 0.7332(6) 0.7521(5) 0.7330(9)
H79 H 0.7665 0.7721 0.7770
H80 H 0.7467 0.7424 0.6994
H81 H 0.7293 0.7270 0.7592
C107 C 0.5060(5) 0.7800(3) 0.7449(6)
C108 C 0.5025(6) 0.7464(4) 0.7940(7)
H82 H 0.4665 0.7459 0.7955
C109 C 0.5534(6) 0.7147(4) 0.8390(8)
H83 H 0.5518 0.6941 0.8726
C110 C 0.6054(6) 0.7129(4) 0.8356(7)
C111 C 0.6089(5) 0.7454(4) 0.7876(7)
H84 H 0.6442 0.7449 0.7847
C112 C 0.5599(5) 0.7781(4) 0.7446(7)
H85 H 0.5639 0.7996 0.7144
C113 C 0.7063(7) 0.6769(4) 0.8794(9)
H86 H 0.7341 0.6522 0.9135
H87 H 0.7324 0.7036 0.9027
H88 H 0.6897 0.6731 0.8211
C114 C 0.2155(7) 0.8773(3) 0.5560(8)
H89 H 0.2505 0.8877 0.5567
C115 C 0.2274(4) 0.8433(3) 0.6112(7)
C116 C 0.1752(4) 0.8278(2) 0.6103(6)
H90 H 0.1831 0.8051 0.6472
C117 C 0.1111(4) 0.8462(3) 0.5541(7)
H91 H 0.0762 0.8358 0.5534
C118 C 0.0993(6) 0.8802(3) 0.4989(6)
C119 C 0.1515(8) 0.8957(3) 0.4998(7)
H92 H 0.1436 0.9185 0.4629
O12 O 0.0232(18) 0.8983(6) 0.4408(9)
C120 C -0.032(8) 0.888(7) 0.443(16)
H93 H -0.0697 0.9072 0.4024
H94 H -0.0178 0.8936 0.4996
H95 H -0.0450 0.8581 0.4271
Ag1A Ag 0.47067(3) 0.40154(2) -0.13051(4)
Ag2_2 Ag -0.06081(4) 0.64175(3) 0.29993(5)
Ag2C Ag 0.43919(4) 0.85825(3) 0.79993(5)
S3A S 0.43939(12) 0.53456(11) 0.42838(18)
S4A S 0.58479(11) 0.55802(7) 0.45993(14)
S7_2 S 1.05861(14) 0.63298(10) 0.44909(17)
S8_2 S 1.05568(12) 0.57904(9) 0.31730(16)
S11C S 0.94198(12) 0.68060(8) 0.18793(16)
S12C S 0.80793(19) 0.67829(18) 0.1823(3)
C121 C 0.2868(15) 0.5475(9) 0.6915(19)
C122 C 0.299(2) 0.5515(15) 0.778(2)
C123 C 0.3490(16) 0.5263(13) 0.715(2)
O13 O 0.238(2) 0.5611(15) 0.623(2)
loop_
_geom_bond_atom_site_label_1
_geom_bond_atom_site_label_2
_geom_bond_site_symmetry_1
_geom_bond_site_symmetry_2
Sb1 F1 1_555 1_555
F2 Sb1 1_555 1_555
F3 Sb1 1_555 1_555
F4 Sb1 1_555 1_555
F5 Sb1 1_555 1_555
F6 Sb1 1_555 1_555
Sb2 F7 1_555 1_555
F8 Sb2 1_555 1_555
F9 Sb2 1_555 1_555
F10 Sb2 1_555 1_555
F11 Sb2 1_555 1_555
F12 Sb2 1_555 1_555
Ag1 S1 1_555 1_555
Ag2 S5 1_555 1_555
S1 C1 1_555 1_555
S2 Ag1 1_555 1_555
S3 C7 1_555 1_555
S4 C8 1_555 1_555
S5 C13 1_555 1_555
S6 Ag2 1_555 1_555
S7 C61 1_555 1_555
S8 C62 1_555 1_555
S9 Ag1 1_555 1_555
S10 Ag1 1_555 1_555
S11 C73 1_555 1_555
S12 C74 1_555 1_555
O1 C22 1_555 1_555
O2 C29 1_555 1_555
O3 C36 1_555 1_555
O4 C43 1_555 1_555
O5 C50 1_555 1_555
O6 C57 1_555 1_555
O7 C82 1_555 1_555
O8 C89 1_555 1_555
O9 C96 1_555 1_555
O10 C103 1_555 1_555
O11 C110 1_555 1_555
C1 C2 1_555 1_555
C2 S2 1_555 1_555
C3 C2 1_555 1_555
H1 C3 1_555 1_555
C4 C3 1_555 1_555
C5 C4 1_555 1_555
C6 C5 1_555 1_555
H2 C6 1_555 1_555
C7 C6 1_555 1_555
C8 C7 1_555 1_555
C9 C8 1_555 1_555
H3 C9 1_555 1_555
C10 C5 1_555 1_555
C11 C10 1_555 1_555
C12 C11 1_555 1_555
H4 C12 1_555 1_555
C13 C12 1_555 1_555
C14 S6 1_555 1_555
C15 C14 1_555 1_555
H5 C15 1_555 1_555
C16 C11 1_555 1_555
C17 C4 1_555 1_555
C18 C1 1_555 1_555
H6 C18 1_555 1_555
C19 S1 1_555 1_555
C20 C19 1_555 1_555
H7 C20 1_555 1_555
C21 C20 1_555 1_555
H8 C21 1_555 1_555
C22 C21 1_555 1_555
C23 C22 1_555 1_555
H9 C23 1_555 1_555
C24 C19 1_555 1_555
H10 C24 1_555 1_555
C25 O1 1_555 1_555
H11 C25 1_555 1_555
H12 C25 1_555 1_555
H13 C25 1_555 1_555
C26 S2 1_555 1_555
C27 C26 1_555 1_555
H14 C27 1_555 1_555
C28 C27 1_555 1_555
H15 C28 1_555 1_555
C29 C28 1_555 1_555
C30 C29 1_555 1_555
H16 C30 1_555 1_555
C31 C26 1_555 1_555
H17 C31 1_555 1_555
C32 O2 1_555 1_555
H18 C32 1_555 1_555
H19 C32 1_555 1_555
H20 C32 1_555 1_555
C33 S3 1_555 1_555
C34 C33 1_555 1_555
H21 C34 1_555 1_555
C35 C34 1_555 1_555
H22 C35 1_555 1_555
C36 C35 1_555 1_555
C37 C36 1_555 1_555
H23 C37 1_555 1_555
C38 C33 1_555 1_555
H24 C38 1_555 1_555
C39 O3 1_555 1_555
H25 C39 1_555 1_555
H26 C39 1_555 1_555
H27 C39 1_555 1_555
C40 S4 1_555 1_555
C41 C40 1_555 1_555
H28 C41 1_555 1_555
C42 C41 1_555 1_555
H29 C42 1_555 1_555
C43 C42 1_555 1_555
C44 C43 1_555 1_555
H30 C44 1_555 1_555
C45 C40 1_555 1_555
H31 C45 1_555 1_555
C46 O4 1_555 1_555
H32 C46 1_555 1_555
H33 C46 1_555 1_555
H34 C46 1_555 1_555
C47 S5 1_555 1_555
C48 C47 1_555 1_555
H35 C48 1_555 1_555
C49 C48 1_555 1_555
H36 C49 1_555 1_555
C50 C49 1_555 1_555
C51 C50 1_555 1_555
H37 C51 1_555 1_555
C52 C47 1_555 1_555
H38 C52 1_555 1_555
C53 O5 1_555 1_555
H39 C53 1_555 1_555
H40 C53 1_555 1_555
H41 C53 1_555 1_555
C54 S6 1_555 1_555
C55 C54 1_555 1_555
H42 C55 1_555 1_555
C56 C55 1_555 1_555
H43 C56 1_555 1_555
C57 C56 1_555 1_555
C58 C57 1_555 1_555
H44 C58 1_555 1_555
C59 C54 1_555 1_555
H45 C59 1_555 1_555
C60 O6 1_555 1_555
H46 C60 1_555 1_555
H47 C60 1_555 1_555
H48 C60 1_555 1_555
C61 C62 1_555 1_555
C62 C63 1_555 1_555
C63 H49 1_555 1_555
C64 C63 1_555 1_555
C65 C64 1_555 1_555
C66 C65 1_555 1_555
H50 C66 1_555 1_555
C67 S9 1_555 1_555
C68 S10 1_555 1_555
C69 C68 1_555 1_555
H51 C69 1_555 1_555
C70 C65 1_555 1_555
C71 C70 1_555 1_555
C72 C71 1_555 1_555
H52 C72 1_555 1_555
C73 C72 1_555 1_555
C74 C73 1_555 1_555
C75 C74 1_555 1_555
H53 C75 1_555 1_555
C76 C71 1_555 1_555
C77 C64 1_555 1_555
C78 C61 1_555 1_555
H54 C78 1_555 1_555
C79 S7 1_555 1_555
C80 C79 1_555 1_555
H55 C80 1_555 1_555
C81 C80 1_555 1_555
H56 C81 1_555 1_555
C82 C81 1_555 1_555
C83 C82 1_555 1_555
H57 C83 1_555 1_555
C84 C79 1_555 1_555
H58 C84 1_555 1_555
C85 O7 1_555 1_555
H59 C85 1_555 1_555
H60 C85 1_555 1_555
H61 C85 1_555 1_555
C86 S8 1_555 1_555
C87 C86 1_555 1_555
H62 C87 1_555 1_555
C88 C87 1_555 1_555
H63 C88 1_555 1_555
C89 C88 1_555 1_555
C90 C89 1_555 1_555
H64 C90 1_555 1_555
C91 C86 1_555 1_555
H65 C91 1_555 1_555
C92 O8 1_555 1_555
H66 C92 1_555 1_555
H67 C92 1_555 1_555
H68 C92 1_555 1_555
C93 S9 1_555 1_555
C94 C93 1_555 1_555
H69 C94 1_555 1_555
C95 C94 1_555 1_555
H70 C95 1_555 1_555
C96 C95 1_555 1_555
C97 C96 1_555 1_555
H71 C97 1_555 1_555
C98 C93 1_555 1_555
C99 O9 1_555 1_555
H72 C99 1_555 1_555
H73 C99 1_555 1_555
H74 C99 1_555 1_555
C100 S10 1_555 1_555
C101 C100 1_555 1_555
H75 C101 1_555 1_555
C102 C101 1_555 1_555
H76 C102 1_555 1_555
C103 C102 1_555 1_555
C104 C103 1_555 1_555
H77 C104 1_555 1_555
C105 C100 1_555 1_555
H78 C105 1_555 1_555
C106 O10 1_555 1_555
H79 C106 1_555 1_555
H80 C106 1_555 1_555
H81 C106 1_555 1_555
C107 S11 1_555 1_555
C108 C107 1_555 1_555
H82 C108 1_555 1_555
C109 C108 1_555 1_555
H83 C109 1_555 1_555
C110 C109 1_555 1_555
C111 C110 1_555 1_555
H84 C111 1_555 1_555
C112 C107 1_555 1_555
H85 C112 1_555 1_555
C113 O11 1_555 1_555
H86 C113 1_555 1_555
H87 C113 1_555 1_555
H88 C113 1_555 1_555
C114 H89 1_555 1_555
C115 S12 1_555 1_555
C116 C115 1_555 1_555
H90 C116 1_555 1_555
C117 C116 1_555 1_555
H91 C117 1_555 1_555
C118 C117 1_555 1_555
C119 C114 1_555 1_555
H92 C119 1_555 1_555
O12 C118 1_555 1_555
C120 O12 1_555 1_555
H93 C120 1_555 1_555
H94 C120 1_555 1_555
H95 C120 1_555 1_555
C121 C122 1_555 1_555
C123 C121 1_555 1_555
O13 C121 1_555 1_555
Ag1A S3 1_555 1_555
Ag2_2 S7 1_555 1_555
Ag2C S11 1_555 1_555
S3A Ag1 1_555 1_555
S4A Ag1 1_555 1_555
S7_2 Ag2 1_555 1_555
S8_2 Ag2 1_555 1_555
S11C Ag2 1_555 1_555
S12C Ag2 1_555 1_555
S4 Ag1A 1_555 1_555
S8 Ag2_2 1_555 1_555
S12 Ag2C 1_555 1_555
C9 C10 1_555 1_555
C13 C14 1_555 1_555
C15 C16 1_555 1_555
C16 C17 1_555 1_555
C17 C18 1_555 1_555
C23 C24 1_555 1_555
C30 C31 1_555 1_555
C37 C38 1_555 1_555
C44 C45 1_555 1_555
C51 C52 1_555 1_555
C58 C59 1_555 1_555
C66 C67 1_555 1_555
C67 C68 1_555 1_555
C69 C70 1_555 1_555
C75 C76 1_555 1_555
C76 C77 1_555 1_555
C77 C78 1_555 1_555
C83 C84 1_555 1_555
C90 C91 1_555 1_555
C97 C98 1_555 1_555
C104 C105 1_555 1_555
C111 C112 1_555 1_555
C114 C115 1_555 1_555
C118 C119 1_555 1_555

#END
