
#######################################################################
#
#                 Cambridge Crystallographic Data Centre
#                                CCDC 
#
#######################################################################
#
# If this CIF has been generated from an entry in the Cambridge 
# Structural Database, then it will include bibliographic, chemical, 
# crystal, experimental, refinement or atomic coordinate data resulting 
# from the CCDC's data processing and validation procedures.
#
#######################################################################

data_PEDSUN01
_symmetry_cell_setting           triclinic
_symmetry_space_group_name_H-M   'P -1'
_symmetry_Int_Tables_number      2
_space_group_name_Hall           '-P 1'
loop_
_symmetry_equiv_pos_site_id
_symmetry_equiv_pos_as_xyz
1 x,y,z
2 -x,-y,-z
_cell_length_a                   7.888(2)
_cell_length_b                   8.103(2)
_cell_length_c                   9.590(2)
_cell_angle_alpha                71.950(3)
_cell_angle_beta                 77.227(4)
_cell_angle_gamma                71.760(3)
_cell_volume                     548.257
loop_
_atom_site_label
_atom_site_type_symbol
_atom_site_fract_x
_atom_site_fract_y
_atom_site_fract_z
Ni1 Ni 0.37736 0.36980 0.48523
O1 O 0.4596 0.6029 0.3806
N1 N 0.3606 0.1222 0.6078
C1 C 0.3596 -0.0259 0.6415
S1 S 0.6458 0.2386 0.3119
N2 N 0.1501 0.4926 0.6004
C2 C 0.0014 0.5376 0.6476
S2 S 0.2134 0.3945 0.2854
N3 N 0.3659 0.7443 0.2842
C3 C 0.2257 0.8618 0.3335
H1 H 0.1882 0.8441 0.4348
C4 C 0.1340 1.0105 0.2358
H2 H 0.0348 1.0924 0.2714
C5 C 0.1900 1.0375 0.0854
C6 C 0.3315 0.9071 0.0394
H3 H 0.3688 0.9186 -0.0612
C7 C 0.4184 0.7607 0.1408
H4 H 0.5138 0.6731 0.1083
C8 C 0.0960 1.2045 -0.0213
Ni1A Ni 0.62264 0.63020 0.51477
Ni1A_2 Ni 0.62264 -0.36980 0.51477
Ni1A_3 Ni -0.37736 0.63020 0.51477
O1A O 0.5404 0.3971 0.6194
O1A_2 O 0.5404 -0.6029 0.6194
O1_2 O 0.4596 -0.3971 0.3806
N1A N 0.6394 -0.1222 0.3922
C1A C 0.6404 0.0259 0.3585
S1A S 0.3542 -0.2386 0.6881
N2A N -0.1501 0.5074 0.3996
N2A_2 N 0.8499 -0.4926 0.3996
C2A C -0.0014 0.4624 0.3524
S2A S -0.2134 0.6055 0.7146
S2A_2 S 0.7866 -0.3945 0.7146
N3A N 0.6341 0.2557 0.7158
C3A C 0.7743 0.1382 0.6665
H1A H 0.8118 0.1559 0.5652
C4A C 0.8660 -0.0105 0.7642
H2A H 0.9652 -0.0924 0.7286
C5A C 0.8100 -0.0375 0.9146
C6A C 0.6685 0.0929 0.9606
H3A H 0.6312 0.0814 1.0612
C7A C 0.5816 0.2393 0.8592
H4A H 0.4862 0.3269 0.8917
C8A C 0.9040 -0.2045 1.0213
loop_
_geom_bond_atom_site_label_1
_geom_bond_atom_site_label_2
_geom_bond_site_symmetry_1
_geom_bond_site_symmetry_2
Ni1 O1 1_555 1_555
O1 N3 1_555 1_555
N1 Ni1 1_555 1_555
C1 N1 1_555 1_555
S1 Ni1 1_555 1_555
N2 Ni1 1_555 1_555
C2 N2 1_555 1_555
S2 Ni1 1_555 1_555
N3 C3 1_555 1_555
C3 H1 1_555 1_555
C4 C3 1_555 1_555
H2 C4 1_555 1_555
C5 C4 1_555 1_555
C6 C5 1_555 1_555
H3 C6 1_555 1_555
C7 N3 1_555 1_555
H4 C7 1_555 1_555
C8 C5 1_555 1_555
Ni1A O1 1_555 1_555
Ni1A_2 O1A_2 1_555 1_555
Ni1A_3 N2A 1_555 1_555
O1A Ni1 1_555 1_555
O1_2 Ni1A_2 1_555 1_555
N1A Ni1A_2 1_555 1_555
C1A S1 1_555 1_555
S1A C1 1_555 1_555
N2A C2A 1_555 1_555
N2A_2 Ni1A_2 1_555 1_555
C2A S2 1_555 1_555
S2A C2 1_555 1_555
S2A_2 Ni1A_2 1_555 1_555
N3A O1A 1_555 1_555
C3A N3A 1_555 1_555
H1A C3A 1_555 1_555
C4A C3A 1_555 1_555
H2A C4A 1_555 1_555
C5A C4A 1_555 1_555
C6A C5A 1_555 1_555
H3A C6A 1_555 1_555
C7A N3A 1_555 1_555
H4A C7A 1_555 1_555
C8A C5A 1_555 1_555
C6 C7 1_555 1_555
Ni1A O1A 1_555 1_555
Ni1A_2 S1A 1_555 1_555
Ni1A_3 S2A 1_555 1_555
N1A C1A 1_555 1_555
C6A C7A 1_555 1_555

#END
