
#######################################################################
#
#                 Cambridge Crystallographic Data Centre
#                                CCDC 
#
#######################################################################
#
# If this CIF has been generated from an entry in the Cambridge 
# Structural Database, then it will include bibliographic, chemical, 
# crystal, experimental, refinement or atomic coordinate data resulting 
# from the CCDC's data processing and validation procedures.
#
#######################################################################

data_PEDSUN
_symmetry_cell_setting           triclinic
_symmetry_space_group_name_H-M   'P 1'
_symmetry_Int_Tables_number      1
_space_group_name_Hall           'P 1'
loop_
_symmetry_equiv_pos_site_id
_symmetry_equiv_pos_as_xyz
1 x,y,z
_cell_length_a                   7.888(2)
_cell_length_b                   8.103(2)
_cell_length_c                   9.590(2)
_cell_angle_alpha                71.950(3)
_cell_angle_beta                 77.227(4)
_cell_angle_gamma                71.760(3)
_cell_volume                     548.257
loop_
_atom_site_label
_atom_site_type_symbol
_atom_site_fract_x
_atom_site_fract_y
_atom_site_fract_z
N1 N -0.5544(15) 0.9844(16) 0.4989(13)
N2 N 0.2332(17) 0.3607(16) 0.4910(14)
N3 N -0.0455(15) 0.6050(18) 0.7065(13)
C1 C -0.4108(17) 0.9420(17) 0.4480(13)
Ni1 Ni -0.02953(12) 0.84828(11) 0.58436(10)
Ni2 Ni -0.78425(12) 1.10868(11) 0.61390(11)
S1 S 0.2386(5) 0.7176(5) 0.4110(4)
S2 S -0.6201(5) 1.0854(6) 0.8134(4)
S3 S -0.0530(5) 0.2403(5) 0.7872(4)
S4 S -0.1932(5) 0.8744(6) 0.3843(4)
O1 O 0.1310(14) 0.8790(14) 0.7159(12)
O2 O 0.0502(12) 1.0848(13) 0.4772(11)
N4 N -0.0349(12) 1.2172(13) 0.3871(9)
N5 N 0.2333(16) 0.7286(15) 0.8187(14)
C2 C -0.218(2) 1.517(2) 0.1816(16)
C3 C 0.402(2) 0.442(2) 1.0108(17)
C4 C -0.0411(18) 0.4568(17) 0.7385(14)
C5 C 0.2396(17) 0.5086(17) 0.4555(13)
C6 C 0.3706(13) 0.6142(17) 0.7599(14)
H1 H 0.4042 0.6318 0.6582
C7 C -0.178(2) 1.3379(18) 0.4269(15)
H2 H -0.2193 1.3200 0.5277
C8 C 0.172(2) 0.717(2) 0.9664(14)
H3 H 0.0776 0.8043 1.0005
C9 C 0.0088(18) 1.2384(15) 0.2480(15)
H4 H 0.1053 1.1505 0.2171
C10 C -0.075(2) 1.383(2) 0.1343(17)
H5 H -0.0370 1.3887 0.0344
C11 C 0.262(2) 0.5688(19) 1.0555(14)
H6 H 0.2254 0.5514 1.1569
C12 C 0.494(3) 0.276(2) 1.1206(17)
H7 H 0.5006 0.3077 1.2074
H8 H 0.6135 0.2265 1.0763
H9 H 0.4261 0.1883 1.1477
C13 C -0.272(2) 1.487(2) 0.334(2)
H10 H -0.3700 1.5674 0.3721
C14 C 0.460(2) 0.466(2) 0.8623(17)
H11 H 0.5603 0.3827 0.8293
C15 C -0.408(2) 1.0173(18) 0.7433(15)
C16 C -0.314(2) 1.685(3) 0.078(2)
H12 H -0.4330 1.6787 0.0772
H13 H -0.2483 1.6949 -0.0204
H14 H -0.3205 1.7880 0.1100
N6 N -0.2542(17) 0.9695(17) 0.6997(13)
N2_2 N -0.7668(17) 1.3607(16) 0.4910(14)
Ni2_2 Ni 0.21575(12) 0.10868(11) 0.61390(11)
Ni2_3 Ni 0.21575(12) 1.10868(11) 0.61390(11)
S3_2 S -1.0530(5) 1.2403(5) 0.7872(4)
O1_2 O -0.8690(14) 0.8790(14) 0.7159(12)
O2_2 O -0.9498(12) 1.0848(13) 0.4772(11)
loop_
_geom_bond_atom_site_label_1
_geom_bond_atom_site_label_2
_geom_bond_site_symmetry_1
_geom_bond_site_symmetry_2
N1 C1 1_555 1_555
N2 C5 1_555 1_555
N3 Ni1 1_555 1_555
C1 S4 1_555 1_555
Ni1 S1 1_555 1_555
Ni2 N1 1_555 1_555
S1 C5 1_555 1_555
S2 Ni2 1_555 1_555
S3 C4 1_555 1_555
S4 Ni1 1_555 1_555
O1 Ni1 1_555 1_555
O2 Ni1 1_555 1_555
N4 O2 1_555 1_555
N5 O1 1_555 1_555
C2 C10 1_555 1_555
C3 C11 1_555 1_555
C4 N3 1_555 1_555
C6 N5 1_555 1_555
H1 C6 1_555 1_555
C7 N4 1_555 1_555
H2 C7 1_555 1_555
C8 N5 1_555 1_555
H3 C8 1_555 1_555
C9 N4 1_555 1_555
H4 C9 1_555 1_555
C10 C9 1_555 1_555
H5 C10 1_555 1_555
C11 C8 1_555 1_555
H6 C11 1_555 1_555
C12 C3 1_555 1_555
H7 C12 1_555 1_555
H8 C12 1_555 1_555
H9 C12 1_555 1_555
C13 C2 1_555 1_555
H10 C13 1_555 1_555
C14 C3 1_555 1_555
H11 C14 1_555 1_555
C15 S2 1_555 1_555
C16 C2 1_555 1_555
H12 C16 1_555 1_555
H13 C16 1_555 1_555
H14 C16 1_555 1_555
N6 Ni1 1_555 1_555
N2_2 Ni2 1_555 1_555
Ni2_2 N2 1_555 1_555
Ni2_3 O1 1_555 1_555
S3_2 Ni2 1_555 1_555
O1_2 Ni2 1_555 1_555
O2_2 Ni2 1_555 1_555
S3 Ni2_2 1_555 1_555
O2 Ni2_3 1_555 1_555
C6 C14 1_555 1_555
C7 C13 1_555 1_555
C15 N6 1_555 1_555

#END
