
#######################################################################
#
#                 Cambridge Crystallographic Data Centre
#                                CCDC 
#
#######################################################################
#
# If this CIF has been generated from an entry in the Cambridge 
# Structural Database, then it will include bibliographic, chemical, 
# crystal, experimental, refinement or atomic coordinate data resulting 
# from the CCDC's data processing and validation procedures.
#
#######################################################################

data_PEDTEX
_symmetry_cell_setting           monoclinic
_symmetry_space_group_name_H-M   'P 21/c'
_symmetry_Int_Tables_number      14
_space_group_name_Hall           '-P 2ybc'
loop_
_symmetry_equiv_pos_site_id
_symmetry_equiv_pos_as_xyz
1 x,y,z
2 -x,1/2+y,1/2-z
3 -x,-y,-z
4 x,1/2-y,1/2+z
_cell_length_a                   10.644(2)
_cell_length_b                   9.350(2)
_cell_length_c                   17.239(4)
_cell_angle_alpha                90
_cell_angle_beta                 95.53(2)
_cell_angle_gamma                90
_cell_volume                     1707.66
loop_
_atom_site_label
_atom_site_type_symbol
_atom_site_fract_x
_atom_site_fract_y
_atom_site_fract_z
Hg1 Hg 0.1201(1) 0.0413(1) 0.0940(1)
N1 N 0.0535(10) -0.1292(10) 0.1492(7)
C1 C 0.1099(14) -0.2573(14) 0.1481(8)
O1 O 0.2109(9) -0.2891(10) 0.1253(7)
O2 O 0.0362(10) -0.3584(10) 0.1796(7)
C2 C -0.0691(16) -0.2887(16) 0.2109(11)
C3 C -0.0708(13) -0.1374(14) 0.1762(10)
N2 N 0.1817(10) 0.2196(11) 0.0433(8)
C4 C 0.2882(14) 0.2285(15) 0.0087(9)
O3 O 0.3658(9) 0.1326(10) 0.0049(7)
O4 O 0.3059(10) 0.3574(10) -0.0208(8)
C5 C 0.2015(17) 0.4478(16) -0.0055(12)
C6 C 0.1157(14) 0.3565(13) 0.0369(10)
N3 N 0.3223(10) -0.2091(12) -0.0465(7)
C7 C 0.2039(14) -0.1825(15) -0.0715(9)
O5 O 0.1258(9) -0.1154(10) -0.0397(7)
O6 O 0.1726(10) -0.2345(13) -0.1440(6)
C8 C 0.2814(18) -0.3056(20) -0.1704(11)
C9 C 0.3835(15) -0.2912(17) -0.1046(10)
N4 N 0.4839(11) -0.0817(13) 0.1627(7)
Hg2 Hg 0.4025(1) -0.1410(1) 0.0581(1)
C10 C 0.4324(15) 0.0068(16) 0.2096(9)
O7 O 0.3286(10) 0.0658(11) 0.2026(7)
O8 O 0.5094(11) 0.0320(12) 0.2763(7)
C11 C 0.6197(16) -0.0553(20) 0.2734(11)
C12 C 0.6102(14) -0.1100(19) 0.1925(10)
H1 H -0.1465 -0.3383 0.1956
H2 H -0.0558 -0.2844 0.2667
H3 H -0.0826 -0.0659 0.2148
H4 H -0.1357 -0.1284 0.1338
H5 H 0.2308 0.5281 0.0259
H6 H 0.1583 0.4813 -0.0536
H7 H 0.0342 0.3475 0.0082
H8 H 0.1062 0.3950 0.0876
H9 H 0.2632 -0.4047 -0.1805
H10 H 0.3058 -0.2611 -0.2169
H11 H 0.4544 -0.2399 -0.1211
H12 H 0.4110 -0.3829 -0.0844
H13 H 0.6953 -0.0001 0.2845
H14 H 0.6192 -0.1329 0.3098
H15 H 0.6266 -0.2109 0.1916
H16 H 0.6683 -0.0608 0.1626
O3B O 0.6342(9) -0.1326(10) -0.0049(7)
Hg2B Hg 0.5975(1) 0.1410(1) -0.0581(1)
O5B O -0.1258(9) 0.1154(10) 0.0397(7)
Hg1B Hg -0.1201(1) -0.0413(1) -0.0940(1)
loop_
_geom_bond_atom_site_label_1
_geom_bond_atom_site_label_2
_geom_bond_site_symmetry_1
_geom_bond_site_symmetry_2
Hg1 N1 1_555 1_555
N1 C1 1_555 1_555
C1 O1 1_555 1_555
O1 Hg2 1_555 1_555
O2 C1 1_555 1_555
C2 O2 1_555 1_555
C3 N1 1_555 1_555
N2 Hg1 1_555 1_555
C4 N2 1_555 1_555
O3 C4 1_555 1_555
O4 C4 1_555 1_555
C5 O4 1_555 1_555
C6 N2 1_555 1_555
N3 C7 1_555 1_555
C7 O5 1_555 1_555
O5 Hg1 1_555 1_555
O6 C7 1_555 1_555
C8 O6 1_555 1_555
C9 N3 1_555 1_555
N4 Hg2 1_555 1_555
Hg2 O3 1_555 1_555
C10 N4 1_555 1_555
O7 Hg1 1_555 1_555
O8 C10 1_555 1_555
C11 O8 1_555 1_555
C12 N4 1_555 1_555
H1 C2 1_555 1_555
H2 C2 1_555 1_555
H3 C3 1_555 1_555
H4 C3 1_555 1_555
H5 C5 1_555 1_555
H6 C5 1_555 1_555
H7 C6 1_555 1_555
H8 C6 1_555 1_555
H9 C8 1_555 1_555
H10 C8 1_555 1_555
H11 C9 1_555 1_555
H12 C9 1_555 1_555
H13 C11 1_555 1_555
H14 C11 1_555 1_555
H15 C12 1_555 1_555
H16 C12 1_555 1_555
O3B Hg2 1_555 1_555
Hg2B O3 1_555 1_555
O5B Hg1 1_555 1_555
Hg1B O5 1_555 1_555
C2 C3 1_555 1_555
C5 C6 1_555 1_555
N3 Hg2 1_555 1_555
C8 C9 1_555 1_555
C10 O7 1_555 1_555
C11 C12 1_555 1_555
O3B Hg2B 1_555 1_555
O5B Hg1B 1_555 1_555

#END
