
#######################################################################
#
#                 Cambridge Crystallographic Data Centre
#                                CCDC 
#
#######################################################################
#
# If this CIF has been generated from an entry in the Cambridge 
# Structural Database, then it will include bibliographic, chemical, 
# crystal, experimental, refinement or atomic coordinate data resulting 
# from the CCDC's data processing and validation procedures.
#
#######################################################################

data_PEDVEB
_symmetry_cell_setting           monoclinic
_symmetry_space_group_name_H-M   'P 21/n'
_symmetry_Int_Tables_number      14
_space_group_name_Hall           '-P 2yn'
loop_
_symmetry_equiv_pos_site_id
_symmetry_equiv_pos_as_xyz
1 x,y,z
2 1/2-x,1/2+y,1/2-z
3 -x,-y,-z
4 1/2+x,1/2-y,1/2+z
_cell_length_a                   8.644(3)
_cell_length_b                   4.8888(17)
_cell_length_c                   12.132(4)
_cell_angle_alpha                90
_cell_angle_beta                 91.566(8)
_cell_angle_gamma                90
_cell_volume                     512.492
loop_
_atom_site_label
_atom_site_type_symbol
_atom_site_fract_x
_atom_site_fract_y
_atom_site_fract_z
Mn1 Mn 0.5000 0.5000 0.5000
O1 O -0.0370(4) 0.7457(7) 0.8541(3)
O2 O -0.1166(4) 0.3401(7) 0.9138(3)
N1 N 0.0534(5) 0.5101(7) 0.6573(3)
N2 N 0.0245(4) 0.7428(8) 0.5979(3)
N3 N 0.2694(5) 0.5958(9) 0.5759(3)
C1 C 0.1573(5) 0.7840(10) 0.5501(4)
H1 H 0.1736 0.9298 0.5026
C2 C 0.1949(6) 0.4272(11) 0.6431(4)
H2 H 0.2382 0.2716 0.6755
C3 C -0.0669(6) 0.3857(10) 0.7242(4)
H3 H -0.0493 0.1899 0.7280
H4 H -0.1668 0.4150 0.6879
C4 C -0.0717(5) 0.4996(9) 0.8416(4)
Mn1A Mn 0.0000 0.0000 1.0000
Mn1A_2 Mn 0.0000 1.0000 1.0000
Mn1A_3 Mn 1.0000 0.0000 0.0000
Mn1A_4 Mn 1.0000 1.0000 0.0000
O1B O 1.0370(4) 0.2543(7) 0.1459(3)
O1A O 0.5370(4) 0.2457(7) 0.6459(3)
O1C O 0.4630(4) 0.7543(7) 0.3541(3)
O2B O 1.1166(4) 0.6599(7) 0.0862(3)
O2A O 0.6166(4) 0.8401(7) 0.5862(3)
O2C O 0.3834(4) 0.1599(7) 0.4138(3)
N1B N 0.9466(5) 0.4899(7) 0.3427(3)
N2B N 0.9755(4) 0.2572(8) 0.4021(3)
N3B N 0.7306(5) 0.4042(9) 0.4241(3)
C1B C 0.8427(5) 0.2160(10) 0.4499(4)
H1B H 0.8264 0.0702 0.4974
C2B C 0.8051(6) 0.5728(11) 0.3569(4)
H2B H 0.7618 0.7284 0.3245
C3B C 1.0669(6) 0.6143(10) 0.2758(4)
H3B H 1.0493 0.8101 0.2720
H4B H 1.1668 0.5850 0.3121
C4B C 1.0717(5) 0.5004(9) 0.1584(4)
loop_
_geom_bond_atom_site_label_1
_geom_bond_atom_site_label_2
_geom_bond_site_symmetry_1
_geom_bond_site_symmetry_2
Mn1 N3 1_555 1_555
O1 C4 1_555 1_555
O2 C4 1_555 1_555
N1 N2 1_555 1_555
N2 C1 1_555 1_555
N3 C1 1_555 1_555
C1 H1 1_555 1_555
C2 N1 1_555 1_555
H2 C2 1_555 1_555
C3 N1 1_555 1_555
H3 C3 1_555 1_555
H4 C3 1_555 1_555
C4 C3 1_555 1_555
Mn1A O2 1_555 1_555
Mn1A_2 O1 1_555 1_555
Mn1A_3 O1B 1_555 1_555
Mn1A_4 O2B 1_555 1_555
O1B C4B 1_555 1_555
O1A Mn1 1_555 1_555
O1C Mn1 1_555 1_555
O2B C4B 1_555 1_555
O2A Mn1 1_555 1_555
O2C Mn1 1_555 1_555
N1B N2B 1_555 1_555
N2B C1B 1_555 1_555
N3B Mn1 1_555 1_555
C1B N3B 1_555 1_555
H1B C1B 1_555 1_555
C2B N1B 1_555 1_555
H2B C2B 1_555 1_555
C3B N1B 1_555 1_555
H3B C3B 1_555 1_555
H4B C3B 1_555 1_555
C4B C3B 1_555 1_555
N3 C2 1_555 1_555
N3B C2B 1_555 1_555

#END
