
#######################################################################
#
#                 Cambridge Crystallographic Data Centre
#                                CCDC 
#
#######################################################################
#
# If this CIF has been generated from an entry in the Cambridge 
# Structural Database, then it will include bibliographic, chemical, 
# crystal, experimental, refinement or atomic coordinate data resulting 
# from the CCDC's data processing and validation procedures.
#
#######################################################################

data_PEDZUV
_symmetry_cell_setting           monoclinic
_symmetry_space_group_name_H-M   'P 21/c'
_symmetry_Int_Tables_number      14
_space_group_name_Hall           '-P 2ybc'
loop_
_symmetry_equiv_pos_site_id
_symmetry_equiv_pos_as_xyz
1 x,y,z
2 -x,1/2+y,1/2-z
3 -x,-y,-z
4 x,1/2-y,1/2+z
_cell_length_a                   15.9180(12)
_cell_length_b                   10.9564(10)
_cell_length_c                   10.5584(11)
_cell_angle_alpha                90
_cell_angle_beta                 92.3810(10)
_cell_angle_gamma                90
_cell_volume                     1839.84
loop_
_atom_site_label
_atom_site_type_symbol
_atom_site_fract_x
_atom_site_fract_y
_atom_site_fract_z
Eu1 Eu 0.56025(5) 0.39203(6) 0.37888(6)
O1 O 0.6995(7) 0.3843(10) 0.2734(10)
O2 O 0.6769(7) 0.2473(10) 0.4213(10)
O3 O 1.4104(7) 0.3954(9) 0.3307(9)
O4 O 1.3460(7) 0.4987(11) 0.4838(10)
O5 O 1.0576(8) 0.1210(13) 0.3219(15)
O6 O 0.5043(6) 0.6033(8) 0.4150(8)
O7 O 0.5549(6) 0.5215(8) 0.1937(8)
O8 O 0.4486(7) 0.7683(9) 0.3176(8)
O9 O 0.4971(6) 0.6827(9) 0.0939(9)
C1 C 0.7244(11) 0.2961(16) 0.3439(16)
C2 C 0.8117(11) 0.2488(17) 0.3325(18)
C3 C 0.8695(12) 0.3102(19) 0.2614(19)
H3 H 0.8533 0.3785 0.2142
C4 C 0.9522(13) 0.269(2) 0.261(2)
H4 H 0.9915 0.3115 0.2160
C5 C 0.9765(12) 0.168(2) 0.325(2)
C6 C 0.9189(12) 0.102(2) 0.391(2)
H5 H 0.9359 0.0313 0.4336
C7 C 0.8383(11) 0.1379(18) 0.3929(19)
H6 H 0.7995 0.0903 0.4342
C8 C 1.3471(10) 0.4183(15) 0.3965(15)
C9 C 1.2686(11) 0.3449(17) 0.3707(17)
C10 C 1.1964(12) 0.3777(19) 0.4291(19)
H7 H 1.1956 0.4473 0.4795
C11 C 1.1240(13) 0.306(2) 0.412(2)
H8 H 1.0747 0.3281 0.4504
C12 C 1.1262(12) 0.201(2) 0.338(2)
C13 C 1.1981(11) 0.1718(19) 0.2806(19)
H9 H 1.1993 0.1027 0.2296
C14 C 1.2696(11) 0.2427(17) 0.2964(18)
H10 H 1.3184 0.2209 0.2565
C15 C 0.4858(9) 0.6700(12) 0.3180(12)
C16 C 0.5156(9) 0.6199(12) 0.1890(11)
Eu1_2 Eu 1.56025(5) 0.39203(6) 0.37888(6)
Eu1B Eu 1.43975(5) 0.60797(6) 0.62112(6)
Eu1B_2 Eu 0.43975(5) 0.60797(6) 0.62112(6)
Eu1A Eu 0.43975(5) 0.89203(6) 0.12112(6)
O3_2 O 0.4104(7) 0.3954(9) 0.3307(9)
O4B O 0.6540(7) 0.5013(11) 0.5162(10)
O6B O 0.4957(6) 0.3967(8) 0.5850(8)
O8A O 0.5514(7) 0.2683(9) 0.1824(8)
O9A O 0.5029(6) 0.1827(9) 0.4061(9)
Na1 Na -0.3664(4) 0.4002(6) 0.0565(5)
O10 O -0.3658(10) 0.5789(12) -0.0628(12)
H1 H -0.3697 0.5616 -0.1413
H2 H -0.4078 0.6228 -0.0450
loop_
_geom_bond_atom_site_label_1
_geom_bond_atom_site_label_2
_geom_bond_site_symmetry_1
_geom_bond_site_symmetry_2
Eu1 O1 1_555 1_555
O1 C1 1_555 1_555
O2 Eu1 1_555 1_555
O3 C8 1_555 1_555
O4 C8 1_555 1_555
O5 C5 1_555 1_555
O6 Eu1 1_555 1_555
O7 Eu1 1_555 1_555
O8 C15 1_555 1_555
O9 C16 1_555 1_555
O10 H1 1_555 1_555
H2 O10 1_555 1_555
C1 O2 1_555 1_555
C2 C1 1_555 1_555
C3 C2 1_555 1_555
H3 C3 1_555 1_555
C4 C3 1_555 1_555
H4 C4 1_555 1_555
C5 C4 1_555 1_555
C6 C5 1_555 1_555
H5 C6 1_555 1_555
C7 C2 1_555 1_555
H6 C7 1_555 1_555
C8 C9 1_555 1_555
C9 C10 1_555 1_555
C10 H7 1_555 1_555
C11 C10 1_555 1_555
H8 C11 1_555 1_555
C12 O5 1_555 1_555
C13 C12 1_555 1_555
H9 C13 1_555 1_555
C14 C9 1_555 1_555
H10 C14 1_555 1_555
C15 O6 1_555 1_555
C16 O7 1_555 1_555
Eu1_2 O3 1_555 1_555
Eu1B O4 1_555 1_555
Eu1B_2 O6 1_555 1_555
Eu1A O8 1_555 1_555
O3_2 Eu1 1_555 1_555
O4B Eu1 1_555 1_555
O6B Eu1 1_555 1_555
O8A Eu1 1_555 1_555
O9A Eu1 1_555 1_555
O9 Eu1A 1_555 1_555
C6 C7 1_555 1_555
C11 C12 1_555 1_555
C13 C14 1_555 1_555
C15 C16 1_555 1_555
Eu1B_2 O6B 1_555 1_555

#END
