
#######################################################################
#
#                 Cambridge Crystallographic Data Centre
#                                CCDC 
#
#######################################################################
#
# If this CIF has been generated from an entry in the Cambridge 
# Structural Database, then it will include bibliographic, chemical, 
# crystal, experimental, refinement or atomic coordinate data resulting 
# from the CCDC's data processing and validation procedures.
#
#######################################################################

data_PEFBIM
_symmetry_cell_setting           monoclinic
_symmetry_space_group_name_H-M   'C 2/c'
_symmetry_Int_Tables_number      15
_space_group_name_Hall           '-C 2yn'
loop_
_symmetry_equiv_pos_site_id
_symmetry_equiv_pos_as_xyz
1 x,y,z
2 -x,y,1/2-z
3 1/2+x,1/2+y,z
4 1/2-x,1/2+y,1/2-z
5 -x,-y,-z
6 x,-y,1/2+z
7 1/2-x,1/2-y,-z
8 1/2+x,1/2-y,1/2+z
_cell_length_a                   17.390(2)
_cell_length_b                   5.521(1)
_cell_length_c                   19.487(2)
_cell_angle_alpha                90
_cell_angle_beta                 105.35(1)
_cell_angle_gamma                90
_cell_volume                     1804.21
loop_
_atom_site_label
_atom_site_type_symbol
_atom_site_fract_x
_atom_site_fract_y
_atom_site_fract_z
Y1 Y 0.111(1) 0.009(2) 0.183(1)
O1 O 0.143(2) 0.356(6) 0.254(1)
O2 O 0.250(2) 0.582(8) 0.309(1)
O3 O 0.123(2) 0.846(7) 0.288(2)
O4 O 0.025(2) 0.909(6) 0.339(1)
O5 O 0.089(1) 0.717(6) 0.587(1)
O6 O 0.115(2) 0.335(4) 0.621(2)
C1 C 0.164(5) 0.467(2) 0.376(3)
C2 C 0.129(3) 0.665(8) 0.395(3)
C3 C 0.112(5) 0.675(9) 0.463(4)
C4 C 0.128(4) 0.474(1) 0.509(3)
C5 C 0.172(4) 0.280(1) 0.493(3)
C6 C 0.186 0.262 0.423
C7 C 0.190(4) 0.461(3) 0.312(3)
C8 C 0.101(4) 0.845(2) 0.345(5)
C9 C 0.115(4) 0.502(1) 0.577(3)
Y1C Y 0.389(1) 0.509(2) 0.317(1)
Y1_2 Y 0.111(1) 1.009(2) 0.183(1)
Y1A Y -0.111(1) 1.009(2) 0.317(1)
Y1E Y 0.111(1) 0.991(2) 0.683(1)
Y1E_2 Y 0.111(1) -0.009(2) 0.683(1)
O2C O 0.250(2) 0.082(8) 0.191(1)
O3_2 O 0.123(2) -0.154(7) 0.288(2)
O4A O -0.025(2) -0.091(6) 0.161(1)
O5E O 0.089(1) 0.283(6) 0.087(1)
O6E O 0.115(2) -0.335(4) 0.121(2)
loop_
_geom_bond_atom_site_label_1
_geom_bond_atom_site_label_2
_geom_bond_site_symmetry_1
_geom_bond_site_symmetry_2
Y1 O1 1_555 1_555
O1 C7 1_555 1_555
O2 C7 1_555 1_555
O3 C8 1_555 1_555
O4 C8 1_555 1_555
O5 C9 1_555 1_555
O6 C9 1_555 1_555
C1 C2 1_555 1_555
C2 C3 1_555 1_555
C3 C4 1_555 1_555
C4 C5 1_555 1_555
C5 C6 1_555 1_555
C6 C1 1_555 1_555
C7 C1 1_555 1_555
C8 C2 1_555 1_555
C9 C4 1_555 1_555
Y1C O2 1_555 1_555
Y1_2 O3 1_555 1_555
Y1A O4 1_555 1_555
Y1E O5 1_555 1_555
Y1E_2 O6 1_555 1_555
O2C Y1 1_555 1_555
O3_2 Y1 1_555 1_555
O4A Y1 1_555 1_555
O5E Y1 1_555 1_555
O6E Y1 1_555 1_555

#END
