
#######################################################################
#
#                 Cambridge Crystallographic Data Centre
#                                CCDC 
#
#######################################################################
#
# If this CIF has been generated from an entry in the Cambridge 
# Structural Database, then it will include bibliographic, chemical, 
# crystal, experimental, refinement or atomic coordinate data resulting 
# from the CCDC's data processing and validation procedures.
#
#######################################################################

data_PEFDIO
_symmetry_cell_setting           monoclinic
_symmetry_space_group_name_H-M   'P 21/c'
_symmetry_Int_Tables_number      14
_space_group_name_Hall           '-P 2ybc'
loop_
_symmetry_equiv_pos_site_id
_symmetry_equiv_pos_as_xyz
1 x,y,z
2 -x,1/2+y,1/2-z
3 -x,-y,-z
4 x,1/2-y,1/2+z
_cell_length_a                   9.2065(8)
_cell_length_b                   25.574(2)
_cell_length_c                   6.8104(6)
_cell_angle_alpha                90
_cell_angle_beta                 90.256(2)
_cell_angle_gamma                90
_cell_volume                     1603.47
loop_
_atom_site_label
_atom_site_type_symbol
_atom_site_fract_x
_atom_site_fract_y
_atom_site_fract_z
Cu1 Cu 0.30598(3) 0.342874(9) 0.64010(4)
C1 C 0.2255(2) 0.10058(7) 0.6827(3)
C2 C 0.2454(2) 0.15721(7) 0.6647(3)
C3 C 0.1300(2) 0.19157(8) 0.6890(4)
H1 H 0.0375 0.1787 0.7139
C4 C 0.1526(2) 0.24441(8) 0.6762(4)
H2 H 0.0726 0.2663 0.6899
C5 C 0.3937(2) 0.23360(8) 0.6208(4)
H3 H 0.4851 0.2476 0.5964
C6 C 0.3803(2) 0.17964(8) 0.6298(4)
H4 H 0.4615 0.1585 0.6126
C7 C 0.1356(2) 0.02689(7) 0.7250(3)
C8 C 0.0337(2) -0.01680(7) 0.7582(3)
C9 C -0.1150(2) -0.00894(8) 0.7528(3)
H5 H -0.1526 0.0243 0.7312
C10 C -0.2079(2) -0.05115(7) 0.7799(3)
H6 H -0.3074 -0.0452 0.7722
C11 C -0.0174(2) -0.10641(8) 0.8263(3)
H7 H 0.0180 -0.1397 0.8535
C12 C 0.0811(2) -0.06676(8) 0.7984(3)
H8 H 0.1801 -0.0737 0.8068
N1 N 0.33769(17) 0.06719(6) 0.6810(3)
N2 N 0.27820(18) 0.01896(6) 0.7099(3)
N3 N 0.09632(16) 0.07709(6) 0.7087(2)
N4 N 0.28288(17) 0.26662(7) 0.6452(3)
N5 N -0.16208(18) -0.09974(6) 0.8165(3)
N6 N 0.5007(2) 0.37747(9) 0.5870(4)
H9 H 0.571(3) 0.3549(13) 0.544(5)
H10 H 0.545(4) 0.3984(14) 0.683(5)
H11 H 0.486(4) 0.3997(14) 0.484(6)
Cu1A Cu -0.30598(3) -0.157126(9) 0.85990(4)
N5A N 0.16208(18) 0.40026(6) 0.6835(3)
O1 O 0.7558(3) 0.30818(10) 0.4754(4)
H12 H 0.788(4) 0.2779(17) 0.422(6)
H13 H 0.783(4) 0.3259(14) 0.399(5)
O2 O 0.60339(19) 0.43065(6) 0.9814(3)
H14 H 0.616(3) 0.4636(12) 0.925(4)
H15 H 0.530(3) 0.4358(10) 1.033(4)
O3 O 0.81631(19) 0.37300(7) 1.1568(3)
H16 H 0.889(3) 0.3933(12) 1.164(4)
H17 H 0.753(3) 0.3946(12) 1.110(4)
O4 O 0.7702(3) 0.29434(8) 0.8755(4)
H18 H 0.802(4) 0.3213(15) 0.958(5)
H19 H 0.770(5) 0.3025(16) 0.761(7)
loop_
_geom_bond_atom_site_label_1
_geom_bond_atom_site_label_2
_geom_bond_site_symmetry_1
_geom_bond_site_symmetry_2
Cu1 N4 1_555 1_555
C1 C2 1_555 1_555
C2 C3 1_555 1_555
C3 H1 1_555 1_555
C4 C3 1_555 1_555
H2 C4 1_555 1_555
C5 H3 1_555 1_555
C6 C2 1_555 1_555
H4 C6 1_555 1_555
C7 C8 1_555 1_555
C8 C9 1_555 1_555
C9 H5 1_555 1_555
C10 C9 1_555 1_555
H6 C10 1_555 1_555
C11 H7 1_555 1_555
C12 C8 1_555 1_555
H8 C12 1_555 1_555
N1 C1 1_555 1_555
N2 C7 1_555 1_555
N3 C1 1_555 1_555
N4 C4 1_555 1_555
N5 C10 1_555 1_555
N6 Cu1 1_555 1_555
H9 N6 1_555 1_555
H10 N6 1_555 1_555
H11 N6 1_555 1_555
O1 H12 1_555 1_555
H13 O1 1_555 1_555
O2 H14 1_555 1_555
H15 O2 1_555 1_555
O3 H16 1_555 1_555
H17 O3 1_555 1_555
O4 H18 1_555 1_555
H19 O4 1_555 1_555
Cu1A N5 1_555 1_555
N5A Cu1 1_555 1_555
C5 C6 1_555 1_555
C5 N4 1_555 1_555
C7 N3 1_555 1_555
C11 C12 1_555 1_555
C11 N5 1_555 1_555
N1 N2 1_555 1_555

#END
