
#######################################################################
#
#                 Cambridge Crystallographic Data Centre
#                                CCDC 
#
#######################################################################
#
# If this CIF has been generated from an entry in the Cambridge 
# Structural Database, then it will include bibliographic, chemical, 
# crystal, experimental, refinement or atomic coordinate data resulting 
# from the CCDC's data processing and validation procedures.
#
#######################################################################

data_PEFDEK01
_symmetry_cell_setting           monoclinic
_symmetry_space_group_name_H-M   'P 21/n'
_symmetry_Int_Tables_number      14
_space_group_name_Hall           '-P 2yn'
loop_
_symmetry_equiv_pos_site_id
_symmetry_equiv_pos_as_xyz
1 x,y,z
2 1/2-x,1/2+y,1/2-z
3 -x,-y,-z
4 1/2+x,1/2-y,1/2+z
_cell_length_a                   7.9633(5)
_cell_length_b                   10.3757(6)
_cell_length_c                   13.1054(8)
_cell_angle_alpha                90
_cell_angle_beta                 105.6730(10)
_cell_angle_gamma                90
_cell_volume                     1042.57
loop_
_atom_site_label
_atom_site_type_symbol
_atom_site_fract_x
_atom_site_fract_y
_atom_site_fract_z
Cu1 Cu 0.09643(3) 0.50522(2) 0.39495(2)
N1 N 0.1160(2) 0.35647(15) 0.48928(12)
N2 N 0.0941(2) 0.37114(15) 0.58968(13)
N3 N 0.1905(2) 0.16910(16) 0.57694(13)
N4 N 0.3094(2) 0.06507(16) 0.22223(13)
N5 N 0.1823(2) 0.1629(2) 0.96157(14)
C1 C 0.1715(3) 0.23519(18) 0.48567(15)
C2 C 0.1402(3) 0.25750(18) 0.63766(15)
C3 C 0.3708(3) 0.02076(19) 0.32208(17)
H1 H 0.4502 -0.0495 0.3342
C4 C 0.3242(3) 0.07241(19) 0.40755(16)
H2 H 0.3689 0.0363 0.4762
C5 C 0.2118(3) 0.17723(18) 0.39299(15)
C6 C 0.1421(3) 0.21994(19) 0.28988(16)
H3 H 0.0593 0.2881 0.2755
C7 C 0.1941(3) 0.16243(19) 0.20818(16)
H4 H 0.1457 0.1935 0.1382
C8 C 0.2383(3) 0.2762(2) 0.93457(17)
H5 H 0.2930 0.3338 0.9899
C9 C 0.2216(3) 0.3151(2) 0.83119(16)
H6 H 0.2611 0.3977 0.8165
C10 C 0.1457(3) 0.23034(18) 0.74929(15)
C11 C 0.0840(3) 0.11309(19) 0.77640(16)
H7 H 0.0290 0.0533 0.7229
C12 C 0.1038(3) 0.0849(2) 0.88211(17)
H8 H 0.0589 0.0053 0.8991
Cu1B Cu -0.09643(3) 0.49478(2) 0.60505(2)
Cu1A Cu 0.40357(3) 0.00522(2) 0.10505(2)
N2B N -0.0941(2) 0.62886(15) 0.41032(13)
N4A N 0.1906(2) 0.56507(16) 0.27777(13)
loop_
_geom_bond_atom_site_label_1
_geom_bond_atom_site_label_2
_geom_bond_site_symmetry_1
_geom_bond_site_symmetry_2
Cu1 N1 1_555 1_555
N1 N2 1_555 1_555
N2 C2 1_555 1_555
N3 C1 1_555 1_555
N4 C3 1_555 1_555
N5 C8 1_555 1_555
C1 N1 1_555 1_555
C2 N3 1_555 1_555
C3 H1 1_555 1_555
C4 C3 1_555 1_555
H2 C4 1_555 1_555
C5 C1 1_555 1_555
C6 C5 1_555 1_555
H3 C6 1_555 1_555
C7 N4 1_555 1_555
H4 C7 1_555 1_555
C8 H5 1_555 1_555
C9 C8 1_555 1_555
H6 C9 1_555 1_555
C10 C2 1_555 1_555
C11 C10 1_555 1_555
H7 C11 1_555 1_555
C12 N5 1_555 1_555
H8 C12 1_555 1_555
Cu1B N2 1_555 1_555
Cu1A N4 1_555 1_555
N2B Cu1 1_555 1_555
N4A Cu1 1_555 1_555
C4 C5 1_555 1_555
C6 C7 1_555 1_555
C9 C10 1_555 1_555
C11 C12 1_555 1_555

#END
