
#######################################################################
#
#                 Cambridge Crystallographic Data Centre
#                                CCDC 
#
#######################################################################
#
# If this CIF has been generated from an entry in the Cambridge 
# Structural Database, then it will include bibliographic, chemical, 
# crystal, experimental, refinement or atomic coordinate data resulting 
# from the CCDC's data processing and validation procedures.
#
#######################################################################

data_PEFGUD
_symmetry_cell_setting           monoclinic
_symmetry_space_group_name_H-M   'P 21/n'
_symmetry_Int_Tables_number      14
_space_group_name_Hall           '-P 2yn'
loop_
_symmetry_equiv_pos_site_id
_symmetry_equiv_pos_as_xyz
1 x,y,z
2 1/2-x,1/2+y,1/2-z
3 -x,-y,-z
4 1/2+x,1/2-y,1/2+z
_cell_length_a                   7.7431(10)
_cell_length_b                   11.0682(14)
_cell_length_c                   21.559(3)
_cell_angle_alpha                90
_cell_angle_beta                 96.910(2)
_cell_angle_gamma                90
_cell_volume                     1834.23
loop_
_atom_site_label
_atom_site_type_symbol
_atom_site_fract_x
_atom_site_fract_y
_atom_site_fract_z
Zn1 Zn 0.91541(6) 0.46930(4) 0.21880(2)
S1 S 0.49607(12) 0.55319(8) 0.19982(5)
O1 O 0.6841(3) 0.5770(2) 0.22013(13)
O2 O 1.0503(4) 0.6220(3) 0.19859(16)
O3 O 1.2178(4) 0.7629(3) 0.51498(14)
O4 O 0.4650(3) 0.4210(2) 0.20206(13)
O5 O 0.7740(4) 0.3182(3) 0.24377(17)
O6 O 0.3946(3) 0.6148(3) 0.24397(14)
O7 O 1.1336(4) 0.3536(3) 0.22337(16)
C1 C 1.2833(5) 0.9947(4) 0.57790(18)
H1 H 1.2550 0.9157 0.5907
O8 O 0.4469(4) 0.5972(3) 0.13660(14)
N1 N 0.9922(5) 0.5081(3) 0.31711(16)
N2 N 1.1825(5) 0.9464(3) 0.46673(16)
H2 H 1.1391 0.9809 0.4315
C2 C 1.0218(5) 0.6212(4) 0.33742(19)
H3 H 1.0017 0.6849 0.3079
N3 N 1.3499(4) 1.0742(3) 0.62144(15)
C3 C 1.2542(5) 1.0243(4) 0.51436(19)
C4 C 1.0801(6) 0.6513(4) 0.3989(2)
N4 N 1.1046(5) 0.7747(3) 0.41250(16)
H4 H 1.0736 0.8258 0.3819
C5 C 1.1720(5) 0.8233(4) 0.46866(19)
C6 C 1.2960(6) 1.1406(4) 0.4966(2)
H5 H 1.2794 1.1637 0.4539
C7 C 1.0211(7) 0.4180(4) 0.3581(2)
H6 H 1.0016 0.3371 0.3444
C8 C 1.3874(7) 1.1855(4) 0.6031(2)
H7 H 1.4337 1.2423 0.6338
C9 C 1.3613(7) 1.2208(4) 0.5415(2)
H8 H 1.3886 1.3009 0.5302
C10 C 1.0783(11) 0.4400(5) 0.4194(3)
H9 H 1.0961 0.3744 0.4478
C11 C 1.1105(10) 0.5567(5) 0.4405(3)
H10 H 1.1529 0.5715 0.4830
H16 H 0.683(7) 0.334(5) 0.236(2)
H17 H 1.033(7) 0.664(5) 0.168(3)
H18 H 1.146(8) 0.626(5) 0.216(3)
H19 H 0.789(7) 0.251(6) 0.256(3)
H21 H 1.128(7) 0.286(5) 0.237(2)
H22 H 1.226(9) 0.373(6) 0.220(3)
Zn1C Zn 1.41541(6) 1.03070(4) 0.71880(2)
N3C N 0.8499(4) 0.4258(3) 0.12144(15)
O9 O -0.0011(5) 0.7783(3) 0.10395(18)
C12 C -0.0156(18) 0.8828(10) 0.1337(5)
H11 H 0.1000 0.8926 0.1584
H12 H -0.0959 0.8632 0.1647
C13 C -0.0623(12) 1.0022(7) 0.1156(7)
H13 H 0.0240 1.0353 0.0905
H14 H -0.0662 1.0521 0.1530
H15 H -0.1770 1.0020 0.0909
H20 H -0.102(9) 0.764(7) 0.081(3)
loop_
_geom_bond_atom_site_label_1
_geom_bond_atom_site_label_2
_geom_bond_site_symmetry_1
_geom_bond_site_symmetry_2
Zn1 O1 1_555 1_555
S1 O1 1_555 1_555
O2 Zn1 1_555 1_555
O3 C5 1_555 1_555
O4 S1 1_555 1_555
O5 Zn1 1_555 1_555
O6 S1 1_555 1_555
O7 Zn1 1_555 1_555
C1 H1 1_555 1_555
O8 S1 1_555 1_555
N1 Zn1 1_555 1_555
N2 H2 1_555 1_555
C2 N1 1_555 1_555
H3 C2 1_555 1_555
N3 C1 1_555 1_555
C3 C1 1_555 1_555
C4 C2 1_555 1_555
N4 C4 1_555 1_555
H4 N4 1_555 1_555
C5 N2 1_555 1_555
C6 C3 1_555 1_555
H5 C6 1_555 1_555
C7 N1 1_555 1_555
H6 C7 1_555 1_555
C8 N3 1_555 1_555
H7 C8 1_555 1_555
C9 C6 1_555 1_555
H8 C9 1_555 1_555
C10 C7 1_555 1_555
H9 C10 1_555 1_555
C11 C4 1_555 1_555
H10 C11 1_555 1_555
O9 C12 1_555 1_555
C12 H11 1_555 1_555
H12 C12 1_555 1_555
C13 C12 1_555 1_555
H13 C13 1_555 1_555
H14 C13 1_555 1_555
H15 C13 1_555 1_555
H16 O5 1_555 1_555
H17 O2 1_555 1_555
H18 O2 1_555 1_555
H19 O5 1_555 1_555
H20 O9 1_555 1_555
H21 O7 1_555 1_555
H22 O7 1_555 1_555
Zn1C N3 1_555 1_555
N3C Zn1 1_555 1_555
N2 C3 1_555 1_555
N4 C5 1_555 1_555
C8 C9 1_555 1_555
C10 C11 1_555 1_555

#END
