
#######################################################################
#
#                 Cambridge Crystallographic Data Centre
#                                CCDC 
#
#######################################################################
#
# If this CIF has been generated from an entry in the Cambridge 
# Structural Database, then it will include bibliographic, chemical, 
# crystal, experimental, refinement or atomic coordinate data resulting 
# from the CCDC's data processing and validation procedures.
#
#######################################################################

data_PEFHAK
_symmetry_cell_setting           monoclinic
_symmetry_space_group_name_H-M   'P 2/c'
_symmetry_Int_Tables_number      13
_space_group_name_Hall           '-P 2yc'
loop_
_symmetry_equiv_pos_site_id
_symmetry_equiv_pos_as_xyz
1 x,y,z
2 -x,y,1/2-z
3 -x,-y,-z
4 x,-y,1/2+z
_cell_length_a                   8.4886(15)
_cell_length_b                   10.5837(18)
_cell_length_c                   20.733(4)
_cell_angle_alpha                90
_cell_angle_beta                 96.619(3)
_cell_angle_gamma                90
_cell_volume                     1850.25
loop_
_atom_site_label
_atom_site_type_symbol
_atom_site_fract_x
_atom_site_fract_y
_atom_site_fract_z
Zn1 Zn 0.0000 0.95569(4) 0.2500
Zn2 Zn -0.5000 0.5000 0.5000
S1 S -0.70672(7) 0.67777(6) 0.38501(3)
O1 O -0.8253(2) 0.68260(18) 0.43233(9)
O2 O -0.2525(2) 0.53060(19) 0.49307(10)
O3 O 0.2507(2) 0.93713(19) 0.26040(10)
O4 O -0.6528(2) 0.80871(17) 0.37335(8)
O5 O 0.0000 0.7658(3) 0.2500
N1 N -0.5047(2) 0.66430(19) 0.55559(10)
O6 O -0.7798(2) 0.62396(18) 0.32338(9)
N2 N 0.0060(2) 1.0715(2) 0.32908(10)
O7 O -0.2525(3) 0.89549(18) 0.45285(10)
N3 N -0.1703(2) 1.0936(2) 0.48369(10)
H1 H -0.1718 1.1514 0.5141
O8 O -0.5692(2) 0.60148(17) 0.41108(8)
C1 C 0.0808(3) 1.2666(2) 0.38102(12)
H2 H 0.1357 1.3448 0.3808
C2 C 0.0835(3) 1.1822(2) 0.32993(12)
H3 H 0.1414 1.2032 0.2948
C3 C -0.0845(3) 1.1209(2) 0.43152(12)
C4 C -0.4826(3) 0.8886(2) 0.62452(12)
H4 H -0.4777 0.9658 0.6480
C5 C -0.4330(3) 0.7652(2) 0.53239(12)
H5 H -0.3930 0.7586 0.4916
N4 N -0.3321(2) 0.98238(19) 0.54502(10)
H6 H -0.3306 1.0521 0.5682
C6 C -0.2520(3) 0.9834(2) 0.49082(12)
C7 C -0.0772(3) 1.0408(2) 0.37848(12)
H7 H -0.1323 0.9626 0.3771
C8 C -0.4157(3) 0.8790(2) 0.56607(11)
C9 C -0.5561(3) 0.7838(3) 0.64741(12)
H8 H -0.6013 0.7885 0.6872
C10 C -0.5639(3) 0.6726(2) 0.61249(12)
H9 H -0.6121 0.6005 0.6292
C11 C -0.0026(3) 1.2352(2) 0.43215(12)
H10 H -0.0042 1.2916 0.4677
H11 H 0.070(4) 0.724(3) 0.2667(15)
H12 H -0.214(4) 0.467(4) 0.5083(17)
H13 H 0.277(4) 0.893(3) 0.2348(17)
H14 H 0.277(4) 0.903(3) 0.2966(17)
H15 H -0.216(5) 0.540(4) 0.460(2)
Zn2C Zn 0.5000 0.5000 0.0000
S1B S -0.29328(7) 0.32223(6) 0.61499(3)
O1B O -0.1747(2) 0.31740(18) 0.56767(9)
O2B O -0.7475(2) 0.46940(19) 0.50693(10)
O3A O -0.2507(2) 0.93713(19) 0.23960(10)
O4B O -0.3472(2) 0.19129(17) 0.62665(8)
N1A N 0.5047(2) 0.66430(19) -0.05559(10)
N1B N -0.4953(2) 0.33570(19) 0.44441(10)
O6B O -0.2202(2) 0.37604(18) 0.67662(9)
N2A N -0.0060(2) 1.0715(2) 0.17092(10)
O7A O 0.2525(3) 0.89549(18) 0.04715(10)
N3A N 0.1703(2) 1.0936(2) 0.01631(10)
H1A H 0.1718 1.1514 -0.0141
O8B O -0.4308(2) 0.39852(17) 0.58892(8)
C1A C -0.0808(3) 1.2666(2) 0.11898(12)
H2A H -0.1357 1.3448 0.1192
C2A C -0.0835(3) 1.1822(2) 0.17007(12)
H3A H -0.1414 1.2032 0.2052
C3A C 0.0845(3) 1.1209(2) 0.06848(12)
C4A C 0.4826(3) 0.8886(2) -0.12452(12)
H4A H 0.4777 0.9658 -0.1480
C5A C 0.4330(3) 0.7652(2) -0.03239(12)
H5A H 0.3930 0.7586 0.0084
N4A N 0.3321(2) 0.98238(19) -0.04502(10)
H6A H 0.3306 1.0521 -0.0682
C6A C 0.2520(3) 0.9834(2) 0.00918(12)
C7A C 0.0772(3) 1.0408(2) 0.12152(12)
H7A H 0.1323 0.9626 0.1229
C8A C 0.4157(3) 0.8790(2) -0.06607(11)
C9A C 0.5561(3) 0.7838(3) -0.14741(12)
H8A H 0.6013 0.7885 -0.1872
C10A C 0.5639(3) 0.6726(2) -0.11249(12)
H9A H 0.6121 0.6005 -0.1292
C11A C 0.0026(3) 1.2352(2) 0.06785(12)
H10A H 0.0042 1.2916 0.0323
H11A H -0.070(4) 0.724(3) 0.2333(15)
H12B H -0.786(4) 0.533(4) 0.4917(17)
H13A H -0.277(4) 0.893(3) 0.2652(17)
H14A H -0.277(4) 0.903(3) 0.2034(17)
H15B H -0.784(5) 0.460(4) 0.540(2)
O9 O 0.1300(3) 0.5857(2) 0.11936(11)
H17 H 0.046(5) 0.612(4) 0.1091(19)
H20 H 0.184(7) 0.644(5) 0.133(3)
O10 O 0.3429(3) 0.7670(3) 0.17513(15)
H16 H 0.414(6) 0.793(5) 0.143(2)
H21 H 0.388(5) 0.735(4) 0.197(2)
O11 O 0.1530(5) 0.4265(3) 0.23017(16)
H18 H 0.210(5) 0.459(4) 0.252(2)
H19 H 0.136(11) 0.466(9) 0.183(5)
O12 O 0.5000 0.5741(5) 0.2500
loop_
_geom_bond_atom_site_label_1
_geom_bond_atom_site_label_2
_geom_bond_site_symmetry_1
_geom_bond_site_symmetry_2
Zn1 O3 1_555 1_555
Zn2 O2 1_555 1_555
S1 O1 1_555 1_555
O2 H12 1_555 1_555
O3 H13 1_555 1_555
O4 S1 1_555 1_555
O5 Zn1 1_555 1_555
N1 Zn2 1_555 1_555
O6 S1 1_555 1_555
N2 Zn1 1_555 1_555
O7 C6 1_555 1_555
N3 H1 1_555 1_555
O8 Zn2 1_555 1_555
C1 H2 1_555 1_555
C2 N2 1_555 1_555
H3 C2 1_555 1_555
C3 N3 1_555 1_555
C4 H4 1_555 1_555
C5 N1 1_555 1_555
H5 C5 1_555 1_555
N4 H6 1_555 1_555
C6 N3 1_555 1_555
C7 N2 1_555 1_555
H7 C7 1_555 1_555
C8 C4 1_555 1_555
C9 C4 1_555 1_555
H8 C9 1_555 1_555
C10 N1 1_555 1_555
H9 C10 1_555 1_555
C11 C1 1_555 1_555
H10 C11 1_555 1_555
O9 H17 1_555 1_555
O10 H16 1_555 1_555
O11 H18 1_555 1_555
H11 O5 1_555 1_555
H14 O3 1_555 1_555
H15 O2 1_555 1_555
H19 O11 1_555 1_555
H20 O9 1_555 1_555
H21 O10 1_555 1_555
Zn2C N1A 1_555 1_555
S1B O1B 1_555 1_555
O2B Zn2 1_555 1_555
O3A Zn1 1_555 1_555
O4B S1B 1_555 1_555
N1A C5A 1_555 1_555
N1B Zn2 1_555 1_555
O6B S1B 1_555 1_555
N2A Zn1 1_555 1_555
O7A C6A 1_555 1_555
N3A H1A 1_555 1_555
O8B Zn2 1_555 1_555
C1A H2A 1_555 1_555
C2A N2A 1_555 1_555
H3A C2A 1_555 1_555
C3A N3A 1_555 1_555
C4A H4A 1_555 1_555
C5A H5A 1_555 1_555
N4A H6A 1_555 1_555
C6A N3A 1_555 1_555
C7A N2A 1_555 1_555
H7A C7A 1_555 1_555
C8A C4A 1_555 1_555
C9A C4A 1_555 1_555
H8A C9A 1_555 1_555
C10A N1A 1_555 1_555
H9A C10A 1_555 1_555
C11A C1A 1_555 1_555
H10A C11A 1_555 1_555
H11A O5 1_555 1_555
H12B O2B 1_555 1_555
H13A O3A 1_555 1_555
H14A O3A 1_555 1_555
H15B O2B 1_555 1_555
S1 O8 1_555 1_555
C1 C2 1_555 1_555
C3 C7 1_555 1_555
C3 C11 1_555 1_555
C5 C8 1_555 1_555
N4 C6 1_555 1_555
N4 C8 1_555 1_555
C9 C10 1_555 1_555
S1B O8B 1_555 1_555
C1A C2A 1_555 1_555
C3A C7A 1_555 1_555
C3A C11A 1_555 1_555
C5A C8A 1_555 1_555
N4A C6A 1_555 1_555
N4A C8A 1_555 1_555
C9A C10A 1_555 1_555

#END
