
#######################################################################
#
#                 Cambridge Crystallographic Data Centre
#                                CCDC 
#
#######################################################################
#
# If this CIF has been generated from an entry in the Cambridge 
# Structural Database, then it will include bibliographic, chemical, 
# crystal, experimental, refinement or atomic coordinate data resulting 
# from the CCDC's data processing and validation procedures.
#
#######################################################################

data_PEFHUE
_symmetry_cell_setting           monoclinic
_symmetry_space_group_name_H-M   'P 21'
_symmetry_Int_Tables_number      4
_space_group_name_Hall           'P 2yb'
loop_
_symmetry_equiv_pos_site_id
_symmetry_equiv_pos_as_xyz
1 x,y,z
2 -x,1/2+y,-z
_cell_length_a                   3.7330(6)
_cell_length_b                   12.125(2)
_cell_length_c                   16.889(3)
_cell_angle_alpha                90
_cell_angle_beta                 91.896(3)
_cell_angle_gamma                90
_cell_volume                     764.022
loop_
_atom_site_label
_atom_site_type_symbol
_atom_site_fract_x
_atom_site_fract_y
_atom_site_fract_z
Ag1 Ag -0.10620(8) -0.43589(4) 0.267785(16)
O1 O -0.3282(9) -0.5616(3) 0.36113(18)
N1 N -0.9118(9) -0.3763(3) -0.2810(2)
H1 H -1.0500 -0.3230 -0.2999
C1 C -0.8104(11) -0.4573(3) -0.3350(2)
C2 C -0.8732(10) -0.4335(6) -0.4158(2)
H2 H -0.9771 -0.3647 -0.4308
N2 N -0.5416(12) -0.6253(3) 0.3270(2)
O2 O -0.6646(10) -0.6015(3) 0.25791(18)
O3 O -0.6332(11) -0.7116(3) 0.35935(19)
C3 C -0.5650(12) -0.6315(4) -0.3738(3)
C4 C -0.6538(11) -0.5572(3) -0.3136(2)
H3 H -0.6075 -0.5750 -0.2595
O4 O -0.6574(8) -0.4430(4) -0.16482(15)
N3 N -0.3340(12) -0.3694(3) 0.1539(2)
N4 N -0.9206(10) -0.2726(3) -0.1693(2)
H4 H -1.0460 -0.2281 -0.2007
C5 C -0.6302(12) -0.6080(4) -0.4538(3)
H5 H -0.5689 -0.6593 -0.4937
C6 C -0.8184(12) -0.3709(3) -0.2013(2)
C7 C -0.8922(12) -0.0826(4) 0.0003(3)
H6 H -0.9645 -0.0091 0.0107
C8 C -0.6807(11) -0.2977(3) -0.0326(2)
H7 H -0.6036 -0.3708 -0.0431
C9 C -0.9499(11) -0.1269(4) -0.0747(2)
H8 H -1.0610 -0.0830 -0.1151
C10 C -0.8476(11) -0.2350(3) -0.0922(2)
C11 C -0.7865(13) -0.5081(4) -0.4735(3)
H9 H -0.8350 -0.4906 -0.5276
C12 C -0.6279(12) -0.2521(4) 0.0428(2)
C13 C -0.7295(12) -0.1451(4) 0.0604(2)
H10 H -0.6892 -0.1154 0.1120
C14 C -0.3988(13) -0.7335(4) -0.3509(3)
N5 N -0.2641(11) -0.8151(3) -0.3322(2)
C15 C -0.4619(12) -0.3187(4) 0.1047(2)
Ag1_2 Ag -1.10620(8) -0.43589(4) 0.267785(16)
Ag1A Ag 0.10620(8) -0.93589(4) -0.267785(16)
O2_2 O 0.3354(10) -0.6015(3) 0.25791(18)
N5A N 0.2641(11) -0.3151(3) 0.3322(2)
loop_
_geom_bond_atom_site_label_1
_geom_bond_atom_site_label_2
_geom_bond_site_symmetry_1
_geom_bond_site_symmetry_2
Ag1 O1 1_555 1_555
O1 N2 1_555 1_555
N1 H1 1_555 1_555
C1 N1 1_555 1_555
C2 C1 1_555 1_555
H2 C2 1_555 1_555
N2 O2 1_555 1_555
O2 Ag1_2 1_555 1_555
O3 N2 1_555 1_555
C3 C4 1_555 1_555
C4 C1 1_555 1_555
H3 C4 1_555 1_555
O4 C6 1_555 1_555
N3 Ag1 1_555 1_555
N4 H4 1_555 1_555
C5 C3 1_555 1_555
H5 C5 1_555 1_555
C6 N1 1_555 1_555
C7 H6 1_555 1_555
C8 H7 1_555 1_555
C9 C7 1_555 1_555
H8 C9 1_555 1_555
C10 N4 1_555 1_555
C11 C2 1_555 1_555
H9 C11 1_555 1_555
C12 C8 1_555 1_555
C13 C7 1_555 1_555
H10 C13 1_555 1_555
C14 C3 1_555 1_555
N5 C14 1_555 1_555
C15 N3 1_555 1_555
Ag1A N5 1_555 1_555
O2_2 Ag1 1_555 1_555
N5A Ag1 1_555 1_555
N4 C6 1_555 1_555
C5 C11 1_555 1_555
C8 C10 1_555 1_555
C9 C10 1_555 1_555
C12 C13 1_555 1_555
C12 C15 1_555 1_555

#END
