
#######################################################################
#
#                 Cambridge Crystallographic Data Centre
#                                CCDC 
#
#######################################################################
#
# If this CIF has been generated from an entry in the Cambridge 
# Structural Database, then it will include bibliographic, chemical, 
# crystal, experimental, refinement or atomic coordinate data resulting 
# from the CCDC's data processing and validation procedures.
#
#######################################################################

data_PEFHIS
_symmetry_cell_setting           monoclinic
_symmetry_space_group_name_H-M   'P 21/c'
_symmetry_Int_Tables_number      14
_space_group_name_Hall           '-P 2ybc'
loop_
_symmetry_equiv_pos_site_id
_symmetry_equiv_pos_as_xyz
1 x,y,z
2 -x,1/2+y,1/2-z
3 -x,-y,-z
4 x,1/2-y,1/2+z
_cell_length_a                   9.1241(9)
_cell_length_b                   18.1265(19)
_cell_length_c                   19.586(2)
_cell_angle_alpha                90
_cell_angle_beta                 94.712(2)
_cell_angle_gamma                90
_cell_volume                     3228.34
loop_
_atom_site_label
_atom_site_type_symbol
_atom_site_fract_x
_atom_site_fract_y
_atom_site_fract_z
Cu1 Cu 0.46847(3) 0.750418(14) 0.252543(13)
O1 O 0.3943(2) 0.62010(9) 0.23644(9)
N1 N 0.3904(2) 0.78099(10) 0.15594(9)
N2 N 0.6666(2) 0.72821(10) 0.21746(9)
N3 N 0.7264(2) 0.27723(10) 0.21145(9)
O2 O 0.71402(16) 0.50111(8) 0.20693(9)
N4 N 0.4489(2) 1.23007(11) 0.14926(10)
O3 O 0.4022(2) 1.00625(9) 0.14150(8)
C1 C 0.8493(2) 0.64307(12) 0.18468(11)
N5 N 0.3463(2) 0.94292(10) 0.04165(9)
H1 H 0.3336 0.9482 -0.0031
C2 C 0.3410(2) 0.87128(11) 0.06765(11)
N6 N 0.92877(19) 0.44729(10) 0.17876(10)
H2 H 1.0201 0.4571 0.1704
C3 C 0.7177(2) 0.65859(12) 0.21302(11)
H3 H 0.6622 0.6191 0.2297
C4 C 0.3719(2) 1.14125(12) 0.06310(11)
C5 C 0.8879(2) 0.37347(11) 0.17989(11)
N7 N 0.90708(19) 0.57238(10) 0.17817(10)
H4 H 0.9972 0.5697 0.1654
C6 C 0.7701(2) 0.34770(11) 0.21422(11)
H5 H 0.7188 0.3815 0.2406
C7 C 0.8033(3) 0.22817(13) 0.17767(13)
H6 H 0.7719 0.1782 0.1754
C8 C 0.9698(3) 0.32165(13) 0.14643(13)
H7 H 1.0536 0.3365 0.1242
N8 N 0.3502(2) 1.06882(10) 0.04050(9)
H8 H 0.3215 1.0625 -0.0031
C9 C 0.8387(2) 0.50643(11) 0.18953(11)
C10 C 0.3412(4) 1.19807(14) 0.01637(14)
H9 H 0.3040 1.1876 -0.0293
C11 C 0.3698(2) 1.00609(11) 0.08021(11)
C12 C 0.8783(3) 0.77291(14) 0.16753(15)
H10 H 0.9330 0.8136 0.1525
C13 C 0.4249(2) 1.15970(12) 0.12958(11)
H11 H 0.4447 1.1214 0.1621
C14 C 0.3996(2) 0.85105(12) 0.13290(11)
H12 H 0.4472 0.8873 0.1619
C15 C 0.9307(3) 0.70230(13) 0.16202(13)
H13 H 1.0216 0.6938 0.1429
C16 C 0.7454(3) 0.78443(13) 0.19517(13)
H14 H 0.7091 0.8333 0.1984
C17 C 0.2748(3) 0.81701(13) 0.02482(13)
H15 H 0.2357 0.8290 -0.0203
C18 C 0.3250(3) 0.72978(13) 0.11475(13)
H16 H 0.3180 0.6807 0.1312
C19 C 0.9272(3) 0.24849(14) 0.14609(15)
H17 H 0.9827 0.2124 0.1243
C20 C 0.2673(4) 0.74590(14) 0.04905(14)
H18 H 0.2227 0.7082 0.0208
C21 C 0.4213(4) 1.28443(15) 0.10408(15)
H19 H 0.4400 1.3340 0.1179
C24 C 0.3659(5) 1.26998(16) 0.03747(17)
H20 H 0.3448 1.3095 0.0063
H21 H 0.409(4) 0.5968(19) 0.2011(18)
H22 H 0.347(4) 0.5919(19) 0.2548(17)
Cu1A Cu 0.53153(3) 0.250418(14) 0.247457(13)
Cu1A_2 Cu 0.53153(3) 1.250418(14) 0.247457(13)
N3A N 0.2736(2) 0.77723(10) 0.28855(9)
N4A N 0.5511(2) 0.73007(11) 0.35074(10)
S1 S 0.26023(5) 0.51733(3) 0.09159(3)
O4 O 0.15317(17) 0.57585(9) 0.09550(9)
F1 F 0.36354(19) 0.45051(10) -0.01201(9)
F2 F 0.3099(2) 0.56399(11) -0.03035(9)
F3 F 0.1380(2) 0.48308(15) -0.02826(10)
C22 C 0.2686(3) 0.50299(16) 0.00001(13)
O9 O 0.40822(17) 0.53744(10) 0.11596(9)
O10 O 0.21168(19) 0.44697(10) 0.11609(10)
S2 S 0.20394(6) 0.50137(3) 0.35963(3)
O5 O 0.2156(2) 0.50240(10) 0.28689(8)
F4 F -0.05247(18) 0.56579(10) 0.33759(9)
O6 O 0.2473(2) 0.43347(9) 0.39407(9)
F5 F -0.06277(17) 0.44737(10) 0.33971(9)
C23 C 0.0061(3) 0.50596(14) 0.36769(12)
O7 O 0.2587(2) 0.56704(9) 0.39513(9)
F6 F -0.0196(2) 0.50807(13) 0.43328(9)
O8 O 0.4541(2) 0.40217(11) 0.22390(10)
H23 H 0.378(5) 0.414(3) 0.213(2)
H24 H 0.503(4) 0.432(2) 0.2139(18)
loop_
_geom_bond_atom_site_label_1
_geom_bond_atom_site_label_2
_geom_bond_site_symmetry_1
_geom_bond_site_symmetry_2
Cu1 O1 1_555 1_555
O1 H21 1_555 1_555
N1 Cu1 1_555 1_555
N2 Cu1 1_555 1_555
N3 C6 1_555 1_555
O2 C9 1_555 1_555
N4 C13 1_555 1_555
O3 C11 1_555 1_555
C1 C3 1_555 1_555
N5 H1 1_555 1_555
C2 N5 1_555 1_555
N6 H2 1_555 1_555
C3 N2 1_555 1_555
H3 C3 1_555 1_555
C4 N8 1_555 1_555
C5 N6 1_555 1_555
N7 C1 1_555 1_555
H4 N7 1_555 1_555
C6 C5 1_555 1_555
H5 C6 1_555 1_555
C7 N3 1_555 1_555
H6 C7 1_555 1_555
C8 C5 1_555 1_555
H7 C8 1_555 1_555
N8 H8 1_555 1_555
C9 N6 1_555 1_555
C10 C4 1_555 1_555
H9 C10 1_555 1_555
C11 N5 1_555 1_555
C12 H10 1_555 1_555
C13 C4 1_555 1_555
H11 C13 1_555 1_555
C14 N1 1_555 1_555
H12 C14 1_555 1_555
C15 C1 1_555 1_555
H13 C15 1_555 1_555
C16 N2 1_555 1_555
H14 C16 1_555 1_555
C17 C2 1_555 1_555
H15 C17 1_555 1_555
C18 N1 1_555 1_555
H16 C18 1_555 1_555
C19 C7 1_555 1_555
H17 C19 1_555 1_555
C20 C17 1_555 1_555
H18 C20 1_555 1_555
C21 N4 1_555 1_555
H19 C21 1_555 1_555
S1 O4 1_555 1_555
F1 C22 1_555 1_555
F2 C22 1_555 1_555
F3 C22 1_555 1_555
C22 S1 1_555 1_555
S2 O5 1_555 1_555
F4 C23 1_555 1_555
O6 S2 1_555 1_555
F5 C23 1_555 1_555
C23 S2 1_555 1_555
O7 S2 1_555 1_555
F6 C23 1_555 1_555
O8 H23 1_555 1_555
O9 S1 1_555 1_555
O10 S1 1_555 1_555
C24 C10 1_555 1_555
H20 C24 1_555 1_555
H22 O1 1_555 1_555
H24 O8 1_555 1_555
Cu1A N3 1_555 1_555
Cu1A_2 N4 1_555 1_555
N3A Cu1 1_555 1_555
N4A Cu1 1_555 1_555
C2 C14 1_555 1_555
N7 C9 1_555 1_555
C8 C19 1_555 1_555
N8 C11 1_555 1_555
C12 C15 1_555 1_555
C12 C16 1_555 1_555
C18 C20 1_555 1_555
C21 C24 1_555 1_555

#END
