
#######################################################################
#
#                 Cambridge Crystallographic Data Centre
#                                CCDC 
#
#######################################################################
#
# If this CIF has been generated from an entry in the Cambridge 
# Structural Database, then it will include bibliographic, chemical, 
# crystal, experimental, refinement or atomic coordinate data resulting 
# from the CCDC's data processing and validation procedures.
#
#######################################################################

data_PEFHIS01
_symmetry_cell_setting           monoclinic
_symmetry_space_group_name_H-M   'P 21/c'
_symmetry_Int_Tables_number      14
_space_group_name_Hall           '-P 2ybc'
loop_
_symmetry_equiv_pos_site_id
_symmetry_equiv_pos_as_xyz
1 x,y,z
2 -x,1/2+y,1/2-z
3 -x,-y,-z
4 x,1/2-y,1/2+z
_cell_length_a                   9.0522(6)
_cell_length_b                   18.0988(12)
_cell_length_c                   19.5538(13)
_cell_angle_alpha                90
_cell_angle_beta                 95.2860(10)
_cell_angle_gamma                90
_cell_volume                     3189.95
loop_
_atom_site_label
_atom_site_type_symbol
_atom_site_fract_x
_atom_site_fract_y
_atom_site_fract_z
Cu1 Cu -0.53287(3) 0.247870(16) 0.253790(15)
N1 N -0.3329(2) 0.27009(11) 0.21971(10)
C1 C -0.2544(3) 0.21343(14) 0.19768(13)
H1 H -0.2904 0.1656 0.2012
C2 C -0.1211(3) 0.22459(15) 0.16984(14)
H2 H -0.0676 0.1845 0.1555
C3 C -0.0682(3) 0.29541(14) 0.16358(13)
H3 H 0.0209 0.3036 0.1446
C4 C -0.1496(3) 0.35470(13) 0.18596(12)
C5 C -0.2816(3) 0.33951(13) 0.21454(12)
H4 H -0.3359 0.3785 0.2305
N2 N -0.0919(2) 0.42554(11) 0.17861(10)
H5 H -0.0037 0.4280 0.1657
C6 C -0.1601(3) 0.49166(13) 0.18965(12)
O1 O -0.28507(18) 0.49748(9) 0.20729(9)
N3 N -0.0683(2) 0.55078(11) 0.17867(10)
H6 H 0.0213 0.5408 0.1705
C7 C -0.1085(3) 0.62488(13) 0.17978(12)
C8 C -0.0280(3) 0.67625(14) 0.14527(13)
H7 H 0.0530 0.6613 0.1227
C9 C -0.0698(3) 0.74937(14) 0.14494(14)
H8 H -0.0150 0.7845 0.1235
C10 C -0.1941(3) 0.77042(14) 0.17672(13)
H9 H -0.2253 0.8194 0.1740
N4 N -0.2700(2) 0.72160(11) 0.21130(10)
C11 C -0.2259(3) 0.65069(13) 0.21478(12)
H10 H -0.2751 0.6178 0.2413
N5 N -0.4510(2) 0.26799(11) 0.35238(11)
C12 C -0.4267(3) 0.21384(15) 0.39879(15)
H11 H -0.4459 0.1652 0.3856
C13 C -0.3736(4) 0.22890(16) 0.46588(16)
H12 H -0.3570 0.1905 0.4972
C14 C -0.3455(3) 0.30050(15) 0.48631(14)
H13 H -0.3089 0.3109 0.5313
C15 C -0.3725(3) 0.35721(13) 0.43876(12)
C16 C -0.4241(3) 0.33821(13) 0.37175(12)
H14 H -0.4405 0.3755 0.3393
N6 N -0.3495(2) 0.43002(11) 0.46082(10)
H15 H -0.3216 0.4367 0.5036
C17 C -0.3673(3) 0.49219(13) 0.42026(13)
O2 O -0.3985(2) 0.49180(9) 0.35869(9)
N7 N -0.3461(2) 0.55600(11) 0.45891(10)
H16 H -0.3356 0.5513 0.5029
C18 C -0.3403(3) 0.62740(13) 0.43229(12)
C19 C -0.2718(3) 0.68164(14) 0.47504(13)
H17 H -0.2320 0.6699 0.5193
C20 C -0.2643(3) 0.75278(15) 0.45060(14)
H18 H -0.2205 0.7898 0.4785
C21 C -0.3218(3) 0.76873(14) 0.38460(13)
H19 H -0.3141 0.8167 0.3682
N8 N -0.3888(2) 0.71717(11) 0.34324(10)
C22 C -0.3990(3) 0.64770(13) 0.36689(12)
H20 H -0.4469 0.6122 0.3385
O9 O -0.6065(2) 0.37748(10) 0.23726(10)
H21 H -0.589(3) 0.3990(16) 0.2046(15)
H22 H -0.652(4) 0.4072(19) 0.2571(17)
Cu1A Cu -0.46713(3) 0.747870(16) 0.246210(15)
N4A N -0.7300(2) 0.22160(11) 0.28870(10)
N8A N -0.6112(2) 0.21717(11) 0.15676(10)
F1 F 0.06411(17) 0.44898(9) 0.66117(8)
F2 F 0.01706(19) 0.50909(10) 0.56670(8)
F3 F 0.05281(17) 0.56790(9) 0.66226(8)
C23 C -0.0064(3) 0.50730(14) 0.63274(13)
S1 S -0.20572(7) 0.50261(3) 0.64175(3)
O3 O -0.2154(2) 0.50446(10) 0.71491(9)
O4 O -0.2626(2) 0.56815(9) 0.60565(9)
O5 O -0.2494(2) 0.43401(9) 0.60809(9)
F4 F 0.13726(19) 0.51719(11) -0.02870(9)
F5 F 0.36626(18) 0.54851(9) -0.01097(8)
F6 F 0.30820(19) 0.43481(9) -0.03159(8)
C24 C 0.2690(3) 0.49591(15) -0.00037(14)
S2 S 0.26185(7) 0.47994(3) 0.09147(3)
O6 O 0.2151(2) 0.55019(10) 0.11691(9)
O7 O 0.15173(19) 0.42218(10) 0.09408(9)
O8 O 0.41090(19) 0.45853(10) 0.11576(9)
O10 O -0.5424(3) 0.59715(11) 0.22179(11)
H23 H -0.620(4) 0.584(2) 0.2112(19)
H24 H -0.491(4) 0.5672(19) 0.2165(17)
loop_
_geom_bond_atom_site_label_1
_geom_bond_atom_site_label_2
_geom_bond_site_symmetry_1
_geom_bond_site_symmetry_2
Cu1 N1 1_555 1_555
N1 C1 1_555 1_555
C1 H1 1_555 1_555
C2 C1 1_555 1_555
H2 C2 1_555 1_555
C3 C2 1_555 1_555
H3 C3 1_555 1_555
C4 C3 1_555 1_555
C5 N1 1_555 1_555
H4 C5 1_555 1_555
N2 C4 1_555 1_555
H5 N2 1_555 1_555
C6 N2 1_555 1_555
O1 C6 1_555 1_555
N3 C6 1_555 1_555
H6 N3 1_555 1_555
C7 N3 1_555 1_555
C8 C7 1_555 1_555
H7 C8 1_555 1_555
C9 C8 1_555 1_555
H8 C9 1_555 1_555
C10 C9 1_555 1_555
H9 C10 1_555 1_555
N4 C10 1_555 1_555
C11 C7 1_555 1_555
H10 C11 1_555 1_555
N5 Cu1 1_555 1_555
C12 N5 1_555 1_555
H11 C12 1_555 1_555
C13 C12 1_555 1_555
H12 C13 1_555 1_555
C14 C13 1_555 1_555
H13 C14 1_555 1_555
C15 C14 1_555 1_555
C16 N5 1_555 1_555
H14 C16 1_555 1_555
N6 C15 1_555 1_555
H15 N6 1_555 1_555
C17 N6 1_555 1_555
O2 C17 1_555 1_555
N7 C17 1_555 1_555
H16 N7 1_555 1_555
C18 N7 1_555 1_555
C19 C18 1_555 1_555
H17 C19 1_555 1_555
C20 C19 1_555 1_555
H18 C20 1_555 1_555
C21 C20 1_555 1_555
H19 C21 1_555 1_555
N8 C21 1_555 1_555
C22 C18 1_555 1_555
H20 C22 1_555 1_555
F1 C23 1_555 1_555
F2 C23 1_555 1_555
F3 C23 1_555 1_555
C23 S1 1_555 1_555
S1 O3 1_555 1_555
O4 S1 1_555 1_555
O5 S1 1_555 1_555
F4 C24 1_555 1_555
F5 C24 1_555 1_555
F6 C24 1_555 1_555
C24 S2 1_555 1_555
S2 O6 1_555 1_555
O7 S2 1_555 1_555
O8 S2 1_555 1_555
O9 Cu1 1_555 1_555
O10 H23 1_555 1_555
H21 O9 1_555 1_555
H22 O9 1_555 1_555
H24 O10 1_555 1_555
Cu1A N4 1_555 1_555
N4A Cu1 1_555 1_555
N8A Cu1 1_555 1_555
C4 C5 1_555 1_555
N4 C11 1_555 1_555
C15 C16 1_555 1_555
N8 C22 1_555 1_555
N8 Cu1A 1_555 1_555

#END
