
#######################################################################
#
#                 Cambridge Crystallographic Data Centre
#                                CCDC 
#
#######################################################################
#
# If this CIF has been generated from an entry in the Cambridge 
# Structural Database, then it will include bibliographic, chemical, 
# crystal, experimental, refinement or atomic coordinate data resulting 
# from the CCDC's data processing and validation procedures.
#
#######################################################################

data_PEFHEO
_symmetry_cell_setting           monoclinic
_symmetry_space_group_name_H-M   'P 21/c'
_symmetry_Int_Tables_number      14
_space_group_name_Hall           '-P 2ybc'
loop_
_symmetry_equiv_pos_site_id
_symmetry_equiv_pos_as_xyz
1 x,y,z
2 -x,1/2+y,1/2-z
3 -x,-y,-z
4 x,1/2-y,1/2+z
_cell_length_a                   6.7220(9)
_cell_length_b                   26.649(4)
_cell_length_c                   17.515(2)
_cell_angle_alpha                90
_cell_angle_beta                 92.445(3)
_cell_angle_gamma                90
_cell_volume                     3134.69
loop_
_atom_site_label
_atom_site_type_symbol
_atom_site_fract_x
_atom_site_fract_y
_atom_site_fract_z
O5 O 0.8115(7) 1.00775(14) -0.3252(2)
O6 O 0.8928(6) 1.07614(13) -0.2650(2)
N10 N 0.8465(7) 1.05359(17) -0.3260(2)
O7 O 0.8428(9) 1.07691(16) -0.3870(2)
Cu1 Cu 0.60822(7) 0.823774(17) 0.02279(3)
N1 N 0.9827(5) 0.67811(13) -0.1323(2)
H1 H 1.0035 0.6456 -0.1362
N2 N 0.6371(5) 0.75321(12) -0.01884(18)
N3 N 0.1017(5) 0.80193(13) 0.04059(18)
N4 N 0.6115(5) 0.85342(12) -0.08447(18)
N5 N 1.5754(4) 0.70144(12) -0.36872(18)
N6 N 1.4218(4) 1.10491(12) -0.06286(16)
O1 O 1.1187(4) 0.75419(10) -0.16150(16)
O2 O 0.2467(4) 0.81567(11) 0.00314(15)
O3 O -0.0424(4) 0.83174(10) 0.04666(17)
N7 N 1.2290(5) 0.68171(13) -0.21606(18)
H2 H 1.2056 0.6494 -0.2210
O4 O 0.1010(4) 0.76012(11) 0.07151(18)
C1 C 1.4255(5) 0.68419(14) -0.3271(2)
H3 H 1.3435 0.6581 -0.3478
C2 C 0.7572(6) 0.91061(15) -0.1721(2)
C3 C 1.6950(6) 0.73749(15) -0.3387(2)
H4 H 1.8004 0.7501 -0.3676
C4 C 0.7943(6) 0.74121(15) -0.0616(2)
H5 H 0.8873 0.7666 -0.0734
C5 C 1.2861(6) 1.03271(15) -0.1264(2)
N8 N 0.8982(5) 0.94723(12) -0.19061(18)
H6 H 0.8883 0.9600 -0.2369
C6 C 0.7617(6) 0.88427(14) -0.1028(2)
H7 H 0.8728 0.8882 -0.0680
C7 C 1.2732(6) 1.08167(14) -0.1025(2)
H8 H 1.1544 1.0998 -0.1146
C8 C 1.5118(6) 0.73924(16) -0.2242(2)
H9 H 1.4911 0.7520 -0.1746
C9 C 1.5913(6) 1.07954(15) -0.0461(2)
H10 H 1.6963 1.0956 -0.0175
N9 N 1.1243(5) 1.00973(12) -0.16748(19)
H11 H 1.0718 1.0243 -0.2087
C10 C 1.4630(6) 1.00670(16) -0.1100(2)
H12 H 1.4781 0.9730 -0.1263
C11 C 1.1105(6) 0.70895(16) -0.1697(2)
C12 C 0.4584(6) 0.84669(16) -0.1345(2)
H13 H 0.3520 0.8254 -0.1211
C13 C 1.3865(6) 0.70258(15) -0.2565(2)
C14 C 0.5996(6) 0.90159(16) -0.2243(2)
H14 H 0.5964 0.9176 -0.2729
C15 C 0.4498(6) 0.86990(17) -0.2060(2)
H15 H 0.3414 0.8637 -0.2413
C16 C 0.5063(6) 0.71740(16) -0.0031(2)
H16 H 0.3963 0.7259 0.0267
C17 C 1.6154(6) 1.03078(15) -0.0697(2)
H17 H 1.7371 1.0137 -0.0583
C18 C 0.8227(6) 0.69291(16) -0.0886(2)
C19 C 1.6671(6) 0.75648(17) -0.2664(3)
H18 H 1.7549 0.7814 -0.2457
C20 C 0.6836(7) 0.65614(18) -0.0711(3)
H19 H 0.6990 0.6227 -0.0888
C21 C 0.5240(7) 0.66869(17) -0.0281(3)
H20 H 0.4278 0.6442 -0.0160
O8 O 1.1105(4) 0.94300(12) -0.08579(18)
C22 C 1.0487(6) 0.96462(14) -0.1432(2)
Cu1C Cu 1.60822(7) 0.676226(17) -0.47721(3)
Cu1B Cu 1.39178(7) 1.176226(17) -0.02279(3)
Cu1_2 Cu -0.39178(7) 0.823774(17) 0.02279(3)
N5C N 0.5754(4) 0.79856(12) 0.13128(18)
N6B N 0.5782(4) 0.89509(12) 0.06286(16)
O3_2 O 0.9576(4) 0.83174(10) 0.04666(17)
loop_
_geom_bond_atom_site_label_1
_geom_bond_atom_site_label_2
_geom_bond_site_symmetry_1
_geom_bond_site_symmetry_2
Cu1 N2 1_555 1_555
N1 H1 1_555 1_555
N2 C4 1_555 1_555
N3 O2 1_555 1_555
N4 Cu1 1_555 1_555
N5 C1 1_555 1_555
N6 C7 1_555 1_555
O1 C11 1_555 1_555
O2 Cu1 1_555 1_555
O3 N3 1_555 1_555
N7 H2 1_555 1_555
O4 N3 1_555 1_555
C1 H3 1_555 1_555
C2 N8 1_555 1_555
C3 N5 1_555 1_555
H4 C3 1_555 1_555
C4 H5 1_555 1_555
C5 C7 1_555 1_555
N8 H6 1_555 1_555
C6 N4 1_555 1_555
H7 C6 1_555 1_555
C7 H8 1_555 1_555
C8 H9 1_555 1_555
C9 N6 1_555 1_555
H10 C9 1_555 1_555
N9 C5 1_555 1_555
H11 N9 1_555 1_555
C10 C5 1_555 1_555
H12 C10 1_555 1_555
C11 N1 1_555 1_555
C12 N4 1_555 1_555
H13 C12 1_555 1_555
C13 N7 1_555 1_555
C14 C2 1_555 1_555
H14 C14 1_555 1_555
C15 C12 1_555 1_555
H15 C15 1_555 1_555
C16 N2 1_555 1_555
H16 C16 1_555 1_555
C17 C9 1_555 1_555
H17 C17 1_555 1_555
C18 N1 1_555 1_555
C19 C3 1_555 1_555
H18 C19 1_555 1_555
C20 C18 1_555 1_555
H19 C20 1_555 1_555
C21 C16 1_555 1_555
H20 C21 1_555 1_555
O5 N10 1_555 1_555
O6 N10 1_555 1_555
N10 O7 1_555 1_555
O8 C22 1_555 1_555
C22 N8 1_555 1_555
Cu1C N5 1_555 1_555
Cu1B N6 1_555 1_555
Cu1_2 O3 1_555 1_555
N5C Cu1 1_555 1_555
N6B Cu1 1_555 1_555
O3_2 Cu1 1_555 1_555
N7 C11 1_555 1_555
C1 C13 1_555 1_555
C2 C6 1_555 1_555
C4 C18 1_555 1_555
C8 C13 1_555 1_555
C8 C19 1_555 1_555
N9 C22 1_555 1_555
C10 C17 1_555 1_555
C14 C15 1_555 1_555
C20 C21 1_555 1_555

#END
