
#######################################################################
#
#                 Cambridge Crystallographic Data Centre
#                                CCDC 
#
#######################################################################
#
# If this CIF has been generated from an entry in the Cambridge 
# Structural Database, then it will include bibliographic, chemical, 
# crystal, experimental, refinement or atomic coordinate data resulting 
# from the CCDC's data processing and validation procedures.
#
#######################################################################

data_PEFPAS
_symmetry_cell_setting           orthorhombic
_symmetry_space_group_name_H-M   'P n a 21'
_symmetry_Int_Tables_number      33
_space_group_name_Hall           'P 2c -2n'
loop_
_symmetry_equiv_pos_site_id
_symmetry_equiv_pos_as_xyz
1 x,y,z
2 -x,-y,1/2+z
3 1/2-x,1/2+y,1/2+z
4 1/2+x,1/2-y,z
_cell_length_a                   17.589(6)
_cell_length_b                   23.432(8)
_cell_length_c                   10.011(4)
_cell_angle_alpha                90
_cell_angle_beta                 90
_cell_angle_gamma                90
_cell_volume                     4125.99
loop_
_atom_site_label
_atom_site_type_symbol
_atom_site_fract_x
_atom_site_fract_y
_atom_site_fract_z
Cd1 Cd -0.23740(3) 1.12894(2) 0.97595(8)
N1 N -0.2181(4) 1.0297(2) 0.9888(14)
C1 C -0.1973(7) 1.0010(4) 1.0993(12)
H1 H -0.1874 1.0213 1.1771
Cd2 Cd -0.21491(3) 0.62888(2) 0.98465(8)
N2 N -0.1986(4) 0.7290(2) 0.9766(13)
C2 C -0.1906(6) 0.9449(4) 1.1007(11)
H2 H -0.1777 0.9266 1.1799
C3 C -0.2024(4) 0.9124(3) 0.9845(19)
C4 C -0.1961(5) 0.8491(3) 0.9829(17)
C5 C -0.2217(7) 0.8195(4) 1.0898(11)
H3 H -0.2379 0.8383 1.1665
C6 C -0.2233(7) 0.7582(4) 1.0817(13)
H4 H -0.2426 0.7379 1.1540
C7 C -0.1722(6) 0.7588(4) 0.8779(10)
H5 H -0.1540 0.7394 0.8035
C8 C -0.1692(7) 0.8195(4) 0.8766(10)
H6 H -0.1491 0.8386 0.8034
C9 C -0.2185(7) 0.9421(5) 0.8700(11)
H7 H -0.2249 0.9232 0.7892
C10 C -0.2249(6) 0.9994(5) 0.8771(11)
H8 H -0.2348 1.0191 0.7983
N3 N -0.2349(4) 1.5291(3) 1.0086(10)
C11 C -0.1746(5) 1.4960(3) 1.0332(10)
H9 H -0.1293 1.5137 1.0570
N4 N -0.2471(4) 1.2286(3) 0.9552(10)
C12 C -0.1756(5) 1.4385(3) 1.0254(10)
H10 H -0.1320 1.4176 1.0442
C13 C -0.2417(4) 1.4114(3) 0.9894(16)
C14 C -0.2442(4) 1.3482(3) 0.9749(18)
C15 C -0.1835(5) 1.3179(3) 0.9227(10)
H11 H -0.1400 1.3369 0.8944
C16 C -0.1878(5) 1.2590(4) 0.9128(10)
H12 H -0.1471 1.2397 0.8746
C17 C -0.3060(4) 1.2589(3) 1.0050(10)
H13 H -0.3483 1.2388 1.0345
C18 C -0.3078(5) 1.3176(3) 1.0155(9)
H14 H -0.3505 1.3362 1.0488
C19 C -0.3057(4) 1.4451(3) 0.9702(12)
H15 H -0.3524 1.4286 0.9495
C20 C -0.2988(4) 1.5027(3) 0.9824(12)
H16 H -0.3423 1.5248 0.9713
O1 O -0.3221(3) 1.1422(3) 1.1489(7)
C21 C -0.3620(7) 1.1046(5) 1.2059(10)
O2 O -0.3715(4) 1.1020(3) 1.3306(7)
C22 C -0.4018(5) 1.0608(4) 1.1224(9)
C23 C -0.4383(5) 1.0762(3) 1.0061(10)
C24 C -0.4712(5) 1.0325(4) 0.9271(10)
H17 H -0.4986 1.0417 0.8507
C25 C -0.4623(6) 0.9775(4) 0.9637(14)
H18 H -0.4812 0.9487 0.9090
C26 C -0.4256(7) 0.9632(4) 1.0815(12)
H19 H -0.4219 0.9252 1.1069
C27 C -0.3947(6) 1.0048(4) 1.1608(11)
H20 H -0.3694 0.9953 1.2392
O3 O -0.3185(4) 1.1009(3) 0.8091(7)
C28 C -0.3714(6) 1.1253(4) 0.7531(12)
O4 O -0.3843(4) 1.1283(3) 0.6298(8)
C29 C -0.4275(5) 1.1583(4) 0.8438(10)
C30 C -0.4516(4) 1.1375(3) 0.9691(15)
C31 C -0.4931(5) 1.1730(4) 1.0536(10)
H21 H -0.5101 1.1593 1.1356
C32 C -0.5094(6) 1.2299(5) 1.0151(13)
H22 H -0.5351 1.2537 1.0741
C33 C -0.4882(6) 1.2500(5) 0.8948(12)
H23 H -0.5004 1.2872 0.8704
C34 C -0.4478(5) 1.2148(4) 0.8060(11)
H24 H -0.4342 1.2285 0.7222
O5 O -0.1337(5) 1.1288(3) 0.8330(8)
C35 C -0.1407(8) 1.1321(4) 0.7067(12)
O6 O -0.1966(3) 1.1530(3) 0.6484(7)
C36 C -0.0801(5) 1.1045(4) 0.6225(10)
C37 C -0.0604(4) 1.1276(3) 0.5004(12)
C38 C -0.0124(6) 1.0915(5) 0.4184(11)
H25 H 0.0004 1.1034 0.3326
C39 C 0.0138(6) 1.0420(5) 0.4631(16)
H26 H 0.0457 1.0205 0.4088
C40 C -0.0047(7) 1.0219(5) 0.5847(14)
H27 H 0.0152 0.9873 0.6138
C41 C -0.0521(6) 1.0519(4) 0.6649(12)
H28 H -0.0659 1.0375 0.7479
O7 O -0.1932(4) 1.1118(3) 0.3218(8)
C42 C -0.1547(6) 1.1484(5) 0.2611(11)
O8 O -0.1461(4) 1.1503(3) 0.1368(7)
C43 C -0.1204(5) 1.1970(4) 0.3390(9)
C44 C -0.0812(5) 1.1856(4) 0.4545(9)
C45 C -0.0522(6) 1.2314(4) 0.5241(11)
H29 H -0.0256 1.2252 0.6030
C46 C -0.0624(6) 1.2878(4) 0.4771(16)
H30 H -0.0392 1.3177 0.5224
C47 C -0.1046(7) 1.2991(5) 0.3696(13)
H31 H -0.1146 1.3365 0.3435
C48 C -0.1327(5) 1.2534(4) 0.2988(11)
H32 H -0.1608 1.2602 0.2217
Cd1_2 Cd -0.23740(3) 1.12894(2) -0.02405(8)
Cd2_2 Cd -0.21491(3) 1.62888(2) 0.98465(8)
Cd2B Cd -0.28509(3) 1.12888(2) 1.48465(8)
Cd2B_2 Cd -0.28509(3) 1.12888(2) 0.48465(8)
N3_2 N -0.2349(4) 0.5291(3) 1.0086(10)
O2B O -0.1285(4) 0.6020(3) 0.8306(7)
O4B O -0.1157(4) 0.6283(3) 1.1298(8)
O6B O -0.3034(3) 0.6530(3) 1.1484(7)
O7B O -0.3068(4) 0.6118(3) 0.8218(8)
O8_2 O -0.1461(4) 1.1503(3) 1.1368(7)
O9 O -0.0058(4) 1.1157(3) 1.0158(10)
loop_
_geom_bond_atom_site_label_1
_geom_bond_atom_site_label_2
_geom_bond_site_symmetry_1
_geom_bond_site_symmetry_2
Cd1 N1 1_555 1_555
N1 C1 1_555 1_555
C1 H1 1_555 1_555
Cd2 N2 1_555 1_555
N2 C6 1_555 1_555
C2 C1 1_555 1_555
H2 C2 1_555 1_555
C3 C2 1_555 1_555
C4 C3 1_555 1_555
C5 C4 1_555 1_555
H3 C5 1_555 1_555
C6 C5 1_555 1_555
H4 C6 1_555 1_555
C7 N2 1_555 1_555
H5 C7 1_555 1_555
C8 C4 1_555 1_555
H6 C8 1_555 1_555
C9 C3 1_555 1_555
H7 C9 1_555 1_555
C10 N1 1_555 1_555
H8 C10 1_555 1_555
N3 C11 1_555 1_555
C11 H9 1_555 1_555
N4 Cd1 1_555 1_555
C12 C11 1_555 1_555
H10 C12 1_555 1_555
C13 C12 1_555 1_555
C14 C13 1_555 1_555
C15 C14 1_555 1_555
H11 C15 1_555 1_555
C16 N4 1_555 1_555
H12 C16 1_555 1_555
C17 N4 1_555 1_555
H13 C17 1_555 1_555
C18 C14 1_555 1_555
H14 C18 1_555 1_555
C19 C13 1_555 1_555
H15 C19 1_555 1_555
C20 N3 1_555 1_555
H16 C20 1_555 1_555
O1 Cd1 1_555 1_555
C21 O1 1_555 1_555
O2 C21 1_555 1_555
C22 C21 1_555 1_555
C23 C22 1_555 1_555
C24 C23 1_555 1_555
H17 C24 1_555 1_555
C25 C24 1_555 1_555
H18 C25 1_555 1_555
C26 C25 1_555 1_555
H19 C26 1_555 1_555
C27 C22 1_555 1_555
H20 C27 1_555 1_555
O3 Cd1 1_555 1_555
C28 O3 1_555 1_555
O4 C28 1_555 1_555
C29 C28 1_555 1_555
C30 C23 1_555 1_555
C31 C30 1_555 1_555
H21 C31 1_555 1_555
C32 C31 1_555 1_555
H22 C32 1_555 1_555
C33 C32 1_555 1_555
H23 C33 1_555 1_555
C34 C29 1_555 1_555
H24 C34 1_555 1_555
O5 Cd1 1_555 1_555
C35 O5 1_555 1_555
O6 C35 1_555 1_555
C36 C35 1_555 1_555
C37 C36 1_555 1_555
C38 C37 1_555 1_555
H25 C38 1_555 1_555
C39 C38 1_555 1_555
H26 C39 1_555 1_555
C40 C39 1_555 1_555
H27 C40 1_555 1_555
C41 C36 1_555 1_555
H28 C41 1_555 1_555
O7 C42 1_555 1_555
C42 O8 1_555 1_555
O8 Cd1_2 1_555 1_555
C43 C42 1_555 1_555
C44 C37 1_555 1_555
C45 C44 1_555 1_555
H29 C45 1_555 1_555
C46 C45 1_555 1_555
H30 C46 1_555 1_555
C47 C46 1_555 1_555
H31 C47 1_555 1_555
C48 C43 1_555 1_555
H32 C48 1_555 1_555
Cd2_2 N3 1_555 1_555
Cd2B O2 1_555 1_555
Cd2B_2 O4 1_555 1_555
N3_2 Cd2 1_555 1_555
O2B Cd2 1_555 1_555
O4B Cd2 1_555 1_555
O6B Cd2 1_555 1_555
O7B Cd2 1_555 1_555
O8_2 Cd1 1_555 1_555
C7 C8 1_555 1_555
C9 C10 1_555 1_555
C15 C16 1_555 1_555
C17 C18 1_555 1_555
C19 C20 1_555 1_555
C26 C27 1_555 1_555
C29 C30 1_555 1_555
C33 C34 1_555 1_555
O6 Cd2B_2 1_555 1_555
C40 C41 1_555 1_555
O7 Cd2B_2 1_555 1_555
C43 C44 1_555 1_555
C47 C48 1_555 1_555

#END
