
#######################################################################
#
#                 Cambridge Crystallographic Data Centre
#                                CCDC 
#
#######################################################################
#
# If this CIF has been generated from an entry in the Cambridge 
# Structural Database, then it will include bibliographic, chemical, 
# crystal, experimental, refinement or atomic coordinate data resulting 
# from the CCDC's data processing and validation procedures.
#
#######################################################################

data_PEFPOG
_symmetry_cell_setting           monoclinic
_symmetry_space_group_name_H-M   'P 21/n'
_symmetry_Int_Tables_number      14
_space_group_name_Hall           '-P 2yn'
loop_
_symmetry_equiv_pos_site_id
_symmetry_equiv_pos_as_xyz
1 x,y,z
2 1/2-x,1/2+y,1/2-z
3 -x,-y,-z
4 1/2+x,1/2-y,1/2+z
_cell_length_a                   13.923(4)
_cell_length_b                   10.060(3)
_cell_length_c                   16.549(4)
_cell_angle_alpha                90.00
_cell_angle_beta                 92.486(3)
_cell_angle_gamma                90.00
_cell_volume                     2315.76
loop_
_atom_site_label
_atom_site_type_symbol
_atom_site_fract_x
_atom_site_fract_y
_atom_site_fract_z
Cd1 Cd 0.499997(11) 0.249283(16) 0.024561(11)
N1 N 0.33504(16) 0.2720(2) 0.02855(14)
N2 N -0.33565(16) 0.2214(2) 0.01817(15)
O2 O 0.52427(12) 0.41482(18) -0.06946(11)
O3 O 0.45844(14) 0.59684(18) -0.12533(12)
O4 O 0.45871(12) 0.07751(18) -0.06637(11)
O5 O 0.50893(14) -0.10271(18) -0.13087(12)
C1 C 0.29130(18) 0.3860(3) 0.04713(18)
H1 H 0.3298 0.4614 0.0607
C2 C 0.19202(18) 0.3983(3) 0.04727(19)
H2 H 0.1639 0.4809 0.0608
C3 C 0.13388(19) 0.2906(3) 0.0277(2)
C4 C 0.0257(2) 0.3031(3) 0.0293(3)
H3 H 0.0089 0.3388 0.0826
H4 H 0.0039 0.3684 -0.0123
C5 C -0.0278(2) 0.1757(4) 0.0146(3)
H5 H -0.0068 0.1102 0.0563
H6 H -0.0116 0.1397 -0.0388
C6 C -0.13616(19) 0.1933(3) 0.0165(2)
C7 C -0.1857(2) 0.1618(3) 0.0842(2)
H7 H -0.1521 0.1309 0.1317
C8 C -0.2847(2) 0.1755(3) 0.08257(19)
H8 H -0.3179 0.1511 0.1293
C9 C -0.2877(2) 0.2530(2) -0.0476(2)
H9 H -0.3230 0.2859 -0.0938
C10 C -0.1889(2) 0.2397(3) -0.0512(2)
H10 H -0.1575 0.2619 -0.0992
C11 C 0.17994(19) 0.1730(3) 0.0082(2)
H11 H 0.1432 0.0963 -0.0059
C12 C 0.27953(18) 0.1678(3) 0.00931(19)
H12 H 0.3095 0.0865 -0.0043
C13 C 0.46292(18) 0.4729(2) -0.11475(15)
C14 C 0.38732(18) 0.3877(2) -0.15774(16)
C15 C 0.41122(19) 0.2671(2) -0.19390(16)
C16 C 0.3370(2) 0.1845(3) -0.22373(16)
H13 H 0.3522 0.1026 -0.2486
C17 C 0.2418(2) 0.2202(3) -0.21755(18)
H14 H 0.1922 0.1621 -0.2370
C18 C 0.21845(19) 0.3411(3) -0.18285(18)
H15 H 0.1530 0.3659 -0.1789
C19 C 0.29077(18) 0.4253(3) -0.15400(17)
H16 H 0.2748 0.5090 -0.1316
C20 C 0.50155(17) 0.0222(2) -0.12153(15)
C21 C 0.55187(18) 0.1085(3) -0.18097(17)
C22 C 0.5128(2) 0.2302(3) -0.20748(17)
C23 C 0.5702(2) 0.3136(3) -0.25257(18)
H17 H 0.5453 0.3968 -0.2707
C24 C 0.6623(3) 0.2781(4) -0.2714(2)
H18 H 0.7005 0.3377 -0.3009
C25 C 0.6992(2) 0.1556(4) -0.2474(2)
H19 H 0.7621 0.1303 -0.2613
C26 C 0.6439(2) 0.0707(3) -0.2032(2)
H20 H 0.6685 -0.0141 -0.1877
Cd1_2 Cd -0.500003(11) 0.249283(16) 0.024561(11)
Cd1B Cd 0.500003(11) 0.750717(16) -0.024561(11)
Cd1B_2 Cd 0.500003(11) -0.249283(16) -0.024561(11)
N2_2 N 0.66435(16) 0.2214(2) 0.01817(15)
O3B O 0.54156(14) 0.40316(18) 0.12533(12)
O5B O 0.49107(14) 0.10271(18) 0.13087(12)
O1 O 0.5372(3) -0.2666(4) -0.2684(3)
loop_
_geom_bond_atom_site_label_1
_geom_bond_atom_site_label_2
_geom_bond_site_symmetry_1
_geom_bond_site_symmetry_2
Cd1 N1 1_555 1_555
N1 C1 1_555 1_555
N2 C8 1_555 1_555
O2 Cd1 1_555 1_555
O3 C13 1_555 1_555
O4 Cd1 1_555 1_555
O5 C20 1_555 1_555
C1 H1 1_555 1_555
C2 C1 1_555 1_555
H2 C2 1_555 1_555
C3 C2 1_555 1_555
C4 C3 1_555 1_555
H3 C4 1_555 1_555
H4 C4 1_555 1_555
C5 C4 1_555 1_555
H5 C5 1_555 1_555
H6 C5 1_555 1_555
C6 C5 1_555 1_555
C7 C6 1_555 1_555
H7 C7 1_555 1_555
C8 C7 1_555 1_555
H8 C8 1_555 1_555
C9 N2 1_555 1_555
H9 C9 1_555 1_555
C10 C6 1_555 1_555
H10 C10 1_555 1_555
C11 C3 1_555 1_555
H11 C11 1_555 1_555
C12 N1 1_555 1_555
H12 C12 1_555 1_555
C13 O2 1_555 1_555
C14 C13 1_555 1_555
C15 C14 1_555 1_555
C16 C15 1_555 1_555
H13 C16 1_555 1_555
C17 C16 1_555 1_555
H14 C17 1_555 1_555
C18 C17 1_555 1_555
H15 C18 1_555 1_555
C19 C14 1_555 1_555
H16 C19 1_555 1_555
C20 O4 1_555 1_555
C21 C20 1_555 1_555
C22 C15 1_555 1_555
C23 C22 1_555 1_555
H17 C23 1_555 1_555
C24 C23 1_555 1_555
H18 C24 1_555 1_555
C25 C24 1_555 1_555
H19 C25 1_555 1_555
C26 C21 1_555 1_555
H20 C26 1_555 1_555
Cd1_2 N2 1_555 1_555
Cd1B O3 1_555 1_555
Cd1B_2 O5 1_555 1_555
N2_2 Cd1 1_555 1_555
O3B Cd1 1_555 1_555
O5B Cd1 1_555 1_555
C9 C10 1_555 1_555
C11 C12 1_555 1_555
C18 C19 1_555 1_555
C21 C22 1_555 1_555
C25 C26 1_555 1_555

#END
