
#######################################################################
#
#                 Cambridge Crystallographic Data Centre
#                                CCDC 
#
#######################################################################
#
# If this CIF has been generated from an entry in the Cambridge 
# Structural Database, then it will include bibliographic, chemical, 
# crystal, experimental, refinement or atomic coordinate data resulting 
# from the CCDC's data processing and validation procedures.
#
#######################################################################

data_PEFRAV
_symmetry_cell_setting           triclinic
_symmetry_space_group_name_H-M   'P -1'
_symmetry_Int_Tables_number      2
_space_group_name_Hall           '-P 1'
loop_
_symmetry_equiv_pos_site_id
_symmetry_equiv_pos_as_xyz
1 x,y,z
2 -x,-y,-z
_cell_length_a                   7.3226(3)
_cell_length_b                   10.6546(7)
_cell_length_c                   13.0172(10)
_cell_angle_alpha                90.890(6)
_cell_angle_beta                 90.587(5)
_cell_angle_gamma                103.798(5)
_cell_volume                     986.066
loop_
_atom_site_label
_atom_site_type_symbol
_atom_site_fract_x
_atom_site_fract_y
_atom_site_fract_z
Ba1 Ba 0.0000 0.0000 1.0000
Ba2 Ba -0.12187(6) -0.37706(4) 0.87733(4)
Ba3 Ba -0.43263(6) -0.79087(4) 0.94016(4)
C1 C -0.3316(11) -0.5457(7) 1.1095(7)
C2 C -0.2798(11) -0.4725(8) 1.2095(7)
C3 C -0.3488(12) -0.5344(9) 1.2991(7)
H1 H -0.4325 -0.6152 1.2954
C4 C -0.2931(13) -0.4759(10) 1.3946(8)
H2 H -0.3373 -0.5187 1.4544
C5 C -0.1705(13) -0.3527(10) 1.4008(8)
H3 H -0.1351 -0.3130 1.4645
C6 C -0.1032(12) -0.2912(9) 1.3118(7)
H4 H -0.0213 -0.2098 1.3155
C7 C -0.1566(10) -0.3497(8) 1.2167(7)
C8 C -0.0954(10) -0.2704(7) 1.1224(6)
C9 C -0.3263(11) -0.1013(7) 0.8265(7)
C10 C -0.4423(11) -0.1163(7) 0.7310(7)
C11 C -0.3692(12) -0.1440(8) 0.6375(7)
H5 H -0.2463 -0.1536 0.6354
C12 C -0.4747(13) -0.1577(9) 0.5472(8)
H6 H -0.4228 -0.1741 0.4850
C13 C -0.6560(13) -0.1466(9) 0.5515(7)
H7 H -0.7285 -0.1576 0.4915
C14 C -0.7341(11) -0.1199(8) 0.6416(8)
H8 H -0.8576 -0.1115 0.6423
C15 C -0.6291(10) -0.1053(7) 0.7321(7)
C16 C -0.7227(10) -0.0811(7) 0.8290(7)
O1 O -0.1980(7) -0.5431(5) 1.0461(5)
O2 O -0.0655(10) -0.3807(7) 0.6700(6)
H9 H -0.0242 -0.3059 0.6369
H10 H -0.0869 -0.4564 0.6350
O3 O -0.4932(7) -0.6120(5) 1.0965(5)
O4 O -0.2151(7) -0.2693(5) 1.0535(4)
O5 O 0.0733(7) -0.2104(6) 1.1184(5)
O6 O -0.1776(7) -0.1427(5) 0.8257(5)
O7 O -0.3768(7) -0.0473(5) 0.9053(4)
O8 O -0.7314(7) 0.0340(5) 0.8490(5)
O9 O -0.7942(7) -0.1750(5) 0.8873(5)
O10 O -0.3113(8) -0.6026(5) 0.7944(5)
O11 O -0.2893(11) -0.6190(7) 0.6276(6)
O12 O -0.4209(14) -0.7845(9) 0.7165(8)
N1 N -0.3420(11) -0.6661(8) 0.7127(8)
Ba1_2 Ba -1.0000 0.0000 1.0000
Ba1_3 Ba 1.0000 0.0000 1.0000
Ba2A Ba 0.12187(6) 0.37706(4) 1.12267(4)
Ba2A_2 Ba 0.12187(6) -0.62294(4) 1.12267(4)
Ba2A_3 Ba -0.87813(6) -0.62294(4) 1.12267(4)
Ba2_2 Ba -1.12187(6) -0.37706(4) 0.87733(4)
Ba2_3 Ba -0.12187(6) 0.62294(4) 0.87733(4)
Ba2_4 Ba 0.87813(6) 0.62294(4) 0.87733(4)
Ba2A_4 Ba 1.12187(6) 0.37706(4) 1.12267(4)
Ba3A Ba 0.43263(6) 0.79087(4) 1.05984(4)
Ba3A_2 Ba -0.56737(6) -0.20913(4) 1.05984(4)
Ba3A_3 Ba 0.43263(6) -0.20913(4) 1.05984(4)
Ba3_2 Ba -0.43263(6) 0.20913(4) 0.94016(4)
Ba3_3 Ba 0.56737(6) 0.20913(4) 0.94016(4)
C1A C 0.3316(11) 0.5457(7) 0.8905(7)
C2A C 0.2798(11) 0.4725(8) 0.7905(7)
C3A C 0.3488(12) 0.5344(9) 0.7009(7)
H1A H 0.4325 0.6152 0.7046
C4A C 0.2931(13) 0.4759(10) 0.6054(8)
H2A H 0.3373 0.5187 0.5456
C5A C 0.1705(13) 0.3527(10) 0.5992(8)
H3A H 0.1351 0.3130 0.5355
C6A C 0.1032(12) 0.2912(9) 0.6882(7)
H4A H 0.0213 0.2098 0.6845
C7A C 0.1566(10) 0.3497(8) 0.7833(7)
C8A C 0.0954(10) 0.2704(7) 0.8776(6)
C9A C 0.3263(11) 0.1013(7) 1.1735(7)
C10A C 0.4423(11) 0.1163(7) 1.2690(7)
C11A C 0.3692(12) 0.1440(8) 1.3625(7)
H5A H 0.2463 0.1536 1.3646
C12A C 0.4747(13) 0.1577(9) 1.4528(8)
H6A H 0.4228 0.1741 1.5150
C13A C 0.6560(13) 0.1466(9) 1.4485(7)
H7A H 0.7285 0.1576 1.5085
C14A C 0.7341(11) 0.1199(8) 1.3584(8)
H8A H 0.8576 0.1115 1.3577
C15A C 0.6291(10) 0.1053(7) 1.2679(7)
C16A C 0.7227(10) 0.0811(7) 1.1710(7)
O1A O 0.1980(7) 0.5431(5) 0.9539(5)
O1A_2 O 0.1980(7) -0.4569(5) 0.9539(5)
O1_2 O -0.1980(7) 0.4569(5) 1.0461(5)
O2A O 0.0655(10) 0.3807(7) 1.3300(6)
H9A H 0.0242 0.3059 1.3631
H10A H 0.0869 0.4564 1.3650
O3A O 0.4932(7) 0.6120(5) 0.9035(5)
O3A_2 O -0.5068(7) -0.3880(5) 0.9035(5)
O3_2 O 0.5068(7) 0.3880(5) 1.0965(5)
O4A O 0.2151(7) 0.2693(5) 0.9465(4)
O4A_2 O -0.7849(7) -0.7307(5) 0.9465(4)
O4_2 O 0.7849(7) 0.7307(5) 1.0535(4)
O5A O -0.0733(7) 0.2104(6) 0.8816(5)
O5A_2 O -0.0733(7) -0.7896(6) 0.8816(5)
O5_2 O 0.0733(7) 0.7896(6) 1.1184(5)
O6A O 0.1776(7) 0.1427(5) 1.1743(5)
O7A O 0.3768(7) 0.0473(5) 1.0947(4)
O7_2 O -0.3768(7) -1.0473(5) 0.9053(4)
O7A_2 O -0.6232(7) -0.9527(5) 1.0947(4)
O7A_3 O 0.3768(7) 1.0473(5) 1.0947(4)
O7_3 O 0.6232(7) 0.9527(5) 0.9053(4)
O8A O 0.7314(7) -0.0340(5) 1.1510(5)
O8_2 O 0.2686(7) 0.0340(5) 0.8490(5)
O8A_2 O -0.2686(7) -0.0340(5) 1.1510(5)
O8_3 O -0.7314(7) -0.9660(5) 0.8490(5)
O8A_3 O 0.7314(7) 0.9660(5) 1.1510(5)
O9A O 0.7942(7) 0.1750(5) 1.1127(5)
O9_2 O 0.2058(7) -0.1750(5) 0.8873(5)
O9A_2 O -0.2058(7) -0.8250(5) 1.1127(5)
O9A_3 O -0.2058(7) 0.1750(5) 1.1127(5)
O9_3 O 0.2058(7) 0.8250(5) 0.8873(5)
O10A O 0.3113(8) 0.6026(5) 1.2056(5)
O11A O 0.2893(11) 0.6190(7) 1.3724(6)
O12A O 0.4209(14) 0.7845(9) 1.2835(8)
N1A N 0.3420(11) 0.6661(8) 1.2873(8)
loop_
_geom_bond_atom_site_label_1
_geom_bond_atom_site_label_2
_geom_bond_site_symmetry_1
_geom_bond_site_symmetry_2
Ba1 O5 1_555 1_555
Ba2 O1 1_555 1_555
Ba3 O3 1_555 1_555
C1 C2 1_555 1_555
C2 C3 1_555 1_555
C3 H1 1_555 1_555
C4 C3 1_555 1_555
H2 C4 1_555 1_555
C5 C4 1_555 1_555
H3 C5 1_555 1_555
C6 C5 1_555 1_555
H4 C6 1_555 1_555
C7 C2 1_555 1_555
C8 C7 1_555 1_555
C9 C10 1_555 1_555
C10 C11 1_555 1_555
C11 H5 1_555 1_555
C12 C11 1_555 1_555
H6 C12 1_555 1_555
C13 C12 1_555 1_555
H7 C13 1_555 1_555
C14 C13 1_555 1_555
H8 C14 1_555 1_555
C15 C10 1_555 1_555
C16 C15 1_555 1_555
O1 C1 1_555 1_555
O2 Ba2 1_555 1_555
H9 O2 1_555 1_555
H10 O2 1_555 1_555
O3 C1 1_555 1_555
O4 Ba2 1_555 1_555
O5 C8 1_555 1_555
O6 Ba1 1_555 1_555
O7 Ba1 1_555 1_555
O8 C16 1_555 1_555
O9 C16 1_555 1_555
O10 Ba2 1_555 1_555
O11 N1 1_555 1_555
O12 N1 1_555 1_555
N1 O10 1_555 1_555
Ba1_2 O8 1_555 1_555
Ba1_3 O8A 1_555 1_555
Ba2A O1A 1_555 1_555
Ba2A_2 O1 1_555 1_555
Ba2A_3 O3 1_555 1_555
Ba2_2 O9 1_555 1_555
Ba2_3 O1A 1_555 1_555
Ba2_4 O3A 1_555 1_555
Ba2A_4 O9A 1_555 1_555
Ba3A O3A 1_555 1_555
Ba3A_2 O4 1_555 1_555
Ba3A_3 O5 1_555 1_555
Ba3_2 O7 1_555 1_555
Ba3_3 O3_2 1_555 1_555
C1A C2A 1_555 1_555
C2A C3A 1_555 1_555
C3A H1A 1_555 1_555
C4A C3A 1_555 1_555
H2A C4A 1_555 1_555
C5A C4A 1_555 1_555
H3A C5A 1_555 1_555
C6A C5A 1_555 1_555
H4A C6A 1_555 1_555
C7A C2A 1_555 1_555
C8A C7A 1_555 1_555
C9A C10A 1_555 1_555
C10A C11A 1_555 1_555
C11A H5A 1_555 1_555
C12A C11A 1_555 1_555
H6A C12A 1_555 1_555
C13A C12A 1_555 1_555
H7A C13A 1_555 1_555
C14A C13A 1_555 1_555
H8A C14A 1_555 1_555
C15A C10A 1_555 1_555
C16A C15A 1_555 1_555
O1A C1A 1_555 1_555
O1A_2 Ba2 1_555 1_555
O1_2 Ba2A 1_555 1_555
O2A Ba2A 1_555 1_555
H9A O2A 1_555 1_555
H10A O2A 1_555 1_555
O3A C1A 1_555 1_555
O3A_2 Ba2 1_555 1_555
O3_2 Ba2A 1_555 1_555
O4A Ba2A 1_555 1_555
O4A_2 Ba3 1_555 1_555
O4_2 Ba2_4 1_555 1_555
O5A Ba1 1_555 1_555
O5A_2 Ba3 1_555 1_555
O5_2 Ba3A 1_555 1_555
O6A Ba1 1_555 1_555
O7A Ba1 1_555 1_555
O7_2 Ba3 1_555 1_555
O7A_2 Ba3 1_555 1_555
O7A_3 Ba3A 1_555 1_555
O7_3 Ba3A 1_555 1_555
O8A Ba3A_3 1_555 1_555
O8_2 Ba1 1_555 1_555
O8A_2 Ba1 1_555 1_555
O8_3 Ba3 1_555 1_555
O8A_3 Ba3A 1_555 1_555
O9A Ba3_3 1_555 1_555
O9_2 Ba2 1_555 1_555
O9A_2 Ba3 1_555 1_555
O9A_3 Ba2A 1_555 1_555
O9_3 Ba2_3 1_555 1_555
O10A Ba2A 1_555 1_555
O11A N1A 1_555 1_555
O12A N1A 1_555 1_555
N1A O10A 1_555 1_555
Ba2 O6 1_555 1_555
Ba3 O10 1_555 1_555
C6 C7 1_555 1_555
C8 O4 1_555 1_555
C9 O6 1_555 1_555
C9 O7 1_555 1_555
C14 C15 1_555 1_555
O7 Ba3A_2 1_555 1_555
O8 Ba3_2 1_555 1_555
O9 Ba3A_2 1_555 1_555
Ba2A O6A 1_555 1_555
Ba2A_2 O1A_2 1_555 1_555
Ba2A_2 O9A_2 1_555 1_555
Ba2A_3 O4A_2 1_555 1_555
Ba2_3 O1_2 1_555 1_555
Ba3A O4_2 1_555 1_555
Ba3A O9_3 1_555 1_555
Ba3A O10A 1_555 1_555
Ba3A_2 O3A_2 1_555 1_555
Ba3A_2 O8A_2 1_555 1_555
Ba3A_3 O7A 1_555 1_555
Ba3A_3 O9_2 1_555 1_555
Ba3_2 O5A 1_555 1_555
Ba3_2 O9A_3 1_555 1_555
Ba3_3 O4A 1_555 1_555
Ba3_3 O7A 1_555 1_555
Ba3_3 O8_2 1_555 1_555
C6A C7A 1_555 1_555
C8A O4A 1_555 1_555
C8A O5A 1_555 1_555
C9A O6A 1_555 1_555
C9A O7A 1_555 1_555
C14A C15A 1_555 1_555
C16A O8A 1_555 1_555
C16A O9A 1_555 1_555

#END
