
#######################################################################
#
#                 Cambridge Crystallographic Data Centre
#                                CCDC 
#
#######################################################################
#
# If this CIF has been generated from an entry in the Cambridge 
# Structural Database, then it will include bibliographic, chemical, 
# crystal, experimental, refinement or atomic coordinate data resulting 
# from the CCDC's data processing and validation procedures.
#
#######################################################################

data_PEFSOK
_symmetry_cell_setting           orthorhombic
_symmetry_space_group_name_H-M   'P 21 21 2'
_symmetry_Int_Tables_number      18
_space_group_name_Hall           'P 2 2ab'
loop_
_symmetry_equiv_pos_site_id
_symmetry_equiv_pos_as_xyz
1 x,y,z
2 -x,-y,z
3 1/2-x,1/2+y,-z
4 1/2+x,1/2-y,-z
_cell_length_a                   11.6874(5)
_cell_length_b                   26.5378(14)
_cell_length_c                   9.7479(4)
_cell_angle_alpha                90
_cell_angle_beta                 90
_cell_angle_gamma                90
_cell_volume                     3023.39
loop_
_atom_site_label
_atom_site_type_symbol
_atom_site_fract_x
_atom_site_fract_y
_atom_site_fract_z
Cu1 Cu 0.87284(7) 0.16850(3) 0.28732(8)
Cu2 Cu 0.60489(7) 0.16544(3) -0.20568(9)
N1 N 0.8960(5) 0.0994(2) 0.2134(6)
N2 N 0.6031(5) 0.0974(2) -0.2882(7)
O1 O 0.6854(5) 0.14968(18) -0.0311(5)
O2 O 0.3138(5) 0.34841(18) -0.4759(5)
O3 O 0.4600(5) 0.29853(17) -0.1312(5)
O4 O 0.5073(5) 0.19592(16) -0.3539(5)
N3 N 0.3933(6) 0.2668(2) -0.3724(6)
C1 C 0.8914(7) 0.0402(2) 0.0517(8)
C2 C 0.6112(8) 0.0424(3) -0.4594(9)
N4 N 0.8503(7) 0.0856(2) 0.0930(6)
H1 H 0.8013 0.1031 0.0478
C3 C 0.9679(6) 0.0619(2) 0.2524(7)
C4 C 0.4641(7) 0.2368(3) -0.3131(8)
C5 C 0.9663(7) 0.0241(2) 0.1477(8)
O5 O 0.2747(5) 0.3152(2) -0.6804(5)
N5 N 0.5526(5) 0.22156(19) -0.1023(6)
C6 C 0.4939(7) 0.2556(3) -0.1703(7)
N6 N 0.6513(6) 0.0856(2) -0.4094(7)
H2 H 0.7020 0.1038 -0.4497
C7 C 0.6666(7) 0.1809(3) 0.0683(8)
C8 C 0.5317(7) 0.0600(2) -0.2608(8)
C9 C 0.5335(7) 0.0238(2) -0.3631(9)
C10 C 0.8525(9) 0.0169(3) -0.0779(9)
H3 H 0.7990 0.0388 -0.1226
H4 H 0.8162 -0.0148 -0.0583
H5 H 0.9171 0.0114 -0.1368
C11 C 0.3084(7) 0.3109(3) -0.5595(8)
C12 C 0.4641(8) 0.0622(3) -0.1308(9)
H6 H 0.4825 0.0926 -0.0821
H7 H 0.4825 0.0336 -0.0747
H8 H 0.3839 0.0618 -0.1519
O6 O 0.7070(5) 0.1763(2) 0.1843(6)
C13 C 0.4103(8) 0.1807(3) 0.1378(10)
C14 C 0.5872(7) 0.2261(3) 0.0412(8)
H9 H 0.6303 0.2574 0.0535
C15 C 0.4873(7) 0.2252(3) 0.1416(8)
H10 H 0.5182 0.2279 0.2337
H11 H 0.4412 0.2550 0.1255
C16 C 0.3071(10) 0.1838(4) 0.0735(12)
H12 H 0.2855 0.2134 0.0293
C17 C 0.3414(9) 0.2600(3) -0.5079(9)
H13 H 0.3924 0.2423 -0.5715
C18 C 0.2625(10) 0.0972(5) 0.1289(12)
H14 H 0.2124 0.0700 0.1289
C19 C 1.0350(8) 0.0668(3) 0.3808(9)
H15 H 1.0142 0.0975 0.4266
H16 H 1.1151 0.0674 0.3594
H17 H 1.0190 0.0387 0.4397
C20 C 0.3656(11) 0.0916(5) 0.1842(13)
H18 H 0.3887 0.0606 0.2187
C21 C 0.4387(9) 0.1332(3) 0.1893(10)
H19 H 0.5103 0.1291 0.2294
C22 C 0.6518(10) 0.0232(3) -0.5949(9)
H20 H 0.7058 0.0465 -0.6332
H21 H 0.5878 0.0197 -0.6559
H22 H 0.6878 -0.0090 -0.5827
C23 C 0.2295(12) 0.1398(5) 0.0747(14)
H23 H 0.1568 0.1425 0.0367
C24 C 0.2157(11) 0.1820(4) -0.4347(12)
C25 C 0.2192(10) 0.2334(4) -0.4958(12)
H24 H 0.1700 0.2550 -0.4416
H25 H 0.1864 0.2315 -0.5871
C26 C 0.2851(12) 0.1442(4) -0.4672(12)
H26 H 0.3425 0.1503 -0.5312
C27 C 0.1202(12) 0.1705(4) -0.3407(13)
H27 H 0.0653 0.1945 -0.3182
C28 C 0.1965(13) 0.0894(5) -0.3243(13)
H28 H 0.1952 0.0577 -0.2834
C29 C 0.1165(12) 0.1221(4) -0.2879(13)
H29 H 0.0586 0.1127 -0.2276
C30 C 0.2776(12) 0.0986(4) -0.4143(13)
H30 H 0.3286 0.0735 -0.4402
Cu1A Cu 1.12716(7) -0.16850(3) 0.28732(8)
Cu1C Cu 0.37284(7) 0.33150(3) -0.28732(8)
Cu1C_2 Cu 1.37284(7) 0.33150(3) -0.28732(8)
Cu2C Cu 1.10489(7) 0.33456(3) 0.20568(9)
Cu2C_2 Cu 0.10489(7) 0.33456(3) -0.79432(9)
Cu2A Cu 0.39511(7) -0.16544(3) -0.20568(9)
Cu2_2 Cu 0.60489(7) 0.16544(3) 0.79432(9)
N1A N 1.1040(5) -0.0994(2) 0.2134(6)
N2A N 0.3969(5) -0.0974(2) -0.2882(7)
N2C N 1.1031(5) 0.4026(2) 0.2882(7)
O1C O 1.1854(5) 0.35032(18) 0.0311(5)
O2C O 0.8138(5) 0.15159(18) 0.4759(5)
O2B O 1.1862(5) -0.15159(18) 0.4759(5)
O3C O 0.9600(5) 0.20147(17) 0.1312(5)
O3B O 1.0400(5) -0.20147(17) 0.1312(5)
O4C O 1.0073(5) 0.30408(16) 0.3539(5)
N3C N 0.8933(6) 0.2332(2) 0.3724(6)
N3B N 1.1067(6) -0.2332(2) 0.3724(6)
C1A C 1.1086(7) -0.0402(2) 0.0517(8)
C2A C 0.3888(8) -0.0424(3) -0.4594(9)
N4A N 1.1497(7) -0.0856(2) 0.0930(6)
H1A H 1.1987 -0.1031 0.0478
C3A C 1.0321(6) -0.0619(2) 0.2524(7)
C4C C 0.9641(7) 0.2632(3) 0.3131(8)
C5A C 1.0337(7) -0.0241(2) 0.1477(8)
O5C O 0.7747(5) 0.1848(2) 0.6804(5)
O5C_2 O 0.7747(5) 0.1848(2) -0.3196(5)
O5_2 O 1.2747(5) 0.3152(2) 0.3196(5)
N5C N 1.0526(5) 0.27844(19) 0.1023(6)
C6C C 0.9939(7) 0.2444(3) 0.1703(7)
N6A N 0.3487(6) -0.0856(2) -0.4094(7)
H2A H 0.2980 -0.1038 -0.4497
C7C C 1.1666(7) 0.3191(3) -0.0683(8)
C8A C 0.4683(7) -0.0600(2) -0.2608(8)
C9A C 0.4665(7) -0.0238(2) -0.3631(9)
C10A C 1.1475(9) -0.0169(3) -0.0779(9)
H3A H 1.2010 -0.0388 -0.1226
H4A H 1.1838 0.0148 -0.0583
H5A H 1.0829 -0.0114 -0.1368
C11C C 0.8084(7) 0.1891(3) 0.5595(8)
C12A C 0.5359(8) -0.0622(3) -0.1308(9)
H6A H 0.5175 -0.0926 -0.0821
H7A H 0.5175 -0.0336 -0.0747
H8A H 0.6161 -0.0618 -0.1519
O6C O 1.2070(5) 0.3237(2) -0.1843(6)
O6A O 1.2930(5) -0.1763(2) 0.1843(6)
C13C C 0.9103(8) 0.3193(3) -0.1378(10)
C14C C 1.0872(7) 0.2739(3) -0.0412(8)
H9C H 1.1303 0.2426 -0.0535
C15C C 0.9873(7) 0.2748(3) -0.1416(8)
H10C H 1.0182 0.2721 -0.2337
H11C H 0.9412 0.2450 -0.1255
C16C C 0.8071(10) 0.3162(4) -0.0735(12)
H12C H 0.7855 0.2866 -0.0293
C17C C 0.8414(9) 0.2400(3) 0.5079(9)
H13C H 0.8924 0.2577 0.5715
C18C C 0.7625(10) 0.4028(5) -0.1289(12)
H14C H 0.7124 0.4300 -0.1289
C19A C 0.9650(8) -0.0668(3) 0.3808(9)
H15A H 0.9858 -0.0975 0.4266
H16A H 0.8849 -0.0674 0.3594
H17A H 0.9810 -0.0387 0.4397
C20C C 0.8656(11) 0.4084(5) -0.1842(13)
H18C H 0.8887 0.4394 -0.2187
C21C C 0.9387(9) 0.3668(3) -0.1893(10)
H19C H 1.0103 0.3709 -0.2294
C22A C 0.3482(10) -0.0232(3) -0.5949(9)
H20A H 0.2942 -0.0465 -0.6332
H21A H 0.4122 -0.0197 -0.6559
H22A H 0.3122 0.0090 -0.5827
C23C C 0.7295(12) 0.3602(5) -0.0747(14)
H23C H 0.6568 0.3575 -0.0367
C24C C 0.7157(11) 0.3180(4) 0.4347(12)
C25C C 0.7192(10) 0.2666(4) 0.4958(12)
H24C H 0.6700 0.2450 0.4416
H25C H 0.6864 0.2685 0.5871
C26C C 0.7851(12) 0.3558(4) 0.4672(12)
H26C H 0.8425 0.3497 0.5312
C27C C 0.6202(12) 0.3295(4) 0.3407(13)
H27C H 0.5653 0.3055 0.3182
C28C C 0.6965(13) 0.4106(5) 0.3243(13)
H28C H 0.6952 0.4423 0.2834
C29C C 0.6165(12) 0.3779(4) 0.2879(13)
H29C H 0.5586 0.3873 0.2276
C30C C 0.7776(12) 0.4014(4) 0.4143(13)
H30C H 0.8286 0.4265 0.4402
loop_
_geom_bond_atom_site_label_1
_geom_bond_atom_site_label_2
_geom_bond_site_symmetry_1
_geom_bond_site_symmetry_2
Cu1 N1 1_555 1_555
Cu2 N2 1_555 1_555
N1 N4 1_555 1_555
N2 N6 1_555 1_555
O1 Cu2 1_555 1_555
O2 C11 1_555 1_555
O3 C6 1_555 1_555
O4 Cu2 1_555 1_555
N3 C4 1_555 1_555
C1 N4 1_555 1_555
C2 N6 1_555 1_555
N4 H1 1_555 1_555
C3 N1 1_555 1_555
C4 O4 1_555 1_555
C5 C1 1_555 1_555
O5 C11 1_555 1_555
N5 Cu2 1_555 1_555
C6 C4 1_555 1_555
N6 H2 1_555 1_555
C7 O1 1_555 1_555
C8 N2 1_555 1_555
C9 C2 1_555 1_555
C10 C1 1_555 1_555
H3 C10 1_555 1_555
H4 C10 1_555 1_555
H5 C10 1_555 1_555
C11 C17 1_555 1_555
C12 C8 1_555 1_555
H6 C12 1_555 1_555
H7 C12 1_555 1_555
H8 C12 1_555 1_555
O6 Cu1 1_555 1_555
C13 C15 1_555 1_555
C14 N5 1_555 1_555
H9 C14 1_555 1_555
C15 C14 1_555 1_555
H10 C15 1_555 1_555
H11 C15 1_555 1_555
C16 C13 1_555 1_555
H12 C16 1_555 1_555
C17 N3 1_555 1_555
H13 C17 1_555 1_555
C18 H14 1_555 1_555
C19 C3 1_555 1_555
H15 C19 1_555 1_555
H16 C19 1_555 1_555
H17 C19 1_555 1_555
C20 C18 1_555 1_555
H18 C20 1_555 1_555
C21 C13 1_555 1_555
H19 C21 1_555 1_555
C22 C2 1_555 1_555
H20 C22 1_555 1_555
H21 C22 1_555 1_555
H22 C22 1_555 1_555
C23 C16 1_555 1_555
H23 C23 1_555 1_555
C24 C25 1_555 1_555
C25 C17 1_555 1_555
H24 C25 1_555 1_555
H25 C25 1_555 1_555
C26 C24 1_555 1_555
H26 C26 1_555 1_555
C27 C24 1_555 1_555
H27 C27 1_555 1_555
C28 H28 1_555 1_555
C29 C27 1_555 1_555
H29 C29 1_555 1_555
C30 C26 1_555 1_555
H30 C30 1_555 1_555
Cu1A N1A 1_555 1_555
Cu1C O2 1_555 1_555
Cu1C_2 O6C 1_555 1_555
Cu2C N2C 1_555 1_555
Cu2C_2 O5 1_555 1_555
Cu2A N2A 1_555 1_555
Cu2_2 O5C 1_555 1_555
N1A N4A 1_555 1_555
N2A N6A 1_555 1_555
O1C Cu2C 1_555 1_555
O2C Cu1 1_555 1_555
O2B Cu1A 1_555 1_555
O3C Cu1 1_555 1_555
O3B Cu1A 1_555 1_555
O4C Cu2C 1_555 1_555
N3C Cu1 1_555 1_555
N3B Cu1A 1_555 1_555
C1A N4A 1_555 1_555
C2A N6A 1_555 1_555
N4A H1A 1_555 1_555
C3A N1A 1_555 1_555
C4C O4C 1_555 1_555
C5A C5 1_555 1_555
O5C C11C 1_555 1_555
O5C_2 Cu2 1_555 1_555
O5_2 Cu2C 1_555 1_555
N5C Cu2C 1_555 1_555
C6C O3C 1_555 1_555
N6A H2A 1_555 1_555
C7C O1C 1_555 1_555
C8A N2A 1_555 1_555
C9A C9 1_555 1_555
C10A C1A 1_555 1_555
H3A C10A 1_555 1_555
H4A C10A 1_555 1_555
H5A C10A 1_555 1_555
C11C O2C 1_555 1_555
C12A C8A 1_555 1_555
H6A C12A 1_555 1_555
H7A C12A 1_555 1_555
H8A C12A 1_555 1_555
O6C C7C 1_555 1_555
O6A Cu1A 1_555 1_555
C13C C15C 1_555 1_555
C14C N5C 1_555 1_555
H9C C14C 1_555 1_555
C15C C14C 1_555 1_555
H10C C15C 1_555 1_555
H11C C15C 1_555 1_555
C16C C13C 1_555 1_555
H12C C16C 1_555 1_555
C17C N3C 1_555 1_555
H13C C17C 1_555 1_555
C18C H14C 1_555 1_555
C19A C3A 1_555 1_555
H15A C19A 1_555 1_555
H16A C19A 1_555 1_555
H17A C19A 1_555 1_555
C20C C18C 1_555 1_555
H18C C20C 1_555 1_555
C21C C13C 1_555 1_555
H19C C21C 1_555 1_555
C22A C2A 1_555 1_555
H20A C22A 1_555 1_555
H21A C22A 1_555 1_555
H22A C22A 1_555 1_555
C23C C16C 1_555 1_555
H23C C23C 1_555 1_555
C24C C25C 1_555 1_555
C25C C17C 1_555 1_555
H24C C25C 1_555 1_555
H25C C25C 1_555 1_555
C26C C24C 1_555 1_555
H26C C26C 1_555 1_555
C27C C24C 1_555 1_555
H27C C27C 1_555 1_555
C28C H28C 1_555 1_555
C29C C27C 1_555 1_555
H29C C29C 1_555 1_555
C30C C26C 1_555 1_555
H30C C30C 1_555 1_555
O3 Cu1C 1_555 1_555
N3 Cu1C 1_555 1_555
C3 C5 1_555 1_555
N5 C6 1_555 1_555
C7 O6 1_555 1_555
C7 C14 1_555 1_555
C8 C9 1_555 1_555
C18 C23 1_555 1_555
C20 C21 1_555 1_555
C28 C29 1_555 1_555
C28 C30 1_555 1_555
N3C C4C 1_555 1_555
C1A C5A 1_555 1_555
C2A C9A 1_555 1_555
C3A C5A 1_555 1_555
C4C C6C 1_555 1_555
N5C C6C 1_555 1_555
C7C C14C 1_555 1_555
C8A C9A 1_555 1_555
C11C C17C 1_555 1_555
C18C C23C 1_555 1_555
C20C C21C 1_555 1_555
C28C C29C 1_555 1_555
C28C C30C 1_555 1_555

#END
