
#######################################################################
#
#                 Cambridge Crystallographic Data Centre
#                                CCDC 
#
#######################################################################
#
# If this CIF has been generated from an entry in the Cambridge 
# Structural Database, then it will include bibliographic, chemical, 
# crystal, experimental, refinement or atomic coordinate data resulting 
# from the CCDC's data processing and validation procedures.
#
#######################################################################

data_PEFTIF
_symmetry_cell_setting           triclinic
_symmetry_space_group_name_H-M   'P -1'
_symmetry_Int_Tables_number      2
_space_group_name_Hall           '-P 1'
loop_
_symmetry_equiv_pos_site_id
_symmetry_equiv_pos_as_xyz
1 x,y,z
2 -x,-y,-z
_cell_length_a                   9.4178(6)
_cell_length_b                   10.2005(7)
_cell_length_c                   12.0937(9)
_cell_angle_alpha                76.185(6)
_cell_angle_beta                 89.248(6)
_cell_angle_gamma                67.319(6)
_cell_volume                     1036.89
loop_
_atom_site_label
_atom_site_type_symbol
_atom_site_fract_x
_atom_site_fract_y
_atom_site_fract_z
Co1 Co 0.22913(4) 0.57007(3) 0.27105(3)
C1 C 0.2873(3) 0.3202(2) 0.16324(19)
C2 C 0.3564(3) 0.1941(3) 0.1224(2)
C3 C 0.5214(3) 0.3279(3) 0.2025(2)
H1 H 0.5789 0.3709 0.2310
C4 C 0.2604(4) 0.1317(3) 0.0831(2)
H2 H 0.3063 0.0440 0.0615
C5 C 0.5996(3) 0.2060(3) 0.1590(2)
H3 H 0.7062 0.1715 0.1562
C6 C 0.1223(3) 0.3883(2) 0.15855(18)
C7 C 0.5180(4) 0.1388(3) 0.1209(2)
H4 H 0.5689 0.0561 0.0939
C8 C 0.0308(3) 0.3304(3) 0.11190(19)
C9 C 0.1050(4) 0.1967(3) 0.0767(2)
H5 H 0.0455 0.1548 0.0492
C10 C -0.1299(3) 0.4085(3) 0.1014(2)
H6 H -0.1944 0.3753 0.0691
C11 C -0.0912(3) 0.5801(3) 0.1877(2)
H7 H -0.1343 0.6641 0.2144
N1 N 0.0606(2) 0.5114(2) 0.19789(16)
C12 C 0.1063(3) 0.0368(2) 0.64448(19)
C13 C 0.2130(3) 0.0625(2) 0.5703(2)
C14 C 0.2540(3) -0.1591(3) 0.5132(2)
H8 H 0.3023 -0.2227 0.4679
C15 C 0.0183(3) 0.1382(3) 0.7179(2)
O1 O 0.0319(2) 0.0833(2) 0.82305(15)
C16 C 0.0769(3) -0.0890(2) 0.6521(2)
H9 H 0.0074 -0.1080 0.7023
C17 C 0.2868(3) -0.0344(3) 0.5076(2)
H10 H 0.3602 -0.0181 0.4603
C18 C 0.1495(3) -0.1858(3) 0.5864(2)
H11 H 0.1277 -0.2685 0.5916
C19 C 0.2557(3) 0.1920(2) 0.5600(2)
C20 C 0.3973(3) 0.3135(2) 0.62791(19)
C21 C 0.3480(3) 0.1992(2) 0.64497(19)
H12 H 0.3769 0.1270 0.7136
N2 N 0.2598(2) 0.4161(2) 0.44033(16)
C22 C 0.2160(3) 0.3022(2) 0.4591(2)
H13 H 0.1559 0.2970 0.4012
C23 C 0.3475(3) 0.4201(2) 0.52498(19)
H14 H 0.3768 0.4992 0.5140
C24 C -0.1909(3) 0.5330(3) 0.1386(2)
H15 H -0.2972 0.5861 0.1317
N3 N 0.3694(2) 0.3848(2) 0.20487(17)
C25 C 0.5113(3) 0.3161(2) 0.7137(2)
O2 O 0.5349(2) 0.23251(19) 0.81085(14)
O3 O 0.5746(2) 0.40533(18) 0.67702(14)
O4 O -0.0636(2) 0.26871(17) 0.66667(14)
O5 O 0.2168(3) 0.7254(2) 0.10982(15)
H16 H 0.135(3) 0.797(3) 0.118(3)
H17 H 0.295(3) 0.742(3) 0.122(3)
Co1A Co 0.77087(4) 0.42993(3) 0.72895(3)
Co1A_2 Co -0.22913(4) 0.42993(3) 0.72895(3)
O3A O 0.4254(2) 0.59467(18) 0.32298(14)
O4A O 0.0636(2) 0.73129(17) 0.33333(14)
loop_
_geom_bond_atom_site_label_1
_geom_bond_atom_site_label_2
_geom_bond_site_symmetry_1
_geom_bond_site_symmetry_2
Co1 N1 1_555 1_555
C1 C2 1_555 1_555
C2 C4 1_555 1_555
C3 H1 1_555 1_555
C4 H2 1_555 1_555
C5 C3 1_555 1_555
H3 C5 1_555 1_555
C6 C1 1_555 1_555
C7 C2 1_555 1_555
H4 C7 1_555 1_555
C8 C6 1_555 1_555
C9 C4 1_555 1_555
H5 C9 1_555 1_555
C10 C8 1_555 1_555
H6 C10 1_555 1_555
C11 H7 1_555 1_555
N1 C6 1_555 1_555
C12 C13 1_555 1_555
C13 C17 1_555 1_555
C14 H8 1_555 1_555
C15 C12 1_555 1_555
O1 C15 1_555 1_555
C16 C12 1_555 1_555
H9 C16 1_555 1_555
C17 C14 1_555 1_555
H10 C17 1_555 1_555
C18 C14 1_555 1_555
H11 C18 1_555 1_555
C19 C13 1_555 1_555
C20 C21 1_555 1_555
C21 C19 1_555 1_555
H12 C21 1_555 1_555
N2 Co1 1_555 1_555
C22 C19 1_555 1_555
H13 C22 1_555 1_555
C23 C20 1_555 1_555
H14 C23 1_555 1_555
C24 C10 1_555 1_555
H15 C24 1_555 1_555
N3 Co1 1_555 1_555
C25 C20 1_555 1_555
O2 C25 1_555 1_555
O3 C25 1_555 1_555
O4 C15 1_555 1_555
O5 Co1 1_555 1_555
H16 O5 1_555 1_555
H17 O5 1_555 1_555
Co1A O3 1_555 1_555
Co1A_2 O4 1_555 1_555
O3A Co1 1_555 1_555
O4A Co1 1_555 1_555
C1 N3 1_555 1_555
C3 N3 1_555 1_555
C5 C7 1_555 1_555
C8 C9 1_555 1_555
C11 N1 1_555 1_555
C11 C24 1_555 1_555
C16 C18 1_555 1_555
N2 C22 1_555 1_555
N2 C23 1_555 1_555

#END
