
#######################################################################
#
#                 Cambridge Crystallographic Data Centre
#                                CCDC 
#
#######################################################################
#
# If this CIF has been generated from an entry in the Cambridge 
# Structural Database, then it will include bibliographic, chemical, 
# crystal, experimental, refinement or atomic coordinate data resulting 
# from the CCDC's data processing and validation procedures.
#
#######################################################################

data_PEFTOL
_symmetry_cell_setting           triclinic
_symmetry_space_group_name_H-M   'P -1'
_symmetry_Int_Tables_number      2
_space_group_name_Hall           '-P 1'
loop_
_symmetry_equiv_pos_site_id
_symmetry_equiv_pos_as_xyz
1 x,y,z
2 -x,-y,-z
_cell_length_a                   9.172(10)
_cell_length_b                   13.688(15)
_cell_length_c                   14.179(15)
_cell_angle_alpha                97.073(11)
_cell_angle_beta                 96.666(10)
_cell_angle_gamma                105.301(10)
_cell_volume                     1683.3
loop_
_atom_site_label
_atom_site_type_symbol
_atom_site_fract_x
_atom_site_fract_y
_atom_site_fract_z
C1 C 0.3967(6) 0.4226(4) 0.2861(4)
H1 H 0.4316 0.4932 0.3064
N1 N 0.2876(6) 0.2137(4) 0.2231(4)
C2 C 0.2159(7) 0.2618(4) 0.2812(4)
H2 H 0.1270 0.2232 0.2993
C3 C 0.2653(6) 0.3655(4) 0.3163(4)
O1 O 0.0626(4) 0.3530(3) 0.4073(3)
C4 C 0.1749(7) 0.4126(5) 0.3823(4)
O2 O 0.2189(4) 0.5097(3) 0.4080(3)
Eu1 Eu 0.87258(3) 0.36010(2) 0.51224(2)
C5 C 0.9480(7) 0.2574(4) 0.6647(4)
C6 C 0.7956(6) 0.4510(5) 0.3416(4)
N2 N 0.5822(5) 0.2696(4) 0.5030(3)
O3 O 0.9062(4) 0.5147(3) 0.4017(3)
O4 O 1.0194(4) 0.2547(3) 0.5929(3)
O5 O 0.8318(4) 0.2908(3) 0.6629(3)
C7 C 0.7603(6) 0.4714(4) 0.2422(4)
C8 C 0.6191(7) 0.1215(4) 0.4141(4)
C9 C 0.4750(6) 0.3755(4) 0.2265(4)
C10 C 0.3087(8) 0.0162(5) 0.3999(6)
H3 H 0.2057 -0.0186 0.3955
C11 C 0.9267(7) 0.2094(4) 0.8290(4)
H4 H 0.8255 0.2113 0.8218
C12 C 0.4007(8) -0.0309(5) 0.3585(5)
H5 H 0.3607 -0.0979 0.3263
C13 C 0.7223(8) 0.0941(5) 1.0884(6)
H6 H 0.6436 0.0372 1.0939
C14 C 0.5223(7) 0.1721(4) 0.4559(4)
C15 C 0.8818(7) 0.5186(4) 0.1983(4)
H7 H 0.9782 0.5472 0.2349
C16 C 0.6142(6) 0.4305(4) 0.1872(4)
C17 C 0.8649(8) 0.1233(5) 0.3876(5)
H8 H 0.9690 0.1569 0.3973
N3 N 0.7719(6) 0.1725(3) 0.4242(3)
C18 C 0.4890(7) 0.3158(5) 0.5413(5)
H9 H 0.5297 0.3837 0.5709
C19 C 0.4143(7) 0.2706(5) 0.1970(4)
H10 H 0.4652 0.2376 0.1562
O6 O 0.7244(5) 0.3675(3) 0.3632(3)
C20 C 1.0108(7) 0.2266(4) 0.7543(4)
C21 C 0.8616(8) 0.5239(5) 0.1011(5)
H11 H 0.9444 0.5550 0.0725
C22 C 0.3650(7) 0.1191(5) 0.4511(5)
C23 C 0.3334(7) 0.2701(5) 0.5406(5)
H12 H 0.2730 0.3063 0.5692
C24 C 0.7204(8) 0.4835(5) 0.0473(5)
H13 H 0.7066 0.4868 -0.0181
C25 C 0.9129(7) 0.1781(5) 0.9998(4)
C26 C 0.2734(7) 0.1713(6) 0.4970(5)
H14 H 0.1711 0.1380 0.4975
C27 C 0.5604(8) 0.0202(5) 0.3629(5)
C28 C 0.7408(10) -0.0049(6) 0.9365(6)
C29 C 0.8820(9) 0.2598(6) 1.1535(5)
H15 H 0.9141 0.3154 1.2031
C30 C 1.1603(8) 0.2224(5) 0.7695(5)
H16 H 1.2168 0.2337 0.7195
C31 C 0.8145(9) 0.0242(5) 0.3357(5)
H17 H 0.8832 -0.0068 0.3102
C32 C 0.7958(7) 0.0919(5) 1.0075(5)
N4 N 1.2296(7) 0.2037(5) 0.8498(4)
C33 C 0.6623(9) -0.0263(5) 0.3232(5)
H18 H 0.6263 -0.0922 0.2880
C34 C 0.7632(9) 0.1779(7) 1.1599(5)
H19 H 0.7106 0.1787 1.2121
O7 O 0.8272(6) -0.0181(3) 0.8742(4)
H20 H 0.7860 -0.0719 0.8372
C35 C 0.9551(8) 0.2606(5) 1.0736(5)
H21 H 1.0343 0.3178 1.0694
C36 C 0.5973(8) 0.4375(5) 0.0903(5)
H22 H 0.5011 0.4107 0.0531
O8 O 0.6289(7) -0.0732(5) 0.9473(5)
C37 C 0.9942(8) 0.1894(4) 0.9142(4)
C38 C 1.1448(8) 0.1886(5) 0.9206(5)
H23 H 1.1913 0.1766 0.9783
O1_2 O 1.0626(4) 0.3530(3) 0.4073(3)
O2A O 0.7811(4) 0.4903(3) 0.5920(3)
Eu1_2 Eu -0.12742(3) 0.36010(2) 0.51224(2)
Eu1A Eu 0.12742(3) 0.63990(2) 0.48776(2)
Eu1A_2 Eu 1.12742(3) 0.63990(2) 0.48776(2)
O3A O 1.0938(4) 0.4853(3) 0.5983(3)
O9 O 0.3416(11) 0.6259(6) 0.2036(6)
H24 H 0.2917 0.6485 0.2408
H25 H 0.3643 0.6729 0.1727
O10 O 0.4590(6) 0.8014(4) 0.1092(4)
H26 H 0.4417 0.7401 0.0854
H27 H 0.5517 0.8008 0.1216
loop_
_geom_bond_atom_site_label_1
_geom_bond_atom_site_label_2
_geom_bond_site_symmetry_1
_geom_bond_site_symmetry_2
C1 H1 1_555 1_555
N1 C2 1_555 1_555
C2 H2 1_555 1_555
C3 C1 1_555 1_555
O1 C4 1_555 1_555
C4 C3 1_555 1_555
O2 C4 1_555 1_555
Eu1 N2 1_555 1_555
C5 O4 1_555 1_555
C6 O3 1_555 1_555
N2 C14 1_555 1_555
O3 Eu1 1_555 1_555
O4 Eu1 1_555 1_555
O5 Eu1 1_555 1_555
C7 C6 1_555 1_555
C8 C14 1_555 1_555
C9 C1 1_555 1_555
C10 H3 1_555 1_555
C11 H4 1_555 1_555
C12 C10 1_555 1_555
H5 C12 1_555 1_555
C13 H6 1_555 1_555
C14 C22 1_555 1_555
C15 C7 1_555 1_555
H7 C15 1_555 1_555
C16 C7 1_555 1_555
C17 H8 1_555 1_555
N3 Eu1 1_555 1_555
C18 N2 1_555 1_555
H9 C18 1_555 1_555
C19 N1 1_555 1_555
H10 C19 1_555 1_555
O6 Eu1 1_555 1_555
C20 C5 1_555 1_555
C21 C15 1_555 1_555
H11 C21 1_555 1_555
C22 C10 1_555 1_555
C23 C18 1_555 1_555
H12 C23 1_555 1_555
C24 C21 1_555 1_555
H13 C24 1_555 1_555
C25 C32 1_555 1_555
C26 C22 1_555 1_555
H14 C26 1_555 1_555
C27 C8 1_555 1_555
C28 C32 1_555 1_555
C29 H15 1_555 1_555
C30 C20 1_555 1_555
H16 C30 1_555 1_555
C31 C17 1_555 1_555
H17 C31 1_555 1_555
C32 C13 1_555 1_555
N4 C30 1_555 1_555
C33 C27 1_555 1_555
H18 C33 1_555 1_555
C34 C13 1_555 1_555
H19 C34 1_555 1_555
O7 C28 1_555 1_555
H20 O7 1_555 1_555
C35 C25 1_555 1_555
H21 C35 1_555 1_555
C36 C16 1_555 1_555
H22 C36 1_555 1_555
O8 C28 1_555 1_555
C37 C11 1_555 1_555
C38 N4 1_555 1_555
H23 C38 1_555 1_555
O9 H24 1_555 1_555
H25 O9 1_555 1_555
O10 H26 1_555 1_555
H27 O10 1_555 1_555
O1_2 Eu1 1_555 1_555
O2A Eu1 1_555 1_555
Eu1_2 O1 1_555 1_555
Eu1A O2 1_555 1_555
Eu1A_2 O3 1_555 1_555
O3A Eu1 1_555 1_555
C2 C3 1_555 1_555
C5 O5 1_555 1_555
C6 O6 1_555 1_555
C8 N3 1_555 1_555
C9 C16 1_555 1_555
C9 C19 1_555 1_555
C11 C20 1_555 1_555
C12 C27 1_555 1_555
C17 N3 1_555 1_555
C23 C26 1_555 1_555
C24 C36 1_555 1_555
C25 C37 1_555 1_555
C29 C34 1_555 1_555
C29 C35 1_555 1_555
C31 C33 1_555 1_555
C37 C38 1_555 1_555
Eu1A_2 O3A 1_555 1_555

#END
