
#######################################################################
#
#                 Cambridge Crystallographic Data Centre
#                                CCDC 
#
#######################################################################
#
# If this CIF has been generated from an entry in the Cambridge 
# Structural Database, then it will include bibliographic, chemical, 
# crystal, experimental, refinement or atomic coordinate data resulting 
# from the CCDC's data processing and validation procedures.
#
#######################################################################

data_PEFTEB
_symmetry_cell_setting           monoclinic
_symmetry_space_group_name_H-M   'P 21/c'
_symmetry_Int_Tables_number      14
_space_group_name_Hall           '-P 2ybc'
loop_
_symmetry_equiv_pos_site_id
_symmetry_equiv_pos_as_xyz
1 x,y,z
2 -x,1/2+y,1/2-z
3 -x,-y,-z
4 x,1/2-y,1/2+z
_cell_length_a                   16.603(12)
_cell_length_b                   9.712(7)
_cell_length_c                   12.777(9)
_cell_angle_alpha                90
_cell_angle_beta                 105.503(6)
_cell_angle_gamma                90
_cell_volume                     1985.31
loop_
_atom_site_label
_atom_site_type_symbol
_atom_site_fract_x
_atom_site_fract_y
_atom_site_fract_z
Co1 Co 0.22577(3) 0.03357(4) 0.37749(3)
N1 N 0.27823(16) -0.0265(2) 0.5442(2)
N2 N 0.09960(17) -0.0194(2) 0.3778(2)
N3 N 0.17464(16) 0.2230(2) 0.4217(2)
C1 C 0.3697(2) 0.0084(3) 0.7226(3)
C2 C 0.3406(2) 0.0415(3) 0.6124(3)
H1 H 0.3658 0.1139 0.5855
C3 C 0.3335(2) -0.1017(3) 0.7610(3)
H2 H 0.3524 -0.1276 0.8335
C4 C 0.0495(2) 0.0882(3) 0.3844(2)
C5 C 0.0919(2) 0.2236(3) 0.4090(2)
C6 C 0.2440(2) -0.1320(3) 0.5842(3)
H3 H 0.2008 -0.1801 0.5370
C7 C 0.4425(2) 0.0851(3) 0.7978(2)
C8 C 0.0926(2) 0.4662(3) 0.4381(3)
H4 H 0.0650 0.5480 0.4440
C9 C 0.4325(2) 0.2178(3) 0.8379(3)
C10 C 0.26876(19) -0.1737(3) 0.6910(2)
C11 C -0.0184(2) -0.1702(3) 0.3471(3)
H5 H -0.0396 -0.2593 0.3369
C12 C 0.0653(2) -0.1446(3) 0.3589(3)
H6 H 0.0996 -0.2183 0.3533
C13 C 0.5144(2) 0.0209(4) 0.8299(3)
H7 H 0.5198 -0.0661 0.8021
C14 C 0.0490(2) 0.3448(3) 0.4171(3)
H8 H -0.0084 0.3434 0.4085
C15 C 0.1774(2) 0.4661(3) 0.4501(3)
H9 H 0.2080 0.5474 0.4632
C16 C 0.2158(2) 0.3420(3) 0.4423(3)
H10 H 0.2734 0.3414 0.4520
C17 C -0.0698(2) -0.0592(4) 0.3510(3)
H11 H -0.1269 -0.0721 0.3409
C18 C -0.0355(2) 0.0706(3) 0.3702(3)
H12 H -0.0693 0.1459 0.3734
C19 C 0.5755(2) 0.2094(4) 0.9457(3)
H13 H 0.6207 0.2508 0.9945
C20 C 0.4998(2) 0.2770(3) 0.9132(3)
H14 H 0.4937 0.3631 0.9420
C21 C 0.5837(2) 0.0799(4) 0.9053(3)
H15 H 0.6340 0.0324 0.9274
C22 C 0.22480(19) -0.2945(3) 0.7261(3)
C23 C 0.3519(2) 0.2982(3) 0.8042(3)
O1 O 0.16308(14) -0.3416(2) 0.65614(18)
O2 O 0.25245(14) -0.3387(2) 0.82221(17)
O3 O 0.33579(14) 0.3724(2) 0.87664(18)
O4 O 0.30820(18) 0.2879(3) 0.7094(2)
O5 O 0.16596(16) 0.1035(2) 0.21373(18)
H16 H 0.1554 0.0371 0.1728
H17 H 0.215(3) 0.143(4) 0.200(3)
Co1C Co 0.22577(3) -0.53357(4) 0.87749(3)
Co1C_2 Co 0.22577(3) 0.46643(4) 0.87749(3)
O2C O 0.25245(14) -0.1613(2) 0.32221(17)
O3C O 0.33579(14) 0.1276(2) 0.37664(18)
loop_
_geom_bond_atom_site_label_1
_geom_bond_atom_site_label_2
_geom_bond_site_symmetry_1
_geom_bond_site_symmetry_2
Co1 N1 1_555 1_555
N1 C2 1_555 1_555
N2 Co1 1_555 1_555
N3 Co1 1_555 1_555
C1 C2 1_555 1_555
C2 H1 1_555 1_555
C3 C1 1_555 1_555
H2 C3 1_555 1_555
C4 N2 1_555 1_555
C5 N3 1_555 1_555
C6 N1 1_555 1_555
H3 C6 1_555 1_555
C7 C1 1_555 1_555
C8 H4 1_555 1_555
C9 C7 1_555 1_555
C10 C3 1_555 1_555
C11 H5 1_555 1_555
C12 N2 1_555 1_555
H6 C12 1_555 1_555
C13 C7 1_555 1_555
H7 C13 1_555 1_555
C14 C5 1_555 1_555
H8 C14 1_555 1_555
C15 C8 1_555 1_555
H9 C15 1_555 1_555
C16 N3 1_555 1_555
H10 C16 1_555 1_555
C17 C11 1_555 1_555
H11 C17 1_555 1_555
C18 C4 1_555 1_555
H12 C18 1_555 1_555
C19 H13 1_555 1_555
C20 C9 1_555 1_555
H14 C20 1_555 1_555
C21 C13 1_555 1_555
H15 C21 1_555 1_555
C22 C10 1_555 1_555
C23 C9 1_555 1_555
O1 C22 1_555 1_555
O2 C22 1_555 1_555
O3 C23 1_555 1_555
O4 C23 1_555 1_555
O5 Co1 1_555 1_555
H16 O5 1_555 1_555
H17 O5 1_555 1_555
Co1C O2 1_555 1_555
Co1C_2 O3 1_555 1_555
O2C Co1 1_555 1_555
O3C Co1 1_555 1_555
C4 C5 1_555 1_555
C6 C10 1_555 1_555
C8 C14 1_555 1_555
C11 C12 1_555 1_555
C15 C16 1_555 1_555
C17 C18 1_555 1_555
C19 C20 1_555 1_555
C19 C21 1_555 1_555

#END
