
#######################################################################
#
#                 Cambridge Crystallographic Data Centre
#                                CCDC 
#
#######################################################################
#
# If this CIF has been generated from an entry in the Cambridge 
# Structural Database, then it will include bibliographic, chemical, 
# crystal, experimental, refinement or atomic coordinate data resulting 
# from the CCDC's data processing and validation procedures.
#
#######################################################################

data_PEFVED
_symmetry_cell_setting           triclinic
_symmetry_space_group_name_H-M   'P -1'
_symmetry_Int_Tables_number      2
_space_group_name_Hall           '-P 1'
loop_
_symmetry_equiv_pos_site_id
_symmetry_equiv_pos_as_xyz
1 x,y,z
2 -x,-y,-z
_cell_length_a                   9.397(4)
_cell_length_b                   10.234(4)
_cell_length_c                   12.236(5)
_cell_angle_alpha                76.491(4)
_cell_angle_beta                 89.120(4)
_cell_angle_gamma                67.549(4)
_cell_volume                     1053.87
loop_
_atom_site_label
_atom_site_type_symbol
_atom_site_fract_x
_atom_site_fract_y
_atom_site_fract_z
Mn1 Mn 0.72539(8) 0.57603(8) 0.76896(6)
O1 O 0.7187(4) 0.7397(4) 0.6107(3)
H1 H 0.7958 0.7588 0.6119
H2 H 0.6403 0.8095 0.6242
N1 N 0.7581(4) 0.4144(4) 0.9422(3)
C1 C 0.8487(6) 0.1876(5) 0.6204(4)
N2 N 0.5530(4) 0.5079(4) 0.6914(3)
C2 C 0.7791(5) 0.3153(5) 0.6581(4)
C3 C 1.0097(6) 0.1294(6) 0.6201(4)
H3 H 1.0595 0.0457 0.5946
C4 C 0.3023(6) 0.5283(6) 0.6325(4)
H4 H 0.1961 0.5816 0.6246
C5 C 0.6147(5) 0.3847(5) 0.6532(4)
C6 C 1.0164(6) 0.3189(6) 0.6986(4)
H5 H 1.0751 0.3607 0.7270
N3 N 0.8647(4) 0.3777(4) 0.6987(3)
C7 C 0.5234(6) 0.3269(5) 0.6063(4)
C8 C 0.3627(6) 0.4044(6) 0.5971(4)
H6 H 0.2978 0.3703 0.5665
C9 C 0.4017(6) 0.5758(5) 0.6817(4)
H7 H 0.3586 0.6592 0.7087
C10 C 1.0920(6) 0.1955(6) 0.6570(5)
H8 H 1.1988 0.1593 0.6549
C11 C 0.7563(5) 0.1899(5) 1.0576(4)
C12 C 0.7506(7) 0.1277(6) 0.5803(4)
H9 H 0.7953 0.0401 0.5590
C13 C 0.5957(7) 0.1945(5) 0.5726(4)
H10 H 0.5353 0.1535 0.5450
C14 C 0.8461(5) 0.4184(5) 1.0264(4)
H11 H 0.8767 0.4964 1.0161
C15 C 0.7165(5) 0.3004(5) 0.9594(4)
H12 H 0.6572 0.2949 0.9017
C16 C 0.8933(5) 0.3128(5) 1.1270(4)
C17 C 1.0044(5) 0.3166(5) 1.2130(4)
C18 C 0.8454(5) 0.1989(5) 1.1419(4)
H13 H 0.8734 0.1273 1.2094
C19 C 0.7143(5) 0.0611(5) 1.0665(4)
C20 C 0.7863(5) -0.0322(5) 1.0035(4)
H14 H 0.8587 -0.0145 0.9561
C21 C 0.7537(6) -0.1564(6) 1.0082(5)
H15 H 0.7988 -0.2167 0.9603
C22 C 0.6552(6) -0.1887(6) 1.0838(5)
H16 H 0.6356 -0.2724 1.0894
C23 C 0.5858(6) -0.0950(5) 1.1511(4)
H17 H 0.5190 -0.1163 1.2025
C24 C 0.6133(5) 0.0301(5) 1.1440(4)
C25 C 0.5266(5) 0.1293(6) 1.2187(4)
O2 O 1.0669(4) 0.4074(4) 1.1803(3)
O3 O 1.0282(4) 0.2309(4) 1.3067(3)
O4 O 0.4537(4) 0.2611(4) 1.1716(3)
O5 O 0.5335(4) 0.0720(4) 1.3202(3)
Mn1A Mn 1.27461(8) 0.42397(8) 1.23104(6)
Mn1A_2 Mn 0.27461(8) 0.42397(8) 1.23104(6)
O2A O 0.9331(4) 0.5926(4) 0.8197(3)
O4A O 0.5463(4) 0.7389(4) 0.8284(3)
loop_
_geom_bond_atom_site_label_1
_geom_bond_atom_site_label_2
_geom_bond_site_symmetry_1
_geom_bond_site_symmetry_2
Mn1 O1 1_555 1_555
O1 H1 1_555 1_555
H2 O1 1_555 1_555
N1 Mn1 1_555 1_555
C1 C2 1_555 1_555
N2 Mn1 1_555 1_555
C2 C5 1_555 1_555
C3 C1 1_555 1_555
H3 C3 1_555 1_555
C4 H4 1_555 1_555
C5 N2 1_555 1_555
C6 H5 1_555 1_555
N3 Mn1 1_555 1_555
C7 C5 1_555 1_555
C8 C4 1_555 1_555
H6 C8 1_555 1_555
C9 N2 1_555 1_555
H7 C9 1_555 1_555
C10 C3 1_555 1_555
H8 C10 1_555 1_555
C11 C15 1_555 1_555
C12 C1 1_555 1_555
H9 C12 1_555 1_555
C13 C7 1_555 1_555
H10 C13 1_555 1_555
C14 N1 1_555 1_555
H11 C14 1_555 1_555
C15 N1 1_555 1_555
H12 C15 1_555 1_555
C16 C14 1_555 1_555
C17 C16 1_555 1_555
C18 C11 1_555 1_555
H13 C18 1_555 1_555
C19 C11 1_555 1_555
C20 C19 1_555 1_555
H14 C20 1_555 1_555
C21 C20 1_555 1_555
H15 C21 1_555 1_555
C22 C21 1_555 1_555
H16 C22 1_555 1_555
C23 C22 1_555 1_555
H17 C23 1_555 1_555
C24 C19 1_555 1_555
C25 C24 1_555 1_555
O2 C17 1_555 1_555
O3 C17 1_555 1_555
O4 C25 1_555 1_555
O5 C25 1_555 1_555
Mn1A O2 1_555 1_555
Mn1A_2 O4 1_555 1_555
O2A Mn1 1_555 1_555
O4A Mn1 1_555 1_555
C2 N3 1_555 1_555
C4 C9 1_555 1_555
C6 N3 1_555 1_555
C6 C10 1_555 1_555
C7 C8 1_555 1_555
C12 C13 1_555 1_555
C16 C18 1_555 1_555
C23 C24 1_555 1_555

#END
