
#######################################################################
#
#                 Cambridge Crystallographic Data Centre
#                                CCDC 
#
#######################################################################
#
# If this CIF has been generated from an entry in the Cambridge 
# Structural Database, then it will include bibliographic, chemical, 
# crystal, experimental, refinement or atomic coordinate data resulting 
# from the CCDC's data processing and validation procedures.
#
#######################################################################

data_PEFVUT
_symmetry_cell_setting           monoclinic
_symmetry_space_group_name_H-M   'P 21/c'
_symmetry_Int_Tables_number      14
_space_group_name_Hall           '-P 2ybc'
loop_
_symmetry_equiv_pos_site_id
_symmetry_equiv_pos_as_xyz
1 x,y,z
2 -x,1/2+y,1/2-z
3 -x,-y,-z
4 x,1/2-y,1/2+z
_cell_length_a                   12.103(8)
_cell_length_b                   10.228(7)
_cell_length_c                   11.123(7)
_cell_angle_alpha                90
_cell_angle_beta                 114.342(5)
_cell_angle_gamma                90
_cell_volume                     1254.5
loop_
_atom_site_label
_atom_site_type_symbol
_atom_site_fract_x
_atom_site_fract_y
_atom_site_fract_z
O1 O 0.95257(16) -0.13654(16) 0.97198(17)
C1 C 0.8910(2) -0.2134(2) 1.0084(2)
O2 O 0.85823(19) -0.18360(18) 1.09707(18)
C2 C 0.9132(2) -0.3938(2) 0.8695(2)
H1 H 0.9753 -0.3453 0.8626
C3 C 0.8550(2) -0.3430(2) 0.9428(2)
C4 C 0.7612(2) -0.4141(2) 0.9518(2)
H2 H 0.7199 -0.3817 0.9998
C5 C 0.7946(2) -0.5770(2) 0.8187(2)
H3 H 0.7745 -0.6578 0.7769
C6 C 0.7295(2) -0.5337(2) 0.8887(2)
N1 N 0.88488(19) -0.50868(19) 0.80810(19)
Cd1 Cd 0.943540(15) 0.029278(16) 1.132795(15)
O3 O 0.83472(15) -0.76255(17) 1.09855(16)
O4 O 1.13666(17) -0.04360(18) 1.25177(18)
C7 C 0.7542(2) -0.8075(2) 0.9935(2)
O5 O 0.76802(16) -0.91354(18) 0.94565(18)
C8 C 0.6240(2) -0.6098(2) 0.8878(2)
C9 C 0.6354(2) -0.7391(2) 0.9302(2)
C10 C 0.5332(2) -0.8084(3) 0.9213(3)
H4 H 0.5412 -0.8948 0.9495
C11 C 0.5092(3) -0.5539(3) 0.8368(3)
H5 H 0.4998 -0.4677 0.8078
C12 C 0.4208(2) -0.7506(3) 0.8713(3)
H6 H 0.3531 -0.7972 0.8666
C13 C 0.4092(2) -0.6239(3) 0.8285(3)
H7 H 0.3331 -0.5847 0.7935
H8 H 1.148(3) -0.110(3) 1.304(3)
H9 H 1.166(3) -0.060(3) 1.193(3)
O1B O 1.04743(16) 0.13654(16) 1.02802(17)
N1C N 0.88488(19) 0.00868(19) 1.30810(19)
Cd1B Cd 1.056460(15) -0.029278(16) 0.867205(15)
Cd1C Cd 0.943540(15) -0.529278(16) 0.632795(15)
Cd1_2 Cd 0.943540(15) -0.970722(16) 1.132795(15)
O3_2 O 0.83472(15) 0.23745(17) 1.09855(16)
O5_2 O 0.76802(16) 0.08646(18) 0.94565(18)
loop_
_geom_bond_atom_site_label_1
_geom_bond_atom_site_label_2
_geom_bond_site_symmetry_1
_geom_bond_site_symmetry_2
O1 C1 1_555 1_555
C1 O2 1_555 1_555
O2 Cd1 1_555 1_555
C2 H1 1_555 1_555
C3 C1 1_555 1_555
C4 C3 1_555 1_555
H2 C4 1_555 1_555
C5 H3 1_555 1_555
C6 C4 1_555 1_555
N1 C2 1_555 1_555
Cd1 O1 1_555 1_555
O3 C7 1_555 1_555
O4 Cd1 1_555 1_555
C7 O5 1_555 1_555
O5 Cd1_2 1_555 1_555
C8 C6 1_555 1_555
C9 C7 1_555 1_555
C10 C9 1_555 1_555
H4 C10 1_555 1_555
C11 C8 1_555 1_555
H5 C11 1_555 1_555
C12 C10 1_555 1_555
H6 C12 1_555 1_555
C13 C11 1_555 1_555
H7 C13 1_555 1_555
H8 O4 1_555 1_555
H9 O4 1_555 1_555
O1B Cd1 1_555 1_555
N1C Cd1 1_555 1_555
Cd1B O1 1_555 1_555
Cd1C N1 1_555 1_555
Cd1_2 O3 1_555 1_555
O3_2 Cd1 1_555 1_555
O5_2 Cd1 1_555 1_555
C2 C3 1_555 1_555
C5 C6 1_555 1_555
C5 N1 1_555 1_555
C8 C9 1_555 1_555
C12 C13 1_555 1_555
O1B Cd1B 1_555 1_555

#END
