
#######################################################################
#
#                 Cambridge Crystallographic Data Centre
#                                CCDC 
#
#######################################################################
#
# If this CIF has been generated from an entry in the Cambridge 
# Structural Database, then it will include bibliographic, chemical, 
# crystal, experimental, refinement or atomic coordinate data resulting 
# from the CCDC's data processing and validation procedures.
#
#######################################################################

data_PEFVIH
_symmetry_cell_setting           triclinic
_symmetry_space_group_name_H-M   'P -1'
_symmetry_Int_Tables_number      2
_space_group_name_Hall           '-P 1'
loop_
_symmetry_equiv_pos_site_id
_symmetry_equiv_pos_as_xyz
1 x,y,z
2 -x,-y,-z
_cell_length_a                   9.073(16)
_cell_length_b                   13.54(2)
_cell_length_c                   14.06(2)
_cell_angle_alpha                97.219(16)
_cell_angle_beta                 96.430(18)
_cell_angle_gamma                104.87(2)
_cell_volume                     1637.33
loop_
_atom_site_label
_atom_site_type_symbol
_atom_site_fract_x
_atom_site_fract_y
_atom_site_fract_z
Nd1 Nd 0.37286(4) 0.35971(3) -0.48663(3)
O1 O -0.4347(4) 0.3507(3) -0.5923(3)
O2 O 0.4022(4) 0.5119(3) -0.6003(3)
O3 O 0.3319(4) 0.2896(3) -0.3345(3)
O4 O 0.5167(4) 0.2510(3) -0.4035(3)
O5 O -0.2788(4) 0.5067(3) -0.5931(3)
N1 N 0.2683(5) 0.1691(3) -0.5759(3)
N2 N 0.0818(5) 0.2675(4) -0.4955(3)
C1 C 0.2920(6) 0.4496(5) -0.6597(4)
C2 C -0.3222(6) 0.4104(5) -0.6184(4)
C3 C 0.1125(6) 0.4282(4) -0.8138(4)
O6 O 0.2201(4) 0.3668(3) -0.6371(3)
C4 C -0.0252(6) 0.3729(4) -0.7757(4)
C5 C 0.2579(6) 0.4690(4) -0.7591(4)
C6 C 0.4483(7) 0.2562(4) -0.3317(5)
N3 N -0.2098(5) 0.2113(4) -0.7783(4)
C7 C 0.3596(8) 0.5240(5) -0.8988(5)
H1 H 0.4421 0.5573 -0.9275
C8 C 0.4295(7) 0.2094(4) -0.1667(5)
H2 H 0.3272 0.2113 -0.1735
C9 C 0.2229(8) 0.0943(6) 0.0882(6)
H3 H 0.1446 0.0360 0.0926
C10 C 0.3804(7) 0.5174(4) -0.8014(4)
H4 H 0.4773 0.5456 -0.7643
O7 O 0.3283(6) -0.0169(4) -0.1239(4)
H5 H 0.2821 -0.0760 -0.1609
C11 C -0.0849(6) 0.2680(5) -0.8053(4)
H6 H -0.0339 0.2348 -0.8471
C12 C -0.2318(6) 0.3629(4) -0.6845(4)
C13 C -0.1028(6) 0.4198(4) -0.7147(4)
H7 H -0.0678 0.4908 -0.6934
C14 C 0.5113(7) 0.2260(4) -0.2412(5)
C15 C 0.1167(7) 0.1192(4) -0.5868(4)
C16 C 0.3599(7) 0.1200(5) -0.6135(5)
H8 H 0.4650 0.1533 -0.6040
O8 O 0.1271(6) -0.0669(5) -0.0540(5)
C17 C -0.2806(6) 0.2586(4) -0.7191(4)
H9 H -0.3687 0.2195 -0.6994
N4 N 0.7311(6) 0.2052(5) -0.1459(5)
C18 C -0.1038(8) -0.0309(5) -0.6430(5)
H10 H -0.1452 -0.0978 -0.6770
C19 C 0.6482(8) 0.1896(5) -0.0767(5)
H11 H 0.6956 0.1773 -0.0190
C20 C 0.1580(8) -0.0280(5) -0.6783(5)
H12 H 0.1222 -0.0942 -0.7142
C21 C 0.4966(8) 0.1899(4) -0.0821(5)
C22 C 0.4148(7) 0.1791(5) 0.0030(5)
C23 C 0.0191(7) 0.1699(4) -0.5428(4)
C24 C -0.2276(7) 0.1724(6) -0.5012(5)
H13 H -0.3314 0.1405 -0.5010
C25 C -0.0111(7) 0.3139(5) -0.4558(5)
H14 H 0.0302 0.3820 -0.4248
C26 C -0.1386(7) 0.1189(5) -0.5479(5)
C27 C 0.2419(9) 0.0003(6) -0.0626(6)
C28 C 0.3851(9) 0.2597(6) 0.1552(5)
H15 H 0.4191 0.3154 0.2057
C29 C 0.0546(8) 0.0185(5) -0.6377(5)
C30 C 0.2187(8) 0.4818(5) -0.9527(5)
H16 H 0.2052 0.4847 -1.0187
C31 C 0.0958(7) 0.4349(5) -0.9103(4)
H17 H -0.0006 0.4071 -0.9480
C32 C -0.1941(8) 0.0181(6) -0.5995(5)
H18 H -0.2981 -0.0161 -0.6035
C33 C 0.3096(8) 0.0221(5) -0.6663(5)
H19 H 0.3787 -0.0092 -0.6933
C34 C 0.2984(7) 0.0978(5) 0.0087(5)
C35 C 0.2651(9) 0.1782(6) 0.1608(5)
H20 H 0.2117 0.1792 0.2135
C36 C 0.6614(8) 0.2225(5) -0.2272(5)
H23 H 0.7179 0.2329 -0.2781
C37 C 0.4552(8) 0.2589(5) 0.0745(5)
H24 H 0.5344 0.3164 0.0695
C38 C -0.1657(7) 0.2694(5) -0.4566(5)
H27 H -0.2258 0.3064 -0.4265
Nd1A Nd 0.62714(4) 0.64029(3) -0.51337(3)
Nd1_2 Nd -0.62714(4) 0.35971(3) -0.48663(3)
Nd1A_2 Nd -0.37286(4) 0.64029(3) -0.51337(3)
O1_2 O 0.5653(4) 0.3507(3) -0.5923(3)
O2A O 0.5978(4) 0.4881(3) -0.3997(3)
O5A O 0.2788(4) 0.4933(3) -0.4069(3)
O9 O -0.0435(6) 0.7980(4) -0.8918(4)
H21 H 0.0501 0.7972 -0.8802
H22 H 0.0080 0.7734 -0.9301
O10 O 0.1576(9) 0.3753(5) -0.2030(5)
H25 H 0.2095 0.3507 -0.2418
H26 H 0.1225 0.3246 -0.1743
loop_
_geom_bond_atom_site_label_1
_geom_bond_atom_site_label_2
_geom_bond_site_symmetry_1
_geom_bond_site_symmetry_2
Nd1 O2 1_555 1_555
O1 C2 1_555 1_555
O2 C1 1_555 1_555
O3 Nd1 1_555 1_555
O4 Nd1 1_555 1_555
O5 C2 1_555 1_555
N1 Nd1 1_555 1_555
N2 Nd1 1_555 1_555
C1 O6 1_555 1_555
C2 C12 1_555 1_555
C3 C4 1_555 1_555
O6 Nd1 1_555 1_555
C4 C11 1_555 1_555
C5 C1 1_555 1_555
C6 O3 1_555 1_555
N3 C11 1_555 1_555
C7 H1 1_555 1_555
C8 H2 1_555 1_555
C9 H3 1_555 1_555
C10 C5 1_555 1_555
H4 C10 1_555 1_555
O7 H5 1_555 1_555
C11 H6 1_555 1_555
C12 C13 1_555 1_555
C13 C4 1_555 1_555
H7 C13 1_555 1_555
C14 C6 1_555 1_555
C15 N1 1_555 1_555
C16 N1 1_555 1_555
H8 C16 1_555 1_555
O8 C27 1_555 1_555
C17 N3 1_555 1_555
H9 C17 1_555 1_555
N4 C19 1_555 1_555
C18 H10 1_555 1_555
C19 H11 1_555 1_555
C20 H12 1_555 1_555
C21 C8 1_555 1_555
C22 C21 1_555 1_555
C23 N2 1_555 1_555
C24 H13 1_555 1_555
C25 N2 1_555 1_555
H14 C25 1_555 1_555
C26 C23 1_555 1_555
C27 O7 1_555 1_555
C28 H15 1_555 1_555
C29 C15 1_555 1_555
C30 C7 1_555 1_555
H16 C30 1_555 1_555
C31 C3 1_555 1_555
H17 C31 1_555 1_555
C32 C18 1_555 1_555
H18 C32 1_555 1_555
C33 C16 1_555 1_555
H19 C33 1_555 1_555
C34 C9 1_555 1_555
C35 C9 1_555 1_555
H20 C35 1_555 1_555
O9 H21 1_555 1_555
H22 O9 1_555 1_555
C36 C14 1_555 1_555
H23 C36 1_555 1_555
C37 C22 1_555 1_555
H24 C37 1_555 1_555
O10 H25 1_555 1_555
H26 O10 1_555 1_555
C38 C24 1_555 1_555
H27 C38 1_555 1_555
Nd1A O2 1_555 1_555
Nd1_2 O1 1_555 1_555
Nd1A_2 O5 1_555 1_555
O1_2 Nd1 1_555 1_555
O2A Nd1 1_555 1_555
O5A Nd1 1_555 1_555
O4 C6 1_555 1_555
C3 C5 1_555 1_555
C7 C10 1_555 1_555
C8 C14 1_555 1_555
C12 C17 1_555 1_555
C15 C23 1_555 1_555
N4 C36 1_555 1_555
C18 C29 1_555 1_555
C19 C21 1_555 1_555
C20 C29 1_555 1_555
C20 C33 1_555 1_555
C22 C34 1_555 1_555
C24 C26 1_555 1_555
C25 C38 1_555 1_555
C26 C32 1_555 1_555
C27 C34 1_555 1_555
C28 C35 1_555 1_555
C28 C37 1_555 1_555
C30 C31 1_555 1_555
Nd1A O2A 1_555 1_555

#END
