
#######################################################################
#
#                 Cambridge Crystallographic Data Centre
#                                CCDC 
#
#######################################################################
#
# If this CIF has been generated from an entry in the Cambridge 
# Structural Database, then it will include bibliographic, chemical, 
# crystal, experimental, refinement or atomic coordinate data resulting 
# from the CCDC's data processing and validation procedures.
#
#######################################################################

data_PEFWAA
_symmetry_cell_setting           monoclinic
_symmetry_space_group_name_H-M   'P 21/c'
_symmetry_Int_Tables_number      14
_space_group_name_Hall           '-P 2ybc'
loop_
_symmetry_equiv_pos_site_id
_symmetry_equiv_pos_as_xyz
1 x,y,z
2 -x,1/2+y,1/2-z
3 -x,-y,-z
4 x,1/2-y,1/2+z
_cell_length_a                   16.639(6)
_cell_length_b                   9.887(4)
_cell_length_c                   13.205(5)
_cell_angle_alpha                90
_cell_angle_beta                 106.768(3)
_cell_angle_gamma                90
_cell_volume                     2079.99
loop_
_atom_site_label
_atom_site_type_symbol
_atom_site_fract_x
_atom_site_fract_y
_atom_site_fract_z
Cd1 Cd 0.731637(10) 0.537900(16) 0.374494(13)
N1 N 0.78531(12) 0.47259(19) 0.55073(15)
C1 C 0.95162(15) 0.5732(2) 0.79972(19)
C2 C 0.84073(15) 0.3940(2) 0.76038(19)
H1 H 0.8598 0.3668 0.8307
C3 C 0.84903(15) 0.5366(2) 0.61889(19)
H2 H 0.8748 0.6076 0.5941
C4 C 0.87862(15) 0.5020(2) 0.72508(18)
C5 C 0.94370(15) 0.6989(2) 0.84467(19)
N2 N 0.66517(13) 0.7361(2) 0.41280(16)
C6 C 0.58265(15) 0.7315(2) 0.40205(18)
N3 N 0.59125(13) 0.4908(2) 0.37385(16)
C7 C 0.74890(14) 0.3699(2) 0.58705(19)
H3 H 0.7042 0.3257 0.5399
C8 C 0.47471(17) 0.3406(3) 0.3489(2)
H4 H 0.4538 0.2528 0.3392
C9 C 0.77420(14) 0.3265(2) 0.69052(18)
C10 C 0.6631(2) 0.9756(3) 0.4349(2)
H5 H 0.6919 1.0574 0.4456
C11 C 0.57883(19) 0.9705(3) 0.4248(2)
H6 H 0.5496 1.0493 0.4294
C12 C 0.54205(15) 0.5956(2) 0.38153(18)
C13 C 1.02699(17) 0.5074(3) 0.8288(2)
H7 H 1.0320 0.4237 0.7991
C14 C 0.42374(17) 0.4480(3) 0.3553(2)
H8 H 0.3673 0.4339 0.3491
C15 C 0.53777(17) 0.8482(3) 0.4080(2)
H9 H 0.4805 0.8437 0.4008
C16 C 1.01312(17) 0.7522(3) 0.9194(2)
H10 H 1.0082 0.8343 0.9514
C17 C 1.08873(17) 0.6862(3) 0.9471(2)
H11 H 1.1348 0.7244 0.9963
C18 C 0.55765(16) 0.3671(3) 0.3573(2)
H12 H 0.5920 0.2953 0.3510
C19 C 1.09639(18) 0.5639(3) 0.9019(3)
H13 H 1.1477 0.5189 0.9201
C20 C 0.45718(16) 0.5766(3) 0.3711(2)
H14 H 0.4232 0.6501 0.3747
C21 C 0.70365(18) 0.8563(3) 0.4287(2)
H15 H 0.7609 0.8592 0.4360
C22 C 0.73066(15) 0.2073(2) 0.72277(19)
O1 O 0.67309(11) 0.15311(17) 0.65245(14)
O2 O 0.75575(12) 0.17174(18) 0.81843(14)
C23 C 0.86262(17) 0.7777(3) 0.8160(2)
O3 O 0.81496(15) 0.7682(2) 0.72512(18)
O4 O 0.84971(11) 0.8494(2) 0.88761(15)
O5 O 0.66871(13) 0.6110(2) 0.19762(15)
H16 H 0.665(2) 0.530(4) 0.167(3)
H17 H 0.716(2) 0.648(4) 0.197(3)
Cd1C Cd 0.731637(10) -0.037900(16) 0.874494(13)
Cd1C_2 Cd 0.731637(10) 0.962100(16) 0.874494(13)
O2C O 0.75575(12) 0.32826(18) 0.31843(14)
O4C O 0.84971(11) 0.6506(2) 0.38761(15)
loop_
_geom_bond_atom_site_label_1
_geom_bond_atom_site_label_2
_geom_bond_site_symmetry_1
_geom_bond_site_symmetry_2
Cd1 N1 1_555 1_555
N1 C3 1_555 1_555
C1 C4 1_555 1_555
C2 H1 1_555 1_555
C3 H2 1_555 1_555
C4 C2 1_555 1_555
C5 C1 1_555 1_555
N2 Cd1 1_555 1_555
C6 N2 1_555 1_555
N3 Cd1 1_555 1_555
C7 N1 1_555 1_555
H3 C7 1_555 1_555
C8 H4 1_555 1_555
C9 C2 1_555 1_555
C10 H5 1_555 1_555
C11 C10 1_555 1_555
H6 C11 1_555 1_555
C12 C6 1_555 1_555
C13 C1 1_555 1_555
H7 C13 1_555 1_555
C14 C8 1_555 1_555
H8 C14 1_555 1_555
C15 C6 1_555 1_555
H9 C15 1_555 1_555
C16 C5 1_555 1_555
H10 C16 1_555 1_555
C17 C16 1_555 1_555
H11 C17 1_555 1_555
C18 N3 1_555 1_555
H12 C18 1_555 1_555
C19 C13 1_555 1_555
H13 C19 1_555 1_555
C20 C12 1_555 1_555
H14 C20 1_555 1_555
C21 N2 1_555 1_555
H15 C21 1_555 1_555
C22 C9 1_555 1_555
O1 C22 1_555 1_555
O2 C22 1_555 1_555
C23 C5 1_555 1_555
O3 C23 1_555 1_555
O4 C23 1_555 1_555
O5 Cd1 1_555 1_555
H16 O5 1_555 1_555
H17 O5 1_555 1_555
Cd1C O2 1_555 1_555
Cd1C_2 O4 1_555 1_555
O2C Cd1 1_555 1_555
O4C Cd1 1_555 1_555
C3 C4 1_555 1_555
N3 C12 1_555 1_555
C7 C9 1_555 1_555
C8 C18 1_555 1_555
C10 C21 1_555 1_555
C11 C15 1_555 1_555
C14 C20 1_555 1_555
C17 C19 1_555 1_555

#END
