
#######################################################################
#
#                 Cambridge Crystallographic Data Centre
#                                CCDC 
#
#######################################################################
#
# If this CIF has been generated from an entry in the Cambridge 
# Structural Database, then it will include bibliographic, chemical, 
# crystal, experimental, refinement or atomic coordinate data resulting 
# from the CCDC's data processing and validation procedures.
#
#######################################################################

data_PEFWII
_symmetry_cell_setting           orthorhombic
_symmetry_space_group_name_H-M   'P c a 21'
_symmetry_Int_Tables_number      29
_space_group_name_Hall           'P 2c -2ac'
loop_
_symmetry_equiv_pos_site_id
_symmetry_equiv_pos_as_xyz
1 x,y,z
2 -x,-y,1/2+z
3 1/2+x,-y,z
4 1/2-x,y,1/2+z
_cell_length_a                   8.0615(16)
_cell_length_b                   25.852(5)
_cell_length_c                   13.293(3)
_cell_angle_alpha                90
_cell_angle_beta                 90
_cell_angle_gamma                90
_cell_volume                     2770.34
loop_
_atom_site_label
_atom_site_type_symbol
_atom_site_fract_x
_atom_site_fract_y
_atom_site_fract_z
C1 C 0.0775(6) 0.30711(19) -0.0671(3)
O1 O -0.0407(4) 0.33106(14) -0.1061(2)
O2 O 0.1307(4) 0.26520(13) -0.1014(2)
Cd1 Cd 0.51226(3) 0.257660(9) 0.24883(4)
C2 C 0.5449(5) 0.18342(16) 0.0458(3)
C3 C 0.6140(5) 0.12128(16) -0.0935(3)
H1 H 0.5413 0.0974 -0.0655
C4 C 0.8075(5) 0.14615(15) -0.2183(3)
H2 H 0.8683 0.1384 -0.2757
C5 C 0.7021(5) 0.10886(15) -0.1811(3)
C6 C 0.6351(5) 0.16900(15) -0.0488(3)
C7 C 0.7424(5) 0.20381(15) -0.0928(3)
H3 H 0.7562 0.2361 -0.0633
O3 O -0.0313(4) 0.37189(14) 0.3067(3)
C8 C 0.0195(6) 0.41080(19) 0.3458(4)
C9 C 0.1654(5) 0.44755(17) 0.1941(4)
C10 C 0.0963(6) 0.45432(18) 0.2886(4)
C11 C 0.3063(5) 0.36190(15) 0.1967(3)
H4 H 0.3559 0.3729 0.2562
C12 C 0.1955(5) 0.39433(15) 0.1509(3)
O4 O 0.2894(4) 0.19641(12) 0.2335(3)
N1 N 0.3475(4) 0.31500(13) 0.1609(3)
O5 O 0.5960(4) 0.22070(11) 0.0946(2)
O6 O 0.0090(5) 0.41905(17) 0.4432(3)
H5 H -0.0389 0.3947 0.4700
O7 O 0.4203(4) 0.15520(12) 0.0685(2)
O8 O 0.7516(4) 0.30417(14) 0.2087(3)
N2 N 0.8275(4) 0.19269(13) -0.1768(3)
C13 C 0.6229(5) 0.04747(17) -0.3237(4)
O9 O 0.5316(7) 0.13226(17) -0.3551(4)
C14 C 0.2161(6) 0.48852(17) 0.1390(4)
H6 H 0.2622 0.4836 0.0755
C15 C 0.6141(6) -0.00340(18) -0.3603(4)
H7 H 0.5746 -0.0095 -0.4250
C16 C 0.5553(7) 0.0905(2) -0.3861(4)
C17 C 0.6860(5) 0.05640(15) -0.2270(3)
C18 C 0.1341(6) 0.5462(2) 0.2730(5)
H8 H 0.1250 0.5794 0.2994
C19 C 0.1601(5) 0.32938(16) 0.0250(3)
C20 C 0.0834(6) 0.50427(18) 0.3280(4)
H9 H 0.0400 0.5091 0.3922
C21 C 0.2749(5) 0.30003(15) 0.0764(3)
H10 H 0.3031 0.2678 0.0503
C22 C 0.1226(5) 0.37774(16) 0.0623(3)
H11 H 0.0488 0.3991 0.0282
C23 C 0.1982(7) 0.5388(2) 0.1787(5)
H12 H 0.2303 0.5673 0.1404
O10 O 0.5163(5) 0.07738(17) -0.4773(3)
H13 H 0.4532 0.0990 -0.5011
C24 C 0.7236(7) -0.0360(2) -0.2059(5)
H14 H 0.7569 -0.0638 -0.1664
C25 C 0.6630(7) -0.0438(2) -0.3017(5)
H15 H 0.6554 -0.0773 -0.3268
C26 C 0.7336(7) 0.01419(17) -0.1698(4)
H16 H 0.7737 0.0197 -0.1050
H22 H 0.220(3) 0.186(2) 0.274(2)
H23 H 0.328(5) 0.1786(15) 0.188(2)
H24 H 0.792(6) 0.3235(17) 0.256(3)
H26 H 0.825(5) 0.2845(17) 0.181(4)
O1C O 0.5407(4) 0.33106(14) 0.3939(2)
O2C O 0.3693(4) 0.26520(13) 0.3986(2)
Cd1C Cd 0.98774(3) 0.257660(9) -0.25117(4)
Cd1C_2 Cd -0.01226(3) 0.257660(9) -0.25117(4)
N2C N 0.6725(4) 0.19269(13) 0.3232(3)
O11 O 0.8122(5) 0.3506(2) 0.5171(4)
H17 H 0.8137 0.3290 0.4951
H18 H 0.7779 0.3400 0.5711
O12 O 0.1631(4) 0.15318(13) 0.9355(3)
H19 H 0.2429 0.1537 0.9773
H20 H 0.1652 0.1609 0.8841
O13 O 0.5222(6) 0.2376(2) 0.6492(7)
H21 H 0.5255 0.2047 0.6473
H25 H 0.482(10) 0.246(3) 0.708(3)
loop_
_geom_bond_atom_site_label_1
_geom_bond_atom_site_label_2
_geom_bond_site_symmetry_1
_geom_bond_site_symmetry_2
C1 O1 1_555 1_555
O1 Cd1C_2 1_555 1_555
O2 C1 1_555 1_555
Cd1 O4 1_555 1_555
C2 C6 1_555 1_555
C3 H1 1_555 1_555
C4 H2 1_555 1_555
C5 C3 1_555 1_555
C6 C3 1_555 1_555
C7 C6 1_555 1_555
H3 C7 1_555 1_555
O3 C8 1_555 1_555
C8 C10 1_555 1_555
C9 C10 1_555 1_555
C10 C20 1_555 1_555
C11 H4 1_555 1_555
C12 C9 1_555 1_555
O4 H22 1_555 1_555
N1 Cd1 1_555 1_555
O5 Cd1 1_555 1_555
O6 C8 1_555 1_555
H5 O6 1_555 1_555
O7 C2 1_555 1_555
O8 Cd1 1_555 1_555
N2 C4 1_555 1_555
C13 C15 1_555 1_555
O9 C16 1_555 1_555
C14 C9 1_555 1_555
H6 C14 1_555 1_555
C15 H7 1_555 1_555
C16 C13 1_555 1_555
C17 C5 1_555 1_555
C18 H8 1_555 1_555
C19 C1 1_555 1_555
C20 C18 1_555 1_555
H9 C20 1_555 1_555
C21 N1 1_555 1_555
H10 C21 1_555 1_555
C22 C12 1_555 1_555
H11 C22 1_555 1_555
C23 C14 1_555 1_555
H12 C23 1_555 1_555
O10 C16 1_555 1_555
H13 O10 1_555 1_555
C24 H14 1_555 1_555
C25 C15 1_555 1_555
H15 C25 1_555 1_555
C26 C17 1_555 1_555
H16 C26 1_555 1_555
O11 H17 1_555 1_555
H18 O11 1_555 1_555
O12 H19 1_555 1_555
H20 O12 1_555 1_555
O13 H21 1_555 1_555
H23 O4 1_555 1_555
H24 O8 1_555 1_555
H25 O13 1_555 1_555
H26 O8 1_555 1_555
O1C Cd1 1_555 1_555
O2C Cd1 1_555 1_555
Cd1C N2 1_555 1_555
Cd1C_2 O2 1_555 1_555
N2C Cd1 1_555 1_555
C2 O5 1_555 1_555
C4 C5 1_555 1_555
C7 N2 1_555 1_555
C11 C12 1_555 1_555
C11 N1 1_555 1_555
C13 C17 1_555 1_555
C18 C23 1_555 1_555
C19 C21 1_555 1_555
C19 C22 1_555 1_555
C24 C25 1_555 1_555
C24 C26 1_555 1_555

#END
