
#######################################################################
#
#                 Cambridge Crystallographic Data Centre
#                                CCDC 
#
#######################################################################
#
# If this CIF has been generated from an entry in the Cambridge 
# Structural Database, then it will include bibliographic, chemical, 
# crystal, experimental, refinement or atomic coordinate data resulting 
# from the CCDC's data processing and validation procedures.
#
#######################################################################

data_PEFWEE
_symmetry_cell_setting           orthorhombic
_symmetry_space_group_name_H-M   'P c a 21'
_symmetry_Int_Tables_number      29
_space_group_name_Hall           'P 2c -2ac'
loop_
_symmetry_equiv_pos_site_id
_symmetry_equiv_pos_as_xyz
1 x,y,z
2 -x,-y,1/2+z
3 1/2+x,-y,z
4 1/2-x,y,1/2+z
_cell_length_a                   8.080(11)
_cell_length_b                   25.88(3)
_cell_length_c                   13.345(18)
_cell_angle_alpha                90
_cell_angle_beta                 90
_cell_angle_gamma                90
_cell_volume                     2790.58
loop_
_atom_site_label
_atom_site_type_symbol
_atom_site_fract_x
_atom_site_fract_y
_atom_site_fract_z
Nd1 Nd 0.98689(6) 0.257952(19) 1.00023(10)
C1 C 0.7382(11) 0.2040(3) 0.8420(7)
H1 H 0.7497 0.2367 0.8140
O1 O 0.5157(11) 0.0775(4) 1.2265(7)
C2 C 0.8074(11) 0.1460(3) 0.9679(7)
H2 H 0.8678 0.1383 1.0253
C3 C 0.6119(10) 0.1216(3) 0.8447(6)
H3 H 0.5362 0.0981 0.8186
C4 C 0.7005(10) 0.1086(3) 0.9292(6)
N1 N 0.8263(9) 0.1922(3) 0.9260(5)
C5 C 0.6329(11) 0.1692(3) 0.7973(6)
C6 C 0.6847(11) 0.0563(3) 0.9760(7)
O2 O 0.5216(11) 0.1326(3) 1.1037(7)
C7 C 0.5608(16) 0.0902(5) 1.1349(9)
C8 C 0.6231(12) 0.0473(4) 1.0731(8)
C9 C 0.6635(16) -0.0446(5) 1.0517(10)
H4 H 0.6614 -0.0780 1.0776
C10 C 0.7165(17) -0.0360(4) 0.9554(10)
H5 H 0.7409 -0.0639 0.9143
C11 C 0.7342(15) 0.0140(4) 0.9184(9)
H6 H 0.7791 0.0192 0.8551
C12 C 0.6137(14) -0.0035(4) 1.1094(8)
H7 H 0.5731 -0.0094 1.1736
C13 C 0.5431(11) 0.1837(3) 0.7025(7)
O3 O 0.4178(8) 0.1551(3) 0.6805(5)
O4 O 0.5943(12) 0.2208(3) 0.6539(6)
C14 C 1.0755(14) 0.3079(4) 0.8157(7)
O5 O 1.1344(10) 0.2644(3) 0.8503(5)
O6 O 0.9593(10) 0.3307(3) 0.8566(6)
C15 C 1.1608(11) 0.3290(3) 0.7244(6)
C16 C 1.1221(12) 0.3779(3) 0.6861(7)
H8 H 1.0487 0.3992 0.7202
C17 C 1.2775(11) 0.3003(3) 0.6734(7)
H9 H 1.3083 0.2686 0.7004
C18 C 1.1941(11) 0.3947(3) 0.5960(6)
C19 C 1.3057(12) 0.3612(3) 0.5532(6)
H10 H 1.3562 0.3718 0.4940
N2 N 1.3483(9) 0.3149(3) 0.5889(5)
C20 C 1.1626(11) 0.4472(4) 0.5546(7)
C21 C 1.2165(13) 0.4881(4) 0.6099(9)
H11 H 1.2654 0.4827 0.6721
C22 C 1.1975(15) 0.5395(4) 0.5713(12)
H12 H 1.2267 0.5679 0.6099
C23 C 1.1351(13) 0.5460(4) 0.4758(10)
H13 H 1.1295 0.5790 0.4484
C24 C 1.0802(13) 0.5038(4) 0.4200(9)
H14 H 1.0342 0.5087 0.3568
C25 C 1.0953(12) 0.4537(4) 0.4603(8)
C26 C 1.0193(13) 0.4106(5) 0.4034(10)
O7 O 0.9648(10) 0.3721(3) 0.4423(7)
O8 O 1.0081(10) 0.4193(4) 0.3055(7)
H15 H 1.0795 0.4027 0.2761
O9 O 1.2103(9) 0.1964(3) 1.0161(6)
H16 H 1.2662 0.1696 1.0266
H17 H 1.2861 0.2083 0.9798
O10 O 0.7465(9) 0.3037(3) 1.0397(5)
H18 H 0.6989 0.3151 0.9874
H19 H 0.6768 0.2798 1.0380
Nd1C Nd 0.51311(6) 0.257952(19) 0.50023(10)
Nd1C_2 Nd 1.51311(6) 0.257952(19) 0.50023(10)
O4C O 0.9057(12) 0.2208(3) 1.1539(6)
N2C N 1.1517(9) 0.3149(3) 1.0889(5)
O11 O 0.1654(10) 0.1540(3) 0.8154(6)
H20 H 0.2447 0.1545 0.7736
H21 H 0.1088 0.1303 0.7879
O12 O 0.8091(11) 0.3507(4) 0.2301(7)
H22 H 0.8744 0.3732 0.2542
H23 H 0.7270 0.3447 0.2683
O13 O 1.5218(11) 0.2364(4) 1.1018(13)
H24 H 1.4318 0.2250 1.0773
H25 H 1.5265 0.2036 1.1035
loop_
_geom_bond_atom_site_label_1
_geom_bond_atom_site_label_2
_geom_bond_site_symmetry_1
_geom_bond_site_symmetry_2
Nd1 N1 1_555 1_555
C1 H1 1_555 1_555
O1 C7 1_555 1_555
C2 H2 1_555 1_555
C3 H3 1_555 1_555
C4 C2 1_555 1_555
N1 C1 1_555 1_555
C5 C1 1_555 1_555
C6 C4 1_555 1_555
O2 C7 1_555 1_555
C7 C8 1_555 1_555
C8 C6 1_555 1_555
C9 H4 1_555 1_555
C10 C9 1_555 1_555
H5 C10 1_555 1_555
C11 C6 1_555 1_555
H6 C11 1_555 1_555
C12 C8 1_555 1_555
H7 C12 1_555 1_555
C13 C5 1_555 1_555
O3 C13 1_555 1_555
O4 C13 1_555 1_555
C14 O5 1_555 1_555
O5 Nd1 1_555 1_555
O6 Nd1 1_555 1_555
C15 C14 1_555 1_555
C16 C15 1_555 1_555
H8 C16 1_555 1_555
C17 C15 1_555 1_555
H9 C17 1_555 1_555
C18 C16 1_555 1_555
C19 C18 1_555 1_555
H10 C19 1_555 1_555
N2 C17 1_555 1_555
C20 C18 1_555 1_555
C21 C20 1_555 1_555
H11 C21 1_555 1_555
C22 C21 1_555 1_555
H12 C22 1_555 1_555
C23 C22 1_555 1_555
H13 C23 1_555 1_555
C24 C23 1_555 1_555
H14 C24 1_555 1_555
C25 C20 1_555 1_555
C26 C25 1_555 1_555
O7 C26 1_555 1_555
O8 C26 1_555 1_555
H15 O8 1_555 1_555
O9 Nd1 1_555 1_555
H16 O9 1_555 1_555
H17 O9 1_555 1_555
O10 Nd1 1_555 1_555
H18 O10 1_555 1_555
H19 O10 1_555 1_555
O11 H20 1_555 1_555
H21 O11 1_555 1_555
O12 H22 1_555 1_555
H23 O12 1_555 1_555
O13 H24 1_555 1_555
H25 O13 1_555 1_555
Nd1C O4 1_555 1_555
Nd1C_2 N2 1_555 1_555
O4C Nd1 1_555 1_555
N2C Nd1 1_555 1_555
C2 N1 1_555 1_555
C3 C4 1_555 1_555
C3 C5 1_555 1_555
C9 C12 1_555 1_555
C10 C11 1_555 1_555
C14 O6 1_555 1_555
C19 N2 1_555 1_555
C24 C25 1_555 1_555

#END
