
#######################################################################
#
#                 Cambridge Crystallographic Data Centre
#                                CCDC 
#
#######################################################################
#
# If this CIF has been generated from an entry in the Cambridge 
# Structural Database, then it will include bibliographic, chemical, 
# crystal, experimental, refinement or atomic coordinate data resulting 
# from the CCDC's data processing and validation procedures.
#
#######################################################################

data_PEGDOV
_symmetry_cell_setting           orthorhombic
_symmetry_space_group_name_H-M   'P b c a'
_symmetry_Int_Tables_number      61
_space_group_name_Hall           '-P 2ac 2ab'
loop_
_symmetry_equiv_pos_site_id
_symmetry_equiv_pos_as_xyz
1 x,y,z
2 1/2-x,-y,1/2+z
3 1/2+x,1/2-y,-z
4 -x,1/2+y,1/2-z
5 -x,-y,-z
6 1/2+x,y,1/2-z
7 1/2-x,1/2+y,z
8 x,1/2-y,1/2+z
_cell_length_a                   17.2170(2)
_cell_length_b                   12.9640(3)
_cell_length_c                   18.7630(4)
_cell_angle_alpha                90
_cell_angle_beta                 90
_cell_angle_gamma                90
_cell_volume                     4187.92
loop_
_atom_site_label
_atom_site_type_symbol
_atom_site_fract_x
_atom_site_fract_y
_atom_site_fract_z
Cu1 Cu 0.5000 0.5000 0.0000
N1 N 0.39033(10) 0.54442(14) -0.01534(9)
O1 O 0.47239(8) 0.42023(11) 0.08616(7)
O2 O 0.37294(9) 0.31720(12) 0.05659(7)
O3 O 0.37983(9) 0.21988(13) 0.42625(8)
H1 H 0.3883(15) 0.1971(19) 0.4804(14)
O4 O 0.49375(8) 0.14175(12) 0.40854(8)
C1 C 0.42532(12) 0.30778(15) 0.17330(10)
C2 C 0.36924(12) 0.33703(15) 0.22344(10)
C3 C 0.37606(12) 0.30101(16) 0.29311(10)
H2 H 0.3387 0.3212 0.3276
C4 C 0.43625(12) 0.23626(16) 0.31298(10)
C5 C 0.49103(12) 0.20635(15) 0.26291(11)
H3 H 0.5322 0.1618 0.2766
C6 C 0.48626(12) 0.24100(16) 0.19275(11)
C7 C 0.42298(12) 0.35161(15) 0.09825(10)
C8 C 0.44077(12) 0.19497(16) 0.38733(11)
C9 C 0.30140(13) 0.40475(17) 0.20651(11)
C10 C 0.29937(17) 0.50492(19) 0.23286(15)
H4 H 0.3439 0.5328 0.2557
C11 C 0.2333(2) 0.5640(3) 0.22617(17)
H5 H 0.2331 0.6325 0.2441
C12 C 0.1689(2) 0.5264(3) 0.19458(18)
H6 H 0.1233 0.5675 0.1914
C13 C 0.16951(18) 0.4259(3) 0.16645(17)
H7 H 0.1245 0.3987 0.1439
C14 C 0.23690(16) 0.3665(2) 0.17190(14)
H8 H 0.2383 0.2994 0.1516
C15 C 0.54389(13) 0.20508(16) 0.13894(11)
C16 C 0.62281(14) 0.21464(18) 0.15123(13)
H9 H 0.6406 0.2428 0.1950
C17 C 0.67636(16) 0.1834(2) 0.10004(17)
H10 H 0.7304 0.1902 0.1089
C18 C 0.6510(2) 0.1430(2) 0.03681(16)
H11 H 0.6876 0.1238 0.0013
C19 C 0.5729(2) 0.1297(2) 0.02424(15)
H12 H 0.5557 0.0996 -0.0192
C20 C 0.51936(16) 0.1604(2) 0.07508(13)
H13 H 0.4655 0.1511 0.0664
C21 C 0.35809(14) 0.53759(17) -0.08015(12)
H14 H 0.3896 0.5178 -0.1194
C22 C 0.28075(15) 0.5583(2) -0.09168(14)
H15 H 0.2590 0.5503 -0.1379
C23 C 0.23538(15) 0.5907(2) -0.03592(16)
H16 H 0.1819 0.6057 -0.0431
C24 C 0.26813(14) 0.60109(19) 0.03018(14)
H17 H 0.2382 0.6251 0.0694
C25 C 0.34543(13) 0.57601(17) 0.03874(12)
H18 H 0.3677 0.5814 0.0849
Cu1G Cu 0.5000 0.0000 0.5000
Cu1G_2 Cu 0.5000 1.0000 -0.5000
N1D N 0.60967(10) 0.45558(14) 0.01534(9)
O1D O 0.52761(8) 0.57977(11) -0.08616(7)
O2D O 0.62706(9) 0.68280(12) -0.05659(7)
O3D O 0.62017(9) 0.78012(13) -0.42625(8)
H1D H 0.6117(15) 0.8029(19) -0.4804(14)
O4D O 0.50625(8) 0.85825(12) -0.40854(8)
O4G O 0.49375(8) 0.35825(12) -0.09146(8)
O4C O 0.50625(8) 0.64175(12) 0.09146(8)
C1D C 0.57468(12) 0.69222(15) -0.17330(10)
C2D C 0.63076(12) 0.66297(15) -0.22344(10)
C3D C 0.62394(12) 0.69899(16) -0.29311(10)
H2D H 0.6613 0.6788 -0.3276
C4D C 0.56375(12) 0.76374(16) -0.31298(10)
C5D C 0.50897(12) 0.79365(15) -0.26291(11)
H3D H 0.4678 0.8382 -0.2766
C6D C 0.51374(12) 0.75900(16) -0.19275(11)
C7D C 0.57702(12) 0.64839(15) -0.09825(10)
C8D C 0.55923(12) 0.80503(16) -0.38733(11)
C9D C 0.69860(13) 0.59525(17) -0.20651(11)
C10D C 0.70063(17) 0.49508(19) -0.23286(15)
H4D H 0.6561 0.4672 -0.2557
C11D C 0.7667(2) 0.4360(3) -0.22617(17)
H5D H 0.7669 0.3675 -0.2441
C12D C 0.8311(2) 0.4736(3) -0.19458(18)
H6D H 0.8767 0.4325 -0.1914
C13D C 0.83049(18) 0.5741(3) -0.16645(17)
H7D H 0.8755 0.6013 -0.1439
C14D C 0.76310(16) 0.6335(2) -0.17190(14)
H8D H 0.7617 0.7006 -0.1516
C15D C 0.45611(13) 0.79492(16) -0.13894(11)
C16D C 0.37719(14) 0.78536(18) -0.15123(13)
H9D H 0.3594 0.7572 -0.1950
C17D C 0.32364(16) 0.8166(2) -0.10004(17)
H10D H 0.2696 0.8098 -0.1089
C18D C 0.3490(2) 0.8570(2) -0.03681(16)
H11D H 0.3124 0.8762 -0.0013
C19D C 0.4271(2) 0.8703(2) -0.02424(15)
H12D H 0.4443 0.9004 0.0192
C20D C 0.48064(16) 0.8396(2) -0.07508(13)
H13D H 0.5345 0.8489 -0.0664
C21D C 0.64191(14) 0.46241(17) 0.08015(12)
H14D H 0.6104 0.4822 0.1194
C22D C 0.71925(15) 0.4417(2) 0.09168(14)
H15D H 0.7410 0.4497 0.1379
C23D C 0.76462(15) 0.4093(2) 0.03592(16)
H16D H 0.8181 0.3943 0.0431
C24D C 0.73187(14) 0.39891(19) -0.03018(14)
H17D H 0.7618 0.3749 -0.0694
C25D C 0.65457(13) 0.42399(17) -0.03874(12)
H18D H 0.6323 0.4186 -0.0849
loop_
_geom_bond_atom_site_label_1
_geom_bond_atom_site_label_2
_geom_bond_site_symmetry_1
_geom_bond_site_symmetry_2
Cu1 N1 1_555 1_555
N1 C21 1_555 1_555
O1 Cu1 1_555 1_555
O2 C7 1_555 1_555
O3 H1 1_555 1_555
O4 C8 1_555 1_555
C1 C2 1_555 1_555
C2 C3 1_555 1_555
C3 H2 1_555 1_555
C4 C3 1_555 1_555
C5 C4 1_555 1_555
H3 C5 1_555 1_555
C6 C1 1_555 1_555
C7 O1 1_555 1_555
C8 O3 1_555 1_555
C9 C2 1_555 1_555
C10 C9 1_555 1_555
H4 C10 1_555 1_555
C11 C10 1_555 1_555
H5 C11 1_555 1_555
C12 C11 1_555 1_555
H6 C12 1_555 1_555
C13 C12 1_555 1_555
H7 C13 1_555 1_555
C14 C9 1_555 1_555
H8 C14 1_555 1_555
C15 C6 1_555 1_555
C16 C15 1_555 1_555
H9 C16 1_555 1_555
C17 C16 1_555 1_555
H10 C17 1_555 1_555
C18 C17 1_555 1_555
H11 C18 1_555 1_555
C19 C18 1_555 1_555
H12 C19 1_555 1_555
C20 C15 1_555 1_555
H13 C20 1_555 1_555
C21 H14 1_555 1_555
C22 C21 1_555 1_555
H15 C22 1_555 1_555
C23 C22 1_555 1_555
H16 C23 1_555 1_555
C24 C23 1_555 1_555
H17 C24 1_555 1_555
C25 N1 1_555 1_555
H18 C25 1_555 1_555
Cu1G O4 1_555 1_555
Cu1G_2 O4D 1_555 1_555
N1D Cu1 1_555 1_555
O1D Cu1 1_555 1_555
O2D C7D 1_555 1_555
O3D H1D 1_555 1_555
O4D C8D 1_555 1_555
O4G Cu1 1_555 1_555
O4C Cu1 1_555 1_555
C1D C2D 1_555 1_555
C2D C3D 1_555 1_555
C3D H2D 1_555 1_555
C4D C3D 1_555 1_555
C5D C4D 1_555 1_555
H3D C5D 1_555 1_555
C6D C1D 1_555 1_555
C7D O1D 1_555 1_555
C8D O3D 1_555 1_555
C9D C2D 1_555 1_555
C10D C9D 1_555 1_555
H4D C10D 1_555 1_555
C11D C10D 1_555 1_555
H5D C11D 1_555 1_555
C12D C11D 1_555 1_555
H6D C12D 1_555 1_555
C13D C12D 1_555 1_555
H7D C13D 1_555 1_555
C14D C9D 1_555 1_555
H8D C14D 1_555 1_555
C15D C6D 1_555 1_555
C16D C15D 1_555 1_555
H9D C16D 1_555 1_555
C17D C16D 1_555 1_555
H10D C17D 1_555 1_555
C18D C17D 1_555 1_555
H11D C18D 1_555 1_555
C19D C18D 1_555 1_555
H12D C19D 1_555 1_555
C20D C15D 1_555 1_555
H13D C20D 1_555 1_555
C21D N1D 1_555 1_555
H14D C21D 1_555 1_555
C22D C21D 1_555 1_555
H15D C22D 1_555 1_555
C23D C22D 1_555 1_555
H16D C23D 1_555 1_555
C24D C23D 1_555 1_555
H17D C24D 1_555 1_555
C25D N1D 1_555 1_555
H18D C25D 1_555 1_555
C1 C7 1_555 1_555
C4 C8 1_555 1_555
C5 C6 1_555 1_555
C13 C14 1_555 1_555
C19 C20 1_555 1_555
C24 C25 1_555 1_555
C1D C7D 1_555 1_555
C4D C8D 1_555 1_555
C5D C6D 1_555 1_555
C13D C14D 1_555 1_555
C19D C20D 1_555 1_555
C24D C25D 1_555 1_555

#END
