
#######################################################################
#
#                 Cambridge Crystallographic Data Centre
#                                CCDC 
#
#######################################################################
#
# If this CIF has been generated from an entry in the Cambridge 
# Structural Database, then it will include bibliographic, chemical, 
# crystal, experimental, refinement or atomic coordinate data resulting 
# from the CCDC's data processing and validation procedures.
#
#######################################################################

data_PEGDIP
_symmetry_cell_setting           monoclinic
_symmetry_space_group_name_H-M   'P 21/n'
_symmetry_Int_Tables_number      14
_space_group_name_Hall           '-P 2yn'
loop_
_symmetry_equiv_pos_site_id
_symmetry_equiv_pos_as_xyz
1 x,y,z
2 1/2-x,1/2+y,1/2-z
3 -x,-y,-z
4 1/2+x,1/2-y,1/2+z
_cell_length_a                   10.6402(13)
_cell_length_b                   15.0184(18)
_cell_length_c                   16.425(2)
_cell_angle_alpha                90
_cell_angle_beta                 90.703(2)
_cell_angle_gamma                90
_cell_volume                     2624.5
loop_
_atom_site_label
_atom_site_type_symbol
_atom_site_fract_x
_atom_site_fract_y
_atom_site_fract_z
C1 C 0.5273(3) 0.3606(2) 0.67712(18)
C2 C 0.4797(2) 0.31312(19) 0.75199(17)
C3 C 0.4397(2) 0.2246(2) 0.74695(17)
C4 C 0.4040(3) 0.1808(2) 0.81754(18)
H1 H 0.3804 0.1206 0.8145
C5 C 0.4022(3) 0.2234(2) 0.89232(18)
C6 C 0.4384(3) 0.3122(2) 0.89624(18)
H2 H 0.4354 0.3422 0.9464
C7 C 0.4789(2) 0.3575(2) 0.82778(18)
C8 C 0.5181(3) 0.4526(2) 0.83585(18)
C9 C 0.6026(3) 0.4778(2) 0.89632(19)
H3 H 0.6366 0.4346 0.9317
C10 C 0.6372(3) 0.5658(2) 0.9052(2)
H4 H 0.6954 0.5817 0.9462
C11 C 0.5884(3) 0.6301(2) 0.8553(2)
H5 H 0.6118 0.6901 0.8621
C12 C 0.5041(3) 0.6059(2) 0.7947(2)
H6 H 0.4703 0.6496 0.7598
C13 C 0.4692(3) 0.5183(2) 0.78507(18)
H7 H 0.4116 0.5027 0.7436
C14 C 0.4314(3) 0.1756(2) 0.66728(18)
C15 C 0.3236(3) 0.1280(2) 0.6501(2)
H8 H 0.2594 0.1259 0.6889
C16 C 0.3076(3) 0.0831(2) 0.5772(2)
H9 H 0.2334 0.0509 0.5669
C17 C 0.4003(3) 0.0859(2) 0.5199(2)
H10 H 0.3897 0.0561 0.4699
C18 C 0.5093(3) 0.1326(2) 0.5364(2)
H11 H 0.5732 0.1346 0.4974
C19 C 0.5256(3) 0.1768(2) 0.60995(18)
H12 H 0.6008 0.2076 0.6209
C20 C 0.3585(3) 0.1749(2) 0.96686(19)
C21 C 0.7458(3) 0.5967(2) 0.5283(2)
H13 H 0.7386 0.5680 0.4776
C22 C 0.7428(3) 0.6885(2) 0.5305(2)
H14 H 0.7339 0.7215 0.4822
C23 C 0.7531(3) 0.7305(2) 0.6039(2)
H15 H 0.7521 0.7930 0.6068
C24 C 0.7651(3) 0.6798(2) 0.6743(2)
H16 H 0.7712 0.7072 0.7256
C25 C 0.7677(3) 0.5893(2) 0.6673(2)
H17 H 0.7764 0.5551 0.7150
C26 C 1.0362(3) 0.4041(3) 0.6379(2)
H18 H 1.0475 0.4218 0.5836
C27 C 1.1416(3) 0.3900(3) 0.6857(2)
H19 H 1.2223 0.3957 0.6635
C28 C 1.1279(3) 0.3680(3) 0.7646(2)
H20 H 1.1982 0.3589 0.7988
C29 C 1.0094(3) 0.3594(3) 0.7933(2)
H21 H 0.9966 0.3438 0.8480
C30 C 0.9083(3) 0.3736(3) 0.7423(2)
H22 H 0.8270 0.3684 0.7637
C31 C 0.5766(3) 0.3855(3) 0.42466(19)
H23 H 0.4934 0.4039 0.4065
H24 H 0.5807 0.3210 0.4261
H25 H 0.6388 0.4081 0.3873
O1 O 0.64605(17) 0.36970(14) 0.67439(11)
O2 O 0.44967(18) 0.38548(14) 0.62481(12)
O3 O 0.60092(19) 0.41989(15) 0.50370(12)
H26 H 0.5381 0.4127 0.5324
O4 O 0.3079(2) 0.21893(14) 1.02384(12)
O5 O 0.36744(19) 0.09180(14) 0.97062(12)
N1 N 0.7586(2) 0.54681(17) 0.59572(15)
N2 N 0.9200(2) 0.39422(17) 0.66406(15)
Co1 Co 0.76162(4) 0.40777(3) 0.58135(2)
O4C O 0.8079(2) 0.28107(14) 0.52384(12)
O5C O 0.86744(19) 0.40820(14) 0.47062(12)
Co1C Co 0.26162(4) 0.09223(3) 1.08135(2)
loop_
_geom_bond_atom_site_label_1
_geom_bond_atom_site_label_2
_geom_bond_site_symmetry_1
_geom_bond_site_symmetry_2
C1 C2 1_555 1_555
C2 C3 1_555 1_555
C3 C4 1_555 1_555
C4 H1 1_555 1_555
C5 C4 1_555 1_555
C6 C5 1_555 1_555
H2 C6 1_555 1_555
C7 C2 1_555 1_555
C8 C7 1_555 1_555
C9 C8 1_555 1_555
H3 C9 1_555 1_555
C10 C9 1_555 1_555
H4 C10 1_555 1_555
C11 C10 1_555 1_555
H5 C11 1_555 1_555
C12 C11 1_555 1_555
H6 C12 1_555 1_555
C13 C8 1_555 1_555
H7 C13 1_555 1_555
C14 C3 1_555 1_555
C15 C14 1_555 1_555
H8 C15 1_555 1_555
C16 C15 1_555 1_555
H9 C16 1_555 1_555
C17 C16 1_555 1_555
H10 C17 1_555 1_555
C18 C17 1_555 1_555
H11 C18 1_555 1_555
C19 C14 1_555 1_555
H12 C19 1_555 1_555
C20 C5 1_555 1_555
C21 H13 1_555 1_555
C22 C21 1_555 1_555
H14 C22 1_555 1_555
C23 C22 1_555 1_555
H15 C23 1_555 1_555
C24 C23 1_555 1_555
H16 C24 1_555 1_555
C25 C24 1_555 1_555
H17 C25 1_555 1_555
C26 H18 1_555 1_555
C27 C26 1_555 1_555
H19 C27 1_555 1_555
C28 C27 1_555 1_555
H20 C28 1_555 1_555
C29 C28 1_555 1_555
H21 C29 1_555 1_555
C30 C29 1_555 1_555
H22 C30 1_555 1_555
C31 H23 1_555 1_555
H24 C31 1_555 1_555
H25 C31 1_555 1_555
O1 C1 1_555 1_555
O2 C1 1_555 1_555
O3 C31 1_555 1_555
H26 O3 1_555 1_555
O4 C20 1_555 1_555
O5 C20 1_555 1_555
N1 C21 1_555 1_555
N2 C26 1_555 1_555
Co1 O1 1_555 1_555
O4C Co1 1_555 1_555
O5C Co1 1_555 1_555
Co1C O4 1_555 1_555
C6 C7 1_555 1_555
C12 C13 1_555 1_555
C18 C19 1_555 1_555
C25 N1 1_555 1_555
C30 N2 1_555 1_555
O3 Co1 1_555 1_555
O5 Co1C 1_555 1_555
N1 Co1 1_555 1_555
N2 Co1 1_555 1_555

#END
