
#######################################################################
#
#                 Cambridge Crystallographic Data Centre
#                                CCDC 
#
#######################################################################
#
# If this CIF has been generated from an entry in the Cambridge 
# Structural Database, then it will include bibliographic, chemical, 
# crystal, experimental, refinement or atomic coordinate data resulting 
# from the CCDC's data processing and validation procedures.
#
#######################################################################

data_PEGDEL
_symmetry_cell_setting           monoclinic
_symmetry_space_group_name_H-M   'P 21/n'
_symmetry_Int_Tables_number      14
_space_group_name_Hall           '-P 2yn'
loop_
_symmetry_equiv_pos_site_id
_symmetry_equiv_pos_as_xyz
1 x,y,z
2 1/2-x,1/2+y,1/2-z
3 -x,-y,-z
4 1/2+x,1/2-y,1/2+z
_cell_length_a                   10.6080(2)
_cell_length_b                   14.9550(4)
_cell_length_c                   16.4450(4)
_cell_angle_alpha                90
_cell_angle_beta                 90.6760(13)
_cell_angle_gamma                90
_cell_volume                     2608.7
loop_
_atom_site_label
_atom_site_type_symbol
_atom_site_fract_x
_atom_site_fract_y
_atom_site_fract_z
Zn1 Zn 0.23692(3) 0.09061(2) 0.415346(19)
O1 O 0.35317(17) 0.13173(15) 0.32503(11)
O2 O 0.54983(18) 0.11523(15) 0.37473(12)
O3 O 0.6939(2) 0.28138(16) -0.02393(12)
O4 O 0.6293(2) 0.40855(17) 0.02795(13)
O5 O 0.4000(2) 0.07856(16) 0.49623(12)
H1 H 0.464(3) 0.084(2) 0.465(2)
N1 N 0.0781(2) 0.10410(18) 0.33263(15)
N2 N 0.2398(2) -0.04884(18) 0.40576(14)
C1 C 0.5201(2) 0.1874(2) 0.24672(16)
C2 C 0.5202(3) 0.1420(2) 0.17143(17)
C3 C 0.5613(3) 0.1877(2) 0.10298(17)
H2 H 0.5642 0.1570 0.0524
C4 C 0.5982(3) 0.2763(2) 0.10618(17)
C5 C 0.5964(3) 0.3199(2) 0.18101(18)
H3 H 0.6203 0.3811 0.1836
C6 C 0.5608(3) 0.2767(2) 0.25195(17)
C7 C 0.4724(3) 0.1404(2) 0.32224(17)
C8 C 0.6419(3) 0.3248(2) 0.03203(18)
C9 C 0.4819(3) 0.0467(2) 0.16426(17)
C10 C 0.5282(3) -0.0187(2) 0.21663(18)
H4 H 0.5851 -0.0026 0.2592
C11 C 0.4922(3) -0.1075(2) 0.2075(2)
H5 H 0.5248 -0.1515 0.2436
C12 C 0.4094(3) -0.1320(2) 0.1460(2)
H6 H 0.3852 -0.1928 0.1394
C13 C 0.3624(3) -0.0675(2) 0.0943(2)
H7 H 0.3044 -0.0840 0.0524
C14 C 0.3981(3) 0.0207(2) 0.10240(19)
H8 H 0.3656 0.0641 0.0656
C15 C 0.5702(3) 0.3248(2) 0.33145(18)
C16 C 0.6796(3) 0.3733(2) 0.34815(19)
H9 H 0.7446 0.3753 0.3090
C17 C 0.6950(3) 0.4186(2) 0.4208(2)
H10 H 0.7699 0.4516 0.4312
C18 C 0.6019(4) 0.4158(2) 0.4778(2)
H11 H 0.6130 0.4462 0.5281
C19 C 0.4918(3) 0.3689(2) 0.46239(19)
H12 H 0.4274 0.3669 0.5020
C20 C 0.4760(3) 0.3246(2) 0.38876(19)
H13 H 0.3994 0.2938 0.3776
C21 C -0.0386(3) 0.0962(3) 0.3605(2)
H14 H -0.0498 0.0794 0.4157
C22 C -0.1443(3) 0.1115(3) 0.3125(2)
H15 H -0.2261 0.1071 0.3349
C23 C -0.1298(3) 0.1331(3) 0.2324(2)
H16 H -0.2012 0.1434 0.1982
C24 C -0.0106(3) 0.1397(3) 0.2024(2)
H17 H 0.0025 0.1543 0.1469
C25 C 0.0907(3) 0.1247(3) 0.2544(2)
H18 H 0.1733 0.1294 0.2332
C26 C 0.2543(3) -0.0978(2) 0.47333(18)
H19 H 0.2619 -0.0678 0.5241
C27 C 0.2587(3) -0.1902(2) 0.4724(2)
H20 H 0.2687 -0.2230 0.5215
C28 C 0.2483(3) -0.2336(2) 0.3992(2)
H21 H 0.2507 -0.2971 0.3969
C29 C 0.2341(3) -0.1840(2) 0.3286(2)
H22 H 0.2275 -0.2126 0.2772
C30 C 0.2300(3) -0.0926(2) 0.33482(18)
H23 H 0.2196 -0.0585 0.2864
C31 C 0.4234(3) 0.1152(3) 0.57447(19)
H24 H 0.4366 0.1799 0.5698
H25 H 0.4989 0.0874 0.5983
H26 H 0.3510 0.1037 0.6094
Zn1C Zn 0.73692(3) 0.40939(2) -0.084654(19)
O3C O 0.1939(2) 0.21862(16) 0.47607(12)
O4C O 0.1293(2) 0.09145(17) 0.52795(13)
loop_
_geom_bond_atom_site_label_1
_geom_bond_atom_site_label_2
_geom_bond_site_symmetry_1
_geom_bond_site_symmetry_2
Zn1 O1 1_555 1_555
O1 C7 1_555 1_555
O2 C7 1_555 1_555
O3 C8 1_555 1_555
O4 C8 1_555 1_555
O5 Zn1 1_555 1_555
H1 O5 1_555 1_555
N1 Zn1 1_555 1_555
N2 Zn1 1_555 1_555
C1 C2 1_555 1_555
C2 C3 1_555 1_555
C3 H2 1_555 1_555
C4 C3 1_555 1_555
C5 C4 1_555 1_555
H3 C5 1_555 1_555
C6 C1 1_555 1_555
C7 C1 1_555 1_555
C8 C4 1_555 1_555
C9 C2 1_555 1_555
C10 C9 1_555 1_555
H4 C10 1_555 1_555
C11 C10 1_555 1_555
H5 C11 1_555 1_555
C12 C11 1_555 1_555
H6 C12 1_555 1_555
C13 C12 1_555 1_555
H7 C13 1_555 1_555
C14 C9 1_555 1_555
H8 C14 1_555 1_555
C15 C6 1_555 1_555
C16 C15 1_555 1_555
H9 C16 1_555 1_555
C17 C16 1_555 1_555
H10 C17 1_555 1_555
C18 C17 1_555 1_555
H11 C18 1_555 1_555
C19 C18 1_555 1_555
H12 C19 1_555 1_555
C20 C15 1_555 1_555
H13 C20 1_555 1_555
C21 N1 1_555 1_555
H14 C21 1_555 1_555
C22 C21 1_555 1_555
H15 C22 1_555 1_555
C23 C22 1_555 1_555
H16 C23 1_555 1_555
C24 C23 1_555 1_555
H17 C24 1_555 1_555
C25 N1 1_555 1_555
H18 C25 1_555 1_555
C26 N2 1_555 1_555
H19 C26 1_555 1_555
C27 C26 1_555 1_555
H20 C27 1_555 1_555
C28 C27 1_555 1_555
H21 C28 1_555 1_555
C29 C28 1_555 1_555
H22 C29 1_555 1_555
C30 N2 1_555 1_555
H23 C30 1_555 1_555
C31 O5 1_555 1_555
H24 C31 1_555 1_555
H25 C31 1_555 1_555
H26 C31 1_555 1_555
Zn1C O3 1_555 1_555
O3C Zn1 1_555 1_555
O4C Zn1 1_555 1_555
O4 Zn1C 1_555 1_555
C5 C6 1_555 1_555
C13 C14 1_555 1_555
C19 C20 1_555 1_555
C24 C25 1_555 1_555
C29 C30 1_555 1_555

#END
