
#######################################################################
#
#                 Cambridge Crystallographic Data Centre
#                                CCDC 
#
#######################################################################
#
# If this CIF has been generated from an entry in the Cambridge 
# Structural Database, then it will include bibliographic, chemical, 
# crystal, experimental, refinement or atomic coordinate data resulting 
# from the CCDC's data processing and validation procedures.
#
#######################################################################

data_PEGFAJ
_symmetry_cell_setting           monoclinic
_symmetry_space_group_name_H-M   'C 2/c'
_symmetry_Int_Tables_number      15
_space_group_name_Hall           '-C 2yn'
loop_
_symmetry_equiv_pos_site_id
_symmetry_equiv_pos_as_xyz
1 x,y,z
2 1/2+x,1/2+y,z
3 -x,y,1/2-z
4 1/2-x,1/2+y,1/2-z
5 -x,-y,-z
6 1/2-x,1/2-y,-z
7 x,-y,1/2+z
8 1/2+x,1/2-y,1/2+z
_cell_length_a                   17.3343(14)
_cell_length_b                   11.1485(9)
_cell_length_c                   9.4161(5)
_cell_angle_alpha                90
_cell_angle_beta                 114.154(4)
_cell_angle_gamma                90
_cell_volume                     1660.36
loop_
_atom_site_label
_atom_site_type_symbol
_atom_site_fract_x
_atom_site_fract_y
_atom_site_fract_z
Ag1 Ag 0.48720(3) 0.85661(3) 0.08954(4)
O1 O 0.4545(2) 0.6734(3) 0.1236(4)
C1 C 0.5000 0.6216(6) 0.2500
C2 C 0.5000 0.4882(6) 0.2500
C3 C 0.4401(3) 0.4245(4) 0.1264(5)
H1 H 0.3997 0.4673 0.0411
C4 C 0.4384(3) 0.2996(4) 0.1256(5)
C5 C 0.5000 0.2383(6) 0.2500
C6 C 0.5000 0.1032(6) 0.2500
O2 O 0.5159(2) 0.0513(3) 0.1466(4)
C7 C 0.3680(3) 0.2383(4) -0.0054(5)
C8 C 0.3272(3) 0.1362(5) 0.0185(6)
H2 H 0.3445 0.1038 0.1202
C9 C 0.2619(4) 0.0828(6) -0.1051(7)
H3 H 0.2368 0.0114 -0.0886
C10 C 0.2328(4) 0.1323(6) -0.2526(7)
H4 H 0.1862 0.0973 -0.3361
C11 C 0.2716(4) 0.2320(6) -0.2772(7)
H5 H 0.2517 0.2664 -0.3783
C12 C 0.3400(3) 0.2838(5) -0.1557(5)
H6 H 0.3678 0.3509 -0.1756
Ag1B Ag 0.51280(3) 0.85661(3) 0.41046(4)
Ag1_2 Ag 0.48720(3) -0.14339(3) 0.08954(4)
Ag1D Ag 0.51280(3) 0.14339(3) -0.08954(4)
Ag1F Ag 0.48720(3) 0.14339(3) 0.58954(4)
Ag1B_2 Ag 0.51280(3) -0.14339(3) 0.41046(4)
O1B O 0.5455(2) 0.6734(3) 0.3764(4)
C3B C 0.5599(3) 0.4245(4) 0.3736(5)
H1B H 0.6003 0.4673 0.4589
C4B C 0.5616(3) 0.2996(4) 0.3744(5)
O2B O 0.4841(2) 0.0513(3) 0.3534(4)
O2_2 O 0.5159(2) 1.0513(3) 0.1466(4)
O2D O 0.4841(2) 0.9487(3) -0.1466(4)
O2F O 0.5159(2) 0.9487(3) 0.6466(4)
O2B_2 O 0.4841(2) 1.0513(3) 0.3534(4)
C7B C 0.6320(3) 0.2383(4) 0.5054(5)
C8B C 0.6728(3) 0.1362(5) 0.4815(6)
H2B H 0.6555 0.1038 0.3798
C9B C 0.7381(4) 0.0828(6) 0.6051(7)
H3B H 0.7632 0.0114 0.5886
C10B C 0.7672(4) 0.1323(6) 0.7526(7)
H4B H 0.8138 0.0973 0.8361
C11B C 0.7284(4) 0.2320(6) 0.7772(7)
H5B H 0.7483 0.2664 0.8783
C12B C 0.6600(3) 0.2838(5) 0.6557(5)
H6B H 0.6322 0.3509 0.6756
loop_
_geom_bond_atom_site_label_1
_geom_bond_atom_site_label_2
_geom_bond_site_symmetry_1
_geom_bond_site_symmetry_2
Ag1 O1 1_555 1_555
O1 C1 1_555 1_555
C1 C2 1_555 1_555
C2 C3 1_555 1_555
C3 H1 1_555 1_555
C4 C3 1_555 1_555
C5 C4 1_555 1_555
C6 C5 1_555 1_555
O2 C6 1_555 1_555
C7 C4 1_555 1_555
C8 C7 1_555 1_555
H2 C8 1_555 1_555
C9 C8 1_555 1_555
H3 C9 1_555 1_555
C10 C9 1_555 1_555
H4 C10 1_555 1_555
C11 C10 1_555 1_555
H5 C11 1_555 1_555
C12 C7 1_555 1_555
H6 C12 1_555 1_555
Ag1B Ag1 1_555 1_555
Ag1_2 O2 1_555 1_555
Ag1D O2 1_555 1_555
Ag1F O2B 1_555 1_555
Ag1B_2 Ag1_2 1_555 1_555
O1B C1 1_555 1_555
C3B C2 1_555 1_555
H1B C3B 1_555 1_555
C4B C5 1_555 1_555
O2B C6 1_555 1_555
O2_2 Ag1 1_555 1_555
O2D Ag1 1_555 1_555
O2F Ag1B 1_555 1_555
O2B_2 Ag1B 1_555 1_555
C7B C4B 1_555 1_555
C8B C7B 1_555 1_555
H2B C8B 1_555 1_555
C9B C8B 1_555 1_555
H3B C9B 1_555 1_555
C10B C9B 1_555 1_555
H4B C10B 1_555 1_555
C11B C10B 1_555 1_555
H5B C11B 1_555 1_555
C12B C7B 1_555 1_555
H6B C12B 1_555 1_555
C11 C12 1_555 1_555
Ag1B O1B 1_555 1_555
Ag1B_2 O2B 1_555 1_555
C3B C4B 1_555 1_555
C11B C12B 1_555 1_555

#END
