
#######################################################################
#
#                 Cambridge Crystallographic Data Centre
#                                CCDC 
#
#######################################################################
#
# If this CIF has been generated from an entry in the Cambridge 
# Structural Database, then it will include bibliographic, chemical, 
# crystal, experimental, refinement or atomic coordinate data resulting 
# from the CCDC's data processing and validation procedures.
#
#######################################################################

data_PEGLET
_symmetry_cell_setting           orthorhombic
_symmetry_space_group_name_H-M   'P b c a'
_symmetry_Int_Tables_number      61
_space_group_name_Hall           '-P 2ac 2ab'
loop_
_symmetry_equiv_pos_site_id
_symmetry_equiv_pos_as_xyz
1 x,y,z
2 1/2-x,-y,1/2+z
3 -x,1/2+y,1/2-z
4 1/2+x,1/2-y,-z
5 -x,-y,-z
6 1/2+x,y,1/2-z
7 x,1/2-y,1/2+z
8 1/2-x,1/2+y,z
_cell_length_a                   8.8021(18)
_cell_length_b                   8.2930(19)
_cell_length_c                   19.773(4)
_cell_angle_alpha                90
_cell_angle_beta                 90
_cell_angle_gamma                90
_cell_volume                     1443.35
loop_
_atom_site_label
_atom_site_type_symbol
_atom_site_fract_x
_atom_site_fract_y
_atom_site_fract_z
Tl1 Tl 0.58712(3) 0.11448(4) 0.590602(15)
O1 O 0.3251(6) 0.0620(6) 0.5123(3)
O2 O 0.0964(6) 0.1733(7) 0.5022(3)
O3 O -0.0858(6) 0.1747(7) 0.6003(3)
H1 H -0.0310 0.1910 0.5576
C1 C 0.1429(8) 0.0169(8) 0.5990(4)
C2 C 0.0044(7) 0.0652(9) 0.6297(4)
C3 C -0.0370(8) 0.0028(10) 0.6907(4)
H2 H -0.1281 0.0343 0.7105
C4 C 0.0559(9) -0.1074(9) 0.7236(5)
H3 H 0.0278 -0.1462 0.7659
C5 C 0.1879(9) -0.1596(10) 0.6947(4)
H4 H 0.2475 -0.2366 0.7163
C6 C 0.2322(7) -0.0956(8) 0.6323(4)
H5 H 0.3230 -0.1291 0.6128
C7 C 0.1940(8) 0.0877(9) 0.5327(4)
Tl1D Tl 0.41288(3) -0.11448(4) 0.409398(15)
Tl1C Tl 0.08712(3) 0.38552(4) 0.409398(15)
Tl1_2 Tl -0.41288(3) 0.11448(4) 0.590602(15)
O1D O 0.6749(6) -0.0620(6) 0.4877(3)
O2C O 0.5964(6) 0.3267(7) 0.4978(3)
O3_2 O 0.9142(6) 0.1747(7) 0.6003(3)
H1_2 H 0.9690 0.1910 0.5576
loop_
_geom_bond_atom_site_label_1
_geom_bond_atom_site_label_2
_geom_bond_site_symmetry_1
_geom_bond_site_symmetry_2
Tl1 O1 1_555 1_555
O1 C7 1_555 1_555
O2 C7 1_555 1_555
O3 H1 1_555 1_555
C1 C2 1_555 1_555
C2 O3 1_555 1_555
C3 C2 1_555 1_555
H2 C3 1_555 1_555
C4 C3 1_555 1_555
H3 C4 1_555 1_555
C5 C4 1_555 1_555
H4 C5 1_555 1_555
C6 C1 1_555 1_555
H5 C6 1_555 1_555
C7 C1 1_555 1_555
Tl1D O1 1_555 1_555
Tl1C O2 1_555 1_555
Tl1_2 O3 1_555 1_555
O1D Tl1 1_555 1_555
O2C Tl1 1_555 1_555
O3_2 Tl1 1_555 1_555
H1_2 O3_2 1_555 1_555
C5 C6 1_555 1_555
Tl1D O1D 1_555 1_555

#END
