
#######################################################################
#
#                 Cambridge Crystallographic Data Centre
#                                CCDC 
#
#######################################################################
#
# If this CIF has been generated from an entry in the Cambridge 
# Structural Database, then it will include bibliographic, chemical, 
# crystal, experimental, refinement or atomic coordinate data resulting 
# from the CCDC's data processing and validation procedures.
#
#######################################################################

data_PEGNIY
_symmetry_cell_setting           monoclinic
_symmetry_space_group_name_H-M   'C 2/m'
_symmetry_Int_Tables_number      12
_space_group_name_Hall           '-C 2y'
loop_
_symmetry_equiv_pos_site_id
_symmetry_equiv_pos_as_xyz
1 x,y,z
2 1/2+x,1/2+y,z
3 -x,y,-z
4 1/2-x,1/2+y,-z
5 -x,-y,-z
6 1/2-x,1/2-y,-z
7 x,-y,z
8 1/2+x,1/2-y,z
_cell_length_a                   9.445(2)
_cell_length_b                   16.622(3)
_cell_length_c                   6.202(1)
_cell_angle_alpha                90
_cell_angle_beta                 101.4(1)
_cell_angle_gamma                90
_cell_volume                     954.472
loop_
_atom_site_label
_atom_site_type_symbol
_atom_site_fract_x
_atom_site_fract_y
_atom_site_fract_z
Cu1 Cu 0.5000 0.6709(1) 0.0000
O1 O 0.3365(3) 0.6776(2) 0.1792(5)
O2 O 0.3658(3) 0.7560(2) -0.1848(5)
N1 N 0.4157(3) 0.5711(2) -0.2001(5)
C1 C 0.4535(4) 0.5000 -0.1110(7)
C2 C 0.2411(3) 0.7272(2) 0.1048(5)
C3 C 0.3352(4) 0.5708(3) -0.4039(6)
C4 C 0.2954(6) 0.5000 -0.5121(9)
H1 H 0.305 0.621 -0.475
H2 H 0.241 0.500 -0.660
O2E O 0.1342(3) 0.7440(2) 0.1848(5)
Cu1E Cu 0.0000 0.8291(1) 0.0000
O1E O 0.1635(3) 0.8224(2) -0.1792(5)
C2E C 0.2589(3) 0.7728(2) -0.1048(5)
O1B O 0.6635(3) 0.6776(2) -0.1792(5)
O2B O 0.6342(3) 0.7560(2) 0.1848(5)
N1F N 0.4157(3) 0.4289(2) -0.2001(5)
Cu1F Cu 0.5000 0.3291(1) 0.0000
O1F O 0.3365(3) 0.3224(2) 0.1792(5)
O1D O 0.6635(3) 0.3224(2) -0.1792(5)
O2F O 0.3658(3) 0.2440(2) -0.1848(5)
O2D O 0.6342(3) 0.2440(2) 0.1848(5)
N1D N 0.5843(3) 0.4289(2) 0.2001(5)
C1D C 0.5465(4) 0.5000 0.1110(7)
N1B N 0.5843(3) 0.5711(2) 0.2001(5)
C3B C 0.6648(4) 0.5708(3) 0.4039(6)
C4B C 0.7046(6) 0.5000 0.5121(9)
C3D C 0.6648(4) 0.4292(3) 0.4039(6)
H1D H 0.695 0.379 0.475
H2B H 0.759 0.500 0.660
H1B H 0.695 0.621 0.475
C3F C 0.3352(4) 0.4292(3) -0.4039(6)
H1F H 0.305 0.379 -0.475
C2F C 0.2411(3) 0.2728(2) 0.1048(5)
C2C C 0.2589(3) 0.2272(2) -0.1048(5)
O2C O 0.1342(3) 0.2560(2) 0.1848(5)
O1C O 0.1635(3) 0.1776(2) -0.1792(5)
Cu1A Cu 0.0000 0.1709(1) 0.0000
O3 O 0.0000 0.3455(6) 0.5000
O4? O -0.0828(12) 0.4596(9) 0.1430(26)
O5? O -0.0405(11) 0.3820(6) 0.2822(22)
loop_
_geom_bond_atom_site_label_1
_geom_bond_atom_site_label_2
_geom_bond_site_symmetry_1
_geom_bond_site_symmetry_2
Cu1 O1 1_555 1_555
O1 C2 1_555 1_555
O2 Cu1 1_555 1_555
N1 Cu1 1_555 1_555
C1 N1 1_555 1_555
C2 O2E 1_555 1_555
C3 N1 1_555 1_555
C4 C3 1_555 1_555
H1 C3 1_555 1_555
H2 C4 1_555 1_555
O2E Cu1E 1_555 1_555
Cu1E O1E 1_555 1_555
O1E C2E 1_555 1_555
C2E O2 1_555 1_555
O1B Cu1 1_555 1_555
O2B Cu1 1_555 1_555
N1F C1 1_555 1_555
Cu1F N1F 1_555 1_555
O1F Cu1F 1_555 1_555
O1D Cu1F 1_555 1_555
O2F Cu1F 1_555 1_555
O2D Cu1F 1_555 1_555
N1D Cu1F 1_555 1_555
C1D C1 1_555 1_555
N1B Cu1 1_555 1_555
C3B N1B 1_555 1_555
C4B C3B 1_555 1_555
C3D N1D 1_555 1_555
H1D C3D 1_555 1_555
H2B C4B 1_555 1_555
H1B C3B 1_555 1_555
C3F C4 1_555 1_555
H1F C3F 1_555 1_555
C2F O1F 1_555 1_555
C2C O2F 1_555 1_555
O2C C2F 1_555 1_555
O1C C2C 1_555 1_555
Cu1A O2C 1_555 1_555
C2 C2E 1_555 1_555
N1F C3F 1_555 1_555
N1D C1D 1_555 1_555
C1D N1B 1_555 1_555
C4B C3D 1_555 1_555
C2F C2C 1_555 1_555
O1C Cu1A 1_555 1_555

#END
