
#######################################################################
#
#                 Cambridge Crystallographic Data Centre
#                                CCDC 
#
#######################################################################
#
# If this CIF has been generated from an entry in the Cambridge 
# Structural Database, then it will include bibliographic, chemical, 
# crystal, experimental, refinement or atomic coordinate data resulting 
# from the CCDC's data processing and validation procedures.
#
#######################################################################

data_PEGPUO
_symmetry_cell_setting           tetragonal
_symmetry_space_group_name_H-M   'I 41/a'
_symmetry_Int_Tables_number      88
_space_group_name_Hall           '-I 4ad'
loop_
_symmetry_equiv_pos_site_id
_symmetry_equiv_pos_as_xyz
1 x,y,z
2 1/2-x,-y,1/2+z
3 3/4-y,1/4+x,1/4+z
4 3/4+y,3/4-x,3/4+z
5 1/2+x,1/2+y,1/2+z
6 -x,1/2-y,z
7 1/4-y,3/4+x,3/4+z
8 1/4+y,1/4-x,1/4+z
9 -x,-y,-z
10 1/2+x,y,1/2-z
11 1/4+y,3/4-x,3/4-z
12 1/4-y,1/4+x,1/4-z
13 1/2-x,1/2-y,1/2-z
14 x,1/2+y,-z
15 3/4+y,1/4-x,1/4-z
16 3/4-y,3/4+x,3/4-z
_cell_length_a                   20.3093(8)
_cell_length_b                   20.3093(8)
_cell_length_c                   16.654
_cell_angle_alpha                90
_cell_angle_beta                 90
_cell_angle_gamma                90
_cell_volume                     6869.24
loop_
_atom_site_label
_atom_site_type_symbol
_atom_site_fract_x
_atom_site_fract_y
_atom_site_fract_z
Pr1 Pr 0.68886(3) 0.32768(3) 0.92722(4)
Pr2 Pr 0.69996(3) 0.68205(3) 0.82912(4)
C1 C 0.7036(6) 0.5029(6) 0.8621(7)
H1 H 0.7310 0.4948 0.8185
C2 C 0.6417(6) 0.4879(6) 0.9617(7)
C3 C 0.6448(6) 0.5549(6) 0.9476(7)
C4 C 0.6158(6) 0.6155(6) 0.9830(7)
C5 C 0.6083(6) 0.4450(6) 1.0240(7)
C6 C 0.8271(6) 0.4252(6) 0.9840(7)
H2 H 0.8292 0.4439 0.9331
C7 C 0.7985(6) 0.3631(5) 1.0806(7)
C8 C 0.8494(6) 0.4048(6) 1.1055(7)
C9 C 0.8825(6) 0.4157(6) 1.1839(7)
C10 C 0.7583(6) 0.3105(5) 1.1160(7)
N1 N 0.6866(5) 0.5642(5) 0.8827(6)
N2 N 0.6799(5) 0.4545(5) 0.9061(6)
N3 N 0.7850(5) 0.3781(5) 1.0006(5)
N4 N 0.8668(5) 0.4454(5) 1.0434(5)
O1 O 0.6233(4) 0.6669(4) 0.9422(5)
O2 O 0.5845(4) 0.6144(4) 1.0478(5)
O3 O 0.5786(4) 0.4734(4) 1.0811(5)
O4 O 0.6113(4) 0.3843(4) 1.0135(5)
O5 O 0.9205(4) 0.4642(4) 1.1859(4)
O6 O 0.8723(4) 0.3765(4) 1.2411(5)
O7 O 0.7711(4) 0.2867(4) 1.1859(4)
O8 O 0.7116(4) 0.2863(4) 1.0740(4)
O9 O 0.5856(4) 0.2576(5) 0.9368(6)
O10 O 0.7430(5) 0.2186(4) 0.9252(5)
O11 O 0.6077(5) 0.7595(5) 0.7898(6)
Pr1G Pr 0.57768(3) 0.56114(3) 1.17722(4)
Pr2G Pr 0.93205(3) 0.55004(3) 1.07912(4)
Pr2A Pr 0.80004(3) 0.31795(3) 1.32912(4)
Pr2M Pr 0.69996(3) 0.18205(3) 1.17088(4)
N4F N 0.8046(5) 0.6168(5) 0.7934(5)
O2F O 0.6356(4) 0.3345(4) 0.7978(5)
O3F O 0.7766(4) 0.3286(4) 0.8311(5)
O5F O 0.7858(4) 0.6705(4) 0.9359(4)
O6A O 0.6277(4) 0.6235(4) 0.7411(5)
O7M O 0.7711(4) 0.7867(4) 0.8141(4)
O7A O 0.7289(4) 0.7133(4) 0.6859(4)
O8M O 0.7116(4) 0.7863(4) 0.9260(4)
O12 O 0.0889(9) 0.7305(6) 0.1121(12)
O13 O 0.0551(15) 0.744(2) -0.085(3)
O14 O 0.0000 0.7500 0.187(2)
loop_
_geom_bond_atom_site_label_1
_geom_bond_atom_site_label_2
_geom_bond_site_symmetry_1
_geom_bond_site_symmetry_2
Pr1 N2 1_555 1_555
Pr2 N1 1_555 1_555
C1 H1 1_555 1_555
C2 C3 1_555 1_555
C3 C4 1_555 1_555
C4 O1 1_555 1_555
C5 C2 1_555 1_555
C6 H2 1_555 1_555
C7 C8 1_555 1_555
C8 C9 1_555 1_555
C9 O5 1_555 1_555
C10 C7 1_555 1_555
N1 C1 1_555 1_555
N2 C1 1_555 1_555
N3 Pr1 1_555 1_555
N4 C6 1_555 1_555
O1 Pr2 1_555 1_555
O2 C4 1_555 1_555
O3 C5 1_555 1_555
O4 Pr1 1_555 1_555
O5 Pr2G 1_555 1_555
O6 C9 1_555 1_555
O7 C10 1_555 1_555
O8 Pr1 1_555 1_555
O9 Pr1 1_555 1_555
O10 Pr1 1_555 1_555
O11 Pr2 1_555 1_555
Pr1G O2 1_555 1_555
Pr2G N4 1_555 1_555
Pr2A O6 1_555 1_555
Pr2M O7 1_555 1_555
N4F Pr2 1_555 1_555
O2F Pr1 1_555 1_555
O3F Pr1 1_555 1_555
O5F Pr2 1_555 1_555
O6A Pr2 1_555 1_555
O7M Pr2 1_555 1_555
O7A Pr2 1_555 1_555
O8M Pr2 1_555 1_555
C2 N2 1_555 1_555
C3 N1 1_555 1_555
C5 O4 1_555 1_555
C6 N3 1_555 1_555
C7 N3 1_555 1_555
C8 N4 1_555 1_555
C10 O8 1_555 1_555
O3 Pr1G 1_555 1_555
O7 Pr2A 1_555 1_555
O8 Pr2M 1_555 1_555

#END
