
#######################################################################
#
#                 Cambridge Crystallographic Data Centre
#                                CCDC 
#
#######################################################################
#
# If this CIF has been generated from an entry in the Cambridge 
# Structural Database, then it will include bibliographic, chemical, 
# crystal, experimental, refinement or atomic coordinate data resulting 
# from the CCDC's data processing and validation procedures.
#
#######################################################################

data_PEGQOJ
_symmetry_cell_setting           tetragonal
_symmetry_space_group_name_H-M   'I 41/a'
_symmetry_Int_Tables_number      88
_space_group_name_Hall           '-I 4ad'
loop_
_symmetry_equiv_pos_site_id
_symmetry_equiv_pos_as_xyz
1 x,y,z
2 1/2-x,-y,1/2+z
3 3/4-y,1/4+x,1/4+z
4 3/4+y,3/4-x,3/4+z
5 1/2+x,1/2+y,1/2+z
6 -x,1/2-y,z
7 1/4-y,3/4+x,3/4+z
8 1/4+y,1/4-x,1/4+z
9 -x,-y,-z
10 1/2+x,y,1/2-z
11 1/4+y,3/4-x,3/4-z
12 1/4-y,1/4+x,1/4-z
13 1/2-x,1/2-y,1/2-z
14 x,1/2+y,-z
15 3/4+y,1/4-x,1/4-z
16 3/4-y,3/4+x,3/4-z
_cell_length_a                   20.2103(18)
_cell_length_b                   20.2103(18)
_cell_length_c                   16.023(2)
_cell_angle_alpha                90
_cell_angle_beta                 90
_cell_angle_gamma                90
_cell_volume                     6544.69
loop_
_atom_site_label
_atom_site_type_symbol
_atom_site_fract_x
_atom_site_fract_y
_atom_site_fract_z
Tb1 Tb 0.79349(4) 0.32684(4) 0.09011(5)
Tb2 Tb 0.79420(4) 0.68111(4) 0.16926(5)
C1 C 0.7786(10) 0.5049(9) 0.1509(11)
H1 H 0.7466 0.5006 0.1924
C2 C 0.8479(8) 0.4804(8) 0.0548(13)
C3 C 0.8449(8) 0.5487(8) 0.0634(10)
C4 C 0.8791(8) 0.6046(8) 0.0251(10)
C5 C 0.8845(8) 0.4369(8) -0.0003(13)
C6 C 0.6632(9) 0.4214(9) 0.0257(11)
H2 H 0.6592 0.4402 0.0784
C7 C 0.6964(7) 0.3606(8) -0.0763(12)
C8 C 0.6478(8) 0.4011(8) -0.1038(10)
C9 C 0.6182(8) 0.4144(10) -0.1864(11)
C10 C 0.7385(8) 0.3082(8) -0.1075(11)
N1 N 0.8016(7) 0.5644(7) 0.1265(8)
N2 N 0.8045(7) 0.4518(7) 0.1119(9)
N3 N 0.7055(7) 0.3740(7) 0.0092(10)
N4 N 0.6263(7) 0.4409(7) -0.0388(8)
O1 O 0.8685(6) 0.6613(6) 0.0570(8)
O2 O 0.9187(6) 0.5991(6) -0.0340(8)
O3 O 0.9134(7) 0.4583(6) -0.0622(8)
O4 O 0.8827(6) 0.3746(6) 0.0176(9)
O5 O 0.5803(6) 0.4627(6) -0.1925(8)
O6 O 0.6313(6) 0.3752(6) -0.2450(8)
O7 O 0.7292(6) 0.2840(5) -0.1833(8)
O8 O 0.7827(5) 0.2847(5) -0.0643(7)
O9 O 0.8720(7) 0.2377(7) 0.0814(8)
O10 O 0.7211(8) 0.2332(6) 0.0853(9)
O11 O 0.8840(6) 0.7571(6) 0.1981(9)
Tb1F Tb 0.92316(4) 0.54349(4) -0.15989(5)
Tb2F Tb 0.56889(4) 0.54420(4) -0.08074(5)
Tb2A Tb 0.70580(4) 0.31889(4) -0.33074(5)
Tb2M Tb 0.79420(4) 0.18111(4) -0.16926(5)
N4G N 0.6909(7) 0.6237(7) 0.2112(8)
O2G O 0.8491(6) 0.3313(6) 0.2160(8)
O3G O 0.7083(6) 0.3366(7) 0.1878(8)
O5G O 0.7127(6) 0.6697(6) 0.0575(8)
O6A O 0.8687(6) 0.6248(6) 0.2550(8)
O7A O 0.7708(6) 0.7160(5) 0.3167(8)
O7M O 0.7292(6) 0.7840(5) 0.1833(8)
O8M O 0.7827(5) 0.7847(5) 0.0643(7)
O12 O 1.000(3) 0.205(3) -0.302(5)
O13 O 1.0000 0.2500 0.1250
O14 O 0.9742(9) 0.3225(13) -0.098(2)
loop_
_geom_bond_atom_site_label_1
_geom_bond_atom_site_label_2
_geom_bond_site_symmetry_1
_geom_bond_site_symmetry_2
Tb1 N2 1_555 1_555
Tb2 N1 1_555 1_555
C1 H1 1_555 1_555
C2 C3 1_555 1_555
C3 C4 1_555 1_555
C4 O1 1_555 1_555
C5 C2 1_555 1_555
C6 H2 1_555 1_555
C7 C8 1_555 1_555
C8 C9 1_555 1_555
C9 O5 1_555 1_555
C10 C7 1_555 1_555
N1 C1 1_555 1_555
N2 C1 1_555 1_555
N3 Tb1 1_555 1_555
N4 C6 1_555 1_555
O1 Tb2 1_555 1_555
O2 C4 1_555 1_555
O3 C5 1_555 1_555
O4 Tb1 1_555 1_555
O5 Tb2F 1_555 1_555
O6 C9 1_555 1_555
O7 C10 1_555 1_555
O8 Tb1 1_555 1_555
O9 Tb1 1_555 1_555
O10 Tb1 1_555 1_555
O11 Tb2 1_555 1_555
Tb1F O2 1_555 1_555
Tb2F N4 1_555 1_555
Tb2A O6 1_555 1_555
Tb2M O7 1_555 1_555
N4G Tb2 1_555 1_555
O2G Tb1 1_555 1_555
O3G Tb1 1_555 1_555
O5G Tb2 1_555 1_555
O6A Tb2 1_555 1_555
O7A Tb2 1_555 1_555
O7M Tb2 1_555 1_555
O8M Tb2 1_555 1_555
C2 N2 1_555 1_555
C3 N1 1_555 1_555
C5 O4 1_555 1_555
C6 N3 1_555 1_555
C7 N3 1_555 1_555
C8 N4 1_555 1_555
C10 O8 1_555 1_555
O3 Tb1F 1_555 1_555
O7 Tb2A 1_555 1_555
O8 Tb2M 1_555 1_555

#END
