
#######################################################################
#
#                 Cambridge Crystallographic Data Centre
#                                CCDC 
#
#######################################################################
#
# If this CIF has been generated from an entry in the Cambridge 
# Structural Database, then it will include bibliographic, chemical, 
# crystal, experimental, refinement or atomic coordinate data resulting 
# from the CCDC's data processing and validation procedures.
#
#######################################################################

data_PEGROK
_symmetry_cell_setting           triclinic
_symmetry_space_group_name_H-M   'P -1'
_symmetry_Int_Tables_number      2
_space_group_name_Hall           '-P 1'
loop_
_symmetry_equiv_pos_site_id
_symmetry_equiv_pos_as_xyz
1 x,y,z
2 -x,-y,-z
_cell_length_a                   6.78060(10)
_cell_length_b                   10.7596(2)
_cell_length_c                   11.5754(2)
_cell_angle_alpha                88.3260(10)
_cell_angle_beta                 80.3550(10)
_cell_angle_gamma                73.2260(10)
_cell_volume                     796.975
loop_
_atom_site_label
_atom_site_type_symbol
_atom_site_fract_x
_atom_site_fract_y
_atom_site_fract_z
Sn1 Sn -0.07896(3) -0.19621(2) -0.672190(19)
Sn2 Sn -0.32992(3) -0.08128(2) -0.381550(18)
Sn3 Sn -0.33063(3) -0.39191(2) -0.477430(19)
P1 P -0.79500(12) -0.15922(8) -0.45918(7)
P2 P -0.12729(14) -0.47963(8) -0.24076(8)
O1 O -0.8222(4) -0.1961(2) -0.5813(2)
O2 O -0.2590(4) -0.3682(2) -0.3048(2)
O3 O -0.6348(4) -0.2682(2) -0.4085(2)
O4 O -0.2522(3) -0.2208(2) -0.5134(2)
O5 O -0.7201(4) -0.0355(2) -0.4695(2)
O6 O -1.0005(3) -0.1307(2) -0.3699(2)
O7 O -0.0286(4) -0.5958(2) -0.3264(2)
O8 O -0.2374(4) -0.5114(3) -0.1254(2)
N1 N 0.0534(4) -0.2894(3) -0.1733(2)
H1 H 0.0307 -0.2374 -0.2381
C1 C 0.0969(5) -0.4284(3) -0.2122(3)
H2 H 0.2022 -0.4442 -0.2846
H3 H 0.1606 -0.4850 -0.1512
C2 C -0.1329(5) -0.2432(3) -0.0798(3)
H4 H -0.2576 -0.2545 -0.1070
H5 H -0.1110 -0.2958 -0.0089
C3 C 0.2124(5) -0.1302(3) -0.1042(3)
H6 H 0.3377 -0.1209 -0.0762
H7 H 0.1974 -0.0804 -0.1771
C4 C 0.0189(5) -0.0731(3) -0.0111(3)
H8 H 0.0426 -0.1189 0.0640
C5 C -0.1702(5) -0.1004(3) -0.0491(3)
H9 H -0.2057 -0.0475 -0.1182
H10 H -0.2913 -0.0732 0.0151
C6 C 0.2430(5) -0.2725(3) -0.1309(3)
H11 H 0.2663 -0.3235 -0.0593
H12 H 0.3679 -0.3052 -0.1918
Sn1_2 Sn -0.07896(3) 0.80379(2) 0.327810(19)
Sn1A Sn 0.07896(3) -0.80379(2) -0.327810(19)
Sn1A_2 Sn 0.07896(3) 0.19621(2) 0.672190(19)
Sn1_3 Sn -1.07896(3) -0.19621(2) -0.672190(19)
Sn1A_3 Sn 1.07896(3) 0.19621(2) 0.672190(19)
Sn2A Sn 0.32992(3) 0.08128(2) 0.381550(18)
Sn2A_2 Sn -0.67008(3) 0.08128(2) -0.618450(18)
Sn2_2 Sn -1.32992(3) -0.08128(2) -0.381550(18)
Sn2_3 Sn 0.67008(3) -0.08128(2) 0.618450(18)
Sn2A_3 Sn 1.32992(3) 0.08128(2) 0.381550(18)
Sn3A Sn 0.33063(3) 0.39191(2) 0.477430(19)
P1A P 0.79500(12) 0.15922(8) 0.45918(7)
P2A P 0.12729(14) 0.47963(8) 0.24076(8)
O1_2 O 0.1778(4) -0.1961(2) -0.5813(2)
O1A O -0.1778(4) 0.1961(2) 0.5813(2)
O1A_2 O 0.8222(4) 0.1961(2) 0.5813(2)
O2A O 0.2590(4) 0.3682(2) 0.3048(2)
O3A O 0.6348(4) 0.2682(2) 0.4085(2)
O4A O 0.2522(3) 0.2208(2) 0.5134(2)
O5A O -0.2799(4) 0.0355(2) -0.5305(2)
O5_2 O 0.2799(4) -0.0355(2) 0.5305(2)
O5A_2 O 0.7201(4) 0.0355(2) 0.4695(2)
O6_2 O -0.0005(3) -0.1307(2) -0.3699(2)
O6A O 0.0005(3) 0.1307(2) 0.3699(2)
O6A_2 O 1.0005(3) 0.1307(2) 0.3699(2)
O7A O 0.0286(4) 0.5958(2) 0.3264(2)
O7A_2 O 0.0286(4) -0.4042(2) -0.6736(2)
O7_2 O -0.0286(4) 0.4042(2) 0.6736(2)
O8A O 0.2374(4) 0.5114(3) 0.1254(2)
N1A N -0.0534(4) 0.2894(3) 0.1733(2)
H1A H -0.0307 0.2374 0.2381
C1A C -0.0969(5) 0.4284(3) 0.2122(3)
H2A H -0.2022 0.4442 0.2846
H3A H -0.1606 0.4850 0.1512
C2A C 0.1329(5) 0.2432(3) 0.0798(3)
H4A H 0.2576 0.2545 0.1070
H5A H 0.1110 0.2958 0.0089
C3A C -0.2124(5) 0.1302(3) 0.1042(3)
H6A H -0.3377 0.1209 0.0762
H7A H -0.1974 0.0804 0.1771
C4A C -0.0189(5) 0.0731(3) 0.0111(3)
H8A H -0.0426 0.1189 -0.0640
C5A C 0.1702(5) 0.1004(3) 0.0491(3)
H9A H 0.2057 0.0475 0.1182
H10A H 0.2913 0.0732 -0.0151
C6A C -0.2430(5) 0.2725(3) 0.1309(3)
H11A H -0.2663 0.3235 0.0593
H12A H -0.3679 0.3052 0.1918
O9 O 0.5364(5) -0.3640(3) -0.9269(3)
H13 H 0.429(7) -0.401(5) -0.907(5)
H14 H 0.621(8) -0.407(5) -0.992(3)
O10 O 0.5809(5) -0.2775(4) -0.7170(3)
H15 H 0.450(6) -0.235(5) -0.677(5)
H16 H 0.556(10) -0.311(6) -0.786(4)
loop_
_geom_bond_atom_site_label_1
_geom_bond_atom_site_label_2
_geom_bond_site_symmetry_1
_geom_bond_site_symmetry_2
Sn1 O4 1_555 1_555
Sn2 O4 1_555 1_555
Sn3 O2 1_555 1_555
P1 O1 1_555 1_555
P2 O2 1_555 1_555
O1 Sn1_3 1_555 1_555
O3 Sn3 1_555 1_555
O4 Sn3 1_555 1_555
O5 P1 1_555 1_555
O6 P1 1_555 1_555
O7 P2 1_555 1_555
O8 P2 1_555 1_555
N1 H1 1_555 1_555
C1 P2 1_555 1_555
H2 C1 1_555 1_555
H3 C1 1_555 1_555
C2 N1 1_555 1_555
H4 C2 1_555 1_555
H5 C2 1_555 1_555
C3 H6 1_555 1_555
H7 C3 1_555 1_555
C4 C3 1_555 1_555
H8 C4 1_555 1_555
C5 C2 1_555 1_555
H9 C5 1_555 1_555
H10 C5 1_555 1_555
C6 N1 1_555 1_555
H11 C6 1_555 1_555
H12 C6 1_555 1_555
O9 H13 1_555 1_555
H14 O9 1_555 1_555
O10 H15 1_555 1_555
H16 O10 1_555 1_555
Sn1_2 O7A 1_555 1_555
Sn1A O7 1_555 1_555
Sn1A_2 O1A 1_555 1_555
Sn1A_3 O1A_2 1_555 1_555
Sn2A O4A 1_555 1_555
Sn2A_2 O5 1_555 1_555
Sn2_2 O6 1_555 1_555
Sn2_3 O5A_2 1_555 1_555
Sn2A_3 O6A_2 1_555 1_555
Sn3A O2A 1_555 1_555
P1A O1A_2 1_555 1_555
P2A O2A 1_555 1_555
O1_2 Sn1 1_555 1_555
O3A Sn3A 1_555 1_555
O4A Sn1A_2 1_555 1_555
O5A Sn2 1_555 1_555
O5_2 Sn2A 1_555 1_555
O5A_2 P1A 1_555 1_555
O6_2 Sn2 1_555 1_555
O6A Sn2A 1_555 1_555
O6A_2 P1A 1_555 1_555
O7A P2A 1_555 1_555
O7A_2 Sn1 1_555 1_555
O7_2 Sn1A_2 1_555 1_555
O8A P2A 1_555 1_555
N1A H1A 1_555 1_555
C1A P2A 1_555 1_555
H2A C1A 1_555 1_555
H3A C1A 1_555 1_555
C2A N1A 1_555 1_555
H4A C2A 1_555 1_555
H5A C2A 1_555 1_555
C3A H6A 1_555 1_555
H7A C3A 1_555 1_555
C4A C4 1_555 1_555
H8A C4A 1_555 1_555
C5A C2A 1_555 1_555
H9A C5A 1_555 1_555
H10A C5A 1_555 1_555
C6A N1A 1_555 1_555
H11A C6A 1_555 1_555
H12A C6A 1_555 1_555
P1 O3 1_555 1_555
N1 C1 1_555 1_555
C3 C6 1_555 1_555
C4 C5 1_555 1_555
Sn3A O4A 1_555 1_555
P1A O3A 1_555 1_555
N1A C1A 1_555 1_555
C3A C4A 1_555 1_555
C3A C6A 1_555 1_555
C4A C5A 1_555 1_555

#END
