
#######################################################################
#
#                 Cambridge Crystallographic Data Centre
#                                CCDC 
#
#######################################################################
#
# If this CIF has been generated from an entry in the Cambridge 
# Structural Database, then it will include bibliographic, chemical, 
# crystal, experimental, refinement or atomic coordinate data resulting 
# from the CCDC's data processing and validation procedures.
#
#######################################################################

data_PEGREA
_symmetry_cell_setting           monoclinic
_symmetry_space_group_name_H-M   'P 21/c'
_symmetry_Int_Tables_number      14
_space_group_name_Hall           '-P 2ybc'
loop_
_symmetry_equiv_pos_site_id
_symmetry_equiv_pos_as_xyz
1 x,y,z
2 -x,1/2+y,1/2-z
3 -x,-y,-z
4 x,1/2-y,1/2+z
_cell_length_a                   10.170(4)
_cell_length_b                   9.611(4)
_cell_length_c                   10.184(4)
_cell_angle_alpha                90
_cell_angle_beta                 90.362(4)
_cell_angle_gamma                90
_cell_volume                     995.404
loop_
_atom_site_label
_atom_site_type_symbol
_atom_site_fract_x
_atom_site_fract_y
_atom_site_fract_z
Co1 Co 0.88951(2) 0.10803(3) 0.36392(2)
P1 P 1.01537(5) 0.29366(5) 0.13557(5)
O1 O 0.90885(13) 0.20606(14) 0.19613(13)
O2 O 1.00767(14) 0.29688(15) -0.01323(13)
O3 O 1.02141(13) 0.43846(14) 0.19745(14)
C1 C 1.17256(19) 0.2152(2) 0.1805(2)
H1 H 1.2428 0.2611 0.1293
H2 H 1.1900 0.2342 0.2745
Cl1 Cl 0.68174(5) 0.07465(7) 0.42267(6)
C2 C 1.42516(19) 0.0276(2) 0.1746(2)
H3 H 1.4950 -0.0201 0.2256
H4 H 1.4408 0.1290 0.1808
C3 C 1.43327(19) -0.0173(2) 0.0305(2)
H5 H 1.4210 -0.1205 0.0265
N1 N 1.18097(16) 0.06117(18) 0.15819(17)
H6 H 1.1037 0.0234 0.1911
C4 C 1.31922(18) 0.0510(2) -0.0449(2)
H7 H 1.3325 0.1530 -0.0463
H8 H 1.3194 0.0175 -0.1369
C5 C 1.29248(19) -0.0063(2) 0.2337(2)
H9 H 1.2799 -0.1085 0.2339
H10 H 1.2908 0.0261 0.3259
C6 C 1.18714(19) 0.0190(2) 0.0160(2)
H11 H 1.1174 0.0686 -0.0336
H12 H 1.1697 -0.0820 0.0087
Co1B Co 2.11049(2) -0.10803(3) -0.36392(2)
Co1A Co 1.11049(2) 0.60803(3) 0.13608(2)
Co1A_2 Co 2.11049(2) -0.39197(3) 0.13608(2)
Co1C Co 0.88951(2) 0.39197(3) -0.13608(2)
Co1C_2 Co 1.88951(2) -0.60803(3) -0.13608(2)
P1B P 1.98463(5) -0.29366(5) -0.13557(5)
O1B O 2.09115(13) -0.20606(14) -0.19613(13)
O2B O 1.99233(14) -0.29688(15) 0.01323(13)
O2A O 1.99233(14) -0.20312(15) -0.48677(13)
O2C O 1.00767(14) 0.20312(15) 0.48677(13)
O3B O 1.97859(13) -0.43846(14) -0.19745(14)
O3A O 0.97859(13) -0.06154(14) 0.30255(14)
O3C O 2.02141(13) 0.06154(14) -0.30255(14)
C1B C 1.82744(19) -0.2152(2) -0.1805(2)
H1B H 1.7572 -0.2611 -0.1293
H2B H 1.8100 -0.2342 -0.2745
Cl1B Cl 2.31826(5) -0.07465(7) -0.42267(6)
C2B C 1.57484(19) -0.0276(2) -0.1746(2)
H3B H 1.5050 0.0201 -0.2256
H4B H 1.5592 -0.1290 -0.1808
C3B C 1.56673(19) 0.0173(2) -0.0305(2)
H5B H 1.5790 0.1205 -0.0265
N1B N 1.81903(16) -0.06117(18) -0.15819(17)
H6B H 1.8963 -0.0234 -0.1911
C4B C 1.68078(18) -0.0510(2) 0.0449(2)
H7B H 1.6675 -0.1530 0.0463
H8B H 1.6806 -0.0175 0.1369
C5B C 1.70752(19) 0.0063(2) -0.2337(2)
H9B H 1.7201 0.1085 -0.2339
H10B H 1.7092 -0.0261 -0.3259
C6B C 1.81286(19) -0.0190(2) -0.0160(2)
H11B H 1.8826 -0.0686 0.0336
H12B H 1.8303 0.0820 -0.0087
loop_
_geom_bond_atom_site_label_1
_geom_bond_atom_site_label_2
_geom_bond_site_symmetry_1
_geom_bond_site_symmetry_2
Co1 O1 1_555 1_555
P1 O1 1_555 1_555
O2 P1 1_555 1_555
O3 P1 1_555 1_555
C1 P1 1_555 1_555
H1 C1 1_555 1_555
H2 C1 1_555 1_555
Cl1 Co1 1_555 1_555
C2 H3 1_555 1_555
H4 C2 1_555 1_555
C3 C2 1_555 1_555
H5 C3 1_555 1_555
N1 C1 1_555 1_555
H6 N1 1_555 1_555
C4 C3 1_555 1_555
H7 C4 1_555 1_555
H8 C4 1_555 1_555
C5 C2 1_555 1_555
H9 C5 1_555 1_555
H10 C5 1_555 1_555
C6 N1 1_555 1_555
H11 C6 1_555 1_555
H12 C6 1_555 1_555
Co1B O1B 1_555 1_555
Co1A O3 1_555 1_555
Co1A_2 O2B 1_555 1_555
Co1C O2 1_555 1_555
Co1C_2 O3B 1_555 1_555
P1B O1B 1_555 1_555
O2B P1B 1_555 1_555
O2A Co1B 1_555 1_555
O2C Co1 1_555 1_555
O3B P1B 1_555 1_555
O3A Co1 1_555 1_555
O3C Co1B 1_555 1_555
C1B P1B 1_555 1_555
H1B C1B 1_555 1_555
H2B C1B 1_555 1_555
Cl1B Co1B 1_555 1_555
C2B H3B 1_555 1_555
H4B C2B 1_555 1_555
C3B C3 1_555 1_555
H5B C3B 1_555 1_555
N1B C1B 1_555 1_555
H6B N1B 1_555 1_555
C4B C3B 1_555 1_555
H7B C4B 1_555 1_555
H8B C4B 1_555 1_555
C5B C2B 1_555 1_555
H9B C5B 1_555 1_555
H10B C5B 1_555 1_555
C6B N1B 1_555 1_555
H11B C6B 1_555 1_555
H12B C6B 1_555 1_555
N1 C5 1_555 1_555
C4 C6 1_555 1_555
C2B C3B 1_555 1_555
N1B C5B 1_555 1_555
C4B C6B 1_555 1_555

#END
