
#######################################################################
#
#                 Cambridge Crystallographic Data Centre
#                                CCDC 
#
#######################################################################
#
# If this CIF has been generated from an entry in the Cambridge 
# Structural Database, then it will include bibliographic, chemical, 
# crystal, experimental, refinement or atomic coordinate data resulting 
# from the CCDC's data processing and validation procedures.
#
#######################################################################

data_PEGRAW
_symmetry_cell_setting           monoclinic
_symmetry_space_group_name_H-M   'P 21/c'
_symmetry_Int_Tables_number      14
_space_group_name_Hall           '-P 2ybc'
loop_
_symmetry_equiv_pos_site_id
_symmetry_equiv_pos_as_xyz
1 x,y,z
2 -x,1/2+y,1/2-z
3 -x,-y,-z
4 x,1/2-y,1/2+z
_cell_length_a                   15.1081(12)
_cell_length_b                   11.5458(7)
_cell_length_c                   10.5958(7)
_cell_angle_alpha                90
_cell_angle_beta                 110.394(4)
_cell_angle_gamma                90
_cell_volume                     1732.43
loop_
_atom_site_label
_atom_site_type_symbol
_atom_site_fract_x
_atom_site_fract_y
_atom_site_fract_z
Co1 Co 0.09481(3) -0.30962(3) -0.19788(4)
Co2 Co -0.09751(3) -0.35422(3) -0.14925(4)
P1 P 0.12745(5) -0.37350(6) 0.09110(8)
P2 P 0.88192(5) -0.20897(7) 0.05249(8)
O1 O 0.07535(15) -0.14115(19) -0.1227(2)
H1 H 0.071(3) -0.090(4) -0.175(4)
H2 H 0.029(3) -0.136(3) -0.076(4)
N1 N 0.24245(17) -0.3163(2) -0.0535(3)
O2 O 0.94891(14) -0.18599(19) 0.1959(2)
C1 C 0.3068(2) -0.3642(3) -0.1193(3)
H3 H 0.2993 -0.3185 -0.2015
H4 H 0.2876 -0.4448 -0.1476
O3 O 0.05003(14) -0.37399(17) -0.0481(2)
O4 O 0.11037(16) -0.48976(19) -0.2404(3)
H5 H 0.095(3) -0.532(4) -0.193(5)
H6 H 0.111(3) -0.527(4) -0.305(5)
C2 C 0.37912(19) -0.1891(2) 0.0827(3)
H7 H 0.3892 -0.2301 0.1687
H8 H 0.3958 -0.1067 0.1039
C3 C 0.4113(2) -0.3638(2) -0.0299(3)
H9 H 0.4204 -0.4130 0.0501
H10 H 0.4495 -0.3967 -0.0805
O5 O 0.86585(17) -0.3390(2) 0.0221(3)
O6 O 0.90863(18) -0.1571(2) -0.0602(3)
C4 C 0.2745(2) -0.1974(2) -0.0053(3)
H11 H 0.2360 -0.1683 0.0469
H12 H 0.2627 -0.1461 -0.0844
C5 C 0.44509(19) -0.2410(3) 0.0153(3)
H13 H 0.4377 -0.1943 -0.0672
O7 O 0.11975(13) -0.47429(16) 0.1794(2)
O8 O 0.13656(14) -0.25811(17) 0.1613(2)
C6 C 0.7742(2) -0.1411(3) 0.0580(3)
H14 H 0.7804 -0.0558 0.0560
H15 H 0.7200 -0.1646 -0.0221
C7 C 0.61745(19) -0.3109(3) 0.0723(4)
H16 H 0.6153 -0.2927 -0.0200
H17 H 0.5977 -0.3926 0.0734
C8 C 0.5858(2) -0.1083(3) 0.1173(3)
H18 H 0.5813 -0.0819 0.0264
H19 H 0.5457 -0.0569 0.1494
C9 C 0.54886(19) -0.2322(2) 0.1084(3)
H20 H 0.5514 -0.2546 0.2007
C10 C 0.6878(2) -0.0981(3) 0.2120(3)
H21 H 0.7087 -0.0171 0.2097
H22 H 0.6899 -0.1139 0.3048
N2 N 0.75636(17) -0.1758(2) 0.1827(3)
C11 C 0.7188(2) -0.2964(2) 0.1708(3)
H23 H 0.7214 -0.3226 0.2610
H24 H 0.7607 -0.3476 0.1419
C12 C 0.23654(19) -0.3938(2) 0.0550(3)
H25 H 0.2913 -0.3790 0.1380
H26 H 0.2402 -0.4753 0.0283
Co1C Co 1.09481(3) -0.19038(3) 0.30212(4)
Co1C_2 Co 0.09481(3) -0.19038(3) 0.30212(4)
Co2C Co 0.90249(3) -0.14578(3) 0.35075(4)
Co2_2 Co 0.90249(3) -0.35422(3) -0.14925(4)
Co2B Co 0.09751(3) -0.64578(3) 0.14925(4)
O2C O -0.05109(14) -0.31401(19) -0.3041(2)
O5_2 O -0.13415(17) -0.3390(2) 0.0221(3)
O6_2 O -0.09137(18) -0.1571(2) -0.0602(3)
O7B O -0.11975(13) -0.52571(16) -0.1794(2)
O8C O 0.13656(14) -0.24189(17) -0.3387(2)
N2C N -0.24364(17) -0.3242(2) -0.3173(3)
loop_
_geom_bond_atom_site_label_1
_geom_bond_atom_site_label_2
_geom_bond_site_symmetry_1
_geom_bond_site_symmetry_2
Co1 O1 1_555 1_555
Co2 O3 1_555 1_555
P1 O3 1_555 1_555
P2 O2 1_555 1_555
O1 H1 1_555 1_555
H2 O1 1_555 1_555
N1 Co1 1_555 1_555
O2 Co1C 1_555 1_555
C1 N1 1_555 1_555
H3 C1 1_555 1_555
H4 C1 1_555 1_555
O3 Co1 1_555 1_555
O4 Co1 1_555 1_555
H5 O4 1_555 1_555
H6 O4 1_555 1_555
C2 H7 1_555 1_555
H8 C2 1_555 1_555
C3 C1 1_555 1_555
H9 C3 1_555 1_555
H10 C3 1_555 1_555
O5 P2 1_555 1_555
O6 P2 1_555 1_555
C4 N1 1_555 1_555
H11 C4 1_555 1_555
H12 C4 1_555 1_555
C5 C2 1_555 1_555
H13 C5 1_555 1_555
O7 P1 1_555 1_555
O8 P1 1_555 1_555
C6 P2 1_555 1_555
H14 C6 1_555 1_555
H15 C6 1_555 1_555
C7 H16 1_555 1_555
H17 C7 1_555 1_555
C8 H18 1_555 1_555
H19 C8 1_555 1_555
C9 C5 1_555 1_555
H20 C9 1_555 1_555
C10 C8 1_555 1_555
H21 C10 1_555 1_555
H22 C10 1_555 1_555
N2 C6 1_555 1_555
C11 C7 1_555 1_555
H23 C11 1_555 1_555
H24 C11 1_555 1_555
C12 P1 1_555 1_555
H25 C12 1_555 1_555
H26 C12 1_555 1_555
Co1C_2 O8 1_555 1_555
Co2C O2 1_555 1_555
Co2_2 O5 1_555 1_555
Co2B O7 1_555 1_555
O2C Co1 1_555 1_555
O5_2 Co2 1_555 1_555
O6_2 Co2 1_555 1_555
O7B Co2 1_555 1_555
O8C Co1 1_555 1_555
N2C Co2 1_555 1_555
Co2 O2C 1_555 1_555
N1 C12 1_555 1_555
C2 C4 1_555 1_555
C3 C5 1_555 1_555
O6 Co2_2 1_555 1_555
C7 C9 1_555 1_555
C8 C9 1_555 1_555
C10 N2 1_555 1_555
N2 C11 1_555 1_555
N2 Co2C 1_555 1_555

#END
