
#######################################################################
#
#                 Cambridge Crystallographic Data Centre
#                                CCDC 
#
#######################################################################
#
# If this CIF has been generated from an entry in the Cambridge 
# Structural Database, then it will include bibliographic, chemical, 
# crystal, experimental, refinement or atomic coordinate data resulting 
# from the CCDC's data processing and validation procedures.
#
#######################################################################

data_PEGRIE
_symmetry_cell_setting           triclinic
_symmetry_space_group_name_H-M   'P -1'
_symmetry_Int_Tables_number      2
_space_group_name_Hall           '-P 1'
loop_
_symmetry_equiv_pos_site_id
_symmetry_equiv_pos_as_xyz
1 x,y,z
2 -x,-y,-z
_cell_length_a                   6.4350(16)
_cell_length_b                   11.641(3)
_cell_length_c                   12.750(3)
_cell_angle_alpha                88.490(10)
_cell_angle_beta                 79.781(10)
_cell_angle_gamma                79.276(9)
_cell_volume                     923.511
loop_
_atom_site_label
_atom_site_type_symbol
_atom_site_fract_x
_atom_site_fract_y
_atom_site_fract_z
Mn1 Mn 0.12577(13) 0.09446(7) 0.42954(7)
Mn2 Mn 0.34302(13) 0.23070(7) 0.59157(7)
P1 P 0.6489(2) 0.05592(12) 0.37802(11)
P2 P -0.1720(2) 0.31521(12) -0.42149(12)
O1 O 0.4387(5) 0.1219(3) 0.4404(3)
O2 O 0.0249(6) 0.2161(3) -0.4420(3)
O3 O 0.8250(6) 0.0434(3) 0.4460(3)
O4 O -0.3693(5) 0.2690(3) -0.3676(3)
O5 O -0.2059(6) 0.3851(3) -0.5208(3)
O6 O 0.6263(6) -0.0608(3) 0.3350(3)
N1 N 0.0777(7) 0.3504(4) -0.2711(4)
N2 N 0.5560(7) 0.1945(4) 0.2046(4)
C1 C -0.0209(9) 0.2778(5) -0.1858(4)
H1 H -0.0780 0.2168 -0.2185
H2 H -0.1427 0.3276 -0.1398
C2 C 0.4041(9) 0.2544(5) 0.0005(5)
H3 H 0.5397 0.2277 -0.0514
C3 C -0.0909(8) 0.4112(5) -0.3315(4)
H4 H -0.0355 0.4753 -0.3735
H5 H -0.2191 0.4468 -0.2799
C4 C 0.3212(9) 0.3897(5) -0.1511(5)
H6 H 0.3671 0.4539 -0.1170
H7 H 0.4496 0.3445 -0.1967
C5 C 0.3551(9) 0.1492(5) 0.0673(4)
H8 H 0.3392 0.0864 0.0202
H9 H 0.2179 0.1718 0.1175
C6 C 0.1389(9) 0.2204(5) -0.1187(5)
H10 H 0.2577 0.1684 -0.1644
H11 H 0.0679 0.1716 -0.0640
C7 C 0.7243(8) 0.1500(5) 0.2685(4)
H12 H 0.7694 0.2177 0.2974
H13 H 0.8507 0.1065 0.2204
C8 C 0.2309(9) 0.3088(5) -0.0638(4)
H14 H 0.1105 0.3572 -0.0141
C9 C 0.5355(9) 0.1041(5) 0.1298(5)
H15 H 0.5047 0.0335 0.1700
H16 H 0.6728 0.0820 0.0795
C10 C 0.4486(10) 0.3449(5) 0.0742(5)
H17 H 0.4981 0.4095 0.0305
H18 H 0.3128 0.3782 0.1219
C11 C 0.1589(9) 0.4416(5) -0.2204(5)
H19 H 0.0367 0.4930 -0.1762
H20 H 0.2268 0.4901 -0.2764
C12 C 0.6154(10) 0.2955(5) 0.1416(5)
H21 H 0.7561 0.2709 0.0947
H22 H 0.6301 0.3572 0.1904
O7 O 0.1225(7) 0.2465(4) 0.3190(3)
H23 H 0.246(10) 0.243(5) 0.292(5)
H24 H 0.103(10) 0.302(6) 0.363(5)
O8 O 0.3598(6) 0.3823(4) 0.4808(3)
H25 H 0.486(4) 0.391(6) 0.475(5)
H26 H 0.309(10) 0.448(5) 0.509(5)
O9 O 0.2134(7) -0.0360(4) 0.3010(4)
H27 H 0.152(10) -0.096(6) 0.333(5)
H28 H 0.321(11) -0.066(6) 0.305(6)
Mn1_2 Mn 0.12577(13) 0.09446(7) -0.57046(7)
Mn1_3 Mn 1.12577(13) 0.09446(7) 0.42954(7)
Mn1A Mn 0.87423(13) -0.09446(7) 0.57046(7)
Mn2_2 Mn 0.34302(13) 0.23070(7) -0.40843(7)
Mn2_3 Mn -0.65698(13) 0.23070(7) -0.40843(7)
Mn2A Mn 0.65698(13) -0.23070(7) 0.40843(7)
O2_2 O 0.0249(6) 0.2161(3) 0.5580(3)
O3_2 O -0.1750(6) 0.0434(3) 0.4460(3)
O3A O 0.1750(6) -0.0434(3) 0.5540(3)
O4_2 O 0.6307(5) 0.2690(3) 0.6324(3)
O6A O 0.3737(6) 0.0608(3) 0.6650(3)
N1_2 N 0.0777(7) 0.3504(4) 0.7289(4)
loop_
_geom_bond_atom_site_label_1
_geom_bond_atom_site_label_2
_geom_bond_site_symmetry_1
_geom_bond_site_symmetry_2
Mn1 O1 1_555 1_555
Mn2 O1 1_555 1_555
P1 O1 1_555 1_555
P2 O2 1_555 1_555
O2 Mn1_2 1_555 1_555
O3 P1 1_555 1_555
O4 P2 1_555 1_555
O5 P2 1_555 1_555
O6 P1 1_555 1_555
N1 C1 1_555 1_555
N2 C7 1_555 1_555
C1 H1 1_555 1_555
H2 C1 1_555 1_555
C2 H3 1_555 1_555
C3 P2 1_555 1_555
H4 C3 1_555 1_555
H5 C3 1_555 1_555
C4 H6 1_555 1_555
H7 C4 1_555 1_555
C5 C2 1_555 1_555
H8 C5 1_555 1_555
H9 C5 1_555 1_555
C6 C1 1_555 1_555
H10 C6 1_555 1_555
H11 C6 1_555 1_555
C7 P1 1_555 1_555
H12 C7 1_555 1_555
H13 C7 1_555 1_555
C8 C2 1_555 1_555
H14 C8 1_555 1_555
C9 N2 1_555 1_555
H15 C9 1_555 1_555
H16 C9 1_555 1_555
C10 C2 1_555 1_555
H17 C10 1_555 1_555
H18 C10 1_555 1_555
C11 N1 1_555 1_555
H19 C11 1_555 1_555
H20 C11 1_555 1_555
C12 N2 1_555 1_555
H21 C12 1_555 1_555
H22 C12 1_555 1_555
O7 Mn1 1_555 1_555
H23 O7 1_555 1_555
H24 O7 1_555 1_555
O8 Mn2 1_555 1_555
H25 O8 1_555 1_555
H26 O8 1_555 1_555
O9 Mn1 1_555 1_555
H27 O9 1_555 1_555
H28 O9 1_555 1_555
Mn1_3 O3 1_555 1_555
Mn1A O3 1_555 1_555
Mn2_2 O2 1_555 1_555
Mn2_3 O4 1_555 1_555
Mn2A O6 1_555 1_555
O2_2 Mn1 1_555 1_555
O3_2 Mn1 1_555 1_555
O3A Mn1 1_555 1_555
O4_2 Mn2 1_555 1_555
O6A Mn2 1_555 1_555
N1_2 Mn2 1_555 1_555
Mn2 O2_2 1_555 1_555
N1 C3 1_555 1_555
N1 Mn2_2 1_555 1_555
C4 C8 1_555 1_555
C4 C11 1_555 1_555
C5 C9 1_555 1_555
C6 C8 1_555 1_555
C10 C12 1_555 1_555

#END
