
#######################################################################
#
#                 Cambridge Crystallographic Data Centre
#                                CCDC 
#
#######################################################################
#
# If this CIF has been generated from an entry in the Cambridge 
# Structural Database, then it will include bibliographic, chemical, 
# crystal, experimental, refinement or atomic coordinate data resulting 
# from the CCDC's data processing and validation procedures.
#
#######################################################################

data_PEGSOK
_symmetry_cell_setting           monoclinic
_symmetry_space_group_name_H-M   'P 21'
_symmetry_Int_Tables_number      4
_space_group_name_Hall           'P 2yb'
loop_
_symmetry_equiv_pos_site_id
_symmetry_equiv_pos_as_xyz
1 x,y,z
2 -x,1/2+y,-z
_cell_length_a                   10.9364(6)
_cell_length_b                   8.8819(5)
_cell_length_c                   19.9898(7)
_cell_angle_alpha                90
_cell_angle_beta                 101.773(3)
_cell_angle_gamma                90
_cell_volume                     1900.88
loop_
_atom_site_label
_atom_site_type_symbol
_atom_site_fract_x
_atom_site_fract_y
_atom_site_fract_z
Mn1 Mn -0.24355(10) -0.18978(16) 0.24653(4)
C1 C -0.2404(5) -0.1993(9) 0.0932(2)
C2 C -0.1979(6) -0.1160(9) 0.0410(3)
H1 H -0.2154 -0.1377 -0.0066
C3 C -0.1280(6) -0.0002(8) 0.0725(3)
H2 H -0.0863 0.0739 0.0511
C4 C -0.1287(6) -0.0106(8) 0.1445(3)
C5 C -0.0713(6) 0.0939(7) 0.1937(3)
C6 C -0.0748(6) 0.0845(7) 0.2618(3)
C7 C -0.0148(7) 0.1895(8) 0.3122(3)
H3 H 0.0327 0.2745 0.3040
C8 C -0.0370(6) 0.1477(8) 0.3729(3)
H4 H -0.0076 0.1967 0.4153
C9 C -0.1134(6) 0.0148(7) 0.3619(3)
C10 C -0.1617(6) -0.0612(7) 0.4114(3)
C11 C -0.2410(5) -0.1850(8) 0.4001(2)
C12 C -0.2834(6) -0.2681(8) 0.4514(3)
H5 H -0.2664 -0.2460 0.4989
C13 C -0.3517(6) -0.3831(8) 0.4210(3)
H6 H -0.3922 -0.4573 0.4429
C14 C -0.3527(6) -0.3741(8) 0.3501(2)
C15 C -0.4029(6) -0.4833(7) 0.3024(3)
C16 C -0.3954(6) -0.4785(8) 0.2322(3)
C17 C -0.4504(6) -0.5882(7) 0.1822(3)
H7 H -0.4934 -0.6771 0.1904
C18 C -0.4296(6) -0.5413(8) 0.1217(3)
H8 H -0.4560 -0.5912 0.0792
C19 C -0.3608(6) -0.4036(7) 0.1320(3)
C20 C -0.3193(6) -0.3268(7) 0.0813(2)
N1 N -0.1958(5) -0.1356(6) 0.1567(2)
N2 N -0.1345(5) -0.0231(6) 0.2933(2)
N3 N -0.2840(5) -0.2508(6) 0.3368(2)
N4 N -0.3408(4) -0.3651(6) 0.2013(2)
C21 C -0.0047(7) 0.2251(7) 0.1716(3)
C22 C 0.1234(6) 0.2278(8) 0.1781(3)
H9 H 0.1704 0.1380 0.1890
C23 C 0.1833(7) 0.3606(8) 0.1688(4)
H10 H 0.2716 0.3611 0.1740
C24 C 0.1179(6) 0.4926(9) 0.1522(3)
C25 C -0.0099(6) 0.4910(8) 0.1440(3)
H11 H -0.0565 0.5810 0.1324
C26 C -0.0709(6) 0.3574(9) 0.1528(3)
H12 H -0.1595 0.3564 0.1458
C27 C 0.1821(6) 0.6424(8) 0.1554(3)
O1 O 0.1253(5) 0.7615(6) 0.1563(2)
O2 O 0.3045(4) 0.6335(6) 0.1656(3)
H13 H 0.3387 0.7131 0.1904
C28 C -0.1255(6) -0.0005(7) 0.4836(3)
C29 C -0.0068(6) -0.0167(8) 0.5213(3)
H14 H 0.0549 -0.0647 0.5015
C30 C 0.0251(6) 0.0357(8) 0.5880(3)
H15 H 0.1067 0.0197 0.6143
C31 C -0.0638(6) 0.1121(8) 0.6158(3)
C32 C -0.1830(6) 0.1331(8) 0.5783(3)
H16 H -0.2427 0.1873 0.5973
C33 C -0.2149(6) 0.0752(8) 0.5135(3)
H17 H -0.2980 0.0862 0.4883
C34 C -0.0245(7) 0.1695(8) 0.6879(3)
O3 O 0.0780(4) 0.1466(6) 0.72352(18)
O4 O -0.1129(5) 0.2495(6) 0.7082(2)
H18 H -0.0848 0.2802 0.7526
C35 C -0.4664(6) -0.6182(8) 0.3242(3)
C36 C -0.5811(7) -0.6052(9) 0.3416(3)
H19 H -0.6199 -0.5095 0.3415
C37 C -0.6402(7) -0.7348(9) 0.3595(3)
H20 H -0.7189 -0.7271 0.3724
C38 C -0.5840(7) -0.8733(9) 0.3584(3)
C39 C -0.4658(6) -0.8846(9) 0.3433(3)
H21 H -0.4256 -0.9796 0.3445
C40 C -0.4073(6) -0.7561(8) 0.3266(3)
H22 H -0.3260 -0.7627 0.3168
C41 C -0.6438(8) -1.0146(10) 0.3784(4)
O5 O -0.7107(6) -1.0117(6) 0.4212(3)
O6 O -0.6199(5) -1.1425(6) 0.3498(2)
H23 H -0.6276 -1.1284 0.3035
C42 C -0.3597(6) -0.3826(8) 0.0104(2)
C43 C -0.4871(6) -0.3722(8) -0.0211(2)
H24 H -0.5445 -0.3257 0.0023
C44 C -0.5287(6) -0.4304(8) -0.0866(2)
H25 H -0.6149 -0.4254 -0.1073
C45 C -0.4449(5) -0.4958(7) -0.1219(3)
C46 C -0.3179(6) -0.5022(8) -0.0911(3)
H26 H -0.2599 -0.5449 -0.1151
C47 C -0.2767(6) -0.4461(8) -0.0255(3)
H27 H -0.1905 -0.4513 -0.0049
C48 C -0.4936(6) -0.5571(7) -0.1926(3)
O7 O -0.6053(4) -0.5346(5) -0.21898(19)
O8 O -0.4164(4) -0.6297(6) -0.2202(2)
Mn1A Mn -0.75645(10) -0.68978(16) -0.24653(4)
Mn1A_2 Mn 0.24355(10) 0.31022(16) 0.75347(4)
O3A O -0.0780(4) -0.3534(6) 0.27648(18)
O7A O -0.3947(4) -0.0346(5) 0.21898(19)
loop_
_geom_bond_atom_site_label_1
_geom_bond_atom_site_label_2
_geom_bond_site_symmetry_1
_geom_bond_site_symmetry_2
Mn1 N1 1_555 1_555
C1 C2 1_555 1_555
C2 H1 1_555 1_555
C3 C2 1_555 1_555
H2 C3 1_555 1_555
C4 C3 1_555 1_555
C5 C4 1_555 1_555
C6 C5 1_555 1_555
C7 C6 1_555 1_555
H3 C7 1_555 1_555
C8 C7 1_555 1_555
H4 C8 1_555 1_555
C9 C8 1_555 1_555
C10 C9 1_555 1_555
C11 C10 1_555 1_555
C12 C11 1_555 1_555
H5 C12 1_555 1_555
C13 C12 1_555 1_555
H6 C13 1_555 1_555
C14 C13 1_555 1_555
C15 C14 1_555 1_555
C16 C15 1_555 1_555
C17 C16 1_555 1_555
H7 C17 1_555 1_555
C18 C17 1_555 1_555
H8 C18 1_555 1_555
C19 C18 1_555 1_555
C20 C1 1_555 1_555
N1 C1 1_555 1_555
N2 Mn1 1_555 1_555
N3 Mn1 1_555 1_555
N4 Mn1 1_555 1_555
C21 C5 1_555 1_555
C22 C21 1_555 1_555
H9 C22 1_555 1_555
C23 C22 1_555 1_555
H10 C23 1_555 1_555
C24 C23 1_555 1_555
C25 C24 1_555 1_555
H11 C25 1_555 1_555
C26 C21 1_555 1_555
H12 C26 1_555 1_555
C27 C24 1_555 1_555
O1 C27 1_555 1_555
O2 C27 1_555 1_555
H13 O2 1_555 1_555
C28 C10 1_555 1_555
C29 C28 1_555 1_555
H14 C29 1_555 1_555
C30 C29 1_555 1_555
H15 C30 1_555 1_555
C31 C30 1_555 1_555
C32 C31 1_555 1_555
H16 C32 1_555 1_555
C33 C28 1_555 1_555
H17 C33 1_555 1_555
C34 C31 1_555 1_555
O3 C34 1_555 1_555
O4 C34 1_555 1_555
H18 O4 1_555 1_555
C35 C15 1_555 1_555
C36 C35 1_555 1_555
H19 C36 1_555 1_555
C37 C36 1_555 1_555
H20 C37 1_555 1_555
C38 C37 1_555 1_555
C39 C38 1_555 1_555
H21 C39 1_555 1_555
C40 C35 1_555 1_555
H22 C40 1_555 1_555
C41 C38 1_555 1_555
O5 C41 1_555 1_555
O6 C41 1_555 1_555
H23 O6 1_555 1_555
C42 C20 1_555 1_555
C43 C42 1_555 1_555
H24 C43 1_555 1_555
C44 C43 1_555 1_555
H25 C44 1_555 1_555
C45 C44 1_555 1_555
C46 C45 1_555 1_555
H26 C46 1_555 1_555
C47 C42 1_555 1_555
H27 C47 1_555 1_555
C48 C45 1_555 1_555
O7 C48 1_555 1_555
O8 C48 1_555 1_555
Mn1A O7 1_555 1_555
Mn1A_2 O3 1_555 1_555
O3A Mn1 1_555 1_555
O7A Mn1 1_555 1_555
C4 N1 1_555 1_555
C6 N2 1_555 1_555
C9 N2 1_555 1_555
C11 N3 1_555 1_555
C14 N3 1_555 1_555
C16 N4 1_555 1_555
C19 C20 1_555 1_555
C19 N4 1_555 1_555
C25 C26 1_555 1_555
C32 C33 1_555 1_555
C39 C40 1_555 1_555
C46 C47 1_555 1_555

#END
