
#######################################################################
#
#                 Cambridge Crystallographic Data Centre
#                                CCDC 
#
#######################################################################
#
# If this CIF has been generated from an entry in the Cambridge 
# Structural Database, then it will include bibliographic, chemical, 
# crystal, experimental, refinement or atomic coordinate data resulting 
# from the CCDC's data processing and validation procedures.
#
#######################################################################

data_PEGSAX
_symmetry_cell_setting           orthorhombic
_symmetry_space_group_name_H-M   'P b c a'
_symmetry_Int_Tables_number      61
_space_group_name_Hall           '-P 2ac 2ab'
loop_
_symmetry_equiv_pos_site_id
_symmetry_equiv_pos_as_xyz
1 x,y,z
2 1/2-x,-y,1/2+z
3 -x,1/2+y,1/2-z
4 1/2+x,1/2-y,-z
5 -x,-y,-z
6 1/2+x,y,1/2-z
7 x,1/2-y,1/2+z
8 1/2-x,1/2+y,z
_cell_length_a                   8.9542(4)
_cell_length_b                   9.4374(4)
_cell_length_c                   21.4718(10)
_cell_angle_alpha                90
_cell_angle_beta                 90
_cell_angle_gamma                90
_cell_volume                     1814.46
loop_
_atom_site_label
_atom_site_type_symbol
_atom_site_fract_x
_atom_site_fract_y
_atom_site_fract_z
Zn1 Zn 0.09138(5) 0.88230(5) 0.29869(2)
P1 P 0.13402(12) 0.57700(11) 0.28157(5)
O1 O 0.1611(3) 0.7196(3) 0.25038(13)
O2 O 0.0843(3) 0.4647(3) 0.23652(13)
O3 O 0.2711(3) 0.5300(3) 0.31839(14)
N1 N 0.0070(4) 0.7510(3) 0.36943(15)
C1 C -0.1232(4) 0.9388(4) 0.42967(19)
H1 H -0.2220 0.9660 0.4465
H2 H -0.0908 1.0144 0.4007
C2 C 0.1349(5) 0.8694(4) 0.45742(19)
H3 H 0.1803 0.9400 0.4290
H4 H 0.2056 0.8530 0.4921
C3 C -0.0150(4) 0.6119(4) 0.3362(2)
H5 H -0.1115 0.6137 0.3137
H6 H -0.0193 0.5344 0.3672
C4 C -0.0112(4) 0.9294(4) 0.48354(18)
H7 H -0.0510 0.8602 0.5147
C5 C -0.1394(4) 0.8015(4) 0.39362(19)
H8 H -0.1829 0.7281 0.4211
H9 H -0.2088 0.8163 0.3583
C6 C 0.1116(4) 0.7320(4) 0.4225(2)
H10 H 0.2088 0.6973 0.4067
H11 H 0.0710 0.6597 0.4513
Zn1D Zn -0.09138(5) 1.11770(5) 0.70131(2)
Zn1B Zn -0.09138(5) 0.38230(5) 0.20131(2)
Zn1C Zn -0.40862(5) 1.61770(5) 0.70131(2)
Zn1F Zn 0.09138(5) 1.61770(5) 0.79869(2)
Zn1G Zn 0.40862(5) 0.38230(5) 0.29869(2)
P1D P -0.13402(12) 1.42300(11) 0.71843(5)
O1D O -0.1611(3) 1.2804(3) 0.74962(13)
O2D O -0.0843(3) 1.5353(3) 0.76348(13)
O2B O -0.0843(3) 0.9647(3) 0.26348(13)
O2F O 0.0843(3) 1.0353(3) 0.73652(13)
O3D O -0.2711(3) 1.4700(3) 0.68161(14)
O3C O -0.2289(3) 0.9700(3) 0.68161(14)
O3G O 0.2289(3) 1.0300(3) 0.31839(14)
N1D N -0.0070(4) 1.2490(3) 0.63057(15)
C1D C 0.1232(4) 1.0612(4) 0.57033(19)
H1D H 0.2220 1.0340 0.5535
H2D H 0.0908 0.9856 0.5993
C2D C -0.1349(5) 1.1306(4) 0.54258(19)
H3D H -0.1803 1.0600 0.5710
H4D H -0.2056 1.1470 0.5079
C3D C 0.0150(4) 1.3881(4) 0.6638(2)
H5D H 0.1115 1.3863 0.6863
H6D H 0.0193 1.4656 0.6328
C4D C 0.0112(4) 1.0706(4) 0.51646(18)
H7D H 0.0510 1.1398 0.4853
C5D C 0.1394(4) 1.1985(4) 0.60638(19)
H8D H 0.1829 1.2719 0.5789
H9D H 0.2088 1.1837 0.6417
C6D C -0.1116(4) 1.2680(4) 0.5775(2)
H10D H -0.2088 1.3027 0.5933
H11D H -0.0710 1.3403 0.5487
O4 O -0.0165(6) 0.7508(5) 0.1374(2)
loop_
_geom_bond_atom_site_label_1
_geom_bond_atom_site_label_2
_geom_bond_site_symmetry_1
_geom_bond_site_symmetry_2
Zn1 O1 1_555 1_555
P1 O1 1_555 1_555
O2 P1 1_555 1_555
O3 P1 1_555 1_555
N1 Zn1 1_555 1_555
C1 H1 1_555 1_555
H2 C1 1_555 1_555
C2 H3 1_555 1_555
H4 C2 1_555 1_555
C3 P1 1_555 1_555
H5 C3 1_555 1_555
H6 C3 1_555 1_555
C4 C1 1_555 1_555
H7 C4 1_555 1_555
C5 N1 1_555 1_555
H8 C5 1_555 1_555
H9 C5 1_555 1_555
C6 N1 1_555 1_555
H10 C6 1_555 1_555
H11 C6 1_555 1_555
Zn1D O1D 1_555 1_555
Zn1B O2 1_555 1_555
Zn1C O3D 1_555 1_555
Zn1F O2D 1_555 1_555
Zn1G O3 1_555 1_555
P1D O1D 1_555 1_555
O2D P1D 1_555 1_555
O2B Zn1 1_555 1_555
O2F Zn1D 1_555 1_555
O3D P1D 1_555 1_555
O3C Zn1D 1_555 1_555
O3G Zn1 1_555 1_555
N1D Zn1D 1_555 1_555
C1D H1D 1_555 1_555
H2D C1D 1_555 1_555
C2D H3D 1_555 1_555
H4D C2D 1_555 1_555
C3D P1D 1_555 1_555
H5D C3D 1_555 1_555
H6D C3D 1_555 1_555
C4D C4 1_555 1_555
H7D C4D 1_555 1_555
C5D N1D 1_555 1_555
H8D C5D 1_555 1_555
H9D C5D 1_555 1_555
C6D N1D 1_555 1_555
H10D C6D 1_555 1_555
H11D C6D 1_555 1_555
N1 C3 1_555 1_555
C1 C5 1_555 1_555
C2 C4 1_555 1_555
C2 C6 1_555 1_555
N1D C3D 1_555 1_555
C1D C4D 1_555 1_555
C1D C5D 1_555 1_555
C2D C4D 1_555 1_555
C2D C6D 1_555 1_555

#END
