
#######################################################################
#
#                 Cambridge Crystallographic Data Centre
#                                CCDC 
#
#######################################################################
#
# If this CIF has been generated from an entry in the Cambridge 
# Structural Database, then it will include bibliographic, chemical, 
# crystal, experimental, refinement or atomic coordinate data resulting 
# from the CCDC's data processing and validation procedures.
#
#######################################################################

data_PEGTUS02
_symmetry_cell_setting           triclinic
_symmetry_space_group_name_H-M   'P 1'
_symmetry_Int_Tables_number      1
_space_group_name_Hall           'P 1'
loop_
_symmetry_equiv_pos_site_id
_symmetry_equiv_pos_as_xyz
1 x,y,z
_cell_length_a                   9.6376(3)
_cell_length_b                   9.8817(3)
_cell_length_c                   10.2276(3)
_cell_angle_alpha                80.0500(10)
_cell_angle_beta                 74.5300(10)
_cell_angle_gamma                87.5500(10)
_cell_volume                     924.62
loop_
_atom_site_label
_atom_site_type_symbol
_atom_site_fract_x
_atom_site_fract_y
_atom_site_fract_z
Cu1 Cu 0.79485(3) 1.35746(2) -0.29080(3)
Cu2 Cu 1.28055(3) 1.67224(3) -0.32048(3)
P1 P 0.85812(7) 1.11236(7) -0.48092(8)
P2 P 1.18104(7) 1.49515(7) -0.99755(7)
P3 P 0.88128(7) 1.53553(7) 0.38506(8)
P4 P 1.21253(7) 1.92294(7) -0.13732(8)
P5 P 1.38128(7) 1.37721(7) -0.38011(7)
P6 P 0.66812(7) 1.64593(7) -0.23156(7)
O1 O 1.3205(2) 1.5163(2) -0.4212(2)
O2 O 1.2705(2) 1.2770(2) -0.2781(2)
O3 O 0.7350(2) 1.5107(2) -0.1881(2)
O4 O 1.0384(2) 1.5971(2) 0.3467(2)
H1 H 1.0846 1.5797 0.2694
O5 O 1.1857(2) 1.5981(2) -0.9041(2)
O6 O 1.2573(2) 1.8449(2) -0.0084(2)
H2 H 1.2118 1.7703 0.0201
O7 O 0.8383(2) 1.4828(2) 0.5360(2)
O8 O 0.8713(2) 1.1983(2) -0.3786(2)
O9 O 0.8770(2) 1.4317(2) 0.2924(2)
O10 O 1.2037(2) 1.8331(2) -0.2388(2)
O11 O 0.7899(2) 1.7458(2) -0.3352(2)
H3 H 0.8697 1.7056 -0.3466
O12 O 0.8109(2) 1.1905(2) -0.6064(3)
H4 H 0.8292 1.2746 -0.6161
O13 O 1.2212(2) 1.5486(2) -1.1485(2)
O14 O 1.0247(2) 1.4316(3) -0.9607(2)
H5 H 0.9864 1.4269 -0.8760
N1 N 0.3680(3) 0.7933(3) 0.5039(3)
O15 O 0.5448(2) 1.6383(2) -0.2945(2)
N2 N 0.7027(3) 1.2311(3) -0.1171(3)
O16 O 0.7397(2) 0.9985(2) -0.4203(3)
H6 H 0.7729 0.9311 -0.3760
O17 O 1.5117(2) 1.3907(2) -0.3195(3)
H7 H 1.5232 1.4736 -0.3156
O18 O 1.3243(2) 2.0393(2) -0.1950(3)
H8 H 1.2820 2.1154 -0.1984
C1 C 0.7170(3) 1.7634(3) -0.0135(3)
O19 O 1.0444(2) 1.6483(2) -0.3832(3)
O20 O 1.0050(2) 1.3884(2) -0.2328(2)
C2 C 1.3489(3) 1.2664(3) -0.6042(3)
C3 C 0.9210(3) 1.8946(3) -0.0052(3)
C4 C 0.5282(3) 1.0586(3) 0.0073(3)
H9 H 0.4524 1.0004 0.0070
C5 C 0.5351(3) 0.9727(3) 0.3800(3)
H10 H 0.6069 1.0353 0.3808
C6 C 1.0388(3) 1.9995(3) -0.0759(3)
H11 H 1.0462 2.0604 -0.0106
H12 H 1.0120 2.0571 -0.1548
C7 C 1.4560(3) 1.2979(3) -0.5296(3)
H13 H 1.5312 1.3595 -0.5949
H14 H 1.5034 1.2113 -0.5009
C8 C 1.1466(3) 1.1328(3) -0.6140(3)
C9 C 0.5993(3) 1.1440(3) -0.1131(3)
H15 H 0.5732 1.1400 -0.1956
C10 C 0.7926(3) 1.7383(3) 0.1982(3)
C11 C 0.8269(3) 1.8588(3) -0.0766(3)
H16 H 0.8380 1.9002 -0.1699
C12 C 1.2384(3) 1.1689(3) -0.5410(3)
H17 H 1.2265 1.1274 -0.4477
C13 C 0.4992(3) 0.9664(3) 0.2577(3)
C14 C 0.9017(3) 1.8348(3) 0.1326(3)
H18 H 0.9638 1.8602 0.1825
C15 C 0.5686(3) 1.0590(3) 0.1284(3)
C16 C 0.4660(3) 0.8877(3) 0.4998(3)
H19 H 0.4887 0.8964 0.5829
C17 C 1.2741(3) 1.2898(3) -0.8164(3)
C18 C 1.1655(3) 1.1931(3) -0.7520(3)
H20 H 1.1036 1.1678 -0.8022
C19 C 0.6067(3) 1.7334(3) -0.0863(3)
H21 H 0.5638 1.8217 -0.1176
H22 H 0.5287 1.6776 -0.0179
C20 C 1.0276(3) 1.0292(3) -0.5422(3)
H23 H 1.0539 0.9709 -0.4635
H24 H 1.0173 0.9689 -0.6069
C21 C 0.7027(3) 1.7018(3) 0.1230(3)
H25 H 0.6304 1.6338 0.1654
C22 C 0.3968(3) 0.8691(3) 0.2625(3)
H26 H 0.3684 0.8617 0.1819
C23 C 0.6774(3) 1.1513(3) 0.1224(3)
H27 H 0.7083 1.1557 0.2024
C24 C 0.7666(3) 1.6780(3) 0.3485(3)
H28 H 0.6651 1.6471 0.3844
H29 H 0.7802 1.7512 0.3989
C25 C 0.7398(3) 1.2359(3) -0.0003(3)
H30 H 0.8114 1.2998 -0.0021
C26 C 0.3368(3) 0.7834(3) 0.3849(3)
H31 H 0.2707 0.7146 0.3854
C27 C 1.2983(3) 1.3530(3) -0.9664(3)
H32 H 1.2846 1.2810 -1.0182
H33 H 1.3994 1.3851 -1.0028
C28 C 1.3633(3) 1.3265(3) -0.7406(3)
H34 H 1.4356 1.3944 -0.7832
H35 H 1.060(4) 1.609(3) -0.462(2)
H36 H 0.999(4) 1.386(4) -0.1404(14)
H37 H 1.094(2) 1.345(3) -0.252(4)
H38 H 1.031(4) 1.5638(19) -0.326(3)
Cu1_2 Cu 0.79485(3) 1.35746(2) 0.70920(3)
Cu2_2 Cu 1.28055(3) 1.67224(3) -1.32048(3)
Cu2_3 Cu 0.28055(3) 0.67224(3) 0.67952(3)
O7_2 O 0.8383(2) 1.4828(2) -0.4640(2)
O13_2 O 1.2212(2) 1.5486(2) -0.1485(2)
N1_2 N 1.3680(3) 1.7933(3) -0.4961(3)
loop_
_geom_bond_atom_site_label_1
_geom_bond_atom_site_label_2
_geom_bond_site_symmetry_1
_geom_bond_site_symmetry_2
Cu1 O3 1_555 1_555
Cu2 O1 1_555 1_555
P1 O8 1_555 1_555
P2 O5 1_555 1_555
P3 O4 1_555 1_555
P4 O6 1_555 1_555
P5 O1 1_555 1_555
P6 O3 1_555 1_555
O2 P5 1_555 1_555
O4 H1 1_555 1_555
O6 H2 1_555 1_555
O7 P3 1_555 1_555
O8 Cu1 1_555 1_555
O9 P3 1_555 1_555
O10 Cu2 1_555 1_555
O11 P6 1_555 1_555
H3 O11 1_555 1_555
O12 P1 1_555 1_555
H4 O12 1_555 1_555
O13 P2 1_555 1_555
O14 P2 1_555 1_555
H5 O14 1_555 1_555
N1 C16 1_555 1_555
O15 P6 1_555 1_555
N2 Cu1 1_555 1_555
O16 P1 1_555 1_555
H6 O16 1_555 1_555
O17 P5 1_555 1_555
H7 O17 1_555 1_555
O18 P4 1_555 1_555
H8 O18 1_555 1_555
C1 C11 1_555 1_555
O19 Cu2 1_555 1_555
O20 Cu1 1_555 1_555
C2 C7 1_555 1_555
C3 C6 1_555 1_555
C4 H9 1_555 1_555
C5 H10 1_555 1_555
C6 P4 1_555 1_555
H11 C6 1_555 1_555
H12 C6 1_555 1_555
C7 P5 1_555 1_555
H13 C7 1_555 1_555
H14 C7 1_555 1_555
C8 C12 1_555 1_555
C9 N2 1_555 1_555
H15 C9 1_555 1_555
C10 C14 1_555 1_555
C11 C3 1_555 1_555
H16 C11 1_555 1_555
C12 C2 1_555 1_555
H17 C12 1_555 1_555
C13 C5 1_555 1_555
C14 C3 1_555 1_555
H18 C14 1_555 1_555
C15 C4 1_555 1_555
C16 C5 1_555 1_555
H19 C16 1_555 1_555
C17 C18 1_555 1_555
C18 C8 1_555 1_555
H20 C18 1_555 1_555
C19 P6 1_555 1_555
H21 C19 1_555 1_555
H22 C19 1_555 1_555
C20 P1 1_555 1_555
H23 C20 1_555 1_555
H24 C20 1_555 1_555
C21 C1 1_555 1_555
H25 C21 1_555 1_555
C22 C13 1_555 1_555
H26 C22 1_555 1_555
C23 C15 1_555 1_555
H27 C23 1_555 1_555
C24 P3 1_555 1_555
H28 C24 1_555 1_555
H29 C24 1_555 1_555
C25 N2 1_555 1_555
H30 C25 1_555 1_555
C26 N1 1_555 1_555
H31 C26 1_555 1_555
C27 P2 1_555 1_555
H32 C27 1_555 1_555
H33 C27 1_555 1_555
C28 C2 1_555 1_555
H34 C28 1_555 1_555
H35 O19 1_555 1_555
H36 O20 1_555 1_555
H37 O20 1_555 1_555
H38 O19 1_555 1_555
Cu1_2 O7 1_555 1_555
Cu2_2 O13 1_555 1_555
Cu2_3 N1 1_555 1_555
O7_2 Cu1 1_555 1_555
O13_2 Cu2 1_555 1_555
N1_2 Cu2 1_555 1_555
P4 O10 1_555 1_555
C1 C19 1_555 1_555
C4 C9 1_555 1_555
C8 C20 1_555 1_555
C10 C21 1_555 1_555
C10 C24 1_555 1_555
C13 C15 1_555 1_555
C17 C27 1_555 1_555
C17 C28 1_555 1_555
C22 C26 1_555 1_555
C23 C25 1_555 1_555

#END
