
#######################################################################
#
#                 Cambridge Crystallographic Data Centre
#                                CCDC 
#
#######################################################################
#
# If this CIF has been generated from an entry in the Cambridge 
# Structural Database, then it will include bibliographic, chemical, 
# crystal, experimental, refinement or atomic coordinate data resulting 
# from the CCDC's data processing and validation procedures.
#
#######################################################################

data_PEGTUS03
_symmetry_cell_setting           triclinic
_symmetry_space_group_name_H-M   'P 1'
_symmetry_Int_Tables_number      1
_space_group_name_Hall           'P 1'
loop_
_symmetry_equiv_pos_site_id
_symmetry_equiv_pos_as_xyz
1 x,y,z
_cell_length_a                   9.7005(11)
_cell_length_b                   9.8815(11)
_cell_length_c                   10.2554(18)
_cell_angle_alpha                80.103(8)
_cell_angle_beta                 74.147(5)
_cell_angle_gamma                87.824(6)
_cell_volume                     931.533
loop_
_atom_site_label
_atom_site_type_symbol
_atom_site_fract_x
_atom_site_fract_y
_atom_site_fract_z
Cu1 Cu -0.08185(4) 0.75461(4) 0.14858(4)
Cu2 Cu 0.40686(5) 1.06936(4) 0.12043(4)
P1 P 0.50647(12) 0.77575(12) 0.05751(14)
P2 P 0.33659(13) 1.31978(13) 0.30289(14)
P3 P -0.01824(13) 0.51027(13) -0.04144(14)
P4 P 0.30492(14) 0.89301(13) -0.55780(14)
P5 P 0.00670(14) 0.93173(13) 0.82536(14)
P6 P -0.20730(13) 1.04212(12) 0.20977(14)
O1 O 0.4457(4) 0.9144(4) 0.0197(4)
O2 O -0.1411(4) 0.9075(4) 0.2511(4)
O3 O 0.3955(4) 0.6748(4) 0.1603(4)
O4 O 0.3829(4) 1.2428(4) 0.4314(4)
H1 H 0.3239 1.1826 0.4737
O5 O -0.0639(4) 0.5866(4) -0.1658(4)
H2 H -0.0060 0.6483 -0.2067
O6 O -0.0880(4) 1.1424(4) 0.1063(4)
H3 H -0.0113 1.1022 0.0900
O7 O 0.3096(4) 0.9964(4) -0.4662(4)
O8 O -0.0068(4) 0.5967(4) 0.0603(4)
O9 O 0.3299(4) 1.2301(4) 0.2019(4)
O10 O 0.0007(4) 0.8291(4) 0.7335(4)
N1 N -0.1751(4) 0.6287(4) 0.3229(4)
N2 N -0.5066(5) 0.1913(5) 0.9449(5)
O11 O -0.0358(4) 0.8804(4) 0.9757(4)
O12 O 0.6361(4) 0.7871(4) 0.1176(5)
H4 H 0.6991 0.8351 0.0604
O13 O 0.1625(4) 0.9944(5) 0.7849(4)
H5 H 0.1835 1.0325 0.7043
O14 O 0.3442(4) 0.9468(4) -0.7084(4)
O15 O -0.3306(4) 1.0335(4) 0.1492(4)
O16 O 0.1494(4) 0.8308(4) -0.5205(4)
H6 H 0.1238 0.7992 -0.4382
C1 C 0.4722(5) 0.6668(5) -0.1670(6)
C2 C -0.0479(5) 1.2516(6) 0.3655(6)
H7 H -0.0361 1.2914 0.2741
O17 O -0.1345(4) 0.3956(4) 0.0210(5)
H8 H -0.0959 0.3203 0.0244
C3 C -0.1572(5) 1.1577(5) 0.4283(6)
O18 O 0.1675(4) 1.0479(4) 0.0581(5)
O19 O 0.4467(4) 1.4381(4) 0.2467(5)
H9 H 0.4283 1.4868 0.1804
C4 C -0.3393(5) 0.3677(5) 0.8202(6)
H10 H -0.2672 0.4270 0.8203
C5 C -0.2687(5) 1.1283(6) 0.3577(6)
H11 H -0.3110 1.2148 0.3288
H12 H -0.3442 1.0725 0.4252
C6 C -0.3468(5) 0.4545(5) 0.4494(6)
H13 H -0.4193 0.3955 0.4497
C7 C -0.3777(5) 0.3641(5) 0.6982(5)
C8 C -0.0819(5) 1.1341(5) 0.6383(5)
C9 C 0.5776(5) 0.6988(6) -0.0917(6)
H14 H 0.6512 0.7596 -0.1556
H15 H 0.6240 0.6139 -0.0647
C10 C -0.3087(5) 0.4569(5) 0.5681(6)
O20 O 0.1309(4) 0.7834(4) 0.2074(4)
C11 C 0.2708(5) 0.5325(5) -0.1741(6)
C12 C 0.3620(5) 0.5681(5) -0.1034(6)
H16 H 0.3511 0.5266 -0.0126
C13 C 0.0457(5) 1.2886(5) 0.4358(5)
C14 C -0.4796(6) 0.2662(6) 0.7050(6)
H17 H -0.5068 0.2576 0.6266
C15 C -0.1716(5) 1.0964(6) 0.5648(6)
H18 H -0.2420 1.0296 0.6072
C16 C 0.3974(5) 0.6902(5) -0.3778(6)
C17 C 0.1627(5) 1.3933(5) 0.3644(6)
H19 H 0.1690 1.4539 0.4277
H20 H 0.1368 1.4487 0.2871
C18 C -0.1064(6) 1.0730(6) 0.7875(6)
H21 H -0.2054 1.0421 0.8233
H22 H -0.0935 1.1450 0.8366
C19 C 0.1494(5) 0.4293(5) -0.1021(6)
H23 H 0.1736 0.3719 -0.0249
H24 H 0.1398 0.3703 -0.1656
C20 C 0.4847(5) 0.7265(5) -0.3031(6)
H25 H 0.5549 0.7936 -0.3453
C21 C -0.2000(6) 0.5477(6) 0.5615(6)
H26 H -0.1684 0.5508 0.6388
C22 C 0.4217(6) 0.7513(6) -0.5283(6)
H27 H 0.4073 0.6801 -0.5778
H28 H 0.5204 0.7828 -0.5654
C23 C 0.2883(5) 0.5929(5) -0.3121(5)
H29 H 0.2271 0.5681 -0.3600
C24 C 0.0253(5) 1.2297(6) 0.5727(6)
H30 H 0.0854 1.2554 0.6213
C25 C -0.2773(5) 0.5402(6) 0.3282(6)
H31 H -0.3032 0.5354 0.2482
C26 C -0.4084(5) 0.2835(5) 0.9385(5)
H32 H -0.3852 0.2914 1.0191
C27 C -0.1390(6) 0.6342(6) 0.4376(6)
H33 H -0.0703 0.6982 0.4355
C28 C -0.5394(6) 0.1831(6) 0.8257(6)
H34 H -0.6060 0.1172 0.8270
Cu1_2 Cu -0.08185(4) 0.75461(4) 1.14858(4)
Cu2_2 Cu -0.59314(5) 0.06936(4) 1.12043(4)
Cu2_3 Cu 0.40686(5) 1.06936(4) -0.87957(4)
N2_2 N 0.4934(5) 1.1913(5) -0.0551(5)
O11_2 O -0.0358(4) 0.8804(4) -0.0243(4)
O14_2 O 0.3442(4) 0.9468(4) 0.2916(4)
loop_
_geom_bond_atom_site_label_1
_geom_bond_atom_site_label_2
_geom_bond_site_symmetry_1
_geom_bond_site_symmetry_2
Cu1 O2 1_555 1_555
Cu2 O1 1_555 1_555
P1 O1 1_555 1_555
P2 O4 1_555 1_555
P3 O5 1_555 1_555
P4 O7 1_555 1_555
P5 O10 1_555 1_555
P6 O2 1_555 1_555
O3 P1 1_555 1_555
O4 H1 1_555 1_555
O5 H2 1_555 1_555
O6 P6 1_555 1_555
H3 O6 1_555 1_555
O8 Cu1 1_555 1_555
O9 Cu2 1_555 1_555
N1 Cu1 1_555 1_555
N2 C26 1_555 1_555
O11 P5 1_555 1_555
O12 P1 1_555 1_555
H4 O12 1_555 1_555
O13 P5 1_555 1_555
H5 O13 1_555 1_555
O14 P4 1_555 1_555
O15 P6 1_555 1_555
O16 P4 1_555 1_555
H6 O16 1_555 1_555
C1 C9 1_555 1_555
C2 H7 1_555 1_555
O17 P3 1_555 1_555
H8 O17 1_555 1_555
C3 C2 1_555 1_555
O18 Cu2 1_555 1_555
O19 P2 1_555 1_555
H9 O19 1_555 1_555
C4 H10 1_555 1_555
C5 P6 1_555 1_555
H11 C5 1_555 1_555
H12 C5 1_555 1_555
C6 H13 1_555 1_555
C7 C4 1_555 1_555
C8 C15 1_555 1_555
C9 P1 1_555 1_555
H14 C9 1_555 1_555
H15 C9 1_555 1_555
C10 C6 1_555 1_555
O20 Cu1 1_555 1_555
C11 C12 1_555 1_555
C12 C1 1_555 1_555
H16 C12 1_555 1_555
C13 C2 1_555 1_555
C14 C7 1_555 1_555
H17 C14 1_555 1_555
C15 C3 1_555 1_555
H18 C15 1_555 1_555
C16 C20 1_555 1_555
C17 P2 1_555 1_555
H19 C17 1_555 1_555
H20 C17 1_555 1_555
C18 P5 1_555 1_555
H21 C18 1_555 1_555
H22 C18 1_555 1_555
C19 P3 1_555 1_555
H23 C19 1_555 1_555
H24 C19 1_555 1_555
C20 C1 1_555 1_555
H25 C20 1_555 1_555
C21 C10 1_555 1_555
H26 C21 1_555 1_555
C22 P4 1_555 1_555
H27 C22 1_555 1_555
H28 C22 1_555 1_555
C23 C11 1_555 1_555
H29 C23 1_555 1_555
C24 C8 1_555 1_555
H30 C24 1_555 1_555
C25 N1 1_555 1_555
H31 C25 1_555 1_555
C26 C4 1_555 1_555
H32 C26 1_555 1_555
C27 N1 1_555 1_555
H33 C27 1_555 1_555
C28 N2 1_555 1_555
H34 C28 1_555 1_555
Cu1_2 O11 1_555 1_555
Cu2_2 N2 1_555 1_555
Cu2_3 O14 1_555 1_555
N2_2 Cu2 1_555 1_555
O11_2 Cu1 1_555 1_555
O14_2 Cu2 1_555 1_555
P2 O9 1_555 1_555
P3 O8 1_555 1_555
C3 C5 1_555 1_555
C6 C25 1_555 1_555
C7 C10 1_555 1_555
C8 C18 1_555 1_555
C11 C19 1_555 1_555
C13 C17 1_555 1_555
C13 C24 1_555 1_555
C14 C28 1_555 1_555
C16 C22 1_555 1_555
C16 C23 1_555 1_555
C21 C27 1_555 1_555

#END
