
#######################################################################
#
#                 Cambridge Crystallographic Data Centre
#                                CCDC 
#
#######################################################################
#
# If this CIF has been generated from an entry in the Cambridge 
# Structural Database, then it will include bibliographic, chemical, 
# crystal, experimental, refinement or atomic coordinate data resulting 
# from the CCDC's data processing and validation procedures.
#
#######################################################################

data_PEGTUS
_symmetry_cell_setting           triclinic
_symmetry_space_group_name_H-M   'P -1'
_symmetry_Int_Tables_number      2
_space_group_name_Hall           '-P 1'
loop_
_symmetry_equiv_pos_site_id
_symmetry_equiv_pos_as_xyz
1 x,y,z
2 -x,-y,-z
_cell_length_a                   9.6376(3)
_cell_length_b                   9.8817(3)
_cell_length_c                   10.2276(3)
_cell_angle_alpha                80.0500(10)
_cell_angle_beta                 74.5300(10)
_cell_angle_gamma                87.5500(10)
_cell_volume                     924.62
loop_
_atom_site_label
_atom_site_type_symbol
_atom_site_fract_x
_atom_site_fract_y
_atom_site_fract_z
Cu1 Cu 0.24278(4) 0.65737(4) 0.48513(4)
P1 P -0.17732(8) 0.09468(8) 0.32818(8)
P2 P 0.14997(8) 0.47979(7) -0.19130(7)
P3 P 0.35658(9) 0.36574(8) 0.42571(8)
O1 O -0.2236(3) 0.1727(2) 0.2011(2)
H1 H -0.1879 0.2521 0.1796
O2 O 0.1545(3) 0.5833(2) -0.0983(2)
O3 O 0.2930(2) 0.5027(2) 0.3833(2)
O4 O -0.1658(3) 0.1825(2) 0.4304(2)
O5 O 0.2405(2) 0.2654(2) 0.5285(2)
H2 H 0.1584 0.3003 0.5348
O6 O -0.0068(3) 0.4175(2) -0.1536(2)
H3 H -0.0511 0.4286 -0.0735
N1 N 0.3331(3) 0.7811(2) 0.3104(3)
O7 O -0.2923(3) -0.0204(2) 0.3872(3)
H4 H -0.2532 -0.0931 0.4156
O8 O 0.4836(2) 0.3766(2) 0.4873(2)
O9 O 0.1916(3) 0.5332(2) -0.3424(2)
O10 O 0.0205(3) 0.6299(3) 0.4249(3)
H5 H 0.0392 0.6069 0.3467
H6 H -0.0661 0.6552 0.4538
C1 C 0.3155(3) 0.2514(3) 0.2047(3)
C2 C 0.5034(3) 0.9573(3) 0.1864(3)
H7 H 0.5770 1.0181 0.1869
C3 C 0.4246(3) 0.2822(3) 0.2782(3)
H8 H 0.5013 0.3408 0.2112
H9 H 0.4698 0.1946 0.3081
C4 C 0.1321(3) 0.1793(3) 0.0580(3)
H10 H 0.0700 0.1542 0.0078
C5 C 0.2061(3) 0.1552(3) 0.2677(3)
H11 H 0.1948 0.1137 0.3609
C6 C 0.1126(3) 0.1189(3) 0.1955(3)
C7 C 0.2409(3) 0.2758(3) -0.0071(3)
C8 C 0.3596(3) 0.8589(3) 0.0700(3)
H12 H 0.3296 0.8529 -0.0101
C9 C 0.4652(3) 0.9538(3) 0.0643(3)
C10 C 0.4337(3) 0.8720(3) 0.3065(3)
H13 H 0.4583 0.8783 0.3893
C11 C 0.3305(3) 0.3122(3) 0.0682(3)
H14 H 0.4031 0.3797 0.0256
C12 C 0.2990(3) 0.7737(3) 0.1926(3)
H15 H 0.2302 0.7071 0.1937
C13 C -0.0053(3) 0.0148(3) 0.2669(3)
H16 H 0.0214 -0.0429 0.3458
H17 H -0.0141 -0.0461 0.2021
C14 C 0.2660(3) 0.3376(3) -0.1573(3)
H18 H 0.2524 0.2649 -0.2083
H19 H 0.3673 0.3691 -0.1934
Cu1A Cu -0.24278(4) 0.34263(4) 0.51487(4)
Cu1_2 Cu 0.24278(4) 0.65737(4) -0.51487(4)
Cu1A_2 Cu 0.75722(4) 1.34263(4) -0.48513(4)
Cu1A_3 Cu -0.24278(4) 0.34263(4) 1.51487(4)
P1A P 0.17732(8) 0.90532(8) 0.67182(8)
P2A P -0.14997(8) 0.52021(7) 1.19130(7)
P3A P -0.35658(9) 0.63426(8) 0.57429(8)
O1A O 0.2236(3) 0.8273(2) 0.7989(2)
H1A H 0.1879 0.7479 0.8204
O2A O -0.1545(3) 0.4167(2) 1.0983(2)
O3A O -0.2930(2) 0.4973(2) 0.6167(2)
O4A O 0.1658(3) 0.8175(2) 0.5696(2)
O5A O -0.2405(2) 0.7346(2) 0.4715(2)
H2A H -0.1584 0.6997 0.4652
O6A O 0.0068(3) 0.5825(2) 1.1536(2)
H3A H 0.0511 0.5714 1.0735
N1A N 0.6669(3) 1.2189(2) -0.3104(3)
N1A_2 N -0.3331(3) 0.2189(2) 0.6896(3)
O7A O 0.2923(3) 1.0204(2) 0.6128(3)
H4A H 0.2532 1.0931 0.5844
O8A O -0.4836(2) 0.6234(2) 0.5127(2)
O9A O -0.1916(3) 0.4668(2) 1.3424(2)
O9_2 O 0.1916(3) 0.5332(2) 0.6576(2)
O9A_2 O -0.1916(3) 0.4668(2) 0.3424(2)
O10A O -0.0205(3) 0.3701(3) 0.5751(3)
H5A H -0.0392 0.3931 0.6533
H6A H 0.0661 0.3448 0.5462
C1A C -0.3155(3) 0.7486(3) 0.7953(3)
C2A C 0.4966(3) 1.0427(3) -0.1864(3)
H7A H 0.4230 0.9819 -0.1869
C3A C -0.4246(3) 0.7178(3) 0.7218(3)
H8A H -0.5013 0.6592 0.7888
H9A H -0.4698 0.8054 0.6919
C4A C -0.1321(3) 0.8207(3) 0.9420(3)
H10A H -0.0700 0.8458 0.9922
C5A C -0.2061(3) 0.8448(3) 0.7323(3)
H11A H -0.1948 0.8863 0.6391
C6A C -0.1126(3) 0.8811(3) 0.8045(3)
C7A C -0.2409(3) 0.7242(3) 1.0071(3)
C8A C 0.6404(3) 1.1411(3) -0.0700(3)
H12A H 0.6704 1.1471 0.0101
C9A C 0.5348(3) 1.0462(3) -0.0643(3)
C10A C 0.5663(3) 1.1280(3) -0.3065(3)
H13A H 0.5417 1.1217 -0.3893
C11A C -0.3305(3) 0.6878(3) 0.9318(3)
H14A H -0.4031 0.6203 0.9744
C12A C 0.7010(3) 1.2263(3) -0.1926(3)
H15A H 0.7698 1.2929 -0.1937
C13A C 0.0053(3) 0.9852(3) 0.7331(3)
H16A H -0.0214 1.0429 0.6542
H17A H 0.0141 1.0461 0.7979
C14A C -0.2660(3) 0.6624(3) 1.1573(3)
H18A H -0.2524 0.7351 1.2083
H19A H -0.3673 0.6309 1.1934
loop_
_geom_bond_atom_site_label_1
_geom_bond_atom_site_label_2
_geom_bond_site_symmetry_1
_geom_bond_site_symmetry_2
Cu1 O3 1_555 1_555
P1 O1 1_555 1_555
P2 O2 1_555 1_555
P3 O3 1_555 1_555
O1 H1 1_555 1_555
O4 P1 1_555 1_555
O5 P3 1_555 1_555
H2 O5 1_555 1_555
O6 P2 1_555 1_555
H3 O6 1_555 1_555
N1 Cu1 1_555 1_555
O7 P1 1_555 1_555
H4 O7 1_555 1_555
O8 P3 1_555 1_555
O9 P2 1_555 1_555
O10 Cu1 1_555 1_555
H5 O10 1_555 1_555
H6 O10 1_555 1_555
C1 C3 1_555 1_555
C2 H7 1_555 1_555
C3 P3 1_555 1_555
H8 C3 1_555 1_555
H9 C3 1_555 1_555
C4 H10 1_555 1_555
C5 C1 1_555 1_555
H11 C5 1_555 1_555
C6 C4 1_555 1_555
C7 C4 1_555 1_555
C8 H12 1_555 1_555
C9 C2 1_555 1_555
C10 N1 1_555 1_555
H13 C10 1_555 1_555
C11 C1 1_555 1_555
H14 C11 1_555 1_555
C12 N1 1_555 1_555
H15 C12 1_555 1_555
C13 P1 1_555 1_555
H16 C13 1_555 1_555
H17 C13 1_555 1_555
C14 P2 1_555 1_555
H18 C14 1_555 1_555
H19 C14 1_555 1_555
Cu1A O4 1_555 1_555
Cu1_2 O9 1_555 1_555
Cu1A_2 N1A 1_555 1_555
Cu1A_3 O9A 1_555 1_555
P1A O1A 1_555 1_555
P2A O2A 1_555 1_555
P3A O3A 1_555 1_555
O1A H1A 1_555 1_555
O3A Cu1A 1_555 1_555
O4A Cu1 1_555 1_555
O5A P3A 1_555 1_555
H2A O5A 1_555 1_555
O6A P2A 1_555 1_555
H3A O6A 1_555 1_555
N1A C10A 1_555 1_555
N1A_2 Cu1A 1_555 1_555
O7A P1A 1_555 1_555
H4A O7A 1_555 1_555
O8A P3A 1_555 1_555
O9A P2A 1_555 1_555
O9_2 Cu1 1_555 1_555
O9A_2 Cu1A 1_555 1_555
O10A Cu1A 1_555 1_555
H5A O10A 1_555 1_555
H6A O10A 1_555 1_555
C1A C3A 1_555 1_555
C2A H7A 1_555 1_555
C3A P3A 1_555 1_555
H8A C3A 1_555 1_555
H9A C3A 1_555 1_555
C4A H10A 1_555 1_555
C5A C1A 1_555 1_555
H11A C5A 1_555 1_555
C6A C4A 1_555 1_555
C7A C4A 1_555 1_555
C8A H12A 1_555 1_555
C9A C9 1_555 1_555
C10A C2A 1_555 1_555
H13A C10A 1_555 1_555
C11A C1A 1_555 1_555
H14A C11A 1_555 1_555
C12A N1A 1_555 1_555
H15A C12A 1_555 1_555
C13A P1A 1_555 1_555
H16A C13A 1_555 1_555
H17A C13A 1_555 1_555
C14A P2A 1_555 1_555
H18A C14A 1_555 1_555
H19A C14A 1_555 1_555
C2 C10 1_555 1_555
C5 C6 1_555 1_555
C6 C13 1_555 1_555
C7 C11 1_555 1_555
C7 C14 1_555 1_555
C8 C9 1_555 1_555
C8 C12 1_555 1_555
P1A O4A 1_555 1_555
C2A C9A 1_555 1_555
C5A C6A 1_555 1_555
C6A C13A 1_555 1_555
C7A C11A 1_555 1_555
C7A C14A 1_555 1_555
C8A C9A 1_555 1_555
C8A C12A 1_555 1_555

#END
