
#######################################################################
#
#                 Cambridge Crystallographic Data Centre
#                                CCDC 
#
#######################################################################
#
# If this CIF has been generated from an entry in the Cambridge 
# Structural Database, then it will include bibliographic, chemical, 
# crystal, experimental, refinement or atomic coordinate data resulting 
# from the CCDC's data processing and validation procedures.
#
#######################################################################

data_PEGVUU
_symmetry_cell_setting           monoclinic
_symmetry_space_group_name_H-M   'P 21/c'
_symmetry_Int_Tables_number      14
_space_group_name_Hall           '-P 2ybc'
loop_
_symmetry_equiv_pos_site_id
_symmetry_equiv_pos_as_xyz
1 x,y,z
2 -x,1/2+y,1/2-z
3 -x,-y,-z
4 x,1/2-y,1/2+z
_cell_length_a                   20.4328(3)
_cell_length_b                   8.63377(13)
_cell_length_c                   12.2755(2)
_cell_angle_alpha                90
_cell_angle_beta                 94.6314(15)
_cell_angle_gamma                90
_cell_volume                     2158.48
loop_
_atom_site_label
_atom_site_type_symbol
_atom_site_fract_x
_atom_site_fract_y
_atom_site_fract_z
C1 C 0.17744(6) 0.08226(14) -0.37022(11)
H1 H 0.1715 0.1334 -0.4425
H2 H 0.1917 0.1619 -0.3153
C2 C 0.23046(6) -0.04202(15) -0.37272(11)
H3 H 0.2107 -0.1358 -0.4083
H4 H 0.2455 -0.0699 -0.2966
C3 C 0.17904(9) -0.4499(2) -0.21469(18)
H5 H 0.2068 -0.4076 -0.2690
H6 H 0.1788 -0.5632 -0.2193
H7 H 0.1965 -0.4181 -0.1414
C4 C 0.21483(8) -0.5228(2) -0.51113(15)
H8 H 0.2253 -0.6133 -0.5547
H9 H 0.2279 -0.5429 -0.4339
H10 H 0.2386 -0.4323 -0.5355
C5 C 0.35821(7) 0.10571(15) -0.33916(11)
C6 C 0.33784(7) 0.17691(18) -0.24595(12)
H11 H 0.2925 0.1769 -0.2335
C7 C 0.38250(9) 0.24785(18) -0.17100(14)
H12 H 0.3675 0.2956 -0.1079
C8 C 0.44821(9) 0.24992(18) -0.18692(15)
H13 H 0.4787 0.2974 -0.1347
C9 C 0.46947(8) 0.1826(2) -0.27922(15)
H14 H 0.5148 0.1845 -0.2912
C10 C 0.42507(7) 0.11211(18) -0.35490(14)
H15 H 0.4404 0.0672 -0.4187
C11 C 0.34359(6) -0.17385(16) -0.45308(11)
C12 C 0.35056(7) -0.27683(18) -0.36523(12)
H16 H 0.3345 -0.2486 -0.2975
C13 C 0.38034(8) -0.41851(19) -0.37506(14)
H17 H 0.3838 -0.4880 -0.3149
C14 C 0.40520(9) -0.45991(19) -0.47246(15)
H18 H 0.4268 -0.5566 -0.4788
C15 C 0.39853(10) -0.3608(2) -0.55968(15)
H19 H 0.4149 -0.3898 -0.6270
C16 C 0.36802(8) -0.21810(18) -0.55055(13)
H20 H 0.3639 -0.1502 -0.6116
O1 O 0.11378(4) -0.09228(10) -0.23039(7)
O2 O 0.05284(4) 0.13311(10) -0.31865(7)
O3 O 0.07444(4) -0.10154(10) -0.43113(7)
O4 O 0.11431(5) -0.39350(11) -0.23536(8)
H21 H 0.1161(8) -0.301(2) -0.2320(14)
O5 O 0.14620(5) -0.49387(12) -0.52453(8)
H22 H 0.1391(9) -0.473(2) -0.5870(12)
O6 O 0.00220(5) -0.39661(10) -0.60538(7)
H23 H -0.0223(8) -0.321(2) -0.6225(12)
H24 H 0.0319(8) -0.4037(18) -0.6496(13)
O7 O -0.06380(6) -0.25050(11) -0.38559(9)
H25 H -0.0631(8) -0.282(2) -0.3192(15)
H26 H -0.0893(8) -0.304(2) -0.4205(14)
Na1 Na 0.05386(3) -0.36793(5) -0.42395(4)
Na2 Na -0.04523(3) 0.01233(5) -0.39567(4)
P1 P 0.099919(15) 0.00012(3) -0.33667(2)
P2 P 0.302713(17) 0.01477(4) -0.44494(3)
O3B O -0.07444(4) 0.10154(10) -0.56887(7)
O4A O -0.11431(5) 0.10650(11) -0.26464(8)
H21A H -0.1161(8) 0.199(2) -0.2680(14)
O6B O -0.00220(5) -0.60339(10) -0.39462(7)
H23B H 0.0223(8) -0.679(2) -0.3775(12)
H24B H -0.0319(8) -0.5963(18) -0.3504(13)
Na1B Na -0.05386(3) -0.63207(5) -0.57605(4)
Na2B Na 0.04523(3) -0.01233(5) -0.60433(4)
Na2A Na 0.04523(3) -0.48767(5) -0.10433(4)
loop_
_geom_bond_atom_site_label_1
_geom_bond_atom_site_label_2
_geom_bond_site_symmetry_1
_geom_bond_site_symmetry_2
C1 H1 1_555 1_555
H2 C1 1_555 1_555
C2 C1 1_555 1_555
H3 C2 1_555 1_555
H4 C2 1_555 1_555
C3 H5 1_555 1_555
H6 C3 1_555 1_555
H7 C3 1_555 1_555
C4 H8 1_555 1_555
H9 C4 1_555 1_555
H10 C4 1_555 1_555
C5 C6 1_555 1_555
C6 H11 1_555 1_555
C7 C6 1_555 1_555
H12 C7 1_555 1_555
C8 C7 1_555 1_555
H13 C8 1_555 1_555
C9 C8 1_555 1_555
H14 C9 1_555 1_555
C10 C5 1_555 1_555
H15 C10 1_555 1_555
C11 C12 1_555 1_555
C12 H16 1_555 1_555
C13 C12 1_555 1_555
H17 C13 1_555 1_555
C14 C13 1_555 1_555
H18 C14 1_555 1_555
C15 C14 1_555 1_555
H19 C15 1_555 1_555
C16 C11 1_555 1_555
H20 C16 1_555 1_555
O1 P1 1_555 1_555
O2 Na2 1_555 1_555
O3 Na1 1_555 1_555
O4 C3 1_555 1_555
H21 O4 1_555 1_555
O5 C4 1_555 1_555
H22 O5 1_555 1_555
O6 H23 1_555 1_555
H24 O6 1_555 1_555
O7 H25 1_555 1_555
H26 O7 1_555 1_555
Na1 O4 1_555 1_555
Na2 O3 1_555 1_555
P1 C1 1_555 1_555
P2 C2 1_555 1_555
O3B Na2 1_555 1_555
O4A Na2 1_555 1_555
H21A O4A 1_555 1_555
O6B Na1 1_555 1_555
H23B O6B 1_555 1_555
H24B O6B 1_555 1_555
Na1B O6 1_555 1_555
Na2B O3 1_555 1_555
Na2A O4 1_555 1_555
C5 P2 1_555 1_555
C9 C10 1_555 1_555
C11 P2 1_555 1_555
C15 C16 1_555 1_555
O2 P1 1_555 1_555
O3 P1 1_555 1_555
O5 Na1 1_555 1_555
O6 Na1 1_555 1_555
O7 Na1 1_555 1_555
O7 Na2 1_555 1_555
O3B Na2B 1_555 1_555
O6B Na1B 1_555 1_555

#END
