
#######################################################################
#
#                 Cambridge Crystallographic Data Centre
#                                CCDC 
#
#######################################################################
#
# If this CIF has been generated from an entry in the Cambridge 
# Structural Database, then it will include bibliographic, chemical, 
# crystal, experimental, refinement or atomic coordinate data resulting 
# from the CCDC's data processing and validation procedures.
#
#######################################################################

data_PEGWIJ
_symmetry_cell_setting           triclinic
_symmetry_space_group_name_H-M   'P -1'
_symmetry_Int_Tables_number      2
_space_group_name_Hall           '-P 1'
loop_
_symmetry_equiv_pos_site_id
_symmetry_equiv_pos_as_xyz
1 x,y,z
2 -x,-y,-z
_cell_length_a                   11.4424(18)
_cell_length_b                   11.9094(18)
_cell_length_c                   12.5065(19)
_cell_angle_alpha                110.017(3)
_cell_angle_beta                 94.443(2)
_cell_angle_gamma                113.150(3)
_cell_volume                     1427.36
loop_
_atom_site_label
_atom_site_type_symbol
_atom_site_fract_x
_atom_site_fract_y
_atom_site_fract_z
Mn1 Mn 0.22088(7) 0.67541(7) 0.03955(6)
Cl1 Cl 0.87836(12) 0.55633(13) -0.34285(12)
Cl2 Cl 0.82912(18) 0.1116(2) -0.68529(17)
O1 O 0.0460(3) 0.5585(4) -0.0981(3)
N1 N 0.5153(4) 0.3275(4) -0.2880(3)
N2 N 0.5939(4) 0.5092(4) -0.3257(3)
H1 H 0.6362 0.5637 -0.3554
N3 N 0.2787(4) 0.5057(4) -0.0171(3)
N4 N 0.3678(4) 0.7206(4) -0.0695(3)
O2 O 0.3931(3) 0.8219(4) 0.2020(3)
H2 H 0.3850 0.9028 0.2388
H3 H 0.4738 0.8421 0.1777
O3 O 0.2998(4) 0.3026(4) -0.5685(3)
C1 C 0.3586(4) 0.5097(5) -0.0921(4)
C2 C 0.3892(4) 0.4033(5) -0.1452(4)
C3 C 0.4077(4) 0.6261(5) -0.1191(4)
C4 C 0.0464(4) 0.3856(5) -0.2634(4)
C5 C 0.1926(4) 0.4194(5) -0.3892(4)
H4 H 0.2535 0.4766 -0.4149
C6 C 0.4898(4) 0.6390(5) -0.1973(4)
O4 O 0.1609(4) 0.0993(4) -0.5884(4)
C7 C 0.5890(5) 0.3889(5) -0.3474(4)
C8 C 0.4717(4) 0.4172(5) -0.2248(4)
C9 C 0.1373(4) 0.4703(5) -0.3027(4)
H5 H 0.1606 0.5613 -0.2706
C10 C 0.6516(5) 0.3247(5) -0.4306(4)
C11 C 0.5188(4) 0.5294(5) -0.2474(4)
C12 C -0.0144(5) 0.4396(6) -0.1695(4)
C13 C 0.7795(5) 0.3912(5) -0.4361(4)
C14 C 0.1587(5) 0.2846(5) -0.4380(4)
C15 C 0.2147(5) 0.2308(6) -0.5364(4)
C16 C 0.4096(5) 0.8273(5) -0.0940(5)
H6 H 0.3811 0.8915 -0.0605
C17 C 0.2293(5) 0.3977(5) 0.0047(4)
H7 H 0.1733 0.3944 0.0549
C18 C 0.5330(5) 0.7528(5) -0.2191(4)
H8 H 0.5888 0.7641 -0.2689
C19 C 0.8354(5) 0.3252(6) -0.5144(4)
H9 H 0.9212 0.3705 -0.5181
C20 C 0.5816(6) 0.1900(6) -0.5038(5)
H10 H 0.4962 0.1434 -0.4998
C21 C 0.7615(6) 0.1930(6) -0.5854(5)
C22 C 0.4941(5) 0.8488(5) -0.1674(5)
H11 H 0.5230 0.9264 -0.1808
C23 C 0.2554(5) 0.2876(5) -0.0427(4)
H12 H 0.2199 0.2145 -0.0232
C24 C 0.3350(5) 0.2915(5) -0.1187(4)
H13 H 0.3531 0.2195 -0.1530
C25 C 0.0135(5) 0.2510(6) -0.3115(5)
H14 H -0.0475 0.1936 -0.2860
C26 C 0.0703(6) 0.2008(6) -0.3972(5)
H15 H 0.0491 0.1103 -0.4276
C27 C 0.6337(6) 0.1239(6) -0.5811(5)
H16 H 0.5843 0.0339 -0.6302
O5 O -0.1273(3) 0.3591(4) -0.1708(3)
O6 O 0.2035(4) 0.8476(4) 0.0484(3)
C28 C 0.1757(5) 0.9327(5) 0.1161(4)
O7 O 0.2196(4) 0.9868(4) 0.2256(3)
C29 C 0.0847(5) 0.9694(5) 0.0576(4)
C30 C 0.0593(6) 1.0743(6) 0.1178(5)
C31 C 0.0260(5) 0.8957(5) -0.0612(5)
H17 H 0.047(5) 0.828(5) -0.095(4)
H18 H 0.104(6) 1.123(6) 0.194(5)
Mn1A Mn -0.22088(7) 0.32459(7) -0.03955(6)
Mn1A_2 Mn -0.22088(7) 1.32459(7) -0.03955(6)
Cl1A Cl -0.87836(12) 0.44367(13) 0.34285(12)
Cl2A Cl -0.82912(18) 0.8884(2) 0.68529(17)
O1A O -0.0460(3) 0.4415(4) 0.0981(3)
N1A N -0.5153(4) 0.6725(4) 0.2880(3)
N2A N -0.5939(4) 0.4908(4) 0.3257(3)
H1A H -0.6362 0.4363 0.3554
N3A N -0.2787(4) 0.4943(4) 0.0171(3)
N4A N -0.3678(4) 0.2794(4) 0.0695(3)
O2A O -0.3931(3) 0.1781(4) -0.2020(3)
H2A H -0.3850 0.0972 -0.2388
H3A H -0.4738 0.1579 -0.1777
O3A O -0.2998(4) 0.6974(4) 0.5685(3)
C1A C -0.3586(4) 0.4903(5) 0.0921(4)
C2A C -0.3892(4) 0.5967(5) 0.1452(4)
C3A C -0.4077(4) 0.3739(5) 0.1191(4)
C4A C -0.0464(4) 0.6144(5) 0.2634(4)
C5A C -0.1926(4) 0.5806(5) 0.3892(4)
H4A H -0.2535 0.5234 0.4149
C6A C -0.4898(4) 0.3610(5) 0.1973(4)
O4A O -0.1609(4) 0.9007(4) 0.5884(4)
C7A C -0.5890(5) 0.6111(5) 0.3474(4)
C8A C -0.4717(4) 0.5828(5) 0.2248(4)
C9A C -0.1373(4) 0.5297(5) 0.3027(4)
H5A H -0.1606 0.4387 0.2706
C10A C -0.6516(5) 0.6753(5) 0.4306(4)
C11A C -0.5188(4) 0.4706(5) 0.2474(4)
C12A C 0.0144(5) 0.5604(6) 0.1695(4)
C13A C -0.7795(5) 0.6088(5) 0.4361(4)
C14A C -0.1587(5) 0.7154(5) 0.4380(4)
C15A C -0.2147(5) 0.7692(6) 0.5364(4)
C16A C -0.4096(5) 0.1727(5) 0.0940(5)
H6A H -0.3811 0.1085 0.0605
C17A C -0.2293(5) 0.6023(5) -0.0047(4)
H7A H -0.1733 0.6056 -0.0549
C18A C -0.5330(5) 0.2472(5) 0.2191(4)
H8A H -0.5888 0.2359 0.2689
C19A C -0.8354(5) 0.6748(6) 0.5144(4)
H9A H -0.9212 0.6295 0.5181
C20A C -0.5816(6) 0.8100(6) 0.5038(5)
H10A H -0.4962 0.8566 0.4998
C21A C -0.7615(6) 0.8070(6) 0.5854(5)
C22A C -0.4941(5) 0.1512(5) 0.1674(5)
H11A H -0.5230 0.0736 0.1808
C23A C -0.2554(5) 0.7124(5) 0.0427(4)
H12A H -0.2199 0.7855 0.0232
C24A C -0.3350(5) 0.7085(5) 0.1187(4)
H13A H -0.3531 0.7805 0.1530
C25A C -0.0135(5) 0.7490(6) 0.3115(5)
H14A H 0.0475 0.8064 0.2860
C26A C -0.0703(6) 0.7992(6) 0.3972(5)
H15A H -0.0491 0.8897 0.4276
C27A C -0.6337(6) 0.8761(6) 0.5811(5)
H16A H -0.5843 0.9661 0.6302
O5A O 0.1273(3) 0.6409(4) 0.1708(3)
O6A O -0.2035(4) 1.1524(4) -0.0484(3)
O6A_2 O -0.2035(4) 0.1524(4) -0.0484(3)
C28A C -0.1757(5) 1.0673(5) -0.1161(4)
O7A O -0.2196(4) 1.0132(4) -0.2256(3)
C29A C -0.0847(5) 1.0306(5) -0.0576(4)
C30A C -0.0593(6) 0.9257(6) -0.1178(5)
C31A C -0.0260(5) 1.1043(5) 0.0612(5)
H17A H -0.047(5) 1.172(5) 0.095(4)
H18A H -0.104(6) 0.877(6) -0.194(5)
loop_
_geom_bond_atom_site_label_1
_geom_bond_atom_site_label_2
_geom_bond_site_symmetry_1
_geom_bond_site_symmetry_2
Mn1 O1 1_555 1_555
Cl1 C13 1_555 1_555
Cl2 C21 1_555 1_555
O1 C12 1_555 1_555
N1 C7 1_555 1_555
N2 H1 1_555 1_555
N3 Mn1 1_555 1_555
N4 Mn1 1_555 1_555
O2 Mn1 1_555 1_555
H2 O2 1_555 1_555
H3 O2 1_555 1_555
O3 C15 1_555 1_555
C1 N3 1_555 1_555
C2 C1 1_555 1_555
C3 N4 1_555 1_555
C4 C9 1_555 1_555
C5 H4 1_555 1_555
C6 C3 1_555 1_555
O4 C15 1_555 1_555
C7 N2 1_555 1_555
C8 N1 1_555 1_555
C9 C5 1_555 1_555
H5 C9 1_555 1_555
C10 C7 1_555 1_555
C11 N2 1_555 1_555
C12 C4 1_555 1_555
C13 C10 1_555 1_555
C14 C5 1_555 1_555
C15 C14 1_555 1_555
C16 N4 1_555 1_555
H6 C16 1_555 1_555
C17 N3 1_555 1_555
H7 C17 1_555 1_555
C18 C6 1_555 1_555
H8 C18 1_555 1_555
C19 C13 1_555 1_555
H9 C19 1_555 1_555
C20 C10 1_555 1_555
H10 C20 1_555 1_555
C21 C19 1_555 1_555
C22 C16 1_555 1_555
H11 C22 1_555 1_555
C23 C17 1_555 1_555
H12 C23 1_555 1_555
C24 C2 1_555 1_555
H13 C24 1_555 1_555
C25 C4 1_555 1_555
H14 C25 1_555 1_555
C26 C14 1_555 1_555
H15 C26 1_555 1_555
C27 C20 1_555 1_555
H16 C27 1_555 1_555
O5 C12 1_555 1_555
O6 Mn1 1_555 1_555
C28 O6 1_555 1_555
O7 C28 1_555 1_555
C29 C28 1_555 1_555
C30 C29 1_555 1_555
C31 C29 1_555 1_555
H17 C31 1_555 1_555
H18 C30 1_555 1_555
Mn1A O5 1_555 1_555
Mn1A_2 O6A 1_555 1_555
Cl1A C13A 1_555 1_555
Cl2A C21A 1_555 1_555
O1A Mn1A 1_555 1_555
N1A C7A 1_555 1_555
N2A H1A 1_555 1_555
N3A Mn1A 1_555 1_555
N4A Mn1A 1_555 1_555
O2A Mn1A 1_555 1_555
H2A O2A 1_555 1_555
H3A O2A 1_555 1_555
O3A C15A 1_555 1_555
C1A N3A 1_555 1_555
C2A C1A 1_555 1_555
C3A N4A 1_555 1_555
C4A C9A 1_555 1_555
C5A H4A 1_555 1_555
C6A C3A 1_555 1_555
O4A C15A 1_555 1_555
C7A N2A 1_555 1_555
C8A N1A 1_555 1_555
C9A C5A 1_555 1_555
H5A C9A 1_555 1_555
C10A C7A 1_555 1_555
C11A N2A 1_555 1_555
C12A O1A 1_555 1_555
C13A C10A 1_555 1_555
C14A C5A 1_555 1_555
C15A C14A 1_555 1_555
C16A N4A 1_555 1_555
H6A C16A 1_555 1_555
C17A N3A 1_555 1_555
H7A C17A 1_555 1_555
C18A C6A 1_555 1_555
H8A C18A 1_555 1_555
C19A C13A 1_555 1_555
H9A C19A 1_555 1_555
C20A C10A 1_555 1_555
H10A C20A 1_555 1_555
C21A C19A 1_555 1_555
C22A C16A 1_555 1_555
H11A C22A 1_555 1_555
C23A C17A 1_555 1_555
H12A C23A 1_555 1_555
C24A C2A 1_555 1_555
H13A C24A 1_555 1_555
C25A C4A 1_555 1_555
H14A C25A 1_555 1_555
C26A C14A 1_555 1_555
H15A C26A 1_555 1_555
C27A C20A 1_555 1_555
H16A C27A 1_555 1_555
O5A Mn1 1_555 1_555
O6A C28A 1_555 1_555
O6A_2 Mn1A 1_555 1_555
C28A O7A 1_555 1_555
C29A C28A 1_555 1_555
C30A C31 1_555 1_555
C31A C30 1_555 1_555
H17A C31A 1_555 1_555
H18A C30A 1_555 1_555
C1 C3 1_555 1_555
C2 C8 1_555 1_555
C6 C11 1_555 1_555
C8 C11 1_555 1_555
C18 C22 1_555 1_555
C21 C27 1_555 1_555
C23 C24 1_555 1_555
C25 C26 1_555 1_555
C1A C3A 1_555 1_555
C2A C8A 1_555 1_555
C4A C12A 1_555 1_555
C6A C11A 1_555 1_555
C8A C11A 1_555 1_555
C12A O5A 1_555 1_555
C18A C22A 1_555 1_555
C21A C27A 1_555 1_555
C23A C24A 1_555 1_555
C25A C26A 1_555 1_555
C29A C30A 1_555 1_555
C29A C31A 1_555 1_555

#END
