
#######################################################################
#
#                 Cambridge Crystallographic Data Centre
#                                CCDC 
#
#######################################################################
#
# If this CIF has been generated from an entry in the Cambridge 
# Structural Database, then it will include bibliographic, chemical, 
# crystal, experimental, refinement or atomic coordinate data resulting 
# from the CCDC's data processing and validation procedures.
#
#######################################################################

data_PEGWUV
_symmetry_cell_setting           monoclinic
_symmetry_space_group_name_H-M   'C 2/c'
_symmetry_Int_Tables_number      15
_space_group_name_Hall           '-C 2yn'
loop_
_symmetry_equiv_pos_site_id
_symmetry_equiv_pos_as_xyz
1 x,y,z
2 -x,y,1/2-z
3 1/2+x,1/2+y,z
4 1/2-x,1/2+y,1/2-z
5 -x,-y,-z
6 x,-y,1/2+z
7 1/2-x,1/2-y,-z
8 1/2+x,1/2-y,1/2+z
_cell_length_a                   11.455(3)
_cell_length_b                   15.070(3)
_cell_length_c                   20.728(4)
_cell_angle_alpha                90
_cell_angle_beta                 103.702(7)
_cell_angle_gamma                90
_cell_volume                     3476.38
loop_
_atom_site_label
_atom_site_type_symbol
_atom_site_fract_x
_atom_site_fract_y
_atom_site_fract_z
Mn1 Mn 0.0000 0.02153(6) 0.2500
O1 O 0.1112(3) -0.0651(2) 0.28837(14)
N1 N 0.1057(3) 0.1206(2) 0.29057(16)
N2 N -0.0780(3) 0.0268(2) 0.34249(17)
N3 N -0.1162(4) 0.0495(3) 0.4400(2)
C1 C 0.2174(4) -0.0556(3) 0.3296(2)
C2 C 0.2859(5) -0.1307(3) 0.3528(2)
H1 H 0.2548 -0.1863 0.3387
C3 C 0.3958(5) -0.1259(4) 0.3949(3)
H2 H 0.4383 -0.1777 0.4090
C4 C 0.4441(5) -0.0470(5) 0.4165(3)
H3 H 0.5194 -0.0440 0.4457
C5 C 0.3814(5) 0.0284(4) 0.3953(2)
H4 H 0.4154 0.0828 0.4107
C6 C 0.2673(4) 0.0278(3) 0.3510(2)
C7 C 0.2091(4) 0.1093(3) 0.3304(2)
H5 H 0.2504 0.1605 0.3475
C8 C 0.0567(4) 0.2054(3) 0.27216(18)
C9 C 0.1117(4) 0.2844(3) 0.2945(2)
H6 H 0.1864 0.2847 0.3244
C10 C 0.0555(4) 0.3633(3) 0.2721(2)
H7 H 0.0927 0.4169 0.2868
C11 C -0.1805(5) -0.0227(4) 0.4129(3)
H8 H -0.2322 -0.0560 0.4318
C12 C -0.1555(5) -0.0368(4) 0.3542(3)
H9 H -0.1863 -0.0830 0.3254
C13 C -0.0563(4) 0.0770(3) 0.3958(2)
H10 H -0.0053 0.1258 0.4021
C14 C -0.1126(6) 0.0897(4) 0.5046(2)
H11 H -0.0297 0.1023 0.5266
H12 H -0.1431 0.0473 0.5318
C15 C -0.2970(5) 0.1816(4) 0.4608(3)
H13 H -0.3303 0.1346 0.4335
C16 C -0.1842(5) 0.1738(4) 0.5003(2)
C17 C -0.1387(5) 0.2428(4) 0.5392(3)
H14 H -0.0618 0.2387 0.5666
Mn1F Mn -0.5000 0.47847(6) 0.7500
O1A O -0.1112(3) -0.0651(2) 0.21163(14)
N1A N -0.1057(3) 0.1206(2) 0.20943(16)
N2F N -0.4220(3) 0.4732(2) 0.65751(17)
N2A N 0.0780(3) 0.0268(2) 0.15751(17)
N3F N -0.3838(4) 0.4505(3) 0.5600(2)
C1A C -0.2174(4) -0.0556(3) 0.1704(2)
C2A C -0.2859(5) -0.1307(3) 0.1472(2)
H1A H -0.2548 -0.1863 0.1613
C3A C -0.3958(5) -0.1259(4) 0.1051(3)
H2A H -0.4383 -0.1777 0.0910
C4A C -0.4441(5) -0.0470(5) 0.0835(3)
H3A H -0.5194 -0.0440 0.0543
C5A C -0.3814(5) 0.0284(4) 0.1047(2)
H4A H -0.4154 0.0828 0.0893
C6A C -0.2673(4) 0.0278(3) 0.1490(2)
C7A C -0.2091(4) 0.1093(3) 0.1696(2)
H5A H -0.2504 0.1605 0.1525
C8A C -0.0567(4) 0.2054(3) 0.22784(18)
C9A C -0.1117(4) 0.2844(3) 0.2055(2)
H6A H -0.1864 0.2847 0.1756
C10A C -0.0555(4) 0.3633(3) 0.2279(2)
H7A H -0.0927 0.4169 0.2132
C11F C -0.3195(5) 0.5227(4) 0.5871(3)
H8F H -0.2678 0.5560 0.5682
C12F C -0.3445(5) 0.5368(4) 0.6458(3)
H9F H -0.3137 0.5830 0.6746
C13F C -0.4437(4) 0.4230(3) 0.6042(2)
H10F H -0.4947 0.3742 0.5979
C14F C -0.3874(6) 0.4103(4) 0.4954(2)
H11F H -0.4703 0.3977 0.4734
H12F H -0.3569 0.4527 0.4682
C15F C -0.2030(5) 0.3184(4) 0.5392(3)
H13F H -0.1697 0.3654 0.5665
C16F C -0.3158(5) 0.3262(4) 0.4997(2)
C17F C -0.3613(5) 0.2572(4) 0.4608(3)
H14F H -0.4382 0.2613 0.4334
Cl1 Cl 0.7500 0.2500 1.0000
O2 O 0.8250(9) 0.2342(6) 0.9450(4)
O5 O 0.6663(12) 0.2269(12) 0.9481(6)
O2F O 0.6750(9) 0.2658(6) 1.0550(4)
O5F O 0.8337(12) 0.2731(12) 1.0519(6)
O6 O 0.0531(11) 0.7516(7) 0.2133(5)
O3? O 0.8330(12) 0.1915(10) 1.0347(5)
O4? O 0.7012(16) 0.1658(8) 0.9975(9)
O7? O 0.0000 0.7011(14) 0.2500
O8? O 0.0443(16) 0.6276(12) 0.2619(12)
loop_
_geom_bond_atom_site_label_1
_geom_bond_atom_site_label_2
_geom_bond_site_symmetry_1
_geom_bond_site_symmetry_2
Mn1 O1 1_555 1_555
O1 C1 1_555 1_555
N1 Mn1 1_555 1_555
N2 Mn1 1_555 1_555
N3 C11 1_555 1_555
C1 C2 1_555 1_555
C2 H1 1_555 1_555
C3 C2 1_555 1_555
H2 C3 1_555 1_555
C4 C3 1_555 1_555
H3 C4 1_555 1_555
C5 C4 1_555 1_555
H4 C5 1_555 1_555
C6 C1 1_555 1_555
C7 N1 1_555 1_555
H5 C7 1_555 1_555
C8 N1 1_555 1_555
C9 C8 1_555 1_555
H6 C9 1_555 1_555
C10 C9 1_555 1_555
H7 C10 1_555 1_555
C11 H8 1_555 1_555
C12 N2 1_555 1_555
H9 C12 1_555 1_555
C13 N2 1_555 1_555
H10 C13 1_555 1_555
C14 N3 1_555 1_555
H11 C14 1_555 1_555
H12 C14 1_555 1_555
C15 H13 1_555 1_555
C16 C14 1_555 1_555
C17 C16 1_555 1_555
H14 C17 1_555 1_555
Cl1 O2 1_555 1_555
O5 Cl1 1_555 1_555
Mn1F N2F 1_555 1_555
O1A Mn1 1_555 1_555
N1A Mn1 1_555 1_555
N2F C12F 1_555 1_555
N2A Mn1 1_555 1_555
N3F C11F 1_555 1_555
C1A O1A 1_555 1_555
C2A C1A 1_555 1_555
H1A C2A 1_555 1_555
C3A C2A 1_555 1_555
H2A C3A 1_555 1_555
C4A C3A 1_555 1_555
H3A C4A 1_555 1_555
C5A C4A 1_555 1_555
H4A C5A 1_555 1_555
C6A C1A 1_555 1_555
C7A N1A 1_555 1_555
H5A C7A 1_555 1_555
C8A C8 1_555 1_555
C9A C8A 1_555 1_555
H6A C9A 1_555 1_555
C10A C10 1_555 1_555
H7A C10A 1_555 1_555
C11F H8F 1_555 1_555
C12F C11F 1_555 1_555
H9F C12F 1_555 1_555
C13F N2F 1_555 1_555
H10F C13F 1_555 1_555
C14F N3F 1_555 1_555
H11F C14F 1_555 1_555
H12F C14F 1_555 1_555
C15F C17 1_555 1_555
H13F C15F 1_555 1_555
C16F C14F 1_555 1_555
C17F C15 1_555 1_555
H14F C17F 1_555 1_555
O2F Cl1 1_555 1_555
O5F Cl1 1_555 1_555
N3 C13 1_555 1_555
C5 C6 1_555 1_555
C6 C7 1_555 1_555
C11 C12 1_555 1_555
C15 C16 1_555 1_555
N1A C8A 1_555 1_555
N3F C13F 1_555 1_555
C5A C6A 1_555 1_555
C6A C7A 1_555 1_555
C9A C10A 1_555 1_555
C15F C16F 1_555 1_555
C16F C17F 1_555 1_555

#END
