
#######################################################################
#
#                 Cambridge Crystallographic Data Centre
#                                CCDC 
#
#######################################################################
#
# If this CIF has been generated from an entry in the Cambridge 
# Structural Database, then it will include bibliographic, chemical, 
# crystal, experimental, refinement or atomic coordinate data resulting 
# from the CCDC's data processing and validation procedures.
#
#######################################################################

data_PEGZEI
_symmetry_cell_setting           triclinic
_symmetry_space_group_name_H-M   'P -1'
_symmetry_Int_Tables_number      2
_space_group_name_Hall           '-P 1'
loop_
_symmetry_equiv_pos_site_id
_symmetry_equiv_pos_as_xyz
1 x,y,z
2 -x,-y,-z
_cell_length_a                   8.6694(13)
_cell_length_b                   8.8942(12)
_cell_length_c                   10.7056(16)
_cell_angle_alpha                73.923(3)
_cell_angle_beta                 85.525(3)
_cell_angle_gamma                77.293(3)
_cell_volume                     773.64
loop_
_atom_site_label
_atom_site_type_symbol
_atom_site_fract_x
_atom_site_fract_y
_atom_site_fract_z
Cu1 Cu 0.11884(3) 0.10480(3) 0.16013(2)
S1 S 0.27981(6) -0.06382(6) -0.03880(5)
O1 O 0.25346(19) 0.08334(19) 0.00639(15)
O2 O 0.13317(19) -0.0983(2) -0.06756(15)
O3 O 0.39612(19) -0.0581(2) -0.14297(15)
O4 O -0.3254(2) -0.1609(2) 0.48897(16)
O5 O -0.01744(19) 0.14270(18) 0.30580(14)
O6 O 0.31816(19) 0.1579(2) 0.25051(15)
H1 H 0.3306 0.1432 0.3315
H2 H 0.4063 0.1267 0.2202
N1 N 0.1353(2) -0.1254(2) 0.23570(17)
N2 N 0.0239(2) -0.1884(2) 0.30364(16)
N3 N 0.0526(2) 0.3404(2) 0.06520(17)
C1 C 0.3539(3) -0.2237(3) 0.0969(2)
C2 C 0.4852(3) -0.3387(3) 0.0797(2)
H3 H 0.5448 -0.3220 0.0006
C3 C 0.5289(3) -0.4782(3) 0.1786(2)
H4 H 0.6183 -0.5571 0.1670
C4 C 0.4417(3) -0.5022(3) 0.2946(2)
H5 H 0.4701 -0.5987 0.3613
C5 C 0.3135(3) -0.3855(3) 0.3128(2)
H6 H 0.2565 -0.4012 0.3932
C6 C 0.2675(3) -0.2452(3) 0.2144(2)
C7 C -0.1008(3) -0.1033(3) 0.3559(2)
C8 C -0.2230(3) -0.1974(3) 0.4104(2)
C9 C -0.2233(3) -0.3412(3) 0.3619(2)
H7 H -0.3099 -0.3924 0.4045
H8 H -0.1223 -0.4175 0.3822
H9 H -0.2378 -0.3073 0.2676
C10 C -0.1149(3) 0.0587(3) 0.36170(19)
C11 C -0.2454(3) 0.1371(3) 0.4380(2)
H10 H -0.2293 0.0872 0.5311
H11 H -0.3474 0.1240 0.4137
H12 H -0.2448 0.2513 0.4188
C12 C 0.0010(3) 0.3838(3) -0.0571(2)
H13 H 0.0010 0.3036 -0.1001
C13 C 0.0522(3) 0.4572(3) 0.1221(2)
H14 H 0.0891 0.4304 0.2084
Cu1A Cu -0.11884(3) -0.10480(3) -0.16013(2)
Cu1A_2 Cu -0.11884(3) 0.89520(3) -0.16013(2)
S1A S -0.27981(6) 0.06382(6) 0.03880(5)
O1A O -0.25346(19) -0.08334(19) -0.00639(15)
O2A O -0.13317(19) 0.0983(2) 0.06756(15)
O3A O -0.39612(19) 0.0581(2) 0.14297(15)
O4A O 0.3254(2) 0.1609(2) -0.48897(16)
O5A O 0.01744(19) -0.14270(18) -0.30580(14)
O6A O -0.31816(19) -0.1579(2) -0.25051(15)
H1A H -0.3306 -0.1432 -0.3315
H2A H -0.4063 -0.1267 -0.2202
N1A N -0.1353(2) 0.1254(2) -0.23570(17)
N2A N -0.0239(2) 0.1884(2) -0.30364(16)
N3A N -0.0526(2) 0.6596(2) -0.06520(17)
N3A_2 N -0.0526(2) -0.3404(2) -0.06520(17)
C1A C -0.3539(3) 0.2237(3) -0.0969(2)
C2A C -0.4852(3) 0.3387(3) -0.0797(2)
H3A H -0.5448 0.3220 -0.0006
C3A C -0.5289(3) 0.4782(3) -0.1786(2)
H4A H -0.6183 0.5571 -0.1670
C4A C -0.4417(3) 0.5022(3) -0.2946(2)
H5A H -0.4701 0.5987 -0.3613
C5A C -0.3135(3) 0.3855(3) -0.3128(2)
H6A H -0.2565 0.4012 -0.3932
C6A C -0.2675(3) 0.2452(3) -0.2144(2)
C7A C 0.1008(3) 0.1033(3) -0.3559(2)
C8A C 0.2230(3) 0.1974(3) -0.4104(2)
C9A C 0.2233(3) 0.3412(3) -0.3619(2)
H7A H 0.3099 0.3924 -0.4045
H8A H 0.1223 0.4175 -0.3822
H9A H 0.2378 0.3073 -0.2676
C10A C 0.1149(3) -0.0587(3) -0.36170(19)
C11A C 0.2454(3) -0.1371(3) -0.4380(2)
H10A H 0.2293 -0.0872 -0.5311
H11A H 0.3474 -0.1240 -0.4137
H12A H 0.2448 -0.2513 -0.4188
C12A C -0.0010(3) 0.6162(3) 0.0571(2)
H13A H -0.0010 0.6964 0.1001
C13A C -0.0522(3) 0.5428(3) -0.1221(2)
H14A H -0.0891 0.5696 -0.2084
loop_
_geom_bond_atom_site_label_1
_geom_bond_atom_site_label_2
_geom_bond_site_symmetry_1
_geom_bond_site_symmetry_2
Cu1 O1 1_555 1_555
S1 O1 1_555 1_555
O2 S1 1_555 1_555
O3 S1 1_555 1_555
O4 C8 1_555 1_555
O5 Cu1 1_555 1_555
O6 Cu1 1_555 1_555
H1 O6 1_555 1_555
H2 O6 1_555 1_555
N1 Cu1 1_555 1_555
N2 N1 1_555 1_555
N3 Cu1 1_555 1_555
C1 S1 1_555 1_555
C2 C1 1_555 1_555
H3 C2 1_555 1_555
C3 C2 1_555 1_555
H4 C3 1_555 1_555
C4 C3 1_555 1_555
H5 C4 1_555 1_555
C5 C4 1_555 1_555
H6 C5 1_555 1_555
C6 N1 1_555 1_555
C7 N2 1_555 1_555
C8 C7 1_555 1_555
C9 C8 1_555 1_555
H7 C9 1_555 1_555
H8 C9 1_555 1_555
H9 C9 1_555 1_555
C10 O5 1_555 1_555
C11 C10 1_555 1_555
H10 C11 1_555 1_555
H11 C11 1_555 1_555
H12 C11 1_555 1_555
C12 N3 1_555 1_555
H13 C12 1_555 1_555
C13 N3 1_555 1_555
H14 C13 1_555 1_555
Cu1A O2 1_555 1_555
Cu1A_2 N3A 1_555 1_555
S1A O1A 1_555 1_555
O1A Cu1A 1_555 1_555
O2A Cu1 1_555 1_555
O3A S1A 1_555 1_555
O4A C8A 1_555 1_555
O5A Cu1A 1_555 1_555
O6A Cu1A 1_555 1_555
H1A O6A 1_555 1_555
H2A O6A 1_555 1_555
N1A Cu1A 1_555 1_555
N2A N1A 1_555 1_555
N3A C12A 1_555 1_555
N3A_2 Cu1A 1_555 1_555
C1A S1A 1_555 1_555
C2A C1A 1_555 1_555
H3A C2A 1_555 1_555
C3A C2A 1_555 1_555
H4A C3A 1_555 1_555
C4A C3A 1_555 1_555
H5A C4A 1_555 1_555
C5A C4A 1_555 1_555
H6A C5A 1_555 1_555
C6A N1A 1_555 1_555
C7A N2A 1_555 1_555
C8A C7A 1_555 1_555
C9A C8A 1_555 1_555
H7A C9A 1_555 1_555
H8A C9A 1_555 1_555
H9A C9A 1_555 1_555
C10A O5A 1_555 1_555
C11A C10A 1_555 1_555
H10A C11A 1_555 1_555
H11A C11A 1_555 1_555
H12A C11A 1_555 1_555
C12A C13 1_555 1_555
H13A C12A 1_555 1_555
C13A C12 1_555 1_555
H14A C13A 1_555 1_555
C1 C6 1_555 1_555
C5 C6 1_555 1_555
C7 C10 1_555 1_555
S1A O2A 1_555 1_555
N3A C13A 1_555 1_555
C1A C6A 1_555 1_555
C5A C6A 1_555 1_555
C7A C10A 1_555 1_555

#END
