
#######################################################################
#
#                 Cambridge Crystallographic Data Centre
#                                CCDC 
#
#######################################################################
#
# If this CIF has been generated from an entry in the Cambridge 
# Structural Database, then it will include bibliographic, chemical, 
# crystal, experimental, refinement or atomic coordinate data resulting 
# from the CCDC's data processing and validation procedures.
#
#######################################################################

data_PEHFOZ
_symmetry_cell_setting           orthorhombic
_symmetry_space_group_name_H-M   'P b c n'
_symmetry_Int_Tables_number      60
_space_group_name_Hall           '-P 2n 2ab'
loop_
_symmetry_equiv_pos_site_id
_symmetry_equiv_pos_as_xyz
1 x,y,z
2 1/2-x,1/2-y,1/2+z
3 -x,y,1/2-z
4 1/2+x,1/2-y,-z
5 -x,-y,-z
6 1/2+x,1/2+y,1/2-z
7 x,-y,1/2+z
8 1/2-x,1/2+y,z
_cell_length_a                   27.0109(7)
_cell_length_b                   10.5585(3)
_cell_length_c                   7.9061(3)
_cell_angle_alpha                90
_cell_angle_beta                 90
_cell_angle_gamma                90
_cell_volume                     2254.78
loop_
_atom_site_label
_atom_site_type_symbol
_atom_site_fract_x
_atom_site_fract_y
_atom_site_fract_z
K1 K 0.5000 0.41563(6) 0.7500
P1 P 0.403960(19) 0.19127(6) 0.93070(7)
C1 C 0.33940(7) 0.1534(2) 0.9456(3)
C2 C 0.30348(8) 0.2348(2) 0.8841(3)
H1 H 0.3127 0.3094 0.8302
C3 C 0.25370(9) 0.2051(3) 0.9028(4)
H2 H 0.2297 0.2598 0.8607
C4 C 0.23987(9) 0.0963(3) 0.9826(4)
H3 H 0.2065 0.0768 0.9945
C5 C 0.27496(10) 0.0160(3) 1.0450(4)
H4 H 0.2654 -0.0576 1.1008
C6 C 0.32450(9) 0.0432(2) 1.0258(3)
H5 H 0.3481 -0.0128 1.0671
C7 C 0.42387(7) 0.2259(2) 1.1429(3)
H6 H 0.4183 0.1518 1.2128
H7 H 0.4592 0.2422 1.1417
C8 C 0.39770(8) 0.3388(2) 1.2233(3)
H8 H 0.4056 0.4154 1.1611
H9 H 0.3621 0.3264 1.2187
C9 C 0.41388(7) 0.3527(2) 1.4040(3)
O1 O 0.41124(5) 0.30546(15) 0.82038(19)
O2 O 0.43111(6) 0.07121(16) 0.8756(2)
O3 O 0.45354(5) 0.39803(15) 1.44372(19)
O4 O 0.38215(6) 0.30872(18) 1.5131(2)
H10 H 0.3960(10) 0.304(3) 1.615(3)
K1_2 K 0.5000 0.41563(6) 1.7500
K1D K 0.5000 0.58437(6) 1.2500
K1_3 K 0.5000 0.41563(6) -0.2500
K1D_2 K 0.5000 0.58437(6) 0.2500
P1B P 0.596040(19) 0.19127(6) 0.56930(7)
C1B C 0.66060(7) 0.1534(2) 0.5544(3)
C2B C 0.69652(8) 0.2348(2) 0.6159(3)
H1B H 0.6873 0.3094 0.6698
C3B C 0.74630(9) 0.2051(3) 0.5972(4)
H2B H 0.7703 0.2598 0.6393
C4B C 0.76013(9) 0.0963(3) 0.5174(4)
H3B H 0.7935 0.0768 0.5055
C5B C 0.72504(10) 0.0160(3) 0.4550(4)
H4B H 0.7346 -0.0576 0.3992
C6B C 0.67550(9) 0.0432(2) 0.4742(3)
H5B H 0.6519 -0.0128 0.4329
C7B C 0.57613(7) 0.2259(2) 0.3571(3)
H6B H 0.5817 0.1518 0.2872
H7B H 0.5408 0.2422 0.3583
C8B C 0.60230(8) 0.3388(2) 0.2767(3)
H8B H 0.5944 0.4154 0.3389
H9B H 0.6379 0.3264 0.2813
C9B C 0.58612(7) 0.3527(2) 0.0960(3)
O1B O 0.58876(5) 0.30546(15) 0.67962(19)
O2B O 0.56889(6) 0.07121(16) 0.6244(2)
O3B O 0.54646(5) 0.39803(15) 0.05628(19)
O3_2 O 0.45354(5) 0.39803(15) 0.44372(19)
O3B_2 O 0.54646(5) 0.39803(15) 1.05628(19)
O3D O 0.54646(5) 0.60197(15) 0.55628(19)
O3F O 0.45354(5) 0.60197(15) 0.94372(19)
O4B O 0.61785(6) 0.30872(18) -0.0131(2)
H10B H 0.6040(10) 0.304(3) -0.115(3)
O5 O 0.51892(12) 0.0743(4) -0.0866(5)
H11 H 0.537(2) 0.076(6) -0.178(6)
H12 H 0.536(2) 0.023(5) -0.020(7)
H13? H 0.4752(4) 0.073(5) -0.112(8)
loop_
_geom_bond_atom_site_label_1
_geom_bond_atom_site_label_2
_geom_bond_site_symmetry_1
_geom_bond_site_symmetry_2
K1 O1 1_555 1_555
P1 C1 1_555 1_555
C1 C2 1_555 1_555
C2 H1 1_555 1_555
C3 C2 1_555 1_555
H2 C3 1_555 1_555
C4 C3 1_555 1_555
H3 C4 1_555 1_555
C5 C4 1_555 1_555
H4 C5 1_555 1_555
C6 C1 1_555 1_555
H5 C6 1_555 1_555
C7 P1 1_555 1_555
H6 C7 1_555 1_555
H7 C7 1_555 1_555
C8 C7 1_555 1_555
H8 C8 1_555 1_555
H9 C8 1_555 1_555
C9 C8 1_555 1_555
O1 P1 1_555 1_555
O2 P1 1_555 1_555
O3 C9 1_555 1_555
O4 C9 1_555 1_555
H10 O4 1_555 1_555
O5 H11 1_555 1_555
H12 O5 1_555 1_555
K1_2 O3 1_555 1_555
K1D O3 1_555 1_555
K1_3 O3B 1_555 1_555
K1D_2 O3B 1_555 1_555
P1B C1B 1_555 1_555
C1B C2B 1_555 1_555
C2B H1B 1_555 1_555
C3B C2B 1_555 1_555
H2B C3B 1_555 1_555
C4B C3B 1_555 1_555
H3B C4B 1_555 1_555
C5B C4B 1_555 1_555
H4B C5B 1_555 1_555
C6B C1B 1_555 1_555
H5B C6B 1_555 1_555
C7B P1B 1_555 1_555
H6B C7B 1_555 1_555
H7B C7B 1_555 1_555
C8B C7B 1_555 1_555
H8B C8B 1_555 1_555
H9B C8B 1_555 1_555
C9B C8B 1_555 1_555
O1B K1 1_555 1_555
O2B P1B 1_555 1_555
O3B C9B 1_555 1_555
O3_2 K1 1_555 1_555
O3B_2 K1 1_555 1_555
O3D K1 1_555 1_555
O3F K1 1_555 1_555
O4B C9B 1_555 1_555
H10B O4B 1_555 1_555
C5 C6 1_555 1_555
K1D O3B_2 1_555 1_555
K1D O3F 1_555 1_555
K1D_2 O3_2 1_555 1_555
K1D_2 O3D 1_555 1_555
P1B O1B 1_555 1_555
C5B C6B 1_555 1_555

#END
