
#######################################################################
#
#                 Cambridge Crystallographic Data Centre
#                                CCDC 
#
#######################################################################
#
# If this CIF has been generated from an entry in the Cambridge 
# Structural Database, then it will include bibliographic, chemical, 
# crystal, experimental, refinement or atomic coordinate data resulting 
# from the CCDC's data processing and validation procedures.
#
#######################################################################

data_PEHGAM
_symmetry_cell_setting           orthorhombic
_symmetry_space_group_name_H-M   'P 21 21 21'
_symmetry_Int_Tables_number      19
_space_group_name_Hall           'P 2ac 2ab'
loop_
_symmetry_equiv_pos_site_id
_symmetry_equiv_pos_as_xyz
1 x,y,z
2 1/2+x,1/2-y,-z
3 -x,1/2+y,1/2-z
4 1/2-x,-y,1/2+z
_cell_length_a                   8.7446(9)
_cell_length_b                   9.2675(12)
_cell_length_c                   12.9661(15)
_cell_angle_alpha                90
_cell_angle_beta                 90
_cell_angle_gamma                90
_cell_volume                     1050.78
loop_
_atom_site_label
_atom_site_type_symbol
_atom_site_fract_x
_atom_site_fract_y
_atom_site_fract_z
Bi1 Bi 1.00599(7) 0.17098(6) 0.76987(4)
Cl1 Cl 1.0539(5) 0.4367(5) 0.8654(3)
C1 C 0.7540(16) 0.211(2) 0.7795(12)
C2 C 0.7017(19) 0.297(2) 0.6980(15)
C3 C 0.546(2) 0.335(2) 0.6929(18)
H1 H 0.5088 0.3906 0.6378
C4 C 0.448(2) 0.288(3) 0.7709(17)
H2 H 0.3439 0.3134 0.7689
C5 C 0.504(2) 0.202(2) 0.8531(17)
H3 H 0.4375 0.1691 0.9047
C6 C 0.6604(18) 0.167(2) 0.8576(17)
H4 H 0.6997 0.114 0.9133
C7 C 0.8104(18) 0.340(2) 0.6148(13)
C8 C 0.9700(19) 0.3066(19) 0.6348(13)
C9 C 1.0777(19) 0.362(2) 0.5601(14)
H5 H 1.1813 0.3373 0.5677
C10 C 1.040(2) 0.4446(19) 0.4827(14)
H6 H 1.1156 0.4832 0.4396
C11 C 0.885(2) 0.476(2) 0.4640(13)
H7 H 0.8556 0.5304 0.4064
C12 C 0.780(2) 0.424(2) 0.5320(12)
H8 H 0.6772 0.4481 0.5202
Bi1B Bi 0.99401(7) 0.67098(6) 0.73013(4)
Cl1B Cl 0.9461(5) -0.0633(5) 0.6346(3)
loop_
_geom_bond_atom_site_label_1
_geom_bond_atom_site_label_2
_geom_bond_site_symmetry_1
_geom_bond_site_symmetry_2
Bi1 Cl1 1_555 1_555
Cl1 Bi1B 1_555 1_555
C1 Bi1 1_555 1_555
C2 C1 1_555 1_555
C3 C2 1_555 1_555
H1 C3 1_555 1_555
C4 C3 1_555 1_555
H2 C4 1_555 1_555
C5 C4 1_555 1_555
H3 C5 1_555 1_555
C6 C1 1_555 1_555
H4 C6 1_555 1_555
C7 C2 1_555 1_555
C8 Bi1 1_555 1_555
C9 C8 1_555 1_555
H5 C9 1_555 1_555
C10 C9 1_555 1_555
H6 C10 1_555 1_555
C11 C10 1_555 1_555
H7 C11 1_555 1_555
C12 C7 1_555 1_555
H8 C12 1_555 1_555
Cl1B Bi1 1_555 1_555
C5 C6 1_555 1_555
C7 C8 1_555 1_555
C11 C12 1_555 1_555

#END
