
#######################################################################
#
#                 Cambridge Crystallographic Data Centre
#                                CCDC 
#
#######################################################################
#
# If this CIF has been generated from an entry in the Cambridge 
# Structural Database, then it will include bibliographic, chemical, 
# crystal, experimental, refinement or atomic coordinate data resulting 
# from the CCDC's data processing and validation procedures.
#
#######################################################################

data_PEHMAS
_symmetry_cell_setting           monoclinic
_symmetry_space_group_name_H-M   'P 21/c'
_symmetry_Int_Tables_number      14
_space_group_name_Hall           '-P 2ybc'
loop_
_symmetry_equiv_pos_site_id
_symmetry_equiv_pos_as_xyz
1 x,y,z
2 -x,1/2+y,1/2-z
3 -x,-y,-z
4 x,1/2-y,1/2+z
_cell_length_a                   6.7977(2)
_cell_length_b                   9.7882(3)
_cell_length_c                   21.0089(7)
_cell_angle_alpha                90
_cell_angle_beta                 97.884(2)
_cell_angle_gamma                90
_cell_volume                     1384.66
loop_
_atom_site_label
_atom_site_type_symbol
_atom_site_fract_x
_atom_site_fract_y
_atom_site_fract_z
Sn1 Sn 0.39302(5) -0.17749(3) 0.263336(16)
F1 F -0.4185(6) 0.3393(5) 0.5715(2)
O1 O 0.2572(6) -0.0487(4) 0.32549(19)
O2 O 0.4347(5) 0.1317(4) 0.30330(18)
C1 C 0.3070(7) 0.0791(5) 0.3315(2)
C2 C 0.1968(7) 0.1625(5) 0.3752(2)
C3 C 0.0730(7) 0.1010(5) 0.4095(2)
H1 H 0.0614 0.0068 0.4043
C4 C -0.0488(7) 0.1627(5) 0.4550(2)
C5 C -0.2418(8) 0.1168(6) 0.4555(3)
H2 H -0.2887 0.0448 0.4287
C6 C -0.3662(8) 0.1752(7) 0.4947(3)
H3 H -0.4956 0.1440 0.4941
C7 C -0.2946(9) 0.2796(7) 0.5343(3)
C8 C -0.1041(10) 0.3254(7) 0.5374(3)
H4 H -0.0574 0.3946 0.5658
C9 C 0.0182(9) 0.2672(6) 0.4976(3)
H5 H 0.1481 0.2984 0.4993
C10 C 0.2328(9) 0.3145(5) 0.3737(3)
H6 H 0.1326 0.3611 0.3935
H7 H 0.2274 0.3442 0.3300
H8 H 0.3613 0.3349 0.3968
C11 C 0.1970(8) -0.3413(5) 0.2760(3)
H9 H 0.2633 -0.4060 0.3059
H10 H 0.1574 -0.3855 0.2354
H11 H 0.0817 -0.3065 0.2923
C12 C 0.6817(8) -0.1755(6) 0.3151(3)
H12 H 0.7570 -0.1028 0.2995
H13 H 0.7457 -0.2612 0.3094
H14 H 0.6738 -0.1615 0.3599
C13 C 0.3083(8) -0.0725(6) 0.1753(3)
H15 H 0.1885 -0.0220 0.1777
H16 H 0.2859 -0.1374 0.1408
H17 H 0.4122 -0.0108 0.1676
Sn1A Sn 0.60698(5) 0.32251(3) 0.236664(16)
O2A O 0.5653(5) -0.3683(4) 0.19670(18)
loop_
_geom_bond_atom_site_label_1
_geom_bond_atom_site_label_2
_geom_bond_site_symmetry_1
_geom_bond_site_symmetry_2
Sn1 O1 1_555 1_555
F1 C7 1_555 1_555
O1 C1 1_555 1_555
O2 C1 1_555 1_555
C1 C2 1_555 1_555
C2 C3 1_555 1_555
C3 H1 1_555 1_555
C4 C3 1_555 1_555
C5 C4 1_555 1_555
H2 C5 1_555 1_555
C6 C5 1_555 1_555
H3 C6 1_555 1_555
C7 C6 1_555 1_555
C8 C7 1_555 1_555
H4 C8 1_555 1_555
C9 C4 1_555 1_555
H5 C9 1_555 1_555
C10 C2 1_555 1_555
H6 C10 1_555 1_555
H7 C10 1_555 1_555
H8 C10 1_555 1_555
C11 Sn1 1_555 1_555
H9 C11 1_555 1_555
H10 C11 1_555 1_555
H11 C11 1_555 1_555
C12 Sn1 1_555 1_555
H12 C12 1_555 1_555
H13 C12 1_555 1_555
H14 C12 1_555 1_555
C13 Sn1 1_555 1_555
H15 C13 1_555 1_555
H16 C13 1_555 1_555
H17 C13 1_555 1_555
Sn1A O2 1_555 1_555
O2A Sn1 1_555 1_555
C8 C9 1_555 1_555

#END
