
#######################################################################
#
#                 Cambridge Crystallographic Data Centre
#                                CCDC 
#
#######################################################################
#
# If this CIF has been generated from an entry in the Cambridge 
# Structural Database, then it will include bibliographic, chemical, 
# crystal, experimental, refinement or atomic coordinate data resulting 
# from the CCDC's data processing and validation procedures.
#
#######################################################################

data_PEHNAS
_symmetry_cell_setting           monoclinic
_symmetry_space_group_name_H-M   'P 21/n'
_symmetry_Int_Tables_number      14
_space_group_name_Hall           '-P 2yn'
loop_
_symmetry_equiv_pos_site_id
_symmetry_equiv_pos_as_xyz
1 x,y,z
2 1/2-x,1/2+y,1/2-z
3 -x,-y,-z
4 1/2+x,1/2-y,1/2+z
_cell_length_a                   11.268(2)
_cell_length_b                   7.3792(15)
_cell_length_c                   19.400(4)
_cell_angle_alpha                90
_cell_angle_beta                 95.87(3)
_cell_angle_gamma                90
_cell_volume                     1604.63
loop_
_atom_site_label
_atom_site_type_symbol
_atom_site_fract_x
_atom_site_fract_y
_atom_site_fract_z
Pb1 Pb -0.14556(3) 0.27544(5) 0.317960(18)
S1 S -0.0310(3) 0.2090(5) 0.17411(19)
S2 S -0.4221(3) 0.1547(4) 0.27101(17)
N1 N -0.0559(8) 0.2129(10) 0.5497(4)
H1 H -0.0011 0.2287 0.5834
N2 N 0.1656(7) 0.3396(11) 0.4815(4)
H2 H 0.1848 0.3416 0.5256
N3 N 0.0567(7) 0.3130(11) 0.3814(4)
N4 N -0.1460(7) 0.2044(10) 0.4442(4)
N5 N -0.2522(10) 0.0711(15) 0.1221(5)
N6 N -0.3969(10) 0.4368(13) 0.1797(5)
C1 C 0.0592(8) 0.2988(12) 0.4495(5)
C2 C -0.0449(9) 0.2403(12) 0.4820(5)
C3 C -0.2251(9) 0.1500(14) 0.4910(5)
C4 C 0.1729(9) 0.3622(13) 0.3697(5)
C5 C -0.1693(9) 0.1560(14) 0.5553(5)
C6 C 0.2403(9) 0.3784(14) 0.4307(5)
C7 C -0.2125(11) 0.1200(18) 0.6259(6)
H3 H -0.2943 0.0815 0.6199
H4 H -0.2059 0.2290 0.6530
H5 H -0.1644 0.0268 0.6493
C8 C 0.3652(9) 0.4269(18) 0.4494(6)
H6 H 0.4030 0.4494 0.4081
H7 H 0.4052 0.3292 0.4748
H8 H 0.3694 0.5341 0.4776
C9 C -0.3517(10) 0.0939(19) 0.4678(6)
H9 H -0.3915 0.0614 0.5075
H10 H -0.3511 -0.0083 0.4372
H11 H -0.3932 0.1929 0.4439
C10 C 0.2063(10) 0.3870(18) 0.2980(6)
H12 H 0.2891 0.4196 0.2999
H13 H 0.1585 0.4815 0.2753
H14 H 0.1930 0.2760 0.2726
C11 C -0.1618(11) 0.1239(15) 0.1438(5)
C12 C -0.4075(10) 0.3239(15) 0.2180(6)
Pb1A Pb -0.35444(3) 0.77544(5) 0.182040(18)
Pb1A_2 Pb -0.35444(3) -0.22456(5) 0.182040(18)
N5A N -0.2478(10) 0.5711(15) 0.3779(5)
N6A N -0.1031(10) -0.0632(13) 0.3203(5)
loop_
_geom_bond_atom_site_label_1
_geom_bond_atom_site_label_2
_geom_bond_site_symmetry_1
_geom_bond_site_symmetry_2
Pb1 S1 1_555 1_555
S1 C11 1_555 1_555
S2 Pb1 1_555 1_555
N1 H1 1_555 1_555
N2 H2 1_555 1_555
N3 Pb1 1_555 1_555
N4 Pb1 1_555 1_555
N5 C11 1_555 1_555
N6 C12 1_555 1_555
C1 N2 1_555 1_555
C2 N1 1_555 1_555
C3 N4 1_555 1_555
C4 N3 1_555 1_555
C5 N1 1_555 1_555
C6 N2 1_555 1_555
C7 C5 1_555 1_555
H3 C7 1_555 1_555
H4 C7 1_555 1_555
H5 C7 1_555 1_555
C8 C6 1_555 1_555
H6 C8 1_555 1_555
H7 C8 1_555 1_555
H8 C8 1_555 1_555
C9 C3 1_555 1_555
H9 C9 1_555 1_555
H10 C9 1_555 1_555
H11 C9 1_555 1_555
C10 C4 1_555 1_555
H12 C10 1_555 1_555
H13 C10 1_555 1_555
H14 C10 1_555 1_555
C12 S2 1_555 1_555
Pb1A N6 1_555 1_555
Pb1A_2 N5 1_555 1_555
N5A Pb1 1_555 1_555
N6A Pb1 1_555 1_555
N3 C1 1_555 1_555
N4 C2 1_555 1_555
C1 C2 1_555 1_555
C3 C5 1_555 1_555
C4 C6 1_555 1_555

#END
