
#######################################################################
#
#                 Cambridge Crystallographic Data Centre
#                                CCDC 
#
#######################################################################
#
# If this CIF has been generated from an entry in the Cambridge 
# Structural Database, then it will include bibliographic, chemical, 
# crystal, experimental, refinement or atomic coordinate data resulting 
# from the CCDC's data processing and validation procedures.
#
#######################################################################

data_PEHNUM
_symmetry_cell_setting           monoclinic
_symmetry_space_group_name_H-M   'P 21/n'
_symmetry_Int_Tables_number      14
_space_group_name_Hall           '-P 2yn'
loop_
_symmetry_equiv_pos_site_id
_symmetry_equiv_pos_as_xyz
1 x,y,z
2 1/2-x,1/2+y,1/2-z
3 -x,-y,-z
4 1/2+x,1/2-y,1/2+z
_cell_length_a                   11.0876(6)
_cell_length_b                   12.8739(7)
_cell_length_c                   16.9994(8)
_cell_angle_alpha                90
_cell_angle_beta                 91.193(4)
_cell_angle_gamma                90
_cell_volume                     2425.98
loop_
_atom_site_label
_atom_site_type_symbol
_atom_site_fract_x
_atom_site_fract_y
_atom_site_fract_z
Pr1 Pr -0.34156(3) 0.36474(2) -0.079310(18)
O1 O -0.4572(3) 0.5677(3) 0.0949(2)
O2 O -0.3178(3) 0.4831(3) 0.0284(2)
O3 O 0.1199(3) 0.5714(3) 0.0774(2)
O4 O 0.1644(3) 0.7057(3) 0.1531(2)
O5 O -0.1595(5) 0.9046(5) 0.2725(3)
O6 O -0.3343(4) 0.8387(4) 0.2787(3)
O7 O -0.2277(4) 0.2549(3) 0.0153(2)
O8 O -0.3295(4) 0.5127(3) -0.1803(3)
O9 O -0.3971(4) 0.3692(4) -0.2303(2)
O10 O -0.3863(5) 0.5074(4) -0.3034(3)
N1 N -0.4209(4) 0.1809(3) -0.1237(3)
N2 N -0.4960(4) 0.2653(3) 0.0136(3)
N3 N -0.2329(5) 0.8387(4) 0.2547(3)
N4 N -0.0358(5) 0.2469(4) 0.0610(3)
N5 N -0.3723(5) 0.4632(5) -0.2400(4)
C1 C -0.3808(5) 0.1360(5) -0.1881(3)
H1 H -0.3169 0.1670 -0.2138
C2 C -0.4294(6) 0.0442(5) -0.2195(4)
H2 H -0.3982 0.0152 -0.2648
C3 C -0.5221(6) -0.0016(5) -0.1828(4)
H3 H -0.5573 -0.0612 -0.2039
C4 C -0.5652(5) 0.0409(5) -0.1131(4)
C5 C -0.6587(6) -0.0083(5) -0.0676(4)
H4 H -0.6959 -0.0684 -0.0864
C6 C -0.6917(6) 0.0322(5) 0.0012(4)
H5 H -0.7497 -0.0018 0.0304
C7 C -0.6400(5) 0.1265(5) 0.0308(3)
C8 C -0.6681(6) 0.1678(5) 0.1053(4)
H6 H -0.7238 0.1345 0.1368
C9 C -0.6131(5) 0.2566(5) 0.1307(4)
H7 H -0.6315 0.2852 0.1792
C10 C -0.5291(5) 0.3036(5) 0.0828(3)
H8 H -0.4939 0.3654 0.1000
C11 C -0.5490(5) 0.1773(4) -0.0125(3)
C12 C -0.5111(5) 0.1327(4) -0.0845(3)
C13 C -0.2531(5) 0.6151(4) 0.1155(3)
C14 C -0.2859(5) 0.6926(4) 0.1682(3)
H9 H -0.3660 0.7021 0.1817
C15 C -0.1953(5) 0.7549(4) 0.1997(3)
C16 C -0.0771(5) 0.7435(4) 0.1839(3)
H10 H -0.0199 0.7885 0.2056
C17 C -0.0425(4) 0.6631(4) 0.1344(3)
C18 C -0.1314(4) 0.6023(4) 0.0996(3)
H11 H -0.1090 0.5510 0.0642
C19 C -0.3506(5) 0.5506(4) 0.0772(3)
C20 C 0.0887(5) 0.6453(5) 0.1205(3)
C21 C 0.0642(6) 0.2984(6) 0.1012(4)
H12 H 0.0404 0.3674 0.1157
H13 H 0.1317 0.3020 0.0669
H14 H 0.0865 0.2600 0.1477
C22 C -0.0148(7) 0.1436(6) 0.0306(5)
H15 H -0.0848 0.1206 0.0013
H16 H 0.0010 0.0967 0.0735
H17 H 0.0534 0.1449 -0.0033
C23 C -0.1392(6) 0.2915(5) 0.0501(3)
H18 H -0.1475 0.3579 0.0707
Pr1B Pr -0.65844(3) 0.63526(2) 0.079310(18)
Pr1B_2 Pr 0.34156(3) 0.63526(2) 0.079310(18)
O1B O -0.5428(3) 0.4323(3) -0.0949(2)
O3B O -0.1199(3) 0.4286(3) -0.0774(2)
O4B O -0.1644(3) 0.2943(3) -0.1531(2)
loop_
_geom_bond_atom_site_label_1
_geom_bond_atom_site_label_2
_geom_bond_site_symmetry_1
_geom_bond_site_symmetry_2
Pr1 O2 1_555 1_555
O1 C19 1_555 1_555
O2 C19 1_555 1_555
O3 C20 1_555 1_555
O4 C20 1_555 1_555
O5 N3 1_555 1_555
O6 N3 1_555 1_555
O7 Pr1 1_555 1_555
O8 Pr1 1_555 1_555
O9 Pr1 1_555 1_555
O10 N5 1_555 1_555
N1 Pr1 1_555 1_555
N2 Pr1 1_555 1_555
N3 C15 1_555 1_555
N4 C21 1_555 1_555
N5 O8 1_555 1_555
C1 N1 1_555 1_555
H1 C1 1_555 1_555
C2 C1 1_555 1_555
H2 C2 1_555 1_555
C3 C2 1_555 1_555
H3 C3 1_555 1_555
C4 C3 1_555 1_555
C5 C4 1_555 1_555
H4 C5 1_555 1_555
C6 C5 1_555 1_555
H5 C6 1_555 1_555
C7 C6 1_555 1_555
C8 C7 1_555 1_555
H6 C8 1_555 1_555
C9 C8 1_555 1_555
H7 C9 1_555 1_555
C10 N2 1_555 1_555
H8 C10 1_555 1_555
C11 N2 1_555 1_555
C12 N1 1_555 1_555
C13 C14 1_555 1_555
C14 H9 1_555 1_555
C15 C14 1_555 1_555
C16 C15 1_555 1_555
H10 C16 1_555 1_555
C17 C16 1_555 1_555
C18 C13 1_555 1_555
H11 C18 1_555 1_555
C19 C13 1_555 1_555
C20 C17 1_555 1_555
C21 H12 1_555 1_555
H13 C21 1_555 1_555
H14 C21 1_555 1_555
C22 N4 1_555 1_555
H15 C22 1_555 1_555
H16 C22 1_555 1_555
H17 C22 1_555 1_555
C23 O7 1_555 1_555
H18 C23 1_555 1_555
Pr1B O1 1_555 1_555
Pr1B_2 O3 1_555 1_555
O1B Pr1 1_555 1_555
O3B Pr1 1_555 1_555
O4B Pr1 1_555 1_555
O4 Pr1B_2 1_555 1_555
O9 N5 1_555 1_555
N4 C23 1_555 1_555
C4 C12 1_555 1_555
C7 C11 1_555 1_555
C9 C10 1_555 1_555
C11 C12 1_555 1_555
C17 C18 1_555 1_555

#END
