
#######################################################################
#
#                 Cambridge Crystallographic Data Centre
#                                CCDC 
#
#######################################################################
#
# If this CIF has been generated from an entry in the Cambridge 
# Structural Database, then it will include bibliographic, chemical, 
# crystal, experimental, refinement or atomic coordinate data resulting 
# from the CCDC's data processing and validation procedures.
#
#######################################################################

data_PEHPEY
_symmetry_cell_setting           monoclinic
_symmetry_space_group_name_H-M   'P 21/c'
_symmetry_Int_Tables_number      14
_space_group_name_Hall           '-P 2ybc'
loop_
_symmetry_equiv_pos_site_id
_symmetry_equiv_pos_as_xyz
1 x,y,z
2 -x,1/2+y,1/2-z
3 -x,-y,-z
4 x,1/2-y,1/2+z
_cell_length_a                   8.4081(10)
_cell_length_b                   5.2424(6)
_cell_length_c                   18.337(2)
_cell_angle_alpha                90
_cell_angle_beta                 90.907(2)
_cell_angle_gamma                90
_cell_volume                     808.168
loop_
_atom_site_label
_atom_site_type_symbol
_atom_site_fract_x
_atom_site_fract_y
_atom_site_fract_z
Ag1 Ag -0.62317(4) 0.79752(8) -0.44407(2)
Ag2 Ag -0.81807(5) 0.33546(8) -0.47750(2)
N1 N -0.2154(4) 0.0521(7) -0.38377(17)
O1 O -0.4276(4) 0.5804(7) -0.3835(2)
O2 O -0.5441(4) 0.2463(7) -0.43517(19)
O3 O -0.1951(3) 0.0755(6) -0.45513(15)
O4 O 0.0058(4) -0.4197(7) -0.41450(19)
O5 O 0.1488(4) -0.0747(7) -0.38361(18)
C1 C -0.4435(5) 0.3496(8) -0.3942(2)
C2 C -0.3344(5) 0.1775(8) -0.3496(2)
C3 C -0.3547(5) 0.1447(9) -0.2755(2)
H1 H -0.4343 0.2341 -0.2518
C4 C -0.2579(5) -0.0192(8) -0.2368(2)
H2 H -0.2745 -0.0476 -0.1874
C5 C -0.1368(5) -0.1402(9) -0.2718(2)
H3 H -0.0700 -0.2508 -0.2461
C6 C -0.1134(5) -0.0985(8) -0.3451(2)
C7 C 0.0262(5) -0.2071(9) -0.3857(2)
Ag1_2 Ag -0.62317(4) -0.20248(8) -0.44407(2)
Ag1B Ag -0.37683(4) 0.20248(8) -0.55593(2)
Ag1_3 Ag 0.37683(4) -0.20248(8) -0.44407(2)
Ag2_2 Ag -0.81807(5) 1.33546(8) -0.47750(2)
Ag2B Ag -0.18193(5) -0.33546(8) -0.52250(2)
Ag2_3 Ag 0.18193(5) -0.66454(8) -0.47750(2)
O2_2 O -0.5441(4) 1.2463(7) -0.43517(19)
O2B O -0.4559(4) 0.7537(7) -0.56483(19)
O3B O -0.8049(3) -0.0755(6) -0.54487(15)
O3B_2 O -0.8049(3) 0.9245(6) -0.54487(15)
O4_2 O -0.9942(4) 0.5803(7) -0.41450(19)
O4B O -1.0058(4) 0.4197(7) -0.58550(19)
O5_2 O -0.8512(4) 0.9253(7) -0.38361(18)
loop_
_geom_bond_atom_site_label_1
_geom_bond_atom_site_label_2
_geom_bond_site_symmetry_1
_geom_bond_site_symmetry_2
Ag1 Ag2 1_555 1_555
Ag2 O2 1_555 1_555
N1 O3 1_555 1_555
O1 Ag1 1_555 1_555
O2 C1 1_555 1_555
O3 Ag1B 1_555 1_555
O4 C7 1_555 1_555
O5 C7 1_555 1_555
C1 O1 1_555 1_555
C2 N1 1_555 1_555
C3 C2 1_555 1_555
H1 C3 1_555 1_555
C4 C3 1_555 1_555
H2 C4 1_555 1_555
C5 C4 1_555 1_555
H3 C5 1_555 1_555
C6 N1 1_555 1_555
C7 C6 1_555 1_555
Ag1_2 Ag2 1_555 1_555
Ag1B O2 1_555 1_555
Ag1_3 O5 1_555 1_555
Ag2_2 Ag1 1_555 1_555
Ag2B O3 1_555 1_555
Ag2_3 O4 1_555 1_555
O2_2 Ag1 1_555 1_555
O2B Ag1 1_555 1_555
O3B Ag2 1_555 1_555
O3B_2 Ag1 1_555 1_555
O4_2 Ag2 1_555 1_555
O4B Ag2 1_555 1_555
O5_2 Ag1 1_555 1_555
O2 Ag1_2 1_555 1_555
O4 Ag2B 1_555 1_555
C1 C2 1_555 1_555
C5 C6 1_555 1_555
Ag1_2 O3B 1_555 1_555
Ag1B Ag2B 1_555 1_555
Ag1_3 Ag2_3 1_555 1_555
Ag2_2 O2_2 1_555 1_555
Ag2_2 O3B_2 1_555 1_555

#END
