
#######################################################################
#
#                 Cambridge Crystallographic Data Centre
#                                CCDC 
#
#######################################################################
#
# If this CIF has been generated from an entry in the Cambridge 
# Structural Database, then it will include bibliographic, chemical, 
# crystal, experimental, refinement or atomic coordinate data resulting 
# from the CCDC's data processing and validation procedures.
#
#######################################################################

data_PEHQAW
_symmetry_cell_setting           tetragonal
_symmetry_space_group_name_H-M   'P 4/n c c'
_symmetry_Int_Tables_number      130
_space_group_name_Hall           '-P 4a 2ac'
loop_
_symmetry_equiv_pos_site_id
_symmetry_equiv_pos_as_xyz
1 x,y,z
2 1/2-y,x,z
3 1/2-x,1/2-y,z
4 y,1/2-x,z
5 1/2+x,-y,1/2-z
6 1/2+y,1/2+x,1/2-z
7 -x,1/2+y,1/2-z
8 -y,-x,1/2-z
9 -x,-y,-z
10 1/2+y,-x,-z
11 1/2+x,1/2+y,-z
12 -y,1/2+x,-z
13 1/2-x,y,1/2+z
14 1/2-y,1/2-x,1/2+z
15 x,1/2-y,1/2+z
16 y,x,1/2+z
_cell_length_a                   21.0772(7)
_cell_length_b                   21.0772(7)
_cell_length_c                   9.9997(7)
_cell_angle_alpha                90
_cell_angle_beta                 90
_cell_angle_gamma                90
_cell_volume                     4442.35
loop_
_atom_site_label
_atom_site_type_symbol
_atom_site_fract_x
_atom_site_fract_y
_atom_site_fract_z
Sm1 Sm 0.60633(2) 0.10633(2) 0.7500
Na1 Na 0.58630(18) 0.08630(18) 0.2500
O1 O 0.5647(2) 0.0857(3) 0.5300(5)
O2 O 0.4891(3) 0.0745(3) 0.3797(6)
O3 O 0.4885(3) 0.0943(3) 0.7318(5)
O4 O 0.5926(5) 0.2076(4) 0.6561(7)
O5 O 0.5745(5) 0.3125(3) 0.6688(6)
O6 O 0.5798(4) 0.1894(3) 0.9067(6)
C1 C 0.5079(4) 0.0817(4) 0.4984(8)
C2 C 0.4575(4) 0.0818(7) 0.6085(9)
H1 H 0.4443 0.0373 0.6153
C3 C 0.4000(8) 0.1157(9) 0.5865(16)
H2 H 0.4070 0.1602 0.6014
H3 H 0.3680 0.1007 0.6471
H4 H 0.3860 0.1092 0.4961
C4 C 0.5785(6) 0.2586(5) 0.7187(7)
C5 C 0.5588(5) 0.2510(5) 0.8644(8)
H5 H 0.5792 0.2839 0.9188
C6 C 0.4858(7) 0.2561(7) 0.8780(14)
H6 H 0.4663 0.2199 0.8368
H7 H 0.4714 0.2941 0.8346
H8 H 0.4746 0.2575 0.9710
Na1I Na 0.58630(18) 0.41370(18) 0.7500
Na1_2 Na 0.58630(18) 0.08630(18) 1.2500
Na1K Na 0.91370(18) 0.08630(18) 0.7500
O1E O 0.5857(3) 0.0647(2) 0.9700(5)
O1E_2 O 0.5857(3) 0.0647(2) -0.0300(5)
O2E O 0.5745(3) -0.0109(3) 1.1203(6)
O2E_2 O 0.5745(3) -0.0109(3) 0.1203(6)
O3E O 0.5943(3) -0.0115(3) 0.7682(5)
O4E O 0.7076(4) 0.0926(5) 0.8439(7)
O5E O 0.8125(3) 0.0745(5) 0.8312(6)
O5K O 0.6875(3) 0.0745(5) 0.3312(6)
O5N O 0.5745(5) 0.1875(3) 0.1688(6)
O6E O 0.6894(3) 0.0798(4) 0.5933(6)
C1E C 0.5817(4) 0.0079(4) 1.0016(8)
C2E C 0.5818(7) -0.0425(4) 0.8915(9)
H1E H 0.5373 -0.0557 0.8847
C3E C 0.6157(9) -0.1000(8) 0.9135(16)
H2E H 0.6602 -0.0930 0.8986
H3E H 0.6007 -0.1320 0.8529
H4E H 0.6092 -0.1140 1.0039
C4E C 0.7586(5) 0.0785(6) 0.7813(7)
C5E C 0.7510(5) 0.0588(5) 0.6356(8)
H5E H 0.7839 0.0792 0.5812
C6E C 0.7561(7) -0.0142(7) 0.6220(14)
H6E H 0.7199 -0.0337 0.6632
H7E H 0.7941 -0.0286 0.6654
H8E H 0.7575 -0.0254 0.5290
loop_
_geom_bond_atom_site_label_1
_geom_bond_atom_site_label_2
_geom_bond_site_symmetry_1
_geom_bond_site_symmetry_2
Sm1 O1 1_555 1_555
Na1 O1 1_555 1_555
O1 C1 1_555 1_555
O2 Na1 1_555 1_555
O3 Sm1 1_555 1_555
O4 Sm1 1_555 1_555
O5 C4 1_555 1_555
O6 Sm1 1_555 1_555
C1 O2 1_555 1_555
C2 O3 1_555 1_555
H1 C2 1_555 1_555
C3 C2 1_555 1_555
H2 C3 1_555 1_555
H3 C3 1_555 1_555
H4 C3 1_555 1_555
C4 O4 1_555 1_555
C5 O6 1_555 1_555
H5 C5 1_555 1_555
C6 C5 1_555 1_555
H6 C6 1_555 1_555
H7 C6 1_555 1_555
H8 C6 1_555 1_555
Na1I O5 1_555 1_555
Na1_2 O1E 1_555 1_555
Na1K O5E 1_555 1_555
O1E Sm1 1_555 1_555
O1E_2 Na1 1_555 1_555
O2E Na1_2 1_555 1_555
O2E_2 Na1 1_555 1_555
O3E Sm1 1_555 1_555
O4E Sm1 1_555 1_555
O5E C4E 1_555 1_555
O5K Na1 1_555 1_555
O5N Na1 1_555 1_555
O6E Sm1 1_555 1_555
C1E O1E 1_555 1_555
C2E O3E 1_555 1_555
H1E C2E 1_555 1_555
C3E C2E 1_555 1_555
H2E C3E 1_555 1_555
H3E C3E 1_555 1_555
H4E C3E 1_555 1_555
C4E O4E 1_555 1_555
C5E O6E 1_555 1_555
H5E C5E 1_555 1_555
C6E C5E 1_555 1_555
H6E C6E 1_555 1_555
H7E C6E 1_555 1_555
H8E C6E 1_555 1_555
C1 C2 1_555 1_555
C4 C5 1_555 1_555
O2E C1E 1_555 1_555
C1E C2E 1_555 1_555
C4E C5E 1_555 1_555

#END
