
#######################################################################
#
#                 Cambridge Crystallographic Data Centre
#                                CCDC 
#
#######################################################################
#
# If this CIF has been generated from an entry in the Cambridge 
# Structural Database, then it will include bibliographic, chemical, 
# crystal, experimental, refinement or atomic coordinate data resulting 
# from the CCDC's data processing and validation procedures.
#
#######################################################################

data_PEHQEZ
_symmetry_cell_setting           monoclinic
_symmetry_space_group_name_H-M   'C c'
_symmetry_Int_Tables_number      9
_space_group_name_Hall           'C -2yc'
loop_
_symmetry_equiv_pos_site_id
_symmetry_equiv_pos_as_xyz
1 x,y,z
2 x,-y,1/2+z
3 1/2+x,1/2+y,z
4 1/2+x,1/2-y,1/2+z
_cell_length_a                   23.733(9)
_cell_length_b                   13.087(5)
_cell_length_c                   18.598(7)
_cell_angle_alpha                90
_cell_angle_beta                 102.383(6)
_cell_angle_gamma                90
_cell_volume                     5642.04
loop_
_atom_site_label
_atom_site_type_symbol
_atom_site_fract_x
_atom_site_fract_y
_atom_site_fract_z
Sn1 Sn 0.13397(6) 0.39996(10) -0.22543(7)
Sn2 Sn -0.13337(4) 0.30307(8) -0.19522(5)
Sn3 Sn 0.05485(5) 0.25913(9) 0.01023(6)
Sn4 Sn 0.16362(5) -0.01671(9) -0.20753(6)
O1 O 0.1350(5) 0.2351(10) -0.2208(7)
O2 O 0.0875(5) 0.0885(9) -0.2314(7)
O3 O -0.0472(5) 0.2691(10) -0.1235(5)
O4 O 0.0411(4) 0.2079(8) -0.1080(5)
O5 O -0.4052(5) 0.2059(9) -0.3754(6)
O6 O -0.3308(5) 0.2025(8) -0.2854(6)
O7 O -0.2603(4) 0.3872(7) -0.2169(5)
O8 O -0.2067(4) 0.3179(9) -0.2885(5)
O9 O 0.1119(7) 0.5688(11) -0.2343(8)
S1 S 0.0317(2) 0.3744(3) -0.2573(3)
S2 S -0.08725(17) 0.2234(3) -0.2843(2)
S3 S -0.35356(18) 0.3192(3) -0.4851(2)
S4 S -0.35025(18) 0.4784(3) -0.3393(2)
C1 C 0.0890(8) 0.1856(13) -0.2355(9)
C2 C 0.0307(6) 0.2352(10) -0.2622(7)
H1 H 0.0195 0.2188 -0.3147
C3 C -0.0168(6) 0.1907(11) -0.2280(7)
H2 H -0.0130 0.1161 -0.2277
C4 C -0.0083(6) 0.2271(11) -0.1477(7)
C5 C -0.3557(8) 0.2297(10) -0.3493(8)
C6 C -0.3187(6) 0.2901(11) -0.3912(7)
H3 H -0.2849 0.2480 -0.3931
C7 C -0.2956(7) 0.3933(12) -0.3510(8)
H4 H -0.2737 0.4280 -0.3828
C8 C -0.2507(6) 0.3622(10) -0.2788(8)
C9 C 0.1756(9) 0.4181(17) -0.1130(11)
H5 H 0.1778 0.4906 -0.1018
H6 H 0.1515 0.3870 -0.0830
C10 C 0.2359(10) 0.373(2) -0.0898(12)
H7 H 0.2605 0.4008 -0.1206
H8 H 0.2343 0.2997 -0.0958
C11 C 0.2611(13) 0.401(3) -0.0083(14)
H9 H 0.2692 0.4731 -0.0038
H10 H 0.2331 0.3845 0.0212
C12 C 0.3167(16) 0.340(3) 0.0201(19)
H11 H 0.3322 0.3572 0.0706
H12 H 0.3444 0.3562 -0.0089
H13 H 0.3084 0.2679 0.0163
C13 C 0.1750(13) 0.4198(18) -0.3141(15)
H14 H 0.1553 0.4739 -0.3453
H15 H 0.2142 0.4427 -0.2947
C14 C 0.1773(19) 0.327(2) -0.361(2)
H16 H 0.1384 0.3024 -0.3794
H17 H 0.1988 0.2739 -0.3308
C15 C 0.206(3) 0.349(3) -0.426(3)
H18 H 0.1767 0.3723 -0.4685
H19 H 0.2344 0.4026 -0.4135
C16 C 0.234(3) 0.251(5) -0.446(4)
H20 H 0.2564 0.2651 -0.4815
H21 H 0.2044 0.2018 -0.4652
H22 H 0.2584 0.2235 -0.4019
C17 C -0.1156(9) 0.4617(14) -0.1804(11)
H23 H -0.1402 0.4903 -0.1501
H24 H -0.0759 0.4705 -0.1544
C18 C -0.1249(15) 0.5191(18) -0.2514(14)
H25 H -0.1659 0.5204 -0.2732
H26 H -0.1058 0.4831 -0.2850
C19 C -0.1022(16) 0.6297(19) -0.242(2)
H27 H -0.0653 0.6313 -0.2078
H28 H -0.0965 0.6551 -0.2894
C20 C -0.145(2) 0.697(3) -0.215(3)
H29 H -0.1289 0.7649 -0.2057
H30 H -0.1522 0.6697 -0.1700
H31 H -0.1801 0.7008 -0.2513
C21 C -0.1728(9) 0.2102(15) -0.1296(12)
H32 H -0.1466 0.2022 -0.0822
H33 H -0.2068 0.2453 -0.1212
C22 C -0.1910(16) 0.103(3) -0.160(3)
H34 H -0.2173 0.0731 -0.1331
H35 H -0.2108 0.1088 -0.2116
C23 C -0.1376(19) 0.035(2) -0.154(3)
H36 H -0.1071 0.0736 -0.1692
H37 H -0.1239 0.0150 -0.1031
C24 C -0.152(3) -0.060(4) -0.202(4)
H38 H -0.1198 -0.1056 -0.1928
H39 H -0.1601 -0.0398 -0.2532
H40 H -0.1852 -0.0928 -0.1913
C25 C 0.0445(10) 0.4143(14) -0.0156(10)
H41 H 0.0821 0.4466 -0.0026
H42 H 0.0314 0.4203 -0.0686
C26 C 0.0030(10) 0.4752(16) 0.0206(14)
H43 H -0.0354 0.4466 0.0056
H44 H 0.0149 0.4685 0.0736
C27 C 0.0012(11) 0.5866(14) 0.0004(13)
H45 H -0.0076 0.5934 -0.0528
H46 H 0.0388 0.6169 0.0191
C28 C -0.0438(14) 0.644(2) 0.0316(18)
H47 H -0.0428 0.7149 0.0194
H48 H -0.0357 0.6359 0.0841
H49 H -0.0813 0.6166 0.0110
C29 C -0.0104(9) 0.1644(19) 0.0391(11)
H50 H -0.0453 0.1760 0.0019
H51 H 0.0011 0.0943 0.0332
C30 C -0.028(2) 0.170(4) 0.112(2)
H52 H -0.0383 0.2393 0.1209
H53 H 0.0053 0.1513 0.1506
C31 C -0.0782(17) 0.098(4) 0.116(3)
H54 H -0.0931 0.1132 0.1592
H55 H -0.1090 0.1079 0.0727
C32 C -0.057(4) -0.012(4) 0.119(6)
H56 H -0.0888 -0.0576 0.1202
H57 H -0.0274 -0.0221 0.1620
H58 H -0.0422 -0.0268 0.0758
C33 C 0.1147(11) -0.1245(18) -0.1630(13)
H59 H 0.1388 -0.1829 -0.1453
H60 H 0.0831 -0.1481 -0.2016
C34 C 0.0896(17) -0.081(2) -0.099(2)
H61 H 0.0712 -0.0157 -0.1131
H62 H 0.1207 -0.0696 -0.0561
C35 C 0.0463(15) -0.154(2) -0.079(2)
H63 H 0.0188 -0.1733 -0.1229
H64 H 0.0660 -0.2149 -0.0572
C36 C 0.0141(19) -0.107(3) -0.024(3)
H65 H -0.0159 -0.1529 -0.0172
H66 H 0.0404 -0.0957 0.0219
H67 H -0.0027 -0.0432 -0.0433
C37 C 0.2227(10) 0.0770(14) -0.1320(10)
H68 H 0.2022 0.1309 -0.1125
H69 H 0.2507 0.1080 -0.1563
C38 C 0.2528(13) 0.0061(18) -0.0700(12)
H70 H 0.2709 -0.0491 -0.0915
H71 H 0.2237 -0.0238 -0.0469
C39 C 0.2973(19) 0.056(3) -0.012(2)
H72 H 0.3275 0.0851 -0.0336
H73 H 0.2800 0.1112 0.0110
C40 C 0.3233(16) -0.027(3) 0.0471(14)
H74 H 0.3532 0.0029 0.0841
H75 H 0.2934 -0.0531 0.0696
H76 H 0.3391 -0.0822 0.0235
C41 C 0.0608(15) 0.606(3) -0.215(3)
H77 H 0.0585 0.6788 -0.2224
H78 H 0.0617 0.5908 -0.1645
H79 H 0.0278 0.5743 -0.2458
H80 H 0.139(2) 0.616(7) -0.219(8)
Sn3C Sn -0.44515(5) 0.24087(9) -0.48977(6)
Sn4B Sn -0.33638(5) 0.48329(9) -0.20753(6)
O5C O 0.0948(5) 0.2941(9) 0.1246(6)
O7B O 0.2397(4) -0.1128(7) -0.2169(5)
S3C S 0.14644(18) 0.1808(3) 0.0149(2)
S4B S 0.14975(18) -0.0216(3) -0.3393(2)
loop_
_geom_bond_atom_site_label_1
_geom_bond_atom_site_label_2
_geom_bond_site_symmetry_1
_geom_bond_site_symmetry_2
Sn1 O1 1_555 1_555
Sn2 O3 1_555 1_555
Sn3 O4 1_555 1_555
Sn4 O2 1_555 1_555
O1 C1 1_555 1_555
O2 C1 1_555 1_555
O3 C4 1_555 1_555
O4 C4 1_555 1_555
O5 C5 1_555 1_555
O6 C5 1_555 1_555
O7 C8 1_555 1_555
O8 Sn2 1_555 1_555
O9 Sn1 1_555 1_555
S1 Sn1 1_555 1_555
S2 Sn2 1_555 1_555
S3 C6 1_555 1_555
S4 C7 1_555 1_555
C1 C2 1_555 1_555
C2 S1 1_555 1_555
H1 C2 1_555 1_555
C3 S2 1_555 1_555
H2 C3 1_555 1_555
C4 C3 1_555 1_555
C5 C6 1_555 1_555
C6 H3 1_555 1_555
C7 C6 1_555 1_555
H4 C7 1_555 1_555
C8 O8 1_555 1_555
C9 Sn1 1_555 1_555
H5 C9 1_555 1_555
H6 C9 1_555 1_555
C10 C9 1_555 1_555
H7 C10 1_555 1_555
H8 C10 1_555 1_555
C11 C10 1_555 1_555
H9 C11 1_555 1_555
H10 C11 1_555 1_555
C12 C11 1_555 1_555
H11 C12 1_555 1_555
H12 C12 1_555 1_555
H13 C12 1_555 1_555
C13 Sn1 1_555 1_555
H14 C13 1_555 1_555
H15 C13 1_555 1_555
C14 C13 1_555 1_555
H16 C14 1_555 1_555
H17 C14 1_555 1_555
C15 C14 1_555 1_555
H18 C15 1_555 1_555
H19 C15 1_555 1_555
C16 C15 1_555 1_555
H20 C16 1_555 1_555
H21 C16 1_555 1_555
H22 C16 1_555 1_555
C17 Sn2 1_555 1_555
H23 C17 1_555 1_555
H24 C17 1_555 1_555
C18 C17 1_555 1_555
H25 C18 1_555 1_555
H26 C18 1_555 1_555
C19 C18 1_555 1_555
H27 C19 1_555 1_555
H28 C19 1_555 1_555
C20 C19 1_555 1_555
H29 C20 1_555 1_555
H30 C20 1_555 1_555
H31 C20 1_555 1_555
C21 Sn2 1_555 1_555
H32 C21 1_555 1_555
H33 C21 1_555 1_555
C22 C21 1_555 1_555
H34 C22 1_555 1_555
H35 C22 1_555 1_555
C23 C22 1_555 1_555
H36 C23 1_555 1_555
H37 C23 1_555 1_555
C24 C23 1_555 1_555
H38 C24 1_555 1_555
H39 C24 1_555 1_555
H40 C24 1_555 1_555
C25 Sn3 1_555 1_555
H41 C25 1_555 1_555
H42 C25 1_555 1_555
C26 C25 1_555 1_555
H43 C26 1_555 1_555
H44 C26 1_555 1_555
C27 C26 1_555 1_555
H45 C27 1_555 1_555
H46 C27 1_555 1_555
C28 C27 1_555 1_555
H47 C28 1_555 1_555
H48 C28 1_555 1_555
H49 C28 1_555 1_555
C29 Sn3 1_555 1_555
H50 C29 1_555 1_555
H51 C29 1_555 1_555
C30 C29 1_555 1_555
H52 C30 1_555 1_555
H53 C30 1_555 1_555
C31 C30 1_555 1_555
H54 C31 1_555 1_555
H55 C31 1_555 1_555
C32 C31 1_555 1_555
H56 C32 1_555 1_555
H57 C32 1_555 1_555
H58 C32 1_555 1_555
C33 Sn4 1_555 1_555
H59 C33 1_555 1_555
H60 C33 1_555 1_555
C34 C33 1_555 1_555
H61 C34 1_555 1_555
H62 C34 1_555 1_555
C35 C34 1_555 1_555
H63 C35 1_555 1_555
H64 C35 1_555 1_555
C36 C35 1_555 1_555
H65 C36 1_555 1_555
H66 C36 1_555 1_555
H67 C36 1_555 1_555
C37 Sn4 1_555 1_555
H68 C37 1_555 1_555
H69 C37 1_555 1_555
C38 C37 1_555 1_555
H70 C38 1_555 1_555
H71 C38 1_555 1_555
C39 C38 1_555 1_555
H72 C39 1_555 1_555
H73 C39 1_555 1_555
C40 C39 1_555 1_555
H74 C40 1_555 1_555
H75 C40 1_555 1_555
H76 C40 1_555 1_555
C41 O9 1_555 1_555
H77 C41 1_555 1_555
H78 C41 1_555 1_555
H79 C41 1_555 1_555
H80 O9 1_555 1_555
Sn3C O5 1_555 1_555
Sn4B O7 1_555 1_555
O5C Sn3 1_555 1_555
O7B Sn4 1_555 1_555
S3C Sn3 1_555 1_555
S4B Sn4 1_555 1_555
S3 Sn3C 1_555 1_555
S4 Sn4B 1_555 1_555
C2 C3 1_555 1_555
C7 C8 1_555 1_555

#END
