
#######################################################################
#
#                 Cambridge Crystallographic Data Centre
#                                CCDC 
#
#######################################################################
#
# If this CIF has been generated from an entry in the Cambridge 
# Structural Database, then it will include bibliographic, chemical, 
# crystal, experimental, refinement or atomic coordinate data resulting 
# from the CCDC's data processing and validation procedures.
#
#######################################################################

data_PEHRAW
_symmetry_cell_setting           orthorhombic
_symmetry_space_group_name_H-M   'P 21 21 21'
_symmetry_Int_Tables_number      19
_space_group_name_Hall           'P 2ac 2ab'
loop_
_symmetry_equiv_pos_site_id
_symmetry_equiv_pos_as_xyz
1 x,y,z
2 1/2-x,-y,1/2+z
3 1/2+x,1/2-y,-z
4 -x,1/2+y,1/2-z
_cell_length_a                   6.188(3)
_cell_length_b                   11.281(7)
_cell_length_c                   20.923(7)
_cell_angle_alpha                90
_cell_angle_beta                 90
_cell_angle_gamma                90
_cell_volume                     1460.57
loop_
_atom_site_label
_atom_site_type_symbol
_atom_site_fract_x
_atom_site_fract_y
_atom_site_fract_z
V1 V -0.5747(4) -0.0072(2) -0.29710(10)
P1 P -0.3948(6) 0.2651(3) -0.31158(17)
P2 P -0.0855(6) 0.0780(3) -0.26168(19)
O1 O -0.5592(14) 0.1676(7) -0.3044(4)
O2 O -0.3939(17) 0.3520(7) -0.2584(4)
O3 O -0.2784(14) -0.0021(9) -0.2635(5)
O4 O 0.1227(13) 0.0195(9) -0.2775(5)
O5 O -0.557(2) -0.0515(8) -0.3678(4)
C1 C -0.122(2) 0.1982(10) -0.3169(6)
H1 H -0.0983 0.1695 -0.36
H2 H -0.0142 0.2588 -0.3082
C2 C -0.6083(16) 0.3056(8) -0.4258(5)
H3 H -0.7116 0.2524 -0.411
C3 C -0.6305(15) 0.3563(9) -0.4861(4)
H4 H -0.7486 0.337 -0.5115
C4 C -0.4761(18) 0.4357(9) -0.5082(4)
H5 H -0.4909 0.4696 -0.5485
C5 C -0.2996(16) 0.4646(8) -0.4702(5)
H6 H -0.1963 0.5177 -0.4851
C6 C -0.2774(15) 0.4139(9) -0.4100(4)
H7 H -0.1593 0.4332 -0.3846
C7 C -0.4318(18) 0.3345(8) -0.3878(3)
C8 C 0.1011(17) 0.2175(9) -0.1683(4)
H8 H 0.2053 0.2365 -0.1986
C9 C 0.1128(17) 0.2658(8) -0.1073(5)
H9 H 0.2249 0.3171 -0.0968
C10 C -0.043(2) 0.2373(10) -0.0620(4)
H10 H -0.0352 0.2696 -0.0211
C11 C -0.2105(18) 0.1605(10) -0.0777(5)
H11 H -0.3148 0.1415 -0.0473
C12 C -0.2222(16) 0.1123(8) -0.1387(5)
H12 H -0.3343 0.0609 -0.1492
C13 C -0.0664(19) 0.1407(8) -0.1840(4)
V1C V -0.4253(4) 0.4928(2) -0.20290(10)
V1_2 V 0.4253(4) -0.0072(2) -0.29710(10)
O2C O -0.6061(17) -0.1480(7) -0.2416(4)
O4_2 O -0.8773(13) 0.0195(9) -0.2775(5)
loop_
_geom_bond_atom_site_label_1
_geom_bond_atom_site_label_2
_geom_bond_site_symmetry_1
_geom_bond_site_symmetry_2
V1 O1 1_555 1_555
P1 O1 1_555 1_555
P2 O3 1_555 1_555
O2 P1 1_555 1_555
O3 V1 1_555 1_555
O4 P2 1_555 1_555
O5 V1 1_555 1_555
C1 P1 1_555 1_555
H1 C1 1_555 1_555
H2 C1 1_555 1_555
C2 H3 1_555 1_555
C3 C2 1_555 1_555
H4 C3 1_555 1_555
C4 C3 1_555 1_555
H5 C4 1_555 1_555
C5 C4 1_555 1_555
H6 C5 1_555 1_555
C6 C5 1_555 1_555
H7 C6 1_555 1_555
C7 P1 1_555 1_555
C8 H8 1_555 1_555
C9 C8 1_555 1_555
H9 C9 1_555 1_555
C10 C9 1_555 1_555
H10 C10 1_555 1_555
C11 C10 1_555 1_555
H11 C11 1_555 1_555
C12 C11 1_555 1_555
H12 C12 1_555 1_555
C13 P2 1_555 1_555
V1C O2 1_555 1_555
V1_2 O4 1_555 1_555
O2C V1 1_555 1_555
O4_2 V1 1_555 1_555
P2 C1 1_555 1_555
C2 C7 1_555 1_555
C6 C7 1_555 1_555
C8 C13 1_555 1_555
C12 C13 1_555 1_555

#END
