
#######################################################################
#
#                 Cambridge Crystallographic Data Centre
#                                CCDC 
#
#######################################################################
#
# If this CIF has been generated from an entry in the Cambridge 
# Structural Database, then it will include bibliographic, chemical, 
# crystal, experimental, refinement or atomic coordinate data resulting 
# from the CCDC's data processing and validation procedures.
#
#######################################################################

data_PEHTUT
_symmetry_cell_setting           monoclinic
_symmetry_space_group_name_H-M   'P 21/c'
_symmetry_Int_Tables_number      14
_space_group_name_Hall           '-P 2ybc'
loop_
_symmetry_equiv_pos_site_id
_symmetry_equiv_pos_as_xyz
1 x,y,z
2 -x,1/2+y,1/2-z
3 -x,-y,-z
4 x,1/2-y,1/2+z
_cell_length_a                   13.1172(10)
_cell_length_b                   14.4753(7)
_cell_length_c                   12.7126(9)
_cell_angle_alpha                90
_cell_angle_beta                 105.262(7)
_cell_angle_gamma                90
_cell_volume                     2328.68
loop_
_atom_site_label
_atom_site_type_symbol
_atom_site_fract_x
_atom_site_fract_y
_atom_site_fract_z
Cu1 Cu 0.14282(6) -0.45209(5) 0.19965(6)
O1 O 0.1006(6) -0.5871(4) -0.0841(4)
O2 O 0.1310(5) -0.5907(4) 0.4693(4)
O3 O 0.1362(4) -0.4748(3) 0.3550(4)
O4 O 0.1276(4) -0.4723(3) 0.0374(4)
N1 N 0.6756(5) 0.0373(5) 0.2607(7)
N2 N 0.1439(4) -0.3167(4) 0.2030(4)
N3 N 0.1181(4) -0.5820(3) 0.1926(4)
C1 C 0.4597(9) 0.0000(7) 0.2045(10)
C2 C 0.2768(7) 0.0086(6) 0.2397(11)
H1 H 0.2780 0.0755 0.2412
H2 H 0.3099 -0.0127 0.3131
C3 C 0.3372(10) -0.0201(9) 0.1739(11)
H3 H 0.3071 0.0067 0.1025
H4 H 0.3284 -0.0865 0.1658
C4 C 0.5152(9) -0.0178(12) 0.1379(15)
H5 H 0.4837 -0.0407 0.0686
C5 C 0.6244(8) 0.0579(8) 0.3322(11)
H6 H 0.6589 0.0858 0.3979
C6 C 0.6204(9) -0.0027(10) 0.1702(11)
H7 H 0.6588 -0.0231 0.1228
C7 C 0.5078(12) 0.0357(11) 0.3069(14)
H8 H 0.4696 0.0457 0.3581
C8 C 0.1100(7) -0.5576(4) 0.0059(6)
C9 C 0.0979(6) -0.7673(4) 0.1867(6)
H9 H 0.0904 -0.8312 0.1847
C10 C 0.1595(5) -0.0231(5) 0.2092(6)
H10 H 0.1250 0.0008 0.2623
H11 H 0.1232 0.0016 0.1383
C11 C 0.1338(6) -0.1736(5) 0.1108(5)
H12 H 0.1229 -0.1423 0.0449
C12 C 0.1082(6) -0.7206(4) 0.2840(5)
H13 H 0.1086 -0.7523 0.3477
C13 C 0.0986(6) -0.7202(4) 0.0931(5)
H14 H 0.0926 -0.7514 0.0278
C14 C 0.1084(5) -0.6248(4) 0.0985(5)
C15 C 0.1661(6) -0.1753(5) 0.3016(5)
H15 H 0.1781 -0.1453 0.3684
C16 C 0.1523(5) -0.1244(4) 0.2066(5)
C17 C 0.1179(5) -0.6254(4) 0.2839(5)
C18 C 0.1297(6) -0.5603(4) 0.3801(5)
C19 C 0.1619(6) -0.2707(4) 0.2970(5)
H16 H 0.1719 -0.3038 0.3616
C20 C 0.1314(6) -0.2672(5) 0.1114(5)
H17 H 0.1204 -0.2984 0.0454
Cu1A Cu 0.85718(6) 0.04791(5) 0.30035(6)
N1A N 0.3244(5) -0.4627(5) 0.2393(7)
O5 O 0.5731(14) 0.2457(14) -0.0138(17)
N4 N 0.4457(10) 0.2619(7) 0.0686(11)
C21 C 0.370(2) 0.2602(15) -0.0236(18)
H18 H 0.4005 0.2538 -0.0839
H19 H 0.3302 0.3167 -0.0310
H20 H 0.3237 0.2089 -0.0227
C22 C 0.5482(15) 0.2511(14) 0.075(2)
C23 C 0.413(2) 0.2653(13) 0.171(2)
H21 H 0.4741 0.2607 0.2318
H22 H 0.3660 0.2148 0.1726
H23 H 0.3773 0.3226 0.1747
loop_
_geom_bond_atom_site_label_1
_geom_bond_atom_site_label_2
_geom_bond_site_symmetry_1
_geom_bond_site_symmetry_2
Cu1 O3 1_555 1_555
O1 C8 1_555 1_555
O2 C18 1_555 1_555
O3 C18 1_555 1_555
O4 Cu1 1_555 1_555
O5 C22 1_555 1_555
N1 C5 1_555 1_555
N2 Cu1 1_555 1_555
N3 Cu1 1_555 1_555
N4 C21 1_555 1_555
C1 C3 1_555 1_555
C2 H1 1_555 1_555
H2 C2 1_555 1_555
C3 C2 1_555 1_555
H3 C3 1_555 1_555
H4 C3 1_555 1_555
C4 C1 1_555 1_555
H5 C4 1_555 1_555
C5 H6 1_555 1_555
C6 N1 1_555 1_555
H7 C6 1_555 1_555
C7 C1 1_555 1_555
H8 C7 1_555 1_555
C8 O4 1_555 1_555
C9 H9 1_555 1_555
C10 C2 1_555 1_555
H10 C10 1_555 1_555
H11 C10 1_555 1_555
C11 H12 1_555 1_555
C12 C9 1_555 1_555
H13 C12 1_555 1_555
C13 C9 1_555 1_555
H14 C13 1_555 1_555
C14 N3 1_555 1_555
C15 H15 1_555 1_555
C16 C10 1_555 1_555
C17 N3 1_555 1_555
C18 C17 1_555 1_555
C19 N2 1_555 1_555
H16 C19 1_555 1_555
C20 N2 1_555 1_555
H17 C20 1_555 1_555
C21 H18 1_555 1_555
H19 C21 1_555 1_555
H20 C21 1_555 1_555
C22 N4 1_555 1_555
C23 N4 1_555 1_555
H21 C23 1_555 1_555
H22 C23 1_555 1_555
H23 C23 1_555 1_555
Cu1A N1 1_555 1_555
N1A Cu1 1_555 1_555
C4 C6 1_555 1_555
C5 C7 1_555 1_555
C8 C14 1_555 1_555
C11 C16 1_555 1_555
C11 C20 1_555 1_555
C12 C17 1_555 1_555
C13 C14 1_555 1_555
C15 C16 1_555 1_555
C15 C19 1_555 1_555

#END
