
#######################################################################
#
#                 Cambridge Crystallographic Data Centre
#                                CCDC 
#
#######################################################################
#
# If this CIF has been generated from an entry in the Cambridge 
# Structural Database, then it will include bibliographic, chemical, 
# crystal, experimental, refinement or atomic coordinate data resulting 
# from the CCDC's data processing and validation procedures.
#
#######################################################################

data_PEHTON
_symmetry_cell_setting           orthorhombic
_symmetry_space_group_name_H-M   'P n m a'
_symmetry_Int_Tables_number      62
_space_group_name_Hall           '-P 2ac 2n'
loop_
_symmetry_equiv_pos_site_id
_symmetry_equiv_pos_as_xyz
1 x,y,z
2 1/2-x,-y,1/2+z
3 1/2+x,1/2-y,1/2-z
4 -x,1/2+y,-z
5 -x,-y,-z
6 1/2+x,y,1/2-z
7 1/2-x,1/2+y,1/2+z
8 x,1/2-y,z
_cell_length_a                   9.2091(7)
_cell_length_b                   22.7532(16)
_cell_length_c                   23.0902(12)
_cell_angle_alpha                90
_cell_angle_beta                 90
_cell_angle_gamma                90
_cell_volume                     4838.24
loop_
_atom_site_label
_atom_site_type_symbol
_atom_site_fract_x
_atom_site_fract_y
_atom_site_fract_z
Cu1 Cu 0.38884(11) 0.03282(5) 0.53264(4)
Cu2 Cu 0.26482(18) 0.2500 0.52734(5)
O1 O 0.3482(15) 0.2500 0.6991(3)
O2 O 0.3832(11) 0.2500 0.6038(3)
O3 O 0.0842(11) 0.2500 0.4738(3)
O4 O -0.1568(15) 0.2500 0.4760(5)
O5 O 0.4626(7) 0.0972(3) 0.4627(2)
O6 O 0.3073(7) 0.1513(2) 0.5119(2)
N1 N 0.1075(15) 0.2500 0.5833(4)
N2 N 0.4172(10) 0.2500 0.4672(3)
N3 N 0.4913(7) 0.0518(3) 0.6027(2)
N4 N 0.2599(6) 0.0057(3) 0.9878(2)
C1 C 0.1394(19) 0.2500 0.6402(6)
C2 C 0.024(2) 0.2500 0.6812(6)
H1 H 0.0419 0.2500 0.7209
C3 C -0.112(2) 0.2500 0.6597(7)
H2 H -0.1887 0.2500 0.6860
C4 C -0.145(2) 0.2500 0.6040(7)
H3 H -0.2411 0.2500 0.5914
C5 C -0.027(2) 0.2500 0.5641(7)
C6 C 0.294(2) 0.2500 0.6495(5)
C7 C -0.042(2) 0.2500 0.4997(6)
C8 C 0.4640(8) 0.1978(3) 0.4460(3)
C9 C 0.5577(10) 0.1961(4) 0.4012(4)
H4 H 0.5904 0.1606 0.3861
C10 C 0.6039(15) 0.2500 0.3781(6)
H5 H 0.6671 0.2500 0.3467
C11 C 0.4055(10) 0.1442(3) 0.4766(4)
C12 C 0.5506(10) 0.0101(4) 0.6356(3)
H6 H 0.5509 -0.0284 0.6222
C13 C 0.6118(9) 0.0222(4) 0.6889(3)
H7 H 0.6523 -0.0084 0.7102
C14 C 0.6143(8) 0.0766(4) 0.7108(3)
C15 C 0.5572(8) 0.1198(4) 0.6759(3)
H8 H 0.5596 0.1587 0.6882
C16 C 0.4965(8) 0.1061(4) 0.6232(3)
H9 H 0.4574 0.1364 0.6009
C17 C 0.6638(9) 0.0887(4) 0.7713(3)
H10 H 0.6896 0.1298 0.7750
H11 H 0.7494 0.0654 0.7797
C18 C 0.5441(9) 0.0737(4) 0.8142(3)
H12 H 0.4615 0.0991 0.8068
H13 H 0.5131 0.0335 0.8075
C19 C 0.5870(9) 0.0799(5) 0.8768(3)
H14 H 0.6015 0.1212 0.8857
H15 H 0.6781 0.0596 0.8833
C20 C 0.2783(9) 0.0630(4) 0.9835(3)
H16 H 0.2179 0.0873 1.0051
C21 C 0.3808(9) 0.0886(4) 0.9491(3)
H17 H 0.3887 0.1293 0.9479
C22 C 0.4717(9) 0.0548(4) 0.9165(3)
C23 C 0.4527(9) -0.0057(4) 0.9208(3)
H18 H 0.5116 -0.0308 0.8994
C24 C 0.3493(9) -0.0282(4) 0.9559(3)
H19 H 0.3395 -0.0689 0.9582
Cu1G Cu 0.38884(11) 0.46718(5) 0.53264(4)
Cu1A Cu 0.11116(11) -0.03282(5) 1.03264(4)
Cu1F Cu 0.11116(11) 0.53282(5) 1.03264(4)
O5G O 0.4626(7) 0.4028(3) 0.4627(2)
O6G O 0.3073(7) 0.3487(2) 0.5119(2)
N3G N 0.4913(7) 0.4482(3) 0.6027(2)
N4G N 0.2599(6) 0.4943(3) 0.9878(2)
N4A N 0.2401(6) -0.0057(3) 0.4878(2)
N4F N 0.2401(6) 0.5057(3) 0.4878(2)
C8G C 0.4640(8) 0.3022(3) 0.4460(3)
C9G C 0.5577(10) 0.3039(4) 0.4012(4)
H4G H 0.5904 0.3394 0.3861
C11G C 0.4055(10) 0.3558(3) 0.4766(4)
C12G C 0.5506(10) 0.4899(4) 0.6356(3)
H6G H 0.5509 0.5284 0.6222
C13G C 0.6118(9) 0.4778(4) 0.6889(3)
H7G H 0.6523 0.5084 0.7102
C14G C 0.6143(8) 0.4234(4) 0.7108(3)
C15G C 0.5572(8) 0.3802(4) 0.6759(3)
H8G H 0.5596 0.3413 0.6882
C16G C 0.4965(8) 0.3939(4) 0.6232(3)
H9G H 0.4574 0.3636 0.6009
C17G C 0.6638(9) 0.4113(4) 0.7713(3)
H10G H 0.6896 0.3702 0.7750
H11G H 0.7494 0.4346 0.7797
C18G C 0.5441(9) 0.4263(4) 0.8142(3)
H12G H 0.4615 0.4009 0.8068
H13G H 0.5131 0.4665 0.8075
C19G C 0.5870(9) 0.4201(5) 0.8768(3)
H14G H 0.6015 0.3788 0.8857
H15G H 0.6781 0.4404 0.8833
C20G C 0.2783(9) 0.4370(4) 0.9835(3)
H16G H 0.2179 0.4127 1.0051
C21G C 0.3808(9) 0.4114(4) 0.9491(3)
H17G H 0.3887 0.3707 0.9479
C22G C 0.4717(9) 0.4452(4) 0.9165(3)
C23G C 0.4527(9) 0.5057(4) 0.9208(3)
H18G H 0.5116 0.5308 0.8994
C24G C 0.3493(9) 0.5282(4) 0.9559(3)
H19G H 0.3395 0.5689 0.9582
O7 O 0.332(2) 0.1288(11) 0.1639(11)
N5 N 0.5555(17) 0.1445(6) 0.1801(6)
C25 C 0.438(2) 0.1541(10) 0.1383(9)
H20 H 0.4396 0.1733 0.1028
C26 C 0.581(2) 0.1113(9) 0.2337(8)
H21 H 0.6778 0.1190 0.2475
H22 H 0.5708 0.0700 0.2261
H23 H 0.5121 0.1231 0.2626
C27 C 0.688(2) 0.1660(10) 0.1531(9)
H24 H 0.7684 0.1604 0.1791
H25 H 0.6781 0.2071 0.1445
H26 H 0.7057 0.1447 0.1179
loop_
_geom_bond_atom_site_label_1
_geom_bond_atom_site_label_2
_geom_bond_site_symmetry_1
_geom_bond_site_symmetry_2
Cu1 O5 1_555 1_555
Cu2 O2 1_555 1_555
O1 C6 1_555 1_555
O2 C6 1_555 1_555
O3 Cu2 1_555 1_555
O4 C7 1_555 1_555
O5 C11 1_555 1_555
O6 Cu2 1_555 1_555
O7 C25 1_555 1_555
N1 Cu2 1_555 1_555
N2 Cu2 1_555 1_555
N3 Cu1 1_555 1_555
N4 C20 1_555 1_555
N5 C25 1_555 1_555
C1 N1 1_555 1_555
C2 C1 1_555 1_555
H1 C2 1_555 1_555
C3 C2 1_555 1_555
H2 C3 1_555 1_555
C4 C3 1_555 1_555
H3 C4 1_555 1_555
C5 N1 1_555 1_555
C6 C1 1_555 1_555
C7 O3 1_555 1_555
C8 N2 1_555 1_555
C9 C8 1_555 1_555
H4 C9 1_555 1_555
C10 C9 1_555 1_555
H5 C10 1_555 1_555
C11 O6 1_555 1_555
C12 N3 1_555 1_555
H6 C12 1_555 1_555
C13 C12 1_555 1_555
H7 C13 1_555 1_555
C14 C13 1_555 1_555
C15 C14 1_555 1_555
H8 C15 1_555 1_555
C16 N3 1_555 1_555
H9 C16 1_555 1_555
C17 C14 1_555 1_555
H10 C17 1_555 1_555
H11 C17 1_555 1_555
C18 C17 1_555 1_555
H12 C18 1_555 1_555
H13 C18 1_555 1_555
C19 C18 1_555 1_555
H14 C19 1_555 1_555
H15 C19 1_555 1_555
C20 H16 1_555 1_555
C21 C20 1_555 1_555
H17 C21 1_555 1_555
C22 C19 1_555 1_555
C23 C22 1_555 1_555
H18 C23 1_555 1_555
C24 N4 1_555 1_555
H19 C24 1_555 1_555
C25 H20 1_555 1_555
C26 N5 1_555 1_555
H21 C26 1_555 1_555
H22 C26 1_555 1_555
H23 C26 1_555 1_555
C27 N5 1_555 1_555
H24 C27 1_555 1_555
H25 C27 1_555 1_555
H26 C27 1_555 1_555
Cu1G O5G 1_555 1_555
Cu1A N4 1_555 1_555
Cu1F N4G 1_555 1_555
O5G C11G 1_555 1_555
O6G Cu2 1_555 1_555
N3G Cu1G 1_555 1_555
N4G C20G 1_555 1_555
N4A Cu1 1_555 1_555
N4F Cu1G 1_555 1_555
C8G N2 1_555 1_555
C9G C10 1_555 1_555
H4G C9G 1_555 1_555
C11G O6G 1_555 1_555
C12G N3G 1_555 1_555
H6G C12G 1_555 1_555
C13G C12G 1_555 1_555
H7G C13G 1_555 1_555
C14G C13G 1_555 1_555
C15G C14G 1_555 1_555
H8G C15G 1_555 1_555
C16G N3G 1_555 1_555
H9G C16G 1_555 1_555
C17G C14G 1_555 1_555
H10G C17G 1_555 1_555
H11G C17G 1_555 1_555
C18G C17G 1_555 1_555
H12G C18G 1_555 1_555
H13G C18G 1_555 1_555
C19G C18G 1_555 1_555
H14G C19G 1_555 1_555
H15G C19G 1_555 1_555
C20G H16G 1_555 1_555
C21G C20G 1_555 1_555
H17G C21G 1_555 1_555
C22G C19G 1_555 1_555
C23G C22G 1_555 1_555
H18G C23G 1_555 1_555
C24G N4G 1_555 1_555
H19G C24G 1_555 1_555
C4 C5 1_555 1_555
C5 C7 1_555 1_555
C8 C11 1_555 1_555
C15 C16 1_555 1_555
C21 C22 1_555 1_555
C23 C24 1_555 1_555
C8G C9G 1_555 1_555
C8G C11G 1_555 1_555
C15G C16G 1_555 1_555
C21G C22G 1_555 1_555
C23G C24G 1_555 1_555

#END
