
#######################################################################
#
#                 Cambridge Crystallographic Data Centre
#                                CCDC 
#
#######################################################################
#
# If this CIF has been generated from an entry in the Cambridge 
# Structural Database, then it will include bibliographic, chemical, 
# crystal, experimental, refinement or atomic coordinate data resulting 
# from the CCDC's data processing and validation procedures.
#
#######################################################################

data_PEHWIK
_symmetry_cell_setting           monoclinic
_symmetry_space_group_name_H-M   'P 21/c'
_symmetry_Int_Tables_number      14
_space_group_name_Hall           '-P 2ybc'
loop_
_symmetry_equiv_pos_site_id
_symmetry_equiv_pos_as_xyz
1 x,y,z
2 -x,1/2+y,1/2-z
3 -x,-y,-z
4 x,1/2-y,1/2+z
_cell_length_a                   7.3567(2)
_cell_length_b                   7.0497(2)
_cell_length_c                   23.4803(5)
_cell_angle_alpha                90
_cell_angle_beta                 96.025(2)
_cell_angle_gamma                90
_cell_volume                     1211.02
loop_
_atom_site_label
_atom_site_type_symbol
_atom_site_fract_x
_atom_site_fract_y
_atom_site_fract_z
Dy1 Dy -0.22559(9) 0.67692(9) -0.00723(3)
C1 C 0.0747(19) 0.730(2) 0.0787(6)
C2 C 0.210(2) 0.733(2) 0.1320(6)
H1 H 0.2079 0.6131 0.1521
H2 H 0.3327 0.7547 0.1219
C3 C 0.228(2) 0.885(2) 0.2224(7)
C4 C 0.371(2) 0.776(2) 0.2458(7)
H3 H 0.4299 0.6922 0.2231
C5 C 0.427(2) 0.792(2) 0.3047(6)
H4 H 0.5262 0.7207 0.3206
C6 C 0.337(2) 0.914(2) 0.3403(6)
C7 C 0.196(2) 1.021(2) 0.3143(7)
H5 H 0.1329 1.1017 0.3367
C8 C 0.143(2) 1.012(2) 0.2555(7)
H6 H 0.0518 1.0917 0.2388
C9 C 0.3940(19) 0.922(2) 0.4028(6)
C10 C -0.4495(18) 1.0584(19) -0.0211(5)
O1 O -0.0571(12) 0.8454(14) 0.0711(4)
O2 O 0.0955(13) 0.5994(14) 0.0429(4)
O3 O 0.1563(17) 0.8817(18) 0.1665(5)
O4 O 0.5565(13) 0.8827(14) 0.4193(4)
O5 O 0.2741(7) 0.9609(8) 0.4356(2)
O6 O -0.0259(7) 0.7770(8) -0.0738(2)
O7 O -0.3047(7) 0.9886(8) -0.0360(2)
O8 O -0.5220(12) 1.2155(13) -0.0369(4)
Dy1B Dy 0.22559(9) 0.32308(9) 0.00723(3)
Dy1C Dy 0.77441(9) 0.82308(9) 0.49277(3)
Dy1A Dy 0.22559(9) 1.17692(9) 0.50723(3)
Dy1B_2 Dy -0.77441(9) 1.32308(9) 0.00723(3)
Dy1A_2 Dy -0.77441(9) 0.17692(9) -0.49277(3)
Dy1C_2 Dy -0.22559(9) -0.17692(9) -0.50723(3)
C1B C -0.0747(19) 0.270(2) -0.0787(6)
C2B C -0.210(2) 0.267(2) -0.1320(6)
H1B H -0.2079 0.3869 -0.1521
H2B H -0.3327 0.2453 -0.1219
C3B C -0.228(2) 0.115(2) -0.2224(7)
C4B C -0.371(2) 0.224(2) -0.2458(7)
H3B H -0.4299 0.3078 -0.2231
C5B C -0.427(2) 0.208(2) -0.3047(6)
H4B H -0.5262 0.2793 -0.3206
C6B C -0.337(2) 0.086(2) -0.3403(6)
C7B C -0.196(2) -0.021(2) -0.3143(7)
H5B H -0.1329 -0.1017 -0.3367
C8B C -0.143(2) -0.012(2) -0.2555(7)
H6B H -0.0518 -0.0917 -0.2388
C9B C -0.3940(19) 0.078(2) -0.4028(6)
C10B C -0.5505(18) 0.9416(19) 0.0211(5)
O1B O 0.0571(12) 0.1546(14) -0.0711(4)
O2B O -0.0955(13) 0.4006(14) -0.0429(4)
O3B O -0.1563(17) 0.1183(18) -0.1665(5)
O4B O -0.5565(13) 0.1173(14) -0.4193(4)
O4C O -0.4435(13) 0.6173(14) -0.0807(4)
O4A O 0.4435(13) 0.3827(14) 0.0807(4)
O5B O -0.2741(7) 0.0391(8) -0.4356(2)
O5A O -0.2741(7) 0.4609(8) 0.0644(2)
O5C O 0.2741(7) 0.5391(8) -0.0644(2)
O6B O 0.0259(7) 0.2230(8) 0.0738(2)
O7B O -0.6953(7) 1.0114(8) 0.0360(2)
O7B_2 O 0.3047(7) 0.0114(8) 0.0360(2)
O8B O -0.4780(12) 0.7845(13) 0.0369(4)
O8_2 O 0.4780(12) 0.2155(13) -0.0369(4)
loop_
_geom_bond_atom_site_label_1
_geom_bond_atom_site_label_2
_geom_bond_site_symmetry_1
_geom_bond_site_symmetry_2
Dy1 O1 1_555 1_555
C1 C2 1_555 1_555
C2 H1 1_555 1_555
H2 C2 1_555 1_555
C3 C4 1_555 1_555
C4 H3 1_555 1_555
C5 C4 1_555 1_555
H4 C5 1_555 1_555
C6 C5 1_555 1_555
C7 C6 1_555 1_555
H5 C7 1_555 1_555
C8 C3 1_555 1_555
H6 C8 1_555 1_555
C9 C6 1_555 1_555
C10 O7 1_555 1_555
O1 C1 1_555 1_555
O2 Dy1 1_555 1_555
O3 C2 1_555 1_555
O4 C9 1_555 1_555
O5 C9 1_555 1_555
O6 Dy1 1_555 1_555
O7 Dy1 1_555 1_555
O8 C10 1_555 1_555
Dy1B O2 1_555 1_555
Dy1C O4 1_555 1_555
Dy1A O5 1_555 1_555
Dy1B_2 O8 1_555 1_555
Dy1A_2 O4B 1_555 1_555
Dy1C_2 O5B 1_555 1_555
C1B C2B 1_555 1_555
C2B H1B 1_555 1_555
H2B C2B 1_555 1_555
C3B C4B 1_555 1_555
C4B H3B 1_555 1_555
C5B C4B 1_555 1_555
H4B C5B 1_555 1_555
C6B C5B 1_555 1_555
C7B C6B 1_555 1_555
H5B C7B 1_555 1_555
C8B C3B 1_555 1_555
H6B C8B 1_555 1_555
C9B C6B 1_555 1_555
C10B C10 1_555 1_555
O1B Dy1B 1_555 1_555
O2B Dy1 1_555 1_555
O3B C2B 1_555 1_555
O4B C9B 1_555 1_555
O4C Dy1 1_555 1_555
O4A Dy1B 1_555 1_555
O5B C9B 1_555 1_555
O5A Dy1 1_555 1_555
O5C Dy1B 1_555 1_555
O6B Dy1B 1_555 1_555
O7B Dy1B_2 1_555 1_555
O7B_2 Dy1B 1_555 1_555
O8B Dy1 1_555 1_555
O8_2 Dy1B 1_555 1_555
C1 O2 1_555 1_555
C3 O3 1_555 1_555
C7 C8 1_555 1_555
Dy1B O2B 1_555 1_555
C1B O1B 1_555 1_555
C1B O2B 1_555 1_555
C3B O3B 1_555 1_555
C7B C8B 1_555 1_555
C10B O7B 1_555 1_555
C10B O8B 1_555 1_555

#END
