
#######################################################################
#
#                 Cambridge Crystallographic Data Centre
#                                CCDC 
#
#######################################################################
#
# If this CIF has been generated from an entry in the Cambridge 
# Structural Database, then it will include bibliographic, chemical, 
# crystal, experimental, refinement or atomic coordinate data resulting 
# from the CCDC's data processing and validation procedures.
#
#######################################################################

data_PEHWUW
_symmetry_cell_setting           triclinic
_symmetry_space_group_name_H-M   'P -1'
_symmetry_Int_Tables_number      2
_space_group_name_Hall           '-P 1'
loop_
_symmetry_equiv_pos_site_id
_symmetry_equiv_pos_as_xyz
1 x,y,z
2 -x,-y,-z
_cell_length_a                   7.745(3)
_cell_length_b                   16.768(7)
_cell_length_c                   21.273(9)
_cell_angle_alpha                92.582(7)
_cell_angle_beta                 91.232(8)
_cell_angle_gamma                90.657(8)
_cell_volume                     2759.03
loop_
_atom_site_label
_atom_site_type_symbol
_atom_site_fract_x
_atom_site_fract_y
_atom_site_fract_z
Eu1 Eu 0.57956(10) 0.11564(4) 0.49847(4)
Eu2 Eu 1.05323(10) 0.30804(5) 0.95900(4)
Eu3 Eu 0.55067(10) 0.22834(5) 0.96264(4)
Eu4 Eu 0.07813(10) 0.38399(4) 0.49176(4)
C1 C 0.6166(18) -0.0107(9) 0.6218(7)
C2 C 0.6720(18) -0.0085(9) 0.6896(7)
C3 C 0.741(2) 0.0603(8) 0.7213(7)
H1 H 0.7486 0.1072 0.6997
C4 C 0.7997(19) 0.0609(8) 0.7841(7)
H2 H 0.8503 0.1062 0.8039
C5 C 0.779(2) -0.0093(8) 0.8156(7)
C6 C 0.707(2) -0.0769(9) 0.7876(8)
H3 H 0.6936 -0.1223 0.8107
C7 C 0.656(2) -0.0780(9) 0.7256(7)
H4 H 0.6107 -0.1248 0.7066
C8 C 0.973(2) 0.0357(9) 0.9021(7)
H5 H 1.0479 0.0486 0.8679
H6 H 1.0413 0.0074 0.9325
C9 C 0.908(2) 0.1149(9) 0.9342(7)
C10 C 0.665(2) -0.2005(9) 0.1464(8)
C11 C 0.7539(19) -0.1831(8) 0.2106(7)
C12 C 0.8725(19) -0.2361(9) 0.2362(7)
H7 H 0.9035 -0.2824 0.2136
C13 C 0.942(2) -0.2184(9) 0.2953(7)
H8 H 1.0163 -0.2543 0.3137
C14 C 0.9022(19) -0.1478(8) 0.3275(7)
C15 C 0.780(2) -0.0935(9) 0.3013(8)
H9 H 0.7503 -0.0467 0.3234
C16 C 0.7084(18) -0.1123(10) 0.2432(7)
H10 H 0.6295 -0.0781 0.2253
C17 C 0.942(2) -0.0660(9) 0.4222(7)
H11 H 1.0281 -0.0570 0.4557
H12 H 0.9433 -0.0197 0.3964
C18 C 0.768(2) -0.0738(10) 0.4505(7)
C19 C 0.8355(19) 0.3265(9) 0.8509(7)
C20 C 0.7535(18) 0.3345(8) 0.7882(7)
C21 C 0.6295(18) 0.2815(9) 0.7611(6)
H13 H 0.5938 0.2382 0.7835
C22 C 0.559(2) 0.2914(8) 0.7024(7)
H14 H 0.4809 0.2538 0.6849
C23 C 0.6038(18) 0.3570(9) 0.6689(7)
C24 C 0.7375(19) 0.4095(9) 0.6923(7)
H15 H 0.7755 0.4513 0.6687
C25 C 0.812(2) 0.3970(10) 0.7523(8)
H16 H 0.9009 0.4306 0.7681
C26 C 0.561(2) 0.4352(9) 0.5792(6)
H17 H 0.5681 0.4820 0.6078
H18 H 0.4711 0.4438 0.5481
C27 C 0.737(2) 0.4243(9) 0.5458(6)
C28 C 1.1213(17) 0.5134(9) 0.6239(7)
C29 C 1.1743(18) 0.5161(9) 0.6914(7)
C30 C 1.1544(19) 0.5849(9) 0.7282(8)
H19 H 1.1057 0.6295 0.7108
C31 C 1.208(2) 0.5882(9) 0.7924(8)
H20 H 1.1844 0.6330 0.8179
C32 C 1.2943(19) 0.5248(9) 0.8169(7)
C33 C 1.307(2) 0.4558(10) 0.7832(7)
H21 H 1.3547 0.4115 0.8014
C34 C 1.248(2) 0.4507(9) 0.7193(8)
H22 H 1.2586 0.4029 0.6959
C35 C 1.4825(18) 0.4883(9) 0.9013(7)
H23 H 1.5496 0.4683 0.8661
H24 H 1.5593 0.5203 0.9291
C36 C 1.4160(19) 0.4181(8) 0.9365(6)
C37 C 0.797(2) 0.2146(10) 0.0653(7)
C38 C 0.926(2) 0.2021(10) 0.1162(8)
H25 H 1.0304 0.2300 0.1198
H26 H 0.9758 0.1593 0.0898
C39 C 0.903(2) 0.1613(9) 0.2204(8)
C40 C 0.798(2) 0.1141(10) 0.2566(9)
H27 H 0.7217 0.0763 0.2382
C41 C 0.815(2) 0.1270(10) 0.3244(8)
H28 H 0.7482 0.0969 0.3508
C42 C 0.928(2) 0.1839(8) 0.3494(7)
C43 C 1.026(2) 0.2296(10) 0.3155(7)
H29 H 1.1011 0.2674 0.3345
C44 C 1.012(2) 0.2193(9) 0.2484(7)
H30 H 1.0759 0.2520 0.2233
C45 C 0.928(2) 0.1991(9) 0.4223(7)
C46 C 0.257(2) 0.3194(9) 0.0746(8)
C47 C 0.321(2) 0.3286(9) 0.1430(8)
C48 C 0.251(2) 0.3874(9) 0.1785(8)
H31 H 0.1739 0.4228 0.1608
C49 C 0.296(2) 0.3942(9) 0.2440(7)
H32 H 0.2472 0.4339 0.2695
C50 C 0.409(2) 0.3443(9) 0.2689(7)
C51 C 0.486(2) 0.2832(9) 0.2332(8)
H33 H 0.5645 0.2489 0.2511
C52 C 0.439(2) 0.2758(12) 0.1683(8)
H34 H 0.4863 0.2358 0.1427
C53 C 0.520(2) 0.2980(9) 0.3680(7)
H35 H 0.6425 0.3101 0.3707
H36 H 0.5045 0.2456 0.3473
C54 C 0.4476(19) 0.2967(9) 0.4349(7)
O1 O 0.7045(14) 0.2099(6) 0.5759(5)
H37 H 0.8147 0.2105 0.5727
H38 H 0.6661 0.2568 0.5698
O2 O 0.6296(13) 0.0558(6) 0.5946(5)
O3 O 0.5600(13) -0.0743(6) 0.5974(5)
O4 O 0.8346(14) -0.0159(6) 0.8778(5)
O5 O 0.7475(12) 0.1220(6) 0.9407(5)
O6 O 1.0298(13) 0.1612(6) 0.9535(5)
O7 O 0.3647(14) 0.1146(6) 0.9830(5)
H39 H 0.3560 0.1099 1.0230
H40 H 0.2634 0.1217 0.9669
O8 O 0.3213(14) 0.2720(6) 0.0338(5)
O9 O 0.1295(14) 0.3612(7) 0.0601(5)
O10 O 0.4371(16) 0.3546(6) 0.3325(5)
O11 O 0.4986(14) 0.2428(6) 0.4680(5)
O12 O 0.3417(14) 0.3521(6) 0.4515(5)
O13 O 0.8397(13) 0.1480(6) 0.4517(5)
O14 O 1.0038(14) 0.2580(6) 0.4474(5)
O15 O 0.8786(15) 0.1466(6) 0.1573(5)
O16 O 0.6478(13) 0.1760(6) 0.0638(4)
O17 O 0.8201(14) 0.2683(6) 0.0253(5)
O18 O 0.8731(13) 0.4255(6) 0.9857(5)
H41 H 0.7643 0.4131 0.9810
H42 H 0.8927 0.4414 1.0246
O19 O 0.7764(13) 0.2752(6) 0.8895(4)
O20 O 0.9711(13) 0.3644(6) 0.8654(4)
O21 O 0.7226(14) -0.2536(6) 0.1083(4)
O22 O 0.5297(14) -0.1645(6) 0.1357(5)
O23 O 0.9876(14) -0.1338(6) 0.3850(5)
O24 O 0.6888(14) -0.0133(6) 0.4760(5)
O25 O 0.6961(13) -0.1416(6) 0.4509(4)
O26 O 0.5198(13) 0.3683(6) 0.6128(4)
O27 O 0.8039(13) 0.3572(6) 0.5404(5)
O28 O 0.8100(12) 0.4859(5) 0.5242(4)
O29 O 0.1837(14) 0.2929(5) 0.5695(4)
H43 H 0.1326 0.3022 0.6039
H44 H 0.1626 0.2451 0.5562
O30 O 1.0618(15) 0.5769(6) 0.6017(5)
O31 O 1.1366(13) 0.4487(6) 0.5930(5)
O32 O 1.3491(13) 0.5384(6) 0.8780(4)
O33 O 1.2604(13) 0.4105(6) 0.9432(5)
O34 O 1.5350(14) 0.3734(6) 0.9562(5)
Eu1A Eu 0.42044(10) -0.11564(4) 0.50153(4)
Eu2_2 Eu 0.05323(10) 0.30804(5) -0.04100(4)
Eu2_3 Eu 1.05323(10) 0.30804(5) -0.04100(4)
Eu2A Eu 0.94677(10) -0.30804(5) 0.04100(4)
Eu3_2 Eu 0.55067(10) 0.22834(5) -0.03736(4)
Eu3A Eu 0.44933(10) -0.22834(5) 0.03736(4)
Eu3_3 Eu 1.55067(10) 0.22834(5) 0.96264(4)
Eu4_2 Eu 1.07813(10) 0.38399(4) 0.49176(4)
Eu4A Eu 0.92187(10) 0.61601(4) 0.50824(4)
O3A O 0.4400(13) 0.0743(6) 0.4026(5)
O8_2 O 1.3213(14) 0.2720(6) 1.0338(5)
O8_3 O 0.3213(14) 0.2720(6) 1.0338(5)
O9_2 O 1.1295(14) 0.3612(7) 1.0601(5)
O14_2 O 0.0038(14) 0.2580(6) 0.4474(5)
O16_2 O 0.6478(13) 0.1760(6) 1.0638(4)
O17_2 O 0.8201(14) 0.2683(6) 1.0253(5)
O21A O 1.2774(14) 0.2536(6) 0.8917(4)
O21A_2 O 0.2774(14) 0.2536(6) 0.8917(4)
O22A O 0.4703(14) 0.1645(6) 0.8643(5)
O24A O 0.3112(14) 0.0133(6) 0.5240(5)
O25A O 0.3039(13) 0.1416(6) 0.5491(4)
O27_2 O -0.1961(13) 0.3572(6) 0.5404(5)
O28_2 O -0.1900(12) 0.4859(5) 0.5242(4)
O28A O 0.1900(12) 0.5141(5) 0.4758(4)
O30A O -0.0618(15) 0.4231(6) 0.3983(5)
O31_2 O 0.1366(13) 0.4487(6) 0.5930(5)
O34_2 O 0.5350(14) 0.3734(6) 0.9562(5)
O35 O 0.4428(16) 0.9871(7) 0.9085(6)
H45 H 0.3579 0.9664 0.8874
H46 H 0.4292 0.9800 0.9474
loop_
_geom_bond_atom_site_label_1
_geom_bond_atom_site_label_2
_geom_bond_site_symmetry_1
_geom_bond_site_symmetry_2
Eu1 O1 1_555 1_555
Eu2 O6 1_555 1_555
Eu3 O5 1_555 1_555
Eu4 O12 1_555 1_555
C1 C2 1_555 1_555
C2 C3 1_555 1_555
C3 H1 1_555 1_555
C4 C3 1_555 1_555
H2 C4 1_555 1_555
C5 C4 1_555 1_555
C6 C5 1_555 1_555
H3 C6 1_555 1_555
C7 C2 1_555 1_555
H4 C7 1_555 1_555
C8 H5 1_555 1_555
H6 C8 1_555 1_555
C9 C8 1_555 1_555
C10 C11 1_555 1_555
C11 C12 1_555 1_555
C12 H7 1_555 1_555
C13 C12 1_555 1_555
H8 C13 1_555 1_555
C14 C13 1_555 1_555
C15 C14 1_555 1_555
H9 C15 1_555 1_555
C16 C11 1_555 1_555
H10 C16 1_555 1_555
C17 H11 1_555 1_555
H12 C17 1_555 1_555
C18 C17 1_555 1_555
C19 C20 1_555 1_555
C20 C21 1_555 1_555
C21 H13 1_555 1_555
C22 C21 1_555 1_555
H14 C22 1_555 1_555
C23 C22 1_555 1_555
C24 C23 1_555 1_555
H15 C24 1_555 1_555
C25 C20 1_555 1_555
H16 C25 1_555 1_555
C26 H17 1_555 1_555
H18 C26 1_555 1_555
C27 C26 1_555 1_555
C28 C29 1_555 1_555
C29 C30 1_555 1_555
C30 H19 1_555 1_555
C31 C30 1_555 1_555
H20 C31 1_555 1_555
C32 C31 1_555 1_555
C33 C32 1_555 1_555
H21 C33 1_555 1_555
C34 C29 1_555 1_555
H22 C34 1_555 1_555
C35 H23 1_555 1_555
H24 C35 1_555 1_555
C36 C35 1_555 1_555
C37 C38 1_555 1_555
C38 H25 1_555 1_555
H26 C38 1_555 1_555
C39 C40 1_555 1_555
C40 H27 1_555 1_555
C41 C40 1_555 1_555
H28 C41 1_555 1_555
C42 C41 1_555 1_555
C43 C42 1_555 1_555
H29 C43 1_555 1_555
C44 C39 1_555 1_555
H30 C44 1_555 1_555
C45 C42 1_555 1_555
C46 C47 1_555 1_555
C47 C48 1_555 1_555
C48 H31 1_555 1_555
C49 C48 1_555 1_555
H32 C49 1_555 1_555
C50 C49 1_555 1_555
C51 C50 1_555 1_555
H33 C51 1_555 1_555
C52 C47 1_555 1_555
H34 C52 1_555 1_555
C53 H35 1_555 1_555
H36 C53 1_555 1_555
C54 C53 1_555 1_555
O1 H37 1_555 1_555
H38 O1 1_555 1_555
O2 Eu1 1_555 1_555
O3 C1 1_555 1_555
O4 C5 1_555 1_555
O5 C9 1_555 1_555
O6 C9 1_555 1_555
O7 Eu3 1_555 1_555
H39 O7 1_555 1_555
H40 O7 1_555 1_555
O8 C46 1_555 1_555
O9 C46 1_555 1_555
O10 C50 1_555 1_555
O11 Eu1 1_555 1_555
O12 C54 1_555 1_555
O13 Eu1 1_555 1_555
O14 C45 1_555 1_555
O15 C38 1_555 1_555
O16 C37 1_555 1_555
O17 C37 1_555 1_555
O18 Eu2 1_555 1_555
H41 O18 1_555 1_555
H42 O18 1_555 1_555
O19 Eu2 1_555 1_555
O20 Eu2 1_555 1_555
O21 C10 1_555 1_555
O22 C10 1_555 1_555
O23 C14 1_555 1_555
O24 Eu1 1_555 1_555
O25 C18 1_555 1_555
O26 C23 1_555 1_555
O27 C27 1_555 1_555
O28 C27 1_555 1_555
O29 Eu4 1_555 1_555
H43 O29 1_555 1_555
H44 O29 1_555 1_555
O30 C28 1_555 1_555
O31 C28 1_555 1_555
O32 C32 1_555 1_555
O33 Eu2 1_555 1_555
O34 C36 1_555 1_555
O35 H45 1_555 1_555
H46 O35 1_555 1_555
Eu1A O3 1_555 1_555
Eu2_2 O8 1_555 1_555
Eu2_3 O17 1_555 1_555
Eu2A O21 1_555 1_555
Eu3_2 O8 1_555 1_555
Eu3A O21 1_555 1_555
Eu3_3 O34 1_555 1_555
Eu4_2 O14 1_555 1_555
Eu4A O28 1_555 1_555
O3A Eu1 1_555 1_555
O8_2 Eu2 1_555 1_555
O8_3 Eu3 1_555 1_555
O9_2 Eu2 1_555 1_555
O14_2 Eu4 1_555 1_555
O16_2 Eu3 1_555 1_555
O17_2 Eu2 1_555 1_555
O21A Eu2 1_555 1_555
O21A_2 Eu3 1_555 1_555
O22A Eu3 1_555 1_555
O24A Eu1 1_555 1_555
O25A Eu1 1_555 1_555
O27_2 Eu4 1_555 1_555
O28_2 Eu4 1_555 1_555
O28A Eu4 1_555 1_555
O30A Eu4 1_555 1_555
O31_2 Eu4 1_555 1_555
O34_2 Eu3 1_555 1_555
Eu3 O19 1_555 1_555
Eu3 O17_2 1_555 1_555
C1 O2 1_555 1_555
C6 C7 1_555 1_555
C8 O4 1_555 1_555
C15 C16 1_555 1_555
C17 O23 1_555 1_555
C18 O24 1_555 1_555
C19 O19 1_555 1_555
C19 O20 1_555 1_555
C24 C25 1_555 1_555
C26 O26 1_555 1_555
C33 C34 1_555 1_555
C35 O32 1_555 1_555
C36 O33 1_555 1_555
C39 O15 1_555 1_555
C43 C44 1_555 1_555
C45 O13 1_555 1_555
C51 C52 1_555 1_555
C53 O10 1_555 1_555
C54 O11 1_555 1_555
O9 Eu2_2 1_555 1_555
O16 Eu3_2 1_555 1_555
O17 Eu3_2 1_555 1_555
O22 Eu3A 1_555 1_555
O24 Eu1A 1_555 1_555
O25 Eu1A 1_555 1_555
O27 Eu4_2 1_555 1_555
O28 Eu4_2 1_555 1_555
O30 Eu4A 1_555 1_555
O31 Eu4_2 1_555 1_555
Eu1A O24A 1_555 1_555
Eu3_3 O8_2 1_555 1_555
Eu3_3 O21A 1_555 1_555

#END
