
#######################################################################
#
#                 Cambridge Crystallographic Data Centre
#                                CCDC 
#
#######################################################################
#
# If this CIF has been generated from an entry in the Cambridge 
# Structural Database, then it will include bibliographic, chemical, 
# crystal, experimental, refinement or atomic coordinate data resulting 
# from the CCDC's data processing and validation procedures.
#
#######################################################################

data_PEHXUX
_symmetry_cell_setting           orthorhombic
_symmetry_space_group_name_H-M   'P 21 21 21'
_symmetry_Int_Tables_number      19
_space_group_name_Hall           'P 2ac 2ab'
loop_
_symmetry_equiv_pos_site_id
_symmetry_equiv_pos_as_xyz
1 x,y,z
2 1/2-x,-y,1/2+z
3 -x,1/2+y,1/2-z
4 1/2+x,1/2-y,-z
_cell_length_a                   10.9521(9)
_cell_length_b                   21.753(2)
_cell_length_c                   24.219(2)
_cell_angle_alpha                90
_cell_angle_beta                 90
_cell_angle_gamma                90
_cell_volume                     5769.96
loop_
_atom_site_label
_atom_site_type_symbol
_atom_site_fract_x
_atom_site_fract_y
_atom_site_fract_z
Eu1 Eu 0.76336(10) 0.97457(5) 0.43062(5)
Eu2 Eu 0.60061(11) 0.99983(5) 0.58454(4)
Eu3 Eu 0.60660(12) 1.00630(5) 0.27430(5)
N1 N 0.426(2) 1.2952(11) 0.4768(10)
H1 H 0.4193 1.3084 0.5101
N2 N 0.410(2) 1.2915(11) 0.3856(10)
N3 N 0.195(2) 0.7525(10) 0.4727(9)
H2 H 0.1766 0.7427 0.5061
N4 N 0.195(2) 0.7541(10) 0.3777(9)
N5 N 1.122(2) 0.7493(10) 0.5788(10)
N6 N 1.089(2) 0.7502(10) 0.6717(9)
H3 H 1.0963 0.7409 0.7061
N7 N 1.117(2) 0.7444(10) 0.2712(9)
H4 H 1.1502 0.7337 0.3018
N8 N 1.065(2) 0.7439(11) 0.1800(9)
N9 N 0.3931(19) 1.0533(10) 0.5710(11)
N10 N 0.4550(18) 1.0051(10) 0.6705(9)
N11 N 0.396(2) 1.0635(11) 0.2894(10)
N12 N 0.460(2) 1.0123(12) 0.1909(9)
N13 N 1.005(3) 1.0108(14) 0.4212(11)
O1 O 0.756(2) 1.0738(9) 0.4665(8)
O2 O 0.6392(18) 1.0927(9) 0.5394(9)
O3 O 0.6262(18) 1.0389(9) 0.3739(8)
O4 O 0.665(2) 1.1070(10) 0.3144(8)
O5 O 0.5604(17) 0.9677(9) 0.4783(8)
O6 O 0.4860(18) 0.9149(9) 0.5472(8)
O7 O 0.6245(19) 0.9143(9) 0.3839(8)
O8 O 0.4813(18) 0.9336(9) 0.3196(8)
O9 O 0.7836(16) 0.9654(8) 0.5480(7)
O10 O 0.804(2) 0.8892(10) 0.4881(8)
O11 O 0.6622(17) 0.9151(8) 0.6408(8)
O12 O 0.7946(15) 0.9694(9) 0.3051(7)
O13 O 0.8750(19) 0.9140(9) 0.3677(8)
O14 O 0.6694(16) 0.9239(8) 0.2186(7)
O15 O 0.7904(15) 0.9379(7) 0.1476(7)
O16 O 0.977(2) 0.9807(11) 0.4628(8)
O17 O 1.110(3) 1.0307(14) 0.4191(11)
C1 C 0.659(3) 1.0996(14) 0.4910(13)
C2 C 0.642(3) 1.1003(14) 0.3639(12)
C3 C 0.603(3) 1.1509(13) 0.4594(12)
C4 C 0.599(3) 1.1495(13) 0.4010(12)
C5 C 0.537(3) 1.1957(14) 0.3715(13)
H9 H 0.5341 1.1953 0.3331
C6 C 0.481(3) 1.2421(14) 0.4018(13)
C7 C 0.486(3) 1.2423(14) 0.4606(12)
C8 C 0.546(3) 1.1953(13) 0.4880(13)
H10 H 0.5460 1.1944 0.5264
C9 C 0.377(3) 1.3234(13) 0.4301(13)
H11 H 0.3287 1.3587 0.4300
C10 C 0.500(3) 0.9152(13) 0.4951(12)
C11 C 0.507(3) 0.9169(13) 0.3673(12)
C12 C 0.424(2) 0.8769(12) 0.4577(12)
C13 C 0.430(3) 0.8759(13) 0.3983(12)
C14 C 0.350(2) 0.8379(12) 0.3706(12)
H12 H 0.3484 0.8382 0.3322
C15 C 0.272(3) 0.7998(12) 0.3987(11)
C16 C 0.276(2) 0.7976(12) 0.4567(11)
C17 C 0.346(2) 0.8391(12) 0.4874(12)
H13 H 0.3407 0.8412 0.5256
C18 C 0.148(2) 0.7263(12) 0.4258(12)
H14 H 0.0926 0.6941 0.4257
C19 C 0.818(3) 0.9073(14) 0.5363(12)
C20 C 0.769(3) 0.9153(14) 0.6682(12)
C21 C 0.884(2) 0.8683(12) 0.5763(12)
C22 C 0.860(2) 0.8743(13) 0.6376(11)
C23 C 0.925(2) 0.8334(13) 0.6719(12)
H15 H 0.9101 0.8334 0.7097
C24 C 1.009(3) 0.7938(13) 0.6501(11)
C25 C 1.030(3) 0.7937(13) 0.5915(12)
C26 C 0.973(3) 0.8298(13) 0.5572(11)
H16 H 0.9937 0.8294 0.5199
C27 C 1.150(3) 0.7253(14) 0.6304(12)
H17 H 1.2081 0.6944 0.6354
C28 C 0.852(3) 0.9191(13) 0.3186(11)
C29 C 0.770(2) 0.9166(11) 0.1947(10)
C30 C 0.894(2) 0.8758(11) 0.2776(10)
C31 C 0.866(2) 0.8732(12) 0.2214(11)
C32 C 0.919(2) 0.8339(13) 0.1843(11)
H18 H 0.9011 0.8364 0.1468
C33 C 1.005(2) 0.7877(13) 0.2054(12)
C34 C 1.030(2) 0.7910(13) 0.2623(11)
C35 C 0.972(3) 0.8338(13) 0.3000(12)
H19 H 0.9862 0.8325 0.3378
C36 C 1.135(3) 0.7194(14) 0.2190(11)
H20 H 1.1918 0.6885 0.2120
C37 C 0.354(3) 1.0767(14) 0.5223(13)
H21 H 0.3929 1.0621 0.4907
C38 C 0.270(3) 1.1172(15) 0.5150(15)
H22 H 0.2411 1.1270 0.4799
C39 C 0.225(3) 1.1444(14) 0.5604(13)
H23 H 0.1692 1.1761 0.5554
C40 C 0.255(3) 1.1290(13) 0.6141(12)
C41 C 0.341(3) 1.0777(14) 0.6165(12)
C42 C 0.369(2) 1.0533(14) 0.6680(12)
C43 C 0.309(2) 1.0706(13) 0.7176(12)
C44 C 0.338(3) 1.0408(13) 0.7674(12)
H24 H 0.2953 1.0516 0.7992
C45 C 0.424(2) 0.9974(13) 0.7706(12)
H25 H 0.4443 0.9784 0.8038
C46 C 0.483(2) 0.9821(12) 0.7196(10)
H26 H 0.5459 0.9536 0.7211
C47 C 0.363(3) 1.0783(14) 0.3405(12)
H27 H 0.3964 1.0597 0.3715
C48 C 0.264(3) 1.1285(15) 0.3445(13)
H28 H 0.2401 1.1442 0.3785
C49 C 0.210(3) 1.1498(15) 0.2955(14)
H29 H 0.1485 1.1791 0.2978
C50 C 0.244(3) 1.1298(14) 0.2454(13)
C51 C 0.342(3) 1.0837(14) 0.2425(12)
C52 C 0.376(3) 1.0566(14) 0.1929(12)
C53 C 0.302(3) 1.0769(15) 0.1422(12)
C54 C 0.337(3) 1.0491(14) 0.0938(12)
H30 H 0.2975 1.0610 0.0614
C55 C 0.426(3) 1.0051(14) 0.0901(11)
H31 H 0.4444 0.9876 0.0560
C56 C 0.493(3) 0.9851(14) 0.1407(11)
H32 H 0.5547 0.9557 0.1389
C57 C 0.189(3) 1.1478(16) 0.1990(14)
H33 H 0.1296 1.1782 0.2010
C58 C 0.217(3) 1.1231(15) 0.1489(14)
H34 H 0.1767 1.1380 0.1178
C59 C 0.216(3) 1.1171(13) 0.7125(13)
H35 H 0.1651 1.1251 0.7425
C60 C 0.200(3) 1.1480(15) 0.6670(13)
H36 H 0.1521 1.1834 0.6679
O20 O 0.7806(16) 0.9545(10) 0.7114(8)
O21 O 0.927(2) 1.0187(11) 0.3846(9)
Eu2A Eu 0.89939(11) 1.00017(5) 0.08454(4)
Eu3A Eu 0.89340(12) 0.99370(5) 0.77430(5)
O15A O 0.7096(15) 1.0621(7) 0.6476(7)
O20A O 0.7194(16) 1.0455(10) 0.2114(8)
O18 O 0.069(3) 0.6969(11) 0.7704(10)
H5 H 0.0700 0.7067 0.8043
H6 H 0.0977 0.6607 0.7674
O19 O 0.040(3) 0.6703(13) 0.0817(11)
H7 H 0.0582 0.6894 0.1112
H8 H 0.0998 0.6468 0.0733
loop_
_geom_bond_atom_site_label_1
_geom_bond_atom_site_label_2
_geom_bond_site_symmetry_1
_geom_bond_site_symmetry_2
Eu1 O1 1_555 1_555
Eu2 N9 1_555 1_555
Eu3 N11 1_555 1_555
N1 H1 1_555 1_555
N2 C6 1_555 1_555
N3 H2 1_555 1_555
N4 C15 1_555 1_555
N5 C25 1_555 1_555
N6 H3 1_555 1_555
N7 H4 1_555 1_555
N8 C33 1_555 1_555
N9 C37 1_555 1_555
N10 Eu2 1_555 1_555
N11 C47 1_555 1_555
N12 Eu3 1_555 1_555
N13 O16 1_555 1_555
O1 C1 1_555 1_555
O2 Eu2 1_555 1_555
O3 Eu1 1_555 1_555
O4 Eu3 1_555 1_555
O5 Eu1 1_555 1_555
O6 Eu2 1_555 1_555
O7 Eu1 1_555 1_555
O8 Eu3 1_555 1_555
O9 Eu1 1_555 1_555
O10 Eu1 1_555 1_555
O11 Eu2 1_555 1_555
O12 Eu3 1_555 1_555
O13 Eu1 1_555 1_555
O14 Eu3 1_555 1_555
O15 C29 1_555 1_555
O16 Eu1 1_555 1_555
O17 N13 1_555 1_555
O18 H5 1_555 1_555
H6 O18 1_555 1_555
O19 H7 1_555 1_555
H8 O19 1_555 1_555
C1 O2 1_555 1_555
C2 O3 1_555 1_555
C3 C1 1_555 1_555
C4 C2 1_555 1_555
C5 C4 1_555 1_555
H9 C5 1_555 1_555
C6 C5 1_555 1_555
C7 N1 1_555 1_555
C8 C3 1_555 1_555
H10 C8 1_555 1_555
C9 N1 1_555 1_555
H11 C9 1_555 1_555
C10 O5 1_555 1_555
C11 O7 1_555 1_555
C12 C10 1_555 1_555
C13 C11 1_555 1_555
C14 C13 1_555 1_555
H12 C14 1_555 1_555
C15 C14 1_555 1_555
C16 N3 1_555 1_555
C17 C12 1_555 1_555
H13 C17 1_555 1_555
C18 N3 1_555 1_555
H14 C18 1_555 1_555
C19 O9 1_555 1_555
C20 O11 1_555 1_555
C21 C19 1_555 1_555
C22 C20 1_555 1_555
C23 C22 1_555 1_555
H15 C23 1_555 1_555
C24 N6 1_555 1_555
C25 C24 1_555 1_555
C26 C21 1_555 1_555
H16 C26 1_555 1_555
C27 N5 1_555 1_555
H17 C27 1_555 1_555
C28 O12 1_555 1_555
C29 O14 1_555 1_555
C30 C28 1_555 1_555
C31 C29 1_555 1_555
C32 C31 1_555 1_555
H18 C32 1_555 1_555
C33 C32 1_555 1_555
C34 N7 1_555 1_555
C35 C30 1_555 1_555
H19 C35 1_555 1_555
C36 N7 1_555 1_555
H20 C36 1_555 1_555
C37 H21 1_555 1_555
C38 C37 1_555 1_555
H22 C38 1_555 1_555
C39 C38 1_555 1_555
H23 C39 1_555 1_555
C40 C39 1_555 1_555
C41 N9 1_555 1_555
C42 N10 1_555 1_555
C43 C42 1_555 1_555
C44 C43 1_555 1_555
H24 C44 1_555 1_555
C45 C44 1_555 1_555
H25 C45 1_555 1_555
C46 N10 1_555 1_555
H26 C46 1_555 1_555
C47 H27 1_555 1_555
C48 C47 1_555 1_555
H28 C48 1_555 1_555
C49 C48 1_555 1_555
H29 C49 1_555 1_555
C50 C49 1_555 1_555
C51 N11 1_555 1_555
C52 N12 1_555 1_555
C53 C52 1_555 1_555
C54 C53 1_555 1_555
H30 C54 1_555 1_555
C55 C54 1_555 1_555
H31 C55 1_555 1_555
C56 N12 1_555 1_555
H32 C56 1_555 1_555
C57 C50 1_555 1_555
H33 C57 1_555 1_555
C58 C53 1_555 1_555
H34 C58 1_555 1_555
C59 C43 1_555 1_555
H35 C59 1_555 1_555
C60 C40 1_555 1_555
H36 C60 1_555 1_555
O20 C20 1_555 1_555
O21 Eu1 1_555 1_555
Eu2A O15 1_555 1_555
Eu3A O20 1_555 1_555
O15A Eu2 1_555 1_555
O20A Eu3 1_555 1_555
Eu2 O5 1_555 1_555
Eu2 O9 1_555 1_555
Eu3 O3 1_555 1_555
N2 C9 1_555 1_555
N4 C18 1_555 1_555
N6 C27 1_555 1_555
N8 C36 1_555 1_555
N13 O21 1_555 1_555
O4 C2 1_555 1_555
O6 C10 1_555 1_555
O8 C11 1_555 1_555
O10 C19 1_555 1_555
O13 C28 1_555 1_555
C3 C4 1_555 1_555
C6 C7 1_555 1_555
C7 C8 1_555 1_555
C12 C13 1_555 1_555
C15 C16 1_555 1_555
C16 C17 1_555 1_555
C21 C22 1_555 1_555
C23 C24 1_555 1_555
C25 C26 1_555 1_555
C30 C31 1_555 1_555
C33 C34 1_555 1_555
C34 C35 1_555 1_555
C40 C41 1_555 1_555
C41 C42 1_555 1_555
C45 C46 1_555 1_555
C50 C51 1_555 1_555
C51 C52 1_555 1_555
C55 C56 1_555 1_555
C57 C58 1_555 1_555
C59 C60 1_555 1_555

#END
