
#######################################################################
#
#                 Cambridge Crystallographic Data Centre
#                                CCDC 
#
#######################################################################
#
# If this CIF has been generated from an entry in the Cambridge 
# Structural Database, then it will include bibliographic, chemical, 
# crystal, experimental, refinement or atomic coordinate data resulting 
# from the CCDC's data processing and validation procedures.
#
#######################################################################

data_PEHXOR
_symmetry_cell_setting           orthorhombic
_symmetry_space_group_name_H-M   'P 21 21 21'
_symmetry_Int_Tables_number      19
_space_group_name_Hall           'P 2ac 2ab'
loop_
_symmetry_equiv_pos_site_id
_symmetry_equiv_pos_as_xyz
1 x,y,z
2 1/2-x,-y,1/2+z
3 -x,1/2+y,1/2-z
4 1/2+x,1/2-y,-z
_cell_length_a                   11.0029(11)
_cell_length_b                   21.665(2)
_cell_length_c                   24.201(2)
_cell_angle_alpha                90
_cell_angle_beta                 90
_cell_angle_gamma                90
_cell_volume                     5768.98
loop_
_atom_site_label
_atom_site_type_symbol
_atom_site_fract_x
_atom_site_fract_y
_atom_site_fract_z
Tb1 Tb 0.89774(7) 0.49888(3) 0.58694(2)
Tb2 Tb 0.60795(7) 0.49225(3) 0.77554(3)
Tb3 Tb 0.73654(6) 0.47513(3) 0.43257(3)
N1 N 1.1155(14) 0.7542(6) 0.7715(6)
N2 N 1.0638(14) 0.7569(6) 0.6823(6)
H1 H 1.0602 0.7682 0.6483
N3 N 0.4091(14) 0.2503(6) 0.6734(5)
N4 N 0.3778(13) 0.2485(6) 0.5803(5)
H2 H 0.3510 0.2376 0.5484
N5 N 1.3021(12) 0.2556(6) 0.3804(5)
H3 H 1.3170 0.2469 0.3464
N6 N 1.3044(12) 0.2526(6) 0.4731(5)
N7 N 1.0848(14) 0.7945(6) 0.3876(6)
H4 H 1.1041 0.8042 0.3543
N8 N 1.0675(14) 0.7974(6) 0.4801(6)
N9 N 1.1023(12) 0.5540(6) 0.5728(5)
N10 N 1.0358(12) 0.5047(6) 0.6715(5)
N11 N 0.4613(13) 0.4861(7) 0.6920(5)
N12 N 0.4025(14) 0.4379(6) 0.7912(6)
N13 N 0.4822(14) 0.5149(8) 0.4298(8)
O1 O 0.7904(10) 0.5571(5) 0.6501(4)
O2 O 0.6675(11) 0.5748(5) 0.7209(4)
O3 O 0.7939(9) 0.5284(5) 0.8062(4)
O4 O 0.8689(12) 0.5882(6) 0.8695(4)
O5 O 0.8353(10) 0.4157(5) 0.6403(4)
O6 O 0.7107(9) 0.4361(5) 0.7092(4)
O7 O 0.7163(9) 0.4644(5) 0.5504(4)
O8 O 0.7023(13) 0.3876(6) 0.4897(5)
O9 O 0.9403(11) 0.4679(6) 0.4810(5)
O10 O 1.0115(12) 0.4153(6) 0.5483(5)
O11 O 0.8718(13) 0.4132(6) 0.3865(5)
O12 O 1.0100(12) 0.4349(6) 0.3218(5)
O13 O 0.8584(11) 0.5921(5) 0.5412(5)
O14 O 0.7422(12) 0.5728(5) 0.4677(5)
O15 O 0.8710(12) 0.5421(6) 0.3775(5)
O16 O 0.8386(12) 0.6092(6) 0.3145(5)
O17 O 0.5235(12) 0.4802(7) 0.4633(5)
O18 O 0.5625(14) 0.5352(7) 0.3947(6)
O19 O 0.3754(14) 0.5276(10) 0.4312(9)
C1 C 0.7647(14) 0.5821(7) 0.6969(6)
C2 C 0.8492(15) 0.5781(8) 0.8199(6)
C3 C 0.8628(15) 0.6254(7) 0.7218(6)
C4 C 0.8910(15) 0.6234(6) 0.7793(6)
C5 C 0.9725(16) 0.6654(7) 0.8003(7)
H9 H 0.9912 0.6657 0.8378
C6 C 1.0280(15) 0.7088(7) 0.7634(6)
C7 C 0.9994(15) 0.7097(7) 0.7070(6)
C8 C 0.9169(15) 0.6663(7) 0.6856(6)
H10 H 0.8992 0.6652 0.6481
C9 C 1.1310(16) 0.7806(8) 0.7211(6)
H11 H 1.1850 0.8129 0.7149
C10 C 0.7297(15) 0.4123(7) 0.6649(6)
C11 C 0.6852(18) 0.4118(8) 0.5361(7)
C12 C 0.6357(15) 0.3717(7) 0.6374(6)
C13 C 0.6168(16) 0.3688(7) 0.5787(6)
C14 C 0.5265(16) 0.3295(7) 0.5568(6)
H12 H 0.5097 0.3290 0.5191
C15 C 0.4651(17) 0.2926(7) 0.5922(7)
C16 C 0.4851(16) 0.2934(7) 0.6499(6)
C17 C 0.5720(15) 0.3341(7) 0.6726(7)
H13 H 0.5857 0.3354 0.7105
C18 C 0.3439(18) 0.2263(8) 0.6308(7)
H14 H 0.2821 0.1975 0.6356
C19 C 0.9990(17) 0.4185(8) 0.4971(7)
C20 C 0.9847(16) 0.4156(8) 0.3675(7)
C21 C 1.0736(14) 0.3789(7) 0.4601(6)
C22 C 1.0702(15) 0.3779(7) 0.4012(7)
C23 C 1.1484(15) 0.3401(7) 0.3712(6)
H15 H 1.1489 0.3414 0.3328
C24 C 1.2256(15) 0.3004(7) 0.3996(6)
C25 C 1.2242(14) 0.2983(7) 0.4577(6)
C26 C 1.1470(15) 0.3382(7) 0.4883(6)
H16 H 1.1461 0.3369 0.5267
C27 C 1.3494(14) 0.2281(7) 0.4249(6)
H17 H 1.4060 0.1963 0.4234
C28 C 0.8404(16) 0.5990(7) 0.4927(7)
C29 C 0.8601(18) 0.6004(8) 0.3651(7)
C30 C 0.8930(17) 0.6496(7) 0.4606(6)
C31 C 0.9023(16) 0.6504(7) 0.4020(6)
C32 C 0.9586(17) 0.6975(7) 0.3739(7)
H18 H 0.9578 0.6986 0.3355
C33 C 1.0166(17) 0.7431(8) 0.4040(7)
C34 C 1.0119(16) 0.7444(7) 0.4620(6)
C35 C 0.9495(16) 0.6975(7) 0.4914(7)
H19 H 0.9457 0.6980 0.5298
C36 C 1.1138(17) 0.8251(7) 0.4326(7)
H20 H 1.1598 0.8611 0.4327
C37 C 1.1402(17) 0.5745(8) 0.5235(8)
H21 H 1.1069 0.5566 0.4920
C38 C 1.2233(19) 0.6194(9) 0.5167(8)
H22 H 1.2483 0.6317 0.4817
C39 C 1.2708(18) 0.6468(9) 0.5646(8)
H23 H 1.3238 0.6800 0.5614
C40 C 1.2407(18) 0.6255(8) 0.6158(7)
C41 C 1.1527(16) 0.5771(8) 0.6188(7)
C42 C 1.1238(15) 0.5502(8) 0.6711(7)
C43 C 1.1851(15) 0.5697(8) 0.7183(6)
C44 C 1.1547(16) 0.5394(8) 0.7686(7)
H24 H 1.1927 0.5517 0.8011
C45 C 1.0749(15) 0.4948(8) 0.7703(6)
H25 H 1.0598 0.4734 0.8029
C46 C 1.0121(15) 0.4800(8) 0.7211(6)
H26 H 0.9499 0.4510 0.7233
C47 C 1.2992(18) 0.6452(9) 0.6669(8)
H27 H 1.3549 0.6775 0.6661
C48 C 1.2747(18) 0.6186(8) 0.7133(7)
H28 H 1.3162 0.6312 0.7448
C49 C 0.4896(16) 0.5126(8) 0.6424(6)
H29 H 0.5529 0.5410 0.6407
C50 C 0.4257(17) 0.4981(8) 0.5943(7)
H30 H 0.4433 0.5184 0.5614
C51 C 0.3360(17) 0.4532(8) 0.5956(7)
H31 H 0.2960 0.4424 0.5632
C52 C 0.3044(17) 0.4236(8) 0.6456(7)
C53 C 0.3747(15) 0.4420(8) 0.6938(7)
C54 C 0.3455(16) 0.4177(8) 0.7448(7)
C55 C 0.2472(19) 0.3708(8) 0.7479(8)
C56 C 0.2142(19) 0.3511(9) 0.8029(9)
H32 H 0.1539 0.3215 0.8077
C57 C 0.2687(19) 0.3749(9) 0.8460(9)
H33 H 0.2458 0.3623 0.8812
C58 C 0.3612(18) 0.4191(9) 0.8399(8)
H34 H 0.3952 0.4361 0.8716
C59 C 0.2158(18) 0.3779(9) 0.6523(8)
H35 H 0.1719 0.3655 0.6214
C60 C 0.1907(18) 0.3510(9) 0.7013(8)
H36 H 0.1347 0.3189 0.7032
Tb2A Tb 0.89205(7) 0.50775(3) 0.27554(3)
Tb3A Tb 0.76346(6) 0.52487(3) 0.93257(3)
O4A O 0.6311(12) 0.4118(6) 0.3695(4)
O12A O 0.4900(12) 0.5651(6) 0.8218(5)
O15A O 0.6290(12) 0.4579(6) 0.8775(5)
O16A O 0.6614(12) 0.3908(6) 0.8145(5)
O20 O 0.4370(14) 0.1943(6) 0.7727(5)
H5 H 0.4266 0.2102 0.7409
H6 H 0.4047 0.1587 0.7729
O21 O 0.0428(17) 0.8287(8) 0.5860(7)
H7 H 0.0509 0.8201 0.5519
H8 H 0.0488 0.8675 0.5899
loop_
_geom_bond_atom_site_label_1
_geom_bond_atom_site_label_2
_geom_bond_site_symmetry_1
_geom_bond_site_symmetry_2
Tb1 N9 1_555 1_555
Tb2 N11 1_555 1_555
Tb3 O7 1_555 1_555
N1 C6 1_555 1_555
N2 H1 1_555 1_555
N3 C16 1_555 1_555
N4 H2 1_555 1_555
N5 H3 1_555 1_555
N6 C25 1_555 1_555
N7 H4 1_555 1_555
N8 C34 1_555 1_555
N9 C37 1_555 1_555
N10 Tb1 1_555 1_555
N11 C49 1_555 1_555
N12 Tb2 1_555 1_555
N13 O17 1_555 1_555
O1 Tb1 1_555 1_555
O2 Tb2 1_555 1_555
O3 Tb2 1_555 1_555
O4 C2 1_555 1_555
O5 Tb1 1_555 1_555
O6 Tb2 1_555 1_555
O7 Tb1 1_555 1_555
O8 Tb3 1_555 1_555
O9 Tb1 1_555 1_555
O10 Tb1 1_555 1_555
O11 Tb3 1_555 1_555
O12 C20 1_555 1_555
O13 Tb1 1_555 1_555
O14 Tb3 1_555 1_555
O15 Tb3 1_555 1_555
O16 C29 1_555 1_555
O17 Tb3 1_555 1_555
O18 Tb3 1_555 1_555
O19 N13 1_555 1_555
O20 H5 1_555 1_555
H6 O20 1_555 1_555
O21 H7 1_555 1_555
H8 O21 1_555 1_555
C1 O1 1_555 1_555
C2 O3 1_555 1_555
C3 C1 1_555 1_555
C4 C2 1_555 1_555
C5 C4 1_555 1_555
H9 C5 1_555 1_555
C6 C5 1_555 1_555
C7 N2 1_555 1_555
C8 C3 1_555 1_555
H10 C8 1_555 1_555
C9 N1 1_555 1_555
H11 C9 1_555 1_555
C10 O5 1_555 1_555
C11 O7 1_555 1_555
C12 C10 1_555 1_555
C13 C11 1_555 1_555
C14 C13 1_555 1_555
H12 C14 1_555 1_555
C15 N4 1_555 1_555
C16 C15 1_555 1_555
C17 C12 1_555 1_555
H13 C17 1_555 1_555
C18 N3 1_555 1_555
H14 C18 1_555 1_555
C19 O9 1_555 1_555
C20 O11 1_555 1_555
C21 C19 1_555 1_555
C22 C20 1_555 1_555
C23 C22 1_555 1_555
H15 C23 1_555 1_555
C24 N5 1_555 1_555
C25 C24 1_555 1_555
C26 C21 1_555 1_555
H16 C26 1_555 1_555
C27 N5 1_555 1_555
H17 C27 1_555 1_555
C28 O13 1_555 1_555
C29 O15 1_555 1_555
C30 C28 1_555 1_555
C31 C29 1_555 1_555
C32 C31 1_555 1_555
H18 C32 1_555 1_555
C33 N7 1_555 1_555
C34 C33 1_555 1_555
C35 C30 1_555 1_555
H19 C35 1_555 1_555
C36 N7 1_555 1_555
H20 C36 1_555 1_555
C37 H21 1_555 1_555
C38 C37 1_555 1_555
H22 C38 1_555 1_555
C39 C38 1_555 1_555
H23 C39 1_555 1_555
C40 C39 1_555 1_555
C41 N9 1_555 1_555
C42 N10 1_555 1_555
C43 C42 1_555 1_555
C44 C43 1_555 1_555
H24 C44 1_555 1_555
C45 C44 1_555 1_555
H25 C45 1_555 1_555
C46 N10 1_555 1_555
H26 C46 1_555 1_555
C47 C40 1_555 1_555
H27 C47 1_555 1_555
C48 C43 1_555 1_555
H28 C48 1_555 1_555
C49 H29 1_555 1_555
C50 C49 1_555 1_555
H30 C50 1_555 1_555
C51 C50 1_555 1_555
H31 C51 1_555 1_555
C52 C51 1_555 1_555
C53 N11 1_555 1_555
C54 N12 1_555 1_555
C55 C54 1_555 1_555
C56 C55 1_555 1_555
H32 C56 1_555 1_555
C57 C56 1_555 1_555
H33 C57 1_555 1_555
C58 N12 1_555 1_555
H34 C58 1_555 1_555
C59 C52 1_555 1_555
H35 C59 1_555 1_555
C60 C55 1_555 1_555
H36 C60 1_555 1_555
Tb2A O12 1_555 1_555
Tb3A O4 1_555 1_555
O4A Tb3 1_555 1_555
O12A Tb2 1_555 1_555
O15A Tb2 1_555 1_555
O16A Tb2 1_555 1_555
Tb3 O9 1_555 1_555
N2 C9 1_555 1_555
N4 C18 1_555 1_555
N6 C27 1_555 1_555
N8 C36 1_555 1_555
N13 O18 1_555 1_555
O2 C1 1_555 1_555
O6 C10 1_555 1_555
O8 C11 1_555 1_555
O10 C19 1_555 1_555
O14 C28 1_555 1_555
O15 Tb2A 1_555 1_555
O16 Tb2A 1_555 1_555
C3 C4 1_555 1_555
C6 C7 1_555 1_555
C7 C8 1_555 1_555
C12 C13 1_555 1_555
C14 C15 1_555 1_555
C16 C17 1_555 1_555
C21 C22 1_555 1_555
C23 C24 1_555 1_555
C25 C26 1_555 1_555
C30 C31 1_555 1_555
C32 C33 1_555 1_555
C34 C35 1_555 1_555
C40 C41 1_555 1_555
C41 C42 1_555 1_555
C45 C46 1_555 1_555
C47 C48 1_555 1_555
C52 C53 1_555 1_555
C53 C54 1_555 1_555
C57 C58 1_555 1_555
C59 C60 1_555 1_555
Tb3A O15A 1_555 1_555

#END
