
#######################################################################
#
#                 Cambridge Crystallographic Data Centre
#                                CCDC 
#
#######################################################################
#
# If this CIF has been generated from an entry in the Cambridge 
# Structural Database, then it will include bibliographic, chemical, 
# crystal, experimental, refinement or atomic coordinate data resulting 
# from the CCDC's data processing and validation procedures.
#
#######################################################################

data_PEHXEH
_symmetry_cell_setting           monoclinic
_symmetry_space_group_name_H-M   'P 21/c'
_symmetry_Int_Tables_number      14
_space_group_name_Hall           '-P 2ybc'
loop_
_symmetry_equiv_pos_site_id
_symmetry_equiv_pos_as_xyz
1 x,y,z
2 -x,1/2+y,1/2-z
3 -x,-y,-z
4 x,1/2-y,1/2+z
_cell_length_a                   7.3300(2)
_cell_length_b                   7.0421(2)
_cell_length_c                   23.4314(7)
_cell_angle_alpha                90
_cell_angle_beta                 96.144(3)
_cell_angle_gamma                90
_cell_volume                     1202.55
loop_
_atom_site_label
_atom_site_type_symbol
_atom_site_fract_x
_atom_site_fract_y
_atom_site_fract_z
Gd1 Gd -0.22476(6) 0.67770(7) -0.00687(2)
C1 C 0.0786(14) 0.7297(16) 0.0786(5)
C2 C 0.2131(15) 0.7330(17) 0.1316(5)
H1 H 0.2102 0.6133 0.1520
H2 H 0.3365 0.7535 0.1215
C3 C 0.2297(16) 0.8880(19) 0.2228(5)
C4 C 0.3735(17) 0.7760(18) 0.2465(6)
H3 H 0.4319 0.6924 0.2237
C5 C 0.4296(16) 0.7903(18) 0.3051(5)
H4 H 0.5277 0.7176 0.3213
C6 C 0.3387(15) 0.9145(17) 0.3400(5)
C7 C 0.1976(16) 1.026(2) 0.3146(5)
H5 H 0.1375 1.1092 0.3370
C8 C 0.1439(17) 1.016(2) 0.2557(6)
H6 H 0.0512 1.0939 0.2388
C9 C 0.3959(14) 0.9221(15) 0.4030(4)
C10 C -0.5495(14) 0.9416(15) 0.0212(5)
O1 O -0.0557(10) 0.8436(11) 0.0715(3)
O2 O 0.0961(10) 0.5978(11) 0.0417(3)
O3 O 0.1599(13) 0.8836(13) 0.1660(4)
O4 O 0.5575(10) 0.8829(12) 0.4206(3)
O5 O 0.2741(10) 0.9640(11) 0.4354(3)
O6 O -0.0297(10) 0.7764(12) -0.0734(3)
H7 H 0.0722 0.7134 -0.0685
H8 H -0.0797 0.7572 -0.1081
O7 O -0.6959(10) 1.0110(11) 0.0359(3)
O8 O -0.4774(10) 0.7858(10) 0.0379(3)
Gd1B Gd -0.77524(6) 1.32230(7) 0.00687(2)
Gd1_2 Gd -1.22476(6) 1.67770(7) -0.00687(2)
Gd1A Gd -1.77524(6) 1.17770(7) -0.49313(2)
Gd1A_2 Gd 0.22476(6) 1.17770(7) 0.50687(2)
Gd1B_2 Gd 0.22476(6) 0.32230(7) 0.00687(2)
Gd1C Gd -1.22476(6) 0.82230(7) -0.50687(2)
Gd1C_2 Gd 0.77524(6) 0.82230(7) 0.49313(2)
C1B C -1.0786(14) 1.2703(16) -0.0786(5)
C2B C -1.2131(15) 1.2670(17) -0.1316(5)
H1B H -1.2102 1.3867 -0.1520
H2B H -1.3365 1.2465 -0.1215
C3B C -1.2297(16) 1.1120(19) -0.2228(5)
C4B C -1.3735(17) 1.2240(18) -0.2465(6)
H3B H -1.4319 1.3076 -0.2237
C5B C -1.4296(16) 1.2097(18) -0.3051(5)
H4B H -1.5277 1.2824 -0.3213
C6B C -1.3387(15) 1.0855(17) -0.3400(5)
C7B C -1.1976(16) 0.974(2) -0.3146(5)
H5B H -1.1375 0.8908 -0.3370
C8B C -1.1439(17) 0.984(2) -0.2557(6)
H6B H -1.0512 0.9061 -0.2388
C9B C -1.3959(14) 1.0779(15) -0.4030(4)
C10B C -0.4505(14) 1.0584(15) -0.0212(5)
O1B O -0.9443(10) 1.1564(11) -0.0715(3)
O2B O -1.0961(10) 1.4022(11) -0.0417(3)
O2_2 O -0.9039(10) 1.5978(11) 0.0417(3)
O2B_2 O -0.0961(10) 0.4022(11) -0.0417(3)
O3B O -1.1599(13) 1.1164(13) -0.1660(4)
O4B O -1.5575(10) 1.1171(12) -0.4206(3)
O4A O -0.5575(10) 1.3829(12) 0.0794(3)
O4C O -0.4425(10) 0.6171(12) -0.0794(3)
O5B O -1.2741(10) 1.0360(11) -0.4354(3)
O5A O -0.2741(10) 0.4640(11) 0.0646(3)
O5C O -0.7259(10) 1.5360(11) -0.0646(3)
O6B O -0.9703(10) 1.2236(12) 0.0734(3)
H7B H -1.0722 1.2866 0.0685
H8B H -0.9203 1.2428 0.1081
O7B O -0.3041(10) 0.9890(11) -0.0359(3)
O8B O -0.5226(10) 1.2142(10) -0.0379(3)
loop_
_geom_bond_atom_site_label_1
_geom_bond_atom_site_label_2
_geom_bond_site_symmetry_1
_geom_bond_site_symmetry_2
Gd1 O1 1_555 1_555
C1 C2 1_555 1_555
C2 H1 1_555 1_555
H2 C2 1_555 1_555
C3 C4 1_555 1_555
C4 H3 1_555 1_555
C5 C4 1_555 1_555
H4 C5 1_555 1_555
C6 C5 1_555 1_555
C7 C6 1_555 1_555
H5 C7 1_555 1_555
C8 C3 1_555 1_555
H6 C8 1_555 1_555
C9 C6 1_555 1_555
C10 O7 1_555 1_555
O1 C1 1_555 1_555
O2 Gd1 1_555 1_555
O3 C2 1_555 1_555
O4 C9 1_555 1_555
O5 C9 1_555 1_555
O6 Gd1 1_555 1_555
H7 O6 1_555 1_555
H8 O6 1_555 1_555
O7 Gd1B 1_555 1_555
O8 Gd1 1_555 1_555
Gd1B O1B 1_555 1_555
Gd1_2 O2B 1_555 1_555
Gd1A O4B 1_555 1_555
Gd1A_2 O5 1_555 1_555
Gd1B_2 O2 1_555 1_555
Gd1C O5B 1_555 1_555
Gd1C_2 O4 1_555 1_555
C1B C2B 1_555 1_555
C2B H1B 1_555 1_555
H2B C2B 1_555 1_555
C3B C4B 1_555 1_555
C4B H3B 1_555 1_555
C5B C4B 1_555 1_555
H4B C5B 1_555 1_555
C6B C5B 1_555 1_555
C7B C6B 1_555 1_555
H5B C7B 1_555 1_555
C8B C3B 1_555 1_555
H6B C8B 1_555 1_555
C9B C6B 1_555 1_555
C10B C10 1_555 1_555
O1B C1B 1_555 1_555
O2B Gd1B 1_555 1_555
O2_2 Gd1B 1_555 1_555
O2B_2 Gd1 1_555 1_555
O3B C2B 1_555 1_555
O4B C9B 1_555 1_555
O4A Gd1B 1_555 1_555
O4C Gd1 1_555 1_555
O5B C9B 1_555 1_555
O5A Gd1 1_555 1_555
O5C Gd1B 1_555 1_555
O6B Gd1B 1_555 1_555
H7B O6B 1_555 1_555
H8B O6B 1_555 1_555
O7B Gd1 1_555 1_555
O8B Gd1B 1_555 1_555
C1 O2 1_555 1_555
C3 O3 1_555 1_555
C7 C8 1_555 1_555
C10 O8 1_555 1_555
Gd1_2 O2_2 1_555 1_555
Gd1B_2 O2B_2 1_555 1_555
C1B O2B 1_555 1_555
C3B O3B 1_555 1_555
C7B C8B 1_555 1_555
C10B O7B 1_555 1_555
C10B O8B 1_555 1_555

#END
