
#######################################################################
#
#                 Cambridge Crystallographic Data Centre
#                                CCDC 
#
#######################################################################
#
# If this CIF has been generated from an entry in the Cambridge 
# Structural Database, then it will include bibliographic, chemical, 
# crystal, experimental, refinement or atomic coordinate data resulting 
# from the CCDC's data processing and validation procedures.
#
#######################################################################

data_PEHXIL
_symmetry_cell_setting           monoclinic
_symmetry_space_group_name_H-M   'P 21/c'
_symmetry_Int_Tables_number      14
_space_group_name_Hall           '-P 2ybc'
loop_
_symmetry_equiv_pos_site_id
_symmetry_equiv_pos_as_xyz
1 x,y,z
2 -x,1/2+y,1/2-z
3 -x,-y,-z
4 x,1/2-y,1/2+z
_cell_length_a                   7.3327(6)
_cell_length_b                   7.0342(4)
_cell_length_c                   23.4468(11)
_cell_angle_alpha                90
_cell_angle_beta                 96.161(5)
_cell_angle_gamma                90
_cell_volume                     1202.39
loop_
_atom_site_label
_atom_site_type_symbol
_atom_site_fract_x
_atom_site_fract_y
_atom_site_fract_z
Tb1 Tb 0.27513(9) 0.32226(10) -0.00688(3)
C1 C 0.577(2) 0.270(2) 0.0788(6)
C2 C 0.713(2) 0.268(2) 0.1317(6)
H1 H 0.8367 0.2477 0.1215
H2 H 0.7103 0.3880 0.1520
C3 C 0.730(2) 0.114(3) 0.2228(7)
C4 C 0.872(2) 0.225(2) 0.2464(8)
H3 H 0.9293 0.3097 0.2236
C5 C 0.929(2) 0.211(3) 0.3053(7)
H4 H 1.0279 0.2829 0.3214
C6 C 0.837(2) 0.087(2) 0.3400(7)
C7 C 0.699(2) -0.025(3) 0.3150(7)
H5 H 0.6403 -0.1090 0.3376
C8 C 0.644(2) -0.015(3) 0.2558(7)
H6 H 0.5509 -0.0939 0.2391
C9 C 0.8939(18) 0.078(2) 0.4032(6)
C10 C -0.051(2) 0.059(2) 0.0208(6)
O1 O 0.5957(14) 0.4016(16) 0.0415(4)
O2 O 0.4444(14) 0.1573(17) 0.0719(5)
O3 O 0.6593(18) 0.1170(19) 0.1658(5)
O4 O 0.7738(14) 0.0360(16) 0.4352(4)
O5 O 1.0571(15) 0.1170(16) 0.4205(5)
O6 O 0.4713(15) 0.2259(17) -0.0737(5)
H7 H 0.4963 0.1085 -0.0688
H8 H 0.4190 0.2433 -0.1074
O7 O -0.1951(14) -0.0110(16) 0.0362(4)
O8 O 0.0217(14) 0.2144(16) 0.0377(4)
Tb1B Tb -0.27513(9) -0.32226(10) 0.00688(3)
Tb1_2 Tb -0.72487(9) -0.67774(10) -0.00688(3)
Tb1A Tb -1.27513(9) -0.17774(10) -0.49312(3)
Tb1A_2 Tb 0.72487(9) -0.17774(10) 0.50688(3)
Tb1B_2 Tb 0.72487(9) 0.67774(10) 0.00688(3)
Tb1C Tb -0.72487(9) 0.17774(10) -0.50688(3)
Tb1C_2 Tb 1.27513(9) 0.17774(10) 0.49312(3)
C1B C -0.577(2) -0.270(2) -0.0788(6)
C2B C -0.713(2) -0.268(2) -0.1317(6)
H1B H -0.8367 -0.2477 -0.1215
H2B H -0.7103 -0.3880 -0.1520
C3B C -0.730(2) -0.114(3) -0.2228(7)
C4B C -0.872(2) -0.225(2) -0.2464(8)
H3B H -0.9293 -0.3097 -0.2236
C5B C -0.929(2) -0.211(3) -0.3053(7)
H4B H -1.0279 -0.2829 -0.3214
C6B C -0.837(2) -0.087(2) -0.3400(7)
C7B C -0.699(2) 0.025(3) -0.3150(7)
H5B H -0.6403 0.1090 -0.3376
C8B C -0.644(2) 0.015(3) -0.2558(7)
H6B H -0.5509 0.0939 -0.2391
C9B C -0.8939(18) -0.078(2) -0.4032(6)
C10B C 0.051(2) -0.059(2) -0.0208(6)
O1B O -0.5957(14) -0.4016(16) -0.0415(4)
O1_2 O -0.4043(14) -0.5984(16) 0.0415(4)
O1B_2 O 0.4043(14) 0.5984(16) -0.0415(4)
O2B O -0.4444(14) -0.1573(17) -0.0719(5)
O3B O -0.6593(18) -0.1170(19) -0.1658(5)
O4B O -0.7738(14) -0.0360(16) -0.4352(4)
O4A O 0.2262(14) 0.5360(16) 0.0648(4)
O4C O -0.2262(14) -0.5360(16) -0.0648(4)
O5B O -1.0571(15) -0.1170(16) -0.4205(5)
O5A O -0.0571(15) -0.3830(16) 0.0795(5)
O5C O 0.0571(15) 0.3830(16) -0.0795(5)
O6B O -0.4713(15) -0.2259(17) 0.0737(5)
H7B H -0.4963 -0.1085 0.0688
H8B H -0.4190 -0.2433 0.1074
O7B O 0.1951(14) 0.0110(16) -0.0362(4)
O8B O -0.0217(14) -0.2144(16) -0.0377(4)
loop_
_geom_bond_atom_site_label_1
_geom_bond_atom_site_label_2
_geom_bond_site_symmetry_1
_geom_bond_site_symmetry_2
Tb1 O1 1_555 1_555
C1 C2 1_555 1_555
C2 H1 1_555 1_555
H2 C2 1_555 1_555
C3 C4 1_555 1_555
C4 H3 1_555 1_555
C5 C4 1_555 1_555
H4 C5 1_555 1_555
C6 C5 1_555 1_555
C7 C6 1_555 1_555
H5 C7 1_555 1_555
C8 C3 1_555 1_555
H6 C8 1_555 1_555
C9 C6 1_555 1_555
C10 O7 1_555 1_555
O1 C1 1_555 1_555
O2 Tb1 1_555 1_555
O3 C2 1_555 1_555
O4 C9 1_555 1_555
O5 C9 1_555 1_555
O6 Tb1 1_555 1_555
H7 O6 1_555 1_555
H8 O6 1_555 1_555
O7 Tb1B 1_555 1_555
O8 Tb1 1_555 1_555
Tb1B O1B 1_555 1_555
Tb1_2 O1B 1_555 1_555
Tb1A O5B 1_555 1_555
Tb1A_2 O4 1_555 1_555
Tb1B_2 O1 1_555 1_555
Tb1C O4B 1_555 1_555
Tb1C_2 O5 1_555 1_555
C1B C2B 1_555 1_555
C2B H1B 1_555 1_555
H2B C2B 1_555 1_555
C3B C4B 1_555 1_555
C4B H3B 1_555 1_555
C5B C4B 1_555 1_555
H4B C5B 1_555 1_555
C6B C5B 1_555 1_555
C7B C6B 1_555 1_555
H5B C7B 1_555 1_555
C8B C3B 1_555 1_555
H6B C8B 1_555 1_555
C9B C6B 1_555 1_555
C10B C10 1_555 1_555
O1B C1B 1_555 1_555
O1_2 Tb1B 1_555 1_555
O1B_2 Tb1 1_555 1_555
O2B Tb1B 1_555 1_555
O3B C2B 1_555 1_555
O4B C9B 1_555 1_555
O4A Tb1 1_555 1_555
O4C Tb1B 1_555 1_555
O5B C9B 1_555 1_555
O5A Tb1B 1_555 1_555
O5C Tb1 1_555 1_555
O6B Tb1B 1_555 1_555
H7B O6B 1_555 1_555
H8B O6B 1_555 1_555
O7B Tb1 1_555 1_555
O8B Tb1B 1_555 1_555
C1 O2 1_555 1_555
C3 O3 1_555 1_555
C7 C8 1_555 1_555
C10 O8 1_555 1_555
Tb1_2 O1_2 1_555 1_555
Tb1B_2 O1B_2 1_555 1_555
C1B O2B 1_555 1_555
C3B O3B 1_555 1_555
C7B C8B 1_555 1_555
C10B O7B 1_555 1_555
C10B O8B 1_555 1_555

#END
