
#######################################################################
#
#                 Cambridge Crystallographic Data Centre
#                                CCDC 
#
#######################################################################
#
# If this CIF has been generated from an entry in the Cambridge 
# Structural Database, then it will include bibliographic, chemical, 
# crystal, experimental, refinement or atomic coordinate data resulting 
# from the CCDC's data processing and validation procedures.
#
#######################################################################

data_PEJBOX
_symmetry_cell_setting           monoclinic
_symmetry_space_group_name_H-M   'C 2/c'
_symmetry_Int_Tables_number      15
_space_group_name_Hall           '-C 2yn'
loop_
_symmetry_equiv_pos_site_id
_symmetry_equiv_pos_as_xyz
1 x,y,z
2 -x,y,1/2-z
3 1/2+x,1/2+y,z
4 1/2-x,1/2+y,1/2-z
5 -x,-y,-z
6 x,-y,1/2+z
7 1/2-x,1/2-y,-z
8 1/2+x,1/2-y,1/2+z
_cell_length_a                   29.2153(11)
_cell_length_b                   18.7144(6)
_cell_length_c                   20.3431(7)
_cell_angle_alpha                90
_cell_angle_beta                 107.516(4)
_cell_angle_gamma                90
_cell_volume                     10606.8
loop_
_atom_site_label
_atom_site_type_symbol
_atom_site_fract_x
_atom_site_fract_y
_atom_site_fract_z
Zn1 Zn 0.342624(13) 0.099298(19) 0.956654(17)
Zn2 Zn 0.879980(13) 0.248400(18) 0.823610(18)
O1 O 0.28009(9) 0.09387(11) 0.87685(11)
O2 O 0.31348(9) -0.00979(13) 0.90879(12)
O3 O 0.38558(9) 0.14365(16) 0.88619(13)
O4 O 0.81394(8) 0.20556(12) 0.79286(12)
C1 C 0.95165(17) 0.3723(3) 0.6431(2)
H1 H 0.9666 0.3760 0.6088
O5 O 0.41427(9) 0.07915(14) 0.97859(12)
N1 N 0.61071(10) 0.16037(14) 0.84448(14)
N2 N 0.32027(9) 0.07251(13) 1.04243(12)
O6 O 0.82509(10) 0.26808(16) 0.88628(16)
N3 N 0.88539(9) 0.35552(12) 0.79564(12)
N4 N 0.33365(9) 0.20172(13) 0.99356(12)
N5 N 0.60721(10) 0.14417(15) 0.90237(14)
O7 O -0.06264(10) -0.24497(16) 0.40698(14)
C2 C 0.79966(12) 0.22949(17) 0.84096(18)
C3 C 0.30844(10) 0.13107(15) 1.07358(13)
N6 N 0.90744(10) 0.23591(14) 0.74038(14)
C4 C 0.65889(11) 0.17645(16) 0.84675(16)
C5 C 0.28875(11) 0.12571(17) 1.12882(14)
N7 N 0.10941(12) -0.07171(17) 0.61498(18)
C6 C 0.9506(2) 0.2414(4) 0.6357(3)
H2 H 0.9653 0.2426 0.6010
C7 C 0.20837(13) 0.03434(17) 0.76793(17)
H3 H 0.2117 0.0838 0.7700
C8 C 0.55914(11) 0.13356(18) 0.90364(16)
C9 C 0.66946(11) 0.17215(15) 0.78483(16)
H4 H 0.6457 0.1595 0.7446
C10 C 0.31575(10) 0.19958(15) 1.04773(14)
N8 N 0.12825(12) -0.10807(16) 0.66454(17)
O8 O -0.07957(12) -0.13620(19) 0.36739(17)
C11 C 0.28055(11) 0.02691(17) 0.87093(15)
C12 C 0.46885(12) 0.11741(17) 0.91922(17)
C13 C 0.75033(11) 0.20924(15) 0.84221(16)
C14 C 0.90703(11) 0.36225(16) 0.74605(14)
C15 C 0.23492(13) -0.08100(17) 0.81371(17)
H5 H 0.2566 -0.1095 0.8458
C16 C 0.24030(11) -0.00735(15) 0.81597(15)
C17 C 0.91883(11) 0.29852(18) 0.71646(15)
C18 C 0.71568(11) 0.18682(15) 0.78336(16)
H6 H 0.7234 0.1815 0.7425
C19 C 0.06922(14) -0.10446(19) 0.56506(19)
C20 C 0.50848(13) 0.09310(18) 0.96947(19)
H7 H 0.5049 0.0710 1.0086
C21 C 0.51941(13) 0.1569(2) 0.85250(17)
H8 H 0.5229 0.1781 0.8129
C22 C 0.41959(13) 0.11394(19) 0.92763(18)
C23 C 0.16610(13) -0.06987(17) 0.71477(18)
C24 C 0.9387(2) 0.1782(4) 0.6587(3)
H9 H 0.9449 0.1360 0.6388
C25 C 0.47451(13) 0.1485(2) 0.86026(17)
H10 H 0.4476 0.1639 0.8255
C26 C 0.69355(13) 0.1977(2) 0.90639(19)
H11 H 0.6865 0.2003 0.9479
C27 C 0.30348(12) 0.26158(16) 1.07741(16)
C28 C -0.05470(14) -0.1796(3) 0.4094(2)
C29 C 0.01065(13) -0.1965(2) 0.52040(19)
H12 H -0.0015 -0.2419 0.5236
C30 C -0.01108(12) -0.1529(2) 0.46549(18)
C31 C 0.73856(13) 0.2148(2) 0.90330(18)
H13 H 0.7617 0.2304 0.9430
C32 C 0.55388(14) 0.1013(2) 0.96212(19)
H14 H 0.5807 0.0852 0.9965
C33 C 0.17105(13) 0.00354(17) 0.71608(17)
H15 H 0.1499 0.0319 0.6830
C34 C 0.27752(13) 0.19036(19) 1.15835(17)
H16 H 0.2651 0.1878 1.1954
C35 C 0.31033(14) 0.32695(18) 1.04962(19)
H17 H 0.3026 0.3691 1.0680
C36 C 0.19736(14) -0.11192(17) 0.76382(19)
H18 H 0.1931 -0.1612 0.7632
C37 C 0.28069(14) 0.05715(19) 1.15008(17)
H19 H 0.2676 0.0511 1.1861
C38 C 0.29217(15) -0.00066(19) 1.11782(18)
H20 H 0.2867 -0.0465 1.1315
C39 C 0.94073(14) 0.3035(3) 0.66430(18)
C40 C 0.31197(13) 0.00856(18) 1.06468(17)
H21 H 0.3198 -0.0318 1.0436
C41 C 0.32844(15) 0.32915(18) 0.9953(2)
H22 H 0.3336 0.3727 0.9768
C42 C 0.04753(16) -0.0623(2) 0.5090(2)
H23 H 0.0600 -0.0175 0.5045
C43 C 0.28448(14) 0.25389(19) 1.13398(18)
H24 H 0.2767 0.2947 1.1544
C44 C 0.91810(14) 0.4296(2) 0.72399(18)
C45 C 0.33912(14) 0.26507(19) 0.96777(19)
H25 H 0.3505 0.2670 0.9298
C46 C 0.05141(14) -0.1716(2) 0.57168(19)
H26 H 0.0662 -0.1999 0.6097
C47 C 0.87329(14) 0.41325(18) 0.82378(18)
H27 H 0.8583 0.4084 0.8579
C48 C 0.00709(15) -0.0868(2) 0.4594(2)
H28 H -0.0079 -0.0582 0.4217
C49 C 0.94074(18) 0.4315(3) 0.6714(2)
H29 H 0.9482 0.4756 0.6563
C50 C 0.88263(19) 0.4813(2) 0.8032(2)
H30 H 0.8730 0.5215 0.8225
C51 C 0.90552(18) 0.4889(2) 0.7555(2)
H31 H 0.9130 0.5344 0.7435
C52 C 0.91724(18) 0.1752(2) 0.7123(3)
H32 H 0.9099 0.1313 0.7280
Zn2E Zn -0.120020(13) -0.248400(18) 0.323610(18)
O7E O 0.93736(10) 0.24497(16) 0.90698(14)
O8E O 0.92043(12) 0.13620(19) 0.86739(17)
loop_
_geom_bond_atom_site_label_1
_geom_bond_atom_site_label_2
_geom_bond_site_symmetry_1
_geom_bond_site_symmetry_2
Zn1 O1 1_555 1_555
Zn2 O4 1_555 1_555
O1 C11 1_555 1_555
O2 Zn1 1_555 1_555
O3 Zn1 1_555 1_555
O4 C2 1_555 1_555
C1 H1 1_555 1_555
O5 Zn1 1_555 1_555
N1 N5 1_555 1_555
N2 Zn1 1_555 1_555
O6 Zn2 1_555 1_555
N3 Zn2 1_555 1_555
N4 Zn1 1_555 1_555
N5 C8 1_555 1_555
O7 C28 1_555 1_555
C2 O6 1_555 1_555
C3 N2 1_555 1_555
N6 Zn2 1_555 1_555
C4 N1 1_555 1_555
C5 C3 1_555 1_555
N7 N8 1_555 1_555
C6 H2 1_555 1_555
C7 H3 1_555 1_555
C8 C21 1_555 1_555
C9 C4 1_555 1_555
H4 C9 1_555 1_555
C10 N4 1_555 1_555
N8 C23 1_555 1_555
O8 C28 1_555 1_555
C11 O2 1_555 1_555
C12 C20 1_555 1_555
C13 C2 1_555 1_555
C14 N3 1_555 1_555
C15 H5 1_555 1_555
C16 C7 1_555 1_555
C17 N6 1_555 1_555
C18 C9 1_555 1_555
H6 C18 1_555 1_555
C19 N7 1_555 1_555
C20 H7 1_555 1_555
C21 H8 1_555 1_555
C22 O3 1_555 1_555
C23 C33 1_555 1_555
C24 C6 1_555 1_555
H9 C24 1_555 1_555
C25 C12 1_555 1_555
H10 C25 1_555 1_555
C26 C4 1_555 1_555
H11 C26 1_555 1_555
C27 C10 1_555 1_555
C28 C30 1_555 1_555
C29 H12 1_555 1_555
C30 C29 1_555 1_555
C31 C13 1_555 1_555
H13 C31 1_555 1_555
C32 C8 1_555 1_555
H14 C32 1_555 1_555
C33 C7 1_555 1_555
H15 C33 1_555 1_555
C34 C5 1_555 1_555
H16 C34 1_555 1_555
C35 C27 1_555 1_555
H17 C35 1_555 1_555
C36 C15 1_555 1_555
H18 C36 1_555 1_555
C37 C5 1_555 1_555
H19 C37 1_555 1_555
C38 C37 1_555 1_555
H20 C38 1_555 1_555
C39 C1 1_555 1_555
C40 N2 1_555 1_555
H21 C40 1_555 1_555
C41 C35 1_555 1_555
H22 C41 1_555 1_555
C42 C19 1_555 1_555
H23 C42 1_555 1_555
C43 C27 1_555 1_555
H24 C43 1_555 1_555
C44 C14 1_555 1_555
C45 N4 1_555 1_555
H25 C45 1_555 1_555
C46 C19 1_555 1_555
H26 C46 1_555 1_555
C47 N3 1_555 1_555
H27 C47 1_555 1_555
C48 C30 1_555 1_555
H28 C48 1_555 1_555
C49 C1 1_555 1_555
H29 C49 1_555 1_555
C50 C47 1_555 1_555
H30 C50 1_555 1_555
C51 C44 1_555 1_555
H31 C51 1_555 1_555
C52 N6 1_555 1_555
H32 C52 1_555 1_555
Zn2E O7 1_555 1_555
O7E Zn2 1_555 1_555
O8E Zn2 1_555 1_555
O5 C22 1_555 1_555
C3 C10 1_555 1_555
C6 C39 1_555 1_555
O8 Zn2E 1_555 1_555
C11 C16 1_555 1_555
C12 C22 1_555 1_555
C13 C18 1_555 1_555
C14 C17 1_555 1_555
C15 C16 1_555 1_555
C17 C39 1_555 1_555
C20 C32 1_555 1_555
C21 C25 1_555 1_555
C23 C36 1_555 1_555
C24 C52 1_555 1_555
C26 C31 1_555 1_555
C29 C46 1_555 1_555
C34 C43 1_555 1_555
C38 C40 1_555 1_555
C41 C45 1_555 1_555
C42 C48 1_555 1_555
C44 C49 1_555 1_555
C50 C51 1_555 1_555

#END
