
#######################################################################
#
#                 Cambridge Crystallographic Data Centre
#                                CCDC 
#
#######################################################################
#
# If this CIF has been generated from an entry in the Cambridge 
# Structural Database, then it will include bibliographic, chemical, 
# crystal, experimental, refinement or atomic coordinate data resulting 
# from the CCDC's data processing and validation procedures.
#
#######################################################################

data_PEJCEO
_symmetry_cell_setting           monoclinic
_symmetry_space_group_name_H-M   'C 2/c'
_symmetry_Int_Tables_number      15
_space_group_name_Hall           '-C 2yn'
loop_
_symmetry_equiv_pos_site_id
_symmetry_equiv_pos_as_xyz
1 x,y,z
2 -x,y,1/2-z
3 1/2+x,1/2+y,z
4 1/2-x,1/2+y,1/2-z
5 -x,-y,-z
6 x,-y,1/2+z
7 1/2-x,1/2-y,-z
8 1/2+x,1/2-y,1/2+z
_cell_length_a                   25.453(3)
_cell_length_b                   19.230(3)
_cell_length_c                   19.513(3)
_cell_angle_alpha                90
_cell_angle_beta                 106.914(16)
_cell_angle_gamma                90
_cell_volume                     9137.71
loop_
_atom_site_label
_atom_site_type_symbol
_atom_site_fract_x
_atom_site_fract_y
_atom_site_fract_z
N1 N 0.3937(6) 0.0930(6) 0.0960(8)
C1 C 0.4362(8) 0.0562(16) 0.1516(11)
H1 H 0.4324 0.0070 0.1433
H2 H 0.4320 0.0667 0.1978
H3 H 0.4719 0.0709 0.1500
C2 C 0.3556(16) 0.0652(11) 0.0383(18)
H4 H 0.3314 0.0837 -0.0029
C3 C 0.3849(5) 0.1654(6) 0.0893(8)
H5 H 0.3543 0.1749 0.0482
H6 H 0.4172 0.1878 0.0838
H7 H 0.3773 0.1829 0.1315
O1 O 0.3663(12) 0.0050(14) 0.0629(14)
Zn1 Zn 0.16362(3) 0.90014(4) 0.04605(4)
Zn2 Zn 0.61124(3) 1.23580(5) 0.64681(4)
N2 N 0.16795(19) 0.7995(3) 0.0073(3)
C4 C 0.5774(2) 1.2793(4) 0.7701(3)
O2 O 0.22866(18) 0.9235(2) 0.1260(2)
N3 N 0.6074(2) 1.3387(3) 0.6833(3)
O3 O 0.5474(2) 1.2364(3) 0.5554(3)
C5 C 0.1950(2) 0.7360(3) -0.0851(3)
C6 C 0.1981(2) 0.8636(3) -0.0797(3)
C7 C 0.1861(2) 0.7979(3) -0.0511(3)
O4 O 0.08290(18) 0.9238(3) 0.0253(3)
O5 O -0.30956(19) 0.8113(3) 0.1903(3)
C8 C 0.5886(2) 1.3425(4) 0.7401(3)
N4 N 0.5849(2) 1.2203(3) 0.7388(3)
C9 C 0.2139(2) 0.7395(4) -0.1472(3)
H8 H 0.2189 0.6985 -0.1699
C10 C 0.2244(3) 0.8004(4) -0.1733(3)
H9 H 0.2367 0.8014 -0.2137
C11 C 0.1654(3) 0.6746(4) 0.0028(4)
H10 H 0.1578 0.6332 0.0226
O6 O 0.2031(2) 1.0294(3) 0.0849(3)
C12 C 0.2168(2) 0.8647(3) -0.1392(3)
C13 C 0.2799(2) 1.0183(3) 0.1884(3)
C14 C 0.1580(2) 0.7378(3) 0.0336(4)
H11 H 0.1457 0.7373 0.0740
N5 N 0.19017(19) 0.9220(3) -0.0443(3)
C15 C -0.2404(3) 0.8125(3) 0.1327(4)
C16 C 0.5587(3) 1.2799(6) 0.8315(4)
C17 C -0.0774(3) 0.9036(4) 0.0506(4)
H12 H -0.1081 0.9220 0.0171
O7 O 0.11463(19) 0.8585(3) 0.1222(3)
C18 C 0.4099(3) 1.0981(3) 0.3658(4)
O8 O -0.3257(2) 0.7536(3) 0.0923(3)
C19 C 0.3337(3) 1.1139(3) 0.2511(4)
H13 H 0.3399 1.1617 0.2548
C20 C -0.2320(3) 0.8142(4) 0.0667(4)
H14 H -0.2608 0.8021 0.0269
C21 C 0.0143(3) 0.8478(4) 0.1471(4)
H15 H 0.0451 0.8281 0.1793
C22 C 0.1839(2) 0.6732(4) -0.0562(4)
H16 H 0.1890 0.6311 -0.0768
C23 C 0.3653(2) 1.0707(4) 0.3039(3)
C24 C 0.4933(3) 1.1464(4) 0.4870(4)
C25 C 0.4705(3) 1.0814(4) 0.4872(5)
H17 H 0.4825 1.0535 0.5277
C26 C 0.0760(3) 0.8899(4) 0.0784(4)
C27 C 0.3530(3) 1.0008(4) 0.2974(4)
H18 H 0.3731 0.9703 0.3321
C28 C -0.1974(3) 0.8299(4) 0.1922(4)
H19 H -0.2026 0.8295 0.2375
C29 C 0.2931(3) 1.0879(4) 0.1926(4)
H20 H 0.2746 1.1179 0.1561
C30 C 0.5800(3) 1.4056(5) 0.7721(5)
C31 C 0.3113(3) 0.9747(4) 0.2403(4)
H21 H 0.3045 0.9271 0.2371
O9 O 0.5654(2) 1.1302(3) 0.5941(3)
C32 C 0.2338(3) 0.9898(4) 0.1281(4)
C33 C 0.5496(4) 1.2160(10) 0.8594(6)
H22 H 0.5371 1.2143 0.8997
C34 C 0.0200(3) 0.8862(4) 0.0889(4)
C35 C -0.0261(3) 0.9141(4) 0.0418(4)
H23 H -0.0227 0.9404 0.0033
C36 C -0.0842(3) 0.8660(4) 0.1089(3)
C37 C -0.1374(3) 0.8496(3) 0.1170(4)
C38 C 0.4310(3) 1.1632(4) 0.3684(4)
H24 H 0.4182 1.1926 0.3293
C39 C -0.2958(3) 0.7912(4) 0.1398(4)
C40 C 0.5502(3) 1.3468(9) 0.8606(6)
H25 H 0.5366 1.3487 0.9000
C41 C 0.5614(4) 1.4055(8) 0.8320(8)
H26 H 0.5566 1.4476 0.8528
C42 C 0.2307(3) 0.9301(4) -0.1630(4)
H27 H 0.2443 0.9330 -0.2023
C43 C 0.4298(3) 1.0568(4) 0.4281(5)
H28 H 0.4155 1.0125 0.4294
C44 C 0.5762(3) 1.1601(5) 0.7673(5)
H29 H 0.5818 1.1185 0.7461
C45 C -0.1817(3) 0.8336(4) 0.0565(4)
H30 H -0.1777 0.8358 0.0107
C46 C 0.6124(5) 1.4633(6) 0.6849(7)
H31 H 0.6218 1.5041 0.6658
C47 C 0.6205(3) 1.3970(5) 0.6552(5)
H32 H 0.6348 1.3949 0.6165
C48 C 0.5387(3) 1.1715(5) 0.5495(4)
C49 C 0.5585(4) 1.1585(9) 0.8292(6)
H33 H 0.5531 1.1160 0.8488
C50 C 0.2040(3) 0.9821(4) -0.0693(4)
H34 H 0.1998 1.0227 -0.0455
C51 C 0.5914(4) 1.4659(6) 0.7396(8)
H35 H 0.5842 1.5089 0.7566
C52 C -0.1477(3) 0.8476(4) 0.1847(4)
H36 H -0.1194 0.8590 0.2254
C53 C 0.2238(3) 0.9885(4) -0.1269(4)
H37 H 0.2324 1.0320 -0.1413
C54 C 0.4719(3) 1.1872(4) 0.4288(4)
H38 H 0.4846 1.2325 0.4290
C55 C -0.0366(3) 0.8388(4) 0.1572(4)
H39 H -0.0395 0.8142 0.1970
Zn2E Zn -0.38876(3) 0.76420(5) 0.14681(4)
O5E O 0.69044(19) 1.1887(3) 0.6903(3)
O8E O 0.6743(2) 1.2464(3) 0.5923(3)
loop_
_geom_bond_atom_site_label_1
_geom_bond_atom_site_label_2
_geom_bond_site_symmetry_1
_geom_bond_site_symmetry_2
N1 C1 1_555 1_555
C1 H1 1_555 1_555
H2 C1 1_555 1_555
H3 C1 1_555 1_555
C2 N1 1_555 1_555
H4 C2 1_555 1_555
C3 N1 1_555 1_555
H5 C3 1_555 1_555
H6 C3 1_555 1_555
H7 C3 1_555 1_555
O1 C2 1_555 1_555
Zn1 N2 1_555 1_555
Zn2 N3 1_555 1_555
N2 C7 1_555 1_555
C4 C8 1_555 1_555
O2 Zn1 1_555 1_555
N3 C8 1_555 1_555
O3 Zn2 1_555 1_555
C5 C7 1_555 1_555
C6 C7 1_555 1_555
O4 Zn1 1_555 1_555
O5 C39 1_555 1_555
C8 C30 1_555 1_555
N4 Zn2 1_555 1_555
C9 C5 1_555 1_555
H8 C9 1_555 1_555
C10 C9 1_555 1_555
H9 C10 1_555 1_555
C11 H10 1_555 1_555
O6 C32 1_555 1_555
C12 C6 1_555 1_555
C13 C29 1_555 1_555
C14 N2 1_555 1_555
H11 C14 1_555 1_555
N5 Zn1 1_555 1_555
C15 C20 1_555 1_555
C16 C4 1_555 1_555
C17 H12 1_555 1_555
O7 Zn1 1_555 1_555
C18 C23 1_555 1_555
O8 C39 1_555 1_555
C19 H13 1_555 1_555
C20 H14 1_555 1_555
C21 H15 1_555 1_555
C22 C5 1_555 1_555
H16 C22 1_555 1_555
C23 C19 1_555 1_555
C24 C25 1_555 1_555
C25 H17 1_555 1_555
C26 O4 1_555 1_555
C27 C23 1_555 1_555
H18 C27 1_555 1_555
C28 C15 1_555 1_555
H19 C28 1_555 1_555
C29 C19 1_555 1_555
H20 C29 1_555 1_555
C30 C41 1_555 1_555
C31 C13 1_555 1_555
H21 C31 1_555 1_555
O9 Zn2 1_555 1_555
C32 O2 1_555 1_555
C33 C16 1_555 1_555
H22 C33 1_555 1_555
C34 C21 1_555 1_555
C35 C17 1_555 1_555
H23 C35 1_555 1_555
C36 C17 1_555 1_555
C37 C36 1_555 1_555
C38 C18 1_555 1_555
H24 C38 1_555 1_555
C39 C15 1_555 1_555
C40 C16 1_555 1_555
H25 C40 1_555 1_555
C41 C40 1_555 1_555
H26 C41 1_555 1_555
C42 C12 1_555 1_555
H27 C42 1_555 1_555
C43 C18 1_555 1_555
H28 C43 1_555 1_555
C44 N4 1_555 1_555
H29 C44 1_555 1_555
C45 C20 1_555 1_555
H30 C45 1_555 1_555
C46 H31 1_555 1_555
C47 N3 1_555 1_555
H32 C47 1_555 1_555
C48 O3 1_555 1_555
C49 C33 1_555 1_555
H33 C49 1_555 1_555
C50 N5 1_555 1_555
H34 C50 1_555 1_555
C51 C30 1_555 1_555
H35 C51 1_555 1_555
C52 C28 1_555 1_555
H36 C52 1_555 1_555
C53 C42 1_555 1_555
H37 C53 1_555 1_555
C54 C24 1_555 1_555
H38 C54 1_555 1_555
C55 C21 1_555 1_555
H39 C55 1_555 1_555
Zn2E O5 1_555 1_555
O5E Zn2 1_555 1_555
O8E Zn2 1_555 1_555
C4 N4 1_555 1_555
C6 N5 1_555 1_555
C10 C12 1_555 1_555
C11 C14 1_555 1_555
C11 C22 1_555 1_555
C13 C32 1_555 1_555
O7 C26 1_555 1_555
O8 Zn2E 1_555 1_555
C24 C48 1_555 1_555
C25 C43 1_555 1_555
C26 C34 1_555 1_555
C27 C31 1_555 1_555
O9 C48 1_555 1_555
C34 C35 1_555 1_555
C36 C55 1_555 1_555
C37 C45 1_555 1_555
C37 C52 1_555 1_555
C38 C54 1_555 1_555
C44 C49 1_555 1_555
C46 C47 1_555 1_555
C46 C51 1_555 1_555
C50 C53 1_555 1_555

#END
