
#######################################################################
#
#                 Cambridge Crystallographic Data Centre
#                                CCDC 
#
#######################################################################
#
# If this CIF has been generated from an entry in the Cambridge 
# Structural Database, then it will include bibliographic, chemical, 
# crystal, experimental, refinement or atomic coordinate data resulting 
# from the CCDC's data processing and validation procedures.
#
#######################################################################

data_PEJDOZ
_symmetry_cell_setting           monoclinic
_symmetry_space_group_name_H-M   'P 21/c'
_symmetry_Int_Tables_number      14
_space_group_name_Hall           '-P 2ybc'
loop_
_symmetry_equiv_pos_site_id
_symmetry_equiv_pos_as_xyz
1 x,y,z
2 -x,1/2+y,1/2-z
3 -x,-y,-z
4 x,1/2-y,1/2+z
_cell_length_a                   12.5956(17)
_cell_length_b                   13.2999(18)
_cell_length_c                   9.7711(13)
_cell_angle_alpha                90
_cell_angle_beta                 101.025(2)
_cell_angle_gamma                90
_cell_volume                     1606.65
loop_
_atom_site_label
_atom_site_type_symbol
_atom_site_fract_x
_atom_site_fract_y
_atom_site_fract_z
Pb1 Pb 0.021438(17) 0.358986(17) 0.12171(2)
N1 N 0.2196(4) 0.3402(4) 0.1647(5)
N2 N 0.9065(4) 0.5119(3) 0.6889(4)
O1 O 0.1113(4) 0.4724(3) -0.0145(4)
O2 O 0.2622(5) 0.5408(7) -0.0529(8)
O3 O 0.9601(4) 0.7049(3) 0.6396(4)
O4 O 0.9269(4) 0.6744(3) 0.4112(5)
C1 C 0.2764(6) 0.3987(7) 0.0937(7)
C2 C 0.3851(7) 0.3843(8) 0.1020(8)
H1 H 0.4228 0.4259 0.0514
C3 C 0.4392(6) 0.3098(9) 0.1832(8)
C4 C 0.3815(7) 0.2518(9) 0.2605(8)
H2 H 0.4160 0.2023 0.3201
C5 C 0.2706(6) 0.2685(7) 0.2479(7)
H3 H 0.2313 0.2288 0.2987
C6 C 0.2131(7) 0.4780(6) 0.0000(7)
C7 C 0.5606(6) 0.2927(9) 0.2032(8)
H4 H 0.5756 0.2215 0.2164
H5 H 0.5855 0.3137 0.1197
C8 C 0.6216(6) 0.3493(6) 0.3255(7)
H6 H 0.5944 0.3304 0.4083
H7 H 0.6089 0.4207 0.3104
C9 C 0.7452(5) 0.3287(5) 0.3502(6)
H8 H 0.7588 0.2581 0.3715
H9 H 0.7723 0.3443 0.2662
C10 C 0.8035(4) 0.3924(4) 0.4699(6)
C11 C 0.8391(4) 0.4880(4) 0.4470(6)
H10 H 0.8287 0.5139 0.3570
C12 C 0.8899(4) 0.5444(4) 0.5574(6)
C13 C 0.8749(5) 0.4189(4) 0.7101(6)
H11 H 0.8887 0.3937 0.8005
C14 C 0.8221(5) 0.3575(4) 0.6034(6)
H12 H 0.7998 0.2934 0.6229
C15 C 0.9279(5) 0.6509(4) 0.5343(7)
Pb1B Pb 0.978562(17) 0.641014(17) 0.87829(2)
Pb1A Pb 0.978562(17) 0.858986(17) 0.37829(2)
N2B N 0.0935(4) 0.4881(3) 0.3111(4)
O3B O 0.0399(4) 0.2951(3) 0.3604(4)
O4A O 0.0731(4) 0.1744(3) 0.0888(5)
loop_
_geom_bond_atom_site_label_1
_geom_bond_atom_site_label_2
_geom_bond_site_symmetry_1
_geom_bond_site_symmetry_2
Pb1 N1 1_555 1_555
N1 C1 1_555 1_555
N2 C12 1_555 1_555
O1 Pb1 1_555 1_555
O2 C6 1_555 1_555
O3 C15 1_555 1_555
O4 C15 1_555 1_555
C1 C2 1_555 1_555
C2 H1 1_555 1_555
C3 C2 1_555 1_555
C4 C3 1_555 1_555
H2 C4 1_555 1_555
C5 N1 1_555 1_555
H3 C5 1_555 1_555
C6 O1 1_555 1_555
C7 C3 1_555 1_555
H4 C7 1_555 1_555
H5 C7 1_555 1_555
C8 C7 1_555 1_555
H6 C8 1_555 1_555
H7 C8 1_555 1_555
C9 C8 1_555 1_555
H8 C9 1_555 1_555
H9 C9 1_555 1_555
C10 C9 1_555 1_555
C11 C10 1_555 1_555
H10 C11 1_555 1_555
C12 C11 1_555 1_555
C13 N2 1_555 1_555
H11 C13 1_555 1_555
C14 C10 1_555 1_555
H12 C14 1_555 1_555
C15 C12 1_555 1_555
Pb1B N2 1_555 1_555
Pb1A O4 1_555 1_555
N2B Pb1 1_555 1_555
O3B Pb1 1_555 1_555
O4A Pb1 1_555 1_555
O3 Pb1B 1_555 1_555
C1 C6 1_555 1_555
C4 C5 1_555 1_555
C13 C14 1_555 1_555

#END
