
#######################################################################
#
#                 Cambridge Crystallographic Data Centre
#                                CCDC 
#
#######################################################################
#
# If this CIF has been generated from an entry in the Cambridge 
# Structural Database, then it will include bibliographic, chemical, 
# crystal, experimental, refinement or atomic coordinate data resulting 
# from the CCDC's data processing and validation procedures.
#
#######################################################################

data_PEJDEO
_symmetry_cell_setting           monoclinic
_symmetry_space_group_name_H-M   'P 21/c'
_symmetry_Int_Tables_number      14
_space_group_name_Hall           '-P 2ybc'
loop_
_symmetry_equiv_pos_site_id
_symmetry_equiv_pos_as_xyz
1 x,y,z
2 -x,1/2+y,1/2-z
3 -x,-y,-z
4 x,1/2-y,1/2+z
_cell_length_a                   7.5801(19)
_cell_length_b                   16.324(5)
_cell_length_c                   16.857(4)
_cell_angle_alpha                90
_cell_angle_beta                 106.21(3)
_cell_angle_gamma                90
_cell_volume                     2002.92
loop_
_atom_site_label
_atom_site_type_symbol
_atom_site_fract_x
_atom_site_fract_y
_atom_site_fract_z
Mn1 Mn 0.87559(4) 0.23005(2) 0.19967(2)
Mn2 Mn 0.35508(4) 0.23872(2) 0.09699(2)
Cl1 Cl 0.62456(8) 0.33395(4) 0.15931(4)
Cl2 Cl 1.11603(8) 0.31341(4) 0.15430(4)
Cl3 Cl 0.27207(9) 0.31638(4) -0.03495(4)
O1 O 0.5022(2) 0.14880(11) 0.04250(10)
O2 O 0.4150(2) 0.16762(11) 0.21460(10)
O3 O 0.7195(2) 0.15121(11) 0.25774(10)
O4 O 0.1440(3) 0.14555(13) 0.05221(12)
H1 H 0.136(4) 0.120(2) 0.010(2)
H2 H 0.050(5) 0.150(2) 0.054(2)
O5 O 0.8038(2) 0.17268(11) 0.07875(10)
O6 O 0.9825(3) 0.27734(13) 0.32424(11)
H3 H 1.058(5) 0.248(2) 0.354(2)
H4 H 1.008(4) 0.328(2) 0.334(2)
N1 N 0.5096(3) 0.09258(12) -0.10913(12)
H7 H 0.415(4) 0.0808(17) -0.0907(16)
O8 O 1.0721(3) 0.12187(13) 0.22726(12)
H8 H 1.178(5) 0.135(2) 0.225(2)
H9 H 1.022(5) 0.095(2) 0.189(2)
C1 C 0.6793(3) 0.09374(18) -0.03961(15)
H10 H 0.7784 0.1167 -0.0586
H11 H 0.7125 0.0380 -0.0218
C2 C 0.5616(3) 0.14307(14) 0.26452(14)
N2 N 0.7165(3) 0.08076(14) 0.40127(13)
H12 H 0.793(4) 0.0694(18) 0.3733(17)
C3 C 0.5385(3) 0.09650(16) 0.33868(14)
H13 H 0.4596 0.1277 0.3640
H14 H 0.4785 0.0446 0.3204
C4 C 0.6585(3) 0.14328(14) 0.03326(14)
C5 C 0.4747(4) 0.17332(18) -0.15106(17)
H15 H 0.5758 0.1872 -0.1724
H16 H 0.4620 0.2143 -0.1122
H17 H 0.3638 0.1706 -0.1957
C6 C 0.5182(4) 0.02737(19) -0.16870(18)
H18 H 0.4057 0.0267 -0.2125
H19 H 0.5351 -0.0247 -0.1411
H20 H 0.6193 0.0377 -0.1912
C7 C 0.7870(4) 0.1548(2) 0.45119(18)
H21 H 0.7967 0.1991 0.4152
H22 H 0.9059 0.1434 0.4882
H23 H 0.7040 0.1699 0.4825
C8 C 0.7019(5) 0.0105(2) 0.4558(2)
H24 H 0.6159 0.0239 0.4863
H25 H 0.8201 -0.0002 0.4937
H26 H 0.6602 -0.0372 0.4226
Mn2_2 Mn 1.35508(4) 0.23872(2) 0.09699(2)
Cl2_2 Cl 0.11603(8) 0.31341(4) 0.15430(4)
Cl4 Cl 0.09852(9) 0.04457(4) -0.11671(4)
O7 O -0.0103(4) 0.49180(16) -0.15228(18)
H5 H 0.000(6) 0.481(3) -0.202(3)
H6 H -0.030(6) 0.545(3) -0.165(3)
loop_
_geom_bond_atom_site_label_1
_geom_bond_atom_site_label_2
_geom_bond_site_symmetry_1
_geom_bond_site_symmetry_2
Mn1 Cl1 1_555 1_555
Mn2 Cl1 1_555 1_555
Cl2 Mn1 1_555 1_555
Cl3 Mn2 1_555 1_555
O1 Mn2 1_555 1_555
O2 Mn2 1_555 1_555
O3 Mn1 1_555 1_555
O4 Mn2 1_555 1_555
H1 O4 1_555 1_555
H2 O4 1_555 1_555
O5 Mn1 1_555 1_555
O6 Mn1 1_555 1_555
H3 O6 1_555 1_555
H4 O6 1_555 1_555
O7 H5 1_555 1_555
H6 O7 1_555 1_555
N1 H7 1_555 1_555
O8 Mn1 1_555 1_555
H8 O8 1_555 1_555
H9 O8 1_555 1_555
C1 N1 1_555 1_555
H10 C1 1_555 1_555
H11 C1 1_555 1_555
C2 O2 1_555 1_555
N2 H12 1_555 1_555
C3 C2 1_555 1_555
H13 C3 1_555 1_555
H14 C3 1_555 1_555
C4 O1 1_555 1_555
C5 N1 1_555 1_555
H15 C5 1_555 1_555
H16 C5 1_555 1_555
H17 C5 1_555 1_555
C6 N1 1_555 1_555
H18 C6 1_555 1_555
H19 C6 1_555 1_555
H20 C6 1_555 1_555
C7 N2 1_555 1_555
H21 C7 1_555 1_555
H22 C7 1_555 1_555
H23 C7 1_555 1_555
C8 N2 1_555 1_555
H24 C8 1_555 1_555
H25 C8 1_555 1_555
H26 C8 1_555 1_555
Mn2_2 Cl2 1_555 1_555
Cl2_2 Mn2 1_555 1_555
O3 C2 1_555 1_555
O5 C4 1_555 1_555
C1 C4 1_555 1_555
N2 C3 1_555 1_555

#END
