
#######################################################################
#
#                 Cambridge Crystallographic Data Centre
#                                CCDC 
#
#######################################################################
#
# If this CIF has been generated from an entry in the Cambridge 
# Structural Database, then it will include bibliographic, chemical, 
# crystal, experimental, refinement or atomic coordinate data resulting 
# from the CCDC's data processing and validation procedures.
#
#######################################################################

data_PEJFAN
_symmetry_cell_setting           orthorhombic
_symmetry_space_group_name_H-M   'F d d 2'
_symmetry_Int_Tables_number      43
_space_group_name_Hall           'F 2 -2d'
loop_
_symmetry_equiv_pos_site_id
_symmetry_equiv_pos_as_xyz
1 x,y,z
2 -x,-y,z
3 1/4+x,1/4-y,1/4+z
4 1/4-x,1/4+y,1/4+z
5 x,1/2+y,1/2+z
6 -x,1/2-y,1/2+z
7 1/4+x,3/4-y,3/4+z
8 1/4-x,3/4+y,3/4+z
9 1/2+x,y,1/2+z
10 1/2-x,-y,1/2+z
11 3/4+x,1/4-y,3/4+z
12 3/4-x,1/4+y,3/4+z
13 1/2+x,1/2+y,z
14 1/2-x,1/2-y,z
15 3/4+x,3/4-y,1/4+z
16 3/4-x,3/4+y,1/4+z
_cell_length_a                   14.222(6)
_cell_length_b                   19.797(9)
_cell_length_c                   10.875(5)
_cell_angle_alpha                90
_cell_angle_beta                 90
_cell_angle_gamma                90
_cell_volume                     3061.89
loop_
_atom_site_label
_atom_site_type_symbol
_atom_site_fract_x
_atom_site_fract_y
_atom_site_fract_z
Pb1 Pb 0.7500 0.2500 1.12451(9)
O1 O 0.9115(3) 0.1973(2) 1.2195(5)
O2 O 0.9054(3) 0.0951(2) 1.3055(5)
N1 N 1.0704(3) 0.0600(2) 1.1965(4)
C1 C 1.1464(4) 0.0407(3) 1.1365(6)
H1 H 1.1714 -0.0018 1.1530
C2 C 1.1904(4) 0.0811(3) 1.0497(6)
H2 H 1.2427 0.0653 1.0073
C3 C 1.1562(4) 0.1448(3) 1.0271(5)
C4 C 1.0740(4) 0.1638(3) 1.0902(5)
H3 H 1.0472 0.2059 1.0760
C5 C 1.0338(4) 0.1209(3) 1.1716(5)
C6 C 0.9421(4) 0.1401(3) 1.2392(6)
C7 C 1.2051(4) 0.1940(3) 0.9425(5)
H4 H 1.2531 0.1707 0.8954
H5 H 1.1601 0.2133 0.8854
C8 C 1.2500 0.2500 1.0196(10)
H6 H 1.2977 0.2303 1.0722
Pb1B Pb 1.0000 0.0000 1.37451(9)
Pb1C Pb 1.5000 0.5000 1.37451(9)
Pb1_2 Pb 1.7500 0.2500 1.12451(9)
O1M O 1.5885(3) 0.3027(2) 1.2195(5)
O1M_2 O 0.5885(3) 0.3027(2) 1.2195(5)
O2M O 1.5946(3) 0.4049(2) 1.3055(5)
O2J O 0.6554(3) 0.1549(2) 1.0555(5)
O2K O 0.8446(3) 0.3451(2) 1.0555(5)
N1M N 1.4296(3) 0.4400(2) 1.1965(4)
N1J N 0.8204(3) 0.1900(2) 0.9465(4)
N1K N 0.6796(3) 0.3100(2) 0.9465(4)
C1M C 1.3536(4) 0.4593(3) 1.1365(6)
H1M H 1.3286 0.5018 1.1530
C2M C 1.3096(4) 0.4189(3) 1.0497(6)
H2M H 1.2573 0.4347 1.0073
C3M C 1.3438(4) 0.3552(3) 1.0271(5)
C4M C 1.4260(4) 0.3362(3) 1.0902(5)
H3M H 1.4528 0.2941 1.0760
C5M C 1.4662(4) 0.3791(3) 1.1716(5)
C6M C 1.5579(4) 0.3599(3) 1.2392(6)
C7M C 1.2949(4) 0.3060(3) 0.9425(5)
H4M H 1.2469 0.3293 0.8954
H5M H 1.3399 0.2867 0.8854
H6M H 1.2023 0.2697 1.0722
loop_
_geom_bond_atom_site_label_1
_geom_bond_atom_site_label_2
_geom_bond_site_symmetry_1
_geom_bond_site_symmetry_2
Pb1 O1 1_555 1_555
O1 C6 1_555 1_555
O2 C6 1_555 1_555
N1 C1 1_555 1_555
C1 H1 1_555 1_555
C2 C1 1_555 1_555
H2 C2 1_555 1_555
C3 C2 1_555 1_555
C4 C3 1_555 1_555
H3 C4 1_555 1_555
C5 N1 1_555 1_555
C6 C5 1_555 1_555
C7 C3 1_555 1_555
H4 C7 1_555 1_555
H5 C7 1_555 1_555
C8 C7 1_555 1_555
H6 C8 1_555 1_555
Pb1B O2 1_555 1_555
Pb1C O2M 1_555 1_555
Pb1_2 O1M 1_555 1_555
O1M C6M 1_555 1_555
O1M_2 Pb1 1_555 1_555
O2M C6M 1_555 1_555
O2J Pb1 1_555 1_555
O2K Pb1 1_555 1_555
N1M Pb1C 1_555 1_555
N1J Pb1 1_555 1_555
N1K Pb1 1_555 1_555
C1M N1M 1_555 1_555
H1M C1M 1_555 1_555
C2M C1M 1_555 1_555
H2M C2M 1_555 1_555
C3M C2M 1_555 1_555
C4M C3M 1_555 1_555
H3M C4M 1_555 1_555
C5M N1M 1_555 1_555
C6M C5M 1_555 1_555
C7M C8 1_555 1_555
H4M C7M 1_555 1_555
H5M C7M 1_555 1_555
H6M C8 1_555 1_555
N1 Pb1B 1_555 1_555
C4 C5 1_555 1_555
C3M C7M 1_555 1_555
C4M C5M 1_555 1_555

#END
