
#######################################################################
#
#                 Cambridge Crystallographic Data Centre
#                                CCDC 
#
#######################################################################
#
# If this CIF has been generated from an entry in the Cambridge 
# Structural Database, then it will include bibliographic, chemical, 
# crystal, experimental, refinement or atomic coordinate data resulting 
# from the CCDC's data processing and validation procedures.
#
#######################################################################

data_PEJFER
_symmetry_cell_setting           triclinic
_symmetry_space_group_name_H-M   'P -1'
_symmetry_Int_Tables_number      2
_space_group_name_Hall           '-P 1'
loop_
_symmetry_equiv_pos_site_id
_symmetry_equiv_pos_as_xyz
1 x,y,z
2 -x,-y,-z
_cell_length_a                   11.795(2)
_cell_length_b                   13.2729(11)
_cell_length_c                   13.9455(12)
_cell_angle_alpha                118.0390(10)
_cell_angle_beta                 105.7820(10)
_cell_angle_gamma                92.5540(10)
_cell_volume                     1815.73
loop_
_atom_site_label
_atom_site_type_symbol
_atom_site_fract_x
_atom_site_fract_y
_atom_site_fract_z
Pb1 Pb 0.180775(17) 0.538049(18) 0.561342(16)
Pb2 Pb 0.976310(17) 1.487360(18) 0.827830(16)
N1 N 0.9583(4) 1.2719(4) 0.6955(4)
N2 N 0.3729(4) 0.5624(4) 0.7176(4)
N3 N 0.7703(4) 1.2359(4) 1.2948(5)
N4 N 0.2534(4) 0.6110(4) 0.2346(3)
O1 O 0.1472(3) 0.5148(4) 0.7221(3)
O2 O 0.2222(4) 0.5203(4) 0.8878(4)
O3 O 1.0695(4) 1.2206(5) 1.3056(5)
O4 O 0.9950(4) 1.3571(4) 1.4251(4)
O5 O 0.1622(3) 0.5550(4) 0.3672(3)
O6 O 0.3411(4) 0.6162(4) 0.5017(3)
O7 O 1.0020(5) 1.1969(4) 0.9124(4)
O8 O 0.9989(3) 1.3708(3) 0.9254(3)
O9 O 0.8889(5) 1.6986(5) 0.8541(4)
H1 H 0.9287 1.7472 0.8478
H2 H 0.8879 1.7256 0.9210
O10 O 0.2942(6) 0.3470(6) 0.4347(6)
H3 H 0.2780 0.3464 0.3726
H4 H 0.2512 0.2908 0.4276
C1 C 0.3602(5) 0.5613(5) 0.8104(4)
C2 C 0.4597(5) 0.5901(5) 0.9060(5)
H5 H 0.4491 0.5887 0.9691
C3 C 0.5749(5) 0.6208(5) 0.9082(5)
C4 C 0.5855(5) 0.6191(5) 0.8108(5)
H6 H 0.6609 0.6381 0.8079
C5 C 0.4838(5) 0.5891(5) 0.7187(5)
H7 H 0.4927 0.5873 0.6536
C6 C 0.2339(5) 0.5298(5) 0.8069(5)
C7 C 0.6828(5) 0.6623(5) 1.0142(5)
H8 H 0.7546 0.6494 0.9924
H9 H 0.6742 0.6179 1.0515
C8 C 0.6968(6) 0.7947(5) 1.1001(5)
H10 H 0.6275 0.8061 1.1260
H11 H 0.7677 0.8193 1.1669
C9 C 0.7080(6) 0.8704(5) 1.0475(5)
H12 H 0.7742 0.8555 1.0172
H13 H 0.6349 0.8493 0.9837
C10 C 0.7293(6) 0.9983(5) 1.1330(5)
C11 C 0.6366(6) 1.0525(6) 1.1569(7)
H14 H 0.5578 1.0103 1.1189
C12 C 0.6592(6) 1.1694(6) 1.2371(7)
H15 H 0.5944 1.2038 1.2520
C13 C 0.8625(5) 1.1844(5) 1.2733(5)
C14 C 0.8442(6) 1.0667(5) 1.1940(5)
H16 H 0.9102 1.0332 1.1815
C15 C 0.9851(6) 1.2593(6) 1.3399(5)
C16 C 0.3276(5) 0.6305(5) 0.3368(4)
C17 C 0.4501(5) 0.6751(5) 0.3759(5)
H17 H 0.4980 0.6883 0.4474
C18 C 0.5012(5) 0.6998(5) 0.3096(5)
C19 C 0.4234(5) 0.6828(5) 0.2072(5)
H18 H 0.4528 0.7020 0.1611
C20 C 0.3016(5) 0.6373(5) 0.1719(5)
H19 H 0.2519 0.6248 0.1013
C21 C 0.2731(5) 0.5976(6) 0.4059(5)
C22 C 0.6355(5) 0.7410(5) 0.3484(5)
H20 H 0.6587 0.7204 0.2809
H21 H 0.6753 0.6995 0.3849
C23 C 0.6806(5) 0.8715(5) 0.4317(5)
H22 H 0.6483 0.9140 0.3934
H23 H 0.6525 0.8944 0.4969
C24 C 0.8175(5) 0.9024(5) 0.4743(5)
H24 H 0.8487 0.8627 0.5161
H25 H 0.8449 0.8737 0.4083
C25 C 0.8690(5) 1.0318(5) 0.5518(5)
C26 C 0.9056(5) 1.0825(5) 0.6710(5)
H26 H 0.9018 1.0366 0.7044
C27 C 0.9481(5) 1.2023(5) 0.7400(5)
C28 C 0.9274(5) 1.2214(5) 0.5811(5)
H27 H 0.9369 1.2680 0.5495
C29 C 0.8818(5) 1.1032(5) 0.5072(5)
H28 H 0.8599 1.0721 0.4280
C30 C 0.9857(5) 1.2604(6) 0.8697(5)
Pb1A Pb 0.819225(17) 1.461951(18) 1.438658(16)
Pb1_2 Pb 1.180775(17) 1.538049(18) 1.561342(16)
Pb2A Pb 0.023690(17) 0.512640(18) 0.172170(16)
Pb2_2 Pb -0.023690(17) 0.487360(18) 0.827830(16)
Pb2A_2 Pb 1.023690(17) 1.512640(18) 1.172170(16)
N3A N 0.2297(4) 0.7641(4) 0.7052(5)
N4A N 0.7466(4) 1.3890(4) 0.7654(3)
O1_2 O 1.1472(3) 1.5148(4) 0.7221(3)
O2_2 O 1.2222(4) 1.5203(4) 0.8878(4)
O4_2 O -0.0050(4) 0.3571(4) 0.4251(4)
O4A O 0.0050(4) 0.6429(4) 0.5749(4)
O5A O 0.8378(3) 1.4450(4) 0.6328(3)
O8A O 1.0011(3) 1.6292(3) 1.0746(3)
loop_
_geom_bond_atom_site_label_1
_geom_bond_atom_site_label_2
_geom_bond_site_symmetry_1
_geom_bond_site_symmetry_2
Pb1 N2 1_555 1_555
Pb2 N1 1_555 1_555
N1 C27 1_555 1_555
N2 C1 1_555 1_555
N3 C12 1_555 1_555
N4 C16 1_555 1_555
O1 Pb1 1_555 1_555
O2 C6 1_555 1_555
O3 C15 1_555 1_555
O4 C15 1_555 1_555
O5 Pb1 1_555 1_555
O6 Pb1 1_555 1_555
O7 C30 1_555 1_555
O8 Pb2 1_555 1_555
O9 Pb2 1_555 1_555
H1 O9 1_555 1_555
H2 O9 1_555 1_555
O10 Pb1 1_555 1_555
H3 O10 1_555 1_555
H4 O10 1_555 1_555
C1 C2 1_555 1_555
C2 H5 1_555 1_555
C3 C2 1_555 1_555
C4 C3 1_555 1_555
H6 C4 1_555 1_555
C5 N2 1_555 1_555
H7 C5 1_555 1_555
C6 O1 1_555 1_555
C7 C3 1_555 1_555
H8 C7 1_555 1_555
H9 C7 1_555 1_555
C8 C7 1_555 1_555
H10 C8 1_555 1_555
H11 C8 1_555 1_555
C9 C8 1_555 1_555
H12 C9 1_555 1_555
H13 C9 1_555 1_555
C10 C9 1_555 1_555
C11 C10 1_555 1_555
H14 C11 1_555 1_555
C12 C11 1_555 1_555
H15 C12 1_555 1_555
C13 N3 1_555 1_555
C14 C10 1_555 1_555
H16 C14 1_555 1_555
C15 C13 1_555 1_555
C16 C17 1_555 1_555
C17 H17 1_555 1_555
C18 C17 1_555 1_555
C19 C18 1_555 1_555
H18 C19 1_555 1_555
C20 N4 1_555 1_555
H19 C20 1_555 1_555
C21 O5 1_555 1_555
C22 C18 1_555 1_555
H20 C22 1_555 1_555
H21 C22 1_555 1_555
C23 C22 1_555 1_555
H22 C23 1_555 1_555
H23 C23 1_555 1_555
C24 C23 1_555 1_555
H24 C24 1_555 1_555
H25 C24 1_555 1_555
C25 C24 1_555 1_555
C26 C25 1_555 1_555
H26 C26 1_555 1_555
C27 C26 1_555 1_555
C28 N1 1_555 1_555
H27 C28 1_555 1_555
C29 C25 1_555 1_555
H28 C29 1_555 1_555
C30 O8 1_555 1_555
Pb1A N3 1_555 1_555
Pb1_2 O4 1_555 1_555
Pb2A N4 1_555 1_555
Pb2_2 O1 1_555 1_555
Pb2A_2 O8 1_555 1_555
N3A Pb1 1_555 1_555
N4A Pb2 1_555 1_555
O1_2 Pb2 1_555 1_555
O2_2 Pb2 1_555 1_555
O4_2 Pb1 1_555 1_555
O4A Pb1 1_555 1_555
O5A Pb2 1_555 1_555
O8A Pb2 1_555 1_555
O2 Pb2_2 1_555 1_555
O4 Pb1A 1_555 1_555
O5 Pb2A 1_555 1_555
O6 C21 1_555 1_555
C1 C6 1_555 1_555
C4 C5 1_555 1_555
C13 C14 1_555 1_555
C16 C21 1_555 1_555
C19 C20 1_555 1_555
C27 C30 1_555 1_555
C28 C29 1_555 1_555
Pb2A_2 O8A 1_555 1_555

#END
