
#######################################################################
#
#                 Cambridge Crystallographic Data Centre
#                                CCDC 
#
#######################################################################
#
# If this CIF has been generated from an entry in the Cambridge 
# Structural Database, then it will include bibliographic, chemical, 
# crystal, experimental, refinement or atomic coordinate data resulting 
# from the CCDC's data processing and validation procedures.
#
#######################################################################

data_PEJLOH
_symmetry_cell_setting           monoclinic
_symmetry_space_group_name_H-M   'C 2/c'
_symmetry_Int_Tables_number      15
_space_group_name_Hall           '-C 2yn'
loop_
_symmetry_equiv_pos_site_id
_symmetry_equiv_pos_as_xyz
1 x,y,z
2 -x,y,1/2-z
3 1/2+x,1/2+y,z
4 1/2-x,1/2+y,1/2-z
5 -x,-y,-z
6 x,-y,1/2+z
7 1/2-x,1/2-y,-z
8 1/2+x,1/2-y,1/2+z
_cell_length_a                   21.679(4)
_cell_length_b                   10.889(2)
_cell_length_c                   20.104(4)
_cell_angle_alpha                90
_cell_angle_beta                 120.43(3)
_cell_angle_gamma                90
_cell_volume                     4092.06
loop_
_atom_site_label
_atom_site_type_symbol
_atom_site_fract_x
_atom_site_fract_y
_atom_site_fract_z
C1 C -0.0389(4) 0.3145(8) -0.0308(4)
H1 H -0.0621 0.3696 -0.0131
H2 H -0.0720 0.2522 -0.0627
H3 H -0.0227 0.3595 -0.0602
C2 C 0.0225(2) 0.2570(4) 0.0357(2)
H4 H 0.0413 0.1925 0.0176
H5 H 0.0067 0.2195 0.0683
C3 C 0.0804(2) 0.3466(4) 0.0821(2)
C4 C 0.15364(19) 0.4710(4) 0.1726(2)
C5 C 0.1893(2) 0.5449(5) 0.2369(3)
H6 H 0.1753 0.5494 0.2737
C6 C 0.2471(3) 0.6126(5) 0.2444(3)
H7 H 0.2727 0.6623 0.2875
C7 C 0.2674(3) 0.6076(6) 0.1884(3)
H8 H 0.3059 0.6546 0.1950
C8 C 0.2321(2) 0.5355(5) 0.1245(3)
H9 H 0.2459 0.5317 0.0876
C9 C 0.1740(2) 0.4672(4) 0.1168(2)
C10 C 0.1239(3) 0.3665(5) -0.0129(3)
H10 H 0.1165 0.4444 -0.0393
H11 H 0.0830 0.3148 -0.0450
C11 C 0.1902(2) 0.3066(4) -0.0047(2)
C12 C 0.2064(3) 0.3239(5) -0.0609(3)
H12 H 0.1774 0.3736 -0.1029
C13 C 0.2344(3) 0.2314(6) 0.0562(3)
H13 H 0.2239 0.2176 0.0951
C14 C 0.11979(18) 0.3495(3) 0.3741(2)
C15 C 0.18733(17) 0.2993(3) 0.43966(18)
C16 C 0.18471(18) 0.2173(4) 0.4909(2)
H14 H 0.1407 0.1951 0.4848
C17 C 0.25303(18) 0.3316(4) 0.4490(2)
H15 H 0.2553 0.3864 0.4148
C18 C 0.0000 0.6104(4) 0.2500
C19 C 0.0000 0.7473(4) 0.2500
C20 C 0.0385(2) 0.8122(4) 0.2236(2)
H16 H 0.0638 0.7699 0.2047
C21 C 0.0397(2) 0.9381(4) 0.2250(3)
H17 H 0.0672 0.9805 0.2091
C22 C 0.0000 1.0025(4) 0.2500
C23 C 0.0000 1.1397(5) 0.2500
Co1 Co 0.03755(2) 0.37519(4) 0.20528(2)
N1 N 0.09436(16) 0.3935(3) 0.14857(18)
N2 N 0.12672(19) 0.3881(3) 0.06030(19)
O1 O 0.12186(13) 0.3867(2) 0.31639(14)
O2 O 0.06527(13) 0.3495(2) 0.38163(15)
O3 O 0.02029(13) 0.5572(2) 0.20869(14)
O4 O 0.03695(15) 1.1933(2) 0.22663(18)
C1F C 0.5389(4) 0.1855(8) 0.0308(4)
H1F H 0.5621 0.1304 0.0131
H2F H 0.5720 0.2478 0.0627
H3F H 0.5227 0.1405 0.0602
C2F C 0.4775(2) 0.2430(4) -0.0357(2)
H4F H 0.4587 0.3075 -0.0176
H5F H 0.4933 0.2805 -0.0683
C3F C 0.4196(2) 0.1534(4) -0.0821(2)
C4F C 0.34636(19) 0.0290(4) -0.1726(2)
C5F C 0.3107(2) -0.0449(5) -0.2369(3)
H6F H 0.3247 -0.0494 -0.2737
C6F C 0.2529(3) -0.1126(5) -0.2444(3)
H7F H 0.2273 -0.1623 -0.2875
C7F C 0.2326(3) -0.1076(6) -0.1884(3)
H8F H 0.1941 -0.1546 -0.1950
C8F C 0.2679(2) -0.0355(5) -0.1245(3)
H9F H 0.2541 -0.0317 -0.0876
C9F C 0.3260(2) 0.0328(4) -0.1168(2)
C10F C 0.3761(3) 0.1335(5) 0.0129(3)
H10F H 0.3835 0.0556 0.0393
H11F H 0.4170 0.1852 0.0450
C11F C 0.3098(2) 0.1934(4) 0.0047(2)
C12F C 0.2936(3) 0.1761(5) 0.0609(3)
H12F H 0.3226 0.1264 0.1029
C13F C 0.2656(3) 0.2686(6) -0.0562(3)
H13F H 0.2761 0.2824 -0.0951
C14F C 0.38021(18) 0.1505(3) 0.6259(2)
C15F C 0.31267(17) 0.2007(3) 0.56034(18)
C16F C 0.31529(18) 0.2827(4) 0.5091(2)
H14F H 0.3593 0.3049 0.5152
C17F C 0.24697(18) 0.1684(4) 0.5510(2)
H15F H 0.2447 0.1136 0.5852
C20A C -0.0385(2) 0.8122(4) 0.2764(2)
H16A H -0.0638 0.7699 0.2953
C21A C -0.0397(2) 0.9381(4) 0.2750(3)
H17A H -0.0672 0.9805 0.2909
Co1F Co 0.46245(2) 0.12481(4) -0.20528(2)
Co1A Co -0.03755(2) 0.37519(4) 0.29472(2)
Co1_2 Co 0.03755(2) 1.37519(4) 0.20528(2)
Co1F_2 Co 0.46245(2) 0.12481(4) 0.79472(2)
Co1G Co 0.53755(2) 0.12481(4) 0.70528(2)
Co1A_2 Co -0.03755(2) 1.37519(4) 0.29472(2)
N1F N 0.40564(16) 0.1065(3) -0.14857(18)
N2F N 0.37328(19) 0.1119(3) -0.06030(19)
O1F O 0.37814(13) 0.1133(2) 0.68361(14)
O1F_2 O 0.37814(13) 0.1133(2) -0.31639(14)
O2F O 0.43473(13) 0.1505(2) 0.61837(15)
O2A O -0.06527(13) 0.3495(2) 0.11837(15)
O2G O 0.56527(13) 0.1505(2) -0.11837(15)
O3A O -0.02029(13) 0.5572(2) 0.29131(14)
O3F O 0.47971(13) -0.0572(2) -0.20869(14)
O4A O -0.03695(15) 1.1933(2) 0.27337(18)
O4_2 O 0.03695(15) 0.1933(2) 0.22663(18)
O4F O 0.46305(15) 0.3067(2) -0.22663(18)
loop_
_geom_bond_atom_site_label_1
_geom_bond_atom_site_label_2
_geom_bond_site_symmetry_1
_geom_bond_site_symmetry_2
C1 H1 1_555 1_555
H2 C1 1_555 1_555
H3 C1 1_555 1_555
C2 C1 1_555 1_555
H4 C2 1_555 1_555
H5 C2 1_555 1_555
C3 C2 1_555 1_555
C4 C5 1_555 1_555
C5 H6 1_555 1_555
C6 C5 1_555 1_555
H7 C6 1_555 1_555
C7 C6 1_555 1_555
H8 C7 1_555 1_555
C8 C7 1_555 1_555
H9 C8 1_555 1_555
C9 C4 1_555 1_555
C10 H10 1_555 1_555
H11 C10 1_555 1_555
C11 C10 1_555 1_555
C12 C11 1_555 1_555
H12 C12 1_555 1_555
C13 C11 1_555 1_555
H13 C13 1_555 1_555
C14 C15 1_555 1_555
C15 C16 1_555 1_555
C16 H14 1_555 1_555
C17 C15 1_555 1_555
H15 C17 1_555 1_555
C18 C19 1_555 1_555
C19 C20 1_555 1_555
C20 H16 1_555 1_555
C21 C20 1_555 1_555
H17 C21 1_555 1_555
C22 C21 1_555 1_555
C23 C22 1_555 1_555
Co1 N1 1_555 1_555
N1 C3 1_555 1_555
N2 C3 1_555 1_555
O1 C14 1_555 1_555
O2 C14 1_555 1_555
O3 C18 1_555 1_555
O4 C23 1_555 1_555
C1F H1F 1_555 1_555
H2F C1F 1_555 1_555
H3F C1F 1_555 1_555
C2F C1F 1_555 1_555
H4F C2F 1_555 1_555
H5F C2F 1_555 1_555
C3F C2F 1_555 1_555
C4F C5F 1_555 1_555
C5F H6F 1_555 1_555
C6F C5F 1_555 1_555
H7F C6F 1_555 1_555
C7F C6F 1_555 1_555
H8F C7F 1_555 1_555
C8F C7F 1_555 1_555
H9F C8F 1_555 1_555
C9F C4F 1_555 1_555
C10F H10F 1_555 1_555
H11F C10F 1_555 1_555
C11F C10F 1_555 1_555
C12F C13 1_555 1_555
H12F C12F 1_555 1_555
C13F C12 1_555 1_555
H13F C13F 1_555 1_555
C14F C15F 1_555 1_555
C15F C16F 1_555 1_555
C16F C17 1_555 1_555
H14F C16F 1_555 1_555
C17F C16 1_555 1_555
H15F C17F 1_555 1_555
C20A C19 1_555 1_555
H16A C20A 1_555 1_555
C21A C22 1_555 1_555
H17A C21A 1_555 1_555
Co1F N1F 1_555 1_555
Co1A O2 1_555 1_555
Co1_2 O4 1_555 1_555
Co1F_2 O1F 1_555 1_555
Co1G O2F 1_555 1_555
Co1A_2 O4A 1_555 1_555
N1F C3F 1_555 1_555
N2F C3F 1_555 1_555
O1F C14F 1_555 1_555
O1F_2 Co1F 1_555 1_555
O2F C14F 1_555 1_555
O2A Co1 1_555 1_555
O2G Co1F 1_555 1_555
O3A C18 1_555 1_555
O3F Co1F 1_555 1_555
O4A C23 1_555 1_555
O4_2 Co1 1_555 1_555
O4F Co1F 1_555 1_555
C4 N1 1_555 1_555
C8 C9 1_555 1_555
C9 N2 1_555 1_555
C10 N2 1_555 1_555
Co1 O1 1_555 1_555
Co1 O3 1_555 1_555
C4F N1F 1_555 1_555
C8F C9F 1_555 1_555
C9F N2F 1_555 1_555
C10F N2F 1_555 1_555
C11F C12F 1_555 1_555
C11F C13F 1_555 1_555
C15F C17F 1_555 1_555
C20A C21A 1_555 1_555
Co1A O3A 1_555 1_555

#END
