
#######################################################################
#
#                 Cambridge Crystallographic Data Centre
#                                CCDC 
#
#######################################################################
#
# If this CIF has been generated from an entry in the Cambridge 
# Structural Database, then it will include bibliographic, chemical, 
# crystal, experimental, refinement or atomic coordinate data resulting 
# from the CCDC's data processing and validation procedures.
#
#######################################################################

data_PEJLUN
_symmetry_cell_setting           monoclinic
_symmetry_space_group_name_H-M   'C 2/c'
_symmetry_Int_Tables_number      15
_space_group_name_Hall           '-C 2yn'
loop_
_symmetry_equiv_pos_site_id
_symmetry_equiv_pos_as_xyz
1 x,y,z
2 -x,y,1/2-z
3 1/2+x,1/2+y,z
4 1/2-x,1/2+y,1/2-z
5 -x,-y,-z
6 x,-y,1/2+z
7 1/2-x,1/2-y,-z
8 1/2+x,1/2-y,1/2+z
_cell_length_a                   22.412(4)
_cell_length_b                   8.3970(17)
_cell_length_c                   16.207(3)
_cell_angle_alpha                90
_cell_angle_beta                 100.80(3)
_cell_angle_gamma                90
_cell_volume                     2996.03
loop_
_atom_site_label
_atom_site_type_symbol
_atom_site_fract_x
_atom_site_fract_y
_atom_site_fract_z
Co1 Co 0.0000 -0.06774(7) 0.2500
O1 O 0.02427(14) -0.1692(3) 0.36275(19)
O2 O -0.05829(17) -0.2965(4) 0.3003(2)
N1 N 0.07019(13) 0.0883(3) 0.24796(19)
N2 N 0.13918(15) 0.2720(4) 0.2966(2)
C1 C 0.0619(2) 0.2123(6) 0.3849(3)
H1 H 0.0339 0.2999 0.3759
H2 H 0.0931 0.2340 0.4328
H3 H 0.0406 0.1170 0.3948
C2 C 0.08995(17) 0.1903(4) 0.3090(2)
C3 C 0.11031(16) 0.1042(4) 0.1908(2)
C4 C 0.1107(2) 0.0288(5) 0.1155(3)
H4 H 0.0816 -0.0466 0.0939
C5 C 0.1573(2) 0.0713(5) 0.0731(3)
H5 H 0.1585 0.0241 0.0216
C6 C 0.2015(2) 0.1810(6) 0.1053(3)
H6 H 0.2325 0.2026 0.0761
C7 C 0.20047(19) 0.2584(6) 0.1792(3)
H7 H 0.2297 0.3339 0.2003
C8 C 0.15377(17) 0.2194(5) 0.2215(2)
C9 C 0.1727(2) 0.3918(5) 0.3538(3)
H8 H 0.1440 0.4631 0.3727
H9 H 0.1980 0.4545 0.3236
C10 C 0.21248(19) 0.3141(5) 0.4298(3)
C11 C 0.2451(2) 0.1789(6) 0.4239(3)
H10 H 0.2421 0.1291 0.3720
C12 C 0.2175(2) 0.3857(6) 0.5071(3)
H11 H 0.1957 0.4780 0.5128
C13 C -0.0151(2) -0.2823(5) 0.3604(3)
C14 C -0.00728(18) -0.3944(4) 0.4328(2)
C15 C -0.05165(19) -0.5064(5) 0.4384(2)
H12 H -0.0865 -0.5112 0.3971
C16 C 0.04434(19) -0.3893(5) 0.4951(3)
H13 H 0.0744 -0.3145 0.4919
Co1D Co 0.0000 -0.93226(7) 0.7500
Co1F Co 0.5000 0.56774(7) 0.7500
O1D O -0.02427(14) -0.8308(3) 0.63725(19)
O1A O -0.02427(14) -0.1692(3) 0.13725(19)
O2D O 0.05829(17) -0.7035(4) 0.6997(2)
N1F N 0.42981(13) 0.4117(3) 0.75204(19)
N1A N -0.07019(13) 0.0883(3) 0.25204(19)
N2F N 0.36082(15) 0.2280(4) 0.7034(2)
C1F C 0.4381(2) 0.2877(6) 0.6151(3)
H1F H 0.4661 0.2001 0.6241
H2F H 0.4069 0.2660 0.5672
H3F H 0.4594 0.3830 0.6052
C2F C 0.41005(17) 0.3097(4) 0.6910(2)
C3F C 0.38969(16) 0.3958(4) 0.8092(2)
C4F C 0.3893(2) 0.4712(5) 0.8845(3)
H4F H 0.4184 0.5466 0.9061
C5F C 0.3427(2) 0.4287(5) 0.9269(3)
H5F H 0.3415 0.4759 0.9784
C6F C 0.2985(2) 0.3190(6) 0.8947(3)
H6F H 0.2675 0.2974 0.9239
C7F C 0.29953(19) 0.2416(6) 0.8208(3)
H7F H 0.2703 0.1661 0.7997
C8F C 0.34623(17) 0.2806(5) 0.7785(2)
C9F C 0.3273(2) 0.1082(5) 0.6462(3)
H8F H 0.3560 0.0369 0.6273
H9F H 0.3020 0.0455 0.6764
C10F C 0.28752(19) 0.1859(5) 0.5702(3)
C11F C 0.2549(2) 0.3211(6) 0.5761(3)
H10F H 0.2579 0.3709 0.6280
C12F C 0.2825(2) 0.1143(6) 0.4929(3)
H11F H 0.3043 0.0220 0.4872
C13D C 0.0151(2) -0.7177(5) 0.6396(3)
C14D C 0.00728(18) -0.6056(4) 0.5672(2)
C15D C 0.05165(19) -0.4936(5) 0.5616(2)
H12D H 0.0865 -0.4888 0.6029
C16D C -0.04434(19) -0.6107(5) 0.5049(3)
H13D H -0.0744 -0.6855 0.5081
O3 O 0.3468(2) 0.2960(6) 0.1463(4)
loop_
_geom_bond_atom_site_label_1
_geom_bond_atom_site_label_2
_geom_bond_site_symmetry_1
_geom_bond_site_symmetry_2
Co1 O1 1_555 1_555
O1 C13 1_555 1_555
O2 C13 1_555 1_555
N1 Co1 1_555 1_555
N2 C2 1_555 1_555
C1 H1 1_555 1_555
H2 C1 1_555 1_555
H3 C1 1_555 1_555
C2 N1 1_555 1_555
C3 N1 1_555 1_555
C4 C3 1_555 1_555
H4 C4 1_555 1_555
C5 C4 1_555 1_555
H5 C5 1_555 1_555
C6 C5 1_555 1_555
H6 C6 1_555 1_555
C7 C6 1_555 1_555
H7 C7 1_555 1_555
C8 N2 1_555 1_555
C9 N2 1_555 1_555
H8 C9 1_555 1_555
H9 C9 1_555 1_555
C10 C9 1_555 1_555
C11 C10 1_555 1_555
H10 C11 1_555 1_555
C12 C10 1_555 1_555
H11 C12 1_555 1_555
C13 C14 1_555 1_555
C14 C15 1_555 1_555
C15 H12 1_555 1_555
C16 C14 1_555 1_555
H13 C16 1_555 1_555
Co1D O1D 1_555 1_555
Co1F N1F 1_555 1_555
O1D C13D 1_555 1_555
O1A Co1 1_555 1_555
O2D C13D 1_555 1_555
N1F C2F 1_555 1_555
N1A Co1 1_555 1_555
N2F C2F 1_555 1_555
C1F H1F 1_555 1_555
H2F C1F 1_555 1_555
H3F C1F 1_555 1_555
C2F C1F 1_555 1_555
C3F N1F 1_555 1_555
C4F C3F 1_555 1_555
H4F C4F 1_555 1_555
C5F C4F 1_555 1_555
H5F C5F 1_555 1_555
C6F C5F 1_555 1_555
H6F C6F 1_555 1_555
C7F C6F 1_555 1_555
H7F C7F 1_555 1_555
C8F N2F 1_555 1_555
C9F N2F 1_555 1_555
H8F C9F 1_555 1_555
H9F C9F 1_555 1_555
C10F C9F 1_555 1_555
C11F C12 1_555 1_555
H10F C11F 1_555 1_555
C12F C11 1_555 1_555
H11F C12F 1_555 1_555
C13D C14D 1_555 1_555
C14D C15D 1_555 1_555
C15D C16 1_555 1_555
H12D C15D 1_555 1_555
C16D C15 1_555 1_555
H13D C16D 1_555 1_555
C1 C2 1_555 1_555
C3 C8 1_555 1_555
C7 C8 1_555 1_555
C3F C8F 1_555 1_555
C7F C8F 1_555 1_555
C10F C11F 1_555 1_555
C10F C12F 1_555 1_555
C14D C16D 1_555 1_555

#END
