
#######################################################################
#
#                 Cambridge Crystallographic Data Centre
#                                CCDC 
#
#######################################################################
#
# If this CIF has been generated from an entry in the Cambridge 
# Structural Database, then it will include bibliographic, chemical, 
# crystal, experimental, refinement or atomic coordinate data resulting 
# from the CCDC's data processing and validation procedures.
#
#######################################################################

data_PEJMAU
_symmetry_cell_setting           orthorhombic
_symmetry_space_group_name_H-M   'I b c a'
_symmetry_Int_Tables_number      73
_space_group_name_Hall           '-I 2b 2c'
loop_
_symmetry_equiv_pos_site_id
_symmetry_equiv_pos_as_xyz
1 x,y,z
2 1/2-x,-y,1/2+z
3 -x,1/2+y,1/2-z
4 1/2+x,1/2-y,-z
5 1/2+x,1/2+y,1/2+z
6 -x,1/2-y,z
7 1/2-x,y,-z
8 x,-y,1/2-z
9 -x,-y,-z
10 1/2+x,y,1/2-z
11 x,1/2-y,1/2+z
12 1/2-x,1/2+y,z
13 1/2-x,1/2-y,1/2-z
14 x,1/2+y,-z
15 1/2+x,-y,z
16 -x,y,1/2+z
_cell_length_a                   16.173(3)
_cell_length_b                   17.917(4)
_cell_length_c                   18.017(4)
_cell_angle_alpha                90
_cell_angle_beta                 90
_cell_angle_gamma                90
_cell_volume                     5220.82
loop_
_atom_site_label
_atom_site_type_symbol
_atom_site_fract_x
_atom_site_fract_y
_atom_site_fract_z
C1 C 0.0969(3) 0.6027(2) 0.7278(3)
H1 H 0.0684 0.6010 0.7745
H2 H 0.1430 0.5690 0.7289
H3 H 0.0597 0.5883 0.6888
C2 C 0.1269(3) 0.6797(2) 0.7140(2)
C3 C 0.1418(3) 0.8006(2) 0.7138(2)
C4 C 0.1372(3) 0.8775(2) 0.7251(3)
H4 H 0.1006 0.8979 0.7593
C5 C 0.1893(3) 0.9220(3) 0.6833(3)
H5 H 0.1873 0.9735 0.6895
C6 C 0.2446(3) 0.8919(3) 0.6320(3)
H6 H 0.2787 0.9237 0.6050
C7 C 0.2499(3) 0.8163(3) 0.6205(3)
H7 H 0.2867 0.7960 0.5864
C8 C 0.1976(3) 0.7717(2) 0.6624(2)
C9 C 0.2346(3) 0.6412(3) 0.6196(2)
H8 H 0.2445 0.5969 0.6492
H9 H 0.2879 0.6629 0.6077
C10 C 0.1924(3) 0.6187(3) 0.5484(2)
H10 H 0.1756 0.6630 0.5214
H11 H 0.1431 0.5900 0.5598
C11 C 0.2500 0.5720(4) 0.5000
H12 H 0.2831 0.5401 0.5317
C12 C -0.0236(3) 0.8574(3) 0.9254(2)
C13 C -0.0113(3) 0.9316(2) 0.9635(2)
C14 C 0.0362(3) 0.9873(3) 0.9324(2)
H13 H 0.0612 0.9791 0.8866
C15 C -0.0478(3) 0.9448(3) 1.0321(3)
H14 H -0.0800 0.9081 1.0543
Co1 Co 0.0000 0.7500 0.81758(4)
N1 N 0.0984(2) 0.74114(18) 0.74616(19)
N2 N 0.1875(2) 0.69481(19) 0.66430(19)
O1 O 0.0200(2) 0.84636(17) 0.86672(16)
O2 O -0.0734(2) 0.81146(19) 0.9499(2)
C1F C 0.4031(3) 0.6027(2) 0.2722(3)
H1F H 0.4316 0.6010 0.2255
H2F H 0.3570 0.5690 0.2711
H3F H 0.4403 0.5883 0.3112
C2F C 0.3731(3) 0.6797(2) 0.2860(2)
C3F C 0.3582(3) 0.8006(2) 0.2862(2)
C4F C 0.3628(3) 0.8775(2) 0.2749(3)
H4F H 0.3994 0.8979 0.2407
C5F C 0.3107(3) 0.9220(3) 0.3167(3)
H5F H 0.3127 0.9735 0.3105
C6F C 0.2554(3) 0.8919(3) 0.3680(3)
H6F H 0.2213 0.9237 0.3950
C7F C 0.2501(3) 0.8163(3) 0.3795(3)
H7F H 0.2133 0.7960 0.4136
C8F C 0.3024(3) 0.7717(2) 0.3376(2)
C9F C 0.2654(3) 0.6412(3) 0.3804(2)
H8F H 0.2555 0.5969 0.3508
H9F H 0.2121 0.6629 0.3923
C10F C 0.3076(3) 0.6187(3) 0.4516(2)
H10F H 0.3244 0.6630 0.4786
H11F H 0.3569 0.5900 0.4402
H12F H 0.2169 0.5401 0.4683
C12H C 0.0236(3) 1.1426(3) 1.0746(2)
C13H C 0.0113(3) 1.0684(2) 1.0365(2)
C14H C -0.0362(3) 1.0127(3) 1.0676(2)
H13H H -0.0612 1.0209 1.1134
C15H C 0.0478(3) 1.0552(3) 0.9679(3)
H14H H 0.0800 1.0919 0.9457
Co1C Co 0.5000 0.7500 0.18242(4)
Co1H Co 0.0000 1.2500 1.18242(4)
N1F N 0.4016(2) 0.74114(18) 0.25384(19)
N1E N -0.0984(2) 0.75886(18) 0.74616(19)
N2F N 0.3125(2) 0.69481(19) 0.33570(19)
O1H O -0.0200(2) 1.15364(17) 1.13328(16)
O1E O -0.0200(2) 0.65364(17) 0.86672(16)
O2H O 0.0734(2) 1.18854(19) 1.0501(2)
O3 O 1.0000 0.7500 0.0870(4)
H15 H 1.0214 0.7321 0.0472
H15E H 0.9786 0.7679 0.0472
loop_
_geom_bond_atom_site_label_1
_geom_bond_atom_site_label_2
_geom_bond_site_symmetry_1
_geom_bond_site_symmetry_2
C1 H1 1_555 1_555
H2 C1 1_555 1_555
H3 C1 1_555 1_555
C2 C1 1_555 1_555
C3 C4 1_555 1_555
C4 H4 1_555 1_555
C5 C4 1_555 1_555
H5 C5 1_555 1_555
C6 C5 1_555 1_555
H6 C6 1_555 1_555
C7 C6 1_555 1_555
H7 C7 1_555 1_555
C8 C3 1_555 1_555
C9 H8 1_555 1_555
H9 C9 1_555 1_555
C10 C9 1_555 1_555
H10 C10 1_555 1_555
H11 C10 1_555 1_555
C11 C10 1_555 1_555
H12 C11 1_555 1_555
C12 C13 1_555 1_555
C13 C14 1_555 1_555
C14 H13 1_555 1_555
C15 C13 1_555 1_555
H14 C15 1_555 1_555
Co1 N1 1_555 1_555
N1 C2 1_555 1_555
N2 C2 1_555 1_555
O1 C12 1_555 1_555
O2 C12 1_555 1_555
O3 H15 1_555 1_555
C1F H1F 1_555 1_555
H2F C1F 1_555 1_555
H3F C1F 1_555 1_555
C2F C1F 1_555 1_555
C3F C4F 1_555 1_555
C4F H4F 1_555 1_555
C5F C4F 1_555 1_555
H5F C5F 1_555 1_555
C6F C5F 1_555 1_555
H6F C6F 1_555 1_555
C7F C6F 1_555 1_555
H7F C7F 1_555 1_555
C8F C3F 1_555 1_555
C9F H8F 1_555 1_555
H9F C9F 1_555 1_555
C10F C11 1_555 1_555
H10F C10F 1_555 1_555
H11F C10F 1_555 1_555
H12F C11 1_555 1_555
C12H C13H 1_555 1_555
C13H C14H 1_555 1_555
C14H C15 1_555 1_555
H13H C14H 1_555 1_555
C15H C14 1_555 1_555
H14H C15H 1_555 1_555
Co1C N1F 1_555 1_555
Co1H O1H 1_555 1_555
N1F C2F 1_555 1_555
N1E Co1 1_555 1_555
N2F C2F 1_555 1_555
O1H C12H 1_555 1_555
O1E Co1 1_555 1_555
O2H C12H 1_555 1_555
H15E O3 1_555 1_555
C3 N1 1_555 1_555
C7 C8 1_555 1_555
C8 N2 1_555 1_555
C9 N2 1_555 1_555
Co1 O1 1_555 1_555
C3F N1F 1_555 1_555
C7F C8F 1_555 1_555
C8F N2F 1_555 1_555
C9F C10F 1_555 1_555
C9F N2F 1_555 1_555
C13H C15H 1_555 1_555

#END
