
#######################################################################
#
#                 Cambridge Crystallographic Data Centre
#                                CCDC 
#
#######################################################################
#
# If this CIF has been generated from an entry in the Cambridge 
# Structural Database, then it will include bibliographic, chemical, 
# crystal, experimental, refinement or atomic coordinate data resulting 
# from the CCDC's data processing and validation procedures.
#
#######################################################################

data_PEJMIC
_symmetry_cell_setting           monoclinic
_symmetry_space_group_name_H-M   'P 21/c'
_symmetry_Int_Tables_number      14
_space_group_name_Hall           '-P 2ybc'
loop_
_symmetry_equiv_pos_site_id
_symmetry_equiv_pos_as_xyz
1 x,y,z
2 -x,1/2+y,1/2-z
3 -x,-y,-z
4 x,1/2-y,1/2+z
_cell_length_a                   11.622(2)
_cell_length_b                   17.483(4)
_cell_length_c                   17.525(4)
_cell_angle_alpha                90
_cell_angle_beta                 93.95(3)
_cell_angle_gamma                90
_cell_volume                     3552.4
loop_
_atom_site_label
_atom_site_type_symbol
_atom_site_fract_x
_atom_site_fract_y
_atom_site_fract_z
C1 C 0.5879(3) 0.3688(2) 0.0375(2)
H1 H 0.6672 0.3712 0.0490
O1 O 1.3748(2) 0.52527(11) 0.50240(11)
O2 O 1.3865(2) 0.11608(13) 0.88144(13)
C2 C 1.4449(3) 0.34325(17) 0.59872(17)
O3 O -0.1470(2) 0.08775(11) 0.35026(12)
C3 C -0.0563(3) 0.12847(17) 0.36220(19)
O4 O 0.0239(2) 0.11570(13) 0.41089(14)
Zn1 Zn 1.32904(4) 0.42050(2) 0.47641(2)
O5 O 1.5349(2) 0.37756(14) 0.58638(15)
C4 C 1.4530(3) 0.28425(16) 0.66275(18)
N1 N 1.1593(2) 0.42897(13) 0.44433(14)
O6 O 1.3465(2) 0.35229(12) 0.56367(12)
C5 C 1.1109(3) 0.48406(17) 0.40230(19)
C6 C 1.0714(3) 0.38048(17) 0.46458(18)
C7 C 1.4704(3) 0.18034(17) 0.78298(17)
C8 C 1.5580(3) 0.26698(18) 0.69830(19)
H2 H 1.6239 0.2912 0.6831
C9 C 1.5673(3) 0.21368(17) 0.75676(19)
H3 H 1.6398 0.2003 0.7785
C10 C 1.3563(4) 0.2493(2) 0.6853(2)
H4 H 1.2847 0.2597 0.6605
N2 N 0.9945(3) 0.47308(15) 0.39392(16)
C11 C 0.8633(4) 0.3703(2) 0.4381(2)
H5 H 0.7946 0.3893 0.4152
C12 C 0.8672(4) 0.3028(2) 0.4801(2)
H6 H 0.7996 0.2758 0.4862
C13 C 1.3663(4) 0.1975(2) 0.7466(2)
H7 H 1.3002 0.1743 0.7628
C14 C 0.9670(3) 0.4072(2) 0.4323(2)
C15 C 0.9699(4) 0.2757(2) 0.5128(2)
H8 H 0.9691 0.2305 0.5406
C16 C 1.1690(3) 0.54749(18) 0.3654(2)
H9 H 1.1641 0.5929 0.3957
H10 H 1.1324 0.5563 0.3154
H11 H 1.2486 0.5347 0.3610
Zn2 Zn 0.16957(4) 0.49070(2) 0.10076(2)
O7 O 0.13040(18) 0.49078(10) -0.01086(12)
N3 N 0.3364(3) 0.46299(14) 0.10591(15)
N4 N 0.5247(3) 0.4668(2) 0.13417(18)
O8 O -0.0825(2) 0.39632(12) 0.10503(13)
O9 O 0.0947(2) 0.41294(13) 0.15852(14)
C17 C -0.0467(3) 0.19708(16) 0.31095(17)
C18 C 0.0604(3) 0.30589(18) 0.26823(18)
H12 H 0.1240 0.3380 0.2752
C19 C -0.1185(3) 0.27444(16) 0.20299(18)
H13 H -0.1758 0.2846 0.1646
C20 C 0.3435(4) 0.36220(18) 0.00452(19)
H14 H 0.2642 0.3608 -0.0070
C21 C 0.0490(3) 0.24419(18) 0.31724(19)
H15 H 0.1071 0.2344 0.3551
C22 C 0.4216(3) 0.4940(2) 0.1504(2)
C23 C -0.0214(3) 0.31973(17) 0.20979(18)
C24 C -0.1322(3) 0.21279(17) 0.25347(19)
H16 H -0.1983 0.1827 0.2484
C25 C 0.8696(4) 0.5044(2) 0.2798(2)
H17 H 0.8387 0.4529 0.2808
H18 H 0.9338 0.5048 0.2472
C26 C 0.6480(4) 0.4715(2) 0.1917(3)
H19 H 0.6328 0.4708 0.2454
H20 H 0.7010 0.4306 0.1812
C27 C -0.0023(3) 0.38154(18) 0.15297(19)
C28 C 0.3937(3) 0.41173(18) 0.05944(19)
C29 C 0.6862(4) 0.5383(2) 0.1707(3)
H21 H 0.6241 0.5750 0.1622
H22 H 0.7284 0.5344 0.1250
C30 C 0.7748(4) 0.5613(2) 0.2491(2)
H23 H 0.8130 0.6089 0.2378
H24 H 0.7261 0.5717 0.2906
C31 C 0.5093(3) 0.4143(2) 0.0742(2)
C32 C 0.4182(4) 0.3152(2) -0.0319(2)
H25 H 0.3882 0.2794 -0.0672
C33 C 0.4076(4) 0.5520(2) 0.2122(2)
H26 H 0.4216 0.6022 0.1928
H27 H 0.4618 0.5414 0.2548
H28 H 0.3306 0.5493 0.2286
C34 C 0.5377(4) 0.3202(2) -0.0170(2)
H29 H 0.5851 0.2895 -0.0448
C35 C 1.0756(3) 0.31245(18) 0.50645(18)
H30 H 1.1443 0.2929 0.5287
C36 C 0.9076(4) 0.5293(2) 0.3570(2)
H31 H 0.8415 0.5330 0.3878
H32 H 0.9425 0.5795 0.3549
O10 O 1.5733(2) 0.09398(14) 0.86764(14)
C37 C 1.4793(3) 0.12580(17) 0.85019(19)
H33 H 1.3951(18) 0.5450(10) 0.5346(11)
H34 H 1.415(5) 0.548(3) 0.477(3)
H35 H 0.0903(7) 0.53211(19) -0.0162(14)
H36 H 0.0915(7) 0.4494(2) -0.0170(14)
O2C O 1.3865(2) 0.38392(13) 0.38144(13)
O3A O 0.1470(2) 0.58775(11) 0.14974(12)
Zn1C Zn 1.32904(4) 0.07950(2) 0.97641(2)
Zn2A Zn -0.16957(4) -0.00930(2) 0.39924(2)
loop_
_geom_bond_atom_site_label_1
_geom_bond_atom_site_label_2
_geom_bond_site_symmetry_1
_geom_bond_site_symmetry_2
C1 H1 1_555 1_555
O1 Zn1 1_555 1_555
O2 C37 1_555 1_555
C2 O5 1_555 1_555
O3 C3 1_555 1_555
C3 O4 1_555 1_555
Zn1 N1 1_555 1_555
C4 C2 1_555 1_555
N1 C5 1_555 1_555
O6 C2 1_555 1_555
C5 N2 1_555 1_555
C6 N1 1_555 1_555
C7 C9 1_555 1_555
C8 C4 1_555 1_555
H2 C8 1_555 1_555
C9 C8 1_555 1_555
H3 C9 1_555 1_555
C10 C4 1_555 1_555
H4 C10 1_555 1_555
N2 C14 1_555 1_555
C11 H5 1_555 1_555
C12 C11 1_555 1_555
H6 C12 1_555 1_555
C13 C7 1_555 1_555
H7 C13 1_555 1_555
C14 C6 1_555 1_555
C15 C12 1_555 1_555
H8 C15 1_555 1_555
C16 C5 1_555 1_555
H9 C16 1_555 1_555
H10 C16 1_555 1_555
H11 C16 1_555 1_555
Zn2 O7 1_555 1_555
O7 H35 1_555 1_555
N3 Zn2 1_555 1_555
N4 C22 1_555 1_555
O8 C27 1_555 1_555
O9 Zn2 1_555 1_555
C17 C3 1_555 1_555
C18 H12 1_555 1_555
C19 H13 1_555 1_555
C20 H14 1_555 1_555
C21 C17 1_555 1_555
H15 C21 1_555 1_555
C22 N3 1_555 1_555
C23 C18 1_555 1_555
C24 C17 1_555 1_555
H16 C24 1_555 1_555
C25 H17 1_555 1_555
H18 C25 1_555 1_555
C26 N4 1_555 1_555
H19 C26 1_555 1_555
H20 C26 1_555 1_555
C27 O9 1_555 1_555
C28 N3 1_555 1_555
C29 C26 1_555 1_555
H21 C29 1_555 1_555
H22 C29 1_555 1_555
C30 C25 1_555 1_555
H23 C30 1_555 1_555
H24 C30 1_555 1_555
C31 C1 1_555 1_555
C32 C20 1_555 1_555
H25 C32 1_555 1_555
C33 C22 1_555 1_555
H26 C33 1_555 1_555
H27 C33 1_555 1_555
H28 C33 1_555 1_555
C34 C1 1_555 1_555
H29 C34 1_555 1_555
C35 C6 1_555 1_555
H30 C35 1_555 1_555
C36 N2 1_555 1_555
H31 C36 1_555 1_555
H32 C36 1_555 1_555
O10 C37 1_555 1_555
C37 C7 1_555 1_555
H33 O1 1_555 1_555
H34 O1 1_555 1_555
H36 O7 1_555 1_555
O2C Zn1 1_555 1_555
O3A Zn2 1_555 1_555
Zn1C O2 1_555 1_555
Zn2A O3 1_555 1_555
Zn1 O6 1_555 1_555
C10 C13 1_555 1_555
C11 C14 1_555 1_555
C15 C35 1_555 1_555
N4 C31 1_555 1_555
C18 C21 1_555 1_555
C19 C23 1_555 1_555
C19 C24 1_555 1_555
C20 C28 1_555 1_555
C23 C27 1_555 1_555
C25 C36 1_555 1_555
C28 C31 1_555 1_555
C29 C30 1_555 1_555
C32 C34 1_555 1_555

#END
