
#######################################################################
#
#                 Cambridge Crystallographic Data Centre
#                                CCDC 
#
#######################################################################
#
# If this CIF has been generated from an entry in the Cambridge 
# Structural Database, then it will include bibliographic, chemical, 
# crystal, experimental, refinement or atomic coordinate data resulting 
# from the CCDC's data processing and validation procedures.
#
#######################################################################

data_PEJMOH
_symmetry_cell_setting           rhombohedral
_symmetry_space_group_name_H-M   'R -3 c'
_symmetry_Int_Tables_number      167
_space_group_name_Hall           '-R 3 2"c'
loop_
_symmetry_equiv_pos_site_id
_symmetry_equiv_pos_as_xyz
1 x,y,z
2 -y,x-y,z
3 -x+y,-x,z
4 y,x,1/2-z
5 2/3+x,1/3+y,1/3+z
6 2/3-y,1/3+x-y,1/3+z
7 2/3-x+y,1/3-x,1/3+z
8 2/3+y,1/3+x,5/6-z
9 1/3+x,2/3+y,2/3+z
10 1/3+y,2/3+x,1/6-z
11 x-y,-y,1/2-z
12 -x,-x+y,1/2-z
13 1/3-y,2/3+x-y,2/3+z
14 1/3-x+y,2/3-x,2/3+z
15 1/3+x-y,2/3-y,1/6-z
16 1/3-x,2/3-x+y,1/6-z
17 2/3+x-y,1/3-y,5/6-z
18 2/3-x,1/3-x+y,5/6-z
19 -x,-y,-z
20 y,-x+y,-z
21 x-y,x,-z
22 -y,-x,1/2+z
23 1/3-x,2/3-y,2/3-z
24 1/3+y,2/3-x+y,2/3-z
25 1/3+x-y,2/3+x,2/3-z
26 1/3-y,2/3-x,1/6+z
27 2/3-x,1/3-y,1/3-z
28 2/3-y,1/3-x,5/6+z
29 -x+y,y,1/2+z
30 x,x-y,1/2+z
31 2/3+y,1/3-x+y,1/3-z
32 2/3+x-y,1/3+x,1/3-z
33 2/3-x+y,1/3+y,5/6+z
34 2/3+x,1/3+x-y,5/6+z
35 1/3-x+y,2/3+y,1/6+z
36 1/3+x,2/3+x-y,1/6+z
_cell_length_a                   14.7469(7)
_cell_length_b                   14.7469(7)
_cell_length_c                   59.386(3)
_cell_angle_alpha                90
_cell_angle_beta                 90
_cell_angle_gamma                120.00
_cell_volume                     11184.5
loop_
_atom_site_label
_atom_site_type_symbol
_atom_site_fract_x
_atom_site_fract_y
_atom_site_fract_z
Ag1 Ag 0.3333 0.6666 0.103540(6)
O1 O 0.17590(15) -0.10347(15) 0.11092(4)
N1 N 0.16168(18) -0.38387(18) 0.10402(4)
N2 N 0.01606(17) -0.24612(17) 0.11718(4)
H1 H -0.0473 -0.2661 0.1223
C1 C 0.0810(2) -0.4806(2) 0.10022(5)
H2 H 0.0949 -0.5343 0.0958
C2 C -0.0216(2) -0.5042(2) 0.10256(5)
H3 H -0.0772 -0.5734 0.0999
C3 C -0.0429(2) -0.4270(2) 0.10877(5)
H4 H -0.1132 -0.4427 0.1108
C4 C 0.0395(2) -0.3257(2) 0.11209(4)
C5 C 0.1410(2) -0.3083(2) 0.11000(5)
H5 H 0.1980 -0.2401 0.1129
C6 C 0.0825(2) -0.1413(2) 0.11495(5)
C7 C 0.0360(2) -0.0716(2) 0.11716(4)
C8 C 0.1066(2) 0.0357(2) 0.11715(4)
H6 H 0.1797 0.0602 0.1171
Ag1_2 Ag 0.3333 -0.3334 0.103540(6)
Ag1_3 Ag -0.6667 -0.3334 0.103540(6)
O1A O 0.10347(15) 0.27937(21) 0.11092(4)
O1B O -0.27937(21) -0.17590(15) 0.11092(4)
N1A N 0.38387(18) 0.54555(25) 0.10402(4)
N1B N 0.45445(25) 0.83832(18) 0.10402(4)
N1_2 N 0.16168(18) 0.61613(18) 0.10402(4)
N1B_2 N -0.54555(25) -0.16168(18) 0.10402(4)
N2A N 0.24612(17) 0.26218(24) 0.11718(4)
N2B N -0.26218(24) -0.01606(17) 0.11718(4)
H1A H 0.2661 0.2188 0.1223
H1B H -0.2188 0.0473 0.1223
C1A C 0.4806(2) 0.5616(3) 0.10022(5)
C1B C -0.5616(3) -0.0810(2) 0.10022(5)
H2A H 0.5343 0.6292 0.0958
H2B H -0.6292 -0.0949 0.0958
C2A C 0.5042(2) 0.4826(3) 0.10256(5)
C2B C -0.4826(3) 0.0216(2) 0.10256(5)
H3A H 0.5734 0.4962 0.0999
H3B H -0.4962 0.0772 0.0999
C3A C 0.4270(2) 0.3841(3) 0.10877(5)
C3B C -0.3841(3) 0.0429(2) 0.10877(5)
H4A H 0.4427 0.3295 0.1108
H4B H -0.3295 0.1132 0.1108
C4A C 0.3257(2) 0.3652(3) 0.11209(4)
C4B C -0.3652(3) -0.0395(2) 0.11209(4)
C5A C 0.3083(2) 0.4493(3) 0.11000(5)
C5B C -0.4493(3) -0.1410(2) 0.11000(5)
H5A H 0.2401 0.4381 0.1129
H5B H -0.4381 -0.1980 0.1129
C6A C 0.1413(2) 0.2238(3) 0.11495(5)
C6B C -0.2238(3) -0.0825(2) 0.11495(5)
C7A C 0.0716(2) 0.1076(3) 0.11716(4)
C7B C -0.1076(3) -0.0360(2) 0.11716(4)
C8A C -0.0357(2) 0.0709(3) 0.11715(4)
C8B C -0.0709(3) -0.1066(2) 0.11715(4)
H6A H -0.0602 0.1195 0.1171
H6B H -0.1195 -0.1797 0.1171
P1 P 0.3333 -0.3333 0.1667
F1 F 0.23128(13) -0.38042(14) 0.18228(3)
F1A F 0.38042(14) -0.38830(19) 0.18228(3)
F1B F 0.38830(19) -0.23128(13) 0.18228(3)
F1DA F 0.28625(14) -0.27837(19) 0.15105(3)
F1EA F 0.27837(19) -0.43539(13) 0.15105(3)
F1Z F 0.43539(13) -0.28625(14) 0.15105(3)
P2 P -0.3333 -0.6667 0.0833
F2 F -0.28308(14) -0.56457(13) 0.09884(3)
F2A F -0.43543(13) -0.71851(19) 0.09884(3)
F2B F -0.28149(19) -0.71692(14) 0.09884(3)
F2I F -0.23124(13) -0.61641(14) 0.06783(3)
F2N F -0.38518(19) -0.76876(13) 0.06783(3)
F2O F -0.38359(14) -0.61482(19) 0.06783(3)
O2 O -0.18852(18) -0.35601(17) 0.13650(4)
N3 N -0.35168(19) -0.43126(19) 0.15155(4)
C9 C -0.2653(3) -0.3516(3) 0.14323(6)
H7 H -0.2622 -0.2858 0.1424
C10 C -0.3617(3) -0.5338(2) 0.15321(6)
H8 H -0.3151 -0.5394 0.1422
H9 H -0.4343 -0.5876 0.1501
H10 H -0.3425 -0.5437 0.1684
C11 C -0.4390(2) -0.4192(3) 0.15912(6)
H11 H -0.4239 -0.3477 0.1559
H12 H -0.4489 -0.4323 0.1754
H13 H -0.5028 -0.4693 0.1512
loop_
_geom_bond_atom_site_label_1
_geom_bond_atom_site_label_2
_geom_bond_site_symmetry_1
_geom_bond_site_symmetry_2
Ag1 N1A 1_555 1_555
O1 C6 1_555 1_555
N1 C1 1_555 1_555
N2 H1 1_555 1_555
C1 H2 1_555 1_555
C2 C1 1_555 1_555
H3 C2 1_555 1_555
C3 C2 1_555 1_555
H4 C3 1_555 1_555
C4 N2 1_555 1_555
C5 N1 1_555 1_555
H5 C5 1_555 1_555
C6 N2 1_555 1_555
C7 C6 1_555 1_555
C8 C7 1_555 1_555
H6 C8 1_555 1_555
P1 F1 1_555 1_555
P2 F2 1_555 1_555
O2 C9 1_555 1_555
N3 C9 1_555 1_555
C9 H7 1_555 1_555
C10 N3 1_555 1_555
H8 C10 1_555 1_555
H9 C10 1_555 1_555
H10 C10 1_555 1_555
C11 N3 1_555 1_555
H11 C11 1_555 1_555
H12 C11 1_555 1_555
H13 C11 1_555 1_555
Ag1_2 N1 1_555 1_555
Ag1_3 N1B_2 1_555 1_555
O1A C6A 1_555 1_555
O1B C6B 1_555 1_555
N1A C1A 1_555 1_555
N1B Ag1 1_555 1_555
N1_2 Ag1 1_555 1_555
N1B_2 C1B 1_555 1_555
N2A H1A 1_555 1_555
N2B H1B 1_555 1_555
C1A H2A 1_555 1_555
C1B H2B 1_555 1_555
C2A C1A 1_555 1_555
C2B C1B 1_555 1_555
H3A C2A 1_555 1_555
H3B C2B 1_555 1_555
C3A C2A 1_555 1_555
C3B C2B 1_555 1_555
H4A C3A 1_555 1_555
H4B C3B 1_555 1_555
C4A N2A 1_555 1_555
C4B N2B 1_555 1_555
C5A N1A 1_555 1_555
C5B N1B_2 1_555 1_555
H5A C5A 1_555 1_555
H5B C5B 1_555 1_555
C6A N2A 1_555 1_555
C6B N2B 1_555 1_555
C7A C8 1_555 1_555
C7B C6B 1_555 1_555
C8A C7A 1_555 1_555
C8B C7 1_555 1_555
H6A C8A 1_555 1_555
H6B C8B 1_555 1_555
F1A P1 1_555 1_555
F1B P1 1_555 1_555
F1DA P1 1_555 1_555
F1EA P1 1_555 1_555
F1Z P1 1_555 1_555
F2A P2 1_555 1_555
F2B P2 1_555 1_555
F2I P2 1_555 1_555
F2N P2 1_555 1_555
F2O P2 1_555 1_555
C3 C4 1_555 1_555
C4 C5 1_555 1_555
C3A C4A 1_555 1_555
C3B C4B 1_555 1_555
C4A C5A 1_555 1_555
C4B C5B 1_555 1_555
C6A C7A 1_555 1_555
C7B C8A 1_555 1_555
C7B C8B 1_555 1_555

#END
