
#######################################################################
#
#                 Cambridge Crystallographic Data Centre
#                                CCDC 
#
#######################################################################
#
# If this CIF has been generated from an entry in the Cambridge 
# Structural Database, then it will include bibliographic, chemical, 
# crystal, experimental, refinement or atomic coordinate data resulting 
# from the CCDC's data processing and validation procedures.
#
#######################################################################

data_PEJMUN
_symmetry_cell_setting           cubic
_symmetry_space_group_name_H-M   'I a -3'
_symmetry_Int_Tables_number      206
_space_group_name_Hall           '-I 2b 2c 3'
loop_
_symmetry_equiv_pos_site_id
_symmetry_equiv_pos_as_xyz
1 x,y,z
2 z,x,y
3 y,z,x
4 1/2+x,1/2+y,1/2+z
5 1/2+z,1/2+x,1/2+y
6 1/2+y,1/2+z,1/2+x
7 1/2-x,-y,1/2+z
8 -x,1/2+y,1/2-z
9 1/2+x,1/2-y,-z
10 1/2+z,1/2-x,-y
11 1/2-z,-x,1/2+y
12 -z,1/2+x,1/2-y
13 -y,1/2+z,1/2-x
14 1/2+y,1/2-z,-x
15 1/2-y,-z,1/2+x
16 -x,1/2-y,z
17 1/2-x,y,-z
18 x,-y,1/2-z
19 z,-x,1/2-y
20 -z,1/2-x,y
21 1/2-z,x,-y
22 1/2-y,z,-x
23 y,-z,1/2-x
24 -y,1/2-z,x
25 -x,-y,-z
26 -z,-x,-y
27 -y,-z,-x
28 1/2-x,1/2-y,1/2-z
29 1/2-z,1/2-x,1/2-y
30 1/2-y,1/2-z,1/2-x
31 1/2+x,y,1/2-z
32 x,1/2-y,1/2+z
33 1/2-x,1/2+y,z
34 1/2-z,1/2+x,y
35 1/2+z,x,1/2-y
36 z,1/2-x,1/2+y
37 y,1/2-z,1/2+x
38 1/2-y,1/2+z,x
39 1/2+y,z,1/2-x
40 x,1/2+y,-z
41 1/2+x,-y,z
42 -x,y,1/2+z
43 -z,x,1/2+y
44 z,1/2+x,-y
45 1/2+z,-x,y
46 1/2+y,-z,x
47 -y,z,1/2+x
48 y,1/2+z,-x
_cell_length_a                   24.7843(4)
_cell_length_b                   24.7843(4)
_cell_length_c                   24.7843(4)
_cell_angle_alpha                90
_cell_angle_beta                 90
_cell_angle_gamma                90
_cell_volume                     15224
loop_
_atom_site_label
_atom_site_type_symbol
_atom_site_fract_x
_atom_site_fract_y
_atom_site_fract_z
Cd1 Cd 0.2500 0.7500 0.7500
O1 O 0.2656(2) 1.0313(2) 0.8552(3)
N1 N 0.27976(18) 0.83815(17) 0.77392(18)
N2 N 0.3404(2) 0.9858(2) 0.8289(2)
H1 H 0.3750 0.9884 0.8266
C1 C 0.3949(2) 1.0903(2) 0.8354(2)
H2 H 0.4047 1.0703 0.8052
C2 C 0.3500(2) 1.0754(2) 0.8656(2)
C3 C 0.3144(3) 1.0288(3) 0.8494(3)
C4 C 0.2465(2) 0.8776(3) 0.7886(3)
H3 H 0.2095 0.8712 0.7867
C5 C 0.2637(2) 0.9277(2) 0.8065(3)
H4 H 0.2388 0.9544 0.8153
C6 C 0.3181(2) 0.9376(2) 0.8112(2)
C7 C 0.3533(2) 0.8969(2) 0.7957(3)
H5 H 0.3904 0.9020 0.7981
C8 C 0.3327(2) 0.8489(2) 0.7769(2)
H6 H 0.3568 0.8225 0.7656
Cd1MA Cd 0.2500 1.2500 1.2500
Cd1A Cd 0.7500 1.2500 0.7500
Cd1B Cd 0.7500 0.7500 1.2500
Cd1MA_2 Cd 0.2500 0.2500 1.2500
O1I O 0.3552(3) 1.2344(2) 0.9687(2)
O1N O 0.4687(2) 1.1448(3) 0.7656(2)
O1RA O 0.3552(3) 0.7344(2) 1.0313(2)
O1CA O 0.4687(2) 0.6448(3) 1.2344(2)
O1MA O 0.2656(2) 0.5313(2) 1.1448(3)
N1I N 0.27392(18) 1.22024(18) 1.16185(17)
N1N N 0.66185(17) 1.22608(18) 0.77976(18)
N1RA N 0.27392(18) 0.72024(18) 0.83815(17)
N1CA N 0.66185(17) 0.72608(18) 1.22024(18)
N1MA N 0.27976(18) 0.33815(17) 1.22608(18)
N1TA N 0.16185(17) 0.77392(18) 0.77976(18)
N1AA N 0.22024(18) 0.66185(17) 0.72608(18)
N1K N 0.22608(18) 0.77976(18) 0.66185(17)
N1M N 0.33815(17) 0.72608(18) 0.72024(18)
N2I N 0.3289(2) 1.1596(2) 1.0142(2)
N2N N 0.5142(2) 1.1711(2) 0.8404(2)
N2RA N 0.3289(2) 0.6596(2) 0.9858(2)
N2CA N 0.5142(2) 0.6711(2) 1.1596(2)
N2MA N 0.3404(2) 0.4858(2) 1.1711(2)
H1I H 0.3266 1.1250 1.0116
H1N H 0.5116 1.1734 0.8750
H1RA H 0.3266 0.6250 0.9884
H1CA H 0.5116 0.6734 1.1250
H1MA H 0.3750 0.4884 1.1734
C1N C 0.4097(2) 1.1646(2) 0.8949(2)
C1I C 0.3354(2) 1.1051(2) 0.9097(2)
C1RA C 0.3354(2) 0.6051(2) 1.0903(2)
C1MA C 0.3949(2) 0.5903(2) 1.1646(2)
C1CA C 0.4097(2) 0.6646(2) 1.1051(2)
H2N H 0.4297 1.1948 0.9047
H2I H 0.3052 1.0953 0.9297
H2RA H 0.3052 0.5953 1.0703
H2MA H 0.4047 0.5703 1.1948
H2CA H 0.4297 0.6948 1.0953
C2N C 0.4246(2) 1.1344(2) 0.8500(2)
C2I C 0.3656(2) 1.1500(2) 0.9246(2)
C2RA C 0.3656(2) 0.6500(2) 1.0754(2)
C2MA C 0.3500(2) 0.5754(2) 1.1344(2)
C2CA C 0.4246(2) 0.6344(2) 1.1500(2)
C3I C 0.3494(3) 1.1856(3) 0.9712(3)
C3N C 0.4712(3) 1.1506(3) 0.8144(3)
C3RA C 0.3494(3) 0.6856(3) 1.0288(3)
C3CA C 0.4712(3) 0.6506(3) 1.1856(3)
C3MA C 0.3144(3) 0.5288(3) 1.1506(3)
C4I C 0.2886(3) 1.2535(2) 1.1224(3)
C4N C 0.6224(3) 1.2114(3) 0.7465(2)
C4RA C 0.2886(3) 0.7535(2) 0.8776(3)
C4CA C 0.6224(3) 0.7114(3) 1.2535(2)
C4MA C 0.2465(2) 0.3776(3) 1.2114(3)
H3I H 0.2867 1.2905 1.1288
H3N H 0.6288 1.2133 0.7095
H3RA H 0.2867 0.7905 0.8712
H3CA H 0.6288 0.7133 1.2905
H3MA H 0.2095 0.3712 1.2133
C5I C 0.3065(3) 1.2363(2) 1.0723(2)
C5N C 0.5723(2) 1.1935(3) 0.7637(2)
C5RA C 0.3065(3) 0.7363(2) 0.9277(2)
C5CA C 0.5723(2) 0.6935(3) 1.2363(2)
C5MA C 0.2637(2) 0.4277(2) 1.1935(3)
H4I H 0.3153 1.2612 1.0456
H4N H 0.5456 1.1847 0.7388
H4RA H 0.3153 0.7612 0.9544
H4CA H 0.5456 0.6847 1.2612
H4MA H 0.2388 0.4544 1.1847
C6I C 0.3112(2) 1.1819(2) 1.0624(2)
C6N C 0.5624(2) 1.1888(2) 0.8181(2)
C6RA C 0.3112(2) 0.6819(2) 0.9376(2)
C6CA C 0.5624(2) 0.6888(2) 1.1819(2)
C6MA C 0.3181(2) 0.4376(2) 1.1888(2)
C7I C 0.2957(3) 1.1467(2) 1.1031(2)
C7N C 0.6031(2) 1.2043(3) 0.8533(2)
C7RA C 0.2957(3) 0.6467(2) 0.8969(2)
C7CA C 0.6031(2) 0.7043(3) 1.1467(2)
C7MA C 0.3533(2) 0.3969(2) 1.2043(3)
H5I H 0.2981 1.1096 1.0980
H5N H 0.5980 1.2019 0.8904
H5RA H 0.2981 0.6096 0.9020
H5CA H 0.5980 0.7019 1.1096
H5MA H 0.3904 0.4020 1.2019
C8I C 0.2769(2) 1.1673(2) 1.1511(2)
C8N C 0.6511(2) 1.2231(2) 0.8327(2)
C8RA C 0.2769(2) 0.6673(2) 0.8489(2)
C8CA C 0.6511(2) 0.7231(2) 1.1673(2)
C8MA C 0.3327(2) 0.3489(2) 1.2231(2)
H6I H 0.2656 1.1432 1.1775
H6N H 0.6775 1.2344 0.8568
H6RA H 0.2656 0.6432 0.8225
H6CA H 0.6775 0.7344 1.1432
H6MA H 0.3568 0.3225 1.2344
Cl1 Cl 0.4575(5) 0.9736(5) 0.8384(5)
O2 O 0.6408 0.9626 0.7864
O3 O 0.5465 1.0237 0.8609
loop_
_geom_bond_atom_site_label_1
_geom_bond_atom_site_label_2
_geom_bond_site_symmetry_1
_geom_bond_site_symmetry_2
Cd1 N1 1_555 1_555
O1 C3 1_555 1_555
N1 C4 1_555 1_555
N2 H1 1_555 1_555
C1 H2 1_555 1_555
C2 C1 1_555 1_555
C3 N2 1_555 1_555
C4 H3 1_555 1_555
C5 C4 1_555 1_555
H4 C5 1_555 1_555
C6 N2 1_555 1_555
C7 C6 1_555 1_555
H5 C7 1_555 1_555
C8 N1 1_555 1_555
H6 C8 1_555 1_555
Cd1MA N1I 1_555 1_555
Cd1A N1N 1_555 1_555
Cd1B N1CA 1_555 1_555
Cd1MA_2 N1MA 1_555 1_555
O1I C3I 1_555 1_555
O1N C3N 1_555 1_555
O1RA C3RA 1_555 1_555
O1CA C3CA 1_555 1_555
O1MA C3MA 1_555 1_555
N1I C4I 1_555 1_555
N1N C4N 1_555 1_555
N1RA Cd1 1_555 1_555
N1CA C4CA 1_555 1_555
N1MA C4MA 1_555 1_555
N1TA Cd1 1_555 1_555
N1AA Cd1 1_555 1_555
N1K Cd1 1_555 1_555
N1M Cd1 1_555 1_555
N2I H1I 1_555 1_555
N2N H1N 1_555 1_555
N2RA H1RA 1_555 1_555
N2CA H1CA 1_555 1_555
N2MA H1MA 1_555 1_555
C1N H2N 1_555 1_555
C1I C2 1_555 1_555
C1RA H2RA 1_555 1_555
C1MA H2MA 1_555 1_555
C1CA H2CA 1_555 1_555
H2I C1I 1_555 1_555
C2N C1 1_555 1_555
C2I C1N 1_555 1_555
C2RA C1RA 1_555 1_555
C2MA C1RA 1_555 1_555
C2CA C1MA 1_555 1_555
C3I N2I 1_555 1_555
C3N N2N 1_555 1_555
C3RA N2RA 1_555 1_555
C3CA N2CA 1_555 1_555
C3MA N2MA 1_555 1_555
C4I H3I 1_555 1_555
C4N H3N 1_555 1_555
C4RA N1RA 1_555 1_555
C4CA H3CA 1_555 1_555
C4MA H3MA 1_555 1_555
H3RA C4RA 1_555 1_555
C5I C4I 1_555 1_555
C5N C4N 1_555 1_555
C5RA C4RA 1_555 1_555
C5CA C4CA 1_555 1_555
C5MA C4MA 1_555 1_555
H4I C5I 1_555 1_555
H4N C5N 1_555 1_555
H4RA C5RA 1_555 1_555
H4CA C5CA 1_555 1_555
H4MA C5MA 1_555 1_555
C6I N2I 1_555 1_555
C6N N2N 1_555 1_555
C6RA N2RA 1_555 1_555
C6CA N2CA 1_555 1_555
C6MA N2MA 1_555 1_555
C7I C6I 1_555 1_555
C7N C6N 1_555 1_555
C7RA C6RA 1_555 1_555
C7CA C6CA 1_555 1_555
C7MA C6MA 1_555 1_555
H5I C7I 1_555 1_555
H5N C7N 1_555 1_555
H5RA C7RA 1_555 1_555
H5CA C7CA 1_555 1_555
H5MA C7MA 1_555 1_555
C8I N1I 1_555 1_555
C8N N1N 1_555 1_555
C8RA N1RA 1_555 1_555
C8CA N1CA 1_555 1_555
C8MA N1MA 1_555 1_555
H6I C8I 1_555 1_555
H6N C8N 1_555 1_555
H6RA C8RA 1_555 1_555
H6CA C8CA 1_555 1_555
H6MA C8MA 1_555 1_555
C2 C3 1_555 1_555
C5 C6 1_555 1_555
C7 C8 1_555 1_555
C1N C2N 1_555 1_555
C1I C2I 1_555 1_555
C1MA C2MA 1_555 1_555
C1CA C2RA 1_555 1_555
C1CA C2CA 1_555 1_555
C2N C3N 1_555 1_555
C2I C3I 1_555 1_555
C2RA C3RA 1_555 1_555
C2MA C3MA 1_555 1_555
C2CA C3CA 1_555 1_555
C5I C6I 1_555 1_555
C5N C6N 1_555 1_555
C5RA C6RA 1_555 1_555
C5CA C6CA 1_555 1_555
C5MA C6MA 1_555 1_555
C7I C8I 1_555 1_555
C7N C8N 1_555 1_555
C7RA C8RA 1_555 1_555
C7CA C8CA 1_555 1_555
C7MA C8MA 1_555 1_555

#END
