
#######################################################################
#
#                 Cambridge Crystallographic Data Centre
#                                CCDC 
#
#######################################################################
#
# If this CIF has been generated from an entry in the Cambridge 
# Structural Database, then it will include bibliographic, chemical, 
# crystal, experimental, refinement or atomic coordinate data resulting 
# from the CCDC's data processing and validation procedures.
#
#######################################################################

data_PEJMEY
_symmetry_cell_setting           orthorhombic
_symmetry_space_group_name_H-M   'I b c a'
_symmetry_Int_Tables_number      73
_space_group_name_Hall           '-I 2b 2c'
loop_
_symmetry_equiv_pos_site_id
_symmetry_equiv_pos_as_xyz
1 x,y,z
2 1/2-x,-y,1/2+z
3 -x,1/2+y,1/2-z
4 1/2+x,1/2-y,-z
5 1/2+x,1/2+y,1/2+z
6 -x,1/2-y,z
7 1/2-x,y,-z
8 x,-y,1/2-z
9 -x,-y,-z
10 1/2+x,y,1/2-z
11 x,1/2-y,1/2+z
12 1/2-x,1/2+y,z
13 1/2-x,1/2-y,1/2-z
14 x,1/2+y,-z
15 1/2+x,-y,z
16 -x,y,1/2+z
_cell_length_a                   17.834(4)
_cell_length_b                   18.075(4)
_cell_length_c                   16.151(3)
_cell_angle_alpha                90
_cell_angle_beta                 90
_cell_angle_gamma                90
_cell_volume                     5206.27
loop_
_atom_site_label
_atom_site_type_symbol
_atom_site_fract_x
_atom_site_fract_y
_atom_site_fract_z
Zn1 Zn 0.2500 0.31779(6) 0.0000
N1 N 0.2588(2) 0.2471(3) 0.0982(4)
N2 N 0.3045(3) 0.1647(3) 0.1871(3)
O1 O 0.1533(3) 0.3669(3) 0.0184(3)
O2 O 0.1892(3) 0.4524(3) -0.0734(3)
C1 C 0.1984(4) 0.2141(3) 0.1421(4)
C2 C 0.1215(3) 0.2246(4) 0.1380(5)
H1 H 0.1008 0.2587 0.1014
C3 C 0.0771(4) 0.1835(4) 0.1891(4)
H2 H 0.0254 0.1899 0.1868
C4 C 0.1069(5) 0.1316(4) 0.2453(5)
H3 H 0.0748 0.1047 0.2793
C5 C 0.1821(4) 0.1206(4) 0.2505(4)
H4 H 0.2026 0.0869 0.2876
C6 C 0.2266(4) 0.1622(4) 0.1979(4)
C7 C 0.3202(3) 0.2143(4) 0.1272(4)
C8 C 0.3972(4) 0.2267(4) 0.0972(4)
H5 H 0.3990 0.2718 0.0659
H6 H 0.4120 0.1861 0.0625
H7 H 0.4307 0.2301 0.1435
C9 C 0.3582(4) 0.1192(4) 0.2348(4)
H8 H 0.3362 0.1074 0.2881
H9 H 0.4031 0.1482 0.2449
C10 C 0.3803(4) 0.0477(3) 0.1922(4)
H10 H 0.4086 0.0588 0.1424
H11 H 0.3356 0.0208 0.1761
C11 C 0.4277(5) 0.0000 0.2500
H12 H 0.4598 -0.0319 0.2171
C12 C -0.0554(4) 0.4679(4) 0.0469(4)
H13 H -0.0925 0.4457 0.0788
C13 C 0.0126(4) 0.4319(4) 0.0357(5)
H14 H 0.0206 0.3859 0.0600
C14 C 0.0689(4) 0.4643(4) -0.0119(4)
C15 C 0.1432(4) 0.4259(4) -0.0251(5)
Zn1A Zn 0.2500 -0.31779(6) 0.5000
Zn1H Zn -0.2500 0.68221(6) 0.0000
N1G N 0.2588(2) -0.2471(3) 0.4018(4)
N1F N 0.2412(2) 0.2471(3) -0.0982(4)
N2G N 0.3045(3) -0.1647(3) 0.3129(3)
O1H O -0.1533(3) 0.6331(3) -0.0184(3)
O1F O 0.3467(3) 0.3669(3) -0.0184(3)
O2H O -0.1892(3) 0.5476(3) 0.0734(3)
C1G C 0.1984(4) -0.2141(3) 0.3579(4)
C2G C 0.1215(3) -0.2246(4) 0.3620(5)
H1G H 0.1008 -0.2587 0.3986
C3G C 0.0771(4) -0.1835(4) 0.3109(4)
H2G H 0.0254 -0.1899 0.3132
C4G C 0.1069(5) -0.1316(4) 0.2547(5)
H3G H 0.0748 -0.1047 0.2207
C5G C 0.1821(4) -0.1206(4) 0.2495(4)
H4G H 0.2026 -0.0869 0.2124
C6G C 0.2266(4) -0.1622(4) 0.3021(4)
C7G C 0.3202(3) -0.2143(4) 0.3728(4)
C8G C 0.3972(4) -0.2267(4) 0.4028(4)
H5G H 0.3990 -0.2718 0.4341
H6G H 0.4120 -0.1861 0.4375
H7G H 0.4307 -0.2301 0.3565
C9G C 0.3582(4) -0.1192(4) 0.2652(4)
H8G H 0.3362 -0.1074 0.2119
H9G H 0.4031 -0.1482 0.2551
C10G C 0.3803(4) -0.0477(3) 0.3078(4)
H10G H 0.4086 -0.0588 0.3576
H11G H 0.3356 -0.0208 0.3239
H12G H 0.4598 0.0319 0.2829
C12H C 0.0554(4) 0.5321(4) -0.0469(4)
H13H H 0.0925 0.5543 -0.0788
C13H C -0.0126(4) 0.5681(4) -0.0357(5)
H14H H -0.0206 0.6141 -0.0600
C14H C -0.0689(4) 0.5357(4) 0.0119(4)
C15H C -0.1432(4) 0.5741(4) 0.0251(5)
O3 O 0.2500 0.0895(7) 1.0000
H15 H 0.271(6) 0.056(4) 0.971(7)
H15F H 0.229(6) 0.056(4) 1.029(7)
loop_
_geom_bond_atom_site_label_1
_geom_bond_atom_site_label_2
_geom_bond_site_symmetry_1
_geom_bond_site_symmetry_2
Zn1 N1 1_555 1_555
N1 C1 1_555 1_555
N2 C6 1_555 1_555
O1 Zn1 1_555 1_555
O2 C15 1_555 1_555
O3 H15 1_555 1_555
C1 C2 1_555 1_555
C2 H1 1_555 1_555
C3 C2 1_555 1_555
H2 C3 1_555 1_555
C4 C3 1_555 1_555
H3 C4 1_555 1_555
C5 C4 1_555 1_555
H4 C5 1_555 1_555
C6 C1 1_555 1_555
C7 N1 1_555 1_555
C8 C7 1_555 1_555
H5 C8 1_555 1_555
H6 C8 1_555 1_555
H7 C8 1_555 1_555
C9 N2 1_555 1_555
H8 C9 1_555 1_555
H9 C9 1_555 1_555
C10 C9 1_555 1_555
H10 C10 1_555 1_555
H11 C10 1_555 1_555
C11 C10 1_555 1_555
H12 C11 1_555 1_555
C12 H13 1_555 1_555
C13 C12 1_555 1_555
H14 C13 1_555 1_555
C14 C13 1_555 1_555
C15 O1 1_555 1_555
Zn1A N1G 1_555 1_555
Zn1H O1H 1_555 1_555
N1G C1G 1_555 1_555
N1F Zn1 1_555 1_555
N2G C6G 1_555 1_555
O1H C15H 1_555 1_555
O1F Zn1 1_555 1_555
O2H C15H 1_555 1_555
C1G C2G 1_555 1_555
C2G H1G 1_555 1_555
C3G C2G 1_555 1_555
H2G C3G 1_555 1_555
C4G C3G 1_555 1_555
H3G C4G 1_555 1_555
C5G C4G 1_555 1_555
H4G C5G 1_555 1_555
C6G C1G 1_555 1_555
C7G N1G 1_555 1_555
C8G C7G 1_555 1_555
H5G C8G 1_555 1_555
H6G C8G 1_555 1_555
H7G C8G 1_555 1_555
C9G N2G 1_555 1_555
H8G C9G 1_555 1_555
H9G C9G 1_555 1_555
C10G C11 1_555 1_555
H10G C10G 1_555 1_555
H11G C10G 1_555 1_555
H12G C11 1_555 1_555
C12H C14 1_555 1_555
H13H C12H 1_555 1_555
C13H C12H 1_555 1_555
H14H C13H 1_555 1_555
C14H C12 1_555 1_555
C15H C14H 1_555 1_555
H15F O3 1_555 1_555
N2 C7 1_555 1_555
C5 C6 1_555 1_555
C14 C15 1_555 1_555
N2G C7G 1_555 1_555
C5G C6G 1_555 1_555
C9G C10G 1_555 1_555
C13H C14H 1_555 1_555

#END
