
#######################################################################
#
#                 Cambridge Crystallographic Data Centre
#                                CCDC 
#
#######################################################################
#
# If this CIF has been generated from an entry in the Cambridge 
# Structural Database, then it will include bibliographic, chemical, 
# crystal, experimental, refinement or atomic coordinate data resulting 
# from the CCDC's data processing and validation procedures.
#
#######################################################################

data_PEJNAV
_symmetry_cell_setting           monoclinic
_symmetry_space_group_name_H-M   'P 21/a'
_symmetry_Int_Tables_number      14
_space_group_name_Hall           '-P 2yab'
loop_
_symmetry_equiv_pos_site_id
_symmetry_equiv_pos_as_xyz
1 x,y,z
2 1/2-x,1/2+y,-z
3 -x,-y,-z
4 1/2+x,1/2-y,z
_cell_length_a                   14.2649(3)
_cell_length_b                   12.8066(2)
_cell_length_c                   6.6816(1)
_cell_angle_alpha                90
_cell_angle_beta                 102.447(3)
_cell_angle_gamma                90
_cell_volume                     1191.94
loop_
_atom_site_label
_atom_site_type_symbol
_atom_site_fract_x
_atom_site_fract_y
_atom_site_fract_z
Zr1 Zr 0.64836(20) 0.00758(31) 0.8215(5)
F1 F 0.6568(12) 0.1642(8) 0.8424(27)
F2 F 0.7900(6) 0.0052(12) 0.9131(16)
F3 F 0.6439(11) -0.1526(8) 0.8443(29)
P1 P 0.5992(5) 0.0350(7) 1.2998(12)
O1 O 0.6583(9) 0.0106(19) 1.1427(15)
O2 O 0.4973(6) -0.0109(17) 1.2598(17)
O3 O 0.6514(9) 0.0034(18) 1.5078(15)
C1 C 0.5857(11) 0.1744(11) 1.312(4)
C2 C 0.6711(11) 0.2404(14) 1.2873(27)
N1 N 0.7586(10) 0.2189(14) 1.4217(24)
C3 C 0.8298(13) 0.1595(18) 1.3545(22)
C4 C 0.9122(12) 0.1314(17) 1.4997(21)
C5 C 0.9214(12) 0.1551(15) 1.7050(20)
C6 C 0.8590(13) 0.2282(16) 1.7669(22)
C7 C 0.7841(13) 0.2689(16) 1.6187(28)
C8 C 0.9996(9) 0.1208(12) 1.8532(14)
O4 O 1.0799(9) 0.0906(11) 1.7981(20)
O5 O 0.9989(13) 0.1329(11) 2.0505(20)
Zr1B Zr 0.35164(20) -0.00758(31) 1.1785(5)
Zr1_2 Zr 0.64836(20) 0.00758(31) 1.8215(5)
O2B O 0.5027(6) 0.0109(17) 0.7402(17)
O3_2 O 0.6514(9) 0.0034(18) 0.5078(15)
loop_
_geom_bond_atom_site_label_1
_geom_bond_atom_site_label_2
_geom_bond_site_symmetry_1
_geom_bond_site_symmetry_2
Zr1 F1 1_555 1_555
F2 Zr1 1_555 1_555
F3 Zr1 1_555 1_555
P1 O1 1_555 1_555
O1 Zr1 1_555 1_555
O2 P1 1_555 1_555
O3 P1 1_555 1_555
C1 P1 1_555 1_555
C2 C1 1_555 1_555
N1 C2 1_555 1_555
C3 N1 1_555 1_555
C4 C3 1_555 1_555
C5 C4 1_555 1_555
C6 C5 1_555 1_555
C7 N1 1_555 1_555
C8 C5 1_555 1_555
O4 C8 1_555 1_555
O5 C8 1_555 1_555
Zr1B O2 1_555 1_555
Zr1_2 O3 1_555 1_555
O2B Zr1 1_555 1_555
O3_2 Zr1 1_555 1_555
C6 C7 1_555 1_555

#END
