
#######################################################################
#
#                 Cambridge Crystallographic Data Centre
#                                CCDC 
#
#######################################################################
#
# If this CIF has been generated from an entry in the Cambridge 
# Structural Database, then it will include bibliographic, chemical, 
# crystal, experimental, refinement or atomic coordinate data resulting 
# from the CCDC's data processing and validation procedures.
#
#######################################################################

data_PEJNID
_symmetry_cell_setting           monoclinic
_symmetry_space_group_name_H-M   'P 21/a'
_symmetry_Int_Tables_number      14
_space_group_name_Hall           '-P 2yab'
loop_
_symmetry_equiv_pos_site_id
_symmetry_equiv_pos_as_xyz
1 x,y,z
2 1/2-x,1/2+y,-z
3 -x,-y,-z
4 1/2+x,1/2-y,z
_cell_length_a                   17.6407(8)
_cell_length_b                   13.0625(6)
_cell_length_c                   9.9599(5)
_cell_angle_alpha                90
_cell_angle_beta                 97.727(6)
_cell_angle_gamma                90
_cell_volume                     2274.24
loop_
_atom_site_label
_atom_site_type_symbol
_atom_site_fract_x
_atom_site_fract_y
_atom_site_fract_z
Zr1 Zr 0.1217(8) 1.1237(12) 0.4522(14)
F1 F 0.2288(12) 1.1284(34) 0.460(5)
F2 F 0.1374(27) 1.1551(34) 0.6462(25)
P1 P 0.0822(15) 0.8903(23) 0.5878(25)
O1 O 0.1125(33) 0.906(4) 0.7407(24)
O2 O 0.1201(25) 0.9761(19) 0.488(4)
O3 O -0.0083(11) 0.871(4) 0.555(5)
C1 C 0.1186(26) 0.7746(26) 0.523(5)
C2 C 0.0593(33) 0.688(4) 0.487(8)
N1 N 0.0857(31) 0.6228(23) 0.397(4)
C3 C 0.132(4) 0.6701(26) 0.310(6)
C4 C 0.1652(27) 0.612(4) 0.224(6)
C5 C 0.1482(30) 0.5077(32) 0.214(4)
C6 C 0.1214(22) 0.4579(21) 0.321(4)
C7 C 0.089(4) 0.5160(23) 0.414(6)
C8 C 0.1520(34) 0.3571(25) 0.359(7)
O4 O 0.1140(26) 0.2879(19) 0.425(5)
O5 O 0.2092(25) 0.3274(31) 0.307(6)
Zr2 Zr 0.1200(8) 0.8777(12) 0.9362(14)
F3 F 0.1300(26) 0.8507(34) 1.1270(27)
F4 F 0.2292(15) 0.907(4) 0.958(5)
P2 P 0.0855(13) 1.1167(19) 0.0905(20)
O6 O 0.1083(28) 1.1101(35) 0.2527(21)
O7 O -0.0033(12) 1.127(4) 0.080(5)
O8 O 0.1062(26) 1.0320(20) -0.017(4)
C9 C 0.1206(34) 1.2340(27) 0.038(4)
C10 C 0.0941(34) 1.2584(28) -0.113(5)
N2 N 0.1216(26) 1.3487(24) -0.157(4)
C11 C 0.1904(34) 1.3474(35) -0.212(8)
C12 C 0.2211(29) 1.438(5) -0.248(7)
C13 C 0.1869(33) 1.5307(34) -0.217(7)
C14 C 0.1388(31) 1.5316(24) -0.118(7)
C15 C 0.101(4) 1.4407(25) -0.097(8)
C16 C 0.0928(20) 1.6182(19) -0.0547(33)
O9 O 0.1075(27) 1.7019(18) -0.069(6)
O10 O 0.0180(24) 1.6008(33) -0.040(6)
Zr1B Zr -0.1217(8) 0.8763(12) 0.5478(14)
Zr1_2 Zr 0.1217(8) 0.1237(12) 0.4522(14)
O3B O 0.0083(11) 1.129(4) 0.445(5)
O4_2 O 0.1140(26) 1.2879(19) 0.425(5)
Zr2B Zr -0.1200(8) 1.1223(12) 0.0638(14)
Zr2_2 Zr 0.1200(8) 0.8777(12) -0.0638(14)
Zr2_3 Zr 0.1200(8) 1.8777(12) -0.0638(14)
O7B O 0.0033(12) 0.873(4) 0.920(5)
O8_2 O 0.1062(26) 1.0320(20) 0.983(4)
O9_2 O 0.1075(27) 0.7019(18) 0.931(6)
loop_
_geom_bond_atom_site_label_1
_geom_bond_atom_site_label_2
_geom_bond_site_symmetry_1
_geom_bond_site_symmetry_2
Zr1 F1 1_555 1_555
F2 Zr1 1_555 1_555
P1 O1 1_555 1_555
O1 Zr2 1_555 1_555
O2 Zr1 1_555 1_555
O3 P1 1_555 1_555
C1 P1 1_555 1_555
C2 C1 1_555 1_555
N1 C2 1_555 1_555
C3 N1 1_555 1_555
C4 C3 1_555 1_555
C5 C4 1_555 1_555
C6 C5 1_555 1_555
C7 N1 1_555 1_555
C8 C6 1_555 1_555
O4 C8 1_555 1_555
O5 C8 1_555 1_555
Zr2 F3 1_555 1_555
F4 Zr2 1_555 1_555
P2 O6 1_555 1_555
O6 Zr1 1_555 1_555
O7 P2 1_555 1_555
O8 P2 1_555 1_555
C9 P2 1_555 1_555
C10 C9 1_555 1_555
N2 C10 1_555 1_555
C11 N2 1_555 1_555
C12 C11 1_555 1_555
C13 C12 1_555 1_555
C14 C13 1_555 1_555
C15 N2 1_555 1_555
C16 C14 1_555 1_555
O9 C16 1_555 1_555
O10 C16 1_555 1_555
Zr1B O3 1_555 1_555
Zr1_2 O4 1_555 1_555
O3B Zr1 1_555 1_555
O4_2 Zr1 1_555 1_555
Zr2B O7 1_555 1_555
Zr2_2 O8 1_555 1_555
Zr2_3 O9 1_555 1_555
O7B Zr2 1_555 1_555
O8_2 Zr2 1_555 1_555
O9_2 Zr2 1_555 1_555
P1 O2 1_555 1_555
C6 C7 1_555 1_555
C14 C15 1_555 1_555

#END
