
#######################################################################
#
#                 Cambridge Crystallographic Data Centre
#                                CCDC 
#
#######################################################################
#
# If this CIF has been generated from an entry in the Cambridge 
# Structural Database, then it will include bibliographic, chemical, 
# crystal, experimental, refinement or atomic coordinate data resulting 
# from the CCDC's data processing and validation procedures.
#
#######################################################################

data_PEJPEB
_symmetry_cell_setting           rhombohedral
_symmetry_space_group_name_H-M   'R -3'
_symmetry_Int_Tables_number      148
_space_group_name_Hall           '-R 3'
loop_
_symmetry_equiv_pos_site_id
_symmetry_equiv_pos_as_xyz
1 x,y,z
2 -y,x-y,z
3 -x+y,-x,z
4 2/3+x,1/3+y,1/3+z
5 2/3-y,1/3+x-y,1/3+z
6 2/3-x+y,1/3-x,1/3+z
7 1/3+x,2/3+y,2/3+z
8 1/3-y,2/3+x-y,2/3+z
9 1/3-x+y,2/3-x,2/3+z
10 -x,-y,-z
11 y,-x+y,-z
12 x-y,x,-z
13 1/3-x,2/3-y,2/3-z
14 1/3+y,2/3-x+y,2/3-z
15 1/3+x-y,2/3+x,2/3-z
16 2/3-x,1/3-y,1/3-z
17 2/3+y,1/3-x+y,1/3-z
18 2/3+x-y,1/3+x,1/3-z
_cell_length_a                   43.8139(8)
_cell_length_b                   43.8139(8)
_cell_length_c                   17.2006(3)
_cell_angle_alpha                90
_cell_angle_beta                 90
_cell_angle_gamma                120
_cell_volume                     28595.5
loop_
_atom_site_label
_atom_site_type_symbol
_atom_site_fract_x
_atom_site_fract_y
_atom_site_fract_z
Zn1 Zn 0.49428(2) 0.17553(2) 0.17631(4)
Zn2 Zn 0.50945(2) 0.15504(2) -0.00463(4)
Zn3 Zn 0.66948(2) 0.077890(19) 0.06903(4)
O1 O 0.53575(14) 0.17065(15) 0.1835(3)
O2 O 0.54411(16) 0.15570(17) 0.0646(3)
O3 O 0.62284(15) 0.10610(15) 0.0262(3)
O4 O 0.64124(13) 0.09131(13) 0.1334(2)
O5 O 0.63767(14) 0.14264(13) 0.3856(3)
O6 O 0.62674(16) 0.18549(15) 0.3891(3)
O7 O 0.46486(14) 0.11453(14) 0.0283(3)
O8 O 0.45410(14) 0.13033(16) 0.1421(3)
O9 O 0.29470(12) 0.01201(13) 0.1860(3)
O10 O 0.33217(12) 0.06266(14) 0.2441(3)
O11 O 0.39423(14) -0.01440(13) -0.0355(3)
O12 O 0.34242(12) -0.04524(12) 0.0192(3)
O13 O 0.50435(14) 0.19664(14) -0.0111(3)
O14 O 0.49089(16) 0.20818(15) 0.1058(3)
O15 O 0.5114(3) 0.2766(3) -0.2276(4)
O16 O 0.47476(14) 0.29590(13) -0.2234(2)
O17 O 0.41832(12) 0.29658(13) 0.0190(2)
O18 O 0.42469(17) 0.27168(16) 0.1255(3)
C1 C 0.55016(19) 0.15970(19) 0.1371(4)
C2 C 0.57723(17) 0.15133(18) 0.1661(3)
C3 C 0.58944(18) 0.13461(17) 0.1196(4)
H3 H 0.5821 0.1298 0.0681
C4 C 0.61278(17) 0.12470(17) 0.1489(3)
C5 C 0.62425(18) 0.13282(18) 0.2256(4)
H4 H 0.6391 0.1254 0.2460
C6 C 0.61351(18) 0.15213(18) 0.2727(4)
C7 C 0.58940(18) 0.16065(18) 0.2424(3)
H5 H 0.5813 0.1726 0.2730
C8 C 0.62670(19) 0.10647(19) 0.0972(4)
C9 C 0.6267(2) 0.16077(19) 0.3529(4)
C10 C 0.44650(17) 0.10951(19) 0.0861(4)
C11 C 0.41253(17) 0.07502(18) 0.0929(4)
C12 C 0.38655(18) 0.07190(19) 0.1429(4)
H6 H 0.3908 0.0908 0.1747
C13 C 0.35446(17) 0.04128(18) 0.1465(4)
C14 C 0.34925(17) 0.01192(17) 0.1028(4)
H7 H 0.3280 -0.0092 0.1062
C15 C 0.37581(18) 0.01437(18) 0.0545(4)
C16 C 0.40733(18) 0.04685(18) 0.0487(4)
H8 H 0.4248 0.0492 0.0145
C17 C 0.32571(18) 0.03906(19) 0.1977(4)
C18 C 0.37099(18) -0.01724(18) 0.0092(4)
C19 C 0.49260(19) 0.21048(19) 0.0333(4)
C20 C 0.48121(19) 0.23452(19) -0.0023(4)
C21 C 0.46201(17) 0.24585(18) 0.0400(4)
H9 H 0.4574 0.2398 0.0922
C22 C 0.44982(19) 0.26557(18) 0.0070(4)
C23 C 0.4773(2) 0.2658(2) -0.1129(4)
C24 C 0.45790(19) 0.2764(2) -0.0695(4)
H10 H 0.4502 0.2907 -0.0916
C25 C 0.4897(2) 0.2454(2) -0.0798(4)
H11 H 0.5035 0.2388 -0.1086
C26 C 0.4886(2) 0.2802(2) -0.1948(4)
C27 C 0.42903(18) 0.27891(19) 0.0555(4)
Zn1N Zn 0.65208(3) 0.16095(2) 0.49036(4)
Zn2M Zn 0.48837(2) 0.31226(3) -0.32870(4)
Zn3Q Zn 0.258257(28) 0.00281(2) 0.26430(4)
Zn3I Zn 0.33052(2) -0.077890(19) -0.06903(4)
Zn3B Zn 0.408410(28) 0.33052(2) 0.06903(4)
O5M O 0.47597(13) 0.17164(19) 0.2811(3)
O9P O 0.67868(13) 0.05064(18) 0.1473(3)
O12I O 0.65758(12) 0.04524(12) -0.0192(3)
O16N O 0.51219(19) 0.14143(14) -0.1099(2)
O17A O 0.70342(13) 0.12174(18) 0.0190(2)
O19 O 0.29708(16) 0.07844(17) 0.5466(3)
H1 H 0.3123 0.0815 0.5783
O20 O 0.3825(3) 0.2034(3) 0.1698(7)
H2 H 0.3969 0.2205 0.1449
N1 N 0.34274(18) 0.1079(2) 0.4231(4)
N2 N 0.3678(3) 0.1640(3) 0.3028(5)
C28 C 0.2973(2) 0.0563(2) 0.4822(5)
H12 H 0.2919 0.0335 0.5028
H13 H 0.2788 0.0524 0.4457
C29 C 0.3303(2) 0.0714(2) 0.4410(5)
H14 H 0.3477 0.0696 0.4727
H15 H 0.3273 0.0584 0.3933
C30 C 0.3190(2) 0.1136(2) 0.3684(5)
H16 H 0.3128 0.0975 0.3248
H17 H 0.2975 0.1082 0.3953
C31 C 0.3345(3) 0.1469(4) 0.3416(7)
H18 H 0.3367 0.1616 0.3857
H19 H 0.3178 0.1479 0.3063
C32 C 0.3935(3) 0.1586(3) 0.3539(8)
H20 H 0.4151 0.1661 0.3251
H21 H 0.3992 0.1735 0.3996
C33 C 0.3792(3) 0.1216(3) 0.3789(6)
H22 H 0.3959 0.1200 0.4132
H23 H 0.3757 0.1069 0.3339
C34 C 0.3635(3) 0.1493(3) 0.2202(7)
H24 H 0.3648 0.1278 0.2205
H25 H 0.3410 0.1441 0.1986
C35 C 0.3934(3) 0.1775(3) 0.1731(6)
H26 H 0.4159 0.1864 0.1992
H27 H 0.3947 0.1691 0.1217
O21 O 0.36490(18) 0.15931(16) 0.5283(4)
N3 N 0.3849(2) 0.18944(19) 0.6468(5)
C36 C 0.3718(2) 0.1590(2) 0.5981(5)
C37 C 0.3868(3) 0.2204(2) 0.6125(8)
H28 H 0.3944 0.2387 0.6511
H29 H 0.3639 0.2148 0.5936
H30 H 0.4033 0.2285 0.5702
C38 C 0.3958(4) 0.1899(4) 0.7267(5)
H31 H 0.4017 0.2120 0.7503
H32 H 0.4161 0.1868 0.7276
H33 H 0.3769 0.1711 0.7551
O22 O 0.4028(4) 0.2317(4) 0.3545(9)
N4 N 0.3963(2) 0.2764(2) 0.3256(5)
C39 C 0.4161(4) 0.2642(4) 0.3683(11)
C40 C 0.4100(3) 0.3140(2) 0.3262(7)
H34 H 0.3952 0.3195 0.2953
H35 H 0.4335 0.3258 0.3050
H36 H 0.4107 0.3218 0.3786
C41 C 0.3649(3) 0.2536(4) 0.2802(8)
H37 H 0.3564 0.2675 0.2553
H38 H 0.3469 0.2367 0.3139
H39 H 0.3706 0.2415 0.2414
O23 O 0.6635(5) 0.2232(5) 0.0990(11)
N5 N 0.6944(3) 0.2217(4) 0.2089(8)
C42 C 0.6780(5) 0.2087(5) 0.1340(9)
C43 C 0.6859(5) 0.2443(5) 0.2553(10)
H40 H 0.6988 0.2500 0.3033
H41 H 0.6611 0.2321 0.2661
H42 H 0.6923 0.2655 0.2271
C44 C 0.7122(3) 0.2042(3) 0.2413(7)
H43 H 0.7221 0.2143 0.2909
H44 H 0.7307 0.2070 0.2068
H45 H 0.6956 0.1795 0.2477
O24 O 0.1805(3) 0.8957(3) 0.6429(6)
N6 N 0.2090(3) 0.9404(3) 0.5541(6)
C45 C 0.1803(3) 0.9201(3) 0.6061(8)
C46 C 0.2096(4) 0.9689(3) 0.5111(7)
H46 H 0.2306 0.9802 0.4799
H47 H 0.2095 0.9857 0.5466
H48 H 0.1893 0.9598 0.4780
C47 C 0.2437(3) 0.9444(6) 0.5600(12)
H49 H 0.2586 0.9602 0.5201
H50 H 0.2420 0.9219 0.5535
H51 H 0.2535 0.9538 0.6101
N7 N 0.6424(6) 0.2041(5) 0.9522(13)
C48 C 0.6369(4) 0.1702(5) 0.9261(9)
H52 H 0.6275 0.1536 0.9680
H53 H 0.6590 0.1727 0.9096
H54 H 0.6207 0.1620 0.8833
C49 C 0.6581(7) 0.2360(7) 0.9046(15)
H55 H 0.6590 0.2551 0.9340
H56 H 0.6440 0.2320 0.8589
H57 H 0.6815 0.2418 0.8897
loop_
_geom_bond_atom_site_label_1
_geom_bond_atom_site_label_2
_geom_bond_site_symmetry_1
_geom_bond_site_symmetry_2
Zn1 O1 1_555 1_555
Zn2 O2 1_555 1_555
Zn3 O4 1_555 1_555
O1 C1 1_555 1_555
O2 C1 1_555 1_555
O3 C8 1_555 1_555
O4 C8 1_555 1_555
O5 C9 1_555 1_555
O6 C9 1_555 1_555
O7 Zn2 1_555 1_555
O8 Zn1 1_555 1_555
O9 C17 1_555 1_555
O10 C17 1_555 1_555
O11 C18 1_555 1_555
O12 C18 1_555 1_555
O13 Zn2 1_555 1_555
O14 Zn1 1_555 1_555
O15 C26 1_555 1_555
O16 C26 1_555 1_555
O17 C27 1_555 1_555
O18 C27 1_555 1_555
O19 H1 1_555 1_555
O20 H2 1_555 1_555
O21 C36 1_555 1_555
O22 C39 1_555 1_555
O23 C42 1_555 1_555
O24 C45 1_555 1_555
N1 C29 1_555 1_555
N2 C31 1_555 1_555
N3 C36 1_555 1_555
N4 C39 1_555 1_555
N5 C42 1_555 1_555
N6 C45 1_555 1_555
N7 C48 1_555 1_555
C1 C2 1_555 1_555
C2 C3 1_555 1_555
C3 H3 1_555 1_555
C4 C3 1_555 1_555
C5 C4 1_555 1_555
H4 C5 1_555 1_555
C6 C5 1_555 1_555
C7 C2 1_555 1_555
H5 C7 1_555 1_555
C8 C4 1_555 1_555
C9 C6 1_555 1_555
C10 O7 1_555 1_555
C11 C10 1_555 1_555
C12 C11 1_555 1_555
H6 C12 1_555 1_555
C13 C12 1_555 1_555
C14 C13 1_555 1_555
H7 C14 1_555 1_555
C15 C14 1_555 1_555
C16 C11 1_555 1_555
H8 C16 1_555 1_555
C17 C13 1_555 1_555
C18 C15 1_555 1_555
C19 O13 1_555 1_555
C20 C19 1_555 1_555
C21 C20 1_555 1_555
H9 C21 1_555 1_555
C22 C21 1_555 1_555
C23 C24 1_555 1_555
C24 C22 1_555 1_555
H10 C24 1_555 1_555
C25 C20 1_555 1_555
H11 C25 1_555 1_555
C26 C23 1_555 1_555
C27 C22 1_555 1_555
C28 O19 1_555 1_555
H12 C28 1_555 1_555
H13 C28 1_555 1_555
C29 C28 1_555 1_555
H14 C29 1_555 1_555
H15 C29 1_555 1_555
C30 N1 1_555 1_555
H16 C30 1_555 1_555
H17 C30 1_555 1_555
C31 C30 1_555 1_555
H18 C31 1_555 1_555
H19 C31 1_555 1_555
C32 N2 1_555 1_555
H20 C32 1_555 1_555
H21 C32 1_555 1_555
C33 N1 1_555 1_555
H22 C33 1_555 1_555
H23 C33 1_555 1_555
C34 N2 1_555 1_555
H24 C34 1_555 1_555
H25 C34 1_555 1_555
C35 O20 1_555 1_555
H26 C35 1_555 1_555
H27 C35 1_555 1_555
C37 N3 1_555 1_555
H28 C37 1_555 1_555
H29 C37 1_555 1_555
H30 C37 1_555 1_555
C38 N3 1_555 1_555
H31 C38 1_555 1_555
H32 C38 1_555 1_555
H33 C38 1_555 1_555
C40 N4 1_555 1_555
H34 C40 1_555 1_555
H35 C40 1_555 1_555
H36 C40 1_555 1_555
C41 N4 1_555 1_555
H37 C41 1_555 1_555
H38 C41 1_555 1_555
H39 C41 1_555 1_555
C43 N5 1_555 1_555
H40 C43 1_555 1_555
H41 C43 1_555 1_555
H42 C43 1_555 1_555
C44 N5 1_555 1_555
H43 C44 1_555 1_555
H44 C44 1_555 1_555
H45 C44 1_555 1_555
C46 N6 1_555 1_555
H46 C46 1_555 1_555
H47 C46 1_555 1_555
H48 C46 1_555 1_555
C47 N6 1_555 1_555
H49 C47 1_555 1_555
H50 C47 1_555 1_555
H51 C47 1_555 1_555
C48 H52 1_555 1_555
H53 C48 1_555 1_555
H54 C48 1_555 1_555
C49 N7 1_555 1_555
H55 C49 1_555 1_555
H56 C49 1_555 1_555
H57 C49 1_555 1_555
Zn1N O5 1_555 1_555
Zn2M O16 1_555 1_555
Zn3Q O9 1_555 1_555
Zn3I O12 1_555 1_555
Zn3B O17 1_555 1_555
O5M Zn1 1_555 1_555
O9P Zn3 1_555 1_555
O12I Zn3 1_555 1_555
O16N Zn2 1_555 1_555
O17A Zn3 1_555 1_555
O8 C10 1_555 1_555
O14 C19 1_555 1_555
C6 C7 1_555 1_555
C15 C16 1_555 1_555
C23 C25 1_555 1_555
C32 C33 1_555 1_555
C34 C35 1_555 1_555

#END
