
#######################################################################
#
#                 Cambridge Crystallographic Data Centre
#                                CCDC 
#
#######################################################################
#
# If this CIF has been generated from an entry in the Cambridge 
# Structural Database, then it will include bibliographic, chemical, 
# crystal, experimental, refinement or atomic coordinate data resulting 
# from the CCDC's data processing and validation procedures.
#
#######################################################################

data_PEJPOL
_symmetry_cell_setting           monoclinic
_symmetry_space_group_name_H-M   'I 2/a'
_symmetry_Int_Tables_number      15
_space_group_name_Hall           '-I 2ya'
loop_
_symmetry_equiv_pos_site_id
_symmetry_equiv_pos_as_xyz
1 x,y,z
2 1/2-x,y,-z
3 1/2+x,1/2+y,1/2+z
4 -x,1/2+y,1/2-z
5 -x,-y,-z
6 1/2+x,-y,z
7 1/2-x,1/2-y,1/2-z
8 x,1/2-y,1/2+z
_cell_length_a                   18.5152(4)
_cell_length_b                   15.2446(3)
_cell_length_c                   21.4278(5)
_cell_angle_alpha                90
_cell_angle_beta                 100.999(2)
_cell_angle_gamma                90
_cell_volume                     5937.04
loop_
_atom_site_label
_atom_site_type_symbol
_atom_site_fract_x
_atom_site_fract_y
_atom_site_fract_z
Zn1 Zn 0.30984(4) 0.42764(5) 0.94846(4)
Zn2 Zn 0.56730(5) 0.35163(6) 0.58813(4)
O1 O 0.3490(3) 0.3872(4) 0.8267(3)
O2 O 0.4028(3) 0.4343(3) 0.9219(2)
O3 O 0.6599(3) 0.5069(4) 0.9724(2)
O4 O 0.7233(3) 0.5227(4) 0.8949(2)
O5 O 0.5072(3) 0.3714(4) 0.6569(2)
O6 O 0.6264(3) 0.3799(4) 0.6880(2)
O7 O 0.2931(3) 0.3062(4) 0.9695(3)
O8 O 0.0828(3) 0.0224(4) 1.0604(3)
O9 O 0.1471(3) -0.0979(4) 1.0515(3)
O10 O 0.4851(4) 0.3479(4) 0.5090(3)
O11 O 0.6135(6) 0.1146(8) 0.6795(6)
N1 N 0.5758(4) 0.2182(5) 0.5683(4)
C1 C 0.4030(4) 0.4122(5) 0.8643(4)
C2 C 0.4770(4) 0.4215(4) 0.8445(3)
C3 C 0.5379(4) 0.4536(5) 0.8870(3)
H1 H 0.5331 0.4682 0.9282
C4 C 0.6047(4) 0.4639(5) 0.8692(3)
C5 C 0.6131(4) 0.4395(5) 0.8080(3)
H2 H 0.6587 0.4446 0.7961
C6 C 0.5525(4) 0.4075(5) 0.7650(3)
C7 C 0.4856(4) 0.3995(5) 0.7832(4)
H3 H 0.4454 0.3790 0.7541
C8 C 0.6682(4) 0.5004(5) 0.9155(4)
C9 C 0.5625(5) 0.3843(5) 0.6995(4)
C10 C 0.2500 0.2685(8) 1.0000
C11 C 0.2500 0.1724(7) 1.0000
C12 C 0.2500 -0.0076(8) 1.0000
H4 H 0.2500 -0.0686 1.0000
C13 C 0.1962(5) 0.0356(5) 1.0235(4)
C14 C 0.1970(5) 0.1243(5) 1.0247(4)
H5 H 0.1619 0.1541 1.0422
C15 C 0.1360(5) -0.0163(6) 1.0475(4)
C16 C 0.4838(6) 0.2633(7) 0.4786(6)
H6 H 0.4726 0.2704 0.4327
H7 H 0.4460 0.2268 0.4909
C17 C 0.5605(7) 0.2186(9) 0.4990(5)
H8 H 0.5594 0.1592 0.4826
H9 H 0.5980 0.2514 0.4829
C18 C 0.6478(7) 0.1789(10) 0.5882(6)
H10 H 0.6832 0.2138 0.5711
H11 H 0.6469 0.1210 0.5693
C19 C 0.6741(7) 0.1700(8) 0.6574(6)
H12 H 0.6789 0.2270 0.6779
H13 H 0.7212 0.1402 0.6665
C20 C 0.5415(8) 0.1538(10) 0.6639(7)
H14 H 0.5420 0.2104 0.6846
H15 H 0.5060 0.1167 0.6792
C21 C 0.5179(8) 0.1660(9) 0.5892(6)
H16 H 0.5130 0.1094 0.5682
H17 H 0.4710 0.1963 0.5789
Zn1A Zn 0.19016(4) 0.42764(5) 1.05154(4)
Zn1D Zn -0.30984(4) 0.57236(5) 1.05154(4)
Zn1D_2 Zn 0.69016(4) 0.57236(5) 1.05154(4)
Zn1E Zn -0.19016(4) 0.57236(5) 0.94846(4)
Zn1E_2 Zn 0.80984(4) 0.57236(5) 0.94846(4)
Zn2A Zn -0.06730(5) 0.35163(6) 1.41187(4)
Zn2B Zn 0.06730(5) -0.14837(6) 1.08813(4)
Zn2C Zn 0.43270(5) -0.14837(6) 0.91187(4)
O1A O 0.1510(3) 0.3872(4) 1.1733(3)
O2A O 0.0972(3) 0.4343(3) 1.0781(2)
O3A O -0.1599(3) 0.5069(4) 1.0276(2)
O3D O 0.3401(3) 0.4931(4) 1.0276(2)
O3E O 0.1599(3) 0.4931(4) 0.9724(2)
O4A O -0.2233(3) 0.5227(4) 1.1051(2)
O4D O 0.2767(3) 0.4773(4) 1.1051(2)
O4E O 0.2233(3) 0.4773(4) 0.8949(2)
O5A O -0.0072(3) 0.3714(4) 1.3431(2)
O6A O -0.1264(3) 0.3799(4) 1.3120(2)
O7A O 0.2069(3) 0.3062(4) 1.0305(3)
O8A O 0.4172(3) 0.0224(4) 0.9396(3)
O9A O 0.3529(3) -0.0979(4) 0.9485(3)
O9B O 0.6471(3) 0.4021(4) 0.5515(3)
O9C O -0.1471(3) 0.4021(4) 1.4485(3)
O10A O 0.0149(4) 0.3479(4) 1.4910(3)
O11A O -0.1135(6) 0.1146(8) 1.3205(6)
N1A N -0.0758(4) 0.2182(5) 1.4317(4)
C1A C 0.0970(4) 0.4122(5) 1.1357(4)
C2A C 0.0230(4) 0.4215(4) 1.1555(3)
C3A C -0.0379(4) 0.4536(5) 1.1130(3)
H1A H -0.0331 0.4682 1.0718
C4A C -0.1047(4) 0.4639(5) 1.1308(3)
C5A C -0.1131(4) 0.4395(5) 1.1920(3)
H2A H -0.1587 0.4446 1.2039
C6A C -0.0525(4) 0.4075(5) 1.2350(3)
C7A C 0.0144(4) 0.3995(5) 1.2168(4)
H3A H 0.0546 0.3790 1.2459
C8A C -0.1682(4) 0.5004(5) 1.0845(4)
C9A C -0.0625(5) 0.3843(5) 1.3005(4)
C13A C 0.3038(5) 0.0356(5) 0.9765(4)
C14A C 0.3030(5) 0.1243(5) 0.9753(4)
H5A H 0.3381 0.1541 0.9578
C15A C 0.3640(5) -0.0163(6) 0.9525(4)
C16A C 0.0162(6) 0.2633(7) 1.5214(6)
H6A H 0.0274 0.2704 1.5673
H7A H 0.0540 0.2268 1.5091
C17A C -0.0605(7) 0.2186(9) 1.5010(5)
H8A H -0.0594 0.1592 1.5174
H9A H -0.0980 0.2514 1.5171
C18A C -0.1478(7) 0.1789(10) 1.4118(6)
H10A H -0.1832 0.2138 1.4289
H11A H -0.1469 0.1210 1.4307
C19A C -0.1741(7) 0.1700(8) 1.3426(6)
H12A H -0.1789 0.2270 1.3221
H13A H -0.2212 0.1402 1.3335
C20A C -0.0415(8) 0.1538(10) 1.3361(7)
H14A H -0.0420 0.2104 1.3154
H15A H -0.0060 0.1167 1.3208
C21A C -0.0179(8) 0.1660(9) 1.4108(6)
H16A H -0.0130 0.1094 1.4318
H17A H 0.0290 0.1963 1.4211
loop_
_geom_bond_atom_site_label_1
_geom_bond_atom_site_label_2
_geom_bond_site_symmetry_1
_geom_bond_site_symmetry_2
Zn1 O2 1_555 1_555
Zn2 O5 1_555 1_555
O1 C1 1_555 1_555
O2 C1 1_555 1_555
O3 C8 1_555 1_555
O4 C8 1_555 1_555
O5 C9 1_555 1_555
O6 Zn2 1_555 1_555
O7 Zn1 1_555 1_555
O8 C15 1_555 1_555
O9 C15 1_555 1_555
O10 Zn2 1_555 1_555
O11 C19 1_555 1_555
N1 Zn2 1_555 1_555
C1 C2 1_555 1_555
C2 C3 1_555 1_555
C3 H1 1_555 1_555
C4 C3 1_555 1_555
C5 C4 1_555 1_555
H2 C5 1_555 1_555
C6 C5 1_555 1_555
C7 C2 1_555 1_555
H3 C7 1_555 1_555
C8 C4 1_555 1_555
C9 O6 1_555 1_555
C10 O7 1_555 1_555
C11 C10 1_555 1_555
C12 H4 1_555 1_555
C13 C12 1_555 1_555
C14 C11 1_555 1_555
H5 C14 1_555 1_555
C15 C13 1_555 1_555
C16 O10 1_555 1_555
H6 C16 1_555 1_555
H7 C16 1_555 1_555
C17 N1 1_555 1_555
H8 C17 1_555 1_555
H9 C17 1_555 1_555
C18 N1 1_555 1_555
H10 C18 1_555 1_555
H11 C18 1_555 1_555
C19 C18 1_555 1_555
H12 C19 1_555 1_555
H13 C19 1_555 1_555
C20 O11 1_555 1_555
H14 C20 1_555 1_555
H15 C20 1_555 1_555
C21 N1 1_555 1_555
H16 C21 1_555 1_555
H17 C21 1_555 1_555
Zn1A O2A 1_555 1_555
Zn1D O4A 1_555 1_555
Zn1D_2 O3 1_555 1_555
Zn1E O3A 1_555 1_555
Zn1E_2 O4 1_555 1_555
Zn2A O5A 1_555 1_555
Zn2B O9 1_555 1_555
Zn2C O9A 1_555 1_555
O1A C1A 1_555 1_555
O2A C1A 1_555 1_555
O3A C8A 1_555 1_555
O3D Zn1 1_555 1_555
O3E Zn1A 1_555 1_555
O4A C8A 1_555 1_555
O4D Zn1A 1_555 1_555
O4E Zn1 1_555 1_555
O5A C9A 1_555 1_555
O6A Zn2A 1_555 1_555
O7A C10 1_555 1_555
O8A C15A 1_555 1_555
O9A C15A 1_555 1_555
O9B Zn2 1_555 1_555
O9C Zn2A 1_555 1_555
O10A Zn2A 1_555 1_555
O11A C19A 1_555 1_555
N1A Zn2A 1_555 1_555
C1A C2A 1_555 1_555
C2A C3A 1_555 1_555
C3A H1A 1_555 1_555
C4A C3A 1_555 1_555
C5A C4A 1_555 1_555
H2A C5A 1_555 1_555
C6A C5A 1_555 1_555
C7A C2A 1_555 1_555
H3A C7A 1_555 1_555
C8A C4A 1_555 1_555
C9A O6A 1_555 1_555
C13A C12 1_555 1_555
C14A C11 1_555 1_555
H5A C14A 1_555 1_555
C15A C13A 1_555 1_555
C16A O10A 1_555 1_555
H6A C16A 1_555 1_555
H7A C16A 1_555 1_555
C17A N1A 1_555 1_555
H8A C17A 1_555 1_555
H9A C17A 1_555 1_555
C18A N1A 1_555 1_555
H10A C18A 1_555 1_555
H11A C18A 1_555 1_555
C19A C18A 1_555 1_555
H12A C19A 1_555 1_555
H13A C19A 1_555 1_555
C20A O11A 1_555 1_555
H14A C20A 1_555 1_555
H15A C20A 1_555 1_555
C21A N1A 1_555 1_555
H16A C21A 1_555 1_555
H17A C21A 1_555 1_555
C6 C7 1_555 1_555
C6 C9 1_555 1_555
C13 C14 1_555 1_555
C16 C17 1_555 1_555
C20 C21 1_555 1_555
Zn1A O7A 1_555 1_555
C6A C7A 1_555 1_555
C6A C9A 1_555 1_555
C13A C14A 1_555 1_555
C16A C17A 1_555 1_555
C20A C21A 1_555 1_555

#END
