
#######################################################################
#
#                 Cambridge Crystallographic Data Centre
#                                CCDC 
#
#######################################################################
#
# If this CIF has been generated from an entry in the Cambridge 
# Structural Database, then it will include bibliographic, chemical, 
# crystal, experimental, refinement or atomic coordinate data resulting 
# from the CCDC's data processing and validation procedures.
#
#######################################################################

data_PEJRIH
_symmetry_cell_setting           monoclinic
_symmetry_space_group_name_H-M   'C 2/c'
_symmetry_Int_Tables_number      15
_space_group_name_Hall           '-C 2yn'
loop_
_symmetry_equiv_pos_site_id
_symmetry_equiv_pos_as_xyz
1 x,y,z
2 1/2+x,1/2+y,z
3 -x,y,1/2-z
4 1/2-x,1/2+y,1/2-z
5 -x,-y,-z
6 1/2-x,1/2-y,-z
7 x,-y,1/2+z
8 1/2+x,1/2-y,1/2+z
_cell_length_a                   20.930(2)
_cell_length_b                   52.180(5)
_cell_length_c                   30.679(3)
_cell_angle_alpha                90
_cell_angle_beta                 104.625(2)
_cell_angle_gamma                90
_cell_volume                     32419.8
loop_
_atom_site_label
_atom_site_type_symbol
_atom_site_fract_x
_atom_site_fract_y
_atom_site_fract_z
Co1 Co 0.43824(4) 0.136419(17) 0.51529(2)
Co2 Co 0.31379(4) 0.113816(17) 0.48965(2)
Co3 Co 0.06255(5) 0.136604(17) -0.01119(2)
Co4 Co 0.18690(5) 0.112920(17) 0.01368(3)
O1 O 0.2509(3) 0.29907(9) 0.29970(15)
O2 O 0.2683(3) 0.30000(9) 0.20364(16)
O3 O 0.2527(2) 0.23120(9) 0.30065(14)
O4 O 0.2631(3) 0.23360(8) 0.19566(15)
O5 O 0.1105(2) 0.16360(8) 0.03215(13)
O6 O 0.2114(2) 0.14550(8) 0.05056(13)
O7 O 0.2904(2) 0.14371(8) 0.44694(13)
O8 O 0.3904(2) 0.16191(8) 0.46806(14)
O9 O 0.1353(3) 0.08635(8) -0.03036(14)
O10 O 0.0360(2) 0.10430(8) -0.04930(14)
O11 O -0.0080(3) 0.01787(9) -0.19711(14)
O12 O 0.0128(3) -0.04862(10) -0.29912(18)
O13 O 0.4198(3) 0.34394(9) 0.06448(15)
O14 O 0.3200(3) 0.36324(9) 0.04201(13)
O15 O 0.1700(2) -0.09403(9) -0.43326(14)
O16 O 0.0715(3) -0.11269(9) -0.45530(14)
O17 O 0.1074(2) 0.34775(9) 0.43867(14)
O18 O 0.2080(2) 0.36544(8) 0.45983(13)
O19 O 0.4610(2) 0.11626(8) 0.46521(13)
O20 O 0.3597(2) 0.09812(8) 0.44414(13)
O21 O 0.6377(3) -0.08805(8) 0.46219(15)
O22 O 0.5382(2) -0.10618(8) 0.44293(14)
O23 O 0.4967(3) -0.01606(9) 0.30096(15)
O24 O 0.4925(3) 0.05205(9) 0.29844(16)
N1 N 0.2801(2) 0.10128(9) 0.01183(14)
N2 N 0.3645(2) 0.07755(9) 0.00620(16)
N3 N 0.5205(2) 0.15866(9) 0.54065(15)
N4 N 0.5966(2) 0.18831(10) 0.54599(16)
N5 N 0.2327(2) 0.09134(9) 0.46455(15)
N6 N 0.1566(3) 0.06162(10) 0.45839(16)
N7 N -0.0309(2) 0.14825(9) -0.01046(15)
N8 N -0.1140(3) 0.17230(10) -0.00578(19)
C1 C 0.0000 -0.01488(18) -0.2500
C2 C 0.0395(4) 0.00193(13) -0.2123(2)
H1 H 0.0643 -0.0086 -0.1877
H2 H 0.0702 0.0126 -0.2231
C3 C 0.0160(4) 0.03388(14) -0.1599(2)
C4 C 0.0830(4) 0.03421(13) -0.1367(2)
H3 H 0.1144 0.0240 -0.1450
C5 C 0.0989(4) 0.05113(13) -0.1000(2)
H4 H 0.1420 0.0514 -0.0821
C6 C 0.0539(4) 0.06716(12) -0.0896(2)
C7 C -0.0114(4) 0.06651(13) -0.1142(2)
H5 H -0.0419 0.0776 -0.1069
C8 C -0.0317(4) 0.04940(13) -0.1494(2)
H6 H -0.0757 0.0484 -0.1655
C9 C 0.0751(4) 0.08748(15) -0.0536(2)
C10 C 0.0509(4) -0.03094(12) -0.2657(2)
H7 H 0.0786 -0.0201 -0.2790
H8 H 0.0787 -0.0403 -0.2407
C11 C 0.0417(4) -0.06027(14) -0.3286(2)
C12 C 0.1076(4) -0.05958(12) -0.3260(2)
H9 H 0.1361 -0.0507 -0.3027
C13 C 0.1318(4) -0.07210(12) -0.3582(2)
H10 H 0.1769 -0.0718 -0.3561
C14 C 0.0900(4) -0.08515(14) -0.3936(2)
C15 C 0.0237(4) -0.08612(14) -0.3953(2)
H11 H -0.0048 -0.0947 -0.4189
C16 C -0.0013(4) -0.07461(15) -0.3625(3)
H12 H -0.0456 -0.0763 -0.3629
C17 C 0.1133(4) -0.09809(13) -0.4297(2)
C18 C 0.1927(4) 0.18241(13) 0.0897(2)
C19 C 0.1504(4) 0.19993(12) 0.1009(2)
H13 H 0.1066 0.2000 0.0842
C20 C 0.1692(3) 0.21710(12) 0.1349(2)
H14 H 0.1384 0.2282 0.1418
C21 C 0.2343(4) 0.21794(12) 0.1592(2)
C22 C 0.2811(4) 0.20118(14) 0.1475(2)
H15 H 0.3252 0.2018 0.1634
C23 C 0.2603(4) 0.18400(12) 0.1122(2)
H16 H 0.2909 0.1736 0.1035
C24 C 0.2182(3) 0.24966(12) 0.21112(19)
H17 H 0.1860 0.2394 0.2211
H18 H 0.1950 0.2609 0.1872
C25 C 0.2592(3) 0.26515(14) 0.24991(19)
C26 C 0.2116(4) 0.28204(12) 0.2685(2)
H19 H 0.1824 0.2915 0.2443
H20 H 0.1850 0.2715 0.2832
C27 C 0.2993(4) 0.24802(13) 0.2877(2)
H21 H 0.3317 0.2382 0.2770
H22 H 0.3223 0.2584 0.3131
C28 C 0.3077(4) 0.28209(13) 0.2339(2)
H23 H 0.3368 0.2909 0.2591
H24 H 0.3344 0.2720 0.2186
C29 C 0.2778(4) 0.21540(13) 0.3364(2)
C30 C 0.3391(4) 0.21564(13) 0.3651(2)
H25 H 0.3695 0.2279 0.3611
C31 C 0.3575(4) 0.19846(13) 0.3996(2)
H26 H 0.3999 0.1990 0.4185
C32 C 0.3126(4) 0.18002(12) 0.4064(2)
C33 C 0.2490(4) 0.18026(14) 0.3787(2)
H27 H 0.2181 0.1686 0.3840
C34 C 0.2308(4) 0.19715(13) 0.3439(2)
H28 H 0.1882 0.1968 0.3251
C35 C 0.3348(4) 0.16069(12) 0.4438(2)
C36 C 0.1686(4) 0.16265(11) 0.0538(2)
C37 C 0.2240(4) 0.31115(14) 0.3294(2)
C38 C 0.2673(5) 0.32544(19) 0.3601(3)
H29 H 0.3113 0.3261 0.3588
C39 C 0.1603(4) 0.31083(16) 0.3322(3)
H30 H 0.1288 0.3019 0.3108
C40 C 0.2981(5) 0.31135(14) 0.1736(2)
C41 C 0.3634(4) 0.31081(16) 0.1732(2)
H31 H 0.3939 0.3024 0.1960
C42 C 0.3840(4) 0.32269(14) 0.1391(2)
H32 H 0.4284 0.3221 0.1392
C43 C 0.3406(4) 0.33530(12) 0.1053(2)
C44 C 0.2731(4) 0.33739(16) 0.1066(2)
H33 H 0.2429 0.3470 0.0854
C45 C 0.2546(4) 0.32428(15) 0.1416(3)
H34 H 0.2106 0.3246 0.1426
C46 C 0.3028(3) 0.07777(12) 0.0108(2)
H35 H 0.2787 0.0631 0.0131
C47 C 0.3287(3) 0.11690(12) 0.0080(2)
H36 H 0.3269 0.1347 0.0081
C48 C 0.3822(3) 0.10257(12) 0.0040(3)
H37 H 0.4223 0.1087 0.0005
C49 C 0.4041(4) 0.05511(14) 0.0040(3)
C50 C 0.4011(4) 0.03504(14) 0.0322(3)
H38 H 0.3747 0.0360 0.0524
C51 C 0.4393(4) 0.01285(14) 0.0300(3)
H39 H 0.4355 -0.0011 0.0479
C52 C 0.4481(4) 0.05569(14) -0.0203(3)
H40 H 0.4544 0.0704 -0.0357
C53 C 0.1635(4) 0.35077(14) 0.4348(2)
C54 C 0.1841(3) 0.33711(13) 0.3977(2)
C55 C 0.1419(4) 0.32356(14) 0.3661(2)
H41 H 0.0980 0.3227 0.3672
C56 C 0.2479(4) 0.33933(17) 0.3937(3)
H42 H 0.2778 0.3499 0.4131
C57 C 0.5333(3) 0.16912(13) 0.58295(19)
H43 H 0.5134 0.1642 0.6055
C58 C 0.5568(3) 0.17176(13) 0.5184(2)
H44 H 0.5549 0.1697 0.4880
C59 C 0.5798(3) 0.18783(13) 0.58688(19)
H45 H 0.5968 0.1981 0.6118
C60 C 0.6412(4) 0.20584(15) 0.5330(2)
C61 C 0.6707(4) 0.20006(14) 0.5000(3)
H46 H 0.6621 0.1842 0.4859
C62 C 0.7130(4) 0.21654(14) 0.4863(2)
H47 H 0.7319 0.2116 0.4633
C63 C 0.7276(4) 0.23993(16) 0.5059(3)
C64 C 0.6967(4) 0.24539(16) 0.5409(3)
H48 H 0.7063 0.2610 0.5559
C65 C 0.6533(4) 0.22906(13) 0.5543(2)
H49 H 0.6331 0.2337 0.5768
C66 C 0.4181(4) 0.10184(12) 0.4394(2)
C67 C 0.4363(4) 0.08836(11) 0.4015(2)
C68 C 0.3887(4) 0.07367(13) 0.3712(2)
H50 H 0.3464 0.0724 0.3755
C69 C 0.4985(4) 0.09060(16) 0.3964(3)
H51 H 0.5297 0.1003 0.4167
C70 C 0.1949(3) 0.07895(12) 0.4857(2)
H52 H 0.1945 0.0817 0.5156
C71 C 0.2170(3) 0.08110(14) 0.4216(2)
H53 H 0.2358 0.0865 0.3988
C72 C 0.1722(4) 0.06285(14) 0.4167(2)
H54 H 0.1548 0.0530 0.3912
C73 C 0.1084(4) 0.04446(14) 0.4696(2)
C74 C 0.0831(5) 0.05037(16) 0.5046(3)
H55 H 0.0950 0.0653 0.5212
C75 C 0.0369(4) 0.03253(13) 0.5151(3)
H56 H 0.0159 0.0368 0.5374
C76 C 0.0224(3) 0.00923(11) 0.4932(2)
C77 C 0.0535(4) 0.00397(12) 0.4597(2)
H57 H 0.0441 -0.0115 0.4443
C78 C 0.0991(4) 0.02083(15) 0.4475(2)
H58 H 0.1215 0.0164 0.4260
C79 C 0.5785(4) -0.08962(14) 0.4385(2)
C80 C 0.5602(4) -0.06934(13) 0.4034(2)
C81 C 0.4968(4) -0.06935(13) 0.3759(2)
H59 H 0.4674 -0.0818 0.3807
C82 C 0.4742(4) -0.05135(14) 0.3406(2)
H60 H 0.4314 -0.0516 0.3222
C83 C 0.5197(4) -0.03375(14) 0.3355(2)
C84 C 0.5855(4) -0.03334(13) 0.3614(2)
H61 H 0.6161 -0.0218 0.3554
C85 C 0.6027(4) -0.05102(14) 0.3967(2)
H62 H 0.6447 -0.0502 0.4162
C86 C 0.5421(4) 0.00061(13) 0.2868(2)
H63 H 0.5663 0.0110 0.3118
H64 H 0.5735 -0.0092 0.2752
C87 C 0.5000 0.01753(18) 0.2500
C88 C 0.4523(4) 0.03338(12) 0.2685(2)
H65 H 0.4285 0.0226 0.2849
H66 H 0.4206 0.0419 0.2443
C89 C 0.4677(5) 0.06293(14) 0.3313(2)
C90 C 0.4036(4) 0.06110(13) 0.3352(2)
H67 H 0.3717 0.0518 0.3146
C91 C 0.5156(4) 0.07830(16) 0.3609(3)
H68 H 0.5577 0.0801 0.3565
C92 C 0.4803(4) 0.01121(12) 0.0031(3)
C93 C 0.4851(5) 0.03344(15) -0.0222(4)
H69 H 0.5139 0.0333 -0.0408
C94 C 0.3625(5) 0.34859(14) 0.0674(2)
C95 C -0.0525(4) 0.17207(14) -0.0097(2)
H70 H -0.0278 0.1866 -0.0118
C96 C -0.0824(3) 0.13318(13) -0.0067(3)
H71 H -0.0824 0.1154 -0.0068
C97 C -0.1948(5) 0.19437(19) 0.0214(4)
H72 H -0.1996 0.1795 0.0370
C98 C -0.2311(6) 0.2159(2) 0.0250(5)
H73 H -0.2567 0.2161 0.0457
C99 C -0.1337(4) 0.14809(15) -0.0026(3)
H74 H -0.1741 0.1426 0.0016
C100 C -0.1886(4) 0.23611(12) -0.0292(2)
H75 H -0.1865 0.2503 -0.0472
C101 C -0.2303(5) 0.23656(18) -0.0005(4)
C102 C -0.1539(4) 0.19516(15) -0.0042(3)
C103 C -0.1505(4) 0.21511(13) -0.0313(3)
H76 H -0.1231 0.2146 -0.0508
O9B O -0.1353(3) 0.08635(8) -0.46964(14)
O10B O -0.0360(2) 0.10430(8) -0.45070(14)
O11B O 0.0080(3) 0.01787(9) -0.30289(14)
O12B O -0.0128(3) -0.04862(10) -0.20088(18)
O15B O -0.1700(2) -0.09403(9) -0.06674(14)
O16B O -0.0715(3) -0.11269(9) -0.04470(14)
C2B C -0.0395(4) 0.00193(13) -0.2877(2)
H1B H -0.0643 -0.0086 -0.3123
H2B H -0.0702 0.0126 -0.2769
C3B C -0.0160(4) 0.03388(14) -0.3401(2)
C4B C -0.0830(4) 0.03421(13) -0.3633(2)
H3B H -0.1144 0.0240 -0.3550
C5B C -0.0989(4) 0.05113(13) -0.4000(2)
H4B H -0.1420 0.0514 -0.4179
C6B C -0.0539(4) 0.06716(12) -0.4104(2)
C7B C 0.0114(4) 0.06651(13) -0.3858(2)
H5B H 0.0419 0.0776 -0.3931
C8B C 0.0317(4) 0.04940(13) -0.3506(2)
H6B H 0.0757 0.0484 -0.3345
C9B C -0.0751(4) 0.08748(15) -0.4464(2)
C10B C -0.0509(4) -0.03094(12) -0.2343(2)
H7B H -0.0786 -0.0201 -0.2210
H8B H -0.0787 -0.0403 -0.2593
C11B C -0.0417(4) -0.06027(14) -0.1714(2)
C12B C -0.1076(4) -0.05958(12) -0.1740(2)
H9B H -0.1361 -0.0507 -0.1973
C13B C -0.1318(4) -0.07210(12) -0.1418(2)
H10B H -0.1769 -0.0718 -0.1439
C14B C -0.0900(4) -0.08515(14) -0.1064(2)
C15B C -0.0237(4) -0.08612(14) -0.1047(2)
H11B H 0.0048 -0.0947 -0.0811
C16B C 0.0013(4) -0.07461(15) -0.1375(3)
H12B H 0.0456 -0.0763 -0.1371
C17B C -0.1133(4) -0.09809(13) -0.0703(2)
O19B O 0.5390(2) 0.11626(8) 0.03479(13)
O20B O 0.6403(2) 0.09812(8) 0.05586(13)
O21B O 0.3623(3) -0.08805(8) 0.03781(15)
O22B O 0.4618(2) -0.10618(8) 0.05707(14)
O23B O 0.5033(3) -0.01606(9) 0.19904(15)
O24B O 0.5075(3) 0.05205(9) 0.20156(16)
C66B C 0.5819(4) 0.10184(12) 0.0606(2)
C67B C 0.5637(4) 0.08836(11) 0.0985(2)
C68B C 0.6113(4) 0.07367(13) 0.1288(2)
H50B H 0.6536 0.0724 0.1245
C69B C 0.5015(4) 0.09060(16) 0.1036(3)
H51B H 0.4703 0.1003 0.0833
C79B C 0.4215(4) -0.08962(14) 0.0615(2)
C80B C 0.4398(4) -0.06934(13) 0.0966(2)
C81B C 0.5032(4) -0.06935(13) 0.1241(2)
H59B H 0.5326 -0.0818 0.1193
C82B C 0.5258(4) -0.05135(14) 0.1594(2)
H60B H 0.5686 -0.0516 0.1778
C83B C 0.4803(4) -0.03375(14) 0.1645(2)
C84B C 0.4145(4) -0.03334(13) 0.1386(2)
H61B H 0.3839 -0.0218 0.1446
C85B C 0.3973(4) -0.05102(14) 0.1033(2)
H62B H 0.3553 -0.0502 0.0838
C86B C 0.4579(4) 0.00061(13) 0.2132(2)
H63B H 0.4337 0.0110 0.1882
H64B H 0.4265 -0.0092 0.2248
C88B C 0.5477(4) 0.03338(12) 0.2315(2)
H65B H 0.5715 0.0226 0.2151
H66B H 0.5794 0.0419 0.2557
C89B C 0.5323(5) 0.06293(14) 0.1687(2)
C90B C 0.5964(4) 0.06110(13) 0.1648(2)
H67B H 0.6283 0.0518 0.1854
C91B C 0.4844(4) 0.07830(16) 0.1391(3)
H68B H 0.4423 0.0801 0.1435
N1D N 0.7199(2) -0.10128(9) -0.01183(14)
N2D N 0.6355(2) -0.07755(9) -0.00620(16)
C46D C 0.6972(3) -0.07777(12) -0.0108(2)
H35D H 0.7213 -0.0631 -0.0131
C47D C 0.6713(3) -0.11690(12) -0.0080(2)
H36D H 0.6731 -0.1347 -0.0081
C48D C 0.6178(3) -0.10257(12) -0.0040(3)
H37D H 0.5777 -0.1087 -0.0005
C49D C 0.5959(4) -0.05511(14) -0.0040(3)
C50D C 0.5989(4) -0.03504(14) -0.0322(3)
H38D H 0.6253 -0.0360 -0.0524
C51D C 0.5607(4) -0.01285(14) -0.0300(3)
H39D H 0.5645 0.0011 -0.0479
C52D C 0.5519(4) -0.05569(14) 0.0203(3)
H40D H 0.5456 -0.0704 0.0357
C92D C 0.5197(4) -0.01121(12) -0.0031(3)
C93D C 0.5149(5) -0.03344(15) 0.0222(4)
H69D H 0.4861 -0.0333 0.0408
N3E N 0.9795(2) 0.34134(9) 0.45935(15)
N4E N 0.9034(2) 0.31169(10) 0.45401(16)
C57E C 0.9667(3) 0.33088(13) 0.41705(19)
H43E H 0.9866 0.3358 0.3945
C58E C 0.9432(3) 0.32824(13) 0.4816(2)
H44E H 0.9451 0.3303 0.5120
C59E C 0.9202(3) 0.31217(13) 0.41312(19)
H45E H 0.9032 0.3019 0.3882
C60E C 0.8588(4) 0.29416(15) 0.4670(2)
C61E C 0.8293(4) 0.29994(14) 0.5000(3)
H46E H 0.8379 0.3158 0.5141
C62E C 0.7870(4) 0.28346(14) 0.5137(2)
H47E H 0.7681 0.2884 0.5367
C63E C 0.7724(4) 0.26007(16) 0.4941(3)
C64E C 0.8033(4) 0.25461(16) 0.4591(3)
H48E H 0.7937 0.2390 0.4441
C65E C 0.8467(4) 0.27094(13) 0.4457(2)
H49E H 0.8669 0.2663 0.4232
N5D N -0.2327(2) -0.09134(9) 0.53545(15)
N6D N -0.1566(3) -0.06162(10) 0.54161(16)
C70D C -0.1949(3) -0.07895(12) 0.5143(2)
H52D H -0.1945 -0.0817 0.4844
C71D C -0.2170(3) -0.08110(14) 0.5784(2)
H53D H -0.2358 -0.0865 0.6012
C72D C -0.1722(4) -0.06285(14) 0.5833(2)
H54D H -0.1548 -0.0530 0.6088
C73D C -0.1084(4) -0.04446(14) 0.5304(2)
C74D C -0.0831(5) -0.05037(16) 0.4954(3)
H55D H -0.0950 -0.0653 0.4788
C75D C -0.0369(4) -0.03253(13) 0.4849(3)
H56D H -0.0159 -0.0368 0.4626
C76D C -0.0224(3) -0.00923(11) 0.5068(2)
C77D C -0.0535(4) -0.00397(12) 0.5403(2)
H57D H -0.0441 0.0115 0.5557
C78D C -0.0991(4) -0.02083(15) 0.5525(2)
H58D H -0.1215 -0.0164 0.5740
N7E N -0.4691(2) 0.35175(9) 0.01046(15)
N8E N -0.3860(3) 0.32770(10) 0.00578(19)
C95E C -0.4475(4) 0.32793(14) 0.0097(2)
H70E H -0.4722 0.3134 0.0118
C96E C -0.4176(3) 0.36682(13) 0.0067(3)
H71E H -0.4176 0.3846 0.0068
C97E C -0.3052(5) 0.30563(19) -0.0214(4)
H72E H -0.3004 0.3205 -0.0370
C98E C -0.2689(6) 0.2841(2) -0.0250(5)
H73E H -0.2433 0.2839 -0.0457
C99E C -0.3663(4) 0.35191(15) 0.0026(3)
H74E H -0.3259 0.3574 -0.0016
C100E C -0.3114(4) 0.26389(12) 0.0292(2)
H75E H -0.3135 0.2497 0.0472
C101E C -0.2697(5) 0.26344(18) 0.0005(4)
C102E C -0.3461(4) 0.30484(15) 0.0042(3)
C103E C -0.3495(4) 0.28489(13) 0.0313(3)
H76E H -0.3769 0.2854 0.0508
Co1B Co -0.43824(4) 0.136419(17) -1.01529(2)
Co2B Co -0.31379(4) 0.113816(17) -0.98965(2)
Co3B Co -0.06255(5) 0.136604(17) -0.48881(2)
Co4B Co -0.18690(5) 0.112920(17) -0.51368(3)
O1B O -0.2509(3) 0.29907(9) -0.79970(15)
O2B O -0.2683(3) 0.30000(9) -0.70364(16)
O3B O -0.2527(2) 0.23120(9) -0.80065(14)
O4B O -0.2631(3) 0.23360(8) -0.69566(15)
O5B O -0.1105(2) 0.16360(8) -0.53215(13)
O6B O -0.2114(2) 0.14550(8) -0.55056(13)
O7B O -0.2904(2) 0.14371(8) -0.94694(13)
O8B O -0.3904(2) 0.16191(8) -0.96806(14)
O13B O -0.4198(3) 0.34394(9) -0.56448(15)
O14B O -0.3200(3) 0.36324(9) -0.54201(13)
O17B O -0.1074(2) 0.34775(9) -0.93867(14)
O18B O -0.2080(2) 0.36544(8) -0.95983(13)
C18B C -0.1927(4) 0.18241(13) -0.5897(2)
C19B C -0.1504(4) 0.19993(12) -0.6009(2)
H13B H -0.1066 0.2000 -0.5842
C20B C -0.1692(3) 0.21710(12) -0.6349(2)
H14B H -0.1384 0.2282 -0.6418
C21B C -0.2343(4) 0.21794(12) -0.6592(2)
C22B C -0.2811(4) 0.20118(14) -0.6475(2)
H15B H -0.3252 0.2018 -0.6634
C23B C -0.2603(4) 0.18400(12) -0.6122(2)
H16B H -0.2909 0.1736 -0.6035
C24B C -0.2182(3) 0.24966(12) -0.71112(19)
H17B H -0.1860 0.2394 -0.7211
H18B H -0.1950 0.2609 -0.6872
C25B C -0.2592(3) 0.26515(14) -0.74991(19)
C26B C -0.2116(4) 0.28204(12) -0.7685(2)
H19B H -0.1824 0.2915 -0.7443
H20B H -0.1850 0.2715 -0.7832
C27B C -0.2993(4) 0.24802(13) -0.7877(2)
H21B H -0.3317 0.2382 -0.7770
H22B H -0.3223 0.2584 -0.8131
C28B C -0.3077(4) 0.28209(13) -0.7339(2)
H23B H -0.3368 0.2909 -0.7591
H24B H -0.3344 0.2720 -0.7186
C29B C -0.2778(4) 0.21540(13) -0.8364(2)
C30B C -0.3391(4) 0.21564(13) -0.8651(2)
H25B H -0.3695 0.2279 -0.8611
C31B C -0.3575(4) 0.19846(13) -0.8996(2)
H26B H -0.3999 0.1990 -0.9185
C32B C -0.3126(4) 0.18002(12) -0.9064(2)
C33B C -0.2490(4) 0.18026(14) -0.8787(2)
H27B H -0.2181 0.1686 -0.8840
C34B C -0.2308(4) 0.19715(13) -0.8439(2)
H28B H -0.1882 0.1968 -0.8251
C35B C -0.3348(4) 0.16069(12) -0.9438(2)
C36B C -0.1686(4) 0.16265(11) -0.5538(2)
C37B C -0.2240(4) 0.31115(14) -0.8294(2)
C38B C -0.2673(5) 0.32544(19) -0.8601(3)
H29B H -0.3113 0.3261 -0.8588
C39B C -0.1603(4) 0.31083(16) -0.8322(3)
H30B H -0.1288 0.3019 -0.8108
C40B C -0.2981(5) 0.31135(14) -0.6736(2)
C41B C -0.3634(4) 0.31081(16) -0.6732(2)
H31B H -0.3939 0.3024 -0.6960
C42B C -0.3840(4) 0.32269(14) -0.6391(2)
H32B H -0.4284 0.3221 -0.6392
C43B C -0.3406(4) 0.33530(12) -0.6053(2)
C44B C -0.2731(4) 0.33739(16) -0.6066(2)
H33B H -0.2429 0.3470 -0.5854
C45B C -0.2546(4) 0.32428(15) -0.6416(3)
H34B H -0.2106 0.3246 -0.6426
C53B C -0.1635(4) 0.35077(14) -0.9348(2)
C54B C -0.1841(3) 0.33711(13) -0.8977(2)
C55B C -0.1419(4) 0.32356(14) -0.8661(2)
H41B H -0.0980 0.3227 -0.8672
C56B C -0.2479(4) 0.33933(17) -0.8937(3)
H42B H -0.2778 0.3499 -0.9131
C94B C -0.3625(5) 0.34859(14) -0.5674(2)
Co1B_2 Co 0.56176(4) 0.136419(17) -0.01529(2)
Co1D Co 0.56176(4) -0.136419(17) 0.48471(2)
Co1E Co 0.06176(4) 0.363581(17) 0.48471(2)
Co1E_2 Co 1.06176(4) 0.363581(17) 0.48471(2)
Co1F Co 0.43824(4) -0.136419(17) 0.01529(2)
Co1G Co -0.06176(4) 0.363581(17) -0.98471(2)
Co2B_2 Co 0.68621(4) 0.113816(17) 0.01035(2)
Co2D Co -0.31379(4) -0.113816(17) 0.51035(2)
Co2D_2 Co 0.68621(4) -0.113816(17) 0.51035(2)
Co2E Co 0.18621(4) 0.386184(17) 0.51035(2)
Co2F Co 0.31379(4) -0.113816(17) -0.01035(2)
Co2G Co -0.18621(4) 0.386184(17) -1.01035(2)
Co3D Co -0.06255(5) -0.136604(17) 0.01119(2)
Co3E Co -0.56255(5) 0.363396(17) 0.01119(2)
Co3E_2 Co 0.43745(5) 0.363396(17) 0.01119(2)
Co3F Co 0.06255(5) -0.136604(17) -0.51119(2)
Co3G Co -0.43745(5) 0.363396(17) -0.51119(2)
Co4D Co -0.18690(5) -0.112920(17) -0.01368(3)
Co4D_2 Co 0.81310(5) -0.112920(17) -0.01368(3)
Co4E Co 0.31310(5) 0.387080(17) -0.01368(3)
Co4F Co 0.18690(5) -0.112920(17) -0.48632(3)
Co4G Co -0.31310(5) 0.387080(17) -0.48632(3)
O13E O 0.0802(3) 0.15606(9) -0.06448(15)
O13G O -0.0802(3) 0.15606(9) -0.43552(15)
O14E O 0.1800(3) 0.13676(9) -0.04201(13)
O14G O -0.1800(3) 0.13676(9) -0.45799(13)
O15D O -0.1700(2) 0.09403(9) -0.56674(14)
O15F O 0.1700(2) 0.09403(9) 0.06674(14)
O16D O -0.0715(3) 0.11269(9) -0.54470(14)
O16F O 0.0715(3) 0.11269(9) 0.04470(14)
O17E O 0.3926(2) 0.15225(9) 0.56133(14)
O17G O -0.3926(2) 0.15225(9) -1.06133(14)
O18E O 0.2920(2) 0.13456(8) 0.54017(13)
O18G O -0.2920(2) 0.13456(8) -1.04017(13)
O19B_2 O -0.4610(2) 0.11626(8) -0.96521(13)
O20B_2 O -0.3597(2) 0.09812(8) -0.94414(13)
O21D O 0.3623(3) 0.08805(8) 0.53781(15)
O21F O -0.3623(3) 0.08805(8) -1.03781(15)
O22D O 0.4618(2) 0.10618(8) 0.55707(14)
O22F O -0.4618(2) 0.10618(8) -1.05707(14)
N1B N -0.2801(2) 0.10128(9) -0.51183(14)
N3B N -0.5205(2) 0.15866(9) -1.04065(15)
N5B N -0.2327(2) 0.09134(9) -0.96455(15)
N7B N 0.0309(2) 0.14825(9) -0.48954(15)
loop_
_geom_bond_atom_site_label_1
_geom_bond_atom_site_label_2
_geom_bond_site_symmetry_1
_geom_bond_site_symmetry_2
Co1 Co2 1_555 1_555
Co2 O7 1_555 1_555
Co3 Co4 1_555 1_555
Co4 O6 1_555 1_555
O1 C26 1_555 1_555
O2 C28 1_555 1_555
O3 C27 1_555 1_555
O4 C21 1_555 1_555
O5 Co3 1_555 1_555
O6 C36 1_555 1_555
O7 C35 1_555 1_555
O8 Co1 1_555 1_555
O9 Co4 1_555 1_555
O10 Co3 1_555 1_555
O11 C2 1_555 1_555
O12 C10 1_555 1_555
O13 C94 1_555 1_555
O14 C94 1_555 1_555
O15 C17 1_555 1_555
O16 C17 1_555 1_555
O17 C53 1_555 1_555
O18 C53 1_555 1_555
O19 Co1 1_555 1_555
O20 Co2 1_555 1_555
O21 C79 1_555 1_555
O22 C79 1_555 1_555
O23 C83 1_555 1_555
O24 C88 1_555 1_555
N1 Co4 1_555 1_555
N2 C46 1_555 1_555
N3 Co1 1_555 1_555
N4 C58 1_555 1_555
N5 Co2 1_555 1_555
N6 C70 1_555 1_555
N7 Co3 1_555 1_555
N8 C95 1_555 1_555
C1 C2 1_555 1_555
C2 H1 1_555 1_555
H2 C2 1_555 1_555
C3 O11 1_555 1_555
C4 C3 1_555 1_555
H3 C4 1_555 1_555
C5 C4 1_555 1_555
H4 C5 1_555 1_555
C6 C5 1_555 1_555
C7 C6 1_555 1_555
H5 C7 1_555 1_555
C8 C3 1_555 1_555
H6 C8 1_555 1_555
C9 O9 1_555 1_555
C10 C1 1_555 1_555
H7 C10 1_555 1_555
H8 C10 1_555 1_555
C11 O12 1_555 1_555
C12 C11 1_555 1_555
H9 C12 1_555 1_555
C13 C12 1_555 1_555
H10 C13 1_555 1_555
C14 C13 1_555 1_555
C15 C14 1_555 1_555
H11 C15 1_555 1_555
C16 C11 1_555 1_555
H12 C16 1_555 1_555
C17 C14 1_555 1_555
C18 C19 1_555 1_555
C19 H13 1_555 1_555
C20 C19 1_555 1_555
H14 C20 1_555 1_555
C21 C20 1_555 1_555
C22 C21 1_555 1_555
H15 C22 1_555 1_555
C23 C18 1_555 1_555
H16 C23 1_555 1_555
C24 O4 1_555 1_555
H17 C24 1_555 1_555
H18 C24 1_555 1_555
C25 C24 1_555 1_555
C26 C25 1_555 1_555
H19 C26 1_555 1_555
H20 C26 1_555 1_555
C27 C25 1_555 1_555
H21 C27 1_555 1_555
H22 C27 1_555 1_555
C28 C25 1_555 1_555
H23 C28 1_555 1_555
H24 C28 1_555 1_555
C29 O3 1_555 1_555
C30 C29 1_555 1_555
H25 C30 1_555 1_555
C31 C30 1_555 1_555
H26 C31 1_555 1_555
C32 C31 1_555 1_555
C33 C32 1_555 1_555
H27 C33 1_555 1_555
C34 C29 1_555 1_555
H28 C34 1_555 1_555
C35 O8 1_555 1_555
C36 O5 1_555 1_555
C37 O1 1_555 1_555
C38 C37 1_555 1_555
H29 C38 1_555 1_555
C39 C37 1_555 1_555
H30 C39 1_555 1_555
C40 O2 1_555 1_555
C41 C40 1_555 1_555
H31 C41 1_555 1_555
C42 C41 1_555 1_555
H32 C42 1_555 1_555
C43 C42 1_555 1_555
C44 C43 1_555 1_555
H33 C44 1_555 1_555
C45 C40 1_555 1_555
H34 C45 1_555 1_555
C46 N1 1_555 1_555
H35 C46 1_555 1_555
C47 N1 1_555 1_555
H36 C47 1_555 1_555
C48 N2 1_555 1_555
H37 C48 1_555 1_555
C49 N2 1_555 1_555
C50 C49 1_555 1_555
H38 C50 1_555 1_555
C51 C50 1_555 1_555
H39 C51 1_555 1_555
C52 C49 1_555 1_555
H40 C52 1_555 1_555
C53 C54 1_555 1_555
C54 C55 1_555 1_555
C55 C39 1_555 1_555
H41 C55 1_555 1_555
C56 C38 1_555 1_555
H42 C56 1_555 1_555
C57 N3 1_555 1_555
H43 C57 1_555 1_555
C58 N3 1_555 1_555
H44 C58 1_555 1_555
C59 N4 1_555 1_555
H45 C59 1_555 1_555
C60 N4 1_555 1_555
C61 C60 1_555 1_555
H46 C61 1_555 1_555
C62 C61 1_555 1_555
H47 C62 1_555 1_555
C63 C62 1_555 1_555
C64 C63 1_555 1_555
H48 C64 1_555 1_555
C65 C60 1_555 1_555
H49 C65 1_555 1_555
C66 O19 1_555 1_555
C67 C66 1_555 1_555
C68 C67 1_555 1_555
H50 C68 1_555 1_555
C69 C67 1_555 1_555
H51 C69 1_555 1_555
C70 N5 1_555 1_555
H52 C70 1_555 1_555
C71 N5 1_555 1_555
H53 C71 1_555 1_555
C72 N6 1_555 1_555
H54 C72 1_555 1_555
C73 N6 1_555 1_555
C74 C73 1_555 1_555
H55 C74 1_555 1_555
C75 C74 1_555 1_555
H56 C75 1_555 1_555
C76 C75 1_555 1_555
C77 C76 1_555 1_555
H57 C77 1_555 1_555
C78 C73 1_555 1_555
H58 C78 1_555 1_555
C79 C80 1_555 1_555
C80 C81 1_555 1_555
C81 H59 1_555 1_555
C82 C81 1_555 1_555
H60 C82 1_555 1_555
C83 C82 1_555 1_555
C84 C83 1_555 1_555
H61 C84 1_555 1_555
C85 C80 1_555 1_555
H62 C85 1_555 1_555
C86 O23 1_555 1_555
H63 C86 1_555 1_555
H64 C86 1_555 1_555
C87 C86 1_555 1_555
C88 C87 1_555 1_555
H65 C88 1_555 1_555
H66 C88 1_555 1_555
C89 O24 1_555 1_555
C90 C68 1_555 1_555
H67 C90 1_555 1_555
C91 C69 1_555 1_555
H68 C91 1_555 1_555
C92 C51 1_555 1_555
C93 C52 1_555 1_555
H69 C93 1_555 1_555
C94 C43 1_555 1_555
C95 N7 1_555 1_555
H70 C95 1_555 1_555
C96 N7 1_555 1_555
H71 C96 1_555 1_555
C97 H72 1_555 1_555
C98 C97 1_555 1_555
H73 C98 1_555 1_555
C99 N8 1_555 1_555
H74 C99 1_555 1_555
C100 H75 1_555 1_555
C101 C98 1_555 1_555
C102 N8 1_555 1_555
C103 C100 1_555 1_555
H76 C103 1_555 1_555
O9B C9B 1_555 1_555
O10B C9B 1_555 1_555
O11B C2B 1_555 1_555
O12B C10B 1_555 1_555
O15B C17B 1_555 1_555
O16B C17B 1_555 1_555
C2B C1 1_555 1_555
H1B C2B 1_555 1_555
H2B C2B 1_555 1_555
C3B O11B 1_555 1_555
C4B C3B 1_555 1_555
H3B C4B 1_555 1_555
C5B C4B 1_555 1_555
H4B C5B 1_555 1_555
C6B C5B 1_555 1_555
C7B C6B 1_555 1_555
H5B C7B 1_555 1_555
C8B C3B 1_555 1_555
H6B C8B 1_555 1_555
C9B C6B 1_555 1_555
C10B C1 1_555 1_555
H7B C10B 1_555 1_555
H8B C10B 1_555 1_555
C11B O12B 1_555 1_555
C12B C11B 1_555 1_555
H9B C12B 1_555 1_555
C13B C12B 1_555 1_555
H10B C13B 1_555 1_555
C14B C13B 1_555 1_555
C15B C14B 1_555 1_555
H11B C15B 1_555 1_555
C16B C11B 1_555 1_555
H12B C16B 1_555 1_555
C17B C14B 1_555 1_555
O19B C66B 1_555 1_555
O20B C66B 1_555 1_555
O21B C79B 1_555 1_555
O22B C79B 1_555 1_555
O23B C83B 1_555 1_555
O24B C88B 1_555 1_555
C66B C67B 1_555 1_555
C67B C68B 1_555 1_555
C68B H50B 1_555 1_555
C69B C67B 1_555 1_555
H51B C69B 1_555 1_555
C79B C80B 1_555 1_555
C80B C81B 1_555 1_555
C81B H59B 1_555 1_555
C82B C81B 1_555 1_555
H60B C82B 1_555 1_555
C83B C82B 1_555 1_555
C84B C83B 1_555 1_555
H61B C84B 1_555 1_555
C85B C80B 1_555 1_555
H62B C85B 1_555 1_555
C86B C87 1_555 1_555
H63B C86B 1_555 1_555
H64B C86B 1_555 1_555
C88B C87 1_555 1_555
H65B C88B 1_555 1_555
H66B C88B 1_555 1_555
C89B O24B 1_555 1_555
C90B C68B 1_555 1_555
H67B C90B 1_555 1_555
C91B C69B 1_555 1_555
H68B C91B 1_555 1_555
N1D C46D 1_555 1_555
N2D C46D 1_555 1_555
C46D H35D 1_555 1_555
C47D N1D 1_555 1_555
H36D C47D 1_555 1_555
C48D N2D 1_555 1_555
H37D C48D 1_555 1_555
C49D N2D 1_555 1_555
C50D C49D 1_555 1_555
H38D C50D 1_555 1_555
C51D C50D 1_555 1_555
H39D C51D 1_555 1_555
C52D C49D 1_555 1_555
H40D C52D 1_555 1_555
C92D C92 1_555 1_555
C93D C52D 1_555 1_555
H69D C93D 1_555 1_555
N3E C57E 1_555 1_555
N4E C58E 1_555 1_555
C57E H43E 1_555 1_555
C58E N3E 1_555 1_555
H44E C58E 1_555 1_555
C59E N4E 1_555 1_555
H45E C59E 1_555 1_555
C60E N4E 1_555 1_555
C61E C60E 1_555 1_555
H46E C61E 1_555 1_555
C62E C61E 1_555 1_555
H47E C62E 1_555 1_555
C63E C63 1_555 1_555
C64E C63E 1_555 1_555
H48E C64E 1_555 1_555
C65E C60E 1_555 1_555
H49E C65E 1_555 1_555
N5D C70D 1_555 1_555
N6D C70D 1_555 1_555
C70D H52D 1_555 1_555
C71D N5D 1_555 1_555
H53D C71D 1_555 1_555
C72D N6D 1_555 1_555
H54D C72D 1_555 1_555
C73D N6D 1_555 1_555
C74D C73D 1_555 1_555
H55D C74D 1_555 1_555
C75D C74D 1_555 1_555
H56D C75D 1_555 1_555
C76D C76 1_555 1_555
C77D C76D 1_555 1_555
H57D C77D 1_555 1_555
C78D C73D 1_555 1_555
H58D C78D 1_555 1_555
N7E C95E 1_555 1_555
N8E C95E 1_555 1_555
C95E H70E 1_555 1_555
C96E N7E 1_555 1_555
H71E C96E 1_555 1_555
C97E H72E 1_555 1_555
C98E C97E 1_555 1_555
H73E C98E 1_555 1_555
C99E N8E 1_555 1_555
H74E C99E 1_555 1_555
C100E H75E 1_555 1_555
C101E C101 1_555 1_555
C102E N8E 1_555 1_555
C103E C100E 1_555 1_555
H76E C103E 1_555 1_555
Co1B Co2B 1_555 1_555
Co2B O7B 1_555 1_555
Co3B O10B 1_555 1_555
Co4B O9B 1_555 1_555
O1B C26B 1_555 1_555
O2B C28B 1_555 1_555
O3B C27B 1_555 1_555
O4B C21B 1_555 1_555
O5B Co3B 1_555 1_555
O6B Co4B 1_555 1_555
O7B C35B 1_555 1_555
O8B Co1B 1_555 1_555
O13B C94B 1_555 1_555
O14B C94B 1_555 1_555
O17B C53B 1_555 1_555
O18B C53B 1_555 1_555
C18B C19B 1_555 1_555
C19B H13B 1_555 1_555
C20B C19B 1_555 1_555
H14B C20B 1_555 1_555
C21B C20B 1_555 1_555
C22B C21B 1_555 1_555
H15B C22B 1_555 1_555
C23B C18B 1_555 1_555
H16B C23B 1_555 1_555
C24B O4B 1_555 1_555
H17B C24B 1_555 1_555
H18B C24B 1_555 1_555
C25B C24B 1_555 1_555
C26B C25B 1_555 1_555
H19B C26B 1_555 1_555
H20B C26B 1_555 1_555
C27B C25B 1_555 1_555
H21B C27B 1_555 1_555
H22B C27B 1_555 1_555
C28B C25B 1_555 1_555
H23B C28B 1_555 1_555
H24B C28B 1_555 1_555
C29B O3B 1_555 1_555
C30B C29B 1_555 1_555
H25B C30B 1_555 1_555
C31B C30B 1_555 1_555
H26B C31B 1_555 1_555
C32B C31B 1_555 1_555
C33B C32B 1_555 1_555
H27B C33B 1_555 1_555
C34B C29B 1_555 1_555
H28B C34B 1_555 1_555
C35B O8B 1_555 1_555
C36B O5B 1_555 1_555
C37B O1B 1_555 1_555
C38B C37B 1_555 1_555
H29B C38B 1_555 1_555
C39B C37B 1_555 1_555
H30B C39B 1_555 1_555
C40B O2B 1_555 1_555
C41B C40B 1_555 1_555
H31B C41B 1_555 1_555
C42B C41B 1_555 1_555
H32B C42B 1_555 1_555
C43B C42B 1_555 1_555
C44B C43B 1_555 1_555
H33B C44B 1_555 1_555
C45B C40B 1_555 1_555
H34B C45B 1_555 1_555
C53B C54B 1_555 1_555
C54B C55B 1_555 1_555
C55B C39B 1_555 1_555
H41B C55B 1_555 1_555
C56B C38B 1_555 1_555
H42B C56B 1_555 1_555
C94B C43B 1_555 1_555
Co1B_2 O19B 1_555 1_555
Co1D O22 1_555 1_555
Co1E O17 1_555 1_555
Co1E_2 N3E 1_555 1_555
Co1F O22B 1_555 1_555
Co1G O17B 1_555 1_555
Co2B_2 O20B 1_555 1_555
Co2D N5D 1_555 1_555
Co2D_2 O21 1_555 1_555
Co2E O18 1_555 1_555
Co2F O21B 1_555 1_555
Co2G O18B 1_555 1_555
Co3D O16B 1_555 1_555
Co3E N7E 1_555 1_555
Co3E_2 O13 1_555 1_555
Co3F O16 1_555 1_555
Co3G O13B 1_555 1_555
Co4D O15B 1_555 1_555
Co4D_2 N1D 1_555 1_555
Co4E O14 1_555 1_555
Co4F O15 1_555 1_555
Co4G O14B 1_555 1_555
O13E Co3 1_555 1_555
O13G Co3B 1_555 1_555
O14E Co4 1_555 1_555
O14G Co4B 1_555 1_555
O15D Co4B 1_555 1_555
O15F Co4 1_555 1_555
O16D Co3B 1_555 1_555
O16F Co3 1_555 1_555
O17E Co1 1_555 1_555
O17G Co1B 1_555 1_555
O18E Co2 1_555 1_555
O18G Co2B 1_555 1_555
O19B_2 Co1B 1_555 1_555
O20B_2 Co2B 1_555 1_555
O21D Co2 1_555 1_555
O21F Co2B 1_555 1_555
O22D Co1 1_555 1_555
O22F Co1B 1_555 1_555
N1B Co4B 1_555 1_555
N3B Co1B 1_555 1_555
N5B Co2B 1_555 1_555
N7B Co3B 1_555 1_555
O10 C9 1_555 1_555
O20 C66 1_555 1_555
C6 C9 1_555 1_555
C7 C8 1_555 1_555
C15 C16 1_555 1_555
C18 C36 1_555 1_555
C22 C23 1_555 1_555
C32 C35 1_555 1_555
C33 C34 1_555 1_555
C44 C45 1_555 1_555
C47 C48 1_555 1_555
C54 C56 1_555 1_555
C57 C59 1_555 1_555
C64 C65 1_555 1_555
C71 C72 1_555 1_555
C77 C78 1_555 1_555
C84 C85 1_555 1_555
C89 C90 1_555 1_555
C89 C91 1_555 1_555
C92 C93 1_555 1_555
C96 C99 1_555 1_555
C97 C102 1_555 1_555
C100 C101 1_555 1_555
C102 C103 1_555 1_555
C7B C8B 1_555 1_555
C15B C16B 1_555 1_555
O23B C86B 1_555 1_555
C84B C85B 1_555 1_555
C89B C90B 1_555 1_555
C89B C91B 1_555 1_555
C47D C48D 1_555 1_555
C51D C92D 1_555 1_555
C92D C93D 1_555 1_555
C57E C59E 1_555 1_555
C62E C63E 1_555 1_555
C64E C65E 1_555 1_555
C71D C72D 1_555 1_555
C75D C76D 1_555 1_555
C77D C78D 1_555 1_555
C96E C99E 1_555 1_555
C97E C102E 1_555 1_555
C98E C101E 1_555 1_555
C100E C101E 1_555 1_555
C102E C103E 1_555 1_555
Co3B Co4B 1_555 1_555
O6B C36B 1_555 1_555
C18B C36B 1_555 1_555
C22B C23B 1_555 1_555
C32B C35B 1_555 1_555
C33B C34B 1_555 1_555
C44B C45B 1_555 1_555
C54B C56B 1_555 1_555
Co1B_2 Co2B_2 1_555 1_555
Co1D Co2D_2 1_555 1_555
Co1E Co2E 1_555 1_555
Co1F Co2F 1_555 1_555
Co1G Co2G 1_555 1_555
Co3D Co4D 1_555 1_555
Co3E_2 Co4E 1_555 1_555
Co3F Co4F 1_555 1_555
Co3G Co4G 1_555 1_555

#END
