
#######################################################################
#
#                 Cambridge Crystallographic Data Centre
#                                CCDC 
#
#######################################################################
#
# If this CIF has been generated from an entry in the Cambridge 
# Structural Database, then it will include bibliographic, chemical, 
# crystal, experimental, refinement or atomic coordinate data resulting 
# from the CCDC's data processing and validation procedures.
#
#######################################################################

data_PEJSEE
_symmetry_cell_setting           triclinic
_symmetry_space_group_name_H-M   'P -1'
_symmetry_Int_Tables_number      2
_space_group_name_Hall           '-P 1'
loop_
_symmetry_equiv_pos_site_id
_symmetry_equiv_pos_as_xyz
1 x,y,z
2 -x,-y,-z
_cell_length_a                   6.8605(7)
_cell_length_b                   9.2706(9)
_cell_length_c                   11.5362(14)
_cell_angle_alpha                113.5950(10)
_cell_angle_beta                 92.819(2)
_cell_angle_gamma                104.6170(10)
_cell_volume                     641.211
loop_
_atom_site_label
_atom_site_type_symbol
_atom_site_fract_x
_atom_site_fract_y
_atom_site_fract_z
C1 C 0.6479(9) 0.7144(7) 0.4663(6)
C2 C 0.7134(9) 0.8907(7) 0.4838(5)
C3 C 0.7120(8) 0.9265(7) 0.3768(5)
H1 H 0.6752 0.8412 0.2945
C4 C 0.7651(8) 1.0879(7) 0.3934(5)
C5 C 0.8184(9) 1.2189(7) 0.5165(5)
H2 H 0.8530 1.3276 0.5270
C6 C 0.8183(8) 1.1829(7) 0.6215(5)
C7 C 0.7687(9) 1.0206(7) 0.6060(5)
H3 H 0.7725 0.9986 0.6778
H4 H 0.888(13) 0.731(11) 1.034(8)
H5 H 0.805(10) 0.860(8) 1.047(6)
H6 H 0.341(12) 0.545(10) 0.884(8)
H7 H 0.422(11) 0.666(9) 0.992(8)
H8 H 0.616(14) 1.005(10) 0.893(8)
H9 H 0.822(14) 1.042(12) 0.925(9)
La1 La 0.66569(5) 0.67213(4) 0.76571(3)
O1 O 0.6774(7) 0.6890(5) 0.5641(4)
O2 O 0.5670(6) 0.6046(5) 0.3566(4)
O3 O 0.8762(6) 1.4922(5) 0.7667(4)
O4 O 1.0746(7) 1.3519(5) 0.8358(4)
O5 O 0.7148(7) 1.2928(5) 0.8467(4)
O6 O 0.6574(6) 1.2576(5) 0.2837(4)
O7 O 0.9717(6) 1.1898(6) 0.2435(4)
O8 O 0.6499(6) 0.9770(5) 0.1491(4)
O9 O 0.8723(7) 0.7910(6) 0.9989(4)
O10 O 0.4316(8) 0.6124(7) 0.9133(5)
O11 O 0.7271(8) 0.9787(6) 0.8883(5)
S1 S 0.8737(2) 1.34153(17) 0.78055(14)
S2 S 0.7611(2) 1.13210(17) 0.25763(13)
La1A La 0.33431(5) 0.32787(4) 0.23429(3)
La1_2 La 0.66569(5) 1.67213(4) 0.76571(3)
La1A_2 La 0.33431(5) 1.32787(4) 0.23429(3)
La1A_3 La 1.33431(5) 1.32787(4) 0.23429(3)
O2A O 0.4330(6) 0.3954(5) 0.6434(4)
O3_2 O 0.8762(6) 0.4922(5) 0.7667(4)
O6A O 0.3426(6) 0.7424(5) 0.7163(4)
O7A O 1.0283(6) 0.8102(6) 0.7565(4)
loop_
_geom_bond_atom_site_label_1
_geom_bond_atom_site_label_2
_geom_bond_site_symmetry_1
_geom_bond_site_symmetry_2
C1 C2 1_555 1_555
C2 C3 1_555 1_555
C3 H1 1_555 1_555
C4 C3 1_555 1_555
C5 C4 1_555 1_555
H2 C5 1_555 1_555
C6 C5 1_555 1_555
C7 C2 1_555 1_555
H3 C7 1_555 1_555
H4 O9 1_555 1_555
H5 O9 1_555 1_555
H6 O10 1_555 1_555
H7 O10 1_555 1_555
H8 O11 1_555 1_555
H9 O11 1_555 1_555
La1 O1 1_555 1_555
O1 C1 1_555 1_555
O2 C1 1_555 1_555
O3 S1 1_555 1_555
O4 S1 1_555 1_555
O5 S1 1_555 1_555
O6 S2 1_555 1_555
O7 S2 1_555 1_555
O8 S2 1_555 1_555
O9 La1 1_555 1_555
O10 La1 1_555 1_555
O11 La1 1_555 1_555
S1 C6 1_555 1_555
S2 C4 1_555 1_555
La1A O2 1_555 1_555
La1_2 O3 1_555 1_555
La1A_2 O6 1_555 1_555
La1A_3 O7 1_555 1_555
O2A La1 1_555 1_555
O3_2 La1 1_555 1_555
O6A La1 1_555 1_555
O7A La1 1_555 1_555
C6 C7 1_555 1_555

#END
