
#######################################################################
#
#                 Cambridge Crystallographic Data Centre
#                                CCDC 
#
#######################################################################
#
# If this CIF has been generated from an entry in the Cambridge 
# Structural Database, then it will include bibliographic, chemical, 
# crystal, experimental, refinement or atomic coordinate data resulting 
# from the CCDC's data processing and validation procedures.
#
#######################################################################

data_PEJSAA
_symmetry_cell_setting           triclinic
_symmetry_space_group_name_H-M   'P -1'
_symmetry_Int_Tables_number      2
_space_group_name_Hall           '-P 1'
loop_
_symmetry_equiv_pos_site_id
_symmetry_equiv_pos_as_xyz
1 x,y,z
2 -x,-y,-z
_cell_length_a                   6.9288(3)
_cell_length_b                   10.9662(4)
_cell_length_c                   17.3785(6)
_cell_angle_alpha                77.9300(10)
_cell_angle_beta                 82.4730(10)
_cell_angle_gamma                75.6450(10)
_cell_volume                     1246.58
loop_
_atom_site_label
_atom_site_type_symbol
_atom_site_fract_x
_atom_site_fract_y
_atom_site_fract_z
C1 C 0.8856(14) 0.2271(9) 0.6822(6)
C2 C 0.8247(13) 0.2802(10) 0.7573(5)
C3 C 0.7879(14) 0.4110(10) 0.7563(6)
H1 H 0.8026 0.4671 0.7089
C4 C 0.7296(15) 0.4575(9) 0.8257(6)
C5 C 0.6998(16) 0.3772(10) 0.8968(6)
H2 H 0.6545 0.4094 0.9430
C6 C 0.7403(16) 0.2456(10) 0.8966(6)
C7 C 0.7981(15) 0.1987(11) 0.8274(6)
H3 H 0.8192 0.1114 0.8282
C8 C 1.2236(16) 0.2942(10) 0.8805(7)
C9 C 1.2822(15) 0.3256(10) 0.7943(6)
C10 C 1.3488(15) 0.2256(10) 0.7523(6)
H4 H 1.3501 0.1421 0.7782
C11 C 1.4135(15) 0.2482(9) 0.6724(5)
C12 C 1.4080(16) 0.3737(10) 0.6332(6)
H5 H 1.4532 0.3912 0.5801
C13 C 1.3329(15) 0.4712(10) 0.6758(6)
C14 C 1.2744(16) 0.4488(11) 0.7544(6)
H6 H 1.2290 0.5170 0.7812
Eu1 Eu 1.00590(7) 0.17239(5) 0.51879(3)
Eu2 Eu 0.91015(8) -0.11775(5) 0.69635(3)
Eu3 Eu 0.84018(7) 0.79260(5) 0.95437(3)
O1 O 0.9222(11) 0.1071(7) 0.6855(5)
O2 O 0.9011(11) 0.3049(7) 0.6194(4)
O3 O 0.7588(12) 0.6265(7) 0.9007(4)
O4 O 0.4786(11) 0.6752(8) 0.8222(5)
O5 O 0.8086(12) 0.6750(7) 0.7577(4)
O6 O 0.8701(10) 0.1293(7) 1.0327(5)
O7 O 0.7156(11) 0.0166(7) 0.9605(4)
O8 O 0.5151(11) 0.1873(7) 1.0260(4)
O9 O 1.1786(12) 0.3784(7) 0.9228(4)
O10 O 1.2165(13) 0.1794(7) 0.9095(4)
O11 O 1.3216(11) 0.1104(8) 0.5845(4)
O12 O 1.6568(11) 0.1460(7) 0.5634(4)
O13 O 1.5577(11) 0.0080(7) 0.6824(4)
O14 O 1.5292(11) 0.6471(8) 0.6153(5)
O15 O 1.2000(12) 0.7096(7) 0.6799(4)
O16 O 1.2344(12) 0.6465(7) 0.5527(4)
O17 O 1.1416(12) 0.3742(8) 0.4948(5)
H7 H 1.1444 0.4201 0.4494
H8 H 1.1839 0.3950 0.5322
O18 O 1.0886(10) -0.0548(6) 0.5698(4)
H9 H 1.2091 -0.0912 0.5824
O19 O 1.1999(15) -0.1094(9) 0.7649(7)
H10 H 1.2700 -0.0551 0.7471
H11 H 1.2259 -0.1603 0.8085
O20 O 1.1436(11) 0.6372(7) 0.9243(5)
H12 H 1.1959 0.6308 0.8707
H13 H 1.2137 0.5743 0.9625
O21 O 0.7800(13) -0.1057(8) 0.8270(4)
H14 H 0.6682 -0.0382 0.8274
O22 O 1.2010(11) 0.1775(7) 0.4048(4)
H15 H 1.3215 0.2027 0.3992
S1 S 0.6907(4) 0.6226(2) 0.82603(14)
S2 S 0.7074(4) 0.1359(2) 0.98583(14)
S3 S 1.4944(4) 0.1186(2) 0.62122(15)
S4 S 1.3258(4) 0.6319(2) 0.62639(15)
Eu1_2 Eu 2.00590(7) 0.17239(5) 0.51879(3)
Eu1A Eu 0.99410(7) 0.82761(5) 0.48121(3)
Eu1A_2 Eu 0.99410(7) -0.17239(5) 0.48121(3)
Eu2_2 Eu 0.91015(8) 0.88225(5) 0.69635(3)
Eu2_3 Eu 1.91015(8) -0.11775(5) 0.69635(3)
Eu2A Eu 1.08985(8) 0.11775(5) 0.30365(3)
Eu3A Eu 1.15982(7) 0.20740(5) 1.04563(3)
Eu3_2 Eu 0.84018(7) -0.20740(5) 0.95437(3)
Eu3A_2 Eu 0.15982(7) 0.20740(5) 1.04563(3)
O5_2 O 0.8086(12) -0.3250(7) 0.7577(4)
O6A O 1.1299(10) 0.8707(7) 0.9673(5)
O7_2 O 0.7156(11) 1.0166(7) 0.9605(4)
O8A O 0.4849(11) 0.8127(7) 0.9740(4)
O9A O 0.8214(12) 0.6216(7) 1.0772(4)
O10A O 0.7835(13) 0.8206(7) 1.0905(4)
O12_2 O 0.6568(11) 0.1460(7) 0.5634(4)
O13_2 O 0.5577(11) 0.0080(7) 0.6824(4)
O15_2 O 1.2000(12) -0.2904(7) 0.6799(4)
O16A O 0.7656(12) 0.3535(7) 0.4473(4)
O18A O 0.9114(10) 0.0548(6) 0.4302(4)
H9A H 0.7909 0.0912 0.4176
O21_2 O 0.7800(13) 0.8943(8) 0.8270(4)
H14_2 H 0.6682 0.9618 0.8274
O22A O 0.7990(11) -0.1775(7) 0.5952(4)
H15A H 0.6785 -0.2027 0.6008
loop_
_geom_bond_atom_site_label_1
_geom_bond_atom_site_label_2
_geom_bond_site_symmetry_1
_geom_bond_site_symmetry_2
C1 C2 1_555 1_555
C2 C3 1_555 1_555
C3 H1 1_555 1_555
C4 C3 1_555 1_555
C5 C4 1_555 1_555
H2 C5 1_555 1_555
C6 C5 1_555 1_555
C7 C2 1_555 1_555
H3 C7 1_555 1_555
C8 C9 1_555 1_555
C9 C10 1_555 1_555
C10 H4 1_555 1_555
C11 C10 1_555 1_555
C12 C11 1_555 1_555
H5 C12 1_555 1_555
C13 C12 1_555 1_555
C14 C9 1_555 1_555
H6 C14 1_555 1_555
Eu1 O2 1_555 1_555
Eu2 O1 1_555 1_555
Eu3 O3 1_555 1_555
O1 C1 1_555 1_555
O2 C1 1_555 1_555
O3 S1 1_555 1_555
O4 S1 1_555 1_555
O5 S1 1_555 1_555
O6 S2 1_555 1_555
O7 S2 1_555 1_555
O8 S2 1_555 1_555
O9 C8 1_555 1_555
O10 C8 1_555 1_555
O11 Eu1 1_555 1_555
O12 S3 1_555 1_555
O13 S3 1_555 1_555
O14 S4 1_555 1_555
O15 S4 1_555 1_555
O16 S4 1_555 1_555
O17 Eu1 1_555 1_555
H7 O17 1_555 1_555
H8 O17 1_555 1_555
O18 Eu1 1_555 1_555
H9 O18 1_555 1_555
O19 Eu2 1_555 1_555
H10 O19 1_555 1_555
H11 O19 1_555 1_555
O20 Eu3 1_555 1_555
H12 O20 1_555 1_555
H13 O20 1_555 1_555
O21 Eu2 1_555 1_555
H14 O21 1_555 1_555
O22 Eu1 1_555 1_555
H15 O22 1_555 1_555
S1 C4 1_555 1_555
S2 C6 1_555 1_555
S3 C11 1_555 1_555
S4 C13 1_555 1_555
Eu1_2 O12 1_555 1_555
Eu1A O16 1_555 1_555
Eu1A_2 O18 1_555 1_555
Eu2_2 O5 1_555 1_555
Eu2_3 O13 1_555 1_555
Eu2A O22 1_555 1_555
Eu3A O6 1_555 1_555
Eu3_2 O7 1_555 1_555
Eu3A_2 O8 1_555 1_555
O5_2 Eu2 1_555 1_555
O6A Eu3 1_555 1_555
O7_2 Eu3 1_555 1_555
O8A Eu3 1_555 1_555
O9A Eu3 1_555 1_555
O10A Eu3 1_555 1_555
O12_2 Eu1 1_555 1_555
O13_2 Eu2 1_555 1_555
O15_2 Eu2 1_555 1_555
O16A Eu1 1_555 1_555
O18A Eu1 1_555 1_555
H9A O18A 1_555 1_555
O21_2 Eu3 1_555 1_555
H14_2 O21_2 1_555 1_555
O22A Eu2 1_555 1_555
H15A O22A 1_555 1_555
C6 C7 1_555 1_555
C13 C14 1_555 1_555
Eu2 O18 1_555 1_555
O9 Eu3A 1_555 1_555
O10 Eu3A 1_555 1_555
O11 S3 1_555 1_555
O15 Eu2_2 1_555 1_555
O21 Eu3_2 1_555 1_555
Eu1A_2 O18A 1_555 1_555
Eu1A_2 O22A 1_555 1_555
Eu2_2 O21_2 1_555 1_555
Eu2A O18A 1_555 1_555

#END
