
#######################################################################
#
#                 Cambridge Crystallographic Data Centre
#                                CCDC 
#
#######################################################################
#
# If this CIF has been generated from an entry in the Cambridge 
# Structural Database, then it will include bibliographic, chemical, 
# crystal, experimental, refinement or atomic coordinate data resulting 
# from the CCDC's data processing and validation procedures.
#
#######################################################################

data_PEJSII
_symmetry_cell_setting           triclinic
_symmetry_space_group_name_H-M   'P -1'
_symmetry_Int_Tables_number      2
_space_group_name_Hall           '-P 1'
loop_
_symmetry_equiv_pos_site_id
_symmetry_equiv_pos_as_xyz
1 x,y,z
2 -x,-y,-z
_cell_length_a                   7.985(4)
_cell_length_b                   10.350(5)
_cell_length_c                   10.744(5)
_cell_angle_alpha                115.937(8)
_cell_angle_beta                 93.647(9)
_cell_angle_gamma                105.354(8)
_cell_volume                     753.337
loop_
_atom_site_label
_atom_site_type_symbol
_atom_site_fract_x
_atom_site_fract_y
_atom_site_fract_z
C1 C 0.4240(13) 0.7995(11) 0.0497(10)
C2 C 0.3488(13) 0.6465(11) 0.0453(10)
C3 C 0.3625(13) 0.6370(11) 0.1716(10)
H1 H 0.4161 0.7237 0.2578
C4 C 0.2960(14) 0.4987(11) 0.1660(10)
C5 C 0.2143(13) 0.3663(11) 0.0394(10)
H2 H 0.1714 0.2727 0.0378
C6 C 0.1986(14) 0.3780(11) -0.0853(10)
C7 C 0.2672(13) 0.5165(12) -0.0820(10)
H3 H 0.2587 0.5230 -0.1657
La1 La 0.43775(7) 0.81099(6) -0.28680(5)
O1 O 0.4099(10) 0.8023(8) -0.0663(7)
O2 O 0.4994(10) 0.9113(8) 0.1661(7)
O3 O 0.3811(9) 0.6327(7) 0.4389(7)
O4 O 0.4565(10) 0.4057(8) 0.3131(7)
O5 O 0.1515(9) 0.3868(8) 0.3243(7)
O6 O 0.2300(11) 0.1889(9) -0.3320(8)
O7 O -0.0401(12) 0.2531(10) -0.3135(9)
O8 O 0.0164(11) 0.0899(8) -0.2222(8)
O9 O 0.2951(12) 0.9000(9) -0.4384(8)
H4 H 0.3401 0.9054 -0.5063
H5 H 0.2024 0.9245 -0.4213
O10 O 0.6935(11) 0.8713(10) -0.3997(8)
H6 H 0.7669 0.8225 -0.4129
H7 H 0.7066 0.9402 -0.4246
O11 O 0.1691(9) 0.5655(8) -0.3681(7)
H8 H 0.1805 0.4789 -0.4163
H9 H 0.0700 0.5717 -0.3465
O12 O 0.1503(10) 0.8767(9) -0.1988(9)
H10 H 0.1242 0.8773 -0.1154
H11 H 0.0765 0.8989 -0.2516
O13 O 0.7509(10) 0.9421(9) -0.1115(8)
H12 H 0.8410 0.9200 -0.1410
H13 H 0.7614 1.0062 -0.0257
S1 S 0.3234(3) 0.4794(3) 0.3223(2)
S2 S 0.0929(3) 0.2161(3) -0.2519(2)
La1A La 0.56225(7) 1.18901(6) 0.28680(5)
La1_2 La 0.43775(7) 0.81099(6) 0.71320(5)
La1A_2 La 0.56225(7) 0.18901(6) 0.28680(5)
O2A O 0.5006(10) 1.0887(8) -0.1661(7)
O3_2 O 0.3811(9) 0.6327(7) -0.5611(7)
O4A O 0.5435(10) 0.5943(8) -0.3131(7)
loop_
_geom_bond_atom_site_label_1
_geom_bond_atom_site_label_2
_geom_bond_site_symmetry_1
_geom_bond_site_symmetry_2
C1 C2 1_555 1_555
C2 C3 1_555 1_555
C3 H1 1_555 1_555
C4 C3 1_555 1_555
C5 C4 1_555 1_555
H2 C5 1_555 1_555
C6 C5 1_555 1_555
C7 C2 1_555 1_555
H3 C7 1_555 1_555
La1 O1 1_555 1_555
O1 C1 1_555 1_555
O2 C1 1_555 1_555
O3 S1 1_555 1_555
O4 S1 1_555 1_555
O5 S1 1_555 1_555
O6 S2 1_555 1_555
O7 S2 1_555 1_555
O8 S2 1_555 1_555
O9 La1 1_555 1_555
H4 O9 1_555 1_555
H5 O9 1_555 1_555
O10 La1 1_555 1_555
H6 O10 1_555 1_555
H7 O10 1_555 1_555
O11 La1 1_555 1_555
H8 O11 1_555 1_555
H9 O11 1_555 1_555
O12 La1 1_555 1_555
H10 O12 1_555 1_555
H11 O12 1_555 1_555
O13 La1 1_555 1_555
H12 O13 1_555 1_555
H13 O13 1_555 1_555
S1 C4 1_555 1_555
S2 C6 1_555 1_555
La1A O2 1_555 1_555
La1_2 O3 1_555 1_555
La1A_2 O4 1_555 1_555
O2A La1 1_555 1_555
O3_2 La1 1_555 1_555
O4A La1 1_555 1_555
C6 C7 1_555 1_555

#END
