
#######################################################################
#
#                 Cambridge Crystallographic Data Centre
#                                CCDC 
#
#######################################################################
#
# If this CIF has been generated from an entry in the Cambridge 
# Structural Database, then it will include bibliographic, chemical, 
# crystal, experimental, refinement or atomic coordinate data resulting 
# from the CCDC's data processing and validation procedures.
#
#######################################################################

data_PEJTAB
_symmetry_cell_setting           triclinic
_symmetry_space_group_name_H-M   'P -1'
_symmetry_Int_Tables_number      2
_space_group_name_Hall           '-P 1'
loop_
_symmetry_equiv_pos_site_id
_symmetry_equiv_pos_as_xyz
1 x,y,z
2 -x,-y,-z
_cell_length_a                   7.9189(6)
_cell_length_b                   10.2672(7)
_cell_length_c                   10.6272(8)
_cell_angle_alpha                115.9910(10)
_cell_angle_beta                 93.1740(10)
_cell_angle_gamma                105.3600(10)
_cell_volume                     734.118
loop_
_atom_site_label
_atom_site_type_symbol
_atom_site_fract_x
_atom_site_fract_y
_atom_site_fract_z
C1 C 0.4232(7) 0.3016(6) 0.5487(6)
C2 C 0.3495(7) 0.1497(6) 0.5463(6)
C3 C 0.2653(7) 0.0195(7) 0.4184(6)
H1 H 0.2548 0.0268 0.3343
C4 C 0.1965(7) -0.1216(6) 0.4141(6)
C5 C 0.2145(7) -0.1354(7) 0.5386(6)
H2 H 0.1721 -0.2300 0.5365
C6 C 0.2988(7) -0.0017(6) 0.6670(6)
C7 C 0.3642(7) 0.1391(6) 0.6715(6)
H3 H 0.4179 0.2264 0.7583
Nd1 Nd 0.56415(4) 0.68885(3) 0.78580(3)
O1 O 0.5000(6) 0.4159(4) 0.6674(4)
O2 O 0.4048(6) 0.3054(4) 0.4330(4)
O3 O 0.3853(5) 0.1315(4) 0.9423(4)
O4 O 0.4623(5) -0.0954(5) 0.8120(4)
O5 O 0.1540(5) -0.1156(5) 0.8271(4)
O6 O -0.0383(7) -0.2440(6) 0.1829(5)
O7 O 0.0112(6) -0.4094(5) 0.2779(5)
O8 O 0.2311(6) -0.3124(5) 0.1662(5)
O9 O 0.8486(6) 0.6211(5) 0.6976(5)
H4 H 0.8754 0.6195 0.6129
H5 H 0.9223 0.5988 0.7511
O10 O 0.7029(6) 0.6027(5) 0.9365(5)
H6 H 0.6570 0.5982 1.0055
H7 H 0.7961 0.5772 0.9191
O11 O 0.3127(6) 0.6281(6) 0.8977(5)
H8 H 0.2081 0.5565 0.8488
H9 H 0.3402 0.6529 0.9893
O12 O 0.2558(5) 0.5645(5) 0.6134(4)
H10 H 0.2444 0.5004 0.5264
H11 H 0.1659 0.5884 0.6445
O13 O 0.8305(5) 0.9276(5) 0.8665(4)
H12 H 0.8727 0.9578 0.8003
H13 H 0.8861 0.9850 0.9623
S1 S 0.32747(18) -0.02120(15) 0.82409(14)
S2 S 0.09124(19) -0.28339(16) 0.24653(16)
Nd1A Nd 0.43585(4) 0.31115(3) 0.21420(3)
Nd1A_2 Nd 0.43585(4) 0.31115(3) 1.21420(3)
Nd1_2 Nd 0.56415(4) -0.31115(3) 0.78580(3)
O2A O 0.5952(6) 0.6946(4) 0.5670(4)
O3A O 0.6147(5) 0.8685(4) 1.0577(4)
O4_2 O 0.4623(5) 0.9046(5) 0.8120(4)
loop_
_geom_bond_atom_site_label_1
_geom_bond_atom_site_label_2
_geom_bond_site_symmetry_1
_geom_bond_site_symmetry_2
C1 C2 1_555 1_555
C2 C3 1_555 1_555
C3 H1 1_555 1_555
C4 C3 1_555 1_555
C5 C4 1_555 1_555
H2 C5 1_555 1_555
C6 C5 1_555 1_555
C7 C2 1_555 1_555
H3 C7 1_555 1_555
Nd1 O1 1_555 1_555
O1 C1 1_555 1_555
O2 C1 1_555 1_555
O3 S1 1_555 1_555
O4 S1 1_555 1_555
O5 S1 1_555 1_555
O6 S2 1_555 1_555
O7 S2 1_555 1_555
O8 S2 1_555 1_555
O9 Nd1 1_555 1_555
H4 O9 1_555 1_555
H5 O9 1_555 1_555
O10 Nd1 1_555 1_555
H6 O10 1_555 1_555
H7 O10 1_555 1_555
O11 Nd1 1_555 1_555
H8 O11 1_555 1_555
H9 O11 1_555 1_555
O12 Nd1 1_555 1_555
H10 O12 1_555 1_555
H11 O12 1_555 1_555
O13 Nd1 1_555 1_555
H12 O13 1_555 1_555
H13 O13 1_555 1_555
S1 C6 1_555 1_555
S2 C4 1_555 1_555
Nd1A O2 1_555 1_555
Nd1A_2 O3 1_555 1_555
Nd1_2 O4 1_555 1_555
O2A Nd1 1_555 1_555
O3A Nd1 1_555 1_555
O4_2 Nd1 1_555 1_555
C6 C7 1_555 1_555

#END
