
#######################################################################
#
#                 Cambridge Crystallographic Data Centre
#                                CCDC 
#
#######################################################################
#
# If this CIF has been generated from an entry in the Cambridge 
# Structural Database, then it will include bibliographic, chemical, 
# crystal, experimental, refinement or atomic coordinate data resulting 
# from the CCDC's data processing and validation procedures.
#
#######################################################################

data_PEJTEF
_symmetry_cell_setting           triclinic
_symmetry_space_group_name_H-M   'P -1'
_symmetry_Int_Tables_number      2
_space_group_name_Hall           '-P 1'
loop_
_symmetry_equiv_pos_site_id
_symmetry_equiv_pos_as_xyz
1 x,y,z
2 -x,-y,-z
_cell_length_a                   6.815(4)
_cell_length_b                   9.212(5)
_cell_length_c                   11.495(6)
_cell_angle_alpha                113.405(8)
_cell_angle_beta                 93.228(9)
_cell_angle_gamma                104.536(8)
_cell_volume                     631.113
loop_
_atom_site_label
_atom_site_type_symbol
_atom_site_fract_x
_atom_site_fract_y
_atom_site_fract_z
Pr1 Pr 0.33569(4) 0.82737(3) 0.23441(2)
C1 C 0.6455(7) 1.2122(6) 0.4671(4)
C2 C 0.7133(7) 1.3899(5) 0.4842(4)
C3 C 0.7671(7) 1.5200(6) 0.6069(4)
H1 H 0.7690 1.4976 0.6790
C4 C 0.8183(7) 1.6840(6) 0.6222(4)
C5 C 0.8202(7) 1.7207(6) 0.5172(4)
H2 H 0.8557 1.8300 0.5279
C6 C 0.7674(7) 1.5895(6) 0.3941(4)
C7 C 0.7123(7) 1.4251(6) 0.3762(4)
H3 H 0.6753 1.3396 0.2936
O1 O 0.5676(6) 1.1022(4) 0.3561(3)
O2 O 0.6708(6) 1.1862(5) 0.5657(3)
O3 O 1.0767(6) 1.8548(5) 0.8384(4)
O4 O 0.8714(6) 1.9942(4) 0.7681(4)
O5 O 0.7116(7) 1.7912(5) 0.8478(4)
O6 O 0.6600(5) 1.7603(4) 0.2829(4)
O7 O 0.6521(6) 1.4779(4) 0.1482(3)
O8 O 0.9760(6) 1.6912(5) 0.2446(4)
O9 O 0.1266(6) 0.7083(4) 0.0039(3)
H4 H 0.1980 0.6516 -0.0411
H5 H 0.1147 0.7763 -0.0169
O10 O 0.2737(6) 0.5245(4) 0.1139(4)
H6 H 0.3735 0.4743 0.1079
H7 H 0.1563 0.4503 0.0659
O11 O 0.5638(6) 0.8892(5) 0.0887(4)
H8 H 0.5477 0.8635 0.0053
H9 H 0.6849 0.9657 0.1155
S1 S 0.87196(18) 1.84274(14) 0.78247(11)
S2 S 0.76410(17) 1.63378(14) 0.25744(11)
Pr1A Pr 0.66431(4) 1.17263(3) 0.76559(2)
Pr1A_2 Pr 0.66431(4) 2.17263(3) 0.76559(2)
Pr1_2 Pr 0.33569(4) 1.82737(3) 0.23441(2)
Pr1_3 Pr 1.33569(4) 1.82737(3) 0.23441(2)
O2A O 0.3292(6) 0.8138(5) 0.4343(3)
O4A O 0.1286(6) 1.0058(4) 0.2319(4)
O6_2 O 0.6600(5) 0.7603(4) 0.2829(4)
O8_2 O -0.0240(6) 0.6912(5) 0.2446(4)
loop_
_geom_bond_atom_site_label_1
_geom_bond_atom_site_label_2
_geom_bond_site_symmetry_1
_geom_bond_site_symmetry_2
Pr1 O1 1_555 1_555
C1 C2 1_555 1_555
C2 C3 1_555 1_555
C3 H1 1_555 1_555
C4 C3 1_555 1_555
C5 C4 1_555 1_555
H2 C5 1_555 1_555
C6 C5 1_555 1_555
C7 C2 1_555 1_555
H3 C7 1_555 1_555
O1 C1 1_555 1_555
O2 C1 1_555 1_555
O3 S1 1_555 1_555
O4 S1 1_555 1_555
O5 S1 1_555 1_555
O6 S2 1_555 1_555
O7 S2 1_555 1_555
O8 S2 1_555 1_555
O9 Pr1 1_555 1_555
H4 O9 1_555 1_555
H5 O9 1_555 1_555
O10 Pr1 1_555 1_555
H6 O10 1_555 1_555
H7 O10 1_555 1_555
O11 Pr1 1_555 1_555
H8 O11 1_555 1_555
H9 O11 1_555 1_555
S1 C4 1_555 1_555
S2 C6 1_555 1_555
Pr1A O2 1_555 1_555
Pr1A_2 O4 1_555 1_555
Pr1_2 O6 1_555 1_555
Pr1_3 O8 1_555 1_555
O2A Pr1 1_555 1_555
O4A Pr1 1_555 1_555
O6_2 Pr1 1_555 1_555
O8_2 Pr1 1_555 1_555
C6 C7 1_555 1_555

#END
