
#######################################################################
#
#                 Cambridge Crystallographic Data Centre
#                                CCDC 
#
#######################################################################
#
# If this CIF has been generated from an entry in the Cambridge 
# Structural Database, then it will include bibliographic, chemical, 
# crystal, experimental, refinement or atomic coordinate data resulting 
# from the CCDC's data processing and validation procedures.
#
#######################################################################

data_PEJTOP
_symmetry_cell_setting           triclinic
_symmetry_space_group_name_H-M   'P -1'
_symmetry_Int_Tables_number      2
_space_group_name_Hall           '-P 1'
loop_
_symmetry_equiv_pos_site_id
_symmetry_equiv_pos_as_xyz
1 x,y,z
2 -x,-y,-z
_cell_length_a                   6.7756(9)
_cell_length_b                   9.1132(13)
_cell_length_c                   11.4212(16)
_cell_angle_alpha                113.234(2)
_cell_angle_beta                 93.672(2)
_cell_angle_gamma                104.411(2)
_cell_volume                     617.131
loop_
_atom_site_label
_atom_site_type_symbol
_atom_site_fract_x
_atom_site_fract_y
_atom_site_fract_z
O1 O 0.9328(4) 1.4013(3) 0.6446(2)
O2 O 0.8364(4) 1.3152(3) 0.4328(2)
C1 C 0.8562(5) 1.2908(4) 0.5330(3)
C2 C 0.7879(5) 1.1101(4) 0.5155(3)
O3 O 0.6350(4) 0.5047(3) 0.2304(2)
S1 S 0.63090(13) 0.65609(10) 0.21561(8)
C3 C 0.6835(5) 0.8149(4) 0.3761(3)
O4 O 0.5173(4) 0.8049(3) 0.7539(3)
Sm1 Sm 1.16299(2) 1.672730(19) 0.765410(15)
S2 S 0.73198(13) 0.86321(10) 0.74265(8)
O5 O 1.3763(4) 1.7923(4) 0.9933(3)
O6 O 0.8434(4) 1.0197(3) 0.8530(2)
O7 O 1.2226(4) 1.9711(3) 0.8826(3)
O8 O 0.4253(4) 0.6422(3) 0.1585(2)
O9 O 0.9450(5) 1.6103(5) 0.9100(3)
C4 C 0.7315(5) 0.9088(4) 0.6050(3)
O10 O 0.8372(4) 0.7359(3) 0.7180(2)
O11 O 0.7895(4) 0.7094(3) 0.1504(3)
C5 C 0.7349(5) 0.9799(4) 0.3919(3)
H1 H 0.7338 1.0032 0.3197
C6 C 0.7858(5) 1.0746(4) 0.6240(3)
H2 H 0.8202 1.1606 0.7073
C7 C 0.6799(5) 0.7775(4) 0.4825(3)
H3 H 0.6438 0.6671 0.4719
H4 H 1.388(8) 1.728(7) 1.022(5)
H5 H 1.123(8) 2.021(6) 0.897(5)
H6 H 1.325(8) 1.860(7) 1.038(5)
H7 H 0.940(9) 1.643(7) 0.979(6)
H8 H 1.332(8) 2.048(6) 0.935(5)
H9 H 0.859(9) 1.550(7) 0.884(6)
O2A O 1.1636(4) 1.6848(3) 0.5672(2)
O3A O 1.3650(4) 1.4953(3) 0.7696(2)
O4_2 O 1.5173(4) 1.8049(3) 0.7539(3)
Sm1A Sm 0.83701(2) 1.327270(19) 0.234590(15)
Sm1A_2 Sm 0.83701(2) 0.327270(19) 0.234590(15)
Sm1_2 Sm 0.16299(2) 0.672730(19) 0.765410(15)
Sm1_3 Sm 1.16299(2) 0.672730(19) 0.765410(15)
O10_2 O 0.8372(4) 1.7359(3) 0.7180(2)
loop_
_geom_bond_atom_site_label_1
_geom_bond_atom_site_label_2
_geom_bond_site_symmetry_1
_geom_bond_site_symmetry_2
O1 C1 1_555 1_555
O2 C1 1_555 1_555
C1 C2 1_555 1_555
C2 C5 1_555 1_555
O3 S1 1_555 1_555
S1 C3 1_555 1_555
C3 C5 1_555 1_555
O4 S2 1_555 1_555
Sm1 O1 1_555 1_555
S2 O6 1_555 1_555
O5 Sm1 1_555 1_555
O7 Sm1 1_555 1_555
O8 S1 1_555 1_555
O9 Sm1 1_555 1_555
C4 S2 1_555 1_555
O10 S2 1_555 1_555
O11 S1 1_555 1_555
C5 H1 1_555 1_555
C6 C2 1_555 1_555
H2 C6 1_555 1_555
C7 C3 1_555 1_555
H3 C7 1_555 1_555
H4 O5 1_555 1_555
H5 O7 1_555 1_555
H6 O5 1_555 1_555
H7 O9 1_555 1_555
H8 O7 1_555 1_555
H9 O9 1_555 1_555
O2A Sm1 1_555 1_555
O3A Sm1 1_555 1_555
O4_2 Sm1 1_555 1_555
Sm1A O2 1_555 1_555
Sm1A_2 O3 1_555 1_555
Sm1_2 O4 1_555 1_555
Sm1_3 O10 1_555 1_555
O10_2 Sm1 1_555 1_555
C4 C6 1_555 1_555
C4 C7 1_555 1_555

#END
