
#######################################################################
#
#                 Cambridge Crystallographic Data Centre
#                                CCDC 
#
#######################################################################
#
# If this CIF has been generated from an entry in the Cambridge 
# Structural Database, then it will include bibliographic, chemical, 
# crystal, experimental, refinement or atomic coordinate data resulting 
# from the CCDC's data processing and validation procedures.
#
#######################################################################

data_PEJTUV
_symmetry_cell_setting           triclinic
_symmetry_space_group_name_H-M   'P -1'
_symmetry_Int_Tables_number      2
_space_group_name_Hall           '-P 1'
loop_
_symmetry_equiv_pos_site_id
_symmetry_equiv_pos_as_xyz
1 x,y,z
2 -x,-y,-z
_cell_length_a                   7.0037(2)
_cell_length_b                   11.0535(4)
_cell_length_c                   17.6185(6)
_cell_angle_alpha                77.8230(10)
_cell_angle_beta                 82.1730(10)
_cell_angle_gamma                75.6040(10)
_cell_volume                     1286.33
loop_
_atom_site_label
_atom_site_type_symbol
_atom_site_fract_x
_atom_site_fract_y
_atom_site_fract_z
O1 O 1.206(4) 0.886(2) 0.7677(13)
O2 O 1.148(3) 1.6327(17) 0.9212(10)
C1 C 0.889(5) 1.227(2) 0.6846(12)
C2 C 0.822(3) 1.280(2) 0.7580(12)
C3 C 0.786(3) 1.4118(19) 0.7553(11)
H1 H 0.7981 1.4683 0.7086
C4 C 0.729(4) 1.454(2) 0.8274(13)
C5 C 0.707(4) 1.370(2) 0.8968(12)
H2 H 0.6725 1.3995 0.9436
C6 C 0.735(3) 1.247(2) 0.8960(12)
C7 C 0.802(4) 1.196(2) 0.8271(11)
H3 H 0.8303 1.1088 0.8285
C8 C 1.213(4) 1.299(2) 0.8780(12)
C9 C 1.285(3) 1.3245(19) 0.7927(11)
C10 C 1.349(4) 1.226(2) 0.7512(12)
H4 H 1.3511 1.1425 0.7766
C11 C 1.410(4) 1.250(2) 0.6724(13)
C12 C 1.406(4) 1.374(2) 0.6332(12)
H5 H 1.4489 1.3909 0.5806
C13 C 1.336(3) 1.471(2) 0.6750(11)
C14 C 1.279(4) 1.448(2) 0.7552(11)
H6 H 1.2381 1.5143 0.7827
Pr1 Pr 1.0059(2) 1.17520(11) 0.51951(6)
Pr2 Pr 0.9091(2) 0.88114(11) 0.69739(6)
Pr3 Pr 0.8419(2) 1.79073(11) 0.95495(6)
O3 O 0.925(3) 1.1087(14) 0.6863(8)
O4 O 0.899(3) 1.3077(15) 0.6208(8)
O5 O 0.754(3) 1.6249(13) 0.9012(8)
O6 O 0.487(3) 1.6700(15) 0.8228(10)
O7 O 0.808(3) 1.6738(14) 0.7601(8)
O8 O 0.865(3) 1.1323(14) 1.0290(8)
O9 O 0.716(3) 1.0166(14) 0.9621(8)
O10 O 0.514(2) 1.1907(14) 1.0223(7)
O11 O 1.186(2) 1.3773(14) 0.9203(8)
O12 O 1.227(3) 1.1788(15) 0.9081(8)
O13 O 1.326(3) 1.1104(14) 0.5858(9)
O14 O 1.655(3) 1.1462(13) 0.5654(8)
O15 O 1.547(3) 1.0122(16) 0.6833(8)
O16 O 1.527(3) 1.6444(16) 0.6139(10)
O17 O 1.207(3) 1.7054(14) 0.6786(9)
O18 O 1.243(3) 1.6429(17) 0.5538(9)
O19 O 1.146(2) 1.3776(14) 0.4942(10)
H7 H 1.1484 1.4236 0.4488
H8 H 1.1880 1.3985 0.5316
O20 O 1.093(2) 0.9453(14) 0.5697(8)
H9 H 1.2091 0.9088 0.5824
H10 H 1.2749 0.9406 0.7502
H11 H 1.2308 0.8353 0.8116
H12 H 1.1959 1.6308 0.8707
H13 H 1.2137 1.5743 0.9625
O21 O 0.771(3) 0.8950(16) 0.8283(8)
H14 H 0.6576 0.9600 0.8290
O22 O 1.203(3) 1.1807(14) 0.4035(7)
H15 H 1.3220 1.2065 0.3973
S1 S 0.6939(10) 1.6185(5) 0.8268(3)
S2 S 0.7075(9) 1.1368(5) 0.9842(3)
S3 S 1.4924(9) 1.1189(5) 0.6230(3)
S4 S 1.3302(11) 1.6294(5) 0.6263(3)
Pr1_2 Pr 2.0059(2) 1.17520(11) 0.51951(6)
Pr1A Pr 0.9941(2) 1.82480(11) 0.48049(6)
Pr1A_2 Pr 0.9941(2) 0.82480(11) 0.48049(6)
Pr2_2 Pr 0.9091(2) 1.88114(11) 0.69739(6)
Pr2_3 Pr 1.9091(2) 0.88114(11) 0.69739(6)
Pr2A Pr 1.0909(2) 1.11886(11) 0.30261(6)
Pr3A Pr 1.1581(2) 1.20927(11) 1.04505(6)
Pr3_2 Pr 0.8419(2) 0.79073(11) 0.95495(6)
Pr3A_2 Pr 0.1581(2) 1.20927(11) 1.04505(6)
O7_2 O 0.808(3) 0.6738(14) 0.7601(8)
O8A O 1.135(3) 1.8677(14) 0.9710(8)
O9_2 O 0.716(3) 2.0166(14) 0.9621(8)
O10A O 0.486(2) 1.8093(14) 0.9777(7)
O11A O 0.814(2) 1.6227(14) 1.0797(8)
O12A O 0.773(3) 1.8212(15) 1.0919(8)
O14_2 O 0.655(3) 1.1462(13) 0.5654(8)
O15_2 O 0.547(3) 1.0122(16) 0.6833(8)
O17_2 O 1.207(3) 0.7054(14) 0.6786(9)
O18A O 0.757(3) 1.3571(17) 0.4462(9)
O20A O 0.907(2) 1.0547(14) 0.4303(8)
H9A H 0.7909 1.0912 0.4176
O21_2 O 0.771(3) 1.8950(16) 0.8283(8)
H14_2 H 0.6576 1.9600 0.8290
O22A O 0.797(3) 0.8193(14) 0.5965(7)
H15A H 0.6780 0.7935 0.6027
loop_
_geom_bond_atom_site_label_1
_geom_bond_atom_site_label_2
_geom_bond_site_symmetry_1
_geom_bond_site_symmetry_2
O1 Pr2 1_555 1_555
O2 Pr3 1_555 1_555
C1 C2 1_555 1_555
C2 C3 1_555 1_555
C3 H1 1_555 1_555
C4 C3 1_555 1_555
C5 C4 1_555 1_555
H2 C5 1_555 1_555
C6 C5 1_555 1_555
C7 C2 1_555 1_555
H3 C7 1_555 1_555
C8 C9 1_555 1_555
C9 C10 1_555 1_555
C10 H4 1_555 1_555
C11 C10 1_555 1_555
C12 C11 1_555 1_555
H5 C12 1_555 1_555
C13 C12 1_555 1_555
C14 C9 1_555 1_555
H6 C14 1_555 1_555
Pr1 O4 1_555 1_555
Pr2 O3 1_555 1_555
Pr3 O5 1_555 1_555
O3 C1 1_555 1_555
O4 C1 1_555 1_555
O5 S1 1_555 1_555
O6 S1 1_555 1_555
O7 S1 1_555 1_555
O8 S2 1_555 1_555
O9 S2 1_555 1_555
O10 S2 1_555 1_555
O11 C8 1_555 1_555
O12 C8 1_555 1_555
O13 Pr1 1_555 1_555
O14 S3 1_555 1_555
O15 S3 1_555 1_555
O16 S4 1_555 1_555
O17 S4 1_555 1_555
O18 S4 1_555 1_555
O19 Pr1 1_555 1_555
H7 O19 1_555 1_555
H8 O19 1_555 1_555
O20 Pr1 1_555 1_555
H9 O20 1_555 1_555
H10 O1 1_555 1_555
H11 O1 1_555 1_555
H12 O2 1_555 1_555
H13 O2 1_555 1_555
O21 Pr2 1_555 1_555
H14 O21 1_555 1_555
O22 Pr1 1_555 1_555
H15 O22 1_555 1_555
S1 C4 1_555 1_555
S2 C6 1_555 1_555
S3 C11 1_555 1_555
S4 C13 1_555 1_555
Pr1_2 O14 1_555 1_555
Pr1A O18 1_555 1_555
Pr1A_2 O20 1_555 1_555
Pr2_2 O7 1_555 1_555
Pr2_3 O15 1_555 1_555
Pr2A O22 1_555 1_555
Pr3A O8 1_555 1_555
Pr3_2 O9 1_555 1_555
Pr3A_2 O10 1_555 1_555
O7_2 Pr2 1_555 1_555
O8A Pr3 1_555 1_555
O9_2 Pr3 1_555 1_555
O10A Pr3 1_555 1_555
O11A Pr3 1_555 1_555
O12A Pr3 1_555 1_555
O14_2 Pr1 1_555 1_555
O15_2 Pr2 1_555 1_555
O17_2 Pr2 1_555 1_555
O18A Pr1 1_555 1_555
O20A Pr1 1_555 1_555
H9A O20A 1_555 1_555
O21_2 Pr3 1_555 1_555
H14_2 O21_2 1_555 1_555
O22A Pr2 1_555 1_555
H15A O22A 1_555 1_555
C6 C7 1_555 1_555
C13 C14 1_555 1_555
Pr2 O20 1_555 1_555
O11 Pr3A 1_555 1_555
O12 Pr3A 1_555 1_555
O13 S3 1_555 1_555
O17 Pr2_2 1_555 1_555
O21 Pr3_2 1_555 1_555
Pr1A_2 O20A 1_555 1_555
Pr1A_2 O22A 1_555 1_555
Pr2_2 O21_2 1_555 1_555
Pr2A O20A 1_555 1_555

#END
