
#######################################################################
#
#                 Cambridge Crystallographic Data Centre
#                                CCDC 
#
#######################################################################
#
# If this CIF has been generated from an entry in the Cambridge 
# Structural Database, then it will include bibliographic, chemical, 
# crystal, experimental, refinement or atomic coordinate data resulting 
# from the CCDC's data processing and validation procedures.
#
#######################################################################

data_PEJVEH
_symmetry_cell_setting           triclinic
_symmetry_space_group_name_H-M   'P -1'
_symmetry_Int_Tables_number      2
_space_group_name_Hall           '-P 1'
loop_
_symmetry_equiv_pos_site_id
_symmetry_equiv_pos_as_xyz
1 x,y,z
2 -x,-y,-z
_cell_length_a                   8.2254(4)
_cell_length_b                   11.6133(6)
_cell_length_c                   14.3603(8)
_cell_angle_alpha                76.278(2)
_cell_angle_beta                 86.541(2)
_cell_angle_gamma                76.787(2)
_cell_volume                     1297.3
loop_
_atom_site_label
_atom_site_type_symbol
_atom_site_fract_x
_atom_site_fract_y
_atom_site_fract_z
Cu1 Cu 0.74108(3) 0.93843(2) 0.740202(19)
N1 N 0.7586(2) 0.77616(17) 0.70808(13)
C1 C 0.7270(3) 0.6765(2) 0.77012(17)
H1 H 0.7004 0.6796 0.8335
C2 C 0.7331(3) 0.5705(2) 0.74180(17)
H2 H 0.7117 0.5030 0.7863
C3 C 0.7706(3) 0.5629(2) 0.64823(17)
H3 H 0.7742 0.4914 0.6289
C4 C 0.8029(3) 0.6656(2) 0.58336(16)
C5 C 0.7964(3) 0.7691(2) 0.61746(16)
H4 H 0.8197 0.8373 0.5748
N2 N 0.8407(3) 0.67408(17) 0.48670(13)
H5 H 0.8834 0.7340 0.4575
C6 C 0.8162(3) 0.5954(2) 0.43321(16)
O1 O 0.7704(2) 0.50070(14) 0.46755(12)
N3 N 0.8400(2) 0.63580(17) 0.33823(13)
H6 H 0.8687 0.7040 0.3168
C7 C 0.8167(3) 0.5631(2) 0.27269(17)
H7 H 0.8752 0.4796 0.2972
H8 H 0.8657 0.5927 0.2110
C8 C 0.6335(3) 0.5663(2) 0.25885(16)
H9 H 0.6269 0.5063 0.2233
H10 H 0.5829 0.5431 0.3213
N4 N 0.5372(2) 0.68317(18) 0.20903(13)
H11 H 0.4735 0.7295 0.2414
C9 C 0.5455(3) 0.7209(2) 0.11258(16)
O2 O 0.6433(2) 0.66413(14) 0.06252(11)
N5 N 0.4311(2) 0.82732(17) 0.07590(13)
H12 H 0.3621 0.8574 0.1159
C10 C 0.4172(3) 0.89027(19) -0.01958(16)
C11 C 0.5475(3) 0.8766(2) -0.08553(16)
H13 H 0.6477 0.8226 -0.0650
N6 N 0.5341(2) 0.93807(17) -0.17717(13)
C12 C 0.3902(3) 1.0165(2) -0.20741(17)
H14 H 0.3794 1.0574 -0.2716
C13 C 0.2573(3) 1.0378(2) -0.14513(17)
H15 H 0.1597 1.0943 -0.1670
C14 C 0.2704(3) 0.9751(2) -0.05090(17)
H16 H 0.1821 0.9890 -0.0084
O3 O 0.9421(2) 0.96237(14) 0.66423(11)
C15 C 0.9816(3) 1.0631(2) 0.66242(16)
O4 O 1.0985(2) 1.09973(15) 0.61720(12)
C16 C 0.8682(3) 1.1413(2) 0.72583(16)
O5 O 0.74322(19) 1.09826(14) 0.76453(11)
O6 O 0.9008(2) 1.23511(15) 0.73648(13)
Cu1_2 Cu 0.74108(3) 0.93843(2) -0.259798(19)
N6_2 N 0.5341(2) 0.93807(17) 0.82283(13)
O7 O 0.5775(2) 1.03807(15) 0.59774(11)
C17 C 0.6362(3) 1.0798(2) 0.51938(18)
H17 H 0.6758 1.0266 0.4797
N7 N 0.6475(3) 1.19463(18) 0.48705(14)
C18 C 0.7194(5) 1.2358(3) 0.3939(2)
H18 H 0.7653 1.1673 0.3666
H19 H 0.8063 1.2760 0.4008
H20 H 0.6344 1.2914 0.3525
C19 C 0.5872(4) 1.2841(2) 0.54296(19)
H21 H 0.5231 1.2508 0.5965
H22 H 0.5180 1.3549 0.5037
H23 H 0.6803 1.3063 0.5659
O8 O 0.9170(2) 0.84422(18) 0.87974(12)
C20 C 1.0593(3) 0.7846(2) 0.87229(18)
H24 H 1.1116 0.8005 0.8129
N8 N 1.1443(3) 0.7002(2) 0.94090(15)
C21 C 1.0708(4) 0.6694(4) 1.0356(2)
H25 H 0.9546 0.7091 1.0338
H26 H 1.1273 0.6958 1.0805
H27 H 1.0818 0.5830 1.0551
C22 C 1.3140(3) 0.6358(2) 0.9276(2)
H28 H 1.3508 0.6658 0.8635
H29 H 1.3176 0.5505 0.9378
H30 H 1.3859 0.6485 0.9726
loop_
_geom_bond_atom_site_label_1
_geom_bond_atom_site_label_2
_geom_bond_site_symmetry_1
_geom_bond_site_symmetry_2
Cu1 N1 1_555 1_555
N1 C1 1_555 1_555
C1 H1 1_555 1_555
C2 C1 1_555 1_555
H2 C2 1_555 1_555
C3 C2 1_555 1_555
H3 C3 1_555 1_555
C4 C3 1_555 1_555
C5 N1 1_555 1_555
H4 C5 1_555 1_555
N2 C4 1_555 1_555
H5 N2 1_555 1_555
C6 N2 1_555 1_555
O1 C6 1_555 1_555
N3 C6 1_555 1_555
H6 N3 1_555 1_555
C7 N3 1_555 1_555
H7 C7 1_555 1_555
H8 C7 1_555 1_555
C8 C7 1_555 1_555
H9 C8 1_555 1_555
H10 C8 1_555 1_555
N4 C8 1_555 1_555
H11 N4 1_555 1_555
C9 N4 1_555 1_555
O2 C9 1_555 1_555
N5 C9 1_555 1_555
H12 N5 1_555 1_555
C10 N5 1_555 1_555
C11 C10 1_555 1_555
H13 C11 1_555 1_555
N6 C11 1_555 1_555
C12 N6 1_555 1_555
H14 C12 1_555 1_555
C13 C12 1_555 1_555
H15 C13 1_555 1_555
C14 C10 1_555 1_555
H16 C14 1_555 1_555
O3 Cu1 1_555 1_555
C15 O3 1_555 1_555
O4 C15 1_555 1_555
C16 C15 1_555 1_555
O5 Cu1 1_555 1_555
O6 C16 1_555 1_555
O7 C17 1_555 1_555
C17 H17 1_555 1_555
N7 C17 1_555 1_555
C18 N7 1_555 1_555
H18 C18 1_555 1_555
H19 C18 1_555 1_555
H20 C18 1_555 1_555
C19 N7 1_555 1_555
H21 C19 1_555 1_555
H22 C19 1_555 1_555
H23 C19 1_555 1_555
O8 C20 1_555 1_555
C20 H24 1_555 1_555
N8 C20 1_555 1_555
C21 N8 1_555 1_555
H25 C21 1_555 1_555
H26 C21 1_555 1_555
H27 C21 1_555 1_555
C22 N8 1_555 1_555
H28 C22 1_555 1_555
H29 C22 1_555 1_555
H30 C22 1_555 1_555
Cu1_2 N6 1_555 1_555
N6_2 Cu1 1_555 1_555
C4 C5 1_555 1_555
C13 C14 1_555 1_555
C16 O5 1_555 1_555

#END
