
#######################################################################
#
#                 Cambridge Crystallographic Data Centre
#                                CCDC 
#
#######################################################################
#
# If this CIF has been generated from an entry in the Cambridge 
# Structural Database, then it will include bibliographic, chemical, 
# crystal, experimental, refinement or atomic coordinate data resulting 
# from the CCDC's data processing and validation procedures.
#
#######################################################################

data_PEJVAD
_symmetry_cell_setting           triclinic
_symmetry_space_group_name_H-M   'P -1'
_symmetry_Int_Tables_number      2
_space_group_name_Hall           '-P 1'
loop_
_symmetry_equiv_pos_site_id
_symmetry_equiv_pos_as_xyz
1 x,y,z
2 -x,-y,-z
_cell_length_a                   9.6440(8)
_cell_length_b                   10.2113(8)
_cell_length_c                   10.4677(9)
_cell_angle_alpha                102.075(2)
_cell_angle_beta                 116.625(2)
_cell_angle_gamma                106.280(2)
_cell_volume                     814.46
loop_
_atom_site_label
_atom_site_type_symbol
_atom_site_fract_x
_atom_site_fract_y
_atom_site_fract_z
Cu1 Cu 0.5000 0.0000 1.0000
N1 N 0.4670(3) 0.1339(3) 0.8835(3)
C1 C 0.5159(4) 0.1359(4) 0.7831(4)
H1 H 0.5690 0.0759 0.7689
C2 C 0.4899(5) 0.2244(4) 0.6995(4)
H2 H 0.5251 0.2236 0.6300
C3 C 0.4116(5) 0.3138(4) 0.7193(4)
H3 H 0.3938 0.3740 0.6639
C4 C 0.3593(4) 0.3127(4) 0.8239(4)
C5 C 0.3883(4) 0.2206(4) 0.9025(4)
H4 H 0.3524 0.2179 0.9713
N2 N 0.2806(4) 0.4054(3) 0.8423(3)
H5 H 0.2713 0.4599 0.7892
C6 C 0.2162(4) 0.4190(4) 0.9362(4)
O1 O 0.2146(3) 0.3430(3) 1.0128(3)
N3 N 0.1559(4) 0.5232(3) 0.9374(3)
H6 H 0.1556 0.5714 0.8790
C7 C 0.0914(5) 0.5551(4) 1.0362(4)
H7 H 0.0969 0.6541 1.0547
H8 H 0.1639 0.5525 1.1356
O2 O 0.4625(3) -0.1463(3) 0.8180(2)
C8 C 0.3469(4) -0.2791(4) 0.7327(4)
O3 O 0.2181(3) -0.3389(3) 0.7360(3)
C9 C 0.3761(4) -0.3698(4) 0.6218(3)
C10 C 0.2344(5) -0.4906(4) 0.4847(4)
H9 H 0.1233 -0.5080 0.4584
C11 C 0.2609(4) -0.5814(4) 0.3911(4)
H10 H 0.1670 -0.6585 0.2996
C12 C 0.4293(4) -0.5603(4) 0.4311(4)
C13 C 0.5392(4) -0.3443(4) 0.6605(3)
H11 H 0.6314 -0.2627 0.7488
Cu1_2 Cu -0.5000 1.0000 1.0000
Cu1_3 Cu 0.5000 -1.0000 0.0000
N1A N -0.4670(3) 0.8661(3) 1.1165(3)
N1A_2 N 0.5330(3) -0.1339(3) 1.1165(3)
C1A C -0.5159(4) 0.8641(4) 1.2169(4)
H1A H -0.5690 0.9241 1.2311
C2A C -0.4899(5) 0.7756(4) 1.3005(4)
H2A H -0.5251 0.7764 1.3700
C3A C -0.4116(5) 0.6862(4) 1.2807(4)
H3A H -0.3938 0.6260 1.3361
C4A C -0.3593(4) 0.6873(4) 1.1761(4)
C5A C -0.3883(4) 0.7794(4) 1.0975(4)
H4A H -0.3524 0.7821 1.0287
N2A N -0.2806(4) 0.5946(3) 1.1577(3)
H5A H -0.2713 0.5401 1.2108
C6A C -0.2162(4) 0.5810(4) 1.0638(4)
O1A O -0.2146(3) 0.6570(3) 0.9872(3)
N3A N -0.1559(4) 0.4768(3) 1.0626(3)
H6A H -0.1556 0.4286 1.1210
C7A C -0.0914(5) 0.4449(4) 0.9638(4)
H7A H -0.0969 0.3459 0.9453
H8A H -0.1639 0.4475 0.8644
O2A O 0.5375(3) -0.8537(3) 0.1820(2)
O2A_2 O 0.5375(3) 0.1463(3) 1.1820(2)
C8A C 0.6531(4) -0.7209(4) 0.2673(4)
O3A O 0.7819(3) -0.6611(3) 0.2640(3)
C9A C 0.6239(4) -0.6302(4) 0.3782(3)
C10A C 0.7656(5) -0.5094(4) 0.5153(4)
H9A H 0.8767 -0.4920 0.5416
C11A C 0.7391(4) -0.4186(4) 0.6089(4)
H10A H 0.8330 -0.3415 0.7004
C12A C 0.5707(4) -0.4397(4) 0.5689(4)
C13A C 0.4608(4) -0.6557(4) 0.3395(3)
H11A H 0.3686 -0.7373 0.2512
O4 O 0.8050(4) 0.1065(4) 1.0975(4)
loop_
_geom_bond_atom_site_label_1
_geom_bond_atom_site_label_2
_geom_bond_site_symmetry_1
_geom_bond_site_symmetry_2
Cu1 N1 1_555 1_555
N1 C1 1_555 1_555
C1 H1 1_555 1_555
C2 C1 1_555 1_555
H2 C2 1_555 1_555
C3 C2 1_555 1_555
H3 C3 1_555 1_555
C4 C3 1_555 1_555
C5 N1 1_555 1_555
H4 C5 1_555 1_555
N2 C4 1_555 1_555
H5 N2 1_555 1_555
C6 N2 1_555 1_555
O1 C6 1_555 1_555
N3 C6 1_555 1_555
H6 N3 1_555 1_555
C7 N3 1_555 1_555
H7 C7 1_555 1_555
H8 C7 1_555 1_555
O2 Cu1 1_555 1_555
C8 O2 1_555 1_555
O3 C8 1_555 1_555
C9 C8 1_555 1_555
C10 C9 1_555 1_555
H9 C10 1_555 1_555
C11 C10 1_555 1_555
H10 C11 1_555 1_555
C12 C11 1_555 1_555
C13 C9 1_555 1_555
H11 C13 1_555 1_555
Cu1_2 N1A 1_555 1_555
Cu1_3 O2A 1_555 1_555
N1A C1A 1_555 1_555
N1A_2 Cu1 1_555 1_555
C1A H1A 1_555 1_555
C2A C1A 1_555 1_555
H2A C2A 1_555 1_555
C3A C2A 1_555 1_555
H3A C3A 1_555 1_555
C4A C3A 1_555 1_555
C5A N1A 1_555 1_555
H4A C5A 1_555 1_555
N2A C4A 1_555 1_555
H5A N2A 1_555 1_555
C6A N2A 1_555 1_555
O1A C6A 1_555 1_555
N3A C6A 1_555 1_555
H6A N3A 1_555 1_555
C7A C7 1_555 1_555
H7A C7A 1_555 1_555
H8A C7A 1_555 1_555
O2A C8A 1_555 1_555
O2A_2 Cu1 1_555 1_555
C8A O3A 1_555 1_555
C9A C8A 1_555 1_555
C10A C9A 1_555 1_555
H9A C10A 1_555 1_555
C11A C10A 1_555 1_555
H10A C11A 1_555 1_555
C12A C12 1_555 1_555
C13A C12 1_555 1_555
H11A C13A 1_555 1_555
C4 C5 1_555 1_555
C13 C12A 1_555 1_555
C4A C5A 1_555 1_555
N3A C7A 1_555 1_555
C9A C13A 1_555 1_555
C11A C12A 1_555 1_555

#END
