
#######################################################################
#
#                 Cambridge Crystallographic Data Centre
#                                CCDC 
#
#######################################################################
#
# If this CIF has been generated from an entry in the Cambridge 
# Structural Database, then it will include bibliographic, chemical, 
# crystal, experimental, refinement or atomic coordinate data resulting 
# from the CCDC's data processing and validation procedures.
#
#######################################################################

data_PEJVIL
_symmetry_cell_setting           triclinic
_symmetry_space_group_name_H-M   'P -1'
_symmetry_Int_Tables_number      2
_space_group_name_Hall           '-P 1'
loop_
_symmetry_equiv_pos_site_id
_symmetry_equiv_pos_as_xyz
1 x,y,z
2 -x,-y,-z
_cell_length_a                   8.8618(13)
_cell_length_b                   9.4700(14)
_cell_length_c                   12.5265(18)
_cell_angle_alpha                102.496(4)
_cell_angle_beta                 93.441(4)
_cell_angle_gamma                94.785(4)
_cell_volume                     1019.46
loop_
_atom_site_label
_atom_site_type_symbol
_atom_site_fract_x
_atom_site_fract_y
_atom_site_fract_z
Cu1 Cu 0.65761(7) 0.62470(7) 0.87030(5)
N1 N 0.7325(5) 0.5475(4) 0.7266(3)
C1 C 0.8206(6) 0.4389(6) 0.7122(4)
H1 H 0.8559 0.4056 0.7727
C2 C 0.8607(7) 0.3747(6) 0.6096(5)
H2 H 0.9205 0.2974 0.6013
C3 C 0.8121(6) 0.4251(6) 0.5197(4)
H3 H 0.8382 0.3821 0.4501
C4 C 0.7245(6) 0.5399(6) 0.5340(4)
C5 C 0.6871(6) 0.5984(5) 0.6392(4)
H4 H 0.6280 0.6762 0.6497
N2 N 0.6703(5) 0.5898(5) 0.4435(3)
H5 H 0.6710 0.5324 0.3802
C6 C 0.6152(6) 0.7232(6) 0.4458(4)
O1 O 0.6184(5) 0.8178(4) 0.5309(3)
N3 N 0.5587(5) 0.7399(5) 0.3485(3)
H6 H 0.5633 0.6715 0.2914
C7 C 0.4901(6) 0.8692(6) 0.3361(4)
H7 H 0.4355 0.9026 0.4002
H8 H 0.4165 0.8439 0.2729
C8 C 0.6010(6) 0.9934(6) 0.3221(4)
H9 H 0.5457 1.0716 0.3062
H10 H 0.6653 1.0307 0.3894
N4 N 0.6947(5) 0.9417(5) 0.2322(3)
H11 H 0.6705 0.8575 0.1896
C9 C 0.8190(6) 1.0246(6) 0.2151(4)
O2 O 0.8423(4) 1.1560(4) 0.2534(3)
N5 N 0.9152(5) 0.9472(4) 0.1487(3)
H12 H 0.8800 0.8607 0.1148
C10 C 1.0626(6) 0.9914(6) 0.1294(4)
C11 C 1.1560(6) 0.8836(6) 0.0915(4)
H13 H 1.1195 0.7860 0.0789
C12 C 1.3026(6) 0.9231(6) 0.0731(4)
H14 H 1.3670 0.8524 0.0483
C13 C 1.3541(6) 1.0687(6) 0.0914(4)
H15 H 1.4545 1.0949 0.0806
N6 N 1.2639(5) 1.1727(4) 0.1242(3)
C14 C 1.1205(6) 1.1339(6) 0.1427(4)
H16 H 1.0575 1.2065 0.1654
O3 O 0.5528(4) 0.4302(3) 0.8693(3)
C15 C 0.4961(5) 0.4281(5) 0.9582(4)
O4 O 0.8758(4) 0.6006(4) 0.9851(3)
N7 N 0.8419(5) 0.5570(6) 1.0691(4)
O5 O 0.7778(4) 0.4312(4) 1.0594(3)
O6 O 0.8657(4) 0.6376(4) 1.1620(3)
O7 O 0.4310(4) 0.3181(4) 0.9851(2)
Cu1A Cu 1.34239(7) 1.37530(7) 0.12970(5)
Cu1A_2 Cu 0.34239(7) 0.37530(7) 1.12970(5)
N1A N 1.2675(5) 1.4525(4) 0.2734(3)
C1A C 1.1794(6) 1.5611(6) 0.2878(4)
H1A H 1.1441 1.5944 0.2273
C2A C 1.1393(7) 1.6253(6) 0.3904(5)
H2A H 1.0795 1.7026 0.3987
C3A C 1.1879(6) 1.5749(6) 0.4803(4)
H3A H 1.1618 1.6179 0.5499
C4A C 1.2755(6) 1.4601(6) 0.4660(4)
C5A C 1.3129(6) 1.4016(5) 0.3608(4)
H4A H 1.3720 1.3238 0.3503
N2A N 1.3297(5) 1.4102(5) 0.5565(3)
H5A H 1.3290 1.4676 0.6198
C6A C 1.3848(6) 1.2768(6) 0.5542(4)
O1A O 1.3816(5) 1.1822(4) 0.4691(3)
N3A N 1.4413(5) 1.2601(5) 0.6515(3)
H6A H 1.4367 1.3285 0.7086
C7A C 1.5099(6) 1.1308(6) 0.6639(4)
H7A H 1.5645 1.0974 0.5998
H8A H 1.5835 1.1561 0.7271
C8A C 1.3990(6) 1.0066(6) 0.6779(4)
H9A H 1.4543 0.9284 0.6938
H10A H 1.3347 0.9693 0.6106
N4A N 1.3053(5) 1.0583(5) 0.7678(3)
H11A H 1.3295 1.1425 0.8104
C9A C 1.1810(6) 0.9754(6) 0.7849(4)
O2A O 1.1577(4) 0.8440(4) 0.7466(3)
N5A N 1.0848(5) 1.0528(4) 0.8513(3)
H12A H 1.1200 1.1393 0.8852
C10A C 0.9374(6) 1.0086(6) 0.8706(4)
C11A C 0.8440(6) 1.1164(6) 0.9085(4)
H13A H 0.8805 1.2140 0.9211
C12A C 0.6974(6) 1.0769(6) 0.9269(4)
H14A H 0.6330 1.1476 0.9517
C13A C 0.6459(6) 0.9313(6) 0.9086(4)
H15A H 0.5455 0.9051 0.9194
N6A N 0.7361(5) 0.8273(4) 0.8758(3)
C14A C 0.8795(6) 0.8661(6) 0.8573(4)
H16A H 0.9425 0.7935 0.8346
O3A O 0.4472(4) 0.5698(3) 1.1307(3)
O3A_2 O 1.4472(4) 1.5698(3) 0.1307(3)
C15A C 0.5039(5) 0.5719(5) 1.0418(4)
O4A O 1.1242(4) 1.3994(4) 0.0149(3)
N7A N 1.1581(5) 1.4430(6) -0.0691(4)
O5A O 1.2222(4) 1.5688(4) -0.0594(3)
O6A O 1.1343(4) 1.3624(4) -0.1620(3)
O7A O 0.5690(4) 0.6819(4) 1.0149(2)
O7_2 O 1.4310(4) 1.3181(4) -0.0149(2)
O8 O 0.6358(4) 0.3590(4) 0.2342(3)
loop_
_geom_bond_atom_site_label_1
_geom_bond_atom_site_label_2
_geom_bond_site_symmetry_1
_geom_bond_site_symmetry_2
Cu1 N1 1_555 1_555
N1 C1 1_555 1_555
C1 H1 1_555 1_555
C2 C1 1_555 1_555
H2 C2 1_555 1_555
C3 C2 1_555 1_555
H3 C3 1_555 1_555
C4 C3 1_555 1_555
C5 N1 1_555 1_555
H4 C5 1_555 1_555
N2 C4 1_555 1_555
H5 N2 1_555 1_555
C6 N2 1_555 1_555
O1 C6 1_555 1_555
N3 C6 1_555 1_555
H6 N3 1_555 1_555
C7 N3 1_555 1_555
H7 C7 1_555 1_555
H8 C7 1_555 1_555
C8 C7 1_555 1_555
H9 C8 1_555 1_555
H10 C8 1_555 1_555
N4 C8 1_555 1_555
H11 N4 1_555 1_555
C9 N4 1_555 1_555
O2 C9 1_555 1_555
N5 C9 1_555 1_555
H12 N5 1_555 1_555
C10 N5 1_555 1_555
C11 C10 1_555 1_555
H13 C11 1_555 1_555
C12 C11 1_555 1_555
H14 C12 1_555 1_555
C13 C12 1_555 1_555
H15 C13 1_555 1_555
N6 C13 1_555 1_555
C14 C10 1_555 1_555
H16 C14 1_555 1_555
O3 Cu1 1_555 1_555
C15 O3 1_555 1_555
O4 Cu1 1_555 1_555
N7 O4 1_555 1_555
O5 N7 1_555 1_555
O6 N7 1_555 1_555
O7 C15 1_555 1_555
Cu1A N6 1_555 1_555
Cu1A_2 O7 1_555 1_555
N1A Cu1A 1_555 1_555
C1A N1A 1_555 1_555
H1A C1A 1_555 1_555
C2A C1A 1_555 1_555
H2A C2A 1_555 1_555
C3A C2A 1_555 1_555
H3A C3A 1_555 1_555
C4A C3A 1_555 1_555
C5A N1A 1_555 1_555
H4A C5A 1_555 1_555
N2A C4A 1_555 1_555
H5A N2A 1_555 1_555
C6A N2A 1_555 1_555
O1A C6A 1_555 1_555
N3A C6A 1_555 1_555
H6A N3A 1_555 1_555
C7A N3A 1_555 1_555
H7A C7A 1_555 1_555
H8A C7A 1_555 1_555
C8A C7A 1_555 1_555
H9A C8A 1_555 1_555
H10A C8A 1_555 1_555
N4A C8A 1_555 1_555
H11A N4A 1_555 1_555
C9A N4A 1_555 1_555
O2A C9A 1_555 1_555
N5A C9A 1_555 1_555
H12A N5A 1_555 1_555
C10A N5A 1_555 1_555
C11A C10A 1_555 1_555
H13A C11A 1_555 1_555
C12A C11A 1_555 1_555
H14A C12A 1_555 1_555
C13A C12A 1_555 1_555
H15A C13A 1_555 1_555
N6A Cu1 1_555 1_555
C14A C10A 1_555 1_555
H16A C14A 1_555 1_555
O3A Cu1A_2 1_555 1_555
O3A_2 Cu1A 1_555 1_555
C15A C15 1_555 1_555
O4A Cu1A 1_555 1_555
N7A O4A 1_555 1_555
O5A N7A 1_555 1_555
O6A N7A 1_555 1_555
O7A Cu1 1_555 1_555
O7_2 Cu1A 1_555 1_555
C4 C5 1_555 1_555
N6 C14 1_555 1_555
C4A C5A 1_555 1_555
C13A N6A 1_555 1_555
N6A C14A 1_555 1_555
O3A C15A 1_555 1_555
C15A O7A 1_555 1_555

#END
