
#######################################################################
#
#                 Cambridge Crystallographic Data Centre
#                                CCDC 
#
#######################################################################
#
# If this CIF has been generated from an entry in the Cambridge 
# Structural Database, then it will include bibliographic, chemical, 
# crystal, experimental, refinement or atomic coordinate data resulting 
# from the CCDC's data processing and validation procedures.
#
#######################################################################

data_PEJVUX
_symmetry_cell_setting           triclinic
_symmetry_space_group_name_H-M   'P -1'
_symmetry_Int_Tables_number      2
_space_group_name_Hall           '-P 1'
loop_
_symmetry_equiv_pos_site_id
_symmetry_equiv_pos_as_xyz
1 x,y,z
2 -x,-y,-z
_cell_length_a                   9.5396(8)
_cell_length_b                   9.7085(8)
_cell_length_c                   12.6295(12)
_cell_angle_alpha                74.927(2)
_cell_angle_beta                 76.612(2)
_cell_angle_gamma                87.388(2)
_cell_volume                     1098.61
loop_
_atom_site_label
_atom_site_type_symbol
_atom_site_fract_x
_atom_site_fract_y
_atom_site_fract_z
Cu1 Cu 0.66463(3) 0.59578(3) -0.39721(3)
N1 N 0.7220(2) 0.5056(2) -0.25333(17)
C1 C 0.8058(3) 0.3916(3) -0.2439(2)
H1 H 0.8393 0.3545 -0.3059
C2 C 0.8434(4) 0.3285(4) -0.1445(3)
H2 H 0.9002 0.2476 -0.1386
C3 C 0.7974(4) 0.3844(3) -0.0535(3)
H3 H 0.8234 0.3420 0.0140
C4 C 0.7122(3) 0.5042(3) -0.0626(2)
C5 C 0.6750(3) 0.5603(3) -0.1649(2)
H4 H 0.6152 0.6390 -0.1723
N2 N 0.6650(3) 0.5606(2) 0.02986(18)
H5 H 0.6703 0.5067 0.0946
C6 C 0.6099(3) 0.6967(3) 0.0271(2)
O1 O 0.5977(3) 0.7817(2) -0.05925(17)
N3 N 0.5721(2) 0.7230(2) 0.12939(18)
H6 H 0.5823 0.6566 0.1872
C7 C 0.5151(3) 0.8583(3) 0.1460(2)
H7 H 0.4410 0.8410 0.2153
H8 H 0.4702 0.9042 0.0846
C8 C 0.6291(3) 0.9588(3) 0.1521(2)
H9 H 0.7002 0.9812 0.0811
H10 H 0.5842 1.0471 0.1633
C9 C 0.7031(3) 0.8949(3) 0.2459(3)
H11 H 0.6309 0.8573 0.3145
H12 H 0.7614 0.8159 0.2280
N4 N 0.7945(2) 0.9977(2) 0.2652(2)
H13 H 0.7724 1.0864 0.2495
C10 C 0.9112(3) 0.9594(3) 0.3064(2)
O2 O 0.95753(19) 0.83782(19) 0.32313(17)
N5 N 0.9756(2) 1.0687(2) 0.3289(2)
H14 H 0.9309 1.1484 0.3216
C11 C 1.1054(3) 1.0650(3) 0.3624(2)
C12 C 1.1891(3) 0.9461(3) 0.3880(2)
H15 H 1.1599 0.8569 0.3858
C13 C 1.3173(3) 0.9634(3) 0.4170(2)
H16 H 1.3748 0.8848 0.4352
C14 C 1.3600(3) 1.0941(3) 0.4191(2)
H17 H 1.4477 1.1036 0.4370
N6 N 1.2790(2) 1.2098(2) 0.39612(17)
C15 C 1.1543(3) 1.1936(3) 0.3695(2)
H18 H 1.0971 1.2733 0.3548
O3 O 0.59893(18) 0.40774(17) -0.40483(14)
O4 O 0.46487(19) 0.32610(17) -0.49943(15)
C16 C 0.5186(3) 0.4234(2) -0.4725(2)
O5 O 0.8582(3) 0.5808(3) -0.5275(2)
H19 H 0.882(4) 0.651(4) -0.571(3)
H20 H 0.853(4) 0.521(4) -0.553(3)
Cu1A Cu 1.33537(3) 1.40422(3) 0.39721(3)
Cu1A_2 Cu 0.33537(3) 0.40422(3) -0.60279(3)
N1A N 1.2780(2) 1.4944(2) 0.25333(17)
C1A C 1.1942(3) 1.6084(3) 0.2439(2)
H1A H 1.1607 1.6455 0.3059
C2A C 1.1566(4) 1.6715(4) 0.1445(3)
H2A H 1.0998 1.7524 0.1386
C3A C 1.2026(4) 1.6156(3) 0.0535(3)
H3A H 1.1766 1.6580 -0.0140
C4A C 1.2878(3) 1.4958(3) 0.0626(2)
C5A C 1.3250(3) 1.4397(3) 0.1649(2)
H4A H 1.3848 1.3610 0.1723
N2A N 1.3350(3) 1.4394(2) -0.02986(18)
H5A H 1.3297 1.4933 -0.0946
C6A C 1.3901(3) 1.3033(3) -0.0271(2)
O1A O 1.4023(3) 1.2183(2) 0.05925(17)
N3A N 1.4279(2) 1.2770(2) -0.12939(18)
H6A H 1.4177 1.3434 -0.1872
C7A C 1.4849(3) 1.1417(3) -0.1460(2)
H7A H 1.5590 1.1590 -0.2153
H8A H 1.5298 1.0958 -0.0846
C8A C 1.3709(3) 1.0412(3) -0.1521(2)
H9A H 1.2998 1.0188 -0.0811
H10A H 1.4158 0.9529 -0.1633
C9A C 1.2969(3) 1.1051(3) -0.2459(3)
H11A H 1.3691 1.1427 -0.3145
H12A H 1.2386 1.1841 -0.2280
N4A N 1.2055(2) 1.0023(2) -0.2652(2)
H13A H 1.2276 0.9136 -0.2495
C10A C 1.0888(3) 1.0406(3) -0.3064(2)
O2A O 1.04247(19) 1.16218(19) -0.32313(17)
N5A N 1.0244(2) 0.9313(2) -0.3289(2)
H14A H 1.0691 0.8516 -0.3216
C11A C 0.8946(3) 0.9350(3) -0.3624(2)
C12A C 0.8109(3) 1.0539(3) -0.3880(2)
H15A H 0.8401 1.1431 -0.3858
C13A C 0.6827(3) 1.0366(3) -0.4170(2)
H16A H 0.6252 1.1152 -0.4352
C14A C 0.6400(3) 0.9059(3) -0.4191(2)
H17A H 0.5523 0.8964 -0.4370
N6A N 0.7210(2) 0.7902(2) -0.39612(17)
C15A C 0.8457(3) 0.8064(3) -0.3695(2)
H18A H 0.9029 0.7267 -0.3548
O3A O 0.40107(18) 0.59226(17) -0.59517(14)
O3A_2 O 1.40107(18) 1.59226(17) 0.40483(14)
O4A O 0.53513(19) 0.67390(17) -0.50057(15)
O4_2 O 1.46487(19) 1.32610(17) 0.50057(15)
C16A C 0.4814(3) 0.5766(2) -0.5275(2)
O5A O 1.1418(3) 1.4192(3) 0.5275(2)
H19A H 1.118(4) 1.349(4) 0.571(3)
H20A H 1.147(4) 1.479(4) 0.553(3)
N7 N 0.2417(3) 0.6127(3) 0.7068(2)
O6 O 0.2938(3) 0.4944(3) 0.7110(2)
O7 O 0.2694(4) 0.6830(3) 0.7665(2)
O8 O 0.1619(3) 0.6583(3) 0.6412(2)
loop_
_geom_bond_atom_site_label_1
_geom_bond_atom_site_label_2
_geom_bond_site_symmetry_1
_geom_bond_site_symmetry_2
Cu1 N1 1_555 1_555
N1 C1 1_555 1_555
C1 H1 1_555 1_555
C2 C1 1_555 1_555
H2 C2 1_555 1_555
C3 C2 1_555 1_555
H3 C3 1_555 1_555
C4 C3 1_555 1_555
C5 N1 1_555 1_555
H4 C5 1_555 1_555
N2 C4 1_555 1_555
H5 N2 1_555 1_555
C6 N2 1_555 1_555
O1 C6 1_555 1_555
N3 C6 1_555 1_555
H6 N3 1_555 1_555
C7 N3 1_555 1_555
H7 C7 1_555 1_555
H8 C7 1_555 1_555
C8 C7 1_555 1_555
H9 C8 1_555 1_555
H10 C8 1_555 1_555
C9 C8 1_555 1_555
H11 C9 1_555 1_555
H12 C9 1_555 1_555
N4 C9 1_555 1_555
H13 N4 1_555 1_555
C10 N4 1_555 1_555
O2 C10 1_555 1_555
N5 C10 1_555 1_555
H14 N5 1_555 1_555
C11 N5 1_555 1_555
C12 C11 1_555 1_555
H15 C12 1_555 1_555
C13 C12 1_555 1_555
H16 C13 1_555 1_555
C14 C13 1_555 1_555
H17 C14 1_555 1_555
N6 C14 1_555 1_555
C15 C11 1_555 1_555
H18 C15 1_555 1_555
O3 Cu1 1_555 1_555
O4 C16 1_555 1_555
C16 O3 1_555 1_555
O5 Cu1 1_555 1_555
N7 O6 1_555 1_555
O7 N7 1_555 1_555
O8 N7 1_555 1_555
H19 O5 1_555 1_555
H20 O5 1_555 1_555
Cu1A N6 1_555 1_555
Cu1A_2 O4 1_555 1_555
N1A Cu1A 1_555 1_555
C1A N1A 1_555 1_555
H1A C1A 1_555 1_555
C2A C1A 1_555 1_555
H2A C2A 1_555 1_555
C3A C2A 1_555 1_555
H3A C3A 1_555 1_555
C4A C3A 1_555 1_555
C5A N1A 1_555 1_555
H4A C5A 1_555 1_555
N2A C4A 1_555 1_555
H5A N2A 1_555 1_555
C6A N2A 1_555 1_555
O1A C6A 1_555 1_555
N3A C6A 1_555 1_555
H6A N3A 1_555 1_555
C7A N3A 1_555 1_555
H7A C7A 1_555 1_555
H8A C7A 1_555 1_555
C8A C7A 1_555 1_555
H9A C8A 1_555 1_555
H10A C8A 1_555 1_555
C9A C8A 1_555 1_555
H11A C9A 1_555 1_555
H12A C9A 1_555 1_555
N4A C9A 1_555 1_555
H13A N4A 1_555 1_555
C10A N4A 1_555 1_555
O2A C10A 1_555 1_555
N5A C10A 1_555 1_555
H14A N5A 1_555 1_555
C11A N5A 1_555 1_555
C12A C11A 1_555 1_555
H15A C12A 1_555 1_555
C13A C12A 1_555 1_555
H16A C13A 1_555 1_555
C14A C13A 1_555 1_555
H17A C14A 1_555 1_555
N6A Cu1 1_555 1_555
C15A C11A 1_555 1_555
H18A C15A 1_555 1_555
O3A Cu1A_2 1_555 1_555
O3A_2 Cu1A 1_555 1_555
O4A Cu1 1_555 1_555
O4_2 Cu1A 1_555 1_555
C16A C16 1_555 1_555
O5A Cu1A 1_555 1_555
H19A O5A 1_555 1_555
H20A O5A 1_555 1_555
C4 C5 1_555 1_555
N6 C15 1_555 1_555
C4A C5A 1_555 1_555
C14A N6A 1_555 1_555
N6A C15A 1_555 1_555
O3A C16A 1_555 1_555
O4A C16A 1_555 1_555

#END
