
#######################################################################
#
#                 Cambridge Crystallographic Data Centre
#                                CCDC 
#
#######################################################################
#
# If this CIF has been generated from an entry in the Cambridge 
# Structural Database, then it will include bibliographic, chemical, 
# crystal, experimental, refinement or atomic coordinate data resulting 
# from the CCDC's data processing and validation procedures.
#
#######################################################################

data_PEJVOR
_symmetry_cell_setting           triclinic
_symmetry_space_group_name_H-M   'P -1'
_symmetry_Int_Tables_number      2
_space_group_name_Hall           '-P 1'
loop_
_symmetry_equiv_pos_site_id
_symmetry_equiv_pos_as_xyz
1 x,y,z
2 -x,-y,-z
_cell_length_a                   8.3131(8)
_cell_length_b                   8.4982(8)
_cell_length_c                   8.8252(8)
_cell_angle_alpha                69.901(2)
_cell_angle_beta                 86.713(2)
_cell_angle_gamma                82.023(2)
_cell_volume                     579.803
loop_
_atom_site_label
_atom_site_type_symbol
_atom_site_fract_x
_atom_site_fract_y
_atom_site_fract_z
Cu1 Cu 0.5000 0.0000 0.0000
N1 N 0.4296(4) 0.2518(4) -0.0770(3)
C1 C 0.4863(5) 0.3542(5) -0.2149(4)
H1 H 0.5595 0.3087 -0.2772
C2 C 0.4391(6) 0.5249(5) -0.2664(5)
H2 H 0.4795 0.5937 -0.3634
C3 C 0.3320(5) 0.5954(5) -0.1755(5)
H3 H 0.2995 0.7113 -0.2101
C4 C 0.2735(5) 0.4902(4) -0.0311(4)
C5 C 0.3258(4) 0.3178(4) 0.0134(4)
H4 H 0.2872 0.2457 0.1096
N2 N 0.1702(4) 0.5640(4) 0.0624(4)
H5 H 0.1497 0.6724 0.0258
C6 C 0.0977(5) 0.4830(5) 0.2062(5)
O1 O 0.1092(4) 0.3294(4) 0.2674(4)
N3 N 0.0114(5) 0.5868(5) 0.2765(4)
H6 H -0.0003 0.6941 0.2266
C7 C -0.0611(5) 0.5204(6) 0.4336(5)
H7 H -0.1068 0.4187 0.4417
H8 H -0.1490 0.6024 0.4473
O2 O 0.4946(3) -0.0008(3) 0.2221(3)
C8 C 0.6165(4) -0.0304(4) 0.3104(4)
O3 O 0.7589(3) -0.0646(4) 0.2679(3)
C9 C 0.5867(4) -0.0244(4) 0.4794(4)
H9 H 0.6243 -0.1348 0.5558
H10 H 0.6522 0.0553 0.4937
Cu1_2 Cu -0.5000 1.0000 1.0000
Cu1_3 Cu 0.5000 0.0000 1.0000
N1A N -0.4296(4) 0.7482(4) 1.0770(3)
N1A_2 N 0.5704(4) -0.2518(4) 0.0770(3)
C1A C -0.4863(5) 0.6458(5) 1.2149(4)
H1A H -0.5595 0.6913 1.2772
C2A C -0.4391(6) 0.4751(5) 1.2664(5)
H2A H -0.4795 0.4063 1.3634
C3A C -0.3320(5) 0.4046(5) 1.1755(5)
H3A H -0.2995 0.2887 1.2101
C4A C -0.2735(5) 0.5098(4) 1.0311(4)
C5A C -0.3258(4) 0.6822(4) 0.9866(4)
H4A H -0.2872 0.7543 0.8904
N2A N -0.1702(4) 0.4360(4) 0.9376(4)
H5A H -0.1497 0.3276 0.9742
C6A C -0.0977(5) 0.5170(5) 0.7938(5)
O1A O -0.1092(4) 0.6706(4) 0.7326(4)
N3A N -0.0114(5) 0.4132(5) 0.7235(4)
H6A H 0.0003 0.3059 0.7734
C7A C 0.0611(5) 0.4796(6) 0.5664(5)
H7A H 0.1068 0.5813 0.5583
H8A H 0.1490 0.3976 0.5527
O2A O 0.5054(3) 0.0008(3) 0.7779(3)
O2A_2 O 0.5054(3) 0.0008(3) -0.2221(3)
C8A C 0.3835(4) 0.0304(4) 0.6896(4)
O3A O 0.2411(3) 0.0646(4) 0.7321(3)
C9A C 0.4133(4) 0.0244(4) 0.5206(4)
H9A H 0.3757 0.1348 0.4442
H10A H 0.3478 -0.0553 0.5063
O4 O 0.1987(4) -0.0863(4) 0.0549(4)
O5 O 0.0664(4) 0.9888(5) 0.3163(5)
loop_
_geom_bond_atom_site_label_1
_geom_bond_atom_site_label_2
_geom_bond_site_symmetry_1
_geom_bond_site_symmetry_2
Cu1 N1 1_555 1_555
N1 C1 1_555 1_555
C1 H1 1_555 1_555
C2 C1 1_555 1_555
H2 C2 1_555 1_555
C3 C2 1_555 1_555
H3 C3 1_555 1_555
C4 C3 1_555 1_555
C5 N1 1_555 1_555
H4 C5 1_555 1_555
N2 C4 1_555 1_555
H5 N2 1_555 1_555
C6 N2 1_555 1_555
O1 C6 1_555 1_555
N3 C6 1_555 1_555
H6 N3 1_555 1_555
C7 N3 1_555 1_555
H7 C7 1_555 1_555
H8 C7 1_555 1_555
O2 Cu1 1_555 1_555
C8 O2 1_555 1_555
O3 C8 1_555 1_555
C9 C8 1_555 1_555
H9 C9 1_555 1_555
H10 C9 1_555 1_555
Cu1_2 N1A 1_555 1_555
Cu1_3 O2A 1_555 1_555
N1A C1A 1_555 1_555
N1A_2 Cu1 1_555 1_555
C1A H1A 1_555 1_555
C2A C1A 1_555 1_555
H2A C2A 1_555 1_555
C3A C2A 1_555 1_555
H3A C3A 1_555 1_555
C4A C3A 1_555 1_555
C5A N1A 1_555 1_555
H4A C5A 1_555 1_555
N2A C4A 1_555 1_555
H5A N2A 1_555 1_555
C6A N2A 1_555 1_555
O1A C6A 1_555 1_555
N3A C6A 1_555 1_555
H6A N3A 1_555 1_555
C7A C7 1_555 1_555
H7A C7A 1_555 1_555
H8A C7A 1_555 1_555
O2A C8A 1_555 1_555
O2A_2 Cu1 1_555 1_555
C8A O3A 1_555 1_555
C9A C9 1_555 1_555
H9A C9A 1_555 1_555
H10A C9A 1_555 1_555
C4 C5 1_555 1_555
C4A C5A 1_555 1_555
N3A C7A 1_555 1_555
C8A C9A 1_555 1_555

#END
