
#######################################################################
#
#                 Cambridge Crystallographic Data Centre
#                                CCDC 
#
#######################################################################
#
# If this CIF has been generated from an entry in the Cambridge 
# Structural Database, then it will include bibliographic, chemical, 
# crystal, experimental, refinement or atomic coordinate data resulting 
# from the CCDC's data processing and validation procedures.
#
#######################################################################

data_PEJWAE
_symmetry_cell_setting           orthorhombic
_symmetry_space_group_name_H-M   'P c a 21'
_symmetry_Int_Tables_number      29
_space_group_name_Hall           'P 2c -2ac'
loop_
_symmetry_equiv_pos_site_id
_symmetry_equiv_pos_as_xyz
1 x,y,z
2 -x,-y,1/2+z
3 1/2+x,-y,z
4 1/2-x,y,1/2+z
_cell_length_a                   18.4348(9)
_cell_length_b                   7.9490(4)
_cell_length_c                   15.9297(8)
_cell_angle_alpha                90
_cell_angle_beta                 90
_cell_angle_gamma                90
_cell_volume                     2334.31
loop_
_atom_site_label
_atom_site_type_symbol
_atom_site_fract_x
_atom_site_fract_y
_atom_site_fract_z
Cu1 Cu 0.157009(12) 0.14819(3) 0.751190(18)
N1 N 0.17263(9) 0.1946(2) 0.87509(12)
C1 C 0.13029(12) 0.1238(3) 0.93400(14)
H1 H 0.0924 0.0540 0.9177
C2 C 0.14223(12) 0.1532(3) 1.01854(16)
H2 H 0.1122 0.1038 1.0584
C3 C 0.19854(11) 0.2553(3) 1.04375(14)
H3 H 0.2059 0.2783 1.1004
C4 C 0.24469(13) 0.3241(2) 0.98257(14)
C5 C 0.22798(11) 0.2938(3) 0.89884(14)
H4 H 0.2563 0.3442 0.8576
N2 N 0.30456(9) 0.4166(2) 1.00936(12)
H5 H 0.3085 0.4351 1.0624
C6 C 0.35825(11) 0.4814(3) 0.95789(15)
O1 O 0.35101(8) 0.4924(2) 0.88163(11)
N3 N 0.41890(10) 0.5318(2) 0.99818(13)
H6 H 0.4225 0.5192 1.0516
C7 C 0.47830(12) 0.6076(3) 0.95122(15)
H7 H 0.5015 0.6916 0.9863
H8 H 0.4584 0.6649 0.9026
C8 C 0.53579(12) 0.4826(3) 0.92154(15)
H9 H 0.5124 0.3938 0.8897
H10 H 0.5694 0.5398 0.8844
C9 C 0.57783(12) 0.4049(3) 0.99409(15)
H11 H 0.5922 0.4922 1.0332
H12 H 0.5471 0.3255 1.0237
N4 N 0.64202(10) 0.3189(2) 0.96271(13)
H13 H 0.6488 0.3097 0.9095
C10 C 0.69075(12) 0.2536(3) 1.01633(15)
O2 O 0.68168(9) 0.2488(2) 1.09275(10)
N5 N 0.75253(11) 0.1898(2) 0.97801(12)
H14 H 0.7574 0.2092 0.9252
C11 C 0.80767(11) 0.0972(3) 1.01679(14)
C12 C 0.80547(11) 0.0458(3) 1.10047(13)
H15 H 0.7675 0.0820 1.1344
N6 N 0.85682(10) -0.0546(2) 1.13343(12)
C13 C 0.91313(12) -0.1026(3) 1.08583(15)
H16 H 0.9487 -0.1715 1.1090
C14 C 0.91963(12) -0.0524(3) 1.00343(15)
H17 H 0.9594 -0.0867 0.9718
C15 C 0.86680(12) 0.0494(3) 0.96758(15)
H18 H 0.8708 0.0849 0.9121
O3 O 0.26080(7) 0.16340(17) 0.73283(10)
C16 C 0.30487(10) 0.0537(3) 0.76137(14)
O4 O 0.28679(8) -0.08342(19) 0.79219(10)
C17 C 0.38483(10) 0.1022(2) 0.75816(17)
H19 H 0.3924 0.1810 0.7125
H20 H 0.3978 0.1586 0.8100
C18 C 0.43416(10) -0.0484(2) 0.74589(17)
H21 H 0.4188 -0.1368 0.7839
H22 H 0.4278 -0.0899 0.6891
C19 C 0.51447(10) -0.0149(3) 0.76026(14)
O5 O 0.53814(8) 0.13132(18) 0.76300(12)
O6 O 0.55280(8) -0.14800(17) 0.76722(9)
O7 O 0.14814(9) 0.4171(2) 0.69487(11)
H25 H 0.1040(16) 0.440(3) 0.6948(18)
H26 H 0.1694(16) 0.510(4) 0.723(2)
Cu1A Cu 0.842991(12) -0.14819(3) 1.251190(18)
Cu1B Cu 0.657009(12) -0.14819(3) 0.751190(18)
N6A N 0.14318(10) 0.0546(2) 0.63343(12)
O6B O 0.05280(8) 0.14800(17) 0.76722(9)
O8 O 0.01733(10) 0.5695(3) 0.67034(12)
H23 H -0.021(2) 0.529(5) 0.679(3)
H24 H 0.0151(16) 0.660(4) 0.695(2)
O9 O 0.32901(10) 0.7103(2) 0.28458(10)
H27 H 0.2953(14) 0.771(3) 0.2776(15)
H28 H 0.3684(18) 0.751(4) 0.275(2)
O10 O 0.62021(11) 0.4738(2) 0.20685(14)
H29 H 0.6335(15) 0.473(4) 0.254(3)
H30 H 0.6433(19) 0.397(5) 0.178(2)
loop_
_geom_bond_atom_site_label_1
_geom_bond_atom_site_label_2
_geom_bond_site_symmetry_1
_geom_bond_site_symmetry_2
Cu1 N1 1_555 1_555
N1 C1 1_555 1_555
C1 H1 1_555 1_555
C2 C1 1_555 1_555
H2 C2 1_555 1_555
C3 C2 1_555 1_555
H3 C3 1_555 1_555
C4 C3 1_555 1_555
C5 N1 1_555 1_555
H4 C5 1_555 1_555
N2 C4 1_555 1_555
H5 N2 1_555 1_555
C6 N2 1_555 1_555
O1 C6 1_555 1_555
N3 C6 1_555 1_555
H6 N3 1_555 1_555
C7 N3 1_555 1_555
H7 C7 1_555 1_555
H8 C7 1_555 1_555
C8 C7 1_555 1_555
H9 C8 1_555 1_555
H10 C8 1_555 1_555
C9 C8 1_555 1_555
H11 C9 1_555 1_555
H12 C9 1_555 1_555
N4 C9 1_555 1_555
H13 N4 1_555 1_555
C10 N4 1_555 1_555
O2 C10 1_555 1_555
N5 C10 1_555 1_555
H14 N5 1_555 1_555
C11 N5 1_555 1_555
C12 C11 1_555 1_555
H15 C12 1_555 1_555
N6 C12 1_555 1_555
C13 N6 1_555 1_555
H16 C13 1_555 1_555
C14 C13 1_555 1_555
H17 C14 1_555 1_555
C15 C11 1_555 1_555
H18 C15 1_555 1_555
O3 Cu1 1_555 1_555
C16 O3 1_555 1_555
O4 C16 1_555 1_555
C17 C16 1_555 1_555
H19 C17 1_555 1_555
H20 C17 1_555 1_555
C18 C17 1_555 1_555
H21 C18 1_555 1_555
H22 C18 1_555 1_555
C19 C18 1_555 1_555
O5 C19 1_555 1_555
O6 C19 1_555 1_555
O7 Cu1 1_555 1_555
O8 H23 1_555 1_555
O9 H27 1_555 1_555
O10 H29 1_555 1_555
H24 O8 1_555 1_555
H25 O7 1_555 1_555
H26 O7 1_555 1_555
H28 O9 1_555 1_555
H30 O10 1_555 1_555
Cu1A N6 1_555 1_555
Cu1B O6 1_555 1_555
N6A Cu1 1_555 1_555
O6B Cu1 1_555 1_555
C4 C5 1_555 1_555
C14 C15 1_555 1_555

#END
