
#######################################################################
#
#                 Cambridge Crystallographic Data Centre
#                                CCDC 
#
#######################################################################
#
# If this CIF has been generated from an entry in the Cambridge 
# Structural Database, then it will include bibliographic, chemical, 
# crystal, experimental, refinement or atomic coordinate data resulting 
# from the CCDC's data processing and validation procedures.
#
#######################################################################

data_PEJWUY
_symmetry_cell_setting           triclinic
_symmetry_space_group_name_H-M   'P -1'
_symmetry_Int_Tables_number      2
_space_group_name_Hall           '-P 1'
loop_
_symmetry_equiv_pos_site_id
_symmetry_equiv_pos_as_xyz
1 x,y,z
2 -x,-y,-z
_cell_length_a                   9.9763(11)
_cell_length_b                   10.1710(11)
_cell_length_c                   11.3001(13)
_cell_angle_alpha                110.125(2)
_cell_angle_beta                 108.317(2)
_cell_angle_gamma                92.168(2)
_cell_volume                     1008.26
loop_
_atom_site_label
_atom_site_type_symbol
_atom_site_fract_x
_atom_site_fract_y
_atom_site_fract_z
Cu1 Cu 0.75362(3) 0.86709(3) 0.95458(3)
O1 O 0.83296(18) 1.01059(18) 0.90616(16)
N1 N 0.5538(2) 0.8795(2) 0.8515(2)
O2 O 0.78847(19) 0.68528(19) 0.78640(18)
N2 N 0.6438(2) 0.7649(2) 1.0272(2)
C1 C 0.5010(3) 0.7641(3) 0.9852(3)
C2 C 0.4496(3) 0.8285(3) 0.8848(2)
P1 P 0.93491(6) 1.00740(7) 0.83114(6)
P2 P 0.68310(7) 0.58030(7) 0.65525(7)
O3 O 0.98214(18) 0.85907(19) 0.78716(17)
H1 H 0.9115 0.7983 0.7376
O4 O 1.06676(18) 1.12036(19) 0.90476(17)
O5 O 0.5528(2) 0.5163(2) 0.67281(19)
O6 O 0.6401(2) 0.6513(2) 0.55159(19)
H2 H 0.5830 0.5943 0.4805
C3 C 0.9979(3) 1.1323(3) 0.5865(3)
H3 H 0.9964 1.2225 0.6446
C4 C 0.9196(3) 1.0150(3) 0.5838(2)
C5 C 0.7005(3) 0.7089(3) 1.1189(3)
H4 H 0.7986 0.7084 1.1473
C6 C 0.5169(3) 0.9378(3) 0.7593(3)
H5 H 0.5886 0.9739 0.7371
C7 C 0.8367(3) 1.0308(3) 0.6782(2)
H6 H 0.7494 0.9616 0.6318
H7 H 0.8096 1.1244 0.7008
C8 C 0.3084(3) 0.8393(3) 0.8273(3)
H8 H 0.2383 0.8068 0.8534
C9 C 0.2722(3) 0.8983(3) 0.7313(3)
H9 H 0.1774 0.9053 0.6910
C10 C 0.3780(3) 0.9468(3) 0.6956(3)
H10 H 0.3556 0.9851 0.6294
C11 C 0.7717(3) 0.4353(3) 0.5909(3)
H11 H 0.8106 0.3975 0.6603
H12 H 0.7004 0.3607 0.5154
C12 C 0.9219(3) 0.8830(3) 0.4962(3)
H13 H 0.8692 0.8033 0.4923
C13 C 0.8907(3) 0.4700(3) 0.5454(3)
C14 C 0.8597(3) 0.4688(3) 0.4163(3)
H14 H 0.7651 0.4480 0.3586
C15 C 1.0318(3) 0.5018(3) 0.6277(3)
H15 H 1.0551 0.5037 0.7147
C16 C 0.4139(3) 0.7066(3) 1.0356(3)
H16 H 0.3157 0.7058 1.0052
C17 C 0.4745(4) 0.6508(4) 1.1310(4)
H17 H 0.4178 0.6128 1.1667
C18 C 0.6187(4) 0.6517(4) 1.1729(3)
H18 H 0.6613 0.6140 1.2372
Cu1A Cu 1.24638(3) 1.13291(3) 0.04542(3)
Cu1A_2 Cu 1.24638(3) 1.13291(3) 1.04542(3)
Cu1_2 Cu 0.75362(3) 0.86709(3) -0.04542(3)
Cu1A_3 Cu 1.24638(3) 0.13291(3) 0.04542(3)
O1A O 1.16704(18) 0.98941(18) 0.09384(16)
N1A N 1.4462(2) 1.1205(2) 0.1485(2)
O2A O 1.21153(19) 0.31472(19) 0.21360(18)
O2A_2 O 1.21153(19) 1.31472(19) 0.21360(18)
N2A N 1.3562(2) 1.2351(2) -0.0272(2)
C1A C 1.4990(3) 1.2359(3) 0.0148(3)
C2A C 1.5504(3) 1.1715(3) 0.1152(2)
P1A P 1.06509(6) 0.99260(7) 0.16886(6)
P2A P 1.31690(7) 0.41970(7) 0.34475(7)
O3A O 1.01786(18) 1.14093(19) 0.21284(17)
H1A H 1.0885 1.2017 0.2624
O4A O 0.93324(18) 0.87964(19) 0.09524(17)
O4A_2 O 0.93324(18) 0.87964(19) 1.09524(17)
O4_2 O 1.06676(18) 1.12036(19) -0.09524(17)
O5A O 1.4472(2) 0.4837(2) 0.32719(19)
O6A O 1.3599(2) 0.3487(2) 0.44841(19)
H2A H 1.4170 0.4057 0.5195
C3A C 1.0021(3) 0.8677(3) 0.4135(3)
H3A H 1.0036 0.7775 0.3554
C4A C 1.0804(3) 0.9850(3) 0.4162(2)
C5A C 1.2995(3) 1.2911(3) -0.1189(3)
H4A H 1.2014 1.2916 -0.1473
C6A C 1.4831(3) 1.0622(3) 0.2407(3)
H5A H 1.4114 1.0261 0.2629
C7A C 1.1633(3) 0.9692(3) 0.3218(2)
H6A H 1.2506 1.0384 0.3682
H7A H 1.1904 0.8756 0.2992
C8A C 1.6916(3) 1.1607(3) 0.1727(3)
H8A H 1.7617 1.1932 0.1466
C9A C 1.7278(3) 1.1017(3) 0.2687(3)
H9A H 1.8226 1.0947 0.3090
C10A C 1.6220(3) 1.0532(3) 0.3044(3)
H10A H 1.6444 1.0149 0.3706
C11A C 1.2283(3) 0.5647(3) 0.4091(3)
H11A H 1.1894 0.6025 0.3397
H12A H 1.2996 0.6393 0.4846
C12A C 1.0781(3) 1.1170(3) 0.5038(3)
H13A H 1.1308 1.1967 0.5077
C13A C 1.1093(3) 0.5300(3) 0.4546(3)
C14A C 1.1403(3) 0.5312(3) 0.5837(3)
H14A H 1.2349 0.5520 0.6414
C15A C 0.9682(3) 0.4982(3) 0.3723(3)
H15A H 0.9449 0.4963 0.2853
C16A C 1.5861(3) 1.2934(3) -0.0356(3)
H16A H 1.6843 1.2942 -0.0052
C17A C 1.5255(4) 1.3492(4) -0.1310(4)
H17A H 1.5822 1.3872 -0.1667
C18A C 1.3813(4) 1.3483(4) -0.1729(3)
H18A H 1.3387 1.3860 -0.2372
O7 O 0.0480(5) 0.6158(5) -0.0341(5)
H19 H 0.094(3) 0.636(3) 0.059(3)
loop_
_geom_bond_atom_site_label_1
_geom_bond_atom_site_label_2
_geom_bond_site_symmetry_1
_geom_bond_site_symmetry_2
Cu1 O1 1_555 1_555
O1 P1 1_555 1_555
N1 Cu1 1_555 1_555
O2 Cu1 1_555 1_555
N2 Cu1 1_555 1_555
C1 N2 1_555 1_555
C2 N1 1_555 1_555
P1 O3 1_555 1_555
P2 O2 1_555 1_555
O3 H1 1_555 1_555
O4 P1 1_555 1_555
O5 P2 1_555 1_555
O6 P2 1_555 1_555
H2 O6 1_555 1_555
C3 H3 1_555 1_555
C4 C3 1_555 1_555
C5 N2 1_555 1_555
H4 C5 1_555 1_555
C6 N1 1_555 1_555
H5 C6 1_555 1_555
C7 P1 1_555 1_555
H6 C7 1_555 1_555
H7 C7 1_555 1_555
C8 C2 1_555 1_555
H8 C8 1_555 1_555
C9 C8 1_555 1_555
H9 C9 1_555 1_555
C10 C6 1_555 1_555
H10 C10 1_555 1_555
C11 P2 1_555 1_555
H11 C11 1_555 1_555
H12 C11 1_555 1_555
C12 C4 1_555 1_555
H13 C12 1_555 1_555
C13 C11 1_555 1_555
C14 C13 1_555 1_555
H14 C14 1_555 1_555
C15 C13 1_555 1_555
H15 C15 1_555 1_555
C16 C1 1_555 1_555
H16 C16 1_555 1_555
C17 C16 1_555 1_555
H17 C17 1_555 1_555
C18 C5 1_555 1_555
H18 C18 1_555 1_555
O7 H19 1_555 1_555
Cu1A O1A 1_555 1_555
Cu1A_2 O4 1_555 1_555
Cu1_2 O4A 1_555 1_555
Cu1A_3 O2A 1_555 1_555
O1A P1A 1_555 1_555
N1A Cu1A 1_555 1_555
O2A P2A 1_555 1_555
O2A_2 Cu1A 1_555 1_555
N2A Cu1A 1_555 1_555
C1A N2A 1_555 1_555
C2A N1A 1_555 1_555
P1A O3A 1_555 1_555
P2A O5A 1_555 1_555
O3A H1A 1_555 1_555
O4A P1A 1_555 1_555
O4A_2 Cu1 1_555 1_555
O4_2 Cu1A 1_555 1_555
O6A P2A 1_555 1_555
H2A O6A 1_555 1_555
C3A C12 1_555 1_555
H3A C3A 1_555 1_555
C4A C3A 1_555 1_555
C5A N2A 1_555 1_555
H4A C5A 1_555 1_555
C6A N1A 1_555 1_555
H5A C6A 1_555 1_555
C7A P1A 1_555 1_555
H6A C7A 1_555 1_555
H7A C7A 1_555 1_555
C8A C2A 1_555 1_555
H8A C8A 1_555 1_555
C9A C8A 1_555 1_555
H9A C9A 1_555 1_555
C10A C6A 1_555 1_555
H10A C10A 1_555 1_555
C11A P2A 1_555 1_555
H11A C11A 1_555 1_555
H12A C11A 1_555 1_555
C12A C3 1_555 1_555
H13A C12A 1_555 1_555
C13A C11A 1_555 1_555
C14A C15 1_555 1_555
H14A C14A 1_555 1_555
C15A C14 1_555 1_555
H15A C15A 1_555 1_555
C16A C1A 1_555 1_555
H16A C16A 1_555 1_555
C17A C16A 1_555 1_555
H17A C17A 1_555 1_555
C18A C5A 1_555 1_555
H18A C18A 1_555 1_555
C1 C2 1_555 1_555
C4 C7 1_555 1_555
C9 C10 1_555 1_555
C17 C18 1_555 1_555
C1A C2A 1_555 1_555
C4A C7A 1_555 1_555
C4A C12A 1_555 1_555
C9A C10A 1_555 1_555
C13A C14A 1_555 1_555
C13A C15A 1_555 1_555
C17A C18A 1_555 1_555

#END
