
#######################################################################
#
#                 Cambridge Crystallographic Data Centre
#                                CCDC 
#
#######################################################################
#
# If this CIF has been generated from an entry in the Cambridge 
# Structural Database, then it will include bibliographic, chemical, 
# crystal, experimental, refinement or atomic coordinate data resulting 
# from the CCDC's data processing and validation procedures.
#
#######################################################################

data_PEJXEJ
_symmetry_cell_setting           triclinic
_symmetry_space_group_name_H-M   'P -1'
_symmetry_Int_Tables_number      2
_space_group_name_Hall           '-P 1'
loop_
_symmetry_equiv_pos_site_id
_symmetry_equiv_pos_as_xyz
1 x,y,z
2 -x,-y,-z
_cell_length_a                   11.130(6)
_cell_length_b                   12.406(7)
_cell_length_c                   13.926(7)
_cell_angle_alpha                71.952(8)
_cell_angle_beta                 72.257(8)
_cell_angle_gamma                64.876(7)
_cell_volume                     1621.45
loop_
_atom_site_label
_atom_site_type_symbol
_atom_site_fract_x
_atom_site_fract_y
_atom_site_fract_z
H1 H 0.275(7) 0.653(6) 0.210(5)
O13 O 0.3437(5) 0.6197(3) 0.1577(5)
H26 H 0.37(2) 0.649(18) 0.082(14)
Mo1 Mo -0.06024(3) 0.85954(2) 0.22973(2)
Mo2 Mo 0.08210(3) 0.85765(2) -0.00891(2)
Cu1 Cu 0.06275(4) 0.80391(4) 0.46159(3)
Cu2 Cu 0.03998(4) 1.21013(4) 0.21860(3)
P1 P 0.21349(8) 0.92283(7) 0.24921(7)
P2 P -0.14651(9) 1.06218(7) 0.37154(7)
O1 O 0.0535(3) 0.7614(2) 0.12693(18)
O2 O -0.0724(2) 0.9809(2) 0.08088(18)
O3 O 0.2543(3) 0.7832(2) -0.0377(2)
O4 O 0.1867(2) 1.0585(2) 0.2370(2)
O5 O -0.0893(2) 1.1626(2) 0.3334(2)
O6 O 0.2012(2) 0.8555(2) 0.36255(19)
O7 O -0.0840(2) 0.9593(2) 0.45426(19)
O8 O -0.0046(3) 0.7578(2) 0.33746(18)
O9 O 0.1276(2) 0.9040(2) 0.19293(19)
O10 O -0.1454(2) 1.0139(2) 0.27996(18)
O11 O 0.0142(3) 0.8112(2) -0.0758(2)
O12 O -0.2074(3) 0.8422(2) 0.2397(2)
N1 N 0.1668(3) 1.2976(2) 0.1310(2)
N2 N -0.0925(3) 1.3847(3) 0.2005(2)
N3 N 0.1928(3) 0.6278(3) 0.4870(2)
N4 N -0.0605(3) 0.7254(3) 0.5690(2)
C1 C 0.3243(4) 1.4359(4) 0.0257(3)
H2 H 0.3778 1.4822 -0.0100
C2 C 0.3827(4) 1.3105(4) 0.0482(3)
H3 H 0.4755 1.2711 0.0281
C3 C 0.2996(4) 1.2449(3) 0.1013(3)
H4 H 0.3384 1.1604 0.1167
C4 C 0.1872(4) 1.4920(3) 0.0562(3)
H5 H 0.1467 1.5765 0.0413
C5 C 0.1096(4) 1.4208(3) 0.1097(3)
C6 C -0.0371(4) 1.4700(3) 0.1481(3)
C7 C -0.1168(4) 1.5933(3) 0.1351(3)
H6 H -0.0775 1.6513 0.1005
C8 C -0.2534(4) 1.6288(4) 0.1735(3)
H7 H -0.3076 1.7110 0.1661
C9 C -0.3098(4) 1.5410(4) 0.2234(3)
H8 H -0.4028 1.5630 0.2479
C10 C -0.2256(4) 1.4202(3) 0.2363(3)
H9 H -0.2634 1.3612 0.2713
C11 C 0.3227(4) 0.5856(4) 0.4396(3)
H10 H 0.3618 0.6410 0.3959
C12 C 0.4006(5) 0.4635(4) 0.4531(4)
H11 H 0.4906 0.4372 0.4190
C13 C 0.3440(5) 0.3807(4) 0.5175(4)
H12 H 0.3955 0.2978 0.5281
C14 C 0.2096(4) 0.4226(3) 0.5662(3)
H13 H 0.1689 0.3684 0.6100
C15 C 0.1362(4) 0.5475(3) 0.5485(3)
C16 C -0.0083(4) 0.6024(3) 0.5932(3)
C17 C -0.0893(4) 0.5361(4) 0.6547(3)
H14 H -0.0524 0.4515 0.6714
C18 C -0.2244(5) 0.5974(4) 0.6905(3)
H15 H -0.2802 0.5545 0.7307
C19 C -0.2760(4) 0.7222(4) 0.6661(3)
H16 H -0.3668 0.7652 0.6901
C20 C -0.1905(4) 0.7836(3) 0.6052(3)
H17 H -0.2255 0.8683 0.5891
C21 C 0.3910(3) 0.8577(3) 0.1925(3)
H18 H 0.4432 0.8418 0.2431
H19 H 0.4074 0.7797 0.1793
C22 C 0.4460(3) 0.9325(3) 0.0925(3)
C23 C 0.3894(4) 0.9740(3) 0.0055(3)
H20 H 0.3141 0.9576 0.0084
C24 C 0.5574(4) 0.9606(3) 0.0858(3)
H21 H 0.5966 0.9353 0.1430
C25 C -0.3226(3) 1.1396(3) 0.4242(3)
H22 H -0.3266 1.1721 0.4806
H23 H -0.3604 1.2083 0.3714
C26 C -0.4126(3) 1.0658(3) 0.4634(3)
C27 C -0.4728(4) 1.0440(3) 0.5677(3)
H24 H -0.4551 1.0732 0.6139
C28 C -0.4409(3) 1.0209(3) 0.3967(3)
H25 H -0.4015 1.0344 0.3270
Mo1A Mo 1.06024(3) 1.14046(2) -0.22973(2)
Mo1A_2 Mo -0.93976(3) 1.14046(2) 0.77027(2)
Mo1A_3 Mo 0.06024(3) 1.14046(2) -0.22973(2)
Mo2A Mo -0.08210(3) 1.14235(2) 0.00891(2)
Mo2A_2 Mo 0.91790(3) 1.14235(2) 0.00891(2)
Cu1A Cu 0.93725(4) 1.19609(4) -0.46159(3)
Cu1A_2 Cu -1.06275(4) 1.19609(4) 0.53841(3)
Cu2A Cu 0.96002(4) 0.78987(4) -0.21860(3)
Cu2A_2 Cu -0.03998(4) 0.78987(4) -0.21860(3)
Cu2A_3 Cu -1.03998(4) 0.78987(4) 0.78140(3)
P1A P 0.78651(8) 1.07717(7) -0.24921(7)
P2A P -0.85349(9) 0.93782(7) 0.62846(7)
O1A O 0.9465(3) 1.2386(2) -0.12693(18)
O1A_2 O -0.0535(3) 1.2386(2) -0.12693(18)
O2A O 0.0724(2) 1.0191(2) -0.08088(18)
O2A_2 O 1.0724(2) 1.0191(2) -0.08088(18)
O3A O -0.2543(3) 1.2168(2) 0.0377(2)
O4A O 0.8133(2) 0.9415(2) -0.2370(2)
O5A O -0.9107(2) 0.8374(2) 0.6666(2)
O5A_2 O 1.0893(2) 0.8374(2) -0.3334(2)
O6A O 0.7988(2) 1.1445(2) -0.36255(19)
O7A O -0.9160(2) 1.0407(2) 0.54574(19)
O7A_2 O 1.0840(2) 1.0407(2) -0.45426(19)
O8A O 1.0046(3) 1.2422(2) -0.33746(18)
O9A O 0.8724(2) 1.0960(2) -0.19293(19)
O10A O -0.8546(2) 0.9861(2) 0.72004(18)
O10A_2 O 1.1454(2) 0.9861(2) -0.27996(18)
O11A O -0.0142(3) 1.1888(2) 0.0758(2)
O11_2 O 1.0142(3) 0.8112(2) -0.0758(2)
O12A O 1.2074(3) 1.1578(2) -0.2397(2)
N1A N 0.8332(3) 0.7024(2) -0.1310(2)
N2A N 1.0925(3) 0.6153(3) -0.2005(2)
N3A N 0.8072(3) 1.3722(3) -0.4870(2)
N4A N 1.0605(3) 1.2746(3) -0.5690(2)
C1A C 0.6757(4) 0.5641(4) -0.0257(3)
H2A H 0.6222 0.5178 0.0100
C2A C 0.6173(4) 0.6895(4) -0.0482(3)
H3A H 0.5245 0.7289 -0.0281
C3A C 0.7004(4) 0.7551(3) -0.1013(3)
H4A H 0.6616 0.8396 -0.1167
C4A C 0.8128(4) 0.5080(3) -0.0562(3)
H5A H 0.8533 0.4235 -0.0413
C5A C 0.8904(4) 0.5792(3) -0.1097(3)
C6A C 1.0371(4) 0.5300(3) -0.1481(3)
C7A C 1.1168(4) 0.4067(3) -0.1351(3)
H6A H 1.0775 0.3487 -0.1005
C8A C 1.2534(4) 0.3712(4) -0.1735(3)
H7A H 1.3076 0.2890 -0.1661
C9A C 1.3098(4) 0.4590(4) -0.2234(3)
H8A H 1.4028 0.4370 -0.2479
C10A C 1.2256(4) 0.5798(3) -0.2363(3)
H9A H 1.2634 0.6388 -0.2713
C11A C 0.6773(4) 1.4144(4) -0.4396(3)
H10A H 0.6382 1.3590 -0.3959
C12A C 0.5994(5) 1.5365(4) -0.4531(4)
H11A H 0.5094 1.5628 -0.4190
C13A C 0.6560(5) 1.6193(4) -0.5175(4)
H12A H 0.6045 1.7022 -0.5281
C14A C 0.7904(4) 1.5774(3) -0.5662(3)
H13A H 0.8311 1.6316 -0.6100
C15A C 0.8638(4) 1.4525(3) -0.5485(3)
C16A C 1.0083(4) 1.3976(3) -0.5932(3)
C17A C 1.0893(4) 1.4639(4) -0.6547(3)
H14A H 1.0524 1.5485 -0.6714
C18A C 1.2244(5) 1.4026(4) -0.6905(3)
H15A H 1.2802 1.4455 -0.7307
C19A C 1.2760(4) 1.2778(4) -0.6661(3)
H16A H 1.3668 1.2348 -0.6901
C20A C 1.1905(4) 1.2164(3) -0.6052(3)
H17A H 1.2255 1.1317 -0.5891
C21A C 0.6090(3) 1.1423(3) -0.1925(3)
H18A H 0.5568 1.1582 -0.2431
H19A H 0.5926 1.2203 -0.1793
C22A C 0.5540(3) 1.0675(3) -0.0925(3)
C23A C 0.6106(4) 1.0260(3) -0.0055(3)
H20A H 0.6859 1.0424 -0.0084
C24A C 0.4426(4) 1.0394(3) -0.0858(3)
H21A H 0.4034 1.0647 -0.1430
C25A C -0.6774(3) 0.8604(3) 0.5758(3)
H22A H -0.6734 0.8279 0.5194
H23A H -0.6396 0.7917 0.6286
C26A C -0.5874(3) 0.9342(3) 0.5366(3)
C27A C -0.5272(4) 0.9560(3) 0.4323(3)
H24A H -0.5449 0.9268 0.3861
C28A C -0.5591(3) 0.9791(3) 0.6033(3)
H25A H -0.5985 0.9656 0.6730
O14 O 0.5519(6) 0.3468(6) 0.2022(5)
loop_
_geom_bond_atom_site_label_1
_geom_bond_atom_site_label_2
_geom_bond_site_symmetry_1
_geom_bond_site_symmetry_2
H1 O13 1_555 1_555
Mo1 O1 1_555 1_555
Mo2 O1 1_555 1_555
Cu1 O6 1_555 1_555
Cu2 O4 1_555 1_555
P1 O4 1_555 1_555
P2 O5 1_555 1_555
O2 Mo1 1_555 1_555
O3 Mo2 1_555 1_555
O5 Cu2 1_555 1_555
O6 P1 1_555 1_555
O7 Cu1 1_555 1_555
O8 Mo1 1_555 1_555
O9 Mo1 1_555 1_555
O10 Mo1 1_555 1_555
O11 Mo2 1_555 1_555
O12 Mo1 1_555 1_555
N1 Cu2 1_555 1_555
N2 Cu2 1_555 1_555
N3 Cu1 1_555 1_555
N4 Cu1 1_555 1_555
C1 H2 1_555 1_555
C2 C1 1_555 1_555
H3 C2 1_555 1_555
C3 N1 1_555 1_555
H4 C3 1_555 1_555
C4 C1 1_555 1_555
H5 C4 1_555 1_555
C5 N1 1_555 1_555
C6 N2 1_555 1_555
C7 C6 1_555 1_555
H6 C7 1_555 1_555
C8 C7 1_555 1_555
H7 C8 1_555 1_555
C9 C8 1_555 1_555
H8 C9 1_555 1_555
C10 N2 1_555 1_555
H9 C10 1_555 1_555
C11 N3 1_555 1_555
H10 C11 1_555 1_555
C12 C11 1_555 1_555
H11 C12 1_555 1_555
C13 C12 1_555 1_555
H12 C13 1_555 1_555
C14 C13 1_555 1_555
H13 C14 1_555 1_555
C15 N3 1_555 1_555
C16 N4 1_555 1_555
C17 C16 1_555 1_555
H14 C17 1_555 1_555
C18 C17 1_555 1_555
H15 C18 1_555 1_555
C19 C18 1_555 1_555
H16 C19 1_555 1_555
C20 N4 1_555 1_555
H17 C20 1_555 1_555
C21 P1 1_555 1_555
H18 C21 1_555 1_555
H19 C21 1_555 1_555
C22 C21 1_555 1_555
C23 C22 1_555 1_555
H20 C23 1_555 1_555
C24 C22 1_555 1_555
H21 C24 1_555 1_555
C25 P2 1_555 1_555
H22 C25 1_555 1_555
H23 C25 1_555 1_555
C26 C25 1_555 1_555
C27 C26 1_555 1_555
H24 C27 1_555 1_555
C28 C26 1_555 1_555
H25 C28 1_555 1_555
O13 H26 1_555 1_555
Mo1A O1A 1_555 1_555
Mo1A_2 O10A 1_555 1_555
Mo1A_3 O1A_2 1_555 1_555
Mo2A O2 1_555 1_555
Mo2A_2 O1A 1_555 1_555
Cu1A O6A 1_555 1_555
Cu1A_2 O7A 1_555 1_555
Cu2A O4A 1_555 1_555
Cu2A_2 O11 1_555 1_555
Cu2A_3 O5A 1_555 1_555
P1A O4A 1_555 1_555
P2A O5A 1_555 1_555
O1A_2 Mo2A 1_555 1_555
O2A Mo2 1_555 1_555
O2A_2 Mo1A 1_555 1_555
O3A Mo2A 1_555 1_555
O5A_2 Cu2A 1_555 1_555
O6A P1A 1_555 1_555
O7A P2A 1_555 1_555
O7A_2 Cu1A 1_555 1_555
O8A Mo1A 1_555 1_555
O9A Mo1A 1_555 1_555
O10A P2A 1_555 1_555
O10A_2 Mo1A 1_555 1_555
O11A Cu2 1_555 1_555
O11_2 Cu2A 1_555 1_555
O12A Mo1A 1_555 1_555
N1A Cu2A 1_555 1_555
N2A Cu2A 1_555 1_555
N3A Cu1A 1_555 1_555
N4A Cu1A 1_555 1_555
C1A H2A 1_555 1_555
C2A C1A 1_555 1_555
H3A C2A 1_555 1_555
C3A N1A 1_555 1_555
H4A C3A 1_555 1_555
C4A C1A 1_555 1_555
H5A C4A 1_555 1_555
C5A N1A 1_555 1_555
C6A N2A 1_555 1_555
C7A C6A 1_555 1_555
H6A C7A 1_555 1_555
C8A C7A 1_555 1_555
H7A C8A 1_555 1_555
C9A C8A 1_555 1_555
H8A C9A 1_555 1_555
C10A N2A 1_555 1_555
H9A C10A 1_555 1_555
C11A N3A 1_555 1_555
H10A C11A 1_555 1_555
C12A C11A 1_555 1_555
H11A C12A 1_555 1_555
C13A C12A 1_555 1_555
H12A C13A 1_555 1_555
C14A C13A 1_555 1_555
H13A C14A 1_555 1_555
C15A N3A 1_555 1_555
C16A N4A 1_555 1_555
C17A C16A 1_555 1_555
H14A C17A 1_555 1_555
C18A C17A 1_555 1_555
H15A C18A 1_555 1_555
C19A C18A 1_555 1_555
H16A C19A 1_555 1_555
C20A N4A 1_555 1_555
H17A C20A 1_555 1_555
C21A P1A 1_555 1_555
H18A C21A 1_555 1_555
H19A C21A 1_555 1_555
C22A C21A 1_555 1_555
C23A C24 1_555 1_555
H20A C23A 1_555 1_555
C24A C23 1_555 1_555
H21A C24A 1_555 1_555
C25A P2A 1_555 1_555
H22A C25A 1_555 1_555
H23A C25A 1_555 1_555
C26A C25A 1_555 1_555
C27A C28 1_555 1_555
H24A C27A 1_555 1_555
C28A C27 1_555 1_555
H25A C28A 1_555 1_555
Mo2 O2 1_555 1_555
Cu1 O8 1_555 1_555
P1 O9 1_555 1_555
P2 O7 1_555 1_555
P2 O10 1_555 1_555
C2 C3 1_555 1_555
C4 C5 1_555 1_555
C5 C6 1_555 1_555
C9 C10 1_555 1_555
C14 C15 1_555 1_555
C15 C16 1_555 1_555
C19 C20 1_555 1_555
Mo1A_3 O2A 1_555 1_555
Mo2A O2A 1_555 1_555
Mo2A O11A 1_555 1_555
Mo2A_2 O2A_2 1_555 1_555
Cu1A O8A 1_555 1_555
P1A O9A 1_555 1_555
C2A C3A 1_555 1_555
C4A C5A 1_555 1_555
C5A C6A 1_555 1_555
C9A C10A 1_555 1_555
C14A C15A 1_555 1_555
C15A C16A 1_555 1_555
C19A C20A 1_555 1_555
C22A C23A 1_555 1_555
C22A C24A 1_555 1_555
C26A C27A 1_555 1_555
C26A C28A 1_555 1_555

#END
