
#######################################################################
#
#                 Cambridge Crystallographic Data Centre
#                                CCDC 
#
#######################################################################
#
# If this CIF has been generated from an entry in the Cambridge 
# Structural Database, then it will include bibliographic, chemical, 
# crystal, experimental, refinement or atomic coordinate data resulting 
# from the CCDC's data processing and validation procedures.
#
#######################################################################

data_PEJXAF
_symmetry_cell_setting           triclinic
_symmetry_space_group_name_H-M   'P -1'
_symmetry_Int_Tables_number      2
_space_group_name_Hall           '-P 1'
loop_
_symmetry_equiv_pos_site_id
_symmetry_equiv_pos_as_xyz
1 x,y,z
2 -x,-y,-z
_cell_length_a                   10.725(4)
_cell_length_b                   10.896(4)
_cell_length_c                   11.456(4)
_cell_angle_alpha                66.984(6)
_cell_angle_beta                 64.714(5)
_cell_angle_gamma                84.486(6)
_cell_volume                     1110.06
loop_
_atom_site_label
_atom_site_type_symbol
_atom_site_fract_x
_atom_site_fract_y
_atom_site_fract_z
Cu1 Cu 0.88344(6) 0.77522(5) 0.56296(5)
P1 P 1.00281(13) 0.92873(11) 0.67779(12)
N1 N 0.7786(4) 0.6997(4) 0.4941(4)
O1 O 1.0106(3) 0.8267(3) 0.6173(3)
N2 N 0.9018(4) 0.5782(4) 0.6587(4)
O2 O 0.7025(3) 0.7938(3) 0.7452(3)
C1 C 0.8425(5) 0.5001(5) 0.6262(5)
C2 C 0.9621(5) 0.5209(5) 0.7418(5)
H1 H 1.0034 0.5743 0.7643
C3 C 0.7194(5) 0.4924(5) 0.4924(5)
O3 O 0.8544(4) 0.9756(4) 0.7287(4)
C4 C 0.9099(6) 0.3039(5) 0.7644(6)
H2 H 0.9123 0.2115 0.8019
C5 C 0.7776(5) 0.5656(4) 0.5354(5)
O4 O 1.1054(3) 1.0500(3) 0.5820(3)
O5 O 0.5339(4) 0.5984(3) 0.8281(4)
O6 O 0.6324(4) 0.6153(4) 0.9847(4)
H3 H 0.5691 0.5608 1.0506
C6 C 0.9673(6) 0.3821(5) 0.7985(6)
H4 H 1.0096 0.3442 0.8590
C7 C 0.6606(6) 0.5643(6) 0.4004(6)
H5 H 0.6222 0.5206 0.3666
C8 C 0.7208(5) 0.7632(5) 0.4098(5)
H6 H 0.7203 0.8557 0.3812
C9 C 0.8478(5) 0.3604(5) 0.6741(5)
C10 C 0.6603(6) 0.6994(6) 0.3610(6)
H7 H 0.6196 0.7487 0.3015
C11 C 0.7883(5) 0.2881(5) 0.6274(6)
H8 H 0.7920 0.1958 0.6570
C12 C 0.7271(6) 0.3503(5) 0.5417(6)
H9 H 0.6888 0.3000 0.5137
C13 C 1.0343(5) 0.8458(5) 0.8314(5)
H10 H 0.9727 0.7644 0.8902
H11 H 1.1283 0.8197 0.8023
P2 P 0.58606(12) 0.69442(12) 0.86553(13)
C14 C 1.0154(5) 0.9257(5) 0.9188(5)
C15 C 0.8868(5) 0.9448(5) 1.0055(5)
H12 H 0.8088 0.9081 1.0108
C16 C 1.1295(5) 0.9818(5) 0.9141(5)
H13 H 1.2181 0.9699 0.8562
C17 C 0.4753(5) 0.8961(5) 0.9671(5)
C18 C 0.4914(5) 1.0279(6) 0.8769(6)
H14 H 0.4866 1.0481 0.7922
C19 C 0.4435(5) 0.7842(5) 0.9347(6)
H15 H 0.4031 0.8216 0.8680
H16 H 0.3737 0.7207 1.0201
C20 C 0.4856(6) 0.8694(5) 1.0914(5)
H17 H 0.4769 0.7813 1.1538
H18 H 0.809(7) 0.924(6) 0.734(7)
Cu1A Cu 1.11656(6) 1.22478(5) 1.43704(5)
Cu1A_2 Cu 1.11656(6) 1.22478(5) 0.43704(5)
Cu1_2 Cu 0.88344(6) 0.77522(5) 1.56296(5)
Cu1A_3 Cu 0.11656(6) 1.22478(5) 1.43704(5)
P1A P 0.99719(13) 1.07127(11) 1.32221(12)
N1A N 1.2214(4) 1.3003(4) 1.5059(4)
O1A O 0.9894(3) 1.1733(3) 1.3827(3)
N2A N 1.0982(4) 1.4218(4) 1.3413(4)
O2A O 0.2975(3) 1.2062(3) 1.2548(3)
O2A_2 O 1.2975(3) 1.2062(3) 1.2548(3)
C1A C 1.1575(5) 1.4999(5) 1.3738(5)
C2A C 1.0379(5) 1.4791(5) 1.2582(5)
H1A H 0.9966 1.4257 1.2357
C3A C 1.2806(5) 1.5076(5) 1.5076(5)
O3A O 1.1456(4) 1.0244(4) 1.2713(4)
C4A C 1.0901(6) 1.6961(5) 1.2356(6)
H2A H 1.0877 1.7885 1.1981
C5A C 1.2224(5) 1.4344(4) 1.4646(5)
O4A O 0.8946(3) 0.9500(3) 1.4180(3)
O4A_2 O 0.8946(3) 0.9500(3) 0.4180(3)
O4_2 O 1.1054(3) 1.0500(3) 1.5820(3)
O5A O 0.4661(4) 1.4016(3) 1.1719(4)
O6A O 0.3676(4) 1.3847(4) 1.0153(4)
H3A H 0.4309 1.4392 0.9494
C6A C 1.0327(6) 1.6179(5) 1.2015(6)
H4A H 0.9904 1.6558 1.1410
C7A C 1.3394(6) 1.4357(6) 1.5996(6)
H5A H 1.3778 1.4794 1.6334
C8A C 1.2792(5) 1.2368(5) 1.5902(5)
H6A H 1.2797 1.1443 1.6188
C9A C 1.1522(5) 1.6396(5) 1.3259(5)
C10A C 1.3397(6) 1.3006(6) 1.6390(6)
H7A H 1.3804 1.2513 1.6985
C11A C 1.2117(5) 1.7119(5) 1.3726(6)
H8A H 1.2080 1.8042 1.3430
C12A C 1.2729(6) 1.6497(5) 1.4583(6)
H9A H 1.3112 1.7000 1.4863
C13A C 0.9657(5) 1.1542(5) 1.1686(5)
H10A H 1.0273 1.2356 1.1098
H11A H 0.8717 1.1803 1.1977
P2A P 0.41394(12) 1.30558(12) 1.13447(13)
C14A C 0.9846(5) 1.0743(5) 1.0812(5)
C15A C 1.1132(5) 1.0552(5) 0.9945(5)
H12A H 1.1912 1.0919 0.9892
C16A C 0.8705(5) 1.0182(5) 1.0859(5)
H13A H 0.7819 1.0301 1.1438
C17A C 0.5247(5) 1.1039(5) 1.0329(5)
C18A C 0.5086(5) 0.9721(6) 1.1231(6)
H14A H 0.5134 0.9519 1.2078
C19A C 0.5565(5) 1.2158(5) 1.0653(6)
H15A H 0.5969 1.1784 1.1320
H16A H 0.6263 1.2793 0.9799
C20A C 0.5144(6) 1.1306(5) 0.9086(5)
H17A H 0.5231 1.2187 0.8462
H18A H 1.191(7) 1.076(6) 1.266(7)
O7 O 0.1451(8) 0.4946(8) 0.9250(7)
H19 H 0.177(8) 0.457(8) 0.960(8)
H20 H 0.080(11) 0.523(15) 0.946(15)
O8 O 0.3546(5) 0.6856(5) 0.7035(5)
O9 O 0.4026(8) 0.9359(7) 0.4852(8)
H21 H 0.389(5) 0.936(5) 0.558(5)
H22 H 0.310(12) 0.947(11) 0.501(13)
loop_
_geom_bond_atom_site_label_1
_geom_bond_atom_site_label_2
_geom_bond_site_symmetry_1
_geom_bond_site_symmetry_2
Cu1 N1 1_555 1_555
P1 O1 1_555 1_555
N1 C5 1_555 1_555
O1 Cu1 1_555 1_555
N2 Cu1 1_555 1_555
O2 Cu1 1_555 1_555
C1 N2 1_555 1_555
C2 N2 1_555 1_555
H1 C2 1_555 1_555
C3 C5 1_555 1_555
O3 P1 1_555 1_555
C4 H2 1_555 1_555
C5 C1 1_555 1_555
O4 P1 1_555 1_555
O5 P2 1_555 1_555
O6 H3 1_555 1_555
C6 C2 1_555 1_555
H4 C6 1_555 1_555
C7 C3 1_555 1_555
H5 C7 1_555 1_555
C8 N1 1_555 1_555
H6 C8 1_555 1_555
C9 C1 1_555 1_555
C10 C7 1_555 1_555
H7 C10 1_555 1_555
C11 C9 1_555 1_555
H8 C11 1_555 1_555
C12 C3 1_555 1_555
H9 C12 1_555 1_555
C13 P1 1_555 1_555
H10 C13 1_555 1_555
H11 C13 1_555 1_555
P2 O2 1_555 1_555
C14 C13 1_555 1_555
C15 C14 1_555 1_555
H12 C15 1_555 1_555
C16 C14 1_555 1_555
H13 C16 1_555 1_555
C17 C18 1_555 1_555
C18 H14 1_555 1_555
C19 P2 1_555 1_555
H15 C19 1_555 1_555
H16 C19 1_555 1_555
C20 C17 1_555 1_555
H17 C20 1_555 1_555
H18 O3 1_555 1_555
O7 H19 1_555 1_555
H20 O7 1_555 1_555
O9 H21 1_555 1_555
H22 O9 1_555 1_555
Cu1A N1A 1_555 1_555
Cu1A_2 O4 1_555 1_555
Cu1_2 O4A 1_555 1_555
Cu1A_3 O2A 1_555 1_555
P1A O1A 1_555 1_555
N1A C5A 1_555 1_555
O1A Cu1A 1_555 1_555
N2A Cu1A 1_555 1_555
O2A P2A 1_555 1_555
O2A_2 Cu1A 1_555 1_555
C1A N2A 1_555 1_555
C2A N2A 1_555 1_555
H1A C2A 1_555 1_555
C3A C5A 1_555 1_555
O3A P1A 1_555 1_555
C4A H2A 1_555 1_555
C5A C1A 1_555 1_555
O4A P1A 1_555 1_555
O4A_2 Cu1 1_555 1_555
O4_2 Cu1A 1_555 1_555
O5A P2A 1_555 1_555
O6A H3A 1_555 1_555
C6A C2A 1_555 1_555
H4A C6A 1_555 1_555
C7A C3A 1_555 1_555
H5A C7A 1_555 1_555
C8A N1A 1_555 1_555
H6A C8A 1_555 1_555
C9A C1A 1_555 1_555
C10A C7A 1_555 1_555
H7A C10A 1_555 1_555
C11A C9A 1_555 1_555
H8A C11A 1_555 1_555
C12A C3A 1_555 1_555
H9A C12A 1_555 1_555
C13A P1A 1_555 1_555
H10A C13A 1_555 1_555
H11A C13A 1_555 1_555
P2A O6A 1_555 1_555
C14A C13A 1_555 1_555
C15A C16 1_555 1_555
H12A C15A 1_555 1_555
C16A C15 1_555 1_555
H13A C16A 1_555 1_555
C17A C18A 1_555 1_555
C18A C20 1_555 1_555
H14A C18A 1_555 1_555
C19A P2A 1_555 1_555
H15A C19A 1_555 1_555
H16A C19A 1_555 1_555
C20A C18 1_555 1_555
H17A C20A 1_555 1_555
H18A O3A 1_555 1_555
C4 C6 1_555 1_555
C4 C9 1_555 1_555
O6 P2 1_555 1_555
C8 C10 1_555 1_555
C11 C12 1_555 1_555
C17 C19 1_555 1_555
C4A C6A 1_555 1_555
C4A C9A 1_555 1_555
C8A C10A 1_555 1_555
C11A C12A 1_555 1_555
C14A C15A 1_555 1_555
C14A C16A 1_555 1_555
C17A C19A 1_555 1_555
C17A C20A 1_555 1_555

#END
