
#######################################################################
#
#                 Cambridge Crystallographic Data Centre
#                                CCDC 
#
#######################################################################
#
# If this CIF has been generated from an entry in the Cambridge 
# Structural Database, then it will include bibliographic, chemical, 
# crystal, experimental, refinement or atomic coordinate data resulting 
# from the CCDC's data processing and validation procedures.
#
#######################################################################

data_PEJXAF01
_symmetry_cell_setting           triclinic
_symmetry_space_group_name_H-M   'P -1'
_symmetry_Int_Tables_number      2
_space_group_name_Hall           '-P 1'
loop_
_symmetry_equiv_pos_site_id
_symmetry_equiv_pos_as_xyz
1 x,y,z
2 -x,-y,-z
_cell_length_a                   10.6221(8)
_cell_length_b                   10.9369(9)
_cell_length_c                   11.4714(9)
_cell_angle_alpha                66.8400(10)
_cell_angle_beta                 64.8830(10)
_cell_angle_gamma                84.0880(10)
_cell_volume                     1106.13
loop_
_atom_site_label
_atom_site_type_symbol
_atom_site_fract_x
_atom_site_fract_y
_atom_site_fract_z
Cu1 Cu 0.38315(3) 0.77445(3) 0.06355(3)
P1 P 0.50887(6) 0.92818(6) 0.17517(6)
P2 P 0.08659(6) 0.69430(6) 0.36548(6)
O1 O 0.61227(17) 1.04871(15) 0.07810(16)
O2 O 0.20500(17) 0.79323(16) 0.24693(17)
O3 O 0.51542(16) 0.82514(15) 0.11574(16)
O4 O 0.35784(17) 0.97595(16) 0.22776(17)
H1 H 0.3016 0.9196 0.2427
O5 O 0.13246(18) 0.61556(17) 0.48826(18)
H2 H 0.0769 0.5508 0.5455
O6 O 0.03563(17) 0.59626(16) 0.32871(17)
N1 N 0.4029(2) 0.57773(19) 0.1595(2)
N2 N 0.2775(2) 0.69909(19) -0.0060(2)
C1 C 0.4653(2) 0.5205(2) 0.2439(2)
H3 H 0.5062 0.5740 0.2664
C2 C 0.4717(3) 0.3818(2) 0.3006(3)
H4 H 0.5143 0.3445 0.3615
C3 C 0.4151(3) 0.3014(2) 0.2660(3)
H5 H 0.4199 0.2094 0.3023
C4 C 0.3492(2) 0.3594(2) 0.1748(2)
C5 C 0.2906(3) 0.2865(2) 0.1272(3)
H6 H 0.2952 0.1945 0.1569
C6 C 0.2285(3) 0.3493(2) 0.0397(3)
H7 H 0.1913 0.2996 0.0104
C7 C 0.2191(2) 0.4909(2) -0.0083(2)
C8 C 0.1588(3) 0.5640(2) -0.1015(3)
H8 H 0.1208 0.5207 -0.1359
C9 C 0.1567(3) 0.6993(2) -0.1404(3)
H9 H 0.1155 0.7483 -0.2002
C10 C 0.2166(2) 0.7641(2) -0.0904(3)
H10 H 0.2135 0.8560 -0.1173
C11 C 0.2772(2) 0.5643(2) 0.0359(2)
C12 C 0.3442(2) 0.4983(2) 0.1268(2)
C13 C 0.5425(3) 0.8456(2) 0.3290(2)
H11 H 0.4826 0.7636 0.3874
H12 H 0.6382 0.8213 0.2999
C14 C 0.5204(2) 0.9260(2) 0.4169(2)
C15 C 0.6326(3) 0.9856(2) 0.4126(2)
H13 H 0.7228 0.9761 0.3543
C16 C 0.6132(3) 1.0592(2) 0.4937(2)
H14 H 0.6901 1.0988 0.4879
C17 C -0.0584(2) 0.7858(2) 0.4332(3)
H15 H -0.0981 0.8242 0.3655
H16 H -0.1294 0.7230 0.5176
C18 C -0.0261(2) 0.8965(2) 0.4667(3)
C19 C -0.0055(3) 1.0285(3) 0.3739(3)
H17 H -0.0081 1.0491 0.2882
C20 C 0.0188(3) 1.1306(3) 0.4071(3)
H18 H 0.0304 1.2185 0.3439
P1A P 0.49113(6) 1.07182(6) 0.82483(6)
O3A O 0.48458(16) 1.17486(15) 0.88426(16)
O4A O 0.64216(17) 1.02405(16) 0.77224(17)
H1A H 0.6984 1.0804 0.7573
C13A C 0.4575(3) 1.1544(2) 0.6710(2)
H11A H 0.5174 1.2364 0.6126
H12A H 0.3618 1.1787 0.7001
C14A C 0.4796(2) 1.0740(2) 0.5831(2)
C15A C 0.3674(3) 1.0144(2) 0.5874(2)
H13A H 0.2772 1.0239 0.6457
C16A C 0.3868(3) 0.9408(2) 0.5063(2)
H14A H 0.3099 0.9012 0.5121
O1A O 0.38773(17) 0.95129(15) 0.92190(16)
P2A P -0.08659(6) 1.30570(6) 0.63452(6)
O2A O -0.20500(17) 1.20677(16) 0.75307(17)
O5A O -0.13246(18) 1.38444(17) 0.51174(18)
H2A H -0.0769 1.4492 0.4545
O6A O -0.03563(17) 1.40374(16) 0.67129(17)
C17A C 0.0584(2) 1.2142(2) 0.5668(3)
H15A H 0.0981 1.1758 0.6345
H16A H 0.1294 1.2770 0.4824
C18A C 0.0261(2) 1.1035(2) 0.5333(3)
C19A C 0.0055(3) 0.9715(3) 0.6261(3)
H17A H 0.0081 0.9509 0.7118
C20A C -0.0188(3) 0.8694(3) 0.5929(3)
H18A H -0.0304 0.7815 0.6561
Cu1A Cu -0.38315(3) 1.22555(3) 0.93645(3)
N1A N -0.4029(2) 1.42227(19) 0.8405(2)
N2A N -0.2775(2) 1.30091(19) 1.0060(2)
C1A C -0.4653(2) 1.4795(2) 0.7561(2)
H3A H -0.5062 1.4260 0.7336
C2A C -0.4717(3) 1.6182(2) 0.6994(3)
H4A H -0.5143 1.6555 0.6385
C3A C -0.4151(3) 1.6986(2) 0.7340(3)
H5A H -0.4199 1.7906 0.6977
C4A C -0.3492(2) 1.6406(2) 0.8252(2)
C5A C -0.2906(3) 1.7135(2) 0.8728(3)
H6A H -0.2952 1.8055 0.8431
C6A C -0.2285(3) 1.6507(2) 0.9603(3)
H7A H -0.1913 1.7004 0.9896
C7A C -0.2191(2) 1.5091(2) 1.0083(2)
C8A C -0.1588(3) 1.4360(2) 1.1015(3)
H8A H -0.1208 1.4793 1.1359
C9A C -0.1567(3) 1.3007(2) 1.1404(3)
H9A H -0.1155 1.2517 1.2002
C10A C -0.2166(2) 1.2359(2) 1.0904(3)
H10A H -0.2135 1.1440 1.1173
C11A C -0.2772(2) 1.4357(2) 0.9641(2)
C12A C -0.3442(2) 1.5017(2) 0.8732(2)
Cu1_2 Cu 0.38315(3) 0.77445(3) 1.06355(3)
Cu1A_2 Cu 0.61685(3) 1.22555(3) -0.06355(3)
Cu1A_3 Cu 0.61685(3) 1.22555(3) 0.93645(3)
O1_2 O -0.38773(17) 1.04871(15) 1.07810(16)
O1A_2 O 0.38773(17) 0.95129(15) -0.07810(16)
O3A_2 O -0.51542(16) 1.17486(15) 0.88426(16)
O7 O 0.3546(2) 0.5076(2) 0.5754(2)
H19 H 0.308(3) 0.552(3) 0.535(3)
H20 H 0.426(2) 0.485(3) 0.535(3)
O8 O 0.8557(2) 0.6840(2) 0.2022(2)
H21 H 0.919(3) 0.672(3) 0.230(3)
H22 H 0.789(2) 0.634(3) 0.261(3)
O9 O 0.0990(2) 0.0669(2) 1.0093(2)
H23 H 0.057(3) 0.005(2) 1.023(4)
H24 H 0.130(3) 0.126(3) 0.934(2)
loop_
_geom_bond_atom_site_label_1
_geom_bond_atom_site_label_2
_geom_bond_site_symmetry_1
_geom_bond_site_symmetry_2
Cu1 O2 1_555 1_555
P1 O1 1_555 1_555
P2 O2 1_555 1_555
O1 Cu1A_2 1_555 1_555
O3 Cu1 1_555 1_555
O4 P1 1_555 1_555
H1 O4 1_555 1_555
O5 P2 1_555 1_555
H2 O5 1_555 1_555
O6 P2 1_555 1_555
N1 Cu1 1_555 1_555
N2 Cu1 1_555 1_555
C1 N1 1_555 1_555
H3 C1 1_555 1_555
C2 C1 1_555 1_555
H4 C2 1_555 1_555
C3 C2 1_555 1_555
H5 C3 1_555 1_555
C4 C3 1_555 1_555
C5 C4 1_555 1_555
H6 C5 1_555 1_555
C6 C5 1_555 1_555
H7 C6 1_555 1_555
C7 C6 1_555 1_555
C8 C7 1_555 1_555
H8 C8 1_555 1_555
C9 C8 1_555 1_555
H9 C9 1_555 1_555
C10 N2 1_555 1_555
H10 C10 1_555 1_555
C11 N2 1_555 1_555
C12 N1 1_555 1_555
C13 P1 1_555 1_555
H11 C13 1_555 1_555
H12 C13 1_555 1_555
C14 C13 1_555 1_555
C15 C14 1_555 1_555
H13 C15 1_555 1_555
C16 C15 1_555 1_555
H14 C16 1_555 1_555
C17 P2 1_555 1_555
H15 C17 1_555 1_555
H16 C17 1_555 1_555
C18 C17 1_555 1_555
C19 C18 1_555 1_555
H17 C19 1_555 1_555
C20 C19 1_555 1_555
H18 C20 1_555 1_555
O7 H19 1_555 1_555
H20 O7 1_555 1_555
O8 H21 1_555 1_555
H22 O8 1_555 1_555
O9 H23 1_555 1_555
H24 O9 1_555 1_555
P1A O3A 1_555 1_555
O3A Cu1A_3 1_555 1_555
O4A P1A 1_555 1_555
H1A O4A 1_555 1_555
C13A P1A 1_555 1_555
H11A C13A 1_555 1_555
H12A C13A 1_555 1_555
C14A C16 1_555 1_555
C15A C14A 1_555 1_555
H13A C15A 1_555 1_555
C16A C14 1_555 1_555
H14A C16A 1_555 1_555
O1A P1A 1_555 1_555
P2A O2A 1_555 1_555
O2A Cu1A 1_555 1_555
O5A P2A 1_555 1_555
H2A O5A 1_555 1_555
O6A P2A 1_555 1_555
C17A P2A 1_555 1_555
H15A C17A 1_555 1_555
H16A C17A 1_555 1_555
C18A C20 1_555 1_555
C19A C18A 1_555 1_555
H17A C19A 1_555 1_555
C20A C18 1_555 1_555
H18A C20A 1_555 1_555
Cu1A N1A 1_555 1_555
N1A C1A 1_555 1_555
N2A Cu1A 1_555 1_555
C1A H3A 1_555 1_555
C2A C1A 1_555 1_555
H4A C2A 1_555 1_555
C3A C2A 1_555 1_555
H5A C3A 1_555 1_555
C4A C3A 1_555 1_555
C5A C4A 1_555 1_555
H6A C5A 1_555 1_555
C6A C5A 1_555 1_555
H7A C6A 1_555 1_555
C7A C6A 1_555 1_555
C8A C7A 1_555 1_555
H8A C8A 1_555 1_555
C9A C8A 1_555 1_555
H9A C9A 1_555 1_555
C10A N2A 1_555 1_555
H10A C10A 1_555 1_555
C11A N2A 1_555 1_555
C12A N1A 1_555 1_555
Cu1_2 O1A 1_555 1_555
O1_2 Cu1A 1_555 1_555
O1A_2 Cu1 1_555 1_555
O3A_2 Cu1A 1_555 1_555
P1 O3 1_555 1_555
C4 C12 1_555 1_555
C7 C11 1_555 1_555
C9 C10 1_555 1_555
C11 C12 1_555 1_555
C13A C14A 1_555 1_555
C15A C16A 1_555 1_555
C17A C18A 1_555 1_555
C19A C20A 1_555 1_555
C4A C12A 1_555 1_555
C7A C11A 1_555 1_555
C9A C10A 1_555 1_555
C11A C12A 1_555 1_555

#END
