
#######################################################################
#
#                 Cambridge Crystallographic Data Centre
#                                CCDC 
#
#######################################################################
#
# If this CIF has been generated from an entry in the Cambridge 
# Structural Database, then it will include bibliographic, chemical, 
# crystal, experimental, refinement or atomic coordinate data resulting 
# from the CCDC's data processing and validation procedures.
#
#######################################################################

data_PEJYIO
_symmetry_cell_setting           monoclinic
_symmetry_space_group_name_H-M   'P 21/c'
_symmetry_Int_Tables_number      14
_space_group_name_Hall           '-P 2ybc'
loop_
_symmetry_equiv_pos_site_id
_symmetry_equiv_pos_as_xyz
1 x,y,z
2 -x,1/2+y,1/2-z
3 -x,-y,-z
4 x,1/2-y,1/2+z
_cell_length_a                   15.976(5)
_cell_length_b                   10.016(3)
_cell_length_c                   17.742(5)
_cell_angle_alpha                90
_cell_angle_beta                 105.468(5)
_cell_angle_gamma                90
_cell_volume                     2736.17
loop_
_atom_site_label
_atom_site_type_symbol
_atom_site_fract_x
_atom_site_fract_y
_atom_site_fract_z
Cd1 Cd 0.98265(3) 0.15243(5) 0.78272(3)
Cd2 Cd 1.0000 0.0000 1.0000
N1 N 0.8378(3) 0.1587(5) 0.7792(4)
N2 N 0.1257(3) 0.1665(5) 0.7783(3)
O1 O 1.0151(3) 0.3034(5) 0.8856(3)
O2 O 1.0350(3) -0.1397(4) 0.7789(3)
O3 O 1.0034(3) 0.2237(5) 0.9993(3)
O4 O 0.9428(3) 0.0550(4) 0.6599(3)
H1 H 0.9571 -0.0297 0.6626
H2 H 0.8865 0.0608 0.6397
O5 O 1.0011(3) -0.0191(4) 0.8708(2)
C1 C 0.5702(4) 0.1770(7) 0.7769(5)
C2 C 0.6628(4) 0.1705(7) 0.7777(5)
N3 N 1.1533(4) -0.0071(7) 1.0269(3)
C3 C 0.6997(5) 0.0585(8) 0.7560(5)
H3 H 0.6659 -0.0171 0.7397
C4 C 0.7857(5) 0.0572(8) 0.7583(5)
H4 H 0.8086 -0.0212 0.7440
C5 C 0.5076(5) 0.1129(9) 0.7193(5)
H5 H 0.5243 0.0667 0.6802
C6 C 0.3008(4) 0.1787(7) 0.7761(4)
C7 C 0.3935(4) 0.1808(7) 0.7757(5)
C8 C 0.2353(4) 0.1415(7) 0.7109(5)
H6 H 0.2487 0.1195 0.6645
C9 C 1.3262(5) -0.0046(8) 1.0178(5)
C10 C 1.2879(5) 0.1072(8) 1.0416(5)
H7 H 1.3198 0.1852 1.0556
C11 C 0.2737(4) 0.2104(8) 0.8417(5)
H8 H 0.3146 0.2354 0.8874
C12 C 1.2752(5) -0.1176(8) 1.0004(5)
H9 H 1.2975 -0.1951 0.9844
C13 C 1.2026(5) 0.1017(8) 1.0444(4)
H10 H 1.1781 0.1781 1.0593
C14 C 0.4210(5) 0.1159(9) 0.7182(5)
H11 H 0.3805 0.0733 0.6779
C15 C 0.1511(4) 0.1371(7) 0.7149(5)
H12 H 0.1088 0.1119 0.6702
C16 C 1.0105(4) 0.3129(7) 0.9542(5)
H13 H 1.0127 0.3992 0.9740
C17 C 0.5422(4) 0.2454(8) 0.8325(5)
H14 H 0.5825 0.2923 0.8708
C18 C 0.1879(4) 0.2058(8) 0.8406(5)
H15 H 0.1722 0.2313 0.8853
C19 C 1.1917(5) -0.1155(8) 1.0069(5)
H16 H 1.1597 -0.1942 0.9968
C20 C 1.0215(4) -0.1250(7) 0.8419(5)
H17 H 1.0268 -0.2010 0.8729
C21 C 0.4560(4) 0.2468(8) 0.8334(5)
H18 H 0.4396 0.2922 0.8729
C22 C 0.8033(5) 0.2670(8) 0.8015(6)
H19 H 0.8390 0.3405 0.8180
C23 C 0.7177(5) 0.2767(8) 0.8015(6)
H20 H 0.6968 0.3553 0.8178
C24 C 1.4150(5) -0.0013(7) 1.0085(5)
C25 C 1.4800(5) 0.0735(9) 1.0574(5)
H21 H 1.4670 0.1245 1.0967
C26 C 1.4362(5) -0.0746(9) 0.9504(6)
H22 H 1.3937 -0.1251 0.9162
Cd1B Cd 1.01735(3) -0.15243(5) 1.21728(3)
Cd1_2 Cd -0.01735(3) 0.15243(5) 0.78272(3)
Cd1A Cd 1.01735(3) -0.34757(5) 0.71728(3)
Cd1C Cd 0.98265(3) 0.34757(5) 1.28272(3)
Cd1_3 Cd 1.98265(3) 0.15243(5) 0.78272(3)
Cd2_2 Cd 2.0000 0.0000 1.0000
N1_2 N 1.8378(3) 0.1587(5) 0.7792(4)
N1B N 1.1622(3) -0.1587(5) 1.2208(4)
N2_2 N 1.1257(3) 0.1665(5) 0.7783(3)
N2B N 0.8743(3) -0.1665(5) 1.2217(3)
O1B O 0.9849(3) -0.3034(5) 1.1144(3)
O2B O 0.9650(3) 0.1397(4) 1.2211(3)
O2A O 0.9650(3) 0.3603(4) 0.7211(3)
O2C O 1.0350(3) -0.3603(4) 1.2789(3)
O3B O 0.9966(3) -0.2237(5) 1.0007(3)
O4B O 1.0572(3) -0.0550(4) 1.3401(3)
H1B H 1.0429 0.0297 1.3374
H2B H 1.1135 -0.0608 1.3603
O5B O 0.9989(3) 0.0191(4) 1.1292(2)
C1_2 C 1.5702(4) 0.1770(7) 0.7769(5)
C2_2 C 1.6628(4) 0.1705(7) 0.7777(5)
N3B N 1.8467(4) 0.0071(7) 0.9731(3)
N3B_2 N 0.8467(4) 0.0071(7) 0.9731(3)
C3_2 C 1.6997(5) 0.0585(8) 0.7560(5)
H3_2 H 1.6659 -0.0171 0.7397
C4_2 C 1.7857(5) 0.0572(8) 0.7583(5)
H4_2 H 1.8086 -0.0212 0.7440
C5_2 C 1.5076(5) 0.1129(9) 0.7193(5)
H5_2 H 1.5243 0.0667 0.6802
C6_2 C 1.3008(4) 0.1787(7) 0.7761(4)
C7_2 C 1.3935(4) 0.1808(7) 0.7757(5)
C8_2 C 1.2353(4) 0.1415(7) 0.7109(5)
H6_2 H 1.2487 0.1195 0.6645
C9B C 1.6738(5) 0.0046(8) 0.9822(5)
C10B C 1.7121(5) -0.1072(8) 0.9584(5)
H7B H 1.6802 -0.1852 0.9444
C11_2 C 1.2737(4) 0.2104(8) 0.8417(5)
H8_2 H 1.3146 0.2354 0.8874
C12B C 1.7248(5) 0.1176(8) 0.9996(5)
H9B H 1.7025 0.1951 1.0156
C13B C 1.7974(5) -0.1017(8) 0.9556(4)
H10B H 1.8219 -0.1781 0.9407
C14_2 C 1.4210(5) 0.1159(9) 0.7182(5)
H11_2 H 1.3805 0.0733 0.6779
C15_2 C 1.1511(4) 0.1371(7) 0.7149(5)
H12_2 H 1.1088 0.1119 0.6702
C16B C 0.9895(4) -0.3129(7) 1.0458(5)
H13B H 0.9873 -0.3992 1.0260
C17_2 C 1.5422(4) 0.2454(8) 0.8325(5)
H14_2 H 1.5825 0.2923 0.8708
C18_2 C 1.1879(4) 0.2058(8) 0.8406(5)
H15_2 H 1.1722 0.2313 0.8853
C19B C 1.8083(5) 0.1155(8) 0.9931(5)
H16B H 1.8403 0.1942 1.0032
C20B C 0.9785(4) 0.1250(7) 1.1581(5)
H17B H 0.9732 0.2010 1.1271
C21_2 C 1.4560(4) 0.2468(8) 0.8334(5)
H18_2 H 1.4396 0.2922 0.8729
C22_2 C 1.8033(5) 0.2670(8) 0.8015(6)
H19_2 H 1.8390 0.3405 0.8180
C23_2 C 1.7177(5) 0.2767(8) 0.8015(6)
H20_2 H 1.6968 0.3553 0.8178
C24B C 1.5850(5) 0.0013(7) 0.9915(5)
C25B C 1.5200(5) -0.0735(9) 0.9426(5)
H21B H 1.5330 -0.1245 0.9033
C26B C 1.5638(5) 0.0746(9) 1.0496(6)
H22B H 1.6063 0.1251 1.0838
O6 O 0.7768(4) 0.0610(8) 0.5606(4)
N4 N 0.7673(6) 0.0112(9) 0.4959(5)
O7 O 0.6988(6) -0.0095(11) 0.4517(5)
O8 O 0.8283(7) 0.0014(12) 0.4707(6)
O9 O 0.5775(9) 0.0194(14) 0.5477(9)
loop_
_geom_bond_atom_site_label_1
_geom_bond_atom_site_label_2
_geom_bond_site_symmetry_1
_geom_bond_site_symmetry_2
Cd1 N1 1_555 1_555
Cd2 O3 1_555 1_555
N1 C4 1_555 1_555
N2 C15 1_555 1_555
O1 Cd1 1_555 1_555
O2 C20 1_555 1_555
O3 C16 1_555 1_555
O4 Cd1 1_555 1_555
H1 O4 1_555 1_555
H2 O4 1_555 1_555
O5 Cd1 1_555 1_555
C1 C2 1_555 1_555
C2 C3 1_555 1_555
N3 Cd2 1_555 1_555
C3 H3 1_555 1_555
C4 C3 1_555 1_555
H4 C4 1_555 1_555
C5 C1 1_555 1_555
H5 C5 1_555 1_555
C6 C7 1_555 1_555
C7 C14 1_555 1_555
C8 C6 1_555 1_555
H6 C8 1_555 1_555
C9 C10 1_555 1_555
C10 H7 1_555 1_555
C11 C6 1_555 1_555
H8 C11 1_555 1_555
C12 C9 1_555 1_555
H9 C12 1_555 1_555
C13 N3 1_555 1_555
H10 C13 1_555 1_555
C14 C5 1_555 1_555
H11 C14 1_555 1_555
C15 C8 1_555 1_555
H12 C15 1_555 1_555
C16 O1 1_555 1_555
H13 C16 1_555 1_555
C17 C1 1_555 1_555
H14 C17 1_555 1_555
C18 N2 1_555 1_555
H15 C18 1_555 1_555
C19 N3 1_555 1_555
H16 C19 1_555 1_555
C20 O5 1_555 1_555
H17 C20 1_555 1_555
C21 C7 1_555 1_555
H18 C21 1_555 1_555
C22 N1 1_555 1_555
H19 C22 1_555 1_555
C23 C2 1_555 1_555
H20 C23 1_555 1_555
C24 C9 1_555 1_555
C25 C24 1_555 1_555
H21 C25 1_555 1_555
C26 C24 1_555 1_555
H22 C26 1_555 1_555
O6 N4 1_555 1_555
N4 O7 1_555 1_555
O8 N4 1_555 1_555
Cd1B N1B 1_555 1_555
Cd1_2 N2 1_555 1_555
Cd1A O2 1_555 1_555
Cd1C O2B 1_555 1_555
Cd1_3 N1_2 1_555 1_555
Cd2_2 N3B 1_555 1_555
N1_2 C4_2 1_555 1_555
N2_2 Cd1 1_555 1_555
N2B Cd1B 1_555 1_555
O1B Cd1B 1_555 1_555
O2B C20B 1_555 1_555
O2A Cd1 1_555 1_555
O2C Cd1B 1_555 1_555
O3B Cd2 1_555 1_555
O4B Cd1B 1_555 1_555
H1B O4B 1_555 1_555
H2B O4B 1_555 1_555
O5B Cd2 1_555 1_555
C1_2 C2_2 1_555 1_555
C2_2 C3_2 1_555 1_555
N3B C13B 1_555 1_555
N3B_2 Cd2 1_555 1_555
C3_2 H3_2 1_555 1_555
C4_2 C3_2 1_555 1_555
H4_2 C4_2 1_555 1_555
C5_2 C1_2 1_555 1_555
H5_2 C5_2 1_555 1_555
C6_2 C7_2 1_555 1_555
C7_2 C14_2 1_555 1_555
C8_2 C6_2 1_555 1_555
H6_2 C8_2 1_555 1_555
C9B C10B 1_555 1_555
C10B H7B 1_555 1_555
C11_2 C6_2 1_555 1_555
H8_2 C11_2 1_555 1_555
C12B C9B 1_555 1_555
H9B C12B 1_555 1_555
C13B C10B 1_555 1_555
H10B C13B 1_555 1_555
C14_2 C5_2 1_555 1_555
H11_2 C14_2 1_555 1_555
C15_2 N2_2 1_555 1_555
H12_2 C15_2 1_555 1_555
C16B O1B 1_555 1_555
H13B C16B 1_555 1_555
C17_2 C1_2 1_555 1_555
H14_2 C17_2 1_555 1_555
C18_2 N2_2 1_555 1_555
H15_2 C18_2 1_555 1_555
C19B N3B 1_555 1_555
H16B C19B 1_555 1_555
C20B O5B 1_555 1_555
H17B C20B 1_555 1_555
C21_2 C7_2 1_555 1_555
H18_2 C21_2 1_555 1_555
C22_2 N1_2 1_555 1_555
H19_2 C22_2 1_555 1_555
C23_2 C2_2 1_555 1_555
H20_2 C23_2 1_555 1_555
C24B C9B 1_555 1_555
C25B C26 1_555 1_555
H21B C25B 1_555 1_555
C26B C25 1_555 1_555
H22B C26B 1_555 1_555
Cd2 O5 1_555 1_555
C10 C13 1_555 1_555
C11 C18 1_555 1_555
C12 C19 1_555 1_555
C17 C21 1_555 1_555
C22 C23 1_555 1_555
Cd1B O5B 1_555 1_555
O3B C16B 1_555 1_555
C8_2 C15_2 1_555 1_555
C11_2 C18_2 1_555 1_555
C12B C19B 1_555 1_555
C17_2 C21_2 1_555 1_555
C22_2 C23_2 1_555 1_555
C24B C25B 1_555 1_555
C24B C26B 1_555 1_555

#END
