
#######################################################################
#
#                 Cambridge Crystallographic Data Centre
#                                CCDC 
#
#######################################################################
#
# If this CIF has been generated from an entry in the Cambridge 
# Structural Database, then it will include bibliographic, chemical, 
# crystal, experimental, refinement or atomic coordinate data resulting 
# from the CCDC's data processing and validation procedures.
#
#######################################################################

data_PEKCUD
_symmetry_cell_setting           monoclinic
_symmetry_space_group_name_H-M   'P 21'
_symmetry_Int_Tables_number      4
_space_group_name_Hall           'P 2yb'
loop_
_symmetry_equiv_pos_site_id
_symmetry_equiv_pos_as_xyz
1 x,y,z
2 -x,1/2+y,-z
_cell_length_a                   5.3639(5)
_cell_length_b                   9.3069(4)
_cell_length_c                   8.0107(7)
_cell_angle_alpha                90
_cell_angle_beta                 96.672(4)
_cell_angle_gamma                90
_cell_volume                     397.196
loop_
_atom_site_label
_atom_site_type_symbol
_atom_site_fract_x
_atom_site_fract_y
_atom_site_fract_z
O1 O 0.2956(2) 0.02590 0.4650(2)
O2 O 0.4831(2) -0.1716(2) 0.3855(2)
O3 O 0.9050(3) -0.0029(2) -0.0772(2)
O4 O 0.0184(3) 0.3450(2) 0.3740(2)
O5 O -0.0179(3) 0.2076(2) 0.6955(2)
N1 N 0.7615(3) -0.0229(3) 0.1780(2)
C1 C 0.4543(3) -0.0382(2) 0.3884(2)
C2 C 0.6200(3) 0.0571(2) 0.2926(2)
C3 C 0.4754(4) 0.1674(3) 0.1755(3)
C4 C 0.6270(5) 0.1782(3) 0.0265(3)
C5 C 0.7772(3) 0.0412(2) 0.0331(2)
Li1 Li 0.2213(5) 0.2175(3) 0.5274(4)
Li1A Li 0.7787(5) -0.2825(3) 0.4726(4)
O2A O 0.5169(2) 0.3284(2) 0.6145(2)
O1A O 0.7044(2) -0.47410 0.5350(2)
O4A O 0.9816(3) -0.1550(2) 0.6260(2)
O5A O 1.0179(3) -0.2924(2) 0.3045(2)
C1A C 0.5457(3) 0.4618(2) 0.6116(2)
C1A_2 C 0.5457(3) -0.5382(2) 0.6116(2)
O1A_2 O 0.7044(2) 0.52590 0.5350(2)
C2A C 0.3800(3) 0.5571(2) 0.7074(2)
N1A N 0.2385(3) 0.4771(3) 0.8220(2)
C3A C 0.5246(4) 0.6674(3) 0.8245(3)
C5A C 0.2228(3) 0.5412(2) 0.9669(2)
C4A C 0.3730(5) 0.6782(3) 0.9735(3)
O3A O 0.0950(3) 0.4971(2) 1.0772(2)
loop_
_geom_bond_atom_site_label_1
_geom_bond_atom_site_label_2
_geom_bond_site_symmetry_1
_geom_bond_site_symmetry_2
O1 C1 1_555 1_555
O2 C1 1_555 1_555
O3 C5 1_555 1_555
O4 Li1 1_555 1_555
O5 Li1 1_555 1_555
N1 C2 1_555 1_555
C1 C2 1_555 1_555
C2 C3 1_555 1_555
C3 C4 1_555 1_555
C4 C5 1_555 1_555
C5 N1 1_555 1_555
Li1 O1 1_555 1_555
Li1A O2 1_555 1_555
O2A Li1 1_555 1_555
O1A Li1A 1_555 1_555
O4A Li1A 1_555 1_555
O5A Li1A 1_555 1_555
C1A O2A 1_555 1_555
C1A_2 O1A 1_555 1_555
O1A_2 C1A 1_555 1_555
C2A C1A 1_555 1_555
N1A C2A 1_555 1_555
C3A C2A 1_555 1_555
C5A N1A 1_555 1_555
C4A C3A 1_555 1_555
O3A C5A 1_555 1_555
C5A C4A 1_555 1_555

#END
