
#######################################################################
#
#                 Cambridge Crystallographic Data Centre
#                                CCDC 
#
#######################################################################
#
# If this CIF has been generated from an entry in the Cambridge 
# Structural Database, then it will include bibliographic, chemical, 
# crystal, experimental, refinement or atomic coordinate data resulting 
# from the CCDC's data processing and validation procedures.
#
#######################################################################

data_PEKCOX
_symmetry_cell_setting           orthorhombic
_symmetry_space_group_name_H-M   'P 21 21 21'
_symmetry_Int_Tables_number      19
_space_group_name_Hall           'P 2ac 2ab'
loop_
_symmetry_equiv_pos_site_id
_symmetry_equiv_pos_as_xyz
1 x,y,z
2 1/2-x,-y,1/2+z
3 1/2+x,1/2-y,-z
4 -x,1/2+y,1/2-z
_cell_length_a                   15.802(2)
_cell_length_b                   5.254(1)
_cell_length_c                   8.015(1)
_cell_angle_alpha                90
_cell_angle_beta                 90
_cell_angle_gamma                90
_cell_volume                     665.435
loop_
_atom_site_label
_atom_site_type_symbol
_atom_site_fract_x
_atom_site_fract_y
_atom_site_fract_z
O1 O 0.24753(8) 0.9516(3) 0.1497(2)
O2 O 0.16804(8) 0.7213(3) -0.0231(1)
O3 O 0.08086(7) 0.7638(3) 0.6433(1)
O4 O 0.4023(1) 0.7378(4) 0.3495(2)
N1 N 0.1683(1) 0.7298(4) 0.4177(2)
C1 C 0.1990(1) 0.7676(5) 0.1182(2)
C2 C 0.1778(1) 0.5889(4) 0.2618(2)
C3 C 0.0941(1) 0.4403(5) 0.2491(3)
C4 C 0.0584(2) 0.4400(5) 0.4266(3)
C5 C 0.1018(1) 0.6606(4) 0.5092(2)
Li1 Li 0.3447(2) 1.0391(7) 0.2891(3)
H1 H 0.205(1) 0.844(5) 0.451(3)
H2 H 0.226(1) 0.477(3) 0.268(2)
H3 H -0.002(1) 0.450(4) 0.438(2)
H4 H 0.076(1) 0.291(4) 0.484(3)
H5 H 0.103(1) 0.272(4) 0.209(2)
H6 H 0.054(1) 0.537(4) 0.172(2)
H7 H 0.461(2) 0.739(6) 0.340(3)
H8 H 0.387(2) 0.598(5) 0.385(3)
Li1A Li 0.1553(2) 0.9609(7) -0.2109(3)
Li1A_2 Li 0.1553(2) 0.9609(7) 0.7891(3)
O2A O 0.33196(8) 1.2787(3) 0.4769(1)
O3A O 0.41914(7) 1.2362(3) 0.1433(1)
loop_
_geom_bond_atom_site_label_1
_geom_bond_atom_site_label_2
_geom_bond_site_symmetry_1
_geom_bond_site_symmetry_2
O1 C1 1_555 1_555
O2 C1 1_555 1_555
O3 C5 1_555 1_555
O4 Li1 1_555 1_555
N1 C2 1_555 1_555
C1 C2 1_555 1_555
C2 C3 1_555 1_555
C3 C4 1_555 1_555
C4 C5 1_555 1_555
C5 N1 1_555 1_555
Li1 O1 1_555 1_555
H1 N1 1_555 1_555
H2 C2 1_555 1_555
H3 C4 1_555 1_555
H4 C4 1_555 1_555
H5 C3 1_555 1_555
H6 C3 1_555 1_555
H7 O4 1_555 1_555
H8 O4 1_555 1_555
Li1A O2 1_555 1_555
Li1A_2 O3 1_555 1_555
O2A Li1 1_555 1_555
O3A Li1 1_555 1_555

#END
