
#######################################################################
#
#                 Cambridge Crystallographic Data Centre
#                                CCDC 
#
#######################################################################
#
# If this CIF has been generated from an entry in the Cambridge 
# Structural Database, then it will include bibliographic, chemical, 
# crystal, experimental, refinement or atomic coordinate data resulting 
# from the CCDC's data processing and validation procedures.
#
#######################################################################

data_PEKGET
_symmetry_cell_setting           monoclinic
_symmetry_space_group_name_H-M   'P 21/c'
_symmetry_Int_Tables_number      14
_space_group_name_Hall           '-P 2ybc'
loop_
_symmetry_equiv_pos_site_id
_symmetry_equiv_pos_as_xyz
1 x,y,z
2 -x,1/2+y,1/2-z
3 -x,-y,-z
4 x,1/2-y,1/2+z
_cell_length_a                   10.7146(10)
_cell_length_b                   12.9385(12)
_cell_length_c                   20.8587(16)
_cell_angle_alpha                90
_cell_angle_beta                 120.343(3)
_cell_angle_gamma                90
_cell_volume                     2495.55
loop_
_atom_site_label
_atom_site_type_symbol
_atom_site_fract_x
_atom_site_fract_y
_atom_site_fract_z
Sm1 Sm 0.42709(3) 0.857029(19) 0.491695(13)
Co1 Co 0.46781(7) 0.84725(5) 0.72804(3)
O1 O 0.4793(3) 0.8881(2) 0.62834(17)
O2 O 0.5460(4) 1.0110(2) 0.58003(18)
O3 O 0.5247(5) 1.2331(3) 0.5878(2)
O4 O 0.5445(4) 1.3342(3) 0.6774(2)
O5 O 0.2602(4) 0.9941(3) 0.4760(2)
O6 O 0.3068(4) 1.1498(3) 0.4463(2)
O7 O 0.2094(4) 0.7697(3) 0.4789(2)
O8 O 0.1929(5) 0.8229(4) 0.3745(2)
N1 N 0.5279(4) 1.1809(3) 0.7565(2)
N2 N 0.4925(4) 1.0099(3) 0.7366(2)
N3 N 0.4963(5) 1.1774(4) 0.9477(3)
N4 N -0.2326(4) 1.1437(3) 0.3410(2)
N5 N -0.2971(5) 0.6716(3) 0.2868(3)
C1 C 0.5163(5) 0.9818(4) 0.6284(3)
C2 C 0.5184(5) 1.0513(4) 0.6840(3)
C3 C 0.5372(5) 1.1571(4) 0.6950(3)
C4 C 0.5390(6) 1.2463(4) 0.6508(3)
C5 C 0.4984(5) 1.0906(4) 0.7785(3)
C6 C 0.4616(6) 1.0890(4) 0.8376(3)
C7 C 0.3502(7) 1.0314(4) 0.8350(3)
H1 H 0.2987 0.9846 0.7966
C8 C 0.5326(6) 1.1587(4) 0.8959(3)
H2 H 0.6107 1.1948 0.8992
C9 C 0.3164(7) 1.0447(5) 0.8905(4)
H3 H 0.2450 1.0050 0.8915
C10 C 0.3921(8) 1.1186(5) 0.9443(4)
H4 H 0.3679 1.1276 0.9809
C11 C 0.2240(6) 1.0820(4) 0.4470(3)
C12 C 0.0650(5) 1.1071(4) 0.4110(3)
C13 C -0.0283(6) 1.0357(5) 0.4131(3)
H5 H 0.0069 0.9729 0.4374
C14 C 0.0054(6) 1.1978(5) 0.3743(3)
H6 H 0.0646 1.2494 0.3731
C15 C -0.1733(6) 1.0575(5) 0.3795(3)
H7 H -0.2334 1.0095 0.3838
C16 C -0.1424(6) 1.2127(5) 0.3391(4)
H8 H -0.1806 1.2738 0.3129
C17 C 0.1401(6) 0.7802(5) 0.4100(3)
C18 C -0.0130(6) 0.7401(5) 0.3660(3)
C19 C -0.0882(6) 0.7405(5) 0.2903(3)
H9 H -0.0447 0.7646 0.2642
C20 C -0.0806(7) 0.7037(6) 0.4025(4)
H10 H -0.0324 0.7016 0.4541
C21 C -0.2281(6) 0.7054(5) 0.2527(3)
H11 H -0.2771 0.7052 0.2010
C22 C -0.2240(7) 0.6698(6) 0.3600(4)
H12 H -0.2699 0.6449 0.3846
Sm1B Sm 0.57291(3) 1.142971(19) 0.508305(13)
Sm1A Sm 0.57291(3) 1.357029(19) 1.008305(13)
Co1A Co 0.53219(7) 1.34725(5) 0.77196(3)
Co1B Co -0.46781(7) 1.15275(5) 0.27196(3)
Co1C Co -0.53219(7) 0.65275(5) 0.22804(3)
O2B O 0.4540(4) 0.9890(2) 0.41997(18)
O3B O 0.4753(5) 0.7669(3) 0.4122(2)
O4A O 0.4555(4) 0.8342(3) 0.8226(2)
O6B O 0.6932(4) 0.8502(3) 0.5537(2)
N1A N 0.4721(4) 0.6809(3) 0.7435(2)
N3A N 0.5037(5) 0.6774(4) 0.5523(3)
N4B N 0.2326(4) 0.8563(3) 0.6590(2)
N5C N 0.7029(5) 0.8284(3) 0.7868(3)
O9 O 0.0849(11) 0.9531(9) 0.2456(6)
H13 H 0.1240 0.9042 0.2767
H14 H 0.0945 1.0082 0.2699
O10 O 0.187(4) 0.948(3) 0.021(2)
H15 H 0.2553 0.9544 0.0138
H16 H 0.2167 0.9151 0.0596
O11 O 0.044(4) 0.946(3) 0.1095(19)
H17 H 0.0381 0.8824 0.1083
H18 H 0.0685 0.9630 0.0799
loop_
_geom_bond_atom_site_label_1
_geom_bond_atom_site_label_2
_geom_bond_site_symmetry_1
_geom_bond_site_symmetry_2
Sm1 O1 1_555 1_555
Co1 O1 1_555 1_555
O1 C1 1_555 1_555
O2 Sm1 1_555 1_555
O3 C4 1_555 1_555
O4 C4 1_555 1_555
O5 Sm1 1_555 1_555
O6 C11 1_555 1_555
O7 Sm1 1_555 1_555
O8 Sm1 1_555 1_555
N1 C3 1_555 1_555
N2 Co1 1_555 1_555
N3 C8 1_555 1_555
N4 C15 1_555 1_555
N5 C21 1_555 1_555
C1 O2 1_555 1_555
C2 N2 1_555 1_555
C3 C2 1_555 1_555
C4 C3 1_555 1_555
C5 N1 1_555 1_555
C6 C5 1_555 1_555
C7 C6 1_555 1_555
H1 C7 1_555 1_555
C8 C6 1_555 1_555
H2 C8 1_555 1_555
C9 C7 1_555 1_555
H3 C9 1_555 1_555
C10 N3 1_555 1_555
H4 C10 1_555 1_555
C11 O5 1_555 1_555
C12 C11 1_555 1_555
C13 C12 1_555 1_555
H5 C13 1_555 1_555
C14 C12 1_555 1_555
H6 C14 1_555 1_555
C15 C13 1_555 1_555
H7 C15 1_555 1_555
C16 N4 1_555 1_555
H8 C16 1_555 1_555
C17 O7 1_555 1_555
C18 C17 1_555 1_555
C19 C18 1_555 1_555
H9 C19 1_555 1_555
C20 C18 1_555 1_555
H10 C20 1_555 1_555
C21 C19 1_555 1_555
H11 C21 1_555 1_555
C22 N5 1_555 1_555
H12 C22 1_555 1_555
O9 H13 1_555 1_555
H14 O9 1_555 1_555
O10 H15 1_555 1_555
H16 O10 1_555 1_555
O11 H17 1_555 1_555
H18 O11 1_555 1_555
Sm1B O2 1_555 1_555
Sm1A N3 1_555 1_555
Co1A O4 1_555 1_555
Co1B N4 1_555 1_555
Co1C N5 1_555 1_555
O2B Sm1 1_555 1_555
O3B Sm1 1_555 1_555
O4A Co1 1_555 1_555
O6B Sm1 1_555 1_555
N1A Co1 1_555 1_555
N3A Sm1 1_555 1_555
N4B Co1 1_555 1_555
N5C Co1 1_555 1_555
O3 Sm1B 1_555 1_555
O6 Sm1B 1_555 1_555
O8 C17 1_555 1_555
N1 Co1A 1_555 1_555
N2 C5 1_555 1_555
C1 C2 1_555 1_555
C9 C10 1_555 1_555
C14 C16 1_555 1_555
C20 C22 1_555 1_555
Sm1B O2B 1_555 1_555

#END
