
#######################################################################
#
#                 Cambridge Crystallographic Data Centre
#                                CCDC 
#
#######################################################################
#
# If this CIF has been generated from an entry in the Cambridge 
# Structural Database, then it will include bibliographic, chemical, 
# crystal, experimental, refinement or atomic coordinate data resulting 
# from the CCDC's data processing and validation procedures.
#
#######################################################################

data_PEKGUJ
_symmetry_cell_setting           monoclinic
_symmetry_space_group_name_H-M   'P 21/c'
_symmetry_Int_Tables_number      14
_space_group_name_Hall           '-P 2ybc'
loop_
_symmetry_equiv_pos_site_id
_symmetry_equiv_pos_as_xyz
1 x,y,z
2 -x,1/2+y,1/2-z
3 -x,-y,-z
4 x,1/2-y,1/2+z
_cell_length_a                   11.062(2)
_cell_length_b                   13.563(3)
_cell_length_c                   20.895(4)
_cell_angle_alpha                90
_cell_angle_beta                 121.247(8)
_cell_angle_gamma                90
_cell_volume                     2680.2
loop_
_atom_site_label
_atom_site_type_symbol
_atom_site_fract_x
_atom_site_fract_y
_atom_site_fract_z
Eu1 Eu 0.55787(3) 0.86299(2) 0.495952(16)
Cd1 Cd 0.99235(4) 0.85495(3) 0.73333(2)
O1 O 0.7724(4) 0.9011(3) 0.6261(2)
O2 O 0.6133(4) 1.0184(3) 0.5784(2)
O3 O 0.6438(5) 1.2254(3) 0.5778(2)
O4 O 0.7906(5) 1.3307(3) 0.6629(3)
O5 O 0.4308(5) 0.8612(3) 0.5631(3)
O6 O 0.3236(5) 1.0089(4) 0.5300(3)
O7 O 0.7524(5) 0.7846(4) 0.4876(3)
O8 O 0.5555(5) 0.8144(4) 0.3812(3)
N1 N 0.9723(5) 1.0231(4) 0.7345(3)
N2 N 0.9728(5) 1.1874(4) 0.7482(3)
N3 N 1.3830(5) 1.1940(4) 0.9369(3)
N4 N 0.0954(6) 0.8620(4) 0.6581(3)
N5 N 0.8671(7) 0.6693(5) 0.2969(3)
C1 C 0.7372(6) 0.9906(4) 0.6262(3)
C2 C 0.8431(6) 1.0591(4) 0.6798(3)
C3 C 0.8453(6) 1.1616(4) 0.6868(3)
C4 C 0.7511(6) 1.2447(5) 0.6397(4)
C5 C 1.0469(6) 1.1021(5) 0.7736(3)
C6 C 1.1983(6) 1.1036(5) 0.8334(4)
C7 C 1.2462(6) 1.1756(5) 0.8862(3)
H1 H 1.1789 1.2154 0.8874
C8 C 1.2981(7) 1.0404(5) 0.8349(4)
H2 H 1.2705 0.9889 0.8006
C9 C 1.4378(8) 1.0546(6) 0.8874(5)
H3 H 1.5063 1.0123 0.8899
C10 C 1.4761(8) 1.1328(6) 0.9368(5)
H4 H 1.5716 1.1428 0.9714
C11 C 0.3444(7) 0.9242(5) 0.5595(4)
C12 C 0.2563(6) 0.8995(5) 0.5928(4)
C13 C 0.1548(7) 0.9653(5) 0.5862(4)
H5 H 0.1392 1.0239 0.5599
C14 C 0.2700(8) 0.8143(6) 0.6306(4)
H6 H 0.3338 0.7665 0.6345
C15 C 0.0770(8) 0.9440(6) 0.6186(4)
H7 H 0.0083 0.9887 0.6129
C16 C 0.1912(8) 0.7983(6) 0.6626(4)
H8 H 0.2050 0.7399 0.6889
C17 C 0.6808(8) 0.7838(6) 0.4178(4)
C18 C 0.7466(8) 0.7416(6) 0.3754(4)
C19 C 0.8870(9) 0.7210(7) 0.4116(5)
H9 H 0.9436 0.7297 0.4631
C20 C 0.6657(9) 0.7257(7) 0.2992(5)
H10 H 0.5694 0.7396 0.2728
C21 C 0.9446(9) 0.6868(7) 0.3706(5)
H11 H 1.0415 0.6755 0.3954
C22 C 0.7300(9) 0.6892(6) 0.2631(5)
H12 H 0.6743 0.6778 0.2119
Eu1B Eu 0.44213(3) 1.13701(2) 0.504048(16)
Eu1A Eu 1.44213(3) 1.36299(2) 1.004048(16)
Cd1A Cd 1.00765(4) 1.35495(3) 0.76667(2)
Cd1_2 Cd -0.00765(4) 0.85495(3) 0.73333(2)
Cd1C Cd 0.99235(4) 0.64505(3) 0.23333(2)
O2B O 0.3867(4) 0.9816(3) 0.4216(2)
O3B O 0.3562(5) 0.7746(3) 0.4222(2)
O4A O 1.2094(5) 0.8307(3) 0.8371(3)
O6B O 0.6764(5) 0.9911(4) 0.4700(3)
N2A N 1.0272(5) 0.6874(4) 0.7518(3)
N3A N 0.6170(5) 0.6940(4) 0.5631(3)
N4_2 N 1.0954(6) 0.8620(4) 0.6581(3)
N5C N 0.8671(7) 0.8307(5) 0.7969(3)
O9 O 0.422(2) 0.9324(16) 0.2487(10)
H13 H 0.4438 0.8855 0.2797
H14 H 0.4647 0.9839 0.2734
O10 O 0.851(8) 0.950(6) 0.030(5)
H15 H 0.8232 1.0080 0.0135
H16 H 0.9351 0.9504 0.0388
O11 O 0.170(5) 0.957(3) 0.095(3)
H17 H 0.1781 0.9483 0.1376
H18 H 0.2562 0.9655 0.1082
loop_
_geom_bond_atom_site_label_1
_geom_bond_atom_site_label_2
_geom_bond_site_symmetry_1
_geom_bond_site_symmetry_2
Eu1 O1 1_555 1_555
Cd1 O1 1_555 1_555
O1 C1 1_555 1_555
O2 Eu1 1_555 1_555
O3 C4 1_555 1_555
O4 C4 1_555 1_555
O5 Eu1 1_555 1_555
O6 C11 1_555 1_555
O7 Eu1 1_555 1_555
O8 Eu1 1_555 1_555
N1 Cd1 1_555 1_555
N2 C3 1_555 1_555
N3 C7 1_555 1_555
N4 C15 1_555 1_555
N5 C21 1_555 1_555
C1 O2 1_555 1_555
C2 N1 1_555 1_555
C3 C2 1_555 1_555
C4 C3 1_555 1_555
C5 N1 1_555 1_555
C6 C5 1_555 1_555
C7 C6 1_555 1_555
H1 C7 1_555 1_555
C8 C6 1_555 1_555
H2 C8 1_555 1_555
C9 C8 1_555 1_555
H3 C9 1_555 1_555
C10 N3 1_555 1_555
H4 C10 1_555 1_555
C11 O5 1_555 1_555
C12 C11 1_555 1_555
C13 C12 1_555 1_555
H5 C13 1_555 1_555
C14 C12 1_555 1_555
H6 C14 1_555 1_555
C15 C13 1_555 1_555
H7 C15 1_555 1_555
C16 N4 1_555 1_555
H8 C16 1_555 1_555
C17 O7 1_555 1_555
C18 C17 1_555 1_555
C19 C18 1_555 1_555
H9 C19 1_555 1_555
C20 C18 1_555 1_555
H10 C20 1_555 1_555
C21 C19 1_555 1_555
H11 C21 1_555 1_555
C22 N5 1_555 1_555
H12 C22 1_555 1_555
O9 H13 1_555 1_555
H14 O9 1_555 1_555
O10 H15 1_555 1_555
H16 O10 1_555 1_555
O11 H17 1_555 1_555
H18 O11 1_555 1_555
Eu1B O2 1_555 1_555
Eu1A N3 1_555 1_555
Cd1A O4 1_555 1_555
Cd1_2 N4 1_555 1_555
Cd1C N5 1_555 1_555
O2B Eu1 1_555 1_555
O3B Eu1 1_555 1_555
O4A Cd1 1_555 1_555
O6B Eu1 1_555 1_555
N2A Cd1 1_555 1_555
N3A Eu1 1_555 1_555
N4_2 Cd1 1_555 1_555
N5C Cd1 1_555 1_555
O3 Eu1B 1_555 1_555
O6 Eu1B 1_555 1_555
O8 C17 1_555 1_555
N2 C5 1_555 1_555
N2 Cd1A 1_555 1_555
C1 C2 1_555 1_555
C9 C10 1_555 1_555
C14 C16 1_555 1_555
C20 C22 1_555 1_555
Eu1B O2B 1_555 1_555

#END
