
#######################################################################
#
#                 Cambridge Crystallographic Data Centre
#                                CCDC 
#
#######################################################################
#
# If this CIF has been generated from an entry in the Cambridge 
# Structural Database, then it will include bibliographic, chemical, 
# crystal, experimental, refinement or atomic coordinate data resulting 
# from the CCDC's data processing and validation procedures.
#
#######################################################################

data_PEKGIX
_symmetry_cell_setting           monoclinic
_symmetry_space_group_name_H-M   'P 21/c'
_symmetry_Int_Tables_number      14
_space_group_name_Hall           '-P 2ybc'
loop_
_symmetry_equiv_pos_site_id
_symmetry_equiv_pos_as_xyz
1 x,y,z
2 -x,1/2+y,1/2-z
3 -x,-y,-z
4 x,1/2-y,1/2+z
_cell_length_a                   10.6460(13)
_cell_length_b                   12.7722(16)
_cell_length_c                   20.8458(19)
_cell_angle_alpha                90
_cell_angle_beta                 120.083(4)
_cell_angle_gamma                90
_cell_volume                     2452.66
loop_
_atom_site_label
_atom_site_type_symbol
_atom_site_fract_x
_atom_site_fract_y
_atom_site_fract_z
Sm1 Sm 0.07338(5) 0.85537(4) 0.50878(2)
Ni1 Ni 0.03053(12) 0.65305(9) 0.77149(6)
O1 O 0.0404(7) 0.6633(4) 0.6775(3)
O2 O 0.0227(8) 0.7660(5) 0.5879(3)
O3 O 0.0452(7) 0.9889(4) 0.5799(3)
O4 O -0.0209(6) 1.1152(4) 0.6287(3)
O5 O 0.2404(7) 0.9928(5) 0.5255(3)
O6 O 0.1926(6) 1.1520(5) 0.5547(3)
O7 O 0.2908(7) 0.7675(5) 0.5201(4)
O8 O 0.3060(8) 0.8189(6) 0.6244(4)
N1 N 0.0261(8) 0.8184(5) 0.7568(4)
N2 N -0.0082(8) 0.9915(5) 0.7361(4)
N3 N -0.0026(9) 0.8271(6) 0.9497(4)
N4 N 0.7999(8) 0.6686(6) 0.7134(4)
N5 N 0.7379(7) 1.1437(6) 0.6626(4)
C1 C 0.0349(11) 0.7514(7) 0.6499(5)
C2 C 0.0362(9) 0.8416(6) 0.6952(4)
C3 C 0.0185(9) 0.9491(7) 0.6838(4)
C4 C 0.0155(9) 1.0196(6) 0.6280(4)
C5 C -0.0003(10) 0.9093(7) 0.7792(5)
C6 C -0.0376(11) 0.9140(7) 0.8390(5)
C7 C 0.0350(11) 0.8448(7) 0.8974(5)
H1 H 0.1139 0.8084 0.9009
C8 C -0.1548(11) 0.9710(7) 0.8341(5)
H2 H -0.2082 1.0160 0.7945
C9 C -0.1888(12) 0.9592(8) 0.8889(6)
H3 H -0.2621 0.9987 0.8890
C10 C -0.1096(12) 0.8851(8) 0.9455(5)
H4 H -0.1343 0.8766 0.9821
C11 C 0.2776(10) 1.0833(8) 0.5550(5)
C12 C 0.4381(10) 1.1091(7) 0.5916(5)
C13 C 0.4969(10) 1.2006(8) 0.6291(5)
H5 H 0.4381 1.2527 0.6313
C14 C 0.5304(10) 1.0374(8) 0.5886(5)
H6 H 0.4943 0.9746 0.5634
C15 C 0.6469(10) 1.2138(8) 0.6639(5)
H7 H 0.6859 1.2758 0.6897
C16 C 0.6781(10) 1.0582(8) 0.6233(5)
H8 H 0.7380 1.0096 0.6185
C17 C 0.3577(12) 0.7751(8) 0.5881(7)
C18 C 0.5142(11) 0.7345(8) 0.6326(6)
C19 C 0.5881(11) 0.7405(8) 0.7084(6)
H9 H 0.5434 0.7667 0.7336
C20 C 0.5805(12) 0.6928(8) 0.5973(6)
H10 H 0.5312 0.6858 0.5460
C21 C 0.7280(11) 0.7073(7) 0.7460(6)
H11 H 0.7773 0.7117 0.7974
C22 C 0.7251(12) 0.6608(9) 0.6403(6)
H12 H 0.7709 0.6327 0.6163
Sm1B Sm -0.07338(5) 1.14463(4) 0.49122(2)
Sm1C Sm 0.07338(5) 0.64463(4) 1.00878(2)
Ni1A Ni -0.03053(12) 1.15305(9) 0.72851(6)
Ni1_2 Ni 1.03053(12) 0.65305(9) 0.77149(6)
Ni1A_2 Ni 0.96947(12) 1.15305(9) 0.72851(6)
O3B O -0.0452(7) 1.0111(4) 0.4201(3)
O4B O 0.0209(6) 0.8848(4) 0.3713(3)
O4A O 0.0209(6) 0.6152(4) 0.8713(3)
O6B O -0.1926(6) 0.8480(5) 0.4453(3)
N2A N 0.0082(8) 0.4915(5) 0.7639(4)
N3C N -0.0026(9) 0.6729(6) 0.4497(4)
N4_2 N -0.2001(8) 0.6686(6) 0.7134(4)
N5A N 0.2621(7) 0.6437(6) 0.8374(4)
O9 O 0.4168(19) 0.9578(13) 0.7535(8)
H13 H 0.4766 0.9331 0.7405
H14 H 0.3480 0.9123 0.7315
loop_
_geom_bond_atom_site_label_1
_geom_bond_atom_site_label_2
_geom_bond_site_symmetry_1
_geom_bond_site_symmetry_2
Sm1 O2 1_555 1_555
Ni1 O1 1_555 1_555
O1 C1 1_555 1_555
O2 C1 1_555 1_555
O3 Sm1 1_555 1_555
O4 C4 1_555 1_555
O5 Sm1 1_555 1_555
O6 C11 1_555 1_555
O7 Sm1 1_555 1_555
O8 Sm1 1_555 1_555
N1 Ni1 1_555 1_555
N2 C3 1_555 1_555
N3 C7 1_555 1_555
N4 C21 1_555 1_555
N5 C15 1_555 1_555
C1 C2 1_555 1_555
C2 N1 1_555 1_555
C3 C2 1_555 1_555
C4 O3 1_555 1_555
C5 N1 1_555 1_555
C6 C5 1_555 1_555
C7 C6 1_555 1_555
H1 C7 1_555 1_555
C8 C6 1_555 1_555
H2 C8 1_555 1_555
C9 C8 1_555 1_555
H3 C9 1_555 1_555
C10 N3 1_555 1_555
H4 C10 1_555 1_555
C11 O5 1_555 1_555
C12 C11 1_555 1_555
C13 C12 1_555 1_555
H5 C13 1_555 1_555
C14 C12 1_555 1_555
H6 C14 1_555 1_555
C15 C13 1_555 1_555
H7 C15 1_555 1_555
C16 N5 1_555 1_555
H8 C16 1_555 1_555
C17 O7 1_555 1_555
C18 C17 1_555 1_555
C19 C18 1_555 1_555
H9 C19 1_555 1_555
C20 C18 1_555 1_555
H10 C20 1_555 1_555
C21 C19 1_555 1_555
H11 C21 1_555 1_555
C22 N4 1_555 1_555
H12 C22 1_555 1_555
O9 H13 1_555 1_555
H14 O9 1_555 1_555
Sm1B O3 1_555 1_555
Sm1C N3 1_555 1_555
Ni1A O4 1_555 1_555
Ni1_2 N4 1_555 1_555
Ni1A_2 N5 1_555 1_555
O3B Sm1 1_555 1_555
O4B Sm1 1_555 1_555
O4A Ni1 1_555 1_555
O6B Sm1 1_555 1_555
N2A Ni1 1_555 1_555
N3C Sm1 1_555 1_555
N4_2 Ni1 1_555 1_555
N5A Ni1 1_555 1_555
O4 Sm1B 1_555 1_555
O6 Sm1B 1_555 1_555
O8 C17 1_555 1_555
N2 C5 1_555 1_555
N2 Ni1A 1_555 1_555
C3 C4 1_555 1_555
C9 C10 1_555 1_555
C14 C16 1_555 1_555
C20 C22 1_555 1_555
Sm1B O3B 1_555 1_555
Sm1C O4A 1_555 1_555

#END
