
#######################################################################
#
#                 Cambridge Crystallographic Data Centre
#                                CCDC 
#
#######################################################################
#
# If this CIF has been generated from an entry in the Cambridge 
# Structural Database, then it will include bibliographic, chemical, 
# crystal, experimental, refinement or atomic coordinate data resulting 
# from the CCDC's data processing and validation procedures.
#
#######################################################################

data_PEKHOE
_symmetry_cell_setting           monoclinic
_symmetry_space_group_name_H-M   'P 21/c'
_symmetry_Int_Tables_number      14
_space_group_name_Hall           '-P 2ybc'
loop_
_symmetry_equiv_pos_site_id
_symmetry_equiv_pos_as_xyz
1 x,y,z
2 -x,1/2+y,1/2-z
3 -x,-y,-z
4 x,1/2-y,1/2+z
_cell_length_a                   10.6675(15)
_cell_length_b                   12.9658(18)
_cell_length_c                   20.7130(19)
_cell_angle_alpha                90
_cell_angle_beta                 120.068(5)
_cell_angle_gamma                90
_cell_volume                     2479.35
loop_
_atom_site_label
_atom_site_type_symbol
_atom_site_fract_x
_atom_site_fract_y
_atom_site_fract_z
Tb1 Tb 0.071313(16) 0.641224(11) 1.007604(8)
Co1 Co 0.03088(5) 0.65114(3) 0.77103(2)
O1 O 0.0190(2) 0.61065(16) 0.87188(12)
O2 O -0.0474(3) 0.48774(17) 0.92111(12)
O3 O -0.0291(3) 0.26638(19) 0.91276(13)
O4 O -0.0447(3) 0.16523(17) 0.82394(14)
O5 O 0.2393(3) 0.51008(19) 1.02119(15)
O6 O 0.1904(3) 0.35431(18) 1.05057(16)
O7 O 0.3068(3) 0.6705(3) 1.12596(16)
O8 O 0.2852(3) 0.7322(2) 1.02218(15)
N1 N 0.0046(3) 0.4885(2) 0.76270(14)
N2 N -0.0286(3) 0.3172(2) 0.74391(15)
N3 N 0.7336(3) 0.3601(2) 1.15958(17)
N4 N 0.7955(3) 0.8269(2) 1.21308(17)
N5 N 0.0093(4) 0.3154(2) 0.55467(16)
C1 C -0.0177(3) 0.5171(2) 0.87224(16)
C2 C -0.0212(3) 0.4475(2) 0.81596(17)
C3 C -0.0390(4) 0.3417(2) 0.80501(18)
C4 C -0.0407(4) 0.2532(3) 0.85059(18)
C5 C 0.0000(4) 0.4075(2) 0.72139(17)
C6 C 0.0378(4) 0.4079(3) 0.66162(18)
C7 C 0.1476(4) 0.4668(3) 0.6628(2)
H1 H 0.1969 0.5155 0.7001
C8 C 0.1826(5) 0.4515(3) 0.6076(2)
H2 H 0.2520 0.4926 0.6055
C9 C 0.1135(5) 0.3749(3) 0.5557(2)
H3 H 0.1399 0.3638 0.5198
C10 C -0.0296(4) 0.3355(3) 0.60520(19)
H4 H -0.1068 0.2986 0.6025
C11 C 0.2734(4) 0.4214(3) 1.04947(19)
C12 C 0.4348(4) 0.3968(3) 1.0872(2)
C13 C 0.4924(4) 0.3047(3) 1.1232(2)
H5 H 0.4325 0.2530 1.1238
C14 C 0.6409(4) 0.2904(3) 1.1586(2)
H6 H 0.6783 0.2282 1.1832
C15 C 0.6756(4) 0.4479(3) 1.1225(2)
H7 H 0.7370 0.4970 1.1205
C16 C 0.5291(4) 0.4691(3) 1.0870(2)
H8 H 0.4943 0.5321 1.0631
C17 C 0.3572(4) 0.7183(3) 1.0913(2)
C18 C 0.5110(4) 0.7576(3) 1.1340(2)
C19 C 0.5813(5) 0.7922(4) 1.0974(2)
H9 H 0.5342 0.7924 1.0456
C20 C 0.7229(5) 0.8265(4) 1.1391(2)
H10 H 0.7692 0.8504 1.1141
C21 C 0.7260(4) 0.7947(3) 1.2483(2)
H11 H 0.7749 0.7965 1.3001
C22 C 0.5844(4) 0.7589(4) 1.2109(2)
H12 H 0.5399 0.7362 1.2371
Tb1B Tb -0.071313(16) 0.358776(11) 0.992396(8)
Tb1A Tb -0.071313(16) 0.141224(11) 0.492396(8)
Co1A Co -0.03088(5) 0.15114(3) 0.72897(2)
Co1B Co 0.96912(5) 0.34886(3) 1.22897(2)
Co1C Co 1.03088(5) 0.84886(3) 1.27103(2)
O2B O 0.0474(3) 0.51226(17) 1.07889(12)
O3B O 0.0291(3) 0.73362(19) 1.08724(13)
O4A O 0.0447(3) 0.66523(17) 0.67606(14)
O6B O -0.1904(3) 0.64569(18) 0.94943(16)
N2A N 0.0286(3) 0.8172(2) 0.75609(15)
N3B N 0.2664(3) 0.6399(2) 0.84042(17)
N4C N -0.2045(3) 0.6731(2) 0.71308(17)
N5A N -0.0093(4) 0.8154(2) 0.94533(16)
O9 O 0.4127(7) 0.5413(5) 0.2540(4)
H13 H 0.4143 0.4886 0.2300
H14 H 0.3854 0.5924 0.2243
O10 O 0.3214(8) 0.5408(7) 0.4801(5)
H15 H 0.2416 0.5095 0.4654
H16 H 0.3139 0.6003 0.4950
O11 O 0.4663(11) 0.5518(6) 0.4002(5)
H17 H 0.4945 0.6140 0.4037
H18 H 0.3771 0.5497 0.3670
loop_
_geom_bond_atom_site_label_1
_geom_bond_atom_site_label_2
_geom_bond_site_symmetry_1
_geom_bond_site_symmetry_2
Tb1 O1 1_555 1_555
Co1 O1 1_555 1_555
O1 C1 1_555 1_555
O2 Tb1 1_555 1_555
O3 C4 1_555 1_555
O4 C4 1_555 1_555
O5 Tb1 1_555 1_555
O6 C11 1_555 1_555
O7 Tb1 1_555 1_555
O8 Tb1 1_555 1_555
N1 Co1 1_555 1_555
N2 C3 1_555 1_555
N3 C14 1_555 1_555
N4 C20 1_555 1_555
N5 C9 1_555 1_555
C1 O2 1_555 1_555
C2 N1 1_555 1_555
C3 C2 1_555 1_555
C4 C3 1_555 1_555
C5 N1 1_555 1_555
C6 C5 1_555 1_555
C7 C6 1_555 1_555
H1 C7 1_555 1_555
C8 C7 1_555 1_555
H2 C8 1_555 1_555
C9 C8 1_555 1_555
H3 C9 1_555 1_555
C10 N5 1_555 1_555
H4 C10 1_555 1_555
C11 O5 1_555 1_555
C12 C11 1_555 1_555
C13 C12 1_555 1_555
H5 C13 1_555 1_555
C14 C13 1_555 1_555
H6 C14 1_555 1_555
C15 N3 1_555 1_555
H7 C15 1_555 1_555
C16 C12 1_555 1_555
H8 C16 1_555 1_555
C17 O7 1_555 1_555
C18 C17 1_555 1_555
C19 C18 1_555 1_555
H9 C19 1_555 1_555
C20 C19 1_555 1_555
H10 C20 1_555 1_555
C21 N4 1_555 1_555
H11 C21 1_555 1_555
C22 C18 1_555 1_555
H12 C22 1_555 1_555
O9 H13 1_555 1_555
H14 O9 1_555 1_555
O10 H15 1_555 1_555
H16 O10 1_555 1_555
O11 H17 1_555 1_555
H18 O11 1_555 1_555
Tb1B O2 1_555 1_555
Tb1A N5 1_555 1_555
Co1A O4 1_555 1_555
Co1B N3 1_555 1_555
Co1C N4 1_555 1_555
O2B Tb1 1_555 1_555
O3B Tb1 1_555 1_555
O4A Co1 1_555 1_555
O6B Tb1 1_555 1_555
N2A Co1 1_555 1_555
N3B Co1 1_555 1_555
N4C Co1 1_555 1_555
N5A Tb1 1_555 1_555
O3 Tb1B 1_555 1_555
O6 Tb1B 1_555 1_555
O8 C17 1_555 1_555
N2 C5 1_555 1_555
N2 Co1A 1_555 1_555
C1 C2 1_555 1_555
C6 C10 1_555 1_555
C15 C16 1_555 1_555
C21 C22 1_555 1_555
Tb1B O2B 1_555 1_555

#END
