
#######################################################################
#
#                 Cambridge Crystallographic Data Centre
#                                CCDC 
#
#######################################################################
#
# If this CIF has been generated from an entry in the Cambridge 
# Structural Database, then it will include bibliographic, chemical, 
# crystal, experimental, refinement or atomic coordinate data resulting 
# from the CCDC's data processing and validation procedures.
#
#######################################################################

data_PEKHIY
_symmetry_cell_setting           monoclinic
_symmetry_space_group_name_H-M   'P 21/c'
_symmetry_Int_Tables_number      14
_space_group_name_Hall           '-P 2ybc'
loop_
_symmetry_equiv_pos_site_id
_symmetry_equiv_pos_as_xyz
1 x,y,z
2 -x,1/2+y,1/2-z
3 -x,-y,-z
4 x,1/2-y,1/2+z
_cell_length_a                   11.0308(10)
_cell_length_b                   13.5717(12)
_cell_length_c                   20.8930(15)
_cell_angle_alpha                90
_cell_angle_beta                 121.259(3)
_cell_angle_gamma                90
_cell_volume                     2673.76
loop_
_atom_site_label
_atom_site_type_symbol
_atom_site_fract_x
_atom_site_fract_y
_atom_site_fract_z
Gd1 Gd 0.441193(10) 0.863972(8) 1.003600(5)
Cd1 Cd 0.006562(15) 0.856320(11) 0.766128(8)
O1 O 0.22938(14) 0.90159(11) 0.87389(8)
O2 O 0.38909(14) 1.01857(11) 0.92105(8)
O3 O 0.57276(16) 0.86178(12) 0.93923(9)
N1 N -0.3822(2) 1.19713(15) 0.56389(11)
O4 O 0.35983(19) 1.22605(13) 0.92182(10)
O5 O 0.4430(2) 0.82126(19) 1.12028(10)
O6 O 0.25061(18) 0.78316(15) 1.01335(9)
O7 O 0.68104(16) 1.00875(13) 0.97287(9)
C1 C -0.1966(2) 1.10590(17) 0.66756(13)
N2 N 0.02805(18) 1.18847(14) 0.75186(10)
O8 O 0.21234(19) 1.33101(13) 0.83747(10)
N3 N 0.1331(2) 0.67009(18) 1.20311(11)
N4 N 0.9057(2) 0.86480(16) 0.84256(11)
C2 C 0.2644(2) 0.99164(15) 0.87395(10)
C3 C 0.1578(2) 1.06069(16) 0.82014(11)
C4 C -0.0462(2) 1.10405(16) 0.72643(12)
C5 C 0.1567(2) 1.16297(16) 0.81253(11)
N5 N 0.02837(17) 1.02428(13) 0.76554(9)
C6 C 0.2515(2) 1.24495(17) 0.86028(12)
C7 C 0.6584(2) 0.92508(19) 0.94347(12)
C8 C 0.7475(2) 0.90056(19) 0.90932(12)
C9 C 0.8455(2) 0.9678(2) 0.91443(14)
H1 H 0.8594 1.0268 0.9400
C10 C -0.2448(2) 1.17933(18) 0.61442(12)
H2 H -0.1775 1.2195 0.6134
C11 C -0.2972(3) 1.0424(2) 0.66582(17)
H3 H -0.2698 0.9909 0.7000
C12 C -0.4392(3) 1.0571(2) 0.6123(2)
H4 H -0.5079 1.0142 0.6091
C13 C -0.4773(3) 1.1352(2) 0.5643(2)
H5 H -0.5732 1.1462 0.5305
C14 C 0.7326(3) 0.8136(2) 0.87176(15)
H6 H 0.6698 0.7653 0.8685
C15 C 0.9234(3) 0.9467(2) 0.88118(15)
H7 H 0.9911 0.9920 0.8862
C16 C 0.8127(3) 0.7996(2) 0.83904(15)
H8 H 0.8008 0.7412 0.8131
C17 C 0.2715(3) 0.6903(2) 1.23812(15)
H9 H 0.3272 0.6785 1.2893
C18 C 0.3349(3) 0.7279(3) 1.20171(15)
H10 H 0.4315 0.7417 1.2280
C19 C 0.1107(3) 0.7252(3) 1.08889(16)
H11 H 0.0526 0.7370 1.0378
C20 C 0.0558(3) 0.6874(3) 1.12983(17)
H12 H -0.0407 0.6732 1.1049
C21 C 0.3214(3) 0.7852(2) 1.08390(14)
C22 C 0.2537(3) 0.7450(2) 1.12545(14)
Gd1B Gd 0.558807(10) 1.136028(8) 0.996400(5)
Gd1A Gd -0.441193(10) 1.363972(8) 0.496400(5)
Cd1A Cd -0.006562(15) 1.356320(11) 0.733872(8)
Cd1C Cd 0.006562(15) 0.643680(11) 1.266128(8)
Cd1_2 Cd 1.006562(15) 0.856320(11) 0.766128(8)
O2B O 0.61091(14) 0.98143(11) 1.07895(8)
N1A N 0.3822(2) 0.69713(15) 0.93611(11)
O4B O 0.64017(19) 0.77395(13) 1.07818(10)
O7B O 0.31896(16) 0.99125(13) 1.02713(9)
N2A N -0.02805(18) 0.68847(14) 0.74814(10)
O8A O -0.21234(19) 0.83101(13) 0.66253(10)
N3C N 0.1331(2) 0.82991(18) 0.70311(11)
N4_2 N -0.0943(2) 0.86480(16) 0.84256(11)
O9 O 0.8107(9) 0.9566(6) 0.3969(5)
H13 H 0.8374 0.9361 0.3621
H14 H 0.8787 0.9908 0.4294
O10 O 0.4172(6) 0.4452(5) 0.2537(3)
H15 H 0.4800 0.4303 0.2433
H16 H 0.3562 0.4004 0.2316
O11 O 0.0998(13) 0.9613(8) 0.4717(5)
H17 H 0.1707 0.9139 0.4862
H18 H 0.1419 1.0257 0.4646
loop_
_geom_bond_atom_site_label_1
_geom_bond_atom_site_label_2
_geom_bond_site_symmetry_1
_geom_bond_site_symmetry_2
Gd1 O1 1_555 1_555
Cd1 O1 1_555 1_555
O1 C2 1_555 1_555
O2 Gd1 1_555 1_555
O3 Gd1 1_555 1_555
N1 C10 1_555 1_555
O4 C6 1_555 1_555
O5 Gd1 1_555 1_555
O6 Gd1 1_555 1_555
O7 C7 1_555 1_555
C1 C4 1_555 1_555
N2 C4 1_555 1_555
O8 C6 1_555 1_555
N3 C17 1_555 1_555
N4 C15 1_555 1_555
C2 O2 1_555 1_555
C3 C2 1_555 1_555
C4 N5 1_555 1_555
C5 N2 1_555 1_555
N5 Cd1 1_555 1_555
C6 C5 1_555 1_555
C7 O3 1_555 1_555
C8 C7 1_555 1_555
C9 C8 1_555 1_555
H1 C9 1_555 1_555
C10 C1 1_555 1_555
H2 C10 1_555 1_555
C11 C1 1_555 1_555
H3 C11 1_555 1_555
C12 C11 1_555 1_555
H4 C12 1_555 1_555
C13 N1 1_555 1_555
H5 C13 1_555 1_555
C14 C8 1_555 1_555
H6 C14 1_555 1_555
C15 C9 1_555 1_555
H7 C15 1_555 1_555
C16 N4 1_555 1_555
H8 C16 1_555 1_555
C17 H9 1_555 1_555
C18 C17 1_555 1_555
H10 C18 1_555 1_555
C19 H11 1_555 1_555
C20 N3 1_555 1_555
H12 C20 1_555 1_555
C21 O5 1_555 1_555
C22 C18 1_555 1_555
O9 H13 1_555 1_555
H14 O9 1_555 1_555
O10 H15 1_555 1_555
H16 O10 1_555 1_555
O11 H17 1_555 1_555
H18 O11 1_555 1_555
Gd1B O2 1_555 1_555
Gd1A N1 1_555 1_555
Cd1A N2 1_555 1_555
Cd1C N3 1_555 1_555
Cd1_2 N4 1_555 1_555
O2B Gd1 1_555 1_555
N1A Gd1 1_555 1_555
O4B Gd1 1_555 1_555
O7B Gd1 1_555 1_555
N2A Cd1 1_555 1_555
O8A Cd1 1_555 1_555
N3C Cd1 1_555 1_555
N4_2 Cd1 1_555 1_555
O4 Gd1B 1_555 1_555
O6 C21 1_555 1_555
O7 Gd1B 1_555 1_555
O8 Cd1A 1_555 1_555
C3 C5 1_555 1_555
C3 N5 1_555 1_555
C12 C13 1_555 1_555
C14 C16 1_555 1_555
C19 C20 1_555 1_555
C19 C22 1_555 1_555
C21 C22 1_555 1_555
Gd1B O2B 1_555 1_555

#END
