
#######################################################################
#
#                 Cambridge Crystallographic Data Centre
#                                CCDC 
#
#######################################################################
#
# If this CIF has been generated from an entry in the Cambridge 
# Structural Database, then it will include bibliographic, chemical, 
# crystal, experimental, refinement or atomic coordinate data resulting 
# from the CCDC's data processing and validation procedures.
#
#######################################################################

data_PEKHAQ
_symmetry_cell_setting           monoclinic
_symmetry_space_group_name_H-M   'P 21/c'
_symmetry_Int_Tables_number      14
_space_group_name_Hall           '-P 2ybc'
loop_
_symmetry_equiv_pos_site_id
_symmetry_equiv_pos_as_xyz
1 x,y,z
2 -x,1/2+y,1/2-z
3 -x,-y,-z
4 x,1/2-y,1/2+z
_cell_length_a                   10.735(3)
_cell_length_b                   12.978(4)
_cell_length_c                   20.868(5)
_cell_angle_alpha                90
_cell_angle_beta                 120.266(11)
_cell_angle_gamma                90
_cell_volume                     2511.02
loop_
_atom_site_label
_atom_site_type_symbol
_atom_site_fract_x
_atom_site_fract_y
_atom_site_fract_z
Eu1 Eu 0.57239(3) 0.85745(2) 0.508231(13)
Zn1 Zn 0.53370(7) 0.84739(5) 0.27190(3)
O1 O 0.5236(4) 0.8890(3) 0.37386(18)
O2 O 0.4552(4) 1.0122(3) 0.42058(19)
O3 O 0.4773(5) 1.2318(3) 0.4130(2)
O4 O 0.4563(5) 1.3344(3) 0.3240(2)
O5 O 0.7395(4) 0.9922(3) 0.5245(2)
O6 O 0.6912(4) 1.1480(3) 0.5535(2)
O7 O 0.7876(5) 0.7692(3) 0.5215(2)
O8 O 0.8043(5) 0.8223(4) 0.6256(3)
N1 N 0.5069(5) 1.0102(3) 0.2633(2)
N2 N 0.4726(5) 1.1808(3) 0.2436(2)
N3 N 0.5047(6) 1.1794(4) 0.0536(3)
N4 N 1.2304(5) 1.1439(4) 0.6578(3)
N5 N 1.2943(6) 0.6704(4) 0.7144(3)
C1 C 0.4856(5) 0.9816(4) 0.3724(3)
C2 C 0.4819(5) 1.0510(4) 0.3166(3)
C3 C 0.4646(6) 1.1573(4) 0.3054(3)
C4 C 0.4624(6) 1.2465(4) 0.3504(3)
C5 C 0.5007(6) 1.0912(4) 0.2214(3)
C6 C 0.5374(7) 1.0895(4) 0.1614(3)
C7 C 0.6474(8) 1.0316(5) 0.1643(4)
H1 H 0.6963 0.9837 0.2020
C8 C 0.6842(9) 1.0458(5) 0.1099(4)
H2 H 0.7565 1.0070 0.1093
C9 C 0.6074(9) 1.1216(5) 0.0555(4)
H3 H 0.6308 1.1313 0.0186
C10 C 0.4676(7) 1.1592(5) 0.1044(3)
H4 H 0.3892 1.1946 0.1011
C11 C 0.7743(6) 1.0803(5) 0.5526(3)
C12 C 0.9333(6) 1.1058(4) 0.5884(3)
C13 C 1.0259(6) 1.0354(5) 0.5867(4)
H5 H 0.9906 0.9728 0.5624
C14 C 0.9925(7) 1.1981(5) 0.6248(4)
H6 H 0.9334 1.2494 0.6262
C15 C 1.1717(6) 1.0563(5) 0.6207(4)
H7 H 1.2319 1.0074 0.6177
C16 C 1.1399(7) 1.2130(5) 0.6590(4)
H8 H 1.1779 1.2746 0.6842
C17 C 0.8575(7) 0.7785(5) 0.5903(4)
C18 C 1.0092(7) 0.7400(5) 0.6339(3)
C19 C 1.0835(7) 0.7394(6) 0.7097(4)
H9 H 1.0392 0.7626 0.7355
C20 C 1.0778(8) 0.7037(7) 0.5982(4)
H10 H 1.0305 0.7020 0.5467
C21 C 1.2242(7) 0.7046(6) 0.7481(4)
H11 H 1.2723 0.7049 0.7997
C22 C 1.2198(8) 0.6694(7) 0.6403(4)
H12 H 1.2651 0.6444 0.6155
Eu1B Eu 0.42761(3) 1.14255(2) 0.491769(13)
Eu1A Eu 0.42761(3) 1.35745(2) -0.008231(13)
Zn1A Zn 0.46630(7) 1.34739(5) 0.22810(3)
Zn1B Zn 1.46630(7) 1.15261(5) 0.72810(3)
Zn1C Zn 1.53370(7) 0.65261(5) 0.77190(3)
O2B O 0.5448(4) 0.9878(3) 0.57942(19)
O3B O 0.5227(5) 0.7682(3) 0.5870(2)
O4A O 0.5437(5) 0.8344(3) 0.1760(2)
O6B O 0.3088(4) 0.8520(3) 0.4465(2)
N2A N 0.5274(5) 0.6808(3) 0.2564(2)
N3A N 0.4953(6) 0.6794(4) 0.4464(3)
N4B N 0.7696(5) 0.8561(4) 0.3422(3)
N5C N 0.2943(6) 0.8296(4) 0.2144(3)
O9 O 0.0849(13) 0.0490(10) 0.2451(7)
H13 H 0.1289 -0.0044 0.2698
H14 H 0.1112 0.0995 0.2751
O10 O 0.176(4) 0.442(4) 0.516(2)
H15 H 0.1499 0.4998 0.5033
H16 H 0.1494 0.4163 0.5427
O11 O 0.036(4) 0.454(3) 0.603(2)
H17 H 0.1133 0.4448 0.6365
H18 H -0.0258 0.4540 0.6149
loop_
_geom_bond_atom_site_label_1
_geom_bond_atom_site_label_2
_geom_bond_site_symmetry_1
_geom_bond_site_symmetry_2
Eu1 O1 1_555 1_555
Zn1 O1 1_555 1_555
O1 C1 1_555 1_555
O2 Eu1 1_555 1_555
O3 C4 1_555 1_555
O4 C4 1_555 1_555
O5 Eu1 1_555 1_555
O6 C11 1_555 1_555
O7 Eu1 1_555 1_555
O8 Eu1 1_555 1_555
N1 Zn1 1_555 1_555
N2 C3 1_555 1_555
N3 C9 1_555 1_555
N4 C15 1_555 1_555
N5 C21 1_555 1_555
C1 O2 1_555 1_555
C2 N1 1_555 1_555
C3 C2 1_555 1_555
C4 C3 1_555 1_555
C5 N1 1_555 1_555
C6 C5 1_555 1_555
C7 C6 1_555 1_555
H1 C7 1_555 1_555
C8 C7 1_555 1_555
H2 C8 1_555 1_555
C9 C8 1_555 1_555
H3 C9 1_555 1_555
C10 N3 1_555 1_555
H4 C10 1_555 1_555
C11 O5 1_555 1_555
C12 C11 1_555 1_555
C13 C12 1_555 1_555
H5 C13 1_555 1_555
C14 C12 1_555 1_555
H6 C14 1_555 1_555
C15 C13 1_555 1_555
H7 C15 1_555 1_555
C16 N4 1_555 1_555
H8 C16 1_555 1_555
C17 O7 1_555 1_555
C18 C17 1_555 1_555
C19 C18 1_555 1_555
H9 C19 1_555 1_555
C20 C18 1_555 1_555
H10 C20 1_555 1_555
C21 C19 1_555 1_555
H11 C21 1_555 1_555
C22 N5 1_555 1_555
H12 C22 1_555 1_555
O9 H13 1_555 1_555
H14 O9 1_555 1_555
O10 H15 1_555 1_555
H16 O10 1_555 1_555
O11 H17 1_555 1_555
H18 O11 1_555 1_555
Eu1B O2 1_555 1_555
Eu1A N3 1_555 1_555
Zn1A O4 1_555 1_555
Zn1B N4 1_555 1_555
Zn1C N5 1_555 1_555
O2B Eu1 1_555 1_555
O3B Eu1 1_555 1_555
O4A Zn1 1_555 1_555
O6B Eu1 1_555 1_555
N2A Zn1 1_555 1_555
N3A Eu1 1_555 1_555
N4B Zn1 1_555 1_555
N5C Zn1 1_555 1_555
O3 Eu1B 1_555 1_555
O6 Eu1B 1_555 1_555
O8 C17 1_555 1_555
N2 C5 1_555 1_555
N2 Zn1A 1_555 1_555
C1 C2 1_555 1_555
C6 C10 1_555 1_555
C14 C16 1_555 1_555
C20 C22 1_555 1_555
Eu1B O2B 1_555 1_555

#END
