
#######################################################################
#
#                 Cambridge Crystallographic Data Centre
#                                CCDC 
#
#######################################################################
#
# If this CIF has been generated from an entry in the Cambridge 
# Structural Database, then it will include bibliographic, chemical, 
# crystal, experimental, refinement or atomic coordinate data resulting 
# from the CCDC's data processing and validation procedures.
#
#######################################################################

data_PEKHUK
_symmetry_cell_setting           monoclinic
_symmetry_space_group_name_H-M   'P 21/c'
_symmetry_Int_Tables_number      14
_space_group_name_Hall           '-P 2ybc'
loop_
_symmetry_equiv_pos_site_id
_symmetry_equiv_pos_as_xyz
1 x,y,z
2 -x,1/2+y,1/2-z
3 -x,-y,-z
4 x,1/2-y,1/2+z
_cell_length_a                   10.9838(19)
_cell_length_b                   13.543(2)
_cell_length_c                   20.830(3)
_cell_angle_alpha                90
_cell_angle_beta                 121.372(6)
_cell_angle_gamma                90
_cell_volume                     2645.55
loop_
_atom_site_label
_atom_site_type_symbol
_atom_site_fract_x
_atom_site_fract_y
_atom_site_fract_z
Tb1 Tb 0.55857(11) 0.86431(8) 0.99618(5)
Cd1 Cd -0.00692(16) 0.64390(11) 0.73388(8)
O1 O 0.2091(18) 0.6681(12) 0.8369(10)
O2 O 0.3590(18) 0.7764(11) 0.9224(9)
O3 O 0.3877(14) 0.9835(10) 0.9203(7)
O4 O 0.2301(16) 1.0997(12) 0.8750(8)
O5 O 0.4290(18) 0.8610(12) 1.0609(10)
O6 O 0.3190(19) 1.0087(12) 1.0274(10)
O7 O 0.555(2) 0.8177(16) 0.8807(11)
O8 O 0.751(2) 0.7848(13) 0.9885(10)
N1 N 0.0257(18) 0.8104(12) 0.7511(9)
N2 N 0.0275(19) 0.9765(13) 0.7649(10)
N3 N -0.3815(19) 0.8025(15) 0.5636(10)
N4 N 0.095(2) 0.8634(16) 1.1583(10)
N5 N 0.867(2) 0.6685(16) 0.7968(13)
C1 C 0.251(2) 0.7531(16) 0.8622(12)
C2 C 0.160(2) 0.8380(15) 0.8139(11)
C3 C 0.158(2) 0.9376(15) 0.8205(11)
C4 C 0.262(2) 1.0079(17) 0.8722(11)
C5 C -0.048(2) 0.8947(15) 0.7266(12)
C6 C -0.199(2) 0.8938(16) 0.6673(13)
C7 C -0.299(3) 0.9586(18) 0.6655(15)
H1 H -0.2717 1.0104 0.6996
C8 C -0.441(3) 0.9428(19) 0.6106(16)
H2 H -0.5110 0.9851 0.6070
C9 C -0.478(3) 0.865(2) 0.5623(16)
H3 H -0.5737 0.8556 0.5267
C10 C -0.246(2) 0.8201(15) 0.6134(11)
H4 H -0.1779 0.7805 0.6123
C11 C 0.342(2) 0.9284(18) 1.0557(14)
C12 C 0.254(3) 0.9036(19) 1.0910(14)
C13 C 0.271(3) 0.8157(19) 1.1301(15)
H5 H 0.3376 0.7688 1.1351
C14 C 0.155(3) 0.967(2) 1.0872(15)
H6 H 0.1403 1.0271 1.0622
C15 C 0.077(3) 0.946(2) 1.1192(16)
H7 H 0.0076 0.9905 1.1134
C16 C 0.189(3) 0.800(2) 1.1608(16)
H8 H 0.1992 0.7398 1.1850
C17 C 0.680(3) 0.785(2) 0.9167(15)
C18 C 0.745(3) 0.746(2) 0.8756(15)
C19 C 0.664(3) 0.727(2) 0.8001(15)
H9 H 0.5663 0.7382 0.7735
C20 C 0.888(3) 0.723(2) 0.9114(17)
H10 H 0.9466 0.7319 0.9630
C21 C 0.731(3) 0.690(2) 0.7640(16)
H11 H 0.6743 0.6786 0.7125
C22 C 0.944(4) 0.685(2) 0.8703(17)
H12 H 1.0408 0.6715 0.8955
Tb1B Tb 0.44143(11) 1.13569(8) 1.00382(5)
Tb1C Tb -0.44143(11) 0.63569(8) 0.49618(5)
Cd1A Cd 0.00692(16) 1.14390(11) 0.76612(8)
Cd1C Cd -0.00692(16) 0.85610(11) 1.23388(8)
Cd1_2 Cd 0.99308(16) 0.64390(11) 0.73388(8)
O3B O 0.6123(14) 1.0165(10) 1.0797(7)
O4B O 0.7699(16) 0.9003(12) 1.1250(8)
O4A O -0.2301(16) 0.5997(12) 0.6250(8)
O6B O 0.6810(19) 0.9913(12) 0.9726(10)
N2A N -0.0275(19) 0.4765(13) 0.7351(10)
N3C N 0.6185(19) 0.6975(15) 1.0636(10)
N4C N 0.095(2) 0.6366(16) 0.6583(10)
N5_2 N -0.133(2) 0.6685(16) 0.7968(13)
O9 O 0.411(7) 0.560(5) 0.249(3)
H13 H 0.4172 0.5243 0.2844
H14 H 0.4745 0.6043 0.2584
O10 O 0.149(14) 0.528(11) 0.081(7)
H15 H 0.1854 0.5791 0.0716
H16 H 0.2314 0.5121 0.1220
loop_
_geom_bond_atom_site_label_1
_geom_bond_atom_site_label_2
_geom_bond_site_symmetry_1
_geom_bond_site_symmetry_2
Tb1 O2 1_555 1_555
Cd1 O1 1_555 1_555
O1 C1 1_555 1_555
O2 C1 1_555 1_555
O3 Tb1 1_555 1_555
O4 C4 1_555 1_555
O5 Tb1 1_555 1_555
O6 C11 1_555 1_555
O7 Tb1 1_555 1_555
O8 Tb1 1_555 1_555
N1 Cd1 1_555 1_555
N2 C3 1_555 1_555
N3 C9 1_555 1_555
N4 C15 1_555 1_555
N5 C21 1_555 1_555
C1 C2 1_555 1_555
C2 N1 1_555 1_555
C3 C2 1_555 1_555
C4 O3 1_555 1_555
C5 N1 1_555 1_555
C6 C5 1_555 1_555
C7 C6 1_555 1_555
H1 C7 1_555 1_555
C8 C7 1_555 1_555
H2 C8 1_555 1_555
C9 C8 1_555 1_555
H3 C9 1_555 1_555
C10 N3 1_555 1_555
H4 C10 1_555 1_555
C11 O5 1_555 1_555
C12 C11 1_555 1_555
C13 C12 1_555 1_555
H5 C13 1_555 1_555
C14 C12 1_555 1_555
H6 C14 1_555 1_555
C15 C14 1_555 1_555
H7 C15 1_555 1_555
C16 N4 1_555 1_555
H8 C16 1_555 1_555
C17 O7 1_555 1_555
C18 C17 1_555 1_555
C19 C18 1_555 1_555
H9 C19 1_555 1_555
C20 C18 1_555 1_555
H10 C20 1_555 1_555
C21 C19 1_555 1_555
H11 C21 1_555 1_555
C22 N5 1_555 1_555
H12 C22 1_555 1_555
O9 H13 1_555 1_555
H14 O9 1_555 1_555
O10 H15 1_555 1_555
H16 O10 1_555 1_555
Tb1B O3 1_555 1_555
Tb1C N3 1_555 1_555
Cd1A O4 1_555 1_555
Cd1C N4 1_555 1_555
Cd1_2 N5 1_555 1_555
O3B Tb1 1_555 1_555
O4B Tb1 1_555 1_555
O4A Cd1 1_555 1_555
O6B Tb1 1_555 1_555
N2A Cd1 1_555 1_555
N3C Tb1 1_555 1_555
N4C Cd1 1_555 1_555
N5_2 Cd1 1_555 1_555
O4 Tb1B 1_555 1_555
O6 Tb1B 1_555 1_555
O8 C17 1_555 1_555
N2 C5 1_555 1_555
N2 Cd1A 1_555 1_555
C3 C4 1_555 1_555
C6 C10 1_555 1_555
C13 C16 1_555 1_555
C20 C22 1_555 1_555
Tb1B O3B 1_555 1_555
Tb1C O4A 1_555 1_555

#END
