
#######################################################################
#
#                 Cambridge Crystallographic Data Centre
#                                CCDC 
#
#######################################################################
#
# If this CIF has been generated from an entry in the Cambridge 
# Structural Database, then it will include bibliographic, chemical, 
# crystal, experimental, refinement or atomic coordinate data resulting 
# from the CCDC's data processing and validation procedures.
#
#######################################################################

data_PEKJAS
_symmetry_cell_setting           monoclinic
_symmetry_space_group_name_H-M   'P 21/c'
_symmetry_Int_Tables_number      14
_space_group_name_Hall           '-P 2ybc'
loop_
_symmetry_equiv_pos_site_id
_symmetry_equiv_pos_as_xyz
1 x,y,z
2 -x,1/2+y,1/2-z
3 -x,-y,-z
4 x,1/2-y,1/2+z
_cell_length_a                   10.6901(12)
_cell_length_b                   12.9647(15)
_cell_length_c                   20.7464(18)
_cell_angle_alpha                90
_cell_angle_beta                 120.143(4)
_cell_angle_gamma                90
_cell_volume                     2486.51
loop_
_atom_site_label
_atom_site_type_symbol
_atom_site_fract_x
_atom_site_fract_y
_atom_site_fract_z
Tb1 Tb 0.92851(3) 0.141631(19) 0.492237(13)
Zn1 Zn 0.96709(7) 0.15213(5) 0.72870(3)
O1 O 0.9774(4) 0.1108(3) 0.62583(18)
O2 O 1.0463(4) -0.0131(3) 0.57866(19)
O3 O 1.0254(5) -0.2327(3) 0.5862(2)
O4 O 1.0433(5) -0.3349(3) 0.6750(2)
O5 O 0.7612(4) 0.0099(3) 0.4774(2)
O6 O 0.8106(4) -0.1459(3) 0.4480(2)
O7 O 0.7148(4) 0.2317(3) 0.4782(2)
O8 O 0.6950(5) 0.1737(4) 0.3736(2)
N1 N 0.9941(5) -0.0105(3) 0.7367(2)
N2 N 1.0277(5) -0.1817(3) 0.7559(2)
N3 N 0.9926(5) -0.1834(4) 0.9460(3)
N4 N 0.2691(5) -0.1419(4) 0.3416(2)
N5 N 0.2073(5) 0.3286(4) 0.2864(3)
C1 C 1.0159(5) 0.0176(4) 0.6269(3)
C2 C 1.0193(6) -0.0517(4) 0.6836(3)
C3 C 1.0371(6) -0.1579(4) 0.6942(3)
C4 C 1.0386(6) -0.2465(4) 0.6490(3)
C5 C 0.9991(6) -0.0913(4) 0.7785(3)
C6 C 0.9621(6) -0.0909(4) 0.8381(3)
C7 C 0.8515(7) -0.0332(5) 0.8365(4)
H1 H 0.8016 0.0150 0.7990
C8 C 0.8160(8) -0.0484(5) 0.8917(4)
H2 H 0.7455 -0.0083 0.8934
C9 C 0.8880(8) -0.1245(5) 0.9441(4)
H3 H 0.8623 -0.1355 0.9802
C10 C 1.0309(6) -0.1628(4) 0.8951(3)
H4 H 1.1087 -0.1990 0.8979
C11 C 0.7268(6) -0.0786(5) 0.4489(3)
C12 C 0.5670(6) -0.1042(4) 0.4125(3)
C13 C 0.5082(7) -0.1965(5) 0.3766(3)
H5 H 0.5679 -0.2482 0.3759
C14 C 0.3613(7) -0.2117(5) 0.3419(4)
H6 H 0.3241 -0.2740 0.3174
C15 C 0.3276(6) -0.0548(5) 0.3787(3)
H7 H 0.2667 -0.0059 0.3814
C16 C 0.4730(6) -0.0331(5) 0.4132(4)
H8 H 0.5075 0.0300 0.4370
C17 C 0.6430(7) 0.2192(5) 0.4090(4)
C18 C 0.4898(7) 0.2591(5) 0.3653(4)
C19 C 0.4164(7) 0.2603(5) 0.2891(4)
H9 H 0.4605 0.2373 0.2629
C20 C 0.2772(7) 0.2959(5) 0.2519(4)
H10 H 0.2288 0.2974 0.2001
C21 C 0.2801(7) 0.3289(6) 0.3603(4)
H11 H 0.2343 0.3534 0.3853
C22 C 0.4222(8) 0.2940(6) 0.4021(4)
H12 H 0.4699 0.2946 0.4539
Tb1B Tb 1.07149(3) -0.141631(19) 0.507763(13)
Tb1A Tb 1.07149(3) -0.358369(19) 1.007763(13)
Zn1A Zn 1.03291(7) -0.34787(5) 0.77130(3)
Zn1B Zn 0.03291(7) -0.15213(5) 0.27130(3)
Zn1C Zn -0.03291(7) 0.34787(5) 0.22870(3)
O2B O 0.9537(4) 0.0131(3) 0.42134(19)
O3B O 0.9746(5) 0.2327(3) 0.4138(2)
O4A O 0.9567(5) 0.1651(3) 0.8250(2)
O6B O 1.1894(4) 0.1459(3) 0.5520(2)
N2A N 0.9723(5) 0.3183(3) 0.7441(2)
N3A N 1.0074(5) 0.3166(4) 0.5540(3)
N4B N 0.7309(5) 0.1419(4) 0.6584(2)
N5C N 1.2073(5) 0.1714(4) 0.7864(3)
O9 O 0.4100(10) 0.9567(8) 0.7531(5)
H13 H 0.3926 0.9160 0.7192
H14 H 0.4945 0.9754 0.7705
O10 O 0.464(2) 0.9504(12) 0.8987(10)
H15 H 0.4476 0.8887 0.9061
H16 H 0.4699 0.9510 0.8592
O11 O 0.6845(18) 0.4517(15) 0.5199(9)
H17 H 0.6318 0.4951 0.4855
H18 H 0.7284 0.4706 0.5659
loop_
_geom_bond_atom_site_label_1
_geom_bond_atom_site_label_2
_geom_bond_site_symmetry_1
_geom_bond_site_symmetry_2
Tb1 O1 1_555 1_555
Zn1 O1 1_555 1_555
O1 C1 1_555 1_555
O2 Tb1 1_555 1_555
O3 C4 1_555 1_555
O4 C4 1_555 1_555
O5 Tb1 1_555 1_555
O6 C11 1_555 1_555
O7 Tb1 1_555 1_555
O8 Tb1 1_555 1_555
N1 Zn1 1_555 1_555
N2 C3 1_555 1_555
N3 C9 1_555 1_555
N4 C14 1_555 1_555
N5 C20 1_555 1_555
C1 O2 1_555 1_555
C2 N1 1_555 1_555
C3 C2 1_555 1_555
C4 C3 1_555 1_555
C5 N1 1_555 1_555
C6 C5 1_555 1_555
C7 C6 1_555 1_555
H1 C7 1_555 1_555
C8 C7 1_555 1_555
H2 C8 1_555 1_555
C9 C8 1_555 1_555
H3 C9 1_555 1_555
C10 N3 1_555 1_555
H4 C10 1_555 1_555
C11 O5 1_555 1_555
C12 C11 1_555 1_555
C13 C12 1_555 1_555
H5 C13 1_555 1_555
C14 C13 1_555 1_555
H6 C14 1_555 1_555
C15 N4 1_555 1_555
H7 C15 1_555 1_555
C16 C12 1_555 1_555
H8 C16 1_555 1_555
C17 O7 1_555 1_555
C18 C17 1_555 1_555
C19 C18 1_555 1_555
H9 C19 1_555 1_555
C20 C19 1_555 1_555
H10 C20 1_555 1_555
C21 N5 1_555 1_555
H11 C21 1_555 1_555
C22 C18 1_555 1_555
H12 C22 1_555 1_555
O9 H13 1_555 1_555
H14 O9 1_555 1_555
O10 H15 1_555 1_555
H16 O10 1_555 1_555
O11 H17 1_555 1_555
H18 O11 1_555 1_555
Tb1B O2 1_555 1_555
Tb1A N3 1_555 1_555
Zn1A O4 1_555 1_555
Zn1B N4 1_555 1_555
Zn1C N5 1_555 1_555
O2B Tb1 1_555 1_555
O3B Tb1 1_555 1_555
O4A Zn1 1_555 1_555
O6B Tb1 1_555 1_555
N2A Zn1 1_555 1_555
N3A Tb1 1_555 1_555
N4B Zn1 1_555 1_555
N5C Zn1 1_555 1_555
O3 Tb1B 1_555 1_555
O6 Tb1B 1_555 1_555
O8 C17 1_555 1_555
N2 C5 1_555 1_555
N2 Zn1A 1_555 1_555
C1 C2 1_555 1_555
C6 C10 1_555 1_555
C15 C16 1_555 1_555
C21 C22 1_555 1_555
Tb1B O2B 1_555 1_555

#END
