
#######################################################################
#
#                 Cambridge Crystallographic Data Centre
#                                CCDC 
#
#######################################################################
#
# If this CIF has been generated from an entry in the Cambridge 
# Structural Database, then it will include bibliographic, chemical, 
# crystal, experimental, refinement or atomic coordinate data resulting 
# from the CCDC's data processing and validation procedures.
#
#######################################################################

data_PEKKEW
_symmetry_cell_setting           hexagonal
_symmetry_space_group_name_H-M   'P 62 2 2'
_symmetry_Int_Tables_number      180
_space_group_name_Hall           "P 62 2' (0,0,4)"
loop_
_symmetry_equiv_pos_site_id
_symmetry_equiv_pos_as_xyz
1 x,y,z
2 -x,-y,z
3 -y,-x,2/3-z
4 y,x,2/3-z
5 x-y,-y,-z
6 -x+y,y,-z
7 x,x-y,1/3-z
8 -x,-x+y,1/3-z
9 -y,x-y,2/3+z
10 y,-x+y,2/3+z
11 x-y,x,1/3+z
12 -x+y,-x,1/3+z
_cell_length_a                   8.8667(2)
_cell_length_b                   8.8667(2)
_cell_length_c                   11.4908(4)
_cell_angle_alpha                90
_cell_angle_beta                 90
_cell_angle_gamma                120
_cell_volume                     782.357
loop_
_atom_site_label
_atom_site_type_symbol
_atom_site_fract_x
_atom_site_fract_y
_atom_site_fract_z
Sc1 Sc 0.5000 0.5000 0.3333
K1 K 0.0000 0.0000 0.3333
C1 C 0.2089(4) 0.4177(8) 0.5000
C2 C 0.3079(3) 0.6157(7) 0.5000
O1 O 0.2633(4) 0.3425(4) 0.4339(3)
O2 O 0.4461(4) 0.6862(4) 0.4436(3)
O3 O 0.0000(8) 0.2310 0.1667
H1 H 0.089(3) 0.342(5) 0.138(7)
Sc1D Sc 0.0000 0.5000 0.6667
Sc1D_2 Sc 1.0000 0.5000 0.6667
K1F K 0.0000 0.0000 0.0000
K1D K 0.0000 0.0000 0.6667
K1_2 K 1.0000 1.0000 0.3333
K1D_2 K 1.0000 1.0000 0.6667
C1A C 0.7911(4) 0.5823(8) 0.5000
C2A C 0.6921(3) 0.3843(7) 0.5000
O1E O 0.0792(6) 0.3425(4) 0.5661(3)
O1A O 0.7367(4) 0.6575(4) 0.4339(3)
O1D O 0.9208(6) 0.6575(4) 0.5661(3)
O1B O 0.6575(4) 0.7367(4) 0.2328(3)
O1C O 0.3425(4) 0.2633(4) 0.2328(3)
O1A_2 O -0.2633(4) -0.3425(4) 0.4339(3)
O1B_2 O -0.3425(4) -0.2633(4) 0.2328(3)
O2E O 0.2401(6) 0.6862(4) 0.5564(3)
O2A O 0.5539(4) 0.3138(4) 0.4436(3)
O2D O 0.7599(6) 0.3138(4) 0.5564(3)
O2B O 0.3138(4) 0.5539(4) 0.2231(3)
O2C O 0.6862(4) 0.4461(4) 0.2231(3)
O3A O 0.0000(8) -0.2310 0.1667
O3B O -0.2310 0.0000(8) 0.5000
O3C O 0.2310 0.0000(8) 0.5000
H1G H -0.089(3) 0.253(6) 0.195(7)
H1A H -0.089(3) -0.342(5) 0.138(7)
H1F H 0.089(3) -0.253(6) 0.195(7)
H1B H -0.342(5) -0.089(3) 0.529(7)
H1J H -0.253(6) 0.089(3) 0.471(7)
H1C H 0.342(5) 0.089(3) 0.529(7)
H1K H 0.253(6) -0.089(3) 0.471(7)
loop_
_geom_bond_atom_site_label_1
_geom_bond_atom_site_label_2
_geom_bond_site_symmetry_1
_geom_bond_site_symmetry_2
Sc1 O1 1_555 1_555
K1 O1 1_555 1_555
C1 C2 1_555 1_555
C2 O2 1_555 1_555
O1 C1 1_555 1_555
O2 Sc1 1_555 1_555
O3 K1 1_555 1_555
H1 O3 1_555 1_555
Sc1D O1E 1_555 1_555
Sc1D_2 O1D 1_555 1_555
K1F O3 1_555 1_555
K1D O1E 1_555 1_555
K1_2 O1A 1_555 1_555
K1D_2 O1D 1_555 1_555
C1A C2A 1_555 1_555
C2A O2A 1_555 1_555
O1E C1 1_555 1_555
O1A Sc1 1_555 1_555
O1D C1A 1_555 1_555
O1B Sc1 1_555 1_555
O1C Sc1 1_555 1_555
O1A_2 K1 1_555 1_555
O1B_2 K1 1_555 1_555
O2E C2 1_555 1_555
O2A Sc1 1_555 1_555
O2D Sc1D_2 1_555 1_555
O2B Sc1 1_555 1_555
O2C Sc1 1_555 1_555
O3A K1 1_555 1_555
O3B K1 1_555 1_555
O3C K1 1_555 1_555
H1G O3 1_555 1_555
H1A O3A 1_555 1_555
H1F O3A 1_555 1_555
H1B O3B 1_555 1_555
H1J O3B 1_555 1_555
H1C O3C 1_555 1_555
H1K O3C 1_555 1_555
K1 O1C 1_555 1_555
Sc1D O2E 1_555 1_555
K1F O3A 1_555 1_555
K1D O3B 1_555 1_555
K1D O3C 1_555 1_555
K1_2 O1B 1_555 1_555
C1A O1A 1_555 1_555
C2A O2D 1_555 1_555

#END
