
#######################################################################
#
#                 Cambridge Crystallographic Data Centre
#                                CCDC 
#
#######################################################################
#
# If this CIF has been generated from an entry in the Cambridge 
# Structural Database, then it will include bibliographic, chemical, 
# crystal, experimental, refinement or atomic coordinate data resulting 
# from the CCDC's data processing and validation procedures.
#
#######################################################################

data_PEKTIK
_symmetry_cell_setting           triclinic
_symmetry_space_group_name_H-M   'P -1'
_symmetry_Int_Tables_number      2
_space_group_name_Hall           '-P 1'
loop_
_symmetry_equiv_pos_site_id
_symmetry_equiv_pos_as_xyz
1 x,y,z
2 -x,-y,-z
_cell_length_a                   10.3359(9)
_cell_length_b                   10.9742(10)
_cell_length_c                   13.6908(12)
_cell_angle_alpha                91.6120(10)
_cell_angle_beta                 111.9100(10)
_cell_angle_gamma                107.3390(10)
_cell_volume                     1358.16
loop_
_atom_site_label
_atom_site_type_symbol
_atom_site_fract_x
_atom_site_fract_y
_atom_site_fract_z
C1 C 0.4562(4) 0.8698(4) 0.5747(4)
H1 H 0.3809 0.8984 0.5317
C2 C 0.5692(5) 0.9538(4) 0.6638(3)
H2 H 0.5667 1.0352 0.6814
C3 C 0.6865(4) 0.9143(4) 0.7265(3)
C4 C 0.6799(5) 0.7892(4) 0.7004(3)
H3 H 0.7536 0.7581 0.7420
C5 C 0.5608(4) 0.7103(4) 0.6104(4)
H4 H 0.5580 0.6267 0.5934
C6 C 0.8138(5) 1.0046(4) 0.8160(3)
C7 C 0.9585(5) 1.0104(4) 0.8534(3)
H5 H 0.9903 0.9489 0.8299
C8 C 1.0541(5) 1.1192(4) 0.9311(3)
H6 H 1.1561 1.1389 0.9622
C9 C 0.9818(5) 1.1941(4) 0.9569(3)
C10 C 1.0434(5) 1.3052(4) 1.0405(3)
C11 C 1.1919(5) 1.3812(5) 1.0784(4)
H7 H 1.2521 1.3651 1.0470
C12 C 1.2489(5) 1.4797(5) 1.1621(4)
H8 H 1.3479 1.5301 1.1849
C13 C 1.0266(5) 1.4394(5) 1.1747(4)
H9 H 0.9690 1.4602 1.2064
C14 C 0.9596(5) 1.3386(5) 1.0893(4)
H10 H 0.8588 1.2936 1.0648
C15 C -0.4290(4) 0.7155(4) 0.3578(3)
C16 C -0.2799(4) 0.7927(4) 0.3598(3)
C17 C -0.2457(4) 0.9266(4) 0.3596(3)
H11 H -0.3152 0.9656 0.3569
C18 C -0.1093(4) 1.0005(4) 0.3636(3)
C19 C -0.0063(4) 0.9422(4) 0.3647(3)
H12 H 0.0853 0.9921 0.3671
C20 C -0.0405(4) 0.8094(4) 0.3623(3)
C21 C -0.1771(4) 0.7356(4) 0.3602(3)
H13 H -0.1996 0.6469 0.3591
C22 C 0.0712(4) 0.7466(4) 0.3619(3)
C23 C -0.0714(4) 1.1449(4) 0.3661(4)
Cd1 Cd 0.28925(3) 0.64554(2) 0.37460(2)
N1 N 0.4507(4) 0.7487(3) 0.5477(3)
N2 N 1.1714(4) 1.5075(3) 1.2128(3)
O1 O -0.5311(3) 0.7639(3) 0.3237(2)
O2 O -0.4452(3) 0.6074(3) 0.3901(2)
O3 O 0.0432(3) 0.6265(3) 0.3652(3)
O4 O 0.1897(3) 0.8162(3) 0.3592(2)
O5 O -0.1715(3) 1.1870(3) 0.3779(3)
H14 H -0.1781 1.2594 0.3408
O6 O 0.0392(3) 1.2125(3) 0.3578(3)
O7 O 0.2388(3) 0.4606(3) 0.4581(2)
H15 H 0.1444 0.4440 0.4620
H16 H 0.3142 0.4758 0.5287
S1 S 0.79413(11) 1.13068(10) 0.88060(9)
Cd1_2 Cd 1.28925(3) 1.64554(2) 1.37460(2)
Cd1_3 Cd -0.71075(3) 0.64554(2) 0.37460(2)
N2_2 N 0.1714(4) 0.5075(3) 0.2128(3)
O1_2 O 0.4689(3) 0.7639(3) 0.3237(2)
O8 O 0.8445(4) 0.4232(3) 0.3883(3)
H17 H 0.7655 0.3730 0.4063
H18? H 0.9377 0.4294 0.4438
loop_
_geom_bond_atom_site_label_1
_geom_bond_atom_site_label_2
_geom_bond_site_symmetry_1
_geom_bond_site_symmetry_2
C1 H1 1_555 1_555
C2 C1 1_555 1_555
H2 C2 1_555 1_555
C3 C2 1_555 1_555
C4 C3 1_555 1_555
H3 C4 1_555 1_555
C5 C4 1_555 1_555
H4 C5 1_555 1_555
C6 C3 1_555 1_555
C7 C6 1_555 1_555
H5 C7 1_555 1_555
C8 C7 1_555 1_555
H6 C8 1_555 1_555
C9 C8 1_555 1_555
C10 C9 1_555 1_555
C11 C10 1_555 1_555
H7 C11 1_555 1_555
C12 C11 1_555 1_555
H8 C12 1_555 1_555
C13 H9 1_555 1_555
C14 C10 1_555 1_555
H10 C14 1_555 1_555
C15 C16 1_555 1_555
C16 C17 1_555 1_555
C17 H11 1_555 1_555
C18 C17 1_555 1_555
C19 C18 1_555 1_555
H12 C19 1_555 1_555
C20 C19 1_555 1_555
C21 C16 1_555 1_555
H13 C21 1_555 1_555
C22 C20 1_555 1_555
C23 C18 1_555 1_555
Cd1 N1 1_555 1_555
N1 C1 1_555 1_555
N2 C12 1_555 1_555
O1 C15 1_555 1_555
O2 C15 1_555 1_555
O3 C22 1_555 1_555
O4 C22 1_555 1_555
O5 C23 1_555 1_555
H14 O5 1_555 1_555
O6 C23 1_555 1_555
O7 Cd1 1_555 1_555
H15 O7 1_555 1_555
H16 O7 1_555 1_555
S1 C6 1_555 1_555
O8 H17 1_555 1_555
Cd1_2 N2 1_555 1_555
Cd1_3 O1 1_555 1_555
N2_2 Cd1 1_555 1_555
O1_2 Cd1 1_555 1_555
C5 N1 1_555 1_555
C9 S1 1_555 1_555
C13 C14 1_555 1_555
C13 N2 1_555 1_555
C20 C21 1_555 1_555
Cd1 O3 1_555 1_555
Cd1 O4 1_555 1_555

#END
