
#######################################################################
#
#                 Cambridge Crystallographic Data Centre
#                                CCDC 
#
#######################################################################
#
# If this CIF has been generated from an entry in the Cambridge 
# Structural Database, then it will include bibliographic, chemical, 
# crystal, experimental, refinement or atomic coordinate data resulting 
# from the CCDC's data processing and validation procedures.
#
#######################################################################

data_PEKTUW
_symmetry_cell_setting           monoclinic
_symmetry_space_group_name_H-M   'C 2/c'
_symmetry_Int_Tables_number      15
_space_group_name_Hall           '-C 2yn'
loop_
_symmetry_equiv_pos_site_id
_symmetry_equiv_pos_as_xyz
1 x,y,z
2 -x,y,1/2-z
3 1/2+x,1/2+y,z
4 1/2-x,1/2+y,1/2-z
5 -x,-y,-z
6 x,-y,1/2+z
7 1/2-x,1/2-y,-z
8 1/2+x,1/2-y,1/2+z
_cell_length_a                   20.682(3)
_cell_length_b                   19.366(3)
_cell_length_c                   20.733(3)
_cell_angle_alpha                90
_cell_angle_beta                 114.878(2)
_cell_angle_gamma                90
_cell_volume                     7533.56
loop_
_atom_site_label
_atom_site_type_symbol
_atom_site_fract_x
_atom_site_fract_y
_atom_site_fract_z
C1 C 0.3510(3) 1.0064(3) 0.9584(3)
H1 H 0.3208 1.0087 0.9811
C2 C 0.3480(3) 1.0572(2) 0.9118(3)
H2 H 0.3173 1.0943 0.9050
C3 C 0.3892(2) 1.05473(19) 0.8750(2)
C4 C 0.4367(2) 1.0013(2) 0.8911(2)
H3 H 0.4675 0.9983 0.8691
C5 C 0.4388(2) 0.95225(19) 0.9395(2)
H4 H 0.4717 0.9165 0.9497
C6 C 0.3810(2) 1.10416(19) 0.8193(2)
C7 C 0.4243(2) 1.11686(19) 0.7869(2)
H5 H 0.4684 1.0957 0.8000
C8 C 0.3964(2) 1.16471(18) 0.7319(2)
H6 H 0.4202 1.1788 0.7048
C9 C 0.3315(2) 1.18870(19) 0.72179(19)
C10 C 0.2835(2) 1.23478(19) 0.6676(2)
C11 C 0.2165(3) 1.2491(3) 0.6591(3)
H7 H 0.2006 1.2315 0.6916
C12 C 0.1713(3) 1.2889(3) 0.6041(3)
H8 H 0.1249 1.2956 0.5993
C13 C 0.2570(2) 1.3067(2) 0.5667(2)
H9 H 0.2723 1.3281 0.5355
C14 C 0.3042(2) 1.2662(2) 0.6187(2)
H10 H 0.3499 1.2595 0.6217
C15 C 0.4854(2) 0.7850(2) 1.0733(2)
C16 C 0.5340(2) 0.72864(19) 1.1139(2)
C17 C 0.5886(3) 0.7090(3) 1.0988(3)
H11 H 0.5949 0.7310 1.0619
C18 C 0.6349(3) 0.6582(3) 1.1353(3)
H12 H 0.6723 0.6458 1.1240
C19 C 0.6251(3) 0.6254(2) 1.1895(2)
C20 C 0.5702(2) 0.6436(2) 1.2059(2)
H13 H 0.5636 0.6209 1.2422
C21 C 0.5253(2) 0.6948(2) 1.1692(2)
H14 H 0.4883 0.7076 1.1810
C22 C 0.7128(3) 0.5422(3) 1.2022(3)
C23 C 0.6862(3) 0.4937(3) 1.1518(3)
H15 H 0.6389 0.4801 1.1364
C24 C 0.7278(3) 0.4638(3) 1.1222(3)
H16 H 0.7083 0.4314 1.0861
C25 C 0.7982(2) 0.4822(2) 1.1466(2)
C26 C 0.8255(3) 0.5299(2) 1.2012(2)
H17 H 0.8735 0.5417 1.2198
C27 C 0.7815(4) 0.5600(3) 1.2278(3)
H18 H 0.7997 0.5928 1.2638
C28 C 0.8435(2) 0.4513(2) 1.1141(2)
N1 N 0.39619(18) 0.95345(15) 0.97228(16)
N2 N 0.19046(19) 1.31777(16) 0.55779(17)
O1 O 0.49030(17) 0.81215(16) 1.02190(17)
O2 O 0.43906(15) 0.80375(13) 1.09448(14)
O3 O 0.81382(15) 0.40822(14) 1.06496(14)
O4 O 0.90648(16) 0.46866(15) 1.13439(16)
O5 O 0.66934(16) 0.57322(15) 1.23000(15)
S1 S 0.30417(6) 1.15174(6) 0.78159(6)
Zn1 Zn 0.38038(2) 0.87397(2) 1.02745(2)
N2C N 0.30954(19) 0.81777(16) 0.94221(17)
O3B O 0.31382(15) 0.90822(14) 1.06496(14)
Zn1B Zn 0.88038(2) 0.37397(2) 1.02745(2)
Zn1C Zn 0.11962(2) 1.37397(2) 0.47255(2)
loop_
_geom_bond_atom_site_label_1
_geom_bond_atom_site_label_2
_geom_bond_site_symmetry_1
_geom_bond_site_symmetry_2
C1 H1 1_555 1_555
C2 C1 1_555 1_555
H2 C2 1_555 1_555
C3 C2 1_555 1_555
C4 C3 1_555 1_555
H3 C4 1_555 1_555
C5 C4 1_555 1_555
H4 C5 1_555 1_555
C6 C3 1_555 1_555
C7 C6 1_555 1_555
H5 C7 1_555 1_555
C8 C7 1_555 1_555
H6 C8 1_555 1_555
C9 C8 1_555 1_555
C10 C9 1_555 1_555
C11 C10 1_555 1_555
H7 C11 1_555 1_555
C12 C11 1_555 1_555
H8 C12 1_555 1_555
C13 H9 1_555 1_555
C14 C10 1_555 1_555
H10 C14 1_555 1_555
C15 C16 1_555 1_555
C16 C17 1_555 1_555
C17 H11 1_555 1_555
C18 C17 1_555 1_555
H12 C18 1_555 1_555
C19 C18 1_555 1_555
C20 C19 1_555 1_555
H13 C20 1_555 1_555
C21 C16 1_555 1_555
H14 C21 1_555 1_555
C22 C23 1_555 1_555
C23 H15 1_555 1_555
C24 C23 1_555 1_555
H16 C24 1_555 1_555
C25 C24 1_555 1_555
C26 C25 1_555 1_555
H17 C26 1_555 1_555
C27 C22 1_555 1_555
H18 C27 1_555 1_555
C28 C25 1_555 1_555
N1 C1 1_555 1_555
N2 C12 1_555 1_555
O1 C15 1_555 1_555
O2 C15 1_555 1_555
O3 C28 1_555 1_555
O4 C28 1_555 1_555
O5 C19 1_555 1_555
S1 C6 1_555 1_555
Zn1 N1 1_555 1_555
N2C Zn1 1_555 1_555
O3B Zn1 1_555 1_555
Zn1B O3 1_555 1_555
Zn1C N2 1_555 1_555
C5 N1 1_555 1_555
C9 S1 1_555 1_555
C13 C14 1_555 1_555
C13 N2 1_555 1_555
C20 C21 1_555 1_555
C22 O5 1_555 1_555
C26 C27 1_555 1_555
O2 Zn1 1_555 1_555

#END
