
#######################################################################
#
#                 Cambridge Crystallographic Data Centre
#                                CCDC 
#
#######################################################################
#
# If this CIF has been generated from an entry in the Cambridge 
# Structural Database, then it will include bibliographic, chemical, 
# crystal, experimental, refinement or atomic coordinate data resulting 
# from the CCDC's data processing and validation procedures.
#
#######################################################################

data_PEKTEG
_symmetry_cell_setting           triclinic
_symmetry_space_group_name_H-M   'P -1'
_symmetry_Int_Tables_number      2
_space_group_name_Hall           '-P 1'
loop_
_symmetry_equiv_pos_site_id
_symmetry_equiv_pos_as_xyz
1 x,y,z
2 -x,-y,-z
_cell_length_a                   11.684(2)
_cell_length_b                   13.506(3)
_cell_length_c                   14.584(3)
_cell_angle_alpha                77.331(3)
_cell_angle_beta                 89.819(3)
_cell_angle_gamma                73.113(3)
_cell_volume                     2144.04
loop_
_atom_site_label
_atom_site_type_symbol
_atom_site_fract_x
_atom_site_fract_y
_atom_site_fract_z
C1 C 0.7782(4) 0.7864(3) 0.6023(3)
H1 H 0.8082 0.7191 0.6414
C2 C 0.8293(4) 0.8636(3) 0.6117(3)
H2 H 0.8927 0.8476 0.6562
C3 C 0.7864(3) 0.9658(3) 0.5549(2)
C4 C 0.6907(4) 0.9832(3) 0.4921(3)
H3 H 0.6570 1.0505 0.4536
C5 C 0.6446(3) 0.9014(3) 0.4859(2)
H4 H 0.5807 0.9153 0.4424
C6 C 0.8395(3) 1.0493(3) 0.5604(2)
C7 C 0.9707(3) 1.1556(3) 0.5906(2)
C8 C 0.8771(3) 1.2124(3) 0.5289(2)
H5 H 0.8635 1.2840 0.5007
C9 C 0.8021(3) 1.1538(3) 0.5110(2)
H6 H 0.7340 1.1825 0.4700
C10 C 1.0645(3) 1.1909(3) 0.6288(2)
C11 C 1.1483(4) 1.1234(3) 0.6978(3)
H7 H 1.1484 1.0532 0.7186
C12 C 1.2322(4) 1.1584(3) 0.7366(3)
H8 H 1.2876 1.1120 0.7839
C13 C 1.1559(4) 1.3254(3) 0.6376(3)
H9 H 1.1598 1.3944 0.6163
C14 C 1.0699(4) 1.2940(3) 0.5980(3)
H10 H 1.0155 1.3417 0.5507
C15 C 0.2501(3) 1.1614(3) 1.0643(2)
H11 H 0.2852 1.0947 1.1033
C16 C 0.2801(3) 1.2486(3) 1.0808(2)
H12 H 0.3334 1.2400 1.1313
C17 C 0.2312(3) 1.3480(3) 1.0226(2)
C18 C 0.1503(3) 1.3567(3) 0.9494(2)
H13 H 0.1148 1.4223 0.9088
C19 C 0.1233(3) 1.2678(3) 0.9377(2)
H14 H 0.0687 1.2750 0.8887
C20 C 0.2609(3) 1.4437(3) 1.0358(2)
C21 C 0.3631(3) 1.5636(3) 1.0807(2)
C22 C 0.2608(4) 1.6164(3) 1.0250(3)
H15 H 0.2320 1.6901 1.0056
C23 C 0.2031(4) 1.5461(3) 1.0001(3)
H16 H 0.1320 1.5690 0.9625
C24 C 0.4466(3) 1.6074(3) 1.1222(2)
C25 C 0.5203(3) 1.5484(3) 1.2007(3)
H17 H 0.5166 1.4804 1.2278
C26 C 0.5999(3) 1.5885(3) 1.2401(3)
H18 H 0.6488 1.5472 1.2932
C27 C 0.5352(4) 1.7444(3) 1.1261(3)
H19 H 0.5397 1.8124 1.1003
C28 C 0.4557(4) 1.7088(3) 1.0842(3)
H20 H 0.4081 1.7516 1.0309
C29 C 0.4586(3) 0.7525(3) 0.6873(2)
C30 C 0.3383(3) 0.7538(2) 0.7279(2)
C31 C 0.2904(3) 0.8202(2) 0.7875(2)
H21 H 0.3330 0.8629 0.8038
C32 C 0.1789(3) 0.8234(2) 0.8232(2)
C33 C 0.1161(3) 0.7579(3) 0.7985(2)
H22 H 0.0418 0.7592 0.8223
C34 C 0.1632(3) 0.6916(2) 0.7393(2)
C35 C 0.2745(3) 0.6901(2) 0.7033(2)
H23 H 0.3061 0.6462 0.6626
C36 C 0.1270(3) 0.8936(3) 0.8883(2)
C37 C 0.0987(3) 0.6220(3) 0.7101(2)
C38 C 0.4612(3) 0.7286(3) 0.3937(2)
C39 C 0.3609(3) 0.7123(2) 0.3410(2)
C40 C 0.3316(3) 0.6168(2) 0.3653(2)
H24 H 0.3760 0.5615 0.4133
C41 C 0.2343(3) 0.6054(2) 0.3164(2)
C42 C 0.1702(3) 0.6885(2) 0.2448(2)
H25 H 0.1055 0.6813 0.2128
C43 C 0.2004(3) 0.7825(2) 0.2197(2)
C44 C 0.2961(3) 0.7936(2) 0.2678(2)
H26 H 0.3172 0.8561 0.2508
C45 C 0.1299(3) 0.8700(2) 0.1404(2)
C46 C 0.1959(3) 0.5065(2) 0.3392(2)
N1 N 0.6876(2) 0.8036(2) 0.53967(18)
N2 N 1.2347(3) 1.2582(3) 0.7067(2)
N3 N 0.1717(2) 1.1712(2) 0.99335(18)
N4 N 0.6069(3) 1.6870(3) 1.2022(2)
O1 O 0.4956(2) 0.6839(2) 0.63808(18)
O2 O 0.5091(2) 0.8160(2) 0.7022(2)
O3 O 0.1825(2) 0.95639(19) 0.90403(16)
O4 O 0.0315(2) 0.8858(2) 0.92253(18)
O5 O 0.0015(2) 0.6189(2) 0.75680(18)
H27 H -0.0145 0.5529 0.7576
O6 O 0.1320(3) 0.5736(2) 0.64984(19)
O7 O 0.4697(2) 0.8193(2) 0.38599(19)
O8 O 0.5326(2) 0.64626(18) 0.44797(16)
O9 O 0.2429(2) 0.43721(18) 0.41446(16)
O10 O 0.1186(3) 0.4993(2) 0.28657(18)
O11 O 0.0271(2) 0.86632(18) 0.11771(16)
O12 O 0.1783(2) 0.93888(18) 0.10222(15)
S1 S 0.96792(8) 1.02542(7) 0.62920(6)
S2 S 0.38795(9) 1.42873(7) 1.10325(7)
Zn1 Zn 0.61529(3) 0.68371(3) 0.54478(2)
Zn2 Zn 0.09823(3) 1.05280(3) 0.98895(2)
O4A O -0.0315(2) 1.1142(2) 1.07747(18)
O9A O 0.7571(2) 0.56279(18) 0.58554(16)
O11A O -0.0271(2) 1.13368(18) 0.88229(16)
O12_2 O 0.1783(2) 0.93888(18) 1.10222(15)
Zn1A Zn 0.38471(3) 0.31629(3) 0.45522(2)
Zn2A Zn -0.09823(3) 0.94720(3) 1.01105(2)
Zn2A_2 Zn -0.09823(3) 0.94720(3) 0.01105(2)
Zn2_2 Zn 0.09823(3) 1.05280(3) -0.01105(2)
O13 O 0.4552(4) 0.0073(2) 0.2451(2)
H28 H 0.4059 0.0672 0.2464
H29 H 0.4836 -0.0254 0.3008
O14 O 0.5650(4) 0.0069(4) 0.0791(3)
H30 H 0.5732 0.0439 0.1173
H31 H 0.5832 0.0338 0.0247
loop_
_geom_bond_atom_site_label_1
_geom_bond_atom_site_label_2
_geom_bond_site_symmetry_1
_geom_bond_site_symmetry_2
C1 H1 1_555 1_555
C2 C1 1_555 1_555
H2 C2 1_555 1_555
C3 C2 1_555 1_555
C4 C3 1_555 1_555
H3 C4 1_555 1_555
C5 C4 1_555 1_555
H4 C5 1_555 1_555
C6 C3 1_555 1_555
C7 C8 1_555 1_555
C8 H5 1_555 1_555
C9 C6 1_555 1_555
H6 C9 1_555 1_555
C10 C7 1_555 1_555
C11 C10 1_555 1_555
H7 C11 1_555 1_555
C12 C11 1_555 1_555
H8 C12 1_555 1_555
C13 H9 1_555 1_555
C14 C10 1_555 1_555
H10 C14 1_555 1_555
C15 H11 1_555 1_555
C16 C15 1_555 1_555
H12 C16 1_555 1_555
C17 C16 1_555 1_555
C18 C17 1_555 1_555
H13 C18 1_555 1_555
C19 C18 1_555 1_555
H14 C19 1_555 1_555
C20 C17 1_555 1_555
C21 C22 1_555 1_555
C22 H15 1_555 1_555
C23 C20 1_555 1_555
H16 C23 1_555 1_555
C24 C21 1_555 1_555
C25 C24 1_555 1_555
H17 C25 1_555 1_555
C26 C25 1_555 1_555
H18 C26 1_555 1_555
C27 H19 1_555 1_555
C28 C24 1_555 1_555
H20 C28 1_555 1_555
C29 C30 1_555 1_555
C30 C31 1_555 1_555
C31 H21 1_555 1_555
C32 C31 1_555 1_555
C33 C32 1_555 1_555
H22 C33 1_555 1_555
C34 C33 1_555 1_555
C35 C30 1_555 1_555
H23 C35 1_555 1_555
C36 C32 1_555 1_555
C37 C34 1_555 1_555
C38 C39 1_555 1_555
C39 C40 1_555 1_555
C40 H24 1_555 1_555
C41 C40 1_555 1_555
C42 C41 1_555 1_555
H25 C42 1_555 1_555
C43 C42 1_555 1_555
C44 C39 1_555 1_555
H26 C44 1_555 1_555
C45 C43 1_555 1_555
C46 C41 1_555 1_555
N1 C1 1_555 1_555
N2 C12 1_555 1_555
N3 C15 1_555 1_555
N4 C26 1_555 1_555
O1 C29 1_555 1_555
O2 C29 1_555 1_555
O3 C36 1_555 1_555
O4 C36 1_555 1_555
O5 C37 1_555 1_555
H27 O5 1_555 1_555
O6 C37 1_555 1_555
O7 C38 1_555 1_555
O8 C38 1_555 1_555
O9 C46 1_555 1_555
O10 C46 1_555 1_555
O11 C45 1_555 1_555
O12 C45 1_555 1_555
O13 H28 1_555 1_555
H29 O13 1_555 1_555
O14 H30 1_555 1_555
H31 O14 1_555 1_555
S1 C6 1_555 1_555
S2 C20 1_555 1_555
Zn1 N1 1_555 1_555
Zn2 N3 1_555 1_555
O4A Zn2 1_555 1_555
O9A Zn1 1_555 1_555
O11A Zn2 1_555 1_555
O12_2 Zn2 1_555 1_555
Zn1A O9 1_555 1_555
Zn2A O4 1_555 1_555
Zn2A_2 O11 1_555 1_555
Zn2_2 O12 1_555 1_555
C5 N1 1_555 1_555
C7 S1 1_555 1_555
C8 C9 1_555 1_555
C13 C14 1_555 1_555
C13 N2 1_555 1_555
C19 N3 1_555 1_555
C21 S2 1_555 1_555
C22 C23 1_555 1_555
C27 C28 1_555 1_555
C27 N4 1_555 1_555
C34 C35 1_555 1_555
C43 C44 1_555 1_555
O1 Zn1 1_555 1_555
O3 Zn2 1_555 1_555
O8 Zn1 1_555 1_555

#END
