
#######################################################################
#
#                 Cambridge Crystallographic Data Centre
#                                CCDC 
#
#######################################################################
#
# If this CIF has been generated from an entry in the Cambridge 
# Structural Database, then it will include bibliographic, chemical, 
# crystal, experimental, refinement or atomic coordinate data resulting 
# from the CCDC's data processing and validation procedures.
#
#######################################################################

data_PEKTOQ
_symmetry_cell_setting           triclinic
_symmetry_space_group_name_H-M   'P -1'
_symmetry_Int_Tables_number      2
_space_group_name_Hall           '-P 1'
loop_
_symmetry_equiv_pos_site_id
_symmetry_equiv_pos_as_xyz
1 x,y,z
2 -x,-y,-z
_cell_length_a                   10.1147(11)
_cell_length_b                   10.4886(12)
_cell_length_c                   14.2851(16)
_cell_angle_alpha                106.4850(10)
_cell_angle_beta                 101.608(2)
_cell_angle_gamma                102.810(2)
_cell_volume                     1359.31
loop_
_atom_site_label
_atom_site_type_symbol
_atom_site_fract_x
_atom_site_fract_y
_atom_site_fract_z
C1 C 0.6368(5) 0.3477(5) 0.2770(3)
H1 H 0.6183 0.3174 0.3296
C2 C 0.5516(5) 0.2705(5) 0.1781(3)
H2 H 0.4795 0.1899 0.1653
C3 C 0.5762(5) 0.3158(5) 0.0989(3)
C4 C 0.6919(5) 0.4328(5) 0.1231(3)
H3 H 0.7157 0.4646 0.0724
C5 C 0.7696(5) 0.4996(5) 0.2227(3)
H4 H 0.8467 0.5769 0.2375
C6 C 0.4827(5) 0.2490(5) -0.0062(3)
C7 C 0.4655(6) 0.3059(5) -0.0818(4)
H5 H 0.5203 0.3937 -0.0750
C8 C 0.3607(6) 0.2220(5) -0.1675(4)
H6 H 0.3373 0.2480 -0.2243
C9 C 0.2927(5) 0.0965(5) -0.1636(3)
C10 C 0.1791(5) -0.0190(5) -0.2439(3)
C11 C 0.1448(5) -0.1541(5) -0.2432(3)
H7 H 0.1914 -0.1743 -0.1886
C12 C 0.0426(5) -0.2580(5) -0.3228(3)
H8 H 0.0220 -0.3477 -0.3203
C13 C 0.0017(5) -0.1059(5) -0.4031(3)
H9 H -0.0479 -0.0884 -0.4580
C14 C 0.1022(5) 0.0045(5) -0.3261(3)
H10 H 0.1184 0.0939 -0.3290
C15 C 1.1419(4) 0.6378(4) 0.4459(3)
C16 C 1.2729(4) 0.7188(4) 0.4284(3)
C17 C 1.2673(5) 0.8227(5) 0.3890(3)
H11 H 1.1846 0.8479 0.3774
C18 C 1.3860(5) 0.8916(5) 0.3661(4)
C19 C 1.5098(5) 0.8544(5) 0.3858(3)
H12 H 1.5893 0.9005 0.3719
C20 C 1.5154(4) 0.7493(4) 0.4259(3)
C21 C 1.3988(4) 0.6835(4) 0.4492(3)
H13 H 1.4038 0.6156 0.4788
C22 C 1.6457(4) 0.7024(4) 0.4408(3)
C23 C 1.3823(6) 1.0045(6) 0.3228(5)
Co1 Co 0.84911(5) 0.60100(5) 0.45389(4)
N1 N 0.7422(4) 0.4616(4) 0.3001(2)
N2 N -0.0292(4) -0.2376(4) -0.4040(2)
O1 O 1.0269(3) 0.6537(3) 0.4073(2)
O2 O 1.1578(3) 0.5630(3) 0.4981(2)
O3 O 1.6517(3) 0.6148(3) 0.4840(2)
O4 O 1.7448(3) 0.7468(3) 0.4058(2)
O5 O 1.4771(5) 1.0580(6) 0.2945(5)
S1 S 0.36434(14) 0.08523(12) -0.04757(8)
O6 O 1.2654(6) 1.0388(6) 0.3198(5)
H14 H 1.1874 1.0370 0.3486
C1A C 1.3632(5) 0.6523(5) 0.7230(3)
H1A H 1.3817 0.6826 0.6704
C2A C 1.4484(5) 0.7295(5) 0.8219(3)
H2A H 1.5205 0.8101 0.8347
C3A C 1.4238(5) 0.6842(5) 0.9011(3)
C4A C 1.3081(5) 0.5672(5) 0.8769(3)
H3A H 1.2843 0.5354 0.9276
C5A C 1.2304(5) 0.5004(5) 0.7773(3)
H4A H 1.1533 0.4231 0.7625
C6A C 1.5173(5) 0.7510(5) 1.0062(3)
C7A C 1.5345(6) 0.6941(5) 1.0818(4)
H5A H 1.4797 0.6063 1.0750
C8A C 1.6393(6) 0.7780(5) 1.1675(4)
H6A H 1.6627 0.7520 1.2243
C9A C 1.7073(5) 0.9035(5) 1.1636(3)
C10A C 1.8209(5) 1.0190(5) 1.2439(3)
C11A C 1.8552(5) 1.1541(5) 1.2432(3)
H7A H 1.8086 1.1743 1.1886
C12A C 1.9574(5) 1.2580(5) 1.3228(3)
H8A H 1.9780 1.3477 1.3203
C13A C 1.9983(5) 1.1059(5) 1.4031(3)
H9A H 2.0479 1.0884 1.4580
C14A C 1.8978(5) 0.9955(5) 1.3261(3)
H10A H 1.8816 0.9061 1.3290
C15A C 0.8581(4) 0.3622(4) 0.5541(3)
C16A C 0.7271(4) 0.2812(4) 0.5716(3)
C17A C 0.7327(5) 0.1773(5) 0.6110(3)
H11A H 0.8154 0.1521 0.6226
C18A C 0.6140(5) 0.1084(5) 0.6339(4)
C19A C 0.4902(5) 0.1456(5) 0.6142(3)
H12A H 0.4107 0.0995 0.6281
C20A C 0.4846(4) 0.2507(4) 0.5741(3)
C21A C 0.6012(4) 0.3165(4) 0.5508(3)
H13A H 0.5962 0.3844 0.5212
C22A C 0.3543(4) 0.2976(4) 0.5592(3)
C23A C 0.6177(6) -0.0045(6) 0.6772(5)
Co1A Co 1.15089(5) 0.39900(5) 0.54611(4)
Co1_2 Co -0.15089(5) -0.39900(5) -0.54611(4)
Co1_3 Co 1.84911(5) 0.60100(5) 0.45389(4)
Co1A_2 Co 0.15089(5) 0.39900(5) 0.54611(4)
Co1A_3 Co 2.15089(5) 1.39900(5) 1.54611(4)
N1A N 1.2578(4) 0.5384(4) 0.6999(2)
N2A N 2.0292(4) 1.2376(4) 1.4040(2)
N2_2 N 0.9708(4) 0.7624(4) 0.5960(2)
N2A_2 N 1.0292(4) 0.2376(4) 0.4040(2)
O1A O 0.9731(3) 0.3463(3) 0.5927(2)
O2A O 0.8422(3) 0.4370(3) 0.5019(2)
O3A O 0.3483(3) 0.3852(3) 0.5160(2)
O3_2 O 0.6517(3) 0.6148(3) 0.4840(2)
O3A_2 O 1.3483(3) 0.3852(3) 0.5160(2)
O4A O 0.2552(3) 0.2532(3) 0.5942(2)
O4_2 O 0.7448(3) 0.7468(3) 0.4058(2)
O4A_2 O 1.2552(3) 0.2532(3) 0.5942(2)
O5A O 0.5229(5) -0.0580(6) 0.7055(5)
S1A S 1.63566(14) 0.91477(12) 1.04757(8)
O6A O 0.7346(6) -0.0388(6) 0.6802(5)
H14A H 0.8126 -0.0370 0.6514
loop_
_geom_bond_atom_site_label_1
_geom_bond_atom_site_label_2
_geom_bond_site_symmetry_1
_geom_bond_site_symmetry_2
C1 H1 1_555 1_555
C2 C1 1_555 1_555
H2 C2 1_555 1_555
C3 C2 1_555 1_555
C4 C3 1_555 1_555
H3 C4 1_555 1_555
C5 C4 1_555 1_555
H4 C5 1_555 1_555
C6 C3 1_555 1_555
C7 C6 1_555 1_555
H5 C7 1_555 1_555
C8 C7 1_555 1_555
H6 C8 1_555 1_555
C9 C8 1_555 1_555
C10 C9 1_555 1_555
C11 C10 1_555 1_555
H7 C11 1_555 1_555
C12 C11 1_555 1_555
H8 C12 1_555 1_555
C13 H9 1_555 1_555
C14 C10 1_555 1_555
H10 C14 1_555 1_555
C15 C16 1_555 1_555
C16 C17 1_555 1_555
C17 H11 1_555 1_555
C18 C17 1_555 1_555
C19 C18 1_555 1_555
H12 C19 1_555 1_555
C20 C19 1_555 1_555
C21 C16 1_555 1_555
H13 C21 1_555 1_555
C22 C20 1_555 1_555
C23 C18 1_555 1_555
Co1 N1 1_555 1_555
N1 C1 1_555 1_555
N2 C12 1_555 1_555
O1 C15 1_555 1_555
O2 C15 1_555 1_555
O3 C22 1_555 1_555
O4 C22 1_555 1_555
O5 C23 1_555 1_555
S1 C6 1_555 1_555
O6 C23 1_555 1_555
H14 O6 1_555 1_555
C1A H1A 1_555 1_555
C2A C1A 1_555 1_555
H2A C2A 1_555 1_555
C3A C2A 1_555 1_555
C4A C3A 1_555 1_555
H3A C4A 1_555 1_555
C5A C4A 1_555 1_555
H4A C5A 1_555 1_555
C6A C3A 1_555 1_555
C7A C6A 1_555 1_555
H5A C7A 1_555 1_555
C8A C7A 1_555 1_555
H6A C8A 1_555 1_555
C9A C8A 1_555 1_555
C10A C9A 1_555 1_555
C11A C10A 1_555 1_555
H7A C11A 1_555 1_555
C12A C11A 1_555 1_555
H8A C12A 1_555 1_555
C13A H9A 1_555 1_555
C14A C10A 1_555 1_555
H10A C14A 1_555 1_555
C15A C16A 1_555 1_555
C16A C17A 1_555 1_555
C17A H11A 1_555 1_555
C18A C17A 1_555 1_555
C19A C18A 1_555 1_555
H12A C19A 1_555 1_555
C20A C19A 1_555 1_555
C21A C16A 1_555 1_555
H13A C21A 1_555 1_555
C22A C20A 1_555 1_555
C23A C18A 1_555 1_555
Co1A O2 1_555 1_555
Co1_2 N2 1_555 1_555
Co1_3 O3 1_555 1_555
Co1A_2 O3A 1_555 1_555
Co1A_3 N2A 1_555 1_555
N1A C1A 1_555 1_555
N2A C12A 1_555 1_555
N2_2 Co1 1_555 1_555
N2A_2 Co1A 1_555 1_555
O1A C15A 1_555 1_555
O2A Co1 1_555 1_555
O3A C22A 1_555 1_555
O3_2 Co1 1_555 1_555
O3A_2 Co1A 1_555 1_555
O4A C22A 1_555 1_555
O4_2 Co1 1_555 1_555
O4A_2 Co1A 1_555 1_555
O5A C23A 1_555 1_555
S1A C6A 1_555 1_555
O6A C23A 1_555 1_555
H14A O6A 1_555 1_555
C5 N1 1_555 1_555
C9 S1 1_555 1_555
C13 C14 1_555 1_555
C13 N2 1_555 1_555
C20 C21 1_555 1_555
Co1 O1 1_555 1_555
O4 Co1_3 1_555 1_555
C5A N1A 1_555 1_555
C9A S1A 1_555 1_555
C13A C14A 1_555 1_555
C13A N2A 1_555 1_555
C15A O2A 1_555 1_555
C20A C21A 1_555 1_555
Co1A N1A 1_555 1_555
Co1A O1A 1_555 1_555
Co1A_2 O4A 1_555 1_555

#END
