
#######################################################################
#
#                 Cambridge Crystallographic Data Centre
#                                CCDC 
#
#######################################################################
#
# If this CIF has been generated from an entry in the Cambridge 
# Structural Database, then it will include bibliographic, chemical, 
# crystal, experimental, refinement or atomic coordinate data resulting 
# from the CCDC's data processing and validation procedures.
#
#######################################################################

data_PEKVEI
_symmetry_cell_setting           triclinic
_symmetry_space_group_name_H-M   'P -1'
_symmetry_Int_Tables_number      2
_space_group_name_Hall           '-P 1'
loop_
_symmetry_equiv_pos_site_id
_symmetry_equiv_pos_as_xyz
1 x,y,z
2 -x,-y,-z
_cell_length_a                   10.1761(5)
_cell_length_b                   14.5967(7)
_cell_length_c                   22.8332(12)
_cell_angle_alpha                72.6260(10)
_cell_angle_beta                 82.5850(10)
_cell_angle_gamma                80.4920(10)
_cell_volume                     3180.91
loop_
_atom_site_label
_atom_site_type_symbol
_atom_site_fract_x
_atom_site_fract_y
_atom_site_fract_z
C1 C 0.8319(4) 0.9222(3) 0.4476(2)
H1 H 0.9190 0.9061 0.4592
C2 C 0.8118(4) 0.9850(3) 0.39063(19)
H2 H 0.8831 1.0109 0.3648
C3 C 0.6831(4) 1.0094(3) 0.37213(17)
C4 C 0.5825(4) 0.9674(3) 0.41266(19)
H3 H 0.4949 0.9809 0.4018
C5 C 0.6121(4) 0.9062(3) 0.4686(2)
H4 H 0.5423 0.8792 0.4952
C6 C 0.6503(4) 1.0781(3) 0.31183(18)
C7 C 0.5250(5) 1.1160(3) 0.2933(2)
H5 H 0.4469 1.1002 0.3177
C8 C 0.5260(5) 1.1804(4) 0.2345(2)
H6 H 0.4484 1.2108 0.2156
C9 C 0.6491(4) 1.1947(3) 0.20752(19)
C10 C 0.6834(5) 1.2544(3) 0.1452(2)
C11 C 0.8120(5) 1.2618(3) 0.1172(2)
H7 H 0.8848 1.2293 0.1392
C12 C 0.8322(5) 1.3156(3) 0.0583(2)
H8 H 0.9199 1.3192 0.0412
C13 C 0.6111(5) 1.3600(3) 0.0497(2)
H9 H 0.5408 1.3948 0.0266
C14 C 0.5809(5) 1.3078(4) 0.1087(2)
H10 H 0.4922 1.3075 0.1248
C15 C 0.6467(4) 0.6367(3) 0.45710(19)
H11 H 0.5832 0.6017 0.4834
C16 C 0.6114(4) 0.6937(3) 0.40056(18)
H12 H 0.5258 0.6966 0.3894
C17 C 0.7027(4) 0.7474(3) 0.35958(18)
C18 C 0.8297(4) 0.7357(3) 0.3791(2)
H13 H 0.8961 0.7678 0.3530
C19 C 0.8580(4) 0.6770(3) 0.43661(19)
H14 H 0.9440 0.6708 0.4483
C20 C 0.6654(4) 0.8136(3) 0.30000(18)
C21 C 0.5407(5) 0.8489(3) 0.2824(2)
H15 H 0.4638 0.8314 0.3074
C22 C 0.5374(5) 0.9145(3) 0.2230(2)
H16 H 0.4590 0.9435 0.2044
C23 C 0.6611(4) 0.9307(3) 0.19600(19)
C24 C 0.6972(4) 0.9937(3) 0.13416(19)
C25 C 0.8275(5) 1.0047(3) 0.1106(2)
H17 H 0.8975 0.9721 0.1345
C26 C 0.8544(5) 1.0627(3) 0.0526(2)
H18 H 0.9434 1.0687 0.0385
C27 C 0.6361(5) 1.1006(3) 0.0374(2)
H19 H 0.5683 1.1339 0.0123
C28 C 0.5997(5) 1.0433(4) 0.0954(2)
H20 H 0.5100 1.0383 0.1082
C29 C 0.7516(5) 0.3793(3) 0.5861(2)
C30 C 0.7690(4) 0.2700(3) 0.60113(19)
C31 C 0.7256(4) 0.2302(3) 0.55905(19)
H21 H 0.6846 0.2705 0.5247
C32 C 0.7440(4) 0.1317(3) 0.56888(18)
H22 H 0.7168 0.1057 0.5406
C33 C 0.8033(4) 0.0700(2) 0.62102(17)
C34 C 0.8450(4) 0.1088(3) 0.66268(19)
H23 H 0.8848 0.0681 0.6973
C35 C 0.8276(4) 0.2087(3) 0.65268(19)
H24 H 0.8556 0.2346 0.6809
C36 C 0.8225(4) -0.0379(3) 0.63092(18)
C37 C 1.5589(4) 0.6801(3) 0.60332(16)
C38 C 1.4144(4) 0.6715(2) 0.60215(16)
C39 C 1.3166(4) 0.7512(3) 0.60097(18)
H25 H 1.3404 0.8080 0.6046
C40 C 1.1866(4) 0.7466(3) 0.59460(18)
H26 H 1.1223 0.8001 0.5938
C41 C 1.1502(4) 0.6614(2) 0.58931(16)
C42 C 1.2464(4) 0.5814(2) 0.59197(17)
H27 H 1.2220 0.5240 0.5896
C43 C 1.3781(4) 0.5862(2) 0.59808(17)
H28 H 1.4423 0.5325 0.5995
C44 C 1.0111(4) 0.6591(3) 0.57636(17)
C45 C 0.8232(5) 1.0233(3) -0.1396(2)
C46 C 0.8125(4) 0.9177(3) -0.12946(18)
C47 C 0.7776(5) 0.8600(3) -0.0721(2)
H29 H 0.7625 0.8860 -0.0389
C48 C 0.7645(5) 0.7628(3) -0.0624(2)
H30 H 0.7387 0.7251 -0.0233
C49 C 0.7896(4) 0.7232(3) -0.1107(2)
C50 C 0.8258(5) 0.7801(3) -0.1680(2)
H31 H 0.8433 0.7537 -0.2010
C51 C 0.8368(5) 0.8768(3) -0.1773(2)
H32 H 0.8611 0.9147 -0.2167
C52 C 0.7765(5) 0.6182(3) -0.1002(2)
C53 C 0.5575(4) 1.3441(3) -0.09194(19)
C54 C 0.4149(4) 1.3368(3) -0.09677(17)
C55 C 0.3151(4) 1.4152(3) -0.09683(18)
H33 H 0.3382 1.4744 -0.0971
C56 C 0.3795(4) 1.2491(3) -0.09764(19)
H34 H 0.4458 1.1975 -0.0992
C57 C 0.1833(4) 1.4051(3) -0.09641(19)
H35 H 0.1174 1.4578 -0.0974
C58 C 0.2480(4) 1.2381(3) -0.09615(19)
H36 H 0.2252 1.1790 -0.0963
C59 C 0.1485(4) 1.3155(3) -0.09448(18)
C60 C 0.0040(5) 1.3023(3) -0.08874(19)
N1 N 0.7353(3) 0.8823(2) 0.48787(15)
N2 N 0.7334(4) 1.3644(2) 0.02308(16)
N3 N 0.7679(3) 0.6283(2) 0.47678(15)
N4 N 0.7606(4) 1.1113(2) 0.01502(15)
O1 O 0.7907(5) 0.5830(2) -0.1426(2)
O2 O 0.7425(5) 0.5702(2) -0.04955(18)
O3 O -0.0793(3) 1.3781(2) -0.10036(16)
O4 O -0.0225(3) 1.2175(2) -0.07275(16)
O5 O 0.5881(3) 1.4268(2) -0.09681(14)
O6 O 0.6352(3) 1.2677(2) -0.07961(17)
O7 O 0.8025(4) 1.05418(19) -0.09430(14)
O8 O 0.8615(5) 1.0704(2) -0.19106(16)
O9 O 0.8238(5) 1.2448(2) -0.17913(15)
H37 H 0.8893 1.2773 -0.1886
H38 H 0.8381 1.1999 -0.1967
O10 O 0.6590(4) 0.4287(2) 0.55449(16)
O11 O 0.8316(3) 0.41450(19) 0.60731(18)
O12 O 0.9750(3) 0.57776(19) 0.58271(14)
O13 O 0.9388(3) 0.7385(2) 0.55699(13)
O14 O 1.6420(3) 0.60454(18) 0.61083(12)
O15 O 1.5866(3) 0.76366(18) 0.59558(13)
O16 O 0.7596(3) -0.06576(17) 0.59589(13)
O17 O 0.8966(3) -0.09155(19) 0.66950(14)
O18 O 0.8061(3) 0.7434(2) 0.67693(13)
H39 H 0.7698 0.6919 0.6917
H40 H 0.8902 0.7297 0.6789
S1 S 0.78215(11) 0.86317(8) 0.24367(5)
S2 S 0.76915(11) 1.12572(8) 0.25515(5)
Zn1 Zn 0.76622(4) 0.80520(3) 0.58370(2)
Zn2 Zn 0.80091(4) 0.55517(3) 0.56582(2)
Zn3 Zn 0.75580(5) 1.44043(3) -0.06915(2)
Zn4 Zn 0.80475(5) 1.18287(3) -0.08310(2)
O1_2 O 0.7907(5) 1.5830(2) -0.1426(2)
O2_2 O 0.7425(5) 1.5702(2) -0.04955(18)
O3_2 O 0.9207(3) 1.3781(2) -0.10036(16)
O4_2 O 0.9775(3) 1.2175(2) -0.07275(16)
O14_2 O 0.6420(3) 0.60454(18) 0.61083(12)
O15_2 O 0.5866(3) 0.76366(18) 0.59558(13)
O16_2 O 0.7596(3) 0.93424(17) 0.59589(13)
Zn1_2 Zn 0.76622(4) -0.19480(3) 0.58370(2)
Zn1_3 Zn 1.76622(4) 0.80520(3) 0.58370(2)
Zn2_2 Zn 1.80091(4) 0.55517(3) 0.56582(2)
Zn3_2 Zn -0.24420(5) 1.44043(3) -0.06915(2)
Zn3_3 Zn 0.75580(5) 0.44043(3) -0.06915(2)
Zn4_2 Zn -0.19525(5) 1.18287(3) -0.08310(2)
O19 O 0.9412(7) 0.5706(3) 0.7466(2)
H41 H 0.8596 0.5616 0.7548
H42 H 0.9561 0.6126 0.7630
O20 O 0.9420(7) 0.3863(3) 0.7303(2)
H43 H 1.0135 0.4054 0.7348
H44 H 0.9549 0.3626 0.6999
loop_
_geom_bond_atom_site_label_1
_geom_bond_atom_site_label_2
_geom_bond_site_symmetry_1
_geom_bond_site_symmetry_2
C1 H1 1_555 1_555
C2 C1 1_555 1_555
H2 C2 1_555 1_555
C3 C2 1_555 1_555
C4 C3 1_555 1_555
H3 C4 1_555 1_555
C5 C4 1_555 1_555
H4 C5 1_555 1_555
C6 C3 1_555 1_555
C7 C6 1_555 1_555
H5 C7 1_555 1_555
C8 C7 1_555 1_555
H6 C8 1_555 1_555
C9 C8 1_555 1_555
C10 C9 1_555 1_555
C11 C10 1_555 1_555
H7 C11 1_555 1_555
C12 C11 1_555 1_555
H8 C12 1_555 1_555
C13 H9 1_555 1_555
C14 C10 1_555 1_555
H10 C14 1_555 1_555
C15 H11 1_555 1_555
C16 C15 1_555 1_555
H12 C16 1_555 1_555
C17 C16 1_555 1_555
C18 C17 1_555 1_555
H13 C18 1_555 1_555
C19 C18 1_555 1_555
H14 C19 1_555 1_555
C20 C17 1_555 1_555
C21 C20 1_555 1_555
H15 C21 1_555 1_555
C22 C21 1_555 1_555
H16 C22 1_555 1_555
C23 C22 1_555 1_555
C24 C23 1_555 1_555
C25 C24 1_555 1_555
H17 C25 1_555 1_555
C26 C25 1_555 1_555
H18 C26 1_555 1_555
C27 H19 1_555 1_555
C28 C24 1_555 1_555
H20 C28 1_555 1_555
C29 C30 1_555 1_555
C30 C31 1_555 1_555
C31 H21 1_555 1_555
C32 C31 1_555 1_555
H22 C32 1_555 1_555
C33 C32 1_555 1_555
C34 C33 1_555 1_555
H23 C34 1_555 1_555
C35 C30 1_555 1_555
H24 C35 1_555 1_555
C36 C33 1_555 1_555
C37 C38 1_555 1_555
C38 C39 1_555 1_555
C39 H25 1_555 1_555
C40 C39 1_555 1_555
H26 C40 1_555 1_555
C41 C40 1_555 1_555
C42 C41 1_555 1_555
H27 C42 1_555 1_555
C43 C38 1_555 1_555
H28 C43 1_555 1_555
C44 C41 1_555 1_555
C45 C46 1_555 1_555
C46 C47 1_555 1_555
C47 H29 1_555 1_555
C48 C47 1_555 1_555
H30 C48 1_555 1_555
C49 C48 1_555 1_555
C50 C49 1_555 1_555
H31 C50 1_555 1_555
C51 C46 1_555 1_555
H32 C51 1_555 1_555
C52 C49 1_555 1_555
C53 C54 1_555 1_555
C54 C55 1_555 1_555
C55 H33 1_555 1_555
C56 C54 1_555 1_555
H34 C56 1_555 1_555
C57 C55 1_555 1_555
H35 C57 1_555 1_555
C58 C56 1_555 1_555
H36 C58 1_555 1_555
C59 C57 1_555 1_555
C60 C59 1_555 1_555
N1 C1 1_555 1_555
N2 C12 1_555 1_555
N3 C15 1_555 1_555
N4 C26 1_555 1_555
O1 C52 1_555 1_555
O2 C52 1_555 1_555
O3 C60 1_555 1_555
O4 C60 1_555 1_555
O5 C53 1_555 1_555
O6 C53 1_555 1_555
O7 C45 1_555 1_555
O8 C45 1_555 1_555
O9 H37 1_555 1_555
H38 O9 1_555 1_555
O10 C29 1_555 1_555
O11 C29 1_555 1_555
O12 C44 1_555 1_555
O13 C44 1_555 1_555
O14 C37 1_555 1_555
O15 C37 1_555 1_555
O16 C36 1_555 1_555
O17 C36 1_555 1_555
O18 H39 1_555 1_555
H40 O18 1_555 1_555
O19 H41 1_555 1_555
H42 O19 1_555 1_555
O20 H43 1_555 1_555
H44 O20 1_555 1_555
S1 C20 1_555 1_555
S2 C6 1_555 1_555
Zn1 N1 1_555 1_555
Zn2 N3 1_555 1_555
Zn3 N2 1_555 1_555
Zn4 N4 1_555 1_555
O1_2 Zn3 1_555 1_555
O2_2 Zn3 1_555 1_555
O3_2 Zn3 1_555 1_555
O4_2 Zn4 1_555 1_555
O14_2 Zn2 1_555 1_555
O15_2 Zn1 1_555 1_555
O16_2 Zn1 1_555 1_555
Zn1_2 O16 1_555 1_555
Zn1_3 O15 1_555 1_555
Zn2_2 O14 1_555 1_555
Zn3_2 O3 1_555 1_555
Zn3_3 O1 1_555 1_555
Zn4_2 O4 1_555 1_555
C5 N1 1_555 1_555
C9 S2 1_555 1_555
C13 C14 1_555 1_555
C13 N2 1_555 1_555
C19 N3 1_555 1_555
C23 S1 1_555 1_555
C27 C28 1_555 1_555
C27 N4 1_555 1_555
C34 C35 1_555 1_555
C42 C43 1_555 1_555
C50 C51 1_555 1_555
C58 C59 1_555 1_555
O2 Zn3_3 1_555 1_555
O5 Zn3 1_555 1_555
O6 Zn4 1_555 1_555
O7 Zn4 1_555 1_555
O9 Zn4 1_555 1_555
O11 Zn2 1_555 1_555
O12 Zn2 1_555 1_555
O13 Zn1 1_555 1_555
O18 Zn1 1_555 1_555

#END
