
#######################################################################
#
#                 Cambridge Crystallographic Data Centre
#                                CCDC 
#
#######################################################################
#
# If this CIF has been generated from an entry in the Cambridge 
# Structural Database, then it will include bibliographic, chemical, 
# crystal, experimental, refinement or atomic coordinate data resulting 
# from the CCDC's data processing and validation procedures.
#
#######################################################################

data_PEKVOS
_symmetry_cell_setting           monoclinic
_symmetry_space_group_name_H-M   'P 21/n'
_symmetry_Int_Tables_number      14
_space_group_name_Hall           '-P 2yn'
loop_
_symmetry_equiv_pos_site_id
_symmetry_equiv_pos_as_xyz
1 x,y,z
2 1/2-x,1/2+y,1/2-z
3 -x,-y,-z
4 1/2+x,1/2-y,1/2+z
_cell_length_a                   5.5196(7)
_cell_length_b                   15.681(2)
_cell_length_c                   14.5816(19)
_cell_angle_alpha                90
_cell_angle_beta                 99.321(2)
_cell_angle_gamma                90
_cell_volume                     1245.42
loop_
_atom_site_label
_atom_site_type_symbol
_atom_site_fract_x
_atom_site_fract_y
_atom_site_fract_z
Cs1 Cs 0.76481(6) 0.361004(19) 0.12842(2)
U1 U 0.76998(3) 0.648059(11) 0.129590(12)
P1 P 1.3184(2) 0.51694(8) 0.21597(8)
P2 P 1.7742(2) 0.70481(8) 0.59266(8)
O1 O 0.7917(6) 0.6116(2) 0.0152(2)
O2 O 0.7425(6) 0.6892(2) 0.2412(2)
O3 O 1.0550(6) 0.5471(2) 0.1888(2)
O4 O 1.4837(6) 0.5456(2) 0.1475(2)
O5 O 1.3323(6) 0.4194(2) 0.2232(2)
H1 H 1.2476 0.4025 0.2626
O6 O 1.5718(6) 0.7551(2) 0.6271(2)
O7 O 1.9628(6) 0.7639(2) 0.5595(2)
O8 O 1.9016(6) 0.6431(2) 0.6659(2)
H2 H 1.8010 0.6263 0.6995
C1 C 1.4341(8) 0.5611(3) 0.3282(3)
C2 C 1.3051(10) 0.6263(3) 0.3635(4)
H3 H 1.1481 0.6425 0.3314
C3 C 1.4032(9) 0.6680(3) 0.4451(4)
H4 H 1.3121 0.7119 0.4688
C4 C 1.6338(9) 0.6458(3) 0.4925(3)
C5 C 1.7599(10) 0.5786(3) 0.4576(4)
H5 H 1.9165 0.5620 0.4896
C6 C 1.6602(10) 0.5368(3) 0.3781(4)
H6 H 1.7465 0.4904 0.3566
U1_2 U 1.76998(3) 0.648059(11) 0.129590(12)
U1C U 1.26998(3) 0.851941(11) 0.629590(12)
U1C_2 U 2.26998(3) 0.851941(11) 0.629590(12)
O4_2 O 0.4837(6) 0.5456(2) 0.1475(2)
O6C O 1.0718(6) 0.7449(2) 0.1271(2)
O7C O 0.4628(6) 0.7361(2) 0.0595(2)
loop_
_geom_bond_atom_site_label_1
_geom_bond_atom_site_label_2
_geom_bond_site_symmetry_1
_geom_bond_site_symmetry_2
U1 O1 1_555 1_555
P1 O3 1_555 1_555
P2 O6 1_555 1_555
O2 U1 1_555 1_555
O3 U1 1_555 1_555
O4 P1 1_555 1_555
O5 P1 1_555 1_555
H1 O5 1_555 1_555
O6 U1C 1_555 1_555
O7 P2 1_555 1_555
O8 P2 1_555 1_555
H2 O8 1_555 1_555
C1 P1 1_555 1_555
C2 C1 1_555 1_555
H3 C2 1_555 1_555
C3 C2 1_555 1_555
H4 C3 1_555 1_555
C4 P2 1_555 1_555
C5 C4 1_555 1_555
H5 C5 1_555 1_555
C6 C1 1_555 1_555
H6 C6 1_555 1_555
U1_2 O4 1_555 1_555
U1C_2 O7 1_555 1_555
O4_2 U1 1_555 1_555
O6C U1 1_555 1_555
O7C U1 1_555 1_555
C3 C4 1_555 1_555
C5 C6 1_555 1_555

#END
