
#######################################################################
#
#                 Cambridge Crystallographic Data Centre
#                                CCDC 
#
#######################################################################
#
# If this CIF has been generated from an entry in the Cambridge 
# Structural Database, then it will include bibliographic, chemical, 
# crystal, experimental, refinement or atomic coordinate data resulting 
# from the CCDC's data processing and validation procedures.
#
#######################################################################

data_PEKVIM
_symmetry_cell_setting           monoclinic
_symmetry_space_group_name_H-M   'P 21/m'
_symmetry_Int_Tables_number      11
_space_group_name_Hall           '-P 2yb'
loop_
_symmetry_equiv_pos_site_id
_symmetry_equiv_pos_as_xyz
1 x,y,z
2 -x,1/2+y,-z
3 -x,-y,-z
4 x,1/2-y,z
_cell_length_a                   6.3558(12)
_cell_length_b                   20.655(4)
_cell_length_c                   7.8807(14)
_cell_angle_alpha                90
_cell_angle_beta                 92.286(2)
_cell_angle_gamma                90
_cell_volume                     1033.75
loop_
_atom_site_label
_atom_site_type_symbol
_atom_site_fract_x
_atom_site_fract_y
_atom_site_fract_z
U1 U 0.46382(3) 0.7500 0.72011(2)
Ag1 Ag 0.90404(6) 0.7500 0.33153(5)
Ag2 Ag 0.39704(6) 0.7500 1.19026(5)
P1 P 0.26057(14) 0.62915(4) 0.43995(11)
P2 P 0.73342(14) 0.63656(4) 1.01125(11)
O1 O 0.6241(5) 0.7500 0.5373(4)
O2 O 0.2953(5) 0.7500 0.8958(4)
O3 O 0.2583(4) 0.67078(12) 0.5995(3)
O4 O 0.1666(4) 0.66568(11) 0.2870(3)
O5 O 0.4874(4) 0.60528(12) 0.4076(3)
H1 H 0.5394 0.6281 0.3316
O6 O 0.6691(4) 0.67366(11) 0.8509(3)
O7 O 0.9750(4) 0.62268(11) 1.0108(3)
H2 H 1.0332 0.6369 1.1007
O8 O 0.6775(4) 0.66998(11) 1.1750(3)
C1 C 0.1165(5) 0.55618(16) 0.4762(4)
C2 C 0.1837(5) 0.49747(17) 0.4099(4)
H3 H 0.3093 0.4959 0.3486
C3 C -0.0684(5) 0.55856(17) 0.5670(4)
H4 H -0.1146 0.5985 0.6125
C4 C 0.6057(5) 0.55924(17) 1.0004(4)
C5 C 0.4038(6) 0.55384(17) 0.9234(4)
H5 H 0.3385 0.5906 0.8714
C6 C 0.7002(6) 0.50481(17) 1.0770(4)
H6 H 0.8369 0.5083 1.1296
U1A U -0.46382(3) 0.2500 0.27989(2)
U1A_2 U 0.53618(3) 0.2500 1.27989(2)
Ag1_2 Ag -0.09596(6) 0.7500 0.33153(5)
Ag1_3 Ag 0.90404(6) 0.7500 1.33153(5)
Ag1A Ag 0.09596(6) 0.2500 0.66847(5)
Ag2_2 Ag 0.39704(6) 0.7500 0.19026(5)
Ag2A Ag -0.39704(6) 0.2500 0.80974(5)
Ag2A_2 Ag 0.60296(6) 0.2500 0.80974(5)
P1B P -0.26057(14) 0.37085(4) 0.56005(11)
P2B P 0.26658(14) 0.36344(4) 0.98875(11)
O3B O -0.2583(4) 0.32922(12) 0.4005(3)
O3C O 0.2583(4) 0.82922(12) 0.5995(3)
O4B O -0.1666(4) 0.33432(11) 0.7130(3)
O4_2 O 1.1666(4) 0.66568(11) 0.2870(3)
O4C O 1.1666(4) 0.83432(11) 0.2870(3)
O4_3 O 0.1666(4) 0.66568(11) 1.2870(3)
O4C_2 O 0.1666(4) 0.83432(11) 1.2870(3)
O5B O -0.4874(4) 0.39472(12) 0.5924(3)
H1B H -0.5394 0.3719 0.6684
O6B O 0.3309(4) 0.32634(11) 1.1491(3)
O6C O 0.6691(4) 0.82634(11) 0.8509(3)
O7B O 0.0250(4) 0.37732(11) 0.9892(3)
H2B H -0.0332 0.3631 0.8993
O8B O 0.3225(4) 0.33002(11) 0.8250(3)
O8_2 O 0.6775(4) 0.66998(11) 0.1750(3)
O8C O 0.6775(4) 0.83002(11) 0.1750(3)
O8C_2 O 0.6775(4) 0.83002(11) 1.1750(3)
C1B C -0.1165(5) 0.44382(16) 0.5238(4)
C2B C -0.1837(5) 0.50253(17) 0.5901(4)
H3B H -0.3093 0.5041 0.6514
C3B C 0.0684(5) 0.44144(17) 0.4330(4)
H4B H 0.1146 0.4015 0.3875
C4B C 0.3943(5) 0.44076(17) 0.9996(4)
C5B C 0.5962(6) 0.44616(17) 1.0766(4)
H5B H 0.6615 0.4094 1.1286
C6B C 0.2998(6) 0.49519(17) 0.9230(4)
H6B H 0.1631 0.4917 0.8704
loop_
_geom_bond_atom_site_label_1
_geom_bond_atom_site_label_2
_geom_bond_site_symmetry_1
_geom_bond_site_symmetry_2
U1 O1 1_555 1_555
Ag1 O1 1_555 1_555
Ag2 O2 1_555 1_555
P1 O3 1_555 1_555
P2 O6 1_555 1_555
O2 U1 1_555 1_555
O3 U1 1_555 1_555
O4 P1 1_555 1_555
O5 P1 1_555 1_555
H1 O5 1_555 1_555
O6 U1 1_555 1_555
O7 P2 1_555 1_555
H2 O7 1_555 1_555
O8 Ag2 1_555 1_555
C1 P1 1_555 1_555
C2 C1 1_555 1_555
H3 C2 1_555 1_555
C3 C1 1_555 1_555
H4 C3 1_555 1_555
C4 P2 1_555 1_555
C5 C4 1_555 1_555
H5 C5 1_555 1_555
C6 C4 1_555 1_555
H6 C6 1_555 1_555
U1A O3B 1_555 1_555
U1A_2 O6B 1_555 1_555
Ag1_2 O4 1_555 1_555
Ag1_3 O8 1_555 1_555
Ag1A O4B 1_555 1_555
Ag2_2 O4 1_555 1_555
Ag2A O4B 1_555 1_555
Ag2A_2 O8B 1_555 1_555
P1B O3B 1_555 1_555
P2B O6B 1_555 1_555
O3C U1 1_555 1_555
O4B P1B 1_555 1_555
O4_2 Ag1 1_555 1_555
O4C Ag1 1_555 1_555
O4_3 Ag2 1_555 1_555
O4C_2 Ag2 1_555 1_555
O5B P1B 1_555 1_555
H1B O5B 1_555 1_555
O6C U1 1_555 1_555
O7B P2B 1_555 1_555
H2B O7B 1_555 1_555
O8B Ag1A 1_555 1_555
O8_2 Ag1 1_555 1_555
O8C Ag1 1_555 1_555
O8C_2 Ag2 1_555 1_555
C1B P1B 1_555 1_555
C2B C3 1_555 1_555
H3B C2B 1_555 1_555
C3B C2 1_555 1_555
H4B C3B 1_555 1_555
C4B P2B 1_555 1_555
C5B C6 1_555 1_555
H5B C5B 1_555 1_555
C6B C5 1_555 1_555
H6B C6B 1_555 1_555
P2 O8 1_555 1_555
Ag1_3 O8C_2 1_555 1_555
Ag2_2 O8_2 1_555 1_555
Ag2_2 O8C 1_555 1_555
P2B O8B 1_555 1_555
C1B C2B 1_555 1_555
C1B C3B 1_555 1_555
C4B C5B 1_555 1_555
C4B C6B 1_555 1_555

#END
