
#######################################################################
#
#                 Cambridge Crystallographic Data Centre
#                                CCDC 
#
#######################################################################
#
# If this CIF has been generated from an entry in the Cambridge 
# Structural Database, then it will include bibliographic, chemical, 
# crystal, experimental, refinement or atomic coordinate data resulting 
# from the CCDC's data processing and validation procedures.
#
#######################################################################

data_PEKWAF
_symmetry_cell_setting           orthorhombic
_symmetry_space_group_name_H-M   'C m c m'
_symmetry_Int_Tables_number      63
_space_group_name_Hall           '-C 2n 2'
loop_
_symmetry_equiv_pos_site_id
_symmetry_equiv_pos_as_xyz
1 x,y,z
2 -x,-y,1/2+z
3 -x,y,1/2-z
4 x,-y,-z
5 1/2+x,1/2+y,z
6 1/2-x,1/2-y,1/2+z
7 1/2-x,1/2+y,1/2-z
8 1/2+x,1/2-y,-z
9 -x,-y,-z
10 x,y,1/2-z
11 x,-y,1/2+z
12 -x,y,z
13 1/2-x,1/2-y,-z
14 1/2+x,1/2+y,1/2-z
15 1/2+x,1/2-y,1/2+z
16 1/2-x,1/2+y,z
_cell_length_a                   7.1190(8)
_cell_length_b                   14.1051(16)
_cell_length_c                   17.698(2)
_cell_angle_alpha                90
_cell_angle_beta                 90
_cell_angle_gamma                90
_cell_volume                     1777.13
loop_
_atom_site_label
_atom_site_type_symbol
_atom_site_fract_x
_atom_site_fract_y
_atom_site_fract_z
U1 U -0.5000 0.23000(3) 0.865009(19)
Sr1 Sr 0.0000 0.27511(13) 0.7500
P1 P 0.0000 0.2124(2) 0.93622(14)
O1 O -0.5000 0.3574(6) 0.8637(4)
O2 O -0.5000 0.1029(6) 0.8600(4)
O3 O -0.1739(8) 0.2302(4) 0.8878(3)
O4 O 0.0000 0.2744(5) 1.0067(4)
O5 O -0.3284(9) 0.2335(5) 0.7500
O7 O 0.0000 0.0897(12) 0.7500
C1 C 0.0000 0.0914(8) 0.9678(5)
C2 C -0.1675(9) 0.0450(6) 0.9841(4)
H1 H -0.2812 0.0747 0.9735
U1B U 0.5000 0.23000(3) 0.634991(19)
U1G U 0.0000 0.27000(3) 1.134991(19)
U1B_2 U -0.5000 0.23000(3) 0.634991(19)
U1C U -0.5000 -0.23000(3) 1.134991(19)
U1C_2 U 0.5000 -0.23000(3) 1.134991(19)
U1D U 0.0000 -0.27000(3) 0.865009(19)
U1_2 U 0.5000 0.23000(3) 0.865009(19)
P1C P 0.0000 -0.2124(2) 1.06378(14)
O1B O 0.5000 0.3574(6) 0.6363(4)
O2B O 0.5000 0.1029(6) 0.6400(4)
O3C O -0.1739(8) -0.2302(4) 1.1122(3)
O3H O 0.1739(8) -0.2302(4) 1.1122(3)
O3K O 0.1739(8) 0.2302(4) 0.8878(3)
O3K_2 O -0.8261(8) 0.2302(4) 0.8878(3)
O3B O 0.1739(8) 0.2302(4) 0.6122(3)
O3I O 0.8261(8) 0.2302(4) 0.6122(3)
O4C O 0.0000 -0.2744(5) 0.9933(4)
O4G O -0.5000 0.2256(5) 0.9933(4)
O4E O 0.5000 0.2256(5) 0.5067(4)
O5B O 0.3284(9) 0.2335(5) 0.7500
O5B_2 O -0.6716(9) 0.2335(5) 0.7500
O5_2 O 0.6716(9) 0.2335(5) 0.7500
C1C C 0.0000 -0.0914(8) 1.0322(5)
C2C C -0.1675(9) -0.0450(6) 1.0159(4)
C2H C 0.1675(9) -0.0450(6) 1.0159(4)
C2K C 0.1675(9) 0.0450(6) 0.9841(4)
H1H H 0.2812 -0.0747 1.0265
H1K H 0.2812 0.0747 0.9735
H1C H -0.2812 -0.0747 1.0265
O6 O 0.160(2) -0.4318(12) 1.1964(8)
loop_
_geom_bond_atom_site_label_1
_geom_bond_atom_site_label_2
_geom_bond_site_symmetry_1
_geom_bond_site_symmetry_2
U1 O1 1_555 1_555
Sr1 O5 1_555 1_555
P1 O3 1_555 1_555
O2 U1 1_555 1_555
O3 U1 1_555 1_555
O4 P1 1_555 1_555
O5 U1 1_555 1_555
O7 Sr1 1_555 1_555
C1 P1 1_555 1_555
C2 C1 1_555 1_555
H1 C2 1_555 1_555
U1B O1B 1_555 1_555
U1G O4 1_555 1_555
U1B_2 O5 1_555 1_555
U1C O3C 1_555 1_555
U1C_2 O3H 1_555 1_555
U1D O4C 1_555 1_555
U1_2 O3K 1_555 1_555
P1C O3C 1_555 1_555
O2B U1B 1_555 1_555
O3H P1C 1_555 1_555
O3K P1 1_555 1_555
O3K_2 U1 1_555 1_555
O3B U1B 1_555 1_555
O3I U1B 1_555 1_555
O4C P1C 1_555 1_555
O4G U1 1_555 1_555
O4E U1B 1_555 1_555
O5B Sr1 1_555 1_555
O5B_2 U1 1_555 1_555
O5_2 U1B 1_555 1_555
C1C P1C 1_555 1_555
C2C C2 1_555 1_555
C2H C1C 1_555 1_555
C2K C1 1_555 1_555
H1H C2H 1_555 1_555
H1K C2K 1_555 1_555
H1C C2C 1_555 1_555
U1B O5B 1_555 1_555
U1B_2 O5B_2 1_555 1_555
U1_2 O5B 1_555 1_555
U1_2 O5_2 1_555 1_555
C1C C2C 1_555 1_555
C2H C2K 1_555 1_555

#END
