
#######################################################################
#
#                 Cambridge Crystallographic Data Centre
#                                CCDC 
#
#######################################################################
#
# If this CIF has been generated from an entry in the Cambridge 
# Structural Database, then it will include bibliographic, chemical, 
# crystal, experimental, refinement or atomic coordinate data resulting 
# from the CCDC's data processing and validation procedures.
#
#######################################################################

data_PEKXEJ
_symmetry_cell_setting           orthorhombic
_symmetry_space_group_name_H-M   'C m c m'
_symmetry_Int_Tables_number      63
_space_group_name_Hall           '-C 2n 2'
loop_
_symmetry_equiv_pos_site_id
_symmetry_equiv_pos_as_xyz
1 x,y,z
2 1/2+x,1/2+y,z
3 -x,-y,1/2+z
4 1/2-x,1/2-y,1/2+z
5 x,-y,-z
6 1/2+x,1/2-y,-z
7 -x,y,1/2-z
8 1/2-x,1/2+y,1/2-z
9 -x,-y,-z
10 1/2-x,1/2-y,-z
11 x,y,1/2-z
12 1/2+x,1/2+y,1/2-z
13 -x,y,z
14 1/2-x,1/2+y,z
15 x,-y,1/2+z
16 1/2+x,1/2-y,1/2+z
_cell_length_a                   9.0400(4)
_cell_length_b                   10.4900(5)
_cell_length_c                   13.9240(8)
_cell_angle_alpha                90
_cell_angle_beta                 90
_cell_angle_gamma                90
_cell_volume                     1320.41
loop_
_atom_site_label
_atom_site_type_symbol
_atom_site_fract_x
_atom_site_fract_y
_atom_site_fract_z
In1 In 0.5000 0.48912(6) 0.2500
Cl1 Cl 0.2410 0.44262(15) 0.2500
Cl2 Cl 0.5000 0.6252 0.1079
S1 S 0.34673(12) 0.22006(10) 0.10898(8)
C1 C 0.4214(5) 0.0944(4) 0.0462(3)
N1 N 0.5000 0.2901(5) 0.1404(4)
C2 C 0.3413(8) 0.0000 0.0000
H1 H 0.2491 0.0000 0.0000
In1N In 0.5000 -0.48912(6) -0.2500
Cl1L Cl 0.7590 0.44262(15) 0.2500
Cl2J Cl 0.5000 0.6252 0.3921
S1L S 0.65327(12) 0.22006(10) 0.10898(8)
S1H S 0.65327(12) -0.22006(10) -0.10898(8)
S1D S 0.34673(12) -0.22006(10) -0.10898(8)
C1L C 0.5786(5) 0.0944(4) 0.0462(3)
C1H C 0.5786(5) -0.0944(4) -0.0462(3)
C1D C 0.4214(5) -0.0944(4) -0.0462(3)
N1H N 0.5000 -0.2901(5) -0.1404(4)
N1J N 0.5000 0.2901(5) 0.3596(4)
C2L C 0.6587(8) 0.0000 0.0000
H1L H 0.7509 0.0000 0.0000
loop_
_geom_bond_atom_site_label_1
_geom_bond_atom_site_label_2
_geom_bond_site_symmetry_1
_geom_bond_site_symmetry_2
In1 Cl1 1_555 1_555
Cl2 In1 1_555 1_555
S1 C1 1_555 1_555
C1 C2 1_555 1_555
N1 In1 1_555 1_555
C2 H1 1_555 1_555
In1N N1H 1_555 1_555
Cl1L In1 1_555 1_555
Cl2J In1 1_555 1_555
S1L N1 1_555 1_555
S1H C1H 1_555 1_555
S1D C1D 1_555 1_555
C1L C1 1_555 1_555
C1H C1D 1_555 1_555
C1D C2 1_555 1_555
N1H S1H 1_555 1_555
N1J In1 1_555 1_555
C2L C1L 1_555 1_555
H1L C2L 1_555 1_555
S1 N1 1_555 1_555
S1L C1L 1_555 1_555
S1D N1H 1_555 1_555
C1H C2L 1_555 1_555

#END
