
#######################################################################
#
#                 Cambridge Crystallographic Data Centre
#                                CCDC 
#
#######################################################################
#
# If this CIF has been generated from an entry in the Cambridge 
# Structural Database, then it will include bibliographic, chemical, 
# crystal, experimental, refinement or atomic coordinate data resulting 
# from the CCDC's data processing and validation procedures.
#
#######################################################################

data_PEKYAG
_symmetry_cell_setting           orthorhombic
_symmetry_space_group_name_H-M   'P b c n'
_symmetry_Int_Tables_number      60
_space_group_name_Hall           '-P 2n 2ab'
loop_
_symmetry_equiv_pos_site_id
_symmetry_equiv_pos_as_xyz
1 x,y,z
2 1/2+x,1/2-y,-z
3 -x,y,1/2-z
4 1/2-x,1/2-y,1/2+z
5 -x,-y,-z
6 1/2-x,1/2+y,z
7 x,-y,1/2+z
8 1/2+x,1/2+y,1/2-z
_cell_length_a                   19.529(3)
_cell_length_b                   14.994(2)
_cell_length_c                   22.238(3)
_cell_angle_alpha                90
_cell_angle_beta                 90
_cell_angle_gamma                90
_cell_volume                     6511.68
loop_
_atom_site_label
_atom_site_type_symbol
_atom_site_fract_x
_atom_site_fract_y
_atom_site_fract_z
W1 W 0.63966(7) 0.52385(11) 0.61639(7)
Br1 Br 0.7080(3) 0.5211(5) 0.4045(2)
Br2 Br 0.7447(3) 0.7748(3) 0.6785(2)
Cu1 Cu 0.6728(2) 0.5209(4) 0.5017(2)
Cu2 Cu 0.7434(2) 0.6416(3) 0.6119(3)
Cu3 Cu 0.7465(2) 0.4095(3) 0.6104(3)
S1 S 0.6496(6) 0.6444(7) 0.5538(5)
S2 S 0.7356(4) 0.5243(8) 0.6745(4)
S3 S 0.6498(6) 0.4003(7) 0.5557(5)
N1 N 0.8372(13) 0.649(2) 0.573(2)
N2 N 1.1624(10) 0.599(2) 0.4308(12)
C1 C 0.571(2) 0.466(3) 0.694(1)
C2 C 0.529(2) 0.468(3) 0.641(2)
C3 C 0.521(2) 0.552(2) 0.625(2)
C4 C 0.554(2) 0.604(2) 0.669(1)
C5 C 0.580(2) 0.541(2) 0.708(2)
C6 C 0.592(3) 0.385(3) 0.727(2)
C7 C 0.497(3) 0.399(3) 0.608(3)
C8 C 0.476(2) 0.588(3) 0.575(2)
C9 C 0.551(2) 0.704(2) 0.667(2)
C10 C 0.617(3) 0.581(4) 0.764(3)
C11 C 0.840(1) 0.634(2) 0.510(1)
C12 C 0.904(2) 0.622(2) 0.4818(10)
C13 C 0.9640(13) 0.626(2) 0.516(2)
C14 C 0.9607(13) 0.641(2) 0.578(2)
C15 C 0.897(2) 0.653(2) 0.6066(10)
C16 C 1.103(1) 0.588(2) 0.3967(8)
C17 C 1.0389(11) 0.597(2) 0.4237(12)
C18 C 1.0341(11) 0.618(2) 0.4848(12)
C19 C 1.094(2) 0.628(2) 0.5189(8)
C20 C 1.1577(12) 0.619(2) 0.4920(11)
H1 H 0.5766 0.3316 0.7077
H2 H 0.5741 0.3872 0.7665
H3 H 0.6407 0.3844 0.7285
H4 H 0.4722 0.4216 0.5746
H5 H 0.4675 0.3656 0.6332
H6 H 0.5327 0.3605 0.5934
H7 H 0.4760 0.6510 0.5775
H8 H 0.4306 0.5661 0.5779
H9 H 0.4948 0.5705 0.5370
H10 H 0.5773 0.7276 0.6995
H11 H 0.5045 0.7217 0.6717
H12 H 0.5683 0.7245 0.6302
H13 H 0.6380 0.5349 0.7866
H14 H 0.5849 0.6118 0.7880
H15 H 0.6517 0.6219 0.7508
Br2E Br 0.7553(3) 0.2748(3) 0.6785(2)
Cu3E Cu 0.7535(2) 0.9095(3) 0.6104(3)
Cu3D Cu 1.2535(2) 0.5905(3) 0.3896(3)
N2D N 0.8376(10) 0.401(2) 0.5692(12)
loop_
_geom_bond_atom_site_label_1
_geom_bond_atom_site_label_2
_geom_bond_site_symmetry_1
_geom_bond_site_symmetry_2
W1 S1 1_555 1_555
Br1 Cu1 1_555 1_555
Br2 Cu2 1_555 1_555
Cu1 S1 1_555 1_555
Cu2 S1 1_555 1_555
Cu3 S2 1_555 1_555
S2 W1 1_555 1_555
S3 W1 1_555 1_555
N1 Cu2 1_555 1_555
N2 C16 1_555 1_555
C1 W1 1_555 1_555
C2 W1 1_555 1_555
C3 W1 1_555 1_555
C4 W1 1_555 1_555
C5 W1 1_555 1_555
C6 C1 1_555 1_555
C7 C2 1_555 1_555
C8 C3 1_555 1_555
C9 C4 1_555 1_555
C10 C5 1_555 1_555
C11 N1 1_555 1_555
C12 C11 1_555 1_555
C13 C12 1_555 1_555
C14 C13 1_555 1_555
C15 N1 1_555 1_555
C16 C17 1_555 1_555
C17 C18 1_555 1_555
C18 C13 1_555 1_555
C19 C18 1_555 1_555
C20 N2 1_555 1_555
H1 C6 1_555 1_555
H2 C6 1_555 1_555
H3 C6 1_555 1_555
H4 C7 1_555 1_555
H5 C7 1_555 1_555
H6 C7 1_555 1_555
H7 C8 1_555 1_555
H8 C8 1_555 1_555
H9 C8 1_555 1_555
H10 C9 1_555 1_555
H11 C9 1_555 1_555
H12 C9 1_555 1_555
H13 C10 1_555 1_555
H14 C10 1_555 1_555
H15 C10 1_555 1_555
Br2E Cu3 1_555 1_555
Cu3E Br2 1_555 1_555
Cu3D N2 1_555 1_555
N2D Cu3 1_555 1_555
Cu1 S3 1_555 1_555
Cu2 S2 1_555 1_555
Cu3 S3 1_555 1_555
C1 C2 1_555 1_555
C1 C5 1_555 1_555
C2 C3 1_555 1_555
C3 C4 1_555 1_555
C4 C5 1_555 1_555
C14 C15 1_555 1_555
C19 C20 1_555 1_555

#END
