
#######################################################################
#
#                 Cambridge Crystallographic Data Centre
#                                CCDC 
#
#######################################################################
#
# If this CIF has been generated from an entry in the Cambridge 
# Structural Database, then it will include bibliographic, chemical, 
# crystal, experimental, refinement or atomic coordinate data resulting 
# from the CCDC's data processing and validation procedures.
#
#######################################################################

data_PELBEO
_symmetry_cell_setting           hexagonal
_symmetry_space_group_name_H-M   'P 61 2 2'
_symmetry_Int_Tables_number      178
_space_group_name_Hall           "P 61 2' (0,0,5)"
loop_
_symmetry_equiv_pos_site_id
_symmetry_equiv_pos_as_xyz
1 x,y,z
2 -y,x-y,1/3+z
3 -x+y,-x,2/3+z
4 -x,-y,1/2+z
5 y,-x+y,5/6+z
6 x-y,x,1/6+z
7 y,x,1/3-z
8 x-y,-y,-z
9 -x,-x+y,2/3-z
10 -y,-x,5/6-z
11 -x+y,y,1/2-z
12 x,x-y,1/6-z
_cell_length_a                   12.686(3)
_cell_length_b                   12.686(3)
_cell_length_c                   62.21(2)
_cell_angle_alpha                90
_cell_angle_beta                 90
_cell_angle_gamma                120
_cell_volume                     8670.42
loop_
_atom_site_label
_atom_site_type_symbol
_atom_site_fract_x
_atom_site_fract_y
_atom_site_fract_z
Tb1 Tb 0.46622(16) 0.92136(15) 0.838753(15)
K1 K 0.6139(8) 1.2372(6) 0.87390(8)
O3 O 0.485(3) 1.169(3) 0.9082(5)
H4 H 0.5280 1.1554 0.9194
H5 H 0.4096 1.0957 0.9055
N1 N 0.2688(17) 0.7593(16) 0.8554(2)
C1 C 0.2303(19) 0.7918(17) 0.8726(3)
C2 C 0.130(2) 0.714(2) 0.8849(4)
H6 H 0.1081 0.7419 0.8972
C3 C 0.064(2) 0.596(2) 0.8782(4)
H7 H -0.0064 0.5407 0.8857
C4 C 0.100(2) 0.556(2) 0.8609(3)
H8 H 0.0585 0.4742 0.8567
C5 C 0.200(2) 0.641(2) 0.8498(3)
H9 H 0.2211 0.6155 0.8372
C6 C 0.306(2) 0.9258(18) 0.8791(3)
O4 O 0.3985(14) 0.9925(13) 0.86738(19)
O5 O 0.2728(18) 0.9667(17) 0.8942(2)
N2 N 0.518(2) 0.8393(17) 0.8736(2)
C7 C 0.511(2) 0.7324(19) 0.8722(2)
C8 C 0.526(3) 0.672(2) 0.8894(3)
H10 H 0.5184 0.5948 0.8878
C9 C 0.554(3) 0.730(2) 0.9092(3)
H11 H 0.5610 0.6911 0.9214
C10 C 0.570(3) 0.845(2) 0.9109(3)
H12 H 0.5966 0.8896 0.9238
C11 C 0.545(3) 0.891(2) 0.8931(3)
H13 H 0.5472 0.9662 0.8947
C12 C 0.486(3) 0.677(2) 0.8497(3)
O6 O 0.4764(16) 0.7407(15) 0.83503(17)
O7 O 0.478(2) 0.5767(16) 0.8472(2)
N3 N 0.6607(18) 0.9845(18) 0.8159(3)
C13 C 0.760(2) 1.086(2) 0.8217(3)
C14 C 0.868(2) 1.141(2) 0.8104(4)
H14 H 0.9374 1.2115 0.8154
C15 C 0.868(3) 1.086(3) 0.7914(3)
H15 H 0.9406 1.1176 0.7834
C16 C 0.767(3) 0.987(3) 0.7838(4)
H16 H 0.7650 0.9545 0.7701
C17 C 0.668(2) 0.937(2) 0.7970(3)
H17 H 0.5990 0.8642 0.7926
C18 C 0.752(2) 1.136(2) 0.8432(3)
O8 O 0.6544(15) 1.0718(16) 0.8537(2)
O9 O 0.8383(19) 1.231(2) 0.8502(3)
N4 N 0.2735(17) 0.9391(17) 0.8236(2)
C19 C 0.229(2) 0.883(2) 0.8049(3)
C20 C 0.148(3) 0.899(3) 0.7924(4)
H18 H 0.1276 0.8672 0.7784
C21 C 0.100(2) 0.965(3) 0.8015(4)
H19 H 0.0350 0.9670 0.7946
C22 C 0.144(3) 1.026(3) 0.8203(5)
H20 H 0.1171 1.0775 0.8259
C23 C 0.229(2) 1.010(2) 0.8307(3)
H21 H 0.2598 1.0509 0.8437
C24 C 0.286(2) 0.810(2) 0.7967(3)
O10 O 0.3791(17) 0.8230(17) 0.8066(2)
O11 O 0.2413(19) 0.740(2) 0.7814(2)
Tb1H Tb 0.53378(16) 1.45514(22) 0.827914(15)
Tb1H_2 Tb 0.53378(16) 0.45514(22) 0.827914(15)
K1H K 0.3861(8) 0.6233(10) 0.79277(8)
K1H_2 K 0.3861(8) 1.6233(10) 0.79277(8)
O3H O 0.515(3) 0.684(4) 0.7585(5)
H4H H 0.4720 0.6274 0.7473
H5H H 0.5904 0.6861 0.7612
N1H N 0.7312(17) 1.4905(23) 0.8113(2)
C1H C 0.7697(19) 1.5615(25) 0.7941(3)
C2H C 0.870(2) 1.584(3) 0.7818(4)
H6H H 0.8919 1.6338 0.7695
C3H C 0.936(2) 1.532(3) 0.7885(4)
H7H H 1.0064 1.5471 0.7810
C4H C 0.900(2) 1.456(3) 0.8058(3)
H8H H 0.9415 1.4157 0.8100
C5H C 0.800(2) 1.441(3) 0.8169(3)
H9H H 0.7789 1.3944 0.8295
C6H C 0.694(2) 1.6198(27) 0.7876(3)
O4H O 0.6015(14) 1.5940(19) 0.79929(19)
O4H_2 O 0.6015(14) 0.5940(19) 0.79929(19)
O5H O 0.7272(18) 1.6939(25) 0.7725(2)
N2H N 0.482(2) 1.3213(26) 0.7931(2)
C7H C 0.489(2) 1.2214(28) 0.7945(2)
C8H C 0.474(3) 1.146(4) 0.7773(3)
H10H H 0.4816 1.0764 0.7789
C9H C 0.446(3) 1.176(4) 0.7575(3)
H11H H 0.4390 1.1301 0.7453
C10H C 0.430(3) 1.275(4) 0.7558(3)
H12H H 0.4034 1.2930 0.7429
C11H C 0.455(3) 1.346(4) 0.7736(3)
H13H H 0.4528 1.4190 0.7720
C12H C 0.514(3) 1.191(4) 0.8170(3)
O6H O 0.5236(16) 1.2643(22) 0.83164(17)
O7H O 0.522(2) 1.0987(26) 0.8195(2)
O7_2 O 0.478(2) 1.5767(16) 0.8472(2)
N3H N 0.3393(18) 1.3238(25) 0.8508(3)
C13H C 0.240(2) 1.326(3) 0.8450(3)
C14H C 0.132(2) 1.273(3) 0.8563(4)
H14H H 0.0626 1.2741 0.8513
C15H C 0.132(3) 1.218(4) 0.8753(3)
H15H H 0.0594 1.1770 0.8833
C16H C 0.233(3) 1.220(4) 0.8829(4)
H16H H 0.2350 1.1895 0.8966
C17H C 0.332(2) 1.269(3) 0.8697(3)
H17H H 0.4010 1.2652 0.8741
C18H C 0.248(2) 1.384(3) 0.8235(3)
O8H O 0.3456(15) 1.4174(22) 0.8130(2)
O8H_2 O 0.3456(15) 0.4174(22) 0.8130(2)
O9H O 0.1617(19) 1.3927(28) 0.8165(3)
N4H N 0.7265(17) 1.6656(24) 0.8431(2)
C19H C 0.771(2) 1.654(3) 0.8618(3)
C20H C 0.852(3) 1.751(4) 0.8743(4)
H18H H 0.8724 1.7396 0.8883
C21H C 0.900(2) 1.865(4) 0.8652(4)
H19H H 0.9650 1.9320 0.8721
C22H C 0.856(3) 1.882(4) 0.8464(5)
H20H H 0.8829 1.9604 0.8408
C23H C 0.771(2) 1.781(3) 0.8360(3)
H21H H 0.7402 1.7911 0.8230
C24H C 0.714(2) 1.524(3) 0.8700(3)
O10H O 0.6209(17) 1.4439(24) 0.8601(2)
O11H O 0.7587(19) 1.4987(28) 0.8853(2)
O12 O 0.0627(14) 0.9373(14) 0.9167
H22 H 0.1211 0.9444 0.9104
H22I H 0.0556 0.8789 0.9229
O13 O 0.4556(19) 0.911(4) 0.7500
H23 H 0.4012 0.8705 0.7578
H23J H 0.4693 0.8705 0.7422
O14 O 0.739(4) 1.110(4) 0.9401(5)
O15 O 1.069(3) 1.139(7) 0.7500
O1? O 0.432(4) 1.187(4) 0.9061(5)
H1? H 0.4683 1.2301 0.9191
H2? H 0.3904 1.1015 0.9089
O2? O 0.742(5) 1.258(5) 0.9167
H3? H 0.8250 1.2990 0.9126
loop_
_geom_bond_atom_site_label_1
_geom_bond_atom_site_label_2
_geom_bond_site_symmetry_1
_geom_bond_site_symmetry_2
Tb1 N1 1_555 1_555
K1 O3 1_555 1_555
O3 H4 1_555 1_555
H5 O3 1_555 1_555
N1 C1 1_555 1_555
C1 C2 1_555 1_555
C2 H6 1_555 1_555
C3 C2 1_555 1_555
H7 C3 1_555 1_555
C4 C3 1_555 1_555
H8 C4 1_555 1_555
C5 N1 1_555 1_555
H9 C5 1_555 1_555
C6 C1 1_555 1_555
O4 Tb1 1_555 1_555
O5 C6 1_555 1_555
N2 Tb1 1_555 1_555
C7 N2 1_555 1_555
C8 C7 1_555 1_555
H10 C8 1_555 1_555
C9 C8 1_555 1_555
H11 C9 1_555 1_555
C10 C9 1_555 1_555
H12 C10 1_555 1_555
C11 N2 1_555 1_555
H13 C11 1_555 1_555
C12 C7 1_555 1_555
O6 Tb1 1_555 1_555
O7 C12 1_555 1_555
N3 Tb1 1_555 1_555
C13 N3 1_555 1_555
C14 C13 1_555 1_555
H14 C14 1_555 1_555
C15 C14 1_555 1_555
H15 C15 1_555 1_555
C16 C15 1_555 1_555
H16 C16 1_555 1_555
C17 N3 1_555 1_555
H17 C17 1_555 1_555
C18 C13 1_555 1_555
O8 Tb1 1_555 1_555
O9 C18 1_555 1_555
N4 Tb1 1_555 1_555
C19 N4 1_555 1_555
C20 C19 1_555 1_555
H18 C20 1_555 1_555
C21 C20 1_555 1_555
H19 C21 1_555 1_555
C22 C21 1_555 1_555
H20 C22 1_555 1_555
C23 N4 1_555 1_555
H21 C23 1_555 1_555
C24 C19 1_555 1_555
O10 Tb1 1_555 1_555
O11 C24 1_555 1_555
O12 H22 1_555 1_555
O13 H23 1_555 1_555
Tb1H N1H 1_555 1_555
Tb1H_2 O7 1_555 1_555
K1H O6 1_555 1_555
K1H_2 O4H 1_555 1_555
O3H K1H 1_555 1_555
H4H O3H 1_555 1_555
H5H O3H 1_555 1_555
N1H C1H 1_555 1_555
C1H C2H 1_555 1_555
C2H H6H 1_555 1_555
C3H C2H 1_555 1_555
H7H C3H 1_555 1_555
C4H C3H 1_555 1_555
H8H C4H 1_555 1_555
C5H N1H 1_555 1_555
H9H C5H 1_555 1_555
C6H C1H 1_555 1_555
O4H Tb1H 1_555 1_555
O4H_2 Tb1H_2 1_555 1_555
O5H C6H 1_555 1_555
N2H Tb1H 1_555 1_555
C7H N2H 1_555 1_555
C8H C7H 1_555 1_555
H10H C8H 1_555 1_555
C9H C8H 1_555 1_555
H11H C9H 1_555 1_555
C10H C9H 1_555 1_555
H12H C10H 1_555 1_555
C11H N2H 1_555 1_555
H13H C11H 1_555 1_555
C12H C7H 1_555 1_555
O6H K1 1_555 1_555
O7H Tb1 1_555 1_555
O7_2 Tb1H 1_555 1_555
N3H Tb1H 1_555 1_555
C13H N3H 1_555 1_555
C14H C13H 1_555 1_555
H14H C14H 1_555 1_555
C15H C14H 1_555 1_555
H15H C15H 1_555 1_555
C16H C15H 1_555 1_555
H16H C16H 1_555 1_555
C17H N3H 1_555 1_555
H17H C17H 1_555 1_555
C18H C13H 1_555 1_555
O8H Tb1H 1_555 1_555
O8H_2 Tb1H_2 1_555 1_555
O9H C18H 1_555 1_555
N4H Tb1H 1_555 1_555
C19H N4H 1_555 1_555
C20H C19H 1_555 1_555
H18H C20H 1_555 1_555
C21H C20H 1_555 1_555
H19H C21H 1_555 1_555
C22H C21H 1_555 1_555
H20H C22H 1_555 1_555
C23H N4H 1_555 1_555
H21H C23H 1_555 1_555
C24H C19H 1_555 1_555
O10H K1 1_555 1_555
O11H K1 1_555 1_555
H22I O12 1_555 1_555
H23J O13 1_555 1_555
K1 O4 1_555 1_555
K1 O8 1_555 1_555
C4 C5 1_555 1_555
C6 O4 1_555 1_555
C10 C11 1_555 1_555
C12 O6 1_555 1_555
C16 C17 1_555 1_555
C18 O8 1_555 1_555
C22 C23 1_555 1_555
C24 O10 1_555 1_555
O10 K1H 1_555 1_555
O11 K1H 1_555 1_555
Tb1H O6H 1_555 1_555
Tb1H O10H 1_555 1_555
K1H O4H_2 1_555 1_555
K1H O8H_2 1_555 1_555
K1H_2 O8H 1_555 1_555
C4H C5H 1_555 1_555
C6H O4H 1_555 1_555
C10H C11H 1_555 1_555
C12H O6H 1_555 1_555
C12H O7H 1_555 1_555
C16H C17H 1_555 1_555
C18H O8H 1_555 1_555
C22H C23H 1_555 1_555
C24H O10H 1_555 1_555
C24H O11H 1_555 1_555

#END
