
#######################################################################
#
#                 Cambridge Crystallographic Data Centre
#                                CCDC 
#
#######################################################################
#
# If this CIF has been generated from an entry in the Cambridge 
# Structural Database, then it will include bibliographic, chemical, 
# crystal, experimental, refinement or atomic coordinate data resulting 
# from the CCDC's data processing and validation procedures.
#
#######################################################################

data_PELBAK
_symmetry_cell_setting           hexagonal
_symmetry_space_group_name_H-M   'P 65 2 2'
_symmetry_Int_Tables_number      179
_space_group_name_Hall           "P 65 2' (0,0,1)"
loop_
_symmetry_equiv_pos_site_id
_symmetry_equiv_pos_as_xyz
1 x,y,z
2 x-y,x,5/6+z
3 -y,x-y,2/3+z
4 -x,-y,1/2+z
5 -x+y,-x,1/3+z
6 y,-x+y,1/6+z
7 x-y,-y,-z
8 -y,-x,1/6-z
9 -x,-x+y,1/3-z
10 -x+y,y,1/2-z
11 y,x,2/3-z
12 x,x-y,5/6-z
_cell_length_a                   12.7621(13)
_cell_length_b                   12.7621(13)
_cell_length_c                   62.451(16)
_cell_angle_alpha                90
_cell_angle_beta                 90
_cell_angle_gamma                120
_cell_volume                     8808.75
loop_
_atom_site_label
_atom_site_type_symbol
_atom_site_fract_x
_atom_site_fract_y
_atom_site_fract_z
Eu1 Eu 0.53310(7) 0.07629(7) 0.161268(9)
K1 K 0.3871(4) -0.2385(3) 0.12601(6)
O3 O 0.519(2) -0.1754(19) 0.0910(3)
H4 H 0.4757 -0.1618 0.0798
H5 H 0.5940 -0.1021 0.0936
N1 N 0.7329(10) 0.2389(9) 0.14425(15)
C1 C 0.7706(11) 0.2049(10) 0.12703(18)
C2 C 0.8698(13) 0.2831(12) 0.1154(2)
H6 H 0.8931 0.2552 0.1032
C3 C 0.9347(14) 0.4004(13) 0.1213(3)
H7 H 1.0027 0.4560 0.1131
C4 C 0.9014(13) 0.4387(13) 0.1394(2)
H8 H 0.9474 0.5195 0.1444
C5 C 0.7986(13) 0.3546(11) 0.1497(2)
H9 H 0.7724 0.3813 0.1617
C6 C 0.6967(12) 0.0710(11) 0.12120(17)
O4 O 0.6026(9) 0.0074(8) 0.13250(13)
O5 O 0.7287(10) 0.0337(9) 0.10573(14)
N2 N 0.4855(11) 0.1614(9) 0.12604(15)
C7 C 0.4894(13) 0.2673(11) 0.12754(16)
C8 C 0.4736(15) 0.3266(13) 0.11056(18)
H10 H 0.4812 0.4041 0.1121
C9 C 0.4467(19) 0.2686(14) 0.0915(2)
H11 H 0.4355 0.3069 0.0794
C10 C 0.4351(17) 0.1559(14) 0.08898(18)
H12 H 0.4152 0.1153 0.0756
C11 C 0.4539(16) 0.1054(13) 0.10714(18)
H13 H 0.4438 0.0266 0.1061
C12 C 0.5151(13) 0.3208(11) 0.15005(18)
O6 O 0.5241(9) 0.2582(9) 0.16492(12)
O7 O 0.5248(10) 0.4214(8) 0.15231(14)
N3 N 0.3371(11) 0.0120(10) 0.18408(18)
C13 C 0.2381(12) -0.0892(13) 0.1781(2)
C14 C 0.1333(13) -0.1430(15) 0.1896(2)
H14 H 0.0655 -0.2163 0.1848
C15 C 0.1281(16) -0.0897(16) 0.2079(3)
H15 H 0.0541 -0.1224 0.2156
C16 C 0.2297(16) 0.0124(16) 0.2156(3)
H16 H 0.2307 0.0471 0.2291
C17 C 0.3293(15) 0.0601(14) 0.2022(2)
H17 H 0.3980 0.1339 0.2065
C18 C 0.2480(13) -0.1388(13) 0.1564(2)
O8 O 0.3457(9) -0.0759(9) 0.14597(14)
O9 O 0.1620(11) -0.2375(12) 0.1506(2)
N4 N 0.7249(11) 0.0597(11) 0.17656(15)
C19 C 0.7699(13) 0.1158(13) 0.1954(2)
C20 C 0.8551(15) 0.1046(17) 0.2070(2)
H18 H 0.8820 0.1423 0.2206
C21 C 0.8988(16) 0.0376(17) 0.1983(3)
H19 H 0.9621 0.0326 0.2054
C22 C 0.8536(16) -0.0236(17) 0.1793(3)
H20 H 0.8815 -0.0744 0.1737
C23 C 0.7677(14) -0.0092(15) 0.1689(2)
H21 H 0.7371 -0.0500 0.1557
C24 C 0.7132(13) 0.1883(13) 0.20345(19)
O10 O 0.6210(10) 0.1767(10) 0.19349(14)
O11 O 0.7584(13) 0.2565(14) 0.21896(17)
Eu1H Eu 0.46690(7) -0.45681(10) 0.172065(9)
Eu1H_2 Eu 0.46690(7) 0.54319(10) 0.172065(9)
K1H K 0.6129(4) 0.3744(5) 0.20732(6)
K1H_2 K 0.6129(4) -0.6256(5) 0.20732(6)
O3H O 0.481(2) 0.3056(28) 0.2423(3)
H4H H 0.5243 0.3625 0.2535
H5H H 0.4060 0.3039 0.2397
N1H N 0.2671(10) -0.4940(13) 0.18908(15)
C1H C 0.2294(11) -0.5657(15) 0.20630(18)
C2H C 0.1302(13) -0.5867(18) 0.2179(2)
H6H H 0.1069 -0.6379 0.2301
C3H C 0.0653(14) -0.5343(19) 0.2120(3)
H7H H -0.0027 -0.5467 0.2202
C4H C 0.0986(13) -0.4627(18) 0.1939(2)
H8H H 0.0526 -0.4279 0.1889
C5H C 0.2014(13) -0.4440(17) 0.1836(2)
H9H H 0.2276 -0.3911 0.1716
C6H C 0.3033(12) -0.6257(16) 0.21213(17)
O4H O 0.3974(9) -0.5952(12) 0.20083(13)
O4H_2 O 0.3974(9) 0.4048(12) 0.20083(13)
O5H O 0.2713(10) -0.6950(13) 0.22760(14)
N2H N 0.5145(11) -0.3241(14) 0.20729(15)
C7H C 0.5106(13) -0.2221(17) 0.20579(16)
C8H C 0.5264(15) -0.1470(20) 0.22277(18)
H10H H 0.5188 -0.0771 0.2212
C9H C 0.5533(19) -0.1781(24) 0.2418(2)
H11H H 0.5645 -0.1286 0.2539
C10H C 0.5649(17) -0.2792(22) 0.24435(18)
H12H H 0.5848 -0.2999 0.2577
C11H C 0.5461(16) -0.3485(21) 0.22619(18)
H13H H 0.5562 -0.4172 0.2272
C12H C 0.4849(13) -0.1943(17) 0.18328(18)
O6H O 0.4759(9) -0.2659(13) 0.16841(12)
O7H O 0.4752(10) -0.1034(13) 0.18102(14)
O7_2 O 0.5248(10) -0.5786(8) 0.15231(14)
N3H N 0.6629(11) -0.3251(15) 0.14925(18)
C13H C 0.7619(12) -0.3273(18) 0.1552(2)
C14H C 0.8667(13) -0.2763(20) 0.1437(2)
H14H H 0.9345 -0.2818 0.1485
C15H C 0.8719(16) -0.2178(23) 0.1254(3)
H15H H 0.9459 -0.1765 0.1177
C16H C 0.7703(16) -0.2173(23) 0.1177(3)
H16H H 0.7693 -0.1836 0.1042
C17H C 0.6707(15) -0.2692(21) 0.1311(2)
H17H H 0.6020 -0.2641 0.1268
C18H C 0.7520(13) -0.3868(18) 0.1769(2)
O8H O 0.6543(9) -0.4216(13) 0.18736(14)
O8H_2 O 0.6543(9) 0.5784(13) 0.18736(14)
O9H O 0.8380(11) -0.3995(16) 0.1827(2)
N4H N 0.2751(11) -0.6652(16) 0.15677(15)
C19H C 0.2301(13) -0.6541(18) 0.1379(2)
C20H C 0.1449(15) -0.7505(23) 0.1263(2)
H18H H 0.1180 -0.7397 0.1127
C21H C 0.1012(16) -0.8612(23) 0.1350(3)
H19H H 0.0379 -0.9295 0.1279
C22H C 0.1464(16) -0.8772(23) 0.1540(3)
H20H H 0.1185 -0.9559 0.1596
C23H C 0.2323(14) -0.7769(21) 0.1644(2)
H21H H 0.2629 -0.7871 0.1776
C24H C 0.2868(13) -0.5249(18) 0.12988(19)
O10H O 0.3790(10) -0.4443(14) 0.13984(14)
O11H O 0.2416(13) -0.5019(19) 0.11437(17)
O12 O 0.9376(8) 0.0624(8) 0.0833
H22 H 0.8792 0.0556 0.0896
H22G H 0.9444 0.1208 0.0771
O13 O 0.5418(11) 0.084(2) 0.2500
H23 H 0.5961 0.1295 0.2422
H23I H 0.5334 0.1295 0.2578
O14 O 0.270(2) -0.106(2) 0.0596(4)
O15 O -0.069(2) -0.139(4) 0.2500
O1? O 0.568(3) -0.184(3) 0.0954(4)
H1? H 0.5311 -0.2268 0.0824
H2? H 0.6090 -0.0982 0.0926
O2? O 0.267(3) -0.267(3) 0.0833
H3? H 0.1840 -0.2990 0.0875
loop_
_geom_bond_atom_site_label_1
_geom_bond_atom_site_label_2
_geom_bond_site_symmetry_1
_geom_bond_site_symmetry_2
Eu1 N1 1_555 1_555
K1 O3 1_555 1_555
O3 H4 1_555 1_555
H5 O3 1_555 1_555
N1 C1 1_555 1_555
C1 C2 1_555 1_555
C2 H6 1_555 1_555
C3 C2 1_555 1_555
H7 C3 1_555 1_555
C4 C3 1_555 1_555
H8 C4 1_555 1_555
C5 N1 1_555 1_555
H9 C5 1_555 1_555
C6 C1 1_555 1_555
O4 Eu1 1_555 1_555
O5 C6 1_555 1_555
N2 Eu1 1_555 1_555
C7 N2 1_555 1_555
C8 C7 1_555 1_555
H10 C8 1_555 1_555
C9 C8 1_555 1_555
H11 C9 1_555 1_555
C10 C9 1_555 1_555
H12 C10 1_555 1_555
C11 N2 1_555 1_555
H13 C11 1_555 1_555
C12 C7 1_555 1_555
O6 Eu1 1_555 1_555
O7 C12 1_555 1_555
N3 Eu1 1_555 1_555
C13 N3 1_555 1_555
C14 C13 1_555 1_555
H14 C14 1_555 1_555
C15 C14 1_555 1_555
H15 C15 1_555 1_555
C16 C15 1_555 1_555
H16 C16 1_555 1_555
C17 N3 1_555 1_555
H17 C17 1_555 1_555
C18 C13 1_555 1_555
O8 Eu1 1_555 1_555
O9 C18 1_555 1_555
N4 Eu1 1_555 1_555
C19 N4 1_555 1_555
C20 C19 1_555 1_555
H18 C20 1_555 1_555
C21 C20 1_555 1_555
H19 C21 1_555 1_555
C22 C21 1_555 1_555
H20 C22 1_555 1_555
C23 N4 1_555 1_555
H21 C23 1_555 1_555
C24 C19 1_555 1_555
O10 Eu1 1_555 1_555
O11 C24 1_555 1_555
O12 H22 1_555 1_555
O13 H23 1_555 1_555
Eu1H N1H 1_555 1_555
Eu1H_2 O7 1_555 1_555
K1H O6 1_555 1_555
K1H_2 O4H 1_555 1_555
O3H K1H 1_555 1_555
H4H O3H 1_555 1_555
H5H O3H 1_555 1_555
N1H C1H 1_555 1_555
C1H C2H 1_555 1_555
C2H H6H 1_555 1_555
C3H C2H 1_555 1_555
H7H C3H 1_555 1_555
C4H C3H 1_555 1_555
H8H C4H 1_555 1_555
C5H N1H 1_555 1_555
H9H C5H 1_555 1_555
C6H C1H 1_555 1_555
O4H Eu1H 1_555 1_555
O4H_2 Eu1H_2 1_555 1_555
O5H C6H 1_555 1_555
N2H Eu1H 1_555 1_555
C7H N2H 1_555 1_555
C8H C7H 1_555 1_555
H10H C8H 1_555 1_555
C9H C8H 1_555 1_555
H11H C9H 1_555 1_555
C10H C9H 1_555 1_555
H12H C10H 1_555 1_555
C11H N2H 1_555 1_555
H13H C11H 1_555 1_555
C12H C7H 1_555 1_555
O6H K1 1_555 1_555
O7H Eu1 1_555 1_555
O7_2 Eu1H 1_555 1_555
N3H Eu1H 1_555 1_555
C13H N3H 1_555 1_555
C14H C13H 1_555 1_555
H14H C14H 1_555 1_555
C15H C14H 1_555 1_555
H15H C15H 1_555 1_555
C16H C15H 1_555 1_555
H16H C16H 1_555 1_555
C17H N3H 1_555 1_555
H17H C17H 1_555 1_555
C18H C13H 1_555 1_555
O8H Eu1H 1_555 1_555
O8H_2 Eu1H_2 1_555 1_555
O9H C18H 1_555 1_555
N4H Eu1H 1_555 1_555
C19H N4H 1_555 1_555
C20H C19H 1_555 1_555
H18H C20H 1_555 1_555
C21H C20H 1_555 1_555
H19H C21H 1_555 1_555
C22H C21H 1_555 1_555
H20H C22H 1_555 1_555
C23H N4H 1_555 1_555
H21H C23H 1_555 1_555
C24H C19H 1_555 1_555
O10H K1 1_555 1_555
O11H K1 1_555 1_555
H22G O12 1_555 1_555
H23I O13 1_555 1_555
K1 O4 1_555 1_555
K1 O8 1_555 1_555
C4 C5 1_555 1_555
C6 O4 1_555 1_555
C10 C11 1_555 1_555
C12 O6 1_555 1_555
C16 C17 1_555 1_555
C18 O8 1_555 1_555
C22 C23 1_555 1_555
C24 O10 1_555 1_555
O10 K1H 1_555 1_555
O11 K1H 1_555 1_555
Eu1H O6H 1_555 1_555
Eu1H O10H 1_555 1_555
K1H O4H_2 1_555 1_555
K1H O8H_2 1_555 1_555
K1H_2 O8H 1_555 1_555
C4H C5H 1_555 1_555
C6H O4H 1_555 1_555
C10H C11H 1_555 1_555
C12H O6H 1_555 1_555
C12H O7H 1_555 1_555
C16H C17H 1_555 1_555
C18H O8H 1_555 1_555
C22H C23H 1_555 1_555
C24H O10H 1_555 1_555
C24H O11H 1_555 1_555

#END
