
#######################################################################
#
#                 Cambridge Crystallographic Data Centre
#                                CCDC 
#
#######################################################################
#
# If this CIF has been generated from an entry in the Cambridge 
# Structural Database, then it will include bibliographic, chemical, 
# crystal, experimental, refinement or atomic coordinate data resulting 
# from the CCDC's data processing and validation procedures.
#
#######################################################################

data_PELGIY
_symmetry_cell_setting           orthorhombic
_symmetry_space_group_name_H-M   'F d d d'
_symmetry_Int_Tables_number      70
_space_group_name_Hall           '-F 2uv 2vw'
loop_
_symmetry_equiv_pos_site_id
_symmetry_equiv_pos_as_xyz
1 x,y,z
2 1/4-x,1/4-y,z
3 x,1/4-y,1/4-z
4 1/4-x,y,1/4-z
5 x,1/2+y,1/2+z
6 1/4-x,3/4-y,1/2+z
7 x,3/4-y,3/4-z
8 1/4-x,1/2+y,3/4-z
9 1/2+x,y,1/2+z
10 3/4-x,1/4-y,1/2+z
11 1/2+x,1/4-y,3/4-z
12 3/4-x,y,3/4-z
13 1/2+x,1/2+y,z
14 3/4-x,3/4-y,z
15 1/2+x,3/4-y,1/4-z
16 3/4-x,1/2+y,1/4-z
17 -x,-y,-z
18 3/4+x,3/4+y,-z
19 -x,3/4+y,3/4+z
20 3/4+x,-y,3/4+z
21 -x,1/2-y,1/2-z
22 3/4+x,1/4+y,1/2-z
23 -x,1/4+y,1/4+z
24 3/4+x,1/2-y,1/4+z
25 1/2-x,-y,1/2-z
26 1/4+x,3/4+y,1/2-z
27 1/2-x,3/4+y,1/4+z
28 1/4+x,-y,1/4+z
29 1/2-x,1/2-y,-z
30 1/4+x,1/4+y,-z
31 1/2-x,1/4+y,3/4+z
32 1/4+x,1/2-y,3/4+z
_cell_length_a                   19.2774(8)
_cell_length_b                   20.9886(7)
_cell_length_c                   43.2840(16)
_cell_angle_alpha                90
_cell_angle_beta                 90
_cell_angle_gamma                90
_cell_volume                     17513
loop_
_atom_site_label
_atom_site_type_symbol
_atom_site_fract_x
_atom_site_fract_y
_atom_site_fract_z
Zn1 Zn 0.5000 0.5000 0.0000
O1 O 0.46558(10) 0.42364(8) 0.02863(4)
N1 N 0.47898(11) 0.56229(10) 0.03657(4)
C1 C 0.48739(14) 0.37102(12) 0.03661(6)
Zn2 Zn 0.3750 0.3750 0.075006(9)
O2 O 0.45719(11) 0.33668(9) 0.05679(4)
N2 N 0.40259(14) 0.80392(11) 0.14503(5)
C2 C 0.55003(14) 0.34066(12) 0.02172(6)
S1 S 0.63347(3) 0.44303(3) 0.038432(15)
O3 O 0.59804(13) 0.44389(12) 0.06787(5)
C3 C 0.61631(14) 0.36783(12) 0.02094(6)
O4 O 0.60523(10) 0.49015(9) 0.01659(5)
C4 C 0.67048(16) 0.33643(15) 0.00615(7)
H1 H 0.7147 0.3541 0.0062
O5 O 0.70798(11) 0.44794(10) 0.04083(5)
C5 C 0.65875(19) 0.27910(17) -0.00853(9)
H2 H 0.6949 0.2587 -0.0187
C6 C 0.5944(2) 0.25228(16) -0.00813(9)
H3 H 0.5868 0.2139 -0.0183
C7 C 0.53978(17) 0.28178(15) 0.00738(8)
H4 H 0.4965 0.2623 0.0082
C8 C 0.41692(14) 0.56662(13) 0.04981(6)
H5 H 0.3829 0.5374 0.0442
C9 C 0.40070(15) 0.61268(14) 0.07149(6)
H6 H 0.3566 0.6141 0.0802
C10 C 0.45052(14) 0.65680(12) 0.08025(5)
C11 C 0.51581(15) 0.65117(13) 0.06702(6)
H7 H 0.5512 0.6789 0.0726
C12 C 0.52758(15) 0.60407(13) 0.04554(6)
H8 H 0.5715 0.6011 0.0368
C13 C 0.43432(15) 0.70850(13) 0.10270(6)
C14 C 0.36759(19) 0.73063(19) 0.10604(8)
H9 H 0.3320 0.7137 0.0941
C15 C 0.3537(2) 0.77811(19) 0.12728(8)
H10 H 0.3083 0.7926 0.1293
C16 C 0.46709(17) 0.78259(16) 0.14197(7)
H11 H 0.5016 0.7999 0.1544
C17 C 0.48474(18) 0.73576(16) 0.12102(7)
H12 H 0.5306 0.7226 0.1193
Zn1B Zn 0.5000 0.7500 0.2500
O1P O 0.53442(10) 0.57636(8) -0.02863(4)
N1B N 0.47898(11) 0.68771(10) 0.21343(4)
N1P N 0.52102(11) 0.43771(10) -0.03657(4)
C1P C 0.51261(14) 0.62898(12) -0.03661(6)
Zn2B Zn 0.3750 0.8750 0.174994(9)
Zn2P Zn 0.6250 0.6250 -0.075006(9)
O2P O 0.54281(11) 0.66332(9) -0.05679(4)
O2M O 0.29281(11) 0.41332(9) 0.05679(4)
N2B N 0.40259(14) 0.44608(11) 0.10497(5)
N2O N 0.34741(14) 0.30392(11) 0.10497(5)
C2P C 0.44997(14) 0.65934(12) -0.02172(6)
S1P S 0.36653(3) 0.55697(3) -0.038432(15)
O3P O 0.40196(13) 0.55611(12) -0.06787(5)
C3P C 0.38369(14) 0.63217(12) -0.02094(6)
O4P O 0.39477(10) 0.50985(9) -0.01659(5)
C4P C 0.32952(16) 0.66357(15) -0.00615(7)
H1P H 0.2853 0.6459 -0.0062
O5P O 0.29202(11) 0.55206(10) -0.04083(5)
C5P C 0.34125(19) 0.72090(17) 0.00853(9)
H2P H 0.3051 0.7413 0.0187
C6P C 0.4056(2) 0.74772(16) 0.00813(9)
H3P H 0.4132 0.7861 0.0183
C7P C 0.46022(17) 0.71822(15) -0.00738(8)
H4P H 0.5035 0.7377 -0.0082
C8B C 0.41692(14) 0.68338(13) 0.20019(6)
H5B H 0.3829 0.7126 0.2058
C9B C 0.40070(15) 0.63732(14) 0.17851(6)
H6B H 0.3566 0.6359 0.1698
C10B C 0.45052(14) 0.59320(12) 0.16975(5)
C11B C 0.51581(15) 0.59883(13) 0.18298(6)
H7B H 0.5512 0.5711 0.1774
C12B C 0.52758(15) 0.64593(13) 0.20446(6)
H8B H 0.5715 0.6489 0.2132
C13B C 0.43432(15) 0.54150(13) 0.14730(6)
C14B C 0.36759(19) 0.51937(19) 0.14396(8)
H9B H 0.3320 0.5363 0.1559
C15B C 0.3537(2) 0.47189(19) 0.12272(8)
H10B H 0.3083 0.4574 0.1207
C16B C 0.46709(17) 0.46741(16) 0.10803(7)
H11B H 0.5016 0.4501 0.0956
C17B C 0.48474(18) 0.51424(16) 0.12898(7)
H12B H 0.5306 0.5274 0.1307
loop_
_geom_bond_atom_site_label_1
_geom_bond_atom_site_label_2
_geom_bond_site_symmetry_1
_geom_bond_site_symmetry_2
Zn1 O1 1_555 1_555
O1 C1 1_555 1_555
N1 Zn1 1_555 1_555
C1 O2 1_555 1_555
Zn2 O2 1_555 1_555
N2 C15 1_555 1_555
C2 C1 1_555 1_555
S1 O3 1_555 1_555
C3 C2 1_555 1_555
O4 Zn1 1_555 1_555
C4 C3 1_555 1_555
H1 C4 1_555 1_555
O5 S1 1_555 1_555
C5 C4 1_555 1_555
H2 C5 1_555 1_555
C6 C5 1_555 1_555
H3 C6 1_555 1_555
C7 C2 1_555 1_555
H4 C7 1_555 1_555
C8 N1 1_555 1_555
H5 C8 1_555 1_555
C9 C8 1_555 1_555
H6 C9 1_555 1_555
C10 C9 1_555 1_555
C11 C10 1_555 1_555
H7 C11 1_555 1_555
C12 N1 1_555 1_555
H8 C12 1_555 1_555
C13 C10 1_555 1_555
C14 C13 1_555 1_555
H9 C14 1_555 1_555
C15 C14 1_555 1_555
H10 C15 1_555 1_555
C16 N2 1_555 1_555
H11 C16 1_555 1_555
C17 C13 1_555 1_555
H12 C17 1_555 1_555
Zn1B N1B 1_555 1_555
O1P Zn1 1_555 1_555
N1B C8B 1_555 1_555
N1P Zn1 1_555 1_555
C1P O1P 1_555 1_555
Zn2B N2 1_555 1_555
Zn2P O2P 1_555 1_555
O2P C1P 1_555 1_555
O2M Zn2 1_555 1_555
N2B Zn2 1_555 1_555
N2O Zn2 1_555 1_555
C2P C1P 1_555 1_555
S1P O3P 1_555 1_555
C3P C2P 1_555 1_555
O4P Zn1 1_555 1_555
C4P C3P 1_555 1_555
H1P C4P 1_555 1_555
O5P S1P 1_555 1_555
C5P C4P 1_555 1_555
H2P C5P 1_555 1_555
C6P C5P 1_555 1_555
H3P C6P 1_555 1_555
C7P C2P 1_555 1_555
H4P C7P 1_555 1_555
C8B H5B 1_555 1_555
C9B C8B 1_555 1_555
H6B C9B 1_555 1_555
C10B C9B 1_555 1_555
C11B C10B 1_555 1_555
H7B C11B 1_555 1_555
C12B N1B 1_555 1_555
H8B C12B 1_555 1_555
C13B C10B 1_555 1_555
C14B C13B 1_555 1_555
H9B C14B 1_555 1_555
C15B N2B 1_555 1_555
H10B C15B 1_555 1_555
C16B N2B 1_555 1_555
H11B C16B 1_555 1_555
C17B C13B 1_555 1_555
H12B C17B 1_555 1_555
S1 C3 1_555 1_555
S1 O4 1_555 1_555
C6 C7 1_555 1_555
C11 C12 1_555 1_555
C16 C17 1_555 1_555
S1P C3P 1_555 1_555
S1P O4P 1_555 1_555
C6P C7P 1_555 1_555
C11B C12B 1_555 1_555
C14B C15B 1_555 1_555
C16B C17B 1_555 1_555

#END
