
#######################################################################
#
#                 Cambridge Crystallographic Data Centre
#                                CCDC 
#
#######################################################################
#
# If this CIF has been generated from an entry in the Cambridge 
# Structural Database, then it will include bibliographic, chemical, 
# crystal, experimental, refinement or atomic coordinate data resulting 
# from the CCDC's data processing and validation procedures.
#
#######################################################################

data_PELNEA01
_symmetry_cell_setting           monoclinic
_symmetry_space_group_name_H-M   'P 21/c'
_symmetry_Int_Tables_number      14
_space_group_name_Hall           '-P 2ybc'
loop_
_symmetry_equiv_pos_site_id
_symmetry_equiv_pos_as_xyz
1 x,y,z
2 -x,1/2+y,1/2-z
3 -x,-y,-z
4 x,1/2-y,1/2+z
_cell_length_a                   12.1579(6)
_cell_length_b                   16.9148(9)
_cell_length_c                   8.9317(4)
_cell_angle_alpha                90
_cell_angle_beta                 108.877(2)
_cell_angle_gamma                90
_cell_volume                     1738
loop_
_atom_site_label
_atom_site_type_symbol
_atom_site_fract_x
_atom_site_fract_y
_atom_site_fract_z
C1 C 0.33641(19) 0.29317(15) 0.2772(3)
C2 C 0.3872(2) 0.24005(16) 0.3971(3)
H1 H 0.3518 0.1918 0.4014
C3 C 0.4919(2) 0.25975(17) 0.5111(3)
H2 H 0.5268 0.2244 0.5924
C4 C 0.5445(2) 0.33144(16) 0.5046(3)
C5 C 0.4944(2) 0.38338(15) 0.3819(3)
H3 H 0.5305 0.4312 0.3760
C6 C 0.3894(2) 0.36365(16) 0.2668(3)
H4 H 0.3555 0.3981 0.1835
C7 C 0.6941(2) 0.42398(16) 0.6245(3)
H5 H 0.6350 0.4631 0.6211
H6 H 0.7155 0.4300 0.5295
C8 C 0.7999(2) 0.43925(16) 0.7680(3)
C9 C 0.2085(2) 0.20009(15) 0.1019(3)
H7 H 0.1869 0.1666 0.1759
H8 H 0.2788 0.1789 0.0882
C10 C 0.1122(2) 0.20152(15) -0.0547(3)
C11 C 0.1463(2) 0.47304(16) -0.1573(3)
C12 C 0.1972(3) 0.5136(2) -0.2706(4)
H9 H 0.1430 0.5087 -0.3772
H10 H 0.2063 0.5695 -0.2449
C13 C 0.3997(3) 0.4927(2) -0.1308(4)
C14 C 0.4988(3) 0.4497(2) -0.1206(4)
C15 C 0.4018(3) 0.5434(2) -0.0078(4)
H11 H 0.497(3) 0.421(2) -0.199(4)
H12 H 0.339(3) 0.573(2) -0.009(4)
H14 H -0.152(4) 0.262(3) 0.043(5)
La1 La 0.048666(11) 0.383653(8) 0.070037(16)
O1 O 0.22867(15) 0.27927(10) 0.1621(2)
O2 O 0.06022(15) 0.50573(12) -0.1338(2)
O3 O 0.18540(17) 0.40857(12) -0.0967(2)
O4 O 0.30666(18) 0.48211(15) -0.2667(3)
O5 O 0.04807(18) 0.26163(12) -0.0898(2)
O6 O 0.64738(15) 0.34750(11) 0.6261(2)
O7 O 0.86105(17) 0.38302(11) 0.8392(2)
O8 O 0.81724(15) 0.51101(11) 0.7983(2)
O9 O 0.10067(17) 0.14153(11) -0.1393(2)
O10 O -0.0981(2) 0.28948(16) 0.1262(3)
H16 H -0.0680 0.2676 0.2117
C1_2 C -0.66359(19) 0.29317(15) -0.7228(3)
C2_2 C -0.6128(2) 0.24005(16) -0.6029(3)
H1_2 H -0.6482 0.1918 -0.5986
C3_2 C -0.5081(2) 0.25975(17) -0.4889(3)
H2_2 H -0.4732 0.2244 -0.4076
C4_2 C -0.4555(2) 0.33144(16) -0.4954(3)
C5_2 C -0.5056(2) 0.38338(15) -0.6181(3)
H3_2 H -0.4695 0.4312 -0.6240
C6_2 C -0.6106(2) 0.36365(16) -0.7332(3)
H4_2 H -0.6445 0.3981 -0.8165
C7_2 C -0.3059(2) 0.42398(16) -0.3755(3)
H5_2 H -0.3650 0.4631 -0.3789
H6_2 H -0.2845 0.4300 -0.4705
C8_2 C -0.2001(2) 0.43925(16) -0.2320(3)
C9_2 C -0.7915(2) 0.20009(15) -0.8981(3)
H7_2 H -0.8131 0.1666 -0.8241
H8_2 H -0.7212 0.1789 -0.9118
C10_2 C -0.8878(2) 0.20152(15) -1.0547(3)
C11B C 0.8537(2) 0.52696(16) 0.1573(3)
C12B C 0.8028(3) 0.4864(2) 0.2706(4)
H9B H 0.8570 0.4913 0.3772
H10B H 0.7937 0.4305 0.2449
C13B C 0.6003(3) 0.5073(2) 0.1308(4)
C14B C 0.5012(3) 0.5503(2) 0.1206(4)
C15B C 0.5982(3) 0.4566(2) 0.0078(4)
H11B H 0.503(3) 0.579(2) 0.199(4)
H12B H 0.661(3) 0.427(2) 0.009(4)
H14_2 H -1.152(4) 0.262(3) -0.957(5)
La1_2 La -0.951334(11) 0.383653(8) -0.929963(16)
La1B La -0.048666(11) 0.616347(8) -0.070037(16)
La1_3 La 1.048666(11) 0.383653(8) 1.070037(16)
La1B_2 La 0.951334(11) 0.616347(8) 0.929963(16)
La1C La 0.048666(11) 0.116347(8) -0.429963(16)
La1_4 La 1.048666(11) 0.383653(8) 0.070037(16)
La1B_3 La 0.951334(11) 0.616347(8) -0.070037(16)
La1C_2 La -0.951334(11) 0.116347(8) -1.429963(16)
O1_2 O -0.77133(15) 0.27927(10) -0.8379(2)
O2B O 0.93978(15) 0.49427(12) 0.1338(2)
O2B_2 O -0.06022(15) 0.49427(12) 0.1338(2)
O2_2 O -0.93978(15) 0.50573(12) -1.1338(2)
O2B_3 O -1.06022(15) 0.49427(12) -0.8662(2)
O3B O 0.81460(17) 0.59143(12) 0.0967(2)
O3_2 O -0.81460(17) 0.40857(12) -1.0967(2)
O4B O 0.69334(18) 0.51789(15) 0.2667(3)
O5_2 O -0.95193(18) 0.26163(12) -1.0898(2)
O6_2 O -0.35262(15) 0.34750(11) -0.3739(2)
O7_2 O -0.13895(17) 0.38302(11) -0.1608(2)
O7_3 O -1.13895(17) 0.38302(11) -1.1608(2)
O8_2 O -0.18276(15) 0.51101(11) -0.2017(2)
O8B O 0.18276(15) 0.48899(11) 0.2017(2)
O8B_2 O -0.81724(15) 0.48899(11) -0.7983(2)
O9_2 O -0.89933(17) 0.14153(11) -1.1393(2)
O9C O 0.10067(17) 0.35847(11) 0.3607(2)
O9C_2 O -0.89933(17) 0.35847(11) -0.6393(2)
O10_2 O -1.0981(2) 0.28948(16) -0.8738(3)
H16_2 H -1.0680 0.2676 -0.7883
H13 H 0.704(7) 0.257(5) 0.806(10)
H15 H 0.829(5) 0.198(8) 0.884(19)
O11 O 0.7517(3) 0.2190(2) 0.8597(4)
loop_
_geom_bond_atom_site_label_1
_geom_bond_atom_site_label_2
_geom_bond_site_symmetry_1
_geom_bond_site_symmetry_2
C1 C2 1_555 1_555
C2 H1 1_555 1_555
C3 C2 1_555 1_555
H2 C3 1_555 1_555
C4 C3 1_555 1_555
C5 C4 1_555 1_555
H3 C5 1_555 1_555
C6 C1 1_555 1_555
H4 C6 1_555 1_555
C7 H5 1_555 1_555
H6 C7 1_555 1_555
C8 C7 1_555 1_555
C9 H7 1_555 1_555
H8 C9 1_555 1_555
C10 C9 1_555 1_555
C11 C12 1_555 1_555
C12 H9 1_555 1_555
H10 C12 1_555 1_555
C13 C14 1_555 1_555
C14 H11 1_555 1_555
C15 C13 1_555 1_555
H12 C15 1_555 1_555
H13 O11 1_555 1_555
H14 O10 1_555 1_555
H15 O11 1_555 1_555
La1 O1 1_555 1_555
O1 C1 1_555 1_555
O2 C11 1_555 1_555
O3 C11 1_555 1_555
O4 C12 1_555 1_555
O5 C10 1_555 1_555
O6 C4 1_555 1_555
O7 C8 1_555 1_555
O8 C8 1_555 1_555
O9 C10 1_555 1_555
O10 La1 1_555 1_555
H16 O10 1_555 1_555
C1_2 C2_2 1_555 1_555
C2_2 H1_2 1_555 1_555
C3_2 C2_2 1_555 1_555
H2_2 C3_2 1_555 1_555
C4_2 C3_2 1_555 1_555
C5_2 C4_2 1_555 1_555
H3_2 C5_2 1_555 1_555
C6_2 C1_2 1_555 1_555
H4_2 C6_2 1_555 1_555
C7_2 H5_2 1_555 1_555
H6_2 C7_2 1_555 1_555
C8_2 C7_2 1_555 1_555
C9_2 H7_2 1_555 1_555
H8_2 C9_2 1_555 1_555
C10_2 C9_2 1_555 1_555
C11B C12B 1_555 1_555
C12B H9B 1_555 1_555
H10B C12B 1_555 1_555
C13B C14B 1_555 1_555
C14B C15 1_555 1_555
C15B C14 1_555 1_555
H11B C14B 1_555 1_555
H12B C15B 1_555 1_555
H14_2 O10_2 1_555 1_555
La1_2 O1_2 1_555 1_555
La1B O2 1_555 1_555
La1_3 O7 1_555 1_555
La1B_2 O8 1_555 1_555
La1C O9 1_555 1_555
La1_4 O2B 1_555 1_555
La1B_3 O2B 1_555 1_555
La1C_2 O9_2 1_555 1_555
O1_2 C1_2 1_555 1_555
O2B C11B 1_555 1_555
O2B_2 La1 1_555 1_555
O2_2 La1_2 1_555 1_555
O2B_3 La1_2 1_555 1_555
O3B C11B 1_555 1_555
O3_2 La1_2 1_555 1_555
O4B C12B 1_555 1_555
O5_2 C10_2 1_555 1_555
O6_2 C4_2 1_555 1_555
O7_2 La1 1_555 1_555
O7_3 La1_2 1_555 1_555
O8_2 C8_2 1_555 1_555
O8B La1 1_555 1_555
O8B_2 La1_2 1_555 1_555
O9_2 C10_2 1_555 1_555
O9C La1 1_555 1_555
O9C_2 La1_2 1_555 1_555
O10_2 La1_2 1_555 1_555
H16_2 O10_2 1_555 1_555
C5 C6 1_555 1_555
C7 O6 1_555 1_555
C9 O1 1_555 1_555
C13 O4 1_555 1_555
La1 O2 1_555 1_555
La1 O3 1_555 1_555
La1 O5 1_555 1_555
C5_2 C6_2 1_555 1_555
C7_2 O6_2 1_555 1_555
C8_2 O7_2 1_555 1_555
C9_2 O1_2 1_555 1_555
C13B C15B 1_555 1_555
C13B O4B 1_555 1_555
La1_2 O5_2 1_555 1_555
La1B O2B_2 1_555 1_555
La1B O8_2 1_555 1_555
La1B_3 O3B 1_555 1_555

#END
