
#######################################################################
#
#                 Cambridge Crystallographic Data Centre
#                                CCDC 
#
#######################################################################
#
# If this CIF has been generated from an entry in the Cambridge 
# Structural Database, then it will include bibliographic, chemical, 
# crystal, experimental, refinement or atomic coordinate data resulting 
# from the CCDC's data processing and validation procedures.
#
#######################################################################

data_PELQEE
_symmetry_cell_setting           triclinic
_symmetry_space_group_name_H-M   'P -1'
_symmetry_Int_Tables_number      2
_space_group_name_Hall           '-P 1'
loop_
_symmetry_equiv_pos_site_id
_symmetry_equiv_pos_as_xyz
1 x,y,z
2 -x,-y,-z
_cell_length_a                   12.5309(6)
_cell_length_b                   12.9417(6)
_cell_length_c                   18.3940(9)
_cell_angle_alpha                94.4070(10)
_cell_angle_beta                 93.5910(10)
_cell_angle_gamma                95.0610(10)
_cell_volume                     2955.32
loop_
_atom_site_label
_atom_site_type_symbol
_atom_site_fract_x
_atom_site_fract_y
_atom_site_fract_z
C1 C 0.5938(3) 0.7294(3) 0.2979(2)
H1 H 0.5829 0.7243 0.2472
C2 C 0.5101(3) 0.6998(3) 0.33767(19)
H2 H 0.4443 0.6748 0.3136
C3 C 0.5210(2) 0.7060(2) 0.41329(18)
C4 C 0.6215(3) 0.7470(3) 0.44423(19)
H3 H 0.6337 0.7559 0.4948
C5 C 0.7013(3) 0.7741(3) 0.40138(19)
H4 H 0.7675 0.8003 0.4242
C6 C 0.0812(3) 0.8243(3) 0.93152(19)
H5 H 0.0923 0.8959 0.9429
C7 C 0.1065(3) 0.7833(3) 0.86373(19)
H6 H 0.1331 0.8272 0.8300
C8 C 0.0922(3) 0.6755(2) 0.84594(17)
C9 C 0.0524(3) 0.6168(3) 0.89848(19)
H7 H 0.0418 0.5448 0.8896
C10 C 0.0278(3) 0.6634(3) 0.96460(19)
H8 H 0.0004 0.6209 0.9989
C11 C -0.1509(3) 0.0074(3) 0.3756(3)
H9 H -0.2246 -0.0100 0.3752
C12 C -0.1058(3) 0.0940(3) 0.4196(2)
H10 H -0.1492 0.1338 0.4472
C13 C 0.0041(3) 0.1213(3) 0.42255(19)
C14 C 0.0620(3) 0.0536(3) 0.3826(3)
H11 H 0.1365 0.0645 0.3847
C15 C 0.0092(3) -0.0308(3) 0.3390(3)
H12 H 0.0506 -0.0741 0.3124
C16 C 0.4333(3) 0.6652(3) 0.45673(18)
C17 C 0.3275(3) 0.6598(3) 0.43085(19)
H13 H 0.3091 0.6903 0.3882
C18 C 0.2471(3) 0.6087(3) 0.46806(19)
H14 H 0.1758 0.6047 0.4499
C19 C 0.2735(3) 0.5646(2) 0.53118(17)
C20 C 0.3784(3) 0.5741(3) 0.5597(2)
H15 H 0.3957 0.5469 0.6039
C21 C 0.4579(3) 0.6239(3) 0.5229(2)
H16 H 0.5286 0.6301 0.5425
C22 C 0.1191(3) 0.6312(2) 0.77335(16)
C23 C 0.0911(3) 0.6756(3) 0.71034(19)
H17 H 0.0549 0.7353 0.7134
C24 C 0.1152(3) 0.6341(3) 0.64288(19)
H18 H 0.0966 0.6667 0.6012
C25 C 0.1666(2) 0.5447(2) 0.63693(16)
C26 C 0.1945(3) 0.4970(2) 0.69900(18)
H19 H 0.2301 0.4369 0.6954
C27 C 0.1691(3) 0.5391(3) 0.76709(17)
H20 H 0.1856 0.5055 0.8087
C28 C 0.1462(2) 0.4091(2) 0.53255(17)
C29 C 0.1845(3) 0.3669(3) 0.46796(17)
H21 H 0.2413 0.4026 0.4474
C30 C 0.1396(3) 0.2743(3) 0.43491(18)
H22 H 0.1663 0.2487 0.3917
C31 C 0.0543(3) 0.2158(2) 0.46347(18)
C32 C 0.0182(3) 0.2574(3) 0.52805(19)
H23 H -0.0372 0.2207 0.5494
C33 C 0.0628(3) 0.3531(3) 0.56203(18)
H24 H 0.0360 0.3795 0.6050
C34 C 0.7697(2) 0.6632(2) 0.10425(16)
C35 C 0.7087(2) 0.5624(2) 0.07041(16)
C36 C 0.7456(3) 0.5072(2) 0.01146(18)
H25 H 0.8068 0.5335 -0.0095
C37 C 0.6928(3) 0.4134(3) -0.01664(18)
H26 H 0.7200 0.3753 -0.0551
C38 C 0.5991(2) 0.3759(2) 0.01239(17)
C39 C 0.5597(3) 0.4315(3) 0.0707(2)
H27 H 0.4963 0.4069 0.0898
C40 C 0.6159(3) 0.5242(2) 0.10030(19)
H28 H 0.5910 0.5608 0.1404
C41 C 0.7309(3) -0.0439(2) 0.16339(19)
C42 C 0.6731(3) 0.0242(3) 0.1141(2)
C43 C 0.6825(3) 0.0177(3) 0.0406(2)
H29 H 0.7189 -0.0349 0.0190
C44 C 0.6388(3) 0.0881(3) -0.0022(2)
H30 H 0.6477 0.0844 -0.0521
C45 C 0.5825(3) 0.1632(2) 0.02879(19)
C46 C 0.5652(4) 0.1657(3) 0.1022(2)
H31 H 0.5213 0.2129 0.1225
C47 C 0.6122(4) 0.0992(4) 0.1446(2)
H32 H 0.6037 0.1037 0.1946
C48 C 1.0295(3) 0.7247(2) 0.22243(19)
C49 C 1.1151(3) 0.6481(2) 0.23238(17)
C50 C 1.0959(2) 0.5647(2) 0.27457(17)
H33 H 1.0313 0.5561 0.2966
C51 C 1.1696(3) 0.4962(2) 0.28396(18)
H34 H 1.1558 0.4404 0.3120
C52 C 1.2671(2) 0.5097(2) 0.25111(17)
C53 C 1.2881(3) 0.5912(3) 0.20836(18)
H35 H 1.3527 0.5999 0.1863
C54 C 1.2094(3) 0.6607(3) 0.19903(18)
H36 H 1.2215 0.7157 0.1700
C55 C 1.1163(3) 0.0548(2) 0.08310(17)
C56 C 1.1828(3) 0.1420(2) 0.12821(17)
C57 C 1.1987(4) 0.1406(3) 0.2034(2)
H37 H 1.1702 0.0836 0.2262
C58 C 1.2564(3) 0.2230(3) 0.2449(2)
H38 H 1.2674 0.2215 0.2952
C59 C 1.2976(2) 0.3078(2) 0.21062(17)
C60 C 1.2844(3) 0.3090(3) 0.13531(19)
H39 H 1.3132 0.3656 0.1123
C61 C 1.2283(3) 0.2256(3) 0.09506(17)
H40 H 1.2207 0.2255 0.0444
Cd1 Cd 0.820554(16) 0.818822(15) 0.249684(11)
Cd2 Cd -0.044730(17) 0.851020(15) 1.077400(11)
N1 N 0.6912(2) 0.7656(2) 0.32835(15)
N2 N 0.0407(2) 0.7634(2) 0.98180(15)
N3 N -0.0934(2) -0.0524(2) 0.33349(18)
N4 N 0.1929(2) 0.5042(2) 0.56625(15)
O1 O 0.84282(19) 0.70307(17) 0.06913(13)
O2 O 0.7442(2) 0.69480(18) 0.16618(13)
O3 O 0.6921(2) -0.0641(2) 0.22121(15)
O4 O 0.81870(19) -0.07480(18) 0.14510(14)
O5 O 0.9572(2) 0.7227(2) 0.26599(15)
O6 O 1.0403(2) 0.7821(2) 0.17305(16)
O7 O 1.0750(2) -0.01734(19) 0.11819(14)
O8 O 1.10845(19) 0.05808(17) 0.01521(12)
O9 O 0.41908(19) 0.26095(18) -0.01094(16)
O10 O 0.5593(2) 0.23866(18) -0.09827(13)
O11 O 1.3676(2) 0.3951(2) 0.33760(14)
O12 O 1.45658(19) 0.4533(2) 0.22894(16)
S1 S 1.36113(6) 0.41782(6) 0.26247(5)
S2 S 0.52972(7) 0.25771(6) -0.02467(5)
Cd1_2 Cd -0.179446(16) -0.181178(15) 0.249684(11)
Cd1_3 Cd 0.820554(16) -0.181178(15) 0.249684(11)
Cd2_2 Cd 0.955270(17) 0.851020(15) 0.077400(11)
Cd2_3 Cd 0.955270(17) -0.148980(15) 0.077400(11)
Cd2A Cd 1.044730(17) 0.148980(15) -0.077400(11)
N3_2 N 0.9066(2) 0.9476(2) 0.33349(18)
O1_2 O -0.15718(19) 0.70307(17) 1.06913(13)
O3_2 O 0.6921(2) 0.9359(2) 0.22121(15)
O4_2 O 0.81870(19) 0.92520(18) 0.14510(14)
O4_3 O -0.18130(19) 0.92520(18) 1.14510(14)
O6_2 O 0.0403(2) 0.7821(2) 1.17305(16)
O7_2 O 0.0750(2) 0.98266(19) 1.11819(14)
O8A O -0.10845(19) 0.94192(17) 0.98479(12)
loop_
_geom_bond_atom_site_label_1
_geom_bond_atom_site_label_2
_geom_bond_site_symmetry_1
_geom_bond_site_symmetry_2
C1 H1 1_555 1_555
C2 C1 1_555 1_555
H2 C2 1_555 1_555
C3 C2 1_555 1_555
C4 C3 1_555 1_555
H3 C4 1_555 1_555
C5 C4 1_555 1_555
H4 C5 1_555 1_555
C6 H5 1_555 1_555
C7 C6 1_555 1_555
H6 C7 1_555 1_555
C8 C7 1_555 1_555
C9 C8 1_555 1_555
H7 C9 1_555 1_555
C10 C9 1_555 1_555
H8 C10 1_555 1_555
C11 H9 1_555 1_555
C12 C11 1_555 1_555
H10 C12 1_555 1_555
C13 C12 1_555 1_555
C14 C13 1_555 1_555
H11 C14 1_555 1_555
C15 C14 1_555 1_555
H12 C15 1_555 1_555
C16 C3 1_555 1_555
C17 C16 1_555 1_555
H13 C17 1_555 1_555
C18 C17 1_555 1_555
H14 C18 1_555 1_555
C19 C18 1_555 1_555
C20 C19 1_555 1_555
H15 C20 1_555 1_555
C21 C16 1_555 1_555
H16 C21 1_555 1_555
C22 C8 1_555 1_555
C23 C22 1_555 1_555
H17 C23 1_555 1_555
C24 C23 1_555 1_555
H18 C24 1_555 1_555
C25 C24 1_555 1_555
C26 C25 1_555 1_555
H19 C26 1_555 1_555
C27 C22 1_555 1_555
H20 C27 1_555 1_555
C28 C29 1_555 1_555
C29 H21 1_555 1_555
C30 C29 1_555 1_555
H22 C30 1_555 1_555
C31 C13 1_555 1_555
C32 C31 1_555 1_555
H23 C32 1_555 1_555
C33 C28 1_555 1_555
H24 C33 1_555 1_555
C34 C35 1_555 1_555
C35 C36 1_555 1_555
C36 H25 1_555 1_555
C37 C36 1_555 1_555
H26 C37 1_555 1_555
C38 C37 1_555 1_555
C39 C38 1_555 1_555
H27 C39 1_555 1_555
C40 C35 1_555 1_555
H28 C40 1_555 1_555
C41 C42 1_555 1_555
C42 C43 1_555 1_555
C43 H29 1_555 1_555
C44 C43 1_555 1_555
H30 C44 1_555 1_555
C45 C44 1_555 1_555
C46 C45 1_555 1_555
H31 C46 1_555 1_555
C47 C42 1_555 1_555
H32 C47 1_555 1_555
C48 C49 1_555 1_555
C49 C50 1_555 1_555
C50 H33 1_555 1_555
C51 C50 1_555 1_555
H34 C51 1_555 1_555
C52 C51 1_555 1_555
C53 C52 1_555 1_555
H35 C53 1_555 1_555
C54 C49 1_555 1_555
H36 C54 1_555 1_555
C55 C56 1_555 1_555
C56 C57 1_555 1_555
C57 H37 1_555 1_555
C58 C57 1_555 1_555
H38 C58 1_555 1_555
C59 C58 1_555 1_555
C60 C59 1_555 1_555
H39 C60 1_555 1_555
C61 C56 1_555 1_555
H40 C61 1_555 1_555
Cd1 N1 1_555 1_555
Cd2 N2 1_555 1_555
N1 C1 1_555 1_555
N2 C6 1_555 1_555
N3 C11 1_555 1_555
N4 C19 1_555 1_555
O1 C34 1_555 1_555
O2 C34 1_555 1_555
O3 C41 1_555 1_555
O4 C41 1_555 1_555
O5 C48 1_555 1_555
O6 C48 1_555 1_555
O7 C55 1_555 1_555
O8 C55 1_555 1_555
O9 S2 1_555 1_555
O10 S2 1_555 1_555
O11 S1 1_555 1_555
O12 S1 1_555 1_555
S1 C52 1_555 1_555
S2 C38 1_555 1_555
Cd1_2 N3 1_555 1_555
Cd1_3 O3 1_555 1_555
Cd2_2 O1 1_555 1_555
Cd2_3 O4 1_555 1_555
Cd2A O8 1_555 1_555
N3_2 Cd1 1_555 1_555
O1_2 Cd2 1_555 1_555
O3_2 Cd1 1_555 1_555
O4_2 Cd1 1_555 1_555
O4_3 Cd2 1_555 1_555
O6_2 Cd2 1_555 1_555
O7_2 Cd2 1_555 1_555
O8A Cd2 1_555 1_555
C5 N1 1_555 1_555
C10 N2 1_555 1_555
C15 N3 1_555 1_555
C20 C21 1_555 1_555
C25 N4 1_555 1_555
C26 C27 1_555 1_555
C28 N4 1_555 1_555
C30 C31 1_555 1_555
C32 C33 1_555 1_555
C39 C40 1_555 1_555
C45 S2 1_555 1_555
C46 C47 1_555 1_555
C53 C54 1_555 1_555
C59 S1 1_555 1_555
C60 C61 1_555 1_555
Cd1 O2 1_555 1_555
Cd1 O5 1_555 1_555
O4 Cd1_3 1_555 1_555
O6 Cd2_2 1_555 1_555
O7 Cd2_3 1_555 1_555
Cd2_2 O4_2 1_555 1_555

#END
