
#######################################################################
#
#                 Cambridge Crystallographic Data Centre
#                                CCDC 
#
#######################################################################
#
# If this CIF has been generated from an entry in the Cambridge 
# Structural Database, then it will include bibliographic, chemical, 
# crystal, experimental, refinement or atomic coordinate data resulting 
# from the CCDC's data processing and validation procedures.
#
#######################################################################

data_PELRAB
_symmetry_cell_setting           trigonal
_symmetry_space_group_name_H-M   'P 32 2 1'
_symmetry_Int_Tables_number      154
_space_group_name_Hall           'P 32 2"'
loop_
_symmetry_equiv_pos_site_id
_symmetry_equiv_pos_as_xyz
1 x,y,z
2 -y,x-y,2/3+z
3 -x+y,-x,1/3+z
4 y,x,-z
5 x-y,-y,1/3-z
6 -x,-x+y,2/3-z
_cell_length_a                   13.5842(4)
_cell_length_b                   13.5842(4)
_cell_length_c                   14.8502(9)
_cell_angle_alpha                90
_cell_angle_beta                 90
_cell_angle_gamma                120
_cell_volume                     2373.18
loop_
_atom_site_label
_atom_site_type_symbol
_atom_site_fract_x
_atom_site_fract_y
_atom_site_fract_z
Cu1 Cu 0.26264(2) 0.26264(2) 0.5000
Cl1 Cl 0.45764(5) 0.45764(5) 0.5000
N1 N 0.17947(14) 0.33922(14) 0.54881(11)
C1 C 0.07803(19) 0.3150(2) 0.51724(15)
H1 H 0.0487 0.2675 0.4675
C2 C 0.01529(19) 0.3576(2) 0.55543(16)
H2 H -0.0539 0.3417 0.5304
C3 C 0.05569(19) 0.4242(2) 0.63117(15)
H3 H 0.0132 0.4520 0.6590
C4 C 0.16016(18) 0.44930(18) 0.66546(12)
C5 C 0.22238(18) 0.40815(17) 0.62046(13)
H4 H 0.2951 0.4289 0.6405
N2 N 0.19757(15) 0.51184(16) 0.74579(12)
H5 H 0.1533 0.5336 0.7684
C6 C 0.2944(2) 0.5422(2) 0.79208(16)
O1 O 0.37445(15) 0.53582(19) 0.76350(13)
C7 C 0.2889(2) 0.5784(3) 0.88833(19)
H6 H 0.2395 0.6118 0.8896
C8 C 0.2382(3) 0.4746(4) 0.9483(2)
H7 H 0.2868 0.4421 0.9485
H8 H 0.1645 0.4197 0.9260
H9 H 0.2311 0.4961 1.0085
N3 N 0.4016(2) 0.6629(3) 0.91895(18)
H10 H 0.4307 0.6475 0.9644
C9 C 0.4603(3) 0.7619(3) 0.8795(2)
O2 O 0.4231(2) 0.7897(2) 0.81351(15)
C10 C 0.5774(2) 0.8422(3) 0.91301(17)
C11 C 0.6038(2) 0.8638(2) 1.00454(15)
H11 H 0.5461 0.8253 1.0464
N4 N 0.70790(15) 0.93705(16) 1.03449(11)
C12 C 0.7919(2) 0.9856(2) 0.97384(15)
H12 H 0.8657 1.0328 0.9943
C13 C 0.7739(3) 0.9688(3) 0.88259(17)
H13 H 0.8343 1.0041 0.8424
C14 C 0.6663(3) 0.8996(3) 0.85210(19)
H14 H 0.6521 0.8906 0.7905
O3 O 0.08281(19) 0.08281(19) 0.5000
H15 H 0.076(3) 0.039(3) 0.459(2)
Cu1A Cu 0.73736(2) 1.00000(3) 1.1667
Cu1B Cu 1.00000(3) 0.73736(2) -0.1667
N1C N 0.33922(14) 0.17947(14) 0.45119(11)
C1C C 0.3150(2) 0.07803(19) 0.48276(15)
H1C H 0.2675 0.0487 0.5325
C2C C 0.3576(2) 0.01529(19) 0.44457(16)
H2C H 0.3417 -0.0539 0.4696
C3C C 0.4242(2) 0.05569(19) 0.36883(15)
H3C H 0.4520 0.0132 0.3410
C4C C 0.44930(18) 0.16016(18) 0.33454(12)
C5C C 0.40815(17) 0.22238(18) 0.37954(13)
H4C H 0.4289 0.2951 0.3595
N2C N 0.51184(16) 0.19757(15) 0.25421(12)
H5C H 0.5336 0.1533 0.2316
C6C C 0.5422(2) 0.2944(2) 0.20792(16)
O1C O 0.53582(19) 0.37445(15) 0.23650(13)
C7C C 0.5784(3) 0.2889(2) 0.11167(19)
H6C H 0.6118 0.2395 0.1104
C8C C 0.4746(4) 0.2382(3) 0.0517(2)
H7C H 0.4421 0.2868 0.0515
H8C H 0.4197 0.1645 0.0740
H9C H 0.4961 0.2311 -0.0085
N3C N 0.6629(3) 0.4016(2) 0.08105(18)
H10C H 0.6475 0.4307 0.0356
C9C C 0.7619(3) 0.4603(3) 0.1205(2)
O2C O 0.7897(2) 0.4231(2) 0.18649(15)
C10C C 0.8422(3) 0.5774(2) 0.08699(17)
C11C C 0.8638(2) 0.6038(2) -0.00454(15)
H11C H 0.8253 0.5461 -0.0464
N4C N 0.93705(16) 0.70790(15) -0.03449(11)
N4B N 0.22915(22) 0.29210(15) 0.36782(11)
N4E N 0.29210(15) 0.22915(22) 0.63218(11)
C12C C 0.9856(2) 0.7919(2) 0.02616(15)
H12C H 1.0328 0.8657 0.0057
C13C C 0.9688(3) 0.7739(3) 0.11741(17)
H13C H 1.0041 0.8343 0.1576
C14C C 0.8996(3) 0.6663(3) 0.14790(19)
H14C H 0.8906 0.6521 0.2095
H15C H 0.039(3) 0.076(3) 0.541(2)
Cl2 Cl 0.90907(7) 0.0000 0.6667
loop_
_geom_bond_atom_site_label_1
_geom_bond_atom_site_label_2
_geom_bond_site_symmetry_1
_geom_bond_site_symmetry_2
Cu1 Cl1 1_555 1_555
N1 Cu1 1_555 1_555
C1 N1 1_555 1_555
H1 C1 1_555 1_555
C2 C1 1_555 1_555
H2 C2 1_555 1_555
C3 C2 1_555 1_555
H3 C3 1_555 1_555
C4 C3 1_555 1_555
C5 N1 1_555 1_555
H4 C5 1_555 1_555
N2 C4 1_555 1_555
H5 N2 1_555 1_555
C6 N2 1_555 1_555
O1 C6 1_555 1_555
C7 C6 1_555 1_555
H6 C7 1_555 1_555
C8 C7 1_555 1_555
H7 C8 1_555 1_555
H8 C8 1_555 1_555
H9 C8 1_555 1_555
N3 C7 1_555 1_555
H10 N3 1_555 1_555
C9 N3 1_555 1_555
O2 C9 1_555 1_555
C10 C9 1_555 1_555
C11 C10 1_555 1_555
H11 C11 1_555 1_555
N4 C11 1_555 1_555
C12 N4 1_555 1_555
H12 C12 1_555 1_555
C13 C12 1_555 1_555
H13 C13 1_555 1_555
C14 C10 1_555 1_555
H14 C14 1_555 1_555
O3 Cu1 1_555 1_555
H15 O3 1_555 1_555
Cu1A N4 1_555 1_555
Cu1B N4C 1_555 1_555
N1C Cu1 1_555 1_555
C1C N1C 1_555 1_555
H1C C1C 1_555 1_555
C2C C1C 1_555 1_555
H2C C2C 1_555 1_555
C3C C2C 1_555 1_555
H3C C3C 1_555 1_555
C4C C3C 1_555 1_555
C5C N1C 1_555 1_555
H4C C5C 1_555 1_555
N2C C4C 1_555 1_555
H5C N2C 1_555 1_555
C6C N2C 1_555 1_555
O1C C6C 1_555 1_555
C7C C6C 1_555 1_555
H6C C7C 1_555 1_555
C8C C7C 1_555 1_555
H7C C8C 1_555 1_555
H8C C8C 1_555 1_555
H9C C8C 1_555 1_555
N3C C7C 1_555 1_555
H10C N3C 1_555 1_555
C9C N3C 1_555 1_555
O2C C9C 1_555 1_555
C10C C9C 1_555 1_555
C11C C10C 1_555 1_555
H11C C11C 1_555 1_555
N4C C11C 1_555 1_555
N4B Cu1 1_555 1_555
N4E Cu1 1_555 1_555
C12C N4C 1_555 1_555
H12C C12C 1_555 1_555
C13C C12C 1_555 1_555
H13C C13C 1_555 1_555
C14C C10C 1_555 1_555
H14C C14C 1_555 1_555
H15C O3 1_555 1_555
C4 C5 1_555 1_555
C13 C14 1_555 1_555
C4C C5C 1_555 1_555
C13C C14C 1_555 1_555

#END
