
#######################################################################
#
#                 Cambridge Crystallographic Data Centre
#                                CCDC 
#
#######################################################################
#
# If this CIF has been generated from an entry in the Cambridge 
# Structural Database, then it will include bibliographic, chemical, 
# crystal, experimental, refinement or atomic coordinate data resulting 
# from the CCDC's data processing and validation procedures.
#
#######################################################################

data_PELSAA
_symmetry_cell_setting           monoclinic
_symmetry_space_group_name_H-M   'P 21'
_symmetry_Int_Tables_number      4
_space_group_name_Hall           'P 2yb'
loop_
_symmetry_equiv_pos_site_id
_symmetry_equiv_pos_as_xyz
1 x,y,z
2 -x,1/2+y,-z
_cell_length_a                   12.170(5)
_cell_length_b                   10.570(1)
_cell_length_c                   12.634(4)
_cell_angle_alpha                90
_cell_angle_beta                 92.74(2)
_cell_angle_gamma                90
_cell_volume                     1623.34
loop_
_atom_site_label
_atom_site_type_symbol
_atom_site_fract_x
_atom_site_fract_y
_atom_site_fract_z
Ag1 Ag 0.0854(1) 0.0000 0.0834(1)
Ag2 Ag 0.6163(1) -0.2571(1) 0.3671(1)
Ag3 Ag -0.2159(1) 0.3448(1) -0.3277(1)
Ag4 Ag -0.0043(1) -0.6571(1) 0.1113(1)
Ag5 Ag 0.3267(1) -0.8243(1) 0.2068(1)
As1 As 0.3506(1) -0.2560(1) -0.1373(1)
As2 As 0.3280(1) -0.6024(1) 0.0974(1)
As3 As -0.1009(1) 0.0814(1) -0.3154(1)
As4 As 0.1483(1) -0.2531(1) -0.3680(1)
C1 C 0.4835(5) -0.43063 0.1640(1)
O1 O 0.4778(4) -0.5446(5) 0.1262(4)
O2 O 0.5694(4) -0.3810(5) 0.1978(4)
C2 C 0.3738(5) -0.3610(7) 0.1552(5)
O3 O 0.2890(4) -0.4422(4) 0.1207(4)
C3 C 0.3849(5) -0.2476(6) 0.0808(5)
O4 O 0.4280(4) -0.2924(5) -0.0150(4)
C4 C 0.2751(5) -0.1859(6) 0.0596(5)
O5 O 0.2407(4) -0.1773(5) -0.0371(4)
O6 O 0.2215(4) -0.1444(6) 0.1338(4)
C5 C 0.4064(5) -0.4903(8) -0.2268(5)
O7 O 0.4533(4) -0.3844(5) -0.2040(4)
O8 O 0.4501(4) -0.5766(5) -0.2728(4)
C6 C 0.2878(5) -0.5018(6) -0.1933(5)
O9 O 0.2556(4) -0.3884(5) -0.1418(4)
C7 C 0.2801(5) -0.6139(6) -0.1190(5)
O10 O 0.3640(4) -0.6043(5) -0.0365(3)
C8 C 0.1674(5) -0.6208(6) -0.0733(5)
O11 O 0.1678(4) -0.6184(6) 0.0278(4)
O12 O 0.0825(4) -0.6262(6) -0.1319(4)
C9 C 0.0882(5) 0.0914(6) -0.1698(5)
O13 O -0.0164(4) 0.0726(6) -0.1643(4)
O14 O 0.1533(4) 0.0970(6) -0.0932(4)
C10 C 0.1264(5) 0.0975(6) -0.2832(5)
O15 O 0.0364(4) 0.0908(6) -0.3593(4)
C11 C 0.2042(5) -0.0127(6) -0.2982(5)
O16 O 0.1529(4) -0.1261(4) -0.2709(3)
C12 C 0.2359(5) -0.0147(7) -0.4144(5)
O17 O 0.2104(4) -0.1162(5) -0.4643(4)
O18 O 0.2806(4) 0.0779(5) -0.4543(4)
C13 C -0.0533(5) -0.3346(7) -0.2974(5)
O19 O 0.0471(4) -0.3393(5) -0.2663(4)
O20 O -0.1292(4) -0.3768(6) -0.2459(4)
C14 C -0.0760(5) -0.2669(6) -0.4025(5)
O21 O 0.0229(4) -0.2195(5) -0.4421(4)
C15 C -0.1560(5) -0.1589(7) -0.3835(5)
O22 O -0.1183(4) -0.0860(5) -0.2939(4)
C16 C -0.1686(5) -0.0733(8) -0.4830(6)
O23 O -0.1436(4) 0.0445(5) -0.4623(4)
O24 O -0.1977(6) -0.1158(7) -0.5677(4)
Cl1 Cl 0.5416(1) -0.1093(2) 0.5941(1)
O25 O 0.5880(6) -0.2288(9) 0.5646(9)
O26 O 0.6192(5) -0.0416(7) 0.6626(5)
O27 O 0.4393(5) -0.1282(10) 0.6439(6)
O28 O 0.4772(9) -0.133(14) 0.4987(7)
O29 O -0.3759(7) 0.2245(8) -0.4146(6)
O30 O 0.3542(5) -0.9196(8) 0.0378(5)
O31 O -0.3473(4) 0.5160(7) -0.3366(5)
O32 O -0.0556(4) 0.1484(5) 0.0382(4)
O33 O -0.0299(6) 0.3818(9) -0.3401(6)
H1 H 0.373(9) -0.335(14) 0.210(9)
H2 H 0.280(9) -0.688(13) -0.168(9)
H3 H 0.233(9) -0.472(13) -0.247(9)
H4 H 0.171(10) 0.170(13) -0.290(9)
H5 H 0.272(9) 0.010(12) -0.248(9)
H6 H -0.110(9) -0.318(13) -0.467(9)
Ag4A Ag 0.0043(1) -0.1571(1) -0.1113(1)
O12A O -0.0825(4) -0.1262(6) 0.1319(4)
O20A O 0.1292(4) 0.1232(6) 0.2459(4)
O8A O 0.5499(4) -0.0766(5) 0.2728(4)
O18A O 0.7194(4) -0.4221(5) 0.4543(4)
O6A O -0.2215(4) 0.3556(6) -0.1338(4)
O17A O -0.2104(4) 0.3838(5) -0.5357(4)
Ag1A Ag -0.0854(1) -0.5000 -0.0834(1)
O13A O 0.0164(4) -0.4274(6) 0.1643(4)
O32_2 O -0.0556(4) -0.8516(5) 0.0382(4)
O7A O 0.5467(4) -0.8844(5) 0.2040(4)
O20A_2 O 0.1292(4) -0.8768(6) 0.2459(4)
O31A O 0.3473(4) -0.9840(7) 0.3366(5)
Ag3A Ag 0.2159(1) -0.1552(1) 0.3277(1)
Ag5A Ag 0.6733(1) -0.3243(1) -0.2068(1)
Ag2A Ag 0.3837(1) -0.7571(1) -0.3671(1)
Ag3A_2 Ag 0.2159(1) -0.1552(1) -0.6723(1)
Ag2A_2 Ag 0.3837(1) 0.2429(1) -0.3671(1)
Ag5A_2 Ag -0.3267(1) -0.3243(1) -0.2068(1)
Ag5A_3 Ag -0.3267(1) 0.6757(1) -0.2068(1)
Ag4_2 Ag -0.0043(1) 0.3429(1) 0.1113(1)
loop_
_geom_bond_atom_site_label_1
_geom_bond_atom_site_label_2
_geom_bond_site_symmetry_1
_geom_bond_site_symmetry_2
Ag1 O6 1_555 1_555
Ag2 O2 1_555 1_555
Ag3 As3 1_555 1_555
Ag4 O11 1_555 1_555
Ag5 As2 1_555 1_555
As1 O4 1_555 1_555
As2 O1 1_555 1_555
As3 O13 1_555 1_555
As4 O16 1_555 1_555
C1 O1 1_555 1_555
O2 C1 1_555 1_555
C2 C1 1_555 1_555
O3 As2 1_555 1_555
C3 C2 1_555 1_555
O4 C3 1_555 1_555
C4 C3 1_555 1_555
O5 As1 1_555 1_555
O6 C4 1_555 1_555
C5 O7 1_555 1_555
O7 As1 1_555 1_555
O8 C5 1_555 1_555
C6 C5 1_555 1_555
O9 As1 1_555 1_555
C7 C6 1_555 1_555
O10 As2 1_555 1_555
C8 C7 1_555 1_555
O11 As2 1_555 1_555
O12 C8 1_555 1_555
C9 O13 1_555 1_555
O13 Ag4A 1_555 1_555
O14 Ag1 1_555 1_555
C10 C9 1_555 1_555
O15 As3 1_555 1_555
C11 C10 1_555 1_555
O16 C11 1_555 1_555
C12 C11 1_555 1_555
O17 As4 1_555 1_555
O18 C12 1_555 1_555
C13 O19 1_555 1_555
O19 As4 1_555 1_555
O20 C13 1_555 1_555
C14 C13 1_555 1_555
O21 As4 1_555 1_555
C15 C14 1_555 1_555
O22 As3 1_555 1_555
C16 C15 1_555 1_555
O23 As3 1_555 1_555
O24 C16 1_555 1_555
Cl1 O25 1_555 1_555
O25 Ag2 1_555 1_555
O26 Cl1 1_555 1_555
O27 Cl1 1_555 1_555
O28 Cl1 1_555 1_555
O29 Ag3 1_555 1_555
O30 Ag5 1_555 1_555
O31 Ag3 1_555 1_555
O32 Ag1 1_555 1_555
O33 Ag3 1_555 1_555
H1 C2 1_555 1_555
H2 C7 1_555 1_555
H3 C6 1_555 1_555
H4 C10 1_555 1_555
H5 C11 1_555 1_555
H6 C14 1_555 1_555
Ag4A Ag1 1_555 1_555
O12A Ag1 1_555 1_555
O20A Ag1 1_555 1_555
O8A Ag2 1_555 1_555
O18A Ag2 1_555 1_555
O6A Ag3 1_555 1_555
O17A Ag3 1_555 1_555
Ag1A Ag4 1_555 1_555
O13A Ag4 1_555 1_555
O32_2 Ag4 1_555 1_555
O7A Ag5 1_555 1_555
O20A_2 Ag5 1_555 1_555
O31A Ag5 1_555 1_555
Ag3A O6 1_555 1_555
Ag5A O7 1_555 1_555
Ag2A O8 1_555 1_555
Ag3A_2 O17 1_555 1_555
Ag2A_2 O18 1_555 1_555
Ag5A_2 O20 1_555 1_555
Ag5A_3 O31 1_555 1_555
Ag4_2 O32 1_555 1_555
C2 O3 1_555 1_555
C4 O5 1_555 1_555
C6 O9 1_555 1_555
C7 O10 1_555 1_555
C8 O11 1_555 1_555
O12 Ag1A 1_555 1_555
C9 O14 1_555 1_555
C10 O15 1_555 1_555
C12 O17 1_555 1_555
O20 Ag1A 1_555 1_555
C14 O21 1_555 1_555
C15 O22 1_555 1_555
C16 O23 1_555 1_555

#END
