
#######################################################################
#
#                 Cambridge Crystallographic Data Centre
#                                CCDC 
#
#######################################################################
#
# If this CIF has been generated from an entry in the Cambridge 
# Structural Database, then it will include bibliographic, chemical, 
# crystal, experimental, refinement or atomic coordinate data resulting 
# from the CCDC's data processing and validation procedures.
#
#######################################################################

data_PELSEG
_symmetry_cell_setting           monoclinic
_symmetry_space_group_name_H-M   'P 21'
_symmetry_Int_Tables_number      4
_space_group_name_Hall           'P 2yb'
loop_
_symmetry_equiv_pos_site_id
_symmetry_equiv_pos_as_xyz
1 x,y,z
2 -x,1/2+y,-z
_cell_length_a                   13.2049(9)
_cell_length_b                   14.9418(7)
_cell_length_c                   20.5766(12)
_cell_angle_alpha                90
_cell_angle_beta                 104.651(4)
_cell_angle_gamma                90
_cell_volume                     3927.86
loop_
_atom_site_label
_atom_site_type_symbol
_atom_site_fract_x
_atom_site_fract_y
_atom_site_fract_z
O41 O 0.421(2) 0.9307(17) 1.1488(13)
O42 O 0.085(4) 0.018(4) 1.3589(17)
O43 O 0.416(2) 0.8377(19) 1.2609(12)
W1 W 0.34059(9) 1.15194(8) 0.66629(6)
W2 W 0.36486(9) 1.16216(8) 0.84743(7)
W3 W 0.17797(9) 0.78685(8) 0.83127(6)
W4 W 0.15497(10) 0.77842(8) 0.66359(6)
W5 W 0.23921(10) 0.96935(9) 0.57700(6)
W6 W 0.08335(11) 1.10469(8) 0.63948(6)
W7 W 0.28743(10) 0.98590(9) 0.92793(6)
W8 W 0.45844(11) 0.83940(8) 0.86096(6)
W9 W -0.00363(10) 0.91425(8) 0.72415(6)
W10 W 0.43412(11) 0.83486(8) 0.69410(6)
W11 W 0.53590(10) 1.01514(8) 0.78212(6)
W12 W 0.11090(11) 1.11118(8) 0.82196(6)
Ni1 Ni 0.5624(3) 0.6292(2) 0.64461(16)
Ni2 Ni -0.0611(3) 1.3027(2) 0.85327(16)
Br1 Br 0.6497(5) 0.4893(4) 0.6353(3)
Br2 Br -0.1530(5) 1.4420(4) 0.8618(3)
Si1 Si 0.2651(5) 0.9708(5) 0.7531(3)
O1 O 0.3837(14) 0.9314(12) 0.7667(9)
O2 O 0.2598(15) 1.0340(14) 0.8164(10)
O3 O 0.1839(15) 0.8918(13) 0.7470(9)
O4 O 0.2428(14) 1.0297(12) 0.6836(9)
O5 O 0.562(2) 0.9256(14) 0.8529(10)
O6 O 0.3673(15) 1.0985(13) 0.9289(9)
O7 O 0.2066(19) 0.8828(17) 0.8900(10)
O8 O -0.1300(19) 0.9077(17) 0.7081(12)
O9 O 0.4058(15) 0.9227(14) 0.9131(10)
O10 O 0.1674(17) 0.8724(15) 0.6031(11)
O11 O 0.401(2) 1.2441(16) 0.6409(12)
O12 O 0.1956(16) 1.1834(15) 0.6351(11)
O13 O 0.116(2) 0.6918(16) 0.6109(15)
O14 O 0.3105(15) 0.7787(12) 0.6888(10)
O15 O 0.5297(16) 0.7716(18) 0.9178(13)
O16 O 0.0195(16) 0.9996(14) 0.6621(10)
O17 O 0.3249(16) 1.0754(15) 0.5878(9)
O18 O 0.4755(13) 1.0899(14) 0.8358(9)
O19 O 0.3429(16) 1.1899(15) 0.7564(11)
O20 O 0.6634(17) 1.0578(15) 0.7979(11)
O21 O 0.1648(17) 1.0595(14) 0.9109(11)
O22 O 0.4599(17) 1.0876(15) 0.7059(11)
O23 O 0.1027(17) 1.1404(15) 0.7295(9)
O24 O 0.5439(17) 0.9232(16) 0.7194(11)
O25 O 0.0376(19) 1.0084(14) 0.7912(10)
O26 O -0.0214(16) 1.1667(17) 0.5934(14)
O27 O 0.429(2) 1.2530(19) 0.8840(14)
O28 O 0.0231(13) 1.1822(12) 0.8408(9)
O29 O 0.0386(15) 0.8330(14) 0.7923(9)
O30 O 0.0231(15) 0.8244(14) 0.6645(10)
O31 O 0.4907(14) 0.7590(13) 0.6511(9)
O32 O 0.3308(15) 0.7801(15) 0.8446(10)
O33 O 0.3673(19) 0.9123(15) 0.6250(11)
O34 O 0.1216(17) 1.0413(14) 0.5689(11)
O35 O 0.303(2) 0.9735(19) 1.0132(12)
O36 O 0.160(2) 0.7064(17) 0.8840(12)
O37 O 0.1641(16) 0.7222(15) 0.7494(11)
O38 O 0.4866(14) 0.7847(14) 0.7843(9)
O39 O 0.2239(14) 1.1963(13) 0.8432(11)
O40 O 0.230(2) 0.9461(14) 0.4975(11)
N1 N 0.972(3) 0.961(2) 0.4373(16)
N2 N 0.652(2) 0.7025(18) 0.5879(13)
N3 N 0.0398(17) 0.3689(15) 0.8088(11)
N4 N 0.4570(16) 0.5613(15) 0.6908(11)
N5 N -0.1485(16) 1.2248(13) 0.9030(10)
N6 N -0.456(2) 0.977(3) 1.0711(16)
N7 N 0.1553(19) 0.7612(18) 0.2383(12)
N8 N 0.4483(19) 0.6188(16) 0.5531(11)
N9 N 0.9546(18) 0.8216(17) 1.0503(12)
N10 N 0.6625(18) 0.6677(17) 0.7338(12)
C1 C 0.898(4) 1.005(3) 0.4658(19)
H1 H 0.8925 1.0673 0.4655
C2 C 0.836(3) 0.953(2) 0.4935(16)
H2 H 0.7817 0.9809 0.5070
C3 C 0.848(2) 0.868(2) 0.5025(14)
C4 C 0.781(2) 0.8069(18) 0.5353(13)
C5 C 0.681(2) 0.823(2) 0.5224(16)
H3 H 0.6537 0.8697 0.4933
C6 C 0.617(3) 0.775(3) 0.5497(18)
H4 H 0.5469 0.7922 0.5423
C7 C 0.755(2) 0.683(2) 0.5978(16)
H5 H 0.7824 0.6337 0.6234
C8 C 0.822(3) 0.736(2) 0.5707(18)
H6 H 0.8920 0.7215 0.5774
C9 C 0.928(3) 0.823(2) 0.4757(16)
H7 H 0.9358 0.7612 0.4795
C10 C 0.988(3) 0.867(3) 0.4475(19)
H8 H 1.0413 0.8380 0.4336
C11 C 0.089(2) 0.4474(18) 0.8339(13)
H9 H 0.0676 0.4744 0.8690
C12 C 0.166(3) 0.489(3) 0.8121(17)
H10 H 0.1916 0.5444 0.8299
C13 C 0.208(2) 0.4470(19) 0.7608(14)
C14 C 0.294(2) 0.489(2) 0.7356(14)
C15 C 0.348(3) 0.558(2) 0.7636(17)
H11 H 0.3349 0.5798 0.8033
C16 C 0.420(2) 0.601(2) 0.7390(13)
H12 H 0.4446 0.6575 0.7551
C17 C 0.402(3) 0.484(3) 0.663(2)
H13 H 0.4212 0.4573 0.6267
C18 C 0.329(2) 0.450(2) 0.6829(14)
H14 H 0.2975 0.3983 0.6627
C19 C 0.144(2) 0.368(2) 0.7295(14)
H15 H 0.1590 0.3393 0.6929
C20 C 0.064(2) 0.337(2) 0.7537(13)
H16 H 0.0229 0.2907 0.7306
C21 C -0.247(3) 1.242(2) 0.8973(14)
H17 H -0.2763 1.2900 0.8705
C22 C -0.312(2) 1.194(2) 0.9285(15)
H18 H -0.3811 1.2109 0.9226
C23 C -0.275(2) 1.122(2) 0.9673(14)
C24 C -0.337(2) 1.0738(19) 1.0028(14)
C25 C -0.409(3) 1.116(3) 1.0300(16)
H19 H -0.4200 1.1770 1.0255
C26 C -0.466(3) 1.062(3) 1.066(2)
H20 H -0.5133 1.0901 1.0858
C27 C -0.396(3) 0.932(3) 1.041(2)
H21 H -0.3961 0.8700 1.0431
C28 C -0.329(3) 0.975(2) 1.0051(15)
H22 H -0.2853 0.9428 0.9848
C29 C -0.168(2) 1.101(2) 0.9710(14)
H23 H -0.1384 1.0499 0.9945
C30 C -0.108(3) 1.152(2) 0.9417(15)
H24 H -0.0381 1.1373 0.9477
C31 C 0.184(2) 0.6740(18) 0.2450(13)
H25 H 0.1699 0.6381 0.2069
C32 C 0.235(3) 0.635(2) 0.3073(14)
H26 H 0.2524 0.5750 0.3110
C33 C 0.258(2) 0.693(2) 0.3641(15)
C34 C 0.328(2) 0.661(2) 0.4300(15)
C35 C 0.416(2) 0.612(2) 0.4342(14)
H27 H 0.4339 0.5892 0.3966
C36 C 0.477(2) 0.599(2) 0.4993(14)
H28 H 0.5435 0.5734 0.5045
C37 C 0.360(2) 0.652(2) 0.5481(14)
H29 H 0.3371 0.6576 0.5873
C38 C 0.288(3) 0.684(2) 0.4854(15)
H30 H 0.2260 0.7147 0.4827
C39 C 0.231(2) 0.782(2) 0.3565(12)
H31 H 0.2452 0.8208 0.3931
C40 C 0.182(2) 0.812(2) 0.2925(14)
H32 H 0.1660 0.8731 0.2873
C41 C 0.859(2) 0.785(2) 1.0432(15)
H33 H 0.8361 0.7774 1.0819
C42 C 0.793(2) 0.759(2) 0.9841(13)
H34 H 0.7287 0.7322 0.9815
C43 C 0.832(2) 0.776(2) 0.9270(13)
C44 C 0.774(2) 0.7382(19) 0.8575(13)
C45 C 0.731(2) 0.650(2) 0.8515(15)
H35 H 0.7415 0.6124 0.8887
C46 C 0.676(2) 0.621(2) 0.7898(14)
H36 H 0.6455 0.5649 0.7870
C47 C 0.705(2) 0.755(2) 0.7428(15)
H37 H 0.6952 0.7893 0.7041
C48 C 0.755(2) 0.793(2) 0.7972(13)
H38 H 0.7772 0.8516 0.7981
C49 C 0.925(2) 0.8153(17) 0.9308(13)
H39 H 0.9495 0.8250 0.8927
C50 C 0.985(2) 0.842(2) 0.9961(15)
H40 H 1.0464 0.8743 1.0002
Ni2_2 Ni -0.0611(3) 0.3027(2) 0.85327(16)
Ni2A Ni 0.0611(3) 0.8027(2) 0.14673(16)
Ni2A_2 Ni 1.0611(3) 0.8027(2) 1.14673(16)
N3_2 N 0.0398(17) 1.3689(15) 0.8088(11)
N7A N -0.1553(19) 1.2612(18) 0.7617(12)
N9A N 0.0454(18) 1.3216(17) 0.9497(12)
loop_
_geom_bond_atom_site_label_1
_geom_bond_atom_site_label_2
_geom_bond_site_symmetry_1
_geom_bond_site_symmetry_2
W1 O4 1_555 1_555
W2 O2 1_555 1_555
W3 O3 1_555 1_555
W4 O3 1_555 1_555
W5 O4 1_555 1_555
W6 O4 1_555 1_555
W7 O2 1_555 1_555
W8 O1 1_555 1_555
W9 O3 1_555 1_555
W10 O1 1_555 1_555
W11 O1 1_555 1_555
W12 O2 1_555 1_555
Ni1 Br1 1_555 1_555
Ni2 Br2 1_555 1_555
Si1 O1 1_555 1_555
O2 Si1 1_555 1_555
O3 Si1 1_555 1_555
O4 Si1 1_555 1_555
O5 W8 1_555 1_555
O6 W2 1_555 1_555
O7 W3 1_555 1_555
O8 W9 1_555 1_555
O9 W7 1_555 1_555
O10 W4 1_555 1_555
O11 W1 1_555 1_555
O12 W1 1_555 1_555
O13 W4 1_555 1_555
O14 W4 1_555 1_555
O15 W8 1_555 1_555
O16 W6 1_555 1_555
O17 W1 1_555 1_555
O18 W2 1_555 1_555
O19 W1 1_555 1_555
O20 W11 1_555 1_555
O21 W7 1_555 1_555
O22 W1 1_555 1_555
O23 W6 1_555 1_555
O24 W10 1_555 1_555
O25 W9 1_555 1_555
O26 W6 1_555 1_555
O27 W2 1_555 1_555
O28 W12 1_555 1_555
O29 W3 1_555 1_555
O30 W4 1_555 1_555
O31 W10 1_555 1_555
O32 W3 1_555 1_555
O33 W5 1_555 1_555
O34 W5 1_555 1_555
O35 W7 1_555 1_555
O36 W3 1_555 1_555
O37 W3 1_555 1_555
O38 W8 1_555 1_555
O39 W2 1_555 1_555
O40 W5 1_555 1_555
N1 C1 1_555 1_555
N2 Ni1 1_555 1_555
N3 C11 1_555 1_555
N4 Ni1 1_555 1_555
N5 Ni2 1_555 1_555
N6 C26 1_555 1_555
N7 C31 1_555 1_555
N8 Ni1 1_555 1_555
N9 C41 1_555 1_555
N10 Ni1 1_555 1_555
C1 H1 1_555 1_555
C2 C1 1_555 1_555
H2 C2 1_555 1_555
C3 C2 1_555 1_555
C4 C3 1_555 1_555
C5 C4 1_555 1_555
H3 C5 1_555 1_555
C6 N2 1_555 1_555
H4 C6 1_555 1_555
C7 N2 1_555 1_555
H5 C7 1_555 1_555
C8 C4 1_555 1_555
H6 C8 1_555 1_555
C9 C3 1_555 1_555
H7 C9 1_555 1_555
C10 N1 1_555 1_555
H8 C10 1_555 1_555
C11 H9 1_555 1_555
C12 C11 1_555 1_555
H10 C12 1_555 1_555
C13 C12 1_555 1_555
C14 C13 1_555 1_555
C15 C14 1_555 1_555
H11 C15 1_555 1_555
C16 N4 1_555 1_555
H12 C16 1_555 1_555
C17 N4 1_555 1_555
H13 C17 1_555 1_555
C18 C14 1_555 1_555
H14 C18 1_555 1_555
C19 C13 1_555 1_555
H15 C19 1_555 1_555
C20 N3 1_555 1_555
H16 C20 1_555 1_555
C21 N5 1_555 1_555
H17 C21 1_555 1_555
C22 C21 1_555 1_555
H18 C22 1_555 1_555
C23 C22 1_555 1_555
C24 C23 1_555 1_555
C25 C24 1_555 1_555
H19 C25 1_555 1_555
C26 C25 1_555 1_555
H20 C26 1_555 1_555
C27 N6 1_555 1_555
H21 C27 1_555 1_555
C28 C24 1_555 1_555
H22 C28 1_555 1_555
C29 C23 1_555 1_555
H23 C29 1_555 1_555
C30 N5 1_555 1_555
H24 C30 1_555 1_555
C31 H25 1_555 1_555
C32 C31 1_555 1_555
H26 C32 1_555 1_555
C33 C32 1_555 1_555
C34 C33 1_555 1_555
C35 C34 1_555 1_555
H27 C35 1_555 1_555
C36 N8 1_555 1_555
H28 C36 1_555 1_555
C37 N8 1_555 1_555
H29 C37 1_555 1_555
C38 C34 1_555 1_555
H30 C38 1_555 1_555
C39 C33 1_555 1_555
H31 C39 1_555 1_555
C40 N7 1_555 1_555
H32 C40 1_555 1_555
C41 H33 1_555 1_555
C42 C41 1_555 1_555
H34 C42 1_555 1_555
C43 C42 1_555 1_555
C44 C43 1_555 1_555
C45 C44 1_555 1_555
H35 C45 1_555 1_555
C46 N10 1_555 1_555
H36 C46 1_555 1_555
C47 N10 1_555 1_555
H37 C47 1_555 1_555
C48 C44 1_555 1_555
H38 C48 1_555 1_555
C49 C43 1_555 1_555
H39 C49 1_555 1_555
C50 N9 1_555 1_555
H40 C50 1_555 1_555
Ni2_2 N3 1_555 1_555
Ni2A N7 1_555 1_555
Ni2A_2 N9 1_555 1_555
N3_2 Ni2 1_555 1_555
N7A Ni2 1_555 1_555
N9A Ni2 1_555 1_555
W2 O19 1_555 1_555
W4 O37 1_555 1_555
W5 O10 1_555 1_555
W5 O17 1_555 1_555
W6 O12 1_555 1_555
W6 O34 1_555 1_555
W7 O6 1_555 1_555
W7 O7 1_555 1_555
W8 O9 1_555 1_555
W8 O32 1_555 1_555
W9 O16 1_555 1_555
W9 O29 1_555 1_555
W9 O30 1_555 1_555
W10 O14 1_555 1_555
W10 O33 1_555 1_555
W10 O38 1_555 1_555
W11 O5 1_555 1_555
W11 O18 1_555 1_555
W11 O22 1_555 1_555
W11 O24 1_555 1_555
W12 O21 1_555 1_555
W12 O23 1_555 1_555
W12 O25 1_555 1_555
W12 O39 1_555 1_555
Ni1 O31 1_555 1_555
Ni2 O28 1_555 1_555
C5 C6 1_555 1_555
C7 C8 1_555 1_555
C9 C10 1_555 1_555
C15 C16 1_555 1_555
C17 C18 1_555 1_555
C19 C20 1_555 1_555
C27 C28 1_555 1_555
C29 C30 1_555 1_555
C35 C36 1_555 1_555
C37 C38 1_555 1_555
C39 C40 1_555 1_555
C45 C46 1_555 1_555
C47 C48 1_555 1_555
C49 C50 1_555 1_555

#END
