
#######################################################################
#
#                 Cambridge Crystallographic Data Centre
#                                CCDC 
#
#######################################################################
#
# If this CIF has been generated from an entry in the Cambridge 
# Structural Database, then it will include bibliographic, chemical, 
# crystal, experimental, refinement or atomic coordinate data resulting 
# from the CCDC's data processing and validation procedures.
#
#######################################################################

data_PELSUV
_symmetry_cell_setting           triclinic
_symmetry_space_group_name_H-M   'P -1'
_symmetry_Int_Tables_number      2
_space_group_name_Hall           '-P 1'
loop_
_symmetry_equiv_pos_site_id
_symmetry_equiv_pos_as_xyz
1 x,y,z
2 -x,-y,-z
_cell_length_a                   12.7346(7)
_cell_length_b                   13.6135(7)
_cell_length_c                   14.5978(8)
_cell_angle_alpha                91.3800(10)
_cell_angle_beta                 100.0770(10)
_cell_angle_gamma                92.0100(10)
_cell_volume                     2488.96
loop_
_atom_site_label
_atom_site_type_symbol
_atom_site_fract_x
_atom_site_fract_y
_atom_site_fract_z
Bi1 Bi 0.41886(2) 0.30390(2) 0.291703(19)
Bi2 Bi 0.30928(2) 0.50057(2) 0.529847(18)
Bi3 Bi 0.20117(2) 0.58442(2) 0.200418(19)
I1 I 0.21144(4) 0.34315(4) 0.16333(4)
I2 I 0.38479(4) 0.08969(4) 0.27127(4)
I3 I 0.54385(4) 0.34293(4) 0.14993(4)
I4 I 0.28655(4) 0.28758(4) 0.47181(3)
I5 I 0.63497(4) 0.27280(4) 0.43249(4)
I6 I 0.44314(4) 0.53729(3) 0.35133(3)
I7 I 0.20787(4) 0.47348(4) 0.68771(3)
I8 I 0.11192(4) 0.53220(4) 0.40310(3)
I9 I 0.23948(4) 0.79036(4) 0.26637(3)
I10 I 0.26680(4) 0.61919(4) 0.02466(4)
I11 I -0.02140(4) 0.58406(4) 0.12845(4)
Bi2A Bi 0.69072(2) 0.49943(2) 0.470153(18)
I5A I 0.36503(4) 0.72720(4) 0.56751(4)
I6A I 0.55686(4) 0.46271(3) 0.64867(3)
Ru1 Ru 0.20609(4) 0.05816(4) 0.79301(4)
C1 C 0.3029(6) -0.0056(6) 0.6255(5)
H1 H 0.2554 -0.0616 0.6214
C2 C 0.3613(6) 0.0065(5) 0.5566(5)
H2 H 0.3512 -0.0379 0.5043
C3 C 0.4358(6) 0.0845(6) 0.5637(5)
H3 H 0.4792 0.0935 0.5176
C4 C 0.4447(6) 0.1482(5) 0.6392(5)
H4 H 0.4963 0.2012 0.6466
C5 C 0.3788(6) 0.1359(5) 0.7051(5)
C6 C 0.3731(5) 0.2081(5) 0.7818(5)
C7 C 0.4423(6) 0.2891(6) 0.8040(5)
H5 H 0.5002 0.2994 0.7717
C8 C 0.4269(6) 0.3540(5) 0.8722(5)
H6 H 0.4744 0.4096 0.8884
C9 C 0.3416(6) 0.3385(6) 0.9178(5)
H7 H 0.3284 0.3842 0.9643
C10 C 0.2757(6) 0.2554(5) 0.8945(5)
H8 H 0.2178 0.2440 0.9266
C11 C 0.0882(6) 0.1942(5) 0.6516(5)
H9 H 0.1430 0.2417 0.6758
C12 C 0.0097(6) 0.2200(6) 0.5803(5)
H10 H 0.0109 0.2837 0.5552
C13 C -0.0705(7) 0.1518(6) 0.5459(6)
H11 H -0.1271 0.1685 0.4980
C14 C -0.0678(6) 0.0596(6) 0.5815(5)
H12 H -0.1225 0.0117 0.5580
C15 C 0.0147(6) 0.0363(6) 0.6519(5)
C16 C 0.0316(6) -0.0632(5) 0.6874(5)
C17 C -0.0355(7) -0.1456(6) 0.6585(5)
H13 H -0.1015 -0.1384 0.6178
C18 C -0.0062(7) -0.2370(6) 0.6888(6)
H14 H -0.0515 -0.2932 0.6690
C19 C 0.0893(7) -0.2465(6) 0.7481(6)
H15 H 0.1123 -0.3092 0.7687
C20 C 0.1500(6) -0.1628(6) 0.7763(5)
H16 H 0.2152 -0.1693 0.8183
C21 C 0.3924(6) -0.0538(5) 0.8959(6)
H17 H 0.4221 -0.0500 0.8407
C22 C 0.4429(7) -0.1084(6) 0.9676(6)
H18 H 0.5065 -0.1409 0.9624
C23 C 0.3990(7) -0.1146(6) 1.0468(6)
H19 H 0.4310 -0.1535 1.0965
C24 C 0.3096(7) -0.0651(6) 1.0543(6)
H20 H 0.2795 -0.0691 1.1093
C25 C 0.2628(6) -0.0091(5) 0.9818(5)
C26 C 0.1662(6) 0.0470(5) 0.9831(5)
C27 C 0.1273(6) 0.0703(6) 1.0624(5)
H21 H 0.1612 0.0480 1.1210
C28 C 0.0384(7) 0.1263(6) 1.0562(6)
H22 H 0.0121 0.1450 1.1109
C29 C -0.0125(6) 0.1553(5) 0.9697(6)
H23 H -0.0752 0.1921 0.9636
C30 C 0.0307(6) 0.1291(5) 0.8933(6)
H24 H -0.0039 0.1486 0.8339
N1 N 0.3084(5) 0.0570(4) 0.6992(4)
N2 N 0.2911(5) 0.1899(4) 0.8276(4)
N3 N 0.0911(5) 0.1042(4) 0.6889(4)
N4 N 0.1244(5) -0.0727(4) 0.7491(4)
N5 N 0.3024(5) -0.0053(4) 0.9007(4)
N6 N 0.1194(5) 0.0774(4) 0.8978(4)
loop_
_geom_bond_atom_site_label_1
_geom_bond_atom_site_label_2
_geom_bond_site_symmetry_1
_geom_bond_site_symmetry_2
Bi1 I1 1_555 1_555
Bi2 I4 1_555 1_555
Bi3 I1 1_555 1_555
I2 Bi1 1_555 1_555
I3 Bi1 1_555 1_555
I4 Bi1 1_555 1_555
I5 Bi1 1_555 1_555
I6 Bi1 1_555 1_555
I7 Bi2 1_555 1_555
I8 Bi2 1_555 1_555
I9 Bi3 1_555 1_555
I10 Bi3 1_555 1_555
I11 Bi3 1_555 1_555
Ru1 N1 1_555 1_555
C1 H1 1_555 1_555
C2 C1 1_555 1_555
H2 C2 1_555 1_555
C3 C2 1_555 1_555
H3 C3 1_555 1_555
C4 C3 1_555 1_555
H4 C4 1_555 1_555
C5 C4 1_555 1_555
C6 C5 1_555 1_555
C7 C6 1_555 1_555
H5 C7 1_555 1_555
C8 C7 1_555 1_555
H6 C8 1_555 1_555
C9 C8 1_555 1_555
H7 C9 1_555 1_555
C10 C9 1_555 1_555
H8 C10 1_555 1_555
C11 H9 1_555 1_555
C12 C11 1_555 1_555
H10 C12 1_555 1_555
C13 C12 1_555 1_555
H11 C13 1_555 1_555
C14 C13 1_555 1_555
H12 C14 1_555 1_555
C15 C14 1_555 1_555
C16 C15 1_555 1_555
C17 C16 1_555 1_555
H13 C17 1_555 1_555
C18 C17 1_555 1_555
H14 C18 1_555 1_555
C19 C18 1_555 1_555
H15 C19 1_555 1_555
C20 C19 1_555 1_555
H16 C20 1_555 1_555
C21 H17 1_555 1_555
C22 C21 1_555 1_555
H18 C22 1_555 1_555
C23 C22 1_555 1_555
H19 C23 1_555 1_555
C24 C23 1_555 1_555
H20 C24 1_555 1_555
C25 C24 1_555 1_555
C26 C25 1_555 1_555
C27 C26 1_555 1_555
H21 C27 1_555 1_555
C28 C27 1_555 1_555
H22 C28 1_555 1_555
C29 C28 1_555 1_555
H23 C29 1_555 1_555
C30 C29 1_555 1_555
H24 C30 1_555 1_555
N1 C1 1_555 1_555
N2 Ru1 1_555 1_555
N3 Ru1 1_555 1_555
N4 Ru1 1_555 1_555
N5 Ru1 1_555 1_555
N6 Ru1 1_555 1_555
Bi2A I5 1_555 1_555
I5A Bi2 1_555 1_555
I6A Bi2 1_555 1_555
Bi2 I6 1_555 1_555
Bi3 I6 1_555 1_555
Bi3 I8 1_555 1_555
I6 Bi2A 1_555 1_555
C5 N1 1_555 1_555
C6 N2 1_555 1_555
C10 N2 1_555 1_555
C11 N3 1_555 1_555
C15 N3 1_555 1_555
C16 N4 1_555 1_555
C20 N4 1_555 1_555
C21 N5 1_555 1_555
C25 N5 1_555 1_555
C26 N6 1_555 1_555
C30 N6 1_555 1_555
Bi2A I6A 1_555 1_555

#END
