
#######################################################################
#
#                 Cambridge Crystallographic Data Centre
#                                CCDC 
#
#######################################################################
#
# If this CIF has been generated from an entry in the Cambridge 
# Structural Database, then it will include bibliographic, chemical, 
# crystal, experimental, refinement or atomic coordinate data resulting 
# from the CCDC's data processing and validation procedures.
#
#######################################################################

data_PELSAC01
_symmetry_cell_setting           monoclinic
_symmetry_space_group_name_H-M   'P 21'
_symmetry_Int_Tables_number      4
_space_group_name_Hall           'P 2yb'
loop_
_symmetry_equiv_pos_site_id
_symmetry_equiv_pos_as_xyz
1 x,y,z
2 -x,1/2+y,-z
_cell_length_a                   13.261(3)
_cell_length_b                   15.012(3)
_cell_length_c                   20.517(4)
_cell_angle_alpha                90
_cell_angle_beta                 104.13(3)
_cell_angle_gamma                90
_cell_volume                     3960.83
loop_
_atom_site_label
_atom_site_type_symbol
_atom_site_fract_x
_atom_site_fract_y
_atom_site_fract_z
W1 W 0.65882(12) 0.82219(12) 0.16412(8)
W2 W 0.68058(11) 0.81435(11) 0.33215(7)
W3 W 0.86534(11) 0.43981(12) 0.34794(8)
W4 W 0.78729(12) 0.61543(13) 0.42870(7)
W5 W 0.96029(13) 0.76079(11) 0.36224(7)
W6 W 0.84202(12) 0.45004(11) 0.16680(8)
W7 W 0.74358(13) 0.63230(13) 0.07749(7)
W8 W 0.49954(13) 0.68843(11) 0.22543(8)
W9 W 1.03732(12) 0.58619(10) 0.28250(8)
W10 W 0.61203(13) 0.49044(12) 0.32233(8)
W11 W 0.58646(14) 0.49849(12) 0.13965(7)
W12 W 0.93702(13) 0.76631(11) 0.19524(8)
Ni1 Ni 0.4383(3) 0.3018(3) 0.35146(19)
Ni2 Ni 1.0651(3) 0.9729(3) 0.14617(19)
Si1 Si 0.7690(13) 0.6307(12) 0.2537(7)
O1 O 0.9952(16) 0.8448(16) 0.1553(11)
O2 O 0.376(2) 0.692(2) 0.2150(13)
O3 O 0.489(2) 0.441(2) 0.0965(14)
O4 O 0.5233(17) 0.7756(19) 0.1660(11)
O5 O 0.626(3) 0.905(3) 0.1133(18)
O6 O 0.6665(16) 0.8787(16) 0.2487(12)
O7 O 1.160(2) 0.549(2) 0.2981(13)
O8 O 0.8410(16) 0.4098(15) 0.2526(11)
O9 O 0.5394(18) 0.7715(18) 0.2953(11)
O10 O 0.899(2) 0.3562(18) 0.1424(13)
O11 O 0.8252(17) 0.5200(15) 0.0887(11)
O12 O 1.0670(17) 0.6709(15) 0.3539(10)
O13 O 0.5414(19) 0.5913(18) 0.2941(12)
O14 O 1.0517(18) 0.6794(16) 0.2237(11)
O15 O 0.6018(17) 0.4611(16) 0.2323(11)
O16 O 0.6739(18) 0.7293(17) 0.1049(11)
O17 O 0.5217(16) 0.4191(15) 0.3431(10)
O18 O 0.9766(17) 0.5083(19) 0.3376(13)
O19 O 0.813(2) 0.8219(19) 0.1897(12)
O20 O 0.800(3) 0.627(2) 0.5115(14)
O21 O 0.737(2) 0.657(2) -0.0031(13)
O22 O 1.038(2) 0.825(2) 0.4216(12)
O23 O 0.901(2) 0.6750(18) 0.4134(12)
O24 O 0.8735(18) 0.6913(17) 0.1249(12)
O25 O 0.623(2) 0.5604(19) 0.0684(13)
O26 O 0.9631(18) 0.5144(17) 0.2077(11)
O27 O 0.8631(16) 0.506(2) 0.4285(11)
O28 O 0.6813(16) 0.7056(15) 0.2478(10)
O29 O 0.926(2) 0.346(2) 0.3850(14)
O30 O 0.7465(16) 0.5686(14) 0.1842(10)
O31 O 0.6667(19) 0.5415(17) 0.4113(12)
O32 O 0.698(2) 0.4155(19) 0.1380(12)
O33 O 0.830(2) 0.821(2) 0.3456(12)
O34 O 0.9872(19) 0.8182(17) 0.2838(11)
O35 O 0.7137(18) 0.7112(17) 0.3947(11)
O36 O 0.7640(18) 0.5652(16) 0.3157(11)
O37 O 0.6581(18) 0.8950(17) 0.3846(11)
O38 O 0.887(2) 0.6720(17) 0.2688(12)
O39 O 0.724(2) 0.4089(18) 0.3463(13)
O40 O 0.5228(19) 0.5972(18) 0.1602(11)
Cl1 Cl 0.3456(10) 0.1741(10) 0.3584(7)
Cl2 Cl 1.1511(8) 1.1081(7) 0.1407(6)
N1 N 0.3489(15) 0.3788(13) 0.4025(9)
C1 C 0.2462(16) 0.3541(15) 0.3984(11)
H1 H 0.2190 0.3030 0.3749
C2 C 0.1842(16) 0.4059(16) 0.4297(11)
H2 H 0.1157 0.3893 0.4270
C3 C 0.2250(17) 0.4825(16) 0.4649(11)
C4 C 0.3278(16) 0.5073(15) 0.4689(11)
H3 H 0.3549 0.5583 0.4924
C5 C 0.3897(14) 0.4555(14) 0.4377(10)
H4 H 0.4582 0.4720 0.4404
N2 N 0.5423(13) 0.2296(13) 0.3054(9)
C6 C 0.5711(14) 0.2665(13) 0.2533(9)
H5 H 0.5368 0.3168 0.2324
C7 C 0.6493(15) 0.2309(14) 0.2312(10)
H6 H 0.6693 0.2565 0.1950
C8 C 0.6988(15) 0.1584(13) 0.2613(9)
C9 C 0.6700(14) 0.1215(13) 0.3134(9)
H7 H 0.7043 0.0712 0.3343
C10 C 0.5917(14) 0.1571(13) 0.3355(9)
H8 H 0.5716 0.1315 0.3717
N3 N 0.345(2) 0.340(2) 0.2589(14)
N4 N 0.5469(15) 0.2826(16) 0.4486(9)
C11 C 0.5117(15) 0.2683(16) 0.5045(9)
H9 H 0.4459 0.2441 0.5007
C12 C 0.5724(15) 0.2892(15) 0.5659(9)
H10 H 0.5482 0.2793 0.6042
C13 C 0.6683(15) 0.3244(15) 0.5715(9)
C14 C 0.7036(15) 0.3388(17) 0.5156(9)
H11 H 0.7693 0.3630 0.5195
C15 C 0.6429(15) 0.3179(17) 0.4542(9)
H12 H 0.6670 0.3278 0.4159
C16 C 0.268(2) 0.326(2) 0.1430(13)
H13 H 0.2526 0.2875 0.1063
C17 C 0.7962(16) 0.1181(15) 0.2376(10)
C18 C 0.8280(17) 0.1560(15) 0.1844(11)
H14 H 0.7970 0.2082 0.1647
C19 C 0.9060(18) 0.1161(16) 0.1603(11)
H15 H 0.9273 0.1415 0.1246
N5 N 0.9521(17) 0.0383(16) 0.1895(11)
C20 C 0.9204(16) 0.0004(15) 0.2428(11)
H16 H 0.9514 -0.0518 0.2624
C21 C 0.8424(17) 0.0403(15) 0.2667(10)
H17 H 0.8211 0.0149 0.3025
C22 C 0.1592(17) 0.5333(17) 0.5031(11)
C23 C 0.0912(17) 0.4902(16) 0.5317(11)
H18 H 0.0841 0.4287 0.5277
C24 C 0.0336(16) 0.5368(16) 0.5662(11)
H19 H -0.0130 0.5072 0.5858
N6 N 0.0440(17) 0.6263(17) 0.5720(11)
C25 C 0.1120(19) 0.6694(16) 0.5434(12)
H20 H 0.1191 0.7309 0.5474
C26 C 0.1695(18) 0.6228(17) 0.5089(12)
H21 H 0.2162 0.6524 0.4893
C27 C 0.314(2) 0.428(2) 0.2548(14)
H22 H 0.3302 0.4628 0.2936
C28 C 0.260(3) 0.468(2) 0.1958(16)
H23 H 0.2396 0.5268 0.1948
C29 C 0.236(3) 0.413(3) 0.1339(18)
N7 N 0.0481(13) 0.4851(14) -0.0562(8)
C30 C 0.1408(15) 0.4418(16) -0.0512(9)
H24 H 0.1609 0.4255 -0.0899
C31 C 0.2039(16) 0.4226(17) 0.0108(10)
H25 H 0.2667 0.3932 0.0142
C32 C 0.1742(17) 0.4467(18) 0.0679(10)
C33 C 0.0814(16) 0.4900(18) 0.0630(10)
H26 H 0.0613 0.5063 0.1017
C34 C 0.0184(14) 0.5092(15) 0.0009(9)
H27 H -0.0444 0.5386 -0.0025
C35 C 0.322(3) 0.292(3) 0.2065(16)
H28 H 0.3420 0.2321 0.2098
C36 C 0.7263(16) 0.3688(15) 0.6397(10)
C37 C 0.7676(18) 0.4518(15) 0.6456(10)
H29 H 0.7583 0.4884 0.6080
C38 C 0.8222(18) 0.4817(16) 0.7062(12)
H30 H 0.8505 0.5386 0.7103
N8 N 0.8357(17) 0.4285(17) 0.7610(11)
C39 C 0.7945(18) 0.3455(17) 0.7551(11)
H31 H 0.8038 0.3089 0.7928
C40 C 0.7398(18) 0.3156(15) 0.6945(11)
H32 H 0.7116 0.2586 0.6905
C41 C 1.1203(14) 0.8302(14) 0.0538(10)
H33 H 1.0504 0.8165 0.0488
C42 C 1.1786(17) 0.7800(14) 0.0238(10)
H34 H 1.1493 0.7313 -0.0021
C43 C 1.2787(18) 0.7995(15) 0.0309(11)
C44 C 1.3205(17) 0.8692(17) 0.0679(12)
H35 H 1.3904 0.8828 0.0729
C45 C 1.2623(17) 0.9194(16) 0.0979(11)
H36 H 1.2915 0.9681 0.1237
N9 N 1.1621(15) 0.8999(14) 0.0908(10)
C46 C 1.3574(18) 0.7428(16) 0.0018(11)
C47 C 1.3374(18) 0.6536(17) -0.0062(12)
H37 H 1.2855 0.6279 0.0109
C48 C 1.394(2) 0.6022(17) -0.0395(13)
H38 H 1.3801 0.5415 -0.0450
N10 N 1.470(2) 0.6400(19) -0.0648(13)
C49 C 1.4900(18) 0.7292(19) -0.0567(12)
H39 H 1.5419 0.7549 -0.0738
C50 C 1.4337(19) 0.7806(17) -0.0234(12)
H40 H 1.4473 0.8412 -0.0179
Ni2_2 Ni 1.0651(3) -0.0271(3) 0.14617(19)
Ni2A Ni -0.0651(3) 0.4729(3) -0.14617(19)
Ni2A_2 Ni 0.9349(3) 0.4729(3) 0.85383(19)
N5_2 N 0.9521(17) 1.0383(16) 0.1895(11)
N7A N 0.9519(13) 0.9851(14) 0.0562(8)
N8A N 1.1643(17) 0.9285(17) 0.2390(11)
O41 O -0.080(2) 0.672(2) 0.6482(16)
O42 O -0.086(3) 0.770(3) 0.7606(19)
O43 O 1.416(4) 1.015(4) 0.260(2)
O44 O 1.407(3) 1.090(3) 0.138(2)
loop_
_geom_bond_atom_site_label_1
_geom_bond_atom_site_label_2
_geom_bond_site_symmetry_1
_geom_bond_site_symmetry_2
W1 O4 1_555 1_555
W2 O6 1_555 1_555
W3 O8 1_555 1_555
W4 O20 1_555 1_555
W5 O12 1_555 1_555
W6 O8 1_555 1_555
W7 O11 1_555 1_555
W8 O2 1_555 1_555
W9 O7 1_555 1_555
W10 O13 1_555 1_555
W11 O3 1_555 1_555
W12 O1 1_555 1_555
Ni1 O17 1_555 1_555
Ni2 O1 1_555 1_555
Si1 O28 1_555 1_555
O4 W8 1_555 1_555
O5 W1 1_555 1_555
O6 W1 1_555 1_555
O9 W2 1_555 1_555
O10 W6 1_555 1_555
O11 W6 1_555 1_555
O12 W9 1_555 1_555
O13 W8 1_555 1_555
O14 W9 1_555 1_555
O15 W10 1_555 1_555
O16 W1 1_555 1_555
O17 W10 1_555 1_555
O18 W3 1_555 1_555
O19 W1 1_555 1_555
O21 W7 1_555 1_555
O22 W5 1_555 1_555
O23 W4 1_555 1_555
O24 W7 1_555 1_555
O25 W7 1_555 1_555
O26 W6 1_555 1_555
O27 W3 1_555 1_555
O28 W1 1_555 1_555
O29 W3 1_555 1_555
O30 W6 1_555 1_555
O31 W4 1_555 1_555
O32 W6 1_555 1_555
O33 W2 1_555 1_555
O34 W5 1_555 1_555
O35 W2 1_555 1_555
O36 W3 1_555 1_555
O37 W2 1_555 1_555
O38 W5 1_555 1_555
O39 W3 1_555 1_555
O40 W8 1_555 1_555
Cl1 Ni1 1_555 1_555
Cl2 Ni2 1_555 1_555
N1 Ni1 1_555 1_555
C1 N1 1_555 1_555
H1 C1 1_555 1_555
C2 C1 1_555 1_555
H2 C2 1_555 1_555
C3 C2 1_555 1_555
C4 C3 1_555 1_555
H3 C4 1_555 1_555
C5 N1 1_555 1_555
H4 C5 1_555 1_555
N2 Ni1 1_555 1_555
C6 N2 1_555 1_555
H5 C6 1_555 1_555
C7 C6 1_555 1_555
H6 C7 1_555 1_555
C8 C7 1_555 1_555
C9 C8 1_555 1_555
H7 C9 1_555 1_555
C10 N2 1_555 1_555
H8 C10 1_555 1_555
N3 Ni1 1_555 1_555
N4 Ni1 1_555 1_555
C11 N4 1_555 1_555
H9 C11 1_555 1_555
C12 C11 1_555 1_555
H10 C12 1_555 1_555
C13 C12 1_555 1_555
C14 C13 1_555 1_555
H11 C14 1_555 1_555
C15 N4 1_555 1_555
H12 C15 1_555 1_555
C16 H13 1_555 1_555
C17 C8 1_555 1_555
C18 C17 1_555 1_555
H14 C18 1_555 1_555
C19 C18 1_555 1_555
H15 C19 1_555 1_555
N5 C19 1_555 1_555
C20 N5 1_555 1_555
H16 C20 1_555 1_555
C21 C17 1_555 1_555
H17 C21 1_555 1_555
C22 C3 1_555 1_555
C23 C22 1_555 1_555
H18 C23 1_555 1_555
C24 C23 1_555 1_555
H19 C24 1_555 1_555
N6 C24 1_555 1_555
C25 N6 1_555 1_555
H20 C25 1_555 1_555
C26 C22 1_555 1_555
H21 C26 1_555 1_555
C27 N3 1_555 1_555
H22 C27 1_555 1_555
C28 C27 1_555 1_555
H23 C28 1_555 1_555
C29 C16 1_555 1_555
N7 C30 1_555 1_555
C30 H24 1_555 1_555
C31 C30 1_555 1_555
H25 C31 1_555 1_555
C32 C29 1_555 1_555
C33 C32 1_555 1_555
H26 C33 1_555 1_555
C34 N7 1_555 1_555
H27 C34 1_555 1_555
C35 N3 1_555 1_555
H28 C35 1_555 1_555
C36 C13 1_555 1_555
C37 C36 1_555 1_555
H29 C37 1_555 1_555
C38 C37 1_555 1_555
H30 C38 1_555 1_555
N8 C38 1_555 1_555
C39 N8 1_555 1_555
H31 C39 1_555 1_555
C40 C36 1_555 1_555
H32 C40 1_555 1_555
C41 H33 1_555 1_555
C42 C41 1_555 1_555
H34 C42 1_555 1_555
C43 C42 1_555 1_555
C44 C43 1_555 1_555
H35 C44 1_555 1_555
C45 C44 1_555 1_555
H36 C45 1_555 1_555
N9 Ni2 1_555 1_555
C46 C43 1_555 1_555
C47 C46 1_555 1_555
H37 C47 1_555 1_555
C48 C47 1_555 1_555
H38 C48 1_555 1_555
N10 C48 1_555 1_555
C49 N10 1_555 1_555
H39 C49 1_555 1_555
C50 C46 1_555 1_555
H40 C50 1_555 1_555
Ni2_2 N5 1_555 1_555
Ni2A N7 1_555 1_555
Ni2A_2 N8 1_555 1_555
N5_2 Ni2 1_555 1_555
N7A Ni2 1_555 1_555
N8A Ni2 1_555 1_555
W2 O28 1_555 1_555
W4 O27 1_555 1_555
W4 O35 1_555 1_555
W4 O36 1_555 1_555
W5 O23 1_555 1_555
W5 O33 1_555 1_555
W7 O16 1_555 1_555
W7 O30 1_555 1_555
W8 O9 1_555 1_555
W8 O28 1_555 1_555
W9 O18 1_555 1_555
W9 O26 1_555 1_555
W9 O38 1_555 1_555
W10 O31 1_555 1_555
W10 O36 1_555 1_555
W10 O39 1_555 1_555
W11 O15 1_555 1_555
W11 O25 1_555 1_555
W11 O30 1_555 1_555
W11 O32 1_555 1_555
W11 O40 1_555 1_555
W12 O14 1_555 1_555
W12 O19 1_555 1_555
W12 O24 1_555 1_555
W12 O34 1_555 1_555
W12 O38 1_555 1_555
Si1 O30 1_555 1_555
Si1 O36 1_555 1_555
Si1 O38 1_555 1_555
C4 C5 1_555 1_555
C9 C10 1_555 1_555
C14 C15 1_555 1_555
C16 C35 1_555 1_555
C20 C21 1_555 1_555
C25 C26 1_555 1_555
C28 C29 1_555 1_555
C31 C32 1_555 1_555
C33 C34 1_555 1_555
C39 C40 1_555 1_555
C41 N9 1_555 1_555
C45 N9 1_555 1_555
C49 C50 1_555 1_555

#END
