
#######################################################################
#
#                 Cambridge Crystallographic Data Centre
#                                CCDC 
#
#######################################################################
#
# If this CIF has been generated from an entry in the Cambridge 
# Structural Database, then it will include bibliographic, chemical, 
# crystal, experimental, refinement or atomic coordinate data resulting 
# from the CCDC's data processing and validation procedures.
#
#######################################################################

data_PELTUX
_symmetry_cell_setting           monoclinic
_symmetry_space_group_name_H-M   'P 21/c'
_symmetry_Int_Tables_number      14
_space_group_name_Hall           '-P 2ybc'
loop_
_symmetry_equiv_pos_site_id
_symmetry_equiv_pos_as_xyz
1 x,y,z
2 -x,1/2+y,1/2-z
3 -x,-y,-z
4 x,1/2-y,1/2+z
_cell_length_a                   16.0587(4)
_cell_length_b                   27.6658(6)
_cell_length_c                   9.9524(3)
_cell_angle_alpha                90
_cell_angle_beta                 96.044(2)
_cell_angle_gamma                90
_cell_volume                     4397.04
loop_
_atom_site_label
_atom_site_type_symbol
_atom_site_fract_x
_atom_site_fract_y
_atom_site_fract_z
Ho1 Ho 0.055572(18) 0.529236(10) -0.77593(3)
Ho2 Ho -0.360211(19) 1.014606(11) -0.85558(3)
O1 O 0.1531(3) 0.58033(18) -0.6918(5)
O2 O 0.0537(3) 0.98211(17) -0.6695(5)
O3 O -0.0375(3) 0.59469(17) -0.8095(5)
O4 O 0.1036(3) 0.49045(18) -0.5714(5)
H1 H 0.0750 0.4638 -0.5424
H2 H 0.1512 0.5018 -0.5196
O5 O -0.2612(3) 0.96974(16) -0.7392(5)
O6 O -0.4357(3) 0.94693(16) -0.8840(5)
O7 O -0.2760(3) 0.99153(18) -1.0220(5)
O8 O 0.0846(3) 0.94254(19) -0.4782(5)
O9 O -0.1281(3) 0.96453(18) -0.6590(5)
C1 C -0.0582(4) 0.5951(2) -0.6925(7)
O10 O -0.2452(3) 0.75326(17) -0.5358(6)
C2 C -0.2307(5) 0.7992(2) -0.5836(7)
C3 C -0.1981(5) 0.7146(3) -0.5765(8)
O11 O 0.2903(3) 0.58499(17) -0.6751(5)
C4 C 0.1137(4) 0.9053(2) -0.6808(7)
C5 C 0.1308(5) 0.8662(3) -0.8903(8)
H3 H 0.1221 0.8658 -0.9842
O12 O 0.2058(5) 0.79396(19) -0.8991(6)
C6 C -0.1091(4) 0.6352(2) -0.6480(7)
C7 C 0.1010(5) 0.9034(3) -0.8181(7)
H4 H 0.0711 0.9281 -0.8645
C8 C 0.2147(4) 0.6540(2) -0.7544(7)
C9 C -0.1985(5) 0.9465(2) -0.6866(7)
N1 N -0.2246(4) 0.9871(3) -1.2274(6)
H5 H -0.1755 0.9980 -1.2003
C10 C 0.1735(6) 0.8297(3) -0.8219(8)
N2 N -0.3495(4) 0.9623(3) -1.2154(7)
H6 H -0.3942 0.9538 -1.1810
C11 C 0.0818(4) 0.9461(3) -0.6026(7)
C12 C -0.5623(4) 0.5633(2) -0.8324(7)
C13 C -0.2843(4) 0.9819(3) -1.1460(7)
C14 C -0.2111(4) 0.8943(2) -0.6537(7)
O13 O -0.5047(4) 0.73566(18) -1.1061(5)
O14 O -0.6200(3) 0.53485(19) -0.8784(5)
C15 C -0.5789(4) 0.8496(3) -0.9806(7)
H7 H -0.6294 0.8646 -0.9686
C16 C -0.5039(6) 0.7802(2) -1.0419(8)
C17 C -0.2995(5) 0.8268(3) -0.6192(8)
H8 H -0.3528 0.8137 -0.6192
C18 C -0.5422(4) 0.6081(2) -0.9081(7)
C19 C -0.5046(4) 0.8753(2) -0.9566(7)
C20 C -0.1505(5) 0.8176(3) -0.5849(8)
H9 H -0.1039 0.7980 -0.5634
C21 C -0.2895(4) 0.8747(2) -0.6557(8)
H10 H -0.3364 0.8936 -0.6816
C22 C -0.5608(6) 0.6576(3) -1.1066(8)
H11 H -0.5803 0.6617 -1.1972
C23 C 0.2187(4) 0.6033(2) -0.7043(6)
C24 C -0.1414(4) 0.8656(3) -0.6189(7)
H12 H -0.0881 0.8788 -0.6184
C25 C -0.4292(6) 0.8047(3) -1.0138(8)
H13 H -0.3786 0.7895 -1.0243
C26 C -0.5743(5) 0.6143(3) -1.0412(8)
H14 H -0.6048 0.5896 -1.0868
C27 C -0.4873(5) 0.6885(3) -0.9021(8)
H15 H -0.4591 0.7135 -0.8543
C28 C -0.1310(5) 0.6400(3) -0.5210(8)
H16 H -0.1153 0.6161 -0.4576
C29 C 0.2821(5) 0.7238(3) -0.8346(8)
H17 H 0.3302 0.7390 -0.8578
C30 C -0.4304(5) 0.8520(3) -0.9698(8)
H18 H -0.3801 0.8683 -0.9488
C31 C -0.4991(4) 0.6449(2) -0.8407(7)
H19 H -0.4772 0.6403 -0.7514
C32 C -0.1757(6) 0.6792(3) -0.4829(9)
H20 H -0.1905 0.6817 -0.3953
C33 C 0.1385(5) 0.6785(3) -0.7697(8)
H21 H 0.0897 0.6632 -0.7495
C34 C 0.2847(4) 0.6770(3) -0.7872(7)
H22 H 0.3356 0.6607 -0.7773
O15 O -0.5717(3) 0.95148(17) -0.9527(5)
C35 C -0.3376(6) 0.9565(4) -1.3558(8)
H23 H -0.3771 0.9762 -1.4124
H24 H -0.3448 0.9230 -1.3832
O16 O -0.0318(3) 0.56133(16) -0.6119(5)
O17 O -0.5256(3) 0.55709(16) -0.7147(5)
C36 C -0.5179(5) 0.6945(2) -1.0350(8)
C37 C -0.5788(5) 0.8023(3) -1.0218(7)
H25 H -0.6288 0.7851 -1.0361
C38 C 0.1565(6) 0.8678(3) -0.6155(8)
H26 H 0.1645 0.8679 -0.5215
C39 C 0.2069(6) 0.7472(3) -0.8465(8)
C40 C 0.1884(6) 0.8297(3) -0.6845(8)
H27 H 0.2189 0.8051 -0.6389
C41 C -0.1339(6) 0.6704(3) -0.7400(8)
H28 H -0.1195 0.6678 -0.8278
C42 C -0.1804(6) 0.7100(3) -0.7049(10)
H29 H -0.1989 0.7330 -0.7693
C43 C 0.1363(6) 0.7254(3) -0.8150(9)
H30 H 0.0859 0.7423 -0.8240
C44 C -0.2495(5) 0.9728(4) -1.3662(9)
H31 H -0.2149 0.9467 -1.3944
H32 H -0.2476 0.9998 -1.4280
C45 C -0.5058(4) 0.9283(2) -0.9291(7)
Ho1A Ho -0.055572(18) 1.029236(10) -0.72407(3)
Ho1C Ho 0.055572(18) 0.970764(10) -0.27593(3)
Ho2A Ho 0.360211(19) 0.514606(11) -0.64442(3)
Ho2A_2 Ho -0.639789(19) 0.514606(11) -0.64442(3)
Ho2B Ho -0.639789(19) 0.985394(11) -1.14442(3)
O2A O -0.0537(3) 0.48211(17) -0.8305(5)
O8C O 0.0846(3) 0.55746(19) -0.9782(5)
O9A O 0.1281(3) 0.46453(18) -0.8410(5)
O11A O -0.2903(3) 1.08499(17) -0.8249(5)
O14A O -0.3800(3) 1.03485(19) -0.6216(5)
O15B O -0.4283(3) 1.04852(17) -1.0473(5)
O17A O -0.4744(3) 1.05709(16) -0.7853(5)
loop_
_geom_bond_atom_site_label_1
_geom_bond_atom_site_label_2
_geom_bond_site_symmetry_1
_geom_bond_site_symmetry_2
Ho1 O1 1_555 1_555
Ho2 O5 1_555 1_555
O1 C23 1_555 1_555
O2 C11 1_555 1_555
O3 Ho1 1_555 1_555
O4 Ho1 1_555 1_555
H1 O4 1_555 1_555
H2 O4 1_555 1_555
O5 C9 1_555 1_555
O6 Ho2 1_555 1_555
O7 Ho2 1_555 1_555
O8 C11 1_555 1_555
O9 C9 1_555 1_555
C1 O3 1_555 1_555
O10 C2 1_555 1_555
C2 C17 1_555 1_555
C3 O10 1_555 1_555
O11 C23 1_555 1_555
C4 C7 1_555 1_555
C5 H3 1_555 1_555
O12 C10 1_555 1_555
C6 C1 1_555 1_555
C7 C5 1_555 1_555
H4 C7 1_555 1_555
C8 C23 1_555 1_555
C9 C14 1_555 1_555
N1 H5 1_555 1_555
C10 C5 1_555 1_555
N2 H6 1_555 1_555
C11 C4 1_555 1_555
C12 O14 1_555 1_555
C13 O7 1_555 1_555
C14 C21 1_555 1_555
O13 C16 1_555 1_555
O14 Ho2A_2 1_555 1_555
C15 H7 1_555 1_555
C16 C25 1_555 1_555
C17 H8 1_555 1_555
C18 C12 1_555 1_555
C19 C15 1_555 1_555
C20 C2 1_555 1_555
H9 C20 1_555 1_555
C21 C17 1_555 1_555
H10 C21 1_555 1_555
C22 H11 1_555 1_555
C24 C14 1_555 1_555
H12 C24 1_555 1_555
C25 H13 1_555 1_555
C26 C18 1_555 1_555
H14 C26 1_555 1_555
C27 H15 1_555 1_555
C28 C6 1_555 1_555
H16 C28 1_555 1_555
C29 H17 1_555 1_555
C30 C19 1_555 1_555
H18 C30 1_555 1_555
C31 C18 1_555 1_555
H19 C31 1_555 1_555
C32 C3 1_555 1_555
H20 C32 1_555 1_555
C33 C8 1_555 1_555
H21 C33 1_555 1_555
C34 C8 1_555 1_555
H22 C34 1_555 1_555
O15 C45 1_555 1_555
C35 N2 1_555 1_555
H23 C35 1_555 1_555
H24 C35 1_555 1_555
O16 Ho1 1_555 1_555
O17 C12 1_555 1_555
C36 O13 1_555 1_555
C37 C15 1_555 1_555
H25 C37 1_555 1_555
C38 C4 1_555 1_555
H26 C38 1_555 1_555
C39 O12 1_555 1_555
C40 C10 1_555 1_555
H27 C40 1_555 1_555
C41 C6 1_555 1_555
H28 C41 1_555 1_555
C42 C3 1_555 1_555
H29 C42 1_555 1_555
C43 C33 1_555 1_555
H30 C43 1_555 1_555
C44 N1 1_555 1_555
H31 C44 1_555 1_555
H32 C44 1_555 1_555
C45 O6 1_555 1_555
Ho1A O2 1_555 1_555
Ho1C O8 1_555 1_555
Ho2A O11 1_555 1_555
Ho2A_2 O17 1_555 1_555
Ho2B O15 1_555 1_555
O2A Ho1 1_555 1_555
O8C Ho1 1_555 1_555
O9A Ho1 1_555 1_555
O11A Ho2 1_555 1_555
O14A Ho2 1_555 1_555
O15B Ho2 1_555 1_555
O17A Ho2 1_555 1_555
O9 Ho1A 1_555 1_555
C1 O16 1_555 1_555
N1 C13 1_555 1_555
N2 C13 1_555 1_555
C16 C37 1_555 1_555
C19 C45 1_555 1_555
C20 C24 1_555 1_555
C22 C26 1_555 1_555
C22 C36 1_555 1_555
C25 C30 1_555 1_555
C27 C31 1_555 1_555
C27 C36 1_555 1_555
C28 C32 1_555 1_555
C29 C34 1_555 1_555
C29 C39 1_555 1_555
C35 C44 1_555 1_555
C38 C40 1_555 1_555
C39 C43 1_555 1_555
C41 C42 1_555 1_555

#END
