
#######################################################################
#
#                 Cambridge Crystallographic Data Centre
#                                CCDC 
#
#######################################################################
#
# If this CIF has been generated from an entry in the Cambridge 
# Structural Database, then it will include bibliographic, chemical, 
# crystal, experimental, refinement or atomic coordinate data resulting 
# from the CCDC's data processing and validation procedures.
#
#######################################################################

data_PELTOQ
_symmetry_cell_setting           orthorhombic
_symmetry_space_group_name_H-M   'F d d 2'
_symmetry_Int_Tables_number      43
_space_group_name_Hall           'F 2 -2d'
loop_
_symmetry_equiv_pos_site_id
_symmetry_equiv_pos_as_xyz
1 x,y,z
2 -x,-y,z
3 1/4+x,1/4-y,1/4+z
4 1/4-x,1/4+y,1/4+z
5 x,1/2+y,1/2+z
6 -x,1/2-y,1/2+z
7 1/4+x,3/4-y,3/4+z
8 1/4-x,3/4+y,3/4+z
9 1/2+x,y,1/2+z
10 1/2-x,-y,1/2+z
11 3/4+x,1/4-y,3/4+z
12 3/4-x,1/4+y,3/4+z
13 1/2+x,1/2+y,z
14 1/2-x,1/2-y,z
15 3/4+x,3/4-y,1/4+z
16 3/4-x,3/4+y,1/4+z
_cell_length_a                   11.9150(10)
_cell_length_b                   42.205(5)
_cell_length_c                   7.3069(9)
_cell_angle_alpha                90
_cell_angle_beta                 90
_cell_angle_gamma                90
_cell_volume                     3674.44
loop_
_atom_site_label
_atom_site_type_symbol
_atom_site_fract_x
_atom_site_fract_y
_atom_site_fract_z
In1 In -0.01299(2) 0.242869(6) 0.36134(6)
O1 O -0.1127(3) 0.28021(9) 0.4814(5)
O2 O -0.0747(3) 0.29779(9) 0.7603(4)
O3 O -0.3573(3) 0.28897(8) 0.4431(5)
O4 O -0.2902(4) 0.30068(10) 0.1636(5)
O5 O 0.0639(2) 0.23700(7) 0.6166(5)
H1 H 0.122(3) 0.2239(10) 0.618(10)
O6 O 0.1346(3) 0.27530(10) 0.3254(5)
H2 H 0.152(6) 0.2837(16) 0.216(5)
H3 H 0.164(6) 0.2810(17) 0.432(6)
C1 C -0.1654(3) 0.33230(10) 0.5537(6)
C2 C -0.2455(3) 0.33447(11) 0.4147(6)
C3 C -0.2822(4) 0.36434(11) 0.3620(8)
H4 H -0.3360 0.3662 0.2704
C4 C -0.2405(4) 0.39120(12) 0.4425(9)
H5 H -0.2653 0.4110 0.4040
C5 C -0.1613(4) 0.38890(11) 0.5818(7)
H6 H -0.1338 0.4071 0.6380
C6 C -0.1239(4) 0.35947(11) 0.6356(7)
H7 H -0.0703 0.3578 0.7276
C7 C -0.1141(3) 0.30111(10) 0.6030(7)
C8 C -0.2991(4) 0.30590(11) 0.3295(7)
In1E In 0.01299(2) 0.257131(6) 0.86134(6)
In1M In -0.48701(2) 0.257131(6) 0.36134(6)
O2E O 0.0747(3) 0.20221(9) 0.2603(4)
O3M O -0.1427(3) 0.21103(8) 0.4431(5)
O5E O -0.0639(2) 0.26300(7) 0.1166(5)
H1E H -0.122(3) 0.2761(10) 0.118(10)
loop_
_geom_bond_atom_site_label_1
_geom_bond_atom_site_label_2
_geom_bond_site_symmetry_1
_geom_bond_site_symmetry_2
In1 O1 1_555 1_555
O1 C7 1_555 1_555
O2 C7 1_555 1_555
O3 C8 1_555 1_555
O4 C8 1_555 1_555
O5 In1 1_555 1_555
H1 O5 1_555 1_555
O6 In1 1_555 1_555
H2 O6 1_555 1_555
H3 O6 1_555 1_555
C1 C2 1_555 1_555
C2 C3 1_555 1_555
C3 H4 1_555 1_555
C4 C3 1_555 1_555
H5 C4 1_555 1_555
C5 C4 1_555 1_555
H6 C5 1_555 1_555
C6 C1 1_555 1_555
H7 C6 1_555 1_555
C7 C1 1_555 1_555
C8 C2 1_555 1_555
In1E O2 1_555 1_555
In1M O3 1_555 1_555
O2E In1 1_555 1_555
O3M In1 1_555 1_555
O5E In1 1_555 1_555
H1E O5E 1_555 1_555
O5 In1E 1_555 1_555
C5 C6 1_555 1_555

#END
