
#######################################################################
#
#                 Cambridge Crystallographic Data Centre
#                                CCDC 
#
#######################################################################
#
# If this CIF has been generated from an entry in the Cambridge 
# Structural Database, then it will include bibliographic, chemical, 
# crystal, experimental, refinement or atomic coordinate data resulting 
# from the CCDC's data processing and validation procedures.
#
#######################################################################

data_PELTIL
_symmetry_cell_setting           monoclinic
_symmetry_space_group_name_H-M   'P 21/c'
_symmetry_Int_Tables_number      14
_space_group_name_Hall           '-P 2ybc'
loop_
_symmetry_equiv_pos_site_id
_symmetry_equiv_pos_as_xyz
1 x,y,z
2 -x,1/2+y,1/2-z
3 -x,-y,-z
4 x,1/2-y,1/2+z
_cell_length_a                   16.0445(12)
_cell_length_b                   27.598(2)
_cell_length_c                   9.9439(9)
_cell_angle_alpha                90
_cell_angle_beta                 95.898(9)
_cell_angle_gamma                90
_cell_volume                     4379.81
loop_
_atom_site_label
_atom_site_type_symbol
_atom_site_fract_x
_atom_site_fract_y
_atom_site_fract_z
Er1 Er 0.944292(18) 0.470757(10) -0.22399(3)
Er2 Er 1.360320(18) 0.985300(10) -0.14419(3)
O1 O 1.2906(3) 0.91551(16) -0.1755(5)
O2 O 1.4741(3) 0.94286(16) -0.2142(4)
O3 O 1.5643(3) 0.55266(16) -0.3849(5)
O4 O 1.0525(3) 0.51774(16) -0.1696(5)
O5 O 1.0367(3) 0.40518(16) -0.1902(4)
O6 O 1.1527(3) 0.92001(17) -0.1930(5)
O7 O 1.0317(3) 0.43916(16) -0.3883(4)
C1 C 1.2192(4) 0.8967(2) -0.2046(6)
C2 C 1.0570(4) 0.4054(2) -0.3089(6)
C3 C 1.2004(4) 0.0522(2) -0.3129(6)
O8 O 1.2622(3) 0.02989(16) -0.2587(5)
C4 C 1.4950(4) 0.5713(2) -0.4276(6)
C5 C 1.2144(4) 0.8461(2) -0.2540(6)
C6 C 1.0813(4) 0.5543(2) -0.1038(7)
O9 O 1.4287(3) 0.54804(16) -0.4525(4)
O10 O 1.1293(3) 0.03469(18) -0.3415(5)
O11 O 1.2765(3) 1.00826(19) 0.0224(5)
C7 C 1.2114(4) 0.1054(2) -0.3455(6)
C8 C 1.4956(4) 0.6246(2) -0.4563(6)
C9 C 1.4210(4) 0.6499(2) -0.4808(7)
H1 H 1.3704 0.6348 -0.4697
O12 O 0.8966(3) 0.50944(18) -0.4283(5)
H2 H 0.9252 0.5362 -0.4572
H3 H 0.8491 0.4980 -0.4801
O13 O 1.3798(3) 0.96524(17) -0.3773(5)
O14 O 1.0836(3) 0.55740(18) 0.0215(5)
O15 O 1.2431(4) 0.24683(17) -0.4664(5)
N1 N 1.2226(4) 1.0121(3) 0.2251(6)
O16 O 1.2056(5) 0.70609(18) -0.3995(6)
C10 C 1.2837(4) 1.0178(3) 0.1464(7)
C11 C 1.4371(4) 0.9365(2) -0.3326(7)
N2 N 1.3498(4) 1.0371(3) 0.2151(6)
H4 H 1.3946 1.0453 0.1800
C12 C 1.1076(5) 0.3647(2) -0.3522(7)
C13 C 1.5132(5) 0.8119(2) -0.4027(7)
H5 H 1.5421 0.7871 -0.3548
C14 C 1.1130(4) 0.5945(2) -0.1803(6)
C15 C 1.1002(5) 0.5959(2) -0.3177(7)
H6 H 1.0706 0.5710 -0.3640
C16 C 1.5009(4) 0.8556(2) -0.3413(7)
H7 H 1.5231 0.8602 -0.2521
C17 C 1.2301(5) 0.2006(2) -0.4165(7)
C18 C 1.1503(5) 0.1822(2) -0.4137(7)
H8 H 1.1035 0.2017 -0.4341
C19 C 1.2897(4) 0.1247(2) -0.3443(7)
H9 H 1.3367 0.1057 -0.3195
C20 C 1.4570(4) 0.8922(2) -0.4080(7)
O17 O 1.4970(4) 0.76414(16) -0.6058(5)
C21 C 1.1417(4) 0.1341(2) -0.3798(7)
H10 H 1.0884 0.1208 -0.3801
C22 C 1.5705(5) 0.6480(3) -0.4689(7)
H11 H 1.6210 0.6318 -0.4472
C23 C 1.1308(5) 0.3600(3) -0.4818(8)
H12 H 1.1168 0.3842 -0.5452
C24 C 1.2854(5) 0.8230(2) -0.2868(7)
H13 H 1.3363 0.8395 -0.2775
C25 C 1.1307(5) 0.6339(2) -0.3894(7)
H14 H 1.1222 0.6342 -0.4833
C26 C 1.4219(5) 0.6979(3) -0.5218(7)
H15 H 1.3723 0.7154 -0.5356
C27 C 1.2991(5) 0.1733(2) -0.3804(8)
H16 H 1.3523 0.1867 -0.3797
C28 C 1.1390(5) 0.8221(3) -0.2680(8)
H17 H 1.0908 0.8373 -0.2445
C29 C 1.4964(6) 0.7192(2) -0.5418(7)
C30 C 1.2824(5) 0.7761(3) -0.3332(8)
H18 H 1.3307 0.7606 -0.3551
C31 C 1.4251(6) 0.8854(3) -0.5416(8)
H19 H 1.3945 0.9098 -0.5882
C32 C 1.1978(5) 0.2851(2) -0.4251(8)
C33 C 1.1567(6) 0.6319(3) -0.1133(7)
H20 H 1.1649 0.6317 -0.0194
C34 C 1.1731(6) 0.6708(2) -0.3222(8)
C35 C 1.4825(5) 0.8052(2) -0.5349(7)
C36 C 1.1737(6) 0.3205(3) -0.5176(8)
H21 H 1.1868 0.3173 -0.6061
C37 C 1.2504(5) 1.0257(3) 0.3637(9)
H22 H 1.2491 0.9982 0.4241
H23 H 1.2159 1.0515 0.3948
C38 C 1.2071(5) 0.7528(3) -0.3466(8)
C39 C 1.5704(5) 0.6955(3) -0.5140(8)
H24 H 1.6207 0.7110 -0.5251
C40 C 1.4389(5) 0.8423(3) -0.6050(9)
H25 H 1.4189 0.8380 -0.6954
C41 C 1.3386(5) 1.0428(3) 0.3551(9)
H26 H 1.3452 1.0764 0.3826
H27 H 1.3784 1.0231 0.4114
C42 C 1.1886(6) 0.6696(3) -0.1841(9)
H28 H 1.2202 0.6939 -0.1385
C43 C 1.1352(5) 0.7751(3) -0.3171(9)
H29 H 1.0841 0.7589 -0.3300
C44 C 1.1320(6) 0.3292(3) -0.2618(10)
H30 H 1.1173 0.3318 -0.1741
C45 C 1.1784(6) 0.2891(3) -0.2961(10)
H31 H 1.1956 0.2657 -0.2319
Er1A Er 1.055708(18) 0.970757(10) -0.27601(3)
Er1A_2 Er 1.055708(18) -0.029243(10) -0.27601(3)
Er1B Er 1.055708(18) 0.529243(10) 0.22399(3)
Er2A Er 1.639680(18) 0.485300(10) -0.35581(3)
Er2_2 Er 1.360320(18) -0.014700(10) -0.14419(3)
Er2C Er 1.360320(18) 0.514700(10) -0.64419(3)
O3A O 1.4357(3) 1.05266(16) -0.1151(5)
O6A O 0.8473(3) 0.42001(17) -0.3070(5)
O8_2 O 1.2622(3) 1.02989(16) -0.2587(5)
O9C O 1.4287(3) 0.95196(16) 0.0475(4)
O10A O 0.8707(3) 0.53469(18) -0.1585(5)
O14B O 0.9164(3) 0.44260(18) -0.0215(5)
loop_
_geom_bond_atom_site_label_1
_geom_bond_atom_site_label_2
_geom_bond_site_symmetry_1
_geom_bond_site_symmetry_2
Er1 O4 1_555 1_555
Er2 O1 1_555 1_555
O1 C1 1_555 1_555
O2 Er2 1_555 1_555
O3 C4 1_555 1_555
O4 C6 1_555 1_555
O5 Er1 1_555 1_555
O6 C1 1_555 1_555
O7 Er1 1_555 1_555
C1 C5 1_555 1_555
C2 O5 1_555 1_555
C3 O8 1_555 1_555
O8 Er2_2 1_555 1_555
C4 O9 1_555 1_555
C5 C24 1_555 1_555
C6 O14 1_555 1_555
O9 Er2C 1_555 1_555
O10 C3 1_555 1_555
O11 Er2 1_555 1_555
C7 C3 1_555 1_555
C8 C4 1_555 1_555
C9 C8 1_555 1_555
H1 C9 1_555 1_555
O12 Er1 1_555 1_555
H2 O12 1_555 1_555
H3 O12 1_555 1_555
O13 Er2 1_555 1_555
O14 Er1B 1_555 1_555
O15 C17 1_555 1_555
N1 C10 1_555 1_555
O16 C34 1_555 1_555
C10 O11 1_555 1_555
C11 O2 1_555 1_555
N2 C10 1_555 1_555
H4 N2 1_555 1_555
C12 C2 1_555 1_555
C13 H5 1_555 1_555
C14 C6 1_555 1_555
C15 C14 1_555 1_555
H6 C15 1_555 1_555
C16 C13 1_555 1_555
H7 C16 1_555 1_555
C17 C18 1_555 1_555
C18 H8 1_555 1_555
C19 C7 1_555 1_555
H9 C19 1_555 1_555
C20 C11 1_555 1_555
O17 C29 1_555 1_555
C21 C7 1_555 1_555
H10 C21 1_555 1_555
C22 C8 1_555 1_555
H11 C22 1_555 1_555
C23 C12 1_555 1_555
H12 C23 1_555 1_555
C24 H13 1_555 1_555
C25 C15 1_555 1_555
H14 C25 1_555 1_555
C26 C9 1_555 1_555
H15 C26 1_555 1_555
C27 C17 1_555 1_555
H16 C27 1_555 1_555
C28 C5 1_555 1_555
H17 C28 1_555 1_555
C29 C26 1_555 1_555
C30 C24 1_555 1_555
H18 C30 1_555 1_555
C31 C20 1_555 1_555
H19 C31 1_555 1_555
C32 O15 1_555 1_555
C33 C14 1_555 1_555
H20 C33 1_555 1_555
C34 C25 1_555 1_555
C35 C13 1_555 1_555
C36 C23 1_555 1_555
H21 C36 1_555 1_555
C37 N1 1_555 1_555
H22 C37 1_555 1_555
H23 C37 1_555 1_555
C38 O16 1_555 1_555
C39 C22 1_555 1_555
H24 C39 1_555 1_555
C40 C31 1_555 1_555
H25 C40 1_555 1_555
C41 N2 1_555 1_555
H26 C41 1_555 1_555
H27 C41 1_555 1_555
C42 C33 1_555 1_555
H28 C42 1_555 1_555
C43 C28 1_555 1_555
H29 C43 1_555 1_555
C44 C12 1_555 1_555
H30 C44 1_555 1_555
C45 C32 1_555 1_555
H31 C45 1_555 1_555
Er1A O6 1_555 1_555
Er1A_2 O10 1_555 1_555
Er2A O3 1_555 1_555
O3A Er2 1_555 1_555
O6A Er1 1_555 1_555
O8_2 Er2 1_555 1_555
O9C Er2 1_555 1_555
O10A Er1 1_555 1_555
O14B Er1 1_555 1_555
O7 C2 1_555 1_555
O13 C11 1_555 1_555
C16 C20 1_555 1_555
C18 C21 1_555 1_555
C19 C27 1_555 1_555
O17 C35 1_555 1_555
C29 C39 1_555 1_555
C30 C38 1_555 1_555
C32 C36 1_555 1_555
C34 C42 1_555 1_555
C35 C40 1_555 1_555
C37 C41 1_555 1_555
C38 C43 1_555 1_555
C44 C45 1_555 1_555

#END
