
#######################################################################
#
#                 Cambridge Crystallographic Data Centre
#                                CCDC 
#
#######################################################################
#
# If this CIF has been generated from an entry in the Cambridge 
# Structural Database, then it will include bibliographic, chemical, 
# crystal, experimental, refinement or atomic coordinate data resulting 
# from the CCDC's data processing and validation procedures.
#
#######################################################################

data_PELTOR
_symmetry_cell_setting           monoclinic
_symmetry_space_group_name_H-M   'P 21/c'
_symmetry_Int_Tables_number      14
_space_group_name_Hall           '-P 2ybc'
loop_
_symmetry_equiv_pos_site_id
_symmetry_equiv_pos_as_xyz
1 x,y,z
2 -x,1/2+y,1/2-z
3 -x,-y,-z
4 x,1/2-y,1/2+z
_cell_length_a                   16.0603(5)
_cell_length_b                   27.6878(11)
_cell_length_c                   9.9639(5)
_cell_angle_alpha                90
_cell_angle_beta                 96.019(4)
_cell_angle_gamma                90
_cell_volume                     4406.27
loop_
_atom_site_label
_atom_site_type_symbol
_atom_site_fract_x
_atom_site_fract_y
_atom_site_fract_z
Yb1 Yb 0.055536(17) 0.470769(11) 0.22406(3)
Yb2 Yb 0.360232(17) 0.485363(11) 0.35548(3)
C1 C 0.2497(5) 0.5276(4) 0.8654(8)
H1 H 0.2475 0.5008 0.9277
H2 H 0.2148 0.5537 0.8925
O1 O 0.1532(3) 0.41951(19) 0.3080(5)
O2 O 0.4357(3) 0.55275(18) 0.3842(5)
O3 O 0.0542(3) 0.01837(19) 0.3313(5)
O4 O 0.2908(3) 0.41529(18) 0.3249(5)
C2 C 0.2839(4) 0.5180(3) 0.6463(7)
C3 C 0.0580(4) 0.9055(3) 0.1919(7)
C4 C 0.2189(4) 0.3966(2) 0.2953(6)
C5 C 0.0817(4) 0.0545(3) 0.3968(7)
C6 C 0.1007(5) 0.0965(3) 0.1804(7)
H3 H 0.0710 0.0717 0.1339
C7 C 0.1996(4) 0.5536(3) 0.1859(6)
O5 O 0.2605(3) 0.53010(19) 0.2391(5)
C8 C 0.2316(5) 0.7006(3) 0.0846(7)
C9 C 0.2107(4) 0.6053(2) 0.1544(6)
O6 O 0.1037(3) 0.5092(2) 0.4288(5)
H4 H 0.1462 0.4952 0.4866
H5 H 0.0803 0.5384 0.4518
O7 O 0.0847(3) 0.0579(2) 0.5216(5)
C10 C 0.5624(4) 0.9360(3) 0.3330(7)
C11 C 0.1145(4) 0.0951(3) 0.3200(6)
C12 C 0.1093(4) 0.8650(3) 0.1480(7)
C13 C 0.1743(6) 0.1713(3) 0.1776(7)
O8 O 0.2055(5) 0.2066(2) 0.1011(6)
O9 O 0.2444(3) 0.7467(2) 0.0356(5)
C14 C 0.5042(4) 0.6246(3) 0.4563(6)
C15 C 0.1414(4) 0.6341(3) 0.1200(7)
H6 H 0.0880 0.6212 0.1199
C16 C 0.5425(4) 0.8919(3) 0.4081(6)
C17 C 0.2148(4) 0.3458(3) 0.2468(6)
C18 C 0.1306(5) 0.1340(3) 0.1109(7)
H7 H 0.1214 0.1344 0.0172
C19 C 0.2896(4) 0.6249(3) 0.1557(7)
H8 H 0.3365 0.6060 0.1811
N1 N 0.3491(4) 0.5376(3) 0.7158(7)
H9 H 0.3938 0.5458 0.6812
C20 C 0.5789(4) 0.6505(3) 0.4813(7)
H10 H 0.6293 0.6353 0.4698
C21 C 0.2844(4) 0.3229(3) 0.2125(7)
H11 H 0.3355 0.3390 0.2216
C22 C 0.2993(4) 0.6722(3) 0.1195(8)
H12 H 0.3529 0.6850 0.1189
O10 O 0.5043(4) 0.7640(2) 0.6068(5)
C23 C 0.1981(5) 0.7854(3) 0.0749(8)
C24 C 0.4289(5) 0.6949(3) 0.5137(8)
H13 H 0.3786 0.7104 0.5239
C25 C 0.4993(4) 0.8555(3) 0.3416(7)
H14 H 0.4768 0.8602 0.2527
C26 C 0.5792(5) 0.6978(3) 0.5227(7)
H15 H 0.6290 0.7151 0.5373
N2 N 0.2248(4) 0.5127(3) 0.7265(6)
H16 H 0.1760 0.5014 0.6998
C27 C 0.4879(5) 0.8117(3) 0.4021(7)
H17 H 0.4603 0.7866 0.3536
C28 C 0.1788(7) 0.7900(3) 0.2047(8)
H18 H 0.1955 0.7665 0.2686
C29 C 0.1511(5) 0.6821(3) 0.0859(7)
H19 H 0.1046 0.7016 0.0641
C30 C 0.2806(6) 0.2766(3) 0.1651(8)
H20 H 0.3287 0.2616 0.1412
C31 C 0.5036(6) 0.7189(3) 0.5419(7)
C32 C 0.1315(5) 0.8602(3) 0.0196(7)
H21 H 0.1160 0.8839 -0.0441
O11 O 0.6196(3) 0.9655(2) 0.3782(5)
C33 C 0.1345(7) 0.8297(3) 0.2397(8)
H22 H 0.1212 0.8326 0.3279
C34 C 0.5609(6) 0.8423(3) 0.6047(8)
H23 H 0.5813 0.8380 0.6948
C35 C 0.5044(4) 0.5717(3) 0.4288(6)
C36 C 0.1756(5) 0.8213(3) -0.0165(8)
H24 H 0.1908 0.8191 -0.1039
C37 C 0.1398(5) 0.3214(3) 0.2318(8)
H25 H 0.0912 0.3365 0.2535
C38 C 0.1368(6) 0.2744(3) 0.1842(9)
H26 H 0.0862 0.2577 0.1740
C39 C 0.2076(6) 0.2528(3) 0.1528(8)
C40 C 0.1572(6) 0.1330(3) 0.3845(8)
H27 H 0.1648 0.1334 0.4783
C41 C 0.5178(5) 0.8055(3) 0.5352(7)
O12 O 0.1285(3) 0.5357(2) 0.1595(5)
C42 C 0.4292(5) 0.6480(3) 0.4706(7)
H28 H 0.3788 0.6317 0.4507
C43 C 0.3378(5) 0.5440(4) 0.8567(8)
H29 H 0.3448 0.5776 0.8831
H30 H 0.3772 0.5245 0.9137
C44 C 0.5737(6) 0.8854(3) 0.5412(8)
H31 H 0.6033 0.9102 0.5879
C45 C 0.1888(6) 0.1702(4) 0.3151(10)
H32 H 0.2199 0.1945 0.3611
O13 O 0.0327(3) 0.93847(18) 0.1123(4)
O14 O 0.5709(3) 0.54815(19) 0.4527(5)
O15 O 0.2758(3) 0.5086(2) 0.5226(5)
O16 O 0.0376(3) 0.90518(19) 0.3101(4)
O17 O 0.5259(3) 0.94271(18) 0.2153(4)
Yb1A Yb -0.055536(17) -0.029231(11) 0.27594(3)
Yb1C Yb 0.055536(17) 0.029231(11) 0.72406(3)
Yb1A_2 Yb -0.055536(17) 0.970769(11) 0.27594(3)
Yb2A Yb 0.639768(17) 0.985363(11) 0.14452(3)
Yb2B Yb 0.639768(17) 0.514637(11) 0.64452(3)
O3A O -0.0542(3) 0.51837(19) 0.1687(5)
O7C O 0.0847(3) 0.4421(2) 0.0216(5)
O11A O 0.3804(3) 0.4655(2) 0.1218(5)
O13A O -0.0327(3) 0.43847(18) 0.3877(4)
O14B O 0.4291(3) 0.45185(19) 0.5473(5)
O16A O -0.0376(3) 0.40518(19) 0.1899(4)
O17A O 0.4741(3) 0.44271(18) 0.2847(4)
loop_
_geom_bond_atom_site_label_1
_geom_bond_atom_site_label_2
_geom_bond_site_symmetry_1
_geom_bond_site_symmetry_2
Yb1 O1 1_555 1_555
Yb2 O2 1_555 1_555
C1 H1 1_555 1_555
H2 C1 1_555 1_555
O1 C4 1_555 1_555
O2 C35 1_555 1_555
O3 C5 1_555 1_555
O4 Yb2 1_555 1_555
C2 N1 1_555 1_555
C3 C12 1_555 1_555
C4 O4 1_555 1_555
C5 O7 1_555 1_555
C6 H3 1_555 1_555
C7 O5 1_555 1_555
O5 Yb2 1_555 1_555
C8 O9 1_555 1_555
C9 C7 1_555 1_555
O6 Yb1 1_555 1_555
H4 O6 1_555 1_555
H5 O6 1_555 1_555
O7 Yb1C 1_555 1_555
C10 C16 1_555 1_555
C11 C5 1_555 1_555
C12 C32 1_555 1_555
C13 O8 1_555 1_555
O8 C39 1_555 1_555
O9 C23 1_555 1_555
C14 C20 1_555 1_555
C15 C9 1_555 1_555
H6 C15 1_555 1_555
C16 C25 1_555 1_555
C17 C4 1_555 1_555
C18 C6 1_555 1_555
H7 C18 1_555 1_555
C19 C9 1_555 1_555
H8 C19 1_555 1_555
N1 H9 1_555 1_555
C20 H10 1_555 1_555
C21 C17 1_555 1_555
H11 C21 1_555 1_555
C22 C8 1_555 1_555
H12 C22 1_555 1_555
O10 C31 1_555 1_555
C23 C28 1_555 1_555
C24 H13 1_555 1_555
C25 H14 1_555 1_555
C26 C20 1_555 1_555
H15 C26 1_555 1_555
N2 C1 1_555 1_555
H16 N2 1_555 1_555
C27 C25 1_555 1_555
H17 C27 1_555 1_555
C28 H18 1_555 1_555
C29 C8 1_555 1_555
H19 C29 1_555 1_555
C30 C21 1_555 1_555
H20 C30 1_555 1_555
C31 C24 1_555 1_555
C32 H21 1_555 1_555
O11 C10 1_555 1_555
C33 C12 1_555 1_555
H22 C33 1_555 1_555
C34 H23 1_555 1_555
C35 C14 1_555 1_555
C36 C23 1_555 1_555
H24 C36 1_555 1_555
C37 C17 1_555 1_555
H25 C37 1_555 1_555
C38 C37 1_555 1_555
H26 C38 1_555 1_555
C39 C30 1_555 1_555
C40 C11 1_555 1_555
H27 C40 1_555 1_555
C41 O10 1_555 1_555
O12 Yb1 1_555 1_555
C42 C14 1_555 1_555
H28 C42 1_555 1_555
C43 C1 1_555 1_555
H29 C43 1_555 1_555
H30 C43 1_555 1_555
C44 C16 1_555 1_555
H31 C44 1_555 1_555
C45 C13 1_555 1_555
H32 C45 1_555 1_555
O13 C3 1_555 1_555
O14 C35 1_555 1_555
O15 Yb2 1_555 1_555
O16 C3 1_555 1_555
O17 C10 1_555 1_555
Yb1A O3 1_555 1_555
Yb1A_2 O13 1_555 1_555
Yb2A O11 1_555 1_555
Yb2B O14 1_555 1_555
O3A Yb1 1_555 1_555
O7C Yb1 1_555 1_555
O11A Yb2 1_555 1_555
O13A Yb1 1_555 1_555
O14B Yb2 1_555 1_555
O16A Yb1 1_555 1_555
O17A Yb2 1_555 1_555
C2 N2 1_555 1_555
C2 O15 1_555 1_555
C6 C11 1_555 1_555
C7 O12 1_555 1_555
C13 C18 1_555 1_555
C15 C29 1_555 1_555
C19 C22 1_555 1_555
N1 C43 1_555 1_555
C24 C42 1_555 1_555
C26 C31 1_555 1_555
C27 C41 1_555 1_555
C28 C33 1_555 1_555
C32 C36 1_555 1_555
C34 C41 1_555 1_555
C34 C44 1_555 1_555
C38 C39 1_555 1_555
C40 C45 1_555 1_555
O16 Yb1A_2 1_555 1_555
O17 Yb2A 1_555 1_555

#END
