
#######################################################################
#
#                 Cambridge Crystallographic Data Centre
#                                CCDC 
#
#######################################################################
#
# If this CIF has been generated from an entry in the Cambridge 
# Structural Database, then it will include bibliographic, chemical, 
# crystal, experimental, refinement or atomic coordinate data resulting 
# from the CCDC's data processing and validation procedures.
#
#######################################################################

data_PELTEG
_symmetry_cell_setting           monoclinic
_symmetry_space_group_name_H-M   'C c'
_symmetry_Int_Tables_number      9
_space_group_name_Hall           'C -2yc'
loop_
_symmetry_equiv_pos_site_id
_symmetry_equiv_pos_as_xyz
1 x,y,z
2 x,-y,1/2+z
3 1/2+x,1/2+y,z
4 1/2+x,1/2-y,1/2+z
_cell_length_a                   9.827(2)
_cell_length_b                   4.9326(10)
_cell_length_c                   16.795(4)
_cell_angle_alpha                90
_cell_angle_beta                 93.910(4)
_cell_angle_gamma                90
_cell_volume                     812.203
loop_
_atom_site_label
_atom_site_type_symbol
_atom_site_fract_x
_atom_site_fract_y
_atom_site_fract_z
Cd1 Cd 0.5379 0.42153(3) 0.6762
P1 P 0.34039(9) -0.09619(15) 0.58567(5)
O1 O 0.3806(2) 0.1080(4) 0.65054(14)
O2 O 0.2009(2) -0.2227(4) 0.59649(13)
O3 O 0.4490(2) -0.3069(4) 0.57244(14)
O4 O 0.0635(2) 0.3449(5) 0.29362(14)
O5 O 0.0289(3) 0.0494(4) 0.39180(14)
O6 O 0.6839(3) 0.6951(5) 0.74746(16)
H1 H 0.7570 0.6990 0.7267
O7 O 0.3872(3) 0.6469(5) 0.76013(15)
H2 H 0.4108 0.6157 0.8070
N1 N 0.2003(3) 0.2953(5) 0.49885(16)
H3 H 0.1267 0.2028 0.5127
H4 H 0.2213 0.4188 0.5372
C1 C 0.3176(4) 0.1030(6) 0.4940(2)
H5 H 0.4003 0.2041 0.4861
H6 H 0.3004 -0.0174 0.4487
C2 C 0.1664(4) 0.4381(6) 0.4218(2)
H7 H 0.2500 0.4865 0.3977
H8 H 0.1173 0.6039 0.4318
C3 C 0.0799(3) 0.2599(6) 0.36479(19)
H9 H 0.405(4) 0.807(3) 0.754(3)
H10 H 0.652(5) 0.841(5) 0.760(3)
Cd1B Cd 0.0379 -0.07847(3) 0.6762
Cd1_2 Cd 0.5379 -0.57847(3) 0.6762
Cd1C Cd 0.0379 0.07847(3) 0.1762
O2B O 0.7009(2) 0.2773(4) 0.59649(13)
O3_2 O 0.4490(2) 0.6931(4) 0.57244(14)
O4C O 0.5635(2) 0.1551(5) 0.79362(14)
loop_
_geom_bond_atom_site_label_1
_geom_bond_atom_site_label_2
_geom_bond_site_symmetry_1
_geom_bond_site_symmetry_2
Cd1 O1 1_555 1_555
P1 O1 1_555 1_555
O2 P1 1_555 1_555
O3 P1 1_555 1_555
O4 C3 1_555 1_555
O5 C3 1_555 1_555
O6 Cd1 1_555 1_555
H1 O6 1_555 1_555
O7 Cd1 1_555 1_555
H2 O7 1_555 1_555
N1 H3 1_555 1_555
H4 N1 1_555 1_555
C1 P1 1_555 1_555
H5 C1 1_555 1_555
H6 C1 1_555 1_555
C2 N1 1_555 1_555
H7 C2 1_555 1_555
H8 C2 1_555 1_555
C3 C2 1_555 1_555
H9 O7 1_555 1_555
H10 O6 1_555 1_555
Cd1B O2 1_555 1_555
Cd1_2 O3 1_555 1_555
Cd1C O4 1_555 1_555
O2B Cd1 1_555 1_555
O3_2 Cd1 1_555 1_555
O4C Cd1 1_555 1_555
N1 C1 1_555 1_555

#END
