
#######################################################################
#
#                 Cambridge Crystallographic Data Centre
#                                CCDC 
#
#######################################################################
#
# If this CIF has been generated from an entry in the Cambridge 
# Structural Database, then it will include bibliographic, chemical, 
# crystal, experimental, refinement or atomic coordinate data resulting 
# from the CCDC's data processing and validation procedures.
#
#######################################################################

data_PELVUY
_symmetry_cell_setting           monoclinic
_symmetry_space_group_name_H-M   'P 21/n'
_symmetry_Int_Tables_number      14
_space_group_name_Hall           '-P 2yn'
loop_
_symmetry_equiv_pos_site_id
_symmetry_equiv_pos_as_xyz
1 x,y,z
2 1/2-x,1/2+y,1/2-z
3 -x,-y,-z
4 1/2+x,1/2-y,1/2+z
_cell_length_a                   10.9077(8)
_cell_length_b                   9.9610(6)
_cell_length_c                   13.2994(8)
_cell_angle_alpha                90
_cell_angle_beta                 107.223(3)
_cell_angle_gamma                90
_cell_volume                     1380.21
loop_
_atom_site_label
_atom_site_type_symbol
_atom_site_fract_x
_atom_site_fract_y
_atom_site_fract_z
Ag1 Ag 0.654332(12) 0.417932(13) 0.205239(11)
N1 N 0.60359(12) 0.11452(14) 0.30346(11)
H1 H 0.6066(18) 0.0353(16) 0.3053(15)
N2 N 0.48176(12) 0.30023(14) 0.22151(11)
C1 C 0.48602(14) 0.17155(17) 0.25101(12)
C2 C 0.37563(15) 0.09087(17) 0.22982(13)
H2 H 0.3818 -0.0016 0.2480
C3 C 0.25813(15) 0.1491(2) 0.18198(14)
H3 H 0.1819 0.0970 0.1669
C4 C 0.25188(15) 0.2852(2) 0.15588(14)
H4 H 0.1717 0.3280 0.1252
C5 C 0.36476(15) 0.35545(18) 0.17583(13)
H5 H 0.3608 0.4476 0.1567
N3 N 0.82469(13) 0.10918(14) 0.37185(11)
C6 C 0.71549(14) 0.18078(16) 0.35683(12)
C7 C 0.71650(15) 0.31159(17) 0.39606(13)
H6 H 0.6384 0.3586 0.3881
C8 C 0.83336(16) 0.37096(19) 0.44662(13)
H7 H 0.8363 0.4608 0.4711
C9 C 0.94608(16) 0.29875(19) 0.46140(14)
H8 H 1.0272 0.3378 0.4956
C10 C 0.93652(15) 0.16893(19) 0.42487(14)
H9 H 1.0132 0.1180 0.4377
S1 S 0.86705(4) 0.21888(4) 0.12677(3)
C11 C 0.84934(17) 0.2596(2) -0.01049(14)
O1 O 0.93431(13) 0.09288(12) 0.14354(11)
O2 O 0.93863(12) 0.33110(13) 0.18348(10)
O3 O 0.73477(11) 0.21333(14) 0.12852(10)
F1 F 0.78059(14) 0.16751(18) -0.07471(10)
F2 F 0.79006(14) 0.37703(16) -0.03641(11)
F3 F 0.96306(12) 0.26783(17) -0.02798(10)
Ag1A Ag 0.845668(12) -0.082068(13) 0.294761(11)
N3A N 0.67531(13) 0.60918(14) 0.12815(11)
loop_
_geom_bond_atom_site_label_1
_geom_bond_atom_site_label_2
_geom_bond_site_symmetry_1
_geom_bond_site_symmetry_2
Ag1 N2 1_555 1_555
N1 H1 1_555 1_555
N2 C1 1_555 1_555
C1 N1 1_555 1_555
C2 C1 1_555 1_555
H2 C2 1_555 1_555
C3 C2 1_555 1_555
H3 C3 1_555 1_555
C4 C3 1_555 1_555
H4 C4 1_555 1_555
C5 N2 1_555 1_555
H5 C5 1_555 1_555
N3 C6 1_555 1_555
C6 N1 1_555 1_555
C7 Ag1 1_555 1_555
H6 C7 1_555 1_555
C8 C7 1_555 1_555
H7 C8 1_555 1_555
C9 C8 1_555 1_555
H8 C9 1_555 1_555
C10 N3 1_555 1_555
H9 C10 1_555 1_555
S1 C11 1_555 1_555
C11 F1 1_555 1_555
O1 S1 1_555 1_555
O2 S1 1_555 1_555
O3 Ag1 1_555 1_555
F2 C11 1_555 1_555
F3 C11 1_555 1_555
Ag1A N3 1_555 1_555
N3A Ag1 1_555 1_555
C4 C5 1_555 1_555
C6 C7 1_555 1_555
C9 C10 1_555 1_555
S1 O3 1_555 1_555

#END
