
#######################################################################
#
#                 Cambridge Crystallographic Data Centre
#                                CCDC 
#
#######################################################################
#
# If this CIF has been generated from an entry in the Cambridge 
# Structural Database, then it will include bibliographic, chemical, 
# crystal, experimental, refinement or atomic coordinate data resulting 
# from the CCDC's data processing and validation procedures.
#
#######################################################################

data_PELVOT
_symmetry_cell_setting           orthorhombic
_symmetry_space_group_name_H-M   'P b c a'
_symmetry_Int_Tables_number      61
_space_group_name_Hall           '-P 2ac 2ab'
loop_
_symmetry_equiv_pos_site_id
_symmetry_equiv_pos_as_xyz
1 x,y,z
2 1/2-x,-y,1/2+z
3 -x,1/2+y,1/2-z
4 1/2+x,1/2-y,-z
5 -x,-y,-z
6 1/2+x,y,1/2-z
7 x,1/2-y,1/2+z
8 1/2-x,1/2+y,z
_cell_length_a                   18.0550(4)
_cell_length_b                   16.3958(3)
_cell_length_c                   29.0934(7)
_cell_angle_alpha                90
_cell_angle_beta                 90
_cell_angle_gamma                90
_cell_volume                     8612.41
loop_
_atom_site_label
_atom_site_type_symbol
_atom_site_fract_x
_atom_site_fract_y
_atom_site_fract_z
La1 La 0.310382(12) 0.220531(12) 0.005816(7)
La2 La 0.162905(12) 0.424859(11) 0.001015(7)
O1 O 0.28917(15) 0.34743(15) -0.03927(8)
O2 O 0.19284(15) 0.19621(15) -0.03895(9)
O3 O 0.40160(14) 0.47010(14) 0.45452(8)
O4 O 0.37876(17) 0.49835(15) -0.43066(9)
O5 O 0.34661(16) 0.33163(15) 0.06167(9)
O6 O 0.27692(16) 0.44107(15) 0.05064(10)
O7 O 0.25612(17) 0.06883(14) 0.00317(8)
O8 O 0.17960(16) 0.20136(15) -0.45166(9)
O9 O 0.09582(19) 0.13192(17) -0.24525(9)
O10 O 0.02791(16) 0.39007(18) 0.01209(11)
H1 H 0.0219 0.3409 0.0085
C1 C 0.3224(2) 0.3998(2) 0.07366(13)
C2 C 0.4036(2) 0.4987(2) 0.28553(13)
O11 O 0.34947(17) 0.35265(15) 0.43345(9)
O12 O 0.12874(15) 0.30959(15) -0.05252(9)
O13 O 0.4142(2) 0.53449(18) 0.24293(9)
O14 O 0.23781(17) 0.30535(16) -0.42047(9)
C3 C 0.4283(2) 0.5146(2) 0.36531(12)
H2 H 0.4498 0.5440 0.3892
C4 C 0.1549(2) 0.2418(2) -0.06469(13)
C5 C 0.0773(2) 0.1518(2) -0.32363(13)
H3 H 0.0328 0.1237 -0.3205
C6 C 0.3786(2) 0.4198(2) 0.42408(13)
O15 O 0.39090(15) 0.36951(15) -0.45276(8)
C7 C 0.1402(2) 0.2132(2) -0.11261(13)
C8 C 0.3899(2) 0.3958(2) -0.37339(12)
C9 C 0.3573(2) 0.4017(2) 0.33889(13)
H4 H 0.3313 0.3539 0.3448
C10 C 0.3098(2) 0.3680(2) -0.11901(13)
C11 C 0.3903(3) 0.4967(2) 0.20268(14)
C12 C 0.3480(2) 0.4341(2) 0.11876(13)
C13 C 0.1824(3) 0.2156(3) -0.28876(15)
H5 H 0.2096 0.2286 -0.2626
O16 O 0.23475(17) 0.45172(16) -0.07219(9)
C14 C 0.3990(2) 0.3421(3) -0.28436(14)
C15 C 0.3730(2) 0.3202(2) -0.12124(13)
H6 H 0.3928 0.2985 -0.0944
C16 C 0.3806(2) 0.4495(2) -0.33762(13)
H7 H 0.3710 0.5041 -0.3439
O17 O 0.4121(2) 0.3087(2) -0.24125(10)
C17 C 0.4048(2) 0.3145(2) -0.36408(14)
H8 H 0.4124 0.2779 -0.3880
C18 C 0.1657(2) 0.2219(2) -0.37113(13)
C19 C 0.3751(3) 0.3326(2) -0.20210(13)
C20 C 0.1192(2) 0.1696(2) -0.28569(13)
C21 C 0.1959(2) 0.2446(2) -0.41713(13)
C22 C 0.2047(3) 0.2422(3) -0.33172(14)
H9 H 0.2469 0.2744 -0.3342
C23 C 0.3883(2) 0.4442(2) 0.37504(12)
C24 C 0.1154(2) 0.1627(2) -0.20216(13)
C25 C 0.1015(2) 0.1758(2) -0.36666(13)
H10 H 0.0747 0.1610 -0.3927
C26 C 0.2781(2) 0.3951(3) -0.15950(14)
H11 H 0.2355 0.4269 -0.1585
C27 C 0.2756(2) 0.3900(2) -0.07458(12)
C28 C 0.4362(2) 0.5413(2) 0.32072(12)
H12 H 0.4637 0.5880 0.3145
C29 C 0.4083(3) 0.2885(2) -0.31921(14)
H13 H 0.4170 0.2337 -0.3128
C30 C 0.0971(3) 0.2399(3) -0.18925(15)
H14 H 0.0766 0.2760 -0.2104
C31 C 0.3093(3) 0.3754(3) -0.20135(14)
H15 H 0.2863 0.3907 -0.2286
C32 C 0.4129(3) 0.4099(2) 0.13890(15)
H16 H 0.4427 0.3717 0.1242
C33 C 0.3261(3) 0.5227(3) 0.18274(17)
H17 H 0.2965 0.5610 0.1975
C34 C 0.4349(3) 0.4415(3) 0.18111(16)
H18 H 0.4794 0.4253 0.1944
C35 C 0.3054(2) 0.4918(3) 0.14074(16)
H19 H 0.2620 0.5102 0.1270
C36 C 0.3851(3) 0.4237(2) -0.29249(15)
H20 H 0.3790 0.4602 -0.2683
C37 C 0.1469(3) 0.1106(3) -0.17172(16)
H21 H 0.1598 0.0582 -0.1808
C38 C 0.4069(3) 0.3045(2) -0.16235(14)
H22 H 0.4510 0.2751 -0.1633
C39 C 0.1095(3) 0.2640(2) -0.14445(15)
H23 H 0.0964 0.3166 -0.1357
C40 C 0.1597(3) 0.1358(3) -0.12718(16)
H24 H 0.1819 0.1000 -0.1065
C41 C 0.3641(3) 0.4288(2) 0.29390(14)
H25 H 0.3422 0.4001 0.2699
O18 O 0.44541(16) 0.26361(17) -0.00781(10)
N1 N 0.4508(2) 0.3999(2) -0.02640(14)
H26 H 0.4100 0.4167 -0.0144
C42 C 0.4788(2) 0.3241(2) -0.02158(15)
N2 N 0.5497(2) 0.3251(2) -0.03510(16)
H27 H 0.5778 0.2827 -0.0362
C43 C 0.4998(3) 0.4493(3) -0.0549(2)
H28 H 0.5016 0.5054 -0.0443
H29 H 0.4849 0.4482 -0.0869
C44 C 0.5731(3) 0.4064(3) -0.0476(2)
H30 H 0.6024 0.4060 -0.0756
H31 H 0.6014 0.4318 -0.0232
C45 C 0.3865(2) 0.4236(2) -0.42221(13)
H32 H 0.002(3) 0.427(2) 0.0208(15)
La1F La 0.310382(12) 0.279469(12) -0.494184(7)
La1F_2 La 0.310382(12) 0.279469(12) 0.505816(7)
La2A La 0.337095(12) 0.575141(11) 0.501015(7)
La2A_2 La 0.337095(12) 0.575141(11) -0.498985(7)
La2G La 0.337095(12) -0.075141(11) 0.001015(7)
La2F La 0.162905(12) 0.075141(11) -0.498985(7)
O3A O 0.09840(14) 0.52990(14) -0.04548(8)
O4A O 0.12124(17) 0.50165(15) 0.06934(9)
O7G O 0.24388(17) 0.56883(14) 0.00317(8)
O8F O 0.17960(16) 0.29864(15) 0.04834(9)
O11F O 0.34947(17) 0.14735(15) -0.06655(9)
O14F O 0.23781(17) 0.19465(16) 0.07953(9)
O15F O 0.39090(15) 0.13049(15) 0.04724(8)
loop_
_geom_bond_atom_site_label_1
_geom_bond_atom_site_label_2
_geom_bond_site_symmetry_1
_geom_bond_site_symmetry_2
La1 O1 1_555 1_555
La2 O1 1_555 1_555
O1 C27 1_555 1_555
O2 La1 1_555 1_555
O3 C6 1_555 1_555
O4 C45 1_555 1_555
O5 La1 1_555 1_555
O6 La2 1_555 1_555
O7 La1 1_555 1_555
O8 C21 1_555 1_555
O9 C20 1_555 1_555
O10 La2 1_555 1_555
H1 O10 1_555 1_555
C1 O5 1_555 1_555
C2 O13 1_555 1_555
O11 C6 1_555 1_555
O12 La2 1_555 1_555
O13 C11 1_555 1_555
O14 C21 1_555 1_555
C3 H2 1_555 1_555
C4 O2 1_555 1_555
C5 H3 1_555 1_555
C6 C23 1_555 1_555
O15 C45 1_555 1_555
C7 C4 1_555 1_555
C8 C16 1_555 1_555
C9 H4 1_555 1_555
C10 C15 1_555 1_555
C11 C33 1_555 1_555
C12 C1 1_555 1_555
C13 H5 1_555 1_555
O16 La2 1_555 1_555
C14 O17 1_555 1_555
C15 H6 1_555 1_555
C16 H7 1_555 1_555
O17 C19 1_555 1_555
C17 C8 1_555 1_555
H8 C17 1_555 1_555
C18 C21 1_555 1_555
C19 C31 1_555 1_555
C20 C5 1_555 1_555
C22 C13 1_555 1_555
H9 C22 1_555 1_555
C23 C3 1_555 1_555
C24 O9 1_555 1_555
C25 C5 1_555 1_555
H10 C25 1_555 1_555
C26 C10 1_555 1_555
H11 C26 1_555 1_555
C27 C10 1_555 1_555
C28 C2 1_555 1_555
H12 C28 1_555 1_555
C29 C14 1_555 1_555
H13 C29 1_555 1_555
C30 C24 1_555 1_555
H14 C30 1_555 1_555
C31 C26 1_555 1_555
H15 C31 1_555 1_555
C32 C12 1_555 1_555
H16 C32 1_555 1_555
C33 H17 1_555 1_555
C34 C11 1_555 1_555
H18 C34 1_555 1_555
C35 C12 1_555 1_555
H19 C35 1_555 1_555
C36 C14 1_555 1_555
H20 C36 1_555 1_555
C37 C24 1_555 1_555
H21 C37 1_555 1_555
C38 C15 1_555 1_555
H22 C38 1_555 1_555
C39 C7 1_555 1_555
H23 C39 1_555 1_555
C40 C7 1_555 1_555
H24 C40 1_555 1_555
C41 C2 1_555 1_555
H25 C41 1_555 1_555
O18 La1 1_555 1_555
N1 H26 1_555 1_555
C42 O18 1_555 1_555
N2 C42 1_555 1_555
H27 N2 1_555 1_555
C43 N1 1_555 1_555
H28 C43 1_555 1_555
H29 C43 1_555 1_555
C44 N2 1_555 1_555
H30 C44 1_555 1_555
H31 C44 1_555 1_555
C45 C8 1_555 1_555
H32 O10 1_555 1_555
La1F O8 1_555 1_555
La1F_2 O11 1_555 1_555
La2A O3 1_555 1_555
La2A_2 O4 1_555 1_555
La2G O7 1_555 1_555
La2F O8 1_555 1_555
O3A La2 1_555 1_555
O4A La2 1_555 1_555
O7G La2 1_555 1_555
O8F La1 1_555 1_555
O11F La1 1_555 1_555
O14F La1 1_555 1_555
O15F La1 1_555 1_555
La2 O8F 1_555 1_555
O6 C1 1_555 1_555
O12 C4 1_555 1_555
O14 La1F 1_555 1_555
C3 C28 1_555 1_555
O15 La1F 1_555 1_555
C9 C23 1_555 1_555
C9 C41 1_555 1_555
C13 C20 1_555 1_555
O16 C27 1_555 1_555
C16 C36 1_555 1_555
C17 C29 1_555 1_555
C18 C22 1_555 1_555
C18 C25 1_555 1_555
C19 C38 1_555 1_555
C30 C39 1_555 1_555
C32 C34 1_555 1_555
C33 C35 1_555 1_555
C37 C40 1_555 1_555
N1 C42 1_555 1_555
C43 C44 1_555 1_555

#END
