
#######################################################################
#
#                 Cambridge Crystallographic Data Centre
#                                CCDC 
#
#######################################################################
#
# If this CIF has been generated from an entry in the Cambridge 
# Structural Database, then it will include bibliographic, chemical, 
# crystal, experimental, refinement or atomic coordinate data resulting 
# from the CCDC's data processing and validation procedures.
#
#######################################################################

data_PELVIN
_symmetry_cell_setting           monoclinic
_symmetry_space_group_name_H-M   'P 21/n'
_symmetry_Int_Tables_number      14
_space_group_name_Hall           '-P 2yn'
loop_
_symmetry_equiv_pos_site_id
_symmetry_equiv_pos_as_xyz
1 x,y,z
2 1/2-x,1/2+y,1/2-z
3 -x,-y,-z
4 1/2+x,1/2-y,1/2+z
_cell_length_a                   8.9134(3)
_cell_length_b                   29.0448(10)
_cell_length_c                   16.6484(5)
_cell_angle_alpha                90
_cell_angle_beta                 91.909(3)
_cell_angle_gamma                90
_cell_volume                     4307.68
loop_
_atom_site_label
_atom_site_type_symbol
_atom_site_fract_x
_atom_site_fract_y
_atom_site_fract_z
Eu1 Eu 0.44486(6) 0.011400(15) -0.14182(3)
Eu2 Eu 0.69263(5) 0.485660(14) 0.06836(3)
O1 O 0.2255(7) 0.4518(2) 0.0232(4)
O2 O 0.7799(8) 0.4424(2) -0.0337(4)
O3 O 0.3245(8) -0.0465(2) -0.2132(4)
O4 O 0.2727(8) -0.0441(2) -0.3447(4)
O5 O 0.1502(8) -0.4428(2) -0.2573(4)
O6 O 0.4639(7) 0.4509(2) 0.0003(3)
O7 O 0.2136(9) 0.0048(3) -0.0856(5)
O8 O 0.4837(8) 0.4973(2) 0.1570(4)
H1 H 0.5155 0.4985 0.2037
H2 H 0.3829 0.4992 0.1350
O9 O 0.4806(8) 0.0472(2) 0.0573(4)
O10 O 1.0337(8) 0.2408(2) -0.0705(5)
C1 C 0.4264(10) 0.1267(3) 0.0521(5)
C2 C 0.9650(12) 0.2008(3) -0.0978(7)
C3 C 0.4387(10) 0.0811(3) 0.0157(5)
O11 O 0.6157(9) -0.0125(2) -0.2483(5)
H3 H 0.6630 -0.0354 -0.2335
H4 H 0.6182 0.0047 -0.2975
C4 C 0.4088(13) 0.2139(3) 0.1199(5)
C5 C 0.2016(11) -0.4123(4) -0.2108(5)
C6 C 0.0506(11) -0.2767(4) -0.2492(6)
C7 C 0.3813(12) 0.2961(3) 0.1218(5)
O12 O -0.0248(9) -0.2333(3) -0.2589(5)
C8 C 0.1067(12) -0.0228(4) -0.0817(7)
O13 O 0.8264(9) 0.0520(2) -0.2312(5)
C9 C 0.7683(10) 0.4175(3) -0.0950(6)
C10 C 0.9691(11) 0.1341(3) -0.1815(6)
H5 H 1.0135 0.1174 -0.2221
C11 C 0.8442(10) 0.1163(3) -0.1455(6)
C12 C 0.8360(9) 0.3699(3) -0.0891(5)
C13 C 0.8540(12) 0.2924(4) -0.1378(6)
H6 H 0.8225 0.2697 -0.1739
C14 C 0.8440(13) 0.1842(4) -0.0605(7)
H7 H 0.8028 0.2011 -0.0193
C15 C 0.4813(11) 0.3098(3) 0.0622(6)
H8 H 0.5527 0.2897 0.0426
C16 C 0.2651(11) 0.3697(3) 0.1188(5)
H9 H 0.1909 0.3894 0.1368
C17 C 0.9594(10) 0.2821(3) -0.0773(6)
C18 C 0.2788(12) 0.3262(3) 0.1493(5)
H10 H 0.2162 0.3171 0.1899
C19 C 0.3452(11) 0.2065(3) 0.0455(6)
H11 H 0.2961 0.2301 0.0175
C20 C 0.1522(10) -0.3642(3) -0.2239(5)
C21 C 0.4800(13) 0.1785(3) 0.1615(6)
H12 H 0.5221 0.1838 0.2125
C22 C 0.3556(11) 0.1637(3) 0.0134(5)
H13 H 0.3127 0.1588 -0.0376
C23 C 0.0074(11) -0.3092(4) -0.3027(6)
H14 H -0.0545 -0.3019 -0.3469
C24 C 1.0003(13) 0.3155(3) -0.0223(7)
H15 H 1.0697 0.3090 0.0191
C25 C 0.2719(11) -0.0636(3) -0.2793(6)
C26 C 0.4674(11) 0.3543(3) 0.0348(6)
H16 H 0.5333 0.3643 -0.0037
C27 C 0.9376(14) 0.3589(4) -0.0290(7)
H17 H 0.9654 0.3813 0.0085
C28 C 1.0279(13) 0.1753(4) -0.1587(7)
H18 H 1.1116 0.1866 -0.1842
C29 C 0.7779(10) 0.0715(3) -0.1698(6)
C30 C 0.1313(13) -0.1825(4) -0.3306(7)
H19 H 0.1329 -0.2031 -0.3733
C31 C 0.0578(12) -0.3538(3) -0.2901(6)
H20 H 0.0287 -0.3770 -0.3259
C32 C 0.0658(11) -0.1940(4) -0.2633(6)
N1 N -0.0135(10) -0.0251(3) -0.1326(6)
H21 H -0.0259 -0.0081 -0.1746
N2 N 0.0945(11) -0.0550(3) -0.0248(5)
H22 H 0.1614 -0.0598 0.0127
C33 C 0.1482(13) -0.1251(4) -0.2014(6)
H23 H 0.1581 -0.1063 -0.1564
O14 O 0.2912(7) -0.4212(2) -0.1538(4)
O15 O 0.9621(7) 0.4786(2) 0.0929(4)
H24 H 0.9813 0.4803 0.1413
H25 H 1.0268 0.4747 0.0485
O16 O 0.6769(7) 0.0547(2) -0.1278(4)
O17 O 0.7082(8) 0.4301(2) -0.1613(4)
O18 O 0.4050(8) 0.0770(2) -0.0580(4)
O19 O 0.3972(9) 0.2547(2) 0.1611(4)
C34 C 0.3624(9) 0.3844(3) 0.0609(5)
C35 C 0.3487(10) 0.4317(3) 0.0280(5)
C36 C 0.2076(11) -0.1107(3) -0.2734(5)
C37 C 0.7961(12) 0.3360(3) -0.1445(6)
H26 H 0.7291 0.3430 -0.1868
C38 C 0.7795(10) 0.1419(3) -0.0832(6)
H27 H 0.6955 0.1309 -0.0576
C39 C -0.0430(12) -0.0805(4) -0.0333(7)
H28 H -0.1042 -0.0765 0.0133
H29 H -0.0237 -0.1130 -0.0408
C40 C 0.1984(13) -0.1389(3) -0.3373(7)
H30 H 0.2365 -0.1296 -0.3860
C41 C 0.4887(13) 0.1358(4) 0.1279(6)
H31 H 0.5375 0.1123 0.1563
C42 C 0.1940(13) -0.3295(4) -0.1710(7)
H32 H 0.2560 -0.3358 -0.1263
C43 C 0.0749(15) -0.1669(4) -0.1954(8)
H33 H 0.0334 -0.1762 -0.1476
C44 C -0.1185(14) -0.0595(5) -0.1080(9)
H34 H -0.1348 -0.0825 -0.1495
H35 H -0.2141 -0.0457 -0.0955
C45 C 0.1422(16) -0.2848(4) -0.1854(8)
H36 H 0.1709 -0.2609 -0.1510
Eu1A Eu 0.05514(6) -0.488600(15) -0.35818(3)
Eu1B Eu 0.55514(6) -0.011400(15) 0.14182(3)
Eu2C Eu 0.19263(5) 0.014340(14) -0.43164(3)
Eu2B Eu 0.30737(5) -0.485660(14) -0.06836(3)
Eu2B_2 Eu 0.30737(5) 0.514340(14) -0.06836(3)
O1B O 0.7745(7) 0.5482(2) -0.0232(4)
O4C O 0.7727(8) 0.5441(2) 0.1553(4)
O5A O 0.3498(8) 0.0572(2) -0.2427(4)
O6B O 0.5361(7) 0.5491(2) -0.0003(3)
O9B O 0.5194(8) -0.0472(2) -0.0573(4)
O14B O 0.7088(7) 0.4212(2) 0.1538(4)
loop_
_geom_bond_atom_site_label_1
_geom_bond_atom_site_label_2
_geom_bond_site_symmetry_1
_geom_bond_site_symmetry_2
Eu1 O3 1_555 1_555
Eu2 O2 1_555 1_555
O1 C35 1_555 1_555
O2 C9 1_555 1_555
O3 C25 1_555 1_555
O4 C25 1_555 1_555
O5 C5 1_555 1_555
O6 Eu2 1_555 1_555
O7 Eu1 1_555 1_555
O8 Eu2 1_555 1_555
H1 O8 1_555 1_555
H2 O8 1_555 1_555
O9 C3 1_555 1_555
O10 C2 1_555 1_555
C1 C3 1_555 1_555
C2 C14 1_555 1_555
C3 O18 1_555 1_555
O11 Eu1 1_555 1_555
H3 O11 1_555 1_555
H4 O11 1_555 1_555
C4 C19 1_555 1_555
C5 C20 1_555 1_555
C6 O12 1_555 1_555
C7 C15 1_555 1_555
O12 C32 1_555 1_555
C8 O7 1_555 1_555
O13 C29 1_555 1_555
C9 C12 1_555 1_555
C10 H5 1_555 1_555
C11 C10 1_555 1_555
C12 C27 1_555 1_555
C13 H6 1_555 1_555
C14 H7 1_555 1_555
C15 H8 1_555 1_555
C16 H9 1_555 1_555
C17 O10 1_555 1_555
C18 C7 1_555 1_555
H10 C18 1_555 1_555
C19 H11 1_555 1_555
C20 C31 1_555 1_555
C21 C4 1_555 1_555
H12 C21 1_555 1_555
C22 C1 1_555 1_555
H13 C22 1_555 1_555
C23 C6 1_555 1_555
H14 C23 1_555 1_555
C24 C17 1_555 1_555
H15 C24 1_555 1_555
C25 C36 1_555 1_555
C26 C15 1_555 1_555
H16 C26 1_555 1_555
C27 C24 1_555 1_555
H17 C27 1_555 1_555
C28 C2 1_555 1_555
H18 C28 1_555 1_555
C29 C11 1_555 1_555
C30 H19 1_555 1_555
C31 C23 1_555 1_555
H20 C31 1_555 1_555
C32 C30 1_555 1_555
N1 C8 1_555 1_555
H21 N1 1_555 1_555
N2 C8 1_555 1_555
H22 N2 1_555 1_555
C33 H23 1_555 1_555
O14 C5 1_555 1_555
O15 Eu2 1_555 1_555
H24 O15 1_555 1_555
H25 O15 1_555 1_555
O16 Eu1 1_555 1_555
O17 C9 1_555 1_555
O18 Eu1 1_555 1_555
O19 C4 1_555 1_555
C34 C16 1_555 1_555
C35 O6 1_555 1_555
C36 C33 1_555 1_555
C37 C12 1_555 1_555
H26 C37 1_555 1_555
C38 C11 1_555 1_555
H27 C38 1_555 1_555
C39 N2 1_555 1_555
H28 C39 1_555 1_555
H29 C39 1_555 1_555
C40 C30 1_555 1_555
H30 C40 1_555 1_555
C41 C1 1_555 1_555
H31 C41 1_555 1_555
C42 C20 1_555 1_555
H32 C42 1_555 1_555
C43 C32 1_555 1_555
H33 C43 1_555 1_555
C44 N1 1_555 1_555
H34 C44 1_555 1_555
H35 C44 1_555 1_555
C45 C6 1_555 1_555
H36 C45 1_555 1_555
Eu1A O5 1_555 1_555
Eu1B O9 1_555 1_555
Eu2C O4 1_555 1_555
Eu2B O14 1_555 1_555
Eu2B_2 O1 1_555 1_555
O1B Eu2 1_555 1_555
O4C Eu2 1_555 1_555
O5A Eu1 1_555 1_555
O6B Eu2 1_555 1_555
O9B Eu1 1_555 1_555
O14B Eu2 1_555 1_555
O6 Eu2B_2 1_555 1_555
C7 O19 1_555 1_555
C10 C28 1_555 1_555
C13 C17 1_555 1_555
C13 C37 1_555 1_555
C14 C38 1_555 1_555
C16 C18 1_555 1_555
C19 C22 1_555 1_555
C21 C41 1_555 1_555
C26 C34 1_555 1_555
C29 O16 1_555 1_555
C33 C43 1_555 1_555
C34 C35 1_555 1_555
C36 C40 1_555 1_555
C39 C44 1_555 1_555
C42 C45 1_555 1_555
Eu2B_2 O6B 1_555 1_555

#END
