
#######################################################################
#
#                 Cambridge Crystallographic Data Centre
#                                CCDC 
#
#######################################################################
#
# If this CIF has been generated from an entry in the Cambridge 
# Structural Database, then it will include bibliographic, chemical, 
# crystal, experimental, refinement or atomic coordinate data resulting 
# from the CCDC's data processing and validation procedures.
#
#######################################################################

data_PELVAF
_symmetry_cell_setting           monoclinic
_symmetry_space_group_name_H-M   'P 21/n'
_symmetry_Int_Tables_number      14
_space_group_name_Hall           '-P 2yn'
loop_
_symmetry_equiv_pos_site_id
_symmetry_equiv_pos_as_xyz
1 x,y,z
2 1/2-x,1/2+y,1/2-z
3 -x,-y,-z
4 1/2+x,1/2-y,1/2+z
_cell_length_a                   8.8868(5)
_cell_length_b                   29.0154(14)
_cell_length_c                   16.6276(12)
_cell_angle_alpha                90
_cell_angle_beta                 91.827(6)
_cell_angle_gamma                90
_cell_volume                     4285.31
loop_
_atom_site_label
_atom_site_type_symbol
_atom_site_fract_x
_atom_site_fract_y
_atom_site_fract_z
Tb1 Tb 0.44442(4) 0.011312(9) 0.357142(18)
Tb2 Tb 0.69183(3) 0.485790(9) 0.568150(17)
O1 O 0.4663(4) 0.45170(12) 0.4994(2)
O2 O 0.2250(5) 0.45253(13) 0.5223(3)
O3 O 0.7797(5) 0.44267(14) 0.4675(3)
C1 C 0.2715(7) -0.0633(2) 0.2212(4)
O4 O 0.3225(6) -0.04605(15) 0.2857(3)
O5 O 0.4077(6) 0.07517(14) 0.4419(3)
O6 O 0.1514(6) -0.44320(14) 0.2413(3)
C2 C 0.2015(7) -0.4133(2) 0.2891(4)
O7 O 0.2904(5) -0.42160(13) 0.3479(3)
O8 O 0.7083(6) 0.42985(15) 0.3392(3)
O9 O 0.2711(5) -0.04371(15) 0.1551(3)
O10 O 0.4797(6) 0.04597(14) 0.5595(3)
C3 C 0.3493(6) 0.43232(19) 0.5263(3)
C4 C 0.3625(6) 0.38468(19) 0.5604(4)
C5 C 0.4383(7) 0.07930(19) 0.5152(4)
C6 C 0.1519(7) -0.3648(2) 0.2751(4)
C7 C 0.2650(7) 0.3705(2) 0.6190(4)
O11 O -0.0244(6) -0.23414(16) 0.2395(4)
O12 O 1.0348(6) 0.24063(14) 0.4291(4)
C8 C 0.9644(8) 0.1998(2) 0.4023(5)
O13 O 0.3958(7) 0.25480(13) 0.6610(3)
C9 C 0.7699(7) 0.4177(2) 0.4042(4)
C10 C 0.4253(7) 0.12632(19) 0.5524(4)
C11 C 0.1474(10) -0.1249(3) 0.2978(5)
H1 H 0.1572 -0.1064 0.3434
C12 C 0.7950(8) 0.3359(2) 0.3561(4)
H2 H 0.7265 0.3426 0.3142
C13 C 0.4094(8) 0.21340(19) 0.6198(4)
C14 C 0.0477(8) -0.2763(2) 0.2501(5)
C15 C 0.9585(8) 0.2825(2) 0.4224(4)
C16 C 0.4847(10) 0.1351(2) 0.6284(5)
C17 C 0.0659(8) -0.1943(2) 0.2379(5)
C18 C 0.0596(9) -0.3540(2) 0.2092(4)
H3 H 0.0306 -0.3771 0.1730
C19 C 0.3446(9) 0.2054(2) 0.5443(4)
C20 C 0.3823(8) 0.29647(19) 0.6219(4)
C21 C 0.3556(7) 0.1625(2) 0.5110(4)
H4 H 0.3155 0.1573 0.4594
C22 C 0.8387(9) 0.1838(2) 0.4395(5)
H5 H 0.7942 0.2011 0.4794
C23 C 0.4767(9) 0.3098(2) 0.5618(5)
C24 C 0.2041(8) -0.1104(2) 0.2274(4)
C25 C 1.0020(9) 0.3158(2) 0.4766(5)
H6 H 1.0736 0.3091 0.5170
C26 C 0.0102(9) -0.3095(2) 0.1965(5)
H7 H -0.0488 -0.3024 0.1510
C27 C 0.9666(8) 0.1337(2) 0.3195(5)
H8 H 1.0096 0.1170 0.2785
C28 C 0.9396(9) 0.3592(2) 0.4714(5)
H9 H 0.9678 0.3814 0.5093
C29 C 0.2775(8) 0.3264(2) 0.6500(4)
H10 H 0.2141 0.3170 0.6903
C30 C 0.1423(10) -0.2853(2) 0.3152(6)
H11 H 0.1719 -0.2619 0.3505
C31 C 0.8364(7) 0.37035(19) 0.4111(4)
C32 C 0.8543(8) 0.2920(2) 0.3628(5)
H12 H 0.8233 0.2691 0.3269
C33 C 0.4693(7) 0.3542(2) 0.5321(4)
H13 H 0.5357 0.3637 0.4933
C34 C 1.0298(9) 0.1754(2) 0.3420(5)
H14 H 1.1144 0.1866 0.3169
C35 C 0.4808(10) 0.1783(2) 0.6617(4)
H15 H 0.5260 0.1839 0.7120
C36 C 0.7793(8) 0.1412(2) 0.4163(4)
H16 H 0.6961 0.1295 0.4419
C37 C 0.1923(9) -0.3300(2) 0.3270(5)
H17 H 0.2550 -0.3365 0.3714
O14 O 0.2173(6) 0.00467(17) 0.4121(4)
O15 O 0.8234(6) 0.05174(16) 0.2684(3)
C38 C 0.8437(7) 0.1163(2) 0.3555(4)
C39 C 0.7761(8) 0.0712(2) 0.3296(4)
C40 C 0.1122(9) -0.0217(3) 0.4176(5)
N1 N -0.0105(8) -0.0240(2) 0.3668(5)
H18 H -0.0224 -0.0073 0.3243
N2 N 0.0946(8) -0.0537(2) 0.4749(4)
H19 H 0.1606 -0.0585 0.5130
C41 C 0.1994(11) -0.1396(2) 0.1636(5)
H20 H 0.2411 -0.1307 0.1154
C42 C 0.1330(11) -0.1828(3) 0.1697(6)
H21 H 0.1350 -0.2034 0.1270
C43 C 0.0749(11) -0.1671(3) 0.3023(6)
H22 H 0.0327 -0.1763 0.3502
C44 C -0.0447(9) -0.0793(3) 0.4672(5)
H23 H -0.1060 -0.0751 0.5138
H24 H -0.0261 -0.1119 0.4596
C45 C -0.1186(10) -0.0578(4) 0.3922(7)
H25 H -0.1368 -0.0808 0.3507
H26 H -0.2133 -0.0433 0.4047
O16 O 0.6735(5) 0.05460(15) 0.3718(3)
O17 O 0.9582(5) 0.47873(16) 0.5930(3)
H27 H 0.9881 0.5002 0.6213
O18 O 0.4851(6) 0.49628(16) 0.6560(3)
H28 H 0.4762 0.5237 0.6665
O19 O 0.6108(7) -0.0126(2) 0.2515(4)
H29 H 0.6676 0.0086 0.2408
H30 H 1.037(4) 0.4765(19) 0.569(3)
H31 H 0.399(7) 0.508(4) 0.642(8)
H32 H 0.670(7) -0.029(2) 0.281(4)
H33 H 0.525(8) 0.115(2) 0.658(5)
H34 H 0.200(6) 0.3890(17) 0.641(3)
H35 H 0.292(7) 0.226(2) 0.516(4)
H36 H 0.544(7) 0.293(2) 0.550(4)
Tb1A Tb 0.05558(4) -0.488688(9) 0.142858(18)
Tb1B Tb 0.55558(4) -0.011312(9) 0.642858(18)
Tb2B Tb 0.30817(3) 0.514210(9) 0.431850(17)
Tb2B_2 Tb 0.30817(3) -0.485790(9) 0.431850(17)
Tb2C Tb 0.19183(3) 0.014210(9) 0.068150(17)
O1B O 0.5337(4) 0.54830(12) 0.5006(2)
O2B O 0.7750(5) 0.54747(13) 0.4777(3)
O6A O 0.3486(6) 0.05680(14) 0.2587(3)
O7B O 0.7096(5) 0.42160(13) 0.6521(3)
O9C O 0.7711(5) 0.54371(15) 0.6551(3)
O10B O 0.5203(6) -0.04597(14) 0.4405(3)
loop_
_geom_bond_atom_site_label_1
_geom_bond_atom_site_label_2
_geom_bond_site_symmetry_1
_geom_bond_site_symmetry_2
Tb1 O4 1_555 1_555
Tb2 O1 1_555 1_555
O1 C3 1_555 1_555
O2 C3 1_555 1_555
O3 Tb2 1_555 1_555
C1 O4 1_555 1_555
O5 Tb1 1_555 1_555
O6 C2 1_555 1_555
C2 O7 1_555 1_555
O7 Tb2B_2 1_555 1_555
O8 C9 1_555 1_555
O9 C1 1_555 1_555
O10 C5 1_555 1_555
C3 C4 1_555 1_555
C4 C7 1_555 1_555
C5 O5 1_555 1_555
C6 C2 1_555 1_555
C7 C29 1_555 1_555
O11 C14 1_555 1_555
O12 C8 1_555 1_555
C8 C22 1_555 1_555
O13 C13 1_555 1_555
C9 O3 1_555 1_555
C10 C5 1_555 1_555
C11 H1 1_555 1_555
C12 H2 1_555 1_555
C13 C19 1_555 1_555
C14 C26 1_555 1_555
C15 O12 1_555 1_555
C16 C10 1_555 1_555
C17 O11 1_555 1_555
C18 C6 1_555 1_555
H3 C18 1_555 1_555
C19 C21 1_555 1_555
C20 O13 1_555 1_555
C21 C10 1_555 1_555
H4 C21 1_555 1_555
C22 H5 1_555 1_555
C23 C20 1_555 1_555
C24 C1 1_555 1_555
C25 C15 1_555 1_555
H6 C25 1_555 1_555
C26 C18 1_555 1_555
H7 C26 1_555 1_555
C27 H8 1_555 1_555
C28 C25 1_555 1_555
H9 C28 1_555 1_555
C29 C20 1_555 1_555
H10 C29 1_555 1_555
C30 C14 1_555 1_555
H11 C30 1_555 1_555
C31 C9 1_555 1_555
C32 C12 1_555 1_555
H12 C32 1_555 1_555
C33 C4 1_555 1_555
H13 C33 1_555 1_555
C34 C8 1_555 1_555
H14 C34 1_555 1_555
C35 C13 1_555 1_555
H15 C35 1_555 1_555
C36 C22 1_555 1_555
H16 C36 1_555 1_555
C37 C6 1_555 1_555
H17 C37 1_555 1_555
O14 Tb1 1_555 1_555
O15 C39 1_555 1_555
C38 C27 1_555 1_555
C39 C38 1_555 1_555
C40 O14 1_555 1_555
N1 C40 1_555 1_555
H18 N1 1_555 1_555
N2 C40 1_555 1_555
H19 N2 1_555 1_555
C41 C24 1_555 1_555
H20 C41 1_555 1_555
C42 C17 1_555 1_555
H21 C42 1_555 1_555
C43 C11 1_555 1_555
H22 C43 1_555 1_555
C44 N2 1_555 1_555
H23 C44 1_555 1_555
H24 C44 1_555 1_555
C45 N1 1_555 1_555
H25 C45 1_555 1_555
H26 C45 1_555 1_555
O16 Tb1 1_555 1_555
O17 Tb2 1_555 1_555
H27 O17 1_555 1_555
O18 Tb2 1_555 1_555
H28 O18 1_555 1_555
O19 Tb1 1_555 1_555
H29 O19 1_555 1_555
H30 O17 1_555 1_555
H31 O18 1_555 1_555
H32 O19 1_555 1_555
H33 C16 1_555 1_555
H34 C7 1_555 1_555
H35 C19 1_555 1_555
H36 C23 1_555 1_555
Tb1A O6 1_555 1_555
Tb1B O10 1_555 1_555
Tb2B O1 1_555 1_555
Tb2C O9 1_555 1_555
O1B Tb2 1_555 1_555
O2B Tb2 1_555 1_555
O6A Tb1 1_555 1_555
O7B Tb2 1_555 1_555
O9C Tb2 1_555 1_555
O10B Tb1 1_555 1_555
O2 Tb2B 1_555 1_555
C11 C24 1_555 1_555
C12 C31 1_555 1_555
C15 C32 1_555 1_555
C16 C35 1_555 1_555
C17 C43 1_555 1_555
C23 C33 1_555 1_555
C27 C34 1_555 1_555
C28 C31 1_555 1_555
C30 C37 1_555 1_555
C36 C38 1_555 1_555
C39 O16 1_555 1_555
C41 C42 1_555 1_555
C44 C45 1_555 1_555
Tb2B O1B 1_555 1_555

#END
