
#######################################################################
#
#                 Cambridge Crystallographic Data Centre
#                                CCDC 
#
#######################################################################
#
# If this CIF has been generated from an entry in the Cambridge 
# Structural Database, then it will include bibliographic, chemical, 
# crystal, experimental, refinement or atomic coordinate data resulting 
# from the CCDC's data processing and validation procedures.
#
#######################################################################

data_PELVEJ
_symmetry_cell_setting           monoclinic
_symmetry_space_group_name_H-M   'P 21/n'
_symmetry_Int_Tables_number      14
_space_group_name_Hall           '-P 2yn'
loop_
_symmetry_equiv_pos_site_id
_symmetry_equiv_pos_as_xyz
1 x,y,z
2 1/2-x,1/2+y,1/2-z
3 -x,-y,-z
4 1/2+x,1/2-y,1/2+z
_cell_length_a                   8.8980(4)
_cell_length_b                   28.9894(12)
_cell_length_c                   16.6177(6)
_cell_angle_alpha                90
_cell_angle_beta                 91.950(4)
_cell_angle_gamma                90
_cell_volume                     4284.01
loop_
_atom_site_label
_atom_site_type_symbol
_atom_site_fract_x
_atom_site_fract_y
_atom_site_fract_z
Dy1 Dy -0.05530(7) 0.01133(2) -0.14165(3)
Dy2 Dy 0.19268(7) 0.48566(2) 0.06843(3)
O1 O -0.0360(9) 0.4511(3) -0.0007(4)
O2 O -0.1774(10) -0.0466(3) -0.2133(5)
O3 O 0.2804(9) 0.4419(3) -0.0339(5)
O4 O -0.2759(9) 0.4518(3) 0.0225(4)
O5 O -0.0156(10) 0.4974(3) 0.1580(5)
H1 H -0.0929 0.4866 0.1373
H2 H 0.0009 0.5127 0.2089
O6 O -0.2864(11) 0.0050(3) -0.0850(6)
O7 O 0.1160(10) -0.0125(4) -0.2477(5)
H3 H 0.0766 -0.0331 -0.2748
H4 H 0.2122 0.0021 -0.2524
O8 O 0.5345(10) 0.2415(3) -0.0710(6)
C1 C -0.2975(13) -0.4120(5) -0.2111(7)
C2 C -0.0735(13) 0.1267(4) 0.0502(6)
C3 C 0.4671(15) 0.2014(5) -0.0986(9)
C4 C -0.0879(16) 0.2140(5) 0.1206(7)
C5 C 0.3447(13) 0.1160(5) -0.1448(6)
C6 C -0.1177(14) 0.2962(5) 0.1212(7)
C7 C -0.2297(14) -0.0637(5) -0.2782(8)
C8 C -0.3930(17) -0.0224(6) -0.0814(8)
C9 C 0.4625(14) 0.2825(5) -0.0767(8)
C10 C -0.1512(13) 0.4310(4) 0.0273(6)
C11 C 0.4374(16) 0.3592(5) -0.0286(8)
H5 H 0.4634 0.3813 0.0100
C12 C -0.3482(13) -0.3650(5) -0.2253(6)
C13 C 0.2980(14) 0.3354(5) -0.1440(7)
H6 H 0.2293 0.3417 -0.1860
C14 C -0.6221(17) -0.0578(6) -0.1048(11)
H7 H -0.6437 -0.0809 -0.1457
H8 H -0.7149 -0.0428 -0.0906
C15 C 0.4677(15) 0.1336(5) -0.1802(7)
H9 H 0.5120 0.1170 -0.2210
C16 C -0.2935(13) -0.1102(5) -0.2736(7)
N1 N -0.5129(14) -0.0248(5) -0.1311(7)
H10 H -0.5241 -0.0086 -0.1742
C17 C -0.1422(14) 0.1625(5) 0.0120(7)
H11 H -0.1836 0.1577 -0.0394
C18 C -0.3515(16) -0.1260(5) -0.2037(7)
H12 H -0.3391 -0.1079 -0.1577
C19 C 0.3433(16) 0.1842(6) -0.0614(8)
H13 H 0.3005 0.2011 -0.0205
C20 C -0.0636(14) 0.0808(5) 0.0157(7)
C21 C 0.3581(15) 0.2929(6) -0.1371(8)
H14 H 0.3285 0.2701 -0.1737
C22 C -0.2357(14) 0.3690(5) 0.1169(7)
H15 H -0.3118 0.3885 0.1334
C23 C -0.1538(15) 0.2056(5) 0.0453(7)
H16 H -0.2054 0.2289 0.0176
C24 C -0.0206(16) 0.1785(5) 0.1603(7)
H17 H 0.0208 0.1834 0.2118
C25 C -0.0202(14) 0.3101(4) 0.0622(6)
H18 H 0.0521 0.2901 0.0433
C26 C -0.2216(15) 0.3266(5) 0.1487(6)
H19 H -0.2835 0.3177 0.1899
C27 C -0.0118(14) 0.1356(5) 0.1271(7)
H20 H 0.0360 0.1120 0.1560
C28 C 0.2707(14) 0.4166(5) -0.0962(8)
C29 C -0.0333(13) 0.3539(5) 0.0328(7)
H21 H 0.0310 0.3635 -0.0069
N2 N -0.4054(13) -0.0534(5) -0.0251(7)
H22 H -0.3380 -0.0582 0.0122
C30 C 0.5277(14) 0.1753(5) -0.1570(8)
H23 H 0.6127 0.1861 -0.1822
C31 C -0.5427(17) -0.0783(6) -0.0324(8)
H24 H -0.6014 -0.0744 0.0153
H25 H -0.5240 -0.1109 -0.0403
C32 C 0.3374(12) 0.3701(5) -0.0893(6)
O9 O -0.5250(13) -0.2335(5) -0.2591(6)
C33 C -0.4498(16) -0.2770(6) -0.2516(8)
C34 C -0.4943(14) -0.3098(5) -0.3029(7)
H26 H -0.5587 -0.3030 -0.3465
C35 C -0.3632(18) -0.2862(7) -0.1849(10)
H27 H -0.3432 -0.2631 -0.1473
C36 C -0.4340(16) -0.1941(6) -0.2639(8)
O10 O -0.2273(9) -0.0446(3) -0.3450(5)
O11 O -0.0191(9) 0.0467(3) 0.0573(5)
O12 O 0.1747(10) 0.0545(3) -0.1267(5)
O13 O -0.2092(9) -0.4210(3) -0.1527(5)
O14 O -0.0964(10) 0.0768(3) -0.0586(4)
O15 O 0.2100(10) 0.4299(3) -0.1611(5)
O16 O 0.4607(8) 0.4787(3) 0.0939(5)
H28 H 0.4923 0.4562 0.0696
H29 H 0.5120 0.5009 0.1276
O17 O -0.3500(10) -0.4424(3) -0.2580(5)
O18 O -0.1037(12) 0.2547(3) 0.1614(4)
O19 O 0.3248(9) 0.0525(3) -0.2307(5)
C37 C -0.1367(12) 0.3837(4) 0.0596(5)
C38 C 0.2802(15) 0.1413(5) -0.0843(7)
H30 H 0.1959 0.1301 -0.0591
C39 C 0.2737(15) 0.0711(5) -0.1687(7)
C40 C 0.4997(16) 0.3165(6) -0.0233(8)
H31 H 0.5700 0.3103 0.0181
C41 C -0.2999(17) -0.1403(5) -0.3386(7)
H32 H -0.2579 -0.1322 -0.3871
C42 C -0.4433(16) -0.3537(5) -0.2900(7)
H33 H -0.4735 -0.3767 -0.3259
C43 C -0.3051(16) -0.3295(6) -0.1728(8)
H34 H -0.2376 -0.3352 -0.1300
C44 C -0.4273(18) -0.1673(7) -0.1977(9)
H35 H -0.4717 -0.1762 -0.1502
C45 C -0.3689(16) -0.1821(6) -0.3305(8)
H36 H -0.3698 -0.2027 -0.3734
Dy1B Dy 0.05530(7) -0.01133(2) 0.14165(3)
Dy1A Dy -0.44470(7) -0.48867(2) -0.35835(3)
Dy2B Dy -0.19268(7) -0.48566(2) -0.06843(3)
Dy2C Dy -0.30732(7) 0.01434(2) -0.43157(3)
Dy2B_2 Dy -0.19268(7) 0.51434(2) -0.06843(3)
O1B O 0.0360(9) 0.5489(3) 0.0007(4)
O4B O 0.2759(9) 0.5482(3) -0.0225(4)
O10C O 0.2727(9) 0.5446(3) 0.1550(5)
O11B O 0.0191(9) -0.0467(3) -0.0573(5)
O13B O 0.2092(9) 0.4210(3) 0.1527(5)
O17A O -0.1500(10) 0.0576(3) -0.2420(5)
loop_
_geom_bond_atom_site_label_1
_geom_bond_atom_site_label_2
_geom_bond_site_symmetry_1
_geom_bond_site_symmetry_2
Dy1 O2 1_555 1_555
Dy2 O1 1_555 1_555
O1 C10 1_555 1_555
O2 C7 1_555 1_555
O3 Dy2 1_555 1_555
O4 C10 1_555 1_555
O5 Dy2 1_555 1_555
H1 O5 1_555 1_555
H2 O5 1_555 1_555
O6 Dy1 1_555 1_555
O7 Dy1 1_555 1_555
H3 O7 1_555 1_555
H4 O7 1_555 1_555
O8 C3 1_555 1_555
C1 C12 1_555 1_555
C2 C17 1_555 1_555
C3 C19 1_555 1_555
C4 C23 1_555 1_555
C5 C15 1_555 1_555
C6 C25 1_555 1_555
C7 C16 1_555 1_555
C8 O6 1_555 1_555
C9 O8 1_555 1_555
C10 C37 1_555 1_555
C11 H5 1_555 1_555
C12 C42 1_555 1_555
C13 H6 1_555 1_555
C14 H7 1_555 1_555
H8 C14 1_555 1_555
C15 H9 1_555 1_555
C16 C18 1_555 1_555
N1 C8 1_555 1_555
H10 N1 1_555 1_555
C17 H11 1_555 1_555
C18 H12 1_555 1_555
C19 H13 1_555 1_555
C20 C2 1_555 1_555
C21 C9 1_555 1_555
H14 C21 1_555 1_555
C22 H15 1_555 1_555
C23 C17 1_555 1_555
H16 C23 1_555 1_555
C24 C4 1_555 1_555
H17 C24 1_555 1_555
C25 H18 1_555 1_555
C26 C6 1_555 1_555
H19 C26 1_555 1_555
C27 C2 1_555 1_555
H20 C27 1_555 1_555
C28 O3 1_555 1_555
C29 C25 1_555 1_555
H21 C29 1_555 1_555
N2 C8 1_555 1_555
H22 N2 1_555 1_555
C30 C3 1_555 1_555
H23 C30 1_555 1_555
C31 C14 1_555 1_555
H24 C31 1_555 1_555
H25 C31 1_555 1_555
C32 C11 1_555 1_555
O9 C33 1_555 1_555
C33 C34 1_555 1_555
C34 H26 1_555 1_555
C35 C33 1_555 1_555
H27 C35 1_555 1_555
C36 O9 1_555 1_555
O10 C7 1_555 1_555
O11 C20 1_555 1_555
O12 Dy1 1_555 1_555
O13 C1 1_555 1_555
O14 Dy1 1_555 1_555
O15 C28 1_555 1_555
O16 Dy2 1_555 1_555
H28 O16 1_555 1_555
H29 O16 1_555 1_555
O17 C1 1_555 1_555
O18 C4 1_555 1_555
O19 C39 1_555 1_555
C37 C22 1_555 1_555
C38 C5 1_555 1_555
H30 C38 1_555 1_555
C39 C5 1_555 1_555
C40 C9 1_555 1_555
H31 C40 1_555 1_555
C41 C16 1_555 1_555
H32 C41 1_555 1_555
C42 C34 1_555 1_555
H33 C42 1_555 1_555
C43 C12 1_555 1_555
H34 C43 1_555 1_555
C44 C18 1_555 1_555
H35 C44 1_555 1_555
C45 C36 1_555 1_555
H36 C45 1_555 1_555
Dy1B O11 1_555 1_555
Dy1A O17 1_555 1_555
Dy2B O13 1_555 1_555
Dy2C O10 1_555 1_555
Dy2B_2 O1 1_555 1_555
O1B Dy2 1_555 1_555
O4B Dy2 1_555 1_555
O10C Dy2 1_555 1_555
O11B Dy1 1_555 1_555
O13B Dy2 1_555 1_555
O17A Dy1 1_555 1_555
O4 Dy2B_2 1_555 1_555
C6 O18 1_555 1_555
C11 C40 1_555 1_555
C13 C21 1_555 1_555
C13 C32 1_555 1_555
C14 N1 1_555 1_555
C15 C30 1_555 1_555
C19 C38 1_555 1_555
C20 O14 1_555 1_555
C22 C26 1_555 1_555
C24 C27 1_555 1_555
C28 C32 1_555 1_555
C29 C37 1_555 1_555
N2 C31 1_555 1_555
C35 C43 1_555 1_555
C36 C44 1_555 1_555
O12 C39 1_555 1_555
C41 C45 1_555 1_555
Dy2B_2 O1B 1_555 1_555

#END
