
#######################################################################
#
#                 Cambridge Crystallographic Data Centre
#                                CCDC 
#
#######################################################################
#
# If this CIF has been generated from an entry in the Cambridge 
# Structural Database, then it will include bibliographic, chemical, 
# crystal, experimental, refinement or atomic coordinate data resulting 
# from the CCDC's data processing and validation procedures.
#
#######################################################################

data_PELWIO
_symmetry_cell_setting           triclinic
_symmetry_space_group_name_H-M   'P -1'
_symmetry_Int_Tables_number      2
_space_group_name_Hall           '-P 1'
loop_
_symmetry_equiv_pos_site_id
_symmetry_equiv_pos_as_xyz
1 x,y,z
2 -x,-y,-z
_cell_length_a                   8.4133(17)
_cell_length_b                   9.7073(19)
_cell_length_c                   11.035(2)
_cell_angle_alpha                81.28(3)
_cell_angle_beta                 87.91(3)
_cell_angle_gamma                75.48(3)
_cell_volume                     862.362
loop_
_atom_site_label
_atom_site_type_symbol
_atom_site_fract_x
_atom_site_fract_y
_atom_site_fract_z
Cd1 Cd 0.25071(3) 0.47039(2) 0.51039(2)
S1 S 0.57441(11) 0.06021(9) 0.77555(9)
S2 S -0.15478(12) 0.87115(13) 1.05263(10)
N1 N 0.3785(3) 0.2636(3) 0.6321(3)
N2 N 0.5484(4) 0.3433(4) 0.7550(3)
O1 O 0.0236(4) 0.4681(3) 0.6322(3)
N3 N 0.1463(4) 0.7329(4) 1.1070(3)
N4 N 0.0239(6) 0.8871(5) 1.2454(3)
O2 O 0.4118(4) -0.3936(3) 0.5973(3)
O3 O 0.1954(3) -0.2851(3) 0.4837(3)
O4 O -0.2251(3) 0.5943(3) 0.6699(2)
C1 C -0.0733(5) 0.5507(4) 0.6945(3)
C2 C -0.0106(4) 0.6021(4) 0.7997(3)
C3 C 0.1491(4) 0.5400(4) 0.8421(4)
H1 H 0.2166 0.4690 0.8025
C4 C 0.2091(5) 0.5820(5) 0.9420(4)
H2 H 0.3163 0.5405 0.9688
C5 C 0.1073(4) 0.6868(4) 1.0017(3)
C6 C -0.0534(4) 0.7500(4) 0.9573(3)
C7 C -0.1120(5) 0.7080(4) 0.8573(3)
H3 H -0.2184 0.7505 0.8290
C8 C 0.0219(5) 0.8255(4) 1.1439(3)
C9 C 0.3216(4) -0.1370(3) 0.5785(3)
C10 C 0.2203(4) -0.0136(4) 0.5140(3)
H4 H 0.1439 -0.0228 0.4589
C11 C 0.2310(4) 0.1229(4) 0.5302(3)
H5 H 0.1618 0.2045 0.4874
C12 C 0.3471(4) 0.1351(3) 0.6116(3)
C13 C 0.4442(4) 0.0106(4) 0.6795(3)
C14 C 0.4337(4) -0.1259(4) 0.6644(3)
H6 H 0.4992 -0.2075 0.7099
C15 C 0.4932(4) 0.2420(3) 0.7149(3)
C16 C 0.3084(4) -0.2803(4) 0.5528(3)
H7 H 0.635(5) 0.324(5) 0.795(4)
H8 H 0.517(6) 0.421(5) 0.720(4)
H9 H 0.091(7) 0.839(6) 1.306(5)
H10 H -0.062(7) 0.932(6) 1.260(5)
Cd1_2 Cd 0.25071(3) -0.52961(2) 0.51039(2)
Cd1A Cd -0.25071(3) 0.52961(2) 0.48961(2)
O2_2 O 0.4118(4) 0.6064(3) 0.5973(3)
O3_2 O 0.1954(3) 0.7149(3) 0.4837(3)
O4A O 0.2251(3) 0.4057(3) 0.3301(2)
loop_
_geom_bond_atom_site_label_1
_geom_bond_atom_site_label_2
_geom_bond_site_symmetry_1
_geom_bond_site_symmetry_2
Cd1 N1 1_555 1_555
S1 C13 1_555 1_555
S2 C6 1_555 1_555
N1 C12 1_555 1_555
N2 C15 1_555 1_555
O1 Cd1 1_555 1_555
N3 C5 1_555 1_555
N4 C8 1_555 1_555
O2 C16 1_555 1_555
O3 C16 1_555 1_555
O4 C1 1_555 1_555
C1 O1 1_555 1_555
C2 C1 1_555 1_555
C3 C2 1_555 1_555
H1 C3 1_555 1_555
C4 C3 1_555 1_555
H2 C4 1_555 1_555
C5 C4 1_555 1_555
C6 C5 1_555 1_555
C7 C2 1_555 1_555
H3 C7 1_555 1_555
C8 S2 1_555 1_555
C9 C10 1_555 1_555
C10 H4 1_555 1_555
C11 C10 1_555 1_555
H5 C11 1_555 1_555
C12 C11 1_555 1_555
C13 C12 1_555 1_555
C14 C9 1_555 1_555
H6 C14 1_555 1_555
C15 S1 1_555 1_555
C16 C9 1_555 1_555
H7 N2 1_555 1_555
H8 N2 1_555 1_555
H9 N4 1_555 1_555
H10 N4 1_555 1_555
Cd1_2 O2 1_555 1_555
Cd1A O4 1_555 1_555
O2_2 Cd1 1_555 1_555
O3_2 Cd1 1_555 1_555
O4A Cd1 1_555 1_555
N1 C15 1_555 1_555
N3 C8 1_555 1_555
O3 Cd1_2 1_555 1_555
C6 C7 1_555 1_555
C13 C14 1_555 1_555

#END
