
#######################################################################
#
#                 Cambridge Crystallographic Data Centre
#                                CCDC 
#
#######################################################################
#
# If this CIF has been generated from an entry in the Cambridge 
# Structural Database, then it will include bibliographic, chemical, 
# crystal, experimental, refinement or atomic coordinate data resulting 
# from the CCDC's data processing and validation procedures.
#
#######################################################################

data_PELWUZ
_symmetry_cell_setting           monoclinic
_symmetry_space_group_name_H-M   'P 21/c'
_symmetry_Int_Tables_number      14
_space_group_name_Hall           '-P 2ybc'
loop_
_symmetry_equiv_pos_site_id
_symmetry_equiv_pos_as_xyz
1 x,y,z
2 -x,1/2+y,1/2-z
3 -x,-y,-z
4 x,1/2-y,1/2+z
_cell_length_a                   17.2481(10)
_cell_length_b                   20.6393(12)
_cell_length_c                   11.5549(6)
_cell_angle_alpha                90
_cell_angle_beta                 101.1670(10)
_cell_angle_gamma                90
_cell_volume                     4035.53
loop_
_atom_site_label
_atom_site_type_symbol
_atom_site_fract_x
_atom_site_fract_y
_atom_site_fract_z
Pb1 Pb 0.108557(13) 0.518681(14) 0.94389(2)
Pb2 Pb 0.386656(14) 0.515049(14) 1.07443(2)
O1 O 0.2554(3) 0.5743(3) 0.9349(5)
O2 O 0.1425(3) 0.6019(2) 0.8222(4)
O3 O -0.0010(3) 0.5868(3) 0.9983(4)
O4 O 0.1150(3) 0.6176(3) 1.0952(5)
O5 O 0.5111(3) 0.5739(3) 0.9839(5)
O6 O 0.4470(3) 0.6238(3) 1.1046(4)
O7 O 0.3359(4) 0.4184(3) 1.2130(5)
O8 O 0.2446(3) 0.4462(4) 1.0717(6)
O9 O 0.2237(4) 0.3695(4) 1.1844(7)
N1 N 0.1413(3) 0.4462(3) 0.7685(5)
N2 N -0.0022(3) 0.5059(3) 0.7596(5)
N3 N 0.3517(3) 0.5647(3) 1.2504(5)
N4 N 0.4975(4) 0.5128(3) 1.2490(5)
N5 N 0.2666(4) 0.4115(4) 1.1589(7)
C1 C 0.2097(5) 0.4177(4) 0.7717(7)
H1 H 0.2512 0.4287 0.8328
C2 C 0.2243(5) 0.3719(4) 0.6895(8)
H2 H 0.2735 0.3524 0.6955
C3 C 0.1633(6) 0.3572(4) 0.6004(7)
H3 H 0.1708 0.3269 0.5441
C4 C 0.0896(5) 0.3864(4) 0.5911(6)
C5 C 0.0237(6) 0.3747(5) 0.4966(7)
H4 H 0.0289 0.3444 0.4390
C6 C -0.0438(6) 0.4055(4) 0.4892(7)
H5 H -0.0844 0.3978 0.4250
C7 C -0.0561(5) 0.4503(4) 0.5769(6)
C8 C -0.1261(5) 0.4841(5) 0.5729(7)
H6 H -0.1679 0.4773 0.5100
C9 C -0.1349(4) 0.5271(4) 0.6595(7)
H7 H -0.1819 0.5495 0.6571
C10 C -0.0701(4) 0.5360(4) 0.7520(6)
H8 H -0.0754 0.5649 0.8116
C11 C 0.0062(4) 0.4634(3) 0.6732(5)
C12 C 0.0808(4) 0.4316(4) 0.6787(6)
C13 C 0.2158(4) 0.6083(4) 0.8565(7)
C14 C 0.2565(4) 0.6596(3) 0.7982(6)
C15 C 0.3361(4) 0.6723(4) 0.8363(7)
H9 H 0.3646 0.6487 0.8990
C16 C 0.3736(5) 0.7188(4) 0.7839(8)
H10 H 0.4274 0.7261 0.8105
C17 C 0.3329(5) 0.7551(4) 0.6919(8)
H11 H 0.3589 0.7867 0.6565
C18 C 0.2539(5) 0.7444(4) 0.6531(7)
H12 H 0.2259 0.7686 0.5909
C19 C 0.2156(4) 0.6970(4) 0.7070(6)
H13 H 0.1617 0.6904 0.6814
C20 C 0.0419(4) 0.6230(4) 1.0718(6)
C21 C 0.0024(4) 0.6737(3) 1.1342(6)
C22 C -0.0783(4) 0.6849(4) 1.1028(7)
H14 H -0.1091 0.6622 1.0409
C23 C -0.1119(5) 0.7305(4) 1.1653(9)
H15 H -0.1662 0.7372 1.1460
C24 C -0.0684(7) 0.7662(5) 1.2544(9)
H16 H -0.0923 0.7972 1.2943
C25 C 0.0107(6) 0.7552(4) 1.2834(8)
H17 H 0.0413 0.7790 1.3439
C26 C 0.0460(5) 0.7096(4) 1.2250(7)
H18 H 0.1002 0.7027 1.2466
C27 C 0.2815(5) 0.5882(4) 1.2526(7)
H19 H 0.2415 0.5818 1.1871
C28 C 0.2641(5) 0.6219(4) 1.3476(8)
H20 H 0.2126 0.6352 1.3475
C29 C 0.3223(6) 0.6355(4) 1.4407(8)
H21 H 0.3117 0.6596 1.5038
C30 C 0.3997(5) 0.6128(4) 1.4408(7)
C31 C 0.4672(6) 0.6237(5) 1.5371(7)
H22 H 0.4605 0.6482 1.6020
C32 C 0.5374(6) 0.5995(5) 1.5336(8)
H23 H 0.5793 0.6080 1.5954
C33 C 0.5505(5) 0.5610(4) 1.4388(7)
C34 C 0.6236(5) 0.5348(5) 1.4333(8)
H24 H 0.6665 0.5427 1.4940
C35 C 0.6329(5) 0.4984(5) 1.3415(9)
H25 H 0.6818 0.4803 1.3384
C36 C 0.5682(5) 0.4877(4) 1.2502(8)
H26 H 0.5752 0.4617 1.1872
C37 C 0.4884(4) 0.5490(4) 1.3432(6)
C38 C 0.4113(4) 0.5762(4) 1.3449(6)
C39 C 0.5036(4) 0.6207(4) 1.0506(7)
C40 C 0.5629(4) 0.6734(4) 1.0700(6)
C41 C 0.6135(5) 0.6814(4) 0.9951(7)
H27 H 0.6113 0.6533 0.9317
C42 C 0.6687(5) 0.7313(5) 1.0118(9)
H28 H 0.7027 0.7370 0.9592
C43 C 0.6725(5) 0.7716(4) 1.1052(9)
H29 H 0.7094 0.8050 1.1166
C44 C 0.6235(5) 0.7638(4) 1.1817(8)
H30 H 0.6271 0.7914 1.2462
C45 C 0.5680(4) 0.7151(4) 1.1645(7)
H31 H 0.5338 0.7103 1.2170
Pb1B Pb -0.108557(13) 0.481319(14) 1.05611(2)
Pb2B Pb 0.613344(14) 0.484951(14) 0.92557(2)
O3B O 0.0010(3) 0.4132(3) 1.0017(4)
O5B O 0.4889(3) 0.4261(3) 1.0161(5)
loop_
_geom_bond_atom_site_label_1
_geom_bond_atom_site_label_2
_geom_bond_site_symmetry_1
_geom_bond_site_symmetry_2
Pb1 O1 1_555 1_555
Pb2 O1 1_555 1_555
O1 C13 1_555 1_555
O2 Pb1 1_555 1_555
O3 Pb1 1_555 1_555
O4 Pb1 1_555 1_555
O5 Pb2 1_555 1_555
O6 Pb2 1_555 1_555
O7 Pb2 1_555 1_555
O8 Pb1 1_555 1_555
O9 N5 1_555 1_555
N1 Pb1 1_555 1_555
N2 Pb1 1_555 1_555
N3 Pb2 1_555 1_555
N4 Pb2 1_555 1_555
N5 O7 1_555 1_555
C1 N1 1_555 1_555
H1 C1 1_555 1_555
C2 C1 1_555 1_555
H2 C2 1_555 1_555
C3 C2 1_555 1_555
H3 C3 1_555 1_555
C4 C3 1_555 1_555
C5 C4 1_555 1_555
H4 C5 1_555 1_555
C6 C5 1_555 1_555
H5 C6 1_555 1_555
C7 C6 1_555 1_555
C8 C7 1_555 1_555
H6 C8 1_555 1_555
C9 C8 1_555 1_555
H7 C9 1_555 1_555
C10 N2 1_555 1_555
H8 C10 1_555 1_555
C11 N2 1_555 1_555
C12 N1 1_555 1_555
C13 O2 1_555 1_555
C14 C13 1_555 1_555
C15 C14 1_555 1_555
H9 C15 1_555 1_555
C16 C15 1_555 1_555
H10 C16 1_555 1_555
C17 C16 1_555 1_555
H11 C17 1_555 1_555
C18 C17 1_555 1_555
H12 C18 1_555 1_555
C19 C14 1_555 1_555
H13 C19 1_555 1_555
C20 O3 1_555 1_555
C21 C20 1_555 1_555
C22 C21 1_555 1_555
H14 C22 1_555 1_555
C23 C22 1_555 1_555
H15 C23 1_555 1_555
C24 C23 1_555 1_555
H16 C24 1_555 1_555
C25 C24 1_555 1_555
H17 C25 1_555 1_555
C26 C21 1_555 1_555
H18 C26 1_555 1_555
C27 N3 1_555 1_555
H19 C27 1_555 1_555
C28 C27 1_555 1_555
H20 C28 1_555 1_555
C29 C28 1_555 1_555
H21 C29 1_555 1_555
C30 C29 1_555 1_555
C31 C30 1_555 1_555
H22 C31 1_555 1_555
C32 C31 1_555 1_555
H23 C32 1_555 1_555
C33 C32 1_555 1_555
C34 C33 1_555 1_555
H24 C34 1_555 1_555
C35 C34 1_555 1_555
H25 C35 1_555 1_555
C36 N4 1_555 1_555
H26 C36 1_555 1_555
C37 N4 1_555 1_555
C38 N3 1_555 1_555
C39 O5 1_555 1_555
C40 C39 1_555 1_555
C41 C40 1_555 1_555
H27 C41 1_555 1_555
C42 C41 1_555 1_555
H28 C42 1_555 1_555
C43 C42 1_555 1_555
H29 C43 1_555 1_555
C44 C43 1_555 1_555
H30 C44 1_555 1_555
C45 C40 1_555 1_555
H31 C45 1_555 1_555
Pb1B O3 1_555 1_555
Pb2B O5 1_555 1_555
O3B Pb1 1_555 1_555
O5B Pb2 1_555 1_555
Pb2 O8 1_555 1_555
O4 C20 1_555 1_555
O6 C39 1_555 1_555
O8 N5 1_555 1_555
C4 C12 1_555 1_555
C7 C11 1_555 1_555
C9 C10 1_555 1_555
C11 C12 1_555 1_555
C18 C19 1_555 1_555
C25 C26 1_555 1_555
C30 C38 1_555 1_555
C33 C37 1_555 1_555
C35 C36 1_555 1_555
C37 C38 1_555 1_555
C44 C45 1_555 1_555
Pb1B O3B 1_555 1_555
Pb2B O5B 1_555 1_555

#END
