
#######################################################################
#
#                 Cambridge Crystallographic Data Centre
#                                CCDC 
#
#######################################################################
#
# If this CIF has been generated from an entry in the Cambridge 
# Structural Database, then it will include bibliographic, chemical, 
# crystal, experimental, refinement or atomic coordinate data resulting 
# from the CCDC's data processing and validation procedures.
#
#######################################################################

data_PELWEK
_symmetry_cell_setting           monoclinic
_symmetry_space_group_name_H-M   'P 2/n'
_symmetry_Int_Tables_number      13
_space_group_name_Hall           '-P 2yac'
loop_
_symmetry_equiv_pos_site_id
_symmetry_equiv_pos_as_xyz
1 x,y,z
2 1/2-x,y,1/2-z
3 -x,-y,-z
4 1/2+x,-y,1/2+z
_cell_length_a                   10.558(2)
_cell_length_b                   25.831(5)
_cell_length_c                   16.593(3)
_cell_angle_alpha                90
_cell_angle_beta                 96.93(3)
_cell_angle_gamma                90
_cell_volume                     4492.24
loop_
_atom_site_label
_atom_site_type_symbol
_atom_site_fract_x
_atom_site_fract_y
_atom_site_fract_z
Cd1 Cd 0.99954(4) 0.248489(16) 0.74747(2)
N1 N 0.9799(5) 0.2139(2) 0.6183(3)
N2 N 1.0266(5) 0.1904(2) 0.4969(3)
N3 N 0.9576(5) 0.3321(2) 0.7040(4)
N4 N 0.8464(6) 0.3982(2) 0.6515(4)
N5 N 1.0223(5) 0.27785(19) 0.8813(3)
N6 N 0.9783(5) 0.2890(2) 1.0053(3)
N7 N 1.0389(5) 0.16747(18) 0.7974(3)
N8 N 1.1405(4) 0.10203(19) 0.8596(3)
Cl1 Cl 1.2500 0.26739(8) 0.7500
Cl2 Cl 0.7500 0.23198(8) 0.7500
C1 C 1.0548(6) 0.2214(3) 0.5627(4)
H1 H 1.1207 0.2455 0.5675
C2 C 0.8954(7) 0.1766(3) 0.5864(4)
H2 H 0.8295 0.1631 0.6125
C3 C 0.9214(7) 0.1621(3) 0.5116(4)
H3 H 0.8772 0.1380 0.4772
C4 C 1.0930(6) 0.1889(3) 0.4264(4)
C5 C 1.0990(8) 0.1447(3) 0.3846(5)
H4 H 1.0616 0.1147 0.4015
C6 C 1.1626(9) 0.1444(3) 0.3149(5)
H5 H 1.1685 0.1134 0.2870
C7 C 1.2153(6) 0.1873(3) 0.2868(4)
C8 C 1.2096(11) 0.2305(4) 0.3310(6)
H6 H 1.2514 0.2601 0.3160
C9 C 1.1424(9) 0.2328(3) 0.3996(5)
H7 H 1.1326 0.2641 0.4258
C10 C 0.8501(6) 0.3477(2) 0.6647(4)
H8 H 0.7828 0.3255 0.6475
C11 C 1.0316(10) 0.3746(3) 0.7150(8)
H9 H 1.1153 0.3752 0.7399
C12 C 0.9653(10) 0.4160(3) 0.6841(8)
H10 H 0.9939 0.4501 0.6846
C13 C 0.7436(8) 0.4281(3) 0.6080(5)
C14 C 0.6823(9) 0.4089(3) 0.5406(6)
H11 H 0.7049 0.3768 0.5214
C15 C 0.5833(9) 0.4372(3) 0.4985(6)
H12 H 0.5380 0.4230 0.4522
C16 C 0.5520(8) 0.4842(3) 0.5229(6)
C17 C 0.6256(11) 0.5032(4) 0.5864(7)
H13 H 0.6109 0.5369 0.6028
C18 C 0.7248(10) 0.4748(4) 0.6301(6)
H14 H 0.7755 0.4895 0.6739
C19 C 0.9427(6) 0.2664(3) 0.9336(4)
H15 H 0.8712 0.2454 0.9223
C20 C 1.1141(6) 0.3102(3) 0.9216(4)
H16 H 1.1818 0.3254 0.8993
C21 C 1.0877(7) 0.3158(4) 0.9992(4)
H17 H 1.1352 0.3343 1.0403
C22 C 0.9134(8) 0.2864(3) 1.0758(4)
C23 C 0.7868(10) 0.2717(5) 1.0697(5)
H18 H 0.7436 0.2634 1.0192
C24 C 0.7231(10) 0.2693(5) 1.1385(5)
H19 H 0.6388 0.2581 1.1333
C25 C 0.7826(9) 0.2830(4) 1.2141(5)
C26 C 0.9055(10) 0.3018(5) 1.2163(5)
H20 H 0.9470 0.3136 1.2655
C27 C 0.9703(9) 0.3037(5) 1.1471(5)
H21 H 1.0526 0.3171 1.1509
C28 C 1.1493(6) 0.1508(2) 0.8319(4)
H22 H 1.2243 0.1701 0.8366
C29 C 0.9566(5) 0.1266(2) 0.8034(4)
H23 H 0.8704 0.1269 0.7834
C30 C 1.0177(6) 0.0861(2) 0.8420(4)
H24 H 0.9832 0.0543 0.8541
C31 C 1.2442(5) 0.0725(2) 0.8998(3)
C32 C 1.2324(8) 0.0479(4) 0.9703(5)
H25 H 1.1566 0.0507 0.9933
C33 C 1.3302(7) 0.0191(3) 1.0081(5)
H26 H 1.3177 0.0012 1.0551
C34 C 1.4456(5) 0.0154(2) 0.9795(3)
C35 C 1.4555(7) 0.0404(4) 0.9078(5)
H27 H 1.5313 0.0378 0.8848
C36 C 1.3564(6) 0.0693(3) 0.8684(4)
H28 H 1.3669 0.0866 0.8205
Cd1A Cd 0.50046(4) 0.248489(16) 0.75253(2)
Cd1A_2 Cd 0.50046(4) 0.248489(16) 1.75253(2)
Cd1A_3 Cd 1.50046(4) 0.248489(16) -0.24747(2)
Cd1A_4 Cd 1.50046(4) 0.248489(16) 0.75253(2)
Cd1B Cd 0.00046(4) 0.751511(16) 0.25253(2)
Cd1B_2 Cd 2.00046(4) -0.248489(16) 1.25253(2)
N1A N 1.5201(5) 0.2139(2) -0.1183(3)
N1A_2 N 0.5201(5) 0.2139(2) 0.8817(3)
N2A N 1.4734(5) 0.1904(2) 0.0031(3)
N3B N 0.0424(5) 0.6679(2) 0.2960(4)
N3A N 0.5424(5) 0.3321(2) 0.7960(4)
N4B N 0.1536(6) 0.6018(2) 0.3485(4)
N5A N 0.4777(5) 0.27785(19) 1.6187(3)
N5A_2 N 0.4777(5) 0.27785(19) 0.6187(3)
N6A N 0.5217(5) 0.2890(2) 1.4947(3)
N7B N 1.9611(5) -0.16747(18) 1.2026(3)
N7A N 0.4611(5) 0.16747(18) 0.7026(3)
N8B N 1.8595(4) -0.10203(19) 1.1404(3)
Cl1_2 Cl 0.2500 0.26739(8) 0.7500
C1A C 1.4452(6) 0.2214(3) -0.0627(4)
H1A H 1.3793 0.2455 -0.0675
C2A C 1.6046(7) 0.1766(3) -0.0864(4)
H2A H 1.6705 0.1631 -0.1125
C3A C 1.5786(7) 0.1621(3) -0.0116(4)
H3A H 1.6228 0.1380 0.0228
C4A C 1.4070(6) 0.1889(3) 0.0736(4)
C5A C 1.4010(8) 0.1447(3) 0.1154(5)
H4A H 1.4384 0.1147 0.0985
C6A C 1.3374(9) 0.1444(3) 0.1851(5)
H5A H 1.3315 0.1134 0.2130
C7A C 1.2847(6) 0.1873(3) 0.2132(4)
C8A C 1.2904(11) 0.2305(4) 0.1690(6)
H6A H 1.2486 0.2601 0.1840
C9A C 1.3576(9) 0.2328(3) 0.1004(5)
H7A H 1.3674 0.2641 0.0742
C10B C 0.1499(6) 0.6523(2) 0.3353(4)
H8B H 0.2172 0.6745 0.3525
C11B C -0.0316(10) 0.6254(3) 0.2850(8)
H9B H -0.1153 0.6248 0.2601
C12B C 0.0347(10) 0.5840(3) 0.3159(8)
H10B H 0.0061 0.5499 0.3154
C13B C 0.2564(8) 0.5719(3) 0.3920(5)
C14B C 0.3177(9) 0.5911(3) 0.4594(6)
H11B H 0.2951 0.6232 0.4786
C15B C 0.4167(9) 0.5628(3) 0.5015(6)
H12B H 0.4620 0.5770 0.5478
C16B C 0.4480(8) 0.5158(3) 0.4771(6)
C17B C 0.3744(11) 0.4968(4) 0.4136(7)
H13B H 0.3891 0.4631 0.3972
C18B C 0.2752(10) 0.5252(4) 0.3699(6)
H14B H 0.2245 0.5105 0.3261
C19A C 0.5573(6) 0.2664(3) 1.5664(4)
H15A H 0.6288 0.2454 1.5777
C20A C 0.3859(6) 0.3102(3) 1.5784(4)
H16A H 0.3182 0.3254 1.6007
C21A C 0.4123(7) 0.3158(4) 1.5008(4)
H17A H 0.3648 0.3343 1.4597
C22A C 0.5866(8) 0.2864(3) 1.4242(4)
C23A C 0.7132(10) 0.2717(5) 1.4303(5)
H18A H 0.7564 0.2634 1.4808
C24A C 0.7769(10) 0.2693(5) 1.3615(5)
H19A H 0.8612 0.2581 1.3667
C25A C 0.7174(9) 0.2830(4) 1.2859(5)
C26A C 0.5945(10) 0.3018(5) 1.2837(5)
H20A H 0.5530 0.3136 1.2345
C27A C 0.5297(9) 0.3037(5) 1.3529(5)
H21A H 0.4474 0.3171 1.3491
C28B C 1.8507(6) -0.1508(2) 1.1681(4)
H22B H 1.7757 -0.1701 1.1634
C29B C 2.0434(5) -0.1266(2) 1.1966(4)
H23B H 2.1296 -0.1269 1.2166
C30B C 1.9823(6) -0.0861(2) 1.1580(4)
H24B H 2.0168 -0.0543 1.1459
C31B C 1.7558(5) -0.0725(2) 1.1002(3)
C32B C 1.7676(8) -0.0479(4) 1.0297(5)
H25B H 1.8434 -0.0507 1.0067
C33B C 1.6698(7) -0.0191(3) 0.9919(5)
H26B H 1.6823 -0.0012 0.9449
C34B C 1.5544(5) -0.0154(2) 1.0205(3)
C35B C 1.5445(7) -0.0404(4) 1.0922(5)
H27B H 1.4687 -0.0378 1.1152
C36B C 1.6436(6) -0.0693(3) 1.1316(4)
H28B H 1.6331 -0.0866 1.1795
Cl3 Cl 0.7500 0.00668(10) 0.7500
O1 O 0.8582(6) -0.0245(2) 0.7705(6)
O2 O 0.7689(5) 0.0398(2) 0.6827(3)
O1A O 0.6418(6) -0.0245(2) 0.7295(6)
O2A O 0.7311(5) 0.0398(2) 0.8173(3)
Cl4 Cl 0.2500 0.39103(13) 0.2500
O3 O 0.2485(8) 0.3595(3) 0.3202(6)
O4 O 0.1366(9) 0.4221(3) 0.2450(5)
O3A O 0.2515(8) 0.3595(3) 0.1798(6)
O4A O 0.3634(9) 0.4221(3) 0.2550(5)
loop_
_geom_bond_atom_site_label_1
_geom_bond_atom_site_label_2
_geom_bond_site_symmetry_1
_geom_bond_site_symmetry_2
Cd1 N1 1_555 1_555
N1 C1 1_555 1_555
N2 C1 1_555 1_555
N3 Cd1 1_555 1_555
N4 C10 1_555 1_555
N5 Cd1 1_555 1_555
N6 C19 1_555 1_555
N7 Cd1 1_555 1_555
N8 C28 1_555 1_555
Cl1 Cd1 1_555 1_555
Cl2 Cd1 1_555 1_555
C1 H1 1_555 1_555
C2 N1 1_555 1_555
H2 C2 1_555 1_555
C3 N2 1_555 1_555
H3 C3 1_555 1_555
C4 N2 1_555 1_555
C5 C4 1_555 1_555
H4 C5 1_555 1_555
C6 C5 1_555 1_555
H5 C6 1_555 1_555
C7 C6 1_555 1_555
C8 C7 1_555 1_555
H6 C8 1_555 1_555
C9 C4 1_555 1_555
H7 C9 1_555 1_555
C10 N3 1_555 1_555
H8 C10 1_555 1_555
C11 N3 1_555 1_555
H9 C11 1_555 1_555
C12 N4 1_555 1_555
H10 C12 1_555 1_555
C13 N4 1_555 1_555
C14 C13 1_555 1_555
H11 C14 1_555 1_555
C15 C14 1_555 1_555
H12 C15 1_555 1_555
C16 C15 1_555 1_555
C17 C16 1_555 1_555
H13 C17 1_555 1_555
C18 C13 1_555 1_555
H14 C18 1_555 1_555
C19 N5 1_555 1_555
H15 C19 1_555 1_555
C20 N5 1_555 1_555
H16 C20 1_555 1_555
C21 N6 1_555 1_555
H17 C21 1_555 1_555
C22 N6 1_555 1_555
C23 C22 1_555 1_555
H18 C23 1_555 1_555
C24 C23 1_555 1_555
H19 C24 1_555 1_555
C25 C24 1_555 1_555
C26 C25 1_555 1_555
H20 C26 1_555 1_555
C27 C22 1_555 1_555
H21 C27 1_555 1_555
C28 N7 1_555 1_555
H22 C28 1_555 1_555
C29 N7 1_555 1_555
H23 C29 1_555 1_555
C30 N8 1_555 1_555
H24 C30 1_555 1_555
C31 N8 1_555 1_555
C32 C31 1_555 1_555
H25 C32 1_555 1_555
C33 C32 1_555 1_555
H26 C33 1_555 1_555
C34 C33 1_555 1_555
C35 C34 1_555 1_555
H27 C35 1_555 1_555
C36 C31 1_555 1_555
H28 C36 1_555 1_555
Cl3 O1 1_555 1_555
O2 Cl3 1_555 1_555
Cl4 O3 1_555 1_555
O4 Cl4 1_555 1_555
Cd1A Cl2 1_555 1_555
Cd1A_2 N5A 1_555 1_555
Cd1A_3 N1A 1_555 1_555
Cd1A_4 Cl1 1_555 1_555
Cd1B N3B 1_555 1_555
Cd1B_2 N7B 1_555 1_555
N1A C1A 1_555 1_555
N1A_2 Cd1A 1_555 1_555
N2A C1A 1_555 1_555
N3B C10B 1_555 1_555
N3A Cd1A 1_555 1_555
N4B C10B 1_555 1_555
N5A C19A 1_555 1_555
N5A_2 Cd1A 1_555 1_555
N6A C19A 1_555 1_555
N7B C28B 1_555 1_555
N7A Cd1A 1_555 1_555
N8B C28B 1_555 1_555
Cl1_2 Cd1A 1_555 1_555
C1A H1A 1_555 1_555
C2A N1A 1_555 1_555
H2A C2A 1_555 1_555
C3A N2A 1_555 1_555
H3A C3A 1_555 1_555
C4A N2A 1_555 1_555
C5A C4A 1_555 1_555
H4A C5A 1_555 1_555
C6A C5A 1_555 1_555
H5A C6A 1_555 1_555
C7A C7 1_555 1_555
C8A C7A 1_555 1_555
H6A C8A 1_555 1_555
C9A C4A 1_555 1_555
H7A C9A 1_555 1_555
C10B H8B 1_555 1_555
C11B N3B 1_555 1_555
H9B C11B 1_555 1_555
C12B N4B 1_555 1_555
H10B C12B 1_555 1_555
C13B N4B 1_555 1_555
C14B C13B 1_555 1_555
H11B C14B 1_555 1_555
C15B C14B 1_555 1_555
H12B C15B 1_555 1_555
C16B C16 1_555 1_555
C17B C16B 1_555 1_555
H13B C17B 1_555 1_555
C18B C13B 1_555 1_555
H14B C18B 1_555 1_555
C19A H15A 1_555 1_555
C20A N5A 1_555 1_555
H16A C20A 1_555 1_555
C21A N6A 1_555 1_555
H17A C21A 1_555 1_555
C22A N6A 1_555 1_555
C23A C22A 1_555 1_555
H18A C23A 1_555 1_555
C24A C23A 1_555 1_555
H19A C24A 1_555 1_555
C25A C25 1_555 1_555
C26A C25A 1_555 1_555
H20A C26A 1_555 1_555
C27A C22A 1_555 1_555
H21A C27A 1_555 1_555
C28B H22B 1_555 1_555
C29B N7B 1_555 1_555
H23B C29B 1_555 1_555
C30B N8B 1_555 1_555
H24B C30B 1_555 1_555
C31B N8B 1_555 1_555
C32B C31B 1_555 1_555
H25B C32B 1_555 1_555
C33B C32B 1_555 1_555
H26B C33B 1_555 1_555
C34B C34 1_555 1_555
C35B C34B 1_555 1_555
H27B C35B 1_555 1_555
C36B C31B 1_555 1_555
H28B C36B 1_555 1_555
O1A Cl3 1_555 1_555
O2A Cl3 1_555 1_555
O3A Cl4 1_555 1_555
O4A Cl4 1_555 1_555
C2 C3 1_555 1_555
C8 C9 1_555 1_555
C11 C12 1_555 1_555
C17 C18 1_555 1_555
C20 C21 1_555 1_555
C26 C27 1_555 1_555
C29 C30 1_555 1_555
C35 C36 1_555 1_555
C2A C3A 1_555 1_555
C6A C7A 1_555 1_555
C8A C9A 1_555 1_555
C11B C12B 1_555 1_555
C15B C16B 1_555 1_555
C17B C18B 1_555 1_555
C20A C21A 1_555 1_555
C24A C25A 1_555 1_555
C26A C27A 1_555 1_555
C29B C30B 1_555 1_555
C33B C34B 1_555 1_555
C35B C36B 1_555 1_555

#END
