
#######################################################################
#
#                 Cambridge Crystallographic Data Centre
#                                CCDC 
#
#######################################################################
#
# If this CIF has been generated from an entry in the Cambridge 
# Structural Database, then it will include bibliographic, chemical, 
# crystal, experimental, refinement or atomic coordinate data resulting 
# from the CCDC's data processing and validation procedures.
#
#######################################################################

data_PELXEL
_symmetry_cell_setting           monoclinic
_symmetry_space_group_name_H-M   'P 21/c'
_symmetry_Int_Tables_number      14
_space_group_name_Hall           '-P 2ybc'
loop_
_symmetry_equiv_pos_site_id
_symmetry_equiv_pos_as_xyz
1 x,y,z
2 -x,1/2+y,1/2-z
3 -x,-y,-z
4 x,1/2-y,1/2+z
_cell_length_a                   9.955(6)
_cell_length_b                   19.393(11)
_cell_length_c                   10.077(6)
_cell_angle_alpha                90
_cell_angle_beta                 108.590(11)
_cell_angle_gamma                90
_cell_volume                     1843.93
loop_
_atom_site_label
_atom_site_type_symbol
_atom_site_fract_x
_atom_site_fract_y
_atom_site_fract_z
Cd1 Cd 0.58426(3) 0.191907(14) 0.62669(3)
C1 C 0.3093(4) 0.2692(2) 0.3982(5)
H1 H 0.3765 0.3032 0.4026
C2 C 0.1747(5) 0.2776(2) 0.3068(5)
H2 H 0.1525 0.3157 0.2478
C3 C 0.0740(4) 0.2295(2) 0.3035(5)
H3 H -0.0187 0.2352 0.2449
C4 C 0.1112(4) 0.1724(2) 0.3878(5)
H4 H 0.0445 0.1387 0.3863
C5 C 0.2491(4) 0.16588(19) 0.4748(4)
C6 C 0.2996(4) 0.10512(19) 0.5609(4)
C7 C 0.4392(4) 0.03644(19) 0.7013(4)
C8 C 0.5625(4) 0.00327(19) 0.8020(4)
C9 C 0.6080(4) -0.0604(2) 0.7739(5)
H5 H 0.5564 -0.0842 0.6938
C10 C 0.7299(4) -0.0891(2) 0.8638(5)
H6 H 0.7590 -0.1323 0.8436
C11 C 0.8089(4) -0.05525(18) 0.9825(4)
C12 C 0.7579(4) 0.0069(2) 1.0151(5)
H7 H 0.8062 0.0293 1.0984
C13 C 0.6358(4) 0.0360(2) 0.9250(5)
H8 H 0.6030 0.0779 0.9477
C14 C 1.1487(4) -0.1550(2) 1.1034(5)
H9 H 1.1971 -0.1858 1.0644
C15 C 1.0222(4) -0.1287(2) 1.0186(5)
H10 H 0.9881 -0.1412 0.9247
C16 C 0.9455(4) -0.08350(19) 1.0733(4)
C17 C 1.0061(4) -0.0657(2) 1.2112(4)
H11 H 0.9609 -0.0342 1.2522
C18 C 1.1332(4) -0.0941(2) 1.2894(5)
H12 H 1.1709 -0.0816 1.3830
C19 C 0.6332(3) 0.19133(19) 0.3404(4)
C20 C 0.7080(4) 0.1661(2) 0.2351(4)
N1 N 0.3474(3) 0.21411(16) 0.4812(4)
N2 N 0.4342(3) 0.10012(15) 0.6500(3)
N3 N 0.2222(3) 0.04917(16) 0.5544(4)
N4 N 0.3137(3) 0.00635(16) 0.6456(4)
H13 H 0.2935 -0.0348 0.6649
N5 N 1.2054(3) -0.13906(16) 1.2370(4)
O1 O 0.6443(3) 0.15317(13) 0.4429(3)
O2 O 0.5696(3) 0.24725(13) 0.3157(3)
O3 O 0.7723(3) 0.11054(13) 0.2597(3)
O4 O 0.6997(3) 0.20515(14) 0.1345(3)
Cd1B Cd 1.41574(3) -0.191907(14) 1.37331(3)
Cd1C Cd 0.58426(3) 0.308093(14) 0.12669(3)
N5B N 0.7946(3) 0.13906(16) 0.7630(4)
O2C O 0.5696(3) 0.25275(13) 0.8157(3)
O4C O 0.6997(3) 0.29485(14) 0.6345(3)
loop_
_geom_bond_atom_site_label_1
_geom_bond_atom_site_label_2
_geom_bond_site_symmetry_1
_geom_bond_site_symmetry_2
Cd1 N1 1_555 1_555
C1 H1 1_555 1_555
C2 C1 1_555 1_555
H2 C2 1_555 1_555
C3 C2 1_555 1_555
H3 C3 1_555 1_555
C4 C3 1_555 1_555
H4 C4 1_555 1_555
C5 C4 1_555 1_555
C6 C5 1_555 1_555
C7 C8 1_555 1_555
C8 C9 1_555 1_555
C9 H5 1_555 1_555
C10 C9 1_555 1_555
H6 C10 1_555 1_555
C11 C10 1_555 1_555
C12 C11 1_555 1_555
H7 C12 1_555 1_555
C13 C8 1_555 1_555
H8 C13 1_555 1_555
C14 H9 1_555 1_555
C15 C14 1_555 1_555
H10 C15 1_555 1_555
C16 C11 1_555 1_555
C17 C16 1_555 1_555
H11 C17 1_555 1_555
C18 C17 1_555 1_555
H12 C18 1_555 1_555
C19 C20 1_555 1_555
C20 O3 1_555 1_555
N1 C1 1_555 1_555
N2 Cd1 1_555 1_555
N3 C6 1_555 1_555
N4 C7 1_555 1_555
H13 N4 1_555 1_555
N5 C14 1_555 1_555
O1 Cd1 1_555 1_555
O2 C19 1_555 1_555
O4 C20 1_555 1_555
Cd1B N5 1_555 1_555
Cd1C O2 1_555 1_555
N5B Cd1 1_555 1_555
O2C Cd1 1_555 1_555
O4C Cd1 1_555 1_555
C5 N1 1_555 1_555
C6 N2 1_555 1_555
C7 N2 1_555 1_555
C12 C13 1_555 1_555
C15 C16 1_555 1_555
C18 N5 1_555 1_555
C19 O1 1_555 1_555
N3 N4 1_555 1_555
O4 Cd1C 1_555 1_555

#END
