
#######################################################################
#
#                 Cambridge Crystallographic Data Centre
#                                CCDC 
#
#######################################################################
#
# If this CIF has been generated from an entry in the Cambridge 
# Structural Database, then it will include bibliographic, chemical, 
# crystal, experimental, refinement or atomic coordinate data resulting 
# from the CCDC's data processing and validation procedures.
#
#######################################################################

data_PELXOV
_symmetry_cell_setting           orthorhombic
_symmetry_space_group_name_H-M   'P b c a'
_symmetry_Int_Tables_number      61
_space_group_name_Hall           '-P 2ac 2ab'
loop_
_symmetry_equiv_pos_site_id
_symmetry_equiv_pos_as_xyz
1 x,y,z
2 1/2-x,-y,1/2+z
3 1/2+x,1/2-y,-z
4 -x,1/2+y,1/2-z
5 -x,-y,-z
6 1/2+x,y,1/2-z
7 1/2-x,1/2+y,z
8 x,1/2-y,1/2+z
_cell_length_a                   10.984(10)
_cell_length_b                   17.667(16)
_cell_length_c                   26.08(2)
_cell_angle_alpha                90
_cell_angle_beta                 90
_cell_angle_gamma                90
_cell_volume                     5060.94
loop_
_atom_site_label
_atom_site_type_symbol
_atom_site_fract_x
_atom_site_fract_y
_atom_site_fract_z
C1 C 0.5328(3) 0.5166(2) 0.25490(14)
H1 H 0.4651 0.5403 0.2407
C2 C 0.5506(4) 0.5216(3) 0.30661(14)
H2 H 0.4965 0.5481 0.3274
C3 C 0.6501(5) 0.4864(3) 0.32687(16)
H3 H 0.6652 0.4893 0.3619
C4 C 0.7277(4) 0.4469(3) 0.29578(14)
H4 H 0.7954 0.4227 0.3095
C5 C 0.7046(3) 0.44328(19) 0.24385(12)
C6 C 0.7850(3) 0.40152(19) 0.20841(13)
C7 C 0.8756(4) 0.3530(2) 0.22572(15)
H5 H 0.8883 0.3465 0.2607
C8 C 0.9462(4) 0.3148(3) 0.19094(17)
H6 H 1.0058 0.2814 0.2023
C9 C 0.9290(4) 0.3259(3) 0.13964(17)
H7 H 0.9771 0.3013 0.1155
C10 C 0.8373(4) 0.3753(2) 0.12494(14)
H8 H 0.8239 0.3825 0.0901
C11 C 0.7573(4) 0.6350(2) 0.20215(14)
H9 H 0.7120 0.6141 0.2287
C12 C 0.8257(4) 0.6977(2) 0.21258(16)
H10 H 0.8286 0.7177 0.2455
C13 C 0.8891(4) 0.7301(3) 0.17389(17)
H11 H 0.9344 0.7738 0.1795
C14 C 0.8854(4) 0.6970(2) 0.12592(16)
H12 H 0.9284 0.7185 0.0989
C15 C 0.8177(3) 0.63213(19) 0.11817(13)
C16 C 0.8135(3) 0.59345(19) 0.06764(13)
C17 C 0.8962(4) 0.6099(3) 0.02909(16)
H13 H 0.9586 0.6444 0.0347
C18 C 0.8845(4) 0.5744(3) -0.01749(18)
H14 H 0.9402 0.5840 -0.0435
C19 C 0.7913(4) 0.5251(3) -0.02538(15)
H15 H 0.7810 0.5017 -0.0570
C20 C 0.7131(4) 0.5107(2) 0.01433(13)
H16 H 0.6493 0.4770 0.0089
C21 C 0.0305(3) 0.87566(17) 0.09498(12)
C22 C 0.1063(3) 0.81662(17) 0.06793(11)
C23 C 0.0976(3) 0.80700(18) 0.01534(12)
H17 H 0.0446 0.8367 -0.0039
C24 C 0.1688(3) 0.75256(19) -0.00823(12)
H18 H 0.1644 0.7465 -0.0436
C25 C 0.2463(3) 0.70705(19) 0.01978(12)
H19 H 0.2932 0.6706 0.0033
C26 C 0.2541(3) 0.71575(17) 0.07254(11)
C27 C 0.1847(3) 0.77167(17) 0.09578(11)
H20 H 0.1913 0.7790 0.1310
C28 C 0.3344(3) 0.66817(17) 0.10413(12)
Cd1 Cd 0.607888(19) 0.496094(12) 0.132039(8)
N1 N 0.6087(2) 0.47908(15) 0.22360(10)
N2 N 0.7674(2) 0.41275(15) 0.15787(10)
N3 N 0.7513(3) 0.60180(15) 0.15607(10)
N4 N 0.7242(2) 0.54270(15) 0.06025(10)
N5 N 0.4016(2) 0.61083(16) 0.08690(10)
N6 N 0.4589(2) 0.58518(15) 0.12835(10)
N7 N 0.4273(3) 0.62534(19) 0.16868(12)
N8 N 0.3489(3) 0.67818(18) 0.15422(11)
O1 O -0.0491(2) 0.90969(15) 0.06953(9)
O2 O 0.0479(2) 0.88810(14) 0.14114(9)
Cd1F Cd -0.107888(19) 0.996094(12) 0.132039(8)
O1F O 0.5491(2) 0.40969(15) 0.06953(9)
loop_
_geom_bond_atom_site_label_1
_geom_bond_atom_site_label_2
_geom_bond_site_symmetry_1
_geom_bond_site_symmetry_2
C1 H1 1_555 1_555
C2 C1 1_555 1_555
H2 C2 1_555 1_555
C3 C2 1_555 1_555
H3 C3 1_555 1_555
C4 C3 1_555 1_555
H4 C4 1_555 1_555
C5 C4 1_555 1_555
C6 C5 1_555 1_555
C7 C6 1_555 1_555
H5 C7 1_555 1_555
C8 C7 1_555 1_555
H6 C8 1_555 1_555
C9 C8 1_555 1_555
H7 C9 1_555 1_555
C10 C9 1_555 1_555
H8 C10 1_555 1_555
C11 H9 1_555 1_555
C12 C11 1_555 1_555
H10 C12 1_555 1_555
C13 C12 1_555 1_555
H11 C13 1_555 1_555
C14 C13 1_555 1_555
H12 C14 1_555 1_555
C15 C14 1_555 1_555
C16 C15 1_555 1_555
C17 C16 1_555 1_555
H13 C17 1_555 1_555
C18 C17 1_555 1_555
H14 C18 1_555 1_555
C19 C18 1_555 1_555
H15 C19 1_555 1_555
C20 C19 1_555 1_555
H16 C20 1_555 1_555
C21 C22 1_555 1_555
C22 C23 1_555 1_555
C23 H17 1_555 1_555
C24 C23 1_555 1_555
H18 C24 1_555 1_555
C25 C24 1_555 1_555
H19 C25 1_555 1_555
C26 C25 1_555 1_555
C27 C22 1_555 1_555
H20 C27 1_555 1_555
C28 C26 1_555 1_555
Cd1 N1 1_555 1_555
N1 C1 1_555 1_555
N2 C6 1_555 1_555
N3 C11 1_555 1_555
N4 C16 1_555 1_555
N5 C28 1_555 1_555
N6 Cd1 1_555 1_555
N7 N6 1_555 1_555
N8 C28 1_555 1_555
O1 C21 1_555 1_555
O2 C21 1_555 1_555
Cd1F O1 1_555 1_555
O1F Cd1 1_555 1_555
C5 N1 1_555 1_555
C10 N2 1_555 1_555
C15 N3 1_555 1_555
C20 N4 1_555 1_555
C26 C27 1_555 1_555
Cd1 N2 1_555 1_555
Cd1 N3 1_555 1_555
Cd1 N4 1_555 1_555
N5 N6 1_555 1_555
N7 N8 1_555 1_555

#END
