
#######################################################################
#
#                 Cambridge Crystallographic Data Centre
#                                CCDC 
#
#######################################################################
#
# If this CIF has been generated from an entry in the Cambridge 
# Structural Database, then it will include bibliographic, chemical, 
# crystal, experimental, refinement or atomic coordinate data resulting 
# from the CCDC's data processing and validation procedures.
#
#######################################################################

data_PELXAH
_symmetry_cell_setting           monoclinic
_symmetry_space_group_name_H-M   'P 21/c'
_symmetry_Int_Tables_number      14
_space_group_name_Hall           '-P 2ybc'
loop_
_symmetry_equiv_pos_site_id
_symmetry_equiv_pos_as_xyz
1 x,y,z
2 -x,1/2+y,1/2-z
3 -x,-y,-z
4 x,1/2-y,1/2+z
_cell_length_a                   8.6361(11)
_cell_length_b                   10.8402(15)
_cell_length_c                   19.795(3)
_cell_angle_alpha                90
_cell_angle_beta                 95.624(3)
_cell_angle_gamma                90
_cell_volume                     1844.23
loop_
_atom_site_label
_atom_site_type_symbol
_atom_site_fract_x
_atom_site_fract_y
_atom_site_fract_z
Cd1 Cd 0.87668(2) 0.430255(18) 0.267779(10)
C1 C 1.0041(4) 0.3481(3) 0.42893(17)
H1 H 1.0976 0.3337 0.4107
C2 C 1.0010(4) 0.3402(3) 0.49804(18)
H2 H 1.0901 0.3193 0.5259
C3 C 0.8650(4) 0.3636(3) 0.52486(18)
H3 H 0.8609 0.3602 0.5716
C4 C 0.7326(4) 0.3925(3) 0.48262(16)
H4 H 0.6387 0.4088 0.5002
C5 C 0.7444(3) 0.3964(3) 0.41374(15)
C6 C 0.6085(3) 0.4213(3) 0.36409(14)
C7 C 0.4766(3) 0.4402(2) 0.26860(15)
C8 C 0.4230(3) 0.4446(3) 0.19676(15)
C9 C 0.4590(3) 0.3508(3) 0.15358(15)
H5 H 0.5186 0.2842 0.1706
C10 C 0.4064(3) 0.3554(3) 0.08491(15)
H6 H 0.4309 0.2915 0.0565
C11 C 0.3180(3) 0.4541(3) 0.05820(15)
C12 C 0.2832(3) 0.5467(3) 0.10235(16)
H7 H 0.2246 0.6139 0.0854
C13 C 0.3328(3) 0.5426(3) 0.17076(16)
H8 H 0.3058 0.6054 0.1994
C14 C 0.2749(3) 0.4103(3) -0.13286(15)
H9 H 0.3188 0.3621 -0.1648
C15 C 0.3257(3) 0.3930(3) -0.06513(15)
H10 H 0.4017 0.3343 -0.0527
C16 C 0.2642(3) 0.4629(3) -0.01558(15)
C17 C 0.1475(4) 0.5454(3) -0.03902(16)
H11 H 0.0992 0.5932 -0.0082
C18 C 0.1030(4) 0.5566(3) -0.10733(16)
H12 H 0.0243 0.6124 -0.1211
C19 C 0.9115(3) 0.7150(3) 0.27271(14)
C20 C 1.0776(3) 0.6653(3) 0.28881(13)
N1 N 0.8774(3) 0.3759(2) 0.38649(12)
N2 N 0.6190(3) 0.4105(2) 0.29619(12)
N3 N 0.4715(3) 0.4547(2) 0.38061(12)
N4 N 0.3892(3) 0.4660(2) 0.31879(12)
H13 H 0.2929 0.4872 0.3128
N5 N 0.1663(3) 0.4922(2) -0.15488(12)
O1 O 0.8020(2) 0.64452(18) 0.28462(10)
O2 O 0.8980(2) 0.82075(18) 0.24783(11)
O3 O 1.0921(2) 0.55341(16) 0.30616(10)
O4 O 1.1882(2) 0.73799(17) 0.28477(10)
Cd1B Cd 0.12332(2) 0.569745(18) -0.267779(10)
Cd1A Cd 1.12332(2) 0.930255(18) 0.232221(10)
N5B N 0.8337(3) 0.5078(2) 0.15488(12)
O2A O 1.1020(2) 0.32075(18) 0.25217(11)
O4A O 0.8118(2) 0.23799(17) 0.21523(10)
loop_
_geom_bond_atom_site_label_1
_geom_bond_atom_site_label_2
_geom_bond_site_symmetry_1
_geom_bond_site_symmetry_2
Cd1 N1 1_555 1_555
C1 H1 1_555 1_555
C2 C1 1_555 1_555
H2 C2 1_555 1_555
C3 C2 1_555 1_555
H3 C3 1_555 1_555
C4 C3 1_555 1_555
H4 C4 1_555 1_555
C5 C4 1_555 1_555
C6 C5 1_555 1_555
C7 C8 1_555 1_555
C8 C9 1_555 1_555
C9 H5 1_555 1_555
C10 C9 1_555 1_555
H6 C10 1_555 1_555
C11 C10 1_555 1_555
C12 C11 1_555 1_555
H7 C12 1_555 1_555
C13 C8 1_555 1_555
H8 C13 1_555 1_555
C14 H9 1_555 1_555
C15 C14 1_555 1_555
H10 C15 1_555 1_555
C16 C11 1_555 1_555
C17 C16 1_555 1_555
H11 C17 1_555 1_555
C18 C17 1_555 1_555
H12 C18 1_555 1_555
C19 C20 1_555 1_555
C20 O3 1_555 1_555
N1 C1 1_555 1_555
N2 Cd1 1_555 1_555
N3 C6 1_555 1_555
N4 C7 1_555 1_555
H13 N4 1_555 1_555
N5 C14 1_555 1_555
O1 Cd1 1_555 1_555
O2 C19 1_555 1_555
O3 Cd1 1_555 1_555
O4 C20 1_555 1_555
Cd1B N5 1_555 1_555
Cd1A O2 1_555 1_555
N5B Cd1 1_555 1_555
O2A Cd1 1_555 1_555
O4A Cd1 1_555 1_555
C5 N1 1_555 1_555
C6 N2 1_555 1_555
C7 N2 1_555 1_555
C12 C13 1_555 1_555
C15 C16 1_555 1_555
C18 N5 1_555 1_555
C19 O1 1_555 1_555
N3 N4 1_555 1_555
O4 Cd1A 1_555 1_555

#END
