
#######################################################################
#
#                 Cambridge Crystallographic Data Centre
#                                CCDC 
#
#######################################################################
#
# If this CIF has been generated from an entry in the Cambridge 
# Structural Database, then it will include bibliographic, chemical, 
# crystal, experimental, refinement or atomic coordinate data resulting 
# from the CCDC's data processing and validation procedures.
#
#######################################################################

data_PELXUB
_symmetry_cell_setting           monoclinic
_symmetry_space_group_name_H-M   'C 2/c'
_symmetry_Int_Tables_number      15
_space_group_name_Hall           '-C 2yn'
loop_
_symmetry_equiv_pos_site_id
_symmetry_equiv_pos_as_xyz
1 x,y,z
2 -x,y,1/2-z
3 1/2+x,1/2+y,z
4 1/2-x,1/2+y,1/2-z
5 -x,-y,-z
6 x,-y,1/2+z
7 1/2-x,1/2-y,-z
8 1/2+x,1/2-y,1/2+z
_cell_length_a                   25.919(4)
_cell_length_b                   9.9766(16)
_cell_length_c                   17.701(3)
_cell_angle_alpha                90
_cell_angle_beta                 128.489(2)
_cell_angle_gamma                90
_cell_volume                     3582.69
loop_
_atom_site_label
_atom_site_type_symbol
_atom_site_fract_x
_atom_site_fract_y
_atom_site_fract_z
C1 C 0.1691(2) 0.6935(5) 0.3808(4)
H1 H 0.1850 0.6114 0.3781
C2 C 0.1990(3) 0.8107(7) 0.3827(5)
H2 H 0.2340 0.8061 0.3808
C3 C 0.1777(3) 0.9293(7) 0.3873(5)
H3 H 0.1988 1.0073 0.3909
C4 C 0.1241(3) 0.9365(5) 0.3867(3)
C5 C 0.0980(4) 1.0582(6) 0.3905(5)
H4 H 0.1178 1.1386 0.3946
C6 C 0.0456(3) 1.0604(5) 0.3885(4)
H5 H 0.0288 1.1423 0.3891
C7 C 0.0152(3) 0.9400(5) 0.3854(3)
C8 C -0.0389(3) 0.9349(6) 0.3849(5)
H6 H -0.0580 1.0146 0.3837
C9 C -0.0639(3) 0.8188(6) 0.3860(5)
H7 H -0.0997 0.8173 0.3862
C10 C -0.0352(2) 0.6991(5) 0.3870(3)
H8 H -0.0521 0.6180 0.3888
C11 C 0.03982(19) 0.8158(4) 0.3844(2)
C12 C 0.09574(19) 0.8144(4) 0.3848(2)
C13 C -0.33410(16) 0.0802(3) 0.0765(3)
C14 C -0.27365(15) 0.1213(3) 0.1739(2)
C15 C -0.26023(19) 0.0716(4) 0.2573(3)
H9 H -0.2907 0.0166 0.2535
C16 C -0.2019(2) 0.1031(5) 0.3461(3)
H10 H -0.1934 0.0693 0.4018
C17 C -0.15594(17) 0.1844(4) 0.3531(2)
H11 H -0.1170 0.2062 0.4134
C18 C -0.16807(15) 0.2335(3) 0.2700(2)
C19 C -0.11846(15) 0.3096(3) 0.2736(2)
C20 C -0.22739(14) 0.2024(3) 0.1813(2)
H12 H -0.2363 0.2370 0.1255
Cd1 Cd 0.069911(10) 0.50421(2) 0.395414(17)
N1 N 0.11854(16) 0.6951(3) 0.3826(2)
N2 N 0.01487(14) 0.6978(3) 0.3854(2)
N3 N -0.05567(13) 0.3274(3) 0.35092(19)
N4 N -0.02903(13) 0.3946(3) 0.3180(2)
N5 N -0.07407(13) 0.4161(3) 0.2248(2)
N6 N -0.13111(13) 0.3653(3) 0.1948(2)
O1 O -0.33914(14) 0.1142(4) 0.00526(19)
O2 O -0.37727(14) 0.0132(4) 0.0670(2)
Cd1A Cd -0.069911(10) 0.50421(2) 0.104586(17)
Cd1G Cd -0.430089(10) -0.00421(2) -0.104586(17)
N5A N 0.07407(13) 0.4161(3) 0.2752(2)
O1G O 0.16086(14) 0.3858(4) 0.50526(19)
O2G O 0.12273(14) 0.4868(4) 0.5670(2)
loop_
_geom_bond_atom_site_label_1
_geom_bond_atom_site_label_2
_geom_bond_site_symmetry_1
_geom_bond_site_symmetry_2
C1 H1 1_555 1_555
C2 C1 1_555 1_555
H2 C2 1_555 1_555
C3 C2 1_555 1_555
H3 C3 1_555 1_555
C4 C3 1_555 1_555
C5 C4 1_555 1_555
H4 C5 1_555 1_555
C6 C5 1_555 1_555
H5 C6 1_555 1_555
C7 C6 1_555 1_555
C8 C7 1_555 1_555
H6 C8 1_555 1_555
C9 C8 1_555 1_555
H7 C9 1_555 1_555
C10 C9 1_555 1_555
H8 C10 1_555 1_555
C11 C7 1_555 1_555
C12 C4 1_555 1_555
C13 C14 1_555 1_555
C14 C15 1_555 1_555
C15 H9 1_555 1_555
C16 C15 1_555 1_555
H10 C16 1_555 1_555
C17 C16 1_555 1_555
H11 C17 1_555 1_555
C18 C17 1_555 1_555
C19 C18 1_555 1_555
C20 C14 1_555 1_555
H12 C20 1_555 1_555
Cd1 N1 1_555 1_555
N1 C1 1_555 1_555
N2 C10 1_555 1_555
N3 C19 1_555 1_555
N4 Cd1 1_555 1_555
N5 N4 1_555 1_555
N6 C19 1_555 1_555
O1 C13 1_555 1_555
O2 C13 1_555 1_555
Cd1A N5 1_555 1_555
Cd1G O1 1_555 1_555
N5A Cd1 1_555 1_555
O1G Cd1 1_555 1_555
O2G Cd1 1_555 1_555
C11 C12 1_555 1_555
C11 N2 1_555 1_555
C12 N1 1_555 1_555
C18 C20 1_555 1_555
Cd1 N2 1_555 1_555
N3 N4 1_555 1_555
N5 N6 1_555 1_555
O2 Cd1G 1_555 1_555

#END
