
#######################################################################
#
#                 Cambridge Crystallographic Data Centre
#                                CCDC 
#
#######################################################################
#
# If this CIF has been generated from an entry in the Cambridge 
# Structural Database, then it will include bibliographic, chemical, 
# crystal, experimental, refinement or atomic coordinate data resulting 
# from the CCDC's data processing and validation procedures.
#
#######################################################################

data_PELYAI
_symmetry_cell_setting           monoclinic
_symmetry_space_group_name_H-M   'P 21/c'
_symmetry_Int_Tables_number      14
_space_group_name_Hall           '-P 2ybc'
loop_
_symmetry_equiv_pos_site_id
_symmetry_equiv_pos_as_xyz
1 x,y,z
2 -x,1/2+y,1/2-z
3 -x,-y,-z
4 x,1/2-y,1/2+z
_cell_length_a                   13.6219(13)
_cell_length_b                   16.5119(16)
_cell_length_c                   13.4293(13)
_cell_angle_alpha                90
_cell_angle_beta                 93.1530(10)
_cell_angle_gamma                90
_cell_volume                     3015.99
loop_
_atom_site_label
_atom_site_type_symbol
_atom_site_fract_x
_atom_site_fract_y
_atom_site_fract_z
C1 C 0.8823(3) 0.8817(2) 0.2559(3)
C2 C 0.8806(3) 0.8136(2) 0.1832(3)
C3 C 0.8794(3) 0.7337(2) 0.2138(3)
H1 H 0.8816 0.7216 0.2815
C4 C 0.8750(3) 0.6712(2) 0.1444(3)
C5 C 0.8676(3) 0.5843(2) 0.1791(3)
C6 C 0.8730(3) 0.6894(2) 0.0437(3)
H2 H 0.8712 0.6481 -0.0035
C7 C 0.8739(4) 0.7690(3) 0.0137(3)
H3 H 0.8718 0.7812 -0.0539
C8 C 0.8776(3) 0.8304(2) 0.0821(3)
H4 H 0.8782 0.8839 0.0605
C9 C 0.6350(3) 0.7284(2) 0.1209(3)
H5 H 0.6572 0.7672 0.0772
C10 C 0.6173(3) 0.6502(2) 0.0861(3)
C11 C 0.6353(3) 0.6304(2) -0.0195(3)
C12 C 0.5800(3) 0.5937(2) 0.1485(3)
H6 H 0.5641 0.5420 0.1254
C13 C 0.5663(4) 0.6148(3) 0.2460(3)
H7 H 0.5426 0.5773 0.2904
C14 C 0.5884(3) 0.6922(3) 0.2762(3)
H8 H 0.5802 0.7060 0.3423
C15 C 1.1321(3) 0.8111(2) 0.0653(3)
H9 H 1.1429 0.7707 0.1128
C16 C 1.1249(3) 0.7898(2) -0.0339(3)
C17 C 1.1371(3) 0.7024(2) -0.0657(3)
C18 C 1.1071(3) 0.8497(3) -0.1038(3)
H10 H 1.1008 0.8368 -0.1713
C19 C 1.0987(4) 0.9286(3) -0.0734(3)
H11 H 1.0860 0.9698 -0.1196
C20 C 1.1095(3) 0.9455(2) 0.0269(3)
H12 H 1.1065 0.9992 0.0473
C21 C 1.3810(3) 0.8999(2) 0.2326(3)
C22 C 1.3831(3) 0.8893(2) 0.1232(3)
C23 C 1.4011(3) 0.8120(2) 0.0888(3)
H13 H 1.4124 0.7698 0.1339
C24 C 1.4023(4) 0.7973(3) -0.0126(3)
H14 H 1.4129 0.7451 -0.0355
C25 C 1.3877(3) 0.8599(3) -0.0795(3)
H15 H 1.3884 0.8498 -0.1476
C26 C 1.3720(3) 0.9382(2) -0.0457(3)
C27 C 1.3624(3) 1.0077(2) -0.1187(3)
C28 C 1.3687(3) 0.9525(2) 0.0561(3)
H16 H 1.3568 1.0044 0.0792
Cd1 Cd 1.129550(19) 0.926950(15) 0.259950(19)
Cd2 Cd 0.63480(2) 0.880158(16) 0.271792(19)
Cd3 Cd 0.759274(19) 1.036977(15) 0.487193(19)
N1 N 0.8054(2) 0.90634(18) 0.3039(2)
N2 N 0.8378(2) 0.97025(18) 0.3593(2)
N3 N 0.9300(2) 0.98379(19) 0.3449(2)
N4 N 0.9605(2) 0.92872(19) 0.2790(2)
N5 N 0.6213(2) 0.74959(19) 0.2146(2)
N6 N 1.3020(2) 0.91832(19) 0.2820(2)
N7 N 1.3332(2) 0.91450(19) 0.3796(2)
N8 N 1.4256(2) 0.89528(19) 0.3878(2)
N9 N 1.4588(2) 0.88575(19) 0.2960(2)
N10 N 1.1239(2) 0.88824(18) 0.0963(2)
O1 O 0.8822(2) 0.56795(16) 0.2693(2)
O2 O 0.84770(19) 0.52953(15) 0.11425(19)
O3 O 0.6417(2) 0.68796(17) -0.0790(2)
O4 O 0.6407(2) 0.55746(16) -0.0470(2)
O5 O 1.3746(2) 0.99158(17) -0.2105(2)
O6 O 1.3478(3) 1.07712(18) -0.0906(2)
O7 O 1.1308(2) 0.68985(17) -0.1577(2)
O8 O 1.15221(18) 0.65131(13) 0.00220(17)
O9 O 0.66590(18) 1.11039(13) 0.36767(17)
H17 H 0.6522 1.0801 0.3203
H18 H 0.7144 1.1379 0.3563
Cd1A Cd 0.870450(19) 0.426950(15) 0.240050(19)
Cd1C Cd 1.129550(19) 0.573050(15) -0.240050(19)
Cd2_2 Cd 1.63480(2) 0.880158(16) 0.271792(19)
Cd2C Cd 0.63480(2) 0.619842(16) -0.228208(19)
Cd2B Cd 1.36520(2) 1.119842(16) -0.271792(19)
Cd3B Cd 1.240726(19) 0.963023(15) 0.512807(19)
Cd3C Cd 0.759274(19) 0.463023(15) -0.012807(19)
Cd3A Cd 1.240726(19) 0.536977(15) 0.012807(19)
N7B N 0.6668(2) 1.08550(19) 0.6204(2)
N9_2 N 0.4588(2) 0.88575(19) 0.2960(2)
O1A O 1.1178(2) 1.06795(16) 0.2307(2)
O2A O 1.15230(19) 1.02953(15) 0.38575(19)
O2C O 0.84770(19) 0.97047(15) 0.61425(19)
O3C O 0.6417(2) 0.81204(17) 0.4210(2)
O4C O 0.6407(2) 0.94254(16) 0.4530(2)
O5B O 0.6254(2) 1.00842(17) 0.2105(2)
O7C O 1.1308(2) 0.81015(17) 0.3423(2)
O8A O 0.84779(18) 1.15131(13) 0.49780(17)
loop_
_geom_bond_atom_site_label_1
_geom_bond_atom_site_label_2
_geom_bond_site_symmetry_1
_geom_bond_site_symmetry_2
C1 C2 1_555 1_555
C2 C3 1_555 1_555
C3 H1 1_555 1_555
C4 C3 1_555 1_555
C5 C4 1_555 1_555
C6 C4 1_555 1_555
H2 C6 1_555 1_555
C7 C6 1_555 1_555
H3 C7 1_555 1_555
C8 C2 1_555 1_555
H4 C8 1_555 1_555
C9 H5 1_555 1_555
C10 C9 1_555 1_555
C11 C10 1_555 1_555
C12 C10 1_555 1_555
H6 C12 1_555 1_555
C13 C12 1_555 1_555
H7 C13 1_555 1_555
C14 C13 1_555 1_555
H8 C14 1_555 1_555
C15 H9 1_555 1_555
C16 C15 1_555 1_555
C17 C16 1_555 1_555
C18 C16 1_555 1_555
H10 C18 1_555 1_555
C19 C18 1_555 1_555
H11 C19 1_555 1_555
C20 C19 1_555 1_555
H12 C20 1_555 1_555
C21 C22 1_555 1_555
C22 C23 1_555 1_555
C23 H13 1_555 1_555
C24 C23 1_555 1_555
H14 C24 1_555 1_555
C25 C24 1_555 1_555
H15 C25 1_555 1_555
C26 C25 1_555 1_555
C27 C26 1_555 1_555
C28 C22 1_555 1_555
H16 C28 1_555 1_555
Cd1 N4 1_555 1_555
Cd2 N1 1_555 1_555
Cd3 N2 1_555 1_555
N1 C1 1_555 1_555
N2 N1 1_555 1_555
N3 N2 1_555 1_555
N4 C1 1_555 1_555
N5 C9 1_555 1_555
N6 C21 1_555 1_555
N7 N6 1_555 1_555
N8 N7 1_555 1_555
N9 C21 1_555 1_555
N10 C15 1_555 1_555
O1 C5 1_555 1_555
O2 C5 1_555 1_555
O3 C11 1_555 1_555
O4 C11 1_555 1_555
O5 C27 1_555 1_555
O6 C27 1_555 1_555
O7 C17 1_555 1_555
O8 C17 1_555 1_555
O9 Cd3 1_555 1_555
H17 O9 1_555 1_555
H18 O9 1_555 1_555
Cd1A O1 1_555 1_555
Cd1C O7 1_555 1_555
Cd2_2 N9 1_555 1_555
Cd2C O3 1_555 1_555
Cd2B O5 1_555 1_555
Cd3B N7 1_555 1_555
Cd3C O2 1_555 1_555
Cd3A O8 1_555 1_555
N7B Cd3 1_555 1_555
N9_2 Cd2 1_555 1_555
O1A Cd1 1_555 1_555
O2A Cd1 1_555 1_555
O2C Cd3 1_555 1_555
O3C Cd2 1_555 1_555
O4C Cd3 1_555 1_555
O5B Cd2 1_555 1_555
O7C Cd1 1_555 1_555
O8A Cd3 1_555 1_555
C7 C8 1_555 1_555
C14 N5 1_555 1_555
C20 N10 1_555 1_555
C26 C28 1_555 1_555
Cd1 N6 1_555 1_555
Cd1 N10 1_555 1_555
Cd2 N5 1_555 1_555
N3 N4 1_555 1_555
N8 N9 1_555 1_555
O2 Cd1A 1_555 1_555
O4 Cd3C 1_555 1_555
Cd3B O2A 1_555 1_555

#END
