
#######################################################################
#
#                 Cambridge Crystallographic Data Centre
#                                CCDC 
#
#######################################################################
#
# If this CIF has been generated from an entry in the Cambridge 
# Structural Database, then it will include bibliographic, chemical, 
# crystal, experimental, refinement or atomic coordinate data resulting 
# from the CCDC's data processing and validation procedures.
#
#######################################################################

data_PELYEL
_symmetry_cell_setting           monoclinic
_symmetry_space_group_name_H-M   'P 21/c'
_symmetry_Int_Tables_number      14
_space_group_name_Hall           '-P 2ybc'
loop_
_symmetry_equiv_pos_site_id
_symmetry_equiv_pos_as_xyz
1 x,y,z
2 -x,1/2+y,1/2-z
3 -x,-y,-z
4 x,1/2-y,1/2+z
_cell_length_a                   11.3492(12)
_cell_length_b                   14.1993(13)
_cell_length_c                   12.1291(12)
_cell_angle_alpha                90
_cell_angle_beta                 96.410(3)
_cell_angle_gamma                90
_cell_volume                     1942.39
loop_
_atom_site_label
_atom_site_type_symbol
_atom_site_fract_x
_atom_site_fract_y
_atom_site_fract_z
Cu1 Cu 0.20605(2) -0.000458(18) 0.801731(16)
O1 O 0.03307(13) 0.00854(10) 0.77864(11)
O2 O 0.21217(13) -0.09901(10) 0.68875(11)
O3 O 0.37941(13) -0.00327(10) 0.81663(12)
O4 O 0.20294(13) 0.09806(10) 0.91436(11)
N1 N 0.19066(17) -0.37512(12) 0.43384(13)
N2 N 0.2180(2) 0.38006(14) 1.15835(15)
C1 C -0.1640(3) -0.0222(2) 0.7080(3)
H1 H -0.1834 0.0024 0.7774
H2 H -0.2100 -0.0779 0.6898
H3 H -0.1836 0.0238 0.6509
C2 C -0.0341(2) -0.04449(16) 0.71685(17)
C3 C 0.0037(2) -0.12168(17) 0.6569(2)
H4 H -0.0562 -0.1628 0.6216
C4 C 0.12081(19) -0.14284(14) 0.64536(14)
C5 C 0.14568(19) -0.22485(14) 0.57273(14)
C6 C 0.2269(2) -0.21657(16) 0.49575(18)
H5 H 0.2704 -0.1591 0.4903
C7 C 0.2446(2) -0.29174(17) 0.42845(19)
H6 H 0.2987 -0.2840 0.3736
C8 C 0.1160(2) -0.38372(15) 0.51034(17)
H7 H 0.0789 -0.4437 0.5182
C9 C 0.0899(2) -0.31112(15) 0.58006(17)
H8 H 0.0331 -0.3200 0.6322
C10 C 0.5752(2) 0.0542(2) 0.8459(3)
H9 H 0.6131 0.1142 0.8586
H10 H 0.5813 0.0321 0.7719
H11 H 0.6111 0.0074 0.8960
C11 C 0.4460(2) 0.06039(16) 0.86125(17)
C12 C 0.4075(2) 0.13569(17) 0.92342(19)
H12 H 0.4658 0.1810 0.9522
C13 C 0.29224(19) 0.14938(14) 0.94664(15)
C14 C 0.2665(2) 0.23149(15) 1.01916(15)
C15 C 0.1757(2) 0.22540(17) 1.08623(17)
H13 H 0.1274 0.1698 1.0853
C16 C 0.1547(2) 0.30046(18) 1.15373(19)
H14 H 0.0916 0.2953 1.1999
C17 C 0.3034(2) 0.38625(16) 1.09149(18)
H15 H 0.3473 0.4440 1.0914
C18 C 0.3308(2) 0.31465(16) 1.02167(18)
H16 H 0.3942 0.3219 0.9763
Cu1C Cu 0.20605(2) -0.499542(18) 0.301731(16)
Cu1C_2 Cu 0.20605(2) 0.500458(18) 1.301731(16)
N1C N 0.19066(17) -0.12488(12) 0.93384(13)
N2C N 0.2180(2) 0.11994(14) 0.65835(15)
O5 O 0.4665(3) -0.1463(3) 0.6613(2)
H17 H 0.3977 -0.1286 0.6738
C19 C 0.5217(4) -0.1895(3) 0.7516(4)
H18 H 0.5019 -0.1591 0.8178
H19 H 0.6060 -0.1870 0.7496
H20 H 0.4980 -0.2544 0.7522
loop_
_geom_bond_atom_site_label_1
_geom_bond_atom_site_label_2
_geom_bond_site_symmetry_1
_geom_bond_site_symmetry_2
Cu1 O1 1_555 1_555
O1 C2 1_555 1_555
O2 Cu1 1_555 1_555
O3 Cu1 1_555 1_555
O4 Cu1 1_555 1_555
N1 C7 1_555 1_555
N2 C16 1_555 1_555
C1 H1 1_555 1_555
H2 C1 1_555 1_555
H3 C1 1_555 1_555
C2 C1 1_555 1_555
C3 C2 1_555 1_555
H4 C3 1_555 1_555
C4 O2 1_555 1_555
C5 C4 1_555 1_555
C6 C5 1_555 1_555
H5 C6 1_555 1_555
C7 C6 1_555 1_555
H6 C7 1_555 1_555
C8 N1 1_555 1_555
H7 C8 1_555 1_555
C9 C5 1_555 1_555
H8 C9 1_555 1_555
C10 H9 1_555 1_555
H10 C10 1_555 1_555
H11 C10 1_555 1_555
C11 O3 1_555 1_555
C12 C11 1_555 1_555
H12 C12 1_555 1_555
C13 O4 1_555 1_555
C14 C13 1_555 1_555
C15 C14 1_555 1_555
H13 C15 1_555 1_555
C16 C15 1_555 1_555
H14 C16 1_555 1_555
C17 N2 1_555 1_555
H15 C17 1_555 1_555
C18 C14 1_555 1_555
H16 C18 1_555 1_555
O5 H17 1_555 1_555
C19 O5 1_555 1_555
H18 C19 1_555 1_555
H19 C19 1_555 1_555
H20 C19 1_555 1_555
Cu1C N1 1_555 1_555
Cu1C_2 N2 1_555 1_555
N1C Cu1 1_555 1_555
N2C Cu1 1_555 1_555
C3 C4 1_555 1_555
C8 C9 1_555 1_555
C10 C11 1_555 1_555
C12 C13 1_555 1_555
C17 C18 1_555 1_555

#END
