
#######################################################################
#
#                 Cambridge Crystallographic Data Centre
#                                CCDC 
#
#######################################################################
#
# If this CIF has been generated from an entry in the Cambridge 
# Structural Database, then it will include bibliographic, chemical, 
# crystal, experimental, refinement or atomic coordinate data resulting 
# from the CCDC's data processing and validation procedures.
#
#######################################################################

data_PELYIP
_symmetry_cell_setting           monoclinic
_symmetry_space_group_name_H-M   'P 21/n'
_symmetry_Int_Tables_number      14
_space_group_name_Hall           '-P 2yn'
loop_
_symmetry_equiv_pos_site_id
_symmetry_equiv_pos_as_xyz
1 x,y,z
2 1/2-x,1/2+y,1/2-z
3 -x,-y,-z
4 1/2+x,1/2-y,1/2+z
_cell_length_a                   7.5232(12)
_cell_length_b                   11.7458(18)
_cell_length_c                   19.475(3)
_cell_angle_alpha                90
_cell_angle_beta                 98.671(3)
_cell_angle_gamma                90
_cell_volume                     1701.26
loop_
_atom_site_label
_atom_site_type_symbol
_atom_site_fract_x
_atom_site_fract_y
_atom_site_fract_z
Co1 Co 0.45447(5) 0.72407(3) 0.756520(18)
O1 O 0.6834(2) 0.63373(16) 0.80090(10)
O2 O 0.9232(3) 0.76605(16) 0.78895(11)
O3 O 0.9833(3) 0.56667(17) 0.80858(14)
O4 O 0.8985(4) 0.6826(2) 0.89968(11)
S1 S 0.87281(9) 0.66301(5) 0.82520(4)
O5 O 0.2015(3) 0.7910(2) 0.71627(13)
O6 O 0.3258(3) 0.58930(19) 0.79902(12)
O7 O 0.6112(3) 0.84893(17) 0.71758(11)
N1 N 0.4668(3) 0.63834(19) 0.66007(12)
C1 C 0.5033(5) 0.5266(2) 0.65705(15)
H1 H 0.5200 0.4852 0.6982
C2 C 0.5173(5) 0.4707(2) 0.59618(15)
H2 H 0.5426 0.3932 0.5970
C3 C 0.4938(4) 0.5289(2) 0.53354(14)
C4 C 0.4573(4) 0.6448(2) 0.53673(14)
H3 H 0.4415 0.6883 0.4964
C5 C 0.4447(4) 0.6947(2) 0.59957(15)
H4 H 0.4193 0.7721 0.6002
N2 N 0.4528(3) 0.8278(2) 0.84809(12)
C6 C 0.4769(5) 0.7831(3) 0.91141(17)
H5 H 0.4826 0.7043 0.9155
C7 C 0.4939(5) 0.8467(3) 0.97109(16)
H6 H 0.5092 0.8103 1.0140
C8 C 0.4887(4) 0.9640(2) 0.96815(14)
C9 C 0.4654(5) 1.0100(3) 0.90256(16)
H7 H 0.4630 1.0887 0.8970
C10 C 0.4456(5) 0.9406(3) 0.84492(16)
H8 H 0.4261 0.9747 0.8013
H13 H 0.593(4) 0.920(2) 0.7093(17)
H14 H 0.220(3) 0.585(3) 0.8033(19)
H15 H 0.175(5) 0.825(3) 0.6822(15)
H16 H 0.131(5) 0.782(4) 0.741(2)
H17 H 0.374(5) 0.541(3) 0.8253(18)
H18 H 0.720(4) 0.834(3) 0.7359(18)
Co1B Co 0.54553(5) 0.27593(3) 0.243480(18)
Co1B_2 Co 0.54553(5) 1.27593(3) 1.243480(18)
O1B O 0.3166(2) 0.36627(16) 0.19910(10)
O2B O 0.0768(3) 0.23395(16) 0.21105(11)
O3B O 0.0167(3) 0.43333(17) 0.19142(14)
O4B O 0.1015(4) 0.3174(2) 0.10032(11)
S1B S 0.12719(9) 0.33699(5) 0.17480(4)
O5B O 0.7985(3) 0.2090(2) 0.28373(13)
O6B O 0.6742(3) 0.41070(19) 0.20098(12)
O7B O 0.3888(3) 0.15107(17) 0.28242(11)
N1B N 0.5332(3) 0.36166(19) 0.33993(12)
C1B C 0.4967(5) 0.4734(2) 0.34295(15)
H1B H 0.4800 0.5148 0.3018
C2B C 0.4827(5) 0.5293(2) 0.40382(15)
H2B H 0.4574 0.6068 0.4030
C3B C 0.5062(4) 0.4711(2) 0.46646(14)
C4B C 0.5427(4) 0.3552(2) 0.46327(14)
H3B H 0.5585 0.3117 0.5036
C5B C 0.5553(4) 0.3053(2) 0.40043(15)
H4B H 0.5807 0.2279 0.3998
N2B N 0.5472(3) 1.1722(2) 1.15191(12)
N2B_2 N 0.5472(3) 0.1722(2) 0.15191(12)
C6B C 0.5231(5) 1.2169(3) 1.08859(17)
H5B H 0.5174 1.2957 1.0845
C7B C 0.5061(5) 1.1533(3) 1.02891(16)
H6B H 0.4908 1.1897 0.9860
C8B C 0.5113(4) 1.0360(2) 1.03185(14)
C9B C 0.5346(5) 0.9900(3) 1.09744(16)
H7B H 0.5370 0.9113 1.1030
C10B C 0.5544(5) 1.0594(3) 1.15508(16)
H8B H 0.5739 1.0253 1.1987
H13B H 0.407(4) 0.080(2) 0.2907(17)
H14B H 0.780(3) 0.415(3) 0.1967(19)
H15B H 0.825(5) 0.175(3) 0.3178(15)
H16B H 0.869(5) 0.218(4) 0.259(2)
H17B H 0.626(5) 0.459(3) 0.1747(18)
H18B H 0.280(4) 0.166(3) 0.2641(18)
O8 O 0.4548(4) 0.4084(3) 0.90214(14)
O9 O 0.7105(4) 0.5602(2) 0.98525(15)
C11 C 0.6449(5) 0.3952(3) 0.9108(2)
H9 H 0.6891 0.4311 0.8718
H10 H 0.6722 0.3146 0.9093
C12 C 0.7446(5) 0.4434(3) 0.9762(2)
H11 H 0.7118 0.4015 1.0153
H12 H 0.8725 0.4329 0.9762
H19 H 0.409(7) 0.409(4) 0.943(2)
H20 H 0.759(9) 0.593(6) 0.950(3)
loop_
_geom_bond_atom_site_label_1
_geom_bond_atom_site_label_2
_geom_bond_site_symmetry_1
_geom_bond_site_symmetry_2
Co1 O1 1_555 1_555
O1 S1 1_555 1_555
O2 S1 1_555 1_555
O3 S1 1_555 1_555
O4 S1 1_555 1_555
O5 Co1 1_555 1_555
O6 Co1 1_555 1_555
O7 Co1 1_555 1_555
N1 Co1 1_555 1_555
C1 N1 1_555 1_555
H1 C1 1_555 1_555
C2 C1 1_555 1_555
H2 C2 1_555 1_555
C3 C2 1_555 1_555
C4 C3 1_555 1_555
H3 C4 1_555 1_555
C5 N1 1_555 1_555
H4 C5 1_555 1_555
N2 Co1 1_555 1_555
C6 N2 1_555 1_555
H5 C6 1_555 1_555
C7 C6 1_555 1_555
H6 C7 1_555 1_555
C8 C7 1_555 1_555
C9 C8 1_555 1_555
H7 C9 1_555 1_555
C10 N2 1_555 1_555
H8 C10 1_555 1_555
O8 C11 1_555 1_555
O9 C12 1_555 1_555
C11 H9 1_555 1_555
H10 C11 1_555 1_555
C12 C11 1_555 1_555
H11 C12 1_555 1_555
H12 C12 1_555 1_555
H13 O7 1_555 1_555
H14 O6 1_555 1_555
H15 O5 1_555 1_555
H16 O5 1_555 1_555
H17 O6 1_555 1_555
H18 O7 1_555 1_555
H19 O8 1_555 1_555
H20 O9 1_555 1_555
Co1B O1B 1_555 1_555
Co1B_2 N2B 1_555 1_555
O1B S1B 1_555 1_555
O2B S1B 1_555 1_555
O3B S1B 1_555 1_555
O4B S1B 1_555 1_555
O5B Co1B 1_555 1_555
O6B Co1B 1_555 1_555
O7B Co1B 1_555 1_555
N1B Co1B 1_555 1_555
C1B N1B 1_555 1_555
H1B C1B 1_555 1_555
C2B C1B 1_555 1_555
H2B C2B 1_555 1_555
C3B C3 1_555 1_555
C4B C3B 1_555 1_555
H3B C4B 1_555 1_555
C5B N1B 1_555 1_555
H4B C5B 1_555 1_555
N2B C6B 1_555 1_555
N2B_2 Co1B 1_555 1_555
C6B H5B 1_555 1_555
C7B C6B 1_555 1_555
H6B C7B 1_555 1_555
C8B C8 1_555 1_555
C9B C8B 1_555 1_555
H7B C9B 1_555 1_555
C10B N2B 1_555 1_555
H8B C10B 1_555 1_555
H13B O7B 1_555 1_555
H14B O6B 1_555 1_555
H15B O5B 1_555 1_555
H16B O5B 1_555 1_555
H17B O6B 1_555 1_555
H18B O7B 1_555 1_555
C4 C5 1_555 1_555
C9 C10 1_555 1_555
C2B C3B 1_555 1_555
C4B C5B 1_555 1_555
C7B C8B 1_555 1_555
C9B C10B 1_555 1_555

#END
