
#######################################################################
#
#                 Cambridge Crystallographic Data Centre
#                                CCDC 
#
#######################################################################
#
# If this CIF has been generated from an entry in the Cambridge 
# Structural Database, then it will include bibliographic, chemical, 
# crystal, experimental, refinement or atomic coordinate data resulting 
# from the CCDC's data processing and validation procedures.
#
#######################################################################

data_PELYAH
_symmetry_cell_setting           monoclinic
_symmetry_space_group_name_H-M   'P 21/c'
_symmetry_Int_Tables_number      14
_space_group_name_Hall           '-P 2ybc'
loop_
_symmetry_equiv_pos_site_id
_symmetry_equiv_pos_as_xyz
1 x,y,z
2 -x,1/2+y,1/2-z
3 -x,-y,-z
4 x,1/2-y,1/2+z
_cell_length_a                   6.6044(11)
_cell_length_b                   9.2107(15)
_cell_length_c                   13.950(2)
_cell_angle_alpha                90
_cell_angle_beta                 101.217(3)
_cell_angle_gamma                90
_cell_volume                     832.384
loop_
_atom_site_label
_atom_site_type_symbol
_atom_site_fract_x
_atom_site_fract_y
_atom_site_fract_z
Cu1 Cu 0.0000 0.0000 0.0000
O1 O 0.14416(19) 0.08116(14) -0.09843(9)
O2 O -0.1782(2) 0.16895(14) -0.00171(9)
N1 N 0.2367(3) 0.3709(2) -0.36638(12)
C1 C 0.1051(3) 0.2044(2) -0.13878(12)
C2 C -0.0327(3) 0.3070(2) -0.11535(14)
H1 H -0.0376 0.4000 -0.1468
C3 C -0.1641(3) 0.2845(2) -0.04890(13)
C4 C -0.3060(4) 0.4066(2) -0.03256(17)
H2 H -0.4416 0.3700 -0.0315
H3 H -0.3112 0.4769 -0.0838
H4 H -0.2492 0.4537 0.0281
C5 C 0.2218(3) 0.2404(2) -0.21817(12)
C6 C 0.4143(3) 0.1794(2) -0.21872(14)
H5 H 0.4752 0.1118 -0.1690
C7 C 0.5172(3) 0.2184(3) -0.29280(15)
H6 H 0.6518 0.1800 -0.2941
C8 C 0.4244(3) 0.3143(2) -0.36417(15)
H7 H 0.4967 0.3404 -0.4151
C9 C 0.1396(3) 0.3336(2) -0.29431(14)
H8 H 0.0049 0.3734 -0.2953
Cu1C Cu 0.0000 0.5000 -0.5000
Cu1C_2 Cu 0.0000 -0.5000 0.5000
O1B O -0.14416(19) -0.08116(14) 0.09843(9)
O2B O 0.1782(2) -0.16895(14) 0.00171(9)
N1B N -0.2367(3) -0.3709(2) 0.36638(12)
N1C N 0.2367(3) 0.1291(2) 0.13362(12)
N1A N -0.2367(3) -0.1291(2) -0.13362(12)
C1B C -0.1051(3) -0.2044(2) 0.13878(12)
C2B C 0.0327(3) -0.3070(2) 0.11535(14)
H1B H 0.0376 -0.4000 0.1468
C3B C 0.1641(3) -0.2845(2) 0.04890(13)
C4B C 0.3060(4) -0.4066(2) 0.03256(17)
H2B H 0.4416 -0.3700 0.0315
H3B H 0.3112 -0.4769 0.0838
H4B H 0.2492 -0.4537 -0.0281
C5B C -0.2218(3) -0.2404(2) 0.21817(12)
C6B C -0.4143(3) -0.1794(2) 0.21872(14)
H5B H -0.4752 -0.1118 0.1690
C7B C -0.5172(3) -0.2184(3) 0.29280(15)
H6B H -0.6518 -0.1800 0.2941
C8B C -0.4244(3) -0.3143(2) 0.36417(15)
H7B H -0.4967 -0.3404 0.4151
C9B C -0.1396(3) -0.3336(2) 0.29431(14)
H8B H -0.0049 -0.3734 0.2953
loop_
_geom_bond_atom_site_label_1
_geom_bond_atom_site_label_2
_geom_bond_site_symmetry_1
_geom_bond_site_symmetry_2
Cu1 O1 1_555 1_555
O1 C1 1_555 1_555
O2 Cu1 1_555 1_555
N1 C8 1_555 1_555
C1 C2 1_555 1_555
C2 H1 1_555 1_555
C3 O2 1_555 1_555
C4 C3 1_555 1_555
H2 C4 1_555 1_555
H3 C4 1_555 1_555
H4 C4 1_555 1_555
C5 C1 1_555 1_555
C6 C5 1_555 1_555
H5 C6 1_555 1_555
C7 C6 1_555 1_555
H6 C7 1_555 1_555
C8 C7 1_555 1_555
H7 C8 1_555 1_555
C9 N1 1_555 1_555
H8 C9 1_555 1_555
Cu1C N1 1_555 1_555
Cu1C_2 N1B 1_555 1_555
O1B Cu1 1_555 1_555
O2B Cu1 1_555 1_555
N1B C8B 1_555 1_555
N1C Cu1 1_555 1_555
N1A Cu1 1_555 1_555
C1B O1B 1_555 1_555
C2B C1B 1_555 1_555
H1B C2B 1_555 1_555
C3B O2B 1_555 1_555
C4B C3B 1_555 1_555
H2B C4B 1_555 1_555
H3B C4B 1_555 1_555
H4B C4B 1_555 1_555
C5B C1B 1_555 1_555
C6B C5B 1_555 1_555
H5B C6B 1_555 1_555
C7B C6B 1_555 1_555
H6B C7B 1_555 1_555
C8B C7B 1_555 1_555
H7B C8B 1_555 1_555
C9B N1B 1_555 1_555
H8B C9B 1_555 1_555
C2 C3 1_555 1_555
C5 C9 1_555 1_555
C2B C3B 1_555 1_555
C5B C9B 1_555 1_555

#END
