
#######################################################################
#
#                 Cambridge Crystallographic Data Centre
#                                CCDC 
#
#######################################################################
#
# If this CIF has been generated from an entry in the Cambridge 
# Structural Database, then it will include bibliographic, chemical, 
# crystal, experimental, refinement or atomic coordinate data resulting 
# from the CCDC's data processing and validation procedures.
#
#######################################################################

data_PELYEM
_symmetry_cell_setting           orthorhombic
_symmetry_space_group_name_H-M   'P n a 21'
_symmetry_Int_Tables_number      33
_space_group_name_Hall           'P 2c -2n'
loop_
_symmetry_equiv_pos_site_id
_symmetry_equiv_pos_as_xyz
1 x,y,z
2 -x,-y,1/2+z
3 1/2-x,1/2+y,1/2+z
4 1/2+x,1/2-y,z
_cell_length_a                   18.220(3)
_cell_length_b                   13.269(2)
_cell_length_c                   6.8783(11)
_cell_angle_alpha                90
_cell_angle_beta                 90
_cell_angle_gamma                90
_cell_volume                     1662.91
loop_
_atom_site_label
_atom_site_type_symbol
_atom_site_fract_x
_atom_site_fract_y
_atom_site_fract_z
C1 C -0.0593(2) -0.2749(3) -0.3007(7)
C2 C -0.0972(2) -0.3668(3) -0.3792(7)
C3 C -0.0584(2) -0.4446(4) -0.4654(8)
H1 H -0.0074 -0.4424 -0.4685
C4 C -0.0951(3) -0.5260(4) -0.5471(9)
H2 H -0.0687 -0.5783 -0.6040
C5 C -0.1702(2) -0.5292(4) -0.5439(7)
H3 H -0.1946 -0.5838 -0.5987
C6 C -0.2104(2) -0.4516(3) -0.4597(7)
C7 C -0.1733(2) -0.3713(4) -0.3773(7)
H4 H -0.1998 -0.3195 -0.3197
C8 C -0.2910(2) -0.4560(3) -0.4625(7)
C9 C 0.0755(2) -0.1911(3) 0.1407(7)
C10 C 0.1582(2) -0.2769(3) 0.3182(7)
C11 C 0.1918(2) -0.3378(3) 0.4537(7)
H5 H 0.1673 -0.3653 0.5598
C12 C 0.2658(2) -0.3542(3) 0.4167(6)
C13 C 0.3025(2) -0.3122(3) 0.2598(8)
C14 C 0.2681(2) -0.2520(3) 0.1233(7)
H6 H 0.2927 -0.2242 0.0177
C15 C 0.1948(2) -0.2365(4) 0.1562(7)
C16 C 0.3827(2) -0.4056(3) 0.4281(7)
Cd1 Cd -0.008600(12) -0.082410(19) -0.21015(9)
N1 N 0.08512(15) -0.2467(2) 0.3014(8)
H7 H 0.0510 -0.2617 0.3827
N2 N 0.14187(17) -0.1843(3) 0.0506(6)
H8 H 0.1499 -0.1524 -0.0561
N3 N 0.31636(18) -0.4120(3) 0.5160(6)
H9 H 0.3071 -0.4469 0.6186
N4 N 0.37514(16) -0.3444(2) 0.2718(8)
H10 H 0.4097 -0.3280 0.1926
N5 N -0.32898(18) -0.5007(3) -0.6046(5)
N6 N -0.39940(18) -0.4916(3) -0.5541(5)
N7 N -0.40353(18) -0.4411(3) -0.3890(5)
N8 N -0.33613(18) -0.4174(3) -0.3277(5)
O1 O 0.00737(15) -0.2602(2) -0.3458(5)
O2 O -0.09551(13) -0.2140(2) -0.2019(7)
O3 O 0.01710(15) -0.1516(2) 0.0867(5)
O4 O 0.44045(16) -0.4482(2) 0.4810(5)
Cd1B Cd 0.508600(12) -0.582410(19) 0.28985(9)
Cd1C Cd 0.491400(12) -0.417590(19) 0.78985(9)
Cd1B_2 Cd -0.491400(12) -0.582410(19) -0.71015(9)
Cd1C_2 Cd -0.508600(12) -0.417590(19) -0.21015(9)
N6B N -0.10060(18) 0.0084(3) -0.0541(5)
N7C N 0.09647(18) -0.0589(3) -0.3890(5)
O4B O 0.05955(16) 0.0518(2) -0.0190(5)
O4C O -0.05955(16) -0.0518(2) -0.5190(5)
loop_
_geom_bond_atom_site_label_1
_geom_bond_atom_site_label_2
_geom_bond_site_symmetry_1
_geom_bond_site_symmetry_2
C1 C2 1_555 1_555
C2 C3 1_555 1_555
C3 H1 1_555 1_555
C4 C3 1_555 1_555
H2 C4 1_555 1_555
C5 C4 1_555 1_555
H3 C5 1_555 1_555
C6 C5 1_555 1_555
C7 C2 1_555 1_555
H4 C7 1_555 1_555
C8 C6 1_555 1_555
C9 N1 1_555 1_555
C10 C11 1_555 1_555
C11 H5 1_555 1_555
C12 C11 1_555 1_555
C13 C12 1_555 1_555
C14 C13 1_555 1_555
H6 C14 1_555 1_555
C15 C10 1_555 1_555
C16 N3 1_555 1_555
Cd1 O1 1_555 1_555
N1 C10 1_555 1_555
H7 N1 1_555 1_555
N2 C9 1_555 1_555
H8 N2 1_555 1_555
N3 C12 1_555 1_555
H9 N3 1_555 1_555
N4 C13 1_555 1_555
H10 N4 1_555 1_555
N5 C8 1_555 1_555
N6 N5 1_555 1_555
N7 N6 1_555 1_555
N8 C8 1_555 1_555
O1 C1 1_555 1_555
O2 C1 1_555 1_555
O3 C9 1_555 1_555
O4 C16 1_555 1_555
Cd1B O4 1_555 1_555
Cd1C O4 1_555 1_555
Cd1B_2 N6 1_555 1_555
Cd1C_2 N7 1_555 1_555
N6B Cd1 1_555 1_555
N7C Cd1 1_555 1_555
O4B Cd1 1_555 1_555
O4C Cd1 1_555 1_555
C6 C7 1_555 1_555
C14 C15 1_555 1_555
C15 N2 1_555 1_555
C16 N4 1_555 1_555
Cd1 O2 1_555 1_555
Cd1 O3 1_555 1_555
N7 N8 1_555 1_555

#END
