
#######################################################################
#
#                 Cambridge Crystallographic Data Centre
#                                CCDC 
#
#######################################################################
#
# If this CIF has been generated from an entry in the Cambridge 
# Structural Database, then it will include bibliographic, chemical, 
# crystal, experimental, refinement or atomic coordinate data resulting 
# from the CCDC's data processing and validation procedures.
#
#######################################################################

data_PELZOX
_symmetry_cell_setting           monoclinic
_symmetry_space_group_name_H-M   'C 2/c'
_symmetry_Int_Tables_number      15
_space_group_name_Hall           '-C 2yn'
loop_
_symmetry_equiv_pos_site_id
_symmetry_equiv_pos_as_xyz
1 x,y,z
2 -x,y,1/2-z
3 1/2+x,1/2+y,z
4 1/2-x,1/2+y,1/2-z
5 -x,-y,-z
6 x,-y,1/2+z
7 1/2-x,1/2-y,-z
8 1/2+x,1/2-y,1/2+z
_cell_length_a                   15.997(5)
_cell_length_b                   15.389(5)
_cell_length_c                   28.622(5)
_cell_angle_alpha                90
_cell_angle_beta                 95.335(5)
_cell_angle_gamma                90
_cell_volume                     7015.58
loop_
_atom_site_label
_atom_site_type_symbol
_atom_site_fract_x
_atom_site_fract_y
_atom_site_fract_z
Mn1 Mn 0.2500 0.2500 0.5000
Mn2 Mn -0.09353(3) 0.09798(4) 0.46178(2)
Mn3 Mn 0.07508(3) 0.17881(4) 0.41751(2)
O1 O -0.01830(16) 0.22280(18) 0.46921(9)
O2 O 0.02374(17) 0.04800(17) 0.43750(9)
O3 O -0.02132(16) 0.18440(19) 0.36263(10)
O4 O 0.05618(19) -0.08362(19) 0.46538(9)
O5 O 0.11319(16) 0.2134(2) 0.49657(10)
O6 O 0.25791(18) 0.1726(2) 0.56504(10)
O7 O -0.13550(17) 0.1331(2) 0.39234(9)
O8 O 0.38611(19) 0.1968(2) 0.59936(12)
O9 O 0.2312(2) 0.3701(2) 0.53309(11)
O10 O 0.31699(18) 0.3856(2) 0.59792(11)
O11 O -0.1520(3) -0.0283(2) 0.46554(14)
H1 H -0.1401 -0.0493 0.4917
N1 N -0.20084(19) 0.1846(2) 0.48315(12)
C1 C 0.0395(2) 0.2398(3) 0.50127(13)
C2 C 0.0582(2) -0.0638(3) 0.38407(13)
C3 C 0.0803(3) -0.1494(3) 0.37833(16)
H2 H 0.0845 -0.1867 0.4040
C4 C 0.0201(2) 0.2890(3) 0.54341(14)
C5 C -0.2200(3) 0.2562(3) 0.45851(16)
C6 C -0.1458(3) 0.1757(3) 0.31247(14)
C7 C 0.0450(2) -0.0308(3) 0.43225(13)
C8 C 0.2924(3) 0.1171(3) 0.64129(15)
C9 C 0.0519(3) -0.0092(3) 0.34513(14)
H3 H 0.0363 0.0485 0.3484
C10 C -0.2311(2) 0.1786(3) 0.52481(15)
C11 C -0.0977(2) 0.1634(3) 0.35954(13)
C12 C 0.3135(3) 0.1655(3) 0.59860(15)
C13 C 0.1256(3) 0.5018(3) 0.55946(17)
H4 H 0.1128 0.4760 0.5303
C14 C -0.0536(3) 0.3372(3) 0.54226(17)
H5 H -0.0904 0.3389 0.5151
C15 C 0.1981(2) 0.4768(3) 0.58732(15)
C16 C 0.2526(2) 0.4051(3) 0.57152(15)
C17 C 0.0685(3) -0.0401(3) 0.30195(16)
H6 H 0.0651 -0.0030 0.2762
C18 C 0.2103(3) 0.0991(3) 0.64877(17)
H7 H 0.1676 0.1131 0.6257
C19 C 0.1654(4) 0.5818(4) 0.6443(2)
H8 H 0.1791 0.6096 0.6729
C20 C 0.0742(3) 0.2868(3) 0.58417(15)
H9 H 0.1237 0.2550 0.5853
C21 C -0.2321(3) 0.1697(4) 0.30707(17)
H10 H -0.2618 0.1582 0.3328
C22 C -0.0183(4) 0.3798(4) 0.6223(2)
H11 H -0.0311 0.4098 0.6490
C23 C 0.2172(3) 0.5188(3) 0.62957(17)
H12 H 0.2658 0.5040 0.6482
C24 C 0.0964(4) -0.1804(3) 0.33470(18)
H13 H 0.1113 -0.2383 0.3312
C25 C 0.0535(3) 0.3327(4) 0.62325(17)
H14 H 0.0896 0.3311 0.6506
C26 C -0.1038(3) 0.1905(4) 0.27374(17)
H15 H -0.0456 0.1950 0.2770
C27 C 0.0736(3) 0.5638(3) 0.5748(2)
H16 H 0.0246 0.5787 0.5565
C28 C 0.0932(3) 0.6045(3) 0.6173(2)
H17 H 0.0579 0.6470 0.6276
C29 C 0.3552(4) 0.0943(4) 0.67566(19)
H18 H 0.4111 0.1052 0.6712
C30 C 0.0904(4) -0.1263(4) 0.29666(18)
H19 H 0.1009 -0.1474 0.2673
C31 C 0.1904(4) 0.0607(4) 0.68976(19)
H20 H 0.1347 0.0493 0.6944
C32 C -0.0721(4) 0.3830(4) 0.5819(2)
H21 H -0.1210 0.4159 0.5811
C33 C -0.2741(4) 0.1808(4) 0.2631(2)
H22 H -0.3325 0.1786 0.2598
C34 C -0.2322(4) 0.1950(4) 0.2247(2)
H23 H -0.2614 0.2020 0.1953
C35 C -0.1468(4) 0.1987(5) 0.2298(2)
H24 H -0.1173 0.2069 0.2036
C36 C 0.2527(5) 0.0396(5) 0.7233(2)
H25 H 0.2391 0.0142 0.7511
C37 C 0.3348(5) 0.0552(5) 0.7169(2)
H26 H 0.3769 0.0397 0.7400
H27 H -0.199(3) 0.262(3) 0.4294(16)
H28 H -0.219(3) 0.124(3) 0.5433(16)
H29 H -0.198(4) -0.032(5) 0.453(2)
Mn2F Mn 0.59353(3) 0.40202(4) 0.53822(2)
Mn2D Mn 0.09353(3) -0.09798(4) 0.53822(2)
Mn2F_2 Mn -0.40647(3) 0.40202(4) 0.53822(2)
Mn3F Mn 0.42492(3) 0.32119(4) 0.58249(2)
Mn3D Mn -0.07508(3) -0.17881(4) 0.58249(2)
O1F O 0.51830(16) 0.27720(18) 0.53079(9)
O2D O -0.02374(17) -0.04800(17) 0.56250(9)
O2F O 0.47626(17) 0.45200(17) 0.56250(9)
O3F O 0.52132(16) 0.31560(19) 0.63737(10)
O4D O -0.05618(19) 0.08362(19) 0.53462(9)
O4B O 0.55618(19) 0.41638(19) 0.46538(9)
O5F O 0.38681(16) 0.2866(2) 0.50343(10)
O6F O 0.24209(18) 0.3274(2) 0.43496(10)
O7F O 0.63550(17) 0.3669(2) 0.60766(9)
O8F O 0.11389(19) 0.3032(2) 0.40064(12)
O9F O 0.2688(2) 0.1299(2) 0.46691(11)
O10F O 0.18301(18) 0.1144(2) 0.40208(11)
O11F O 0.6520(3) 0.5283(2) 0.53446(14)
H1F H 0.6401 0.5493 0.5083
N1F N -0.29916(19) 0.3154(2) 0.51685(12)
N1F_2 N 0.70084(19) 0.3154(2) 0.51685(12)
C1F C 0.4605(2) 0.2602(3) 0.49873(13)
C2D C -0.0582(2) 0.0638(3) 0.61593(13)
C3D C -0.0803(3) 0.1494(3) 0.62167(16)
H2D H -0.0845 0.1867 0.5960
C4F C 0.4799(2) 0.2110(3) 0.45659(14)
C5F C -0.2800(3) 0.2438(3) 0.54149(16)
C6F C 0.6458(3) 0.3243(3) 0.68753(14)
C7D C -0.0450(2) 0.0308(3) 0.56775(13)
C8F C 0.2076(3) 0.3829(3) 0.35871(15)
C9D C -0.0519(3) 0.0092(3) 0.65487(14)
H3D H -0.0363 -0.0485 0.6516
C10F C -0.2689(2) 0.3214(3) 0.47519(15)
C11F C 0.5977(2) 0.3366(3) 0.64046(13)
C12F C 0.1865(3) 0.3345(3) 0.40140(15)
C13F C 0.3744(3) -0.0018(3) 0.44054(17)
H4F H 0.3872 0.0240 0.4697
C14F C 0.5536(3) 0.1628(3) 0.45774(17)
H5F H 0.5904 0.1611 0.4849
C15F C 0.3019(2) 0.0232(3) 0.41268(15)
C16F C 0.2474(2) 0.0949(3) 0.42848(15)
C17D C -0.0685(3) 0.0401(3) 0.69805(16)
H6D H -0.0651 0.0030 0.7238
C18F C 0.2897(3) 0.4009(3) 0.35123(17)
H7F H 0.3324 0.3869 0.3743
C19F C 0.3346(4) -0.0818(4) 0.3557(2)
H8F H 0.3209 -0.1096 0.3271
C20F C 0.4258(3) 0.2132(3) 0.41583(15)
H9F H 0.3763 0.2450 0.4147
C21F C 0.7321(3) 0.3303(4) 0.69293(17)
H10F H 0.7618 0.3418 0.6672
C22F C 0.5183(4) 0.1202(4) 0.3777(2)
H11F H 0.5311 0.0902 0.3510
C23F C 0.2828(3) -0.0188(3) 0.37043(17)
H12F H 0.2342 -0.0040 0.3518
C24D C -0.0964(4) 0.1804(3) 0.66530(18)
H13D H -0.1113 0.2383 0.6688
C25F C 0.4465(3) 0.1673(4) 0.37675(17)
H14F H 0.4104 0.1689 0.3494
C26F C 0.6038(3) 0.3095(4) 0.72626(17)
H15F H 0.5456 0.3050 0.7230
C27F C 0.4264(3) -0.0638(3) 0.4252(2)
H16F H 0.4754 -0.0787 0.4435
C28F C 0.4068(3) -0.1045(3) 0.3827(2)
H17F H 0.4421 -0.1470 0.3724
C29F C 0.1448(4) 0.4057(4) 0.32434(19)
H18F H 0.0889 0.3948 0.3288
C30D C -0.0904(4) 0.1263(4) 0.70334(18)
H19D H -0.1009 0.1474 0.7327
C31F C 0.3096(4) 0.4393(4) 0.31024(19)
H20F H 0.3653 0.4507 0.3056
C32F C 0.5721(4) 0.1170(4) 0.4181(2)
H21F H 0.6210 0.0841 0.4189
C33F C 0.7741(4) 0.3192(4) 0.7369(2)
H22F H 0.8325 0.3214 0.7402
C34F C 0.7322(4) 0.3050(4) 0.7753(2)
H23F H 0.7614 0.2980 0.8047
C35F C 0.6468(4) 0.3013(5) 0.7702(2)
H24F H 0.6173 0.2931 0.7964
C36F C 0.2473(5) 0.4604(5) 0.2767(2)
H25F H 0.2609 0.4858 0.2489
C37F C 0.1652(5) 0.4448(5) 0.2831(2)
H26F H 0.1231 0.4603 0.2600
H27F H -0.301(3) 0.238(3) 0.5706(16)
H28F H -0.281(3) 0.376(3) 0.4567(16)
H29F H 0.698(4) 0.532(5) 0.547(2)
loop_
_geom_bond_atom_site_label_1
_geom_bond_atom_site_label_2
_geom_bond_site_symmetry_1
_geom_bond_site_symmetry_2
Mn1 O5 1_555 1_555
Mn2 O1 1_555 1_555
Mn3 O1 1_555 1_555
O1 C1 1_555 1_555
O2 Mn2 1_555 1_555
O3 Mn3 1_555 1_555
O4 C7 1_555 1_555
O5 Mn3 1_555 1_555
O6 Mn1 1_555 1_555
O7 Mn2 1_555 1_555
O8 C12 1_555 1_555
O9 Mn1 1_555 1_555
O10 C16 1_555 1_555
O11 Mn2 1_555 1_555
H1 O11 1_555 1_555
N1 Mn2 1_555 1_555
C1 O5 1_555 1_555
C2 C3 1_555 1_555
C3 H2 1_555 1_555
C4 C1 1_555 1_555
C5 N1 1_555 1_555
C6 C11 1_555 1_555
C7 O2 1_555 1_555
C8 C12 1_555 1_555
C9 C2 1_555 1_555
H3 C9 1_555 1_555
C10 N1 1_555 1_555
C11 O3 1_555 1_555
C12 O6 1_555 1_555
C13 H4 1_555 1_555
C14 C4 1_555 1_555
H5 C14 1_555 1_555
C15 C13 1_555 1_555
C16 O9 1_555 1_555
C17 C9 1_555 1_555
H6 C17 1_555 1_555
C18 C8 1_555 1_555
H7 C18 1_555 1_555
C19 H8 1_555 1_555
C20 C4 1_555 1_555
H9 C20 1_555 1_555
C21 C6 1_555 1_555
H10 C21 1_555 1_555
C22 H11 1_555 1_555
C23 C15 1_555 1_555
H12 C23 1_555 1_555
C24 C3 1_555 1_555
H13 C24 1_555 1_555
C25 C20 1_555 1_555
H14 C25 1_555 1_555
C26 C6 1_555 1_555
H15 C26 1_555 1_555
C27 C13 1_555 1_555
H16 C27 1_555 1_555
C28 C19 1_555 1_555
H17 C28 1_555 1_555
C29 C8 1_555 1_555
H18 C29 1_555 1_555
C30 C17 1_555 1_555
H19 C30 1_555 1_555
C31 C18 1_555 1_555
H20 C31 1_555 1_555
C32 C14 1_555 1_555
H21 C32 1_555 1_555
C33 C21 1_555 1_555
H22 C33 1_555 1_555
C34 C33 1_555 1_555
H23 C34 1_555 1_555
C35 C26 1_555 1_555
H24 C35 1_555 1_555
C36 C31 1_555 1_555
H25 C36 1_555 1_555
C37 C29 1_555 1_555
H26 C37 1_555 1_555
H27 C5 1_555 1_555
H28 C10 1_555 1_555
H29 O11 1_555 1_555
Mn2F O1F 1_555 1_555
Mn2D O4 1_555 1_555
Mn2F_2 N1F 1_555 1_555
Mn3F O8 1_555 1_555
Mn3D O2D 1_555 1_555
O1F Mn3F 1_555 1_555
O2D Mn2D 1_555 1_555
O2F Mn2F 1_555 1_555
O3F Mn3F 1_555 1_555
O4D Mn2 1_555 1_555
O4B Mn2F 1_555 1_555
O5F Mn1 1_555 1_555
O6F Mn1 1_555 1_555
O7F Mn2F 1_555 1_555
O8F Mn3 1_555 1_555
O9F Mn1 1_555 1_555
O10F Mn3 1_555 1_555
O11F Mn2F 1_555 1_555
H1F O11F 1_555 1_555
N1F C5F 1_555 1_555
N1F_2 Mn2F 1_555 1_555
C1F O1F 1_555 1_555
C2D C3D 1_555 1_555
C3D H2D 1_555 1_555
C4F C1F 1_555 1_555
C5F C10 1_555 1_555
C6F C11F 1_555 1_555
C7D O2D 1_555 1_555
C8F C12F 1_555 1_555
C9D C2D 1_555 1_555
H3D C9D 1_555 1_555
C10F C5 1_555 1_555
C11F O3F 1_555 1_555
C12F O6F 1_555 1_555
C13F H4F 1_555 1_555
C14F C4F 1_555 1_555
H5F C14F 1_555 1_555
C15F C13F 1_555 1_555
C16F O9F 1_555 1_555
C17D C9D 1_555 1_555
H6D C17D 1_555 1_555
C18F C8F 1_555 1_555
H7F C18F 1_555 1_555
C19F H8F 1_555 1_555
C20F C4F 1_555 1_555
H9F C20F 1_555 1_555
C21F C6F 1_555 1_555
H10F C21F 1_555 1_555
C22F H11F 1_555 1_555
C23F C15F 1_555 1_555
H12F C23F 1_555 1_555
C24D C3D 1_555 1_555
H13D C24D 1_555 1_555
C25F C20F 1_555 1_555
H14F C25F 1_555 1_555
C26F C6F 1_555 1_555
H15F C26F 1_555 1_555
C27F C13F 1_555 1_555
H16F C27F 1_555 1_555
C28F C19F 1_555 1_555
H17F C28F 1_555 1_555
C29F C8F 1_555 1_555
H18F C29F 1_555 1_555
C30D C17D 1_555 1_555
H19D C30D 1_555 1_555
C31F C18F 1_555 1_555
H20F C31F 1_555 1_555
C32F C14F 1_555 1_555
H21F C32F 1_555 1_555
C33F C21F 1_555 1_555
H22F C33F 1_555 1_555
C34F C33F 1_555 1_555
H23F C34F 1_555 1_555
C35F C26F 1_555 1_555
H24F C35F 1_555 1_555
C36F C31F 1_555 1_555
H25F C36F 1_555 1_555
C37F C29F 1_555 1_555
H26F C37F 1_555 1_555
H27F C5F 1_555 1_555
H28F C10F 1_555 1_555
H29F O11F 1_555 1_555
Mn3 O2 1_555 1_555
O7 C11 1_555 1_555
O10 Mn3F 1_555 1_555
C2 C7 1_555 1_555
C15 C16 1_555 1_555
C19 C23 1_555 1_555
C22 C25 1_555 1_555
C22 C32 1_555 1_555
C24 C30 1_555 1_555
C27 C28 1_555 1_555
C34 C35 1_555 1_555
C36 C37 1_555 1_555
Mn3F O2F 1_555 1_555
Mn3F O5F 1_555 1_555
O4D C7D 1_555 1_555
O5F C1F 1_555 1_555
O7F C11F 1_555 1_555
O8F C12F 1_555 1_555
O10F C16F 1_555 1_555
N1F C10F 1_555 1_555
C2D C7D 1_555 1_555
C15F C16F 1_555 1_555
C19F C23F 1_555 1_555
C22F C25F 1_555 1_555
C22F C32F 1_555 1_555
C24D C30D 1_555 1_555
C27F C28F 1_555 1_555
C34F C35F 1_555 1_555
C36F C37F 1_555 1_555

#END
