
#######################################################################
#
#                 Cambridge Crystallographic Data Centre
#                                CCDC 
#
#######################################################################
#
# If this CIF has been generated from an entry in the Cambridge 
# Structural Database, then it will include bibliographic, chemical, 
# crystal, experimental, refinement or atomic coordinate data resulting 
# from the CCDC's data processing and validation procedures.
#
#######################################################################

data_PEMGUL
_symmetry_cell_setting           monoclinic
_symmetry_space_group_name_H-M   'P 21/n'
_symmetry_Int_Tables_number      14
_space_group_name_Hall           '-P 2yn'
loop_
_symmetry_equiv_pos_site_id
_symmetry_equiv_pos_as_xyz
1 x,y,z
2 1/2-x,1/2+y,1/2-z
3 -x,-y,-z
4 1/2+x,1/2-y,1/2+z
_cell_length_a                   22.6083(13)
_cell_length_b                   28.6805(14)
_cell_length_c                   27.2831(13)
_cell_angle_alpha                90
_cell_angle_beta                 100.757(2)
_cell_angle_gamma                90
_cell_volume                     17380
loop_
_atom_site_label
_atom_site_type_symbol
_atom_site_fract_x
_atom_site_fract_y
_atom_site_fract_z
Ag1 Ag 0.20917(3) 0.07951(3) -0.04355(2)
Ag2 Ag 0.31652(3) 0.06387(3) 0.54824(2)
Ag3 Ag 0.30520(3) 0.28867(3) 0.03149(2)
Ag4 Ag 0.18347(4) 0.32373(3) 0.45125(2)
S1 S 0.06388(8) 0.12777(7) 0.20210(7)
C1 C 0.1037(3) 0.0858(2) 0.2424(2)
C2 C 0.1563(3) 0.0653(2) 0.2332(2)
C3 C 0.1800(3) 0.0268(3) 0.2614(3)
C4 C 0.1508(3) 0.0095(2) 0.2989(3)
H1 H 0.1682 -0.0159 0.3190
C5 C 0.0980(3) 0.0284(3) 0.3073(3)
C6 C 0.0759(3) 0.0670(2) 0.2797(2)
H2 H 0.0403 0.0813 0.2862
O1 O 0.1864(2) 0.08360(17) 0.19820(16)
C7 C 0.1711(4) 0.0636(3) 0.1500(3)
H3 H 0.1279 0.0687 0.1364
H4 H 0.1788 0.0296 0.1519
C8 C 0.2088(3) 0.0861(3) 0.1167(2)
C9 C 0.1978(4) 0.0764(3) 0.0668(3)
H5 H 0.1660 0.0555 0.0543
N1 N 0.2298(3) 0.0950(3) 0.0343(2)
C10 C 0.2748(4) 0.1241(3) 0.0525(3)
H6 H 0.2976 0.1377 0.0302
C11 C 0.2887(4) 0.1349(3) 0.1015(3)
H7 H 0.3215 0.1551 0.1133
C12 C 0.2556(3) 0.1167(3) 0.1346(3)
H8 H 0.2646 0.1249 0.1689
C13 C 0.0622(4) 0.0079(3) 0.3458(3)
C14 C 0.0529(6) 0.0489(5) 0.3842(4)
H9 H 0.0919 0.0634 0.3976
H10 H 0.0357 0.0358 0.4116
H11 H 0.0255 0.0725 0.3666
C15 C 0.0955(6) -0.0304(7) 0.3764(6)
H12 H 0.0889 -0.0280 0.4108
H13 H 0.1386 -0.0277 0.3760
H14 H 0.0807 -0.0606 0.3624
C16 C -0.0002(5) -0.0027(6) 0.3218(5)
H15 H -0.0005 -0.0291 0.2990
H16 H -0.0180 0.0246 0.3031
H17 H -0.0237 -0.0106 0.3474
S2 S 0.24049(9) -0.00774(7) 0.24909(8)
C17 C 0.2973(3) 0.0300(2) 0.2344(3)
C18 C 0.3207(3) 0.0659(2) 0.2642(2)
C19 C 0.3721(3) 0.0894(2) 0.2544(2)
C20 C 0.3972(3) 0.0743(3) 0.2142(3)
H18 H 0.4314 0.0902 0.2069
C21 C 0.3743(3) 0.0374(2) 0.1849(2)
C22 C 0.3241(3) 0.0155(3) 0.1954(3)
H19 H 0.3075 -0.0102 0.1755
O2 O 0.2939(2) 0.08152(17) 0.30327(17)
C23 C 0.3145(4) 0.0571(3) 0.3496(2)
H20 H 0.3581 0.0625 0.3612
H21 H 0.3077 0.0232 0.3449
C24 C 0.2800(3) 0.0752(2) 0.3873(3)
C25 C 0.3006(4) 0.0637(3) 0.4362(3)
H22 H 0.3361 0.0453 0.4441
N2 N 0.2735(3) 0.0769(2) 0.4737(2)
C26 C 0.2228(4) 0.1005(3) 0.4625(3)
H23 H 0.2022 0.1089 0.4885
C27 C 0.1982(4) 0.1137(3) 0.4135(3)
H24 H 0.1613 0.1304 0.4063
C28 C 0.2288(4) 0.1017(3) 0.3754(3)
H25 H 0.2146 0.1117 0.3420
C29 C 0.4031(3) 0.0192(3) 0.1414(3)
C30 C 0.4324(7) 0.0592(4) 0.1164(5)
H26 H 0.4733 0.0647 0.1348
H27 H 0.4084 0.0876 0.1165
H28 H 0.4340 0.0505 0.0819
C31 C 0.4479(8) -0.0157(6) 0.1614(5)
H29 H 0.4287 -0.0407 0.1773
H30 H 0.4796 -0.0012 0.1861
H31 H 0.4656 -0.0288 0.1342
C32 C 0.3598(5) 0.0003(5) 0.0999(4)
H32 H 0.3304 0.0245 0.0868
H33 H 0.3389 -0.0263 0.1114
H34 H 0.3809 -0.0099 0.0735
S3 S 0.41416(8) 0.13028(7) 0.29577(6)
C33 C 0.3623(3) 0.1686(2) 0.3160(2)
C34 C 0.3233(3) 0.1962(3) 0.2835(2)
C35 C 0.2842(3) 0.2268(2) 0.3019(3)
C36 C 0.2912(3) 0.2341(3) 0.3532(3)
H35 H 0.2664 0.2563 0.3655
C37 C 0.3343(3) 0.2092(3) 0.3870(3)
C38 C 0.3672(3) 0.1753(3) 0.3673(2)
H36 H 0.3939 0.1560 0.3896
O3 O 0.3258(2) 0.19605(18) 0.23259(16)
C39 C 0.3683(4) 0.2330(3) 0.2259(3)
H37 H 0.4054 0.2302 0.2515
H38 H 0.3501 0.2640 0.2294
C40 C 0.3827(3) 0.2282(3) 0.1755(3)
C41 C 0.3493(4) 0.2529(3) 0.1359(3)
H39 H 0.3188 0.2736 0.1424
N3 N 0.3587(3) 0.2486(2) 0.0883(2)
C42 C 0.4044(4) 0.2225(3) 0.0809(3)
H40 H 0.4128 0.2208 0.0481
C43 C 0.4399(4) 0.1979(3) 0.1174(3)
H41 H 0.4720 0.1795 0.1100
C44 C 0.4290(4) 0.1999(3) 0.1666(3)
H42 H 0.4528 0.1825 0.1926
C45 C 0.3471(3) 0.2216(2) 0.4417(3)
C46 C 0.4130(6) 0.2402(6) 0.4558(5)
H43 H 0.4411 0.2139 0.4591
H44 H 0.4179 0.2572 0.4875
H45 H 0.4212 0.2613 0.4295
C47 C 0.3050(7) 0.2591(5) 0.4557(5)
H46 H 0.3085 0.2874 0.4364
H47 H 0.3162 0.2660 0.4914
H48 H 0.2634 0.2478 0.4483
C48 C 0.3415(8) 0.1774(4) 0.4722(5)
H49 H 0.3008 0.1646 0.4626
H50 H 0.3493 0.1851 0.5078
H51 H 0.3710 0.1543 0.4656
S4 S 0.23555(9) 0.26622(7) 0.26284(8)
C49 C 0.1887(3) 0.2318(2) 0.2172(3)
C50 C 0.1523(3) 0.1953(3) 0.2305(2)
C51 C 0.1149(3) 0.1718(3) 0.1928(3)
C52 C 0.1086(3) 0.1863(3) 0.1428(3)
H52 H 0.0815 0.1703 0.1176
C53 C 0.1423(3) 0.2247(3) 0.1298(3)
C54 C 0.1821(3) 0.2451(3) 0.1674(3)
H53 H 0.2067 0.2696 0.1591
O4 O 0.1570(2) 0.18163(18) 0.27923(16)
C55 C 0.1070(4) 0.1959(4) 0.3019(3)
H54 H 0.1071 0.1770 0.3324
H55 H 0.0689 0.1893 0.2785
C56 C 0.1089(4) 0.2460(3) 0.3154(3)
C57 C 0.1374(4) 0.2592(4) 0.3634(3)
H56 H 0.1535 0.2357 0.3867
N4 N 0.1425(4) 0.3031(3) 0.3772(2)
C58 C 0.1197(5) 0.3363(4) 0.3444(3)
H57 H 0.1225 0.3679 0.3547
C59 C 0.0924(5) 0.3257(4) 0.2962(4)
H58 H 0.0783 0.3498 0.2730
C60 C 0.0859(4) 0.2798(4) 0.2824(3)
H59 H 0.0655 0.2716 0.2499
C61 C 0.1323(3) 0.2407(3) 0.0745(3)
C62 C 0.1638(12) 0.2057(7) 0.0486(6)
H60 H 0.1588 0.2137 0.0132
H61 H 0.1468 0.1747 0.0522
H62 H 0.2068 0.2056 0.0635
C63 C 0.0652(5) 0.2464(7) 0.0519(5)
H63 H 0.0603 0.2500 0.0157
H64 H 0.0495 0.2742 0.0661
H65 H 0.0431 0.2188 0.0596
C64 C 0.1625(8) 0.2904(5) 0.0728(6)
H66 H 0.1816 0.2924 0.0434
H67 H 0.1930 0.2949 0.1030
H68 H 0.1316 0.3147 0.0709
S5 S 0.27688(9) 0.01322(6) -0.26741(7)
C65 C 0.3214(3) -0.0214(3) -0.2201(3)
C66 C 0.3560(3) -0.0587(2) -0.2321(2)
C67 C 0.3918(3) -0.0820(2) -0.1931(2)
C68 C 0.3952(3) -0.0665(2) -0.1445(2)
H69 H 0.4204 -0.0830 -0.1184
C69 C 0.3640(3) -0.0287(3) -0.1321(3)
C70 C 0.3259(3) -0.0069(2) -0.1712(3)
H70 H 0.3021 0.0187 -0.1642
O5 O 0.3524(2) -0.07243(17) -0.28084(16)
C71 C 0.4043(4) -0.0618(3) -0.3029(3)
H71 H 0.4042 -0.0819 -0.3323
H72 H 0.4416 -0.0682 -0.2784
C72 C 0.4035(4) -0.0118(3) -0.3183(3)
C73 C 0.3741(4) 0.0022(3) -0.3651(3)
H73 H 0.3567 -0.0214 -0.3877
N5 N 0.3683(3) 0.0451(2) -0.3804(2)
C74 C 0.3944(4) 0.0791(3) -0.3494(3)
H74 H 0.3916 0.1104 -0.3608
C75 C 0.4245(5) 0.0701(3) -0.3023(4)
H75 H 0.4416 0.0946 -0.2808
C76 C 0.4293(4) 0.0239(4) -0.2869(4)
H76 H 0.4505 0.0165 -0.2544
C77 C 0.3709(3) -0.0120(3) -0.0782(3)
C78 C 0.4357(4) -0.0034(5) -0.0557(4)
H77 H 0.4504 0.0236 -0.0719
H78 H 0.4596 -0.0310 -0.0605
H79 H 0.4393 0.0028 -0.0199
C79 C 0.3399(8) 0.0319(7) -0.0734(5)
H80 H 0.3080 0.0364 -0.1027
H81 H 0.3687 0.0577 -0.0710
H82 H 0.3222 0.0311 -0.0433
C80 C 0.3502(11) -0.0500(6) -0.0481(5)
H83 H 0.3700 -0.0467 -0.0131
H84 H 0.3605 -0.0803 -0.0608
H85 H 0.3065 -0.0479 -0.0506
S6 S 0.44024(8) -0.12878(6) -0.20230(6)
C81 C 0.3965(3) -0.1698(2) -0.2426(2)
C82 C 0.3432(3) -0.1883(2) -0.2317(2)
C83 C 0.3160(3) -0.2249(2) -0.2595(3)
C84 C 0.3412(3) -0.2429(2) -0.2985(3)
H86 H 0.3217 -0.2681 -0.3176
C85 C 0.3938(3) -0.2249(2) -0.3102(2)
C86 C 0.4215(3) -0.1880(2) -0.2813(2)
H87 H 0.4578 -0.1753 -0.2881
O6 O 0.3177(2) -0.16858(17) -0.19411(17)
C87 C 0.3348(4) -0.1900(3) -0.1459(3)
H88 H 0.3784 -0.1855 -0.1332
H89 H 0.3264 -0.2238 -0.1481
C88 C 0.2990(4) -0.1673(3) -0.1119(3)
C89 C 0.3143(4) -0.1783(3) -0.0618(3)
H90 H 0.3480 -0.1980 -0.0509
N6 N 0.2825(3) -0.1615(2) -0.0275(2)
C90 C 0.2357(4) -0.1344(3) -0.0431(3)
H91 H 0.2135 -0.1227 -0.0195
C91 C 0.2176(4) -0.1221(3) -0.0932(3)
H92 H 0.1834 -0.1028 -0.1034
C92 C 0.2498(3) -0.1382(3) -0.1276(3)
H93 H 0.2387 -0.1297 -0.1617
C93 C 0.4209(4) -0.2462(3) -0.3529(3)
C94 C 0.3738(7) -0.2434(9) -0.3999(4)
H94 H 0.3390 -0.2624 -0.3961
H95 H 0.3908 -0.2550 -0.4281
H96 H 0.3612 -0.2109 -0.4060
C95 C 0.4775(7) -0.2224(6) -0.3598(6)
H97 H 0.4956 -0.2396 -0.3843
H98 H 0.5057 -0.2214 -0.3279
H99 H 0.4682 -0.1906 -0.3718
C96 C 0.4299(9) -0.2983(5) -0.3419(7)
H100 H 0.3953 -0.3105 -0.3290
H101 H 0.4666 -0.3029 -0.3169
H102 H 0.4336 -0.3148 -0.3726
S7 S 0.25674(9) -0.25796(7) -0.24268(8)
C97 C 0.2020(3) -0.2178(3) -0.2272(3)
C98 C 0.1808(3) -0.1811(2) -0.2561(3)
C99 C 0.1302(3) -0.1572(3) -0.2470(3)
C100 C 0.1021(3) -0.1728(3) -0.2081(3)
H103 H 0.0675 -0.1569 -0.2017
C101 C 0.1241(3) -0.2113(3) -0.1784(3)
C102 C 0.1734(3) -0.2324(3) -0.1885(3)
H104 H 0.1895 -0.2582 -0.1686
O7 O 0.2091(2) -0.16583(16) -0.29375(17)
C103 C 0.1866(4) -0.1892(3) -0.3398(3)
H105 H 0.1433 -0.1823 -0.3509
H106 H 0.1915 -0.2233 -0.3354
C104 C 0.2219(3) -0.1721(3) -0.3782(3)
C105 C 0.2067(4) -0.1912(3) -0.4252(3)
H107 H 0.1763 -0.2144 -0.4311
N7 N 0.2334(4) -0.1780(3) -0.4630(2)
C106 C 0.2769(4) -0.1470(3) -0.4553(3)
H108 H 0.2963 -0.1384 -0.4820
C107 C 0.2950(4) -0.1265(3) -0.4086(3)
H109 H 0.3269 -0.1044 -0.4033
C108 C 0.2665(4) -0.1385(3) -0.3702(3)
H110 H 0.2773 -0.1239 -0.3385
C109 C 0.0890(4) -0.2293(3) -0.1385(3)
C110 C 0.0291(4) -0.2477(4) -0.1664(4)
H111 H 0.0363 -0.2709 -0.1911
H112 H 0.0053 -0.2219 -0.1834
H113 H 0.0071 -0.2623 -0.1427
C111 C 0.1239(6) -0.2653(5) -0.1060(5)
H114 H 0.1349 -0.2906 -0.1266
H115 H 0.0992 -0.2777 -0.0830
H116 H 0.1605 -0.2512 -0.0867
C112 C 0.0735(4) -0.1885(4) -0.1063(3)
H117 H 0.0537 -0.2006 -0.0799
H118 H 0.0465 -0.1667 -0.1273
H119 H 0.1106 -0.1722 -0.0912
S8 S 0.08849(8) -0.11624(7) -0.28820(7)
C113 C 0.1401(3) -0.0785(3) -0.3108(2)
C114 C 0.1837(3) -0.0528(2) -0.2799(2)
C115 C 0.2204(3) -0.0236(2) -0.3012(2)
C116 C 0.2098(3) -0.0171(2) -0.3530(3)
H120 H 0.2359 0.0026 -0.3672
C117 C 0.1617(3) -0.0391(3) -0.3843(2)
C118 C 0.1286(3) -0.0712(2) -0.3620(2)
H121 H 0.0976 -0.0885 -0.3823
O8 O 0.1925(2) -0.05661(18) -0.22838(17)
C119 C 0.1454(4) -0.0368(3) -0.2057(3)
H122 H 0.1414 -0.0555 -0.1760
H123 H 0.1068 -0.0388 -0.2297
C120 C 0.1567(4) 0.0123(3) -0.1906(3)
C121 C 0.1748(4) 0.0233(3) -0.1391(3)
H124 H 0.1786 -0.0016 -0.1158
N8 N 0.1867(3) 0.0654(3) -0.1220(2)
C122 C 0.1841(5) 0.1009(3) -0.1563(3)
H125 H 0.1949 0.1315 -0.1445
C123 C 0.1666(5) 0.0944(4) -0.2068(3)
H126 H 0.1644 0.1197 -0.2295
C124 C 0.1521(5) 0.0490(3) -0.2235(3)
H127 H 0.1389 0.0434 -0.2581
C125 C 0.1449(3) -0.0288(3) -0.4402(3)
C126 C 0.0935(6) 0.0026(5) -0.4498(4)
H128 H 0.1050 0.0329 -0.4342
H129 H 0.0604 -0.0106 -0.4357
H130 H 0.0806 0.0067 -0.4858
C127 C 0.1970(5) -0.0053(5) -0.4597(3)
H131 H 0.1997 0.0275 -0.4495
H132 H 0.1898 -0.0072 -0.4962
H133 H 0.2348 -0.0212 -0.4459
C128 C 0.1317(8) -0.0727(4) -0.4699(3)
H134 H 0.1252 -0.0653 -0.5055
H135 H 0.0955 -0.0874 -0.4620
H136 H 0.1659 -0.0941 -0.4615
Ag2_2 Ag 0.31652(3) 0.06387(3) -0.45176(2)
Ag3A Ag 0.19480(3) -0.21133(3) -0.53149(2)
Ag4A Ag 0.31653(4) -0.17627(3) 0.04875(2)
N5_2 N 0.3683(3) 0.0451(2) 0.6196(2)
N6A N 0.2175(3) 0.3385(2) 0.5275(2)
N7A N 0.2666(4) 0.3220(3) -0.0370(2)
B1 B 0.3230(6) 0.9434(4) 0.4535(5)
F1 F 0.3369(3) 0.9567(3) 0.5019(3)
F2 F 0.2676(3) 0.9600(3) 0.4326(4)
F3 F 0.3652(4) 0.9639(2) 0.4287(3)
F4 F 0.3278(4) 0.8971(2) 0.4471(3)
B2 B 0.3462(5) 0.7019(4) 0.9671(4)
F5 F 0.3862(3) 0.7247(2) 0.9429(2)
F6 F 0.2887(3) 0.7116(2) 0.9454(3)
F7 F 0.3556(3) 0.7203(3) 1.0161(2)
F8 F 0.3570(4) 0.6563(2) 0.9680(3)
B3 B 0.3133(5) 0.1837(4) 0.9288(4)
F9 F 0.3417(7) 0.2061(4) 0.9679(5)
F10 F 0.3015(7) 0.2045(4) 0.8847(5)
F11 F 0.2709(11) 0.1566(8) 0.9348(8)
F12 F 0.3581(11) 0.1520(9) 0.9229(9)
B4 B 0.1501(6) 0.9702(5) 0.9908(5)
F13 F 0.1564(12) 0.9452(8) 1.0331(7)
F14 F 0.2023(6) 0.9840(5) 0.9777(6)
F15 F 0.1107(8) 1.0090(5) 0.9867(7)
F16 F 0.1223(7) 0.9434(6) 0.9458(6)
C129 C 0.5056(6) 0.8501(4) 0.0272(5)
H137 H 0.5368 0.8374 0.0548
Cl1 Cl 0.4550(2) 0.88752(15) 0.05199(14)
Cl2 Cl 0.5416(2) 0.88477(14) -0.01618(16)
Cl3 Cl 0.47037(18) 0.80510(15) -0.0092(2)
C130 C 0.9908(8) 0.9750(6) 0.1241(7)
H138 H 0.9617 0.9873 0.0948
Cl4 Cl 1.0622(3) 0.9672(3) 0.1097(4)
Cl5 Cl 1.0005(4) 1.0127(3) 0.1721(4)
Cl6 Cl 0.9661(3) 0.9228(2) 0.1449(5)
C131 C 0.0975(8) 0.8677(6) 0.2122(7)
H139 H 0.0742 0.8933 0.1926
Cl7 Cl 0.0575(2) 0.8488(2) 0.25813(18)
Cl8 Cl 0.1653(4) 0.8882(3) 0.2375(4)
Cl9 Cl 0.1066(2) 0.82362(15) 0.17203(16)
C132 C 0.4796(6) 0.9281(5) 0.5202(5)
H140 H 0.4425 0.9456 0.5047
Cl10 Cl 0.4622(3) 0.8741(2) 0.5387(5)
Cl11 Cl 0.5172(4) 0.9564(4) 0.5709(4)
Cl12 Cl 0.5300(4) 0.9270(4) 0.4822(3)
C133 C 0.0023(9) 0.8008(6) 0.5639(7)
H141 H -0.0353 0.7872 0.5438
Cl13 Cl 0.0260(3) 0.7600(3) 0.6060(3)
Cl14 Cl -0.0202(3) 0.8433(3) 0.5894(2)
Cl15 Cl 0.0482(2) 0.80615(17) 0.5225(2)
C134 C 0.4435(6) 0.6688(4) 0.8627(5)
H142 H 0.4250 0.6802 0.8910
Cl16 Cl 0.4172(2) 0.61339(16) 0.84701(19)
Cl17 Cl 0.5233(2) 0.66610(18) 0.8828(2)
Cl18 Cl 0.4260(3) 0.70699(19) 0.81389(19)
C135 C 0.6067(6) 0.0941(4) 0.6622(5)
H143 H 0.6122 0.0836 0.6284
Cl19 Cl 0.59023(19) 0.04671(13) 0.69661(19)
Cl20 Cl 0.54891(16) 0.13582(13) 0.65656(14)
Cl21 Cl 0.67413(19) 0.12105(16) 0.69439(18)
C136 C 0.3833(6) 0.1530(4) 0.8130(5)
H144 H 0.3714 0.1675 0.8430
Cl22 Cl 0.4062(2) 0.19625(17) 0.7785(2)
Cl23 Cl 0.4455(2) 0.11549(17) 0.83376(17)
Cl24 Cl 0.32374(19) 0.12253(15) 0.78244(19)
O9 O 0.0267(7) 0.1174(5) 0.4877(7)
O10 O 0.2734(4) 0.1341(3) 0.6014(4)
C137 C 0.2271(10) -0.1128(11) 1.1244(11)
H145 H 0.1848 -0.1121 1.1076
H146 H 0.2337 -0.0896 1.1513
H147 H 0.2371 -0.1439 1.1384
O11 O 0.2647(7) -0.1023(5) 1.0893(5)
H148 H 0.2607 -0.1231 1.0673
O12 O 0.2178(8) -0.1486(5) 0.4000(4)
C138? C 0.3862(10) 0.1825(6) 0.4702(7)
C139? C 0.2877(7) 0.2262(8) 0.4603(7)
C140? C 0.3819(10) 0.2677(6) 0.4481(8)
C141? C 0.0991(15) 0.2886(8) 0.0706(11)
C142? C 0.0885(13) 0.2062(10) 0.0397(7)
C143? C 0.1915(8) 0.2445(11) 0.0568(10)
F17? F 0.3049(7) 0.2074(4) 0.9757(4)
F18? F 0.3042(5) 0.1345(3) 0.9343(4)
F19? F 0.3744(7) 0.1953(8) 0.9182(8)
F20? F 0.2136(7) 0.9658(8) 1.0187(9)
F21? F 0.1200(10) 0.9777(8) 1.0350(7)
F22? F 0.1423(11) 1.0034(7) 0.9613(7)
F23? F 0.1339(10) 0.9230(6) 0.9806(10)
F24? F 0.2659(7) 0.2026(5) 0.8861(5)
H149? H 0.3608 0.1556 0.4740
H150? H 0.4054 0.1939 0.5032
H151? H 0.4173 0.1732 0.4514
H152? H 0.2620 0.2491 0.4397
H153? H 0.2957 0.2367 0.4951
H154? H 0.2673 0.1960 0.4579
H155? H 0.4212 0.2634 0.4384
H156? H 0.3879 0.2776 0.4830
H157? H 0.3591 0.2916 0.4269
H158? H 0.1035 0.3042 0.0395
H159? H 0.1166 0.3083 0.0990
H160? H 0.0563 0.2836 0.0708
H161? H 0.0939 0.2099 0.0051
H162? H 0.0467 0.2134 0.0420
H163? H 0.0978 0.1740 0.0506
H164? H 0.2193 0.2207 0.0734
H165? H 0.2088 0.2755 0.0649
H166? H 0.1848 0.2398 0.0206
loop_
_geom_bond_atom_site_label_1
_geom_bond_atom_site_label_2
_geom_bond_site_symmetry_1
_geom_bond_site_symmetry_2
Ag1 N1 1_555 1_555
Ag2 N2 1_555 1_555
Ag3 N3 1_555 1_555
Ag4 N4 1_555 1_555
S1 C1 1_555 1_555
C1 C2 1_555 1_555
C2 C3 1_555 1_555
C3 C4 1_555 1_555
C4 H1 1_555 1_555
C5 C4 1_555 1_555
C6 C1 1_555 1_555
H2 C6 1_555 1_555
O1 C2 1_555 1_555
C7 O1 1_555 1_555
H3 C7 1_555 1_555
H4 C7 1_555 1_555
C8 C7 1_555 1_555
C9 C8 1_555 1_555
H5 C9 1_555 1_555
N1 C9 1_555 1_555
C10 N1 1_555 1_555
H6 C10 1_555 1_555
C11 C10 1_555 1_555
H7 C11 1_555 1_555
C12 C8 1_555 1_555
H8 C12 1_555 1_555
C13 C5 1_555 1_555
C14 C13 1_555 1_555
H9 C14 1_555 1_555
H10 C14 1_555 1_555
H11 C14 1_555 1_555
C15 C13 1_555 1_555
H12 C15 1_555 1_555
H13 C15 1_555 1_555
H14 C15 1_555 1_555
C16 C13 1_555 1_555
H15 C16 1_555 1_555
H16 C16 1_555 1_555
H17 C16 1_555 1_555
S2 C3 1_555 1_555
C17 S2 1_555 1_555
C18 C17 1_555 1_555
C19 C18 1_555 1_555
C20 C19 1_555 1_555
H18 C20 1_555 1_555
C21 C20 1_555 1_555
C22 C17 1_555 1_555
H19 C22 1_555 1_555
O2 C18 1_555 1_555
C23 O2 1_555 1_555
H20 C23 1_555 1_555
H21 C23 1_555 1_555
C24 C23 1_555 1_555
C25 C24 1_555 1_555
H22 C25 1_555 1_555
N2 C25 1_555 1_555
C26 N2 1_555 1_555
H23 C26 1_555 1_555
C27 C26 1_555 1_555
H24 C27 1_555 1_555
C28 C24 1_555 1_555
H25 C28 1_555 1_555
C29 C21 1_555 1_555
C30 C29 1_555 1_555
H26 C30 1_555 1_555
H27 C30 1_555 1_555
H28 C30 1_555 1_555
C31 C29 1_555 1_555
H29 C31 1_555 1_555
H30 C31 1_555 1_555
H31 C31 1_555 1_555
C32 C29 1_555 1_555
H32 C32 1_555 1_555
H33 C32 1_555 1_555
H34 C32 1_555 1_555
S3 C19 1_555 1_555
C33 S3 1_555 1_555
C34 C33 1_555 1_555
C35 C34 1_555 1_555
C36 C35 1_555 1_555
H35 C36 1_555 1_555
C37 C36 1_555 1_555
C38 C33 1_555 1_555
H36 C38 1_555 1_555
O3 C34 1_555 1_555
C39 O3 1_555 1_555
H37 C39 1_555 1_555
H38 C39 1_555 1_555
C40 C39 1_555 1_555
C41 C40 1_555 1_555
H39 C41 1_555 1_555
N3 C41 1_555 1_555
C42 N3 1_555 1_555
H40 C42 1_555 1_555
C43 C42 1_555 1_555
H41 C43 1_555 1_555
C44 C40 1_555 1_555
H42 C44 1_555 1_555
C45 C37 1_555 1_555
C46 C45 1_555 1_555
H43 C46 1_555 1_555
H44 C46 1_555 1_555
H45 C46 1_555 1_555
C47 C45 1_555 1_555
H46 C47 1_555 1_555
H47 C47 1_555 1_555
H48 C47 1_555 1_555
C48 C45 1_555 1_555
H49 C48 1_555 1_555
H50 C48 1_555 1_555
H51 C48 1_555 1_555
S4 C35 1_555 1_555
C49 S4 1_555 1_555
C50 C49 1_555 1_555
C51 S1 1_555 1_555
C52 C51 1_555 1_555
H52 C52 1_555 1_555
C53 C52 1_555 1_555
C54 C49 1_555 1_555
H53 C54 1_555 1_555
O4 C50 1_555 1_555
C55 O4 1_555 1_555
H54 C55 1_555 1_555
H55 C55 1_555 1_555
C56 C55 1_555 1_555
C57 C56 1_555 1_555
H56 C57 1_555 1_555
N4 C57 1_555 1_555
C58 N4 1_555 1_555
H57 C58 1_555 1_555
C59 C58 1_555 1_555
H58 C59 1_555 1_555
C60 C56 1_555 1_555
H59 C60 1_555 1_555
C61 C53 1_555 1_555
C62 C61 1_555 1_555
H60 C62 1_555 1_555
H61 C62 1_555 1_555
H62 C62 1_555 1_555
C63 C61 1_555 1_555
H63 C63 1_555 1_555
H64 C63 1_555 1_555
H65 C63 1_555 1_555
C64 C61 1_555 1_555
H66 C64 1_555 1_555
H67 C64 1_555 1_555
H68 C64 1_555 1_555
S5 C65 1_555 1_555
C65 C66 1_555 1_555
C66 C67 1_555 1_555
C67 C68 1_555 1_555
C68 H69 1_555 1_555
C69 C68 1_555 1_555
C70 C65 1_555 1_555
H70 C70 1_555 1_555
O5 C66 1_555 1_555
C71 O5 1_555 1_555
H71 C71 1_555 1_555
H72 C71 1_555 1_555
C72 C71 1_555 1_555
C73 C72 1_555 1_555
H73 C73 1_555 1_555
N5 C73 1_555 1_555
C74 N5 1_555 1_555
H74 C74 1_555 1_555
C75 C74 1_555 1_555
H75 C75 1_555 1_555
C76 C72 1_555 1_555
H76 C76 1_555 1_555
C77 C69 1_555 1_555
C78 C77 1_555 1_555
H77 C78 1_555 1_555
H78 C78 1_555 1_555
H79 C78 1_555 1_555
C79 C77 1_555 1_555
H80 C79 1_555 1_555
H81 C79 1_555 1_555
H82 C79 1_555 1_555
C80 C77 1_555 1_555
H83 C80 1_555 1_555
H84 C80 1_555 1_555
H85 C80 1_555 1_555
S6 C67 1_555 1_555
C81 S6 1_555 1_555
C82 C81 1_555 1_555
C83 C82 1_555 1_555
C84 C83 1_555 1_555
H86 C84 1_555 1_555
C85 C84 1_555 1_555
C86 C81 1_555 1_555
H87 C86 1_555 1_555
O6 C82 1_555 1_555
C87 O6 1_555 1_555
H88 C87 1_555 1_555
H89 C87 1_555 1_555
C88 C87 1_555 1_555
C89 C88 1_555 1_555
H90 C89 1_555 1_555
N6 C89 1_555 1_555
C90 N6 1_555 1_555
H91 C90 1_555 1_555
C91 C90 1_555 1_555
H92 C91 1_555 1_555
C92 C88 1_555 1_555
H93 C92 1_555 1_555
C93 C85 1_555 1_555
C94 C93 1_555 1_555
H94 C94 1_555 1_555
H95 C94 1_555 1_555
H96 C94 1_555 1_555
C95 C93 1_555 1_555
H97 C95 1_555 1_555
H98 C95 1_555 1_555
H99 C95 1_555 1_555
C96 C93 1_555 1_555
H100 C96 1_555 1_555
H101 C96 1_555 1_555
H102 C96 1_555 1_555
S7 C83 1_555 1_555
C97 S7 1_555 1_555
C98 C97 1_555 1_555
C99 C98 1_555 1_555
C100 C99 1_555 1_555
H103 C100 1_555 1_555
C101 C100 1_555 1_555
C102 C97 1_555 1_555
H104 C102 1_555 1_555
O7 C98 1_555 1_555
C103 O7 1_555 1_555
H105 C103 1_555 1_555
H106 C103 1_555 1_555
C104 C103 1_555 1_555
C105 C104 1_555 1_555
H107 C105 1_555 1_555
N7 C105 1_555 1_555
C106 N7 1_555 1_555
H108 C106 1_555 1_555
C107 C106 1_555 1_555
H109 C107 1_555 1_555
C108 C104 1_555 1_555
H110 C108 1_555 1_555
C109 C101 1_555 1_555
C110 C109 1_555 1_555
H111 C110 1_555 1_555
H112 C110 1_555 1_555
H113 C110 1_555 1_555
C111 C109 1_555 1_555
H114 C111 1_555 1_555
H115 C111 1_555 1_555
H116 C111 1_555 1_555
C112 C109 1_555 1_555
H117 C112 1_555 1_555
H118 C112 1_555 1_555
H119 C112 1_555 1_555
S8 C99 1_555 1_555
C113 S8 1_555 1_555
C114 C113 1_555 1_555
C115 S5 1_555 1_555
C116 C115 1_555 1_555
H120 C116 1_555 1_555
C117 C116 1_555 1_555
C118 C113 1_555 1_555
H121 C118 1_555 1_555
O8 C114 1_555 1_555
C119 O8 1_555 1_555
H122 C119 1_555 1_555
H123 C119 1_555 1_555
C120 C119 1_555 1_555
C121 C120 1_555 1_555
H124 C121 1_555 1_555
N8 Ag1 1_555 1_555
C122 N8 1_555 1_555
H125 C122 1_555 1_555
C123 C122 1_555 1_555
H126 C123 1_555 1_555
C124 C120 1_555 1_555
H127 C124 1_555 1_555
C125 C117 1_555 1_555
C126 C125 1_555 1_555
H128 C126 1_555 1_555
H129 C126 1_555 1_555
H130 C126 1_555 1_555
C127 C125 1_555 1_555
H131 C127 1_555 1_555
H132 C127 1_555 1_555
H133 C127 1_555 1_555
C128 C125 1_555 1_555
H134 C128 1_555 1_555
H135 C128 1_555 1_555
H136 C128 1_555 1_555
B1 F1 1_555 1_555
F2 B1 1_555 1_555
F3 B1 1_555 1_555
F4 B1 1_555 1_555
B2 F5 1_555 1_555
F6 B2 1_555 1_555
F7 B2 1_555 1_555
F8 B2 1_555 1_555
B3 F9 1_555 1_555
F10 B3 1_555 1_555
F11 B3 1_555 1_555
F12 B3 1_555 1_555
B4 F13 1_555 1_555
F14 B4 1_555 1_555
F15 B4 1_555 1_555
F16 B4 1_555 1_555
C129 H137 1_555 1_555
Cl1 C129 1_555 1_555
Cl2 C129 1_555 1_555
Cl3 C129 1_555 1_555
C130 H138 1_555 1_555
Cl4 C130 1_555 1_555
Cl5 C130 1_555 1_555
Cl6 C130 1_555 1_555
C131 H139 1_555 1_555
Cl7 C131 1_555 1_555
Cl8 C131 1_555 1_555
Cl9 C131 1_555 1_555
C132 H140 1_555 1_555
Cl10 C132 1_555 1_555
Cl11 C132 1_555 1_555
Cl12 C132 1_555 1_555
C133 H141 1_555 1_555
Cl13 C133 1_555 1_555
Cl14 C133 1_555 1_555
Cl15 C133 1_555 1_555
C134 H142 1_555 1_555
Cl16 C134 1_555 1_555
Cl17 C134 1_555 1_555
Cl18 C134 1_555 1_555
C135 H143 1_555 1_555
Cl19 C135 1_555 1_555
Cl20 C135 1_555 1_555
Cl21 C135 1_555 1_555
C136 H144 1_555 1_555
Cl22 C136 1_555 1_555
Cl23 C136 1_555 1_555
Cl24 C136 1_555 1_555
C137 H145 1_555 1_555
H146 C137 1_555 1_555
H147 C137 1_555 1_555
O11 C137 1_555 1_555
H148 O11 1_555 1_555
Ag2_2 N5 1_555 1_555
Ag3A N7 1_555 1_555
Ag4A N6 1_555 1_555
N5_2 Ag2 1_555 1_555
N6A Ag4 1_555 1_555
N7A Ag3 1_555 1_555
C5 C6 1_555 1_555
C11 C12 1_555 1_555
C21 C22 1_555 1_555
C27 C28 1_555 1_555
C37 C38 1_555 1_555
C43 C44 1_555 1_555
C50 C51 1_555 1_555
C53 C54 1_555 1_555
C59 C60 1_555 1_555
C69 C70 1_555 1_555
C75 C76 1_555 1_555
C85 C86 1_555 1_555
C91 C92 1_555 1_555
C101 C102 1_555 1_555
C107 C108 1_555 1_555
C114 C115 1_555 1_555
C117 C118 1_555 1_555
C121 N8 1_555 1_555
C123 C124 1_555 1_555

#END
