
#######################################################################
#
#                 Cambridge Crystallographic Data Centre
#                                CCDC 
#
#######################################################################
#
# If this CIF has been generated from an entry in the Cambridge 
# Structural Database, then it will include bibliographic, chemical, 
# crystal, experimental, refinement or atomic coordinate data resulting 
# from the CCDC's data processing and validation procedures.
#
#######################################################################

data_PEMHEW
_symmetry_cell_setting           monoclinic
_symmetry_space_group_name_H-M   'P 21/c'
_symmetry_Int_Tables_number      14
_space_group_name_Hall           '-P 2ybc'
loop_
_symmetry_equiv_pos_site_id
_symmetry_equiv_pos_as_xyz
1 x,y,z
2 -x,1/2+y,1/2-z
3 -x,-y,-z
4 x,1/2-y,1/2+z
_cell_length_a                   27.5820(9)
_cell_length_b                   28.4143(7)
_cell_length_c                   25.5819(9)
_cell_angle_alpha                90
_cell_angle_beta                 108.6540(10)
_cell_angle_gamma                90
_cell_volume                     18995.9
loop_
_atom_site_label
_atom_site_type_symbol
_atom_site_fract_x
_atom_site_fract_y
_atom_site_fract_z
Ag1 Ag 0.02284(4) 0.24395(3) 0.34136(4)
Ag2 Ag -0.25217(3) 0.22797(3) 0.24262(4)
Ag3 Ag -0.24841(3) -0.27262(3) 0.25175(3)
Ag4 Ag -0.47012(4) 0.71259(3) 0.35362(4)
S1 S -0.06948(10) -0.03281(9) 0.43993(10)
C1 C -0.0324(4) -0.0457(3) 0.3961(4)
C2 C -0.0202(4) -0.0109(3) 0.3641(4)
C3 C 0.0092(4) -0.0227(4) 0.3311(4)
C4 C 0.0300(4) -0.0678(3) 0.3343(4)
H1 H 0.0507 -0.0753 0.3121
C5 C 0.0215(4) -0.1018(3) 0.3690(4)
C6 C -0.0119(4) -0.0896(3) 0.3981(4)
H2 H -0.0206 -0.1129 0.4202
O1 O -0.0345(2) 0.0362(2) 0.3671(3)
C7 C 0.0061(4) 0.0592(4) 0.4084(4)
H3 H 0.0382 0.0571 0.3991
H4 H 0.0117 0.0440 0.4447
C8 C -0.0089(4) 0.1103(3) 0.4108(4)
C9 C 0.0078(4) 0.1446(4) 0.3823(4)
H5 H 0.0298 0.1355 0.3621
N1 N -0.0054(3) 0.1899(3) 0.3817(3)
C10 C -0.0366(5) 0.2024(4) 0.4108(5)
H6 H -0.0477 0.2342 0.4092
C11 C -0.0530(5) 0.1710(4) 0.4428(5)
H7 H -0.0730 0.1812 0.4647
C12 C -0.0392(5) 0.1242(4) 0.4418(5)
H8 H -0.0507 0.1015 0.4626
C13 C 0.0514(4) -0.1484(3) 0.3793(4)
C14 C 0.0641(6) -0.1639(4) 0.3281(5)
H9 H 0.0862 -0.1403 0.3192
H10 H 0.0325 -0.1672 0.2970
H11 H 0.0820 -0.1942 0.3353
C15 C 0.1011(5) -0.1420(4) 0.4259(6)
H12 H 0.1207 -0.1714 0.4317
H13 H 0.0938 -0.1335 0.4597
H14 H 0.1211 -0.1169 0.4163
C16 C 0.0207(5) -0.1882(4) 0.3966(6)
H15 H 0.0416 -0.2168 0.4055
H16 H -0.0107 -0.1947 0.3662
H17 H 0.0119 -0.1781 0.4291
S2 S 0.02920(10) 0.01969(9) 0.29159(11)
C17 C -0.0273(4) 0.0413(3) 0.2412(4)
C18 C -0.0652(4) 0.0112(3) 0.2090(4)
C19 C -0.1035(4) 0.0306(3) 0.1637(4)
C20 C -0.1025(4) 0.0778(3) 0.1514(4)
H18 H -0.1282 0.0903 0.1203
C21 C -0.0641(4) 0.1079(3) 0.1841(4)
C22 C -0.0268(4) 0.0881(3) 0.2277(4)
H19 H 0.0003 0.1075 0.2493
O2 O -0.0668(3) -0.0353(2) 0.2230(3)
C23 C -0.0449(4) -0.0673(3) 0.1946(5)
H20 H -0.0073 -0.0627 0.2060
H21 H -0.0591 -0.0620 0.1544
C24 C -0.0568(4) -0.1159(3) 0.2082(4)
C25 C -0.0394(4) -0.1541(3) 0.1854(4)
H22 H -0.0196 -0.1486 0.1617
N2 N -0.0500(3) -0.1992(3) 0.1960(4)
C26 C -0.0768(4) -0.2075(4) 0.2304(4)
H23 H -0.0826 -0.2390 0.2392
C27 C -0.0957(4) -0.1713(4) 0.2529(4)
H24 H -0.1163 -0.1782 0.2755
C28 C -0.0858(4) -0.1250(4) 0.2438(4)
H25 H -0.0980 -0.1000 0.2609
C29 C -0.0635(4) 0.1599(4) 0.1675(5)
C30 C -0.1169(5) 0.1794(4) 0.1399(6)
H26 H -0.1147 0.2132 0.1335
H27 H -0.1379 0.1742 0.1639
H28 H -0.1325 0.1634 0.1046
C31 C -0.0333(6) 0.1643(4) 0.1280(6)
H29 H -0.0565 0.1621 0.0900
H30 H -0.0080 0.1389 0.1348
H31 H -0.0157 0.1947 0.1334
C32 C -0.0372(5) 0.1913(4) 0.2189(5)
H32 H -0.0010 0.1828 0.2341
H33 H -0.0540 0.1864 0.2469
H34 H -0.0402 0.2245 0.2078
S3 S -0.14954(12) -0.00414(9) 0.11504(10)
C33 C -0.1763(4) -0.0450(3) 0.1500(4)
C34 C -0.1911(4) -0.0347(3) 0.1952(4)
C35 C -0.2183(3) -0.0671(3) 0.2154(4)
C36 C -0.2317(4) -0.1101(3) 0.1894(4)
H35 H -0.2506 -0.1320 0.2033
C37 C -0.2178(4) -0.1218(3) 0.1431(4)
C38 C -0.1904(4) -0.0886(3) 0.1245(4)
H36 H -0.1808 -0.0959 0.0930
O3 O -0.1772(3) 0.0085(2) 0.2221(3)
C39 C -0.2125(4) 0.0455(3) 0.2007(4)
H37 H -0.2456 0.0384 0.2064
H38 H -0.2185 0.0492 0.1607
C40 C -0.1903(4) 0.0896(4) 0.2304(4)
C41 C -0.2185(4) 0.1308(4) 0.2209(4)
H39 H -0.2521 0.1296 0.1952
N3 N -0.2024(3) 0.1721(3) 0.2448(4)
C42 C -0.1537(5) 0.1729(4) 0.2809(5)
H40 H -0.1405 0.2017 0.2988
C43 C -0.1229(4) 0.1333(4) 0.2925(5)
H41 H -0.0890 0.1351 0.3175
C44 C -0.1418(4) 0.0913(4) 0.2678(4)
H42 H -0.1214 0.0636 0.2764
C45 C -0.2349(4) -0.1677(4) 0.1112(4)
C46 C -0.1911(6) -0.1886(4) 0.0944(6)
H43 H -0.1771 -0.1644 0.0759
H44 H -0.2040 -0.2150 0.0691
H45 H -0.1642 -0.1997 0.1273
C47 C -0.2807(6) -0.1547(5) 0.0584(6)
H46 H -0.3090 -0.1420 0.0695
H47 H -0.2922 -0.1830 0.0359
H48 H -0.2695 -0.1311 0.0369
C48 C -0.2522(7) -0.2033(4) 0.1465(6)
H49 H -0.2251 -0.2071 0.1821
H50 H -0.2590 -0.2337 0.1274
H51 H -0.2834 -0.1920 0.1527
S4 S -0.24936(10) -0.05429(11) 0.26503(11)
C49 C -0.2053(4) -0.0215(4) 0.3183(4)
C50 C -0.1594(4) -0.0397(4) 0.3510(4)
C51 C -0.1287(4) -0.0118(3) 0.3947(4)
C52 C -0.1472(4) 0.0295(3) 0.4078(4)
H52 H -0.1264 0.0467 0.4387
C53 C -0.1955(4) 0.0481(4) 0.3780(4)
C54 C -0.2236(4) 0.0226(4) 0.3304(4)
H53 H -0.2549 0.0349 0.3066
O4 O -0.1448(3) -0.0849(2) 0.3430(3)
C55 C -0.1649(5) -0.1167(4) 0.3755(5)
H54 H -0.2021 -0.1113 0.3668
H55 H -0.1482 -0.1101 0.4152
C56 C -0.1556(4) -0.1659(3) 0.3639(4)
C57 C -0.1930(4) -0.1907(3) 0.3240(4)
H56 H -0.2236 -0.1746 0.3043
N4 N -0.1883(3) -0.2360(3) 0.3116(3)
C58 C -0.1453(4) -0.2590(4) 0.3426(5)
H57 H -0.1420 -0.2916 0.3366
C59 C -0.1066(4) -0.2363(4) 0.3823(5)
H58 H -0.0761 -0.2527 0.4013
C60 C -0.1123(5) -0.1897(4) 0.3944(5)
H59 H -0.0867 -0.1743 0.4232
C61 C -0.2192(4) 0.0910(4) 0.3962(4)
C62 C -0.2537(10) 0.0730(7) 0.4264(10)
H60 H -0.2725 0.0993 0.4354
H61 H -0.2332 0.0574 0.4605
H62 H -0.2779 0.0504 0.4031
C63 C -0.1803(6) 0.1224(6) 0.4334(9)
H63 H -0.1634 0.1407 0.4117
H64 H -0.1548 0.1034 0.4608
H65 H -0.1970 0.1439 0.4523
C64 C -0.2493(9) 0.1204(7) 0.3485(7)
H66 H -0.2561 0.1512 0.3618
H67 H -0.2818 0.1047 0.3294
H68 H -0.2298 0.1246 0.3228
S5 S -0.43513(10) 0.49115(9) 0.05596(10)
C65 C -0.3750(4) 0.4715(3) 0.0996(4)
C66 C -0.3431(4) 0.4981(3) 0.1428(4)
C67 C -0.2955(4) 0.4808(3) 0.1743(4)
C68 C -0.2785(4) 0.4378(3) 0.1594(4)
H69 H -0.2464 0.4257 0.1817
C69 C -0.3061(4) 0.4124(4) 0.1143(4)
C70 C -0.3561(4) 0.4288(3) 0.0859(4)
H70 H -0.3777 0.4104 0.0567
O5 O -0.3578(3) 0.5433(2) 0.1516(3)
C71 C -0.3396(5) 0.5760(3) 0.1193(5)
H71 H -0.3588 0.5716 0.0796
H72 H -0.3029 0.5701 0.1248
C72 C -0.3467(5) 0.6250(4) 0.1362(5)
C73 C -0.3072(4) 0.6479(3) 0.1762(4)
H73 H -0.2766 0.6310 0.1938
N5 N -0.3106(3) 0.6934(3) 0.1911(3)
C74 C -0.3530(4) 0.7167(4) 0.1653(5)
H74 H -0.3548 0.7490 0.1740
C75 C -0.3946(5) 0.6967(5) 0.1264(5)
H75 H -0.4253 0.7140 0.1109
C76 C -0.3906(5) 0.6522(4) 0.1112(5)
H76 H -0.4182 0.6387 0.0826
C77 C -0.2859(7) 0.3703(6) 0.0940(8)
C78 C -0.2662(7) 0.3858(5) 0.0485(7)
H77 H -0.2857 0.4133 0.0299
H78 H -0.2701 0.3602 0.0219
H79 H -0.2299 0.3942 0.0641
C79 C -0.3297(7) 0.3327(5) 0.0680(7)
H80 H -0.3182 0.3015 0.0836
H81 H -0.3372 0.3318 0.0279
H82 H -0.3607 0.3415 0.0766
C80 C -0.2420(7) 0.3465(5) 0.1407(7)
H83 H -0.2141 0.3691 0.1555
H84 H -0.2292 0.3192 0.1258
H85 H -0.2550 0.3363 0.1703
S6 S -0.25135(10) 0.51425(10) 0.22644(11)
C81 C -0.2780(4) 0.5229(3) 0.2804(4)
C82 C -0.3036(4) 0.4895(3) 0.3001(4)
C83 C -0.3156(4) 0.4980(3) 0.3486(4)
C84 C -0.3006(4) 0.5393(3) 0.3770(4)
H86 H -0.3080 0.5443 0.4104
C85 C -0.2746(4) 0.5743(3) 0.3580(4)
C86 C -0.2634(4) 0.5655(3) 0.3097(4)
H87 H -0.2456 0.5886 0.2961
O6 O -0.3199(2) 0.4486(2) 0.2705(3)
C87 C -0.2843(4) 0.4102(3) 0.2897(4)
H88 H -0.2768 0.4055 0.3299
H89 H -0.2518 0.4168 0.2824
C88 C -0.3098(4) 0.3664(3) 0.2581(4)
C89 C -0.2821(4) 0.3252(4) 0.2655(5)
H90 H -0.2479 0.3253 0.2899
N6 N -0.3014(4) 0.2850(3) 0.2398(4)
C90 C -0.3508(5) 0.2850(4) 0.2071(5)
H91 H -0.3658 0.2562 0.1907
C91 C -0.3798(4) 0.3246(4) 0.1969(5)
H92 H -0.4137 0.3237 0.1720
C92 C -0.3598(4) 0.3659(3) 0.2227(4)
H93 H -0.3800 0.3937 0.2164
C93 C -0.2565(4) 0.6194(4) 0.3927(4)
C94 C -0.2353(6) 0.6553(5) 0.3608(6)
H94 H -0.2029 0.6435 0.3575
H95 H -0.2293 0.6853 0.3806
H96 H -0.2600 0.6598 0.3239
C95 C -0.2143(5) 0.6044(4) 0.4470(5)
H97 H -0.1878 0.5864 0.4379
H98 H -0.2296 0.5847 0.4691
H99 H -0.1991 0.6325 0.4681
C96 C -0.3006(5) 0.6417(4) 0.4076(5)
H100 H -0.2882 0.6694 0.4310
H101 H -0.3146 0.6188 0.4277
H102 H -0.3275 0.6513 0.3738
S7 S -0.34013(11) 0.45410(9) 0.38242(10)
C97 C -0.3908(4) 0.4235(3) 0.3328(4)
C98 C -0.4297(4) 0.4455(3) 0.2918(4)
C99 C -0.4702(4) 0.4198(3) 0.2600(4)
C100 C -0.4726(4) 0.3711(3) 0.2690(4)
H103 H -0.5008 0.3534 0.2464
C101 C -0.4340(4) 0.3486(3) 0.3107(4)
C102 C -0.3935(4) 0.3763(3) 0.3417(4)
H104 H -0.3666 0.3618 0.3701
O7 O -0.4267(3) 0.4934(2) 0.2814(3)
C103 C -0.4475(4) 0.5243(3) 0.3123(5)
H105 H -0.4323 0.5178 0.3522
H106 H -0.4850 0.5200 0.3018
C104 C -0.4352(4) 0.5730(3) 0.2999(4)
C105 C -0.4519(4) 0.6101(4) 0.3246(4)
H107 H -0.4709 0.6033 0.3488
N7 N -0.4425(3) 0.6562(3) 0.3159(4)
C106 C -0.4144(5) 0.6640(4) 0.2819(5)
H108 H -0.4070 0.6957 0.2753
C107 C -0.3963(4) 0.6300(4) 0.2571(5)
H109 H -0.3767 0.6373 0.2337
C108 C -0.4070(4) 0.5847(4) 0.2663(5)
H110 H -0.3944 0.5602 0.2490
C109 C -0.4378(4) 0.2957(4) 0.3224(5)
C110 C -0.4669(5) 0.2686(4) 0.2680(5)
H111 H -0.4678 0.2350 0.2761
H112 H -0.4490 0.2733 0.2408
H113 H -0.5019 0.2807 0.2531
C111 C -0.4682(6) 0.2889(4) 0.3630(6)
H114 H -0.4765 0.2555 0.3645
H115 H -0.4999 0.3073 0.3505
H116 H -0.4476 0.2996 0.3998
C112 C -0.3862(5) 0.2733(4) 0.3476(6)
H117 H -0.3711 0.2844 0.3856
H118 H -0.3638 0.2820 0.3261
H119 H -0.3900 0.2391 0.3475
S8 S -0.52635(10) 0.44487(9) 0.21371(12)
C113 C -0.5069(3) 0.4858(3) 0.1716(4)
C114 C -0.4794(3) 0.4727(3) 0.1374(3)
C115 C -0.4705(3) 0.5059(4) 0.1014(4)
C116 C -0.4901(4) 0.5508(3) 0.0999(4)
H121 H -0.4825 0.5736 0.0766
C117 C -0.5203(4) 0.5633(3) 0.1311(4)
C118 C -0.5260(4) 0.5319(3) 0.1685(4)
H122 H -0.5435 0.5413 0.1933
O8 O -0.4674(3) 0.4249(2) 0.1326(3)
C119 C -0.5116(5) 0.4008(4) 0.0951(5)
H123 H -0.5403 0.4010 0.1104
H124 H -0.5229 0.4170 0.0589
C120 C -0.4965(4) 0.3522(4) 0.0884(5)
C121 C -0.5137(4) 0.3150(4) 0.1139(5)
H125 H -0.5349 0.3222 0.1357
N8 N -0.5018(4) 0.2693(3) 0.1089(4)
C122 C -0.4720(5) 0.2606(4) 0.0777(6)
H126 H -0.4612 0.2291 0.0755
C123 C -0.4566(6) 0.2935(5) 0.0496(6)
H127 H -0.4381 0.2848 0.0256
C124 C -0.4675(6) 0.3405(4) 0.0552(5)
H128 H -0.4551 0.3642 0.0366
C125 C -0.5479(4) 0.6112(3) 0.1242(4)
C141 C -0.5128(9) 0.6497(7) 0.1113(12)
H150 H -0.5001 0.6707 0.1431
H151 H -0.5326 0.6679 0.0790
H152 H -0.4839 0.6345 0.1037
C142 C -0.5956(8) 0.6038(8) 0.0729(9)
H153 H -0.5869 0.6109 0.0394
H154 H -0.6232 0.6247 0.0750
H155 H -0.6070 0.5710 0.0716
C143 C -0.5625(11) 0.6231(8) 0.1746(8)
H156 H -0.5569 0.6567 0.1827
H157 H -0.5413 0.6047 0.2060
H158 H -0.5986 0.6155 0.1677
Ag1A Ag -0.02284(4) -0.25605(3) 0.15864(4)
Ag3_2 Ag -0.24841(3) 0.72738(3) 0.25175(3)
Ag4A Ag -0.52988(4) 0.21259(3) 0.14638(4)
N2A N 0.0500(3) 0.3008(3) 0.3040(4)
N5_2 N -0.3106(3) -0.3066(3) 0.1911(3)
N8A N -0.4982(4) 0.7693(3) 0.3911(4)
Sb1 Sb 0.14269(3) 0.15126(3) 0.29372(3)
F1 F 0.1874(3) 0.1399(3) 0.2522(3)
F2 F 0.1918(4) 0.1314(5) 0.3560(4)
F3 F 0.0965(4) 0.1666(4) 0.3314(5)
F4 F 0.0943(3) 0.1729(5) 0.2300(4)
F5 F 0.1698(5) 0.2118(3) 0.3074(6)
F6 F 0.1143(4) 0.0931(3) 0.2774(5)
Sb2 Sb 0.35328(3) 0.30743(3) 0.19901(4)
F7 F 0.4040(3) 0.2858(4) 0.2621(5)
F8 F 0.3237(4) 0.2485(3) 0.1921(5)
F9 F 0.3824(5) 0.3664(3) 0.2120(5)
F10 F 0.3018(4) 0.3267(5) 0.1373(4)
F11 F 0.3132(3) 0.3210(3) 0.2446(4)
F12 F 0.3943(5) 0.2867(4) 0.1589(6)
Sb3 Sb 0.88310(4) 0.32762(3) 0.31644(5)
F13 F 0.9369(5) 0.3645(4) 0.3650(5)
F14 F 0.8353(5) 0.3649(5) 0.3379(6)
F15 F 0.9326(5) 0.2896(5) 0.3035(6)
F16 F 0.8306(5) 0.2924(4) 0.2733(5)
F17 F 0.8879(5) 0.2885(4) 0.3788(5)
F18 F 0.8799(5) 0.3674(4) 0.2593(5)
Sb4 Sb 0.61543(3) 0.13293(3) 0.19166(4)
F19 F 0.6381(6) 0.1623(5) 0.2650(5)
F20 F 0.5660(5) 0.1795(4) 0.1721(6)
F21 F 0.5965(6) 0.1049(5) 0.1261(5)
F22 F 0.6671(5) 0.0869(4) 0.2205(6)
F23 F 0.5713(5) 0.0952(5) 0.2177(6)
F24 F 0.6622(5) 0.1714(5) 0.1735(6)
C129 C 0.9170(8) 0.5270(6) 0.3276(7)
H138 H 0.9181 0.5431 0.2932
Cl1 Cl 0.9790(2) 0.5300(2) 0.3773(3)
Cl2 Cl 0.9011(2) 0.4685(2) 0.3124(3)
Cl3 Cl 0.8727(2) 0.5555(3) 0.3512(3)
C130 C 0.7917(11) 0.2873(7) 0.4283(9)
H139 H 0.8169 0.3020 0.4125
Cl4 Cl 0.8288(6) 0.2674(3) 0.4925(3)
Cl5 Cl 0.7637(4) 0.2464(2) 0.3833(3)
Cl6 Cl 0.7508(3) 0.3324(3) 0.4299(4)
C131 C 0.1737(6) 0.0222(5) 0.4029(7)
H140 H 0.1627 0.0544 0.3882
Cl7 Cl 0.23912(18) 0.02265(16) 0.4359(2)
Cl8 Cl 0.15825(16) -0.01794(19) 0.3473(2)
Cl9 Cl 0.14047(19) 0.0063(2) 0.4482(2)
C132 C 0.4098(7) 0.4323(5) 0.3251(6)
H141 H 0.4050 0.4173 0.2884
Cl10 Cl 0.4719(3) 0.4203(3) 0.3687(3)
Cl11 Cl 0.3649(2) 0.4097(2) 0.3527(2)
Cl12 Cl 0.4022(2) 0.49210(17) 0.3161(2)
C133 C 0.3275(5) 0.1835(5) 0.5120(6)
H142 H 0.3107 0.1855 0.5412
Cl13 Cl 0.36695(16) 0.13512(14) 0.52396(17)
Cl14 Cl 0.28047(15) 0.18001(18) 0.44710(15)
Cl15 Cl 0.3644(3) 0.23509(18) 0.5139(3)
C134 C 0.1615(6) 0.1941(9) 0.4746(7)
H143 H 0.1752 0.1988 0.4432
Cl16 Cl 0.1414(3) 0.1335(3) 0.4746(2)
Cl17 Cl 0.21066(17) 0.2069(3) 0.53684(19)
Cl18 Cl 0.1120(2) 0.2298(3) 0.4658(2)
C135 C 0.6643(5) 0.9488(5) 0.3890(6)
H144 H 0.6457 0.9182 0.3786
Cl19 Cl 0.63842(15) 0.97902(12) 0.43594(17)
Cl20 Cl 0.65404(15) 0.98177(16) 0.33003(17)
Cl21 Cl 0.72796(16) 0.93697(16) 0.4209(2)
C136 C 0.9774(11) 0.6271(10) 0.5245(10)
H145 H 1.0100 0.6095 0.5419
Cl22 Cl 0.9501(7) 0.6242(7) 0.4539(6)
Cl23 Cl 0.9245(8) 0.6127(7) 0.5438(6)
Cl24 Cl 0.9790(7) 0.6873(7) 0.5267(7)
C137 C 0.4483(8) 0.1464(9) 0.9855(9)
H146 H 0.4317 0.1186 0.9627
Cl25 Cl 0.4366(5) 0.1929(3) 0.9424(4)
Cl26 Cl 0.5109(4) 0.1314(4) 1.0164(6)
Cl27 Cl 0.4186(4) 0.1535(2) 1.0344(3)
C138 C 0.696(2) 0.1506(12) 0.0604(11)
H147 H 0.6796 0.1356 0.0861
Cl28 Cl 0.7387(4) 0.1137(4) 0.0563(4)
Cl29 Cl 0.7253(5) 0.2014(4) 0.0946(5)
Cl30 Cl 0.6459(5) 0.1551(8) -0.0029(4)
C139 C 0.6546(8) 0.0044(9) 0.0164(8)
H148 H 0.6498 0.0289 -0.0129
Cl31 Cl 0.6208(6) -0.0422(4) -0.0139(4)
Cl32 Cl 0.7167(5) -0.0110(5) 0.0361(5)
Cl33 Cl 0.6366(6) 0.0300(3) 0.0687(5)
C140 C 0.1290(8) 0.9428(7) 0.0498(7)
H149 H 0.1196 0.9375 0.0840
Cl34 Cl 0.1200(3) 0.8903(3) 0.0135(3)
Cl35 Cl 0.1912(3) 0.9645(3) 0.0698(4)
Cl36 Cl 0.0876(3) 0.9861(3) 0.0104(3)
H120? H 0.4458 -0.0210 0.3337
C126? C 0.6057(6) 0.1040(7) 0.3818(9)
H129? H 0.6087 0.0929 0.3467
H130? H 0.6207 0.0806 0.4106
H131? H 0.6240 0.1339 0.3919
C127? C 0.5457(8) 0.1379(7) 0.4278(7)
H132? H 0.5748 0.1595 0.4403
H133? H 0.5472 0.1152 0.4572
H134? H 0.5137 0.1558 0.4189
C128? C 0.5234(7) 0.1413(7) 0.3238(7)
H135? H 0.5448 0.1690 0.3244
H136? H 0.4892 0.1515 0.3231
H137? H 0.5205 0.1226 0.2908
F25? F 0.9210(7) 0.3725(6) 0.2926(8)
F26? F 0.8527(7) 0.3698(6) 0.3486(8)
F27? F 0.9152(7) 0.2813(6) 0.2811(8)
F28? F 0.8460(7) 0.2777(6) 0.3331(8)
F29? F 0.9381(6) 0.3178(7) 0.3802(6)
F30? F 0.8321(6) 0.3324(7) 0.2476(6)
F31? F 0.6692(6) 0.1694(6) 0.2321(6)
F32? F 0.6119(7) 0.0978(5) 0.2471(6)
F33? F 0.5581(6) 0.0989(6) 0.1411(6)
F34? F 0.6575(6) 0.1003(6) 0.1594(7)
F35? F 0.5692(6) 0.1675(6) 0.2133(7)
F36? F 0.6148(7) 0.1683(6) 0.1275(5)
loop_
_geom_bond_atom_site_label_1
_geom_bond_atom_site_label_2
_geom_bond_site_symmetry_1
_geom_bond_site_symmetry_2
Ag1 N1 1_555 1_555
Ag2 N3 1_555 1_555
Ag3 N4 1_555 1_555
Ag4 N7 1_555 1_555
S1 C1 1_555 1_555
C1 C2 1_555 1_555
C2 C3 1_555 1_555
C3 C4 1_555 1_555
C4 H1 1_555 1_555
C5 C4 1_555 1_555
C6 C1 1_555 1_555
H2 C6 1_555 1_555
O1 C2 1_555 1_555
C7 O1 1_555 1_555
H3 C7 1_555 1_555
H4 C7 1_555 1_555
C8 C7 1_555 1_555
C9 C8 1_555 1_555
H5 C9 1_555 1_555
N1 C9 1_555 1_555
C10 N1 1_555 1_555
H6 C10 1_555 1_555
C11 C10 1_555 1_555
H7 C11 1_555 1_555
C12 C8 1_555 1_555
H8 C12 1_555 1_555
C13 C5 1_555 1_555
C14 C13 1_555 1_555
H9 C14 1_555 1_555
H10 C14 1_555 1_555
H11 C14 1_555 1_555
C15 C13 1_555 1_555
H12 C15 1_555 1_555
H13 C15 1_555 1_555
H14 C15 1_555 1_555
C16 C13 1_555 1_555
H15 C16 1_555 1_555
H16 C16 1_555 1_555
H17 C16 1_555 1_555
S2 C3 1_555 1_555
C17 S2 1_555 1_555
C18 C17 1_555 1_555
C19 C18 1_555 1_555
C20 C19 1_555 1_555
H18 C20 1_555 1_555
C21 C20 1_555 1_555
C22 C17 1_555 1_555
H19 C22 1_555 1_555
O2 C18 1_555 1_555
C23 O2 1_555 1_555
H20 C23 1_555 1_555
H21 C23 1_555 1_555
C24 C23 1_555 1_555
C25 C24 1_555 1_555
H22 C25 1_555 1_555
N2 C25 1_555 1_555
C26 N2 1_555 1_555
H23 C26 1_555 1_555
C27 C26 1_555 1_555
H24 C27 1_555 1_555
C28 C24 1_555 1_555
H25 C28 1_555 1_555
C29 C21 1_555 1_555
C30 C29 1_555 1_555
H26 C30 1_555 1_555
H27 C30 1_555 1_555
H28 C30 1_555 1_555
C31 C29 1_555 1_555
H29 C31 1_555 1_555
H30 C31 1_555 1_555
H31 C31 1_555 1_555
C32 C29 1_555 1_555
H32 C32 1_555 1_555
H33 C32 1_555 1_555
H34 C32 1_555 1_555
S3 C19 1_555 1_555
C33 S3 1_555 1_555
C34 C33 1_555 1_555
C35 C34 1_555 1_555
C36 C35 1_555 1_555
H35 C36 1_555 1_555
C37 C36 1_555 1_555
C38 C33 1_555 1_555
H36 C38 1_555 1_555
O3 C34 1_555 1_555
C39 O3 1_555 1_555
H37 C39 1_555 1_555
H38 C39 1_555 1_555
C40 C39 1_555 1_555
C41 C40 1_555 1_555
H39 C41 1_555 1_555
N3 C41 1_555 1_555
C42 N3 1_555 1_555
H40 C42 1_555 1_555
C43 C42 1_555 1_555
H41 C43 1_555 1_555
C44 C40 1_555 1_555
H42 C44 1_555 1_555
C45 C37 1_555 1_555
C46 C45 1_555 1_555
H43 C46 1_555 1_555
H44 C46 1_555 1_555
H45 C46 1_555 1_555
C47 C45 1_555 1_555
H46 C47 1_555 1_555
H47 C47 1_555 1_555
H48 C47 1_555 1_555
C48 C45 1_555 1_555
H49 C48 1_555 1_555
H50 C48 1_555 1_555
H51 C48 1_555 1_555
S4 C35 1_555 1_555
C49 S4 1_555 1_555
C50 C49 1_555 1_555
C51 S1 1_555 1_555
C52 C51 1_555 1_555
H52 C52 1_555 1_555
C53 C52 1_555 1_555
C54 C49 1_555 1_555
H53 C54 1_555 1_555
O4 C50 1_555 1_555
C55 O4 1_555 1_555
H54 C55 1_555 1_555
H55 C55 1_555 1_555
C56 C55 1_555 1_555
C57 C56 1_555 1_555
H56 C57 1_555 1_555
N4 C57 1_555 1_555
C58 N4 1_555 1_555
H57 C58 1_555 1_555
C59 C58 1_555 1_555
H58 C59 1_555 1_555
C60 C56 1_555 1_555
H59 C60 1_555 1_555
C61 C53 1_555 1_555
C62 C61 1_555 1_555
H60 C62 1_555 1_555
H61 C62 1_555 1_555
H62 C62 1_555 1_555
C63 C61 1_555 1_555
H63 C63 1_555 1_555
H64 C63 1_555 1_555
H65 C63 1_555 1_555
C64 C61 1_555 1_555
H66 C64 1_555 1_555
H67 C64 1_555 1_555
H68 C64 1_555 1_555
S5 C65 1_555 1_555
C65 C66 1_555 1_555
C66 C67 1_555 1_555
C67 C68 1_555 1_555
C68 H69 1_555 1_555
C69 C68 1_555 1_555
C70 C65 1_555 1_555
H70 C70 1_555 1_555
O5 C66 1_555 1_555
C71 O5 1_555 1_555
H71 C71 1_555 1_555
H72 C71 1_555 1_555
C72 C71 1_555 1_555
C73 C72 1_555 1_555
H73 C73 1_555 1_555
N5 C73 1_555 1_555
C74 N5 1_555 1_555
H74 C74 1_555 1_555
C75 C74 1_555 1_555
H75 C75 1_555 1_555
C76 C72 1_555 1_555
H76 C76 1_555 1_555
C77 C69 1_555 1_555
C78 C77 1_555 1_555
H77 C78 1_555 1_555
H78 C78 1_555 1_555
H79 C78 1_555 1_555
C79 C77 1_555 1_555
H80 C79 1_555 1_555
H81 C79 1_555 1_555
H82 C79 1_555 1_555
C80 C77 1_555 1_555
H83 C80 1_555 1_555
H84 C80 1_555 1_555
H85 C80 1_555 1_555
S6 C67 1_555 1_555
C81 S6 1_555 1_555
C82 C81 1_555 1_555
C83 C82 1_555 1_555
C84 C83 1_555 1_555
H86 C84 1_555 1_555
C85 C84 1_555 1_555
C86 C81 1_555 1_555
H87 C86 1_555 1_555
O6 C82 1_555 1_555
C87 O6 1_555 1_555
H88 C87 1_555 1_555
H89 C87 1_555 1_555
C88 C87 1_555 1_555
C89 C88 1_555 1_555
H90 C89 1_555 1_555
N6 Ag2 1_555 1_555
C90 N6 1_555 1_555
H91 C90 1_555 1_555
C91 C90 1_555 1_555
H92 C91 1_555 1_555
C92 C88 1_555 1_555
H93 C92 1_555 1_555
C93 C85 1_555 1_555
C94 C93 1_555 1_555
H94 C94 1_555 1_555
H95 C94 1_555 1_555
H96 C94 1_555 1_555
C95 C93 1_555 1_555
H97 C95 1_555 1_555
H98 C95 1_555 1_555
H99 C95 1_555 1_555
C96 C93 1_555 1_555
H100 C96 1_555 1_555
H101 C96 1_555 1_555
H102 C96 1_555 1_555
S7 C83 1_555 1_555
C97 S7 1_555 1_555
C98 C97 1_555 1_555
C99 C98 1_555 1_555
C100 C99 1_555 1_555
H103 C100 1_555 1_555
C101 C100 1_555 1_555
C102 C97 1_555 1_555
H104 C102 1_555 1_555
O7 C98 1_555 1_555
C103 O7 1_555 1_555
H105 C103 1_555 1_555
H106 C103 1_555 1_555
C104 C103 1_555 1_555
C105 C104 1_555 1_555
H107 C105 1_555 1_555
N7 C105 1_555 1_555
C106 N7 1_555 1_555
H108 C106 1_555 1_555
C107 C106 1_555 1_555
H109 C107 1_555 1_555
C108 C104 1_555 1_555
H110 C108 1_555 1_555
C109 C101 1_555 1_555
C110 C109 1_555 1_555
H111 C110 1_555 1_555
H112 C110 1_555 1_555
H113 C110 1_555 1_555
C111 C109 1_555 1_555
H114 C111 1_555 1_555
H115 C111 1_555 1_555
H116 C111 1_555 1_555
C112 C109 1_555 1_555
H117 C112 1_555 1_555
H118 C112 1_555 1_555
H119 C112 1_555 1_555
S8 C99 1_555 1_555
C113 S8 1_555 1_555
C114 C113 1_555 1_555
C115 S5 1_555 1_555
C116 C115 1_555 1_555
H121 C116 1_555 1_555
C117 C116 1_555 1_555
C118 C113 1_555 1_555
H122 C118 1_555 1_555
O8 C114 1_555 1_555
C119 O8 1_555 1_555
H123 C119 1_555 1_555
H124 C119 1_555 1_555
C120 C119 1_555 1_555
C121 C120 1_555 1_555
H125 C121 1_555 1_555
N8 C121 1_555 1_555
C122 N8 1_555 1_555
H126 C122 1_555 1_555
C123 C122 1_555 1_555
H127 C123 1_555 1_555
C124 C120 1_555 1_555
H128 C124 1_555 1_555
C125 C117 1_555 1_555
Sb1 F1 1_555 1_555
F2 Sb1 1_555 1_555
F3 Sb1 1_555 1_555
F4 Sb1 1_555 1_555
F5 Sb1 1_555 1_555
F6 Sb1 1_555 1_555
Sb2 F7 1_555 1_555
F8 Sb2 1_555 1_555
F9 Sb2 1_555 1_555
F10 Sb2 1_555 1_555
F11 Sb2 1_555 1_555
F12 Sb2 1_555 1_555
Sb3 F13 1_555 1_555
F14 Sb3 1_555 1_555
F15 Sb3 1_555 1_555
F16 Sb3 1_555 1_555
F17 Sb3 1_555 1_555
F18 Sb3 1_555 1_555
Sb4 F19 1_555 1_555
F20 Sb4 1_555 1_555
F21 Sb4 1_555 1_555
F22 Sb4 1_555 1_555
F23 Sb4 1_555 1_555
F24 Sb4 1_555 1_555
C129 H138 1_555 1_555
Cl1 C129 1_555 1_555
Cl2 C129 1_555 1_555
Cl3 C129 1_555 1_555
C130 H139 1_555 1_555
Cl4 C130 1_555 1_555
Cl5 C130 1_555 1_555
Cl6 C130 1_555 1_555
C131 H140 1_555 1_555
Cl7 C131 1_555 1_555
Cl8 C131 1_555 1_555
Cl9 C131 1_555 1_555
C132 H141 1_555 1_555
Cl10 C132 1_555 1_555
Cl11 C132 1_555 1_555
Cl12 C132 1_555 1_555
C133 H142 1_555 1_555
Cl13 C133 1_555 1_555
Cl14 C133 1_555 1_555
Cl15 C133 1_555 1_555
C134 H143 1_555 1_555
Cl16 C134 1_555 1_555
Cl17 C134 1_555 1_555
Cl18 C134 1_555 1_555
C135 H144 1_555 1_555
Cl19 C135 1_555 1_555
Cl20 C135 1_555 1_555
Cl21 C135 1_555 1_555
C136 H145 1_555 1_555
Cl22 C136 1_555 1_555
Cl23 C136 1_555 1_555
Cl24 C136 1_555 1_555
C137 H146 1_555 1_555
Cl25 C137 1_555 1_555
Cl26 C137 1_555 1_555
Cl27 C137 1_555 1_555
C138 H147 1_555 1_555
Cl28 C138 1_555 1_555
Cl29 C138 1_555 1_555
Cl30 C138 1_555 1_555
C139 H148 1_555 1_555
Cl31 C139 1_555 1_555
Cl32 C139 1_555 1_555
Cl33 C139 1_555 1_555
C140 H149 1_555 1_555
Cl34 C140 1_555 1_555
Cl35 C140 1_555 1_555
Cl36 C140 1_555 1_555
C141 C125 1_555 1_555
H150 C141 1_555 1_555
H151 C141 1_555 1_555
H152 C141 1_555 1_555
C142 C125 1_555 1_555
H153 C142 1_555 1_555
H154 C142 1_555 1_555
H155 C142 1_555 1_555
C143 C125 1_555 1_555
H156 C143 1_555 1_555
H157 C143 1_555 1_555
H158 C143 1_555 1_555
Ag1A N2 1_555 1_555
Ag3_2 N5 1_555 1_555
Ag4A N8 1_555 1_555
N2A Ag1 1_555 1_555
N5_2 Ag3 1_555 1_555
N8A Ag4 1_555 1_555
C5 C6 1_555 1_555
C11 C12 1_555 1_555
C21 C22 1_555 1_555
C27 C28 1_555 1_555
C37 C38 1_555 1_555
C43 C44 1_555 1_555
C50 C51 1_555 1_555
C53 C54 1_555 1_555
C59 C60 1_555 1_555
C69 C70 1_555 1_555
C75 C76 1_555 1_555
C85 C86 1_555 1_555
C89 N6 1_555 1_555
C91 C92 1_555 1_555
C101 C102 1_555 1_555
C107 C108 1_555 1_555
C114 C115 1_555 1_555
C117 C118 1_555 1_555
C123 C124 1_555 1_555

#END
