
#######################################################################
#
#                 Cambridge Crystallographic Data Centre
#                                CCDC 
#
#######################################################################
#
# If this CIF has been generated from an entry in the Cambridge 
# Structural Database, then it will include bibliographic, chemical, 
# crystal, experimental, refinement or atomic coordinate data resulting 
# from the CCDC's data processing and validation procedures.
#
#######################################################################

data_PEMHAS
_symmetry_cell_setting           monoclinic
_symmetry_space_group_name_H-M   'C c'
_symmetry_Int_Tables_number      9
_space_group_name_Hall           'C -2yc'
loop_
_symmetry_equiv_pos_site_id
_symmetry_equiv_pos_as_xyz
1 x,y,z
2 x,-y,1/2+z
3 1/2+x,1/2+y,z
4 1/2+x,1/2-y,1/2+z
_cell_length_a                   27.8405(11)
_cell_length_b                   14.2705(4)
_cell_length_c                   22.4525(6)
_cell_angle_alpha                90
_cell_angle_beta                 102.331(2)
_cell_angle_gamma                90
_cell_volume                     8714.54
loop_
_atom_site_label
_atom_site_type_symbol
_atom_site_fract_x
_atom_site_fract_y
_atom_site_fract_z
Ag1 Ag 0.61918(4) -0.18957(9) 0.54469(5)
Ag2 Ag 1.18694(3) -0.09764(8) 0.65965(5)
S1 S 0.85485(10) 0.0191(2) 0.43286(12)
C1 C 0.8963(4) -0.0618(9) 0.4771(5)
C2 C 0.8883(4) -0.1072(8) 0.5280(5)
C3 C 0.9174(4) -0.1820(8) 0.5535(5)
C4 C 0.9552(4) -0.2125(9) 0.5258(6)
H1 H 0.9751 -0.2640 0.5429
C5 C 0.9644(4) -0.1687(10) 0.4731(6)
C6 C 0.9354(4) -0.0923(9) 0.4495(5)
H2 H 0.9417 -0.0602 0.4149
O1 O 0.8511(3) -0.0760(6) 0.5556(4)
C7 C 0.8062(4) -0.1281(10) 0.5333(6)
H3 H 0.8127 -0.1961 0.5383
H4 H 0.7937 -0.1150 0.4895
C8 C 0.7689(4) -0.0992(8) 0.5688(6)
C9 C 0.7229(4) -0.1418(8) 0.5545(6)
H5 H 0.7177 -0.1873 0.5228
N1 N 0.6861(4) -0.1247(9) 0.5808(5)
C10 C 0.6955(5) -0.0585(10) 0.6257(7)
H6 H 0.6701 -0.0460 0.6470
C11 C 0.7373(4) -0.0098(10) 0.6423(6)
H7 H 0.7408 0.0370 0.6730
C12 C 0.7763(4) -0.0305(9) 0.6123(6)
H8 H 0.8066 0.0025 0.6223
C13 C 1.0027(5) -0.2074(11) 0.4404(6)
C14 C 1.0470(11) -0.264(2) 0.4823(12)
H9 H 1.0726 -0.2194 0.5016
H10 H 1.0609 -0.3080 0.4571
H11 H 1.0348 -0.2980 0.5138
C15 C 0.9764(7) -0.2572(13) 0.3839(9)
H12 H 0.9994 -0.2698 0.3575
H13 H 0.9495 -0.2177 0.3622
H14 H 0.9630 -0.3165 0.3953
C16 C 1.0332(5) -0.1317(16) 0.4236(6)
H15 H 1.0142 -0.0969 0.3888
H16 H 1.0625 -0.1586 0.4126
H17 H 1.0432 -0.0891 0.4583
S2 S 0.90502(13) -0.2569(2) 0.60989(15)
C17 C 0.8860(4) -0.1867(8) 0.6660(5)
C18 C 0.9126(4) -0.1083(7) 0.6906(5)
C19 C 0.9018(4) -0.0681(8) 0.7425(5)
C20 C 0.8627(4) -0.1028(8) 0.7668(5)
H18 H 0.8547 -0.0732 0.8013
C21 C 0.8353(4) -0.1806(9) 0.7406(5)
C22 C 0.8481(5) -0.2206(8) 0.6921(5)
H19 H 0.8305 -0.2745 0.6746
O2 O 0.9495(3) -0.0708(5) 0.6668(4)
C23 C 0.9964(5) -0.1090(9) 0.6861(6)
H20 H 0.9949 -0.1780 0.6813
H21 H 1.0092 -0.0945 0.7297
C24 C 1.0300(4) -0.0682(8) 0.6485(5)
C25 C 1.0793(4) -0.0867(9) 0.6631(6)
H22 H 1.0910 -0.1250 0.6978
N2 N 1.1117(3) -0.0557(7) 0.6331(5)
C26 C 1.0952(4) -0.0068(10) 0.5814(6)
H23 H 1.1176 0.0119 0.5571
C27 C 1.0449(4) 0.0168(9) 0.5632(6)
H24 H 1.0334 0.0533 0.5276
C28 C 1.0131(4) -0.0137(9) 0.5977(5)
H25 H 0.9793 0.0027 0.5866
C29 C 0.7940(6) -0.2216(12) 0.7705(7)
C30 C 0.7535(6) -0.2677(13) 0.7201(6)
H26 H 0.7326 -0.3079 0.7392
H27 H 0.7691 -0.3054 0.6930
H28 H 0.7334 -0.2186 0.6964
S3 S 0.93929(10) 0.0192(2) 0.78571(13)
C31 C 0.9500(4) 0.1073(7) 0.7338(5)
C32 C 0.9118(4) 0.1561(8) 0.6957(5)
C33 C 0.9250(5) 0.2280(8) 0.6576(6)
C34 C 0.9721(5) 0.2529(9) 0.6652(6)
H29 H 0.9800 0.3011 0.6397
C35 C 1.0116(4) 0.2126(8) 0.7089(5)
C36 C 0.9977(4) 0.1372(9) 0.7403(5)
H30 H 1.0227 0.1043 0.7679
O3 O 0.8639(3) 0.1290(6) 0.6891(4)
C37 C 0.8428(5) 0.1560(11) 0.7393(7)
H31 H 0.8673 0.1462 0.7778
H32 H 0.8142 0.1152 0.7402
C38 C 0.8257(5) 0.2605(12) 0.7357(7)
C39 C 0.7775(5) 0.2792(11) 0.7061(7)
H33 H 0.7559 0.2291 0.6908
N3 N 0.7617(4) 0.3681(10) 0.6991(7)
C40 C 0.7917(6) 0.4372(14) 0.7192(12)
H34 H 0.7801 0.4999 0.7155
C41 C 0.8424(7) 0.4183(17) 0.7468(14)
H35 H 0.8666 0.4661 0.7548
C42 C 0.8529(7) 0.3266(17) 0.7604(12)
H36 H 0.8818 0.3118 0.7898
C43 C 1.0646(7) 0.2470(14) 0.7167(8)
C44 C 1.0918(7) 0.1770(14) 0.6906(8)
H37 H 1.0704 0.1492 0.6546
H38 H 1.1032 0.1279 0.7209
H39 H 1.1201 0.2065 0.6788
C45 C 1.0735(6) 0.3356(14) 0.6796(8)
H40 H 1.0734 0.3917 0.7048
H41 H 1.0473 0.3406 0.6428
H42 H 1.1054 0.3301 0.6680
C46 C 1.0869(7) 0.2604(14) 0.7829(8)
H43 H 1.0763 0.2096 0.8065
H44 H 1.0762 0.3206 0.7966
H45 H 1.1228 0.2596 0.7890
S4 S 0.88038(15) 0.2956(2) 0.60976(17)
C47 C 0.8433(4) 0.2129(8) 0.5578(5)
C48 C 0.8636(4) 0.1549(9) 0.5240(6)
C49 C 0.8322(4) 0.0905(8) 0.4821(5)
C50 C 0.7823(4) 0.1036(8) 0.4760(5)
H46 H 0.7604 0.0646 0.4485
C51 C 0.7623(4) 0.1727(8) 0.5091(5)
C52 C 0.7930(5) 0.2213(9) 0.5498(6)
H47 H 0.7801 0.2640 0.5748
O4 O 0.9148(3) 0.1524(6) 0.5244(4)
C53 C 0.9241(5) 0.2241(11) 0.4836(8)
H48 H 0.9247 0.2863 0.5033
H49 H 0.8978 0.2243 0.4461
C54 C 0.9724(5) 0.2044(11) 0.4682(8)
C55 C 1.0140(5) 0.2456(10) 0.5025(7)
H50 H 1.0102 0.2857 0.5349
N4 N 1.0594(4) 0.2328(8) 0.4931(6)
C56 C 1.0641(6) 0.1810(10) 0.4446(7)
H51 H 1.0959 0.1750 0.4358
C57 C 1.0262(6) 0.1371(11) 0.4077(8)
H52 H 1.0313 0.0988 0.3750
C58 C 0.9790(5) 0.1500(11) 0.4193(7)
H53 H 0.9514 0.1212 0.3936
C59 C 0.7069(4) 0.1915(10) 0.4924(5)
C60 C 0.6769(6) 0.0959(16) 0.4868(11)
H54 H 0.6989 0.0435 0.4835
H55 H 0.6502 0.0979 0.4504
H56 H 0.6630 0.0875 0.5230
C61 C 0.6918(7) 0.2472(17) 0.5433(10)
H57 H 0.6567 0.2375 0.5417
H58 H 0.6980 0.3139 0.5380
H59 H 0.7110 0.2259 0.5828
C62 C 0.6921(6) 0.2398(17) 0.4360(10)
H60 H 0.7203 0.2732 0.4266
H61 H 0.6661 0.2848 0.4391
H62 H 0.6796 0.1947 0.4035
C67 C 0.8140(10) -0.281(2) 0.8248(12)
H67 H 0.8440 -0.2523 0.8486
H68 H 0.8216 -0.3436 0.8114
H69 H 0.7895 -0.2861 0.8502
C68 C 0.7661(10) -0.1326(18) 0.7918(16)
H70 H 0.7311 -0.1471 0.7872
H71 H 0.7699 -0.0782 0.7666
H72 H 0.7804 -0.1186 0.8347
Ag1B Ag 1.11918(4) 0.31043(9) 0.54469(5)
Ag2B Ag 0.68694(3) 0.40236(8) 0.65965(5)
N3B N 1.2617(4) -0.1319(10) 0.6991(7)
N4B N 0.5594(4) -0.2672(8) 0.4931(6)
P1 P 0.09929(17) 0.6436(3) 0.6722(2)
F7 F 0.1502(6) 0.7073(16) 0.6918(13)
F8 F 0.0765(11) 0.7244(14) 0.6228(9)
F9 F 0.1219(11) 0.5880(19) 0.6188(11)
F10 F 0.0470(6) 0.5820(17) 0.6509(13)
F11 F 0.1227(11) 0.5602(14) 0.7219(10)
F12 F 0.0754(9) 0.6943(15) 0.7258(9)
P2 P 0.23040(19) 0.0715(3) 0.5422(3)
F1 F 0.2153(6) 0.0766(11) 0.6126(6)
F2 F 0.1851(5) 0.1438(10) 0.5163(7)
F3 F 0.1932(5) -0.0209(9) 0.5233(8)
F4 F 0.2498(6) 0.0571(11) 0.4785(6)
F5 F 0.2775(5) -0.0036(10) 0.5755(8)
F6 F 0.2687(5) 0.1604(9) 0.5644(8)
C63 C 0.3646(17) 0.032(3) 0.489(2)
H63 H 0.3456 0.0414 0.5219
Cl1 Cl 0.4239(4) 0.0225(8) 0.5253(6)
Cl2 Cl 0.3581(4) 0.1422(8) 0.4438(6)
Cl3 Cl 0.3392(4) -0.0631(8) 0.4490(6)
C64 C 0.6750(19) 0.460(3) 0.854(3)
H64 H 0.7015 0.4478 0.8911
Cl4 Cl 0.6309(5) 0.5270(7) 0.8897(7)
Cl5 Cl 0.6824(5) 0.3490(8) 0.8068(7)
Cl6 Cl 0.7059(5) 0.5361(8) 0.8152(7)
C65 C 0.481(2) 0.065(3) 0.777(2)
H65 H 0.5144 0.0735 0.7669
Cl7 Cl 0.4642(5) 0.1733(8) 0.7861(6)
Cl8 Cl 0.4865(5) -0.0277(7) 0.8078(6)
Cl9 Cl 0.4399(5) 0.0296(8) 0.6961(6)
O5 O 0.5523(9) 0.9511(14) 0.5391(11)
C66 C 0.1993(9) 0.6716(19) 0.8521(16)
H66 H 0.1809 0.6951 0.8117
Cl10 Cl 0.1567(6) 0.6474(12) 0.8981(7)
Cl11 Cl 0.2479(6) 0.7452(11) 0.8783(7)
Cl12 Cl 0.2323(6) 0.5749(11) 0.8405(7)
C69? C 0.8241(13) -0.304(3) 0.809(2)
C70? C 0.7721(13) -0.159(4) 0.813(2)
F13? F 0.0506(6) 0.6980(13) 0.6342(8)
F14? F 0.0641(7) 0.5573(10) 0.6859(9)
F15? F 0.1050(8) 0.5947(12) 0.6075(6)
F16? F 0.1493(5) 0.5874(12) 0.7052(8)
F17? F 0.1334(7) 0.7301(10) 0.6562(9)
F18? F 0.0959(8) 0.6950(13) 0.7355(6)
H73? H 0.8569 -0.2814 0.8282
H74? H 0.8270 -0.3564 0.7816
H75? H 0.8068 -0.3249 0.8401
H76? H 0.7848 -0.0951 0.8114
H77? H 0.7813 -0.1831 0.8545
H78? H 0.7362 -0.1585 0.7995
loop_
_geom_bond_atom_site_label_1
_geom_bond_atom_site_label_2
_geom_bond_site_symmetry_1
_geom_bond_site_symmetry_2
Ag1 N1 1_555 1_555
Ag2 N2 1_555 1_555
S1 C1 1_555 1_555
C1 C2 1_555 1_555
C2 C3 1_555 1_555
C3 C4 1_555 1_555
C4 H1 1_555 1_555
C5 C4 1_555 1_555
C6 C1 1_555 1_555
H2 C6 1_555 1_555
O1 C2 1_555 1_555
C7 O1 1_555 1_555
H3 C7 1_555 1_555
H4 C7 1_555 1_555
C8 C7 1_555 1_555
C9 C8 1_555 1_555
H5 C9 1_555 1_555
N1 C9 1_555 1_555
C10 N1 1_555 1_555
H6 C10 1_555 1_555
C11 C10 1_555 1_555
H7 C11 1_555 1_555
C12 C8 1_555 1_555
H8 C12 1_555 1_555
C13 C5 1_555 1_555
C14 C13 1_555 1_555
H9 C14 1_555 1_555
H10 C14 1_555 1_555
H11 C14 1_555 1_555
C15 C13 1_555 1_555
H12 C15 1_555 1_555
H13 C15 1_555 1_555
H14 C15 1_555 1_555
C16 C13 1_555 1_555
H15 C16 1_555 1_555
H16 C16 1_555 1_555
H17 C16 1_555 1_555
S2 C3 1_555 1_555
C17 S2 1_555 1_555
C18 C17 1_555 1_555
C19 C18 1_555 1_555
C20 C19 1_555 1_555
H18 C20 1_555 1_555
C21 C20 1_555 1_555
C22 C17 1_555 1_555
H19 C22 1_555 1_555
O2 C18 1_555 1_555
C23 O2 1_555 1_555
H20 C23 1_555 1_555
H21 C23 1_555 1_555
C24 C23 1_555 1_555
C25 C24 1_555 1_555
H22 C25 1_555 1_555
N2 C25 1_555 1_555
C26 N2 1_555 1_555
H23 C26 1_555 1_555
C27 C26 1_555 1_555
H24 C27 1_555 1_555
C28 C24 1_555 1_555
H25 C28 1_555 1_555
C29 C21 1_555 1_555
C30 C29 1_555 1_555
H26 C30 1_555 1_555
H27 C30 1_555 1_555
H28 C30 1_555 1_555
S3 C19 1_555 1_555
C31 S3 1_555 1_555
C32 C31 1_555 1_555
C33 C32 1_555 1_555
C34 C33 1_555 1_555
H29 C34 1_555 1_555
C35 C34 1_555 1_555
C36 C31 1_555 1_555
H30 C36 1_555 1_555
O3 C32 1_555 1_555
C37 O3 1_555 1_555
H31 C37 1_555 1_555
H32 C37 1_555 1_555
C38 C37 1_555 1_555
C39 C38 1_555 1_555
H33 C39 1_555 1_555
N3 C39 1_555 1_555
C40 N3 1_555 1_555
H34 C40 1_555 1_555
C41 C40 1_555 1_555
H35 C41 1_555 1_555
C42 C38 1_555 1_555
H36 C42 1_555 1_555
C43 C35 1_555 1_555
C44 C43 1_555 1_555
H37 C44 1_555 1_555
H38 C44 1_555 1_555
H39 C44 1_555 1_555
C45 C43 1_555 1_555
H40 C45 1_555 1_555
H41 C45 1_555 1_555
H42 C45 1_555 1_555
C46 C43 1_555 1_555
H43 C46 1_555 1_555
H44 C46 1_555 1_555
H45 C46 1_555 1_555
S4 C33 1_555 1_555
C47 S4 1_555 1_555
C48 C47 1_555 1_555
C49 S1 1_555 1_555
C50 C49 1_555 1_555
H46 C50 1_555 1_555
C51 C50 1_555 1_555
C52 C47 1_555 1_555
H47 C52 1_555 1_555
O4 C48 1_555 1_555
C53 O4 1_555 1_555
H48 C53 1_555 1_555
H49 C53 1_555 1_555
C54 C53 1_555 1_555
C55 C54 1_555 1_555
H50 C55 1_555 1_555
N4 C55 1_555 1_555
C56 N4 1_555 1_555
H51 C56 1_555 1_555
C57 C56 1_555 1_555
H52 C57 1_555 1_555
C58 C54 1_555 1_555
H53 C58 1_555 1_555
C59 C51 1_555 1_555
C60 C59 1_555 1_555
H54 C60 1_555 1_555
H55 C60 1_555 1_555
H56 C60 1_555 1_555
C61 C59 1_555 1_555
H57 C61 1_555 1_555
H58 C61 1_555 1_555
H59 C61 1_555 1_555
C62 C59 1_555 1_555
H60 C62 1_555 1_555
H61 C62 1_555 1_555
H62 C62 1_555 1_555
P1 F7 1_555 1_555
P2 F1 1_555 1_555
F2 P2 1_555 1_555
F3 P2 1_555 1_555
F4 P2 1_555 1_555
F5 P2 1_555 1_555
F6 P2 1_555 1_555
C63 H63 1_555 1_555
Cl1 C63 1_555 1_555
Cl2 C63 1_555 1_555
Cl3 C63 1_555 1_555
C64 H64 1_555 1_555
Cl4 C64 1_555 1_555
Cl5 C64 1_555 1_555
Cl6 C64 1_555 1_555
C65 H65 1_555 1_555
Cl7 C65 1_555 1_555
Cl8 C65 1_555 1_555
Cl9 C65 1_555 1_555
C66 H66 1_555 1_555
Cl10 C66 1_555 1_555
Cl11 C66 1_555 1_555
Cl12 C66 1_555 1_555
C67 C29 1_555 1_555
H67 C67 1_555 1_555
H68 C67 1_555 1_555
H69 C67 1_555 1_555
C68 C29 1_555 1_555
H70 C68 1_555 1_555
H71 C68 1_555 1_555
H72 C68 1_555 1_555
F8 P1 1_555 1_555
F9 P1 1_555 1_555
F10 P1 1_555 1_555
F11 P1 1_555 1_555
F12 P1 1_555 1_555
Ag1B N4 1_555 1_555
Ag2B N3 1_555 1_555
N3B Ag2 1_555 1_555
N4B Ag1 1_555 1_555
C5 C6 1_555 1_555
C11 C12 1_555 1_555
C21 C22 1_555 1_555
C27 C28 1_555 1_555
C35 C36 1_555 1_555
C41 C42 1_555 1_555
C48 C49 1_555 1_555
C51 C52 1_555 1_555
C57 C58 1_555 1_555

#END
