
#######################################################################
#
#                 Cambridge Crystallographic Data Centre
#                                CCDC 
#
#######################################################################
#
# If this CIF has been generated from an entry in the Cambridge 
# Structural Database, then it will include bibliographic, chemical, 
# crystal, experimental, refinement or atomic coordinate data resulting 
# from the CCDC's data processing and validation procedures.
#
#######################################################################

data_PEMKAV
_symmetry_cell_setting           monoclinic
_symmetry_space_group_name_H-M   'C 2/c'
_symmetry_Int_Tables_number      15
_space_group_name_Hall           '-C 2yn'
loop_
_symmetry_equiv_pos_site_id
_symmetry_equiv_pos_as_xyz
1 x,y,z
2 -x,y,1/2-z
3 1/2+x,1/2+y,z
4 1/2-x,1/2+y,1/2-z
5 -x,-y,-z
6 x,-y,1/2+z
7 1/2-x,1/2-y,-z
8 1/2+x,1/2-y,1/2+z
_cell_length_a                   30.324(3)
_cell_length_b                   14.1543(4)
_cell_length_c                   11.9424(4)
_cell_angle_alpha                90
_cell_angle_beta                 112.35(2)
_cell_angle_gamma                90
_cell_volume                     4740.79
loop_
_atom_site_label
_atom_site_type_symbol
_atom_site_fract_x
_atom_site_fract_y
_atom_site_fract_z
O1 O -0.1181(5) 0.5174(9) -0.3667(13)
O2 O 0.0000 0.2836(15) -0.2500
C1 C -0.0421(7) 0.2315(12) 0.0771(16)
H1 H -0.0702 0.2002 0.0680
C2 C 0.0493(8) 0.2325(10) 0.1365(18)
H2 H 0.0796 0.2063 0.1724
C3 C -0.0422(8) 0.3302(14) 0.0551(18)
H3 H -0.0709 0.3631 0.0322
C4 C 0.0400(7) 0.3275(13) 0.0946(19)
H4 H 0.0651 0.3592 0.0849
C5 C -0.0017(8) 0.3785(13) 0.067(2)
C6 C -0.0029(9) 0.4884(15) 0.058(2)
Co1 Co 0.0000 0.0000 0.0000
Fe1 Fe -0.13490(4) 0.10254(9) -0.37656(10)
N1 N -0.0509(3) 0.0805(6) -0.1359(6)
N2 N 0.0030(4) 0.1797(13) 0.1144(12)
N3 N -0.1462(3) -0.1140(7) -0.3668(9)
N4 N -0.1198(3) 0.3154(8) -0.3978(12)
N5 N 0.0561(3) 0.0660(5) -0.0288(6)
N6 N -0.1905(2) 0.1083(5) -0.5309(6)
N7 N -0.1858(2) 0.1239(5) -0.3126(6)
O3 O 0.0024(2) 0.0969(4) 0.1352(5)
C7 C -0.0828(3) 0.0930(6) -0.2246(7)
C8 C -0.1421(3) -0.0353(7) -0.3710(8)
C9 C -0.1250(3) 0.2362(7) -0.3870(9)
C10 C 0.0868(3) 0.0818(6) -0.0602(7)
C11 C -0.1898(3) 0.1029(7) -0.6417(8)
H5 H -0.1606 0.1014 -0.6501
C12 C -0.2316(3) 0.0995(7) -0.7453(8)
H6 H -0.2299 0.0932 -0.8210
C13 C -0.2754(3) 0.1056(7) -0.7357(8)
C14 C -0.2756(3) 0.1117(7) -0.6200(8)
H7 H -0.3045 0.1140 -0.6099
C15 C -0.2335(3) 0.1145(6) -0.5199(8)
C16 C -0.2693(3) 0.1380(7) -0.3633(9)
H8 H -0.3000 0.1387 -0.4226
C17 C -0.2625(3) 0.1505(7) -0.2420(9)
C18 C -0.2174(4) 0.1476(8) -0.1606(10)
H9 H -0.2119 0.1552 -0.0790
C19 C -0.1787(3) 0.1337(7) -0.1937(8)
H10 H -0.1480 0.1311 -0.1348
C20 C -0.3216(4) 0.1026(10) -0.8448(11)
H11 H -0.3479 0.1076 -0.8191
H12 H -0.3237 0.0439 -0.8870
H13 H -0.3225 0.1542 -0.8978
C21 C -0.3042(4) 0.1619(10) -0.2045(12)
H14 H -0.3332 0.1623 -0.2751
H15 H -0.3012 0.2203 -0.1615
H16 H -0.3048 0.1103 -0.1529
C22 C -0.2303(3) 0.1246(6) -0.3955(8)
C1D C 0.0421(7) 0.7685(12) -0.0771(16)
H1D H 0.0702 0.7998 -0.0680
C2D C -0.0493(8) 0.7675(10) -0.1365(18)
H2D H -0.0796 0.7937 -0.1724
C3D C 0.0422(8) 0.6698(14) -0.0551(18)
H3D H 0.0709 0.6369 -0.0322
C4D C -0.0400(7) 0.6725(13) -0.0946(19)
H4D H -0.0651 0.6408 -0.0849
C5D C 0.0017(8) 0.6215(13) -0.067(2)
C6D C 0.0029(9) 0.5116(15) -0.058(2)
Co1_2 Co 0.0000 1.0000 0.0000
Fe1D Fe 0.13490(4) -0.10254(9) 0.37656(10)
Fe1A Fe 0.13490(4) 0.10254(9) -0.12344(10)
Fe1E Fe -0.13490(4) -0.10254(9) 0.12344(10)
N1D N 0.0509(3) -0.0805(6) 0.1359(6)
N2D N -0.0030(4) 0.8203(13) -0.1144(12)
N3D N 0.1462(3) 0.1140(7) 0.3668(9)
N4D N 0.1198(3) -0.3154(8) 0.3978(12)
N5D N -0.0561(3) -0.0660(5) 0.0288(6)
N6D N 0.1905(2) -0.1083(5) 0.5309(6)
N7D N 0.1858(2) -0.1239(5) 0.3126(6)
O3D O -0.0024(2) 0.9031(4) -0.1352(5)
O3D_2 O -0.0024(2) -0.0969(4) -0.1352(5)
C7D C 0.0828(3) -0.0930(6) 0.2246(7)
C8D C 0.1421(3) 0.0353(7) 0.3710(8)
C9D C 0.1250(3) -0.2362(7) 0.3870(9)
C10D C -0.0868(3) -0.0818(6) 0.0602(7)
C10A C -0.0868(3) 0.0818(6) -0.4398(7)
C10E C 0.0868(3) -0.0818(6) 0.4398(7)
C11D C 0.1898(3) -0.1029(7) 0.6417(8)
H5D H 0.1606 -0.1014 0.6501
C12D C 0.2316(3) -0.0995(7) 0.7453(8)
H6D H 0.2299 -0.0932 0.8210
C13D C 0.2754(3) -0.1056(7) 0.7357(8)
C14D C 0.2756(3) -0.1117(7) 0.6200(8)
H7D H 0.3045 -0.1140 0.6099
C15D C 0.2335(3) -0.1145(6) 0.5199(8)
C16D C 0.2693(3) -0.1380(7) 0.3633(9)
H8D H 0.3000 -0.1387 0.4226
C17D C 0.2625(3) -0.1505(7) 0.2420(9)
C18D C 0.2174(4) -0.1476(8) 0.1606(10)
H9D H 0.2119 -0.1552 0.0790
C19D C 0.1787(3) -0.1337(7) 0.1937(8)
H10D H 0.1480 -0.1311 0.1348
C20D C 0.3216(4) -0.1026(10) 0.8448(11)
H11D H 0.3479 -0.1076 0.8191
H12D H 0.3237 -0.0439 0.8870
H13D H 0.3225 -0.1542 0.8978
C21D C 0.3042(4) -0.1619(10) 0.2045(12)
H14D H 0.3332 -0.1623 0.2751
H15D H 0.3012 -0.2203 0.1615
H16D H 0.3048 -0.1103 0.1529
C22D C 0.2303(3) -0.1246(6) 0.3955(8)
loop_
_geom_bond_atom_site_label_1
_geom_bond_atom_site_label_2
_geom_bond_site_symmetry_1
_geom_bond_site_symmetry_2
C1 H1 1_555 1_555
C2 H2 1_555 1_555
C3 C1 1_555 1_555
H3 C3 1_555 1_555
C4 C2 1_555 1_555
H4 C4 1_555 1_555
C5 C3 1_555 1_555
C6 C5 1_555 1_555
Co1 N1 1_555 1_555
Fe1 N6 1_555 1_555
N1 C7 1_555 1_555
N2 C1 1_555 1_555
N3 C8 1_555 1_555
N4 C9 1_555 1_555
N5 Co1 1_555 1_555
N6 C11 1_555 1_555
N7 Fe1 1_555 1_555
O3 Co1 1_555 1_555
C7 Fe1 1_555 1_555
C8 Fe1 1_555 1_555
C9 Fe1 1_555 1_555
C10 N5 1_555 1_555
C11 H5 1_555 1_555
C12 C11 1_555 1_555
H6 C12 1_555 1_555
C13 C12 1_555 1_555
C14 C13 1_555 1_555
H7 C14 1_555 1_555
C15 N6 1_555 1_555
C16 H8 1_555 1_555
C17 C16 1_555 1_555
C18 C17 1_555 1_555
H9 C18 1_555 1_555
C19 N7 1_555 1_555
H10 C19 1_555 1_555
C20 C13 1_555 1_555
H11 C20 1_555 1_555
H12 C20 1_555 1_555
H13 C20 1_555 1_555
C21 C17 1_555 1_555
H14 C21 1_555 1_555
H15 C21 1_555 1_555
H16 C21 1_555 1_555
C22 N7 1_555 1_555
C1D H1D 1_555 1_555
C2D H2D 1_555 1_555
C3D C1D 1_555 1_555
H3D C3D 1_555 1_555
C4D C2D 1_555 1_555
H4D C4D 1_555 1_555
C5D C3D 1_555 1_555
C6D C6 1_555 1_555
Co1_2 O3D 1_555 1_555
Fe1D N6D 1_555 1_555
Fe1A C10 1_555 1_555
Fe1E C10D 1_555 1_555
N1D Co1 1_555 1_555
N2D C1D 1_555 1_555
N3D C8D 1_555 1_555
N4D C9D 1_555 1_555
N5D Co1 1_555 1_555
N6D C11D 1_555 1_555
N7D Fe1D 1_555 1_555
O3D N2D 1_555 1_555
O3D_2 Co1 1_555 1_555
C7D Fe1D 1_555 1_555
C8D Fe1D 1_555 1_555
C9D Fe1D 1_555 1_555
C10D N5D 1_555 1_555
C10A Fe1 1_555 1_555
C10E Fe1D 1_555 1_555
C11D H5D 1_555 1_555
C12D C11D 1_555 1_555
H6D C12D 1_555 1_555
C13D C12D 1_555 1_555
C14D C13D 1_555 1_555
H7D C14D 1_555 1_555
C15D N6D 1_555 1_555
C16D H8D 1_555 1_555
C17D C16D 1_555 1_555
C18D C17D 1_555 1_555
H9D C18D 1_555 1_555
C19D N7D 1_555 1_555
H10D C19D 1_555 1_555
C20D C13D 1_555 1_555
H11D C20D 1_555 1_555
H12D C20D 1_555 1_555
H13D C20D 1_555 1_555
C21D C17D 1_555 1_555
H14D C21D 1_555 1_555
H15D C21D 1_555 1_555
H16D C21D 1_555 1_555
C22D N7D 1_555 1_555
C2 N2 1_555 1_555
C4 C5 1_555 1_555
N2 O3 1_555 1_555
C14 C15 1_555 1_555
C15 C22 1_555 1_555
C16 C22 1_555 1_555
C18 C19 1_555 1_555
C2D N2D 1_555 1_555
C4D C5D 1_555 1_555
C5D C6D 1_555 1_555
N1D C7D 1_555 1_555
C14D C15D 1_555 1_555
C15D C22D 1_555 1_555
C16D C22D 1_555 1_555
C18D C19D 1_555 1_555

#END
