
#######################################################################
#
#                 Cambridge Crystallographic Data Centre
#                                CCDC 
#
#######################################################################
#
# If this CIF has been generated from an entry in the Cambridge 
# Structural Database, then it will include bibliographic, chemical, 
# crystal, experimental, refinement or atomic coordinate data resulting 
# from the CCDC's data processing and validation procedures.
#
#######################################################################

data_PEMMIE
_symmetry_cell_setting           triclinic
_symmetry_space_group_name_H-M   'P -1'
_symmetry_Int_Tables_number      2
_space_group_name_Hall           '-P 1'
loop_
_symmetry_equiv_pos_site_id
_symmetry_equiv_pos_as_xyz
1 x,y,z
2 -x,-y,-z
_cell_length_a                   9.6290(10)
_cell_length_b                   9.9150(10)
_cell_length_c                   14.558(2)
_cell_angle_alpha                70.783(2)
_cell_angle_beta                 85.346(2)
_cell_angle_gamma                69.579(2)
_cell_volume                     1229.06
loop_
_atom_site_label
_atom_site_type_symbol
_atom_site_fract_x
_atom_site_fract_y
_atom_site_fract_z
Ti1 Ti 0.29330(10) 0.6136(2) 0.75800(10)
Cu1 Cu 0.5000 1.0000 0.5000
Cu2 Cu 0.5000 0.5000 0.5000
O1 O 0.4655(5) 0.5191(6) 0.8374(3)
O2 O 0.4069(5) 0.7520(6) 0.6785(3)
O3 O 0.5811(6) 0.8543(6) 0.6250(3)
O4 O 0.2255(5) 0.4530(6) 0.8172(3)
O5 O 0.3778(5) 0.5023(6) 0.6593(3)
O6 O 0.4854(6) 0.3149(6) 0.6026(4)
O7 O 0.1887(5) 0.7453(5) 0.8254(3)
O8 O 0.1373(5) 0.7407(6) 0.6535(3)
O9 O -0.0759(6) 0.8863(7) 0.5786(4)
O10 O 0.6861(6) 0.4745(7) 0.5588(4)
O11 O 0.3261(6) 0.9473(7) 0.5067(4)
N1 N 0.9322(7) 0.3793(8) 0.5947(5)
C1 C 0.5863(4) 0.5507(5) 0.8473(3)
C2 C 0.6763(5) 0.4623(5) 0.9306(3)
C3 C 0.8042(5) 0.4892(6) 0.9445(3)
C4 C 0.8420(5) 0.6045(6) 0.8750(3)
C5 C 0.7519(5) 0.6929(5) 0.7917(3)
C6 C 0.6241(4) 0.6660(5) 0.7778(3)
C7 C 0.5324(8) 0.7641(8) 0.6891(5)
C8 C 0.2935(6) 0.3042(5) 0.8291(4)
C9 C 0.2691(6) 0.2010(6) 0.9144(3)
C10 C 0.3357(7) 0.0458(6) 0.9307(3)
C11 C 0.4269(7) -0.0062(5) 0.8615(4)
C12 C 0.4514(6) 0.0971(6) 0.7761(4)
C13 C 0.3847(6) 0.2523(6) 0.7599(3)
C14 C 0.4175(8) 0.3636(10) 0.6687(5)
C15 C 0.0683(4) 0.8727(5) 0.8046(3)
C16 C 0.0354(6) 0.9513(6) 0.8715(3)
C17 C -0.0904(6) 1.0805(6) 0.8566(3)
C18 C -0.1832(5) 1.1311(5) 0.7749(4)
C19 C -0.1502(4) 1.0525(5) 0.7080(3)
C20 C -0.0245(4) 0.9233(4) 0.7229(2)
C21 C 0.0119(6) 0.8493(6) 0.6467(3)
C22 C 0.8148(9) 0.3890(10) 0.5512(5)
C23 C 0.9210(10) 0.4690(10) 0.6588(7)
C24 C 1.0770(10) 0.2660(10) 0.5928(7)
H1 H 0.2518 1.0274 0.4835
H2 H 0.3119 0.9032 0.5657
H3 H 0.6510 0.3852 0.9771
H4 H 0.8645 0.4300 1.0002
H5 H 0.9276 0.6224 0.8842
H6 H 0.7772 0.7700 0.7452
H7 H 0.2081 0.2357 0.9607
H8 H 0.3194 -0.0233 0.9878
H9 H 0.4715 -0.1100 0.8724
H10 H 0.5124 0.0623 0.7299
H11 H 0.0975 0.9174 0.9261
H12 H -0.1124 1.1331 0.9013
H13 H -0.2673 1.2176 0.7650
H14 H -0.2123 1.0864 0.6534
H15 H 0.8269 0.3283 0.5120
H16 H 0.8299 0.5539 0.6438
H17 H 1.0032 0.5050 0.6494
H18 H 0.9225 0.4066 0.7253
H19 H 1.0721 0.2150 0.5481
H20 H 1.1044 0.1936 0.6568
H21 H 1.1492 0.3155 0.5723
Ti1A Ti 0.70670(10) 1.3864(2) 0.24200(10)
Cu2_2 Cu 0.5000 1.5000 0.5000
O1A O 0.5345(5) 1.4809(6) 0.1626(3)
O2A O 0.5931(5) 1.2480(6) 0.3215(3)
O3A O 0.4189(6) 1.1457(6) 0.3750(3)
O4A O 0.7745(5) 1.5470(6) 0.1828(3)
O5A O 0.6222(5) 1.4977(6) 0.3407(3)
O5A_2 O 0.6222(5) 0.4977(6) 0.3407(3)
O6A O 0.5146(6) 1.6851(6) 0.3974(4)
O6A_2 O 0.5146(6) 0.6851(6) 0.3974(4)
O7A O 0.8113(5) 1.2547(5) 0.1746(3)
O8A O 0.8627(5) 1.2593(6) 0.3465(3)
O9A O 1.0759(6) 1.1137(7) 0.4214(4)
O10A O 0.3139(6) 0.5255(7) 0.4412(4)
O11A O 0.6739(6) 1.0527(7) 0.4933(4)
N1A N 0.0678(7) 0.6207(8) 0.4053(5)
C1A C 0.4137(4) 1.4493(5) 0.1527(3)
C2A C 0.3237(5) 1.5377(5) 0.0694(3)
C3A C 0.1958(5) 1.5108(6) 0.0555(3)
C4A C 0.1580(5) 1.3955(6) 0.1250(3)
C5A C 0.2481(5) 1.3071(5) 0.2083(3)
C6A C 0.3759(4) 1.3340(5) 0.2222(3)
C7A C 0.4676(8) 1.2359(8) 0.3109(5)
C8A C 0.7065(6) 1.6958(5) 0.1709(4)
C9A C 0.7309(6) 1.7990(6) 0.0856(3)
C10A C 0.6643(7) 1.9542(6) 0.0693(3)
C11A C 0.5731(7) 2.0062(5) 0.1385(4)
C12A C 0.5486(6) 1.9029(6) 0.2239(4)
C13A C 0.6153(6) 1.7477(6) 0.2401(3)
C14A C 0.5825(8) 1.6364(10) 0.3313(5)
C15A C 0.9317(4) 1.1273(5) 0.1954(3)
C16A C 0.9646(6) 1.0487(6) 0.1285(3)
C17A C 1.0904(6) 0.9195(6) 0.1434(3)
C18A C 1.1832(5) 0.8689(5) 0.2251(4)
C19A C 1.1502(4) 0.9475(5) 0.2920(3)
C20A C 1.0245(4) 1.0767(4) 0.2771(2)
C21A C 0.9881(6) 1.1507(6) 0.3533(3)
C22A C 0.1852(9) 0.6110(10) 0.4488(5)
C23A C 0.0790(10) 0.5310(10) 0.3412(7)
C24A C -0.0770(10) 0.7340(10) 0.4072(7)
H1A H 0.7482 0.9726 0.5165
H2A H 0.6881 1.0968 0.4343
H3A H 0.3490 1.6148 0.0229
H4A H 0.1355 1.5700 -0.0002
H5A H 0.0724 1.3776 0.1158
H6A H 0.2228 1.2300 0.2548
H7A H 0.7919 1.7643 0.0393
H8A H 0.6806 2.0233 0.0122
H9A H 0.5285 2.1100 0.1276
H10A H 0.4876 1.9377 0.2701
H11A H 0.9025 1.0826 0.0739
H12A H 1.1124 0.8669 0.0987
H13A H 1.2673 0.7824 0.2350
H14A H 1.2123 0.9136 0.3466
H15A H 0.1731 0.6717 0.4880
H16A H 0.1701 0.4461 0.3562
H17A H -0.0032 0.4950 0.3506
H18A H 0.0775 0.5934 0.2747
H19A H -0.0721 0.7850 0.4519
H20A H -0.1044 0.8064 0.3432
H21A H -0.1492 0.6845 0.4277
loop_
_geom_bond_atom_site_label_1
_geom_bond_atom_site_label_2
_geom_bond_site_symmetry_1
_geom_bond_site_symmetry_2
Ti1 O1 1_555 1_555
Cu1 O3 1_555 1_555
Cu2 O5 1_555 1_555
O1 C1 1_555 1_555
O2 Ti1 1_555 1_555
O3 C7 1_555 1_555
O4 Ti1 1_555 1_555
O5 Ti1 1_555 1_555
O6 Cu2 1_555 1_555
O7 Ti1 1_555 1_555
O8 Ti1 1_555 1_555
O9 C21 1_555 1_555
O10 Cu2 1_555 1_555
O11 Cu1 1_555 1_555
N1 C22 1_555 1_555
C1 C2 1_555 1_555
C2 C3 1_555 1_555
C3 C4 1_555 1_555
C4 C5 1_555 1_555
C5 C6 1_555 1_555
C6 C1 1_555 1_555
C7 O2 1_555 1_555
C8 O4 1_555 1_555
C9 C8 1_555 1_555
C10 C9 1_555 1_555
C11 C10 1_555 1_555
C12 C11 1_555 1_555
C13 C8 1_555 1_555
C14 O5 1_555 1_555
C15 O7 1_555 1_555
C16 C15 1_555 1_555
C17 C16 1_555 1_555
C18 C17 1_555 1_555
C19 C18 1_555 1_555
C20 C15 1_555 1_555
C21 O8 1_555 1_555
C22 O10 1_555 1_555
C23 N1 1_555 1_555
C24 N1 1_555 1_555
H1 O11 1_555 1_555
H2 O11 1_555 1_555
H3 C2 1_555 1_555
H4 C3 1_555 1_555
H5 C4 1_555 1_555
H6 C5 1_555 1_555
H7 C9 1_555 1_555
H8 C10 1_555 1_555
H9 C11 1_555 1_555
H10 C12 1_555 1_555
H11 C16 1_555 1_555
H12 C17 1_555 1_555
H13 C18 1_555 1_555
H14 C19 1_555 1_555
H15 C22 1_555 1_555
H16 C23 1_555 1_555
H17 C23 1_555 1_555
H18 C23 1_555 1_555
H19 C24 1_555 1_555
H20 C24 1_555 1_555
H21 C24 1_555 1_555
Ti1A O1A 1_555 1_555
Cu2_2 O5A 1_555 1_555
O1A C1A 1_555 1_555
O2A Ti1A 1_555 1_555
O3A Cu1 1_555 1_555
O4A Ti1A 1_555 1_555
O5A Ti1A 1_555 1_555
O5A_2 Cu2 1_555 1_555
O6A Cu2_2 1_555 1_555
O6A_2 Cu2 1_555 1_555
O7A Ti1A 1_555 1_555
O8A Ti1A 1_555 1_555
O9A C21A 1_555 1_555
O10A Cu2 1_555 1_555
O11A Cu1 1_555 1_555
N1A C22A 1_555 1_555
C1A C2A 1_555 1_555
C2A C3A 1_555 1_555
C3A C4A 1_555 1_555
C4A C5A 1_555 1_555
C5A C6A 1_555 1_555
C6A C1A 1_555 1_555
C7A O2A 1_555 1_555
C8A O4A 1_555 1_555
C9A C8A 1_555 1_555
C10A C9A 1_555 1_555
C11A C10A 1_555 1_555
C12A C11A 1_555 1_555
C13A C8A 1_555 1_555
C14A O5A 1_555 1_555
C15A O7A 1_555 1_555
C16A C15A 1_555 1_555
C17A C16A 1_555 1_555
C18A C17A 1_555 1_555
C19A C18A 1_555 1_555
C20A C15A 1_555 1_555
C21A O8A 1_555 1_555
C22A O10A 1_555 1_555
C23A N1A 1_555 1_555
C24A N1A 1_555 1_555
H1A O11A 1_555 1_555
H2A O11A 1_555 1_555
H3A C2A 1_555 1_555
H4A C3A 1_555 1_555
H5A C4A 1_555 1_555
H6A C5A 1_555 1_555
H7A C9A 1_555 1_555
H8A C10A 1_555 1_555
H9A C11A 1_555 1_555
H10A C12A 1_555 1_555
H11A C16A 1_555 1_555
H12A C17A 1_555 1_555
H13A C18A 1_555 1_555
H14A C19A 1_555 1_555
H15A C22A 1_555 1_555
H16A C23A 1_555 1_555
H17A C23A 1_555 1_555
H18A C23A 1_555 1_555
H19A C24A 1_555 1_555
H20A C24A 1_555 1_555
H21A C24A 1_555 1_555
O6 C14 1_555 1_555
C6 C7 1_555 1_555
C12 C13 1_555 1_555
C13 C14 1_555 1_555
C19 C20 1_555 1_555
C20 C21 1_555 1_555
O3A C7A 1_555 1_555
O6A C14A 1_555 1_555
C6A C7A 1_555 1_555
C12A C13A 1_555 1_555
C13A C14A 1_555 1_555
C19A C20A 1_555 1_555
C20A C21A 1_555 1_555

#END
