
#######################################################################
#
#                 Cambridge Crystallographic Data Centre
#                                CCDC 
#
#######################################################################
#
# If this CIF has been generated from an entry in the Cambridge 
# Structural Database, then it will include bibliographic, chemical, 
# crystal, experimental, refinement or atomic coordinate data resulting 
# from the CCDC's data processing and validation procedures.
#
#######################################################################

data_PEMPIG10
_symmetry_cell_setting           monoclinic
_symmetry_space_group_name_H-M   'C 2/c'
_symmetry_Int_Tables_number      15
_space_group_name_Hall           '-C 2yn'
loop_
_symmetry_equiv_pos_site_id
_symmetry_equiv_pos_as_xyz
1 x,y,z
2 1/2+x,1/2+y,z
3 -x,y,1/2-z
4 1/2-x,1/2+y,1/2-z
5 -x,-y,-z
6 1/2-x,1/2-y,-z
7 x,-y,1/2+z
8 1/2+x,1/2-y,1/2+z
_cell_length_a                   33.619(7)
_cell_length_b                   13.040(3)
_cell_length_c                   7.040(1)
_cell_angle_alpha                90
_cell_angle_beta                 101.90(3)
_cell_angle_gamma                90
_cell_volume                     3019.95
loop_
_atom_site_label
_atom_site_type_symbol
_atom_site_fract_x
_atom_site_fract_y
_atom_site_fract_z
Cu1 Cu 0.4185(1) 0.2663(1) 0.2462(1)
Cu2 Cu 0.3314(1) 0.2607(1) 0.1588(1)
O1 O 0.3742(1) 0.3593(3) 0.1577(6)
O2 O 0.3760(1) 0.1648(3) 0.2045(7)
N1 N 0.4645(1) 0.3701(4) 0.2470(7)
C1 C 0.4641(2) 0.4728(5) 0.2443(10)
C2 C 0.5000 0.5269(6) 0.2500
C3 C 0.5000 0.3249(6) 0.2500
C4 C 0.5000 0.2117(6) 0.2500
C5 C 0.5000 0.0088(6) 0.2500
C6 C 0.4648(2) 0.0631(4) 0.2569(10)
N2 N 0.4648(1) 0.1648(3) 0.2559(7)
N3 N 0.2866(1) 0.1534(4) 0.0959(8)
C7 C 0.2875(2) 0.0518(4) 0.1217(10)
C8 C 0.2530(2) -0.0074(5) 0.0668(10)
C9 C 0.2508(2) 0.1938(4) 0.0135(9)
N4 N 0.2841(1) 0.3567(3) 0.0431(7)
C10 C 0.2177(2) 0.0408(5) -0.0172(10)
N5 N 0.4352(3) 0.2476(5) 0.6938(10)
O3 O 0.4268(2) 0.3097(4) 0.5684(8)
O4 O 0.4419(4) 0.2666(7) 0.8654(10)
O5 O 0.4277(3) 0.1528(6) 0.6379(12)
N6 N 0.3130(3) 0.2444(5) 0.5687(11)
O6 O 0.3183(2) 0.3094(5) 0.4569(9)
O7 O 0.3269(3) 0.1544(6) 0.5328(12)
O8 O 0.3031(5) 0.2512(7) 0.7156(15)
H1 H 0.379(2) 0.416(4) 0.245(9)
H2 H 0.383(2) 0.121(5) 0.315(7)
H7 H 0.439 0.509 0.239
H8 H 0.500 0.600 0.250
H9 H 0.500 -0.065 0.250
H10 H 0.440 0.027 0.263
H11 H 0.313 0.020 0.181
H12 H 0.254 -0.080 0.087
H13 H 0.193 0.001 -0.059
C1B C 0.5359(2) 0.4728(5) 0.2557(10)
N1B N 0.5355(1) 0.3701(4) 0.2530(7)
N2B N 0.5352(1) 0.1648(3) 0.2441(7)
C6B C 0.5352(2) 0.0631(4) 0.2431(10)
C9E C 0.2492(2) 0.3062(4) -0.0135(9)
N4E N 0.2159(1) 0.1433(3) -0.0431(7)
C10E C 0.2823(2) 0.4592(5) 0.0172(10)
H7B H 0.561 0.509 0.261
Cu1B Cu 0.5815(1) 0.2663(1) 0.2538(1)
H10B H 0.560 0.027 0.237
N3E N 0.2134(1) 0.3466(4) -0.0959(8)
Cu2E Cu 0.1686(1) 0.2393(1) -0.1588(1)
C8E C 0.2470(2) 0.5074(5) -0.0668(10)
H13E H 0.307 0.499 0.059
C7E C 0.2125(2) 0.4482(4) -0.1217(10)
H12E H 0.246 0.580 -0.087
H11E H 0.187 0.480 -0.181
O1B O 0.6258(1) 0.3593(3) 0.3423(6)
O2B O 0.6240(1) 0.1648(3) 0.2955(7)
O3B O 0.5732(2) 0.3097(4) -0.0684(8)
Cu2B Cu 0.6686(1) 0.2607(1) 0.3412(1)
H1B H 0.621(2) 0.416(4) 0.255(9)
H2B H 0.617(2) 0.121(5) 0.185(7)
N5B N 0.5648(3) 0.2476(5) -0.1938(10)
N3B N 0.7134(1) 0.1534(4) 0.4041(8)
N4B N 0.7159(1) 0.3567(3) 0.4569(7)
O6B O 0.6817(2) 0.3094(5) 0.0431(9)
O4B O 0.5581(4) 0.2666(7) -0.3654(10)
O5B O 0.5723(3) 0.1528(6) -0.1379(12)
N6B N 0.6870(3) 0.2444(5) -0.0687(11)
O7B O 0.6731(3) 0.1544(6) -0.0328(12)
O8B O 0.6969(5) 0.2512(7) -0.2156(15)
O9 O 0.3711(2) 0.5535(4) 0.2984(9)
H3 H 0.383(2) 0.583(5) 0.422(4)
H4 H 0.380(2) 0.601(4) 0.212(7)
O10 O 0.3779(20) -0.0369(4) 0.3806(8)
H5 H 0.387(2) -0.091(3) 0.310(8)
H6 H 0.381(2) -0.068(4) 0.506(4)
loop_
_geom_bond_atom_site_label_1
_geom_bond_atom_site_label_2
_geom_bond_site_symmetry_1
_geom_bond_site_symmetry_2
Cu1 O1 1_555 1_555
Cu2 O1 1_555 1_555
O1 H1 1_555 1_555
O2 Cu1 1_555 1_555
N1 Cu1 1_555 1_555
C1 N1 1_555 1_555
C2 C1 1_555 1_555
C3 N1 1_555 1_555
C4 C3 1_555 1_555
C5 C6 1_555 1_555
C6 N2 1_555 1_555
N2 Cu1 1_555 1_555
N3 Cu2 1_555 1_555
C7 N3 1_555 1_555
C8 C7 1_555 1_555
C9 N3 1_555 1_555
N4 Cu2 1_555 1_555
C10 C8 1_555 1_555
N5 O3 1_555 1_555
O3 Cu1 1_555 1_555
O4 N5 1_555 1_555
O5 N5 1_555 1_555
N6 O6 1_555 1_555
O6 Cu2 1_555 1_555
O7 N6 1_555 1_555
O8 N6 1_555 1_555
O9 H3 1_555 1_555
O10 H5 1_555 1_555
H2 O2 1_555 1_555
H4 O9 1_555 1_555
H6 O10 1_555 1_555
H7 C1 1_555 1_555
H8 C2 1_555 1_555
H9 C5 1_555 1_555
H10 C6 1_555 1_555
H11 C7 1_555 1_555
H12 C8 1_555 1_555
H13 C10 1_555 1_555
C1B C2 1_555 1_555
N1B C3 1_555 1_555
N2B C4 1_555 1_555
C6B C5 1_555 1_555
C9E C9 1_555 1_555
N4E C9 1_555 1_555
C10E N4 1_555 1_555
H7B C1B 1_555 1_555
Cu1B N1B 1_555 1_555
H10B C6B 1_555 1_555
N3E C9E 1_555 1_555
Cu2E N4E 1_555 1_555
C8E C10E 1_555 1_555
H13E C10E 1_555 1_555
C7E N3E 1_555 1_555
H12E C8E 1_555 1_555
H11E C7E 1_555 1_555
O1B Cu1B 1_555 1_555
O2B Cu1B 1_555 1_555
O3B Cu1B 1_555 1_555
Cu2B O1B 1_555 1_555
H1B O1B 1_555 1_555
H2B O2B 1_555 1_555
N5B O3B 1_555 1_555
N3B Cu2B 1_555 1_555
N4B Cu2B 1_555 1_555
O6B Cu2B 1_555 1_555
O4B N5B 1_555 1_555
O5B N5B 1_555 1_555
N6B O6B 1_555 1_555
O7B N6B 1_555 1_555
O8B N6B 1_555 1_555
Cu2 O2 1_555 1_555
C4 N2 1_555 1_555
N4 C9E 1_555 1_555
C10 N4E 1_555 1_555
C1B N1B 1_555 1_555
N2B C6B 1_555 1_555
N2B Cu1B 1_555 1_555
N3E Cu2E 1_555 1_555
C8E C7E 1_555 1_555
O2B Cu2B 1_555 1_555

#END
