
#######################################################################
#
#                 Cambridge Crystallographic Data Centre
#                                CCDC 
#
#######################################################################
#
# If this CIF has been generated from an entry in the Cambridge 
# Structural Database, then it will include bibliographic, chemical, 
# crystal, experimental, refinement or atomic coordinate data resulting 
# from the CCDC's data processing and validation procedures.
#
#######################################################################

data_PEMQAA
_symmetry_cell_setting           monoclinic
_symmetry_space_group_name_H-M   'P 21/c'
_symmetry_Int_Tables_number      14
_space_group_name_Hall           '-P 2ybc'
loop_
_symmetry_equiv_pos_site_id
_symmetry_equiv_pos_as_xyz
1 x,y,z
2 -x,1/2+y,1/2-z
3 -x,-y,-z
4 x,1/2-y,1/2+z
_cell_length_a                   13.8892(11)
_cell_length_b                   6.2703(5)
_cell_length_c                   14.9800(11)
_cell_angle_alpha                90
_cell_angle_beta                 95.1510(10)
_cell_angle_gamma                90
_cell_volume                     1299.33
loop_
_atom_site_label
_atom_site_type_symbol
_atom_site_fract_x
_atom_site_fract_y
_atom_site_fract_z
La1 La -0.138180(11) -0.09493(3) 0.563620(10)
C1 C -0.3275(2) 0.0209(5) 0.3851(2)
C2 C -0.3690(2) -0.1369(5) 0.43504(19)
C3 C -0.4660(2) -0.1694(5) 0.4268(2)
H1 H -0.4927 -0.2753 0.4603
C4 C -0.5256(2) -0.0446(5) 0.3682(2)
H2 H -0.5922 -0.0658 0.3629
C5 C -0.4856(3) 0.1096(6) 0.3184(2)
H3 H -0.5254 0.1931 0.2792
C6 C -0.3855(2) 0.1432(6) 0.3257(2)
H4 H -0.3585 0.2465 0.2910
C7 C -0.1774(2) 0.1560(6) 0.3383(2)
H5 H -0.2074 0.2934 0.3248
H6 H -0.1784 0.0749 0.2831
C8 C -0.0746(2) 0.1866(5) 0.37804(19)
C9 C -0.3337(2) -0.4578(5) 0.5215(2)
H7 H -0.3645 -0.5332 0.4701
H8 H -0.3802 -0.4438 0.5657
C10 C -0.2466(2) -0.5830(5) 0.5610(2)
O1 O -0.22889(15) 0.0445(4) 0.40184(14)
O2 O -0.01146(15) 0.2448(4) 0.32818(14)
O3 O -0.05392(15) 0.1493(3) 0.45982(13)
O4 O -0.30374(14) -0.2500(3) 0.49452(14)
O5 O -0.25644(15) -0.7786(3) 0.56684(15)
O6 O -0.17134(15) -0.4802(4) 0.58612(15)
O7 O -0.11229(16) -0.3236(4) 0.42298(14)
H9 H -0.0583 -0.3106 0.4016
H10 H -0.1579 -0.3310 0.3818
O8 O -0.05304(14) 0.2116(3) 0.65212(13)
H11 H -0.0409 0.2201 0.7089
H12 H -0.0895 0.3158 0.6348
Cl1 Cl -0.23005(6) -0.14155(14) 0.72808(5)
La1B La 0.138180(11) 0.09493(3) 0.436380(10)
La1_2 La -0.138180(11) -1.09493(3) 0.563620(10)
O2B O 0.01146(15) -0.2448(4) 0.67182(14)
O3B O 0.05392(15) -0.1493(3) 0.54018(13)
O5_2 O -0.25644(15) 0.2214(3) 0.56684(15)
loop_
_geom_bond_atom_site_label_1
_geom_bond_atom_site_label_2
_geom_bond_site_symmetry_1
_geom_bond_site_symmetry_2
La1 O1 1_555 1_555
C1 C2 1_555 1_555
C2 C3 1_555 1_555
C3 H1 1_555 1_555
C4 C3 1_555 1_555
H2 C4 1_555 1_555
C5 C4 1_555 1_555
H3 C5 1_555 1_555
C6 C1 1_555 1_555
H4 C6 1_555 1_555
C7 H5 1_555 1_555
H6 C7 1_555 1_555
C8 C7 1_555 1_555
C9 H7 1_555 1_555
H8 C9 1_555 1_555
C10 C9 1_555 1_555
O1 C1 1_555 1_555
O2 C8 1_555 1_555
O3 La1 1_555 1_555
O4 La1 1_555 1_555
O5 C10 1_555 1_555
O6 La1 1_555 1_555
O7 La1 1_555 1_555
H9 O7 1_555 1_555
H10 O7 1_555 1_555
O8 La1 1_555 1_555
H11 O8 1_555 1_555
H12 O8 1_555 1_555
Cl1 La1 1_555 1_555
La1B O2 1_555 1_555
La1_2 O5 1_555 1_555
O2B La1 1_555 1_555
O3B La1 1_555 1_555
O5_2 La1 1_555 1_555
C2 O4 1_555 1_555
C5 C6 1_555 1_555
C7 O1 1_555 1_555
C8 O3 1_555 1_555
C9 O4 1_555 1_555
C10 O6 1_555 1_555
O3 La1B 1_555 1_555
La1B O3B 1_555 1_555

#END
