
#######################################################################
#
#                 Cambridge Crystallographic Data Centre
#                                CCDC 
#
#######################################################################
#
# If this CIF has been generated from an entry in the Cambridge 
# Structural Database, then it will include bibliographic, chemical, 
# crystal, experimental, refinement or atomic coordinate data resulting 
# from the CCDC's data processing and validation procedures.
#
#######################################################################

data_PEMQUU
_symmetry_cell_setting           triclinic
_symmetry_space_group_name_H-M   'P -1'
_symmetry_Int_Tables_number      2
_space_group_name_Hall           '-P 1'
loop_
_symmetry_equiv_pos_site_id
_symmetry_equiv_pos_as_xyz
1 x,y,z
2 -x,-y,-z
_cell_length_a                   6.1591(13)
_cell_length_b                   8.895(3)
_cell_length_c                   14.439(3)
_cell_angle_alpha                93.15(2)
_cell_angle_beta                 99.898(16)
_cell_angle_gamma                91.43(2)
_cell_volume                     777.616
loop_
_atom_site_label
_atom_site_type_symbol
_atom_site_fract_x
_atom_site_fract_y
_atom_site_fract_z
Ag1 Ag -0.62192(6) 0.85718(7) -0.11033(3)
N1 N -0.5739(6) 0.7603(7) 0.0271(3)
C1 C -0.7360(7) 0.7678(9) 0.0784(4)
H1 H -0.8610 0.8207 0.0565
C2 C -0.7232(7) 0.6994(9) 0.1629(4)
H2 H -0.8401 0.7038 0.1959
C3 C -0.3964(7) 0.6821(9) 0.0603(4)
H3 H -0.2842 0.6755 0.0247
C4 C -0.3700(7) 0.6112(8) 0.1433(4)
H4 H -0.2458 0.5560 0.1627
C5 C -0.5365(6) 0.6248(8) 0.1977(3)
C6 C -0.5187(7) 0.5602(8) 0.2918(3)
O1 O -0.6496(5) 0.5801(6) 0.3440(2)
O2 O -0.3336(5) 0.4857(6) 0.3125(2)
C7 C -0.3009(7) 0.4117(8) 0.3993(3)
H5 H -0.4151 0.3346 0.3993
H6 H -0.2999 0.4832 0.4526
C8 C -0.0792(7) 0.3434(8) 0.4021(3)
H7 H -0.0836 0.2691 0.3500
H8 H 0.0321 0.4206 0.3979
O3 O -0.0290(5) 0.2733(6) 0.4909(2)
C9 C 0.1566(7) 0.1982(8) 0.5032(3)
O4 O 0.2742(6) 0.1850(7) 0.4446(3)
C10 C 0.2027(7) 0.1288(8) 0.5949(3)
C11 C 0.0568(7) 0.1285(8) 0.6592(3)
H9 H -0.0772 0.1756 0.6461
C12 C 0.1128(7) 0.0589(9) 0.7408(4)
H10 H 0.0142 0.0606 0.7830
C13 C 0.4018(7) 0.0595(8) 0.6197(3)
H11 H 0.5054 0.0600 0.5799
C14 C 0.4455(7) -0.0096(8) 0.7031(3)
H12 H 0.5793 -0.0564 0.7181
N2 N 0.3037(6) -0.0128(7) 0.7644(3)
Ag1_2 Ag 0.37808(6) -0.14282(7) 0.88967(3)
N2_2 N -0.6963(6) 0.9872(7) -0.2356(3)
N3 N -0.1425(6) 0.7523(8) -0.1508(3)
O5 O -0.3339(6) 0.7028(8) -0.1835(3)
O6 O 0.0157(6) 0.6753(10) -0.1660(4)
O7 O -0.1131(6) 0.8723(10) -0.1057(3)
loop_
_geom_bond_atom_site_label_1
_geom_bond_atom_site_label_2
_geom_bond_site_symmetry_1
_geom_bond_site_symmetry_2
Ag1 N1 1_555 1_555
N1 C1 1_555 1_555
C1 H1 1_555 1_555
C2 C1 1_555 1_555
H2 C2 1_555 1_555
C3 N1 1_555 1_555
H3 C3 1_555 1_555
C4 C3 1_555 1_555
H4 C4 1_555 1_555
C5 C2 1_555 1_555
C6 C5 1_555 1_555
O1 C6 1_555 1_555
O2 C6 1_555 1_555
C7 O2 1_555 1_555
H5 C7 1_555 1_555
H6 C7 1_555 1_555
C8 C7 1_555 1_555
H7 C8 1_555 1_555
H8 C8 1_555 1_555
O3 C8 1_555 1_555
C9 O3 1_555 1_555
O4 C9 1_555 1_555
C10 C9 1_555 1_555
C11 C10 1_555 1_555
H9 C11 1_555 1_555
C12 C11 1_555 1_555
H10 C12 1_555 1_555
C13 C10 1_555 1_555
H11 C13 1_555 1_555
C14 C13 1_555 1_555
H12 C14 1_555 1_555
N2 C12 1_555 1_555
N3 O5 1_555 1_555
O6 N3 1_555 1_555
O7 N3 1_555 1_555
Ag1_2 N2 1_555 1_555
N2_2 Ag1 1_555 1_555
C4 C5 1_555 1_555
C14 N2 1_555 1_555

#END
