
#######################################################################
#
#                 Cambridge Crystallographic Data Centre
#                                CCDC 
#
#######################################################################
#
# If this CIF has been generated from an entry in the Cambridge 
# Structural Database, then it will include bibliographic, chemical, 
# crystal, experimental, refinement or atomic coordinate data resulting 
# from the CCDC's data processing and validation procedures.
#
#######################################################################

data_PEMROQ
_symmetry_cell_setting           monoclinic
_symmetry_space_group_name_H-M   'C 2/c'
_symmetry_Int_Tables_number      15
_space_group_name_Hall           '-C 2yn'
loop_
_symmetry_equiv_pos_site_id
_symmetry_equiv_pos_as_xyz
1 x,y,z
2 -x,y,1/2-z
3 1/2+x,1/2+y,z
4 1/2-x,1/2+y,1/2-z
5 -x,-y,-z
6 x,-y,1/2+z
7 1/2-x,1/2-y,-z
8 1/2+x,1/2-y,1/2+z
_cell_length_a                   30.367(19)
_cell_length_b                   9.271(5)
_cell_length_c                   18.891(12)
_cell_angle_alpha                90
_cell_angle_beta                 128.47
_cell_angle_gamma                90
_cell_volume                     4163.98
loop_
_atom_site_label
_atom_site_type_symbol
_atom_site_fract_x
_atom_site_fract_y
_atom_site_fract_z
Ag1 Ag 0.003561(11) 0.26267(3) -0.01768(2)
C1 C -0.41159(15) 0.0107(4) -0.4833(2)
H1 H -0.4254 0.0391 -0.5422
C2 C -0.36871(14) -0.0894(4) -0.4375(2)
H2 H -0.3535 -0.1281 -0.4647
C3 C -0.34800(13) -0.1334(4) -0.3519(2)
C4 C -0.37349(14) -0.0740(4) -0.3175(2)
H3 H -0.3613 -0.1029 -0.2596
C5 C -0.41591(15) 0.0258(4) -0.3664(2)
H4 H -0.4323 0.0644 -0.3411
C6 C -0.29765(15) -0.2287(4) -0.2976(3)
H5 H -0.2965 -0.2934 -0.3381
H6 H -0.2995 -0.2890 -0.2562
C7 C -0.24481(14) -0.1338(4) -0.2430(2)
H7 H -0.2462 -0.0719 -0.2017
H8 H -0.2450 -0.0698 -0.2851
C8 C -0.18962(15) -0.2200(4) -0.1871(3)
H9 H -0.1869 -0.2765 -0.1400
H10 H -0.1889 -0.2880 -0.2268
C9 C -0.14078(13) -0.1175(4) -0.1434(2)
C10 C -0.11965(15) -0.0729(4) -0.1875(2)
H11 H -0.1337 -0.1143 -0.2440
C11 C -0.07827(15) 0.0314(4) -0.1489(2)
H12 H -0.0643 0.0602 -0.1799
C12 C -0.07666(15) 0.0484(4) -0.0264(2)
H13 H -0.0615 0.0902 0.0305
C13 C -0.11793(14) -0.0564(4) -0.0609(2)
H14 H -0.1303 -0.0857 -0.0277
O1 O -0.00075(12) 0.2847(4) -0.16101(18)
H15 H -0.0305 0.2898 -0.2156
H16 H 0.0275 0.2895 -0.1603
N1 N -0.05720(11) 0.0933(3) -0.07011(19)
N2 N -0.43481(11) 0.0702(3) -0.44808(19)
Ag1G Ag -0.496439(11) 0.23733(3) -0.51768(2)
N2G N 0.06519(11) 0.4298(3) 0.05192(19)
C14 C 0.22542(15) 0.8565(4) 0.4284(3)
H17 H 0.2141 0.9576 0.4082
H18 H 0.2164 0.7999 0.3764
C15 C 0.19132(14) 0.7978(4) 0.4558(2)
H19 H 0.1996 0.8615 0.5055
C16 C 0.28897(14) 0.8515(4) 0.5044(3)
H20 H 0.2990 0.9199 0.5526
H21 H 0.3086 0.8826 0.4804
C17 C 0.12754(14) 0.8086(4) 0.3786(2)
O2 O 0.10743(10) 0.9325(3) 0.36004(18)
O3 O 0.09843(11) 0.6980(3) 0.34104(18)
C14F C 0.27458(15) 0.6435(4) 0.5716(3)
H17F H 0.2859 0.5424 0.5918
H18F H 0.2836 0.7001 0.6236
C15F C 0.30868(14) 0.7022(4) 0.5442(2)
H19F H 0.3004 0.6385 0.4945
C16F C 0.21103(14) 0.6485(4) 0.4956(3)
H20F H 0.2010 0.5801 0.4474
H21F H 0.1914 0.6174 0.5196
C17F C 0.37246(14) 0.6914(4) 0.6214(2)
O2F O 0.39257(10) 0.5675(3) 0.63996(18)
O3F O 0.40157(11) 0.8020(3) 0.65896(18)
O4 O 0.23958(19) 0.3109(7) 0.3979(3)
H22 H 0.2150 0.2765 0.4013
H23 H 0.2709 0.3134 0.4509
O5 O 0.0000 0.0478(4) 0.2500
H24 H 0.0298 -0.0029 0.2816
H24A H -0.0298 -0.0029 0.2184
O6 O 0.08286(11) 0.4074(3) 0.33432(18)
H25 H 0.0637 0.3807 0.3508
H26 H 0.0849 0.4989 0.3362
O7 O 0.16156(13) 0.1898(4) 0.4237(3)
H27 H 0.1447 0.1092 0.4038
H28 H 0.1372 0.2566 0.3962
O8 O 0.00315(12) 0.2843(3) 0.16171(18)
H29 H -0.0021 0.2062 0.1791
H30 H 0.0268 0.3346 0.2083
loop_
_geom_bond_atom_site_label_1
_geom_bond_atom_site_label_2
_geom_bond_site_symmetry_1
_geom_bond_site_symmetry_2
Ag1 O1 1_555 1_555
C1 H1 1_555 1_555
C2 C1 1_555 1_555
H2 C2 1_555 1_555
C3 C2 1_555 1_555
C4 C3 1_555 1_555
H3 C4 1_555 1_555
C5 C4 1_555 1_555
H4 C5 1_555 1_555
C6 C3 1_555 1_555
H5 C6 1_555 1_555
H6 C6 1_555 1_555
C7 C6 1_555 1_555
H7 C7 1_555 1_555
H8 C7 1_555 1_555
C8 C7 1_555 1_555
H9 C8 1_555 1_555
H10 C8 1_555 1_555
C9 C8 1_555 1_555
C10 C9 1_555 1_555
H11 C10 1_555 1_555
C11 C10 1_555 1_555
H12 C11 1_555 1_555
C12 H13 1_555 1_555
C13 C9 1_555 1_555
H14 C13 1_555 1_555
O1 H15 1_555 1_555
H16 O1 1_555 1_555
N1 Ag1 1_555 1_555
N2 C1 1_555 1_555
C14 H17 1_555 1_555
H18 C14 1_555 1_555
C15 C14 1_555 1_555
H19 C15 1_555 1_555
C16 C14 1_555 1_555
H20 C16 1_555 1_555
H21 C16 1_555 1_555
C17 C15 1_555 1_555
O2 C17 1_555 1_555
O3 C17 1_555 1_555
O4 H22 1_555 1_555
H23 O4 1_555 1_555
O5 H24 1_555 1_555
O6 H25 1_555 1_555
H26 O6 1_555 1_555
O7 H27 1_555 1_555
H28 O7 1_555 1_555
O8 H29 1_555 1_555
H30 O8 1_555 1_555
Ag1G N2 1_555 1_555
N2G Ag1 1_555 1_555
C14F H17F 1_555 1_555
H18F C14F 1_555 1_555
C15F C16 1_555 1_555
H19F C15F 1_555 1_555
C16F C15 1_555 1_555
H20F C16F 1_555 1_555
H21F C16F 1_555 1_555
C17F C15F 1_555 1_555
O2F C17F 1_555 1_555
O3F C17F 1_555 1_555
H24A O5 1_555 1_555
C5 N2 1_555 1_555
C11 N1 1_555 1_555
C12 C13 1_555 1_555
C12 N1 1_555 1_555
C14F C15F 1_555 1_555
C14F C16F 1_555 1_555

#END
