
#######################################################################
#
#                 Cambridge Crystallographic Data Centre
#                                CCDC 
#
#######################################################################
#
# If this CIF has been generated from an entry in the Cambridge 
# Structural Database, then it will include bibliographic, chemical, 
# crystal, experimental, refinement or atomic coordinate data resulting 
# from the CCDC's data processing and validation procedures.
#
#######################################################################

data_PEMTIK
_symmetry_cell_setting           monoclinic
_symmetry_space_group_name_H-M   'P 21/c'
_symmetry_Int_Tables_number      14
_space_group_name_Hall           '-P 2ybc'
loop_
_symmetry_equiv_pos_site_id
_symmetry_equiv_pos_as_xyz
1 x,y,z
2 -x,1/2+y,1/2-z
3 -x,-y,-z
4 x,1/2-y,1/2+z
_cell_length_a                   15.158(4)
_cell_length_b                   13.134(4)
_cell_length_c                   17.110(4)
_cell_angle_alpha                90
_cell_angle_beta                 101.18(2)
_cell_angle_gamma                90
_cell_volume                     3341.7
loop_
_atom_site_label
_atom_site_type_symbol
_atom_site_fract_x
_atom_site_fract_y
_atom_site_fract_z
Pb1 Pb 0.2641(1) 0.1472(1) 0.1573(1)
Pb2 Pb 0.2501(1) 0.2367(1) -0.0555(1)
O1 O 0.2528(12) 0.0769(14) 0.0213(10)
C1 C 0.2537(18) -0.0191(21) -0.0032(15)
C2 C 0.2089(18) -0.0454(21) -0.0788(15)
C3 C 0.2137(18) -0.1483(23) -0.1043(16)
C4 C 0.2586(19) -0.2235(22) -0.0592(18)
C5 C 0.2639(20) -0.3282(23) -0.0887(17)
C6 C 0.3035(18) -0.1954(21) 0.0153(16)
C7 C 0.3036(16) -0.0938(20) 0.0440(14)
C8 C 0.3569(18) -0.0715(22) 0.1258(14)
N1 N 0.3015(15) -0.0321(17) 0.1832(13)
C9 C 0.2222(20) -0.0979(25) 0.1871(18)
C10 C 0.1542(22) -0.0421(26) 0.2179(19)
N2 N 0.1258(17) 0.0506(19) 0.1728(14)
C11 C 0.0696(19) 0.0481(22) 0.0973(15)
C12 C 0.0298(22) 0.1569(26) 0.0716(19)
N3 N 0.1023(15) 0.2317(19) 0.0843(13)
C13 C 0.0860(20) 0.3239(24) 0.0815(17)
C14 C -0.0095(20) 0.3604(25) 0.0705(17)
C15 C 0.1619(20) 0.3999(23) 0.0902(16)
C16 C 0.1504(20) 0.5073(22) 0.1117(16)
C17 C 0.2231(17) 0.5651(21) 0.1203(14)
C18 C 0.3062(19) 0.5294(22) 0.1093(15)
C19 C 0.3150(20) 0.4263(23) 0.0943(16)
N4 N 0.2455(14) 0.3623(18) 0.0828(12)
C20 C 0.4013(17) 0.3852(21) 0.0779(15)
C21 C 0.4843(18) 0.4433(23) 0.1099(16)
N5 N 0.3960(16) 0.3007(18) 0.0426(13)
C22 C 0.4777(20) 0.2590(24) 0.0245(18)
C23 C 0.4566(20) 0.1501(23) -0.0189(16)
N6 N 0.3896(14) 0.1664(17) -0.0903(12)
C24 C 0.3702(18) 0.0656(21) -0.1310(15)
C25 C 0.2889(18) 0.0730(22) -0.1944(15)
N7 N 0.2089(15) 0.1088(17) -0.1660(13)
C26 C 0.1553(18) 0.0289(21) -0.1366(16)
Cl1 Cl 0.2953(6) 0.1231(7) 0.3328(5)
H1 H 0.1823(18) -0.1653(23) -0.1569(16)
H2 H 0.3008(20) -0.3692(23) -0.0487(17)
H3 H 0.2040(20) -0.3552(23) -0.1000(17)
H4 H 0.2885(20) -0.3287(23) -0.1363(17)
H5 H 0.3338(18) -0.2470(21) 0.0502(16)
H6 H 0.4016(18) -0.0213(22) 0.1208(14)
H7 H 0.3879(18) -0.1322(22) 0.1470(14)
H8 H 0.3372(15) -0.0349(17) 0.2318(13)
H9 H 0.2398(20) -0.1559(25) 0.2207(18)
H10 H 0.1974(20) -0.1227(25) 0.1347(18)
H11 H 0.1028(22) -0.0855(26) 0.2161(19)
H12 H 0.1763(22) -0.0239(26) 0.2725(19)
H13 H 0.0974(17) 0.0889(19) 0.2039(14)
H14 H 0.0215(19) 0.0011(22) 0.0987(15)
H15 H 0.1040(19) 0.0232(22) 0.0598(15)
H16 H 0.0018(22) 0.1543(26) 0.0163(19)
H17 H -0.0153(22) 0.1748(26) 0.1015(19)
H18 H -0.0500(20) 0.3036(25) 0.0656(17)
H19 H -0.0155(20) 0.4001(25) 0.1163(17)
H20 H -0.0235(20) 0.4019(25) 0.0236(17)
H21 H 0.0933(20) 0.5307(22) 0.1210(16)
H22 H 0.2167(17) 0.6358(21) 0.1324(14)
H23 H 0.3565(19) 0.5746(22) 0.1127(15)
H24 H 0.5348(18) 0.4088(23) 0.0956(16)
H25 H 0.4798(18) 0.5106(23) 0.0876(16)
H26 H 0.4926(18) 0.4477(23) 0.1669(16)
H27 H 0.5198(20) 0.2481(24) 0.0734(18)
H28 H 0.5040(20) 0.3045(24) -0.0084(18)
H29 H 0.5099(20) 0.1181(23) -0.0300(16)
H30 H 0.4307(20) 0.1054(23) 0.0149(16)
H31 H 0.4110(14) 0.2098(17) -0.1228(12)
H32 H 0.4207(18) 0.0423(21) -0.1523(15)
H33 H 0.3597(18) 0.0175(21) -0.0915(15)
H34 H 0.3014(18) 0.1177(22) -0.2352(15)
H35 H 0.2770(18) 0.0065(22) -0.2174(15)
H36 H 0.1731(15) 0.1399(17) -0.2071(13)
H37 H 0.1127(18) 0.0625(21) -0.1106(16)
H38 H 0.1219(18) -0.0086(21) -0.1807(16)
Cl1C Cl 0.2953(6) 0.3769(7) -0.1672(5)
Pb2C Pb 0.2501(1) 0.2633(1) 0.4445(1)
Cl2 Cl 0.5096(5) 0.2076(6) 0.2548(5)
O2 O 0.5904(15) 0.2364(18) 0.2283(13)
O3 O 0.4448(16) 0.2891(18) 0.2390(13)
O4 O 0.5282(13) 0.1904(15) 0.3384(12)
O5 O 0.4716(14) 0.1203(17) 0.2149(12)
Cl3 Cl 0.0074(5) 0.2955(7) -0.1814(6)
O6 O 0.0283(17) 0.2458(21) -0.1114(15)
O7 O 0.0516(17) 0.2497(21) -0.2367(14)
O8 O 0.0345(27) 0.3938(33) -0.1739(21)
O9 O -0.0824(18) 0.2949(20) -0.2061(15)
loop_
_geom_bond_atom_site_label_1
_geom_bond_atom_site_label_2
_geom_bond_site_symmetry_1
_geom_bond_site_symmetry_2
Pb1 O1 1_555 1_555
Pb2 O1 1_555 1_555
O1 C1 1_555 1_555
C1 C2 1_555 1_555
C2 C3 1_555 1_555
C3 C4 1_555 1_555
C4 C5 1_555 1_555
C5 H2 1_555 1_555
C6 C4 1_555 1_555
C7 C1 1_555 1_555
C8 C7 1_555 1_555
N1 Pb1 1_555 1_555
C9 N1 1_555 1_555
C10 C9 1_555 1_555
N2 Pb1 1_555 1_555
C11 N2 1_555 1_555
C12 C11 1_555 1_555
N3 Pb1 1_555 1_555
C13 N3 1_555 1_555
C14 C13 1_555 1_555
C15 C13 1_555 1_555
C16 C15 1_555 1_555
C17 C16 1_555 1_555
C18 C17 1_555 1_555
C19 C18 1_555 1_555
N4 C15 1_555 1_555
C20 C19 1_555 1_555
C21 C20 1_555 1_555
N5 Pb2 1_555 1_555
C22 N5 1_555 1_555
C23 C22 1_555 1_555
N6 Pb2 1_555 1_555
C24 N6 1_555 1_555
C25 C24 1_555 1_555
N7 Pb2 1_555 1_555
C26 C2 1_555 1_555
Cl1 Pb1 1_555 1_555
H1 C3 1_555 1_555
H3 C5 1_555 1_555
H4 C5 1_555 1_555
H5 C6 1_555 1_555
H6 C8 1_555 1_555
H7 C8 1_555 1_555
H8 N1 1_555 1_555
H9 C9 1_555 1_555
H10 C9 1_555 1_555
H11 C10 1_555 1_555
H12 C10 1_555 1_555
H13 N2 1_555 1_555
H14 C11 1_555 1_555
H15 C11 1_555 1_555
H16 C12 1_555 1_555
H17 C12 1_555 1_555
H18 C14 1_555 1_555
H19 C14 1_555 1_555
H20 C14 1_555 1_555
H21 C16 1_555 1_555
H22 C17 1_555 1_555
H23 C18 1_555 1_555
H24 C21 1_555 1_555
H25 C21 1_555 1_555
H26 C21 1_555 1_555
H27 C22 1_555 1_555
H28 C22 1_555 1_555
H29 C23 1_555 1_555
H30 C23 1_555 1_555
H31 N6 1_555 1_555
H32 C24 1_555 1_555
H33 C24 1_555 1_555
H34 C25 1_555 1_555
H35 C25 1_555 1_555
H36 N7 1_555 1_555
H37 C26 1_555 1_555
H38 C26 1_555 1_555
Cl2 O2 1_555 1_555
O3 Cl2 1_555 1_555
O4 Cl2 1_555 1_555
O5 Cl2 1_555 1_555
Cl3 O6 1_555 1_555
O7 Cl3 1_555 1_555
O8 Cl3 1_555 1_555
O9 Cl3 1_555 1_555
Cl1C Pb2 1_555 1_555
Pb2C Cl1 1_555 1_555
C6 C7 1_555 1_555
C8 N1 1_555 1_555
C10 N2 1_555 1_555
C12 N3 1_555 1_555
C19 N4 1_555 1_555
C20 N5 1_555 1_555
C23 N6 1_555 1_555
C25 N7 1_555 1_555
N7 C26 1_555 1_555

#END
