
#######################################################################
#
#                 Cambridge Crystallographic Data Centre
#                                CCDC 
#
#######################################################################
#
# If this CIF has been generated from an entry in the Cambridge 
# Structural Database, then it will include bibliographic, chemical, 
# crystal, experimental, refinement or atomic coordinate data resulting 
# from the CCDC's data processing and validation procedures.
#
#######################################################################

data_PEMVOT
_symmetry_cell_setting           monoclinic
_symmetry_space_group_name_H-M   'C 2/c'
_symmetry_Int_Tables_number      15
_space_group_name_Hall           '-C 2yn'
loop_
_symmetry_equiv_pos_site_id
_symmetry_equiv_pos_as_xyz
1 x,y,z
2 1/2+x,1/2+y,z
3 -x,y,1/2-z
4 1/2-x,1/2+y,1/2-z
5 -x,-y,-z
6 1/2-x,1/2-y,-z
7 x,-y,1/2+z
8 1/2+x,1/2-y,1/2+z
_cell_length_a                   19.021(4)
_cell_length_b                   7.3974(15)
_cell_length_c                   20.427(4)
_cell_angle_alpha                90
_cell_angle_beta                 97.11(3)
_cell_angle_gamma                90
_cell_volume                     2852.1
loop_
_atom_site_label
_atom_site_type_symbol
_atom_site_fract_x
_atom_site_fract_y
_atom_site_fract_z
Cd1 Cd 1.0000 0.68140(6) 0.2500
Cd2 Cd 1.272630(13) 0.47606(4) 0.649760(13)
O1 O 1.15908(14) 0.6509(4) 0.66005(13)
O2 O 1.18961(17) 0.5691(6) 0.56443(16)
O3 O 1.3221(2) 0.7567(6) 0.6568(3)
O4 O 1.21068(16) 0.2080(4) 0.64661(16)
O5 O 1.2790(2) 0.4385(5) 0.76072(16)
O6 O 0.83889(16) 0.9063(6) 0.56902(16)
O7 O 0.89985(15) 0.8341(4) 0.66271(14)
O8 O 0.92770(16) 0.7361(5) 0.35570(15)
O9 O 1.04182(16) 0.7016(5) 0.35744(14)
O10 O 1.0000 0.9885(7) 0.2500
O11 O 1.0874(3) 0.4679(6) 0.25673(19)
C1 C 1.14566(19) 0.6384(5) 0.59815(19)
C2 C 0.89401(19) 0.8469(5) 0.60109(19)
C3 C 0.95449(19) 0.7943(5) 0.56442(18)
C4 C 0.94386(18) 0.7890(5) 0.49559(18)
H1 H 0.8997 0.8180 0.4731
C5 C 0.99922(19) 0.7404(5) 0.46050(17)
C6 C 0.9879(2) 0.7269(5) 0.38643(18)
C7 C 1.06516(18) 0.6950(5) 0.49472(18)
H2 H 1.1022 0.6626 0.4714
C8 C 1.07587(19) 0.6978(5) 0.56355(19)
C9 C 1.02062(19) 0.7492(5) 0.59810(17)
H3 H 1.0277 0.7536 0.6439
Cd2B Cd 0.727370(13) 0.47606(4) -0.149760(13)
Cd2A Cd 0.772630(13) 0.97606(4) 0.649760(13)
Cd2C Cd 1.227370(13) 0.97606(4) -0.149760(13)
O1B O 0.84092(14) 0.6509(4) -0.16005(13)
O2B O 0.81039(17) 0.5691(6) -0.06443(16)
O3B O 0.6779(2) 0.7567(6) -0.1568(3)
O4B O 0.78932(16) 0.2080(4) -0.14661(16)
O5B O 0.7210(2) 0.4385(5) -0.26072(16)
O6B O 1.16111(16) 0.9063(6) -0.06902(16)
O6A O 1.33889(16) 0.4063(6) 0.56902(16)
O6C O 0.66111(16) 0.4063(6) -0.06902(16)
O7B O 1.10015(15) 0.8341(4) -0.16271(14)
O7A O 1.39985(15) 0.3341(4) 0.66271(14)
O7C O 0.60015(15) 0.3341(4) -0.16271(14)
O8B O 1.07230(16) 0.7361(5) 0.14430(15)
O9B O 0.95818(16) 0.7016(5) 0.14256(14)
O11B O 0.9126(3) 0.4679(6) 0.24327(19)
C1B C 0.85434(19) 0.6384(5) -0.09815(19)
C2B C 1.10599(19) 0.8469(5) -0.10109(19)
C3B C 1.04551(19) 0.7943(5) -0.06442(18)
C4B C 1.05614(18) 0.7890(5) 0.00441(18)
H1B H 1.1003 0.8180 0.0269
C5B C 1.00078(19) 0.7404(5) 0.03950(17)
C6B C 1.0121(2) 0.7269(5) 0.11357(18)
C7B C 0.93484(18) 0.6950(5) 0.00528(18)
H2B H 0.8978 0.6626 0.0286
C8B C 0.92413(19) 0.6978(5) -0.06355(19)
C9B C 0.97938(19) 0.7492(5) -0.09810(17)
H3B H 0.9723 0.7536 -0.1439
O12 O 0.7392(5) 0.4890(9) 0.5526(3)
loop_
_geom_bond_atom_site_label_1
_geom_bond_atom_site_label_2
_geom_bond_site_symmetry_1
_geom_bond_site_symmetry_2
Cd1 O8 1_555 1_555
Cd2 O1 1_555 1_555
O1 C1 1_555 1_555
O2 Cd2 1_555 1_555
O3 Cd2 1_555 1_555
O4 Cd2 1_555 1_555
O5 Cd2 1_555 1_555
O6 C2 1_555 1_555
O7 C2 1_555 1_555
O8 C6 1_555 1_555
O9 Cd1 1_555 1_555
O10 Cd1 1_555 1_555
O11 Cd1 1_555 1_555
C1 O2 1_555 1_555
C2 C3 1_555 1_555
C3 C4 1_555 1_555
C4 H1 1_555 1_555
C5 C4 1_555 1_555
C6 O9 1_555 1_555
C7 C5 1_555 1_555
H2 C7 1_555 1_555
C8 C1 1_555 1_555
C9 C3 1_555 1_555
H3 C9 1_555 1_555
Cd2B O1B 1_555 1_555
Cd2A O6 1_555 1_555
Cd2C O6B 1_555 1_555
O1B C1B 1_555 1_555
O2B Cd2B 1_555 1_555
O3B Cd2B 1_555 1_555
O4B Cd2B 1_555 1_555
O5B Cd2B 1_555 1_555
O6B C2B 1_555 1_555
O6A Cd2 1_555 1_555
O6C Cd2B 1_555 1_555
O7B Cd2C 1_555 1_555
O7A Cd2 1_555 1_555
O7C Cd2B 1_555 1_555
O8B Cd1 1_555 1_555
O9B Cd1 1_555 1_555
O11B Cd1 1_555 1_555
C1B O2B 1_555 1_555
C2B O7B 1_555 1_555
C3B C2B 1_555 1_555
C4B C3B 1_555 1_555
H1B C4B 1_555 1_555
C5B C4B 1_555 1_555
C6B O8B 1_555 1_555
C7B C5B 1_555 1_555
H2B C7B 1_555 1_555
C8B C1B 1_555 1_555
C9B C3B 1_555 1_555
H3B C9B 1_555 1_555
O7 Cd2A 1_555 1_555
C5 C6 1_555 1_555
C7 C8 1_555 1_555
C8 C9 1_555 1_555
O9B C6B 1_555 1_555
C5B C6B 1_555 1_555
C7B C8B 1_555 1_555
C8B C9B 1_555 1_555

#END
