
#######################################################################
#
#                 Cambridge Crystallographic Data Centre
#                                CCDC 
#
#######################################################################
#
# If this CIF has been generated from an entry in the Cambridge 
# Structural Database, then it will include bibliographic, chemical, 
# crystal, experimental, refinement or atomic coordinate data resulting 
# from the CCDC's data processing and validation procedures.
#
#######################################################################

data_PEMVUY
_symmetry_cell_setting           monoclinic
_symmetry_space_group_name_H-M   'P 21/n'
_symmetry_Int_Tables_number      14
_space_group_name_Hall           '-P 2yn'
loop_
_symmetry_equiv_pos_site_id
_symmetry_equiv_pos_as_xyz
1 x,y,z
2 1/2-x,1/2+y,1/2-z
3 -x,-y,-z
4 1/2+x,1/2-y,1/2+z
_cell_length_a                   10.703(4)
_cell_length_b                   15.577(6)
_cell_length_c                   16.294(3)
_cell_angle_alpha                90
_cell_angle_beta                 91.62(2)
_cell_angle_gamma                90
_cell_volume                     2715.46
loop_
_atom_site_label
_atom_site_type_symbol
_atom_site_fract_x
_atom_site_fract_y
_atom_site_fract_z
Ag1 Ag 0.73981(39) 0.18876(23) 0.29836(20)
Ag2 Ag 0.79400(38) 0.31510(21) 0.17433(18)
Ag3 Ag 0.75157(36) -0.00303(21) 0.10042(20)
S1 S 0.8083(11) 0.14555(60) 0.15756(60)
S2 S 0.7915(10) 0.35378(57) 0.33251(51)
O1 O 0.9252(27) 0.1269(14) 0.3869(14)
O2 O 0.6087(32) 0.1261(21) 0.3885(17)
O3 O 1.0271(21) 0.3326(12) 0.1563(12)
O4 O 0.5112(90) 0.2556(52) 0.2579(52)
O5 O 0.3466(41) 0.3107(23) 0.1879(21)
O6 O 0.5703(28) 0.3150(16) 0.1604(15)
O7 O 0.8018(31) 0.4522(21) 0.1042(20)
O8 O 0.7945(42) 0.4826(22) -0.0203(21)
O9 O 0.7969(39) 0.3526(22) 0.0179(19)
O10 O 0.5693(68) 0.0229(39) 0.0851(37)
O11 O 0.6342(53) -0.0282(28) -0.0183(25)
O12 O 0.9483(54) -0.0294(30) 0.0774(31)
O13 O 0.8639(82) 0.0324(50) -0.0233(51)
N1 N 1.0192(47) 0.0757(20) 0.2236(21)
N2 N 1.0573(52) 0.1585(22) 0.1332(23)
N3 N 1.0472(33) 0.3794(21) 0.3236(20)
N4 N 0.9903(37) 0.2981(20) 0.4220(21)
N5 N 0.4982(57) 0.2883(32) 0.2117(33)
N6 N 0.7952(44) 0.4275(27) 0.0291(25)
N7 N 0.4924(53) 0.0362(26) 0.0279(25)
N8 N 1.0315(49) -0.0199(23) 0.0211(22)
C1 C 0.9699(56) 0.1250(20) 0.1745(25)
C2 C 0.9629(47) 0.3457(26) 0.3603(24)
C3 C 0.9942(57) 0.0445(29) 0.3731(28)
C4 C 0.9735(61) 0.0237(27) 0.2805(30)
C5 C 1.1638(73) 0.0707(50) 0.2230(36)
C6 C 1.1710(73) 0.1337(32) 0.1561(46)
C7 C 1.0390(49) 0.2149(38) 0.0667(30)
C8 C 1.0984(35) 0.3082(20) 0.0858(21)
C9 C 1.1023(36) 0.4145(22) 0.1829(18)
C10 C 1.0375(43) 0.4454(26) 0.2593(24)
C11 C 1.1571(60) 0.3654(31) 0.3684(28)
C12 C 1.1181(62) 0.3015(26) 0.4339(23)
C13 C 0.9123(50) 0.2452(29) 0.4785(20)
C14 C 0.9388(56) 0.1533(28) 0.4676(26)
H1 H 1.07 0.05 0.39
H2 H 0.94 0.00000 0.41
H3 H 0.88 0.02 0.27
H4 H 1.01 -0.03 0.28
H5 H 1.20 0.08 0.27
H6 H 1.18 0.01 0.20
H7 H 1.22 0.11 0.12
H8 H 1.22 0.18 0.18
H9 H 1.07 0.20 0.01
H10 H 0.95 0.23 0.06
H11 H 1.09 0.35 0.04
H12 H 1.19 0.30 0.10
H13 H 1.19 0.41 0.19
H14 H 1.09 0.46 0.14
H15 H 0.95 0.45 0.25000
H16 H 1.07 0.49 0.28
H17 H 1.21 0.34 0.33
H18 H 1.19 0.42 0.39
H19 H 1.15 0.32 0.48
H20 H 1.16 0.25000 0.42
H21 H 0.93 0.26 0.53
H22 H 0.83 0.25000 0.46
H23 H 0.89 0.12 0.51
H24 H 1.03 0.14 0.49
S2A S 0.7085(10) -0.14622(57) 0.16749(51)
Ag3A Ag 0.74843(36) 0.49697(21) 0.39958(20)
N7B N 0.5076(53) -0.0362(26) -0.0279(25)
N8B N 0.9685(49) 0.0199(23) -0.0211(22)
O11B O 0.3658(53) 0.0282(28) 0.0183(25)
O13B O 1.1361(82) -0.0324(50) 0.0233(51)
O14 O 0.3787(45) 0.1370(29) 0.3519(25)
loop_
_geom_bond_atom_site_label_1
_geom_bond_atom_site_label_2
_geom_bond_site_symmetry_1
_geom_bond_site_symmetry_2
Ag1 Ag2 1_555 1_555
Ag2 S1 1_555 1_555
Ag3 S1 1_555 1_555
S1 Ag1 1_555 1_555
S2 Ag1 1_555 1_555
O1 Ag1 1_555 1_555
O2 Ag1 1_555 1_555
O3 Ag2 1_555 1_555
O4 Ag1 1_555 1_555
O5 N5 1_555 1_555
O6 Ag2 1_555 1_555
O7 Ag2 1_555 1_555
O8 N6 1_555 1_555
O9 Ag2 1_555 1_555
O10 Ag3 1_555 1_555
O11 Ag3 1_555 1_555
O12 Ag3 1_555 1_555
O13 Ag3 1_555 1_555
N1 C1 1_555 1_555
N2 C1 1_555 1_555
N3 C2 1_555 1_555
N4 C2 1_555 1_555
N5 O4 1_555 1_555
N6 O7 1_555 1_555
N7 O10 1_555 1_555
N8 O12 1_555 1_555
C1 S1 1_555 1_555
C2 S2 1_555 1_555
C3 O1 1_555 1_555
C4 N1 1_555 1_555
C5 N1 1_555 1_555
C6 N2 1_555 1_555
C7 N2 1_555 1_555
C8 O3 1_555 1_555
C9 O3 1_555 1_555
C10 N3 1_555 1_555
C11 N3 1_555 1_555
C12 N4 1_555 1_555
C13 N4 1_555 1_555
C14 O1 1_555 1_555
H1 C3 1_555 1_555
H2 C3 1_555 1_555
H3 C4 1_555 1_555
H4 C4 1_555 1_555
H5 C5 1_555 1_555
H6 C5 1_555 1_555
H7 C6 1_555 1_555
H8 C6 1_555 1_555
H9 C7 1_555 1_555
H10 C7 1_555 1_555
H11 C8 1_555 1_555
H12 C8 1_555 1_555
H13 C9 1_555 1_555
H14 C9 1_555 1_555
H15 C10 1_555 1_555
H16 C10 1_555 1_555
H17 C11 1_555 1_555
H18 C11 1_555 1_555
H19 C12 1_555 1_555
H20 C12 1_555 1_555
H21 C13 1_555 1_555
H22 C13 1_555 1_555
H23 C14 1_555 1_555
H24 C14 1_555 1_555
S2A Ag3 1_555 1_555
Ag3A S2 1_555 1_555
N7B O11 1_555 1_555
N8B O13 1_555 1_555
O11B N7 1_555 1_555
O13B N8 1_555 1_555
Ag2 S2 1_555 1_555
O6 N5 1_555 1_555
O9 N6 1_555 1_555
N7 N7B 1_555 1_555
N8 N8B 1_555 1_555
C3 C4 1_555 1_555
C5 C6 1_555 1_555
C7 C8 1_555 1_555
C9 C10 1_555 1_555
C11 C12 1_555 1_555
C13 C14 1_555 1_555

#END
