
#######################################################################
#
#                 Cambridge Crystallographic Data Centre
#                                CCDC 
#
#######################################################################
#
# If this CIF has been generated from an entry in the Cambridge 
# Structural Database, then it will include bibliographic, chemical, 
# crystal, experimental, refinement or atomic coordinate data resulting 
# from the CCDC's data processing and validation procedures.
#
#######################################################################

data_PENFOE
_symmetry_cell_setting           monoclinic
_symmetry_space_group_name_H-M   'P 21'
_symmetry_Int_Tables_number      4
_space_group_name_Hall           'P 2yb'
loop_
_symmetry_equiv_pos_site_id
_symmetry_equiv_pos_as_xyz
1 x,y,z
2 -x,1/2+y,-z
_cell_length_a                   8.9042(4)
_cell_length_b                   18.4850(11)
_cell_length_c                   9.8137(5)
_cell_angle_alpha                90
_cell_angle_beta                 91.599(4)
_cell_angle_gamma                90
_cell_volume                     1614.65
loop_
_atom_site_label
_atom_site_type_symbol
_atom_site_fract_x
_atom_site_fract_y
_atom_site_fract_z
U1 U 0.41802(4) 0.984328(19) 0.48290(4)
U2 U 0.11272(4) 0.900122(18) 0.00534(3)
O1 O 0.2730(9) 0.9372(5) 0.5641(9)
O2 O 0.5677(9) 1.0280(5) 0.4048(8)
O3 O -0.0473(9) 0.8651(5) 0.0790(9)
O4 O 0.2709(9) 0.9355(5) -0.0742(8)
O5 O 0.2425(10) 1.0301(5) 0.3276(9)
O6 O 0.1050(12) 1.0012(5) 0.1470(8)
O7 O -0.1884(10) 1.2810(4) 0.0658(8)
O8 O -0.0367(9) 1.3358(4) 0.2094(7)
O9 O 0.4499(10) 0.8910(5) 0.3231(8)
O10 O 0.2555(9) 0.8601(4) 0.1884(8)
O11 O 0.4944(8) 0.5416(4) 0.2960(7)
O12 O 0.6653(9) 0.5975(4) 0.4225(8)
O13 O 0.5857(9) 0.9028(5) 0.6001(7)
H1 H 0.6957 0.9028 0.6056
O14 O -0.0398(9) 0.9804(5) -0.1253(7)
H2 H -0.1295 0.9951 -0.0959
C1 C 0.0499(18) 1.1711(9) 0.2457(14)
C2 C 0.0072(12) 1.0937(6) 0.2887(10)
C3 C -0.1464(17) 1.0857(7) 0.2194(17)
H5 H -0.2019 1.0472 0.2623
H6 H -0.1354 1.0735 0.1241
C4 C -0.2321(16) 1.1576(7) 0.2317(15)
H7 H -0.2867 1.1694 0.1477
H8 H -0.3015 1.1564 0.3061
C5 C -0.1030(13) 1.2109(6) 0.2604(11)
H9 H -0.1093 1.2258 0.3559
C6 C 0.1258(12) 1.0365(6) 0.2481(10)
C7 C -0.1141(13) 1.2784(6) 0.1750(11)
C8 C 0.099(2) 1.1748(11) 0.1003(15)
H10 H 0.1938 1.1511 0.0925
H11 H 0.1077 1.2245 0.0733
H12 H 0.0252 1.1512 0.0422
C9 C 0.175(2) 1.2047(9) 0.330(2)
H13 H 0.1434 1.2109 0.4215
H14 H 0.2000 1.2509 0.2918
H15 H 0.2615 1.1737 0.3289
C10 C -0.0158(19) 1.0912(10) 0.4467(15)
H16 H -0.0717 1.1329 0.4739
H17 H 0.0803 1.0909 0.4935
H18 H -0.0702 1.0481 0.4692
C11 C 0.4320(15) 0.7140(6) 0.2743(13)
C12 C 0.4750(13) 0.7846(6) 0.1885(11)
H19 H 0.4446 0.7747 0.0936
C13 C 0.6434(13) 0.7879(6) 0.1927(12)
H20 H 0.6783 0.8246 0.2569
H21 H 0.6804 0.7997 0.1034
C14 C 0.6994(14) 0.7134(6) 0.2375(13)
H22 H 0.7375 0.7148 0.3311
H23 H 0.7790 0.6970 0.1796
C15 C 0.5634(12) 0.6633(6) 0.2244(10)
C16 C 0.3844(11) 0.8504(5) 0.2323(10)
C17 C 0.5773(12) 0.5983(5) 0.3205(11)
C18 C 0.2744(14) 0.6875(7) 0.2403(15)
H24 H 0.2611 0.6831 0.1433
H25 H 0.2028 0.7215 0.2740
H26 H 0.2593 0.6413 0.2822
C19 C 0.4436(14) 0.7310(7) 0.4262(12)
H27 H 0.3769 0.7700 0.4466
H28 H 0.5449 0.7446 0.4503
H29 H 0.4164 0.6889 0.4773
C20 C 0.5386(14) 0.6373(7) 0.0787(11)
H30 H 0.5537 0.6769 0.0171
H31 H 0.4380 0.6194 0.0669
H32 H 0.6087 0.5994 0.0600
C21 C 0.544(2) 0.8566(11) 0.724(2)
H33 H 0.4621 0.8790 0.7695
H34 H 0.6292 0.8528 0.7854
H35 H 0.5144 0.8091 0.6935
C22 C 0.0000(18) 1.0285(9) -0.2322(15)
H36 H 0.0386 1.0727 -0.1936
H37 H -0.0873 1.0388 -0.2885
H38 H 0.0754 1.0063 -0.2864
U1A U 0.58198(4) 0.484328(19) 0.51710(4)
U2A U -0.11272(4) 1.400122(18) -0.00534(3)
O7A O 0.1884(10) 0.7810(4) -0.0658(8)
O8A O 0.0367(9) 0.8358(4) -0.2094(7)
O11A O 0.5056(8) 1.0416(4) 0.7040(7)
O12A O 0.3347(9) 1.0975(4) 0.5775(8)
O15 O 0.8735(11) 0.8877(7) 0.5650(10)
H3 H 0.9478 0.8843 0.6349
C23 C 0.9390(17) 0.8777(9) 0.4341(14)
H39 H 0.8802 0.9031 0.3659
H40 H 0.9409 0.8271 0.4123
H41 H 1.0397 0.8964 0.4366
O16 O -0.3201(11) 0.9863(8) -0.0861(9)
H4 H -0.4024 0.9978 -0.1508
C24 C -0.3840(15) 0.9709(8) 0.0441(14)
H42 H -0.3147 0.9852 0.1158
H43 H -0.4036 0.9200 0.0510
H44 H -0.4763 0.9972 0.0522
loop_
_geom_bond_atom_site_label_1
_geom_bond_atom_site_label_2
_geom_bond_site_symmetry_1
_geom_bond_site_symmetry_2
U1 O1 1_555 1_555
U2 O3 1_555 1_555
O2 U1 1_555 1_555
O4 U2 1_555 1_555
O5 U1 1_555 1_555
O6 U2 1_555 1_555
O7 C7 1_555 1_555
O8 C7 1_555 1_555
O9 U1 1_555 1_555
O10 U2 1_555 1_555
O11 C17 1_555 1_555
O12 C17 1_555 1_555
O13 U1 1_555 1_555
H1 O13 1_555 1_555
O14 U2 1_555 1_555
H2 O14 1_555 1_555
O15 H3 1_555 1_555
O16 H4 1_555 1_555
C1 C2 1_555 1_555
C2 C3 1_555 1_555
C3 H5 1_555 1_555
H6 C3 1_555 1_555
C4 C3 1_555 1_555
H7 C4 1_555 1_555
H8 C4 1_555 1_555
C5 C1 1_555 1_555
H9 C5 1_555 1_555
C6 O5 1_555 1_555
C7 C5 1_555 1_555
C8 C1 1_555 1_555
H10 C8 1_555 1_555
H11 C8 1_555 1_555
H12 C8 1_555 1_555
C9 C1 1_555 1_555
H13 C9 1_555 1_555
H14 C9 1_555 1_555
H15 C9 1_555 1_555
C10 C2 1_555 1_555
H16 C10 1_555 1_555
H17 C10 1_555 1_555
H18 C10 1_555 1_555
C11 C12 1_555 1_555
C12 H19 1_555 1_555
C13 C12 1_555 1_555
H20 C13 1_555 1_555
H21 C13 1_555 1_555
C14 C13 1_555 1_555
H22 C14 1_555 1_555
H23 C14 1_555 1_555
C15 C11 1_555 1_555
C16 O9 1_555 1_555
C17 C15 1_555 1_555
C18 C11 1_555 1_555
H24 C18 1_555 1_555
H25 C18 1_555 1_555
H26 C18 1_555 1_555
C19 C11 1_555 1_555
H27 C19 1_555 1_555
H28 C19 1_555 1_555
H29 C19 1_555 1_555
C20 C15 1_555 1_555
H30 C20 1_555 1_555
H31 C20 1_555 1_555
H32 C20 1_555 1_555
C21 O13 1_555 1_555
H33 C21 1_555 1_555
H34 C21 1_555 1_555
H35 C21 1_555 1_555
C22 O14 1_555 1_555
H36 C22 1_555 1_555
H37 C22 1_555 1_555
H38 C22 1_555 1_555
C23 O15 1_555 1_555
H39 C23 1_555 1_555
H40 C23 1_555 1_555
H41 C23 1_555 1_555
C24 O16 1_555 1_555
H42 C24 1_555 1_555
H43 C24 1_555 1_555
H44 C24 1_555 1_555
U1A O11 1_555 1_555
U2A O7 1_555 1_555
O7A U2 1_555 1_555
O8A U2 1_555 1_555
O11A U1 1_555 1_555
O12A U1 1_555 1_555
O6 C6 1_555 1_555
O8 U2A 1_555 1_555
O10 C16 1_555 1_555
O12 U1A 1_555 1_555
C2 C6 1_555 1_555
C4 C5 1_555 1_555
C12 C16 1_555 1_555
C14 C15 1_555 1_555

#END
