
#######################################################################
#
#                 Cambridge Crystallographic Data Centre
#                                CCDC 
#
#######################################################################
#
# If this CIF has been generated from an entry in the Cambridge 
# Structural Database, then it will include bibliographic, chemical, 
# crystal, experimental, refinement or atomic coordinate data resulting 
# from the CCDC's data processing and validation procedures.
#
#######################################################################

data_PENFIY
_symmetry_cell_setting           orthorhombic
_symmetry_space_group_name_H-M   'P 21 21 21'
_symmetry_Int_Tables_number      19
_space_group_name_Hall           'P 2ac 2ab'
loop_
_symmetry_equiv_pos_site_id
_symmetry_equiv_pos_as_xyz
1 x,y,z
2 1/2-x,-y,1/2+z
3 -x,1/2+y,1/2-z
4 1/2+x,1/2-y,-z
_cell_length_a                   9.6288(4)
_cell_length_b                   14.7667(8)
_cell_length_c                   19.1379(11)
_cell_angle_alpha                90
_cell_angle_beta                 90
_cell_angle_gamma                90
_cell_volume                     2721.13
loop_
_atom_site_label
_atom_site_type_symbol
_atom_site_fract_x
_atom_site_fract_y
_atom_site_fract_z
U1 U 0.76472(3) 0.007826(17) 0.244619(13)
O1 O 0.8234(6) -0.0786(4) 0.3006(3)
O2 O 0.7097(7) 0.0961(4) 0.1883(3)
O3 O 0.7503(6) -0.1023(4) 0.1512(3)
O4 O 0.9434(6) -0.0289(5) 0.1564(3)
O5 O 0.7240(7) -0.1173(4) -0.1583(3)
O6 O 0.9147(6) -0.0397(5) -0.1687(3)
N1 N 1.0015(7) 0.0825(4) 0.2611(4)
N2 N 0.5283(7) -0.0687(5) 0.2251(4)
C1 C 0.8113(11) -0.1026(7) -0.0035(5)
C2 C 0.9077(8) -0.1295(5) 0.0567(4)
C3 C 1.0493(11) -0.1072(11) 0.0267(7)
H1 H 1.1187 -0.1475 0.0464
H2 H 1.0744 -0.0455 0.0386
C4 C 1.0456(10) -0.1180(13) -0.0524(6)
H3 H 1.0768 -0.0633 -0.0757
H4 H 1.1027 -0.1685 -0.0675
C5 C 0.8930(8) -0.1358(7) -0.0665(5)
H5 H 0.8803 -0.2015 -0.0697
C6 C 0.8666(9) -0.0854(6) 0.1254(4)
C7 C 0.8434(9) -0.0941(6) -0.1358(5)
C8 C 0.6632(12) -0.1388(11) -0.0066(7)
H6 H 0.6209 -0.1334 0.0386
H7 H 0.6648 -0.2013 -0.0204
H8 H 0.6107 -0.1045 -0.0400
C9 C 0.7847(13) -0.0022(7) -0.0057(5)
H9 H 0.7420 0.0134 -0.0494
H10 H 0.8711 0.0297 -0.0012
H11 H 0.7240 0.0144 0.0320
C10 C 0.8843(13) -0.2310(6) 0.0623(7)
H12 H 0.8464 -0.2456 0.1074
H13 H 0.9702 -0.2630 0.0559
H14 H 0.8197 -0.2485 0.0266
C11 C 1.1089(9) 0.0353(7) 0.2868(5)
H15 H 1.0916 -0.0227 0.3037
C12 C 1.2439(10) 0.0673(7) 0.2898(6)
H16 H 1.3151 0.0309 0.3068
C13 C 1.2703(11) 0.1521(8) 0.2676(6)
H17 H 1.3600 0.1756 0.2687
C14 C 1.1618(12) 0.2027(7) 0.2433(7)
H18 H 1.1759 0.2620 0.2284
C15 C 1.0294(10) 0.1643(6) 0.2410(6)
H19 H 0.9568 0.1996 0.2240
C16 C 0.4828(9) -0.1371(6) 0.2637(6)
H20 H 0.5360 -0.1562 0.3015
C17 C 0.3571(11) -0.1819(6) 0.2495(7)
H21 H 0.3273 -0.2291 0.2780
C18 C 0.2801(12) -0.1557(7) 0.1942(6)
H22 H 0.1976 -0.1853 0.1834
C19 C 0.3239(12) -0.0872(8) 0.1554(6)
H23 H 0.2705 -0.0668 0.1182
C20 C 0.4491(10) -0.0460(8) 0.1705(6)
H24 H 0.4800 -0.0001 0.1410
U1A U 0.73528(3) -0.007826(17) -0.255381(13)
O5A O 0.7760(7) 0.1173(4) 0.3417(3)
O6A O 0.5853(6) 0.0397(5) 0.3313(3)
N3 N 0.3566(16) 0.0828(8) 0.0204(7)
C21 C 0.2677(17) 0.1490(11) 0.0462(6)
H25 H 0.2251 0.1412 0.0894
C22 C 0.2426(15) 0.2270(9) 0.0075(7)
H26 H 0.1832 0.2713 0.0248
C23 C 0.3064(14) 0.2388(7) -0.0570(6)
H27 H 0.2896 0.2909 -0.0829
C24 C 0.3952(12) 0.1726(8) -0.0829(5)
H28 H 0.4379 0.1804 -0.1260
C25 C 0.4203(12) 0.0946(7) -0.0442(7)
H29 H 0.4798 0.0503 -0.0614
loop_
_geom_bond_atom_site_label_1
_geom_bond_atom_site_label_2
_geom_bond_site_symmetry_1
_geom_bond_site_symmetry_2
U1 O1 1_555 1_555
O2 U1 1_555 1_555
O3 U1 1_555 1_555
O4 U1 1_555 1_555
O5 C7 1_555 1_555
O6 C7 1_555 1_555
N1 U1 1_555 1_555
N2 U1 1_555 1_555
C1 C2 1_555 1_555
C2 C3 1_555 1_555
C3 H1 1_555 1_555
H2 C3 1_555 1_555
C4 C3 1_555 1_555
H3 C4 1_555 1_555
H4 C4 1_555 1_555
C5 C1 1_555 1_555
H5 C5 1_555 1_555
C6 O3 1_555 1_555
C7 C5 1_555 1_555
C8 C1 1_555 1_555
H6 C8 1_555 1_555
H7 C8 1_555 1_555
H8 C8 1_555 1_555
C9 C1 1_555 1_555
H9 C9 1_555 1_555
H10 C9 1_555 1_555
H11 C9 1_555 1_555
C10 C2 1_555 1_555
H12 C10 1_555 1_555
H13 C10 1_555 1_555
H14 C10 1_555 1_555
C11 N1 1_555 1_555
H15 C11 1_555 1_555
C12 C11 1_555 1_555
H16 C12 1_555 1_555
C13 C12 1_555 1_555
H17 C13 1_555 1_555
C14 C13 1_555 1_555
H18 C14 1_555 1_555
C15 N1 1_555 1_555
H19 C15 1_555 1_555
C16 N2 1_555 1_555
H20 C16 1_555 1_555
C17 C16 1_555 1_555
H21 C17 1_555 1_555
C18 C17 1_555 1_555
H22 C18 1_555 1_555
C19 C18 1_555 1_555
H23 C19 1_555 1_555
C20 N2 1_555 1_555
H24 C20 1_555 1_555
N3 C21 1_555 1_555
C21 H25 1_555 1_555
C22 C21 1_555 1_555
H26 C22 1_555 1_555
C23 C22 1_555 1_555
H27 C23 1_555 1_555
C24 C23 1_555 1_555
H28 C24 1_555 1_555
C25 N3 1_555 1_555
H29 C25 1_555 1_555
U1A O5 1_555 1_555
O5A U1 1_555 1_555
O6A U1 1_555 1_555
O4 C6 1_555 1_555
O6 U1A 1_555 1_555
C2 C6 1_555 1_555
C4 C5 1_555 1_555
C14 C15 1_555 1_555
C19 C20 1_555 1_555
C24 C25 1_555 1_555

#END
