
#######################################################################
#
#                 Cambridge Crystallographic Data Centre
#                                CCDC 
#
#######################################################################
#
# If this CIF has been generated from an entry in the Cambridge 
# Structural Database, then it will include bibliographic, chemical, 
# crystal, experimental, refinement or atomic coordinate data resulting 
# from the CCDC's data processing and validation procedures.
#
#######################################################################

data_PENKOK
_symmetry_cell_setting           tetragonal
_symmetry_space_group_name_H-M   'P 4/n c c'
_symmetry_Int_Tables_number      130
_space_group_name_Hall           '-P 4a 2ac'
loop_
_symmetry_equiv_pos_site_id
_symmetry_equiv_pos_as_xyz
1 x,y,z
2 1/2-y,x,z
3 1/2-x,1/2-y,z
4 y,1/2-x,z
5 1/2+x,-y,1/2-z
6 -y,-x,1/2-z
7 -x,1/2+y,1/2-z
8 1/2+y,1/2+x,1/2-z
9 -x,-y,-z
10 1/2+y,-x,-z
11 1/2+x,1/2+y,-z
12 -y,1/2+x,-z
13 1/2-x,y,1/2+z
14 y,x,1/2+z
15 x,1/2-y,1/2+z
16 1/2-y,1/2-x,1/2+z
_cell_length_a                   13.640(2)
_cell_length_b                   13.640(2)
_cell_length_c                   17.128(3)
_cell_angle_alpha                90
_cell_angle_beta                 90
_cell_angle_gamma                90
_cell_volume                     3186.66
loop_
_atom_site_label
_atom_site_type_symbol
_atom_site_fract_x
_atom_site_fract_y
_atom_site_fract_z
Pt1 Pt 0.2500 0.2500 0.01269(3)
Cd1 Cd -0.2500 0.2500 0.2500
O1 O -0.2224(4) 0.0917(3) 0.3183(4)
O2 O -0.1871(3) 0.3481(3) 0.1470(3)
N1 N -0.3005(3) -0.1096(3) 0.4884(3)
C1 C -0.3171(4) 0.0455(4) 0.4273(4)
C2 C -0.2814(4) -0.0499(4) 0.4290(3)
C3 C -0.2931(5) 0.1120(4) 0.3613(5)
C4 C 0.4212(6) 0.1467(5) -0.0491(4)
C5 C 0.5151(7) 0.1120(5) -0.0518(5)
C6 C 0.5777(6) 0.1291(5) 0.0090(5)
H1 H 0.4275 0.2577 0.1132
H2 H 0.6423 0.1030 0.0076
H3 H 0.3799 0.1367 -0.0930
H4 H 0.5342 0.0713 -0.0941
Pt1D Pt -0.2500 -0.2500 0.48731(3)
Cd1_2 Cd 0.7500 0.2500 0.2500
Cd1A Cd 0.2500 0.7500 0.2500
O1B O -0.2776(4) 0.4083(3) 0.3183(4)
O1G O -0.4083(3) 0.2776(4) 0.1817(4)
O1E O -0.0917(3) 0.2224(4) 0.1817(4)
O1G_2 O 0.5917(3) 0.2776(4) 0.1817(4)
O1F O 0.2224(4) 0.5917(3) 0.1817(4)
O2G O -0.1519(3) 0.3129(3) 0.3530(3)
O2B O -0.3129(3) 0.1519(3) 0.1470(3)
O2E O -0.3481(3) 0.1871(3) 0.3530(3)
O2B_2 O 0.6871(3) 0.1519(3) 0.1470(3)
O2C O 0.3481(3) 0.6871(3) 0.1470(3)
N1E N 0.1096(3) 0.3005(3) 0.0116(3)
N1D N 0.1995(3) 0.1096(3) 0.0116(3)
N1G N 0.3904(3) 0.1995(3) 0.0116(3)
N1F N 0.3005(3) 0.3904(3) 0.0116(3)
C1E C -0.0455(4) 0.3171(4) 0.0727(4)
C1G C 0.5455(4) 0.1829(4) 0.0727(4)
C1F C 0.3171(4) 0.5455(4) 0.0727(4)
C2E C 0.0499(4) 0.2814(4) 0.0710(3)
C2G C 0.4501(4) 0.2186(4) 0.0710(3)
C2F C 0.2814(4) 0.4501(4) 0.0710(3)
C3E C -0.1120(4) 0.2931(5) 0.1387(5)
C3G C 0.6120(4) 0.2069(5) 0.1387(5)
C3F C 0.2931(5) 0.6120(4) 0.1387(5)
C4A C 0.3533(5) 0.4212(6) -0.0491(4)
C4B C 0.0788(6) 0.3533(5) -0.0491(4)
C4G C -0.3533(5) -0.0788(6) 0.5491(4)
C5A C 0.3880(5) 0.5151(7) -0.0518(5)
C5B C -0.0151(7) 0.3880(5) -0.0518(5)
C5G C -0.3880(5) 0.0151(7) 0.5518(5)
C6A C 0.3709(5) 0.5777(6) 0.0090(5)
C6B C -0.0777(6) 0.3709(5) 0.0090(5)
C6G C -0.3709(5) 0.0777(6) 0.4910(5)
H1A H 0.2423 0.4275 0.1132
H1B H 0.0725 0.2423 0.1132
H1G H -0.2423 -0.0725 0.3868
H2A H 0.3970 0.6423 0.0076
H2B H -0.1423 0.3970 0.0076
H2G H -0.3970 0.1423 0.4924
H3A H 0.3633 0.3799 -0.0930
H3B H 0.1201 0.3633 -0.0930
H3G H -0.3633 -0.1201 0.5930
H4A H 0.4287 0.5342 -0.0941
H4B H -0.0342 0.4287 -0.0941
H4G H -0.4287 0.0342 0.5941
loop_
_geom_bond_atom_site_label_1
_geom_bond_atom_site_label_2
_geom_bond_site_symmetry_1
_geom_bond_site_symmetry_2
Pt1 N1E 1_555 1_555
Cd1 O1 1_555 1_555
O1 C3 1_555 1_555
O2 Cd1 1_555 1_555
N1 C2 1_555 1_555
C1 C2 1_555 1_555
C2 H1G 1_555 1_555
C3 C1 1_555 1_555
C4 C5 1_555 1_555
C5 C6 1_555 1_555
C6 H2 1_555 1_555
H1 C2G 1_555 1_555
H3 C4 1_555 1_555
H4 C5 1_555 1_555
Pt1D N1 1_555 1_555
Cd1_2 O1G_2 1_555 1_555
Cd1A O1F 1_555 1_555
O1B Cd1 1_555 1_555
O1G Cd1 1_555 1_555
O1E Cd1 1_555 1_555
O1G_2 C3G 1_555 1_555
O1F C3F 1_555 1_555
O2G Cd1 1_555 1_555
O2B Cd1 1_555 1_555
O2E Cd1 1_555 1_555
O2B_2 Cd1_2 1_555 1_555
O2C Cd1A 1_555 1_555
N1E C2E 1_555 1_555
N1D Pt1 1_555 1_555
N1G Pt1 1_555 1_555
N1F Pt1 1_555 1_555
C1E C2E 1_555 1_555
C1G C6 1_555 1_555
C1F C2F 1_555 1_555
C2E H1B 1_555 1_555
C2G N1G 1_555 1_555
C2F N1F 1_555 1_555
C3E O2 1_555 1_555
C3G O2B_2 1_555 1_555
C3F O2C 1_555 1_555
C4A N1F 1_555 1_555
C4B N1E 1_555 1_555
C4G N1 1_555 1_555
C5A C4A 1_555 1_555
C5B C4B 1_555 1_555
C5G C4G 1_555 1_555
C6A C1F 1_555 1_555
C6B C1E 1_555 1_555
C6G C1 1_555 1_555
H1A C2F 1_555 1_555
H2A C6A 1_555 1_555
H2B C6B 1_555 1_555
H2G C6G 1_555 1_555
H3A C4A 1_555 1_555
H3B C4B 1_555 1_555
H3G C4G 1_555 1_555
H4A C5A 1_555 1_555
H4B C5B 1_555 1_555
H4G C5G 1_555 1_555
C3 O2E 1_555 1_555
C4 N1G 1_555 1_555
O1E C3E 1_555 1_555
C1E C3E 1_555 1_555
C1G C2G 1_555 1_555
C1G C3G 1_555 1_555
C1F C3F 1_555 1_555
C5A C6A 1_555 1_555
C5B C6B 1_555 1_555
C5G C6G 1_555 1_555

#END
