
#######################################################################
#
#                 Cambridge Crystallographic Data Centre
#                                CCDC 
#
#######################################################################
#
# If this CIF has been generated from an entry in the Cambridge 
# Structural Database, then it will include bibliographic, chemical, 
# crystal, experimental, refinement or atomic coordinate data resulting 
# from the CCDC's data processing and validation procedures.
#
#######################################################################

data_PENKUQ
_symmetry_cell_setting           triclinic
_symmetry_space_group_name_H-M   'P -1'
_symmetry_Int_Tables_number      2
_space_group_name_Hall           '-P 1'
loop_
_symmetry_equiv_pos_site_id
_symmetry_equiv_pos_as_xyz
1 x,y,z
2 -x,-y,-z
_cell_length_a                   7.8384(18)
_cell_length_b                   9.0320(18)
_cell_length_c                   9.809(2)
_cell_angle_alpha                86.979(11)
_cell_angle_beta                 83.2280(10)
_cell_angle_gamma                79.698(10)
_cell_volume                     678.125
loop_
_atom_site_label
_atom_site_type_symbol
_atom_site_fract_x
_atom_site_fract_y
_atom_site_fract_z
Pt1 Pt 0.0000 1.0000 1.0000
Zn1 Zn 0.5000 0.5000 0.5000
O1 O 0.4090(4) 0.8572(3) 0.3882(3)
O2 O 0.3740(4) 0.7033(3) 0.5738(3)
O3 O 0.6307(4) 0.6038(3) 0.3367(3)
O4 O 0.7131(4) 0.4934(4) 0.6254(3)
O5 O 0.2247(4) 1.5484(3) 0.8984(3)
O6 O 0.3078(4) 1.5927(3) 1.1015(3)
N1 N 0.1854(4) 1.1131(4) 1.0467(4)
N2 N 0.0637(4) 1.0372(4) 0.7979(4)
C1 C 0.1676(5) 0.9289(5) 0.7220(4)
C2 C 0.2284(5) 0.9534(5) 0.5855(4)
C3 C 0.1773(6) 1.0943(5) 0.5253(5)
C4 C 0.0655(6) 1.2029(5) 0.6010(4)
C5 C 0.0095(5) 1.1707(5) 0.7346(4)
C6 C 0.3474(5) 0.8289(5) 0.5069(5)
C7 C 0.4320(6) 1.1170(5) 1.1657(5)
C8 C 0.1815(5) 1.2592(5) 1.0114(4)
C9 C 0.3096(6) 1.0421(5) 1.1226(4)
C10 C 0.4249(6) 1.2689(5) 1.1310(4)
C11 C 0.2975(5) 1.3412(5) 1.0513(4)
C12 C 0.2761(5) 1.5080(5) 1.0139(5)
H1 H -0.0713 1.2448 0.7850
H2 H 0.0283 1.2994 0.5607
H3 H 0.2186 1.1154 0.4326
H4 H 0.1999 0.8320 0.7634
H5 H 0.6117 0.7105 0.3272
H6 H 0.7099 0.5447 0.2716
H7 H 0.7123 0.5737 0.6844
H8 H 0.8068 0.4104 0.6211
H9 H 0.0945 1.3082 0.9567
H10 H 0.5055 1.3232 1.1619
H11 H 0.5196 1.0651 1.2185
H12 H 0.3137 0.9383 1.1463
Zn1_2 Zn -0.5000 1.5000 1.5000
O1A O -0.4090(4) 1.1428(3) 1.6118(3)
O2A O -0.3740(4) 1.2967(3) 1.4262(3)
O2A_2 O 0.6260(4) 0.2967(3) 0.4262(3)
O3A O 0.3693(4) 0.3962(3) 0.6633(3)
O4A O 0.2869(4) 0.5066(4) 0.3746(3)
O5A O -0.2247(4) 0.4516(3) 1.1016(3)
O6A O -0.3078(4) 0.4073(3) 0.8985(3)
N1A N -0.1854(4) 0.8869(4) 0.9533(4)
N2A N -0.0637(4) 0.9628(4) 1.2021(4)
C1A C -0.1676(5) 1.0711(5) 1.2780(4)
C2A C -0.2284(5) 1.0466(5) 1.4145(4)
C3A C -0.1773(6) 0.9057(5) 1.4747(5)
C4A C -0.0655(6) 0.7971(5) 1.3990(4)
C5A C -0.0095(5) 0.8293(5) 1.2654(4)
C6A C -0.3474(5) 1.1711(5) 1.4931(5)
C7A C -0.4320(6) 0.8830(5) 0.8343(5)
C8A C -0.1815(5) 0.7408(5) 0.9886(4)
C9A C -0.3096(6) 0.9579(5) 0.8774(4)
C10A C -0.4249(6) 0.7311(5) 0.8690(4)
C11A C -0.2975(5) 0.6588(5) 0.9487(4)
C12A C -0.2761(5) 0.4920(5) 0.9861(5)
H1A H 0.0713 0.7552 1.2150
H2A H -0.0283 0.7006 1.4393
H3A H -0.2186 0.8846 1.5674
H4A H -0.1999 1.1680 1.2366
H5A H 0.3883 0.2895 0.6728
H6A H 0.2901 0.4553 0.7284
H7A H 0.2877 0.4263 0.3156
H8A H 0.1932 0.5896 0.3789
H9A H -0.0945 0.6918 1.0433
H10A H -0.5055 0.6768 0.8381
H11A H -0.5196 0.9349 0.7815
H12A H -0.3137 1.0617 0.8537
O7 O 1.0113(4) 0.6180(4) 0.6771(3)
H13 H 1.1168 0.6109 0.6278
H14 H 1.0578 0.5888 0.7558
loop_
_geom_bond_atom_site_label_1
_geom_bond_atom_site_label_2
_geom_bond_site_symmetry_1
_geom_bond_site_symmetry_2
Pt1 N1 1_555 1_555
Zn1 O2 1_555 1_555
O1 C6 1_555 1_555
O2 C6 1_555 1_555
O3 Zn1 1_555 1_555
O4 Zn1 1_555 1_555
O5 C12 1_555 1_555
O6 C12 1_555 1_555
O7 H13 1_555 1_555
N1 C8 1_555 1_555
N2 Pt1 1_555 1_555
C1 N2 1_555 1_555
C2 C1 1_555 1_555
C3 C2 1_555 1_555
C4 C3 1_555 1_555
C5 N2 1_555 1_555
C6 C2 1_555 1_555
C7 C9 1_555 1_555
C8 C11 1_555 1_555
C9 N1 1_555 1_555
C10 C7 1_555 1_555
C11 C10 1_555 1_555
C12 C11 1_555 1_555
H1 C5 1_555 1_555
H2 C4 1_555 1_555
H3 C3 1_555 1_555
H4 C1 1_555 1_555
H5 O3 1_555 1_555
H6 O3 1_555 1_555
H7 O4 1_555 1_555
H8 O4 1_555 1_555
H9 C8 1_555 1_555
H10 C10 1_555 1_555
H11 C7 1_555 1_555
H12 C9 1_555 1_555
H14 O7 1_555 1_555
Zn1_2 O2A 1_555 1_555
O1A C6A 1_555 1_555
O2A C6A 1_555 1_555
O2A_2 Zn1 1_555 1_555
O3A Zn1 1_555 1_555
O4A Zn1 1_555 1_555
O5A C12A 1_555 1_555
O6A C12A 1_555 1_555
N1A Pt1 1_555 1_555
N2A Pt1 1_555 1_555
C1A N2A 1_555 1_555
C2A C1A 1_555 1_555
C3A C2A 1_555 1_555
C4A C3A 1_555 1_555
C5A N2A 1_555 1_555
C6A C2A 1_555 1_555
C7A C9A 1_555 1_555
C8A N1A 1_555 1_555
C9A N1A 1_555 1_555
C10A C7A 1_555 1_555
C11A C8A 1_555 1_555
C12A C11A 1_555 1_555
H1A C5A 1_555 1_555
H2A C4A 1_555 1_555
H3A C3A 1_555 1_555
H4A C1A 1_555 1_555
H5A O3A 1_555 1_555
H6A O3A 1_555 1_555
H7A O4A 1_555 1_555
H8A O4A 1_555 1_555
H9A C8A 1_555 1_555
H10A C10A 1_555 1_555
H11A C7A 1_555 1_555
H12A C9A 1_555 1_555
C4 C5 1_555 1_555
C4A C5A 1_555 1_555
C10A C11A 1_555 1_555

#END
