
#######################################################################
#
#                 Cambridge Crystallographic Data Centre
#                                CCDC 
#
#######################################################################
#
# If this CIF has been generated from an entry in the Cambridge 
# Structural Database, then it will include bibliographic, chemical, 
# crystal, experimental, refinement or atomic coordinate data resulting 
# from the CCDC's data processing and validation procedures.
#
#######################################################################

data_PENKAW
_symmetry_cell_setting           monoclinic
_symmetry_space_group_name_H-M   'P 21/n'
_symmetry_Int_Tables_number      14
_space_group_name_Hall           '-P 2yn'
loop_
_symmetry_equiv_pos_site_id
_symmetry_equiv_pos_as_xyz
1 x,y,z
2 1/2-x,1/2+y,1/2-z
3 -x,-y,-z
4 1/2+x,1/2-y,1/2+z
_cell_length_a                   17.3334(8)
_cell_length_b                   25.7403(12)
_cell_length_c                   23.7612(15)
_cell_angle_alpha                90
_cell_angle_beta                 109.812(6)
_cell_angle_gamma                90
_cell_volume                     9973.96
loop_
_atom_site_label
_atom_site_type_symbol
_atom_site_fract_x
_atom_site_fract_y
_atom_site_fract_z
Cu1 Cu 1.05544(15) -0.21529(9) 0.37637(13)
P1 P 0.3962(3) -0.13845(18) 0.2646(2)
W1 W 0.23246(5) -0.06048(3) 0.27076(4)
O1 O 0.3049(7) -0.1385(5) 0.2656(7)
C1 C 1.0075(11) -0.0975(8) 0.2569(10)
N1 N 1.0122(11) -0.1509(7) 0.2690(9)
O2 O 1.1045(14) 0.0707(10) 0.5229(12)
Cu2 Cu 1.07750(15) -0.09460(10) 0.43858(12)
P2 P 0.6224(3) -0.14162(18) 0.2625(2)
W2 W 0.18881(5) -0.17132(3) 0.18939(4)
O3 O 0.4494(7) -0.1118(5) 0.3212(6)
O4 O 1.4852(10) -0.1279(7) 0.6239(9)
C2 C 0.9828(12) -0.0773(8) 0.1952(10)
N2 N 1.0370(9) -0.1508(7) 0.3276(8)
Cu3 Cu 1.20908(15) -0.19512(10) 0.49162(14)
W3 W 0.26104(5) -0.17743(3) 0.33981(4)
O5 O 0.3948(7) -0.1101(4) 0.2081(6)
O6 O 1.4796(11) -0.2314(8) 0.5866(13)
C3 C 0.9541(14) -0.1126(12) 0.1486(11)
H1 H 0.9494 -0.1474 0.1571
N3 N 1.0454(9) -0.1055(6) 0.3512(7)
Cu4 Cu 1.0000 0.0000 0.5000
W4 W 0.44856(5) -0.02428(3) 0.34968(4)
O7 O 0.4207(7) -0.1964(5) 0.2629(6)
O8 O 1.0190(10) -0.2609(6) 0.3070(8)
C4 C 0.9332(19) -0.0972(15) 0.0916(17)
H2 H 0.9188 -0.1208 0.0601
N4 N 1.0282(9) -0.0716(6) 0.3074(7)
Cu5 Cu 1.40622(18) -0.17388(12) 0.5661(2)
W5 W 0.36544(5) -0.02072(3) 0.18535(4)
O9 O 0.6253(7) -0.1145(5) 0.3195(6)
C5 C 0.960(2) -0.0091(16) 0.127(2)
H3 H 0.9607 0.0263 0.1191
N5 N 0.934(2) -0.0428(17) 0.0823(15)
W6 W 0.32725(5) -0.13218(3) 0.10751(4)
O11 O 0.5707(8) -0.1108(5) 0.2060(7)
C6 C 0.9849(18) -0.0263(12) 0.1850(15)
H4 H 1.0032 -0.0030 0.2166
N6 N 1.2235(9) -0.0844(7) 0.4620(8)
W7 W 0.35997(5) -0.25703(3) 0.18716(4)
O13 O 0.5953(7) -0.1987(5) 0.2618(6)
C7 C 1.2862(13) -0.0490(8) 0.4757(10)
N7 N 1.2592(9) -0.1271(7) 0.4919(8)
W8 W 0.43586(5) -0.26037(3) 0.33731(4)
O15 O 0.7135(7) -0.1420(5) 0.2620(6)
C8 C 1.2795(12) 0.0020(8) 0.4505(10)
N8 N 1.3355(9) -0.1175(6) 0.5200(9)
W9 W 0.47420(5) -0.13817(3) 0.42185(4)
O17 O 0.2164(8) -0.1086(5) 0.3274(7)
C9 C 1.2060(16) 0.0234(10) 0.4144(13)
H5 H 1.1571 0.0048 0.4048
N9 N 1.3556(10) -0.0698(7) 0.5116(9)
W10 W 0.66312(5) -0.02606(3) 0.34721(4)
O19 O 0.1599(7) -0.1043(5) 0.2089(6)
C10 C 1.2077(18) 0.0707(11) 0.3943(15)
H6 H 1.1586 0.0846 0.3692
N10 N 1.2720(12) 0.0993(7) 0.4068(10)
W11 W 0.58047(5) -0.02289(3) 0.18267(4)
O21 O 0.1825(7) -0.1947(6) 0.2645(6)
C11 C 1.3437(12) 0.0812(9) 0.4411(10)
H7 H 1.3905 0.1015 0.4489
N11 N 1.1933(9) -0.3112(6) 0.5062(9)
W12 W 0.54198(5) -0.13521(3) 0.10535(4)
O23 O 0.3340(7) -0.0393(5) 0.3275(7)
C12 C 1.3489(13) 0.0329(7) 0.4649(10)
H8 H 1.3988 0.0206 0.4907
N12 N 1.1649(10) -0.2661(7) 0.4784(9)
W13 W 0.57436(5) -0.25970(3) 0.18467(4)
O25 O 0.2749(7) -0.0364(6) 0.2101(6)
C13 C 1.1436(13) -0.3464(8) 0.4739(10)
N13 N 1.1003(10) -0.2762(6) 0.4314(8)
W14 W 0.65117(5) -0.26304(3) 0.33443(4)
O27 O 0.2371(7) -0.1413(6) 0.1367(6)
C14 C 1.1507(12) -0.4016(8) 0.4903(11)
N14 N 1.0839(10) -0.3266(6) 0.4271(8)
W15 W 0.68967(5) -0.14069(3) 0.41917(4)
O29 O 0.2601(7) -0.2295(5) 0.1925(7)
C15 C 1.2084(15) -0.4169(8) 0.5397(12)
H9 H 1.2476 -0.3929 0.5609
N15 N 1.1593(13) -0.5029(7) 0.5266(9)
W16 W 0.79274(5) -0.06747(3) 0.26013(4)
O31 O 0.3293(7) -0.2320(5) 0.3341(6)
C16 C 1.2133(15) -0.4657(10) 0.5609(12)
H10 H 1.2519 -0.4744 0.5977
N16 N 1.1579(10) -0.1199(6) 0.5669(9)
W17 W 0.75315(5) -0.18114(3) 0.18450(4)
O33 O 0.3591(7) -0.1468(5) 0.3938(6)
C17 C 1.1027(16) -0.4883(9) 0.4741(13)
H11 H 1.0682 -0.5131 0.4496
N17 N 1.1056(10) -0.0900(6) 0.5254(8)
W18 W 0.82654(5) -0.18123(3) 0.33564(4)
O35 O 0.4267(7) -0.0105(5) 0.2669(6)
C18 C 1.0958(14) -0.4378(7) 0.4568(12)
H12 H 1.0540 -0.4276 0.4223
N18 N 1.0784(10) -0.0518(6) 0.5528(8)
O36 O 0.3158(8) -0.0595(6) 0.1134(7)
C19 C 1.1603(12) -0.0970(8) 0.6188(10)
N19 N 1.1095(10) -0.0560(6) 0.6125(8)
O37 O 0.3568(8) -0.2024(5) 0.1351(6)
C20 C 1.2109(12) -0.1168(7) 0.6774(10)
N20 N 1.3115(12) -0.1501(8) 0.7874(12)
O38 O 0.3809(8) -0.2916(5) 0.2618(6)
C21 C 1.2665(13) -0.1536(10) 0.6833(11)
H13 H 1.2722 -0.1674 0.6488
O39 O 0.4800(7) -0.2056(5) 0.3904(7)
C22 C 1.3159(19) -0.1722(11) 0.7369(16)
H14 H 1.3519 -0.1995 0.7388
O40 O 0.4640(8) -0.0652(5) 0.4196(6)
C23 C 1.2588(16) -0.1099(11) 0.7839(14)
H15 H 1.2560 -0.0938 0.8182
O41 O 0.5606(7) -0.0277(4) 0.3587(6)
C24 C 1.2099(14) -0.0941(9) 0.7276(12)
H16 H 1.1745 -0.0663 0.7245
O42 O 0.4681(8) -0.0228(5) 0.1728(6)
O43 O 0.4319(8) -0.1245(5) 0.1034(6)
O44 O 0.4706(8) -0.2670(5) 0.1950(6)
O45 O 0.5383(8) -0.2704(5) 0.3284(6)
O46 O 0.5864(8) -0.1317(5) 0.4263(6)
O47 O 0.6016(8) -0.0113(5) 0.2649(6)
O48 O 0.5595(8) -0.0627(5) 0.1105(6)
O49 O 0.5319(7) -0.2022(5) 0.1350(6)
O50 O 0.6238(8) -0.2964(6) 0.2576(7)
O51 O 0.6554(8) -0.2083(5) 0.3884(6)
O52 O 0.7109(7) -0.0681(5) 0.4170(6)
O53 O 0.7524(8) -0.0437(5) 0.3217(7)
O54 O 0.6936(8) -0.0406(5) 0.2048(7)
O55 O 0.6557(8) -0.1475(6) 0.1313(6)
O56 O 0.6809(7) -0.2362(5) 0.1886(6)
O57 O 0.7511(7) -0.2374(5) 0.3296(6)
O58 O 0.7798(7) -0.1514(5) 0.3886(7)
O59 O 0.8037(8) -0.1138(5) 0.2006(7)
O60 O 0.8292(7) -0.2025(5) 0.2585(6)
O61 O 0.8619(7) -0.1160(5) 0.3188(7)
O62 O 0.1676(8) -0.0120(5) 0.2730(8)
O63 O 0.0971(8) -0.1928(7) 0.1419(8)
O64 O 1.2139(8) -0.2026(6) 0.3867(7)
O65 O 0.4460(9) 0.0365(5) 0.3785(8)
O66 O 0.3369(8) 0.0418(5) 0.1617(7)
O67 O 0.2726(8) -0.1412(6) 0.0329(7)
O68 O 0.3179(8) -0.3067(6) 0.1395(7)
O69 O 0.4393(8) -0.3111(5) 0.3841(7)
O70 O 0.4904(8) -0.1500(5) 0.4956(7)
O71 O 0.6949(8) 0.0336(6) 0.3742(8)
O72 O 0.5866(8) 0.0373(5) 0.1571(7)
O73 O 0.5195(8) -0.1450(6) 0.0316(7)
O74 O 0.5675(8) -0.3095(6) 0.1364(7)
O75 O 0.6893(8) -0.3138(5) 0.3811(7)
O76 O 0.7458(8) -0.1542(6) 0.4918(7)
O77 O 0.8625(8) -0.0212(6) 0.2597(7)
O78 O 0.7984(8) -0.2057(6) 0.1366(7)
O79 O 0.9183(8) -0.2074(6) 0.3804(6)
O80 O 1.0969(8) -0.1713(5) 0.4471(7)
O81 O 1.0283(9) -0.0274(5) 0.4332(7)
O82 O 1.3127(8) -0.2170(6) 0.5445(9)
Cu1B Cu 0.94456(15) 0.21529(9) 0.62363(13)
Cu1_2 Cu 2.05544(15) -0.21529(9) 0.37637(13)
P1_2 P 1.3962(3) -0.13845(18) 0.2646(2)
W1_2 W 1.23246(5) -0.06048(3) 0.27076(4)
O1_2 O 1.3049(7) -0.1385(5) 0.2656(7)
C1B C 0.9925(11) 0.0975(8) 0.7431(10)
N1B N 0.9878(11) 0.1509(7) 0.7310(9)
O2B O 0.8955(14) -0.0707(10) 0.4771(12)
Cu2B Cu 0.92250(15) 0.09460(10) 0.56142(12)
P2_2 P 1.6224(3) -0.14162(18) 0.2625(2)
W2_2 W 1.18881(5) -0.17132(3) 0.18939(4)
O3_2 O 1.4494(7) -0.1118(5) 0.3212(6)
O4B O 0.5148(10) 0.1279(7) 0.3761(9)
C2B C 1.0172(12) 0.0773(8) 0.8048(10)
N2B N 0.9630(9) 0.1508(7) 0.6724(8)
Cu3B Cu 0.79092(15) 0.19512(10) 0.50838(14)
W3_2 W 1.26104(5) -0.17743(3) 0.33981(4)
W3B W 0.73896(5) 0.17743(3) 0.66019(4)
O5_2 O 1.3948(7) -0.1101(4) 0.2081(6)
O6B O 0.5204(11) 0.2314(8) 0.4134(13)
C3B C 1.0459(14) 0.1126(12) 0.8514(11)
H1B H 1.0506 0.1474 0.8429
N3B N 0.9546(9) 0.1055(6) 0.6488(7)
W4_2 W 1.44856(5) -0.02428(3) 0.34968(4)
O7_2 O 1.4207(7) -0.1964(5) 0.2629(6)
O8B O 0.9810(10) 0.2609(6) 0.6930(8)
C4B C 1.0668(19) 0.0972(15) 0.9084(17)
H2B H 1.0812 0.1208 0.9399
N4B N 0.9718(9) 0.0716(6) 0.6926(7)
Cu5B Cu 0.59378(18) 0.17388(12) 0.4339(2)
Cu5_2 Cu 0.40622(18) -0.17388(12) 0.5661(2)
W5_2 W 1.36544(5) -0.02072(3) 0.18535(4)
O9_2 O 1.6253(7) -0.1145(5) 0.3195(6)
C5B C 1.040(2) 0.0091(16) 0.873(2)
H3B H 1.0393 -0.0263 0.8809
N5B N 1.066(2) 0.0428(17) 0.9177(15)
W6_2 W 1.32725(5) -0.13218(3) 0.10751(4)
O11_2 O 1.5707(8) -0.1108(5) 0.2060(7)
C6B C 1.0151(18) 0.0263(12) 0.8150(15)
H4B H 0.9968 0.0030 0.7834
N6B N 0.7765(9) 0.0844(7) 0.5380(8)
W7_2 W 1.35997(5) -0.25703(3) 0.18716(4)
O13_2 O 1.5953(7) -0.1987(5) 0.2618(6)
C7B C 0.7138(13) 0.0490(8) 0.5243(10)
N7B N 0.7408(9) 0.1271(7) 0.5081(8)
W8_2 W 1.43586(5) -0.26037(3) 0.33731(4)
O15_2 O 1.7135(7) -0.1420(5) 0.2620(6)
C8B C 0.7205(12) -0.0020(8) 0.5495(10)
N8B N 0.6645(9) 0.1175(6) 0.4800(9)
W9_2 W 1.47420(5) -0.13817(3) 0.42185(4)
O17_2 O 1.2164(8) -0.1086(5) 0.3274(7)
C9B C 0.7940(16) -0.0234(10) 0.5856(13)
H5B H 0.8429 -0.0048 0.5952
N9B N 0.6444(10) 0.0698(7) 0.4884(9)
W10_2 W 1.66312(5) -0.02606(3) 0.34721(4)
O19_2 O 1.1599(7) -0.1043(5) 0.2089(6)
C10B C 0.7923(18) -0.0707(11) 0.6057(15)
H6B H 0.8414 -0.0846 0.6308
N10B N 0.7280(12) -0.0993(7) 0.5932(10)
W11_2 W 1.58047(5) -0.02289(3) 0.18267(4)
O21_2 O 1.1825(7) -0.1947(6) 0.2645(6)
C11B C 0.6563(12) -0.0812(9) 0.5589(10)
H7B H 0.6095 -0.1015 0.5511
N11B N 0.8067(9) 0.3112(6) 0.4938(9)
W12_2 W 1.54198(5) -0.13521(3) 0.10535(4)
O23_2 O 1.3340(7) -0.0393(5) 0.3275(7)
C12B C 0.6511(13) -0.0329(7) 0.5351(10)
H8B H 0.6012 -0.0206 0.5093
N12B N 0.8351(10) 0.2661(7) 0.5216(9)
W13_2 W 1.57436(5) -0.25970(3) 0.18467(4)
O25_2 O 1.2749(7) -0.0364(6) 0.2101(6)
C13B C 0.8564(13) 0.3464(8) 0.5261(10)
N13B N 0.8997(10) 0.2762(6) 0.5686(8)
W14_2 W 1.65117(5) -0.26304(3) 0.33443(4)
O27_2 O 1.2371(7) -0.1413(6) 0.1367(6)
C14B C 0.8493(12) 0.4016(8) 0.5097(11)
N14B N 0.9161(10) 0.3266(6) 0.5729(8)
W15_2 W 1.68967(5) -0.14069(3) 0.41917(4)
O29_2 O 1.2601(7) -0.2295(5) 0.1925(7)
C15B C 0.7916(15) 0.4169(8) 0.4603(12)
H9B H 0.7524 0.3929 0.4391
N15B N 0.8407(13) 0.5029(7) 0.4734(9)
W16_2 W 1.79274(5) -0.06747(3) 0.26013(4)
O31_2 O 1.3293(7) -0.2320(5) 0.3341(6)
C16B C 0.7867(15) 0.4657(10) 0.4391(12)
H10B H 0.7481 0.4744 0.4023
N16B N 0.8421(10) 0.1199(6) 0.4331(9)
W17_2 W 1.75315(5) -0.18114(3) 0.18450(4)
O33_2 O 1.3591(7) -0.1468(5) 0.3938(6)
C17B C 0.8973(16) 0.4883(9) 0.5259(13)
H11B H 0.9318 0.5131 0.5504
N17B N 0.8944(10) 0.0900(6) 0.4746(8)
W18_2 W 1.82654(5) -0.18123(3) 0.33564(4)
O35_2 O 1.4267(7) -0.0105(5) 0.2669(6)
C18B C 0.9042(14) 0.4378(7) 0.5432(12)
H12B H 0.9460 0.4276 0.5777
N18B N 0.9216(10) 0.0518(6) 0.4472(8)
O36_2 O 1.3158(8) -0.0595(6) 0.1134(7)
C19B C 0.8397(12) 0.0970(8) 0.3812(10)
N19B N 0.8905(10) 0.0560(6) 0.3875(8)
O37_2 O 1.3568(8) -0.2024(5) 0.1351(6)
C20B C 0.7891(12) 0.1168(7) 0.3226(10)
N20B N 0.6885(12) 0.1501(8) 0.2126(12)
O38_2 O 1.3809(8) -0.2916(5) 0.2618(6)
C21B C 0.7335(13) 0.1536(10) 0.3167(11)
H13B H 0.7278 0.1674 0.3512
O39_2 O 1.4800(7) -0.2056(5) 0.3904(7)
C22B C 0.6841(19) 0.1722(11) 0.2631(16)
H14B H 0.6481 0.1995 0.2612
O40_2 O 1.4640(8) -0.0652(5) 0.4196(6)
C23B C 0.7412(16) 0.1099(11) 0.2161(14)
H15B H 0.7440 0.0938 0.1818
O41_2 O 1.5606(7) -0.0277(4) 0.3587(6)
C24B C 0.7901(14) 0.0941(9) 0.2724(12)
H16B H 0.8255 0.0663 0.2755
O42_2 O 1.4681(8) -0.0228(5) 0.1728(6)
O43_2 O 1.4319(8) -0.1245(5) 0.1034(6)
O44_2 O 1.4706(8) -0.2670(5) 0.1950(6)
O45_2 O 1.5383(8) -0.2704(5) 0.3284(6)
O46_2 O 1.5864(8) -0.1317(5) 0.4263(6)
O47_2 O 1.6016(8) -0.0113(5) 0.2649(6)
O48_2 O 1.5595(8) -0.0627(5) 0.1105(6)
O49_2 O 1.5319(7) -0.2022(5) 0.1350(6)
O50_2 O 1.6238(8) -0.2964(6) 0.2576(7)
O51_2 O 1.6554(8) -0.2083(5) 0.3884(6)
O52_2 O 1.7109(7) -0.0681(5) 0.4170(6)
O53_2 O 1.7524(8) -0.0437(5) 0.3217(7)
O54_2 O 1.6936(8) -0.0406(5) 0.2048(7)
O55_2 O 1.6557(8) -0.1475(6) 0.1313(6)
O56_2 O 1.6809(7) -0.2362(5) 0.1886(6)
O57_2 O 1.7511(7) -0.2374(5) 0.3296(6)
O58_2 O 1.7798(7) -0.1514(5) 0.3886(7)
O59_2 O 1.8037(8) -0.1138(5) 0.2006(7)
O60_2 O 1.8292(7) -0.2025(5) 0.2585(6)
O61_2 O 1.8619(7) -0.1160(5) 0.3188(7)
O62_2 O 1.1676(8) -0.0120(5) 0.2730(8)
O63_2 O 1.0971(8) -0.1928(7) 0.1419(8)
O64B O 0.7861(8) 0.2026(6) 0.6133(7)
O64_2 O 0.2139(8) -0.2026(6) 0.3867(7)
O65_2 O 1.4460(9) 0.0365(5) 0.3785(8)
O66_2 O 1.3369(8) 0.0418(5) 0.1617(7)
O67_2 O 1.2726(8) -0.1412(6) 0.0329(7)
O68_2 O 1.3179(8) -0.3067(6) 0.1395(7)
O69_2 O 1.4393(8) -0.3111(5) 0.3841(7)
O70_2 O 1.4904(8) -0.1500(5) 0.4956(7)
O70B O 0.5096(8) 0.1500(5) 0.5044(7)
O71_2 O 1.6949(8) 0.0336(6) 0.3742(8)
O72_2 O 1.5866(8) 0.0373(5) 0.1571(7)
O73_2 O 1.5195(8) -0.1450(6) 0.0316(7)
O74_2 O 1.5675(8) -0.3095(6) 0.1364(7)
O75_2 O 1.6893(8) -0.3138(5) 0.3811(7)
O76_2 O 1.7458(8) -0.1542(6) 0.4918(7)
O77_2 O 1.8625(8) -0.0212(6) 0.2597(7)
O78_2 O 1.7984(8) -0.2057(6) 0.1366(7)
O79_2 O 1.9183(8) -0.2074(6) 0.3804(6)
O79B O 1.0817(8) 0.2074(6) 0.6196(6)
O80B O 0.9031(8) 0.1713(5) 0.5529(7)
O81B O 0.9717(9) 0.0274(5) 0.5668(7)
O82B O 0.6873(8) 0.2170(6) 0.4555(9)
O10 O 0.9856(11) -0.0488(9) 0.6779(11)
O12 O 1.1788(13) -0.6003(7) 0.5592(10)
O14 O 1.4044(10) -0.1765(6) 0.9030(8)
O16 O 1.3599(13) 0.1948(9) 0.3960(11)
O18 O 1.3608(14) -0.2471(9) 0.9958(12)
O20 O 1.0048(17) -0.1942(11) 0.5112(14)
O22 O 0.9997(19) -0.1102(13) 0.7798(16)
O24 O 1.470(2) -0.1003(13) 0.7308(17)
O26 O 1.352(2) 0.2631(14) 0.4875(18)
O28 O 0.2115(19) -0.3318(13) 0.2437(17)
O30 O 1.103(2) -0.3452(14) 0.3011(18)
O32 O 0.163(2) 0.0927(13) 0.2253(17)
O34 O 0.960(2) -0.2575(15) 0.1895(18)
loop_
_geom_bond_atom_site_label_1
_geom_bond_atom_site_label_2
_geom_bond_site_symmetry_1
_geom_bond_site_symmetry_2
Cu1 N2 1_555 1_555
P1 O1 1_555 1_555
W1 O1 1_555 1_555
O1 W2 1_555 1_555
C1 N1 1_555 1_555
N1 N2 1_555 1_555
O2 Cu4 1_555 1_555
Cu2 N3 1_555 1_555
P2 O9 1_555 1_555
W2 O19 1_555 1_555
O3 P1 1_555 1_555
O4 Cu5 1_555 1_555
C2 C1 1_555 1_555
N2 N3 1_555 1_555
Cu3 N7 1_555 1_555
W3 O1 1_555 1_555
O5 P1 1_555 1_555
O6 Cu5 1_555 1_555
C3 C2 1_555 1_555
H1 C3 1_555 1_555
N3 N4 1_555 1_555
Cu4 N18 1_555 1_555
W4 O3 1_555 1_555
O7 P1 1_555 1_555
O8 Cu1 1_555 1_555
C4 C3 1_555 1_555
H2 C4 1_555 1_555
N4 C1 1_555 1_555
Cu5 N8 1_555 1_555
W5 O5 1_555 1_555
O9 W10 1_555 1_555
C5 H3 1_555 1_555
N5 C4 1_555 1_555
W6 O5 1_555 1_555
O11 P2 1_555 1_555
C6 C2 1_555 1_555
H4 C6 1_555 1_555
N6 Cu2 1_555 1_555
W7 O7 1_555 1_555
O13 P2 1_555 1_555
C7 N6 1_555 1_555
N7 N6 1_555 1_555
W8 O7 1_555 1_555
O15 P2 1_555 1_555
C8 C7 1_555 1_555
N8 N7 1_555 1_555
W9 O3 1_555 1_555
O17 W1 1_555 1_555
C9 C8 1_555 1_555
H5 C9 1_555 1_555
N9 C7 1_555 1_555
W10 O41 1_555 1_555
O19 W1 1_555 1_555
C10 C9 1_555 1_555
H6 C10 1_555 1_555
N10 C10 1_555 1_555
W11 O11 1_555 1_555
O21 W2 1_555 1_555
C11 N10 1_555 1_555
H7 C11 1_555 1_555
N11 N12 1_555 1_555
W12 O11 1_555 1_555
O23 W1 1_555 1_555
C12 C8 1_555 1_555
H8 C12 1_555 1_555
N12 Cu3 1_555 1_555
W13 O13 1_555 1_555
O25 W1 1_555 1_555
C13 N11 1_555 1_555
N13 Cu1 1_555 1_555
W14 O13 1_555 1_555
O27 W2 1_555 1_555
C14 C13 1_555 1_555
N14 C13 1_555 1_555
W15 O9 1_555 1_555
O29 W2 1_555 1_555
C15 C14 1_555 1_555
H9 C15 1_555 1_555
N15 C16 1_555 1_555
W16 O15 1_555 1_555
O31 W3 1_555 1_555
C16 C15 1_555 1_555
H10 C16 1_555 1_555
N16 N17 1_555 1_555
W17 O15 1_555 1_555
O33 W3 1_555 1_555
C17 N15 1_555 1_555
H11 C17 1_555 1_555
N17 Cu2 1_555 1_555
W18 O15 1_555 1_555
O35 W4 1_555 1_555
C18 C14 1_555 1_555
H12 C18 1_555 1_555
N18 N17 1_555 1_555
O36 W5 1_555 1_555
C19 N16 1_555 1_555
N19 N18 1_555 1_555
O37 W6 1_555 1_555
C20 C19 1_555 1_555
N20 C22 1_555 1_555
O38 W7 1_555 1_555
C21 C20 1_555 1_555
H13 C21 1_555 1_555
O39 W8 1_555 1_555
C22 C21 1_555 1_555
H14 C22 1_555 1_555
O40 W4 1_555 1_555
C23 N20 1_555 1_555
H15 C23 1_555 1_555
O41 W4 1_555 1_555
C24 C20 1_555 1_555
H16 C24 1_555 1_555
O42 W5 1_555 1_555
O43 W6 1_555 1_555
O44 W7 1_555 1_555
O45 W8 1_555 1_555
O46 W9 1_555 1_555
O47 W10 1_555 1_555
O48 W11 1_555 1_555
O49 W12 1_555 1_555
O50 W13 1_555 1_555
O51 W14 1_555 1_555
O52 W10 1_555 1_555
O53 W10 1_555 1_555
O54 W11 1_555 1_555
O55 W12 1_555 1_555
O56 W13 1_555 1_555
O57 W14 1_555 1_555
O58 W15 1_555 1_555
O59 W16 1_555 1_555
O60 W17 1_555 1_555
O61 W16 1_555 1_555
O62 W1 1_555 1_555
O63 W2 1_555 1_555
O64 Cu1 1_555 1_555
O65 W4 1_555 1_555
O66 W5 1_555 1_555
O67 W6 1_555 1_555
O68 W7 1_555 1_555
O69 W8 1_555 1_555
O70 W9 1_555 1_555
O71 W10 1_555 1_555
O72 W11 1_555 1_555
O73 W12 1_555 1_555
O74 W13 1_555 1_555
O75 W14 1_555 1_555
O76 W15 1_555 1_555
O77 W16 1_555 1_555
O78 W17 1_555 1_555
O79 Cu1 1_555 1_555
O80 Cu1 1_555 1_555
O81 Cu2 1_555 1_555
O82 Cu3 1_555 1_555
Cu1B N2B 1_555 1_555
Cu1_2 O79_2 1_555 1_555
P1_2 O1_2 1_555 1_555
W1_2 O1_2 1_555 1_555
O1_2 W2_2 1_555 1_555
C1B N1B 1_555 1_555
N1B N2B 1_555 1_555
O2B Cu4 1_555 1_555
Cu2B N3B 1_555 1_555
P2_2 O9_2 1_555 1_555
W2_2 O19_2 1_555 1_555
O3_2 P1_2 1_555 1_555
O4B Cu5B 1_555 1_555
C2B C1B 1_555 1_555
N2B N3B 1_555 1_555
Cu3B N7B 1_555 1_555
W3_2 O64 1_555 1_555
W3B O64B 1_555 1_555
O5_2 P1_2 1_555 1_555
O6B Cu5B 1_555 1_555
C3B C2B 1_555 1_555
H1B C3B 1_555 1_555
N3B N4B 1_555 1_555
W4_2 O3_2 1_555 1_555
O7_2 P1_2 1_555 1_555
O8B Cu1B 1_555 1_555
C4B C3B 1_555 1_555
H2B C4B 1_555 1_555
N4B C1B 1_555 1_555
Cu5B N8B 1_555 1_555
Cu5_2 O70 1_555 1_555
W5_2 O5_2 1_555 1_555
O9_2 W10_2 1_555 1_555
C5B H3B 1_555 1_555
N5B C4B 1_555 1_555
W6_2 O5_2 1_555 1_555
O11_2 P2_2 1_555 1_555
C6B C2B 1_555 1_555
H4B C6B 1_555 1_555
N6B Cu2B 1_555 1_555
W7_2 O7_2 1_555 1_555
O13_2 P2_2 1_555 1_555
C7B N6B 1_555 1_555
N7B N6B 1_555 1_555
W8_2 O7_2 1_555 1_555
O15_2 P2_2 1_555 1_555
C8B C7B 1_555 1_555
N8B N7B 1_555 1_555
W9_2 O3_2 1_555 1_555
O17_2 W1_2 1_555 1_555
C9B C8B 1_555 1_555
H5B C9B 1_555 1_555
N9B C7B 1_555 1_555
W10_2 O41_2 1_555 1_555
O19_2 W1_2 1_555 1_555
C10B C9B 1_555 1_555
H6B C10B 1_555 1_555
N10B C10B 1_555 1_555
W11_2 O11_2 1_555 1_555
O21_2 W2_2 1_555 1_555
C11B N10B 1_555 1_555
H7B C11B 1_555 1_555
N11B N12B 1_555 1_555
W12_2 O11_2 1_555 1_555
O23_2 W1_2 1_555 1_555
C12B C8B 1_555 1_555
H8B C12B 1_555 1_555
N12B Cu3B 1_555 1_555
W13_2 O13_2 1_555 1_555
O25_2 W1_2 1_555 1_555
C13B N11B 1_555 1_555
N13B Cu1B 1_555 1_555
W14_2 O13_2 1_555 1_555
O27_2 W2_2 1_555 1_555
C14B C13B 1_555 1_555
N14B C13B 1_555 1_555
W15_2 O9_2 1_555 1_555
O29_2 W2_2 1_555 1_555
C15B C14B 1_555 1_555
H9B C15B 1_555 1_555
N15B C16B 1_555 1_555
W16_2 O15_2 1_555 1_555
O31_2 W3_2 1_555 1_555
C16B C15B 1_555 1_555
H10B C16B 1_555 1_555
N16B N17B 1_555 1_555
W17_2 O15_2 1_555 1_555
O33_2 W3_2 1_555 1_555
C17B N15B 1_555 1_555
H11B C17B 1_555 1_555
N17B Cu2B 1_555 1_555
W18_2 O15_2 1_555 1_555
O35_2 W4_2 1_555 1_555
C18B C14B 1_555 1_555
H12B C18B 1_555 1_555
N18B Cu4 1_555 1_555
O36_2 W5_2 1_555 1_555
C19B N16B 1_555 1_555
N19B N18B 1_555 1_555
O37_2 W6_2 1_555 1_555
C20B C19B 1_555 1_555
N20B C22B 1_555 1_555
O38_2 W7_2 1_555 1_555
C21B C20B 1_555 1_555
H13B C21B 1_555 1_555
O39_2 W8_2 1_555 1_555
C22B C21B 1_555 1_555
H14B C22B 1_555 1_555
O40_2 W4_2 1_555 1_555
C23B N20B 1_555 1_555
H15B C23B 1_555 1_555
O41_2 W4_2 1_555 1_555
C24B C20B 1_555 1_555
H16B C24B 1_555 1_555
O42_2 W5_2 1_555 1_555
O43_2 W6_2 1_555 1_555
O44_2 W7_2 1_555 1_555
O45_2 W8_2 1_555 1_555
O46_2 W9_2 1_555 1_555
O47_2 W10_2 1_555 1_555
O48_2 W11_2 1_555 1_555
O49_2 W12_2 1_555 1_555
O50_2 W13_2 1_555 1_555
O51_2 W14_2 1_555 1_555
O52_2 W10_2 1_555 1_555
O53_2 W10_2 1_555 1_555
O54_2 W11_2 1_555 1_555
O55_2 W12_2 1_555 1_555
O56_2 W13_2 1_555 1_555
O57_2 W14_2 1_555 1_555
O58_2 W15_2 1_555 1_555
O59_2 W16_2 1_555 1_555
O60_2 W17_2 1_555 1_555
O61_2 W16_2 1_555 1_555
O62_2 W1_2 1_555 1_555
O63_2 W2_2 1_555 1_555
O64B Cu1B 1_555 1_555
O64_2 W3 1_555 1_555
O65_2 W4_2 1_555 1_555
O66_2 W5_2 1_555 1_555
O67_2 W6_2 1_555 1_555
O68_2 W7_2 1_555 1_555
O69_2 W8_2 1_555 1_555
O70_2 Cu5 1_555 1_555
O70B Cu5B 1_555 1_555
O71_2 W10_2 1_555 1_555
O72_2 W11_2 1_555 1_555
O73_2 W12_2 1_555 1_555
O74_2 W13_2 1_555 1_555
O75_2 W14_2 1_555 1_555
O76_2 W15_2 1_555 1_555
O77_2 W16_2 1_555 1_555
O78_2 W17_2 1_555 1_555
O79_2 W18_2 1_555 1_555
O79B Cu1B 1_555 1_555
O80B Cu1B 1_555 1_555
O81B Cu4 1_555 1_555
O82B Cu3B 1_555 1_555
Cu2 O80 1_555 1_555
Cu3 O64 1_555 1_555
Cu3 O80 1_555 1_555
W3 O17 1_555 1_555
W3 O21 1_555 1_555
Cu4 O81 1_555 1_555
W4 O23 1_555 1_555
Cu5 O82 1_555 1_555
W5 O25 1_555 1_555
W5 O35 1_555 1_555
C5 N5 1_555 1_555
C5 C6 1_555 1_555
W6 O27 1_555 1_555
W6 O36 1_555 1_555
W7 O29 1_555 1_555
W7 O37 1_555 1_555
W8 O31 1_555 1_555
W8 O38 1_555 1_555
N8 N9 1_555 1_555
W9 O33 1_555 1_555
W9 O39 1_555 1_555
W9 O40 1_555 1_555
W11 O42 1_555 1_555
W11 O47 1_555 1_555
C11 C12 1_555 1_555
W12 O43 1_555 1_555
W12 O48 1_555 1_555
N12 N13 1_555 1_555
W13 O44 1_555 1_555
W13 O49 1_555 1_555
N13 N14 1_555 1_555
W14 O45 1_555 1_555
W14 O50 1_555 1_555
W15 O46 1_555 1_555
W15 O51 1_555 1_555
W15 O52 1_555 1_555
W16 O53 1_555 1_555
W16 O54 1_555 1_555
W17 O55 1_555 1_555
W17 O56 1_555 1_555
W17 O59 1_555 1_555
C17 C18 1_555 1_555
W18 O57 1_555 1_555
W18 O58 1_555 1_555
W18 O60 1_555 1_555
W18 O61 1_555 1_555
W18 O79 1_555 1_555
C19 N19 1_555 1_555
C23 C24 1_555 1_555
O1_2 W3_2 1_555 1_555
Cu2B O80B 1_555 1_555
Cu2B O81B 1_555 1_555
Cu3B O64B 1_555 1_555
Cu3B O80B 1_555 1_555
W3_2 O17_2 1_555 1_555
W3_2 O21_2 1_555 1_555
W4_2 O23_2 1_555 1_555
Cu5B O82B 1_555 1_555
W5_2 O25_2 1_555 1_555
W5_2 O35_2 1_555 1_555
C5B N5B 1_555 1_555
C5B C6B 1_555 1_555
W6_2 O27_2 1_555 1_555
W6_2 O36_2 1_555 1_555
W7_2 O29_2 1_555 1_555
W7_2 O37_2 1_555 1_555
W8_2 O31_2 1_555 1_555
W8_2 O38_2 1_555 1_555
N8B N9B 1_555 1_555
W9_2 O33_2 1_555 1_555
W9_2 O39_2 1_555 1_555
W9_2 O40_2 1_555 1_555
W9_2 O70_2 1_555 1_555
W11_2 O42_2 1_555 1_555
W11_2 O47_2 1_555 1_555
C11B C12B 1_555 1_555
W12_2 O43_2 1_555 1_555
W12_2 O48_2 1_555 1_555
N12B N13B 1_555 1_555
W13_2 O44_2 1_555 1_555
W13_2 O49_2 1_555 1_555
N13B N14B 1_555 1_555
W14_2 O45_2 1_555 1_555
W14_2 O50_2 1_555 1_555
W15_2 O46_2 1_555 1_555
W15_2 O51_2 1_555 1_555
W15_2 O52_2 1_555 1_555
W16_2 O53_2 1_555 1_555
W16_2 O54_2 1_555 1_555
W17_2 O55_2 1_555 1_555
W17_2 O56_2 1_555 1_555
W17_2 O59_2 1_555 1_555
C17B C18B 1_555 1_555
N17B N18B 1_555 1_555
W18_2 O57_2 1_555 1_555
W18_2 O58_2 1_555 1_555
W18_2 O60_2 1_555 1_555
W18_2 O61_2 1_555 1_555
C19B N19B 1_555 1_555
C23B C24B 1_555 1_555

#END
