
#######################################################################
#
#                 Cambridge Crystallographic Data Centre
#                                CCDC 
#
#######################################################################
#
# If this CIF has been generated from an entry in the Cambridge 
# Structural Database, then it will include bibliographic, chemical, 
# crystal, experimental, refinement or atomic coordinate data resulting 
# from the CCDC's data processing and validation procedures.
#
#######################################################################

data_PENLEB
_symmetry_cell_setting           monoclinic
_symmetry_space_group_name_H-M   'P 21/n'
_symmetry_Int_Tables_number      14
_space_group_name_Hall           '-P 2yn'
loop_
_symmetry_equiv_pos_site_id
_symmetry_equiv_pos_as_xyz
1 x,y,z
2 1/2-x,1/2+y,1/2-z
3 -x,-y,-z
4 1/2+x,1/2-y,1/2+z
_cell_length_a                   8.866(4)
_cell_length_b                   12.582(6)
_cell_length_c                   10.495(5)
_cell_angle_alpha                90
_cell_angle_beta                 101.274(9)
_cell_angle_gamma                90
_cell_volume                     1148.15
loop_
_atom_site_label
_atom_site_type_symbol
_atom_site_fract_x
_atom_site_fract_y
_atom_site_fract_z
Cu1 Cu 0.31105(7) 0.56767(5) 0.99671(8)
Cu2 Cu -0.01665(7) 0.60506(6) 1.04532(7)
Cu3 Cu -0.12664(8) 0.67152(5) 0.56419(9)
I1 I 0.05516(4) 0.57803(3) 0.81368(3)
I2 I 0.23172(4) 0.68679(2) 1.18622(3)
N1 N 0.4580(4) 0.2579(3) 0.9836(4)
N2 N 0.2350(4) 0.3351(3) 0.9742(4)
N3 N 0.3476(4) 0.4086(3) 0.9997(4)
N4 N 0.4800(4) 0.3617(3) 1.0053(4)
N5 N 0.2553(5) -0.0492(3) 0.9826(4)
C1 C 0.2347(5) 0.1383(4) 0.9412(5)
C2 C 0.3075(6) 0.0503(4) 1.0057(5)
C3 C 0.0998(6) 0.1225(4) 0.8511(6)
C4 C 0.3055(5) 0.2435(4) 0.9654(5)
C5 C 0.1235(6) -0.0632(4) 0.8950(6)
C6 C 0.0434(6) 0.0213(4) 0.8289(6)
H1 H 0.410(7) 0.054(4) 1.061(6)
H2 H 0.096(7) -0.132(6) 0.886(7)
H3 H 0.056(8) 0.184(6) 0.789(8)
H4 H -0.049(7) 0.013(4) 0.771(6)
Cu1B Cu 0.68895(7) 0.43233(5) 1.00329(8)
Cu2B Cu 0.01665(7) 0.39494(6) 0.95468(7)
Cu3C Cu 0.37336(8) 0.82848(5) 1.06419(9)
Cu3A Cu 0.62664(8) 0.17152(5) 0.93581(9)
Cu3C_2 Cu 0.37336(8) -0.17152(5) 1.06419(9)
I1B I -0.05516(4) 0.42197(3) 1.18632(3)
I2C I -0.26828(4) 0.81321(2) 0.68622(3)
N1A N 0.0420(4) 0.7579(3) 0.5164(4)
N2B N -0.2350(4) 0.6649(3) 1.0258(4)
N4B N 0.5200(4) 0.6383(3) 0.9947(4)
N5C N -0.2447(5) 0.5492(3) 0.4826(4)
loop_
_geom_bond_atom_site_label_1
_geom_bond_atom_site_label_2
_geom_bond_site_symmetry_1
_geom_bond_site_symmetry_2
Cu1 I1 1_555 1_555
Cu2 I1 1_555 1_555
Cu3 I1 1_555 1_555
I1 Cu2B 1_555 1_555
I2 Cu1 1_555 1_555
N1 N4 1_555 1_555
N2 N3 1_555 1_555
N3 Cu1 1_555 1_555
N4 N3 1_555 1_555
N5 C2 1_555 1_555
C1 C2 1_555 1_555
C2 H1 1_555 1_555
C3 C1 1_555 1_555
C4 N1 1_555 1_555
C5 N5 1_555 1_555
C6 C3 1_555 1_555
H2 C5 1_555 1_555
H3 C3 1_555 1_555
H4 C6 1_555 1_555
Cu1B N4 1_555 1_555
Cu2B N2 1_555 1_555
Cu3C I2 1_555 1_555
Cu3A N1 1_555 1_555
Cu3C_2 N5 1_555 1_555
I1B Cu2 1_555 1_555
I2C Cu3 1_555 1_555
N1A Cu3 1_555 1_555
N2B Cu2 1_555 1_555
N4B Cu1 1_555 1_555
N5C Cu3 1_555 1_555
Cu2 I2 1_555 1_555
N2 C4 1_555 1_555
C1 C4 1_555 1_555
C5 C6 1_555 1_555
Cu2B I1B 1_555 1_555

#END
