
#######################################################################
#
#                 Cambridge Crystallographic Data Centre
#                                CCDC 
#
#######################################################################
#
# If this CIF has been generated from an entry in the Cambridge 
# Structural Database, then it will include bibliographic, chemical, 
# crystal, experimental, refinement or atomic coordinate data resulting 
# from the CCDC's data processing and validation procedures.
#
#######################################################################

data_PENLAX
_symmetry_cell_setting           triclinic
_symmetry_space_group_name_H-M   'P -1'
_symmetry_Int_Tables_number      2
_space_group_name_Hall           '-P 1'
loop_
_symmetry_equiv_pos_site_id
_symmetry_equiv_pos_as_xyz
1 x,y,z
2 -x,-y,-z
_cell_length_a                   7.0473(5)
_cell_length_b                   7.0749(3)
_cell_length_c                   9.8568(8)
_cell_angle_alpha                80.148(11)
_cell_angle_beta                 86.618(11)
_cell_angle_gamma                83.666(9)
_cell_volume                     480.842
loop_
_atom_site_label
_atom_site_type_symbol
_atom_site_fract_x
_atom_site_fract_y
_atom_site_fract_z
I1 I 0.69433(7) 0.53299(6) 0.34114(5)
Cu1 Cu 0.48819(13) 0.74593(11) 0.51123(9)
Na1 Na 1.1527(5) 0.5791(4) 0.2995(3)
C1 C -0.0297(11) 1.2538(10) 0.0402(7)
H1 H 0.0872 1.3022 0.0159
C2 C -0.0478(9) 1.1358(8) 0.1658(6)
N1 N -0.1692(10) 1.3030(8) -0.0488(6)
N2 N 0.2003(8) 1.2323(7) 0.2989(5)
C3 C 0.1081(10) 1.0973(8) 0.2618(6)
N3 N 0.1723(8) 0.9187(7) 0.3251(6)
N4 N 0.3097(8) 0.9531(8) 0.4034(5)
N5 N 0.3252(9) 1.1333(7) 0.3884(5)
C4 C -0.2221(11) 1.0611(10) 0.1994(7)
H2 H -0.2396 0.9790 0.2826
C5 C -0.3678(11) 1.1087(12) 0.1099(7)
H3 H -0.4847 1.0586 0.1301
C6 C -0.3359(12) 1.2328(11) -0.0109(8)
H4 H -0.4366 1.2701 -0.0697
I1A I 0.30567(7) 0.46701(6) 0.65886(5)
Cu1A Cu 0.51181(13) 0.25407(11) 0.48877(9)
Cu1A_2 Cu 0.51181(13) 1.25407(11) 0.48877(9)
Na1A Na -0.1527(5) 1.4209(4) -0.2995(3)
Na1_2 Na 0.1527(5) 1.5791(4) 0.2995(3)
Na1_3 Na 0.1527(5) 0.5791(4) 0.2995(3)
N1A N 1.1692(10) 0.6970(8) 0.0488(6)
N2_2 N 1.2003(8) 0.2323(7) 0.2989(5)
N3_2 N 1.1723(8) 0.9187(7) 0.3251(6)
N5A N 0.6748(9) 0.8667(7) 0.6116(5)
loop_
_geom_bond_atom_site_label_1
_geom_bond_atom_site_label_2
_geom_bond_site_symmetry_1
_geom_bond_site_symmetry_2
I1 Cu1 1_555 1_555
Cu1 N4 1_555 1_555
Na1 I1 1_555 1_555
C1 H1 1_555 1_555
C2 C1 1_555 1_555
N1 C1 1_555 1_555
N2 C3 1_555 1_555
C3 C2 1_555 1_555
N3 C3 1_555 1_555
N4 N3 1_555 1_555
N5 N2 1_555 1_555
C4 C2 1_555 1_555
H2 C4 1_555 1_555
C5 C4 1_555 1_555
H3 C5 1_555 1_555
C6 N1 1_555 1_555
H4 C6 1_555 1_555
I1A Cu1 1_555 1_555
Cu1A I1 1_555 1_555
Cu1A_2 N5 1_555 1_555
Na1A N1 1_555 1_555
Na1_2 N2 1_555 1_555
Na1_3 N3 1_555 1_555
N1A Na1 1_555 1_555
N2_2 Na1 1_555 1_555
N3_2 Na1 1_555 1_555
N5A Cu1 1_555 1_555
N4 N5 1_555 1_555
C5 C6 1_555 1_555
I1A Cu1A 1_555 1_555

#END
