
#######################################################################
#
#                 Cambridge Crystallographic Data Centre
#                                CCDC 
#
#######################################################################
#
# If this CIF has been generated from an entry in the Cambridge 
# Structural Database, then it will include bibliographic, chemical, 
# crystal, experimental, refinement or atomic coordinate data resulting 
# from the CCDC's data processing and validation procedures.
#
#######################################################################

data_PENMUS
_symmetry_cell_setting           triclinic
_symmetry_space_group_name_H-M   'P -1'
_symmetry_Int_Tables_number      2
_space_group_name_Hall           '-P 1'
loop_
_symmetry_equiv_pos_site_id
_symmetry_equiv_pos_as_xyz
1 x,y,z
2 -x,-y,-z
_cell_length_a                   12.050(5)
_cell_length_b                   12.349(5)
_cell_length_c                   13.965(5)
_cell_angle_alpha                99.305(5)
_cell_angle_beta                 98.769(5)
_cell_angle_gamma                113.266(5)
_cell_volume                     1829.55
loop_
_atom_site_label
_atom_site_type_symbol
_atom_site_fract_x
_atom_site_fract_y
_atom_site_fract_z
O23 O -0.2331(16) -0.6078(13) -0.5551(11)
As1 As -1.0000 0.0000 -0.5000
O1 O -0.7154(12) 0.2764(17) -0.3664(9)
O2 O -1.0235(14) 0.4042(13) -0.3571(11)
O3 O -1.1487(11) 0.1611(11) -0.3545(8)
O4 O -0.6920(15) 0.1781(11) -0.5382(8)
O5 O -0.6937(10) -0.0071(11) -0.4739(8)
O6 O -0.9066(16) 0.0770(15) -0.2185(12)
O7 O -0.9243(13) 0.1447(15) -0.4430(12)
O8 O -0.6928(10) 0.2867(9) -0.1638(7)
O9 O -0.6507(9) 0.4161(9) -0.5014(10)
O10 O -0.6635(9) -0.1094(10) -0.3192(8)
O11 O -1.0421(9) -0.1314(9) -0.1657(6)
O12 O -1.1034(14) -0.0709(13) -0.4400(11)
O13 O -1.3729(10) -0.0186(11) -0.3424(9)
O14 O -0.9113(15) -0.0630(15) -0.5215(11)
O15 O -1.1359(15) -0.2321(12) -0.3680(8)
O16 O -1.1508(16) -0.0341(11) -0.2931(9)
O17 O -0.7168(15) 0.0889(10) -0.3009(15)
O18 O -0.8839(11) 0.3386(17) -0.4600(9)
O19 O -0.9046(10) 0.2702(16) -0.2888(9)
O20 O -1.1301(11) 0.2215(11) -0.5279(9)
O21 O -1.0861(17) -0.0035(18) -0.6148(15)
O22 O -0.8812(14) -0.1250(13) -0.2898(11)
C1 C -0.6888(15) -0.4251(16) 0.3257(12)
H1 H -0.7246 -0.5023 0.3369
C2 C -0.8782(12) -0.4829(10) 0.2002(9)
C3 C -1.3738(15) -0.3019(14) -0.2236(12)
H2 H -1.2893 -0.2546 -0.2159
C4 C -0.5113(12) 0.0860(11) 0.1142(9)
H3 H -0.5132 0.0451 0.1648
C5 C -1.3290(11) -0.3945(11) -0.0856(10)
C6 C -1.6241(15) -0.4391(14) -0.2472(13)
H4 H -1.7089 -0.4870 -0.2574
C7 C -0.5758(17) -0.347(2) 0.3799(15)
H5 H -0.5344 -0.3683 0.4304
C8 C -1.4612(17) -0.2983(15) -0.2976(11)
H6 H -1.4365 -0.2510 -0.3427
C9 C -0.6222(11) 0.0654(11) 0.0489(9)
C10 C -0.7437(11) -0.0169(10) 0.0594(8)
C11 C -1.4157(12) -0.3789(11) -0.1602(9)
C12 C -0.6113(11) 0.1310(12) -0.0255(8)
H7 H -0.6816 0.1177 -0.0727
C13 C -0.4019(11) 0.1653(12) 0.1030(9)
H8 H -0.3295 0.1734 0.1445
C14 C -0.4982(12) 0.2132(11) -0.0280(9)
H9 H -0.4937 0.2581 -0.0759
C15 C -1.5396(11) -0.4464(11) -0.1716(10)
H10 H -1.5675 -0.4968 -0.1292
C16 C -0.6935(13) -0.2800(13) 0.2367(12)
H11 H -0.7336 -0.2563 0.1876
C17 C -0.5789(13) -0.2036(13) 0.2892(13)
H12 H -0.5387 -0.1276 0.2768
C18 C -0.7548(11) -0.3951(12) 0.2536(9)
N1 N -1.5835(12) -0.3647(11) -0.3039(9)
N2 N -1.1689(9) -0.3781(9) 0.0175(8)
N3 N -0.3900(8) 0.2342(8) 0.0356(8)
N4 N -1.2547(10) -0.4889(9) -0.0011(9)
N5 N -0.9689(9) -0.4689(9) 0.1383(8)
N6 N -1.2129(9) -0.3151(10) -0.0336(8)
N7 N -1.0387(12) -0.6566(10) 0.1518(11)
N8 N -0.7670(10) -0.1198(10) 0.0899(8)
N9 N -0.5231(13) -0.2381(13) 0.3598(10)
N10 N -0.9424(8) -0.0992(8) 0.0501(7)
N11 N -1.0677(11) -0.5786(11) 0.1097(10)
N12 N -0.9218(12) -0.5991(11) 0.2098(11)
N13 N -0.8916(9) -0.1684(9) 0.0823(7)
N14 N -0.8471(8) 0.0008(8) 0.0355(6)
N15 N -1.3562(11) -0.5028(10) -0.0670(8)
Mo1 Mo -0.79134(13) 0.19824(13) -0.27092(10)
Mo2 Mo -1.02436(14) -0.08797(12) -0.27061(10)
Mo3 Mo -1.01496(12) 0.27516(11) -0.39832(10)
Mo4 Mo -0.76761(11) -0.07293(12) -0.37581(10)
Mo5 Mo -0.76017(11) 0.28378(10) -0.50096(8)
Mo6 Mo -1.25195(11) -0.00647(11) -0.39171(9)
Cu1 Cu -1.11988(13) -0.13811(13) -0.01260(12)
Cu2 Cu -0.98674(15) -0.33166(14) 0.09655(13)
Cu3 Cu -0.23562(15) 0.37387(14) 0.04526(13)
O1A O -1.2846(12) -0.2764(17) -0.6336(9)
O2A O -0.9765(14) -0.4042(13) -0.6429(11)
O3A O -0.8513(11) -0.1611(11) -0.6455(8)
O4A O -1.3080(15) -0.1781(11) -0.4618(8)
O5A O -1.3063(10) 0.0071(11) -0.5261(8)
O6A O -1.0934(16) -0.0770(15) -0.7815(12)
O7A O -1.0757(13) -0.1447(15) -0.5570(12)
O8A O -1.3072(10) -0.2867(9) -0.8362(7)
O9A O -1.3493(9) -0.4161(9) -0.4986(10)
O10A O -1.3365(9) 0.1094(10) -0.6808(8)
O11A O -0.9579(9) 0.1314(9) -0.8343(6)
O12A O -0.8966(14) 0.0709(13) -0.5600(11)
O13A O -0.6271(10) 0.0186(11) -0.6576(9)
O14A O -1.0887(15) 0.0630(15) -0.4785(11)
O15A O -0.8641(15) 0.2321(12) -0.6320(8)
O16A O -0.8492(16) 0.0341(11) -0.7069(9)
O17A O -1.2832(15) -0.0889(10) -0.6991(15)
O18A O -1.1161(11) -0.3386(17) -0.5400(9)
O19A O -1.0954(10) -0.2702(16) -0.7112(9)
O20A O -0.8699(11) -0.2215(11) -0.4721(9)
O21A O -0.9139(17) 0.0035(18) -0.3852(15)
O22A O -1.1188(14) 0.1250(13) -0.7102(11)
C1_2 C 0.3112(15) 0.5749(16) 0.3257(12)
H1_2 H 0.2754 0.4977 0.3369
C2_2 C 0.1218(12) 0.5171(10) 0.2002(9)
C3A C -0.6262(15) 0.3019(14) -0.7764(12)
H2A H -0.7107 0.2546 -0.7841
C4A C -1.4887(12) -0.0860(11) -0.1142(9)
H3A H -1.4868 -0.0451 -0.1648
C5A C -0.6710(11) 0.3945(11) -0.9144(10)
C6A C -0.3759(15) 0.4391(14) -0.7528(13)
H4A H -0.2911 0.4870 -0.7426
C7_2 C 0.4242(17) 0.653(2) 0.3799(15)
H5_2 H 0.4656 0.6317 0.4304
C8A C -0.5388(17) 0.2983(15) -0.7024(11)
H6A H -0.5635 0.2510 -0.6573
C9A C -1.3778(11) -0.0654(11) -0.0489(9)
C10A C -1.2563(11) 0.0169(10) -0.0594(8)
C11A C -0.5843(12) 0.3789(11) -0.8398(9)
C12A C -1.3887(11) -0.1310(12) 0.0255(8)
H7A H -1.3184 -0.1177 0.0727
C13A C -1.5981(11) -0.1653(12) -0.1030(9)
H8A H -1.6705 -0.1734 -0.1445
C14A C -1.5018(12) -0.2132(11) 0.0280(9)
H9A H -1.5063 -0.2581 0.0759
C15A C -0.4604(11) 0.4464(11) -0.8284(10)
H10A H -0.4325 0.4968 -0.8708
C16_2 C 0.3065(13) 0.7200(13) 0.2367(12)
H11_2 H 0.2664 0.7437 0.1876
C17_2 C 0.4211(13) 0.7964(13) 0.2892(13)
H12_2 H 0.4613 0.8724 0.2768
C18_2 C 0.2452(11) 0.6049(12) 0.2536(9)
N1A N -0.4165(12) 0.3647(11) -0.6961(9)
N2A N -0.8311(9) 0.3781(9) -1.0175(8)
N3A N -1.6100(8) -0.2342(8) -0.0356(8)
N4A N -0.7453(10) 0.4889(9) -0.9989(9)
N4_2 N -0.2547(10) 0.5111(9) -0.0011(9)
N4A_2 N -1.7453(10) -0.5111(9) 0.0011(9)
N5_2 N 0.0311(9) 0.5311(9) 0.1383(8)
N5A N -1.0311(9) 0.4689(9) -1.1383(8)
N6A N -0.7871(9) 0.3151(10) -0.9664(8)
N7_2 N -0.0387(12) 0.3434(10) 0.1518(11)
N8A N -1.2330(10) 0.1198(10) -0.0899(8)
N9_2 N 0.4769(13) 0.7619(13) 0.3598(10)
N10A N -1.0576(8) 0.0992(8) -0.0501(7)
N10A_2 N -1.0576(8) 0.0992(8) -1.0501(7)
N11_2 N -0.0677(11) 0.4214(11) 0.1097(10)
N11A N -1.9323(11) -0.4214(11) -0.1097(10)
N12_2 N 0.0782(12) 0.4009(11) 0.2098(11)
N13A N -1.1084(9) 0.1684(9) -0.0823(7)
N13A_2 N -1.1084(9) 0.1684(9) -1.0823(7)
N14A N -1.1529(8) -0.0008(8) -0.0355(6)
N14_2 N -0.8471(8) 0.0008(8) -0.9645(6)
N15A N -0.6438(11) 0.5028(10) -0.9330(8)
Mo1A Mo -1.20866(13) -0.19824(13) -0.72908(10)
Mo2A Mo -0.97564(14) 0.08797(12) -0.72939(10)
Mo3A Mo -0.98504(12) -0.27516(11) -0.60168(10)
Mo4A Mo -1.23239(11) 0.07293(12) -0.62419(10)
Mo5A Mo -1.23983(11) -0.28378(10) -0.49904(8)
Mo6A Mo -0.74805(11) 0.00647(11) -0.60829(9)
Cu1A Cu -0.88012(13) 0.13811(13) -0.98740(12)
Cu1A_2 Cu -0.88012(13) 0.13811(13) 0.01260(12)
Cu2A Cu -1.01326(15) 0.33166(14) -1.09655(13)
Cu2A_2 Cu -1.01326(15) 0.33166(14) -0.09655(13)
Cu2_2 Cu 0.01326(15) 0.66834(14) 0.09655(13)
Cu3A Cu -1.76438(15) -0.37387(14) -0.04526(13)
Cu3_2 Cu -1.23562(15) -0.62613(14) 0.04526(13)
Cu3A_2 Cu -0.76438(15) 0.62613(14) -1.04526(13)
loop_
_geom_bond_atom_site_label_1
_geom_bond_atom_site_label_2
_geom_bond_site_symmetry_1
_geom_bond_site_symmetry_2
As1 O7 1_555 1_555
O1 Mo1 1_555 1_555
O2 Mo3 1_555 1_555
O3 Mo3 1_555 1_555
O4 Mo5 1_555 1_555
O5 Mo4 1_555 1_555
O6 Mo1 1_555 1_555
O7 Mo1 1_555 1_555
O8 Mo1 1_555 1_555
O9 Mo5 1_555 1_555
O10 Mo4 1_555 1_555
O11 Mo2 1_555 1_555
O12 As1 1_555 1_555
O13 Mo6 1_555 1_555
O14 As1 1_555 1_555
O15 Mo2 1_555 1_555
O16 Mo2 1_555 1_555
O17 Mo1 1_555 1_555
O18 Mo3 1_555 1_555
O19 Mo1 1_555 1_555
O20 Mo3 1_555 1_555
O21 As1 1_555 1_555
O22 Mo2 1_555 1_555
C1 H1 1_555 1_555
C2 C18 1_555 1_555
C3 H2 1_555 1_555
C4 H3 1_555 1_555
C5 C11 1_555 1_555
C6 H4 1_555 1_555
C7 C1 1_555 1_555
H5 C7 1_555 1_555
C8 C3 1_555 1_555
H6 C8 1_555 1_555
C9 C4 1_555 1_555
C10 C9 1_555 1_555
C11 C3 1_555 1_555
C12 C9 1_555 1_555
H7 C12 1_555 1_555
C13 C4 1_555 1_555
H8 C13 1_555 1_555
C14 C12 1_555 1_555
H9 C14 1_555 1_555
C15 C6 1_555 1_555
H10 C15 1_555 1_555
C16 H11 1_555 1_555
C17 C16 1_555 1_555
H12 C17 1_555 1_555
C18 C1 1_555 1_555
N1 C6 1_555 1_555
N2 N4 1_555 1_555
N3 C13 1_555 1_555
N4 N15 1_555 1_555
N5 C2 1_555 1_555
N6 C5 1_555 1_555
N7 N11 1_555 1_555
N8 C10 1_555 1_555
N9 C7 1_555 1_555
N10 N13 1_555 1_555
N11 N5 1_555 1_555
N12 C2 1_555 1_555
N13 N8 1_555 1_555
N14 C10 1_555 1_555
N15 C5 1_555 1_555
Mo1 O21A 1_555 1_555
Mo2 O6 1_555 1_555
Mo3 O7 1_555 1_555
Mo4 O14 1_555 1_555
Mo5 O1 1_555 1_555
Mo6 O3 1_555 1_555
Cu1 O11 1_555 1_555
Cu2 N2 1_555 1_555
Cu3 N3 1_555 1_555
O1A Mo1A 1_555 1_555
O2A Mo3A 1_555 1_555
O3A Mo3A 1_555 1_555
O4A Mo6 1_555 1_555
O5A Mo6 1_555 1_555
O6A Mo1A 1_555 1_555
O7A As1 1_555 1_555
O8A Mo1A 1_555 1_555
O9A Mo5A 1_555 1_555
O10A Mo4A 1_555 1_555
O11A Mo2A 1_555 1_555
O12A As1 1_555 1_555
O13A Mo6A 1_555 1_555
O14A As1 1_555 1_555
O15A Mo5 1_555 1_555
O16A Mo2A 1_555 1_555
O17A Mo1A 1_555 1_555
O18A Mo3A 1_555 1_555
O19A Mo1A 1_555 1_555
O20A Mo4 1_555 1_555
O21A As1 1_555 1_555
O22A Mo2A 1_555 1_555
C1_2 H1_2 1_555 1_555
C2_2 C18_2 1_555 1_555
C3A H2A 1_555 1_555
C4A H3A 1_555 1_555
C5A C11A 1_555 1_555
C6A H4A 1_555 1_555
C7_2 C1_2 1_555 1_555
H5_2 C7_2 1_555 1_555
C8A C3A 1_555 1_555
H6A C8A 1_555 1_555
C9A C4A 1_555 1_555
C10A C9A 1_555 1_555
C11A C3A 1_555 1_555
C12A C9A 1_555 1_555
H7A C12A 1_555 1_555
C13A C4A 1_555 1_555
H8A C13A 1_555 1_555
C14A C12A 1_555 1_555
H9A C14A 1_555 1_555
C15A C6A 1_555 1_555
H10A C15A 1_555 1_555
C16_2 H11_2 1_555 1_555
C17_2 C16_2 1_555 1_555
H12_2 C17_2 1_555 1_555
C18_2 C1_2 1_555 1_555
N1A C6A 1_555 1_555
N2A N4A 1_555 1_555
N3A C13A 1_555 1_555
N4A N15A 1_555 1_555
N4_2 Cu3 1_555 1_555
N4A_2 Cu3A 1_555 1_555
N5_2 C2_2 1_555 1_555
N5A Cu2A 1_555 1_555
N6A C5A 1_555 1_555
N7_2 N11_2 1_555 1_555
N8A C10A 1_555 1_555
N9_2 C7_2 1_555 1_555
N10A N13A 1_555 1_555
N10A_2 N13A_2 1_555 1_555
N11_2 Cu3 1_555 1_555
N11A Cu3A 1_555 1_555
N12_2 C2_2 1_555 1_555
N13A N8A 1_555 1_555
N13A_2 Cu2A 1_555 1_555
N14A Cu1 1_555 1_555
N14_2 Cu1A 1_555 1_555
N15A C5A 1_555 1_555
Mo1A O21 1_555 1_555
Mo2A O21 1_555 1_555
Mo3A O14 1_555 1_555
Mo4A O20 1_555 1_555
Mo5A O12 1_555 1_555
Mo6A O4 1_555 1_555
Cu1A O11A 1_555 1_555
Cu1A_2 N14 1_555 1_555
Cu2A N2A 1_555 1_555
Cu2A_2 N13A 1_555 1_555
Cu2_2 N5_2 1_555 1_555
Cu3A N3A 1_555 1_555
Cu3_2 N4 1_555 1_555
Cu3A_2 N4A 1_555 1_555
O5 Mo6A 1_555 1_555
O7 Mo5 1_555 1_555
O7 O14A 1_555 1_555
O12 Mo2 1_555 1_555
O12 Mo6 1_555 1_555
O12 O14A 1_555 1_555
O14 O7A 1_555 1_555
O14 O12A 1_555 1_555
O14 Mo6A 1_555 1_555
O15 Mo5A 1_555 1_555
O16 Mo6 1_555 1_555
O17 Mo4 1_555 1_555
O18 Mo5 1_555 1_555
O19 Mo3 1_555 1_555
O21 Mo4A 1_555 1_555
O22 Mo4 1_555 1_555
C8 N1 1_555 1_555
C11 C15 1_555 1_555
C14 N3 1_555 1_555
C16 C18 1_555 1_555
C17 N9 1_555 1_555
N2 N6 1_555 1_555
N5 Cu2 1_555 1_555
N6 Cu1 1_555 1_555
N7 N12 1_555 1_555
N10 N14 1_555 1_555
N10 Cu1 1_555 1_555
N11 Cu3_2 1_555 1_555
N13 Cu2 1_555 1_555
Mo2 O21A 1_555 1_555
Mo3 O14A 1_555 1_555
Mo4 O21A 1_555 1_555
Mo5 O12A 1_555 1_555
Mo6 O14A 1_555 1_555
O1A Mo5A 1_555 1_555
O3A Mo6A 1_555 1_555
O4A Mo5A 1_555 1_555
O5A Mo4A 1_555 1_555
O6A Mo2A 1_555 1_555
O7A Mo1A 1_555 1_555
O7A Mo3A 1_555 1_555
O7A Mo5A 1_555 1_555
O12A Mo2A 1_555 1_555
O12A Mo6A 1_555 1_555
O14A Mo4A 1_555 1_555
O15A Mo2A 1_555 1_555
O16A Mo6A 1_555 1_555
O17A Mo4A 1_555 1_555
O18A Mo5A 1_555 1_555
O19A Mo3A 1_555 1_555
O20A Mo3A 1_555 1_555
O22A Mo4A 1_555 1_555
C8A N1A 1_555 1_555
C10A N14A 1_555 1_555
C11A C15A 1_555 1_555
C14A N3A 1_555 1_555
C16_2 C18_2 1_555 1_555
C17_2 N9_2 1_555 1_555
N2A N6A 1_555 1_555
N5_2 N11_2 1_555 1_555
N6A Cu1A 1_555 1_555
N7_2 N12_2 1_555 1_555
N10A N14A 1_555 1_555
N10A Cu1A_2 1_555 1_555
N10A_2 Cu1A 1_555 1_555

#END
