
#######################################################################
#
#                 Cambridge Crystallographic Data Centre
#                                CCDC 
#
#######################################################################
#
# If this CIF has been generated from an entry in the Cambridge 
# Structural Database, then it will include bibliographic, chemical, 
# crystal, experimental, refinement or atomic coordinate data resulting 
# from the CCDC's data processing and validation procedures.
#
#######################################################################

data_PENMOL
_symmetry_cell_setting           monoclinic
_symmetry_space_group_name_H-M   'P 21/c'
_symmetry_Int_Tables_number      14
_space_group_name_Hall           '-P 2ybc'
loop_
_symmetry_equiv_pos_site_id
_symmetry_equiv_pos_as_xyz
1 x,y,z
2 -x,1/2+y,1/2-z
3 -x,-y,-z
4 x,1/2-y,1/2+z
_cell_length_a                   9.973(5)
_cell_length_b                   7.941(5)
_cell_length_c                   14.656(5)
_cell_angle_alpha                90
_cell_angle_beta                 105.045(5)
_cell_angle_gamma                90
_cell_volume                     1120.9
loop_
_atom_site_label
_atom_site_type_symbol
_atom_site_fract_x
_atom_site_fract_y
_atom_site_fract_z
Bi1 Bi 0.06849(2) 0.06159(3) 0.297685(15)
Cl1 Cl -0.19218(14) 0.23716(19) 0.22674(11)
S1 S 0.08549(14) 0.33014(19) 0.40976(11)
S2 S 0.30279(17) 0.06752(18) 0.43748(13)
N1 N 0.3156(5) 0.3308(6) 0.5525(4)
C1 C -0.0497(7) -0.0874(8) 0.3796(5)
H1 H 0.0116 -0.1659 0.4198
H2 H -0.1232 -0.1477 0.3368
H3 H -0.0884 -0.0128 0.4176
C2 C 0.2454(6) 0.2544(8) 0.4756(5)
C3 C 0.2633(7) 0.4862(9) 0.5877(5)
H4 H 0.2933 0.4878 0.6562
H5 H 0.1626 0.4855 0.5692
C4 C 0.3149(8) 0.6428(9) 0.5497(5)
H6 H 0.4145 0.6420 0.5660
H7 H 0.2832 0.7404 0.5767
H8 H 0.2797 0.6459 0.4822
C5 C 0.4510(6) 0.2667(8) 0.6095(5)
H9 H 0.5111 0.3611 0.6345
H10 H 0.4950 0.2016 0.5693
C6 C 0.4337(7) 0.1571(11) 0.6907(5)
H11 H 0.3794 0.2162 0.7257
H12 H 0.5234 0.1315 0.7316
H13 H 0.3875 0.0544 0.6661
Bi1A Bi -0.06849(2) 0.56159(3) 0.202315(15)
Cl1A Cl 0.19218(14) -0.26284(19) 0.27326(11)
loop_
_geom_bond_atom_site_label_1
_geom_bond_atom_site_label_2
_geom_bond_site_symmetry_1
_geom_bond_site_symmetry_2
Bi1 Cl1 1_555 1_555
Cl1 Bi1A 1_555 1_555
S1 Bi1 1_555 1_555
S2 Bi1 1_555 1_555
N1 C2 1_555 1_555
C1 Bi1 1_555 1_555
H1 C1 1_555 1_555
H2 C1 1_555 1_555
H3 C1 1_555 1_555
C2 S1 1_555 1_555
C3 N1 1_555 1_555
H4 C3 1_555 1_555
H5 C3 1_555 1_555
C4 C3 1_555 1_555
H6 C4 1_555 1_555
H7 C4 1_555 1_555
H8 C4 1_555 1_555
C5 N1 1_555 1_555
H9 C5 1_555 1_555
H10 C5 1_555 1_555
C6 C5 1_555 1_555
H11 C6 1_555 1_555
H12 C6 1_555 1_555
H13 C6 1_555 1_555
Cl1A Bi1 1_555 1_555
S2 C2 1_555 1_555

#END
