
#######################################################################
#
#                 Cambridge Crystallographic Data Centre
#                                CCDC 
#
#######################################################################
#
# If this CIF has been generated from an entry in the Cambridge 
# Structural Database, then it will include bibliographic, chemical, 
# crystal, experimental, refinement or atomic coordinate data resulting 
# from the CCDC's data processing and validation procedures.
#
#######################################################################

data_PENMEC
_symmetry_cell_setting           monoclinic
_symmetry_space_group_name_H-M   'P 21/c'
_symmetry_Int_Tables_number      14
_space_group_name_Hall           '-P 2ybc'
loop_
_symmetry_equiv_pos_site_id
_symmetry_equiv_pos_as_xyz
1 x,y,z
2 -x,1/2+y,1/2-z
3 -x,-y,-z
4 x,1/2-y,1/2+z
_cell_length_a                   8.9003(6)
_cell_length_b                   16.7673(11)
_cell_length_c                   10.9599(5)
_cell_angle_alpha                90
_cell_angle_beta                 124.087(4)
_cell_angle_gamma                90
_cell_volume                     1354.57
loop_
_atom_site_label
_atom_site_type_symbol
_atom_site_fract_x
_atom_site_fract_y
_atom_site_fract_z
Zn1 Zn 0.55813(3) 0.173348(13) 0.06739(2)
N1 N 0.5344(2) 0.20333(10) -0.11886(17)
N2 N 0.4544(2) 0.14996(10) -0.23264(19)
N3 N 0.4716(3) 0.17563(10) -0.33558(19)
N4 N 0.5620(2) 0.24571(10) -0.29321(18)
N5 N 1.1923(2) 0.62524(10) 0.30428(18)
N6 N 0.9730(2) 0.54072(10) 0.16320(17)
O1 O 0.4039(2) 0.08663(9) 0.0488(2)
O2 O 0.1953(3) 0.18046(10) -0.0497(2)
C1 C 0.6969(3) 0.33277(12) -0.0701(2)
C2 C 0.8844(3) 0.33269(12) 0.0246(2)
H1 H 0.9492 0.2867 0.0354
C3 C 0.9759(3) 0.40071(13) 0.1034(2)
H2 H 1.1016 0.4001 0.1677
C4 C 0.8803(3) 0.46917(12) 0.0864(2)
C5 C 0.6932(3) 0.47011(14) -0.0088(3)
H3 H 0.6288 0.5164 -0.0208
C6 C 0.6022(3) 0.40167(14) -0.0863(3)
H4 H 0.4764 0.4021 -0.1496
C7 C 0.5992(3) 0.26143(12) -0.1595(2)
C8 C 1.1536(3) 0.55061(12) 0.2592(2)
H5 H 1.2391 0.5102 0.2893
C9 C 1.0293(3) 0.66514(13) 0.2336(3)
H6 H 1.0155 0.7192 0.2441
C10 C 0.8933(3) 0.61442(13) 0.1473(2)
H7 H 0.7702 0.6263 0.0886
C11 C 0.1815(3) -0.01755(13) 0.0725(2)
H8 H 0.3043 -0.0295 0.1217
C12 C 0.1174(3) 0.05469(13) 0.0000(2)
C13 C -0.0649(3) 0.07224(13) -0.0726(2)
H9 H -0.1094 0.1207 -0.1214
C14 C 0.2445(3) 0.11295(14) -0.0014(2)
Zn1B Zn -0.55813(3) -0.173348(13) -0.06739(2)
Zn1A Zn -0.55813(3) -0.326652(13) 0.43261(2)
Zn1A_2 Zn 1.44187(3) 0.673348(13) 0.43261(2)
Zn1C Zn -1.44187(3) -0.673348(13) -0.43261(2)
Zn1C_2 Zn 0.55813(3) 0.326652(13) -0.43261(2)
N1B N -0.5344(2) -0.20333(10) 0.11886(17)
N2B N -0.4544(2) -0.14996(10) 0.23264(19)
N3B N -0.4716(3) -0.17563(10) 0.33558(19)
N4B N -0.5620(2) -0.24571(10) 0.29321(18)
N4A N -0.5620(2) -0.25429(10) -0.20679(18)
N4C N 0.5620(2) 0.25429(10) 0.20679(18)
N5B N -1.1923(2) -0.62524(10) -0.30428(18)
N5A N 0.8077(2) 0.12524(10) 0.19572(18)
N5C N -0.8077(2) -0.12524(10) -0.19572(18)
N6B N -0.9730(2) -0.54072(10) -0.16320(17)
O1B O -0.4039(2) -0.08663(9) -0.0488(2)
O2B O -0.1953(3) -0.18046(10) 0.0497(2)
C1B C -0.6969(3) -0.33277(12) 0.0701(2)
C2B C -0.8844(3) -0.33269(12) -0.0246(2)
H1B H -0.9492 -0.2867 -0.0354
C3B C -0.9759(3) -0.40071(13) -0.1034(2)
H2B H -1.1016 -0.4001 -0.1677
C4B C -0.8803(3) -0.46917(12) -0.0864(2)
C5B C -0.6932(3) -0.47011(14) 0.0088(3)
H3B H -0.6288 -0.5164 0.0208
C6B C -0.6022(3) -0.40167(14) 0.0863(3)
H4B H -0.4764 -0.4021 0.1496
C7B C -0.5992(3) -0.26143(12) 0.1595(2)
C8B C -1.1536(3) -0.55061(12) -0.2592(2)
H5B H -1.2391 -0.5102 -0.2893
C9B C -1.0293(3) -0.66514(13) -0.2336(3)
H6B H -1.0155 -0.7192 -0.2441
C10B C -0.8933(3) -0.61442(13) -0.1473(2)
H7B H -0.7702 -0.6263 -0.0886
C11B C -0.1815(3) 0.01755(13) -0.0725(2)
H8B H -0.3043 0.0295 -0.1217
C12B C -0.1174(3) -0.05469(13) 0.0000(2)
C13B C 0.0649(3) -0.07224(13) 0.0726(2)
H9B H 0.1094 -0.1207 0.1214
C14B C -0.2445(3) -0.11295(14) 0.0014(2)
loop_
_geom_bond_atom_site_label_1
_geom_bond_atom_site_label_2
_geom_bond_site_symmetry_1
_geom_bond_site_symmetry_2
Zn1 N1 1_555 1_555
N1 N2 1_555 1_555
N2 N3 1_555 1_555
N3 N4 1_555 1_555
N4 C7 1_555 1_555
N5 C8 1_555 1_555
N6 C4 1_555 1_555
O1 Zn1 1_555 1_555
O2 C14 1_555 1_555
C1 C2 1_555 1_555
C2 H1 1_555 1_555
C3 C2 1_555 1_555
H2 C3 1_555 1_555
C4 C3 1_555 1_555
C5 C4 1_555 1_555
H3 C5 1_555 1_555
C6 C1 1_555 1_555
H4 C6 1_555 1_555
C7 N1 1_555 1_555
C8 N6 1_555 1_555
H5 C8 1_555 1_555
C9 N5 1_555 1_555
H6 C9 1_555 1_555
C10 N6 1_555 1_555
H7 C10 1_555 1_555
C11 H8 1_555 1_555
C12 C11 1_555 1_555
C13 C12 1_555 1_555
H9 C13 1_555 1_555
C14 O1 1_555 1_555
Zn1B N1B 1_555 1_555
Zn1A N4B 1_555 1_555
Zn1A_2 N5 1_555 1_555
Zn1C N5B 1_555 1_555
Zn1C_2 N4 1_555 1_555
N1B N2B 1_555 1_555
N2B N3B 1_555 1_555
N3B N4B 1_555 1_555
N4B C7B 1_555 1_555
N4A Zn1B 1_555 1_555
N4C Zn1 1_555 1_555
N5B C8B 1_555 1_555
N5A Zn1 1_555 1_555
N5C Zn1B 1_555 1_555
N6B C4B 1_555 1_555
O1B Zn1B 1_555 1_555
O2B C14B 1_555 1_555
C1B C2B 1_555 1_555
C2B H1B 1_555 1_555
C3B C2B 1_555 1_555
H2B C3B 1_555 1_555
C4B C3B 1_555 1_555
C5B C4B 1_555 1_555
H3B C5B 1_555 1_555
C6B C1B 1_555 1_555
H4B C6B 1_555 1_555
C7B N1B 1_555 1_555
C8B N6B 1_555 1_555
H5B C8B 1_555 1_555
C9B N5B 1_555 1_555
H6B C9B 1_555 1_555
C10B N6B 1_555 1_555
H7B C10B 1_555 1_555
C11B C13 1_555 1_555
H8B C11B 1_555 1_555
C12B C11B 1_555 1_555
C13B C11 1_555 1_555
H9B C13B 1_555 1_555
C14B O1B 1_555 1_555
C1 C7 1_555 1_555
C5 C6 1_555 1_555
C9 C10 1_555 1_555
C12 C14 1_555 1_555
C1B C7B 1_555 1_555
C5B C6B 1_555 1_555
C9B C10B 1_555 1_555
C12B C13B 1_555 1_555
C12B C14B 1_555 1_555

#END
