
#######################################################################
#
#                 Cambridge Crystallographic Data Centre
#                                CCDC 
#
#######################################################################
#
# If this CIF has been generated from an entry in the Cambridge 
# Structural Database, then it will include bibliographic, chemical, 
# crystal, experimental, refinement or atomic coordinate data resulting 
# from the CCDC's data processing and validation procedures.
#
#######################################################################

data_PENNED
_symmetry_cell_setting           monoclinic
_symmetry_space_group_name_H-M   'P 21/c'
_symmetry_Int_Tables_number      14
_space_group_name_Hall           '-P 2ybc'
loop_
_symmetry_equiv_pos_site_id
_symmetry_equiv_pos_as_xyz
1 x,y,z
2 -x,1/2+y,1/2-z
3 -x,-y,-z
4 x,1/2-y,1/2+z
_cell_length_a                   7.3097(15)
_cell_length_b                   11.264(2)
_cell_length_c                   8.8025(18)
_cell_angle_alpha                90
_cell_angle_beta                 108.55(3)
_cell_angle_gamma                90
_cell_volume                     687.112
loop_
_atom_site_label
_atom_site_type_symbol
_atom_site_fract_x
_atom_site_fract_y
_atom_site_fract_z
Hg1 Hg 0.87102(5) 0.56121(4) 0.40408(4)
O1 O 0.8579(8) 0.7047(7) 0.2081(8)
O2 O 0.6641(10) 0.7973(7) -0.0040(9)
N1 N 0.5688(11) 0.5596(6) 0.2192(8)
N2 N 0.1955(12) 0.5856(9) 0.0126(12)
N3 N 0.2893(12) 0.7370(9) -0.1189(11)
H1 H 0.1718 0.7426 -0.1806
H2 H 0.3760 0.7837 -0.1324
C1 C 0.6997(10) 0.7207(7) 0.1028(9)
C2 C 0.5309(10) 0.6437(7) 0.1066(8)
C3 C 0.3371(12) 0.6560(8) -0.0025(11)
C4 C 0.2404(14) 0.5036(10) 0.1294(13)
H3 H 0.1435 0.4545 0.1413
C5 C 0.4277(13) 0.4899(8) 0.2330(11)
H4 H 0.4545 0.4319 0.3123
Hg1B Hg 1.12898(5) 0.43879(4) 0.59592(4)
Hg1C Hg 0.87102(5) 0.93879(4) -0.09592(4)
O2C O 0.6641(10) 0.7027(7) 0.4960(9)
loop_
_geom_bond_atom_site_label_1
_geom_bond_atom_site_label_2
_geom_bond_site_symmetry_1
_geom_bond_site_symmetry_2
Hg1 O1 1_555 1_555
O1 C1 1_555 1_555
O2 C1 1_555 1_555
N1 Hg1 1_555 1_555
N2 C3 1_555 1_555
N3 H1 1_555 1_555
H2 N3 1_555 1_555
C1 C2 1_555 1_555
C2 N1 1_555 1_555
C3 N3 1_555 1_555
C4 N2 1_555 1_555
H3 C4 1_555 1_555
C5 N1 1_555 1_555
H4 C5 1_555 1_555
Hg1B Hg1 1_555 1_555
Hg1C O2 1_555 1_555
O2C Hg1 1_555 1_555
C2 C3 1_555 1_555
C4 C5 1_555 1_555

#END
