
#######################################################################
#
#                 Cambridge Crystallographic Data Centre
#                                CCDC 
#
#######################################################################
#
# If this CIF has been generated from an entry in the Cambridge 
# Structural Database, then it will include bibliographic, chemical, 
# crystal, experimental, refinement or atomic coordinate data resulting 
# from the CCDC's data processing and validation procedures.
#
#######################################################################

data_PENPOP
_symmetry_cell_setting           monoclinic
_symmetry_space_group_name_H-M   'C 2/c'
_symmetry_Int_Tables_number      15
_space_group_name_Hall           '-C 2yn'
loop_
_symmetry_equiv_pos_site_id
_symmetry_equiv_pos_as_xyz
1 x,y,z
2 -x,y,1/2-z
3 1/2+x,1/2+y,z
4 1/2-x,1/2+y,1/2-z
5 -x,-y,-z
6 x,-y,1/2+z
7 1/2-x,1/2-y,-z
8 1/2+x,1/2-y,1/2+z
_cell_length_a                   27.743(3)
_cell_length_b                   10.4017(9)
_cell_length_c                   13.6808(12)
_cell_angle_alpha                90
_cell_angle_beta                 118.3260(10)
_cell_angle_gamma                90
_cell_volume                     3475.21
loop_
_atom_site_label
_atom_site_type_symbol
_atom_site_fract_x
_atom_site_fract_y
_atom_site_fract_z
C1 C 0.05472(17) 0.7298(4) -0.0493(3)
C2 C 0.04447(18) 0.5920(4) -0.0635(3)
C3 C -0.00840(17) 0.5431(4) -0.1352(3)
C4 C -0.0146(2) 0.4101(4) -0.1456(4)
H1 H -0.0488 0.3749 -0.1921
C5 C 0.0291(2) 0.3316(4) -0.0881(4)
H2 H 0.0251 0.2428 -0.0949
C6 C 0.0792(2) 0.3858(4) -0.0195(4)
H3 H 0.1089 0.3313 0.0189
C7 C 0.1169(2) 0.8940(4) 0.0325(5)
H4 H 0.1523 0.9212 0.0803
C8 C 0.0769(3) 0.9861(5) -0.0216(6)
H5 H 0.0859 1.0729 -0.0107
C9 C 0.0249(2) 0.9495(5) -0.0901(5)
H6 H -0.0022 1.0108 -0.1260
C10 C 0.01224(19) 0.8178(4) -0.1068(4)
C11 C -0.04954(18) 0.6370(4) -0.1915(4)
C12 C -0.04125(18) 0.7676(4) -0.1796(4)
C13 C -0.1246(2) 0.7438(5) -0.2982(4)
H7 H -0.1607 0.7614 -0.3502
C14 C 0.25338(19) 0.4019(4) 0.1310(4)
C15 C 0.28463(17) 0.2969(4) 0.1851(3)
C16 C 0.24813(19) 0.4800(4) 0.0370(4)
C17 C 0.23791(18) 0.3524(5) 0.2657(4)
H8 H 0.2240 0.3544 0.3156
C18 C 0.32437(19) 0.2203(5) 0.1655(4)
Cd1 Cd 0.171257(12) 0.61016(3) 0.11648(3)
H9 H -0.124(3) 0.562(7) -0.294(6)
N1 N 0.08747(15) 0.5121(3) -0.0055(3)
N2 N 0.10692(15) 0.7690(4) 0.0193(3)
N3 N 0.22310(15) 0.4356(4) 0.1822(3)
N4 N -0.10500(17) 0.6223(4) -0.2698(3)
N5 N -0.08873(17) 0.8334(4) -0.2467(4)
N6 N 0.27460(14) 0.2661(3) 0.2708(3)
O1 O 0.21585(15) 0.5709(3) 0.0030(3)
O2 O 0.27723(16) 0.4475(4) -0.0102(3)
O3 O 0.34801(14) 0.1273(3) 0.2283(3)
O4 O 0.33287(16) 0.2546(4) 0.0859(3)
H10 H 0.308(6) 0.24(2) 0.024(8)
H11 H 0.301(3) 0.392(6) 0.015(7)
Cd1C Cd 0.328743(12) 0.11016(3) 0.38352(3)
N6C N 0.22540(14) 0.7661(3) 0.2292(3)
O3C O 0.15199(14) 0.6273(3) 0.2717(3)
Cl1 Cl 0.9241(9) 0.1107(15) 0.745(2)
loop_
_geom_bond_atom_site_label_1
_geom_bond_atom_site_label_2
_geom_bond_site_symmetry_1
_geom_bond_site_symmetry_2
C1 C2 1_555 1_555
C2 C3 1_555 1_555
C3 C4 1_555 1_555
C4 H1 1_555 1_555
C5 C4 1_555 1_555
H2 C5 1_555 1_555
C6 C5 1_555 1_555
H3 C6 1_555 1_555
C7 H4 1_555 1_555
C8 C7 1_555 1_555
H5 C8 1_555 1_555
C9 C8 1_555 1_555
H6 C9 1_555 1_555
C10 C1 1_555 1_555
C11 C3 1_555 1_555
C12 C10 1_555 1_555
C13 H7 1_555 1_555
C14 C15 1_555 1_555
C15 C18 1_555 1_555
C16 C14 1_555 1_555
C17 H8 1_555 1_555
C18 O3 1_555 1_555
Cd1 N1 1_555 1_555
H9 N4 1_555 1_555
N1 C2 1_555 1_555
N2 C1 1_555 1_555
N3 C14 1_555 1_555
N4 C11 1_555 1_555
N5 C12 1_555 1_555
N6 C15 1_555 1_555
O1 C16 1_555 1_555
O2 C16 1_555 1_555
O3 Cd1C 1_555 1_555
O4 C18 1_555 1_555
H10 O4 1_555 1_555
H11 O2 1_555 1_555
Cd1C N6 1_555 1_555
N6C Cd1 1_555 1_555
O3C Cd1 1_555 1_555
C6 N1 1_555 1_555
C7 N2 1_555 1_555
C9 C10 1_555 1_555
C11 C12 1_555 1_555
C13 N4 1_555 1_555
C13 N5 1_555 1_555
C17 N3 1_555 1_555
C17 N6 1_555 1_555
Cd1 N2 1_555 1_555
Cd1 N3 1_555 1_555
Cd1 O1 1_555 1_555

#END
