
#######################################################################
#
#                 Cambridge Crystallographic Data Centre
#                                CCDC 
#
#######################################################################
#
# If this CIF has been generated from an entry in the Cambridge 
# Structural Database, then it will include bibliographic, chemical, 
# crystal, experimental, refinement or atomic coordinate data resulting 
# from the CCDC's data processing and validation procedures.
#
#######################################################################

data_PENPMN
_symmetry_cell_setting           monoclinic
_symmetry_space_group_name_H-M   'P 21/c'
_symmetry_Int_Tables_number      14
_space_group_name_Hall           '-P 2ybc'
loop_
_symmetry_equiv_pos_site_id
_symmetry_equiv_pos_as_xyz
1 x,y,z
2 -x,1/2+y,1/2-z
3 -x,-y,-z
4 x,1/2-y,1/2+z
_cell_length_a                   10.791(9)
_cell_length_b                   11.173(8)
_cell_length_c                   13.15(2)
_cell_angle_alpha                90
_cell_angle_beta                 118.65(3)
_cell_angle_gamma                90
_cell_volume                     1391.35
loop_
_atom_site_label
_atom_site_type_symbol
_atom_site_fract_x
_atom_site_fract_y
_atom_site_fract_z
Mn1 Mn 0.17370 0.23650 0.28210
P1 P 0.07600 -0.06300 0.22400
P2 P 0.11850 0.20350 0.50850
O1 O 0.10400 0.05670 0.27980
O2 O 0.00720 -0.15370 0.26280
O3 O 0.21580 0.23570 0.46250
O4 O 0.12080 0.28040 0.60230
N1 N 0.40740 0.18250 0.34980
N2 N 0.30860 0.40960 0.30690
C1 C 0.45890 0.07040 0.37220
C2 C 0.60260 0.04430 0.42960
C3 C 0.70010 0.13450 0.46170
C4 C 0.65190 0.25420 0.43750
C5 C 0.50380 0.27320 0.38140
C6 C 0.74630 0.35350 0.46690
C7 C 0.69520 0.46780 0.44050
C8 C 0.44900 0.39340 0.35530
C9 C 0.54740 0.48770 0.38690
C10 C 0.48930 0.60800 0.36380
C11 C 0.34690 0.62480 0.31270
C12 C 0.25970 0.52270 0.28590
O2A O -0.00720 0.34630 0.23720
O4C O 0.12080 0.21960 0.10230
Mn1A Mn -0.17370 -0.26350 0.21790
Mn1C Mn 0.17370 0.26350 0.78210
loop_
_geom_bond_atom_site_label_1
_geom_bond_atom_site_label_2
_geom_bond_site_symmetry_1
_geom_bond_site_symmetry_2
Mn1 O1 1_555 1_555
P1 O1 1_555 1_555
P2 O3 1_555 1_555
O2 P1 1_555 1_555
O3 Mn1 1_555 1_555
O4 P2 1_555 1_555
N1 Mn1 1_555 1_555
N2 Mn1 1_555 1_555
C1 N1 1_555 1_555
C2 C1 1_555 1_555
C3 C2 1_555 1_555
C4 C3 1_555 1_555
C5 N1 1_555 1_555
C6 C4 1_555 1_555
C7 C6 1_555 1_555
C8 N2 1_555 1_555
C9 C7 1_555 1_555
C10 C9 1_555 1_555
C11 C10 1_555 1_555
C12 N2 1_555 1_555
O2A Mn1 1_555 1_555
O4C Mn1 1_555 1_555
Mn1A O2 1_555 1_555
Mn1C O4 1_555 1_555
C4 C5 1_555 1_555
C5 C8 1_555 1_555
C8 C9 1_555 1_555
C11 C12 1_555 1_555

#END
