
#######################################################################
#
#                 Cambridge Crystallographic Data Centre
#                                CCDC 
#
#######################################################################
#
# If this CIF has been generated from an entry in the Cambridge 
# Structural Database, then it will include bibliographic, chemical, 
# crystal, experimental, refinement or atomic coordinate data resulting 
# from the CCDC's data processing and validation procedures.
#
#######################################################################

data_PENPAB
_symmetry_cell_setting           orthorhombic
_symmetry_space_group_name_H-M   'P c c n'
_symmetry_Int_Tables_number      56
_space_group_name_Hall           '-P 2ab 2ac'
loop_
_symmetry_equiv_pos_site_id
_symmetry_equiv_pos_as_xyz
1 x,y,z
2 1/2-x,1/2-y,z
3 1/2+x,-y,1/2-z
4 -x,1/2+y,1/2-z
5 -x,-y,-z
6 1/2+x,1/2+y,-z
7 1/2-x,y,1/2+z
8 x,1/2-y,1/2+z
_cell_length_a                   18.298(4)
_cell_length_b                   11.405(2)
_cell_length_c                   15.185(3)
_cell_angle_alpha                90
_cell_angle_beta                 90
_cell_angle_gamma                90
_cell_volume                     3168.94
loop_
_atom_site_label
_atom_site_type_symbol
_atom_site_fract_x
_atom_site_fract_y
_atom_site_fract_z
Zn1 Zn 0.05366(5) 0.52308(10) 0.38567(7)
O1 O 0.1172(4) 0.5370(6) 0.2776(5)
O2 O 0.2179(4) 0.5065(8) 0.3560(5)
O3 O 0.3007(3) 0.5144(7) 0.2023(4)
O4 O 0.4459(3) 0.4792(6) 0.1506(4)
O5 O 0.4151(4) 0.5218(8) 0.0132(5)
N1 N 0.0540(5) 0.7139(7) 0.3925(6)
N2 N 0.0588(4) 1.3361(8) 0.3840(6)
C1 C 0.1861(5) 0.5292(10) 0.2866(7)
C2 C 0.2277(5) 0.5416(9) 0.2034(7)
C3 C 0.2674(6) 0.5689(12) 0.0664(8)
H1 H 0.2696 0.5880 0.0069
C4 C 0.3232(5) 0.5320(10) 0.1174(6)
C5 C 0.2051(6) 0.5728(12) 0.1209(8)
H2 H 0.1579 0.5927 0.1040
C6 C 0.4009(5) 0.5065(7) 0.0920(6)
C7 C -0.0062(6) 0.7774(10) 0.3881(9)
H3 H -0.0510 0.7389 0.3860
C8 C -0.0057(6) 0.8976(10) 0.3863(9)
H4 H -0.0494 0.9392 0.3839
C9 C 0.0596(5) 0.9560(8) 0.3881(7)
C10 C 0.1217(6) 0.8928(10) 0.3918(8)
H5 H 0.1669 0.9298 0.3924
C11 C 0.1168(6) 0.7716(10) 0.3948(9)
H6 H 0.1599 0.7286 0.3986
C12 C 0.0610(5) 1.0857(9) 0.3812(7)
C13 C 0.0049(6) 1.1518(9) 0.3456(7)
H7 H -0.0347 1.1134 0.3203
C14 C 0.1174(6) 1.1539(11) 0.4201(9)
H8 H 0.1569 1.1167 0.4468
C15 C 0.0057(6) 1.2713(9) 0.3465(7)
H9 H -0.0327 1.3106 0.3195
C16 C 0.1143(6) 1.2742(10) 0.4187(8)
H10 H 0.1530 1.3155 0.4433
Zn1B Zn 0.55366(5) 0.47692(10) 0.11433(7)
Zn1F Zn 0.44634(5) 0.52308(10) -0.11433(7)
Zn1_2 Zn 0.05366(5) 1.52308(10) 0.38567(7)
O4B O -0.0541(3) 0.5208(6) 0.3494(4)
O5F O 0.0849(4) 0.5218(8) 0.5132(5)
N2_2 N 0.0588(4) 0.3361(8) 0.3840(6)
O6 O 0.2500 0.2500 0.180(3)
O7? O 0.2500 0.2500 0.057(3)
loop_
_geom_bond_atom_site_label_1
_geom_bond_atom_site_label_2
_geom_bond_site_symmetry_1
_geom_bond_site_symmetry_2
Zn1 O1 1_555 1_555
O1 C1 1_555 1_555
O2 C1 1_555 1_555
O3 C2 1_555 1_555
O4 C6 1_555 1_555
O5 C6 1_555 1_555
N1 Zn1 1_555 1_555
N2 C15 1_555 1_555
C1 C2 1_555 1_555
C2 C5 1_555 1_555
C3 H1 1_555 1_555
C4 O3 1_555 1_555
C5 C3 1_555 1_555
H2 C5 1_555 1_555
C6 C4 1_555 1_555
C7 N1 1_555 1_555
H3 C7 1_555 1_555
C8 C7 1_555 1_555
H4 C8 1_555 1_555
C9 C8 1_555 1_555
C10 C9 1_555 1_555
H5 C10 1_555 1_555
C11 N1 1_555 1_555
H6 C11 1_555 1_555
C12 C9 1_555 1_555
C13 C12 1_555 1_555
H7 C13 1_555 1_555
C14 C12 1_555 1_555
H8 C14 1_555 1_555
C15 C13 1_555 1_555
H9 C15 1_555 1_555
C16 N2 1_555 1_555
H10 C16 1_555 1_555
Zn1B O4 1_555 1_555
Zn1F O5 1_555 1_555
Zn1_2 N2 1_555 1_555
O4B Zn1 1_555 1_555
O5F Zn1 1_555 1_555
N2_2 Zn1 1_555 1_555
C3 C4 1_555 1_555
C10 C11 1_555 1_555
C14 C16 1_555 1_555

#END
