
#######################################################################
#
#                 Cambridge Crystallographic Data Centre
#                                CCDC 
#
#######################################################################
#
# If this CIF has been generated from an entry in the Cambridge 
# Structural Database, then it will include bibliographic, chemical, 
# crystal, experimental, refinement or atomic coordinate data resulting 
# from the CCDC's data processing and validation procedures.
#
#######################################################################

data_PENXUC
_symmetry_cell_setting           monoclinic
_symmetry_space_group_name_H-M   'P 21/n'
_symmetry_Int_Tables_number      14
_space_group_name_Hall           '-P 2yn'
loop_
_symmetry_equiv_pos_site_id
_symmetry_equiv_pos_as_xyz
1 x,y,z
2 1/2-x,1/2+y,1/2-z
3 -x,-y,-z
4 1/2+x,1/2-y,1/2+z
_cell_length_a                   7.5609(15)
_cell_length_b                   14.189(3)
_cell_length_c                   11.174(2)
_cell_angle_alpha                90
_cell_angle_beta                 99.04(3)
_cell_angle_gamma                90
_cell_volume                     1183.87
loop_
_atom_site_label
_atom_site_type_symbol
_atom_site_fract_x
_atom_site_fract_y
_atom_site_fract_z
P1 P -0.21910(11) 0.19873(6) 0.58066(7)
P2 P -0.27213(11) -0.19818(6) 0.55716(7)
F1 F 0.3164(2) 0.15869(13) 0.76849(16)
F2 F 0.2412(3) 0.32794(13) 0.76130(17)
O1 O -0.3632(3) 0.19414(15) 0.66267(19)
O2 O -0.0311(3) 0.21166(15) 0.65213(19)
O3 O 0.0176(3) 0.10067(16) 0.8575(2)
O4 O -0.4170(3) -0.20276(15) 0.63748(19)
O5 O -0.2566(3) 0.27778(15) 0.48604(19)
O6 O -0.0856(3) -0.21888(16) 0.62617(19)
O7 O -0.3117(3) -0.26776(15) 0.45155(19)
O8 O 0.5563(4) 0.39399(18) 0.6522(3)
H1 H 0.5068 0.4399 0.6769
C1 C -0.2298(4) 0.0893(2) 0.5021(3)
H4 H -0.3388 0.0887 0.4433
H5 H -0.1300 0.0867 0.4573
C2 C -0.2702(4) -0.0832(2) 0.4921(3)
H6 H -0.3871 -0.0720 0.4447
H7 H -0.1840 -0.0835 0.4363
C3 C -0.2262(5) 0.0000(2) 0.5785(3)
H8 H -0.1087 -0.0084 0.6265
H9 H -0.3137 0.0043 0.6331
H14 H 0.554(12) 0.391(7) 0.565(9)
V1 V 0.08805(7) 0.20291(4) 0.82250(5)
V2 V 0.44666(7) 0.26846(4) 0.71424(5)
P1A P -0.28090(11) 0.69873(6) 0.91934(7)
P2A P -0.22787(11) 0.30182(6) 0.94284(7)
F1A F -0.8164(2) 0.65869(13) 0.73151(16)
F1_2 F -0.6836(2) 0.15869(13) 0.76849(16)
F2A F -0.7412(3) 0.82794(13) 0.73870(17)
F2_2 F -0.7588(3) 0.32794(13) 0.76130(17)
O1A O -0.1368(3) 0.69414(15) 0.83733(19)
O1_2 O 0.6368(3) 0.19414(15) 0.66267(19)
O2A O -0.4689(3) 0.71166(15) 0.84787(19)
O3A O -0.5176(3) 0.60067(16) 0.6425(2)
O4A O -0.0830(3) 0.29724(15) 0.86252(19)
O4_2 O -0.4170(3) 0.79724(15) 0.63748(19)
O5A O -0.2434(3) 0.77778(15) 1.01396(19)
O5C O 0.2434(3) 0.22222(15) 0.98604(19)
O5B O -0.7434(3) 0.72222(15) 0.51396(19)
O6A O -0.4144(3) 0.28112(16) 0.87383(19)
O6A_2 O 0.5856(3) 0.28112(16) 0.87383(19)
O7A O -0.1883(3) 0.23224(15) 1.04845(19)
O7B O 0.3117(3) 0.26776(15) 0.54845(19)
O7B_2 O -0.6883(3) 0.26776(15) 0.54845(19)
O8_2 O -0.4437(4) 0.39399(18) 0.6522(3)
H1_2 H -0.4932 0.4399 0.6769
C1A C -0.2702(4) 0.5893(2) 0.9979(3)
H4A H -0.1612 0.5887 1.0567
H5A H -0.3700 0.5867 1.0427
C2A C -0.2298(4) 0.4168(2) 1.0079(3)
H6A H -0.1129 0.4280 1.0553
H7A H -0.3160 0.4165 1.0637
C3A C -0.2738(5) 0.5000(2) 0.9215(3)
H8A H -0.3913 0.4916 0.8735
H9A H -0.1863 0.5043 0.8669
H14_2 H -0.446(12) 0.391(7) 0.565(9)
V1A V -0.58805(7) 0.70291(4) 0.67750(5)
V1A_2 V -0.58805(7) -0.29709(4) 0.67750(5)
V1C V -0.41195(7) 0.29709(4) 0.32250(5)
V1B V -0.08805(7) 0.79709(4) 1.17750(5)
V2_2 V -0.55334(7) 0.26846(4) 0.71424(5)
V2A V 0.05334(7) -0.23154(4) 0.78576(5)
V2B V -0.44666(7) -0.26846(4) 0.28576(5)
V2A_2 V 0.05334(7) 0.76846(4) 0.78576(5)
V2C V -0.05334(7) 0.23154(4) 1.21424(5)
V2A_3 V -0.94666(7) 0.76846(4) 0.78576(5)
N1 N 0.0423(4) 0.40248(19) 0.5224(3)
H2 H 0.1191 0.3574 0.5546
H3 H -0.0579 0.3741 0.4854
C4 C 0.1239(5) 0.4569(2) 0.4323(3)
H10 H 0.1475 0.4153 0.3678
H11 H 0.2373 0.4831 0.4707
C5 C -0.0022(5) 0.4644(2) 0.6205(3)
H12 H 0.1069 0.4906 0.6654
H13 H -0.0609 0.4277 0.6762
N1B N -0.0423(4) 0.59752(19) 0.4776(3)
H2B H -0.1191 0.6426 0.4454
H3B H 0.0579 0.6259 0.5146
C4B C -0.1239(5) 0.5431(2) 0.5677(3)
H10B H -0.1475 0.5847 0.6322
H11B H -0.2373 0.5169 0.5293
C5B C 0.0022(5) 0.5356(2) 0.3795(3)
H12B H -0.1069 0.5094 0.3346
H13B H 0.0609 0.5723 0.3238
loop_
_geom_bond_atom_site_label_1
_geom_bond_atom_site_label_2
_geom_bond_site_symmetry_1
_geom_bond_site_symmetry_2
P1 O1 1_555 1_555
P2 O4 1_555 1_555
F1 V1 1_555 1_555
F2 V1 1_555 1_555
O1 V2_2 1_555 1_555
O2 P1 1_555 1_555
O3 V1 1_555 1_555
O4 V1A_2 1_555 1_555
O5 P1 1_555 1_555
O6 P2 1_555 1_555
O7 P2 1_555 1_555
O8 H1 1_555 1_555
N1 H2 1_555 1_555
H3 N1 1_555 1_555
C1 P1 1_555 1_555
H4 C1 1_555 1_555
H5 C1 1_555 1_555
C2 P2 1_555 1_555
H6 C2 1_555 1_555
H7 C2 1_555 1_555
C3 C1 1_555 1_555
H8 C3 1_555 1_555
H9 C3 1_555 1_555
C4 N1 1_555 1_555
H10 C4 1_555 1_555
H11 C4 1_555 1_555
C5 N1 1_555 1_555
H12 C5 1_555 1_555
H13 C5 1_555 1_555
H14 O8 1_555 1_555
V1 O2 1_555 1_555
V2 F1 1_555 1_555
P1A O1A 1_555 1_555
P2A O4A 1_555 1_555
F1A V1A 1_555 1_555
F1_2 V2_2 1_555 1_555
F2A V1A 1_555 1_555
F2_2 V2_2 1_555 1_555
O1A V2A_2 1_555 1_555
O1_2 V2 1_555 1_555
O2A P1A 1_555 1_555
O3A V1A 1_555 1_555
O4A V1 1_555 1_555
O4_2 V1A 1_555 1_555
O5A P1A 1_555 1_555
O5C V1 1_555 1_555
O5B V1A 1_555 1_555
O6A P2A 1_555 1_555
O6A_2 V2 1_555 1_555
O7A P2A 1_555 1_555
O7B V2 1_555 1_555
O7B_2 V2_2 1_555 1_555
O8_2 H1_2 1_555 1_555
N1B H2B 1_555 1_555
H3B N1B 1_555 1_555
C1A P1A 1_555 1_555
H4A C1A 1_555 1_555
H5A C1A 1_555 1_555
C2A P2A 1_555 1_555
H6A C2A 1_555 1_555
H7A C2A 1_555 1_555
C3A C1A 1_555 1_555
H8A C3A 1_555 1_555
H9A C3A 1_555 1_555
C4B C5 1_555 1_555
H10B C4B 1_555 1_555
H11B C4B 1_555 1_555
C5B C4 1_555 1_555
H12B C5B 1_555 1_555
H13B C5B 1_555 1_555
H14_2 O8_2 1_555 1_555
V1A O2A 1_555 1_555
V1C O5 1_555 1_555
V1B O5A 1_555 1_555
V2_2 O6A 1_555 1_555
V2A O6 1_555 1_555
V2B O7 1_555 1_555
V2C O7A 1_555 1_555
V2A_3 F1A 1_555 1_555
F2 V2 1_555 1_555
O8 V2 1_555 1_555
C2 C3 1_555 1_555
F2A V2A_3 1_555 1_555
O8_2 V2_2 1_555 1_555
N1B C4B 1_555 1_555
N1B C5B 1_555 1_555
C2A C3A 1_555 1_555

#END
