
#######################################################################
#
#                 Cambridge Crystallographic Data Centre
#                                CCDC 
#
#######################################################################
#
# If this CIF has been generated from an entry in the Cambridge 
# Structural Database, then it will include bibliographic, chemical, 
# crystal, experimental, refinement or atomic coordinate data resulting 
# from the CCDC's data processing and validation procedures.
#
#######################################################################

data_PENXIQ
_symmetry_cell_setting           triclinic
_symmetry_space_group_name_H-M   'P -1'
_symmetry_Int_Tables_number      2
_space_group_name_Hall           '-P 1'
loop_
_symmetry_equiv_pos_site_id
_symmetry_equiv_pos_as_xyz
1 x,y,z
2 -x,-y,-z
_cell_length_a                   7.955(8)
_cell_length_b                   11.40(1)
_cell_length_c                   3.872(3)
_cell_angle_alpha                98.27(9)
_cell_angle_beta                 91.54(9)
_cell_angle_gamma                98.28(9)
_cell_volume                     343.46
loop_
_atom_site_label
_atom_site_type_symbol
_atom_site_fract_x
_atom_site_fract_y
_atom_site_fract_z
Cu1 Cu 0.0000 0.0000 0.0000
Cl1 Cl -0.1688(4) 0.0794(3) -0.3420(8)
S1 S 0.2536(4) 0.5102(2) 0.2922(8)
S2 S -0.0371(4) 0.3120(2) 0.2597(9)
N1 N 0.182(1) 0.1568(8) 0.044(2)
N2 N 0.444(1) 0.3486(9) 0.034(3)
C1 C 0.158(1) 0.271(1) 0.138(3)
C2 C 0.293(1) 0.3652(9) 0.143(3)
C3 C 0.046(1) 0.4633(9) 0.406(3)
C4 C 0.339(2) 0.140(1) -0.049(3)
C5 C 0.465(2) 0.233(1) -0.061(4)
H1 H 0.3793 0.0663 -0.0444
H2 H 0.5606 0.2247 -0.1016
Cu1_2 Cu 0.0000 1.0000 1.0000
Cl1A Cl 0.1688(4) -0.0794(3) 0.3420(8)
S1A S -0.2536(4) 0.4898(2) 0.7078(8)
S2A S 0.0371(4) 0.6880(2) 0.7403(9)
N1A N -0.182(1) 0.8432(8) 0.956(2)
N1A_2 N -0.182(1) -0.1568(8) -0.044(2)
N2A N -0.444(1) 0.6514(9) 0.966(3)
C1A C -0.158(1) 0.729(1) 0.862(3)
C2A C -0.293(1) 0.6348(9) 0.857(3)
C3A C -0.046(1) 0.5367(9) 0.594(3)
C4A C -0.339(2) 0.860(1) 1.049(3)
C5A C -0.465(2) 0.767(1) 1.061(4)
H1A H -0.3793 0.9337 1.0444
H2A H -0.5606 0.7753 1.1016
loop_
_geom_bond_atom_site_label_1
_geom_bond_atom_site_label_2
_geom_bond_site_symmetry_1
_geom_bond_site_symmetry_2
Cu1 Cl1 1_555 1_555
S1 C2 1_555 1_555
S2 C1 1_555 1_555
N1 Cu1 1_555 1_555
N2 C2 1_555 1_555
C1 N1 1_555 1_555
C2 C1 1_555 1_555
C3 S1 1_555 1_555
C4 N1 1_555 1_555
C5 N2 1_555 1_555
H1 C4 1_555 1_555
H2 C5 1_555 1_555
Cu1_2 N1A 1_555 1_555
Cl1A Cu1 1_555 1_555
S1A C2A 1_555 1_555
S2A C1A 1_555 1_555
N1A C1A 1_555 1_555
N1A_2 Cu1 1_555 1_555
N2A C2A 1_555 1_555
C1A C2A 1_555 1_555
C3A C3 1_555 1_555
C4A N1A 1_555 1_555
C5A N2A 1_555 1_555
H1A C4A 1_555 1_555
H2A C5A 1_555 1_555
S2 C3 1_555 1_555
C4 C5 1_555 1_555
S1A C3A 1_555 1_555
S2A C3A 1_555 1_555
C4A C5A 1_555 1_555

#END
