
#######################################################################
#
#                 Cambridge Crystallographic Data Centre
#                                CCDC 
#
#######################################################################
#
# If this CIF has been generated from an entry in the Cambridge 
# Structural Database, then it will include bibliographic, chemical, 
# crystal, experimental, refinement or atomic coordinate data resulting 
# from the CCDC's data processing and validation procedures.
#
#######################################################################

data_PENXAI
_symmetry_cell_setting           monoclinic
_symmetry_space_group_name_H-M   'C 2/c'
_symmetry_Int_Tables_number      15
_space_group_name_Hall           '-C 2yn'
loop_
_symmetry_equiv_pos_site_id
_symmetry_equiv_pos_as_xyz
1 x,y,z
2 -x,y,1/2-z
3 1/2+x,1/2+y,z
4 1/2-x,1/2+y,1/2-z
5 -x,-y,-z
6 x,-y,1/2+z
7 1/2-x,1/2-y,-z
8 1/2+x,1/2-y,1/2+z
_cell_length_a                   28.065(4)
_cell_length_b                   12.789(2)
_cell_length_c                   13.210(2)
_cell_angle_alpha                90
_cell_angle_beta                 94.47(3)
_cell_angle_gamma                90
_cell_volume                     4726.95
loop_
_atom_site_label
_atom_site_type_symbol
_atom_site_fract_x
_atom_site_fract_y
_atom_site_fract_z
O1 O 0.2034(3) 0.3786(4) 0.9577(5)
O6 O 0.0795(6) 0.1970(12) 0.4122(14)
C14 C 0.0384(16) 0.2357(33) 0.4412(34)
O7 O 0.1486(3) 0.1209(5) 0.9087(5)
C15 C 0.1029(13) 0.0701(23) 0.9088(28)
Cu1 Cu 0.2555(1) 0.1928(1) 0.7406(1)
N1 N 0.3410(3) 0.1498(6) 0.7437(6)
C1 C 0.3621(4) 0.2319(7) 0.8155(8)
N2 N 0.2817(3) 0.2629(5) 0.8687(6)
C2 C 0.3252(4) 0.3139(7) 0.8392(8)
N3 N 0.2817(3) 0.3221(5) 0.6715(6)
C3 C 0.3094(4) 0.3892(6) 0.7475(7)
N4 N 0.2686(3) 0.5572(5) 0.6971(6)
C4 C 0.2786(3) 0.4799(6) 0.7803(7)
N5 N 0.2726(3) 0.6341(5) 0.8905(6)
C5 C 0.3031(4) 0.5425(6) 0.8701(8)
O2 O 0.1261(3) 0.3207(5) 0.8370(5)
O3 O 0.1762(3) 0.2901(5) 0.7168(5)
O4 O 0.2040(3) 0.4246(5) 0.5397(5)
O5 O 0.1612(3) 0.2852(5) 0.4878(5)
C6 C 0.1096(4) 0.3997(6) 0.6746(8)
C7 C 0.1230(4) 0.4195(6) 0.5757(8)
C8 C 0.0960(4) 0.4890(7) 0.5118(8)
C9 C 0.0554(4) 0.5373(8) 0.5454(9)
C10 C 0.0415(4) 0.5165(8) 0.6395(9)
C11 C 0.0680(4) 0.4474(7) 0.7044(8)
C12 C 0.1403(4) 0.3306(7) 0.7471(8)
C13 C 0.1658(4) 0.3724(7) 0.5346(7)
H1 H 0.3471(3) 0.0834(6) 0.7683(6)
H2 H 0.3522(3) 0.1559(6) 0.6804(6)
H3 H 0.3891(4) 0.2664(7) 0.7849(8)
H4 H 0.3748(4) 0.1980(7) 0.8794(8)
H5 H 0.2605(3) 0.3112(5) 0.8904(6)
H6 H 0.2887(3) 0.2148(5) 0.9195(6)
H7 H 0.3387(4) 0.3574(7) 0.8974(8)
H8 H 0.3011(3) 0.3014(5) 0.6223(6)
H9 H 0.2567(3) 0.3600(5) 0.6406(6)
H10 H 0.3384(4) 0.4172(6) 0.7173(7)
H11 H 0.2457(3) 0.5312(5) 0.6499(6)
H12 H 0.2959(3) 0.5702(5) 0.6651(6)
H13 H 0.2476(3) 0.4514(6) 0.8009(7)
H14 H 0.2907(3) 0.6843(5) 0.9254(6)
H15 H 0.2486(3) 0.6139(5) 0.9298(6)
H16 H 0.3072(4) 0.4976(6) 0.9312(8)
H17 H 0.3350(4) 0.5664(6) 0.8531(8)
H18 H 0.1054(4) 0.5032(7) 0.4456(8)
H19 H 0.0374(4) 0.5847(8) 0.5022(9)
H20 H 0.0137(4) 0.5490(8) 0.6616(9)
H21 H 0.0575(4) 0.4326(7) 0.7695(8)
Cu1C Cu 0.2445(1) 0.6928(1) 0.7594(1)
N4C N 0.2314(3) 0.0572(5) 0.8029(6)
N5C N 0.2274(3) 0.1341(5) 0.6095(6)
H11C H 0.2543(3) 0.0312(5) 0.8501(6)
H12C H 0.2041(3) 0.0702(5) 0.8349(6)
H14C H 0.2093(3) 0.1843(5) 0.5746(6)
H15C H 0.2514(3) 0.1139(5) 0.5702(6)
loop_
_geom_bond_atom_site_label_1
_geom_bond_atom_site_label_2
_geom_bond_site_symmetry_1
_geom_bond_site_symmetry_2
Cu1 N1 1_555 1_555
N1 C1 1_555 1_555
C1 C2 1_555 1_555
N2 Cu1 1_555 1_555
C2 N2 1_555 1_555
N3 Cu1 1_555 1_555
C3 C2 1_555 1_555
N4 C4 1_555 1_555
C4 C3 1_555 1_555
N5 C5 1_555 1_555
C5 C4 1_555 1_555
O2 C12 1_555 1_555
O3 Cu1 1_555 1_555
O4 C13 1_555 1_555
O5 C13 1_555 1_555
C6 C7 1_555 1_555
C7 C8 1_555 1_555
C8 C9 1_555 1_555
C9 C10 1_555 1_555
C10 C11 1_555 1_555
C11 C6 1_555 1_555
C12 O3 1_555 1_555
C13 C7 1_555 1_555
O6 C14 1_555 1_555
O7 C15 1_555 1_555
H1 N1 1_555 1_555
H2 N1 1_555 1_555
H3 C1 1_555 1_555
H4 C1 1_555 1_555
H5 N2 1_555 1_555
H6 N2 1_555 1_555
H7 C2 1_555 1_555
H8 N3 1_555 1_555
H9 N3 1_555 1_555
H10 C3 1_555 1_555
H11 N4 1_555 1_555
H12 N4 1_555 1_555
H13 C4 1_555 1_555
H14 N5 1_555 1_555
H15 N5 1_555 1_555
H16 C5 1_555 1_555
H17 C5 1_555 1_555
H18 C8 1_555 1_555
H19 C9 1_555 1_555
H20 C10 1_555 1_555
H21 C11 1_555 1_555
Cu1C N4 1_555 1_555
N4C Cu1 1_555 1_555
N5C Cu1 1_555 1_555
H11C N4C 1_555 1_555
H12C N4C 1_555 1_555
H14C N5C 1_555 1_555
H15C N5C 1_555 1_555
N3 C3 1_555 1_555
N5 Cu1C 1_555 1_555
C6 C12 1_555 1_555

#END
