
#######################################################################
#
#                 Cambridge Crystallographic Data Centre
#                                CCDC 
#
#######################################################################
#
# If this CIF has been generated from an entry in the Cambridge 
# Structural Database, then it will include bibliographic, chemical, 
# crystal, experimental, refinement or atomic coordinate data resulting 
# from the CCDC's data processing and validation procedures.
#
#######################################################################

data_PENYAJ
_symmetry_cell_setting           monoclinic
_symmetry_space_group_name_H-M   'C 2/c'
_symmetry_Int_Tables_number      15
_space_group_name_Hall           '-C 2yn'
loop_
_symmetry_equiv_pos_site_id
_symmetry_equiv_pos_as_xyz
1 x,y,z
2 1/2+x,1/2+y,z
3 -x,y,1/2-z
4 1/2-x,1/2+y,1/2-z
5 -x,-y,-z
6 1/2-x,1/2-y,-z
7 x,-y,1/2+z
8 1/2+x,1/2-y,1/2+z
_cell_length_a                   28.836(3)
_cell_length_b                   5.3256(5)
_cell_length_c                   10.2448(10)
_cell_angle_alpha                90
_cell_angle_beta                 95.051(2)
_cell_angle_gamma                90
_cell_volume                     1567.17
loop_
_atom_site_label
_atom_site_type_symbol
_atom_site_fract_x
_atom_site_fract_y
_atom_site_fract_z
V1 V 0.376458(15) 0.14132(8) 0.74932(4)
P1 P 0.38732(2) 0.34050(12) 1.05018(6)
O1 O 0.37053(7) 0.3764(3) 0.90352(18)
O2 O 0.35397(7) -0.1413(4) 0.86602(19)
H1 H 0.3571 -0.0970 0.9429
O3 O 0.43115(7) 0.1000(4) 0.77295(19)
O4 O 0.36463(7) 0.0973(3) 1.09583(18)
O5 O 0.37233(7) 0.5650(4) 1.12683(18)
C1 C 0.44925(9) 0.3094(5) 1.0651(3)
H2 H 0.4602 0.3004 1.1573
H3 H 0.4575 0.1531 1.0245
C2 C 0.47415(9) 0.5264(5) 1.0021(3)
H4 H 0.4601 0.5527 0.9136
H5 H 0.4702 0.6790 1.0516
F1 F 0.30160(5) 0.1757(3) 0.71758(16)
H11 H 0.3623(14) -0.301(9) 0.870(4)
V1D V 0.623542(15) 0.85868(8) 1.25068(4)
V1F V 0.376458(15) -0.14132(8) 1.24932(4)
V1F_2 V 0.376458(15) 0.85868(8) 1.24932(4)
V1B V 0.623542(15) 1.14132(8) 0.75068(4)
V1B_2 V 0.623542(15) 0.14132(8) 0.75068(4)
P1D P 0.61268(2) 0.65950(12) 0.94982(6)
O1D O 0.62947(7) 0.6236(3) 1.09648(18)
O2D O 0.64603(7) 1.1413(4) 1.13398(19)
H1D H 0.6429 1.0970 1.0571
O3D O 0.56885(7) 0.9000(4) 1.22705(19)
O4D O 0.63537(7) 0.9027(3) 0.90417(18)
O4F O 0.36463(7) -0.0973(3) 0.59583(18)
O4B O 0.63537(7) 1.0973(3) 1.40417(18)
O5D O 0.62767(7) 0.4350(4) 0.87317(18)
O5F O 0.37233(7) 0.4350(4) 0.62683(18)
O5B O 0.62767(7) 0.5650(4) 1.37317(18)
C1D C 0.55075(9) 0.6906(5) 0.9349(3)
H2D H 0.5398 0.6996 0.8427
H3D H 0.5425 0.8469 0.9755
C2D C 0.52585(9) 0.4736(5) 0.9979(3)
H4D H 0.5399 0.4473 1.0864
H5D H 0.5298 0.3210 0.9484
F1D F 0.69840(5) 0.8243(3) 1.28242(16)
H11D H 0.6377(14) 1.301(9) 1.130(4)
N1 N 0.27661(8) 0.6452(4) 0.6646(2)
H6 H 0.2949 0.7789 0.6778
H7 H 0.2924 0.5074 0.6897
H8 H 0.2521 0.6607 0.7111
C3 C 0.26049(9) 0.6261(5) 0.5232(3)
H9 H 0.2374 0.4938 0.5098
H10 H 0.2865 0.5848 0.4733
N1E N 0.22339(8) 0.8548(4) 0.3354(2)
H6E H 0.2051 0.7211 0.3222
H7E H 0.2076 0.9926 0.3103
H8E H 0.2479 0.8393 0.2889
C3E C 0.23951(9) 0.8739(5) 0.4768(3)
H9E H 0.2626 1.0062 0.4902
H10E H 0.2135 0.9152 0.5267
loop_
_geom_bond_atom_site_label_1
_geom_bond_atom_site_label_2
_geom_bond_site_symmetry_1
_geom_bond_site_symmetry_2
V1 O1 1_555 1_555
P1 O1 1_555 1_555
O2 V1 1_555 1_555
H1 O2 1_555 1_555
O3 V1 1_555 1_555
O4 P1 1_555 1_555
O5 P1 1_555 1_555
C1 P1 1_555 1_555
H2 C1 1_555 1_555
H3 C1 1_555 1_555
C2 C1 1_555 1_555
H4 C2 1_555 1_555
H5 C2 1_555 1_555
N1 H6 1_555 1_555
H7 N1 1_555 1_555
H8 N1 1_555 1_555
C3 N1 1_555 1_555
H9 C3 1_555 1_555
H10 C3 1_555 1_555
F1 V1 1_555 1_555
H11 O2 1_555 1_555
V1D O1D 1_555 1_555
V1F O4 1_555 1_555
V1F_2 O5 1_555 1_555
V1B O4D 1_555 1_555
V1B_2 O5D 1_555 1_555
P1D O1D 1_555 1_555
O2D V1D 1_555 1_555
H1D O2D 1_555 1_555
O3D V1D 1_555 1_555
O4D P1D 1_555 1_555
O4F V1 1_555 1_555
O4B V1D 1_555 1_555
O5D P1D 1_555 1_555
O5F V1 1_555 1_555
O5B V1D 1_555 1_555
C1D P1D 1_555 1_555
H2D C1D 1_555 1_555
H3D C1D 1_555 1_555
C2D C2 1_555 1_555
H4D C2D 1_555 1_555
H5D C2D 1_555 1_555
N1E H6E 1_555 1_555
H7E N1E 1_555 1_555
H8E N1E 1_555 1_555
C3E C3 1_555 1_555
H9E C3E 1_555 1_555
H10E C3E 1_555 1_555
F1D V1D 1_555 1_555
H11D O2D 1_555 1_555
C1D C2D 1_555 1_555
N1E C3E 1_555 1_555

#END
