
#######################################################################
#
#                 Cambridge Crystallographic Data Centre
#                                CCDC 
#
#######################################################################
#
# If this CIF has been generated from an entry in the Cambridge 
# Structural Database, then it will include bibliographic, chemical, 
# crystal, experimental, refinement or atomic coordinate data resulting 
# from the CCDC's data processing and validation procedures.
#
#######################################################################

data_PENYUD
_symmetry_cell_setting           monoclinic
_symmetry_space_group_name_H-M   'C 2/c'
_symmetry_Int_Tables_number      15
_space_group_name_Hall           '-C 2yn'
loop_
_symmetry_equiv_pos_site_id
_symmetry_equiv_pos_as_xyz
1 x,y,z
2 1/2+x,1/2+y,z
3 -x,y,1/2-z
4 1/2-x,1/2+y,1/2-z
5 -x,-y,-z
6 1/2-x,1/2-y,-z
7 x,-y,1/2+z
8 1/2+x,1/2-y,1/2+z
_cell_length_a                   13.864(2)
_cell_length_b                   16.701(2)
_cell_length_c                   8.278(1)
_cell_angle_alpha                90
_cell_angle_beta                 104.27(1)
_cell_angle_gamma                90
_cell_volume                     1857.57
loop_
_atom_site_label
_atom_site_type_symbol
_atom_site_fract_x
_atom_site_fract_y
_atom_site_fract_z
Cd1 Cd 0.5000 0.5000 0.5000
N1 N 0.7224(1) 0.6421(1) 0.2607(3)
C1 C 0.7246(2) 0.7223(2) 0.2635(3)
N2 N 0.6705(1) 0.7728(1) 0.3279(3)
C2 C 0.6066(2) 0.7358(1) 0.4019(3)
C3 C 0.5987(2) 0.6524(1) 0.4082(3)
C4 C 0.6560(2) 0.6049(1) 0.3308(3)
S1 S 0.64183(4) 0.50104(4) 0.32061(7)
N3 N 0.5269(1) 0.6335(1) 0.4897(2)
C5 C 0.4970(2) 0.7056(2) 0.5288(3)
N4 N 0.5414(2) 0.7697(1) 0.4804(2)
H1 H 0.774(2) 0.747(1) 0.217(3)
H2 H 0.445(2) 0.712(1) 0.584(3)
Cd1F Cd 0.5000 0.5000 0.0000
Cd1F_2 Cd 0.5000 0.5000 1.0000
N1F N 0.7224(1) 0.3579(1) 0.7607(3)
C1F C 0.7246(2) 0.2777(2) 0.7635(3)
N2F N 0.6705(1) 0.2272(1) 0.8279(3)
C2F C 0.6066(2) 0.2642(1) 0.9019(3)
C3F C 0.5987(2) 0.3476(1) 0.9082(3)
C4F C 0.6560(2) 0.3951(1) 0.8308(3)
S1F S 0.64183(4) 0.49896(4) 0.82061(7)
S1D S 0.35817(4) 0.49896(4) 0.67939(7)
S1B S 0.35817(4) 0.50104(4) 0.17939(7)
N3F N 0.5269(1) 0.3665(1) 0.9897(2)
N3D N 0.4731(1) 0.3665(1) 0.5103(2)
C5F C 0.4970(2) 0.2944(2) 1.0288(3)
N4F N 0.5414(2) 0.2303(1) 0.9804(2)
H1F H 0.774(2) 0.253(1) 0.717(3)
H2F H 0.445(2) 0.288(1) 1.084(3)
Ca1 Ca 0.5000 1.00545(4) 0.2500
O1 O 0.6487(1) 0.9281(1) 0.2302(2)
O2 O 0.3745(2) 1.0957(1) 0.1146(2)
O3 O 0.4400(1) 1.0715(1) 0.4798(2)
H3 H 0.696(2) 0.949(2) 0.246(3)
H4 H 0.659(2) 0.883(2) 0.262(3)
H5 H 0.360(2) 1.095(2) 0.015(3)
H6 H 0.326(2) 1.106(1) 0.146(3)
H7 H 0.385(2) 1.071(2) 0.447(3)
H8 H 0.458(2) 1.117(2) 0.489(3)
Ca1F Ca 0.5000 0.99455(4) 0.7500
Ca1F_2 Ca 0.5000 0.99455(4) -0.2500
O1B O 0.3513(1) 0.9281(1) 0.2698(2)
O2B O 0.6255(2) 1.0957(1) 0.3854(2)
O3F O 0.4400(1) 0.9285(1) -0.0202(2)
O3D O 0.5600(1) 0.9285(1) 0.5202(2)
O3B O 0.5600(1) 1.0715(1) 0.0202(2)
H3B H 0.304(2) 0.949(2) 0.254(3)
H4B H 0.341(2) 0.883(2) 0.238(3)
H5B H 0.640(2) 1.095(2) 0.485(3)
H6B H 0.674(2) 1.106(1) 0.354(3)
H7F H 0.385(2) 0.929(2) -0.053(3)
H7D H 0.615(2) 0.929(2) 0.553(3)
H7B H 0.615(2) 1.071(2) 0.053(3)
H8F H 0.458(2) 0.883(2) -0.011(3)
H8D H 0.542(2) 0.883(2) 0.511(3)
H8B H 0.542(2) 1.117(2) 0.011(3)
loop_
_geom_bond_atom_site_label_1
_geom_bond_atom_site_label_2
_geom_bond_site_symmetry_1
_geom_bond_site_symmetry_2
Cd1 S1 1_555 1_555
N1 C1 1_555 1_555
C1 N2 1_555 1_555
N2 C2 1_555 1_555
C2 C3 1_555 1_555
C3 C4 1_555 1_555
C4 N1 1_555 1_555
S1 C4 1_555 1_555
N3 Cd1 1_555 1_555
C5 N3 1_555 1_555
N4 C2 1_555 1_555
Ca1 O1 1_555 1_555
O1 H3 1_555 1_555
O2 Ca1 1_555 1_555
O3 Ca1 1_555 1_555
H1 C1 1_555 1_555
H2 C5 1_555 1_555
H4 O1 1_555 1_555
H5 O2 1_555 1_555
H6 O2 1_555 1_555
H7 O3 1_555 1_555
H8 O3 1_555 1_555
Cd1F S1 1_555 1_555
Cd1F_2 S1F 1_555 1_555
N1F C1F 1_555 1_555
C1F N2F 1_555 1_555
N2F C2F 1_555 1_555
C2F C3F 1_555 1_555
C3F C4F 1_555 1_555
C4F N1F 1_555 1_555
S1F Cd1 1_555 1_555
S1D Cd1 1_555 1_555
S1B Cd1 1_555 1_555
N3F Cd1F_2 1_555 1_555
N3D Cd1 1_555 1_555
C5F N3F 1_555 1_555
N4F C2F 1_555 1_555
Ca1F O3 1_555 1_555
Ca1F_2 O3F 1_555 1_555
O1B Ca1 1_555 1_555
O2B Ca1 1_555 1_555
O3F Ca1 1_555 1_555
O3D Ca1 1_555 1_555
O3B Ca1 1_555 1_555
H1F C1F 1_555 1_555
H2F C5F 1_555 1_555
H3B O1B 1_555 1_555
H4B O1B 1_555 1_555
H5B O2B 1_555 1_555
H6B O2B 1_555 1_555
H7F O3F 1_555 1_555
H7D O3D 1_555 1_555
H7B O3B 1_555 1_555
H8F O3F 1_555 1_555
H8D O3D 1_555 1_555
H8B O3B 1_555 1_555
C3 N3 1_555 1_555
C5 N4 1_555 1_555
Cd1F S1B 1_555 1_555
Cd1F_2 S1D 1_555 1_555
C3F N3F 1_555 1_555
C4F S1F 1_555 1_555
C5F N4F 1_555 1_555
Ca1F O3D 1_555 1_555
Ca1F_2 O3B 1_555 1_555

#END
