
#######################################################################
#
#                 Cambridge Crystallographic Data Centre
#                                CCDC 
#
#######################################################################
#
# If this CIF has been generated from an entry in the Cambridge 
# Structural Database, then it will include bibliographic, chemical, 
# crystal, experimental, refinement or atomic coordinate data resulting 
# from the CCDC's data processing and validation procedures.
#
#######################################################################

data_PENZUF
_symmetry_cell_setting           orthorhombic
_symmetry_space_group_name_H-M   'C m c m'
_symmetry_Int_Tables_number      63
_space_group_name_Hall           '-C 2n 2'
loop_
_symmetry_equiv_pos_site_id
_symmetry_equiv_pos_as_xyz
1 x,y,z
2 -x,-y,1/2+z
3 -x,y,1/2-z
4 x,-y,-z
5 1/2+x,1/2+y,z
6 1/2-x,1/2-y,1/2+z
7 1/2-x,1/2+y,1/2-z
8 1/2+x,1/2-y,-z
9 -x,-y,-z
10 x,y,1/2-z
11 x,-y,1/2+z
12 -x,y,z
13 1/2-x,1/2-y,-z
14 1/2+x,1/2+y,1/2-z
15 1/2+x,1/2-y,1/2+z
16 1/2-x,1/2+y,z
_cell_length_a                   11.7549(8)
_cell_length_b                   11.9619(8)
_cell_length_c                   7.8690(6)
_cell_angle_alpha                90
_cell_angle_beta                 90
_cell_angle_gamma                90
_cell_volume                     1106.47
loop_
_atom_site_label
_atom_site_type_symbol
_atom_site_fract_x
_atom_site_fract_y
_atom_site_fract_z
Cd1 Cd 0.5000 0.48906(2) 0.2500
Br1 Br 0.5000 0.33898(2) -0.00780(4)
N1 N 0.7021(2) 0.50009(17) 0.2500
N2 N 0.7611(2) 0.4047(2) 0.2500
C1 C 0.7570(3) 0.5969(2) 0.2500
H1 H 0.7136 0.6630 0.2500
C2 C 0.8738(3) 0.6065(2) 0.2500
H2 H 0.9092 0.6769 0.2500
C3 C 0.9377(2) 0.5090(2) 0.2500
C4 C 0.8730(3) 0.4094(2) 0.2500
H3 H 0.9129 0.3413 0.2500
Cd1_2 Cd 1.5000 0.48906(2) 0.2500
Cd1A Cd 0.5000 0.51094(2) -0.2500
Cd1A_2 Cd 0.5000 0.51094(2) 0.7500
Br1B Br 0.5000 0.33898(2) 0.50780(4)
Br1A Br 0.5000 0.66102(2) 0.49220(4)
Br1C Br 0.5000 0.66102(2) 0.00780(4)
N1B N 1.2979(2) 0.50009(17) 0.2500
N1B_2 N 0.2979(2) 0.50009(17) 0.2500
N2B N 1.2389(2) 0.4047(2) 0.2500
C1B C 1.2430(3) 0.5969(2) 0.2500
H1B H 1.2864 0.6630 0.2500
C2B C 1.1262(3) 0.6065(2) 0.2500
H2B H 1.0908 0.6769 0.2500
C3B C 1.0623(2) 0.5090(2) 0.2500
C4B C 1.1270(3) 0.4094(2) 0.2500
H3B H 1.0871 0.3413 0.2500
loop_
_geom_bond_atom_site_label_1
_geom_bond_atom_site_label_2
_geom_bond_site_symmetry_1
_geom_bond_site_symmetry_2
Cd1 Br1 1_555 1_555
Br1 Cd1A 1_555 1_555
N1 Cd1 1_555 1_555
N2 N1 1_555 1_555
C1 N1 1_555 1_555
H1 C1 1_555 1_555
C2 C1 1_555 1_555
H2 C2 1_555 1_555
C3 C2 1_555 1_555
C4 N2 1_555 1_555
H3 C4 1_555 1_555
Cd1_2 N1B 1_555 1_555
Cd1A Br1C 1_555 1_555
Cd1A_2 Br1B 1_555 1_555
Br1B Cd1 1_555 1_555
Br1A Cd1 1_555 1_555
Br1C Cd1 1_555 1_555
N1B N2B 1_555 1_555
N1B_2 Cd1 1_555 1_555
N2B C4B 1_555 1_555
C1B N1B 1_555 1_555
H1B C1B 1_555 1_555
C2B C1B 1_555 1_555
H2B C2B 1_555 1_555
C3B C3 1_555 1_555
C4B C3B 1_555 1_555
H3B C4B 1_555 1_555
C3 C4 1_555 1_555
Cd1A_2 Br1A 1_555 1_555
C2B C3B 1_555 1_555

#END
