
#######################################################################
#
#                 Cambridge Crystallographic Data Centre
#                                CCDC 
#
#######################################################################
#
# If this CIF has been generated from an entry in the Cambridge 
# Structural Database, then it will include bibliographic, chemical, 
# crystal, experimental, refinement or atomic coordinate data resulting 
# from the CCDC's data processing and validation procedures.
#
#######################################################################

data_PEPBAP
_symmetry_cell_setting           monoclinic
_symmetry_space_group_name_H-M   'P 21/c'
_symmetry_Int_Tables_number      14
_space_group_name_Hall           '-P 2ybc'
loop_
_symmetry_equiv_pos_site_id
_symmetry_equiv_pos_as_xyz
1 x,y,z
2 -x,1/2+y,1/2-z
3 -x,-y,-z
4 x,1/2-y,1/2+z
_cell_length_a                   8.0106(6)
_cell_length_b                   14.3621(13)
_cell_length_c                   7.6850(6)
_cell_angle_alpha                90
_cell_angle_beta                 115.855(8)
_cell_angle_gamma                90
_cell_volume                     795.649
loop_
_atom_site_label
_atom_site_type_symbol
_atom_site_fract_x
_atom_site_fract_y
_atom_site_fract_z
Cd1 Cd -0.02645(3) 0.237346(13) 0.08695(3)
I1 I -0.00055(3) 0.400707(11) 0.32771(3)
I2 I -0.27868(3) 0.157754(13) 0.23005(3)
N1 N 0.2386(3) 0.18598(15) 0.5499(3)
N2 N 0.2208(3) 0.16096(14) 0.3743(4)
C1 C 0.3685(4) 0.14507(18) 0.7044(4)
H1 H 0.3874 0.1668 0.8270
C2 C 0.4787(4) 0.07162(19) 0.6957(4)
H2 H 0.5686 0.0442 0.8088
C3 C 0.4510(3) 0.04078(16) 0.5152(4)
C4 C 0.3221(4) 0.09249(17) 0.3565(4)
H3 H 0.3080 0.0772 0.2319
Cd1B Cd 1.02645(3) -0.237346(13) 0.91305(3)
Cd1A Cd 1.02645(3) -0.262654(13) 0.41305(3)
Cd1C Cd -0.02645(3) 0.262654(13) 0.58695(3)
I1B I 1.00055(3) -0.400707(11) 0.67229(3)
I1A I 1.00055(3) -0.099293(11) 1.17229(3)
I1C I -0.00055(3) 0.099293(11) -0.17229(3)
I2B I 1.27868(3) -0.157754(13) 0.76995(3)
I2A I 1.27868(3) -0.342246(13) 1.26995(3)
I2C I -0.27868(3) 0.342246(13) -0.26995(3)
N1B N 0.7614(3) -0.18598(15) 0.4501(3)
N1A N 0.7614(3) -0.31402(15) 0.9501(3)
N1C N 0.2386(3) 0.31402(15) 0.0499(3)
N2B N 0.7792(3) -0.16096(14) 0.6257(4)
C1B C 0.6315(4) -0.14507(18) 0.2956(4)
H1B H 0.6126 -0.1668 0.1730
C2B C 0.5213(4) -0.07162(19) 0.3043(4)
H2B H 0.4314 -0.0442 0.1912
C3B C 0.5490(3) -0.04078(16) 0.4848(4)
C4B C 0.6779(4) -0.09249(17) 0.6435(4)
H3B H 0.6920 -0.0772 0.7681
loop_
_geom_bond_atom_site_label_1
_geom_bond_atom_site_label_2
_geom_bond_site_symmetry_1
_geom_bond_site_symmetry_2
Cd1 I1 1_555 1_555
I1 Cd1C 1_555 1_555
I2 Cd1 1_555 1_555
N1 N2 1_555 1_555
N2 Cd1 1_555 1_555
C1 N1 1_555 1_555
H1 C1 1_555 1_555
C2 C1 1_555 1_555
H2 C2 1_555 1_555
C3 C2 1_555 1_555
C4 N2 1_555 1_555
H3 C4 1_555 1_555
Cd1B I1B 1_555 1_555
Cd1A I1B 1_555 1_555
Cd1C I2 1_555 1_555
I1A Cd1B 1_555 1_555
I1C Cd1 1_555 1_555
I2B Cd1B 1_555 1_555
I2A Cd1B 1_555 1_555
I2C Cd1 1_555 1_555
N1B Cd1A 1_555 1_555
N1A Cd1B 1_555 1_555
N1C Cd1 1_555 1_555
N2B Cd1B 1_555 1_555
C1B N1B 1_555 1_555
H1B C1B 1_555 1_555
C2B C1B 1_555 1_555
H2B C2B 1_555 1_555
C3B C3 1_555 1_555
C4B N2B 1_555 1_555
H3B C4B 1_555 1_555
N1 Cd1C 1_555 1_555
C3 C4 1_555 1_555
Cd1A I2B 1_555 1_555
N1B N2B 1_555 1_555
C2B C3B 1_555 1_555
C3B C4B 1_555 1_555

#END
