
#######################################################################
#
#                 Cambridge Crystallographic Data Centre
#                                CCDC 
#
#######################################################################
#
# If this CIF has been generated from an entry in the Cambridge 
# Structural Database, then it will include bibliographic, chemical, 
# crystal, experimental, refinement or atomic coordinate data resulting 
# from the CCDC's data processing and validation procedures.
#
#######################################################################

data_PEPBUI
_symmetry_cell_setting           orthorhombic
_symmetry_space_group_name_H-M   'P b c b'
_symmetry_Int_Tables_number      54
_space_group_name_Hall           '-P 2bc 2b'
loop_
_symmetry_equiv_pos_site_id
_symmetry_equiv_pos_as_xyz
1 x,y,z
2 x,1/2-y,-z
3 -x,y,1/2-z
4 -x,1/2-y,1/2+z
5 -x,-y,-z
6 -x,1/2+y,z
7 x,-y,1/2+z
8 x,1/2+y,1/2-z
_cell_length_a                   10.9722(4)
_cell_length_b                   21.5961(7)
_cell_length_c                   28.0216(8)
_cell_angle_alpha                90
_cell_angle_beta                 90
_cell_angle_gamma                90
_cell_volume                     6639.91
loop_
_atom_site_label
_atom_site_type_symbol
_atom_site_fract_x
_atom_site_fract_y
_atom_site_fract_z
C11 C 1.038(2) 0.7907(12) 0.2129(9)
H9 H 1.0654 0.7694 0.1861
C12 C 1.042(2) 0.8524(11) 0.2113(9)
H10 H 1.0711 0.8729 0.1845
C13 C 1.00000 0.8846(15) 0.25000
C14 C 1.00000 0.953(2) 0.25000
C15 C 0.987(3) 0.9883(13) 0.2085(10)
H11 H 0.978 0.9677 0.1796
C16 C 0.986(3) 1.0523(15) 0.2084(12)
H12 H 0.9766 1.0735 0.1797
Cu2 Cu 1.00000 0.6712(2) 0.25000
N3 N 1.00000 0.7570(15) 0.25000
N4 N 1.00000 1.0849(19) 0.25000
C11B C 0.962(2) 0.7907(12) 0.2871(9)
H9B H 0.9346 0.7694 0.3139
C12B C 0.958(2) 0.8524(11) 0.2887(9)
H10B H 0.9289 0.8729 0.3155
C15B C 1.013(3) 0.9883(13) 0.2915(10)
H11B H 1.022 0.9677 0.3204
C16B C 1.014(3) 1.0523(15) 0.2916(12)
H12B H 1.0234 1.0735 0.3203
Cu2E Cu 1.00000 1.1712(2) 0.25000
N4E N 1.00000 0.5849(19) 0.25000
O1 O 0.197(5) 0.75000 0.00000
O2 O 0.4531(18) 0.5893(9) -0.1046(6)
O3 O 0.451(2) 0.6780(10) 0.1505(7)
O4 O 0.686(2) 0.5162(8) 0.0452(10)
O5 O 0.924(2) 0.5915(10) -0.1034(6)
O6 O 0.926(2) 0.8245(9) -0.1514(7)
O7 O 0.395(3) 0.6743(9) -0.0366(9)
O8 O 0.531(3) 0.7129(8) -0.1087(9)
O9 O 0.396(2) 0.7058(10) 0.0580(9)
O10 O 0.5707(18) 0.5928(16) -0.0165(7)
O11 O 0.688(2) 0.6286(14) -0.0924(7)
O12 O 0.5647(18) 0.6218(10) 0.0755(8)
O13 O 0.808(2) 0.5950(15) -0.0164(7)
O14 O 0.688(2) 0.7026(9) 0.1260(8)
O15 O 0.809(2) 0.6227(11) 0.0749(9)
O16 O 0.980(3) 0.6746(9) -0.0329(9)
O17 O 0.853(2) 0.7130(10) -0.1078(9)
O18 O 0.985(3) 0.7949(9) -0.0600(10)
O19 O 0.691(3) 0.6783(13) -0.0196(10)
O20 O 0.570(3) 0.7395(14) -0.0372(11)
O21 O 0.686(3) 0.7040(12) 0.0423(9)
O22 O 0.811(3) 0.7399(13) -0.0345(10)
Si1 Si 0.6871(8) 0.75000 0.00000
Cu3 Cu 0.3705(2) 0.75000 0.00000
W2 W 0.52435(11) 0.64309(5) -0.06980(4)
W3 W 0.52470(9) 0.70100(5) 0.10107(3)
W4 W 0.68881(10) 0.59256(4) 0.03136(3)
W5 W 0.85116(9) 0.64285(5) -0.07022(4)
W6 W 0.85225(10) 0.80021(5) -0.10157(4)
W7 W 0.00968(19) 0.75000 0.00000
O2A O 0.4531(18) 0.9107(9) 0.1046(6)
O3A O 0.451(2) 0.8220(10) -0.1505(7)
O4A O 0.686(2) 0.9838(8) -0.0452(10)
O5A O 0.924(2) 0.9085(10) 0.1034(6)
O6A O 0.926(2) 0.6755(9) 0.1514(7)
O7A O 0.395(3) 0.8257(9) 0.0366(9)
O8A O 0.531(3) 0.7871(8) 0.1087(9)
O9A O 0.396(2) 0.7942(10) -0.0580(9)
O10A O 0.5707(18) 0.9072(16) 0.0165(7)
O11A O 0.688(2) 0.8714(14) 0.0924(7)
O12A O 0.5647(18) 0.8782(10) -0.0755(8)
O13A O 0.808(2) 0.9050(15) 0.0164(7)
O14A O 0.688(2) 0.7974(9) -0.1260(8)
O15A O 0.809(2) 0.8773(11) -0.0749(9)
O16_2 O -0.020(3) 0.6746(9) -0.0329(9)
O16A O -0.020(3) 0.8254(9) 0.0329(9)
O16A_2 O 0.980(3) 0.8254(9) 0.0329(9)
O17A O 0.853(2) 0.7870(10) 0.1078(9)
O18A O -0.015(3) 0.7051(9) 0.0600(10)
O18_2 O -0.015(3) 0.7949(9) -0.0600(10)
O18A_2 O 0.985(3) 0.7051(9) 0.0600(10)
O19A O 0.691(3) 0.8217(13) 0.0196(10)
O20A O 0.570(3) 0.7605(14) 0.0372(11)
O21A O 0.686(3) 0.7960(12) -0.0423(9)
O22A O 0.811(3) 0.7601(13) 0.0345(10)
O22_2 O -0.189(3) 0.7399(13) -0.0345(10)
O22A_2 O -0.189(3) 0.7601(13) 0.0345(10)
W2A W 0.52435(11) 0.85691(5) 0.06980(4)
W3A W 0.52470(9) 0.79900(5) -0.10107(3)
W4A W 0.68881(10) 0.90744(4) -0.03136(3)
W5A W 0.85116(9) 0.85715(5) 0.07022(4)
W5_2 W -0.14884(9) 0.64285(5) -0.07022(4)
W6A W 0.85225(10) 0.69979(5) 0.10157(4)
W6A_2 W -0.14775(10) 0.69979(5) 0.10157(4)
W7_2 W 1.00968(19) 0.75000 0.00000
O23 O 0.380(4) 0.523(2) 0.1034(17)
O24 O 0.188(4) 0.657(2) 0.1249(15)
O25 O 1.194(5) 0.797(2) 0.1161(17)
O26 O 1.183(5) 0.912(2) 0.0916(18)
O27 O 0.888(7) 0.433(4) -0.003(3)
K1 K 0.3322(13) 0.5772(6) 0.0302(5)
K2 K 1.024(4) 1.0093(18) 0.0542(13)
C1 C 0.676(2) 0.5661(12) 0.1905(9)
H1 H 0.6805 0.5817 0.1597
C2 C 0.679(3) 0.5027(13) 0.1976(10)
H2 H 0.6928 0.4775 0.1711
C3 C 0.664(2) 0.4754(11) 0.2400(8)
C4 C 0.657(3) 0.5167(16) 0.2768(13)
H3 H 0.6525 0.5015 0.3078
C5 C 0.656(3) 0.5794(14) 0.2700(11)
H4 H 0.647 0.6051 0.2964
C6 C 0.638(2) 0.3034(12) 0.2222(9)
H5 H 0.6191 0.2763 0.1974
C7 C 0.639(2) 0.3658(11) 0.2120(9)
H6 H 0.6213 0.3795 0.1813
C8 C 0.6656(19) 0.4072(9) 0.2468(8)
C9 C 0.695(2) 0.3828(11) 0.2931(9)
H7 H 0.7139 0.4094 0.3181
C10 C 0.695(3) 0.3186(11) 0.3002(9)
H8 H 0.7184 0.3031 0.3298
Cu1 Cu 0.6671(4) 0.69253(15) 0.22349(14)
N1 N 0.668(2) 0.6050(12) 0.2272(9)
N2 N 0.6620(19) 0.2783(9) 0.2656(7)
C1G C 0.676(2) 1.0661(12) 0.3095(9)
H1G H 0.6805 1.0817 0.3403
C2G C 0.679(3) 1.0027(13) 0.3024(10)
H2G H 0.6928 0.9775 0.3289
C3G C 0.664(2) 0.9754(11) 0.2600(8)
C4G C 0.657(3) 1.0167(16) 0.2232(13)
H3G H 0.6525 1.0015 0.1922
C5G C 0.656(3) 1.0794(14) 0.2300(11)
H4G H 0.647 1.1051 0.2036
C6G C 0.638(2) 0.8034(12) 0.2778(9)
H5G H 0.6191 0.7763 0.3026
C7G C 0.639(2) 0.8658(11) 0.2880(9)
H6G H 0.6213 0.8795 0.3187
C8G C 0.6656(19) 0.9072(9) 0.2532(8)
C9G C 0.695(2) 0.8828(11) 0.2069(9)
H7G H 0.7139 0.9094 0.1819
C10G C 0.695(3) 0.8186(11) 0.1998(9)
H8G H 0.7184 0.8031 0.1702
Cu1G Cu 0.6671(4) 1.19253(15) 0.27651(14)
Cu1G_2 Cu 0.6671(4) 0.19253(15) 0.27651(14)
N1G N 0.668(2) 1.1050(12) 0.2728(9)
N2G N 0.6620(19) 0.7783(9) 0.2344(7)
N2_2 N 0.6620(19) 1.2783(9) 0.2656(7)
W1? W 0.3705(2) 0.75000 0.00000
Cu4? Cu 1.00968(19) 0.75000 0.00000
O28? O 1.024(4) 1.0093(18) 0.0542(13)
loop_
_geom_bond_atom_site_label_1
_geom_bond_atom_site_label_2
_geom_bond_site_symmetry_1
_geom_bond_site_symmetry_2
C1 H1 1_555 1_555
C2 C1 1_555 1_555
H2 C2 1_555 1_555
C3 C2 1_555 1_555
C4 C3 1_555 1_555
H3 C4 1_555 1_555
C5 C4 1_555 1_555
H4 C5 1_555 1_555
C6 H5 1_555 1_555
C7 C6 1_555 1_555
H6 C7 1_555 1_555
C8 C3 1_555 1_555
C9 C8 1_555 1_555
H7 C9 1_555 1_555
C10 C9 1_555 1_555
H8 C10 1_555 1_555
C11 H9 1_555 1_555
C12 C11 1_555 1_555
H10 C12 1_555 1_555
C13 C12 1_555 1_555
C14 C13 1_555 1_555
C15 C14 1_555 1_555
H11 C15 1_555 1_555
C16 C15 1_555 1_555
H12 C16 1_555 1_555
Cu1 N1 1_555 1_555
Cu2 N3 1_555 1_555
N1 C1 1_555 1_555
N2 C6 1_555 1_555
N3 C11 1_555 1_555
N4 C16 1_555 1_555
O1 Cu3 1_555 1_555
O2 W2 1_555 1_555
O3 W3 1_555 1_555
O4 W4 1_555 1_555
O5 W5 1_555 1_555
O6 W6 1_555 1_555
O7 Cu3 1_555 1_555
O8 W2 1_555 1_555
O9 Cu3 1_555 1_555
O10 W2 1_555 1_555
O11 W2 1_555 1_555
O12 W3 1_555 1_555
O13 W4 1_555 1_555
O14 W3 1_555 1_555
O15 W4 1_555 1_555
O16 W5 1_555 1_555
O17 W5 1_555 1_555
O18 W6 1_555 1_555
O19 O20 1_555 1_555
O20 Si1 1_555 1_555
O21 O19 1_555 1_555
O22 O19 1_555 1_555
Si1 O19 1_555 1_555
Cu3 O20 1_555 1_555
W2 O7 1_555 1_555
W3 O9 1_555 1_555
W4 O10 1_555 1_555
W5 O11 1_555 1_555
W6 O17 1_555 1_555
W7 O1 1_555 1_555
C1G H1G 1_555 1_555
C2G C1G 1_555 1_555
H2G C2G 1_555 1_555
C3G C2G 1_555 1_555
C4G C3G 1_555 1_555
H3G C4G 1_555 1_555
C5G C4G 1_555 1_555
H4G C5G 1_555 1_555
C6G H5G 1_555 1_555
C7G C6G 1_555 1_555
H6G C7G 1_555 1_555
C8G C3G 1_555 1_555
C9G C8G 1_555 1_555
H7G C9G 1_555 1_555
C10G C9G 1_555 1_555
H8G C10G 1_555 1_555
C11B N3 1_555 1_555
H9B C11B 1_555 1_555
C12B C13 1_555 1_555
H10B C12B 1_555 1_555
C15B C14 1_555 1_555
H11B C15B 1_555 1_555
C16B N4 1_555 1_555
H12B C16B 1_555 1_555
Cu1G N1G 1_555 1_555
Cu1G_2 N2 1_555 1_555
Cu2E N4 1_555 1_555
N1G C1G 1_555 1_555
N2G Cu1 1_555 1_555
N2_2 Cu1G 1_555 1_555
N4E Cu2 1_555 1_555
O2A W2A 1_555 1_555
O3A W3A 1_555 1_555
O4A W4A 1_555 1_555
O5A W5A 1_555 1_555
O6A W6A 1_555 1_555
O7A Cu3 1_555 1_555
O8A W3 1_555 1_555
O9A Cu3 1_555 1_555
O10A W2A 1_555 1_555
O11A W2A 1_555 1_555
O12A W3A 1_555 1_555
O13A W4A 1_555 1_555
O14A W6 1_555 1_555
O15A W6 1_555 1_555
O16_2 W7 1_555 1_555
O16A W7 1_555 1_555
O16A_2 W5A 1_555 1_555
O17A W5A 1_555 1_555
O18A W7 1_555 1_555
O18_2 W7 1_555 1_555
O18A_2 W6A 1_555 1_555
O19A Si1 1_555 1_555
O20A O21 1_555 1_555
O21A O20 1_555 1_555
O22A O21 1_555 1_555
O22_2 W7 1_555 1_555
O22A_2 W7 1_555 1_555
W2A O7A 1_555 1_555
W3A O8 1_555 1_555
W4A O10A 1_555 1_555
W5A O11A 1_555 1_555
W5_2 O16_2 1_555 1_555
W6A O14 1_555 1_555
W6A_2 O18A 1_555 1_555
W7_2 O16 1_555 1_555
C5 N1 1_555 1_555
C7 C8 1_555 1_555
C10 N2 1_555 1_555
O12 W4 1_555 1_555
O13 W5 1_555 1_555
O15 W6A 1_555 1_555
O18 W7_2 1_555 1_555
O19 W4 1_555 1_555
O19 W5 1_555 1_555
O20 W2 1_555 1_555
O20 W3A 1_555 1_555
O21 Si1 1_555 1_555
O22 Si1 1_555 1_555
O22 W5 1_555 1_555
O22 W6 1_555 1_555
O22 O21A 1_555 1_555
O22 O22A 1_555 1_555
O22 W7_2 1_555 1_555
Si1 O20A 1_555 1_555
Si1 O21A 1_555 1_555
Si1 O22A 1_555 1_555
Cu3 O20A 1_555 1_555
W3 O20A 1_555 1_555
C5G N1G 1_555 1_555
C6G N2G 1_555 1_555
C7G C8G 1_555 1_555
C10G N2G 1_555 1_555
C11B C12B 1_555 1_555
C15B C16B 1_555 1_555
O8A W2A 1_555 1_555
O9A W3A 1_555 1_555
O12A W4A 1_555 1_555
O13A W5A 1_555 1_555
O14A W3A 1_555 1_555
O15A W4A 1_555 1_555
O16A_2 W7_2 1_555 1_555
O17A W6A 1_555 1_555
O18A_2 W7_2 1_555 1_555
O19A O20A 1_555 1_555
O19A O21A 1_555 1_555
O19A O22A 1_555 1_555
O19A W4A 1_555 1_555
O19A W5A 1_555 1_555
O20A W2A 1_555 1_555
O22A W5A 1_555 1_555
O22A W6A 1_555 1_555
O22A W7_2 1_555 1_555
O22_2 O22A_2 1_555 1_555
O22_2 W5_2 1_555 1_555
O22A_2 W6A_2 1_555 1_555

#END
