
#######################################################################
#
#                 Cambridge Crystallographic Data Centre
#                                CCDC 
#
#######################################################################
#
# If this CIF has been generated from an entry in the Cambridge 
# Structural Database, then it will include bibliographic, chemical, 
# crystal, experimental, refinement or atomic coordinate data resulting 
# from the CCDC's data processing and validation procedures.
#
#######################################################################

data_PEPBOD
_symmetry_cell_setting           monoclinic
_symmetry_space_group_name_H-M   'P 21/c'
_symmetry_Int_Tables_number      14
_space_group_name_Hall           '-P 2ybc'
loop_
_symmetry_equiv_pos_site_id
_symmetry_equiv_pos_as_xyz
1 x,y,z
2 -x,1/2+y,1/2-z
3 -x,-y,-z
4 x,1/2-y,1/2+z
_cell_length_a                   11.649(2)
_cell_length_b                   12.702(3)
_cell_length_c                   17.720(3)
_cell_angle_alpha                90
_cell_angle_beta                 95.41(3)
_cell_angle_gamma                90
_cell_volume                     2610.27
loop_
_atom_site_label
_atom_site_type_symbol
_atom_site_fract_x
_atom_site_fract_y
_atom_site_fract_z
Cd1 Cd 0.148651(15) 0.084141(15) -0.006270(10)
O1 O 0.0432(2) 0.2159(2) -0.05515(12)
O2 O 0.16365(19) 0.18151(19) -0.14065(13)
O3 O 0.1001(2) 0.3884(2) -0.38791(12)
O4 O -0.0744(2) 0.4553(2) -0.41600(12)
O5 O -0.2578(4) 0.5788(4) -0.1894(2)
O6 O -0.2340(3) 0.4936(2) -0.08812(16)
N1 N -0.2109(2) 0.5114(2) -0.15181(16)
N2 N 0.32942(18) 0.15943(18) 0.02530(12)
N3 N 0.27478(18) -0.04421(18) 0.04684(12)
C1 C 0.0202(2) 0.3138(2) -0.16833(15)
C2 C 0.0421(2) 0.3283(2) -0.24369(15)
H1 H 0.0996 0.2891 -0.2635
C3 C -0.0208(2) 0.4005(2) -0.28966(14)
C4 C -0.1051(2) 0.4607(2) -0.26012(15)
H2 H -0.1481 0.5094 -0.2901
C5 C -0.1237(2) 0.4466(2) -0.18479(16)
C6 C -0.0634(2) 0.3743(2) -0.13866(15)
H3 H -0.0787 0.3662 -0.0884
C7 C 0.0820(2) 0.2307(2) -0.11895(15)
C8 C 0.0039(3) 0.4166(2) -0.37151(15)
C9 C 0.3531(2) 0.2607(2) 0.01753(16)
H4 H 0.2969 0.3039 -0.0070
C10 C 0.4586(3) 0.3053(2) 0.04457(17)
H5 H 0.4707 0.3771 0.0388
C11 C 0.5444(2) 0.2439(2) 0.07952(14)
C12 C 0.5229(2) 0.1341(2) 0.08641(14)
C13 C 0.6076(2) 0.0599(2) 0.11655(15)
H6 H 0.6829 0.0825 0.1290
C14 C 0.5806(2) -0.0422(2) 0.12734(15)
H7 H 0.6379 -0.0883 0.1468
C15 C 0.4653(2) -0.0809(2) 0.10943(14)
C16 C 0.4296(2) -0.1856(2) 0.12536(14)
C17 C 0.3185(2) -0.2136(2) 0.09956(17)
H8 H 0.2924 -0.2811 0.1089
C18 C 0.2445(2) -0.1424(2) 0.05964(16)
H9 H 0.1712 -0.1648 0.0413
C19 C 0.4126(2) 0.0970(2) 0.06035(13)
C20 C 0.3833(2) -0.0128(2) 0.07203(13)
C21 C 0.6550(2) 0.2933(2) 0.11046(16)
C22 C 0.7119(3) 0.3626(3) 0.06649(18)
H10 H 0.6827 0.3762 0.0168
C23 C 0.8125(3) 0.4117(3) 0.0964(2)
H11 H 0.8513 0.4570 0.0664
C24 C 0.8551(3) 0.3935(3) 0.1704(2)
H12 H 0.9228 0.4263 0.1901
C25 C 0.7978(3) 0.3272(3) 0.21499(19)
H13 H 0.8258 0.3164 0.2653
C26 C 0.6989(2) 0.2764(2) 0.18587(16)
H14 H 0.6612 0.2308 0.2163
C27 C 0.5054(2) -0.2633(2) 0.16826(15)
C28 C 0.5751(2) -0.2342(2) 0.23317(15)
H15 H 0.5741 -0.1651 0.2506
C29 C 0.6459(3) -0.3080(3) 0.27183(17)
H16 H 0.6930 -0.2877 0.3147
C30 C 0.6474(3) -0.4103(3) 0.24785(19)
H17 H 0.6964 -0.4588 0.2736
C31 C 0.5760(3) -0.4410(3) 0.1854(2)
H18 H 0.5752 -0.5109 0.1699
C32 C 0.5054(3) -0.3684(2) 0.14545(17)
H19 H 0.4578 -0.3898 0.1032
Cd1C Cd 0.148651(15) 0.415859(15) -0.506270(10)
Cd1A Cd -0.148651(15) 0.584141(15) -0.493730(10)
O3C O 0.1001(2) 0.1116(2) 0.11209(12)
O4A O 0.0744(2) -0.0447(2) -0.08400(12)
loop_
_geom_bond_atom_site_label_1
_geom_bond_atom_site_label_2
_geom_bond_site_symmetry_1
_geom_bond_site_symmetry_2
Cd1 O1 1_555 1_555
O1 C7 1_555 1_555
O2 Cd1 1_555 1_555
O3 C8 1_555 1_555
O4 C8 1_555 1_555
O5 N1 1_555 1_555
O6 N1 1_555 1_555
N1 C5 1_555 1_555
N2 Cd1 1_555 1_555
N3 Cd1 1_555 1_555
C1 C2 1_555 1_555
C2 H1 1_555 1_555
C3 C2 1_555 1_555
C4 C3 1_555 1_555
H2 C4 1_555 1_555
C5 C4 1_555 1_555
C6 C1 1_555 1_555
H3 C6 1_555 1_555
C7 O2 1_555 1_555
C8 C3 1_555 1_555
C9 N2 1_555 1_555
H4 C9 1_555 1_555
C10 C9 1_555 1_555
H5 C10 1_555 1_555
C11 C10 1_555 1_555
C12 C11 1_555 1_555
C13 C12 1_555 1_555
H6 C13 1_555 1_555
C14 C13 1_555 1_555
H7 C14 1_555 1_555
C15 C14 1_555 1_555
C16 C15 1_555 1_555
C17 C16 1_555 1_555
H8 C17 1_555 1_555
C18 N3 1_555 1_555
H9 C18 1_555 1_555
C19 N2 1_555 1_555
C20 N3 1_555 1_555
C21 C11 1_555 1_555
C22 C21 1_555 1_555
H10 C22 1_555 1_555
C23 C22 1_555 1_555
H11 C23 1_555 1_555
C24 C23 1_555 1_555
H12 C24 1_555 1_555
C25 C24 1_555 1_555
H13 C25 1_555 1_555
C26 C21 1_555 1_555
H14 C26 1_555 1_555
C27 C16 1_555 1_555
C28 C27 1_555 1_555
H15 C28 1_555 1_555
C29 C28 1_555 1_555
H16 C29 1_555 1_555
C30 C29 1_555 1_555
H17 C30 1_555 1_555
C31 C30 1_555 1_555
H18 C31 1_555 1_555
C32 C27 1_555 1_555
H19 C32 1_555 1_555
Cd1C O3 1_555 1_555
Cd1A O4 1_555 1_555
O3C Cd1 1_555 1_555
O4A Cd1 1_555 1_555
C1 C7 1_555 1_555
C5 C6 1_555 1_555
C12 C19 1_555 1_555
C15 C20 1_555 1_555
C17 C18 1_555 1_555
C19 C20 1_555 1_555
C25 C26 1_555 1_555
C31 C32 1_555 1_555

#END
