
#######################################################################
#
#                 Cambridge Crystallographic Data Centre
#                                CCDC 
#
#######################################################################
#
# If this CIF has been generated from an entry in the Cambridge 
# Structural Database, then it will include bibliographic, chemical, 
# crystal, experimental, refinement or atomic coordinate data resulting 
# from the CCDC's data processing and validation procedures.
#
#######################################################################

data_PEPCET
_symmetry_cell_setting           monoclinic
_symmetry_space_group_name_H-M   'P 21/a'
_symmetry_Int_Tables_number      14
_space_group_name_Hall           '-P 2yab'
loop_
_symmetry_equiv_pos_site_id
_symmetry_equiv_pos_as_xyz
1 x,y,z
2 1/2-x,1/2+y,-z
3 -x,-y,-z
4 1/2+x,1/2-y,z
_cell_length_a                   21.253(2)
_cell_length_b                   21.792(1)
_cell_length_c                   27.105(1)
_cell_angle_alpha                90
_cell_angle_beta                 101.790(6)
_cell_angle_gamma                90
_cell_volume                     12288.7
loop_
_atom_site_label
_atom_site_type_symbol
_atom_site_fract_x
_atom_site_fract_y
_atom_site_fract_z
Cu11 Cu 0.245600 1.159880 1.008300
Cu14 Cu 0.072600 0.675150 -0.045680
O27 O 0.114400 0.679600 -0.121900
N2 N 0.067500 0.587500 -0.040800
N9 N 0.071200 0.763100 -0.040900
Na1 Na 0.4110(7) 0.8633(6) 0.2528(5)
Na2 Na 0.6005(6) 1.1243(5) 0.2498(4)
Na3 Na 0.1025(9) 0.8960(8) 0.2662(6)
Na4 Na 0.4201(8) 1.3070(7) 0.2422(6)
O81 O 0.018(2) 0.4636(16) 0.2139(14)
O82 O 0.0742(16) 0.3277(14) 0.1354(11)
O83 O 0.4838(17) 0.7718(14) 0.2726(12)
O84 O 0.461(3) 0.938(2) 0.3045(19)
O85 O 0.0925(19) 0.8240(17) 0.1311(14)
O86 O 0.428(3) 1.391(2) 0.3041(18)
O87 O 0.005(2) 1.2684(17) 0.2017(14)
O88 O 0.018(3) 0.950(3) 0.197(2)
C10 C 0.085000 0.556100 0.000500
C42 C 0.050800 0.555100 -0.083500
C47 C 0.057000 1.293000 0.928300
C54 C 0.046100 1.060300 0.927300
C55 C 0.090400 1.052000 1.008300
W1 W 0.17384(9) 1.00057(7) 0.17341(5)
W2 W 0.34494(9) 1.07871(7) 0.66544(5)
W3 W 0.32089(9) 1.15696(6) -0.12167(5)
W4 W 0.33430(9) 1.08378(6) 0.37779(5)
W5 W 0.33025(9) 1.23527(7) 0.33767(5)
W6 W 0.15988(9) 0.99897(7) 0.79961(6)
W7 W 0.33402(9) 1.16736(7) 0.16126(5)
W8 W 0.16837(9) 1.16194(7) 0.13040(5)
W9 W 0.18018(9) 1.07333(7) 0.62605(5)
W10 W 0.14506(9) 1.15017(7) -0.16270(5)
W11 W 0.32903(9) 1.23901(7) 0.70517(6)
W12 W 0.15777(9) 1.07670(7) 0.34557(5)
W13 W 0.33451(9) 1.00736(6) 0.83711(5)
W14 W 0.15465(9) 1.22802(7) 0.30583(5)
W15 W 0.16510(9) 1.23184(7) 0.66982(6)
W16 W 0.41889(9) 1.12751(8) 0.28947(6)
W17 W 0.41635(9) 1.12627(7) 0.79426(6)
W18 W 0.07952(9) 1.11477(8) 0.22620(6)
W19 W 0.33725(9) 1.00658(7) 0.20420(5)
W20 W 0.07876(9) 1.10522(8) 0.71652(6)
W21 W 0.24370(11) 1.27341(8) 0.20986(6)
W22 W 0.23573(11) 1.27202(8) 0.79077(6)
W23 W 0.25889(11) 0.96565(8) 0.70756(6)
W24 W 0.25329(11) 0.96498(8) 0.29288(7)
Cu12 Cu 0.4311(3) 1.0647(2) 0.55002(18)
Cu13 Cu 0.2599(3) 1.08083(18) 0.50950(19)
Cu15 Cu 0.0718(3) 1.0646(2) 0.4706(2)
Cu16 Cu 0.0712(3) 1.1750(2) -0.0299(2)
P1 P 0.2464(4) 1.1177(3) 0.7524(3)
P2 P 0.2483(4) 1.1192(3) 0.2543(3)
O1 O 0.1997(11) 0.9913(9) 0.6477(7)
O2 O 0.3165(11) 0.9732(9) 0.7725(7)
O3 O 0.2463(11) 1.0050(9) 0.8379(8)
O4 O 0.2636(11) 0.8863(9) 0.6937(8)
O5 O 0.1388(11) 1.0609(9) -0.1577(7)
O6 O 0.2325(12) 1.1412(10) -0.1245(8)
O7 O 0.4099(12) 1.0441(10) 0.8237(8)
O8 O 0.1405(11) 1.0651(9) 0.5648(7)
O9 O 0.2679(11) 1.0814(9) 0.6153(7)
O10 O 0.1699(9) 1.2219(8) 0.8120(6)
O11 O 0.2972(10) 1.2304(8) 0.8457(7)
O12 O 0.3023(12) 1.2895(10) 0.7559(8)
O13 O 0.2470(12) 1.2595(10) 0.6609(8)
O14 O 0.3749(12) 1.2886(10) 0.6805(8)
O15 O 0.1827(11) 1.0047(9) 0.3175(8)
O16 O 0.3185(11) 1.0133(9) 0.3423(8)
O17 O 0.2452(11) 1.0948(9) 0.3772(7)
O18 O 0.1479(10) 1.1621(8) 0.3538(7)
O19 O 0.3439(11) 1.1726(9) 0.3880(7)
O20 O 0.2437(11) 1.2350(9) 0.3393(8)
O21 O 0.4088(11) 1.2045(9) 0.3208(8)
O22 O 0.2573(11) 0.9859(9) 0.1615(8)
O23 O 0.3334(10) 1.0827(8) 0.1654(7)
O24 O 0.3934(12) 0.9631(10) 0.1809(8)
O25 O 0.1212(10) 1.1725(9) 0.0729(7)
O26 O 0.2529(12) 1.1610(10) 0.1129(8)
O28 O 0.3273(10) 0.9958(9) 0.6757(7)
O29 O 0.1909(11) 0.9678(9) 0.7451(8)
O30 O 0.1069(12) 1.1728(10) -0.1183(8)
O31 O 0.0791(13) 1.1446(11) 0.7814(9)
O32 O 0.4020(13) 1.0728(11) 0.6292(9)
O33 O 0.1742(11) 1.1554(9) 0.6304(8)
O34 O 0.3207(11) 0.9536(9) 0.2547(7)
O35 O 0.0847(13) 1.0777(10) 0.2909(9)
O36 O 0.1293(11) 1.0515(10) 0.3946(8)
O37 O 0.3074(11) 1.2710(9) 0.2737(8)
O38 O 0.1791(11) 1.2653(9) 0.2489(8)
O39 O 0.3940(11) 1.1640(9) 0.2268(8)
O40 O 0.1751(10) 1.0757(8) 0.1375(7)
O41 O 0.2497(10) 1.1606(8) 0.2092(7)
O42 O 0.2521(11) 1.0516(9) 0.2390(8)
O43 O 0.2452(10) 1.1858(8) 0.7348(7)
O44 O 0.2525(10) 1.0750(8) 0.7059(7)
O45 O 0.3672(10) 0.9494(9) 0.8745(7)
O46 O 0.3317(12) 1.0710(10) 0.8861(9)
O47 O 0.0026(13) 1.1089(10) 0.6919(9)
O48 O 0.3873(12) 1.1957(10) 0.7607(8)
O49 O 0.1027(13) 1.1791(11) 0.6945(9)
O50 O 0.1848(11) 1.1024(9) 0.7699(8)
O51 O 0.2570(12) 0.8933(10) 0.3275(8)
O52 O 0.1930(10) 0.9508(9) 0.2323(7)
O53 O 0.3638(12) 1.0574(10) 0.4375(8)
O54 O 0.0803(11) 1.1904(9) 0.2610(8)
O55 O 0.1819(11) 1.2442(9) 0.1490(8)
O56 O 0.2394(15) 1.3533(12) 0.1947(10)
O57 O 0.3564(12) 1.2992(10) 0.3733(9)
O58 O 0.3063(10) 1.1377(8) 0.2947(7)
O59 O 0.1850(12) 1.1318(10) 0.2742(8)
O60 O 0.5007(10) 1.1361(9) 0.8042(7)
O61 O 0.3970(13) 1.1615(10) 0.8569(9)
O62 O 0.4128(11) 1.0908(9) 0.3502(7)
O63 O 0.1210(12) 1.2870(10) 0.3293(8)
O64 O 0.3362(11) 1.1660(9) 0.6674(7)
O65 O 0.1722(11) 1.2802(9) 0.7260(8)
O66 O 0.1329(13) 0.9339(11) 0.8240(9)
O67 O 0.3421(12) 1.1809(10) -0.0600(8)
O68 O 0.2250(12) 1.3440(10) 0.8220(9)
O69 O 0.1186(14) 1.2819(11) 0.6261(10)
O70 O 0.3958(14) 1.0846(11) 0.7318(9)
O71 O 0.3037(11) 1.1060(9) 0.7973(7)
O72 O 0.1154(11) 1.0740(9) 0.6633(8)
O73 O 0.1087(12) 1.0432(10) 0.2021(8)
O74 O 0.3957(12) 1.0534(10) 0.2568(8)
O75 O 0.4983(16) 1.1316(13) 0.2920(11)
O76 O -0.0012(13) 1.1106(11) 0.2034(9)
O77 O 0.3089(11) 1.2484(9) 0.1745(8)
O78 O 0.1285(13) 0.9522(11) 0.1322(9)
O79 O 0.0885(14) 1.0287(11) 0.7515(10)
O80 O 0.1112(12) 1.1582(10) 0.1759(8)
N1 N 0.2448(14) 1.0697(11) 0.0066(11)
N3 N 0.0637(15) 0.9785(12) 0.4717(11)
N4 N 0.4376(14) 1.1514(11) 0.5467(10)
N5 N 0.2586(13) 1.1653(11) 0.5080(10)
N6 N 0.4361(16) 0.9759(14) 0.5487(12)
N7 N 0.0658(14) 1.1521(11) 0.4661(10)
N8 N 0.2605(14) 0.9941(11) 0.5081(10)
N10 N 0.2444(14) 1.2458(10) 0.0025(10)
N11 N 0.0645(15) 1.2616(13) -0.0317(11)
N12 N 0.0704(13) 1.0853(11) -0.0278(10)
C1 C 0.253(2) 0.965(2) 0.4599(18)
H1 H 0.2505 0.988 0.4306
C2 C 0.2615(17) 1.3447(15) 0.0447(13)
H2 H 0.2749 1.3646 0.0754
C3 C 0.256(2) 1.2859(18) 0.0442(16)
H3 H 0.2604 1.2674 0.0756
C4 C 0.2396(17) 1.2749(14) -0.0388(12)
H4 H 0.2387 1.2526 -0.0682
C5 C 0.2390(16) 1.4795(14) -0.0450(12)
H5 H 0.229 1.4576 -0.075
C6 C 0.2508(15) 1.4429(11) -0.0025(10)
C7 C 0.2682(18) 1.4776(15) 0.0403(13)
H6 H 0.2809 1.4585 0.0714
C8 C 0.2484(17) 1.3784(13) 0.0021(12)
C9 C 0.2356(14) 1.3395(12) -0.0420(10)
H7 H 0.2243 1.3577 -0.0736
H8 H 0.4019 1.0783 -0.0302
C11 C 0.4143(18) 0.9946(15) -0.0045(13)
H9 H 0.4 0.9764 -0.0358
C12 C 0.4344(17) 0.9580(14) 0.0374(12)
C13 C 0.458(2) 0.9885(17) 0.0829(15)
H10 H 0.4784 0.9673 0.1116
C14 C 0.2369(16) 1.3968(14) 0.4522(12)
H11 H 0.2348 1.3762 0.4218
C15 C 0.2444(17) 1.3637(13) 0.4986(12)
C16 C 0.2692(16) 1.2670(14) 0.5473(12)
H12 H 0.2831 1.288 0.5774
C17 C 0.2461(16) 1.2943(12) 0.4999(11)
C18 C 0.2368(17) 1.2590(14) 0.4590(12)
H13 H 0.2275 1.2768 0.4272
C19 C 0.0594(17) 0.8502(14) 0.4661(12)
C20 C 0.0576(17) 0.7809(15) 0.4633(12)
C21 C 0.0790(15) 0.7427(12) 0.5030(11)
H14 H 0.0956 0.7594 0.5346
C22 C 0.261(2) 1.0391(17) 0.0513(15)
H15 H 0.2703 1.0583 0.0826
C23 C 0.4356(17) 0.8899(15) 0.0328(13)
C24 C 0.4191(18) 0.8611(16) -0.0128(14)
H16 H 0.407 0.8824 -0.043
C25 C 0.0899(18) 0.9417(16) 0.5116(13)
H17 H 0.1082 0.9607 0.5418
C26 C 0.0910(18) 0.8795(15) 0.5099(13)
H18 H 0.1123 0.8569 0.5374
C27 C 0.0908(15) 1.1851(13) 0.5052(11)
H19 H 0.1091 1.1654 0.5351
C28 C 0.2678(17) 1.2081(15) 0.5421(13)
H20 H 0.2764 1.19 0.5738
C29 C 0.2408(16) 1.1958(14) 0.4636(12)
H21 H 0.2307 1.1725 0.4342
C30 C 0.4292(16) 0.9460(14) 0.5028(12)
H22 H 0.4214 0.9693 0.4734
C31 C 0.4334(17) 0.8842(14) 0.4991(13)
H23 H 0.4333 0.8659 0.4681
C32 C 0.4378(17) 0.8490(14) 0.5414(12)
C33 C 0.2509(15) 0.9000(13) 0.4584(11)
H24 H 0.246 0.8806 0.4272
C34 C 0.4535(19) 1.1914(16) 0.5846(14)
H25 H 0.4636 1.1737 0.6164
C35 C 0.4234(17) 1.1803(14) 0.5024(12)
H26 H 0.4146 1.1565 0.4733
C36 C 0.4333(15) 0.9447(13) 0.5908(12)
H27 H 0.4284 0.9639 0.6204
C37 C 0.4384(17) 0.8780(14) 0.5866(12)
H28 H 0.4421 0.8543 0.6156
C38 C 0.4356(17) 0.7796(14) 0.5411(12)
C39 C 0.4571(15) 0.7463(13) 0.5786(11)
H29 H 0.4721 0.7644 0.6098
C40 C 0.0296(19) 0.9489(16) 0.4302(14)
H30 H 0.007 0.9712 0.403
C41 C 0.0911(16) 1.2480(14) 0.5038(12)
H31 H 0.109 1.27 0.5326
H32 H 0.4553 1.0755 0.1142
C43 C 0.4461(16) 1.3602(14) 0.0829(12)
H33 H 0.4539 1.3819 0.1131
C44 C 0.4332(16) 1.3912(13) 0.0392(11)
C45 C 0.0426(15) 0.7517(13) 0.4156(11)
H34 H 0.0307 0.7741 0.3859
C46 C 0.438(2) 0.8584(19) 0.0775(16)
H35 H 0.4357 0.8773 0.1078
H36 H 0.0458 1.2708 -0.1015
C48 C 0.0785(19) 1.3012(17) 0.0106(15)
H37 H 0.0873 1.2815 0.0417
C49 C 0.4239(17) 1.2914(15) -0.0015(13)
H38 H 0.42 1.2687 -0.0311
C50 C 0.4242(15) 1.3537(13) -0.0038(11)
H39 H 0.4182 1.3723 -0.0353
C51 C 0.4565(19) 1.4970(16) 0.0766(14)
H40 H 0.475 1.4799 0.1076
C52 C 0.4327(13) 1.4575(11) 0.0365(9)
C53 C 0.4139(15) 1.4906(13) -0.0073(11)
H41 H 0.4037 1.4694 -0.0376
H42 H 0.0312 1.0849 -0.1006
H43 H 0.1098 1.0704 0.0386
C56 C 0.2671(17) 0.9588(14) 0.5466(12)
H44 H 0.2758 0.9782 0.5778
C57 C 0.0410(17) 1.1824(14) 0.4261(13)
H45 H 0.0204 1.1602 0.3982
C58 C 0.0292(19) 0.8837(16) 0.4291(14)
H46 H 0.0062 0.8641 0.4006
C59 C 0.233(2) 1.0420(17) -0.0371(15)
H47 H 0.2261 1.0652 -0.0665
C60 C 0.448(2) 1.2924(18) 0.0839(16)
H48 H 0.4623 1.2712 0.1139
W2A W 0.15506(9) 1.57871(7) 0.33456(5)
W2A_2 W 0.15506(9) 0.57871(7) 0.33456(5)
W2_2 W 0.34494(9) 1.07871(7) -0.33456(5)
W3_2 W 0.32089(9) 1.15696(6) 0.87833(5)
W6_2 W 0.15988(9) 0.99897(7) -0.20039(6)
W7A W 0.16598(9) 1.66736(7) -0.16126(5)
W7A_2 W 0.16598(9) 0.66736(7) -0.16126(5)
W8A W 0.33163(9) 1.66194(7) -0.13040(5)
W8A_2 W 0.33163(9) 0.66194(7) -0.13040(5)
W9A W 0.31982(9) 1.57333(7) 0.37395(5)
W9A_2 W 0.31982(9) 0.57333(7) 0.37395(5)
W9_2 W 0.18018(9) 1.07333(7) -0.37395(5)
W10_2 W 0.14506(9) 1.15017(7) 0.83730(5)
W10A W 0.35494(9) 0.65017(7) 0.16270(5)
W10A_2 W 0.35494(9) 1.65017(7) 0.16270(5)
W11_2 W 0.32903(9) 1.23901(7) -0.29483(6)
W12A W 0.34223(9) 0.57670(7) 0.65443(5)
W12A_2 W 0.34223(9) 1.57670(7) 0.65443(5)
W13_2 W 0.33451(9) 1.00736(6) -0.16289(5)
W15_2 W 0.16510(9) 1.23184(7) -0.33018(6)
W17_2 W 0.41635(9) 1.12627(7) -0.20574(6)
W20_2 W 0.07876(9) 1.10522(8) -0.28348(6)
W22_2 W 0.23573(11) 1.27202(8) -0.20923(6)
W23_2 W 0.25889(11) 0.96565(8) -0.29244(6)
Cu11_2 Cu 0.245600 1.159880 0.008300
Cu11A Cu 0.254400 1.659880 -0.008300
Cu11A_2 Cu 0.254400 0.659880 -0.008300
Cu12A Cu 0.0689(3) 0.5647(2) 0.44998(18)
Cu12A_2 Cu 0.0689(3) 1.5647(2) 0.44998(18)
Cu13A Cu 0.2401(3) 1.58083(18) 0.49050(19)
Cu13A_2 Cu 0.2401(3) 0.58083(18) 0.49050(19)
Cu14A Cu 0.427400 1.175150 0.045680
Cu14_2 Cu 0.072600 1.675150 -0.045680
Cu15A Cu 0.4282(3) 0.5646(2) 0.5294(2)
Cu15A_2 Cu 0.4282(3) 1.5646(2) 0.5294(2)
Cu16A Cu 0.4288(3) 0.6750(2) 0.0299(2)
Cu16A_2 Cu 0.4288(3) 1.6750(2) 0.0299(2)
Cu16_2 Cu 0.0712(3) 1.1750(2) 0.9701(2)
P1_2 P 0.2464(4) 1.1177(3) -0.2476(3)
O1_2 O 0.1997(11) 0.9913(9) -0.3523(7)
O1A O 0.3003(11) 1.4913(9) 0.3523(7)
O1A_2 O 0.3003(11) 0.4913(9) 0.3523(7)
O2_2 O 0.3165(11) 0.9732(9) -0.2275(7)
O3_2 O 0.2463(11) 1.0050(9) -0.1621(8)
O4_2 O 0.2636(11) 0.8863(9) -0.3063(8)
O5_2 O 0.1388(11) 1.0609(9) 0.8423(7)
O5A O 0.3612(11) 0.5609(9) 0.1577(7)
O5A_2 O 0.3612(11) 1.5609(9) 0.1577(7)
O6_2 O 0.2325(12) 1.1412(10) 0.8755(8)
O6A O 0.2675(12) 0.6412(10) 0.1245(8)
O6A_2 O 0.2675(12) 1.6412(10) 0.1245(8)
O7_2 O 0.4099(12) 1.0441(10) -0.1763(8)
O8A O 0.3595(11) 0.5651(9) 0.4352(7)
O8A_2 O 0.3595(11) 1.5651(9) 0.4352(7)
O9A O 0.2321(11) 1.5814(9) 0.3847(7)
O9A_2 O 0.2321(11) 0.5814(9) 0.3847(7)
O10_2 O 0.1699(9) 1.2219(8) -0.1880(6)
O10A O 0.3301(9) 0.7219(8) 0.1880(6)
O10A_2 O 0.3301(9) 1.7219(8) 0.1880(6)
O11_2 O 0.2972(10) 1.2304(8) -0.1543(7)
O12_2 O 0.3023(12) 1.2895(10) -0.2441(8)
O15A O 0.3173(11) 0.5047(9) 0.6825(8)
O17A O 0.2548(11) 0.5948(9) 0.6228(7)
O18A O 0.3521(10) 0.6621(8) 0.6462(7)
O23A O 0.1666(10) 1.5827(8) -0.1654(7)
O25A O 0.3788(10) 0.6725(9) -0.0729(7)
O25A_2 O 0.3788(10) 1.6725(9) -0.0729(7)
O25_2 O 0.1212(10) 1.1725(9) 1.0729(7)
O26A O 0.2471(12) 1.6610(10) -0.1129(8)
O26A_2 O 0.2471(12) 0.6610(10) -0.1129(8)
O27A O 0.385600 1.179600 0.121900
O27_2 O 0.114400 1.679600 -0.121900
O28_2 O 0.3273(10) 0.9958(9) -0.3243(7)
O28A O 0.1727(10) 1.4958(9) 0.3243(7)
O28A_2 O 0.1727(10) 0.4958(9) 0.3243(7)
O29_2 O 0.1909(11) 0.9678(9) -0.2549(8)
O30_2 O 0.1069(12) 1.1728(10) 0.8817(8)
O30A O 0.3931(12) 0.6728(10) 0.1183(8)
O30A_2 O 0.3931(12) 1.6728(10) 0.1183(8)
O31_2 O 0.0791(13) 1.1446(11) -0.2186(9)
O31A O 0.4209(13) 0.6446(11) 0.2186(9)
O31A_2 O 0.4209(13) 1.6446(11) 0.2186(9)
O32A O 0.0980(13) 0.5728(11) 0.3708(9)
O32A_2 O 0.0980(13) 1.5728(11) 0.3708(9)
O33A O 0.3258(11) 1.6554(9) 0.3696(8)
O33A_2 O 0.3258(11) 0.6554(9) 0.3696(8)
O35A O 0.4153(13) 0.5777(10) 0.7091(9)
O36A O 0.3707(11) 0.5515(10) 0.6054(8)
O36A_2 O 0.3707(11) 1.5515(10) 0.6054(8)
O39A O 0.1060(11) 1.6640(9) -0.2268(8)
O40A O 0.3249(10) 1.5757(8) -0.1375(7)
O40A_2 O 0.3249(10) 0.5757(8) -0.1375(7)
O41A O 0.2503(10) 1.6606(8) -0.2092(7)
O41A_2 O 0.2503(10) 0.6606(8) -0.2092(7)
O43_2 O 0.2452(10) 1.1858(8) -0.2652(7)
O44_2 O 0.2525(10) 1.0750(8) -0.2941(7)
O44A O 0.2475(10) 1.5750(8) 0.2941(7)
O44A_2 O 0.2475(10) 0.5750(8) 0.2941(7)
O45_2 O 0.3672(10) 0.9494(9) -0.1255(7)
O46_2 O 0.3317(12) 1.0710(10) -0.1139(9)
O47_2 O 0.0026(13) 1.1089(10) -0.3081(9)
O48_2 O 0.3873(12) 1.1957(10) -0.2393(8)
O49_2 O 0.1027(13) 1.1791(11) -0.3055(9)
O50_2 O 0.1848(11) 1.1024(9) -0.2301(8)
O50A O 0.3152(11) 0.6024(9) 0.2301(8)
O50A_2 O 0.3152(11) 1.6024(9) 0.2301(8)
O55A O 0.3181(11) 1.7442(9) -0.1490(8)
O55A_2 O 0.3181(11) 0.7442(9) -0.1490(8)
O59A O 0.3150(12) 0.6318(10) 0.7258(8)
O60_2 O 0.5007(10) 1.1361(9) -0.1958(7)
O61_2 O 0.3970(13) 1.1615(10) -0.1431(9)
O64A O 0.1638(11) 1.6660(9) 0.3326(7)
O64A_2 O 0.1638(11) 0.6660(9) 0.3326(7)
O65_2 O 0.1722(11) 1.2802(9) -0.2740(8)
O66_2 O 0.1329(13) 0.9339(11) -0.1760(9)
O67_2 O 0.3421(12) 1.1809(10) 0.9400(8)
O68_2 O 0.2250(12) 1.3440(10) -0.1780(9)
O70_2 O 0.3958(14) 1.0846(11) -0.2682(9)
O70A O 0.1042(14) 1.5846(11) 0.2682(9)
O70A_2 O 0.1042(14) 0.5846(11) 0.2682(9)
O71_2 O 0.3037(11) 1.1060(9) -0.2027(7)
O72_2 O 0.1154(11) 1.0740(9) -0.3367(8)
O72A O 0.3846(11) 1.5740(9) 0.3367(8)
O72A_2 O 0.3846(11) 0.5740(9) 0.3367(8)
O77A O 0.1911(11) 1.7484(9) -0.1745(8)
O79_2 O 0.0885(14) 1.0287(11) -0.2485(10)
O80A O 0.3888(12) 1.6582(10) -0.1759(8)
O80A_2 O 0.3888(12) 0.6582(10) -0.1759(8)
N1A N 0.2552(14) 1.5697(11) -0.0066(11)
N1A_2 N 0.2552(14) 0.5697(11) -0.0066(11)
N2A N 0.432500 1.087500 0.040800
N2_2 N 0.067500 1.587500 -0.040800
N3A N 0.4363(15) 0.4785(12) 0.5283(11)
N3A_2 N 0.4363(15) 1.4785(12) 0.5283(11)
N4A N 0.0624(14) 0.6514(11) 0.4533(10)
N4A_2 N 0.0624(14) 1.6514(11) 0.4533(10)
N5A N 0.2414(13) 1.6653(11) 0.4920(10)
N5A_2 N 0.2414(13) 0.6653(11) 0.4920(10)
N6A N 0.0639(16) 0.4759(14) 0.4513(12)
N6A_2 N 0.0639(16) 1.4759(14) 0.4513(12)
N7A N 0.4342(14) 0.6521(11) 0.5339(10)
N7A_2 N 0.4342(14) 1.6521(11) 0.5339(10)
N8A N 0.2395(14) 1.4941(11) 0.4919(10)
N8A_2 N 0.2395(14) 0.4941(11) 0.4919(10)
N9A N 0.428800 1.263100 0.040900
N9_2 N 0.071200 1.763100 -0.040900
N10A N 0.2556(14) 1.7458(10) -0.0025(10)
N10A_2 N 0.2556(14) 0.7458(10) -0.0025(10)
N11A N 0.4355(15) 0.7616(13) 0.0317(11)
N11A_2 N 0.4355(15) 1.7616(13) 0.0317(11)
N11_2 N 0.0645(15) 1.2616(13) 0.9683(11)
N12A N 0.4296(13) 1.5853(11) 0.0278(10)
N12A_2 N 0.4296(13) 0.5853(11) 0.0278(10)
N12_2 N 0.0704(13) 1.0853(11) 0.9722(10)
C1A C 0.247(2) 1.465(2) 0.5401(18)
C1A_2 C 0.247(2) 0.465(2) 0.5401(18)
H1A H 0.2495 1.488 0.5694
H1A_2 H 0.2495 0.488 0.5694
C2A C 0.2385(17) 1.8447(15) -0.0447(13)
C2A_2 C 0.2385(17) 0.8447(15) -0.0447(13)
H2A H 0.2251 1.8646 -0.0754
H2A_2 H 0.2251 0.8646 -0.0754
C3A C 0.244(2) 1.7859(18) -0.0442(16)
C3A_2 C 0.244(2) 0.7859(18) -0.0442(16)
H3A H 0.2396 1.7674 -0.0756
H3A_2 H 0.2396 0.7674 -0.0756
C4A C 0.2604(17) 1.7749(14) 0.0388(12)
C4A_2 C 0.2604(17) 0.7749(14) 0.0388(12)
H4A H 0.2613 1.7526 0.0682
H4A_2 H 0.2613 0.7526 0.0682
C5A C 0.2610(16) 0.9795(14) 0.0450(12)
C5_2 C 0.2390(16) 0.4795(14) -0.0450(12)
H5A H 0.271 0.9576 0.075
C6A C 0.2492(15) 0.9429(11) 0.0025(10)
C7A C 0.2318(18) 0.9776(15) -0.0403(13)
C7_2 C 0.2682(18) 0.4776(15) 0.0403(13)
H6A H 0.2191 0.9585 -0.0714
C8A C 0.2516(17) 0.8784(13) -0.0021(12)
C8A_2 C 0.2516(17) 1.8784(13) -0.0021(12)
C9A C 0.2644(14) 1.8395(12) 0.0420(10)
C9A_2 C 0.2644(14) 0.8395(12) 0.0420(10)
H7A H 0.2757 1.8577 0.0736
H7A_2 H 0.2757 0.8577 0.0736
C10A C 0.415000 1.056100 -0.000500
C10_2 C 0.085000 1.556100 0.000500
H8A H 0.0981 1.5783 0.0302
C11A C 0.0857(18) 1.4946(15) 0.0045(13)
H9A H 0.1 1.4764 0.0358
C12A C 0.0656(17) 1.4580(14) -0.0374(12)
C13A C 0.042(2) 1.4885(17) -0.0829(15)
H10A H 0.0216 1.4673 -0.1116
C14A C 0.2631(16) 0.8968(14) 0.5478(12)
C14_2 C 0.2369(16) 0.3968(14) 0.4522(12)
H11A H 0.2652 0.8762 0.5782
C15A C 0.2556(17) 0.8637(13) 0.5014(12)
C16A C 0.2308(16) 0.7670(14) 0.4527(12)
C16A_2 C 0.2308(16) 1.7670(14) 0.4527(12)
H12A H 0.2169 0.788 0.4226
H12A_2 H 0.2169 1.788 0.4226
C17A C 0.2539(16) 0.7943(12) 0.5001(11)
C17A_2 C 0.2539(16) 1.7943(12) 0.5001(11)
C18A C 0.2632(17) 0.7590(14) 0.5410(12)
C18A_2 C 0.2632(17) 1.7590(14) 0.5410(12)
H13A H 0.2725 0.7768 0.5728
H13A_2 H 0.2725 1.7768 0.5728
C19A C 0.4406(17) 1.3502(14) 0.5339(12)
C19A_2 C 0.4406(17) 0.3502(14) 0.5339(12)
C20A C 0.4424(17) 1.2809(15) 0.5367(12)
C21A C 0.4210(15) 1.2427(12) 0.4970(11)
C21_2 C 0.0790(15) 1.7427(12) 0.5030(11)
H14A H 0.4044 1.2594 0.4654
C22A C 0.239(2) 1.5391(17) -0.0513(15)
C22A_2 C 0.239(2) 0.5391(17) -0.0513(15)
H15A H 0.2297 1.5583 -0.0826
H15A_2 H 0.2297 0.5583 -0.0826
C23A C 0.0644(17) 1.3899(15) -0.0328(13)
C23_2 C 0.4356(17) 1.8899(15) 0.0328(13)
C24A C 0.0809(18) 1.3611(16) 0.0128(14)
C24_2 C 0.4191(18) 1.8611(16) -0.0128(14)
H16A H 0.093 1.3824 0.043
C25A C 0.4101(18) 0.4417(16) 0.4884(13)
C25A_2 C 0.4101(18) 1.4417(16) 0.4884(13)
H17A H 0.3918 0.4607 0.4582
H17A_2 H 0.3918 1.4607 0.4582
C26A C 0.4090(18) 1.3795(15) 0.4901(13)
C26A_2 C 0.4090(18) 0.3795(15) 0.4901(13)
H18A H 0.3877 1.3569 0.4626
H18A_2 H 0.3877 0.3569 0.4626
C27A C 0.4092(15) 0.6851(13) 0.4948(11)
C27A_2 C 0.4092(15) 1.6851(13) 0.4948(11)
H19A H 0.3909 0.6654 0.4649
H19A_2 H 0.3909 1.6654 0.4649
C28A C 0.2322(17) 1.7081(15) 0.4579(13)
C28A_2 C 0.2322(17) 0.7081(15) 0.4579(13)
H20A H 0.2236 1.69 0.4262
H20A_2 H 0.2236 0.69 0.4262
C29A C 0.2592(16) 1.6958(14) 0.5364(12)
C29A_2 C 0.2592(16) 0.6958(14) 0.5364(12)
H21A H 0.2693 1.6725 0.5658
H21A_2 H 0.2693 0.6725 0.5658
C30A C 0.0708(16) 0.4460(14) 0.4972(12)
C30A_2 C 0.0708(16) 1.4460(14) 0.4972(12)
H22A H 0.0786 0.4693 0.5266
H22A_2 H 0.0786 1.4693 0.5266
C31A C 0.0666(17) 1.3842(14) 0.5009(13)
C31A_2 C 0.0666(17) 0.3842(14) 0.5009(13)
H23A H 0.0667 1.3659 0.5319
H23A_2 H 0.0667 0.3659 0.5319
C32A C 0.0622(17) 1.3490(14) 0.4586(12)
C32A_2 C 0.0622(17) 0.3490(14) 0.4586(12)
C33A C 0.2491(15) 1.4000(13) 0.5416(11)
C33A_2 C 0.2491(15) 0.4000(13) 0.5416(11)
H24A H 0.254 1.3806 0.5728
C34A C 0.0465(19) 0.6914(16) 0.4154(14)
C34A_2 C 0.0465(19) 1.6914(16) 0.4154(14)
H25A H 0.0364 0.6737 0.3836
H25A_2 H 0.0364 1.6737 0.3836
C35A C 0.0766(17) 0.6803(14) 0.4976(12)
C35A_2 C 0.0766(17) 1.6803(14) 0.4976(12)
H26A H 0.0854 0.6565 0.5267
H26A_2 H 0.0854 1.6565 0.5267
C36A C 0.0667(15) 0.4447(13) 0.4092(12)
C36A_2 C 0.0667(15) 1.4447(13) 0.4092(12)
H27A H 0.0716 0.4639 0.3796
H27A_2 H 0.0716 1.4639 0.3796
C37A C 0.0616(17) 1.3780(14) 0.4134(12)
C37A_2 C 0.0616(17) 0.3780(14) 0.4134(12)
H28A H 0.0579 1.3543 0.3844
H28A_2 H 0.0579 0.3543 0.3844
C38A C 0.0644(17) 1.2796(14) 0.4589(12)
C39A C 0.0429(15) 1.2463(13) 0.4214(11)
C39_2 C 0.4571(15) 1.7463(13) 0.5786(11)
H29A H 0.0279 1.2644 0.3902
C40A C 0.4704(19) 0.4489(16) 0.5698(14)
C40A_2 C 0.4704(19) 1.4489(16) 0.5698(14)
H30A H 0.493 0.4712 0.597
H30A_2 H 0.493 1.4712 0.597
C41A C 0.4089(16) 0.7480(14) 0.4962(12)
C41A_2 C 0.4089(16) 1.7480(14) 0.4962(12)
H31A H 0.391 0.77 0.4674
C42A C 0.449200 1.055100 0.083500
C42_2 C 0.050800 1.555100 -0.083500
H32A H 0.0447 1.5755 -0.1142
C43A C 0.0539(16) 0.8602(14) -0.0829(12)
C43A_2 C 0.0539(16) 1.8602(14) -0.0829(12)
H33A H 0.0461 0.8819 -0.1131
C44A C 0.0668(16) 0.8912(13) -0.0392(11)
C45A C 0.4574(15) 1.2517(13) 0.5844(11)
C45_2 C 0.0426(15) 1.7517(13) 0.4156(11)
H34A H 0.4693 1.2741 0.6141
C46A C 0.062(2) 1.3584(19) -0.0775(16)
C46_2 C 0.438(2) 1.8584(19) 0.0775(16)
H35A H 0.0643 1.3773 -0.1078
H35_2 H 0.4357 1.8773 0.1078
C47_2 C 0.057000 1.293000 -0.071700
C47A C 0.443000 0.793000 0.071700
C47A_2 C 0.443000 1.793000 0.071700
H36A H 0.4542 0.7708 0.1015
H36A_2 H 0.4542 1.7708 0.1015
C48A C 0.4215(19) 0.8012(17) -0.0106(15)
C48A_2 C 0.4215(19) 1.8012(17) -0.0106(15)
H37A H 0.4127 0.7815 -0.0417
H37A_2 H 0.4127 1.7815 -0.0417
C49A C 0.0761(17) 1.7914(15) 0.0015(13)
C49A_2 C 0.0761(17) 0.7914(15) 0.0015(13)
H38A H 0.08 1.7687 0.0311
C50A C 0.0758(15) 0.8537(13) 0.0038(11)
C50A_2 C 0.0758(15) 1.8537(13) 0.0038(11)
H39A H 0.0818 0.8723 0.0353
C51A C 0.0435(19) 0.9970(16) -0.0766(14)
C51_2 C 0.4565(19) 0.4970(16) 0.0766(14)
H40A H 0.025 0.9799 -0.1076
H40_2 H 0.475 0.4799 0.1076
C52A C 0.0673(13) 0.9575(11) -0.0365(9)
C52_2 C 0.4327(13) 0.4575(11) 0.0365(9)
C53A C 0.0861(15) 0.9906(13) 0.0073(11)
C53_2 C 0.4139(15) 0.4906(13) -0.0073(11)
H41A H 0.0963 0.9694 0.0376
H41_2 H 0.4037 0.4694 -0.0376
C54_2 C 0.046100 1.060300 -0.072700
C54A C 0.453900 1.560300 0.072700
C54A_2 C 0.453900 0.560300 0.072700
H42A H 0.4688 1.5849 0.1006
H42A_2 H 0.4688 0.5849 0.1006
C55_2 C 0.090400 1.052000 0.008300
C55A C 0.409600 1.552000 -0.008300
C55A_2 C 0.409600 0.552000 -0.008300
H43A H 0.3902 1.5704 -0.0386
H43A_2 H 0.3902 0.5704 -0.0386
C56A C 0.2329(17) 1.4588(14) 0.4534(12)
C56A_2 C 0.2329(17) 0.4588(14) 0.4534(12)
H44A H 0.2242 1.4782 0.4222
H44A_2 H 0.2242 0.4782 0.4222
C57A C 0.4590(17) 0.6824(14) 0.5739(13)
C57A_2 C 0.4590(17) 1.6824(14) 0.5739(13)
H45A H 0.4796 0.6602 0.6018
H45A_2 H 0.4796 1.6602 0.6018
C58A C 0.4708(19) 1.3837(16) 0.5709(14)
C58A_2 C 0.4708(19) 0.3837(16) 0.5709(14)
H46A H 0.4938 1.3641 0.5994
H46A_2 H 0.4938 0.3641 0.5994
C59A C 0.267(2) 1.5420(17) 0.0371(15)
C59A_2 C 0.267(2) 0.5420(17) 0.0371(15)
H47A H 0.2739 1.5652 0.0665
H47A_2 H 0.2739 0.5652 0.0665
C60A C 0.052(2) 1.7924(18) -0.0839(16)
C60A_2 C 0.052(2) 0.7924(18) -0.0839(16)
H48A H 0.0377 1.7712 -0.1139
Cu1? Cu 0.33430(9) 1.08378(6) 0.37779(5)
Cu2? Cu 0.33025(9) 1.23527(7) 0.33767(5)
Cu3? Cu 0.34012(9) 0.49897(7) 0.20039(6)
Cu4? Cu 0.42124(9) 0.60522(8) 0.28348(6)
Cu5? Cu 0.33490(9) 0.73184(7) 0.33018(6)
Cu6? Cu 0.24370(11) 1.27341(8) 0.20986(6)
Cu7? Cu 0.26427(11) 0.77202(8) 0.20923(6)
Cu8? Cu 0.24111(11) 0.46565(8) 0.29244(6)
Cu9? Cu 0.25329(11) 0.96498(8) 0.29288(7)
Cu10? Cu 0.17384(9) 1.00057(7) 0.17341(5)
loop_
_geom_bond_atom_site_label_1
_geom_bond_atom_site_label_2
_geom_bond_site_symmetry_1
_geom_bond_site_symmetry_2
W1 O22 1_555 1_555
W2 O9 1_555 1_555
W3 O6 1_555 1_555
W4 O16 1_555 1_555
W5 O19 1_555 1_555
W6 O3 1_555 1_555
W7 O23 1_555 1_555
W8 O25 1_555 1_555
W9 O1 1_555 1_555
W10 O5 1_555 1_555
W11 O12 1_555 1_555
W12 O15 1_555 1_555
W13 O2 1_555 1_555
W14 O18 1_555 1_555
W15 O13 1_555 1_555
W16 O21 1_555 1_555
W17 O7 1_555 1_555
W18 O35 1_555 1_555
W19 O22 1_555 1_555
W20 O31 1_555 1_555
W21 O37 1_555 1_555
W22 O10 1_555 1_555
W23 O1 1_555 1_555
W24 O15 1_555 1_555
Cu12 O32 1_555 1_555
Cu13 O9 1_555 1_555
Cu14 O27 1_555 1_555
Cu15 O8 1_555 1_555
Cu16 O25 1_555 1_555
P1 O43 1_555 1_555
P2 O41 1_555 1_555
O2 W23 1_555 1_555
O3 W13 1_555 1_555
O4 W23 1_555 1_555
O5 W6_2 1_555 1_555
O6 W10 1_555 1_555
O7 W13 1_555 1_555
O8 W9 1_555 1_555
O9 W9 1_555 1_555
O10 W10_2 1_555 1_555
O11 W22 1_555 1_555
O12 W22 1_555 1_555
O13 W11 1_555 1_555
O14 W11 1_555 1_555
O16 W24 1_555 1_555
O17 W4 1_555 1_555
O18 W12 1_555 1_555
O19 W4 1_555 1_555
O20 W5 1_555 1_555
O21 W5 1_555 1_555
O23 W19 1_555 1_555
O24 W19 1_555 1_555
O26 W7 1_555 1_555
O28 W2 1_555 1_555
O29 W6 1_555 1_555
O30 W10 1_555 1_555
O31 W10_2 1_555 1_555
O32 W2 1_555 1_555
O33 W9 1_555 1_555
O34 W19 1_555 1_555
O35 W12 1_555 1_555
O36 W12 1_555 1_555
O37 W5 1_555 1_555
O38 W14 1_555 1_555
O39 W7 1_555 1_555
O40 W1 1_555 1_555
O41 W7 1_555 1_555
O42 W1 1_555 1_555
O43 W11 1_555 1_555
O44 W2 1_555 1_555
O45 W13 1_555 1_555
O46 W13 1_555 1_555
O47 W20 1_555 1_555
O48 W11 1_555 1_555
O49 W15 1_555 1_555
O50 W6 1_555 1_555
O51 W24 1_555 1_555
O52 W1 1_555 1_555
O53 W4 1_555 1_555
O54 W14 1_555 1_555
O55 W8 1_555 1_555
O56 W21 1_555 1_555
O57 W5 1_555 1_555
O58 W4 1_555 1_555
O59 W12 1_555 1_555
O60 W17 1_555 1_555
O61 W17 1_555 1_555
O62 W4 1_555 1_555
O63 W14 1_555 1_555
O64 W2 1_555 1_555
O65 W15 1_555 1_555
O66 W6 1_555 1_555
O67 W3 1_555 1_555
O68 W22 1_555 1_555
O69 W15 1_555 1_555
O70 W2 1_555 1_555
O71 W13 1_555 1_555
O72 W9 1_555 1_555
O73 W1 1_555 1_555
O74 W16 1_555 1_555
O75 W16 1_555 1_555
O76 W18 1_555 1_555
O77 W7 1_555 1_555
O78 W1 1_555 1_555
O79 W6 1_555 1_555
O80 W8 1_555 1_555
N1 C22 1_555 1_555
N2 Cu14 1_555 1_555
N3 Cu15 1_555 1_555
N4 Cu12 1_555 1_555
N5 Cu13 1_555 1_555
N6 Cu12 1_555 1_555
N7 Cu15 1_555 1_555
N8 Cu13 1_555 1_555
N9 Cu14 1_555 1_555
N10 C3 1_555 1_555
N11 Cu16 1_555 1_555
N12 Cu16 1_555 1_555
C1 N8 1_555 1_555
H1 C1 1_555 1_555
C2 H2 1_555 1_555
C3 C2 1_555 1_555
H3 C3 1_555 1_555
C4 N10 1_555 1_555
H4 C4 1_555 1_555
C5 H5 1_555 1_555
C6 C5 1_555 1_555
C7 C6 1_555 1_555
H6 C7 1_555 1_555
C8 C2 1_555 1_555
C9 C4 1_555 1_555
H7 C9 1_555 1_555
H8 C10A 1_555 1_555
C11 H9 1_555 1_555
C12 C11 1_555 1_555
C13 C12 1_555 1_555
H10 C13 1_555 1_555
C14 H11 1_555 1_555
C15 C14 1_555 1_555
C16 H12 1_555 1_555
C17 C15 1_555 1_555
C18 C17 1_555 1_555
H13 C18 1_555 1_555
C19 C20 1_555 1_555
C20 C21 1_555 1_555
C21 H14 1_555 1_555
C22 H15 1_555 1_555
C23 C12 1_555 1_555
C24 C23 1_555 1_555
H16 C24 1_555 1_555
C25 N3 1_555 1_555
H17 C25 1_555 1_555
C26 C19 1_555 1_555
H18 C26 1_555 1_555
C27 N7 1_555 1_555
H19 C27 1_555 1_555
C28 N5 1_555 1_555
H20 C28 1_555 1_555
C29 N5 1_555 1_555
H21 C29 1_555 1_555
C30 N6 1_555 1_555
H22 C30 1_555 1_555
C31 C30 1_555 1_555
H23 C31 1_555 1_555
C32 C31 1_555 1_555
C33 C1 1_555 1_555
H24 C33 1_555 1_555
C34 N4 1_555 1_555
H25 C34 1_555 1_555
C35 N4 1_555 1_555
H26 C35 1_555 1_555
C36 N6 1_555 1_555
H27 C36 1_555 1_555
C37 C32 1_555 1_555
H28 C37 1_555 1_555
C38 C32 1_555 1_555
C39 C38 1_555 1_555
H29 C39 1_555 1_555
C40 N3 1_555 1_555
H30 C40 1_555 1_555
C41 C27 1_555 1_555
H31 C41 1_555 1_555
H32 C42A 1_555 1_555
C43 H33 1_555 1_555
C44 C43 1_555 1_555
C45 C20 1_555 1_555
H34 C45 1_555 1_555
C46 C23 1_555 1_555
H35 C46 1_555 1_555
H36 C47_2 1_555 1_555
C48 N11 1_555 1_555
H37 C48 1_555 1_555
C49 H38 1_555 1_555
C50 C44 1_555 1_555
H39 C50 1_555 1_555
C51 H40 1_555 1_555
C52 C44 1_555 1_555
C53 C52 1_555 1_555
H41 C53 1_555 1_555
H42 C54_2 1_555 1_555
H43 C55_2 1_555 1_555
C56 N8 1_555 1_555
H44 C56 1_555 1_555
C57 N7 1_555 1_555
H45 C57 1_555 1_555
C58 C19 1_555 1_555
H46 C58 1_555 1_555
C59 N1 1_555 1_555
H47 C59 1_555 1_555
C60 C43 1_555 1_555
H48 C60 1_555 1_555
W2A O9A 1_555 1_555
W2A_2 O9A_2 1_555 1_555
W2_2 O44_2 1_555 1_555
W3_2 O11 1_555 1_555
W6_2 O3_2 1_555 1_555
W7A O23A 1_555 1_555
W7A_2 O26A_2 1_555 1_555
W8A O25A_2 1_555 1_555
W8A_2 O25A 1_555 1_555
W9A O1A 1_555 1_555
W9A_2 O1A_2 1_555 1_555
W9_2 O44_2 1_555 1_555
W10_2 O50 1_555 1_555
W10A O5A 1_555 1_555
W10A_2 O5A_2 1_555 1_555
W11_2 O12_2 1_555 1_555
W12A O15A 1_555 1_555
W12A_2 O36A_2 1_555 1_555
W13_2 O2_2 1_555 1_555
W15_2 O43_2 1_555 1_555
W17_2 O7_2 1_555 1_555
W20_2 O31_2 1_555 1_555
W22_2 O10_2 1_555 1_555
W23_2 O1_2 1_555 1_555
Cu11_2 O26 1_555 1_555
Cu11A O26A 1_555 1_555
Cu11A_2 O26A_2 1_555 1_555
Cu12A O32A 1_555 1_555
Cu12A_2 O32A_2 1_555 1_555
Cu13A O9A 1_555 1_555
Cu13A_2 O9A_2 1_555 1_555
Cu14A O27A 1_555 1_555
Cu14_2 O27_2 1_555 1_555
Cu15A O8A 1_555 1_555
Cu15A_2 O8A_2 1_555 1_555
Cu16A O25A 1_555 1_555
Cu16A_2 O25A_2 1_555 1_555
Cu16_2 O25_2 1_555 1_555
P1_2 O43_2 1_555 1_555
O2_2 W23_2 1_555 1_555
O3_2 W13_2 1_555 1_555
O4_2 W23_2 1_555 1_555
O5_2 W6 1_555 1_555
O6_2 W3_2 1_555 1_555
O6A W10A 1_555 1_555
O6A_2 W10A_2 1_555 1_555
O7_2 W13_2 1_555 1_555
O8A W9A_2 1_555 1_555
O8A_2 W9A 1_555 1_555
O9A W9A 1_555 1_555
O9A_2 W9A_2 1_555 1_555
O10_2 W10 1_555 1_555
O10A W10A 1_555 1_555
O10A_2 W10A_2 1_555 1_555
O11_2 W3 1_555 1_555
O12_2 W22_2 1_555 1_555
O17A W12A 1_555 1_555
O18A W12A 1_555 1_555
O26A W7A 1_555 1_555
O26A_2 W8A_2 1_555 1_555
O27A W7 1_555 1_555
O27_2 W7A 1_555 1_555
O28_2 W23_2 1_555 1_555
O28A W2A 1_555 1_555
O28A_2 W2A_2 1_555 1_555
O29_2 W6_2 1_555 1_555
O30_2 W10_2 1_555 1_555
O30A W10A 1_555 1_555
O30A_2 W10A_2 1_555 1_555
O31_2 W10 1_555 1_555
O31A W10A 1_555 1_555
O31A_2 W10A_2 1_555 1_555
O32A W2A_2 1_555 1_555
O32A_2 W2A 1_555 1_555
O33A W9A 1_555 1_555
O33A_2 W9A_2 1_555 1_555
O35A W12A 1_555 1_555
O36A W12A 1_555 1_555
O36A_2 Cu15A_2 1_555 1_555
O39A W7A 1_555 1_555
O40A W8A 1_555 1_555
O40A_2 W8A_2 1_555 1_555
O41A W7A 1_555 1_555
O41A_2 W8A_2 1_555 1_555
O43_2 W11_2 1_555 1_555
O44_2 W23_2 1_555 1_555
O44A W2A 1_555 1_555
O44A_2 W2A_2 1_555 1_555
O45_2 W13_2 1_555 1_555
O46_2 W3 1_555 1_555
O47_2 W20_2 1_555 1_555
O48_2 W11_2 1_555 1_555
O49_2 W15_2 1_555 1_555
O50_2 W10 1_555 1_555
O50A W10A 1_555 1_555
O50A_2 W10A_2 1_555 1_555
O55A W8A 1_555 1_555
O55A_2 W8A_2 1_555 1_555
O59A W12A 1_555 1_555
O60_2 W17_2 1_555 1_555
O61_2 W3 1_555 1_555
O64A W2A 1_555 1_555
O64A_2 W2A_2 1_555 1_555
O65_2 W15_2 1_555 1_555
O66_2 W6_2 1_555 1_555
O67_2 W3_2 1_555 1_555
O68_2 W22_2 1_555 1_555
O70_2 W2_2 1_555 1_555
O70A W2A 1_555 1_555
O70A_2 W2A_2 1_555 1_555
O71_2 W3 1_555 1_555
O72_2 W9_2 1_555 1_555
O72A W9A 1_555 1_555
O72A_2 W9A_2 1_555 1_555
O77A W7A 1_555 1_555
O79_2 W6_2 1_555 1_555
O80A W8A 1_555 1_555
O80A_2 W8A_2 1_555 1_555
N1A Cu11A 1_555 1_555
N1A_2 Cu11A_2 1_555 1_555
N2A Cu14A 1_555 1_555
N2_2 Cu14_2 1_555 1_555
N3A Cu15A 1_555 1_555
N3A_2 Cu15A_2 1_555 1_555
N4A Cu12A 1_555 1_555
N4A_2 Cu12A_2 1_555 1_555
N5A Cu13A 1_555 1_555
N5A_2 Cu13A_2 1_555 1_555
N6A Cu12A 1_555 1_555
N6A_2 Cu12A_2 1_555 1_555
N7A Cu15A 1_555 1_555
N7A_2 Cu15A_2 1_555 1_555
N8A Cu13A 1_555 1_555
N8A_2 Cu13A_2 1_555 1_555
N9A C49 1_555 1_555
N9_2 Cu14_2 1_555 1_555
N10A Cu11A 1_555 1_555
N10A_2 Cu11A_2 1_555 1_555
N11A Cu16A 1_555 1_555
N11A_2 Cu16A_2 1_555 1_555
N11_2 Cu16_2 1_555 1_555
N12A Cu16A_2 1_555 1_555
N12A_2 Cu16A 1_555 1_555
N12_2 Cu16_2 1_555 1_555
C1A N8A 1_555 1_555
C1A_2 N8A_2 1_555 1_555
H1A C1A 1_555 1_555
H1A_2 C1A_2 1_555 1_555
C2A H2A 1_555 1_555
C2A_2 H2A_2 1_555 1_555
C3A N10A 1_555 1_555
C3A_2 N10A_2 1_555 1_555
H3A C3A 1_555 1_555
H3A_2 C3A_2 1_555 1_555
C4A N10A 1_555 1_555
C4A_2 N10A_2 1_555 1_555
H4A C4A 1_555 1_555
H4A_2 C4A_2 1_555 1_555
C5A C22 1_555 1_555
C5_2 C22A_2 1_555 1_555
H5A C5A 1_555 1_555
C6A C5A 1_555 1_555
C7A C59 1_555 1_555
C7_2 C59A_2 1_555 1_555
H6A C7A 1_555 1_555
C8A C2A_2 1_555 1_555
C8A_2 C2A 1_555 1_555
C9A C4A 1_555 1_555
C9A_2 C4A_2 1_555 1_555
H7A C9A 1_555 1_555
H7A_2 C9A_2 1_555 1_555
C10A C11 1_555 1_555
C10_2 N2_2 1_555 1_555
H8A C10_2 1_555 1_555
C11A C10_2 1_555 1_555
H9A C11A 1_555 1_555
C12A C11A 1_555 1_555
C13A C12A 1_555 1_555
H10A C13A 1_555 1_555
C14A C56 1_555 1_555
C14_2 C56A_2 1_555 1_555
H11A C14A 1_555 1_555
C15A C33 1_555 1_555
C16A H12A 1_555 1_555
C16A_2 H12A_2 1_555 1_555
C17A C15A 1_555 1_555
C17A_2 C16A_2 1_555 1_555
C18A C17A 1_555 1_555
C18A_2 C17A_2 1_555 1_555
H13A C18A 1_555 1_555
H13A_2 C18A_2 1_555 1_555
C19A C20A 1_555 1_555
C19A_2 C26A_2 1_555 1_555
C20A C21A 1_555 1_555
C21A C35 1_555 1_555
C21_2 C35A_2 1_555 1_555
H14A C21A 1_555 1_555
C22A C5 1_555 1_555
C22A_2 N1A_2 1_555 1_555
H15A C22A 1_555 1_555
H15A_2 C22A_2 1_555 1_555
C23A C12A 1_555 1_555
C23_2 C46_2 1_555 1_555
C24A C48 1_555 1_555
C24_2 C48A_2 1_555 1_555
H16A C24A 1_555 1_555
C25A N3A 1_555 1_555
C25A_2 N3A_2 1_555 1_555
H17A C25A 1_555 1_555
H17A_2 C25A_2 1_555 1_555
C26A C19A 1_555 1_555
C26A_2 C25A 1_555 1_555
H18A C26A 1_555 1_555
H18A_2 C26A_2 1_555 1_555
C27A N7A 1_555 1_555
C27A_2 N7A_2 1_555 1_555
H19A C27A 1_555 1_555
H19A_2 C27A_2 1_555 1_555
C28A N5A 1_555 1_555
C28A_2 N5A_2 1_555 1_555
H20A C28A 1_555 1_555
H20A_2 C28A_2 1_555 1_555
C29A N5A 1_555 1_555
C29A_2 N5A_2 1_555 1_555
H21A C29A 1_555 1_555
H21A_2 C29A_2 1_555 1_555
C30A N6A 1_555 1_555
C30A_2 N6A_2 1_555 1_555
H22A C30A 1_555 1_555
H22A_2 C30A_2 1_555 1_555
C31A C30A_2 1_555 1_555
C31A_2 C30A 1_555 1_555
H23A C31A 1_555 1_555
H23A_2 C31A_2 1_555 1_555
C32A C31A 1_555 1_555
C32A_2 C31A_2 1_555 1_555
C33A C15 1_555 1_555
C33A_2 C1A_2 1_555 1_555
H24A C33A 1_555 1_555
C34A C45 1_555 1_555
C34A_2 N4A_2 1_555 1_555
H25A C34A 1_555 1_555
H25A_2 C34A_2 1_555 1_555
C35A C21 1_555 1_555
C35A_2 N4A_2 1_555 1_555
H26A C35A 1_555 1_555
H26A_2 C35A_2 1_555 1_555
C36A N6A 1_555 1_555
C36A_2 N6A_2 1_555 1_555
H27A C36A 1_555 1_555
H27A_2 C36A_2 1_555 1_555
C37A C32A 1_555 1_555
C37A_2 C32A_2 1_555 1_555
H28A C37A 1_555 1_555
H28A_2 C37A_2 1_555 1_555
C38A C41 1_555 1_555
C39A C57 1_555 1_555
C39_2 C57A_2 1_555 1_555
H29A C39A 1_555 1_555
C40A N3A 1_555 1_555
C40A_2 N3A_2 1_555 1_555
H30A C40A 1_555 1_555
H30A_2 C40A_2 1_555 1_555
C41A C38 1_555 1_555
C41A_2 C27A_2 1_555 1_555
H31A C41A 1_555 1_555
C42A C13 1_555 1_555
C42_2 N2_2 1_555 1_555
H32A C42_2 1_555 1_555
C43A H33A 1_555 1_555
C43A_2 C60A 1_555 1_555
C44A C43A 1_555 1_555
C45A C34 1_555 1_555
C45_2 C34A_2 1_555 1_555
H34A C45A 1_555 1_555
C46A C23A 1_555 1_555
C46_2 H35_2 1_555 1_555
H35A C46A 1_555 1_555
C47_2 N11 1_555 1_555
C47A C46 1_555 1_555
C47A_2 N11A_2 1_555 1_555
H36A C47A 1_555 1_555
H36A_2 C47A_2 1_555 1_555
C48A C24 1_555 1_555
C48A_2 N11A_2 1_555 1_555
H37A C48A 1_555 1_555
H37A_2 C48A_2 1_555 1_555
C49A N9_2 1_555 1_555
C49A_2 C50A 1_555 1_555
H38A C49A 1_555 1_555
C50A C44A 1_555 1_555
C50A_2 C49A 1_555 1_555
H39A C50A 1_555 1_555
C51A H40A 1_555 1_555
C51_2 H40_2 1_555 1_555
C52A C44A 1_555 1_555
C52_2 C51_2 1_555 1_555
C53A C52A 1_555 1_555
C53_2 C52_2 1_555 1_555
H41A C53A 1_555 1_555
H41_2 C53_2 1_555 1_555
C54_2 N12 1_555 1_555
C54A C51 1_555 1_555
C54A_2 N12A_2 1_555 1_555
H42A C54A 1_555 1_555
H42A_2 C54A_2 1_555 1_555
C55_2 N12 1_555 1_555
C55A C53 1_555 1_555
C55A_2 N12A_2 1_555 1_555
H43A C55A 1_555 1_555
H43A_2 C55A_2 1_555 1_555
C56A C14 1_555 1_555
C56A_2 N8A_2 1_555 1_555
H44A C56A 1_555 1_555
H44A_2 C56A_2 1_555 1_555
C57A C39 1_555 1_555
C57A_2 N7A_2 1_555 1_555
H45A C57A 1_555 1_555
H45A_2 C57A_2 1_555 1_555
C58A C19A 1_555 1_555
C58A_2 C19A_2 1_555 1_555
H46A C58A 1_555 1_555
H46A_2 C58A_2 1_555 1_555
C59A C7 1_555 1_555
C59A_2 N1A_2 1_555 1_555
H47A C59A 1_555 1_555
H47A_2 C59A_2 1_555 1_555
C60A N9_2 1_555 1_555
C60A_2 C43A 1_555 1_555
H48A C60A 1_555 1_555
W5 O58 1_555 1_555
W8 O26 1_555 1_555
W8 O40 1_555 1_555
W8 O41 1_555 1_555
W9 O44 1_555 1_555
W11 O64 1_555 1_555
W12 O17 1_555 1_555
W14 O20 1_555 1_555
W14 O59 1_555 1_555
W15 O33 1_555 1_555
W15 O43 1_555 1_555
W16 O39 1_555 1_555
W16 O58 1_555 1_555
W16 O62 1_555 1_555
W17 O48 1_555 1_555
W17 O70 1_555 1_555
W17 O71 1_555 1_555
W18 O54 1_555 1_555
W18 O59 1_555 1_555
W18 O73 1_555 1_555
W18 O80 1_555 1_555
W19 O42 1_555 1_555
W19 O74 1_555 1_555
W20 O49 1_555 1_555
W20 O50 1_555 1_555
W20 O72 1_555 1_555
W20 O79 1_555 1_555
W21 O38 1_555 1_555
W21 O41 1_555 1_555
W21 O55 1_555 1_555
W21 O77 1_555 1_555
W22 O43 1_555 1_555
W22 O65 1_555 1_555
W23 O28 1_555 1_555
W23 O29 1_555 1_555
W23 O44 1_555 1_555
W24 O34 1_555 1_555
W24 O42 1_555 1_555
W24 O52 1_555 1_555
Cu15 O36 1_555 1_555
Cu16 O30 1_555 1_555
P1 O44 1_555 1_555
P1 O50 1_555 1_555
P1 O71 1_555 1_555
P2 O42 1_555 1_555
P2 O58 1_555 1_555
P2 O59 1_555 1_555
O46 W3_2 1_555 1_555
O61 W3_2 1_555 1_555
O71 W3_2 1_555 1_555
N1 Cu11_2 1_555 1_555
N10 Cu11_2 1_555 1_555
C6 C8 1_555 1_555
C8 C9 1_555 1_555
C16 C17 1_555 1_555
C16 C28 1_555 1_555
C18 C29 1_555 1_555
C25 C26 1_555 1_555
C36 C37 1_555 1_555
C40 C58 1_555 1_555
C49 C50 1_555 1_555
C51 C52 1_555 1_555
C60 N9A 1_555 1_555
W6_2 O50_2 1_555 1_555
W8A O26A 1_555 1_555
W8A O41A 1_555 1_555
W9A O44A 1_555 1_555
W9A_2 O44A_2 1_555 1_555
W10_2 O5_2 1_555 1_555
W10_2 O6_2 1_555 1_555
W13_2 O46_2 1_555 1_555
W13_2 O71_2 1_555 1_555
W17_2 O48_2 1_555 1_555
W17_2 O61_2 1_555 1_555
W17_2 O70_2 1_555 1_555
W17_2 O71_2 1_555 1_555
W20_2 O49_2 1_555 1_555
W20_2 O50_2 1_555 1_555
W20_2 O72_2 1_555 1_555
W20_2 O79_2 1_555 1_555
W22_2 O11_2 1_555 1_555
W22_2 O43_2 1_555 1_555
W22_2 O65_2 1_555 1_555
W23_2 O29_2 1_555 1_555
Cu14A N9A 1_555 1_555
Cu15A O36A 1_555 1_555
Cu16A O30A 1_555 1_555
Cu16A_2 O30A_2 1_555 1_555
Cu16_2 O30_2 1_555 1_555
P1_2 O44_2 1_555 1_555
P1_2 O50_2 1_555 1_555
P1_2 O71_2 1_555 1_555
N1A C22A 1_555 1_555
N1A C59A 1_555 1_555
N2A C10A 1_555 1_555
N2A C42A 1_555 1_555
N4A C34A 1_555 1_555
N4A C35A 1_555 1_555
N7A C57A 1_555 1_555
N8A C56A 1_555 1_555
N11A C47A 1_555 1_555
N11A C48A 1_555 1_555
N12A C54A 1_555 1_555
N12A C55A 1_555 1_555
C1A C33A 1_555 1_555
C2A C3A 1_555 1_555
C2A_2 C3A_2 1_555 1_555
C6A C7A 1_555 1_555
C6A C8A 1_555 1_555
C8A C9A_2 1_555 1_555
C8A_2 C9A 1_555 1_555
C13A C42_2 1_555 1_555
C14A C15A 1_555 1_555
C16A C17A 1_555 1_555
C16A C28A_2 1_555 1_555
C16A_2 C28A 1_555 1_555
C18A C29A_2 1_555 1_555
C18A_2 C29A 1_555 1_555
C20A C45A 1_555 1_555
C23A C24A 1_555 1_555
C25A_2 C26A 1_555 1_555
C27A C41A 1_555 1_555
C32A C38A 1_555 1_555
C36A C37A_2 1_555 1_555
C36A_2 C37A 1_555 1_555
C38A C39A 1_555 1_555
C40A C58A_2 1_555 1_555
C40A_2 C58A 1_555 1_555
C46A C47_2 1_555 1_555
C46_2 C47A_2 1_555 1_555
C51A C52A 1_555 1_555
C51A C54_2 1_555 1_555
C51_2 C54A_2 1_555 1_555
C53A C55_2 1_555 1_555
C53_2 C55A_2 1_555 1_555

#END
