
#######################################################################
#
#                 Cambridge Crystallographic Data Centre
#                                CCDC 
#
#######################################################################
#
# If this CIF has been generated from an entry in the Cambridge 
# Structural Database, then it will include bibliographic, chemical, 
# crystal, experimental, refinement or atomic coordinate data resulting 
# from the CCDC's data processing and validation procedures.
#
#######################################################################

data_PEPHID
_symmetry_cell_setting           triclinic
_symmetry_space_group_name_H-M   'P -1'
_symmetry_Int_Tables_number      2
_space_group_name_Hall           '-P 1'
loop_
_symmetry_equiv_pos_site_id
_symmetry_equiv_pos_as_xyz
1 x,y,z
2 -x,-y,-z
_cell_length_a                   8.4950(17)
_cell_length_b                   9.3854(19)
_cell_length_c                   11.552(2)
_cell_angle_alpha                81.95(3)
_cell_angle_beta                 76.99(3)
_cell_angle_gamma                69.90(3)
_cell_volume                     840.752
loop_
_atom_site_label
_atom_site_type_symbol
_atom_site_fract_x
_atom_site_fract_y
_atom_site_fract_z
Zn1 Zn 0.74376(5) 0.76922(5) 0.03891(4)
Zn2 Zn 0.09274(5) 0.57713(4) 0.18923(4)
C1 C 0.8019(4) -0.1365(4) 0.6736(3)
C2 C 0.4619(5) 0.6138(4) 0.1464(3)
C3 C 0.7459(5) 0.0211(4) 0.6575(3)
H1 H 0.7012 0.0793 0.7234
O1 O 0.7463(4) -0.1216(3) 0.8811(2)
O2 O 1.0111(4) -0.3844(3) 0.3626(2)
N1 N 0.3128(4) 0.6233(4) 0.1171(3)
O3 O 0.6739(4) 0.9405(3) 0.1466(3)
N2 N 0.5319(4) 0.7060(3) 0.0701(3)
O4 O 0.8382(4) -0.3493(3) 0.8162(2)
O5 O 0.9505(4) 0.6254(4) 0.0707(3)
O6 O 0.9539(4) -0.1708(3) 0.2518(3)
N3 N 0.2954(4) 0.7226(4) 0.0205(3)
C4 C 0.8779(5) -0.1530(4) 0.4610(3)
C5 C 0.8668(5) -0.2253(4) 0.5748(3)
H2 H 0.9018 -0.3309 0.5852
C6 C 0.7962(5) -0.2093(4) 0.7975(3)
C7 C 0.9520(5) -0.2409(4) 0.3521(3)
C8 C 0.8240(5) 0.0051(4) 0.4446(3)
H3 H 0.8330 0.0526 0.3683
N4 N 0.4254(4) 0.7723(4) -0.0074(3)
O7 O 0.7125(4) 0.2481(3) 0.5358(2)
C9 C 0.5311(4) 0.5174(4) 0.2457(3)
C10 C 0.7564(4) 0.0917(4) 0.5442(3)
C11 C 0.6389(5) 0.5528(4) 0.3036(3)
H4 H 0.6691 0.6401 0.2788
C12 C 0.6552(5) 0.3305(4) 0.4365(3)
C13 C 0.7015(5) 0.4581(4) 0.3981(3)
H5 H 0.7749 0.4813 0.4354
C14 C 0.4856(5) 0.3869(4) 0.2870(4)
H6 H 0.4129 0.3624 0.2498
C15 C 0.5459(5) 0.2945(4) 0.3810(4)
H7 H 0.5139 0.2083 0.4074
H8 H 0.593(6) 1.024(4) 0.144(6)
H9 H 0.773(4) 0.925(7) 0.159(6)
Zn1_2 Zn 0.74376(5) -0.23078(5) 1.03891(4)
Zn2_2 Zn 1.09274(5) -0.42287(4) 0.18923(4)
Zn2_3 Zn 1.09274(5) 0.57713(4) 0.18923(4)
Zn2A Zn 0.90726(5) -0.57713(4) 0.81077(4)
O1_2 O 0.7463(4) 0.8784(3) -0.1189(2)
O2_2 O 0.0111(4) 0.6156(3) 0.3626(2)
O4A O 0.1618(4) 0.3493(3) 0.1838(2)
O5_2 O -0.0495(4) 0.6254(4) 0.0707(3)
O6_2 O -0.0461(4) 0.8292(3) 0.2518(3)
loop_
_geom_bond_atom_site_label_1
_geom_bond_atom_site_label_2
_geom_bond_site_symmetry_1
_geom_bond_site_symmetry_2
Zn1 O3 1_555 1_555
Zn2 N1 1_555 1_555
C1 C3 1_555 1_555
C2 N1 1_555 1_555
C3 H1 1_555 1_555
O1 C6 1_555 1_555
O2 C7 1_555 1_555
N1 N3 1_555 1_555
O3 H8 1_555 1_555
N2 Zn1 1_555 1_555
O4 C6 1_555 1_555
O5 Zn1 1_555 1_555
O6 C7 1_555 1_555
N3 N4 1_555 1_555
C4 C5 1_555 1_555
C5 C1 1_555 1_555
H2 C5 1_555 1_555
C6 C1 1_555 1_555
C7 C4 1_555 1_555
C8 C4 1_555 1_555
H3 C8 1_555 1_555
N4 N2 1_555 1_555
O7 C10 1_555 1_555
C9 C2 1_555 1_555
C10 C3 1_555 1_555
C11 C9 1_555 1_555
H4 C11 1_555 1_555
C12 O7 1_555 1_555
C13 C11 1_555 1_555
H5 C13 1_555 1_555
C14 C9 1_555 1_555
H6 C14 1_555 1_555
C15 C12 1_555 1_555
H7 C15 1_555 1_555
H9 O3 1_555 1_555
Zn1_2 O1 1_555 1_555
Zn2_2 O2 1_555 1_555
Zn2_3 O5 1_555 1_555
Zn2A O4 1_555 1_555
O1_2 Zn1 1_555 1_555
O2_2 Zn2 1_555 1_555
O4A Zn2 1_555 1_555
O5_2 Zn2 1_555 1_555
O6_2 Zn2 1_555 1_555
C2 N2 1_555 1_555
O6 Zn2_2 1_555 1_555
C8 C10 1_555 1_555
C12 C13 1_555 1_555
C14 C15 1_555 1_555

#END
