
#######################################################################
#
#                 Cambridge Crystallographic Data Centre
#                                CCDC 
#
#######################################################################
#
# If this CIF has been generated from an entry in the Cambridge 
# Structural Database, then it will include bibliographic, chemical, 
# crystal, experimental, refinement or atomic coordinate data resulting 
# from the CCDC's data processing and validation procedures.
#
#######################################################################

data_PEPHIA
_symmetry_cell_setting           monoclinic
_symmetry_space_group_name_H-M   'P 21/a'
_symmetry_Int_Tables_number      14
_space_group_name_Hall           '-P 2yab'
loop_
_symmetry_equiv_pos_site_id
_symmetry_equiv_pos_as_xyz
1 x,y,z
2 1/2-x,1/2+y,-z
3 -x,-y,-z
4 1/2+x,1/2-y,z
_cell_length_a                   19.234(5)
_cell_length_b                   11.821(2)
_cell_length_c                   21.584(8)
_cell_angle_alpha                90
_cell_angle_beta                 110.6(3)
_cell_angle_gamma                90
_cell_volume                     4593.66
loop_
_atom_site_label
_atom_site_type_symbol
_atom_site_fract_x
_atom_site_fract_y
_atom_site_fract_z
Sn1 Sn 0.21167(2) 0.06967(2) 0.21786(1)
Sn2 Sn 0.44877(2) 0.38027(2) 0.26318(1)
S1 S 0.36486(7) 0.0488(1) 0.07105(6)
S2 S 0.10680(1) -0.2376(1) 0.35028(6)
O1 O 0.2929(2) 0.0906(2) 0.1698(1)
O2 O 0.3647(2) 0.2289(2) 0.2268(1)
O3 O 0.1140(2) 0.0495(2) 0.2589(1)
O4 O 0.0296(1) -0.0210(2) 0.2966(1)
N1 N 0.4301(2) -0.0566(3) 0.1862(2)
N2 N 0.3882(3) -0.1661(4) 0.0868(2)
N3 N 0.1192(3) -0.0968(4) 0.4493(2)
N4 N 0.0404(3) -0.2565(4) 0.4343(2)
C1 C 0.3450(2) 0.1601(3) 0.1797(2)
C2 C 0.3851(2) 0.1602(3) 0.1304(2)
C3 C 0.3989(3) -0.0697(4) 0.1212(2)
C4 C 0.4526(3) -0.1510(5) 0.2206(3)
C5 C 0.4436(3) -0.2561(5) 0.1909(3)
C6 C 0.4120(4) -0.2586(5) 0.1238(3)
C7 C 0.0930(2) -0.0231(3) 0.2906(2)
C8 C 0.1461(3) -0.1165(4) 0.3254(3)
C9 C 0.0873(3) -0.1886(4) 0.4194(2)
C10 C 0.0236(4) -0.2250(7) 0.4867(4)
C11 C 0.0532(6) -0.1333(8) 0.5216(4)
C12 C 0.1002(5) -0.0693(7) 0.5026(4)
C13 C 0.2885(2) 0.0621(4) 0.3162(2)
C14 C 0.2737(3) 0.1118(4) 0.3692(3)
C15 C 0.3236(3) 0.0981(5) 0.4336(3)
C16 C 0.3875(3) 0.0353(5) 0.4450(3)
C17 C 0.4026(3) -0.0126(6) 0.3938(3)
C18 C 0.3534(3) 0.0011(5) 0.3297(3)
C19 C 0.1846(3) -0.0913(3) 0.1702(2)
C20 C 0.2390(3) -0.1613(5) 0.1682(4)
C21 C 0.2243(4) -0.2660(6) 0.1385(5)
C22 C 0.1545(4) -0.3011(6) 0.1084(4)
C23 C 0.0979(4) -0.2322(6) 0.1084(3)
C24 C 0.1136(3) -0.1278(5) 0.1398(3)
C25 C 0.1545(2) 0.2171(3) 0.1717(2)
C26 C 0.1452(3) 0.2396(5) 0.1062(2)
C27 C 0.1066(3) 0.3349(6) 0.0748(3)
C28 C 0.0780(3) 0.4092(5) 0.1087(4)
C29 C 0.0880(3) 0.3883(5) 0.1746(3)
C30 C 0.1254(3) 0.2929(4) 0.2053(2)
C31 C 0.4180(2) 0.4222(3) 0.1611(2)
C32 C 0.4637(3) 0.4144(4) 0.1241(2)
C33 C 0.4345(4) 0.4318(5) 0.0563(3)
C34 C 0.3604(5) 0.4558(5) 0.0259(3)
C35 C 0.3152(3) 0.4643(5) 0.0625(3)
C36 C 0.3428(3) 0.4479(4) 0.1291(3)
C37 C 0.3760(2) 0.4669(4) 0.3026(2)
C38 C 0.3118(3) 0.4177(5) 0.3039(3)
C39 C 0.2630(3) 0.4776(7) 0.3258(4)
C40 C 0.2777(3) 0.5848(6) 0.3473(3)
C41 C 0.3414(3) 0.6353(5) 0.3479(3)
C42 C 0.3899(3) 0.5767(4) 0.3246(3)
C43 C 0.5263(2) 0.2655(3) 0.3283(2)
C44 C 0.5250(3) 0.1491(4) 0.3182(3)
C45 C 0.5768(3) 0.0792(5) 0.3623(3)
C46 C 0.6301(3) 0.1230(5) 0.4169(3)
C47 C 0.6322(3) 0.2369(5) 0.4282(2)
C48 C 0.5809(3) 0.3082(4) 0.3843(2)
O4C O 0.5296(1) 0.5210(2) 0.2966(1)
Sn2C Sn -0.05123(2) 0.11973(2) 0.26318(1)
loop_
_geom_bond_atom_site_label_1
_geom_bond_atom_site_label_2
_geom_bond_site_symmetry_1
_geom_bond_site_symmetry_2
Sn1 O1 1_555 1_555
Sn2 O2 1_555 1_555
S1 C2 1_555 1_555
S2 C8 1_555 1_555
O1 C1 1_555 1_555
O2 C1 1_555 1_555
O3 Sn1 1_555 1_555
O4 C7 1_555 1_555
N1 C3 1_555 1_555
N2 C3 1_555 1_555
N3 C9 1_555 1_555
N4 C9 1_555 1_555
C1 C2 1_555 1_555
C3 S1 1_555 1_555
C4 N1 1_555 1_555
C5 C4 1_555 1_555
C6 N2 1_555 1_555
C7 O3 1_555 1_555
C8 C7 1_555 1_555
C9 S2 1_555 1_555
C10 N4 1_555 1_555
C11 C10 1_555 1_555
C12 N3 1_555 1_555
C13 Sn1 1_555 1_555
C14 C13 1_555 1_555
C15 C14 1_555 1_555
C16 C15 1_555 1_555
C17 C16 1_555 1_555
C18 C13 1_555 1_555
C19 Sn1 1_555 1_555
C20 C19 1_555 1_555
C21 C20 1_555 1_555
C22 C21 1_555 1_555
C23 C22 1_555 1_555
C24 C19 1_555 1_555
C25 Sn1 1_555 1_555
C26 C25 1_555 1_555
C27 C26 1_555 1_555
C28 C27 1_555 1_555
C29 C28 1_555 1_555
C30 C25 1_555 1_555
C31 Sn2 1_555 1_555
C32 C31 1_555 1_555
C33 C32 1_555 1_555
C34 C33 1_555 1_555
C35 C34 1_555 1_555
C36 C31 1_555 1_555
C37 Sn2 1_555 1_555
C38 C37 1_555 1_555
C39 C38 1_555 1_555
C40 C39 1_555 1_555
C41 C40 1_555 1_555
C42 C37 1_555 1_555
C43 Sn2 1_555 1_555
C44 C43 1_555 1_555
C45 C44 1_555 1_555
C46 C45 1_555 1_555
C47 C46 1_555 1_555
C48 C43 1_555 1_555
O4C Sn2 1_555 1_555
Sn2C O4 1_555 1_555
C5 C6 1_555 1_555
C11 C12 1_555 1_555
C17 C18 1_555 1_555
C23 C24 1_555 1_555
C29 C30 1_555 1_555
C35 C36 1_555 1_555
C41 C42 1_555 1_555
C47 C48 1_555 1_555

#END
