
#######################################################################
#
#                 Cambridge Crystallographic Data Centre
#                                CCDC 
#
#######################################################################
#
# If this CIF has been generated from an entry in the Cambridge 
# Structural Database, then it will include bibliographic, chemical, 
# crystal, experimental, refinement or atomic coordinate data resulting 
# from the CCDC's data processing and validation procedures.
#
#######################################################################

data_PEPLIG
_symmetry_cell_setting           orthorhombic
_symmetry_space_group_name_H-M   'P 21 21 21'
_symmetry_Int_Tables_number      19
_space_group_name_Hall           'P 2ac 2ab'
loop_
_symmetry_equiv_pos_site_id
_symmetry_equiv_pos_as_xyz
1 x,y,z
2 1/2-x,-y,1/2+z
3 -x,1/2+y,1/2-z
4 1/2+x,1/2-y,-z
_cell_length_a                   6.7858(10)
_cell_length_b                   12.6180(19)
_cell_length_c                   17.086(3)
_cell_angle_alpha                90
_cell_angle_beta                 90
_cell_angle_gamma                90
_cell_volume                     1462.96
loop_
_atom_site_label
_atom_site_type_symbol
_atom_site_fract_x
_atom_site_fract_y
_atom_site_fract_z
S1 S -0.8905(13) 0.3994(5) -0.0230(4)
C1 C -0.6759(13) 0.4130(9) -0.0778(6)
H1 H -0.5824 0.4662 -0.0716
C2 C -0.6666(16) 0.3323(8) -0.1318(6)
H2 H -0.5652 0.3238 -0.1678
C3 C -0.8290(18) 0.2645(7) -0.1256(6)
H3 H -0.8366 0.2035 -0.1559
C4 C -0.9764(19) 0.2896(8) -0.0743(7)
H4 H -1.0967 0.2553 -0.0681
V1 V 0.05886(7) 0.73460(4) -0.00074(4)
O1 O -0.2224(3) 0.81466(17) 0.00396(16)
O2 O -0.0620(5) 0.6551(2) -0.08833(16)
O3 O -0.4410(5) 0.3650(2) -0.42387(16)
O4 O -0.1096(5) 0.3495(3) -0.42316(17)
O5 O -0.3902(5) 0.6701(2) -0.08930(16)
C5 C -0.2393(7) 0.5744(3) -0.1907(2)
C6 C -0.0695(8) 0.5275(4) -0.2199(3)
H5 H 0.0505 0.5364 -0.1944
C7 C -0.2274(7) 0.6375(4) -0.1174(2)
C8 C -0.4256(8) 0.5033(4) -0.2974(3)
H6 H -0.5453 0.4955 -0.3233
C9 C -0.4173(7) 0.5634(4) -0.2301(2)
H7 H -0.5302 0.5963 -0.2111
C10 C -0.2603(7) 0.4550(3) -0.3268(2)
C11 C -0.0810(7) 0.4670(4) -0.2881(3)
H8 H 0.0315 0.4345 -0.3079
C12 C -0.2702(7) 0.3846(3) -0.3968(2)
V1A V -0.55886(7) 0.26540(4) -0.50074(4)
V1B V -0.05886(7) 0.23460(4) -0.49926(4)
V1C V -0.44114(7) 0.76540(4) 0.00074(4)
O1C O 0.2776(3) 0.68534(17) -0.00396(16)
O3A O -0.0590(5) 0.6350(2) 0.07613(16)
O4B O 0.1096(5) 0.8495(3) -0.07684(17)
O5C O 0.1098(5) 0.8299(2) 0.08930(16)
loop_
_geom_bond_atom_site_label_1
_geom_bond_atom_site_label_2
_geom_bond_site_symmetry_1
_geom_bond_site_symmetry_2
S1 C1 1_555 1_555
C1 H1 1_555 1_555
C2 C1 1_555 1_555
H2 C2 1_555 1_555
C3 C2 1_555 1_555
H3 C3 1_555 1_555
C4 S1 1_555 1_555
H4 C4 1_555 1_555
V1 O1 1_555 1_555
O1 V1C 1_555 1_555
O2 V1 1_555 1_555
O3 C12 1_555 1_555
O4 C12 1_555 1_555
O5 C7 1_555 1_555
C5 C6 1_555 1_555
C6 H5 1_555 1_555
C7 O2 1_555 1_555
C8 H6 1_555 1_555
C9 C5 1_555 1_555
H7 C9 1_555 1_555
C10 C8 1_555 1_555
C11 C6 1_555 1_555
H8 C11 1_555 1_555
C12 C10 1_555 1_555
V1A O3 1_555 1_555
V1B O4 1_555 1_555
V1C O5 1_555 1_555
O1C V1 1_555 1_555
O3A V1 1_555 1_555
O4B V1 1_555 1_555
O5C V1 1_555 1_555
C3 C4 1_555 1_555
C5 C7 1_555 1_555
C8 C9 1_555 1_555
C10 C11 1_555 1_555

#END
