
#######################################################################
#
#                 Cambridge Crystallographic Data Centre
#                                CCDC 
#
#######################################################################
#
# If this CIF has been generated from an entry in the Cambridge 
# Structural Database, then it will include bibliographic, chemical, 
# crystal, experimental, refinement or atomic coordinate data resulting 
# from the CCDC's data processing and validation procedures.
#
#######################################################################

data_PEPLEC
_symmetry_cell_setting           orthorhombic
_symmetry_space_group_name_H-M   'P 21 21 21'
_symmetry_Int_Tables_number      19
_space_group_name_Hall           'P 2ac 2ab'
loop_
_symmetry_equiv_pos_site_id
_symmetry_equiv_pos_as_xyz
1 x,y,z
2 1/2-x,-y,1/2+z
3 -x,1/2+y,1/2-z
4 1/2+x,1/2-y,-z
_cell_length_a                   6.7849(10)
_cell_length_b                   13.0309(19)
_cell_length_c                   16.851(2)
_cell_angle_alpha                90
_cell_angle_beta                 90
_cell_angle_gamma                90
_cell_volume                     1489.85
loop_
_atom_site_label
_atom_site_type_symbol
_atom_site_fract_x
_atom_site_fract_y
_atom_site_fract_z
C1 C 1.2704(5) 0.6323(2) 0.61301(13)
C2 C 1.2607(5) 0.5652(2) 0.68537(13)
C3 C 1.0822(5) 0.5508(3) 0.72343(16)
H1 H 0.9696 0.5828 0.7039
C4 C 1.0693(5) 0.4894(3) 0.79006(17)
H2 H 0.9486 0.4793 0.8150
C5 C 1.4202(5) 0.4591(3) 0.78213(17)
H3 H 1.5342 0.4296 0.8025
C6 C 1.4297(5) 0.5195(3) 0.71457(17)
H4 H 1.5496 0.5293 0.6889
C7 C 1.2280(5) 0.3753(2) 0.89051(14)
C8 C 1.2396(5) 0.4426(2) 0.81955(14)
O1 O 1.27884(17) 0.81290(9) 0.49881(11)
O2 O 1.1099(3) 0.66511(16) 0.58593(10)
O3 O 1.0604(4) 0.35603(16) 0.91872(10)
O4 O 1.4404(4) 0.65103(16) 0.58604(10)
O5 O 1.3890(3) 0.34023(16) 0.91691(11)
V1 V 1.05922(4) 0.76464(2) 0.49966(3)
O1C O 0.77884(17) 0.68710(9) 0.50119(11)
O3B O 0.9396(4) 0.85603(16) 0.58128(10)
O4C O 0.9404(4) 0.84897(16) 0.41396(10)
O5A O 1.1110(3) 0.65977(16) 0.41691(11)
V1C V 1.55922(4) 0.73536(2) 0.50034(3)
V1B V 0.94078(4) 0.26464(2) 1.00034(3)
V1A V 1.44078(4) 0.23536(2) 0.99966(3)
C9 C -0.0112(9) 0.1389(4) 0.4586(3)
C10 C 0.1648(13) 0.0854(3) 0.4671(3)
H5 H 0.1753 0.0337 0.5050
C11 C 0.3250(9) 0.1091(6) 0.4191(5)
H6 H 0.4427 0.0733 0.4248
C12 C 0.3093(11) 0.1863(7) 0.3626(5)
H7 H 0.4165 0.2022 0.3304
C13 C 0.1333(15) 0.2398(4) 0.3540(3)
H8 H 0.1228 0.2915 0.3162
C14 C -0.0269(10) 0.2161(4) 0.4020(4)
H9 H -0.1446 0.2519 0.3963
N1 N -0.172(2) 0.1127(8) 0.4961(6)
H10 H -0.1714 0.0606 0.5274
H11 H -0.2783 0.1475 0.4894
loop_
_geom_bond_atom_site_label_1
_geom_bond_atom_site_label_2
_geom_bond_site_symmetry_1
_geom_bond_site_symmetry_2
C1 C2 1_555 1_555
C2 C3 1_555 1_555
C3 H1 1_555 1_555
C4 C3 1_555 1_555
H2 C4 1_555 1_555
C5 H3 1_555 1_555
C6 C2 1_555 1_555
H4 C6 1_555 1_555
C7 C8 1_555 1_555
C8 C4 1_555 1_555
O1 V1 1_555 1_555
O2 C1 1_555 1_555
O3 C7 1_555 1_555
O4 C1 1_555 1_555
O5 C7 1_555 1_555
V1 O2 1_555 1_555
C9 C10 1_555 1_555
C10 H5 1_555 1_555
C11 C10 1_555 1_555
H6 C11 1_555 1_555
C12 C11 1_555 1_555
H7 C12 1_555 1_555
C13 C12 1_555 1_555
H8 C13 1_555 1_555
C14 C9 1_555 1_555
H9 C14 1_555 1_555
N1 C9 1_555 1_555
H10 N1 1_555 1_555
H11 N1 1_555 1_555
O1C V1 1_555 1_555
O3B V1 1_555 1_555
O4C V1 1_555 1_555
O5A V1 1_555 1_555
V1C O1 1_555 1_555
V1B O3 1_555 1_555
V1A O5 1_555 1_555
C5 C6 1_555 1_555
C5 C8 1_555 1_555
O4 V1C 1_555 1_555
C13 C14 1_555 1_555

#END
