
#######################################################################
#
#                 Cambridge Crystallographic Data Centre
#                                CCDC 
#
#######################################################################
#
# If this CIF has been generated from an entry in the Cambridge 
# Structural Database, then it will include bibliographic, chemical, 
# crystal, experimental, refinement or atomic coordinate data resulting 
# from the CCDC's data processing and validation procedures.
#
#######################################################################

data_PEPMAZ
_symmetry_cell_setting           tetragonal
_symmetry_space_group_name_H-M   'P -4'
_symmetry_Int_Tables_number      81
_space_group_name_Hall           'P -4'
loop_
_symmetry_equiv_pos_site_id
_symmetry_equiv_pos_as_xyz
1 x,y,z
2 -x,-y,z
3 y,-x,-z
4 -y,x,-z
_cell_length_a                   17.955(2)
_cell_length_b                   17.955(2)
_cell_length_c                   13.158(3)
_cell_angle_alpha                90
_cell_angle_beta                 90
_cell_angle_gamma                90
_cell_volume                     4241.9
loop_
_atom_site_label
_atom_site_type_symbol
_atom_site_fract_x
_atom_site_fract_y
_atom_site_fract_z
C1 C 0.7872(2) 0.5758(2) 1.1571(3)
C2 C 0.7329(2) 0.6113(2) 1.0983(3)
C3 C 0.7211(2) 0.6037(2) 1.2021(3)
N1 N 0.68196(18) 0.61391(18) 1.2859(2)
N2 N 0.71176(17) 0.63313(17) 1.0057(2)
C4 C 0.6075(2) 0.6489(2) 1.2825(3)
H1 H 0.6026 0.6743 1.2170
C5 C 0.5469(3) 0.5920(3) 1.2891(4)
H2 H 0.5536 0.5555 1.2365
H3 H 0.4995 0.6158 1.2808
H4 H 0.5488 0.5680 1.3543
C6 C 0.5991(3) 0.7074(3) 1.3661(3)
H5 H 0.6022 0.6837 1.4314
H6 H 0.5516 0.7316 1.3595
H7 H 0.6381 0.7437 1.3600
C7 C 0.7115(3) 0.5801(3) 1.3809(3)
H8 H 0.6730 0.5860 1.4331
C8 C 0.7248(3) 0.4966(3) 1.3681(4)
H9 H 0.6792 0.4728 1.3483
H10 H 0.7417 0.4760 1.4314
H11 H 0.7619 0.4886 1.3167
C9 C 0.7791(3) 0.6217(3) 1.4171(4)
H12 H 0.8185 0.6162 1.3684
H13 H 0.7948 0.6019 1.4814
H14 H 0.7671 0.6735 1.4246
C10 C 0.6413(2) 0.6716(2) 0.9874(3)
H15 H 0.6195 0.6841 1.0536
C11 C 0.6529(3) 0.7433(2) 0.9296(3)
H16 H 0.6906 0.7724 0.9626
H17 H 0.6071 0.7709 0.9280
H18 H 0.6683 0.7321 0.8614
C12 C 0.5868(2) 0.6218(3) 0.9318(3)
H19 H 0.6077 0.6074 0.8675
H20 H 0.5411 0.6483 0.9207
H21 H 0.5772 0.5781 0.9718
C13 C 0.76112(19) 0.6128(2) 0.9202(3)
H22 H 0.7361 0.6291 0.8578
C14 C 0.8342(2) 0.6547(2) 0.9256(3)
H23 H 0.8246 0.7072 0.9287
H24 H 0.8634 0.6438 0.8663
H25 H 0.8610 0.6396 0.9853
C15 C 0.7703(2) 0.5293(2) 0.9125(3)
H26 H 0.7958 0.5112 0.9718
H27 H 0.7989 0.5174 0.8530
H28 H 0.7222 0.5063 0.9079
C16 C 1.0951(2) 0.7011(2) 0.5731(3)
C17 C 1.1255(2) 0.7643(2) 0.5285(3)
C18 C 1.1222(2) 0.7597(2) 0.6314(3)
N3 N 1.13270(19) 0.78642(19) 0.7228(3)
N4 N 1.1435(2) 0.7991(2) 0.4421(3)
C19 C 1.1086(2) 0.7418(2) 0.8129(3)
H29 H 1.1201 0.7711 0.8738
C20 C 1.1522(2) 0.6702(2) 0.8197(3)
H30 H 1.1435 0.6410 0.7597
H31 H 1.1364 0.6427 0.8785
H32 H 1.2043 0.6813 0.8253
C21 C 1.0247(2) 0.7294(3) 0.8110(3)
H33 H 0.9998 0.7764 0.8044
H34 H 1.0094 0.7057 0.8731
H35 H 1.0120 0.6981 0.7545
C22 C 1.1657(3) 0.8599(2) 0.7397(4)
H36 H 1.1821 0.8788 0.6735
C23 C 1.1083(3) 0.9143(3) 0.7809(5)
H37 H 1.0652 0.9142 0.7377
H38 H 1.1292 0.9635 0.7826
H39 H 1.0941 0.8997 0.8483
C24 C 1.2348(2) 0.8567(3) 0.8095(4)
H40 H 1.2210 0.8361 0.8741
H41 H 1.2541 0.9061 0.8191
H42 H 1.2723 0.8260 0.7787
C25 C 1.1281(3) 0.7604(3) 0.3444(3)
H43 H 1.1434 0.7936 0.2890
C26 C 1.1737(3) 0.6888(3) 0.3361(4)
H44 H 1.2256 0.7002 0.3442
H45 H 1.1657 0.6666 0.2707
H46 H 1.1585 0.6547 0.3884
C27 C 1.0452(3) 0.7437(3) 0.3312(4)
H47 H 1.0305 0.7059 0.3788
H48 H 1.0362 0.7264 0.2633
H49 H 1.0169 0.7881 0.3433
C28 C 1.1743(3) 0.8742(3) 0.4421(4)
H50 H 1.1833 0.8874 0.5133
C29 C 1.2482(3) 0.8787(4) 0.3890(5)
H51 H 1.2818 0.8432 0.4183
H52 H 1.2683 0.9280 0.3967
H53 H 1.2417 0.8680 0.3181
C30 C 1.1193(3) 0.9298(3) 0.4016(4)
H54 H 1.1107 0.9205 0.3308
H55 H 1.1388 0.9792 0.4101
H56 H 1.0732 0.9253 0.4381
B1 B 1.0362(3) 0.6018(3) 1.0609(4)
F1 F 0.96841(12) 0.59647(13) 1.11314(16)
F2 F 1.08798(12) 0.55740(12) 1.10919(17)
F3 F 1.05911(13) 0.67406(12) 1.05756(16)
F4 F 1.02456(14) 0.57489(12) 0.96232(17)
B2 B 0.9010(3) 0.5420(3) 0.6764(4)
F5 F 0.92588(13) 0.52403(15) 0.77503(16)
F6 F 0.83478(12) 0.57899(13) 0.68123(15)
F7 F 0.95537(12) 0.58653(13) 0.63148(17)
F8 F 0.89402(12) 0.47786(12) 0.62135(17)
B3 B 1.0000 0.5000 1.3652(5)
F9 F 1.02119(14) 0.55917(13) 1.42747(17)
F10 F 0.94097(13) 0.52091(14) 1.30649(16)
Li1 Li 0.8981(4) 0.5344(4) 1.1751(5)
Li2 Li 1.0000 0.5000 0.8687(6)
Li3 Li 1.0470(4) 0.5953(4) 0.5606(5)
C1A C 1.2128(2) 0.4242(2) 1.1571(3)
C2A C 1.2671(2) 0.3887(2) 1.0983(3)
C3A C 1.2789(2) 0.3963(2) 1.2021(3)
N1A N 1.31804(18) 0.38609(18) 1.2859(2)
N2A N 1.28824(17) 0.36687(17) 1.0057(2)
C4A C 1.3925(2) 0.3511(2) 1.2825(3)
H1A H 1.3974 0.3257 1.2170
C5A C 1.4531(3) 0.4080(3) 1.2891(4)
H2A H 1.4464 0.4445 1.2365
H3A H 1.5005 0.3842 1.2808
H4A H 1.4512 0.4320 1.3543
C6A C 1.4009(3) 0.2926(3) 1.3661(3)
H5A H 1.3978 0.3163 1.4314
H6A H 1.4484 0.2684 1.3595
H7A H 1.3619 0.2563 1.3600
C7A C 1.2885(3) 0.4199(3) 1.3809(3)
H8A H 1.3270 0.4140 1.4331
C8A C 1.2752(3) 0.5034(3) 1.3681(4)
H9A H 1.3208 0.5272 1.3483
H10A H 1.2583 0.5240 1.4314
H11A H 1.2381 0.5114 1.3167
C9A C 1.2209(3) 0.3783(3) 1.4171(4)
H12A H 1.1815 0.3838 1.3684
H13A H 1.2052 0.3981 1.4814
H14A H 1.2329 0.3265 1.4246
C10A C 1.3587(2) 0.3284(2) 0.9874(3)
H15A H 1.3805 0.3159 1.0536
C11A C 1.3471(3) 0.2567(2) 0.9296(3)
H16A H 1.3094 0.2276 0.9626
H17A H 1.3929 0.2291 0.9280
H18A H 1.3317 0.2679 0.8614
C12A C 1.4132(2) 0.3782(3) 0.9318(3)
H19A H 1.3923 0.3926 0.8675
H20A H 1.4589 0.3517 0.9207
H21A H 1.4228 0.4219 0.9718
C13A C 1.23888(19) 0.3872(2) 0.9202(3)
H22A H 1.2639 0.3709 0.8578
C14A C 1.1658(2) 0.3453(2) 0.9256(3)
H23A H 1.1754 0.2928 0.9287
H24A H 1.1366 0.3562 0.8663
H25A H 1.1390 0.3604 0.9853
C15A C 1.2297(2) 0.4707(2) 0.9125(3)
H26A H 1.2042 0.4888 0.9718
H27A H 1.2011 0.4826 0.8530
H28A H 1.2778 0.4937 0.9079
C16A C 0.9049(2) 0.2989(2) 0.5731(3)
C17A C 0.8745(2) 0.2357(2) 0.5285(3)
C18A C 0.8778(2) 0.2403(2) 0.6314(3)
N3A N 0.86730(19) 0.21358(19) 0.7228(3)
N4A N 0.8565(2) 0.2009(2) 0.4421(3)
C19A C 0.8914(2) 0.2582(2) 0.8129(3)
H29A H 0.8799 0.2289 0.8738
C20A C 0.8478(2) 0.3298(2) 0.8197(3)
H30A H 0.8565 0.3590 0.7597
H31A H 0.8636 0.3573 0.8785
H32A H 0.7957 0.3187 0.8253
C21A C 0.9753(2) 0.2706(3) 0.8110(3)
H33A H 1.0002 0.2236 0.8044
H34A H 0.9906 0.2943 0.8731
H35A H 0.9880 0.3019 0.7545
C22A C 0.8343(3) 0.1401(2) 0.7397(4)
H36A H 0.8179 0.1212 0.6735
C23A C 0.8917(3) 0.0857(3) 0.7809(5)
H37A H 0.9348 0.0858 0.7377
H38A H 0.8708 0.0365 0.7826
H39A H 0.9059 0.1003 0.8483
C24A C 0.7652(2) 0.1433(3) 0.8095(4)
H40A H 0.7790 0.1639 0.8741
H41A H 0.7459 0.0939 0.8191
H42A H 0.7277 0.1740 0.7787
C25A C 0.8719(3) 0.2396(3) 0.3444(3)
H43A H 0.8566 0.2064 0.2890
C26A C 0.8263(3) 0.3112(3) 0.3361(4)
H44A H 0.7744 0.2998 0.3442
H45A H 0.8343 0.3334 0.2707
H46A H 0.8415 0.3453 0.3884
C27A C 0.9548(3) 0.2563(3) 0.3312(4)
H47A H 0.9695 0.2941 0.3788
H48A H 0.9638 0.2736 0.2633
H49A H 0.9831 0.2119 0.3433
C28A C 0.8257(3) 0.1258(3) 0.4421(4)
H50A H 0.8167 0.1126 0.5133
C29A C 0.7518(3) 0.1213(4) 0.3890(5)
H51A H 0.7182 0.1568 0.4183
H52A H 0.7317 0.0720 0.3967
H53A H 0.7583 0.1320 0.3181
C30A C 0.8807(3) 0.0702(3) 0.4016(4)
H54A H 0.8893 0.0795 0.3308
H55A H 0.8612 0.0208 0.4101
H56A H 0.9268 0.0747 0.4381
B1A B 0.9638(3) 0.3982(3) 1.0609(4)
F1A F 1.03159(12) 0.40353(13) 1.11314(16)
F2A F 0.91202(12) 0.44260(12) 1.10919(17)
F3A F 0.94089(13) 0.32594(12) 1.05756(16)
F4A F 0.97544(14) 0.42511(12) 0.96232(17)
B2A B 1.0990(3) 0.4580(3) 0.6764(4)
F5A F 1.07412(13) 0.47597(15) 0.77503(16)
F6A F 1.16522(12) 0.42101(13) 0.68123(15)
F7A F 1.04463(12) 0.41347(13) 0.63148(17)
F8A F 1.10598(12) 0.52214(12) 0.62135(17)
F9A F 0.97881(14) 0.44083(13) 1.42747(17)
F9_2 F 1.02119(14) 0.55917(13) 0.42747(17)
F9A_2 F 0.97881(14) 0.44083(13) 0.42747(17)
F10A F 1.05903(13) 0.47909(14) 1.30649(16)
Li1A Li 1.1019(4) 0.4656(4) 1.1751(5)
Li3A Li 0.9530(4) 0.4047(4) 0.5606(5)
Li3_2 Li 1.0470(4) 0.5953(4) 1.5606(5)
Li3A_2 Li 0.9530(4) 0.4047(4) 1.5606(5)
loop_
_geom_bond_atom_site_label_1
_geom_bond_atom_site_label_2
_geom_bond_site_symmetry_1
_geom_bond_site_symmetry_2
C1 C2 1_555 1_555
C2 C3 1_555 1_555
C3 C1 1_555 1_555
N1 C3 1_555 1_555
N2 C2 1_555 1_555
C4 N1 1_555 1_555
H1 C4 1_555 1_555
C5 C4 1_555 1_555
H2 C5 1_555 1_555
H3 C5 1_555 1_555
H4 C5 1_555 1_555
C6 C4 1_555 1_555
H5 C6 1_555 1_555
H6 C6 1_555 1_555
H7 C6 1_555 1_555
C7 N1 1_555 1_555
H8 C7 1_555 1_555
C8 C7 1_555 1_555
H9 C8 1_555 1_555
H10 C8 1_555 1_555
H11 C8 1_555 1_555
C9 C7 1_555 1_555
H12 C9 1_555 1_555
H13 C9 1_555 1_555
H14 C9 1_555 1_555
C10 N2 1_555 1_555
H15 C10 1_555 1_555
C11 C10 1_555 1_555
H16 C11 1_555 1_555
H17 C11 1_555 1_555
H18 C11 1_555 1_555
C12 C10 1_555 1_555
H19 C12 1_555 1_555
H20 C12 1_555 1_555
H21 C12 1_555 1_555
C13 N2 1_555 1_555
H22 C13 1_555 1_555
C14 C13 1_555 1_555
H23 C14 1_555 1_555
H24 C14 1_555 1_555
H25 C14 1_555 1_555
C15 C13 1_555 1_555
H26 C15 1_555 1_555
H27 C15 1_555 1_555
H28 C15 1_555 1_555
C16 C17 1_555 1_555
C17 C18 1_555 1_555
C18 C16 1_555 1_555
N3 C18 1_555 1_555
N4 C17 1_555 1_555
C19 N3 1_555 1_555
H29 C19 1_555 1_555
C20 C19 1_555 1_555
H30 C20 1_555 1_555
H31 C20 1_555 1_555
H32 C20 1_555 1_555
C21 C19 1_555 1_555
H33 C21 1_555 1_555
H34 C21 1_555 1_555
H35 C21 1_555 1_555
C22 N3 1_555 1_555
H36 C22 1_555 1_555
C23 C22 1_555 1_555
H37 C23 1_555 1_555
H38 C23 1_555 1_555
H39 C23 1_555 1_555
C24 C22 1_555 1_555
H40 C24 1_555 1_555
H41 C24 1_555 1_555
H42 C24 1_555 1_555
C25 N4 1_555 1_555
H43 C25 1_555 1_555
C26 C25 1_555 1_555
H44 C26 1_555 1_555
H45 C26 1_555 1_555
H46 C26 1_555 1_555
C27 C25 1_555 1_555
H47 C27 1_555 1_555
H48 C27 1_555 1_555
H49 C27 1_555 1_555
C28 N4 1_555 1_555
H50 C28 1_555 1_555
C29 C28 1_555 1_555
H51 C29 1_555 1_555
H52 C29 1_555 1_555
H53 C29 1_555 1_555
C30 C28 1_555 1_555
H54 C30 1_555 1_555
H55 C30 1_555 1_555
H56 C30 1_555 1_555
B1 F1 1_555 1_555
F1 Li1 1_555 1_555
F2 B1 1_555 1_555
F3 B1 1_555 1_555
F4 B1 1_555 1_555
B2 F5 1_555 1_555
F5 Li2 1_555 1_555
F6 B2 1_555 1_555
F7 B2 1_555 1_555
F8 B2 1_555 1_555
B3 F9 1_555 1_555
F9 Li3_2 1_555 1_555
F10 B3 1_555 1_555
Li1 C1 1_555 1_555
Li2 F4 1_555 1_555
Li3 C16 1_555 1_555
C1A C2A 1_555 1_555
C2A C3A 1_555 1_555
C3A C1A 1_555 1_555
N1A C3A 1_555 1_555
N2A C2A 1_555 1_555
C4A N1A 1_555 1_555
H1A C4A 1_555 1_555
C5A C4A 1_555 1_555
H2A C5A 1_555 1_555
H3A C5A 1_555 1_555
H4A C5A 1_555 1_555
C6A C4A 1_555 1_555
H5A C6A 1_555 1_555
H6A C6A 1_555 1_555
H7A C6A 1_555 1_555
C7A N1A 1_555 1_555
H8A C7A 1_555 1_555
C8A C7A 1_555 1_555
H9A C8A 1_555 1_555
H10A C8A 1_555 1_555
H11A C8A 1_555 1_555
C9A C7A 1_555 1_555
H12A C9A 1_555 1_555
H13A C9A 1_555 1_555
H14A C9A 1_555 1_555
C10A N2A 1_555 1_555
H15A C10A 1_555 1_555
C11A C10A 1_555 1_555
H16A C11A 1_555 1_555
H17A C11A 1_555 1_555
H18A C11A 1_555 1_555
C12A C10A 1_555 1_555
H19A C12A 1_555 1_555
H20A C12A 1_555 1_555
H21A C12A 1_555 1_555
C13A N2A 1_555 1_555
H22A C13A 1_555 1_555
C14A C13A 1_555 1_555
H23A C14A 1_555 1_555
H24A C14A 1_555 1_555
H25A C14A 1_555 1_555
C15A C13A 1_555 1_555
H26A C15A 1_555 1_555
H27A C15A 1_555 1_555
H28A C15A 1_555 1_555
C16A C17A 1_555 1_555
C17A C18A 1_555 1_555
C18A C16A 1_555 1_555
N3A C18A 1_555 1_555
N4A C17A 1_555 1_555
C19A N3A 1_555 1_555
H29A C19A 1_555 1_555
C20A C19A 1_555 1_555
H30A C20A 1_555 1_555
H31A C20A 1_555 1_555
H32A C20A 1_555 1_555
C21A C19A 1_555 1_555
H33A C21A 1_555 1_555
H34A C21A 1_555 1_555
H35A C21A 1_555 1_555
C22A N3A 1_555 1_555
H36A C22A 1_555 1_555
C23A C22A 1_555 1_555
H37A C23A 1_555 1_555
H38A C23A 1_555 1_555
H39A C23A 1_555 1_555
C24A C22A 1_555 1_555
H40A C24A 1_555 1_555
H41A C24A 1_555 1_555
H42A C24A 1_555 1_555
C25A N4A 1_555 1_555
H43A C25A 1_555 1_555
C26A C25A 1_555 1_555
H44A C26A 1_555 1_555
H45A C26A 1_555 1_555
H46A C26A 1_555 1_555
C27A C25A 1_555 1_555
H47A C27A 1_555 1_555
H48A C27A 1_555 1_555
H49A C27A 1_555 1_555
C28A N4A 1_555 1_555
H50A C28A 1_555 1_555
C29A C28A 1_555 1_555
H51A C29A 1_555 1_555
H52A C29A 1_555 1_555
H53A C29A 1_555 1_555
C30A C28A 1_555 1_555
H54A C30A 1_555 1_555
H55A C30A 1_555 1_555
H56A C30A 1_555 1_555
B1A F1A 1_555 1_555
F1A Li1A 1_555 1_555
F2A Li1 1_555 1_555
F3A B1A 1_555 1_555
F4A Li2 1_555 1_555
B2A F5A 1_555 1_555
F5A Li2 1_555 1_555
F6A B2A 1_555 1_555
F7A B2A 1_555 1_555
F8A Li3 1_555 1_555
F9A B3 1_555 1_555
F9_2 Li3 1_555 1_555
F9A_2 Li3A 1_555 1_555
F10A B3 1_555 1_555
Li1A F2 1_555 1_555
Li3A F8 1_555 1_555
Li3A_2 F9A 1_555 1_555
F7 Li3 1_555 1_555
F10 Li1 1_555 1_555
C1A Li1A 1_555 1_555
C16A Li3A 1_555 1_555
B1A F2A 1_555 1_555
B1A F4A 1_555 1_555
B2A F8A 1_555 1_555
F7A Li3A 1_555 1_555
F10A Li1A 1_555 1_555

#END
