
#######################################################################
#
#                 Cambridge Crystallographic Data Centre
#                                CCDC 
#
#######################################################################
#
# If this CIF has been generated from an entry in the Cambridge 
# Structural Database, then it will include bibliographic, chemical, 
# crystal, experimental, refinement or atomic coordinate data resulting 
# from the CCDC's data processing and validation procedures.
#
#######################################################################

data_PEPPEF
_symmetry_cell_setting           orthorhombic
_symmetry_space_group_name_H-M   'P c a 21'
_symmetry_Int_Tables_number      29
_space_group_name_Hall           'P 2c -2ac'
loop_
_symmetry_equiv_pos_site_id
_symmetry_equiv_pos_as_xyz
1 x,y,z
2 1/2-x,y,1/2+z
3 1/2+x,-y,z
4 -x,-y,1/2+z
_cell_length_a                   19.510(1)
_cell_length_b                   6.095(4)
_cell_length_c                   24.266(5)
_cell_angle_alpha                90
_cell_angle_beta                 90
_cell_angle_gamma                90
_cell_volume                     2885.55
loop_
_atom_site_label
_atom_site_type_symbol
_atom_site_fract_x
_atom_site_fract_y
_atom_site_fract_z
Cs1 Cs 0.37136(5) 0.4632(3) 0.21190
Cs2 Cs 0.37246(5) 0.0299(3) 0.35095(6)
Ga1 Ga 0.2328(1) -0.0041(3) 0.2362(2)
Ga2 Ga 0.5111(1) 0.4944(4) 0.3284(2)
F1 F 0.3235(6) -0.093(2) 0.2370(6)
F2 F 0.2523(6) 0.268(2) 0.2671(6)
F3 F 0.4205(5) 0.571(3) 0.3305(6)
F4 F 0.4923(6) 0.224(3) 0.2991(6)
C1 C 0.204(1) 0.012(5) 0.162(1)
C2 C 0.1818(9) -0.188(3) 0.2891(9)
C3 C 0.541(1) 0.477(3) 0.410(1)
C4 C 0.5608(9) 0.674(4) 0.2764(9)
C5 C 0.2462(9) 0.162(3) 0.1241(9)
C6 C 0.3104(8) 0.090(4) 0.1045(9)
C7 C 0.350(1) 0.231(5) 0.071(1)
C8 C 0.328(1) 0.452(4) 0.0592(9)
C9 C 0.266(1) 0.511(5) 0.080(2)
C10 C 0.225(2) 0.383(5) 0.109(1)
C11 C 0.1995(8) -0.156(4) 0.3514(9)
C12 C 0.2329(9) -0.324(4) 0.377(1)
C13 C 0.254(1) -0.304(4) 0.431(1)
C14 C 0.2384(8) -0.090(4) 0.4577(9)
C15 C 0.210(1) 0.074(5) 0.433(1)
C16 C 0.1876(8) 0.039(4) 0.3752(8)
C17 C 0.4985(9) 0.309(4) 0.4422(9)
C18 C 0.516(1) 0.104(4) 0.458(1)
C19 C 0.474(1) -0.020(4) 0.4907(9)
C20 C 0.413(1) 0.041(5) 0.508(1)
C21 C 0.393(1) 0.264(5) 0.490(1)
C22 C 0.431(1) 0.400(4) 0.460(1)
C23 C 0.5404(8) 0.662(3) 0.2192(8)
C24 C 0.552(1) 0.464(4) 0.189(1)
C25 C 0.535(1) 0.471(6) 0.134(1)
C26 C 0.501(2) 0.625(6) 0.105(2)
C27 C 0.4862(9) 0.803(6) 0.134(1)
C28 C 0.504(1) 0.838(4) 0.190(1)
H1 H 0.157(1) 0.064(5) 0.162(1)
H2 H 0.205(1) -0.134(5) 0.147(1)
H3 H 0.1905(9) -0.339(3) 0.2799(9)
H4 H 0.1339(9) -0.157(3) 0.2844(9)
H5 H 0.534(1) 0.618(3) 0.427(1)
H6 H 0.588(1) 0.436(3) 0.412(1)
H7 H 0.6082(9) 0.633(4) 0.2785(9)
H8 H 0.5557(9) 0.824(4) 0.2879(9)
H9 H 0.3271(8) -0.053(4) 0.1139(9)
H10 H 0.393(1) 0.178(5) 0.055(1)
H11 H 0.356(1) 0.552(4) 0.0381(9)
H12 H 0.250(1) 0.657(5) 0.073(2)
H13 H 0.181(2) 0.436(5) 0.121(1)
H14 H 0.2413(9) -0.458(4) 0.358(1)
H15 H 0.278(1) -0.420(4) 0.450(1)
H16 H 0.2499(8) -0.073(4) 0.4959(9)
H17 H 0.203(1) 0.213(5) 0.451(1)
H18 H 0.1649(8) 0.154(4) 0.3552(8)
H19 H 0.559(1) 0.044(4) 0.446(1)
H20 H 0.490(1) -0.162(4) 0.5021(9)
H21 H 0.384(1) -0.052(5) 0.529(1)
H22 H 0.349(1) 0.317(5) 0.502(1)
H23 H 0.416(1) 0.545(4) 0.450(1)
H24 H 0.570(1) 0.334(4) 0.206(1)
H25 H 0.550(1) 0.346(6) 0.113(1)
H26 H 0.490(2) 0.609(6) 0.066(2)
H27 H 0.4611(9) 0.917(6) 0.115(1)
H28 H 0.492(1) 0.972(4) 0.209(1)
Cs2_2 Cs 0.37246(5) 1.0299(3) 0.35095(6)
F1_2 F 0.3235(6) 0.907(2) 0.2370(6)
Cs1_2 Cs 0.37136(5) -0.5368(3) 0.21190
F3_2 F 0.4205(5) -0.429(3) 0.3305(6)
loop_
_geom_bond_atom_site_label_1
_geom_bond_atom_site_label_2
_geom_bond_site_symmetry_1
_geom_bond_site_symmetry_2
Cs1 F1 1_555 1_555
Cs2 F1 1_555 1_555
Ga1 F1 1_555 1_555
Ga2 F3 1_555 1_555
F1 Cs1_2 1_555 1_555
F2 Cs1 1_555 1_555
F3 Cs1 1_555 1_555
F4 Cs1 1_555 1_555
C1 Ga1 1_555 1_555
C2 Ga1 1_555 1_555
C3 Ga2 1_555 1_555
C4 Ga2 1_555 1_555
C5 Cs1 1_555 1_555
C6 Cs1 1_555 1_555
C7 Cs1 1_555 1_555
C8 Cs1 1_555 1_555
C9 Cs1 1_555 1_555
C10 Cs1 1_555 1_555
C11 Cs2 1_555 1_555
C12 Cs2 1_555 1_555
C13 Cs2 1_555 1_555
C14 Cs2 1_555 1_555
C15 Cs2 1_555 1_555
C16 Cs2 1_555 1_555
C17 Cs2 1_555 1_555
C18 Cs2 1_555 1_555
C19 Cs2 1_555 1_555
C20 Cs2 1_555 1_555
C21 Cs2 1_555 1_555
C22 Cs2 1_555 1_555
C23 Cs1 1_555 1_555
C24 Cs1 1_555 1_555
C25 Cs1 1_555 1_555
C26 Cs1 1_555 1_555
C27 Cs1 1_555 1_555
C28 Cs1 1_555 1_555
H1 C1 1_555 1_555
H2 C1 1_555 1_555
H3 C2 1_555 1_555
H4 C2 1_555 1_555
H5 C3 1_555 1_555
H6 C3 1_555 1_555
H7 C4 1_555 1_555
H8 C4 1_555 1_555
H9 C6 1_555 1_555
H10 C7 1_555 1_555
H11 C8 1_555 1_555
H12 C9 1_555 1_555
H13 C10 1_555 1_555
H14 C12 1_555 1_555
H15 C13 1_555 1_555
H16 C14 1_555 1_555
H17 C15 1_555 1_555
H18 C16 1_555 1_555
H19 C18 1_555 1_555
H20 C19 1_555 1_555
H21 C20 1_555 1_555
H22 C21 1_555 1_555
H23 C22 1_555 1_555
H24 C24 1_555 1_555
H25 C25 1_555 1_555
H26 C26 1_555 1_555
H27 C27 1_555 1_555
H28 C28 1_555 1_555
Cs2_2 F3 1_555 1_555
F1_2 Cs1 1_555 1_555
Cs1_2 F3_2 1_555 1_555
F3_2 Cs2 1_555 1_555
Cs2 F2 1_555 1_555
Cs2 F3 1_555 1_555
Cs2 F4 1_555 1_555
Ga1 F2 1_555 1_555
Ga2 F4 1_555 1_555
C1 C5 1_555 1_555
C2 C11 1_555 1_555
C3 C17 1_555 1_555
C4 C23 1_555 1_555
C5 C6 1_555 1_555
C5 C10 1_555 1_555
C6 C7 1_555 1_555
C7 C8 1_555 1_555
C8 C9 1_555 1_555
C9 C10 1_555 1_555
C11 C12 1_555 1_555
C11 C16 1_555 1_555
C12 C13 1_555 1_555
C13 C14 1_555 1_555
C14 C15 1_555 1_555
C15 C16 1_555 1_555
C17 C18 1_555 1_555
C17 C22 1_555 1_555
C18 C19 1_555 1_555
C19 C20 1_555 1_555
C20 C21 1_555 1_555
C21 C22 1_555 1_555
C23 C24 1_555 1_555
C23 C28 1_555 1_555
C24 C25 1_555 1_555
C25 C26 1_555 1_555
C26 C27 1_555 1_555
C27 C28 1_555 1_555
Cs2_2 F1_2 1_555 1_555

#END
