
#######################################################################
#
#                 Cambridge Crystallographic Data Centre
#                                CCDC 
#
#######################################################################
#
# If this CIF has been generated from an entry in the Cambridge 
# Structural Database, then it will include bibliographic, chemical, 
# crystal, experimental, refinement or atomic coordinate data resulting 
# from the CCDC's data processing and validation procedures.
#
#######################################################################

data_PEPRIN
_symmetry_cell_setting           monoclinic
_symmetry_space_group_name_H-M   'C c'
_symmetry_Int_Tables_number      9
_space_group_name_Hall           'C -2yc'
loop_
_symmetry_equiv_pos_site_id
_symmetry_equiv_pos_as_xyz
1 x,y,z
2 x,-y,1/2+z
3 1/2+x,1/2+y,z
4 1/2+x,1/2-y,1/2+z
_cell_length_a                   16.1878(10)
_cell_length_b                   9.4716(5)
_cell_length_c                   22.6967(13)
_cell_angle_alpha                90
_cell_angle_beta                 97.847(2)
_cell_angle_gamma                90
_cell_volume                     3447.37
loop_
_atom_site_label
_atom_site_type_symbol
_atom_site_fract_x
_atom_site_fract_y
_atom_site_fract_z
N1 N 0.77437(14) 0.6079(2) 1.18505(10)
H1 H 0.8104 0.6589 1.2110
H2 H 0.7625 0.5250 1.2023
H3 H 0.7265 0.6580 1.1751
F1 F 1.00786(10) 0.64172(17) 1.07558(7)
C1 C 0.81291(18) 0.5785(3) 1.13078(12)
C2 C 0.77050(19) 0.5019(3) 1.08497(13)
H4 H 0.7160 0.4678 1.0877
C3 C 0.80806(19) 0.4744(3) 1.03425(13)
H5 H 0.7784 0.4229 1.0022
C4 C 0.88827(18) 0.5217(3) 1.03039(12)
C5 C 0.92906(16) 0.5973(3) 1.07837(12)
C6 C 0.89293(18) 0.6267(3) 1.12813(12)
H6 H 0.9222 0.6790 1.1601
C7 C 0.8947(2) 0.4125(4) 0.93709(14)
H7 H 0.9311 0.4071 0.9060
H8 H 0.8402 0.4501 0.9201
H9 H 0.8875 0.3179 0.9531
O1 O 0.93128(14) 0.5030(2) 0.98353(9)
C8 C 1.06519(17) 0.6834(3) 0.93074(12)
C9 C 1.12202(17) 0.7273(3) 0.98707(12)
C10 C 0.84416(18) 0.9866(3) 0.92802(13)
C11 C 0.85520(18) 0.9064(3) 0.98827(12)
C12 C 0.60971(18) 0.6703(3) 0.92773(13)
C13 C 0.57751(17) 0.7124(3) 0.98601(13)
O2 O 0.58707(12) 0.5476(2) 0.90797(8)
O3 O 0.52973(12) 0.6243(2) 1.00695(8)
O4 O 1.00942(12) 0.7721(2) 0.91072(9)
O5 O 1.10818(12) 0.8505(2) 1.00695(8)
O6 O 0.91127(12) 1.0209(2) 0.90855(9)
O7 O 0.92985(12) 0.87805(19) 1.00948(9)
O8 O 0.77232(13) 1.0125(2) 0.90392(9)
O9 O 0.79097(13) 0.8764(2) 1.01030(9)
O10 O 0.65332(13) 0.7554(2) 0.90438(9)
O11 O 0.60003(13) 0.8294(2) 1.00827(9)
O12 O 1.07728(12) 0.5665(2) 0.90800(9)
O13 O 1.17668(12) 0.6437(2) 1.00963(8)
Mn1 Mn 0.67799(2) 0.94986(4) 0.957570(17)
Cr1 Cr 1.01281(2) 0.94763(4) 0.958985(17)
O2B O 1.08707(12) 1.0476(2) 0.90797(8)
O3B O 1.02973(12) 1.1243(2) 1.00695(8)
O12B O 0.57728(12) 1.0665(2) 0.90800(9)
O13B O 0.67668(12) 1.1437(2) 1.00963(8)
Mn1B Mn 1.17799(2) 0.44986(4) 0.957570(17)
Cr1B Cr 0.51281(2) 0.44763(4) 0.958985(17)
C14 C 0.8206(2) 0.9914(3) 1.18958(14)
H10 H 0.8113 1.0946 1.1865
H11 H 0.8460 0.9600 1.1545
C15 C 0.8773(2) 0.9572(3) 1.24542(13)
H12 H 0.9273 1.0183 1.2490
H13 H 0.8482 0.9735 1.2805
C16 C 0.9553(2) 0.7679(3) 1.29470(13)
H14 H 0.9281 0.7843 1.3306
H15 H 1.0077 0.8230 1.2986
C17 C 0.97381(19) 0.6136(3) 1.28882(13)
H16 H 0.9986 0.5965 1.2520
H17 H 1.0139 0.5818 1.3231
C18 C 0.9093(2) 0.3893(3) 1.28761(15)
H18 H 0.9543 0.3626 1.3197
H19 H 0.9254 0.3575 1.2492
C19 C 0.8291(2) 0.3208(3) 1.29777(14)
H20 H 0.8381 0.2189 1.3059
H21 H 0.8080 0.3643 1.3325
C20 C 0.6917(2) 0.2725(3) 1.25086(15)
H22 H 0.6696 0.3075 1.2867
H23 H 0.6994 0.1691 1.2546
C21 C 0.6316(2) 0.3067(3) 1.19598(14)
H24 H 0.6572 0.2845 1.1599
H25 H 0.5802 0.2497 1.1952
C22 C 0.55325(19) 0.4943(3) 1.14828(14)
H26 H 0.5002 0.4428 1.1492
H27 H 0.5746 0.4713 1.1106
C23 C 0.5388(2) 0.6495(3) 1.15198(14)
H28 H 0.4957 0.6796 1.1192
H29 H 0.5190 0.6728 1.1902
C24 C 0.6053(2) 0.8720(3) 1.14500(14)
H30 H 0.5859 0.9066 1.1819
H31 H 0.5630 0.8978 1.1110
C25 C 0.6875(2) 0.9382(3) 1.13785(14)
H32 H 0.7108 0.8932 1.1044
H33 H 0.6798 1.0400 1.1290
O14 O 0.74324(13) 0.9199(2) 1.19145(9)
O15 O 0.90109(13) 0.8116(2) 1.24268(9)
O16 O 0.89786(13) 0.5382(2) 1.28699(9)
O17 O 0.76944(14) 0.3396(2) 1.24541(9)
O18 O 0.61199(14) 0.4536(2) 1.19718(9)
O19 O 0.61545(12) 0.7214(2) 1.14767(9)
O20 O 0.69862(19) 0.6674(3) 1.37891(13)
H34 H 0.6656 0.6011 1.3834
C26 C 0.6871(3) 0.7105(5) 1.32033(16)
H35 H 0.6282 0.7336 1.3083
H36 H 0.7037 0.6344 1.2951
H37 H 0.7213 0.7943 1.3160
loop_
_geom_bond_atom_site_label_1
_geom_bond_atom_site_label_2
_geom_bond_site_symmetry_1
_geom_bond_site_symmetry_2
N1 H1 1_555 1_555
H2 N1 1_555 1_555
H3 N1 1_555 1_555
F1 C5 1_555 1_555
C1 N1 1_555 1_555
C2 C1 1_555 1_555
H4 C2 1_555 1_555
C3 C2 1_555 1_555
H5 C3 1_555 1_555
C4 C3 1_555 1_555
C5 C4 1_555 1_555
C6 C1 1_555 1_555
H6 C6 1_555 1_555
C7 H7 1_555 1_555
H8 C7 1_555 1_555
H9 C7 1_555 1_555
O1 C4 1_555 1_555
C8 C9 1_555 1_555
C9 O5 1_555 1_555
C10 C11 1_555 1_555
C11 O7 1_555 1_555
C12 C13 1_555 1_555
C13 O3 1_555 1_555
O2 C12 1_555 1_555
O3 Cr1B 1_555 1_555
O4 C8 1_555 1_555
O5 Cr1 1_555 1_555
O6 C10 1_555 1_555
O7 Cr1 1_555 1_555
O8 C10 1_555 1_555
O9 C11 1_555 1_555
O10 C12 1_555 1_555
O11 C13 1_555 1_555
O12 C8 1_555 1_555
O13 C9 1_555 1_555
Mn1 O8 1_555 1_555
Cr1 O4 1_555 1_555
C14 H10 1_555 1_555
H11 C14 1_555 1_555
C15 C14 1_555 1_555
H12 C15 1_555 1_555
H13 C15 1_555 1_555
C16 H14 1_555 1_555
H15 C16 1_555 1_555
C17 C16 1_555 1_555
H16 C17 1_555 1_555
H17 C17 1_555 1_555
C18 H18 1_555 1_555
H19 C18 1_555 1_555
C19 C18 1_555 1_555
H20 C19 1_555 1_555
H21 C19 1_555 1_555
C20 H22 1_555 1_555
H23 C20 1_555 1_555
C21 C20 1_555 1_555
H24 C21 1_555 1_555
H25 C21 1_555 1_555
C22 H26 1_555 1_555
H27 C22 1_555 1_555
C23 C22 1_555 1_555
H28 C23 1_555 1_555
H29 C23 1_555 1_555
C24 H30 1_555 1_555
H31 C24 1_555 1_555
C25 C24 1_555 1_555
H32 C25 1_555 1_555
H33 C25 1_555 1_555
O14 C14 1_555 1_555
O15 C15 1_555 1_555
O16 C17 1_555 1_555
O17 C19 1_555 1_555
O18 C21 1_555 1_555
O19 C23 1_555 1_555
O20 H34 1_555 1_555
C26 O20 1_555 1_555
H35 C26 1_555 1_555
H36 C26 1_555 1_555
H37 C26 1_555 1_555
O2B Cr1 1_555 1_555
O3B Cr1 1_555 1_555
O12B Mn1 1_555 1_555
O13B Mn1 1_555 1_555
Mn1B O12 1_555 1_555
Cr1B O2 1_555 1_555
C5 C6 1_555 1_555
C7 O1 1_555 1_555
O6 Cr1 1_555 1_555
O9 Mn1 1_555 1_555
O10 Mn1 1_555 1_555
O11 Mn1 1_555 1_555
O13 Mn1B 1_555 1_555
C16 O15 1_555 1_555
C18 O16 1_555 1_555
C20 O17 1_555 1_555
C22 O18 1_555 1_555
C24 O19 1_555 1_555
C25 O14 1_555 1_555

#END
