
#######################################################################
#
#                 Cambridge Crystallographic Data Centre
#                                CCDC 
#
#######################################################################
#
# If this CIF has been generated from an entry in the Cambridge 
# Structural Database, then it will include bibliographic, chemical, 
# crystal, experimental, refinement or atomic coordinate data resulting 
# from the CCDC's data processing and validation procedures.
#
#######################################################################

data_PEPTUA
_symmetry_cell_setting           triclinic
_symmetry_space_group_name_H-M   'P -1'
_symmetry_Int_Tables_number      2
_space_group_name_Hall           '-P 1'
loop_
_symmetry_equiv_pos_site_id
_symmetry_equiv_pos_as_xyz
1 x,y,z
2 -x,-y,-z
_cell_length_a                   8.22900(10)
_cell_length_b                   12.3161(2)
_cell_length_c                   12.7982(2)
_cell_angle_alpha                112.4210(10)
_cell_angle_beta                 95.6480(10)
_cell_angle_gamma                102.1160(10)
_cell_volume                     1149.24
loop_
_atom_site_label
_atom_site_type_symbol
_atom_site_fract_x
_atom_site_fract_y
_atom_site_fract_z
Mo1 Mo 0.43080(7) 0.33655(6) 0.23520(5)
Mo2 Mo 0.56090(7) 0.36698(5) 0.48549(5)
Mo3 Mo 0.83017(7) 0.33648(5) 0.24469(5)
Mo4 Mo 0.16908(7) 0.37339(5) 0.48077(5)
Ag1 Ag 0.28960(9) 0.08440(6) 0.53057(5)
Ag2 Ag 0.15828(8) 0.48539(5) 0.07764(5)
O1 O 0.3344(6) 0.3204(4) 0.3646(4)
O2 O 0.3379(7) 0.4382(6) 0.2079(5)
O3 O 0.1512(6) 0.2429(5) 0.5037(5)
O4 O 0.7584(6) 0.4650(4) 0.5645(4)
O5 O 0.8854(6) 0.5280(5) 0.3973(4)
O6 O 0.7847(7) 0.1877(5) 0.1513(5)
O7 O 0.9693(7) 0.4078(5) 0.1850(5)
O8 O 0.5297(7) 0.2483(5) 0.5271(5)
O9 O 0.6378(6) 0.3797(5) 0.1875(5)
O10 O 0.9831(6) 0.3237(5) 0.3653(4)
O11 O 0.4197(6) 0.4610(4) 0.5705(4)
O12 O 0.3312(7) 0.1972(6) 0.1277(5)
O13 O 0.6238(6) 0.3044(4) 0.3398(4)
N1 N 0.2617(8) 0.1915(6) -0.2909(5)
N2 N 0.2022(9) 0.3510(6) -0.0814(6)
N3 N 0.1947(8) 0.6752(6) 0.2065(6)
N4 N 0.2641(8) 0.9079(6) 0.3884(5)
C1 C 0.1324(9) 0.2276(7) -0.1218(6)
C2 C 0.0280(10) 0.1805(8) -0.0599(7)
H1 H 0.0094 0.2327 0.0099
C3 C -0.0460(10) 0.0582(7) -0.1021(7)
H2 H -0.1148 0.0275 -0.0608
C4 C -0.0188(11) -0.0233(7) -0.2091(8)
H3 H -0.0710 -0.1065 -0.2377
C5 C 0.0841(11) 0.0212(7) -0.2694(7)
H4 H 0.1029 -0.0323 -0.3385
C6 C 0.1623(10) 0.1474(7) -0.2283(7)
C7 C 0.3304(11) 0.3105(8) -0.2473(7)
H5 H 0.4019 0.3426 -0.2865
C8 C 0.2986(11) 0.3897(7) -0.1435(7)
H6 H 0.3475 0.4730 -0.1175
C9 C 0.3306(10) 0.8928(7) 0.2911(7)
C10 C 0.4331(10) 0.9934(7) 0.2808(7)
H7 H 0.4583 1.0706 0.3408
C11 C 0.4962(11) 0.9775(8) 0.1816(7)
H8 H 0.5630 1.0445 0.1747
C12 C 0.4606(11) 0.8614(8) 0.0912(7)
H9 H 0.5045 0.8522 0.0250
C13 C 0.3627(11) 0.7619(8) 0.0990(7)
H10 H 0.3403 0.6853 0.0385
C14 C 0.2954(9) 0.7755(7) 0.1994(6)
C15 C 0.1362(10) 0.6926(7) 0.3024(6)
H11 H 0.0706 0.6258 0.3101
C16 C 0.1697(9) 0.8090(7) 0.3933(7)
H12 H 0.1245 0.8167 0.4588
Mo2A Mo 0.43910(7) 0.63302(5) 0.51451(5)
Mo4A Mo 0.83092(7) 0.62661(5) 0.51923(5)
Mo4_2 Mo 1.16908(7) 0.37339(5) 0.48077(5)
Ag1_2 Ag 0.28960(9) 0.08440(6) -0.46943(5)
Ag1_3 Ag 0.28960(9) 1.08440(6) 0.53057(5)
Ag2_2 Ag 1.15828(8) 0.48539(5) 0.07764(5)
O4A O 0.2416(6) 0.5350(4) 0.4355(4)
O5A O 0.1146(6) 0.4720(5) 0.6027(4)
O7_2 O -0.0307(7) 0.4078(5) 0.1850(5)
O10_2 O -0.0169(6) 0.3237(5) 0.3653(4)
O11A O 0.5803(6) 0.5390(4) 0.4295(4)
N1_2 N 0.2617(8) 0.1915(6) 0.7091(5)
N4_2 N 0.2641(8) -0.0921(6) 0.3884(5)
loop_
_geom_bond_atom_site_label_1
_geom_bond_atom_site_label_2
_geom_bond_site_symmetry_1
_geom_bond_site_symmetry_2
Mo1 O1 1_555 1_555
Mo2 O1 1_555 1_555
Mo3 O5 1_555 1_555
Mo4 O1 1_555 1_555
Ag1 O3 1_555 1_555
Ag2 O2 1_555 1_555
O2 Mo1 1_555 1_555
O3 Mo4 1_555 1_555
O4 Mo2 1_555 1_555
O5 Mo4A 1_555 1_555
O6 Mo3 1_555 1_555
O7 Mo3 1_555 1_555
O8 Mo2 1_555 1_555
O9 Mo1 1_555 1_555
O10 Mo3 1_555 1_555
O11 Mo2 1_555 1_555
O12 Mo1 1_555 1_555
O13 Mo1 1_555 1_555
N1 C6 1_555 1_555
N2 Ag2 1_555 1_555
N3 Ag2 1_555 1_555
N4 C9 1_555 1_555
C1 N2 1_555 1_555
C2 C1 1_555 1_555
H1 C2 1_555 1_555
C3 C2 1_555 1_555
H2 C3 1_555 1_555
C4 C3 1_555 1_555
H3 C4 1_555 1_555
C5 C4 1_555 1_555
H4 C5 1_555 1_555
C6 C1 1_555 1_555
C7 N1 1_555 1_555
H5 C7 1_555 1_555
C8 N2 1_555 1_555
H6 C8 1_555 1_555
C9 C10 1_555 1_555
C10 H7 1_555 1_555
C11 C10 1_555 1_555
H8 C11 1_555 1_555
C12 C11 1_555 1_555
H9 C12 1_555 1_555
C13 C12 1_555 1_555
H10 C13 1_555 1_555
C14 N3 1_555 1_555
C15 N3 1_555 1_555
H11 C15 1_555 1_555
C16 N4 1_555 1_555
H12 C16 1_555 1_555
Mo2A O11 1_555 1_555
Mo4A O4 1_555 1_555
Mo4_2 O10 1_555 1_555
Ag1_2 N1 1_555 1_555
Ag1_3 N4 1_555 1_555
Ag2_2 O7 1_555 1_555
O4A Mo4 1_555 1_555
O5A Mo4 1_555 1_555
O7_2 Ag2 1_555 1_555
O10_2 Mo4 1_555 1_555
O11A Mo2 1_555 1_555
N1_2 Ag1 1_555 1_555
N4_2 Ag1 1_555 1_555
Mo2 O13 1_555 1_555
Mo3 O9 1_555 1_555
Mo3 O13 1_555 1_555
Mo4 O11 1_555 1_555
Ag1 O8 1_555 1_555
C5 C6 1_555 1_555
C7 C8 1_555 1_555
C9 C14 1_555 1_555
C13 C14 1_555 1_555
C15 C16 1_555 1_555
Mo2A O4A 1_555 1_555
Mo2A O11A 1_555 1_555
Mo4A O11A 1_555 1_555

#END
