
#######################################################################
#
#                 Cambridge Crystallographic Data Centre
#                                CCDC 
#
#######################################################################
#
# If this CIF has been generated from an entry in the Cambridge 
# Structural Database, then it will include bibliographic, chemical, 
# crystal, experimental, refinement or atomic coordinate data resulting 
# from the CCDC's data processing and validation procedures.
#
#######################################################################

data_PEPTIO
_symmetry_cell_setting           monoclinic
_symmetry_space_group_name_H-M   'P 21/n'
_symmetry_Int_Tables_number      14
_space_group_name_Hall           '-P 2yn'
loop_
_symmetry_equiv_pos_site_id
_symmetry_equiv_pos_as_xyz
1 x,y,z
2 1/2-x,1/2+y,1/2-z
3 -x,-y,-z
4 1/2+x,1/2-y,1/2+z
_cell_length_a                   10.257(2)
_cell_length_b                   18.988(4)
_cell_length_c                   15.296(3)
_cell_angle_alpha                90
_cell_angle_beta                 105.51(3)
_cell_angle_gamma                90
_cell_volume                     2870.56
loop_
_atom_site_label
_atom_site_type_symbol
_atom_site_fract_x
_atom_site_fract_y
_atom_site_fract_z
Cd1 Cd 0.06869(4) 0.007943(19) 0.34846(3)
C1 C -0.1753(6) -0.0999(3) 0.2374(6)
H1 H -0.2244 -0.0786 0.2733
C2 C -0.2370(7) -0.1519(4) 0.1763(6)
H2 H -0.3263 -0.1646 0.1713
C3 C -0.1669(7) -0.1842(4) 0.1241(6)
H3 H -0.2077 -0.2188 0.0828
C4 C -0.0324(7) -0.1646(3) 0.1331(5)
C5 C 0.0518(9) -0.1964(4) 0.0834(5)
H4 H 0.0153 -0.2311 0.0410
C6 C 0.1805(9) -0.1782(4) 0.0955(5)
H5 H 0.2323 -0.2010 0.0626
C7 C 0.2407(7) -0.1239(3) 0.1588(5)
C8 C 0.3734(7) -0.1032(4) 0.1722(6)
H6 H 0.4279 -0.1246 0.1401
C9 C 0.4237(7) -0.0513(4) 0.2329(6)
H7 H 0.5134 -0.0373 0.2431
C10 C 0.3404(6) -0.0188(3) 0.2800(5)
H8 H 0.3756 0.0168 0.3213
C11 C 0.1621(6) -0.0896(3) 0.2078(4)
C12 C 0.0232(6) -0.1111(3) 0.1955(4)
C13 C 0.9795(7) 0.2906(3) 0.6951(6)
C14 C 0.9905(6) 0.3362(4) 0.7677(5)
H9 H 0.9184 0.3404 0.7934
C15 C 1.1066(6) 0.3758(3) 0.8028(5)
H10 H 1.1113 0.4066 0.8508
C16 C 1.2152(6) 0.3690(3) 0.7658(4)
C17 C 1.2039(7) 0.3234(3) 0.6941(6)
H11 H 1.2767 0.3186 0.6691
C18 C 1.0877(7) 0.2845(4) 0.6581(6)
H12 H 1.0827 0.2545 0.6092
C19 C 0.6229(6) 0.2083(3) 0.6268(4)
C20 C 0.6221(6) 0.1528(3) 0.5671(5)
H13 H 0.7029 0.1390 0.5555
C21 C 0.5027(5) 0.1172(3) 0.5241(4)
H14 H 0.5037 0.0808 0.4836
C22 C 0.3833(5) 0.1370(3) 0.5427(4)
C23 C 0.3852(6) 0.1905(3) 0.6041(5)
H15 H 0.3055 0.2028 0.6184
C24 C 0.5024(7) 0.2256(3) 0.6445(5)
H16 H 0.5005 0.2620 0.6848
C25 C 0.2499(6) 0.1039(3) 0.4928(4)
C26 C 1.3408(6) 0.4115(3) 0.8005(4)
C27 C 0.7437(7) 0.2504(4) 0.6693(5)
H17 H 0.7352 0.2821 0.7139
C28 C 0.8580(7) 0.2484(4) 0.6521(5)
H18 H 0.8663 0.2168 0.6075
N1 N 0.2120(4) -0.0378(2) 0.2666(3)
N2 N -0.0484(4) -0.0795(2) 0.2462(4)
O1 O 0.1455(4) 0.1234(2) 0.5124(4)
O2 O 0.2541(4) 0.0583(2) 0.4344(4)
O3 O 1.4424(4) 0.3977(2) 0.7723(3)
O4 O 1.3432(4) 0.4595(2) 0.8568(3)
O5 O 0.0819(4) -0.0718(2) 0.4619(3)
H19 H 0.0408 -0.1111 0.4559
H20 H 0.1250 -0.0674 0.5174
Cd1C Cd 1.56869(4) 0.492057(19) 0.84846(3)
O3C O -0.0576(4) 0.1023(2) 0.2723(3)
O4C O -0.1568(4) 0.0405(2) 0.3568(3)
O6 O -0.5061(7) -0.2656(3) 0.1011(6)
loop_
_geom_bond_atom_site_label_1
_geom_bond_atom_site_label_2
_geom_bond_site_symmetry_1
_geom_bond_site_symmetry_2
Cd1 N1 1_555 1_555
C1 H1 1_555 1_555
C2 C1 1_555 1_555
H2 C2 1_555 1_555
C3 C2 1_555 1_555
H3 C3 1_555 1_555
C4 C3 1_555 1_555
C5 C4 1_555 1_555
H4 C5 1_555 1_555
C6 C5 1_555 1_555
H5 C6 1_555 1_555
C7 C6 1_555 1_555
C8 C7 1_555 1_555
H6 C8 1_555 1_555
C9 C8 1_555 1_555
H7 C9 1_555 1_555
C10 C9 1_555 1_555
H8 C10 1_555 1_555
C11 C7 1_555 1_555
C12 C4 1_555 1_555
C13 C14 1_555 1_555
C14 H9 1_555 1_555
C15 C14 1_555 1_555
H10 C15 1_555 1_555
C16 C15 1_555 1_555
C17 C16 1_555 1_555
H11 C17 1_555 1_555
C18 C13 1_555 1_555
H12 C18 1_555 1_555
C19 C20 1_555 1_555
C20 H13 1_555 1_555
C21 C20 1_555 1_555
H14 C21 1_555 1_555
C22 C21 1_555 1_555
C23 C22 1_555 1_555
H15 C23 1_555 1_555
C24 C19 1_555 1_555
H16 C24 1_555 1_555
C25 C22 1_555 1_555
C26 C16 1_555 1_555
C27 C19 1_555 1_555
H17 C27 1_555 1_555
C28 C13 1_555 1_555
H18 C28 1_555 1_555
N1 C10 1_555 1_555
N2 Cd1 1_555 1_555
O1 C25 1_555 1_555
O2 Cd1 1_555 1_555
O3 C26 1_555 1_555
O4 C26 1_555 1_555
O5 Cd1 1_555 1_555
H19 O5 1_555 1_555
H20 O5 1_555 1_555
Cd1C O3 1_555 1_555
O3C Cd1 1_555 1_555
O4C Cd1 1_555 1_555
C1 N2 1_555 1_555
C11 C12 1_555 1_555
C11 N1 1_555 1_555
C12 N2 1_555 1_555
C17 C18 1_555 1_555
C23 C24 1_555 1_555
C25 O2 1_555 1_555
C27 C28 1_555 1_555
O4 Cd1C 1_555 1_555

#END
