
#######################################################################
#
#                 Cambridge Crystallographic Data Centre
#                                CCDC 
#
#######################################################################
#
# If this CIF has been generated from an entry in the Cambridge 
# Structural Database, then it will include bibliographic, chemical, 
# crystal, experimental, refinement or atomic coordinate data resulting 
# from the CCDC's data processing and validation procedures.
#
#######################################################################

data_PEPVAI
_symmetry_cell_setting           triclinic
_symmetry_space_group_name_H-M   'P -1'
_symmetry_Int_Tables_number      2
_space_group_name_Hall           '-P 1'
loop_
_symmetry_equiv_pos_site_id
_symmetry_equiv_pos_as_xyz
1 x,y,z
2 -x,-y,-z
_cell_length_a                   9.6170(18)
_cell_length_b                   10.214(2)
_cell_length_c                   13.207(3)
_cell_angle_alpha                110.069(8)
_cell_angle_beta                 101.127(8)
_cell_angle_gamma                91.093(7)
_cell_volume                     1190.49
loop_
_atom_site_label
_atom_site_type_symbol
_atom_site_fract_x
_atom_site_fract_y
_atom_site_fract_z
Mo1 Mo 0.26992(13) 0.47413(13) 0.38506(10)
Mo2 Mo 0.61570(13) 0.34291(13) 0.33660(10)
Mo3 Mo -0.11252(13) 0.57193(12) 0.41064(10)
Mo4 Mo -0.01117(13) 0.25074(13) 0.30078(10)
Cu1 Cu 0.2938(3) 0.0709(2) 0.26321(16)
Cu2 Cu -0.2823(3) -0.0472(3) 0.24584(17)
O1 O 0.5882(13) 0.1623(12) 0.2982(9)
O2 O 0.4464(12) 0.3990(12) 0.3850(9)
O3 O -0.0688(12) 0.0798(11) 0.2799(9)
O4 O -0.0382(11) 0.7322(11) 0.5094(9)
O5 O -0.0496(13) 0.2597(13) 0.1716(9)
O6 O 0.3174(11) 0.6443(11) 0.4803(8)
O7 O 0.8259(10) 0.3502(10) 0.3514(8)
O8 O 0.0658(11) 0.4733(11) 0.4085(8)
O9 O 0.1898(11) 0.2631(10) 0.3262(8)
O10 O 0.2367(12) 0.4969(12) 0.2616(8)
O11 O 0.2940(10) 0.4442(10) 0.5600(8)
O12 O 0.5775(11) 0.3659(12) 0.2147(9)
O13 O -0.1425(12) 0.5964(13) 0.2896(8)
N1 N 0.2886(14) 0.0591(14) 0.1113(10)
N2 N 0.3009(16) 0.0690(15) -0.0920(10)
N3 N 0.2888(16) 0.0593(15) 0.6124(10)
N4 N 0.3070(16) 0.0440(13) 0.4019(10)
C1 C 0.3102(18) -0.0522(17) 0.0355(13)
C2 C 0.316(2) -0.0456(19) -0.0685(13)
H1 H 0.3311 -0.1266 -0.1234
C3 C 0.273(2) 0.1846(17) -0.0104(15)
C4 C 0.270(2) 0.1756(19) 0.0885(14)
H2 H 0.2546 0.2555 0.1441
C5 C 0.323(3) -0.191(2) 0.0500(19)
H3 H 0.3192 -0.1804 0.1246
H4 H 0.4116 -0.2251 0.0347
H5 H 0.2457 -0.2565 0.0002
C6 C 0.252(4) 0.316(3) -0.0378(19)
H6 H 0.2081 0.2916 -0.1144
H7 H 0.3430 0.3680 -0.0231
H8 H 0.1926 0.3734 0.0067
C7 C 0.2094(18) -0.0369(15) 0.5237(12)
H9 H 0.1448 -0.0984 0.5332
C8 C 0.2185(17) -0.0499(16) 0.4164(12)
C9 C 0.3885(17) 0.1404(15) 0.4917(12)
H10 H 0.4524 0.2025 0.4821
C10 C 0.3812(16) 0.1514(15) 0.5978(11)
C11 C 0.130(2) -0.161(2) 0.3205(16)
H11 H 0.1011 -0.1267 0.2615
H12 H 0.1841 -0.2401 0.2967
H13 H 0.0472 -0.1899 0.3412
C12 C 0.468(2) 0.263(2) 0.6977(13)
H14 H 0.4062 0.3113 0.7445
H15 H 0.5360 0.2205 0.7372
H16 H 0.5166 0.3276 0.6755
Mo2A Mo 0.38430(13) 0.65709(13) 0.66340(10)
Mo3_2 Mo 0.88748(13) 0.57193(12) 0.41064(10)
Mo3A Mo 0.11252(13) 0.42807(12) 0.58936(10)
Mo4A Mo 0.01117(13) 0.74926(13) 0.69922(10)
Mo4_2 Mo 0.98883(13) 0.25074(13) 0.30078(10)
Cu2A Cu 0.2823(3) 0.0472(3) -0.24584(17)
Cu2A_2 Cu 0.2823(3) 0.0472(3) 0.75416(17)
Cu2_2 Cu 0.7177(3) -0.0472(3) 0.24584(17)
O3_2 O 0.9312(12) 0.0798(11) 0.2799(9)
O4A O 0.0382(11) 0.2678(11) 0.4906(9)
O6A O 0.6826(11) 0.3557(11) 0.5197(8)
O7_2 O -0.1741(10) 0.3502(10) 0.3514(8)
O11A O 0.7060(10) 0.5558(10) 0.4400(8)
O11A_2 O -0.2940(10) 0.5558(10) 0.4400(8)
N2A N -0.3009(16) -0.0690(15) 0.0920(10)
N3A N -0.2888(16) -0.0593(15) 0.3876(10)
loop_
_geom_bond_atom_site_label_1
_geom_bond_atom_site_label_2
_geom_bond_site_symmetry_1
_geom_bond_site_symmetry_2
Mo1 O2 1_555 1_555
Mo2 O1 1_555 1_555
Mo3 O4 1_555 1_555
Mo4 O3 1_555 1_555
Cu1 O9 1_555 1_555
Cu2 O3 1_555 1_555
O2 Mo2 1_555 1_555
O4 Mo4A 1_555 1_555
O5 Mo4 1_555 1_555
O6 Mo1 1_555 1_555
O7 Mo2 1_555 1_555
O8 Mo1 1_555 1_555
O9 Mo1 1_555 1_555
O10 Mo1 1_555 1_555
O11 Mo1 1_555 1_555
O12 Mo2 1_555 1_555
O13 Mo3 1_555 1_555
N1 Cu1 1_555 1_555
N2 C2 1_555 1_555
N3 C7 1_555 1_555
N4 Cu1 1_555 1_555
C1 N1 1_555 1_555
C2 C1 1_555 1_555
H1 C2 1_555 1_555
C3 N2 1_555 1_555
C4 N1 1_555 1_555
H2 C4 1_555 1_555
C5 C1 1_555 1_555
H3 C5 1_555 1_555
H4 C5 1_555 1_555
H5 C5 1_555 1_555
C6 C3 1_555 1_555
H6 C6 1_555 1_555
H7 C6 1_555 1_555
H8 C6 1_555 1_555
C7 H9 1_555 1_555
C8 N4 1_555 1_555
C9 N4 1_555 1_555
H10 C9 1_555 1_555
C10 N3 1_555 1_555
C11 C8 1_555 1_555
H11 C11 1_555 1_555
H12 C11 1_555 1_555
H13 C11 1_555 1_555
C12 C10 1_555 1_555
H14 C12 1_555 1_555
H15 C12 1_555 1_555
H16 C12 1_555 1_555
Mo2A O6 1_555 1_555
Mo3_2 O7 1_555 1_555
Mo3A O11 1_555 1_555
Mo4_2 O7 1_555 1_555
Cu2A N2 1_555 1_555
Cu2A_2 N3 1_555 1_555
Cu2_2 O3_2 1_555 1_555
O3_2 Mo4_2 1_555 1_555
O4A Mo4 1_555 1_555
O6A Mo2 1_555 1_555
O7_2 Mo3 1_555 1_555
O11A Mo2 1_555 1_555
O11A_2 Mo3 1_555 1_555
N2A Cu2 1_555 1_555
N3A Cu2 1_555 1_555
Mo3 O8 1_555 1_555
Mo4 O8 1_555 1_555
Mo4 O9 1_555 1_555
Mo4 O7_2 1_555 1_555
O11 Mo2A 1_555 1_555
C3 C4 1_555 1_555
C7 C8 1_555 1_555
C9 C10 1_555 1_555
Mo3_2 O11A 1_555 1_555
Mo3A O4A 1_555 1_555

#END
