
#######################################################################
#
#                 Cambridge Crystallographic Data Centre
#                                CCDC 
#
#######################################################################
#
# If this CIF has been generated from an entry in the Cambridge 
# Structural Database, then it will include bibliographic, chemical, 
# crystal, experimental, refinement or atomic coordinate data resulting 
# from the CCDC's data processing and validation procedures.
#
#######################################################################

data_PEPVUC
_symmetry_cell_setting           triclinic
_symmetry_space_group_name_H-M   'P -1'
_symmetry_Int_Tables_number      2
_space_group_name_Hall           '-P 1'
loop_
_symmetry_equiv_pos_site_id
_symmetry_equiv_pos_as_xyz
1 x,y,z
2 -x,-y,-z
_cell_length_a                   8.141(4)
_cell_length_b                   10.086(5)
_cell_length_c                   12.224(7)
_cell_angle_alpha                105.642(4)
_cell_angle_beta                 108.806(5)
_cell_angle_gamma                95.924(5)
_cell_volume                     894.821
loop_
_atom_site_label
_atom_site_type_symbol
_atom_site_fract_x
_atom_site_fract_y
_atom_site_fract_z
Ni1 Ni 0.5000 0.5000 0.5000
O1 O 0.2538(4) 0.5231(3) 0.5110(3)
H1 H 0.175(5) 0.450(3) 0.487(5)
H2 H 0.214(6) 0.596(3) 0.508(4)
O2 O 1.0371(3) 1.2591(3) 0.4689(3)
O3 O 0.7431(3) 1.0834(3) 0.2923(2)
O4 O 0.0856(3) 0.9547(3) 0.1916(2)
O5 O 0.3169(3) 0.7759(3) 0.2751(2)
O6 O 0.6832(3) 0.8787(3) 0.3854(2)
O7 O -0.0446(3) 0.7136(3) 0.2158(2)
O8 O 0.3991(3) 1.0259(2) 0.4101(2)
O9 O 1.0304(3) 0.9662(3) 0.4072(2)
O10 O 0.2413(3) 0.8171(3) 0.4659(2)
O11 O 0.5313(3) 0.6852(3) 0.4641(2)
N1 N 0.1918(4) -0.0271(3) -0.0411(3)
H3 H 0.1121 0.0030 -0.0882
N2 N 0.4118(4) -0.0307(3) 0.1165(3)
H4 H 0.4963 -0.0032 0.1868
N3 N 0.3740(4) 0.3902(3) 0.3116(3)
C1 C 0.2245(5) -0.1623(4) -0.0691(3)
C2 C 0.1460(6) -0.2778(4) -0.1749(4)
H5 H 0.0552 -0.2740 -0.2429
C3 C 0.2112(7) -0.3977(5) -0.1725(4)
H6 H 0.1626 -0.4782 -0.2406
C4 C 0.3492(7) -0.4021(5) -0.0700(5)
H7 H 0.3879 -0.4860 -0.0718
C5 C 0.4297(6) -0.2862(5) 0.0337(4)
H8 H 0.5222 -0.2894 0.1010
C6 C 0.3650(5) -0.1656(4) 0.0316(3)
C7 C 0.3048(5) 0.0487(4) 0.0713(3)
C8 C 0.3040(5) 0.1948(4) 0.1294(3)
C9 C 0.3830(5) 0.2583(4) 0.2562(3)
H9 H 0.4435 0.2075 0.3033
C10 C 0.2847(6) 0.4609(4) 0.2420(4)
H10 H 0.2743 0.5509 0.2806
C11 C 0.2077(6) 0.4082(4) 0.1172(4)
H11 H 0.1496 0.4620 0.0723
C12 C 0.2189(5) 0.2732(4) 0.0599(4)
H12 H 0.1696 0.2350 -0.0247
Mo1 Mo 0.88622(4) 1.11009(3) 0.43806(3)
Mo2 Mo 0.51404(4) 0.84377(3) 0.43464(3)
Mo3 Mo 0.12355(4) 0.85623(3) 0.28963(3)
O1A O 0.7462(4) 0.4769(3) 0.4890(3)
H1A H 0.825(5) 0.550(3) 0.513(5)
H2A H 0.786(6) 0.404(3) 0.492(4)
O2A O -0.0371(3) -0.2591(3) 0.5311(3)
O3A O 0.2569(3) -0.0834(3) 0.7077(2)
O4A O 0.9144(3) 0.0453(3) 0.8084(2)
O5A O 0.6831(3) 0.2241(3) 0.7249(2)
O6A O 0.3168(3) 0.1213(3) 0.6146(2)
O7A O 1.0446(3) 0.2864(3) 0.7842(2)
O8A O 0.6009(3) 0.9741(2) 0.5899(2)
O8A_2 O 0.6009(3) -0.0259(2) 0.5899(2)
O8_2 O 0.3991(3) 0.0259(2) 0.4101(2)
O9A O 0.9696(3) 1.0338(3) 0.5928(2)
O9_2 O 0.0304(3) 0.9662(3) 0.4072(2)
O9_3 O 0.0304(3) -0.0338(3) 0.4072(2)
O9A_2 O -0.0304(3) 0.0338(3) 0.5928(2)
O9A_3 O 0.9696(3) 0.0338(3) 0.5928(2)
O10A O 0.7587(3) 0.1829(3) 0.5341(2)
O10A_2 O 0.7587(3) 1.1829(3) 0.5341(2)
O10_2 O 0.2413(3) -0.1829(3) 0.4659(2)
O11A O 0.4687(3) 0.3148(3) 0.5359(2)
N1A N 0.8082(4) 1.0271(3) 1.0411(3)
H3A H 0.8879 0.9970 1.0882
N2A N 0.5882(4) 1.0307(3) 0.8835(3)
H4A H 0.5037 1.0032 0.8132
N3A N 0.6260(4) 0.6098(3) 0.6884(3)
C1A C 0.7755(5) 1.1623(4) 1.0691(3)
C2A C 0.8540(6) 1.2778(4) 1.1749(4)
H5A H 0.9448 1.2740 1.2429
C3A C 0.7888(7) 1.3977(5) 1.1725(4)
H6A H 0.8374 1.4782 1.2406
C4A C 0.6508(7) 1.4021(5) 1.0700(5)
H7A H 0.6121 1.4860 1.0718
C5A C 0.5703(6) 1.2862(5) 0.9663(4)
H8A H 0.4778 1.2894 0.8990
C6A C 0.6350(5) 1.1656(4) 0.9684(3)
C7A C 0.6952(5) 0.9513(4) 0.9287(3)
C8A C 0.6960(5) 0.8052(4) 0.8706(3)
C9A C 0.6170(5) 0.7417(4) 0.7438(3)
H9A H 0.5565 0.7925 0.6967
C10A C 0.7153(6) 0.5391(4) 0.7580(4)
H10A H 0.7257 0.4491 0.7194
C11A C 0.7923(6) 0.5918(4) 0.8828(4)
H11A H 0.8504 0.5380 0.9277
C12A C 0.7811(5) 0.7268(4) 0.9401(4)
H12A H 0.8304 0.7650 1.0247
Mo1A Mo 0.11378(4) -0.11009(3) 0.56194(3)
Mo1A_2 Mo 1.11378(4) 0.88991(3) 0.56194(3)
Mo1A_3 Mo 0.11378(4) 0.88991(3) 0.56194(3)
Mo1_2 Mo 0.88622(4) 0.11009(3) 0.43806(3)
Mo2A Mo 0.48596(4) 0.15623(3) 0.56536(3)
Mo2A_2 Mo 0.48596(4) 1.15623(3) 0.56536(3)
Mo3A Mo 0.87645(4) 0.14377(3) 0.71037(3)
Mo3A_2 Mo 0.87645(4) 1.14377(3) 0.71037(3)
Mo3_2 Mo 1.12355(4) 0.85623(3) 0.28963(3)
loop_
_geom_bond_atom_site_label_1
_geom_bond_atom_site_label_2
_geom_bond_site_symmetry_1
_geom_bond_site_symmetry_2
Ni1 O1 1_555 1_555
O1 H1 1_555 1_555
H2 O1 1_555 1_555
O2 Mo1 1_555 1_555
O3 Mo1 1_555 1_555
O4 Mo3 1_555 1_555
O5 Mo2 1_555 1_555
O6 Mo1 1_555 1_555
O7 Mo3 1_555 1_555
O8 Mo2 1_555 1_555
O9 Mo1 1_555 1_555
O10 Mo2 1_555 1_555
O11 Ni1 1_555 1_555
N1 H3 1_555 1_555
N2 H4 1_555 1_555
N3 Ni1 1_555 1_555
C1 N1 1_555 1_555
C2 C1 1_555 1_555
H5 C2 1_555 1_555
C3 C2 1_555 1_555
H6 C3 1_555 1_555
C4 C3 1_555 1_555
H7 C4 1_555 1_555
C5 C4 1_555 1_555
H8 C5 1_555 1_555
C6 N2 1_555 1_555
C7 N1 1_555 1_555
C8 C7 1_555 1_555
C9 N3 1_555 1_555
H9 C9 1_555 1_555
C10 N3 1_555 1_555
H10 C10 1_555 1_555
C11 C10 1_555 1_555
H11 C11 1_555 1_555
C12 C8 1_555 1_555
H12 C12 1_555 1_555
Mo1 O9A 1_555 1_555
Mo2 O6 1_555 1_555
Mo3 O5 1_555 1_555
O1A Ni1 1_555 1_555
H1A O1A 1_555 1_555
H2A O1A 1_555 1_555
O2A Mo1A 1_555 1_555
O3A Mo1A 1_555 1_555
O4A Mo3A 1_555 1_555
O5A Mo2A 1_555 1_555
O6A Mo1A 1_555 1_555
O7A Mo3A 1_555 1_555
O8A Mo2 1_555 1_555
O8A_2 Mo2A 1_555 1_555
O8_2 Mo2A 1_555 1_555
O9A Mo1A_2 1_555 1_555
O9_2 Mo3 1_555 1_555
O9_3 Mo1A 1_555 1_555
O9A_2 Mo1A 1_555 1_555
O9A_3 Mo1_2 1_555 1_555
O10A Mo1_2 1_555 1_555
O10A_2 Mo1 1_555 1_555
O10_2 Mo1A 1_555 1_555
O11A Ni1 1_555 1_555
N1A H3A 1_555 1_555
N2A H4A 1_555 1_555
N3A Ni1 1_555 1_555
C1A N1A 1_555 1_555
C2A C1A 1_555 1_555
H5A C2A 1_555 1_555
C3A C2A 1_555 1_555
H6A C3A 1_555 1_555
C4A C3A 1_555 1_555
H7A C4A 1_555 1_555
C5A C4A 1_555 1_555
H8A C5A 1_555 1_555
C6A N2A 1_555 1_555
C7A N1A 1_555 1_555
C8A C7A 1_555 1_555
C9A N3A 1_555 1_555
H9A C9A 1_555 1_555
C10A N3A 1_555 1_555
H10A C10A 1_555 1_555
C11A C10A 1_555 1_555
H11A C11A 1_555 1_555
C12A C8A 1_555 1_555
H12A C12A 1_555 1_555
Mo1A_2 O9 1_555 1_555
Mo1A_3 O10 1_555 1_555
Mo2A O6A 1_555 1_555
Mo2A_2 O8 1_555 1_555
Mo3A O5A 1_555 1_555
Mo3A_2 O8A 1_555 1_555
Mo3_2 O9 1_555 1_555
O8 Mo3 1_555 1_555
O10 Mo3 1_555 1_555
O11 Mo2 1_555 1_555
N2 C7 1_555 1_555
C1 C6 1_555 1_555
C5 C6 1_555 1_555
C8 C9 1_555 1_555
C11 C12 1_555 1_555
O8A Mo2A_2 1_555 1_555
O8A_2 Mo3A 1_555 1_555
O9A Mo3A_2 1_555 1_555
O9_2 Mo1A_3 1_555 1_555
O9A_3 Mo3A 1_555 1_555
O10A Mo2A 1_555 1_555
O10A Mo3A 1_555 1_555
O10A_2 Mo2A_2 1_555 1_555
O10A_2 Mo3A_2 1_555 1_555
O11A Mo2A 1_555 1_555
N2A C7A 1_555 1_555
C1A C6A 1_555 1_555
C5A C6A 1_555 1_555
C8A C9A 1_555 1_555
C11A C12A 1_555 1_555

#END
