
#######################################################################
#
#                 Cambridge Crystallographic Data Centre
#                                CCDC 
#
#######################################################################
#
# If this CIF has been generated from an entry in the Cambridge 
# Structural Database, then it will include bibliographic, chemical, 
# crystal, experimental, refinement or atomic coordinate data resulting 
# from the CCDC's data processing and validation procedures.
#
#######################################################################

data_PEPVEM
_symmetry_cell_setting           triclinic
_symmetry_space_group_name_H-M   'P -1'
_symmetry_Int_Tables_number      2
_space_group_name_Hall           '-P 1'
loop_
_symmetry_equiv_pos_site_id
_symmetry_equiv_pos_as_xyz
1 x,y,z
2 -x,-y,-z
_cell_length_a                   8.266(3)
_cell_length_b                   13.538(4)
_cell_length_c                   15.054(6)
_cell_angle_alpha                70.697(12)
_cell_angle_beta                 84.221(15)
_cell_angle_gamma                74.303(14)
_cell_volume                     1530.5
loop_
_atom_site_label
_atom_site_type_symbol
_atom_site_fract_x
_atom_site_fract_y
_atom_site_fract_z
Mo1 Mo 0.02494(6) 0.04545(4) 0.58825(3)
Mo2 Mo 0.41249(6) 0.06220(3) 0.58230(3)
Mo3 Mo 0.44170(6) -0.19121(4) 0.64032(3)
Mo4 Mo 0.16738(6) 0.18643(3) 0.37521(3)
Cu1 Cu 0.05643(10) 0.75277(6) 0.15048(5)
Cu2 Cu -0.23146(9) 0.30744(6) 0.46075(5)
O1 O 0.5152(4) 0.1627(3) 0.5235(3)
O2 O 0.2794(5) -0.0571(3) 0.5924(3)
O3 O -0.0065(5) 0.2890(3) 0.3806(3)
O4 O 0.0306(5) 0.0123(3) 0.7069(3)
O5 O 0.3386(4) -0.2867(3) 0.6396(3)
O6 O 0.4399(5) -0.1973(3) 0.7551(3)
O7 O 0.4005(5) 0.0589(3) 0.6963(3)
O8 O -0.1444(5) 0.1569(3) 0.5587(3)
O9 O 0.1861(5) 0.1410(3) 0.5377(2)
O10 O -0.0634(4) -0.0633(3) 0.5687(2)
O11 O 0.1765(5) 0.1836(3) 0.2630(3)
O12 O 0.5869(4) -0.0669(3) 0.5822(2)
O13 O 0.6734(4) -0.2703(3) 0.6298(2)
C1 C -0.3711(7) 0.4683(4) 0.6569(4)
C2 C -0.4293(7) 0.4662(5) 0.7466(4)
H1 H -0.4390 0.5244 0.7684
C3 C -0.4721(8) 0.3730(5) 0.8022(4)
H2 H -0.5113 0.3678 0.8633
C4 C -0.4579(7) 0.2859(5) 0.7684(4)
H3 H -0.4874 0.2243 0.8081
C5 C -0.4019(7) 0.2887(4) 0.6790(4)
H4 H -0.3933 0.2306 0.6574
C6 C -0.3584(7) 0.3828(4) 0.6217(4)
C7 C -0.2692(7) 0.5071(4) 0.5109(4)
C8 C -0.1945(7) 0.5650(4) 0.4228(4)
C9 C -0.1892(7) 0.5400(4) 0.3406(4)
H5 H -0.2363 0.4854 0.3392
C10 C -0.1147(8) 0.5954(5) 0.2607(4)
H6 H -0.1114 0.5763 0.2065
C11 C -0.0536(8) 0.7010(4) 0.3380(4)
H7 H -0.0091 0.7574 0.3373
C12 C -0.1224(7) 0.6483(4) 0.4199(4)
H8 H -0.1215 0.6676 0.4737
C13 C 0.2017(8) 0.9282(5) 0.0348(4)
C14 C 0.1829(8) 0.9868(5) 0.0972(4)
H9 H 0.1391 0.9627 0.1576
C15 C 0.2322(8) 1.0826(5) 0.0655(5)
H10 H 0.2245 1.1229 0.1059
C16 C 0.2940(9) 1.1203(5) -0.0270(4)
H11 H 0.3245 1.1856 -0.0465
C17 C 0.3105(8) 1.0626(5) -0.0891(4)
H12 H 0.3512 1.0876 -0.1501
C18 C 0.2636(8) 0.9659(5) -0.0567(4)
C19 C 0.2054(8) 0.8090(5) -0.0349(4)
C20 C 0.1908(7) 0.7122(5) -0.0539(4)
C21 C 0.1493(7) 0.7176(5) -0.1427(4)
H13 H 0.1280 0.7833 -0.1911
C22 C 0.1396(8) 0.6238(5) -0.1589(4)
H14 H 0.1110 0.6291 -0.2188
C23 C 0.2111(10) 0.5215(6) -0.0065(5)
H15 H 0.2340 0.4547 0.0404
C24 C 0.2215(9) 0.6108(5) 0.0155(5)
H16 H 0.2487 0.6036 0.0762
N1 N -0.3120(6) 0.5461(4) 0.5848(3)
H17 H -0.3041 0.6074 0.5867
N2 N -0.2954(6) 0.4094(3) 0.5295(3)
N3 N -0.0461(6) 0.6762(4) 0.2579(3)
N4 N 0.1636(6) 0.8299(4) 0.0462(3)
N5 N 0.2654(6) 0.8877(4) -0.0973(3)
H18 H 0.2996 0.8893 -0.1536
N6 N 0.1698(7) 0.5254(4) -0.0920(4)
Mo1A Mo -0.02494(6) -0.04545(4) 0.41175(3)
Mo2A Mo 0.58751(6) -0.06220(3) 0.41770(3)
Mo3A Mo 0.55830(6) 0.19121(4) 0.35968(3)
Mo4A Mo -0.16738(6) -0.18643(3) 0.62479(3)
Mo4A_2 Mo 0.83262(6) -0.18643(3) 0.62479(3)
Cu2A Cu 0.23146(9) -0.30744(6) 0.53925(5)
O1A O 0.4848(4) -0.1627(3) 0.4765(3)
O5A O -0.3386(4) 0.2867(3) 0.3604(3)
O10A O 0.0634(4) 0.0633(3) 0.4313(2)
O12A O 0.4131(4) 0.0669(3) 0.4178(2)
O13A O 0.3266(4) 0.2703(3) 0.3702(2)
loop_
_geom_bond_atom_site_label_1
_geom_bond_atom_site_label_2
_geom_bond_site_symmetry_1
_geom_bond_site_symmetry_2
Mo1 O2 1_555 1_555
Mo2 O1 1_555 1_555
Mo3 O2 1_555 1_555
Mo4 O3 1_555 1_555
Cu1 N3 1_555 1_555
Cu2 O3 1_555 1_555
O1 Mo3A 1_555 1_555
O2 Mo2 1_555 1_555
O4 Mo1 1_555 1_555
O5 Mo3 1_555 1_555
O6 Mo3 1_555 1_555
O7 Mo2 1_555 1_555
O8 Mo1 1_555 1_555
O9 Mo1 1_555 1_555
O10 Mo1 1_555 1_555
O11 Mo4 1_555 1_555
O12 Mo2 1_555 1_555
O13 Mo3 1_555 1_555
C1 C2 1_555 1_555
C2 H1 1_555 1_555
C3 C2 1_555 1_555
H2 C3 1_555 1_555
C4 C3 1_555 1_555
H3 C4 1_555 1_555
C5 C4 1_555 1_555
H4 C5 1_555 1_555
C6 C1 1_555 1_555
C7 C8 1_555 1_555
C8 C9 1_555 1_555
C9 H5 1_555 1_555
C10 C9 1_555 1_555
H6 C10 1_555 1_555
C11 H7 1_555 1_555
C12 C8 1_555 1_555
H8 C12 1_555 1_555
C13 C14 1_555 1_555
C14 H9 1_555 1_555
C15 C14 1_555 1_555
H10 C15 1_555 1_555
C16 C15 1_555 1_555
H11 C16 1_555 1_555
C17 C16 1_555 1_555
H12 C17 1_555 1_555
C18 C13 1_555 1_555
C19 C20 1_555 1_555
C20 C21 1_555 1_555
C21 H13 1_555 1_555
C22 C21 1_555 1_555
H14 C22 1_555 1_555
C23 H15 1_555 1_555
C24 C20 1_555 1_555
H16 C24 1_555 1_555
N1 C1 1_555 1_555
H17 N1 1_555 1_555
N2 Cu2 1_555 1_555
N3 C10 1_555 1_555
N4 Cu1 1_555 1_555
N5 C18 1_555 1_555
H18 N5 1_555 1_555
N6 C22 1_555 1_555
Mo1A O10 1_555 1_555
Mo2A O12 1_555 1_555
Mo3A O12A 1_555 1_555
Mo4A O10 1_555 1_555
Mo4A_2 O12 1_555 1_555
Cu2A O5 1_555 1_555
O1A Mo3 1_555 1_555
O5A Cu2 1_555 1_555
O10A Mo1 1_555 1_555
O12A Mo2 1_555 1_555
O13A Mo4 1_555 1_555
Mo2 O9 1_555 1_555
Mo3 O12 1_555 1_555
Mo4 O9 1_555 1_555
Mo4 O10A 1_555 1_555
Mo4 O12A 1_555 1_555
Cu2 O8 1_555 1_555
O13 Mo4A_2 1_555 1_555
C5 C6 1_555 1_555
C6 N2 1_555 1_555
C7 N1 1_555 1_555
C7 N2 1_555 1_555
C11 C12 1_555 1_555
C11 N3 1_555 1_555
C13 N4 1_555 1_555
C17 C18 1_555 1_555
C19 N4 1_555 1_555
C19 N5 1_555 1_555
C23 C24 1_555 1_555
C23 N6 1_555 1_555
Mo1A O10A 1_555 1_555
Mo2A O1A 1_555 1_555
Mo2A O12A 1_555 1_555
Mo3A O13A 1_555 1_555

#END
