
#######################################################################
#
#                 Cambridge Crystallographic Data Centre
#                                CCDC 
#
#######################################################################
#
# If this CIF has been generated from an entry in the Cambridge 
# Structural Database, then it will include bibliographic, chemical, 
# crystal, experimental, refinement or atomic coordinate data resulting 
# from the CCDC's data processing and validation procedures.
#
#######################################################################

data_PEPVOW
_symmetry_cell_setting           triclinic
_symmetry_space_group_name_H-M   'P -1'
_symmetry_Int_Tables_number      2
_space_group_name_Hall           '-P 1'
loop_
_symmetry_equiv_pos_site_id
_symmetry_equiv_pos_as_xyz
1 x,y,z
2 -x,-y,-z
_cell_length_a                   8.132(2)
_cell_length_b                   10.126(3)
_cell_length_c                   12.254(4)
_cell_angle_alpha                105.413(3)
_cell_angle_beta                 108.894(3)
_cell_angle_gamma                95.914(2)
_cell_volume                     900.351
loop_
_atom_site_label
_atom_site_type_symbol
_atom_site_fract_x
_atom_site_fract_y
_atom_site_fract_z
Co1 Co 0.5000 0.5000 0.5000
O1 O 0.7539(4) 0.4794(3) 0.4955(4)
H1 H 0.793(7) 0.407(3) 0.500(5)
H2 H 0.830(5) 0.552(3) 0.514(5)
O2 O 1.0354(4) 1.2574(3) 0.4680(3)
O3 O 0.7417(4) 1.0833(3) 0.2921(2)
O4 O 0.0859(3) 0.9544(3) 0.1921(2)
O5 O 0.3167(3) 0.7765(3) 0.2763(2)
O6 O 0.6836(3) 0.8804(3) 0.3861(2)
O7 O -0.0459(4) 0.7153(3) 0.2180(2)
O8 O 0.3988(3) 1.0255(3) 0.4100(2)
O9 O 1.0301(3) 0.9666(3) 0.4076(2)
O10 O 0.2433(3) 0.8197(3) 0.4676(2)
O11 O 0.5319(3) 0.6870(3) 0.4648(2)
C1 C 0.2226(5) -0.1621(4) -0.0696(3)
C2 C 0.1420(6) -0.2784(4) -0.1747(4)
H3 H 0.0496 -0.2755 -0.2422
C3 C 0.2087(7) -0.3968(5) -0.1713(4)
H4 H 0.1614 -0.4765 -0.2393
C4 C 0.3453(8) -0.4017(5) -0.0691(4)
H5 H 0.3829 -0.4857 -0.0706
C5 C 0.4274(7) -0.2865(5) 0.0346(4)
H6 H 0.5197 -0.2896 0.1021
C6 C 0.3613(5) -0.1668(4) 0.0301(3)
C7 C 0.3049(5) 0.0472(4) 0.0695(3)
C8 C 0.3041(5) 0.1936(4) 0.1275(3)
C9 C 0.3826(5) 0.2557(4) 0.2539(3)
H7 H 0.4404 0.2044 0.3016
C10 C 0.2892(6) 0.4596(4) 0.2377(4)
H8 H 0.2811 0.5501 0.2754
C11 C 0.2118(6) 0.4056(4) 0.1127(4)
H9 H 0.1547 0.4592 0.0672
C12 C 0.2206(6) 0.2710(5) 0.0567(3)
H10 H 0.1713 0.2324 -0.0276
N1 N 0.1907(4) -0.0285(3) -0.0422(3)
H11 H 0.1104 0.0015 -0.0891
N2 N 0.4106(4) -0.0323(3) 0.1153(3)
H12 H 0.4950 -0.0056 0.1855
N3 N 0.3757(5) 0.3882(3) 0.3075(3)
Mo1 Mo 0.88495(4) 1.10898(3) 0.43720(3)
Mo2 Mo 0.51406(4) 0.84469(3) 0.43540(3)
Mo3 Mo 0.12306(4) 0.85669(3) 0.29058(3)
O1A O 0.2461(4) 0.5206(3) 0.5045(4)
H1A H 0.207(7) 0.593(3) 0.500(5)
H2A H 0.170(5) 0.448(3) 0.486(5)
O2A O -0.0354(4) -0.2574(3) 0.5320(3)
O3A O 0.2583(4) -0.0833(3) 0.7079(2)
O4A O 0.9141(3) 0.0456(3) 0.8079(2)
O5A O 0.6833(3) 0.2235(3) 0.7237(2)
O6A O 0.3164(3) 0.1196(3) 0.6139(2)
O7A O 1.0459(4) 0.2847(3) 0.7820(2)
O8A O 0.6012(3) 0.9745(3) 0.5900(2)
O8A_2 O 0.6012(3) -0.0255(3) 0.5900(2)
O8_2 O 0.3988(3) 0.0255(3) 0.4100(2)
O9A O 0.9699(3) 1.0334(3) 0.5924(2)
O9_2 O 0.0301(3) 0.9666(3) 0.4076(2)
O9_3 O 0.0301(3) -0.0334(3) 0.4076(2)
O9A_2 O -0.0301(3) 0.0334(3) 0.5924(2)
O9A_3 O 0.9699(3) 0.0334(3) 0.5924(2)
O10A O 0.7567(3) 0.1803(3) 0.5324(2)
O10A_2 O 0.7567(3) 1.1803(3) 0.5324(2)
O10_2 O 0.2433(3) -0.1803(3) 0.4676(2)
O11A O 0.4681(3) 0.3130(3) 0.5352(2)
C1A C 0.7774(5) 1.1621(4) 1.0696(3)
C2A C 0.8580(6) 1.2784(4) 1.1747(4)
H3A H 0.9504 1.2755 1.2422
C3A C 0.7913(7) 1.3968(5) 1.1713(4)
H4A H 0.8386 1.4765 1.2393
C4A C 0.6547(8) 1.4017(5) 1.0691(4)
H5A H 0.6171 1.4857 1.0706
C5A C 0.5726(7) 1.2865(5) 0.9654(4)
H6A H 0.4803 1.2896 0.8979
C6A C 0.6387(5) 1.1668(4) 0.9699(3)
C7A C 0.6951(5) 0.9528(4) 0.9305(3)
C8A C 0.6959(5) 0.8064(4) 0.8725(3)
C9A C 0.6174(5) 0.7443(4) 0.7461(3)
H7A H 0.5596 0.7956 0.6984
C10A C 0.7108(6) 0.5404(4) 0.7623(4)
H8A H 0.7189 0.4499 0.7246
C11A C 0.7882(6) 0.5944(4) 0.8873(4)
H9A H 0.8453 0.5408 0.9328
C12A C 0.7794(6) 0.7290(5) 0.9433(3)
H10A H 0.8287 0.7676 1.0276
N1A N 0.8093(4) 1.0285(3) 1.0422(3)
H11A H 0.8896 0.9985 1.0891
N2A N 0.5894(4) 1.0323(3) 0.8847(3)
H12A H 0.5050 1.0056 0.8145
N3A N 0.6243(5) 0.6118(3) 0.6925(3)
Mo1A Mo 0.11505(4) -0.10898(3) 0.56280(3)
Mo1A_2 Mo 1.11505(4) 0.89102(3) 0.56280(3)
Mo1A_3 Mo 0.11505(4) 0.89102(3) 0.56280(3)
Mo1_2 Mo 0.88495(4) 0.10898(3) 0.43720(3)
Mo2A Mo 0.48594(4) 0.15531(3) 0.56460(3)
Mo2A_2 Mo 0.48594(4) 1.15531(3) 0.56460(3)
Mo3A Mo 0.87694(4) 0.14331(3) 0.70942(3)
Mo3A_2 Mo 0.87694(4) 1.14331(3) 0.70942(3)
Mo3_2 Mo 1.12306(4) 0.85669(3) 0.29058(3)
loop_
_geom_bond_atom_site_label_1
_geom_bond_atom_site_label_2
_geom_bond_site_symmetry_1
_geom_bond_site_symmetry_2
Co1 O1 1_555 1_555
O1 H1 1_555 1_555
H2 O1 1_555 1_555
O2 Mo1 1_555 1_555
O3 Mo1 1_555 1_555
O4 Mo3 1_555 1_555
O5 Mo2 1_555 1_555
O6 Mo1 1_555 1_555
O7 Mo3 1_555 1_555
O8 Mo2 1_555 1_555
O9 Mo1 1_555 1_555
O10 Mo2 1_555 1_555
O11 Co1 1_555 1_555
C1 C2 1_555 1_555
C2 H3 1_555 1_555
C3 C2 1_555 1_555
H4 C3 1_555 1_555
C4 C3 1_555 1_555
H5 C4 1_555 1_555
C5 C4 1_555 1_555
H6 C5 1_555 1_555
C6 C1 1_555 1_555
C7 C8 1_555 1_555
C8 C9 1_555 1_555
C9 H7 1_555 1_555
C10 H8 1_555 1_555
C11 C10 1_555 1_555
H9 C11 1_555 1_555
C12 C8 1_555 1_555
H10 C12 1_555 1_555
N1 C1 1_555 1_555
H11 N1 1_555 1_555
N2 C6 1_555 1_555
H12 N2 1_555 1_555
N3 Co1 1_555 1_555
Mo1 O9A 1_555 1_555
Mo2 O6 1_555 1_555
Mo3 O5 1_555 1_555
O1A Co1 1_555 1_555
H1A O1A 1_555 1_555
H2A O1A 1_555 1_555
O2A Mo1A 1_555 1_555
O3A Mo1A 1_555 1_555
O4A Mo3A 1_555 1_555
O5A Mo2A 1_555 1_555
O6A Mo1A 1_555 1_555
O7A Mo3A 1_555 1_555
O8A Mo2 1_555 1_555
O8A_2 Mo2A 1_555 1_555
O8_2 Mo2A 1_555 1_555
O9A Mo1A_2 1_555 1_555
O9_2 Mo3 1_555 1_555
O9_3 Mo1A 1_555 1_555
O9A_2 Mo1A 1_555 1_555
O9A_3 Mo1_2 1_555 1_555
O10A Mo1_2 1_555 1_555
O10A_2 Mo1 1_555 1_555
O10_2 Mo1A 1_555 1_555
O11A Co1 1_555 1_555
C1A C2A 1_555 1_555
C2A H3A 1_555 1_555
C3A C2A 1_555 1_555
H4A C3A 1_555 1_555
C4A C3A 1_555 1_555
H5A C4A 1_555 1_555
C5A C4A 1_555 1_555
H6A C5A 1_555 1_555
C6A C1A 1_555 1_555
C7A C8A 1_555 1_555
C8A C9A 1_555 1_555
C9A H7A 1_555 1_555
C10A H8A 1_555 1_555
C11A C10A 1_555 1_555
H9A C11A 1_555 1_555
C12A C8A 1_555 1_555
H10A C12A 1_555 1_555
N1A C1A 1_555 1_555
H11A N1A 1_555 1_555
N2A C6A 1_555 1_555
H12A N2A 1_555 1_555
N3A Co1 1_555 1_555
Mo1A_2 O9 1_555 1_555
Mo1A_3 O10 1_555 1_555
Mo2A O6A 1_555 1_555
Mo2A_2 O8 1_555 1_555
Mo3A O5A 1_555 1_555
Mo3A_2 O8A 1_555 1_555
Mo3_2 O9 1_555 1_555
O8 Mo3 1_555 1_555
O10 Mo3 1_555 1_555
O11 Mo2 1_555 1_555
C5 C6 1_555 1_555
C7 N1 1_555 1_555
C7 N2 1_555 1_555
C9 N3 1_555 1_555
C10 N3 1_555 1_555
C11 C12 1_555 1_555
O8A Mo2A_2 1_555 1_555
O8A_2 Mo3A 1_555 1_555
O9A Mo3A_2 1_555 1_555
O9_2 Mo1A_3 1_555 1_555
O9A_3 Mo3A 1_555 1_555
O10A Mo2A 1_555 1_555
O10A Mo3A 1_555 1_555
O10A_2 Mo2A_2 1_555 1_555
O10A_2 Mo3A_2 1_555 1_555
O11A Mo2A 1_555 1_555
C5A C6A 1_555 1_555
C7A N1A 1_555 1_555
C7A N2A 1_555 1_555
C9A N3A 1_555 1_555
C10A N3A 1_555 1_555
C11A C12A 1_555 1_555

#END
