
#######################################################################
#
#                 Cambridge Crystallographic Data Centre
#                                CCDC 
#
#######################################################################
#
# If this CIF has been generated from an entry in the Cambridge 
# Structural Database, then it will include bibliographic, chemical, 
# crystal, experimental, refinement or atomic coordinate data resulting 
# from the CCDC's data processing and validation procedures.
#
#######################################################################

data_PEPVIQ
_symmetry_cell_setting           triclinic
_symmetry_space_group_name_H-M   'P -1'
_symmetry_Int_Tables_number      2
_space_group_name_Hall           '-P 1'
loop_
_symmetry_equiv_pos_site_id
_symmetry_equiv_pos_as_xyz
1 x,y,z
2 -x,-y,-z
_cell_length_a                   7.5787(5)
_cell_length_b                   10.9481(4)
_cell_length_c                   12.2977(6)
_cell_angle_alpha                69.444(13)
_cell_angle_beta                 85.697(19)
_cell_angle_gamma                79.898(18)
_cell_volume                     940.49
loop_
_atom_site_label
_atom_site_type_symbol
_atom_site_fract_x
_atom_site_fract_y
_atom_site_fract_z
Cu1 Cu 0.31330(13) 0.15341(9) 0.26241(8)
Mo1 Mo 0.79982(9) 0.30628(6) 0.01228(6)
Mo2 Mo 0.49138(8) 0.45797(6) 0.15479(5)
Mo3 Mo -0.01103(9) 0.46026(6) 0.15311(5)
N1 N 0.2927(9) 0.0931(6) 0.4338(6)
N2 N 0.2459(9) -0.0366(7) 0.6136(6)
H1 H 0.2215 -0.1047 0.6703
N3 N 0.1594(10) -0.2038(7) 0.3102(6)
H2 H 0.1553 -0.1915 0.2374
O1 O 0.2112(9) 0.0056(6) 0.2578(5)
O3 O 0.3548(11) 0.1795(8) 0.0980(6)
H3 H 0.250(6) 0.208(10) 0.072(10)
H4 H 0.421(11) 0.237(8) 0.067(9)
O4 O 0.0619(7) 0.3027(5) 0.2473(5)
O5 O 0.8069(8) 0.1812(6) 0.1445(5)
O6 O 0.4627(7) 0.2953(5) 0.2399(5)
O7 O 0.8359(8) 0.2263(5) -0.0873(5)
O8 O -0.0779(8) 0.5491(5) 0.2426(4)
O9 O 0.7449(7) 0.4408(5) 0.1234(5)
O10 O 0.4847(8) 0.5335(5) 0.2543(5)
O11 O 0.5413(7) 0.3768(5) -0.0021(4)
O12 O 0.2343(7) 0.4972(5) 0.1186(4)
O13 O 0.0212(7) 0.3735(5) 0.0082(4)
C1 C 0.3191(11) 0.1589(7) 0.5082(7)
C2 C 0.3600(11) 0.2823(8) 0.4896(7)
H5 H 0.3730 0.3410 0.4147
C3 C 0.3815(11) 0.3173(8) 0.5863(7)
H6 H 0.4126 0.3993 0.5756
C4 C 0.3567(12) 0.2304(8) 0.6989(7)
H7 H 0.3716 0.2566 0.7614
C5 C 0.3111(12) 0.1080(8) 0.7207(7)
H8 H 0.2956 0.0501 0.7957
C6 C 0.2900(10) 0.0768(7) 0.6238(7)
C7 C 0.2476(11) -0.0221(7) 0.4992(7)
C8 C 0.2060(9) -0.1265(8) 0.4619(6)
C9 C 0.1936(11) -0.1014(8) 0.3396(7)
C10 C 0.1317(11) -0.3223(8) 0.3853(8)
H9 H 0.1036 -0.3859 0.3583
C11 C 0.1451(12) -0.3487(8) 0.5026(7)
H10 H 0.1282 -0.4305 0.5562
C12 C 0.1845(11) -0.2503(8) 0.5387(8)
H11 H 0.1971 -0.2682 0.6177
Mo1A Mo 0.20018(9) 0.69372(6) -0.01228(6)
Mo1_2 Mo -0.20018(9) 0.30628(6) 0.01228(6)
Mo2A Mo 0.50862(8) 0.54203(6) -0.15479(5)
Mo3_2 Mo 0.98897(9) 0.46026(6) 0.15311(5)
Mo3A Mo 0.01103(9) 0.53974(6) -0.15311(5)
O9_2 O -0.2551(7) 0.4408(5) 0.1234(5)
O11A O 0.4587(7) 0.6232(5) 0.0021(4)
O12A O 0.7657(7) 0.5028(5) -0.1186(4)
O13_2 O 1.0212(7) 0.3735(5) 0.0082(4)
O13A O -0.0212(7) 0.6265(5) -0.0082(4)
O2 O 0.194(2) 0.0609(14) -0.0134(13)
loop_
_geom_bond_atom_site_label_1
_geom_bond_atom_site_label_2
_geom_bond_site_symmetry_1
_geom_bond_site_symmetry_2
Cu1 N1 1_555 1_555
Mo1 O5 1_555 1_555
Mo2 O6 1_555 1_555
Mo3 O4 1_555 1_555
N1 C1 1_555 1_555
N2 H1 1_555 1_555
N3 H2 1_555 1_555
O1 Cu1 1_555 1_555
O3 Cu1 1_555 1_555
H3 O3 1_555 1_555
H4 O3 1_555 1_555
O4 Cu1 1_555 1_555
O6 Cu1 1_555 1_555
O7 Mo1 1_555 1_555
O8 Mo3 1_555 1_555
O9 Mo1 1_555 1_555
O10 Mo2 1_555 1_555
O11 Mo1 1_555 1_555
O12 Mo2 1_555 1_555
O13 Mo3 1_555 1_555
C1 C2 1_555 1_555
C2 H5 1_555 1_555
C3 C2 1_555 1_555
H6 C3 1_555 1_555
C4 C3 1_555 1_555
H7 C4 1_555 1_555
C5 C4 1_555 1_555
H8 C5 1_555 1_555
C6 N2 1_555 1_555
C7 N1 1_555 1_555
C8 C7 1_555 1_555
C9 N3 1_555 1_555
C10 N3 1_555 1_555
H9 C10 1_555 1_555
C11 C10 1_555 1_555
H10 C11 1_555 1_555
C12 C8 1_555 1_555
H11 C12 1_555 1_555
Mo1A O12 1_555 1_555
Mo1_2 O13 1_555 1_555
Mo2A O11 1_555 1_555
Mo3_2 O9 1_555 1_555
Mo3A O13 1_555 1_555
O9_2 Mo3 1_555 1_555
O11A Mo2 1_555 1_555
O12A Mo1 1_555 1_555
O13_2 Mo1 1_555 1_555
O13A Mo3 1_555 1_555
Mo2 O9 1_555 1_555
Mo2 O11 1_555 1_555
Mo3 O12 1_555 1_555
N2 C7 1_555 1_555
O1 C9 1_555 1_555
C1 C6 1_555 1_555
C5 C6 1_555 1_555
C8 C9 1_555 1_555
C11 C12 1_555 1_555
Mo1A O11A 1_555 1_555
Mo1A O13A 1_555 1_555
Mo1_2 O9_2 1_555 1_555
Mo2A O11A 1_555 1_555
Mo2A O12A 1_555 1_555
Mo3_2 O13_2 1_555 1_555
Mo3A O13A 1_555 1_555

#END
