
#######################################################################
#
#                 Cambridge Crystallographic Data Centre
#                                CCDC 
#
#######################################################################
#
# If this CIF has been generated from an entry in the Cambridge 
# Structural Database, then it will include bibliographic, chemical, 
# crystal, experimental, refinement or atomic coordinate data resulting 
# from the CCDC's data processing and validation procedures.
#
#######################################################################

data_PEPWUD
_symmetry_cell_setting           monoclinic
_symmetry_space_group_name_H-M   'P 21/c'
_symmetry_Int_Tables_number      14
_space_group_name_Hall           '-P 2ybc'
loop_
_symmetry_equiv_pos_site_id
_symmetry_equiv_pos_as_xyz
1 x,y,z
2 -x,1/2+y,1/2-z
3 -x,-y,-z
4 x,1/2-y,1/2+z
_cell_length_a                   7.1139(14)
_cell_length_b                   9.9556(11)
_cell_length_c                   10.7313(18)
_cell_angle_alpha                90
_cell_angle_beta                 108.277(7)
_cell_angle_gamma                90
_cell_volume                     721.682
loop_
_atom_site_label
_atom_site_type_symbol
_atom_site_fract_x
_atom_site_fract_y
_atom_site_fract_z
Cd1 Cd 0.29158(5) 0.07808(3) 0.85475(3)
I1 I -0.10844(5) 0.06732(4) 0.76774(4)
C1 C 0.3161(7) 0.2559(5) 1.1054(4)
N1 N 0.4005(6) 0.1611(4) 1.0563(4)
N2 N 0.5365(6) 0.0992(4) 1.1640(4)
N3 N 0.1751(7) 0.3439(4) 1.0337(4)
H1 H 0.1351 0.3396 0.9494
H2 H 0.1266 0.4035 1.0730
N4 N 0.3852(5) 0.2630(4) 1.2375(4)
N5 N 0.6260(7) 0.1315(5) 1.3949(4)
H3 H 0.7091 0.0661 1.4104
H4 H 0.6094 0.1768 1.4588
C2 C 0.5216(6) 0.1631(4) 1.2700(4)
Cd1B Cd 0.70842(5) -0.07808(3) 1.14525(3)
Cd1C Cd 0.29158(5) 0.42192(3) 1.35475(3)
N2B N 0.4635(6) -0.0992(4) 0.8360(4)
N4C N 0.3852(5) 0.2370(4) 0.7375(4)
loop_
_geom_bond_atom_site_label_1
_geom_bond_atom_site_label_2
_geom_bond_site_symmetry_1
_geom_bond_site_symmetry_2
Cd1 I1 1_555 1_555
C1 N1 1_555 1_555
N1 Cd1 1_555 1_555
N2 N1 1_555 1_555
N3 C1 1_555 1_555
H1 N3 1_555 1_555
H2 N3 1_555 1_555
N4 C1 1_555 1_555
N5 H3 1_555 1_555
H4 N5 1_555 1_555
C2 N2 1_555 1_555
Cd1B N2 1_555 1_555
Cd1C N4 1_555 1_555
N2B Cd1 1_555 1_555
N4C Cd1 1_555 1_555
N4 C2 1_555 1_555
N5 C2 1_555 1_555

#END
