
#######################################################################
#
#                 Cambridge Crystallographic Data Centre
#                                CCDC 
#
#######################################################################
#
# If this CIF has been generated from an entry in the Cambridge 
# Structural Database, then it will include bibliographic, chemical, 
# crystal, experimental, refinement or atomic coordinate data resulting 
# from the CCDC's data processing and validation procedures.
#
#######################################################################

data_PEPWIR
_symmetry_cell_setting           triclinic
_symmetry_space_group_name_H-M   'P -1'
_symmetry_Int_Tables_number      2
_space_group_name_Hall           '-P 1'
loop_
_symmetry_equiv_pos_site_id
_symmetry_equiv_pos_as_xyz
1 x,y,z
2 -x,-y,-z
_cell_length_a                   9.089(3)
_cell_length_b                   9.179(3)
_cell_length_c                   9.240(3)
_cell_angle_alpha                70.89(2)
_cell_angle_beta                 71.71(2)
_cell_angle_gamma                62.637(17)
_cell_volume                     634.52
loop_
_atom_site_label
_atom_site_type_symbol
_atom_site_fract_x
_atom_site_fract_y
_atom_site_fract_z
Cd1 Cd 0.0000 0.0000 0.0000
Cd2 Cd -0.12586(2) 0.38142(2) -0.34989(2)
Cl1 Cl 0.02033(9) 0.38068(9) -0.63722(8)
Cl2 Cl -0.41241(9) 0.60262(9) -0.40575(9)
Cl3 Cl 0.15667(9) 0.13923(10) -0.25789(10)
C1 C -0.1993(4) 0.3369(4) 0.1564(3)
H1 H -0.1688 0.2798 0.2531
C2 C -0.3099(4) 0.5331(3) -0.0308(3)
H2 H -0.3705 0.6375 -0.0877
C3 C 0.2703(4) 0.0512(4) 0.1312(4)
H3 H 0.2818 0.1333 0.0425
C4 C 0.2920(4) -0.1136(4) 0.3568(4)
H4 H 0.3208 -0.1672 0.4545
N1 N -0.1603(3) 0.2681(3) 0.0399(3)
N2 N -0.2312(3) 0.3940(3) -0.0817(3)
N3 N 0.2031(3) -0.1486(3) 0.2960(3)
N4 N 0.1888(3) -0.0406(3) 0.1505(3)
N5 N -0.2901(3) 0.5026(3) 0.1169(3)
N6 N 0.3358(3) 0.0107(3) 0.2579(3)
N7 N 0.4274(4) 0.0909(3) 0.2737(4)
H5 H 0.4650 0.0612 0.3579
H6 H 0.4459 0.1698 0.1992
N8 N -0.3581(4) 0.6240(3) 0.2074(3)
H7 H -0.3432 0.5948 0.3018
H8 H -0.4146 0.7275 0.1683
Cd2A Cd 0.12586(2) -0.38142(2) 0.34989(2)
Cd2A_2 Cd 0.12586(2) 0.61858(2) -0.65011(2)
Cl1A Cl -0.02033(9) 0.61932(9) -0.36278(8)
Cl1_2 Cl 0.02033(9) -0.61932(9) 0.36278(8)
Cl1A_2 Cl -0.02033(9) -0.38068(9) 0.63722(8)
Cl2A Cl 0.41241(9) -0.60262(9) 0.40575(9)
Cl3A Cl -0.15667(9) -0.13923(10) 0.25789(10)
C1A C 0.1993(4) -0.3369(4) -0.1564(3)
H1A H 0.1688 -0.2798 -0.2531
C2A C 0.3099(4) -0.5331(3) 0.0308(3)
H2A H 0.3705 -0.6375 0.0877
C3A C -0.2703(4) -0.0512(4) -0.1312(4)
H3A H -0.2818 -0.1333 -0.0425
C4A C -0.2920(4) 0.1136(4) -0.3568(4)
H4A H -0.3208 0.1672 -0.4545
N1A N 0.1603(3) -0.2681(3) -0.0399(3)
N2A N 0.2312(3) -0.3940(3) 0.0817(3)
N3A N -0.2031(3) 0.1486(3) -0.2960(3)
N4A N -0.1888(3) 0.0406(3) -0.1505(3)
N5A N 0.2901(3) -0.5026(3) -0.1169(3)
N6A N -0.3358(3) -0.0107(3) -0.2579(3)
N7A N -0.4274(4) -0.0909(3) -0.2737(4)
H5A H -0.4650 -0.0612 -0.3579
H6A H -0.4459 -0.1698 -0.1992
N8A N 0.3581(4) -0.6240(3) -0.2074(3)
H7A H 0.3432 -0.5948 -0.3018
H8A H 0.4146 -0.7275 -0.1683
loop_
_geom_bond_atom_site_label_1
_geom_bond_atom_site_label_2
_geom_bond_site_symmetry_1
_geom_bond_site_symmetry_2
Cd1 Cl3 1_555 1_555
Cd2 Cl1 1_555 1_555
Cl1 Cd2A_2 1_555 1_555
Cl2 Cd2 1_555 1_555
Cl3 Cd2 1_555 1_555
C1 H1 1_555 1_555
C2 H2 1_555 1_555
C3 H3 1_555 1_555
C4 H4 1_555 1_555
N1 Cd1 1_555 1_555
N2 Cd2 1_555 1_555
N3 C4 1_555 1_555
N4 Cd1 1_555 1_555
N5 C1 1_555 1_555
N6 C3 1_555 1_555
N7 N6 1_555 1_555
H5 N7 1_555 1_555
H6 N7 1_555 1_555
N8 N5 1_555 1_555
H7 N8 1_555 1_555
H8 N8 1_555 1_555
Cd2A N3 1_555 1_555
Cd2A_2 Cl1A 1_555 1_555
Cl1A Cd2 1_555 1_555
Cl1_2 Cd2A 1_555 1_555
Cl1A_2 Cd2A 1_555 1_555
Cl2A Cd2A 1_555 1_555
Cl3A Cd1 1_555 1_555
C1A H1A 1_555 1_555
C2A H2A 1_555 1_555
C3A H3A 1_555 1_555
C4A H4A 1_555 1_555
N1A Cd1 1_555 1_555
N2A Cd2A 1_555 1_555
N3A Cd2 1_555 1_555
N4A Cd1 1_555 1_555
N5A C1A 1_555 1_555
N6A C3A 1_555 1_555
N7A N6A 1_555 1_555
H5A N7A 1_555 1_555
H6A N7A 1_555 1_555
N8A N5A 1_555 1_555
H7A N8A 1_555 1_555
H8A N8A 1_555 1_555
C1 N1 1_555 1_555
C2 N2 1_555 1_555
C2 N5 1_555 1_555
C3 N4 1_555 1_555
C4 N6 1_555 1_555
N1 N2 1_555 1_555
N3 N4 1_555 1_555
Cd2A Cl3A 1_555 1_555
C1A N1A 1_555 1_555
C2A N2A 1_555 1_555
C2A N5A 1_555 1_555
C3A N4A 1_555 1_555
C4A N3A 1_555 1_555
C4A N6A 1_555 1_555
N1A N2A 1_555 1_555
N3A N4A 1_555 1_555

#END
