
#######################################################################
#
#                 Cambridge Crystallographic Data Centre
#                                CCDC 
#
#######################################################################
#
# If this CIF has been generated from an entry in the Cambridge 
# Structural Database, then it will include bibliographic, chemical, 
# crystal, experimental, refinement or atomic coordinate data resulting 
# from the CCDC's data processing and validation procedures.
#
#######################################################################

data_PEPXAK
_symmetry_cell_setting           monoclinic
_symmetry_space_group_name_H-M   'P 21/c'
_symmetry_Int_Tables_number      14
_space_group_name_Hall           '-P 2ybc'
loop_
_symmetry_equiv_pos_site_id
_symmetry_equiv_pos_as_xyz
1 x,y,z
2 -x,1/2+y,1/2-z
3 -x,-y,-z
4 x,1/2-y,1/2+z
_cell_length_a                   7.6304(6)
_cell_length_b                   9.2864(8)
_cell_length_c                   9.8460(8)
_cell_angle_alpha                90
_cell_angle_beta                 100.126(3)
_cell_angle_gamma                90
_cell_volume                     686.81
loop_
_atom_site_label
_atom_site_type_symbol
_atom_site_fract_x
_atom_site_fract_y
_atom_site_fract_z
Zn1 Zn 0.69001(3) 0.94236(3) 0.64053(3)
Cl1 Cl 0.97026(9) 1.01313(9) 0.69155(7)
C1 C 0.7106(3) 0.7485(3) 0.8984(2)
C2 C 0.4837(3) 0.6980(3) 0.7457(2)
C3 C 0.8738(4) 0.8168(3) 0.9760(3)
H1 H 0.9088 0.7682 1.0626
H2 H 0.8502 0.9162 0.9925
H3 H 0.9679 0.8102 0.9232
C4 C 0.3439(4) 0.7017(4) 0.6196(3)
H4 H 0.3710 0.7765 0.5592
H5 H 0.3404 0.6106 0.5730
H6 H 0.2303 0.7205 0.6451
N1 N 0.6248(3) 0.7886(2) 0.7715(2)
N2 N 0.6285(3) 0.6398(2) 0.94799(19)
N3 N 0.4821(3) 0.6070(2) 0.8488(2)
Zn1C Zn 0.69001(3) 0.55764(3) 1.14053(3)
Zn1A Zn 0.30999(3) 0.44236(3) 0.85947(3)
N2C N 0.6285(3) 0.8602(2) 0.44799(19)
N3A N 0.5179(3) 1.1070(2) 0.6512(2)
loop_
_geom_bond_atom_site_label_1
_geom_bond_atom_site_label_2
_geom_bond_site_symmetry_1
_geom_bond_site_symmetry_2
Zn1 Cl1 1_555 1_555
C1 C3 1_555 1_555
C2 C4 1_555 1_555
C3 H1 1_555 1_555
H2 C3 1_555 1_555
H3 C3 1_555 1_555
C4 H4 1_555 1_555
H5 C4 1_555 1_555
H6 C4 1_555 1_555
N1 Zn1 1_555 1_555
N2 C1 1_555 1_555
N3 C2 1_555 1_555
Zn1C N2 1_555 1_555
Zn1A N3 1_555 1_555
N2C Zn1 1_555 1_555
N3A Zn1 1_555 1_555
C1 N1 1_555 1_555
C2 N1 1_555 1_555
N2 N3 1_555 1_555

#END
