
#######################################################################
#
#                 Cambridge Crystallographic Data Centre
#                                CCDC 
#
#######################################################################
#
# If this CIF has been generated from an entry in the Cambridge 
# Structural Database, then it will include bibliographic, chemical, 
# crystal, experimental, refinement or atomic coordinate data resulting 
# from the CCDC's data processing and validation procedures.
#
#######################################################################

data_PEPYEP
_symmetry_cell_setting           monoclinic
_symmetry_space_group_name_H-M   'P 21/n'
_symmetry_Int_Tables_number      14
_space_group_name_Hall           '-P 2yn'
loop_
_symmetry_equiv_pos_site_id
_symmetry_equiv_pos_as_xyz
1 x,y,z
2 1/2-x,1/2+y,1/2-z
3 -x,-y,-z
4 1/2+x,1/2-y,1/2+z
_cell_length_a                   17.7652(8)
_cell_length_b                   13.7052(6)
_cell_length_c                   18.1833(9)
_cell_angle_alpha                90
_cell_angle_beta                 111.3480(10)
_cell_angle_gamma                90
_cell_volume                     4123.43
loop_
_atom_site_label
_atom_site_type_symbol
_atom_site_fract_x
_atom_site_fract_y
_atom_site_fract_z
Co1 Co 0.68488(4) 0.35553(5) 0.19596(4)
Co2 Co 0.52342(4) -0.25835(5) -0.46309(4)
O1 O 0.5635(2) -0.1404(3) -0.4031(2)
O2 O 0.5934(2) -0.0413(3) -0.4859(2)
O3 O 0.6849(2) 0.2585(3) 0.1128(2)
O4 O 0.7193(2) 0.4027(3) 0.0817(2)
O5 O 0.3244(2) 0.1821(3) -0.2252(2)
O6 O 0.2612(2) 0.0407(3) -0.2386(2)
O7 O 0.9052(2) -0.2478(3) 0.0094(2)
O8 O 0.9241(2) -0.0982(3) -0.0247(2)
N1 N 0.5709(2) -0.2870(3) -0.5449(3)
N2 N 0.6313(3) -0.3681(3) -0.6109(3)
N3 N 0.5691(3) -0.3513(3) -0.3700(3)
N4 N 0.5839(3) -0.4808(4) -0.2953(3)
N5 N 0.5856(3) 0.4446(3) 0.1454(3)
N6 N 0.5215(3) 0.5831(3) 0.1017(3)
N7 N 0.6423(3) 0.2715(3) 0.2635(3)
N8 N 0.6212(3) 0.1442(3) 0.3272(3)
C1 C 0.6140(3) 0.0143(4) -0.3560(3)
C2 C 0.6465(3) 0.1034(4) -0.3651(3)
H1 H 0.6506 0.1186 -0.4133
C3 C 0.6731(3) 0.1708(4) -0.3035(3)
H2 H 0.6947 0.2303 -0.3104
C4 C 0.6668(3) 0.1475(4) -0.2318(3)
C5 C 0.6887(3) 0.2003(4) -0.1563(3)
C6 C 0.7273(3) 0.2900(4) -0.1311(3)
H3 H 0.7477 0.3254 -0.1633
C7 C 0.7344(3) 0.3248(4) -0.0577(3)
H4 H 0.7591 0.3848 -0.0410
C8 C 0.7054(3) 0.2721(4) -0.0081(3)
C9 C 0.6717(3) 0.1799(3) -0.0314(3)
H5 H 0.6547 0.1424 0.0023
C10 C 0.6640(3) 0.1454(3) -0.1047(3)
C11 C 0.6293(3) 0.0484(3) -0.1413(3)
C12 C 0.6320(3) 0.0583(3) -0.2233(3)
C13 C 0.6076(3) -0.0079(3) -0.2838(3)
H6 H 0.5866 -0.0678 -0.2766
C14 C 0.5452(3) 0.0249(3) -0.1400(3)
C15 C 0.4748(3) 0.0775(3) -0.1744(3)
H7 H 0.4750 0.1363 -0.1999
C16 C 0.4032(3) 0.0405(4) -0.1702(3)
C17 C 0.4044(3) -0.0468(4) -0.1316(3)
H8 H 0.3563 -0.0716 -0.1302
C18 C 0.4750(3) -0.0978(4) -0.0952(3)
H9 H 0.4751 -0.1554 -0.0680
C19 C 0.5461(3) -0.0612(4) -0.1000(3)
C20 C 0.6290(3) -0.1006(4) -0.0709(3)
C21 C 0.6628(3) -0.1844(4) -0.0285(4)
H10 H 0.6312 -0.2263 -0.0117
C22 C 0.7580(3) -0.0588(3) -0.0787(3)
H11 H 0.7899 -0.0168 -0.0952
C23 C 0.7910(3) -0.1429(4) -0.0367(3)
C24 C 0.7433(3) -0.2050(4) -0.0116(3)
H12 H 0.7660 -0.2609 0.0168
C25 C 0.6776(3) -0.0383(3) -0.0957(3)
C26 C 0.5882(3) -0.0592(4) -0.4221(3)
C27 C 0.7042(3) 0.3140(4) 0.0668(3)
C28 C 0.3258(3) 0.0920(4) -0.2128(3)
C29 C 0.8796(3) -0.1635(4) -0.0164(3)
C30 C 0.5772(3) -0.2281(4) -0.6031(3)
H13 H 0.5591 -0.1639 -0.6124
C31 C 0.6138(3) -0.2775(4) -0.6449(3)
H14 H 0.6250 -0.2547 -0.6880
C32 C 0.6044(3) -0.3706(4) -0.5516(3)
H15 H 0.6088 -0.4244 -0.5191
C33 C 0.6727(4) -0.4476(5) -0.6346(4)
H16 H 0.6346 -0.4824 -0.6781
H17 H 0.7145 -0.4211 -0.6503
H18 H 0.6960 -0.4913 -0.5909
C34 C 0.6179(4) -0.3285(5) -0.2948(4)
H19 H 0.6411 -0.2677 -0.2783
C35 C 0.6275(4) -0.4074(5) -0.2478(4)
H20 H 0.6577 -0.4111 -0.1940
C36 C 0.5509(4) -0.4434(4) -0.3669(4)
H21 H 0.5182 -0.4788 -0.4105
C37 C 0.5740(5) -0.5798(5) -0.2721(5)
H22 H 0.5409 -0.6160 -0.3176
H23 H 0.6260 -0.6104 -0.2496
H24 H 0.5486 -0.5785 -0.2337
C38 C 0.5044(3) 0.4256(5) 0.1052(4)
H25 H 0.4807 0.3640 0.0979
C39 C 0.4645(4) 0.5109(5) 0.0781(4)
H26 H 0.4096 0.5185 0.0493
C40 C 0.5926(3) 0.5397(4) 0.1412(4)
H27 H 0.6412 0.5731 0.1632
C41 C 0.5086(5) 0.6869(5) 0.0867(5)
H28 H 0.5594 0.7206 0.1084
H29 H 0.4724 0.7108 0.1109
H30 H 0.4856 0.6981 0.0308
C42 C 0.5705(3) 0.2822(4) 0.2744(4)
H31 H 0.5356 0.3350 0.2571
C43 C 0.5582(4) 0.2049(4) 0.3139(4)
H32 H 0.5142 0.1951 0.3293
C44 C 0.6713(4) 0.1860(5) 0.2953(3)
H33 H 0.7193 0.1586 0.2956
C45 C 0.6318(5) 0.0501(5) 0.3680(4)
H34 H 0.6218 0.0577 0.4161
H35 H 0.6860 0.0273 0.3800
H36 H 0.5944 0.0035 0.3347
Co1C Co 0.18488(4) 0.14447(5) -0.30404(4)
Co2C Co 1.02342(4) -0.24165(5) 0.03691(4)
O6C O 0.7612(2) 0.4593(3) 0.2614(2)
O7C O 0.4052(2) -0.2522(3) -0.4906(2)
loop_
_geom_bond_atom_site_label_1
_geom_bond_atom_site_label_2
_geom_bond_site_symmetry_1
_geom_bond_site_symmetry_2
Co1 O3 1_555 1_555
Co2 O1 1_555 1_555
O1 C26 1_555 1_555
O2 C26 1_555 1_555
O3 C27 1_555 1_555
O4 C27 1_555 1_555
O5 C28 1_555 1_555
O6 C28 1_555 1_555
O7 C29 1_555 1_555
O8 C29 1_555 1_555
N1 Co2 1_555 1_555
N2 C31 1_555 1_555
N3 Co2 1_555 1_555
N4 C35 1_555 1_555
N5 Co1 1_555 1_555
N6 C39 1_555 1_555
N7 Co1 1_555 1_555
N8 C43 1_555 1_555
C1 C2 1_555 1_555
C2 H1 1_555 1_555
C3 C2 1_555 1_555
H2 C3 1_555 1_555
C4 C3 1_555 1_555
C5 C4 1_555 1_555
C6 C5 1_555 1_555
H3 C6 1_555 1_555
C7 C6 1_555 1_555
H4 C7 1_555 1_555
C8 C7 1_555 1_555
C9 C8 1_555 1_555
H5 C9 1_555 1_555
C10 C5 1_555 1_555
C11 C10 1_555 1_555
C12 C4 1_555 1_555
C13 C1 1_555 1_555
H6 C13 1_555 1_555
C14 C11 1_555 1_555
C15 C14 1_555 1_555
H7 C15 1_555 1_555
C16 C15 1_555 1_555
C17 C16 1_555 1_555
H8 C17 1_555 1_555
C18 C17 1_555 1_555
H9 C18 1_555 1_555
C19 C14 1_555 1_555
C20 C19 1_555 1_555
C21 C20 1_555 1_555
H10 C21 1_555 1_555
C22 H11 1_555 1_555
C23 C22 1_555 1_555
C24 C21 1_555 1_555
H12 C24 1_555 1_555
C25 C11 1_555 1_555
C26 C1 1_555 1_555
C27 C8 1_555 1_555
C28 C16 1_555 1_555
C29 C23 1_555 1_555
C30 N1 1_555 1_555
H13 C30 1_555 1_555
C31 C30 1_555 1_555
H14 C31 1_555 1_555
C32 N1 1_555 1_555
H15 C32 1_555 1_555
C33 N2 1_555 1_555
H16 C33 1_555 1_555
H17 C33 1_555 1_555
H18 C33 1_555 1_555
C34 N3 1_555 1_555
H19 C34 1_555 1_555
C35 C34 1_555 1_555
H20 C35 1_555 1_555
C36 N3 1_555 1_555
H21 C36 1_555 1_555
C37 N4 1_555 1_555
H22 C37 1_555 1_555
H23 C37 1_555 1_555
H24 C37 1_555 1_555
C38 N5 1_555 1_555
H25 C38 1_555 1_555
C39 C38 1_555 1_555
H26 C39 1_555 1_555
C40 N5 1_555 1_555
H27 C40 1_555 1_555
C41 N6 1_555 1_555
H28 C41 1_555 1_555
H29 C41 1_555 1_555
H30 C41 1_555 1_555
C42 N7 1_555 1_555
H31 C42 1_555 1_555
C43 C42 1_555 1_555
H32 C43 1_555 1_555
C44 N7 1_555 1_555
H33 C44 1_555 1_555
C45 N8 1_555 1_555
H34 C45 1_555 1_555
H35 C45 1_555 1_555
H36 C45 1_555 1_555
Co1C O6 1_555 1_555
Co2C O7 1_555 1_555
O6C Co1 1_555 1_555
O7C Co2 1_555 1_555
N2 C32 1_555 1_555
N4 C36 1_555 1_555
N6 C40 1_555 1_555
N8 C44 1_555 1_555
C9 C10 1_555 1_555
C11 C12 1_555 1_555
C12 C13 1_555 1_555
C18 C19 1_555 1_555
C20 C25 1_555 1_555
C22 C25 1_555 1_555
C23 C24 1_555 1_555

#END
