
#######################################################################
#
#                 Cambridge Crystallographic Data Centre
#                                CCDC 
#
#######################################################################
#
# If this CIF has been generated from an entry in the Cambridge 
# Structural Database, then it will include bibliographic, chemical, 
# crystal, experimental, refinement or atomic coordinate data resulting 
# from the CCDC's data processing and validation procedures.
#
#######################################################################

data_PEPZUG
_symmetry_cell_setting           triclinic
_symmetry_space_group_name_H-M   'P -1'
_symmetry_Int_Tables_number      2
_space_group_name_Hall           '-P 1'
loop_
_symmetry_equiv_pos_site_id
_symmetry_equiv_pos_as_xyz
1 x,y,z
2 -x,-y,-z
_cell_length_a                   10.8577(8)
_cell_length_b                   20.0205(15)
_cell_length_c                   21.8994(16)
_cell_angle_alpha                116.6500(10)
_cell_angle_beta                 93.116(2)
_cell_angle_gamma                102.1530(10)
_cell_volume                     4098.58
loop_
_atom_site_label
_atom_site_type_symbol
_atom_site_fract_x
_atom_site_fract_y
_atom_site_fract_z
Ag1 Ag 1.0000 1.0000 0.5000
Ag2 Ag 0.91142(3) 0.892364(16) 0.266950(15)
Ag3 Ag 0.72146(3) 0.766068(17) 0.000498(14)
Ag4 Ag 0.60039(3) 0.622074(16) -0.261261(15)
Ag5 Ag 0.5000 0.5000 -0.5000
C1 C 0.9683(3) 1.08209(19) 0.38775(17)
C2 C 1.0008(4) 1.16787(19) 0.44166(17)
H1 H 1.0726 1.1978 0.4306
H2 H 0.9259 1.1886 0.4408
C3 C 1.0292(5) 1.2511(2) 0.5590(2)
H3 H 0.9394 1.2502 0.5654
H4 H 1.0595 1.2893 0.5424
C4 C 1.1099(4) 1.2761(2) 0.62758(19)
C5 C 1.0804(4) 1.3309(2) 0.6872(2)
H5 H 1.0059 1.3478 0.6844
C6 C 1.1563(5) 1.3606(2) 0.7492(2)
H6 H 1.1351 1.3985 0.7895
C7 C 1.2636(5) 1.3364(2) 0.7544(2)
H7 H 1.3172 1.3579 0.7980
C8 C 1.2938(4) 1.2799(2) 0.6952(2)
H8 H 1.3672 1.2623 0.6986
C9 C 1.2160(4) 1.2496(2) 0.6313(2)
H9 H 1.2357 1.2111 0.5908
C10 C 0.7690(3) 1.0625(2) 0.43876(17)
H10 H 0.7702 1.1150 0.4678
C11 C 0.6764(3) 0.9997(2) 0.42732(18)
H11 H 0.6001 0.9987 0.4465
C12 C 0.7164(3) 0.9363(2) 0.38115(18)
H12 H 0.6696 0.8838 0.3641
C13 C 0.9242(4) 1.1333(2) 0.3032(2)
H13 H 0.9335 1.1864 0.3346
C14 C 0.8923(4) 1.0985(2) 0.2332(2)
H14 H 0.8749 1.1221 0.2057
C15 C 0.8903(4) 1.0218(2) 0.21013(19)
H15 H 0.8697 0.9836 0.1627
C16 C 1.1768(4) 1.0557(2) 0.3518(2)
H16 H 1.1805 1.0743 0.3188
C17 C 1.2682(4) 1.0297(2) 0.3722(2)
H17 H 1.3474 1.0257 0.3564
C18 C 1.2215(4) 1.0105(2) 0.4209(2)
H18 H 1.2657 0.9902 0.4444
C19 C 0.9380(3) 0.74384(18) 0.10892(16)
C20 C 0.9468(3) 0.67618(19) 0.03994(17)
H19 H 0.9279 0.6273 0.0429
H20 H 0.8845 0.6701 0.0019
C21 C 1.1001(3) 0.6293(2) -0.02825(18)
H21 H 1.0572 0.5813 -0.0269
H22 H 1.1934 0.6352 -0.0211
C22 C 1.0589(3) 0.6204(2) -0.09923(18)
C23 C 1.0821(4) 0.6840(2) -0.1105(2)
H23 H 1.1114 0.7346 -0.0723
C24 C 1.0628(4) 0.6742(3) -0.1772(2)
H24 H 1.0802 0.7182 -0.1846
C25 C 1.0188(5) 0.6018(3) -0.2326(2)
H25 H 1.0084 0.5956 -0.2783
C26 C 0.9897(5) 0.5380(3) -0.2220(2)
H26 H 0.9552 0.4877 -0.2600
C27 C 1.0111(4) 0.5479(2) -0.1552(2)
H27 H 0.9924 0.5038 -0.1479
C28 C 0.7032(3) 0.6726(2) 0.08527(18)
H28 H 0.7036 0.6233 0.0491
C29 C 0.6002(4) 0.6941(2) 0.11178(19)
H29 H 0.5142 0.6634 0.0984
C30 C 0.6470(4) 0.7708(2) 0.16299(19)
H30 H 0.5956 0.8012 0.1910
C31 C 1.0923(3) 0.7001(2) 0.16456(19)
H31 H 1.0996 0.6555 0.1248
C32 C 1.1524(4) 0.7281(2) 0.2308(2)
H32 H 1.2097 0.7070 0.2466
C33 C 1.1125(4) 0.7943(2) 0.27085(19)
H33 H 1.1397 0.8260 0.3194
C34 C 1.0968(3) 0.86722(19) 0.13007(18)
H34 H 1.1635 0.8685 0.1608
C35 C 1.1010(4) 0.9162(2) 0.10273(19)
H35 H 1.1701 0.9588 0.1108
C36 C 0.9840(4) 0.8914(2) 0.06065(18)
H36 H 0.9598 0.9153 0.0347
C37 C 0.5019(3) 0.76246(18) -0.12479(16)
C38 C 0.4529(4) 0.8251(2) -0.06681(17)
H37 H 0.4785 0.8743 -0.0690
H38 H 0.3584 0.8088 -0.0741
C39 C 0.4031(4) 0.8159(3) 0.0338(2)
H39 H 0.3845 0.7599 0.0193
H40 H 0.3238 0.8268 0.0206
C40 C 0.4450(4) 0.8615(3) 0.11113(19)
C41 C 0.5300(5) 0.9316(3) 0.1422(3)
H41 H 0.5688 0.9531 0.1149
C42 C 0.5606(5) 0.9717(3) 0.2125(3)
H42 H 0.6229 1.0202 0.2340
C43 C 0.5035(5) 0.9433(3) 0.2520(2)
H43 H 0.5245 0.9730 0.3010
C44 C 0.4167(5) 0.8733(3) 0.2236(2)
H44 H 0.3771 0.8543 0.2524
C45 C 0.3863(4) 0.8297(3) 0.1523(2)
H45 H 0.3277 0.7798 0.1312
C46 C 0.3489(3) 0.7808(2) -0.20454(19)
H46 H 0.3240 0.8239 -0.1713
C47 C 0.3081(4) 0.7443(2) -0.27334(19)
H47 H 0.2487 0.7557 -0.2983
C48 C 0.3714(4) 0.6860(2) -0.30056(18)
H48 H 0.3607 0.6506 -0.3485
C49 C 0.7187(4) 0.8602(2) -0.08195(18)
H49 H 0.6954 0.9049 -0.0505
C50 C 0.8378(4) 0.8564(2) -0.0963(2)
H50 H 0.9140 0.8974 -0.0775
C51 C 0.8240(4) 0.7794(3) -0.1447(2)
H51 H 0.8926 0.7595 -0.1641
C52 C 0.3672(3) 0.63229(19) -0.14589(17)
H52 H 0.2993 0.6255 -0.1791
C53 C 0.3731(3) 0.5849(2) -0.11749(18)
H53 H 0.3119 0.5383 -0.1272
C54 C 0.4879(3) 0.6191(2) -0.07119(17)
H54 H 0.5178 0.5987 -0.0433
C55 C 0.5547(3) 0.42992(19) -0.37689(16)
C56 C 0.5317(3) 0.34382(19) -0.42592(17)
H55 H 0.6111 0.3279 -0.4227
H56 H 0.4644 0.3137 -0.4125
C57 C 0.4972(4) 0.2506(2) -0.54120(19)
H57 H 0.4590 0.2153 -0.5229
H58 H 0.5872 0.2489 -0.5442
C58 C 0.4257(4) 0.2237(2) -0.61185(18)
C59 C 0.4565(4) 0.1644(2) -0.6682(2)
H59 H 0.5271 0.1460 -0.6614
C60 C 0.3876(5) 0.1328(2) -0.7326(2)
H60 H 0.4092 0.0919 -0.7703
C61 C 0.2879(5) 0.1594(2) -0.7434(2)
H61 H 0.2396 0.1368 -0.7886
C62 C 0.2563(5) 0.2190(2) -0.6889(2)
H62 H 0.1873 0.2379 -0.6970
C63 C 0.3244(4) 0.2513(2) -0.62276(19)
H63 H 0.3020 0.2919 -0.5852
C64 C 0.6149(4) 0.3906(2) -0.28558(19)
H64 H 0.6082 0.3372 -0.3145
C65 C 0.6526(4) 0.4301(2) -0.21607(19)
H65 H 0.6772 0.4106 -0.1863
C66 C 0.6477(4) 0.5056(2) -0.19748(19)
H66 H 0.6699 0.5467 -0.1513
C67 C 0.7502(3) 0.4523(2) -0.42923(17)
H67 H 0.7556 0.4005 -0.4546
C68 C 0.8356(3) 0.5168(2) -0.42169(17)
H68 H 0.9119 0.5194 -0.4407
C69 C 0.7874(3) 0.5784(2) -0.38004(17)
H69 H 0.8277 0.6311 -0.3664
C70 C 0.3406(3) 0.4473(2) -0.34415(19)
H70 H 0.3425 0.4331 -0.3082
C71 C 0.2401(4) 0.4632(2) -0.37008(19)
H71 H 0.1593 0.4635 -0.3555
C72 C 0.2809(3) 0.4790(2) -0.42242(18)
H72 H 0.2300 0.4921 -0.4499
N1 N 0.8270(3) 0.95780(16) 0.36406(14)
N2 N 0.8611(3) 1.03696(15) 0.40095(13)
N3 N 0.9202(3) 1.00787(17) 0.26141(15)
N4 N 0.9402(3) 1.07696(16) 0.31973(14)
N5 N 1.1076(3) 1.02343(16) 0.43147(14)
N6 N 1.0791(3) 1.05043(15) 0.38681(14)
N7 N 0.7708(3) 0.79604(17) 0.16788(15)
N8 N 0.8059(3) 0.73444(15) 0.11971(13)
N9 N 1.0321(3) 0.80711(15) 0.23257(14)
N10 N 1.0201(3) 0.74833(15) 0.16634(13)
N11 N 0.9097(3) 0.82990(16) 0.06103(14)
N12 N 0.9804(3) 0.81636(15) 0.10555(13)
N13 N 0.4476(3) 0.68599(16) -0.25183(14)
N14 N 0.4326(3) 0.74492(15) -0.19109(13)
N15 N 0.7036(3) 0.73702(16) -0.16040(15)
N16 N 0.6388(3) 0.78796(15) -0.12088(13)
N17 N 0.5501(3) 0.68338(16) -0.07071(14)
N18 N 0.4756(3) 0.69094(15) -0.11836(13)
N19 N 0.6087(3) 0.51328(17) -0.25133(14)
N20 N 0.5884(3) 0.44181(16) -0.30657(14)
N21 N 0.6790(3) 0.55506(15) -0.36164(14)
N22 N 0.6551(3) 0.47593(15) -0.39350(13)
N23 N 0.3997(3) 0.47361(16) -0.42927(14)
N24 N 0.4375(3) 0.45544(15) -0.37906(14)
O1 O 1.0345(2) 1.17544(13) 0.50739(12)
O2 O 1.0717(2) 0.69370(13) 0.02755(12)
O3 O 0.5030(2) 0.83663(14) -0.00150(12)
O4 O 0.4934(2) 0.32823(13) -0.49460(12)
Ag2A Ag 1.08858(3) 1.107636(16) 0.733050(15)
Ag3A Ag 1.27854(3) 1.233932(17) 0.999502(14)
Ag4A Ag 1.39961(3) 1.377926(16) 1.261261(15)
Ag5_2 Ag 1.5000 1.5000 1.5000
C1A C 1.0317(3) 0.91791(19) 0.61225(17)
C2A C 0.9992(4) 0.83213(19) 0.55834(17)
H1A H 0.9274 0.8022 0.5694
H2A H 1.0741 0.8114 0.5592
C3A C 0.9708(5) 0.7489(2) 0.4410(2)
H3A H 1.0606 0.7498 0.4346
H4A H 0.9405 0.7107 0.4576
C4A C 0.8901(4) 0.7239(2) 0.37242(19)
C5A C 0.9196(4) 0.6691(2) 0.3128(2)
H5A H 0.9941 0.6522 0.3156
C6A C 0.8437(5) 0.6394(2) 0.2508(2)
H6A H 0.8649 0.6015 0.2105
C7A C 0.7364(5) 0.6636(2) 0.2456(2)
H7A H 0.6828 0.6421 0.2020
C8A C 0.7062(4) 0.7201(2) 0.3048(2)
H8A H 0.6328 0.7377 0.3014
C9A C 0.7840(4) 0.7504(2) 0.3687(2)
H9A H 0.7643 0.7889 0.4092
C10A C 1.2310(3) 0.9375(2) 0.56124(17)
H10A H 1.2298 0.8850 0.5322
C11A C 1.3236(3) 1.0003(2) 0.57268(18)
H11A H 1.3999 1.0013 0.5535
C12A C 1.2836(3) 1.0637(2) 0.61885(18)
H12A H 1.3304 1.1162 0.6359
C13A C 1.0758(4) 0.8667(2) 0.6968(2)
H13A H 1.0665 0.8136 0.6654
C14A C 1.1077(4) 0.9015(2) 0.7668(2)
H14A H 1.1251 0.8779 0.7943
C15A C 1.1097(4) 0.9782(2) 0.78987(19)
H15A H 1.1303 1.0164 0.8373
C16A C 0.8232(4) 0.9443(2) 0.6482(2)
H16A H 0.8195 0.9257 0.6812
C17A C 0.7318(4) 0.9703(2) 0.6278(2)
H17A H 0.6526 0.9743 0.6436
C18A C 0.7785(4) 0.9895(2) 0.5791(2)
H18A H 0.7343 1.0098 0.5556
C19A C 1.0620(3) 1.25616(18) 0.89108(16)
C20A C 1.0532(3) 1.32382(19) 0.96006(17)
H19A H 1.0721 1.3727 0.9571
H20A H 1.1155 1.3299 0.9981
C21A C 0.8999(3) 1.3707(2) 1.02825(18)
H21A H 0.9428 1.4187 1.0269
H22A H 0.8066 1.3648 1.0211
C22A C 0.9411(3) 1.3796(2) 1.09923(18)
C23A C 0.9179(4) 1.3160(2) 1.1105(2)
H23A H 0.8886 1.2654 1.0723
C24A C 0.9372(4) 1.3258(3) 1.1772(2)
H24A H 0.9198 1.2818 1.1846
C25A C 0.9812(5) 1.3982(3) 1.2326(2)
H25A H 0.9916 1.4044 1.2783
C26A C 1.0103(5) 1.4620(3) 1.2220(2)
H26A H 1.0448 1.5123 1.2600
C27A C 0.9889(4) 1.4521(2) 1.1552(2)
H27A H 1.0076 1.4962 1.1479
C28A C 1.2968(3) 1.3274(2) 0.91473(18)
H28A H 1.2964 1.3767 0.9509
C29A C 1.3998(4) 1.3059(2) 0.88822(19)
H29A H 1.4858 1.3366 0.9016
C30A C 1.3530(4) 1.2292(2) 0.83701(19)
H30A H 1.4044 1.1988 0.8090
C31A C 0.9077(3) 1.2999(2) 0.83544(19)
H31A H 0.9004 1.3445 0.8752
C32A C 0.8476(4) 1.2719(2) 0.7692(2)
H32A H 0.7903 1.2930 0.7534
C33A C 0.8875(4) 1.2057(2) 0.72915(19)
H33A H 0.8603 1.1740 0.6806
C34A C 0.9032(3) 1.13278(19) 0.86993(18)
H34A H 0.8365 1.1315 0.8392
C35A C 0.8990(4) 1.0838(2) 0.89727(19)
H35A H 0.8299 1.0412 0.8892
C36A C 1.0160(4) 1.1086(2) 0.93935(18)
H36A H 1.0402 1.0847 0.9653
C37A C 1.4981(3) 1.23754(18) 1.12479(16)
C38A C 1.5471(4) 1.1749(2) 1.06681(17)
H37A H 1.5215 1.1257 1.0690
H38A H 1.6416 1.1912 1.0741
C39A C 1.5969(4) 1.1841(3) 0.9662(2)
H39A H 1.6155 1.2401 0.9807
H40A H 1.6762 1.1732 0.9794
C40A C 1.5550(4) 1.1385(3) 0.88887(19)
C41A C 1.4700(5) 1.0684(3) 0.8578(3)
H41A H 1.4312 1.0469 0.8851
C42A C 1.4394(5) 1.0283(3) 0.7875(3)
H42A H 1.3771 0.9798 0.7660
C43A C 1.4965(5) 1.0567(3) 0.7480(2)
H43A H 1.4755 1.0270 0.6990
C44A C 1.5833(5) 1.1267(3) 0.7764(2)
H44A H 1.6229 1.1457 0.7476
C45A C 1.6137(4) 1.1703(3) 0.8477(2)
H45A H 1.6723 1.2202 0.8688
C46A C 1.6511(3) 1.2192(2) 1.20454(19)
H46A H 1.6760 1.1761 1.1713
C47A C 1.6919(4) 1.2557(2) 1.27334(19)
H47A H 1.7513 1.2443 1.2983
C48A C 1.6286(4) 1.3140(2) 1.30056(18)
H48A H 1.6393 1.3494 1.3485
C49A C 1.2813(4) 1.1398(2) 1.08195(18)
H49A H 1.3046 1.0951 1.0505
C50A C 1.1622(4) 1.1436(2) 1.0963(2)
H50A H 1.0860 1.1026 1.0775
C51A C 1.1760(4) 1.2206(3) 1.1447(2)
H51A H 1.1074 1.2405 1.1641
C52A C 1.6328(3) 1.36771(19) 1.14589(17)
H52A H 1.7007 1.3745 1.1791
C53A C 1.6269(3) 1.4151(2) 1.11749(18)
H53A H 1.6881 1.4617 1.1272
C54A C 1.5121(3) 1.3809(2) 1.07119(17)
H54A H 1.4822 1.4013 1.0433
C55A C 1.4453(3) 1.57008(19) 1.37689(16)
C56A C 1.4683(3) 1.65618(19) 1.42592(17)
H55A H 1.3889 1.6721 1.4227
H56A H 1.5356 1.6863 1.4125
C57A C 1.5028(4) 1.7494(2) 1.54120(19)
H57A H 1.5410 1.7847 1.5229
H58A H 1.4128 1.7511 1.5442
C58A C 1.5743(4) 1.7763(2) 1.61185(18)
C59A C 1.5435(4) 1.8356(2) 1.6682(2)
H59A H 1.4729 1.8540 1.6614
C60A C 1.6124(5) 1.8672(2) 1.7326(2)
H60A H 1.5908 1.9081 1.7703
C61A C 1.7121(5) 1.8406(2) 1.7434(2)
H61A H 1.7604 1.8632 1.7886
C62A C 1.7437(5) 1.7810(2) 1.6889(2)
H62A H 1.8127 1.7621 1.6970
C63A C 1.6756(4) 1.7487(2) 1.62276(19)
H63A H 1.6980 1.7081 1.5852
C64A C 1.3851(4) 1.6094(2) 1.28558(19)
H64A H 1.3918 1.6628 1.3145
C65A C 1.3474(4) 1.5699(2) 1.21607(19)
H65A H 1.3228 1.5894 1.1863
C66A C 1.3523(4) 1.4944(2) 1.19748(19)
H66A H 1.3301 1.4533 1.1513
C67A C 1.2498(3) 1.5477(2) 1.42923(17)
H67A H 1.2444 1.5995 1.4546
C68A C 1.1644(3) 1.4832(2) 1.42169(17)
H68A H 1.0881 1.4806 1.4407
C69A C 1.2126(3) 1.4216(2) 1.38004(17)
H69A H 1.1723 1.3689 1.3664
C70A C 1.6594(3) 1.5527(2) 1.34415(19)
H70A H 1.6575 1.5669 1.3082
C71A C 1.7599(4) 1.5368(2) 1.37008(19)
H71A H 1.8407 1.5365 1.3555
C72A C 1.7191(3) 1.5210(2) 1.42242(18)
H72A H 1.7700 1.5079 1.4499
N1A N 1.1730(3) 1.04220(16) 0.63594(14)
N2A N 1.1389(3) 0.96304(15) 0.59905(13)
N3A N 1.0798(3) 0.99213(17) 0.73859(15)
N4A N 1.0598(3) 0.92304(16) 0.68027(14)
N5A N 0.8924(3) 0.97657(16) 0.56853(14)
N6A N 0.9209(3) 0.94957(15) 0.61319(14)
N7A N 1.2292(3) 1.20396(17) 0.83212(15)
N8A N 1.1941(3) 1.26556(15) 0.88029(13)
N9A N 0.9679(3) 1.19289(15) 0.76743(14)
N10A N 0.9799(3) 1.25167(15) 0.83366(13)
N11A N 1.0903(3) 1.17010(16) 0.93897(14)
N12A N 1.0196(3) 1.18364(15) 0.89445(13)
N13A N 1.5524(3) 1.31401(16) 1.25183(14)
N14A N 1.5674(3) 1.25508(15) 1.19109(13)
N15A N 1.2964(3) 1.26298(16) 1.16040(15)
N16A N 1.3612(3) 1.21204(15) 1.12088(13)
N17A N 1.4499(3) 1.31662(16) 1.07071(14)
N18A N 1.5244(3) 1.30906(15) 1.11836(13)
N19A N 1.3913(3) 1.48672(17) 1.25133(14)
N20A N 1.4116(3) 1.55819(16) 1.30657(14)
N21A N 1.3210(3) 1.44494(15) 1.36164(14)
N22A N 1.3449(3) 1.52407(15) 1.39350(13)
N23A N 1.6003(3) 1.52639(16) 1.42927(14)
N23A_2 N 0.6003(3) 0.52639(16) -0.57073(14)
N24A N 1.5625(3) 1.54456(15) 1.37906(14)
O1A O 0.9655(2) 0.82456(13) 0.49261(12)
O2A O 0.9283(2) 1.30630(13) 0.97245(12)
O3A O 1.4970(2) 1.16337(14) 1.00150(12)
O4A O 1.5066(2) 1.67177(13) 1.49460(12)
B1 B 0.5989(5) 0.1677(3) 0.5896(3)
F1 F 0.5406(4) 0.20679(17) 0.6397(2)
F2 F 0.6297(3) 0.11082(16) 0.59836(16)
F3 F 0.5167(4) 0.1332(2) 0.5298(2)
F4 F 0.6997(3) 0.21773(19) 0.5865(2)
B2 B 0.9153(4) 0.3420(3) 0.4430(3)
F5 F 0.9845(3) 0.38452(15) 0.50908(14)
F6 F 0.8180(2) 0.28302(14) 0.43942(14)
F7 F 0.9937(2) 0.30943(13) 0.39735(15)
F8 F 0.8651(2) 0.39074(13) 0.42617(12)
B3 B 0.7794(4) 0.0625(3) 0.0512(2)
F9 F 0.6995(3) 0.05281(17) 0.09418(14)
F10 F 0.8668(2) 0.02096(14) 0.04159(16)
F11 F 0.7029(3) 0.03776(17) -0.01074(13)
F12 F 0.8395(3) 0.13936(14) 0.08194(17)
B4 B 0.2466(7) 0.5255(6) 0.0324(4)
F13 F 0.2182(9) 0.4908(4) -0.0389(4)
F14 F 0.3077(7) 0.4835(3) 0.0515(3)
F15 F 0.3156(7) 0.5999(4) 0.0559(4)
F16 F 0.1373(3) 0.5304(2) 0.05946(19)
B5? B 0.283(2) 0.5246(15) 0.0273(10)
F17? F 0.203(2) 0.4894(12) -0.0359(10)
F18? F 0.283(2) 0.5971(9) 0.0756(10)
F19? F 0.254(2) 0.4763(9) 0.0553(9)
F20? F 0.4055(10) 0.5239(6) 0.0198(7)
loop_
_geom_bond_atom_site_label_1
_geom_bond_atom_site_label_2
_geom_bond_site_symmetry_1
_geom_bond_site_symmetry_2
Ag1 N5 1_555 1_555
Ag2 N1 1_555 1_555
Ag3 N11 1_555 1_555
Ag4 N13 1_555 1_555
Ag5 N23 1_555 1_555
C1 C2 1_555 1_555
C2 H1 1_555 1_555
H2 C2 1_555 1_555
C3 H3 1_555 1_555
H4 C3 1_555 1_555
C4 C3 1_555 1_555
C5 C4 1_555 1_555
H5 C5 1_555 1_555
C6 C5 1_555 1_555
H6 C6 1_555 1_555
C7 C6 1_555 1_555
H7 C7 1_555 1_555
C8 C7 1_555 1_555
H8 C8 1_555 1_555
C9 C4 1_555 1_555
H9 C9 1_555 1_555
C10 H10 1_555 1_555
C11 C10 1_555 1_555
H11 C11 1_555 1_555
C12 C11 1_555 1_555
H12 C12 1_555 1_555
C13 H13 1_555 1_555
C14 C13 1_555 1_555
H14 C14 1_555 1_555
C15 C14 1_555 1_555
H15 C15 1_555 1_555
C16 H16 1_555 1_555
C17 C16 1_555 1_555
H17 C17 1_555 1_555
C18 C17 1_555 1_555
H18 C18 1_555 1_555
C19 C20 1_555 1_555
C20 H19 1_555 1_555
H20 C20 1_555 1_555
C21 H21 1_555 1_555
H22 C21 1_555 1_555
C22 C21 1_555 1_555
C23 C22 1_555 1_555
H23 C23 1_555 1_555
C24 C23 1_555 1_555
H24 C24 1_555 1_555
C25 C24 1_555 1_555
H25 C25 1_555 1_555
C26 C25 1_555 1_555
H26 C26 1_555 1_555
C27 C22 1_555 1_555
H27 C27 1_555 1_555
C28 H28 1_555 1_555
C29 C28 1_555 1_555
H29 C29 1_555 1_555
C30 C29 1_555 1_555
H30 C30 1_555 1_555
C31 H31 1_555 1_555
C32 C31 1_555 1_555
H32 C32 1_555 1_555
C33 C32 1_555 1_555
H33 C33 1_555 1_555
C34 H34 1_555 1_555
C35 C34 1_555 1_555
H35 C35 1_555 1_555
C36 C35 1_555 1_555
H36 C36 1_555 1_555
C37 C38 1_555 1_555
C38 H37 1_555 1_555
H38 C38 1_555 1_555
C39 H39 1_555 1_555
H40 C39 1_555 1_555
C40 C39 1_555 1_555
C41 C40 1_555 1_555
H41 C41 1_555 1_555
C42 C41 1_555 1_555
H42 C42 1_555 1_555
C43 C42 1_555 1_555
H43 C43 1_555 1_555
C44 C43 1_555 1_555
H44 C44 1_555 1_555
C45 C40 1_555 1_555
H45 C45 1_555 1_555
C46 H46 1_555 1_555
C47 C46 1_555 1_555
H47 C47 1_555 1_555
C48 C47 1_555 1_555
H48 C48 1_555 1_555
C49 H49 1_555 1_555
C50 C49 1_555 1_555
H50 C50 1_555 1_555
C51 C50 1_555 1_555
H51 C51 1_555 1_555
C52 H52 1_555 1_555
C53 C52 1_555 1_555
H53 C53 1_555 1_555
C54 C53 1_555 1_555
H54 C54 1_555 1_555
C55 C56 1_555 1_555
C56 H55 1_555 1_555
H56 C56 1_555 1_555
C57 H57 1_555 1_555
H58 C57 1_555 1_555
C58 C57 1_555 1_555
C59 C58 1_555 1_555
H59 C59 1_555 1_555
C60 C59 1_555 1_555
H60 C60 1_555 1_555
C61 C60 1_555 1_555
H61 C61 1_555 1_555
C62 C61 1_555 1_555
H62 C62 1_555 1_555
C63 C58 1_555 1_555
H63 C63 1_555 1_555
C64 H64 1_555 1_555
C65 C64 1_555 1_555
H65 C65 1_555 1_555
C66 C65 1_555 1_555
H66 C66 1_555 1_555
C67 H67 1_555 1_555
C68 C67 1_555 1_555
H68 C68 1_555 1_555
C69 C68 1_555 1_555
H69 C69 1_555 1_555
C70 H70 1_555 1_555
C71 C70 1_555 1_555
H71 C71 1_555 1_555
C72 C71 1_555 1_555
H72 C72 1_555 1_555
N1 C12 1_555 1_555
N2 C1 1_555 1_555
N3 Ag2 1_555 1_555
N4 C1 1_555 1_555
N5 C18 1_555 1_555
N6 C1 1_555 1_555
N7 Ag2 1_555 1_555
N8 C19 1_555 1_555
N9 Ag2 1_555 1_555
N10 C19 1_555 1_555
N11 C36 1_555 1_555
N12 C19 1_555 1_555
N13 C48 1_555 1_555
N14 C37 1_555 1_555
N15 Ag4 1_555 1_555
N16 C37 1_555 1_555
N17 Ag3 1_555 1_555
N18 C37 1_555 1_555
N19 Ag4 1_555 1_555
N20 C55 1_555 1_555
N21 Ag4 1_555 1_555
N22 C55 1_555 1_555
N23 C72 1_555 1_555
N24 C55 1_555 1_555
O1 C2 1_555 1_555
O2 C20 1_555 1_555
O3 C38 1_555 1_555
O4 C56 1_555 1_555
B1 F1 1_555 1_555
B2 F5 1_555 1_555
B3 F9 1_555 1_555
F2 B1 1_555 1_555
F3 B1 1_555 1_555
F4 B1 1_555 1_555
F6 B2 1_555 1_555
F7 B2 1_555 1_555
F8 B2 1_555 1_555
F10 B3 1_555 1_555
F11 B3 1_555 1_555
F12 B3 1_555 1_555
B4 F13 1_555 1_555
F14 B4 1_555 1_555
F15 B4 1_555 1_555
F16 B4 1_555 1_555
Ag2A N1A 1_555 1_555
Ag3A N11A 1_555 1_555
Ag4A N13A 1_555 1_555
Ag5_2 N23A 1_555 1_555
C1A C2A 1_555 1_555
C2A H1A 1_555 1_555
H2A C2A 1_555 1_555
C3A H3A 1_555 1_555
H4A C3A 1_555 1_555
C4A C3A 1_555 1_555
C5A C4A 1_555 1_555
H5A C5A 1_555 1_555
C6A C5A 1_555 1_555
H6A C6A 1_555 1_555
C7A C6A 1_555 1_555
H7A C7A 1_555 1_555
C8A C7A 1_555 1_555
H8A C8A 1_555 1_555
C9A C4A 1_555 1_555
H9A C9A 1_555 1_555
C10A H10A 1_555 1_555
C11A C10A 1_555 1_555
H11A C11A 1_555 1_555
C12A C11A 1_555 1_555
H12A C12A 1_555 1_555
C13A H13A 1_555 1_555
C14A C13A 1_555 1_555
H14A C14A 1_555 1_555
C15A C14A 1_555 1_555
H15A C15A 1_555 1_555
C16A H16A 1_555 1_555
C17A C16A 1_555 1_555
H17A C17A 1_555 1_555
C18A C17A 1_555 1_555
H18A C18A 1_555 1_555
C19A C20A 1_555 1_555
C20A H19A 1_555 1_555
H20A C20A 1_555 1_555
C21A H21A 1_555 1_555
H22A C21A 1_555 1_555
C22A C21A 1_555 1_555
C23A C22A 1_555 1_555
H23A C23A 1_555 1_555
C24A C23A 1_555 1_555
H24A C24A 1_555 1_555
C25A C24A 1_555 1_555
H25A C25A 1_555 1_555
C26A C25A 1_555 1_555
H26A C26A 1_555 1_555
C27A C22A 1_555 1_555
H27A C27A 1_555 1_555
C28A H28A 1_555 1_555
C29A C28A 1_555 1_555
H29A C29A 1_555 1_555
C30A C29A 1_555 1_555
H30A C30A 1_555 1_555
C31A H31A 1_555 1_555
C32A C31A 1_555 1_555
H32A C32A 1_555 1_555
C33A C32A 1_555 1_555
H33A C33A 1_555 1_555
C34A H34A 1_555 1_555
C35A C34A 1_555 1_555
H35A C35A 1_555 1_555
C36A C35A 1_555 1_555
H36A C36A 1_555 1_555
C37A C38A 1_555 1_555
C38A H37A 1_555 1_555
H38A C38A 1_555 1_555
C39A H39A 1_555 1_555
H40A C39A 1_555 1_555
C40A C39A 1_555 1_555
C41A C40A 1_555 1_555
H41A C41A 1_555 1_555
C42A C41A 1_555 1_555
H42A C42A 1_555 1_555
C43A C42A 1_555 1_555
H43A C43A 1_555 1_555
C44A C43A 1_555 1_555
H44A C44A 1_555 1_555
C45A C40A 1_555 1_555
H45A C45A 1_555 1_555
C46A H46A 1_555 1_555
C47A C46A 1_555 1_555
H47A C47A 1_555 1_555
C48A C47A 1_555 1_555
H48A C48A 1_555 1_555
C49A H49A 1_555 1_555
C50A C49A 1_555 1_555
H50A C50A 1_555 1_555
C51A C50A 1_555 1_555
H51A C51A 1_555 1_555
C52A H52A 1_555 1_555
C53A C52A 1_555 1_555
H53A C53A 1_555 1_555
C54A C53A 1_555 1_555
H54A C54A 1_555 1_555
C55A C56A 1_555 1_555
C56A H55A 1_555 1_555
H56A C56A 1_555 1_555
C57A H57A 1_555 1_555
H58A C57A 1_555 1_555
C58A C57A 1_555 1_555
C59A C58A 1_555 1_555
H59A C59A 1_555 1_555
C60A C59A 1_555 1_555
H60A C60A 1_555 1_555
C61A C60A 1_555 1_555
H61A C61A 1_555 1_555
C62A C61A 1_555 1_555
H62A C62A 1_555 1_555
C63A C58A 1_555 1_555
H63A C63A 1_555 1_555
C64A H64A 1_555 1_555
C65A C64A 1_555 1_555
H65A C65A 1_555 1_555
C66A C65A 1_555 1_555
H66A C66A 1_555 1_555
C67A H67A 1_555 1_555
C68A C67A 1_555 1_555
H68A C68A 1_555 1_555
C69A C68A 1_555 1_555
H69A C69A 1_555 1_555
C70A H70A 1_555 1_555
C71A C70A 1_555 1_555
H71A C71A 1_555 1_555
C72A C71A 1_555 1_555
H72A C72A 1_555 1_555
N1A C12A 1_555 1_555
N2A C1A 1_555 1_555
N3A Ag2A 1_555 1_555
N4A C1A 1_555 1_555
N5A Ag1 1_555 1_555
N6A C1A 1_555 1_555
N7A Ag2A 1_555 1_555
N8A C19A 1_555 1_555
N9A Ag2A 1_555 1_555
N10A C19A 1_555 1_555
N11A C36A 1_555 1_555
N12A C19A 1_555 1_555
N13A C48A 1_555 1_555
N14A C37A 1_555 1_555
N15A Ag4A 1_555 1_555
N16A C37A 1_555 1_555
N17A Ag3A 1_555 1_555
N18A C37A 1_555 1_555
N19A Ag4A 1_555 1_555
N20A C55A 1_555 1_555
N21A Ag4A 1_555 1_555
N22A C55A 1_555 1_555
N23A C72A 1_555 1_555
N23A_2 Ag5 1_555 1_555
N24A C55A 1_555 1_555
O1A C2A 1_555 1_555
O2A C20A 1_555 1_555
O3A C38A 1_555 1_555
O4A C56A 1_555 1_555
C3 O1 1_555 1_555
C8 C9 1_555 1_555
C10 N2 1_555 1_555
C13 N4 1_555 1_555
C15 N3 1_555 1_555
C16 N6 1_555 1_555
C21 O2 1_555 1_555
C26 C27 1_555 1_555
C28 N8 1_555 1_555
C30 N7 1_555 1_555
C31 N10 1_555 1_555
C33 N9 1_555 1_555
C34 N12 1_555 1_555
C39 O3 1_555 1_555
C44 C45 1_555 1_555
C46 N14 1_555 1_555
C49 N16 1_555 1_555
C51 N15 1_555 1_555
C52 N18 1_555 1_555
C54 N17 1_555 1_555
C57 O4 1_555 1_555
C62 C63 1_555 1_555
C64 N20 1_555 1_555
C66 N19 1_555 1_555
C67 N22 1_555 1_555
C69 N21 1_555 1_555
C70 N24 1_555 1_555
N1 N2 1_555 1_555
N3 N4 1_555 1_555
N5 N6 1_555 1_555
N7 N8 1_555 1_555
N9 N10 1_555 1_555
N11 N12 1_555 1_555
N13 N14 1_555 1_555
N15 N16 1_555 1_555
N17 N18 1_555 1_555
N19 N20 1_555 1_555
N21 N22 1_555 1_555
N23 N24 1_555 1_555
C3A O1A 1_555 1_555
C8A C9A 1_555 1_555
C10A N2A 1_555 1_555
C13A N4A 1_555 1_555
C15A N3A 1_555 1_555
C16A N6A 1_555 1_555
C18A N5A 1_555 1_555
C21A O2A 1_555 1_555
C26A C27A 1_555 1_555
C28A N8A 1_555 1_555
C30A N7A 1_555 1_555
C31A N10A 1_555 1_555
C33A N9A 1_555 1_555
C34A N12A 1_555 1_555
C39A O3A 1_555 1_555
C44A C45A 1_555 1_555
C46A N14A 1_555 1_555
C49A N16A 1_555 1_555
C51A N15A 1_555 1_555
C52A N18A 1_555 1_555
C54A N17A 1_555 1_555
C57A O4A 1_555 1_555
C62A C63A 1_555 1_555
C64A N20A 1_555 1_555
C66A N19A 1_555 1_555
C67A N22A 1_555 1_555
C69A N21A 1_555 1_555
C70A N24A 1_555 1_555
N1A N2A 1_555 1_555
N3A N4A 1_555 1_555
N5A N6A 1_555 1_555
N7A N8A 1_555 1_555
N9A N10A 1_555 1_555
N11A N12A 1_555 1_555
N13A N14A 1_555 1_555
N15A N16A 1_555 1_555
N17A N18A 1_555 1_555
N19A N20A 1_555 1_555
N21A N22A 1_555 1_555
N23A N24A 1_555 1_555

#END
