
#######################################################################
#
#                 Cambridge Crystallographic Data Centre
#                                CCDC 
#
#######################################################################
#
# If this CIF has been generated from an entry in the Cambridge 
# Structural Database, then it will include bibliographic, chemical, 
# crystal, experimental, refinement or atomic coordinate data resulting 
# from the CCDC's data processing and validation procedures.
#
#######################################################################

data_PEPZIU
_symmetry_cell_setting           orthorhombic
_symmetry_space_group_name_H-M   'P b c a'
_symmetry_Int_Tables_number      61
_space_group_name_Hall           '-P 2ac 2ab'
loop_
_symmetry_equiv_pos_site_id
_symmetry_equiv_pos_as_xyz
1 x,y,z
2 1/2-x,-y,1/2+z
3 1/2+x,1/2-y,-z
4 -x,1/2+y,1/2-z
5 -x,-y,-z
6 1/2+x,y,1/2-z
7 1/2-x,1/2+y,z
8 x,1/2-y,1/2+z
_cell_length_a                   24.2333(13)
_cell_length_b                   11.6957(6)
_cell_length_c                   41.013(2)
_cell_angle_alpha                90
_cell_angle_beta                 90
_cell_angle_gamma                90
_cell_volume                     11624.1
loop_
_atom_site_label
_atom_site_type_symbol
_atom_site_fract_x
_atom_site_fract_y
_atom_site_fract_z
C1 C 0.4048(2) 0.2130(4) 0.37002(13)
C2 C 0.3938(2) 0.2018(4) 0.27589(13)
C3 C 0.4112(2) 0.0411(4) 0.32632(11)
C4 C 0.4785(2) 0.2247(4) 0.32120(12)
C5 C 0.3826(2) 0.3702(5) 0.32192(13)
C6 C 0.3201(2) 0.1769(4) 0.32762(12)
C7 C 0.4055(2) 0.2665(4) 0.12006(13)
C8 C 0.3907(2) 0.2381(4) 0.02628(14)
C9 C 0.3850(2) 0.4174(4) 0.07001(12)
C10 C 0.4772(2) 0.2665(4) 0.06938(12)
C11 C 0.4032(2) 0.0897(4) 0.08050(11)
C12 C 0.3181(2) 0.2271(4) 0.07711(12)
C13 C 0.2867(2) 0.2744(4) 0.42001(12)
H1 H 0.2525 0.3200 0.4176
H2 H 0.3007 0.2561 0.3979
C14 C 0.3463(2) 0.4479(4) 0.42230(13)
H3 H 0.3162 0.5050 0.4228
H4 H 0.3564 0.4335 0.3993
C15 C 0.3958(2) 0.4921(4) 0.44091(13)
H5 H 0.4101 0.5621 0.4303
H6 H 0.3849 0.5116 0.4635
C16 C 0.4836(2) 0.4255(5) 0.46510(12)
H7 H 0.4676 0.4275 0.4873
H8 H 0.4999 0.5014 0.4606
C17 C 0.5286(2) 0.3354(5) 0.46388(14)
H9 H 0.5605 0.3637 0.4767
H10 H 0.5410 0.3278 0.4410
C18 C 0.5136(2) 0.2162(5) 0.47649(13)
H11 H 0.5473 0.1684 0.4775
H12 H 0.4985 0.2226 0.4988
C19 C 0.4571(2) 0.0445(4) 0.46616(13)
H13 H 0.4500 0.0453 0.4899
H14 H 0.4880 -0.0089 0.4619
C20 C 0.4059(2) 0.0033(4) 0.44835(12)
H15 H 0.4139 -0.0059 0.4248
H16 H 0.3941 -0.0716 0.4571
C21 C 0.3117(2) 0.0712(4) 0.43363(13)
H17 H 0.3215 0.0626 0.4103
H18 H 0.2929 0.0002 0.4408
C22 C 0.2452(2) 0.1767(4) 0.46617(12)
C23 C 0.2043(2) 0.0976(4) 0.51005(13)
C24 C 0.1959(2) 0.2860(4) 0.50100(13)
C25 C 0.3096(2) 0.4012(4) 0.18453(12)
H19 H 0.2893 0.4699 0.1919
H20 H 0.3189 0.4113 0.1612
C26 C 0.4027(2) 0.4780(5) 0.19881(14)
H21 H 0.3888 0.5520 0.2072
H22 H 0.4106 0.4865 0.1752
C27 C 0.4545(2) 0.4434(5) 0.21687(13)
H23 H 0.4839 0.5005 0.2129
H24 H 0.4470 0.4413 0.2406
C28 C 0.5149(2) 0.2763(5) 0.22713(15)
H25 H 0.4993 0.2661 0.2492
H26 H 0.5473 0.3275 0.2289
C29 C 0.5333(2) 0.1609(5) 0.21389(15)
H27 H 0.5656 0.1355 0.2267
H28 H 0.5459 0.1722 0.1912
C30 C 0.4910(2) 0.0639(5) 0.21393(14)
H29 H 0.5097 -0.0085 0.2081
H30 H 0.4757 0.0553 0.2362
C31 C 0.4050(2) -0.0091(4) 0.19063(14)
H31 H 0.3951 -0.0299 0.2133
H32 H 0.4212 -0.0773 0.1800
C32 C 0.3534(2) 0.0288(4) 0.17207(13)
H33 H 0.3625 0.0450 0.1490
H34 H 0.3249 -0.0318 0.1728
C33 C 0.2896(2) 0.1966(4) 0.17082(11)
H35 H 0.3029 0.2166 0.1487
H36 H 0.2566 0.1474 0.1685
C34 C 0.2449(2) 0.2886(4) 0.21678(13)
C35 C 0.1980(2) 0.1734(4) 0.25166(12)
C36 C 0.1996(2) 0.3635(4) 0.25961(12)
Fe1 Fe 0.39885(3) 0.20562(6) 0.323230(16)
Fe2 Fe 0.39743(3) 0.25341(6) 0.073200(17)
H37 H 0.3150(19) 0.360(4) 0.4547(8)
H38 H 0.4517(19) 0.396(4) 0.4238(7)
H39 H 0.4857(19) 0.162(4) 0.4376(7)
H40 H 0.354(2) 0.089(4) 0.4715(7)
H41 H 0.3500(19) 0.392(4) 0.2219(7)
H42 H 0.4869(19) 0.330(4) 0.1884(8)
H43 H 0.4580(19) 0.087(4) 0.1735(7)
H44 H 0.3153(18) 0.118(4) 0.2037(9)
N1 N 0.40716(17) 0.2185(3) 0.39790(11)
N2 N 0.39250(18) 0.2043(4) 0.24786(11)
N3 N 0.41675(19) -0.0567(4) 0.32831(11)
N4 N 0.5263(2) 0.2303(4) 0.32218(12)
N5 N 0.36963(19) 0.4656(4) 0.32189(11)
N6 N 0.27421(19) 0.1577(4) 0.33123(12)
N7 N 0.40877(18) 0.2692(3) 0.14784(11)
N8 N 0.38907(19) 0.2300(4) -0.00146(11)
N9 N 0.3754(2) 0.5142(4) 0.06996(12)
N10 N 0.5248(2) 0.2694(4) 0.06851(11)
N11 N 0.40260(17) -0.0061(4) 0.08700(10)
N12 N 0.27264(19) 0.2045(4) 0.08061(12)
N13 N 0.27462(16) 0.1685(3) 0.43769(10)
N14 N 0.32808(17) 0.3408(3) 0.43793(10)
N15 N 0.43925(18) 0.4033(4) 0.44142(11)
N16 N 0.47247(17) 0.1603(4) 0.45521(10)
N17 N 0.36193(18) 0.0889(4) 0.45304(11)
N18 N 0.23822(17) 0.0828(3) 0.48430(10)
N19 N 0.18164(17) 0.1961(4) 0.51965(10)
N20 N 0.22451(17) 0.2808(3) 0.47300(10)
N21 N 0.19149(19) 0.0040(4) 0.52701(10)
H45 H 0.1689 0.0088 0.5438
H46 H 0.2056 -0.0625 0.5215
N22 N 0.18006(18) 0.3917(4) 0.50999(10)
H47 H 0.1886 0.4509 0.4978
H48 H 0.1612 0.4015 0.5281
N23 N 0.27524(17) 0.3005(3) 0.18856(10)
N24 N 0.36118(18) 0.3883(4) 0.20393(10)
N25 N 0.47323(18) 0.3294(4) 0.20579(11)
N26 N 0.44539(18) 0.0841(4) 0.19095(11)
N27 N 0.33317(18) 0.1342(4) 0.18861(10)
N28 N 0.22691(18) 0.1818(3) 0.22373(10)
N29 N 0.18034(18) 0.2619(4) 0.26997(11)
N30 N 0.23429(18) 0.3820(3) 0.23443(10)
N31 N 0.18531(17) 0.0668(4) 0.26115(10)
H49 H 0.1958 0.0079 0.2493
H50 H 0.1665 0.0557 0.2792
N32 N 0.1830(2) 0.4556(4) 0.27594(11)
H51 H 0.1604 0.4482 0.2926
H52 H 0.1945 0.5239 0.2701
Ni1 Ni 0.39975(3) 0.24859(5) 0.447840(15)
Ni2 Ni 0.40273(3) 0.23378(5) 0.197835(15)
O1 O 0.35697(17) -0.2394(3) 0.41471(11)
O2 O 0.45147(19) -0.3532(4) 0.36739(10)
O3 O 0.26017(17) -0.0850(3) 0.35395(10)
O4 O 0.14397(18) 0.2762(4) 0.66341(11)
O5 O 0.04823(18) 0.3394(4) 0.60544(11)
O6 O 0.24253(18) 0.0391(4) 0.60721(11)
Rb1 Rb 0.34399(2) -0.27071(4) 0.345300(13)
Rb2 Rb 0.15953(2) 0.22730(5) 0.595238(14)
N5_2 N 0.36963(19) -0.5344(4) 0.32189(11)
N6F N 0.22579(19) -0.3423(4) 0.33123(12)
N8G N 0.38907(19) 0.2700(4) 0.49854(11)
N9A N 0.1246(2) 0.4858(4) 0.56996(12)
N11A N 0.09740(17) 0.0061(4) 0.58700(10)
N12G N 0.27264(19) 0.2955(4) 0.58061(12)
N29F N 0.31966(18) -0.2381(4) 0.26997(11)
Ni1G Ni 0.39975(3) 0.25141(5) -0.052160(15)
Rb1_2 Rb 0.34399(2) 0.72929(4) 0.345300(13)
Rb1F Rb 0.15601(2) 0.22929(4) 0.345300(13)
Rb2A Rb 0.34047(2) 0.77270(5) 0.095238(14)
Rb2A_2 Rb 0.34047(2) -0.22730(5) 0.095238(14)
Rb2G Rb 0.15953(2) 0.27270(5) 0.095238(14)
O7 O 0.50204(16) 0.4324(3) 0.37506(10)
loop_
_geom_bond_atom_site_label_1
_geom_bond_atom_site_label_2
_geom_bond_site_symmetry_1
_geom_bond_site_symmetry_2
C1 Fe1 1_555 1_555
C2 Fe1 1_555 1_555
C3 Fe1 1_555 1_555
C4 Fe1 1_555 1_555
C5 Fe1 1_555 1_555
C6 Fe1 1_555 1_555
C7 Fe2 1_555 1_555
C8 Fe2 1_555 1_555
C9 Fe2 1_555 1_555
C10 Fe2 1_555 1_555
C11 Fe2 1_555 1_555
C12 Fe2 1_555 1_555
C13 H1 1_555 1_555
H2 C13 1_555 1_555
C14 H3 1_555 1_555
H4 C14 1_555 1_555
C15 C14 1_555 1_555
H5 C15 1_555 1_555
H6 C15 1_555 1_555
C16 H7 1_555 1_555
H8 C16 1_555 1_555
C17 C16 1_555 1_555
H9 C17 1_555 1_555
H10 C17 1_555 1_555
C18 C17 1_555 1_555
H11 C18 1_555 1_555
H12 C18 1_555 1_555
C19 H13 1_555 1_555
H14 C19 1_555 1_555
C20 C19 1_555 1_555
H15 C20 1_555 1_555
H16 C20 1_555 1_555
C21 H17 1_555 1_555
H18 C21 1_555 1_555
C22 N13 1_555 1_555
C23 N18 1_555 1_555
C24 N19 1_555 1_555
C25 H19 1_555 1_555
H20 C25 1_555 1_555
C26 H21 1_555 1_555
H22 C26 1_555 1_555
C27 C26 1_555 1_555
H23 C27 1_555 1_555
H24 C27 1_555 1_555
C28 H25 1_555 1_555
H26 C28 1_555 1_555
C29 C28 1_555 1_555
H27 C29 1_555 1_555
H28 C29 1_555 1_555
C30 C29 1_555 1_555
H29 C30 1_555 1_555
H30 C30 1_555 1_555
C31 H31 1_555 1_555
H32 C31 1_555 1_555
C32 C31 1_555 1_555
H33 C32 1_555 1_555
H34 C32 1_555 1_555
C33 H35 1_555 1_555
H36 C33 1_555 1_555
C34 N23 1_555 1_555
C35 N28 1_555 1_555
C36 N29 1_555 1_555
H37 N14 1_555 1_555
H38 N15 1_555 1_555
H39 N16 1_555 1_555
H40 N17 1_555 1_555
H41 N24 1_555 1_555
H42 N25 1_555 1_555
H43 N26 1_555 1_555
H44 N27 1_555 1_555
N1 C1 1_555 1_555
N2 C2 1_555 1_555
N3 C3 1_555 1_555
N4 C4 1_555 1_555
N5 C5 1_555 1_555
N6 C6 1_555 1_555
N7 C7 1_555 1_555
N8 C8 1_555 1_555
N9 C9 1_555 1_555
N10 C10 1_555 1_555
N11 C11 1_555 1_555
N12 C12 1_555 1_555
N13 C13 1_555 1_555
N14 C13 1_555 1_555
N15 C15 1_555 1_555
N16 C18 1_555 1_555
N17 C20 1_555 1_555
N18 C22 1_555 1_555
N19 C23 1_555 1_555
N20 C22 1_555 1_555
N21 C23 1_555 1_555
H45 N21 1_555 1_555
H46 N21 1_555 1_555
N22 C24 1_555 1_555
H47 N22 1_555 1_555
H48 N22 1_555 1_555
N23 C25 1_555 1_555
N24 C25 1_555 1_555
N25 C27 1_555 1_555
N26 C30 1_555 1_555
N27 C32 1_555 1_555
N28 C34 1_555 1_555
N29 C35 1_555 1_555
N30 C34 1_555 1_555
N31 C35 1_555 1_555
H49 N31 1_555 1_555
H50 N31 1_555 1_555
N32 C36 1_555 1_555
H51 N32 1_555 1_555
H52 N32 1_555 1_555
Ni1 N1 1_555 1_555
Ni2 N2 1_555 1_555
O1 Rb1 1_555 1_555
O2 Rb1 1_555 1_555
O3 Rb1 1_555 1_555
O4 Rb2 1_555 1_555
O5 Rb2 1_555 1_555
O6 Rb2 1_555 1_555
Rb1 N3 1_555 1_555
Rb2 N19 1_555 1_555
N5_2 Rb1 1_555 1_555
N6F Rb1 1_555 1_555
N8G Ni1 1_555 1_555
N9A Rb2 1_555 1_555
N11A Rb2 1_555 1_555
N12G Rb2 1_555 1_555
N29F Rb1 1_555 1_555
Ni1G N8 1_555 1_555
Rb1_2 N5 1_555 1_555
Rb1F N6 1_555 1_555
Rb2A N9 1_555 1_555
Rb2A_2 N11 1_555 1_555
Rb2G N12 1_555 1_555
C14 N14 1_555 1_555
C16 N15 1_555 1_555
C19 N16 1_555 1_555
C21 N13 1_555 1_555
C21 N17 1_555 1_555
C24 N20 1_555 1_555
C26 N24 1_555 1_555
C28 N25 1_555 1_555
C31 N26 1_555 1_555
C33 N23 1_555 1_555
C33 N27 1_555 1_555
C36 N30 1_555 1_555
N7 Ni2 1_555 1_555
N14 Ni1 1_555 1_555
N15 Ni1 1_555 1_555
N16 Ni1 1_555 1_555
N17 Ni1 1_555 1_555
N24 Ni2 1_555 1_555
N25 Ni2 1_555 1_555
N26 Ni2 1_555 1_555
N27 Ni2 1_555 1_555
N29 Rb1F 1_555 1_555

#END
