
#######################################################################
#
#                 Cambridge Crystallographic Data Centre
#                                CCDC 
#
#######################################################################
#
# If this CIF has been generated from an entry in the Cambridge 
# Structural Database, then it will include bibliographic, chemical, 
# crystal, experimental, refinement or atomic coordinate data resulting 
# from the CCDC's data processing and validation procedures.
#
#######################################################################

data_PEPZEQ
_symmetry_cell_setting           orthorhombic
_symmetry_space_group_name_H-M   'P b c a'
_symmetry_Int_Tables_number      61
_space_group_name_Hall           '-P 2ac 2ab'
loop_
_symmetry_equiv_pos_site_id
_symmetry_equiv_pos_as_xyz
1 x,y,z
2 1/2-x,-y,1/2+z
3 -x,1/2+y,1/2-z
4 1/2+x,1/2-y,-z
5 -x,-y,-z
6 1/2+x,y,1/2-z
7 x,1/2-y,1/2+z
8 1/2-x,1/2+y,z
_cell_length_a                   24.410(2)
_cell_length_b                   11.5284(10)
_cell_length_c                   41.176(3)
_cell_angle_alpha                90
_cell_angle_beta                 90
_cell_angle_gamma                90
_cell_volume                     11587.3
loop_
_atom_site_label
_atom_site_type_symbol
_atom_site_fract_x
_atom_site_fract_y
_atom_site_fract_z
Ni1 Ni 0.39957(4) 0.26151(6) -0.19743(2)
Ni2 Ni 0.39962(4) 0.24769(6) 0.05261(2)
Fe1 Fe 0.39503(4) 0.24649(7) -0.07301(2)
Fe2 Fe 0.39461(4) 0.28481(6) -0.32295(2)
K1 K 0.33959(8) 0.72981(13) -0.08934(5)
K2 K 0.15596(8) 0.26833(13) -0.33987(5)
O1 O 0.2622(2) 0.5453(5) -0.10586(16)
O2 O 0.4190(4) 0.8121(6) -0.1253(2)
O3 O 0.3585(8) 0.7580(17) -0.1604(4)
O4 O 0.2307(2) 0.0852(4) -0.35353(14)
O5 O 0.1431(6) 0.2411(12) -0.4118(10)
O6 O 0.0639(4) 0.3414(5) -0.37104(19)
N1 N 0.4058(3) 0.2332(4) -0.14736(15)
N2 N 0.3898(3) 0.2660(4) 0.00164(16)
N3 N 0.3992(2) 0.5110(4) -0.08550(14)
N4 N 0.5213(3) 0.2324(5) -0.0700(2)
N5 N 0.3762(3) -0.0183(5) -0.07010(16)
N6 N 0.2704(3) 0.2920(5) -0.07972(17)
N7 N 0.4050(3) 0.2757(4) -0.39698(15)
N8 N 0.3892(3) 0.2861(4) -0.24797(14)
N9 N 0.5199(3) 0.2523(5) -0.3189(2)
N10 N 0.3675(3) 0.0216(5) -0.32352(15)
N11 N 0.4149(2) 0.5498(4) -0.32925(13)
N12 N 0.2704(3) 0.3334(5) -0.33216(17)
N13 N 0.3313(2) 0.3672(4) -0.18912(13)
N14 N 0.2723(2) 0.2015(4) -0.18762(12)
N15 N 0.3564(2) 0.1057(4) -0.20204(13)
N16 N 0.4692(2) 0.1592(5) -0.20375(13)
N17 N 0.4436(2) 0.4132(4) -0.19148(13)
N18 N 0.2280(2) 0.3202(4) -0.22402(14)
N19 N 0.1799(3) 0.2381(4) -0.26907(14)
N20 N 0.2309(2) 0.1160(4) -0.23264(13)
N21 N 0.1866(2) 0.4362(4) -0.26142(14)
H1 H 0.1674 0.4473 -0.2792
H2 H 0.1984 0.4961 -0.2501
N22 N 0.1815(3) 0.0408(4) -0.27405(15)
H3 H 0.1597 0.0465 -0.2910
H4 H 0.1927 -0.0278 -0.2674
N23 N 0.3289(2) 0.3489(4) 0.06075(13)
N24 N 0.2741(2) 0.1756(4) 0.06283(14)
N25 N 0.3598(2) 0.0893(4) 0.04752(14)
N26 N 0.4708(2) 0.1507(5) 0.04666(14)
N27 N 0.4416(2) 0.4025(5) 0.05838(14)
N28 N 0.2259(2) 0.2895(4) 0.02682(14)
N29 N 0.1811(2) 0.2025(4) -0.01861(14)
N30 N 0.2364(2) 0.0871(4) 0.01718(14)
N31 N 0.1814(3) 0.3993(5) -0.01033(14)
H5 H 0.1614 0.4094 -0.0279
H6 H 0.1916 0.4595 0.0013
N32 N 0.1896(3) 0.0060(5) -0.02537(15)
H7 H 0.1676 0.0105 -0.0422
H8 H 0.2031 -0.0616 -0.0194
C1 C 0.4023(3) 0.2336(4) -0.11950(18)
C2 C 0.3913(3) 0.2592(5) -0.02600(18)
C3 C 0.3993(3) 0.4137(5) -0.07946(15)
C4 C 0.4739(4) 0.2367(5) -0.0702(2)
C5 C 0.3845(3) 0.0806(5) -0.07052(16)
C6 C 0.3168(3) 0.2695(6) -0.07698(17)
C7 C 0.4024(3) 0.2797(5) -0.36918(17)
C8 C 0.3888(3) 0.2867(5) -0.27588(18)
C9 C 0.4719(3) 0.2614(5) -0.31970(19)
C10 C 0.3793(3) 0.1195(5) -0.32263(16)
C11 C 0.4078(3) 0.4522(5) -0.32612(15)
C12 C 0.3166(3) 0.3143(5) -0.32790(15)
C13 C 0.2878(3) 0.3057(5) -0.17053(15)
H9 H 0.3014 0.2857 -0.1486
H10 H 0.2555 0.3569 -0.1680
C14 C 0.3054(3) 0.0970(5) -0.18246(16)
H11 H 0.2844 0.0274 -0.1891
H12 H 0.3148 0.0894 -0.1592
C15 C 0.3971(3) 0.0130(5) -0.19575(18)
H13 H 0.3827 -0.0629 -0.2031
H14 H 0.4050 0.0079 -0.1722
C16 C 0.4488(3) 0.0432(6) -0.21434(18)
H15 H 0.4772 -0.0163 -0.2103
H16 H 0.4409 0.0446 -0.2379
C17 C 0.5110(3) 0.2108(6) -0.2254(2)
H17 H 0.4952 0.2195 -0.2475
H18 H 0.5426 0.1572 -0.2270
C18 C 0.5310(3) 0.3279(7) -0.21376(19)
H19 H 0.5633 0.3501 -0.2269
H20 H 0.5435 0.3194 -0.1910
C19 C 0.4893(3) 0.4278(6) -0.21514(19)
H21 H 0.5084 0.5017 -0.2106
H22 H 0.4739 0.4325 -0.2373
C20 C 0.4037(3) 0.5096(5) -0.19254(18)
H23 H 0.3937 0.5268 -0.2153
H24 H 0.4199 0.5802 -0.1829
C21 C 0.3532(3) 0.4738(5) -0.17357(17)
H25 H 0.3629 0.4582 -0.1506
H26 H 0.3254 0.5363 -0.1741
C22 C 0.2429(3) 0.2138(5) -0.21559(17)
C23 C 0.1983(3) 0.3270(5) -0.25139(16)
C24 C 0.1976(3) 0.1362(5) -0.25836(17)
C25 C 0.2874(3) 0.2827(5) 0.07881(18)
H27 H 0.3013 0.2659 0.1009
H28 H 0.2538 0.3302 0.0810
C26 C 0.3096(3) 0.0768(5) 0.06731(17)
H29 H 0.2901 0.0051 0.0609
H30 H 0.3197 0.0700 0.0905
C27 C 0.4020(3) -0.0014(5) 0.05342(18)
H31 H 0.3891 -0.0775 0.0453
H32 H 0.4097 -0.0083 0.0770
C28 C 0.4535(3) 0.0356(6) 0.0353(2)
H33 H 0.4831 -0.0213 0.0392
H34 H 0.4460 0.0382 0.0117
C29 C 0.5131(3) 0.2062(7) 0.0254(2)
H35 H 0.4983 0.2140 0.0031
H36 H 0.5459 0.1559 0.0244
C30 C 0.5292(3) 0.3240(7) 0.0379(2)
H37 H 0.5623 0.3493 0.0259
H38 H 0.5396 0.3157 0.0610
C31 C 0.4868(3) 0.4197(7) 0.03540(19)
H39 H 0.5045 0.4953 0.0398
H40 H 0.4720 0.4219 0.0130
C32 C 0.3987(3) 0.4936(5) 0.05699(17)
H41 H 0.3881 0.5076 0.0341
H42 H 0.4133 0.5669 0.0660
C33 C 0.3489(3) 0.4555(5) 0.07633(18)
H43 H 0.3591 0.4402 0.0992
H44 H 0.3203 0.5163 0.0759
C34 C 0.2439(3) 0.1837(5) 0.03380(17)
C35 C 0.1963(3) 0.2921(6) -0.0013(2)
C36 C 0.2024(3) 0.1009(6) -0.00888(18)
Ni2F Ni 0.39962(4) 0.25231(6) -0.44739(2)
K1_2 K 0.33959(8) -0.27019(13) -0.08934(5)
K1G K 0.16041(8) 0.22981(13) -0.08934(5)
K2G K 0.34404(8) -0.23167(13) -0.33987(5)
K2G_2 K 0.34404(8) 0.76833(13) -0.33987(5)
N5_2 N 0.3762(3) 0.9817(5) -0.07010(16)
N6G N 0.2296(3) 0.7920(5) -0.07972(17)
N7F N 0.4050(3) 0.2243(4) 0.10302(15)
N10G N 0.1325(3) 0.5216(5) -0.32352(15)
N11G N 0.0851(2) 0.0498(4) -0.32925(13)
N29G N 0.3189(2) 0.7025(4) -0.01861(14)
O7 O -0.0016(2) -0.0472(5) 0.12627(15)
O8 O 0.0048(3) 0.4944(6) -0.11660(17)
loop_
_geom_bond_atom_site_label_1
_geom_bond_atom_site_label_2
_geom_bond_site_symmetry_1
_geom_bond_site_symmetry_2
Ni1 N1 1_555 1_555
Ni2 N2 1_555 1_555
Fe1 C1 1_555 1_555
Fe2 C7 1_555 1_555
K1 O1 1_555 1_555
K2 O4 1_555 1_555
O2 K1 1_555 1_555
O3 K1 1_555 1_555
O5 K2 1_555 1_555
O6 K2 1_555 1_555
N1 C1 1_555 1_555
N2 C2 1_555 1_555
N3 K1 1_555 1_555
N4 C4 1_555 1_555
N5 C5 1_555 1_555
N6 C6 1_555 1_555
N7 C7 1_555 1_555
N8 Ni1 1_555 1_555
N9 C9 1_555 1_555
N10 C10 1_555 1_555
N11 C11 1_555 1_555
N12 K2 1_555 1_555
N13 Ni1 1_555 1_555
N14 C13 1_555 1_555
N15 Ni1 1_555 1_555
N16 Ni1 1_555 1_555
N17 Ni1 1_555 1_555
N18 C22 1_555 1_555
N19 K2 1_555 1_555
N20 C22 1_555 1_555
N21 H1 1_555 1_555
H2 N21 1_555 1_555
N22 H3 1_555 1_555
H4 N22 1_555 1_555
N23 Ni2 1_555 1_555
N24 C25 1_555 1_555
N25 Ni2 1_555 1_555
N26 Ni2 1_555 1_555
N27 Ni2 1_555 1_555
N28 C34 1_555 1_555
N29 C35 1_555 1_555
N30 C34 1_555 1_555
N31 H5 1_555 1_555
H6 N31 1_555 1_555
N32 H7 1_555 1_555
H8 N32 1_555 1_555
C2 Fe1 1_555 1_555
C3 Fe1 1_555 1_555
C4 Fe1 1_555 1_555
C5 Fe1 1_555 1_555
C6 Fe1 1_555 1_555
C8 Fe2 1_555 1_555
C9 Fe2 1_555 1_555
C10 Fe2 1_555 1_555
C11 Fe2 1_555 1_555
C12 Fe2 1_555 1_555
C13 N13 1_555 1_555
H9 C13 1_555 1_555
H10 C13 1_555 1_555
C14 N14 1_555 1_555
H11 C14 1_555 1_555
H12 C14 1_555 1_555
C15 N15 1_555 1_555
H13 C15 1_555 1_555
H14 C15 1_555 1_555
C16 N16 1_555 1_555
H15 C16 1_555 1_555
H16 C16 1_555 1_555
C17 N16 1_555 1_555
H17 C17 1_555 1_555
H18 C17 1_555 1_555
C18 C17 1_555 1_555
H19 C18 1_555 1_555
H20 C18 1_555 1_555
C19 N17 1_555 1_555
H21 C19 1_555 1_555
H22 C19 1_555 1_555
C20 N17 1_555 1_555
H23 C20 1_555 1_555
H24 C20 1_555 1_555
C21 N13 1_555 1_555
H25 C21 1_555 1_555
H26 C21 1_555 1_555
C22 N14 1_555 1_555
C23 N18 1_555 1_555
C24 N19 1_555 1_555
C25 N23 1_555 1_555
H27 C25 1_555 1_555
H28 C25 1_555 1_555
C26 N24 1_555 1_555
H29 C26 1_555 1_555
H30 C26 1_555 1_555
C27 N25 1_555 1_555
H31 C27 1_555 1_555
H32 C27 1_555 1_555
C28 N26 1_555 1_555
H33 C28 1_555 1_555
H34 C28 1_555 1_555
C29 N26 1_555 1_555
H35 C29 1_555 1_555
H36 C29 1_555 1_555
C30 C29 1_555 1_555
H37 C30 1_555 1_555
H38 C30 1_555 1_555
C31 N27 1_555 1_555
H39 C31 1_555 1_555
H40 C31 1_555 1_555
C32 N27 1_555 1_555
H41 C32 1_555 1_555
H42 C32 1_555 1_555
C33 N23 1_555 1_555
H43 C33 1_555 1_555
H44 C33 1_555 1_555
C34 N24 1_555 1_555
C35 N28 1_555 1_555
C36 N29 1_555 1_555
Ni2F N7 1_555 1_555
K1_2 N5 1_555 1_555
K1G N6 1_555 1_555
K2G N10 1_555 1_555
K2G_2 N11 1_555 1_555
N5_2 K1 1_555 1_555
N6G K1 1_555 1_555
N7F Ni2 1_555 1_555
N10G K2 1_555 1_555
N11G K2 1_555 1_555
N29G K1 1_555 1_555
N3 C3 1_555 1_555
N8 C8 1_555 1_555
N12 C12 1_555 1_555
N15 C14 1_555 1_555
N19 C23 1_555 1_555
N20 C24 1_555 1_555
N21 C23 1_555 1_555
N22 C24 1_555 1_555
N25 C26 1_555 1_555
N29 K1G 1_555 1_555
N30 C36 1_555 1_555
N31 C35 1_555 1_555
N32 C36 1_555 1_555
C15 C16 1_555 1_555
C18 C19 1_555 1_555
C20 C21 1_555 1_555
C27 C28 1_555 1_555
C30 C31 1_555 1_555
C32 C33 1_555 1_555

#END
