
#######################################################################
#
#                 Cambridge Crystallographic Data Centre
#                                CCDC 
#
#######################################################################
#
# If this CIF has been generated from an entry in the Cambridge 
# Structural Database, then it will include bibliographic, chemical, 
# crystal, experimental, refinement or atomic coordinate data resulting 
# from the CCDC's data processing and validation procedures.
#
#######################################################################

data_PEQBIX
_symmetry_cell_setting           monoclinic
_symmetry_space_group_name_H-M   'P 21/c'
_symmetry_Int_Tables_number      14
_space_group_name_Hall           '-P 2ybc'
loop_
_symmetry_equiv_pos_site_id
_symmetry_equiv_pos_as_xyz
1 x,y,z
2 -x,1/2+y,1/2-z
3 -x,-y,-z
4 x,1/2-y,1/2+z
_cell_length_a                   10.0218(6)
_cell_length_b                   12.6040(7)
_cell_length_c                   23.8071(13)
_cell_angle_alpha                90
_cell_angle_beta                 95.0650(10)
_cell_angle_gamma                90
_cell_volume                     2995.45
loop_
_atom_site_label
_atom_site_type_symbol
_atom_site_fract_x
_atom_site_fract_y
_atom_site_fract_z
Ag1 Ag 0.52926(2) 0.77556(2) 0.359929(10)
Ag2 Ag 0.00739(3) 0.72800(2) 0.351500(11)
C1 C 0.3083(3) 0.5822(2) 0.37774(13)
H1 H 0.2374 0.5284 0.3832
C2 C 0.2107(3) 0.6724(3) 0.45839(13)
H2 H 0.1523 0.6177 0.4686
C3 C 0.2284(4) 0.7685(3) 0.48374(14)
H3 H 0.1855 0.7944 0.5150
C4 C 0.3226(3) 0.8209(3) 0.45443(13)
H4 H 0.3549 0.8904 0.4631
C5 C 0.4584(3) 0.4283(3) 0.40142(14)
H5 H 0.3926 0.3756 0.4063
C6 C 0.5933(4) 0.4153(3) 0.40742(16)
H6 H 0.6411 0.3519 0.4172
C7 C 0.6471(3) 0.5144(3) 0.39625(15)
H7 H 0.7404 0.5287 0.3974
C8 C 0.3648(3) 0.6104(3) 0.27587(14)
H8 H 0.4498 0.5767 0.2771
C9 C 0.2987(3) 0.6558(3) 0.23059(14)
H9 H 0.3280 0.6620 0.1939
C10 C 0.1790(4) 0.6918(3) 0.24848(14)
H10 H 0.1110 0.7266 0.2250
N1 N 0.3618(3) 0.7617(2) 0.41286(11)
N2 N 0.2918(2) 0.6694(2) 0.41595(10)
N3 N 0.5524(3) 0.5863(2) 0.38389(13)
N4 N 0.4359(3) 0.5314(2) 0.38709(12)
N5 N 0.1716(3) 0.6714(2) 0.30279(11)
N6 N 0.2881(2) 0.6214(2) 0.31939(10)
C11 C 0.8005(3) 0.9383(2) 0.36389(12)
H11 H 0.7309 0.9943 0.3671
C12 C 0.9548(4) 1.0927(3) 0.37985(13)
H12 H 0.8909 1.1460 0.3865
C13 C 1.0891(4) 1.1052(3) 0.38149(15)
H13 H 1.1388 1.1686 0.3891
C14 C 1.1390(3) 1.0050(3) 0.36963(15)
H14 H 1.2315 0.9901 0.3681
C15 C 0.7149(3) 0.8743(3) 0.45368(13)
H15 H 0.6559 0.9313 0.4600
C16 C 0.7415(3) 0.7886(3) 0.48796(14)
H16 H 0.7050 0.7735 0.5226
C17 C 0.8335(3) 0.7281(3) 0.46127(13)
H17 H 0.8703 0.6631 0.4757
C18 C 0.8370(3) 0.8983(2) 0.26126(12)
H18 H 0.9185 0.9352 0.2579
C19 C 0.7625(3) 0.8476(3) 0.21931(13)
H19 H 0.7822 0.8403 0.1812
C20 C 0.6518(4) 0.8085(3) 0.24333(14)
H20 H 0.5816 0.7694 0.2235
N7 N 1.0430(3) 0.9333(2) 0.36076(12)
N8 N 0.9286(3) 0.9892(2) 0.36693(11)
N9 N 0.8636(3) 0.7719(2) 0.41329(11)
N10 N 0.7890(2) 0.8626(2) 0.40874(10)
N11 N 0.6565(3) 0.8331(2) 0.29793(11)
N12 N 0.7738(2) 0.8867(2) 0.30878(10)
C21 C -0.2084(4) 0.5476(3) 0.27020(17)
C22 C -0.2844(4) 0.4511(3) 0.25525(18)
H21 H -0.3672 0.4697 0.2324
H22 H -0.3064 0.4150 0.2897
H23 H -0.2305 0.4039 0.2336
N13 N -0.1492(4) 0.6230(3) 0.28237(16)
Ag2_2 Ag 1.00739(3) 0.72800(2) 0.351500(11)
N7_2 N 0.0430(3) 0.9333(2) 0.36076(12)
N9_2 N -0.1364(3) 0.7719(2) 0.41329(11)
B1 B 0.5062(4) 0.6034(3) 0.10542(15)
F1 F 0.5883(2) 0.68755(17) 0.12127(10)
F2 F 0.37299(18) 0.63686(15) 0.09765(8)
F3 F 0.5433(2) 0.56084(19) 0.05638(9)
F4 F 0.5145(2) 0.5258(2) 0.14670(10)
B2 B 0.0027(4) 0.4060(3) 0.39872(15)
F5 F 0.13646(18) 0.37769(16) 0.41071(8)
F6 F -0.0750(3) 0.3478(3) 0.43130(17)
F7 F -0.0144(3) 0.5111(2) 0.40535(17)
F8 F -0.0369(3) 0.3785(3) 0.34176(13)
B3? B 0.0027(4) 0.4060(3) 0.39872(15)
F9? F 0.13646(18) 0.37769(16) 0.41071(8)
F10? F 0.0069(10) 0.4904(10) 0.3625(6)
F11? F -0.0827(9) 0.3345(7) 0.3865(6)
F12? F -0.0322(10) 0.4591(10) 0.4508(4)
loop_
_geom_bond_atom_site_label_1
_geom_bond_atom_site_label_2
_geom_bond_site_symmetry_1
_geom_bond_site_symmetry_2
Ag1 N1 1_555 1_555
Ag2 N5 1_555 1_555
C1 H1 1_555 1_555
C2 H2 1_555 1_555
C3 C2 1_555 1_555
H3 C3 1_555 1_555
C4 C3 1_555 1_555
H4 C4 1_555 1_555
C5 H5 1_555 1_555
C6 C5 1_555 1_555
H6 C6 1_555 1_555
C7 C6 1_555 1_555
H7 C7 1_555 1_555
C8 H8 1_555 1_555
C9 C8 1_555 1_555
H9 C9 1_555 1_555
C10 C9 1_555 1_555
H10 C10 1_555 1_555
N1 C4 1_555 1_555
N2 C1 1_555 1_555
N3 Ag1 1_555 1_555
N4 C1 1_555 1_555
N5 C10 1_555 1_555
N6 C1 1_555 1_555
C11 H11 1_555 1_555
C12 H12 1_555 1_555
C13 C12 1_555 1_555
H13 C13 1_555 1_555
C14 C13 1_555 1_555
H14 C14 1_555 1_555
C15 H15 1_555 1_555
C16 C15 1_555 1_555
H16 C16 1_555 1_555
C17 C16 1_555 1_555
H17 C17 1_555 1_555
C18 H18 1_555 1_555
C19 C18 1_555 1_555
H19 C19 1_555 1_555
C20 C19 1_555 1_555
H20 C20 1_555 1_555
N7 C14 1_555 1_555
N8 C11 1_555 1_555
N9 C17 1_555 1_555
N10 C11 1_555 1_555
N11 Ag1 1_555 1_555
N12 C11 1_555 1_555
C21 C22 1_555 1_555
C22 H21 1_555 1_555
H22 C22 1_555 1_555
H23 C22 1_555 1_555
N13 Ag2 1_555 1_555
B1 F1 1_555 1_555
F2 B1 1_555 1_555
F3 B1 1_555 1_555
F4 B1 1_555 1_555
B2 F5 1_555 1_555
F6 B2 1_555 1_555
F7 B2 1_555 1_555
F8 B2 1_555 1_555
Ag2_2 N7 1_555 1_555
N7_2 Ag2 1_555 1_555
N9_2 Ag2 1_555 1_555
C2 N2 1_555 1_555
C5 N4 1_555 1_555
C7 N3 1_555 1_555
C8 N6 1_555 1_555
N1 N2 1_555 1_555
N3 N4 1_555 1_555
N5 N6 1_555 1_555
C12 N8 1_555 1_555
C15 N10 1_555 1_555
C18 N12 1_555 1_555
C20 N11 1_555 1_555
N7 N8 1_555 1_555
N9 N10 1_555 1_555
N9 Ag2_2 1_555 1_555
N11 N12 1_555 1_555
C21 N13 1_555 1_555

#END
