
#######################################################################
#
#                 Cambridge Crystallographic Data Centre
#                                CCDC 
#
#######################################################################
#
# If this CIF has been generated from an entry in the Cambridge 
# Structural Database, then it will include bibliographic, chemical, 
# crystal, experimental, refinement or atomic coordinate data resulting 
# from the CCDC's data processing and validation procedures.
#
#######################################################################

data_PEQBET
_symmetry_cell_setting           orthorhombic
_symmetry_space_group_name_H-M   'P n n a'
_symmetry_Int_Tables_number      52
_space_group_name_Hall           '-P 2a 2bc'
loop_
_symmetry_equiv_pos_site_id
_symmetry_equiv_pos_as_xyz
1 x,y,z
2 1/2-x,-y,z
3 1/2-x,1/2+y,1/2-z
4 x,1/2-y,1/2-z
5 -x,-y,-z
6 1/2+x,y,-z
7 1/2+x,1/2-y,1/2+z
8 -x,1/2+y,1/2+z
_cell_length_a                   13.6420(7)
_cell_length_b                   13.9842(7)
_cell_length_c                   17.9820(9)
_cell_angle_alpha                90
_cell_angle_beta                 90
_cell_angle_gamma                90
_cell_volume                     3430.47
loop_
_atom_site_label
_atom_site_type_symbol
_atom_site_fract_x
_atom_site_fract_y
_atom_site_fract_z
Ag1 Ag 0.7500 0.0000 0.30008(2)
Ag2 Ag 0.48996(3) 0.2500 0.2500
C1 C 0.5015(3) 0.0001(3) 0.30321(19)
C2 C 0.3880(3) 0.0068(3) 0.3072(2)
H1 H 0.3657 0.0679 0.2852
H2 H 0.3582 -0.0463 0.2788
C3 C 0.4858(3) -0.1743(3) 0.3390(2)
H3 H 0.4164 -0.1798 0.3409
C4 C 0.5508(4) -0.2447(3) 0.3525(3)
H4 H 0.5369 -0.3089 0.3660
C5 C 0.6432(3) -0.2032(3) 0.3426(2)
H5 H 0.7035 -0.2364 0.3481
C6 C 0.4885(3) 0.0063(3) 0.1633(2)
H6 H 0.4239 -0.0180 0.1575
C7 C 0.5526(3) 0.0284(3) 0.1079(2)
H7 H 0.5419 0.0230 0.0559
C8 C 0.6367(3) 0.0605(3) 0.1434(2)
H8 H 0.6941 0.0813 0.1183
C9 C 0.5758(3) 0.0469(3) 0.42621(19)
H9 H 0.5862 -0.0150 0.4464
C10 C 0.5901(3) 0.1311(3) 0.4617(2)
H10 H 0.6143 0.1407 0.5107
C11 C 0.5615(3) 0.2005(3) 0.4106(2)
H11 H 0.5630 0.2672 0.4202
C12 C 0.2933(5) 0.3339(4) 0.4561(3)
F1 F 0.2170(4) 0.3214(3) 0.4991(2)
F2 F 0.3169(3) 0.4252(3) 0.45880(19)
F3 F 0.3674(4) 0.2850(4) 0.4840(2)
N1 N 0.6358(2) -0.1114(2) 0.32445(18)
N2 N 0.5369(2) -0.0947(2) 0.32230(16)
N3 N 0.6269(2) 0.0585(2) 0.21652(16)
N4 N 0.5341(2) 0.0254(2) 0.22797(16)
N5 N 0.5321(2) 0.1627(2) 0.34730(17)
N6 N 0.5438(2) 0.0671(2) 0.35641(15)
O1 O 0.3592(2) 0.0017(3) 0.38210(17)
H12 H 0.318(3) 0.044(3) 0.391(3)
O2 O 0.3549(2) 0.3238(2) 0.32334(15)
O3 O 0.2543(2) 0.1927(2) 0.36882(19)
O4 O 0.1812(2) 0.3454(2) 0.3422(2)
S1 S 0.26797(6) 0.29449(6) 0.36109(5)
Ag2A Ag 1.01004(3) -0.2500 0.2500
C1A C 0.9985(3) -0.0001(3) 0.30321(19)
C2A C 1.1120(3) -0.0068(3) 0.3072(2)
H1A H 1.1343 -0.0679 0.2852
H2A H 1.1418 0.0463 0.2788
C3A C 1.0142(3) 0.1743(3) 0.3390(2)
H3A H 1.0836 0.1798 0.3409
C4A C 0.9492(4) 0.2447(3) 0.3525(3)
H4A H 0.9631 0.3089 0.3660
C5A C 0.8568(3) 0.2032(3) 0.3426(2)
H5A H 0.7965 0.2364 0.3481
C6A C 1.0115(3) -0.0063(3) 0.1633(2)
H6A H 1.0761 0.0180 0.1575
C7A C 0.9474(3) -0.0284(3) 0.1079(2)
H7A H 0.9581 -0.0230 0.0559
C8A C 0.8633(3) -0.0605(3) 0.1434(2)
H8A H 0.8059 -0.0813 0.1183
C9A C 0.9242(3) -0.0469(3) 0.42621(19)
H9A H 0.9138 0.0150 0.4464
C10A C 0.9099(3) -0.1311(3) 0.4617(2)
H10A H 0.8857 -0.1407 0.5107
C11A C 0.9385(3) -0.2005(3) 0.4106(2)
H11A H 0.9370 -0.2672 0.4202
C12C C 0.2933(5) 0.1661(4) 0.0439(3)
F1C F 0.2170(4) 0.1786(3) 0.0009(2)
F2C F 0.3169(3) 0.0748(3) 0.04120(19)
F3C F 0.3674(4) 0.2150(4) 0.0160(2)
N1A N 0.8642(2) 0.1114(2) 0.32445(18)
N2A N 0.9631(2) 0.0947(2) 0.32230(16)
N3A N 0.8731(2) -0.0585(2) 0.21652(16)
N4A N 0.9659(2) -0.0254(2) 0.22797(16)
N5A N 0.9679(2) -0.1627(2) 0.34730(17)
N5C N 0.5321(2) 0.3373(2) 0.15270(17)
N6A N 0.9562(2) -0.0671(2) 0.35641(15)
O1A O 1.1408(2) -0.0017(3) 0.38210(17)
H12A H 1.182(3) -0.044(3) 0.391(3)
O2C O 0.3549(2) 0.1762(2) 0.17666(15)
O3C O 0.2543(2) 0.3073(2) 0.13118(19)
O4C O 0.1812(2) 0.1546(2) 0.1578(2)
S1C S 0.26797(6) 0.20551(6) 0.13891(5)
loop_
_geom_bond_atom_site_label_1
_geom_bond_atom_site_label_2
_geom_bond_site_symmetry_1
_geom_bond_site_symmetry_2
Ag1 N1 1_555 1_555
Ag2 N5 1_555 1_555
C1 C2 1_555 1_555
C2 H1 1_555 1_555
H2 C2 1_555 1_555
C3 H3 1_555 1_555
C4 C3 1_555 1_555
H4 C4 1_555 1_555
C5 C4 1_555 1_555
H5 C5 1_555 1_555
C6 H6 1_555 1_555
C7 C6 1_555 1_555
H7 C7 1_555 1_555
C8 C7 1_555 1_555
H8 C8 1_555 1_555
C9 H9 1_555 1_555
C10 C9 1_555 1_555
H10 C10 1_555 1_555
C11 C10 1_555 1_555
H11 C11 1_555 1_555
C12 F1 1_555 1_555
F2 C12 1_555 1_555
F3 C12 1_555 1_555
N1 C5 1_555 1_555
N2 C1 1_555 1_555
N3 Ag1 1_555 1_555
N4 C1 1_555 1_555
N5 C11 1_555 1_555
N6 C1 1_555 1_555
O1 C2 1_555 1_555
H12 O1 1_555 1_555
O2 Ag2 1_555 1_555
O3 S1 1_555 1_555
O4 S1 1_555 1_555
S1 C12 1_555 1_555
Ag2A N5A 1_555 1_555
C1A C2A 1_555 1_555
C2A H1A 1_555 1_555
H2A C2A 1_555 1_555
C3A H3A 1_555 1_555
C4A C3A 1_555 1_555
H4A C4A 1_555 1_555
C5A C4A 1_555 1_555
H5A C5A 1_555 1_555
C6A H6A 1_555 1_555
C7A C6A 1_555 1_555
H7A C7A 1_555 1_555
C8A C7A 1_555 1_555
H8A C8A 1_555 1_555
C9A H9A 1_555 1_555
C10A C9A 1_555 1_555
H10A C10A 1_555 1_555
C11A C10A 1_555 1_555
H11A C11A 1_555 1_555
C12C F1C 1_555 1_555
F2C C12C 1_555 1_555
F3C C12C 1_555 1_555
N1A Ag1 1_555 1_555
N2A C1A 1_555 1_555
N3A Ag1 1_555 1_555
N4A C1A 1_555 1_555
N5A C11A 1_555 1_555
N5C Ag2 1_555 1_555
N6A C1A 1_555 1_555
O1A C2A 1_555 1_555
H12A O1A 1_555 1_555
O2C Ag2 1_555 1_555
O3C S1C 1_555 1_555
O4C S1C 1_555 1_555
S1C C12C 1_555 1_555
C3 N2 1_555 1_555
C6 N4 1_555 1_555
C8 N3 1_555 1_555
C9 N6 1_555 1_555
N1 N2 1_555 1_555
N3 N4 1_555 1_555
N5 N6 1_555 1_555
O2 S1 1_555 1_555
C3A N2A 1_555 1_555
C5A N1A 1_555 1_555
C6A N4A 1_555 1_555
C8A N3A 1_555 1_555
C9A N6A 1_555 1_555
N1A N2A 1_555 1_555
N3A N4A 1_555 1_555
N5A N6A 1_555 1_555
O2C S1C 1_555 1_555

#END
