
#######################################################################
#
#                 Cambridge Crystallographic Data Centre
#                                CCDC 
#
#######################################################################
#
# If this CIF has been generated from an entry in the Cambridge 
# Structural Database, then it will include bibliographic, chemical, 
# crystal, experimental, refinement or atomic coordinate data resulting 
# from the CCDC's data processing and validation procedures.
#
#######################################################################

data_PEQCAR
_symmetry_cell_setting           triclinic
_symmetry_space_group_name_H-M   'P -1'
_symmetry_Int_Tables_number      2
_space_group_name_Hall           '-P 1'
loop_
_symmetry_equiv_pos_site_id
_symmetry_equiv_pos_as_xyz
1 x,y,z
2 -x,-y,-z
_cell_length_a                   8.858(2)
_cell_length_b                   9.568(2)
_cell_length_c                   10.916(3)
_cell_angle_alpha                67.476(3)
_cell_angle_beta                 66.281(3)
_cell_angle_gamma                77.280(3)
_cell_volume                     780.013
loop_
_atom_site_label
_atom_site_type_symbol
_atom_site_fract_x
_atom_site_fract_y
_atom_site_fract_z
C1 C 0.5099(2) 0.0065(2) 0.4237(2)
C2 C 0.5881(2) 0.4823(2) 0.44963(19)
C3 C 0.2896(3) 0.4479(2) 0.1716(2)
H1 H 0.2454 0.3590 0.1908
C4 C 0.4030(3) 0.6126(2) 0.1868(2)
H2 H 0.4528 0.6596 0.2197
C5 C 0.3690(3) 0.6760(2) 0.0664(3)
H3 H 0.3909 0.7732 0.0020
C6 C 0.2291(3) 0.5905(3) -0.0509(2)
H4 H 0.2098 0.4918 -0.0452
H5 H 0.3098 0.6350 -0.1438
C7 C 0.0687(3) 0.6907(2) -0.0348(2)
C8 C 0.0243(2) 0.7641(2) -0.1533(2)
H6 H 0.0920 0.7494 -0.2389
C9 C -0.1200(2) 0.8595(2) -0.1463(2)
C10 C -0.2216(3) 0.8768(3) -0.0174(2)
H7 H -0.3186 0.9401 -0.0112
C11 C -0.1805(3) 0.8011(3) 0.1022(3)
H8 H -0.2505 0.8121 0.1887
C12 C -0.0351(3) 0.7088(3) 0.0933(2)
H9 H -0.0071 0.6586 0.1738
C13 C -0.1613(3) 0.9463(2) -0.2778(2)
H10 H -0.1327 0.8819 -0.3355
H11 H -0.2794 0.9738 -0.2513
C14 C 0.0824(3) 1.1035(2) -0.3804(2)
H12 H 0.1489 1.0303 -0.3355
C15 C -0.0054(3) 1.3098(2) -0.5091(2)
H13 H -0.0107 1.4083 -0.5710
C16 C -0.1285(3) 1.2156(2) -0.4440(2)
H14 H -0.2315 1.2362 -0.4537
N1 N 0.3525(2) 0.46717(18) 0.25394(17)
N2 N 0.2964(2) 0.57061(19) 0.05716(18)
N3 N -0.0721(2) 1.08453(18) -0.36144(18)
N4 N 0.1284(2) 1.23840(19) -0.47023(18)
O1 O 0.56110(18) -0.11089(15) 0.39087(15)
O2 O 0.47296(18) 0.13430(15) 0.34616(15)
O3 O 0.60238(16) 0.38681(15) 0.39264(15)
O4 O 0.70162(16) 0.55168(15) 0.43480(15)
Zn1 Zn 0.37246(3) 0.30324(2) 0.44539(2)
C1A C 0.4901(2) -0.0065(2) 0.5763(2)
O1A O 0.43890(18) 0.11089(15) 0.60913(15)
O2A O 0.52704(18) -0.13430(15) 0.65384(15)
C2A C 0.4119(2) 0.5177(2) 0.55037(19)
O3A O 0.39762(16) 0.61319(15) 0.60736(15)
O4A O 0.29838(16) 0.44832(15) 0.56520(15)
C3A C 0.7104(3) -0.4479(2) 0.8284(2)
H1A H 0.7546 -0.3590 0.8092
C4A C 0.5970(3) -0.6126(2) 0.8132(2)
H2A H 0.5472 -0.6596 0.7803
C5A C 0.6310(3) -0.6760(2) 0.9336(3)
H3A H 0.6091 -0.7732 0.9980
C6A C 0.7709(3) -0.5905(3) 1.0509(2)
H4A H 0.7902 -0.4918 1.0452
H5A H 0.6902 -0.6350 1.1438
C7A C 0.9313(3) -0.6907(2) 1.0348(2)
C8A C 0.9757(2) -0.7641(2) 1.1533(2)
H6A H 0.9080 -0.7494 1.2389
C9A C 1.1200(2) -0.8595(2) 1.1463(2)
C10A C 1.2216(3) -0.8768(3) 1.0174(2)
H7A H 1.3186 -0.9401 1.0112
C11A C 1.1805(3) -0.8011(3) 0.8978(3)
H8A H 1.2505 -0.8121 0.8113
C12A C 1.0351(3) -0.7088(3) 0.9067(2)
H9A H 1.0071 -0.6586 0.8262
C13A C 1.1613(3) -0.9463(2) 1.2778(2)
H10A H 1.1327 -0.8819 1.3355
H11A H 1.2794 -0.9738 1.2513
C14A C 0.9176(3) -1.1035(2) 1.3804(2)
H12A H 0.8511 -1.0303 1.3355
C15A C 1.0054(3) -1.3098(2) 1.5091(2)
H13A H 1.0107 -1.4083 1.5710
C16A C 1.1285(3) -1.2156(2) 1.4440(2)
H14A H 1.2315 -1.2362 1.4537
N1A N 0.6475(2) -0.46717(18) 0.74606(17)
N2A N 0.7036(2) -0.57061(19) 0.94284(18)
N3A N 1.0721(2) -1.08453(18) 1.36144(18)
N4A N 0.8716(2) -1.23840(19) 1.47023(18)
Zn1A Zn 0.62754(3) -0.30324(2) 0.55461(2)
N4_2 N 0.1284(2) 0.23840(19) 0.52977(18)
N4A_2 N 0.8716(2) -0.23840(19) 0.47023(18)
O3A_2 O 0.39762(16) -0.38681(15) 0.60736(15)
O4_2 O 0.70162(16) -0.44832(15) 0.43480(15)
Zn1_2 Zn 0.37246(3) 1.30324(2) -0.55461(2)
Zn1A_2 Zn 0.62754(3) -1.30324(2) 1.55461(2)
Zn1A_3 Zn 0.62754(3) 0.69676(2) 0.55461(2)
loop_
_geom_bond_atom_site_label_1
_geom_bond_atom_site_label_2
_geom_bond_site_symmetry_1
_geom_bond_site_symmetry_2
C1 O1 1_555 1_555
C2 O3 1_555 1_555
C3 H1 1_555 1_555
C4 H2 1_555 1_555
C5 C4 1_555 1_555
H3 C5 1_555 1_555
C6 H4 1_555 1_555
H5 C6 1_555 1_555
C7 C6 1_555 1_555
C8 C7 1_555 1_555
H6 C8 1_555 1_555
C9 C8 1_555 1_555
C10 C9 1_555 1_555
H7 C10 1_555 1_555
C11 C10 1_555 1_555
H8 C11 1_555 1_555
C12 C7 1_555 1_555
H9 C12 1_555 1_555
C13 C9 1_555 1_555
H10 C13 1_555 1_555
H11 C13 1_555 1_555
C14 H12 1_555 1_555
C15 H13 1_555 1_555
C16 C15 1_555 1_555
H14 C16 1_555 1_555
N1 C3 1_555 1_555
N2 C3 1_555 1_555
N3 C13 1_555 1_555
N4 C14 1_555 1_555
O1 Zn1A 1_555 1_555
O2 C1 1_555 1_555
O3 Zn1 1_555 1_555
O4 C2 1_555 1_555
Zn1 N1 1_555 1_555
C1A C1 1_555 1_555
O1A Zn1 1_555 1_555
O2A C1A 1_555 1_555
C2A C2 1_555 1_555
O3A C2A 1_555 1_555
O4A Zn1 1_555 1_555
C3A H1A 1_555 1_555
C4A H2A 1_555 1_555
C5A C4A 1_555 1_555
H3A C5A 1_555 1_555
C6A H4A 1_555 1_555
H5A C6A 1_555 1_555
C7A C6A 1_555 1_555
C8A C7A 1_555 1_555
H6A C8A 1_555 1_555
C9A C8A 1_555 1_555
C10A C9A 1_555 1_555
H7A C10A 1_555 1_555
C11A C10A 1_555 1_555
H8A C11A 1_555 1_555
C12A C7A 1_555 1_555
H9A C12A 1_555 1_555
C13A C9A 1_555 1_555
H10A C13A 1_555 1_555
H11A C13A 1_555 1_555
C14A H12A 1_555 1_555
C15A H13A 1_555 1_555
C16A C15A 1_555 1_555
H14A C16A 1_555 1_555
N1A C3A 1_555 1_555
N2A C3A 1_555 1_555
N3A C13A 1_555 1_555
N4A C14A 1_555 1_555
Zn1A O2A 1_555 1_555
N4_2 Zn1 1_555 1_555
N4A_2 Zn1A 1_555 1_555
O3A_2 Zn1A 1_555 1_555
O4_2 Zn1A 1_555 1_555
Zn1_2 N4 1_555 1_555
Zn1A_2 N4A 1_555 1_555
Zn1A_3 O4 1_555 1_555
C4 N1 1_555 1_555
C5 N2 1_555 1_555
C6 N2 1_555 1_555
C11 C12 1_555 1_555
C14 N3 1_555 1_555
C15 N4 1_555 1_555
C16 N3 1_555 1_555
O2 Zn1 1_555 1_555
C1A O1A 1_555 1_555
C2A O4A 1_555 1_555
O3A Zn1A_3 1_555 1_555
C4A N1A 1_555 1_555
C5A N2A 1_555 1_555
C6A N2A 1_555 1_555
C11A C12A 1_555 1_555
C14A N3A 1_555 1_555
C15A N4A 1_555 1_555
C16A N3A 1_555 1_555
N1A Zn1A 1_555 1_555

#END
