
#######################################################################
#
#                 Cambridge Crystallographic Data Centre
#                                CCDC 
#
#######################################################################
#
# If this CIF has been generated from an entry in the Cambridge 
# Structural Database, then it will include bibliographic, chemical, 
# crystal, experimental, refinement or atomic coordinate data resulting 
# from the CCDC's data processing and validation procedures.
#
#######################################################################

data_PEQHUQ
_symmetry_cell_setting           tetragonal
_symmetry_space_group_name_H-M   'P 4/n n c'
_symmetry_Int_Tables_number      126
_space_group_name_Hall           '-P 4a 2bc'
loop_
_symmetry_equiv_pos_site_id
_symmetry_equiv_pos_as_xyz
1 x,y,z
2 1/2-x,1/2-y,z
3 1/2-y,x,z
4 y,1/2-x,z
5 1/2-x,y,1/2-z
6 x,1/2-y,1/2-z
7 y,x,1/2-z
8 1/2-y,1/2-x,1/2-z
9 -x,-y,-z
10 1/2+x,1/2+y,-z
11 1/2+y,-x,-z
12 -y,1/2+x,-z
13 1/2+x,-y,1/2+z
14 -x,1/2+y,1/2+z
15 -y,-x,1/2+z
16 1/2+y,1/2+x,1/2+z
_cell_length_a                   12.6672(6)
_cell_length_b                   12.6672(6)
_cell_length_c                   25.4399(18)
_cell_angle_alpha                90
_cell_angle_beta                 90
_cell_angle_gamma                90
_cell_volume                     4082.03
loop_
_atom_site_label
_atom_site_type_symbol
_atom_site_fract_x
_atom_site_fract_y
_atom_site_fract_z
Zn1 Zn 0.96052(3) 0.06672(4) 0.562588(16)
O1 O 0.8533(3) 0.0520(4) 0.61652(14)
O2 O 0.9882(3) 0.0883(3) 0.66743(15)
N1 N 1.2752(3) -0.0225(3) 0.54913(12)
N2 N 1.1302(3) -0.0270(3) 0.49992(12)
N3 N 1.1015(3) 0.0025(3) 0.55081(12)
N4 N 1.1962(3) 0.0308(4) 0.62946(14)
H1 H 1.1397 0.0483 0.6461
H2 H 1.2559 0.0305 0.6455
C1 C 0.8929(4) 0.0712(4) 0.66111(19)
C2 C 0.8178(4) 0.0731(4) 0.70713(16)
C3 C 0.8573(4) 0.0737(5) 0.7575(2)
H3 H 0.9299 0.0750 0.7628
C4 C 0.7106(4) 0.0724(5) 0.69936(18)
H4 H 0.6834 0.0711 0.6654
C5 C 1.1912(3) 0.0042(3) 0.57896(15)
C6 C 1.2321(3) -0.0399(3) 0.50111(15)
H5 H 1.2716 -0.0593 0.4718
O1D O 0.6467(3) 0.0520(4) 0.88348(14)
O2D O 0.5118(3) 0.0883(3) 0.83257(15)
C1D C 0.6071(4) 0.0712(4) 0.83889(19)
C2D C 0.6822(4) 0.0731(4) 0.79287(16)
C3D C 0.6427(4) 0.0737(5) 0.7425(2)
H3D H 0.5701 0.0750 0.7372
C4D C 0.7894(4) 0.0724(5) 0.80064(18)
H4D H 0.8166 0.0711 0.8346
Zn1B Zn 1.43328(4) -0.03948(3) 0.562588(16)
N1B N 1.5225(3) 0.2752(3) 0.54913(12)
N2B N 1.5270(3) 0.1302(3) 0.49992(12)
N3B N 1.4975(3) 0.1015(3) 0.55081(12)
N4B N 1.4692(4) 0.1962(3) 0.62946(14)
H1B H 1.4517 0.1397 0.6461
H2B H 1.4695 0.2559 0.6455
C5B C 1.4958(3) 0.1912(3) 0.57896(15)
C6B C 1.5399(3) 0.2321(3) 0.50111(15)
H5B H 1.5593 0.2716 0.4718
Zn1A Zn 1.53948(3) 0.43328(4) 0.562588(16)
Zn1D Zn 0.53948(3) 0.06672(4) 0.937412(16)
Zn1H Zn 1.03948(3) -0.06672(4) 0.437412(16)
Zn1J Zn 1.56672(4) 0.03948(3) 0.437412(16)
O1B O 1.4480(4) -0.1467(3) 0.61652(14)
N1C N 0.9775(3) 0.2248(3) 0.54913(12)
N2H N 0.8698(3) 0.0270(3) 0.50008(12)
N2J N 1.4730(3) -0.1302(3) 0.50008(12)
loop_
_geom_bond_atom_site_label_1
_geom_bond_atom_site_label_2
_geom_bond_site_symmetry_1
_geom_bond_site_symmetry_2
Zn1 O1 1_555 1_555
O1 C1 1_555 1_555
O2 C1 1_555 1_555
N1 C5 1_555 1_555
N2 N3 1_555 1_555
N3 Zn1 1_555 1_555
N4 H1 1_555 1_555
H2 N4 1_555 1_555
C1 C2 1_555 1_555
C2 C3 1_555 1_555
C3 H3 1_555 1_555
C4 C2 1_555 1_555
H4 C4 1_555 1_555
C5 N3 1_555 1_555
C6 N1 1_555 1_555
H5 C6 1_555 1_555
O1D C1D 1_555 1_555
O2D C1D 1_555 1_555
C1D C2D 1_555 1_555
C2D C3D 1_555 1_555
C3D C4 1_555 1_555
H3D C3D 1_555 1_555
C4D C3 1_555 1_555
H4D C4D 1_555 1_555
Zn1B N1 1_555 1_555
N1B C5B 1_555 1_555
N2B N3B 1_555 1_555
N3B Zn1B 1_555 1_555
N4B H1B 1_555 1_555
H2B N4B 1_555 1_555
C5B N3B 1_555 1_555
C6B N1B 1_555 1_555
H5B C6B 1_555 1_555
Zn1A N1B 1_555 1_555
Zn1D O1D 1_555 1_555
Zn1H N2 1_555 1_555
Zn1J N2B 1_555 1_555
O1B Zn1B 1_555 1_555
N1C Zn1 1_555 1_555
N2H Zn1 1_555 1_555
N2J Zn1B 1_555 1_555
N2 C6 1_555 1_555
N4 C5 1_555 1_555
C2D C4D 1_555 1_555
N2B C6B 1_555 1_555
N4B C5B 1_555 1_555

#END
