
#######################################################################
#
#                 Cambridge Crystallographic Data Centre
#                                CCDC 
#
#######################################################################
#
# If this CIF has been generated from an entry in the Cambridge 
# Structural Database, then it will include bibliographic, chemical, 
# crystal, experimental, refinement or atomic coordinate data resulting 
# from the CCDC's data processing and validation procedures.
#
#######################################################################

data_PEQJIG
_symmetry_cell_setting           monoclinic
_symmetry_space_group_name_H-M   'P 21/c'
_symmetry_Int_Tables_number      14
_space_group_name_Hall           '-P 2ybc'
loop_
_symmetry_equiv_pos_site_id
_symmetry_equiv_pos_as_xyz
1 x,y,z
2 -x,1/2+y,1/2-z
3 -x,-y,-z
4 x,1/2-y,1/2+z
_cell_length_a                   9.4275(8)
_cell_length_b                   7.9796(5)
_cell_length_c                   13.0018(9)
_cell_angle_alpha                90
_cell_angle_beta                 91.422(7)
_cell_angle_gamma                90
_cell_volume                     977.794
loop_
_atom_site_label
_atom_site_type_symbol
_atom_site_fract_x
_atom_site_fract_y
_atom_site_fract_z
Mn1 Mn 0.90021(4) 0.18220(4) 0.14887(3)
S1 S 0.98089(7) 0.28135(7) 0.39225(4)
O1 O 0.7737(2) 0.4188(2) 0.14710(15)
C1 C 0.4349(3) 0.2080(4) 0.1066(3)
H1 H 0.3742 0.2963 0.0900
O2 O 0.9063(2) 0.1716(2) 0.31623(12)
C2 C 0.6425(3) 0.4036(4) 0.0929(2)
H2 H 0.6568 0.4161 0.0196
H3 H 0.5782 0.4910 0.1145
O3 O 0.8898(2) 0.3109(2) 0.47954(13)
O4 O 1.0133(2) 0.4398(2) 0.34084(14)
C3 C 0.3813(3) 0.0496(4) 0.1235(3)
H4 H 0.2843 0.0295 0.1175
N1 N 0.6696(2) 0.1111(3) 0.13990(16)
C4 C 0.5791(3) 0.2336(3) 0.1144(2)
C5 C 0.4735(4) -0.0779(4) 0.1495(2)
H5 H 0.4399 -0.1854 0.1619
C6 C 0.6171(3) -0.0429(3) 0.1569(2)
H6 H 0.6797 -0.1291 0.1743
O5 O 1.0944(2) 0.3248(2) 0.13571(14)
O6 O 1.1132(2) 0.1987(2) 0.42810(13)
H7 H 1.113(3) 0.329(4) 0.0748(15)
H8 H 1.097(4) 0.422(3) 0.158(3)
H9 H 0.807(4) 0.510(5) 0.127(3)
Mn1A Mn 1.09979(4) 0.68220(4) 0.35113(3)
Mn1C Mn 0.90021(4) 0.31780(4) 0.64887(3)
O3C O 0.8898(2) 0.1891(2) -0.02046(13)
O4A O 0.9867(2) -0.0602(2) 0.15916(14)
loop_
_geom_bond_atom_site_label_1
_geom_bond_atom_site_label_2
_geom_bond_site_symmetry_1
_geom_bond_site_symmetry_2
Mn1 O1 1_555 1_555
S1 O2 1_555 1_555
O1 C2 1_555 1_555
C1 H1 1_555 1_555
O2 Mn1 1_555 1_555
C2 H2 1_555 1_555
H3 C2 1_555 1_555
O3 S1 1_555 1_555
O4 S1 1_555 1_555
C3 C1 1_555 1_555
H4 C3 1_555 1_555
N1 Mn1 1_555 1_555
C4 C1 1_555 1_555
C5 C3 1_555 1_555
H5 C5 1_555 1_555
C6 N1 1_555 1_555
H6 C6 1_555 1_555
O5 Mn1 1_555 1_555
O6 S1 1_555 1_555
H7 O5 1_555 1_555
H8 O5 1_555 1_555
H9 O1 1_555 1_555
Mn1A O4 1_555 1_555
Mn1C O3 1_555 1_555
O3C Mn1 1_555 1_555
O4A Mn1 1_555 1_555
C2 C4 1_555 1_555
N1 C4 1_555 1_555
C5 C6 1_555 1_555

#END
