
#######################################################################
#
#                 Cambridge Crystallographic Data Centre
#                                CCDC 
#
#######################################################################
#
# If this CIF has been generated from an entry in the Cambridge 
# Structural Database, then it will include bibliographic, chemical, 
# crystal, experimental, refinement or atomic coordinate data resulting 
# from the CCDC's data processing and validation procedures.
#
#######################################################################

data_PEQKUT
_symmetry_cell_setting           orthorhombic
_symmetry_space_group_name_H-M   'P c c n'
_symmetry_Int_Tables_number      56
_space_group_name_Hall           '-P 2ab 2ac'
loop_
_symmetry_equiv_pos_site_id
_symmetry_equiv_pos_as_xyz
1 x,y,z
2 1/2-x,1/2-y,z
3 1/2+x,-y,1/2-z
4 -x,1/2+y,1/2-z
5 -x,-y,-z
6 1/2+x,1/2+y,-z
7 1/2-x,y,1/2+z
8 x,1/2-y,1/2+z
_cell_length_a                   31.874(5)
_cell_length_b                   11.337(5)
_cell_length_c                   21.874(5)
_cell_angle_alpha                90
_cell_angle_beta                 90
_cell_angle_gamma                90
_cell_volume                     7904.29
loop_
_atom_site_label
_atom_site_type_symbol
_atom_site_fract_x
_atom_site_fract_y
_atom_site_fract_z
Cd1 Cd 0.2500 1.2500 0.07348(3)
N1 N 0.3453(2) 1.2169(7) 0.0738(3)
O1 O 0.3276(2) 1.2879(6) 0.1115(3)
O2 O 0.38208(17) 1.1877(7) 0.0804(3)
O3 O 0.32257(19) 1.1765(5) 0.0331(3)
P1 P 0.31398(4) 0.82498(10) 0.32884(6)
P2 P 0.39442(4) 0.89693(11) 0.30203(7)
P3 P 0.36957(4) 0.66836(11) 0.27794(7)
N2 N 0.34943(14) 0.9215(3) 0.3294(2)
N3 N 0.40391(14) 0.7678(4) 0.2781(2)
N4 N 0.32446(13) 0.6989(4) 0.3036(2)
O4 O 0.27272(10) 0.8777(3) 0.29775(16)
O5 O 0.29592(11) 0.8061(3) 0.39607(17)
O6 O 0.43095(11) 0.9275(3) 0.34873(18)
O7 O 0.39956(10) 0.9928(3) 0.24966(17)
O8 O 0.38980(11) 0.5609(3) 0.31441(18)
O9 O 0.36287(11) 0.6156(3) 0.21147(18)
C1 C 0.43614(16) 1.0438(5) 0.3692(3)
C2 C 0.42712(18) 1.0702(6) 0.4281(3)
H1 H 0.4160 1.0125 0.4536
C3 C 0.4344(2) 1.1828(6) 0.4507(3)
H2 H 0.4284 1.2014 0.4912
C4 C 0.4508(2) 1.2671(6) 0.4113(3)
H3 H 0.4550 1.3436 0.4253
C5 C 0.46071(18) 1.2398(5) 0.3522(3)
H4 H 0.4723 1.2979 0.3274
C6 C 0.45404(16) 1.1273(5) 0.3278(3)
C7 C 0.46441(16) 1.0988(4) 0.2655(3)
C8 C 0.50113(17) 1.1414(5) 0.2377(3)
H5 H 0.5200 1.1846 0.2611
C9 C 0.51014(17) 1.1212(6) 0.1767(3)
H6 H 0.5343 1.1525 0.1594
C10 C 0.48257(19) 1.0531(5) 0.1410(3)
H7 H 0.4884 1.0391 0.1000
C11 C 0.44697(17) 1.0076(5) 0.1673(3)
H8 H 0.4287 0.9618 0.1442
C12 C 0.43851(15) 1.0300(4) 0.2274(3)
C13 C 0.37399(15) 0.4472(4) 0.3083(3)
C14 C 0.35370(17) 0.3985(5) 0.3596(3)
H9 H 0.3493 0.4424 0.3950
C15 C 0.34041(17) 0.2811(5) 0.3551(4)
H10 H 0.3276 0.2457 0.3886
C16 C 0.34585(18) 0.2171(5) 0.3024(3)
H11 H 0.3361 0.1400 0.3001
C17 C 0.36611(17) 0.2680(4) 0.2526(3)
H12 H 0.3703 0.2233 0.2174
C18 C 0.38027(16) 0.3844(4) 0.2540(3)
C19 C 0.40316(17) 0.4381(4) 0.2019(3)
C20 C 0.43389(18) 0.3766(5) 0.1699(3)
H13 H 0.4396 0.2991 0.1811
C21 C 0.45610(19) 0.4258(5) 0.1223(3)
H14 H 0.4770 0.3833 0.1025
C22 C 0.4463(2) 0.5434(5) 0.1040(3)
H15 H 0.4600 0.5778 0.0710
C23 C 0.41632(19) 0.6053(5) 0.1358(3)
H16 H 0.4104 0.6829 0.1252
C24 C 0.39526(16) 0.5532(5) 0.1830(3)
C25 C 0.27044(16) 0.9537(4) 0.2491(2)
C26 C 0.29878(19) 0.9526(5) 0.2014(3)
H17 H 0.3215 0.9012 0.2011
C27 C 0.2919(2) 1.0321(5) 0.1535(3)
H18 H 0.3106 1.0320 0.1209
C28 C 0.23323(18) 1.1069(5) 0.2004(3)
H19 H 0.2110 1.1600 0.2007
C29 C 0.23726(17) 1.0319(4) 0.2484(3)
H20 H 0.2180 1.0332 0.2804
N5 N 0.25964(15) 1.1087(4) 0.1523(2)
C30 C 0.28551(17) 0.9054(5) 0.4310(2)
C31 C 0.2495(2) 0.9679(6) 0.4220(3)
H21 H 0.2310 0.9476 0.3909
C32 C 0.3026(2) 1.0341(6) 0.5127(3)
H22 H 0.3207 1.0563 0.5441
C33 C 0.2411(2) 1.0621(7) 0.4602(3)
H23 H 0.2163 1.1042 0.4544
C34 C 0.31353(18) 0.9404(6) 0.4763(3)
H24 H 0.3389 0.9013 0.4818
N6 N 0.26666(17) 1.0952(5) 0.5046(2)
N1A N 0.1547(2) 1.2831(7) 0.0738(3)
O1A O 0.1724(2) 1.2121(6) 0.1115(3)
O2A O 0.11792(17) 1.3123(7) 0.0804(3)
O3A O 0.17743(19) 1.3235(5) 0.0331(3)
P1A P 0.18602(4) 1.67502(10) 0.32884(6)
P2A P 0.10558(4) 1.60307(11) 0.30203(7)
P3A P 0.13043(4) 1.83164(11) 0.27794(7)
N2A N 0.15057(14) 1.5785(3) 0.3294(2)
N3A N 0.09609(14) 1.7322(4) 0.2781(2)
N4A N 0.17554(13) 1.8011(4) 0.3036(2)
O4A O 0.22728(10) 1.6223(3) 0.29775(16)
O5A O 0.20408(11) 1.6939(3) 0.39607(17)
O6A O 0.06905(11) 1.5725(3) 0.34873(18)
O7A O 0.10044(10) 1.5072(3) 0.24966(17)
O8A O 0.11020(11) 1.9391(3) 0.31441(18)
O9A O 0.13713(11) 1.8844(3) 0.21147(18)
C1A C 0.06386(16) 1.4562(5) 0.3692(3)
C2A C 0.07288(18) 1.4298(6) 0.4281(3)
H1A H 0.0840 1.4875 0.4536
C3A C 0.0656(2) 1.3172(6) 0.4507(3)
H2A H 0.0716 1.2986 0.4912
C4A C 0.0492(2) 1.2329(6) 0.4113(3)
H3A H 0.0450 1.1564 0.4253
C5A C 0.03929(18) 1.2602(5) 0.3522(3)
H4A H 0.0277 1.2021 0.3274
C6A C 0.04596(16) 1.3727(5) 0.3278(3)
C7A C 0.03559(16) 1.4012(4) 0.2655(3)
C8A C -0.00113(17) 1.3586(5) 0.2377(3)
H5A H -0.0200 1.3154 0.2611
C9A C -0.01014(17) 1.3788(6) 0.1767(3)
H6A H -0.0343 1.3475 0.1594
C10A C 0.01743(19) 1.4469(5) 0.1410(3)
H7A H 0.0116 1.4609 0.1000
C11A C 0.05303(17) 1.4924(5) 0.1673(3)
H8A H 0.0713 1.5382 0.1442
C12A C 0.06149(15) 1.4700(4) 0.2274(3)
C13A C 0.12601(15) 2.0528(4) 0.3083(3)
C14A C 0.14630(17) 2.1015(5) 0.3596(3)
H9A H 0.1507 2.0576 0.3950
C15A C 0.15959(17) 2.2189(5) 0.3551(4)
H10A H 0.1724 2.2543 0.3886
C16A C 0.15415(18) 2.2829(5) 0.3024(3)
H11A H 0.1639 2.3600 0.3001
C17A C 0.13389(17) 2.2320(4) 0.2526(3)
H12A H 0.1297 2.2767 0.2174
C18A C 0.11973(16) 2.1156(4) 0.2540(3)
C19A C 0.09684(17) 2.0619(4) 0.2019(3)
C20A C 0.06611(18) 2.1234(5) 0.1699(3)
H13A H 0.0604 2.2009 0.1811
C21A C 0.04390(19) 2.0742(5) 0.1223(3)
H14A H 0.0230 2.1167 0.1025
C22A C 0.0537(2) 1.9566(5) 0.1040(3)
H15A H 0.0400 1.9222 0.0710
C23A C 0.08368(19) 1.8947(5) 0.1358(3)
H16A H 0.0896 1.8171 0.1252
C24A C 0.10474(16) 1.9468(5) 0.1830(3)
C25A C 0.22956(16) 1.5463(4) 0.2491(2)
C26A C 0.20122(19) 1.5474(5) 0.2014(3)
H17A H 0.1785 1.5988 0.2011
C27A C 0.2081(2) 1.4679(5) 0.1535(3)
H18A H 0.1894 1.4680 0.1209
C28A C 0.26677(18) 1.3931(5) 0.2004(3)
H19A H 0.2890 1.3400 0.2007
C29A C 0.26274(17) 1.4681(4) 0.2484(3)
H20A H 0.2820 1.4668 0.2804
N5A N 0.24036(15) 1.3913(4) 0.1523(2)
C30A C 0.21449(17) 1.5946(5) 0.4310(2)
C31A C 0.2505(2) 1.5321(6) 0.4220(3)
H21A H 0.2690 1.5524 0.3909
C32A C 0.1974(2) 1.4659(6) 0.5127(3)
H22A H 0.1793 1.4437 0.5441
C33A C 0.2589(2) 1.4379(7) 0.4602(3)
H23A H 0.2837 1.3958 0.4544
C34A C 0.18647(18) 1.5596(6) 0.4763(3)
H24A H 0.1611 1.5987 0.4818
N6A N 0.23334(17) 1.4048(5) 0.5046(2)
Cd1F Cd 0.2500 1.2500 0.57348(3)
N6F N 0.23334(17) 1.0952(5) 0.0046(2)
N6G N 0.26666(17) 1.4048(5) 0.0046(2)
C35 C 0.2500 0.7500 0.0855(6)
H25 H 0.2635 0.8080 0.0595
Cl1 Cl 0.28793(8) 0.6803(2) 0.13204(12)
H25A H 0.2365 0.6920 0.0595
Cl1A Cl 0.21207(8) 0.8197(2) 0.13204(12)
H26? H 0.2635 0.8080 0.0595
loop_
_geom_bond_atom_site_label_1
_geom_bond_atom_site_label_2
_geom_bond_site_symmetry_1
_geom_bond_site_symmetry_2
Cd1 O1 1_555 1_555
N1 O1 1_555 1_555
O2 N1 1_555 1_555
O3 Cd1 1_555 1_555
P1 N2 1_555 1_555
P2 N2 1_555 1_555
P3 N3 1_555 1_555
N3 P2 1_555 1_555
N4 P1 1_555 1_555
O4 P1 1_555 1_555
O5 P1 1_555 1_555
O6 P2 1_555 1_555
O7 P2 1_555 1_555
O8 P3 1_555 1_555
O9 P3 1_555 1_555
C1 O6 1_555 1_555
C2 C1 1_555 1_555
H1 C2 1_555 1_555
C3 C2 1_555 1_555
H2 C3 1_555 1_555
C4 C3 1_555 1_555
H3 C4 1_555 1_555
C5 C4 1_555 1_555
H4 C5 1_555 1_555
C6 C1 1_555 1_555
C7 C6 1_555 1_555
C8 C7 1_555 1_555
H5 C8 1_555 1_555
C9 C8 1_555 1_555
H6 C9 1_555 1_555
C10 C9 1_555 1_555
H7 C10 1_555 1_555
C11 C10 1_555 1_555
H8 C11 1_555 1_555
C12 O7 1_555 1_555
C13 O8 1_555 1_555
C14 C13 1_555 1_555
H9 C14 1_555 1_555
C15 C14 1_555 1_555
H10 C15 1_555 1_555
C16 C15 1_555 1_555
H11 C16 1_555 1_555
C17 C16 1_555 1_555
H12 C17 1_555 1_555
C18 C13 1_555 1_555
C19 C18 1_555 1_555
C20 C19 1_555 1_555
H13 C20 1_555 1_555
C21 C20 1_555 1_555
H14 C21 1_555 1_555
C22 C21 1_555 1_555
H15 C22 1_555 1_555
C23 C22 1_555 1_555
H16 C23 1_555 1_555
C24 O9 1_555 1_555
C25 O4 1_555 1_555
C26 C25 1_555 1_555
H17 C26 1_555 1_555
C27 C26 1_555 1_555
H18 C27 1_555 1_555
C28 H19 1_555 1_555
C29 C25 1_555 1_555
H20 C29 1_555 1_555
N5 Cd1 1_555 1_555
C30 O5 1_555 1_555
C31 C30 1_555 1_555
H21 C31 1_555 1_555
C32 H22 1_555 1_555
C33 C31 1_555 1_555
H23 C33 1_555 1_555
C34 C30 1_555 1_555
H24 C34 1_555 1_555
N6 C32 1_555 1_555
C35 H25 1_555 1_555
Cl1 C35 1_555 1_555
N1A O1A 1_555 1_555
O1A Cd1 1_555 1_555
O2A N1A 1_555 1_555
O3A Cd1 1_555 1_555
P1A N2A 1_555 1_555
P2A N2A 1_555 1_555
P3A N3A 1_555 1_555
N3A P2A 1_555 1_555
N4A P1A 1_555 1_555
O4A P1A 1_555 1_555
O5A P1A 1_555 1_555
O6A P2A 1_555 1_555
O7A P2A 1_555 1_555
O8A P3A 1_555 1_555
O9A P3A 1_555 1_555
C1A O6A 1_555 1_555
C2A C1A 1_555 1_555
H1A C2A 1_555 1_555
C3A C2A 1_555 1_555
H2A C3A 1_555 1_555
C4A C3A 1_555 1_555
H3A C4A 1_555 1_555
C5A C4A 1_555 1_555
H4A C5A 1_555 1_555
C6A C1A 1_555 1_555
C7A C6A 1_555 1_555
C8A C7A 1_555 1_555
H5A C8A 1_555 1_555
C9A C8A 1_555 1_555
H6A C9A 1_555 1_555
C10A C9A 1_555 1_555
H7A C10A 1_555 1_555
C11A C10A 1_555 1_555
H8A C11A 1_555 1_555
C12A O7A 1_555 1_555
C13A O8A 1_555 1_555
C14A C13A 1_555 1_555
H9A C14A 1_555 1_555
C15A C14A 1_555 1_555
H10A C15A 1_555 1_555
C16A C15A 1_555 1_555
H11A C16A 1_555 1_555
C17A C16A 1_555 1_555
H12A C17A 1_555 1_555
C18A C13A 1_555 1_555
C19A C18A 1_555 1_555
C20A C19A 1_555 1_555
H13A C20A 1_555 1_555
C21A C20A 1_555 1_555
H14A C21A 1_555 1_555
C22A C21A 1_555 1_555
H15A C22A 1_555 1_555
C23A C22A 1_555 1_555
H16A C23A 1_555 1_555
C24A O9A 1_555 1_555
C25A O4A 1_555 1_555
C26A C25A 1_555 1_555
H17A C26A 1_555 1_555
C27A C26A 1_555 1_555
H18A C27A 1_555 1_555
C28A H19A 1_555 1_555
C29A C25A 1_555 1_555
H20A C29A 1_555 1_555
N5A Cd1 1_555 1_555
C30A O5A 1_555 1_555
C31A C30A 1_555 1_555
H21A C31A 1_555 1_555
C32A H22A 1_555 1_555
C33A C31A 1_555 1_555
H23A C33A 1_555 1_555
C34A C30A 1_555 1_555
H24A C34A 1_555 1_555
N6A C32A 1_555 1_555
Cd1F N6 1_555 1_555
N6F Cd1 1_555 1_555
N6G Cd1 1_555 1_555
H25A C35 1_555 1_555
Cl1A C35 1_555 1_555
N1 O3 1_555 1_555
P3 N4 1_555 1_555
C5 C6 1_555 1_555
C7 C12 1_555 1_555
C11 C12 1_555 1_555
C17 C18 1_555 1_555
C19 C24 1_555 1_555
C23 C24 1_555 1_555
C27 N5 1_555 1_555
C28 C29 1_555 1_555
C28 N5 1_555 1_555
C32 C34 1_555 1_555
C33 N6 1_555 1_555
N1A O3A 1_555 1_555
P3A N4A 1_555 1_555
C5A C6A 1_555 1_555
C7A C12A 1_555 1_555
C11A C12A 1_555 1_555
C17A C18A 1_555 1_555
C19A C24A 1_555 1_555
C23A C24A 1_555 1_555
C27A N5A 1_555 1_555
C28A C29A 1_555 1_555
C28A N5A 1_555 1_555
C32A C34A 1_555 1_555
C33A N6A 1_555 1_555
N6A Cd1F 1_555 1_555

#END
