
#######################################################################
#
#                 Cambridge Crystallographic Data Centre
#                                CCDC 
#
#######################################################################
#
# If this CIF has been generated from an entry in the Cambridge 
# Structural Database, then it will include bibliographic, chemical, 
# crystal, experimental, refinement or atomic coordinate data resulting 
# from the CCDC's data processing and validation procedures.
#
#######################################################################

data_PEQLAA
_symmetry_cell_setting           monoclinic
_symmetry_space_group_name_H-M   'P 21/c'
_symmetry_Int_Tables_number      14
_space_group_name_Hall           '-P 2ybc'
loop_
_symmetry_equiv_pos_site_id
_symmetry_equiv_pos_as_xyz
1 x,y,z
2 -x,1/2+y,1/2-z
3 -x,-y,-z
4 x,1/2-y,1/2+z
_cell_length_a                   11.299(4)
_cell_length_b                   21.076(8)
_cell_length_c                   15.289(6)
_cell_angle_alpha                90
_cell_angle_beta                 92.992(7)
_cell_angle_gamma                90
_cell_volume                     3635.92
loop_
_atom_site_label
_atom_site_type_symbol
_atom_site_fract_x
_atom_site_fract_y
_atom_site_fract_z
C1 C 0.8806(4) 0.2056(2) 0.4038(3)
C2 C 0.9274(4) 0.1965(2) 0.4873(3)
H1 H 0.9361 0.2308 0.5275
C3 C 0.9611(4) 0.1362(2) 0.5108(3)
H2 H 0.9969 0.1301 0.5678
C4 C 0.9006(4) 0.0962(2) 0.3790(4)
H3 H 0.8899 0.0609 0.3408
C5 C 0.8671(4) 0.1549(2) 0.3481(3)
H4 H 0.8355 0.1603 0.2897
C6 C 0.8348(4) 0.4026(2) 0.2877(3)
C7 C 0.7615(4) 0.4265(2) 0.2205(3)
H5 H 0.6782 0.4203 0.2203
C8 C 0.8105(4) 0.4589(2) 0.1549(3)
H6 H 0.7592 0.4752 0.1091
C9 C 0.9973(4) 0.4459(2) 0.2168(3)
H7 H 1.0803 0.4528 0.2156
C10 C 0.9562(4) 0.4125(2) 0.2862(3)
H8 H 1.0089 0.3967 0.3316
C11 C 1.1403(4) 0.4429(2) 0.5949(3)
C12 C 1.1762(4) 0.4836(2) 0.5317(3)
H9 H 1.1211 0.4989 0.4875
C13 C 1.2942(4) 0.5023(2) 0.5330(4)
H10 H 1.3209 0.5299 0.4891
C14 C 1.3725(4) 0.4803(2) 0.5987(4)
H11 H 1.4528 0.4938 0.6007
C15 C 1.3352(4) 0.4394(2) 0.6607(4)
H12 H 1.3902 0.4248 0.7053
C16 C 1.2159(4) 0.4183(2) 0.6598(3)
C17 C 1.1813(4) 0.3703(2) 0.7228(3)
C18 C 1.2181(4) 0.3711(2) 0.8103(3)
H13 H 1.2617 0.4065 0.8331
C19 C 1.1933(4) 0.3219(2) 0.8653(3)
H14 H 1.2195 0.3238 0.9253
C20 C 1.1301(4) 0.2696(2) 0.8336(3)
H15 H 1.1142 0.2353 0.8716
C21 C 1.0906(4) 0.2676(2) 0.7472(3)
H16 H 1.0469 0.2321 0.7251
C22 C 1.1149(4) 0.3176(2) 0.6929(3)
C23 C 0.6086(4) 0.3771(2) 0.7008(3)
C24 C 0.6371(4) 0.4350(3) 0.7383(4)
H17 H 0.6759 0.4667 0.7062
C25 C 0.6082(4) 0.4458(3) 0.8227(4)
H18 H 0.6262 0.4854 0.8499
C26 C 0.5525(4) 0.3987(3) 0.8685(4)
H19 H 0.5328 0.4062 0.9272
C27 C 0.5255(4) 0.3412(3) 0.8300(3)
H20 H 0.4875 0.3094 0.8627
C28 C 0.5527(4) 0.3287(2) 0.7440(3)
C29 C 0.5197(4) 0.2692(2) 0.6997(3)
C30 C 0.4075(4) 0.2416(3) 0.7067(4)
H21 H 0.3517 0.2615 0.7423
C31 C 0.3768(5) 0.1865(3) 0.6632(4)
H22 H 0.3010 0.1683 0.6702
C32 C 0.4540(5) 0.1577(3) 0.6100(4)
H23 H 0.4309 0.1202 0.5791
C33 C 0.5666(4) 0.1831(2) 0.6008(3)
H24 H 0.6215 0.1633 0.5646
C34 C 0.5952(4) 0.2375(2) 0.6457(3)
Cl1 Cl 1.18746(11) 0.04269(6) 0.53909(9)
Cu1 Cu 1.0000 0.0000 0.5000
N1 N 0.9518(3) 0.34915(18) 0.4710(3)
N2 N 0.8592(3) 0.35045(19) 0.6289(3)
N3 N 0.7247(3) 0.31274(18) 0.4883(3)
N4 N 0.9472(3) 0.08576(18) 0.4597(3)
N5 N 0.9285(4) 0.46947(19) 0.1509(3)
O1 O 0.8510(3) 0.26493(15) 0.3693(2)
O2 O 0.7801(3) 0.37148(15) 0.3536(2)
O3 O 1.0184(3) 0.42830(15) 0.5959(2)
O4 O 1.0757(2) 0.31465(14) 0.6047(2)
O5 O 0.6307(2) 0.36860(15) 0.6119(2)
O6 O 0.7124(3) 0.26134(15) 0.6417(2)
P1 P 0.82998(10) 0.32563(6) 0.42727(9)
P2 P 0.96940(10) 0.35987(6) 0.57272(9)
P3 P 0.73708(10) 0.32368(6) 0.58899(9)
C1B C 1.1194(4) -0.2056(2) 0.5962(3)
C2B C 1.0726(4) -0.1965(2) 0.5127(3)
H1B H 1.0639 -0.2308 0.4725
C3B C 1.0389(4) -0.1362(2) 0.4892(3)
H2B H 1.0031 -0.1301 0.4322
C4B C 1.0994(4) -0.0962(2) 0.6210(4)
H3B H 1.1101 -0.0609 0.6592
C5B C 1.1329(4) -0.1549(2) 0.6519(3)
H4B H 1.1645 -0.1603 0.7103
C6B C 1.1652(4) -0.4026(2) 0.7123(3)
C7B C 1.2385(4) -0.4265(2) 0.7795(3)
H5B H 1.3218 -0.4203 0.7797
C8B C 1.1895(4) -0.4589(2) 0.8451(3)
H6B H 1.2408 -0.4752 0.8909
C9B C 1.0027(4) -0.4459(2) 0.7832(3)
H7B H 0.9197 -0.4528 0.7844
C10B C 1.0438(4) -0.4125(2) 0.7138(3)
H8B H 0.9911 -0.3967 0.6684
C11B C 0.8597(4) -0.4429(2) 0.4051(3)
C12B C 0.8238(4) -0.4836(2) 0.4683(3)
H9B H 0.8789 -0.4989 0.5125
C13B C 0.7058(4) -0.5023(2) 0.4670(4)
H10B H 0.6791 -0.5299 0.5109
C14B C 0.6275(4) -0.4803(2) 0.4013(4)
H11B H 0.5472 -0.4938 0.3993
C15B C 0.6648(4) -0.4394(2) 0.3393(4)
H12B H 0.6098 -0.4248 0.2947
C16B C 0.7841(4) -0.4183(2) 0.3402(3)
C17B C 0.8187(4) -0.3703(2) 0.2772(3)
C18B C 0.7819(4) -0.3711(2) 0.1897(3)
H13B H 0.7383 -0.4065 0.1669
C19B C 0.8067(4) -0.3219(2) 0.1347(3)
H14B H 0.7805 -0.3238 0.0747
C20B C 0.8699(4) -0.2696(2) 0.1664(3)
H15B H 0.8858 -0.2353 0.1284
C21B C 0.9094(4) -0.2676(2) 0.2528(3)
H16B H 0.9531 -0.2321 0.2749
C22B C 0.8851(4) -0.3176(2) 0.3071(3)
C23B C 1.3914(4) -0.3771(2) 0.2992(3)
C24B C 1.3629(4) -0.4350(3) 0.2617(4)
H17B H 1.3241 -0.4667 0.2938
C25B C 1.3918(4) -0.4458(3) 0.1773(4)
H18B H 1.3738 -0.4854 0.1501
C26B C 1.4475(4) -0.3987(3) 0.1315(4)
H19B H 1.4672 -0.4062 0.0728
C27B C 1.4745(4) -0.3412(3) 0.1700(3)
H20B H 1.5125 -0.3094 0.1373
C28B C 1.4473(4) -0.3287(2) 0.2560(3)
C29B C 1.4803(4) -0.2692(2) 0.3003(3)
C30B C 1.5925(4) -0.2416(3) 0.2933(4)
H21B H 1.6483 -0.2615 0.2577
C31B C 1.6232(5) -0.1865(3) 0.3368(4)
H22B H 1.6990 -0.1683 0.3298
C32B C 1.5460(5) -0.1577(3) 0.3900(4)
H23B H 1.5691 -0.1202 0.4209
C33B C 1.4334(4) -0.1831(2) 0.3992(3)
H24B H 1.3785 -0.1633 0.4354
C34B C 1.4048(4) -0.2375(2) 0.3543(3)
Cl1B Cl 0.81254(11) -0.04269(6) 0.46091(9)
N1B N 1.0482(3) -0.34915(18) 0.5290(3)
N2B N 1.1408(3) -0.35045(19) 0.3711(3)
N3B N 1.2753(3) -0.31274(18) 0.5117(3)
N4B N 1.0528(3) -0.08576(18) 0.5403(3)
N5B N 1.0715(4) -0.46947(19) 0.8491(3)
O1B O 1.1490(3) -0.26493(15) 0.6307(2)
O2B O 1.2199(3) -0.37148(15) 0.6464(2)
O3B O 0.9816(3) -0.42830(15) 0.4041(2)
O4B O 0.9243(2) -0.31465(14) 0.3953(2)
O5B O 1.3693(2) -0.36860(15) 0.3881(2)
O6B O 1.2876(3) -0.26134(15) 0.3583(2)
P1B P 1.17002(10) -0.32563(6) 0.57273(9)
P2B P 1.03060(10) -0.35987(6) 0.42728(9)
P3B P 1.26292(10) -0.32368(6) 0.41101(9)
Cu1A Cu 1.0000 -0.5000 1.0000
Cu1A_2 Cu 1.0000 0.5000 0.0000
N5A N 1.0715(4) -0.03053(19) 0.3491(3)
N5C N 0.9285(4) 0.03053(19) 0.6509(3)
C35 C 0.4750(4) 0.1314(3) 0.8777(4)
H25 H 0.4636 0.1025 0.8277
H26 H 0.5265 0.1111 0.9232
H27 H 0.5120 0.1707 0.8586
C36 C 0.3604(5) 0.1873(3) 0.9869(4)
H28 H 0.2792 0.1918 1.0056
H29 H 0.3909 0.2290 0.9708
H30 H 0.4107 0.1696 1.0350
C37 C 0.2615(4) 0.1160(3) 0.8815(4)
H31 H 0.1901 0.1259 0.9087
N6 N 0.3611(4) 0.1457(2) 0.9127(3)
O7 O 0.2551(3) 0.07819(18) 0.8225(3)
loop_
_geom_bond_atom_site_label_1
_geom_bond_atom_site_label_2
_geom_bond_site_symmetry_1
_geom_bond_site_symmetry_2
C1 C2 1_555 1_555
C2 H1 1_555 1_555
C3 C2 1_555 1_555
H2 C3 1_555 1_555
C4 H3 1_555 1_555
C5 C1 1_555 1_555
H4 C5 1_555 1_555
C6 C7 1_555 1_555
C7 H5 1_555 1_555
C8 C7 1_555 1_555
H6 C8 1_555 1_555
C9 H7 1_555 1_555
C10 C6 1_555 1_555
H8 C10 1_555 1_555
C11 C12 1_555 1_555
C12 H9 1_555 1_555
C13 C12 1_555 1_555
H10 C13 1_555 1_555
C14 C13 1_555 1_555
H11 C14 1_555 1_555
C15 C14 1_555 1_555
H12 C15 1_555 1_555
C16 C11 1_555 1_555
C17 C16 1_555 1_555
C18 C17 1_555 1_555
H13 C18 1_555 1_555
C19 C18 1_555 1_555
H14 C19 1_555 1_555
C20 C19 1_555 1_555
H15 C20 1_555 1_555
C21 C20 1_555 1_555
H16 C21 1_555 1_555
C22 C17 1_555 1_555
C23 C24 1_555 1_555
C24 H17 1_555 1_555
C25 C24 1_555 1_555
H18 C25 1_555 1_555
C26 C25 1_555 1_555
H19 C26 1_555 1_555
C27 C26 1_555 1_555
H20 C27 1_555 1_555
C28 C23 1_555 1_555
C29 C28 1_555 1_555
C30 C29 1_555 1_555
H21 C30 1_555 1_555
C31 C30 1_555 1_555
H22 C31 1_555 1_555
C32 C31 1_555 1_555
H23 C32 1_555 1_555
C33 C32 1_555 1_555
H24 C33 1_555 1_555
C34 C29 1_555 1_555
Cl1 Cu1 1_555 1_555
Cu1 N4 1_555 1_555
N1 P1 1_555 1_555
N2 P2 1_555 1_555
N3 P1 1_555 1_555
N4 C3 1_555 1_555
N5 C8 1_555 1_555
O1 C1 1_555 1_555
O2 C6 1_555 1_555
O3 C11 1_555 1_555
O4 C22 1_555 1_555
O5 C23 1_555 1_555
O6 C34 1_555 1_555
P1 O1 1_555 1_555
P2 N1 1_555 1_555
P3 N2 1_555 1_555
C35 H25 1_555 1_555
H26 C35 1_555 1_555
H27 C35 1_555 1_555
C36 H28 1_555 1_555
H29 C36 1_555 1_555
H30 C36 1_555 1_555
C37 H31 1_555 1_555
N6 C35 1_555 1_555
O7 C37 1_555 1_555
C1B C2B 1_555 1_555
C2B H1B 1_555 1_555
C3B C2B 1_555 1_555
H2B C3B 1_555 1_555
C4B H3B 1_555 1_555
C5B C1B 1_555 1_555
H4B C5B 1_555 1_555
C6B C7B 1_555 1_555
C7B H5B 1_555 1_555
C8B C7B 1_555 1_555
H6B C8B 1_555 1_555
C9B H7B 1_555 1_555
C10B C6B 1_555 1_555
H8B C10B 1_555 1_555
C11B C12B 1_555 1_555
C12B H9B 1_555 1_555
C13B C12B 1_555 1_555
H10B C13B 1_555 1_555
C14B C13B 1_555 1_555
H11B C14B 1_555 1_555
C15B C14B 1_555 1_555
H12B C15B 1_555 1_555
C16B C11B 1_555 1_555
C17B C16B 1_555 1_555
C18B C17B 1_555 1_555
H13B C18B 1_555 1_555
C19B C18B 1_555 1_555
H14B C19B 1_555 1_555
C20B C19B 1_555 1_555
H15B C20B 1_555 1_555
C21B C20B 1_555 1_555
H16B C21B 1_555 1_555
C22B C17B 1_555 1_555
C23B C24B 1_555 1_555
C24B H17B 1_555 1_555
C25B C24B 1_555 1_555
H18B C25B 1_555 1_555
C26B C25B 1_555 1_555
H19B C26B 1_555 1_555
C27B C26B 1_555 1_555
H20B C27B 1_555 1_555
C28B C23B 1_555 1_555
C29B C28B 1_555 1_555
C30B C29B 1_555 1_555
H21B C30B 1_555 1_555
C31B C30B 1_555 1_555
H22B C31B 1_555 1_555
C32B C31B 1_555 1_555
H23B C32B 1_555 1_555
C33B C32B 1_555 1_555
H24B C33B 1_555 1_555
C34B C29B 1_555 1_555
Cl1B Cu1 1_555 1_555
N1B P1B 1_555 1_555
N2B P2B 1_555 1_555
N3B P1B 1_555 1_555
N4B Cu1 1_555 1_555
N5B C8B 1_555 1_555
O1B C1B 1_555 1_555
O2B C6B 1_555 1_555
O3B C11B 1_555 1_555
O4B C22B 1_555 1_555
O5B C23B 1_555 1_555
O6B C34B 1_555 1_555
P1B O1B 1_555 1_555
P2B N1B 1_555 1_555
P3B N2B 1_555 1_555
Cu1A N5B 1_555 1_555
Cu1A_2 N5 1_555 1_555
N5A Cu1 1_555 1_555
N5C Cu1 1_555 1_555
C4 C5 1_555 1_555
C4 N4 1_555 1_555
C9 C10 1_555 1_555
C9 N5 1_555 1_555
C15 C16 1_555 1_555
C21 C22 1_555 1_555
C27 C28 1_555 1_555
C33 C34 1_555 1_555
N3 P3 1_555 1_555
O2 P1 1_555 1_555
O3 P2 1_555 1_555
O4 P2 1_555 1_555
O5 P3 1_555 1_555
O6 P3 1_555 1_555
C36 N6 1_555 1_555
C37 N6 1_555 1_555
C3B N4B 1_555 1_555
C4B C5B 1_555 1_555
C4B N4B 1_555 1_555
C9B C10B 1_555 1_555
C9B N5B 1_555 1_555
C15B C16B 1_555 1_555
C21B C22B 1_555 1_555
C27B C28B 1_555 1_555
C33B C34B 1_555 1_555
N3B P3B 1_555 1_555
O2B P1B 1_555 1_555
O3B P2B 1_555 1_555
O4B P2B 1_555 1_555
O5B P3B 1_555 1_555
O6B P3B 1_555 1_555

#END
