
#######################################################################
#
#                 Cambridge Crystallographic Data Centre
#                                CCDC 
#
#######################################################################
#
# If this CIF has been generated from an entry in the Cambridge 
# Structural Database, then it will include bibliographic, chemical, 
# crystal, experimental, refinement or atomic coordinate data resulting 
# from the CCDC's data processing and validation procedures.
#
#######################################################################

data_PEQLEE
_symmetry_cell_setting           monoclinic
_symmetry_space_group_name_H-M   'C 2/c'
_symmetry_Int_Tables_number      15
_space_group_name_Hall           '-C 2yn'
loop_
_symmetry_equiv_pos_site_id
_symmetry_equiv_pos_as_xyz
1 x,y,z
2 -x,y,1/2-z
3 1/2+x,1/2+y,z
4 1/2-x,1/2+y,1/2-z
5 -x,-y,-z
6 x,-y,1/2+z
7 1/2-x,1/2-y,-z
8 1/2+x,1/2-y,1/2+z
_cell_length_a                   35.470(7)
_cell_length_b                   11.331(2)
_cell_length_c                   24.468(5)
_cell_angle_alpha                90
_cell_angle_beta                 104.74(3)
_cell_angle_gamma                90
_cell_volume                     9510.32
loop_
_atom_site_label
_atom_site_type_symbol
_atom_site_fract_x
_atom_site_fract_y
_atom_site_fract_z
C1 C 0.63558(15) 1.3321(5) 0.7612(2)
C2 C 0.61908(18) 1.3793(5) 0.8042(3)
H1 H 0.6163 1.3331 0.8344
C3 C 0.6075(2) 1.4953(6) 0.7992(3)
H2 H 0.5976 1.5311 0.8268
C4 C 0.61103(19) 1.5585(6) 0.7514(4)
H3 H 0.6023 1.6362 0.7468
C5 C 0.62659(19) 1.5099(5) 0.7126(3)
H4 H 0.6288 1.5550 0.6818
C6 C 0.63953(15) 1.3950(5) 0.7167(3)
C7 C 0.65721(16) 1.3417(5) 0.6726(2)
C8 C 0.6849(2) 1.4032(6) 0.6540(3)
H5 H 0.6926 1.4783 0.6678
C9 C 0.7014(2) 1.3493(8) 0.6132(4)
H6 H 0.7191 1.3926 0.5991
C10 C 0.6926(2) 1.2375(7) 0.5934(3)
H7 H 0.7041 1.2037 0.5669
C11 C 0.66465(18) 1.1751(6) 0.6157(2)
H8 H 0.6580 1.0977 0.6046
C12 C 0.64802(15) 1.2283(5) 0.6528(2)
C13 C 0.69094(13) 0.7521(4) 0.7077(2)
C14 C 0.69550(16) 0.7708(5) 0.6549(2)
H9 H 0.6765 0.8126 0.6289
C15 C 0.72711(17) 0.7298(6) 0.6397(3)
H10 H 0.7300 0.7431 0.6034
C16 C 0.75455(19) 0.6690(7) 0.6780(3)
H11 H 0.7764 0.6402 0.6679
C17 C 0.75033(15) 0.6497(6) 0.7310(3)
H12 H 0.7694 0.6082 0.7570
C18 C 0.71765(14) 0.6916(4) 0.7469(2)
C19 C 0.71114(15) 0.6631(5) 0.8027(2)
C20 C 0.71949(17) 0.5479(6) 0.8290(3)
H13 H 0.7297 0.4898 0.8100
C21 C 0.7134(2) 0.5215(8) 0.8785(3)
H14 H 0.7174 0.4449 0.8924
C22 C 0.7010(2) 0.6081(9) 0.9094(4)
H15 H 0.6986 0.5914 0.9455
C23 C 0.69219(18) 0.7208(7) 0.8868(3)
H16 H 0.6830 0.7784 0.9072
C24 C 0.69707(15) 0.7455(6) 0.8354(2)
C25 C 0.53627(13) 0.8612(5) 0.69026(18)
C26 C 0.52673(17) 0.7455(5) 0.6829(2)
H17 H 0.5245 0.6997 0.7134
C27 C 0.53875(13) 0.9269(4) 0.64444(17)
H18 H 0.5442 1.0071 0.6493
C28 C 0.52457(18) 0.7656(5) 0.5854(2)
H19 H 0.5211 0.7326 0.5496
C29 C 0.52030(19) 0.6956(6) 0.6292(2)
H20 H 0.5133 0.6166 0.6233
C30 C 0.57432(14) 0.9254(4) 0.87899(18)
C31 C 0.56327(14) 0.9852(4) 0.92144(19)
H21 H 0.5556 1.0637 0.9158
C32 C 0.57584(18) 0.8225(5) 0.9792(2)
H22 H 0.5771 0.7853 1.0135
C33 C 0.5871(2) 0.7622(6) 0.9368(3)
H23 H 0.5955 0.6845 0.9431
C34 C 0.58615(18) 0.8130(5) 0.8864(2)
H24 H 0.5935 0.7714 0.8580
Cl1 Cl 0.60332(4) 1.13055(15) 1.04423(7)
Cl2 Cl 0.50928(4) 0.87139(11) 1.04659(5)
Cu1 Cu 0.547705(18) 1.02539(6) 1.03123(2)
N1 N 0.66109(11) 1.0125(3) 0.74257(18)
N2 N 0.61483(10) 0.8656(3) 0.78035(15)
N3 N 0.58926(11) 1.0836(3) 0.74492(16)
N4 N 0.53364(12) 0.8802(4) 0.59277(16)
N5 N 0.56333(12) 0.9324(4) 0.97127(16)
O1 O 0.65073(10) 1.2173(3) 0.77060(14)
O2 O 0.61948(9) 1.1649(3) 0.67168(12)
O3 O 0.65536(8) 0.7877(3) 0.71946(12)
O4 O 0.69069(9) 0.8608(3) 0.81396(13)
O5 O 0.54139(8) 0.9092(3) 0.74320(12)
O6 O 0.57304(10) 0.9966(3) 0.83200(13)
P1 P 0.62977(4) 1.11305(11) 0.73353(5)
P2 P 0.65421(4) 0.88677(11) 0.76352(5)
P3 P 0.58259(4) 0.96348(12) 0.77412(5)
Cl2D Cl 0.49072(4) 1.12861(11) 0.95341(5)
Cu1D Cu 0.452295(18) 0.97461(6) 0.96877(2)
Cu1E Cu 0.547705(18) 0.97461(6) 0.53123(2)
N4E N 0.53364(12) 1.1198(4) 1.09277(16)
loop_
_geom_bond_atom_site_label_1
_geom_bond_atom_site_label_2
_geom_bond_site_symmetry_1
_geom_bond_site_symmetry_2
C1 C2 1_555 1_555
C2 H1 1_555 1_555
C3 C2 1_555 1_555
H2 C3 1_555 1_555
C4 C3 1_555 1_555
H3 C4 1_555 1_555
C5 C4 1_555 1_555
H4 C5 1_555 1_555
C6 C1 1_555 1_555
C7 C6 1_555 1_555
C8 C7 1_555 1_555
H5 C8 1_555 1_555
C9 C8 1_555 1_555
H6 C9 1_555 1_555
C10 C9 1_555 1_555
H7 C10 1_555 1_555
C11 C10 1_555 1_555
H8 C11 1_555 1_555
C12 C7 1_555 1_555
C13 C14 1_555 1_555
C14 H9 1_555 1_555
C15 C14 1_555 1_555
H10 C15 1_555 1_555
C16 C15 1_555 1_555
H11 C16 1_555 1_555
C17 C16 1_555 1_555
H12 C17 1_555 1_555
C18 C13 1_555 1_555
C19 C18 1_555 1_555
C20 C19 1_555 1_555
H13 C20 1_555 1_555
C21 C20 1_555 1_555
H14 C21 1_555 1_555
C22 C21 1_555 1_555
H15 C22 1_555 1_555
C23 C22 1_555 1_555
H16 C23 1_555 1_555
C24 C19 1_555 1_555
C25 C26 1_555 1_555
C26 H17 1_555 1_555
C27 C25 1_555 1_555
H18 C27 1_555 1_555
C28 H19 1_555 1_555
C29 C26 1_555 1_555
H20 C29 1_555 1_555
C30 C31 1_555 1_555
C31 H21 1_555 1_555
C32 H22 1_555 1_555
C33 C32 1_555 1_555
H23 C33 1_555 1_555
C34 C30 1_555 1_555
H24 C34 1_555 1_555
Cl1 Cu1 1_555 1_555
Cl2 Cu1 1_555 1_555
Cu1 N5 1_555 1_555
N1 P1 1_555 1_555
N2 P2 1_555 1_555
N3 P1 1_555 1_555
N4 C27 1_555 1_555
N5 C31 1_555 1_555
O1 C1 1_555 1_555
O2 C12 1_555 1_555
O3 C13 1_555 1_555
O4 C24 1_555 1_555
O5 C25 1_555 1_555
O6 C30 1_555 1_555
P1 O1 1_555 1_555
P2 N1 1_555 1_555
P3 N2 1_555 1_555
Cl2D Cu1 1_555 1_555
Cu1D Cl2 1_555 1_555
Cu1E N4 1_555 1_555
N4E Cu1 1_555 1_555
C5 C6 1_555 1_555
C11 C12 1_555 1_555
C17 C18 1_555 1_555
C23 C24 1_555 1_555
C28 C29 1_555 1_555
C28 N4 1_555 1_555
C32 N5 1_555 1_555
C33 C34 1_555 1_555
N3 P3 1_555 1_555
O2 P1 1_555 1_555
O3 P2 1_555 1_555
O4 P2 1_555 1_555
O5 P3 1_555 1_555
O6 P3 1_555 1_555
Cl2D Cu1D 1_555 1_555

#END
