
#######################################################################
#
#                 Cambridge Crystallographic Data Centre
#                                CCDC 
#
#######################################################################
#
# If this CIF has been generated from an entry in the Cambridge 
# Structural Database, then it will include bibliographic, chemical, 
# crystal, experimental, refinement or atomic coordinate data resulting 
# from the CCDC's data processing and validation procedures.
#
#######################################################################

data_PEQLUU
_symmetry_cell_setting           monoclinic
_symmetry_space_group_name_H-M   'C 2/c'
_symmetry_Int_Tables_number      15
_space_group_name_Hall           '-C 2yn'
loop_
_symmetry_equiv_pos_site_id
_symmetry_equiv_pos_as_xyz
1 x,y,z
2 -x,y,1/2-z
3 1/2+x,1/2+y,z
4 1/2-x,1/2+y,1/2-z
5 -x,-y,-z
6 x,-y,1/2+z
7 1/2-x,1/2-y,-z
8 1/2+x,1/2-y,1/2+z
_cell_length_a                   22.167(4)
_cell_length_b                   14.195(3)
_cell_length_c                   15.405(3)
_cell_angle_alpha                90
_cell_angle_beta                 122.04(3)
_cell_angle_gamma                90
_cell_volume                     4108.99
loop_
_atom_site_label
_atom_site_type_symbol
_atom_site_fract_x
_atom_site_fract_y
_atom_site_fract_z
Zn1 Zn 0.243079(15) -0.000771(19) 0.35348(2)
Cl1 Cl 0.19337(4) 0.01270(4) 0.18594(5)
Cl2 Cl 0.18383(4) -0.01853(5) 0.43141(6)
P1 P 0.5000 -0.02843(6) 0.2500
P2 P 0.48111(3) -0.19715(4) 0.32211(5)
N1 N 0.5000 -0.2507(2) 0.2500
N2 N 0.48168(10) -0.08606(14) 0.32098(15)
O1 O 0.56253(8) 0.04002(12) 0.32525(12)
O2 O 0.40667(8) -0.23629(12) 0.29717(13)
O3 O 0.52850(8) -0.23423(12) 0.43687(13)
C1 C 0.57988(13) 0.11888(17) 0.28698(18)
C2 C 0.53404(13) 0.19552(17) 0.25161(19)
C3 C 0.55598(16) 0.27474(19) 0.2220(2)
H1 H 0.5266 0.3274 0.1971
C4 C 0.62094(17) 0.2763(2) 0.2289(2)
H2 H 0.6345 0.3296 0.2082
C5 C 0.66572(15) 0.1992(2) 0.2665(2)
H3 H 0.7097 0.2012 0.2725
C6 C 0.64507(14) 0.11852(19) 0.29541(19)
H4 H 0.6744 0.0658 0.3198
C7 C 0.38023(12) -0.21506(17) 0.36023(18)
C8 C 0.34148(12) -0.13364(17) 0.34107(18)
H5 H 0.3364 -0.0921 0.2909
C9 C 0.31796(13) -0.17456(18) 0.46544(19)
H6 H 0.2959 -0.1613 0.5013
C10 C 0.35680(13) -0.25659(19) 0.4877(2)
H7 H 0.3614 -0.2970 0.5384
C11 C 0.38881(13) -0.27822(18) 0.4339(2)
H8 H 0.4151 -0.3332 0.4469
N3 N 0.31066(10) -0.11353(14) 0.39474(15)
C12 C 0.60229(12) -0.22284(17) 0.49251(18)
C13 C 0.63205(12) -0.13504(16) 0.52839(17)
H9 H 0.6026 -0.0829 0.5126
C14 C 0.74437(13) -0.20073(18) 0.60889(19)
H10 H 0.7935 -0.1932 0.6489
C15 C 0.71731(14) -0.28992(18) 0.5760(2)
H11 H 0.7476 -0.3413 0.5937
C16 C 0.64402(13) -0.30189(18) 0.51600(19)
H12 H 0.6239 -0.3611 0.4926
N4 N 0.70292(10) -0.12399(14) 0.58579(15)
P2A P 0.51889(3) -0.19715(4) 0.17789(5)
N2A N 0.51832(10) -0.08606(14) 0.17902(15)
O1A O 0.43747(8) 0.04002(12) 0.17475(12)
O2A O 0.59333(8) -0.23629(12) 0.20283(13)
O3A O 0.47150(8) -0.23423(12) 0.06313(13)
C1A C 0.42012(13) 0.11888(17) 0.21302(18)
C2A C 0.46596(13) 0.19552(17) 0.24839(19)
C3A C 0.44402(16) 0.27474(19) 0.2780(2)
H1A H 0.4734 0.3274 0.3029
C4A C 0.37906(17) 0.2763(2) 0.2711(2)
H2A H 0.3655 0.3296 0.2918
C5A C 0.33428(15) 0.1992(2) 0.2335(2)
H3A H 0.2903 0.2012 0.2275
C6A C 0.35493(14) 0.11852(19) 0.20459(19)
H4A H 0.3256 0.0658 0.1802
C7A C 0.61977(12) -0.21506(17) 0.13977(18)
C8A C 0.65852(12) -0.13364(17) 0.15893(18)
H5A H 0.6636 -0.0921 0.2091
C9A C 0.68204(13) -0.17456(18) 0.03456(19)
H6A H 0.7041 -0.1613 -0.0013
C10A C 0.64320(13) -0.25659(19) 0.0123(2)
H7A H 0.6386 -0.2970 -0.0384
C11A C 0.61119(13) -0.27822(18) 0.0661(2)
H8A H 0.5849 -0.3332 0.0531
N3A N 0.68934(10) -0.11353(14) 0.10526(15)
C12A C 0.39771(12) -0.22284(17) 0.00749(18)
C13A C 0.36795(12) -0.13504(16) -0.02839(17)
H9A H 0.3974 -0.0829 -0.0126
C14A C 0.25563(13) -0.20073(18) -0.10889(19)
H10A H 0.2065 -0.1932 -0.1489
C15A C 0.28269(14) -0.28992(18) -0.0760(2)
H11A H 0.2524 -0.3413 -0.0937
C16A C 0.35598(13) -0.30189(18) -0.01600(19)
H12A H 0.3761 -0.3611 0.0074
N4A N 0.29708(10) -0.12399(14) -0.08579(15)
Zn1A Zn 0.756921(15) -0.000771(19) 0.14652(2)
Cl1A Cl 0.80663(4) 0.01270(4) 0.31406(5)
Cl2A Cl 0.81617(4) -0.01853(5) 0.06859(6)
Zn1D Zn 0.756921(15) 0.000771(19) 0.64652(2)
Zn1E Zn 0.243079(15) 0.000771(19) -0.14652(2)
N4D N 0.29708(10) 0.12399(14) 0.41421(15)
N4E N 0.70292(10) 0.12399(14) 0.08579(15)
loop_
_geom_bond_atom_site_label_1
_geom_bond_atom_site_label_2
_geom_bond_site_symmetry_1
_geom_bond_site_symmetry_2
Zn1 Cl1 1_555 1_555
Cl2 Zn1 1_555 1_555
P1 N2 1_555 1_555
P2 N1 1_555 1_555
N1 P2A 1_555 1_555
N2 P2 1_555 1_555
O1 P1 1_555 1_555
O2 P2 1_555 1_555
O3 P2 1_555 1_555
C1 O1 1_555 1_555
C2 C1 1_555 1_555
C3 C2 1_555 1_555
H1 C3 1_555 1_555
C4 C3 1_555 1_555
H2 C4 1_555 1_555
C5 C4 1_555 1_555
H3 C5 1_555 1_555
C6 C1 1_555 1_555
H4 C6 1_555 1_555
C7 O2 1_555 1_555
C8 C7 1_555 1_555
H5 C8 1_555 1_555
C9 H6 1_555 1_555
C10 C9 1_555 1_555
H7 C10 1_555 1_555
C11 C7 1_555 1_555
H8 C11 1_555 1_555
N3 Zn1 1_555 1_555
C12 O3 1_555 1_555
C13 C12 1_555 1_555
H9 C13 1_555 1_555
C14 H10 1_555 1_555
C15 C14 1_555 1_555
H11 C15 1_555 1_555
C16 C12 1_555 1_555
H12 C16 1_555 1_555
N4 C13 1_555 1_555
P2A N2A 1_555 1_555
N2A P1 1_555 1_555
O1A P1 1_555 1_555
O2A P2A 1_555 1_555
O3A P2A 1_555 1_555
C1A O1A 1_555 1_555
C2A C2 1_555 1_555
C3A C2A 1_555 1_555
H1A C3A 1_555 1_555
C4A C3A 1_555 1_555
H2A C4A 1_555 1_555
C5A C4A 1_555 1_555
H3A C5A 1_555 1_555
C6A C1A 1_555 1_555
H4A C6A 1_555 1_555
C7A O2A 1_555 1_555
C8A C7A 1_555 1_555
H5A C8A 1_555 1_555
C9A H6A 1_555 1_555
C10A C9A 1_555 1_555
H7A C10A 1_555 1_555
C11A C7A 1_555 1_555
H8A C11A 1_555 1_555
N3A C8A 1_555 1_555
C12A O3A 1_555 1_555
C13A C12A 1_555 1_555
H9A C13A 1_555 1_555
C14A H10A 1_555 1_555
C15A C14A 1_555 1_555
H11A C15A 1_555 1_555
C16A C12A 1_555 1_555
H12A C16A 1_555 1_555
N4A C13A 1_555 1_555
Zn1A N3A 1_555 1_555
Cl1A Zn1A 1_555 1_555
Cl2A Zn1A 1_555 1_555
Zn1D N4 1_555 1_555
Zn1E N4A 1_555 1_555
N4D Zn1 1_555 1_555
N4E Zn1A 1_555 1_555
C5 C6 1_555 1_555
C8 N3 1_555 1_555
C9 N3 1_555 1_555
C10 C11 1_555 1_555
C14 N4 1_555 1_555
C15 C16 1_555 1_555
C1A C2A 1_555 1_555
C5A C6A 1_555 1_555
C9A N3A 1_555 1_555
C10A C11A 1_555 1_555
C14A N4A 1_555 1_555
C15A C16A 1_555 1_555

#END
