
#######################################################################
#
#                 Cambridge Crystallographic Data Centre
#                                CCDC 
#
#######################################################################
#
# If this CIF has been generated from an entry in the Cambridge 
# Structural Database, then it will include bibliographic, chemical, 
# crystal, experimental, refinement or atomic coordinate data resulting 
# from the CCDC's data processing and validation procedures.
#
#######################################################################

data_PEQLOO
_symmetry_cell_setting           monoclinic
_symmetry_space_group_name_H-M   'C 2/c'
_symmetry_Int_Tables_number      15
_space_group_name_Hall           '-C 2yn'
loop_
_symmetry_equiv_pos_site_id
_symmetry_equiv_pos_as_xyz
1 x,y,z
2 -x,y,1/2-z
3 1/2+x,1/2+y,z
4 1/2-x,1/2+y,1/2-z
5 -x,-y,-z
6 x,-y,1/2+z
7 1/2-x,1/2-y,-z
8 1/2+x,1/2-y,1/2+z
_cell_length_a                   27.787(3)
_cell_length_b                   11.9727(12)
_cell_length_c                   29.607(3)
_cell_angle_alpha                90
_cell_angle_beta                 94.856(3)
_cell_angle_gamma                90
_cell_volume                     9814.46
loop_
_atom_site_label
_atom_site_type_symbol
_atom_site_fract_x
_atom_site_fract_y
_atom_site_fract_z
C1 C 0.3569(2) 0.7469(5) 0.3299(2)
C2 C 0.4012(2) 0.7937(5) 0.3270(2)
H1 H 0.4198 0.7774 0.3023
C3 C 0.4186(3) 0.8672(5) 0.3618(3)
H2 H 0.4495 0.9005 0.3609
C4 C 0.3911(3) 0.8909(6) 0.3968(3)
H3 H 0.4033 0.9397 0.4203
C5 C 0.3452(3) 0.8438(5) 0.3982(2)
H4 H 0.3262 0.8630 0.4222
C6 C 0.3270(2) 0.7697(5) 0.3651(2)
C7 C 0.2795(2) 0.7183(5) 0.3660(2)
C8 C 0.2621(3) 0.6817(6) 0.4070(2)
H5 H 0.2826 0.6884 0.4342
C9 C 0.2162(3) 0.6360(6) 0.4091(3)
H6 H 0.2060 0.6107 0.4372
C10 C 0.1857(3) 0.6281(6) 0.3699(3)
H7 H 0.1542 0.5979 0.3709
C11 C 0.2012(2) 0.6643(5) 0.3292(2)
H8 H 0.1803 0.6592 0.3022
C12 C 0.2468(2) 0.7075(5) 0.3278(2)
C13 C 0.1876(2) 0.5553(5) 0.1748(2)
C14 C 0.1638(2) 0.5434(6) 0.2140(2)
H9 H 0.1779 0.4969 0.2375
C15 C 0.1034(3) 0.6582(6) 0.1849(4)
H10 H 0.0741 0.6968 0.1886
C16 C 0.1239(3) 0.6707(6) 0.1447(3)
H11 H 0.1084 0.7139 0.1208
C17 C 0.1678(2) 0.6189(5) 0.1398(2)
H12 H 0.1836 0.6275 0.1128
C18 C 0.3554(2) 0.4210(5) 0.1691(2)
C19 C 0.3929(2) 0.4231(4) 0.2019(2)
H13 H 0.3860 0.4350 0.2324
C20 C 0.4471(2) 0.3937(5) 0.1491(2)
H14 H 0.4794 0.3842 0.1418
C21 C 0.4114(3) 0.3910(6) 0.1147(2)
H15 H 0.4191 0.3784 0.0845
C22 C 0.3641(2) 0.4066(6) 0.1237(2)
H16 H 0.3386 0.4076 0.1002
C23 C 0.2528(2) 0.8723(5) 0.1341(2)
C24 C 0.2305(2) 0.8607(5) 0.0912(2)
H17 H 0.2484 0.8330 0.0677
C25 C 0.1589(2) 0.9236(5) 0.1160(2)
H18 H 0.1258 0.9416 0.1095
C26 C 0.1796(2) 0.9356(5) 0.1601(2)
H19 H 0.1609 0.9605 0.1835
C27 C 0.2280(2) 0.9107(5) 0.16931(19)
H20 H 0.2436 0.9196 0.1989
C28 C 0.4001(2) 0.7190(5) 0.13126(18)
C29 C 0.3756(2) 0.7027(5) 0.08874(19)
H21 H 0.3419 0.7172 0.0845
C30 C 0.4467(3) 0.6477(7) 0.0601(2)
H22 H 0.4633 0.6235 0.0352
C31 C 0.4724(2) 0.6617(7) 0.1012(2)
H23 H 0.5060 0.6453 0.1045
C32 C 0.4493(2) 0.6999(6) 0.1379(2)
H24 H 0.4666 0.7126 0.1665
C33 C 0.3557(4) 0.9069(10) 0.0000(4)
H25 H 0.3356 0.9740 -0.0039
H26 H 0.3835 0.9138 -0.0181
H27 H 0.3671 0.8985 0.0321
C34 C 0.4013(5) 0.3622(10) -0.0310(5)
H28 H 0.4327 0.3286 -0.0353
H29 H 0.3791 0.3484 -0.0579
H30 H 0.3882 0.3290 -0.0044
Cd1 Cd 0.5000 0.41566(5) 0.2500
Cd2 Cd 0.355498(17) 0.63027(5) -0.012824(15)
N1 N 0.28274(17) 0.5737(4) 0.24023(17)
N2 N 0.29877(17) 0.6355(4) 0.15547(16)
N3 N 0.31498(17) 0.7823(4) 0.22454(16)
N4 N 0.1226(2) 0.5933(5) 0.2201(2)
N5 N 0.43925(19) 0.4092(4) 0.19326(18)
N6 N 0.18431(19) 0.8874(4) 0.08209(17)
N7 N 0.39936(18) 0.6664(5) 0.05342(18)
N8 N 0.55363(17) 0.5128(4) 0.18308(17)
N9 N 0.2750(3) 0.5280(6) 0.0289(2)
N10 N 0.4633(4) 0.6801(9) -0.0599(3)
O1 O 0.34175(14) 0.6656(3) 0.29706(13)
O2 O 0.25953(15) 0.7505(3) 0.28595(13)
O3 O 0.22947(14) 0.4955(3) 0.17047(13)
O4 O 0.30821(14) 0.4277(3) 0.18085(14)
O5 O 0.30243(14) 0.8471(3) 0.14075(13)
O6 O 0.37723(14) 0.7572(3) 0.16796(13)
O7 O 0.5000 0.2246(5) 0.2500
H31 H 0.4752 0.2012 0.2347
O8 O 0.57020(16) 0.5495(4) 0.14906(16)
O9 O 0.55920(15) 0.4108(4) 0.19405(16)
O10 O 0.52967(16) 0.5734(4) 0.20795(16)
O11 O 0.3294(2) 0.8163(5) -0.0138(2)
O12 O 0.27084(19) 0.6308(5) 0.01812(17)
O13 O 0.2431(3) 0.4796(6) 0.0457(3)
O14 O 0.3141(2) 0.4801(5) 0.02144(19)
O15 O 0.4069(3) 0.4791(7) -0.0244(3)
O16 O 0.4230(2) 0.7156(6) -0.04840(18)
O17 O 0.4814(3) 0.5862(7) -0.0517(3)
O18 O 0.4873(4) 0.7482(10) -0.0823(4)
P1 P 0.29950(5) 0.69142(12) 0.25942(5)
P2 P 0.28102(5) 0.54195(12) 0.18796(5)
P3 P 0.32109(5) 0.74950(12) 0.17398(5)
H32 H 0.429(2) 0.521(5) -0.033(2)
H33 H 0.3023(13) 0.842(6) -0.010(2)
H31A H 0.5248 0.2012 0.2653
C1A C 0.6431(2) 0.7469(5) 0.1701(2)
C2A C 0.5988(2) 0.7937(5) 0.1730(2)
H1A H 0.5802 0.7774 0.1977
C3A C 0.5814(3) 0.8672(5) 0.1382(3)
H2A H 0.5505 0.9005 0.1391
C4A C 0.6089(3) 0.8909(6) 0.1032(3)
H3A H 0.5967 0.9397 0.0797
C5A C 0.6548(3) 0.8438(5) 0.1018(2)
H4A H 0.6738 0.8630 0.0778
C6A C 0.6730(2) 0.7697(5) 0.1349(2)
C7A C 0.7205(2) 0.7183(5) 0.1340(2)
C8A C 0.7379(3) 0.6817(6) 0.0930(2)
H5A H 0.7174 0.6884 0.0658
C9A C 0.7838(3) 0.6360(6) 0.0909(3)
H6A H 0.7940 0.6107 0.0628
C10A C 0.8143(3) 0.6281(6) 0.1301(3)
H7A H 0.8458 0.5979 0.1291
C11A C 0.7988(2) 0.6643(5) 0.1708(2)
H8A H 0.8197 0.6592 0.1978
C12A C 0.7532(2) 0.7075(5) 0.1722(2)
C13A C 0.8124(2) 0.5553(5) 0.3252(2)
C14A C 0.8362(2) 0.5434(6) 0.2860(2)
H9A H 0.8221 0.4969 0.2625
C15A C 0.8966(3) 0.6582(6) 0.3151(4)
H10A H 0.9259 0.6968 0.3114
C16A C 0.8761(3) 0.6707(6) 0.3553(3)
H11A H 0.8916 0.7139 0.3792
C17A C 0.8322(2) 0.6189(5) 0.3602(2)
H12A H 0.8164 0.6275 0.3872
C18A C 0.6446(2) 0.4210(5) 0.3309(2)
C19A C 0.6071(2) 0.4231(4) 0.2981(2)
H13A H 0.6140 0.4350 0.2676
C20A C 0.5529(2) 0.3937(5) 0.3509(2)
H14A H 0.5206 0.3842 0.3582
C21A C 0.5886(3) 0.3910(6) 0.3853(2)
H15A H 0.5809 0.3784 0.4155
C22A C 0.6359(2) 0.4066(6) 0.3763(2)
H16A H 0.6614 0.4076 0.3998
C23A C 0.7472(2) 0.8723(5) 0.3659(2)
C24A C 0.7695(2) 0.8607(5) 0.4088(2)
H17A H 0.7516 0.8330 0.4323
C25A C 0.8411(2) 0.9236(5) 0.3840(2)
H18A H 0.8742 0.9416 0.3905
C26A C 0.8204(2) 0.9356(5) 0.3399(2)
H19A H 0.8391 0.9605 0.3165
C27A C 0.7720(2) 0.9107(5) 0.33069(19)
H20A H 0.7564 0.9196 0.3011
C28A C 0.5999(2) 0.7190(5) 0.36874(18)
C29A C 0.6244(2) 0.7027(5) 0.41126(19)
H21A H 0.6581 0.7172 0.4155
C30A C 0.5533(3) 0.6477(7) 0.4399(2)
H22A H 0.5367 0.6235 0.4648
C31A C 0.5276(2) 0.6617(7) 0.3988(2)
H23A H 0.4940 0.6453 0.3955
C32A C 0.5507(2) 0.6999(6) 0.3621(2)
H24A H 0.5334 0.7126 0.3335
C33A C 0.6443(4) 0.9069(10) 0.5000(4)
H25A H 0.6644 0.9740 0.5039
H26A H 0.6165 0.9138 0.5181
H27A H 0.6329 0.8985 0.4679
C34A C 0.5987(5) 0.3622(10) 0.5310(5)
H28A H 0.5673 0.3286 0.5353
H29A H 0.6209 0.3484 0.5579
H30A H 0.6118 0.3290 0.5044
Cd2A Cd 0.644502(17) 0.63027(5) 0.512824(15)
N1A N 0.71726(17) 0.5737(4) 0.25977(17)
N2A N 0.70123(17) 0.6355(4) 0.34453(16)
N3A N 0.68502(17) 0.7823(4) 0.27546(16)
N4A N 0.8774(2) 0.5933(5) 0.2799(2)
N5A N 0.56075(19) 0.4092(4) 0.30674(18)
N6A N 0.81569(19) 0.8874(4) 0.41791(17)
N7A N 0.60064(18) 0.6664(5) 0.44658(18)
N8A N 0.44637(17) 0.5128(4) 0.31692(17)
N9A N 0.7250(3) 0.5280(6) 0.4711(2)
N10A N 0.5367(4) 0.6801(9) 0.5599(3)
O1A O 0.65825(14) 0.6656(3) 0.20294(13)
O2A O 0.74047(15) 0.7505(3) 0.21405(13)
O3A O 0.77053(14) 0.4955(3) 0.32953(13)
O4A O 0.69179(14) 0.4277(3) 0.31915(14)
O5A O 0.69757(14) 0.8471(3) 0.35925(13)
O6A O 0.62277(14) 0.7572(3) 0.33204(13)
O8A O 0.42980(16) 0.5495(4) 0.35094(16)
O9A O 0.44080(15) 0.4108(4) 0.30595(16)
O10A O 0.47033(16) 0.5734(4) 0.29205(16)
O11A O 0.6706(2) 0.8163(5) 0.5138(2)
O12A O 0.72916(19) 0.6308(5) 0.48188(17)
O13A O 0.7569(3) 0.4796(6) 0.4543(3)
O14A O 0.6859(2) 0.4801(5) 0.47856(19)
O15A O 0.5931(3) 0.4791(7) 0.5244(3)
O16A O 0.5770(2) 0.7156(6) 0.54840(18)
O17A O 0.5186(3) 0.5862(7) 0.5517(3)
O18A O 0.5127(4) 0.7482(10) 0.5823(4)
P1A P 0.70050(5) 0.69142(12) 0.24058(5)
P2A P 0.71898(5) 0.54195(12) 0.31204(5)
P3A P 0.67891(5) 0.74950(12) 0.32602(5)
H32A H 0.571(2) 0.521(5) 0.533(2)
H33A H 0.6977(13) 0.842(6) 0.510(2)
Cd2F Cd 0.144502(17) 0.86973(5) 0.012824(15)
Cd2G Cd 0.855498(17) 0.86973(5) 0.487176(15)
N6F N 0.31569(19) 0.6126(4) -0.08209(17)
N6G N 0.68431(19) 0.6126(4) 0.58209(17)
loop_
_geom_bond_atom_site_label_1
_geom_bond_atom_site_label_2
_geom_bond_site_symmetry_1
_geom_bond_site_symmetry_2
C1 C2 1_555 1_555
C2 H1 1_555 1_555
C3 C2 1_555 1_555
H2 C3 1_555 1_555
C4 C3 1_555 1_555
H3 C4 1_555 1_555
C5 C4 1_555 1_555
H4 C5 1_555 1_555
C6 C1 1_555 1_555
C7 C6 1_555 1_555
C8 C7 1_555 1_555
H5 C8 1_555 1_555
C9 C8 1_555 1_555
H6 C9 1_555 1_555
C10 C9 1_555 1_555
H7 C10 1_555 1_555
C11 C10 1_555 1_555
H8 C11 1_555 1_555
C12 C7 1_555 1_555
C13 C14 1_555 1_555
C14 H9 1_555 1_555
C15 H10 1_555 1_555
C16 C15 1_555 1_555
H11 C16 1_555 1_555
C17 C13 1_555 1_555
H12 C17 1_555 1_555
C18 C19 1_555 1_555
C19 H13 1_555 1_555
C20 H14 1_555 1_555
C21 C20 1_555 1_555
H15 C21 1_555 1_555
C22 C18 1_555 1_555
H16 C22 1_555 1_555
C23 C24 1_555 1_555
C24 H17 1_555 1_555
C25 H18 1_555 1_555
C26 C25 1_555 1_555
H19 C26 1_555 1_555
C27 C23 1_555 1_555
H20 C27 1_555 1_555
C28 C29 1_555 1_555
C29 H21 1_555 1_555
C30 H22 1_555 1_555
C31 C30 1_555 1_555
H23 C31 1_555 1_555
C32 C28 1_555 1_555
H24 C32 1_555 1_555
C33 H25 1_555 1_555
H26 C33 1_555 1_555
H27 C33 1_555 1_555
C34 H28 1_555 1_555
H29 C34 1_555 1_555
H30 C34 1_555 1_555
Cd1 N5 1_555 1_555
Cd2 N7 1_555 1_555
N1 P1 1_555 1_555
N2 P2 1_555 1_555
N3 P1 1_555 1_555
N4 C14 1_555 1_555
N5 C19 1_555 1_555
N6 C24 1_555 1_555
N7 C29 1_555 1_555
N8 O8 1_555 1_555
N9 O12 1_555 1_555
N10 O16 1_555 1_555
O1 C1 1_555 1_555
O2 C12 1_555 1_555
O3 C13 1_555 1_555
O4 C18 1_555 1_555
O5 C23 1_555 1_555
O6 C28 1_555 1_555
O7 Cd1 1_555 1_555
H31 O7 1_555 1_555
O9 Cd1 1_555 1_555
O10 Cd1 1_555 1_555
O11 C33 1_555 1_555
O12 Cd2 1_555 1_555
O13 N9 1_555 1_555
O14 Cd2 1_555 1_555
O15 C34 1_555 1_555
O16 Cd2 1_555 1_555
O17 N10 1_555 1_555
O18 N10 1_555 1_555
P1 O1 1_555 1_555
P2 N1 1_555 1_555
P3 N2 1_555 1_555
H32 O15 1_555 1_555
H33 O11 1_555 1_555
H31A O7 1_555 1_555
C1A C2A 1_555 1_555
C2A H1A 1_555 1_555
C3A C2A 1_555 1_555
H2A C3A 1_555 1_555
C4A C3A 1_555 1_555
H3A C4A 1_555 1_555
C5A C4A 1_555 1_555
H4A C5A 1_555 1_555
C6A C1A 1_555 1_555
C7A C6A 1_555 1_555
C8A C7A 1_555 1_555
H5A C8A 1_555 1_555
C9A C8A 1_555 1_555
H6A C9A 1_555 1_555
C10A C9A 1_555 1_555
H7A C10A 1_555 1_555
C11A C10A 1_555 1_555
H8A C11A 1_555 1_555
C12A C7A 1_555 1_555
C13A C14A 1_555 1_555
C14A H9A 1_555 1_555
C15A H10A 1_555 1_555
C16A C15A 1_555 1_555
H11A C16A 1_555 1_555
C17A C13A 1_555 1_555
H12A C17A 1_555 1_555
C18A C19A 1_555 1_555
C19A H13A 1_555 1_555
C20A H14A 1_555 1_555
C21A C20A 1_555 1_555
H15A C21A 1_555 1_555
C22A C18A 1_555 1_555
H16A C22A 1_555 1_555
C23A C24A 1_555 1_555
C24A H17A 1_555 1_555
C25A H18A 1_555 1_555
C26A C25A 1_555 1_555
H19A C26A 1_555 1_555
C27A C23A 1_555 1_555
H20A C27A 1_555 1_555
C28A C29A 1_555 1_555
C29A H21A 1_555 1_555
C30A H22A 1_555 1_555
C31A C30A 1_555 1_555
H23A C31A 1_555 1_555
C32A C28A 1_555 1_555
H24A C32A 1_555 1_555
C33A H25A 1_555 1_555
H26A C33A 1_555 1_555
H27A C33A 1_555 1_555
C34A H28A 1_555 1_555
H29A C34A 1_555 1_555
H30A C34A 1_555 1_555
Cd2A N7A 1_555 1_555
N1A P1A 1_555 1_555
N2A P2A 1_555 1_555
N3A P1A 1_555 1_555
N4A C14A 1_555 1_555
N5A Cd1 1_555 1_555
N6A C24A 1_555 1_555
N7A C29A 1_555 1_555
N8A O8A 1_555 1_555
N9A O12A 1_555 1_555
N10A O16A 1_555 1_555
O1A C1A 1_555 1_555
O2A C12A 1_555 1_555
O3A C13A 1_555 1_555
O4A C18A 1_555 1_555
O5A C23A 1_555 1_555
O6A C28A 1_555 1_555
O9A Cd1 1_555 1_555
O10A Cd1 1_555 1_555
O11A C33A 1_555 1_555
O12A Cd2A 1_555 1_555
O13A N9A 1_555 1_555
O14A Cd2A 1_555 1_555
O15A C34A 1_555 1_555
O16A Cd2A 1_555 1_555
O17A N10A 1_555 1_555
O18A N10A 1_555 1_555
P1A O1A 1_555 1_555
P2A N1A 1_555 1_555
P3A N2A 1_555 1_555
H32A O15A 1_555 1_555
H33A O11A 1_555 1_555
Cd2F N6 1_555 1_555
Cd2G N6A 1_555 1_555
N6F Cd2 1_555 1_555
N6G Cd2A 1_555 1_555
C5 C6 1_555 1_555
C11 C12 1_555 1_555
C15 N4 1_555 1_555
C16 C17 1_555 1_555
C20 N5 1_555 1_555
C21 C22 1_555 1_555
C25 N6 1_555 1_555
C26 C27 1_555 1_555
C30 N7 1_555 1_555
C31 C32 1_555 1_555
Cd2 O11 1_555 1_555
Cd2 O15 1_555 1_555
N3 P3 1_555 1_555
N8 O9 1_555 1_555
N8 O10 1_555 1_555
N9 O14 1_555 1_555
O2 P1 1_555 1_555
O3 P2 1_555 1_555
O4 P2 1_555 1_555
O5 P3 1_555 1_555
O6 P3 1_555 1_555
C5A C6A 1_555 1_555
C11A C12A 1_555 1_555
C15A N4A 1_555 1_555
C16A C17A 1_555 1_555
C19A N5A 1_555 1_555
C20A N5A 1_555 1_555
C21A C22A 1_555 1_555
C25A N6A 1_555 1_555
C26A C27A 1_555 1_555
C30A N7A 1_555 1_555
C31A C32A 1_555 1_555
Cd2A O11A 1_555 1_555
Cd2A O15A 1_555 1_555
N3A P3A 1_555 1_555
N8A O9A 1_555 1_555
N8A O10A 1_555 1_555
N9A O14A 1_555 1_555
O2A P1A 1_555 1_555
O3A P2A 1_555 1_555
O4A P2A 1_555 1_555
O5A P3A 1_555 1_555
O6A P3A 1_555 1_555

#END
