
#######################################################################
#
#                 Cambridge Crystallographic Data Centre
#                                CCDC 
#
#######################################################################
#
# If this CIF has been generated from an entry in the Cambridge 
# Structural Database, then it will include bibliographic, chemical, 
# crystal, experimental, refinement or atomic coordinate data resulting 
# from the CCDC's data processing and validation procedures.
#
#######################################################################

data_PEQLEC01
_symmetry_cell_setting           triclinic
_symmetry_space_group_name_H-M   'P -1'
_symmetry_Int_Tables_number      2
_space_group_name_Hall           '-P 1'
loop_
_symmetry_equiv_pos_site_id
_symmetry_equiv_pos_as_xyz
1 x,y,z
2 -x,-y,-z
_cell_length_a                   7.508(2)
_cell_length_b                   9.032(4)
_cell_length_c                   10.165(5)
_cell_angle_alpha                105.740(10)
_cell_angle_beta                 95.290(10)
_cell_angle_gamma                108.920(10)
_cell_volume                     615.21
loop_
_atom_site_label
_atom_site_type_symbol
_atom_site_fract_x
_atom_site_fract_y
_atom_site_fract_z
Cd1 Cd 0.0000 0.0000 0.0000
N1 N -0.1964(4) -0.1981(4) -0.1934(3)
C1 C -0.2066(6) -0.1685(5) -0.3138(4)
H1 H -0.1280 -0.0619 -0.3161
C2 C -0.3229(6) -0.2823(4) -0.4350(4)
H2 H -0.3249 -0.2549 -0.5199
C3 C -0.4377(4) -0.4364(4) -0.4356(3)
C4 C -0.4242(6) -0.4672(5) -0.3105(4)
H3 H -0.4970 -0.5745 -0.3066
C5 C -0.3051(6) -0.3475(5) -0.1924(4)
H4 H -0.3012 -0.3715 -0.1060
O1 O 0.1413(5) -0.1743(4) 0.0336(3)
H5 H 0.2663 -0.1437 0.0480
H6 H 0.1132 -0.2100 0.0941
Cl1 Cl 0.36559(17) 0.11946(16) -0.18043(13)
O2 O 0.1929(5) 0.1210(7) -0.1408(5)
O3 O 0.4036(10) -0.0113(9) -0.1552(8)
O4 O 0.5116(7) 0.2682(8) -0.0994(7)
O5 O 0.3551(10) 0.1064(7) -0.3169(5)
C3A C -0.5623(4) -0.5636(4) -0.5644(3)
C2A C -0.6771(6) -0.7177(4) -0.5650(4)
C1A C -0.7934(6) -0.8315(5) -0.6862(4)
N1A N -0.8036(4) -0.8019(4) -0.8066(3)
C5A C -0.6949(6) -0.6525(5) -0.8076(4)
C4A C -0.5758(6) -0.5328(5) -0.6895(4)
H3A H -0.5030 -0.4255 -0.6934
H4A H -0.6988 -0.6285 -0.8940
H1A H -0.8720 -0.9381 -0.6839
H2A H -0.6751 -0.7451 -0.4801
O1A O -0.1413(5) 0.1743(4) -0.0336(3)
H5A H -0.2663 0.1437 -0.0480
H6A H -0.1132 0.2100 -0.0941
Cl1A Cl -0.36559(17) -0.11946(16) 0.18043(13)
O2A O -0.1929(5) -0.1210(7) 0.1408(5)
O3A O -0.4036(10) 0.0113(9) 0.1552(8)
O4A O -0.5116(7) -0.2682(8) 0.0994(7)
O5A O -0.3551(10) -0.1064(7) 0.3169(5)
N1A_2 N 0.1964(4) 0.1981(4) 0.1934(3)
Cd1_2 Cd -1.0000 -1.0000 -1.0000
N2 N 0.0827(7) -0.2999(6) 0.2471(5)
C6 C -0.0459(10) -0.4470(8) 0.2179(6)
H7 H -0.1194 -0.4991 0.1244
C7 C -0.0831(8) -0.5320(6) 0.3132(5)
H8 H -0.1784 -0.6415 0.2851
C8 C 0.0161(6) -0.4584(5) 0.4472(4)
C9 C 0.1539(7) -0.3010(6) 0.4786(5)
H9 H 0.2283 -0.2432 0.5714
C10 C 0.1830(9) -0.2303(7) 0.3754(6)
H10 H 0.2818 -0.1232 0.3976
C8A C -0.0161(6) -0.5416(5) 0.5528(4)
C7A C 0.0831(8) -0.4680(6) 0.6868(5)
C6A C 0.0459(10) -0.5530(8) 0.7821(6)
N2A N -0.0827(7) -0.7001(6) 0.7529(5)
C10A C -0.1830(9) -0.7697(7) 0.6246(6)
C9A C -0.1539(7) -0.6990(6) 0.5214(5)
H9A H -0.2283 -0.7568 0.4286
H10A H -0.2818 -0.8768 0.6024
H7A H 0.1194 -0.5009 0.8756
H8A H 0.1784 -0.3585 0.7149
loop_
_geom_bond_atom_site_label_1
_geom_bond_atom_site_label_2
_geom_bond_site_symmetry_1
_geom_bond_site_symmetry_2
Cd1 N1 1_555 1_555
N1 C1 1_555 1_555
C1 H1 1_555 1_555
C2 C1 1_555 1_555
H2 C2 1_555 1_555
C3 C2 1_555 1_555
C4 C3 1_555 1_555
H3 C4 1_555 1_555
C5 N1 1_555 1_555
H4 C5 1_555 1_555
O1 Cd1 1_555 1_555
H5 O1 1_555 1_555
H6 O1 1_555 1_555
Cl1 O2 1_555 1_555
O2 Cd1 1_555 1_555
O3 Cl1 1_555 1_555
O4 Cl1 1_555 1_555
O5 Cl1 1_555 1_555
N2 C6 1_555 1_555
C6 H7 1_555 1_555
C7 C6 1_555 1_555
H8 C7 1_555 1_555
C8 C7 1_555 1_555
C9 C8 1_555 1_555
H9 C9 1_555 1_555
C10 N2 1_555 1_555
H10 C10 1_555 1_555
C3A C3 1_555 1_555
C2A C3A 1_555 1_555
C1A C2A 1_555 1_555
N1A C1A 1_555 1_555
C5A N1A 1_555 1_555
C4A C3A 1_555 1_555
H3A C4A 1_555 1_555
H4A C5A 1_555 1_555
H1A C1A 1_555 1_555
H2A C2A 1_555 1_555
O1A Cd1 1_555 1_555
H5A O1A 1_555 1_555
H6A O1A 1_555 1_555
Cl1A O2A 1_555 1_555
O2A Cd1 1_555 1_555
O3A Cl1A 1_555 1_555
O4A Cl1A 1_555 1_555
O5A Cl1A 1_555 1_555
N1A_2 Cd1 1_555 1_555
Cd1_2 N1A 1_555 1_555
C8A C8 1_555 1_555
C7A C8A 1_555 1_555
C6A C7A 1_555 1_555
N2A C6A 1_555 1_555
C10A N2A 1_555 1_555
C9A C8A 1_555 1_555
H9A C9A 1_555 1_555
H10A C10A 1_555 1_555
H7A C6A 1_555 1_555
H8A C7A 1_555 1_555
C4 C5 1_555 1_555
C9 C10 1_555 1_555
C5A C4A 1_555 1_555
C10A C9A 1_555 1_555

#END
