
#######################################################################
#
#                 Cambridge Crystallographic Data Centre
#                                CCDC 
#
#######################################################################
#
# If this CIF has been generated from an entry in the Cambridge 
# Structural Database, then it will include bibliographic, chemical, 
# crystal, experimental, refinement or atomic coordinate data resulting 
# from the CCDC's data processing and validation procedures.
#
#######################################################################

data_PEQMUV
_symmetry_cell_setting           monoclinic
_symmetry_space_group_name_H-M   'P 21/c'
_symmetry_Int_Tables_number      14
_space_group_name_Hall           '-P 2ybc'
loop_
_symmetry_equiv_pos_site_id
_symmetry_equiv_pos_as_xyz
1 x,y,z
2 -x,1/2+y,1/2-z
3 -x,-y,-z
4 x,1/2-y,1/2+z
_cell_length_a                   5.8913(5)
_cell_length_b                   18.3943(16)
_cell_length_c                   8.5953(8)
_cell_angle_alpha                90
_cell_angle_beta                 96.5420(10)
_cell_angle_gamma                90
_cell_volume                     925.376
loop_
_atom_site_label
_atom_site_type_symbol
_atom_site_fract_x
_atom_site_fract_y
_atom_site_fract_z
Cd1 Cd 0.5000 0.0000 0.5000
N1 N 0.1868(5) 0.06143(14) 0.5661(3)
C1 C 0.0114(5) 0.08132(15) 0.5973(3)
S1 S -0.23689(14) 0.11127(4) 0.64084(10)
N2 N 0.4718(5) 0.06224(15) 0.2576(3)
C2 C 0.2814(6) 0.05957(18) 0.1560(4)
H1 H 0.1656 0.0258 0.1750
C3 C 0.2458(6) 0.10345(19) 0.0254(4)
H2 H 0.1078 0.0995 -0.0430
C4 C 0.4119(7) 0.15358(18) -0.0064(3)
C5 C 0.6108(6) 0.1552(2) 0.0966(4)
H3 H 0.7303 0.1878 0.0792
C6 C 0.6349(6) 0.1093(2) 0.2247(4)
H4 H 0.7735 0.1109 0.2929
C7 C 0.3735(6) 0.20518(19) -0.1421(4)
H5 H 0.3322 0.1771 -0.2394
H6 H 0.5176 0.2314 -0.1529
C8 C 0.1874(8) 0.2598(2) -0.1233(5)
H7 H 0.1690 0.2921 -0.2145
H8 H 0.2289 0.2885 -0.0283
H9 H 0.0435 0.2341 -0.1148
N1B N -0.1868(5) -0.06143(14) 0.4339(3)
C1B C -0.0114(5) -0.08132(15) 0.4027(3)
S1B S 0.23689(14) -0.11127(4) 0.35916(10)
N2B N 0.5282(5) -0.06224(15) 0.7424(3)
C2B C 0.7186(6) -0.05957(18) 0.8440(4)
H1B H 0.8344 -0.0258 0.8250
C3B C 0.7542(6) -0.10345(19) 0.9746(4)
H2B H 0.8922 -0.0995 1.0430
C4B C 0.5881(7) -0.15358(18) 1.0064(3)
C5B C 0.3892(6) -0.1552(2) 0.9034(4)
H3B H 0.2697 -0.1878 0.9208
C6B C 0.3651(6) -0.1093(2) 0.7753(4)
H4B H 0.2265 -0.1109 0.7071
C7B C 0.6265(6) -0.20518(19) 1.1421(4)
H5B H 0.6678 -0.1771 1.2394
H6B H 0.4824 -0.2314 1.1529
C8B C 0.8126(8) -0.2598(2) 1.1233(5)
H7B H 0.8310 -0.2921 1.2145
H8B H 0.7711 -0.2885 1.0283
H9B H 0.9565 -0.2341 1.1148
Cd1_2 Cd -0.5000 0.0000 0.5000
N1B_2 N 0.8132(5) -0.06143(14) 0.4339(3)
S1_2 S 0.76311(14) 0.11127(4) 0.64084(10)
loop_
_geom_bond_atom_site_label_1
_geom_bond_atom_site_label_2
_geom_bond_site_symmetry_1
_geom_bond_site_symmetry_2
Cd1 N1 1_555 1_555
N1 C1 1_555 1_555
C1 S1 1_555 1_555
S1 Cd1_2 1_555 1_555
N2 Cd1 1_555 1_555
C2 N2 1_555 1_555
H1 C2 1_555 1_555
C3 C2 1_555 1_555
H2 C3 1_555 1_555
C4 C3 1_555 1_555
C5 C4 1_555 1_555
H3 C5 1_555 1_555
C6 N2 1_555 1_555
H4 C6 1_555 1_555
C7 C4 1_555 1_555
H5 C7 1_555 1_555
H6 C7 1_555 1_555
C8 C7 1_555 1_555
H7 C8 1_555 1_555
H8 C8 1_555 1_555
H9 C8 1_555 1_555
N1B C1B 1_555 1_555
C1B S1B 1_555 1_555
S1B Cd1 1_555 1_555
N2B Cd1 1_555 1_555
C2B N2B 1_555 1_555
H1B C2B 1_555 1_555
C3B C2B 1_555 1_555
H2B C3B 1_555 1_555
C4B C3B 1_555 1_555
C5B C4B 1_555 1_555
H3B C5B 1_555 1_555
C6B N2B 1_555 1_555
H4B C6B 1_555 1_555
C7B C4B 1_555 1_555
H5B C7B 1_555 1_555
H6B C7B 1_555 1_555
C8B C7B 1_555 1_555
H7B C8B 1_555 1_555
H8B C8B 1_555 1_555
H9B C8B 1_555 1_555
Cd1_2 N1B 1_555 1_555
N1B_2 Cd1 1_555 1_555
S1_2 Cd1 1_555 1_555
C5 C6 1_555 1_555
C5B C6B 1_555 1_555

#END
