
#######################################################################
#
#                 Cambridge Crystallographic Data Centre
#                                CCDC 
#
#######################################################################
#
# If this CIF has been generated from an entry in the Cambridge 
# Structural Database, then it will include bibliographic, chemical, 
# crystal, experimental, refinement or atomic coordinate data resulting 
# from the CCDC's data processing and validation procedures.
#
#######################################################################

data_PEQMOP
_symmetry_cell_setting           monoclinic
_symmetry_space_group_name_H-M   'P 21/n'
_symmetry_Int_Tables_number      14
_space_group_name_Hall           '-P 2yn'
loop_
_symmetry_equiv_pos_site_id
_symmetry_equiv_pos_as_xyz
1 x,y,z
2 1/2-x,1/2+y,1/2-z
3 -x,-y,-z
4 1/2+x,1/2-y,1/2+z
_cell_length_a                   13.8186(6)
_cell_length_b                   5.81020(10)
_cell_length_c                   15.5742(7)
_cell_angle_alpha                90
_cell_angle_beta                 91.153(3)
_cell_angle_gamma                90
_cell_volume                     1250.18
loop_
_atom_site_label
_atom_site_type_symbol
_atom_site_fract_x
_atom_site_fract_y
_atom_site_fract_z
Cd1 Cd 0.546460(13) 0.61510(3) 0.622904(11)
N1 N 0.63025(15) 1.2814(4) 0.62812(15)
C1 C 0.65584(17) 1.1045(4) 0.65208(15)
S1 S 0.69353(5) 0.85292(12) 0.68756(5)
N2 N 0.44411(16) 0.9182(4) 0.59737(14)
C2 C 0.42195(16) 1.0994(4) 0.57475(14)
S2 S 0.38742(4) 1.35938(11) 0.54416(4)
N3 N 0.47113(17) 0.5303(4) 0.75123(14)
C3 C 0.3885(3) 0.6203(8) 0.7726(2)
H1 H 0.3606 0.7293 0.7360
C4 C 0.3403(3) 0.5637(8) 0.8458(3)
H2 H 0.2824 0.6377 0.8576
C5 C 0.3747(2) 0.4037(7) 0.9008(2)
C6 C 0.4623(3) 0.3146(11) 0.8791(3)
H3 H 0.4920 0.2071 0.9151
C7 C 0.5075(3) 0.3802(9) 0.8050(3)
H4 H 0.5669 0.3140 0.7927
C8 C 0.3216(3) 0.3398(8) 0.9808(2)
H5 H 0.3157 0.4769 1.0159
H6 H 0.2567 0.2920 0.9641
C9 C 0.3654(3) 0.1567(10) 1.0345(3)
H7 H 0.3267 0.1328 1.0843
H8 H 0.4296 0.2015 1.0522
H9 H 0.3683 0.0166 1.0020
Cd1_2 Cd 0.546460(13) 1.61510(3) 0.622904(11)
Cd1B Cd 0.453540(13) 1.38490(3) 0.377096(11)
N1_2 N 0.63025(15) 0.2814(4) 0.62812(15)
S2_2 S 0.38742(4) 0.35938(11) 0.54416(4)
S2B S 0.61258(4) 0.64062(11) 0.45584(4)
loop_
_geom_bond_atom_site_label_1
_geom_bond_atom_site_label_2
_geom_bond_site_symmetry_1
_geom_bond_site_symmetry_2
Cd1 S1 1_555 1_555
N1 C1 1_555 1_555
C1 S1 1_555 1_555
N2 Cd1 1_555 1_555
C2 N2 1_555 1_555
S2 C2 1_555 1_555
N3 Cd1 1_555 1_555
C3 N3 1_555 1_555
H1 C3 1_555 1_555
C4 C3 1_555 1_555
H2 C4 1_555 1_555
C5 C4 1_555 1_555
C6 C5 1_555 1_555
H3 C6 1_555 1_555
C7 N3 1_555 1_555
H4 C7 1_555 1_555
C8 C5 1_555 1_555
H5 C8 1_555 1_555
H6 C8 1_555 1_555
C9 C8 1_555 1_555
H7 C9 1_555 1_555
H8 C9 1_555 1_555
H9 C9 1_555 1_555
Cd1_2 N1 1_555 1_555
Cd1B S2 1_555 1_555
N1_2 Cd1 1_555 1_555
S2_2 Cd1 1_555 1_555
S2B Cd1 1_555 1_555
S2 Cd1_2 1_555 1_555
C6 C7 1_555 1_555

#END
