
#######################################################################
#
#                 Cambridge Crystallographic Data Centre
#                                CCDC 
#
#######################################################################
#
# If this CIF has been generated from an entry in the Cambridge 
# Structural Database, then it will include bibliographic, chemical, 
# crystal, experimental, refinement or atomic coordinate data resulting 
# from the CCDC's data processing and validation procedures.
#
#######################################################################

data_PEQQUY
_symmetry_cell_setting           monoclinic
_symmetry_space_group_name_H-M   'P 21/n'
_symmetry_Int_Tables_number      14
_space_group_name_Hall           '-P 2yn'
loop_
_symmetry_equiv_pos_site_id
_symmetry_equiv_pos_as_xyz
1 x,y,z
2 1/2-x,1/2+y,1/2-z
3 -x,-y,-z
4 1/2+x,1/2-y,1/2+z
_cell_length_a                   7.949(2)
_cell_length_b                   11.757(3)
_cell_length_c                   16.104(4)
_cell_angle_alpha                90
_cell_angle_beta                 97.403(4)
_cell_angle_gamma                90
_cell_volume                     1492.48
loop_
_atom_site_label
_atom_site_type_symbol
_atom_site_fract_x
_atom_site_fract_y
_atom_site_fract_z
Cd1 Cd 0.74939(3) 0.89833(2) 0.211598(15)
S1 S 0.55516(12) 1.06068(9) 0.10505(6)
S2 S 1.02704(12) 0.98086(9) 0.17018(6)
S3 S 0.66265(15) 0.99571(9) 0.34319(6)
C1 C 0.5241(4) 0.7177(3) 0.0977(2)
C2 C 1.0410(4) 0.9023(3) 0.0838(2)
N1 N 0.7833(3) 0.8059(2) 0.08555(17)
N2 N 1.1743(4) 0.9145(3) 0.0436(2)
H1 H 1.1818 0.8759 -0.0011
H2 H 1.2538 0.9612 0.0621
N3 N 0.9256(3) 0.8264(3) 0.04808(17)
N4 N 0.5187(4) 0.7791(3) 0.16698(18)
C3 C 0.6708(4) 0.7384(3) 0.0508(2)
C4 C 0.5993(4) 1.1687(3) 0.1690(2)
C5 C 0.6827(5) 0.6791(4) -0.0304(2)
H3 H 0.7309 0.7297 -0.0677
H4 H 0.5714 0.6564 -0.0551
H5 H 0.7535 0.6131 -0.0205
C6 C 0.2631(5) 0.6857(4) 0.1886(3)
H6 H 0.1752 0.6761 0.2209
C7 C 0.2700(5) 0.6228(4) 0.1179(3)
H7 H 0.1864 0.5692 0.1013
C8 C 0.3896(4) 0.7635(4) 0.2105(2)
H8 H 0.3848 0.8074 0.2582
C9 C 0.4006(5) 0.6393(4) 0.0718(3)
H9 H 0.4057 0.5976 0.0231
N5 N 0.6297(4) 1.2439(3) 0.2134(2)
C10 C 0.6148(5) 0.8800(4) 0.3917(2)
N6 N 0.5773(5) 0.8000(4) 0.4265(2)
Cd1A Cd 0.75061(3) 1.39833(2) 0.288402(15)
N5A N 0.8703(4) 0.7439(3) 0.2866(2)
loop_
_geom_bond_atom_site_label_1
_geom_bond_atom_site_label_2
_geom_bond_site_symmetry_1
_geom_bond_site_symmetry_2
Cd1 S1 1_555 1_555
S1 C4 1_555 1_555
S2 Cd1 1_555 1_555
S3 Cd1 1_555 1_555
C1 N4 1_555 1_555
C2 S2 1_555 1_555
N1 Cd1 1_555 1_555
N2 C2 1_555 1_555
H1 N2 1_555 1_555
H2 N2 1_555 1_555
N3 C2 1_555 1_555
N4 Cd1 1_555 1_555
C3 C1 1_555 1_555
C4 N5 1_555 1_555
C5 C3 1_555 1_555
H3 C5 1_555 1_555
H4 C5 1_555 1_555
H5 C5 1_555 1_555
C6 H6 1_555 1_555
C7 C6 1_555 1_555
H7 C7 1_555 1_555
C8 N4 1_555 1_555
H8 C8 1_555 1_555
C9 C1 1_555 1_555
H9 C9 1_555 1_555
N5 Cd1A 1_555 1_555
C10 S3 1_555 1_555
N6 C10 1_555 1_555
N5A Cd1 1_555 1_555
N1 N3 1_555 1_555
N1 C3 1_555 1_555
C6 C8 1_555 1_555
C7 C9 1_555 1_555

#END
