
#######################################################################
#
#                 Cambridge Crystallographic Data Centre
#                                CCDC 
#
#######################################################################
#
# If this CIF has been generated from an entry in the Cambridge 
# Structural Database, then it will include bibliographic, chemical, 
# crystal, experimental, refinement or atomic coordinate data resulting 
# from the CCDC's data processing and validation procedures.
#
#######################################################################

data_PEQRUZ
_symmetry_cell_setting           tetragonal
_symmetry_space_group_name_H-M   'I 41 c d'
_symmetry_Int_Tables_number      110
_space_group_name_Hall           'I 4bw -2c'
loop_
_symmetry_equiv_pos_site_id
_symmetry_equiv_pos_as_xyz
1 x,y,z
2 1/2-x,1/2-y,1/2+z
3 -y,1/2+x,1/4+z
4 1/2+y,-x,3/4+z
5 x,-y,1/2+z
6 1/2-x,1/2+y,z
7 -y,1/2-x,3/4+z
8 1/2+y,x,1/4+z
9 1/2+x,1/2+y,1/2+z
10 -x,-y,z
11 1/2-y,x,3/4+z
12 y,1/2-x,1/4+z
13 1/2+x,1/2-y,z
14 -x,y,1/2+z
15 1/2-y,-x,1/4+z
16 y,1/2+x,3/4+z
_cell_length_a                   21.0697(13)
_cell_length_b                   21.0697(13)
_cell_length_c                   13.3297(9)
_cell_angle_alpha                90
_cell_angle_beta                 90
_cell_angle_gamma                90
_cell_volume                     5917.48
loop_
_atom_site_label
_atom_site_type_symbol
_atom_site_fract_x
_atom_site_fract_y
_atom_site_fract_z
Co1 Co 0.0000 1.0000 0.36298(8)
O1 O 0.10528(14) 1.00523(15) 0.4262(2)
O2 O 0.07780(12) 0.99600(13) 0.26845(19)
O3 O 0.40943(14) 0.99393(13) 0.1561(2)
O4 O 0.42543(14) 1.00944(12) 0.3192(2)
O5 O 0.1629(2) 0.91426(18) 0.5934(3)
N1 N 0.2615(2) 0.8810(2) 0.5522(4)
C1 C 0.11965(17) 0.99819(19) 0.3369(3)
C2 C 0.18938(17) 0.99199(19) 0.3095(3)
C3 C 0.23024(17) 1.0290(2) 0.3624(4)
H1 H 0.2149 1.0547 0.4136
C4 C 0.29551(17) 1.0288(2) 0.3404(3)
H2 H 0.3228 1.0539 0.3783
C5 C 0.31953(17) 0.99282(18) 0.2651(3)
C6 C 0.27857(17) 0.95114(18) 0.2106(3)
C7 C 0.30143(19) 0.9088(2) 0.1352(4)
H3 H 0.3443 0.9088 0.1187
C8 C 0.2612(2) 0.8687(2) 0.0873(3)
H4 H 0.2771 0.8410 0.0391
C9 C 0.19689(19) 0.86812(19) 0.1090(4)
H5 H 0.1700 0.8411 0.0740
C10 C 0.17308(17) 0.90668(19) 0.1808(3)
H6 H 0.1301 0.9046 0.1965
C11 C 0.21238(17) 0.95020(18) 0.2325(3)
C12 C 0.39079(18) 0.99930(17) 0.2463(3)
C13 C 0.3247(4) 0.8953(5) 0.5335(9)
H7 H 0.3378 0.9374 0.5307
H8 H 0.3539 0.8628 0.5238
C14 C 0.2488(5) 0.8155(5) 0.5763(13)
H9 H 0.2039 0.8095 0.5842
H10 H 0.2700 0.8046 0.6377
H11 H 0.2640 0.7889 0.5231
C15 C 0.2157(4) 0.9215(3) 0.5672(6)
H12 H 0.2267 0.9636 0.5550
Na1 Na 0.08104(7) 0.98856(7) 0.59477(12)
Co1C Co 0.5000 1.0000 0.11298(8)
Co1C_2 Co -0.5000 1.0000 0.11298(8)
O1I O -0.10528(14) 0.99477(15) 0.4262(2)
O2I O -0.07780(12) 1.00400(13) 0.26845(19)
O2D O 0.07780(12) 1.00400(13) 0.76845(19)
O2M O -0.07780(12) 0.99600(13) 0.76845(19)
O3I O -0.40943(14) 1.00607(13) 0.1561(2)
O3B O 0.00607(13) 0.90943(14) 0.4061(2)
O3K O -0.00607(13) 1.09057(14) 0.4061(2)
O4I O -0.42543(14) 0.99056(12) 0.3192(2)
O4B O -0.00944(12) 0.92543(14) 0.5692(2)
O4K O 0.00944(12) 1.07457(14) 0.5692(2)
O5I O -0.1629(2) 1.08574(18) 0.5934(3)
N1I N -0.2615(2) 1.1190(2) 0.5522(4)
C1I C -0.11965(17) 1.00181(19) 0.3369(3)
C2I C -0.18938(17) 1.00801(19) 0.3095(3)
C3I C -0.23024(17) 0.9710(2) 0.3624(4)
H1I H -0.2149 0.9453 0.4136
C4I C -0.29551(17) 0.9712(2) 0.3404(3)
H2I H -0.3228 0.9461 0.3783
C5I C -0.31953(17) 1.00718(18) 0.2651(3)
C6I C -0.27857(17) 1.04886(18) 0.2106(3)
C7I C -0.30143(19) 1.0912(2) 0.1352(4)
H3I H -0.3443 1.0912 0.1187
C8I C -0.2612(2) 1.1313(2) 0.0873(3)
H4I H -0.2771 1.1590 0.0391
C9I C -0.19689(19) 1.13188(19) 0.1090(4)
H5I H -0.1700 1.1589 0.0740
C10I C -0.17308(17) 1.09332(19) 0.1808(3)
H6I H -0.1301 1.0954 0.1965
C11I C -0.21238(17) 1.04980(18) 0.2325(3)
C12I C -0.39079(18) 1.00070(17) 0.2463(3)
C13I C -0.3247(4) 1.1047(5) 0.5335(9)
H7I H -0.3378 1.0626 0.5307
H8I H -0.3539 1.1372 0.5238
C14I C -0.2488(5) 1.1845(5) 0.5763(13)
H9I H -0.2039 1.1905 0.5842
H10I H -0.2700 1.1954 0.6377
H11I H -0.2640 1.2111 0.5231
C15I C -0.2157(4) 1.0785(3) 0.5672(6)
H12I H -0.2267 1.0364 0.5550
Na1I Na -0.08104(7) 1.01144(7) 0.59477(12)
Na1D Na 0.08104(7) 1.01144(7) 0.09477(12)
Na1C Na 0.48856(7) 0.91896(7) 0.34477(12)
Na1J Na 0.51144(7) 1.08104(7) 0.34477(12)
Na1M Na -0.08104(7) 0.98856(7) 0.09477(12)
Na1C_2 Na -0.51144(7) 0.91896(7) 0.34477(12)
Na1J_2 Na -0.48856(7) 1.08104(7) 0.34477(12)
loop_
_geom_bond_atom_site_label_1
_geom_bond_atom_site_label_2
_geom_bond_site_symmetry_1
_geom_bond_site_symmetry_2
Co1 O1 1_555 1_555
O1 C1 1_555 1_555
O2 Co1 1_555 1_555
O3 C12 1_555 1_555
O4 C12 1_555 1_555
O5 C15 1_555 1_555
N1 C13 1_555 1_555
C1 O2 1_555 1_555
C2 C1 1_555 1_555
C3 C2 1_555 1_555
H1 C3 1_555 1_555
C4 C3 1_555 1_555
H2 C4 1_555 1_555
C5 C4 1_555 1_555
C6 C5 1_555 1_555
C7 C6 1_555 1_555
H3 C7 1_555 1_555
C8 C7 1_555 1_555
H4 C8 1_555 1_555
C9 C8 1_555 1_555
H5 C9 1_555 1_555
C10 C9 1_555 1_555
H6 C10 1_555 1_555
C11 C2 1_555 1_555
C12 C5 1_555 1_555
C13 H7 1_555 1_555
H8 C13 1_555 1_555
C14 N1 1_555 1_555
H9 C14 1_555 1_555
H10 C14 1_555 1_555
H11 C14 1_555 1_555
C15 N1 1_555 1_555
H12 C15 1_555 1_555
Na1 O1 1_555 1_555
Co1C O3 1_555 1_555
Co1C_2 O3I 1_555 1_555
O1I Co1 1_555 1_555
O2I Co1 1_555 1_555
O2D Na1 1_555 1_555
O2M Na1I 1_555 1_555
O3I C12I 1_555 1_555
O3B Co1 1_555 1_555
O3K Co1 1_555 1_555
O4I C12I 1_555 1_555
O4B Na1 1_555 1_555
O4K Na1 1_555 1_555
O5I C15I 1_555 1_555
N1I C13I 1_555 1_555
C1I O1I 1_555 1_555
C2I C1I 1_555 1_555
C3I C2I 1_555 1_555
H1I C3I 1_555 1_555
C4I C3I 1_555 1_555
H2I C4I 1_555 1_555
C5I C4I 1_555 1_555
C6I C5I 1_555 1_555
C7I C6I 1_555 1_555
H3I C7I 1_555 1_555
C8I C7I 1_555 1_555
H4I C8I 1_555 1_555
C9I C8I 1_555 1_555
H5I C9I 1_555 1_555
C10I C9I 1_555 1_555
H6I C10I 1_555 1_555
C11I C2I 1_555 1_555
C12I C5I 1_555 1_555
C13I H7I 1_555 1_555
H8I C13I 1_555 1_555
C14I N1I 1_555 1_555
H9I C14I 1_555 1_555
H10I C14I 1_555 1_555
H11I C14I 1_555 1_555
C15I N1I 1_555 1_555
H12I C15I 1_555 1_555
Na1I O1I 1_555 1_555
Na1D O2 1_555 1_555
Na1C O4 1_555 1_555
Na1J O4 1_555 1_555
Na1M O2I 1_555 1_555
Na1C_2 O4I 1_555 1_555
Na1J_2 O4I 1_555 1_555
O5 Na1 1_555 1_555
C6 C11 1_555 1_555
C10 C11 1_555 1_555
O2I C1I 1_555 1_555
O4B Na1I 1_555 1_555
O4K Na1I 1_555 1_555
O5I Na1I 1_555 1_555
C6I C11I 1_555 1_555
C10I C11I 1_555 1_555

#END
