
#######################################################################
#
#                 Cambridge Crystallographic Data Centre
#                                CCDC 
#
#######################################################################
#
# If this CIF has been generated from an entry in the Cambridge 
# Structural Database, then it will include bibliographic, chemical, 
# crystal, experimental, refinement or atomic coordinate data resulting 
# from the CCDC's data processing and validation procedures.
#
#######################################################################

data_PEQRUA
_symmetry_cell_setting           triclinic
_symmetry_space_group_name_H-M   'P -1'
_symmetry_Int_Tables_number      2
_space_group_name_Hall           '-P 1'
loop_
_symmetry_equiv_pos_site_id
_symmetry_equiv_pos_as_xyz
1 x,y,z
2 -x,-y,-z
_cell_length_a                   7.7312(3)
_cell_length_b                   8.4507(7)
_cell_length_c                   10.6403(8)
_cell_angle_alpha                71.218(7)
_cell_angle_beta                 88.075(5)
_cell_angle_gamma                70.392(6)
_cell_volume                     617.826
loop_
_atom_site_label
_atom_site_type_symbol
_atom_site_fract_x
_atom_site_fract_y
_atom_site_fract_z
Tb1 Tb 0.33346(4) 0.27766(4) 0.38987(3)
S1 S 0.7107(2) 0.3086(2) 0.19028(18)
O1 O 0.5621(7) 0.0225(6) 0.3719(5)
O2 O 0.7662(7) -0.2355(6) 0.3874(5)
O3 O 0.5205(7) 0.3837(6) 0.2222(5)
O4 O 0.8347(7) 0.2027(8) 0.3107(6)
O5 O 0.7738(9) 0.4431(8) 0.1001(6)
O6 O 0.5832(6) 0.2732(6) 0.5226(5)
O7 O 0.7082(7) 0.4353(6) 0.5936(5)
O8 O 0.0004(7) 0.4367(7) 0.3801(6)
H1 H -0.0633 0.4103 0.3317
H2 H -0.0275 0.5489 0.3575
O9 O 0.1749(8) 0.4002(8) 0.1673(6)
H3 H 0.0584 0.4433 0.1668
H4 H 0.1980 0.4562 0.0905
O10 O 0.1873(7) 0.0756(6) 0.3882(6)
H5 H 0.0721 0.1136 0.3959
H6 H 0.2382 -0.0277 0.4442
C1 C 0.6791(9) -0.0780(9) 0.3203(7)
C2 C 0.7096(10) -0.0136(9) 0.1767(7)
C3 C 0.7119(10) 0.1576(9) 0.1068(7)
C4 C 0.7333(13) 0.2039(11) -0.0284(9)
H7 H 0.7359 0.3171 -0.0739
C5 C 0.7507(15) 0.0881(12) -0.0975(9)
H8 H 0.7635 0.1226 -0.1886
C6 C 0.7487(16) -0.0796(13) -0.0297(10)
H9 H 0.7605 -0.1598 -0.0750
C7 C 0.7293(12) -0.1294(10) 0.1051(9)
H10 H 0.7293 -0.2439 0.1496
C8 C 0.5851(9) 0.4165(8) 0.5337(6)
O6A O 0.4168(6) 0.7268(6) 0.4774(5)
O7A O 0.2918(7) 0.5647(6) 0.4064(5)
C8A C 0.4149(9) 0.5835(8) 0.4663(6)
Tb1A Tb 0.66654(4) -0.27766(4) 0.61013(3)
S1A S 0.2893(2) -0.3086(2) 0.80972(18)
O1A O 0.4379(7) -0.0225(6) 0.6281(5)
O2A O 0.2338(7) 0.2355(6) 0.6126(5)
O3A O 0.4795(7) -0.3837(6) 0.7778(5)
O4A O 0.1653(7) -0.2027(8) 0.6893(6)
O5A O 0.2262(9) -0.4431(8) 0.8999(6)
O8A O 0.9996(7) -0.4367(7) 0.6199(6)
H1A H 1.0633 -0.4103 0.6683
H2A H 1.0275 -0.5489 0.6425
O9A O 0.8251(8) -0.4002(8) 0.8327(6)
H3A H 0.9416 -0.4433 0.8332
H4A H 0.8020 -0.4562 0.9095
O10A O 0.8127(7) -0.0756(6) 0.6118(6)
H5A H 0.9279 -0.1136 0.6041
H6A H 0.7618 0.0277 0.5558
C1A C 0.3209(9) 0.0780(9) 0.6797(7)
C2A C 0.2904(10) 0.0136(9) 0.8233(7)
C3A C 0.2881(10) -0.1576(9) 0.8932(7)
C4A C 0.2667(13) -0.2039(11) 1.0284(9)
H7A H 0.2641 -0.3171 1.0739
C5A C 0.2493(15) -0.0881(12) 1.0975(9)
H8A H 0.2365 -0.1226 1.1886
C6A C 0.2513(16) 0.0796(13) 1.0297(10)
H9A H 0.2395 0.1598 1.0750
C7A C 0.2707(12) 0.1294(10) 0.8949(9)
H10A H 0.2707 0.2439 0.8504
Tb1A_2 Tb 0.66654(4) 0.72234(4) 0.61013(3)
O6A_2 O 0.4168(6) -0.2732(6) 0.4774(5)
O7_2 O 0.7082(7) -0.5647(6) 0.5936(5)
loop_
_geom_bond_atom_site_label_1
_geom_bond_atom_site_label_2
_geom_bond_site_symmetry_1
_geom_bond_site_symmetry_2
Tb1 O1 1_555 1_555
S1 O3 1_555 1_555
O1 C1 1_555 1_555
O2 C1 1_555 1_555
O3 Tb1 1_555 1_555
O4 S1 1_555 1_555
O5 S1 1_555 1_555
O6 Tb1 1_555 1_555
O7 C8 1_555 1_555
O8 Tb1 1_555 1_555
H1 O8 1_555 1_555
H2 O8 1_555 1_555
O9 Tb1 1_555 1_555
H3 O9 1_555 1_555
H4 O9 1_555 1_555
O10 Tb1 1_555 1_555
H5 O10 1_555 1_555
H6 O10 1_555 1_555
C1 C2 1_555 1_555
C2 C3 1_555 1_555
C3 S1 1_555 1_555
C4 C3 1_555 1_555
H7 C4 1_555 1_555
C5 C4 1_555 1_555
H8 C5 1_555 1_555
C6 C5 1_555 1_555
H9 C6 1_555 1_555
C7 C2 1_555 1_555
H10 C7 1_555 1_555
C8 O6 1_555 1_555
O6A C8A 1_555 1_555
O7A Tb1 1_555 1_555
C8A C8 1_555 1_555
Tb1A O1 1_555 1_555
S1A O3A 1_555 1_555
O1A Tb1 1_555 1_555
O2A Tb1 1_555 1_555
O3A Tb1A 1_555 1_555
O4A S1A 1_555 1_555
O5A S1A 1_555 1_555
O8A Tb1A 1_555 1_555
H1A O8A 1_555 1_555
H2A O8A 1_555 1_555
O9A Tb1A 1_555 1_555
H3A O9A 1_555 1_555
H4A O9A 1_555 1_555
O10A Tb1A 1_555 1_555
H5A O10A 1_555 1_555
H6A O10A 1_555 1_555
C1A O1A 1_555 1_555
C2A C1A 1_555 1_555
C3A S1A 1_555 1_555
C4A C3A 1_555 1_555
H7A C4A 1_555 1_555
C5A C4A 1_555 1_555
H8A C5A 1_555 1_555
C6A C5A 1_555 1_555
H9A C6A 1_555 1_555
C7A C2A 1_555 1_555
H10A C7A 1_555 1_555
Tb1A_2 O7 1_555 1_555
O6A_2 Tb1A 1_555 1_555
O7_2 Tb1A 1_555 1_555
O2 Tb1A 1_555 1_555
C6 C7 1_555 1_555
O6A Tb1A_2 1_555 1_555
O7A C8A 1_555 1_555
Tb1A O1A 1_555 1_555
O2A C1A 1_555 1_555
C2A C3A 1_555 1_555
C6A C7A 1_555 1_555

#END
