
#######################################################################
#
#                 Cambridge Crystallographic Data Centre
#                                CCDC 
#
#######################################################################
#
# If this CIF has been generated from an entry in the Cambridge 
# Structural Database, then it will include bibliographic, chemical, 
# crystal, experimental, refinement or atomic coordinate data resulting 
# from the CCDC's data processing and validation procedures.
#
#######################################################################

data_PEQSOV
_symmetry_cell_setting           triclinic
_symmetry_space_group_name_H-M   'P -1'
_symmetry_Int_Tables_number      2
_space_group_name_Hall           '-P 1'
loop_
_symmetry_equiv_pos_site_id
_symmetry_equiv_pos_as_xyz
1 x,y,z
2 -x,-y,-z
_cell_length_a                   7.7830(4)
_cell_length_b                   8.5820(4)
_cell_length_c                   10.7097(5)
_cell_angle_alpha                70.505(4)
_cell_angle_beta                 87.445(4)
_cell_angle_gamma                70.530(5)
_cell_volume                     633.979
loop_
_atom_site_label
_atom_site_type_symbol
_atom_site_fract_x
_atom_site_fract_y
_atom_site_fract_z
Nd1 Nd 0.33360(3) 0.77172(3) 0.39115(2)
S1 S 0.71436(16) 0.80278(15) 0.18820(12)
O1 O 0.5683(4) 0.5122(4) 0.3732(3)
O2 O 0.7736(5) 0.2617(4) 0.3824(3)
O3 O 0.5256(4) 0.8779(4) 0.2180(3)
O4 O 0.8335(4) 0.6978(4) 0.3083(3)
O5 O 0.7792(5) 0.9362(4) 0.0993(3)
O6 O 0.2939(4) 1.0614(4) 0.4081(3)
O7 O 0.4146(4) 1.2236(4) 0.4775(3)
O8 O -0.0053(4) 0.9312(4) 0.3833(3)
H1 H -0.0682 0.9054 0.3354
H2 H -0.0323 1.0419 0.3599
O9 O 0.1728(4) 0.8971(4) 0.1641(3)
H3 H 0.0571 0.9368 0.1644
H4 H 0.1949 0.9560 0.0878
O10 O 0.1830(4) 0.5658(4) 0.3880(3)
H5 H 0.0685 0.6031 0.3953
H6 H 0.2326 0.4634 0.4438
C1 C 0.6849(6) 0.4177(5) 0.3176(5)
C2 C 0.7107(6) 0.4858(6) 0.1728(5)
C3 C 0.7162(6) 0.6552(6) 0.1029(5)
C4 C 0.7322(8) 0.7079(7) -0.0309(5)
H7 H 0.7335 0.8207 -0.0761
C5 C 0.7465(9) 0.5936(7) -0.0996(5)
H8 H 0.7555 0.6301 -0.1910
C6 C 0.7475(9) 0.4267(7) -0.0328(6)
H9 H 0.7602 0.3490 -0.0786
C7 C 0.7297(8) 0.3740(6) 0.1006(5)
H10 H 0.7303 0.2603 0.1444
C8 C 0.4148(6) 1.0821(5) 0.4664(4)
O6A O 0.7061(4) 0.9386(4) 0.5919(3)
O7A O 0.5854(4) 0.7764(4) 0.5225(3)
C8A C 0.5852(6) 0.9179(5) 0.5336(4)
Nd1A Nd 0.66640(3) 0.22828(3) 0.60885(2)
S1A S 0.28564(16) 0.19722(15) 0.81180(12)
O1A O 0.4317(4) 0.4878(4) 0.6268(3)
O2A O 0.2264(5) 0.7383(4) 0.6176(3)
O3A O 0.4744(4) 0.1221(4) 0.7820(3)
O4A O 0.1665(4) 0.3022(4) 0.6917(3)
O5A O 0.2208(5) 0.0638(4) 0.9007(3)
O8A O 1.0053(4) 0.0688(4) 0.6167(3)
H1A H 1.0682 0.0946 0.6646
H2A H 1.0323 -0.0419 0.6401
O9A O 0.8272(4) 0.1029(4) 0.8359(3)
H3A H 0.9429 0.0632 0.8356
H4A H 0.8051 0.0440 0.9122
O10A O 0.8170(4) 0.4342(4) 0.6120(3)
H5A H 0.9315 0.3969 0.6047
H6A H 0.7674 0.5366 0.5562
C1A C 0.3151(6) 0.5823(5) 0.6824(5)
C2A C 0.2893(6) 0.5142(6) 0.8272(5)
C3A C 0.2838(6) 0.3448(6) 0.8971(5)
C4A C 0.2678(8) 0.2921(7) 1.0309(5)
H7A H 0.2665 0.1793 1.0761
C5A C 0.2535(9) 0.4064(7) 1.0996(5)
H8A H 0.2445 0.3699 1.1910
C6A C 0.2525(9) 0.5733(7) 1.0328(6)
H9A H 0.2398 0.6510 1.0786
C7A C 0.2703(8) 0.6260(6) 0.8994(5)
H10A H 0.2697 0.7397 0.8556
Nd1A_2 Nd 0.66640(3) 1.22828(3) 0.60885(2)
O6A_2 O 0.7061(4) -0.0614(4) 0.5919(3)
O7_2 O 0.4146(4) 0.2236(4) 0.4775(3)
loop_
_geom_bond_atom_site_label_1
_geom_bond_atom_site_label_2
_geom_bond_site_symmetry_1
_geom_bond_site_symmetry_2
Nd1 O1 1_555 1_555
S1 O3 1_555 1_555
O1 C1 1_555 1_555
O2 C1 1_555 1_555
O3 Nd1 1_555 1_555
O4 S1 1_555 1_555
O5 S1 1_555 1_555
O6 Nd1 1_555 1_555
O7 C8 1_555 1_555
O8 Nd1 1_555 1_555
H1 O8 1_555 1_555
H2 O8 1_555 1_555
O9 Nd1 1_555 1_555
H3 O9 1_555 1_555
H4 O9 1_555 1_555
O10 Nd1 1_555 1_555
H5 O10 1_555 1_555
H6 O10 1_555 1_555
C1 C2 1_555 1_555
C2 C3 1_555 1_555
C3 S1 1_555 1_555
C4 C3 1_555 1_555
H7 C4 1_555 1_555
C5 C4 1_555 1_555
H8 C5 1_555 1_555
C6 C5 1_555 1_555
H9 C6 1_555 1_555
C7 C2 1_555 1_555
H10 C7 1_555 1_555
C8 O6 1_555 1_555
O6A C8A 1_555 1_555
O7A Nd1 1_555 1_555
C8A C8 1_555 1_555
Nd1A O1 1_555 1_555
S1A O3A 1_555 1_555
O1A Nd1 1_555 1_555
O2A Nd1 1_555 1_555
O3A Nd1A 1_555 1_555
O4A S1A 1_555 1_555
O5A S1A 1_555 1_555
O8A Nd1A 1_555 1_555
H1A O8A 1_555 1_555
H2A O8A 1_555 1_555
O9A Nd1A 1_555 1_555
H3A O9A 1_555 1_555
H4A O9A 1_555 1_555
O10A Nd1A 1_555 1_555
H5A O10A 1_555 1_555
H6A O10A 1_555 1_555
C1A O1A 1_555 1_555
C2A C1A 1_555 1_555
C3A S1A 1_555 1_555
C4A C3A 1_555 1_555
H7A C4A 1_555 1_555
C5A C4A 1_555 1_555
H8A C5A 1_555 1_555
C6A C5A 1_555 1_555
H9A C6A 1_555 1_555
C7A C2A 1_555 1_555
H10A C7A 1_555 1_555
Nd1A_2 O7 1_555 1_555
O6A_2 Nd1A 1_555 1_555
O7_2 Nd1A 1_555 1_555
O2 Nd1A 1_555 1_555
C6 C7 1_555 1_555
O6A Nd1A_2 1_555 1_555
O7A C8A 1_555 1_555
Nd1A O1A 1_555 1_555
O2A C1A 1_555 1_555
C2A C3A 1_555 1_555
C6A C7A 1_555 1_555

#END
