
#######################################################################
#
#                 Cambridge Crystallographic Data Centre
#                                CCDC 
#
#######################################################################
#
# If this CIF has been generated from an entry in the Cambridge 
# Structural Database, then it will include bibliographic, chemical, 
# crystal, experimental, refinement or atomic coordinate data resulting 
# from the CCDC's data processing and validation procedures.
#
#######################################################################

data_PEQSEL
_symmetry_cell_setting           triclinic
_symmetry_space_group_name_H-M   'P -1'
_symmetry_Int_Tables_number      2
_space_group_name_Hall           '-P 1'
loop_
_symmetry_equiv_pos_site_id
_symmetry_equiv_pos_as_xyz
1 x,y,z
2 -x,-y,-z
_cell_length_a                   7.7588(5)
_cell_length_b                   8.5154(4)
_cell_length_c                   10.6518(7)
_cell_angle_alpha                70.875(5)
_cell_angle_beta                 87.814(5)
_cell_angle_gamma                70.337(5)
_cell_volume                     624.082
loop_
_atom_site_label
_atom_site_type_symbol
_atom_site_fract_x
_atom_site_fract_y
_atom_site_fract_z
S1 S 0.28760(17) 0.19481(16) 0.31015(12)
O1 O 0.4343(5) 0.4829(4) 0.1269(3)
O2 O 0.2302(6) 0.7384(4) 0.1153(4)
O3 O 0.4765(5) 0.1187(5) 0.2792(4)
O4 O 0.1658(5) 0.3001(6) 0.1899(4)
O5 O 0.2237(6) 0.0602(5) 0.4001(4)
C1 C 0.3190(7) 0.5799(6) 0.1811(5)
C2 C 0.2898(7) 0.5138(6) 0.3256(5)
C3 C 0.2857(7) 0.3450(7) 0.3954(5)
C4 C 0.2669(10) 0.2939(8) 0.5303(6)
H1 H 0.2650 0.1808 0.5755
C5 C 0.2511(12) 0.4093(9) 0.5990(6)
H2 H 0.2395 0.3739 0.6904
C6 C 0.2524(11) 0.5743(9) 0.5332(6)
H3 H 0.2396 0.6527 0.5793
C7 C 0.2726(10) 0.6276(7) 0.3971(6)
H4 H 0.2747 0.7411 0.3534
O6 O 0.7077(5) -0.0627(4) 0.0928(4)
O7 O 0.5835(5) -0.2249(4) 0.0229(4)
C8 C 0.5844(6) -0.0835(6) 0.0340(5)
O8 O 1.0013(5) 0.0666(5) 0.1183(4)
H5 H 1.0293 -0.0450 0.1414
H6 H 1.0646 0.0929 0.1664
O9 O 0.8253(6) 0.1009(5) 0.3340(4)
H7 H 0.8032 0.0432 0.4108
H8 H 0.9414 0.0593 0.3343
O10 O 0.8141(5) 0.4282(5) 0.1116(4)
H9 H 0.7636 0.5313 0.0557
H10 H 0.9289 0.3904 0.1040
Eu1 Eu 0.66598(3) 0.22514(3) 0.10936(2)
O6A O 0.2923(5) 0.0627(4) -0.0928(4)
O7A O 0.4165(5) 0.2249(4) -0.0229(4)
C8A C 0.4156(6) 0.0835(6) -0.0340(5)
S1A S 0.71240(17) -0.19481(16) -0.31015(12)
O1A O 0.5657(5) -0.4829(4) -0.1269(3)
O2A O 0.7698(6) -0.7384(4) -0.1153(4)
O3A O 0.5235(5) -0.1187(5) -0.2792(4)
O4A O 0.8342(5) -0.3001(6) -0.1899(4)
O5A O 0.7763(6) -0.0602(5) -0.4001(4)
C1A C 0.6810(7) -0.5799(6) -0.1811(5)
C2A C 0.7102(7) -0.5138(6) -0.3256(5)
C3A C 0.7143(7) -0.3450(7) -0.3954(5)
C4A C 0.7331(10) -0.2939(8) -0.5303(6)
H1A H 0.7350 -0.1808 -0.5755
C5A C 0.7489(12) -0.4093(9) -0.5990(6)
H2A H 0.7605 -0.3739 -0.6904
C6A C 0.7476(11) -0.5743(9) -0.5332(6)
H3A H 0.7604 -0.6527 -0.5793
C7A C 0.7274(10) -0.6276(7) -0.3971(6)
H4A H 0.7253 -0.7411 -0.3534
O8A O -0.0013(5) -0.0666(5) -0.1183(4)
H5A H -0.0293 0.0450 -0.1414
H6A H -0.0646 -0.0929 -0.1664
O9A O 0.1747(6) -0.1009(5) -0.3340(4)
H7A H 0.1968 -0.0432 -0.4108
H8A H 0.0586 -0.0593 -0.3343
O10A O 0.1859(5) -0.4282(5) -0.1116(4)
H9A H 0.2364 -0.5313 -0.0557
H10A H 0.0711 -0.3904 -0.1040
Eu1A Eu 0.33402(3) -0.22514(3) -0.10936(2)
O1_2 O 0.4343(5) -0.5171(4) 0.1269(3)
O1A_2 O 0.5657(5) 0.5171(4) -0.1269(3)
O2_2 O 0.2302(6) -0.2616(4) 0.1153(4)
O2A_2 O 0.7698(6) 0.2616(4) -0.1153(4)
Eu1_2 Eu 0.66598(3) -0.77486(3) 0.10936(2)
Eu1A_2 Eu 0.33402(3) 0.77486(3) -0.10936(2)
loop_
_geom_bond_atom_site_label_1
_geom_bond_atom_site_label_2
_geom_bond_site_symmetry_1
_geom_bond_site_symmetry_2
S1 O3 1_555 1_555
O1 C1 1_555 1_555
O2 C1 1_555 1_555
O3 Eu1 1_555 1_555
O4 S1 1_555 1_555
O5 S1 1_555 1_555
C1 C2 1_555 1_555
C2 C3 1_555 1_555
C3 S1 1_555 1_555
C4 C3 1_555 1_555
H1 C4 1_555 1_555
C5 C4 1_555 1_555
H2 C5 1_555 1_555
C6 C5 1_555 1_555
H3 C6 1_555 1_555
C7 C2 1_555 1_555
H4 C7 1_555 1_555
O6 C8 1_555 1_555
O7 C8 1_555 1_555
C8 C8A 1_555 1_555
O8 H5 1_555 1_555
H6 O8 1_555 1_555
O9 H7 1_555 1_555
H8 O9 1_555 1_555
O10 H9 1_555 1_555
H10 O10 1_555 1_555
Eu1 O1 1_555 1_555
O6A C8A 1_555 1_555
O7A Eu1 1_555 1_555
C8A O7A 1_555 1_555
S1A O3A 1_555 1_555
O1A C1A 1_555 1_555
O2A C1A 1_555 1_555
O3A Eu1A 1_555 1_555
O4A S1A 1_555 1_555
O5A S1A 1_555 1_555
C1A C2A 1_555 1_555
C2A C3A 1_555 1_555
C3A S1A 1_555 1_555
C4A C3A 1_555 1_555
H1A C4A 1_555 1_555
C5A C4A 1_555 1_555
H2A C5A 1_555 1_555
C6A C5A 1_555 1_555
H3A C6A 1_555 1_555
C7A C2A 1_555 1_555
H4A C7A 1_555 1_555
O8A H5A 1_555 1_555
H6A O8A 1_555 1_555
O9A H7A 1_555 1_555
H8A O9A 1_555 1_555
O10A H9A 1_555 1_555
H10A O10A 1_555 1_555
Eu1A O7 1_555 1_555
O1_2 Eu1A 1_555 1_555
O1A_2 Eu1 1_555 1_555
O2_2 Eu1A 1_555 1_555
O2A_2 Eu1 1_555 1_555
Eu1_2 O1A 1_555 1_555
Eu1A_2 O1 1_555 1_555
O2 Eu1A_2 1_555 1_555
C6 C7 1_555 1_555
O6 Eu1 1_555 1_555
O8 Eu1 1_555 1_555
O9 Eu1 1_555 1_555
O10 Eu1 1_555 1_555
O6A Eu1A 1_555 1_555
O1A Eu1A 1_555 1_555
O2A Eu1_2 1_555 1_555
C6A C7A 1_555 1_555
O8A Eu1A 1_555 1_555
O9A Eu1A 1_555 1_555
O10A Eu1A 1_555 1_555
O1_2 Eu1_2 1_555 1_555
O1A_2 Eu1A_2 1_555 1_555

#END
