
#######################################################################
#
#                 Cambridge Crystallographic Data Centre
#                                CCDC 
#
#######################################################################
#
# If this CIF has been generated from an entry in the Cambridge 
# Structural Database, then it will include bibliographic, chemical, 
# crystal, experimental, refinement or atomic coordinate data resulting 
# from the CCDC's data processing and validation procedures.
#
#######################################################################

data_PEQSUB
_symmetry_cell_setting           triclinic
_symmetry_space_group_name_H-M   'P -1'
_symmetry_Int_Tables_number      2
_space_group_name_Hall           '-P 1'
loop_
_symmetry_equiv_pos_site_id
_symmetry_equiv_pos_as_xyz
1 x,y,z
2 -x,-y,-z
_cell_length_a                   7.8239(4)
_cell_length_b                   8.6649(8)
_cell_length_c                   10.8262(7)
_cell_angle_alpha                70.125(7)
_cell_angle_beta                 87.220(5)
_cell_angle_gamma                70.710(6)
_cell_volume                     649.792
loop_
_atom_site_label
_atom_site_type_symbol
_atom_site_fract_x
_atom_site_fract_y
_atom_site_fract_z
La1 La 0.66827(2) 0.22974(3) 0.110250(19)
S1 S 0.28426(12) 0.19954(13) 0.31385(9)
O1 O 0.4272(3) 0.4920(4) 0.1277(3)
O2 O 0.2214(4) 0.7379(4) 0.1205(3)
O3 O 0.4725(3) 0.1235(4) 0.2871(3)
O4 O 0.1690(4) 0.3032(4) 0.1934(3)
O5 O 0.2160(4) 0.0687(4) 0.4018(3)
O6 O 0.7040(4) -0.0612(4) 0.0920(3)
O7 O 0.5859(3) -0.2207(4) 0.0215(3)
O8 O 1.0112(4) 0.0688(4) 0.1175(3)
H1 H 1.0375 -0.0410 0.1409
H2 H 1.0740 0.0940 0.1647
O9 O 0.8342(4) 0.1027(4) 0.3392(3)
H3 H 0.8127 0.0420 0.4145
H4 H 0.9490 0.0656 0.3379
O10 O 0.8197(4) 0.4423(4) 0.1115(3)
H5 H 0.7701 0.5436 0.0558
H6 H 0.9335 0.4065 0.1045
C1 C 0.3124(5) 0.5834(5) 0.1835(4)
C2 C 0.2872(5) 0.5128(6) 0.3286(4)
C3 C 0.2825(5) 0.3463(6) 0.3962(4)
C4 C 0.2666(7) 0.2935(7) 0.5308(4)
H7 H 0.2656 0.1813 0.5761
C5 C 0.2520(8) 0.4066(7) 0.5986(5)
H8 H 0.2405 0.3708 0.6890
C6 C 0.2546(8) 0.5698(7) 0.5327(5)
H9 H 0.2451 0.6457 0.5782
C7 C 0.2713(7) 0.6241(6) 0.3984(4)
H10 H 0.2719 0.7366 0.3543
C8 C 0.5836(4) -0.0827(5) 0.0339(3)
O6A O 0.2960(4) 0.0612(4) -0.0920(3)
O7A O 0.4141(3) 0.2207(4) -0.0215(3)
C8A C 0.4164(4) 0.0827(5) -0.0339(3)
La1A La 0.33173(2) -0.22974(3) -0.110250(19)
S1A S 0.71574(12) -0.19954(13) -0.31385(9)
O1A O 0.5728(3) -0.4920(4) -0.1277(3)
O2A O 0.7786(4) -0.7379(4) -0.1205(3)
O3A O 0.5275(3) -0.1235(4) -0.2871(3)
O4A O 0.8310(4) -0.3032(4) -0.1934(3)
O5A O 0.7840(4) -0.0687(4) -0.4018(3)
O8A O -0.0112(4) -0.0688(4) -0.1175(3)
H1A H -0.0375 0.0410 -0.1409
H2A H -0.0740 -0.0940 -0.1647
O9A O 0.1658(4) -0.1027(4) -0.3392(3)
H3A H 0.1873 -0.0420 -0.4145
H4A H 0.0510 -0.0656 -0.3379
O10A O 0.1803(4) -0.4423(4) -0.1115(3)
H5A H 0.2299 -0.5436 -0.0558
H6A H 0.0665 -0.4065 -0.1045
C1A C 0.6876(5) -0.5834(5) -0.1835(4)
C2A C 0.7128(5) -0.5128(6) -0.3286(4)
C3A C 0.7175(5) -0.3463(6) -0.3962(4)
C4A C 0.7334(7) -0.2935(7) -0.5308(4)
H7A H 0.7344 -0.1813 -0.5761
C5A C 0.7480(8) -0.4066(7) -0.5986(5)
H8A H 0.7595 -0.3708 -0.6890
C6A C 0.7454(8) -0.5698(7) -0.5327(5)
H9A H 0.7549 -0.6457 -0.5782
C7A C 0.7287(7) -0.6241(6) -0.3984(4)
H10A H 0.7281 -0.7366 -0.3543
La1_2 La 0.66827(2) -0.77026(3) 0.110250(19)
La1A_2 La 0.33173(2) 0.77026(3) -0.110250(19)
O1_2 O 0.4272(3) -0.5080(4) 0.1277(3)
O1A_2 O 0.5728(3) 0.5080(4) -0.1277(3)
O2_2 O 0.2214(4) -0.2621(4) 0.1205(3)
O2A_2 O 0.7786(4) 0.2621(4) -0.1205(3)
loop_
_geom_bond_atom_site_label_1
_geom_bond_atom_site_label_2
_geom_bond_site_symmetry_1
_geom_bond_site_symmetry_2
La1 O1 1_555 1_555
S1 O3 1_555 1_555
O1 C1 1_555 1_555
O2 C1 1_555 1_555
O3 La1 1_555 1_555
O4 S1 1_555 1_555
O5 S1 1_555 1_555
O6 La1 1_555 1_555
O7 C8 1_555 1_555
O8 La1 1_555 1_555
H1 O8 1_555 1_555
H2 O8 1_555 1_555
O9 La1 1_555 1_555
H3 O9 1_555 1_555
H4 O9 1_555 1_555
O10 La1 1_555 1_555
H5 O10 1_555 1_555
H6 O10 1_555 1_555
C1 C2 1_555 1_555
C2 C3 1_555 1_555
C3 S1 1_555 1_555
C4 C3 1_555 1_555
H7 C4 1_555 1_555
C5 C4 1_555 1_555
H8 C5 1_555 1_555
C6 C5 1_555 1_555
H9 C6 1_555 1_555
C7 C2 1_555 1_555
H10 C7 1_555 1_555
C8 O6 1_555 1_555
O6A C8A 1_555 1_555
O7A La1 1_555 1_555
C8A C8 1_555 1_555
La1A O7 1_555 1_555
S1A O3A 1_555 1_555
O1A La1A 1_555 1_555
O2A C1A 1_555 1_555
O3A La1A 1_555 1_555
O4A S1A 1_555 1_555
O5A S1A 1_555 1_555
O8A La1A 1_555 1_555
H1A O8A 1_555 1_555
H2A O8A 1_555 1_555
O9A La1A 1_555 1_555
H3A O9A 1_555 1_555
H4A O9A 1_555 1_555
O10A La1A 1_555 1_555
H5A O10A 1_555 1_555
H6A O10A 1_555 1_555
C1A O1A 1_555 1_555
C2A C1A 1_555 1_555
C3A S1A 1_555 1_555
C4A C3A 1_555 1_555
H7A C4A 1_555 1_555
C5A C4A 1_555 1_555
H8A C5A 1_555 1_555
C6A C5A 1_555 1_555
H9A C6A 1_555 1_555
C7A C2A 1_555 1_555
H10A C7A 1_555 1_555
La1_2 O1A 1_555 1_555
La1A_2 O1 1_555 1_555
O1_2 La1A 1_555 1_555
O1A_2 La1 1_555 1_555
O2_2 La1A 1_555 1_555
O2A_2 La1 1_555 1_555
O2 La1A_2 1_555 1_555
C6 C7 1_555 1_555
O6A La1A 1_555 1_555
O7A C8A 1_555 1_555
O2A La1_2 1_555 1_555
C2A C3A 1_555 1_555
C6A C7A 1_555 1_555
La1_2 O1_2 1_555 1_555
La1A_2 O1A_2 1_555 1_555

#END
