
#######################################################################
#
#                 Cambridge Crystallographic Data Centre
#                                CCDC 
#
#######################################################################
#
# If this CIF has been generated from an entry in the Cambridge 
# Structural Database, then it will include bibliographic, chemical, 
# crystal, experimental, refinement or atomic coordinate data resulting 
# from the CCDC's data processing and validation procedures.
#
#######################################################################

data_PEQTOV
_symmetry_cell_setting           monoclinic
_symmetry_space_group_name_H-M   'P 21/n'
_symmetry_Int_Tables_number      14
_space_group_name_Hall           '-P 2yn'
loop_
_symmetry_equiv_pos_site_id
_symmetry_equiv_pos_as_xyz
1 x,y,z
2 1/2-x,1/2+y,1/2-z
3 -x,-y,-z
4 1/2+x,1/2-y,1/2+z
_cell_length_a                   9.7541(13)
_cell_length_b                   17.7404(15)
_cell_length_c                   14.6321(6)
_cell_angle_alpha                90
_cell_angle_beta                 97.280(3)
_cell_angle_gamma                90
_cell_volume                     2511.55
loop_
_atom_site_label
_atom_site_type_symbol
_atom_site_fract_x
_atom_site_fract_y
_atom_site_fract_z
N1 N 0.1038(7) 0.4909(5) 0.3657(5)
H1 H 0.1831 0.4727 0.3577
N2 N -0.1029(8) 0.4969(8) 0.3888(6)
H2 H -0.1844 0.4840 0.3994
C9 C -0.0039(11) 0.4511(7) 0.3784(7)
H3 H -0.0086 0.3987 0.3798
C10 C 0.0726(11) 0.5652(7) 0.3669(8)
H4 H 0.1318 0.6052 0.3596
C11 C -0.0577(14) 0.5696(9) 0.3804(9)
H5 H -0.1093 0.6134 0.3836
N3 N -0.1004(14) 0.4362(11) 0.1348(9)
H6 H -0.1724 0.4102 0.1427
N4 N 0.0349(17) 0.5237(8) 0.1246(8)
H7 H 0.0675 0.5688 0.1256
C12 C -0.0849(11) 0.5092(7) 0.1389(8)
H8 H -0.1516 0.5442 0.1506
C13 C 0.0281(17) 0.4099(8) 0.1142(10)
H9 H 0.0531 0.3600 0.1062
C14 C 0.1035(8) 0.4676(7) 0.1086(7)
H10 H 0.1941 0.4678 0.0950
O19 O 0.7947(9) 0.7733(5) 0.3503(5)
H15 H 0.8504 0.8107 0.3527
H16 H 0.8461 0.7337 0.3433
O20 O 0.3123(11) 0.3092(7) 0.1070(6)
H17 H 0.340(14) 0.350(5) 0.086(11)
H18 H 0.383(11) 0.280(7) 0.113(13)
Bi1 Bi 0.49174(2) 0.622230(13) 0.158895(17)
Bi2 Bi 0.52204(2) 0.336037(12) 0.411873(17)
O1 O 0.6126(5) 0.5004(3) 0.2034(4)
O2 O 0.3732(5) 0.5453(3) 0.2635(4)
O3 O 0.3701(5) 0.5081(3) 0.0713(4)
O4 O 0.4325(6) 0.4089(3) -0.0063(4)
O5 O 0.3216(6) 0.6974(3) 0.2276(3)
O6 O 0.3066(5) 0.6745(3) 0.0446(4)
O7 O 0.7461(5) 0.6365(3) 0.1601(4)
O8 O 0.5598(5) 0.7498(3) 0.1290(4)
O9 O 0.5791(5) 0.3852(3) 0.2579(4)
O10 O 0.3585(5) 0.4352(3) 0.3318(4)
O11 O 0.1491(5) 0.7791(3) 0.2048(3)
O12 O 0.1462(5) 0.7628(3) 0.0213(3)
O13 O 0.4153(5) 0.4167(3) 0.5263(3)
O14 O 0.3666(5) 0.5360(3) 0.5564(4)
O15 O 0.7280(5) 0.8254(3) 0.0957(4)
O16 O 0.9076(5) 0.7092(3) 0.1165(4)
C1 C 0.5484(7) 0.4527(4) 0.2437(5)
C2 C 0.4150(7) 0.4805(4) 0.2814(4)
C3 C 0.4426(7) 0.4759(4) 0.0184(5)
C4 C 0.2338(7) 0.7339(4) 0.1771(5)
C5 C 0.2289(7) 0.7227(4) 0.0719(5)
C6 C 0.7865(7) 0.6969(4) 0.1329(5)
C7 C 0.6821(7) 0.7632(4) 0.1171(5)
C8 C 0.4373(6) 0.4858(4) 0.5239(5)
O17 O 0.5988(6) 0.6639(3) 0.3172(4)
H12 H 0.5416 0.6996 0.3246
O18 O 0.6397(6) 0.3037(4) 0.5664(4)
H13 H 0.6849 0.3429 0.5896
H14 H 0.5604 0.3062 0.5855
C3B C 0.5574(7) 0.5241(4) -0.0184(5)
O3B O 0.6299(5) 0.4919(3) -0.0713(4)
O4B O 0.5675(6) 0.5911(3) 0.0063(4)
C8B C 0.5627(6) 0.5142(4) 0.4761(5)
O13B O 0.5847(5) 0.5833(3) 0.4737(3)
O14B O 0.6334(5) 0.4640(3) 0.4436(4)
Bi1B Bi 0.50826(2) 0.377770(13) -0.158895(17)
Bi2A Bi -0.02204(2) 0.836037(12) 0.088127(17)
O5A O 0.1784(6) 0.1974(3) 0.2724(3)
O6A O 0.1934(5) 0.1745(3) 0.4554(4)
O11A O 0.3509(5) 0.2791(3) 0.2952(3)
O12A O 0.3538(5) 0.2628(3) 0.4787(3)
C4A C 0.2662(7) 0.2339(4) 0.3229(5)
C5A C 0.2711(7) 0.2227(4) 0.4281(5)
O7A O 0.7539(5) 0.1365(3) 0.3399(4)
O8A O 0.9402(5) 0.2498(3) 0.3710(4)
O15A O 0.7720(5) 0.3254(3) 0.4043(4)
O16A O 0.5924(5) 0.2092(3) 0.3835(4)
C6A C 0.7135(7) 0.1969(4) 0.3671(5)
C7A C 0.8179(7) 0.2632(4) 0.3829(5)
O1B O 0.3874(5) 0.4996(3) -0.2034(4)
O2B O 0.6268(5) 0.4547(3) -0.2635(4)
O9B O 0.4209(5) 0.6148(3) -0.2579(4)
O10B O 0.6415(5) 0.5648(3) -0.3318(4)
C1B C 0.4516(7) 0.5473(4) -0.2437(5)
C2B C 0.5850(7) 0.5195(4) -0.2814(4)
O17B O 0.4012(6) 0.3361(3) -0.3172(4)
H12B H 0.4584 0.3004 -0.3246
O18A O -0.1397(6) 0.8037(4) -0.0664(4)
H13A H -0.1849 0.8429 -0.0896
H14A H -0.0604 0.8062 -0.0855
Bi2B Bi 0.47796(2) 0.663963(12) 0.588127(17)
Bi2A_2 Bi 0.97796(2) 0.836037(12) 0.088127(17)
O5B O 0.6784(6) 0.3026(3) -0.2276(3)
O6B O 0.6934(5) 0.3255(3) -0.0446(4)
O7B O 0.2539(5) 0.3635(3) -0.1601(4)
O8B O 0.4402(5) 0.2502(3) -0.1290(4)
O9A O -0.0791(5) 0.8852(3) 0.2421(4)
O10A O 0.1415(5) 0.9352(3) 0.1682(4)
O13A O 0.0847(5) 0.9167(3) -0.0263(3)
O14C O -0.1334(5) 0.9640(3) 0.0564(4)
O15_2 O -0.2720(5) 0.8254(3) 0.0957(4)
O16_2 O -0.0924(5) 0.7092(3) 0.1165(4)
Bi1A Bi 0.00826(2) 0.122230(13) 0.341105(17)
Bi1A_2 Bi 1.00826(2) 0.122230(13) 0.341105(17)
Bi2B_2 Bi 0.47796(2) 0.663963(12) -0.411873(17)
H11? H 0.5754 0.6479 0.2613
loop_
_geom_bond_atom_site_label_1
_geom_bond_atom_site_label_2
_geom_bond_site_symmetry_1
_geom_bond_site_symmetry_2
Bi1 O1 1_555 1_555
Bi2 O9 1_555 1_555
O1 C1 1_555 1_555
O2 Bi1 1_555 1_555
O3 Bi1 1_555 1_555
O4 C3 1_555 1_555
O5 Bi1 1_555 1_555
O6 Bi1 1_555 1_555
O7 Bi1 1_555 1_555
O8 Bi1 1_555 1_555
O9 C1 1_555 1_555
O10 Bi2 1_555 1_555
O11 C4 1_555 1_555
O12 C5 1_555 1_555
O13 Bi2 1_555 1_555
O14 C8 1_555 1_555
O15 C7 1_555 1_555
O16 C6 1_555 1_555
C1 C2 1_555 1_555
C2 O2 1_555 1_555
C3 O3 1_555 1_555
C4 O5 1_555 1_555
C5 O6 1_555 1_555
C6 O7 1_555 1_555
C7 O8 1_555 1_555
C8 O13 1_555 1_555
N1 H1 1_555 1_555
N2 H2 1_555 1_555
C9 N1 1_555 1_555
H3 C9 1_555 1_555
C10 N1 1_555 1_555
H4 C10 1_555 1_555
C11 N2 1_555 1_555
H5 C11 1_555 1_555
N3 H6 1_555 1_555
N4 H7 1_555 1_555
C12 N3 1_555 1_555
H8 C12 1_555 1_555
C13 N3 1_555 1_555
H9 C13 1_555 1_555
C14 N4 1_555 1_555
H10 C14 1_555 1_555
O17 Bi1 1_555 1_555
H12 O17 1_555 1_555
O18 Bi2 1_555 1_555
H13 O18 1_555 1_555
H14 O18 1_555 1_555
O19 H15 1_555 1_555
H16 O19 1_555 1_555
O20 H17 1_555 1_555
H18 O20 1_555 1_555
C3B C3 1_555 1_555
O3B C3B 1_555 1_555
O4B Bi1 1_555 1_555
C8B C8 1_555 1_555
O13B C8B 1_555 1_555
O14B Bi2 1_555 1_555
Bi1B O4 1_555 1_555
Bi2A O11 1_555 1_555
O5A C4A 1_555 1_555
O6A C5A 1_555 1_555
O11A Bi2 1_555 1_555
O12A Bi2 1_555 1_555
C4A O11A 1_555 1_555
C5A O12A 1_555 1_555
O7A C6A 1_555 1_555
O8A C7A 1_555 1_555
O15A Bi2 1_555 1_555
O16A Bi2 1_555 1_555
C6A O16A 1_555 1_555
C7A O15A 1_555 1_555
O1B Bi1B 1_555 1_555
O2B Bi1B 1_555 1_555
O9B C1B 1_555 1_555
O10B C2B 1_555 1_555
C1B O1B 1_555 1_555
C2B O2B 1_555 1_555
O17B Bi1B 1_555 1_555
H12B O17B 1_555 1_555
O18A Bi2A 1_555 1_555
H13A O18A 1_555 1_555
H14A O18A 1_555 1_555
Bi2B O14 1_555 1_555
Bi2A_2 O15 1_555 1_555
O5B Bi1B 1_555 1_555
O6B Bi1B 1_555 1_555
O7B Bi1B 1_555 1_555
O8B Bi1B 1_555 1_555
O9A Bi2A 1_555 1_555
O10A Bi2A 1_555 1_555
O13A Bi2A 1_555 1_555
O14C Bi2A 1_555 1_555
O15_2 Bi2A 1_555 1_555
O16_2 Bi2A 1_555 1_555
Bi1A O5A 1_555 1_555
Bi1A_2 O7A 1_555 1_555
Bi2B_2 O9B 1_555 1_555
O10 C2 1_555 1_555
O12 Bi2A 1_555 1_555
O16 Bi2A_2 1_555 1_555
C4 C5 1_555 1_555
C6 C7 1_555 1_555
N2 C9 1_555 1_555
C10 C11 1_555 1_555
N4 C12 1_555 1_555
C13 C14 1_555 1_555
C3B O4B 1_555 1_555
O3B Bi1B 1_555 1_555
C8B O14B 1_555 1_555
O13B Bi2B 1_555 1_555
O6A Bi1A 1_555 1_555
C4A C5A 1_555 1_555
O8A Bi1A_2 1_555 1_555
C6A C7A 1_555 1_555
O10B Bi2B_2 1_555 1_555
C1B C2B 1_555 1_555

#END
