
#######################################################################
#
#                 Cambridge Crystallographic Data Centre
#                                CCDC 
#
#######################################################################
#
# If this CIF has been generated from an entry in the Cambridge 
# Structural Database, then it will include bibliographic, chemical, 
# crystal, experimental, refinement or atomic coordinate data resulting 
# from the CCDC's data processing and validation procedures.
#
#######################################################################

data_PEQVAJ
_symmetry_cell_setting           monoclinic
_symmetry_space_group_name_H-M   'C 2/c'
_symmetry_Int_Tables_number      15
_space_group_name_Hall           '-C 2yn'
loop_
_symmetry_equiv_pos_site_id
_symmetry_equiv_pos_as_xyz
1 x,y,z
2 1/2+x,1/2+y,z
3 -x,y,1/2-z
4 1/2-x,1/2+y,1/2-z
5 -x,-y,-z
6 1/2-x,1/2-y,-z
7 x,-y,1/2+z
8 1/2+x,1/2-y,1/2+z
_cell_length_a                   28.771(9)
_cell_length_b                   7.4946(19)
_cell_length_c                   15.132(4)
_cell_angle_alpha                90
_cell_angle_beta                 117.148(4)
_cell_angle_gamma                90
_cell_volume                     2903.4
loop_
_atom_site_label
_atom_site_type_symbol
_atom_site_fract_x
_atom_site_fract_y
_atom_site_fract_z
Zn1 Zn 0.029732(18) 0.67512(6) 0.41946(4)
Zn2 Zn 0.056350(18) 1.02476(7) 0.59138(4)
N1 N 0.10734(14) 0.9628(5) 0.5277(3)
N2 N 0.09546(13) 0.8317(5) 0.4572(3)
N3 N 0.16892(13) 0.9548(5) 0.4792(3)
C1 C 0.13196(16) 0.8315(6) 0.4280(3)
H1 H 0.1324 0.7572 0.3791
C2 C 0.15218(17) 1.0313(6) 0.5411(4)
H2 H 0.1701 1.1204 0.5869
C3 C 0.21769(16) 0.9832(6) 0.4761(4)
C4 C 0.22011(18) 0.9508(7) 0.3890(4)
H3 H 0.1906 0.9151 0.3322
C5 C 0.26793(18) 0.9730(7) 0.3877(4)
C6 C 0.31092(18) 1.0315(6) 0.4725(4)
H4 H 0.3428 1.0482 0.4719
C7 C 0.30642(18) 1.0648(7) 0.5578(4)
H5 H 0.3354 1.1061 0.6138
C8 C 0.26003(17) 1.0384(6) 0.5622(4)
H6 H 0.2574 1.0571 0.6206
O1 O 0.26981(14) 0.9369(6) 0.3013(3)
H7 H 0.3002 0.9410 0.3106
S1 S -0.08572(4) 0.56466(14) 0.37406(8)
O2 O -0.12895(10) 0.4439(4) 0.3152(2)
O3 O -0.04076(11) 0.5285(4) 0.3532(2)
O4 O -0.10324(11) 0.7493(4) 0.3467(2)
O5 O -0.06778(11) 0.5383(4) 0.4813(2)
S2 S 0.0000 1.01879(19) 0.2500
O6 O -0.01496(11) 0.9001(4) 0.3121(2)
O7 O 0.04478(12) 1.1309(4) 0.3132(2)
O8 O 0.00704(10) 0.8205(4) 0.5081(2)
O9 O 0.10437(11) 0.8865(4) 0.7188(2)
O10 O 0.05549(11) 0.5142(4) 0.3358(2)
Zn1D Zn -0.029732(18) 0.32488(6) 0.58054(4)
Zn1B Zn -0.029732(18) 0.67512(6) 0.08054(4)
Zn1D_2 Zn -0.029732(18) 1.32488(6) 0.58054(4)
Zn2D Zn -0.056350(18) 0.97524(7) 0.40862(4)
Zn2F Zn 0.056350(18) 0.97524(7) 0.09138(4)
Zn2_2 Zn 0.056350(18) 0.02476(7) 0.59138(4)
Zn2D_2 Zn -0.056350(18) -0.02476(7) 0.40862(4)
N1D N -0.10734(14) 0.0372(5) 0.4723(3)
N1D_2 N -0.10734(14) 1.0372(5) 0.4723(3)
N2D N -0.09546(13) 0.1683(5) 0.5428(3)
N3D N -0.16892(13) 0.0452(5) 0.5208(3)
C1D C -0.13196(16) 0.1685(6) 0.5720(3)
H1D H -0.1324 0.2428 0.6209
C2D C -0.15218(17) -0.0313(6) 0.4589(4)
H2D H -0.1701 -0.1204 0.4131
C3D C -0.21769(16) 0.0168(6) 0.5239(4)
C4D C -0.22011(18) 0.0492(7) 0.6110(4)
H3D H -0.1906 0.0849 0.6678
C5D C -0.26793(18) 0.0270(7) 0.6123(4)
C6D C -0.31092(18) -0.0315(6) 0.5275(4)
H4D H -0.3428 -0.0482 0.5281
C7D C -0.30642(18) -0.0648(7) 0.4422(4)
H5D H -0.3354 -0.1061 0.3862
C8D C -0.26003(17) -0.0384(6) 0.4378(4)
H6D H -0.2574 -0.0571 0.3794
O1D O -0.26981(14) 0.0631(6) 0.6987(3)
H7D H -0.3002 0.0590 0.6894
S1D S 0.08572(4) 0.43534(14) 0.62594(8)
O2D O 0.12895(10) 0.5561(4) 0.6848(2)
O3D O 0.04076(11) 0.4715(4) 0.6468(2)
O4D O 0.10324(11) 0.2507(4) 0.6533(2)
O4D_2 O 0.10324(11) 1.2507(4) 0.6533(2)
O5D O 0.06778(11) 0.4617(4) 0.5187(2)
O6B O 0.01496(11) 0.9001(4) 0.1879(2)
O6D O 0.01496(11) 1.0999(4) 0.6879(2)
O6D_2 O 0.01496(11) 0.0999(4) 0.6879(2)
O7B O -0.04478(12) 1.1309(4) 0.1868(2)
O8D O -0.00704(10) 1.1795(4) 0.4919(2)
O8D_2 O -0.00704(10) 0.1795(4) 0.4919(2)
O9D O -0.10437(11) 1.1135(4) 0.2812(2)
O10D O -0.05549(11) 0.4858(4) 0.6642(2)
loop_
_geom_bond_atom_site_label_1
_geom_bond_atom_site_label_2
_geom_bond_site_symmetry_1
_geom_bond_site_symmetry_2
Zn1 N2 1_555 1_555
Zn2 N1 1_555 1_555
N1 N2 1_555 1_555
N2 C1 1_555 1_555
N3 C1 1_555 1_555
C1 H1 1_555 1_555
C2 N1 1_555 1_555
H2 C2 1_555 1_555
C3 N3 1_555 1_555
C4 C3 1_555 1_555
H3 C4 1_555 1_555
C5 C4 1_555 1_555
C6 C5 1_555 1_555
H4 C6 1_555 1_555
C7 C6 1_555 1_555
H5 C7 1_555 1_555
C8 C3 1_555 1_555
H6 C8 1_555 1_555
O1 C5 1_555 1_555
H7 O1 1_555 1_555
S1 O2 1_555 1_555
O3 Zn1 1_555 1_555
O4 S1 1_555 1_555
O5 S1 1_555 1_555
S2 O6 1_555 1_555
O6 Zn1 1_555 1_555
O7 S2 1_555 1_555
O8 Zn1 1_555 1_555
O9 Zn2 1_555 1_555
O10 Zn1 1_555 1_555
Zn1D O5 1_555 1_555
Zn1B O6B 1_555 1_555
Zn1D_2 O6D 1_555 1_555
Zn2D O4 1_555 1_555
Zn2F O6B 1_555 1_555
Zn2_2 O4D 1_555 1_555
Zn2D_2 N1D 1_555 1_555
N1D N2D 1_555 1_555
N1D_2 Zn2D 1_555 1_555
N2D Zn1D 1_555 1_555
N3D C1D 1_555 1_555
C1D N2D 1_555 1_555
H1D C1D 1_555 1_555
C2D N1D 1_555 1_555
H2D C2D 1_555 1_555
C3D N3D 1_555 1_555
C4D C3D 1_555 1_555
H3D C4D 1_555 1_555
C5D C4D 1_555 1_555
C6D C5D 1_555 1_555
H4D C6D 1_555 1_555
C7D C6D 1_555 1_555
H5D C7D 1_555 1_555
C8D C3D 1_555 1_555
H6D C8D 1_555 1_555
O1D C5D 1_555 1_555
H7D O1D 1_555 1_555
S1D O2D 1_555 1_555
O3D Zn1D 1_555 1_555
O4D S1D 1_555 1_555
O4D_2 Zn2 1_555 1_555
O5D Zn1 1_555 1_555
O6B S2 1_555 1_555
O6D Zn2 1_555 1_555
O6D_2 Zn1D 1_555 1_555
O7B S2 1_555 1_555
O8D Zn2 1_555 1_555
O8D_2 Zn1D 1_555 1_555
O9D Zn2D 1_555 1_555
O10D Zn1D 1_555 1_555
Zn2 O8 1_555 1_555
N3 C2 1_555 1_555
C7 C8 1_555 1_555
S1 O3 1_555 1_555
O6 Zn2D 1_555 1_555
O8 Zn2D 1_555 1_555
Zn1D_2 O8D 1_555 1_555
Zn2D O8D 1_555 1_555
Zn2_2 O6D_2 1_555 1_555
Zn2_2 O8D_2 1_555 1_555
Zn2D_2 O8D_2 1_555 1_555
N3D C2D 1_555 1_555
C7D C8D 1_555 1_555
S1D O3D 1_555 1_555
S1D O5D 1_555 1_555

#END
