
#######################################################################
#
#                 Cambridge Crystallographic Data Centre
#                                CCDC 
#
#######################################################################
#
# If this CIF has been generated from an entry in the Cambridge 
# Structural Database, then it will include bibliographic, chemical, 
# crystal, experimental, refinement or atomic coordinate data resulting 
# from the CCDC's data processing and validation procedures.
#
#######################################################################

data_PEQVIR
_symmetry_cell_setting           monoclinic
_symmetry_space_group_name_H-M   'P 21/c'
_symmetry_Int_Tables_number      14
_space_group_name_Hall           '-P 2ybc'
loop_
_symmetry_equiv_pos_site_id
_symmetry_equiv_pos_as_xyz
1 x,y,z
2 -x,1/2+y,1/2-z
3 -x,-y,-z
4 x,1/2-y,1/2+z
_cell_length_a                   6.4786(10)
_cell_length_b                   22.614(2)
_cell_length_c                   7.9773(15)
_cell_angle_alpha                90
_cell_angle_beta                 108.457(2)
_cell_angle_gamma                90
_cell_volume                     1108.61
loop_
_atom_site_label
_atom_site_type_symbol
_atom_site_fract_x
_atom_site_fract_y
_atom_site_fract_z
Hg1 Hg 0.33632(2) 0.287237(6) -0.008823(15)
N1 N 0.6007(4) 0.30677(12) -0.1863(3)
N2 N 0.5587(4) 0.29061(10) -0.3581(3)
C1 C 0.9696(4) 0.40135(13) -0.3145(3)
C2 C 1.0113(5) 0.45060(14) -0.2104(4)
H1 H 0.9317 0.4588 -0.1345
C3 C 1.1773(6) 0.48826(15) -0.2215(4)
C4 C 1.2929(5) 0.47719(16) -0.3373(4)
H2 H 1.4052 0.5020 -0.3422
C5 C 1.2369(5) 0.42838(16) -0.4447(4)
H3 H 1.3072 0.4216 -0.5281
C6 C 1.0799(5) 0.38930(15) -0.4324(4)
H4 H 1.0488 0.3555 -0.5022
C7 C 0.6852(5) 0.32267(15) -0.4213(4)
H5 H 0.6927 0.3194 -0.5354
N3 N 0.8037(3) 0.36121(10) -0.2988(2)
C8 C 0.7464(4) 0.34874(14) -0.1552(3)
H6 H 0.8034 0.3677 -0.0468
O1 O 1.2266(4) 0.53551(14) -0.1082(3)
H7 H 1.3256 0.5546 -0.1252
Cl1 Cl 0.42648(15) 0.37661(4) 0.15025(10)
Cl2 Cl 0.08403(12) 0.23453(4) -0.24101(9)
Hg1C Hg 0.33632(2) 0.212763(6) -0.508823(15)
N2C N 0.5587(4) 0.20939(10) 0.1419(3)
loop_
_geom_bond_atom_site_label_1
_geom_bond_atom_site_label_2
_geom_bond_site_symmetry_1
_geom_bond_site_symmetry_2
Hg1 N1 1_555 1_555
N1 N2 1_555 1_555
N2 C7 1_555 1_555
C1 C2 1_555 1_555
C2 H1 1_555 1_555
C3 C2 1_555 1_555
C4 C3 1_555 1_555
H2 C4 1_555 1_555
C5 C4 1_555 1_555
H3 C5 1_555 1_555
C6 C1 1_555 1_555
H4 C6 1_555 1_555
C7 H5 1_555 1_555
N3 C1 1_555 1_555
C8 N1 1_555 1_555
H6 C8 1_555 1_555
O1 C3 1_555 1_555
H7 O1 1_555 1_555
Cl1 Hg1 1_555 1_555
Cl2 Hg1 1_555 1_555
Hg1C N2 1_555 1_555
N2C Hg1 1_555 1_555
C5 C6 1_555 1_555
C7 N3 1_555 1_555
N3 C8 1_555 1_555

#END
