
#######################################################################
#
#                 Cambridge Crystallographic Data Centre
#                                CCDC 
#
#######################################################################
#
# If this CIF has been generated from an entry in the Cambridge 
# Structural Database, then it will include bibliographic, chemical, 
# crystal, experimental, refinement or atomic coordinate data resulting 
# from the CCDC's data processing and validation procedures.
#
#######################################################################

data_PEQVOX
_symmetry_cell_setting           monoclinic
_symmetry_space_group_name_H-M   'P 21/c'
_symmetry_Int_Tables_number      14
_space_group_name_Hall           '-P 2ybc'
loop_
_symmetry_equiv_pos_site_id
_symmetry_equiv_pos_as_xyz
1 x,y,z
2 -x,1/2+y,1/2-z
3 -x,-y,-z
4 x,1/2-y,1/2+z
_cell_length_a                   13.273(6)
_cell_length_b                   6.579(3)
_cell_length_c                   13.931(6)
_cell_angle_alpha                90
_cell_angle_beta                 115.1110(7)
_cell_angle_gamma                90
_cell_volume                     1101.52
loop_
_atom_site_label
_atom_site_type_symbol
_atom_site_fract_x
_atom_site_fract_y
_atom_site_fract_z
Cu1 Cu 0.00292(2) 0.77682(4) 0.24818(2)
N1 N 0.14552(14) 0.9286(3) 0.28076(14)
N2 N 0.14061(14) 1.1354(3) 0.28658(15)
N3 N 0.31272(14) 1.0493(3) 0.32567(15)
C1 C 0.43085(18) 1.0635(4) 0.35691(18)
C2 C 0.48605(18) 1.2365(4) 0.41115(19)
H1 H 0.4477 1.3384 0.4280
C3 C 0.60063(18) 1.2546(4) 0.44004(19)
C4 C 0.65649(19) 1.0964(4) 0.4176(2)
H2 H 0.7327 1.1062 0.4375
C5 C 0.6000(2) 0.9264(4) 0.3663(2)
H3 H 0.6388 0.8204 0.3530
C6 C 0.48593(19) 0.9088(4) 0.3335(2)
H4 H 0.4477 0.7946 0.2965
C7 C 0.24161(19) 1.2036(4) 0.3135(2)
H5 H 0.2616 1.3402 0.3229
C8 C 0.24850(18) 0.8823(4) 0.30386(18)
H6 H 0.2744 0.7505 0.3051
O1 O 0.65113(14) 1.4275(3) 0.49142(15)
H7 H 0.7056 1.4511 0.4798
F1 F 0.07824(12) 0.5256(2) 0.30664(12)
Cu1A Cu -0.00292(2) 0.27682(4) 0.25182(2)
Cu1A_2 Cu -0.00292(2) 1.27682(4) 0.25182(2)
N1A N -0.14552(14) 0.4286(3) 0.21924(14)
N2A N -0.14061(14) 0.6354(3) 0.21342(15)
N2_2 N 0.14061(14) 0.1354(3) 0.28658(15)
N3A N -0.31272(14) 0.5493(3) 0.17433(15)
C1A C -0.43085(18) 0.5635(4) 0.14309(18)
C2A C -0.48605(18) 0.7365(4) 0.08885(19)
H1A H -0.4477 0.8384 0.0720
C3A C -0.60063(18) 0.7546(4) 0.05996(19)
C4A C -0.65649(19) 0.5964(4) 0.0824(2)
H2A H -0.7327 0.6062 0.0625
C5A C -0.6000(2) 0.4264(4) 0.1337(2)
H3A H -0.6388 0.3204 0.1470
C6A C -0.48593(19) 0.4088(4) 0.1665(2)
H4A H -0.4477 0.2946 0.2035
C7A C -0.24161(19) 0.7036(4) 0.1865(2)
H5A H -0.2616 0.8402 0.1771
C8A C -0.24850(18) 0.3823(4) 0.19614(18)
H6A H -0.2744 0.2505 0.1949
O1A O -0.65113(14) 0.9275(3) 0.00858(15)
H7A H -0.7056 0.9511 0.0202
F1A F -0.07824(12) 1.0256(2) 0.19336(12)
F1A_2 F -0.07824(12) 0.0256(2) 0.19336(12)
Si1 Si 0.0000 1.0000 0.5000
F2 F -0.12344(12) 0.9001(3) 0.41974(12)
F3 F -0.02733(13) 1.2037(2) 0.41948(11)
F4 F 0.05936(11) 0.8795(2) 0.43153(11)
F2B F 0.12344(12) 1.0999(3) 0.58026(12)
F3B F 0.02733(13) 0.7963(2) 0.58052(11)
F4B F -0.05936(11) 1.1205(2) 0.56847(11)
O2 O -0.82945(15) 1.0016(3) 0.04805(14)
loop_
_geom_bond_atom_site_label_1
_geom_bond_atom_site_label_2
_geom_bond_site_symmetry_1
_geom_bond_site_symmetry_2
Cu1 N1 1_555 1_555
N1 N2 1_555 1_555
N2 C7 1_555 1_555
N3 C1 1_555 1_555
C1 C2 1_555 1_555
C2 H1 1_555 1_555
C3 C2 1_555 1_555
C4 C3 1_555 1_555
H2 C4 1_555 1_555
C5 C4 1_555 1_555
H3 C5 1_555 1_555
C6 C1 1_555 1_555
H4 C6 1_555 1_555
C7 N3 1_555 1_555
H5 C7 1_555 1_555
C8 N1 1_555 1_555
H6 C8 1_555 1_555
O1 C3 1_555 1_555
H7 O1 1_555 1_555
F1 Cu1 1_555 1_555
Si1 F2 1_555 1_555
F3 Si1 1_555 1_555
F4 Si1 1_555 1_555
Cu1A F1 1_555 1_555
Cu1A_2 N2 1_555 1_555
N1A Cu1A 1_555 1_555
N2A Cu1 1_555 1_555
N2_2 Cu1A 1_555 1_555
N3A C1A 1_555 1_555
C1A C2A 1_555 1_555
C2A H1A 1_555 1_555
C3A C2A 1_555 1_555
C4A C3A 1_555 1_555
H2A C4A 1_555 1_555
C5A C4A 1_555 1_555
H3A C5A 1_555 1_555
C6A C1A 1_555 1_555
H4A C6A 1_555 1_555
C7A N2A 1_555 1_555
H5A C7A 1_555 1_555
C8A N1A 1_555 1_555
H6A C8A 1_555 1_555
O1A C3A 1_555 1_555
H7A O1A 1_555 1_555
F1A Cu1 1_555 1_555
F1A_2 Cu1A 1_555 1_555
F2B Si1 1_555 1_555
F3B Si1 1_555 1_555
F4B Si1 1_555 1_555
N3 C8 1_555 1_555
C5 C6 1_555 1_555
Cu1A_2 F1A 1_555 1_555
N1A N2A 1_555 1_555
N3A C7A 1_555 1_555
N3A C8A 1_555 1_555
C5A C6A 1_555 1_555

#END
