
#######################################################################
#
#                 Cambridge Crystallographic Data Centre
#                                CCDC 
#
#######################################################################
#
# If this CIF has been generated from an entry in the Cambridge 
# Structural Database, then it will include bibliographic, chemical, 
# crystal, experimental, refinement or atomic coordinate data resulting 
# from the CCDC's data processing and validation procedures.
#
#######################################################################

data_PERDAS
_symmetry_cell_setting           triclinic
_symmetry_space_group_name_H-M   'P 1'
_symmetry_Int_Tables_number      1
_space_group_name_Hall           'P 1'
loop_
_symmetry_equiv_pos_site_id
_symmetry_equiv_pos_as_xyz
1 x,y,z
_cell_length_a                   7.9379(6)
_cell_length_b                   10.3408(8)
_cell_length_c                   10.5210(8)
_cell_angle_alpha                101.660(6)
_cell_angle_beta                 96.451(6)
_cell_angle_gamma                102.091(6)
_cell_volume                     816.164
loop_
_atom_site_label
_atom_site_type_symbol
_atom_site_fract_x
_atom_site_fract_y
_atom_site_fract_z
Ag1 Ag 0.19625(4) 0.85466(3) 0.70851(3)
Ag2 Ag 0.80453(4) 1.14426(4) 0.29193(3)
Ag3 Ag -0.51094(9) 0.49977(9) 0.50558(6)
Ag4 Ag -0.00597(8) 1.00014(7) 0.51563(5)
C1 C -0.2472(9) 0.7238(8) 0.4633(6)
C2 C -0.2717(9) 0.5250(8) 0.2998(6)
C3 C -0.1309(8) 0.5989(7) 0.2354(5)
C4 C -0.0378(8) 0.7383(7) 0.3196(6)
C5 C 0.0969(11) 0.4863(9) 0.3294(7)
H1 H 0.1837 0.4378 0.3058
H2 H 0.0145 0.4332 0.3702
H3 H 0.1521 0.5715 0.3898
C6 C 0.0012(9) 0.5126(8) 0.2051(6)
H4 H 0.0864 0.5586 0.1597
H5 H -0.0593 0.4261 0.1465
C7 C -0.2220(9) 0.6190(8) 0.1053(6)
H6 H -0.1344 0.6672 0.0632
H7 H -0.2731 0.5304 0.0471
C8 C -0.3641(9) 0.6970(9) 0.1214(7)
H8 H -0.4162 0.7030 0.0365
H9 H -0.3139 0.7868 0.1748
H10 H -0.4518 0.6503 0.1629
N1 N -0.3215(7) 0.5882(6) 0.4070(5)
N2 N -0.1042(7) 0.7942(6) 0.4220(5)
O1 O -0.3051(7) 0.7828(6) 0.5558(5)
O2 O -0.3395(7) 0.4025(6) 0.2485(5)
O3 O 0.0991(6) 0.8005(5) 0.2923(4)
C9 C 0.2255(9) 1.2750(8) 0.5559(6)
C10 C 0.2517(9) 1.4831(8) 0.7097(6)
C11 C 0.1233(8) 1.4110(7) 0.7842(5)
C12 C 0.0271(8) 1.2683(7) 0.7080(5)
C13 C -0.1191(11) 1.5158(9) 0.7027(8)
H11 H -0.1984 1.5698 0.7317
H12 H -0.1842 1.4291 0.6496
H13 H -0.0442 1.5616 0.6517
C14 C -0.0097(9) 1.4951(8) 0.8209(6)
H14 H -0.0865 1.4497 0.8723
H15 H 0.0522 1.5833 0.8757
C15 C 0.2290(9) 1.3985(8) 0.9133(6)
H16 H 0.2791 1.4892 0.9677
H17 H 0.1487 1.3508 0.9609
C16 C 0.3765(9) 1.3245(9) 0.8944(7)
H18 H 0.4366 1.3243 0.9787
H19 H 0.4570 1.3704 0.8471
H20 H 0.3280 1.2325 0.8455
N3 N 0.3004(7) 1.4104(7) 0.6041(5)
N4 N 0.0912(7) 1.2058(6) 0.6052(5)
O4 O 0.2816(7) 1.2112(6) 0.4637(5)
O5 O 0.3153(7) 1.6069(6) 0.7508(5)
O6 O -0.1058(6) 1.2072(6) 0.7423(4)
C17 C 0.5338(9) 1.0098(8) 0.4376(6)
H21 H 0.5929 0.9378 0.4117
H22 H 0.4364 0.9986 0.3685
C18 C 0.4651(9) 0.9965(8) 0.5640(6)
H23 H 0.5627 1.0101 0.6335
H24 H 0.4035 1.0671 0.5886
N5 N 0.6553(8) 1.1418(7) 0.4509(5)
H25 H 0.7291 1.1621 0.5275
H26 H 0.5946 1.2064 0.4536
N6 N 0.3452(7) 0.8615(7) 0.5518(5)
H27 H 0.4085 0.7985 0.5495
H28 H 0.2714 0.8395 0.4751
C19 C 0.0569(9) 1.0041(8) 0.9450(6)
H29 H -0.0041 1.0478 0.8875
H30 H 0.1760 1.0582 0.9721
C20 C -0.0312(9) 1.0010(8) 1.0663(6)
H31 H -0.1469 0.9408 1.0403
H32 H 0.0356 0.9647 1.1275
N7 N 0.0591(7) 0.8659(6) 0.8707(5)
H33 H -0.0522 0.8190 0.8412
H34 H 0.1058 0.8234 0.9273
N8 N -0.0462(7) 1.1369(7) 1.1328(5)
H35 H -0.0950 1.1742 1.0723
H36 H 0.0622 1.1891 1.1643
Ag2_2 Ag -0.19547(4) 1.14426(4) 0.29193(3)
Ag2_3 Ag -0.19547(4) 1.14426(4) 1.29193(3)
Ag3_2 Ag 0.48906(9) 1.49977(9) 0.50558(6)
Ag4_2 Ag 0.99403(8) 1.00014(7) 0.51563(5)
N3_2 N -0.6996(7) 0.4104(7) 0.6041(5)
N8_2 N 0.9538(7) 1.1369(7) 0.1328(5)
H35_2 H 0.9050 1.1742 0.0723
H36_2 H 1.0622 1.1891 0.1643
O7 O 0.5025(4) 0.0302(4) 0.1128(4)
H37 H 0.4490 0.0964 0.1487
H38 H 0.5531 0.0468 0.0414
O8 O 0.2592(4) 0.7779(4) 0.0702(3)
H39 H 0.2061 0.7854 0.1437
H40 H 0.3384 0.8583 0.0833
O9 O 0.6405(7) 0.8008(6) 0.8058(5)
H41 H 0.6717 0.7842 0.7208
H42 H 0.5578 0.7225 0.8005
O10 O 0.3414(6) 0.2309(5) 0.2195(4)
H43 H 0.3195 0.2204 0.2947
H44 H 0.4496 0.2889 0.2295
O11 O 0.6571(5) 0.0819(4) 0.8942(4)
H45 H 0.7327 0.1217 0.8454
H46 H 0.6519 -0.0093 0.8651
loop_
_geom_bond_atom_site_label_1
_geom_bond_atom_site_label_2
_geom_bond_site_symmetry_1
_geom_bond_site_symmetry_2
Ag1 Ag4 1_555 1_555
Ag2 N5 1_555 1_555
Ag3 N1 1_555 1_555
Ag4 N2 1_555 1_555
C1 N1 1_555 1_555
C2 C3 1_555 1_555
C3 C4 1_555 1_555
C4 N2 1_555 1_555
C5 H1 1_555 1_555
H2 C5 1_555 1_555
H3 C5 1_555 1_555
C6 C3 1_555 1_555
H4 C6 1_555 1_555
H5 C6 1_555 1_555
C7 C3 1_555 1_555
H6 C7 1_555 1_555
H7 C7 1_555 1_555
C8 C7 1_555 1_555
H8 C8 1_555 1_555
H9 C8 1_555 1_555
H10 C8 1_555 1_555
N1 C2 1_555 1_555
N2 C1 1_555 1_555
O1 C1 1_555 1_555
O2 C2 1_555 1_555
O3 C4 1_555 1_555
C9 N3 1_555 1_555
C10 C11 1_555 1_555
C11 C12 1_555 1_555
C12 N4 1_555 1_555
C13 H11 1_555 1_555
H12 C13 1_555 1_555
H13 C13 1_555 1_555
C14 C11 1_555 1_555
H14 C14 1_555 1_555
H15 C14 1_555 1_555
C15 C11 1_555 1_555
H16 C15 1_555 1_555
H17 C15 1_555 1_555
C16 C15 1_555 1_555
H18 C16 1_555 1_555
H19 C16 1_555 1_555
H20 C16 1_555 1_555
N3 C10 1_555 1_555
N4 Ag4 1_555 1_555
O4 C9 1_555 1_555
O5 C10 1_555 1_555
O6 C12 1_555 1_555
C17 H21 1_555 1_555
H22 C17 1_555 1_555
C18 C17 1_555 1_555
H23 C18 1_555 1_555
H24 C18 1_555 1_555
N5 C17 1_555 1_555
H25 N5 1_555 1_555
H26 N5 1_555 1_555
N6 Ag1 1_555 1_555
H27 N6 1_555 1_555
H28 N6 1_555 1_555
C19 H29 1_555 1_555
H30 C19 1_555 1_555
C20 C19 1_555 1_555
H31 C20 1_555 1_555
H32 C20 1_555 1_555
N7 Ag1 1_555 1_555
H33 N7 1_555 1_555
H34 N7 1_555 1_555
N8 C20 1_555 1_555
H35 N8 1_555 1_555
H36 N8 1_555 1_555
O7 H37 1_555 1_555
H38 O7 1_555 1_555
O8 H39 1_555 1_555
H40 O8 1_555 1_555
O9 H41 1_555 1_555
H42 O9 1_555 1_555
O10 H43 1_555 1_555
H44 O10 1_555 1_555
O11 H45 1_555 1_555
H46 O11 1_555 1_555
Ag2_2 Ag4 1_555 1_555
Ag2_3 N8 1_555 1_555
Ag3_2 N3 1_555 1_555
Ag4_2 Ag2 1_555 1_555
N3_2 Ag3 1_555 1_555
N8_2 Ag2 1_555 1_555
H35_2 N8_2 1_555 1_555
H36_2 N8_2 1_555 1_555
C5 C6 1_555 1_555
C9 N4 1_555 1_555
C13 C14 1_555 1_555
C18 N6 1_555 1_555
C19 N7 1_555 1_555

#END
