
#######################################################################
#
#                 Cambridge Crystallographic Data Centre
#                                CCDC 
#
#######################################################################
#
# If this CIF has been generated from an entry in the Cambridge 
# Structural Database, then it will include bibliographic, chemical, 
# crystal, experimental, refinement or atomic coordinate data resulting 
# from the CCDC's data processing and validation procedures.
#
#######################################################################

data_PERDEW
_symmetry_cell_setting           monoclinic
_symmetry_space_group_name_H-M   'P 21/c'
_symmetry_Int_Tables_number      14
_space_group_name_Hall           '-P 2ybc'
loop_
_symmetry_equiv_pos_site_id
_symmetry_equiv_pos_as_xyz
1 x,y,z
2 -x,1/2+y,1/2-z
3 -x,-y,-z
4 x,1/2-y,1/2+z
_cell_length_a                   7.6546(6)
_cell_length_b                   20.9540(17)
_cell_length_c                   14.0053(12)
_cell_angle_alpha                90
_cell_angle_beta                 118.072(5)
_cell_angle_gamma                90
_cell_volume                     1982.1
loop_
_atom_site_label
_atom_site_type_symbol
_atom_site_fract_x
_atom_site_fract_y
_atom_site_fract_z
C1 C 0.0620(10) 0.4567(3) 0.2162(6)
C2 C 0.0829(11) 0.5303(3) 0.2203(6)
C3 C 0.0565(11) 0.5606(3) 0.3118(6)
C4 C 0.0269(10) 0.4542(3) 0.3727(6)
C5 C 0.2934(15) 0.5466(4) 0.2359(9)
H1 H 0.3064 0.5286 0.1758
H2 H 0.3037 0.5926 0.2324
C6 C 0.4611(15) 0.5239(5) 0.3378(13)
H3 H 0.5836 0.5360 0.3396
H4 H 0.4553 0.4782 0.3417
H5 H 0.4535 0.5426 0.3983
C7 C -0.0714(16) 0.5568(4) 0.1147(7)
H6 H -0.0480 0.5405 0.0569
H7 H -0.0575 0.6029 0.1158
C8 C -0.2821(15) 0.5405(5) 0.0899(9)
H8 H -0.3734 0.5586 0.0214
H9 H -0.3080 0.5577 0.1456
H10 H -0.2981 0.4950 0.0872
C9 C 0.3711(10) 0.2173(3) 0.3602(6)
H11 H 0.2736 0.1860 0.3344
C10 C 0.5658(9) 0.1985(3) 0.4116(6)
H12 H 0.5961 0.1553 0.4214
C11 C 0.7159(9) 0.2422(3) 0.4487(5)
C12 C 0.6587(10) 0.3066(3) 0.4320(6)
H13 H 0.7534 0.3388 0.4550
C13 C 0.4595(9) 0.3214(3) 0.3811(6)
H14 H 0.4240 0.3643 0.3709
C14 C 0.9233(9) 0.2218(3) 0.5036(6)
H15 H 0.9481 0.1785 0.5185
C15 C 1.0765(10) 0.2594(3) 0.5335(6)
H16 H 1.0498 0.3026 0.5190
C16 C 1.2857(9) 0.2408(3) 0.5872(5)
C17 C 1.3527(9) 0.1779(3) 0.6145(6)
H17 H 1.2624 0.1448 0.5991
C18 C 1.5505(9) 0.1655(3) 0.6636(6)
H18 H 1.5911 0.1233 0.6803
C19 C 1.6271(9) 0.2708(3) 0.6627(6)
H19 H 1.7200 0.3031 0.6789
C20 C 1.4304(10) 0.2862(3) 0.6124(6)
H20 H 1.3936 0.3286 0.5947
N1 N 0.0392(8) 0.4240(2) 0.2922(5)
N2 N 0.0351(9) 0.5206(2) 0.3804(5)
H21 H 0.0257 0.5374 0.4338
N3 N 0.3152(7) 0.2782(2) 0.3455(4)
N4 N 1.6904(7) 0.2105(2) 0.6895(4)
O1 O 0.0683(11) 0.4287(2) 0.1414(5)
O2 O 0.0538(9) 0.61854(19) 0.3202(5)
O3 O 0.0077(10) 0.4246(2) 0.4446(5)
Ag1 Ag 0.00690(7) 0.31521(2) 0.26987(4)
N4C N -0.3096(7) 0.2895(2) 0.1895(4)
Ag1C Ag 2.00690(7) 0.18479(2) 0.76987(4)
loop_
_geom_bond_atom_site_label_1
_geom_bond_atom_site_label_2
_geom_bond_site_symmetry_1
_geom_bond_site_symmetry_2
C1 C2 1_555 1_555
C2 C3 1_555 1_555
C3 N2 1_555 1_555
C4 N1 1_555 1_555
C5 C2 1_555 1_555
H1 C5 1_555 1_555
H2 C5 1_555 1_555
C6 C5 1_555 1_555
H3 C6 1_555 1_555
H4 C6 1_555 1_555
H5 C6 1_555 1_555
C7 C2 1_555 1_555
H6 C7 1_555 1_555
H7 C7 1_555 1_555
C8 C7 1_555 1_555
H8 C8 1_555 1_555
H9 C8 1_555 1_555
H10 C8 1_555 1_555
C9 H11 1_555 1_555
C10 C9 1_555 1_555
H12 C10 1_555 1_555
C11 C10 1_555 1_555
C12 C11 1_555 1_555
H13 C12 1_555 1_555
C13 C12 1_555 1_555
H14 C13 1_555 1_555
C14 C11 1_555 1_555
H15 C14 1_555 1_555
C15 C14 1_555 1_555
H16 C15 1_555 1_555
C16 C15 1_555 1_555
C17 C16 1_555 1_555
H17 C17 1_555 1_555
C18 C17 1_555 1_555
H18 C18 1_555 1_555
C19 H19 1_555 1_555
C20 C16 1_555 1_555
H20 C20 1_555 1_555
N1 C1 1_555 1_555
N2 C4 1_555 1_555
H21 N2 1_555 1_555
N3 C9 1_555 1_555
N4 C18 1_555 1_555
O1 C1 1_555 1_555
O2 C3 1_555 1_555
O3 C4 1_555 1_555
Ag1 N1 1_555 1_555
N4C Ag1 1_555 1_555
Ag1C N4 1_555 1_555
C13 N3 1_555 1_555
C19 C20 1_555 1_555
C19 N4 1_555 1_555
N3 Ag1 1_555 1_555

#END
