
#######################################################################
#
#                 Cambridge Crystallographic Data Centre
#                                CCDC 
#
#######################################################################
#
# If this CIF has been generated from an entry in the Cambridge 
# Structural Database, then it will include bibliographic, chemical, 
# crystal, experimental, refinement or atomic coordinate data resulting 
# from the CCDC's data processing and validation procedures.
#
#######################################################################

data_PERREL
_symmetry_cell_setting           orthorhombic
_symmetry_space_group_name_H-M   'P m n 21'
_symmetry_Int_Tables_number      31
_space_group_name_Hall           'P 2ac -2'
loop_
_symmetry_equiv_pos_site_id
_symmetry_equiv_pos_as_xyz
1 x,y,z
2 1/2-x,-y,1/2+z
3 -x,y,z
4 1/2+x,-y,1/2+z
_cell_length_a                   15.9864(9)
_cell_length_b                   4.2237(3)
_cell_length_c                   14.0722(11)
_cell_angle_alpha                90
_cell_angle_beta                 90
_cell_angle_gamma                90
_cell_volume                     950.18
loop_
_atom_site_label
_atom_site_type_symbol
_atom_site_fract_x
_atom_site_fract_y
_atom_site_fract_z
I1 I 0.30516(3) 0.19929(13) 0.61918(7)
Br1 Br 0.0000 -0.0698(3) 0.99061(6)
Cu1 Cu 0.0000 0.4215(4) 0.89559(10)
N1 N 0.0956(4) 0.4371(16) 0.7912(5)
N2 N 0.0744(4) 0.5747(16) 0.7077(5)
C1 C 0.2131(6) 0.122(3) 0.8527(7)
H1 H 0.1893 0.1752 0.9132
H2 H 0.2710 0.1815 0.8516
H3 H 0.2084 -0.1025 0.8425
C2 C 0.1677(6) 0.2916(19) 0.7767(6)
C3 C 0.1938(5) 0.344(2) 0.6825(6)
C4 C 0.1326(5) 0.5181(18) 0.6390(5)
C5 C 0.1262(6) 0.639(3) 0.5408(7)
H4 H 0.1772 0.5952 0.5073
H5 H 0.1168 0.8636 0.5422
H6 H 0.0803 0.5372 0.5091
C6 C 0.0000 0.764(3) 0.7033(10)
H7 H 0.0000 0.9134 0.7557
H8 H 0.0000 0.8849 0.6446
I1B I -0.30516(3) 0.19929(13) 0.61918(7)
N1B N -0.0956(4) 0.4371(16) 0.7912(5)
N2B N -0.0744(4) 0.5747(16) 0.7077(5)
C1B C -0.2131(6) 0.122(3) 0.8527(7)
H1B H -0.1893 0.1752 0.9132
H2B H -0.2710 0.1815 0.8516
H3B H -0.2084 -0.1025 0.8425
C2B C -0.1677(6) 0.2916(19) 0.7767(6)
C3B C -0.1938(5) 0.344(2) 0.6825(6)
C4B C -0.1326(5) 0.5181(18) 0.6390(5)
C5B C -0.1262(6) 0.639(3) 0.5408(7)
H4B H -0.1772 0.5952 0.5073
H5B H -0.1168 0.8636 0.5422
H6B H -0.0803 0.5372 0.5091
Br1_2 Br 0.0000 0.9302(3) 0.99061(6)
Cu1_2 Cu 0.0000 -0.5785(4) 0.89559(10)
N3 N 0.0000 0.074(6) 0.3970(16)
C7 C 0.0000 0.201(5) 0.3262(15)
C8 C 0.0000 0.360(6) 0.2363(13)
H9? H 0.0377 0.5371 0.2388
H10? H -0.0554 0.4344 0.2223
H11? H 0.0178 0.2164 0.1875
loop_
_geom_bond_atom_site_label_1
_geom_bond_atom_site_label_2
_geom_bond_site_symmetry_1
_geom_bond_site_symmetry_2
I1 C3 1_555 1_555
Br1 Cu1 1_555 1_555
Cu1 N1 1_555 1_555
N1 N2 1_555 1_555
N2 C4 1_555 1_555
C1 H1 1_555 1_555
H2 C1 1_555 1_555
H3 C1 1_555 1_555
C2 N1 1_555 1_555
C3 C2 1_555 1_555
C4 C3 1_555 1_555
C5 C4 1_555 1_555
H4 C5 1_555 1_555
H5 C5 1_555 1_555
H6 C5 1_555 1_555
C6 N2 1_555 1_555
H7 C6 1_555 1_555
H8 C6 1_555 1_555
N3 C7 1_555 1_555
C7 C8 1_555 1_555
I1B C3B 1_555 1_555
N1B Cu1 1_555 1_555
N2B C6 1_555 1_555
C1B H1B 1_555 1_555
H2B C1B 1_555 1_555
H3B C1B 1_555 1_555
C2B N1B 1_555 1_555
C3B C2B 1_555 1_555
C4B N2B 1_555 1_555
C5B C4B 1_555 1_555
H4B C5B 1_555 1_555
H5B C5B 1_555 1_555
H6B C5B 1_555 1_555
Br1_2 Cu1 1_555 1_555
Cu1_2 Br1 1_555 1_555
C1 C2 1_555 1_555
N1B N2B 1_555 1_555
C1B C2B 1_555 1_555
C3B C4B 1_555 1_555

#END
