
#######################################################################
#
#                 Cambridge Crystallographic Data Centre
#                                CCDC 
#
#######################################################################
#
# If this CIF has been generated from an entry in the Cambridge 
# Structural Database, then it will include bibliographic, chemical, 
# crystal, experimental, refinement or atomic coordinate data resulting 
# from the CCDC's data processing and validation procedures.
#
#######################################################################

data_PERRAF
_symmetry_cell_setting           rhombohedral
_symmetry_space_group_name_H-M   'R 3'
_symmetry_Int_Tables_number      146
_space_group_name_Hall           'R 3'
loop_
_symmetry_equiv_pos_site_id
_symmetry_equiv_pos_as_xyz
1 x,y,z
2 1/3+x,2/3+y,2/3+z
3 2/3+x,1/3+y,1/3+z
4 -y,x-y,z
5 -x+y,-x,z
6 1/3-y,2/3+x-y,2/3+z
7 1/3-x+y,2/3-x,2/3+z
8 2/3-y,1/3+x-y,1/3+z
9 2/3-x+y,1/3-x,1/3+z
_cell_length_a                   8.114(1)
_cell_length_b                   8.114(1)
_cell_length_c                   35.960(7)
_cell_angle_alpha                90
_cell_angle_beta                 90
_cell_angle_gamma                120
_cell_volume                     2050.31
loop_
_atom_site_label
_atom_site_type_symbol
_atom_site_fract_x
_atom_site_fract_y
_atom_site_fract_z
Bi1 Bi -0.2693(1) 0.0000(1) 0.0000
Cl1 Cl -0.3333 0.3333 0.0029(3)
Cl4 Cl -0.6667 -0.3333 0.0041(3)
O1 O -0.004(2) 0.200(2) 0.0370(3)
O2 O -0.205(2) -0.208(2) -0.0321(3)
N1 N -0.351(2) -0.002(3) 0.0731(3)
N2 N -0.347(3) -0.003(2) -0.0654(6)
C1 C -0.177(3) -0.002(3) 0.0897(5)
C2 C 0.000(2) 0.183(2) 0.0758(4)
C3 C -0.180(2) -0.002(2) -0.0844(4)
C4 C -0.180(3) -0.178(3) -0.0713(6)
H1 H -0.4598 -0.1060 0.0799
H2 H -0.3529 0.1039 0.0800
H3 H -0.3513 0.1020 -0.0718
H4 H -0.4565 -0.1075 -0.0718
H5 H -0.1815 -0.0031 0.1164
H6 H -0.0019 0.2933 0.0850
H7 H -0.1882 -0.0007 -0.1110
H8 H -0.2854 -0.2846 -0.0830
C2C C -0.183(2) -0.183(3) 0.0758(4)
O1C O -0.200(2) -0.204(3) 0.0370(3)
C1C C 0.002(3) -0.175(4) 0.0897(5)
N1C N 0.002(3) -0.349(4) 0.0731(3)
H1C H 0.1060 -0.3538 0.0799
H2C H -0.1039 -0.4568 0.0800
C2D C 0.183(3) 0.000(2) 0.0758(4)
O1D O 0.204(3) 0.004(2) 0.0370(3)
C1D C 0.175(4) 0.177(3) 0.0897(5)
N1D N 0.349(4) 0.351(2) 0.0731(3)
H1D H 0.3538 0.4598 0.0799
H2D H 0.4568 0.3529 0.0800
H5D H 0.1784 0.1815 0.1164
H6D H 0.2952 0.0019 0.0850
H5C H 0.0031 -0.1784 0.1164
H6C H -0.2933 -0.2952 0.0850
C4D C 0.002(4) 0.180(3) -0.0713(6)
O2D O -0.003(3) 0.205(2) -0.0321(3)
C3D C 0.178(3) 0.180(2) -0.0844(4)
N2D N 0.344(4) 0.347(3) -0.0654(6)
H3D H 0.4533 0.3513 -0.0718
H4D H 0.3490 0.4565 -0.0718
C4C C 0.178(3) -0.002(4) -0.0713(6)
O2C O 0.208(2) 0.003(3) -0.0321(3)
C3C C 0.002(2) -0.178(3) -0.0844(4)
N2C N 0.003(2) -0.344(4) -0.0654(6)
H3C H -0.1020 -0.4533 -0.0718
H4C H 0.1075 -0.3490 -0.0718
H7C H 0.0007 -0.1875 -0.1110
H8C H 0.2846 -0.0008 -0.0830
H7D H 0.1875 0.1882 -0.1110
H8D H 0.0008 0.2854 -0.0830
Bi1D Bi -0.7307(1) 0.2693(1) 0.0000
Bi1C Bi 0.0000(1) 0.7307(1) 0.0000
Bi1C_2 Bi -1.0000(1) -0.2693(1) 0.0000
Bi1D_2 Bi -0.7307(1) -0.7307(1) 0.0000
Bi1D_3 Bi 0.2693(1) 0.2693(1) 0.0000
Bi1C_3 Bi 0.0000(1) -0.2693(1) 0.0000
Cl4_2 Cl 0.3333 0.6667 0.0041(3)
O1C_2 O -0.200(2) 0.796(3) 0.0370(3)
O1D_2 O 0.204(3) 1.004(2) 0.0370(3)
O2_2 O -0.205(2) 0.792(2) -0.0321(3)
O2C_2 O 0.208(2) 1.003(3) -0.0321(3)
N1C_2 N 0.002(3) 0.651(4) 0.0731(3)
N2C_2 N 0.003(2) 0.656(4) -0.0654(6)
H1C_2 H 0.1060 0.6462 0.0799
H2C_2 H -0.1039 0.5432 0.0800
H3C_2 H -0.1020 0.5467 -0.0718
H4C_2 H 0.1075 0.6510 -0.0718
Cl1_2 Cl -0.3333 -0.6667 0.0029(3)
O1_2 O -1.004(2) -0.800(2) 0.0370(3)
O1D_3 O -0.796(3) -0.996(2) 0.0370(3)
O2C_3 O -0.792(2) -0.997(3) -0.0321(3)
O2D_2 O -1.003(3) -0.795(2) -0.0321(3)
N1D_2 N -0.651(4) -0.649(2) 0.0731(3)
N2D_2 N -0.656(4) -0.653(3) -0.0654(6)
H1D_2 H -0.6462 -0.5402 0.0799
H2D_2 H -0.5432 -0.6471 0.0800
H3D_2 H -0.5467 -0.6487 -0.0718
H4D_2 H -0.6510 -0.5435 -0.0718
Cl2 Cl 0.6667 0.3333 0.1381(4)
Cl3 Cl 0.0000 0.0000 0.2007(3)
O3 O 0.3333 0.6667 0.212(1)
O4 O 0.3333 0.6667 0.126(1)
O5 O 0.031(3) 0.365(4) 0.1695(7)
loop_
_geom_bond_atom_site_label_1
_geom_bond_atom_site_label_2
_geom_bond_site_symmetry_1
_geom_bond_site_symmetry_2
Bi1 Cl1 1_555 1_555
Cl1 Bi1D 1_555 1_555
Cl4 Bi1 1_555 1_555
O1 Bi1 1_555 1_555
O2 Bi1 1_555 1_555
N1 Bi1 1_555 1_555
N2 Bi1 1_555 1_555
C1 N1 1_555 1_555
C2 O1 1_555 1_555
C3 N2 1_555 1_555
C4 O2 1_555 1_555
H1 N1 1_555 1_555
H2 N1 1_555 1_555
H3 N2 1_555 1_555
H4 N2 1_555 1_555
H5 C1 1_555 1_555
H6 C2 1_555 1_555
H7 C3 1_555 1_555
H8 C4 1_555 1_555
C2C C1 1_555 1_555
O1C Bi1 1_555 1_555
C1C C2C 1_555 1_555
N1C C1C 1_555 1_555
H1C N1C 1_555 1_555
H2C N1C 1_555 1_555
C2D C1C 1_555 1_555
O1D C2D 1_555 1_555
C1D C2 1_555 1_555
N1D C1D 1_555 1_555
H1D N1D 1_555 1_555
H2D N1D 1_555 1_555
H5D C1D 1_555 1_555
H6D C2D 1_555 1_555
H5C C1C 1_555 1_555
H6C C2C 1_555 1_555
C4D C3 1_555 1_555
O2D Bi1 1_555 1_555
C3D C4D 1_555 1_555
N2D C3D 1_555 1_555
H3D N2D 1_555 1_555
H4D N2D 1_555 1_555
C4C C3D 1_555 1_555
O2C C4C 1_555 1_555
C3C C4 1_555 1_555
N2C C3C 1_555 1_555
H3C N2C 1_555 1_555
H4C N2C 1_555 1_555
H7C C3C 1_555 1_555
H8C C4C 1_555 1_555
H7D C3D 1_555 1_555
H8D C4D 1_555 1_555
Bi1C Cl1 1_555 1_555
Bi1C_2 Cl4 1_555 1_555
Bi1D_2 Cl4 1_555 1_555
Bi1D_3 O1 1_555 1_555
Bi1C_3 O2 1_555 1_555
Cl4_2 Bi1C 1_555 1_555
O1C_2 Bi1C 1_555 1_555
O1D_2 Bi1C 1_555 1_555
O2_2 Bi1C 1_555 1_555
O2C_2 Bi1C 1_555 1_555
N1C_2 Bi1C 1_555 1_555
N2C_2 Bi1C 1_555 1_555
H1C_2 N1C_2 1_555 1_555
H2C_2 N1C_2 1_555 1_555
H3C_2 N2C_2 1_555 1_555
H4C_2 N2C_2 1_555 1_555
Cl1_2 Bi1D_2 1_555 1_555
O1_2 Bi1D_2 1_555 1_555
O1D_3 Bi1D_2 1_555 1_555
O2C_3 Bi1D_2 1_555 1_555
O2D_2 Bi1D_2 1_555 1_555
N1D_2 Bi1D_2 1_555 1_555
N2D_2 Bi1D_2 1_555 1_555
H1D_2 N1D_2 1_555 1_555
H2D_2 N1D_2 1_555 1_555
H3D_2 N2D_2 1_555 1_555
H4D_2 N2D_2 1_555 1_555
C1 C2 1_555 1_555
C3 C4 1_555 1_555
C2C O1C 1_555 1_555
O1C Bi1C_3 1_555 1_555
N1C Bi1C_3 1_555 1_555
C2D C1D 1_555 1_555
O1D Bi1C_3 1_555 1_555
O1D Bi1D_3 1_555 1_555
N1D Bi1D_3 1_555 1_555
C4D O2D 1_555 1_555
O2D Bi1D_3 1_555 1_555
N2D Bi1D_3 1_555 1_555
C4C C3C 1_555 1_555
O2C Bi1C_3 1_555 1_555
O2C Bi1D_3 1_555 1_555
N2C Bi1C_3 1_555 1_555
Bi1D_3 Cl4_2 1_555 1_555
Bi1C_3 Cl1_2 1_555 1_555

#END
