
#######################################################################
#
#                 Cambridge Crystallographic Data Centre
#                                CCDC 
#
#######################################################################
#
# If this CIF has been generated from an entry in the Cambridge 
# Structural Database, then it will include bibliographic, chemical, 
# crystal, experimental, refinement or atomic coordinate data resulting 
# from the CCDC's data processing and validation procedures.
#
#######################################################################

data_PERRAF01
_symmetry_cell_setting           rhombohedral
_symmetry_space_group_name_H-M   'R 3 2'
_symmetry_Int_Tables_number      155
_space_group_name_Hall           'R 3 2"'
loop_
_symmetry_equiv_pos_site_id
_symmetry_equiv_pos_as_xyz
1 x,y,z
2 -y,x-y,z
3 y,x,-z
4 -x+y,-x,z
5 -x,-x+y,-z
6 x-y,-y,-z
7 1/3+x,2/3+y,2/3+z
8 1/3-y,2/3+x-y,2/3+z
9 1/3+y,2/3+x,2/3-z
10 1/3-x+y,2/3-x,2/3+z
11 1/3-x,2/3-x+y,2/3-z
12 1/3+x-y,2/3-y,2/3-z
13 2/3+x,1/3+y,1/3+z
14 2/3-y,1/3+x-y,1/3+z
15 2/3+y,1/3+x,1/3-z
16 2/3-x+y,1/3-x,1/3+z
17 2/3-x,1/3-x+y,1/3-z
18 2/3+x-y,1/3-y,1/3-z
_cell_length_a                   8.114
_cell_length_b                   8.114
_cell_length_c                   35.96
_cell_angle_alpha                90
_cell_angle_beta                 90
_cell_angle_gamma                120.0
_cell_volume                     2050.31
loop_
_atom_site_label
_atom_site_type_symbol
_atom_site_fract_x
_atom_site_fract_y
_atom_site_fract_z
Bi1 Bi -0.2693 0.000 0.0000
Cl1 Cl -0.6667 -0.333 0.0006
O1 O 0.0000 0.204 0.0346
N1 N -0.348 0.000 0.0692
C1 C -0.178 0.000 0.0870
C2 C -0.001 0.180 0.0736
C2A C -0.180 -0.181 0.0736
O1A O -0.204 -0.2040 0.0346
C1A C 0.000 -0.178 0.0870
N1A N 0.000 -0.348 0.0692
C2C C 0.181 0.001 0.0736
O1C O 0.2040 0.0000 0.0346
C1C C 0.178 0.178 0.0870
N1C N 0.348 0.348 0.0692
Cl1B Cl -0.333 0.3333 -0.0006
O1D O 0.0000 0.2040 -0.0346
N1D N 0.348 0.348 -0.0692
C1D C 0.178 0.178 -0.0870
C2D C 0.001 0.181 -0.0736
C2B C 0.180 -0.001 -0.0736
O1B O 0.204 0.0000 -0.0346
C1B C 0.000 -0.178 -0.0870
N1B N 0.000 -0.348 -0.0692
C2E C -0.181 -0.180 -0.0736
O1E O -0.2040 -0.204 -0.0346
C1E C -0.178 0.000 -0.0870
N1E N -0.348 0.000 -0.0692
Bi1B Bi 0.000 0.7307 0.0000
Bi1C Bi -0.7307 -0.7307 0.0000
Bi1A Bi -1.000 -0.2693 0.0000
Bi1C_2 Bi 0.2693 0.2693 0.0000
Bi1A_2 Bi 0.000 -0.2693 0.0000
Bi1C_3 Bi -0.7307 0.2693 0.0000
Cl1_2 Cl 0.3333 0.667 0.0006
O1A_2 O -0.204 0.7960 0.0346
O1B_2 O 0.204 1.0000 -0.0346
O1C_2 O 0.2040 1.0000 0.0346
O1E_2 O -0.2040 0.796 -0.0346
N1A_2 N 0.000 0.652 0.0692
N1B_2 N 0.000 0.652 -0.0692
Cl1B_2 Cl -0.333 -0.6667 -0.0006
O1_2 O -1.0000 -0.796 0.0346
O1B_3 O -0.796 -1.0000 -0.0346
O1C_3 O -0.7960 -1.0000 0.0346
O1D_2 O -1.0000 -0.7960 -0.0346
N1C_2 N -0.652 -0.652 0.0692
N1D_2 N -0.652 -0.652 -0.0692
Cl2 Cl 0.0000 0.000 0.8020
O2 O 0.0000 0.000 0.5430
O3 O 0.698 0.698 0.5000
loop_
_geom_bond_atom_site_label_1
_geom_bond_atom_site_label_2
_geom_bond_site_symmetry_1
_geom_bond_site_symmetry_2
Bi1 Cl1 1_555 1_555
Cl1 Bi1C 1_555 1_555
O1 Bi1 1_555 1_555
N1 Bi1 1_555 1_555
C1 N1 1_555 1_555
C2 O1 1_555 1_555
C2A C1 1_555 1_555
O1A Bi1 1_555 1_555
C1A C2A 1_555 1_555
N1A C1A 1_555 1_555
C2C C1A 1_555 1_555
O1C C2C 1_555 1_555
C1C C2 1_555 1_555
N1C C1C 1_555 1_555
Cl1B Bi1 1_555 1_555
O1D Bi1 1_555 1_555
N1D C1D 1_555 1_555
C1D C2D 1_555 1_555
C2D O1D 1_555 1_555
C2B C1D 1_555 1_555
O1B C2B 1_555 1_555
C1B C2B 1_555 1_555
N1B C1B 1_555 1_555
C2E C1B 1_555 1_555
O1E Bi1 1_555 1_555
C1E C2D 1_555 1_555
N1E Bi1 1_555 1_555
Bi1B Cl1B 1_555 1_555
Bi1C Cl1B_2 1_555 1_555
Bi1A Cl1 1_555 1_555
Bi1C_2 O1 1_555 1_555
Bi1A_2 O1A 1_555 1_555
Bi1C_3 Cl1B 1_555 1_555
Cl1_2 Bi1B 1_555 1_555
O1A_2 Bi1B 1_555 1_555
O1B_2 Bi1B 1_555 1_555
O1C_2 Bi1B 1_555 1_555
O1E_2 Bi1B 1_555 1_555
N1A_2 Bi1B 1_555 1_555
N1B_2 Bi1B 1_555 1_555
Cl1B_2 Bi1A_2 1_555 1_555
O1_2 Bi1C 1_555 1_555
O1B_3 Bi1C 1_555 1_555
O1C_3 Bi1C 1_555 1_555
O1D_2 Bi1C 1_555 1_555
N1C_2 Bi1C 1_555 1_555
N1D_2 Bi1C 1_555 1_555
C1 C2 1_555 1_555
C2A O1A 1_555 1_555
N1A Bi1A_2 1_555 1_555
C2C C1C 1_555 1_555
O1C Bi1A_2 1_555 1_555
O1C Bi1C_2 1_555 1_555
N1C Bi1C_2 1_555 1_555
O1D Bi1C_2 1_555 1_555
N1D Bi1C_2 1_555 1_555
O1B Bi1A_2 1_555 1_555
O1B Bi1C_2 1_555 1_555
N1B Bi1A_2 1_555 1_555
C2E O1E 1_555 1_555
C2E C1E 1_555 1_555
O1E Bi1A_2 1_555 1_555
C1E N1E 1_555 1_555
Bi1C_2 Cl1_2 1_555 1_555

#END
