
#######################################################################
#
#                 Cambridge Crystallographic Data Centre
#                                CCDC 
#
#######################################################################
#
# If this CIF has been generated from an entry in the Cambridge 
# Structural Database, then it will include bibliographic, chemical, 
# crystal, experimental, refinement or atomic coordinate data resulting 
# from the CCDC's data processing and validation procedures.
#
#######################################################################

data_PERSEM
_symmetry_cell_setting           triclinic
_symmetry_space_group_name_H-M   'P -1'
_symmetry_Int_Tables_number      2
_space_group_name_Hall           '-P 1'
loop_
_symmetry_equiv_pos_site_id
_symmetry_equiv_pos_as_xyz
1 x,y,z
2 -x,-y,-z
_cell_length_a                   6.30570(10)
_cell_length_b                   8.3529(2)
_cell_length_c                   9.1064(2)
_cell_angle_alpha                98.2000(10)
_cell_angle_beta                 91.2800(10)
_cell_angle_gamma                103.2000(10)
_cell_volume                     461.444
loop_
_atom_site_label
_atom_site_type_symbol
_atom_site_fract_x
_atom_site_fract_y
_atom_site_fract_z
U1 U 0.5000 0.5000 1.0000
Zn1 Zn 1.0000 0.5000 0.5000
O1 O 0.6482(3) 0.9005(2) 0.65750(19)
O2 O 1.3355(3) 0.5755(3) 0.5582(2)
H1 H 1.4308 0.5172 0.5115
H2 H 1.3890 0.6673 0.6307
O3 O 0.9800(3) 0.7009(2) 0.65935(18)
O4 O 0.5049(3) 1.0606(2) 0.8247(2)
O5 O 0.7074(3) 0.59818(19) 0.79446(18)
O6 O 1.3543(3) 0.7098(2) 0.88134(19)
O7 O 1.1928(3) 0.6346(2) 1.07706(19)
C1 C 0.8678(3) 0.7088(3) 0.7704(2)
C2 C 0.9397(3) 0.8632(3) 0.8873(2)
C3 C 1.2265(3) 0.7310(3) 0.9816(2)
C4 C 0.6503(4) 0.9793(3) 0.7810(2)
C5 C 0.8287(3) 0.9908(3) 0.8969(2)
C6 C 1.1117(3) 0.8722(3) 0.9896(2)
O8 O 1.0401(4) 0.6787(3) 0.3548(2)
O9 O 0.3222(3) 0.3455(2) 0.87382(19)
H3 H 1.082(7) 0.672(6) 0.261(3)
H4 H 0.948(6) 0.745(5) 0.342(5)
H5 H 0.407(6) 1.042(5) 0.745(3)
O1A O 1.3518(3) 1.0995(2) 1.34250(19)
O3A O 1.0200(3) 1.2991(2) 1.34065(18)
O4A O 1.4951(3) 0.9394(2) 1.1753(2)
O5A O 1.2926(3) 1.40182(19) 1.20554(18)
O6A O 0.6457(3) 1.2902(2) 1.11866(19)
O7A O 0.8072(3) 1.3654(2) 0.92294(19)
C1A C 1.1322(3) 1.2912(3) 1.2296(2)
C2A C 1.0603(3) 1.1368(3) 1.1127(2)
C3A C 0.7735(3) 1.2690(3) 1.0184(2)
C4A C 1.3497(4) 1.0207(3) 1.2190(2)
C5A C 1.1713(3) 1.0092(3) 1.1031(2)
C6A C 0.8883(3) 1.1278(3) 1.0104(2)
H5A H 1.593(6) 0.958(5) 1.255(3)
O9A O 0.6778(3) 0.6545(2) 1.12618(19)
O2A O 0.6645(3) 0.4245(3) 0.4418(2)
H1A H 0.5692 0.4828 0.4885
H2A H 0.6110 0.3327 0.3693
O8A O 0.9599(4) 0.3213(3) 0.6452(2)
H3A H 0.918(7) 0.328(6) 0.739(3)
H4A H 1.052(6) 0.255(5) 0.658(5)
U1_2 U 0.5000 1.5000 1.0000
U1_3 U 1.5000 0.5000 1.0000
U1_4 U 1.5000 1.5000 1.0000
Zn1_2 Zn 1.0000 1.5000 1.5000
O3A_2 O 1.0200(3) 0.2991(2) 0.34065(18)
O5A_2 O 0.2926(3) 0.40182(19) 1.20554(18)
O6_2 O 0.3543(3) 0.7098(2) 0.88134(19)
O6A_2 O 0.6457(3) 0.2902(2) 1.11866(19)
O7_2 O 0.1928(3) 0.6346(2) 1.07706(19)
O7A_2 O 0.8072(3) 0.3654(2) 0.92294(19)
O10 O 0.2010(3) 1.0335(3) 0.6188(2)
H6 H 0.249(6) 1.032(5) 0.527(2)
H7 H 0.128(7) 0.930(3) 0.615(5)
loop_
_geom_bond_atom_site_label_1
_geom_bond_atom_site_label_2
_geom_bond_site_symmetry_1
_geom_bond_site_symmetry_2
U1 O5 1_555 1_555
Zn1 O2 1_555 1_555
O1 C4 1_555 1_555
O2 H1 1_555 1_555
H2 O2 1_555 1_555
O3 Zn1 1_555 1_555
O4 C4 1_555 1_555
O5 C1 1_555 1_555
O6 C3 1_555 1_555
O7 C3 1_555 1_555
C1 O3 1_555 1_555
C2 C1 1_555 1_555
C3 C6 1_555 1_555
C4 C5 1_555 1_555
C5 C2 1_555 1_555
C6 C2 1_555 1_555
O8 Zn1 1_555 1_555
O9 U1 1_555 1_555
H3 O8 1_555 1_555
H4 O8 1_555 1_555
H5 O4 1_555 1_555
O10 H6 1_555 1_555
H7 O10 1_555 1_555
O1A C4A 1_555 1_555
O3A C1A 1_555 1_555
O4A C4A 1_555 1_555
O5A C1A 1_555 1_555
O6A C3A 1_555 1_555
O7A C3A 1_555 1_555
C1A C2A 1_555 1_555
C2A C5A 1_555 1_555
C3A C6A 1_555 1_555
C4A C5A 1_555 1_555
C5A C6 1_555 1_555
C6A C5 1_555 1_555
H5A O4A 1_555 1_555
O9A U1 1_555 1_555
O2A Zn1 1_555 1_555
H1A O2A 1_555 1_555
H2A O2A 1_555 1_555
O8A Zn1 1_555 1_555
H3A O8A 1_555 1_555
H4A O8A 1_555 1_555
U1_2 O6A 1_555 1_555
U1_3 O6 1_555 1_555
U1_4 O5A 1_555 1_555
Zn1_2 O3A 1_555 1_555
O3A_2 Zn1 1_555 1_555
O5A_2 U1 1_555 1_555
O6_2 U1 1_555 1_555
O6A_2 U1 1_555 1_555
O7_2 U1 1_555 1_555
O7A_2 U1 1_555 1_555
O7 U1_3 1_555 1_555
O7A U1_2 1_555 1_555
C2A C6A 1_555 1_555

#END
