
#######################################################################
#
#                 Cambridge Crystallographic Data Centre
#                                CCDC 
#
#######################################################################
#
# If this CIF has been generated from an entry in the Cambridge 
# Structural Database, then it will include bibliographic, chemical, 
# crystal, experimental, refinement or atomic coordinate data resulting 
# from the CCDC's data processing and validation procedures.
#
#######################################################################

data_PERSIQ
_symmetry_cell_setting           rhombohedral
_symmetry_space_group_name_H-M   'R -3'
_symmetry_Int_Tables_number      148
_space_group_name_Hall           '-R 3'
loop_
_symmetry_equiv_pos_site_id
_symmetry_equiv_pos_as_xyz
1 x,y,z
2 -y,x-y,z
3 -x+y,-x,z
4 2/3+x,1/3+y,1/3+z
5 2/3-y,1/3+x-y,1/3+z
6 2/3-x+y,1/3-x,1/3+z
7 1/3+x,2/3+y,2/3+z
8 1/3-y,2/3+x-y,2/3+z
9 1/3-x+y,2/3-x,2/3+z
10 -x,-y,-z
11 y,-x+y,-z
12 x-y,x,-z
13 1/3-x,2/3-y,2/3-z
14 1/3+y,2/3-x+y,2/3-z
15 1/3+x-y,2/3+x,2/3-z
16 2/3-x,1/3-y,1/3-z
17 2/3+y,1/3-x+y,1/3-z
18 2/3+x-y,1/3+x,1/3-z
_cell_length_a                   19.7840(8)
_cell_length_b                   19.7840(8)
_cell_length_c                   33.4938(14)
_cell_angle_alpha                90
_cell_angle_beta                 90
_cell_angle_gamma                120
_cell_volume                     11353.3
loop_
_atom_site_label
_atom_site_type_symbol
_atom_site_fract_x
_atom_site_fract_y
_atom_site_fract_z
Cl2 Cl 0.1903(3) 0.4341(4) 0.3737(2)
Cu1 Cu 0.51331(3) 0.44805(3) 0.414603(15)
Mn1 Mn 0.59479(4) 0.43565(4) 0.335499(17)
Mn2 Mn 0.69775(4) 0.53741(4) 0.412049(18)
Mn3 Mn 0.58732(4) 0.34662(4) 0.405077(19)
Cl1 Cl 0.71624(9) 0.64391(8) 0.45499(4)
O1 O 0.51648(17) 0.34966(18) 0.36581(8)
O2 O 0.66537(18) 0.42992(17) 0.37255(8)
O3 O 0.6667 0.3333 0.43067(14)
C1 C 0.5599(4) 0.5644(3) 0.35940(15)
H1 H 0.5896 0.5911 0.3350
H2 H 0.5654 0.6050 0.3786
O4 O 0.5916(2) 0.52024(19) 0.37650(8)
C2 C 0.4750(3) 0.5131(3) 0.34894(14)
C3 C 0.4742(7) 0.4775(7) 0.3095(3)
H3 H 0.4193 0.4379 0.3037
H4 H 0.4900 0.5190 0.2891
O5 O 0.51790(19) 0.44294(19) 0.30323(9)
C4 C 0.4484(7) 0.5719(7) 0.3417(3)
H5 H 0.4871 0.6133 0.3241
H6 H 0.3983 0.5452 0.3270
O6 O 0.4382(5) 0.6071(5) 0.3748(3)
H7 H 0.4757 0.6530 0.3767
N1 N 0.4359(3) 0.4656(3) 0.38710(12)
H8 H 0.4290 0.4996 0.4035
C5 C 0.3609(4) 0.3976(4) 0.3844(2)
H9 H 0.3651 0.3571 0.3690
H10 H 0.3253 0.4104 0.3697
C6 C 0.3257(4) 0.3644(5) 0.4265(3)
H11 H 0.2695 0.3256 0.4236
H12 H 0.3303 0.4074 0.4436
C7 C 0.3687(3) 0.3246(3) 0.44742(18)
H13 H 0.3386 0.2948 0.4711
H14 H 0.3724 0.2879 0.4287
N2 N 0.4464(2) 0.3849(2) 0.45945(11)
H15 H 0.4385 0.4196 0.4747
C8 C 0.4924(3) 0.3612(3) 0.48607(12)
C9 C 0.5755(3) 0.4235(3) 0.48257(12)
H16 H 0.5836 0.4706 0.4970
H17 H 0.6092 0.4056 0.4951
O7 O 0.59680(18) 0.44227(17) 0.44195(8)
C10 C 0.4814(3) 0.2816(3) 0.47619(11)
H18 H 0.5133 0.2705 0.4950
H19 H 0.4261 0.2420 0.4809
O8 O 0.50128(19) 0.27197(18) 0.43669(9)
C11 C 0.4648(4) 0.3556(3) 0.53048(13)
H20 H 0.4122 0.3093 0.5338
H21 H 0.5012 0.3498 0.5485
O9 O 0.4625(2) 0.4243(2) 0.54056(10)
H22 H 0.4165 0.4157 0.5384
Cu1A Cu 0.55195(3) 0.06526(4) 0.414603(15)
Mn1A Mn 0.56435(4) 0.15914(6) 0.335499(17)
Mn2A Mn 0.46259(4) 0.16034(6) 0.412049(18)
Mn3A Mn 0.65338(4) 0.24070(6) 0.405077(19)
Cl1A Cl 0.35609(8) 0.07233(12) 0.45499(4)
O1A O 0.65034(18) 0.16682(25) 0.36581(8)
O2A O 0.57008(17) 0.23545(25) 0.37255(8)
C1A C 0.4356(3) -0.0045(5) 0.35940(15)
H1A H 0.4089 -0.0015 0.3350
H2A H 0.3950 -0.0396 0.3786
O4A O 0.47976(19) 0.07136(28) 0.37650(8)
C2A C 0.4869(3) -0.0381(4) 0.34894(14)
C3A C 0.5225(7) -0.0033(10) 0.3095(3)
H3A H 0.5621 -0.0186 0.3037
H4A H 0.4810 -0.0290 0.2891
O5A O 0.55706(19) 0.07496(27) 0.30323(9)
C4A C 0.4281(7) -0.1235(10) 0.3417(3)
H5A H 0.3867 -0.1262 0.3241
H6A H 0.4548 -0.1469 0.3270
O6A O 0.3929(5) -0.1689(7) 0.3748(3)
H7A H 0.3470 -0.1773 0.3767
N1A N 0.5344(3) -0.0297(4) 0.38710(12)
H8A H 0.5004 -0.0706 0.4035
C5A C 0.6024(4) -0.0367(6) 0.3844(2)
H9A H 0.6429 0.0080 0.3690
H10A H 0.5896 -0.0851 0.3697
C6A C 0.6356(5) -0.0387(6) 0.4265(3)
H11A H 0.6744 -0.0561 0.4236
H12A H 0.5926 -0.0771 0.4436
C7A C 0.6754(3) 0.0441(4) 0.44742(18)
H13A H 0.7052 0.0438 0.4711
H14A H 0.7121 0.0845 0.4287
N2A N 0.6151(2) 0.0615(3) 0.45945(11)
H15A H 0.5804 0.0189 0.4747
C8A C 0.6388(3) 0.1312(4) 0.48607(12)
C9A C 0.5765(3) 0.1520(4) 0.48257(12)
H16A H 0.5294 0.1130 0.4970
H17A H 0.5944 0.2036 0.4951
O7A O 0.55773(17) 0.15453(25) 0.44195(8)
C10A C 0.7184(3) 0.1998(4) 0.47619(11)
H18A H 0.7295 0.2428 0.4950
H19A H 0.7580 0.1841 0.4809
O8A O 0.72803(18) 0.22931(26) 0.43669(9)
C11A C 0.6444(3) 0.1092(5) 0.53048(13)
H20A H 0.6907 0.1029 0.5338
H21A H 0.6502 0.1514 0.5485
O9A O 0.5757(2) 0.0382(3) 0.54056(10)
H22A H 0.5843 0.0008 0.5384
Cu1B Cu 0.93474(4) 0.48669(3) 0.414603(15)
Mn1B Mn 0.84086(6) 0.40521(4) 0.335499(17)
Mn2B Mn 0.83966(6) 0.30225(4) 0.412049(18)
Mn3B Mn 0.75930(6) 0.41268(4) 0.405077(19)
Cl1B Cl 0.92767(12) 0.28376(9) 0.45499(4)
O1B O 0.83318(25) 0.48352(17) 0.36581(8)
O2B O 0.76455(25) 0.33463(18) 0.37255(8)
C1B C 1.0045(5) 0.4401(4) 0.35940(15)
H1B H 1.0015 0.4104 0.3350
H2B H 1.0396 0.4346 0.3786
O4B O 0.92864(28) 0.4084(2) 0.37650(8)
C2B C 1.0381(4) 0.5250(3) 0.34894(14)
C3B C 1.0033(10) 0.5258(7) 0.3095(3)
H3B H 1.0186 0.5807 0.3037
H4B H 1.0290 0.5100 0.2891
O5B O 0.92504(27) 0.48210(19) 0.30323(9)
C4B C 1.1235(10) 0.5516(7) 0.3417(3)
H5B H 1.1262 0.5129 0.3241
H6B H 1.1469 0.6017 0.3270
O6B O 1.1689(7) 0.5618(5) 0.3748(3)
H7B H 1.1773 0.5243 0.3767
N1B N 1.0297(4) 0.5641(3) 0.38710(12)
H8B H 1.0706 0.5710 0.4035
C5B C 1.0367(6) 0.6391(4) 0.3844(2)
H9B H 0.9920 0.6349 0.3690
H10B H 1.0851 0.6747 0.3697
C6B C 1.0387(6) 0.6743(4) 0.4265(3)
H11B H 1.0561 0.7305 0.4236
H12B H 1.0771 0.6697 0.4436
C7B C 0.9559(4) 0.6313(3) 0.44742(18)
H13B H 0.9562 0.6614 0.4711
H14B H 0.9155 0.6276 0.4287
N2B N 0.9385(3) 0.5536(2) 0.45945(11)
H15B H 0.9811 0.5615 0.4747
C8B C 0.8688(4) 0.5076(3) 0.48607(12)
C9B C 0.8480(4) 0.4245(3) 0.48257(12)
H16B H 0.8870 0.4164 0.4970
H17B H 0.7964 0.3908 0.4951
O7B O 0.84547(25) 0.40320(18) 0.44195(8)
C10B C 0.8002(4) 0.5186(3) 0.47619(11)
H18B H 0.7572 0.4867 0.4950
H19B H 0.8159 0.5739 0.4809
O8B O 0.77069(26) 0.49872(19) 0.43669(9)
C11B C 0.8908(5) 0.5352(4) 0.53048(13)
H20B H 0.8971 0.5878 0.5338
H21B H 0.8486 0.4988 0.5485
O9B O 0.9618(3) 0.5375(2) 0.54056(10)
H22B H 0.9992 0.5835 0.5384
Cu1I Cu 0.48669(3) 0.55195(3) 0.585397(15)
Cu1J Cu 0.44805(3) -0.06526(4) 0.585397(15)
Cu1K Cu 1.06526(4) 0.51331(3) 0.585397(15)
Mn1L Mn 0.73854(4) 0.23102(4) 0.331168(17)
Mn1M Mn 0.76898(4) 0.50753(6) 0.331168(17)
Mn1N Mn 0.49247(6) 0.26146(4) 0.331168(17)
Mn2L Mn 0.63558(4) 0.12926(4) 0.254618(18)
Mn2M Mn 0.87074(4) 0.50633(6) 0.254618(18)
Mn2N Mn 0.49367(6) 0.36442(4) 0.254618(18)
O1L O 0.81685(17) 0.31701(18) 0.30086(8)
O1M O 0.68299(18) 0.49985(25) 0.30086(8)
O1N O 0.50015(25) 0.18315(17) 0.30086(8)
O2L O 0.66796(18) 0.23675(17) 0.29412(8)
O2M O 0.76325(17) 0.43122(25) 0.29412(8)
O2N O 0.56878(25) 0.33204(18) 0.29412(8)
O5L O 0.81543(19) 0.22373(19) 0.36344(9)
O5M O 0.77627(19) 0.59171(27) 0.36344(9)
O5N O 0.40829(27) 0.18457(19) 0.36344(9)
O9I O 0.5375(2) 0.5757(2) 0.45944(10)
O9J O 0.4243(2) -0.0382(3) 0.45944(10)
O9K O 1.0382(3) 0.4625(2) 0.45944(10)
C12? C 0.4514(7) 0.4418(8) 0.3179(3)
H23? H 0.4177 0.3915 0.3315
H24? H 0.4215 0.4464 0.2954
O10? O 0.51790(19) 0.44294(19) 0.30323(9)
C13? C 0.4234(9) 0.5476(9) 0.3354(4)
H25? H 0.4416 0.5730 0.3090
H26? H 0.3687 0.5049 0.3324
O11? O 0.4262(9) 0.5984(9) 0.3610(4)
H27? H 0.3923 0.5753 0.3788
loop_
_geom_bond_atom_site_label_1
_geom_bond_atom_site_label_2
_geom_bond_site_symmetry_1
_geom_bond_site_symmetry_2
Cu1 O1 1_555 1_555
Mn1 O1 1_555 1_555
Mn2 Cl1 1_555 1_555
Mn3 O1 1_555 1_555
O1 Mn1N 1_555 1_555
O2 Mn1 1_555 1_555
O3 Mn3 1_555 1_555
C1 H1 1_555 1_555
H2 C1 1_555 1_555
O4 Cu1 1_555 1_555
C2 C1 1_555 1_555
C3 C2 1_555 1_555
H3 C3 1_555 1_555
H4 C3 1_555 1_555
O5 Mn1 1_555 1_555
C4 C2 1_555 1_555
H5 C4 1_555 1_555
H6 C4 1_555 1_555
O6 C4 1_555 1_555
H7 O6 1_555 1_555
N1 Cu1 1_555 1_555
H8 N1 1_555 1_555
C5 N1 1_555 1_555
H9 C5 1_555 1_555
H10 C5 1_555 1_555
C6 C5 1_555 1_555
H11 C6 1_555 1_555
H12 C6 1_555 1_555
C7 C6 1_555 1_555
H13 C7 1_555 1_555
H14 C7 1_555 1_555
N2 Cu1 1_555 1_555
H15 N2 1_555 1_555
C8 N2 1_555 1_555
C9 C8 1_555 1_555
H16 C9 1_555 1_555
H17 C9 1_555 1_555
O7 Cu1 1_555 1_555
C10 C8 1_555 1_555
H18 C10 1_555 1_555
H19 C10 1_555 1_555
O8 Mn3 1_555 1_555
C11 C8 1_555 1_555
H20 C11 1_555 1_555
H21 C11 1_555 1_555
O9 C11 1_555 1_555
H22 O9 1_555 1_555
Cu1A O1A 1_555 1_555
Mn1A O1A 1_555 1_555
Mn2A O8 1_555 1_555
Mn3A O3 1_555 1_555
Cl1A Mn2A 1_555 1_555
O1A Mn3A 1_555 1_555
O2A Mn3 1_555 1_555
C1A H1A 1_555 1_555
H2A C1A 1_555 1_555
O4A Cu1A 1_555 1_555
C2A C1A 1_555 1_555
C3A C2A 1_555 1_555
H3A C3A 1_555 1_555
H4A C3A 1_555 1_555
O5A Mn1A 1_555 1_555
C4A C2A 1_555 1_555
H5A C4A 1_555 1_555
H6A C4A 1_555 1_555
O6A C4A 1_555 1_555
H7A O6A 1_555 1_555
N1A Cu1A 1_555 1_555
H8A N1A 1_555 1_555
C5A N1A 1_555 1_555
H9A C5A 1_555 1_555
H10A C5A 1_555 1_555
C6A C5A 1_555 1_555
H11A C6A 1_555 1_555
H12A C6A 1_555 1_555
C7A C6A 1_555 1_555
H13A C7A 1_555 1_555
H14A C7A 1_555 1_555
N2A Cu1A 1_555 1_555
H15A N2A 1_555 1_555
C8A N2A 1_555 1_555
C9A C8A 1_555 1_555
H16A C9A 1_555 1_555
H17A C9A 1_555 1_555
O7A Cu1A 1_555 1_555
C10A C8A 1_555 1_555
H18A C10A 1_555 1_555
H19A C10A 1_555 1_555
O8A Mn3A 1_555 1_555
C11A C8A 1_555 1_555
H20A C11A 1_555 1_555
H21A C11A 1_555 1_555
O9A C11A 1_555 1_555
H22A O9A 1_555 1_555
Cu1B O1B 1_555 1_555
Mn1B O1B 1_555 1_555
Mn2B O8A 1_555 1_555
Mn3B O2 1_555 1_555
Cl1B Mn2B 1_555 1_555
O1B Mn3B 1_555 1_555
O2B Mn3A 1_555 1_555
C1B H1B 1_555 1_555
H2B C1B 1_555 1_555
O4B Cu1B 1_555 1_555
C2B C1B 1_555 1_555
C3B C2B 1_555 1_555
H3B C3B 1_555 1_555
H4B C3B 1_555 1_555
O5B Mn1B 1_555 1_555
C4B C2B 1_555 1_555
H5B C4B 1_555 1_555
H6B C4B 1_555 1_555
O6B C4B 1_555 1_555
H7B O6B 1_555 1_555
N1B Cu1B 1_555 1_555
H8B N1B 1_555 1_555
C5B N1B 1_555 1_555
H9B C5B 1_555 1_555
H10B C5B 1_555 1_555
C6B C5B 1_555 1_555
H11B C6B 1_555 1_555
H12B C6B 1_555 1_555
C7B C6B 1_555 1_555
H13B C7B 1_555 1_555
H14B C7B 1_555 1_555
N2B Cu1B 1_555 1_555
H15B N2B 1_555 1_555
C8B N2B 1_555 1_555
C9B C8B 1_555 1_555
H16B C9B 1_555 1_555
H17B C9B 1_555 1_555
O7B Cu1B 1_555 1_555
C10B C8B 1_555 1_555
H18B C10B 1_555 1_555
H19B C10B 1_555 1_555
O8B Mn2 1_555 1_555
C11B C8B 1_555 1_555
H20B C11B 1_555 1_555
H21B C11B 1_555 1_555
O9B C11B 1_555 1_555
H22B O9B 1_555 1_555
Cu1I O9 1_555 1_555
Cu1J O9A 1_555 1_555
Cu1K O9B 1_555 1_555
Mn1L O1A 1_555 1_555
Mn1M O2 1_555 1_555
Mn1N O2A 1_555 1_555
Mn2L O5A 1_555 1_555
Mn2M O5B 1_555 1_555
Mn2N O5 1_555 1_555
O1L Mn1B 1_555 1_555
O1M Mn1 1_555 1_555
O1N Mn1A 1_555 1_555
O2L Mn1A 1_555 1_555
O2M Mn1B 1_555 1_555
O2N Mn1 1_555 1_555
O5L Mn2B 1_555 1_555
O5M Mn2 1_555 1_555
O5N Mn2A 1_555 1_555
O9I Cu1 1_555 1_555
O9J Cu1A 1_555 1_555
O9K Cu1B 1_555 1_555
Mn1 O4 1_555 1_555
Mn2 O2 1_555 1_555
Mn2 O4 1_555 1_555
Mn2 O7 1_555 1_555
Mn3 O2 1_555 1_555
Mn3 O7 1_555 1_555
O3 Mn3B 1_555 1_555
C1 O4 1_555 1_555
C2 N1 1_555 1_555
C3 O5 1_555 1_555
C7 N2 1_555 1_555
C9 O7 1_555 1_555
C10 O8 1_555 1_555
Mn1A O2A 1_555 1_555
Mn1A O4A 1_555 1_555
Mn2A O2A 1_555 1_555
Mn2A O4A 1_555 1_555
Mn2A O7A 1_555 1_555
Mn3A O2A 1_555 1_555
Mn3A O7A 1_555 1_555
C1A O4A 1_555 1_555
C2A N1A 1_555 1_555
C3A O5A 1_555 1_555
C7A N2A 1_555 1_555
C9A O7A 1_555 1_555
C10A O8A 1_555 1_555
Mn1B O2B 1_555 1_555
Mn1B O4B 1_555 1_555
Mn2B O2B 1_555 1_555
Mn2B O4B 1_555 1_555
Mn2B O7B 1_555 1_555
Mn3B O2B 1_555 1_555
Mn3B O7B 1_555 1_555
Mn3B O8B 1_555 1_555
O1B Mn1M 1_555 1_555
O2B Mn1L 1_555 1_555
C1B O4B 1_555 1_555
C2B N1B 1_555 1_555
C3B O5B 1_555 1_555
C7B N2B 1_555 1_555
C9B O7B 1_555 1_555
C10B O8B 1_555 1_555
Mn1L O1L 1_555 1_555
Mn1L O2L 1_555 1_555
Mn1L O5L 1_555 1_555
Mn1M O1M 1_555 1_555
Mn1M O2M 1_555 1_555
Mn1M O5M 1_555 1_555
Mn1N O1N 1_555 1_555
Mn1N O2N 1_555 1_555
Mn1N O5N 1_555 1_555
Mn2L O2L 1_555 1_555
Mn2M O2M 1_555 1_555
Mn2N O2N 1_555 1_555

#END
