
#######################################################################
#
#                 Cambridge Crystallographic Data Centre
#                                CCDC 
#
#######################################################################
#
# If this CIF has been generated from an entry in the Cambridge 
# Structural Database, then it will include bibliographic, chemical, 
# crystal, experimental, refinement or atomic coordinate data resulting 
# from the CCDC's data processing and validation procedures.
#
#######################################################################

data_PERYAO
_symmetry_cell_setting           triclinic
_symmetry_space_group_name_H-M   'P -1'
_symmetry_Int_Tables_number      2
_space_group_name_Hall           '-P 1'
loop_
_symmetry_equiv_pos_site_id
_symmetry_equiv_pos_as_xyz
1 x,y,z
2 -x,-y,-z
_cell_length_a                   10.4459(8)
_cell_length_b                   12.1007(10)
_cell_length_c                   12.5575(10)
_cell_angle_alpha                111.2940(10)
_cell_angle_beta                 112.1980(10)
_cell_angle_gamma                99.4550(10)
_cell_volume                     1282.99
loop_
_atom_site_label
_atom_site_type_symbol
_atom_site_fract_x
_atom_site_fract_y
_atom_site_fract_z
Cd1 Cd 1.37486(4) 0.80238(4) 0.38444(4)
C1 C 1.4935(6) 0.9487(6) 0.2435(6)
H1 H 1.5817 0.9883 0.3210
C2 C 1.4864(8) 0.9750(7) 0.1473(8)
H2 H 1.5678 1.0342 0.1611
C3 C 1.2573(7) 0.8404(7) 0.0247(7)
H3 H 1.1711 0.7977 -0.0546
C4 C 1.2630(7) 0.8184(6) 0.1228(6)
C5 C 1.1400(6) 0.7358(5) 0.1106(6)
C6 C 1.0144(7) 0.6223(5) 0.1500(6)
C7 C 0.9595(7) 0.5501(5) 0.2011(6)
C8 C 1.0454(7) 0.4984(6) 0.2647(6)
H4 H 1.1403 0.5094 0.2749
C9 C 0.9919(7) 0.4312(6) 0.3126(6)
H5 H 1.0502 0.3943 0.3545
C10 C 0.8557(7) 0.4156(6) 0.3017(6)
C11 C 0.7727(8) 0.4661(7) 0.2368(7)
H6 H 0.6780 0.4554 0.2269
C12 C 0.8232(7) 0.5324(6) 0.1853(6)
H7 H 0.7628 0.5652 0.1391
C13 C 0.6542(9) 0.3296(8) 0.4590(9)
H8 H 0.5846 0.3523 0.4828
C14 C 0.6920(9) 0.3766(9) 0.3888(9)
H9 H 0.6430 0.4251 0.3585
C15 C 0.8020(7) 0.3528(6) 0.3627(6)
C16 C 0.8624(8) 0.2768(7) 0.4058(8)
H10 H 0.9384 0.2571 0.3908
C17 C 0.8140(7) 0.2309(7) 0.4686(7)
H11 H 0.8566 0.1782 0.4963
C18 C 1.3123(6) 1.0512(6) 0.4222(6)
C19 C 1.1649(6) 1.0249(5) 0.3217(6)
C20 C 1.1457(7) 1.0792(7) 0.2433(7)
H12 H 1.2258 1.1322 0.2487
C21 C 1.0065(8) 1.0542(9) 0.1565(9)
H13 H 0.9906 1.0913 0.1018
C22 C 0.8905(8) 0.9772(8) 0.1470(8)
H14 H 0.7955 0.9618 0.0863
C23 C 0.9101(7) 0.9225(6) 0.2242(6)
C24 C 1.0465(6) 0.9466(5) 0.3105(6)
H15 H 1.0613 0.9088 0.3647
C25 C 0.7848(6) 0.8378(6) 0.2168(6)
C26 C 0.6637(7) 0.7585(6) 0.1023(7)
H16 H 0.6572 0.7582 0.0262
C27 C 0.5505(7) 0.6786(6) 0.0973(7)
H17 H 0.4679 0.6238 0.0175
C28 C 0.5560(6) 0.6778(6) 0.2041(6)
C29 C 0.6774(6) 0.7549(6) 0.3187(6)
H18 H 0.6843 0.7544 0.3945
C30 C 0.7907(7) 0.8343(6) 0.3228(6)
H19 H 0.8744 0.8874 0.4023
C31 C 0.4324(7) 0.5951(6) 0.1993(7)
N1 N 1.3852(5) 0.8719(4) 0.2344(5)
N2 N 1.3699(6) 0.9206(6) 0.0364(6)
N3 N 1.1474(5) 0.6943(4) 0.1955(5)
N4 N 1.0093(5) 0.6939(5) 0.0159(5)
N5 N 0.9317(5) 0.6209(5) 0.0420(5)
H20 H 0.8388 0.5781 -0.0059
N6 N 0.7106(6) 0.2551(5) 0.4937(4)
O1 O 1.3310(4) 0.9810(4) 0.4689(4)
O2 O 1.4107(5) 1.1459(4) 0.4518(4)
O3 O 0.4169(5) 0.6237(4) 0.2958(5)
O4 O 0.3512(6) 0.5002(5) 0.0971(5)
Cd1_2 Cd 0.37486(4) 0.80238(4) 0.38444(4)
Cd1A Cd 0.62514(4) 0.19762(4) 0.61556(4)
Cd1A_2 Cd 1.62514(4) 1.19762(4) 0.61556(4)
N6A N 1.2894(6) 0.7449(5) 0.5063(4)
O2A O 1.5893(5) 0.8541(4) 0.5482(4)
O3_2 O 1.4169(5) 0.6237(4) 0.2958(5)
loop_
_geom_bond_atom_site_label_1
_geom_bond_atom_site_label_2
_geom_bond_site_symmetry_1
_geom_bond_site_symmetry_2
Cd1 N1 1_555 1_555
C1 H1 1_555 1_555
C2 C1 1_555 1_555
H2 C2 1_555 1_555
C3 H3 1_555 1_555
C4 C3 1_555 1_555
C5 C4 1_555 1_555
C6 C7 1_555 1_555
C7 C8 1_555 1_555
C8 H4 1_555 1_555
C9 C8 1_555 1_555
H5 C9 1_555 1_555
C10 C9 1_555 1_555
C11 C10 1_555 1_555
H6 C11 1_555 1_555
C12 C7 1_555 1_555
H7 C12 1_555 1_555
C13 H8 1_555 1_555
C14 C13 1_555 1_555
H9 C14 1_555 1_555
C15 C10 1_555 1_555
C16 C15 1_555 1_555
H10 C16 1_555 1_555
C17 C16 1_555 1_555
H11 C17 1_555 1_555
C18 C19 1_555 1_555
C19 C20 1_555 1_555
C20 H12 1_555 1_555
C21 C20 1_555 1_555
H13 C21 1_555 1_555
C22 C21 1_555 1_555
H14 C22 1_555 1_555
C23 C22 1_555 1_555
C24 C19 1_555 1_555
H15 C24 1_555 1_555
C25 C23 1_555 1_555
C26 C25 1_555 1_555
H16 C26 1_555 1_555
C27 C26 1_555 1_555
H17 C27 1_555 1_555
C28 C27 1_555 1_555
C29 C28 1_555 1_555
H18 C29 1_555 1_555
C30 C25 1_555 1_555
H19 C30 1_555 1_555
C31 C28 1_555 1_555
N1 C1 1_555 1_555
N2 C2 1_555 1_555
N3 Cd1 1_555 1_555
N4 C5 1_555 1_555
N5 C6 1_555 1_555
H20 N5 1_555 1_555
N6 C13 1_555 1_555
O1 Cd1 1_555 1_555
O2 C18 1_555 1_555
O3 C31 1_555 1_555
O4 C31 1_555 1_555
Cd1_2 O3 1_555 1_555
Cd1A N6 1_555 1_555
Cd1A_2 O2 1_555 1_555
N6A Cd1 1_555 1_555
O2A Cd1 1_555 1_555
O3_2 Cd1 1_555 1_555
C3 N2 1_555 1_555
C4 N1 1_555 1_555
C5 N3 1_555 1_555
C6 N3 1_555 1_555
C11 C12 1_555 1_555
C14 C15 1_555 1_555
C17 N6 1_555 1_555
C18 O1 1_555 1_555
C23 C24 1_555 1_555
C29 C30 1_555 1_555
N4 N5 1_555 1_555

#END
