
#######################################################################
#
#                 Cambridge Crystallographic Data Centre
#                                CCDC 
#
#######################################################################
#
# If this CIF has been generated from an entry in the Cambridge 
# Structural Database, then it will include bibliographic, chemical, 
# crystal, experimental, refinement or atomic coordinate data resulting 
# from the CCDC's data processing and validation procedures.
#
#######################################################################

data_PERYIW
_symmetry_cell_setting           triclinic
_symmetry_space_group_name_H-M   'P -1'
_symmetry_Int_Tables_number      2
_space_group_name_Hall           '-P 1'
loop_
_symmetry_equiv_pos_site_id
_symmetry_equiv_pos_as_xyz
1 x,y,z
2 -x,-y,-z
_cell_length_a                   9.814(3)
_cell_length_b                   10.860(3)
_cell_length_c                   12.606(4)
_cell_angle_alpha                105.473(3)
_cell_angle_beta                 102.426(3)
_cell_angle_gamma                91.537(3)
_cell_volume                     1259.45
loop_
_atom_site_label
_atom_site_type_symbol
_atom_site_fract_x
_atom_site_fract_y
_atom_site_fract_z
Cd1 Cd 0.85510(2) 0.82909(2) 0.582718(17)
C1 C 0.9525(3) 0.7576(3) 0.3338(3)
H1 H 0.9672 0.8464 0.3506
C2 C 0.9863(3) 0.6837(4) 0.2374(3)
H2 H 1.0215 0.7215 0.1896
C3 C 0.9668(3) 0.5533(4) 0.2140(3)
H3 H 0.9895 0.5010 0.1498
C4 C 0.9135(3) 0.4995(3) 0.2855(2)
H4 H 0.8992 0.4109 0.2703
C5 C 0.8816(3) 0.5803(3) 0.3805(2)
C6 C 0.8237(3) 0.5325(3) 0.4618(2)
C7 C 0.7397(3) 0.5373(3) 0.6040(2)
C8 C 0.6859(3) 0.5747(3) 0.7071(3)
C9 C 0.7637(3) 0.6642(3) 0.8026(3)
H5 H 0.8496 0.7013 0.8012
C10 C 0.7137(3) 0.6982(3) 0.8997(3)
H6 H 0.7674 0.7575 0.9637
C11 C 0.5851(3) 0.6459(3) 0.9043(2)
C12 C 0.5079(3) 0.5578(3) 0.8075(3)
H7 H 0.4209 0.5223 0.8081
C13 C 0.5573(3) 0.5215(3) 0.7102(3)
H8 H 0.5042 0.4613 0.6465
C14 C 0.5637(4) 0.7659(3) 1.2100(3)
H9 H 0.6256 0.7972 1.2802
C15 C 0.6183(4) 0.7308(3) 1.1151(3)
H10 H 0.7147 0.7390 1.1226
C16 C 0.5301(3) 0.6836(3) 1.0089(3)
C17 C 0.3884(4) 0.6759(3) 1.0052(3)
H11 H 0.3236 0.6462 0.9362
C18 C 0.3438(4) 0.7126(4) 1.1047(3)
H12 H 0.2479 0.7055 1.1000
C19 C 0.6294(3) 0.8923(3) 0.6785(2)
C20 C 0.5238(3) 0.9144(3) 0.7505(2)
C21 C 0.5674(3) 0.9611(3) 0.8667(2)
H13 H 0.6623 0.9838 0.8989
C22 C 0.4749(3) 0.9753(3) 0.9369(2)
C23 C 0.3334(3) 0.9419(3) 0.8859(2)
H14 H 0.2690 0.9480 0.9311
C24 C 0.2861(3) 0.8999(3) 0.7694(2)
C25 C 0.3822(3) 0.8856(3) 0.7015(2)
H15 H 0.3514 0.8566 0.6232
C26 C 0.1317(3) 0.8703(3) 0.7173(2)
O1 O 0.75628(19) 0.9307(2) 0.72629(16)
O2 O 0.7945(2) 0.9879(2) 0.4998(2)
H16 H 0.7537 1.0460 0.5378
H17 H 0.8306 1.0189 0.4559
O3 O 0.5929(2) 0.8330(2) 0.57640(17)
O4 O 0.08456(19) 0.9008(2) 0.62623(16)
O5 O 0.0558(2) 0.8188(2) 0.76250(18)
N1 N 0.8997(2) 0.7080(2) 0.4042(2)
N2 N 0.7981(2) 0.6138(2) 0.55666(19)
N3 N 0.7342(3) 0.4167(3) 0.5405(2)
H18 H 0.7010 0.3510 0.5559
N4 N 0.7876(3) 0.4106(2) 0.4484(2)
N5 N 0.4279(3) 0.7573(3) 1.2065(2)
C19A C 0.3706(3) 1.1077(3) 1.3215(2)
C20A C 0.4762(3) 1.0856(3) 1.2495(2)
C21A C 0.4326(3) 1.0389(3) 1.1333(2)
H13A H 0.3377 1.0162 1.1011
C22A C 0.5251(3) 1.0247(3) 1.0631(2)
C23A C 0.6666(3) 1.0581(3) 1.1141(2)
H14A H 0.7310 1.0520 1.0689
C24A C 0.7139(3) 1.1001(3) 1.2306(2)
C25A C 0.6178(3) 1.1144(3) 1.2985(2)
H15A H 0.6486 1.1434 1.3768
C26A C 0.8683(3) 1.1297(3) 1.2827(2)
O1A O 0.24372(19) 1.0693(2) 1.27371(16)
O3A O 0.4071(2) 1.1670(2) 1.42360(17)
O4A O 0.91544(19) 1.0992(2) 1.37377(16)
O5A O 0.9442(2) 1.1812(2) 1.23750(18)
Cd1A Cd 0.14490(2) 1.17091(2) 1.417282(17)
C1A C 0.0475(3) 1.2424(3) 1.6662(3)
H1A H 0.0328 1.1536 1.6494
C2A C 0.0137(3) 1.3163(4) 1.7626(3)
H2A H -0.0215 1.2785 1.8104
C3A C 0.0332(3) 1.4467(4) 1.7860(3)
H3A H 0.0105 1.4990 1.8502
C4A C 0.0865(3) 1.5005(3) 1.7145(2)
H4A H 0.1008 1.5891 1.7297
C5A C 0.1184(3) 1.4197(3) 1.6195(2)
C6A C 0.1763(3) 1.4675(3) 1.5382(2)
C7A C 0.2603(3) 1.4627(3) 1.3960(2)
C8A C 0.3141(3) 1.4253(3) 1.2929(3)
C9A C 0.2363(3) 1.3358(3) 1.1974(3)
H5A H 0.1504 1.2987 1.1988
C10A C 0.2863(3) 1.3018(3) 1.1003(3)
H6A H 0.2326 1.2425 1.0363
C11A C 0.4149(3) 1.3541(3) 1.0957(2)
C12A C 0.4921(3) 1.4422(3) 1.1925(3)
H7A H 0.5791 1.4777 1.1919
C13A C 0.4427(3) 1.4785(3) 1.2898(3)
H8A H 0.4958 1.5387 1.3535
C14A C 0.4363(4) 1.2341(3) 0.7900(3)
H9A H 0.3744 1.2028 0.7198
C15A C 0.3817(4) 1.2692(3) 0.8849(3)
H10A H 0.2853 1.2610 0.8774
C16A C 0.4699(3) 1.3164(3) 0.9911(3)
C17A C 0.6116(4) 1.3241(3) 0.9948(3)
H11A H 0.6764 1.3538 1.0638
C18A C 0.6562(4) 1.2874(4) 0.8953(3)
H12A H 0.7521 1.2945 0.9000
O2A O 0.2055(2) 1.0121(2) 1.5002(2)
H16A H 0.2463 0.9540 1.4622
H17A H 0.1694 0.9811 1.5441
N1A N 0.1003(2) 1.2920(2) 1.5958(2)
N2A N 0.2019(2) 1.3862(2) 1.44334(19)
N3A N 0.2658(3) 1.5833(3) 1.4595(2)
H18A H 0.2990 1.6490 1.4441
N4A N 0.2124(3) 1.5894(2) 1.5516(2)
N5A N 0.5721(3) 1.2427(3) 0.7935(2)
Cd1_2 Cd -0.14490(2) 0.82909(2) 0.582718(17)
Cd1A_2 Cd 1.14490(2) 1.17091(2) 1.417282(17)
O4_2 O 1.08456(19) 0.9008(2) 0.62623(16)
O4A_2 O -0.08456(19) 1.0992(2) 1.37377(16)
O5_2 O 1.0558(2) 0.8188(2) 0.76250(18)
O5A_2 O -0.0558(2) 1.1812(2) 1.23750(18)
O6 O 0.3558(2) 0.80672(19) 0.41453(16)
H19 H 0.3833 0.7810 0.3535
H20 H 0.4405 0.8323 0.4487
loop_
_geom_bond_atom_site_label_1
_geom_bond_atom_site_label_2
_geom_bond_site_symmetry_1
_geom_bond_site_symmetry_2
Cd1 O1 1_555 1_555
C1 H1 1_555 1_555
C2 C1 1_555 1_555
H2 C2 1_555 1_555
C3 C2 1_555 1_555
H3 C3 1_555 1_555
C4 C3 1_555 1_555
H4 C4 1_555 1_555
C5 C4 1_555 1_555
C6 C5 1_555 1_555
C7 C8 1_555 1_555
C8 C9 1_555 1_555
C9 H5 1_555 1_555
C10 C9 1_555 1_555
H6 C10 1_555 1_555
C11 C10 1_555 1_555
C12 C11 1_555 1_555
H7 C12 1_555 1_555
C13 C8 1_555 1_555
H8 C13 1_555 1_555
C14 H9 1_555 1_555
C15 C14 1_555 1_555
H10 C15 1_555 1_555
C16 C11 1_555 1_555
C17 C16 1_555 1_555
H11 C17 1_555 1_555
C18 C17 1_555 1_555
H12 C18 1_555 1_555
C19 C20 1_555 1_555
C20 C21 1_555 1_555
C21 H13 1_555 1_555
C22 C21 1_555 1_555
C23 C22 1_555 1_555
H14 C23 1_555 1_555
C24 C23 1_555 1_555
C25 C20 1_555 1_555
H15 C25 1_555 1_555
C26 C24 1_555 1_555
O1 C19 1_555 1_555
O2 Cd1 1_555 1_555
H16 O2 1_555 1_555
H17 O2 1_555 1_555
O3 Cd1 1_555 1_555
O4 C26 1_555 1_555
O5 C26 1_555 1_555
N1 Cd1 1_555 1_555
N2 Cd1 1_555 1_555
N3 C7 1_555 1_555
H18 N3 1_555 1_555
N4 C6 1_555 1_555
N5 C14 1_555 1_555
O6 H19 1_555 1_555
H20 O6 1_555 1_555
C19A C20A 1_555 1_555
C20A C21A 1_555 1_555
C21A H13A 1_555 1_555
C22A C22 1_555 1_555
C23A C22A 1_555 1_555
H14A C23A 1_555 1_555
C24A C23A 1_555 1_555
C25A C20A 1_555 1_555
H15A C25A 1_555 1_555
C26A C24A 1_555 1_555
O1A C19A 1_555 1_555
O3A C19A 1_555 1_555
O4A C26A 1_555 1_555
O5A C26A 1_555 1_555
Cd1A O1A 1_555 1_555
C1A H1A 1_555 1_555
C2A C1A 1_555 1_555
H2A C2A 1_555 1_555
C3A C2A 1_555 1_555
H3A C3A 1_555 1_555
C4A C3A 1_555 1_555
H4A C4A 1_555 1_555
C5A C4A 1_555 1_555
C6A C5A 1_555 1_555
C7A C8A 1_555 1_555
C8A C9A 1_555 1_555
C9A H5A 1_555 1_555
C10A C9A 1_555 1_555
H6A C10A 1_555 1_555
C11A C10A 1_555 1_555
C12A C11A 1_555 1_555
H7A C12A 1_555 1_555
C13A C8A 1_555 1_555
H8A C13A 1_555 1_555
C14A H9A 1_555 1_555
C15A C14A 1_555 1_555
H10A C15A 1_555 1_555
C16A C11A 1_555 1_555
C17A C16A 1_555 1_555
H11A C17A 1_555 1_555
C18A C17A 1_555 1_555
H12A C18A 1_555 1_555
O2A Cd1A 1_555 1_555
H16A O2A 1_555 1_555
H17A O2A 1_555 1_555
N1A Cd1A 1_555 1_555
N2A Cd1A 1_555 1_555
N3A C7A 1_555 1_555
H18A N3A 1_555 1_555
N4A C6A 1_555 1_555
N5A C14A 1_555 1_555
Cd1_2 O4 1_555 1_555
Cd1A_2 O4A 1_555 1_555
O4_2 Cd1 1_555 1_555
O4A_2 Cd1A 1_555 1_555
O5_2 Cd1 1_555 1_555
O5A_2 Cd1A 1_555 1_555
C1 N1 1_555 1_555
C5 N1 1_555 1_555
C6 N2 1_555 1_555
C7 N2 1_555 1_555
C12 C13 1_555 1_555
C15 C16 1_555 1_555
C18 N5 1_555 1_555
C19 O3 1_555 1_555
C24 C25 1_555 1_555
O5 Cd1_2 1_555 1_555
N3 N4 1_555 1_555
C21A C22A 1_555 1_555
C24A C25A 1_555 1_555
O3A Cd1A 1_555 1_555
O5A Cd1A_2 1_555 1_555
C1A N1A 1_555 1_555
C5A N1A 1_555 1_555
C6A N2A 1_555 1_555
C7A N2A 1_555 1_555
C12A C13A 1_555 1_555
C15A C16A 1_555 1_555
C18A N5A 1_555 1_555
N3A N4A 1_555 1_555

#END
