
#######################################################################
#
#                 Cambridge Crystallographic Data Centre
#                                CCDC 
#
#######################################################################
#
# If this CIF has been generated from an entry in the Cambridge 
# Structural Database, then it will include bibliographic, chemical, 
# crystal, experimental, refinement or atomic coordinate data resulting 
# from the CCDC's data processing and validation procedures.
#
#######################################################################

data_PERZOC
_symmetry_cell_setting           monoclinic
_symmetry_space_group_name_H-M   'P 21/n'
_symmetry_Int_Tables_number      14
_space_group_name_Hall           '-P 2yn'
loop_
_symmetry_equiv_pos_site_id
_symmetry_equiv_pos_as_xyz
1 x,y,z
2 1/2-x,1/2+y,1/2-z
3 -x,-y,-z
4 1/2+x,1/2-y,1/2+z
_cell_length_a                   17.2910(10)
_cell_length_b                   11.1310(10)
_cell_length_c                   17.3070(10)
_cell_angle_alpha                90
_cell_angle_beta                 117.8410(10)
_cell_angle_gamma                90
_cell_volume                     2945.44
loop_
_atom_site_label
_atom_site_type_symbol
_atom_site_fract_x
_atom_site_fract_y
_atom_site_fract_z
H1 H 0.0345(18) 0.424(2) 0.4483(17)
H2 H 0.020(2) 0.587(3) 0.430(2)
H3 H 0.451(2) 0.655(3) 0.755(2)
H4 H 0.4468(18) 0.821(3) 0.5296(18)
H5 H 0.455(2) 1.029(3) 0.535(2)
Cu1 Cu 0.165117(19) 0.20812(3) 0.467245(19)
Cu2 Cu 0.468089(19) 0.23826(3) 0.665430(19)
O1 O 0.11055(11) 0.20625(16) 0.54137(11)
O2 O 0.10999(16) 0.2863(3) 0.65775(16)
O3 O 0.29266(12) 0.20743(19) 0.57788(12)
O4 O 0.38481(12) 0.23659(19) 0.71457(12)
O5 O 0.04370(12) 0.25639(19) 0.11090(12)
O6 O 0.07715(11) 0.2509(2) 0.29305(12)
O7 O 0.16072(16) 0.1867(3) 0.10989(16)
O8 O 0.21530(11) 0.21940(17) 0.38422(11)
N1 N 0.15525(15) 0.3930(2) 0.46647(15)
N2 N 0.15064(15) 1.0257(2) 0.45244(15)
N3 N 0.45806(14) 0.4206(2) 0.65368(14)
N4 N 0.46310(14) 1.05619(17) 0.65587(13)
C1 C 0.08583(17) 0.4514(3) 0.45579(18)
C2 C 0.08237(19) 0.5763(2) 0.45424(19)
C3 C 0.15300(16) 0.6436(2) 0.46291(16)
C4 C 0.22687(18) 0.5794(2) 0.4753(2)
H6 H 0.2769 0.6199 0.4826
C5 C 0.22594(18) 0.4595(3) 0.4766(2)
H7 H 0.2762 0.4188 0.4848
C6 C 0.15121(17) 0.7759(2) 0.45957(17)
C7 C 0.2126(2) 0.8397(3) 0.4454(2)
H8 H 0.2542 0.7988 0.4358
C8 C 0.2119(2) 0.9606(3) 0.4456(2)
H9 H 0.2565 1.0009 0.4408
C9 C 0.08902(19) 0.9658(2) 0.4624(2)
H10 H 0.0455 1.0095 0.4671
C10 C 0.08674(19) 0.8426(2) 0.4662(2)
H11 H 0.0425 0.8043 0.4731
C11 C 0.14823(17) 0.2325(2) 0.62440(18)
C12 C 0.24017(18) 0.1813(3) 0.68383(17)
C13 C 0.30803(15) 0.2108(2) 0.65475(15)
C14 C 0.2389(2) 0.0416(3) 0.6953(2)
H12 H 0.1805 0.0082 0.6724
H13 H 0.2733 -0.0022 0.6737
C15 C 0.2852(3) 0.0581(4) 0.7952(3)
H14 H 0.2547 0.0210 0.8239
H15 H 0.3463 0.0346 0.8230
C16 C 0.2713(2) 0.1934(4) 0.7834(2)
H16 H 0.3248 0.2395 0.8139
H17 H 0.2264 0.2231 0.7971
C17 C 0.4517(2) 0.4861(3) 0.7158(2)
H18 H 0.4471 0.4456 0.7606
C18 C 0.4515(3) 0.6078(3) 0.7166(2)
C19 C 0.45979(18) 0.6754(3) 0.65184(17)
C20 C 0.4650(2) 0.6021(2) 0.58805(18)
H19 H 0.4694 0.6389 0.5420
C21 C 0.46396(19) 0.4818(3) 0.59080(18)
H20 H 0.4675 0.4390 0.5464
C22 C 0.46188(18) 0.8084(2) 0.65240(16)
C23 C 0.4542(2) 0.8718(3) 0.5815(2)
C24 C 0.4543(3) 0.9921(3) 0.5851(2)
C25 C 0.4715(2) 0.9911(3) 0.72441(18)
H21 H 0.4774 1.0314 0.7740
C26 C 0.4718(2) 0.8697(3) 0.72490(19)
H22 H 0.4786 0.8281 0.7743
C27 C 0.15477(16) 0.2451(2) 0.30936(16)
C28 C 0.12490(18) 0.2342(2) 0.14816(17)
C29 C 0.18375(17) 0.2807(2) 0.24190(17)
C30 C 0.1951(2) 0.4211(3) 0.2432(2)
H23 H 0.1741 0.4624 0.2792
H24 H 0.1706 0.4566 0.1854
C31 C 0.2947(3) 0.4084(5) 0.2870(4)
H25 H 0.3237 0.4339 0.3476
H26 H 0.3213 0.4456 0.2545
C32 C 0.2855(2) 0.2762(3) 0.2759(2)
H27 H 0.3014 0.2459 0.2327
H28 H 0.3164 0.2327 0.3305
Cu1_2 Cu 0.165117(19) 1.20812(3) 0.467245(19)
Cu2C Cu -0.031911(19) 0.26174(3) 0.165430(19)
Cu2_2 Cu 0.468089(19) 1.23826(3) 0.665430(19)
O5C O 0.54370(12) 0.24361(19) 0.61090(12)
O6C O 0.57715(11) 0.2491(2) 0.79305(12)
N2_2 N 0.15064(15) 0.0257(2) 0.45244(15)
N4_2 N 0.46310(14) 0.05619(17) 0.65587(13)
loop_
_geom_bond_atom_site_label_1
_geom_bond_atom_site_label_2
_geom_bond_site_symmetry_1
_geom_bond_site_symmetry_2
H1 C1 1_555 1_555
H2 C2 1_555 1_555
H3 C18 1_555 1_555
H4 C23 1_555 1_555
H5 C24 1_555 1_555
Cu1 O1 1_555 1_555
Cu2 O4 1_555 1_555
O1 C11 1_555 1_555
O2 C11 1_555 1_555
O3 Cu1 1_555 1_555
O4 C13 1_555 1_555
O5 C28 1_555 1_555
O6 C27 1_555 1_555
O7 C28 1_555 1_555
O8 Cu1 1_555 1_555
N1 Cu1 1_555 1_555
N2 C8 1_555 1_555
N3 Cu2 1_555 1_555
N4 C24 1_555 1_555
C1 N1 1_555 1_555
C2 C1 1_555 1_555
C3 C2 1_555 1_555
C4 C3 1_555 1_555
H6 C4 1_555 1_555
C5 N1 1_555 1_555
H7 C5 1_555 1_555
C6 C3 1_555 1_555
C7 C6 1_555 1_555
H8 C7 1_555 1_555
C8 C7 1_555 1_555
H9 C8 1_555 1_555
C9 N2 1_555 1_555
H10 C9 1_555 1_555
C10 C6 1_555 1_555
H11 C10 1_555 1_555
C11 C12 1_555 1_555
C12 C13 1_555 1_555
C13 O3 1_555 1_555
C14 C12 1_555 1_555
H12 C14 1_555 1_555
H13 C14 1_555 1_555
C15 C14 1_555 1_555
H14 C15 1_555 1_555
H15 C15 1_555 1_555
C16 C12 1_555 1_555
H16 C16 1_555 1_555
H17 C16 1_555 1_555
C17 N3 1_555 1_555
H18 C17 1_555 1_555
C18 C17 1_555 1_555
C19 C18 1_555 1_555
C20 C19 1_555 1_555
H19 C20 1_555 1_555
C21 N3 1_555 1_555
H20 C21 1_555 1_555
C22 C19 1_555 1_555
C23 C22 1_555 1_555
C24 C23 1_555 1_555
C25 N4 1_555 1_555
H21 C25 1_555 1_555
C26 C22 1_555 1_555
H22 C26 1_555 1_555
C27 O8 1_555 1_555
C28 C29 1_555 1_555
C29 C27 1_555 1_555
C30 C29 1_555 1_555
H23 C30 1_555 1_555
H24 C30 1_555 1_555
C31 C30 1_555 1_555
H25 C31 1_555 1_555
H26 C31 1_555 1_555
C32 C29 1_555 1_555
H27 C32 1_555 1_555
H28 C32 1_555 1_555
Cu1_2 N2 1_555 1_555
Cu2C O5 1_555 1_555
Cu2_2 N4 1_555 1_555
O5C Cu2 1_555 1_555
O6C Cu2 1_555 1_555
N2_2 Cu1 1_555 1_555
N4_2 Cu2 1_555 1_555
O6 Cu2C 1_555 1_555
C4 C5 1_555 1_555
C9 C10 1_555 1_555
C15 C16 1_555 1_555
C20 C21 1_555 1_555
C25 C26 1_555 1_555
C31 C32 1_555 1_555

#END
