
#######################################################################
#
#                 Cambridge Crystallographic Data Centre
#                                CCDC 
#
#######################################################################
#
# If this CIF has been generated from an entry in the Cambridge 
# Structural Database, then it will include bibliographic, chemical, 
# crystal, experimental, refinement or atomic coordinate data resulting 
# from the CCDC's data processing and validation procedures.
#
#######################################################################

data_PESGEA
_symmetry_cell_setting           triclinic
_symmetry_space_group_name_H-M   'P -1'
_symmetry_Int_Tables_number      2
_space_group_name_Hall           '-P 1'
loop_
_symmetry_equiv_pos_site_id
_symmetry_equiv_pos_as_xyz
1 x,y,z
2 -x,-y,-z
_cell_length_a                   5.8461(12)
_cell_length_b                   10.884(2)
_cell_length_c                   16.607(3)
_cell_angle_alpha                89.79(3)
_cell_angle_beta                 80.44(3)
_cell_angle_gamma                75.10(3)
_cell_volume                     1006.13
loop_
_atom_site_label
_atom_site_type_symbol
_atom_site_fract_x
_atom_site_fract_y
_atom_site_fract_z
C1 C 0.4950(6) 0.5387(3) 0.2295(2)
H1 H 0.3632 0.5885 0.2645
C2 C 0.4821(7) 0.5296(4) 0.1465(2)
H2 H 0.3453 0.5733 0.1267
C3 C 0.6752(6) 0.4548(3) 0.0950(2)
H3 H 0.6689 0.4461 0.0397
C4 C 0.8807(6) 0.3918(3) 0.1253(2)
C5 C 0.8796(6) 0.4091(3) 0.20893(19)
C6 C 1.0908(6) 0.3493(3) 0.24441(18)
C7 C 1.2666(6) 0.3234(3) 0.3600(2)
H4 H 1.2596 0.3427 0.4150
C8 C 1.4734(6) 0.2399(3) 0.3172(2)
H5 H 1.6009 0.2033 0.3438
C9 C 1.4877(6) 0.2121(3) 0.2357(2)
H6 H 1.6242 0.1561 0.2067
C10 C 1.2951(6) 0.2688(3) 0.19691(19)
C11 C 1.2981(6) 0.2511(3) 0.1094(2)
C12 C 1.0943(6) 0.3102(3) 0.0746(2)
C13 C 1.2946(7) 0.2215(4) -0.0509(2)
C14 C 1.3016(8) 0.2037(4) -0.1360(2)
H7 H 1.1665 0.2387 -0.1593
C15 C 1.5085(8) 0.1346(4) -0.1832(2)
H8 H 1.5134 0.1225 -0.2389
C16 C 1.7138(9) 0.0816(5) -0.1489(2)
H9 H 1.8531 0.0354 -0.1823
C17 C 1.7126(8) 0.0965(4) -0.0677(2)
H10 H 1.8505 0.0612 -0.0460
C18 C 1.5004(7) 0.1663(4) -0.0161(2)
C19 C 0.7198(5) 0.3398(3) 0.52943(19)
C20 C 0.8038(5) 0.2119(3) 0.56427(19)
C21 C 0.6956(6) 0.1165(3) 0.5498(2)
H11 H 0.5769 0.1317 0.5173
C22 C 0.7628(7) -0.0009(3) 0.5833(2)
H12 H 0.6914 -0.0649 0.5727
C23 C 0.9369(6) -0.0231(3) 0.6328(2)
H13 H 0.9814 -0.1018 0.6560
C24 C 1.0443(6) 0.0718(3) 0.6477(2)
H14 H 1.1619 0.0563 0.6807
C25 C 0.9790(6) 0.1901(3) 0.61420(19)
C26 C 1.0936(6) 0.2931(3) 0.6337(2)
N1 N 0.6864(5) 0.4795(3) 0.26031(16)
N2 N 1.0790(5) 0.3763(3) 0.32434(16)
N3 N 1.0899(5) 0.2953(3) -0.00518(17)
N4 N 1.5014(5) 0.1810(3) 0.06476(18)
O1 O 0.7469(4) 0.3419(2) 0.45269(13)
O2 O 0.6281(4) 0.4342(2) 0.57844(13)
O3 O 1.1586(4) 0.3595(2) 0.57504(14)
O4 O 1.1146(6) 0.3094(3) 0.70472(17)
Zn1 Zn 0.73539(7) 0.49682(4) 0.38454(2)
O2A O 0.3719(4) 0.5658(2) 0.42156(13)
O3A O 0.8414(4) 0.6405(2) 0.42496(14)
Zn1A Zn 0.26461(7) 0.50318(4) 0.61546(2)
Zn1A_2 Zn 1.26461(7) 0.50318(4) 0.61546(2)
loop_
_geom_bond_atom_site_label_1
_geom_bond_atom_site_label_2
_geom_bond_site_symmetry_1
_geom_bond_site_symmetry_2
C1 H1 1_555 1_555
C2 C1 1_555 1_555
H2 C2 1_555 1_555
C3 C2 1_555 1_555
H3 C3 1_555 1_555
C4 C3 1_555 1_555
C5 C4 1_555 1_555
C6 C5 1_555 1_555
C7 H4 1_555 1_555
C8 C7 1_555 1_555
H5 C8 1_555 1_555
C9 C8 1_555 1_555
H6 C9 1_555 1_555
C10 C6 1_555 1_555
C11 C10 1_555 1_555
C12 C4 1_555 1_555
C13 C14 1_555 1_555
C14 H7 1_555 1_555
C15 C14 1_555 1_555
H8 C15 1_555 1_555
C16 C15 1_555 1_555
H9 C16 1_555 1_555
C17 C16 1_555 1_555
H10 C17 1_555 1_555
C18 C13 1_555 1_555
C19 C20 1_555 1_555
C20 C21 1_555 1_555
C21 H11 1_555 1_555
C22 C21 1_555 1_555
H12 C22 1_555 1_555
C23 C22 1_555 1_555
H13 C23 1_555 1_555
C24 C23 1_555 1_555
H14 C24 1_555 1_555
C25 C20 1_555 1_555
C26 C25 1_555 1_555
N1 C1 1_555 1_555
N2 C6 1_555 1_555
N3 C12 1_555 1_555
N4 C11 1_555 1_555
O1 C19 1_555 1_555
O2 C19 1_555 1_555
O3 C26 1_555 1_555
O4 C26 1_555 1_555
Zn1 N1 1_555 1_555
O2A Zn1 1_555 1_555
O3A Zn1 1_555 1_555
Zn1A O2 1_555 1_555
Zn1A_2 O3 1_555 1_555
C5 N1 1_555 1_555
C7 N2 1_555 1_555
C9 C10 1_555 1_555
C11 C12 1_555 1_555
C13 N3 1_555 1_555
C17 C18 1_555 1_555
C18 N4 1_555 1_555
C24 C25 1_555 1_555
N2 Zn1 1_555 1_555
O1 Zn1 1_555 1_555

#END
