
#######################################################################
#
#                 Cambridge Crystallographic Data Centre
#                                CCDC 
#
#######################################################################
#
# If this CIF has been generated from an entry in the Cambridge 
# Structural Database, then it will include bibliographic, chemical, 
# crystal, experimental, refinement or atomic coordinate data resulting 
# from the CCDC's data processing and validation procedures.
#
#######################################################################

data_PESQOV
_symmetry_cell_setting           orthorhombic
_symmetry_space_group_name_H-M   'P 21 21 21'
_symmetry_Int_Tables_number      19
_space_group_name_Hall           'P 2ac 2ab'
loop_
_symmetry_equiv_pos_site_id
_symmetry_equiv_pos_as_xyz
1 x,y,z
2 1/2-x,-y,1/2+z
3 -x,1/2+y,1/2-z
4 1/2+x,1/2-y,-z
_cell_length_a                   12.590(4)
_cell_length_b                   13.054(4)
_cell_length_c                   24.189(8)
_cell_angle_alpha                90
_cell_angle_beta                 90
_cell_angle_gamma                90
_cell_volume                     3975.46
loop_
_atom_site_label
_atom_site_type_symbol
_atom_site_fract_x
_atom_site_fract_y
_atom_site_fract_z
Nd1 Nd 0.258729(19) 0.603625(18) 0.150059(10)
Mn1 Mn 0.37776(7) 0.48223(6) 0.02339(4)
O1 O -0.1029(4) 0.9944(4) 0.32416(18)
O2 O -0.2056(4) 1.0342(5) 0.25720(18)
O3 O 0.2257(4) 0.7622(4) 0.1998(2)
O4 O 0.1186(4) 0.7325(4) 0.1361(2)
O5 O 0.7077(3) 0.9530(3) -0.05970(14)
O6 O 0.7290(3) 1.0162(3) 0.02260(15)
O7 O 0.4132(3) 0.6361(3) 0.00519(17)
O8 O 0.3888(3) 0.6805(3) 0.09178(16)
O9 O 0.3504(3) 0.3420(3) 0.07019(15)
O10 O 0.3604(3) 0.4501(3) 0.13861(18)
O11 O 0.6255(4) 0.0765(3) 0.20135(16)
H1 H 0.6818 0.0607 0.2162
O12 O 0.5889(3) 0.1284(3) 0.28628(15)
C1 C -0.1164(5) 1.0068(4) 0.2742(2)
C2 C -0.0272(5) 0.9944(5) 0.2331(3)
H2 H -0.0389 1.0446 0.2036
C3 C 0.0825(6) 1.0161(7) 0.2579(4)
H3 H 0.1006 1.0879 0.2536
H4 H 0.0832 0.9995 0.2970
C4 C 0.1589(6) 0.9514(6) 0.2278(4)
H5 H 0.1918 0.9030 0.2529
H6 H 0.2142 0.9936 0.2117
C5 C 0.0996(4) 0.8937(5) 0.1821(2)
C6 C -0.0163(4) 0.8878(5) 0.2054(2)
C7 C 0.1483(6) 0.7879(6) 0.1731(3)
C8 C 0.1082(7) 0.9515(5) 0.1277(3)
H7 H 0.1809 0.9520 0.1157
H8 H 0.0841 1.0206 0.1328
H9 H 0.0651 0.9183 0.1003
C9 C -0.1005(6) 0.8727(7) 0.1613(3)
H10 H -0.0931 0.8058 0.1453
H11 H -0.0922 0.9238 0.1331
H12 H -0.1697 0.8790 0.1777
C10 C -0.0276(6) 0.8024(5) 0.2461(3)
H13 H -0.0216 0.7380 0.2272
H14 H -0.0958 0.8068 0.2637
H15 H 0.0273 0.8076 0.2735
C11 C 0.6717(4) 0.9727(4) -0.0126(2)
C12 C 0.5600(4) 0.9430(4) 0.0025(2)
H16 H 0.5320 0.9975 0.0263
C13 C 0.4838(5) 0.9316(5) -0.0454(3)
H17 H 0.5226 0.9221 -0.0797
H18 H 0.4398 0.9923 -0.0489
C14 C 0.4151(5) 0.8381(5) -0.0334(2)
H19 H 0.4369 0.7805 -0.0560
H20 H 0.3409 0.8528 -0.0408
C15 C 0.4319(4) 0.8146(4) 0.0280(2)
C16 C 0.5520(4) 0.8418(4) 0.0358(2)
C17 C 0.4095(4) 0.7017(4) 0.0431(2)
C18 C 0.3588(5) 0.8824(5) 0.0627(3)
H21 H 0.2862 0.8630 0.0565
H22 H 0.3685 0.9528 0.0524
H23 H 0.3757 0.8741 0.1012
C19 C 0.6247(4) 0.7614(4) 0.0099(2)
H24 H 0.6975 0.7807 0.0157
H25 H 0.6107 0.7571 -0.0291
H26 H 0.6117 0.6961 0.0268
C20 C 0.5843(5) 0.8551(5) 0.0967(2)
H27 H 0.6585 0.8718 0.0988
H28 H 0.5713 0.7925 0.1164
H29 H 0.5434 0.9094 0.1129
C21 C 0.3549(4) 0.3600(4) 0.1199(2)
C22 C 0.3562(4) 0.2726(4) 0.1616(2)
H30 H 0.2990 0.2860 0.1881
C23 C 0.3354(6) 0.1683(5) 0.1370(3)
H31 H 0.3472 0.1690 0.0974
H32 H 0.2629 0.1467 0.1441
C24 C 0.4162(5) 0.0960(5) 0.1664(3)
H33 H 0.3817 0.0327 0.1772
H34 H 0.4745 0.0796 0.1417
C25 C 0.4575(5) 0.1529(4) 0.2174(2)
C26 C 0.4617(5) 0.2651(5) 0.1956(3)
C27 C 0.5629(5) 0.1179(4) 0.2377(2)
C28 C 0.3737(5) 0.1423(6) 0.2644(3)
H35 H 0.3717 0.0726 0.2770
H36 H 0.3050 0.1614 0.2506
H37 H 0.3926 0.1865 0.2946
C29 C 0.4620(8) 0.3441(6) 0.2433(3)
H38 H 0.5271 0.3384 0.2637
H39 H 0.4030 0.3311 0.2674
H40 H 0.4560 0.4120 0.2283
C30 C 0.5571(5) 0.2829(6) 0.1607(3)
H41 H 0.6199 0.2778 0.1831
H42 H 0.5534 0.3500 0.1446
H43 H 0.5598 0.2325 0.1319
N1 N 0.4486(5) 0.3814(4) -0.0414(3)
N2 N 0.5512(4) 0.4612(4) 0.0441(3)
C31 C 0.3931(8) 0.3441(6) -0.0840(3)
H44 H 0.3272 0.3730 -0.0916
C32 C 0.4277(9) 0.2659(7) -0.1169(4)
H45 H 0.3890 0.2439 -0.1474
C33 C 0.5197(10) 0.2229(8) -0.1029(5)
H46 H 0.5426 0.1668 -0.1234
C34 C 0.5811(8) 0.2548(7) -0.0616(4)
H47 H 0.6453 0.2227 -0.0537
C35 C 0.5446(8) 0.3413(5) -0.0293(4)
C36 C 0.6024(5) 0.3896(7) 0.0153(4)
C37 C 0.7081(7) 0.3649(8) 0.0269(5)
H48 H 0.7445 0.3152 0.0069
C38 C 0.7543(7) 0.4166(8) 0.0683(5)
H49 H 0.8242 0.4003 0.0770
C39 C 0.7057(7) 0.4919(7) 0.0987(4)
H50 H 0.7400 0.5270 0.1270
C40 C 0.6011(6) 0.5113(6) 0.0838(4)
H51 H 0.5642 0.5621 0.1027
Nd1B Nd -0.258729(19) 1.103625(18) 0.349941(10)
Nd1B_2 Nd 0.741271(19) 0.103625(18) 0.349941(10)
Nd1C Nd 0.758729(19) 0.896375(18) -0.150059(10)
Mn1C Mn 0.87776(7) 1.01777(6) -0.02339(4)
O1B O 0.1029(4) 0.4944(4) 0.17584(18)
O2B O 0.2056(4) 0.5342(5) 0.24280(18)
O5C O 0.2077(3) 0.5470(3) 0.05970(14)
O6C O 0.2290(3) 0.4838(3) -0.02260(15)
O12B O 0.4111(3) 0.6284(3) 0.21372(15)
loop_
_geom_bond_atom_site_label_1
_geom_bond_atom_site_label_2
_geom_bond_site_symmetry_1
_geom_bond_site_symmetry_2
Nd1 O3 1_555 1_555
Mn1 O7 1_555 1_555
O1 C1 1_555 1_555
O2 C1 1_555 1_555
O3 C7 1_555 1_555
O4 Nd1 1_555 1_555
O5 C11 1_555 1_555
O6 C11 1_555 1_555
O7 C17 1_555 1_555
O8 Nd1 1_555 1_555
O9 Mn1 1_555 1_555
O10 Nd1 1_555 1_555
O11 H1 1_555 1_555
O12 C27 1_555 1_555
C1 C2 1_555 1_555
C2 H2 1_555 1_555
C3 C2 1_555 1_555
H3 C3 1_555 1_555
H4 C3 1_555 1_555
C4 C3 1_555 1_555
H5 C4 1_555 1_555
H6 C4 1_555 1_555
C5 C4 1_555 1_555
C6 C2 1_555 1_555
C7 O4 1_555 1_555
C8 C5 1_555 1_555
H7 C8 1_555 1_555
H8 C8 1_555 1_555
H9 C8 1_555 1_555
C9 C6 1_555 1_555
H10 C9 1_555 1_555
H11 C9 1_555 1_555
H12 C9 1_555 1_555
C10 C6 1_555 1_555
H13 C10 1_555 1_555
H14 C10 1_555 1_555
H15 C10 1_555 1_555
C11 C12 1_555 1_555
C12 H16 1_555 1_555
C13 C12 1_555 1_555
H17 C13 1_555 1_555
H18 C13 1_555 1_555
C14 C13 1_555 1_555
H19 C14 1_555 1_555
H20 C14 1_555 1_555
C15 C14 1_555 1_555
C16 C12 1_555 1_555
C17 O8 1_555 1_555
C18 C15 1_555 1_555
H21 C18 1_555 1_555
H22 C18 1_555 1_555
H23 C18 1_555 1_555
C19 C16 1_555 1_555
H24 C19 1_555 1_555
H25 C19 1_555 1_555
H26 C19 1_555 1_555
C20 C16 1_555 1_555
H27 C20 1_555 1_555
H28 C20 1_555 1_555
H29 C20 1_555 1_555
C21 O9 1_555 1_555
C22 C21 1_555 1_555
H30 C22 1_555 1_555
C23 C22 1_555 1_555
H31 C23 1_555 1_555
H32 C23 1_555 1_555
C24 C23 1_555 1_555
H33 C24 1_555 1_555
H34 C24 1_555 1_555
C25 C24 1_555 1_555
C26 C22 1_555 1_555
C27 O11 1_555 1_555
C28 C25 1_555 1_555
H35 C28 1_555 1_555
H36 C28 1_555 1_555
H37 C28 1_555 1_555
C29 C26 1_555 1_555
H38 C29 1_555 1_555
H39 C29 1_555 1_555
H40 C29 1_555 1_555
C30 C26 1_555 1_555
H41 C30 1_555 1_555
H42 C30 1_555 1_555
H43 C30 1_555 1_555
N1 Mn1 1_555 1_555
N2 Mn1 1_555 1_555
C31 N1 1_555 1_555
H44 C31 1_555 1_555
C32 C31 1_555 1_555
H45 C32 1_555 1_555
C33 C32 1_555 1_555
H46 C33 1_555 1_555
C34 C33 1_555 1_555
H47 C34 1_555 1_555
C35 N1 1_555 1_555
C36 N2 1_555 1_555
C37 C36 1_555 1_555
H48 C37 1_555 1_555
C38 C37 1_555 1_555
H49 C38 1_555 1_555
C39 C38 1_555 1_555
H50 C39 1_555 1_555
C40 N2 1_555 1_555
H51 C40 1_555 1_555
Nd1B O1 1_555 1_555
Nd1B_2 O12 1_555 1_555
Nd1C O5 1_555 1_555
Mn1C O5 1_555 1_555
O1B Nd1 1_555 1_555
O2B Nd1 1_555 1_555
O5C Nd1 1_555 1_555
O6C Mn1 1_555 1_555
O12B Nd1 1_555 1_555
Mn1 O5C 1_555 1_555
O2 Nd1B 1_555 1_555
O6 Mn1C 1_555 1_555
O10 C21 1_555 1_555
C5 C6 1_555 1_555
C5 C7 1_555 1_555
C15 C16 1_555 1_555
C15 C17 1_555 1_555
C25 C26 1_555 1_555
C25 C27 1_555 1_555
C34 C35 1_555 1_555
C35 C36 1_555 1_555
C39 C40 1_555 1_555

#END
