
#######################################################################
#
#                 Cambridge Crystallographic Data Centre
#                                CCDC 
#
#######################################################################
#
# If this CIF has been generated from an entry in the Cambridge 
# Structural Database, then it will include bibliographic, chemical, 
# crystal, experimental, refinement or atomic coordinate data resulting 
# from the CCDC's data processing and validation procedures.
#
#######################################################################

data_PESQAH
_symmetry_cell_setting           orthorhombic
_symmetry_space_group_name_H-M   'P 21 21 21'
_symmetry_Int_Tables_number      19
_space_group_name_Hall           'P 2ac 2ab'
loop_
_symmetry_equiv_pos_site_id
_symmetry_equiv_pos_as_xyz
1 x,y,z
2 1/2-x,-y,1/2+z
3 -x,1/2+y,1/2-z
4 1/2+x,1/2-y,-z
_cell_length_a                   12.6554(15)
_cell_length_b                   13.1165(16)
_cell_length_c                   24.358(3)
_cell_angle_alpha                90
_cell_angle_beta                 90
_cell_angle_gamma                90
_cell_volume                     4043.3
loop_
_atom_site_label
_atom_site_type_symbol
_atom_site_fract_x
_atom_site_fract_y
_atom_site_fract_z
La1 La 0.23924(3) 1.10270(3) 0.350359(14)
Mn1 Mn 0.12009(8) 0.98157(8) 0.47796(4)
O1 O 0.5838(4) 1.3646(4) 0.5036(2)
O2 O 0.6051(4) 1.3224(4) 0.59062(19)
O3 O 0.2687(4) 0.9836(4) 0.52457(19)
O4 O 0.2897(3) 1.0462(4) 0.44220(18)
C1 C 0.5857(5) 1.3000(5) 0.5413(3)
C2 C 0.3258(5) 1.0254(5) 0.4896(3)
C3 C 0.5654(5) 1.1865(5) 0.5275(3)
C4 C 0.4446(5) 1.1594(5) 0.5362(2)
C5 C 0.4392(5) 1.0556(5) 0.5038(3)
H1 H 0.4675 1.0026 0.5281
C6 C 0.5137(6) 1.0659(6) 0.4568(3)
H2 H 0.4748 1.0725 0.4227
H3 H 0.5586 1.0061 0.4543
C7 C 0.5815(6) 1.1619(6) 0.4667(3)
H4 H 0.6553 1.1484 0.4589
H5 H 0.5578 1.2179 0.4438
C8 C 0.6383(6) 1.1207(6) 0.5632(3)
H6 H 0.7105 1.1391 0.5564
H7 H 0.6279 1.0501 0.5544
H8 H 0.6219 1.1318 0.6013
C9 C 0.3727(5) 1.2384(5) 0.5110(3)
H9 H 0.3004 1.2198 0.5174
H10 H 0.3854 1.2419 0.4722
H11 H 0.3866 1.3036 0.5273
C10 C 0.4127(7) 1.1453(7) 0.5967(3)
H12 H 0.3388 1.1291 0.5988
H13 H 0.4261 1.2072 0.6165
H14 H 0.4532 1.0908 0.6125
O5 O -0.1247(4) 0.5717(4) 0.29928(19)
O6 O -0.0887(4) 0.6279(4) 0.21598(18)
O7 O 0.1475(4) 0.8381(4) 0.43217(18)
O8 O 0.1351(4) 0.9480(4) 0.3646(2)
C11 C -0.0616(6) 0.6166(5) 0.2635(3)
C12 C 0.1409(5) 0.8573(6) 0.3824(3)
C13 C 0.0441(5) 0.6507(5) 0.2851(3)
C14 C 0.0375(7) 0.7634(6) 0.3058(3)
C15 C 0.1416(5) 0.7701(5) 0.3412(3)
H15 H 0.1993 0.7842 0.3155
C16 C 0.1632(7) 0.6663(6) 0.3653(3)
H16 H 0.1502 0.6659 0.4045
H17 H 0.2356 0.6457 0.3585
C17 C 0.0838(7) 0.5942(6) 0.3347(3)
H18 H 0.1191 0.5318 0.3236
H19 H 0.0254 0.5766 0.3587
C18 C 0.1285(6) 0.6410(8) 0.2383(3)
H20 H 0.1321 0.5715 0.2261
H21 H 0.1963 0.6617 0.2520
H22 H 0.1087 0.6840 0.2081
C19 C 0.0407(10) 0.8411(8) 0.2587(4)
H23 H -0.0232 0.8364 0.2377
H24 H 0.1002 0.8269 0.2354
H25 H 0.0473 0.9086 0.2735
C20 C -0.0591(6) 0.7788(7) 0.3420(4)
H26 H -0.0589 0.7291 0.3709
H27 H -0.1220 0.7711 0.3203
H28 H -0.0574 0.8460 0.3576
O9 O 0.7197(7) 0.7611(6) 0.2014(3)
O10 O 0.6176(5) 0.7352(5) 0.1350(3)
O11 O 0.3965(5) 0.9923(5) 0.3227(2)
O12 O 0.2927(5) 1.0273(6) 0.2561(2)
C21 C 0.6476(6) 0.7882(6) 0.1720(3)
C22 C 0.3805(7) 1.0029(6) 0.2719(3)
C23 C 0.5993(5) 0.8941(6) 0.1815(3)
C24 C 0.4820(5) 0.8871(6) 0.2030(3)
C25 C 0.4707(6) 0.9941(6) 0.2323(4)
H29 H 0.4584 1.0446 0.2033
C26 C 0.5775(7) 1.0160(9) 0.2558(5)
H30 H 0.5943 1.0877 0.2513
H31 H 0.5781 1.0002 0.2947
C27 C 0.6565(7) 0.9527(8) 0.2267(5)
H32 H 0.6895 0.9056 0.2522
H33 H 0.7110 0.9957 0.2110
C28 C 0.6055(9) 0.9516(7) 0.1266(4)
H34 H 0.6777 0.9544 0.1145
H35 H 0.5791 1.0196 0.1314
H36 H 0.5637 0.9167 0.0996
C29 C 0.3970(7) 0.8736(9) 0.1593(4)
H37 H 0.4043 0.8077 0.1426
H38 H 0.4047 0.9256 0.1319
H39 H 0.3285 0.8790 0.1760
C30 C 0.4708(8) 0.8027(7) 0.2436(4)
H40 H 0.4770 0.7384 0.2250
H41 H 0.4029 0.8071 0.2609
H42 H 0.5253 0.8082 0.2708
N1 N -0.0534(5) 0.9589(5) 0.4582(3)
N2 N 0.0513(6) 0.8793(5) 0.5432(3)
C31 C -0.1041(7) 1.0078(7) 0.4189(4)
H43 H -0.0673 1.0584 0.4002
C32 C -0.2072(8) 0.9899(10) 0.4035(6)
H44 H -0.2404 1.0252 0.3752
C33 C -0.2573(8) 0.9137(10) 0.4342(6)
H45 H -0.3278 0.8988 0.4268
C34 C -0.2083(8) 0.8618(10) 0.4735(7)
H46 H -0.2429 0.8101 0.4924
C35 C -0.1028(6) 0.8867(8) 0.4860(5)
C36 C -0.0446(10) 0.8399(8) 0.5313(5)
C37 C -0.0794(11) 0.7546(8) 0.5631(5)
H47 H -0.1423 0.7221 0.5540
C38 C -0.0224(12) 0.7203(9) 0.6063(5)
H48 H -0.0466 0.6662 0.6276
C39 C 0.0716(12) 0.7669(8) 0.6181(5)
H49 H 0.1113 0.7462 0.6483
C40 C 0.1065(9) 0.8436(7) 0.5855(4)
H50 H 0.1719 0.8725 0.5931
La1B La -0.23924(3) 0.60270(3) 0.149641(14)
La1B_2 La 0.76076(3) 0.60270(3) 0.149641(14)
La1C La 0.73924(3) 1.39730(3) 0.649641(14)
Mn1C Mn 0.62009(8) 1.51843(8) 0.52204(4)
O1C O 0.0838(4) 1.1354(4) 0.4964(2)
O2C O 0.1051(4) 1.1776(4) 0.40938(19)
O6B O 0.0887(4) 1.1279(4) 0.28402(18)
O9B O 0.2803(7) 1.2611(6) 0.2986(3)
O10B O 0.3824(5) 1.2352(5) 0.3650(3)
loop_
_geom_bond_atom_site_label_1
_geom_bond_atom_site_label_2
_geom_bond_site_symmetry_1
_geom_bond_site_symmetry_2
La1 O4 1_555 1_555
Mn1 O3 1_555 1_555
O1 C1 1_555 1_555
O2 C1 1_555 1_555
O3 C2 1_555 1_555
O4 Mn1 1_555 1_555
C1 C3 1_555 1_555
C2 O4 1_555 1_555
C3 C4 1_555 1_555
C4 C5 1_555 1_555
C5 C2 1_555 1_555
H1 C5 1_555 1_555
C6 C5 1_555 1_555
H2 C6 1_555 1_555
H3 C6 1_555 1_555
C7 C3 1_555 1_555
H4 C7 1_555 1_555
H5 C7 1_555 1_555
C8 C3 1_555 1_555
H6 C8 1_555 1_555
H7 C8 1_555 1_555
H8 C8 1_555 1_555
C9 C4 1_555 1_555
H9 C9 1_555 1_555
H10 C9 1_555 1_555
H11 C9 1_555 1_555
C10 C4 1_555 1_555
H12 C10 1_555 1_555
H13 C10 1_555 1_555
H14 C10 1_555 1_555
O5 C11 1_555 1_555
O6 C11 1_555 1_555
O7 Mn1 1_555 1_555
O8 La1 1_555 1_555
C11 C13 1_555 1_555
C12 O7 1_555 1_555
C13 C14 1_555 1_555
C14 C15 1_555 1_555
C15 C12 1_555 1_555
H15 C15 1_555 1_555
C16 C15 1_555 1_555
H16 C16 1_555 1_555
H17 C16 1_555 1_555
C17 C13 1_555 1_555
H18 C17 1_555 1_555
H19 C17 1_555 1_555
C18 C13 1_555 1_555
H20 C18 1_555 1_555
H21 C18 1_555 1_555
H22 C18 1_555 1_555
C19 C14 1_555 1_555
H23 C19 1_555 1_555
H24 C19 1_555 1_555
H25 C19 1_555 1_555
C20 C14 1_555 1_555
H26 C20 1_555 1_555
H27 C20 1_555 1_555
H28 C20 1_555 1_555
O9 C21 1_555 1_555
O10 C21 1_555 1_555
O11 La1 1_555 1_555
O12 La1 1_555 1_555
C21 C23 1_555 1_555
C22 O11 1_555 1_555
C23 C24 1_555 1_555
C24 C25 1_555 1_555
C25 C22 1_555 1_555
H29 C25 1_555 1_555
C26 C25 1_555 1_555
H30 C26 1_555 1_555
H31 C26 1_555 1_555
C27 C23 1_555 1_555
H32 C27 1_555 1_555
H33 C27 1_555 1_555
C28 C23 1_555 1_555
H34 C28 1_555 1_555
H35 C28 1_555 1_555
H36 C28 1_555 1_555
C29 C24 1_555 1_555
H37 C29 1_555 1_555
H38 C29 1_555 1_555
H39 C29 1_555 1_555
C30 C24 1_555 1_555
H40 C30 1_555 1_555
H41 C30 1_555 1_555
H42 C30 1_555 1_555
N1 Mn1 1_555 1_555
N2 Mn1 1_555 1_555
C31 N1 1_555 1_555
H43 C31 1_555 1_555
C32 C31 1_555 1_555
H44 C32 1_555 1_555
C33 C32 1_555 1_555
H45 C33 1_555 1_555
C34 C33 1_555 1_555
H46 C34 1_555 1_555
C35 N1 1_555 1_555
C36 N2 1_555 1_555
C37 C36 1_555 1_555
H47 C37 1_555 1_555
C38 C37 1_555 1_555
H48 C38 1_555 1_555
C39 C38 1_555 1_555
H49 C39 1_555 1_555
C40 N2 1_555 1_555
H50 C40 1_555 1_555
La1B O6 1_555 1_555
La1B_2 O9 1_555 1_555
La1C O2 1_555 1_555
Mn1C O1 1_555 1_555
O1C Mn1 1_555 1_555
O2C La1 1_555 1_555
O6B La1 1_555 1_555
O9B La1 1_555 1_555
O10B La1 1_555 1_555
C6 C7 1_555 1_555
O8 C12 1_555 1_555
C16 C17 1_555 1_555
O10 La1B_2 1_555 1_555
O12 C22 1_555 1_555
C26 C27 1_555 1_555
C34 C35 1_555 1_555
C35 C36 1_555 1_555
C39 C40 1_555 1_555

#END
