
#######################################################################
#
#                 Cambridge Crystallographic Data Centre
#                                CCDC 
#
#######################################################################
#
# If this CIF has been generated from an entry in the Cambridge 
# Structural Database, then it will include bibliographic, chemical, 
# crystal, experimental, refinement or atomic coordinate data resulting 
# from the CCDC's data processing and validation procedures.
#
#######################################################################

data_PESQUA
_symmetry_cell_setting           monoclinic
_symmetry_space_group_name_H-M   'P 21/n'
_symmetry_Int_Tables_number      14
_space_group_name_Hall           '-P 2yn'
loop_
_symmetry_equiv_pos_site_id
_symmetry_equiv_pos_as_xyz
1 x,y,z
2 1/2-x,1/2+y,1/2-z
3 -x,-y,-z
4 1/2+x,1/2-y,1/2+z
_cell_length_a                   8.2825(18)
_cell_length_b                   7.1875(16)
_cell_length_c                   14.008(3)
_cell_angle_alpha                90
_cell_angle_beta                 106.031(3)
_cell_angle_gamma                90
_cell_volume                     801.474
loop_
_atom_site_label
_atom_site_type_symbol
_atom_site_fract_x
_atom_site_fract_y
_atom_site_fract_z
O1 O 0.93599(17) 0.9411(2) 0.26068(10)
H1 H 0.9898 1.0076 0.3093
H2 H 0.8396 0.9883 0.2335
S1 S 0.62984(5) 0.30686(6) 0.95493(3)
O2 O 0.39621(16) -0.08873(18) 0.83089(8)
H3 H 0.4351 -0.0214 0.7921
H4 H 0.4074 -0.2027 0.8184
Cd1 Cd 0.5000 0.0000 1.0000
C1 C 1.12415(19) 0.2099(2) 0.99129(11)
N1 N 1.24963(18) 0.1694(2) 0.97961(12)
C2 C 0.97312(19) 0.3338(2) 1.10070(11)
N2 N 0.9871(2) 0.3946(3) 1.17811(11)
C3 C 0.9683(2) 0.2594(2) 1.00680(11)
N3 N 0.81446(18) 0.1666(2) 0.84521(10)
H5 H 0.9022 0.1348 0.8301
H6 H 0.7170 0.1498 0.7992
C4 C 0.81611(19) 0.2369(2) 0.93265(11)
S1B S 0.37016(5) -0.30686(6) 1.04507(3)
O2B O 0.60379(16) 0.08873(18) 1.16911(8)
H3B H 0.5649 0.0214 1.2079
H4B H 0.5926 0.2027 1.1816
Cd1_2 Cd 1.5000 0.0000 1.0000
Cd1_3 Cd -0.5000 0.0000 1.0000
C1B C -0.12415(19) -0.2099(2) 1.00871(11)
N1B N -0.24963(18) -0.1694(2) 1.02039(12)
N1_2 N 0.24963(18) 0.1694(2) 0.97961(12)
N1B_2 N 0.75037(18) -0.1694(2) 1.02039(12)
C2B C 0.02688(19) -0.3338(2) 0.89930(11)
N2B N 0.0129(2) -0.3946(3) 0.82189(11)
C3B C 0.0317(2) -0.2594(2) 0.99320(11)
N3B N 0.18554(18) -0.1666(2) 1.15479(10)
H5B H 0.0978 -0.1348 1.1699
H6B H 0.2830 -0.1498 1.2008
C4B C 0.18389(19) -0.2369(2) 1.06735(11)
loop_
_geom_bond_atom_site_label_1
_geom_bond_atom_site_label_2
_geom_bond_site_symmetry_1
_geom_bond_site_symmetry_2
O1 H1 1_555 1_555
H2 O1 1_555 1_555
S1 Cd1 1_555 1_555
O2 H3 1_555 1_555
H4 O2 1_555 1_555
Cd1 O2 1_555 1_555
C1 N1 1_555 1_555
N1 Cd1_2 1_555 1_555
C2 N2 1_555 1_555
C3 C1 1_555 1_555
N3 H5 1_555 1_555
H6 N3 1_555 1_555
C4 S1 1_555 1_555
S1B Cd1 1_555 1_555
O2B Cd1 1_555 1_555
H3B O2B 1_555 1_555
H4B O2B 1_555 1_555
Cd1_3 N1B 1_555 1_555
C1B N1B 1_555 1_555
N1_2 Cd1 1_555 1_555
N1B_2 Cd1 1_555 1_555
C2B N2B 1_555 1_555
C3B C1B 1_555 1_555
N3B H5B 1_555 1_555
H6B N3B 1_555 1_555
C4B S1B 1_555 1_555
C2 C3 1_555 1_555
C3 C4 1_555 1_555
N3 C4 1_555 1_555
C2B C3B 1_555 1_555
C3B C4B 1_555 1_555
N3B C4B 1_555 1_555

#END
