
#######################################################################
#
#                 Cambridge Crystallographic Data Centre
#                                CCDC 
#
#######################################################################
#
# If this CIF has been generated from an entry in the Cambridge 
# Structural Database, then it will include bibliographic, chemical, 
# crystal, experimental, refinement or atomic coordinate data resulting 
# from the CCDC's data processing and validation procedures.
#
#######################################################################

data_PESQEL
_symmetry_cell_setting           orthorhombic
_symmetry_space_group_name_H-M   'P 21 21 21'
_symmetry_Int_Tables_number      19
_space_group_name_Hall           'P 2ac 2ab'
loop_
_symmetry_equiv_pos_site_id
_symmetry_equiv_pos_as_xyz
1 x,y,z
2 1/2-x,-y,1/2+z
3 -x,1/2+y,1/2-z
4 1/2+x,1/2-y,-z
_cell_length_a                   12.6092(13)
_cell_length_b                   13.0311(12)
_cell_length_c                   24.203(2)
_cell_angle_alpha                90
_cell_angle_beta                 90
_cell_angle_gamma                90
_cell_volume                     3976.84
loop_
_atom_site_label
_atom_site_type_symbol
_atom_site_fract_x
_atom_site_fract_y
_atom_site_fract_z
Eu1 Eu 0.74251(2) 0.89551(2) 0.150387(13)
Mn1 Mn 0.62473(9) 1.01855(8) 0.02453(5)
O1 O 1.0900(4) 0.6352(4) -0.0073(2)
O2 O 1.1161(4) 0.6824(4) -0.0929(2)
O3 O 0.7744(5) 1.0179(4) -0.0196(2)
O4 O 0.7943(4) 0.9501(4) 0.0620(2)
C1 C 1.0941(5) 0.7024(6) -0.0437(3)
C2 C 0.8313(6) 0.9730(6) 0.0145(3)
C3 C 1.0697(6) 0.8158(5) -0.0286(3)
C4 C 0.9504(6) 0.8423(5) -0.0343(3)
C5 C 0.9429(6) 0.9432(6) -0.0002(3)
H1 H 0.9714 0.9981 -0.0236
C6 C 1.0190(6) 0.9303(7) 0.0478(4)
H2 H 0.9803 0.9186 0.0818
H3 H 1.0623 0.9913 0.0521
C7 C 1.0887(7) 0.8370(6) 0.0338(3)
H4 H 1.0682 0.7781 0.0559
H5 H 1.1629 0.8521 0.0408
C8 C 1.1435(6) 0.8849(6) -0.0626(4)
H6 H 1.1333 0.8712 -0.1013
H7 H 1.2158 0.8711 -0.0528
H8 H 1.1274 0.9555 -0.0552
C9 C 0.8775(6) 0.7606(6) -0.0095(3)
H9 H 0.8968 0.7489 0.0283
H10 H 0.8847 0.6979 -0.0300
H11 H 0.8053 0.7838 -0.0113
C10 C 0.9165(8) 0.8581(7) -0.0954(3)
H12 H 0.8424 0.8748 -0.0969
H13 H 0.9292 0.7962 -0.1158
H14 H 0.9569 0.9132 -0.1112
O5 O 0.8822(6) 0.7683(5) 0.1372(3)
O6 O 0.7710(6) 0.7368(5) 0.1982(3)
O7 O 1.1040(5) 0.5046(5) 0.3246(3)
O8 O 1.2014(5) 0.4582(7) 0.2574(3)
C11 C 0.8499(8) 0.7114(7) 0.1731(4)
C12 C 1.1143(7) 0.4909(6) 0.2749(3)
C13 C 0.8992(6) 0.6057(6) 0.1834(3)
C14 C 1.0149(6) 0.6119(6) 0.2060(3)
C15 C 1.0249(6) 0.5040(6) 0.2346(4)
H15 H 1.0354 0.4533 0.2052
C16 C 0.9180(8) 0.4837(10) 0.2595(5)
H16 H 0.9180 0.5017 0.2984
H17 H 0.8999 0.4116 0.2560
C17 C 0.8390(8) 0.5492(8) 0.2283(5)
H18 H 0.8055 0.5978 0.2531
H19 H 0.7843 0.5064 0.2120
C18 C 0.8905(9) 0.5471(8) 0.1293(5)
H20 H 0.8180 0.5465 0.1173
H21 H 0.9145 0.4779 0.1347
H22 H 0.9336 0.5799 0.1018
C19 C 1.0272(9) 0.6985(7) 0.2468(4)
H23 H 1.0216 0.7629 0.2278
H24 H 1.0953 0.6938 0.2644
H25 H 0.9724 0.6939 0.2743
C20 C 1.0997(8) 0.6270(8) 0.1620(4)
H26 H 1.0921 0.6938 0.1458
H27 H 1.0919 0.5756 0.1339
H28 H 1.1686 0.6211 0.1786
O9 O 0.6285(5) 0.9198(5) 0.2975(2)
O10 O 0.5909(4) 0.8706(4) 0.2123(2)
O11 O 0.3481(4) 0.6572(4) 0.4274(2)
O12 O 0.3560(4) 0.5468(4) 0.3591(2)
C21 C 0.5632(6) 0.8807(6) 0.2605(3)
C22 C 0.3534(5) 0.6373(6) 0.3772(3)
C23 C 0.4571(7) 0.8461(6) 0.2805(3)
C24 C 0.4608(7) 0.7333(7) 0.3024(4)
C25 C 0.3552(6) 0.7271(5) 0.3357(3)
H29 H 0.2985 0.7144 0.3089
C26 C 0.3342(8) 0.8310(6) 0.3608(4)
H30 H 0.3473 0.8305 0.4003
H31 H 0.2618 0.8528 0.3541
C27 C 0.4159(7) 0.9026(7) 0.3298(4)
H32 H 0.3812 0.9655 0.3182
H33 H 0.4739 0.9204 0.3543
C28 C 0.3752(8) 0.8569(9) 0.2337(4)
H34 H 0.3737 0.9267 0.2212
H35 H 0.3063 0.8379 0.2472
H36 H 0.3946 0.8127 0.2036
C29 C 0.4588(10) 0.6537(9) 0.2532(5)
H37 H 0.5238 0.6584 0.2327
H38 H 0.4001 0.6688 0.2293
H39 H 0.4512 0.5855 0.2677
C30 C 0.5558(7) 0.7129(8) 0.3367(5)
H40 H 0.6182 0.7169 0.3140
H41 H 0.5507 0.6456 0.3526
H42 H 0.5602 0.7630 0.3657
N1 N 0.4508(6) 1.0398(6) 0.0443(4)
N2 N 0.5559(7) 1.1203(6) -0.0417(4)
C31 C 0.4009(8) 0.9909(8) 0.0835(5)
H43 H 0.4392 0.9415 0.1027
C32 C 0.2949(10) 1.0059(10) 0.0993(5)
H44 H 0.2602 0.9699 0.1271
C33 C 0.2500(12) 1.0821(11) 0.0673(6)
H45 H 0.1801 1.0989 0.0756
C34 C 0.2945(10) 1.1355(10) 0.0255(6)
H46 H 0.2574 1.1844 0.0052
C35 C 0.4004(7) 1.1115(9) 0.0151(5)
C36 C 0.4609(10) 1.1591(8) -0.0295(5)
C37 C 0.4230(11) 1.2471(9) -0.0637(5)
H47 H 0.3583 1.2792 -0.0573
C38 C 0.4866(14) 1.2761(11) -0.1033(6)
H48 H 0.4655 1.3334 -0.1234
C39 C 0.5763(13) 1.2343(10) -0.1180(5)
H49 H 0.6133 1.2553 -0.1492
C40 C 0.6128(12) 1.1564(8) -0.0839(5)
H50 H 0.6793 1.1283 -0.0908
Eu1B Eu 0.25749(2) 0.39551(2) 0.349613(13)
Eu1B_2 Eu 1.25749(2) 0.39551(2) 0.349613(13)
Eu1C Eu 1.24251(2) 0.60449(2) -0.150387(13)
Mn1B Mn 0.37527(9) 0.51855(8) 0.47547(5)
Mn1C Mn 1.12473(9) 0.48145(8) -0.02453(5)
O1C O 0.5900(4) 0.8648(4) 0.0073(2)
O2C O 0.6161(4) 0.8176(4) 0.0929(2)
O7B O 0.8960(5) 1.0046(5) 0.1754(3)
O8B O 0.7986(5) 0.9582(7) 0.2426(3)
O11B O 0.6519(4) 1.1572(4) 0.0726(2)
O12B O 0.6440(4) 1.0468(4) 0.1409(2)
loop_
_geom_bond_atom_site_label_1
_geom_bond_atom_site_label_2
_geom_bond_site_symmetry_1
_geom_bond_site_symmetry_2
Eu1 O4 1_555 1_555
Mn1 O3 1_555 1_555
O1 C1 1_555 1_555
O2 C1 1_555 1_555
O3 C2 1_555 1_555
O4 Mn1 1_555 1_555
C1 C3 1_555 1_555
C2 O4 1_555 1_555
C3 C4 1_555 1_555
C4 C5 1_555 1_555
C5 C2 1_555 1_555
H1 C5 1_555 1_555
C6 C5 1_555 1_555
H2 C6 1_555 1_555
H3 C6 1_555 1_555
C7 C3 1_555 1_555
H4 C7 1_555 1_555
H5 C7 1_555 1_555
C8 C3 1_555 1_555
H6 C8 1_555 1_555
H7 C8 1_555 1_555
H8 C8 1_555 1_555
C9 C4 1_555 1_555
H9 C9 1_555 1_555
H10 C9 1_555 1_555
H11 C9 1_555 1_555
C10 C4 1_555 1_555
H12 C10 1_555 1_555
H13 C10 1_555 1_555
H14 C10 1_555 1_555
O5 Eu1 1_555 1_555
O6 Eu1 1_555 1_555
O7 C12 1_555 1_555
O8 C12 1_555 1_555
C11 O5 1_555 1_555
C12 C15 1_555 1_555
C13 C11 1_555 1_555
C14 C13 1_555 1_555
C15 C14 1_555 1_555
H15 C15 1_555 1_555
C16 C15 1_555 1_555
H16 C16 1_555 1_555
H17 C16 1_555 1_555
C17 C13 1_555 1_555
H18 C17 1_555 1_555
H19 C17 1_555 1_555
C18 C13 1_555 1_555
H20 C18 1_555 1_555
H21 C18 1_555 1_555
H22 C18 1_555 1_555
C19 C14 1_555 1_555
H23 C19 1_555 1_555
H24 C19 1_555 1_555
H25 C19 1_555 1_555
C20 C14 1_555 1_555
H26 C20 1_555 1_555
H27 C20 1_555 1_555
H28 C20 1_555 1_555
O9 C21 1_555 1_555
O10 Eu1 1_555 1_555
O11 C22 1_555 1_555
O12 C22 1_555 1_555
C21 O10 1_555 1_555
C22 C25 1_555 1_555
C23 C21 1_555 1_555
C24 C23 1_555 1_555
C25 C24 1_555 1_555
H29 C25 1_555 1_555
C26 C25 1_555 1_555
H30 C26 1_555 1_555
H31 C26 1_555 1_555
C27 C23 1_555 1_555
H32 C27 1_555 1_555
H33 C27 1_555 1_555
C28 C23 1_555 1_555
H34 C28 1_555 1_555
H35 C28 1_555 1_555
H36 C28 1_555 1_555
C29 C24 1_555 1_555
H37 C29 1_555 1_555
H38 C29 1_555 1_555
H39 C29 1_555 1_555
C30 C24 1_555 1_555
H40 C30 1_555 1_555
H41 C30 1_555 1_555
H42 C30 1_555 1_555
N1 Mn1 1_555 1_555
N2 Mn1 1_555 1_555
C31 N1 1_555 1_555
H43 C31 1_555 1_555
C32 C31 1_555 1_555
H44 C32 1_555 1_555
C33 C32 1_555 1_555
H45 C33 1_555 1_555
C34 C33 1_555 1_555
H46 C34 1_555 1_555
C35 N1 1_555 1_555
C36 N2 1_555 1_555
C37 C36 1_555 1_555
H47 C37 1_555 1_555
C38 C37 1_555 1_555
H48 C38 1_555 1_555
C39 C38 1_555 1_555
H49 C39 1_555 1_555
C40 N2 1_555 1_555
H50 C40 1_555 1_555
Eu1B O12 1_555 1_555
Eu1B_2 O7 1_555 1_555
Eu1C O2 1_555 1_555
Mn1B O11 1_555 1_555
Mn1C O1 1_555 1_555
O1C Mn1 1_555 1_555
O2C Eu1 1_555 1_555
O7B Eu1 1_555 1_555
O8B Eu1 1_555 1_555
O11B Mn1 1_555 1_555
O12B Eu1 1_555 1_555
C6 C7 1_555 1_555
O6 C11 1_555 1_555
O8 Eu1B_2 1_555 1_555
C16 C17 1_555 1_555
C26 C27 1_555 1_555
C34 C35 1_555 1_555
C35 C36 1_555 1_555
C39 C40 1_555 1_555

#END
