
#######################################################################
#
#                 Cambridge Crystallographic Data Centre
#                                CCDC 
#
#######################################################################
#
# If this CIF has been generated from an entry in the Cambridge 
# Structural Database, then it will include bibliographic, chemical, 
# crystal, experimental, refinement or atomic coordinate data resulting 
# from the CCDC's data processing and validation procedures.
#
#######################################################################

data_PESSUD01
_symmetry_cell_setting           orthorhombic
_symmetry_space_group_name_H-M   'P 21 21 21'
_symmetry_Int_Tables_number      19
_space_group_name_Hall           'P 2ac 2ab'
loop_
_symmetry_equiv_pos_site_id
_symmetry_equiv_pos_as_xyz
1 x,y,z
2 1/2-x,-y,1/2+z
3 -x,1/2+y,1/2-z
4 1/2+x,1/2-y,-z
_cell_length_a                   8.1824(3)
_cell_length_b                   10.8837(5)
_cell_length_c                   14.7894(9)
_cell_angle_alpha                90
_cell_angle_beta                 90
_cell_angle_gamma                90
_cell_volume                     1317.07
loop_
_atom_site_label
_atom_site_type_symbol
_atom_site_fract_x
_atom_site_fract_y
_atom_site_fract_z
Ho1 Ho 0.42563(3) -0.79602(2) -0.50184(2)
C1 C 0.2915(8) -0.4055(5) -0.4056(4)
C2 C 0.2122(11) -0.3789(8) -0.3095(5)
C3 C 0.3235(7) -0.2683(6) -0.2769(4)
H1 H 0.2744 -0.1929 -0.3009
C4 C 0.4923(13) -0.2796(11) -0.3192(7)
H2 H 0.5756 -0.2913 -0.2734
H3 H 0.5189 -0.2074 -0.3547
C5 C 0.4756(12) -0.3982(11) -0.3819(6)
H4 H 0.5410 -0.3895 -0.4362
H5 H 0.5104 -0.4714 -0.3498
C6 C 0.2423(8) -0.5307(6) -0.4426(4)
C7 C 0.2409(15) -0.3125(8) -0.4741(7)
H6 H 0.2904 -0.3317 -0.5313
H7 H 0.2757 -0.2324 -0.4550
H8 H 0.1241 -0.3135 -0.4803
C8 C 0.2284(14) -0.4902(11) -0.2502(6)
H9 H 0.1809 -0.4735 -0.1922
H10 H 0.3419 -0.5102 -0.2429
H11 H 0.1726 -0.5583 -0.2777
C9 C 0.0348(12) -0.3365(9) -0.3128(6)
H12 H -0.0038 -0.3221 -0.2524
H13 H -0.0309 -0.3988 -0.3408
H14 H 0.0274 -0.2619 -0.3471
C10 C 0.3227(8) -0.2570(5) -0.1752(5)
C11 C 0.1699(10) -0.9336(7) -0.4261(6)
H15 H 0.0862 -0.9805 -0.4012
O1 O 0.3538(6) -0.5996(4) -0.4720(4)
O2 O 0.0943(6) -0.5569(5) -0.4467(4)
O3 O 0.1973(7) -0.2143(5) -0.1375(3)
O4 O 0.4450(7) -0.2910(5) -0.1314(3)
O5 O 0.3002(7) -0.9822(5) -0.4435(5)
O6 O 0.1460(6) -0.8197(4) -0.4411(3)
Ho1A Ho 0.07437(3) -0.20398(2) -0.00184(2)
Ho1B Ho 0.57437(3) -0.29602(2) 0.00184(2)
Ho1C Ho -0.07437(3) -0.70398(2) -0.49816(2)
O2C O 0.5943(6) -0.9431(5) -0.5533(4)
O3A O 0.3027(7) -0.7857(5) -0.6375(3)
O4B O 0.5550(7) -0.7910(5) -0.3686(3)
O6C O 0.6460(6) -0.6803(4) -0.5589(3)
loop_
_geom_bond_atom_site_label_1
_geom_bond_atom_site_label_2
_geom_bond_site_symmetry_1
_geom_bond_site_symmetry_2
Ho1 O1 1_555 1_555
C1 C2 1_555 1_555
C2 C3 1_555 1_555
C3 H1 1_555 1_555
C4 C3 1_555 1_555
H2 C4 1_555 1_555
H3 C4 1_555 1_555
C5 C1 1_555 1_555
H4 C5 1_555 1_555
H5 C5 1_555 1_555
C6 C1 1_555 1_555
C7 C1 1_555 1_555
H6 C7 1_555 1_555
H7 C7 1_555 1_555
H8 C7 1_555 1_555
C8 C2 1_555 1_555
H9 C8 1_555 1_555
H10 C8 1_555 1_555
H11 C8 1_555 1_555
C9 C2 1_555 1_555
H12 C9 1_555 1_555
H13 C9 1_555 1_555
H14 C9 1_555 1_555
C10 C3 1_555 1_555
C11 H15 1_555 1_555
O1 C6 1_555 1_555
O2 C6 1_555 1_555
O3 C10 1_555 1_555
O4 C10 1_555 1_555
O5 Ho1 1_555 1_555
O6 Ho1 1_555 1_555
Ho1A O3 1_555 1_555
Ho1B O4 1_555 1_555
Ho1C O2 1_555 1_555
O2C Ho1 1_555 1_555
O3A Ho1 1_555 1_555
O4B Ho1 1_555 1_555
O6C Ho1 1_555 1_555
C4 C5 1_555 1_555
C11 O5 1_555 1_555
C11 O6 1_555 1_555
O6 Ho1C 1_555 1_555

#END
