
#######################################################################
#
#                 Cambridge Crystallographic Data Centre
#                                CCDC 
#
#######################################################################
#
# If this CIF has been generated from an entry in the Cambridge 
# Structural Database, then it will include bibliographic, chemical, 
# crystal, experimental, refinement or atomic coordinate data resulting 
# from the CCDC's data processing and validation procedures.
#
#######################################################################

data_PESSUD02
_symmetry_cell_setting           orthorhombic
_symmetry_space_group_name_H-M   'P 21 21 21'
_symmetry_Int_Tables_number      19
_space_group_name_Hall           'P 2ac 2ab'
loop_
_symmetry_equiv_pos_site_id
_symmetry_equiv_pos_as_xyz
1 x,y,z
2 1/2-x,-y,1/2+z
3 -x,1/2+y,1/2-z
4 1/2+x,1/2-y,-z
_cell_length_a                   8.16080(10)
_cell_length_b                   10.91910(10)
_cell_length_c                   14.7591(2)
_cell_angle_alpha                90
_cell_angle_beta                 90
_cell_angle_gamma                90
_cell_volume                     1315.16
loop_
_atom_site_label
_atom_site_type_symbol
_atom_site_fract_x
_atom_site_fract_y
_atom_site_fract_z
Ho1 Ho -0.07441(2) 0.295382(18) 1.001781(18)
O1 O 0.0537(6) 0.2921(5) 0.8684(3)
O2 O -0.1997(6) 0.4820(4) 0.9451(4)
C1 C 0.1777(7) 0.2584(5) 0.8256(4)
C2 C 0.1767(7) 0.2717(5) 0.7227(4)
H1 H 0.2301 0.1974 0.6999
O3 O 0.3034(5) 0.2146(5) 0.8631(3)
C3 C 0.0131(14) 0.2712(16) 0.6820(6)
H2 H -0.0722 0.2775 0.7275
H3 H -0.0050 0.1985 0.6455
C4 C 0.2860(10) 0.3781(8) 0.6904(5)
C5 C 0.4547(18) 0.3249(18) 0.6847(8)
H4 H 0.5305 0.3872 0.6659
H5 H 0.4555 0.2592 0.6414
H6 H 0.4864 0.2941 0.7430
C6 C 0.2679(14) 0.4870(8) 0.7507(5)
H7 H 0.3366 0.5521 0.7290
H8 H 0.2999 0.4655 0.8113
H9 H 0.1558 0.5135 0.7507
C7 C 0.0238(10) 0.3967(9) 0.6185(6)
H10 H -0.0427 0.3885 0.5643
H11 H -0.0123 0.4682 0.6521
O4 O 0.4069(5) 0.5582(4) 0.5537(3)
C8 C 0.2097(7) 0.4062(5) 0.5941(3)
C9 C 0.2583(7) 0.5324(5) 0.5579(4)
C10 C 0.2642(15) 0.3142(8) 0.5263(6)
H12 H 0.3795 0.3238 0.5153
H13 H 0.2051 0.3261 0.4707
H14 H 0.2433 0.2334 0.5490
O5 O 0.1459(5) 0.6004(4) 0.5292(3)
C11 C -0.3336(8) 0.4321(6) 0.9274(5)
H15 H -0.4189 0.4783 0.9034
O6 O -0.3539(5) 0.3186(4) 0.9421(3)
Ho1A Ho 0.57441(2) 0.704618(18) 0.501781(18)
Ho1B Ho 0.07441(2) 0.795382(18) 0.498219(18)
Ho1C Ho -0.57441(2) 0.204618(18) 0.998219(18)
Ho1C_2 Ho 0.42559(2) 0.204618(18) 0.998219(18)
O3C O -0.1966(5) 0.2854(5) 1.1369(3)
O4A O 0.0931(5) 0.4418(4) 1.0537(3)
O5B O -0.1459(5) 0.1004(4) 0.9708(3)
O6C O 0.1461(5) 0.1814(4) 1.0579(3)
loop_
_geom_bond_atom_site_label_1
_geom_bond_atom_site_label_2
_geom_bond_site_symmetry_1
_geom_bond_site_symmetry_2
Ho1 O1 1_555 1_555
O1 C1 1_555 1_555
O2 Ho1 1_555 1_555
C1 C2 1_555 1_555
C2 H1 1_555 1_555
O3 C1 1_555 1_555
C3 C2 1_555 1_555
H2 C3 1_555 1_555
H3 C3 1_555 1_555
C4 C2 1_555 1_555
C5 C4 1_555 1_555
H4 C5 1_555 1_555
H5 C5 1_555 1_555
H6 C5 1_555 1_555
C6 C4 1_555 1_555
H7 C6 1_555 1_555
H8 C6 1_555 1_555
H9 C6 1_555 1_555
C7 C3 1_555 1_555
H10 C7 1_555 1_555
H11 C7 1_555 1_555
O4 C9 1_555 1_555
C8 C4 1_555 1_555
C9 C8 1_555 1_555
C10 C8 1_555 1_555
H12 C10 1_555 1_555
H13 C10 1_555 1_555
H14 C10 1_555 1_555
O5 C9 1_555 1_555
C11 O2 1_555 1_555
H15 C11 1_555 1_555
O6 Ho1 1_555 1_555
Ho1A O4 1_555 1_555
Ho1B O5 1_555 1_555
Ho1C O6 1_555 1_555
Ho1C_2 O3 1_555 1_555
O3C Ho1 1_555 1_555
O4A Ho1 1_555 1_555
O5B Ho1 1_555 1_555
O6C Ho1 1_555 1_555
C7 C8 1_555 1_555
C11 O6 1_555 1_555
Ho1C_2 O6C 1_555 1_555

#END
