
#######################################################################
#
#                 Cambridge Crystallographic Data Centre
#                                CCDC 
#
#######################################################################
#
# If this CIF has been generated from an entry in the Cambridge 
# Structural Database, then it will include bibliographic, chemical, 
# crystal, experimental, refinement or atomic coordinate data resulting 
# from the CCDC's data processing and validation procedures.
#
#######################################################################

data_PESSOX
_symmetry_cell_setting           orthorhombic
_symmetry_space_group_name_H-M   'P 21 21 21'
_symmetry_Int_Tables_number      19
_space_group_name_Hall           'P 2ac 2ab'
loop_
_symmetry_equiv_pos_site_id
_symmetry_equiv_pos_as_xyz
1 x,y,z
2 1/2-x,-y,1/2+z
3 1/2+x,1/2-y,-z
4 -x,1/2+y,1/2-z
_cell_length_a                   8.1878(8)
_cell_length_b                   10.8856(11)
_cell_length_c                   14.7371(15)
_cell_angle_alpha                90
_cell_angle_beta                 90
_cell_angle_gamma                90
_cell_volume                     1313.5
loop_
_atom_site_label
_atom_site_type_symbol
_atom_site_fract_x
_atom_site_fract_y
_atom_site_fract_z
Dy1 Dy 0.5755 0.2966 -0.0014
O1 O 0.8551(5) 0.3171(4) 0.0591(3)
O2 O 0.1989(6) 0.2128(5) 0.1377(3)
O3 O 0.3531(6) 0.5994(4) 0.4715(3)
O4 O 0.7032(6) 0.4826(5) 0.0561(5)
C1 C 0.2355(17) 0.4864(10) 0.2505(7)
H1 H 0.2033 0.4663 0.1897
H2 H 0.3479 0.5113 0.2510
H3 H 0.1687 0.5524 0.2728
O5 O 0.4467(6) 0.2906(5) 0.1326(3)
O6 O 0.0926(6) 0.5554(5) 0.4483(4)
C2 C 0.3237(8) 0.2694(6) 0.2773(4)
H4 H 0.2698 0.1948 0.2992
C3 C 0.3244(8) 0.2571(6) 0.1755(5)
C4 C 0.2907(8) 0.4045(6) 0.4073(4)
C5 C 0.2419(8) 0.5305(6) 0.4434(4)
C6 C 0.045(2) 0.320(2) 0.318(1)
H5 H -0.0197 0.3682 0.3590
H6 H 0.0537 0.2376 0.3405
H7 H -0.0057 0.3192 0.2593
C7 C 0.8360(9) 0.4307(7) 0.0731(6)
C8 C 0.2142(11) 0.3757(9) 0.3104(6)
C9 C 0.4864(16) 0.267(2) 0.3185(7)
H8 H 0.5722 0.2704 0.2732
H9 H 0.5017 0.1946 0.3563
C10 C 0.4773(12) 0.3979(11) 0.3814(7)
H10 H 0.5455 0.3921 0.4351
H11 H 0.5102 0.4689 0.3461
C11 C 0.229(2) 0.3109(9) 0.4728(11)
H12 H 0.2620 0.3330 0.5332
H13 H 0.2738 0.2319 0.4577
H14 H 0.1122 0.3074 0.4697
H15 H 0.9046 0.4842 0.0888
Dy1A Dy -0.0755 0.7034 0.4986
Dy1B Dy 0.0755 0.2034 0.0014
Dy1B_2 Dy 1.0755 0.2034 0.0014
Dy1C Dy 0.4245 0.7966 0.5014
O1B O 0.3551(5) 0.1829(4) -0.0591(3)
O2B O 0.6989(6) 0.2872(5) -0.1377(3)
O3C O 0.6469(6) 0.0994(4) 0.0285(3)
O6A O 0.4074(6) 0.4446(5) -0.0517(4)
loop_
_geom_bond_atom_site_label_1
_geom_bond_atom_site_label_2
_geom_bond_site_symmetry_1
_geom_bond_site_symmetry_2
Dy1 O1 1_555 1_555
O1 C7 1_555 1_555
O2 C3 1_555 1_555
O3 C5 1_555 1_555
O4 Dy1 1_555 1_555
C1 H1 1_555 1_555
H2 C1 1_555 1_555
H3 C1 1_555 1_555
O5 Dy1 1_555 1_555
O6 C5 1_555 1_555
C2 H4 1_555 1_555
C3 O5 1_555 1_555
C4 C5 1_555 1_555
C6 H5 1_555 1_555
H6 C6 1_555 1_555
H7 C6 1_555 1_555
C7 O4 1_555 1_555
C8 C1 1_555 1_555
C9 C2 1_555 1_555
H8 C9 1_555 1_555
H9 C9 1_555 1_555
C10 C4 1_555 1_555
H10 C10 1_555 1_555
H11 C10 1_555 1_555
C11 C4 1_555 1_555
H12 C11 1_555 1_555
H13 C11 1_555 1_555
H14 C11 1_555 1_555
H15 C7 1_555 1_555
Dy1A O6 1_555 1_555
Dy1B O2 1_555 1_555
Dy1B_2 O1 1_555 1_555
Dy1C O3 1_555 1_555
O1B Dy1 1_555 1_555
O2B Dy1 1_555 1_555
O3C Dy1 1_555 1_555
O6A Dy1 1_555 1_555
C2 C3 1_555 1_555
C2 C8 1_555 1_555
C4 C8 1_555 1_555
C6 C8 1_555 1_555
C9 C10 1_555 1_555
Dy1B O1B 1_555 1_555

#END
