
#######################################################################
#
#                 Cambridge Crystallographic Data Centre
#                                CCDC 
#
#######################################################################
#
# If this CIF has been generated from an entry in the Cambridge 
# Structural Database, then it will include bibliographic, chemical, 
# crystal, experimental, refinement or atomic coordinate data resulting 
# from the CCDC's data processing and validation procedures.
#
#######################################################################

data_PESSUD
_symmetry_cell_setting           orthorhombic
_symmetry_space_group_name_H-M   'P 21 21 21'
_symmetry_Int_Tables_number      19
_space_group_name_Hall           'P 2ac 2ab'
loop_
_symmetry_equiv_pos_site_id
_symmetry_equiv_pos_as_xyz
1 x,y,z
2 1/2-x,-y,1/2+z
3 -x,1/2+y,1/2-z
4 1/2+x,1/2-y,-z
_cell_length_a                   8.1597(16)
_cell_length_b                   10.818(2)
_cell_length_c                   14.716(3)
_cell_angle_alpha                90
_cell_angle_beta                 90
_cell_angle_gamma                90
_cell_volume                     1299.01
loop_
_atom_site_label
_atom_site_type_symbol
_atom_site_fract_x
_atom_site_fract_y
_atom_site_fract_z
Ho1 Ho 0.07677(3) 0.70291(2) 0.00160(3)
O1 O 0.3533(5) 1.0984(4) 0.4737(3)
O2 O 0.4486(6) 0.7905(5) 0.1327(3)
O3 O 0.2029(6) 0.5175(5) -0.0573(4)
O4 O 0.1996(6) 0.7104(5) 0.1372(3)
O5 O 0.0915(6) 1.0540(4) 0.4487(4)
O6 O 0.3555(5) 0.6841(4) -0.0592(3)
C1 C 0.3247(8) 0.7547(6) 0.1756(5)
C2 C 0.3244(8) 0.7654(6) 0.2780(5)
H1 H 0.2730 0.6898 0.3010
C3 C 0.2417(8) 1.0287(6) 0.4448(5)
C4 C 0.2920(8) 0.9027(6) 0.4077(5)
C5 C 0.3362(8) 0.5694(7) -0.0744(6)
C6 C 0.2399(14) 0.8082(8) 0.4761(7)
H2 H 0.2802 0.8311 0.5350
H3 H 0.2836 0.7289 0.4595
H4 H 0.1224 0.8038 0.4777
C7 C 0.4949(13) 0.7712(13) 0.3203(7)
H5 H 0.5796 0.7794 0.2745
H6 H 0.5172 0.6992 0.3576
C8 C 0.4775(12) 0.8967(10) 0.3818(7)
H7 H 0.5453 0.8915 0.4358
H8 H 0.5095 0.9691 0.3472
C9 C 0.2302(14) 0.9864(9) 0.2504(6)
H9 H 0.1528 1.0484 0.2688
H10 H 0.2092 0.9629 0.1886
H11 H 0.3393 1.0189 0.2553
C10 C 0.2137(12) 0.8757(9) 0.3106(7)
C11 C 0.0353(15) 0.8297(12) 0.3150(9)
H12 H -0.0355 0.8972 0.3312
H13 H 0.0264 0.7656 0.3598
H14 H 0.0036 0.7978 0.2567
H15 H 0.416(14) 0.524(11) -0.110(8)
Ho1A Ho 0.42323(3) 1.29709(2) 0.50160(3)
Ho1B Ho -0.07677(3) 1.20291(2) 0.49840(3)
Ho1C Ho 0.57677(3) 0.79709(2) -0.00160(3)
O1A O 0.1467(5) 0.9016(4) -0.0263(3)
O2C O -0.0514(6) 0.7095(5) -0.1327(3)
O5B O -0.0915(6) 0.5540(4) 0.0513(4)
O6C O -0.1445(5) 0.8159(4) 0.0592(3)
loop_
_geom_bond_atom_site_label_1
_geom_bond_atom_site_label_2
_geom_bond_site_symmetry_1
_geom_bond_site_symmetry_2
Ho1 O3 1_555 1_555
O1 C3 1_555 1_555
O2 C1 1_555 1_555
O3 C5 1_555 1_555
O4 Ho1 1_555 1_555
O5 C3 1_555 1_555
O6 Ho1 1_555 1_555
C1 O4 1_555 1_555
C2 C1 1_555 1_555
H1 C2 1_555 1_555
C3 C4 1_555 1_555
C4 C6 1_555 1_555
C5 O6 1_555 1_555
C6 H2 1_555 1_555
H3 C6 1_555 1_555
H4 C6 1_555 1_555
C7 C2 1_555 1_555
H5 C7 1_555 1_555
H6 C7 1_555 1_555
C8 C4 1_555 1_555
H7 C8 1_555 1_555
H8 C8 1_555 1_555
C9 H9 1_555 1_555
H10 C9 1_555 1_555
H11 C9 1_555 1_555
C10 C2 1_555 1_555
C11 C10 1_555 1_555
H12 C11 1_555 1_555
H13 C11 1_555 1_555
H14 C11 1_555 1_555
H15 C5 1_555 1_555
Ho1A O1 1_555 1_555
Ho1B O5 1_555 1_555
Ho1C O2 1_555 1_555
O1A Ho1 1_555 1_555
O2C Ho1 1_555 1_555
O5B Ho1 1_555 1_555
O6C Ho1 1_555 1_555
O6 Ho1C 1_555 1_555
C4 C10 1_555 1_555
C7 C8 1_555 1_555
C9 C10 1_555 1_555

#END
