
#######################################################################
#
#                 Cambridge Crystallographic Data Centre
#                                CCDC 
#
#######################################################################
#
# If this CIF has been generated from an entry in the Cambridge 
# Structural Database, then it will include bibliographic, chemical, 
# crystal, experimental, refinement or atomic coordinate data resulting 
# from the CCDC's data processing and validation procedures.
#
#######################################################################

data_PESSUC
_symmetry_cell_setting           triclinic
_symmetry_space_group_name_H-M   'P -1'
_symmetry_Int_Tables_number      2
_space_group_name_Hall           '-P 1'
loop_
_symmetry_equiv_pos_site_id
_symmetry_equiv_pos_as_xyz
1 x,y,z
2 -x,-y,-z
_cell_length_a                   8.068(2)
_cell_length_b                   10.044(3)
_cell_length_c                   15.158(4)
_cell_angle_alpha                76.001(4)
_cell_angle_beta                 80.659(4)
_cell_angle_gamma                79.932(4)
_cell_volume                     1164.2
loop_
_atom_site_label
_atom_site_type_symbol
_atom_site_fract_x
_atom_site_fract_y
_atom_site_fract_z
Sn1 Sn 0.64737(4) 0.10972(3) 0.71872(2)
Br1 Br 0.87967(7) 0.69213(5) 0.57549(4)
Br2 Br 1.27152(10) -0.55668(8) 0.89918(5)
N1 N 0.8727(4) 0.2762(4) 0.6782(3)
N2 N 0.7715(8) -0.5315(5) 0.8677(4)
O1 O 1.3735(3) 0.1229(3) 0.7095(2)
O2 O 1.4536(4) 0.3301(3) 0.6633(2)
O3 O 0.6253(4) -0.1108(3) 0.7785(2)
O4 O 0.8865(4) -0.0655(3) 0.7620(2)
C1 C 1.3418(5) 0.2524(5) 0.6808(3)
C2 C 1.0359(5) 0.2278(4) 0.6891(3)
H1 H 1.0661 0.1334 0.7117
C3 C 1.1609(5) 0.3131(4) 0.6679(3)
C4 C 1.1167(6) 0.4525(5) 0.6350(3)
H2 H 1.1978 0.5124 0.6208
C5 C 0.9487(5) 0.5022(4) 0.6232(3)
C6 C 0.8306(6) 0.4114(5) 0.6456(3)
H3 H 0.7180 0.4458 0.6377
C7 C 0.7817(6) -0.1498(4) 0.7855(3)
C8 C 0.7265(8) -0.3950(5) 0.8379(4)
H4 H 0.6150 -0.3628 0.8265
C9 C 0.8381(6) -0.2998(5) 0.8232(3)
C10 C 1.0036(6) -0.3453(5) 0.8409(3)
H5 H 1.0816 -0.2835 0.8312
C11 C 1.0488(8) -0.4845(6) 0.8734(4)
C12 C 0.9317(10) -0.5730(6) 0.8854(4)
H6 H 0.9655 -0.6671 0.9070
C13 C 0.7249(6) 0.0767(5) 0.5837(3)
H7 H 0.8472 0.0731 0.5721
H8 H 0.7004 -0.0144 0.5836
C14 C 0.6528(7) 0.1760(6) 0.5041(4)
H9 H 0.6864 0.2660 0.4988
H10 H 0.5299 0.1860 0.5159
C15 C 0.7095(8) 0.1312(7) 0.4136(4)
H11 H 0.8323 0.1212 0.4017
H12 H 0.6757 0.0413 0.4188
C16 C 0.6374(9) 0.2307(8) 0.3346(4)
H13 H 0.5158 0.2396 0.3452
H14 H 0.6773 0.1972 0.2797
H15 H 0.6726 0.3194 0.3280
C17 C 0.6013(5) 0.1683(4) 0.8466(3)
H16 H 0.6032 0.2674 0.8350
H17 H 0.4874 0.1518 0.8740
C18 C 0.7226(6) 0.0967(5) 0.9171(3)
H18 H 0.7277 -0.0029 0.9269
H19 H 0.8356 0.1197 0.8933
C19 C 0.6674(7) 0.1397(6) 1.0081(3)
H20 H 0.6607 0.2395 0.9980
H21 H 0.5550 0.1157 1.0322
C20 C 0.7870(8) 0.0715(7) 1.0776(4)
H22 H 0.7930 -0.0274 1.0885
H23 H 0.7466 0.1012 1.1339
H24 H 0.8979 0.0970 1.0549
Sn1_2 Sn 1.64737(4) 0.10972(3) 0.71872(2)
O1_2 O 0.3735(3) 0.1229(3) 0.7095(2)
O2_2 O 0.4536(4) 0.3301(3) 0.6633(2)
loop_
_geom_bond_atom_site_label_1
_geom_bond_atom_site_label_2
_geom_bond_site_symmetry_1
_geom_bond_site_symmetry_2
Sn1 N1 1_555 1_555
Br1 C5 1_555 1_555
Br2 C11 1_555 1_555
N1 C2 1_555 1_555
N2 C8 1_555 1_555
O1 C1 1_555 1_555
O2 C1 1_555 1_555
O3 Sn1 1_555 1_555
O4 Sn1 1_555 1_555
C1 C3 1_555 1_555
C2 H1 1_555 1_555
C3 C2 1_555 1_555
C4 C3 1_555 1_555
H2 C4 1_555 1_555
C5 C4 1_555 1_555
C6 N1 1_555 1_555
H3 C6 1_555 1_555
C7 O3 1_555 1_555
C8 H4 1_555 1_555
C9 C7 1_555 1_555
C10 C9 1_555 1_555
H5 C10 1_555 1_555
C11 C10 1_555 1_555
C12 N2 1_555 1_555
H6 C12 1_555 1_555
C13 Sn1 1_555 1_555
H7 C13 1_555 1_555
H8 C13 1_555 1_555
C14 C13 1_555 1_555
H9 C14 1_555 1_555
H10 C14 1_555 1_555
C15 C14 1_555 1_555
H11 C15 1_555 1_555
H12 C15 1_555 1_555
C16 C15 1_555 1_555
H13 C16 1_555 1_555
H14 C16 1_555 1_555
H15 C16 1_555 1_555
C17 Sn1 1_555 1_555
H16 C17 1_555 1_555
H17 C17 1_555 1_555
C18 C17 1_555 1_555
H18 C18 1_555 1_555
H19 C18 1_555 1_555
C19 C18 1_555 1_555
H20 C19 1_555 1_555
H21 C19 1_555 1_555
C20 C19 1_555 1_555
H22 C20 1_555 1_555
H23 C20 1_555 1_555
H24 C20 1_555 1_555
Sn1_2 O1 1_555 1_555
O1_2 Sn1 1_555 1_555
O2_2 Sn1 1_555 1_555
O2 Sn1_2 1_555 1_555
O4 C7 1_555 1_555
C5 C6 1_555 1_555
C8 C9 1_555 1_555
C11 C12 1_555 1_555

#END
