
#######################################################################
#
#                 Cambridge Crystallographic Data Centre
#                                CCDC 
#
#######################################################################
#
# If this CIF has been generated from an entry in the Cambridge 
# Structural Database, then it will include bibliographic, chemical, 
# crystal, experimental, refinement or atomic coordinate data resulting 
# from the CCDC's data processing and validation procedures.
#
#######################################################################

data_PESTEO01
_symmetry_cell_setting           orthorhombic
_symmetry_space_group_name_H-M   'P 21 21 21'
_symmetry_Int_Tables_number      19
_space_group_name_Hall           'P 2ac 2ab'
loop_
_symmetry_equiv_pos_site_id
_symmetry_equiv_pos_as_xyz
1 x,y,z
2 1/2-x,-y,1/2+z
3 -x,1/2+y,1/2-z
4 1/2+x,1/2-y,-z
_cell_length_a                   8.2383(3)
_cell_length_b                   10.9075(5)
_cell_length_c                   14.7942(6)
_cell_angle_alpha                90
_cell_angle_beta                 90
_cell_angle_gamma                90
_cell_volume                     1329.4
loop_
_atom_site_label
_atom_site_type_symbol
_atom_site_fract_x
_atom_site_fract_y
_atom_site_fract_z
Tb1 Tb 0.92483(3) 0.79657(2) 0.00182(3)
O1 O 0.8021(7) 0.7872(5) 0.1379(4)
O2 O 0.6446(6) 0.8196(4) -0.0592(4)
O3 O 0.7985(8) 0.9838(5) -0.0570(5)
C1 C 0.6774(9) 0.7426(6) 0.1761(5)
C2 C 0.6760(9) 0.7300(6) 0.2770(5)
H1 H 0.7259 0.8050 0.3007
C3 C 0.6677(11) 0.9327(8) -0.0751(6)
H2 H 0.5846 0.9784 -0.1009
C4 C 0.5072(15) 0.7248(16) 0.3172(7)
H3 H 0.4249 0.7143 0.2710
H4 H 0.4831 0.7974 0.3526
C5 C 0.5237(13) 0.6023(10) 0.3815(8)
H5 H 0.4577 0.6104 0.4354
H6 H 0.4901 0.5294 0.3489
O4 O 0.9056(7) 0.4447(5) 0.4481(4)
C6 C 0.7588(10) 0.4701(6) 0.4430(5)
C7 C 0.7093(9) 0.5957(6) 0.4064(4)
O5 O 0.5546(7) 0.7095(5) 0.1318(4)
O6 O 0.6477(6) 0.4003(4) 0.4714(4)
C8 C 0.7633(16) 0.6880(8) 0.4742(7)
H7 H 0.8778 0.6795 0.4844
H8 H 0.7061 0.6752 0.5300
H9 H 0.7408 0.7690 0.4520
C9 C 0.7834(12) 0.6227(9) 0.3105(6)
C10 C 0.9546(16) 0.6737(15) 0.3171(10)
H10 H 1.0270 0.6104 0.3373
H11 H 0.9563 0.7405 0.3594
H12 H 0.9887 0.7025 0.2588
C11 C 0.7658(17) 0.5128(10) 0.2513(6)
H13 H 0.8335 0.4479 0.2737
H14 H 0.7980 0.5333 0.1908
H15 H 0.6547 0.4865 0.2513
Tb1A Tb 0.57517(3) 0.20343(2) 0.50182(3)
Tb1B Tb 1.07517(3) 0.29657(2) 0.49818(3)
Tb1C Tb 0.42483(3) 0.70343(2) -0.00182(3)
O2C O 1.1446(6) 0.6804(4) 0.0592(4)
O4B O 1.0944(7) 0.9447(5) 0.0519(4)
O5C O 1.0546(7) 0.7905(5) -0.1318(4)
O6A O 0.8523(6) 0.5997(4) -0.0286(4)
loop_
_geom_bond_atom_site_label_1
_geom_bond_atom_site_label_2
_geom_bond_site_symmetry_1
_geom_bond_site_symmetry_2
Tb1 O1 1_555 1_555
O1 C1 1_555 1_555
O2 Tb1 1_555 1_555
O3 Tb1 1_555 1_555
C1 C2 1_555 1_555
C2 H1 1_555 1_555
C3 O2 1_555 1_555
H2 C3 1_555 1_555
C4 C2 1_555 1_555
H3 C4 1_555 1_555
H4 C4 1_555 1_555
C5 C4 1_555 1_555
H5 C5 1_555 1_555
H6 C5 1_555 1_555
O4 C6 1_555 1_555
C6 C7 1_555 1_555
C7 C5 1_555 1_555
O5 C1 1_555 1_555
O6 C6 1_555 1_555
C8 C7 1_555 1_555
H7 C8 1_555 1_555
H8 C8 1_555 1_555
H9 C8 1_555 1_555
C9 C2 1_555 1_555
C10 C9 1_555 1_555
H10 C10 1_555 1_555
H11 C10 1_555 1_555
H12 C10 1_555 1_555
C11 C9 1_555 1_555
H13 C11 1_555 1_555
H14 C11 1_555 1_555
H15 C11 1_555 1_555
Tb1A O6 1_555 1_555
Tb1B O4 1_555 1_555
Tb1C O2 1_555 1_555
O2C Tb1 1_555 1_555
O4B Tb1 1_555 1_555
O5C Tb1 1_555 1_555
O6A Tb1 1_555 1_555
O3 C3 1_555 1_555
C7 C9 1_555 1_555
O5 Tb1C 1_555 1_555

#END
