
#######################################################################
#
#                 Cambridge Crystallographic Data Centre
#                                CCDC 
#
#######################################################################
#
# If this CIF has been generated from an entry in the Cambridge 
# Structural Database, then it will include bibliographic, chemical, 
# crystal, experimental, refinement or atomic coordinate data resulting 
# from the CCDC's data processing and validation procedures.
#
#######################################################################

data_PESTEO
_symmetry_cell_setting           orthorhombic
_symmetry_space_group_name_H-M   'P 21 21 21'
_symmetry_Int_Tables_number      19
_space_group_name_Hall           'P 2ac 2ab'
loop_
_symmetry_equiv_pos_site_id
_symmetry_equiv_pos_as_xyz
1 x,y,z
2 1/2-x,-y,1/2+z
3 -x,1/2+y,1/2-z
4 1/2+x,1/2-y,-z
_cell_length_a                   8.2558(17)
_cell_length_b                   10.820(2)
_cell_length_c                   14.719(3)
_cell_angle_alpha                90
_cell_angle_beta                 90
_cell_angle_gamma                90
_cell_volume                     1314.82
loop_
_atom_site_label
_atom_site_type_symbol
_atom_site_fract_x
_atom_site_fract_y
_atom_site_fract_z
C1 C 0.3256(5) 0.2448(4) 0.3236(3)
C2 C 0.3247(5) 0.2341(4) 0.2212(3)
H1 H 0.2783 0.3109 0.1975
O1 O 0.0918(4) -0.0513(3) 0.0498(2)
O2 O 0.4478(4) 0.2087(3) 0.3666(2)
O3 O 0.2017(4) 0.2896(3) 0.3616(2)
C3 C 0.2311(9) 0.0128(6) 0.2490(4)
H2 H 0.3324 -0.0275 0.2368
H3 H 0.1436 -0.0432 0.2367
H4 H 0.2275 0.0375 0.3116
O4 O 0.3571(4) 0.3166(3) 0.5595(2)
O5 O 0.3506(4) -0.0981(3) 0.0245(2)
Tb1 Tb 0.578635(17) 0.201429(13) 0.501333(16)
C4 C 0.2914(5) 0.0979(4) 0.0914(3)
C5 C 0.2407(5) -0.0263(4) 0.0542(3)
C6 C 0.2440(9) 0.1923(5) 0.0215(4)
H5 H 0.2877 0.1691 -0.0365
H6 H 0.2859 0.2716 0.0388
H7 H 0.1281 0.1964 0.0176
C7 C 0.3383(6) 0.4309(4) 0.5760(3)
C8 C 0.4940(8) 0.2198(7) 0.1781(4)
H8 H 0.5757 0.2050 0.2242
H9 H 0.5233 0.2929 0.1437
C9 C 0.2149(7) 0.1274(5) 0.1881(4)
C10 C 0.4745(7) 0.1043(6) 0.1140(4)
H10 H 0.5380 0.1147 0.0590
H11 H 0.5096 0.0296 0.1445
O6 O 0.2068(4) 0.4841(3) 0.5604(3)
C11 C 0.0388(8) 0.1698(9) 0.1853(6)
H12 H -0.0298 0.1007 0.1716
H13 H 0.0262 0.2320 0.1393
H14 H 0.0092 0.2036 0.2433
H15 H 0.419(7) 0.475(5) 0.606(4)
O1A O 0.4082(4) 0.0513(3) 0.5498(2)
O3C O 0.7017(4) 0.2104(3) 0.6384(2)
O4C O 0.8571(4) 0.1834(3) 0.4405(2)
O5B O 0.6494(4) 0.4019(3) 0.4755(2)
Tb1A Tb -0.078635(17) -0.201429(13) 0.001333(16)
Tb1B Tb 0.421365(17) -0.298571(13) -0.001333(16)
Tb1C Tb 0.078635(17) 0.298571(13) 0.498667(16)
O6C O 0.7068(4) 0.0159(3) 0.4396(3)
loop_
_geom_bond_atom_site_label_1
_geom_bond_atom_site_label_2
_geom_bond_site_symmetry_1
_geom_bond_site_symmetry_2
C1 C2 1_555 1_555
C2 H1 1_555 1_555
O1 C5 1_555 1_555
O2 C1 1_555 1_555
O3 C1 1_555 1_555
C3 H2 1_555 1_555
H3 C3 1_555 1_555
H4 C3 1_555 1_555
O4 Tb1 1_555 1_555
O5 C5 1_555 1_555
Tb1 O2 1_555 1_555
C4 C5 1_555 1_555
C6 C4 1_555 1_555
H5 C6 1_555 1_555
H6 C6 1_555 1_555
H7 C6 1_555 1_555
C7 O4 1_555 1_555
C8 C2 1_555 1_555
H8 C8 1_555 1_555
H9 C8 1_555 1_555
C9 C2 1_555 1_555
C10 C4 1_555 1_555
H10 C10 1_555 1_555
H11 C10 1_555 1_555
O6 C7 1_555 1_555
C11 C9 1_555 1_555
H12 C11 1_555 1_555
H13 C11 1_555 1_555
H14 C11 1_555 1_555
H15 C7 1_555 1_555
O1A Tb1 1_555 1_555
O3C Tb1 1_555 1_555
O4C Tb1 1_555 1_555
O5B Tb1 1_555 1_555
Tb1A O1 1_555 1_555
Tb1B O5 1_555 1_555
Tb1C O3 1_555 1_555
O6C Tb1 1_555 1_555
C3 C9 1_555 1_555
O4 Tb1C 1_555 1_555
C4 C9 1_555 1_555
C8 C10 1_555 1_555
O6 Tb1C 1_555 1_555

#END
