
#######################################################################
#
#                 Cambridge Crystallographic Data Centre
#                                CCDC 
#
#######################################################################
#
# If this CIF has been generated from an entry in the Cambridge 
# Structural Database, then it will include bibliographic, chemical, 
# crystal, experimental, refinement or atomic coordinate data resulting 
# from the CCDC's data processing and validation procedures.
#
#######################################################################

data_PESTAK01
_symmetry_cell_setting           orthorhombic
_symmetry_space_group_name_H-M   'P 21 21 21'
_symmetry_Int_Tables_number      19
_space_group_name_Hall           'P 2ac 2ab'
loop_
_symmetry_equiv_pos_site_id
_symmetry_equiv_pos_as_xyz
1 x,y,z
2 1/2-x,-y,1/2+z
3 1/2+x,1/2-y,-z
4 -x,1/2+y,1/2-z
_cell_length_a                   8.1178(5)
_cell_length_b                   10.9087(7)
_cell_length_c                   14.7493(10)
_cell_angle_alpha                90
_cell_angle_beta                 90
_cell_angle_gamma                90
_cell_volume                     1306.12
loop_
_atom_site_label
_atom_site_type_symbol
_atom_site_fract_x
_atom_site_fract_y
_atom_site_fract_z
Er1 Er -0.42633(3) -0.79498(2) -0.49821(2)
C1 C -0.2911(12) -0.4072(8) -0.5946(6)
C2 C -0.2107(11) -0.3810(8) -0.6915(6)
C3 C -0.3194(11) -0.2702(8) -0.7235(6)
H1 H -0.2676 -0.1958 -0.6995
C4 C -0.4928(12) -0.2781(9) -0.6804(6)
H2 H -0.5775 -0.2886 -0.7261
H3 H -0.5173 -0.2058 -0.6445
C5 C -0.4753(11) -0.3979(9) -0.6179(6)
H4 H -0.5406 -0.3894 -0.5632
H5 H -0.5118 -0.4703 -0.6503
C6 C -0.2406(12) -0.5319(9) -0.5577(6)
C7 C -0.2399(12) -0.3145(8) -0.5250(5)
H6 H -0.2903 -0.3339 -0.4679
H7 H -0.2744 -0.2343 -0.5440
H8 H -0.1223 -0.3158 -0.5185
C8 C -0.2288(18) -0.4914(12) -0.7511(8)
H9 H -0.1814 -0.4747 -0.8094
H10 H -0.3435 -0.5106 -0.7581
H11 H -0.1731 -0.5598 -0.7239
C9 C -0.0292(15) -0.3401(11) -0.6897(8)
H12 H 0.0087 -0.3273 -0.7506
H13 H 0.0365 -0.4025 -0.6614
H14 H -0.0195 -0.2651 -0.6561
C10 C -0.3199(9) -0.2581(6) -0.8253(5)
C11 C -0.1703(11) -0.9298(8) -0.5732(6)
H15 H -0.0841 -0.9781 -0.5999
O1 O -0.3545(7) -0.6005(5) -0.5284(4)
O2 O -0.0934(7) -0.5578(5) -0.5532(4)
O3 O -0.1959(7) -0.2152(6) -0.8628(4)
O4 O -0.4467(7) -0.2914(6) -0.8691(4)
O5 O -0.3032(8) -0.9810(6) -0.5550(5)
O6 O -0.1471(6) -0.8180(5) -0.5577(4)
Er1A Er -0.07367(3) -0.20502(2) -0.99821(2)
Er1B Er 0.07367(3) -0.70502(2) -0.50179(2)
Er1C Er -0.57367(3) -0.29498(2) -1.00179(2)
O2B O -0.5934(7) -0.9422(5) -0.4468(4)
O3A O -0.3041(7) -0.7848(6) -0.3628(4)
O4C O -0.5533(7) -0.7914(6) -0.6309(4)
O6B O -0.6471(6) -0.6820(5) -0.4423(4)
loop_
_geom_bond_atom_site_label_1
_geom_bond_atom_site_label_2
_geom_bond_site_symmetry_1
_geom_bond_site_symmetry_2
Er1 O1 1_555 1_555
C1 C2 1_555 1_555
C2 C3 1_555 1_555
C3 H1 1_555 1_555
C4 C3 1_555 1_555
H2 C4 1_555 1_555
H3 C4 1_555 1_555
C5 C1 1_555 1_555
H4 C5 1_555 1_555
H5 C5 1_555 1_555
C6 C1 1_555 1_555
C7 C1 1_555 1_555
H6 C7 1_555 1_555
H7 C7 1_555 1_555
H8 C7 1_555 1_555
C8 C2 1_555 1_555
H9 C8 1_555 1_555
H10 C8 1_555 1_555
H11 C8 1_555 1_555
C9 C2 1_555 1_555
H12 C9 1_555 1_555
H13 C9 1_555 1_555
H14 C9 1_555 1_555
C10 C3 1_555 1_555
C11 H15 1_555 1_555
O1 C6 1_555 1_555
O2 C6 1_555 1_555
O3 C10 1_555 1_555
O4 C10 1_555 1_555
O5 Er1 1_555 1_555
O6 Er1 1_555 1_555
Er1A O3 1_555 1_555
Er1B O2 1_555 1_555
Er1C O4 1_555 1_555
O2B Er1 1_555 1_555
O3A Er1 1_555 1_555
O4C Er1 1_555 1_555
O6B Er1 1_555 1_555
C4 C5 1_555 1_555
C11 O5 1_555 1_555
C11 O6 1_555 1_555
O6 Er1B 1_555 1_555

#END
