
#######################################################################
#
#                 Cambridge Crystallographic Data Centre
#                                CCDC 
#
#######################################################################
#
# If this CIF has been generated from an entry in the Cambridge 
# Structural Database, then it will include bibliographic, chemical, 
# crystal, experimental, refinement or atomic coordinate data resulting 
# from the CCDC's data processing and validation procedures.
#
#######################################################################

data_PESTAK02
_symmetry_cell_setting           orthorhombic
_symmetry_space_group_name_H-M   'P 21 21 21'
_symmetry_Int_Tables_number      19
_space_group_name_Hall           'P 2ac 2ab'
loop_
_symmetry_equiv_pos_site_id
_symmetry_equiv_pos_as_xyz
1 x,y,z
2 1/2-x,-y,1/2+z
3 -x,1/2+y,1/2-z
4 1/2+x,1/2-y,-z
_cell_length_a                   8.1229(3)
_cell_length_b                   10.9348(4)
_cell_length_c                   14.7351(8)
_cell_angle_alpha                90
_cell_angle_beta                 90
_cell_angle_gamma                90
_cell_volume                     1308.81
loop_
_atom_site_label
_atom_site_type_symbol
_atom_site_fract_x
_atom_site_fract_y
_atom_site_fract_z
Er1 Er 0.92589(3) -0.29492(2) 0.49843(3)
O1 O 0.8545(6) -0.1004(4) 0.5291(4)
O2 O 0.5931(6) -0.0591(5) 0.5532(4)
O3 O 1.1464(6) -0.1823(4) 0.4428(4)
C1 C 0.7393(18) 0.0116(9) 0.7506(7)
H1 H 0.6719 -0.0544 0.7291
H2 H 0.7087 0.0317 0.8117
H3 H 0.8529 -0.0126 0.7491
C2 C 0.7421(9) -0.0330(6) 0.5588(5)
C3 C 0.7890(9) 0.0934(6) 0.5944(5)
C4 C 0.723(2) 0.1867(9) 0.5322(11)
H4 H 0.7692 0.1754 0.4729
H5 H 0.7505 0.2666 0.5543
H6 H 0.6051 0.1788 0.5288
C5 C 0.7155(13) 0.1195(10) 0.6919(7)
C6 C 0.9779(13) 0.1017(12) 0.6216(9)
H7 H 1.0475 0.1050 0.5681
H8 H 1.0105 0.0325 0.6586
O4 O 1.3020(7) -0.0187(5) 0.4467(5)
C7 C 1.1665(11) -0.0682(7) 0.4289(7)
C8 C 0.8229(8) 0.2267(6) 0.7228(5)
H9 H 0.7647 0.2992 0.7005
C9 C 0.8221(8) 0.2416(6) 0.8258(5)
O5 O 0.9465(7) 0.2084(6) 0.8686(4)
O6 O 0.6961(7) 0.2843(5) 0.8632(4)
C10 C 0.9883(19) 0.236(2) 0.6823(8)
H10 H 1.0751 0.2354 0.7276
H11 H 0.9998 0.3075 0.6435
C11 C 0.549(3) 0.176(2) 0.6840(11)
H12 H 0.4711 0.1145 0.6659
H13 H 0.5520 0.2398 0.6395
H14 H 0.5173 0.2091 0.7417
H15 H 1.070(10) -0.010(7) 0.398(6)
Er1A Er 0.57411(3) 0.29492(2) 0.99843(3)
Er1B Er 1.07411(3) 0.20508(2) 1.00157(3)
Er1C Er 0.42589(3) -0.20508(2) 0.50157(3)
Er1C_2 Er 1.42589(3) -0.20508(2) 0.50157(3)
O2C O 1.0931(6) -0.4409(5) 0.4468(4)
O3C O 0.6464(6) -0.3177(4) 0.5572(4)
O4C O 0.8020(7) -0.4813(5) 0.5533(5)
O5B O 1.0535(7) -0.2916(6) 0.6314(4)
O6A O 0.8039(7) -0.2843(5) 0.3632(4)
loop_
_geom_bond_atom_site_label_1
_geom_bond_atom_site_label_2
_geom_bond_site_symmetry_1
_geom_bond_site_symmetry_2
Er1 O1 1_555 1_555
O1 C2 1_555 1_555
O2 C2 1_555 1_555
O3 Er1 1_555 1_555
C1 H1 1_555 1_555
H2 C1 1_555 1_555
H3 C1 1_555 1_555
C2 C3 1_555 1_555
C3 C4 1_555 1_555
C4 H4 1_555 1_555
H5 C4 1_555 1_555
H6 C4 1_555 1_555
C5 C1 1_555 1_555
C6 C3 1_555 1_555
H7 C6 1_555 1_555
H8 C6 1_555 1_555
O4 C7 1_555 1_555
C7 O3 1_555 1_555
C8 C5 1_555 1_555
H9 C8 1_555 1_555
C9 C8 1_555 1_555
O5 C9 1_555 1_555
O6 C9 1_555 1_555
C10 C6 1_555 1_555
H10 C10 1_555 1_555
H11 C10 1_555 1_555
C11 C5 1_555 1_555
H12 C11 1_555 1_555
H13 C11 1_555 1_555
H14 C11 1_555 1_555
H15 C7 1_555 1_555
Er1A O6 1_555 1_555
Er1B O5 1_555 1_555
Er1C O2 1_555 1_555
Er1C_2 O3 1_555 1_555
O2C Er1 1_555 1_555
O3C Er1 1_555 1_555
O4C Er1 1_555 1_555
O5B Er1 1_555 1_555
O6A Er1 1_555 1_555
C3 C5 1_555 1_555
O4 Er1C_2 1_555 1_555
C8 C10 1_555 1_555
Er1C O3C 1_555 1_555

#END
