
#######################################################################
#
#                 Cambridge Crystallographic Data Centre
#                                CCDC 
#
#######################################################################
#
# If this CIF has been generated from an entry in the Cambridge 
# Structural Database, then it will include bibliographic, chemical, 
# crystal, experimental, refinement or atomic coordinate data resulting 
# from the CCDC's data processing and validation procedures.
#
#######################################################################

data_PESTAK
_symmetry_cell_setting           orthorhombic
_symmetry_space_group_name_H-M   'P 21 21 21'
_symmetry_Int_Tables_number      19
_space_group_name_Hall           'P 2ac 2ab'
loop_
_symmetry_equiv_pos_site_id
_symmetry_equiv_pos_as_xyz
1 x,y,z
2 1/2-x,-y,1/2+z
3 -x,1/2+y,1/2-z
4 1/2+x,1/2-y,-z
_cell_length_a                   8.1149(16)
_cell_length_b                   10.823(2)
_cell_length_c                   14.712(3)
_cell_angle_alpha                90
_cell_angle_beta                 90
_cell_angle_gamma                90
_cell_volume                     1292.12
loop_
_atom_site_label
_atom_site_type_symbol
_atom_site_fract_x
_atom_site_fract_y
_atom_site_fract_z
C1 C 0.2310(19) 0.5132(11) 0.7503(7)
H1 H 0.1376 0.4601 0.7589
H2 H 0.3300 0.4693 0.7656
H3 H 0.2358 0.5391 0.6879
C2 C 0.3244(11) 0.7443(8) 0.6751(6)
C3 C 0.3260(11) 0.7326(8) 0.7781(6)
H4 H 0.2723 0.8078 0.8006
C4 C 0.2412(12) 0.4705(8) 0.9440(6)
C5 C 0.3366(11) 0.9305(9) 0.4265(6)
C6 C 0.2923(11) 0.5974(8) 0.9071(6)
C7 C 0.490(2) 0.732(2) 0.8206(9)
H5 H 0.5079 0.8049 0.8577
H6 H 0.5772 0.7261 0.7755
C8 C 0.4790(15) 0.6053(13) 0.8834(8)
H7 H 0.5146 0.5333 0.8494
H8 H 0.5456 0.6128 0.9379
C9 C 0.046(3) 0.681(3) 0.8152(13)
H9 H 0.0064 0.6969 0.7548
H10 H 0.0508 0.7569 0.8486
H11 H -0.0280 0.6247 0.8452
C10 C 0.2146(15) 0.6245(12) 0.8104(7)
C11 C 0.2428(19) 0.6894(11) 0.9769(8)
H12 H 0.1248 0.6911 0.9817
H13 H 0.2821 0.7697 0.9596
H14 H 0.2895 0.6669 1.0345
Er1 Er 0.07655(3) 0.79670(3) 0.50159(3)
O1 O 0.4497(8) 0.7085(6) 0.6323(4)
O2 O 0.3556(7) 0.8155(6) 0.4412(4)
O3 O 0.0911(8) 0.4453(6) 0.9479(5)
O4 O 0.1987(8) 0.7891(7) 0.6371(4)
O5 O 0.3540(7) 0.4010(6) 0.9734(4)
O6 O 0.2023(8) 0.9823(6) 0.4439(5)
H15 H 0.4174 0.9733 0.3974
Er1A Er 0.42345(3) 0.20330(3) 1.00159(3)
Er1B Er -0.07655(3) 0.29670(3) 0.99841(3)
Er1C Er 0.57655(3) 0.70330(3) 0.49841(3)
O1C O -0.0503(8) 0.7915(6) 0.3677(4)
O2C O -0.1444(7) 0.6845(6) 0.5588(4)
O3B O -0.0911(8) 0.9453(6) 0.5521(5)
O5A O 0.1460(7) 0.5990(6) 0.4734(4)
loop_
_geom_bond_atom_site_label_1
_geom_bond_atom_site_label_2
_geom_bond_site_symmetry_1
_geom_bond_site_symmetry_2
C1 H1 1_555 1_555
H2 C1 1_555 1_555
H3 C1 1_555 1_555
C2 C3 1_555 1_555
C3 H4 1_555 1_555
C4 C6 1_555 1_555
C5 O2 1_555 1_555
C6 C8 1_555 1_555
C7 C3 1_555 1_555
H5 C7 1_555 1_555
H6 C7 1_555 1_555
C8 C7 1_555 1_555
H7 C8 1_555 1_555
H8 C8 1_555 1_555
C9 H9 1_555 1_555
H10 C9 1_555 1_555
H11 C9 1_555 1_555
C10 C1 1_555 1_555
C11 C6 1_555 1_555
H12 C11 1_555 1_555
H13 C11 1_555 1_555
H14 C11 1_555 1_555
Er1 O2 1_555 1_555
O1 C2 1_555 1_555
O2 Er1C 1_555 1_555
O3 C4 1_555 1_555
O4 C2 1_555 1_555
O5 C4 1_555 1_555
O6 C5 1_555 1_555
H15 C5 1_555 1_555
Er1A O5 1_555 1_555
Er1B O3 1_555 1_555
Er1C O1 1_555 1_555
O1C Er1 1_555 1_555
O2C Er1 1_555 1_555
O3B Er1 1_555 1_555
O5A Er1 1_555 1_555
C3 C10 1_555 1_555
C6 C10 1_555 1_555
C9 C10 1_555 1_555
Er1 O4 1_555 1_555
Er1 O6 1_555 1_555

#END
