
#######################################################################
#
#                 Cambridge Crystallographic Data Centre
#                                CCDC 
#
#######################################################################
#
# If this CIF has been generated from an entry in the Cambridge 
# Structural Database, then it will include bibliographic, chemical, 
# crystal, experimental, refinement or atomic coordinate data resulting 
# from the CCDC's data processing and validation procedures.
#
#######################################################################

data_PETDIB
_symmetry_cell_setting           monoclinic
_symmetry_space_group_name_H-M   'P 21/n'
_symmetry_Int_Tables_number      14
_space_group_name_Hall           '-P 2yn'
loop_
_symmetry_equiv_pos_site_id
_symmetry_equiv_pos_as_xyz
1 x,y,z
2 1/2-x,1/2+y,1/2-z
3 -x,-y,-z
4 1/2+x,1/2-y,1/2+z
_cell_length_a                   9.307(1)
_cell_length_b                   8.097(1)
_cell_length_c                   21.535(2)
_cell_angle_alpha                90
_cell_angle_beta                 102.43(1)
_cell_angle_gamma                90
_cell_volume                     1584.81
loop_
_atom_site_label
_atom_site_type_symbol
_atom_site_fract_x
_atom_site_fract_y
_atom_site_fract_z
Cd1 Cd 0.0616(2) -0.8094(2) 0.1391(1)
S1 S 0.0616(5) -0.6653(6) 0.2459(2)
S2 S -0.1404(5) -0.5851(7) 0.1239(2)
N1 N -0.1235(15) -0.4150(17) 0.2317(7)
C1 C 0.0752(21) -1.0577(20) 0.1057(10)
C2 C -0.0757(17) -0.5413(22) 0.2042(8)
C3 C -0.2334(19) -0.3081(23) 0.1938(9)
C4 C -0.0751(17) -0.3770(23) 0.2988(8)
C5 C 0.0546(19) -0.2593(20) 0.3081(8)
C6 C 0.1124(19) -0.2312(22) 0.3796(8)
N2 N 0.2521(15) -0.1396(16) 0.3939(6)
C7 C 0.2419(20) 0.0257(20) 0.3641(9)
C8 C 0.2990(21) -0.1250(25) 0.4618(8)
H1 H -0.2308(19) -0.3202(23) 0.1497(9)
H2 H -0.2131(19) -0.1953(23) 0.2064(9)
H3 H -0.3291(19) -0.3381(23) 0.2000(9)
H4 H 0.2110(20) 0.0141(20) 0.3188(9)
H5 H 0.3365(20) 0.0784(20) 0.3742(9)
H6 H 0.1717(20) 0.0917(20) 0.3798(9)
H7 H 0.3053(21) -0.2325(25) 0.4809(8)
H8 H 0.2290(21) -0.0593(25) 0.4777(8)
H9 H 0.3937(21) -0.0726(25) 0.4721(8)
H10 H -0.1787(43) -0.3429(71) 0.3002(49)
H11 H -0.0158(63) -0.4758(56) 0.3183(42)
H12 H 0.0268(63) -0.1564(52) 0.2830(32)
H13 H 0.1523(52) -0.2783(74) 0.2962(44)
H14 H 0.0375(56) -0.1654(64) 0.3965(37)
N2A N 0.2479(15) -0.6396(16) 0.1061(6)
Cd1A Cd 0.4384(2) -0.3094(2) 0.3609(1)
C9 C 0.1282(23) -0.4770(32) 0.5422(10)
C10 C 0.1144(25) -0.6092(30) 0.5055(11)
C11 C 0.0121(31) -0.3668(25) 0.5378(11)
H15 H 0.2228(52) -0.4173(69) 0.5618(51)
H16 H 0.1924(58) -0.6853(65) 0.4956(44)
H17 H 0.0364(67) -0.2583(53) 0.5616(36)
C11B C -0.0121(31) -0.6332(25) 0.4622(11)
C10B C -0.1144(25) -0.3908(30) 0.4945(11)
C9B C -0.1282(23) -0.5230(32) 0.4578(10)
H17B H -0.0364(67) -0.7417(53) 0.4384(36)
H16B H -0.1924(58) -0.3147(65) 0.5044(44)
H15B H -0.2228(52) -0.5827(69) 0.4382(51)
loop_
_geom_bond_atom_site_label_1
_geom_bond_atom_site_label_2
_geom_bond_site_symmetry_1
_geom_bond_site_symmetry_2
Cd1 S1 1_555 1_555
S1 C2 1_555 1_555
S2 Cd1 1_555 1_555
N1 C2 1_555 1_555
C1 Cd1 1_555 1_555
C2 S2 1_555 1_555
C3 N1 1_555 1_555
C4 N1 1_555 1_555
C5 C4 1_555 1_555
C6 C5 1_555 1_555
N2 C6 1_555 1_555
C7 N2 1_555 1_555
C8 N2 1_555 1_555
C9 C10 1_555 1_555
C10 H16 1_555 1_555
C11 C9 1_555 1_555
H1 C3 1_555 1_555
H2 C3 1_555 1_555
H3 C3 1_555 1_555
H4 C7 1_555 1_555
H5 C7 1_555 1_555
H6 C7 1_555 1_555
H7 C8 1_555 1_555
H8 C8 1_555 1_555
H9 C8 1_555 1_555
H10 C4 1_555 1_555
H11 C4 1_555 1_555
H12 C5 1_555 1_555
H13 C5 1_555 1_555
H14 C6 1_555 1_555
H15 C9 1_555 1_555
H17 C11 1_555 1_555
N2A Cd1 1_555 1_555
Cd1A N2 1_555 1_555
C11B C10 1_555 1_555
C10B C11 1_555 1_555
C9B C11B 1_555 1_555
H17B C11B 1_555 1_555
H16B C10B 1_555 1_555
H15B C9B 1_555 1_555
C10B C9B 1_555 1_555

#END
