
#######################################################################
#
#                 Cambridge Crystallographic Data Centre
#                                CCDC 
#
#######################################################################
#
# If this CIF has been generated from an entry in the Cambridge 
# Structural Database, then it will include bibliographic, chemical, 
# crystal, experimental, refinement or atomic coordinate data resulting 
# from the CCDC's data processing and validation procedures.
#
#######################################################################

data_PETHOL
_symmetry_cell_setting           triclinic
_symmetry_space_group_name_H-M   'P -1'
_symmetry_Int_Tables_number      2
_space_group_name_Hall           '-P 1'
loop_
_symmetry_equiv_pos_site_id
_symmetry_equiv_pos_as_xyz
1 x,y,z
2 -x,-y,-z
_cell_length_a                   8.069(1)
_cell_length_b                   8.672(2)
_cell_length_c                   10.751(1)
_cell_angle_alpha                109.91(2)
_cell_angle_beta                 102.04(1)
_cell_angle_gamma                90.20(9)
_cell_volume                     689.493
loop_
_atom_site_label
_atom_site_type_symbol
_atom_site_fract_x
_atom_site_fract_y
_atom_site_fract_z
Mn1 Mn 0.21273(11) -0.52854(10) 0.35524(8)
P1 P 0.43311(18) -0.76030(17) 0.48961(14)
P2 P 0.19333(18) -0.34902(17) 0.67724(13)
O1 O 0.29096(47) -0.71460(43) 0.39192(37)
O2 O 0.16453(45) -0.40874(46) 0.52421(34)
O3 O 0.53231(44) -0.60468(42) 0.59487(35)
O4 O 0.33929(47) -0.84951(44) 0.56413(36)
O5 O 0.54162(49) -0.88247(42) 0.41140(38)
O6 O 0.03893(45) -0.35592(46) 0.73195(34)
O7 O 0.26930(54) -0.16621(45) 0.73177(39)
O8 O 0.32920(51) -0.44868(49) 0.73413(36)
N1 N 0.26084(55) -0.61978(52) 0.16574(42)
N2 N 0.13723(57) -0.34540(53) 0.28113(45)
C1 C 0.31843(76) -0.76731(69) 0.11152(58)
C2 C 0.35480(87) -0.81774(85) -0.01561(64)
C3 C 0.33260(95) -0.7147(11) -0.08850(65)
C4 C 0.27477(86) -0.56209(88) -0.03391(63)
C5 C 0.23749(72) -0.51709(71) 0.09330(53)
C6 C 0.17138(72) -0.35990(70) 0.16051(57)
C7 C 0.13953(89) -0.23700(88) 0.10488(71)
C8 C 0.07448(96) -0.09572(88) 0.17905(91)
C9 C 0.03833(98) -0.08445(80) 0.30056(77)
C10 C 0.07079(84) -0.20925(73) 0.35006(62)
H1 H 0.3065 -0.8550 0.1653
H2 H 0.3775 -0.9497 -0.0414
H3 H 0.3640 -0.7417 -0.1784
H4 H 0.2893 -0.4619 -0.0815
H5 H 0.1683 -0.2615 0.0109
H6 H 0.0547 -0.0054 0.1456
H7 H -0.0122 0.0125 0.3521
H8 H 0.0090 -0.2241 0.4354
O3A O 0.46769(44) -0.39532(42) 0.40513(35)
O6A O -0.03893(45) -0.64408(46) 0.26805(34)
Mn1A Mn 0.78727(11) -0.47146(10) 0.64476(8)
Mn1A_2 Mn -0.21273(11) -0.47146(10) 0.64476(8)
loop_
_geom_bond_atom_site_label_1
_geom_bond_atom_site_label_2
_geom_bond_site_symmetry_1
_geom_bond_site_symmetry_2
Mn1 O1 1_555 1_555
P1 O1 1_555 1_555
P2 O2 1_555 1_555
O2 Mn1 1_555 1_555
O3 P1 1_555 1_555
O4 P1 1_555 1_555
O5 P1 1_555 1_555
O6 P2 1_555 1_555
O7 P2 1_555 1_555
O8 P2 1_555 1_555
N1 Mn1 1_555 1_555
N2 Mn1 1_555 1_555
C1 N1 1_555 1_555
C2 C1 1_555 1_555
C3 C2 1_555 1_555
C4 C3 1_555 1_555
C5 N1 1_555 1_555
C6 N2 1_555 1_555
C7 C6 1_555 1_555
C8 C7 1_555 1_555
C9 C8 1_555 1_555
C10 N2 1_555 1_555
H1 C1 1_555 1_555
H2 C2 1_555 1_555
H3 C3 1_555 1_555
H4 C4 1_555 1_555
H5 C7 1_555 1_555
H6 C8 1_555 1_555
H7 C9 1_555 1_555
H8 C10 1_555 1_555
O3A Mn1 1_555 1_555
O6A Mn1 1_555 1_555
Mn1A O3 1_555 1_555
Mn1A_2 O6 1_555 1_555
C4 C5 1_555 1_555
C5 C6 1_555 1_555
C9 C10 1_555 1_555

#END
