
#######################################################################
#
#                 Cambridge Crystallographic Data Centre
#                                CCDC 
#
#######################################################################
#
# If this CIF has been generated from an entry in the Cambridge 
# Structural Database, then it will include bibliographic, chemical, 
# crystal, experimental, refinement or atomic coordinate data resulting 
# from the CCDC's data processing and validation procedures.
#
#######################################################################

data_PETSEO
_symmetry_cell_setting           triclinic
_symmetry_space_group_name_H-M   'P -1'
_symmetry_Int_Tables_number      2
_space_group_name_Hall           '-P 1'
loop_
_symmetry_equiv_pos_site_id
_symmetry_equiv_pos_as_xyz
1 x,y,z
2 -x,-y,-z
_cell_length_a                   10.901(2)
_cell_length_b                   11.999(2)
_cell_length_c                   12.111(2)
_cell_angle_alpha                64.14(3)
_cell_angle_beta                 81.38(3)
_cell_angle_gamma                65.58(3)
_cell_volume                     1297.08
loop_
_atom_site_label
_atom_site_type_symbol
_atom_site_fract_x
_atom_site_fract_y
_atom_site_fract_z
Cd1 Cd 0.07523(2) 0.11431(2) -0.12433(2)
O1 O -0.1284(2) 0.1886(2) -0.2225(2)
O2 O -0.0873(2) 0.3473(2) -0.2113(3)
O3 O -0.0654(2) 0.0937(2) 0.0702(2)
O4 O 0.1000(2) 0.1633(3) 0.0359(2)
N1 N -0.5566(3) 0.5908(3) -0.4061(3)
N2 N -0.0552(3) 0.1787(3) 0.4427(2)
N3 N 0.1931(3) 0.1658(3) -0.3075(3)
N4 N 0.3076(3) -0.0146(3) -0.0797(3)
C1 C -0.4754(3) 0.4991(3) -0.4453(3)
C2 C -0.3490(3) 0.4021(3) -0.3878(3)
H1 H -0.2976 0.3362 -0.4157
C3 C -0.3023(3) 0.4051(3) -0.2916(3)
C4 C -0.3867(3) 0.5025(3) -0.2462(3)
C5 C -0.3521(4) 0.5137(4) -0.1447(4)
H2 H -0.2678 0.4576 -0.1053
C6 C -0.4417(4) 0.6061(4) -0.1040(4)
H3 H -0.4186 0.6105 -0.0356
C7 C -0.5674(4) 0.6942(4) -0.1635(4)
H4 H -0.6269 0.7577 -0.1356
C8 C -0.6024(4) 0.6867(4) -0.2620(4)
H5 H -0.6863 0.7456 -0.3012
C9 C -0.5142(3) 0.5916(3) -0.3063(3)
C10 C -0.1627(3) 0.3080(4) -0.2379(3)
C11 C -0.0135(3) 0.0599(3) 0.4393(3)
C12 C 0.0058(3) 0.0421(3) 0.3291(3)
H6 H 0.0335 -0.0435 0.3318
C13 C -0.0163(3) 0.1510(3) 0.2188(3)
C14 C -0.0612(3) 0.2807(3) 0.2178(3)
C15 C -0.0898(3) 0.4001(3) 0.1096(3)
H7 H -0.0783 0.3965 0.0334
C16 C -0.1342(4) 0.5210(4) 0.1164(4)
H8 H -0.1528 0.5993 0.0443
C17 C -0.1522(4) 0.5296(4) 0.2288(4)
H9 H -0.1813 0.6132 0.2312
C18 C -0.1277(4) 0.4172(3) 0.3353(3)
H10 H -0.1424 0.4243 0.4101
C19 C -0.0797(3) 0.2885(3) 0.3330(3)
C20 C 0.0089(3) 0.1336(3) 0.1007(3)
C21 C 0.1370(5) 0.2508(5) -0.4173(4)
H11 H 0.0437 0.2950 -0.4247
C22 C 0.2114(6) 0.2780(6) -0.5235(5)
H12 H 0.1682 0.3388 -0.5997
C23 C 0.3460(6) 0.2148(6) -0.5134(5)
H13 H 0.3964 0.2303 -0.5836
C24 C 0.4121(5) 0.1254(5) -0.3981(5)
C25 C 0.5542(5) 0.0591(6) -0.3775(6)
H14 H 0.6094 0.0757 -0.4441
C26 C 0.6112(5) -0.0262(5) -0.2657(6)
H15 H 0.7046 -0.0675 -0.2560
C27 C 0.5302(4) -0.0548(4) -0.1607(5)
C28 C 0.5844(4) -0.1456(4) -0.0434(5)
H16 H 0.6774 -0.1891 -0.0302
C29 C 0.5021(4) -0.1716(4) 0.0526(5)
H17 H 0.5381 -0.2336 0.1311
C30 C 0.3615(4) -0.1030(4) 0.0311(4)
H18 H 0.3050 -0.1203 0.0965
C31 C 0.3287(4) 0.1028(4) -0.2952(4)
C32 C 0.3896(3) 0.0092(3) -0.1758(4)
O1A O -0.8716(2) 0.8114(2) -0.7775(2)
O2A O -0.9127(2) 0.6527(2) -0.7887(3)
N1A N -0.4434(3) 0.4092(3) -0.5939(3)
C1A C -0.5246(3) 0.5009(3) -0.5547(3)
C2A C -0.6510(3) 0.5979(3) -0.6122(3)
H1A H -0.7024 0.6638 -0.5843
C3A C -0.6977(3) 0.5949(3) -0.7084(3)
C4A C -0.6133(3) 0.4975(3) -0.7538(3)
C5A C -0.6479(4) 0.4863(4) -0.8553(4)
H2A H -0.7322 0.5424 -0.8947
C6A C -0.5583(4) 0.3939(4) -0.8960(4)
H3A H -0.5814 0.3895 -0.9644
C7A C -0.4326(4) 0.3058(4) -0.8365(4)
H4A H -0.3731 0.2423 -0.8644
C8A C -0.3976(4) 0.3133(4) -0.7380(4)
H5A H -0.3137 0.2544 -0.6988
C9A C -0.4858(3) 0.4084(3) -0.6937(3)
C10A C -0.8373(3) 0.6920(4) -0.7621(3)
O3A O 0.0654(2) -0.0937(2) 0.9298(2)
O4A O -0.1000(2) -0.1633(3) 0.9641(2)
N2A N 0.0552(3) -0.1787(3) 0.5573(2)
C11A C 0.0135(3) -0.0599(3) 0.5607(3)
C12A C -0.0058(3) -0.0421(3) 0.6709(3)
H6A H -0.0335 0.0435 0.6682
C13A C 0.0163(3) -0.1510(3) 0.7812(3)
C14A C 0.0612(3) -0.2807(3) 0.7822(3)
C15A C 0.0898(3) -0.4001(3) 0.8904(3)
H7A H 0.0783 -0.3965 0.9666
C16A C 0.1342(4) -0.5210(4) 0.8836(4)
H8A H 0.1528 -0.5993 0.9557
C17A C 0.1522(4) -0.5296(4) 0.7712(4)
H9A H 0.1813 -0.6132 0.7688
C18A C 0.1277(4) -0.4172(3) 0.6647(3)
H10A H 0.1424 -0.4243 0.5899
C19A C 0.0797(3) -0.2885(3) 0.6670(3)
C20A C -0.0089(3) -0.1336(3) 0.8993(3)
Cd1A Cd -1.07523(2) 0.88569(2) -0.87567(2)
N3A N -1.1931(3) 0.8342(3) -0.6925(3)
N4A N -1.3076(3) 1.0146(3) -0.9203(3)
C21A C -1.1370(5) 0.7492(5) -0.5827(4)
H11A H -1.0437 0.7050 -0.5753
C22A C -1.2114(6) 0.7220(6) -0.4765(5)
H12A H -1.1682 0.6612 -0.4003
C23A C -1.3460(6) 0.7852(6) -0.4866(5)
H13A H -1.3964 0.7697 -0.4164
C24A C -1.4121(5) 0.8746(5) -0.6019(5)
C25A C -1.5542(5) 0.9409(6) -0.6225(6)
H14A H -1.6094 0.9243 -0.5559
C26A C -1.6112(5) 1.0262(5) -0.7343(6)
H15A H -1.7046 1.0675 -0.7440
C27A C -1.5302(4) 1.0548(4) -0.8393(5)
C28A C -1.5844(4) 1.1456(4) -0.9566(5)
H16A H -1.6774 1.1891 -0.9698
C29A C -1.5021(4) 1.1716(4) -1.0526(5)
H17A H -1.5381 1.2336 -1.1311
C30A C -1.3615(4) 1.1030(4) -1.0311(4)
H18A H -1.3050 1.1203 -1.0965
C31A C -1.3287(4) 0.8972(4) -0.7048(4)
C32A C -1.3896(3) 0.9908(3) -0.8242(4)
Cd1_2 Cd 0.07523(2) 0.11431(2) 0.87567(2)
Cd1A_2 Cd -0.07523(2) -0.11431(2) 0.12433(2)
Cd1A_3 Cd -0.07523(2) -0.11431(2) 1.12433(2)
O3_2 O -1.0654(2) 1.0937(2) -0.9298(2)
O3A_2 O -0.9346(2) 0.9063(2) -1.0702(2)
O3A_3 O 0.0654(2) -0.0937(2) -0.0702(2)
O4A_2 O -1.1000(2) 0.8367(3) -1.0359(2)
loop_
_geom_bond_atom_site_label_1
_geom_bond_atom_site_label_2
_geom_bond_site_symmetry_1
_geom_bond_site_symmetry_2
Cd1 O1 1_555 1_555
O1 C10 1_555 1_555
O2 Cd1 1_555 1_555
O3 Cd1 1_555 1_555
O4 Cd1 1_555 1_555
N1 C1 1_555 1_555
N2 C11 1_555 1_555
N3 Cd1 1_555 1_555
N4 Cd1 1_555 1_555
C1 C2 1_555 1_555
C2 H1 1_555 1_555
C3 C2 1_555 1_555
C4 C3 1_555 1_555
C5 C4 1_555 1_555
H2 C5 1_555 1_555
C6 C5 1_555 1_555
H3 C6 1_555 1_555
C7 C6 1_555 1_555
H4 C7 1_555 1_555
C8 C7 1_555 1_555
H5 C8 1_555 1_555
C9 N1 1_555 1_555
C10 O2 1_555 1_555
C11 C12 1_555 1_555
C12 H6 1_555 1_555
C13 C12 1_555 1_555
C14 C13 1_555 1_555
C15 C14 1_555 1_555
H7 C15 1_555 1_555
C16 C15 1_555 1_555
H8 C16 1_555 1_555
C17 C16 1_555 1_555
H9 C17 1_555 1_555
C18 C17 1_555 1_555
H10 C18 1_555 1_555
C19 N2 1_555 1_555
C20 O3 1_555 1_555
C21 N3 1_555 1_555
H11 C21 1_555 1_555
C22 C21 1_555 1_555
H12 C22 1_555 1_555
C23 C22 1_555 1_555
H13 C23 1_555 1_555
C24 C23 1_555 1_555
C25 C24 1_555 1_555
H14 C25 1_555 1_555
C26 C25 1_555 1_555
H15 C26 1_555 1_555
C27 C26 1_555 1_555
C28 C27 1_555 1_555
H16 C28 1_555 1_555
C29 C28 1_555 1_555
H17 C29 1_555 1_555
C30 N4 1_555 1_555
H18 C30 1_555 1_555
C31 N3 1_555 1_555
C32 N4 1_555 1_555
O1A C10A 1_555 1_555
O2A C10A 1_555 1_555
N1A C1A 1_555 1_555
C1A C1 1_555 1_555
C2A C1A 1_555 1_555
H1A C2A 1_555 1_555
C3A C2A 1_555 1_555
C4A C3A 1_555 1_555
C5A C4A 1_555 1_555
H2A C5A 1_555 1_555
C6A C5A 1_555 1_555
H3A C6A 1_555 1_555
C7A C6A 1_555 1_555
H4A C7A 1_555 1_555
C8A C7A 1_555 1_555
H5A C8A 1_555 1_555
C9A N1A 1_555 1_555
C10A C3A 1_555 1_555
O3A C20A 1_555 1_555
O4A C20A 1_555 1_555
N2A C11A 1_555 1_555
C11A C11 1_555 1_555
C12A C11A 1_555 1_555
H6A C12A 1_555 1_555
C13A C12A 1_555 1_555
C14A C13A 1_555 1_555
C15A C14A 1_555 1_555
H7A C15A 1_555 1_555
C16A C15A 1_555 1_555
H8A C16A 1_555 1_555
C17A C16A 1_555 1_555
H9A C17A 1_555 1_555
C18A C17A 1_555 1_555
H10A C18A 1_555 1_555
C19A N2A 1_555 1_555
C20A C13A 1_555 1_555
Cd1A O1A 1_555 1_555
N3A Cd1A 1_555 1_555
N4A Cd1A 1_555 1_555
C21A N3A 1_555 1_555
H11A C21A 1_555 1_555
C22A C21A 1_555 1_555
H12A C22A 1_555 1_555
C23A C22A 1_555 1_555
H13A C23A 1_555 1_555
C24A C23A 1_555 1_555
C25A C24A 1_555 1_555
H14A C25A 1_555 1_555
C26A C25A 1_555 1_555
H15A C26A 1_555 1_555
C27A C26A 1_555 1_555
C28A C27A 1_555 1_555
H16A C28A 1_555 1_555
C29A C28A 1_555 1_555
H17A C29A 1_555 1_555
C30A N4A 1_555 1_555
H18A C30A 1_555 1_555
C31A N3A 1_555 1_555
C32A N4A 1_555 1_555
Cd1_2 O3A 1_555 1_555
Cd1A_2 O3 1_555 1_555
Cd1A_3 O3A 1_555 1_555
O3_2 Cd1A 1_555 1_555
O3A_2 Cd1A 1_555 1_555
O3A_3 Cd1 1_555 1_555
O4A_2 Cd1A 1_555 1_555
O4 C20 1_555 1_555
C3 C10 1_555 1_555
C4 C9 1_555 1_555
C8 C9 1_555 1_555
C13 C20 1_555 1_555
C14 C19 1_555 1_555
C18 C19 1_555 1_555
C24 C31 1_555 1_555
C27 C32 1_555 1_555
C29 C30 1_555 1_555
C31 C32 1_555 1_555
O2A Cd1A 1_555 1_555
C4A C9A 1_555 1_555
C8A C9A 1_555 1_555
O4A Cd1A_3 1_555 1_555
C14A C19A 1_555 1_555
C18A C19A 1_555 1_555
C24A C31A 1_555 1_555
C27A C32A 1_555 1_555
C29A C30A 1_555 1_555
C31A C32A 1_555 1_555
Cd1A_2 O3A_3 1_555 1_555

#END
