
#######################################################################
#
#                 Cambridge Crystallographic Data Centre
#                                CCDC 
#
#######################################################################
#
# If this CIF has been generated from an entry in the Cambridge 
# Structural Database, then it will include bibliographic, chemical, 
# crystal, experimental, refinement or atomic coordinate data resulting 
# from the CCDC's data processing and validation procedures.
#
#######################################################################

data_PETVOB
_symmetry_cell_setting           triclinic
_symmetry_space_group_name_H-M   'P -1'
_symmetry_Int_Tables_number      2
_space_group_name_Hall           '-P 1'
loop_
_symmetry_equiv_pos_site_id
_symmetry_equiv_pos_as_xyz
1 x,y,z
2 -x,-y,-z
_cell_length_a                   8.8542(11)
_cell_length_b                   10.5788(13)
_cell_length_c                   10.9170(13)
_cell_angle_alpha                108.0800(10)
_cell_angle_beta                 92.0990(10)
_cell_angle_gamma                92.3150(10)
_cell_volume                     969.976
loop_
_atom_site_label
_atom_site_type_symbol
_atom_site_fract_x
_atom_site_fract_y
_atom_site_fract_z
Cd1 Cd 0.319410(19) -0.168229(16) 0.136139(15)
N1 N 0.3825(3) -0.2705(2) -0.0737(2)
N2 N 0.5612(2) -0.1419(2) 0.22703(19)
O1 O 0.2069(3) 0.00200(19) 0.06422(18)
O2 O 0.2774(2) 0.04288(19) 0.26752(17)
O3 O 0.1014(3) 0.7219(2) 0.1504(2)
O4 O 0.2605(3) 0.7189(3) 0.3052(3)
C1 C 0.2168(3) 0.0783(2) 0.1782(2)
C2 C 0.1548(3) 0.2139(2) 0.2109(2)
C3 C 0.0838(3) 0.2575(3) 0.1165(3)
H1 H 0.0692 0.1999 0.0326
C4 C 0.0348(3) 0.3853(3) 0.1462(3)
H2 H -0.0117 0.4132 0.0820
C5 C 0.0546(3) 0.4733(2) 0.2718(3)
C6 C 0.1203(3) 0.4279(3) 0.3660(3)
H3 H 0.1312 0.4842 0.4506
C7 C 0.1700(3) 0.2999(3) 0.3366(2)
H4 H 0.2140 0.2713 0.4014
C8 C 0.0134(3) 0.6169(3) 0.3007(3)
H5 H 0.0079 0.6578 0.3931
H6 H -0.0847 0.6206 0.2598
C9 C 0.1340(3) 0.6914(2) 0.2495(3)
C10 C 0.3214(4) -0.2312(3) -0.1688(3)
H7 H 0.2574 -0.1609 -0.1468
C11 C 0.3476(4) -0.2883(4) -0.2967(3)
H8 H 0.3031 -0.2556 -0.3583
C12 C 0.4389(4) -0.3932(4) -0.3337(3)
C13 C 0.5039(4) -0.4357(4) -0.2368(4)
H9 H 0.5668 -0.5068 -0.2572
C14 C 0.4743(4) -0.3710(3) -0.1084(3)
H10 H 0.5205 -0.3992 -0.0443
C15 C 0.4644(4) -0.4492(4) -0.4749(4)
H11 H 0.4244 -0.4051 -0.5292
C16 C 0.6836(3) -0.1118(3) 0.1709(2)
H12 H 0.6754 -0.1206 0.0834
C17 C 0.8211(3) -0.0684(3) 0.2372(2)
H13 H 0.9030 -0.0489 0.1939
C18 C 0.8382(3) -0.0536(2) 0.3676(2)
C19 C 0.7099(3) -0.0843(3) 0.4263(2)
H14 H 0.7146 -0.0755 0.5138
C20 C 0.5770(3) -0.1277(3) 0.3535(3)
H15 H 0.4933 -0.1485 0.3941
C21 C 0.9852(3) -0.0083(3) 0.4381(2)
H16 H 1.0643 0.0102 0.3914
N1A N 0.6175(3) -0.7295(2) -0.9263(2)
C10A C 0.6786(4) -0.7688(3) -0.8312(3)
H7A H 0.7426 -0.8391 -0.8532
C11A C 0.6524(4) -0.7117(4) -0.7033(3)
H8A H 0.6969 -0.7444 -0.6417
C12A C 0.5611(4) -0.6068(4) -0.6663(3)
C13A C 0.4961(4) -0.5643(4) -0.7632(4)
H9A H 0.4332 -0.4932 -0.7428
C14A C 0.5257(4) -0.6290(3) -0.8916(3)
H10A H 0.4795 -0.6008 -0.9557
C15A C 0.5356(4) -0.5508(4) -0.5251(4)
H11A H 0.5756 -0.5949 -0.4708
N2A N 1.4388(2) 0.1419(2) 0.77297(19)
C16A C 1.3164(3) 0.1118(3) 0.8291(2)
H12A H 1.3246 0.1206 0.9166
C17A C 1.1789(3) 0.0684(3) 0.7628(2)
H13A H 1.0970 0.0489 0.8061
C18A C 1.1618(3) 0.0536(2) 0.6324(2)
C19A C 1.2901(3) 0.0843(3) 0.5737(2)
H14A H 1.2854 0.0755 0.4862
C20A C 1.4230(3) 0.1277(3) 0.6465(3)
H15A H 1.5067 0.1485 0.6059
C21A C 1.0148(3) 0.0083(3) 0.5619(2)
H16A H 0.9357 -0.0102 0.6086
Cd1A Cd 0.680590(19) -0.831771(16) -1.136139(15)
O1A O 0.7931(3) -1.00200(19) -1.06422(18)
O2A O 0.7226(2) -1.04288(19) -1.26752(17)
O3A O 0.8986(3) -1.7219(2) -1.1504(2)
O4A O 0.7395(3) -1.7189(3) -1.3052(3)
C1A C 0.7832(3) -1.0783(2) -1.1782(2)
C2A C 0.8452(3) -1.2139(2) -1.2109(2)
C3A C 0.9162(3) -1.2575(3) -1.1165(3)
H1A H 0.9308 -1.1999 -1.0326
C4A C 0.9652(3) -1.3853(3) -1.1462(3)
H2A H 1.0117 -1.4132 -1.0820
C5A C 0.9454(3) -1.4733(2) -1.2718(3)
C6A C 0.8797(3) -1.4279(3) -1.3660(3)
H3A H 0.8688 -1.4842 -1.4506
C7A C 0.8300(3) -1.2999(3) -1.3366(2)
H4A H 0.7860 -1.2713 -1.4014
C8A C 0.9866(3) -1.6169(3) -1.3007(3)
H5A H 0.9921 -1.6578 -1.3931
H6A H 1.0847 -1.6206 -1.2598
C9A C 0.8660(3) -1.6914(2) -1.2495(3)
Cd1_2 Cd 0.319410(19) 0.831771(16) 0.136139(15)
Cd1A_2 Cd 0.680590(19) -1.831771(16) -1.136139(15)
Cd1A_3 Cd 1.680590(19) 0.168229(16) 0.863861(15)
N2A_2 N 0.4388(2) -0.8581(2) -1.22703(19)
O3_2 O 0.1014(3) -0.2781(2) 0.1504(2)
O3A_2 O 0.8986(3) -0.7219(2) -1.1504(2)
O4_2 O 0.2605(3) -0.2811(3) 0.3052(3)
O4A_2 O 0.7395(3) -0.7189(3) -1.3052(3)
loop_
_geom_bond_atom_site_label_1
_geom_bond_atom_site_label_2
_geom_bond_site_symmetry_1
_geom_bond_site_symmetry_2
Cd1 N1 1_555 1_555
N1 C10 1_555 1_555
N2 Cd1 1_555 1_555
O1 Cd1 1_555 1_555
O2 Cd1 1_555 1_555
O3 C9 1_555 1_555
O4 C9 1_555 1_555
C1 O1 1_555 1_555
C2 C1 1_555 1_555
C3 C2 1_555 1_555
H1 C3 1_555 1_555
C4 C3 1_555 1_555
H2 C4 1_555 1_555
C5 C4 1_555 1_555
C6 C5 1_555 1_555
H3 C6 1_555 1_555
C7 C2 1_555 1_555
H4 C7 1_555 1_555
C8 C5 1_555 1_555
H5 C8 1_555 1_555
H6 C8 1_555 1_555
C9 C8 1_555 1_555
C10 H7 1_555 1_555
C11 C10 1_555 1_555
H8 C11 1_555 1_555
C12 C11 1_555 1_555
C13 C12 1_555 1_555
H9 C13 1_555 1_555
C14 N1 1_555 1_555
H10 C14 1_555 1_555
C15 C12 1_555 1_555
H11 C15 1_555 1_555
C16 N2 1_555 1_555
H12 C16 1_555 1_555
C17 C16 1_555 1_555
H13 C17 1_555 1_555
C18 C17 1_555 1_555
C19 C18 1_555 1_555
H14 C19 1_555 1_555
C20 N2 1_555 1_555
H15 C20 1_555 1_555
C21 C18 1_555 1_555
H16 C21 1_555 1_555
N1A C10A 1_555 1_555
C10A H7A 1_555 1_555
C11A C10A 1_555 1_555
H8A C11A 1_555 1_555
C12A C11A 1_555 1_555
C13A C12A 1_555 1_555
H9A C13A 1_555 1_555
C14A N1A 1_555 1_555
H10A C14A 1_555 1_555
C15A C15 1_555 1_555
H11A C15A 1_555 1_555
N2A C16A 1_555 1_555
C16A H12A 1_555 1_555
C17A C16A 1_555 1_555
H13A C17A 1_555 1_555
C18A C17A 1_555 1_555
C19A C18A 1_555 1_555
H14A C19A 1_555 1_555
C20A N2A 1_555 1_555
H15A C20A 1_555 1_555
C21A C21 1_555 1_555
H16A C21A 1_555 1_555
Cd1A N1A 1_555 1_555
O1A Cd1A 1_555 1_555
O2A Cd1A 1_555 1_555
O3A C9A 1_555 1_555
O4A C9A 1_555 1_555
C1A O1A 1_555 1_555
C2A C1A 1_555 1_555
C3A C2A 1_555 1_555
H1A C3A 1_555 1_555
C4A C3A 1_555 1_555
H2A C4A 1_555 1_555
C5A C4A 1_555 1_555
C6A C5A 1_555 1_555
H3A C6A 1_555 1_555
C7A C2A 1_555 1_555
H4A C7A 1_555 1_555
C8A C5A 1_555 1_555
H5A C8A 1_555 1_555
H6A C8A 1_555 1_555
C9A C8A 1_555 1_555
Cd1_2 O3 1_555 1_555
Cd1A_2 O3A 1_555 1_555
Cd1A_3 N2A 1_555 1_555
N2A_2 Cd1A 1_555 1_555
O3_2 Cd1 1_555 1_555
O3A_2 Cd1A 1_555 1_555
O4_2 Cd1 1_555 1_555
O4A_2 Cd1A 1_555 1_555
O2 C1 1_555 1_555
O4 Cd1_2 1_555 1_555
C6 C7 1_555 1_555
C13 C14 1_555 1_555
C19 C20 1_555 1_555
C12A C15A 1_555 1_555
C13A C14A 1_555 1_555
C18A C21A 1_555 1_555
C19A C20A 1_555 1_555
O2A C1A 1_555 1_555
O4A Cd1A_2 1_555 1_555
C6A C7A 1_555 1_555

#END
