
#######################################################################
#
#                 Cambridge Crystallographic Data Centre
#                                CCDC 
#
#######################################################################
#
# If this CIF has been generated from an entry in the Cambridge 
# Structural Database, then it will include bibliographic, chemical, 
# crystal, experimental, refinement or atomic coordinate data resulting 
# from the CCDC's data processing and validation procedures.
#
#######################################################################

data_PETVER
_symmetry_cell_setting           monoclinic
_symmetry_space_group_name_H-M   'P 21/c'
_symmetry_Int_Tables_number      14
_space_group_name_Hall           '-P 2ybc'
loop_
_symmetry_equiv_pos_site_id
_symmetry_equiv_pos_as_xyz
1 x,y,z
2 -x,1/2+y,1/2-z
3 -x,-y,-z
4 x,1/2-y,1/2+z
_cell_length_a                   10.198(2)
_cell_length_b                   22.367(5)
_cell_length_c                   13.285(3)
_cell_angle_alpha                90
_cell_angle_beta                 97.775(3)
_cell_angle_gamma                90
_cell_volume                     3002.43
loop_
_atom_site_label
_atom_site_type_symbol
_atom_site_fract_x
_atom_site_fract_y
_atom_site_fract_z
Cd1 Cd 0.79320(6) 0.41985(3) 0.68317(5)
Cd2 Cd 0.78837(6) 0.25642(3) 0.78465(4)
Cd3 Cd 0.33769(6) 0.39308(3) 0.99124(5)
O1 O 0.6739(10) 0.4849(4) 0.5637(8)
O2 O 0.8892(10) 0.4892(4) 0.5798(7)
O3 O 0.6365(9) 0.7736(3) 0.4742(6)
O4 O 0.7299(8) 0.8378(3) 0.3828(6)
O5 O 0.2307(9) 0.4756(3) 1.0330(6)
O6 O 0.2906(9) 0.5056(4) 0.8898(7)
O7 O 0.8473(13) 0.5071(4) 0.7833(7)
H1 H 0.8010 0.5078 0.8319
H2 H 0.8303 0.5378 0.7463
O8 O 0.8961(8) 0.1663(3) 0.7525(6)
H3 H 0.8496 0.1368 0.7671
H4 H 0.9712 0.1652 0.7891
O9 O 0.5930(8) 0.1989(4) 0.7436(6)
H5 H 0.5709 0.1839 0.7976
H6 H 0.6073 0.1710 0.7030
O10 O 0.5115(8) 0.4133(4) 1.1348(6)
H7 H 0.5759 0.4345 1.1212
H8 H 0.4833 0.4244 1.1891
N1 N 0.7843(8) 0.2796(3) 0.6161(5)
N2 N 0.7656(8) 0.3371(3) 0.5792(6)
N3 N 0.7861(8) 0.2770(4) 0.4483(5)
N4 N 0.9691(8) 0.3187(4) 0.8203(6)
N5 N 0.9678(8) 0.3753(4) 0.7796(6)
N6 N 1.1580(8) 0.3642(4) 0.8801(6)
N7 N 0.6478(7) 0.3338(4) 0.8198(6)
N8 N 0.6445(7) 0.3922(3) 0.7874(6)
N9 N 0.4994(8) 0.3833(4) 0.8957(6)
C1 C 0.7675(12) 0.5655(4) 0.4819(8)
C2 C 0.8779(12) 0.5993(5) 0.4783(9)
H9 H 0.9596 0.5852 0.5085
C3 C 0.8702(11) 0.6555(5) 0.4293(9)
H10 H 0.9456 0.6788 0.4288
C4 C 0.7475(11) 0.6755(4) 0.3816(7)
C5 C 0.6375(12) 0.6402(5) 0.3833(8)
H11 H 0.5561 0.6533 0.3509
C6 C 0.6458(14) 0.5845(5) 0.4333(9)
H12 H 0.5708 0.5609 0.4337
C7 C 0.7785(14) 0.5088(5) 0.5440(8)
C8 C 0.6988(9) 0.7854(4) 0.4022(7)
C9 C 0.7959(10) 0.2464(4) 0.5356(7)
H13 H 0.8097 0.2053 0.5392
C10 C 0.7674(10) 0.3334(4) 0.4807(7)
H14 H 0.7570 0.3663 0.4375
C11 C 1.0834(10) 0.3148(5) 0.8786(8)
H15 H 1.1103 0.2806 0.9156
C12 C 1.0801(10) 0.3994(4) 0.8170(8)
H16 H 1.1039 0.4381 0.8010
C13 C 0.5580(9) 0.3308(4) 0.8833(7)
H17 H 0.5379 0.2958 0.9158
C14 C 0.5535(9) 0.4194(4) 0.8342(7)
H18 H 0.5306 0.4595 0.8247
C15 C 0.2305(11) 0.5139(4) 0.9644(8)
C16 C 0.1504(15) 0.5696(5) 0.9720(10)
H19 H 0.0654 0.5651 0.9318
H20 H 0.1958 0.6031 0.9475
H21 H 0.1388 0.5763 1.0417
C17 C 0.7390(12) 0.7366(4) 0.3332(8)
H22 H 0.6752 0.7353 0.2720
H23 H 0.8244 0.7467 0.3134
Cd2C Cd 0.78837(6) 0.24358(3) 0.28465(4)
Cd3_2 Cd 1.33769(6) 0.39308(3) 0.99124(5)
Cd3A Cd 0.66231(6) 0.89308(3) 0.50876(5)
O3A O 0.3635(9) 0.2736(3) 1.0258(6)
O4A O 0.2701(8) 0.3378(3) 1.1172(6)
N3C N 0.7861(8) 0.2230(4) 0.9483(5)
N6_2 N 0.1580(8) 0.3642(4) 0.8801(6)
O11 O 0.4982(10) 0.5612(4) 0.6531(8)
H24 H 0.4167 0.5519 0.6471
H25 H 0.5290 0.5303 0.6275
O12 O 0.8441(8) 0.6315(3) 0.7210(6)
H26 H 0.7693 0.6300 0.6840
H27 H 0.8302 0.6323 0.7826
O13 O 0.1792(12) 0.9505(4) 0.1847(8)
H28 H 0.1712 0.9579 0.2463
H29 H 0.1064 0.9658 0.1580
O14 O 0.5896(9) 0.8152(4) 0.1143(6)
H30 H 0.6030 0.7882 0.0719
H31 H 0.5635 0.8504 0.1252
loop_
_geom_bond_atom_site_label_1
_geom_bond_atom_site_label_2
_geom_bond_site_symmetry_1
_geom_bond_site_symmetry_2
Cd1 O1 1_555 1_555
Cd2 O8 1_555 1_555
Cd3 O5 1_555 1_555
O1 C7 1_555 1_555
O2 Cd1 1_555 1_555
O3 C8 1_555 1_555
O4 C8 1_555 1_555
O5 C15 1_555 1_555
O6 C15 1_555 1_555
O7 Cd1 1_555 1_555
H1 O7 1_555 1_555
H2 O7 1_555 1_555
O8 H3 1_555 1_555
H4 O8 1_555 1_555
O9 Cd2 1_555 1_555
H5 O9 1_555 1_555
H6 O9 1_555 1_555
O10 Cd3 1_555 1_555
H7 O10 1_555 1_555
H8 O10 1_555 1_555
N1 Cd2 1_555 1_555
N2 Cd1 1_555 1_555
N3 C9 1_555 1_555
N4 Cd2 1_555 1_555
N5 Cd1 1_555 1_555
N6 C11 1_555 1_555
N7 Cd2 1_555 1_555
N8 Cd1 1_555 1_555
N9 Cd3 1_555 1_555
C1 C2 1_555 1_555
C2 H9 1_555 1_555
C3 C2 1_555 1_555
H10 C3 1_555 1_555
C4 C3 1_555 1_555
C5 C4 1_555 1_555
H11 C5 1_555 1_555
C6 C1 1_555 1_555
H12 C6 1_555 1_555
C7 O2 1_555 1_555
C8 C17 1_555 1_555
C9 N1 1_555 1_555
H13 C9 1_555 1_555
C10 N2 1_555 1_555
H14 C10 1_555 1_555
C11 N4 1_555 1_555
H15 C11 1_555 1_555
C12 N5 1_555 1_555
H16 C12 1_555 1_555
C13 N7 1_555 1_555
H17 C13 1_555 1_555
C14 N8 1_555 1_555
H18 C14 1_555 1_555
C15 C16 1_555 1_555
C16 H19 1_555 1_555
H20 C16 1_555 1_555
H21 C16 1_555 1_555
C17 C4 1_555 1_555
H22 C17 1_555 1_555
H23 C17 1_555 1_555
O11 H24 1_555 1_555
H25 O11 1_555 1_555
O12 H26 1_555 1_555
H27 O12 1_555 1_555
O13 H28 1_555 1_555
H29 O13 1_555 1_555
O14 H30 1_555 1_555
H31 O14 1_555 1_555
Cd2C N3 1_555 1_555
Cd3_2 N6 1_555 1_555
Cd3A O3 1_555 1_555
O3A Cd3 1_555 1_555
O4A Cd3 1_555 1_555
N3C Cd2 1_555 1_555
N6_2 Cd3 1_555 1_555
O4 Cd3A 1_555 1_555
N1 N2 1_555 1_555
N3 C10 1_555 1_555
N4 N5 1_555 1_555
N6 C12 1_555 1_555
N7 N8 1_555 1_555
N9 C13 1_555 1_555
N9 C14 1_555 1_555
C1 C7 1_555 1_555
C5 C6 1_555 1_555

#END
