
#######################################################################
#
#                 Cambridge Crystallographic Data Centre
#                                CCDC 
#
#######################################################################
#
# If this CIF has been generated from an entry in the Cambridge 
# Structural Database, then it will include bibliographic, chemical, 
# crystal, experimental, refinement or atomic coordinate data resulting 
# from the CCDC's data processing and validation procedures.
#
#######################################################################

data_PETVIV
_symmetry_cell_setting           monoclinic
_symmetry_space_group_name_H-M   'P 21/c'
_symmetry_Int_Tables_number      14
_space_group_name_Hall           '-P 2ybc'
loop_
_symmetry_equiv_pos_site_id
_symmetry_equiv_pos_as_xyz
1 x,y,z
2 -x,1/2+y,1/2-z
3 -x,-y,-z
4 x,1/2-y,1/2+z
_cell_length_a                   10.095(2)
_cell_length_b                   15.929(3)
_cell_length_c                   14.236(3)
_cell_angle_alpha                90
_cell_angle_beta                 106.156(2)
_cell_angle_gamma                90
_cell_volume                     2198.79
loop_
_atom_site_label
_atom_site_type_symbol
_atom_site_fract_x
_atom_site_fract_y
_atom_site_fract_z
Cd1 Cd 0.13706(3) 0.095214(18) 0.29430(2)
Cd2 Cd 0.0000 0.0000 0.5000
N1 N -0.0622(3) 0.0579(2) 0.1785(2)
N2 N -0.8273(3) 0.0501(2) -0.3733(3)
O1 O 0.2114(3) 0.1548(2) 0.1672(2)
O2 O 0.3594(3) 0.1482(2) 0.3120(2)
O3 O 0.8366(3) 0.48996(16) 0.0903(2)
O4 O 0.7664(3) 0.45444(19) 0.2163(2)
O5 O 0.0694(4) 0.2064(2) 0.3605(3)
O6 O -0.0512(3) 0.13200(18) 0.4375(3)
C1 C 0.3279(4) 0.1707(2) 0.2249(3)
C2 C 0.4305(4) 0.2169(2) 0.1866(3)
C3 C 0.3956(4) 0.2499(3) 0.0933(3)
H1 H 0.3075 0.2412 0.0521
C4 C 0.4904(5) 0.2960(3) 0.0600(3)
H2 H 0.4654 0.3175 -0.0032
C5 C 0.6215(4) 0.3100(3) 0.1203(3)
C6 C 0.6567(4) 0.2770(3) 0.2139(3)
H3 H 0.7445 0.2864 0.2553
C7 C 0.5631(4) 0.2304(2) 0.2466(3)
H4 H 0.5890 0.2078 0.3093
C8 C 0.7258(5) 0.3575(3) 0.0828(4)
H5 H 0.6846 0.3701 0.0142
H6 H 0.8041 0.3210 0.0869
C9 C 0.7785(4) 0.4387(3) 0.1353(3)
C10 C -0.0049(4) 0.1991(3) 0.4167(3)
C11 C -0.0431(5) 0.2778(3) 0.4592(4)
H7 H -0.1362 0.2735 0.4633
H8 H -0.0358 0.3245 0.4183
H9 H 0.0181 0.2862 0.5235
C12 C -0.1733(4) 0.1068(3) 0.1610(4)
H10 H -0.1779 0.1468 0.2075
C13 C -0.2821(5) 0.1010(3) 0.0773(4)
H11 H -0.3571 0.1370 0.0683
C14 C -0.2796(4) 0.0423(3) 0.0073(3)
C15 C -0.1665(5) -0.0104(3) 0.0279(3)
H12 H -0.1613 -0.0530 -0.0156
C16 C -0.0623(5) -0.0002(3) 0.1119(3)
H13 H 0.0130 -0.0362 0.1231
C17 C -0.3879(4) 0.0337(3) -0.0889(3)
H14 H -0.4290 -0.0216 -0.0912
H15 H -0.3425 0.0361 -0.1406
C18 C -0.7045(5) 0.0129(3) -0.3575(4)
H16 H -0.6914 -0.0246 -0.4041
C19 C -0.5966(5) 0.0274(3) -0.2759(4)
H17 H -0.5128 0.0003 -0.2685
C20 C -0.6126(4) 0.0820(3) -0.2051(3)
C21 C -0.7372(4) 0.1237(3) -0.2234(3)
H18 H -0.7514 0.1636 -0.1796
C22 C -0.8400(4) 0.1056(3) -0.3072(3)
H19 H -0.9234 0.1340 -0.3179
C23 C -0.5023(5) 0.0974(3) -0.1113(3)
H20 H -0.5446 0.0980 -0.0579
H21 H -0.4628 0.1525 -0.1143
Cd1B Cd -1.13706(3) -0.095214(18) -0.29430(2)
N1B N -0.9378(3) -0.0579(2) -0.1785(2)
N2B N -0.1727(3) -0.0501(2) 0.3733(3)
O1B O -1.2114(3) -0.1548(2) -0.1672(2)
O2B O -1.3594(3) -0.1482(2) -0.3120(2)
O3B O -1.8366(3) -0.48996(16) -0.0903(2)
O4B O -1.7664(3) -0.45444(19) -0.2163(2)
O5B O -1.0694(4) -0.2064(2) -0.3605(3)
O6B O -0.9488(3) -0.13200(18) -0.4375(3)
C1B C -1.3279(4) -0.1707(2) -0.2249(3)
C2B C -1.4305(4) -0.2169(2) -0.1866(3)
C3B C -1.3956(4) -0.2499(3) -0.0933(3)
H1B H -1.3075 -0.2412 -0.0521
C4B C -1.4904(5) -0.2960(3) -0.0600(3)
H2B H -1.4654 -0.3175 0.0032
C5B C -1.6215(4) -0.3100(3) -0.1203(3)
C6B C -1.6567(4) -0.2770(3) -0.2139(3)
H3B H -1.7445 -0.2864 -0.2553
C7B C -1.5631(4) -0.2304(2) -0.2466(3)
H4B H -1.5890 -0.2078 -0.3093
C8B C -1.7258(5) -0.3575(3) -0.0828(4)
H5B H -1.6846 -0.3701 -0.0142
H6B H -1.8041 -0.3210 -0.0869
C9B C -1.7785(4) -0.4387(3) -0.1353(3)
C10B C -0.9951(4) -0.1991(3) -0.4167(3)
C11B C -0.9569(5) -0.2778(3) -0.4592(4)
H7B H -0.8638 -0.2735 -0.4633
H8B H -0.9642 -0.3245 -0.4183
H9B H -1.0181 -0.2862 -0.5235
C12B C -0.8267(4) -0.1068(3) -0.1610(4)
H10B H -0.8221 -0.1468 -0.2075
C13B C -0.7179(5) -0.1010(3) -0.0773(4)
H11B H -0.6429 -0.1370 -0.0683
C14B C -0.7204(4) -0.0423(3) -0.0073(3)
C15B C -0.8335(5) 0.0104(3) -0.0279(3)
H12B H -0.8387 0.0530 0.0156
C16B C -0.9377(5) 0.0002(3) -0.1119(3)
H13B H -1.0130 0.0362 -0.1231
C17B C -0.6121(4) -0.0337(3) 0.0889(3)
H14B H -0.5710 0.0216 0.0912
H15B H -0.6575 -0.0361 0.1406
C18B C -0.2955(5) -0.0129(3) 0.3575(4)
H16B H -0.3086 0.0246 0.4041
C19B C -0.4034(5) -0.0274(3) 0.2759(4)
H17B H -0.4872 -0.0003 0.2685
C20B C -0.3874(4) -0.0820(3) 0.2051(3)
C21B C -0.2628(4) -0.1237(3) 0.2234(3)
H18B H -0.2486 -0.1636 0.1796
C22B C -0.1600(4) -0.1056(3) 0.3072(3)
H19B H -0.0766 -0.1340 0.3179
C23B C -0.4977(5) -0.0974(3) 0.1113(3)
H20B H -0.4554 -0.0980 0.0579
H21B H -0.5372 -0.1525 0.1143
Cd1A Cd 0.86294(3) 0.595214(18) 0.20570(2)
Cd1C Cd -1.86294(3) -0.595214(18) -0.20570(2)
Cd2_2 Cd -1.0000 0.0000 -0.5000
Cd2A Cd -2.0000 -0.5000 0.0000
Cd2A_2 Cd 1.0000 0.5000 0.0000
N2_2 N 0.1727(3) 0.0501(2) 0.6267(3)
O3A O 0.1634(3) -0.01004(16) 0.4097(2)
O3C O -1.1634(3) 0.01004(16) -0.4097(2)
O3C_2 O -0.1634(3) 0.01004(16) 0.5903(2)
O4A O 0.2336(3) -0.04556(19) 0.2837(2)
O4C O -1.2336(3) 0.04556(19) -0.2837(2)
O6B_2 O 0.0512(3) -0.13200(18) 0.5625(3)
loop_
_geom_bond_atom_site_label_1
_geom_bond_atom_site_label_2
_geom_bond_site_symmetry_1
_geom_bond_site_symmetry_2
Cd1 N1 1_555 1_555
Cd2 O6 1_555 1_555
N1 C12 1_555 1_555
N2 C18 1_555 1_555
O1 Cd1 1_555 1_555
O2 Cd1 1_555 1_555
O3 C9 1_555 1_555
O4 C9 1_555 1_555
O5 Cd1 1_555 1_555
O6 C10 1_555 1_555
C1 O1 1_555 1_555
C2 C1 1_555 1_555
C3 C2 1_555 1_555
H1 C3 1_555 1_555
C4 C3 1_555 1_555
H2 C4 1_555 1_555
C5 C4 1_555 1_555
C6 C5 1_555 1_555
H3 C6 1_555 1_555
C7 C2 1_555 1_555
H4 C7 1_555 1_555
C8 C5 1_555 1_555
H5 C8 1_555 1_555
H6 C8 1_555 1_555
C9 C8 1_555 1_555
C10 O5 1_555 1_555
C11 C10 1_555 1_555
H7 C11 1_555 1_555
H8 C11 1_555 1_555
H9 C11 1_555 1_555
C12 H10 1_555 1_555
C13 C12 1_555 1_555
H11 C13 1_555 1_555
C14 C13 1_555 1_555
C15 C14 1_555 1_555
H12 C15 1_555 1_555
C16 N1 1_555 1_555
H13 C16 1_555 1_555
C17 C14 1_555 1_555
H14 C17 1_555 1_555
H15 C17 1_555 1_555
C18 H16 1_555 1_555
C19 C18 1_555 1_555
H17 C19 1_555 1_555
C20 C19 1_555 1_555
C21 C20 1_555 1_555
H18 C21 1_555 1_555
C22 N2 1_555 1_555
H19 C22 1_555 1_555
C23 C17 1_555 1_555
H20 C23 1_555 1_555
H21 C23 1_555 1_555
Cd1B N1B 1_555 1_555
N1B C12B 1_555 1_555
N2B Cd2 1_555 1_555
O1B Cd1B 1_555 1_555
O2B Cd1B 1_555 1_555
O3B C9B 1_555 1_555
O4B C9B 1_555 1_555
O5B Cd1B 1_555 1_555
O6B C10B 1_555 1_555
C1B O1B 1_555 1_555
C2B C1B 1_555 1_555
C3B C2B 1_555 1_555
H1B C3B 1_555 1_555
C4B C3B 1_555 1_555
H2B C4B 1_555 1_555
C5B C4B 1_555 1_555
C6B C5B 1_555 1_555
H3B C6B 1_555 1_555
C7B C2B 1_555 1_555
H4B C7B 1_555 1_555
C8B C5B 1_555 1_555
H5B C8B 1_555 1_555
H6B C8B 1_555 1_555
C9B C8B 1_555 1_555
C10B O5B 1_555 1_555
C11B C10B 1_555 1_555
H7B C11B 1_555 1_555
H8B C11B 1_555 1_555
H9B C11B 1_555 1_555
C12B H10B 1_555 1_555
C13B C12B 1_555 1_555
H11B C13B 1_555 1_555
C14B C13B 1_555 1_555
C15B C14B 1_555 1_555
H12B C15B 1_555 1_555
C16B N1B 1_555 1_555
H13B C16B 1_555 1_555
C17B C14B 1_555 1_555
H14B C17B 1_555 1_555
H15B C17B 1_555 1_555
C18B N2B 1_555 1_555
H16B C18B 1_555 1_555
C19B C18B 1_555 1_555
H17B C19B 1_555 1_555
C20B C19B 1_555 1_555
C21B C20B 1_555 1_555
H18B C21B 1_555 1_555
C22B N2B 1_555 1_555
H19B C22B 1_555 1_555
C23B C17B 1_555 1_555
H20B C23B 1_555 1_555
H21B C23B 1_555 1_555
Cd1A O3 1_555 1_555
Cd1C O3B 1_555 1_555
Cd2_2 N2 1_555 1_555
Cd2A O3B 1_555 1_555
Cd2A_2 O3 1_555 1_555
N2_2 Cd2 1_555 1_555
O3A Cd1 1_555 1_555
O3C Cd1B 1_555 1_555
O3C_2 Cd2 1_555 1_555
O4A Cd1 1_555 1_555
O4C Cd1B 1_555 1_555
O6B_2 Cd2 1_555 1_555
Cd2 O3A 1_555 1_555
O2 C1 1_555 1_555
O4 Cd1A 1_555 1_555
C6 C7 1_555 1_555
C15 C16 1_555 1_555
C20 C23 1_555 1_555
C21 C22 1_555 1_555
O2B C1B 1_555 1_555
O4B Cd1C 1_555 1_555
O6B Cd2_2 1_555 1_555
C6B C7B 1_555 1_555
C15B C16B 1_555 1_555
C20B C23B 1_555 1_555
C21B C22B 1_555 1_555
Cd2_2 O3C 1_555 1_555

#END
