
#######################################################################
#
#                 Cambridge Crystallographic Data Centre
#                                CCDC 
#
#######################################################################
#
# If this CIF has been generated from an entry in the Cambridge 
# Structural Database, then it will include bibliographic, chemical, 
# crystal, experimental, refinement or atomic coordinate data resulting 
# from the CCDC's data processing and validation procedures.
#
#######################################################################

data_PETWIV
_symmetry_cell_setting           monoclinic
_symmetry_space_group_name_H-M   'C 2/c'
_symmetry_Int_Tables_number      15
_space_group_name_Hall           '-C 2yn'
loop_
_symmetry_equiv_pos_site_id
_symmetry_equiv_pos_as_xyz
1 x,y,z
2 1/2+x,1/2+y,z
3 -x,y,1/2-z
4 1/2-x,1/2+y,1/2-z
5 -x,-y,-z
6 1/2-x,1/2-y,-z
7 x,-y,1/2+z
8 1/2+x,1/2-y,1/2+z
_cell_length_a                   8.373(3)
_cell_length_b                   16.500(9)
_cell_length_c                   22.866(8)
_cell_angle_alpha                90
_cell_angle_beta                 94.047(14)
_cell_angle_gamma                90
_cell_volume                     3151.16
loop_
_atom_site_label
_atom_site_type_symbol
_atom_site_fract_x
_atom_site_fract_y
_atom_site_fract_z
Zn1 Zn 0.0000 0.30919(4) -0.2500
N1 N -0.1025(3) 0.18281(17) -0.10023(11)
N2 N -0.0630(3) 0.23446(17) -0.18667(11)
N3 N 0.0619(3) 0.12284(17) 0.17777(11)
N4 N 0.3061(3) 0.13379(17) 0.21736(11)
C1 C -0.0912(4) 0.1708(2) -0.03790(14)
C2 C -0.0473(7) 0.2360(4) -0.0004(2)
H1 H -0.0189 0.2869 -0.0160
C4 C -0.0461(7) 0.2246(3) 0.0595(2)
H3 H -0.0154 0.2680 0.0852
C6 C -0.0884(4) 0.1521(2) 0.08226(13)
C7 C -0.1242(7) 0.0873(4) 0.0453(2)
H5 H -0.1493 0.0361 0.0613
C9 C -0.1237(8) 0.0970(3) -0.0151(2)
H7 H -0.1461 0.0521 -0.0404
C11 C -0.0236(4) 0.2392(2) -0.12963(13)
H9 H -0.0501 0.2772 -0.3881
C12 C 0.1723(4) 0.1729(2) -0.30635(14)
H10 H 0.2219 0.1553 -0.2699
C13 C 0.1988(4) 0.1411(2) -0.35921(14)
H11 H 0.2701 0.0982 -0.3668
C14 C -0.0932(4) 0.1456(2) 0.14821(13)
H12 H 0.1271 0.1983 -0.6638
H13 H 0.1743 0.1047 -0.6573
C15 C 0.1791(4) 0.1736(2) 0.19446(13)
H14 H -0.1730 0.2309 -0.6905
C16 C -0.2648(4) 0.0532(2) -0.71428(16)
H15 H -0.3317 0.0094 -0.7274
C17 C -0.1138(4) 0.0461(2) -0.68954(16)
H16 H -0.0557 -0.0026 -0.6819
Zn1G Zn -0.5000 0.19081(4) -0.7500
Zn1G_2 Zn 0.5000 0.19081(4) 0.2500
N1B N 0.1025(3) 0.18281(17) -0.39977(11)
N2B N 0.0630(3) 0.23446(17) -0.31333(11)
N3B N -0.0619(3) 0.12284(17) -0.67777(11)
N4G N -0.1939(3) 0.36621(17) -0.28264(11)
N4E N 0.1939(3) 0.36621(17) -0.21736(11)
N4B N -0.3061(3) 0.13379(17) -0.71736(11)
C1B C 0.0912(4) 0.1708(2) -0.46210(14)
C2B C 0.0473(7) 0.2360(4) -0.4996(2)
H1B H 0.0189 0.2869 -0.4840
C4B C 0.0461(7) 0.2246(3) -0.5595(2)
H3B H 0.0154 0.2680 -0.5852
C6B C 0.0884(4) 0.1521(2) -0.58226(13)
C7B C 0.1242(7) 0.0873(4) -0.5453(2)
H5B H 0.1493 0.0361 -0.5613
C9B C 0.1237(8) 0.0970(3) -0.4849(2)
H7B H 0.1461 0.0521 -0.4596
C11B C 0.0236(4) 0.2392(2) -0.37037(13)
H9B H 0.0501 0.2772 -0.1119
C12B C -0.1723(4) 0.1729(2) -0.19365(14)
H10B H -0.2219 0.1553 -0.2301
C13B C -0.1988(4) 0.1411(2) -0.14079(14)
H11B H -0.2701 0.0982 -0.1332
C14B C 0.0932(4) 0.1456(2) -0.64821(13)
H12B H -0.1271 0.1983 0.1638
H13B H -0.1743 0.1047 0.1573
C15B C -0.1791(4) 0.1736(2) -0.69446(13)
H14B H 0.1730 0.2309 0.1905
C16B C 0.2648(4) 0.0532(2) 0.21428(16)
H15B H 0.3317 0.0094 0.2274
C17B C 0.1138(4) 0.0461(2) 0.18954(16)
H16B H 0.0557 -0.0026 0.1819
Cl1 Cl -0.15103(12) 0.42446(7) -0.63426(4)
O2 O -0.0915(5) 0.3675(2) -0.67353(17)
O3 O -0.3159(4) 0.4292(3) -0.6434(2)
O4 O -0.0898(5) 0.5025(3) -0.6475(2)
O5 O -0.0990(9) 0.4092(4) -0.57781(18)
O1 O -0.3689(5) 0.0948(3) -0.55866(17)
C3? C -0.4631(15) 0.3141(10) -0.5064(5)
H2? H -0.3709 0.2962 -0.5247
C5? C -0.4555(14) 0.3233(10) -0.4456(4)
H4? H -0.3579 0.3126 -0.4232
C8? C -0.7254(14) 0.3655(7) -0.4524(4)
H6? H -0.8165 0.3845 -0.4340
C10? C -0.7367(13) 0.3569(7) -0.5127(4)
H8? H -0.8324 0.3683 -0.5361
loop_
_geom_bond_atom_site_label_1
_geom_bond_atom_site_label_2
_geom_bond_site_symmetry_1
_geom_bond_site_symmetry_2
Zn1 N2 1_555 1_555
Cl1 O2 1_555 1_555
O3 Cl1 1_555 1_555
O4 Cl1 1_555 1_555
O5 Cl1 1_555 1_555
N1 C1 1_555 1_555
N2 C11 1_555 1_555
N3 C14 1_555 1_555
N4 C15 1_555 1_555
C1 C2 1_555 1_555
C2 H1 1_555 1_555
C4 C2 1_555 1_555
H3 C4 1_555 1_555
C6 C4 1_555 1_555
C7 C6 1_555 1_555
H5 C7 1_555 1_555
C9 C1 1_555 1_555
H7 C9 1_555 1_555
C11 N1 1_555 1_555
H9 C11B 1_555 1_555
C12 H10 1_555 1_555
C13 C12 1_555 1_555
H11 C13 1_555 1_555
C14 C6 1_555 1_555
H12 C14B 1_555 1_555
H13 C14B 1_555 1_555
C15 N3 1_555 1_555
H14 C15B 1_555 1_555
C16 H15 1_555 1_555
C17 C16 1_555 1_555
H16 C17 1_555 1_555
Zn1G N4B 1_555 1_555
Zn1G_2 N4 1_555 1_555
N1B C13 1_555 1_555
N2B Zn1 1_555 1_555
N3B C17 1_555 1_555
N4G Zn1 1_555 1_555
N4E Zn1 1_555 1_555
N4B C16 1_555 1_555
C1B N1B 1_555 1_555
C2B C1B 1_555 1_555
H1B C2B 1_555 1_555
C4B C2B 1_555 1_555
H3B C4B 1_555 1_555
C6B C4B 1_555 1_555
C7B C6B 1_555 1_555
H5B C7B 1_555 1_555
C9B C1B 1_555 1_555
H7B C9B 1_555 1_555
C11B N1B 1_555 1_555
H9B C11 1_555 1_555
C12B N2 1_555 1_555
H10B C12B 1_555 1_555
C13B N1 1_555 1_555
H11B C13B 1_555 1_555
C14B N3B 1_555 1_555
H12B C14 1_555 1_555
H13B C14 1_555 1_555
C15B N3B 1_555 1_555
H14B C15 1_555 1_555
C16B N4 1_555 1_555
H15B C16B 1_555 1_555
C17B N3 1_555 1_555
H16B C17B 1_555 1_555
C7 C9 1_555 1_555
C12 N2B 1_555 1_555
N2B C11B 1_555 1_555
N4B C15B 1_555 1_555
C6B C14B 1_555 1_555
C7B C9B 1_555 1_555
C12B C13B 1_555 1_555
C16B C17B 1_555 1_555

#END
