
#######################################################################
#
#                 Cambridge Crystallographic Data Centre
#                                CCDC 
#
#######################################################################
#
# If this CIF has been generated from an entry in the Cambridge 
# Structural Database, then it will include bibliographic, chemical, 
# crystal, experimental, refinement or atomic coordinate data resulting 
# from the CCDC's data processing and validation procedures.
#
#######################################################################

data_PETWAO
_symmetry_cell_setting           monoclinic
_symmetry_space_group_name_H-M   'P 21/c'
_symmetry_Int_Tables_number      14
_space_group_name_Hall           '-P 2ybc'
loop_
_symmetry_equiv_pos_site_id
_symmetry_equiv_pos_as_xyz
1 x,y,z
2 -x,1/2+y,1/2-z
3 -x,-y,-z
4 x,1/2-y,1/2+z
_cell_length_a                   10.7549(19)
_cell_length_b                   12.012(2)
_cell_length_c                   7.6348(14)
_cell_angle_alpha                90
_cell_angle_beta                 109.318(2)
_cell_angle_gamma                90
_cell_volume                     930.791
loop_
_atom_site_label
_atom_site_type_symbol
_atom_site_fract_x
_atom_site_fract_y
_atom_site_fract_z
Cd1 Cd 0.466181(13) 0.292374(11) 0.143696(18)
O1 O 0.52643(14) 0.15512(12) -0.04752(19)
O2 O 0.62223(15) 0.14954(13) 0.2523(2)
O3 O 1.26592(15) 0.26737(14) 0.1513(2)
O4 O 1.34211(13) 0.12934(12) 0.3530(2)
O5 O 0.62209(14) 0.40440(12) 0.1010(2)
H1 H 0.6240 0.3925 -0.0078
H2 H 0.6361 0.4729 0.1283
C1 C 0.61382(18) 0.11457(16) 0.0945(3)
C2 C 0.70863(19) 0.02701(17) 0.0730(3)
H3 H 0.6791 0.0004 -0.0541
H4 H 0.7084 -0.0356 0.1531
C3 C 0.84814(19) 0.07135(16) 0.1211(3)
C4 C 0.8760(2) 0.16522(18) 0.0333(3)
H5 H 0.8076 0.2040 -0.0520
C5 C 1.0045(2) 0.20127(17) 0.0718(3)
H6 H 1.0217 0.2634 0.0109
C6 C 1.10861(19) 0.14536(16) 0.2012(3)
C7 C 1.0804(2) 0.05251(18) 0.2906(3)
H7 H 1.1485 0.0145 0.3777
C8 C 0.9517(2) 0.01640(18) 0.2505(3)
H8 H 0.9344 -0.0457 0.3114
C9 C 1.2475(2) 0.18309(17) 0.2388(3)
Cd1_2 Cd 1.466181(13) 0.292374(11) 0.143696(18)
Cd1C Cd 0.466181(13) 0.207626(11) -0.356304(18)
Cd1C_2 Cd 1.466181(13) 0.207626(11) 0.643696(18)
O1C O 0.52643(14) 0.34488(12) 0.45248(19)
O3_2 O 0.26592(15) 0.26737(14) 0.1513(2)
O4C O 0.34211(13) 0.37066(12) -0.1470(2)
loop_
_geom_bond_atom_site_label_1
_geom_bond_atom_site_label_2
_geom_bond_site_symmetry_1
_geom_bond_site_symmetry_2
Cd1 O1 1_555 1_555
O1 C1 1_555 1_555
O2 Cd1 1_555 1_555
O3 C9 1_555 1_555
O4 C9 1_555 1_555
O5 Cd1 1_555 1_555
H1 O5 1_555 1_555
H2 O5 1_555 1_555
C1 O2 1_555 1_555
C2 C1 1_555 1_555
H3 C2 1_555 1_555
H4 C2 1_555 1_555
C3 C2 1_555 1_555
C4 C3 1_555 1_555
H5 C4 1_555 1_555
C5 C4 1_555 1_555
H6 C5 1_555 1_555
C6 C5 1_555 1_555
C7 C6 1_555 1_555
H7 C7 1_555 1_555
C8 C3 1_555 1_555
H8 C8 1_555 1_555
C9 C6 1_555 1_555
Cd1_2 O3 1_555 1_555
Cd1C O1 1_555 1_555
Cd1C_2 O4 1_555 1_555
O1C Cd1 1_555 1_555
O3_2 Cd1 1_555 1_555
O4C Cd1 1_555 1_555
C7 C8 1_555 1_555

#END
