
#######################################################################
#
#                 Cambridge Crystallographic Data Centre
#                                CCDC 
#
#######################################################################
#
# If this CIF has been generated from an entry in the Cambridge 
# Structural Database, then it will include bibliographic, chemical, 
# crystal, experimental, refinement or atomic coordinate data resulting 
# from the CCDC's data processing and validation procedures.
#
#######################################################################

data_PETWOB
_symmetry_cell_setting           monoclinic
_symmetry_space_group_name_H-M   'C 2/c'
_symmetry_Int_Tables_number      15
_space_group_name_Hall           '-C 2yn'
loop_
_symmetry_equiv_pos_site_id
_symmetry_equiv_pos_as_xyz
1 x,y,z
2 1/2+x,1/2+y,z
3 -x,y,1/2-z
4 1/2-x,1/2+y,1/2-z
5 -x,-y,-z
6 1/2-x,1/2-y,-z
7 x,-y,1/2+z
8 1/2+x,1/2-y,1/2+z
_cell_length_a                   16.038(7)
_cell_length_b                   14.847(6)
_cell_length_c                   13.074(5)
_cell_angle_alpha                90
_cell_angle_beta                 112.935(12)
_cell_angle_gamma                90
_cell_volume                     2867.03
loop_
_atom_site_label
_atom_site_type_symbol
_atom_site_fract_x
_atom_site_fract_y
_atom_site_fract_z
Cd1 Cd -0.2500 0.2500 0.5000
S1 S -0.03891(6) 0.37410(8) 0.36527(9)
N1 N -0.1726(2) 0.3662(2) 0.4518(3)
N2 N -0.26105(18) 0.13939(19) 0.1760(2)
N3 N -0.27293(19) 0.1728(2) 0.3346(2)
N4 N -0.02887(17) 0.1304(2) -0.1338(2)
N5 N 0.11385(18) 0.1714(2) -0.0759(2)
C1 C -0.2267(2) 0.1387(2) 0.0892(3)
C2 C -0.1160(2) 0.3703(3) 0.4171(3)
C3 C -0.1398(2) 0.1675(3) 0.1104(3)
H1 H -0.1025 0.1879 0.1827
C4 C -0.1063(2) 0.1670(3) 0.0288(3)
H2 H -0.0464 0.1874 0.0446
C5 C -0.1602(2) 0.1365(2) -0.0779(3)
C6 C -0.2479(2) 0.1078(2) -0.0982(3)
H3 H -0.2854 0.0865 -0.1700
C7 C -0.2809(2) 0.1099(3) -0.0152(3)
H4 H -0.3413 0.0915 -0.0305
C8 C -0.2259(2) 0.1856(3) 0.2730(3)
H5 H -0.1737 0.2227 0.2938
C9 C -0.3422(2) 0.1148(3) 0.2742(3)
H6 H -0.3876 0.0926 0.2973
C10 C -0.3351(2) 0.0946(3) 0.1768(3)
H7 H -0.3742 0.0565 0.1200
C11 C -0.1277(2) 0.1365(3) -0.1727(3)
H8 H -0.1484 0.1925 -0.2164
H9 H -0.1553 0.0850 -0.2224
C12 C 0.0295(2) 0.1997(3) -0.1121(3)
H10 H 0.0120 0.2613 -0.1216
C13 C 0.1087(2) 0.0792(3) -0.0741(3)
H11 H 0.1592 0.0395 -0.0516
C14 C 0.0214(2) 0.0534(3) -0.1089(3)
H12 H -0.0007 -0.0066 -0.1149
Cd1G Cd 0.2500 0.2500 0.0000
Cd1G_2 Cd -0.7500 0.2500 1.0000
S1E S -0.46109(6) 0.12590(8) 0.63473(9)
N1E N -0.3274(2) 0.1338(2) 0.5482(3)
N2E N -0.23895(18) 0.36061(19) 0.8240(2)
N3E N -0.22707(19) 0.3272(2) 0.6654(2)
N4E N -0.47113(17) 0.3696(2) 1.1338(2)
N5G N -0.38615(18) 0.3286(2) 0.4241(2)
N5B N -0.11385(18) 0.1714(2) 0.5759(2)
N5E N -0.61385(18) 0.3286(2) 1.0759(2)
C1E C -0.2733(2) 0.3613(2) 0.9108(3)
C2E C -0.3840(2) 0.1297(3) 0.5829(3)
C3E C -0.3602(2) 0.3325(3) 0.8896(3)
H1E H -0.3975 0.3121 0.8173
C4E C -0.3937(2) 0.3330(3) 0.9712(3)
H2E H -0.4536 0.3126 0.9554
C5E C -0.3398(2) 0.3635(2) 1.0779(3)
C6E C -0.2521(2) 0.3922(2) 1.0982(3)
H3E H -0.2146 0.4135 1.1700
C7E C -0.2191(2) 0.3901(3) 1.0152(3)
H4E H -0.1587 0.4085 1.0305
C8E C -0.2741(2) 0.3144(3) 0.7270(3)
H5E H -0.3263 0.2773 0.7062
C9E C -0.1578(2) 0.3852(3) 0.7258(3)
H6E H -0.1124 0.4074 0.7027
C10E C -0.1649(2) 0.4054(3) 0.8232(3)
H7E H -0.1258 0.4435 0.8800
C11E C -0.3723(2) 0.3635(3) 1.1727(3)
H8E H -0.3516 0.3075 1.2164
H9E H -0.3447 0.4150 1.2224
C12E C -0.5295(2) 0.3003(3) 1.1121(3)
H10E H -0.5120 0.2387 1.1216
C13E C -0.6087(2) 0.4208(3) 1.0741(3)
H11E H -0.6592 0.4605 1.0516
C14E C -0.5214(2) 0.4466(3) 1.1089(3)
H12E H -0.4993 0.5066 1.1149
loop_
_geom_bond_atom_site_label_1
_geom_bond_atom_site_label_2
_geom_bond_site_symmetry_1
_geom_bond_site_symmetry_2
Cd1 N1 1_555 1_555
S1 C2 1_555 1_555
N1 C2 1_555 1_555
N2 C1 1_555 1_555
N3 Cd1 1_555 1_555
N4 C11 1_555 1_555
N5 C12 1_555 1_555
C1 C3 1_555 1_555
C3 H1 1_555 1_555
C4 C3 1_555 1_555
H2 C4 1_555 1_555
C5 C4 1_555 1_555
C6 C5 1_555 1_555
H3 C6 1_555 1_555
C7 C1 1_555 1_555
H4 C7 1_555 1_555
C8 N2 1_555 1_555
H5 C8 1_555 1_555
C9 N3 1_555 1_555
H6 C9 1_555 1_555
C10 N2 1_555 1_555
H7 C10 1_555 1_555
C11 C5 1_555 1_555
H8 C11 1_555 1_555
H9 C11 1_555 1_555
C12 N4 1_555 1_555
H10 C12 1_555 1_555
C13 N5 1_555 1_555
H11 C13 1_555 1_555
C14 N4 1_555 1_555
H12 C14 1_555 1_555
Cd1G N5 1_555 1_555
Cd1G_2 N5E 1_555 1_555
S1E C2E 1_555 1_555
N1E Cd1 1_555 1_555
N2E C1E 1_555 1_555
N3E Cd1 1_555 1_555
N4E C11E 1_555 1_555
N5G Cd1 1_555 1_555
N5B Cd1 1_555 1_555
N5E C12E 1_555 1_555
C1E C3E 1_555 1_555
C2E N1E 1_555 1_555
C3E H1E 1_555 1_555
C4E C3E 1_555 1_555
H2E C4E 1_555 1_555
C5E C4E 1_555 1_555
C6E C5E 1_555 1_555
H3E C6E 1_555 1_555
C7E C1E 1_555 1_555
H4E C7E 1_555 1_555
C8E N2E 1_555 1_555
H5E C8E 1_555 1_555
C9E N3E 1_555 1_555
H6E C9E 1_555 1_555
C10E N2E 1_555 1_555
H7E C10E 1_555 1_555
C11E C5E 1_555 1_555
H8E C11E 1_555 1_555
H9E C11E 1_555 1_555
C12E N4E 1_555 1_555
H10E C12E 1_555 1_555
C13E N5E 1_555 1_555
H11E C13E 1_555 1_555
C14E N4E 1_555 1_555
H12E C14E 1_555 1_555
N3 C8 1_555 1_555
C6 C7 1_555 1_555
C9 C10 1_555 1_555
C13 C14 1_555 1_555
N3E C8E 1_555 1_555
C6E C7E 1_555 1_555
C9E C10E 1_555 1_555
C13E C14E 1_555 1_555

#END
