
#######################################################################
#
#                 Cambridge Crystallographic Data Centre
#                                CCDC 
#
#######################################################################
#
# If this CIF has been generated from an entry in the Cambridge 
# Structural Database, then it will include bibliographic, chemical, 
# crystal, experimental, refinement or atomic coordinate data resulting 
# from the CCDC's data processing and validation procedures.
#
#######################################################################

data_PETXES
_symmetry_cell_setting           triclinic
_symmetry_space_group_name_H-M   'P -1'
_symmetry_Int_Tables_number      2
_space_group_name_Hall           '-P 1'
loop_
_symmetry_equiv_pos_site_id
_symmetry_equiv_pos_as_xyz
1 x,y,z
2 -x,-y,-z
_cell_length_a                   6.0753(13)
_cell_length_b                   10.745(2)
_cell_length_c                   12.463(3)
_cell_angle_alpha                107.741(3)
_cell_angle_beta                 91.855(3)
_cell_angle_gamma                93.357(3)
_cell_volume                     772.474
loop_
_atom_site_label
_atom_site_type_symbol
_atom_site_fract_x
_atom_site_fract_y
_atom_site_fract_z
Cd1 Cd 0.65904(7) 0.56770(4) 0.38702(3)
N1 N 0.5404(7) 0.6632(5) 0.2518(4)
N2 N 0.9328(7) 0.7224(5) 0.3742(4)
O1 O 0.3344(6) 0.4521(4) 0.3679(4)
O2 O 0.3678(6) 0.2880(4) 0.4415(3)
O3 O -0.1391(6) 0.3941(4) 0.3641(3)
O4 O -0.2097(10) 0.4187(6) 0.1993(4)
C1 C 0.3664(10) 0.6139(7) 0.1793(5)
H1 H 0.2536 0.5658 0.2009
C2 C 0.3466(12) 0.6312(7) 0.0743(5)
H2 H 0.2234 0.5948 0.0263
C3 C 0.5100(12) 0.7023(7) 0.0419(6)
H3 H 0.5020 0.7132 -0.0293
C4 C 0.6881(11) 0.7580(7) 0.1167(6)
H4 H 0.7997 0.8087 0.0972
C5 C 0.6981(10) 0.7372(6) 0.2208(5)
C6 C 0.8893(9) 0.7905(6) 0.3040(5)
C7 C 1.0133(11) 0.9044(7) 0.3068(6)
H5 H 0.9780 0.9510 0.2575
C8 C 1.1894(11) 0.9465(7) 0.3841(6)
H6 H 1.2722 1.0237 0.3890
C9 C 1.2433(10) 0.8750(7) 0.4542(6)
H7 H 1.3665 0.9002 0.5042
C10 C 1.1088(9) 0.7640(6) 0.4483(5)
H8 H 1.1410 0.7164 0.4972
C11 C 0.3161(9) 0.3342(6) 0.3636(5)
C12 C 0.2228(8) 0.2363(5) 0.2548(4)
C13 C 0.3362(9) 0.1296(6) 0.2003(4)
H9 H 0.4724 0.1189 0.2315
C14 C 0.2544(9) 0.0379(6) 0.1011(4)
H10 H 0.3372 -0.0320 0.0663
C15 C 0.0487(9) 0.0488(5) 0.0523(4)
C16 C -0.0625(9) 0.1583(6) 0.1068(4)
H11 H -0.1970 0.1702 0.0749
C17 C 0.0190(9) 0.2506(5) 0.2068(4)
C18 C -0.1199(9) 0.3629(6) 0.2600(5)
Cd1A Cd -0.65904(7) -0.56770(4) -0.38702(3)
Cd1A_2 Cd 0.34096(7) 0.43230(4) 0.61298(3)
Cd1_2 Cd -0.34096(7) 0.56770(4) 0.38702(3)
Cd1_3 Cd -0.34096(7) -0.43230(4) -0.61298(3)
Cd1A_3 Cd 0.34096(7) -0.56770(4) -0.38702(3)
N1A N -0.5404(7) -0.6632(5) -0.2518(4)
N2A N -0.9328(7) -0.7224(5) -0.3742(4)
O1A O -0.3344(6) -0.4521(4) -0.3679(4)
O2A O -0.3678(6) -0.2880(4) -0.4415(3)
O2A_2 O 0.6322(6) 0.7120(4) 0.5585(3)
O2_2 O -0.6322(6) -0.7120(4) -0.5585(3)
O3A O 0.1391(6) -0.3941(4) -0.3641(3)
O3_2 O 0.8609(6) 0.3941(4) 0.3641(3)
O3A_2 O -0.8609(6) -0.3941(4) -0.3641(3)
O4A O 0.2097(10) -0.4187(6) -0.1993(4)
O4_2 O 0.7903(10) 0.4187(6) 0.1993(4)
O4A_2 O -0.7903(10) -0.4187(6) -0.1993(4)
C1A C -0.3664(10) -0.6139(7) -0.1793(5)
H1A H -0.2536 -0.5658 -0.2009
C2A C -0.3466(12) -0.6312(7) -0.0743(5)
H2A H -0.2234 -0.5948 -0.0263
C3A C -0.5100(12) -0.7023(7) -0.0419(6)
H3A H -0.5020 -0.7132 0.0293
C4A C -0.6881(11) -0.7580(7) -0.1167(6)
H4A H -0.7997 -0.8087 -0.0972
C5A C -0.6981(10) -0.7372(6) -0.2208(5)
C6A C -0.8893(9) -0.7905(6) -0.3040(5)
C7A C -1.0133(11) -0.9044(7) -0.3068(6)
H5A H -0.9780 -0.9510 -0.2575
C8A C -1.1894(11) -0.9465(7) -0.3841(6)
H6A H -1.2722 -1.0237 -0.3890
C9A C -1.2433(10) -0.8750(7) -0.4542(6)
H7A H -1.3665 -0.9002 -0.5042
C10A C -1.1088(9) -0.7640(6) -0.4483(5)
H8A H -1.1410 -0.7164 -0.4972
C11A C -0.3161(9) -0.3342(6) -0.3636(5)
C12A C -0.2228(8) -0.2363(5) -0.2548(4)
C13A C -0.3362(9) -0.1296(6) -0.2003(4)
H9A H -0.4724 -0.1189 -0.2315
C14A C -0.2544(9) -0.0379(6) -0.1011(4)
H10A H -0.3372 0.0320 -0.0663
C15A C -0.0487(9) -0.0488(5) -0.0523(4)
C16A C 0.0625(9) -0.1583(6) -0.1068(4)
H11A H 0.1970 -0.1702 -0.0749
C17A C -0.0190(9) -0.2506(5) -0.2068(4)
C18A C 0.1199(9) -0.3629(6) -0.2600(5)
loop_
_geom_bond_atom_site_label_1
_geom_bond_atom_site_label_2
_geom_bond_site_symmetry_1
_geom_bond_site_symmetry_2
Cd1 N1 1_555 1_555
N1 C1 1_555 1_555
N2 Cd1 1_555 1_555
O1 Cd1 1_555 1_555
O2 C11 1_555 1_555
O3 C18 1_555 1_555
O4 C18 1_555 1_555
C1 H1 1_555 1_555
C2 C1 1_555 1_555
H2 C2 1_555 1_555
C3 C2 1_555 1_555
H3 C3 1_555 1_555
C4 C3 1_555 1_555
H4 C4 1_555 1_555
C5 N1 1_555 1_555
C6 N2 1_555 1_555
C7 C6 1_555 1_555
H5 C7 1_555 1_555
C8 C7 1_555 1_555
H6 C8 1_555 1_555
C9 C8 1_555 1_555
H7 C9 1_555 1_555
C10 N2 1_555 1_555
H8 C10 1_555 1_555
C11 O1 1_555 1_555
C12 C11 1_555 1_555
C13 C12 1_555 1_555
H9 C13 1_555 1_555
C14 C13 1_555 1_555
H10 C14 1_555 1_555
C15 C14 1_555 1_555
C16 C15 1_555 1_555
H11 C16 1_555 1_555
C17 C12 1_555 1_555
C18 C17 1_555 1_555
Cd1A N1A 1_555 1_555
Cd1A_2 O2 1_555 1_555
Cd1_2 O3 1_555 1_555
Cd1_3 O2A 1_555 1_555
Cd1A_3 O3A 1_555 1_555
N1A C1A 1_555 1_555
N2A Cd1A 1_555 1_555
O1A Cd1A 1_555 1_555
O2A C11A 1_555 1_555
O2A_2 Cd1 1_555 1_555
O2_2 Cd1A 1_555 1_555
O3A C18A 1_555 1_555
O3_2 Cd1 1_555 1_555
O3A_2 Cd1A 1_555 1_555
O4A Cd1A_3 1_555 1_555
O4_2 Cd1 1_555 1_555
O4A_2 Cd1A 1_555 1_555
C1A H1A 1_555 1_555
C2A C1A 1_555 1_555
H2A C2A 1_555 1_555
C3A C2A 1_555 1_555
H3A C3A 1_555 1_555
C4A C3A 1_555 1_555
H4A C4A 1_555 1_555
C5A N1A 1_555 1_555
C6A N2A 1_555 1_555
C7A C6A 1_555 1_555
H5A C7A 1_555 1_555
C8A C7A 1_555 1_555
H6A C8A 1_555 1_555
C9A C8A 1_555 1_555
H7A C9A 1_555 1_555
C10A N2A 1_555 1_555
H8A C10A 1_555 1_555
C11A O1A 1_555 1_555
C12A C11A 1_555 1_555
C13A C12A 1_555 1_555
H9A C13A 1_555 1_555
C14A C13A 1_555 1_555
H10A C14A 1_555 1_555
C15A C15 1_555 1_555
C16A C15A 1_555 1_555
H11A C16A 1_555 1_555
C17A C12A 1_555 1_555
C18A O4A 1_555 1_555
O4 Cd1_2 1_555 1_555
C4 C5 1_555 1_555
C5 C6 1_555 1_555
C9 C10 1_555 1_555
C16 C17 1_555 1_555
C4A C5A 1_555 1_555
C5A C6A 1_555 1_555
C9A C10A 1_555 1_555
C14A C15A 1_555 1_555
C16A C17A 1_555 1_555
C17A C18A 1_555 1_555

#END
