
#######################################################################
#
#                 Cambridge Crystallographic Data Centre
#                                CCDC 
#
#######################################################################
#
# If this CIF has been generated from an entry in the Cambridge 
# Structural Database, then it will include bibliographic, chemical, 
# crystal, experimental, refinement or atomic coordinate data resulting 
# from the CCDC's data processing and validation procedures.
#
#######################################################################

data_PETXUI
_symmetry_cell_setting           monoclinic
_symmetry_space_group_name_H-M   'P 21/c'
_symmetry_Int_Tables_number      14
_space_group_name_Hall           '-P 2ybc'
loop_
_symmetry_equiv_pos_site_id
_symmetry_equiv_pos_as_xyz
1 x,y,z
2 -x,1/2+y,1/2-z
3 -x,-y,-z
4 x,1/2-y,1/2+z
_cell_length_a                   9.2968(16)
_cell_length_b                   12.435(2)
_cell_length_c                   12.229(2)
_cell_angle_alpha                90
_cell_angle_beta                 93.933(2)
_cell_angle_gamma                90
_cell_volume                     1410.41
loop_
_atom_site_label
_atom_site_type_symbol
_atom_site_fract_x
_atom_site_fract_y
_atom_site_fract_z
Hg1 Hg 0.36892(3) -0.05502(3) -0.38635(2)
Hg2 Hg 0.22959(3) 0.25754(3) -0.49266(2)
Cl1 Cl 0.3097(2) -0.05087(17) -0.57329(15)
Cl2 Cl 0.1776(3) 0.13065(17) -0.34547(17)
Cl3 Cl 0.2152(2) 0.43976(16) -0.41303(18)
Cl4 Cl 0.5531(2) -0.25264(17) -0.4009(2)
N1 N -0.0472(7) -0.2363(5) -0.3716(5)
H1 H -0.0746 -0.2750 -0.3134
N2 N 0.2291(6) -0.1704(5) -0.2646(4)
N3 N 0.4709(7) -0.0156(5) -0.2267(5)
H2 H 0.5619 -0.0405 -0.2220
H3 H 0.4744 0.0564 -0.2189
C1 C 0.0890(8) -0.1238(6) -0.2360(6)
H4 H 0.1039 -0.0498 -0.2126
H5 H 0.0537 -0.1636 -0.1751
C2 C -0.0221(8) -0.1268(6) -0.3308(6)
H6 H -0.1119 -0.0973 -0.3080
H7 H 0.0096 -0.0822 -0.3895
C3 C 0.0904(8) -0.2842(6) -0.4011(6)
H8 H 0.1264 -0.2445 -0.4618
H9 H 0.0740 -0.3579 -0.4247
C4 C 0.2011(9) -0.2823(6) -0.3057(7)
H10 H 0.1678 -0.3261 -0.2469
H11 H 0.2904 -0.3132 -0.3279
C5 C 0.3335(8) -0.1716(6) -0.1679(6)
H12 H 0.4135 -0.2181 -0.1832
H13 H 0.2872 -0.2021 -0.1063
C6 C 0.3910(9) -0.0629(6) -0.1365(6)
H14 H 0.3118 -0.0159 -0.1205
H15 H 0.4551 -0.0688 -0.0707
Hg2B Hg 0.77041(3) -0.25754(3) -0.50734(2)
Hg2B_2 Hg -0.22959(3) -0.25754(3) -0.50734(2)
Cl4B Cl 0.4469(2) 0.25264(17) -0.5991(2)
N1B N 0.0472(7) 0.2363(5) -0.6284(5)
H1B H 0.0746 0.2750 -0.6866
loop_
_geom_bond_atom_site_label_1
_geom_bond_atom_site_label_2
_geom_bond_site_symmetry_1
_geom_bond_site_symmetry_2
Hg1 Cl1 1_555 1_555
Hg2 Cl2 1_555 1_555
Cl2 Hg1 1_555 1_555
Cl3 Hg2 1_555 1_555
Cl4 Hg1 1_555 1_555
N1 H1 1_555 1_555
N2 Hg1 1_555 1_555
N3 Hg1 1_555 1_555
H2 N3 1_555 1_555
H3 N3 1_555 1_555
C1 N2 1_555 1_555
H4 C1 1_555 1_555
H5 C1 1_555 1_555
C2 N1 1_555 1_555
H6 C2 1_555 1_555
H7 C2 1_555 1_555
C3 N1 1_555 1_555
H8 C3 1_555 1_555
H9 C3 1_555 1_555
C4 N2 1_555 1_555
H10 C4 1_555 1_555
H11 C4 1_555 1_555
C5 N2 1_555 1_555
H12 C5 1_555 1_555
H13 C5 1_555 1_555
C6 N3 1_555 1_555
H14 C6 1_555 1_555
H15 C6 1_555 1_555
Hg2B Cl4 1_555 1_555
Hg2B_2 N1 1_555 1_555
Cl4B Hg2 1_555 1_555
N1B Hg2 1_555 1_555
H1B N1B 1_555 1_555
C1 C2 1_555 1_555
C3 C4 1_555 1_555
C5 C6 1_555 1_555

#END
