
#######################################################################
#
#                 Cambridge Crystallographic Data Centre
#                                CCDC 
#
#######################################################################
#
# If this CIF has been generated from an entry in the Cambridge 
# Structural Database, then it will include bibliographic, chemical, 
# crystal, experimental, refinement or atomic coordinate data resulting 
# from the CCDC's data processing and validation procedures.
#
#######################################################################

data_PETXIW
_symmetry_cell_setting           monoclinic
_symmetry_space_group_name_H-M   'C 2/c'
_symmetry_Int_Tables_number      15
_space_group_name_Hall           '-C 2yn'
loop_
_symmetry_equiv_pos_site_id
_symmetry_equiv_pos_as_xyz
1 x,y,z
2 1/2+x,1/2+y,z
3 -x,y,1/2-z
4 1/2-x,1/2+y,1/2-z
5 -x,-y,-z
6 1/2-x,1/2-y,-z
7 x,-y,1/2+z
8 1/2+x,1/2-y,1/2+z
_cell_length_a                   23.6426(12)
_cell_length_b                   12.7960(6)
_cell_length_c                   14.3070(7)
_cell_angle_alpha                90
_cell_angle_beta                 125.6990(10)
_cell_angle_gamma                90
_cell_volume                     3514.99
loop_
_atom_site_label
_atom_site_type_symbol
_atom_site_fract_x
_atom_site_fract_y
_atom_site_fract_z
Cd1 Cd 0.464988(11) 0.669760(15) 0.342136(18)
N1 N 0.51580(14) 0.83424(17) 0.3795(2)
N2 N 0.37535(14) 0.79839(19) 0.2543(2)
O1 O 0.45312(11) 0.69966(16) 0.49470(18)
O2 O 0.38475(11) 0.57860(15) 0.36894(18)
O3 O 0.47587(11) 0.47895(15) 0.61074(18)
O4 O 0.41787(11) 0.37605(14) 0.65246(17)
C1 C 0.58336(18) 0.8519(3) 0.4375(3)
H1 H 0.6133 0.7951 0.4608
C2 C 0.6116(2) 0.9526(3) 0.4651(3)
H2 H 0.6595 0.9620 0.5058
C3 C 0.5692(2) 1.0355(3) 0.4325(3)
H3 H 0.5876 1.1027 0.4503
C4 C 0.4970(2) 1.0206(2) 0.3715(3)
C5 C 0.4482(3) 1.1047(3) 0.3346(3)
H4 H 0.4645 1.1732 0.3511
C6 C 0.3803(3) 1.0874(3) 0.2775(4)
H5 H 0.3502 1.1437 0.2554
C7 C 0.3525(2) 0.9830(3) 0.2490(3)
C8 C 0.2818(2) 0.9605(3) 0.1899(4)
H6 H 0.2502 1.0145 0.1688
C9 C 0.2588(2) 0.8602(4) 0.1630(4)
H7 H 0.2118 0.8445 0.1236
C10 C 0.30815(19) 0.7810(3) 0.1963(3)
H8 H 0.2924 0.7125 0.1762
C11 C 0.39826(18) 0.8983(2) 0.2815(3)
C12 C 0.47168(18) 0.9171(2) 0.3457(3)
C13 C 0.40563(15) 0.6337(2) 0.4565(3)
C14 C 0.36634(14) 0.6273(2) 0.5091(2)
C15 C 0.31748(15) 0.7054(2) 0.4779(2)
H9 H 0.3124 0.7581 0.4288
C16 C 0.27576(15) 0.7075(2) 0.5172(2)
C17 C 0.28487(17) 0.6264(2) 0.5902(3)
H10 H 0.2583 0.6258 0.6189
C18 C 0.33200(17) 0.5478(2) 0.6204(3)
H11 H 0.3359 0.4941 0.6677
C19 C 0.37410(14) 0.5467(2) 0.5819(2)
C20 C 0.42611(15) 0.4616(2) 0.6178(2)
Cd1E Cd 0.035012(11) 0.830240(15) 0.657864(18)
Cd1D Cd 0.535012(11) 0.330240(15) 0.657864(18)
Cd1F Cd 0.464988(11) 0.330240(15) 0.842136(18)
Cd1A Cd -0.035012(11) 1.169760(15) 0.342136(18)
Cd1C Cd 0.035012(11) 1.169760(15) 0.157864(18)
N1E N -0.01580(14) 0.66576(17) 0.6205(2)
N2E N 0.12465(14) 0.70161(19) 0.7457(2)
O1E O 0.04688(11) 0.80034(16) 0.50530(18)
O2E O 0.11525(11) 0.92140(15) 0.63106(18)
O3E O 0.02413(11) 1.02105(15) 0.38926(18)
O3D O 0.52413(11) 0.52105(15) 0.38926(18)
O3A O -0.02413(11) 0.97895(15) 0.61074(18)
O4E O 0.08213(11) 1.12395(14) 0.34754(17)
O4F O 0.41787(11) 0.62395(14) 0.15246(17)
O4C O 0.08213(11) 0.87605(14) 0.84754(17)
C1E C -0.08336(18) 0.6481(3) 0.5625(3)
H1E H -0.1133 0.7049 0.5392
C2E C -0.1116(2) 0.5474(3) 0.5349(3)
H2E H -0.1595 0.5380 0.4942
C3E C -0.0692(2) 0.4645(3) 0.5675(3)
H3E H -0.0876 0.3973 0.5497
C4E C 0.0030(2) 0.4794(2) 0.6285(3)
C5E C 0.0518(3) 0.3953(3) 0.6654(3)
H4E H 0.0355 0.3268 0.6489
C6E C 0.1197(3) 0.4126(3) 0.7225(4)
H5E H 0.1498 0.3563 0.7446
C7E C 0.1475(2) 0.5170(3) 0.7510(3)
C8E C 0.2182(2) 0.5395(3) 0.8101(4)
H6E H 0.2498 0.4855 0.8312
C9E C 0.2412(2) 0.6398(4) 0.8370(4)
H7E H 0.2882 0.6555 0.8764
C10E C 0.19185(19) 0.7190(3) 0.8037(3)
H8E H 0.2076 0.7875 0.8238
C11E C 0.10174(18) 0.6017(2) 0.7185(3)
C12E C 0.02832(18) 0.5829(2) 0.6543(3)
C13E C 0.09437(15) 0.8663(2) 0.5435(3)
C14E C 0.13366(14) 0.8727(2) 0.4909(2)
C15E C 0.18252(15) 0.7946(2) 0.5221(2)
H9E H 0.1876 0.7419 0.5712
C16E C 0.22424(15) 0.7925(2) 0.4828(2)
C17E C 0.21513(17) 0.8736(2) 0.4098(3)
H10E H 0.2417 0.8742 0.3811
C18E C 0.16800(17) 0.9522(2) 0.3796(3)
H11E H 0.1641 1.0059 0.3323
C19E C 0.12590(14) 0.9533(2) 0.4181(2)
C20E C 0.07389(15) 1.0384(2) 0.3822(2)
O5 O 0.59944(17) 0.6511(2) 0.6117(3)
H12 H 0.604(2) 0.5853(9) 0.621(4)
H13 H 0.5584(10) 0.656(3) 0.593(4)
loop_
_geom_bond_atom_site_label_1
_geom_bond_atom_site_label_2
_geom_bond_site_symmetry_1
_geom_bond_site_symmetry_2
Cd1 N1 1_555 1_555
N1 C1 1_555 1_555
N2 Cd1 1_555 1_555
O1 Cd1 1_555 1_555
O2 Cd1 1_555 1_555
O3 C20 1_555 1_555
O4 C20 1_555 1_555
C1 H1 1_555 1_555
C2 C1 1_555 1_555
H2 C2 1_555 1_555
C3 C2 1_555 1_555
H3 C3 1_555 1_555
C4 C3 1_555 1_555
C5 C4 1_555 1_555
H4 C5 1_555 1_555
C6 C5 1_555 1_555
H5 C6 1_555 1_555
C7 C6 1_555 1_555
C8 C7 1_555 1_555
H6 C8 1_555 1_555
C9 C8 1_555 1_555
H7 C9 1_555 1_555
C10 N2 1_555 1_555
H8 C10 1_555 1_555
C11 N2 1_555 1_555
C12 N1 1_555 1_555
C13 O1 1_555 1_555
C14 C13 1_555 1_555
C15 C14 1_555 1_555
H9 C15 1_555 1_555
C16 C15 1_555 1_555
C17 C16 1_555 1_555
H10 C17 1_555 1_555
C18 C17 1_555 1_555
H11 C18 1_555 1_555
C19 C14 1_555 1_555
C20 C19 1_555 1_555
O5 H12 1_555 1_555
H13 O5 1_555 1_555
Cd1E N1E 1_555 1_555
Cd1D O3 1_555 1_555
Cd1F O4 1_555 1_555
Cd1A O3E 1_555 1_555
Cd1C O4E 1_555 1_555
N1E C1E 1_555 1_555
N2E Cd1E 1_555 1_555
O1E Cd1E 1_555 1_555
O2E Cd1E 1_555 1_555
O3E C20E 1_555 1_555
O3D Cd1 1_555 1_555
O3A Cd1E 1_555 1_555
O4E C20E 1_555 1_555
O4F Cd1 1_555 1_555
O4C Cd1E 1_555 1_555
C1E H1E 1_555 1_555
C2E C1E 1_555 1_555
H2E C2E 1_555 1_555
C3E C2E 1_555 1_555
H3E C3E 1_555 1_555
C4E C3E 1_555 1_555
C5E C4E 1_555 1_555
H4E C5E 1_555 1_555
C6E C5E 1_555 1_555
H5E C6E 1_555 1_555
C7E C6E 1_555 1_555
C8E C7E 1_555 1_555
H6E C8E 1_555 1_555
C9E C8E 1_555 1_555
H7E C9E 1_555 1_555
C10E N2E 1_555 1_555
H8E C10E 1_555 1_555
C11E N2E 1_555 1_555
C12E N1E 1_555 1_555
C13E O1E 1_555 1_555
C14E C13E 1_555 1_555
C15E C14E 1_555 1_555
H9E C15E 1_555 1_555
C16E C16 1_555 1_555
C17E C16E 1_555 1_555
H10E C17E 1_555 1_555
C18E C17E 1_555 1_555
H11E C18E 1_555 1_555
C19E C14E 1_555 1_555
C20E C19E 1_555 1_555
O2 C13 1_555 1_555
C4 C12 1_555 1_555
C7 C11 1_555 1_555
C9 C10 1_555 1_555
C11 C12 1_555 1_555
C18 C19 1_555 1_555
O2E C13E 1_555 1_555
C4E C12E 1_555 1_555
C7E C11E 1_555 1_555
C9E C10E 1_555 1_555
C11E C12E 1_555 1_555
C15E C16E 1_555 1_555
C18E C19E 1_555 1_555

#END
