
#######################################################################
#
#                 Cambridge Crystallographic Data Centre
#                                CCDC 
#
#######################################################################
#
# If this CIF has been generated from an entry in the Cambridge 
# Structural Database, then it will include bibliographic, chemical, 
# crystal, experimental, refinement or atomic coordinate data resulting 
# from the CCDC's data processing and validation procedures.
#
#######################################################################

data_PEVBEY
_symmetry_cell_setting           triclinic
_symmetry_space_group_name_H-M   'P -1'
_symmetry_Int_Tables_number      2
_space_group_name_Hall           '-P 1'
loop_
_symmetry_equiv_pos_site_id
_symmetry_equiv_pos_as_xyz
1 x,y,z
2 -x,-y,-z
_cell_length_a                   9.6244(3)
_cell_length_b                   12.71470(10)
_cell_length_c                   14.6305(4)
_cell_angle_alpha                73.042(4)
_cell_angle_beta                 89.280(6)
_cell_angle_gamma                82.927(6)
_cell_volume                     1698.96
loop_
_atom_site_label
_atom_site_type_symbol
_atom_site_fract_x
_atom_site_fract_y
_atom_site_fract_z
Ag1 Ag 0.21495(3) 0.00904(2) -0.406124(17)
Ag2 Ag 0.56573(3) 0.15391(2) -0.693080(17)
Ag3 Ag 0.37472(3) 0.36357(3) -1.626830(19)
Ag4 Ag -0.11544(2) 0.35505(2) 0.184850(19)
N1 N 0.1548(4) -0.1303(3) -0.1935(2)
N2 N 0.4062(3) 0.1274(2) -0.5806(2)
N3 N -0.0214(3) 0.0841(2) -0.42608(17)
N4 N -0.2452(2) 0.1148(2) -0.39614(17)
N5 N 0.4424(3) 0.1557(2) -0.83292(18)
N6 N 0.2704(3) 0.1218(2) -0.91379(18)
N7 N 0.0992(3) 0.3974(2) -1.39891(18)
N8 N 0.2632(3) 0.4034(3) -1.5054(2)
N9 N 0.1666(3) 0.3496(3) 0.2989(2)
N10 N -0.3307(3) 0.3676(3) 0.2710(2)
N11 N -0.2351(3) 0.4093(2) 0.04892(17)
N12 N -0.4038(2) 0.4099(2) -0.05131(16)
C1 C 0.2113(3) -0.1011(3) -0.2611(2)
C2 C 0.3319(3) 0.0941(3) -0.5212(2)
C3 C -0.1207(3) 0.0563(3) -0.3647(2)
H1 H -0.106(4) 0.000(3) -0.304(3)
C4 C -0.0869(4) 0.1642(3) -0.5019(2)
H2 H -0.027(4) 0.190(3) -0.554(3)
C5 C -0.2239(4) 0.1842(3) -0.4843(2)
H3 H -0.297(4) 0.231(3) -0.518(3)
C6 C 0.3060(3) 0.1654(3) -0.8462(2)
H4 H 0.239(4) 0.201(3) -0.813(2)
C7 C 0.4973(4) 0.1031(4) -0.8960(3)
H5 H 0.592(5) 0.080(4) -0.899(3)
C8 C 0.3931(4) 0.0832(4) -0.9468(3)
H6 H 0.396(4) 0.052(3) -0.999(3)
C9 C 0.1296(3) 0.1104(4) -0.9449(3)
H7 H 0.080(4) 0.143(3) -0.904(2)
H8 H 0.130(5) 0.026(4) -0.934(3)
C10 C 0.0963(3) 0.1753(3) -1.0478(2)
C11 C 0.1124(3) 0.1251(3) -1.1196(3)
H9 H 0.140(4) 0.048(3) -1.102(3)
C12 C 0.0784(3) 0.1845(3) -1.2135(2)
H10 H 0.089(4) 0.149(3) -1.267(3)
C13 C 0.0253(3) 0.2960(3) -1.2374(2)
C14 C 0.0097(4) 0.3456(3) -1.1648(2)
H11 H -0.024(4) 0.415(3) -1.180(3)
C15 C 0.0443(4) 0.2864(3) -1.0715(2)
H12 H 0.030(5) 0.310(4) -1.018(3)
C16 C -0.0198(4) 0.3611(4) -1.3391(2)
H13 H -0.084(4) 0.429(3) -1.339(3)
H14 H -0.070(3) 0.316(3) -1.370(2)
C17 C 0.1561(4) 0.3541(3) -1.4660(2)
H15 H 0.120(4) 0.299(3) -1.480(3)
C18 C 0.1756(4) 0.4801(3) -1.3954(3)
H16 H 0.160(5) 0.518(4) -1.353(3)
C19 C 0.2751(4) 0.4828(4) -1.4606(3)
H17 H 0.347(5) 0.531(4) -1.483(3)
C20 C -0.4321(3) 0.3697(2) 0.3060(2)
C21 C 0.0684(3) 0.3466(3) 0.2597(2)
C22 C -0.3438(3) 0.3616(3) 0.0356(2)
H18 H -0.377(4) 0.300(3) 0.078(2)
C23 C -0.2254(4) 0.4923(3) -0.0346(2)
H19 H -0.166(4) 0.531(3) -0.040(3)
C24 C -0.3280(4) 0.4932(3) -0.0961(2)
H20 H -0.348(4) 0.532(3) -0.153(3)
C25 C -0.5213(3) 0.3743(3) -0.0915(2)
H21 H -0.568(4) 0.332(3) -0.031(3)
H22 H -0.584(4) 0.444(3) -0.127(3)
C26 C -0.4771(3) 0.3055(2) -0.15847(19)
C27 C -0.3440(3) 0.2562(4) -0.1619(3)
H23 H -0.282(5) 0.259(4) -0.119(3)
C28 C -0.3105(3) 0.1929(4) -0.2231(3)
H24 H -0.219(5) 0.163(3) -0.222(3)
C29 C -0.4100(3) 0.1781(3) -0.2838(2)
C30 C -0.5443(4) 0.2257(4) -0.2785(3)
H25 H -0.606(5) 0.221(4) -0.325(3)
C31 C -0.5775(4) 0.2890(4) -0.2177(3)
H26 H -0.662(5) 0.317(4) -0.210(3)
C32 C -0.3787(3) 0.1032(3) -0.3468(3)
H27 H -0.4539 0.1188 -0.3943
H28 H -0.3777 0.0269 -0.3079
Ag2A Ag 0.43427(3) -0.15391(2) -0.306920(17)
Ag3_2 Ag 0.37472(3) 0.36357(3) 0.373170(19)
Ag3_3 Ag -0.62528(3) 0.36357(3) 0.373170(19)
N9_2 N 0.1666(3) 0.3496(3) -1.7011(2)
C1A C 0.7887(3) 0.1011(3) -0.7389(2)
C20_2 C 0.5679(3) 0.3697(2) -1.6940(2)
loop_
_geom_bond_atom_site_label_1
_geom_bond_atom_site_label_2
_geom_bond_site_symmetry_1
_geom_bond_site_symmetry_2
Ag1 N3 1_555 1_555
Ag2 N2 1_555 1_555
Ag3 N8 1_555 1_555
Ag4 N10 1_555 1_555
N1 C1 1_555 1_555
N2 C2 1_555 1_555
N3 C3 1_555 1_555
N4 C3 1_555 1_555
N5 Ag2 1_555 1_555
N6 C6 1_555 1_555
N7 C16 1_555 1_555
N8 C17 1_555 1_555
N9 C21 1_555 1_555
N10 C20 1_555 1_555
N11 Ag4 1_555 1_555
N12 C22 1_555 1_555
C1 Ag1 1_555 1_555
C2 Ag1 1_555 1_555
C3 H1 1_555 1_555
C4 N3 1_555 1_555
H2 C4 1_555 1_555
C5 N4 1_555 1_555
H3 C5 1_555 1_555
C6 N5 1_555 1_555
H4 C6 1_555 1_555
C7 N5 1_555 1_555
H5 C7 1_555 1_555
C8 N6 1_555 1_555
H6 C8 1_555 1_555
C9 N6 1_555 1_555
H7 C9 1_555 1_555
H8 C9 1_555 1_555
C10 C9 1_555 1_555
C11 C10 1_555 1_555
H9 C11 1_555 1_555
C12 C11 1_555 1_555
H10 C12 1_555 1_555
C13 C12 1_555 1_555
C14 C13 1_555 1_555
H11 C14 1_555 1_555
C15 C10 1_555 1_555
H12 C15 1_555 1_555
C16 C13 1_555 1_555
H13 C16 1_555 1_555
H14 C16 1_555 1_555
C17 N7 1_555 1_555
H15 C17 1_555 1_555
C18 N7 1_555 1_555
H16 C18 1_555 1_555
C19 N8 1_555 1_555
H17 C19 1_555 1_555
C20 Ag3_3 1_555 1_555
C21 Ag4 1_555 1_555
C22 N11 1_555 1_555
H18 C22 1_555 1_555
C23 N11 1_555 1_555
H19 C23 1_555 1_555
C24 N12 1_555 1_555
H20 C24 1_555 1_555
C25 N12 1_555 1_555
H21 C25 1_555 1_555
H22 C25 1_555 1_555
C26 C25 1_555 1_555
C27 C26 1_555 1_555
H23 C27 1_555 1_555
C28 C27 1_555 1_555
H24 C28 1_555 1_555
C29 C28 1_555 1_555
C30 C29 1_555 1_555
H25 C30 1_555 1_555
C31 C26 1_555 1_555
H26 C31 1_555 1_555
C32 N4 1_555 1_555
H27 C32 1_555 1_555
H28 C32 1_555 1_555
Ag2A C1 1_555 1_555
Ag3_2 N9 1_555 1_555
N9_2 Ag3 1_555 1_555
C1A Ag2 1_555 1_555
C20_2 Ag3 1_555 1_555
C4 C5 1_555 1_555
C7 C8 1_555 1_555
C14 C15 1_555 1_555
C18 C19 1_555 1_555
C23 C24 1_555 1_555
C29 C32 1_555 1_555
C30 C31 1_555 1_555

#END
