
#######################################################################
#
#                 Cambridge Crystallographic Data Centre
#                                CCDC 
#
#######################################################################
#
# If this CIF has been generated from an entry in the Cambridge 
# Structural Database, then it will include bibliographic, chemical, 
# crystal, experimental, refinement or atomic coordinate data resulting 
# from the CCDC's data processing and validation procedures.
#
#######################################################################

data_PEVBAU
_symmetry_cell_setting           monoclinic
_symmetry_space_group_name_H-M   'P 21/n'
_symmetry_Int_Tables_number      14
_space_group_name_Hall           '-P 2yn'
loop_
_symmetry_equiv_pos_site_id
_symmetry_equiv_pos_as_xyz
1 x,y,z
2 1/2-x,1/2+y,1/2-z
3 -x,-y,-z
4 1/2+x,1/2-y,1/2+z
_cell_length_a                   9.635(3)
_cell_length_b                   7.550(2)
_cell_length_c                   20.940(7)
_cell_angle_alpha                90
_cell_angle_beta                 100.135(7)
_cell_angle_gamma                90
_cell_volume                     1499.5
loop_
_atom_site_label
_atom_site_type_symbol
_atom_site_fract_x
_atom_site_fract_y
_atom_site_fract_z
Ag1 Ag 0.96725(3) 0.81350(3) 0.501077(13)
N1 N 1.2616(3) 0.8751(5) 0.59679(19)
N2 N 0.9476(3) 0.6970(3) 0.39917(12)
N3 N 0.8971(2) 0.5433(3) 0.30932(11)
N4 N 1.1189(2) -0.0369(4) 0.07110(11)
N5 N 1.2699(2) -0.2124(3) 0.03592(11)
C1 C 1.1625(3) 0.8736(4) 0.56039(15)
C2 C 0.8841(3) 0.5559(4) 0.37173(14)
H1 H 0.833(3) 0.477(4) 0.3885(15)
C3 C 1.0051(4) 0.7785(4) 0.35192(17)
H2 H 1.054(3) 0.884(5) 0.3604(15)
C4 C 0.9759(4) 0.6855(4) 0.29639(17)
H3 H 0.992(5) 0.701(5) 0.254(2)
C5 C 0.8411(3) 0.4015(5) 0.26459(19)
H4 H 0.779(4) 0.452(5) 0.227(2)
H5 H 0.782(5) 0.335(5) 0.283(2)
C6 C 0.9561(3) 0.2906(3) 0.24411(13)
C7 C 0.9541(3) 0.2564(4) 0.17966(14)
H6 H 0.884(4) 0.306(4) 0.1501(17)
C8 C 1.0559(3) 0.1506(4) 0.15971(13)
C9 C 1.1616(3) 0.0782(4) 0.20576(13)
H7 H 1.230(3) 0.008(4) 0.1925(16)
C10 C 1.1648(3) 0.1136(4) 0.27038(13)
H8 H 1.233(4) 0.065(5) 0.2985(17)
C11 C 1.0630(3) 0.2180(4) 0.28988(13)
H9 H 1.062(3) 0.234(4) 0.3342(17)
C12 C 1.0534(5) 0.1265(6) 0.08761(15)
H10 H 0.9562 0.1286 0.0653
H11 H 1.1016 0.2259 0.0718
C13 C 1.0710(4) -0.2036(5) 0.07482(15)
H12 H 1.003(4) -0.235(5) 0.0895(19)
C14 C 1.1634(4) -0.3114(5) 0.05306(16)
H13 H 1.166(3) -0.431(5) 0.0485(16)
C15 C 1.2389(3) -0.0497(4) 0.04803(13)
H14 H 1.289(3) 0.050(5) 0.0394(16)
Ag1C Ag 1.46725(3) -0.31350(3) 0.001077(13)
N5C N 0.7699(2) 0.7124(3) 0.53592(11)
loop_
_geom_bond_atom_site_label_1
_geom_bond_atom_site_label_2
_geom_bond_site_symmetry_1
_geom_bond_site_symmetry_2
Ag1 N2 1_555 1_555
N1 C1 1_555 1_555
N2 C2 1_555 1_555
N3 C2 1_555 1_555
N4 C12 1_555 1_555
N5 C14 1_555 1_555
C1 Ag1 1_555 1_555
C2 H1 1_555 1_555
C3 N2 1_555 1_555
H2 C3 1_555 1_555
C4 N3 1_555 1_555
H3 C4 1_555 1_555
C5 N3 1_555 1_555
H4 C5 1_555 1_555
H5 C5 1_555 1_555
C6 C5 1_555 1_555
C7 C6 1_555 1_555
H6 C7 1_555 1_555
C8 C7 1_555 1_555
C9 C8 1_555 1_555
H7 C9 1_555 1_555
C10 C9 1_555 1_555
H8 C10 1_555 1_555
C11 C6 1_555 1_555
H9 C11 1_555 1_555
C12 C8 1_555 1_555
H10 C12 1_555 1_555
H11 C12 1_555 1_555
C13 N4 1_555 1_555
H12 C13 1_555 1_555
C14 C13 1_555 1_555
H13 C14 1_555 1_555
C15 N4 1_555 1_555
H14 C15 1_555 1_555
Ag1C N5 1_555 1_555
N5C Ag1 1_555 1_555
N5 C15 1_555 1_555
C3 C4 1_555 1_555
C10 C11 1_555 1_555

#END
