
#######################################################################
#
#                 Cambridge Crystallographic Data Centre
#                                CCDC 
#
#######################################################################
#
# If this CIF has been generated from an entry in the Cambridge 
# Structural Database, then it will include bibliographic, chemical, 
# crystal, experimental, refinement or atomic coordinate data resulting 
# from the CCDC's data processing and validation procedures.
#
#######################################################################

data_PEVCOJ
_symmetry_cell_setting           monoclinic
_symmetry_space_group_name_H-M   'P 21/n'
_symmetry_Int_Tables_number      14
_space_group_name_Hall           '-P 2yn'
loop_
_symmetry_equiv_pos_site_id
_symmetry_equiv_pos_as_xyz
1 x,y,z
2 1/2-x,1/2+y,1/2-z
3 -x,-y,-z
4 1/2+x,1/2-y,1/2+z
_cell_length_a                   7.7055(15)
_cell_length_b                   8.7676(17)
_cell_length_c                   13.806(3)
_cell_angle_alpha                90
_cell_angle_beta                 90.262(4)
_cell_angle_gamma                90
_cell_volume                     932.706
loop_
_atom_site_label
_atom_site_type_symbol
_atom_site_fract_x
_atom_site_fract_y
_atom_site_fract_z
Cd1 Cd 0.5000 -0.5000 0.0000
N1 N 0.46081(18) -0.30825(17) 0.11929(12)
H1 H 0.519(3) -0.348(2) 0.1782(18)
H2 H 0.513(3) -0.225(3) 0.1012(17)
C1 C 0.28600(19) -0.27252(17) 0.14315(13)
C2 C 0.1945(2) -0.15851(19) 0.09280(13)
H3 H 0.2507 -0.1021 0.0431
C3 C 0.0223(2) -0.1280(2) 0.11539(13)
H4 H -0.0390 -0.0510 0.0812
C4 C -0.0597(2) -0.20961(19) 0.18742(13)
H5 H -0.1773 -0.1890 0.2035
C5 C 0.0328(2) -0.32369(18) 0.23683(12)
C6 C -0.0478(2) -0.40846(18) 0.31361(13)
N2 N -0.1107(2) -0.47771(17) 0.37448(14)
C7 C 0.2047(2) -0.35628(18) 0.21493(13)
H6 H 0.2653 -0.4345 0.2485
N3 N 0.72544(18) -0.59257(17) 0.09678(11)
C8 C 0.8609(2) -0.64646(19) 0.11144(13)
N4 N 1.00476(18) -0.71585(18) 0.13695(12)
N5 N 1.28792(18) -0.65568(17) 0.06726(12)
C9 C 1.1511(2) -0.67808(18) 0.09679(13)
Cd1_2 Cd 1.5000 -0.5000 0.0000
Cd1_3 Cd -0.5000 -0.5000 0.0000
N1B N 0.53919(18) -0.69175(17) -0.11929(12)
H1B H 0.481(3) -0.652(2) -0.1782(18)
H2B H 0.487(3) -0.775(3) -0.1012(17)
C1B C 0.71400(19) -0.72748(17) -0.14315(13)
C2B C 0.8055(2) -0.84149(19) -0.09280(13)
H3B H 0.7493 -0.8979 -0.0431
C3B C 0.9777(2) -0.8720(2) -0.11539(13)
H4B H 1.0390 -0.9490 -0.0812
C4B C 1.0597(2) -0.79039(19) -0.18742(13)
H5B H 1.1773 -0.8110 -0.2035
C5B C 0.9672(2) -0.67631(18) -0.23683(12)
C6B C 1.0478(2) -0.59154(18) -0.31361(13)
N2B N 1.1107(2) -0.52229(17) -0.37448(14)
C7B C 0.7953(2) -0.64372(18) -0.21493(13)
H6B H 0.7347 -0.5655 -0.2485
N3B N 0.27456(18) -0.40743(17) -0.09678(11)
C8B C 0.1391(2) -0.35354(19) -0.11144(13)
N4B N -0.00476(18) -0.28415(18) -0.13695(12)
N5_2 N 0.28792(18) -0.65568(17) 0.06726(12)
N5B N 0.71208(18) -0.34432(17) -0.06726(12)
N5B_2 N -0.28792(18) -0.34432(17) -0.06726(12)
C9B C -0.1511(2) -0.32192(18) -0.09679(13)
loop_
_geom_bond_atom_site_label_1
_geom_bond_atom_site_label_2
_geom_bond_site_symmetry_1
_geom_bond_site_symmetry_2
Cd1 N1 1_555 1_555
N1 H1 1_555 1_555
H2 N1 1_555 1_555
C1 N1 1_555 1_555
C2 C1 1_555 1_555
H3 C2 1_555 1_555
C3 C2 1_555 1_555
H4 C3 1_555 1_555
C4 C3 1_555 1_555
H5 C4 1_555 1_555
C5 C4 1_555 1_555
C6 C5 1_555 1_555
N2 C6 1_555 1_555
C7 C1 1_555 1_555
H6 C7 1_555 1_555
N3 Cd1 1_555 1_555
C8 N3 1_555 1_555
N4 C8 1_555 1_555
N5 C9 1_555 1_555
C9 N4 1_555 1_555
Cd1_2 N5 1_555 1_555
Cd1_3 N5B_2 1_555 1_555
N1B Cd1 1_555 1_555
H1B N1B 1_555 1_555
H2B N1B 1_555 1_555
C1B N1B 1_555 1_555
C2B C1B 1_555 1_555
H3B C2B 1_555 1_555
C3B C2B 1_555 1_555
H4B C3B 1_555 1_555
C4B C3B 1_555 1_555
H5B C4B 1_555 1_555
C5B C4B 1_555 1_555
C6B C5B 1_555 1_555
N2B C6B 1_555 1_555
C7B C1B 1_555 1_555
H6B C7B 1_555 1_555
N3B Cd1 1_555 1_555
C8B N3B 1_555 1_555
N4B C8B 1_555 1_555
N5_2 Cd1 1_555 1_555
N5B Cd1 1_555 1_555
N5B_2 C9B 1_555 1_555
C9B N4B 1_555 1_555
C5 C7 1_555 1_555
C5B C7B 1_555 1_555

#END
