
#######################################################################
#
#                 Cambridge Crystallographic Data Centre
#                                CCDC 
#
#######################################################################
#
# If this CIF has been generated from an entry in the Cambridge 
# Structural Database, then it will include bibliographic, chemical, 
# crystal, experimental, refinement or atomic coordinate data resulting 
# from the CCDC's data processing and validation procedures.
#
#######################################################################

data_PEVCID
_symmetry_cell_setting           triclinic
_symmetry_space_group_name_H-M   'P -1'
_symmetry_Int_Tables_number      2
_space_group_name_Hall           '-P 1'
loop_
_symmetry_equiv_pos_site_id
_symmetry_equiv_pos_as_xyz
1 x,y,z
2 -x,-y,-z
_cell_length_a                   7.2105(8)
_cell_length_b                   7.9475(9)
_cell_length_c                   9.4240(10)
_cell_angle_alpha                99.740(4)
_cell_angle_beta                 110.095(4)
_cell_angle_gamma                109.258(4)
_cell_volume                     453.835
loop_
_atom_site_label
_atom_site_type_symbol
_atom_site_fract_x
_atom_site_fract_y
_atom_site_fract_z
Cu1 Cu 0.0000 0.0000 0.0000
N1 N 0.16782(19) -0.08866(16) 0.17335(13)
H1 H 0.228(3) -0.134(2) 0.136(2)
H2 H 0.073(3) -0.172(3) 0.178(2)
C1 C 0.3166(2) 0.05706(17) 0.32116(15)
C2 C 0.2395(2) 0.10998(19) 0.43036(16)
H3 H 0.0920 0.0426 0.4097
C3 C 0.3778(2) 0.26095(19) 0.56911(16)
H4 H 0.3258 0.2972 0.6438
C4 C 0.5949(2) 0.35931(18) 0.59789(15)
C5 C 0.6730(2) 0.30470(19) 0.49017(16)
H5 H 0.8210 0.3707 0.5114
C6 C 0.5338(2) 0.15349(19) 0.35157(16)
H6 H 0.5863 0.1159 0.2777
C7 C 0.7351(2) 0.52538(19) 0.73573(16)
N2 N 0.8457(2) 0.66131(17) 0.84146(14)
C8 C 0.4165(2) 0.17864(18) -0.03712(15)
N3 N 0.24683(19) 0.07078(17) -0.05846(14)
C9 C 0.7278(2) 0.44268(19) 0.09741(16)
N4 N 0.6048(2) 0.28578(17) -0.02575(15)
N5 N 0.8457(2) 0.58180(17) 0.20052(15)
Cu1_2 Cu 1.0000 1.0000 1.0000
Cu1_3 Cu -1.0000 -1.0000 -1.0000
N1A N -0.16782(19) 0.08866(16) -0.17335(13)
H1A H -0.228(3) 0.134(2) -0.136(2)
H2A H -0.073(3) 0.172(3) -0.178(2)
C1A C -0.3166(2) -0.05706(17) -0.32116(15)
C2A C -0.2395(2) -0.10998(19) -0.43036(16)
H3A H -0.0920 -0.0426 -0.4097
C3A C -0.3778(2) -0.26095(19) -0.56911(16)
H4A H -0.3258 -0.2972 -0.6438
C4A C -0.5949(2) -0.35931(18) -0.59789(15)
C5A C -0.6730(2) -0.30470(19) -0.49017(16)
H5A H -0.8210 -0.3707 -0.5114
C6A C -0.5338(2) -0.15349(19) -0.35157(16)
H6A H -0.5863 -0.1159 -0.2777
C7A C -0.7351(2) -0.52538(19) -0.73573(16)
N2_2 N -0.1543(2) -0.33869(17) -0.15854(14)
N2A N 0.1543(2) 0.33869(17) 0.15854(14)
N2A_2 N -0.8457(2) -0.66131(17) -0.84146(14)
C8A C -0.4165(2) -0.17864(18) 0.03712(15)
N3A N -0.24683(19) -0.07078(17) 0.05846(14)
C9A C -0.7278(2) -0.44268(19) -0.09741(16)
N4A N -0.6048(2) -0.28578(17) 0.02575(15)
N5A N -0.8457(2) -0.58180(17) -0.20052(15)
loop_
_geom_bond_atom_site_label_1
_geom_bond_atom_site_label_2
_geom_bond_site_symmetry_1
_geom_bond_site_symmetry_2
Cu1 N1 1_555 1_555
N1 H1 1_555 1_555
H2 N1 1_555 1_555
C1 N1 1_555 1_555
C2 C1 1_555 1_555
H3 C2 1_555 1_555
C3 C2 1_555 1_555
H4 C3 1_555 1_555
C4 C3 1_555 1_555
C5 C4 1_555 1_555
H5 C5 1_555 1_555
C6 C1 1_555 1_555
H6 C6 1_555 1_555
C7 C4 1_555 1_555
N2 C7 1_555 1_555
C8 N3 1_555 1_555
N3 Cu1 1_555 1_555
C9 N4 1_555 1_555
N4 C8 1_555 1_555
N5 C9 1_555 1_555
Cu1_2 N2 1_555 1_555
Cu1_3 N2A_2 1_555 1_555
N1A Cu1 1_555 1_555
H1A N1A 1_555 1_555
H2A N1A 1_555 1_555
C1A N1A 1_555 1_555
C2A C1A 1_555 1_555
H3A C2A 1_555 1_555
C3A C2A 1_555 1_555
H4A C3A 1_555 1_555
C4A C3A 1_555 1_555
C5A C4A 1_555 1_555
H5A C5A 1_555 1_555
C6A C1A 1_555 1_555
H6A C6A 1_555 1_555
C7A C4A 1_555 1_555
N2_2 Cu1 1_555 1_555
N2A Cu1 1_555 1_555
N2A_2 C7A 1_555 1_555
C8A N3A 1_555 1_555
N3A Cu1 1_555 1_555
C9A N4A 1_555 1_555
N4A C8A 1_555 1_555
N5A C9A 1_555 1_555
C5 C6 1_555 1_555
C5A C6A 1_555 1_555

#END
