
#######################################################################
#
#                 Cambridge Crystallographic Data Centre
#                                CCDC 
#
#######################################################################
#
# If this CIF has been generated from an entry in the Cambridge 
# Structural Database, then it will include bibliographic, chemical, 
# crystal, experimental, refinement or atomic coordinate data resulting 
# from the CCDC's data processing and validation procedures.
#
#######################################################################

data_PEVCEZ
_symmetry_cell_setting           triclinic
_symmetry_space_group_name_H-M   'P -1'
_symmetry_Int_Tables_number      2
_space_group_name_Hall           '-P 1'
loop_
_symmetry_equiv_pos_site_id
_symmetry_equiv_pos_as_xyz
1 x,y,z
2 -x,-y,-z
_cell_length_a                   7.1128(2)
_cell_length_b                   7.1730(4)
_cell_length_c                   9.8358(6)
_cell_angle_alpha                89.511(3)
_cell_angle_beta                 85.069(3)
_cell_angle_gamma                71.300(3)
_cell_volume                     473.477
loop_
_atom_site_label
_atom_site_type_symbol
_atom_site_fract_x
_atom_site_fract_y
_atom_site_fract_z
Cu1 Cu 0.0000 0.0000 0.0000
N1 N 0.2484(4) -0.0870(5) -0.1206(3)
C1 C 0.4093(4) -0.1266(5) -0.1667(3)
N2 N 0.5868(4) -0.1764(6) -0.2298(3)
C2 C 0.7278(4) -0.1431(5) -0.1700(3)
N3 N 0.8617(4) -0.1168(5) -0.1257(3)
N4 N -0.0971(4) 0.3320(5) -0.1198(3)
C3 C -0.1255(5) 0.3143(5) -0.2572(3)
C4 C 0.0339(6) 0.2804(7) -0.3562(4)
C5 C 0.0085(7) 0.2547(7) -0.4920(4)
C6 C -0.1751(8) 0.2586(7) -0.5310(4)
C7 C -0.3331(6) 0.2907(6) -0.4357(4)
C8 C -0.3107(5) 0.3187(5) -0.2981(4)
C9 C -0.4787(5) 0.3526(6) -0.1985(4)
N5 N -0.6145(5) 0.3792(6) -0.1204(4)
H1 H 0.1702 0.2744 -0.3289
H2 H 0.1257 0.2355 -0.5633
H3 H -0.1905 0.2360 -0.6311
H4 H -0.4688 0.2945 -0.4641
H5 H -0.2067 0.3954 -0.0634
H6 H 0.0104 0.3546 -0.1034
Cu1_2 Cu 1.0000 0.0000 0.0000
Cu1_3 Cu -1.0000 0.0000 0.0000
N1A N -0.2484(4) 0.0870(5) 0.1206(3)
C1A C -0.4093(4) 0.1266(5) 0.1667(3)
N2A N -0.5868(4) 0.1764(6) 0.2298(3)
C2A C -0.7278(4) 0.1431(5) 0.1700(3)
N3_2 N -0.1383(4) -0.1168(5) -0.1257(3)
N3A N 0.1383(4) 0.1168(5) 0.1257(3)
N3A_2 N -0.8617(4) 0.1168(5) 0.1257(3)
N4A N 0.0971(4) -0.3320(5) 0.1198(3)
C3A C 0.1255(5) -0.3143(5) 0.2572(3)
C4A C -0.0339(6) -0.2804(7) 0.3562(4)
C5A C -0.0085(7) -0.2547(7) 0.4920(4)
C6A C 0.1751(8) -0.2586(7) 0.5310(4)
C7A C 0.3331(6) -0.2907(6) 0.4357(4)
C8A C 0.3107(5) -0.3187(5) 0.2981(4)
C9A C 0.4787(5) -0.3526(6) 0.1985(4)
N5A N 0.6145(5) -0.3792(6) 0.1204(4)
H1A H -0.1702 -0.2744 0.3289
H2A H -0.1257 -0.2355 0.5633
H3A H 0.1905 -0.2360 0.6311
H4A H 0.4688 -0.2945 0.4641
H5A H 0.2067 -0.3954 0.0634
H6A H -0.0104 -0.3546 0.1034
loop_
_geom_bond_atom_site_label_1
_geom_bond_atom_site_label_2
_geom_bond_site_symmetry_1
_geom_bond_site_symmetry_2
Cu1 N1 1_555 1_555
N1 C1 1_555 1_555
C1 N2 1_555 1_555
N2 C2 1_555 1_555
C2 N3 1_555 1_555
N3 Cu1_2 1_555 1_555
N4 Cu1 1_555 1_555
C3 N4 1_555 1_555
C4 C3 1_555 1_555
C5 C4 1_555 1_555
C6 C5 1_555 1_555
C7 C6 1_555 1_555
C8 C3 1_555 1_555
C9 C8 1_555 1_555
N5 C9 1_555 1_555
H1 C4 1_555 1_555
H2 C5 1_555 1_555
H3 C6 1_555 1_555
H4 C7 1_555 1_555
H5 N4 1_555 1_555
H6 N4 1_555 1_555
Cu1_3 N3A_2 1_555 1_555
N1A Cu1 1_555 1_555
C1A N1A 1_555 1_555
N2A C1A 1_555 1_555
C2A N2A 1_555 1_555
N3_2 Cu1 1_555 1_555
N3A Cu1 1_555 1_555
N3A_2 C2A 1_555 1_555
N4A Cu1 1_555 1_555
C3A N4A 1_555 1_555
C4A C3A 1_555 1_555
C5A C4A 1_555 1_555
C6A C5A 1_555 1_555
C7A C6A 1_555 1_555
C8A C3A 1_555 1_555
C9A C8A 1_555 1_555
N5A C9A 1_555 1_555
H1A C4A 1_555 1_555
H2A C5A 1_555 1_555
H3A C6A 1_555 1_555
H4A C7A 1_555 1_555
H5A N4A 1_555 1_555
H6A N4A 1_555 1_555
C7 C8 1_555 1_555
C7A C8A 1_555 1_555

#END
