
#######################################################################
#
#                 Cambridge Crystallographic Data Centre
#                                CCDC 
#
#######################################################################
#
# If this CIF has been generated from an entry in the Cambridge 
# Structural Database, then it will include bibliographic, chemical, 
# crystal, experimental, refinement or atomic coordinate data resulting 
# from the CCDC's data processing and validation procedures.
#
#######################################################################

data_PEVJUW
_symmetry_cell_setting           monoclinic
_symmetry_space_group_name_H-M   'P 21/c'
_symmetry_Int_Tables_number      14
_space_group_name_Hall           '-P 2ybc'
loop_
_symmetry_equiv_pos_site_id
_symmetry_equiv_pos_as_xyz
1 x,y,z
2 -x,1/2+y,1/2-z
3 -x,-y,-z
4 x,1/2-y,1/2+z
_cell_length_a                   18.250(2)
_cell_length_b                   15.5440(18)
_cell_length_c                   8.5761(10)
_cell_angle_alpha                90
_cell_angle_beta                 90.579(3)
_cell_angle_gamma                90
_cell_volume                     2432.73
loop_
_atom_site_label
_atom_site_type_symbol
_atom_site_fract_x
_atom_site_fract_y
_atom_site_fract_z
Cd1 Cd 0.182135(15) 0.514526(19) 0.54043(4)
O1 O 0.29026(16) 0.5782(2) 0.4831(4)
O2 O 0.30649(16) 0.4688(2) 0.6390(5)
O3 O 0.14095(18) 0.5132(2) 0.2870(4)
O4 O 0.07371(17) 0.5851(2) 0.4457(4)
N1 N 0.16656(18) 0.5899(2) 0.7635(4)
N2 N 0.20701(18) 0.6575(2) 0.9710(4)
N3 N 0.84411(18) 0.8739(2) 0.9255(5)
N4 N 0.82517(18) 0.7365(2) 0.8878(5)
C1 C 0.3312(2) 0.5310(3) 0.5655(6)
C2 C 0.4118(2) 0.5516(3) 0.5782(7)
H1 H 0.4204 0.6078 0.5326
H2 H 0.4256 0.5547 0.6876
C3 C 0.4597(2) 0.4870(3) 0.4993(6)
H3 H 0.4432 0.4801 0.3922
H4 H 0.4546 0.4319 0.5511
C4 C 0.0833(2) 0.5524(3) 0.3160(6)
C5 C 0.0257(2) 0.5621(3) 0.1900(6)
H5 H 0.0307 0.6186 0.1432
H6 H -0.0222 0.5595 0.2377
C6 C 0.0291(2) 0.4951(3) 0.0626(6)
H7 H 0.0769 0.4980 0.0144
H8 H 0.0244 0.4386 0.1094
C7 C 0.2171(2) 0.5927(3) 0.8738(6)
H9 H 0.2555 0.5536 0.8824
C8 C 0.1214(2) 0.6584(3) 0.7939(6)
H10 H 0.0802 0.6734 0.7354
C9 C 0.1459(2) 0.7005(3) 0.9208(6)
H11 H 0.1253 0.7492 0.9657
C10 C 0.2546(2) 0.6780(3) 1.1070(6)
H12 H 0.2436 0.6393 1.1922
H13 H 0.2449 0.7363 1.1416
C11 C 0.3342(2) 0.6695(3) 1.0645(5)
C12 C 0.3650(3) 0.7268(3) 0.9608(6)
H14 H 0.3363 0.7703 0.9178
C13 C 0.4373(2) 0.7205(3) 0.9201(6)
H15 H 0.4567 0.7599 0.8502
C14 C 0.4823(2) 0.6562(3) 0.9814(5)
C15 C 0.4508(2) 0.5986(3) 1.0845(5)
H16 H 0.4793 0.5548 1.1274
C16 C 0.3778(2) 0.6050(3) 1.1243(5)
H17 H 0.3579 0.5650 1.1926
C17 C 0.5613(2) 0.6522(3) 0.9414(5)
C18 C 0.6131(2) 0.6248(3) 1.0485(6)
H18 H 0.5984 0.6061 1.1463
C19 C 0.6866(2) 0.6248(3) 1.0122(6)
H19 H 0.7206 0.6059 1.0860
C20 C 0.7106(2) 0.6523(3) 0.8679(6)
C21 C 0.6586(3) 0.6779(3) 0.7596(6)
H20 H 0.6733 0.6953 0.6610
C22 C 0.5849(3) 0.6781(3) 0.7957(6)
H21 H 0.5508 0.6959 0.7212
C23 C 0.7911(3) 0.6556(3) 0.8333(7)
H22 H 0.8154 0.6074 0.8836
H23 H 0.7980 0.6501 0.7218
C24 C 0.7970(2) 0.8149(3) 0.8787(6)
H24 H 0.7497 0.8268 0.8436
C25 C 0.8951(2) 0.7455(3) 0.9431(7)
H25 H 0.9288 0.7016 0.9608
C26 C 0.9061(2) 0.8299(3) 0.9669(7)
H26 H 0.9491 0.8545 1.0054
Cd1B Cd 0.817865(15) 0.485474(19) 0.45957(4)
Cd1A Cd 0.817865(15) 1.014526(19) 0.95957(4)
Cd1B_2 Cd -0.182135(15) 0.485474(19) -0.54043(4)
Cd1A_2 Cd 0.817865(15) 0.014526(19) 0.95957(4)
O1B O 0.70974(16) 0.4218(2) 0.5169(4)
O2B O 0.69351(16) 0.5312(2) 0.3610(5)
O3B O -0.14095(18) 0.4868(2) -0.2870(4)
O3B_2 O 0.85905(18) 0.4868(2) 0.7130(4)
O4B O -0.07371(17) 0.4149(2) -0.4457(4)
O4B_2 O 0.92629(17) 0.4149(2) 0.5543(4)
N1A N 0.83344(18) 0.0899(2) 0.7365(4)
N1B N 0.83344(18) 0.4101(2) 0.2365(4)
N2A N 0.79299(18) 0.1575(2) 0.5290(4)
N3A N 0.15589(18) 0.3739(2) 0.5745(5)
N3C N 0.84411(18) 0.6261(2) 0.4255(5)
N4A N 0.17483(18) 0.2365(2) 0.6122(5)
C1B C 0.6688(2) 0.4690(3) 0.4345(6)
C2B C 0.5882(2) 0.4484(3) 0.4218(7)
H1B H 0.5796 0.3922 0.4674
H2B H 0.5744 0.4453 0.3124
C3B C 0.5403(2) 0.5130(3) 0.5007(6)
H3B H 0.5568 0.5199 0.6078
H4B H 0.5454 0.5681 0.4489
C4B C -0.0833(2) 0.4476(3) -0.3160(6)
C5B C -0.0257(2) 0.4379(3) -0.1900(6)
H5B H -0.0307 0.3814 -0.1432
H6B H 0.0222 0.4405 -0.2377
C6B C -0.0291(2) 0.5049(3) -0.0626(6)
H7B H -0.0769 0.5020 -0.0144
H8B H -0.0244 0.5614 -0.1094
C7A C 0.7829(2) 0.0927(3) 0.6262(6)
H9A H 0.7445 0.0536 0.6176
C8A C 0.8786(2) 0.1584(3) 0.7061(6)
H10A H 0.9198 0.1734 0.7646
C9A C 0.8541(2) 0.2005(3) 0.5792(6)
H11A H 0.8747 0.2492 0.5343
C10A C 0.7454(2) 0.1780(3) 0.3930(6)
H12A H 0.7564 0.1393 0.3078
H13A H 0.7551 0.2363 0.3584
C11A C 0.6658(2) 0.1695(3) 0.4355(5)
C12A C 0.6350(3) 0.2268(3) 0.5392(6)
H14A H 0.6637 0.2703 0.5822
C13A C 0.5627(2) 0.2205(3) 0.5799(6)
H15A H 0.5433 0.2599 0.6498
C14A C 0.5177(2) 0.1562(3) 0.5186(5)
C15A C 0.5492(2) 0.0986(3) 0.4155(5)
H16A H 0.5207 0.0548 0.3726
C16A C 0.6222(2) 0.1050(3) 0.3757(5)
H17A H 0.6421 0.0650 0.3074
C17A C 0.4387(2) 0.1522(3) 0.5586(5)
C18A C 0.3869(2) 0.1248(3) 0.4515(6)
H18A H 0.4016 0.1061 0.3537
C19A C 0.3134(2) 0.1248(3) 0.4878(6)
H19A H 0.2794 0.1059 0.4140
C20A C 0.2894(2) 0.1523(3) 0.6321(6)
C21A C 0.3414(3) 0.1779(3) 0.7404(6)
H20A H 0.3267 0.1953 0.8390
C22A C 0.4151(3) 0.1781(3) 0.7043(6)
H21A H 0.4492 0.1959 0.7788
C23A C 0.2089(3) 0.1556(3) 0.6667(7)
H22A H 0.1846 0.1074 0.6164
H23A H 0.2020 0.1501 0.7782
C24A C 0.2030(2) 0.3149(3) 0.6213(6)
H24A H 0.2503 0.3268 0.6564
C25A C 0.1049(2) 0.2455(3) 0.5569(7)
H25A H 0.0712 0.2016 0.5392
C26A C 0.0939(2) 0.3299(3) 0.5331(7)
H26A H 0.0509 0.3545 0.4946
loop_
_geom_bond_atom_site_label_1
_geom_bond_atom_site_label_2
_geom_bond_site_symmetry_1
_geom_bond_site_symmetry_2
Cd1 O1 1_555 1_555
O1 C1 1_555 1_555
O2 Cd1 1_555 1_555
O3 Cd1 1_555 1_555
O4 Cd1 1_555 1_555
N1 Cd1 1_555 1_555
N2 C7 1_555 1_555
N3 C24 1_555 1_555
N4 C23 1_555 1_555
C1 O2 1_555 1_555
C2 C1 1_555 1_555
H1 C2 1_555 1_555
H2 C2 1_555 1_555
C3 C2 1_555 1_555
H3 C3 1_555 1_555
H4 C3 1_555 1_555
C4 O3 1_555 1_555
C5 C4 1_555 1_555
H5 C5 1_555 1_555
H6 C5 1_555 1_555
C6 C5 1_555 1_555
H7 C6 1_555 1_555
H8 C6 1_555 1_555
C7 N1 1_555 1_555
H9 C7 1_555 1_555
C8 N1 1_555 1_555
H10 C8 1_555 1_555
C9 N2 1_555 1_555
H11 C9 1_555 1_555
C10 N2 1_555 1_555
H12 C10 1_555 1_555
H13 C10 1_555 1_555
C11 C10 1_555 1_555
C12 C11 1_555 1_555
H14 C12 1_555 1_555
C13 C12 1_555 1_555
H15 C13 1_555 1_555
C14 C13 1_555 1_555
C15 C14 1_555 1_555
H16 C15 1_555 1_555
C16 C11 1_555 1_555
H17 C16 1_555 1_555
C17 C14 1_555 1_555
C18 C17 1_555 1_555
H18 C18 1_555 1_555
C19 C18 1_555 1_555
H19 C19 1_555 1_555
C20 C19 1_555 1_555
C21 C20 1_555 1_555
H20 C21 1_555 1_555
C22 C17 1_555 1_555
H21 C22 1_555 1_555
C23 C20 1_555 1_555
H22 C23 1_555 1_555
H23 C23 1_555 1_555
C24 N4 1_555 1_555
H24 C24 1_555 1_555
C25 N4 1_555 1_555
H25 C25 1_555 1_555
C26 N3 1_555 1_555
H26 C26 1_555 1_555
Cd1B O1B 1_555 1_555
Cd1A N3 1_555 1_555
Cd1B_2 O3B 1_555 1_555
Cd1A_2 N1A 1_555 1_555
O1B C1B 1_555 1_555
O2B Cd1B 1_555 1_555
O3B C4B 1_555 1_555
O3B_2 Cd1B 1_555 1_555
O4B Cd1B_2 1_555 1_555
O4B_2 Cd1B 1_555 1_555
N1A C7A 1_555 1_555
N1B Cd1B 1_555 1_555
N2A C7A 1_555 1_555
N3A Cd1 1_555 1_555
N3C Cd1B 1_555 1_555
N4A C23A 1_555 1_555
C1B O2B 1_555 1_555
C2B C1B 1_555 1_555
H1B C2B 1_555 1_555
H2B C2B 1_555 1_555
C3B C3 1_555 1_555
H3B C3B 1_555 1_555
H4B C3B 1_555 1_555
C4B O4B 1_555 1_555
C5B C4B 1_555 1_555
H5B C5B 1_555 1_555
H6B C5B 1_555 1_555
C6B C6 1_555 1_555
H7B C6B 1_555 1_555
H8B C6B 1_555 1_555
C7A H9A 1_555 1_555
C8A N1A 1_555 1_555
H10A C8A 1_555 1_555
C9A N2A 1_555 1_555
H11A C9A 1_555 1_555
C10A N2A 1_555 1_555
H12A C10A 1_555 1_555
H13A C10A 1_555 1_555
C11A C10A 1_555 1_555
C12A C11A 1_555 1_555
H14A C12A 1_555 1_555
C13A C12A 1_555 1_555
H15A C13A 1_555 1_555
C14A C13A 1_555 1_555
C15A C14A 1_555 1_555
H16A C15A 1_555 1_555
C16A C11A 1_555 1_555
H17A C16A 1_555 1_555
C17A C14A 1_555 1_555
C18A C17A 1_555 1_555
H18A C18A 1_555 1_555
C19A C18A 1_555 1_555
H19A C19A 1_555 1_555
C20A C19A 1_555 1_555
C21A C20A 1_555 1_555
H20A C21A 1_555 1_555
C22A C17A 1_555 1_555
H21A C22A 1_555 1_555
C23A C20A 1_555 1_555
H22A C23A 1_555 1_555
H23A C23A 1_555 1_555
C24A N3A 1_555 1_555
H24A C24A 1_555 1_555
C25A N4A 1_555 1_555
H25A C25A 1_555 1_555
C26A N3A 1_555 1_555
H26A C26A 1_555 1_555
O4 C4 1_555 1_555
C8 C9 1_555 1_555
C15 C16 1_555 1_555
C21 C22 1_555 1_555
C25 C26 1_555 1_555
N4A C24A 1_555 1_555
C2B C3B 1_555 1_555
C5B C6B 1_555 1_555
C8A C9A 1_555 1_555
C15A C16A 1_555 1_555
C21A C22A 1_555 1_555
C25A C26A 1_555 1_555

#END
