
#######################################################################
#
#                 Cambridge Crystallographic Data Centre
#                                CCDC 
#
#######################################################################
#
# If this CIF has been generated from an entry in the Cambridge 
# Structural Database, then it will include bibliographic, chemical, 
# crystal, experimental, refinement or atomic coordinate data resulting 
# from the CCDC's data processing and validation procedures.
#
#######################################################################

data_PEVKAD
_symmetry_cell_setting           monoclinic
_symmetry_space_group_name_H-M   'P 21/c'
_symmetry_Int_Tables_number      14
_space_group_name_Hall           '-P 2ybc'
loop_
_symmetry_equiv_pos_site_id
_symmetry_equiv_pos_as_xyz
1 x,y,z
2 -x,1/2+y,1/2-z
3 -x,-y,-z
4 x,1/2-y,1/2+z
_cell_length_a                   17.8418(15)
_cell_length_b                   15.3448(12)
_cell_length_c                   8.7669(7)
_cell_angle_alpha                90
_cell_angle_beta                 96.497(2)
_cell_angle_gamma                90
_cell_volume                     2384.78
loop_
_atom_site_label
_atom_site_type_symbol
_atom_site_fract_x
_atom_site_fract_y
_atom_site_fract_z
Co1 Co 0.68401(2) 0.97731(3) 0.48774(5)
O1 O 0.78101(13) 0.91033(18) 0.4384(3)
O2 O 0.80119(14) 1.02752(16) 0.5735(4)
O3 O 0.64831(15) 0.98893(16) 0.2144(3)
O4 O 0.59391(13) 0.91184(15) 0.3796(3)
N1 N 0.67632(15) 0.91253(17) 0.6936(3)
N2 N 0.71821(15) 0.84712(18) 0.9100(3)
N3 N 1.35237(14) 0.60302(17) 0.9826(3)
N4 N 1.34897(15) 0.74463(17) 0.9432(4)
C1 C 0.82553(18) 0.9609(2) 0.5144(4)
C2 C 0.90876(18) 0.9410(2) 0.5390(5)
H1 H 0.9227 0.9287 0.6470
H2 H 0.9182 0.8887 0.4819
C3 C 0.95824(17) 1.0123(2) 0.4914(5)
H3 H 0.9516 1.0636 0.5532
H4 H 0.9425 1.0272 0.3851
C4 C 0.59842(18) 0.9380(2) 0.2434(4)
C5 C 0.5423(2) 0.9010(2) 0.1178(4)
H5 H 0.4962 0.8868 0.1614
H6 H 0.5626 0.8470 0.0817
C6 C 0.5230(2) 0.9609(2) -0.0187(4)
H7 H 0.5694 0.9809 -0.0552
H8 H 0.4950 0.9282 -0.1011
C7 C 0.7263(2) 0.9139(2) 0.8148(5)
H9 H 0.7633 0.9565 0.8330
C8 C 0.65905(19) 0.7986(2) 0.8440(4)
H10 H 0.6402 0.7475 0.8819
C9 C 0.63331(19) 0.8401(2) 0.7122(4)
H11 H 0.5924 0.8222 0.6442
C10 C 0.7664(2) 0.8298(3) 1.0541(5)
H12 H 0.7561 0.7717 1.0903
H13 H 0.7547 0.8712 1.1316
C11 C 0.8486(2) 0.8371(2) 1.0312(4)
C12 C 0.8946(2) 0.8986(3) 1.1070(5)
H14 H 0.8746 0.9377 1.1727
C13 C 0.9704(2) 0.9033(2) 1.0871(5)
H15 H 1.0005 0.9453 1.1404
C14 C 1.00228(19) 0.84686(19) 0.9894(4)
C15 C 0.9543(2) 0.7872(2) 0.9093(5)
H16 H 0.9735 0.7496 0.8401
C16 C 0.8794(2) 0.7822(2) 0.9297(5)
H17 H 0.8489 0.7414 0.8744
C17 C 1.0838(2) 0.8490(2) 0.9698(4)
C18 C 1.1379(2) 0.8702(2) 1.0914(5)
H18 H 1.1227 0.8871 1.1850
C19 C 1.2137(2) 0.8665(2) 1.0741(5)
H19 H 1.2489 0.8797 1.1575
C20 C 1.2385(2) 0.8437(2) 0.9364(6)
C21 C 1.1852(2) 0.8257(3) 0.8143(5)
H20 H 1.2006 0.8119 0.7193
C22 C 1.1095(2) 0.8278(2) 0.8311(5)
H21 H 1.0747 0.8147 0.7471
C23 C 1.3221(2) 0.8346(2) 0.9208(6)
H22 H 1.3315 0.8542 0.8195
H23 H 1.3505 0.8719 0.9958
C24 C 1.30962(19) 0.6727(2) 0.9667(4)
H24 H 1.2578 0.6722 0.9714
C25 C 1.4227(2) 0.6322(3) 0.9654(6)
H25 H 1.4657 0.5975 0.9707
C26 C 1.4211(2) 0.7185(3) 0.9398(6)
H26 H 1.4619 0.7536 0.9230
Co1B Co 1.31599(2) 1.02269(3) 0.51226(5)
Co1A Co 1.31599(2) 0.47731(3) 1.01226(5)
Co1B_2 Co 0.31599(2) 1.02269(3) -0.48774(5)
Co1A_2 Co 1.31599(2) 1.47731(3) 1.01226(5)
O1B O 1.21899(13) 1.08967(18) 0.5616(3)
O2B O 1.19881(14) 0.97248(16) 0.4265(4)
O3B O 0.35169(15) 1.01107(16) -0.2144(3)
O3B_2 O 1.35169(15) 1.01107(16) 0.7856(3)
O4B O 0.40609(13) 1.08816(15) -0.3796(3)
O4B_2 O 1.40609(13) 1.08816(15) 0.6204(3)
N1A N 1.32368(15) 1.41253(17) 0.8064(3)
N1B N 1.32368(15) 1.08747(17) 0.3064(3)
N2A N 1.28179(15) 1.34712(18) 0.5900(3)
N3A N 0.64763(14) 1.10302(17) 0.5174(3)
N3C N 1.35237(14) 0.89698(17) 0.4826(3)
N4A N 0.65103(15) 1.24463(17) 0.5568(4)
C1B C 1.17447(18) 1.0391(2) 0.4856(4)
C2B C 1.09124(18) 1.0590(2) 0.4610(5)
H1B H 1.0773 1.0713 0.3530
H2B H 1.0818 1.1113 0.5181
C3B C 1.04176(17) 0.9877(2) 0.5086(5)
H3B H 1.0484 0.9364 0.4468
H4B H 1.0575 0.9728 0.6149
C4B C 0.40158(18) 1.0620(2) -0.2434(4)
C5B C 0.4577(2) 1.0990(2) -0.1178(4)
H5B H 0.5038 1.1132 -0.1614
H6B H 0.4374 1.1530 -0.0817
C6B C 0.4770(2) 1.0391(2) 0.0187(4)
H7B H 0.4306 1.0191 0.0552
H8B H 0.5050 1.0718 0.1011
C7A C 1.2737(2) 1.4139(2) 0.6852(5)
H9A H 1.2367 1.4565 0.6670
C8A C 1.34095(19) 1.2986(2) 0.6560(4)
H10A H 1.3598 1.2475 0.6181
C9A C 1.36669(19) 1.3401(2) 0.7878(4)
H11A H 1.4076 1.3222 0.8558
C10A C 1.2336(2) 1.3298(3) 0.4459(5)
H12A H 1.2439 1.2717 0.4097
H13A H 1.2453 1.3712 0.3684
C11A C 1.1514(2) 1.3371(2) 0.4688(4)
C12A C 1.1054(2) 1.3986(3) 0.3930(5)
H14A H 1.1254 1.4377 0.3273
C13A C 1.0296(2) 1.4033(2) 0.4129(5)
H15A H 0.9995 1.4453 0.3596
C14A C 0.99772(19) 1.34686(19) 0.5106(4)
C15A C 1.0457(2) 1.2872(2) 0.5907(5)
H16A H 1.0265 1.2496 0.6599
C16A C 1.1206(2) 1.2822(2) 0.5703(5)
H17A H 1.1511 1.2414 0.6256
C17A C 0.9162(2) 1.3490(2) 0.5302(4)
C18A C 0.8621(2) 1.3702(2) 0.4086(5)
H18A H 0.8773 1.3871 0.3150
C19A C 0.7863(2) 1.3665(2) 0.4259(5)
H19A H 0.7511 1.3797 0.3425
C20A C 0.7615(2) 1.3437(2) 0.5636(6)
C21A C 0.8148(2) 1.3257(3) 0.6857(5)
H20A H 0.7994 1.3119 0.7807
C22A C 0.8905(2) 1.3278(2) 0.6689(5)
H21A H 0.9253 1.3147 0.7529
C23A C 0.6779(2) 1.3346(2) 0.5792(6)
H22A H 0.6685 1.3542 0.6805
H23A H 0.6495 1.3719 0.5042
C24A C 0.69038(19) 1.1727(2) 0.5333(4)
H24A H 0.7422 1.1722 0.5286
C25A C 0.5773(2) 1.1322(3) 0.5346(6)
H25A H 0.5343 1.0975 0.5293
C26A C 0.5789(2) 1.2185(3) 0.5602(6)
H26A H 0.5381 1.2536 0.5770
loop_
_geom_bond_atom_site_label_1
_geom_bond_atom_site_label_2
_geom_bond_site_symmetry_1
_geom_bond_site_symmetry_2
Co1 O1 1_555 1_555
O1 C1 1_555 1_555
O2 Co1 1_555 1_555
O3 Co1 1_555 1_555
O4 Co1 1_555 1_555
N1 Co1 1_555 1_555
N2 C7 1_555 1_555
N3 C24 1_555 1_555
N4 C23 1_555 1_555
C1 O2 1_555 1_555
C2 C1 1_555 1_555
H1 C2 1_555 1_555
H2 C2 1_555 1_555
C3 C2 1_555 1_555
H3 C3 1_555 1_555
H4 C3 1_555 1_555
C4 O3 1_555 1_555
C5 C4 1_555 1_555
H5 C5 1_555 1_555
H6 C5 1_555 1_555
C6 C5 1_555 1_555
H7 C6 1_555 1_555
H8 C6 1_555 1_555
C7 N1 1_555 1_555
H9 C7 1_555 1_555
C8 N2 1_555 1_555
H10 C8 1_555 1_555
C9 N1 1_555 1_555
H11 C9 1_555 1_555
C10 N2 1_555 1_555
H12 C10 1_555 1_555
H13 C10 1_555 1_555
C11 C10 1_555 1_555
C12 C11 1_555 1_555
H14 C12 1_555 1_555
C13 C12 1_555 1_555
H15 C13 1_555 1_555
C14 C13 1_555 1_555
C15 C14 1_555 1_555
H16 C15 1_555 1_555
C16 C11 1_555 1_555
H17 C16 1_555 1_555
C17 C14 1_555 1_555
C18 C17 1_555 1_555
H18 C18 1_555 1_555
C19 C18 1_555 1_555
H19 C19 1_555 1_555
C20 C19 1_555 1_555
C21 C20 1_555 1_555
H20 C21 1_555 1_555
C22 C17 1_555 1_555
H21 C22 1_555 1_555
C23 C20 1_555 1_555
H22 C23 1_555 1_555
H23 C23 1_555 1_555
C24 N4 1_555 1_555
H24 C24 1_555 1_555
C25 N3 1_555 1_555
H25 C25 1_555 1_555
C26 N4 1_555 1_555
H26 C26 1_555 1_555
Co1B O1B 1_555 1_555
Co1A N3 1_555 1_555
Co1B_2 O3B 1_555 1_555
Co1A_2 N1A 1_555 1_555
O1B C1B 1_555 1_555
O2B Co1B 1_555 1_555
O3B C4B 1_555 1_555
O3B_2 Co1B 1_555 1_555
O4B Co1B_2 1_555 1_555
O4B_2 Co1B 1_555 1_555
N1A C7A 1_555 1_555
N1B Co1B 1_555 1_555
N2A C7A 1_555 1_555
N3A Co1 1_555 1_555
N3C Co1B 1_555 1_555
N4A C23A 1_555 1_555
C1B O2B 1_555 1_555
C2B C1B 1_555 1_555
H1B C2B 1_555 1_555
H2B C2B 1_555 1_555
C3B C3 1_555 1_555
H3B C3B 1_555 1_555
H4B C3B 1_555 1_555
C4B O4B 1_555 1_555
C5B C4B 1_555 1_555
H5B C5B 1_555 1_555
H6B C5B 1_555 1_555
C6B C6 1_555 1_555
H7B C6B 1_555 1_555
H8B C6B 1_555 1_555
C7A H9A 1_555 1_555
C8A N2A 1_555 1_555
H10A C8A 1_555 1_555
C9A N1A 1_555 1_555
H11A C9A 1_555 1_555
C10A N2A 1_555 1_555
H12A C10A 1_555 1_555
H13A C10A 1_555 1_555
C11A C10A 1_555 1_555
C12A C11A 1_555 1_555
H14A C12A 1_555 1_555
C13A C12A 1_555 1_555
H15A C13A 1_555 1_555
C14A C13A 1_555 1_555
C15A C14A 1_555 1_555
H16A C15A 1_555 1_555
C16A C11A 1_555 1_555
H17A C16A 1_555 1_555
C17A C14A 1_555 1_555
C18A C17A 1_555 1_555
H18A C18A 1_555 1_555
C19A C18A 1_555 1_555
H19A C19A 1_555 1_555
C20A C19A 1_555 1_555
C21A C20A 1_555 1_555
H20A C21A 1_555 1_555
C22A C17A 1_555 1_555
H21A C22A 1_555 1_555
C23A C20A 1_555 1_555
H22A C23A 1_555 1_555
H23A C23A 1_555 1_555
C24A N3A 1_555 1_555
H24A C24A 1_555 1_555
C25A N3A 1_555 1_555
H25A C25A 1_555 1_555
C26A N4A 1_555 1_555
H26A C26A 1_555 1_555
O4 C4 1_555 1_555
C8 C9 1_555 1_555
C15 C16 1_555 1_555
C21 C22 1_555 1_555
C25 C26 1_555 1_555
N4A C24A 1_555 1_555
C2B C3B 1_555 1_555
C5B C6B 1_555 1_555
C8A C9A 1_555 1_555
C15A C16A 1_555 1_555
C21A C22A 1_555 1_555
C25A C26A 1_555 1_555

#END
