
#######################################################################
#
#                 Cambridge Crystallographic Data Centre
#                                CCDC 
#
#######################################################################
#
# If this CIF has been generated from an entry in the Cambridge 
# Structural Database, then it will include bibliographic, chemical, 
# crystal, experimental, refinement or atomic coordinate data resulting 
# from the CCDC's data processing and validation procedures.
#
#######################################################################

data_PEVKIL
_symmetry_cell_setting           monoclinic
_symmetry_space_group_name_H-M   'P 21/c'
_symmetry_Int_Tables_number      14
_space_group_name_Hall           '-P 2ybc'
loop_
_symmetry_equiv_pos_site_id
_symmetry_equiv_pos_as_xyz
1 x,y,z
2 -x,1/2+y,1/2-z
3 -x,-y,-z
4 x,1/2-y,1/2+z
_cell_length_a                   7.6784(6)
_cell_length_b                   14.5967(12)
_cell_length_c                   8.5922(7)
_cell_angle_alpha                90
_cell_angle_beta                 111.181(2)
_cell_angle_gamma                90
_cell_volume                     897.951
loop_
_atom_site_label
_atom_site_type_symbol
_atom_site_fract_x
_atom_site_fract_y
_atom_site_fract_z
Zn1 Zn 0.14902(5) 0.07131(2) 0.04443(4)
O1 O 0.3024(4) -0.04300(16) 0.1525(3)
O2 O 0.0792(3) -0.14853(18) 0.0945(3)
O3 O 0.1612(4) 0.02896(18) -0.1744(3)
O4 O -0.0581(4) -0.07695(18) -0.2374(3)
N1 N 0.6545(4) -0.32938(17) 0.3767(3)
C1 C 0.2448(5) -0.1220(2) 0.1561(4)
C2 C 0.3896(4) -0.1940(2) 0.2405(4)
C3 C 0.5759(5) -0.1776(2) 0.2741(5)
H1 H 0.6157 -0.1203 0.2529
C4 C 0.7025(5) -0.2469(2) 0.3393(5)
H2 H 0.8277 -0.2357 0.3582
C5 C 0.4745(5) -0.3442(2) 0.3489(4)
H3 H 0.4387 -0.4010 0.3762
C6 C 0.3389(5) -0.2783(2) 0.2810(5)
H4 H 0.2143 -0.2909 0.2630
C7 C 0.0563(5) -0.0278(2) -0.2701(4)
C8 C 0.0633(5) -0.0357(2) -0.4435(4)
H5 H 0.1904 -0.0266 -0.4384
H6 H 0.0233 -0.0964 -0.4879
Zn1B Zn -0.14902(5) -0.07131(2) -0.04443(4)
Zn1A Zn 0.85098(5) -0.42869(2) 0.45557(4)
Zn1B_2 Zn -0.14902(5) -0.07131(2) -1.04443(4)
Zn1_2 Zn 0.14902(5) 0.07131(2) -0.95557(4)
Zn1C Zn -0.85098(5) 0.42869(2) -0.45557(4)
O1B O -0.3024(4) 0.04300(16) -0.1525(3)
O2B O -0.0792(3) 0.14853(18) -0.0945(3)
O3B O -0.1612(4) -0.02896(18) -0.8256(3)
O3B_2 O -0.1612(4) -0.02896(18) 0.1744(3)
O4B O 0.0581(4) 0.07695(18) -0.7626(3)
O4B_2 O 0.0581(4) 0.07695(18) 0.2374(3)
N1B N -0.6545(4) 0.32938(17) -0.3767(3)
N1A N 0.3455(4) 0.17062(17) 0.1233(3)
N1C N -0.3455(4) -0.17062(17) -0.1233(3)
C1B C -0.2448(5) 0.1220(2) -0.1561(4)
C2B C -0.3896(4) 0.1940(2) -0.2405(4)
C3B C -0.5759(5) 0.1776(2) -0.2741(5)
H1B H -0.6157 0.1203 -0.2529
C4B C -0.7025(5) 0.2469(2) -0.3393(5)
H2B H -0.8277 0.2357 -0.3582
C5B C -0.4745(5) 0.3442(2) -0.3489(4)
H3B H -0.4387 0.4010 -0.3762
C6B C -0.3389(5) 0.2783(2) -0.2810(5)
H4B H -0.2143 0.2909 -0.2630
C7B C -0.0563(5) 0.0278(2) -0.7299(4)
C8B C -0.0633(5) 0.0357(2) -0.5565(4)
H5B H -0.1904 0.0266 -0.5616
H6B H -0.0233 0.0964 -0.5121
loop_
_geom_bond_atom_site_label_1
_geom_bond_atom_site_label_2
_geom_bond_site_symmetry_1
_geom_bond_site_symmetry_2
Zn1 O1 1_555 1_555
O1 C1 1_555 1_555
O2 C1 1_555 1_555
O3 Zn1 1_555 1_555
O4 C7 1_555 1_555
N1 C4 1_555 1_555
C1 C2 1_555 1_555
C2 C3 1_555 1_555
C3 H1 1_555 1_555
C4 C3 1_555 1_555
H2 C4 1_555 1_555
C5 N1 1_555 1_555
H3 C5 1_555 1_555
C6 C2 1_555 1_555
H4 C6 1_555 1_555
C7 O3 1_555 1_555
C8 C7 1_555 1_555
H5 C8 1_555 1_555
H6 C8 1_555 1_555
Zn1B O2 1_555 1_555
Zn1A N1 1_555 1_555
Zn1B_2 O3B 1_555 1_555
Zn1_2 O4B 1_555 1_555
Zn1C N1B 1_555 1_555
O1B Zn1B 1_555 1_555
O2B Zn1 1_555 1_555
O3B C7B 1_555 1_555
O3B_2 Zn1B 1_555 1_555
O4B C7B 1_555 1_555
O4B_2 Zn1 1_555 1_555
N1B C4B 1_555 1_555
N1A Zn1 1_555 1_555
N1C Zn1B 1_555 1_555
C1B O1B 1_555 1_555
C2B C1B 1_555 1_555
C3B C2B 1_555 1_555
H1B C3B 1_555 1_555
C4B C3B 1_555 1_555
H2B C4B 1_555 1_555
C5B N1B 1_555 1_555
H3B C5B 1_555 1_555
C6B C2B 1_555 1_555
H4B C6B 1_555 1_555
C7B C8B 1_555 1_555
C8B C8 1_555 1_555
H5B C8B 1_555 1_555
H6B C8B 1_555 1_555
O4 Zn1B 1_555 1_555
C5 C6 1_555 1_555
O2B C1B 1_555 1_555
C5B C6B 1_555 1_555

#END
