
#######################################################################
#
#                 Cambridge Crystallographic Data Centre
#                                CCDC 
#
#######################################################################
#
# If this CIF has been generated from an entry in the Cambridge 
# Structural Database, then it will include bibliographic, chemical, 
# crystal, experimental, refinement or atomic coordinate data resulting 
# from the CCDC's data processing and validation procedures.
#
#######################################################################

data_PEVKAC
_symmetry_cell_setting           monoclinic
_symmetry_space_group_name_H-M   'C 2/c'
_symmetry_Int_Tables_number      15
_space_group_name_Hall           '-C 2yn'
loop_
_symmetry_equiv_pos_site_id
_symmetry_equiv_pos_as_xyz
1 x,y,z
2 1/2+x,1/2+y,z
3 -x,y,1/2-z
4 1/2-x,1/2+y,1/2-z
5 -x,-y,-z
6 1/2-x,1/2-y,-z
7 x,-y,1/2+z
8 1/2+x,1/2-y,1/2+z
_cell_length_a                   19.879(3)
_cell_length_b                   8.730(3)
_cell_length_c                   16.538(3)
_cell_angle_alpha                90
_cell_angle_beta                 122.15(2)
_cell_angle_gamma                90
_cell_volume                     2429.96
loop_
_atom_site_label
_atom_site_type_symbol
_atom_site_fract_x
_atom_site_fract_y
_atom_site_fract_z
Cd1 Cd 0.00000 0.33867(3) 0.25000
S1 S 0.13492(3) 0.12865(7) 0.22504(4)
O1 O 0.2190(1) 0.1199(2) 0.2663(1)
O2 O 0.0901(1) 0.2142(2) 0.1371(1)
N1 N 0.1107(1) 0.2055(2) 0.2942(1)
N2 N 0.1133(1) 0.2284(2) 0.4317(1)
N3 N 0.2011(1) 0.0494(3) 0.4254(1)
N4 N 0.0017(1) -0.5030(3) 0.1387(2)
C1 C 0.1449(1) 0.1571(2) 0.3873(2)
C2 C 0.1420(2) 0.1878(3) 0.5222(2)
C3 C 0.1991(2) 0.0784(4) 0.5672(2)
C4 C 0.2270(2) 0.0106(3) 0.5156(2)
C5 C 0.0974(1) -0.0602(3) 0.2022(2)
C6 C 0.1462(2) -0.1851(3) 0.2430(2)
C7 C 0.1150(2) -0.3309(3) 0.2223(2)
C8 C 0.0336(2) -0.3519(3) 0.1609(2)
C9 C -0.0157(2) -0.2263(3) 0.1212(2)
C10 C 0.0159(2) -0.0798(3) 0.1414(2)
S1B S -0.13492(3) 0.12865(7) 0.27496(4)
O1B O -0.2190(1) 0.1199(2) 0.2337(1)
O2B O -0.0901(1) 0.2142(2) 0.3629(1)
N1B N -0.1107(1) 0.2055(2) 0.2058(1)
N2B N -0.1133(1) 0.2284(2) 0.0683(1)
N3B N -0.2011(1) 0.0494(3) 0.0746(1)
N4B N -0.0017(1) -0.5030(3) 0.3613(2)
C1B C -0.1449(1) 0.1571(2) 0.1127(2)
C2B C -0.1420(2) 0.1878(3) -0.0222(2)
C3B C -0.1991(2) 0.0784(4) -0.0672(2)
C4B C -0.2270(2) 0.0106(3) -0.0156(2)
C5B C -0.0974(1) -0.0602(3) 0.2978(2)
C6B C -0.1462(2) -0.1851(3) 0.2570(2)
C7B C -0.1150(2) -0.3309(3) 0.2777(2)
C8B C -0.0336(2) -0.3519(3) 0.3391(2)
C9B C 0.0157(2) -0.2263(3) 0.3788(2)
C10B C -0.0159(2) -0.0798(3) 0.3586(2)
N4_2 N 0.0017(1) 0.4970(3) 0.1387(2)
N4B_2 N -0.0017(1) 0.4970(3) 0.3613(2)
Cd1_2 Cd 0.00000 -0.66133(3) 0.25000
O3 O 0.1464(1) 0.5620(3) 0.5542(2)
loop_
_geom_bond_atom_site_label_1
_geom_bond_atom_site_label_2
_geom_bond_site_symmetry_1
_geom_bond_site_symmetry_2
Cd1 N1 1_555 1_555
S1 O1 1_555 1_555
O2 S1 1_555 1_555
N1 S1 1_555 1_555
N2 C1 1_555 1_555
N3 C1 1_555 1_555
N4 C8 1_555 1_555
C1 N1 1_555 1_555
C2 N2 1_555 1_555
C3 C2 1_555 1_555
C4 N3 1_555 1_555
C5 S1 1_555 1_555
C6 C5 1_555 1_555
C7 C6 1_555 1_555
C8 C7 1_555 1_555
C9 C8 1_555 1_555
C10 C5 1_555 1_555
S1B O1B 1_555 1_555
O2B S1B 1_555 1_555
N1B Cd1 1_555 1_555
N2B C1B 1_555 1_555
N3B C1B 1_555 1_555
N4B C8B 1_555 1_555
C1B N1B 1_555 1_555
C2B N2B 1_555 1_555
C3B C2B 1_555 1_555
C4B N3B 1_555 1_555
C5B S1B 1_555 1_555
C6B C5B 1_555 1_555
C7B C6B 1_555 1_555
C8B C7B 1_555 1_555
C9B C8B 1_555 1_555
C10B C5B 1_555 1_555
N4_2 Cd1 1_555 1_555
N4B_2 Cd1 1_555 1_555
Cd1_2 N4 1_555 1_555
C3 C4 1_555 1_555
C9 C10 1_555 1_555
S1B N1B 1_555 1_555
N4B Cd1_2 1_555 1_555
C3B C4B 1_555 1_555
C9B C10B 1_555 1_555

#END
