
#######################################################################
#
#                 Cambridge Crystallographic Data Centre
#                                CCDC 
#
#######################################################################
#
# If this CIF has been generated from an entry in the Cambridge 
# Structural Database, then it will include bibliographic, chemical, 
# crystal, experimental, refinement or atomic coordinate data resulting 
# from the CCDC's data processing and validation procedures.
#
#######################################################################

data_PEVLOT
_symmetry_cell_setting           monoclinic
_symmetry_space_group_name_H-M   'P 21/c'
_symmetry_Int_Tables_number      14
_space_group_name_Hall           '-P 2ybc'
loop_
_symmetry_equiv_pos_site_id
_symmetry_equiv_pos_as_xyz
1 x,y,z
2 -x,1/2+y,1/2-z
3 -x,-y,-z
4 x,1/2-y,1/2+z
_cell_length_a                   8.9151(18)
_cell_length_b                   15.521(3)
_cell_length_c                   8.8732(18)
_cell_angle_alpha                90
_cell_angle_beta                 100.58(3)
_cell_angle_gamma                90
_cell_volume                     1206.92
loop_
_atom_site_label
_atom_site_type_symbol
_atom_site_fract_x
_atom_site_fract_y
_atom_site_fract_z
Lu1 Lu 0.45395(4) 0.87500(3) -0.00593(4)
C1 C 0.8165(9) 0.9096(5) 0.5128(9)
C2 C 0.8250(9) 0.8676(6) 0.3756(9)
C3 C 0.9636(9) 0.8293(6) 0.3606(9)
H1 H 0.9713 0.8016 0.2694
C4 C 1.0887(9) 0.8316(6) 0.4771(9)
H2 H 1.1794 0.8053 0.4647
C5 C 1.0791(8) 0.8727(6) 0.6112(8)
C6 C 0.9454(10) 0.9134(6) 0.6299(9)
H3 H 0.9412 0.9433 0.7200
C7 C 0.6681(10) 0.9996(6) 0.6522(9)
H4 H 0.6007 1.0478 0.6196
H5 H 0.7680 1.0228 0.6945
C8 C 0.6086(9) 0.9508(6) 0.7772(9)
C9 C 0.6937(9) 0.8618(6) 0.2440(9)
C10 C 1.2128(9) 0.8739(7) 0.7428(9)
O1 O 0.6797(6) 0.9484(4) 0.5225(6)
O2 O 0.5895(7) 0.8713(4) 0.7719(6)
O3 O 0.5719(6) 0.9942(4) 0.8848(6)
O4 O 0.7172(6) 0.8706(5) 0.1085(6)
O5 O 0.5584(6) 0.8502(4) 0.2642(6)
O6 O 1.2910(7) 0.8061(4) 0.7735(7)
O7 O 1.2449(7) 0.9393(4) 0.8254(7)
O8 O 0.2537(6) 0.8434(4) 0.1085(7)
H6 H 0.1598 0.8549 0.0780
H7 H 0.2649 0.7921 0.1420
O9 O 0.4956(6) 0.7313(4) 0.0107(6)
H8 H 0.5130 0.7058 -0.0698
H9 H 0.5254 0.7052 0.0959
Lu1_2 Lu 0.45395(4) 0.87500(3) 0.99407(4)
Lu1_3 Lu 1.45395(4) 0.87500(3) 0.99407(4)
Lu1B Lu 0.54605(4) 1.12500(3) 1.00593(4)
O2_2 O 0.5895(7) 0.8713(4) -0.2281(6)
O3_2 O 0.5719(6) 0.9942(4) -0.1152(6)
O3B O 0.4281(6) 1.0058(4) 0.1152(6)
O6_2 O 0.2910(7) 0.8061(4) -0.2265(7)
O7_2 O 0.2449(7) 0.9393(4) -0.1746(7)
O10 O 0.986(2) 0.5691(12) 0.530(3)
O11? O 0.958(2) 0.6144(14) 0.489(2)
loop_
_geom_bond_atom_site_label_1
_geom_bond_atom_site_label_2
_geom_bond_site_symmetry_1
_geom_bond_site_symmetry_2
Lu1 O4 1_555 1_555
C1 C2 1_555 1_555
C2 C3 1_555 1_555
C3 H1 1_555 1_555
C4 C3 1_555 1_555
H2 C4 1_555 1_555
C5 C4 1_555 1_555
C6 C1 1_555 1_555
H3 C6 1_555 1_555
C7 H4 1_555 1_555
H5 C7 1_555 1_555
C8 C7 1_555 1_555
C9 C2 1_555 1_555
C10 C5 1_555 1_555
O1 C1 1_555 1_555
O2 C8 1_555 1_555
O3 C8 1_555 1_555
O4 C9 1_555 1_555
O5 Lu1 1_555 1_555
O6 C10 1_555 1_555
O7 C10 1_555 1_555
O8 Lu1 1_555 1_555
H6 O8 1_555 1_555
H7 O8 1_555 1_555
O9 Lu1 1_555 1_555
H8 O9 1_555 1_555
H9 O9 1_555 1_555
Lu1_2 O2 1_555 1_555
Lu1_3 O6 1_555 1_555
Lu1B O3 1_555 1_555
O2_2 Lu1 1_555 1_555
O3_2 Lu1 1_555 1_555
O3B Lu1 1_555 1_555
O6_2 Lu1 1_555 1_555
O7_2 Lu1 1_555 1_555
C5 C6 1_555 1_555
C7 O1 1_555 1_555
C9 O5 1_555 1_555
O3 Lu1_2 1_555 1_555
O7 Lu1_3 1_555 1_555

#END
