
#######################################################################
#
#                 Cambridge Crystallographic Data Centre
#                                CCDC 
#
#######################################################################
#
# If this CIF has been generated from an entry in the Cambridge 
# Structural Database, then it will include bibliographic, chemical, 
# crystal, experimental, refinement or atomic coordinate data resulting 
# from the CCDC's data processing and validation procedures.
#
#######################################################################

data_PEVMOU
_symmetry_cell_setting           monoclinic
_symmetry_space_group_name_H-M   'P 21/c'
_symmetry_Int_Tables_number      14
_space_group_name_Hall           '-P 2ybc'
loop_
_symmetry_equiv_pos_site_id
_symmetry_equiv_pos_as_xyz
1 x,y,z
2 -x,1/2+y,1/2-z
3 -x,-y,-z
4 x,1/2-y,1/2+z
_cell_length_a                   8.9378(18)
_cell_length_b                   15.708(3)
_cell_length_c                   8.9066(18)
_cell_angle_alpha                90
_cell_angle_beta                 100.67(3)
_cell_angle_gamma                90
_cell_volume                     1228.82
loop_
_atom_site_label
_atom_site_type_symbol
_atom_site_fract_x
_atom_site_fract_y
_atom_site_fract_z
Dy1 Dy 0.95238(4) 0.12614(3) 0.99361(4)
C1 C 0.3165(9) 0.0900(5) 0.5140(9)
C2 C 0.3254(9) 0.1336(5) 0.3768(8)
C3 C 0.4615(10) 0.1703(6) 0.3618(9)
H1 H 0.4690 0.1969 0.2702
C4 C 0.5873(10) 0.1690(5) 0.4780(9)
H2 H 0.6773 0.1960 0.4671
C5 C 0.5753(9) 0.1260(6) 0.6122(9)
C6 C 0.4402(9) 0.0867(5) 0.6297(9)
H3 H 0.4341 0.0583 0.7200
C7 C 0.1652(10) 0.0003(5) 0.6512(10)
H4 H 0.2634 -0.0247 0.6923
H5 H 0.0947 -0.0458 0.6177
C8 C 0.1100(10) 0.0490(5) 0.7762(9)
C9 C 0.1926(10) 0.1379(5) 0.2450(9)
C10 C 0.7087(9) 0.1261(6) 0.7439(8)
O1 O 0.1794(6) 0.0519(4) 0.5219(6)
O2 O 0.0894(7) 0.1278(4) 0.7692(6)
O3 O 0.0723(6) 0.0064(3) 0.8837(6)
O4 O 0.0599(6) 0.1503(3) 0.2649(6)
O5 O 0.2190(6) 0.1309(4) 0.1100(6)
O6 O 0.7867(7) 0.1934(4) 0.7732(7)
O7 O 0.7418(7) 0.0596(4) 0.8220(6)
O8 O 0.7497(7) 0.1584(4) 1.1133(7)
H6 H 0.7516 0.2069 1.1556
H7 H 0.6597 0.1443 1.0725
O9 O 0.9936(7) 0.2721(4) 1.0115(6)
H8 H 1.0430 0.3045 1.0796
H9 H 0.9825 0.2952 0.9240
Dy1_2 Dy -0.04762(4) 0.12614(3) -0.00639(4)
Dy1_3 Dy -0.04762(4) 0.12614(3) 0.99361(4)
Dy1B Dy 0.04762(4) -0.12614(3) 1.00639(4)
O2_2 O 1.0894(7) 0.1278(4) 0.7692(6)
O3_2 O 1.0723(6) 0.0064(3) 0.8837(6)
O3B O 0.9277(6) -0.0064(3) 1.1163(6)
O4_2 O 1.0599(6) 0.1503(3) 1.2649(6)
O5_2 O 1.2190(6) 0.1309(4) 1.1100(6)
O10 O 0.485(3) 0.0683(11) 0.036(2)
O11? O 0.460(2) 0.1128(14) -0.009(2)
loop_
_geom_bond_atom_site_label_1
_geom_bond_atom_site_label_2
_geom_bond_site_symmetry_1
_geom_bond_site_symmetry_2
Dy1 O6 1_555 1_555
C1 C2 1_555 1_555
C2 C3 1_555 1_555
C3 H1 1_555 1_555
C4 C3 1_555 1_555
H2 C4 1_555 1_555
C5 C4 1_555 1_555
C6 C1 1_555 1_555
H3 C6 1_555 1_555
C7 H4 1_555 1_555
H5 C7 1_555 1_555
C8 C7 1_555 1_555
C9 C2 1_555 1_555
C10 C5 1_555 1_555
O1 C1 1_555 1_555
O2 C8 1_555 1_555
O3 C8 1_555 1_555
O4 C9 1_555 1_555
O5 C9 1_555 1_555
O6 C10 1_555 1_555
O7 Dy1 1_555 1_555
O8 Dy1 1_555 1_555
H6 O8 1_555 1_555
H7 O8 1_555 1_555
O9 Dy1 1_555 1_555
H8 O9 1_555 1_555
H9 O9 1_555 1_555
Dy1_2 O4 1_555 1_555
Dy1_3 O2 1_555 1_555
Dy1B O3 1_555 1_555
O2_2 Dy1 1_555 1_555
O3_2 Dy1 1_555 1_555
O3B Dy1 1_555 1_555
O4_2 Dy1 1_555 1_555
O5_2 Dy1 1_555 1_555
C5 C6 1_555 1_555
C7 O1 1_555 1_555
C10 O7 1_555 1_555
O3 Dy1_3 1_555 1_555
O5 Dy1_2 1_555 1_555

#END
