
#######################################################################
#
#                 Cambridge Crystallographic Data Centre
#                                CCDC 
#
#######################################################################
#
# If this CIF has been generated from an entry in the Cambridge 
# Structural Database, then it will include bibliographic, chemical, 
# crystal, experimental, refinement or atomic coordinate data resulting 
# from the CCDC's data processing and validation procedures.
#
#######################################################################

data_PEVMEK
_symmetry_cell_setting           monoclinic
_symmetry_space_group_name_H-M   'P 21/c'
_symmetry_Int_Tables_number      14
_space_group_name_Hall           '-P 2ybc'
loop_
_symmetry_equiv_pos_site_id
_symmetry_equiv_pos_as_xyz
1 x,y,z
2 -x,1/2+y,1/2-z
3 -x,-y,-z
4 x,1/2-y,1/2+z
_cell_length_a                   8.96312(18)
_cell_length_b                   15.7701(3)
_cell_length_c                   8.95189(18)
_cell_angle_alpha                90
_cell_angle_beta                 100.376(2)
_cell_angle_gamma                90
_cell_volume                     1244.65
loop_
_atom_site_label
_atom_site_type_symbol
_atom_site_fract_x
_atom_site_fract_y
_atom_site_fract_z
Eu1 Eu 1.048901(19) 0.872764(11) 1.007180(19)
C1 C 0.6855(4) 0.9100(2) 0.4878(4)
C2 C 0.6757(4) 0.8674(2) 0.6242(4)
C3 C 0.5391(4) 0.8299(2) 0.6400(4)
H1 H 0.5313 0.8033 0.7310
C4 C 0.4139(4) 0.8312(2) 0.5231(4)
H2 H 0.3241 0.8043 0.5338
C5 C 0.4258(4) 0.8739(2) 0.3890(4)
C6 C 0.5601(4) 0.9139(2) 0.3735(4)
H3 H 0.5655 0.9436 0.2849
C7 C 0.8348(4) 1.0006(2) 0.3514(4)
H4 H 0.9057 1.0463 0.3839
H5 H 0.7371 1.0259 0.3112
C8 C 0.8891(4) 0.9509(2) 0.2255(4)
C9 C 0.8053(4) 0.8614(2) 0.7542(4)
C10 C 0.2946(4) 0.8743(2) 0.2594(4)
O1 O 0.8206(3) 0.94977(17) 0.4797(3)
O2 O 0.9101(3) 0.87327(15) 0.2332(3)
O3 O 0.9233(3) 0.99360(15) 0.1157(3)
O4 O 0.9397(3) 0.85041(16) 0.7340(3)
O5 O 0.7783(3) 0.86698(16) 0.8892(3)
O6 O 0.2616(3) 0.93959(16) 0.1808(3)
O7 O 0.2182(3) 0.80605(16) 0.2288(3)
O8 O 1.0100(3) 0.72440(16) 0.9893(3)
H6 H 0.9872 0.6954 1.0629
H7 H 0.9733 0.7010 0.9036
O9 O 1.2557(3) 0.84163(17) 0.8851(3)
H8 H 1.2525 0.7930 0.8446
H9 H 1.3465 0.8567 0.9188
Eu1_2 Eu 0.048901(19) 0.872764(11) 0.007180(19)
Eu1_3 Eu 1.048901(19) 0.872764(11) 0.007180(19)
Eu1B Eu 0.951099(19) 1.127236(11) -0.007180(19)
O2_2 O 0.9101(3) 0.87327(15) 1.2332(3)
O3_2 O 0.9233(3) 0.99360(15) 1.1157(3)
O3B O 1.0767(3) 1.00640(15) 0.8843(3)
O6_2 O 1.2616(3) 0.93959(16) 1.1808(3)
O7_2 O 1.2182(3) 0.80605(16) 1.2288(3)
O10 O 0.5399(8) 0.8872(5) 1.0129(7)
O11? O 0.5174(8) 0.9308(5) 0.9696(8)
loop_
_geom_bond_atom_site_label_1
_geom_bond_atom_site_label_2
_geom_bond_site_symmetry_1
_geom_bond_site_symmetry_2
Eu1 O4 1_555 1_555
C1 C2 1_555 1_555
C2 C3 1_555 1_555
C3 H1 1_555 1_555
C4 C3 1_555 1_555
H2 C4 1_555 1_555
C5 C4 1_555 1_555
C6 C1 1_555 1_555
H3 C6 1_555 1_555
C7 H4 1_555 1_555
H5 C7 1_555 1_555
C8 C7 1_555 1_555
C9 C2 1_555 1_555
C10 C5 1_555 1_555
O1 C1 1_555 1_555
O2 C8 1_555 1_555
O3 C8 1_555 1_555
O4 C9 1_555 1_555
O5 Eu1 1_555 1_555
O6 C10 1_555 1_555
O7 C10 1_555 1_555
O8 Eu1 1_555 1_555
H6 O8 1_555 1_555
H7 O8 1_555 1_555
O9 Eu1 1_555 1_555
H8 O9 1_555 1_555
H9 O9 1_555 1_555
Eu1_2 O6 1_555 1_555
Eu1_3 O2 1_555 1_555
Eu1B O3 1_555 1_555
O2_2 Eu1 1_555 1_555
O3_2 Eu1 1_555 1_555
O3B Eu1 1_555 1_555
O6_2 Eu1 1_555 1_555
O7_2 Eu1 1_555 1_555
C5 C6 1_555 1_555
C7 O1 1_555 1_555
C9 O5 1_555 1_555
O3 Eu1_3 1_555 1_555
O7 Eu1_2 1_555 1_555

#END
