
#######################################################################
#
#                 Cambridge Crystallographic Data Centre
#                                CCDC 
#
#######################################################################
#
# If this CIF has been generated from an entry in the Cambridge 
# Structural Database, then it will include bibliographic, chemical, 
# crystal, experimental, refinement or atomic coordinate data resulting 
# from the CCDC's data processing and validation procedures.
#
#######################################################################

data_PEVMIO
_symmetry_cell_setting           monoclinic
_symmetry_space_group_name_H-M   'P 21/c'
_symmetry_Int_Tables_number      14
_space_group_name_Hall           '-P 2ybc'
loop_
_symmetry_equiv_pos_site_id
_symmetry_equiv_pos_as_xyz
1 x,y,z
2 -x,1/2+y,1/2-z
3 -x,-y,-z
4 x,1/2-y,1/2+z
_cell_length_a                   8.9007(18)
_cell_length_b                   15.592(3)
_cell_length_c                   8.8728(18)
_cell_angle_alpha                90
_cell_angle_beta                 100.63(3)
_cell_angle_gamma                90
_cell_volume                     1210.23
loop_
_atom_site_label
_atom_site_type_symbol
_atom_site_fract_x
_atom_site_fract_y
_atom_site_fract_z
Er1 Er 0.95343(5) 0.12549(3) 0.49369(5)
C1 C 0.3165(10) 0.0900(6) 0.0133(11)
C2 C 0.3264(10) 0.1341(6) -0.1230(10)
C3 C 0.4633(10) 0.1712(6) -0.1400(11)
H1 H 0.4711 0.1982 -0.2316
C4 C 0.5896(11) 0.1685(7) -0.0215(11)
H2 H 0.6806 0.1952 -0.0320
C5 C 0.5780(10) 0.1259(7) 0.1114(10)
C6 C 0.4422(11) 0.0862(6) 0.1298(11)
H3 H 0.4365 0.0572 0.2202
C7 C 0.1662(11) 0.0002(6) 0.1505(11)
H4 H 0.2649 -0.0247 0.1924
H5 H 0.0959 -0.0464 0.1169
C8 C 0.1093(10) 0.0496(7) 0.2765(11)
C9 C 0.1934(10) 0.1369(6) -0.2564(11)
C10 C 0.7106(10) 0.1260(8) 0.2428(10)
O1 O 0.1808(7) 0.0513(4) 0.0214(8)
O2 O 0.0901(7) 0.1283(5) 0.2710(7)
O3 O 0.0736(7) 0.0059(4) 0.3846(7)
O4 O 0.0601(7) 0.1499(4) -0.2352(7)
O5 O 0.2190(7) 0.1306(5) -0.3900(7)
O6 O 0.7886(7) 0.1943(5) 0.2734(7)
O7 O 0.7429(8) 0.0601(5) 0.3242(8)
O8 O 0.9945(7) 0.2709(4) 0.5108(7)
H6 H 1.0451 0.2999 0.5862
H7 H 0.9631 0.3019 0.4289
O9 O 0.7514(8) 0.1580(4) 0.6122(8)
H8 H 0.6568 0.1497 0.5794
H9 H 0.7677 0.2085 0.6475
Er1_2 Er -0.04657(5) 0.12549(3) -0.50631(5)
Er1_3 Er -0.04657(5) 0.12549(3) 0.49369(5)
Er1B Er 0.04657(5) -0.12549(3) 0.50631(5)
O2_2 O 1.0901(7) 0.1283(5) 0.2710(7)
O3_2 O 1.0736(7) 0.0059(4) 0.3846(7)
O3B O 0.9264(7) -0.0059(4) 0.6154(7)
O4_2 O 1.0601(7) 0.1499(4) 0.7648(7)
O5_2 O 1.2190(7) 0.1306(5) 0.6100(7)
O10 O 0.463(3) 0.1143(16) 0.492(3)
O11? O 0.479(3) 0.0675(12) 0.531(3)
loop_
_geom_bond_atom_site_label_1
_geom_bond_atom_site_label_2
_geom_bond_site_symmetry_1
_geom_bond_site_symmetry_2
Er1 O6 1_555 1_555
C1 C2 1_555 1_555
C2 C3 1_555 1_555
C3 H1 1_555 1_555
C4 C3 1_555 1_555
H2 C4 1_555 1_555
C5 C4 1_555 1_555
C6 C1 1_555 1_555
H3 C6 1_555 1_555
C7 H4 1_555 1_555
H5 C7 1_555 1_555
C8 C7 1_555 1_555
C9 C2 1_555 1_555
C10 C5 1_555 1_555
O1 C1 1_555 1_555
O2 C8 1_555 1_555
O3 C8 1_555 1_555
O4 C9 1_555 1_555
O5 C9 1_555 1_555
O6 C10 1_555 1_555
O7 Er1 1_555 1_555
O8 Er1 1_555 1_555
H6 O8 1_555 1_555
H7 O8 1_555 1_555
O9 Er1 1_555 1_555
H8 O9 1_555 1_555
H9 O9 1_555 1_555
Er1_2 O4 1_555 1_555
Er1_3 O2 1_555 1_555
Er1B O3 1_555 1_555
O2_2 Er1 1_555 1_555
O3_2 Er1 1_555 1_555
O3B Er1 1_555 1_555
O4_2 Er1 1_555 1_555
O5_2 Er1 1_555 1_555
C5 C6 1_555 1_555
C7 O1 1_555 1_555
C10 O7 1_555 1_555
O3 Er1_3 1_555 1_555
O5 Er1_2 1_555 1_555

#END
