
#######################################################################
#
#                 Cambridge Crystallographic Data Centre
#                                CCDC 
#
#######################################################################
#
# If this CIF has been generated from an entry in the Cambridge 
# Structural Database, then it will include bibliographic, chemical, 
# crystal, experimental, refinement or atomic coordinate data resulting 
# from the CCDC's data processing and validation procedures.
#
#######################################################################

data_PEVQOY
_symmetry_cell_setting           cubic
_symmetry_space_group_name_H-M   'F m -3 m'
_symmetry_Int_Tables_number      225
_space_group_name_Hall           '-F 4 2 3'
loop_
_symmetry_equiv_pos_site_id
_symmetry_equiv_pos_as_xyz
1 x,y,z
2 -y,x,z
3 -x,-y,z
4 y,-x,z
5 x,-z,y
6 x,-y,-z
7 x,z,-y
8 z,y,-x
9 -x,y,-z
10 -z,y,x
11 z,x,y
12 y,z,x
13 -y,-z,x
14 z,-x,-y
15 -y,z,-x
16 -z,-x,y
17 -z,x,-y
18 y,-z,-x
19 y,x,-z
20 -y,-x,-z
21 -x,z,y
22 -x,-z,-y
23 z,-y,x
24 -z,-y,-x
25 x,1/2+y,1/2+z
26 -y,1/2+x,1/2+z
27 -x,1/2-y,1/2+z
28 y,1/2-x,1/2+z
29 x,1/2-z,1/2+y
30 x,1/2-y,1/2-z
31 x,1/2+z,1/2-y
32 z,1/2+y,1/2-x
33 -x,1/2+y,1/2-z
34 -z,1/2+y,1/2+x
35 z,1/2+x,1/2+y
36 y,1/2+z,1/2+x
37 -y,1/2-z,1/2+x
38 z,1/2-x,1/2-y
39 -y,1/2+z,1/2-x
40 -z,1/2-x,1/2+y
41 -z,1/2+x,1/2-y
42 y,1/2-z,1/2-x
43 y,1/2+x,1/2-z
44 -y,1/2-x,1/2-z
45 -x,1/2+z,1/2+y
46 -x,1/2-z,1/2-y
47 z,1/2-y,1/2+x
48 -z,1/2-y,1/2-x
49 1/2+x,y,1/2+z
50 1/2-y,x,1/2+z
51 1/2-x,-y,1/2+z
52 1/2+y,-x,1/2+z
53 1/2+x,-z,1/2+y
54 1/2+x,-y,1/2-z
55 1/2+x,z,1/2-y
56 1/2+z,y,1/2-x
57 1/2-x,y,1/2-z
58 1/2-z,y,1/2+x
59 1/2+z,x,1/2+y
60 1/2+y,z,1/2+x
61 1/2-y,-z,1/2+x
62 1/2+z,-x,1/2-y
63 1/2-y,z,1/2-x
64 1/2-z,-x,1/2+y
65 1/2-z,x,1/2-y
66 1/2+y,-z,1/2-x
67 1/2+y,x,1/2-z
68 1/2-y,-x,1/2-z
69 1/2-x,z,1/2+y
70 1/2-x,-z,1/2-y
71 1/2+z,-y,1/2+x
72 1/2-z,-y,1/2-x
73 1/2+x,1/2+y,z
74 1/2-y,1/2+x,z
75 1/2-x,1/2-y,z
76 1/2+y,1/2-x,z
77 1/2+x,1/2-z,y
78 1/2+x,1/2-y,-z
79 1/2+x,1/2+z,-y
80 1/2+z,1/2+y,-x
81 1/2-x,1/2+y,-z
82 1/2-z,1/2+y,x
83 1/2+z,1/2+x,y
84 1/2+y,1/2+z,x
85 1/2-y,1/2-z,x
86 1/2+z,1/2-x,-y
87 1/2-y,1/2+z,-x
88 1/2-z,1/2-x,y
89 1/2-z,1/2+x,-y
90 1/2+y,1/2-z,-x
91 1/2+y,1/2+x,-z
92 1/2-y,1/2-x,-z
93 1/2-x,1/2+z,y
94 1/2-x,1/2-z,-y
95 1/2+z,1/2-y,x
96 1/2-z,1/2-y,-x
97 -x,-y,-z
98 y,-x,-z
99 x,y,-z
100 -y,x,-z
101 -x,z,-y
102 -x,y,z
103 -x,-z,y
104 -z,-y,x
105 x,-y,z
106 z,-y,-x
107 -z,-x,-y
108 -y,-z,-x
109 y,z,-x
110 -z,x,y
111 y,-z,x
112 z,x,-y
113 z,-x,y
114 -y,z,x
115 -y,-x,z
116 y,x,z
117 x,-z,-y
118 x,z,y
119 -z,y,-x
120 z,y,x
121 -x,1/2-y,1/2-z
122 y,1/2-x,1/2-z
123 x,1/2+y,1/2-z
124 -y,1/2+x,1/2-z
125 -x,1/2+z,1/2-y
126 -x,1/2+y,1/2+z
127 -x,1/2-z,1/2+y
128 -z,1/2-y,1/2+x
129 x,1/2-y,1/2+z
130 z,1/2-y,1/2-x
131 -z,1/2-x,1/2-y
132 -y,1/2-z,1/2-x
133 y,1/2+z,1/2-x
134 -z,1/2+x,1/2+y
135 y,1/2-z,1/2+x
136 z,1/2+x,1/2-y
137 z,1/2-x,1/2+y
138 -y,1/2+z,1/2+x
139 -y,1/2-x,1/2+z
140 y,1/2+x,1/2+z
141 x,1/2-z,1/2-y
142 x,1/2+z,1/2+y
143 -z,1/2+y,1/2-x
144 z,1/2+y,1/2+x
145 1/2-x,-y,1/2-z
146 1/2+y,-x,1/2-z
147 1/2+x,y,1/2-z
148 1/2-y,x,1/2-z
149 1/2-x,z,1/2-y
150 1/2-x,y,1/2+z
151 1/2-x,-z,1/2+y
152 1/2-z,-y,1/2+x
153 1/2+x,-y,1/2+z
154 1/2+z,-y,1/2-x
155 1/2-z,-x,1/2-y
156 1/2-y,-z,1/2-x
157 1/2+y,z,1/2-x
158 1/2-z,x,1/2+y
159 1/2+y,-z,1/2+x
160 1/2+z,x,1/2-y
161 1/2+z,-x,1/2+y
162 1/2-y,z,1/2+x
163 1/2-y,-x,1/2+z
164 1/2+y,x,1/2+z
165 1/2+x,-z,1/2-y
166 1/2+x,z,1/2+y
167 1/2-z,y,1/2-x
168 1/2+z,y,1/2+x
169 1/2-x,1/2-y,-z
170 1/2+y,1/2-x,-z
171 1/2+x,1/2+y,-z
172 1/2-y,1/2+x,-z
173 1/2-x,1/2+z,-y
174 1/2-x,1/2+y,z
175 1/2-x,1/2-z,y
176 1/2-z,1/2-y,x
177 1/2+x,1/2-y,z
178 1/2+z,1/2-y,-x
179 1/2-z,1/2-x,-y
180 1/2-y,1/2-z,-x
181 1/2+y,1/2+z,-x
182 1/2-z,1/2+x,y
183 1/2+y,1/2-z,x
184 1/2+z,1/2+x,-y
185 1/2+z,1/2-x,y
186 1/2-y,1/2+z,x
187 1/2-y,1/2-x,z
188 1/2+y,1/2+x,z
189 1/2+x,1/2-z,-y
190 1/2+x,1/2+z,y
191 1/2-z,1/2+y,-x
192 1/2+z,1/2+y,x
_cell_length_a                   25.543(2)
_cell_length_b                   25.543(2)
_cell_length_c                   25.543(2)
_cell_angle_alpha                90
_cell_angle_beta                 90
_cell_angle_gamma                90
_cell_volume                     16665.4
loop_
_atom_site_label
_atom_site_type_symbol
_atom_site_fract_x
_atom_site_fract_y
_atom_site_fract_z
Zn1 Zn 0.79368(5) 0.70632(5) 0.29368(5)
O1 O 0.7824(4) 0.6343(5) 0.2824(4)
O2 O 0.7500 0.7500 0.2500
C1 C 0.7500 0.6126(8) 0.2500
C2 C 0.7223(8) 0.5238(7) 0.2223(8)
C3 C 0.7500 0.5552(10) 0.2500
O1DB O 0.7176(4) 0.6343(5) 0.2176(4)
C2DB C 0.7777(8) 0.5238(7) 0.2777(8)
O1RB O 0.7824(4) 0.3657(5) 0.2824(4)
C1W C 0.7500 0.3874(8) 0.2500
C2RB C 0.7223(8) 0.4762(7) 0.2223(8)
C3W C 0.7500 0.4448(10) 0.2500
O1W O 0.7176(4) 0.3657(5) 0.2176(4)
C2W C 0.7777(8) 0.4762(7) 0.2777(8)
Zn1D Zn 0.79368(5) 0.70632(5) 0.70632(5)
O1D O 0.7824(4) 0.7176(4) 0.6343(5)
C1D C 0.7500 0.7500 0.6126(8)
C2D C 0.7223(8) 0.7777(8) 0.5238(7)
C3D C 0.7500 0.7500 0.5552(10)
O1NC O 0.7176(4) 0.7824(4) 0.6343(5)
C2NC C 0.7777(8) 0.7223(8) 0.5238(7)
O1GC O 0.7824(4) 0.7176(4) 0.3657(5)
C1P C 0.7500 0.7500 0.3874(8)
C2GC C 0.7223(8) 0.7777(8) 0.4762(7)
C3P C 0.7500 0.7500 0.4448(10)
O1P O 0.7176(4) 0.7824(4) 0.3657(5)
C2P C 0.7777(8) 0.7223(8) 0.4762(7)
Zn1F Zn 0.79368(5) 0.29368(5) 0.29368(5)
O1F O 0.7824(4) 0.2824(4) 0.3657(5)
C1F C 0.7500 0.2500 0.3874(8)
C2F C 0.7223(8) 0.2223(8) 0.4762(7)
C3F C 0.7500 0.2500 0.4448(10)
O1OC O 0.7176(4) 0.2176(4) 0.3657(5)
C2OC C 0.7777(8) 0.2777(8) 0.4762(7)
O1DC O 0.7824(4) 0.2824(4) 0.6343(5)
C1O C 0.7500 0.2500 0.6126(8)
C2DC C 0.7223(8) 0.2223(8) 0.5238(7)
C3O C 0.7500 0.2500 0.5552(10)
O1O O 0.7176(4) 0.2176(4) 0.6343(5)
C2O C 0.7777(8) 0.2777(8) 0.5238(7)
Zn1P Zn 0.70632(5) 0.79368(5) 0.29368(5)
Zn1C Zn 0.70632(5) 0.20632(5) 0.29368(5)
Zn1E Zn 0.79368(5) 0.29368(5) 0.70632(5)
Zn1O Zn 0.70632(5) 0.20632(5) 0.70632(5)
Zn1Q Zn 0.70632(5) 0.70632(5) 0.20632(5)
Zn1R Zn 0.70632(5) 0.79368(5) 0.70632(5)
Zn1W Zn 0.70632(5) 0.29368(5) 0.20632(5)
Zn1CA Zn 0.79368(5) 0.79368(5) 0.20632(5)
O1IA O 0.6343(5) 0.7824(4) 0.2824(4)
O1CB O 0.7824(4) 0.6343(5) 0.7176(4)
O1HB O 0.8657(5) 0.7176(4) 0.2824(4)
O1UB O 0.8657(5) 0.2824(4) 0.2824(4)
O1VB O 0.7176(4) 0.8657(5) 0.2824(4)
O1MC O 0.8657(5) 0.7176(4) 0.7176(4)
O2C O 0.7500 0.2500 0.2500
O2D O 0.7500 0.7500 0.7500
loop_
_geom_bond_atom_site_label_1
_geom_bond_atom_site_label_2
_geom_bond_site_symmetry_1
_geom_bond_site_symmetry_2
Zn1 O1 1_555 1_555
O1 C1 1_555 1_555
O2 Zn1 1_555 1_555
C1 C3 1_555 1_555
C2 C3 1_555 1_555
C3 C2DB 1_555 1_555
O1DB C1 1_555 1_555
C2DB C2W 1_555 1_555
O1RB C1W 1_555 1_555
C1W C3W 1_555 1_555
C2RB C2 1_555 1_555
C3W C2RB 1_555 1_555
O1W C1W 1_555 1_555
C2W C3W 1_555 1_555
Zn1D O1D 1_555 1_555
O1D C1D 1_555 1_555
C1D C3D 1_555 1_555
C2D C3D 1_555 1_555
C3D C2NC 1_555 1_555
O1NC C1D 1_555 1_555
C2NC C2P 1_555 1_555
O1GC Zn1 1_555 1_555
C1P O1GC 1_555 1_555
C2GC C2D 1_555 1_555
C3P C1P 1_555 1_555
O1P C1P 1_555 1_555
C2P C3P 1_555 1_555
Zn1F O1RB 1_555 1_555
O1F Zn1F 1_555 1_555
C1F O1F 1_555 1_555
C2F C3F 1_555 1_555
C3F C1F 1_555 1_555
O1OC C1F 1_555 1_555
C2OC C3F 1_555 1_555
O1DC C1O 1_555 1_555
C1O C3O 1_555 1_555
C2DC C2F 1_555 1_555
C3O C2DC 1_555 1_555
O1O C1O 1_555 1_555
C2O C2OC 1_555 1_555
Zn1P O2 1_555 1_555
Zn1C O1OC 1_555 1_555
Zn1E O1DC 1_555 1_555
Zn1O O1O 1_555 1_555
Zn1Q O2 1_555 1_555
Zn1R O1NC 1_555 1_555
Zn1W O1W 1_555 1_555
Zn1CA O2 1_555 1_555
O1IA Zn1P 1_555 1_555
O1CB Zn1D 1_555 1_555
O1HB Zn1 1_555 1_555
O1UB Zn1F 1_555 1_555
O1VB Zn1P 1_555 1_555
O1MC Zn1D 1_555 1_555
O2C Zn1F 1_555 1_555
O2D Zn1D 1_555 1_555
O1DB Zn1Q 1_555 1_555
C2GC C3P 1_555 1_555
O1P Zn1P 1_555 1_555
C3O C2O 1_555 1_555
Zn1C O2C 1_555 1_555
Zn1R O2D 1_555 1_555
Zn1W O2C 1_555 1_555

#END
