
#######################################################################
#
#                 Cambridge Crystallographic Data Centre
#                                CCDC 
#
#######################################################################
#
# If this CIF has been generated from an entry in the Cambridge 
# Structural Database, then it will include bibliographic, chemical, 
# crystal, experimental, refinement or atomic coordinate data resulting 
# from the CCDC's data processing and validation procedures.
#
#######################################################################

data_PEVQEO
_symmetry_cell_setting           cubic
_symmetry_space_group_name_H-M   'F m -3 m'
_symmetry_Int_Tables_number      225
_space_group_name_Hall           '-F 4 2 3'
loop_
_symmetry_equiv_pos_site_id
_symmetry_equiv_pos_as_xyz
1 x,y,z
2 x,-z,y
3 x,z,-y
4 z,y,-x
5 -z,y,x
6 -y,x,z
7 y,-x,z
8 z,x,y
9 y,z,x
10 -y,-z,x
11 z,-x,-y
12 -y,z,-x
13 -z,-x,y
14 -z,x,-y
15 y,-z,-x
16 x,-y,-z
17 -x,y,-z
18 -x,-y,z
19 y,x,-z
20 -y,-x,-z
21 z,-y,x
22 -z,-y,-x
23 -x,z,y
24 -x,-z,-y
25 x,1/2+y,1/2+z
26 x,1/2-z,1/2+y
27 x,1/2+z,1/2-y
28 z,1/2+y,1/2-x
29 -z,1/2+y,1/2+x
30 -y,1/2+x,1/2+z
31 y,1/2-x,1/2+z
32 z,1/2+x,1/2+y
33 y,1/2+z,1/2+x
34 -y,1/2-z,1/2+x
35 z,1/2-x,1/2-y
36 -y,1/2+z,1/2-x
37 -z,1/2-x,1/2+y
38 -z,1/2+x,1/2-y
39 y,1/2-z,1/2-x
40 x,1/2-y,1/2-z
41 -x,1/2+y,1/2-z
42 -x,1/2-y,1/2+z
43 y,1/2+x,1/2-z
44 -y,1/2-x,1/2-z
45 z,1/2-y,1/2+x
46 -z,1/2-y,1/2-x
47 -x,1/2+z,1/2+y
48 -x,1/2-z,1/2-y
49 1/2+x,y,1/2+z
50 1/2+x,-z,1/2+y
51 1/2+x,z,1/2-y
52 1/2+z,y,1/2-x
53 1/2-z,y,1/2+x
54 1/2-y,x,1/2+z
55 1/2+y,-x,1/2+z
56 1/2+z,x,1/2+y
57 1/2+y,z,1/2+x
58 1/2-y,-z,1/2+x
59 1/2+z,-x,1/2-y
60 1/2-y,z,1/2-x
61 1/2-z,-x,1/2+y
62 1/2-z,x,1/2-y
63 1/2+y,-z,1/2-x
64 1/2+x,-y,1/2-z
65 1/2-x,y,1/2-z
66 1/2-x,-y,1/2+z
67 1/2+y,x,1/2-z
68 1/2-y,-x,1/2-z
69 1/2+z,-y,1/2+x
70 1/2-z,-y,1/2-x
71 1/2-x,z,1/2+y
72 1/2-x,-z,1/2-y
73 1/2+x,1/2+y,z
74 1/2+x,1/2-z,y
75 1/2+x,1/2+z,-y
76 1/2+z,1/2+y,-x
77 1/2-z,1/2+y,x
78 1/2-y,1/2+x,z
79 1/2+y,1/2-x,z
80 1/2+z,1/2+x,y
81 1/2+y,1/2+z,x
82 1/2-y,1/2-z,x
83 1/2+z,1/2-x,-y
84 1/2-y,1/2+z,-x
85 1/2-z,1/2-x,y
86 1/2-z,1/2+x,-y
87 1/2+y,1/2-z,-x
88 1/2+x,1/2-y,-z
89 1/2-x,1/2+y,-z
90 1/2-x,1/2-y,z
91 1/2+y,1/2+x,-z
92 1/2-y,1/2-x,-z
93 1/2+z,1/2-y,x
94 1/2-z,1/2-y,-x
95 1/2-x,1/2+z,y
96 1/2-x,1/2-z,-y
97 -x,-y,-z
98 -x,z,-y
99 -x,-z,y
100 -z,-y,x
101 z,-y,-x
102 y,-x,-z
103 -y,x,-z
104 -z,-x,-y
105 -y,-z,-x
106 y,z,-x
107 -z,x,y
108 y,-z,x
109 z,x,-y
110 z,-x,y
111 -y,z,x
112 -x,y,z
113 x,-y,z
114 x,y,-z
115 -y,-x,z
116 y,x,z
117 -z,y,-x
118 z,y,x
119 x,-z,-y
120 x,z,y
121 -x,1/2-y,1/2-z
122 -x,1/2+z,1/2-y
123 -x,1/2-z,1/2+y
124 -z,1/2-y,1/2+x
125 z,1/2-y,1/2-x
126 y,1/2-x,1/2-z
127 -y,1/2+x,1/2-z
128 -z,1/2-x,1/2-y
129 -y,1/2-z,1/2-x
130 y,1/2+z,1/2-x
131 -z,1/2+x,1/2+y
132 y,1/2-z,1/2+x
133 z,1/2+x,1/2-y
134 z,1/2-x,1/2+y
135 -y,1/2+z,1/2+x
136 -x,1/2+y,1/2+z
137 x,1/2-y,1/2+z
138 x,1/2+y,1/2-z
139 -y,1/2-x,1/2+z
140 y,1/2+x,1/2+z
141 -z,1/2+y,1/2-x
142 z,1/2+y,1/2+x
143 x,1/2-z,1/2-y
144 x,1/2+z,1/2+y
145 1/2-x,-y,1/2-z
146 1/2-x,z,1/2-y
147 1/2-x,-z,1/2+y
148 1/2-z,-y,1/2+x
149 1/2+z,-y,1/2-x
150 1/2+y,-x,1/2-z
151 1/2-y,x,1/2-z
152 1/2-z,-x,1/2-y
153 1/2-y,-z,1/2-x
154 1/2+y,z,1/2-x
155 1/2-z,x,1/2+y
156 1/2+y,-z,1/2+x
157 1/2+z,x,1/2-y
158 1/2+z,-x,1/2+y
159 1/2-y,z,1/2+x
160 1/2-x,y,1/2+z
161 1/2+x,-y,1/2+z
162 1/2+x,y,1/2-z
163 1/2-y,-x,1/2+z
164 1/2+y,x,1/2+z
165 1/2-z,y,1/2-x
166 1/2+z,y,1/2+x
167 1/2+x,-z,1/2-y
168 1/2+x,z,1/2+y
169 1/2-x,1/2-y,-z
170 1/2-x,1/2+z,-y
171 1/2-x,1/2-z,y
172 1/2-z,1/2-y,x
173 1/2+z,1/2-y,-x
174 1/2+y,1/2-x,-z
175 1/2-y,1/2+x,-z
176 1/2-z,1/2-x,-y
177 1/2-y,1/2-z,-x
178 1/2+y,1/2+z,-x
179 1/2-z,1/2+x,y
180 1/2+y,1/2-z,x
181 1/2+z,1/2+x,-y
182 1/2+z,1/2-x,y
183 1/2-y,1/2+z,x
184 1/2-x,1/2+y,z
185 1/2+x,1/2-y,z
186 1/2+x,1/2+y,-z
187 1/2-y,1/2-x,z
188 1/2+y,1/2+x,z
189 1/2-z,1/2+y,-x
190 1/2+z,1/2+y,x
191 1/2+x,1/2-z,-y
192 1/2+x,1/2+z,y
_cell_length_a                   25.5827(7)
_cell_length_b                   25.5827(7)
_cell_length_c                   25.5827(7)
_cell_angle_alpha                90
_cell_angle_beta                 90
_cell_angle_gamma                90
_cell_volume                     16743.2
loop_
_atom_site_label
_atom_site_type_symbol
_atom_site_fract_x
_atom_site_fract_y
_atom_site_fract_z
O1 O 0.2500 0.2500 0.2500
O2 O 0.2191(4) 0.1357(7) 0.2191(4)
C1 C 0.2500 0.1142(16) 0.2500
C2 C 0.2500 0.0566(16) 0.2500
C3 C 0.2799(6) 0.0259(9) 0.2799(6)
H1 H 0.3028 0.0424 0.3028
Zn1 Zn 0.20630(9) 0.20630(9) 0.20630(9)
O2T O 0.2191(4) -0.1357(7) 0.2191(4)
C1T C 0.2500 -0.1142(16) 0.2500
C2T C 0.2500 -0.0566(16) 0.2500
C3T C 0.2799(6) -0.0259(9) 0.2799(6)
H1T H 0.3028 -0.0424 0.3028
O2LB O 0.2809(4) 0.1357(7) 0.2809(4)
C3LB C 0.2201(6) 0.0259(9) 0.2201(6)
H1LB H 0.1972 0.0424 0.1972
O2QB O 0.2809(4) -0.1357(7) 0.2809(4)
C3QB C 0.2201(6) -0.0259(9) 0.2201(6)
H1QB H 0.1972 -0.0424 0.1972
O2A O 0.2191(4) -0.2191(4) 0.1357(7)
C1A C 0.2500 -0.2500 0.1142(16)
C2A C 0.2500 -0.2500 0.0566(16)
C3A C 0.2799(6) -0.2799(6) 0.0259(9)
H1A H 0.3028 -0.3028 0.0424
Zn1A Zn 0.20630(9) -0.20630(9) 0.20630(9)
O2J O 0.2191(4) -0.2191(4) -0.1357(7)
C1J C 0.2500 -0.2500 -0.1142(16)
C2J C 0.2500 -0.2500 -0.0566(16)
C3J C 0.2799(6) -0.2799(6) -0.0259(9)
H1J H 0.3028 -0.3028 -0.0424
O2PC O 0.2809(4) -0.2809(4) 0.1357(7)
C3PC C 0.2201(6) -0.2201(6) 0.0259(9)
H1PC H 0.1972 -0.1972 0.0424
O2GC O 0.2809(4) -0.2809(4) -0.1357(7)
C3GC C 0.2201(6) -0.2201(6) -0.0259(9)
H1GC H 0.1972 -0.1972 -0.0424
O2B O 0.2191(4) 0.2191(4) -0.1357(7)
C1B C 0.2500 0.2500 -0.1142(16)
C2B C 0.2500 0.2500 -0.0566(16)
C3B C 0.2799(6) 0.2799(6) -0.0259(9)
H1B H 0.3028 0.3028 -0.0424
Zn1B Zn 0.20630(9) 0.20630(9) -0.20630(9)
O2G O 0.2191(4) 0.2191(4) 0.1357(7)
C1G C 0.2500 0.2500 0.1142(16)
C2G C 0.2500 0.2500 0.0566(16)
C3G C 0.2799(6) 0.2799(6) 0.0259(9)
H1G H 0.3028 0.3028 0.0424
O2QC O 0.2809(4) 0.2809(4) -0.1357(7)
C3QC C 0.2201(6) 0.2201(6) -0.0259(9)
H1QC H 0.1972 0.1972 -0.0424
O2FC O 0.2809(4) 0.2809(4) 0.1357(7)
C3FC C 0.2201(6) 0.2201(6) 0.0259(9)
H1FC H 0.1972 0.1972 0.0424
Zn1HA Zn 0.20630(9) 0.29370(9) 0.29370(9)
O1A O 0.2500 -0.2500 0.2500
O1B O 0.2500 0.2500 -0.2500
O2C O 0.2191(4) 0.1357(7) -0.2191(4)
O2F O 0.1357(7) -0.2191(4) 0.2191(4)
O2H O 0.1357(7) 0.2191(4) 0.2191(4)
O2R O 0.1357(7) 0.2191(4) -0.2191(4)
O2HA O 0.2191(4) 0.2809(4) 0.3643(7)
O2LA O 0.1357(7) 0.2809(4) 0.2809(4)
O2MA O 0.2191(4) 0.3643(7) 0.2809(4)
Zn1J Zn 0.20630(9) -0.20630(9) -0.20630(9)
Zn1GB Zn 0.29370(9) 0.20630(9) 0.29370(9)
Zn1OB Zn 0.29370(9) -0.20630(9) 0.29370(9)
Zn1XB Zn 0.29370(9) -0.29370(9) 0.20630(9)
Zn1CC Zn 0.29370(9) 0.29370(9) 0.20630(9)
Zn1EC Zn 0.29370(9) -0.29370(9) -0.20630(9)
Zn1MC Zn 0.29370(9) 0.29370(9) -0.20630(9)
loop_
_geom_bond_atom_site_label_1
_geom_bond_atom_site_label_2
_geom_bond_site_symmetry_1
_geom_bond_site_symmetry_2
O1 Zn1 1_555 1_555
O2 C1 1_555 1_555
C1 C2 1_555 1_555
C2 C3 1_555 1_555
C3 H1 1_555 1_555
Zn1 O2 1_555 1_555
O2T C1T 1_555 1_555
C1T C2T 1_555 1_555
C2T C3T 1_555 1_555
C3T C3 1_555 1_555
H1T C3T 1_555 1_555
O2LB C1 1_555 1_555
C3LB C2 1_555 1_555
H1LB C3LB 1_555 1_555
O2QB C1T 1_555 1_555
C3QB C2T 1_555 1_555
H1QB C3QB 1_555 1_555
O2A C1A 1_555 1_555
C1A C2A 1_555 1_555
C2A C3A 1_555 1_555
C3A H1A 1_555 1_555
Zn1A O2T 1_555 1_555
O2J C1J 1_555 1_555
C1J C2J 1_555 1_555
C2J C3J 1_555 1_555
C3J C3A 1_555 1_555
H1J C3J 1_555 1_555
O2PC C1A 1_555 1_555
C3PC C2A 1_555 1_555
H1PC C3PC 1_555 1_555
O2GC C1J 1_555 1_555
C3GC C2J 1_555 1_555
H1GC C3GC 1_555 1_555
O2B C1B 1_555 1_555
C1B C2B 1_555 1_555
C2B C3B 1_555 1_555
C3B H1B 1_555 1_555
Zn1B O2B 1_555 1_555
O2G Zn1 1_555 1_555
C1G O2G 1_555 1_555
C2G C1G 1_555 1_555
C3G C3B 1_555 1_555
H1G C3G 1_555 1_555
O2QC C1B 1_555 1_555
C3QC C2B 1_555 1_555
H1QC C3QC 1_555 1_555
O2FC C1G 1_555 1_555
C3FC C2G 1_555 1_555
H1FC C3FC 1_555 1_555
Zn1HA O1 1_555 1_555
O1A Zn1A 1_555 1_555
O1B Zn1B 1_555 1_555
O2C Zn1B 1_555 1_555
O2F Zn1A 1_555 1_555
O2H Zn1 1_555 1_555
O2R Zn1B 1_555 1_555
O2HA Zn1HA 1_555 1_555
O2LA Zn1HA 1_555 1_555
O2MA Zn1HA 1_555 1_555
Zn1J O2J 1_555 1_555
Zn1GB O1 1_555 1_555
Zn1OB O2QB 1_555 1_555
Zn1XB O2PC 1_555 1_555
Zn1CC O1 1_555 1_555
Zn1EC O2GC 1_555 1_555
Zn1MC O2QC 1_555 1_555
O2LB Zn1GB 1_555 1_555
C3LB C3QB 1_555 1_555
O2A Zn1A 1_555 1_555
C3PC C3GC 1_555 1_555
C2G C3G 1_555 1_555
C3QC C3FC 1_555 1_555
O2FC Zn1CC 1_555 1_555
O1A Zn1OB 1_555 1_555
O1A Zn1XB 1_555 1_555
O1B Zn1MC 1_555 1_555

#END
