
#######################################################################
#
#                 Cambridge Crystallographic Data Centre
#                                CCDC 
#
#######################################################################
#
# If this CIF has been generated from an entry in the Cambridge 
# Structural Database, then it will include bibliographic, chemical, 
# crystal, experimental, refinement or atomic coordinate data resulting 
# from the CCDC's data processing and validation procedures.
#
#######################################################################

data_PEVZIA
_symmetry_cell_setting           monoclinic
_symmetry_space_group_name_H-M   'C 2/c'
_symmetry_Int_Tables_number      15
_space_group_name_Hall           '-C 2yn'
loop_
_symmetry_equiv_pos_site_id
_symmetry_equiv_pos_as_xyz
1 x,y,z
2 1/2+x,1/2+y,z
3 -x,y,1/2-z
4 1/2-x,1/2+y,1/2-z
5 -x,-y,-z
6 1/2-x,1/2-y,-z
7 x,-y,1/2+z
8 1/2+x,1/2-y,1/2+z
_cell_length_a                   9.732(3)
_cell_length_b                   14.658(5)
_cell_length_c                   8.811(3)
_cell_angle_alpha                90
_cell_angle_beta                 102.935(4)
_cell_angle_gamma                90
_cell_volume                     1225.01
loop_
_atom_site_label
_atom_site_type_symbol
_atom_site_fract_x
_atom_site_fract_y
_atom_site_fract_z
Cd1 Cd 0.5000 0.27693(3) 1.2500
S1 S 0.33805(12) 0.41737(7) 1.11886(14)
O1 O 0.6206(3) 0.2688(2) 1.0529(3)
N1 N 0.5611(4) 0.2660(2) 0.9043(4)
C1 C 0.5298(4) 0.3448(3) 0.8267(4)
H1 H 0.5494 0.3999 0.8795
C2 C 0.5334(4) 0.1853(3) 0.8280(4)
N2 N 0.1594(4) 0.3278(3) 0.8721(4)
C3 C 0.2337(4) 0.3642(3) 0.9726(5)
C4 C 0.5790(5) 0.1011(3) 0.9181(5)
H2 H 0.6724 0.0852 0.9086
H3 H 0.5153 0.0524 0.8783
H4 H 0.5790 0.1113 1.0257
Cd1G Cd 0.0000 0.22307(3) 0.7500
Cd1_2 Cd 0.5000 0.27693(3) 0.2500
Cd1G_2 Cd 1.0000 0.22307(3) 1.7500
S1B S 0.66195(12) 0.41737(7) 1.38114(14)
O1B O 0.3794(3) 0.2688(2) 0.4471(3)
O1B_2 O 0.3794(3) 0.2688(2) 1.4471(3)
N1B N 0.4389(4) 0.2660(2) 0.5957(4)
C1B C 0.4702(4) 0.3448(3) 0.6733(4)
H1B H 0.4506 0.3999 0.6205
C2B C 0.4666(4) 0.1853(3) 0.6720(4)
N2B N 0.8406(4) 0.3278(3) 1.6279(4)
N2G N 0.6594(4) 0.1722(3) 1.3721(4)
N2E N 0.3406(4) 0.1722(3) 1.1279(4)
C3B C 0.7663(4) 0.3642(3) 1.5274(5)
C4B C 0.4210(5) 0.1011(3) 0.5819(5)
H2B H 0.3276 0.0852 0.5914
H3B H 0.4847 0.0524 0.6217
H4B H 0.4210 0.1113 0.4743
loop_
_geom_bond_atom_site_label_1
_geom_bond_atom_site_label_2
_geom_bond_site_symmetry_1
_geom_bond_site_symmetry_2
Cd1 S1 1_555 1_555
S1 C3 1_555 1_555
O1 Cd1 1_555 1_555
N1 O1 1_555 1_555
C1 N1 1_555 1_555
H1 C1 1_555 1_555
C2 N1 1_555 1_555
N2 C3 1_555 1_555
C4 C2 1_555 1_555
H2 C4 1_555 1_555
H3 C4 1_555 1_555
H4 C4 1_555 1_555
Cd1G N2 1_555 1_555
Cd1_2 O1B 1_555 1_555
Cd1G_2 N2B 1_555 1_555
S1B Cd1 1_555 1_555
O1B N1B 1_555 1_555
O1B_2 Cd1 1_555 1_555
N1B C1B 1_555 1_555
C1B C1 1_555 1_555
H1B C1B 1_555 1_555
C2B C2 1_555 1_555
N2B C3B 1_555 1_555
N2G Cd1 1_555 1_555
N2E Cd1 1_555 1_555
C3B S1B 1_555 1_555
C4B C2B 1_555 1_555
H2B C4B 1_555 1_555
H3B C4B 1_555 1_555
H4B C4B 1_555 1_555
N1B C2B 1_555 1_555

#END
