
#######################################################################
#
#                 Cambridge Crystallographic Data Centre
#                                CCDC 
#
#######################################################################
#
# If this CIF has been generated from an entry in the Cambridge 
# Structural Database, then it will include bibliographic, chemical, 
# crystal, experimental, refinement or atomic coordinate data resulting 
# from the CCDC's data processing and validation procedures.
#
#######################################################################

data_PEVZOG
_symmetry_cell_setting           monoclinic
_symmetry_space_group_name_H-M   'C 2/c'
_symmetry_Int_Tables_number      15
_space_group_name_Hall           '-C 2yn'
loop_
_symmetry_equiv_pos_site_id
_symmetry_equiv_pos_as_xyz
1 x,y,z
2 1/2+x,1/2+y,z
3 -x,y,1/2-z
4 1/2-x,1/2+y,1/2-z
5 -x,-y,-z
6 1/2-x,1/2-y,-z
7 x,-y,1/2+z
8 1/2+x,1/2-y,1/2+z
_cell_length_a                   9.528(7)
_cell_length_b                   14.563(11)
_cell_length_c                   8.415(6)
_cell_angle_alpha                90
_cell_angle_beta                 102.195(9)
_cell_angle_gamma                90
_cell_volume                     1141.29
loop_
_atom_site_label
_atom_site_type_symbol
_atom_site_fract_x
_atom_site_fract_y
_atom_site_fract_z
N1 N 0.1473(3) -0.17999(18) -0.6269(3)
Co1 Co 0.5000 -0.22633(4) -0.2500
S1 S 0.65656(8) -0.09058(5) -0.11911(10)
O1 O 0.3806(2) -0.22823(15) -0.0677(3)
N2 N 0.4395(2) -0.23133(17) 0.0883(3)
C1 C 0.4668(3) -0.3125(2) 0.1682(4)
C2 C 0.4698(3) -0.15138(19) 0.1694(4)
H1 H 0.4491 -0.0960 0.1144
C3 C 0.7714(3) -0.1427(2) 0.0272(4)
C4 C 0.4183(4) -0.3984(2) 0.0773(4)
H2 H 0.3366 -0.4227 0.1131
H3 H 0.4947 -0.4426 0.0970
H4 H 0.3923 -0.3852 -0.0370
N1G N 0.6473(3) -0.32001(18) -0.1269(3)
N1E N 0.3527(3) -0.32001(18) -0.3731(3)
N1B N 0.8527(3) -0.17999(18) 0.1269(3)
Co1G Co 0.0000 -0.27367(4) -0.7500
Co1_2 Co 0.5000 -0.22633(4) 0.7500
Co1G_2 Co 1.0000 -0.27367(4) 0.2500
S1B S 0.34344(8) -0.09058(5) -0.38089(10)
O1B O 0.6194(2) -0.22823(15) 0.5677(3)
O1B_2 O 0.6194(2) -0.22823(15) -0.4323(3)
N2B N 0.5605(2) -0.23133(17) 0.4117(3)
C1B C 0.5332(3) -0.3125(2) 0.3318(4)
C2B C 0.5302(3) -0.15138(19) 0.3306(4)
H1B H 0.5509 -0.0960 0.3856
C3B C 0.2286(3) -0.1427(2) -0.5272(4)
C4B C 0.5817(4) -0.3984(2) 0.4227(4)
H2B H 0.6634 -0.4227 0.3869
H3B H 0.5053 -0.4426 0.4030
H4B H 0.6077 -0.3852 0.5370
loop_
_geom_bond_atom_site_label_1
_geom_bond_atom_site_label_2
_geom_bond_site_symmetry_1
_geom_bond_site_symmetry_2
N1 Co1G 1_555 1_555
Co1 S1 1_555 1_555
S1 C3 1_555 1_555
O1 Co1 1_555 1_555
N2 O1 1_555 1_555
C1 N2 1_555 1_555
C2 N2 1_555 1_555
H1 C2 1_555 1_555
C3 N1B 1_555 1_555
C4 C1 1_555 1_555
H2 C4 1_555 1_555
H3 C4 1_555 1_555
H4 C4 1_555 1_555
N1G Co1 1_555 1_555
N1E Co1 1_555 1_555
N1B Co1G_2 1_555 1_555
Co1_2 O1B 1_555 1_555
S1B Co1 1_555 1_555
O1B N2B 1_555 1_555
O1B_2 Co1 1_555 1_555
N2B C1B 1_555 1_555
C1B C1 1_555 1_555
C2B C2 1_555 1_555
H1B C2B 1_555 1_555
C3B N1 1_555 1_555
C4B C1B 1_555 1_555
H2B C4B 1_555 1_555
H3B C4B 1_555 1_555
H4B C4B 1_555 1_555
S1B C3B 1_555 1_555
N2B C2B 1_555 1_555

#END
