
#######################################################################
#
#                 Cambridge Crystallographic Data Centre
#                                CCDC 
#
#######################################################################
#
# If this CIF has been generated from an entry in the Cambridge 
# Structural Database, then it will include bibliographic, chemical, 
# crystal, experimental, refinement or atomic coordinate data resulting 
# from the CCDC's data processing and validation procedures.
#
#######################################################################

data_PEVZAS
_symmetry_cell_setting           monoclinic
_symmetry_space_group_name_H-M   'P 21/c'
_symmetry_Int_Tables_number      14
_space_group_name_Hall           '-P 2ybc'
loop_
_symmetry_equiv_pos_site_id
_symmetry_equiv_pos_as_xyz
1 x,y,z
2 -x,1/2+y,1/2-z
3 -x,-y,-z
4 x,1/2-y,1/2+z
_cell_length_a                   11.6471(7)
_cell_length_b                   9.5334(7)
_cell_length_c                   9.1109(9)
_cell_angle_alpha                90
_cell_angle_beta                 92.8930(10)
_cell_angle_gamma                90
_cell_volume                     1010.35
loop_
_atom_site_label
_atom_site_type_symbol
_atom_site_fract_x
_atom_site_fract_y
_atom_site_fract_z
Cd1 Cd 0.46236(2) 0.80535(3) 1.02936(3)
O1 O 0.3967(2) 0.8050(3) 0.7806(3)
O2 O 0.2952(3) 0.7980(3) 0.5723(3)
O3 O 0.3844(2) 1.0356(3) 1.0437(3)
O4 O 0.3755(2) 1.1317(3) 0.8253(3)
O5 O 0.5672(3) 0.6199(4) 0.9635(4)
H1 H 0.592(4) 0.620(6) 0.882(2)
H2 H 0.604(4) 0.584(5) 1.029(3)
C1 C 0.1182(4) 1.1045(5) 0.8373(5)
H5 H 0.0964 1.1766 0.9074
C2 C 0.1520(4) 1.1574(5) 0.6909(5)
H6 H 0.1775 1.2475 0.6707
C3 C 0.1393(4) 1.0534(5) 0.5954(5)
H7 H 0.1539 1.0573 0.4960
C4 C 0.0966(4) 0.9270(5) 0.6769(5)
H8 H 0.0578 0.8546 0.6162
C5 C 0.1985(3) 0.8754(4) 0.7823(4)
H9 H 0.1698 0.7944 0.8356
C6 C 0.2118(3) 0.9977(4) 0.8961(4)
H10 H 0.1883 0.9622 0.9910
C7 C 0.0229(3) 1.0002(5) 0.7893(5)
H11 H 0.0015 0.9385 0.8681
H12 H -0.0447 1.0455 0.7445
C8 C 0.3040(3) 0.8261(4) 0.7074(4)
C9 C 0.3303(3) 1.0592(4) 0.9195(4)
Cd1C Cd 0.46236(2) 0.69465(3) 0.52936(3)
Cd1B Cd 0.53764(2) 1.19465(3) 0.97064(3)
O2C O 0.2952(3) 0.7020(3) 1.0723(3)
O3B O 0.6156(2) 0.9644(3) 0.9563(3)
O4B O 0.6245(2) 0.8683(3) 1.1747(3)
O6 O 0.7052(6) 0.5134(6) 1.1810(6)
H3 H 0.721(7) 0.433(4) 1.143(8)
H4 H 0.670(7) 0.498(7) 1.260(6)
loop_
_geom_bond_atom_site_label_1
_geom_bond_atom_site_label_2
_geom_bond_site_symmetry_1
_geom_bond_site_symmetry_2
Cd1 O1 1_555 1_555
O1 C8 1_555 1_555
O2 C8 1_555 1_555
O3 Cd1 1_555 1_555
O4 C9 1_555 1_555
O5 Cd1 1_555 1_555
H1 O5 1_555 1_555
H2 O5 1_555 1_555
O6 H3 1_555 1_555
H4 O6 1_555 1_555
C1 H5 1_555 1_555
C2 C1 1_555 1_555
H6 C2 1_555 1_555
C3 C2 1_555 1_555
H7 C3 1_555 1_555
C4 C3 1_555 1_555
H8 C4 1_555 1_555
C5 C4 1_555 1_555
H9 C5 1_555 1_555
C6 C1 1_555 1_555
H10 C6 1_555 1_555
C7 C1 1_555 1_555
H11 C7 1_555 1_555
H12 C7 1_555 1_555
C8 C5 1_555 1_555
C9 O3 1_555 1_555
Cd1C O2 1_555 1_555
Cd1B O3 1_555 1_555
O2C Cd1 1_555 1_555
O3B Cd1 1_555 1_555
O4B Cd1 1_555 1_555
O4 Cd1B 1_555 1_555
C4 C7 1_555 1_555
C5 C6 1_555 1_555
C6 C9 1_555 1_555
Cd1B O3B 1_555 1_555

#END
