
#######################################################################
#
#                 Cambridge Crystallographic Data Centre
#                                CCDC 
#
#######################################################################
#
# If this CIF has been generated from an entry in the Cambridge 
# Structural Database, then it will include bibliographic, chemical, 
# crystal, experimental, refinement or atomic coordinate data resulting 
# from the CCDC's data processing and validation procedures.
#
#######################################################################

data_PEWDUS
_symmetry_cell_setting           triclinic
_symmetry_space_group_name_H-M   'P -1'
_symmetry_Int_Tables_number      2
_space_group_name_Hall           '-P 1'
loop_
_symmetry_equiv_pos_site_id
_symmetry_equiv_pos_as_xyz
1 x,y,z
2 -x,-y,-z
_cell_length_a                   8.56430(10)
_cell_length_b                   8.75040(10)
_cell_length_c                   12.4227(2)
_cell_angle_alpha                84.9160(10)
_cell_angle_beta                 77.1750(10)
_cell_angle_gamma                61.9260(10)
_cell_volume                     800.804
loop_
_atom_site_label
_atom_site_type_symbol
_atom_site_fract_x
_atom_site_fract_y
_atom_site_fract_z
U1 U 0.354632(16) 0.967732(16) 0.425540(10)
U2 U 0.370396(18) 0.750076(18) 0.702140(11)
Cu1 Cu 0.14701(7) 0.70727(6) 0.46248(4)
O1 O 0.1892(4) 0.8334(4) 0.5680(2)
O2 O 0.4531(4) 0.9215(4) 0.5876(2)
O3 O 0.1445(4) 0.8920(4) 0.3672(2)
O4 O 0.1659(4) 1.1771(4) 0.4686(3)
O5 O 0.5313(4) 0.7584(4) 0.3780(3)
O6 O 0.5329(4) 0.5651(4) 0.6176(3)
O7 O 0.2003(6) 0.9265(5) 0.7872(3)
O8 O 0.1655(4) 0.5154(4) 0.5677(3)
O9 O 0.0986(4) 0.5926(4) 0.3517(3)
O10 O 0.1906(4) 0.5863(4) 0.7644(3)
O11 O 0.3467(5) 0.0475(5) 1.2364(3)
O12 O 0.3867(6) 0.5581(5) 0.8608(3)
C1 C 0.2365(6) 0.3868(6) 0.9146(3)
C2 C 0.3050(6) 0.3417(6) 1.0113(3)
H1 H 0.3723 0.3907 1.0284
C3 C 0.2721(6) 0.5159(6) 0.8426(3)
C4 C 0.1343(7) 0.3154(7) 0.8897(4)
H2 H 0.0867 0.3473 0.8261
C5 C 0.2719(6) 0.2234(6) 1.0815(3)
C6 C 0.3403(6) 0.1803(6) 1.1864(3)
C7 C 0.1709(7) 0.1506(6) 1.0558(4)
H3 H 0.1488 0.0713 1.1030
C8 C 0.1035(8) 0.1959(7) 0.9604(4)
H4 H 0.0369 0.1461 0.9433
O13 O 0.3895(6) 0.2801(5) 1.2200(3)
U1_2 U 0.354632(16) -0.032268(16) 1.425540(10)
U1A U 0.645368(16) 1.032268(16) 0.574460(10)
U2A U 0.629604(18) 0.249924(18) 1.297860(11)
Cu1A Cu -0.14701(7) 1.29273(6) 0.53752(4)
Cu1A_2 Cu 0.85299(7) 0.29273(6) 0.53752(4)
O2A O 0.5469(4) 1.0785(4) 0.4124(2)
O4A O -0.1659(4) 0.8229(4) 0.5314(3)
O6A O 0.4671(4) 0.4349(4) 0.3824(3)
O11_2 O 0.3467(5) 1.0475(5) 0.2364(3)
O13A O 0.6105(6) 0.7199(5) 0.7800(3)
O14 O 0.7335(11) 0.2757(11) 0.8518(7)
loop_
_geom_bond_atom_site_label_1
_geom_bond_atom_site_label_2
_geom_bond_site_symmetry_1
_geom_bond_site_symmetry_2
U1 O1 1_555 1_555
U2 O1 1_555 1_555
Cu1 O1 1_555 1_555
O2 U1 1_555 1_555
O3 U1 1_555 1_555
O4 U1 1_555 1_555
O5 U1 1_555 1_555
O6 U2 1_555 1_555
O7 U2 1_555 1_555
O8 Cu1 1_555 1_555
O9 Cu1 1_555 1_555
O10 U2 1_555 1_555
O11 C6 1_555 1_555
O12 U2 1_555 1_555
C1 C2 1_555 1_555
C2 H1 1_555 1_555
C3 O10 1_555 1_555
C4 C1 1_555 1_555
H2 C4 1_555 1_555
C5 C2 1_555 1_555
C6 C5 1_555 1_555
C7 C5 1_555 1_555
H3 C7 1_555 1_555
C8 C4 1_555 1_555
H4 C8 1_555 1_555
O13 C6 1_555 1_555
U1_2 O11 1_555 1_555
U1A O2 1_555 1_555
U2A O13 1_555 1_555
Cu1A O4 1_555 1_555
Cu1A_2 O6 1_555 1_555
O2A U1 1_555 1_555
O4A Cu1 1_555 1_555
O6A Cu1 1_555 1_555
O11_2 U1 1_555 1_555
O13A U2 1_555 1_555
U2 O2 1_555 1_555
Cu1 O3 1_555 1_555
O12 C3 1_555 1_555
C1 C3 1_555 1_555
C7 C8 1_555 1_555
U1A O2A 1_555 1_555

#END
