
#######################################################################
#
#                 Cambridge Crystallographic Data Centre
#                                CCDC 
#
#######################################################################
#
# If this CIF has been generated from an entry in the Cambridge 
# Structural Database, then it will include bibliographic, chemical, 
# crystal, experimental, refinement or atomic coordinate data resulting 
# from the CCDC's data processing and validation procedures.
#
#######################################################################

data_PEWFOO
_symmetry_cell_setting           triclinic
_symmetry_space_group_name_H-M   'P -1'
_symmetry_Int_Tables_number      2
_space_group_name_Hall           '-P 1'
loop_
_symmetry_equiv_pos_site_id
_symmetry_equiv_pos_as_xyz
1 x,y,z
2 -x,-y,-z
_cell_length_a                   6.9898(5)
_cell_length_b                   7.0913(5)
_cell_length_c                   10.0712(11)
_cell_angle_alpha                100.537(4)
_cell_angle_beta                 96.433(4)
_cell_angle_gamma                114.224(3)
_cell_volume                     437.714
loop_
_atom_site_label
_atom_site_type_symbol
_atom_site_fract_x
_atom_site_fract_y
_atom_site_fract_z
U1 U 1.0000 0.5000 0.5000
Cu1 Cu 0.5000 1.0000 0.5000
O1 O 0.8322(8) 0.4304(6) 0.2521(4)
O2 O 0.7448(5) 0.3926(6) 0.5463(4)
O3 O 0.5612(5) 0.9218(6) 0.3223(3)
O4 O 0.7086(6) 0.9135(7) 0.5858(4)
O5 O 0.9067(5) 1.1540(5) 0.3593(3)
O6 O 0.8884(6) 0.7335(6) 0.3853(3)
C1 C 0.8328(7) 0.6085(7) 0.2640(4)
C2 C 0.7419(6) 0.9905(6) 0.2914(4)
C3 C 0.7542(6) 0.8684(7) 0.1569(4)
C4 C 0.7211(7) 0.9410(8) 0.0411(5)
H1 H 0.7030 1.0652 0.0506
C5 C 0.7149(9) 0.8277(9) -0.0889(5)
H2 H 0.6921 0.8759 -0.1663
C6 C 0.7427(9) 0.6439(10) -0.1028(5)
H3 H 0.7373 0.5680 -0.1900
C7 C 0.7783(8) 0.5720(8) 0.0115(5)
H4 H 0.7977 0.4484 0.0012
C8 C 0.7854(7) 0.6843(7) 0.1427(4)
O2A O 0.2552(5) 0.6074(6) 0.4537(4)
O1A O 1.1678(8) 0.5696(6) 0.7479(4)
O3A O 1.4388(5) 0.0782(6) 0.6777(3)
O5A O 1.0933(5) -0.1540(5) 0.6407(3)
O6A O 1.1116(6) 0.2665(6) 0.6147(3)
C1A C 1.1672(7) 0.3915(7) 0.7360(4)
C2A C 1.2581(6) 0.0095(6) 0.7086(4)
C3A C 1.2458(6) 0.1316(7) 0.8431(4)
C4A C 1.2789(7) 0.0590(8) 0.9589(5)
H1A H 1.2970 -0.0652 0.9494
C5A C 1.2851(9) 0.1723(9) 1.0889(5)
H2A H 1.3079 0.1241 1.1663
C6A C 1.2573(9) 0.3561(10) 1.1028(5)
H3A H 1.2627 0.4320 1.1900
C7A C 1.2217(8) 0.4280(8) 0.9885(5)
H4A H 1.2023 0.5516 0.9988
C8A C 1.2146(7) 0.3157(7) 0.8573(4)
O4A O 0.2914(6) 1.0865(7) 0.4142(4)
U1_2 U 0.0000 0.5000 0.5000
U1_3 U 1.0000 -0.5000 0.5000
U1_4 U 1.0000 1.5000 0.5000
Cu1_2 Cu 0.5000 0.0000 0.5000
Cu1_3 Cu 1.5000 0.0000 0.5000
O2_2 O 0.7448(5) 1.3926(6) 0.5463(4)
O2A_2 O 1.2552(5) 0.6074(6) 0.4537(4)
O3A_2 O 0.4388(5) 1.0782(6) 0.6777(3)
O5_2 O 0.9067(5) 0.1540(5) 0.3593(3)
O5A_2 O 1.0933(5) 0.8460(5) 0.6407(3)
loop_
_geom_bond_atom_site_label_1
_geom_bond_atom_site_label_2
_geom_bond_site_symmetry_1
_geom_bond_site_symmetry_2
U1 O1 1_555 1_555
Cu1 O3 1_555 1_555
O1 C1 1_555 1_555
O2 U1 1_555 1_555
O3 C2 1_555 1_555
O4 Cu1 1_555 1_555
O5 C2 1_555 1_555
O6 U1 1_555 1_555
C1 O6 1_555 1_555
C2 C3 1_555 1_555
C3 C4 1_555 1_555
C4 H1 1_555 1_555
C5 C4 1_555 1_555
H2 C5 1_555 1_555
C6 C5 1_555 1_555
H3 C6 1_555 1_555
C7 C6 1_555 1_555
H4 C7 1_555 1_555
C8 C1 1_555 1_555
O2A Cu1 1_555 1_555
O1A U1 1_555 1_555
O3A C2A 1_555 1_555
O5A C2A 1_555 1_555
O6A U1 1_555 1_555
C1A O1A 1_555 1_555
C2A C3A 1_555 1_555
C3A C4A 1_555 1_555
C4A H1A 1_555 1_555
C5A C4A 1_555 1_555
H2A C5A 1_555 1_555
C6A C5A 1_555 1_555
H3A C6A 1_555 1_555
C7A C6A 1_555 1_555
H4A C7A 1_555 1_555
C8A C1A 1_555 1_555
O4A Cu1 1_555 1_555
U1_2 O2A 1_555 1_555
U1_3 O5A 1_555 1_555
U1_4 O5 1_555 1_555
Cu1_2 O2 1_555 1_555
Cu1_3 O3A 1_555 1_555
O2_2 Cu1 1_555 1_555
O2A_2 U1 1_555 1_555
O3A_2 Cu1 1_555 1_555
O5_2 U1 1_555 1_555
O5A_2 U1 1_555 1_555
C3 C8 1_555 1_555
C7 C8 1_555 1_555
O6A C1A 1_555 1_555
C3A C8A 1_555 1_555
C7A C8A 1_555 1_555
U1_4 O2_2 1_555 1_555

#END
