
#######################################################################
#
#                 Cambridge Crystallographic Data Centre
#                                CCDC 
#
#######################################################################
#
# If this CIF has been generated from an entry in the Cambridge 
# Structural Database, then it will include bibliographic, chemical, 
# crystal, experimental, refinement or atomic coordinate data resulting 
# from the CCDC's data processing and validation procedures.
#
#######################################################################

data_PEWFAA
_symmetry_cell_setting           monoclinic
_symmetry_space_group_name_H-M   'P 21/c'
_symmetry_Int_Tables_number      14
_space_group_name_Hall           '-P 2ybc'
loop_
_symmetry_equiv_pos_site_id
_symmetry_equiv_pos_as_xyz
1 x,y,z
2 -x,1/2+y,1/2-z
3 -x,-y,-z
4 x,1/2-y,1/2+z
_cell_length_a                   7.9835(2)
_cell_length_b                   11.5456(2)
_cell_length_c                   10.9719(2)
_cell_angle_alpha                90
_cell_angle_beta                 105.3500(10)
_cell_angle_gamma                90
_cell_volume                     975.25
loop_
_atom_site_label
_atom_site_type_symbol
_atom_site_fract_x
_atom_site_fract_y
_atom_site_fract_z
Cu1 Cu 0.0000 0.0000 0.0000
O1 O 0.3260(3) 0.1325(2) 0.3541(2)
O2 O -0.3023(3) -0.2332(2) 0.3801(2)
O3 O -0.4518(3) -0.0703(2) 0.3283(3)
O4 O -0.2717(3) 0.0099(2) 0.1665(2)
O5 O 0.0098(3) -0.0053(2) 0.1764(2)
O6 O -0.0454(4) 0.1680(2) -0.0034(3)
O7 O -0.6747(3) 0.0247(2) 0.1038(2)
O8 O -0.3531(3) 0.1905(2) 0.3166(2)
O9 O 0.0773(4) 0.2305(3) 0.3030(3)
C1 C -0.1152(4) 0.0046(3) 0.2260(3)
C2 C -0.0623(4) 0.0057(3) 0.3684(3)
C3 C 0.0883(4) 0.0660(3) 0.4302(3)
C4 C 0.1678(4) 0.1498(3) 0.3547(3)
C5 C -0.1520(3) -0.0587(2) 0.4384(3)
C6 C -0.3151(4) -0.1248(3) 0.3759(3)
O10 O -0.4321(5) 0.1920(3) 0.0274(3)
U1 U -0.512558(13) 0.107007(9) 0.210060(10)
O3B O 0.4518(3) 0.0703(2) 0.6717(3)
O4B O 0.2717(3) -0.0099(2) 0.8335(2)
O5B O -0.0098(3) 0.0053(2) 0.8236(2)
O9B O -0.0773(4) -0.2305(3) 0.6970(3)
C1B C 0.1152(4) -0.0046(3) 0.7740(3)
C2B C 0.0623(4) -0.0057(3) 0.6316(3)
C3B C -0.0883(4) -0.0660(3) 0.5698(3)
C4B C -0.1678(4) -0.1498(3) 0.6453(3)
C5B C 0.1520(3) 0.0587(2) 0.5616(3)
C6B C 0.3151(4) 0.1248(3) 0.6241(3)
O1B O -0.3260(3) -0.1325(2) 0.6459(2)
O2B O 0.3023(3) 0.2332(2) 0.6199(2)
O7B O -0.3253(3) -0.0247(2) -0.1038(2)
O8B O -0.6469(3) -0.1905(2) -0.3166(2)
O10B O -0.5679(5) -0.1920(3) -0.0274(3)
U1B U -0.487442(13) -0.107007(9) -0.210060(10)
O6B O 0.0454(4) -0.1680(2) 0.0034(3)
Cu1_2 Cu -1.0000 0.0000 0.0000
Cu1_3 Cu 0.0000 0.0000 1.0000
O1_2 O -0.6740(3) 0.1325(2) 0.3541(2)
O1B_2 O -0.3260(3) -0.1325(2) -0.3541(2)
O2A O -0.6977(3) 0.2668(2) 0.1199(2)
O2C O -0.3023(3) -0.2668(2) -0.1199(2)
O3B_2 O -0.5482(3) 0.0703(2) -0.3283(3)
O4B_2 O -0.7283(3) -0.0099(2) -0.1665(2)
O5B_2 O -0.0098(3) 0.0053(2) -0.1764(2)
O7_2 O 0.3253(3) 0.0247(2) 0.1038(2)
U1_2 U 0.487442(13) 0.107007(9) 0.210060(10)
U1A U -0.487442(13) -0.392993(9) 0.289940(10)
U1B_2 U -0.487442(13) -0.107007(9) 0.789940(10)
U1B_3 U 0.512558(13) -0.107007(9) 0.789940(10)
U1C U 0.487442(13) 0.392993(9) 0.710060(10)
loop_
_geom_bond_atom_site_label_1
_geom_bond_atom_site_label_2
_geom_bond_site_symmetry_1
_geom_bond_site_symmetry_2
Cu1 O5 1_555 1_555
O1 C4 1_555 1_555
O2 C6 1_555 1_555
O3 C6 1_555 1_555
O4 C1 1_555 1_555
O5 C1 1_555 1_555
O6 Cu1 1_555 1_555
O7 U1 1_555 1_555
O8 U1 1_555 1_555
O9 C4 1_555 1_555
C1 C2 1_555 1_555
C2 C3 1_555 1_555
C3 C4 1_555 1_555
C5 C2 1_555 1_555
C6 C5 1_555 1_555
O10 U1 1_555 1_555
U1 O3 1_555 1_555
O3B C6B 1_555 1_555
O4B C1B 1_555 1_555
O5B C1B 1_555 1_555
O9B C4B 1_555 1_555
C1B C2B 1_555 1_555
C2B C3B 1_555 1_555
C3B C5 1_555 1_555
C4B C3B 1_555 1_555
C5B C3 1_555 1_555
C6B C5B 1_555 1_555
O1B C4B 1_555 1_555
O2B C6B 1_555 1_555
O7B Cu1 1_555 1_555
O8B U1B 1_555 1_555
O10B U1B 1_555 1_555
U1B O7B 1_555 1_555
O6B Cu1 1_555 1_555
Cu1_2 O7 1_555 1_555
Cu1_3 O5B 1_555 1_555
O1_2 U1 1_555 1_555
O1B_2 U1B 1_555 1_555
O2A U1 1_555 1_555
O2C U1B 1_555 1_555
O3B_2 U1B 1_555 1_555
O4B_2 U1B 1_555 1_555
O5B_2 Cu1 1_555 1_555
O7_2 Cu1 1_555 1_555
U1_2 O1 1_555 1_555
U1A O2 1_555 1_555
U1B_2 O1B 1_555 1_555
U1B_3 O3B 1_555 1_555
U1C O2B 1_555 1_555
O4 U1 1_555 1_555
O4B U1B_3 1_555 1_555
C2B C5B 1_555 1_555
O7_2 U1_2 1_555 1_555

#END
