
#######################################################################
#
#                 Cambridge Crystallographic Data Centre
#                                CCDC 
#
#######################################################################
#
# If this CIF has been generated from an entry in the Cambridge 
# Structural Database, then it will include bibliographic, chemical, 
# crystal, experimental, refinement or atomic coordinate data resulting 
# from the CCDC's data processing and validation procedures.
#
#######################################################################

data_PEWFEE
_symmetry_cell_setting           triclinic
_symmetry_space_group_name_H-M   'P -1'
_symmetry_Int_Tables_number      2
_space_group_name_Hall           '-P 1'
loop_
_symmetry_equiv_pos_site_id
_symmetry_equiv_pos_as_xyz
1 x,y,z
2 -x,-y,-z
_cell_length_a                   4.9959(3)
_cell_length_b                   6.9710(4)
_cell_length_c                   8.5143(4)
_cell_angle_alpha                97.310(3)
_cell_angle_beta                 106.420(3)
_cell_angle_gamma                91.960(4)
_cell_volume                     281.349
loop_
_atom_site_label
_atom_site_type_symbol
_atom_site_fract_x
_atom_site_fract_y
_atom_site_fract_z
U1 U 0.5000 0.5000 0.5000
Cu1 Cu 1.0000 1.0000 0.5000
O1 O 0.8116(5) 0.7244(3) -0.2923(2)
O2 O 0.6875(5) 0.8024(3) 0.3967(2)
O3 O 0.8642(5) 1.0393(3) -0.3093(2)
O4 O 0.7618(5) 0.3481(3) 0.4745(3)
C1 C 0.6355(7) 0.8290(4) -0.0063(3)
H1 H 0.7247 0.7144 -0.0107
C2 C 0.5100(6) 0.8782(4) 0.1184(3)
C3 C 0.6275(6) 0.9511(4) -0.1241(3)
C4 C 0.5354(6) 0.7478(4) 0.2477(3)
C5 C 0.7768(6) 0.8993(4) -0.2519(3)
O5 O 0.4118(6) 0.5851(3) 0.2135(3)
O2A O 0.3125(5) 1.1976(3) -0.3967(2)
C1A C 0.3645(7) 1.1710(4) 0.0063(3)
H1A H 0.2753 1.2856 0.0107
C2A C 0.4900(6) 1.1218(4) -0.1184(3)
C4A C 0.4646(6) 1.2522(4) -0.2477(3)
O5A O 0.5882(6) 1.4149(3) -0.2135(3)
O1A O 0.1884(5) 1.2756(3) 0.2923(2)
O3A O 0.1358(5) 0.9607(3) 0.3093(2)
C3A C 0.3725(6) 1.0489(4) 0.1241(3)
C5A C 0.2232(6) 1.1007(4) 0.2519(3)
O4A O 0.2382(5) 0.6519(3) 0.5255(3)
U1_2 U 0.5000 0.5000 -0.5000
U1_3 U 0.5000 1.5000 -0.5000
U1_4 U 0.5000 1.5000 0.5000
Cu1_2 Cu 0.0000 1.0000 -0.5000
Cu1_3 Cu 0.0000 1.0000 0.5000
Cu1_4 Cu 1.0000 0.0000 0.5000
Cu1_5 Cu 1.0000 1.0000 -0.5000
O1_2 O 0.8116(5) 0.7244(3) 0.7077(2)
O1A_2 O 0.1884(5) 0.2756(3) 0.2923(2)
O2A_2 O 0.3125(5) 0.1976(3) 0.6033(2)
O2A_3 O 1.3125(5) 1.1976(3) 0.6033(2)
O3_2 O 0.8642(5) 1.0393(3) 0.6907(2)
O3A_2 O 1.1358(5) 0.9607(3) 0.3093(2)
O4_2 O 0.7618(5) 1.3481(3) 0.4745(3)
O4A_2 O 1.2382(5) 0.6519(3) 0.5255(3)
O5A_2 O 0.5882(6) 0.4149(3) 0.7865(3)
loop_
_geom_bond_atom_site_label_1
_geom_bond_atom_site_label_2
_geom_bond_site_symmetry_1
_geom_bond_site_symmetry_2
U1 O2 1_555 1_555
Cu1 O2 1_555 1_555
O1 C5 1_555 1_555
O2 C4 1_555 1_555
O3 C5 1_555 1_555
O4 U1 1_555 1_555
C1 H1 1_555 1_555
C2 C1 1_555 1_555
C3 C1 1_555 1_555
C4 C2 1_555 1_555
C5 C3 1_555 1_555
O5 U1 1_555 1_555
O2A C4A 1_555 1_555
C1A H1A 1_555 1_555
C2A C3 1_555 1_555
C4A C2A 1_555 1_555
O5A C4A 1_555 1_555
O1A C5A 1_555 1_555
O3A C5A 1_555 1_555
C3A C2 1_555 1_555
C5A C3A 1_555 1_555
O4A U1 1_555 1_555
U1_2 O1 1_555 1_555
U1_3 O2A 1_555 1_555
U1_4 O1A 1_555 1_555
Cu1_2 O2A 1_555 1_555
Cu1_3 O3A 1_555 1_555
Cu1_4 O4 1_555 1_555
Cu1_5 O3 1_555 1_555
O1_2 U1 1_555 1_555
O1A_2 U1 1_555 1_555
O2A_2 U1 1_555 1_555
O2A_3 Cu1 1_555 1_555
O3_2 Cu1 1_555 1_555
O3A_2 Cu1 1_555 1_555
O4_2 Cu1 1_555 1_555
O4A_2 Cu1 1_555 1_555
O5A_2 U1 1_555 1_555
C4 O5 1_555 1_555
C1A C2A 1_555 1_555
C1A C3A 1_555 1_555
O5A U1_3 1_555 1_555
O4A Cu1_3 1_555 1_555
U1_4 O4_2 1_555 1_555

#END
