
#######################################################################
#
#                 Cambridge Crystallographic Data Centre
#                                CCDC 
#
#######################################################################
#
# If this CIF has been generated from an entry in the Cambridge 
# Structural Database, then it will include bibliographic, chemical, 
# crystal, experimental, refinement or atomic coordinate data resulting 
# from the CCDC's data processing and validation procedures.
#
#######################################################################

data_PEWGEF
_symmetry_cell_setting           rhombohedral
_symmetry_space_group_name_H-M   'R 3 m'
_symmetry_Int_Tables_number      160
_space_group_name_Hall           'R 3 -2"'
loop_
_symmetry_equiv_pos_site_id
_symmetry_equiv_pos_as_xyz
1 x,y,z
2 -y,x-y,z
3 -x+y,-x,z
4 -y,-x,z
5 x,x-y,z
6 -x+y,y,z
7 2/3+x,1/3+y,1/3+z
8 2/3-y,1/3+x-y,1/3+z
9 2/3-x+y,1/3-x,1/3+z
10 2/3-y,1/3-x,1/3+z
11 2/3+x,1/3+x-y,1/3+z
12 2/3-x+y,1/3+y,1/3+z
13 1/3+x,2/3+y,2/3+z
14 1/3-y,2/3+x-y,2/3+z
15 1/3-x+y,2/3-x,2/3+z
16 1/3-y,2/3-x,2/3+z
17 1/3+x,2/3+x-y,2/3+z
18 1/3-x+y,2/3+y,2/3+z
_cell_length_a                   24.401(4)
_cell_length_b                   24.401(4)
_cell_length_c                   11.5733(18)
_cell_angle_alpha                90
_cell_angle_beta                 90
_cell_angle_gamma                120
_cell_volume                     5967.65
loop_
_atom_site_label
_atom_site_type_symbol
_atom_site_fract_x
_atom_site_fract_y
_atom_site_fract_z
N4 N 0.2793(7) 0.4957(9) 0.5558(17)
C7 C 0.2480(7) 0.4961(13) 0.6736(15)
C8 C 0.2219(4) 0.4439(8) 0.4858(15)
N4E N 0.2164(11) 0.4957(9) 0.5558(17)
Cu1 Cu 0.06354(7) 0.53177(4) 0.61591(11)
Cu2 Cu 0.02826(4) 0.57320(4) 0.37064(5)
O1 O 0.0757(3) 0.53785(17) 0.4486(6)
H1 H 0.1134 0.5567 0.4238
O2 O 0.0116(4) 0.5058(2) 0.2647(6)
O3 O 0.0233(6) 0.5116(3) 0.7705(9)
O4 O -0.0691(11) 0.4654(5) 0.699(2)
O5 O -0.0533(7) 0.4734(3) 0.4872(15)
H2 H -0.0534 0.4488 0.4328
O6 O 0.1658(6) 0.5829(3) 0.6750(11)
H3 H 0.1890 0.6221 0.6566
O7 O 0.1271(5) 0.6545(6) 0.2856(10)
H4 H 0.1519 0.6388 0.2979
H5 H 0.1296 0.6661 0.2141
N1 N 0.0646(3) 0.6136(3) 0.6071(5)
N2 N 0.0501(3) 0.6310(3) 0.5040(5)
N3 N 0.0744(3) 0.7070(3) 0.6342(5)
C1 C 0.0974(6) 0.6585(5) 0.8042(7)
H6 H 0.1010 0.6208 0.8187
H7 H 0.0656 0.6584 0.8561
H8 H 0.1384 0.6966 0.8180
C2 C 0.0779(4) 0.6580(3) 0.6818(6)
C3 C 0.0573(4) 0.6880(4) 0.5227(6)
C4 C 0.0482(5) 0.7268(4) 0.4327(7)
H9 H 0.0119 0.7317 0.4537
H10 H 0.0403 0.7055 0.3577
H11 H 0.0863 0.7686 0.4279
C5 C -0.0613(15) 0.4693(8) 0.900(3)
H12 H -0.0292 0.4854 0.9587
H13 H -0.0869 0.4887 0.9085
C6 C -0.0301(12) 0.4849(6) 0.776(2)
H13D H -0.0869 0.4244 0.9085
H2D H -0.0534 0.4978 0.4328
H3D H 0.1890 0.5669 0.6566
Cu2D Cu 0.02826(4) 0.45506(6) 0.37064(5)
O7D O 0.1271(5) 0.4726(8) 0.2856(10)
H4D H 0.1519 0.5131 0.2979
H5D H 0.1296 0.4635 0.2141
N1D N 0.0646(3) 0.4510(4) 0.6071(5)
N2D N 0.0501(3) 0.4191(4) 0.5040(5)
N3D N 0.0744(3) 0.3674(4) 0.6342(5)
C1D C 0.0974(6) 0.4389(8) 0.8042(7)
H6D H 0.1010 0.4802 0.8187
H7D H 0.0656 0.4072 0.8561
H8D H 0.1384 0.4418 0.8180
C2D C 0.0779(4) 0.4199(5) 0.6818(6)
C3D C 0.0573(4) 0.3693(6) 0.5227(6)
C4D C 0.0482(5) 0.3214(6) 0.4327(7)
H9D H 0.0119 0.2802 0.4537
H10D H 0.0403 0.3348 0.3577
H11D H 0.0863 0.3177 0.4279
Cu2G Cu 0.09347(4) 0.78839(6) 0.70397(5)
Cu2I Cu 0.09347(4) 0.30507(4) 0.70397(5)
N3N N -0.0341(4) 0.5923(3) 0.3009(5)
N3Q N -0.0341(4) 0.3737(3) 0.3009(5)
H14? H -0.0874 0.4884 0.9081
loop_
_geom_bond_atom_site_label_1
_geom_bond_atom_site_label_2
_geom_bond_site_symmetry_1
_geom_bond_site_symmetry_2
Cu1 O1 1_555 1_555
Cu2 O1 1_555 1_555
O1 H1 1_555 1_555
O2 Cu2 1_555 1_555
O3 Cu1 1_555 1_555
O4 C6 1_555 1_555
O5 Cu2 1_555 1_555
H2 O5 1_555 1_555
O6 Cu1 1_555 1_555
H3 O6 1_555 1_555
O7 Cu2 1_555 1_555
H4 O7 1_555 1_555
H5 O7 1_555 1_555
N1 Cu1 1_555 1_555
N2 Cu2 1_555 1_555
N3 C2 1_555 1_555
C1 H6 1_555 1_555
H7 C1 1_555 1_555
H8 C1 1_555 1_555
C2 N1 1_555 1_555
C3 N2 1_555 1_555
C4 C3 1_555 1_555
H9 C4 1_555 1_555
H10 C4 1_555 1_555
H11 C4 1_555 1_555
C5 H12 1_555 1_555
H13 C5 1_555 1_555
C6 O3 1_555 1_555
N4 C7 1_555 1_555
C7 N4E 1_555 1_555
C8 N4 1_555 1_555
H13D C5 1_555 1_555
H2D O5 1_555 1_555
H3D O6 1_555 1_555
Cu2D O1 1_555 1_555
O7D Cu2D 1_555 1_555
H4D O7D 1_555 1_555
H5D O7D 1_555 1_555
N1D Cu1 1_555 1_555
N2D Cu2D 1_555 1_555
N3D C2D 1_555 1_555
C1D H6D 1_555 1_555
H7D C1D 1_555 1_555
H8D C1D 1_555 1_555
C2D N1D 1_555 1_555
C3D N2D 1_555 1_555
C4D C3D 1_555 1_555
H9D C4D 1_555 1_555
H10D C4D 1_555 1_555
H11D C4D 1_555 1_555
Cu2G N3 1_555 1_555
Cu2I N3D 1_555 1_555
N3N Cu2 1_555 1_555
N3Q Cu2D 1_555 1_555
N4E N4 1_555 1_555
O2 Cu2D 1_555 1_555
O5 Cu2D 1_555 1_555
N1 N2 1_555 1_555
N3 C3 1_555 1_555
C1 C2 1_555 1_555
C5 C6 1_555 1_555
C8 N4E 1_555 1_555
N1D N2D 1_555 1_555
N3D C3D 1_555 1_555
C1D C2D 1_555 1_555

#END
