
#######################################################################
#
#                 Cambridge Crystallographic Data Centre
#                                CCDC 
#
#######################################################################
#
# If this CIF has been generated from an entry in the Cambridge 
# Structural Database, then it will include bibliographic, chemical, 
# crystal, experimental, refinement or atomic coordinate data resulting 
# from the CCDC's data processing and validation procedures.
#
#######################################################################

data_PEWKUZ
_symmetry_cell_setting           triclinic
_symmetry_space_group_name_H-M   'P -1'
_symmetry_Int_Tables_number      2
_space_group_name_Hall           '-P 1'
loop_
_symmetry_equiv_pos_site_id
_symmetry_equiv_pos_as_xyz
1 x,y,z
2 -x,-y,-z
_cell_length_a                   8.7083(7)
_cell_length_b                   10.1660(7)
_cell_length_c                   14.8129(11)
_cell_angle_alpha                74.9950(10)
_cell_angle_beta                 89.9150(10)
_cell_angle_gamma                72.9700(10)
_cell_volume                     1207.18
loop_
_atom_site_label
_atom_site_type_symbol
_atom_site_fract_x
_atom_site_fract_y
_atom_site_fract_z
Cd1 Cd 0.5000 0.0000 0.5000
Cd2 Cd 0.13629(3) 0.55316(3) 0.400566(17)
N1 N 0.6505(3) 0.1331(3) 0.5335(2)
N2 N 0.7448(3) 0.3116(3) 0.5453(2)
N3 N 0.2298(3) 0.5440(3) 0.25534(19)
N4 N 0.3376(4) 0.5474(3) 0.1206(2)
H1 H 0.3610 0.5789 0.0643
O1 O 0.7432(3) -0.0519(3) 0.42183(19)
O2 O 0.9250(3) 0.0498(3) 0.3597(2)
H2 H 0.9593 0.1149 0.3647
O3 O 1.0101(3) 0.2613(3) 0.36227(19)
O4 O 0.9564(3) 0.4260(3) 0.44168(18)
O5 O 0.3138(3) 0.3290(3) 0.42187(16)
O6 O 0.4317(3) 0.1667(2) 0.34753(17)
O7 O 0.5526(4) 0.1670(3) 0.1899(2)
H3 H 0.5215 0.1656 0.2424
O8 O 0.5476(4) 0.3310(3) 0.0582(2)
O9 O -0.1172(3) 0.7172(3) 0.36233(19)
H4 H -0.0946 0.6273 0.3867
H5 H -0.1384 0.7882 0.3847
Br1 Br 0.21910(7) 0.35936(5) 0.89382(3)
Br2 Br -0.01118(8) 1.27623(5) 0.08987(4)
C1 C 0.8123(4) 0.0413(4) 0.4144(2)
C2 C 0.7644(4) 0.1439(3) 0.4713(2)
C3 C 0.8219(4) 0.2541(4) 0.4778(2)
C4 C 0.9388(4) 0.3162(4) 0.4233(2)
C5 C 0.6428(4) 0.2349(3) 0.5771(2)
C6 C 0.5365(4) 0.2641(4) 0.6514(2)
C7 C 0.4633(4) 0.4048(4) 0.6539(3)
H6 H 0.4777 0.4798 0.6068
C8 C 0.3693(4) 0.4335(4) 0.7263(3)
H7 H 0.3215 0.5271 0.7286
C9 C 0.3480(5) 0.3198(4) 0.7950(3)
C10 C 0.4159(5) 0.1814(4) 0.7924(3)
H8 H 0.3985 0.1069 0.8387
C11 C 0.5103(5) 0.1532(4) 0.7207(3)
H9 H 0.5568 0.0592 0.7188
C12 C 0.3558(4) 0.2938(4) 0.3493(2)
C13 C 0.3252(4) 0.4076(3) 0.2586(2)
C14 C 0.3922(4) 0.4083(4) 0.1742(2)
C15 C 0.5039(5) 0.2991(4) 0.1357(3)
C16 C 0.2410(4) 0.6268(4) 0.1709(2)
C17 C 0.1719(5) 0.7827(4) 0.1407(2)
C18 C 0.2467(5) 0.8672(4) 0.0790(3)
H10 H 0.3337 0.8250 0.0488
C19 C 0.1920(6) 1.0146(4) 0.0620(3)
H11 H 0.2441 1.0716 0.0223
C20 C 0.0596(6) 1.0759(4) 0.1047(3)
C21 C -0.0218(6) 0.9947(5) 0.1612(3)
H12 H -0.1141 1.0379 0.1870
C22 C 0.0349(5) 0.8478(4) 0.1795(3)
H13 H -0.0194 0.7918 0.2183
Cd2A Cd 0.86371(3) -0.55316(3) 0.599434(17)
N1A N 0.3495(3) -0.1331(3) 0.4665(2)
N2A N 0.2552(3) -0.3116(3) 0.4547(2)
N3A N 0.7702(3) -0.5440(3) 0.74466(19)
N4A N 0.6624(4) -0.5474(3) 0.8794(2)
H1A H 0.6390 -0.5789 0.9357
O1A O 0.2568(3) 0.0519(3) 0.57817(19)
O2A O 0.0750(3) -0.0498(3) 0.6403(2)
H2A H 0.0407 -0.1149 0.6353
O3A O -0.0101(3) -0.2613(3) 0.63773(19)
O4A O 0.0436(3) -0.4260(3) 0.55832(18)
O5A O 0.6862(3) -0.3290(3) 0.57813(16)
O6A O 0.5683(3) -0.1667(2) 0.65247(17)
O7A O 0.4474(4) -0.1670(3) 0.8101(2)
H3A H 0.4785 -0.1656 0.7576
O8A O 0.4524(4) -0.3310(3) 0.9418(2)
O9A O 1.1172(3) -0.7172(3) 0.63767(19)
H4A H 1.0946 -0.6273 0.6133
H5A H 1.1384 -0.7882 0.6153
Br1A Br 0.78090(7) -0.35936(5) 0.10618(3)
Br2A Br 1.01118(8) -1.27623(5) 0.91013(4)
C1A C 0.1877(4) -0.0413(4) 0.5856(2)
C2A C 0.2356(4) -0.1439(3) 0.5287(2)
C3A C 0.1781(4) -0.2541(4) 0.5222(2)
C4A C 0.0612(4) -0.3162(4) 0.5767(2)
C5A C 0.3572(4) -0.2349(3) 0.4229(2)
C6A C 0.4635(4) -0.2641(4) 0.3486(2)
C7A C 0.5367(4) -0.4048(4) 0.3461(3)
H6A H 0.5223 -0.4798 0.3932
C8A C 0.6307(4) -0.4335(4) 0.2737(3)
H7A H 0.6785 -0.5271 0.2714
C9A C 0.6520(5) -0.3198(4) 0.2050(3)
C10A C 0.5841(5) -0.1814(4) 0.2076(3)
H8A H 0.6015 -0.1069 0.1613
C11A C 0.4897(5) -0.1532(4) 0.2793(3)
H9A H 0.4432 -0.0592 0.2812
C12A C 0.6442(4) -0.2938(4) 0.6507(2)
C13A C 0.6748(4) -0.4076(3) 0.7414(2)
C14A C 0.6078(4) -0.4083(4) 0.8258(2)
C15A C 0.4961(5) -0.2991(4) 0.8643(3)
C16A C 0.7590(4) -0.6268(4) 0.8291(2)
C17A C 0.8281(5) -0.7827(4) 0.8593(2)
C18A C 0.7533(5) -0.8672(4) 0.9210(3)
H10A H 0.6663 -0.8250 0.9512
C19A C 0.8080(6) -1.0146(4) 0.9380(3)
H11A H 0.7559 -1.0716 0.9777
C20A C 0.9404(6) -1.0759(4) 0.8953(3)
C21A C 1.0218(6) -0.9947(5) 0.8388(3)
H12A H 1.1141 -1.0379 0.8130
C22A C 0.9651(5) -0.8478(4) 0.8205(3)
H13A H 1.0194 -0.7918 0.7817
Cd2_2 Cd 0.13629(3) -0.44684(3) 0.400566(17)
Cd2_3 Cd 1.13629(3) 0.55316(3) 0.400566(17)
Cd2A_2 Cd -0.13629(3) -0.55316(3) 0.599434(17)
Cd2A_3 Cd 0.86371(3) 0.44684(3) 0.599434(17)
N2_2 N 0.7448(3) -0.6884(3) 0.5453(2)
N2A_2 N 0.2552(3) 0.6884(3) 0.4547(2)
O4_2 O -0.0436(3) 0.4260(3) 0.44168(18)
O4_3 O 0.9564(3) -0.5740(3) 0.44168(18)
O4A_2 O 0.0436(3) 0.5740(3) 0.55832(18)
O4A_3 O 1.0436(3) -0.4260(3) 0.55832(18)
loop_
_geom_bond_atom_site_label_1
_geom_bond_atom_site_label_2
_geom_bond_site_symmetry_1
_geom_bond_site_symmetry_2
Cd1 N1 1_555 1_555
Cd2 N3 1_555 1_555
N1 C2 1_555 1_555
N2 C3 1_555 1_555
N3 C13 1_555 1_555
N4 H1 1_555 1_555
O1 Cd1 1_555 1_555
O2 H2 1_555 1_555
O3 C4 1_555 1_555
O4 C4 1_555 1_555
O5 Cd2 1_555 1_555
O6 Cd1 1_555 1_555
O7 H3 1_555 1_555
O8 C15 1_555 1_555
O9 Cd2 1_555 1_555
H4 O9 1_555 1_555
H5 O9 1_555 1_555
Br1 C9 1_555 1_555
Br2 C20 1_555 1_555
C1 O1 1_555 1_555
C2 C1 1_555 1_555
C3 C2 1_555 1_555
C4 C3 1_555 1_555
C5 N1 1_555 1_555
C6 C5 1_555 1_555
C7 C6 1_555 1_555
H6 C7 1_555 1_555
C8 C7 1_555 1_555
H7 C8 1_555 1_555
C9 C8 1_555 1_555
C10 C9 1_555 1_555
H8 C10 1_555 1_555
C11 C6 1_555 1_555
H9 C11 1_555 1_555
C12 O5 1_555 1_555
C13 C12 1_555 1_555
C14 N4 1_555 1_555
C15 O7 1_555 1_555
C16 N3 1_555 1_555
C17 C16 1_555 1_555
C18 C17 1_555 1_555
H10 C18 1_555 1_555
C19 C18 1_555 1_555
H11 C19 1_555 1_555
C20 C19 1_555 1_555
C21 C20 1_555 1_555
H12 C21 1_555 1_555
C22 C17 1_555 1_555
H13 C22 1_555 1_555
Cd2A N3A 1_555 1_555
N1A Cd1 1_555 1_555
N2A C3A 1_555 1_555
N3A C13A 1_555 1_555
N4A H1A 1_555 1_555
O1A Cd1 1_555 1_555
O2A H2A 1_555 1_555
O3A C4A 1_555 1_555
O4A C4A 1_555 1_555
O5A Cd2A 1_555 1_555
O6A Cd1 1_555 1_555
O7A H3A 1_555 1_555
O8A C15A 1_555 1_555
O9A Cd2A 1_555 1_555
H4A O9A 1_555 1_555
H5A O9A 1_555 1_555
Br1A C9A 1_555 1_555
Br2A C20A 1_555 1_555
C1A O1A 1_555 1_555
C2A N1A 1_555 1_555
C3A C2A 1_555 1_555
C4A C3A 1_555 1_555
C5A N1A 1_555 1_555
C6A C5A 1_555 1_555
C7A C6A 1_555 1_555
H6A C7A 1_555 1_555
C8A C7A 1_555 1_555
H7A C8A 1_555 1_555
C9A C8A 1_555 1_555
C10A C9A 1_555 1_555
H8A C10A 1_555 1_555
C11A C6A 1_555 1_555
H9A C11A 1_555 1_555
C12A O5A 1_555 1_555
C13A C12A 1_555 1_555
C14A N4A 1_555 1_555
C15A O7A 1_555 1_555
C16A N3A 1_555 1_555
C17A C16A 1_555 1_555
C18A C17A 1_555 1_555
H10A C18A 1_555 1_555
C19A C18A 1_555 1_555
H11A C19A 1_555 1_555
C20A C19A 1_555 1_555
C21A C20A 1_555 1_555
H12A C21A 1_555 1_555
C22A C17A 1_555 1_555
H13A C22A 1_555 1_555
Cd2_2 N2A 1_555 1_555
Cd2_3 O4 1_555 1_555
Cd2A_2 O4A 1_555 1_555
Cd2A_3 N2 1_555 1_555
N2_2 Cd2A 1_555 1_555
N2A_2 Cd2 1_555 1_555
O4_2 Cd2 1_555 1_555
O4_3 Cd2A 1_555 1_555
O4A_2 Cd2 1_555 1_555
O4A_3 Cd2A 1_555 1_555
N2 C5 1_555 1_555
N4 C16 1_555 1_555
O2 C1 1_555 1_555
O4 Cd2A_3 1_555 1_555
O6 C12 1_555 1_555
C10 C11 1_555 1_555
C13 C14 1_555 1_555
C14 C15 1_555 1_555
C21 C22 1_555 1_555
N2A C5A 1_555 1_555
N4A C16A 1_555 1_555
O2A C1A 1_555 1_555
O4A Cd2_2 1_555 1_555
O6A C12A 1_555 1_555
C1A C2A 1_555 1_555
C10A C11A 1_555 1_555
C13A C14A 1_555 1_555
C14A C15A 1_555 1_555
C21A C22A 1_555 1_555

#END
