
#######################################################################
#
#                 Cambridge Crystallographic Data Centre
#                                CCDC 
#
#######################################################################
#
# If this CIF has been generated from an entry in the Cambridge 
# Structural Database, then it will include bibliographic, chemical, 
# crystal, experimental, refinement or atomic coordinate data resulting 
# from the CCDC's data processing and validation procedures.
#
#######################################################################

data_PEWKEH
_symmetry_cell_setting           monoclinic
_symmetry_space_group_name_H-M   'C 2/c'
_symmetry_Int_Tables_number      15
_space_group_name_Hall           '-C 2yn'
loop_
_symmetry_equiv_pos_site_id
_symmetry_equiv_pos_as_xyz
1 x,y,z
2 1/2+x,1/2+y,z
3 -x,y,1/2-z
4 1/2-x,1/2+y,1/2-z
5 -x,-y,-z
6 1/2-x,1/2-y,-z
7 x,-y,1/2+z
8 1/2+x,1/2-y,1/2+z
_cell_length_a                   11.091(3)
_cell_length_b                   29.163(10)
_cell_length_c                   7.868(2)
_cell_angle_alpha                90
_cell_angle_beta                 131.90(1)
_cell_angle_gamma                90
_cell_volume                     1894.18
loop_
_atom_site_label
_atom_site_type_symbol
_atom_site_fract_x
_atom_site_fract_y
_atom_site_fract_z
Ho1 Ho 0.0000 0.12344(1) 0.2500
Ho2 Ho 0.0000 0.12882(1) 0.7500
O1 O -0.1595(4) 0.1446(1) -0.1614(6)
O2 O -0.2616(4) 0.0969(1) -0.0719(7)
C1 C -0.2812(6) 0.1214(2) -0.2197(9)
C2 C -0.4427(7) 0.1258(3) -0.4559(10)
O3 O 0.0776(4) 0.0816(1) 0.0852(6)
O4 O 0.1946(5) 0.0688(1) -0.0480(7)
C3 C 0.1777(7) 0.0585(2) 0.0924(9)
C4 C 0.2699(8) 0.0196(2) 0.2571(10)
O5 O -0.1566(5) 0.1814(1) 0.2022(6)
O6 O -0.1648(5) 0.1806(1) 0.4752(6)
C5 C -0.2005(7) 0.1977(2) 0.2997(9)
C6 C -0.3112(8) 0.2398(2) 0.1933(12)
O1B O 0.1595(4) 0.1446(1) 0.6614(6)
O2B O 0.2616(4) 0.0969(1) 0.5719(7)
C1B C 0.2812(6) 0.1214(2) 0.7197(9)
C2B C 0.4427(7) 0.1258(3) 0.9559(10)
O3B O -0.0776(4) 0.0816(1) 0.4148(6)
O4B O -0.1946(5) 0.0688(1) 0.5480(7)
C3B C -0.1777(7) 0.0585(2) 0.4076(9)
C4B C -0.2699(8) 0.0196(2) 0.2429(10)
O5B O 0.1566(5) 0.1814(1) 0.2978(6)
O6B O 0.1648(5) 0.1806(1) 0.0248(6)
C5B C 0.2005(7) 0.1977(2) 0.2003(9)
C6B C 0.3112(8) 0.2398(2) 0.3067(12)
Ho2_2 Ho 0.0000 0.12882(1) -0.2500
O1_2 O -0.1595(4) 0.1446(1) 0.8386(6)
O3_2 O 0.0776(4) 0.0816(1) 1.0852(6)
O4_2 O 0.1946(5) 0.0688(1) 0.9520(7)
O6B_2 O 0.1648(5) 0.1806(1) 1.0248(6)
loop_
_geom_bond_atom_site_label_1
_geom_bond_atom_site_label_2
_geom_bond_site_symmetry_1
_geom_bond_site_symmetry_2
Ho1 O1 1_555 1_555
Ho2 O6 1_555 1_555
O1 C1 1_555 1_555
O2 Ho1 1_555 1_555
C1 O2 1_555 1_555
C2 C1 1_555 1_555
O3 Ho1 1_555 1_555
O4 C3 1_555 1_555
C3 O3 1_555 1_555
C4 C3 1_555 1_555
O5 Ho1 1_555 1_555
O6 C5 1_555 1_555
C5 O5 1_555 1_555
C6 C5 1_555 1_555
O1B Ho1 1_555 1_555
O2B Ho1 1_555 1_555
C1B O1B 1_555 1_555
C2B C1B 1_555 1_555
O3B Ho1 1_555 1_555
O4B Ho2 1_555 1_555
C3B O3B 1_555 1_555
C4B C3B 1_555 1_555
O5B Ho1 1_555 1_555
O6B C5B 1_555 1_555
C5B O5B 1_555 1_555
C6B C5B 1_555 1_555
Ho2_2 O1 1_555 1_555
O1_2 Ho2 1_555 1_555
O3_2 Ho2 1_555 1_555
O4_2 Ho2 1_555 1_555
O6B_2 Ho2 1_555 1_555
Ho2 O1B 1_555 1_555
Ho2 O3B 1_555 1_555
O3 Ho2_2 1_555 1_555
O4 Ho2_2 1_555 1_555
O2B C1B 1_555 1_555
O4B C3B 1_555 1_555
O6B Ho2_2 1_555 1_555

#END
