
#######################################################################
#
#                 Cambridge Crystallographic Data Centre
#                                CCDC 
#
#######################################################################
#
# If this CIF has been generated from an entry in the Cambridge 
# Structural Database, then it will include bibliographic, chemical, 
# crystal, experimental, refinement or atomic coordinate data resulting 
# from the CCDC's data processing and validation procedures.
#
#######################################################################

data_PEWLIO
_symmetry_cell_setting           monoclinic
_symmetry_space_group_name_H-M   'P 21/c'
_symmetry_Int_Tables_number      14
_space_group_name_Hall           '-P 2ybc'
loop_
_symmetry_equiv_pos_site_id
_symmetry_equiv_pos_as_xyz
1 x,y,z
2 -x,1/2+y,1/2-z
3 -x,-y,-z
4 x,1/2-y,1/2+z
_cell_length_a                   14.8833(17)
_cell_length_b                   6.6486(8)
_cell_length_c                   12.8054(15)
_cell_angle_alpha                90
_cell_angle_beta                 103.0520(10)
_cell_angle_gamma                90
_cell_volume                     1234.4
loop_
_atom_site_label
_atom_site_type_symbol
_atom_site_fract_x
_atom_site_fract_y
_atom_site_fract_z
Sr1 Sr 0.47463(2) 0.93604(5) 0.32467(2)
Br1 Br 0.96873(4) 0.12968(9) -0.16989(5)
O1 O 0.2887(2) 0.9374(5) 0.2870(2)
O2 O 0.53087(17) 1.0666(3) 0.1482(2)
O3 O 0.59585(17) 0.7846(3) 0.22004(19)
N1 N 0.7087(2) 0.7626(4) 0.0758(2)
N2 N 0.7135(2) 0.9583(5) -0.0603(3)
C1 C 0.7440(2) 0.7849(5) -0.0089(3)
C2 C 0.6519(2) 0.9277(5) 0.0778(3)
C3 C 0.5894(2) 0.9294(5) 0.1544(3)
C4 C 0.6556(2) 1.0524(5) -0.0067(3)
C5 C 0.8522(3) 0.4958(7) 0.0248(4)
C6 C 0.8565(3) 0.4773(7) -0.1896(4)
C7 C 0.8030(3) 0.6374(5) -0.0463(3)
C8 C 0.8065(3) 0.6274(6) -0.1536(3)
C9 C 0.9022(3) 0.3375(6) -0.1181(3)
C10 C 0.9020(3) 0.3463(7) -0.0111(4)
O4 O 0.60961(18) 1.2732(4) -0.15109(19)
O5 O 0.56999(19) 1.3559(4) -0.0009(2)
C11 C 0.6085(2) 1.2410(5) -0.0546(3)
H1 H 0.723(3) 0.989(6) -0.110(3)
H2 H 0.935(3) 0.262(7) 0.036(4)
H3 H 0.780(3) 0.719(7) -0.203(4)
H4 H 0.851(3) 0.500(7) 0.093(4)
H5 H 0.290(4) 1.024(9) 0.338(5)
H6 H 0.857(3) 0.465(7) -0.262(4)
H7 H 0.265(4) 0.844(9) 0.306(5)
Sr1A Sr 0.52537(2) 0.43604(5) 0.17533(2)
Sr1A_2 Sr 0.52537(2) 1.43604(5) 0.17533(2)
Sr1B Sr 0.52537(2) 1.06396(5) -0.32467(2)
Sr1C Sr 0.47463(2) 1.56396(5) -0.17533(2)
O2A O 0.46913(17) 0.5666(3) 0.3518(2)
O3A O 0.40415(17) 1.2846(3) 0.27996(19)
O4B O 0.39039(18) 0.7268(4) 0.15109(19)
O4C O 0.60961(18) 1.2268(4) 0.34891(19)
O5A O 0.43001(19) 0.8559(4) 0.5009(2)
O5C O 0.56999(19) 1.1441(4) 0.4991(2)
loop_
_geom_bond_atom_site_label_1
_geom_bond_atom_site_label_2
_geom_bond_site_symmetry_1
_geom_bond_site_symmetry_2
Sr1 O1 1_555 1_555
Br1 C9 1_555 1_555
O1 H5 1_555 1_555
O2 Sr1 1_555 1_555
O3 Sr1 1_555 1_555
N1 C1 1_555 1_555
N2 C1 1_555 1_555
C1 C7 1_555 1_555
C2 N1 1_555 1_555
C3 O2 1_555 1_555
C4 N2 1_555 1_555
C5 C7 1_555 1_555
C6 C8 1_555 1_555
C7 C8 1_555 1_555
C8 H3 1_555 1_555
C9 C6 1_555 1_555
C10 C5 1_555 1_555
O4 C11 1_555 1_555
O5 C11 1_555 1_555
C11 C4 1_555 1_555
H1 N2 1_555 1_555
H2 C10 1_555 1_555
H4 C5 1_555 1_555
H6 C6 1_555 1_555
H7 O1 1_555 1_555
Sr1A O3 1_555 1_555
Sr1A_2 O2 1_555 1_555
Sr1B O4 1_555 1_555
Sr1C O4 1_555 1_555
O2A Sr1 1_555 1_555
O3A Sr1 1_555 1_555
O4B Sr1 1_555 1_555
O4C Sr1 1_555 1_555
O5A Sr1 1_555 1_555
O5C Sr1 1_555 1_555
O3 C3 1_555 1_555
C2 C3 1_555 1_555
C2 C4 1_555 1_555
C9 C10 1_555 1_555
O5 Sr1A_2 1_555 1_555
O5 Sr1C 1_555 1_555
Sr1A O2A 1_555 1_555
Sr1A O4B 1_555 1_555
Sr1A_2 O3A 1_555 1_555
Sr1A_2 O4C 1_555 1_555

#END
