
#######################################################################
#
#                 Cambridge Crystallographic Data Centre
#                                CCDC 
#
#######################################################################
#
# If this CIF has been generated from an entry in the Cambridge 
# Structural Database, then it will include bibliographic, chemical, 
# crystal, experimental, refinement or atomic coordinate data resulting 
# from the CCDC's data processing and validation procedures.
#
#######################################################################

data_PEWLAG
_symmetry_cell_setting           monoclinic
_symmetry_space_group_name_H-M   'P 21/c'
_symmetry_Int_Tables_number      14
_space_group_name_Hall           '-P 2ybc'
loop_
_symmetry_equiv_pos_site_id
_symmetry_equiv_pos_as_xyz
1 x,y,z
2 -x,1/2+y,1/2-z
3 -x,-y,-z
4 x,1/2-y,1/2+z
_cell_length_a                   9.8824(15)
_cell_length_b                   13.760(2)
_cell_length_c                   9.9776(14)
_cell_angle_alpha                90
_cell_angle_beta                 113.223(2)
_cell_angle_gamma                90
_cell_volume                     1246.84
loop_
_atom_site_label
_atom_site_type_symbol
_atom_site_fract_x
_atom_site_fract_y
_atom_site_fract_z
Co1 Co 0.5000 1.0000 0.0000
Br1 Br 1.32091(3) 1.01456(2) 0.41786(3)
N1 N 0.58005(18) 0.90001(11) 0.17657(17)
N2 N 0.66643(19) 0.76918(12) 0.31244(18)
O1 O 0.20465(15) 0.83688(10) 0.10344(15)
O2 O 0.30087(15) 0.95592(9) 0.01691(14)
O3 O 0.51184(17) 0.61669(10) 0.37387(15)
O4 O 0.29788(17) 0.69417(11) 0.26097(17)
C1 C 0.3128(2) 0.88210(13) 0.09364(19)
C2 C 0.4639(2) 0.84593(13) 0.1779(2)
C3 C 0.5158(2) 0.76410(13) 0.2619(2)
C4 C 0.4377(2) 0.68571(13) 0.3018(2)
C5 C 0.7017(2) 0.85261(13) 0.2610(2)
C6 C 0.8513(2) 0.88845(14) 0.2995(2)
C7 C 0.9726(2) 0.82627(15) 0.3436(2)
C8 C 1.1128(2) 0.86378(17) 0.3799(2)
C9 C 1.1295(2) 0.96299(18) 0.3696(2)
C10 C 1.0114(2) 1.02644(16) 0.3272(2)
C11 C 0.8722(2) 0.98821(14) 0.2933(2)
H1 H 0.731(3) 0.726(2) 0.366(3)
H2 H 0.793(3) 1.0294(19) 0.273(3)
H3 H 1.020(3) 1.094(2) 0.321(3)
H4 H 0.963(3) 0.761(2) 0.350(3)
H5 H 1.193(3) 0.821(2) 0.405(3)
H6 H 0.257(5) 0.756(3) 0.195(4)
Br1B Br -0.32091(3) 0.98544(2) -0.41786(3)
N1B N 0.41995(18) 1.09999(11) -0.17657(17)
N2B N 0.33357(19) 1.23082(12) -0.31244(18)
O1B O 0.79535(15) 1.16312(10) -0.10344(15)
O2B O 0.69913(15) 1.04408(9) -0.01691(14)
O3B O 0.48816(17) 1.38331(10) -0.37387(15)
O4B O 0.70212(17) 1.30583(11) -0.26097(17)
C1B C 0.6872(2) 1.11790(13) -0.09364(19)
C2B C 0.5361(2) 1.15407(13) -0.1779(2)
C3B C 0.4842(2) 1.23590(13) -0.2619(2)
C4B C 0.5623(2) 1.31429(13) -0.3018(2)
C5B C 0.2983(2) 1.14739(13) -0.2610(2)
C6B C 0.1487(2) 1.11155(14) -0.2995(2)
C7B C 0.0274(2) 1.17373(15) -0.3436(2)
C8B C -0.1128(2) 1.13622(17) -0.3799(2)
C9B C -0.1295(2) 1.03701(18) -0.3696(2)
C10B C -0.0114(2) 0.97356(16) -0.3272(2)
C11B C 0.1278(2) 1.01179(14) -0.2933(2)
H1B H 0.269(3) 1.274(2) -0.366(3)
H2B H 0.207(3) 0.9706(19) -0.273(3)
H3B H -0.020(3) 0.906(2) -0.321(3)
H4B H 0.037(3) 1.239(2) -0.350(3)
H5B H -0.193(3) 1.179(2) -0.405(3)
H6B H 0.743(5) 1.244(3) -0.195(4)
Co1A Co 0.5000 0.5000 0.5000
Co1A_2 Co 0.5000 1.5000 -0.5000
O3A O 0.48816(17) 1.11669(10) 0.12613(15)
O3C O 0.51184(17) 0.88331(10) -0.12613(15)
O5 O 0.8708(2) 0.62520(13) 0.46583(19)
H7 H 0.831(4) 0.579(3) 0.477(3)
H8 H 0.965(4) 0.625(3) 0.514(4)
loop_
_geom_bond_atom_site_label_1
_geom_bond_atom_site_label_2
_geom_bond_site_symmetry_1
_geom_bond_site_symmetry_2
Co1 N1 1_555 1_555
Br1 C9 1_555 1_555
N1 C2 1_555 1_555
N2 C3 1_555 1_555
O1 C1 1_555 1_555
O2 Co1 1_555 1_555
O3 C4 1_555 1_555
O4 C4 1_555 1_555
C1 O2 1_555 1_555
C2 C1 1_555 1_555
C3 C2 1_555 1_555
C4 C3 1_555 1_555
C5 N1 1_555 1_555
C6 C5 1_555 1_555
C7 C6 1_555 1_555
C8 C7 1_555 1_555
C9 C8 1_555 1_555
C10 C9 1_555 1_555
C11 C6 1_555 1_555
H1 N2 1_555 1_555
H2 C11 1_555 1_555
H3 C10 1_555 1_555
H4 C7 1_555 1_555
H5 C8 1_555 1_555
H6 O4 1_555 1_555
O5 H7 1_555 1_555
H8 O5 1_555 1_555
Br1B C9B 1_555 1_555
N1B Co1 1_555 1_555
N2B C3B 1_555 1_555
O1B C1B 1_555 1_555
O2B Co1 1_555 1_555
O3B C4B 1_555 1_555
O4B C4B 1_555 1_555
C1B O2B 1_555 1_555
C2B N1B 1_555 1_555
C3B C2B 1_555 1_555
C4B C3B 1_555 1_555
C5B N1B 1_555 1_555
C6B C5B 1_555 1_555
C7B C6B 1_555 1_555
C8B C7B 1_555 1_555
C9B C8B 1_555 1_555
C10B C9B 1_555 1_555
C11B C6B 1_555 1_555
H1B N2B 1_555 1_555
H2B C11B 1_555 1_555
H3B C10B 1_555 1_555
H4B C7B 1_555 1_555
H5B C8B 1_555 1_555
H6B O4B 1_555 1_555
Co1A O3 1_555 1_555
Co1A_2 O3B 1_555 1_555
O3A Co1 1_555 1_555
O3C Co1 1_555 1_555
N2 C5 1_555 1_555
C10 C11 1_555 1_555
N2B C5B 1_555 1_555
C1B C2B 1_555 1_555
C10B C11B 1_555 1_555

#END
