
#######################################################################
#
#                 Cambridge Crystallographic Data Centre
#                                CCDC 
#
#######################################################################
#
# If this CIF has been generated from an entry in the Cambridge 
# Structural Database, then it will include bibliographic, chemical, 
# crystal, experimental, refinement or atomic coordinate data resulting 
# from the CCDC's data processing and validation procedures.
#
#######################################################################

data_PEWLOU
_symmetry_cell_setting           monoclinic
_symmetry_space_group_name_H-M   'P 21/c'
_symmetry_Int_Tables_number      14
_space_group_name_Hall           '-P 2ybc'
loop_
_symmetry_equiv_pos_site_id
_symmetry_equiv_pos_as_xyz
1 x,y,z
2 -x,1/2+y,1/2-z
3 -x,-y,-z
4 x,1/2-y,1/2+z
_cell_length_a                   15.4496(9)
_cell_length_b                   6.9102(4)
_cell_length_c                   12.9227(7)
_cell_angle_alpha                90
_cell_angle_beta                 102.908(6)
_cell_angle_gamma                90
_cell_volume                     1344.76
loop_
_atom_site_label
_atom_site_type_symbol
_atom_site_fract_x
_atom_site_fract_y
_atom_site_fract_z
Br1 Br 0.98019(3) 1.34230(8) 0.34009(4)
Ca1 Ca 0.43343(4) 0.65412(9) 0.76721(4)
O1 O 0.55785(13) 0.4940(3) 0.70034(16)
O2 O 0.57862(14) 0.8102(3) 0.71368(17)
O3 O 0.63566(16) 0.1961(3) 0.58693(16)
O4 O 0.61806(15) 0.2618(4) 0.41581(15)
O5 O 0.55019(17) 0.6105(4) 0.91969(19)
O6 O 0.26810(15) 0.5812(4) 0.71511(18)
H1 H 0.261(2) 0.526(6) 0.649(3)
N1 N 0.71340(17) 0.7957(4) 0.6025(2)
N2 N 0.73295(16) 0.5859(4) 0.48100(19)
C1 C 0.59650(19) 0.6469(4) 0.6817(2)
C2 C 0.66312(19) 0.6363(4) 0.6144(2)
C3 C 0.67707(18) 0.5059(5) 0.5386(2)
C4 C 0.64005(19) 0.3069(5) 0.5126(2)
C5 C 0.75335(19) 0.7607(5) 0.5219(2)
C6 C 0.8102(2) 0.9000(5) 0.4818(2)
C7 C 0.8473(3) 1.0581(6) 0.5402(3)
H2 H 0.842(2) 1.068(6) 0.609(3)
C8 C 0.8990(3) 1.1885(6) 0.4996(3)
H3 H 0.918(3) 1.305(6) 0.534(3)
C9 C 0.9123(2) 1.1610(6) 0.3993(3)
C10 C 0.8748(3) 1.0081(7) 0.3387(3)
H4 H 0.879(3) 1.002(6) 0.268(3)
C11 C 0.8239(3) 0.8764(6) 0.3796(3)
H5 H 0.805(2) 0.761(6) 0.342(3)
H6 H 0.580(3) 0.504(4) 0.921(3)
H7 H 0.546(4) 0.622(8) 0.986(2)
H8 H 0.710(3) 0.904(4) 0.632(3)
H9 H 0.239(3) 0.686(4) 0.710(4)
Ca1A Ca 0.56657(4) 0.15412(9) 0.73279(4)
Ca1A_2 Ca 0.56657(4) 1.15412(9) 0.73279(4)
Ca1B Ca 0.56657(4) 0.34588(9) 0.23279(4)
O1A O 0.44215(13) 0.9940(3) 0.79966(16)
O2A O 0.42138(14) 0.3102(3) 0.78632(17)
O3A O 0.36434(16) 0.6961(3) 0.91307(16)
O4B O 0.38194(15) 0.7382(4) 0.58419(15)
loop_
_geom_bond_atom_site_label_1
_geom_bond_atom_site_label_2
_geom_bond_site_symmetry_1
_geom_bond_site_symmetry_2
Br1 C9 1_555 1_555
Ca1 O1 1_555 1_555
O1 C1 1_555 1_555
O2 Ca1 1_555 1_555
O3 C4 1_555 1_555
O4 C4 1_555 1_555
O5 Ca1 1_555 1_555
O6 Ca1 1_555 1_555
H1 O6 1_555 1_555
N1 C2 1_555 1_555
N2 C3 1_555 1_555
C1 O2 1_555 1_555
C2 C1 1_555 1_555
C3 C2 1_555 1_555
C4 C3 1_555 1_555
C5 N1 1_555 1_555
C6 C5 1_555 1_555
C7 C6 1_555 1_555
H2 C7 1_555 1_555
C8 C7 1_555 1_555
H3 C8 1_555 1_555
C9 C8 1_555 1_555
C10 C9 1_555 1_555
H4 C10 1_555 1_555
C11 C6 1_555 1_555
H5 C11 1_555 1_555
H6 O5 1_555 1_555
H7 O5 1_555 1_555
H8 N1 1_555 1_555
H9 O6 1_555 1_555
Ca1A O1 1_555 1_555
Ca1A_2 O2 1_555 1_555
Ca1B O4 1_555 1_555
O1A Ca1 1_555 1_555
O2A Ca1 1_555 1_555
O3A Ca1 1_555 1_555
O4B Ca1 1_555 1_555
O3 Ca1A 1_555 1_555
N2 C5 1_555 1_555
C10 C11 1_555 1_555
Ca1A O2A 1_555 1_555
Ca1A_2 O1A 1_555 1_555

#END
