
#######################################################################
#
#                 Cambridge Crystallographic Data Centre
#                                CCDC 
#
#######################################################################
#
# If this CIF has been generated from an entry in the Cambridge 
# Structural Database, then it will include bibliographic, chemical, 
# crystal, experimental, refinement or atomic coordinate data resulting 
# from the CCDC's data processing and validation procedures.
#
#######################################################################

data_PEWLEK
_symmetry_cell_setting           orthorhombic
_symmetry_space_group_name_H-M   'A m a 2'
_symmetry_Int_Tables_number      40
_space_group_name_Hall           'A 2 -2a'
loop_
_symmetry_equiv_pos_site_id
_symmetry_equiv_pos_as_xyz
1 x,y,z
2 -x,-y,z
3 1/2-x,y,z
4 1/2+x,-y,z
5 x,1/2+y,1/2+z
6 -x,1/2-y,1/2+z
7 1/2-x,1/2+y,1/2+z
8 1/2+x,1/2-y,1/2+z
_cell_length_a                   12.8977(7)
_cell_length_b                   8.1974(3)
_cell_length_c                   11.2059(4)
_cell_angle_alpha                90
_cell_angle_beta                 90
_cell_angle_gamma                90
_cell_volume                     1184.77
loop_
_atom_site_label
_atom_site_type_symbol
_atom_site_fract_x
_atom_site_fract_y
_atom_site_fract_z
Br1 Br 0.2500 0.78358(8) 0.58636(8)
Zn1 Zn 0.5000 0.0000 0.34300(8)
O1 O 0.4737(3) -0.2144(5) 0.2509(4)
O2 O 0.3465(3) -0.3727(5) 0.1827(4)
O3 O 0.5000 0.0000 0.5243(6)
H1 H 0.4335(19) 0.01(3) 0.53(3)
N1 N 0.3376(3) 0.0168(5) 0.3308(5)
C1 C 0.3790(5) -0.2444(7) 0.2366(5)
C2 C 0.3035(4) -0.1248(6) 0.2806(5)
C3 C 0.2500 0.1024(9) 0.3608(6)
C4 C 0.2500 0.2651(9) 0.4114(7)
C5 C 0.3424(5) 0.3472(8) 0.4365(7)
H2 H 0.4052 0.2964 0.4193
C6 C 0.3434(6) 0.5013(8) 0.4860(7)
H3 H 0.4059 0.5535 0.5017
C7 C 0.2500 0.5776(9) 0.5122(7)
O1B O 0.0263(3) -0.2144(5) 0.2509(4)
O2B O 0.1535(3) -0.3727(5) 0.1827(4)
N1B N 0.1624(3) 0.0168(5) 0.3308(5)
C1B C 0.1210(5) -0.2444(7) 0.2366(5)
C2B C 0.1965(4) -0.1248(6) 0.2806(5)
C5B C 0.1576(5) 0.3472(8) 0.4365(7)
H2B H 0.0948 0.2964 0.4193
C6B C 0.1566(6) 0.5013(8) 0.4860(7)
H3B H 0.0941 0.5535 0.5017
H1A H 0.5665(19) -0.01(3) 0.53(3)
Zn1B Zn 0.0000 0.0000 0.34300(8)
O1A O 0.5263(3) 0.2144(5) 0.2509(4)
N1A N 0.6624(3) -0.0168(5) 0.3308(5)
loop_
_geom_bond_atom_site_label_1
_geom_bond_atom_site_label_2
_geom_bond_site_symmetry_1
_geom_bond_site_symmetry_2
Br1 C7 1_555 1_555
Zn1 O1 1_555 1_555
O1 C1 1_555 1_555
O2 C1 1_555 1_555
O3 Zn1 1_555 1_555
H1 O3 1_555 1_555
N1 Zn1 1_555 1_555
C1 C2 1_555 1_555
C2 N1 1_555 1_555
C3 N1 1_555 1_555
C4 C3 1_555 1_555
C5 C4 1_555 1_555
H2 C5 1_555 1_555
C6 C5 1_555 1_555
H3 C6 1_555 1_555
C7 C6 1_555 1_555
O1B C1B 1_555 1_555
O2B C1B 1_555 1_555
N1B C3 1_555 1_555
C1B C2B 1_555 1_555
C2B C2 1_555 1_555
C5B C4 1_555 1_555
H2B C5B 1_555 1_555
C6B C7 1_555 1_555
H3B C6B 1_555 1_555
H1A O3 1_555 1_555
Zn1B O1B 1_555 1_555
O1A Zn1 1_555 1_555
N1A Zn1 1_555 1_555
N1B C2B 1_555 1_555
N1B Zn1B 1_555 1_555
C5B C6B 1_555 1_555

#END
