
#######################################################################
#
#                 Cambridge Crystallographic Data Centre
#                                CCDC 
#
#######################################################################
#
# If this CIF has been generated from an entry in the Cambridge 
# Structural Database, then it will include bibliographic, chemical, 
# crystal, experimental, refinement or atomic coordinate data resulting 
# from the CCDC's data processing and validation procedures.
#
#######################################################################

data_PEWNOU
_symmetry_cell_setting           triclinic
_symmetry_space_group_name_H-M   'P -1'
_symmetry_Int_Tables_number      2
_space_group_name_Hall           '-P 1'
loop_
_symmetry_equiv_pos_site_id
_symmetry_equiv_pos_as_xyz
1 x,y,z
2 -x,-y,-z
_cell_length_a                   8.6204(8)
_cell_length_b                   9.850(1)
_cell_length_c                   8.348(1)
_cell_angle_alpha                111.46(1)
_cell_angle_beta                 102.50(1)
_cell_angle_gamma                71.818(9)
_cell_volume                     622.549
loop_
_atom_site_label
_atom_site_type_symbol
_atom_site_fract_x
_atom_site_fract_y
_atom_site_fract_z
Cu1 Cu 0.5000 0.5000 0.5000
Cu2 Cu 0.5000 1.0000 0.0000
Cl1 Cl 0.4140(2) 0.3158(2) 0.2753(3)
Cl2 Cl 0.7685(2) 0.9664(2) 0.0717(3)
S1 S 0.7750(3) 0.1597(2) 0.5620(3)
S2 S 0.9362(3) 0.5247(2) 0.1829(3)
S3 S 0.4780(2) 0.9050(2) 0.2264(3)
N1 N 0.7259(7) 0.3923(7) 0.4475(8)
N2 N 0.7601(7) 0.4734(7) 0.3651(8)
C1 C 0.8259(8) 0.2647(8) 0.461(1)
C2 C 0.973(1) 0.207(1) 0.383(1)
C3 C 1.010(1) 0.286(1) 0.301(1)
C4 C 0.8964(9) 0.4215(9) 0.294(1)
C5 C 0.731(1) 0.641(1) 0.138(1)
C6 C 0.674(1) 0.780(1) 0.285(1)
C7 C 0.344(1) 0.779(1) 0.136(1)
C8 C 0.672(1) 0.298(1) 0.742(1)
Cl1A Cl 0.5860(2) 0.6842(2) 0.7247(3)
N1A N 0.2741(7) 0.6077(7) 0.5525(8)
Cl2A Cl 0.2315(2) 1.0336(2) -0.0717(3)
S3A S 0.5220(2) 1.0950(2) -0.2264(3)
C8A C 0.328(1) 0.702(1) 0.258(1)
C7A C 0.656(1) 0.221(1) 0.864(1)
N2A N 0.2399(7) 0.5266(7) 0.6349(8)
C1A C 0.1741(8) 0.7353(8) 0.539(1)
S1A S 0.2250(3) 0.8403(2) 0.4380(3)
S3A_2 S 0.5220(2) 0.0950(2) 0.7736(3)
C4A C 0.1036(9) 0.5785(9) 0.706(1)
C2A C 0.027(1) 0.793(1) 0.617(1)
S2A S 0.0638(3) 0.4753(2) 0.8171(3)
C3A C -0.010(1) 0.714(1) 0.699(1)
C5A C 0.269(1) 0.359(1) 0.862(1)
Cu2_2 Cu 0.5000 0.0000 1.0000
C6A C 0.326(1) 0.220(1) 0.715(1)
loop_
_geom_bond_atom_site_label_1
_geom_bond_atom_site_label_2
_geom_bond_site_symmetry_1
_geom_bond_site_symmetry_2
Cu1 Cl1 1_555 1_555
Cu2 Cl2 1_555 1_555
S1 C1 1_555 1_555
S2 C4 1_555 1_555
S3 Cu2 1_555 1_555
N1 Cu1 1_555 1_555
N2 N1 1_555 1_555
C1 N1 1_555 1_555
C2 C1 1_555 1_555
C3 C2 1_555 1_555
C4 N2 1_555 1_555
C5 S2 1_555 1_555
C6 S3 1_555 1_555
C7 S3 1_555 1_555
C8 S1 1_555 1_555
Cl1A Cu1 1_555 1_555
N1A Cu1 1_555 1_555
Cl2A Cu2 1_555 1_555
S3A Cu2 1_555 1_555
C8A C7 1_555 1_555
C7A C8 1_555 1_555
N2A N1A 1_555 1_555
C1A N1A 1_555 1_555
S1A C8A 1_555 1_555
S3A_2 C7A 1_555 1_555
C4A N2A 1_555 1_555
C2A C1A 1_555 1_555
S2A C4A 1_555 1_555
C3A C4A 1_555 1_555
C5A S2A 1_555 1_555
Cu2_2 S3A_2 1_555 1_555
C6A S3A_2 1_555 1_555
C3 C4 1_555 1_555
C5 C6 1_555 1_555
C1A S1A 1_555 1_555
C2A C3A 1_555 1_555
C5A C6A 1_555 1_555

#END
