
#######################################################################
#
#                 Cambridge Crystallographic Data Centre
#                                CCDC 
#
#######################################################################
#
# If this CIF has been generated from an entry in the Cambridge 
# Structural Database, then it will include bibliographic, chemical, 
# crystal, experimental, refinement or atomic coordinate data resulting 
# from the CCDC's data processing and validation procedures.
#
#######################################################################

data_PEWXUM
_symmetry_cell_setting           monoclinic
_symmetry_space_group_name_H-M   'P 21/c'
_symmetry_Int_Tables_number      14
_space_group_name_Hall           '-P 2ybc'
loop_
_symmetry_equiv_pos_site_id
_symmetry_equiv_pos_as_xyz
1 x,y,z
2 -x,1/2+y,1/2-z
3 -x,-y,-z
4 x,1/2-y,1/2+z
_cell_length_a                   12.484(4)
_cell_length_b                   13.473(5)
_cell_length_c                   16.479(3)
_cell_angle_alpha                90
_cell_angle_beta                 99.618(6)
_cell_angle_gamma                90
_cell_volume                     2732.76
loop_
_atom_site_label
_atom_site_type_symbol
_atom_site_fract_x
_atom_site_fract_y
_atom_site_fract_z
C1 C 0.4610(3) 0.2941(3) 0.3790(2)
H1 H 0.4313 0.3565 0.3659
C2 C 0.4494(3) 0.2215(3) 0.3184(2)
H2 H 0.4116 0.2355 0.2661
C3 C 0.4935(3) 0.1298(3) 0.3355(2)
H3 H 0.4859 0.0813 0.2948
C4 C 0.5509(2) 0.10798(19) 0.41515(19)
C5 C 0.5587(2) 0.1866(2) 0.47440(15)
C6 C 0.6155(2) 0.1712(2) 0.55372(14)
C7 C 0.6660(3) 0.0776(2) 0.57621(18)
C8 C 0.6595(2) 0.0018(2) 0.51813(18)
C9 C 0.6010(2) 0.01702(19) 0.4366(2)
C10 C 0.7186(3) 0.0672(3) 0.6585(2)
H4 H 0.7510 0.0071 0.6762
C11 C 0.7221(3) 0.1449(3) 0.7123(2)
H5 H 0.7569 0.1380 0.7665
C12 C 0.6731(3) 0.2346(3) 0.6851(2)
H6 H 0.6768 0.2872 0.7220
C13 C 0.6433(3) -0.1413(3) 0.4028(3)
H7 H 0.6398 -0.1929 0.3650
C14 C 0.7002(3) -0.1562(3) 0.4818(3)
H8 H 0.7328 -0.2175 0.4947
C15 C 0.7731(3) 0.4739(2) 0.67237(18)
C16 C 0.8267(2) 0.5638(2) 0.71752(19)
C17 C 0.8156(3) 0.6547(2) 0.6762(2)
H9 H 0.7661 0.6602 0.6275
C18 C 0.8764(3) 0.7368(3) 0.7059(2)
H10 H 0.8674 0.7967 0.6776
C19 C 0.9505(3) 0.7290(3) 0.7779(2)
H11 H 0.9946 0.7826 0.7969
C20 C 0.9586(3) 0.6409(2) 0.8217(2)
H12 H 1.0069 0.6370 0.8710
C21 C 0.8964(2) 0.5578(2) 0.79401(19)
C22 C 0.9032(2) 0.4668(2) 0.84581(18)
C23 C 0.9993(3) 0.4386(2) 0.8959(2)
H13 H 1.0616 0.4766 0.8966
C24 C 1.0036(3) 0.3544(2) 0.9450(2)
H14 H 1.0689 0.3372 0.9779
C25 C 0.9130(2) 0.2958(2) 0.94616(18)
C26 C 0.8160(2) 0.3246(2) 0.89755(19)
H15 H 0.7536 0.2868 0.8977
C27 C 0.8111(2) 0.4086(2) 0.84902(19)
H16 H 0.7450 0.4270 0.8177
C28 C 0.9202(3) 0.2036(2) 0.99942(19)
H17 H 0.9948 0.1945 1.0261
H18 H 0.8762 0.2131 1.0421
C29 C 0.9518(3) 0.0655(3) 0.9093(2)
H19 H 1.0207 0.0918 0.9094
C30 C 0.9230(3) -0.0184(3) 0.8666(2)
H20 H 0.9707 -0.0495 0.8369
C31 C 0.8193(3) -0.0577(2) 0.8681(2)
H21 H 0.7989 -0.1162 0.8398
C32 C 0.7470(2) -0.0118(2) 0.91041(18)
C33 C 0.6368(2) -0.0582(2) 0.90881(19)
C34 C 0.7770(2) 0.0802(2) 0.95270(18)
O1 O 0.67121(17) 0.48152(16) 0.64539(13)
O2 O 0.83210(18) 0.40295(16) 0.66209(14)
O3 O 0.71761(16) 0.13380(15) 0.98761(13)
O4 O 0.57369(16) -0.02224(15) 0.95542(13)
O5 O 0.6103(2) -0.12941(18) 0.86326(16)
Mn1 Mn 0.58007(4) 0.40023(3) 0.54908(3)
N1 N 0.6211(2) 0.24814(19) 0.60842(15)
N2 N 0.5130(2) 0.27790(19) 0.45525(16)
N3 N 0.5939(2) -0.0569(2) 0.37922(19)
N4 N 0.7100(2) -0.0879(2) 0.53867(19)
N5 N 0.8832(2) 0.11266(18) 0.95210(15)
O3C O 0.71761(16) 0.36620(15) 0.48761(13)
O4A O 0.42631(16) 0.47776(15) 0.54458(13)
O4C O 0.57369(16) 0.52224(15) 0.45542(13)
Mn1A Mn 0.41993(4) -0.09977(3) 0.95092(3)
Mn1C Mn 0.58007(4) 0.09977(3) 1.04908(3)
loop_
_geom_bond_atom_site_label_1
_geom_bond_atom_site_label_2
_geom_bond_site_symmetry_1
_geom_bond_site_symmetry_2
C1 H1 1_555 1_555
C2 C1 1_555 1_555
H2 C2 1_555 1_555
C3 C2 1_555 1_555
H3 C3 1_555 1_555
C4 C3 1_555 1_555
C5 C4 1_555 1_555
C6 C5 1_555 1_555
C7 C6 1_555 1_555
C8 C7 1_555 1_555
C9 C4 1_555 1_555
C10 C7 1_555 1_555
H4 C10 1_555 1_555
C11 C10 1_555 1_555
H5 C11 1_555 1_555
C12 C11 1_555 1_555
H6 C12 1_555 1_555
C13 H7 1_555 1_555
C14 C13 1_555 1_555
H8 C14 1_555 1_555
C15 C16 1_555 1_555
C16 C17 1_555 1_555
C17 H9 1_555 1_555
C18 C17 1_555 1_555
H10 C18 1_555 1_555
C19 C18 1_555 1_555
H11 C19 1_555 1_555
C20 C19 1_555 1_555
H12 C20 1_555 1_555
C21 C16 1_555 1_555
C22 C21 1_555 1_555
C23 C22 1_555 1_555
H13 C23 1_555 1_555
C24 C23 1_555 1_555
H14 C24 1_555 1_555
C25 C24 1_555 1_555
C26 C25 1_555 1_555
H15 C26 1_555 1_555
C27 C22 1_555 1_555
H16 C27 1_555 1_555
C28 C25 1_555 1_555
H17 C28 1_555 1_555
H18 C28 1_555 1_555
C29 H19 1_555 1_555
C30 C29 1_555 1_555
H20 C30 1_555 1_555
C31 C30 1_555 1_555
H21 C31 1_555 1_555
C32 C31 1_555 1_555
C33 C32 1_555 1_555
C34 C32 1_555 1_555
O1 C15 1_555 1_555
O2 C15 1_555 1_555
O3 C34 1_555 1_555
O4 C33 1_555 1_555
O5 C33 1_555 1_555
Mn1 O1 1_555 1_555
N1 C6 1_555 1_555
N2 C1 1_555 1_555
N3 C9 1_555 1_555
N4 C8 1_555 1_555
N5 C28 1_555 1_555
O3C Mn1 1_555 1_555
O4A Mn1 1_555 1_555
O4C Mn1 1_555 1_555
Mn1A O4 1_555 1_555
Mn1C O3 1_555 1_555
C5 N2 1_555 1_555
C8 C9 1_555 1_555
C12 N1 1_555 1_555
C13 N3 1_555 1_555
C14 N4 1_555 1_555
C20 C21 1_555 1_555
C26 C27 1_555 1_555
C29 N5 1_555 1_555
C34 N5 1_555 1_555
O4 Mn1C 1_555 1_555
Mn1 N1 1_555 1_555
Mn1 N2 1_555 1_555

#END
