
#######################################################################
#
#                 Cambridge Crystallographic Data Centre
#                                CCDC 
#
#######################################################################
#
# If this CIF has been generated from an entry in the Cambridge 
# Structural Database, then it will include bibliographic, chemical, 
# crystal, experimental, refinement or atomic coordinate data resulting 
# from the CCDC's data processing and validation procedures.
#
#######################################################################

data_PEWXUL
_symmetry_cell_setting           monoclinic
_symmetry_space_group_name_H-M   'C 2/c'
_symmetry_Int_Tables_number      15
_space_group_name_Hall           '-C 2yn'
loop_
_symmetry_equiv_pos_site_id
_symmetry_equiv_pos_as_xyz
1 x,y,z
2 1/2+x,1/2+y,z
3 -x,y,1/2-z
4 1/2-x,1/2+y,1/2-z
5 -x,-y,-z
6 1/2-x,1/2-y,-z
7 x,-y,1/2+z
8 1/2+x,1/2-y,1/2+z
_cell_length_a                   18.21(3)
_cell_length_b                   19.99(3)
_cell_length_c                   8.632(13)
_cell_angle_alpha                90
_cell_angle_beta                 100.39(5)
_cell_angle_gamma                90
_cell_volume                     3090.68
loop_
_atom_site_label
_atom_site_type_symbol
_atom_site_fract_x
_atom_site_fract_y
_atom_site_fract_z
O1 O 1.0000 0.017(1) 0.7500
O2 O 0.0720(8) 0.0527(8) 0.047(2)
O3 O 0.0566(8) 0.1640(7) 0.217(2)
N5 N 0.8435(9) 0.2283(7) 0.194(2)
N6 N 0.742(1) 0.2198(7) 0.028(2)
C14 C 0.7911(7) 0.2473(7) 0.102(2)
N6E N 0.758(1) 0.2802(7) -0.028(2)
C14E C 0.7089(7) 0.2527(7) -0.102(2)
Ni1 Ni 0.5000 0.17731(3) 0.2500
N1 N 0.5795(2) 0.2541(1) 0.2745(4)
N2 N 0.4131(2) 0.1041(2) 0.2169(4)
N3 N 0.5010(2) 0.1707(2) 0.4902(4)
N4 N 0.5000 0.1256(3) 0.7500
C1 C 0.6310(2) 0.2641(2) 0.4045(5)
C2 C 0.6824(3) 0.3150(2) 0.4164(5)
C3 C 0.6821(3) 0.3591(2) 0.2938(5)
C4 C 0.6273(3) 0.3501(2) 0.1612(5)
C5 C 0.5778(2) 0.2974(2) 0.1555(5)
C6 C 0.7400(4) 0.4142(3) 0.3048(7)
C7 C 0.4200(2) 0.0455(2) 0.1446(5)
C8 C 0.3663(3) -0.0046(2) 0.1307(6)
C9 C 0.3012(3) 0.0057(3) 0.1842(6)
C10 C 0.2930(3) 0.0668(3) 0.2551(6)
C11 C 0.3501(2) 0.1143(2) 0.2717(5)
C12 C 0.7410(4) 0.4532(4) 0.1665(8)
C13 C 0.5007(3) 0.1542(2) 0.6154(5)
H1 H 0.6321 0.2341 0.4913
H2 H 0.7191 0.3204 0.5127
H3 H 0.6240 0.3800 0.0735
H4 H 0.5405 0.2918 0.0636
H5 H 0.7346 0.4431 0.3879
H6 H 0.7896 0.3927 0.3337
H7 H 0.3435 0.1564 0.3250
H8 H 0.2471 0.0769 0.2925
H9 H 0.3750 -0.0464 0.0792
H10 H 0.4643 0.0375 0.1006
H11 H 0.6935 0.4732 0.1342
H12 H 0.7486 0.4229 0.0801
N1B N 0.4205(2) 0.2541(1) 0.2255(4)
N2B N 0.5869(2) 0.1041(2) 0.2831(4)
N3B N 0.4990(2) 0.1707(2) 0.0098(4)
C9A C 0.8012(3) 0.5057(3) 0.1842(6)
C12A C 0.2410(4) -0.0468(4) 0.1665(8)
C13B C 0.4993(3) 0.1542(2) 0.8846(5)
loop_
_geom_bond_atom_site_label_1
_geom_bond_atom_site_label_2
_geom_bond_site_symmetry_1
_geom_bond_site_symmetry_2
Ni1 N1 1_555 1_555
N1 C1 1_555 1_555
N2 Ni1 1_555 1_555
N3 Ni1 1_555 1_555
N4 C13 1_555 1_555
N5 C14 1_555 1_555
N6 C14 1_555 1_555
C1 C2 1_555 1_555
C2 C3 1_555 1_555
C3 C4 1_555 1_555
C4 C5 1_555 1_555
C5 N1 1_555 1_555
C6 C3 1_555 1_555
C7 N2 1_555 1_555
C8 C7 1_555 1_555
C9 C8 1_555 1_555
C10 C9 1_555 1_555
C11 N2 1_555 1_555
C12 C6 1_555 1_555
C13 N3 1_555 1_555
C14 N6E 1_555 1_555
H1 C1 1_555 1_555
H2 C2 1_555 1_555
H3 C4 1_555 1_555
H4 C5 1_555 1_555
H5 C6 1_555 1_555
H6 C6 1_555 1_555
H7 C11 1_555 1_555
H8 C10 1_555 1_555
H9 C8 1_555 1_555
H10 C7 1_555 1_555
H11 C12 1_555 1_555
H12 C12 1_555 1_555
N1B Ni1 1_555 1_555
N2B Ni1 1_555 1_555
N3B Ni1 1_555 1_555
N6E N6 1_555 1_555
C9A C12 1_555 1_555
C12A C9 1_555 1_555
C13B N4 1_555 1_555
C14E N6 1_555 1_555
C10 C11 1_555 1_555
N6E C14E 1_555 1_555

#END
