
#######################################################################
#
#                 Cambridge Crystallographic Data Centre
#                                CCDC 
#
#######################################################################
#
# If this CIF has been generated from an entry in the Cambridge 
# Structural Database, then it will include bibliographic, chemical, 
# crystal, experimental, refinement or atomic coordinate data resulting 
# from the CCDC's data processing and validation procedures.
#
#######################################################################

data_PEWZAS
_symmetry_cell_setting           orthorhombic
_symmetry_space_group_name_H-M   'F d d d'
_symmetry_Int_Tables_number      70
_space_group_name_Hall           '-F 2uv 2vw'
loop_
_symmetry_equiv_pos_site_id
_symmetry_equiv_pos_as_xyz
1 x,y,z
2 x,1/2+y,1/2+z
3 1/2+x,y,1/2+z
4 1/2+x,1/2+y,z
5 -x,1/4+y,1/4+z
6 -x,3/4+y,3/4+z
7 1/2-x,1/4+y,3/4+z
8 1/2-x,3/4+y,1/4+z
9 1/4+x,-y,1/4+z
10 1/4+x,1/2-y,3/4+z
11 3/4+x,-y,3/4+z
12 3/4+x,1/2-y,1/4+z
13 1/4-x,3/4-y,1/2+z
14 1/4-x,1/4-y,z
15 3/4-x,3/4-y,z
16 3/4-x,1/4-y,1/2+z
17 -x,-y,-z
18 -x,1/2-y,1/2-z
19 1/2-x,-y,1/2-z
20 1/2-x,1/2-y,-z
21 x,3/4-y,3/4-z
22 x,1/4-y,1/4-z
23 1/2+x,3/4-y,1/4-z
24 1/2+x,1/4-y,3/4-z
25 3/4-x,y,3/4-z
26 3/4-x,1/2+y,1/4-z
27 1/4-x,y,1/4-z
28 1/4-x,1/2+y,3/4-z
29 3/4+x,1/4+y,1/2-z
30 3/4+x,3/4+y,-z
31 1/4+x,1/4+y,-z
32 1/4+x,3/4+y,1/2-z
_cell_length_a                   16.218(3)
_cell_length_b                   11.919(3)
_cell_length_c                   11.778(2)
_cell_angle_alpha                90
_cell_angle_beta                 90
_cell_angle_gamma                90
_cell_volume                     2276.71
loop_
_atom_site_label
_atom_site_type_symbol
_atom_site_fract_x
_atom_site_fract_y
_atom_site_fract_z
Ag1 Ag 0.02879(3) 0.3750 0.3750
Ag2 Ag -0.1250 0.3750 0.24323(5)
O1 O 0.0158(2) 0.1933(3) 0.4081(4)
O2 O -0.1482(3) 0.1954(3) 0.2470(3)
C1 C -0.0413(3) 0.1453(4) 0.4575(4)
C2 C -0.0381(3) 0.0185(4) 0.4670(5)
H1 H -0.085(5) -0.001(7) 0.495(6)
H2 H -0.046(5) -0.033(7) 0.388(6)
Ag2T Ag -0.1250 0.3750 0.50677(5)
O1T O 0.0158(2) 0.5567(3) 0.3419(4)
Ag1N Ag -0.27879(3) 0.3750 0.3750
O2N O -0.1018(3) 0.5546(3) 0.2470(3)
O2X O -0.1018(3) 0.1954(3) 0.5030(3)
O2T O -0.1482(3) 0.5546(3) 0.5030(3)
O1N O -0.2658(2) 0.5567(3) 0.4081(4)
O1X O -0.2658(2) 0.1933(3) 0.3419(4)
C1X C -0.2087(3) 0.1453(4) 0.2925(4)
C2X C -0.2119(3) 0.0185(4) 0.2830(5)
C2P C 0.0381(3) -0.0185(4) 0.5330(5)
C2J C -0.2881(3) -0.0185(4) 0.2170(5)
H1X H -0.165(5) -0.001(7) 0.255(6)
H2X H -0.204(5) -0.033(7) 0.362(6)
C1P C 0.0413(3) -0.1453(4) 0.5425(4)
H1P H 0.085(5) 0.001(7) 0.505(6)
H2P H 0.046(5) 0.033(7) 0.612(6)
C1J C -0.2913(3) -0.1453(4) 0.2075(4)
H1J H -0.335(5) 0.001(7) 0.245(6)
H2J H -0.296(5) 0.033(7) 0.138(6)
O1P O -0.0158(2) -0.1933(3) 0.5919(4)
O2H O 0.1018(3) -0.1954(3) 0.4970(3)
O1J O -0.2342(2) -0.1933(3) 0.1581(4)
O2R O -0.3518(3) -0.1954(3) 0.2530(3)
Ag1P Ag -0.02879(3) -0.3750 0.6250
Ag2D Ag 0.1250 -0.3750 0.49323(5)
Ag1J Ag -0.22121(3) -0.3750 0.1250
Ag2R Ag -0.3750 -0.3750 0.25677(5)
loop_
_geom_bond_atom_site_label_1
_geom_bond_atom_site_label_2
_geom_bond_site_symmetry_1
_geom_bond_site_symmetry_2
Ag1 Ag2 1_555 1_555
Ag2 O2 1_555 1_555
O1 Ag1 1_555 1_555
O2 C1X 1_555 1_555
C1 O1 1_555 1_555
C2 C1 1_555 1_555
H1 C2 1_555 1_555
H2 C2 1_555 1_555
Ag2T Ag1 1_555 1_555
O1T Ag1 1_555 1_555
Ag1N Ag2 1_555 1_555
O2N Ag2 1_555 1_555
O2X C1 1_555 1_555
O2T Ag2T 1_555 1_555
O1N Ag1N 1_555 1_555
O1X Ag1N 1_555 1_555
C1X O1X 1_555 1_555
C2X C1X 1_555 1_555
C2P C2 1_555 1_555
C2J C2X 1_555 1_555
H1X C2X 1_555 1_555
H2X C2X 1_555 1_555
C1P C2P 1_555 1_555
H1P C2P 1_555 1_555
H2P C2P 1_555 1_555
C1J C2J 1_555 1_555
H1J C2J 1_555 1_555
H2J C2J 1_555 1_555
O1P C1P 1_555 1_555
O2H C1P 1_555 1_555
O1J C1J 1_555 1_555
O2R C1J 1_555 1_555
Ag1P O1P 1_555 1_555
Ag2D O2H 1_555 1_555
Ag1J O1J 1_555 1_555
Ag2R O2R 1_555 1_555
Ag2 Ag2T 1_555 1_555
Ag2T O2X 1_555 1_555
Ag2T Ag1N 1_555 1_555
Ag1P Ag2D 1_555 1_555
Ag1J Ag2R 1_555 1_555

#END
