
#######################################################################
#
#                 Cambridge Crystallographic Data Centre
#                                CCDC 
#
#######################################################################
#
# If this CIF has been generated from an entry in the Cambridge 
# Structural Database, then it will include bibliographic, chemical, 
# crystal, experimental, refinement or atomic coordinate data resulting 
# from the CCDC's data processing and validation procedures.
#
#######################################################################

data_PEXCAY
_symmetry_cell_setting           triclinic
_symmetry_space_group_name_H-M   'P -1'
_symmetry_Int_Tables_number      2
_space_group_name_Hall           '-P 1'
loop_
_symmetry_equiv_pos_site_id
_symmetry_equiv_pos_as_xyz
1 x,y,z
2 -x,-y,-z
_cell_length_a                   8.9323(5)
_cell_length_b                   13.9617(8)
_cell_length_c                   14.8969(8)
_cell_angle_alpha                105.446(5)
_cell_angle_beta                 102.593(4)
_cell_angle_gamma                107.975(5)
_cell_volume                     1609.39
loop_
_atom_site_label
_atom_site_type_symbol
_atom_site_fract_x
_atom_site_fract_y
_atom_site_fract_z
Zn1 Zn -0.28659(4) -0.14261(3) 0.24945(3)
Zn2 Zn 0.20317(4) 0.32417(3) 0.17700(3)
C1 C -0.5224(4) -0.2794(2) 0.3204(3)
H1 H -0.6023 -0.3088 0.2582
C2 C -0.2923(4) -0.1868(3) 0.4413(3)
H2 H -0.1828 -0.1397 0.4779
C3 C -0.4000(4) -0.2471(3) 0.4752(3)
H3 H -0.3793 -0.2488 0.5386
C4 C -0.7037(3) -0.3801(3) 0.3979(3)
H4 H -0.6950 -0.3769 0.4648
H5 H -0.7233 -0.4532 0.3587
C5 C -0.8501(3) -0.3535(2) 0.3567(3)
H6 H -0.8592 -0.3572 0.2897
H7 H -0.8302 -0.2803 0.3957
C6 C -1.0123(3) -0.4301(2) 0.3572(3)
H8 H -1.0001 -0.4329 0.4227
H9 H -1.0401 -0.5022 0.3118
C7 C -1.1508(3) -0.3921(3) 0.3270(3)
H10 H -1.1215 -0.3196 0.3720
H11 H -1.1628 -0.3897 0.2614
C8 C -1.3418(4) -0.4880(3) 0.4061(3)
H12 H -1.2686 -0.4607 0.4703
C9 C 0.0757(4) -0.0775(3) 0.3196(3)
H13 H 0.0818 -0.0253 0.3758
C10 C -0.0183(4) -0.2086(3) 0.1807(3)
H14 H -0.0905 -0.2643 0.1222
C11 C 0.1489(4) -0.1762(3) 0.2130(3)
H15 H 0.2121 -0.2053 0.1811
C12 C 0.3824(3) -0.0284(3) 0.3648(3)
H16 H 0.4081 0.0468 0.3728
H17 H 0.4559 -0.0517 0.3335
C13 C 0.4134(3) -0.0386(2) 0.4645(3)
H18 H 0.4009 -0.1121 0.4570
H19 H 0.3305 -0.0240 0.4921
C14 C 0.4528(5) 0.0025(5) -0.0422(3)
H20 H 0.4647 -0.0454 -0.0982
H21 H 0.5020 0.0752 -0.0415
C15 C 0.2690(4) -0.0249(3) -0.0608(3)
H22 H 0.2227 -0.0127 -0.1200
H23 H 0.2140 -0.1009 -0.0723
C16 C 0.1897(4) 0.0088(3) 0.0944(3)
H24 H 0.1728 -0.0578 0.1010
C17 C 0.1744(4) 0.0933(3) 0.1554(3)
H25 H 0.1447 0.0944 0.2117
C18 C 0.2451(4) 0.1406(3) 0.0413(3)
H26 H 0.2746 0.1812 0.0029
C19 C 0.0061(4) 0.2717(3) 0.2907(3)
C20 C -0.1578(4) 0.2382(3) 0.3105(3)
C21 C -0.2832(4) 0.2548(3) 0.2623(3)
H27 H -0.3830 0.2356 0.2757
H28 H -0.2722 0.2857 0.2148
C22 C -0.1653(4) 0.1891(3) 0.3877(3)
H29 H -0.2615 0.1916 0.4069
H30 H -0.0673 0.2345 0.4451
C23 C -0.1755(4) 0.0740(3) 0.3624(3)
C24 C -0.5234(4) -0.3175(3) 0.0942(2)
C25 C -0.6933(4) -0.3804(3) 0.0156(2)
C26 C -0.7708(4) -0.3315(3) -0.0275(3)
H31 H -0.8736 -0.3712 -0.0768
H32 H -0.7235 -0.2569 -0.0090
C27 C -0.7619(4) -0.5008(2) -0.0101(2)
H33 H -0.6866 -0.5290 -0.0352
H34 H -0.8681 -0.5324 -0.0627
C28 C -0.7865(3) -0.5365(3) 0.0756(3)
C29 C -1.4485(4) -0.5201(3) 0.2500(3)
H35 H -1.4594 -0.5177 0.1872
C30 C -1.5030(4) -0.5602(3) 0.3714(3)
H36 H -1.5592 -0.5913 0.4087
N1 N -0.3705(3) -0.2063(2) 0.3439(2)
N2 N -0.5457(3) -0.3052(2) 0.3979(2)
N3 N -1.3099(3) -0.4639(2) 0.3276(2)
N4 N -1.5688(3) -0.5799(2) 0.2743(2)
N5 N -0.0643(3) -0.1456(2) 0.2482(2)
N6 N 0.2075(3) -0.0936(2) 0.3005(2)
N7 N 0.2090(3) 0.1768(2) 0.1222(2)
N8 N 0.2343(3) 0.0392(2) 0.0215(2)
O1 O -0.2660(3) 0.00860(18) 0.27496(19)
O2 O -0.1042(3) 0.04802(19) 0.4264(2)
O3 O 0.0083(3) 0.30334(19) 0.2184(2)
O4 O 0.1265(3) 0.2658(2) 0.3433(2)
O5 O -0.4770(3) -0.21364(18) 0.12806(19)
O6 O -0.4395(2) -0.36482(18) 0.12317(17)
O7 O -0.8003(2) -0.47773(18) 0.14792(18)
O8 O -0.7980(3) -0.63394(18) 0.06221(17)
C9A C 0.9243(4) 0.0775(3) 0.6804(3)
H13A H 0.9182 0.0253 0.6242
C10A C 1.0183(4) 0.2086(3) 0.8193(3)
H14A H 1.0905 0.2643 0.8778
C11A C 0.8511(4) 0.1762(3) 0.7870(3)
H15A H 0.7879 0.2053 0.8189
C12A C 0.6176(3) 0.0284(3) 0.6352(3)
H16A H 0.5919 -0.0468 0.6272
H17A H 0.5441 0.0517 0.6665
C13A C 0.5866(3) 0.0386(2) 0.5355(3)
H18A H 0.5991 0.1121 0.5430
H19A H 0.6695 0.0240 0.5079
N5A N 1.0643(3) 0.1456(2) 0.7518(2)
N6A N 0.7925(3) 0.0936(2) 0.6995(2)
C14A C 0.5472(5) -0.0025(5) 0.0422(3)
H20A H 0.5353 0.0454 0.0982
H21A H 0.4980 -0.0752 0.0415
C15A C 0.7310(4) 0.0249(3) 0.0608(3)
H22A H 0.7773 0.0127 0.1200
H23A H 0.7860 0.1009 0.0723
C16A C 0.8103(4) -0.0088(3) -0.0944(3)
H24A H 0.8272 0.0578 -0.1010
C17A C 0.8256(4) -0.0933(3) -0.1554(3)
H25A H 0.8553 -0.0944 -0.2117
C18A C 0.7549(4) -0.1406(3) -0.0413(3)
H26A H 0.7254 -0.1812 -0.0029
N7A N 0.7910(3) -0.1768(2) -0.1222(2)
N8A N 0.7657(3) -0.0392(2) -0.0215(2)
Zn1A Zn 1.28659(4) 0.14261(3) -0.24945(3)
Zn2A Zn 0.79683(4) -0.32417(3) -0.17700(3)
C1A C 1.5224(4) 0.2794(2) -0.3204(3)
H1A H 1.6023 0.3088 -0.2582
C2A C 1.2923(4) 0.1868(3) -0.4413(3)
H2A H 1.1828 0.1397 -0.4779
C3A C 1.4000(4) 0.2471(3) -0.4752(3)
H3A H 1.3793 0.2488 -0.5386
C4A C 1.7037(3) 0.3801(3) -0.3979(3)
H4A H 1.6950 0.3769 -0.4648
H5A H 1.7233 0.4532 -0.3587
C5A C 1.8501(3) 0.3535(2) -0.3567(3)
H6A H 1.8592 0.3572 -0.2897
H7A H 1.8302 0.2803 -0.3957
C6A C 2.0123(3) 0.4301(2) -0.3572(3)
H8A H 2.0001 0.4329 -0.4227
H9A H 2.0401 0.5022 -0.3118
C7A C 2.1508(3) 0.3921(3) -0.3270(3)
H10A H 2.1215 0.3196 -0.3720
H11A H 2.1628 0.3897 -0.2614
C8A C 2.3418(4) 0.4880(3) -0.4061(3)
H12A H 2.2686 0.4607 -0.4703
C19A C 0.9939(4) -0.2717(3) -0.2907(3)
C20A C 1.1578(4) -0.2382(3) -0.3105(3)
C21A C 1.2832(4) -0.2548(3) -0.2623(3)
H27A H 1.3830 -0.2356 -0.2757
H28A H 1.2722 -0.2857 -0.2148
C22A C 1.1653(4) -0.1891(3) -0.3877(3)
H29A H 1.2615 -0.1916 -0.4069
H30A H 1.0673 -0.2345 -0.4451
C23A C 1.1755(4) -0.0740(3) -0.3624(3)
C24A C 1.5234(4) 0.3175(3) -0.0942(2)
C25A C 1.6933(4) 0.3804(3) -0.0156(2)
C26A C 1.7708(4) 0.3315(3) 0.0275(3)
H31A H 1.8736 0.3712 0.0768
H32A H 1.7235 0.2569 0.0090
C27A C 1.7619(4) 0.5008(2) 0.0101(2)
H33A H 1.6866 0.5290 0.0352
H34A H 1.8681 0.5324 0.0627
C28A C 1.7865(3) 0.5365(3) -0.0756(3)
C29A C 2.4485(4) 0.5201(3) -0.2500(3)
H35A H 2.4594 0.5177 -0.1872
C30A C 2.5030(4) 0.5602(3) -0.3714(3)
H36A H 2.5592 0.5913 -0.4087
N1A N 1.3705(3) 0.2063(2) -0.3439(2)
N2A N 1.5457(3) 0.3052(2) -0.3979(2)
N3A N 2.3099(3) 0.4639(2) -0.3276(2)
N4A N 2.5688(3) 0.5799(2) -0.2743(2)
O1A O 1.2660(3) -0.00860(18) -0.27496(19)
O2A O 1.1042(3) -0.04802(19) -0.4264(2)
O3A O 0.9917(3) -0.30334(19) -0.2184(2)
O4A O 0.8735(3) -0.2658(2) -0.3433(2)
O5A O 1.4770(3) 0.21364(18) -0.12806(19)
O6A O 1.4395(2) 0.36482(18) -0.12317(17)
O7A O 1.8003(2) 0.47773(18) -0.14792(18)
O8A O 1.7980(3) 0.63394(18) -0.06221(17)
Zn1A_2 Zn 1.28659(4) 0.14261(3) 0.75055(3)
Zn2_2 Zn -1.79683(4) -0.67583(3) 0.17700(3)
Zn2_3 Zn -0.79683(4) -0.67583(3) 0.17700(3)
Zn2A_2 Zn 1.79683(4) 0.67583(3) -0.17700(3)
Zn2A_3 Zn 2.79683(4) 0.67583(3) -0.17700(3)
N4_2 N 0.4312(3) 0.4201(2) 0.2743(2)
N4A_2 N 0.5688(3) -0.4201(2) -0.2743(2)
N5A_2 N 1.0643(3) 0.1456(2) -0.2482(2)
O8_2 O 0.2020(3) 0.36606(18) 0.06221(17)
O8A_2 O 0.7980(3) -0.36606(18) -0.06221(17)
loop_
_geom_bond_atom_site_label_1
_geom_bond_atom_site_label_2
_geom_bond_site_symmetry_1
_geom_bond_site_symmetry_2
Zn1 N1 1_555 1_555
Zn2 N7 1_555 1_555
C1 H1 1_555 1_555
C2 H2 1_555 1_555
C3 C2 1_555 1_555
H3 C3 1_555 1_555
C4 H4 1_555 1_555
H5 C4 1_555 1_555
C5 C4 1_555 1_555
H6 C5 1_555 1_555
H7 C5 1_555 1_555
C6 C5 1_555 1_555
H8 C6 1_555 1_555
H9 C6 1_555 1_555
C7 C6 1_555 1_555
H10 C7 1_555 1_555
H11 C7 1_555 1_555
C8 H12 1_555 1_555
C9 H13 1_555 1_555
C10 H14 1_555 1_555
C11 C10 1_555 1_555
H15 C11 1_555 1_555
C12 H16 1_555 1_555
H17 C12 1_555 1_555
C13 C12 1_555 1_555
H18 C13 1_555 1_555
H19 C13 1_555 1_555
C14 H20 1_555 1_555
H21 C14 1_555 1_555
C15 C14 1_555 1_555
H22 C15 1_555 1_555
H23 C15 1_555 1_555
C16 H24 1_555 1_555
C17 C16 1_555 1_555
H25 C17 1_555 1_555
C18 H26 1_555 1_555
C19 C20 1_555 1_555
C20 C21 1_555 1_555
C21 H27 1_555 1_555
H28 C21 1_555 1_555
C22 C20 1_555 1_555
H29 C22 1_555 1_555
H30 C22 1_555 1_555
C23 C22 1_555 1_555
C24 C25 1_555 1_555
C25 C26 1_555 1_555
C26 H31 1_555 1_555
H32 C26 1_555 1_555
C27 C25 1_555 1_555
H33 C27 1_555 1_555
H34 C27 1_555 1_555
C28 C27 1_555 1_555
C29 H35 1_555 1_555
C30 C8 1_555 1_555
H36 C30 1_555 1_555
N1 C1 1_555 1_555
N2 C1 1_555 1_555
N3 C7 1_555 1_555
N4 C29 1_555 1_555
N5 Zn1 1_555 1_555
N6 C9 1_555 1_555
N7 C17 1_555 1_555
N8 C15 1_555 1_555
O1 Zn1 1_555 1_555
O2 C23 1_555 1_555
O3 Zn2 1_555 1_555
O4 C19 1_555 1_555
O5 Zn1 1_555 1_555
O6 C24 1_555 1_555
O7 C28 1_555 1_555
O8 C28 1_555 1_555
C9A H13A 1_555 1_555
C10A H14A 1_555 1_555
C11A C10A 1_555 1_555
H15A C11A 1_555 1_555
C12A H16A 1_555 1_555
H17A C12A 1_555 1_555
C13A C13 1_555 1_555
H18A C13A 1_555 1_555
H19A C13A 1_555 1_555
N5A C9A 1_555 1_555
N6A C9A 1_555 1_555
C14A C14 1_555 1_555
H20A C14A 1_555 1_555
H21A C14A 1_555 1_555
C15A C14A 1_555 1_555
H22A C15A 1_555 1_555
H23A C15A 1_555 1_555
C16A H24A 1_555 1_555
C17A C16A 1_555 1_555
H25A C17A 1_555 1_555
C18A H26A 1_555 1_555
N7A C17A 1_555 1_555
N8A C15A 1_555 1_555
Zn1A N1A 1_555 1_555
Zn2A N7A 1_555 1_555
C1A H1A 1_555 1_555
C2A H2A 1_555 1_555
C3A C2A 1_555 1_555
H3A C3A 1_555 1_555
C4A H4A 1_555 1_555
H5A C4A 1_555 1_555
C5A C4A 1_555 1_555
H6A C5A 1_555 1_555
H7A C5A 1_555 1_555
C6A C5A 1_555 1_555
H8A C6A 1_555 1_555
H9A C6A 1_555 1_555
C7A C6A 1_555 1_555
H10A C7A 1_555 1_555
H11A C7A 1_555 1_555
C8A H12A 1_555 1_555
C19A C20A 1_555 1_555
C20A C21A 1_555 1_555
C21A H27A 1_555 1_555
H28A C21A 1_555 1_555
C22A C20A 1_555 1_555
H29A C22A 1_555 1_555
H30A C22A 1_555 1_555
C23A C22A 1_555 1_555
C24A C25A 1_555 1_555
C25A C26A 1_555 1_555
C26A H31A 1_555 1_555
H32A C26A 1_555 1_555
C27A C25A 1_555 1_555
H33A C27A 1_555 1_555
H34A C27A 1_555 1_555
C28A C27A 1_555 1_555
C29A H35A 1_555 1_555
C30A C8A 1_555 1_555
H36A C30A 1_555 1_555
N1A C1A 1_555 1_555
N2A C1A 1_555 1_555
N3A C7A 1_555 1_555
N4A C29A 1_555 1_555
O1A Zn1A 1_555 1_555
O2A C23A 1_555 1_555
O3A Zn2A 1_555 1_555
O4A C19A 1_555 1_555
O5A Zn1A 1_555 1_555
O6A C24A 1_555 1_555
O7A C28A 1_555 1_555
O8A C28A 1_555 1_555
Zn1A_2 N5A 1_555 1_555
Zn2_2 N4 1_555 1_555
Zn2_3 O8 1_555 1_555
Zn2A_2 O8A 1_555 1_555
Zn2A_3 N4A 1_555 1_555
N4_2 Zn2 1_555 1_555
N4A_2 Zn2A 1_555 1_555
N5A_2 Zn1A 1_555 1_555
O8_2 Zn2 1_555 1_555
O8A_2 Zn2A 1_555 1_555
C2 N1 1_555 1_555
C3 N2 1_555 1_555
C4 N2 1_555 1_555
C8 N3 1_555 1_555
C9 N5 1_555 1_555
C10 N5 1_555 1_555
C11 N6 1_555 1_555
C12 N6 1_555 1_555
C16 N8 1_555 1_555
C18 N7 1_555 1_555
C18 N8 1_555 1_555
C19 O3 1_555 1_555
C23 O1 1_555 1_555
C24 O5 1_555 1_555
C29 N3 1_555 1_555
C30 N4 1_555 1_555
C10A N5A 1_555 1_555
C11A N6A 1_555 1_555
C12A C13A 1_555 1_555
C12A N6A 1_555 1_555
C16A N8A 1_555 1_555
C18A N7A 1_555 1_555
C18A N8A 1_555 1_555
C2A N1A 1_555 1_555
C3A N2A 1_555 1_555
C4A N2A 1_555 1_555
C8A N3A 1_555 1_555
C19A O3A 1_555 1_555
C23A O1A 1_555 1_555
C24A O5A 1_555 1_555
C29A N3A 1_555 1_555
C30A N4A 1_555 1_555

#END
