
#######################################################################
#
#                 Cambridge Crystallographic Data Centre
#                                CCDC 
#
#######################################################################
#
# If this CIF has been generated from an entry in the Cambridge 
# Structural Database, then it will include bibliographic, chemical, 
# crystal, experimental, refinement or atomic coordinate data resulting 
# from the CCDC's data processing and validation procedures.
#
#######################################################################

data_PEXCEC
_symmetry_cell_setting           orthorhombic
_symmetry_space_group_name_H-M   'P c a 21'
_symmetry_Int_Tables_number      29
_space_group_name_Hall           'P 2c -2ac'
loop_
_symmetry_equiv_pos_site_id
_symmetry_equiv_pos_as_xyz
1 x,y,z
2 -x,-y,1/2+z
3 1/2-x,y,1/2+z
4 1/2+x,-y,z
_cell_length_a                   16.3530(6)
_cell_length_b                   9.1990(3)
_cell_length_c                   17.6180(8)
_cell_angle_alpha                90
_cell_angle_beta                 90
_cell_angle_gamma                90
_cell_volume                     2650.3
loop_
_atom_site_label
_atom_site_type_symbol
_atom_site_fract_x
_atom_site_fract_y
_atom_site_fract_z
Co1 Co 0.18801(5) 0.46150(10) 0.77457(5)
Co2 Co 0.06097(5) 0.95493(10) 0.74309(4)
C1 C 0.3437(6) 0.5306(9) 0.7029(6)
H1 H 0.3640 0.4397 0.7163
C2 C 0.2653(5) 0.7185(8) 0.6904(5)
H2 H 0.2198 0.7788 0.6938
C3 C 0.3380(5) 0.7551(8) 0.6595(5)
H3 H 0.3517 0.8441 0.6380
C4 C 0.4739(4) 0.6245(10) 0.6410(4)
H4 H 0.5068 0.5870 0.6824
H5 H 0.4946 0.7200 0.6277
C5 C 0.4808(9) 0.5251(13) 0.5737(8)
H6 H 0.4548 0.4332 0.5859
H7 H 0.4515 0.5676 0.5313
C6 C 0.5673(9) 0.4969(10) 0.5502(11)
H8 H 0.5678 0.4212 0.5119
H9 H 0.5977 0.4615 0.5938
C7 C 0.6096(4) 0.6292(9) 0.5192(4)
H10 H 0.5720 0.6820 0.4867
H11 H 0.6247 0.6926 0.5609
C8 C 0.7538(7) 0.5282(9) 0.5031(6)
H12 H 0.7643 0.5035 0.5534
C9 C 0.6941(5) 0.6080(8) 0.4004(4)
H13 H 0.6549 0.6464 0.3679
C10 C 0.8012(8) 0.5105(7) 0.4470(8)
H14 H 0.8525 0.4675 0.4507
C11 C -0.0561(4) 0.8953(7) 0.6140(4)
H15 H -0.0963 0.8597 0.6464
C12 C 0.0592(9) 0.9775(10) 0.5763(8)
H16 H 0.1130 1.0105 0.5752
C13 C 0.0050(9) 0.9656(12) 0.5124(8)
H17 H 0.0164 0.9884 0.4621
C14 C -0.1414(5) 0.8882(9) 0.4980(4)
H18 H -0.1825 0.8472 0.5314
H19 H -0.1304 0.8179 0.4582
C15 C -0.1736(8) 1.0228(10) 0.4636(7)
H20 H -0.1340 1.0584 0.4270
H21 H -0.1788 1.0958 0.5030
C16 C -0.2579(8) 1.0066(7) 0.4229(6)
H22 H -0.2539 0.9316 0.3844
H23 H -0.2988 0.9764 0.4596
C17 C -0.2838(5) 1.1431(9) 0.3875(5)
H24 H -0.2459 1.1662 0.3468
H25 H -0.2800 1.2201 0.4249
C18 C -0.4210(5) 1.2560(8) 0.3600(5)
H26 H -0.4115 1.3461 0.3823
C19 C -0.4899(5) 1.2133(8) 0.3253(5)
H27 H -0.5366 1.2695 0.3183
C20 C -0.4063(6) 1.0333(9) 0.3235(6)
H28 H -0.3841 0.9411 0.3167
O1 O 0.0997(3) 0.7819(5) 0.7977(3)
O2 O -0.0357(3) 0.6991(5) 0.7737(4)
O3 O 0.0287(5) 0.6573(11) 0.8927(4)
O4 O 0.0770(3) 0.5333(5) 0.7796(4)
O5 O 0.2858(3) 0.1975(5) 0.7460(4)
O6 O 0.1686(3) 0.0471(6) 0.7437(5)
O7 O 0.2236(3) 0.1287(7) 0.6287(3)
O8 O 0.1560(3) 0.2938(5) 0.7116(3)
S1 S 0.03991(10) 0.66684(19) 0.81350(13)
S2 S 0.21123(10) 0.16575(17) 0.70704(11)
N1 N 0.2695(3) 0.5772(6) 0.7162(3)
N2 N 0.3869(4) 0.6370(7) 0.6659(4)
N3 N 0.6837(3) 0.5910(6) 0.4753(3)
N4 N 0.7681(3) 0.5627(7) 0.3786(3)
N5 N 0.0187(3) 0.9331(7) 0.6365(3)
N6 N -0.0663(4) 0.9141(6) 0.5412(3)
N7 N -0.3672(3) 1.1421(7) 0.3564(4)
N8 N -0.4795(3) 1.0703(6) 0.3017(3)
Co1A Co 0.81199(5) 0.53850(10) 0.27457(5)
Co2_2 Co 0.06097(5) -0.04507(10) 0.74309(4)
Co2B Co -0.56097(5) 0.95493(10) 0.24309(4)
O6_2 O 0.1686(3) 1.0471(6) 0.7437(5)
N4A N 0.2319(3) 0.4373(7) 0.8786(3)
N8B N -0.0205(3) 1.0703(6) 0.8017(3)
loop_
_geom_bond_atom_site_label_1
_geom_bond_atom_site_label_2
_geom_bond_site_symmetry_1
_geom_bond_site_symmetry_2
Co1 O4 1_555 1_555
Co2 O1 1_555 1_555
C1 H1 1_555 1_555
C2 H2 1_555 1_555
C3 C2 1_555 1_555
H3 C3 1_555 1_555
C4 H4 1_555 1_555
H5 C4 1_555 1_555
C5 C4 1_555 1_555
H6 C5 1_555 1_555
H7 C5 1_555 1_555
C6 C5 1_555 1_555
H8 C6 1_555 1_555
H9 C6 1_555 1_555
C7 C6 1_555 1_555
H10 C7 1_555 1_555
H11 C7 1_555 1_555
C8 H12 1_555 1_555
C9 H13 1_555 1_555
C10 C8 1_555 1_555
H14 C10 1_555 1_555
C11 H15 1_555 1_555
C12 H16 1_555 1_555
C13 C12 1_555 1_555
H17 C13 1_555 1_555
C14 H18 1_555 1_555
H19 C14 1_555 1_555
C15 C14 1_555 1_555
H20 C15 1_555 1_555
H21 C15 1_555 1_555
C16 C15 1_555 1_555
H22 C16 1_555 1_555
H23 C16 1_555 1_555
C17 C16 1_555 1_555
H24 C17 1_555 1_555
H25 C17 1_555 1_555
C18 H26 1_555 1_555
C19 C18 1_555 1_555
H27 C19 1_555 1_555
C20 H28 1_555 1_555
O1 S1 1_555 1_555
O2 S1 1_555 1_555
O3 S1 1_555 1_555
O4 S1 1_555 1_555
O5 S2 1_555 1_555
O6 S2 1_555 1_555
O7 S2 1_555 1_555
O8 Co1 1_555 1_555
S2 O8 1_555 1_555
N1 Co1 1_555 1_555
N2 C1 1_555 1_555
N3 C7 1_555 1_555
N4 C9 1_555 1_555
N5 Co2 1_555 1_555
N6 C11 1_555 1_555
N7 C17 1_555 1_555
N8 C19 1_555 1_555
Co1A N4 1_555 1_555
Co2_2 O6 1_555 1_555
Co2B N8 1_555 1_555
O6_2 Co2 1_555 1_555
N4A Co1 1_555 1_555
N8B Co2 1_555 1_555
C1 N1 1_555 1_555
C2 N1 1_555 1_555
C3 N2 1_555 1_555
C4 N2 1_555 1_555
C8 N3 1_555 1_555
C9 N3 1_555 1_555
C10 N4 1_555 1_555
C11 N5 1_555 1_555
C12 N5 1_555 1_555
C13 N6 1_555 1_555
C14 N6 1_555 1_555
C18 N7 1_555 1_555
C20 N7 1_555 1_555
C20 N8 1_555 1_555

#END
