
#######################################################################
#
#                 Cambridge Crystallographic Data Centre
#                                CCDC 
#
#######################################################################
#
# If this CIF has been generated from an entry in the Cambridge 
# Structural Database, then it will include bibliographic, chemical, 
# crystal, experimental, refinement or atomic coordinate data resulting 
# from the CCDC's data processing and validation procedures.
#
#######################################################################

data_PEXDON
_symmetry_cell_setting           triclinic
_symmetry_space_group_name_H-M   'P -1'
_symmetry_Int_Tables_number      2
_space_group_name_Hall           '-P 1'
loop_
_symmetry_equiv_pos_site_id
_symmetry_equiv_pos_as_xyz
1 x,y,z
2 -x,-y,-z
_cell_length_a                   11.0613(18)
_cell_length_b                   11.7853(19)
_cell_length_c                   11.8959(19)
_cell_angle_alpha                68.076(3)
_cell_angle_beta                 78.933(3)
_cell_angle_gamma                65.797(3)
_cell_volume                     1310.77
loop_
_atom_site_label
_atom_site_type_symbol
_atom_site_fract_x
_atom_site_fract_y
_atom_site_fract_z
Pb1 Pb 0.652418(12) 0.370134(13) 0.647971(11)
N1 N 0.7932(3) 0.4193(3) 0.4414(3)
C1 C 0.8824(4) 0.4759(4) 0.4196(4)
H1 H 0.8800 0.5216 0.4715
C2 C 0.9774(4) 0.4714(4) 0.3256(3)
H2 H 1.0380 0.5137 0.3133
C3 C 0.9834(4) 0.4035(4) 0.2485(3)
C4 C 0.8913(4) 0.3446(4) 0.2716(4)
H3 H 0.8923 0.2967 0.2224
C5 C 0.7981(4) 0.3559(4) 0.3668(4)
H4 H 0.7344 0.3168 0.3798
N2 N 1.4466(3) 0.4212(3) -0.1937(3)
C6 C 1.3701(4) 0.3484(4) -0.1575(4)
H5 H 1.3786 0.2923 -0.2012
C7 C 1.2801(4) 0.3518(4) -0.0600(4)
H6 H 1.2288 0.2982 -0.0369
C8 C 1.2649(4) 0.4351(4) 0.0050(3)
C9 C 1.3412(4) 0.5122(4) -0.0344(3)
H7 H 1.3327 0.5716 0.0056
C10 C 1.4303(4) 0.5018(4) -0.1330(4)
H8 H 1.4825 0.5548 -0.1586
C11 C 1.0788(4) 0.3932(4) 0.1452(3)
H9 H 1.0734 0.3454 0.0985
C12 C 1.1720(4) 0.4445(4) 0.1109(3)
H10 H 1.1795 0.4906 0.1582
O1 O 0.7522(3) 0.2989(3) 0.8525(3)
O2 O 0.8928(3) 0.2701(3) 0.6971(3)
C13 C 0.9833(4) 0.1884(4) 0.8894(4)
C14 C 1.1128(4) 0.1524(4) 0.8408(4)
H11 H 1.1287 0.1749 0.7554
C15 C 1.2184(4) 0.0845(4) 0.9157(4)
H12 H 1.3062 0.0594 0.8811
C16 C 1.1987(4) 0.0520(4) 1.0413(4)
C17 C 1.0695(5) 0.0902(4) 1.0890(4)
H13 H 1.0540 0.0693 1.1743
C18 C 0.9627(4) 0.1579(4) 1.0151(4)
H14 H 0.8750 0.1838 1.0499
C19 C 0.8683(4) 0.2567(4) 0.8089(4)
C20 C 1.3158(5) -0.0241(6) 1.1216(5)
H15 H 1.3979 -0.0448 1.0714
H16 H 1.3074 -0.1061 1.1783
H17 H 1.3180 0.0291 1.1672
O3 O 0.5046(3) 0.6168(3) 0.5322(2)
O4 O 0.6794(3) 0.5607(3) 0.6337(3)
C21 C 0.6048(5) 0.7744(4) 0.4873(4)
C22 C 0.5121(7) 0.8690(5) 0.4055(4)
H18 H 0.4377 0.8544 0.3940
C23 C 0.5301(9) 0.9893(6) 0.3385(5)
H19 H 0.4676 1.0569 0.2811
C24 C 0.6415(9) 1.0075(7) 0.3582(7)
C25 C 0.7264(8) 0.9161(8) 0.4412(9)
H20 H 0.7982 0.9316 0.4571
C26 C 0.7104(6) 0.8000(6) 0.5037(7)
H21 H 0.7740 0.7339 0.5609
C27 C 0.5938(4) 0.6430(4) 0.5556(4)
C28 C 0.6504(13) 1.1424(8) 0.2763(9)
H22 H 0.7298 1.1486 0.2944
H23 H 0.5714 1.2140 0.2922
H24 H 0.6554 1.1498 0.1909
Pb1_2 Pb 1.652418(12) 0.370134(13) -0.352029(11)
N2_2 N 0.4466(3) 0.4212(3) 0.8063(3)
O5 O 0.8577(15) 0.0816(15) 0.5806(14)
O6 O 1.014(2) 0.111(2) 0.5811(19)
O7? O 0.9585(16) 0.0358(16) 0.5476(14)
loop_
_geom_bond_atom_site_label_1
_geom_bond_atom_site_label_2
_geom_bond_site_symmetry_1
_geom_bond_site_symmetry_2
Pb1 N1 1_555 1_555
N1 C1 1_555 1_555
C1 H1 1_555 1_555
C2 C1 1_555 1_555
H2 C2 1_555 1_555
C3 C2 1_555 1_555
C4 C3 1_555 1_555
H3 C4 1_555 1_555
C5 N1 1_555 1_555
H4 C5 1_555 1_555
N2 C6 1_555 1_555
C6 H5 1_555 1_555
C7 C6 1_555 1_555
H6 C7 1_555 1_555
C8 C7 1_555 1_555
C9 C8 1_555 1_555
H7 C9 1_555 1_555
C10 N2 1_555 1_555
H8 C10 1_555 1_555
C11 C3 1_555 1_555
H9 C11 1_555 1_555
C12 C8 1_555 1_555
H10 C12 1_555 1_555
O1 Pb1 1_555 1_555
O2 Pb1 1_555 1_555
C13 C14 1_555 1_555
C14 H11 1_555 1_555
C15 C14 1_555 1_555
H12 C15 1_555 1_555
C16 C15 1_555 1_555
C17 C16 1_555 1_555
H13 C17 1_555 1_555
C18 C13 1_555 1_555
H14 C18 1_555 1_555
C19 O1 1_555 1_555
C20 C16 1_555 1_555
H15 C20 1_555 1_555
H16 C20 1_555 1_555
H17 C20 1_555 1_555
O3 Pb1 1_555 1_555
O4 Pb1 1_555 1_555
C21 C22 1_555 1_555
C22 H18 1_555 1_555
C23 C22 1_555 1_555
H19 C23 1_555 1_555
C24 C23 1_555 1_555
C25 C24 1_555 1_555
H20 C25 1_555 1_555
C26 C21 1_555 1_555
H21 C26 1_555 1_555
C27 O3 1_555 1_555
C28 C24 1_555 1_555
H22 C28 1_555 1_555
H23 C28 1_555 1_555
H24 C28 1_555 1_555
Pb1_2 N2 1_555 1_555
N2_2 Pb1 1_555 1_555
C4 C5 1_555 1_555
C9 C10 1_555 1_555
C11 C12 1_555 1_555
O2 C19 1_555 1_555
C13 C19 1_555 1_555
C17 C18 1_555 1_555
O4 C27 1_555 1_555
C21 C27 1_555 1_555
C25 C26 1_555 1_555

#END
