
#######################################################################
#
#                 Cambridge Crystallographic Data Centre
#                                CCDC 
#
#######################################################################
#
# If this CIF has been generated from an entry in the Cambridge 
# Structural Database, then it will include bibliographic, chemical, 
# crystal, experimental, refinement or atomic coordinate data resulting 
# from the CCDC's data processing and validation procedures.
#
#######################################################################

data_PEXHUW
_symmetry_cell_setting           monoclinic
_symmetry_space_group_name_H-M   'C 2/c'
_symmetry_Int_Tables_number      15
_space_group_name_Hall           '-C 2yn'
loop_
_symmetry_equiv_pos_site_id
_symmetry_equiv_pos_as_xyz
1 x,y,z
2 1/2+x,1/2+y,z
3 -x,y,1/2-z
4 1/2-x,1/2+y,1/2-z
5 -x,-y,-z
6 1/2-x,1/2-y,-z
7 x,-y,1/2+z
8 1/2+x,1/2-y,1/2+z
_cell_length_a                   19.468(3)
_cell_length_b                   13.358(2)
_cell_length_c                   9.5341(14)
_cell_angle_alpha                90
_cell_angle_beta                 100.457(3)
_cell_angle_gamma                90
_cell_volume                     2438.2
loop_
_atom_site_label
_atom_site_type_symbol
_atom_site_fract_x
_atom_site_fract_y
_atom_site_fract_z
C1 C 0.4056(3) 0.2838(4) 0.3959(5)
C2 C 0.3676(3) 0.2309(5) 0.4833(5)
H1 H 0.3677 0.2541 0.5775
C3 C 0.3300(3) 0.1455(5) 0.4356(6)
H2 H 0.3039 0.1118 0.4963
C4 C 0.3306(3) 0.1089(4) 0.2979(5)
C5 C 0.3687(3) 0.1588(4) 0.2094(5)
H3 H 0.3693 0.1342 0.1161
C6 C 0.4061(3) 0.2448(4) 0.2577(5)
H4 H 0.4325 0.2780 0.1970
C7 C 0.3281(3) -0.1016(4) 0.3027(5)
C8 C 0.4009(3) -0.1032(4) 0.3337(5)
H5 H 0.4265 -0.0438 0.3248
C9 C 0.4364(3) -0.1920(4) 0.3780(5)
H6 H 0.4860 -0.1929 0.3993
C10 C 0.3986(3) -0.2792(4) 0.3906(5)
C11 C 0.3260(3) -0.2769(4) 0.3619(6)
H7 H 0.3004 -0.3361 0.3722
C12 C 0.2908(3) -0.1893(4) 0.3185(6)
H8 H 0.2412 -0.1885 0.2994
O1 O 0.44102(19) 0.3676(3) 0.4410(4)
O2 O 0.4303(2) -0.3696(3) 0.4298(4)
H9 H 0.4720 -0.3598 0.4691
O3 O 0.5000 0.5274(4) 0.7500
H10 H 0.480(4) 0.566(5) 0.800(7)
S1 S 0.27715(7) 0.00453(11) 0.23482(15)
Tl1 Tl 0.374994(10) 0.479497(17) 0.58788(2)
C1_2 C 0.4056(3) 1.2838(4) 0.3959(5)
C2_2 C 0.3676(3) 1.2309(5) 0.4833(5)
H1_2 H 0.3677 1.2541 0.5775
C3_2 C 0.3300(3) 1.1455(5) 0.4356(6)
H2_2 H 0.3039 1.1118 0.4963
C4_2 C 0.3306(3) 1.1089(4) 0.2979(5)
C5_2 C 0.3687(3) 1.1588(4) 0.2094(5)
H3_2 H 0.3693 1.1342 0.1161
C6_2 C 0.4061(3) 1.2448(4) 0.2577(5)
H4_2 H 0.4325 1.2780 0.1970
C7_2 C 0.3281(3) 0.8984(4) 0.3027(5)
C8_2 C 0.4009(3) 0.8968(4) 0.3337(5)
H5_2 H 0.4265 0.9562 0.3248
C9_2 C 0.4364(3) 0.8080(4) 0.3780(5)
H6_2 H 0.4860 0.8071 0.3993
C10_2 C 0.3986(3) 0.7208(4) 0.3906(5)
C11_2 C 0.3260(3) 0.7231(4) 0.3619(6)
H7_2 H 0.3004 0.6639 0.3722
C12_2 C 0.2908(3) 0.8107(4) 0.3185(6)
H8_2 H 0.2412 0.8115 0.2994
O1_2 O 0.44102(19) 1.3676(3) 0.4410(4)
O2_2 O 0.4303(2) 0.6304(3) 0.4298(4)
O2_3 O 0.4303(2) 1.6304(3) 0.4298(4)
H9_2 H 0.4720 0.6402 0.4691
H9_3 H 0.4720 1.6402 0.4691
O3_2 O 0.5000 1.5274(4) 0.7500
H10B H 0.520(4) 0.566(5) 0.700(7)
H10_2 H 0.480(4) 1.566(5) 0.800(7)
H10B_2 H 0.520(4) 1.566(5) 0.700(7)
S1_2 S 0.27715(7) 1.00453(11) 0.23482(15)
Tl1_2 Tl 0.374994(10) 1.479497(17) 0.58788(2)
Tl1_3 Tl 0.374994(10) -0.520503(17) 0.58788(2)
Tl1B Tl 0.625006(10) 0.479497(17) 0.91212(2)
loop_
_geom_bond_atom_site_label_1
_geom_bond_atom_site_label_2
_geom_bond_site_symmetry_1
_geom_bond_site_symmetry_2
C1 C2 1_555 1_555
C2 H1 1_555 1_555
C3 C2 1_555 1_555
H2 C3 1_555 1_555
C4 C3 1_555 1_555
C5 C4 1_555 1_555
H3 C5 1_555 1_555
C6 C1 1_555 1_555
H4 C6 1_555 1_555
C7 C8 1_555 1_555
C8 H5 1_555 1_555
C9 C8 1_555 1_555
H6 C9 1_555 1_555
C10 C9 1_555 1_555
C11 C10 1_555 1_555
H7 C11 1_555 1_555
C12 C7 1_555 1_555
H8 C12 1_555 1_555
O1 C1 1_555 1_555
O2 C10 1_555 1_555
H9 O2 1_555 1_555
O3 H10 1_555 1_555
S1 C4 1_555 1_555
Tl1 O1 1_555 1_555
C1_2 C2_2 1_555 1_555
C2_2 H1_2 1_555 1_555
C3_2 C2_2 1_555 1_555
H2_2 C3_2 1_555 1_555
C4_2 C3_2 1_555 1_555
C5_2 C4_2 1_555 1_555
H3_2 C5_2 1_555 1_555
C6_2 C1_2 1_555 1_555
H4_2 C6_2 1_555 1_555
C7_2 C8_2 1_555 1_555
C8_2 H5_2 1_555 1_555
C9_2 C8_2 1_555 1_555
H6_2 C9_2 1_555 1_555
C10_2 C9_2 1_555 1_555
C11_2 C10_2 1_555 1_555
H7_2 C11_2 1_555 1_555
C12_2 C7_2 1_555 1_555
H8_2 C12_2 1_555 1_555
O1_2 C1_2 1_555 1_555
O2_2 Tl1 1_555 1_555
O2_3 H9_3 1_555 1_555
H9_2 O2_2 1_555 1_555
O3_2 H10_2 1_555 1_555
H10B O3 1_555 1_555
H10B_2 O3_2 1_555 1_555
S1_2 C4_2 1_555 1_555
Tl1_2 O1_2 1_555 1_555
Tl1_3 O2 1_555 1_555
Tl1B O3 1_555 1_555
C5 C6 1_555 1_555
C7 S1 1_555 1_555
C11 C12 1_555 1_555
O3 Tl1 1_555 1_555
C5_2 C6_2 1_555 1_555
C7_2 S1_2 1_555 1_555
C10_2 O2_2 1_555 1_555
C11_2 C12_2 1_555 1_555
O2_3 Tl1_2 1_555 1_555
O3_2 Tl1_2 1_555 1_555

#END
