
#######################################################################
#
#                 Cambridge Crystallographic Data Centre
#                                CCDC 
#
#######################################################################
#
# If this CIF has been generated from an entry in the Cambridge 
# Structural Database, then it will include bibliographic, chemical, 
# crystal, experimental, refinement or atomic coordinate data resulting 
# from the CCDC's data processing and validation procedures.
#
#######################################################################

data_PEXHOQ
_symmetry_cell_setting           triclinic
_symmetry_space_group_name_H-M   'P -1'
_symmetry_Int_Tables_number      2
_space_group_name_Hall           '-P 1'
loop_
_symmetry_equiv_pos_site_id
_symmetry_equiv_pos_as_xyz
1 x,y,z
2 -x,-y,-z
_cell_length_a                   7.6354(2)
_cell_length_b                   9.3621(2)
_cell_length_c                   9.9440(2)
_cell_angle_alpha                89.412(1)
_cell_angle_beta                 69.748(1)
_cell_angle_gamma                74.415(1)
_cell_volume                     639.669
loop_
_atom_site_label
_atom_site_type_symbol
_atom_site_fract_x
_atom_site_fract_y
_atom_site_fract_z
Pb1 Pb -0.06220(2) -0.200508(18) 0.066425(17)
N1 N -0.1887(7) -0.0455(6) 0.3032(5)
N2 N 0.0999(8) -0.3097(6) 0.2390(6)
N3 N 0.1873(8) -0.0732(6) 0.0155(6)
N4 N 0.3485(8) -0.1346(6) 0.0148(6)
N5 N 0.5027(10) -0.1899(9) 0.0160(8)
N6 N 0.2423(10) -0.3964(7) -0.1110(7)
N7 N 0.2501(8) -0.5086(6) -0.1764(6)
N8 N 0.2651(9) -0.6152(7) -0.2422(6)
C1 C -0.3196(9) 0.0857(7) 0.3352(7)
H1 H -0.3546 0.1315 0.2611
C2 C -0.4096(9) 0.1608(7) 0.4736(7)
H2 H -0.5012 0.2533 0.4899
C3 C -0.3605(9) 0.0960(7) 0.5841(7)
H3 H -0.4196 0.1431 0.6770
C4 C -0.2186(9) -0.0439(7) 0.5553(7)
C5 C -0.1600(10) -0.1179(8) 0.6662(7)
H4 H -0.2177 -0.0750 0.7607
C6 C -0.0196(11) -0.2514(8) 0.6329(7)
H5 H 0.0178 -0.2988 0.7053
C7 C 0.0707(10) -0.3194(8) 0.4887(7)
C8 C 0.2221(10) -0.4546(8) 0.4532(8)
H6 H 0.2630 -0.5030 0.5238
C9 C 0.3075(10) -0.5127(8) 0.3115(8)
H7 H 0.4074 -0.6013 0.2853
C10 C 0.2435(10) -0.4380(7) 0.2063(7)
H8 H 0.3025 -0.4787 0.1111
C11 C 0.0147(9) -0.2502(7) 0.3786(7)
C12 C -0.1364(9) -0.1107(7) 0.4131(7)
Pb1A Pb 0.06220(2) 0.200508(18) -0.066425(17)
Pb1A_2 Pb 0.06220(2) -0.799492(18) -0.066425(17)
N3A N -0.1873(8) 0.0732(6) -0.0155(6)
N8A N -0.2651(9) -0.3848(7) 0.2422(6)
loop_
_geom_bond_atom_site_label_1
_geom_bond_atom_site_label_2
_geom_bond_site_symmetry_1
_geom_bond_site_symmetry_2
Pb1 N1 1_555 1_555
N1 C1 1_555 1_555
N2 Pb1 1_555 1_555
N3 Pb1 1_555 1_555
N4 N3 1_555 1_555
N5 N4 1_555 1_555
N6 Pb1 1_555 1_555
N7 N6 1_555 1_555
N8 N7 1_555 1_555
C1 H1 1_555 1_555
C2 C1 1_555 1_555
H2 C2 1_555 1_555
C3 C2 1_555 1_555
H3 C3 1_555 1_555
C4 C3 1_555 1_555
C5 C4 1_555 1_555
H4 C5 1_555 1_555
C6 C5 1_555 1_555
H5 C6 1_555 1_555
C7 C6 1_555 1_555
C8 C7 1_555 1_555
H6 C8 1_555 1_555
C9 C8 1_555 1_555
H7 C9 1_555 1_555
C10 N2 1_555 1_555
H8 C10 1_555 1_555
C11 N2 1_555 1_555
C12 N1 1_555 1_555
Pb1A N3 1_555 1_555
Pb1A_2 N8 1_555 1_555
N3A Pb1 1_555 1_555
N8A Pb1 1_555 1_555
C4 C12 1_555 1_555
C7 C11 1_555 1_555
C9 C10 1_555 1_555
C11 C12 1_555 1_555
Pb1A N3A 1_555 1_555

#END
