
#######################################################################
#
#                 Cambridge Crystallographic Data Centre
#                                CCDC 
#
#######################################################################
#
# If this CIF has been generated from an entry in the Cambridge 
# Structural Database, then it will include bibliographic, chemical, 
# crystal, experimental, refinement or atomic coordinate data resulting 
# from the CCDC's data processing and validation procedures.
#
#######################################################################

data_PEXJUY01
_symmetry_cell_setting           orthorhombic
_symmetry_space_group_name_H-M   'P b c a'
_symmetry_Int_Tables_number      61
_space_group_name_Hall           '-P 2ac 2ab'
loop_
_symmetry_equiv_pos_site_id
_symmetry_equiv_pos_as_xyz
1 x,y,z
2 1/2-x,-y,1/2+z
3 -x,1/2+y,1/2-z
4 1/2+x,1/2-y,-z
5 -x,-y,-z
6 1/2+x,y,1/2-z
7 x,1/2-y,1/2+z
8 1/2-x,1/2+y,z
_cell_length_a                   12.9583(7)
_cell_length_b                   7.8787(4)
_cell_length_c                   26.0617(14)
_cell_angle_alpha                90
_cell_angle_beta                 90
_cell_angle_gamma                90
_cell_volume                     2660.76
loop_
_atom_site_label
_atom_site_type_symbol
_atom_site_fract_x
_atom_site_fract_y
_atom_site_fract_z
Cu1 Cu 0.10257(4) 0.24303(6) 0.62448(3)
Cu2 Cu 0.15034(4) 0.03919(7) 0.37381(2)
N1 N 0.1120(3) 0.1592(5) 0.55176(14)
N2 N 0.1261(3) 0.0982(5) 0.44678(13)
N3 N 0.1080(3) 0.3333(5) 0.69634(14)
N4 N 0.1271(3) 0.3982(5) 0.80092(13)
N5 N -0.0885(3) 0.2183(5) 0.62602(19)
N6 N -0.1380(3) 0.3435(5) 0.62522(14)
O1 O 0.0974(2) 0.4648(4) 0.59052(10)
O2 O 0.1144(3) 0.5864(4) 0.51348(12)
O3 O 0.1096(2) 0.0240(4) 0.65930(10)
O4 O 0.1324(3) -0.0925(4) 0.73681(13)
O5 O 0.2849(3) 0.2442(4) 0.6238(2)
C1 C 0.1069(4) 0.4638(7) 0.54153(19)
C2 C 0.1126(4) 0.2866(7) 0.51846(19)
C3 C 0.1189(4) 0.2570(5) 0.4660(2)
H1 H 0.1181 0.3488 0.4436
C4 C 0.1277(3) -0.0285(7) 0.48134(16)
H2 H 0.1339 -0.1396 0.4697
C5 C 0.1203(4) 0.0004(7) 0.53337(18)
H3 H 0.1211 -0.0909 0.5560
C6 C 0.1216(3) 0.0282(8) 0.70848(18)
C7 C 0.1205(3) 0.2053(7) 0.73082(18)
C8 C 0.1295(4) 0.2399(6) 0.7824(2)
H4 H 0.1376 0.1500 0.8051
C9 C 0.1169(3) 0.5231(6) 0.76630(16)
H5 H 0.1168 0.6350 0.7777
C10 C 0.1066(4) 0.4918(7) 0.71455(18)
H6 H 0.0986 0.5823 0.6920
H7 H 0.324(4) 0.163(6) 0.615(2)
H8 H 0.320(4) 0.328(5) 0.635(2)
N7 N -0.1835(3) 0.4767(6) 0.62419(16)
Cu2F Cu 0.15034(4) 0.46081(7) 0.87381(2)
Cu2D Cu -0.15034(4) -0.03919(7) 0.62619(2)
Cu2C Cu -0.34966(4) 0.46081(7) 0.62619(2)
N4F N 0.1271(3) 0.1018(5) 0.30092(13)
N5D N 0.0885(3) -0.2183(5) 0.37398(19)
N7C N 0.3165(3) 0.0233(6) 0.37581(16)
loop_
_geom_bond_atom_site_label_1
_geom_bond_atom_site_label_2
_geom_bond_site_symmetry_1
_geom_bond_site_symmetry_2
Cu1 N1 1_555 1_555
Cu2 N2 1_555 1_555
N1 C2 1_555 1_555
N2 C3 1_555 1_555
N3 Cu1 1_555 1_555
N4 C8 1_555 1_555
N5 Cu1 1_555 1_555
N6 N5 1_555 1_555
O1 Cu1 1_555 1_555
O2 C1 1_555 1_555
O3 Cu1 1_555 1_555
O4 C6 1_555 1_555
O5 Cu1 1_555 1_555
C1 O1 1_555 1_555
C2 C1 1_555 1_555
C3 C2 1_555 1_555
H1 C3 1_555 1_555
C4 N2 1_555 1_555
H2 C4 1_555 1_555
C5 N1 1_555 1_555
H3 C5 1_555 1_555
C6 O3 1_555 1_555
C7 N3 1_555 1_555
C8 C7 1_555 1_555
H4 C8 1_555 1_555
C9 N4 1_555 1_555
H5 C9 1_555 1_555
C10 N3 1_555 1_555
H6 C10 1_555 1_555
H7 O5 1_555 1_555
H8 O5 1_555 1_555
N7 N6 1_555 1_555
Cu2F N4 1_555 1_555
Cu2D N5 1_555 1_555
Cu2C N7 1_555 1_555
N4F Cu2 1_555 1_555
N5D Cu2 1_555 1_555
N7C Cu2 1_555 1_555
C4 C5 1_555 1_555
C6 C7 1_555 1_555
C9 C10 1_555 1_555

#END
