
#######################################################################
#
#                 Cambridge Crystallographic Data Centre
#                                CCDC 
#
#######################################################################
#
# If this CIF has been generated from an entry in the Cambridge 
# Structural Database, then it will include bibliographic, chemical, 
# crystal, experimental, refinement or atomic coordinate data resulting 
# from the CCDC's data processing and validation procedures.
#
#######################################################################

data_PEXJUY
_symmetry_cell_setting           monoclinic
_symmetry_space_group_name_H-M   'P 21/c'
_symmetry_Int_Tables_number      14
_space_group_name_Hall           '-P 2ybc'
loop_
_symmetry_equiv_pos_site_id
_symmetry_equiv_pos_as_xyz
1 x,y,z
2 -x,1/2+y,1/2-z
3 -x,-y,-z
4 x,1/2-y,1/2+z
_cell_length_a                   9.167(2)
_cell_length_b                   7.8701(17)
_cell_length_c                   18.460(4)
_cell_angle_alpha                90
_cell_angle_beta                 90.197(4)
_cell_angle_gamma                90
_cell_volume                     1331.79
loop_
_atom_site_label
_atom_site_type_symbol
_atom_site_fract_x
_atom_site_fract_y
_atom_site_fract_z
Cu1 Cu 0.39904(7) 0.45957(9) 0.20062(4)
Cu2 Cu 0.85144(7) 0.25352(7) -0.07334(3)
O1 O 1.0337(4) 0.2378(5) 0.0184(2)
O2 O 0.6433(5) -0.0888(5) 0.0448(2)
O3 O 0.7761(4) 0.0319(4) -0.04228(19)
O4 O -0.0703(4) 0.0258(4) 0.39680(19)
O5 O 0.1000(4) -0.0920(5) 0.3271(2)
N1 N 0.5214(5) 0.4002(5) 0.1162(2)
N2 N 0.7163(4) 0.3389(6) 0.0035(2)
N3 N 0.0009(4) 0.3352(6) 0.3571(2)
N4 N 0.2288(5) 0.3980(5) 0.2620(2)
N5 N 0.3374(5) 0.7180(5) 0.1696(3)
N6 N 0.3877(5) 0.8412(7) 0.1944(2)
N7 N 0.4346(5) 0.9773(6) 0.2161(2)
C1 C 0.6507(6) 0.2103(6) 0.0380(3)
C2 C 0.5548(6) 0.2418(6) 0.0941(3)
H1 H 0.5117 0.1500 0.1176
C3 C 0.5912(6) 0.5271(7) 0.0815(3)
H2 H 0.5736 0.6387 0.0955
C4 C 0.6877(6) 0.4968(6) 0.0259(3)
H3 H 0.7338 0.5880 0.0036
C5 C 0.6907(6) 0.0340(7) 0.0126(3)
C6 C 0.0786(6) 0.2075(7) 0.3278(3)
C7 C 0.1923(5) 0.2412(6) 0.2805(3)
H4 H 0.2447 0.1507 0.2612
C8 C 0.1520(6) 0.5236(7) 0.2930(3)
H5 H 0.1775 0.6355 0.2830
C9 C 0.0370(6) 0.4932(7) 0.3389(3)
H6 H -0.0160 0.5841 0.3573
C10 C 0.0357(6) 0.0292(7) 0.3516(3)
Cu1A Cu 0.60096(7) 0.95957(9) 0.29938(4)
Cu2C Cu -0.14856(7) 0.24648(7) 0.42666(3)
Cu2B Cu 0.14856(7) 0.74648(7) 0.07334(3)
O4C O 0.9297(4) 0.4742(4) -0.10320(19)
N3C N 1.0009(4) 0.1648(6) -0.1429(2)
N5B N 0.6626(5) 0.2820(5) -0.1696(3)
N7A N 0.5654(5) 0.4773(6) 0.2839(2)
loop_
_geom_bond_atom_site_label_1
_geom_bond_atom_site_label_2
_geom_bond_site_symmetry_1
_geom_bond_site_symmetry_2
Cu1 N1 1_555 1_555
Cu2 O1 1_555 1_555
O2 C5 1_555 1_555
O3 Cu2 1_555 1_555
O4 C10 1_555 1_555
O5 C10 1_555 1_555
N1 C2 1_555 1_555
N2 Cu2 1_555 1_555
N3 C6 1_555 1_555
N4 Cu1 1_555 1_555
N5 Cu1 1_555 1_555
N6 N5 1_555 1_555
N7 N6 1_555 1_555
C1 N2 1_555 1_555
C2 C1 1_555 1_555
H1 C2 1_555 1_555
C3 N1 1_555 1_555
H2 C3 1_555 1_555
C4 N2 1_555 1_555
H3 C4 1_555 1_555
C5 O3 1_555 1_555
C6 C7 1_555 1_555
C7 N4 1_555 1_555
H4 C7 1_555 1_555
C8 N4 1_555 1_555
H5 C8 1_555 1_555
C9 N3 1_555 1_555
H6 C9 1_555 1_555
C10 C6 1_555 1_555
Cu1A N7 1_555 1_555
Cu2C O4 1_555 1_555
Cu2B N5 1_555 1_555
O4C Cu2 1_555 1_555
N3C Cu2 1_555 1_555
N5B Cu2 1_555 1_555
N7A Cu1 1_555 1_555
N3 Cu2C 1_555 1_555
C1 C5 1_555 1_555
C3 C4 1_555 1_555
C8 C9 1_555 1_555

#END
