
#######################################################################
#
#                 Cambridge Crystallographic Data Centre
#                                CCDC 
#
#######################################################################
#
# If this CIF has been generated from an entry in the Cambridge 
# Structural Database, then it will include bibliographic, chemical, 
# crystal, experimental, refinement or atomic coordinate data resulting 
# from the CCDC's data processing and validation procedures.
#
#######################################################################

data_PEXJAE
_symmetry_cell_setting           triclinic
_symmetry_space_group_name_H-M   'P -1'
_symmetry_Int_Tables_number      2
_space_group_name_Hall           '-P 1'
loop_
_symmetry_equiv_pos_site_id
_symmetry_equiv_pos_as_xyz
1 x,y,z
2 -x,-y,-z
_cell_length_a                   10.3110(17)
_cell_length_b                   11.1344(18)
_cell_length_c                   14.511(2)
_cell_angle_alpha                84.396(3)
_cell_angle_beta                 77.088(3)
_cell_angle_gamma                68.593(2)
_cell_volume                     1511.57
loop_
_atom_site_label
_atom_site_type_symbol
_atom_site_fract_x
_atom_site_fract_y
_atom_site_fract_z
Cd1 Cd 1.65305(6) 0.73187(6) 0.02056(5)
Cd2 Cd 1.0000 0.5000 0.0000
Cd3 Cd 1.5000 0.5000 0.0000
Co1 Co 1.10734(12) 0.01316(11) 0.42581(8)
O1 O 1.3964(7) 0.7040(6) 0.0295(5)
O2 O 1.4799(7) 0.8412(7) -0.0606(5)
O3 O 0.9122(7) 0.7110(6) 0.0329(4)
O4 O 0.7773(7) 0.8596(7) -0.0538(5)
O5 O 0.6412(6) 0.5206(6) 0.0835(4)
O6 O 0.8543(6) 0.4593(6) 0.1230(4)
O7 O 0.9376(7) 0.1440(7) 0.3831(5)
O8 O 0.7597(7) 0.1339(6) 0.5003(4)
O9 O 1.1383(7) 0.8701(6) 0.3329(5)
O10 O 0.9581(8) 0.8712(7) 0.4499(5)
O11 O 1.3526(7) 0.4734(7) 0.1215(4)
O12 O 1.1833(6) 0.4151(6) 0.0874(4)
N1 N 1.5910(9) 0.7758(7) 0.1737(6)
N2 N 1.4705(10) 0.7964(9) 0.3190(6)
H1 H 1.3995 0.8098 0.3659
N3 N 1.2566(8) 0.0900(8) 0.3648(6)
N4 N 1.4039(12) 0.1467(11) 0.2518(8)
H2 H 1.4419 0.1687 0.1970
C1 C 1.3825(9) 0.7953(8) -0.0306(6)
C2 C 1.2476(9) 0.8529(8) -0.0656(6)
C3 C 1.2289(9) 0.9533(9) -0.1332(7)
H3 H 1.3008 0.9869 -0.1554
C4 C 1.1048(10) 1.0027(9) -0.1670(7)
H4 H 1.0938 1.0682 -0.2128
C5 C 0.9961(10) 0.9549(9) -0.1329(7)
H5 H 0.9124 0.9888 -0.1559
C6 C 1.0109(8) 0.8570(8) -0.0647(6)
C7 C 1.1374(9) 0.8046(8) -0.0311(6)
H6 H 1.1485 0.7381 0.0139
C8 C 0.8928(9) 0.8059(8) -0.0281(6)
C9 C 0.7259(9) 0.4697(8) 0.1393(6)
C10 C 0.6671(9) 0.4222(8) 0.2354(6)
C11 C 0.5245(10) 0.4790(8) 0.2775(6)
H7 H 0.4627 0.5410 0.2444
C12 C 0.4744(10) 0.4437(10) 0.3684(7)
H8 H 0.3792 0.4823 0.3970
C13 C 0.5684(10) 0.3488(10) 0.4172(7)
H9 H 0.5350 0.3266 0.4790
C14 C 0.7071(9) 0.2887(8) 0.3759(6)
C15 C 0.7591(9) 0.3281(8) 0.2845(6)
H10 H 0.8549 0.2911 0.2569
C16 C 0.8101(10) 0.1793(9) 0.4235(6)
C17 C 1.0457(10) 0.8221(9) 0.3778(7)
C18 C 1.0433(10) 0.7016(9) 0.3435(6)
C19 C 0.9534(11) 0.6413(11) 0.3955(7)
H11 H 0.8937 0.6771 0.4518
C20 C 0.9517(12) 0.5277(11) 0.3643(7)
H12 H 0.8932 0.4866 0.4006
C21 C 1.0376(11) 0.4758(10) 0.2788(7)
H13 H 1.0331 0.4024 0.2561
C22 C 1.1288(9) 0.5333(9) 0.2283(6)
C23 C 1.1351(9) 0.6448(9) 0.2595(6)
H14 H 1.1993 0.6816 0.2251
C24 C 1.2312(9) 0.4720(8) 0.1380(6)
C25 C 1.4643(11) 0.8006(10) 0.2275(9)
H15 H 1.3812 0.8186 0.2052
C26 C 1.6080(13) 0.7673(12) 0.3248(9)
H16 H 1.6436 0.7585 0.3796
C27 C 1.6826(11) 0.7539(10) 0.2352(7)
H17 H 1.7805 0.7330 0.2174
C28 C 1.2858(11) 0.1188(10) 0.2732(8)
H18 H 1.2311 0.1194 0.2300
C29 C 1.4536(14) 0.1338(16) 0.3330(12)
H19 H 1.5365 0.1449 0.3389
C30 C 1.3628(14) 0.1026(14) 0.4021(10)
H20 H 1.3695 0.0911 0.4654
Cd1A Cd 0.34695(6) 0.26813(6) -0.02056(5)
Cd1_2 Cd 0.65305(6) 0.73187(6) 0.02056(5)
Cd1A_2 Cd 1.34695(6) 0.26813(6) -0.02056(5)
Cd3_2 Cd 0.5000 0.5000 0.0000
Co1A Co 0.89266(12) 0.98684(11) -0.42581(8)
Co1A_2 Co 0.89266(12) -0.01316(11) 0.57419(8)
Co1_2 Co 1.10734(12) 1.01316(11) 0.42581(8)
Co1A_3 Co 0.89266(12) 0.98684(11) 0.57419(8)
Co1_3 Co 1.10734(12) 1.01316(11) -0.57419(8)
Co1A_4 Co 0.89266(12) -0.01316(11) -0.42581(8)
Co1_4 Co 1.10734(12) 0.01316(11) -0.57419(8)
O1A O 0.6036(7) 0.2960(6) -0.0295(5)
O1A_2 O 1.6036(7) 0.2960(6) -0.0295(5)
O2A O 0.5201(7) 0.1588(7) 0.0606(5)
O3A O 1.0878(7) 0.2890(6) -0.0329(4)
O3_2 O 1.9122(7) 0.7110(6) 0.0329(4)
O3A_2 O 0.0878(7) 0.2890(6) -0.0329(4)
O4A O 1.2227(7) 0.1404(7) 0.0538(5)
O4_2 O 1.7773(7) 0.8596(7) -0.0538(5)
O4A_2 O 0.2227(7) 0.1404(7) 0.0538(5)
O5A O 1.3588(6) 0.4794(6) -0.0835(4)
O5_2 O 1.6412(6) 0.5206(6) 0.0835(4)
O5A_2 O 0.3588(6) 0.4794(6) -0.0835(4)
O6A O 1.1457(6) 0.5407(6) -0.1230(4)
O7A O 1.0624(7) 0.8560(7) -0.3831(5)
O8A O 1.2403(7) 0.8661(6) -0.5003(4)
O8A_2 O 1.2403(7) -0.1339(6) 0.4997(4)
O8_2 O 0.7597(7) 1.1339(6) -0.4997(4)
O9A O 0.8617(7) 0.1299(6) -0.3329(5)
O9_2 O 1.1383(7) -0.1299(6) 0.3329(5)
O9A_2 O 0.8617(7) 1.1299(6) -0.3329(5)
O10A O 1.0419(8) 0.1288(7) -0.4499(5)
O10A_2 O 1.0419(8) 0.1288(7) 0.5501(5)
O10_2 O 0.9581(8) 0.8712(7) -0.5501(5)
O11A O 0.6474(7) 0.5266(7) -0.1215(4)
O11A_2 O 1.6474(7) 0.5266(7) -0.1215(4)
O12A O 0.8167(6) 0.5849(6) -0.0874(4)
O12A_2 O 1.8167(6) 0.5849(6) -0.0874(4)
O12_2 O 0.1833(6) 0.4151(6) 0.0874(4)
N1A N 0.4090(9) 0.2242(7) -0.1737(6)
N2A N 0.5295(10) 0.2036(9) -0.3190(6)
H1A H 0.6005 0.1902 -0.3659
N3A N 0.7434(8) 0.9100(8) -0.3648(6)
N4A N 0.5961(12) 0.8533(11) -0.2518(8)
H2A H 0.5581 0.8313 -0.1970
C1A C 0.6175(9) 0.2047(8) 0.0306(6)
C2A C 0.7524(9) 0.1471(8) 0.0656(6)
C3A C 0.7711(9) 0.0467(9) 0.1332(7)
H3A H 0.6992 0.0131 0.1554
C4A C 0.8952(10) -0.0027(9) 0.1670(7)
H4A H 0.9062 -0.0682 0.2128
C5A C 1.0039(10) 0.0451(9) 0.1329(7)
H5A H 1.0876 0.0112 0.1559
C6A C 0.9891(8) 0.1430(8) 0.0647(6)
C7A C 0.8626(9) 0.1954(8) 0.0311(6)
H6A H 0.8515 0.2619 -0.0139
C8A C 1.1072(9) 0.1941(8) 0.0281(6)
C9A C 1.2741(9) 0.5303(8) -0.1393(6)
C10A C 1.3329(9) 0.5778(8) -0.2354(6)
C11A C 1.4755(10) 0.5210(8) -0.2775(6)
H7A H 1.5373 0.4590 -0.2444
C12A C 1.5256(10) 0.5563(10) -0.3684(7)
H8A H 1.6208 0.5177 -0.3970
C13A C 1.4316(10) 0.6512(10) -0.4172(7)
H9A H 1.4650 0.6734 -0.4790
C14A C 1.2929(9) 0.7113(8) -0.3759(6)
C15A C 1.2409(9) 0.6719(8) -0.2845(6)
H10A H 1.1451 0.7089 -0.2569
C16A C 1.1899(10) 0.8207(9) -0.4235(6)
C17A C 0.9543(10) 0.1779(9) -0.3778(7)
C18A C 0.9567(10) 0.2984(9) -0.3435(6)
C19A C 1.0466(11) 0.3587(11) -0.3955(7)
H11A H 1.1063 0.3229 -0.4518
C20A C 1.0483(12) 0.4723(11) -0.3643(7)
H12A H 1.1068 0.5134 -0.4006
C21A C 0.9624(11) 0.5242(10) -0.2788(7)
H13A H 0.9669 0.5976 -0.2561
C22A C 0.8712(9) 0.4667(9) -0.2283(6)
C23A C 0.8649(9) 0.3552(9) -0.2595(6)
H14A H 0.8007 0.3184 -0.2251
C24A C 0.7688(9) 0.5280(8) -0.1380(6)
C25A C 0.5357(11) 0.1994(10) -0.2275(9)
H15A H 0.6188 0.1814 -0.2052
C26A C 0.3920(13) 0.2327(12) -0.3248(9)
H16A H 0.3564 0.2415 -0.3796
C27A C 0.3174(11) 0.2461(10) -0.2352(7)
H17A H 0.2195 0.2670 -0.2174
C28A C 0.7142(11) 0.8812(10) -0.2732(8)
H18A H 0.7689 0.8806 -0.2300
C29A C 0.5464(14) 0.8662(16) -0.3330(12)
H19A H 0.4635 0.8551 -0.3389
C30A C 0.6372(14) 0.8974(14) -0.4021(10)
H20A H 0.6305 0.9089 -0.4654
loop_
_geom_bond_atom_site_label_1
_geom_bond_atom_site_label_2
_geom_bond_site_symmetry_1
_geom_bond_site_symmetry_2
Cd1 O2 1_555 1_555
Cd2 O3 1_555 1_555
Cd3 O1 1_555 1_555
Co1 O7 1_555 1_555
O1 C1 1_555 1_555
O2 C1 1_555 1_555
O3 C8 1_555 1_555
O4 C8 1_555 1_555
O5 C9 1_555 1_555
O6 Cd2 1_555 1_555
O7 C16 1_555 1_555
O8 C16 1_555 1_555
O9 C17 1_555 1_555
O10 C17 1_555 1_555
O11 Cd3 1_555 1_555
O12 Cd2 1_555 1_555
N1 Cd1 1_555 1_555
N2 H1 1_555 1_555
N3 Co1 1_555 1_555
N4 H2 1_555 1_555
C1 C2 1_555 1_555
C2 C3 1_555 1_555
C3 H3 1_555 1_555
C4 C3 1_555 1_555
H4 C4 1_555 1_555
C5 C4 1_555 1_555
H5 C5 1_555 1_555
C6 C5 1_555 1_555
C7 C2 1_555 1_555
H6 C7 1_555 1_555
C8 C6 1_555 1_555
C9 O6 1_555 1_555
C10 C9 1_555 1_555
C11 C10 1_555 1_555
H7 C11 1_555 1_555
C12 C11 1_555 1_555
H8 C12 1_555 1_555
C13 C12 1_555 1_555
H9 C13 1_555 1_555
C14 C13 1_555 1_555
C15 C10 1_555 1_555
H10 C15 1_555 1_555
C16 C14 1_555 1_555
C17 C18 1_555 1_555
C18 C19 1_555 1_555
C19 H11 1_555 1_555
C20 C19 1_555 1_555
H12 C20 1_555 1_555
C21 C20 1_555 1_555
H13 C21 1_555 1_555
C22 C21 1_555 1_555
C23 C18 1_555 1_555
H14 C23 1_555 1_555
C24 O11 1_555 1_555
C25 N1 1_555 1_555
H15 C25 1_555 1_555
C26 N2 1_555 1_555
H16 C26 1_555 1_555
C27 N1 1_555 1_555
H17 C27 1_555 1_555
C28 N3 1_555 1_555
H18 C28 1_555 1_555
C29 N4 1_555 1_555
H19 C29 1_555 1_555
C30 N3 1_555 1_555
H20 C30 1_555 1_555
Cd1A O2A 1_555 1_555
Cd1_2 O3 1_555 1_555
Cd1A_2 O12 1_555 1_555
Cd3_2 O5 1_555 1_555
Co1A O7A 1_555 1_555
Co1A_2 O8 1_555 1_555
Co1_2 O9 1_555 1_555
Co1A_3 O10 1_555 1_555
Co1_3 O8A 1_555 1_555
Co1A_4 O9A 1_555 1_555
Co1_4 O10A 1_555 1_555
O1A Cd3_2 1_555 1_555
O1A_2 Cd3 1_555 1_555
O2A C1A 1_555 1_555
O3A Cd2 1_555 1_555
O3_2 Cd1 1_555 1_555
O3A_2 Cd1A 1_555 1_555
O4A Cd1A_2 1_555 1_555
O4_2 Cd1 1_555 1_555
O4A_2 Cd1A 1_555 1_555
O5A Cd3 1_555 1_555
O5_2 Cd1 1_555 1_555
O5A_2 Cd1A 1_555 1_555
O6A Cd2 1_555 1_555
O7A C16A 1_555 1_555
O8A C16A 1_555 1_555
O8A_2 Co1 1_555 1_555
O8_2 Co1A 1_555 1_555
O9A C17A 1_555 1_555
O9_2 Co1 1_555 1_555
O9A_2 Co1A 1_555 1_555
O10A C17A 1_555 1_555
O10A_2 Co1 1_555 1_555
O10_2 Co1A 1_555 1_555
O11A Cd3_2 1_555 1_555
O11A_2 Cd3 1_555 1_555
O12A Cd2 1_555 1_555
O12A_2 Cd1 1_555 1_555
O12_2 Cd1A 1_555 1_555
N1A Cd1A 1_555 1_555
N2A H1A 1_555 1_555
N3A Co1A 1_555 1_555
N4A H2A 1_555 1_555
C1A O1A 1_555 1_555
C2A C1A 1_555 1_555
C3A C2A 1_555 1_555
H3A C3A 1_555 1_555
C4A C3A 1_555 1_555
H4A C4A 1_555 1_555
C5A C4A 1_555 1_555
H5A C5A 1_555 1_555
C6A C5A 1_555 1_555
C7A C2A 1_555 1_555
H6A C7A 1_555 1_555
C8A O3A 1_555 1_555
C9A O5A 1_555 1_555
C10A C9A 1_555 1_555
C11A C10A 1_555 1_555
H7A C11A 1_555 1_555
C12A C11A 1_555 1_555
H8A C12A 1_555 1_555
C13A C12A 1_555 1_555
H9A C13A 1_555 1_555
C14A C13A 1_555 1_555
C15A C10A 1_555 1_555
H10A C15A 1_555 1_555
C16A C14A 1_555 1_555
C17A C18A 1_555 1_555
C18A C19A 1_555 1_555
C19A H11A 1_555 1_555
C20A C19A 1_555 1_555
H12A C20A 1_555 1_555
C21A C20A 1_555 1_555
H13A C21A 1_555 1_555
C22A C21A 1_555 1_555
C23A C18A 1_555 1_555
H14A C23A 1_555 1_555
C24A O11A 1_555 1_555
C25A N1A 1_555 1_555
H15A C25A 1_555 1_555
C26A N2A 1_555 1_555
H16A C26A 1_555 1_555
C27A N1A 1_555 1_555
H17A C27A 1_555 1_555
C28A N3A 1_555 1_555
H18A C28A 1_555 1_555
C29A N4A 1_555 1_555
H19A C29A 1_555 1_555
C30A N3A 1_555 1_555
H20A C30A 1_555 1_555
Cd3 O5_2 1_555 1_555
O4 Cd1_2 1_555 1_555
O5 Cd1_2 1_555 1_555
O12 C24 1_555 1_555
N2 C25 1_555 1_555
N4 C28 1_555 1_555
C6 C7 1_555 1_555
C14 C15 1_555 1_555
C22 C23 1_555 1_555
C22 C24 1_555 1_555
C26 C27 1_555 1_555
C29 C30 1_555 1_555
Cd1_2 O12A 1_555 1_555
Cd1A_2 O3A 1_555 1_555
Cd1A_2 O5A 1_555 1_555
Cd3_2 O5A_2 1_555 1_555
O4A C8A 1_555 1_555
O6A C9A 1_555 1_555
O12A C24A 1_555 1_555
N2A C25A 1_555 1_555
N4A C28A 1_555 1_555
C6A C7A 1_555 1_555
C6A C8A 1_555 1_555
C14A C15A 1_555 1_555
C22A C23A 1_555 1_555
C22A C24A 1_555 1_555
C26A C27A 1_555 1_555
C29A C30A 1_555 1_555

#END
