
#######################################################################
#
#                 Cambridge Crystallographic Data Centre
#                                CCDC 
#
#######################################################################
#
# If this CIF has been generated from an entry in the Cambridge 
# Structural Database, then it will include bibliographic, chemical, 
# crystal, experimental, refinement or atomic coordinate data resulting 
# from the CCDC's data processing and validation procedures.
#
#######################################################################

data_PEXMUB
_symmetry_cell_setting           monoclinic
_symmetry_space_group_name_H-M   'P 21/c'
_symmetry_Int_Tables_number      14
_space_group_name_Hall           '-P 2ybc'
loop_
_symmetry_equiv_pos_site_id
_symmetry_equiv_pos_as_xyz
1 x,y,z
2 -x,1/2+y,1/2-z
3 -x,-y,-z
4 x,1/2-y,1/2+z
_cell_length_a                   7.3939(17)
_cell_length_b                   18.858(4)
_cell_length_c                   8.849(2)
_cell_angle_alpha                90
_cell_angle_beta                 109.260(4)
_cell_angle_gamma                90
_cell_volume                     1164.8
loop_
_atom_site_label
_atom_site_type_symbol
_atom_site_fract_x
_atom_site_fract_y
_atom_site_fract_z
Mn1 Mn 0.02603(2) 0.374019(10) 0.17496(2)
O1 O -0.17476(15) 0.44513(6) 0.00439(13)
H1 H -0.289(3) 0.4354(12) -0.022(3)
H2 H -0.159(3) 0.4644(11) -0.071(2)
N1 N 0.26441(17) 0.31617(6) 0.34313(15)
N2 N 0.5597(2) 0.28359(12) 0.55393(18)
N3 N 0.84361(17) 0.21655(6) 0.56155(15)
N4 N 0.18665(17) 0.47465(6) 0.27962(14)
N5 N 0.32505(19) 0.54253(10) 0.5259(2)
N6 N 0.14942(18) 0.60960(7) 0.66959(15)
N7 N 0.17797(16) 0.37157(6) -0.01248(14)
N8 N 0.44543(16) 0.40691(7) -0.08631(15)
C1 C 0.4078(2) 0.29885(8) 0.43488(17)
C2 C 0.7047(2) 0.24731(7) 0.54775(16)
C3 C 0.24412(18) 0.50750(7) 0.39535(16)
C4 C 0.22425(19) 0.57749(8) 0.59700(16)
C5 C 0.35353(18) 0.39840(7) 0.01825(16)
H3 H 0.4189 0.4128 0.1253
C6 C 0.3527(2) 0.38620(8) -0.23708(18)
H4 H 0.4131 0.3922 -0.3158
C7 C 0.1724(2) 0.35649(8) -0.28105(17)
H5 H 0.1087 0.3410 -0.3875
C8 C 0.08866(19) 0.35024(8) -0.16370(16)
H6 H -0.0359 0.3303 -0.1905
Mn1C Mn 1.02603(2) 0.125981(10) 0.67496(2)
Mn1B Mn -0.02603(2) 0.625981(10) 0.82504(2)
N3C N -0.15639(17) 0.28345(6) 0.06155(15)
N6B N -0.14942(18) 0.39040(7) 0.33041(15)
loop_
_geom_bond_atom_site_label_1
_geom_bond_atom_site_label_2
_geom_bond_site_symmetry_1
_geom_bond_site_symmetry_2
Mn1 O1 1_555 1_555
O1 H1 1_555 1_555
H2 O1 1_555 1_555
N1 Mn1 1_555 1_555
N2 C1 1_555 1_555
N3 C2 1_555 1_555
N4 Mn1 1_555 1_555
N5 C3 1_555 1_555
N6 C4 1_555 1_555
N7 Mn1 1_555 1_555
N8 C5 1_555 1_555
C1 N1 1_555 1_555
C2 N2 1_555 1_555
C3 N4 1_555 1_555
C4 N5 1_555 1_555
C5 N7 1_555 1_555
H3 C5 1_555 1_555
C6 N8 1_555 1_555
H4 C6 1_555 1_555
C7 C6 1_555 1_555
H5 C7 1_555 1_555
C8 N7 1_555 1_555
H6 C8 1_555 1_555
Mn1C N3 1_555 1_555
Mn1B N6 1_555 1_555
N3C Mn1 1_555 1_555
N6B Mn1 1_555 1_555
C7 C8 1_555 1_555

#END
