
#######################################################################
#
#                 Cambridge Crystallographic Data Centre
#                                CCDC 
#
#######################################################################
#
# If this CIF has been generated from an entry in the Cambridge 
# Structural Database, then it will include bibliographic, chemical, 
# crystal, experimental, refinement or atomic coordinate data resulting 
# from the CCDC's data processing and validation procedures.
#
#######################################################################

data_PEXMUA
_symmetry_cell_setting           monoclinic
_symmetry_space_group_name_H-M   'P 21/c'
_symmetry_Int_Tables_number      14
_space_group_name_Hall           '-P 2ybc'
loop_
_symmetry_equiv_pos_site_id
_symmetry_equiv_pos_as_xyz
1 x,y,z
2 -x,1/2+y,1/2-z
3 -x,-y,-z
4 x,1/2-y,1/2+z
_cell_length_a                   8.255(1)
_cell_length_b                   16.918(3)
_cell_length_c                   11.114(1)
_cell_angle_alpha                90
_cell_angle_beta                 104.77(1)
_cell_angle_gamma                90
_cell_volume                     1500.87
loop_
_atom_site_label
_atom_site_type_symbol
_atom_site_fract_x
_atom_site_fract_y
_atom_site_fract_z
Ni1 Ni -0.1214(1) 0.2805(1) 0.0875(1)
N1 N -0.2928(3) 0.3145(1) -0.4358(2)
N2 N 0.0289(3) 0.3062(2) -0.4657(2)
N3 N -0.3341(4) 0.1530(2) -0.4010(2)
N4 N 0.0660(3) 0.1369(2) -0.3669(2)
N5 N 0.2478(4) 0.0454(2) -0.3786(4)
O1 O -0.0848(3) 0.2495(1) -0.2260(2)
O2 O -0.1922(3) 0.3244(1) -0.0996(2)
C1 C -0.2483(4) 0.3680(2) -0.5274(3)
C2 C -0.0617(5) 0.3818(2) -0.4948(3)
C3 C -0.4603(4) 0.2788(2) -0.4792(3)
C4 C -0.4725(4) 0.2076(2) -0.3998(3)
C5 C -0.2714(4) 0.3541(2) -0.3132(3)
C6 C -0.1755(4) 0.3047(2) -0.2045(2)
C7 C 0.1800(5) 0.1276(2) -0.2531(3)
C8 C 0.2917(5) 0.0709(2) -0.2599(4)
C9 C 0.1131(5) 0.0862(2) -0.4395(4)
H1 H 0.1352(34) 0.3103(23) -0.4091(31)
H2 H 0.0540(47) 0.2832(22) -0.5386(28)
H3 H -0.3575(48) 0.1190(21) -0.4690(29)
H4 H -0.3202(52) 0.1159(21) -0.3351(32)
H5 H 0.3091(55) 0.0051(24) -0.4101(44)
H6 H -0.3081(38) 0.4176(19) -0.5324(28)
H7 H -0.2865(38) 0.3457(19) -0.6030(29)
H8 H -0.0341(44) 0.4073(22) -0.5644(34)
H9 H -0.0323(42) 0.4149(21) -0.4283(33)
H10 H -0.5473(46) 0.3147(22) -0.4760(33)
H11 H -0.4773(43) 0.2623(21) -0.5639(32)
H12 H -0.4751(44) 0.2223(21) -0.3132(34)
H13 H -0.5799(50) 0.1819(24) -0.4297(36)
H14 H -0.2064(44) 0.4016(22) -0.3130(33)
H15 H -0.3813(31) 0.3696(20) -0.3013(30)
H16 H 0.1683(52) 0.1645(22) -0.1860(32)
H17 H 0.3976(40) 0.0493(26) -0.2055(37)
H18 H 0.0547(52) 0.0783(28) -0.5274(26)
Ni1C Ni -0.1214(1) 0.2195(1) -0.4125(1)
O2C O -0.1922(3) 0.1756(1) -0.5996(2)
Cl1 Cl 0.6892(1) 0.5679(1) 0.2195(1)
O3 O 0.5529(4) 0.5456(2) 0.1177(3)
O4 O 0.6540(4) 0.5484(2) 0.3343(3)
O5 O 0.8355(4) 0.5293(3) 0.2112(3)
O6 O 0.7098(5) 0.6499(2) 0.2147(4)
loop_
_geom_bond_atom_site_label_1
_geom_bond_atom_site_label_2
_geom_bond_site_symmetry_1
_geom_bond_site_symmetry_2
Ni1 O2 1_555 1_555
Cl1 O3 1_555 1_555
N1 C1 1_555 1_555
N2 C2 1_555 1_555
N3 C4 1_555 1_555
N4 C7 1_555 1_555
N5 C8 1_555 1_555
O1 C6 1_555 1_555
O2 C6 1_555 1_555
O4 Cl1 1_555 1_555
O5 Cl1 1_555 1_555
O6 Cl1 1_555 1_555
C1 C2 1_555 1_555
C2 H8 1_555 1_555
C3 N1 1_555 1_555
C4 C3 1_555 1_555
C5 N1 1_555 1_555
C6 C5 1_555 1_555
C7 C8 1_555 1_555
C8 H17 1_555 1_555
C9 N4 1_555 1_555
H1 N2 1_555 1_555
H2 N2 1_555 1_555
H3 N3 1_555 1_555
H4 N3 1_555 1_555
H5 N5 1_555 1_555
H6 C1 1_555 1_555
H7 C1 1_555 1_555
H9 C2 1_555 1_555
H10 C3 1_555 1_555
H11 C3 1_555 1_555
H12 C4 1_555 1_555
H13 C4 1_555 1_555
H14 C5 1_555 1_555
H15 C5 1_555 1_555
H16 C7 1_555 1_555
H18 C9 1_555 1_555
Ni1C N1 1_555 1_555
O2C Ni1C 1_555 1_555
N2 Ni1C 1_555 1_555
N3 Ni1C 1_555 1_555
N4 Ni1C 1_555 1_555
N5 C9 1_555 1_555
O1 Ni1C 1_555 1_555

#END
