
#######################################################################
#
#                 Cambridge Crystallographic Data Centre
#                                CCDC 
#
#######################################################################
#
# If this CIF has been generated from an entry in the Cambridge 
# Structural Database, then it will include bibliographic, chemical, 
# crystal, experimental, refinement or atomic coordinate data resulting 
# from the CCDC's data processing and validation procedures.
#
#######################################################################

data_PEXNAI
_symmetry_cell_setting           orthorhombic
_symmetry_space_group_name_H-M   'P b c n'
_symmetry_Int_Tables_number      60
_space_group_name_Hall           '-P 2n 2ab'
loop_
_symmetry_equiv_pos_site_id
_symmetry_equiv_pos_as_xyz
1 x,y,z
2 1/2-x,1/2-y,1/2+z
3 -x,y,1/2-z
4 1/2+x,1/2-y,-z
5 -x,-y,-z
6 1/2+x,1/2+y,1/2-z
7 x,-y,1/2+z
8 1/2-x,1/2+y,z
_cell_length_a                   13.6213(16)
_cell_length_b                   7.5799(9)
_cell_length_c                   14.7671(19)
_cell_angle_alpha                90
_cell_angle_beta                 90
_cell_angle_gamma                90
_cell_volume                     1524.67
loop_
_atom_site_label
_atom_site_type_symbol
_atom_site_fract_x
_atom_site_fract_y
_atom_site_fract_z
Mn1 Mn 0.5000 0.11115(13) 0.7500
N1 N 0.4432(4) 0.3195(6) 0.8409(4)
N2 N 0.4082(4) 0.6104(6) 0.9010(4)
N3 N 0.4425(4) 0.9036(6) 0.8396(3)
C1 C 0.4294(4) 0.4617(8) 0.8644(4)
C2 C 0.4296(4) 0.7620(8) 0.8636(4)
N4 N 0.3564(3) 0.1093(6) 0.6729(3)
N5 N 0.1812(4) 0.1091(8) 0.6748(4)
C3 C 0.2689(6) 0.1163(8) 0.7118(5)
H1 H 0.2696 0.1281 0.7745
C4 C 0.1823(6) 0.0980(11) 0.5840(5)
H2 H 0.1229 0.0951 0.5529
C5 C 0.2658(5) 0.0911(10) 0.5371(5)
H3 H 0.2648 0.0813 0.4743
C6 C 0.3516(5) 0.0986(10) 0.5819(5)
H4 H 0.4098 0.0962 0.5489
Mn1_2 Mn 0.5000 1.11115(13) 0.7500
N1B N 0.5568(4) 0.3195(6) 0.6591(4)
N2B N 0.5918(4) 0.6104(6) 0.5990(4)
N3B N 0.5575(4) 0.9036(6) 0.6604(3)
N3_2 N 0.4425(4) -0.0964(6) 0.8396(3)
N3B_2 N 0.5575(4) -0.0964(6) 0.6604(3)
C1B C 0.5706(4) 0.4617(8) 0.6356(4)
C2B C 0.5704(4) 0.7620(8) 0.6364(4)
N4B N 0.6436(3) 0.1093(6) 0.8271(3)
N5B N 0.8188(4) 0.1091(8) 0.8252(4)
C3B C 0.7311(6) 0.1163(8) 0.7882(5)
H1B H 0.7304 0.1281 0.7255
C4B C 0.8177(6) 0.0980(11) 0.9160(5)
H2B H 0.8771 0.0951 0.9471
C5B C 0.7342(5) 0.0911(10) 0.9629(5)
H3B H 0.7352 0.0813 1.0257
C6B C 0.6484(5) 0.0986(10) 0.9181(5)
H4B H 0.5902 0.0962 0.9511
loop_
_geom_bond_atom_site_label_1
_geom_bond_atom_site_label_2
_geom_bond_site_symmetry_1
_geom_bond_site_symmetry_2
Mn1 N1 1_555 1_555
N1 C1 1_555 1_555
N2 C1 1_555 1_555
N3 C2 1_555 1_555
C2 N2 1_555 1_555
N4 Mn1 1_555 1_555
N5 C3 1_555 1_555
C3 N4 1_555 1_555
H1 C3 1_555 1_555
C4 N5 1_555 1_555
H2 C4 1_555 1_555
C5 C4 1_555 1_555
H3 C5 1_555 1_555
C6 N4 1_555 1_555
H4 C6 1_555 1_555
Mn1_2 N3 1_555 1_555
N1B Mn1 1_555 1_555
N2B C1B 1_555 1_555
N3B Mn1_2 1_555 1_555
N3_2 Mn1 1_555 1_555
N3B_2 Mn1 1_555 1_555
C1B N1B 1_555 1_555
C2B N2B 1_555 1_555
N4B Mn1 1_555 1_555
N5B C3B 1_555 1_555
C3B N4B 1_555 1_555
H1B C3B 1_555 1_555
C4B N5B 1_555 1_555
H2B C4B 1_555 1_555
C5B C4B 1_555 1_555
H3B C5B 1_555 1_555
C6B N4B 1_555 1_555
H4B C6B 1_555 1_555
C5 C6 1_555 1_555
N3B C2B 1_555 1_555
C5B C6B 1_555 1_555

#END
