
#######################################################################
#
#                 Cambridge Crystallographic Data Centre
#                                CCDC 
#
#######################################################################
#
# If this CIF has been generated from an entry in the Cambridge 
# Structural Database, then it will include bibliographic, chemical, 
# crystal, experimental, refinement or atomic coordinate data resulting 
# from the CCDC's data processing and validation procedures.
#
#######################################################################

data_PEXRIV
_symmetry_cell_setting           monoclinic
_symmetry_space_group_name_H-M   'C 2/c'
_symmetry_Int_Tables_number      15
_space_group_name_Hall           '-C 2yn'
loop_
_symmetry_equiv_pos_site_id
_symmetry_equiv_pos_as_xyz
1 x,y,z
2 -x,y,1/2-z
3 1/2+x,1/2+y,z
4 1/2-x,1/2+y,1/2-z
5 -x,-y,-z
6 x,-y,1/2+z
7 1/2-x,1/2-y,-z
8 1/2+x,1/2-y,1/2+z
_cell_length_a                   26.4242(16)
_cell_length_b                   18.8983(11)
_cell_length_c                   19.8907(11)
_cell_angle_alpha                90
_cell_angle_beta                 104.698(2)
_cell_angle_gamma                90
_cell_volume                     9607.83
loop_
_atom_site_label
_atom_site_type_symbol
_atom_site_fract_x
_atom_site_fract_y
_atom_site_fract_z
Cl2 Cl 0.32545(7) 0.15345(10) -0.20404(11)
Cl3 Cl 0.31616(11) -0.03621(13) -0.25236(18)
Cl4 Cl 0.44292(14) 0.05519(19) -0.2076(4)
Cl5 Cl 0.3730(4) 0.0301(4) -0.0695(4)
Zn1 Zn 0.36487(6) 0.04914(7) -0.19403(15)
O1 O -0.01319(18) 0.2003(3) -0.0046(2)
O2 O 0.0389(2) 0.1354(2) -0.0971(2)
O3 O 0.11378(19) 0.1069(2) 0.0212(2)
O4 O 0.15122(18) 0.2593(3) 0.0633(3)
O5 O 0.0562(2) 0.3259(3) 0.0387(3)
Tm1 Tm 0.072736(9) 0.214606(13) -0.005053(12)
C1 C 0.1443(2) 0.2252(3) -0.1269(3)
C2 C 0.1823(2) 0.2058(3) -0.2188(3)
H1 H 0.2202 0.2124 -0.2140
C3 C 0.1520(2) 0.2765(3) -0.2295(3)
H2 H 0.1751 0.3167 -0.2337
C4 C 0.1182(2) 0.2016(3) -0.3246(3)
C5 C 0.1083(2) 0.3449(3) -0.1504(3)
H3 H 0.1251 0.3867 -0.1644
H4 H 0.1145 0.3461 -0.0997
C6 C 0.0787(2) 0.3197(3) -0.3311(3)
H5 H 0.0682 0.3073 -0.3805
H6 H 0.0990 0.3636 -0.3267
C7 C 0.0164(2) 0.3180(3) -0.1527(3)
C8 C 0.0296(2) 0.3785(3) -0.2489(3)
H7 H 0.0428 0.4267 -0.2541
C9 C 0.1846(2) 0.1072(3) -0.3042(3)
H8 H 0.1707 0.1021 -0.3546
H9 H 0.2219 0.1186 -0.2952
C10 C 0.2023(2) 0.1226(3) -0.1156(3)
H10 H 0.1975 0.1236 -0.0683
H11 H 0.2394 0.1311 -0.1125
C11 C 0.1620(2) -0.0183(3) -0.3089(3)
C12 C 0.2094(2) 0.0242(3) -0.2000(3)
H12 H 0.2469 0.0363 -0.1930
C13 C 0.2009(2) -0.0572(3) -0.1959(3)
H13 H 0.2343 -0.0833 -0.1798
C14 C 0.1649(2) 0.0023(3) -0.1147(3)
C15 C 0.1685(2) -0.1475(3) -0.2896(3)
H14 H 0.2001 -0.1738 -0.2667
H15 H 0.1660 -0.1474 -0.3396
C16 C 0.1589(2) -0.1273(3) -0.1148(3)
H16 H 0.1908 -0.1560 -0.1057
H17 H 0.1510 -0.1180 -0.0700
C17 C 0.0804(2) -0.2018(3) -0.3280(3)
C18 C 0.1239(2) -0.2165(3) -0.2113(3)
H18 H 0.1554 -0.2462 -0.1940
C19 C 0.0733(2) -0.2613(3) -0.2270(3)
H19 H 0.0811 -0.3124 -0.2205
C20 C 0.0715(2) -0.1812(3) -0.1386(3)
C21 C -0.0014(2) -0.2707(3) -0.3372(3)
H20 H -0.0033 -0.3211 -0.3265
H21 H -0.0045 -0.2666 -0.3872
N1 N 0.17155(19) 0.1788(3) -0.1557(2)
N2 N 0.1325(2) 0.2829(2) -0.1695(3)
N3 N 0.15759(19) 0.1653(2) -0.2798(2)
N4 N 0.11171(19) 0.2648(3) -0.2943(3)
N5 N 0.05264(18) 0.3490(2) -0.1812(2)
N6 N 0.03164(18) 0.3328(3) -0.3072(2)
N7 N 0.1788(2) 0.0408(3) -0.2710(2)
N8 N 0.1735(2) -0.0762(3) -0.2648(3)
N9 N 0.18802(19) 0.0534(3) -0.1454(2)
N10 N 0.12355(18) -0.1839(3) -0.2776(2)
N11 N 0.04867(18) -0.2442(3) -0.3002(2)
N12 N 0.11627(19) -0.1673(3) -0.1582(2)
N13 N 0.04507(19) -0.2353(3) -0.1785(2)
N14 N 0.1687(2) -0.0603(3) -0.1453(2)
O6 O 0.13354(17) 0.2179(2) -0.0706(2)
O7 O 0.02668(16) 0.2839(2) -0.0982(2)
O8 O 0.09323(18) 0.1808(2) -0.3815(2)
O9 O 0.1399(2) -0.0196(3) -0.3697(2)
O10 O 0.07088(16) -0.1845(2) -0.3899(2)
O11 O 0.05704(18) -0.1501(2) -0.0926(2)
O12 O 0.14534(19) 0.0121(2) -0.0652(2)
C1A C -0.1443(2) 0.2252(3) -0.3731(3)
C2A C -0.1823(2) 0.2058(3) -0.2812(3)
H1A H -0.2202 0.2124 -0.2860
C3A C -0.1520(2) 0.2765(3) -0.2705(3)
H2A H -0.1751 0.3167 -0.2663
C4A C -0.1182(2) 0.2016(3) -0.1754(3)
C5A C -0.1083(2) 0.3449(3) -0.3496(3)
H3A H -0.1251 0.3867 -0.3356
H4A H -0.1145 0.3461 -0.4003
C6A C -0.0787(2) 0.3197(3) -0.1689(3)
H5A H -0.0682 0.3073 -0.1195
H6A H -0.0990 0.3636 -0.1733
C7A C -0.0164(2) 0.3180(3) -0.3473(3)
C8A C -0.0296(2) 0.3785(3) -0.2511(3)
H7A H -0.0428 0.4267 -0.2459
C9A C -0.1846(2) 0.1072(3) -0.1958(3)
H8A H -0.1707 0.1021 -0.1454
H9A H -0.2219 0.1186 -0.2048
C10A C -0.2023(2) 0.1226(3) -0.3844(3)
H10A H -0.1975 0.1236 -0.4317
H11A H -0.2394 0.1311 -0.3875
C11A C -0.1620(2) -0.0183(3) -0.1911(3)
C12A C -0.2094(2) 0.0242(3) -0.3000(3)
H12A H -0.2469 0.0363 -0.3070
C13A C -0.2009(2) -0.0572(3) -0.3041(3)
H13A H -0.2343 -0.0833 -0.3202
C14A C -0.1649(2) 0.0023(3) -0.3853(3)
C15A C -0.1685(2) -0.1475(3) -0.2104(3)
H14A H -0.2001 -0.1738 -0.2333
H15A H -0.1660 -0.1474 -0.1604
C16A C -0.1589(2) -0.1273(3) -0.3852(3)
H16A H -0.1908 -0.1560 -0.3943
H17A H -0.1510 -0.1180 -0.4300
C17A C -0.0804(2) -0.2018(3) -0.1720(3)
C18A C -0.1239(2) -0.2165(3) -0.2887(3)
H18A H -0.1554 -0.2462 -0.3060
C19A C -0.0733(2) -0.2613(3) -0.2730(3)
H19A H -0.0811 -0.3124 -0.2795
C20A C -0.0715(2) -0.1812(3) -0.3614(3)
C21A C 0.0014(2) -0.2707(3) -0.1628(3)
H20A H 0.0033 -0.3211 -0.1735
H21A H 0.0045 -0.2666 -0.1128
N1A N -0.17155(19) 0.1788(3) -0.3443(2)
N2A N -0.1325(2) 0.2829(2) -0.3305(3)
N3A N -0.15759(19) 0.1653(2) -0.2202(2)
N4A N -0.11171(19) 0.2648(3) -0.2057(3)
N5A N -0.05264(18) 0.3490(2) -0.3188(2)
N6A N -0.03164(18) 0.3328(3) -0.1928(2)
N7A N -0.1788(2) 0.0408(3) -0.2290(2)
N8A N -0.1735(2) -0.0762(3) -0.2352(3)
N9A N -0.18802(19) 0.0534(3) -0.3546(2)
N10A N -0.12355(18) -0.1839(3) -0.2224(2)
N11A N -0.04867(18) -0.2442(3) -0.1998(2)
N12A N -0.11627(19) -0.1673(3) -0.3418(2)
N13A N -0.04507(19) -0.2353(3) -0.3215(2)
N14A N -0.1687(2) -0.0603(3) -0.3547(2)
O6A O -0.13354(17) 0.2179(2) -0.4294(2)
O7A O -0.02668(16) 0.2839(2) -0.4018(2)
O8A O -0.09323(18) 0.1808(2) -0.1185(2)
O9A O -0.1399(2) -0.0196(3) -0.1303(2)
O10A O -0.07088(16) -0.1845(2) -0.1101(2)
O11A O -0.05704(18) -0.1501(2) -0.4074(2)
O12A O -0.14534(19) 0.0121(2) -0.4348(2)
O1A O 0.01319(18) 0.2003(3) -0.4954(2)
O2A O -0.0389(2) 0.1354(2) -0.4029(2)
O3A O -0.11378(19) 0.1069(2) -0.5212(2)
O4A O -0.15122(18) 0.2593(3) -0.5633(3)
O5A O -0.0562(2) 0.3259(3) -0.5387(3)
Tm1A Tm -0.072736(9) 0.214606(13) -0.494947(12)
Tm1D Tm -0.072736(9) -0.214606(13) 0.005053(12)
Tm1E Tm 0.072736(9) -0.214606(13) -0.505053(12)
O10D O -0.07088(16) 0.1845(2) -0.6101(2)
O10E O 0.07088(16) 0.1845(2) 0.1101(2)
Cl1 Cl 0.22365(11) 0.27835(15) -0.35700(16)
loop_
_geom_bond_atom_site_label_1
_geom_bond_atom_site_label_2
_geom_bond_site_symmetry_1
_geom_bond_site_symmetry_2
Cl2 Zn1 1_555 1_555
Cl3 Zn1 1_555 1_555
Cl4 Zn1 1_555 1_555
Cl5 Zn1 1_555 1_555
O1 Tm1 1_555 1_555
O2 Tm1 1_555 1_555
O3 Tm1 1_555 1_555
O4 Tm1 1_555 1_555
O5 Tm1 1_555 1_555
Tm1 O6 1_555 1_555
C1 N1 1_555 1_555
C2 H1 1_555 1_555
C3 C2 1_555 1_555
H2 C3 1_555 1_555
C4 N3 1_555 1_555
C5 H3 1_555 1_555
H4 C5 1_555 1_555
C6 H5 1_555 1_555
H6 C6 1_555 1_555
C7 N5 1_555 1_555
C8 H7 1_555 1_555
C9 H8 1_555 1_555
H9 C9 1_555 1_555
C10 H10 1_555 1_555
H11 C10 1_555 1_555
C11 N7 1_555 1_555
C12 H12 1_555 1_555
C13 C12 1_555 1_555
H13 C13 1_555 1_555
C14 N9 1_555 1_555
C15 H14 1_555 1_555
H15 C15 1_555 1_555
C16 H16 1_555 1_555
H17 C16 1_555 1_555
C17 N10 1_555 1_555
C18 H18 1_555 1_555
C19 C18 1_555 1_555
H19 C19 1_555 1_555
C20 N12 1_555 1_555
C21 H20 1_555 1_555
H21 C21 1_555 1_555
N1 C2 1_555 1_555
N2 C1 1_555 1_555
N3 C2 1_555 1_555
N4 C3 1_555 1_555
N5 C5 1_555 1_555
N6 C6 1_555 1_555
N7 C9 1_555 1_555
N8 C11 1_555 1_555
N9 C10 1_555 1_555
N10 C15 1_555 1_555
N11 C17 1_555 1_555
N12 C16 1_555 1_555
N13 C19 1_555 1_555
N14 C13 1_555 1_555
O6 C1 1_555 1_555
O7 Tm1 1_555 1_555
O8 C4 1_555 1_555
O9 C11 1_555 1_555
O10 C17 1_555 1_555
O11 C20 1_555 1_555
O12 C14 1_555 1_555
C1A N1A 1_555 1_555
C2A H1A 1_555 1_555
C3A C2A 1_555 1_555
H2A C3A 1_555 1_555
C4A N3A 1_555 1_555
C5A H3A 1_555 1_555
H4A C5A 1_555 1_555
C6A H5A 1_555 1_555
H6A C6A 1_555 1_555
C7A N6 1_555 1_555
C8A C8 1_555 1_555
H7A C8A 1_555 1_555
C9A H8A 1_555 1_555
H9A C9A 1_555 1_555
C10A H10A 1_555 1_555
H11A C10A 1_555 1_555
C11A N7A 1_555 1_555
C12A H12A 1_555 1_555
C13A C12A 1_555 1_555
H13A C13A 1_555 1_555
C14A N9A 1_555 1_555
C15A H14A 1_555 1_555
H15A C15A 1_555 1_555
C16A H16A 1_555 1_555
H17A C16A 1_555 1_555
C17A N10A 1_555 1_555
C18A H18A 1_555 1_555
C19A C18A 1_555 1_555
H19A C19A 1_555 1_555
C20A N12A 1_555 1_555
C21A N13 1_555 1_555
H20A C21A 1_555 1_555
H21A C21A 1_555 1_555
N1A C2A 1_555 1_555
N2A C1A 1_555 1_555
N3A C2A 1_555 1_555
N4A C3A 1_555 1_555
N5A C5A 1_555 1_555
N6A C7 1_555 1_555
N7A C9A 1_555 1_555
N8A C11A 1_555 1_555
N9A C10A 1_555 1_555
N10A C15A 1_555 1_555
N11A C17A 1_555 1_555
N12A C16A 1_555 1_555
N13A C21 1_555 1_555
N14A C13A 1_555 1_555
O6A C1A 1_555 1_555
O7A C7A 1_555 1_555
O8A C4A 1_555 1_555
O9A C11A 1_555 1_555
O10A C17A 1_555 1_555
O11A C20A 1_555 1_555
O12A C14A 1_555 1_555
O1A Tm1A 1_555 1_555
O2A Tm1A 1_555 1_555
O3A Tm1A 1_555 1_555
O4A Tm1A 1_555 1_555
O5A Tm1A 1_555 1_555
Tm1A O6A 1_555 1_555
Tm1D O10A 1_555 1_555
Tm1E O10 1_555 1_555
O10D Tm1A 1_555 1_555
O10E Tm1 1_555 1_555
C3 N2 1_555 1_555
C4 N4 1_555 1_555
C5 N2 1_555 1_555
C6 N4 1_555 1_555
C7 O7 1_555 1_555
C8 N5 1_555 1_555
C8 N6 1_555 1_555
C9 N3 1_555 1_555
C10 N1 1_555 1_555
C12 N7 1_555 1_555
C12 N9 1_555 1_555
C13 N8 1_555 1_555
C14 N14 1_555 1_555
C15 N8 1_555 1_555
C16 N14 1_555 1_555
C18 N10 1_555 1_555
C18 N12 1_555 1_555
C19 N11 1_555 1_555
C20 N13 1_555 1_555
C21 N11 1_555 1_555
C3A N2A 1_555 1_555
C4A N4A 1_555 1_555
C5A N2A 1_555 1_555
C6A N4A 1_555 1_555
C6A N6A 1_555 1_555
C7A N5A 1_555 1_555
C8A N5A 1_555 1_555
C8A N6A 1_555 1_555
C9A N3A 1_555 1_555
C10A N1A 1_555 1_555
C12A N7A 1_555 1_555
C12A N9A 1_555 1_555
C13A N8A 1_555 1_555
C14A N14A 1_555 1_555
C15A N8A 1_555 1_555
C16A N14A 1_555 1_555
C18A N10A 1_555 1_555
C18A N12A 1_555 1_555
C19A N11A 1_555 1_555
C19A N13A 1_555 1_555
C20A N13A 1_555 1_555
C21A N11A 1_555 1_555
O7A Tm1A 1_555 1_555

#END
