
#######################################################################
#
#                 Cambridge Crystallographic Data Centre
#                                CCDC 
#
#######################################################################
#
# If this CIF has been generated from an entry in the Cambridge 
# Structural Database, then it will include bibliographic, chemical, 
# crystal, experimental, refinement or atomic coordinate data resulting 
# from the CCDC's data processing and validation procedures.
#
#######################################################################

data_PEXSEQ
_symmetry_cell_setting           orthorhombic
_symmetry_space_group_name_H-M   'P b a m'
_symmetry_Int_Tables_number      55
_space_group_name_Hall           '-P 2 2ab'
loop_
_symmetry_equiv_pos_site_id
_symmetry_equiv_pos_as_xyz
1 x,y,z
2 -x,-y,z
3 1/2+x,1/2-y,-z
4 1/2-x,1/2+y,-z
5 -x,-y,-z
6 x,y,-z
7 1/2-x,1/2+y,z
8 1/2+x,1/2-y,z
_cell_length_a                   14.855(5)
_cell_length_b                   22.510(3)
_cell_length_c                   13.310(8)
_cell_angle_alpha                90
_cell_angle_beta                 90
_cell_angle_gamma                90
_cell_volume                     4450.68
loop_
_atom_site_label
_atom_site_type_symbol
_atom_site_fract_x
_atom_site_fract_y
_atom_site_fract_z
S1 S 0.9387(2) -0.7592(1) 0.3713(3)
S2 S 0.9542(2) -0.6262(1) 0.3901(3)
S3 S 0.8646(2) -0.4938(1) 0.6101(3)
S4 S 0.7262(2) -0.3985(1) 0.6279(3)
S9 S 1.0809(4) -0.9109(3) 0.5000
F1 F 1.140(1) -0.8037(8) 0.5000
F2 F 1.2218(9) -0.8604(5) 0.578(1)
O1 O 1.0309(8) -0.8989(5) 0.5875(9)
O2 O 1.132(1) -0.9628(8) 0.5000
Ag1 Ag 0.8872(1) -0.84639(6) 0.5000
C1 C 0.838(1) -0.7421(6) 0.291(1)
C2 C 0.9393(8) -0.6958(4) 0.4492(9)
C3 C 0.924(1) -0.5859(7) 0.5000
C4 C 0.888(1) -0.5329(7) 0.5000
C5 C 0.7886(8) -0.4459(4) 0.5504(9)
C6 C 0.666(1) -0.4507(7) 0.699(1)
C13 C 1.1637 -0.8572 0.5000
O1E O 1.0309(8) -0.8989(5) 0.4125(9)
S1E S 0.9387(2) -0.7592(1) 0.6287(3)
S4F S 0.7738(2) -0.8985(1) 0.6279(3)
C2E C 0.9393(8) -0.6958(4) 0.5508(9)
S2E S 0.9542(2) -0.6262(1) 0.6099(3)
S3E S 0.8646(2) -0.4938(1) 0.3899(3)
F2E F 1.2218(9) -0.8604(5) 0.422(1)
S4C S 0.7738(2) -0.8985(1) 0.3721(3)
C5E C 0.7886(8) -0.4459(4) 0.4496(9)
C1E C 0.838(1) -0.7421(6) 0.709(1)
Ag1C Ag 0.6128(1) -0.34639(6) 0.5000
S4E S 0.7262(2) -0.3985(1) 0.3721(3)
C6E C 0.666(1) -0.4507(7) 0.301(1)
S5 S -0.9636(2) -0.6890(1) -0.1270(3)
S6 S -0.9237(2) -0.5593(1) -0.1106(3)
S7 S -0.8245(2) -0.4295(1) 0.1103(3)
S8 S -0.6783(3) -0.3397(2) 0.1283(3)
S10 S -1.1329(4) -0.8323(3) 0.0000
F3 F -1.097(1) -0.9397(9) 0.0000
F4 F -1.209(1) -0.9248(6) -0.080(1)
O3 O -1.090(1) -0.8240(7) -0.089(1)
O4 O -1.226(2) -0.805(1) 0.0000
Ag2 Ag -0.9248(1) -0.77930(6) 0.0000
C7 C -0.8644(10) -0.6894(6) -0.211(1)
C8 C -0.9357(7) -0.6282(4) -0.0501(9)
C9 C -0.889(1) -0.5218(6) 0.0000
C10 C -0.852(1) -0.4681(6) 0.0000
C11 C -0.7440(7) -0.3840(5) 0.0519(9)
C12 C -0.619(2) -0.392(1) 0.189(2)
C14 C -1.1578 -0.9026 0.0000
O3E O -1.090(1) -0.8240(7) 0.089(1)
S5E S -0.9636(2) -0.6890(1) 0.1270(3)
S8F S -0.8217(3) -0.8397(2) 0.1283(3)
C8E C -0.9357(7) -0.6282(4) 0.0501(9)
S6E S -0.9237(2) -0.5593(1) 0.1106(3)
S7E S -0.8245(2) -0.4295(1) -0.1103(3)
F4E F -1.209(1) -0.9248(6) 0.080(1)
S8C S -0.8217(3) -0.8397(2) -0.1283(3)
C11E C -0.7440(7) -0.3840(5) -0.0519(9)
C7E C -0.8644(10) -0.6894(6) 0.211(1)
Ag2C Ag -0.5752(1) -0.27930(6) 0.0000
S8E S -0.6783(3) -0.3397(2) -0.1283(3)
C12E C -0.619(2) -0.392(1) -0.189(2)
loop_
_geom_bond_atom_site_label_1
_geom_bond_atom_site_label_2
_geom_bond_site_symmetry_1
_geom_bond_site_symmetry_2
S1 Ag1 1_555 1_555
S2 C2 1_555 1_555
S3 C4 1_555 1_555
S4 C5 1_555 1_555
S5 Ag2 1_555 1_555
S6 C8 1_555 1_555
S7 C10 1_555 1_555
S8 C11 1_555 1_555
S9 O1 1_555 1_555
S10 O3 1_555 1_555
F1 C13 1_555 1_555
F2 C13 1_555 1_555
F3 C14 1_555 1_555
F4 C14 1_555 1_555
O1 Ag1 1_555 1_555
O2 S9 1_555 1_555
O3 Ag2 1_555 1_555
O4 S10 1_555 1_555
Ag1 O1E 1_555 1_555
Ag2 O3E 1_555 1_555
C1 S1 1_555 1_555
C2 S1 1_555 1_555
C3 S2 1_555 1_555
C4 C3 1_555 1_555
C5 S3 1_555 1_555
C6 S4 1_555 1_555
C7 S5 1_555 1_555
C8 S5 1_555 1_555
C9 S6 1_555 1_555
C10 C9 1_555 1_555
C11 S7 1_555 1_555
C12 S8 1_555 1_555
C13 S9 1_555 1_555
C14 S10 1_555 1_555
O1E S9 1_555 1_555
O3E S10 1_555 1_555
S1E Ag1 1_555 1_555
S4F Ag1 1_555 1_555
S5E Ag2 1_555 1_555
S8F Ag2 1_555 1_555
C2E C2 1_555 1_555
S2E C3 1_555 1_555
S3E C4 1_555 1_555
C8E C8 1_555 1_555
S6E C9 1_555 1_555
S7E C10 1_555 1_555
F2E C13 1_555 1_555
F4E C14 1_555 1_555
S4C Ag1 1_555 1_555
C5E C5 1_555 1_555
S8C Ag2 1_555 1_555
C11E C11 1_555 1_555
C1E S1E 1_555 1_555
C7E S5E 1_555 1_555
Ag1C S4 1_555 1_555
S4E C5E 1_555 1_555
Ag2C S8 1_555 1_555
S8E C11E 1_555 1_555
C6E S4E 1_555 1_555
C12E S8E 1_555 1_555
S1E C2E 1_555 1_555
S5E C8E 1_555 1_555
C2E S2E 1_555 1_555
S3E C5E 1_555 1_555
C8E S6E 1_555 1_555
S7E C11E 1_555 1_555
Ag1C S4E 1_555 1_555
Ag2C S8E 1_555 1_555

#END
