
#######################################################################
#
#                 Cambridge Crystallographic Data Centre
#                                CCDC 
#
#######################################################################
#
# If this CIF has been generated from an entry in the Cambridge 
# Structural Database, then it will include bibliographic, chemical, 
# crystal, experimental, refinement or atomic coordinate data resulting 
# from the CCDC's data processing and validation procedures.
#
#######################################################################

data_PEXSIV
_symmetry_cell_setting           monoclinic
_symmetry_space_group_name_H-M   'C 2/c'
_symmetry_Int_Tables_number      15
_space_group_name_Hall           '-C 2yn'
loop_
_symmetry_equiv_pos_site_id
_symmetry_equiv_pos_as_xyz
1 x,y,z
2 1/2+x,1/2+y,z
3 -x,y,1/2-z
4 1/2-x,1/2+y,1/2-z
5 -x,-y,-z
6 1/2-x,1/2-y,-z
7 x,-y,1/2+z
8 1/2+x,1/2-y,1/2+z
_cell_length_a                   16.338(4)
_cell_length_b                   9.1565(14)
_cell_length_c                   14.328(3)
_cell_angle_alpha                90
_cell_angle_beta                 120.079(5)
_cell_angle_gamma                90
_cell_volume                     1854.81
loop_
_atom_site_label
_atom_site_type_symbol
_atom_site_fract_x
_atom_site_fract_y
_atom_site_fract_z
Cd1 Cd 0.0000 0.0000 0.5000
O1 O 0.1650(3) 0.2787(4) 0.6469(3)
O2 O -0.0836(3) -0.1510(4) 0.5534(3)
H1 H -0.1069 -0.1610 0.5944
H2 H -0.1197 -0.1852 0.4907
O3 O 0.1063(2) 0.0749(3) 0.6761(2)
N1 N 0.0774(3) 0.2121(4) 1.0109(3)
N2 N -0.1317(3) -0.4386(4) -0.0586(3)
H5 H -0.1466 -0.5215 -0.0944
C1 C 0.1388(3) 0.2033(5) 0.7020(3)
C2 C 0.1451(3) 0.2710(5) 0.8006(3)
C3 C 0.1100(3) 0.1942(5) 0.8565(3)
H6 H 0.0864 0.0977 0.8358
C4 C 0.1101(3) 0.2618(5) 0.9433(3)
C5 C -0.0920(3) -0.3206(6) -0.0767(4)
H7 H -0.0761 -0.3169 -0.1320
C6 C -0.1445(3) -0.4037(5) 0.0273(4)
C7 C -0.1818(3) -0.4816(5) 0.0810(4)
H8 H -0.2064 -0.5774 0.0596
C8 C -0.1810(3) -0.4128(5) 0.1663(4)
H9 H -0.2058 -0.4630 0.2047
Cd1F Cd 0.0000 0.0000 0.0000
Cd1F_2 Cd 0.0000 0.0000 1.0000
O1D O -0.1650(3) -0.2787(4) 0.3531(3)
O2D O 0.0836(3) 0.1510(4) 0.4466(3)
H1D H 0.1069 0.1610 0.4056
H2D H 0.1197 0.1852 0.5093
O3D O -0.1063(2) -0.0749(3) 0.3239(2)
N1F N 0.0774(3) -0.2121(4) 0.5109(3)
N1B N -0.0774(3) 0.2121(4) 0.4891(3)
N1D N -0.0774(3) -0.2121(4) -0.0109(3)
N2D N 0.1317(3) 0.4386(4) 1.0586(3)
H5D H 0.1466 0.5215 1.0944
C1D C -0.1388(3) -0.2033(5) 0.2980(3)
C2D C -0.1451(3) -0.2710(5) 0.1994(3)
C3D C -0.1100(3) -0.1942(5) 0.1435(3)
H6D H -0.0864 -0.0977 0.1642
C4D C -0.1101(3) -0.2618(5) 0.0567(3)
C5D C 0.0920(3) 0.3206(6) 1.0767(4)
H7D H 0.0761 0.3169 1.1320
C6D C 0.1445(3) 0.4037(5) 0.9727(4)
C7D C 0.1818(3) 0.4816(5) 0.9190(4)
H8D H 0.2064 0.5774 0.9404
C8D C 0.1810(3) 0.4128(5) 0.8337(4)
H9D H 0.2058 0.4630 0.7953
O4 O 0.3495(3) 0.3355(4) -0.3087(3)
H3 H 0.2935 0.3146 -0.3237
H4 H 0.3575 0.4148 -0.2743
loop_
_geom_bond_atom_site_label_1
_geom_bond_atom_site_label_2
_geom_bond_site_symmetry_1
_geom_bond_site_symmetry_2
Cd1 O2 1_555 1_555
O1 C1 1_555 1_555
O2 H1 1_555 1_555
H2 O2 1_555 1_555
O3 Cd1 1_555 1_555
O4 H3 1_555 1_555
H4 O4 1_555 1_555
N1 C4 1_555 1_555
N2 H5 1_555 1_555
C1 O3 1_555 1_555
C2 C1 1_555 1_555
C3 C2 1_555 1_555
H6 C3 1_555 1_555
C4 C3 1_555 1_555
C5 N2 1_555 1_555
H7 C5 1_555 1_555
C6 N2 1_555 1_555
C7 C6 1_555 1_555
H8 C7 1_555 1_555
C8 C7 1_555 1_555
H9 C8 1_555 1_555
Cd1F N1D 1_555 1_555
Cd1F_2 N1 1_555 1_555
O1D C1D 1_555 1_555
O2D Cd1 1_555 1_555
H1D O2D 1_555 1_555
H2D O2D 1_555 1_555
O3D Cd1 1_555 1_555
N1F Cd1 1_555 1_555
N1B Cd1 1_555 1_555
N1D C5 1_555 1_555
N2D H5D 1_555 1_555
C1D O3D 1_555 1_555
C2D C8 1_555 1_555
C3D C2D 1_555 1_555
H6D C3D 1_555 1_555
C4D C6 1_555 1_555
C5D N1 1_555 1_555
H7D C5D 1_555 1_555
C6D C4 1_555 1_555
C7D C6D 1_555 1_555
H8D C7D 1_555 1_555
C8D C2 1_555 1_555
H9D C8D 1_555 1_555
N1D C4D 1_555 1_555
N2D C5D 1_555 1_555
N2D C6D 1_555 1_555
C1D C2D 1_555 1_555
C3D C4D 1_555 1_555
C7D C8D 1_555 1_555

#END
