
#######################################################################
#
#                 Cambridge Crystallographic Data Centre
#                                CCDC 
#
#######################################################################
#
# If this CIF has been generated from an entry in the Cambridge 
# Structural Database, then it will include bibliographic, chemical, 
# crystal, experimental, refinement or atomic coordinate data resulting 
# from the CCDC's data processing and validation procedures.
#
#######################################################################

data_PEXSIW
_symmetry_cell_setting           triclinic
_symmetry_space_group_name_H-M   'P -1'
_symmetry_Int_Tables_number      2
_space_group_name_Hall           '-P 1'
loop_
_symmetry_equiv_pos_site_id
_symmetry_equiv_pos_as_xyz
1 x,y,z
2 -x,-y,-z
_cell_length_a                   16.9105(10)
_cell_length_b                   17.3140(10)
_cell_length_c                   20.3622(18)
_cell_angle_alpha                98.271(2)
_cell_angle_beta                 112.638(3)
_cell_angle_gamma                109.941(2)
_cell_volume                     4905.62
loop_
_atom_site_label
_atom_site_type_symbol
_atom_site_fract_x
_atom_site_fract_y
_atom_site_fract_z
Cl2 Cl 1.3207(4) -0.1979(3) 0.3914(3)
Cl3 Cl 0.5135(4) -0.0419(4) 0.0216(4)
Cl4 Cl 1.3371(5) 0.1857(6) 0.2321(6)
O1 O 0.8531(4) 0.1282(3) 0.0203(3)
O2 O 0.8907(3) -0.0827(3) 0.1295(3)
O3 O 0.7333(4) -0.0612(3) 0.1349(3)
O4 O 1.0300(4) 0.1157(4) 0.1653(3)
O5 O 0.9163(4) -0.0044(4) 0.0227(3)
O6 O 0.7213(4) 0.0823(4) 0.0895(4)
O7 O 1.7582(3) 0.3228(3) 0.5221(3)
O8 O 1.5991(4) 0.3299(3) 0.5381(3)
O9 O 1.4698(4) 0.3240(4) 0.3736(3)
O10 O 1.6547(4) 0.5009(3) 0.3948(3)
O11 O 1.7779(4) 0.4036(4) 0.4152(3)
O12 O 1.5818(4) 0.4714(4) 0.4964(4)
Nd1 Nd 0.85546(2) 0.04257(2) 0.108386(18)
Nd2 Nd 1.64270(2) 0.375726(19) 0.443233(17)
C1 C 0.9668(4) 0.0957(4) 0.3122(3)
C2 C 1.0701(4) 0.1338(3) 0.4376(3)
H1 H 1.0563 0.1012 0.4710
C3 C 1.0227(4) 0.1964(3) 0.4271(3)
H2 H 0.9875 0.1946 0.4565
C4 C 1.1864(4) 0.2751(4) 0.4794(3)
C5 C 0.8977(4) 0.2010(4) 0.3097(3)
H3 H 0.8436 0.1563 0.2637
H4 H 0.8727 0.2193 0.3421
C6 C 1.0954(4) 0.3619(4) 0.4645(3)
H5 H 1.0434 0.3554 0.4768
H6 H 1.1545 0.4061 0.5073
C7 C 0.9427(4) 0.2670(4) 0.2232(3)
C8 C 0.9860(4) 0.3618(4) 0.3368(3)
H7 H 0.9420 0.3744 0.3527
C9 C 1.0066(4) 0.4137(4) 0.2844(3)
H8 H 0.9686 0.4470 0.2721
C10 C 1.1463(4) 0.4577(3) 0.3953(3)
C11 C 0.9655(4) 0.3610(4) 0.1473(3)
H9 H 0.9193 0.3064 0.1067
H10 H 0.9381 0.4027 0.1417
C12 C 1.1571(5) 0.5404(4) 0.3080(4)
H11 H 1.2155 0.5819 0.3529
H12 H 1.1168 0.5701 0.2903
C13 C 1.0650(4) 0.3495(4) 0.0870(3)
C14 C 1.1165(4) 0.4849(4) 0.1696(3)
H13 H 1.0825 0.5215 0.1567
C15 C 1.1820(4) 0.4915(4) 0.1335(3)
H14 H 1.1829 0.5342 0.1059
C16 C 1.2724(5) 0.5336(4) 0.2639(3)
C17 C 1.1636(5) 0.3837(4) 0.0240(4)
H15 H 1.1713 0.4307 0.0019
H16 H 1.1102 0.3309 -0.0153
C18 C 1.3626(5) 0.5505(4) 0.1912(4)
H17 H 1.3589 0.5880 0.1594
H18 H 1.4154 0.5860 0.2413
C19 C 1.2492(5) 0.2940(4) 0.0222(3)
C20 C 1.3446(4) 0.4415(4) 0.0822(3)
H19 H 1.3476 0.4835 0.0540
C21 C 1.4074(4) 0.3953(3) 0.0794(3)
H20 H 1.4430 0.4177 0.0522
C22 C 1.4567(4) 0.4679(4) 0.2046(3)
C23 C 1.3619(5) 0.2421(4) 0.0084(3)
H21 H 1.4063 0.2702 -0.0101
H22 H 1.3037 0.1975 -0.0349
C24 C 1.5514(4) 0.3959(4) 0.1827(4)
H23 H 1.5963 0.4335 0.2345
H24 H 1.5830 0.4105 0.1518
C25 C 1.3587(4) 0.1162(4) 0.0557(3)
C26 C 1.5037(4) 0.2404(4) 0.1136(3)
H25 H 1.5445 0.2612 0.0898
C27 C 1.5177(4) 0.1667(3) 0.1439(3)
H26 H 1.5609 0.1491 0.1306
C28 C 1.5618(4) 0.2850(4) 0.2423(3)
C29 C 1.4010(5) 0.0134(4) 0.1187(3)
H27 H 1.3421 -0.0299 0.0751
H28 H 1.4523 -0.0023 0.1211
C30 C 1.5981(4) 0.1670(4) 0.2760(4)
H29 H 1.6522 0.2137 0.3206
H30 H 1.6227 0.1321 0.2548
C31 C 1.3043(4) -0.0253(3) 0.1834(3)
C32 C 1.4679(4) 0.0230(3) 0.2552(3)
H31 H 1.5013 -0.0125 0.2494
C33 C 1.4175(4) -0.0040(4) 0.3045(3)
H32 H 1.4288 -0.0510 0.3231
C34 C 1.5246(4) 0.1406(4) 0.3603(3)
C35 C 1.2416(4) -0.0827(4) 0.2660(3)
H33 H 1.1846 -0.1159 0.2175
H34 H 1.2584 -0.1242 0.2896
C36 C 1.4482(4) 0.0770(4) 0.4326(3)
H35 H 1.4520 0.0261 0.4467
H36 H 1.5010 0.1286 0.4735
C37 C 1.1306(4) -0.0335(4) 0.2882(3)
C38 C 1.2731(4) -0.0019(4) 0.3936(3)
H37 H 1.2854 -0.0479 0.4135
C39 C 1.2076(4) 0.0254(3) 0.4185(3)
H38 H 1.1914 -0.0052 0.4523
C40 C 1.3551(4) 0.1443(4) 0.4638(3)
C41 C 1.0363(4) -0.0041(4) 0.3462(4)
H39 H 1.0270 -0.0324 0.3827
H40 H 0.9845 -0.0419 0.2963
C42 C 1.2458(4) 0.1666(4) 0.5077(3)
H41 H 1.2276 0.1311 0.5374
H42 H 1.3039 0.2190 0.5422
N1 N 1.0305(4) 0.0772(3) 0.3619(3)
N2 N 0.9598(4) 0.1635(3) 0.3478(3)
N3 N 1.1712(4) 0.1906(3) 0.4693(3)
N4 N 1.1022(3) 0.2799(3) 0.4532(3)
N5 N 0.9436(4) 0.2737(3) 0.2905(3)
N6 N 0.9815(4) 0.3464(3) 0.2189(3)
N7 N 1.0788(4) 0.3911(3) 0.3996(3)
N8 N 1.1082(3) 0.4698(3) 0.3282(3)
N9 N 1.0518(4) 0.3934(3) 0.1398(3)
N10 N 1.1411(4) 0.4047(3) 0.0840(3)
N11 N 1.1816(4) 0.5137(3) 0.2500(3)
N12 N 1.2738(4) 0.5171(3) 0.1964(3)
N13 N 1.2499(4) 0.3705(3) 0.0485(3)
N14 N 1.3395(4) 0.3051(3) 0.0408(3)
N15 N 1.3822(4) 0.4836(3) 0.1609(3)
N16 N 1.4700(4) 0.4141(3) 0.1573(3)
N17 N 1.4038(3) 0.2005(3) 0.0598(3)
N18 N 1.4214(4) 0.0975(3) 0.1073(3)
N19 N 1.5298(4) 0.3069(3) 0.1801(3)
N20 N 1.5573(3) 0.2040(3) 0.2232(3)
N21 N 1.3912(4) 0.0095(3) 0.1850(3)
N22 N 1.3186(3) -0.0315(3) 0.2531(3)
N23 N 1.5340(3) 0.1129(3) 0.2991(3)
N24 N 1.4590(3) 0.0753(3) 0.3647(3)
N25 N 1.2196(4) -0.0323(3) 0.3126(3)
N26 N 1.1249(4) 0.0043(3) 0.3485(3)
N27 N 1.3591(3) 0.0776(3) 0.4240(3)
N28 N 1.2647(4) 0.1185(3) 0.4558(3)
O13 O 0.9196(3) 0.0562(3) 0.2439(2)
O14 O 0.9112(3) 0.1982(3) 0.1734(2)
O15 O 1.0147(4) 0.2732(3) 0.0484(3)
O16 O 1.1771(3) 0.2246(3) -0.0123(3)
O17 O 1.2758(3) 0.0666(3) 0.0120(2)
O18 O 1.2267(3) -0.0474(3) 0.1296(2)
O19 O 1.0689(3) -0.0618(3) 0.2232(3)
O20 O 1.2662(3) 0.3366(3) 0.5088(3)
O21 O 1.2292(3) 0.5008(3) 0.4455(2)
O22 O 1.3416(3) 0.5621(3) 0.3249(2)
O23 O 1.5030(4) 0.4972(3) 0.2721(3)
O24 O 1.5927(3) 0.3312(3) 0.3061(2)
O25 O 1.5717(3) 0.2152(3) 0.4053(2)
O26 O 1.4208(3) 0.2167(3) 0.5011(3)
Nd1A Nd 1.14454(2) -0.04257(2) -0.108386(18)
Nd2A Nd 1.35730(2) 0.624274(19) 0.556767(17)
O17A O 0.7242(3) -0.0666(3) -0.0120(2)
O21A O 1.7708(3) 0.4992(3) 0.5545(2)
Cl5 Cl 1.67838(15) 0.00562(13) 0.25926(11)
Cl6 Cl 1.80583(15) 0.18862(13) 0.43950(12)
Cl7 Cl 1.86297(15) 0.00494(14) 0.42863(15)
Cl8 Cl 1.62574(14) -0.02253(17) 0.41621(12)
Zn1 Zn 1.74113(6) 0.04281(6) 0.38557(5)
Cl9 Cl 0.7279(3) 0.2744(4) 0.1184(3)
Cl10 Cl 0.5935(4) 0.3849(3) 0.0116(3)
Cl11 Cl 0.7984(5) 0.3908(5) -0.0078(5)
Cl12 Cl 0.5859(11) 0.1920(7) -0.0976(6)
Zn2 Zn 0.6771(3) 0.3067(2) 0.0096(2)
Cl1 Cl 1.0000 0.5000 0.5000
Cl13? Cl 0.8687(6) 0.5200(4) 0.1492(6)
Zn3? Zn 0.7426(3) 0.3913(3) 0.0717(3)
loop_
_geom_bond_atom_site_label_1
_geom_bond_atom_site_label_2
_geom_bond_site_symmetry_1
_geom_bond_site_symmetry_2
O1 Nd1 1_555 1_555
O2 Nd1 1_555 1_555
O3 Nd1 1_555 1_555
O4 Nd1 1_555 1_555
O5 Nd1 1_555 1_555
O6 Nd1 1_555 1_555
O7 Nd2 1_555 1_555
O8 Nd2 1_555 1_555
O9 Nd2 1_555 1_555
O10 Nd2 1_555 1_555
O11 Nd2 1_555 1_555
O12 Nd2 1_555 1_555
Nd1 O13 1_555 1_555
Nd2 O24 1_555 1_555
C1 N1 1_555 1_555
C2 H1 1_555 1_555
C3 C2 1_555 1_555
H2 C3 1_555 1_555
C4 N3 1_555 1_555
C5 H3 1_555 1_555
H4 C5 1_555 1_555
C6 H5 1_555 1_555
H6 C6 1_555 1_555
C7 N5 1_555 1_555
C8 H7 1_555 1_555
C9 C8 1_555 1_555
H8 C9 1_555 1_555
C10 N7 1_555 1_555
C11 H9 1_555 1_555
H10 C11 1_555 1_555
C12 H11 1_555 1_555
H12 C12 1_555 1_555
C13 N9 1_555 1_555
C14 H13 1_555 1_555
C15 C14 1_555 1_555
H14 C15 1_555 1_555
C16 N11 1_555 1_555
C17 H15 1_555 1_555
H16 C17 1_555 1_555
C18 H17 1_555 1_555
H18 C18 1_555 1_555
C19 N13 1_555 1_555
C20 H19 1_555 1_555
C21 C20 1_555 1_555
H20 C21 1_555 1_555
C22 N15 1_555 1_555
C23 H21 1_555 1_555
H22 C23 1_555 1_555
C24 H23 1_555 1_555
H24 C24 1_555 1_555
C25 N17 1_555 1_555
C26 H25 1_555 1_555
C27 C26 1_555 1_555
H26 C27 1_555 1_555
C28 N19 1_555 1_555
C29 H27 1_555 1_555
H28 C29 1_555 1_555
C30 H29 1_555 1_555
H30 C30 1_555 1_555
C31 N21 1_555 1_555
C32 H31 1_555 1_555
C33 C32 1_555 1_555
H32 C33 1_555 1_555
C34 N23 1_555 1_555
C35 H33 1_555 1_555
H34 C35 1_555 1_555
C36 H35 1_555 1_555
H36 C36 1_555 1_555
C37 N25 1_555 1_555
C38 H37 1_555 1_555
C39 C38 1_555 1_555
H38 C39 1_555 1_555
C40 N27 1_555 1_555
C41 H39 1_555 1_555
H40 C41 1_555 1_555
C42 H41 1_555 1_555
H42 C42 1_555 1_555
N1 C2 1_555 1_555
N2 C1 1_555 1_555
N3 C2 1_555 1_555
N4 C3 1_555 1_555
N5 C5 1_555 1_555
N6 C7 1_555 1_555
N7 C6 1_555 1_555
N8 C9 1_555 1_555
N9 C11 1_555 1_555
N10 C13 1_555 1_555
N11 C12 1_555 1_555
N12 C15 1_555 1_555
N13 C17 1_555 1_555
N14 C19 1_555 1_555
N15 C18 1_555 1_555
N16 C21 1_555 1_555
N17 C23 1_555 1_555
N18 C25 1_555 1_555
N19 C24 1_555 1_555
N20 C27 1_555 1_555
N21 C29 1_555 1_555
N22 C31 1_555 1_555
N23 C30 1_555 1_555
N24 C33 1_555 1_555
N25 C35 1_555 1_555
N26 C37 1_555 1_555
N27 C36 1_555 1_555
N28 C39 1_555 1_555
O13 C1 1_555 1_555
O14 Nd1 1_555 1_555
O15 C13 1_555 1_555
O16 C19 1_555 1_555
O17 C25 1_555 1_555
O18 C31 1_555 1_555
O19 C37 1_555 1_555
O20 C4 1_555 1_555
O21 C10 1_555 1_555
O22 C16 1_555 1_555
O23 C22 1_555 1_555
O24 C28 1_555 1_555
O25 Nd2 1_555 1_555
O26 C40 1_555 1_555
Cl5 Zn1 1_555 1_555
Cl6 Zn1 1_555 1_555
Cl7 Zn1 1_555 1_555
Cl8 Zn1 1_555 1_555
Cl9 Zn2 1_555 1_555
Cl10 Zn2 1_555 1_555
Cl11 Zn2 1_555 1_555
Cl12 Zn2 1_555 1_555
Nd1A O17 1_555 1_555
Nd2A O21 1_555 1_555
O17A Nd1 1_555 1_555
O21A Nd2 1_555 1_555
C3 N2 1_555 1_555
C4 N4 1_555 1_555
C5 N2 1_555 1_555
C6 N4 1_555 1_555
C7 O14 1_555 1_555
C8 N5 1_555 1_555
C8 N7 1_555 1_555
C9 N6 1_555 1_555
C10 N8 1_555 1_555
C11 N6 1_555 1_555
C12 N8 1_555 1_555
C14 N9 1_555 1_555
C14 N11 1_555 1_555
C15 N10 1_555 1_555
C16 N12 1_555 1_555
C17 N10 1_555 1_555
C18 N12 1_555 1_555
C20 N13 1_555 1_555
C20 N15 1_555 1_555
C21 N14 1_555 1_555
C22 N16 1_555 1_555
C23 N14 1_555 1_555
C24 N16 1_555 1_555
C26 N17 1_555 1_555
C26 N19 1_555 1_555
C27 N18 1_555 1_555
C28 N20 1_555 1_555
C29 N18 1_555 1_555
C30 N20 1_555 1_555
C32 N21 1_555 1_555
C32 N23 1_555 1_555
C33 N22 1_555 1_555
C34 N24 1_555 1_555
C34 O25 1_555 1_555
C35 N22 1_555 1_555
C36 N24 1_555 1_555
C38 N25 1_555 1_555
C38 N27 1_555 1_555
C39 N26 1_555 1_555
C40 N28 1_555 1_555
C41 N1 1_555 1_555
C41 N26 1_555 1_555
C42 N3 1_555 1_555
C42 N28 1_555 1_555

#END
