
#######################################################################
#
#                 Cambridge Crystallographic Data Centre
#                                CCDC 
#
#######################################################################
#
# If this CIF has been generated from an entry in the Cambridge 
# Structural Database, then it will include bibliographic, chemical, 
# crystal, experimental, refinement or atomic coordinate data resulting 
# from the CCDC's data processing and validation procedures.
#
#######################################################################

data_PEXSIV01
_symmetry_cell_setting           monoclinic
_symmetry_space_group_name_H-M   'C 2/c'
_symmetry_Int_Tables_number      15
_space_group_name_Hall           '-C 2yn'
loop_
_symmetry_equiv_pos_site_id
_symmetry_equiv_pos_as_xyz
1 x,y,z
2 1/2+x,1/2+y,z
3 -x,y,1/2-z
4 1/2-x,1/2+y,1/2-z
5 -x,-y,-z
6 1/2-x,1/2-y,-z
7 x,-y,1/2+z
8 1/2+x,1/2-y,1/2+z
_cell_length_a                   16.404(3)
_cell_length_b                   9.1345(18)
_cell_length_c                   14.366(3)
_cell_angle_alpha                90
_cell_angle_beta                 120.15(3)
_cell_angle_gamma                90
_cell_volume                     1861.41
loop_
_atom_site_label
_atom_site_type_symbol
_atom_site_fract_x
_atom_site_fract_y
_atom_site_fract_z
C1 C 0.6099(2) 0.7385(3) 0.9435(2)
C2 C 0.6388(2) 0.7961(3) 0.7013(2)
C3 C 0.6442(2) 0.7298(3) 0.8005(2)
C4 C 0.6451(2) 0.5957(3) 0.9728(2)
C5 C 0.6811(3) 0.5187(4) 0.9194(4)
H1 H 0.7043 0.4242 0.9401
C6 C 0.6816(2) 0.5876(3) 0.8332(2)
H2 H 0.7069 0.5391 0.7966
C7 C 0.5928(3) 0.6790(3) 1.0774(3)
H3 H 0.5777 0.6827 1.1317
C8 C 0.6093(2) 0.8053(3) 0.8561(2)
H4 H 0.5857 0.8996 0.8355
Cd1 Cd 0.5000 1.0000 1.0000
H5 H 0.647(4) 0.482(4) 1.092(4)
H6 H 0.376(3) 0.799(5) 1.001(3)
H8 H 0.390(2) 0.848(4) 1.090(3)
N1 N 0.5779(2) 0.7879(3) 1.0114(2)
N2 N 0.6319(2) 0.5617(3) 1.0591(2)
O1 O 0.60637(17) 0.9243(2) 0.67621(17)
O2 O 0.66448(19) 0.7219(3) 0.64664(18)
O3 O 0.4175(2) 0.8481(3) 1.0537(2)
C1D C 0.3901(2) 1.2615(3) 1.0565(2)
C2D C 0.3612(2) 1.2039(3) 1.2987(2)
C3D C 0.3558(2) 1.2702(3) 1.1995(2)
C4D C 0.3549(2) 1.4043(3) 1.0272(2)
C5D C 0.3189(3) 1.4813(4) 1.0806(4)
H1D H 0.2957 1.5758 1.0599
C6D C 0.3184(2) 1.4124(3) 1.1668(2)
H2D H 0.2931 1.4609 1.2034
C7D C 0.4072(3) 1.3210(3) 0.9226(3)
H3D H 0.4223 1.3173 0.8683
C8D C 0.3907(2) 1.1947(3) 1.1439(2)
H4D H 0.4143 1.1004 1.1645
Cd1F Cd 0.5000 1.0000 0.5000
Cd1F_2 Cd 0.5000 1.0000 1.5000
H5D H 0.353(4) 1.518(4) 0.908(4)
H6D H 0.624(3) 1.201(5) 0.999(3)
H8D H 0.610(2) 1.152(4) 0.910(3)
N1D N 0.4221(2) 1.2121(3) 0.9886(2)
N2D N 0.3681(2) 1.4383(3) 0.9409(2)
O1D O 0.39363(17) 1.0757(2) 1.32379(17)
O1F O 0.60637(17) 1.0757(2) 1.17621(17)
O1B O 0.39363(17) 0.9243(2) 0.82379(17)
O2D O 0.33552(19) 1.2781(3) 1.35336(18)
O3D O 0.5825(2) 1.1519(3) 0.9463(2)
H7 H 0.2963(15) 0.807(4) 0.181(3)
H9 H 0.353(3) 0.909(4) 0.229(4)
O4 O 0.3493(2) 0.8358(3) 0.1916(2)
loop_
_geom_bond_atom_site_label_1
_geom_bond_atom_site_label_2
_geom_bond_site_symmetry_1
_geom_bond_site_symmetry_2
C1 C4 1_555 1_555
C2 C3 1_555 1_555
C3 C6 1_555 1_555
C4 C5 1_555 1_555
C5 H1 1_555 1_555
C6 C5 1_555 1_555
H2 C6 1_555 1_555
C7 H3 1_555 1_555
C8 C1 1_555 1_555
H4 C8 1_555 1_555
Cd1 N1 1_555 1_555
H5 N2 1_555 1_555
H6 O3 1_555 1_555
H7 O4 1_555 1_555
H8 O3 1_555 1_555
H9 O4 1_555 1_555
N1 C1 1_555 1_555
N2 C4 1_555 1_555
O1 C2 1_555 1_555
O2 C2 1_555 1_555
O3 Cd1 1_555 1_555
C1D C4D 1_555 1_555
C2D C3D 1_555 1_555
C3D C6D 1_555 1_555
C4D C5D 1_555 1_555
C5D H1D 1_555 1_555
C6D C5D 1_555 1_555
H2D C6D 1_555 1_555
C7D H3D 1_555 1_555
C8D C1D 1_555 1_555
H4D C8D 1_555 1_555
Cd1F O1 1_555 1_555
Cd1F_2 O1D 1_555 1_555
H5D N2D 1_555 1_555
H6D O3D 1_555 1_555
H8D O3D 1_555 1_555
N1D Cd1 1_555 1_555
N2D C4D 1_555 1_555
O1D C2D 1_555 1_555
O1F Cd1 1_555 1_555
O1B Cd1 1_555 1_555
O2D C2D 1_555 1_555
O3D Cd1 1_555 1_555
C3 C8 1_555 1_555
C7 N1 1_555 1_555
C7 N2 1_555 1_555
C1D N1D 1_555 1_555
C3D C8D 1_555 1_555
C7D N1D 1_555 1_555
C7D N2D 1_555 1_555

#END
