
#######################################################################
#
#                 Cambridge Crystallographic Data Centre
#                                CCDC 
#
#######################################################################
#
# If this CIF has been generated from an entry in the Cambridge 
# Structural Database, then it will include bibliographic, chemical, 
# crystal, experimental, refinement or atomic coordinate data resulting 
# from the CCDC's data processing and validation procedures.
#
#######################################################################

data_PEXSOB01
_symmetry_cell_setting           monoclinic
_symmetry_space_group_name_H-M   'P 21/c'
_symmetry_Int_Tables_number      14
_space_group_name_Hall           '-P 2ybc'
loop_
_symmetry_equiv_pos_site_id
_symmetry_equiv_pos_as_xyz
1 x,y,z
2 -x,1/2+y,1/2-z
3 -x,-y,-z
4 x,1/2-y,1/2+z
_cell_length_a                   10.832(2)
_cell_length_b                   10.739(2)
_cell_length_c                   14.439(3)
_cell_angle_alpha                90
_cell_angle_beta                 104.40(3)
_cell_angle_gamma                90
_cell_volume                     1626.85
loop_
_atom_site_label
_atom_site_type_symbol
_atom_site_fract_x
_atom_site_fract_y
_atom_site_fract_z
C1 C 0.37808(16) 0.42316(15) 0.53099(11)
C2 C 0.48439(15) 0.43907(15) 0.72460(10)
C3 C 0.54067(16) 0.44521(15) 0.83036(11)
C4 C 0.47322(15) 0.33873(14) 0.57565(11)
C5 C 0.52733(15) 0.34612(15) 0.67338(11)
H1 H 0.5904 0.2905 0.7036
C6 C 0.38919(15) 0.52352(15) 0.67849(11)
H2 H 0.3622 0.5849 0.7144
C7 C 0.84959(18) -0.10077(17) 0.72263(13)
H3 H 0.7825 -0.0569 0.7368
C8 C 0.85929(16) -0.11419(16) 0.62880(12)
C9 C 0.33500(16) 0.51754(16) 0.58136(12)
H4 H 0.2727 0.5738 0.5510
C10 C 1.04440(15) -0.22274(16) 0.77354(11)
C11 C 1.14864(15) -0.27436(15) 0.85312(11)
C12 C 1.05345(15) -0.23831(16) 0.68033(12)
H5 H 1.1193 -0.2839 0.6660
C13 C 0.95909(15) -0.18239(16) 0.60903(11)
C14 C 0.94318(17) -0.15495(18) 0.79398(12)
H6 H 0.9392 -0.1464 0.8573
C15 C 0.42181(16) 0.29364(16) 0.42646(11)
H7 H 0.4188 0.2554 0.3682
C16 C 0.83717(18) -0.10736(18) 0.47723(12)
H8 H 0.8058 -0.0895 0.4126
Cd1 Cd 0.645640(10) 0.099160(10) 0.525660(7)
N1 N 0.34771(15) 0.39025(14) 0.43564(11)
N2 N 0.49907(13) 0.25784(12) 0.50713(9)
N3 N 0.78340(14) -0.06727(15) 0.54379(10)
N4 N 0.94191(16) -0.17663(17) 0.51149(10)
O1 O 0.48089(12) 0.49645(12) 0.88389(8)
O2 O 0.64709(13) 0.39307(12) 0.86363(9)
O3 O 1.24088(11) -0.32620(12) 0.83084(9)
O4 O 1.14116(12) -0.26366(14) 0.93848(9)
H9 H 0.303(2) 0.425(2) 0.3873(19)
H10 H 0.997(3) -0.202(3) 0.4823(18)
Cd1C Cd 0.645640(10) 0.400840(10) 1.025660(7)
Cd1A Cd 0.354360(10) 0.599160(10) 0.974340(7)
Cd1A_2 Cd 1.354360(10) -0.400840(10) 0.974340(7)
O1C O 0.48089(12) 0.00355(12) 0.38389(8)
O1A O 0.51911(12) -0.00355(12) 0.61611(8)
O2C O 0.64709(13) 0.10693(12) 0.36363(9)
O3A O 0.75912(11) 0.17380(12) 0.66916(9)
O5 O 0.2028(2) 0.4746(2) 0.25670(12)
H11 H 0.135(3) 0.470(4) 0.254(3)
H12 H 0.219(7) 0.539(7) 0.232(5)
loop_
_geom_bond_atom_site_label_1
_geom_bond_atom_site_label_2
_geom_bond_site_symmetry_1
_geom_bond_site_symmetry_2
C1 C4 1_555 1_555
C2 C3 1_555 1_555
C3 O1 1_555 1_555
C4 C5 1_555 1_555
C5 C2 1_555 1_555
H1 C5 1_555 1_555
C6 C2 1_555 1_555
H2 C6 1_555 1_555
C7 H3 1_555 1_555
C8 C7 1_555 1_555
C9 C1 1_555 1_555
H4 C9 1_555 1_555
C10 C11 1_555 1_555
C11 O3 1_555 1_555
C12 C10 1_555 1_555
H5 C12 1_555 1_555
C13 C8 1_555 1_555
C14 C7 1_555 1_555
H6 C14 1_555 1_555
C15 H7 1_555 1_555
C16 H8 1_555 1_555
Cd1 N2 1_555 1_555
N1 C1 1_555 1_555
N2 C4 1_555 1_555
N3 C8 1_555 1_555
N4 C13 1_555 1_555
O1 Cd1C 1_555 1_555
O2 C3 1_555 1_555
O3 Cd1A_2 1_555 1_555
O4 C11 1_555 1_555
O5 H11 1_555 1_555
H9 N1 1_555 1_555
H10 N4 1_555 1_555
H12 O5 1_555 1_555
Cd1C O2 1_555 1_555
Cd1A O1 1_555 1_555
O1C Cd1 1_555 1_555
O1A Cd1 1_555 1_555
O2C Cd1 1_555 1_555
O3A Cd1 1_555 1_555
C6 C9 1_555 1_555
C10 C14 1_555 1_555
C12 C13 1_555 1_555
C15 N1 1_555 1_555
C15 N2 1_555 1_555
C16 N3 1_555 1_555
C16 N4 1_555 1_555
Cd1 N3 1_555 1_555

#END
