
#######################################################################
#
#                 Cambridge Crystallographic Data Centre
#                                CCDC 
#
#######################################################################
#
# If this CIF has been generated from an entry in the Cambridge 
# Structural Database, then it will include bibliographic, chemical, 
# crystal, experimental, refinement or atomic coordinate data resulting 
# from the CCDC's data processing and validation procedures.
#
#######################################################################

data_PEXSOC
_symmetry_cell_setting           triclinic
_symmetry_space_group_name_H-M   'P -1'
_symmetry_Int_Tables_number      2
_space_group_name_Hall           '-P 1'
loop_
_symmetry_equiv_pos_site_id
_symmetry_equiv_pos_as_xyz
1 x,y,z
2 -x,-y,-z
_cell_length_a                   16.8979(14)
_cell_length_b                   17.2593(15)
_cell_length_c                   20.3082(17)
_cell_angle_alpha                98.015(3)
_cell_angle_beta                 112.613(3)
_cell_angle_gamma                109.997(3)
_cell_volume                     4880.85
loop_
_atom_site_label
_atom_site_type_symbol
_atom_site_fract_x
_atom_site_fract_y
_atom_site_fract_z
Cl2 Cl 0.3217(4) 0.3017(4) -0.1105(3)
Cl3 Cl 0.4893(5) 0.5413(5) 0.4813(4)
Cl4 Cl 0.6648(7) 0.3130(8) 0.2721(7)
Cl5 Cl 0.19556(18) 0.31327(16) 0.06100(13)
Cl6 Cl 0.13931(16) 0.49778(17) 0.07437(16)
Cl7 Cl 0.32381(18) 0.49554(16) 0.24252(13)
Cl8 Cl 0.37642(16) 0.5250(2) 0.08559(14)
Zn1 Zn 0.26032(7) 0.45905(7) 0.11598(6)
Cl9 Cl 1.2707(3) 0.2217(3) 0.3781(4)
Cl10 Cl 1.4057(3) 0.1126(4) 0.4865(3)
Cl11 Cl 1.2092(7) 0.1271(8) 0.5150(4)
Cl12 Cl 1.1364(6) -0.0199(3) 0.3526(5)
Zn2 Zn 1.2600(2) 0.1109(2) 0.42814(19)
O1 O 1.1467(4) 0.3697(4) 0.4800(3)
O2 O 1.2797(4) 0.4163(5) 0.4120(4)
O3 O 1.2691(4) 0.5617(4) 0.3655(3)
O4 O 1.1101(4) 0.5837(4) 0.3697(3)
O5 O 1.0826(5) 0.5034(5) 0.4770(4)
O6 O 0.9691(4) 0.3849(5) 0.3340(4)
O7 O 0.5327(5) 0.1775(5) 0.1264(4)
O8 O 0.4010(4) 0.1741(4) -0.0402(3)
O9 O 0.4193(5) 0.0293(4) 0.0044(4)
O10 O 0.3449(4) -0.0018(4) 0.1051(3)
O11 O 0.2212(4) 0.0968(5) 0.0853(4)
O12 O 0.2415(4) 0.1789(4) -0.0220(3)
Pr1 Pr 1.14480(3) 0.45752(3) 0.39170(2)
Pr2 Pr 0.35784(3) 0.12437(3) 0.05628(2)
C1 C 1.0596(5) 0.2328(5) 0.2769(4)
C2 C 0.9951(5) 0.0858(5) 0.2168(4)
H1 H 1.0329 0.0522 0.2293
C3 C 1.0158(5) 0.1372(5) 0.1639(4)
H2 H 1.0600 0.1250 0.1480
C4 C 0.8550(5) 0.0420(4) 0.1057(4)
C5 C 1.1032(4) 0.2981(4) 0.1891(4)
H3 H 1.1259 0.2781 0.1555
H4 H 1.1588 0.3425 0.2344
C6 C 0.9056(5) 0.1385(4) 0.0355(3)
H5 H 0.8468 0.0945 -0.0077
H6 H 0.9581 0.1457 0.0236
C7 C 1.0338(5) 0.4042(5) 0.1872(4)
C8 C 0.9783(5) 0.3040(5) 0.0726(4)
H7 H 1.0128 0.3055 0.0426
C9 C 0.9300(5) 0.3663(5) 0.0620(4)
H8 H 0.9433 0.3986 0.0280
C10 C 0.8144(5) 0.2249(5) 0.0208(4)
C11 C 0.9651(5) 0.5061(4) 0.1529(4)
H9 H 1.0172 0.5436 0.2027
H10 H 0.9744 0.5345 0.1162
C12 C 0.7533(5) 0.3349(5) -0.0087(4)
H11 H 0.7714 0.3708 -0.0385
H12 H 0.6949 0.2828 -0.0431
C13 C 0.8702(5) 0.5337(5) 0.2108(5)
C14 C 0.7934(5) 0.4765(5) 0.0814(4)
H13 H 0.8091 0.5074 0.0474
C15 C 0.7293(5) 0.5037(5) 0.1064(4)
H14 H 0.7172 0.5498 0.0863
C16 C 0.6457(5) 0.3565(5) 0.0367(4)
C17 C 0.7607(5) 0.5840(5) 0.2343(4)
H15 H 0.7449 0.6265 0.2115
H16 H 0.8173 0.6162 0.2832
C18 C 0.5531(5) 0.4239(5) 0.0675(4)
H17 H 0.5491 0.4747 0.0527
H18 H 0.5003 0.3721 0.0268
C19 C 0.6959(5) 0.5261(5) 0.3153(4)
C20 C 0.5838(5) 0.5052(5) 0.1957(4)
H19 H 0.5734 0.5529 0.1774
C21 C 0.5330(5) 0.4789(5) 0.2444(4)
H20 H 0.4998 0.5147 0.2503
C22 C 0.4750(5) 0.3599(5) 0.1390(4)
C23 C 0.5994(5) 0.4859(4) 0.3819(3)
H21 H 0.6584 0.5287 0.4256
H22 H 0.5481 0.5016 0.3798
C24 C 0.4012(4) 0.3342(5) 0.2225(4)
H23 H 0.3767 0.3696 0.2433
H24 H 0.3472 0.2875 0.1779
C25 C 0.6412(5) 0.3832(5) 0.4447(4)
C26 C 0.4817(5) 0.3329(5) 0.3555(4)
H25 H 0.4388 0.3511 0.3688
C27 C 0.4954(5) 0.2591(5) 0.3863(4)
H26 H 0.4545 0.2381 0.4102
C28 C 0.4377(5) 0.2154(5) 0.2578(4)
C29 C 0.6388(5) 0.2575(5) 0.4927(4)
H27 H 0.6971 0.3025 0.5356
H28 H 0.5949 0.2295 0.5117
C30 C 0.4494(5) 0.1027(4) 0.3174(4)
H29 H 0.4182 0.0875 0.3487
H30 H 0.4045 0.0650 0.2657
C31 C 0.7515(6) 0.2048(5) 0.4785(4)
C32 C 0.5934(5) 0.1022(4) 0.4211(4)
H31 H 0.5577 0.0794 0.4483
C33 C 0.6553(5) 0.0569(5) 0.4181(4)
H32 H 0.6525 0.0150 0.4468
C34 C 0.5429(6) 0.0312(5) 0.2950(4)
C35 C 0.8350(6) 0.1136(6) 0.4770(4)
H33 H 0.8266 0.0663 0.4991
H34 H 0.8883 0.1662 0.5165
C36 C 0.6376(6) -0.0523(5) 0.3095(5)
H35 H 0.5850 -0.0882 0.2595
H36 H 0.6416 -0.0897 0.3417
C37 C 0.9347(6) 0.1481(5) 0.4137(4)
C38 C 0.8190(6) 0.0071(5) 0.3681(4)
H37 H 0.8176 -0.0360 0.3957
C39 C 0.8831(5) 0.0120(5) 0.3306(4)
H38 H 0.9172 -0.0246 0.3435
C40 C 0.7298(6) -0.0348(5) 0.2380(4)
C41 C 1.0350(5) 0.1371(5) 0.3538(4)
H39 H 1.0611 0.0943 0.3590
H40 H 1.0820 0.1913 0.3944
C42 C 0.8447(6) -0.0412(5) 0.1933(4)
H41 H 0.8860 -0.0698 0.2121
H42 H 0.7872 -0.0837 0.1483
N1 N 1.0193(4) 0.1521(4) 0.2822(3)
N2 N 1.0563(4) 0.2257(3) 0.2100(3)
N3 N 0.8925(4) 0.0290(4) 0.1728(3)
N4 N 0.9215(4) 0.1087(4) 0.1007(3)
N5 N 1.0419(4) 0.3370(4) 0.1523(3)
N6 N 0.9701(4) 0.4244(3) 0.1370(3)
N7 N 0.8984(4) 0.2200(3) 0.0478(3)
N8 N 0.8301(4) 0.3091(4) 0.0300(4)
N9 N 0.8773(4) 0.4976(4) 0.1509(4)
N10 N 0.7831(4) 0.5347(4) 0.1878(3)
N11 N 0.7353(4) 0.3825(4) 0.0432(3)
N12 N 0.6415(4) 0.4232(4) 0.0754(3)
N13 N 0.6819(4) 0.5321(4) 0.2465(3)
N14 N 0.6094(4) 0.4907(4) 0.3146(3)
N15 N 0.5413(4) 0.4261(4) 0.1339(3)
N16 N 0.4667(4) 0.3878(4) 0.1999(4)
N17 N 0.5790(4) 0.4017(3) 0.3922(3)
N18 N 0.5957(4) 0.2988(4) 0.4400(4)
N19 N 0.4428(4) 0.2959(4) 0.2776(3)
N20 N 0.4700(4) 0.1926(4) 0.3199(3)
N21 N 0.6616(4) 0.1935(4) 0.4598(4)
N22 N 0.7486(4) 0.1274(4) 0.4514(4)
N23 N 0.5300(5) 0.0851(4) 0.3420(3)
N24 N 0.6174(5) 0.0138(4) 0.3389(4)
N25 N 0.8593(5) 0.0923(4) 0.4167(4)
N26 N 0.9489(4) 0.1063(4) 0.3613(3)
N27 N 0.7265(4) -0.0184(4) 0.3042(4)
N28 N 0.8180(4) -0.0160(4) 0.2499(3)
O13 O 1.0910(4) 0.3018(3) 0.3270(3)
O14 O 1.0827(4) 0.4447(4) 0.2565(3)
O15 O 0.9332(4) 0.5642(4) 0.2759(3)
O16 O 0.7741(4) 0.5470(4) 0.3700(3)
O17 O 0.7248(4) 0.4328(3) 0.4873(3)
O18 O 0.8226(4) 0.2736(4) 0.5130(4)
O19 O 0.7710(4) -0.0013(3) 0.0554(3)
O20 O 0.7345(4) 0.1627(3) -0.0085(3)
O21 O 0.5807(4) 0.2842(4) -0.0010(3)
O22 O 0.4279(4) 0.2863(3) 0.0939(3)
O23 O 0.4084(4) 0.1689(3) 0.1935(3)
O24 O 0.4975(5) 0.0021(4) 0.2278(3)
O25 O 0.6582(4) -0.0626(4) 0.1759(3)
O26 O 0.9852(5) 0.2240(4) 0.4515(4)
Pr1A Pr 0.85520(3) 0.54248(3) 0.60830(2)
Pr2A Pr 0.64216(3) -0.12437(3) -0.05628(2)
O17A O 1.2752(4) 0.5672(3) 0.5127(3)
O19A O 0.2290(4) 0.0013(3) -0.0554(3)
Cl1 Cl 1.0000 0.0000 0.0000
Cl13? Cl 1.4125(11) 0.3091(7) 0.5997(8)
Zn3? Zn 1.3217(4) 0.1921(3) 0.4932(3)
loop_
_geom_bond_atom_site_label_1
_geom_bond_atom_site_label_2
_geom_bond_site_symmetry_1
_geom_bond_site_symmetry_2
Cl5 Zn1 1_555 1_555
Cl6 Zn1 1_555 1_555
Cl7 Zn1 1_555 1_555
Cl8 Zn1 1_555 1_555
Cl9 Zn2 1_555 1_555
Cl10 Zn2 1_555 1_555
Cl11 Zn2 1_555 1_555
Cl12 Zn2 1_555 1_555
O1 Pr1 1_555 1_555
O2 Pr1 1_555 1_555
O3 Pr1 1_555 1_555
O4 Pr1 1_555 1_555
O5 Pr1 1_555 1_555
O6 Pr1 1_555 1_555
O7 Pr2 1_555 1_555
O8 Pr2 1_555 1_555
O9 Pr2 1_555 1_555
O10 Pr2 1_555 1_555
O11 Pr2 1_555 1_555
O12 Pr2 1_555 1_555
Pr1 O13 1_555 1_555
Pr2 O22 1_555 1_555
C1 N1 1_555 1_555
C2 H1 1_555 1_555
C3 C2 1_555 1_555
H2 C3 1_555 1_555
C4 N3 1_555 1_555
C5 H3 1_555 1_555
H4 C5 1_555 1_555
C6 H5 1_555 1_555
H6 C6 1_555 1_555
C7 N5 1_555 1_555
C8 H7 1_555 1_555
C9 C8 1_555 1_555
H8 C9 1_555 1_555
C10 N7 1_555 1_555
C11 H9 1_555 1_555
H10 C11 1_555 1_555
C12 H11 1_555 1_555
H12 C12 1_555 1_555
C13 N9 1_555 1_555
C14 H13 1_555 1_555
C15 C14 1_555 1_555
H14 C15 1_555 1_555
C16 N11 1_555 1_555
C17 H15 1_555 1_555
H16 C17 1_555 1_555
C18 H17 1_555 1_555
H18 C18 1_555 1_555
C19 N13 1_555 1_555
C20 H19 1_555 1_555
C21 C20 1_555 1_555
H20 C21 1_555 1_555
C22 N15 1_555 1_555
C23 H21 1_555 1_555
H22 C23 1_555 1_555
C24 H23 1_555 1_555
H24 C24 1_555 1_555
C25 N17 1_555 1_555
C26 H25 1_555 1_555
C27 C26 1_555 1_555
H26 C27 1_555 1_555
C28 N19 1_555 1_555
C29 H27 1_555 1_555
H28 C29 1_555 1_555
C30 H29 1_555 1_555
H30 C30 1_555 1_555
C31 N21 1_555 1_555
C32 H31 1_555 1_555
C33 C32 1_555 1_555
H32 C33 1_555 1_555
C34 N23 1_555 1_555
C35 H33 1_555 1_555
H34 C35 1_555 1_555
C36 H35 1_555 1_555
H36 C36 1_555 1_555
C37 N25 1_555 1_555
C38 H37 1_555 1_555
C39 C38 1_555 1_555
H38 C39 1_555 1_555
C40 N27 1_555 1_555
C41 H39 1_555 1_555
H40 C41 1_555 1_555
C42 H41 1_555 1_555
H42 C42 1_555 1_555
N1 C2 1_555 1_555
N2 C1 1_555 1_555
N3 C2 1_555 1_555
N4 C3 1_555 1_555
N5 C5 1_555 1_555
N6 C7 1_555 1_555
N7 C6 1_555 1_555
N8 C9 1_555 1_555
N9 C11 1_555 1_555
N10 C13 1_555 1_555
N11 C12 1_555 1_555
N12 C15 1_555 1_555
N13 C17 1_555 1_555
N14 C19 1_555 1_555
N15 C18 1_555 1_555
N16 C21 1_555 1_555
N17 C23 1_555 1_555
N18 C25 1_555 1_555
N19 C24 1_555 1_555
N20 C27 1_555 1_555
N21 C29 1_555 1_555
N22 C31 1_555 1_555
N23 C30 1_555 1_555
N24 C33 1_555 1_555
N25 C35 1_555 1_555
N26 C37 1_555 1_555
N27 C36 1_555 1_555
N28 C39 1_555 1_555
O13 C1 1_555 1_555
O14 Pr1 1_555 1_555
O15 C13 1_555 1_555
O16 C19 1_555 1_555
O17 C25 1_555 1_555
O18 C31 1_555 1_555
O19 C4 1_555 1_555
O20 C10 1_555 1_555
O21 C16 1_555 1_555
O22 C22 1_555 1_555
O23 Pr2 1_555 1_555
O24 C34 1_555 1_555
O25 C40 1_555 1_555
O26 C37 1_555 1_555
Pr1A O17 1_555 1_555
Pr2A O19 1_555 1_555
O17A Pr1 1_555 1_555
O19A Pr2 1_555 1_555
C3 N2 1_555 1_555
C4 N4 1_555 1_555
C5 N2 1_555 1_555
C6 N4 1_555 1_555
C7 O14 1_555 1_555
C8 N5 1_555 1_555
C8 N7 1_555 1_555
C9 N6 1_555 1_555
C10 N8 1_555 1_555
C11 N6 1_555 1_555
C12 N8 1_555 1_555
C14 N9 1_555 1_555
C14 N11 1_555 1_555
C15 N10 1_555 1_555
C16 N12 1_555 1_555
C17 N10 1_555 1_555
C18 N12 1_555 1_555
C20 N13 1_555 1_555
C20 N15 1_555 1_555
C21 N14 1_555 1_555
C22 N16 1_555 1_555
C23 N14 1_555 1_555
C24 N16 1_555 1_555
C26 N17 1_555 1_555
C26 N19 1_555 1_555
C27 N18 1_555 1_555
C28 N20 1_555 1_555
C28 O23 1_555 1_555
C29 N18 1_555 1_555
C30 N20 1_555 1_555
C32 N21 1_555 1_555
C32 N23 1_555 1_555
C33 N22 1_555 1_555
C34 N24 1_555 1_555
C35 N22 1_555 1_555
C36 N24 1_555 1_555
C38 N25 1_555 1_555
C38 N27 1_555 1_555
C39 N26 1_555 1_555
C40 N28 1_555 1_555
C41 N1 1_555 1_555
C41 N26 1_555 1_555
C42 N3 1_555 1_555
C42 N28 1_555 1_555

#END
