
#######################################################################
#
#                 Cambridge Crystallographic Data Centre
#                                CCDC 
#
#######################################################################
#
# If this CIF has been generated from an entry in the Cambridge 
# Structural Database, then it will include bibliographic, chemical, 
# crystal, experimental, refinement or atomic coordinate data resulting 
# from the CCDC's data processing and validation procedures.
#
#######################################################################

data_PEXSES
_symmetry_cell_setting           monoclinic
_symmetry_space_group_name_H-M   'C 2/c'
_symmetry_Int_Tables_number      15
_space_group_name_Hall           '-C 2yn'
loop_
_symmetry_equiv_pos_site_id
_symmetry_equiv_pos_as_xyz
1 x,y,z
2 -x,y,1/2-z
3 1/2+x,1/2+y,z
4 1/2-x,1/2+y,1/2-z
5 -x,-y,-z
6 x,-y,1/2+z
7 1/2-x,1/2-y,-z
8 1/2+x,1/2-y,1/2+z
_cell_length_a                   26.2615(14)
_cell_length_b                   18.7064(11)
_cell_length_c                   20.1780(11)
_cell_angle_alpha                90
_cell_angle_beta                 105.513(2)
_cell_angle_gamma                90
_cell_volume                     9551.49
loop_
_atom_site_label
_atom_site_type_symbol
_atom_site_fract_x
_atom_site_fract_y
_atom_site_fract_z
Zn1 Zn 0.36025(4) 0.04254(6) 0.32058(6)
Cl2 Cl 0.32679(6) 0.15231(8) 0.29700(8)
Cl3 Cl 0.31245(7) -0.03376(9) 0.24005(11)
Cl4 Cl 0.44732(7) 0.04342(17) 0.3295(2)
Cl5 Cl 0.3462(2) 0.0112(3) 0.42260(16)
O1 O -0.01909(15) 0.2035(2) 0.49480(18)
O2 O 0.03406(16) 0.1335(2) 0.40200(19)
O3 O 0.11239(16) 0.1011(2) 0.52193(18)
O4 O 0.15510(16) 0.2592(3) 0.5662(2)
O5 O 0.05612(19) 0.3346(2) 0.5389(2)
Sm1 Sm 0.071198(9) 0.215647(13) 0.495559(11)
C1 C 0.14449(18) 0.2261(2) 0.3734(2)
C2 C 0.18299(18) 0.2070(2) 0.2836(2)
H1 H 0.2213 0.2130 0.2889
C3 C 0.15338(18) 0.2793(2) 0.2731(2)
H2 H 0.1771 0.3196 0.2702
C4 C 0.11893(19) 0.2051(3) 0.1787(2)
C5 C 0.10879(18) 0.3474(2) 0.3511(2)
H3 H 0.1261 0.3894 0.3379
H4 H 0.1148 0.3486 0.4011
C6 C -0.08082(18) 0.3259(3) 0.3273(2)
H5 H -0.0710 0.3154 0.3767
H6 H -0.1019 0.3698 0.3201
C7 C 0.01517(18) 0.3225(2) 0.3458(2)
C8 C -0.02975(18) 0.3827(2) 0.2476(2)
H7 H -0.0431 0.4316 0.2513
C9 C 0.1833(2) 0.1077(3) 0.1991(2)
H8 H 0.2209 0.1185 0.2071
H9 H 0.1682 0.1018 0.1495
C10 C 0.20261(19) 0.1218(2) 0.3855(2)
H10 H 0.2401 0.1299 0.3890
H11 H 0.1982 0.1226 0.4322
C11 C 0.1593(2) -0.0186(3) 0.1951(3)
C12 C 0.20841(18) 0.0247(3) 0.3019(2)
H12 H 0.2461 0.0374 0.3088
C13 C 0.20094(18) -0.0575(3) 0.3066(2)
H13 H 0.2352 -0.0828 0.3222
C14 C 0.16675(19) 0.0004(3) 0.3875(2)
C15 C 0.16843(18) -0.1498(2) 0.2118(2)
H14 H 0.1654 -0.1491 0.1624
H15 H 0.2007 -0.1760 0.2345
C16 C 0.16083(19) -0.1305(3) 0.3857(2)
H16 H 0.1530 -0.1218 0.4299
H17 H 0.1932 -0.1592 0.3947
C17 C 0.07933(18) -0.2056(2) 0.1735(2)
C18 C 0.12507(18) -0.2203(2) 0.2897(2)
H18 H 0.1571 -0.2500 0.3068
C19 C 0.07387(18) -0.2658(2) 0.2734(2)
H19 H 0.0816 -0.3176 0.2795
C20 C 0.07307(19) -0.1844(3) 0.3604(2)
C21 C -0.00200(18) -0.2756(2) 0.1638(2)
H20 H -0.0051 -0.2715 0.1144
H21 H -0.0037 -0.3265 0.1745
N1 N 0.17201(15) 0.1796(2) 0.34621(18)
N2 N 0.13316(16) 0.2846(2) 0.3332(2)
N3 N 0.15769(15) 0.1670(2) 0.22251(19)
N4 N 0.11280(15) 0.2683(2) 0.20850(19)
N5 N 0.05279(15) 0.3523(2) 0.31931(19)
N6 N -0.03299(14) 0.3382(2) 0.30571(19)
N7 N 0.17764(16) 0.0415(2) 0.2334(2)
N8 N 0.17294(16) -0.0768(2) 0.23738(19)
N9 N 0.18794(16) 0.0526(2) 0.35620(19)
N10 N 0.17004(16) -0.0628(2) 0.35652(19)
N11 N 0.12329(15) -0.1871(2) 0.22355(19)
N12 N 0.04880(14) -0.2478(2) 0.20162(18)
N13 N 0.11758(15) -0.1711(2) 0.34167(19)
N14 N 0.04625(15) -0.2394(2) 0.32133(19)
O6 O 0.13273(14) 0.21753(18) 0.42863(17)
O7 O 0.02490(13) 0.28877(17) 0.40124(17)
O8 O 0.09397(15) 0.1847(2) 0.12179(18)
O9 O 0.13551(19) -0.0200(2) 0.13417(19)
O10 O 0.06986(13) -0.18680(19) 0.11259(15)
O11 O 0.05853(14) -0.1530(2) 0.40611(17)
O12 O 0.14804(16) 0.0085(2) 0.43731(18)
C1A C -0.14449(18) 0.2261(2) 0.1266(2)
C2A C -0.18299(18) 0.2070(2) 0.2164(2)
H1A H -0.2213 0.2130 0.2111
C3A C -0.15338(18) 0.2793(2) 0.2269(2)
H2A H -0.1771 0.3196 0.2298
C4A C -0.11893(19) 0.2051(3) 0.3213(2)
C5A C -0.10879(18) 0.3474(2) 0.1489(2)
H3A H -0.1261 0.3894 0.1621
H4A H -0.1148 0.3486 0.0989
C6A C 0.08082(18) 0.3259(3) 0.1727(2)
H5A H 0.0710 0.3154 0.1233
H6A H 0.1019 0.3698 0.1799
C7A C -0.01517(18) 0.3225(2) 0.1542(2)
C8A C 0.02975(18) 0.3827(2) 0.2524(2)
H7A H 0.0431 0.4316 0.2487
C9A C -0.1833(2) 0.1077(3) 0.3009(2)
H8A H -0.2209 0.1185 0.2929
H9A H -0.1682 0.1018 0.3505
C10A C -0.20261(19) 0.1218(2) 0.1145(2)
H10A H -0.2401 0.1299 0.1110
H11A H -0.1982 0.1226 0.0678
C11A C -0.1593(2) -0.0186(3) 0.3049(3)
C12A C -0.20841(18) 0.0247(3) 0.1981(2)
H12A H -0.2461 0.0374 0.1912
C13A C -0.20094(18) -0.0575(3) 0.1934(2)
H13A H -0.2352 -0.0828 0.1778
C14A C -0.16675(19) 0.0004(3) 0.1125(2)
C15A C -0.16843(18) -0.1498(2) 0.2882(2)
H14A H -0.1654 -0.1491 0.3376
H15A H -0.2007 -0.1760 0.2655
C16A C -0.16083(19) -0.1305(3) 0.1143(2)
H16A H -0.1530 -0.1218 0.0701
H17A H -0.1932 -0.1592 0.1053
C17A C -0.07933(18) -0.2056(2) 0.3265(2)
C18A C -0.12507(18) -0.2203(2) 0.2103(2)
H18A H -0.1571 -0.2500 0.1932
C19A C -0.07387(18) -0.2658(2) 0.2266(2)
H19A H -0.0816 -0.3176 0.2205
C20A C -0.07307(19) -0.1844(3) 0.1396(2)
C21A C 0.00200(18) -0.2756(2) 0.3362(2)
H20A H 0.0051 -0.2715 0.3856
H21A H 0.0037 -0.3265 0.3255
N1A N -0.17201(15) 0.1796(2) 0.15379(18)
N2A N -0.13316(16) 0.2846(2) 0.1668(2)
N3A N -0.15769(15) 0.1670(2) 0.27749(19)
N4A N -0.11280(15) 0.2683(2) 0.29150(19)
N5A N -0.05279(15) 0.3523(2) 0.18069(19)
N6A N 0.03299(14) 0.3382(2) 0.19429(19)
N7A N -0.17764(16) 0.0415(2) 0.2666(2)
N8A N -0.17294(16) -0.0768(2) 0.26262(19)
N9A N -0.18794(16) 0.0526(2) 0.14380(19)
N10A N -0.17004(16) -0.0628(2) 0.14348(19)
N11A N -0.12329(15) -0.1871(2) 0.27645(19)
N12A N -0.04880(14) -0.2478(2) 0.29838(18)
N13A N -0.11758(15) -0.1711(2) 0.15833(19)
N14A N -0.04625(15) -0.2394(2) 0.17867(19)
O6A O -0.13273(14) 0.21753(18) 0.07137(17)
O7A O -0.02490(13) 0.28877(17) 0.09876(17)
O8A O -0.09397(15) 0.1847(2) 0.37821(18)
O9A O -0.13551(19) -0.0200(2) 0.36583(19)
O10A O -0.06986(13) -0.18680(19) 0.38741(15)
O11A O -0.05853(14) -0.1530(2) 0.09389(17)
O12A O -0.14804(16) 0.0085(2) 0.06269(18)
O1A O 0.01909(15) 0.2035(2) 0.00520(18)
O2A O -0.03406(16) 0.1335(2) 0.09800(19)
O3A O -0.11239(16) 0.1011(2) -0.02193(18)
O4A O -0.15510(16) 0.2592(3) -0.0662(2)
O5A O -0.05612(19) 0.3346(2) -0.0389(2)
Sm1A Sm -0.071198(9) 0.215647(13) 0.004441(11)
Sm1D Sm -0.071198(9) -0.215647(13) 0.504441(11)
Sm1E Sm 0.071198(9) -0.215647(13) -0.004441(11)
O10D O -0.06986(13) 0.18680(19) -0.11259(15)
O10E O 0.06986(13) 0.18680(19) 0.61259(15)
Cl1 Cl 0.27524(9) -0.22711(13) 0.35703(13)
Zn2? Zn 0.36481(10) 0.04729(12) 0.26701(16)
Cl6? Cl 0.4008(3) 0.0541(3) 0.1725(5)
loop_
_geom_bond_atom_site_label_1
_geom_bond_atom_site_label_2
_geom_bond_site_symmetry_1
_geom_bond_site_symmetry_2
Zn1 Cl2 1_555 1_555
Cl3 Zn1 1_555 1_555
Cl4 Zn1 1_555 1_555
Cl5 Zn1 1_555 1_555
O1 Sm1 1_555 1_555
O2 Sm1 1_555 1_555
O3 Sm1 1_555 1_555
O4 Sm1 1_555 1_555
O5 Sm1 1_555 1_555
Sm1 O6 1_555 1_555
C1 N1 1_555 1_555
C2 H1 1_555 1_555
C3 C2 1_555 1_555
H2 C3 1_555 1_555
C4 N3 1_555 1_555
C5 H3 1_555 1_555
H4 C5 1_555 1_555
C6 H5 1_555 1_555
H6 C6 1_555 1_555
C7 N5 1_555 1_555
C8 H7 1_555 1_555
C9 H8 1_555 1_555
H9 C9 1_555 1_555
C10 H10 1_555 1_555
H11 C10 1_555 1_555
C11 N7 1_555 1_555
C12 H12 1_555 1_555
C13 C12 1_555 1_555
H13 C13 1_555 1_555
C14 N9 1_555 1_555
C15 H14 1_555 1_555
H15 C15 1_555 1_555
C16 H16 1_555 1_555
H17 C16 1_555 1_555
C17 N11 1_555 1_555
C18 H18 1_555 1_555
C19 C18 1_555 1_555
H19 C19 1_555 1_555
C20 N13 1_555 1_555
C21 H20 1_555 1_555
H21 C21 1_555 1_555
N1 C2 1_555 1_555
N2 C1 1_555 1_555
N3 C2 1_555 1_555
N4 C3 1_555 1_555
N5 C5 1_555 1_555
N6 C6 1_555 1_555
N7 C9 1_555 1_555
N8 C11 1_555 1_555
N9 C10 1_555 1_555
N10 C13 1_555 1_555
N11 C15 1_555 1_555
N12 C17 1_555 1_555
N13 C16 1_555 1_555
N14 C19 1_555 1_555
O6 C1 1_555 1_555
O7 Sm1 1_555 1_555
O8 C4 1_555 1_555
O9 C11 1_555 1_555
O10 C17 1_555 1_555
O11 C20 1_555 1_555
O12 C14 1_555 1_555
C1A N1A 1_555 1_555
C2A H1A 1_555 1_555
C3A C2A 1_555 1_555
H2A C3A 1_555 1_555
C4A N3A 1_555 1_555
C5A H3A 1_555 1_555
H4A C5A 1_555 1_555
C6A N4 1_555 1_555
H5A C6A 1_555 1_555
H6A C6A 1_555 1_555
C7A N5A 1_555 1_555
C8A C8 1_555 1_555
H7A C8A 1_555 1_555
C9A H8A 1_555 1_555
H9A C9A 1_555 1_555
C10A H10A 1_555 1_555
H11A C10A 1_555 1_555
C11A N7A 1_555 1_555
C12A H12A 1_555 1_555
C13A C12A 1_555 1_555
H13A C13A 1_555 1_555
C14A N9A 1_555 1_555
C15A H14A 1_555 1_555
H15A C15A 1_555 1_555
C16A H16A 1_555 1_555
H17A C16A 1_555 1_555
C17A N11A 1_555 1_555
C18A H18A 1_555 1_555
C19A C18A 1_555 1_555
H19A C19A 1_555 1_555
C20A N13A 1_555 1_555
C21A N14 1_555 1_555
H20A C21A 1_555 1_555
H21A C21A 1_555 1_555
N1A C2A 1_555 1_555
N2A C1A 1_555 1_555
N3A C2A 1_555 1_555
N4A C6 1_555 1_555
N5A C8 1_555 1_555
N6A C6A 1_555 1_555
N7A C9A 1_555 1_555
N8A C11A 1_555 1_555
N9A C10A 1_555 1_555
N10A C13A 1_555 1_555
N11A C15A 1_555 1_555
N12A C17A 1_555 1_555
N13A C16A 1_555 1_555
N14A C21 1_555 1_555
O6A C1A 1_555 1_555
O7A C7A 1_555 1_555
O8A C4A 1_555 1_555
O9A C11A 1_555 1_555
O10A C17A 1_555 1_555
O11A C20A 1_555 1_555
O12A C14A 1_555 1_555
O1A Sm1A 1_555 1_555
O2A Sm1A 1_555 1_555
O3A Sm1A 1_555 1_555
O4A Sm1A 1_555 1_555
O5A Sm1A 1_555 1_555
Sm1A O6A 1_555 1_555
Sm1D O10A 1_555 1_555
Sm1E O10 1_555 1_555
O10D Sm1A 1_555 1_555
O10E Sm1 1_555 1_555
C3 N2 1_555 1_555
C4 N4 1_555 1_555
C5 N2 1_555 1_555
C7 N6 1_555 1_555
C7 O7 1_555 1_555
C8 N6 1_555 1_555
C9 N3 1_555 1_555
C10 N1 1_555 1_555
C12 N7 1_555 1_555
C12 N9 1_555 1_555
C13 N8 1_555 1_555
C14 N10 1_555 1_555
C15 N8 1_555 1_555
C16 N10 1_555 1_555
C18 N11 1_555 1_555
C18 N13 1_555 1_555
C19 N12 1_555 1_555
C20 N14 1_555 1_555
C21 N12 1_555 1_555
N5 C8A 1_555 1_555
C3A N2A 1_555 1_555
C3A N4A 1_555 1_555
C4A N4A 1_555 1_555
C5A N2A 1_555 1_555
C5A N5A 1_555 1_555
C7A N6A 1_555 1_555
C8A N6A 1_555 1_555
C9A N3A 1_555 1_555
C10A N1A 1_555 1_555
C12A N7A 1_555 1_555
C12A N9A 1_555 1_555
C13A N8A 1_555 1_555
C14A N10A 1_555 1_555
C15A N8A 1_555 1_555
C16A N10A 1_555 1_555
C18A N11A 1_555 1_555
C18A N13A 1_555 1_555
C19A N12A 1_555 1_555
C19A N14A 1_555 1_555
C20A N14A 1_555 1_555
C21A N12A 1_555 1_555
O7A Sm1A 1_555 1_555

#END
