
#######################################################################
#
#                 Cambridge Crystallographic Data Centre
#                                CCDC 
#
#######################################################################
#
# If this CIF has been generated from an entry in the Cambridge 
# Structural Database, then it will include bibliographic, chemical, 
# crystal, experimental, refinement or atomic coordinate data resulting 
# from the CCDC's data processing and validation procedures.
#
#######################################################################

data_PEXSUI
_symmetry_cell_setting           triclinic
_symmetry_space_group_name_H-M   'P -1'
_symmetry_Int_Tables_number      2
_space_group_name_Hall           '-P 1'
loop_
_symmetry_equiv_pos_site_id
_symmetry_equiv_pos_as_xyz
1 x,y,z
2 -x,-y,-z
_cell_length_a                   16.9138(8)
_cell_length_b                   17.2483(8)
_cell_length_c                   20.4015(9)
_cell_angle_alpha                98.006(2)
_cell_angle_beta                 112.6410(10)
_cell_angle_gamma                109.750(2)
_cell_volume                     4915.16
loop_
_atom_site_label
_atom_site_type_symbol
_atom_site_fract_x
_atom_site_fract_y
_atom_site_fract_z
Cl2 Cl 0.3192(3) -0.2004(3) 0.3896(2)
Cl3 Cl 0.4908(5) 0.0426(5) -0.0180(4)
Cl4 Cl -0.0186(4) 0.1090(4) -0.0564(4)
Zn1 Zn -0.26006(14) 0.38977(13) 0.07092(11)
Cl5 Cl -0.2716(2) 0.2787(2) 0.12099(19)
Cl6 Cl -0.4052(2) 0.3888(2) 0.0141(2)
Cl7 Cl -0.2036(3) 0.3812(3) -0.0121(2)
Cl8 Cl -0.1387(4) 0.5215(3) 0.1478(4)
O1 O -0.1463(3) 0.1309(3) 0.0188(2)
O2 O -0.1098(3) -0.0856(3) 0.1292(2)
O3 O 0.0320(3) 0.1156(3) 0.1652(3)
O4 O -0.2700(3) -0.0623(3) 0.1339(2)
O5 O -0.0827(3) -0.0048(4) 0.0213(3)
O6 O -0.2809(3) 0.0845(3) 0.0866(3)
O7 O 0.7604(3) 0.3212(2) 0.5227(2)
O8 O 0.5994(3) 0.3250(3) 0.5411(2)
O9 O 0.6563(3) 0.5031(2) 0.3943(2)
O10 O 0.7797(3) 0.4038(3) 0.4138(2)
O11 O 0.5815(3) 0.4709(3) 0.4973(3)
O12 O 0.4667(3) 0.3225(3) 0.3739(3)
Ce1 Ce -0.145194(19) 0.042142(18) 0.107377(15)
Ce2 Ce 0.642876(19) 0.375885(17) 0.444261(15)
O13 O 0.0153(3) 0.2754(2) 0.0480(2)
O14 O 0.0687(3) -0.0643(3) 0.2236(2)
O15 O 0.3401(3) 0.5637(3) 0.3243(2)
O16 O 0.5017(3) 0.4990(3) 0.2720(2)
C1 C -0.0348(3) 0.0947(3) 0.3115(3)
C2 C 0.0699(3) 0.1328(3) 0.4370(3)
H1 H 0.0571 0.1005 0.4710
C3 C 0.0218(4) 0.1961(3) 0.4264(3)
H2 H -0.0132 0.1942 0.4559
C4 C 0.1861(4) 0.2751(3) 0.4784(3)
C5 C -0.1030(3) 0.2009(3) 0.3086(3)
H3 H -0.1563 0.1564 0.2627
H4 H -0.1289 0.2184 0.3404
C6 C 0.0925(4) 0.3600(3) 0.4626(3)
H5 H 0.1508 0.4038 0.5057
H6 H 0.0399 0.3528 0.4743
C7 C -0.0586(4) 0.2672(3) 0.2217(3)
C8 C -0.0163(3) 0.3625(3) 0.3356(3)
H7 H -0.0599 0.3755 0.3516
C9 C 0.0040(4) 0.4137(3) 0.2830(3)
H8 H -0.0340 0.4473 0.2705
C10 C 0.1438(4) 0.4573(3) 0.3940(3)
C11 C -0.0349(4) 0.3614(4) 0.1465(3)
H9 H -0.0796 0.3065 0.1064
H10 H -0.0639 0.4022 0.1398
C12 C 0.1537(4) 0.5410(3) 0.3062(3)
H11 H 0.2110 0.5832 0.3510
H12 H 0.1123 0.5696 0.2875
C13 C 0.0643(4) 0.3513(3) 0.0864(3)
C14 C 0.1155(4) 0.4866(3) 0.1694(3)
H13 H 0.0813 0.5232 0.1565
C15 C 0.1803(4) 0.4936(3) 0.1332(3)
H14 H 0.1809 0.5369 0.1060
C16 C 0.2702(4) 0.5352(3) 0.2626(3)
C17 C 0.1649(4) 0.3875(4) 0.0239(3)
H15 H 0.1733 0.4355 0.0026
H16 H 0.1119 0.3354 -0.0158
C18 C 0.3611(4) 0.5527(3) 0.1906(3)
H17 H 0.3566 0.5896 0.1581
H18 H 0.4134 0.5890 0.2403
C19 C 0.2500(4) 0.2967(3) 0.0221(3)
C20 C 0.3446(3) 0.4439(3) 0.0828(3)
H19 H 0.3482 0.4865 0.0549
C21 C 0.4067(4) 0.3977(3) 0.0798(3)
H20 H 0.4425 0.4203 0.0528
C22 C 0.4555(4) 0.4689(3) 0.2043(3)
C23 C 0.3615(4) 0.2428(3) 0.0088(3)
H21 H 0.4048 0.2701 -0.0107
H22 H 0.3030 0.1979 -0.0334
C24 C 0.5511(4) 0.3973(3) 0.1828(3)
H23 H 0.5961 0.4346 0.2343
H24 H 0.5822 0.4123 0.1516
C25 C 0.3603(3) 0.1183(3) 0.0574(3)
C26 C 0.5040(3) 0.2415(3) 0.1139(3)
H25 H 0.5444 0.2623 0.0898
C27 C 0.5187(3) 0.1673(3) 0.1445(3)
H26 H 0.5621 0.1497 0.1314
C28 C 0.5616(3) 0.2850(3) 0.2428(3)
C29 C 0.4016(4) 0.0140(3) 0.1195(3)
H27 H 0.3425 -0.0284 0.0762
H28 H 0.4522 -0.0027 0.1213
C30 C 0.5990(3) 0.1668(3) 0.2788(3)
H29 H 0.6514 0.2135 0.3237
H30 H 0.6256 0.1330 0.2588
C31 C 0.3054(4) -0.0254(3) 0.1851(3)
C32 C 0.4685(3) 0.0226(3) 0.2565(3)
H31 H 0.5022 -0.0129 0.2506
C33 C 0.4176(4) -0.0058(3) 0.3039(3)
H32 H 0.4285 -0.0537 0.3215
C34 C 0.5254(3) 0.1391(3) 0.3609(3)
C35 C 0.2413(4) -0.0835(3) 0.2657(3)
H33 H 0.1847 -0.1154 0.2173
H34 H 0.2572 -0.1262 0.2883
C36 C 0.4470(4) 0.0743(3) 0.4318(3)
H35 H 0.4994 0.1256 0.4727
H36 H 0.4509 0.0232 0.4459
C37 C 0.1309(4) -0.0347(3) 0.2886(3)
C38 C 0.2727(3) -0.0037(3) 0.3940(3)
H37 H 0.2845 -0.0503 0.4136
C39 C 0.2080(3) 0.0234(3) 0.4186(3)
H38 H 0.1925 -0.0071 0.4528
C40 C 0.3539(3) 0.1422(3) 0.4629(3)
C41 C 0.0359(4) -0.0060(3) 0.3456(3)
H39 H 0.0253 -0.0355 0.3812
H40 H -0.0150 -0.0427 0.2955
C42 C 0.2447(3) 0.1645(3) 0.5065(3)
H41 H 0.3026 0.2164 0.5413
H42 H 0.2256 0.1284 0.5357
N1 N 0.0296(3) 0.0759(3) 0.3620(2)
N2 N -0.0412(3) 0.1627(3) 0.3470(2)
N3 N 0.1700(3) 0.1900(3) 0.4677(2)
N4 N 0.1001(3) 0.2790(3) 0.4515(2)
N5 N -0.0586(3) 0.2732(3) 0.2898(2)
N6 N -0.0198(3) 0.3470(3) 0.2176(2)
N7 N 0.0769(3) 0.3906(3) 0.3982(2)
N8 N 0.1059(3) 0.4700(3) 0.3265(2)
N9 N 0.0510(3) 0.3952(3) 0.1399(2)
N10 N 0.1413(3) 0.4069(3) 0.0832(2)
N11 N 0.1804(3) 0.5156(3) 0.2497(2)
N12 N 0.2725(3) 0.5190(3) 0.1961(2)
N13 N 0.2502(3) 0.3738(3) 0.0486(2)
N14 N 0.3395(3) 0.3072(3) 0.0415(2)
N15 N 0.3825(3) 0.4859(3) 0.1617(2)
N16 N 0.4693(3) 0.4153(3) 0.1581(2)
N17 N 0.4045(3) 0.2024(3) 0.0611(2)
N18 N 0.4229(3) 0.0982(3) 0.1088(2)
N19 N 0.5299(3) 0.3079(3) 0.1801(2)
N20 N 0.5577(3) 0.2045(3) 0.2245(2)
N21 N 0.3921(3) 0.0100(3) 0.1860(2)
N22 N 0.3190(3) -0.0324(3) 0.2533(2)
N23 N 0.5334(3) 0.1116(3) 0.2994(2)
N24 N 0.4595(3) 0.0733(3) 0.3661(2)
N25 N 0.2190(3) -0.0335(3) 0.3130(2)
N26 N 0.1240(3) 0.0020(3) 0.3488(2)
N27 N 0.3589(3) 0.0751(3) 0.4242(2)
N28 N 0.2640(3) 0.1171(3) 0.4554(2)
O17 O -0.0814(3) 0.0549(2) 0.24391(19)
O18 O -0.0901(3) 0.1987(2) 0.17282(19)
O19 O 0.1777(3) 0.2276(3) -0.0122(2)
O20 O 0.2767(2) 0.0682(2) 0.01331(19)
O21 O 0.2270(3) -0.0475(3) 0.1306(2)
O22 O 0.2642(3) 0.3360(2) 0.5076(2)
O23 O 0.2262(3) 0.5006(2) 0.44371(19)
O24 O 0.5919(3) 0.3309(2) 0.30649(19)
O25 O 0.5733(3) 0.2127(2) 0.4063(2)
O26 O 0.4189(3) 0.2147(2) 0.4994(2)
Ce1A Ce 0.145194(19) -0.042142(18) -0.107377(15)
Ce2A Ce 0.357124(19) 0.624115(17) 0.555739(15)
O20A O -0.2767(2) -0.0682(2) -0.01331(19)
O23A O 0.7738(3) 0.4994(2) 0.55629(19)
Cl9 Cl 0.67683(12) 0.00383(11) 0.25780(9)
Cl10 Cl 0.80430(12) 0.18567(11) 0.43784(9)
Cl11 Cl 0.62534(11) -0.02503(13) 0.41527(10)
Cl12 Cl 0.86288(11) 0.00211(11) 0.42619(11)
Zn2 Zn 0.74003(5) 0.04015(5) 0.38385(4)
Cl1 Cl 0.0000 0.5000 0.5000
Zn3? Zn -0.3239(2) 0.30749(18) 0.00948(14)
Cl13? Cl -0.4092(6) 0.1916(3) -0.0967(3)
loop_
_geom_bond_atom_site_label_1
_geom_bond_atom_site_label_2
_geom_bond_site_symmetry_1
_geom_bond_site_symmetry_2
Zn1 Cl5 1_555 1_555
Cl6 Zn1 1_555 1_555
Cl7 Zn1 1_555 1_555
Cl8 Zn1 1_555 1_555
O1 Ce1 1_555 1_555
O2 Ce1 1_555 1_555
O3 Ce1 1_555 1_555
O4 Ce1 1_555 1_555
O5 Ce1 1_555 1_555
O6 Ce1 1_555 1_555
O7 Ce2 1_555 1_555
O8 Ce2 1_555 1_555
O9 Ce2 1_555 1_555
O10 Ce2 1_555 1_555
O11 Ce2 1_555 1_555
O12 Ce2 1_555 1_555
Ce1 O17 1_555 1_555
Ce2 O24 1_555 1_555
O13 C13 1_555 1_555
O14 C37 1_555 1_555
O15 C16 1_555 1_555
O16 C22 1_555 1_555
C1 N1 1_555 1_555
C2 H1 1_555 1_555
C3 C2 1_555 1_555
H2 C3 1_555 1_555
C4 N3 1_555 1_555
C5 H3 1_555 1_555
H4 C5 1_555 1_555
C6 H5 1_555 1_555
H6 C6 1_555 1_555
C7 N5 1_555 1_555
C8 H7 1_555 1_555
C9 C8 1_555 1_555
H8 C9 1_555 1_555
C10 N7 1_555 1_555
C11 H9 1_555 1_555
H10 C11 1_555 1_555
C12 H11 1_555 1_555
H12 C12 1_555 1_555
C13 N9 1_555 1_555
C14 H13 1_555 1_555
C15 C14 1_555 1_555
H14 C15 1_555 1_555
C16 N11 1_555 1_555
C17 H15 1_555 1_555
H16 C17 1_555 1_555
C18 H17 1_555 1_555
H18 C18 1_555 1_555
C19 N13 1_555 1_555
C20 H19 1_555 1_555
C21 C20 1_555 1_555
H20 C21 1_555 1_555
C22 N15 1_555 1_555
C23 H21 1_555 1_555
H22 C23 1_555 1_555
C24 H23 1_555 1_555
H24 C24 1_555 1_555
C25 N17 1_555 1_555
C26 H25 1_555 1_555
C27 C26 1_555 1_555
H26 C27 1_555 1_555
C28 N19 1_555 1_555
C29 H27 1_555 1_555
H28 C29 1_555 1_555
C30 H29 1_555 1_555
H30 C30 1_555 1_555
C31 N21 1_555 1_555
C32 H31 1_555 1_555
C33 C32 1_555 1_555
H32 C33 1_555 1_555
C34 N23 1_555 1_555
C35 H33 1_555 1_555
H34 C35 1_555 1_555
C36 H35 1_555 1_555
H36 C36 1_555 1_555
C37 N25 1_555 1_555
C38 H37 1_555 1_555
C39 C38 1_555 1_555
H38 C39 1_555 1_555
C40 N27 1_555 1_555
C41 H39 1_555 1_555
H40 C41 1_555 1_555
C42 H41 1_555 1_555
H42 C42 1_555 1_555
N1 C2 1_555 1_555
N2 C1 1_555 1_555
N3 C2 1_555 1_555
N4 C3 1_555 1_555
N5 C5 1_555 1_555
N6 C7 1_555 1_555
N7 C6 1_555 1_555
N8 C9 1_555 1_555
N9 C11 1_555 1_555
N10 C13 1_555 1_555
N11 C12 1_555 1_555
N12 C15 1_555 1_555
N13 C17 1_555 1_555
N14 C19 1_555 1_555
N15 C18 1_555 1_555
N16 C21 1_555 1_555
N17 C23 1_555 1_555
N18 C25 1_555 1_555
N19 C24 1_555 1_555
N20 C27 1_555 1_555
N21 C29 1_555 1_555
N22 C31 1_555 1_555
N23 C30 1_555 1_555
N24 C33 1_555 1_555
N25 C35 1_555 1_555
N26 C37 1_555 1_555
N27 C36 1_555 1_555
N28 C39 1_555 1_555
O17 C1 1_555 1_555
O18 Ce1 1_555 1_555
O19 C19 1_555 1_555
O20 C25 1_555 1_555
O21 C31 1_555 1_555
O22 C4 1_555 1_555
O23 C10 1_555 1_555
O24 C28 1_555 1_555
O25 Ce2 1_555 1_555
O26 C40 1_555 1_555
Cl9 Zn2 1_555 1_555
Cl10 Zn2 1_555 1_555
Cl11 Zn2 1_555 1_555
Cl12 Zn2 1_555 1_555
Ce1A O20 1_555 1_555
Ce2A O23 1_555 1_555
O20A Ce1 1_555 1_555
O23A Ce2 1_555 1_555
C3 N2 1_555 1_555
C4 N4 1_555 1_555
C5 N2 1_555 1_555
C6 N4 1_555 1_555
C7 O18 1_555 1_555
C8 N5 1_555 1_555
C8 N7 1_555 1_555
C9 N6 1_555 1_555
C10 N8 1_555 1_555
C11 N6 1_555 1_555
C12 N8 1_555 1_555
C14 N9 1_555 1_555
C14 N11 1_555 1_555
C15 N10 1_555 1_555
C16 N12 1_555 1_555
C17 N10 1_555 1_555
C18 N12 1_555 1_555
C20 N13 1_555 1_555
C20 N15 1_555 1_555
C21 N14 1_555 1_555
C22 N16 1_555 1_555
C23 N14 1_555 1_555
C24 N16 1_555 1_555
C26 N17 1_555 1_555
C26 N19 1_555 1_555
C27 N18 1_555 1_555
C28 N20 1_555 1_555
C29 N18 1_555 1_555
C30 N20 1_555 1_555
C32 N21 1_555 1_555
C32 N23 1_555 1_555
C33 N22 1_555 1_555
C34 N24 1_555 1_555
C34 O25 1_555 1_555
C35 N22 1_555 1_555
C36 N24 1_555 1_555
C38 N25 1_555 1_555
C38 N27 1_555 1_555
C39 N26 1_555 1_555
C40 N28 1_555 1_555
C41 N1 1_555 1_555
C41 N26 1_555 1_555
C42 N3 1_555 1_555
C42 N28 1_555 1_555

#END
