
#######################################################################
#
#                 Cambridge Crystallographic Data Centre
#                                CCDC 
#
#######################################################################
#
# If this CIF has been generated from an entry in the Cambridge 
# Structural Database, then it will include bibliographic, chemical, 
# crystal, experimental, refinement or atomic coordinate data resulting 
# from the CCDC's data processing and validation procedures.
#
#######################################################################

data_PEXTIW
_symmetry_cell_setting           monoclinic
_symmetry_space_group_name_H-M   'P 21/n'
_symmetry_Int_Tables_number      14
_space_group_name_Hall           '-P 2yn'
loop_
_symmetry_equiv_pos_site_id
_symmetry_equiv_pos_as_xyz
1 x,y,z
2 1/2-x,1/2+y,1/2-z
3 -x,-y,-z
4 1/2+x,1/2-y,1/2+z
_cell_length_a                   10.205(2)
_cell_length_b                   22.221(4)
_cell_length_c                   12.537(3)
_cell_angle_alpha                90
_cell_angle_beta                 94.98(3)
_cell_angle_gamma                90
_cell_volume                     2832.22
loop_
_atom_site_label
_atom_site_type_symbol
_atom_site_fract_x
_atom_site_fract_y
_atom_site_fract_z
U1 U -0.085910(11) 0.140580(5) -0.280890(8)
Na1 Na -0.38498(15) -0.04890(6) 0.03849(12)
Na2 Na 0.39481(14) 0.03390(7) -0.42531(12)
O1 O -0.1890(2) 0.09386(10) -0.13482(19)
O2 O -0.2266(3) 0.01857(11) -0.0237(2)
O3 O 0.0419(2) 0.09013(10) -0.40228(18)
O4 O 0.1583(2) 0.01245(11) -0.45793(19)
O5 O -0.2776(2) 0.09214(10) -0.36616(18)
O6 O -0.4158(2) 0.06801(11) -0.50789(19)
O7 O 0.0292(2) 0.22230(11) -0.35010(18)
O8 O 0.0769(3) 0.28765(11) -0.4769(2)
O9 O -0.2424(2) 0.21340(10) -0.24804(18)
O10 O -0.3139(3) 0.29722(11) -0.1718(2)
O11 O 0.1222(2) 0.12719(11) -0.18109(19)
O12 O 0.2589(2) 0.13360(10) -0.0318(2)
O13 O 0.3548(4) 0.10551(17) -0.2990(3)
O14 O -0.4764(3) 0.03395(14) 0.1165(2)
O16 O 0.2791(3) 0.08932(14) -0.5901(2)
O17 O -0.5340(3) -0.11807(12) 0.1206(2)
O18 O 0.5795(3) -0.00648(14) -0.3015(2)
N1 N -0.0500(3) 0.02780(12) -0.2511(2)
N2 N -0.1634(3) 0.17538(12) -0.4699(2)
N3 N -0.0385(3) 0.20556(12) -0.1139(2)
C1 C -0.1027(3) -0.00144(14) -0.1718(2)
C2 C -0.0862(3) -0.06265(15) -0.1554(3)
H1 H -0.1241 -0.0819 -0.0999
C3 C -0.0121(4) -0.09464(15) -0.2234(3)
H2 H -0.0003 -0.1359 -0.2146
C4 C 0.0443(3) -0.06445(15) -0.3047(3)
H3 H 0.0958 -0.0849 -0.3506
C5 C 0.0222(3) -0.00296(14) -0.3161(2)
C6 C -0.1794(3) 0.03883(15) -0.1032(2)
C7 C 0.0797(3) 0.03503(15) -0.3995(2)
C8 C -0.2651(3) 0.14787(14) -0.5247(3)
C9 C -0.3075(3) 0.16470(15) -0.6284(3)
H4 H -0.3799 0.1461 -0.6647
C10 C -0.2399(4) 0.20994(15) -0.6774(3)
H5 H -0.2658 0.2218 -0.7472
C11 C -0.1328(4) 0.23724(15) -0.6203(3)
H6 H -0.0852 0.2671 -0.6516
C12 C -0.0986(3) 0.21897(14) -0.5161(3)
C13 C -0.3266(3) 0.09881(14) -0.4640(3)
C14 C 0.0125(3) 0.24575(14) -0.4436(2)
C15 C -0.1273(3) 0.24585(14) -0.0879(3)
C16 C -0.1145(3) 0.27657(15) 0.0091(3)
H7 H -0.1769 0.3047 0.0261
C17 C -0.0055(4) 0.26394(15) 0.0798(3)
H8 H 0.0060 0.2839 0.1452
C18 C 0.0862(3) 0.22168(15) 0.0530(3)
H9 H 0.1589 0.2124 0.1001
C19 C 0.0665(3) 0.19380(14) -0.0455(3)
C20 C -0.2389(3) 0.25405(15) -0.1747(3)
C21 C 0.1589(3) 0.14816(14) -0.0875(3)
H10 H -0.535(5) -0.149(2) 0.082(4)
H11 H 0.610(5) -0.032(2) -0.327(4)
H12 H 0.283(6) 0.111(2) -0.276(4)
H13 H 0.223(6) 0.073(2) -0.566(4)
H14 H -0.612(6) -0.111(2) 0.128(4)
H16 H -0.429(5) 0.062(2) 0.133(4)
H17 H 0.414(6) 0.111(3) -0.256(5)
H18 H 0.630(5) 0.023(3) -0.306(4)
H19 H 0.253(5) 0.119(3) -0.609(4)
H21 H -0.522(6) 0.029(3) 0.168(5)
Na1B Na -0.61502(15) 0.04890(6) -0.03849(12)
Na1B_2 Na 0.38498(15) 0.04890(6) -0.03849(12)
Na2_2 Na -0.60519(14) 0.03390(7) -0.42531(12)
Na2B Na -0.39481(14) -0.03390(7) -0.57469(12)
O6B O 0.4158(2) -0.06801(11) -0.49211(19)
O6_2 O 0.5842(2) 0.06801(11) -0.50789(19)
O12B O -0.2589(2) -0.13360(10) 0.0318(2)
O14B O -0.5236(3) -0.03395(14) -0.1165(2)
H16B H -0.571(5) -0.062(2) -0.133(4)
H21B H -0.478(6) -0.029(3) -0.168(5)
O15 O 0.2232(3) 0.38154(15) -0.3769(2)
H15 H 0.194(6) 0.354(2) -0.399(4)
H20 H 0.257(5) 0.399(2) -0.415(4)
loop_
_geom_bond_atom_site_label_1
_geom_bond_atom_site_label_2
_geom_bond_site_symmetry_1
_geom_bond_site_symmetry_2
U1 O1 1_555 1_555
Na1 O2 1_555 1_555
Na2 O4 1_555 1_555
O1 C6 1_555 1_555
O2 C6 1_555 1_555
O3 U1 1_555 1_555
O4 C7 1_555 1_555
O5 U1 1_555 1_555
O6 C13 1_555 1_555
O7 U1 1_555 1_555
O8 C14 1_555 1_555
O9 U1 1_555 1_555
O10 C20 1_555 1_555
O11 U1 1_555 1_555
O12 C21 1_555 1_555
O13 Na2 1_555 1_555
O14 Na1 1_555 1_555
O15 H15 1_555 1_555
O16 Na2 1_555 1_555
O17 Na1 1_555 1_555
O18 Na2 1_555 1_555
N1 U1 1_555 1_555
N2 U1 1_555 1_555
N3 U1 1_555 1_555
C1 N1 1_555 1_555
C2 C1 1_555 1_555
H1 C2 1_555 1_555
C3 C2 1_555 1_555
H2 C3 1_555 1_555
C4 C3 1_555 1_555
H3 C4 1_555 1_555
C5 N1 1_555 1_555
C6 C1 1_555 1_555
C7 O3 1_555 1_555
C8 N2 1_555 1_555
C9 C8 1_555 1_555
H4 C9 1_555 1_555
C10 C9 1_555 1_555
H5 C10 1_555 1_555
C11 C10 1_555 1_555
H6 C11 1_555 1_555
C12 N2 1_555 1_555
C13 O5 1_555 1_555
C14 O7 1_555 1_555
C15 N3 1_555 1_555
C16 C15 1_555 1_555
H7 C16 1_555 1_555
C17 C16 1_555 1_555
H8 C17 1_555 1_555
C18 C17 1_555 1_555
H9 C18 1_555 1_555
C19 N3 1_555 1_555
C20 O9 1_555 1_555
C21 O11 1_555 1_555
H10 O17 1_555 1_555
H11 O18 1_555 1_555
H12 O13 1_555 1_555
H13 O16 1_555 1_555
H14 O17 1_555 1_555
H16 O14 1_555 1_555
H17 O13 1_555 1_555
H18 O18 1_555 1_555
H19 O16 1_555 1_555
H20 O15 1_555 1_555
H21 O14 1_555 1_555
Na1B O14 1_555 1_555
Na1B_2 O12 1_555 1_555
Na2_2 O6 1_555 1_555
Na2B O6 1_555 1_555
O6B Na2 1_555 1_555
O6_2 Na2 1_555 1_555
O12B Na1 1_555 1_555
O14B Na1 1_555 1_555
H16B O14B 1_555 1_555
H21B O14B 1_555 1_555
C4 C5 1_555 1_555
C5 C7 1_555 1_555
C8 C13 1_555 1_555
C11 C12 1_555 1_555
C12 C14 1_555 1_555
C15 C20 1_555 1_555
C18 C19 1_555 1_555
C19 C21 1_555 1_555
Na1B O14B 1_555 1_555

#END
