
#######################################################################
#
#                 Cambridge Crystallographic Data Centre
#                                CCDC 
#
#######################################################################
#
# If this CIF has been generated from an entry in the Cambridge 
# Structural Database, then it will include bibliographic, chemical, 
# crystal, experimental, refinement or atomic coordinate data resulting 
# from the CCDC's data processing and validation procedures.
#
#######################################################################

data_PEXTAP
_symmetry_cell_setting           monoclinic
_symmetry_space_group_name_H-M   'C 2/c'
_symmetry_Int_Tables_number      15
_space_group_name_Hall           '-C 2yn'
loop_
_symmetry_equiv_pos_site_id
_symmetry_equiv_pos_as_xyz
1 x,y,z
2 -x,y,1/2-z
3 1/2+x,1/2+y,z
4 1/2-x,1/2+y,1/2-z
5 -x,-y,-z
6 x,-y,1/2+z
7 1/2-x,1/2-y,-z
8 1/2+x,1/2-y,1/2+z
_cell_length_a                   26.2356(12)
_cell_length_b                   18.6413(9)
_cell_length_c                   19.8143(9)
_cell_angle_alpha                90
_cell_angle_beta                 105.573(2)
_cell_angle_gamma                90
_cell_volume                     9334.75
loop_
_atom_site_label
_atom_site_type_symbol
_atom_site_fract_x
_atom_site_fract_y
_atom_site_fract_z
Cl2 Cl 0.31069(11) 0.53682(12) 0.24239(18)
Cl3 Cl 0.32576(7) 0.34889(9) 0.29743(11)
Cl4 Cl 0.44551(13) 0.45981(19) 0.3357(3)
Cl5 Cl 0.3440(3) 0.4903(5) 0.4299(3)
Zn1 Zn 0.36038(6) 0.45858(8) 0.32387(12)
O1 O 0.11039(18) 0.3918(2) 0.5225(2)
O2 O -0.01313(17) 0.2950(3) 0.4955(2)
O3 O 0.03686(19) 0.3623(2) 0.4037(2)
O4 O 0.15357(19) 0.2416(3) 0.5633(2)
O5 O 0.0592(2) 0.1672(2) 0.5377(2)
Lu1 Lu 0.072592(9) 0.281869(12) 0.495531(11)
O6 O 0.07160(16) 0.6914(2) 0.1112(2)
O7 O 0.05517(18) 0.6540(2) 0.4064(2)
C1 C 0.0742(2) 0.7693(3) 0.2747(3)
H1 H 0.0822 0.8211 0.2819
C2 C 0.0809(2) 0.7104(3) 0.1729(3)
C3 C 0.0010(2) 0.7803(3) 0.3372(3)
H2 H 0.0038 0.7765 0.3874
H3 H 0.0031 0.8312 0.3261
N1 N 0.04542(19) 0.7426(3) 0.3224(2)
N2 N 0.04980(18) 0.7528(3) 0.2016(2)
C4 C 0.0165(2) 0.1773(3) 0.3479(3)
C5 C 0.0300(2) 0.1156(3) 0.2524(3)
H4 H 0.0432 0.0666 0.2477
C6 C 0.1092(2) 0.1506(3) 0.3519(3)
H5 H 0.1268 0.1086 0.3386
H6 H 0.1154 0.1495 0.4030
C7 C 0.0798(2) 0.1741(3) 0.1704(3)
H7 H 0.1010 0.1301 0.1770
H8 H 0.0693 0.1851 0.1202
C8 C 0.1440(2) 0.2730(3) 0.3748(3)
C9 C 0.1533(2) 0.2203(3) 0.2723(3)
H9 H 0.1771 0.1801 0.2688
C10 C 0.1827(2) 0.2935(3) 0.2836(3)
H10 H 0.2211 0.2878 0.2894
C11 C 0.1175(2) 0.2959(3) 0.1769(3)
C12 C 0.2013(2) 0.3785(3) 0.3883(3)
H11 H 0.1960 0.3773 0.4354
H12 H 0.2389 0.3703 0.3930
C13 C 0.1825(2) 0.3934(3) 0.1989(3)
H13 H 0.1676 0.3990 0.1482
H14 H 0.2203 0.3832 0.2074
C14 C 0.1644(2) 0.5008(3) 0.3905(3)
C15 C 0.2083(2) 0.4774(3) 0.3043(3)
H15 H 0.2459 0.4643 0.3111
C16 C 0.2010(2) 0.5587(3) 0.3104(3)
H16 H 0.2352 0.5840 0.3278
C17 C 0.1595(2) 0.5217(3) 0.1960(3)
C18 C 0.1591(2) 0.6314(3) 0.3895(3)
H17 H 0.1919 0.6594 0.4001
H18 H 0.1504 0.6223 0.4339
C19 C 0.1694(2) 0.6525(3) 0.2141(3)
H19 H 0.1676 0.6525 0.1641
H20 H 0.2015 0.6784 0.2387
C20 C 0.0710(2) 0.6875(3) 0.3619(3)
C21 C 0.1255(2) 0.7230(3) 0.2919(3)
H21 H 0.1577 0.7524 0.3100
N3 N 0.05353(18) 0.1448(2) 0.3201(2)
N4 N 0.13320(19) 0.2144(2) 0.3333(2)
N5 N 0.03241(18) 0.1612(2) 0.1934(2)
N6 N 0.11245(19) 0.2321(3) 0.2071(2)
N7 N 0.17141(18) 0.3209(2) 0.3477(2)
N8 N 0.18724(19) 0.4485(2) 0.3588(2)
N9 N 0.15781(18) 0.3343(2) 0.2220(2)
N10 N 0.1761(2) 0.4608(2) 0.2336(2)
N11 N 0.16804(19) 0.5639(3) 0.3595(2)
N12 N 0.11693(19) 0.6734(2) 0.3443(2)
N13 N 0.17350(19) 0.5795(3) 0.2387(2)
N14 N 0.12358(18) 0.6909(3) 0.2242(2)
O8 O 0.02658(16) 0.2119(2) 0.4030(2)
O9 O 0.13137(18) 0.2806(2) 0.4306(2)
O10 O 0.14468(19) 0.4908(2) 0.4388(2)
O11 O 0.09198(17) 0.3168(2) 0.1194(2)
O12 O 0.1359(2) 0.5237(2) 0.1328(2)
O6A O -0.07160(16) 0.6914(2) 0.3888(2)
O7A O -0.05517(18) 0.6540(2) 0.0936(2)
C1A C -0.0742(2) 0.7693(3) 0.2253(3)
H1A H -0.0822 0.8211 0.2181
C2A C -0.0809(2) 0.7104(3) 0.3271(3)
C3A C -0.0010(2) 0.7803(3) 0.1628(3)
H2A H -0.0038 0.7765 0.1126
H3A H -0.0031 0.8312 0.1739
N1A N -0.04542(19) 0.7426(3) 0.1776(2)
N2A N -0.04980(18) 0.7528(3) 0.2984(2)
C4A C -0.0165(2) 0.1773(3) 0.1521(3)
C5A C -0.0300(2) 0.1156(3) 0.2476(3)
H4A H -0.0432 0.0666 0.2523
C6A C -0.1092(2) 0.1506(3) 0.1481(3)
H5A H -0.1268 0.1086 0.1614
H6A H -0.1154 0.1495 0.0970
C7A C -0.0798(2) 0.1741(3) 0.3296(3)
H7A H -0.1010 0.1301 0.3230
H8A H -0.0693 0.1851 0.3798
C8A C -0.1440(2) 0.2730(3) 0.1252(3)
C9A C -0.1533(2) 0.2203(3) 0.2277(3)
H9A H -0.1771 0.1801 0.2312
C10A C -0.1827(2) 0.2935(3) 0.2164(3)
H10A H -0.2211 0.2878 0.2106
C11A C -0.1175(2) 0.2959(3) 0.3231(3)
C12A C -0.2013(2) 0.3785(3) 0.1117(3)
H11A H -0.1960 0.3773 0.0646
H12A H -0.2389 0.3703 0.1070
C13A C -0.1825(2) 0.3934(3) 0.3011(3)
H13A H -0.1676 0.3990 0.3518
H14A H -0.2203 0.3832 0.2926
C14A C -0.1644(2) 0.5008(3) 0.1095(3)
C15A C -0.2083(2) 0.4774(3) 0.1957(3)
H15A H -0.2459 0.4643 0.1889
C16A C -0.2010(2) 0.5587(3) 0.1896(3)
H16A H -0.2352 0.5840 0.1722
C17A C -0.1595(2) 0.5217(3) 0.3040(3)
C18A C -0.1591(2) 0.6314(3) 0.1105(3)
H17A H -0.1919 0.6594 0.0999
H18A H -0.1504 0.6223 0.0661
C19A C -0.1694(2) 0.6525(3) 0.2859(3)
H19A H -0.1676 0.6525 0.3359
H20A H -0.2015 0.6784 0.2613
C20A C -0.0710(2) 0.6875(3) 0.1381(3)
C21A C -0.1255(2) 0.7230(3) 0.2081(3)
H21A H -0.1577 0.7524 0.1900
N3A N -0.05353(18) 0.1448(2) 0.1799(2)
N4A N -0.13320(19) 0.2144(2) 0.1667(2)
N5A N -0.03241(18) 0.1612(2) 0.3066(2)
N6A N -0.11245(19) 0.2321(3) 0.2929(2)
N7A N -0.17141(18) 0.3209(2) 0.1523(2)
N8A N -0.18724(19) 0.4485(2) 0.1412(2)
N9A N -0.15781(18) 0.3343(2) 0.2780(2)
N10A N -0.1761(2) 0.4608(2) 0.2664(2)
N11A N -0.16804(19) 0.5639(3) 0.1405(2)
N12A N -0.11693(19) 0.6734(2) 0.1557(2)
N13A N -0.17350(19) 0.5795(3) 0.2613(2)
N14A N -0.12358(18) 0.6909(3) 0.2758(2)
O8A O -0.02658(16) 0.2119(2) 0.0970(2)
O9A O -0.13137(18) 0.2806(2) 0.0694(2)
O10A O -0.14468(19) 0.4908(2) 0.0612(2)
O11A O -0.09198(17) 0.3168(2) 0.3806(2)
O12A O -0.1359(2) 0.5237(2) 0.3672(2)
O1A O -0.11039(18) 0.3918(2) -0.0225(2)
O2A O 0.01313(17) 0.2950(3) 0.0045(2)
O3A O -0.03686(19) 0.3623(2) 0.0963(2)
O4A O -0.15357(19) 0.2416(3) -0.0633(2)
O5A O -0.0592(2) 0.1672(2) -0.0377(2)
Lu1A Lu -0.072592(9) 0.281869(12) 0.004469(11)
Lu1D Lu -0.072592(9) 0.718131(12) 0.504469(11)
Lu1E Lu 0.072592(9) 0.718131(12) -0.004469(11)
O6D O -0.07160(16) 0.3086(2) -0.1112(2)
O6E O 0.07160(16) 0.3086(2) 0.6112(2)
Cl1 Cl 0.22478(12) 0.23205(18) 0.13546(18)
Zn2? Zn 0.36421(13) 0.45351(15) 0.2676(2)
loop_
_geom_bond_atom_site_label_1
_geom_bond_atom_site_label_2
_geom_bond_site_symmetry_1
_geom_bond_site_symmetry_2
Cl2 Zn1 1_555 1_555
Cl3 Zn1 1_555 1_555
Cl4 Zn1 1_555 1_555
Cl5 Zn1 1_555 1_555
O1 Lu1 1_555 1_555
O2 Lu1 1_555 1_555
O3 Lu1 1_555 1_555
O4 Lu1 1_555 1_555
O5 Lu1 1_555 1_555
Lu1 O8 1_555 1_555
O6 C2 1_555 1_555
O7 C20 1_555 1_555
C1 H1 1_555 1_555
C2 N2 1_555 1_555
C3 H2 1_555 1_555
H3 C3 1_555 1_555
N1 C1 1_555 1_555
N2 C1 1_555 1_555
C4 N3 1_555 1_555
C5 H4 1_555 1_555
C6 H5 1_555 1_555
H6 C6 1_555 1_555
C7 H7 1_555 1_555
H8 C7 1_555 1_555
C8 N4 1_555 1_555
C9 H9 1_555 1_555
C10 C9 1_555 1_555
H10 C10 1_555 1_555
C11 N6 1_555 1_555
C12 H11 1_555 1_555
H12 C12 1_555 1_555
C13 H13 1_555 1_555
H14 C13 1_555 1_555
C14 N8 1_555 1_555
C15 H15 1_555 1_555
C16 C15 1_555 1_555
H16 C16 1_555 1_555
C17 N10 1_555 1_555
C18 H17 1_555 1_555
H18 C18 1_555 1_555
C19 H19 1_555 1_555
H20 C19 1_555 1_555
C20 N1 1_555 1_555
C21 C1 1_555 1_555
H21 C21 1_555 1_555
N3 C5 1_555 1_555
N4 C6 1_555 1_555
N5 C5 1_555 1_555
N6 C7 1_555 1_555
N7 C8 1_555 1_555
N8 C12 1_555 1_555
N9 C10 1_555 1_555
N10 C13 1_555 1_555
N11 C14 1_555 1_555
N12 C18 1_555 1_555
N13 C16 1_555 1_555
N14 C2 1_555 1_555
O8 C4 1_555 1_555
O9 Lu1 1_555 1_555
O10 C14 1_555 1_555
O11 C11 1_555 1_555
O12 C17 1_555 1_555
O6A C2A 1_555 1_555
O7A C20A 1_555 1_555
C1A H1A 1_555 1_555
C2A N2A 1_555 1_555
C3A N2 1_555 1_555
H2A C3A 1_555 1_555
H3A C3A 1_555 1_555
N1A C1A 1_555 1_555
N2A C3 1_555 1_555
C4A N5 1_555 1_555
C5A C5 1_555 1_555
H4A C5A 1_555 1_555
C6A H5A 1_555 1_555
H6A C6A 1_555 1_555
C7A H7A 1_555 1_555
H8A C7A 1_555 1_555
C8A N4A 1_555 1_555
C9A H9A 1_555 1_555
C10A C9A 1_555 1_555
H10A C10A 1_555 1_555
C11A N6A 1_555 1_555
C12A H11A 1_555 1_555
H12A C12A 1_555 1_555
C13A H13A 1_555 1_555
H14A C13A 1_555 1_555
C14A N8A 1_555 1_555
C15A H15A 1_555 1_555
C16A C15A 1_555 1_555
H16A C16A 1_555 1_555
C17A N10A 1_555 1_555
C18A H17A 1_555 1_555
H18A C18A 1_555 1_555
C19A H19A 1_555 1_555
H20A C19A 1_555 1_555
C20A N1A 1_555 1_555
C21A C1A 1_555 1_555
H21A C21A 1_555 1_555
N3A C4A 1_555 1_555
N4A C6A 1_555 1_555
N5A C4 1_555 1_555
N6A C7A 1_555 1_555
N7A C8A 1_555 1_555
N8A C12A 1_555 1_555
N9A C10A 1_555 1_555
N10A C13A 1_555 1_555
N11A C14A 1_555 1_555
N12A C18A 1_555 1_555
N13A C16A 1_555 1_555
N14A C2A 1_555 1_555
O8A C4A 1_555 1_555
O9A C8A 1_555 1_555
O10A C14A 1_555 1_555
O11A C11A 1_555 1_555
O12A C17A 1_555 1_555
O1A Lu1A 1_555 1_555
O2A Lu1A 1_555 1_555
O3A Lu1A 1_555 1_555
O4A Lu1A 1_555 1_555
O5A Lu1A 1_555 1_555
Lu1A O8A 1_555 1_555
Lu1D O6A 1_555 1_555
Lu1E O6 1_555 1_555
O6D Lu1A 1_555 1_555
O6E Lu1 1_555 1_555
C3 N1 1_555 1_555
C6 N3 1_555 1_555
C7 N5 1_555 1_555
C8 O9 1_555 1_555
C9 N4 1_555 1_555
C9 N6 1_555 1_555
C10 N7 1_555 1_555
C11 N9 1_555 1_555
C12 N7 1_555 1_555
C13 N9 1_555 1_555
C15 N8 1_555 1_555
C15 N10 1_555 1_555
C16 N11 1_555 1_555
C17 N13 1_555 1_555
C18 N11 1_555 1_555
C19 N13 1_555 1_555
C19 N14 1_555 1_555
C20 N12 1_555 1_555
C21 N12 1_555 1_555
C21 N14 1_555 1_555
C1A N2A 1_555 1_555
C3A N1A 1_555 1_555
C5A N3A 1_555 1_555
C5A N5A 1_555 1_555
C6A N3A 1_555 1_555
C7A N5A 1_555 1_555
C9A N4A 1_555 1_555
C9A N6A 1_555 1_555
C10A N7A 1_555 1_555
C11A N9A 1_555 1_555
C12A N7A 1_555 1_555
C13A N9A 1_555 1_555
C15A N8A 1_555 1_555
C15A N10A 1_555 1_555
C16A N11A 1_555 1_555
C17A N13A 1_555 1_555
C18A N11A 1_555 1_555
C19A N13A 1_555 1_555
C19A N14A 1_555 1_555
C20A N12A 1_555 1_555
C21A N12A 1_555 1_555
C21A N14A 1_555 1_555
O9A Lu1A 1_555 1_555

#END
