
#######################################################################
#
#                 Cambridge Crystallographic Data Centre
#                                CCDC 
#
#######################################################################
#
# If this CIF has been generated from an entry in the Cambridge 
# Structural Database, then it will include bibliographic, chemical, 
# crystal, experimental, refinement or atomic coordinate data resulting 
# from the CCDC's data processing and validation procedures.
#
#######################################################################

data_PEXTES
_symmetry_cell_setting           monoclinic
_symmetry_space_group_name_H-M   'P 21/n'
_symmetry_Int_Tables_number      14
_space_group_name_Hall           '-P 2yn'
loop_
_symmetry_equiv_pos_site_id
_symmetry_equiv_pos_as_xyz
1 x,y,z
2 1/2-x,1/2+y,1/2-z
3 -x,-y,-z
4 1/2+x,1/2-y,1/2+z
_cell_length_a                   9.3501(15)
_cell_length_b                   8.3477(13)
_cell_length_c                   16.779(3)
_cell_angle_alpha                90
_cell_angle_beta                 106.18
_cell_angle_gamma                90
_cell_volume                     1257.76
loop_
_atom_site_label
_atom_site_type_symbol
_atom_site_fract_x
_atom_site_fract_y
_atom_site_fract_z
Eu1 Eu -0.332710(18) -0.065070(19) 0.099390(9)
N1 N -0.0618(3) -0.1780(4) 0.13428(17)
O1 O -0.2698(3) -0.2749(3) 0.20217(15)
O2 O -0.1240(3) -0.4666(3) 0.27426(17)
O3 O 0.4291(3) -0.1642(3) 0.10621(15)
O4 O 0.2440(3) -0.0352(3) 0.01367(16)
O5 O -0.3328(3) -0.3142(3) 0.01806(16)
O6 O -0.5082(3) -0.1524(3) -0.04843(15)
O7 O -0.1547(3) 0.1554(4) 0.15378(17)
H1 H -0.0983 0.1895 0.1256
H2 H -0.1499 0.1967 0.2008
C1 C -0.1490(4) -0.3524(4) 0.2246(2)
C2 C -0.0251(4) -0.2978(4) 0.1894(2)
C3 C 0.1151(5) -0.3621(5) 0.2140(2)
H3 H 0.1369 -0.4442 0.2530
C4 C 0.2242(4) -0.3036(5) 0.1803(2)
H4 H 0.3209 -0.3431 0.1975
C5 C 0.1857(4) -0.1845(4) 0.1201(2)
C6 C 0.2966(4) -0.1230(4) 0.0766(2)
C7 C 0.0430(4) -0.1242(5) 0.1010(2)
H5 H 0.0184 -0.0411 0.0628
C8 C -0.4410(4) -0.2842(4) -0.0441(2)
C9 C -0.4884(6) -0.4050(5) -0.1123(3)
H6 H -0.5944 -0.4001 -0.1354
H7 H -0.4605 -0.5102 -0.0904
H8 H -0.4405 -0.3820 -0.1547
Eu1B Eu -0.667290(18) 0.065070(19) -0.099390(9)
Eu1A Eu -0.167290(18) -0.565070(19) 0.400610(9)
Eu1_2 Eu 0.667290(18) -0.065070(19) 0.099390(9)
Eu1B_2 Eu 0.332710(18) 0.065070(19) -0.099390(9)
O2A O -0.3760(3) 0.0334(3) 0.22574(17)
O3_2 O -0.5709(3) -0.1642(3) 0.10621(15)
O4B O -0.2440(3) 0.0352(3) -0.01367(16)
O6B O -0.4918(3) 0.1524(3) 0.04843(15)
O8 O -0.1429(9) -0.5798(7) 0.0463(4)
O10 O -0.8949(15) -0.7419(15) 0.1034(7)
O9? O -0.1053(17) -0.5143(19) 0.0105(11)
loop_
_geom_bond_atom_site_label_1
_geom_bond_atom_site_label_2
_geom_bond_site_symmetry_1
_geom_bond_site_symmetry_2
Eu1 N1 1_555 1_555
N1 C2 1_555 1_555
O1 Eu1 1_555 1_555
O2 C1 1_555 1_555
O3 C6 1_555 1_555
O4 C6 1_555 1_555
O5 Eu1 1_555 1_555
O6 Eu1 1_555 1_555
O7 Eu1 1_555 1_555
H1 O7 1_555 1_555
H2 O7 1_555 1_555
C1 O1 1_555 1_555
C2 C1 1_555 1_555
C3 C2 1_555 1_555
H3 C3 1_555 1_555
C4 C3 1_555 1_555
H4 C4 1_555 1_555
C5 C4 1_555 1_555
C6 C5 1_555 1_555
C7 N1 1_555 1_555
H5 C7 1_555 1_555
C8 O5 1_555 1_555
C9 C8 1_555 1_555
H6 C9 1_555 1_555
H7 C9 1_555 1_555
H8 C9 1_555 1_555
Eu1B O6 1_555 1_555
Eu1A O2 1_555 1_555
Eu1_2 O3 1_555 1_555
Eu1B_2 O4 1_555 1_555
O2A Eu1 1_555 1_555
O3_2 Eu1 1_555 1_555
O4B Eu1 1_555 1_555
O6B Eu1 1_555 1_555
O6 C8 1_555 1_555
C5 C7 1_555 1_555
Eu1B O6B 1_555 1_555

#END
