
#######################################################################
#
#                 Cambridge Crystallographic Data Centre
#                                CCDC 
#
#######################################################################
#
# If this CIF has been generated from an entry in the Cambridge 
# Structural Database, then it will include bibliographic, chemical, 
# crystal, experimental, refinement or atomic coordinate data resulting 
# from the CCDC's data processing and validation procedures.
#
#######################################################################

data_PEXVAQ
_symmetry_cell_setting           triclinic
_symmetry_space_group_name_H-M   'P -1'
_symmetry_Int_Tables_number      2
_space_group_name_Hall           '-P 1'
loop_
_symmetry_equiv_pos_site_id
_symmetry_equiv_pos_as_xyz
1 x,y,z
2 -x,-y,-z
_cell_length_a                   11.693(2)
_cell_length_b                   12.991(3)
_cell_length_c                   16.292(3)
_cell_angle_alpha                97.606(4)
_cell_angle_beta                 107.691(4)
_cell_angle_gamma                114.536(4)
_cell_volume                     2047.21
loop_
_atom_site_label
_atom_site_type_symbol
_atom_site_fract_x
_atom_site_fract_y
_atom_site_fract_z
Sr1 Sr 0.73607(7) 1.17501(6) 0.05848(4)
Sr2 Sr 1.21387(6) 1.14250(6) 0.03219(4)
S1 S 0.57341(17) 0.85792(16) 0.08960(11)
S2 S 0.97810(18) 0.84107(17) 0.83032(11)
S3 S 0.86029(18) 1.12750(17) -0.08954(11)
O1 O 0.9753(6) 1.1053(6) -0.0760(3)
O2 O 0.8960(5) 1.2401(5) -0.0334(3)
O3 O 0.6005(6) 0.9691(5) 0.0701(3)
O4 O 0.4273(5) 0.7773(5) 0.0515(3)
O5 O 0.6495(5) 0.8064(5) 0.0626(3)
O6 O 1.0245(5) 0.7540(5) 0.8192(3)
O7 O 0.8525(6) 0.7953(5) 0.8438(3)
O8 O 1.0900(6) 0.9482(5) 0.9004(3)
O9 O 0.8446(6) 1.4032(5) 0.1009(4)
O10 O 1.2715(7) 1.3531(5) 0.0259(4)
C1 C 0.8704(7) 1.1981(6) -0.2443(4)
N1 N 0.6028(6) 0.5495(5) 0.3890(3)
H1 H 0.5631 0.4734 0.3705
C2 C 0.6537(7) 1.0475(6) -0.2507(4)
H2 H 0.6031 1.0008 -0.2227
C3 C 0.6858(8) 1.0029(7) 0.2581(4)
H3 H 0.6956 1.0619 0.2299
C4 C 0.6733(6) 0.8287(6) 0.3447(4)
C5 C 0.8484(6) 0.7884(6) 0.6447(4)
C6 C 0.6763(7) 0.6187(6) 0.4776(4)
C7 C 0.7320(7) 0.7383(6) 0.4805(4)
C8 C 0.6755(7) 0.7388(6) 0.3879(4)
C9 C 0.8302(6) 0.8256(6) 0.5640(4)
C10 C 1.0155(7) 0.9947(7) 0.7338(5)
H4 H 1.0717 1.0519 0.7897
C11 C 0.6945(7) 0.5815(6) 0.5553(4)
H5 H 0.6519 0.5014 0.5512
C12 C 0.8789(7) 1.2684(6) -0.3765(4)
C13 C 0.5592(7) 0.6739(6) 0.1993(4)
H6 H 0.5272 0.6525 0.1367
C14 C 0.7902(7) 1.1237(6) -0.2038(4)
C15 C 0.6215(6) 0.7964(6) 0.2484(4)
C16 C 0.9448(6) 0.8796(6) 0.7285(4)
C17 C 0.8003(6) 1.1938(6) -0.3333(4)
C18 C 0.7764(7) 0.6659(6) 0.6373(5)
H7 H 0.7855 0.6429 0.6896
C19 C 1.0029(7) 1.0266(7) 0.6539(5)
H8 H 1.0554 1.1047 0.6564
C20 C 0.9146(7) 0.9439(6) 0.5733(4)
H9 H 0.9098 0.9670 0.5213
C21 C 0.6316(7) 0.8886(7) 0.2085(4)
C22 C 1.0911(7) 1.3259(6) -0.2468(4)
H10 H 1.1863 1.3671 -0.2197
C23 C 0.6032(7) 0.6225(6) 0.3343(4)
C24 C 1.0198(7) 1.3223(6) -0.3356(4)
C25 C 1.0165(7) 1.2675(6) -0.2022(4)
H11 H 1.0616 1.2728 -0.1427
C26 C 0.5901(8) 1.0396(7) -0.3404(5)
H12 H 0.4975 0.9859 -0.3726
C27 C 0.5452(7) 0.5887(6) 0.2398(5)
H13 H 0.4981 0.5092 0.2061
C28 C 0.7183(7) 0.9466(6) 0.3937(5)
H14 H 0.7425 0.9662 0.4557
C29 C 0.6616(7) 1.1092(6) -0.3814(4)
H15 H 0.6184 1.1009 -0.4420
C30 C 0.7267(8) 1.0309(7) 0.3517(5)
H16 H 0.7599 1.1084 0.3854
C31 C 0.8465(6) 1.2932(6) -0.4625(4)
C32 C 0.7263(7) 1.2817(6) -0.5301(4)
C33 C 0.9700(7) 1.3484(6) -0.4716(4)
C34 C 0.6063(7) 1.2609(6) -0.5160(4)
H17 H 0.6055 1.2570 -0.4595
C35 C 0.7302(7) 1.3008(6) -0.6132(4)
C36 C 0.6065(7) 1.2798(6) -0.6825(4)
C37 C 0.8601(7) 1.3450(6) -0.6220(4)
H18 H 0.8635 1.3554 -0.6768
N2 N 1.0738(6) 1.3675(5) -0.3940(4)
H19 H 1.1596 1.4024 -0.3837
C38 C 0.9765(7) 1.3716(7) -0.5529(5)
H20 H 1.0600 1.4048 -0.5585
C39 C 0.4915(7) 1.2462(7) -0.5824(5)
H21 H 0.4141 1.2324 -0.5708
C40 C 0.4898(7) 1.2518(6) -0.6671(5)
H22 H 0.4096 1.2367 -0.7134
S4 S 0.59694(16) 1.29212(15) -0.79194(10)
O11 O 0.4553(5) 1.2527(5) -0.8451(3)
O12 O 0.6456(5) 1.2165(5) -0.8253(3)
O13 O 0.6838(5) 1.4157(4) -0.7792(3)
O14 O 0.7485(5) 1.0330(4) -0.0767(3)
Sr1A Sr 0.26393(7) 0.82499(6) -0.05848(4)
Sr1A_2 Sr 1.26393(7) 0.82499(6) 0.94152(4)
Sr1_2 Sr 0.73607(7) 1.17501(6) -0.94152(4)
Sr2A Sr 0.78613(6) 0.85750(6) -0.03219(4)
Sr2A_2 Sr 0.78613(6) 0.85750(6) 0.96781(4)
Sr2_2 Sr 1.21387(6) 1.14250(6) 1.03219(4)
Sr2_3 Sr 0.21387(6) 1.14250(6) -0.96781(4)
O4A O 0.5727(5) 1.2227(5) -0.0515(3)
O5A O 1.3505(5) 1.1936(5) -0.0626(3)
O6A O 0.9755(5) 1.2460(5) 0.1808(3)
O7A O 1.1475(6) 1.2047(5) 0.1562(3)
O8A O 0.9100(6) 1.0518(5) 0.0996(3)
O8_2 O 1.0900(6) 0.9482(5) -0.0996(3)
O11_2 O 1.4553(5) 1.2527(5) 0.1549(3)
O12_2 O 0.6456(5) 1.2165(5) 0.1747(3)
O14A O 1.2515(5) 0.9670(4) 0.0767(3)
O15 O 0.8606(8) 0.5158(7) -0.0498(6)
H23 H 0.8081 0.5436 -0.0560
C41 C 0.8139(14) 0.4243(10) -0.1329(8)
H24 H 0.7285 0.3576 -0.1405
H25 H 0.8808 0.3970 -0.1263
C42 C 0.7917(13) 0.4623(12) -0.2172(9)
H26 H 0.7613 0.3969 -0.2682
H27 H 0.8761 0.5268 -0.2114
H28 H 0.7234 0.4873 -0.2257
O16 O 0.5934(12) 0.4698(9) 0.0485(6)
loop_
_geom_bond_atom_site_label_1
_geom_bond_atom_site_label_2
_geom_bond_site_symmetry_1
_geom_bond_site_symmetry_2
Sr1 O2 1_555 1_555
Sr2 O1 1_555 1_555
S1 O3 1_555 1_555
S2 O6 1_555 1_555
S3 O1 1_555 1_555
O2 S3 1_555 1_555
O3 Sr1 1_555 1_555
O4 S1 1_555 1_555
O5 S1 1_555 1_555
O6 Sr1A_2 1_555 1_555
O7 S2 1_555 1_555
O8 S2 1_555 1_555
O9 Sr1 1_555 1_555
O10 Sr2 1_555 1_555
C1 C14 1_555 1_555
N1 H1 1_555 1_555
C2 H2 1_555 1_555
C3 H3 1_555 1_555
C4 C8 1_555 1_555
C5 C9 1_555 1_555
C6 N1 1_555 1_555
C7 C6 1_555 1_555
C8 C7 1_555 1_555
C9 C7 1_555 1_555
C10 H4 1_555 1_555
C11 C6 1_555 1_555
H5 C11 1_555 1_555
C12 C17 1_555 1_555
C13 H6 1_555 1_555
C14 S3 1_555 1_555
C15 C4 1_555 1_555
C16 S2 1_555 1_555
C17 C1 1_555 1_555
C18 C5 1_555 1_555
H7 C18 1_555 1_555
C19 C10 1_555 1_555
H8 C19 1_555 1_555
C20 C9 1_555 1_555
H9 C20 1_555 1_555
C21 S1 1_555 1_555
C22 H10 1_555 1_555
C23 N1 1_555 1_555
C24 C12 1_555 1_555
C25 C1 1_555 1_555
H11 C25 1_555 1_555
C26 C2 1_555 1_555
H12 C26 1_555 1_555
C27 C13 1_555 1_555
H13 C27 1_555 1_555
C28 C4 1_555 1_555
H14 C28 1_555 1_555
C29 C17 1_555 1_555
H15 C29 1_555 1_555
C30 C3 1_555 1_555
H16 C30 1_555 1_555
C31 C12 1_555 1_555
C32 C31 1_555 1_555
C33 C31 1_555 1_555
C34 C32 1_555 1_555
H17 C34 1_555 1_555
C35 C32 1_555 1_555
C36 C35 1_555 1_555
C37 C35 1_555 1_555
H18 C37 1_555 1_555
N2 C24 1_555 1_555
H19 N2 1_555 1_555
C38 C33 1_555 1_555
H20 C38 1_555 1_555
C39 C34 1_555 1_555
H21 C39 1_555 1_555
C40 C36 1_555 1_555
H22 C40 1_555 1_555
S4 C36 1_555 1_555
O11 S4 1_555 1_555
O12 S4 1_555 1_555
O13 S4 1_555 1_555
O14 Sr1 1_555 1_555
O15 H23 1_555 1_555
C41 O15 1_555 1_555
H24 C41 1_555 1_555
H25 C41 1_555 1_555
C42 C41 1_555 1_555
H26 C42 1_555 1_555
H27 C42 1_555 1_555
H28 C42 1_555 1_555
Sr1A O4 1_555 1_555
Sr1A_2 O8 1_555 1_555
Sr1_2 O12 1_555 1_555
Sr2A O5 1_555 1_555
Sr2A_2 O7 1_555 1_555
Sr2_2 O8 1_555 1_555
Sr2_3 O11 1_555 1_555
O4A Sr1 1_555 1_555
O5A Sr2 1_555 1_555
O6A Sr1 1_555 1_555
O7A Sr2 1_555 1_555
O8A Sr1 1_555 1_555
O8_2 Sr2 1_555 1_555
O11_2 Sr2 1_555 1_555
O12_2 Sr1 1_555 1_555
O14A Sr2 1_555 1_555
S3 O14 1_555 1_555
C2 C14 1_555 1_555
C3 C21 1_555 1_555
C5 C16 1_555 1_555
C8 C23 1_555 1_555
C10 C16 1_555 1_555
C11 C18 1_555 1_555
C13 C15 1_555 1_555
C15 C21 1_555 1_555
C19 C20 1_555 1_555
C22 C24 1_555 1_555
C22 C25 1_555 1_555
C23 C27 1_555 1_555
C26 C29 1_555 1_555
C28 C30 1_555 1_555
C33 N2 1_555 1_555
C37 C38 1_555 1_555
C39 C40 1_555 1_555
O14 Sr2A 1_555 1_555
Sr2A O8A 1_555 1_555

#END
