
#######################################################################
#
#                 Cambridge Crystallographic Data Centre
#                                CCDC 
#
#######################################################################
#
# If this CIF has been generated from an entry in the Cambridge 
# Structural Database, then it will include bibliographic, chemical, 
# crystal, experimental, refinement or atomic coordinate data resulting 
# from the CCDC's data processing and validation procedures.
#
#######################################################################

data_PEXWAQ
_symmetry_cell_setting           rhombohedral
_symmetry_space_group_name_H-M   'R 3 c'
_symmetry_Int_Tables_number      161
_space_group_name_Hall           "P 3* -2'n"
loop_
_symmetry_equiv_pos_site_id
_symmetry_equiv_pos_as_xyz
1 x,y,z
2 z,x,y
3 1/2+y,1/2+x,1/2+z
4 y,z,x
5 1/2+z,1/2+y,1/2+x
6 1/2+x,1/2+z,1/2+y
_cell_length_a                   13.344(1)
_cell_length_b                   13.344(1)
_cell_length_c                   13.344(1)
_cell_angle_alpha                116.13(1)
_cell_angle_beta                 116.13(1)
_cell_angle_gamma                116.13(1)
_cell_volume                     1181.54
loop_
_atom_site_label
_atom_site_type_symbol
_atom_site_fract_x
_atom_site_fract_y
_atom_site_fract_z
La1 La 0.0000 0.0000 0.0000
O1 O -0.0707(6) 0.0979(6) 0.1339(6)
O2 O 0.2028(5) 0.2499(5) 0.3481(5)
C1 C 0.0726(7) 0.2142(8) 0.2955(8)
C2 C 0.0933(8) 0.3106(8) 0.4296(8)
C3 C -0.0246(8) 0.2986(9) 0.3887(9)
C4 C -0.0166(8) 0.3932(9) 0.5094(9)
C5 C 0.0988(8) 0.479(1) 0.6809(9)
C6 C 0.104(1) 0.569(1) 0.791(1)
C7 C -0.0066(9) 0.575(1) 0.733(1)
C8 C -0.1187(9) 0.4915(9) 0.568(1)
C9 C -0.124(1) 0.401(1) 0.456(1)
O1A O 0.1339(6) -0.0707(6) 0.0979(6)
O2A O 0.3481(5) 0.2028(5) 0.2499(5)
C1A C 0.2955(8) 0.0726(7) 0.2142(8)
C2A C 0.4296(8) 0.0933(8) 0.3106(8)
C3A C 0.3887(9) -0.0246(8) 0.2986(9)
C4A C 0.5094(9) -0.0166(8) 0.3932(9)
C5A C 0.6809(9) 0.0988(8) 0.479(1)
C6A C 0.791(1) 0.104(1) 0.569(1)
C7A C 0.733(1) -0.0066(9) 0.575(1)
C8A C 0.568(1) -0.1187(9) 0.4915(9)
C9A C 0.456(1) -0.124(1) 0.401(1)
O1C O 0.0979(6) 0.1339(6) -0.0707(6)
O2C O 0.2499(5) 0.3481(5) 0.2028(5)
C1C C 0.2142(8) 0.2955(8) 0.0726(7)
C2C C 0.3106(8) 0.4296(8) 0.0933(8)
C3C C 0.2986(9) 0.3887(9) -0.0246(8)
C4C C 0.3932(9) 0.5094(9) -0.0166(8)
C5C C 0.479(1) 0.6809(9) 0.0988(8)
C6C C 0.569(1) 0.791(1) 0.104(1)
C7C C 0.575(1) 0.733(1) -0.0066(9)
C8C C 0.4915(9) 0.568(1) -0.1187(9)
C9C C 0.401(1) 0.456(1) -0.124(1)
O1B O -0.4021(6) -0.5707(6) -0.3661(6)
O2B O -0.2501(5) -0.2972(5) -0.1519(5)
C1B C -0.2858(8) -0.4274(7) -0.2045(8)
C2B C -0.1894(8) -0.4067(8) -0.0704(8)
C3B C -0.2014(9) -0.5246(8) -0.1113(9)
C4B C -0.1068(9) -0.5166(8) 0.0094(9)
C5B C -0.021(1) -0.4012(8) 0.1809(9)
C6B C 0.069(1) -0.396(1) 0.291(1)
C7B C 0.075(1) -0.5066(9) 0.233(1)
C8B C -0.0085(9) -0.6187(9) 0.068(1)
C9B C -0.099(1) -0.624(1) -0.044(1)
O1D O -0.3661(6) -0.4021(6) -0.5707(6)
O2D O -0.1519(5) -0.2501(5) -0.2972(5)
C1D C -0.2045(8) -0.2858(8) -0.4274(7)
C2D C -0.0704(8) -0.1894(8) -0.4067(8)
C3D C -0.1113(9) -0.2014(9) -0.5246(8)
C4D C 0.0094(9) -0.1068(9) -0.5166(8)
C5D C 0.1809(9) -0.021(1) -0.4012(8)
C6D C 0.291(1) 0.069(1) -0.396(1)
C7D C 0.233(1) 0.075(1) -0.5066(9)
C8D C 0.068(1) -0.0085(9) -0.6187(9)
C9D C -0.044(1) -0.099(1) -0.624(1)
O1E O -0.5707(6) -0.3661(6) -0.4021(6)
O2E O -0.2972(5) -0.1519(5) -0.2501(5)
C1E C -0.4274(7) -0.2045(8) -0.2858(8)
C2E C -0.4067(8) -0.0704(8) -0.1894(8)
C3E C -0.5246(8) -0.1113(9) -0.2014(9)
C4E C -0.5166(8) 0.0094(9) -0.1068(9)
C5E C -0.4012(8) 0.1809(9) -0.021(1)
C6E C -0.396(1) 0.291(1) 0.069(1)
C7E C -0.5066(9) 0.233(1) 0.075(1)
C8E C -0.6187(9) 0.068(1) -0.0085(9)
C9E C -0.624(1) -0.044(1) -0.099(1)
La1B La -0.5000 -0.5000 -0.5000
La1B_2 La 0.5000 0.5000 0.5000
O2_2 O -0.7972(5) -0.7501(5) -0.6519(5)
O2A_2 O -0.6519(5) -0.7972(5) -0.7501(5)
O2C_2 O -0.7501(5) -0.6519(5) -0.7972(5)
loop_
_geom_bond_atom_site_label_1
_geom_bond_atom_site_label_2
_geom_bond_site_symmetry_1
_geom_bond_site_symmetry_2
La1 O1 1_555 1_555
O1 C1 1_555 1_555
O2 La1 1_555 1_555
C1 O2 1_555 1_555
C2 C1 1_555 1_555
C3 C2 1_555 1_555
C4 C3 1_555 1_555
C5 C4 1_555 1_555
C6 C5 1_555 1_555
C7 C6 1_555 1_555
C8 C7 1_555 1_555
C9 C4 1_555 1_555
O1A La1 1_555 1_555
O2A La1 1_555 1_555
C1A O1A 1_555 1_555
C2A C1A 1_555 1_555
C3A C2A 1_555 1_555
C4A C3A 1_555 1_555
C5A C4A 1_555 1_555
C6A C5A 1_555 1_555
C7A C6A 1_555 1_555
C8A C7A 1_555 1_555
C9A C4A 1_555 1_555
O1C La1 1_555 1_555
O2C La1 1_555 1_555
C1C O1C 1_555 1_555
C2C C1C 1_555 1_555
C3C C2C 1_555 1_555
C4C C3C 1_555 1_555
C5C C4C 1_555 1_555
C6C C5C 1_555 1_555
C7C C6C 1_555 1_555
C8C C7C 1_555 1_555
C9C C4C 1_555 1_555
O1B C1B 1_555 1_555
O2B La1 1_555 1_555
C1B O2B 1_555 1_555
C2B C1B 1_555 1_555
C3B C2B 1_555 1_555
C4B C3B 1_555 1_555
C5B C4B 1_555 1_555
C6B C5B 1_555 1_555
C7B C6B 1_555 1_555
C8B C7B 1_555 1_555
C9B C4B 1_555 1_555
O1D C1D 1_555 1_555
O2D La1 1_555 1_555
C1D O2D 1_555 1_555
C2D C1D 1_555 1_555
C3D C2D 1_555 1_555
C4D C3D 1_555 1_555
C5D C4D 1_555 1_555
C6D C5D 1_555 1_555
C7D C6D 1_555 1_555
C8D C7D 1_555 1_555
C9D C4D 1_555 1_555
O1E C1E 1_555 1_555
O2E La1 1_555 1_555
C1E O2E 1_555 1_555
C2E C1E 1_555 1_555
C3E C2E 1_555 1_555
C4E C3E 1_555 1_555
C5E C4E 1_555 1_555
C6E C5E 1_555 1_555
C7E C6E 1_555 1_555
C8E C7E 1_555 1_555
C9E C4E 1_555 1_555
La1B O1B 1_555 1_555
La1B_2 O2 1_555 1_555
O2_2 La1B 1_555 1_555
O2A_2 La1B 1_555 1_555
O2C_2 La1B 1_555 1_555
C8 C9 1_555 1_555
O2A La1B_2 1_555 1_555
O2A C1A 1_555 1_555
C8A C9A 1_555 1_555
O2C La1B_2 1_555 1_555
O2C C1C 1_555 1_555
C8C C9C 1_555 1_555
O2B La1B 1_555 1_555
C8B C9B 1_555 1_555
O1D La1B 1_555 1_555
O2D La1B 1_555 1_555
C8D C9D 1_555 1_555
O1E La1B 1_555 1_555
O2E La1B 1_555 1_555
C8E C9E 1_555 1_555

#END
