
#######################################################################
#
#                 Cambridge Crystallographic Data Centre
#                                CCDC 
#
#######################################################################
#
# If this CIF has been generated from an entry in the Cambridge 
# Structural Database, then it will include bibliographic, chemical, 
# crystal, experimental, refinement or atomic coordinate data resulting 
# from the CCDC's data processing and validation procedures.
#
#######################################################################

data_PEXWAQ01
_symmetry_cell_setting           rhombohedral
_symmetry_space_group_name_H-M   'R 3 c'
_symmetry_Int_Tables_number      161
_space_group_name_Hall           'R 3 -2"c'
loop_
_symmetry_equiv_pos_site_id
_symmetry_equiv_pos_as_xyz
1 x,y,z
2 -y,x-y,z
3 -x+y,-x,z
4 -x+y,y,1/2+z
5 x,x-y,1/2+z
6 -y,-x,1/2+z
7 2/3+x,1/3+y,1/3+z
8 2/3-y,1/3+x-y,1/3+z
9 2/3-x+y,1/3-x,1/3+z
10 2/3-x+y,1/3+y,5/6+z
11 2/3+x,1/3+x-y,5/6+z
12 2/3-y,1/3-x,5/6+z
13 1/3+x,2/3+y,2/3+z
14 1/3-y,2/3+x-y,2/3+z
15 1/3-x+y,2/3-x,2/3+z
16 1/3-x+y,2/3+y,1/6+z
17 1/3+x,2/3+x-y,1/6+z
18 1/3-y,2/3-x,1/6+z
_cell_length_a                   22.636(2)
_cell_length_b                   22.636(2)
_cell_length_c                   7.7554(10)
_cell_angle_alpha                90
_cell_angle_beta                 90
_cell_angle_gamma                120
_cell_volume                     3441.39
loop_
_atom_site_label
_atom_site_type_symbol
_atom_site_fract_x
_atom_site_fract_y
_atom_site_fract_z
La1 La 0.0000 0.0000 0.0000(2)
O1 O 0.0804(2) 0.0595(2) 0.2647(5)
O2 O 0.0771(3) 0.1193(2) 0.0456(5)
C1 C 0.1006(3) 0.1177(3) 0.1914(6)
C2 C 0.1508(3) 0.1810(3) 0.2760(8)
C3 C 0.1657(3) 0.2419(3) 0.2152(8)
C4 C 0.2129(3) 0.3090(3) 0.2907(8)
C5 C 0.2612(4) 0.3186(3) 0.4148(9)
C6 C 0.3036(4) 0.3830(4) 0.4835(10)
C7 C 0.2982(4) 0.4384(4) 0.4300(9)
C8 C 0.2501(4) 0.4293(4) 0.3077(10)
C9 C 0.2078(4) 0.3651(3) 0.2367(9)
H1 H 0.1732 0.1785 0.3769
H2 H 0.1435 0.2421 0.1114
H3 H 0.2653 0.2809 0.4527
H4 H 0.3365 0.3890 0.5679
H5 H 0.3274 0.4824 0.4771
H6 H 0.2457 0.4671 0.2717
H7 H 0.1753 0.3595 0.1512
La1C La 0.0000 0.0000 0.5000(2)
O1A O -0.0595(2) 0.0209(3) 0.2647(5)
O1B O -0.0209(3) -0.0804(2) 0.2647(5)
O1C O -0.0209(3) 0.0595(2) -0.2353(5)
O1D O 0.0804(2) 0.0209(3) -0.2353(5)
O1E O -0.0595(2) -0.0804(2) -0.2353(5)
O2A O -0.1193(2) -0.0422(4) 0.0456(5)
O2B O 0.0422(4) -0.0771(3) 0.0456(5)
C1A C -0.1177(3) -0.0171(4) 0.1914(6)
C1B C 0.0171(4) -0.1006(3) 0.1914(6)
C2A C -0.1810(3) -0.0302(4) 0.2760(8)
C2B C 0.0302(4) -0.1508(3) 0.2760(8)
C3A C -0.2419(3) -0.0762(4) 0.2152(8)
C3B C 0.0762(4) -0.1657(3) 0.2152(8)
C4A C -0.3090(3) -0.0961(4) 0.2907(8)
C4B C 0.0961(4) -0.2129(3) 0.2907(8)
C5A C -0.3186(3) -0.0574(5) 0.4148(9)
C5B C 0.0574(5) -0.2612(4) 0.4148(9)
C6A C -0.3830(4) -0.0794(6) 0.4835(10)
C6B C 0.0794(6) -0.3036(4) 0.4835(10)
C7A C -0.4384(4) -0.1402(6) 0.4300(9)
C7B C 0.1402(6) -0.2982(4) 0.4300(9)
C8A C -0.4293(4) -0.1792(6) 0.3077(10)
C8B C 0.1792(6) -0.2501(4) 0.3077(10)
C9A C -0.3651(3) -0.1573(5) 0.2367(9)
C9B C 0.1573(5) -0.2078(4) 0.2367(9)
H1A H -0.1785 -0.0053 0.3769
H1B H 0.0053 -0.1732 0.3769
H2A H -0.2421 -0.0986 0.1114
H2B H 0.0986 -0.1435 0.1114
H3A H -0.2809 -0.0156 0.4527
H3B H 0.0156 -0.2653 0.4527
H4A H -0.3890 -0.0525 0.5679
H4B H 0.0525 -0.3365 0.5679
H5A H -0.4824 -0.1550 0.4771
H5B H 0.1550 -0.3274 0.4771
H6A H -0.4671 -0.2214 0.2717
H6B H 0.2214 -0.2457 0.2717
H7A H -0.3595 -0.1842 0.1512
H7B H 0.1842 -0.1753 0.1512
loop_
_geom_bond_atom_site_label_1
_geom_bond_atom_site_label_2
_geom_bond_site_symmetry_1
_geom_bond_site_symmetry_2
La1 O1 1_555 1_555
O1 C1 1_555 1_555
O2 La1 1_555 1_555
C1 O2 1_555 1_555
C2 C1 1_555 1_555
C3 C2 1_555 1_555
C4 C3 1_555 1_555
C5 C4 1_555 1_555
C6 C5 1_555 1_555
C7 C6 1_555 1_555
C8 C7 1_555 1_555
C9 C4 1_555 1_555
H1 C2 1_555 1_555
H2 C3 1_555 1_555
H3 C5 1_555 1_555
H4 C6 1_555 1_555
H5 C7 1_555 1_555
H6 C8 1_555 1_555
H7 C9 1_555 1_555
La1C O1 1_555 1_555
O1A La1 1_555 1_555
O1B La1 1_555 1_555
O1C La1 1_555 1_555
O1D La1 1_555 1_555
O1E La1 1_555 1_555
O2A La1 1_555 1_555
O2B La1 1_555 1_555
C1A O1A 1_555 1_555
C1B O1B 1_555 1_555
C2A C1A 1_555 1_555
C2B C1B 1_555 1_555
C3A C2A 1_555 1_555
C3B C2B 1_555 1_555
C4A C3A 1_555 1_555
C4B C3B 1_555 1_555
C5A C4A 1_555 1_555
C5B C4B 1_555 1_555
C6A C5A 1_555 1_555
C6B C5B 1_555 1_555
C7A C6A 1_555 1_555
C7B C6B 1_555 1_555
C8A C7A 1_555 1_555
C8B C7B 1_555 1_555
C9A C4A 1_555 1_555
C9B C4B 1_555 1_555
H1A C2A 1_555 1_555
H1B C2B 1_555 1_555
H2A C3A 1_555 1_555
H2B C3B 1_555 1_555
H3A C5A 1_555 1_555
H3B C5B 1_555 1_555
H4A C6A 1_555 1_555
H4B C6B 1_555 1_555
H5A C7A 1_555 1_555
H5B C7B 1_555 1_555
H6A C8A 1_555 1_555
H6B C8B 1_555 1_555
H7A C9A 1_555 1_555
H7B C9B 1_555 1_555
C8 C9 1_555 1_555
La1C O1A 1_555 1_555
La1C O1B 1_555 1_555
O2A C1A 1_555 1_555
O2B C1B 1_555 1_555
C8A C9A 1_555 1_555
C8B C9B 1_555 1_555

#END
