
#######################################################################
#
#                 Cambridge Crystallographic Data Centre
#                                CCDC 
#
#######################################################################
#
# If this CIF has been generated from an entry in the Cambridge 
# Structural Database, then it will include bibliographic, chemical, 
# crystal, experimental, refinement or atomic coordinate data resulting 
# from the CCDC's data processing and validation procedures.
#
#######################################################################

data_PEXXOG
_symmetry_cell_setting           triclinic
_symmetry_space_group_name_H-M   'P -1'
_symmetry_Int_Tables_number      2
_space_group_name_Hall           '-P 1'
loop_
_symmetry_equiv_pos_site_id
_symmetry_equiv_pos_as_xyz
1 x,y,z
2 -x,-y,-z
_cell_length_a                   8.6025(10)
_cell_length_b                   8.9590(11)
_cell_length_c                   11.4191(13)
_cell_angle_alpha                83.5980(10)
_cell_angle_beta                 74.2890(10)
_cell_angle_gamma                61.7440(10)
_cell_volume                     746.094
loop_
_atom_site_label
_atom_site_type_symbol
_atom_site_fract_x
_atom_site_fract_y
_atom_site_fract_z
Co1 Co 0.5000 0.0000 0.0000
O1 O 0.7374(3) 0.0233(3) 0.18381(17)
O2 O 0.4903(3) 0.0017(3) 0.18318(15)
O3 O 0.3374(3) 0.2693(3) 0.0119(2)
O4 O 0.7285(3) 0.0398(3) -0.04823(17)
H1 H 0.7689 0.0394 0.0121
H2 H 0.8069 -0.0072 -0.1140
N1 N 0.1225(5) 0.5077(4) 0.1177(3)
C1 C 0.5959(4) 0.0106(3) 0.2360(2)
C2 C 0.5474(3) 0.0040(3) 0.3727(2)
C3 C 0.3692(4) 0.0434(3) 0.4363(2)
H3 H 0.2808 0.0729 0.3938
C4 C 0.6773(4) -0.0393(4) 0.4381(2)
H4 H 0.7967 -0.0657 0.3970
C5 C 0.2180(5) 0.3405(4) 0.1034(4)
H5 H 0.1928 0.2736 0.1664
C6 C 0.1581(7) 0.6167(5) 0.0239(5)
H6 H 0.2363 0.6538 0.0433
H7 H 0.0453 0.7134 0.0182
H8 H 0.2165 0.5557 -0.0525
C7 C -0.0203(8) 0.5817(7) 0.2234(6)
H9 H -0.1348 0.6388 0.2017
H10 H -0.0017 0.6617 0.2597
H11 H -0.0210 0.4947 0.2805
Co1_2 Co 0.5000 0.0000 1.0000
O1A O 0.2626(3) -0.0233(3) 0.81619(17)
O2A O 0.5097(3) -0.0017(3) 0.81682(15)
O2A_2 O 0.5097(3) -0.0017(3) -0.18318(15)
O3A O 0.6626(3) -0.2693(3) -0.0119(2)
O4A O 0.2715(3) -0.0398(3) 0.04823(17)
H1A H 0.2311 -0.0394 -0.0121
H2A H 0.1931 0.0072 0.1140
N1A N 0.8775(5) -0.5077(4) -0.1177(3)
C1A C 0.4041(4) -0.0106(3) 0.7640(2)
C2A C 0.4526(3) -0.0040(3) 0.6273(2)
C3A C 0.6308(4) -0.0434(3) 0.5637(2)
H3A H 0.7192 -0.0729 0.6062
C4A C 0.3227(4) 0.0393(4) 0.5619(2)
H4A H 0.2033 0.0657 0.6030
C5A C 0.7820(5) -0.3405(4) -0.1034(4)
H5A H 0.8072 -0.2736 -0.1664
C6A C 0.8419(7) -0.6167(5) -0.0239(5)
H6A H 0.7637 -0.6538 -0.0433
H7A H 0.9547 -0.7134 -0.0182
H8A H 0.7835 -0.5557 0.0525
C7A C 1.0203(8) -0.5817(7) -0.2234(6)
H9A H 1.1348 -0.6388 -0.2017
H10A H 1.0017 -0.6617 -0.2597
H11A H 1.0210 -0.4947 -0.2805
O5 O 0.1112(7) 0.7195(9) 0.5524(5)
N2 N 0.3233(6) 0.6088(5) 0.3768(3)
C8 C 0.4308(12) 0.6274(14) 0.2604(6)
H12 H 0.3562 0.7262 0.2215
H13 H 0.4771 0.5290 0.2102
H14 H 0.5308 0.6394 0.2721
C9 C 0.3568(11) 0.4429(7) 0.4177(7)
H15 H 0.3201 0.4441 0.5049
H16 H 0.4845 0.3664 0.3907
H17 H 0.2885 0.4062 0.3850
C10 C 0.1913(8) 0.7452(7) 0.4518(7)
H18 H 0.1633 0.8554 0.4263
O6 O 0.9738(4) 0.1134(5) 0.2347(3)
H19 H 0.9607 0.1686 0.2956
H20 H 0.8773 0.1324 0.2152
loop_
_geom_bond_atom_site_label_1
_geom_bond_atom_site_label_2
_geom_bond_site_symmetry_1
_geom_bond_site_symmetry_2
Co1 O2 1_555 1_555
O1 C1 1_555 1_555
O2 C1 1_555 1_555
O3 Co1 1_555 1_555
O4 Co1 1_555 1_555
H1 O4 1_555 1_555
H2 O4 1_555 1_555
O5 C10 1_555 1_555
N1 C5 1_555 1_555
N2 C8 1_555 1_555
C1 C2 1_555 1_555
C2 C3 1_555 1_555
C3 H3 1_555 1_555
C4 C2 1_555 1_555
H4 C4 1_555 1_555
C5 O3 1_555 1_555
H5 C5 1_555 1_555
C6 N1 1_555 1_555
H6 C6 1_555 1_555
H7 C6 1_555 1_555
H8 C6 1_555 1_555
C7 N1 1_555 1_555
H9 C7 1_555 1_555
H10 C7 1_555 1_555
H11 C7 1_555 1_555
C8 H12 1_555 1_555
H13 C8 1_555 1_555
H14 C8 1_555 1_555
C9 N2 1_555 1_555
H15 C9 1_555 1_555
H16 C9 1_555 1_555
H17 C9 1_555 1_555
C10 N2 1_555 1_555
H18 C10 1_555 1_555
O6 H19 1_555 1_555
H20 O6 1_555 1_555
Co1_2 O2A 1_555 1_555
O1A C1A 1_555 1_555
O2A C1A 1_555 1_555
O2A_2 Co1 1_555 1_555
O3A Co1 1_555 1_555
O4A Co1 1_555 1_555
H1A O4A 1_555 1_555
H2A O4A 1_555 1_555
N1A C5A 1_555 1_555
C1A C2A 1_555 1_555
C2A C3A 1_555 1_555
C3A C4 1_555 1_555
H3A C3A 1_555 1_555
C4A C3 1_555 1_555
H4A C4A 1_555 1_555
C5A O3A 1_555 1_555
H5A C5A 1_555 1_555
C6A N1A 1_555 1_555
H6A C6A 1_555 1_555
H7A C6A 1_555 1_555
H8A C6A 1_555 1_555
C7A N1A 1_555 1_555
H9A C7A 1_555 1_555
H10A C7A 1_555 1_555
H11A C7A 1_555 1_555
C2A C4A 1_555 1_555

#END
