
#######################################################################
#
#                 Cambridge Crystallographic Data Centre
#                                CCDC 
#
#######################################################################
#
# If this CIF has been generated from an entry in the Cambridge 
# Structural Database, then it will include bibliographic, chemical, 
# crystal, experimental, refinement or atomic coordinate data resulting 
# from the CCDC's data processing and validation procedures.
#
#######################################################################

data_PEYBIF
_symmetry_cell_setting           monoclinic
_symmetry_space_group_name_H-M   'P 21/c'
_symmetry_Int_Tables_number      14
_space_group_name_Hall           '-P 2ybc'
loop_
_symmetry_equiv_pos_site_id
_symmetry_equiv_pos_as_xyz
1 x,y,z
2 -x,1/2+y,1/2-z
3 -x,-y,-z
4 x,1/2-y,1/2+z
_cell_length_a                   23.296(5)
_cell_length_b                   5.7045(11)
_cell_length_c                   30.675(6)
_cell_angle_alpha                90
_cell_angle_beta                 123.95(3)
_cell_angle_gamma                90
_cell_volume                     3381.53
loop_
_atom_site_label
_atom_site_type_symbol
_atom_site_fract_x
_atom_site_fract_y
_atom_site_fract_z
Cu1 Cu 0.39051(4) 0.64606(11) 0.30046(3)
Cu2 Cu 0.32806(4) 0.44795(11) 0.34942(3)
S1 S 0.45180(8) 0.4005(2) 0.37313(5)
S2 S 0.27177(8) 0.7006(2) 0.27239(5)
N1 N 0.3877(2) 0.5257(8) 0.23780(17)
N2 N 0.3455(3) 0.8479(8) -0.09229(17)
N3 N 0.4322(2) -0.0439(8) 0.32660(18)
N4 N 0.2909(2) 1.1536(8) 0.31531(17)
C1 C 0.4210(3) 0.6410(10) 0.2200(2)
H1 H 0.4443 0.7786 0.2369
C2 C 0.4224(3) 0.5651(9) 0.1777(2)
H2 H 0.4455 0.6532 0.1665
C3 C 0.3897(3) 0.3594(9) 0.15195(19)
C4 C 0.3546(3) 0.2428(10) 0.1696(2)
H3 H 0.3305 0.1061 0.1529
C5 C 0.3551(3) 0.3280(9) 0.2121(2)
H4 H 0.3315 0.2438 0.2233
C6 C 0.3930(3) 0.2621(9) 0.1078(2)
H5 H 0.3585 0.1397 0.0903
H6 H 0.4380 0.1904 0.1226
C7 C 0.3814(3) 0.4421(9) 0.06669(19)
H7 H 0.4137 0.5707 0.0839
H8 H 0.3349 0.5049 0.0492
C8 C 0.3913(3) 0.3311(9) 0.0257(2)
H9 H 0.4385 0.2751 0.0429
H10 H 0.3605 0.1977 0.0096
C9 C 0.2987(3) 0.6921(9) -0.0986(2)
H11 H 0.2544 0.7010 -0.1291
C10 C 0.3118(3) 0.5187(10) -0.0628(2)
H12 H 0.2775 0.4115 -0.0701
C11 C 0.3765(3) 0.5050(9) -0.0160(2)
C12 C 0.4251(3) 0.6683(10) -0.0089(2)
H13 H 0.4694 0.6663 0.0218
C13 C 0.4082(3) 0.8327(10) -0.0468(2)
H14 H 0.4419 0.9400 -0.0408
C14 C 0.4405(3) 0.1393(10) 0.3458(2)
C15 C 0.2827(3) 0.9684(9) 0.2976(2)
Cu1_2 Cu 0.39051(4) -0.35394(11) 0.30046(3)
Cu2C Cu 0.32806(4) 1.05205(11) -0.15058(3)
Cu2_2 Cu 0.32806(4) 1.44795(11) 0.34942(3)
N2C N 0.3455(3) 0.6521(8) 0.40771(17)
N3_2 N 0.4322(2) 0.9561(8) 0.32660(18)
N4_2 N 0.2909(2) 0.1536(8) 0.31531(17)
Cu3 Cu 0.08931(4) 0.66330(11) 0.38820(3)
Cu4 Cu 0.16365(4) 0.85323(11) 0.49132(3)
S3 S 0.21612(8) 0.6020(2) 0.46098(5)
S4 S 0.03777(7) 0.9131(2) 0.42067(5)
N5 N 0.0969(2) 0.8406(7) 0.33508(16)
N6 N 0.1562(2) 0.8246(7) 0.04410(17)
N7 N 0.2003(2) 0.1615(7) 0.49495(17)
N8 N 0.0512(2) 1.3587(8) 0.38827(16)
C16 C 0.0707(3) 0.7622(9) 0.2858(2)
H15 H 0.0480 0.6184 0.2758
C17 C 0.0761(3) 0.8867(9) 0.2495(2)
H16 H 0.0570 0.8255 0.2160
C18 C 0.1094(3) 1.1012(9) 0.2624(2)
C19 C 0.1377(3) 1.1803(9) 0.31378(19)
H17 H 0.1614 1.3221 0.3248
C20 C 0.1303(3) 1.0468(9) 0.3483(2)
H18 H 0.1493 1.1032 0.3822
C21 C 0.1163(3) 1.2471(9) 0.22448(19)
H19 H 0.1576 1.3427 0.2444
H20 H 0.0769 1.3521 0.2059
C22 C 0.1204(3) 1.1021(9) 0.18349(19)
H21 H 0.1488 0.9644 0.2004
H22 H 0.0743 1.0495 0.1560
C23 C 0.1508(3) 1.2443(9) 0.1590(2)
H23 H 0.1228 1.3832 0.1424
H24 H 0.1972 1.2946 0.1863
C24 C 0.1977(3) 0.7780(9) 0.0957(2)
H25 H 0.2277 0.6510 0.1066
C25 C 0.1977(3) 0.9109(9) 0.1334(2)
H26 H 0.2275 0.8722 0.1687
C26 C 0.1534(3) 1.1027(9) 0.1188(2)
C27 C 0.1106(3) 1.1487(9) 0.0654(2)
H27 H 0.0796 1.2733 0.0534
C28 C 0.1140(3) 1.0091(9) 0.0303(2)
H28 H 0.0852 1.0456 -0.0053
C29 C 0.2065(3) 0.3428(9) 0.48130(19)
C30 C 0.0457(3) 1.1773(9) 0.40196(19)
Cu3_2 Cu 0.08931(4) 1.66330(11) 0.38820(3)
Cu4C Cu 0.16365(4) 0.64677(11) -0.00868(3)
Cu4_2 Cu 0.16365(4) -0.14677(11) 0.49132(3)
N6C N 0.1562(2) 0.6754(7) 0.54410(17)
N7_2 N 0.2003(2) 1.1615(7) 0.49495(17)
N8_2 N 0.0512(2) 0.3587(8) 0.38827(16)
loop_
_geom_bond_atom_site_label_1
_geom_bond_atom_site_label_2
_geom_bond_site_symmetry_1
_geom_bond_site_symmetry_2
Cu1 S1 1_555 1_555
Cu2 S1 1_555 1_555
Cu3 S3 1_555 1_555
Cu4 S3 1_555 1_555
S1 C14 1_555 1_555
S2 Cu1 1_555 1_555
S3 C29 1_555 1_555
S4 Cu3 1_555 1_555
N1 Cu1 1_555 1_555
N2 C9 1_555 1_555
N3 C14 1_555 1_555
N4 C15 1_555 1_555
N5 Cu3 1_555 1_555
N6 C24 1_555 1_555
N7 C29 1_555 1_555
N8 C30 1_555 1_555
C1 N1 1_555 1_555
H1 C1 1_555 1_555
C2 C1 1_555 1_555
H2 C2 1_555 1_555
C3 C2 1_555 1_555
C4 C3 1_555 1_555
H3 C4 1_555 1_555
C5 N1 1_555 1_555
H4 C5 1_555 1_555
C6 C3 1_555 1_555
H5 C6 1_555 1_555
H6 C6 1_555 1_555
C7 C6 1_555 1_555
H7 C7 1_555 1_555
H8 C7 1_555 1_555
C8 C7 1_555 1_555
H9 C8 1_555 1_555
H10 C8 1_555 1_555
C9 H11 1_555 1_555
C10 C9 1_555 1_555
H12 C10 1_555 1_555
C11 C8 1_555 1_555
C12 C11 1_555 1_555
H13 C12 1_555 1_555
C13 N2 1_555 1_555
H14 C13 1_555 1_555
C15 S2 1_555 1_555
C16 N5 1_555 1_555
H15 C16 1_555 1_555
C17 C16 1_555 1_555
H16 C17 1_555 1_555
C18 C17 1_555 1_555
C19 C18 1_555 1_555
H17 C19 1_555 1_555
C20 N5 1_555 1_555
H18 C20 1_555 1_555
C21 C18 1_555 1_555
H19 C21 1_555 1_555
H20 C21 1_555 1_555
C22 C21 1_555 1_555
H21 C22 1_555 1_555
H22 C22 1_555 1_555
C23 C22 1_555 1_555
H23 C23 1_555 1_555
H24 C23 1_555 1_555
C24 H25 1_555 1_555
C25 C24 1_555 1_555
H26 C25 1_555 1_555
C26 C23 1_555 1_555
C27 C26 1_555 1_555
H27 C27 1_555 1_555
C28 N6 1_555 1_555
H28 C28 1_555 1_555
C30 S4 1_555 1_555
Cu1_2 N3 1_555 1_555
Cu2C N2 1_555 1_555
Cu2_2 N4 1_555 1_555
Cu3_2 N8 1_555 1_555
Cu4C N6 1_555 1_555
Cu4_2 N7 1_555 1_555
N2C Cu2 1_555 1_555
N3_2 Cu1 1_555 1_555
N4_2 Cu2 1_555 1_555
N6C Cu4 1_555 1_555
N7_2 Cu4 1_555 1_555
N8_2 Cu3 1_555 1_555
Cu2 S2 1_555 1_555
Cu4 S4 1_555 1_555
C4 C5 1_555 1_555
C10 C11 1_555 1_555
C12 C13 1_555 1_555
C19 C20 1_555 1_555
C25 C26 1_555 1_555
C27 C28 1_555 1_555

#END
