
#######################################################################
#
#                 Cambridge Crystallographic Data Centre
#                                CCDC 
#
#######################################################################
#
# If this CIF has been generated from an entry in the Cambridge 
# Structural Database, then it will include bibliographic, chemical, 
# crystal, experimental, refinement or atomic coordinate data resulting 
# from the CCDC's data processing and validation procedures.
#
#######################################################################

data_PEYCON
_symmetry_cell_setting           orthorhombic
_symmetry_space_group_name_H-M   'P c a 21'
_symmetry_Int_Tables_number      29
_space_group_name_Hall           'P 2c -2ac'
loop_
_symmetry_equiv_pos_site_id
_symmetry_equiv_pos_as_xyz
1 x,y,z
2 -x,-y,1/2+z
3 1/2-x,y,1/2+z
4 1/2+x,-y,z
_cell_length_a                   14.6359(17)
_cell_length_b                   14.629(3)
_cell_length_c                   13.3526(14)
_cell_angle_alpha                90
_cell_angle_beta                 90
_cell_angle_gamma                90
_cell_volume                     2858.91
loop_
_atom_site_label
_atom_site_type_symbol
_atom_site_fract_x
_atom_site_fract_y
_atom_site_fract_z
C1 C 0.9988(3) 1.1750(2) 0.3473(3)
H1 H 0.9819 1.1623 0.4154
H2 H 0.9465 1.1972 0.3113
H3 H 1.0461 1.2205 0.3463
C2 C 1.0334(2) 1.0884(2) 0.2984(2)
C3 C 1.0629(2) 1.09163(18) 0.1965(2)
C4 C 1.08171(18) 1.01373(19) 0.13492(19)
C5 C 1.1139(2) 1.0283(2) 0.0294(2)
H4 H 1.1717 1.0591 0.0302
H5 H 1.07 1.0648 -0.0061
H6 H 1.1204 0.9702 -0.0034
C6 C 1.0753(2) 1.1794(2) 0.1541(3)
N1 N 1.0855(3) 1.2510(2) 0.1216(2)
O1 O 1.03067(15) 1.01748(14) 0.34962(15)
O2 O 1.07236(13) 0.93363(12) 0.16378(17)
Cd1 Cd 1.101182(12) 0.883495(12) 0.324450(14)
C7 C 1.3376(2) 1.0284(2) 0.1866(3)
H7 H 1.2985 1.0694 0.1504
H8 H 1.3872 1.0097 0.1442
H9 H 1.3615 1.0588 0.2446
C8 C 1.28402(18) 0.9460(2) 0.2185(2)
C9 C 1.28362(18) 0.86654(19) 0.1564(2)
C10 C 1.2321(2) 0.78554(19) 0.1755(3)
C11 C 1.2345(4) 0.7097(2) 0.0996(3)
H10 H 1.204 0.6569 0.1263
H11 H 1.2968 0.6946 0.0845
H12 H 1.204 0.7292 0.0396
C12 C 1.3327(2) 0.8694(2) 0.0648(2)
N2 N 1.37154(19) 0.8697(2) -0.0094(2)
O3 O 1.24092(14) 0.95174(15) 0.29834(15)
O4 O 1.18440(16) 0.77378(13) 0.25100(16)
C13 C 0.7621(3) 0.7641(3) 0.4182(3)
H13 H 0.7546 0.8273 0.4005
H14 H 0.8205 0.7557 0.4496
H15 H 0.7146 0.7464 0.4638
C14 C 0.7568(2) 0.70567(19) 0.3245(3)
C15 C 0.83548(19) 0.69969(19) 0.2614(2)
C16 C 0.84182(17) 0.64813(19) 0.1705(3)
C17 C 0.9310(2) 0.6482(3) 0.1138(3)
H16 H 0.9216 0.6229 0.0483
H17 H 0.9751 0.612 0.1493
H18 H 0.953 0.7097 0.1078
C18 C 0.9140(2) 0.7486(2) 0.2923(2)
N3 N 0.97789(17) 0.78845(17) 0.3167(2)
O5 O 0.68248(14) 0.66722(16) 0.30789(16)
O6 O 0.77760(15) 0.60246(15) 0.13462(16)
Cd2 Cd 0.626961(13) 0.600256(12) 0.167751(15)
C19 C 0.3850(2) 0.6040(2) -0.0827(3)
H19 H 0.3367 0.6396 -0.1118
H20 H 0.432 0.644 -0.0586
H21 H 0.3612 0.5686 -0.028
C20 C 0.42427(17) 0.54059(17) -0.1610(2)
C21 C 0.51155(18) 0.50007(18) -0.14433(19)
C22 C 0.55629(18) 0.4367(2) -0.2095(2)
C23 C 0.6527(2) 0.4060(3) -0.1839(3)
H22 H 0.6626 0.3455 -0.2095
H23 H 0.6604 0.4058 -0.1125
H24 H 0.6959 0.4472 -0.2135
C24 C 0.55860(19) 0.5247(2) -0.0567(2)
N4 N 0.59683(18) 0.5439(2) 0.0148(2)
O7 O 0.37692(13) 0.52742(14) -0.23715(16)
O8 O 0.52253(14) 0.40537(15) -0.28696(16)
N1C N 0.5855(3) 0.7490(2) 0.1216(2)
Cd1B Cd 1.398818(12) 0.883495(12) -0.175550(14)
N2B N 1.12846(19) 0.8697(2) 0.4906(2)
Cd2A Cd 0.373039(13) 0.399744(12) -0.332249(15)
Cd2C Cd 1.126961(13) 1.399744(12) 0.167751(15)
O7A O 0.62308(13) 0.47258(14) 0.26285(16)
O8A O 0.47747(14) 0.59463(15) 0.21304(16)
loop_
_geom_bond_atom_site_label_1
_geom_bond_atom_site_label_2
_geom_bond_site_symmetry_1
_geom_bond_site_symmetry_2
C1 H1 1_555 1_555
H2 C1 1_555 1_555
H3 C1 1_555 1_555
C2 C1 1_555 1_555
C3 C2 1_555 1_555
C4 C3 1_555 1_555
C5 C4 1_555 1_555
H4 C5 1_555 1_555
H5 C5 1_555 1_555
H6 C5 1_555 1_555
C6 C3 1_555 1_555
N1 C6 1_555 1_555
O1 C2 1_555 1_555
O2 C4 1_555 1_555
Cd1 O1 1_555 1_555
C7 H7 1_555 1_555
H8 C7 1_555 1_555
H9 C7 1_555 1_555
C8 C7 1_555 1_555
C9 C8 1_555 1_555
C10 C9 1_555 1_555
C11 C10 1_555 1_555
H10 C11 1_555 1_555
H11 C11 1_555 1_555
H12 C11 1_555 1_555
C12 C9 1_555 1_555
N2 C12 1_555 1_555
O3 Cd1 1_555 1_555
O4 Cd1 1_555 1_555
C13 H13 1_555 1_555
H14 C13 1_555 1_555
H15 C13 1_555 1_555
C14 C13 1_555 1_555
C15 C14 1_555 1_555
C16 C15 1_555 1_555
C17 C16 1_555 1_555
H16 C17 1_555 1_555
H17 C17 1_555 1_555
H18 C17 1_555 1_555
C18 C15 1_555 1_555
N3 Cd1 1_555 1_555
O5 C14 1_555 1_555
O6 C16 1_555 1_555
Cd2 O5 1_555 1_555
C19 H19 1_555 1_555
H20 C19 1_555 1_555
H21 C19 1_555 1_555
C20 C19 1_555 1_555
C21 C20 1_555 1_555
C22 C21 1_555 1_555
C23 C22 1_555 1_555
H22 C23 1_555 1_555
H23 C23 1_555 1_555
H24 C23 1_555 1_555
C24 C21 1_555 1_555
N4 Cd2 1_555 1_555
O7 C20 1_555 1_555
O8 C22 1_555 1_555
N1C Cd2 1_555 1_555
Cd1B N2 1_555 1_555
N2B Cd1 1_555 1_555
Cd2A O7 1_555 1_555
Cd2C N1 1_555 1_555
O7A Cd2 1_555 1_555
O8A Cd2 1_555 1_555
O2 Cd1 1_555 1_555
C8 O3 1_555 1_555
C10 O4 1_555 1_555
C18 N3 1_555 1_555
O6 Cd2 1_555 1_555
C24 N4 1_555 1_555
O8 Cd2A 1_555 1_555

#END
