
#######################################################################
#
#                 Cambridge Crystallographic Data Centre
#                                CCDC 
#
#######################################################################
#
# If this CIF has been generated from an entry in the Cambridge 
# Structural Database, then it will include bibliographic, chemical, 
# crystal, experimental, refinement or atomic coordinate data resulting 
# from the CCDC's data processing and validation procedures.
#
#######################################################################

data_PEYCIG
_symmetry_cell_setting           orthorhombic
_symmetry_space_group_name_H-M   'P b c a'
_symmetry_Int_Tables_number      61
_space_group_name_Hall           '-P 2ac 2ab'
loop_
_symmetry_equiv_pos_site_id
_symmetry_equiv_pos_as_xyz
1 x,y,z
2 1/2-x,-y,1/2+z
3 -x,1/2+y,1/2-z
4 1/2+x,1/2-y,-z
5 -x,-y,-z
6 1/2+x,y,1/2-z
7 x,1/2-y,1/2+z
8 1/2-x,1/2+y,z
_cell_length_a                   13.068(6)
_cell_length_b                   11.294(5)
_cell_length_c                   20.158(9)
_cell_angle_alpha                90
_cell_angle_beta                 90
_cell_angle_gamma                90
_cell_volume                     2975.12
loop_
_atom_site_label
_atom_site_type_symbol
_atom_site_fract_x
_atom_site_fract_y
_atom_site_fract_z
Sn1 Sn 0.06509(3) 0.54883(4) 0.24516(2)
N1 N -0.0536(4) 0.7725(4) 0.3221(3)
N2 N -0.0338(4) 0.6556(4) 0.3384(2)
N3 N -0.0751(4) 0.5050(5) 0.4126(3)
S1 S -0.16167(14) 0.72886(15) 0.42407(8)
S2 S -0.16170(16) 0.96629(15) 0.35855(10)
S3 S -0.06294(17) 0.2430(2) 0.45105(13)
C1 C -0.1169(5) 0.8232(5) 0.3622(3)
C2 C -0.0838(5) 0.6201(5) 0.3901(3)
C3 C -0.1215(6) 0.4758(6) 0.4657(3)
H1 H -0.1576 0.5339 0.4885
C4 C -0.1210(5) 0.3575(6) 0.4922(3)
C5 C -0.1703(7) 0.3203(7) 0.5498(4)
H2 H -0.2077 0.3691 0.5780
C6 C -0.1550(8) 0.1961(8) 0.5593(4)
H3 H -0.1803 0.1542 0.5954
C7 C -0.1006(8) 0.1472(8) 0.5107(5)
H4 H -0.0847 0.0669 0.5096
C8 C 0.1193(6) 0.4229(6) 0.3152(4)
H5 H 0.1881 0.4427 0.3279
H6 H 0.1184 0.3454 0.2956
H7 H 0.0761 0.4238 0.3536
C9 C -0.0831(5) 0.5401(6) 0.2030(4)
H8 H -0.0921 0.6048 0.1726
H9 H -0.1334 0.5451 0.2375
H10 H -0.0908 0.4665 0.1797
C10 C 0.1498(6) 0.7093(6) 0.2384(4)
H11 H 0.2150 0.6993 0.2595
H12 H 0.1127 0.7717 0.2599
H13 H 0.1599 0.7292 0.1925
Sn1B Sn -0.06509(3) 1.04883(4) 0.25484(2)
S2B S 0.16170(16) 0.46629(15) 0.14145(10)
loop_
_geom_bond_atom_site_label_1
_geom_bond_atom_site_label_2
_geom_bond_site_symmetry_1
_geom_bond_site_symmetry_2
Sn1 N2 1_555 1_555
N1 N2 1_555 1_555
N2 C2 1_555 1_555
N3 C2 1_555 1_555
S1 C1 1_555 1_555
S2 C1 1_555 1_555
S3 C4 1_555 1_555
C1 N1 1_555 1_555
C2 S1 1_555 1_555
C3 N3 1_555 1_555
H1 C3 1_555 1_555
C4 C3 1_555 1_555
C5 C4 1_555 1_555
H2 C5 1_555 1_555
C6 C5 1_555 1_555
H3 C6 1_555 1_555
C7 S3 1_555 1_555
H4 C7 1_555 1_555
C8 Sn1 1_555 1_555
H5 C8 1_555 1_555
H6 C8 1_555 1_555
H7 C8 1_555 1_555
C9 Sn1 1_555 1_555
H8 C9 1_555 1_555
H9 C9 1_555 1_555
H10 C9 1_555 1_555
C10 Sn1 1_555 1_555
H11 C10 1_555 1_555
H12 C10 1_555 1_555
H13 C10 1_555 1_555
Sn1B S2 1_555 1_555
S2B Sn1 1_555 1_555
C6 C7 1_555 1_555

#END
