
#######################################################################
#
#                 Cambridge Crystallographic Data Centre
#                                CCDC 
#
#######################################################################
#
# If this CIF has been generated from an entry in the Cambridge 
# Structural Database, then it will include bibliographic, chemical, 
# crystal, experimental, refinement or atomic coordinate data resulting 
# from the CCDC's data processing and validation procedures.
#
#######################################################################

data_PEYCON01
_symmetry_cell_setting           monoclinic
_symmetry_space_group_name_H-M   'P 21/c'
_symmetry_Int_Tables_number      14
_space_group_name_Hall           '-P 2ybc'
loop_
_symmetry_equiv_pos_site_id
_symmetry_equiv_pos_as_xyz
1 x,y,z
2 -x,1/2+y,1/2-z
3 -x,-y,-z
4 x,1/2-y,1/2+z
_cell_length_a                   7.5887(4)
_cell_length_b                   14.3855(7)
_cell_length_c                   25.395(1)
_cell_angle_alpha                90
_cell_angle_beta                 93.314(1)
_cell_angle_gamma                90
_cell_volume                     2767.67
loop_
_atom_site_label
_atom_site_type_symbol
_atom_site_fract_x
_atom_site_fract_y
_atom_site_fract_z
O1 O 0.4550(3) -0.14060(16) 0.48348(8)
O2 O 0.1139(3) -0.21497(15) 0.45053(8)
C1 C 0.6071(4) -0.0562(3) 0.42145(13)
H1 H 0.5879 0.0085 0.4319
H2 H 0.6166 -0.0593 0.3832
H3 H 0.7163 -0.0794 0.4393
C2 C 0.4537(4) -0.1150(2) 0.43683(11)
C3 C 0.3145(4) -0.13562(19) 0.39795(11)
C4 C 0.1486(4) -0.1781(2) 0.40776(11)
C5 C 0.0032(4) -0.1771(2) 0.36432(11)
H4 H -0.0965 -0.2144 0.3751
H5 H 0.0479 -0.2031 0.3320
H6 H -0.0358 -0.1129 0.3578
C6 C 0.3308(4) -0.0995(2) 0.34636(11)
N1 N 0.3402(4) -0.07014(19) 0.30472(10)
Cd1 Cd 0.24002(2) -0.003220(14) 0.225176(7)
N2 N 0.1411(4) 0.12211(18) 0.27175(11)
C7 C 0.2829(4) 0.3459(2) 0.25877(14)
H7 H 0.3328 0.4059 0.2491
H8 H 0.2886 0.3026 0.2291
H9 H 0.3505 0.3207 0.2896
C8 C 0.0928(4) 0.3590(2) 0.27184(11)
C9 C -0.0108(4) 0.2792(2) 0.28362(11)
C10 C -0.1894(4) 0.2797(2) 0.30072(10)
C11 C -0.2761(4) 0.1881(2) 0.31185(12)
H10 H -0.3823 0.1991 0.3311
H11 H -0.1937 0.1490 0.3332
H12 H -0.3087 0.1566 0.2785
C12 C 0.0719(4) 0.1921(2) 0.27745(11)
O3 O 0.0361(3) 0.44076(14) 0.27159(8)
O4 O -0.2764(3) 0.35152(14) 0.30702(8)
O5 O 0.4943(3) 0.06157(14) 0.20562(7)
O6 O 0.1660(3) 0.06178(15) 0.14524(8)
C13 C 0.7412(4) 0.1196(2) 0.16523(11)
H13 H 0.7500 0.1816 0.1812
H14 H 0.7828 0.1220 0.1294
H15 H 0.8141 0.0759 0.1866
C14 C 0.5524(4) 0.08790(18) 0.16299(11)
C15 C 0.4488(4) 0.09287(19) 0.11405(11)
C16 C 0.2603(4) 0.08095(19) 0.10813(11)
C17 C 0.1701(4) 0.0939(2) 0.05395(12)
H16 H 0.1798 0.0364 0.0336
H17 H 0.2268 0.1449 0.0357
H18 H 0.0453 0.1086 0.0574
C18 C 0.5355(4) 0.1159(2) 0.06753(11)
N3 N 0.6026(3) 0.13282(19) 0.02945(10)
Cd2 Cd 0.70718(2) 0.249441(14) -0.023616(7)
O7 O -0.1105(2) 0.15241(14) -0.06313(8)
O8 O -0.1162(3) 0.35270(14) -0.06158(8)
C19 C 0.1494(4) 0.0827(2) -0.09145(12)
H19 H 0.1968 0.0496 -0.0600
H20 H 0.2469 0.1034 -0.1123
H21 H 0.0721 0.0411 -0.1128
C20 C 0.0453(4) 0.1660(2) -0.07491(10)
C21 C 0.1300(3) 0.2550(2) -0.07303(10)
C22 C 0.0454(4) 0.3428(2) -0.06721(11)
C23 C 0.1567(4) 0.4295(2) -0.07000(14)
H22 H 0.0887 0.4833 -0.0590
H23 H 0.1906 0.4387 -0.1063
H24 H 0.2631 0.4228 -0.0465
C24 C 0.3156(4) 0.2552(2) -0.07864(10)
N4 N 0.4660(3) 0.25317(18) -0.08200(10)
O1A O 0.5450(3) 0.35940(16) 0.01652(8)
O2A O 0.8861(3) 0.28503(15) 0.04947(8)
Cd1A Cd -0.24002(2) 0.496780(14) 0.274824(7)
O3A O -0.0361(3) -0.05924(14) 0.22841(8)
O4A O 0.2764(3) -0.14848(14) 0.19298(8)
Cd2_2 Cd -0.29282(2) 0.249441(14) -0.023616(7)
Cd2A Cd 0.29282(2) -0.250559(14) 0.523616(7)
O7_2 O 0.8895(2) 0.15241(14) -0.06313(8)
O8_2 O 0.8838(3) 0.35270(14) -0.06158(8)
loop_
_geom_bond_atom_site_label_1
_geom_bond_atom_site_label_2
_geom_bond_site_symmetry_1
_geom_bond_site_symmetry_2
O1 C2 1_555 1_555
O2 C4 1_555 1_555
C1 H1 1_555 1_555
H2 C1 1_555 1_555
H3 C1 1_555 1_555
C2 C1 1_555 1_555
C3 C2 1_555 1_555
C4 C3 1_555 1_555
C5 C4 1_555 1_555
H4 C5 1_555 1_555
H5 C5 1_555 1_555
H6 C5 1_555 1_555
C6 C3 1_555 1_555
N1 C6 1_555 1_555
Cd1 N1 1_555 1_555
N2 Cd1 1_555 1_555
C7 H7 1_555 1_555
H8 C7 1_555 1_555
H9 C7 1_555 1_555
C8 C7 1_555 1_555
C9 C8 1_555 1_555
C10 C9 1_555 1_555
C11 C10 1_555 1_555
H10 C11 1_555 1_555
H11 C11 1_555 1_555
H12 C11 1_555 1_555
C12 N2 1_555 1_555
O3 C8 1_555 1_555
O4 C10 1_555 1_555
O5 Cd1 1_555 1_555
O6 Cd1 1_555 1_555
C13 H13 1_555 1_555
H14 C13 1_555 1_555
H15 C13 1_555 1_555
C14 O5 1_555 1_555
C15 C14 1_555 1_555
C16 O6 1_555 1_555
C17 C16 1_555 1_555
H16 C17 1_555 1_555
H17 C17 1_555 1_555
H18 C17 1_555 1_555
C18 C15 1_555 1_555
N3 C18 1_555 1_555
Cd2 N3 1_555 1_555
O7 C20 1_555 1_555
O8 C22 1_555 1_555
C19 H19 1_555 1_555
H20 C19 1_555 1_555
H21 C19 1_555 1_555
C20 C19 1_555 1_555
C21 C20 1_555 1_555
C22 C21 1_555 1_555
C23 C22 1_555 1_555
H22 C23 1_555 1_555
H23 C23 1_555 1_555
H24 C23 1_555 1_555
C24 C21 1_555 1_555
N4 Cd2 1_555 1_555
O1A Cd2 1_555 1_555
O2A Cd2 1_555 1_555
Cd1A O3 1_555 1_555
O3A Cd1 1_555 1_555
O4A Cd1 1_555 1_555
Cd2_2 O7 1_555 1_555
Cd2A O1 1_555 1_555
O7_2 Cd2 1_555 1_555
O8_2 Cd2 1_555 1_555
O2 Cd2A 1_555 1_555
C9 C12 1_555 1_555
O4 Cd1A 1_555 1_555
C13 C14 1_555 1_555
C15 C16 1_555 1_555
O8 Cd2_2 1_555 1_555
C24 N4 1_555 1_555

#END
