
#######################################################################
#
#                 Cambridge Crystallographic Data Centre
#                                CCDC 
#
#######################################################################
#
# If this CIF has been generated from an entry in the Cambridge 
# Structural Database, then it will include bibliographic, chemical, 
# crystal, experimental, refinement or atomic coordinate data resulting 
# from the CCDC's data processing and validation procedures.
#
#######################################################################

data_PEYDAA
_symmetry_cell_setting           tetragonal
_symmetry_space_group_name_H-M   'I 41/a'
_symmetry_Int_Tables_number      88
_space_group_name_Hall           '-I 4ad'
loop_
_symmetry_equiv_pos_site_id
_symmetry_equiv_pos_as_xyz
1 x,y,z
2 -x,1/2-y,z
3 3/4-y,1/4+x,1/4+z
4 1/4+y,1/4-x,1/4+z
5 1/2+x,1/2+y,1/2+z
6 1/2-x,-y,1/2+z
7 1/4-y,3/4+x,3/4+z
8 3/4+y,3/4-x,3/4+z
9 -x,-y,-z
10 x,1/2+y,-z
11 1/4+y,3/4-x,3/4-z
12 3/4-y,3/4+x,3/4-z
13 1/2-x,1/2-y,1/2-z
14 1/2+x,y,1/2-z
15 3/4+y,1/4-x,1/4-z
16 1/4-y,1/4+x,1/4-z
_cell_length_a                   21.8166(12)
_cell_length_b                   21.8166(12)
_cell_length_c                   12.2007(7)
_cell_angle_alpha                90
_cell_angle_beta                 90
_cell_angle_gamma                90
_cell_volume                     5807.09
loop_
_atom_site_label
_atom_site_type_symbol
_atom_site_fract_x
_atom_site_fract_y
_atom_site_fract_z
C1 C 0.42292(16) 0.16030(16) -0.0989(3)
H1 H 0.4208 0.1762 -0.1722
H2 H 0.4327 0.1174 -0.1013
H3 H 0.4541 0.1817 -0.0588
C2 C 0.36207(15) 0.16905(14) -0.0432(3)
C3 C 0.35202(15) 0.13954(14) 0.0602(3)
C4 C 0.29618(14) 0.13874(14) 0.1221(3)
C5 C 0.29240(17) 0.10010(18) 0.2240(3)
H4 H 0.2996 0.1253 0.2872
H5 H 0.3228 0.0683 0.2209
H6 H 0.2524 0.082 0.2291
C6 C 0.40190(15) 0.10521(15) 0.1018(3)
O1 O 0.32314(10) 0.20206(11) -0.0914(2)
O2 O 0.24911(10) 0.16844(10) 0.0968(2)
N1 N 0.44274(14) 0.07840(14) 0.1361(3)
Cd1 Cd 0.499969(9) 0.007776(11) 0.23355(2)
O3 O 0.58439(10) 0.00868(10) 0.1270(2)
O4 O 0.54977(10) 0.08761(11) 0.3083(2)
C7 C 0.66686(17) 0.04152(17) 0.0174(3)
H7 H 0.7037 0.025 0.0489
H8 H 0.6759 0.0798 -0.0179
H9 H 0.6508 0.0132 -0.0356
C8 C 0.61977(14) 0.05180(14) 0.1069(3)
C9 C 0.61968(14) 0.10930(14) 0.1645(3)
C10 C 0.58590(14) 0.12342(15) 0.2624(3)
C11 C 0.59674(17) 0.18473(17) 0.3161(3)
H10 H 0.5739 0.1869 0.3833
H11 H 0.5836 0.2168 0.2677
H12 H 0.6396 0.1895 0.3314
C12 C 0.65921(15) 0.15623(15) 0.1245(3)
N2 N 0.69039(14) 0.19457(13) 0.0920(3)
O1C O 0.45206(11) -0.07314(10) 0.1586(2)
O2C O 0.41844(10) 0.00089(10) 0.3468(2)
Cd1F Cd 0.242224(11) 0.249969(9) -0.01645(2)
Cd1G Cd 0.757776(11) 0.250031(9) -0.01645(2)
N2B N 0.55543(13) -0.05961(14) 0.3420(3)
loop_
_geom_bond_atom_site_label_1
_geom_bond_atom_site_label_2
_geom_bond_site_symmetry_1
_geom_bond_site_symmetry_2
C1 H1 1_555 1_555
H2 C1 1_555 1_555
H3 C1 1_555 1_555
C2 C1 1_555 1_555
C3 C2 1_555 1_555
C4 C3 1_555 1_555
C5 C4 1_555 1_555
H4 C5 1_555 1_555
H5 C5 1_555 1_555
H6 C5 1_555 1_555
C6 C3 1_555 1_555
O1 C2 1_555 1_555
O2 C4 1_555 1_555
N1 C6 1_555 1_555
Cd1 N1 1_555 1_555
O3 Cd1 1_555 1_555
O4 Cd1 1_555 1_555
C7 H7 1_555 1_555
H8 C7 1_555 1_555
H9 C7 1_555 1_555
C8 O3 1_555 1_555
C9 C8 1_555 1_555
C10 O4 1_555 1_555
C11 C10 1_555 1_555
H10 C11 1_555 1_555
H11 C11 1_555 1_555
H12 C11 1_555 1_555
C12 C9 1_555 1_555
N2 C12 1_555 1_555
O1C Cd1 1_555 1_555
O2C Cd1 1_555 1_555
Cd1F O1 1_555 1_555
Cd1G N2 1_555 1_555
N2B Cd1 1_555 1_555
O2 Cd1F 1_555 1_555
C7 C8 1_555 1_555
C9 C10 1_555 1_555

#END
