
#######################################################################
#
#                 Cambridge Crystallographic Data Centre
#                                CCDC 
#
#######################################################################
#
# If this CIF has been generated from an entry in the Cambridge 
# Structural Database, then it will include bibliographic, chemical, 
# crystal, experimental, refinement or atomic coordinate data resulting 
# from the CCDC's data processing and validation procedures.
#
#######################################################################

data_PEYGUW
_symmetry_cell_setting           monoclinic
_symmetry_space_group_name_H-M   'P 21/c'
_symmetry_Int_Tables_number      14
_space_group_name_Hall           '-P 2ybc'
loop_
_symmetry_equiv_pos_site_id
_symmetry_equiv_pos_as_xyz
1 x,y,z
2 -x,1/2+y,1/2-z
3 -x,-y,-z
4 x,1/2-y,1/2+z
_cell_length_a                   12.6381(4)
_cell_length_b                   6.6650(3)
_cell_length_c                   12.4126(5)
_cell_angle_alpha                90
_cell_angle_beta                 109.391(2)
_cell_angle_gamma                90
_cell_volume                     986.241
loop_
_atom_site_label
_atom_site_type_symbol
_atom_site_fract_x
_atom_site_fract_y
_atom_site_fract_z
C1 C 0.68077(17) 0.2218(3) 0.05141(16)
C2 C 0.68435(18) 0.4079(3) 0.11161(17)
C3 C 0.7769(2) 0.5314(4) 0.1373(2)
H1 H 0.7764 0.6547 0.1722
C4 C 0.8710(2) 0.4721(4) 0.1111(2)
C5 C 0.87454(18) 0.2952(4) 0.0560(2)
H2 H 0.9392 0.2554 0.0419
C6 C 0.77878(18) 0.1775(3) 0.02212(18)
C7 C 0.78239(18) -0.0009(3) -0.04318(19)
Ca1 Ca 0.48312(3) 0.01488(6) -0.16040(3)
H3 H 0.2757 0.1268 -0.3348
H4 H 0.2401 -0.0439 -0.3137
N1 N 0.9703(2) 0.5985(4) 0.1469(2)
N2 N 0.58967(19) 0.4676(3) 0.15310(19)
O1 O 0.59571(12) 0.1051(2) 0.02700(13)
O2 O 0.69375(16) -0.0846(3) -0.09917(17)
O3 O 0.87192(19) -0.0631(5) -0.0444(3)
O4 O 0.9629(2) 0.7628(5) 0.1873(3)
O5 O 1.05667(18) 0.5356(4) 0.1346(2)
O6 O 0.56667(16) 0.6478(3) 0.15572(17)
O7 O 0.54175(14) 0.3319(2) 0.19177(15)
O8 O 0.29631(16) 0.0249(3) -0.29719(19)
Ca1B Ca 0.51688(3) -0.01488(6) 0.16040(3)
Ca1B_2 Ca 0.51688(3) 0.98512(6) 0.16040(3)
Ca1C Ca 0.48312(3) 0.48512(6) 0.33960(3)
O1B O 0.40429(12) -0.1051(2) -0.02700(13)
O6B O 0.43333(16) 0.3522(3) -0.15572(17)
O7C O 0.54175(14) 0.1681(2) -0.30823(15)
O7B O 0.45825(14) -0.3319(2) -0.19177(15)
loop_
_geom_bond_atom_site_label_1
_geom_bond_atom_site_label_2
_geom_bond_site_symmetry_1
_geom_bond_site_symmetry_2
C1 C2 1_555 1_555
C2 C3 1_555 1_555
C3 H1 1_555 1_555
C4 C3 1_555 1_555
C5 C4 1_555 1_555
H2 C5 1_555 1_555
C6 C1 1_555 1_555
C7 C6 1_555 1_555
Ca1 O1 1_555 1_555
H3 O8 1_555 1_555
H4 O8 1_555 1_555
N1 C4 1_555 1_555
N2 C2 1_555 1_555
O1 C1 1_555 1_555
O2 C7 1_555 1_555
O3 C7 1_555 1_555
O4 N1 1_555 1_555
O5 N1 1_555 1_555
O6 N2 1_555 1_555
O7 N2 1_555 1_555
O8 Ca1 1_555 1_555
Ca1B O1 1_555 1_555
Ca1B_2 O6 1_555 1_555
Ca1C O7 1_555 1_555
O1B Ca1 1_555 1_555
O6B Ca1 1_555 1_555
O7C Ca1 1_555 1_555
O7B Ca1 1_555 1_555
C5 C6 1_555 1_555
Ca1 O2 1_555 1_555
O7 Ca1B 1_555 1_555
Ca1B O1B 1_555 1_555

#END
