
#######################################################################
#
#                 Cambridge Crystallographic Data Centre
#                                CCDC 
#
#######################################################################
#
# If this CIF has been generated from an entry in the Cambridge 
# Structural Database, then it will include bibliographic, chemical, 
# crystal, experimental, refinement or atomic coordinate data resulting 
# from the CCDC's data processing and validation procedures.
#
#######################################################################

data_PEYHIL
_symmetry_cell_setting           monoclinic
_symmetry_space_group_name_H-M   'P 21/n'
_symmetry_Int_Tables_number      14
_space_group_name_Hall           '-P 2yn'
loop_
_symmetry_equiv_pos_site_id
_symmetry_equiv_pos_as_xyz
1 x,y,z
2 1/2-x,1/2+y,1/2-z
3 -x,-y,-z
4 1/2+x,1/2-y,1/2+z
_cell_length_a                   14.0597(11)
_cell_length_b                   9.4711(7)
_cell_length_c                   14.5223(12)
_cell_angle_alpha                90
_cell_angle_beta                 106.6260(10)
_cell_angle_gamma                90
_cell_volume                     1852.95
loop_
_atom_site_label
_atom_site_type_symbol
_atom_site_fract_x
_atom_site_fract_y
_atom_site_fract_z
Cu1 Cu 0.81714(2) 0.80939(3) 0.22282(2)
N1 N 0.81304(18) 0.9109(2) 0.10006(15)
N2 N 0.92476(15) 0.6920(2) 0.19033(15)
N3 N 0.91789(16) 0.8157(2) 0.35394(15)
O1 O 0.74937(12) 0.60765(17) 0.21184(13)
O2 O 0.79743(13) 0.38655(18) 0.24797(15)
C1 C 0.7662(3) 1.0323(3) 0.0674(2)
H1 H 0.7310 1.0776 0.1041
C2 C 0.7682(4) 1.0928(4) -0.0186(3)
H2 H 0.7338 1.1759 -0.0402
C3 C 0.8222(3) 1.0272(4) -0.0712(2)
H3 H 0.8256 1.0661 -0.1290
C4 C 0.8714(3) 0.9038(4) -0.0380(2)
H4 H 0.9078 0.8580 -0.0734
C5 C 0.8663(2) 0.8479(3) 0.04893(19)
C6 C 0.9126(2) 0.7086(3) 0.0863(2)
H5 H 0.8713 0.6327 0.0516
H6 H 0.9771 0.7014 0.0747
C7 C 1.01822(18) 0.7573(3) 0.2510(2)
H7 H 1.0293 0.8474 0.2239
H8 H 1.0742 0.6962 0.2531
C8 C 1.00912(19) 0.7784(3) 0.3507(2)
C9 C 1.0867(2) 0.7636(4) 0.4339(2)
H9 H 1.1497 0.7380 0.4311
C10 C 1.0683(3) 0.7881(4) 0.5219(3)
H10 H 1.1191 0.7778 0.5788
C11 C 0.9756(3) 0.8274(3) 0.5243(2)
H11 H 0.9627 0.8446 0.5826
C12 C 0.9011(2) 0.8411(3) 0.43876(19)
H12 H 0.8380 0.8686 0.4401
C13 C 0.91664(19) 0.5409(3) 0.2197(2)
H13 H 0.9571 0.5381 0.2870
C14 C 0.81167(15) 0.5118(2) 0.22494(15)
C15 C 0.9629(3) 0.4326(3) 0.1719(3)
H14 H 0.9155 0.4086 0.1110
H15 H 1.0198 0.4754 0.1576
C16 C 0.9962(4) 0.3000(4) 0.2250(4)
H16 H 1.0237 0.2385 0.1867
H17 H 0.9407 0.2546 0.2386
H18 H 1.0458 0.3208 0.2842
Cu1A Cu 0.68286(2) 0.30939(3) 0.27718(2)
O2A O 0.70257(13) 0.88655(18) 0.25203(15)
Cl1 Cl 0.74331(5) 0.97369(7) 0.63634(5)
O3 O 0.6808(3) 0.8704(4) 0.6524(4)
O4 O 0.8420(3) 0.9560(5) 0.6957(3)
O5 O 0.7126(3) 1.1094(3) 0.6511(3)
O6 O 0.7500(3) 0.9639(4) 0.5400(2)
loop_
_geom_bond_atom_site_label_1
_geom_bond_atom_site_label_2
_geom_bond_site_symmetry_1
_geom_bond_site_symmetry_2
Cu1 N1 1_555 1_555
Cl1 O3 1_555 1_555
N1 C1 1_555 1_555
N2 Cu1 1_555 1_555
N3 Cu1 1_555 1_555
O1 Cu1 1_555 1_555
O2 C14 1_555 1_555
O4 Cl1 1_555 1_555
O5 Cl1 1_555 1_555
O6 Cl1 1_555 1_555
C1 H1 1_555 1_555
C2 C1 1_555 1_555
H2 C2 1_555 1_555
C3 C2 1_555 1_555
H3 C3 1_555 1_555
C4 C3 1_555 1_555
H4 C4 1_555 1_555
C5 N1 1_555 1_555
C6 N2 1_555 1_555
H5 C6 1_555 1_555
H6 C6 1_555 1_555
C7 N2 1_555 1_555
H7 C7 1_555 1_555
H8 C7 1_555 1_555
C8 N3 1_555 1_555
C9 C8 1_555 1_555
H9 C9 1_555 1_555
C10 C9 1_555 1_555
H10 C10 1_555 1_555
C11 C10 1_555 1_555
H11 C11 1_555 1_555
C12 N3 1_555 1_555
H12 C12 1_555 1_555
C13 N2 1_555 1_555
H13 C13 1_555 1_555
C14 O1 1_555 1_555
C15 C13 1_555 1_555
H14 C15 1_555 1_555
H15 C15 1_555 1_555
C16 C15 1_555 1_555
H16 C16 1_555 1_555
H17 C16 1_555 1_555
H18 C16 1_555 1_555
Cu1A O2 1_555 1_555
O2A Cu1 1_555 1_555
C4 C5 1_555 1_555
C5 C6 1_555 1_555
C7 C8 1_555 1_555
C11 C12 1_555 1_555
C13 C14 1_555 1_555

#END
