
#######################################################################
#
#                 Cambridge Crystallographic Data Centre
#                                CCDC 
#
#######################################################################
#
# If this CIF has been generated from an entry in the Cambridge 
# Structural Database, then it will include bibliographic, chemical, 
# crystal, experimental, refinement or atomic coordinate data resulting 
# from the CCDC's data processing and validation procedures.
#
#######################################################################

data_PEYHUX
_symmetry_cell_setting           monoclinic
_symmetry_space_group_name_H-M   'P 21/n'
_symmetry_Int_Tables_number      14
_space_group_name_Hall           '-P 2yn'
loop_
_symmetry_equiv_pos_site_id
_symmetry_equiv_pos_as_xyz
1 x,y,z
2 1/2-x,1/2+y,1/2-z
3 -x,-y,-z
4 1/2+x,1/2-y,1/2+z
_cell_length_a                   16.418(5)
_cell_length_b                   7.171(4)
_cell_length_c                   22.428(5)
_cell_angle_alpha                90
_cell_angle_beta                 102.543(5)
_cell_angle_gamma                90
_cell_volume                     2577.51
loop_
_atom_site_label
_atom_site_type_symbol
_atom_site_fract_x
_atom_site_fract_y
_atom_site_fract_z
Ba1 Ba 0.222786(6) 0.036792(13) 0.203900(4)
O1 O 0.31678(10) -0.0351(2) 0.11565(6)
O2 O 0.35314(12) -0.2308(2) 0.04892(7)
O3 O 0.31488(9) 0.4883(2) 0.11605(7)
O4 O 0.32954(9) 0.33399(19) 0.20375(6)
O5 O 0.05186(9) -0.0355(2) 0.16062(7)
O6 O -0.04340(11) -0.2325(2) 0.11083(10)
O7 O 0.13835(8) 0.33648(18) 0.23587(6)
O8 O 0.05696(9) 0.4857(2) 0.15822(7)
O9 O 0.20646(8) -0.32653(18) 0.17341(6)
O10 O 0.15789(12) 0.2371(3) 0.09483(8)
C1 C 0.35535(11) 0.3818(2) 0.15706(8)
C2 C 0.43886(11) 0.3092(3) 0.15061(9)
C3 C 0.50233(14) 0.3021(3) 0.20294(11)
H1 H 0.4909 0.3367 0.2412
C4 C 0.58206(15) 0.2454(4) 0.20004(13)
H2 H 0.6252 0.2431 0.2359
C5 C 0.59833(14) 0.1923(4) 0.14474(14)
H3 H 0.6530 0.1545 0.1425
C6 C 0.53558(14) 0.1936(4) 0.09252(12)
H4 H 0.5474 0.1540 0.0549
C7 C 0.45477(12) 0.2523(3) 0.09428(9)
C8 C 0.39019(12) 0.2419(3) 0.03610(8)
C9 C 0.38657(14) 0.3799(3) -0.00829(10)
H5 H 0.4221 0.4856 0.0003
C10 C 0.33199(16) 0.3649(3) -0.06465(10)
H6 H 0.3292 0.4622 -0.0938
C11 C 0.28182(15) 0.2107(4) -0.07876(10)
H7 H 0.2445 0.2015 -0.1175
C12 C 0.28597(14) 0.0686(3) -0.03624(9)
H8 H 0.2530 -0.0404 -0.0464
C13 C 0.33864(12) 0.0856(3) 0.02143(8)
C14 C 0.33561(11) -0.0644(3) 0.06736(8)
C15 C 0.06747(10) 0.3828(2) 0.20513(8)
C16 C -0.00739(11) 0.3109(3) 0.22602(8)
C17 C -0.00296(14) 0.3050(3) 0.28894(10)
H9 H 0.0475 0.3393 0.3163
C18 C -0.07065(18) 0.2502(4) 0.31188(12)
H10 H -0.0672 0.2491 0.3547
C19 C -0.14327(17) 0.1971(4) 0.27222(13)
H11 H -0.1905 0.1613 0.2877
C20 C -0.14756(14) 0.1959(4) 0.21005(12)
H12 H -0.1975 0.1555 0.1833
C21 C -0.08038(11) 0.2525(3) 0.18556(9)
C22 C -0.09045(11) 0.2416(3) 0.11774(9)
C23 C -0.13609(14) 0.3795(3) 0.08145(11)
H13 H -0.1554 0.4843 0.1003
C24 C -0.15393(17) 0.3671(4) 0.01836(12)
H14 H -0.1834 0.4649 -0.0056
C25 C -0.12910(15) 0.2138(4) -0.00959(11)
H15 H -0.1412 0.2058 -0.0529
C26 C -0.08626(13) 0.0704(4) 0.02525(10)
H16 H -0.0714 -0.0384 0.0059
C27 C -0.06497(11) 0.0859(3) 0.08876(9)
C28 C -0.01266(11) -0.0646(3) 0.12426(9)
H17 H 0.1597(10) -0.381(4) 0.1657(12)
H18 H 0.2377(14) -0.383(4) 0.1539(11)
H19 H 0.1200(13) 0.313(3) 0.0983(12)
H20 H 0.1956(13) 0.301(3) 0.0842(12)
H21 H 0.3444(17) -0.313(3) 0.0737(10)
H22 H -0.0136(14) -0.319(3) 0.1304(11)
Ba1A Ba 0.277214(6) 0.536792(13) 0.296100(4)
Ba1A_2 Ba 0.277214(6) -0.463208(13) 0.296100(4)
O4A O 0.17046(9) -0.16601(19) 0.29625(6)
O7A O 0.36165(8) -0.16352(18) 0.26413(6)
O9A O 0.29354(8) 0.17347(18) 0.32659(6)
H17A H 0.3403(10) 0.119(4) 0.3343(12)
H18A H 0.2623(14) 0.117(4) 0.3461(11)
loop_
_geom_bond_atom_site_label_1
_geom_bond_atom_site_label_2
_geom_bond_site_symmetry_1
_geom_bond_site_symmetry_2
Ba1 O1 1_555 1_555
O1 C14 1_555 1_555
O2 C14 1_555 1_555
O3 C1 1_555 1_555
O4 Ba1 1_555 1_555
O5 Ba1 1_555 1_555
O6 C28 1_555 1_555
O7 Ba1 1_555 1_555
O8 C15 1_555 1_555
O9 Ba1 1_555 1_555
O10 Ba1 1_555 1_555
C1 O4 1_555 1_555
C2 C1 1_555 1_555
C3 C2 1_555 1_555
H1 C3 1_555 1_555
C4 C3 1_555 1_555
H2 C4 1_555 1_555
C5 C4 1_555 1_555
H3 C5 1_555 1_555
C6 C5 1_555 1_555
H4 C6 1_555 1_555
C7 C2 1_555 1_555
C8 C7 1_555 1_555
C9 C8 1_555 1_555
H5 C9 1_555 1_555
C10 C9 1_555 1_555
H6 C10 1_555 1_555
C11 C10 1_555 1_555
H7 C11 1_555 1_555
C12 C11 1_555 1_555
H8 C12 1_555 1_555
C13 C8 1_555 1_555
C14 C13 1_555 1_555
C15 O7 1_555 1_555
C16 C15 1_555 1_555
C17 C16 1_555 1_555
H9 C17 1_555 1_555
C18 C17 1_555 1_555
H10 C18 1_555 1_555
C19 C18 1_555 1_555
H11 C19 1_555 1_555
C20 C19 1_555 1_555
H12 C20 1_555 1_555
C21 C16 1_555 1_555
C22 C21 1_555 1_555
C23 C22 1_555 1_555
H13 C23 1_555 1_555
C24 C23 1_555 1_555
H14 C24 1_555 1_555
C25 C24 1_555 1_555
H15 C25 1_555 1_555
C26 C25 1_555 1_555
H16 C26 1_555 1_555
C27 C22 1_555 1_555
C28 O5 1_555 1_555
H17 O9 1_555 1_555
H18 O9 1_555 1_555
H19 O10 1_555 1_555
H20 O10 1_555 1_555
H21 O2 1_555 1_555
H22 O6 1_555 1_555
Ba1A O4 1_555 1_555
Ba1A_2 O9 1_555 1_555
O4A Ba1 1_555 1_555
O7A Ba1 1_555 1_555
O9A Ba1 1_555 1_555
H17A O9A 1_555 1_555
H18A O9A 1_555 1_555
O7 Ba1A 1_555 1_555
C6 C7 1_555 1_555
C12 C13 1_555 1_555
C20 C21 1_555 1_555
C26 C27 1_555 1_555
C27 C28 1_555 1_555
Ba1A O9A 1_555 1_555
Ba1A_2 O4A 1_555 1_555
Ba1A_2 O7A 1_555 1_555

#END
