
#######################################################################
#
#                 Cambridge Crystallographic Data Centre
#                                CCDC 
#
#######################################################################
#
# If this CIF has been generated from an entry in the Cambridge 
# Structural Database, then it will include bibliographic, chemical, 
# crystal, experimental, refinement or atomic coordinate data resulting 
# from the CCDC's data processing and validation procedures.
#
#######################################################################

data_PEYKIN
_symmetry_cell_setting           orthorhombic
_symmetry_space_group_name_H-M   'P b c n'
_symmetry_Int_Tables_number      60
_space_group_name_Hall           '-P 2n 2ab'
loop_
_symmetry_equiv_pos_site_id
_symmetry_equiv_pos_as_xyz
1 x,y,z
2 1/2-x,1/2-y,1/2+z
3 1/2+x,1/2-y,-z
4 -x,y,1/2-z
5 -x,-y,-z
6 1/2+x,1/2+y,1/2-z
7 1/2-x,1/2+y,z
8 x,-y,1/2+z
_cell_length_a                   14.872(3)
_cell_length_b                   11.348(2)
_cell_length_c                   7.759(2)
_cell_angle_alpha                90
_cell_angle_beta                 90
_cell_angle_gamma                90
_cell_volume                     1309.47
loop_
_atom_site_label
_atom_site_type_symbol
_atom_site_fract_x
_atom_site_fract_y
_atom_site_fract_z
Br1 Br 0.1015(1) 0.0921(1) 0.0897(1)
O1 O 0.1237(3) 0.2222(4) 0.5075(6)
Li1 Li 0.0685(7) 0.0869(9) 0.4085(14)
C1 C 0.1793(5) 0.2298(6) 0.6584(9)
C2 C 0.1529(6) 0.3430(6) 0.7429(10)
C3 C 0.1260(6) 0.4212(6) 0.5927(11)
C4 C 0.1028(6) 0.3400(6) 0.4500(10)
H1 H 0.2437(5) 0.2308(6) 0.6266(9)
H2 H 0.1681(5) 0.1622(6) 0.7362(9)
H3 H 0.2039(6) 0.3774(6) 0.8075(10)
H4 H 0.1018(6) 0.3311(6) 0.8229(10)
H5 H 0.0737(6) 0.4708(6) 0.6237(11)
H6 H 0.1765(6) 0.4733(6) 0.5591(11)
H7 H 0.0380(6) 0.3464(6) 0.4217(10)
H8 H 0.1381(6) 0.3596(6) 0.3457(10)
Li1C Li -0.0685(7) 0.0869(9) 0.0915(14)
Li1G Li 0.0685(7) -0.0869(9) -0.0915(14)
Br1C Br -0.1015(1) 0.0921(1) 0.4103(1)
Br1G Br 0.1015(1) -0.0921(1) 0.5897(1)
Br1D Br -0.1015(1) -0.0921(1) -0.0897(1)
O1C O -0.1237(3) 0.2222(4) -0.0075(6)
Br1G_2 Br 0.1015(1) -0.0921(1) -0.4103(1)
O1G O 0.1237(3) -0.2222(4) 0.0075(6)
Li1D Li -0.0685(7) -0.0869(9) 0.5915(14)
Li1G_2 Li 0.0685(7) -0.0869(9) 0.9085(14)
Li1D_2 Li -0.0685(7) -0.0869(9) -0.4085(14)
C1C C -0.1793(5) 0.2298(6) -0.1584(9)
C4C C -0.1028(6) 0.3400(6) 0.0500(10)
C1G C 0.1793(5) -0.2298(6) 0.1584(9)
C4G C 0.1028(6) -0.3400(6) -0.0500(10)
Br1D_2 Br -0.1015(1) -0.0921(1) 0.9103(1)
O1D O -0.1237(3) -0.2222(4) 0.4925(6)
C2C C -0.1529(6) 0.3430(6) -0.2429(10)
H1C H -0.2437(5) 0.2308(6) -0.1266(9)
H2C H -0.1681(5) 0.1622(6) -0.2362(9)
C3C C -0.1260(6) 0.4212(6) -0.0927(11)
H7C H -0.0380(6) 0.3464(6) 0.0783(10)
H8C H -0.1381(6) 0.3596(6) 0.1543(10)
C2G C 0.1529(6) -0.3430(6) 0.2429(10)
H1G H 0.2437(5) -0.2308(6) 0.1266(9)
H2G H 0.1681(5) -0.1622(6) 0.2362(9)
C3G C 0.1260(6) -0.4212(6) 0.0927(11)
H7G H 0.0380(6) -0.3464(6) -0.0783(10)
H8G H 0.1381(6) -0.3596(6) -0.1543(10)
C1D C -0.1793(5) -0.2298(6) 0.3416(9)
C4D C -0.1028(6) -0.3400(6) 0.5500(10)
H3C H -0.2039(6) 0.3774(6) -0.3075(10)
H4C H -0.1018(6) 0.3311(6) -0.3229(10)
H5C H -0.0737(6) 0.4708(6) -0.1237(11)
H6C H -0.1765(6) 0.4733(6) -0.0591(11)
H3G H 0.2039(6) -0.3774(6) 0.3075(10)
H4G H 0.1018(6) -0.3311(6) 0.3229(10)
H5G H 0.0737(6) -0.4708(6) 0.1237(11)
H6G H 0.1765(6) -0.4733(6) 0.0591(11)
C2D C -0.1529(6) -0.3430(6) 0.2571(10)
H1D H -0.2437(5) -0.2308(6) 0.3734(9)
H2D H -0.1681(5) -0.1622(6) 0.2638(9)
C3D C -0.1260(6) -0.4212(6) 0.4073(11)
H7D H -0.0380(6) -0.3464(6) 0.5783(10)
H8D H -0.1381(6) -0.3596(6) 0.6543(10)
H3D H -0.2039(6) -0.3774(6) 0.1925(10)
H4D H -0.1018(6) -0.3311(6) 0.1771(10)
H5D H -0.0737(6) -0.4708(6) 0.3763(11)
H6D H -0.1765(6) -0.4733(6) 0.4409(11)
loop_
_geom_bond_atom_site_label_1
_geom_bond_atom_site_label_2
_geom_bond_site_symmetry_1
_geom_bond_site_symmetry_2
Br1 Li1 1_555 1_555
O1 Li1 1_555 1_555
Li1 Br1C 1_555 1_555
C1 O1 1_555 1_555
C2 C1 1_555 1_555
C3 C2 1_555 1_555
C4 O1 1_555 1_555
H1 C1 1_555 1_555
H2 C1 1_555 1_555
H3 C2 1_555 1_555
H4 C2 1_555 1_555
H5 C3 1_555 1_555
H6 C3 1_555 1_555
H7 C4 1_555 1_555
H8 C4 1_555 1_555
Li1C Br1 1_555 1_555
Li1G Br1 1_555 1_555
Br1C Li1C 1_555 1_555
Br1G Li1 1_555 1_555
Br1D Li1C 1_555 1_555
O1C Li1C 1_555 1_555
Br1G_2 Li1G 1_555 1_555
O1G Li1G 1_555 1_555
Li1D Br1C 1_555 1_555
Li1G_2 Br1G 1_555 1_555
Li1D_2 Br1D 1_555 1_555
C1C O1C 1_555 1_555
C4C O1C 1_555 1_555
C1G O1G 1_555 1_555
C4G O1G 1_555 1_555
Br1D_2 Li1D 1_555 1_555
O1D Li1D 1_555 1_555
C2C C1C 1_555 1_555
H1C C1C 1_555 1_555
H2C C1C 1_555 1_555
C3C C4C 1_555 1_555
H7C C4C 1_555 1_555
H8C C4C 1_555 1_555
C2G C1G 1_555 1_555
H1G C1G 1_555 1_555
H2G C1G 1_555 1_555
C3G C4G 1_555 1_555
H7G C4G 1_555 1_555
H8G C4G 1_555 1_555
C1D O1D 1_555 1_555
C4D O1D 1_555 1_555
H3C C2C 1_555 1_555
H4C C2C 1_555 1_555
H5C C3C 1_555 1_555
H6C C3C 1_555 1_555
H3G C2G 1_555 1_555
H4G C2G 1_555 1_555
H5G C3G 1_555 1_555
H6G C3G 1_555 1_555
C2D C1D 1_555 1_555
H1D C1D 1_555 1_555
H2D C1D 1_555 1_555
C3D C4D 1_555 1_555
H7D C4D 1_555 1_555
H8D C4D 1_555 1_555
H3D C2D 1_555 1_555
H4D C2D 1_555 1_555
H5D C3D 1_555 1_555
H6D C3D 1_555 1_555
C3 C4 1_555 1_555
Li1G Br1D 1_555 1_555
Br1G Li1D 1_555 1_555
C2C C3C 1_555 1_555
C2G C3G 1_555 1_555
C2D C3D 1_555 1_555

#END
