
#######################################################################
#
#                 Cambridge Crystallographic Data Centre
#                                CCDC 
#
#######################################################################
#
# If this CIF has been generated from an entry in the Cambridge 
# Structural Database, then it will include bibliographic, chemical, 
# crystal, experimental, refinement or atomic coordinate data resulting 
# from the CCDC's data processing and validation procedures.
#
#######################################################################

data_PEYPEQ
_symmetry_cell_setting           cubic
_symmetry_space_group_name_H-M   'F m -3 m'
_symmetry_Int_Tables_number      225
_space_group_name_Hall           '-F 4 2 3'
loop_
_symmetry_equiv_pos_site_id
_symmetry_equiv_pos_as_xyz
1 x,y,z
2 x,-z,y
3 x,z,-y
4 z,y,-x
5 -z,y,x
6 -y,x,z
7 y,-x,z
8 z,x,y
9 y,z,x
10 -y,-z,x
11 z,-x,-y
12 -y,z,-x
13 -z,-x,y
14 -z,x,-y
15 y,-z,-x
16 x,-y,-z
17 -x,y,-z
18 -x,-y,z
19 y,x,-z
20 -y,-x,-z
21 z,-y,x
22 -z,-y,-x
23 -x,z,y
24 -x,-z,-y
25 x,1/2+y,1/2+z
26 x,1/2-z,1/2+y
27 x,1/2+z,1/2-y
28 z,1/2+y,1/2-x
29 -z,1/2+y,1/2+x
30 -y,1/2+x,1/2+z
31 y,1/2-x,1/2+z
32 z,1/2+x,1/2+y
33 y,1/2+z,1/2+x
34 -y,1/2-z,1/2+x
35 z,1/2-x,1/2-y
36 -y,1/2+z,1/2-x
37 -z,1/2-x,1/2+y
38 -z,1/2+x,1/2-y
39 y,1/2-z,1/2-x
40 x,1/2-y,1/2-z
41 -x,1/2+y,1/2-z
42 -x,1/2-y,1/2+z
43 y,1/2+x,1/2-z
44 -y,1/2-x,1/2-z
45 z,1/2-y,1/2+x
46 -z,1/2-y,1/2-x
47 -x,1/2+z,1/2+y
48 -x,1/2-z,1/2-y
49 1/2+x,y,1/2+z
50 1/2+x,-z,1/2+y
51 1/2+x,z,1/2-y
52 1/2+z,y,1/2-x
53 1/2-z,y,1/2+x
54 1/2-y,x,1/2+z
55 1/2+y,-x,1/2+z
56 1/2+z,x,1/2+y
57 1/2+y,z,1/2+x
58 1/2-y,-z,1/2+x
59 1/2+z,-x,1/2-y
60 1/2-y,z,1/2-x
61 1/2-z,-x,1/2+y
62 1/2-z,x,1/2-y
63 1/2+y,-z,1/2-x
64 1/2+x,-y,1/2-z
65 1/2-x,y,1/2-z
66 1/2-x,-y,1/2+z
67 1/2+y,x,1/2-z
68 1/2-y,-x,1/2-z
69 1/2+z,-y,1/2+x
70 1/2-z,-y,1/2-x
71 1/2-x,z,1/2+y
72 1/2-x,-z,1/2-y
73 1/2+x,1/2+y,z
74 1/2+x,1/2-z,y
75 1/2+x,1/2+z,-y
76 1/2+z,1/2+y,-x
77 1/2-z,1/2+y,x
78 1/2-y,1/2+x,z
79 1/2+y,1/2-x,z
80 1/2+z,1/2+x,y
81 1/2+y,1/2+z,x
82 1/2-y,1/2-z,x
83 1/2+z,1/2-x,-y
84 1/2-y,1/2+z,-x
85 1/2-z,1/2-x,y
86 1/2-z,1/2+x,-y
87 1/2+y,1/2-z,-x
88 1/2+x,1/2-y,-z
89 1/2-x,1/2+y,-z
90 1/2-x,1/2-y,z
91 1/2+y,1/2+x,-z
92 1/2-y,1/2-x,-z
93 1/2+z,1/2-y,x
94 1/2-z,1/2-y,-x
95 1/2-x,1/2+z,y
96 1/2-x,1/2-z,-y
97 -x,-y,-z
98 -x,z,-y
99 -x,-z,y
100 -z,-y,x
101 z,-y,-x
102 y,-x,-z
103 -y,x,-z
104 -z,-x,-y
105 -y,-z,-x
106 y,z,-x
107 -z,x,y
108 y,-z,x
109 z,x,-y
110 z,-x,y
111 -y,z,x
112 -x,y,z
113 x,-y,z
114 x,y,-z
115 -y,-x,z
116 y,x,z
117 -z,y,-x
118 z,y,x
119 x,-z,-y
120 x,z,y
121 -x,1/2-y,1/2-z
122 -x,1/2+z,1/2-y
123 -x,1/2-z,1/2+y
124 -z,1/2-y,1/2+x
125 z,1/2-y,1/2-x
126 y,1/2-x,1/2-z
127 -y,1/2+x,1/2-z
128 -z,1/2-x,1/2-y
129 -y,1/2-z,1/2-x
130 y,1/2+z,1/2-x
131 -z,1/2+x,1/2+y
132 y,1/2-z,1/2+x
133 z,1/2+x,1/2-y
134 z,1/2-x,1/2+y
135 -y,1/2+z,1/2+x
136 -x,1/2+y,1/2+z
137 x,1/2-y,1/2+z
138 x,1/2+y,1/2-z
139 -y,1/2-x,1/2+z
140 y,1/2+x,1/2+z
141 -z,1/2+y,1/2-x
142 z,1/2+y,1/2+x
143 x,1/2-z,1/2-y
144 x,1/2+z,1/2+y
145 1/2-x,-y,1/2-z
146 1/2-x,z,1/2-y
147 1/2-x,-z,1/2+y
148 1/2-z,-y,1/2+x
149 1/2+z,-y,1/2-x
150 1/2+y,-x,1/2-z
151 1/2-y,x,1/2-z
152 1/2-z,-x,1/2-y
153 1/2-y,-z,1/2-x
154 1/2+y,z,1/2-x
155 1/2-z,x,1/2+y
156 1/2+y,-z,1/2+x
157 1/2+z,x,1/2-y
158 1/2+z,-x,1/2+y
159 1/2-y,z,1/2+x
160 1/2-x,y,1/2+z
161 1/2+x,-y,1/2+z
162 1/2+x,y,1/2-z
163 1/2-y,-x,1/2+z
164 1/2+y,x,1/2+z
165 1/2-z,y,1/2-x
166 1/2+z,y,1/2+x
167 1/2+x,-z,1/2-y
168 1/2+x,z,1/2+y
169 1/2-x,1/2-y,-z
170 1/2-x,1/2+z,-y
171 1/2-x,1/2-z,y
172 1/2-z,1/2-y,x
173 1/2+z,1/2-y,-x
174 1/2+y,1/2-x,-z
175 1/2-y,1/2+x,-z
176 1/2-z,1/2-x,-y
177 1/2-y,1/2-z,-x
178 1/2+y,1/2+z,-x
179 1/2-z,1/2+x,y
180 1/2+y,1/2-z,x
181 1/2+z,1/2+x,-y
182 1/2+z,1/2-x,y
183 1/2-y,1/2+z,x
184 1/2-x,1/2+y,z
185 1/2+x,1/2-y,z
186 1/2+x,1/2+y,-z
187 1/2-y,1/2-x,z
188 1/2+y,1/2+x,z
189 1/2-z,1/2+y,-x
190 1/2+z,1/2+y,x
191 1/2+x,1/2-z,-y
192 1/2+x,1/2+z,y
_cell_length_a                   25.896(3)
_cell_length_b                   25.896(3)
_cell_length_c                   25.896(3)
_cell_angle_alpha                90
_cell_angle_beta                 90
_cell_angle_gamma                90
_cell_volume                     17365.9
loop_
_atom_site_label
_atom_site_type_symbol
_atom_site_fract_x
_atom_site_fract_y
_atom_site_fract_z
O1 O 0.2500 0.2500 0.2500
O2 O 0.28030(19) 0.21970(19) 0.1343(3)
C1 C 0.2500 0.2500 0.0556(8)
C2 C 0.2500 0.2500 0.1119(7)
C3 C 0.2807(4) 0.2193(4) 0.0267(5)
O3 O 0.3358(12) 0.1987(12) 0.0421(8)
Zn1 Zn 0.29344(5) 0.20656(5) 0.20656(5)
O2KC O 0.21970(19) 0.28030(19) 0.1343(3)
C3KC C 0.2193(4) 0.2807(4) 0.0267(5)
O3KC O 0.1642(12) 0.3013(12) 0.0421(8)
O2MC O 0.28030(19) 0.21970(19) -0.1343(3)
C1R C 0.2500 0.2500 -0.0556(8)
C2R C 0.2500 0.2500 -0.1119(7)
C3MC C 0.2807(4) 0.2193(4) -0.0267(5)
O3MC O 0.3013(12) 0.1642(12) -0.0421(8)
O3ID O 0.3358(12) 0.1987(12) -0.0421(8)
O3KD O 0.1987(12) 0.3358(12) 0.0421(8)
O2R O 0.21970(19) 0.28030(19) -0.1343(3)
C3R C 0.2193(4) 0.2807(4) -0.0267(5)
O3LF O 0.1642(12) 0.3013(12) -0.0421(8)
O3DG O 0.3013(12) 0.1642(12) 0.0421(8)
O3R O 0.1987(12) 0.3358(12) -0.0421(8)
O2A O 0.28030(19) -0.1343(3) 0.21970(19)
C1A C 0.2500 -0.0556(8) 0.2500
C2A C 0.2500 -0.1119(7) 0.2500
C3A C 0.2807(4) -0.0267(5) 0.2193(4)
O3A O 0.3358(12) -0.0421(8) 0.1987(12)
Zn1A Zn 0.29344(5) -0.20656(5) 0.20656(5)
O2SB O 0.21970(19) -0.1343(3) 0.28030(19)
C3SB C 0.2193(4) -0.0267(5) 0.2807(4)
O3SB O 0.1642(12) -0.0421(8) 0.3013(12)
O2GB O 0.28030(19) 0.1343(3) 0.21970(19)
C1H C 0.2500 0.0556(8) 0.2500
C2H C 0.2500 0.1119(7) 0.2500
C3GB C 0.2807(4) 0.0267(5) 0.2193(4)
O3GB O 0.3013(12) 0.0421(8) 0.1642(12)
O3OD O 0.3358(12) 0.0421(8) 0.1987(12)
O3CD O 0.1987(12) -0.0421(8) 0.3358(12)
O2H O 0.21970(19) 0.1343(3) 0.28030(19)
C3H C 0.2193(4) 0.0267(5) 0.2807(4)
O3OE O 0.1642(12) 0.0421(8) 0.3013(12)
O3VE O 0.3013(12) -0.0421(8) 0.1642(12)
O3H O 0.1987(12) 0.0421(8) 0.3358(12)
O2B O 0.28030(19) 0.1343(3) -0.21970(19)
C1B C 0.2500 0.0556(8) -0.2500
C2B C 0.2500 0.1119(7) -0.2500
C3B C 0.2807(4) 0.0267(5) -0.2193(4)
O3B O 0.3358(12) 0.0421(8) -0.1987(12)
Zn1B Zn 0.29344(5) 0.20656(5) -0.20656(5)
O2RB O 0.21970(19) 0.1343(3) -0.28030(19)
C3RB C 0.2193(4) 0.0267(5) -0.2807(4)
O3RB O 0.1642(12) 0.0421(8) -0.3013(12)
O2EB O 0.28030(19) -0.1343(3) -0.21970(19)
C1N C 0.2500 -0.0556(8) -0.2500
C2N C 0.2500 -0.1119(7) -0.2500
C3EB C 0.2807(4) -0.0267(5) -0.2193(4)
O3EB O 0.3013(12) -0.0421(8) -0.1642(12)
O3ND O 0.3358(12) -0.0421(8) -0.1987(12)
O3AD O 0.1987(12) 0.0421(8) -0.3358(12)
O2N O 0.21970(19) -0.1343(3) -0.28030(19)
C3N C 0.2193(4) -0.0267(5) -0.2807(4)
O3PE O 0.1642(12) -0.0421(8) -0.3013(12)
O3BF O 0.3013(12) 0.0421(8) -0.1642(12)
O3N O 0.1987(12) -0.0421(8) -0.3358(12)
Zn1G Zn 0.20656(5) 0.29344(5) 0.20656(5)
O1A O 0.2500 -0.2500 0.2500
O1B O 0.2500 0.2500 -0.2500
O2G O 0.1343(3) 0.28030(19) 0.21970(19)
O2LA O 0.21970(19) 0.3657(3) 0.21970(19)
O2ZA O 0.3657(3) 0.21970(19) -0.21970(19)
O2QB O 0.3657(3) -0.21970(19) 0.21970(19)
O2YB O 0.28030(19) -0.21970(19) 0.1343(3)
O2FC O 0.3657(3) 0.21970(19) 0.21970(19)
Zn1C Zn 0.20656(5) 0.20656(5) -0.29344(5)
Zn1H Zn 0.20656(5) 0.20656(5) 0.29344(5)
Zn1N Zn 0.20656(5) -0.20656(5) -0.29344(5)
Zn1O Zn 0.29344(5) -0.20656(5) -0.20656(5)
Zn1R Zn 0.20656(5) 0.29344(5) -0.20656(5)
Zn1T Zn 0.20656(5) -0.20656(5) 0.29344(5)
Zn1MA Zn 0.29344(5) 0.29344(5) 0.29344(5)
loop_
_geom_bond_atom_site_label_1
_geom_bond_atom_site_label_2
_geom_bond_site_symmetry_1
_geom_bond_site_symmetry_2
O1 Zn1 1_555 1_555
O2 C2 1_555 1_555
C1 C2 1_555 1_555
C2 O2KC 1_555 1_555
C3 C1 1_555 1_555
O3 C3 1_555 1_555
Zn1 O2 1_555 1_555
O2KC Zn1G 1_555 1_555
C3KC C1 1_555 1_555
O3KC C3KC 1_555 1_555
O2MC C2R 1_555 1_555
C1R C2R 1_555 1_555
C2R O2R 1_555 1_555
C3MC C3 1_555 1_555
O3MC C3MC 1_555 1_555
O3ID C3MC 1_555 1_555
O3KD C3KC 1_555 1_555
O2R Zn1R 1_555 1_555
C3R C3KC 1_555 1_555
O3LF C3R 1_555 1_555
O3DG C3 1_555 1_555
O3R C3R 1_555 1_555
O2A C2A 1_555 1_555
C1A C2A 1_555 1_555
C2A O2SB 1_555 1_555
C3A C1A 1_555 1_555
O3A C3A 1_555 1_555
Zn1A O2A 1_555 1_555
O2SB Zn1T 1_555 1_555
C3SB C1A 1_555 1_555
O3SB C3SB 1_555 1_555
O2GB Zn1 1_555 1_555
C1H C2H 1_555 1_555
C2H O2GB 1_555 1_555
C3GB C3A 1_555 1_555
O3GB C3GB 1_555 1_555
O3OD C3GB 1_555 1_555
O3CD C3SB 1_555 1_555
O2H C2H 1_555 1_555
C3H C3SB 1_555 1_555
O3OE C3H 1_555 1_555
O3VE C3A 1_555 1_555
O3H C3H 1_555 1_555
O2B C2B 1_555 1_555
C1B C2B 1_555 1_555
C2B O2RB 1_555 1_555
C3B C1B 1_555 1_555
O3B C3B 1_555 1_555
Zn1B O2MC 1_555 1_555
O2RB Zn1C 1_555 1_555
C3RB C1B 1_555 1_555
O3RB C3RB 1_555 1_555
O2EB C2N 1_555 1_555
C1N C2N 1_555 1_555
C2N O2N 1_555 1_555
C3EB C3B 1_555 1_555
O3EB C3EB 1_555 1_555
O3ND C3EB 1_555 1_555
O3AD C3RB 1_555 1_555
O2N Zn1N 1_555 1_555
C3N C3RB 1_555 1_555
O3PE C3N 1_555 1_555
O3BF C3B 1_555 1_555
O3N C3N 1_555 1_555
Zn1G O1 1_555 1_555
O1A Zn1A 1_555 1_555
O1B Zn1B 1_555 1_555
O2G Zn1G 1_555 1_555
O2LA Zn1G 1_555 1_555
O2ZA Zn1B 1_555 1_555
O2QB Zn1A 1_555 1_555
O2YB Zn1A 1_555 1_555
O2FC Zn1 1_555 1_555
Zn1C O1B 1_555 1_555
Zn1H O1 1_555 1_555
Zn1O O2EB 1_555 1_555
Zn1R O1B 1_555 1_555
Zn1T O1A 1_555 1_555
Zn1MA O1 1_555 1_555
O3 O3DG 1_555 1_555
O3KC O3KD 1_555 1_555
C1R C3MC 1_555 1_555
C1R C3R 1_555 1_555
O3MC O3ID 1_555 1_555
O3LF O3R 1_555 1_555
O3A O3VE 1_555 1_555
O3SB O3CD 1_555 1_555
C1H C3GB 1_555 1_555
C1H C3H 1_555 1_555
O3GB O3OD 1_555 1_555
O2H Zn1H 1_555 1_555
O3OE O3H 1_555 1_555
O2B Zn1B 1_555 1_555
O3B O3BF 1_555 1_555
O3RB O3AD 1_555 1_555
C1N C3EB 1_555 1_555
C1N C3N 1_555 1_555
O3EB O3ND 1_555 1_555
O3PE O3N 1_555 1_555

#END
