
#######################################################################
#
#                 Cambridge Crystallographic Data Centre
#                                CCDC 
#
#######################################################################
#
# If this CIF has been generated from an entry in the Cambridge 
# Structural Database, then it will include bibliographic, chemical, 
# crystal, experimental, refinement or atomic coordinate data resulting 
# from the CCDC's data processing and validation procedures.
#
#######################################################################

data_PEYRES
_symmetry_cell_setting           orthorhombic
_symmetry_space_group_name_H-M   'P b c a'
_symmetry_Int_Tables_number      61
_space_group_name_Hall           '-P 2ac 2ab'
loop_
_symmetry_equiv_pos_site_id
_symmetry_equiv_pos_as_xyz
1 x,y,z
2 1/2-x,-y,1/2+z
3 1/2+x,1/2-y,-z
4 -x,1/2+y,1/2-z
5 -x,-y,-z
6 1/2+x,y,1/2-z
7 1/2-x,1/2+y,z
8 x,1/2-y,1/2+z
_cell_length_a                   14.1979(7)
_cell_length_b                   27.0930(13)
_cell_length_c                   51.430(3)
_cell_angle_alpha                90
_cell_angle_beta                 90
_cell_angle_gamma                90
_cell_volume                     19783.3
loop_
_atom_site_label
_atom_site_type_symbol
_atom_site_fract_x
_atom_site_fract_y
_atom_site_fract_z
N2 N 0.7977(15) 0.3136(10) 0.0050(4)
C10 C 0.7903(18) 0.2646(11) -0.0089(5)
C11 C 0.736(2) 0.2251(12) 0.0067(6)
C12 C 0.751(2) 0.1757(12) -0.0092(7)
C13 C 0.690(3) 0.1345(10) 0.0050(8)
C14 C 0.840(2) 0.3122(13) 0.0317(5)
C15 C 0.939(2) 0.2931(17) 0.0325(6)
C16 C 0.970(3) 0.2803(16) 0.0606(7)
C17 C 1.075(2) 0.2677(14) 0.0633(8)
C18 C 0.6970(19) 0.3346(13) 0.0097(6)
C19 C 0.6414(19) 0.3460(15) -0.0159(6)
C20 C 0.545(2) 0.3631(17) -0.0086(7)
C21 C 0.478(3) 0.3732(15) -0.0328(9)
C22 C 0.856(2) 0.3471(12) -0.0127(6)
C23 C 0.871(3) 0.3985(16) -0.0035(8)
C24 C 0.916(5) 0.425(2) -0.0286(13)
N3 N 0.302(3) 0.5145(13) 0.1035(7)
C25 C 0.326(3) 0.5685(16) 0.1034(8)
C26 C 0.430(4) 0.5774(19) 0.1113(10)
C27 C 0.451(4) 0.6333(18) 0.1104(10)
C28 C 0.549(4) 0.648(2) 0.1149(11)
C29 C 0.362(3) 0.4863(15) 0.0845(8)
C30 C 0.348(4) 0.506(2) 0.0559(11)
C31 C 0.398(4) 0.464(2) 0.0357(12)
C32 C 0.370(8) 0.486(4) 0.008(2)
C33 C 0.199(3) 0.5105(15) 0.0956(8)
C34 C 0.159(4) 0.459(2) 0.0910(11)
C35 C 0.061(5) 0.462(3) 0.0812(14)
C36 C 0.016(6) 0.414(3) 0.0718(16)
C37 C 0.314(3) 0.4879(18) 0.1269(10)
C38 C 0.263(4) 0.513(2) 0.1512(12)
C39 C 0.288(6) 0.492(3) 0.1789(17)
W1 W 0.34078(6) 0.32791(3) 0.095014(18)
W2 W 0.32810(6) 0.19270(3) 0.092587(18)
W3 W 0.52620(6) 0.25671(4) 0.061130(16)
W4 W 0.51109(7) 0.37507(4) 0.13492(2)
W5 W 0.31534(6) 0.32329(4) 0.159157(18)
W6 W 0.31169(7) 0.18566(4) 0.157637(19)
W7 W 0.47856(7) 0.12113(4) 0.12619(2)
W8 W 0.67654(7) 0.18327(4) 0.091805(19)
W9 W 0.69248(6) 0.30514(4) 0.101840(18)
La1 La 0.68773(10) 0.29092(7) 0.18351(3)
As1 As 0.51258(14) 0.24931(9) 0.13485(4)
P1 P 0.4373(4) 0.2520(3) 0.20035(12)
P2 P 0.6742(5) 0.1611(3) 0.15638(13)
O1 O 0.2660(13) 0.3545(7) 0.0734(4)
O2 O 0.2463(14) 0.1711(7) 0.0710(3)
O3 O 0.5091(12) 0.2595(7) 0.0282(3)
O4 O 0.4354(11) 0.3033(6) 0.0726(3)
O5 O 0.2979(10) 0.2584(6) 0.0959(3)
O6 O 0.4283(10) 0.2069(6) 0.0711(3)
O7 O 0.4120(13) 0.3812(6) 0.1052(4)
O8 O 0.2637(10) 0.3349(7) 0.1263(3)
O9 O 0.2576(11) 0.1777(7) 0.1253(3)
O10 O 0.3853(13) 0.1269(6) 0.1012(4)
O11 O 0.6105(12) 0.1994(6) 0.0615(3)
O12 O 0.6261(10) 0.2985(7) 0.0653(3)
O13 O 0.4365(9) 0.2997(6) 0.1296(3)
O14 O 0.4288(11) 0.2040(6) 0.1276(3)
O15 O 0.5711(9) 0.2478(6) 0.1045(3)
O16 O 0.5938(11) 0.3515(7) 0.1084(3)
O17 O 0.5395(16) 0.4363(7) 0.1361(4)
O18 O 0.3949(13) 0.3785(7) 0.1567(4)
O19 O 0.2286(13) 0.3452(9) 0.1789(4)
O20 O 0.2846(10) 0.2540(7) 0.1575(4)
O21 O 0.2261(15) 0.1636(8) 0.1777(4)
O22 O 0.3870(14) 0.1283(7) 0.1536(4)
O23 O 0.4962(16) 0.0581(7) 0.1274(5)
O24 O 0.5745(13) 0.1423(7) 0.1028(3)
O25 O 0.7533(14) 0.1412(8) 0.0799(4)
O26 O 0.7474(11) 0.2415(7) 0.0910(3)
O27 O 0.7842(13) 0.3426(8) 0.0924(4)
O28 O 0.5766(12) 0.3466(8) 0.1602(3)
O29 O 0.4060(12) 0.3000(8) 0.1866(3)
O30 O 0.4096(11) 0.2076(8) 0.1840(3)
O31 O 0.5706(12) 0.1447(6) 0.1539(3)
O32 O 0.7112(11) 0.1807(7) 0.1293(3)
O33 O 0.7135(10) 0.2939(7) 0.1352(3)
O34 O 0.5422(12) 0.2539(9) 0.2052(4)
O35 O 0.6818(13) 0.2014(7) 0.1754(3)
O36 O 0.787(2) 0.3725(15) 0.1749(10)
O37 O 0.618(3) 0.3520(14) 0.2187(5)
O38 O 0.8580(12) 0.2642(8) 0.1768(4)
O39 O 0.121(2) 0.236(2) 0.2490(8)
H1 H 0.0917 0.2384 0.2626
O40 O 0.2499(17) 0.2600(11) 0.2726(4)
O41 O 0.826(3) 0.0014(15) 0.1312(8)
H2 H 0.8667 -0.0190 0.1350
O42 O 0.863(6) 0.030(2) 0.1678(12)
N1 N 0.9977(17) 0.2680(14) 0.1572(6)
C1 C 0.372(2) 0.2479(14) 0.2310(5)
H3 H 0.3918 0.2183 0.2401
H4 H 0.3886 0.2760 0.2417
C2 C 0.269(3) 0.247(2) 0.2278(9)
H5 H 0.2518 0.2158 0.2195
H6 H 0.2506 0.2733 0.2162
C3 C 0.215(3) 0.252(2) 0.2531(11)
C4 C 0.745(2) 0.1109(14) 0.1654(7)
H7 H 0.8094 0.1220 0.1678
H8 H 0.7228 0.0974 0.1817
C5 C 0.742(3) 0.0705(14) 0.1442(11)
H9 H 0.7527 0.0856 0.1273
H10 H 0.6801 0.0556 0.1439
C6 C 0.817(4) 0.029(2) 0.1485(7)
C7 C 0.909(2) 0.2680(18) 0.1572(7)
H11 H 0.8796 0.2711 0.1412
C8 C 1.047(2) 0.2653(17) 0.1831(7)
H12 H 1.1138 0.2652 0.1804
H13 H 1.0287 0.2355 0.1919
H14 H 1.0297 0.2933 0.1934
C9 C 1.053(3) 0.275(2) 0.1340(8)
H15 H 1.1184 0.2732 0.1383
H16 H 1.0384 0.3062 0.1265
H17 H 1.0377 0.2490 0.1218
La1E La 0.18773(10) 0.29092(7) 0.31649(3)
O40E O 0.7499(17) 0.2600(11) 0.2274(4)
loop_
_geom_bond_atom_site_label_1
_geom_bond_atom_site_label_2
_geom_bond_site_symmetry_1
_geom_bond_site_symmetry_2
W1 O1 1_555 1_555
W2 O2 1_555 1_555
W3 O3 1_555 1_555
W4 O7 1_555 1_555
W5 O8 1_555 1_555
W6 O9 1_555 1_555
W7 O10 1_555 1_555
W8 O11 1_555 1_555
W9 O12 1_555 1_555
La1 O28 1_555 1_555
As1 O13 1_555 1_555
P1 O29 1_555 1_555
P2 O31 1_555 1_555
O4 W1 1_555 1_555
O5 W1 1_555 1_555
O6 W2 1_555 1_555
O7 W1 1_555 1_555
O8 W1 1_555 1_555
O9 W2 1_555 1_555
O10 W2 1_555 1_555
O11 W3 1_555 1_555
O12 W3 1_555 1_555
O13 W1 1_555 1_555
O14 W2 1_555 1_555
O15 W3 1_555 1_555
O16 W4 1_555 1_555
O17 W4 1_555 1_555
O18 W4 1_555 1_555
O19 W5 1_555 1_555
O20 W5 1_555 1_555
O21 W6 1_555 1_555
O22 W6 1_555 1_555
O23 W7 1_555 1_555
O24 W7 1_555 1_555
O25 W8 1_555 1_555
O26 W8 1_555 1_555
O27 W9 1_555 1_555
O28 W4 1_555 1_555
O29 W5 1_555 1_555
O30 W6 1_555 1_555
O31 W7 1_555 1_555
O32 W8 1_555 1_555
O33 W9 1_555 1_555
O34 La1 1_555 1_555
O35 La1 1_555 1_555
O36 La1 1_555 1_555
O37 La1 1_555 1_555
O38 La1 1_555 1_555
O39 H1 1_555 1_555
O40 C3 1_555 1_555
O41 H2 1_555 1_555
O42 C6 1_555 1_555
N1 C7 1_555 1_555
C1 P1 1_555 1_555
H3 C1 1_555 1_555
H4 C1 1_555 1_555
C2 C1 1_555 1_555
H5 C2 1_555 1_555
H6 C2 1_555 1_555
C3 O39 1_555 1_555
C4 P2 1_555 1_555
H7 C4 1_555 1_555
H8 C4 1_555 1_555
C5 C4 1_555 1_555
H9 C5 1_555 1_555
H10 C5 1_555 1_555
C6 O41 1_555 1_555
C7 O38 1_555 1_555
H11 C7 1_555 1_555
C8 N1 1_555 1_555
H12 C8 1_555 1_555
H13 C8 1_555 1_555
H14 C8 1_555 1_555
C9 N1 1_555 1_555
H15 C9 1_555 1_555
H16 C9 1_555 1_555
H17 C9 1_555 1_555
N2 C10 1_555 1_555
C10 C11 1_555 1_555
C11 C12 1_555 1_555
C12 C13 1_555 1_555
C14 N2 1_555 1_555
C15 C14 1_555 1_555
C16 C15 1_555 1_555
C17 C16 1_555 1_555
C18 N2 1_555 1_555
C19 C18 1_555 1_555
C20 C19 1_555 1_555
C21 C20 1_555 1_555
C22 N2 1_555 1_555
C23 C22 1_555 1_555
C24 C23 1_555 1_555
N3 C25 1_555 1_555
C25 C26 1_555 1_555
C26 C27 1_555 1_555
C27 C28 1_555 1_555
C29 N3 1_555 1_555
C30 C29 1_555 1_555
C31 C30 1_555 1_555
C32 C31 1_555 1_555
C33 N3 1_555 1_555
C34 C33 1_555 1_555
C35 C34 1_555 1_555
C36 C35 1_555 1_555
C37 N3 1_555 1_555
C38 C37 1_555 1_555
C39 C38 1_555 1_555
La1E O40 1_555 1_555
O40E La1 1_555 1_555
W2 O5 1_555 1_555
W3 O4 1_555 1_555
W3 O6 1_555 1_555
W4 O13 1_555 1_555
W5 O13 1_555 1_555
W5 O18 1_555 1_555
W6 O14 1_555 1_555
W6 O20 1_555 1_555
W7 O14 1_555 1_555
W7 O22 1_555 1_555
W8 O15 1_555 1_555
W8 O24 1_555 1_555
W9 O15 1_555 1_555
W9 O16 1_555 1_555
W9 O26 1_555 1_555
La1 O33 1_555 1_555
As1 O14 1_555 1_555
As1 O15 1_555 1_555
P1 O30 1_555 1_555
P1 O34 1_555 1_555
P2 O32 1_555 1_555
P2 O35 1_555 1_555
C2 C3 1_555 1_555
C5 C6 1_555 1_555

#END
