
#######################################################################
#
#                 Cambridge Crystallographic Data Centre
#                                CCDC 
#
#######################################################################
#
# If this CIF has been generated from an entry in the Cambridge 
# Structural Database, then it will include bibliographic, chemical, 
# crystal, experimental, refinement or atomic coordinate data resulting 
# from the CCDC's data processing and validation procedures.
#
#######################################################################

data_PEYSUJ
_symmetry_cell_setting           tetragonal
_symmetry_space_group_name_H-M   'I 41/a m d'
_symmetry_Int_Tables_number      141
_space_group_name_Hall           '-I 4bd 2'
loop_
_symmetry_equiv_pos_site_id
_symmetry_equiv_pos_as_xyz
1 x,y,z
2 -x,1/2-y,z
3 -x,1/2+y,-z
4 1/2-x,-y,1/2+z
5 1/2-x,y,1/2-z
6 1/4-y,1/4-x,3/4-z
7 1/4-y,3/4+x,1/4+z
8 3/4-y,3/4-x,1/4-z
9 3/4-y,1/4+x,3/4+z
10 1/4+y,1/4-x,3/4+z
11 1/4+y,3/4+x,1/4-z
12 3/4+y,3/4-x,1/4+z
13 3/4+y,1/4+x,3/4-z
14 x,-y,-z
15 1/2+x,1/2-y,1/2-z
16 1/2+x,1/2+y,1/2+z
17 -x,-y,-z
18 x,1/2+y,-z
19 x,1/2-y,z
20 1/2+x,y,1/2-z
21 1/2+x,-y,1/2+z
22 3/4+y,3/4+x,1/4+z
23 3/4+y,1/4-x,3/4-z
24 1/4+y,1/4+x,3/4+z
25 1/4+y,3/4-x,1/4-z
26 3/4-y,3/4+x,1/4-z
27 3/4-y,1/4-x,3/4+z
28 1/4-y,1/4+x,3/4-z
29 1/4-y,3/4-x,1/4+z
30 -x,y,z
31 1/2-x,1/2+y,1/2+z
32 1/2-x,1/2-y,1/2-z
_cell_length_a                   21.5064(14)
_cell_length_b                   21.5064(14)
_cell_length_c                   10.1648(12)
_cell_angle_alpha                90
_cell_angle_beta                 90
_cell_angle_gamma                90
_cell_volume                     4701.48
loop_
_atom_site_label
_atom_site_type_symbol
_atom_site_fract_x
_atom_site_fract_y
_atom_site_fract_z
Al1 Al 0.31709(73) 0.00000 0.00000
O1 O 0.25586(90) 0.00586(90) 0.125
O2 O 0.38258(88) 0.00832(71) 0.1278(13)
O3 O 0.33965(39) 0.07041(79) 0.2802(19)
C1 C 0.38756(74) 0.04378(63) 0.2293(13)
C2 C 0.44351(46) 0.0570(11) 0.2986(16)
C3 C 0.50000 0.0476(13) 0.2345(16)
C4 C 0.44325(43) 0.0828(11) 0.4267(16)
C5 C 0.50000 0.0876(14) 0.4945(18)
Br1 Br 0.50000 0.11892(28) 0.66128(65)
O2CA O 0.61742(88) 0.00832(71) 0.1278(13)
O3CA O 0.66035(39) 0.07041(79) 0.2802(19)
C1CA C 0.61244(74) 0.04378(63) 0.2293(13)
C2CA C 0.55649(46) 0.0570(11) 0.2986(16)
C4CA C 0.55675(43) 0.0828(11) 0.4267(16)
Al1P Al 0.68291(73) 0.00000 0.00000
Al1F Al 0.25000 0.06709(73) 0.25000
Al1Y Al 0.75000 0.06709(73) 0.25000
O1I O 0.25586(90) -0.00586(90) -0.125
O2M O 0.38258(88) -0.00832(71) -0.1278(13)
O3I O 0.32041(79) -0.08965(39) 0.0302(19)
O3J O 0.32041(79) 0.08965(39) -0.0302(19)
loop_
_geom_bond_atom_site_label_1
_geom_bond_atom_site_label_2
_geom_bond_site_symmetry_1
_geom_bond_site_symmetry_2
Al1 O1 1_555 1_555
O1 Al1F 1_555 1_555
O2 Al1 1_555 1_555
O3 C1 1_555 1_555
C1 O2 1_555 1_555
C2 C1 1_555 1_555
C3 C2 1_555 1_555
C4 C2 1_555 1_555
C5 C4 1_555 1_555
Br1 C5 1_555 1_555
O2CA C1CA 1_555 1_555
O3CA C1CA 1_555 1_555
C1CA C2CA 1_555 1_555
C2CA C3 1_555 1_555
C4CA C5 1_555 1_555
Al1P O2CA 1_555 1_555
Al1F O3 1_555 1_555
Al1Y O3CA 1_555 1_555
O1I Al1 1_555 1_555
O2M Al1 1_555 1_555
O3I Al1 1_555 1_555
O3J Al1 1_555 1_555
C2CA C4CA 1_555 1_555

#END
