
#######################################################################
#
#                 Cambridge Crystallographic Data Centre
#                                CCDC 
#
#######################################################################
#
# If this CIF has been generated from an entry in the Cambridge 
# Structural Database, then it will include bibliographic, chemical, 
# crystal, experimental, refinement or atomic coordinate data resulting 
# from the CCDC's data processing and validation procedures.
#
#######################################################################

data_PEYTIY
_symmetry_cell_setting           triclinic
_symmetry_space_group_name_H-M   'P -1'
_symmetry_Int_Tables_number      2
_space_group_name_Hall           '-P 1'
loop_
_symmetry_equiv_pos_site_id
_symmetry_equiv_pos_as_xyz
1 x,y,z
2 -x,-y,-z
_cell_length_a                   9.3451(19)
_cell_length_b                   10.7442(11)
_cell_length_c                   11.1403(12)
_cell_angle_alpha                80.40(2)
_cell_angle_beta                 70.627(16)
_cell_angle_gamma                89.80(2)
_cell_volume                     1038.82
loop_
_atom_site_label
_atom_site_type_symbol
_atom_site_fract_x
_atom_site_fract_y
_atom_site_fract_z
Dy1 Dy 0.75022(4) 1.01912(3) 0.49890(3)
C1 C 1.0961(8) 0.9096(6) 0.3137(6)
C2 C 1.0600(8) 0.8472(6) 0.2154(6)
C3 C 1.0460(8) 0.7136(6) 0.2268(7)
H1 H 1.0639 0.6628 0.2960
C4 C 1.0082(8) 0.6586(7) 0.1420(7)
H2 H 1.0042 0.5709 0.1523
C5 C 0.9741(8) 0.7290(7) 0.0374(7)
C6 C 0.9890(7) 0.8640(6) 0.0225(6)
C7 C 1.0309(8) 0.9223(7) 0.1046(7)
C8 C 0.9442(8) 0.6590(7) -0.0577(7)
C9 C 1.0580(8) 1.0632(6) 0.0821(6)
C10 C 0.6123(9) 1.0887(7) 0.2797(7)
C11 C 0.5921(7) 1.1445(6) 0.1554(7)
C12 C 0.6112(8) 1.2745(7) 0.1186(7)
H3 H 0.6426 1.3230 0.1681
C13 C 0.5509(8) 1.0771(7) 0.0798(7)
C14 C 0.5434(9) 0.9352(7) 0.1058(7)
C15 C 0.4848(8) 0.8608(6) 0.0319(7)
C16 C 0.4651(8) 0.7284(7) 0.0660(7)
C17 C 0.4165(8) 0.6667(7) -0.0074(7)
H4 H 0.3999 0.5794 0.0162
C18 C 0.4880(9) 0.6546(8) 0.1844(7)
O1 O 0.9826(5) 0.9486(4) 0.3959(4)
O2 O 1.2259(5) 0.9114(5) 0.3194(5)
O3 O 1.0530(5) 0.6543(4) -0.1587(4)
O4 O 0.8178(6) 0.6036(4) -0.0343(4)
O5 O 1.1240(6) 1.1098(5) 0.1374(5)
O6 O 0.7377(5) 1.0895(4) 0.2916(4)
O7 O 0.4935(5) 1.0443(4) 0.3698(4)
O8 O 0.6025(5) 0.8843(5) 0.1823(5)
O9 O 0.3837(6) 0.6437(5) 0.2859(5)
H5 H 0.3614 0.7171 0.3027
O10 O 0.6086(5) 0.5991(4) 0.1725(4)
O11 O 0.6915(5) 0.8307(4) 0.4216(5)
H6 H 0.7328 0.7585 0.4591
H7 H 0.7355 0.8430 0.3292
O12 O 0.7759(5) 0.8317(4) 0.6481(4)
H8 H 0.6948 0.7702 0.6630
H9 H 0.7710 0.8556 0.7286
O13 O 0.9172(5) 1.2060(4) 0.4000(5)
H10 H 0.9570 1.2097 0.3081
H11 H 0.9995 1.2025 0.4339
O14 O 0.6144(6) 1.2152(5) 0.5307(5)
H12 H 0.5114 1.1941 0.5865
H13 H 0.6149 1.2606 0.4487
C1A C 0.9039(8) 1.0904(6) -0.3137(6)
C2A C 0.9400(8) 1.1528(6) -0.2154(6)
C3A C 0.9540(8) 1.2864(6) -0.2268(7)
H1A H 0.9361 1.3372 -0.2960
C4A C 0.9918(8) 1.3414(7) -0.1420(7)
H2A H 0.9958 1.4291 -0.1523
C5A C 1.0259(8) 1.2710(7) -0.0374(7)
C6A C 1.0110(7) 1.1360(6) -0.0225(6)
C7A C 0.9691(8) 1.0777(7) -0.1046(7)
C8A C 1.0558(8) 1.3410(7) 0.0577(7)
C9A C 0.9420(8) 0.9368(6) -0.0821(6)
O1A O 1.0174(5) 1.0514(4) -0.3959(4)
O2A O 0.7741(5) 1.0886(5) -0.3194(5)
O3A O 0.9470(5) 1.3457(4) 0.1587(4)
O4A O 1.1822(6) 1.3964(4) 0.0343(4)
O5A O 0.8760(6) 0.8902(5) -0.1374(5)
C10A C 0.3877(9) 0.9113(7) -0.2797(7)
C11A C 0.4079(7) 0.8555(6) -0.1554(7)
C12A C 0.3888(8) 0.7255(7) -0.1186(7)
H3A H 0.3574 0.6770 -0.1681
C13A C 0.4491(8) 0.9229(7) -0.0798(7)
C14A C 0.4566(9) 1.0648(7) -0.1058(7)
C15A C 0.5152(8) 1.1392(6) -0.0319(7)
C16A C 0.5349(8) 1.2716(7) -0.0660(7)
C17A C 0.5835(8) 1.3333(7) 0.0074(7)
H4A H 0.6001 1.4206 -0.0162
C18A C 0.5120(9) 1.3454(8) -0.1844(7)
O6A O 0.2623(5) 0.9105(4) -0.2916(4)
O7A O 0.5065(5) 0.9557(4) -0.3698(4)
O8A O 0.3975(5) 1.1157(5) -0.1823(5)
O9A O 0.6163(6) 1.3563(5) -0.2859(5)
H5A H 0.6386 1.2829 -0.3027
O10A O 0.3914(5) 1.4009(4) -0.1725(4)
Dy1A Dy 0.24978(4) 0.98088(3) -0.49890(3)
O11A O 0.3085(5) 1.1693(4) -0.4216(5)
H6A H 0.2672 1.2415 -0.4591
H7A H 0.2645 1.1570 -0.3292
O12A O 0.2241(5) 1.1683(4) -0.6481(4)
H8A H 0.3052 1.2298 -0.6630
H9A H 0.2290 1.1444 -0.7286
O13A O 0.0828(5) 0.7940(4) -0.4000(5)
H10A H 0.0430 0.7903 -0.3081
H11A H 0.0005 0.7975 -0.4339
O14A O 0.3856(6) 0.7848(5) -0.5307(5)
H12A H 0.4886 0.8059 -0.5865
H13A H 0.3851 0.7394 -0.4487
Dy1_2 Dy 0.75022(4) 1.01912(3) -0.50110(3)
Dy1A_2 Dy 0.24978(4) 0.98088(3) 0.50110(3)
Dy1A_3 Dy 1.24978(4) 0.98088(3) -0.49890(3)
Dy1A_4 Dy 1.24978(4) 0.98088(3) 0.50110(3)
O1A_2 O 0.0174(5) 1.0514(4) -0.3959(4)
O2_2 O 0.2259(5) 0.9114(5) -0.6806(5)
O2A_2 O 0.7741(5) 1.0886(5) 0.6806(5)
O7_2 O 0.4935(5) 1.0443(4) -0.6302(4)
O7A_2 O 0.5065(5) 0.9557(4) 0.6302(4)
O15 O 0.6715(10) 0.4537(8) 0.3745(8)
H14 H 0.7315 0.5166 0.3653
H15 H 0.6056 0.4766 0.3391
O16 O 0.7352(11) 0.5849(8) 0.5678(9)
H16 H 0.8090 0.5421 0.5320
H17 H 0.6604 0.5350 0.6161
loop_
_geom_bond_atom_site_label_1
_geom_bond_atom_site_label_2
_geom_bond_site_symmetry_1
_geom_bond_site_symmetry_2
Dy1 O1 1_555 1_555
C1 C2 1_555 1_555
C2 C3 1_555 1_555
C3 H1 1_555 1_555
C4 C3 1_555 1_555
H2 C4 1_555 1_555
C5 C4 1_555 1_555
C6 C5 1_555 1_555
C7 C2 1_555 1_555
C8 C5 1_555 1_555
C9 C7 1_555 1_555
C10 C11 1_555 1_555
C11 C12 1_555 1_555
C12 H3 1_555 1_555
C13 C11 1_555 1_555
C14 C13 1_555 1_555
C15 C14 1_555 1_555
C16 C15 1_555 1_555
C17 C16 1_555 1_555
H4 C17 1_555 1_555
C18 C16 1_555 1_555
O1 C1 1_555 1_555
O2 C1 1_555 1_555
O3 C8 1_555 1_555
O4 C8 1_555 1_555
O5 C9 1_555 1_555
O6 Dy1 1_555 1_555
O7 C10 1_555 1_555
O8 C14 1_555 1_555
O9 C18 1_555 1_555
H5 O9 1_555 1_555
O10 C18 1_555 1_555
O11 Dy1 1_555 1_555
H6 O11 1_555 1_555
H7 O11 1_555 1_555
O12 Dy1 1_555 1_555
H8 O12 1_555 1_555
H9 O12 1_555 1_555
O13 Dy1 1_555 1_555
H10 O13 1_555 1_555
H11 O13 1_555 1_555
O14 Dy1 1_555 1_555
H12 O14 1_555 1_555
H13 O14 1_555 1_555
O15 H14 1_555 1_555
H15 O15 1_555 1_555
O16 H16 1_555 1_555
H17 O16 1_555 1_555
C1A C2A 1_555 1_555
C2A C3A 1_555 1_555
C3A H1A 1_555 1_555
C4A C3A 1_555 1_555
H2A C4A 1_555 1_555
C5A C4A 1_555 1_555
C6A C9 1_555 1_555
C7A C2A 1_555 1_555
C8A C5A 1_555 1_555
C9A C6 1_555 1_555
O1A C1A 1_555 1_555
O2A C1A 1_555 1_555
O3A C8A 1_555 1_555
O4A C8A 1_555 1_555
O5A C9A 1_555 1_555
C10A C11A 1_555 1_555
C11A C12A 1_555 1_555
C12A C17 1_555 1_555
H3A C12A 1_555 1_555
C13A C15 1_555 1_555
C14A C13A 1_555 1_555
C15A C13 1_555 1_555
C16A C15A 1_555 1_555
C17A C12 1_555 1_555
H4A C17A 1_555 1_555
C18A C16A 1_555 1_555
O6A C10A 1_555 1_555
O7A C10A 1_555 1_555
O8A C14A 1_555 1_555
O9A C18A 1_555 1_555
H5A O9A 1_555 1_555
O10A C18A 1_555 1_555
Dy1A O6A 1_555 1_555
O11A Dy1A 1_555 1_555
H6A O11A 1_555 1_555
H7A O11A 1_555 1_555
O12A Dy1A 1_555 1_555
H8A O12A 1_555 1_555
H9A O12A 1_555 1_555
O13A Dy1A 1_555 1_555
H10A O13A 1_555 1_555
H11A O13A 1_555 1_555
O14A Dy1A 1_555 1_555
H12A O14A 1_555 1_555
H13A O14A 1_555 1_555
Dy1_2 O2A 1_555 1_555
Dy1A_2 O7 1_555 1_555
Dy1A_3 O1A 1_555 1_555
Dy1A_4 O2 1_555 1_555
O1A_2 Dy1A 1_555 1_555
O2_2 Dy1A 1_555 1_555
O2A_2 Dy1 1_555 1_555
O7_2 Dy1A 1_555 1_555
O7A_2 Dy1 1_555 1_555
C6 C7 1_555 1_555
C10 O6 1_555 1_555
C5A C6A 1_555 1_555
C6A C7A 1_555 1_555
C7A C9A 1_555 1_555
C11A C13A 1_555 1_555
C14A C15A 1_555 1_555
C16A C17A 1_555 1_555
O7A Dy1_2 1_555 1_555

#END
