
#######################################################################
#
#                 Cambridge Crystallographic Data Centre
#                                CCDC 
#
#######################################################################
#
# If this CIF has been generated from an entry in the Cambridge 
# Structural Database, then it will include bibliographic, chemical, 
# crystal, experimental, refinement or atomic coordinate data resulting 
# from the CCDC's data processing and validation procedures.
#
#######################################################################

data_PEYVEW
_symmetry_cell_setting           triclinic
_symmetry_space_group_name_H-M   'P -1'
_symmetry_Int_Tables_number      2
_space_group_name_Hall           '-P 1'
loop_
_symmetry_equiv_pos_site_id
_symmetry_equiv_pos_as_xyz
1 x,y,z
2 -x,-y,-z
_cell_length_a                   9.2456(14)
_cell_length_b                   10.7793(17)
_cell_length_c                   11.2474(17)
_cell_angle_alpha                80.6721(17)
_cell_angle_beta                 71.4995(18)
_cell_angle_gamma                89.8865(18)
_cell_volume                     1047.48
loop_
_atom_site_label
_atom_site_type_symbol
_atom_site_fract_x
_atom_site_fract_y
_atom_site_fract_z
Nd1 Nd 0.74812(2) 1.01782(2) 0.49840(2)
C1 C 1.1077(5) 0.9091(3) 0.3075(4)
C2 C 1.0647(4) 0.8503(4) 0.2095(4)
C3 C 1.0508(5) 0.7208(4) 0.2263(4)
H1 H 1.0706 0.6727 0.2954
C4 C 1.0076(5) 0.6613(4) 0.1407(4)
H2 H 0.9993 0.5738 0.1530
C5 C 0.9768(5) 0.7311(4) 0.0374(4)
C6 C 0.9870(4) 0.8629(3) 0.0215(4)
C7 C 1.0340(4) 0.9225(3) 0.1054(4)
C8 C 0.9500(5) 0.6620(4) -0.0615(4)
C9 C 1.0599(4) 1.0623(3) 0.0816(3)
C10 C 0.6269(5) 1.0876(4) 0.2740(4)
C11 C 0.5960(4) 1.1460(4) 0.1541(4)
C12 C 0.6132(5) 1.2758(4) 0.1205(4)
H3 H 0.6455 1.3228 0.1707
C13 C 0.5487(4) 1.0758(3) 0.0777(3)
C14 C 0.5478(4) 0.9362(4) 0.1050(4)
C15 C 0.4869(4) 0.8621(3) 0.0290(4)
C16 C 0.4676(5) 0.7308(4) 0.0629(4)
C17 C 0.4169(5) 0.6634(4) -0.0131(4)
H4 H 0.4030 0.5762 0.0085
C18 C 0.4919(5) 0.6568(4) 0.1806(4)
O1 O 1.0018(3) 0.9452(3) 0.3952(3)
O2 O 1.2443(3) 0.9123(3) 0.3041(3)
O3 O 1.0540(4) 0.6543(3) -0.1574(3)
O4 O 0.8170(4) 0.6044(3) -0.0355(3)
O5 O 1.1270(3) 1.1119(3) 0.1401(3)
O6 O 0.7615(3) 1.0853(3) 0.2738(3)
O7 O 0.5161(3) 1.0517(3) 0.3744(3)
O8 O 0.6035(3) 0.8835(3) 0.1830(3)
O9 O 0.3832(4) 0.6473(3) 0.2806(3)
H5 H 0.3607 0.5727 0.3107
O10 O 0.6151(4) 0.6010(3) 0.1688(3)
O11 O 0.6996(4) 0.8229(3) 0.4171(3)
H6 H 0.7224 0.7588 0.4611
H7 H 0.7545 0.8282 0.3396
O12 O 0.7666(4) 0.8250(3) 0.6547(3)
H8 H 0.7839 0.8643 0.7092
H9 H 0.8191 0.7715 0.6139
O13 O 0.9203(3) 1.2131(3) 0.4003(3)
H10 H 0.9799 1.1810 0.3396
H11 H 0.8899 1.2779 0.3627
O14 O 0.6062(3) 1.2211(3) 0.5307(3)
H12 H 0.6109 1.2432 0.5986
H13 H 0.6481 1.2788 0.4678
C1A C 0.8923(5) 1.0909(3) -0.3075(4)
C2A C 0.9353(4) 1.1497(4) -0.2095(4)
C3A C 0.9492(5) 1.2792(4) -0.2263(4)
H1A H 0.9294 1.3273 -0.2954
C4A C 0.9924(5) 1.3387(4) -0.1407(4)
H2A H 1.0007 1.4262 -0.1530
C5A C 1.0232(5) 1.2689(4) -0.0374(4)
C6A C 1.0130(4) 1.1371(3) -0.0215(4)
C7A C 0.9660(4) 1.0775(3) -0.1054(4)
C8A C 1.0500(5) 1.3380(4) 0.0615(4)
C9A C 0.9401(4) 0.9377(3) -0.0816(3)
O1A O 0.9982(3) 1.0548(3) -0.3952(3)
O2A O 0.7557(3) 1.0877(3) -0.3041(3)
O3A O 0.9460(4) 1.3457(3) 0.1574(3)
O4A O 1.1830(4) 1.3956(3) 0.0355(3)
O5A O 0.8730(3) 0.8881(3) -0.1401(3)
C10A C 0.3731(5) 0.9124(4) -0.2740(4)
C11A C 0.4040(4) 0.8540(4) -0.1541(4)
C12A C 0.3868(5) 0.7242(4) -0.1205(4)
H3A H 0.3545 0.6772 -0.1707
C13A C 0.4513(4) 0.9242(3) -0.0777(3)
C14A C 0.4522(4) 1.0638(4) -0.1050(4)
C15A C 0.5131(4) 1.1379(3) -0.0290(4)
C16A C 0.5324(5) 1.2692(4) -0.0629(4)
C17A C 0.5831(5) 1.3366(4) 0.0131(4)
H4A H 0.5970 1.4238 -0.0085
C18A C 0.5081(5) 1.3432(4) -0.1806(4)
O6A O 0.2385(3) 0.9147(3) -0.2738(3)
O7A O 0.4839(3) 0.9483(3) -0.3744(3)
O8A O 0.3965(3) 1.1165(3) -0.1830(3)
O9A O 0.6168(4) 1.3527(3) -0.2806(3)
H5A H 0.6393 1.4273 -0.3107
O10A O 0.3849(4) 1.3990(3) -0.1688(3)
Nd1A Nd 0.25188(2) 0.98218(2) -0.49840(2)
O11A O 0.3004(4) 1.1771(3) -0.4171(3)
H6A H 0.2776 1.2412 -0.4611
H7A H 0.2455 1.1718 -0.3396
O12A O 0.2334(4) 1.1750(3) -0.6547(3)
H8A H 0.2161 1.1357 -0.7092
H9A H 0.1809 1.2285 -0.6139
O13A O 0.0797(3) 0.7869(3) -0.4003(3)
H10A H 0.0201 0.8190 -0.3396
H11A H 0.1101 0.7221 -0.3627
O14A O 0.3938(3) 0.7789(3) -0.5307(3)
H12A H 0.3891 0.7568 -0.5986
H13A H 0.3519 0.7212 -0.4678
Nd1_2 Nd 0.74812(2) 1.01782(2) -0.50160(2)
Nd1A_2 Nd 0.25188(2) 0.98218(2) 0.50160(2)
Nd1A_3 Nd 1.25188(2) 0.98218(2) -0.49840(2)
Nd1A_4 Nd 1.25188(2) 0.98218(2) 0.50160(2)
O1A_2 O -0.0018(3) 1.0548(3) -0.3952(3)
O2_2 O 0.2443(3) 0.9123(3) -0.6959(3)
O2A_2 O 0.7557(3) 1.0877(3) 0.6959(3)
O7_2 O 0.5161(3) 1.0517(3) -0.6256(3)
O7A_2 O 0.4839(3) 0.9483(3) 0.6256(3)
O15 O 0.6651(9) 0.4574(6) 0.3790(7)
H14 H 0.6106 0.4791 0.3317
H15 H 0.6892 0.5202 0.4072
O16 O 0.7329(9) 0.5890(6) 0.5828(9)
O17? O 0.762(4) 0.582(2) 0.719(3)
O18? O 0.9484(14) 0.4540(11) 0.4734(11)
H16? H 1.0083 0.4272 0.4094
H17? H 0.8776 0.4088 0.5317
loop_
_geom_bond_atom_site_label_1
_geom_bond_atom_site_label_2
_geom_bond_site_symmetry_1
_geom_bond_site_symmetry_2
Nd1 O1 1_555 1_555
C1 C2 1_555 1_555
C2 C3 1_555 1_555
C3 H1 1_555 1_555
C4 C3 1_555 1_555
H2 C4 1_555 1_555
C5 C4 1_555 1_555
C6 C5 1_555 1_555
C7 C2 1_555 1_555
C8 C5 1_555 1_555
C9 C7 1_555 1_555
C10 C11 1_555 1_555
C11 C12 1_555 1_555
C12 H3 1_555 1_555
C13 C11 1_555 1_555
C14 C13 1_555 1_555
C15 C14 1_555 1_555
C16 C15 1_555 1_555
C17 C16 1_555 1_555
H4 C17 1_555 1_555
C18 C16 1_555 1_555
O1 C1 1_555 1_555
O2 C1 1_555 1_555
O3 C8 1_555 1_555
O4 C8 1_555 1_555
O5 C9 1_555 1_555
O6 Nd1 1_555 1_555
O7 Nd1 1_555 1_555
O8 C14 1_555 1_555
O9 C18 1_555 1_555
H5 O9 1_555 1_555
O10 C18 1_555 1_555
O11 Nd1 1_555 1_555
H6 O11 1_555 1_555
H7 O11 1_555 1_555
O12 Nd1 1_555 1_555
H8 O12 1_555 1_555
H9 O12 1_555 1_555
O13 Nd1 1_555 1_555
H10 O13 1_555 1_555
H11 O13 1_555 1_555
O14 Nd1 1_555 1_555
H12 O14 1_555 1_555
H13 O14 1_555 1_555
O15 H14 1_555 1_555
H15 O15 1_555 1_555
C1A C2A 1_555 1_555
C2A C3A 1_555 1_555
C3A H1A 1_555 1_555
C4A C3A 1_555 1_555
H2A C4A 1_555 1_555
C5A C4A 1_555 1_555
C6A C9 1_555 1_555
C7A C2A 1_555 1_555
C8A C5A 1_555 1_555
C9A C6 1_555 1_555
O1A C1A 1_555 1_555
O2A C1A 1_555 1_555
O3A C8A 1_555 1_555
O4A C8A 1_555 1_555
O5A C9A 1_555 1_555
C10A C11A 1_555 1_555
C11A C12A 1_555 1_555
C12A C17 1_555 1_555
H3A C12A 1_555 1_555
C13A C15 1_555 1_555
C14A C13A 1_555 1_555
C15A C13 1_555 1_555
C16A C15A 1_555 1_555
C17A C12 1_555 1_555
H4A C17A 1_555 1_555
C18A C16A 1_555 1_555
O6A C10A 1_555 1_555
O7A C10A 1_555 1_555
O8A C14A 1_555 1_555
O9A C18A 1_555 1_555
H5A O9A 1_555 1_555
O10A C18A 1_555 1_555
Nd1A O6A 1_555 1_555
O11A Nd1A 1_555 1_555
H6A O11A 1_555 1_555
H7A O11A 1_555 1_555
O12A Nd1A 1_555 1_555
H8A O12A 1_555 1_555
H9A O12A 1_555 1_555
O13A Nd1A 1_555 1_555
H10A O13A 1_555 1_555
H11A O13A 1_555 1_555
O14A Nd1A 1_555 1_555
H12A O14A 1_555 1_555
H13A O14A 1_555 1_555
Nd1_2 O2A 1_555 1_555
Nd1A_2 O7 1_555 1_555
Nd1A_3 O1A 1_555 1_555
Nd1A_4 O2 1_555 1_555
O1A_2 Nd1A 1_555 1_555
O2_2 Nd1A 1_555 1_555
O2A_2 Nd1 1_555 1_555
O7_2 Nd1A 1_555 1_555
O7A_2 Nd1 1_555 1_555
C6 C7 1_555 1_555
C10 O6 1_555 1_555
C10 O7 1_555 1_555
C5A C6A 1_555 1_555
C6A C7A 1_555 1_555
C7A C9A 1_555 1_555
C11A C13A 1_555 1_555
C14A C15A 1_555 1_555
C16A C17A 1_555 1_555
O7A Nd1A 1_555 1_555
O7A Nd1_2 1_555 1_555
Nd1_2 O7_2 1_555 1_555
Nd1A_2 O7A_2 1_555 1_555

#END
