
#######################################################################
#
#                 Cambridge Crystallographic Data Centre
#                                CCDC 
#
#######################################################################
#
# If this CIF has been generated from an entry in the Cambridge 
# Structural Database, then it will include bibliographic, chemical, 
# crystal, experimental, refinement or atomic coordinate data resulting 
# from the CCDC's data processing and validation procedures.
#
#######################################################################

data_PEYVAS
_symmetry_cell_setting           triclinic
_symmetry_space_group_name_H-M   'P -1'
_symmetry_Int_Tables_number      2
_space_group_name_Hall           '-P 1'
loop_
_symmetry_equiv_pos_site_id
_symmetry_equiv_pos_as_xyz
1 x,y,z
2 -x,-y,-z
_cell_length_a                   9.2739(15)
_cell_length_b                   10.7340(18)
_cell_length_c                   11.2026(18)
_cell_angle_alpha                80.511(3)
_cell_angle_beta                 71.162(3)
_cell_angle_gamma                89.811(3)
_cell_volume                     1039.51
loop_
_atom_site_label
_atom_site_type_symbol
_atom_site_fract_x
_atom_site_fract_y
_atom_site_fract_z
Sm1 Sm 0.74868(4) 1.01797(3) 0.49858(3)
C1 C 1.1027(8) 0.9086(6) 0.3100(6)
C2 C 1.0638(7) 0.8503(6) 0.2094(6)
C3 C 1.0510(8) 0.7188(6) 0.2268(6)
H1 H 1.0710 0.6702 0.2959
C4 C 1.0081(9) 0.6604(6) 0.1407(7)
H2 H 1.0006 0.5726 0.1525
C5 C 0.9762(8) 0.7310(6) 0.0369(6)
C6 C 0.9864(7) 0.8634(6) 0.0210(6)
C7 C 1.0324(7) 0.9224(6) 0.1055(6)
C8 C 0.9502(9) 0.6609(6) -0.0603(6)
C9 C 1.0596(7) 1.0616(6) 0.0805(6)
C10 C 0.6209(8) 1.0891(6) 0.2750(6)
C11 C 0.5952(7) 1.1461(6) 0.1534(6)
C12 C 0.6137(8) 1.2758(6) 0.1193(6)
H3 H 0.6460 1.3230 0.1694
C13 C 0.5481(7) 1.0770(6) 0.0773(6)
C14 C 0.5470(7) 0.9358(6) 0.1059(6)
C15 C 0.4858(7) 0.8620(6) 0.0302(6)
C16 C 0.4671(8) 0.7294(6) 0.0639(6)
C17 C 0.4154(9) 0.6635(6) -0.0111(7)
H4 H 0.3997 0.5760 0.0115
C18 C 0.4910(8) 0.6563(6) 0.1819(6)
O1 O 0.9933(6) 0.9445(4) 0.3955(4)
O2 O 1.2368(5) 0.9104(4) 0.3100(4)
O3 O 1.0545(6) 0.6542(4) -0.1572(4)
O4 O 0.8177(6) 0.6044(5) -0.0352(5)
O5 O 1.1261(6) 1.1117(4) 0.1396(4)
O6 O 0.7528(6) 1.0880(5) 0.2797(5)
O7 O 0.5084(6) 1.0491(5) 0.3726(4)
O8 O 0.6026(6) 0.8841(4) 0.1831(4)
O9 O 0.3835(6) 0.6449(5) 0.2828(5)
H5 H 0.3612 0.7182 0.2997
O10 O 0.6139(6) 0.6001(5) 0.1695(4)
O11 O 0.6978(6) 0.8261(5) 0.4187(5)
H6 H 0.7391 0.7539 0.4562
H7 H 0.7419 0.8384 0.3262
O12 O 0.7708(6) 0.8279(5) 0.6522(5)
H8 H 0.6898 0.7664 0.6671
H9 H 0.7660 0.8519 0.7327
O13 O 0.9178(5) 1.2106(4) 0.3994(4)
H10 H 0.9575 1.2144 0.3075
H11 H 1.0000 1.2071 0.4332
O14 O 0.6093(5) 1.2183(4) 0.5304(4)
H12 H 0.5063 1.1972 0.5862
H13 H 0.6098 1.2636 0.4483
C1A C 0.8973(8) 1.0914(6) -0.3100(6)
C2A C 0.9362(7) 1.1497(6) -0.2094(6)
C3A C 0.9490(8) 1.2812(6) -0.2268(6)
H1A H 0.9290 1.3298 -0.2959
C4A C 0.9919(9) 1.3396(6) -0.1407(7)
H2A H 0.9994 1.4274 -0.1525
C5A C 1.0238(8) 1.2690(6) -0.0369(6)
C6A C 1.0136(7) 1.1366(6) -0.0210(6)
C7A C 0.9676(7) 1.0776(6) -0.1055(6)
C8A C 1.0498(9) 1.3391(6) 0.0603(6)
C9A C 0.9404(7) 0.9384(6) -0.0805(6)
O1A O 1.0067(6) 1.0555(4) -0.3955(4)
O2A O 0.7632(5) 1.0896(4) -0.3100(4)
O3A O 0.9455(6) 1.3458(4) 0.1572(4)
O4A O 1.1823(6) 1.3956(5) 0.0352(5)
O5A O 0.8739(6) 0.8883(4) -0.1396(4)
C10A C 0.3791(8) 0.9109(6) -0.2750(6)
C11A C 0.4048(7) 0.8539(6) -0.1534(6)
C12A C 0.3863(8) 0.7242(6) -0.1193(6)
H3A H 0.3540 0.6770 -0.1694
C13A C 0.4519(7) 0.9230(6) -0.0773(6)
C14A C 0.4530(7) 1.0642(6) -0.1059(6)
C15A C 0.5142(7) 1.1380(6) -0.0302(6)
C16A C 0.5329(8) 1.2706(6) -0.0639(6)
C17A C 0.5846(9) 1.3365(6) 0.0111(7)
H4A H 0.6003 1.4240 -0.0115
C18A C 0.5090(8) 1.3437(6) -0.1819(6)
O6A O 0.2472(6) 0.9120(5) -0.2797(5)
O7A O 0.4916(6) 0.9509(5) -0.3726(4)
O8A O 0.3974(6) 1.1159(4) -0.1831(4)
O9A O 0.6165(6) 1.3551(5) -0.2828(5)
H5A H 0.6388 1.2818 -0.2997
O10A O 0.3861(6) 1.3999(5) -0.1695(4)
Sm1A Sm 0.25132(4) 0.98203(3) -0.49858(3)
O11A O 0.3022(6) 1.1739(5) -0.4187(5)
H6A H 0.2609 1.2461 -0.4562
H7A H 0.2581 1.1616 -0.3262
O12A O 0.2292(6) 1.1721(5) -0.6522(5)
H8A H 0.3102 1.2336 -0.6671
H9A H 0.2340 1.1481 -0.7327
O13A O 0.0822(5) 0.7894(4) -0.3994(4)
H10A H 0.0425 0.7856 -0.3075
H11A H 0.0000 0.7929 -0.4332
O14A O 0.3907(5) 0.7817(4) -0.5304(4)
H12A H 0.4937 0.8028 -0.5862
H13A H 0.3902 0.7364 -0.4483
Sm1_2 Sm 0.74868(4) 1.01797(3) -0.50142(3)
Sm1A_2 Sm 0.25132(4) 0.98203(3) 0.50142(3)
Sm1A_3 Sm 1.25132(4) 0.98203(3) -0.49858(3)
Sm1A_4 Sm 1.25132(4) 0.98203(3) 0.50142(3)
O1A_2 O 0.0067(6) 1.0555(4) -0.3955(4)
O2_2 O 0.2368(5) 0.9104(4) -0.6900(4)
O2A_2 O 0.7632(5) 1.0896(4) 0.6900(4)
O7_2 O 0.5084(6) 1.0491(5) -0.6274(4)
O7A_2 O 0.4916(6) 0.9509(5) 0.6274(4)
O15 O 0.6624(15) 0.4565(10) 0.3824(11)
H14 H 0.6323 0.5307 0.3718
H15 H 0.7005 0.4338 0.3072
O16 O 0.7357(15) 0.5902(10) 0.5772(16)
H16 H 0.7065 0.5629 0.6581
H17 H 0.6722 0.5596 0.5484
O17 O 0.936(2) 0.4461(15) 0.4681(14)
H18 H 1.0224 0.4204 0.4283
H19 H 0.8701 0.4210 0.4391
loop_
_geom_bond_atom_site_label_1
_geom_bond_atom_site_label_2
_geom_bond_site_symmetry_1
_geom_bond_site_symmetry_2
Sm1 O1 1_555 1_555
C1 C2 1_555 1_555
C2 C3 1_555 1_555
C3 H1 1_555 1_555
C4 C3 1_555 1_555
H2 C4 1_555 1_555
C5 C4 1_555 1_555
C6 C5 1_555 1_555
C7 C2 1_555 1_555
C8 C5 1_555 1_555
C9 C7 1_555 1_555
C10 C11 1_555 1_555
C11 C12 1_555 1_555
C12 H3 1_555 1_555
C13 C11 1_555 1_555
C14 C13 1_555 1_555
C15 C14 1_555 1_555
C16 C15 1_555 1_555
C17 C16 1_555 1_555
H4 C17 1_555 1_555
C18 C16 1_555 1_555
O1 C1 1_555 1_555
O2 C1 1_555 1_555
O3 C8 1_555 1_555
O4 C8 1_555 1_555
O5 C9 1_555 1_555
O6 Sm1 1_555 1_555
O7 C10 1_555 1_555
O8 C14 1_555 1_555
O9 C18 1_555 1_555
H5 O9 1_555 1_555
O10 C18 1_555 1_555
O11 Sm1 1_555 1_555
H6 O11 1_555 1_555
H7 O11 1_555 1_555
O12 Sm1 1_555 1_555
H8 O12 1_555 1_555
H9 O12 1_555 1_555
O13 Sm1 1_555 1_555
H10 O13 1_555 1_555
H11 O13 1_555 1_555
O14 Sm1 1_555 1_555
H12 O14 1_555 1_555
H13 O14 1_555 1_555
O15 H14 1_555 1_555
H15 O15 1_555 1_555
O16 H16 1_555 1_555
H17 O16 1_555 1_555
O17 H18 1_555 1_555
H19 O17 1_555 1_555
C1A C2A 1_555 1_555
C2A C3A 1_555 1_555
C3A H1A 1_555 1_555
C4A C3A 1_555 1_555
H2A C4A 1_555 1_555
C5A C4A 1_555 1_555
C6A C9 1_555 1_555
C7A C2A 1_555 1_555
C8A C5A 1_555 1_555
C9A C6 1_555 1_555
O1A C1A 1_555 1_555
O2A C1A 1_555 1_555
O3A C8A 1_555 1_555
O4A C8A 1_555 1_555
O5A C9A 1_555 1_555
C10A C11A 1_555 1_555
C11A C12A 1_555 1_555
C12A C17 1_555 1_555
H3A C12A 1_555 1_555
C13A C15 1_555 1_555
C14A C13A 1_555 1_555
C15A C13 1_555 1_555
C16A C15A 1_555 1_555
C17A C12 1_555 1_555
H4A C17A 1_555 1_555
C18A C16A 1_555 1_555
O6A C10A 1_555 1_555
O7A C10A 1_555 1_555
O8A C14A 1_555 1_555
O9A C18A 1_555 1_555
H5A O9A 1_555 1_555
O10A C18A 1_555 1_555
Sm1A O6A 1_555 1_555
O11A Sm1A 1_555 1_555
H6A O11A 1_555 1_555
H7A O11A 1_555 1_555
O12A Sm1A 1_555 1_555
H8A O12A 1_555 1_555
H9A O12A 1_555 1_555
O13A Sm1A 1_555 1_555
H10A O13A 1_555 1_555
H11A O13A 1_555 1_555
O14A Sm1A 1_555 1_555
H12A O14A 1_555 1_555
H13A O14A 1_555 1_555
Sm1_2 O2A 1_555 1_555
Sm1A_2 O7 1_555 1_555
Sm1A_3 O1A 1_555 1_555
Sm1A_4 O2 1_555 1_555
O1A_2 Sm1A 1_555 1_555
O2_2 Sm1A 1_555 1_555
O2A_2 Sm1 1_555 1_555
O7_2 Sm1A 1_555 1_555
O7A_2 Sm1 1_555 1_555
C6 C7 1_555 1_555
C10 O6 1_555 1_555
C5A C6A 1_555 1_555
C6A C7A 1_555 1_555
C7A C9A 1_555 1_555
C11A C13A 1_555 1_555
C14A C15A 1_555 1_555
C16A C17A 1_555 1_555
O7A Sm1_2 1_555 1_555

#END
