
#######################################################################
#
#                 Cambridge Crystallographic Data Centre
#                                CCDC 
#
#######################################################################
#
# If this CIF has been generated from an entry in the Cambridge 
# Structural Database, then it will include bibliographic, chemical, 
# crystal, experimental, refinement or atomic coordinate data resulting 
# from the CCDC's data processing and validation procedures.
#
#######################################################################

data_PEYWAT
_symmetry_cell_setting           monoclinic
_symmetry_space_group_name_H-M   'C 2/c'
_symmetry_Int_Tables_number      15
_space_group_name_Hall           '-C 2yn'
loop_
_symmetry_equiv_pos_site_id
_symmetry_equiv_pos_as_xyz
1 x,y,z
2 -x,y,1/2-z
3 1/2+x,1/2+y,z
4 1/2-x,1/2+y,1/2-z
5 -x,-y,-z
6 x,-y,1/2+z
7 1/2-x,1/2-y,-z
8 1/2+x,1/2-y,1/2+z
_cell_length_a                   15.284(3)
_cell_length_b                   13.011(3)
_cell_length_c                   23.350(5)
_cell_angle_alpha                90
_cell_angle_beta                 103.853(3)
_cell_angle_gamma                90
_cell_volume                     4508.32
loop_
_atom_site_label
_atom_site_type_symbol
_atom_site_fract_x
_atom_site_fract_y
_atom_site_fract_z
S2 S 0.3957(7) 0.4920(7) 0.7299(5)
N3 N 0.3474(10) 0.1560(16) 0.7237(9)
C19 C 0.3274(11) 0.2093(17) 0.6728(10)
H12 H 0.3019 0.1763 0.6375
C20 C 0.3451(11) 0.3127(17) 0.6736(11)
H13 H 0.3319 0.3510 0.6390
C21 C 0.3830(12) 0.3584(19) 0.7270(10)
C22 C 0.4033(12) 0.3043(18) 0.7791(11)
H14 H 0.4287 0.3363 0.8148
C23 C 0.3846(11) 0.2009(18) 0.7761(10)
H15 H 0.3977 0.1615 0.8104
S3 S 0.4959(14) 0.5125(13) 0.7108(8)
S2A S 0.6043(7) 0.4920(7) 0.7701(5)
N3A N 0.6526(10) 0.1560(16) 0.7763(9)
C19A C 0.6726(11) 0.2093(17) 0.8272(10)
H12A H 0.6981 0.1763 0.8625
C20A C 0.6549(11) 0.3127(17) 0.8264(11)
H13A H 0.6681 0.3510 0.8610
C21A C 0.6170(12) 0.3584(19) 0.7730(10)
C22A C 0.5967(12) 0.3043(18) 0.7209(11)
H14A H 0.5713 0.3363 0.6852
C23A C 0.6154(11) 0.2009(18) 0.7239(10)
H15A H 0.6023 0.1615 0.6896
S3A S 0.5041(14) 0.5125(13) 0.7892(8)
Co1 Co 0.13795(9) 0.50851(10) 1.02769(7)
Br1 Br -0.15259(9) 1.02967(11) 0.89004(9)
S1 S 0.1418(4) 0.2503(3) 0.78162(18)
O1 O -0.1032(5) 0.6308(5) 0.9420(3)
O2 O 0.0388(5) 0.6059(6) 0.9866(4)
O3 O 0.2615(5) 0.8858(6) 0.9836(4)
O4 O 0.2151(5) 1.0315(6) 0.9406(4)
N1 N 0.1344(6) 0.4335(7) 0.9443(4)
N2 N 0.1340(6) 0.4214(7) 0.6108(4)
C1 C -0.0230(7) 0.6612(8) 0.9595(5)
C2 C -0.0021(7) 0.7693(8) 0.9499(4)
C3 C -0.0733(7) 0.8387(8) 0.9287(5)
H1 H -0.1325 0.8155 0.9217
C4 C -0.0572(7) 0.9385(9) 0.9183(6)
C5 C 0.0326(8) 0.9729(9) 0.9294(6)
H2 H 0.0441 1.0409 0.9213
C6 C 0.1028(7) 0.9086(8) 0.9516(5)
C7 C 0.0862(7) 0.8064(8) 0.9617(5)
H3 H 0.1341 0.7623 0.9766
C8 C 0.1988(8) 0.9442(9) 0.9597(5)
C9 C 0.1048(7) 0.4758(8) 0.8923(5)
H4 H 0.0820 0.5422 0.8910
C10 C 0.1052(8) 0.4284(10) 0.8393(5)
H5 H 0.0827 0.4616 0.8035
C11 C 0.1409(8) 0.3286(9) 0.8413(6)
C12 C 0.1702(8) 0.2829(11) 0.8963(6)
H6 H 0.1921 0.2159 0.8998
C13 C 0.1663(8) 0.3387(9) 0.9453(6)
H7 H 0.1875 0.3078 0.9819
C14 C 0.1001(8) 0.3297(10) 0.6146(6)
H8 H 0.0753 0.2958 0.5793
C15 C 0.0980(9) 0.2790(10) 0.6662(6)
H9 H 0.0722 0.2141 0.6655
C16 C 0.1351(9) 0.3272(10) 0.7184(6)
C17 C 0.1687(11) 0.4266(11) 0.7165(6)
H10 H 0.1910 0.4638 0.7509
C18 C 0.1677(9) 0.4663(10) 0.6643(6)
H11 H 0.1925 0.5315 0.6640
Co1D Co -0.13795(9) 0.49149(10) 0.97231(7)
Co1E Co 0.13795(9) 0.49149(10) 0.52769(7)
Co1F Co 0.36205(9) 0.99149(10) 0.97231(7)
O1D O 0.1032(5) 0.3692(5) 1.0580(3)
O3F O 0.2385(5) 0.6142(6) 1.0164(4)
O4F O 0.2849(5) 0.4685(6) 1.0594(4)
N2E N 0.1340(6) 0.5786(7) 1.1108(4)
loop_
_geom_bond_atom_site_label_1
_geom_bond_atom_site_label_2
_geom_bond_site_symmetry_1
_geom_bond_site_symmetry_2
Co1 O2 1_555 1_555
Br1 C4 1_555 1_555
S1 C11 1_555 1_555
O1 C1 1_555 1_555
O2 C1 1_555 1_555
O3 C8 1_555 1_555
O4 C8 1_555 1_555
N1 Co1 1_555 1_555
N2 C14 1_555 1_555
C1 C2 1_555 1_555
C2 C3 1_555 1_555
C3 H1 1_555 1_555
C4 C3 1_555 1_555
C5 C4 1_555 1_555
H2 C5 1_555 1_555
C6 C5 1_555 1_555
C7 C2 1_555 1_555
H3 C7 1_555 1_555
C8 C6 1_555 1_555
C9 N1 1_555 1_555
H4 C9 1_555 1_555
C10 C9 1_555 1_555
H5 C10 1_555 1_555
C11 C10 1_555 1_555
C12 C11 1_555 1_555
H6 C12 1_555 1_555
C13 N1 1_555 1_555
H7 C13 1_555 1_555
C14 H8 1_555 1_555
C15 C14 1_555 1_555
H9 C15 1_555 1_555
C16 S1 1_555 1_555
C17 C16 1_555 1_555
H10 C17 1_555 1_555
C18 N2 1_555 1_555
H11 C18 1_555 1_555
S2 C21 1_555 1_555
N3 C19 1_555 1_555
C19 H12 1_555 1_555
C20 C19 1_555 1_555
H13 C20 1_555 1_555
C21 C20 1_555 1_555
C22 C21 1_555 1_555
H14 C22 1_555 1_555
C23 N3 1_555 1_555
H15 C23 1_555 1_555
S3 S2 1_555 1_555
Co1D O1 1_555 1_555
Co1E N2 1_555 1_555
Co1F O3 1_555 1_555
O1D Co1 1_555 1_555
O3F Co1 1_555 1_555
O4F Co1 1_555 1_555
N2E Co1 1_555 1_555
S2A S3 1_555 1_555
N3A C19A 1_555 1_555
C19A H12A 1_555 1_555
C20A C19A 1_555 1_555
H13A C20A 1_555 1_555
C21A S2A 1_555 1_555
C22A C21A 1_555 1_555
H14A C22A 1_555 1_555
C23A N3A 1_555 1_555
H15A C23A 1_555 1_555
S3A S2 1_555 1_555
O4 Co1F 1_555 1_555
C6 C7 1_555 1_555
C12 C13 1_555 1_555
C15 C16 1_555 1_555
C17 C18 1_555 1_555
C22 C23 1_555 1_555
S3 S3A 1_555 1_555
S2A S3A 1_555 1_555
C20A C21A 1_555 1_555
C22A C23A 1_555 1_555

#END
