
#######################################################################
#
#                 Cambridge Crystallographic Data Centre
#                                CCDC 
#
#######################################################################
#
# If this CIF has been generated from an entry in the Cambridge 
# Structural Database, then it will include bibliographic, chemical, 
# crystal, experimental, refinement or atomic coordinate data resulting 
# from the CCDC's data processing and validation procedures.
#
#######################################################################

data_PEZJIP
_symmetry_cell_setting           monoclinic
_symmetry_space_group_name_H-M   'P 2/c'
_symmetry_Int_Tables_number      13
_space_group_name_Hall           '-P 2yc'
loop_
_symmetry_equiv_pos_site_id
_symmetry_equiv_pos_as_xyz
1 x,y,z
2 -x,y,1/2-z
3 -x,-y,-z
4 x,-y,1/2+z
_cell_length_a                   11.4394(12)
_cell_length_b                   11.5606(12)
_cell_length_c                   16.4365(17)
_cell_angle_alpha                90
_cell_angle_beta                 102.483(2)
_cell_angle_gamma                90
_cell_volume                     2122.28
loop_
_atom_site_label
_atom_site_type_symbol
_atom_site_fract_x
_atom_site_fract_y
_atom_site_fract_z
Co1 Co 0.5000 0.39162(9) 0.2500
O1 O 0.4639(4) 0.3926(4) 0.1210(2)
H1 H 0.5133 0.3834 0.0896
H2 H 0.4061 0.4160 0.0830
N1 N 0.5000 0.2005(6) 0.2500
N2 N 0.5000 -0.4160(5) 0.2500
N3 N 0.3101(4) 0.3880(4) 0.2441(3)
C1 C 0.4518(5) 0.1383(5) 0.1816(4)
H3 H 0.4176 0.1784 0.1333
C2 C 0.4500(5) 0.0199(5) 0.1787(4)
H4 H 0.4156 -0.0183 0.1295
C3 C 0.5000 -0.0428(7) 0.2500
C4 C 0.5000 -0.1714(8) 0.2500
C5 C 0.4967(5) -0.2348(5) 0.3212(4)
H5 H 0.4947 -0.1968 0.3707
C6 C 0.4964(5) -0.3553(5) 0.3186(4)
H6 H 0.4935 -0.3955 0.3671
C7 C 0.2575(6) 0.3023(6) 0.2752(4)
H7 H 0.3055 0.2401 0.2972
C8 C 0.1384(6) 0.2960(6) 0.2780(5)
H8 H 0.1089 0.2317 0.3010
C9 C 0.0647(6) 0.3844(6) 0.2470(4)
C10 C 0.1113(6) 0.4752(6) 0.2090(5)
H9 H 0.0631 0.5358 0.1843
C11 C 0.2327(7) 0.4724(6) 0.2092(5)
H10 H 0.2635 0.5333 0.1834
C1A C 0.5482(5) 0.1383(5) 0.3184(4)
H3A H 0.5824 0.1784 0.3667
C2A C 0.5500(5) 0.0199(5) 0.3213(4)
H4A H 0.5844 -0.0183 0.3705
C5A C 0.5033(5) -0.2348(5) 0.1788(4)
H5A H 0.5053 -0.1968 0.1293
C6A C 0.5036(5) -0.3553(5) 0.1814(4)
H6A H 0.5065 -0.3955 0.1329
N3A N -0.3101(4) 0.3880(4) 0.2559(3)
C7A C -0.2575(6) 0.3023(6) 0.2248(4)
H7A H -0.3055 0.2401 0.2028
C8A C -0.1384(6) 0.2960(6) 0.2220(5)
H8A H -0.1089 0.2317 0.1990
C9A C -0.0647(6) 0.3844(6) 0.2530(4)
C10A C -0.1113(6) 0.4752(6) 0.2910(5)
H9A H -0.0631 0.5358 0.3157
C11A C -0.2327(7) 0.4724(6) 0.2908(5)
H10A H -0.2635 0.5333 0.3166
O1A O 0.5361(4) 0.3926(4) 0.3790(2)
H1A H 0.4867 0.3834 0.4104
H2A H 0.5939 0.4160 0.4170
Co1_2 Co -0.5000 0.39162(9) 0.2500
Co1_3 Co 0.5000 -0.60838(9) 0.2500
N2_2 N 0.5000 0.5840(5) 0.2500
N3A_2 N 0.6899(4) 0.3880(4) 0.2559(3)
S1 S 0.3089(2) -0.0408(2) 0.46243(13)
S2 S 0.33901(18) 0.1322(2) 0.46401(12)
O2 O 0.1777(18) -0.3710(8) 0.3695(7)
O3 O 0.2923(11) -0.2731(13) 0.4591(10)
O4 O 0.3820(6) 0.3562(7) 0.4757(4)
O5 O 0.2699(6) 0.4975(6) 0.5122(4)
N4 N 0.2143(6) 0.0201(5) 0.3062(4)
N5 N 0.1068(6) 0.1171(7) 0.4666(4)
C12 C 0.237(2) -0.2800(12) 0.3966(12)
C13 C 0.2057(9) -0.1818(8) 0.3329(7)
C14 C 0.1540(12) -0.1983(10) 0.2515(9)
H11 H 0.1335 -0.2728 0.2322
C15 C 0.1312(10) -0.1066(11) 0.1965(7)
H12 H 0.0964 -0.1171 0.1404
C16 C 0.1620(8) -0.0016(9) 0.2285(5)
H13 H 0.1449 0.0613 0.1926
C17 C 0.2358(6) -0.0692(6) 0.3567(5)
C18 C 0.1969(6) 0.1905(7) 0.4736(4)
C19 C 0.1868(6) 0.3100(7) 0.4861(4)
C20 C 0.0749(8) 0.3503(9) 0.4893(6)
H14 H 0.0633 0.4287 0.4977
C21 C -0.0203(8) 0.2745(10) 0.4802(6)
H15 H -0.0968 0.3012 0.4809
C22 C 0.0000(8) 0.1603(9) 0.4701(5)
H16 H -0.0641 0.1094 0.4654
C23 C 0.2881(8) 0.3937(9) 0.4913(5)
loop_
_geom_bond_atom_site_label_1
_geom_bond_atom_site_label_2
_geom_bond_site_symmetry_1
_geom_bond_site_symmetry_2
Co1 O1 1_555 1_555
O1 H1 1_555 1_555
H2 O1 1_555 1_555
N1 Co1 1_555 1_555
N2 C6 1_555 1_555
N3 Co1 1_555 1_555
C1 N1 1_555 1_555
H3 C1 1_555 1_555
C2 C1 1_555 1_555
H4 C2 1_555 1_555
C3 C2 1_555 1_555
C4 C3 1_555 1_555
C5 C4 1_555 1_555
H5 C5 1_555 1_555
C6 C5 1_555 1_555
H6 C6 1_555 1_555
C7 N3 1_555 1_555
H7 C7 1_555 1_555
C8 C7 1_555 1_555
H8 C8 1_555 1_555
C9 C8 1_555 1_555
C10 C9 1_555 1_555
H9 C10 1_555 1_555
C11 N3 1_555 1_555
H10 C11 1_555 1_555
S1 S2 1_555 1_555
S2 C18 1_555 1_555
O2 C12 1_555 1_555
O3 C12 1_555 1_555
O4 C23 1_555 1_555
O5 C23 1_555 1_555
N4 C16 1_555 1_555
N5 C18 1_555 1_555
C12 C13 1_555 1_555
C13 C14 1_555 1_555
C14 H11 1_555 1_555
C15 C14 1_555 1_555
H12 C15 1_555 1_555
C16 C15 1_555 1_555
H13 C16 1_555 1_555
C17 S1 1_555 1_555
C18 C19 1_555 1_555
C19 C20 1_555 1_555
C20 H14 1_555 1_555
C21 C20 1_555 1_555
H15 C21 1_555 1_555
C22 N5 1_555 1_555
H16 C22 1_555 1_555
C23 C19 1_555 1_555
C1A N1 1_555 1_555
H3A C1A 1_555 1_555
C2A C3 1_555 1_555
H4A C2A 1_555 1_555
C5A C4 1_555 1_555
H5A C5A 1_555 1_555
C6A N2 1_555 1_555
H6A C6A 1_555 1_555
N3A C7A 1_555 1_555
C7A H7A 1_555 1_555
C8A C7A 1_555 1_555
H8A C8A 1_555 1_555
C9A C9 1_555 1_555
C10A C9A 1_555 1_555
H9A C10A 1_555 1_555
C11A N3A 1_555 1_555
H10A C11A 1_555 1_555
O1A Co1 1_555 1_555
H1A O1A 1_555 1_555
H2A O1A 1_555 1_555
Co1_2 N3A 1_555 1_555
Co1_3 N2 1_555 1_555
N2_2 Co1 1_555 1_555
N3A_2 Co1 1_555 1_555
C10 C11 1_555 1_555
N4 C17 1_555 1_555
C13 C17 1_555 1_555
C21 C22 1_555 1_555
C1A C2A 1_555 1_555
C5A C6A 1_555 1_555
C8A C9A 1_555 1_555
C10A C11A 1_555 1_555

#END
