
#######################################################################
#
#                 Cambridge Crystallographic Data Centre
#                                CCDC 
#
#######################################################################
#
# If this CIF has been generated from an entry in the Cambridge 
# Structural Database, then it will include bibliographic, chemical, 
# crystal, experimental, refinement or atomic coordinate data resulting 
# from the CCDC's data processing and validation procedures.
#
#######################################################################

data_PEZJOV
_symmetry_cell_setting           triclinic
_symmetry_space_group_name_H-M   'P -1'
_symmetry_Int_Tables_number      2
_space_group_name_Hall           '-P 1'
loop_
_symmetry_equiv_pos_site_id
_symmetry_equiv_pos_as_xyz
1 x,y,z
2 -x,-y,-z
_cell_length_a                   8.330(2)
_cell_length_b                   11.536(3)
_cell_length_c                   11.670(3)
_cell_angle_alpha                94.212(4)
_cell_angle_beta                 102.158(5)
_cell_angle_gamma                96.992(5)
_cell_volume                     1082.43
loop_
_atom_site_label
_atom_site_type_symbol
_atom_site_fract_x
_atom_site_fract_y
_atom_site_fract_z
Co1 Co 1.0000 1.0000 0.0000
O1 O 0.7461(6) 0.9784(5) -0.0379(4)
H1 H 0.7111 0.9185 -0.0120
H2 H 0.7134 1.0380 -0.0633
N1 N 0.9839(8) 0.8117(6) 0.0057(6)
N2 N 1.0049(9) 1.0141(6) 0.1948(6)
C1 C 0.8852(14) 0.7323(9) -0.0728(10)
H3 H 0.8074 0.7603 -0.1296
C2 C 0.8836(13) 0.6085(9) -0.0809(8)
H4 H 0.8102 0.5595 -0.1412
C3 C 0.9946(12) 0.5636(8) 0.0037(8)
C4 C 1.0892(13) 0.6431(8) 0.0904(9)
H5 H 1.1614 0.6173 0.1523
C5 C 1.0803(13) 0.7621(9) 0.0886(9)
H6 H 1.1479 0.8119 0.1510
C6 C 1.1436(11) 1.0381(8) 0.2808(7)
H7 H 1.2439 1.0598 0.2598
C7 C 1.1445(11) 1.0321(8) 0.3998(7)
H8 H 1.2445 1.0478 0.4552
C8 C 1.0007(10) 1.0036(7) 0.4361(6)
C9 C 0.8593(12) 0.9802(10) 0.3478(7)
H9 H 0.7572 0.9605 0.3669
C10 C 0.8666(13) 0.9856(10) 0.2322(7)
H10 H 0.7676 0.9680 0.1757
N1A N 1.0161(8) 0.1883(6) -0.0057(6)
C1A C 1.1148(14) 0.2677(9) 0.0728(10)
H3A H 1.1926 0.2397 0.1296
C2A C 1.1164(13) 0.3915(9) 0.0809(8)
H4A H 1.1898 0.4405 0.1412
C3A C 1.0054(12) 0.4364(8) -0.0037(8)
C4A C 0.9108(13) 0.3569(8) -0.0904(9)
H5A H 0.8386 0.3827 -0.1523
C5A C 0.9197(13) 0.2379(9) -0.0886(9)
H6A H 0.8521 0.1881 -0.1510
N2A N 0.9951(9) 0.9859(6) 0.8052(6)
C6A C 0.8564(11) 0.9619(8) 0.7192(7)
H7A H 0.7561 0.9402 0.7402
C7A C 0.8555(11) 0.9679(8) 0.6002(7)
H8A H 0.7555 0.9522 0.5448
C8A C 0.9993(10) 0.9964(7) 0.5639(6)
C9A C 1.1407(12) 1.0198(10) 0.6522(7)
H9A H 1.2428 1.0395 0.6331
C10A C 1.1334(13) 1.0144(10) 0.7678(7)
H10A H 1.2324 1.0320 0.8243
O1A O 1.2539(6) 1.0216(5) 0.0379(4)
H1A H 1.2889 1.0815 0.0120
H2A H 1.2866 0.9620 0.0633
Co1_2 Co 1.0000 0.0000 0.0000
Co1_3 Co 1.0000 1.0000 1.0000
N1A_2 N 1.0161(8) 1.1883(6) -0.0057(6)
N2A_2 N 0.9951(9) 0.9859(6) -0.1948(6)
S1 S 0.4315(4) 0.8350(3) 0.3598(3)
S2 S 0.4428(4) 0.8081(3) 0.5312(3)
O2 O 0.5536(10) 0.7930(7) 0.0175(7)
O3 O 0.4532(10) 0.8870(7) 0.1536(8)
O4 O 0.4777(13) 0.7985(8) 0.7539(7)
O5 O 0.2795(14) 0.7692(10) 0.8521(8)
C11 C 0.5242(12) 0.7000(9) 0.1862(10)
C12 C 0.5702(13) 0.5981(10) 0.1420(10)
H11 H 0.6011 0.5962 0.0699
C13 C 0.5720(17) 0.4995(11) 0.2007(12)
H12 H 0.6044 0.4322 0.1690
C14 C 0.5267(16) 0.5012(10) 0.3035(11)
H13 H 0.5250 0.4335 0.3421
C15 C 0.4822(13) 0.6006(10) 0.3545(10)
H14 H 0.4525 0.5993 0.4269
C16 C 0.4817(12) 0.7024(9) 0.2981(10)
C17 C 0.5145(13) 0.8011(11) 0.1144(11)
C18 C 0.2051(16) 0.7318(11) 0.6447(11)
C19 C 0.047(2) 0.6875(12) 0.6481(11)
H15 H 0.0223 0.6816 0.7216
C20 C -0.0781(17) 0.6507(12) 0.5494(14)
H16 H -0.1836 0.6199 0.5566
C21 C -0.0432(16) 0.6607(11) 0.4422(12)
H17 H -0.1248 0.6358 0.3743
C22 C 0.1167(14) 0.7086(9) 0.4336(10)
H18 H 0.1388 0.7166 0.3596
C23 C 0.2425(14) 0.7444(10) 0.5334(9)
C24 C 0.3331(18) 0.7725(11) 0.7596(11)
loop_
_geom_bond_atom_site_label_1
_geom_bond_atom_site_label_2
_geom_bond_site_symmetry_1
_geom_bond_site_symmetry_2
Co1 O1 1_555 1_555
O1 H1 1_555 1_555
H2 O1 1_555 1_555
N1 Co1 1_555 1_555
N2 Co1 1_555 1_555
C1 N1 1_555 1_555
H3 C1 1_555 1_555
C2 C1 1_555 1_555
H4 C2 1_555 1_555
C3 C2 1_555 1_555
C4 C3 1_555 1_555
H5 C4 1_555 1_555
C5 N1 1_555 1_555
H6 C5 1_555 1_555
C6 N2 1_555 1_555
H7 C6 1_555 1_555
C7 C6 1_555 1_555
H8 C7 1_555 1_555
C8 C7 1_555 1_555
C9 C8 1_555 1_555
H9 C9 1_555 1_555
C10 N2 1_555 1_555
H10 C10 1_555 1_555
S1 S2 1_555 1_555
S2 C23 1_555 1_555
O2 C17 1_555 1_555
O3 C17 1_555 1_555
O4 C24 1_555 1_555
O5 C24 1_555 1_555
C11 C12 1_555 1_555
C12 H11 1_555 1_555
C13 C12 1_555 1_555
H12 C13 1_555 1_555
C14 C13 1_555 1_555
H13 C14 1_555 1_555
C15 C14 1_555 1_555
H14 C15 1_555 1_555
C16 S1 1_555 1_555
C17 C11 1_555 1_555
C18 C19 1_555 1_555
C19 H15 1_555 1_555
C20 C19 1_555 1_555
H16 C20 1_555 1_555
C21 C20 1_555 1_555
H17 C21 1_555 1_555
C22 C21 1_555 1_555
H18 C22 1_555 1_555
C23 C18 1_555 1_555
C24 C18 1_555 1_555
N1A C1A 1_555 1_555
C1A H3A 1_555 1_555
C2A C1A 1_555 1_555
H4A C2A 1_555 1_555
C3A C3 1_555 1_555
C4A C3A 1_555 1_555
H5A C4A 1_555 1_555
C5A N1A 1_555 1_555
H6A C5A 1_555 1_555
N2A C6A 1_555 1_555
C6A H7A 1_555 1_555
C7A C6A 1_555 1_555
H8A C7A 1_555 1_555
C8A C8 1_555 1_555
C9A C8A 1_555 1_555
H9A C9A 1_555 1_555
C10A N2A 1_555 1_555
H10A C10A 1_555 1_555
O1A Co1 1_555 1_555
H1A O1A 1_555 1_555
H2A O1A 1_555 1_555
Co1_2 N1A 1_555 1_555
Co1_3 N2A 1_555 1_555
N1A_2 Co1 1_555 1_555
N2A_2 Co1 1_555 1_555
C4 C5 1_555 1_555
C9 C10 1_555 1_555
C11 C16 1_555 1_555
C15 C16 1_555 1_555
C22 C23 1_555 1_555
C2A C3A 1_555 1_555
C4A C5A 1_555 1_555
C7A C8A 1_555 1_555
C9A C10A 1_555 1_555

#END
