
#######################################################################
#
#                 Cambridge Crystallographic Data Centre
#                                CCDC 
#
#######################################################################
#
# If this CIF has been generated from an entry in the Cambridge 
# Structural Database, then it will include bibliographic, chemical, 
# crystal, experimental, refinement or atomic coordinate data resulting 
# from the CCDC's data processing and validation procedures.
#
#######################################################################

data_PEZPEQ
_symmetry_cell_setting           monoclinic
_symmetry_space_group_name_H-M   'P 21/a'
_symmetry_Int_Tables_number      14
_space_group_name_Hall           '-P 2yab'
loop_
_symmetry_equiv_pos_site_id
_symmetry_equiv_pos_as_xyz
1 x,y,z
2 1/2-x,1/2+y,-z
3 -x,-y,-z
4 1/2+x,1/2-y,z
_cell_length_a                   9.0702(10)
_cell_length_b                   8.1647(10)
_cell_length_c                   32.1279(10)
_cell_angle_alpha                90
_cell_angle_beta                 98.43(5)
_cell_angle_gamma                90
_cell_volume                     2353.54
loop_
_atom_site_label
_atom_site_type_symbol
_atom_site_fract_x
_atom_site_fract_y
_atom_site_fract_z
Mg1 Mg 1.13171(2) 0.65093(2) 0.936934(5)
O1 O 1.09411(3) 0.90762(4) 0.939557(9)
O2 O 0.97956(3) 0.64534(4) 0.980368(9)
O3 O 1.21749(3) 0.65129(4) 1.001755(9)
O4 O 0.94265(4) 0.59421(4) 0.895489(10)
O5 O 0.81559(4) 0.82479(5) 0.898625(11)
O6 O 1.18806(4) 0.38307(4) 0.922200(9)
O7 O 1.25734(3) 0.13908(5) 0.931480(11)
C1 C 0.84424(7) 0.69673(9) 0.87961(2)
C2 C 0.80729(5) 0.71916(6) 0.833079(17)
C3 C 0.80374(6) 0.56382(7) 0.808121(17)
C4 C 0.71193(5) 0.57622(6) 0.764860(18)
C5 C 0.77256(6) 0.48159(6) 0.730704(18)
C6 C 0.69471(6) 0.51809(6) 0.687519(19)
C7 C 0.73399(6) 0.40154(6) 0.655318(17)
C8 C 1.27521(7) 0.27214(8) 0.913840(18)
C9 C 1.38083(6) 0.26621(6) 0.881470(18)
C10 C 1.30708(5) 0.24417(6) 0.835570(15)
C11 C 1.35951(6) 0.35713(6) 0.802470(17)
C12 C 1.24786(6) 0.38452(6) 0.762040(17)
C13 C 1.30007(6) 0.49314(6) 0.727840(18)
C14 C 1.19698(6) 0.50071(6) 0.685380(17)
C15 C 0.63158(6) 0.41383(6) 0.614007(17)
C16 C 0.67903(5) 0.30965(6) 0.579464(16)
C17 C 0.55818(5) 0.27970(6) 0.541811(16)
C18 C 1.26978(6) 0.55330(6) 0.647390(16)
C19 C 1.16302(6) 0.61238(6) 0.608920(17)
C20 C 1.23329(6) 0.71730(6) 0.577980(15)
Mg1C Mg 0.63171(2) 0.84907(2) 0.936934(5)
O5C O 1.31559(4) 0.67521(5) 0.898625(11)
loop_
_geom_bond_atom_site_label_1
_geom_bond_atom_site_label_2
_geom_bond_site_symmetry_1
_geom_bond_site_symmetry_2
Mg1 O1 1_555 1_555
O2 Mg1 1_555 1_555
O3 Mg1 1_555 1_555
O4 Mg1 1_555 1_555
O5 C1 1_555 1_555
O6 Mg1 1_555 1_555
O7 C8 1_555 1_555
C1 O4 1_555 1_555
C2 C1 1_555 1_555
C3 C2 1_555 1_555
C4 C3 1_555 1_555
C5 C4 1_555 1_555
C6 C5 1_555 1_555
C7 C6 1_555 1_555
C8 O6 1_555 1_555
C9 C8 1_555 1_555
C10 C9 1_555 1_555
C11 C10 1_555 1_555
C12 C11 1_555 1_555
C13 C12 1_555 1_555
C14 C13 1_555 1_555
C15 C7 1_555 1_555
C16 C15 1_555 1_555
C17 C16 1_555 1_555
C18 C14 1_555 1_555
C19 C18 1_555 1_555
C20 C19 1_555 1_555
Mg1C O5 1_555 1_555
O5C Mg1 1_555 1_555

#END
