
#######################################################################
#
#                 Cambridge Crystallographic Data Centre
#                                CCDC 
#
#######################################################################
#
# If this CIF has been generated from an entry in the Cambridge 
# Structural Database, then it will include bibliographic, chemical, 
# crystal, experimental, refinement or atomic coordinate data resulting 
# from the CCDC's data processing and validation procedures.
#
#######################################################################

data_PEZPAM
_symmetry_cell_setting           monoclinic
_symmetry_space_group_name_H-M   'P 21/a'
_symmetry_Int_Tables_number      14
_space_group_name_Hall           '-P 2yab'
loop_
_symmetry_equiv_pos_site_id
_symmetry_equiv_pos_as_xyz
1 x,y,z
2 1/2-x,1/2+y,-z
3 -x,-y,-z
4 1/2+x,1/2-y,z
_cell_length_a                   9.050(5)
_cell_length_b                   8.295(5)
_cell_length_c                   25.163(5)
_cell_angle_alpha                90
_cell_angle_beta                 92.210(5)
_cell_angle_gamma                90
_cell_volume                     1887.58
loop_
_atom_site_label
_atom_site_type_symbol
_atom_site_fract_x
_atom_site_fract_y
_atom_site_fract_z
Mg1 Mg 0.95285(19) 0.6437(3) 0.90807(8)
O1 O 0.8843(4) 0.8827(6) 0.92401(18)
H1 H 0.934(5) 0.983(4) 0.922(2)
H2 H 0.821(5) 0.857(6) 0.8995(19)
O2 O 0.7765(4) 0.5660(5) 0.95753(16)
H3 H 0.714(4) 0.640(5) 0.9746(18)
H4 H 0.722(5) 0.502(6) 0.9363(19)
O3 O 1.0781(4) 0.6827(5) 0.98294(16)
H5 H 1.025(5) 0.721(6) 1.0126(14)
H6 H 1.124(5) 0.588(4) 0.9959(18)
O4 O 0.8150(4) 0.6338(5) 0.83958(15)
O5 O 0.6366(4) 0.7941(5) 0.86832(16)
C1 C 0.6887(7) 0.6911(8) 0.8344(2)
C2 C 0.5938(6) 0.6402(8) 0.7857(2)
H7 H 0.5306 0.7302 0.7754
H8 H 0.5299 0.5529 0.7962
C3 C 0.6773(6) 0.5843(8) 0.7356(2)
H9 H 0.7412 0.6713 0.7249
H10 H 0.7402 0.4937 0.7457
C4 C 0.5780(6) 0.5338(8) 0.6869(2)
H11 H 0.5120 0.6225 0.6778
H12 H 0.5174 0.4434 0.6971
C5 C 0.6611(6) 0.4855(9) 0.6362(2)
H13 H 0.7169 0.5784 0.6250
H14 H 0.7321 0.4021 0.6462
C6 C 0.5679(7) 0.4245(9) 0.5881(2)
H15 H 0.4960 0.5070 0.5783
H16 H 0.5135 0.3302 0.5990
C7 C 0.6533(8) 0.3793(10) 0.5375(3)
H17 H 0.7056 0.4721 0.5253
H18 H 0.5843 0.3436 0.5100
H19 H 0.7224 0.2945 0.5460
O6 O 1.0103(4) 0.4066(5) 0.90885(16)
O7 O 1.0728(4) 0.1475(6) 0.91788(18)
C8 C 1.0785(6) 0.2817(9) 0.8922(2)
C9 C 1.1671(6) 0.2963(9) 0.8410(2)
H20 H 1.2105 0.1920 0.8337
H21 H 1.2477 0.3715 0.8477
C10 C 1.0782(6) 0.3523(8) 0.7906(2)
H22 H 1.0121 0.2657 0.7794
H23 H 1.0173 0.4432 0.8002
C11 C 1.1705(6) 0.4028(8) 0.7421(2)
H24 H 1.2361 0.4900 0.7531
H25 H 1.2318 0.3122 0.7324
C12 C 1.0785(6) 0.4583(9) 0.6913(2)
H26 H 1.0173 0.5487 0.7011
H27 H 1.0126 0.3710 0.6805
C13 C 1.1669(7) 0.5086(9) 0.6425(2)
H28 H 1.2336 0.5952 0.6533
H29 H 1.2270 0.4178 0.6323
C14 C 1.0738(7) 0.5651(10) 0.5929(3)
H30 H 1.0147 0.6563 0.6021
H31 H 1.1386 0.5950 0.5653
H32 H 1.0104 0.4789 0.5806
Mg1C Mg 0.45285(19) 0.8563(3) 0.90807(8)
O5C O 1.1366(4) 0.7059(5) 0.86832(16)
loop_
_geom_bond_atom_site_label_1
_geom_bond_atom_site_label_2
_geom_bond_site_symmetry_1
_geom_bond_site_symmetry_2
Mg1 O1 1_555 1_555
O1 H1 1_555 1_555
H2 O1 1_555 1_555
O2 Mg1 1_555 1_555
H3 O2 1_555 1_555
H4 O2 1_555 1_555
O3 Mg1 1_555 1_555
H5 O3 1_555 1_555
H6 O3 1_555 1_555
O4 Mg1 1_555 1_555
O5 C1 1_555 1_555
C1 O4 1_555 1_555
C2 C1 1_555 1_555
H7 C2 1_555 1_555
H8 C2 1_555 1_555
C3 C2 1_555 1_555
H9 C3 1_555 1_555
H10 C3 1_555 1_555
C4 C3 1_555 1_555
H11 C4 1_555 1_555
H12 C4 1_555 1_555
C5 C4 1_555 1_555
H13 C5 1_555 1_555
H14 C5 1_555 1_555
C6 C5 1_555 1_555
H15 C6 1_555 1_555
H16 C6 1_555 1_555
C7 C6 1_555 1_555
H17 C7 1_555 1_555
H18 C7 1_555 1_555
H19 C7 1_555 1_555
O6 Mg1 1_555 1_555
O7 C8 1_555 1_555
C8 O6 1_555 1_555
C9 C8 1_555 1_555
H20 C9 1_555 1_555
H21 C9 1_555 1_555
C10 C9 1_555 1_555
H22 C10 1_555 1_555
H23 C10 1_555 1_555
C11 C10 1_555 1_555
H24 C11 1_555 1_555
H25 C11 1_555 1_555
C12 C11 1_555 1_555
H26 C12 1_555 1_555
H27 C12 1_555 1_555
C13 C12 1_555 1_555
H28 C13 1_555 1_555
H29 C13 1_555 1_555
C14 C13 1_555 1_555
H30 C14 1_555 1_555
H31 C14 1_555 1_555
H32 C14 1_555 1_555
Mg1C O5 1_555 1_555
O5C Mg1 1_555 1_555

#END
