
#######################################################################
#
#                 Cambridge Crystallographic Data Centre
#                                CCDC 
#
#######################################################################
#
# If this CIF has been generated from an entry in the Cambridge 
# Structural Database, then it will include bibliographic, chemical, 
# crystal, experimental, refinement or atomic coordinate data resulting 
# from the CCDC's data processing and validation procedures.
#
#######################################################################

data_PEZRAO
_symmetry_cell_setting           orthorhombic
_symmetry_space_group_name_H-M   'P 21 21 21'
_symmetry_Int_Tables_number      19
_space_group_name_Hall           'P 2ac 2ab'
loop_
_symmetry_equiv_pos_site_id
_symmetry_equiv_pos_as_xyz
1 x,y,z
2 1/2-x,-y,1/2+z
3 -x,1/2+y,1/2-z
4 1/2+x,1/2-y,-z
_cell_length_a                   8.2622(5)
_cell_length_b                   16.6244(10)
_cell_length_c                   18.2807(10)
_cell_angle_alpha                90
_cell_angle_beta                 90
_cell_angle_gamma                90
_cell_volume                     2510.93
loop_
_atom_site_label
_atom_site_type_symbol
_atom_site_fract_x
_atom_site_fract_y
_atom_site_fract_z
Zn1 Zn -0.04307(3) 0.185487(13) 0.896957(11)
S1 S 0.23947(7) 0.24911(3) 0.79717(3)
O1 O 0.08102(17) 0.19296(9) 0.99756(7)
O2 O 0.25411(18) 0.26587(9) 1.05984(7)
O3 O 0.0950(3) 0.54666(11) 0.96908(11)
O4 O 0.1352(2) 0.25058(10) 0.73372(8)
O5 O 0.3784(2) 0.30281(10) 0.79517(9)
N1 N 0.1336(2) 0.26371(9) 0.86833(8)
N2 N -0.1470(3) 0.52811(12) 0.91518(11)
H1 H -0.1707 0.5784 0.9178
H2 H -0.2144 0.4948 0.8959
N3 N -0.1655(2) 0.15469(11) 0.79930(10)
N4 N -0.0356(2) 0.05902(10) 0.89885(9)
C1 C 0.1831(2) 0.24892(13) 1.00073(12)
C2 C 0.2215(2) 0.29685(11) 0.93164(11)
H3 H 0.3372 0.2898 0.9218
C3 C 0.1919(3) 0.38757(13) 0.94060(13)
H4 H 0.2350 0.4046 0.9875
H5 H 0.2508 0.4160 0.9027
C4 C 0.0178(3) 0.41085(14) 0.93655(15)
H6 H -0.0403 0.3854 0.9764
H7 H -0.0275 0.3911 0.8910
C5 C -0.0070(3) 0.50195(14) 0.94079(12)
C6 C 0.3130(2) 0.14905(13) 0.80411(11)
C7 C 0.2415(3) 0.08777(14) 0.76409(13)
H8 H 0.1649 0.0998 0.7284
C8 C 0.2845(3) 0.00873(16) 0.77742(14)
H9 H 0.2367 -0.0321 0.7502
C9 C 0.3977(3) -0.01079(15) 0.83064(13)
C10 C 0.4728(3) 0.05149(16) 0.86886(13)
H10 H 0.5509 0.0396 0.9039
C11 C 0.4324(3) 0.13083(15) 0.85528(12)
H11 H 0.4848 0.1720 0.8803
C12 C 0.4398(5) -0.09731(17) 0.84743(18)
H12 H 0.4916 -0.1211 0.8057
H13 H 0.3428 -0.1266 0.8586
H14 H 0.5118 -0.0992 0.8886
C13 C -0.2322(3) 0.20681(15) 0.75180(13)
H15 H -0.2232 0.2616 0.7611
C14 C -0.3138(3) 0.18202(19) 0.68962(14)
H16 H -0.3581 0.2193 0.6574
C15 C -0.3275(4) 0.1009(2) 0.67669(16)
H17 H -0.3829 0.0826 0.6357
C16 C -0.2593(4) 0.04691(18) 0.72444(15)
H18 H -0.2674 -0.0081 0.7159
C17 C -0.1782(3) 0.07536(14) 0.78559(12)
C18 C -0.1031(3) 0.02194(13) 0.84079(12)
C19 C -0.1001(3) -0.06127(16) 0.83419(16)
H19 H -0.1473 -0.0861 0.7939
C20 C -0.0265(4) -0.10675(15) 0.88788(17)
H20 H -0.0236 -0.1625 0.8841
C21 C 0.0422(4) -0.06883(16) 0.94686(16)
H21 H 0.0917 -0.0983 0.9839
C22 C 0.0362(4) 0.01405(14) 0.95003(13)
H22 H 0.0844 0.0398 0.9896
Zn1C Zn 0.45693(3) 0.314513(13) 1.103043(11)
O2C O -0.24589(18) 0.23413(9) 0.94016(7)
O6 O 0.2383(3) 0.20341(13) 0.58535(13)
H23 H 0.331(2) 0.1867(17) 0.6035(15)
H24 H 0.259(5) 0.241(3) 0.552(3)
O7 O 0.6297(3) 0.39673(15) 0.86551(13)
H25 H 0.560(3) 0.3781(17) 0.8328(13)
H26 H 0.650(4) 0.3584(15) 0.8983(14)
O8 O 0.0723(5) 0.71199(15) 0.99149(18)
H27 H 0.099(5) 0.6610(12) 0.983(3)
H28 H -0.030(2) 0.723(2) 0.980(2)
loop_
_geom_bond_atom_site_label_1
_geom_bond_atom_site_label_2
_geom_bond_site_symmetry_1
_geom_bond_site_symmetry_2
Zn1 O1 1_555 1_555
S1 O4 1_555 1_555
O1 C1 1_555 1_555
O2 C1 1_555 1_555
O3 C5 1_555 1_555
O5 S1 1_555 1_555
O6 H23 1_555 1_555
O7 H25 1_555 1_555
O8 H27 1_555 1_555
N1 Zn1 1_555 1_555
N2 H1 1_555 1_555
H2 N2 1_555 1_555
N3 Zn1 1_555 1_555
N4 Zn1 1_555 1_555
C1 C2 1_555 1_555
C2 N1 1_555 1_555
H3 C2 1_555 1_555
C3 C2 1_555 1_555
H4 C3 1_555 1_555
H5 C3 1_555 1_555
C4 C3 1_555 1_555
H6 C4 1_555 1_555
H7 C4 1_555 1_555
C5 N2 1_555 1_555
C6 S1 1_555 1_555
C7 C6 1_555 1_555
H8 C7 1_555 1_555
C8 C7 1_555 1_555
H9 C8 1_555 1_555
C9 C8 1_555 1_555
C10 C9 1_555 1_555
H10 C10 1_555 1_555
C11 C6 1_555 1_555
H11 C11 1_555 1_555
C12 C9 1_555 1_555
H12 C12 1_555 1_555
H13 C12 1_555 1_555
H14 C12 1_555 1_555
C13 N3 1_555 1_555
H15 C13 1_555 1_555
C14 C13 1_555 1_555
H16 C14 1_555 1_555
C15 C14 1_555 1_555
H17 C15 1_555 1_555
C16 C15 1_555 1_555
H18 C16 1_555 1_555
C17 N3 1_555 1_555
C18 N4 1_555 1_555
C19 C18 1_555 1_555
H19 C19 1_555 1_555
C20 C19 1_555 1_555
H20 C20 1_555 1_555
C21 C20 1_555 1_555
H21 C21 1_555 1_555
C22 N4 1_555 1_555
H22 C22 1_555 1_555
H24 O6 1_555 1_555
H26 O7 1_555 1_555
H28 O8 1_555 1_555
Zn1C O2 1_555 1_555
O2C Zn1 1_555 1_555
S1 N1 1_555 1_555
C4 C5 1_555 1_555
C10 C11 1_555 1_555
C16 C17 1_555 1_555
C17 C18 1_555 1_555
C21 C22 1_555 1_555

#END
