
#######################################################################
#
#                 Cambridge Crystallographic Data Centre
#                                CCDC 
#
#######################################################################
#
# If this CIF has been generated from an entry in the Cambridge 
# Structural Database, then it will include bibliographic, chemical, 
# crystal, experimental, refinement or atomic coordinate data resulting 
# from the CCDC's data processing and validation procedures.
#
#######################################################################

data_PEZVEW
_symmetry_cell_setting           monoclinic
_symmetry_space_group_name_H-M   'P 21'
_symmetry_Int_Tables_number      4
_space_group_name_Hall           'P 2yb'
loop_
_symmetry_equiv_pos_site_id
_symmetry_equiv_pos_as_xyz
1 x,y,z
2 -x,1/2+y,-z
_cell_length_a                   13.5741(8)
_cell_length_b                   25.6666(16)
_cell_length_c                   14.1832(9)
_cell_angle_alpha                90
_cell_angle_beta                 112.2210(10)
_cell_angle_gamma                90
_cell_volume                     4574.45
loop_
_atom_site_label
_atom_site_type_symbol
_atom_site_fract_x
_atom_site_fract_y
_atom_site_fract_z
Mn1 Mn 0.21992(3) 0.961771(13) 0.94899(3)
Mn2 Mn -0.25187(3) 0.968870(13) 1.47572(2)
O1 O 0.26358(19) 1.03850(8) 1.00931(18)
O2 O 0.34271(18) 0.93258(9) 1.07288(16)
O3 O 0.1692(2) 0.88457(8) 0.89379(19)
O4 O 0.10084(17) 0.98951(9) 0.82019(16)
O5 O -0.38410(17) 0.98430(9) 1.34479(15)
O6 O -0.27672(19) 0.88843(8) 1.45108(19)
O7 O -0.12228(17) 0.95209(9) 1.60838(16)
O8 O -0.2282(2) 1.04811(9) 1.5110(2)
N1 N -0.14661(18) 0.96928(11) 1.38676(16)
N2 N 0.11515(17) 0.96278(9) 1.03599(15)
N3 N 0.33083(17) 0.96326(10) 0.86845(16)
N4 N 0.63761(16) 0.96848(10) 0.55761(15)
C1 C -0.1177(5) 1.01163(15) 1.3533(4)
H5 H -0.1336 1.0434 1.3758
C2 C -0.0653(5) 1.01263(14) 1.2868(4)
H6 H -0.0470 1.0445 1.2667
C3 C -0.04011(19) 0.96801(12) 1.25025(18)
C4 C -0.0657(5) 0.92371(15) 1.2875(4)
H7 H -0.0489 0.8915 1.2676
C5 C -0.1172(4) 0.92639(16) 1.3555(4)
H8 H -0.1319 0.8951 1.3807
C6 C 0.01263(19) 0.96624(11) 1.17576(18)
C7 C 0.0092(2) 1.00828(11) 1.1120(2)
H9 H -0.0272 1.0385 1.1153
C8 C 0.0601(2) 1.00496(11) 1.0438(2)
H10 H 0.0560 1.0333 1.0016
C9 C 0.1166(2) 0.92221(11) 1.0959(2)
H11 H 0.1526 0.8923 1.0903
C10 C 0.0677(2) 0.92228(11) 1.1654(2)
H12 H 0.0715 0.8930 1.2053
C11 C 0.3596(3) 1.00793(13) 0.8386(3)
H13 H 0.3374 1.0389 0.8584
C12 C 0.4208(3) 1.01092(12) 0.7797(3)
H14 H 0.4398 1.0433 0.7623
C13 C 0.45371(19) 0.96573(11) 0.74669(17)
C14 C 0.4263(3) 0.91948(12) 0.7802(3)
H15 H 0.4482 0.8879 0.7625
C15 C 0.3662(3) 0.92015(13) 0.8403(3)
H16 H 0.3496 0.8884 0.8623
C16 C 0.51538(18) 0.96647(11) 0.67946(17)
C17 C 0.5116(2) 1.00822(11) 0.6161(2)
H17 H 0.4681 1.0367 0.6134
C18 C 0.5726(2) 1.00753(11) 0.5571(2)
H18 H 0.5680 1.0358 0.5147
C19 C 0.6389(2) 0.92765(11) 0.6169(2)
H19 H 0.6820 0.8994 0.6172
C20 C 0.5800(2) 0.92512(11) 0.6773(2)
H20 H 0.5836 0.8957 0.7166
H69 H 0.333(5) 1.050(2) 1.026(4)
H70 H 0.233(3) 1.0675(14) 0.971(3)
H71 H 0.353(3) 0.9451(13) 1.138(3)
H72 H 0.366(3) 0.8939(18) 1.081(3)
H73 H 0.203(5) 0.854(3) 0.927(5)
H74 H 0.112(4) 0.8748(19) 0.830(4)
H75 H 0.102(3) 0.9765(17) 0.765(3)
H76 H 0.076(4) 1.024(2) 0.814(4)
H77 H -0.392(3) 0.9672(19) 1.291(3)
H78 H -0.428(3) 1.0167(18) 1.324(3)
H79 H -0.339(3) 0.8742(16) 1.386(3)
H80 H -0.223(5) 0.870(2) 1.487(4)
H81 H -0.075(5) 0.915(2) 1.631(4)
H82 H -0.131(3) 0.9591(16) 1.669(3)
H83 H -0.173(5) 1.065(2) 1.517(4)
H84 H -0.263(4) 1.0715(19) 1.481(3)
Mn2_2 Mn 0.74813(3) 0.968870(13) 0.47572(2)
N4_2 N -0.36239(16) 0.96848(10) 1.55761(15)
S1 S 0.39511(6) 0.77218(3) 0.66686(6)
O9 O 0.4462(2) 0.58340(9) 0.72160(19)
O10 O 0.3828(2) 0.62154(8) 0.56962(16)
O11 O 0.38416(19) 0.78431(9) 0.75967(19)
O12 O 0.34256(18) 0.80329(8) 0.57823(19)
O13 O 0.5037(3) 0.81648(13) 0.4558(2)
O14 O 0.4585(3) 0.73868(11) 0.4797(2)
N9 N 0.3598(2) 0.71286(9) 0.63867(19)
H1 H 0.3205 0.7052 0.5768
N10 N 0.5066(2) 0.77888(11) 0.5095(2)
C41 C 0.4099(2) 0.62136(11) 0.6643(2)
C42 C 0.3922(2) 0.67124(11) 0.7150(2)
H37 H 0.4590 0.6811 0.7699
C43 C 0.3081(3) 0.66147(16) 0.7594(3)
H38 H 0.3004 0.6920 0.7952
H39 H 0.3293 0.6326 0.8057
H40 H 0.2414 0.6537 0.7054
C44 C 0.5338(2) 0.77740(11) 0.6928(2)
C45 C 0.6039(3) 0.77969(12) 0.7933(2)
H41 H 0.5780 0.7767 0.8452
C46 C 0.7112(3) 0.78632(15) 0.8177(3)
H42 H 0.7575 0.7872 0.8856
C47 C 0.7502(3) 0.79172(14) 0.7414(3)
H43 H 0.8228 0.7964 0.7582
C48 C 0.6827(3) 0.79029(13) 0.6406(3)
H44 H 0.7085 0.7946 0.5890
C49 C 0.5761(2) 0.78240(11) 0.6181(2)
S2 S 0.94047(6) 0.66958(3) 0.61258(8)
O15 O 0.8727(2) 0.82216(11) 0.5561(2)
O16 O 0.9871(2) 0.85847(9) 0.6978(2)
O17 O 1.03857(19) 0.65320(10) 0.6877(3)
O18 O 0.9006(2) 0.64284(10) 0.5180(2)
O19 O 0.7073(3) 0.70554(12) 0.4674(2)
O20 O 0.6299(3) 0.63128(13) 0.4476(2)
N11 N 0.9502(2) 0.73025(10) 0.5906(2)
H2 H 0.9221 0.7411 0.5287
N12 N 0.6887(2) 0.66458(12) 0.5015(2)
C50 C 0.9506(3) 0.82112(12) 0.6394(3)
C51 C 1.0050(3) 0.76840(13) 0.6712(4)
H45 H 1.0000 0.7573 0.7354
C52 C 1.1205(4) 0.7729(2) 0.6849(8)
H46 H 1.1585 0.7426 0.7200
H47 H 1.1508 0.8035 0.7241
H48 H 1.1257 0.7754 0.6194
C53 C 0.8429(2) 0.66199(11) 0.6672(2)
C54 C 0.8785(3) 0.65544(13) 0.7721(3)
H49 H 0.9509 0.6574 0.8112
C55 C 0.8081(3) 0.64615(14) 0.8188(3)
H50 H 0.8329 0.6431 0.8893
C56 C 0.7006(3) 0.64133(14) 0.7617(3)
H51 H 0.6534 0.6347 0.7937
C57 C 0.6631(3) 0.64632(13) 0.6566(3)
H52 H 0.5910 0.6424 0.6175
C58 C 0.7339(2) 0.65708(11) 0.6112(2)
S3 S 0.37115(10) 0.65122(3) 0.06176(9)
O21 O 0.2865(2) 0.80120(10) -0.0061(2)
O22 O 0.4275(2) 0.83765(10) 0.1141(3)
O23 O 0.3029(4) 0.61854(10) -0.0179(3)
O24 O 0.4791(3) 0.63764(13) 0.1133(4)
O25 O 0.1348(3) 0.68988(12) -0.0266(2)
O26 O 0.0608(3) 0.61963(12) -0.0024(3)
N13 N 0.3684(3) 0.70882(10) 0.0175(2)
H3 H 0.3223 0.7159 -0.0422
N14 N 0.1292(3) 0.65326(12) 0.0251(3)
C59 C 0.3788(3) 0.80073(13) 0.0596(3)
C60 C 0.4410(3) 0.74969(13) 0.0744(3)
H53 H 0.4691 0.7406 0.1469
C61 C 0.5333(4) 0.75580(19) 0.0396(4)
H54 H 0.5693 0.7230 0.0459
H55 H 0.5820 0.7814 0.0811
H56 H 0.5068 0.7668 -0.0303
C62 C 0.3141(3) 0.65303(11) 0.1552(2)
C63 C 0.3805(3) 0.65094(14) 0.2580(3)
H57 H 0.4539 0.6515 0.2763
C64 C 0.3399(5) 0.64807(15) 0.3315(3)
H58 H 0.3857 0.6469 0.3996
C65 C 0.2328(5) 0.64695(15) 0.3072(4)
H59 H 0.2063 0.6457 0.3588
C66 C 0.1632(4) 0.64765(14) 0.2068(4)
H60 H 0.0901 0.6460 0.1898
C67 C 0.2054(3) 0.65097(11) 0.1318(3)
S4 S 0.86337(8) 0.77539(3) 0.16402(7)
O27 O 0.9200(2) 0.59037(9) 0.2311(2)
O28 O 0.8501(2) 0.62462(9) 0.07533(18)
O29 O 0.8442(3) 0.79040(11) 0.2524(2)
O30 O 0.8206(2) 0.80572(9) 0.0732(2)
O31 O 0.9372(2) 0.73545(10) -0.0078(2)
O32 O 1.0021(3) 0.80803(12) -0.0354(2)
N15 N 0.8241(2) 0.71695(10) 0.1366(2)
H4 H 0.7858 0.7090 0.0746
N16 N 0.9918(2) 0.77397(12) 0.0206(2)
C68 C 0.8763(3) 0.62622(12) 0.1699(3)
C69 C 0.8520(3) 0.67624(13) 0.2153(3)
H61 H 0.9157 0.6870 0.2732
C70 C 0.7617(5) 0.6660(2) 0.2525(4)
H62 H 0.7485 0.6969 0.2840
H63 H 0.7816 0.6380 0.3012
H64 H 0.6985 0.6565 0.1957
C71 C 1.0042(3) 0.77725(13) 0.2000(3)
C72 C 1.0686(4) 0.78021(15) 0.3028(3)
H65 H 1.0384 0.7786 0.3517
C73 C 1.1783(5) 0.78553(18) 0.3326(4)
H66 H 1.2206 0.7875 0.4016
C74 C 1.2250(4) 0.78799(17) 0.2625(4)
H67 H 1.2985 0.7912 0.2837
C75 C 1.1623(3) 0.78562(14) 0.1604(4)
H68 H 1.1927 0.7884 0.1118
C76 C 1.0543(3) 0.77918(12) 0.1308(3)
O33 O 0.6107(4) 0.82521(16) 0.2924(3)
H85 H 0.563(3) 0.8569(11) 0.282(3)
H86 H 0.565(10) 0.804(5) 0.238(14)
O34 O 0.0545(2) 0.60962(12) 0.4240(2)
H87 H 0.018(4) 0.627(2) 0.461(4)
H88 H -0.004(3) 0.604(2) 0.359(2)
O35 O 0.4486(3) 0.09233(16) 0.0711(3)
H89 H 0.496(4) 0.086(3) 0.139(2)
H90 H 0.486(7) 0.114(4) 0.041(6)
N5 N 0.6234(3) 0.95187(14) 1.1608(2)
N6 N 0.8534(2) 0.96984(14) 0.78952(19)
C21 C 0.6536(8) 0.9955(3) 1.1320(5)
H21 H 0.6435 1.0260 1.1626
C22 C 0.6994(7) 1.00032(19) 1.0600(5)
H22 H 0.7216 1.0327 1.0461
C23 C 0.7110(2) 0.95776(12) 1.0109(2)
C24 C 0.6827(6) 0.91365(17) 1.0402(5)
H23 H 0.6913 0.8825 1.0108
C25 C 0.6398(6) 0.91327(19) 1.1154(5)
H24 H 0.6216 0.8809 1.1335
C26 C 0.7609(2) 0.96164(12) 0.93438(19)
C27 C 0.7507(3) 1.00622(12) 0.8762(2)
H25 H 0.7129 1.0346 0.8855
C28 C 0.7963(3) 1.00848(14) 0.8051(3)
H26 H 0.7868 1.0385 0.7659
C29 C 0.8651(3) 0.92692(14) 0.8467(3)
H27 H 0.9051 0.8996 0.8368
C30 C 0.8216(3) 0.92109(13) 0.9188(2)
H28 H 0.8323 0.8906 0.9569
N7 N 0.1309(2) 0.96722(15) 0.6385(2)
N8 N 0.3594(2) 0.96221(13) 0.26429(19)
C31 C 0.1541(4) 0.92376(16) 0.6025(3)
H29 H 0.1390 0.8926 0.6276
C32 C 0.1990(4) 0.92103(14) 0.5304(3)
H30 H 0.2131 0.8888 0.5083
C33 C 0.2229(2) 0.96589(13) 0.49151(19)
C34 C 0.1989(3) 1.01167(15) 0.5283(3)
H31 H 0.2132 1.0434 0.5043
C35 C 0.1541(4) 1.01090(17) 0.6002(3)
H32 H 0.1390 1.0426 0.6236
C36 C 0.2729(2) 0.96557(13) 0.41501(19)
C37 C 0.3360(3) 0.92405(14) 0.4077(2)
H33 H 0.3506 0.8966 0.4538
C38 C 0.3764(3) 0.92375(15) 0.3328(3)
H34 H 0.4176 0.8955 0.3292
C39 C 0.3027(3) 1.00256(13) 0.2733(3)
H35 H 0.2913 1.0300 0.2276
C40 C 0.2598(3) 1.00593(12) 0.3467(2)
H36 H 0.2218 1.0355 0.3504
loop_
_geom_bond_atom_site_label_1
_geom_bond_atom_site_label_2
_geom_bond_site_symmetry_1
_geom_bond_site_symmetry_2
Mn1 O1 1_555 1_555
Mn2 O5 1_555 1_555
S1 O11 1_555 1_555
S2 O17 1_555 1_555
S3 O23 1_555 1_555
S4 O29 1_555 1_555
O1 H69 1_555 1_555
O2 Mn1 1_555 1_555
O3 Mn1 1_555 1_555
O4 Mn1 1_555 1_555
O5 H77 1_555 1_555
O6 Mn2 1_555 1_555
O7 Mn2 1_555 1_555
O8 Mn2 1_555 1_555
O9 C41 1_555 1_555
O10 C41 1_555 1_555
O12 S1 1_555 1_555
O13 N10 1_555 1_555
O14 N10 1_555 1_555
O15 C50 1_555 1_555
O16 C50 1_555 1_555
O18 S2 1_555 1_555
O19 N12 1_555 1_555
O20 N12 1_555 1_555
O21 C59 1_555 1_555
O22 C59 1_555 1_555
O24 S3 1_555 1_555
O25 N14 1_555 1_555
O26 N14 1_555 1_555
O27 C68 1_555 1_555
O28 C68 1_555 1_555
O30 S4 1_555 1_555
O31 N16 1_555 1_555
O32 N16 1_555 1_555
O33 H85 1_555 1_555
O34 H87 1_555 1_555
O35 H89 1_555 1_555
N1 Mn2 1_555 1_555
N2 Mn1 1_555 1_555
N3 Mn1 1_555 1_555
N4 C18 1_555 1_555
N5 C21 1_555 1_555
N6 C28 1_555 1_555
N7 C31 1_555 1_555
N8 C38 1_555 1_555
N9 S1 1_555 1_555
H1 N9 1_555 1_555
N10 C49 1_555 1_555
N11 S2 1_555 1_555
H2 N11 1_555 1_555
N12 C58 1_555 1_555
N13 S3 1_555 1_555
H3 N13 1_555 1_555
N14 C67 1_555 1_555
N15 S4 1_555 1_555
H4 N15 1_555 1_555
N16 C76 1_555 1_555
C1 N1 1_555 1_555
H5 C1 1_555 1_555
C2 C1 1_555 1_555
H6 C2 1_555 1_555
C3 C2 1_555 1_555
C4 C3 1_555 1_555
H7 C4 1_555 1_555
C5 N1 1_555 1_555
H8 C5 1_555 1_555
C6 C3 1_555 1_555
C7 C6 1_555 1_555
H9 C7 1_555 1_555
C8 N2 1_555 1_555
H10 C8 1_555 1_555
C9 N2 1_555 1_555
H11 C9 1_555 1_555
C10 C6 1_555 1_555
H12 C10 1_555 1_555
C11 N3 1_555 1_555
H13 C11 1_555 1_555
C12 C11 1_555 1_555
H14 C12 1_555 1_555
C13 C12 1_555 1_555
C14 C13 1_555 1_555
H15 C14 1_555 1_555
C15 N3 1_555 1_555
H16 C15 1_555 1_555
C16 C13 1_555 1_555
C17 C16 1_555 1_555
H17 C17 1_555 1_555
C18 C17 1_555 1_555
H18 C18 1_555 1_555
C19 N4 1_555 1_555
H19 C19 1_555 1_555
C20 C16 1_555 1_555
H20 C20 1_555 1_555
C21 H21 1_555 1_555
C22 C21 1_555 1_555
H22 C22 1_555 1_555
C23 C22 1_555 1_555
C24 C23 1_555 1_555
H23 C24 1_555 1_555
C25 N5 1_555 1_555
H24 C25 1_555 1_555
C26 C23 1_555 1_555
C27 C26 1_555 1_555
H25 C27 1_555 1_555
C28 C27 1_555 1_555
H26 C28 1_555 1_555
C29 N6 1_555 1_555
H27 C29 1_555 1_555
C30 C26 1_555 1_555
H28 C30 1_555 1_555
C31 H29 1_555 1_555
C32 C31 1_555 1_555
H30 C32 1_555 1_555
C33 C32 1_555 1_555
C34 C33 1_555 1_555
H31 C34 1_555 1_555
C35 N7 1_555 1_555
H32 C35 1_555 1_555
C36 C33 1_555 1_555
C37 C36 1_555 1_555
H33 C37 1_555 1_555
C38 C37 1_555 1_555
H34 C38 1_555 1_555
C39 N8 1_555 1_555
H35 C39 1_555 1_555
C40 C36 1_555 1_555
H36 C40 1_555 1_555
C41 C42 1_555 1_555
C42 N9 1_555 1_555
H37 C42 1_555 1_555
C43 C42 1_555 1_555
H38 C43 1_555 1_555
H39 C43 1_555 1_555
H40 C43 1_555 1_555
C44 S1 1_555 1_555
C45 C44 1_555 1_555
H41 C45 1_555 1_555
C46 C45 1_555 1_555
H42 C46 1_555 1_555
C47 C46 1_555 1_555
H43 C47 1_555 1_555
C48 C47 1_555 1_555
H44 C48 1_555 1_555
C49 C44 1_555 1_555
C50 C51 1_555 1_555
C51 N11 1_555 1_555
H45 C51 1_555 1_555
C52 C51 1_555 1_555
H46 C52 1_555 1_555
H47 C52 1_555 1_555
H48 C52 1_555 1_555
C53 S2 1_555 1_555
C54 C53 1_555 1_555
H49 C54 1_555 1_555
C55 C54 1_555 1_555
H50 C55 1_555 1_555
C56 C55 1_555 1_555
H51 C56 1_555 1_555
C57 C56 1_555 1_555
H52 C57 1_555 1_555
C58 C53 1_555 1_555
C59 C60 1_555 1_555
C60 N13 1_555 1_555
H53 C60 1_555 1_555
C61 C60 1_555 1_555
H54 C61 1_555 1_555
H55 C61 1_555 1_555
H56 C61 1_555 1_555
C62 S3 1_555 1_555
C63 C62 1_555 1_555
H57 C63 1_555 1_555
C64 C63 1_555 1_555
H58 C64 1_555 1_555
C65 C64 1_555 1_555
H59 C65 1_555 1_555
C66 C65 1_555 1_555
H60 C66 1_555 1_555
C67 C62 1_555 1_555
C68 C69 1_555 1_555
C69 N15 1_555 1_555
H61 C69 1_555 1_555
C70 C69 1_555 1_555
H62 C70 1_555 1_555
H63 C70 1_555 1_555
H64 C70 1_555 1_555
C71 S4 1_555 1_555
C72 C71 1_555 1_555
H65 C72 1_555 1_555
C73 C72 1_555 1_555
H66 C73 1_555 1_555
C74 C73 1_555 1_555
H67 C74 1_555 1_555
C75 C74 1_555 1_555
H68 C75 1_555 1_555
C76 C71 1_555 1_555
H70 O1 1_555 1_555
H71 O2 1_555 1_555
H72 O2 1_555 1_555
H73 O3 1_555 1_555
H74 O3 1_555 1_555
H75 O4 1_555 1_555
H76 O4 1_555 1_555
H78 O5 1_555 1_555
H79 O6 1_555 1_555
H80 O6 1_555 1_555
H81 O7 1_555 1_555
H82 O7 1_555 1_555
H83 O8 1_555 1_555
H84 O8 1_555 1_555
H86 O33 1_555 1_555
H88 O34 1_555 1_555
H90 O35 1_555 1_555
Mn2_2 N4 1_555 1_555
N4_2 Mn2 1_555 1_555
C4 C5 1_555 1_555
C7 C8 1_555 1_555
C9 C10 1_555 1_555
C14 C15 1_555 1_555
C19 C20 1_555 1_555
C24 C25 1_555 1_555
C29 C30 1_555 1_555
C34 C35 1_555 1_555
C39 C40 1_555 1_555
C48 C49 1_555 1_555
C57 C58 1_555 1_555
C66 C67 1_555 1_555
C75 C76 1_555 1_555

#END
