
#######################################################################
#
#                 Cambridge Crystallographic Data Centre
#                                CCDC 
#
#######################################################################
#
# If this CIF has been generated from an entry in the Cambridge 
# Structural Database, then it will include bibliographic, chemical, 
# crystal, experimental, refinement or atomic coordinate data resulting 
# from the CCDC's data processing and validation procedures.
#
#######################################################################

data_PEZWAU
_symmetry_cell_setting           monoclinic
_symmetry_space_group_name_H-M   'P 21/c'
_symmetry_Int_Tables_number      14
_space_group_name_Hall           '-P 2ybc'
loop_
_symmetry_equiv_pos_site_id
_symmetry_equiv_pos_as_xyz
1 x,y,z
2 -x,1/2+y,1/2-z
3 -x,-y,-z
4 x,1/2-y,1/2+z
_cell_length_a                   8.9822(8)
_cell_length_b                   26.469(2)
_cell_length_c                   11.0259(7)
_cell_angle_alpha                90
_cell_angle_beta                 119.252(5)
_cell_angle_gamma                90
_cell_volume                     2287.12
loop_
_atom_site_label
_atom_site_type_symbol
_atom_site_fract_x
_atom_site_fract_y
_atom_site_fract_z
C1 C 1.0240(4) 0.84010(12) 0.4850(3)
C2 C 1.5185(4) 0.83550(12) 0.9734(3)
C3 C 1.3912(4) 0.86472(11) 0.8472(3)
C4 C 1.2803(4) 0.84058(11) 0.7231(3)
H1 H 1.2900 0.8059 0.7150
C5 C 1.1559(4) 0.86733(12) 0.6117(3)
C6 C 1.1473(4) 0.91967(12) 0.6208(3)
H2 H 1.0653 0.9380 0.5461
C7 C 1.2618(4) 0.94410(12) 0.7418(3)
C8 C 1.3813(4) 0.91729(11) 0.8559(3)
H3 H 1.4546 0.9341 0.9377
C9 C 0.9389(5) 0.68829(12) 0.3053(4)
H4 H 1.0384 0.7008 0.3796
C10 C 0.6922(5) 0.68541(12) 0.1351(4)
H5 H 0.5834 0.6937 0.0649
C11 C 0.6896(5) 0.59420(13) 0.0732(4)
H6 H 0.7447 0.5888 0.0174
H7 H 0.5688 0.5993 0.0102
C12 C 0.7129(5) 0.54763(12) 0.1598(4)
C13 C 0.7067(5) 0.54885(13) 0.2827(4)
H8 H 0.6866 0.5794 0.3140
C14 C 0.7298(6) 0.50555(14) 0.3597(5)
H9 H 0.7261 0.5074 0.4424
C15 C 0.7581(4) 0.45947(12) 0.3157(4)
C16 C 0.7613(6) 0.45799(13) 0.1926(4)
H10 H 0.7777 0.4273 0.1599
C17 C 0.7402(6) 0.50161(13) 0.1163(4)
H11 H 0.7448 0.4997 0.0339
C18 C 0.7812(6) 0.41331(13) 0.4047(4)
H12 H 0.8546 0.4220 0.5017
H13 H 0.6712 0.4034 0.3935
C19 C 0.8710(7) 0.30217(16) 0.2860(7)
H14 H 0.8419 0.2709 0.2422
C20 C 1.0105(5) 0.36455(14) 0.3864(4)
H15 H 1.0977 0.3881 0.4295
Cd1 Cd 0.77181(3) 0.802034(8) 0.23776(2)
I1 I 1.25199(3) 1.023536(8) 0.75309(2)
N1 N 0.8027(4) 0.71769(10) 0.2281(3)
N2 N 0.9212(4) 0.64086(11) 0.2683(3)
N3 N 0.7601(4) 0.63975(10) 0.1574(3)
N4 N 0.8554(4) 0.37054(10) 0.3692(3)
N5 N 0.7617(5) 0.32996(14) 0.3026(5)
N6 N 1.0267(4) 0.32166(11) 0.3359(3)
O1 O 0.8991(3) 0.86552(9) 0.3972(2)
O2 O 1.0399(3) 0.79420(9) 0.4710(3)
O3 O 1.5397(3) 0.78957(9) 0.9638(2)
O4 O 1.5942(3) 0.85967(9) 1.0853(2)
O5 O 0.5660(4) 0.78477(11) 0.3016(3)
H16 H 0.5616 0.7579 0.3427
H17 H 0.4663 0.7909 0.2346
Cd1_2 Cd 1.77181(3) 0.802034(8) 1.23776(2)
Cd1A Cd 1.22819(3) 0.302034(8) 0.26224(2)
N6A N 0.9733(4) 0.82166(11) 0.1641(3)
O3_2 O 0.5397(3) 0.78957(9) -0.0362(2)
O4_2 O 0.5942(3) 0.85967(9) 0.0853(2)
loop_
_geom_bond_atom_site_label_1
_geom_bond_atom_site_label_2
_geom_bond_site_symmetry_1
_geom_bond_site_symmetry_2
C1 C5 1_555 1_555
C2 C3 1_555 1_555
C3 C4 1_555 1_555
C4 H1 1_555 1_555
C5 C4 1_555 1_555
C6 C5 1_555 1_555
H2 C6 1_555 1_555
C7 C6 1_555 1_555
C8 C3 1_555 1_555
H3 C8 1_555 1_555
C9 H4 1_555 1_555
C10 H5 1_555 1_555
C11 H6 1_555 1_555
H7 C11 1_555 1_555
C12 C11 1_555 1_555
C13 C12 1_555 1_555
H8 C13 1_555 1_555
C14 C13 1_555 1_555
H9 C14 1_555 1_555
C15 C14 1_555 1_555
C16 C15 1_555 1_555
H10 C16 1_555 1_555
C17 C12 1_555 1_555
H11 C17 1_555 1_555
C18 C15 1_555 1_555
H12 C18 1_555 1_555
H13 C18 1_555 1_555
C19 H14 1_555 1_555
C20 H15 1_555 1_555
Cd1 N1 1_555 1_555
I1 C7 1_555 1_555
N1 C9 1_555 1_555
N2 C9 1_555 1_555
N3 C10 1_555 1_555
N4 C18 1_555 1_555
N5 C19 1_555 1_555
N6 C19 1_555 1_555
O1 C1 1_555 1_555
O2 C1 1_555 1_555
O3 C2 1_555 1_555
O4 C2 1_555 1_555
O5 Cd1 1_555 1_555
H16 O5 1_555 1_555
H17 O5 1_555 1_555
Cd1_2 O3 1_555 1_555
Cd1A N6 1_555 1_555
N6A Cd1 1_555 1_555
O3_2 Cd1 1_555 1_555
O4_2 Cd1 1_555 1_555
C7 C8 1_555 1_555
C10 N1 1_555 1_555
C11 N3 1_555 1_555
C16 C17 1_555 1_555
C20 N4 1_555 1_555
C20 N6 1_555 1_555
Cd1 O1 1_555 1_555
Cd1 O2 1_555 1_555
N2 N3 1_555 1_555
N4 N5 1_555 1_555
O4 Cd1_2 1_555 1_555

#END
