
#######################################################################
#
#                 Cambridge Crystallographic Data Centre
#                                CCDC 
#
#######################################################################
#
# If this CIF has been generated from an entry in the Cambridge 
# Structural Database, then it will include bibliographic, chemical, 
# crystal, experimental, refinement or atomic coordinate data resulting 
# from the CCDC's data processing and validation procedures.
#
#######################################################################

data_PEZWEY
_symmetry_cell_setting           triclinic
_symmetry_space_group_name_H-M   'P -1'
_symmetry_Int_Tables_number      2
_space_group_name_Hall           '-P 1'
loop_
_symmetry_equiv_pos_site_id
_symmetry_equiv_pos_as_xyz
1 x,y,z
2 -x,-y,-z
_cell_length_a                   10.3338(16)
_cell_length_b                   10.7432(16)
_cell_length_c                   14.173(2)
_cell_angle_alpha                71.448(2)
_cell_angle_beta                 86.073(2)
_cell_angle_gamma                73.862(2)
_cell_volume                     1432.57
loop_
_atom_site_label
_atom_site_type_symbol
_atom_site_fract_x
_atom_site_fract_y
_atom_site_fract_z
C1 C 0.8631(9) -0.2306(10) 0.9963(7)
C2 C 1.3551(9) -0.2354(9) 1.0043(7)
C3 C 0.9791(8) -0.2041(9) 1.0390(7)
C4 C 1.1089(8) -0.2324(9) 1.0032(7)
H1 H 1.1260 -0.2705 0.9517
C5 C 1.2123(8) -0.2056(8) 1.0416(6)
C6 C 1.1859(9) -0.1459(9) 1.1209(7)
H2 H 1.2535 -0.1246 1.1478
C7 C 1.0573(9) -0.1219(10) 1.1552(7)
C8 C 0.9534(8) -0.1452(9) 1.1130(7)
H3 H 0.8659 -0.1207 1.1350
H4 H 0.1518 0.3662 0.2280
C9 C 0.4713(9) 0.0493(10) 0.8393(7)
H5 H 0.4155 0.0518 0.8935
C10 C 0.6175(11) -0.0117(14) 0.7404(8)
H6 H 0.6852 -0.0663 0.7130
C11 C 0.3981(12) 0.2964(11) 0.7424(8)
H7 H 0.4594 0.3487 0.7462
H8 H 0.3321 0.3030 0.7940
C12 C 0.3265(11) 0.3585(11) 0.6422(8)
C13 C 0.2383(12) 0.3003(13) 0.6152(9)
H9 H 0.2217 0.2219 0.6596
C14 C 0.1737(11) 0.3564(13) 0.5228(9)
H10 H 0.1136 0.3157 0.5065
C15 C 0.3461(14) 0.4746(13) 0.5765(8)
H11 H 0.4009 0.5194 0.5944
C16 C 0.1966(11) 0.4695(11) 0.4560(7)
C17 C 0.2849(14) 0.5271(13) 0.4823(9)
H12 H 0.3045 0.6029 0.4364
C18 C 0.1344(13) 0.5230(14) 0.3504(8)
H13 H 0.0569 0.4886 0.3507
H14 H 0.1035 0.6218 0.3301
C19 C 0.2224(10) 0.4062(14) 0.2254(9)
C20 C 0.4018(11) 0.4657(11) 0.1900(8)
Cd1 Cd 0.62284(6) -0.27544(7) 0.94832(5)
I1 I 1.01338(7) -0.03138(9) 1.27000(6)
N1 N 0.5606(8) -0.0616(9) 0.8290(6)
N2 N 0.4740(8) 0.1536(8) 0.7619(6)
N3 N 0.5692(10) 0.1192(11) 0.6970(7)
N4 N 0.2295(8) 0.4820(9) 0.2798(6)
N5 N 0.3415(10) 0.5231(9) 0.2584(7)
N6 N 0.3285(8) 0.3917(9) 0.1669(6)
O1 O 0.7503(6) -0.2040(7) 1.0345(5)
O2 O 0.8822(6) -0.2784(8) 0.9240(6)
O3 O 1.4391(6) -0.1929(7) 1.0365(5)
O4 O 1.3844(6) -0.3043(7) 0.9448(5)
O5 O 0.6778(6) -0.4798(7) 1.0758(5)
H15 H 0.7495 -0.4853 1.1051
H16 H 0.6990 -0.5155 1.0292
Cd1_2 Cd 1.62284(6) -0.27544(7) 0.94832(5)
Cd1A Cd 0.37716(6) 0.27544(7) 0.05168(5)
N6A N 0.6715(8) -0.3917(9) 0.8331(6)
O3_2 O 0.4391(6) -0.1929(7) 1.0365(5)
O4_2 O 0.3844(6) -0.3043(7) 0.9448(5)
O6 O 0.9240(9) 0.4299(14) 0.1655(10)
H17 H 0.9496 0.4973 0.1273
H18 H 0.9875 0.3571 0.1727
loop_
_geom_bond_atom_site_label_1
_geom_bond_atom_site_label_2
_geom_bond_site_symmetry_1
_geom_bond_site_symmetry_2
C1 C3 1_555 1_555
C2 C5 1_555 1_555
C3 C4 1_555 1_555
C4 H1 1_555 1_555
C5 C4 1_555 1_555
C6 C5 1_555 1_555
H2 C6 1_555 1_555
C7 C6 1_555 1_555
C8 C3 1_555 1_555
H3 C8 1_555 1_555
H4 C19 1_555 1_555
C9 H5 1_555 1_555
C10 H6 1_555 1_555
C11 H7 1_555 1_555
H8 C11 1_555 1_555
C12 C11 1_555 1_555
C13 C12 1_555 1_555
H9 C13 1_555 1_555
C14 C13 1_555 1_555
H10 C14 1_555 1_555
C15 C12 1_555 1_555
H11 C15 1_555 1_555
C16 C14 1_555 1_555
C17 C15 1_555 1_555
H12 C17 1_555 1_555
C18 C16 1_555 1_555
H13 C18 1_555 1_555
H14 C18 1_555 1_555
C19 N4 1_555 1_555
C20 N5 1_555 1_555
Cd1 N1 1_555 1_555
I1 C7 1_555 1_555
N1 C9 1_555 1_555
N2 C9 1_555 1_555
N3 C10 1_555 1_555
N4 C18 1_555 1_555
N5 N4 1_555 1_555
N6 C19 1_555 1_555
O1 C1 1_555 1_555
O2 C1 1_555 1_555
O3 C2 1_555 1_555
O4 C2 1_555 1_555
O5 Cd1 1_555 1_555
H15 O5 1_555 1_555
H16 O5 1_555 1_555
O6 H17 1_555 1_555
H18 O6 1_555 1_555
Cd1_2 O3 1_555 1_555
Cd1A N6 1_555 1_555
N6A Cd1 1_555 1_555
O3_2 Cd1 1_555 1_555
O4_2 Cd1 1_555 1_555
C7 C8 1_555 1_555
C10 N1 1_555 1_555
C11 N2 1_555 1_555
C16 C17 1_555 1_555
C20 N6 1_555 1_555
Cd1 O1 1_555 1_555
Cd1 O2 1_555 1_555
N2 N3 1_555 1_555
O4 Cd1_2 1_555 1_555

#END
