
#######################################################################
#
#                 Cambridge Crystallographic Data Centre
#                                CCDC 
#
#######################################################################
#
# If this CIF has been generated from an entry in the Cambridge 
# Structural Database, then it will include bibliographic, chemical, 
# crystal, experimental, refinement or atomic coordinate data resulting 
# from the CCDC's data processing and validation procedures.
#
#######################################################################

data_PEZWOI
_symmetry_cell_setting           monoclinic
_symmetry_space_group_name_H-M   'C 2/c'
_symmetry_Int_Tables_number      15
_space_group_name_Hall           '-C 2yn'
loop_
_symmetry_equiv_pos_site_id
_symmetry_equiv_pos_as_xyz
1 x,y,z
2 -x,y,1/2-z
3 1/2+x,1/2+y,z
4 1/2-x,1/2+y,1/2-z
5 -x,-y,-z
6 x,-y,1/2+z
7 1/2-x,1/2-y,-z
8 1/2+x,1/2-y,1/2+z
_cell_length_a                   21.071(2)
_cell_length_b                   10.4609(11)
_cell_length_c                   20.255(2)
_cell_angle_alpha                90
_cell_angle_beta                 120.0380(10)
_cell_angle_gamma                90
_cell_volume                     3865.01
loop_
_atom_site_label
_atom_site_type_symbol
_atom_site_fract_x
_atom_site_fract_y
_atom_site_fract_z
C1 C 1.12005(17) 0.1885(3) 0.37275(17)
C2 C 1.12082(16) 0.6750(3) 0.36952(17)
C3 C 1.10934(15) 0.5468(2) 0.33008(16)
C4 C 1.08641(16) 0.5447(3) 0.25281(16)
H1 H 1.0781 0.6209 0.2260
C5 C 1.07596(16) 0.4287(3) 0.21563(15)
C6 C 1.08740(16) 0.3137(3) 0.25433(16)
H2 H 1.0804 0.2366 0.2288
C7 C 1.10954(15) 0.3147(3) 0.33193(16)
C8 C 1.12089(16) 0.4317(3) 0.36958(16)
H3 H 1.1363 0.4330 0.4214
C9 C 0.9827(2) -0.1765(4) 0.4175(2)
H4 H 1.0096 -0.2215 0.4628
C10 C 0.95714(18) -0.0534(3) 0.32715(18)
H5 H 0.9599 0.0043 0.2937
C11 C 0.82172(18) -0.0875(4) 0.25146(18)
H6 H 0.8107 -0.1563 0.2152
H7 H 0.8206 -0.0079 0.2263
C12 C 0.76452(19) -0.0834(4) 0.27332(19)
H8 H 0.7185 -0.0573 0.2295
H9 H 0.7579 -0.1687 0.2878
C13 C 0.79607(17) -0.0254(3) 0.40526(17)
H10 H 0.7916 -0.1070 0.4207
C14 C 0.8148(2) 0.1711(3) 0.4026(2)
H11 H 0.8264 0.2557 0.4179
Cd1 Cd 1.136291(12) -0.072041(19) 0.421137(11)
I1 I 1.041926(14) 0.42743(2) 0.098829(12)
N1 N 1.01415(15) -0.0935(2) 0.39153(15)
N2 N 0.91127(17) -0.1893(3) 0.37408(18)
N3 N 0.89559(14) -0.1065(3) 0.31661(15)
N4 N 0.78250(14) 0.0043(3) 0.33651(14)
N5 N 0.7944(2) 0.1317(3) 0.33273(17)
N6 N 0.81711(15) 0.0772(2) 0.44976(15)
O1 O 1.10419(13) 0.08832(18) 0.33342(13)
O2 O 1.14405(15) 0.1872(2) 0.44313(13)
O3 O 1.14159(13) 0.6788(2) 0.43957(12)
O4 O 1.10830(13) 0.7731(2) 0.32976(12)
O5 O 1.25268(12) -0.0581(2) 0.43705(12)
H12 H 1.2814 -0.0970 0.4777
H13 H 1.2691 0.0152 0.4359
Cd1_2 Cd 1.136291(12) 0.927959(19) 0.421137(11)
Cd1D Cd 0.863709(12) 0.072041(19) 0.578863(11)
N6D N 1.18289(15) -0.0772(2) 0.55024(15)
O3_2 O 1.14159(13) -0.3212(2) 0.43957(12)
O4_2 O 1.10830(13) -0.2269(2) 0.32976(12)
H14 H 0.8483 0.6818 0.4169
H15 H 0.8282 0.7084 0.4689
O6 O 0.81730(17) 0.6642(3) 0.42996(16)
loop_
_geom_bond_atom_site_label_1
_geom_bond_atom_site_label_2
_geom_bond_site_symmetry_1
_geom_bond_site_symmetry_2
C1 C7 1_555 1_555
C2 C3 1_555 1_555
C3 C4 1_555 1_555
C4 H1 1_555 1_555
C5 C4 1_555 1_555
C6 C5 1_555 1_555
H2 C6 1_555 1_555
C7 C6 1_555 1_555
C8 C3 1_555 1_555
H3 C8 1_555 1_555
C9 H4 1_555 1_555
C10 H5 1_555 1_555
C11 H6 1_555 1_555
H7 C11 1_555 1_555
C12 C11 1_555 1_555
H8 C12 1_555 1_555
H9 C12 1_555 1_555
C13 H10 1_555 1_555
C14 H11 1_555 1_555
Cd1 N1 1_555 1_555
I1 C5 1_555 1_555
N1 C9 1_555 1_555
N2 C9 1_555 1_555
N3 C10 1_555 1_555
N4 C12 1_555 1_555
N5 C14 1_555 1_555
N6 C13 1_555 1_555
O1 C1 1_555 1_555
O2 C1 1_555 1_555
O3 C2 1_555 1_555
O4 C2 1_555 1_555
O5 Cd1 1_555 1_555
H12 O5 1_555 1_555
H13 O5 1_555 1_555
H14 O6 1_555 1_555
H15 O6 1_555 1_555
Cd1_2 O3 1_555 1_555
Cd1D N6 1_555 1_555
N6D Cd1 1_555 1_555
O3_2 Cd1 1_555 1_555
O4_2 Cd1 1_555 1_555
C7 C8 1_555 1_555
C10 N1 1_555 1_555
C11 N3 1_555 1_555
C13 N4 1_555 1_555
C14 N6 1_555 1_555
Cd1 O1 1_555 1_555
Cd1 O2 1_555 1_555
N2 N3 1_555 1_555
N4 N5 1_555 1_555
O4 Cd1_2 1_555 1_555

#END
