
#######################################################################
#
#                 Cambridge Crystallographic Data Centre
#                                CCDC 
#
#######################################################################
#
# If this CIF has been generated from an entry in the Cambridge 
# Structural Database, then it will include bibliographic, chemical, 
# crystal, experimental, refinement or atomic coordinate data resulting 
# from the CCDC's data processing and validation procedures.
#
#######################################################################

data_PEZWOI01
_symmetry_cell_setting           monoclinic
_symmetry_space_group_name_H-M   'C 2/c'
_symmetry_Int_Tables_number      15
_space_group_name_Hall           '-C 2yn'
loop_
_symmetry_equiv_pos_site_id
_symmetry_equiv_pos_as_xyz
1 x,y,z
2 -x,y,1/2-z
3 1/2+x,1/2+y,z
4 1/2-x,1/2+y,1/2-z
5 -x,-y,-z
6 x,-y,1/2+z
7 1/2-x,1/2-y,-z
8 1/2+x,1/2-y,1/2+z
_cell_length_a                   21.049(4)
_cell_length_b                   10.4209(17)
_cell_length_c                   20.232(4)
_cell_angle_alpha                90
_cell_angle_beta                 120.052(4)
_cell_angle_gamma                90
_cell_volume                     3841.3
loop_
_atom_site_label
_atom_site_type_symbol
_atom_site_fract_x
_atom_site_fract_y
_atom_site_fract_z
Cd1 Cd 0.13624(2) 0.42784(5) 0.42109(2)
I1 I 0.04172(3) -0.07263(6) 0.09874(3)
O1 O 0.1087(3) 0.2729(5) 0.3300(3)
O2 O 0.1416(3) 0.1795(5) 0.4392(3)
O3 O 0.1437(3) -0.3139(6) 0.4432(3)
O4 O 0.1043(3) -0.4122(5) 0.3341(3)
O5 O 0.2529(3) 0.4421(5) 0.4377(3)
H1 H 0.289(3) 0.420(6) 0.484(2)
H2 H 0.254(3) 0.527(2) 0.437(4)
N1 N 0.2175(3) 0.4969(7) 0.6627(3)
N2 N 0.2062(4) 0.3675(9) 0.6673(4)
N3 N 0.1832(3) 0.4227(6) 0.5507(3)
N4 N 0.1042(3) 0.6071(7) 0.6829(3)
N5 N 0.0885(3) 0.6911(8) 0.6256(4)
N6 N -0.0142(3) 0.5942(6) 0.6090(3)
C1 C 0.2363(4) 0.5836(10) 0.7269(4)
H3 H 0.2440 0.6701 0.7133
H4 H 0.2824 0.5552 0.7711
C2 C 0.1781(4) 0.5880(10) 0.7480(4)
H5 H 0.1790 0.5075 0.7735
H6 H 0.1891 0.6579 0.7846
C3 C 0.1848(5) 0.3280(9) 0.5972(4)
H7 H 0.1720 0.2425 0.5812
C4 C 0.2050(4) 0.5260(9) 0.5950(4)
H8 H 0.2105 0.6083 0.5794
C5 C 0.0178(5) 0.6782(10) 0.5830(5)
H9 H -0.0095 0.7239 0.5371
C6 C 0.0434(4) 0.5536(8) 0.6727(4)
H10 H 0.0412 0.4941 0.7064
C7 C 0.1095(3) 0.0474(7) 0.3299(4)
C8 C 0.1208(3) -0.0685(7) 0.3694(3)
H11 H 0.1359 -0.0674 0.4217
C9 C 0.1096(3) -0.1850(7) 0.3318(3)
C10 C 0.0870(3) -0.1860(7) 0.2537(3)
H12 H 0.0798 -0.2643 0.2278
C11 C 0.0753(4) -0.0708(7) 0.2150(4)
C12 C 0.0857(4) 0.0438(7) 0.2523(4)
H13 H 0.0767 0.1210 0.2250
C13 C 0.1202(3) 0.1743(7) 0.3690(3)
C14 C 0.1191(4) -0.3113(7) 0.3715(4)
Cd1_2 Cd 0.13624(2) -0.57216(5) 0.42109(2)
Cd1D Cd -0.13624(2) 0.57216(5) 0.57891(2)
O3_2 O 0.1437(3) 0.6861(6) 0.4432(3)
O4_2 O 0.1043(3) 0.5878(5) 0.3341(3)
N6D N 0.0142(3) 0.4058(6) 0.3910(3)
O6 O 0.3190(4) 0.6638(7) 0.4311(4)
H14 H 0.339(3) 0.716(2) 0.410(4)
H15 H 0.319(3) 0.704(2) 0.4709(17)
loop_
_geom_bond_atom_site_label_1
_geom_bond_atom_site_label_2
_geom_bond_site_symmetry_1
_geom_bond_site_symmetry_2
Cd1 O1 1_555 1_555
I1 C11 1_555 1_555
O1 C13 1_555 1_555
O2 Cd1 1_555 1_555
O3 C14 1_555 1_555
O4 C14 1_555 1_555
O5 Cd1 1_555 1_555
H1 O5 1_555 1_555
H2 O5 1_555 1_555
N1 N2 1_555 1_555
N2 C3 1_555 1_555
N3 Cd1 1_555 1_555
N4 N5 1_555 1_555
N5 C5 1_555 1_555
N6 C5 1_555 1_555
C1 N1 1_555 1_555
H3 C1 1_555 1_555
H4 C1 1_555 1_555
C2 N4 1_555 1_555
H5 C2 1_555 1_555
H6 C2 1_555 1_555
C3 N3 1_555 1_555
H7 C3 1_555 1_555
C4 N1 1_555 1_555
H8 C4 1_555 1_555
C5 H9 1_555 1_555
C6 N4 1_555 1_555
H10 C6 1_555 1_555
C7 C8 1_555 1_555
C8 H11 1_555 1_555
C9 C8 1_555 1_555
C10 C9 1_555 1_555
H12 C10 1_555 1_555
C11 C10 1_555 1_555
C12 C7 1_555 1_555
H13 C12 1_555 1_555
C13 O2 1_555 1_555
C14 C9 1_555 1_555
O6 H14 1_555 1_555
H15 O6 1_555 1_555
Cd1_2 O3 1_555 1_555
Cd1D N6 1_555 1_555
O3_2 Cd1 1_555 1_555
O4_2 Cd1 1_555 1_555
N6D Cd1 1_555 1_555
O4 Cd1_2 1_555 1_555
N3 C4 1_555 1_555
N6 C6 1_555 1_555
C1 C2 1_555 1_555
C7 C13 1_555 1_555
C11 C12 1_555 1_555

#END
