
#######################################################################
#
#                 Cambridge Crystallographic Data Centre
#                                CCDC 
#
#######################################################################
#
# If this CIF has been generated from an entry in the Cambridge 
# Structural Database, then it will include bibliographic, chemical, 
# crystal, experimental, refinement or atomic coordinate data resulting 
# from the CCDC's data processing and validation procedures.
#
#######################################################################

data_PGALSB
_symmetry_cell_setting           orthorhombic
_symmetry_space_group_name_H-M   'A m a 2'
_symmetry_Int_Tables_number      40
_space_group_name_Hall           'A 2 -2a'
loop_
_symmetry_equiv_pos_site_id
_symmetry_equiv_pos_as_xyz
1 x,y,z
2 x,1/2+y,1/2+z
3 -x,-y,z
4 1/2-x,y,z
5 -x,1/2-y,1/2+z
6 1/2-x,1/2+y,1/2+z
7 1/2+x,-y,z
8 1/2+x,1/2-y,1/2+z
_cell_length_a                   8.4168(12)
_cell_length_b                   15.982(3)
_cell_length_c                   4.7871(9)
_cell_angle_alpha                90
_cell_angle_beta                 90
_cell_angle_gamma                90
_cell_volume                     643.948
loop_
_atom_site_label
_atom_site_type_symbol
_atom_site_fract_x
_atom_site_fract_y
_atom_site_fract_z
C1 C 0.25000 0.09340 -0.30700
C2 C 0.10280 0.12380 -0.40100
C3 C 0.10590 0.18680 -0.59900
C4 C 0.25000 0.21790 -0.70100
H1 H 0.01180 0.20870 -0.67000
H2 H 0.25000 0.26430 -0.84500
O1 O 0.25000 0.03090 -0.11300
O2 O -0.02980 0.09040 -0.29100
Sb1 Sb 0.00000 0.00000 0.00000
C2C C 0.39720 0.12380 -0.40100
C3C C 0.39410 0.18680 -0.59900
Sb1C Sb 0.50000 0.00000 0.00000
O1B O -0.25000 -0.03090 -0.11300
O2B O 0.02980 -0.09040 -0.29100
O2C O 0.52980 0.09040 -0.29100
H1C H 0.48820 0.20870 -0.67000
O1B_2 O 0.75000 -0.03090 -0.11300
O2F O 0.47020 -0.09040 -0.29100
C1B C -0.25000 -0.09340 -0.30700
Sb1C_2 Sb -0.50000 0.00000 0.00000
C2B C -0.10280 -0.12380 -0.40100
C2F C -0.39720 -0.12380 -0.40100
C3B C -0.10590 -0.18680 -0.59900
C4B C -0.25000 -0.21790 -0.70100
H1B H -0.01180 -0.20870 -0.67000
C3F C -0.39410 -0.18680 -0.59900
H2B H -0.25000 -0.26430 -0.84500
O2F_2 O -0.52980 -0.09040 -0.29100
H1F H -0.48820 -0.20870 -0.67000
O3 O 0.25000 0.39460 -0.27800
loop_
_geom_bond_atom_site_label_1
_geom_bond_atom_site_label_2
_geom_bond_site_symmetry_1
_geom_bond_site_symmetry_2
C1 C2 1_555 1_555
C2 C3 1_555 1_555
C3 C4 1_555 1_555
C4 H2 1_555 1_555
H1 C3 1_555 1_555
O1 C1 1_555 1_555
O2 C2 1_555 1_555
Sb1 O1 1_555 1_555
C2C C1 1_555 1_555
C3C C4 1_555 1_555
Sb1C O1 1_555 1_555
O1B Sb1 1_555 1_555
O2B Sb1 1_555 1_555
O2C C2C 1_555 1_555
H1C C3C 1_555 1_555
O1B_2 Sb1C 1_555 1_555
O2F Sb1C 1_555 1_555
C1B O1B 1_555 1_555
Sb1C_2 O1B 1_555 1_555
C2B O2B 1_555 1_555
C2F C1B 1_555 1_555
C3B C2B 1_555 1_555
C4B C3B 1_555 1_555
H1B C3B 1_555 1_555
C3F C2F 1_555 1_555
H2B C4B 1_555 1_555
O2F_2 Sb1C_2 1_555 1_555
H1F C3F 1_555 1_555
O2 Sb1 1_555 1_555
C2C C3C 1_555 1_555
Sb1C O2C 1_555 1_555
C1B C2B 1_555 1_555
C2F O2F_2 1_555 1_555
C4B C3F 1_555 1_555

#END
