
#######################################################################
#
#                 Cambridge Crystallographic Data Centre
#                                CCDC 
#
#######################################################################
#
# If this CIF has been generated from an entry in the Cambridge 
# Structural Database, then it will include bibliographic, chemical, 
# crystal, experimental, refinement or atomic coordinate data resulting 
# from the CCDC's data processing and validation procedures.
#
#######################################################################

data_PHBPMN
_symmetry_cell_setting           monoclinic
_symmetry_space_group_name_H-M   'C 2/c'
_symmetry_Int_Tables_number      15
_space_group_name_Hall           '-C 2yn'
loop_
_symmetry_equiv_pos_site_id
_symmetry_equiv_pos_as_xyz
1 x,y,z
2 1/2+x,1/2+y,z
3 -x,y,1/2-z
4 1/2-x,1/2+y,1/2-z
5 -x,-y,-z
6 1/2-x,1/2-y,-z
7 x,-y,1/2+z
8 1/2+x,1/2-y,1/2+z
_cell_length_a                   16.827(15)
_cell_length_b                   10.745(20)
_cell_length_c                   7.170(5)
_cell_angle_alpha                90
_cell_angle_beta                 91.46(3)
_cell_angle_gamma                90
_cell_volume                     1295.96
loop_
_atom_site_label
_atom_site_type_symbol
_atom_site_fract_x
_atom_site_fract_y
_atom_site_fract_z
Mn1 Mn 0.00000 0.15360 0.25000
P1 P 0.10370 0.09930 -0.13490
O1 O 0.03670 0.16060 -0.03770
O2 O -0.09880 0.03570 0.18030
N1 N 0.07700 0.32900 0.30120
C1 C 0.04300 0.44120 0.27980
C2 C 0.08490 0.55200 0.31560
C3 C 0.16430 0.54350 0.36550
C4 C 0.19960 0.42910 0.38470
C5 C 0.15360 0.32410 0.35300
O1B O -0.03670 0.16060 0.53770
O2B O 0.09880 0.03570 0.31970
N1B N -0.07700 0.32900 0.19880
O2D O 0.09880 -0.03570 -0.18030
P1D P -0.10370 -0.09930 0.13490
C1B C -0.04300 0.44120 0.22020
P1B P -0.10370 0.09930 0.63490
P1F P 0.10370 -0.09930 0.36510
C5B C -0.15360 0.32410 0.14700
Mn1D Mn 0.00000 -0.15360 -0.25000
O1D O -0.03670 -0.16060 0.03770
C2B C -0.08490 0.55200 0.18440
O2F O -0.09880 -0.03570 0.68030
O1F O 0.03670 -0.16060 0.46230
C4B C -0.19960 0.42910 0.11530
O1F_2 O 0.03670 -0.16060 -0.53770
O2F_2 O -0.09880 -0.03570 -0.31970
N1D N -0.07700 -0.32900 -0.30120
N1F N 0.07700 -0.32900 -0.19880
C3B C -0.16430 0.54350 0.13450
Mn1D_2 Mn 0.00000 -0.15360 0.75000
C1D C -0.04300 -0.44120 -0.27980
C5D C -0.15360 -0.32410 -0.35300
C1F C 0.04300 -0.44120 -0.22020
C5F C 0.15360 -0.32410 -0.14700
C2D C -0.08490 -0.55200 -0.31560
C4D C -0.19960 -0.42910 -0.38470
C2F C 0.08490 -0.55200 -0.18440
C4F C 0.19960 -0.42910 -0.11530
C3D C -0.16430 -0.54350 -0.36550
C3F C 0.16430 -0.54350 -0.13450
loop_
_geom_bond_atom_site_label_1
_geom_bond_atom_site_label_2
_geom_bond_site_symmetry_1
_geom_bond_site_symmetry_2
Mn1 O1 1_555 1_555
P1 O1 1_555 1_555
O2 Mn1 1_555 1_555
N1 Mn1 1_555 1_555
C1 N1 1_555 1_555
C2 C1 1_555 1_555
C3 C2 1_555 1_555
C4 C3 1_555 1_555
C5 N1 1_555 1_555
O1B Mn1 1_555 1_555
O2B Mn1 1_555 1_555
N1B Mn1 1_555 1_555
O2D P1 1_555 1_555
P1D O2 1_555 1_555
C1B C1 1_555 1_555
P1B O1B 1_555 1_555
P1F O2B 1_555 1_555
C5B N1B 1_555 1_555
Mn1D O2D 1_555 1_555
O1D P1D 1_555 1_555
C2B C1B 1_555 1_555
O2F P1B 1_555 1_555
O1F P1F 1_555 1_555
C4B C5B 1_555 1_555
O1F_2 Mn1D 1_555 1_555
O2F_2 Mn1D 1_555 1_555
N1D Mn1D 1_555 1_555
N1F Mn1D 1_555 1_555
C3B C2B 1_555 1_555
Mn1D_2 O2F 1_555 1_555
C1D N1D 1_555 1_555
C5D N1D 1_555 1_555
C1F N1F 1_555 1_555
C5F N1F 1_555 1_555
C2D C1D 1_555 1_555
C4D C5D 1_555 1_555
C2F C1F 1_555 1_555
C4F C5F 1_555 1_555
C3D C2D 1_555 1_555
C3F C2F 1_555 1_555
C4 C5 1_555 1_555
N1B C1B 1_555 1_555
Mn1D O1D 1_555 1_555
O1F Mn1D_2 1_555 1_555
C4B C3B 1_555 1_555
C1D C1F 1_555 1_555
C4D C3D 1_555 1_555
C4F C3F 1_555 1_555

#END
