
#######################################################################
#
#                 Cambridge Crystallographic Data Centre
#                                CCDC 
#
#######################################################################
#
# If this CIF has been generated from an entry in the Cambridge 
# Structural Database, then it will include bibliographic, chemical, 
# crystal, experimental, refinement or atomic coordinate data resulting 
# from the CCDC's data processing and validation procedures.
#
#######################################################################

data_PHXACE11
_symmetry_cell_setting           orthorhombic
_symmetry_space_group_name_H-M   'P b c a'
_symmetry_Int_Tables_number      61
_space_group_name_Hall           '-P 2ac 2ab'
loop_
_symmetry_equiv_pos_site_id
_symmetry_equiv_pos_as_xyz
1 x,y,z
2 1/2-x,-y,1/2+z
3 -x,1/2+y,1/2-z
4 1/2+x,1/2-y,-z
5 -x,-y,-z
6 1/2+x,y,1/2-z
7 x,1/2-y,1/2+z
8 1/2-x,1/2+y,z
_cell_length_a                   6.7802(2)
_cell_length_b                   7.5931(2)
_cell_length_c                   33.1440(9)
_cell_angle_alpha                90
_cell_angle_beta                 90
_cell_angle_gamma                90
_cell_volume                     1706.34
loop_
_atom_site_label
_atom_site_type_symbol
_atom_site_fract_x
_atom_site_fract_y
_atom_site_fract_z
Co1 Co 0.5000 0.0000 0.5000
O1 O 0.6140(3) 0.1511(3) 0.54942(7)
C1 C 1.0067(5) -0.0023(4) 0.3606(1)
C2 C 1.1389(6) -0.0662(5) 0.3324(1)
C3 C 1.1378(6) 0.0009(5) 0.2938(1)
C4 C 1.0081(5) 0.1329(5) 0.2825(1)
C5 C 0.8748(6) 0.1941(5) 0.3099(1)
C6 C 0.8729(6) 0.1273(5) 0.3494(1)
O2 O 1.0166(3) -0.0790(3) 0.39779(8)
C7 C 0.8718(5) -0.0304(4) 0.4266(1)
C8 C 0.8769(5) -0.1549(4) 0.4617(1)
O3 O 0.7766(4) -0.1091(3) 0.49244(6)
O4 O 0.9714(3) -0.2945(3) 0.45894(8)
H1 H 1.2299 -0.1559 0.3396
H2 H 1.2281 -0.0444 0.2745
H3 H 1.0121 0.1803 0.2560
H4 H 0.7828 0.2822 0.3022
H5 H 0.7801 0.1708 0.3684
H6 H 0.7451 -0.0344 0.4144
H7 H 0.8976 0.0858 0.4358
Co1G Co 1.0000 -0.5000 0.5000
Co1G_2 Co 0.0000 0.5000 0.5000
O1D O 0.3860(3) -0.1511(3) 0.45058(7)
C1D C -0.0067(5) 0.0023(4) 0.6394(1)
C2D C -0.1389(6) 0.0662(5) 0.6676(1)
C3D C -0.1378(6) -0.0009(5) 0.7062(1)
C4D C -0.0081(5) -0.1329(5) 0.7175(1)
C5D C 0.1252(6) -0.1941(5) 0.6901(1)
C6D C 0.1271(6) -0.1273(5) 0.6506(1)
O2D O -0.0166(3) 0.0790(3) 0.60221(8)
C7D C 0.1282(5) 0.0304(4) 0.5734(1)
C8D C 0.1231(5) 0.1549(4) 0.5383(1)
O3D O 0.2234(4) 0.1091(3) 0.50756(6)
O4D O 0.0286(3) 0.2945(3) 0.54106(8)
O4G O 0.5286(3) 0.2055(3) 0.45894(8)
O4C O 0.4714(3) -0.2055(3) 0.54106(8)
H1D H -0.2299 0.1559 0.6604
H2D H -0.2281 0.0444 0.7255
H3D H -0.0121 -0.1803 0.7440
H4D H 0.2172 -0.2822 0.6978
H5D H 0.2199 -0.1708 0.6316
H6D H 0.2549 0.0344 0.5856
H7D H 0.1024 -0.0858 0.5642
loop_
_geom_bond_atom_site_label_1
_geom_bond_atom_site_label_2
_geom_bond_site_symmetry_1
_geom_bond_site_symmetry_2
Co1 O1 1_555 1_555
C1 C2 1_555 1_555
C2 C3 1_555 1_555
C3 C4 1_555 1_555
C4 C5 1_555 1_555
C5 C6 1_555 1_555
C6 C1 1_555 1_555
O2 C1 1_555 1_555
C7 O2 1_555 1_555
C8 C7 1_555 1_555
O3 Co1 1_555 1_555
O4 C8 1_555 1_555
H1 C2 1_555 1_555
H2 C3 1_555 1_555
H3 C4 1_555 1_555
H4 C5 1_555 1_555
H5 C6 1_555 1_555
H6 C7 1_555 1_555
H7 C7 1_555 1_555
Co1G O4 1_555 1_555
Co1G_2 O4D 1_555 1_555
O1D Co1 1_555 1_555
C1D C2D 1_555 1_555
C2D C3D 1_555 1_555
C3D C4D 1_555 1_555
C4D C5D 1_555 1_555
C5D C6D 1_555 1_555
C6D C1D 1_555 1_555
O2D C1D 1_555 1_555
C7D O2D 1_555 1_555
C8D C7D 1_555 1_555
O3D Co1 1_555 1_555
O4D C8D 1_555 1_555
O4G Co1 1_555 1_555
O4C Co1 1_555 1_555
H1D C2D 1_555 1_555
H2D C3D 1_555 1_555
H3D C4D 1_555 1_555
H4D C5D 1_555 1_555
H5D C6D 1_555 1_555
H6D C7D 1_555 1_555
H7D C7D 1_555 1_555
C8 O3 1_555 1_555
C8D O3D 1_555 1_555

#END
