
#######################################################################
#
#                 Cambridge Crystallographic Data Centre
#                                CCDC 
#
#######################################################################
#
# If this CIF has been generated from an entry in the Cambridge 
# Structural Database, then it will include bibliographic, chemical, 
# crystal, experimental, refinement or atomic coordinate data resulting 
# from the CCDC's data processing and validation procedures.
#
#######################################################################

data_PHXACA
_symmetry_cell_setting           orthorhombic
_symmetry_space_group_name_H-M   'P b c a'
_symmetry_Int_Tables_number      61
_space_group_name_Hall           '-P 2ac 2ab'
loop_
_symmetry_equiv_pos_site_id
_symmetry_equiv_pos_as_xyz
1 x,y,z
2 1/2-x,-y,1/2+z
3 1/2+x,1/2-y,-z
4 -x,1/2+y,1/2-z
5 -x,-y,-z
6 1/2+x,y,1/2-z
7 1/2-x,1/2+y,z
8 x,1/2-y,1/2+z
_cell_length_a                   7.007(4)
_cell_length_b                   7.699(4)
_cell_length_c                   33.219(19)
_cell_angle_alpha                90
_cell_angle_beta                 90
_cell_angle_gamma                90
_cell_volume                     1792.06
loop_
_atom_site_label
_atom_site_type_symbol
_atom_site_fract_x
_atom_site_fract_y
_atom_site_fract_z
Mn1 Mn 0.50000 0.50000 0.00000
O1 O 0.62070 0.65140 0.05070
O2 O 0.47550 0.28790 0.04200
O3 O 0.22270 0.61070 0.01000
C1 C 0.50710 -0.00290 0.14050
C2 C 0.63470 0.06110 0.16790
C3 C 0.63490 -0.00900 0.20730
C4 C 0.51180 -0.13800 0.21820
C5 C 0.38590 -0.20020 0.19010
C6 C 0.37940 -0.13140 0.15110
O4 O 0.51460 0.07590 0.10320
C7 C 0.37370 0.02720 0.07470
C8 C 0.37800 0.15250 0.03950
H1 H 0.73800 0.15410 0.15910
H2 H 0.73970 0.04510 0.22910
H3 H 0.51060 -0.18060 0.24710
H4 H 0.29010 -0.32680 0.20050
H5 H 0.27590 -0.17710 0.13060
H6 H 0.40660 -0.09040 0.06490
H7 H 0.23840 0.03300 0.08500
H8 H 0.68990 0.61910 0.06800
H9 H 0.67720 0.73410 0.04030
O1D O 0.37930 0.34860 -0.05070
O2D O 0.52450 0.71210 -0.04200
O3D O 0.77730 0.38930 -0.01000
C8F C 0.12200 0.65250 0.03950
O3F O 0.27730 0.11070 0.01000
H8D H 0.31010 0.38090 -0.06800
H9D H 0.32280 0.26590 -0.04030
C8D C 0.62200 0.84750 -0.03950
C8B C 0.87800 0.34750 -0.03950
O2F O 0.02450 0.78790 0.04200
C7F C 0.12630 0.52720 0.07470
Mn1B Mn 0.00000 0.00000 0.00000
O3B O 0.72270 0.88930 -0.01000
C7D C 0.62630 0.97280 -0.07470
O2B O 0.97550 0.21210 -0.04200
C7B C 0.87370 0.47280 -0.07470
Mn1B_2 Mn 0.00000 1.00000 0.00000
O4F O -0.01460 0.57590 0.10320
H6F H 0.09340 0.40960 0.06490
H7F H 0.26160 0.53300 0.08500
O1B O 0.12070 -0.15140 -0.05070
O1F O -0.12070 0.15140 0.05070
O2B_2 O -0.02450 0.21210 -0.04200
O2F_2 O 0.02450 -0.21210 0.04200
O3B_2 O -0.27730 -0.11070 -0.01000
Mn1B_3 Mn 1.00000 1.00000 0.00000
O4D O 0.48540 0.92410 -0.10320
H6D H 0.59340 1.09040 -0.06490
H7D H 0.76160 0.96700 -0.08500
Mn1B_4 Mn 1.00000 0.00000 0.00000
O4B O 1.01460 0.42410 -0.10320
H6B H 0.90660 0.59040 -0.06490
H7B H 0.73840 0.46700 -0.08500
C1F C -0.00710 0.49710 0.14050
H8B H 0.18990 -0.11910 -0.06800
H9B H 0.17720 -0.23410 -0.04030
H8F H -0.18990 0.11910 0.06800
H9F H -0.17720 0.23410 0.04030
C1D C 0.49290 1.00290 -0.14050
C1B C 1.00710 0.50290 -0.14050
C2F C -0.13470 0.56110 0.16790
C6F C 0.12060 0.36860 0.15110
C2D C 0.36530 0.93890 -0.16790
C6D C 0.62060 1.13140 -0.15110
C2B C 1.13470 0.43890 -0.16790
C6B C 0.87940 0.63140 -0.15110
C3F C -0.13490 0.49100 0.20730
H1F H -0.23800 0.65410 0.15910
C5F C 0.11410 0.29980 0.19010
H5F H 0.22410 0.32290 0.13060
C3D C 0.36510 1.00900 -0.20730
H1D H 0.26200 0.84590 -0.15910
C5D C 0.61410 1.20020 -0.19010
H5D H 0.72410 1.17710 -0.13060
C3B C 1.13490 0.50900 -0.20730
H1B H 1.23800 0.34590 -0.15910
C5B C 0.88590 0.70020 -0.19010
H5B H 0.77590 0.67710 -0.13060
C4F C -0.01180 0.36200 0.21820
H2F H -0.23970 0.54510 0.22910
H4F H 0.20990 0.17320 0.20050
C4D C 0.48820 1.13800 -0.21820
H2D H 0.26030 0.95490 -0.22910
H4D H 0.70990 1.32680 -0.20050
C4B C 1.01180 0.63800 -0.21820
H2B H 1.23970 0.45490 -0.22910
H4B H 0.79010 0.82680 -0.20050
H3F H -0.01060 0.31940 0.24710
H3D H 0.48940 1.18060 -0.24710
H3B H 1.01060 0.68060 -0.24710
loop_
_geom_bond_atom_site_label_1
_geom_bond_atom_site_label_2
_geom_bond_site_symmetry_1
_geom_bond_site_symmetry_2
Mn1 O1 1_555 1_555
O1 H8 1_555 1_555
O2 Mn1 1_555 1_555
O3 Mn1 1_555 1_555
C1 C2 1_555 1_555
C2 C3 1_555 1_555
C3 C4 1_555 1_555
C4 C5 1_555 1_555
C5 C6 1_555 1_555
C6 C1 1_555 1_555
O4 C1 1_555 1_555
C7 O4 1_555 1_555
C8 O2 1_555 1_555
H1 C2 1_555 1_555
H2 C3 1_555 1_555
H3 C4 1_555 1_555
H4 C5 1_555 1_555
H5 C6 1_555 1_555
H6 C7 1_555 1_555
H7 C7 1_555 1_555
H9 O1 1_555 1_555
O1D Mn1 1_555 1_555
O2D Mn1 1_555 1_555
O3D Mn1 1_555 1_555
C8F O3 1_555 1_555
O3F C8 1_555 1_555
H8D O1D 1_555 1_555
H9D O1D 1_555 1_555
C8D O2D 1_555 1_555
C8B O3D 1_555 1_555
O2F C8F 1_555 1_555
C7F C8F 1_555 1_555
Mn1B O3F 1_555 1_555
O3B C8D 1_555 1_555
C7D C8D 1_555 1_555
O2B C8B 1_555 1_555
C7B C8B 1_555 1_555
Mn1B_2 O2F 1_555 1_555
O4F C7F 1_555 1_555
H6F C7F 1_555 1_555
H7F C7F 1_555 1_555
O1B Mn1B 1_555 1_555
O1F Mn1B 1_555 1_555
O2B_2 Mn1B 1_555 1_555
O2F_2 Mn1B 1_555 1_555
O3B_2 Mn1B 1_555 1_555
Mn1B_3 O3B 1_555 1_555
O4D C7D 1_555 1_555
H6D C7D 1_555 1_555
H7D C7D 1_555 1_555
Mn1B_4 O2B 1_555 1_555
O4B C7B 1_555 1_555
H6B C7B 1_555 1_555
H7B C7B 1_555 1_555
C1F O4F 1_555 1_555
H8B O1B 1_555 1_555
H9B O1B 1_555 1_555
H8F O1F 1_555 1_555
H9F O1F 1_555 1_555
C1D O4D 1_555 1_555
C1B O4B 1_555 1_555
C2F C1F 1_555 1_555
C6F C1F 1_555 1_555
C2D C1D 1_555 1_555
C6D C1D 1_555 1_555
C2B C1B 1_555 1_555
C6B C1B 1_555 1_555
C3F C2F 1_555 1_555
H1F C2F 1_555 1_555
C5F C6F 1_555 1_555
H5F C6F 1_555 1_555
C3D C2D 1_555 1_555
H1D C2D 1_555 1_555
C5D C6D 1_555 1_555
H5D C6D 1_555 1_555
C3B C2B 1_555 1_555
H1B C2B 1_555 1_555
C5B C6B 1_555 1_555
H5B C6B 1_555 1_555
C4F C3F 1_555 1_555
H2F C3F 1_555 1_555
H4F C5F 1_555 1_555
C4D C3D 1_555 1_555
H2D C3D 1_555 1_555
H4D C5D 1_555 1_555
C4B C3B 1_555 1_555
H2B C3B 1_555 1_555
H4B C5B 1_555 1_555
H3F C4F 1_555 1_555
H3D C4D 1_555 1_555
H3B C4B 1_555 1_555
C7 C8 1_555 1_555
C5F C4F 1_555 1_555
C5D C4D 1_555 1_555
C5B C4B 1_555 1_555

#END
