
#######################################################################
#
#                 Cambridge Crystallographic Data Centre
#                                CCDC 
#
#######################################################################
#
# If this CIF has been generated from an entry in the Cambridge 
# Structural Database, then it will include bibliographic, chemical, 
# crystal, experimental, refinement or atomic coordinate data resulting 
# from the CCDC's data processing and validation procedures.
#
#######################################################################

data_PHXACE10
_symmetry_cell_setting           orthorhombic
_symmetry_space_group_name_H-M   'P b c a'
_symmetry_Int_Tables_number      61
_space_group_name_Hall           '-P 2ac 2ab'
loop_
_symmetry_equiv_pos_site_id
_symmetry_equiv_pos_as_xyz
1 x,y,z
2 1/2-x,1/2+y,z
3 x,1/2-y,1/2+z
4 1/2-x,-y,1/2+z
5 -x,-y,-z
6 1/2+x,1/2-y,-z
7 -x,1/2+y,1/2-z
8 1/2+x,y,1/2-z
_cell_length_a                   6.850(1)
_cell_length_b                   7.606(1)
_cell_length_c                   33.302(8)
_cell_angle_alpha                90
_cell_angle_beta                 90
_cell_angle_gamma                90
_cell_volume                     1735.07
loop_
_atom_site_label
_atom_site_type_symbol
_atom_site_fract_x
_atom_site_fract_y
_atom_site_fract_z
Co1 Co 0.5000 0.5000 0.0000
O1 O 0.6152(4) 0.6492(4) 0.0488(1)
C1 C 0.5048(7) 0.0074(6) 0.1395(1)
C2 C 0.6387(8) 0.0723(7) 0.1670(2)
C3 C 0.6375(10) 0.0055(7) 0.2062(2)
C4 C 0.5092(9) -0.1264(8) 0.2169(1)
C5 C 0.3790(8) -0.1901(7) 0.1898(2)
C6 C 0.3740(8) -0.1253(7) 0.1501(1)
O2 O 0.5143(5) 0.0816(5) 0.1025(1)
C7 C 0.3694(6) 0.0319(5) 0.0738(1)
C8 C 0.3753(5) 0.1555(5) 0.0384(1)
O3 O 0.4712(4) 0.2932(4) 0.0408(1)
O4 O 0.2257(4) 0.6107(4) 0.0080(1)
H1 H 0.724 0.183 0.161
H2 H 0.744 0.057 0.221
H3 H 0.527 -0.191 0.247
H4 H 0.259 -0.277 0.192
H5 H 0.259 -0.158 0.138
H6 H 0.240 0.044 0.088
H7 H 0.396 -0.092 0.061
H8 H 0.721 0.681 0.062
O1D O 0.3848(4) 0.3508(4) -0.0488(1)
O3D O 0.5288(4) 0.7068(4) -0.0408(1)
O4D O 0.7743(4) 0.3893(4) -0.0080(1)
O4A O 0.2743(4) 0.1107(4) 0.0080(1)
C8A C 0.1247(5) 0.6555(5) 0.0384(1)
H8D H 0.279 0.319 -0.062
Co1A Co 0.0000 0.0000 0.0000
C7A C 0.1306(6) 0.5319(5) 0.0738(1)
O3A O 0.0288(4) 0.7932(4) 0.0408(1)
O2A O -0.0143(5) 0.5816(5) 0.1025(1)
H6A H 0.260 0.544 0.088
H7A H 0.104 0.408 0.061
Co1A_2 Co 0.0000 1.0000 0.0000
C1A C -0.0048(7) 0.5074(6) 0.1395(1)
C2A C -0.1387(8) 0.5723(7) 0.1670(2)
C6A C 0.1260(8) 0.3747(7) 0.1501(1)
C3A C -0.1375(10) 0.5055(7) 0.2062(2)
H1A H -0.224 0.683 0.161
C5A C 0.1210(8) 0.3099(7) 0.1898(2)
H5A H 0.241 0.342 0.138
C4A C -0.0092(9) 0.3736(8) 0.2169(1)
H2A H -0.244 0.557 0.221
H4A H 0.241 0.223 0.192
H3A H -0.027 0.309 0.247
loop_
_geom_bond_atom_site_label_1
_geom_bond_atom_site_label_2
_geom_bond_site_symmetry_1
_geom_bond_site_symmetry_2
Co1 O1 1_555 1_555
O1 H8 1_555 1_555
C1 C2 1_555 1_555
C2 C3 1_555 1_555
C3 C4 1_555 1_555
C4 C5 1_555 1_555
C5 C6 1_555 1_555
C6 C1 1_555 1_555
O2 C1 1_555 1_555
C7 O2 1_555 1_555
C8 C7 1_555 1_555
O3 Co1 1_555 1_555
O4 Co1 1_555 1_555
H1 C2 1_555 1_555
H2 C3 1_555 1_555
H3 C4 1_555 1_555
H4 C5 1_555 1_555
H5 C6 1_555 1_555
H6 C7 1_555 1_555
H7 C7 1_555 1_555
O1D Co1 1_555 1_555
O3D Co1 1_555 1_555
O4D Co1 1_555 1_555
O4A C8 1_555 1_555
C8A O4 1_555 1_555
H8D O1D 1_555 1_555
Co1A O4A 1_555 1_555
C7A C8A 1_555 1_555
O3A C8A 1_555 1_555
O2A C7A 1_555 1_555
H6A C7A 1_555 1_555
H7A C7A 1_555 1_555
Co1A_2 O3A 1_555 1_555
C1A O2A 1_555 1_555
C2A C1A 1_555 1_555
C6A C1A 1_555 1_555
C3A C2A 1_555 1_555
H1A C2A 1_555 1_555
C5A C6A 1_555 1_555
H5A C6A 1_555 1_555
C4A C3A 1_555 1_555
H2A C3A 1_555 1_555
H4A C5A 1_555 1_555
H3A C4A 1_555 1_555
C8 O3 1_555 1_555
C5A C4A 1_555 1_555

#END
