
#######################################################################
#
#                 Cambridge Crystallographic Data Centre
#                                CCDC 
#
#######################################################################
#
# If this CIF has been generated from an entry in the Cambridge 
# Structural Database, then it will include bibliographic, chemical, 
# crystal, experimental, refinement or atomic coordinate data resulting 
# from the CCDC's data processing and validation procedures.
#
#######################################################################

data_PIBCIN
_symmetry_cell_setting           monoclinic
_symmetry_space_group_name_H-M   'P 21/n'
_symmetry_Int_Tables_number      14
_space_group_name_Hall           '-P 2yn'
loop_
_symmetry_equiv_pos_site_id
_symmetry_equiv_pos_as_xyz
1 x,y,z
2 1/2-x,1/2+y,1/2-z
3 -x,-y,-z
4 1/2+x,1/2-y,1/2+z
_cell_length_a                   14.6886(14)
_cell_length_b                   9.6194(6)
_cell_length_c                   15.9161(16)
_cell_angle_alpha                90.00
_cell_angle_beta                 105.687(6)
_cell_angle_gamma                90.00
_cell_volume                     2165.11
loop_
_atom_site_label
_atom_site_type_symbol
_atom_site_fract_x
_atom_site_fract_y
_atom_site_fract_z
Zn1 Zn -0.64124(3) -1.04159(5) -0.37733(3)
Zn2 Zn -0.5000 -1.0000 -0.5000
O1 O -0.5847(2) -1.1557(3) -0.4550(2)
O2 O -0.5506(4) -1.2741(4) -0.3320(3)
O3 O -0.6105(2) -0.8626(3) -0.5194(2)
O4 O -1.0451(2) -0.5737(4) -0.7993(2)
O5 O -0.9364(2) -0.5619(3) -0.8741(2)
O6 O -0.7303(2) -0.9290(3) -0.4670(2)
N1 N -0.7218(3) -1.0839(4) -0.2955(3)
C1 C -0.6865(6) -1.1488(9) -0.2223(5)
H1 H -0.6253 -1.1839 -0.2103
C2 C -0.7378(8) -1.1670(11) -0.1615(6)
H2 H -0.7108 -1.2155 -0.1102
C3 C -0.8241(6) -1.1165(9) -0.1752(6)
H3 H -0.8582 -1.1276 -0.1342
C4 C -0.8603(5) -1.0499(10) -0.2490(6)
H4 H -0.9210 -1.0132 -0.2612
C5 C -0.8071(5) -1.0349(8) -0.3088(5)
H5 H -0.8338 -0.9877 -0.3606
C6 C -0.5250(3) -1.3865(4) -0.4571(3)
C7 C -0.5516(3) -1.3918(5) -0.5472(3)
H6 H -0.5857 -1.3187 -0.5790
C8 C -0.4723(4) -1.4953(5) -0.4097(3)
H7 H -0.4532 -1.4917 -0.3490
C9 C -0.5539(4) -1.2671(5) -0.4102(4)
C10 C -0.8937(3) -0.6644(5) -0.7347(3)
C11 C -0.9239(3) -0.7176(6) -0.6659(4)
H8 H -0.9871 -0.7098 -0.6661
C12 C -0.8594(3) -0.7830(6) -0.5962(3)
H9 H -0.8795 -0.8182 -0.5498
C13 C -0.7647(3) -0.7954(5) -0.5966(3)
C14 C -0.7360(3) -0.7434(6) -0.6654(3)
H10 H -0.6731 -0.7515 -0.6661
C15 C -0.8009(3) -0.6785(6) -0.7344(3)
H11 H -0.7809 -0.6442 -0.7810
C16 C -0.9635(3) -0.5940(5) -0.8091(3)
C17 C -0.6965(3) -0.8679(4) -0.5229(3)
Zn1B Zn -0.35876(3) -1.95841(5) -0.62267(3)
Zn1C Zn -1.14124(3) -0.45841(5) -0.87733(3)
Zn1A Zn 0.14124(3) -1.54159(5) -0.12267(3)
Zn1B_2 Zn -0.35876(3) -0.95841(5) -0.62267(3)
Zn2C Zn -1.0000 -0.5000 -1.0000
Zn2_2 Zn -0.5000 -2.0000 -0.5000
Zn2C_2 Zn 0.0000 -1.5000 0.0000
O1B O -0.4153(2) -1.8443(3) -0.5450(2)
O1B_2 O -0.4153(2) -0.8443(3) -0.5450(2)
O2B O -0.4494(4) -1.7259(4) -0.6680(3)
O3B O -0.3895(2) -1.1374(3) -0.4806(2)
O4B O 0.0451(2) -1.4263(4) -0.2007(2)
O4C O -0.5451(2) -0.9263(4) -0.2993(2)
O4A O -0.4549(2) -2.0737(4) -0.7007(2)
O5B O -0.0636(2) -1.4381(3) -0.1259(2)
O5C O -0.4364(2) -0.9381(3) -0.3741(2)
O5A O -0.5636(2) -1.0619(3) -0.6259(2)
O6B O -0.2697(2) -1.0710(3) -0.5330(2)
O6B_2 O -0.2697(2) -2.0710(3) -0.5330(2)
N1B N -0.2782(3) -1.9161(4) -0.7045(3)
C1B C -0.3135(6) -1.8512(9) -0.7777(5)
H1B H -0.3747 -1.8161 -0.7897
C2B C -0.2622(8) -1.8330(11) -0.8385(6)
H2B H -0.2892 -1.7845 -0.8898
C3B C -0.1759(6) -1.8835(9) -0.8248(6)
H3B H -0.1418 -1.8724 -0.8658
C4B C -0.1397(5) -1.9501(10) -0.7510(6)
H4B H -0.0790 -1.9868 -0.7388
C5B C -0.1929(5) -1.9651(8) -0.6912(5)
H5B H -0.1662 -2.0123 -0.6394
C6B C -0.4750(3) -1.6135(4) -0.5429(3)
C7B C -0.4484(3) -1.6082(5) -0.4528(3)
H6B H -0.4143 -1.6813 -0.4210
C8B C -0.5277(4) -1.5047(5) -0.5903(3)
H7B H -0.5468 -1.5083 -0.6510
C9B C -0.4461(4) -1.7329(5) -0.5898(4)
C10B C -0.1063(3) -1.3356(5) -0.2653(3)
C11B C -0.0761(3) -1.2824(6) -0.3341(4)
H8B H -0.0129 -1.2902 -0.3339
C12B C -0.1406(3) -1.2170(6) -0.4038(3)
H9B H -0.1205 -1.1818 -0.4502
C13B C -0.2353(3) -1.2046(5) -0.4034(3)
C14B C -0.2640(3) -1.2566(6) -0.3346(3)
H10B H -0.3269 -1.2485 -0.3339
C15B C -0.1991(3) -1.3215(6) -0.2656(3)
H11B H -0.2191 -1.3558 -0.2190
C16B C -0.0365(3) -1.4060(5) -0.1909(3)
C17B C -0.3035(3) -1.1321(4) -0.4771(3)
O7 O 0.6109(12) 0.8340(16) 0.0264(9)
O8 O 0.6336(13) 0.725(2) -0.1158(10)
C18 C 0.5423(12) 0.817(2) -0.0776(14)
C19 C 0.5475(14) 0.685(2) -0.0715(14)
C20 C 0.6874(14) 0.856(2) -0.0655(16)
C21 C 0.7102(9) 0.7664(16) 0.0175(8)
loop_
_geom_bond_atom_site_label_1
_geom_bond_atom_site_label_2
_geom_bond_site_symmetry_1
_geom_bond_site_symmetry_2
Zn1 O1 1_555 1_555
Zn2 O1 1_555 1_555
O1 C9 1_555 1_555
O2 C9 1_555 1_555
O3 Zn2 1_555 1_555
O4 C16 1_555 1_555
O5 C16 1_555 1_555
O6 Zn1 1_555 1_555
O7 C18 1_555 1_555
O8 C19 1_555 1_555
N1 Zn1 1_555 1_555
C1 N1 1_555 1_555
H1 C1 1_555 1_555
C2 C1 1_555 1_555
H2 C2 1_555 1_555
C3 C2 1_555 1_555
H3 C3 1_555 1_555
C4 C3 1_555 1_555
H4 C4 1_555 1_555
C5 N1 1_555 1_555
H5 C5 1_555 1_555
C6 C7 1_555 1_555
C7 H6 1_555 1_555
C8 C6 1_555 1_555
H7 C8 1_555 1_555
C9 C6 1_555 1_555
C10 C11 1_555 1_555
C11 H8 1_555 1_555
C12 C11 1_555 1_555
H9 C12 1_555 1_555
C13 C12 1_555 1_555
C14 C13 1_555 1_555
H10 C14 1_555 1_555
C15 C10 1_555 1_555
H11 C15 1_555 1_555
C16 C10 1_555 1_555
C17 O3 1_555 1_555
C18 C19 1_555 1_555
C20 O8 1_555 1_555
C21 O7 1_555 1_555
Zn1B O1B 1_555 1_555
Zn1C O4 1_555 1_555
Zn1A O4B 1_555 1_555
Zn1B_2 O1B_2 1_555 1_555
Zn2C O5 1_555 1_555
Zn2_2 O1B 1_555 1_555
Zn2C_2 O5B 1_555 1_555
O1B C9B 1_555 1_555
O1B_2 Zn2 1_555 1_555
O2B C9B 1_555 1_555
O3B Zn2 1_555 1_555
O4B C16B 1_555 1_555
O4C Zn1 1_555 1_555
O4A Zn1B 1_555 1_555
O5B C16B 1_555 1_555
O5C Zn2 1_555 1_555
O5A Zn2 1_555 1_555
O6B Zn1B_2 1_555 1_555
O6B_2 Zn1B 1_555 1_555
N1B Zn1B 1_555 1_555
C1B N1B 1_555 1_555
H1B C1B 1_555 1_555
C2B C1B 1_555 1_555
H2B C2B 1_555 1_555
C3B C2B 1_555 1_555
H3B C3B 1_555 1_555
C4B C3B 1_555 1_555
H4B C4B 1_555 1_555
C5B N1B 1_555 1_555
H5B C5B 1_555 1_555
C6B C7B 1_555 1_555
C7B C8 1_555 1_555
H6B C7B 1_555 1_555
C8B C7 1_555 1_555
H7B C8B 1_555 1_555
C9B C6B 1_555 1_555
C10B C11B 1_555 1_555
C11B H8B 1_555 1_555
C12B C11B 1_555 1_555
H9B C12B 1_555 1_555
C13B C12B 1_555 1_555
C14B C13B 1_555 1_555
H10B C14B 1_555 1_555
C15B C10B 1_555 1_555
H11B C15B 1_555 1_555
C16B C10B 1_555 1_555
C17B O3B 1_555 1_555
O6 C17 1_555 1_555
C4 C5 1_555 1_555
C13 C17 1_555 1_555
C14 C15 1_555 1_555
C20 C21 1_555 1_555
O6B C17B 1_555 1_555
C4B C5B 1_555 1_555
C6B C8B 1_555 1_555
C13B C17B 1_555 1_555
C14B C15B 1_555 1_555

#END
