
#######################################################################
#
#                 Cambridge Crystallographic Data Centre
#                                CCDC 
#
#######################################################################
#
# If this CIF has been generated from an entry in the Cambridge 
# Structural Database, then it will include bibliographic, chemical, 
# crystal, experimental, refinement or atomic coordinate data resulting 
# from the CCDC's data processing and validation procedures.
#
#######################################################################

data_PIBFEM01
_symmetry_cell_setting           monoclinic
_symmetry_space_group_name_H-M   'P 21/n'
_symmetry_Int_Tables_number      14
_space_group_name_Hall           '-P 2yn'
loop_
_symmetry_equiv_pos_site_id
_symmetry_equiv_pos_as_xyz
1 x,y,z
2 1/2-x,1/2+y,1/2-z
3 -x,-y,-z
4 1/2+x,1/2-y,1/2+z
_cell_length_a                   9.2124(8)
_cell_length_b                   12.6462(11)
_cell_length_c                   10.5920(10)
_cell_angle_alpha                90
_cell_angle_beta                 105.5340(10)
_cell_angle_gamma                90
_cell_volume                     1188.91
loop_
_atom_site_label
_atom_site_type_symbol
_atom_site_fract_x
_atom_site_fract_y
_atom_site_fract_z
Co1 Co 0.0000 0.5000 0.5000
S1 S 0.43207(6) 0.48987(4) 0.70875(5)
O1 O 0.43088(13) 0.35261(9) 0.51719(12)
O2 O 0.11903(14) 0.60455(9) 0.64816(12)
H1 H 0.2121 0.5847 0.6725
H2 H 0.0777 0.6105 0.7126
N1 N 0.44554(16) 0.10320(11) 0.14219(14)
N2 N 0.20535(16) 0.41404(11) 0.50771(14)
N3 N 0.19338(17) 0.34543(12) 0.40194(15)
C1 C 0.37183(19) 0.23990(14) 0.32175(17)
C2 C 0.5199(2) 0.21093(15) 0.33417(18)
H3 H 0.5969 0.2368 0.4029
C3 C 0.5515(2) 0.14294(15) 0.24294(18)
H4 H 0.6513 0.1239 0.2521
C4 C 0.3028(2) 0.13188(14) 0.13151(19)
H5 H 0.2278 0.1048 0.0620
C5 C 0.2611(2) 0.19893(14) 0.21737(18)
H6 H 0.1604 0.2166 0.2059
C6 C 0.3273(2) 0.31186(14) 0.41208(17)
C7 C 0.34766(19) 0.41776(13) 0.57482(17)
Co1C Co 0.5000 0.0000 0.0000
Co1C_2 Co -0.5000 1.0000 1.0000
S1B S -0.43207(6) 0.51013(4) 0.29125(5)
O1B O -0.43088(13) 0.64739(9) 0.48281(12)
O2B O -0.11903(14) 0.39545(9) 0.35184(12)
H1B H -0.2121 0.4153 0.3275
H2B H -0.0777 0.3895 0.2874
N1A N 0.05446(16) 0.60320(11) 0.35781(14)
N1C N -0.05446(16) 0.39680(11) 0.64219(14)
N1B N -0.44554(16) 0.89680(11) 0.85781(14)
N2B N -0.20535(16) 0.58596(11) 0.49229(14)
N3B N -0.19338(17) 0.65457(12) 0.59806(15)
C1B C -0.37183(19) 0.76010(14) 0.67825(17)
C2B C -0.5199(2) 0.78907(15) 0.66583(18)
H3B H -0.5969 0.7632 0.5971
C3B C -0.5515(2) 0.85706(15) 0.75706(18)
H4B H -0.6513 0.8761 0.7479
C4B C -0.3028(2) 0.86812(14) 0.86849(19)
H5B H -0.2278 0.8952 0.9380
C5B C -0.2611(2) 0.80107(14) 0.78263(18)
H6B H -0.1604 0.7834 0.7941
C6B C -0.3273(2) 0.68814(14) 0.58792(17)
C7B C -0.34766(19) 0.58224(13) 0.42518(17)
O3 O 0.23403(18) 0.46134(16) 0.07743(17)
H7 H 0.2872 0.4231 0.0408
H8 H 0.2797 0.4969 0.1436
O4 O 0.05319(19) 0.60592(12) 0.88458(15)
H9 H -0.0371 0.5888 0.8857
H10 H 0.1234 0.5735 0.9409
O5 O 0.4090(2) 0.33151(14) 0.96031(19)
H11 H 0.4419 0.2677 0.9582
H12 H 0.4469 0.3766 0.9167
loop_
_geom_bond_atom_site_label_1
_geom_bond_atom_site_label_2
_geom_bond_site_symmetry_1
_geom_bond_site_symmetry_2
Co1 O2 1_555 1_555
S1 C7 1_555 1_555
O1 C6 1_555 1_555
O2 H1 1_555 1_555
H2 O2 1_555 1_555
N1 C3 1_555 1_555
N2 Co1 1_555 1_555
N3 N2 1_555 1_555
C1 C2 1_555 1_555
C2 H3 1_555 1_555
C3 C2 1_555 1_555
H4 C3 1_555 1_555
C4 N1 1_555 1_555
H5 C4 1_555 1_555
C5 C1 1_555 1_555
H6 C5 1_555 1_555
C6 N3 1_555 1_555
C7 O1 1_555 1_555
O3 H7 1_555 1_555
H8 O3 1_555 1_555
O4 H9 1_555 1_555
H10 O4 1_555 1_555
O5 H11 1_555 1_555
H12 O5 1_555 1_555
Co1C N1 1_555 1_555
Co1C_2 N1B 1_555 1_555
S1B C7B 1_555 1_555
O1B C6B 1_555 1_555
O2B Co1 1_555 1_555
H1B O2B 1_555 1_555
H2B O2B 1_555 1_555
N1A Co1 1_555 1_555
N1C Co1 1_555 1_555
N1B C3B 1_555 1_555
N2B Co1 1_555 1_555
N3B N2B 1_555 1_555
C1B C2B 1_555 1_555
C2B H3B 1_555 1_555
C3B C2B 1_555 1_555
H4B C3B 1_555 1_555
C4B N1B 1_555 1_555
H5B C4B 1_555 1_555
C5B C1B 1_555 1_555
H6B C5B 1_555 1_555
C6B N3B 1_555 1_555
C7B O1B 1_555 1_555
N2 C7 1_555 1_555
C1 C6 1_555 1_555
C4 C5 1_555 1_555
N2B C7B 1_555 1_555
C1B C6B 1_555 1_555
C4B C5B 1_555 1_555

#END
