
#######################################################################
#
#                 Cambridge Crystallographic Data Centre
#                                CCDC 
#
#######################################################################
#
# If this CIF has been generated from an entry in the Cambridge 
# Structural Database, then it will include bibliographic, chemical, 
# crystal, experimental, refinement or atomic coordinate data resulting 
# from the CCDC's data processing and validation procedures.
#
#######################################################################

data_PIBFAJ
_symmetry_cell_setting           tetragonal
_symmetry_space_group_name_H-M   'I 41/a'
_symmetry_Int_Tables_number      88
_space_group_name_Hall           '-I 4ad'
loop_
_symmetry_equiv_pos_site_id
_symmetry_equiv_pos_as_xyz
1 x,y,z
2 1/2-x,-y,1/2+z
3 3/4-y,1/4+x,1/4+z
4 3/4+y,3/4-x,3/4+z
5 1/2+x,1/2+y,1/2+z
6 -x,1/2-y,z
7 1/4-y,3/4+x,3/4+z
8 1/4+y,1/4-x,1/4+z
9 -x,-y,-z
10 1/2+x,y,1/2-z
11 1/4+y,3/4-x,3/4-z
12 1/4-y,1/4+x,1/4-z
13 1/2-x,1/2-y,1/2-z
14 x,1/2+y,-z
15 3/4+y,1/4-x,1/4-z
16 3/4-y,3/4+x,3/4-z
_cell_length_a                   19.9156(12)
_cell_length_b                   19.9156(12)
_cell_length_c                   19.1949(17)
_cell_angle_alpha                90
_cell_angle_beta                 90
_cell_angle_gamma                90
_cell_volume                     7613.29
loop_
_atom_site_label
_atom_site_type_symbol
_atom_site_fract_x
_atom_site_fract_y
_atom_site_fract_z
Sn1 Sn 0.223900(9) 0.371387(9) 0.084806(10)
C1 C 0.32027(12) 0.44583(13) -0.02640(14)
H1 H 0.3376 0.4610 0.0193
H2 H 0.3153 0.4861 -0.0563
C2 C 0.37224(14) 0.39903(15) -0.05964(16)
C3 C 0.38299(16) 0.33693(17) -0.01503(17)
H3 H 0.3407 0.3120 -0.0112
H4 H 0.3981 0.3504 0.0315
H5 H 0.4171 0.3083 -0.0367
C4 C 0.35019(15) 0.37735(15) -0.13212(16)
H6 H 0.3080 0.3522 -0.1288
H7 H 0.3849 0.3488 -0.1529
H8 H 0.3434 0.4171 -0.1613
C5 C 0.43752(15) 0.43813(19) -0.06562(19)
H9 H 0.4720 0.4095 -0.0867
H10 H 0.4522 0.4522 -0.0191
H11 H 0.4304 0.4778 -0.0949
C6 C 0.12627(13) 0.48898(13) 0.14576(13)
H12 H 0.1681 0.4932 0.1733
H13 H 0.0890 0.4815 0.1790
C7 C 0.11385(13) 0.55575(13) 0.10734(14)
C8 C 0.04955(13) 0.55403(14) 0.06536(16)
H14 H 0.0436 0.5970 0.0412
H15 H 0.0114 0.5463 0.0966
H16 H 0.0519 0.5177 0.0311
C9 C 0.17197(13) 0.57077(13) 0.05853(14)
H17 H 0.1634 0.6131 0.0340
H18 H 0.1764 0.5343 0.0246
H19 H 0.2136 0.5746 0.0855
C10 C 0.10863(15) 0.61003(14) 0.16313(16)
H20 H 0.1008 0.6536 0.1409
H21 H 0.1505 0.6117 0.1899
H22 H 0.0712 0.5996 0.1945
C11 C 0.20796(13) 0.42766(13) -0.06308(14)
N1 N 0.25418(10) 0.41597(10) -0.01605(11)
O1 O 0.21418(8) 0.46521(8) -0.11568(9)
N2 N 0.14359(10) 0.33956(10) -0.00008(11)
C12 C 0.07554(14) 0.39518(13) 0.09038(15)
O2 O 0.02018(9) 0.40533(9) 0.11738(10)
C13 C 0.15973(14) 0.27555(13) -0.03357(15)
H23 H 0.1252 0.2648 -0.0682
H24 H 0.1613 0.2400 0.0017
H25 H 0.2035 0.2790 -0.0566
C14 C 0.08179(13) 0.33639(13) 0.04152(14)
H26 H 0.0815 0.2942 0.0688
H27 H 0.0425 0.3356 0.0099
N3 N 0.13192(10) 0.43028(10) 0.10091(11)
C15 C 0.14093(12) 0.39395(13) -0.05171(14)
H28 H 0.1080 0.4280 -0.0361
H29 H 0.1249 0.3755 -0.0966
Sn1C Sn 0.121387(9) 0.526100(9) -0.165194(10)
O1B O 0.28479(8) 0.46418(8) 0.13432(9)
loop_
_geom_bond_atom_site_label_1
_geom_bond_atom_site_label_2
_geom_bond_site_symmetry_1
_geom_bond_site_symmetry_2
Sn1 N1 1_555 1_555
C1 H1 1_555 1_555
H2 C1 1_555 1_555
C2 C1 1_555 1_555
C3 C2 1_555 1_555
H3 C3 1_555 1_555
H4 C3 1_555 1_555
H5 C3 1_555 1_555
C4 C2 1_555 1_555
H6 C4 1_555 1_555
H7 C4 1_555 1_555
H8 C4 1_555 1_555
C5 C2 1_555 1_555
H9 C5 1_555 1_555
H10 C5 1_555 1_555
H11 C5 1_555 1_555
C6 H12 1_555 1_555
H13 C6 1_555 1_555
C7 C6 1_555 1_555
C8 C7 1_555 1_555
H14 C8 1_555 1_555
H15 C8 1_555 1_555
H16 C8 1_555 1_555
C9 C7 1_555 1_555
H17 C9 1_555 1_555
H18 C9 1_555 1_555
H19 C9 1_555 1_555
C10 C7 1_555 1_555
H20 C10 1_555 1_555
H21 C10 1_555 1_555
H22 C10 1_555 1_555
C11 N1 1_555 1_555
N1 C1 1_555 1_555
O1 C11 1_555 1_555
N2 Sn1 1_555 1_555
C12 O2 1_555 1_555
C13 N2 1_555 1_555
H23 C13 1_555 1_555
H24 C13 1_555 1_555
H25 C13 1_555 1_555
C14 N2 1_555 1_555
H26 C14 1_555 1_555
H27 C14 1_555 1_555
N3 Sn1 1_555 1_555
C15 C11 1_555 1_555
H28 C15 1_555 1_555
H29 C15 1_555 1_555
Sn1C O1 1_555 1_555
O1B Sn1 1_555 1_555
C6 N3 1_555 1_555
N2 C15 1_555 1_555
C12 C14 1_555 1_555
C12 N3 1_555 1_555

#END
