
#######################################################################
#
#                 Cambridge Crystallographic Data Centre
#                                CCDC 
#
#######################################################################
#
# If this CIF has been generated from an entry in the Cambridge 
# Structural Database, then it will include bibliographic, chemical, 
# crystal, experimental, refinement or atomic coordinate data resulting 
# from the CCDC's data processing and validation procedures.
#
#######################################################################

data_PIBHEO
_symmetry_cell_setting           monoclinic
_symmetry_space_group_name_H-M   'P 21/c'
_symmetry_Int_Tables_number      14
_space_group_name_Hall           '-P 2ybc'
loop_
_symmetry_equiv_pos_site_id
_symmetry_equiv_pos_as_xyz
1 x,y,z
2 -x,1/2+y,1/2-z
3 -x,-y,-z
4 x,1/2-y,1/2+z
_cell_length_a                   9.7905(13)
_cell_length_b                   18.717(3)
_cell_length_c                   9.3206(13)
_cell_angle_alpha                90
_cell_angle_beta                 118.193(2)
_cell_angle_gamma                90
_cell_volume                     1505.35
loop_
_atom_site_label
_atom_site_type_symbol
_atom_site_fract_x
_atom_site_fract_y
_atom_site_fract_z
Cd1 Cd 0.0000 0.0000 0.0000
S1 S 0.53622(16) 0.08066(9) 0.22181(19)
N1 N -0.0127(3) 0.11455(14) 0.0915(3)
N2 N 0.0467(4) 0.22605(17) 0.1902(4)
N3 N -0.0851(4) 0.20362(16) 0.1880(3)
N4 N -0.8998(4) 0.40927(17) 0.1184(4)
N5 N -1.0534(4) 0.41001(19) 0.0262(4)
N6 N -0.9846(3) 0.45358(15) 0.2745(3)
N7 N 0.2672(4) 0.00678(17) 0.1459(4)
C1 C 0.0853(4) 0.1710(2) 0.1319(4)
H1 H 0.1738 0.1704 0.1189
C2 C -0.1187(4) 0.13734(19) 0.1297(4)
H2 H -0.2041 0.1111 0.1177
C3 C -0.1690(5) 0.2478(2) 0.2491(5)
H3 H -0.1077 0.2898 0.3011
H4 H -0.1823 0.2211 0.3309
C4 C -0.3214(4) 0.2702(2) 0.1210(5)
H5 H -0.3819 0.2285 0.0655
H6 H -0.3087 0.2992 0.0418
C5 C -0.4071(5) 0.3131(3) 0.1922(5)
H7 H -0.4037 0.2869 0.2837
H8 H -0.3532 0.3580 0.2335
C6 C -0.5640(5) 0.3279(3) 0.0805(6)
H9 H -0.6155 0.2836 0.0292
H10 H -0.5676 0.3592 -0.0041
C7 C -0.6540(5) 0.3638(3) 0.1631(6)
H11 H -0.6555 0.3316 0.2438
H12 H -0.6006 0.4071 0.2184
C8 C -0.8042(6) 0.3803(3) 0.0497(6)
H13 H -0.8535 0.3374 -0.0114
H14 H -0.8012 0.4149 -0.0263
C9 C -0.1407(4) -0.0653(2) 0.2343(4)
H15 H -0.2418 -0.0613 0.1504
C10 C -1.0987(4) 0.43734(19) 0.1251(4)
H16 H 0.2026 -0.0549 0.4054
C11 C 0.3790(4) 0.0375(2) 0.1779(4)
Cd1C Cd -1.0000 0.5000 0.5000
Cd1C_2 Cd -1.0000 -0.5000 0.5000
S1B S -0.53622(16) -0.08066(9) -0.22181(19)
N1A N -0.9873(3) -0.38545(14) 0.4085(3)
N1B N 0.0127(3) -0.11455(14) -0.0915(3)
N2A N -1.0467(4) -0.27395(17) 0.3098(4)
N3A N -0.9149(4) -0.29638(16) 0.3120(3)
N4A N -0.1002(4) -0.09073(17) 0.3816(4)
N5A N 0.0534(4) -0.08999(19) 0.4738(4)
N6C N 0.0154(3) 0.04642(15) -0.2255(3)
N6A N -0.0154(3) -0.04642(15) 0.2255(3)
N7B N -0.2672(4) -0.00678(17) -0.1459(4)
C1A C -1.0853(4) -0.3290(2) 0.3681(4)
H1A H -1.1738 -0.3296 0.3811
C2A C -0.8813(4) -0.36266(19) 0.3703(4)
H2A H -0.7959 -0.3889 0.3823
C3A C -0.8310(5) -0.2522(2) 0.2509(5)
H3A H -0.8923 -0.2102 0.1989
H4A H -0.8177 -0.2789 0.1691
C4A C -0.6786(4) -0.2298(2) 0.3790(5)
H5A H -0.6181 -0.2715 0.4345
H6A H -0.6913 -0.2008 0.4582
C5A C -0.5929(5) -0.1869(3) 0.3078(5)
H7A H -0.5963 -0.2131 0.2163
H8A H -0.6468 -0.1420 0.2665
C6A C -0.4360(5) -0.1721(3) 0.4195(6)
H9A H -0.3845 -0.2164 0.4708
H10A H -0.4324 -0.1408 0.5041
C7A C -0.3460(5) -0.1362(3) 0.3369(6)
H11A H -0.3445 -0.1684 0.2562
H12A H -0.3994 -0.0929 0.2816
C8A C -0.1958(6) -0.1197(3) 0.4503(6)
H13A H -0.1465 -0.1626 0.5114
H14A H -0.1988 -0.0851 0.5263
C9A C -0.8593(4) 0.4347(2) 0.2657(4)
H15A H -0.7582 0.4387 0.3496
C10A C 0.0987(4) -0.06266(19) 0.3749(4)
H16A H -1.2026 0.4451 0.0946
C11B C -0.3790(4) -0.0375(2) -0.1779(4)
loop_
_geom_bond_atom_site_label_1
_geom_bond_atom_site_label_2
_geom_bond_site_symmetry_1
_geom_bond_site_symmetry_2
Cd1 N1 1_555 1_555
S1 C11 1_555 1_555
N1 C1 1_555 1_555
N2 N3 1_555 1_555
N3 C2 1_555 1_555
N4 N5 1_555 1_555
N5 C10 1_555 1_555
N6 C10 1_555 1_555
N7 Cd1 1_555 1_555
C1 N2 1_555 1_555
H1 C1 1_555 1_555
C2 N1 1_555 1_555
H2 C2 1_555 1_555
C3 N3 1_555 1_555
H3 C3 1_555 1_555
H4 C3 1_555 1_555
C4 C3 1_555 1_555
H5 C4 1_555 1_555
H6 C4 1_555 1_555
C5 C4 1_555 1_555
H7 C5 1_555 1_555
H8 C5 1_555 1_555
C6 C5 1_555 1_555
H9 C6 1_555 1_555
H10 C6 1_555 1_555
C7 C6 1_555 1_555
H11 C7 1_555 1_555
H12 C7 1_555 1_555
C8 N4 1_555 1_555
H13 C8 1_555 1_555
H14 C8 1_555 1_555
C9 H15 1_555 1_555
C10 H16A 1_555 1_555
H16 C10A 1_555 1_555
C11 N7 1_555 1_555
Cd1C N6 1_555 1_555
Cd1C_2 N1A 1_555 1_555
S1B C11B 1_555 1_555
N1A C1A 1_555 1_555
N1B Cd1 1_555 1_555
N2A N3A 1_555 1_555
N3A C2A 1_555 1_555
N4A C9 1_555 1_555
N5A N4A 1_555 1_555
N6C Cd1 1_555 1_555
N6A Cd1 1_555 1_555
N7B Cd1 1_555 1_555
C1A N2A 1_555 1_555
H1A C1A 1_555 1_555
C2A N1A 1_555 1_555
H2A C2A 1_555 1_555
C3A N3A 1_555 1_555
H3A C3A 1_555 1_555
H4A C3A 1_555 1_555
C4A C3A 1_555 1_555
H5A C4A 1_555 1_555
H6A C4A 1_555 1_555
C5A C4A 1_555 1_555
H7A C5A 1_555 1_555
H8A C5A 1_555 1_555
C6A C5A 1_555 1_555
H9A C6A 1_555 1_555
H10A C6A 1_555 1_555
C7A C6A 1_555 1_555
H11A C7A 1_555 1_555
H12A C7A 1_555 1_555
C8A N4A 1_555 1_555
H13A C8A 1_555 1_555
H14A C8A 1_555 1_555
C9A N4 1_555 1_555
H15A C9A 1_555 1_555
C10A N5A 1_555 1_555
C11B N7B 1_555 1_555
N6 C9A 1_555 1_555
C7 C8 1_555 1_555
C9 N6A 1_555 1_555
N6A C10A 1_555 1_555
C7A C8A 1_555 1_555

#END
