
#######################################################################
#
#                 Cambridge Crystallographic Data Centre
#                                CCDC 
#
#######################################################################
#
# If this CIF has been generated from an entry in the Cambridge 
# Structural Database, then it will include bibliographic, chemical, 
# crystal, experimental, refinement or atomic coordinate data resulting 
# from the CCDC's data processing and validation procedures.
#
#######################################################################

data_PIBHIS
_symmetry_cell_setting           triclinic
_symmetry_space_group_name_H-M   'P -1'
_symmetry_Int_Tables_number      2
_space_group_name_Hall           '-P 1'
loop_
_symmetry_equiv_pos_site_id
_symmetry_equiv_pos_as_xyz
1 x,y,z
2 -x,-y,-z
_cell_length_a                   10.5449(8)
_cell_length_b                   10.7372(15)
_cell_length_c                   11.2106(8)
_cell_angle_alpha                98.1200(10)
_cell_angle_beta                 118.0360(10)
_cell_angle_gamma                92.8610(10)
_cell_volume                     1099.25
loop_
_atom_site_label
_atom_site_type_symbol
_atom_site_fract_x
_atom_site_fract_y
_atom_site_fract_z
Cd1 Cd 1.0000 0.5000 0.5000
N1 N 0.8266(3) 0.3839(3) 0.5324(3)
N2 N 0.8572(5) 0.2998(4) 0.6189(4)
N3 N 0.6326(3) 0.2947(3) 0.5247(3)
N4 N 0.9076(3) 0.3850(3) 0.2774(3)
N5 N 0.7807(5) 0.3089(4) 0.1994(5)
N6 N 0.8817(3) 0.3042(3) 0.0775(3)
N7 N 0.8481(3) 0.6551(3) 0.4135(3)
N8 N 0.8661(6) 0.7754(5) 0.4799(5)
N9 N 0.7067(3) 0.7712(3) 0.2768(3)
C1 C 0.6836(4) 0.3781(4) 0.4759(4)
H1 H 0.6274 0.4257 0.4115
C2 C 0.7429(4) 0.2452(4) 0.6176(4)
H2 H 0.7389 0.1859 0.6691
C3 C 0.4823(4) 0.2552(4) 0.4898(5)
H3 H 0.4239 0.3203 0.4499
H4 H 0.4787 0.2476 0.5733
C4 C 0.4180(5) 0.1296(4) 0.3892(5)
H5 H 0.3186 0.1102 0.3700
H6 H 0.4150 0.1406 0.3035
C5 C 0.4950(5) 0.0165(4) 0.4338(4)
H7 H 0.5924 0.0329 0.4469
H8 H 0.4451 -0.0566 0.3603
C6 C 0.7604(4) 0.2578(4) 0.0773(4)
H9 H 0.6813 0.2028 0.0074
C7 C 0.9676(4) 0.3793(3) 0.1965(4)
H10 H 1.0575 0.4221 0.2202
C8 C 0.9017(6) 0.2733(4) -0.0429(4)
H11 H 0.9947 0.3155 -0.0232
H12 H 0.8267 0.3045 -0.1192
C9 C 0.8955(6) 0.1309(5) -0.0837(5)
H13 H 0.7994 0.0904 -0.1100
H14 H 0.9092 0.1151 -0.1639
C10 C 1.0032(6) 0.0712(5) 0.0242(5)
H15 H 0.9869 0.0827 0.1031
H16 H 1.0994 0.1134 0.0535
C11 C 0.7813(5) 0.8483(4) 0.4004(4)
H17 H 0.7745 0.9334 0.4239
C12 C 0.7478(4) 0.6574(4) 0.2859(4)
H18 H 0.7114 0.5885 0.2133
C13 C 0.5980(4) 0.8155(4) 0.1566(5)
H19 H 0.5266 0.8509 0.1781
H20 H 0.5484 0.7441 0.0809
C14 C 0.6652(5) 0.9144(4) 0.1135(5)
H21 H 0.7366 0.8790 0.0922
H22 H 0.7149 0.9857 0.1894
C15 C 0.5512(5) 0.9621(4) -0.0133(4)
H23 H 0.6013 1.0139 -0.0465
H24 H 0.4954 0.8894 -0.0858
Cd1_2 Cd 0.0000 -0.5000 0.5000
Cd1_3 Cd 1.0000 -0.5000 -0.5000
Cd1_4 Cd 0.0000 1.5000 -0.5000
N1A N 0.1734(3) -0.3839(3) 0.4676(3)
N1A_2 N 1.1734(3) 0.6161(3) 0.4676(3)
N2A N 0.1428(5) -0.2998(4) 0.3811(4)
N3A N 0.3674(3) -0.2947(3) 0.4753(3)
N4A N 1.0924(3) -0.3850(3) -0.2774(3)
N4A_2 N 1.0924(3) 0.6150(3) 0.7226(3)
N5A N 1.2193(5) -0.3089(4) -0.1994(5)
N6A N 1.1183(3) -0.3042(3) -0.0775(3)
N7A N 0.1519(3) 1.3449(3) -0.4135(3)
N7A_2 N 1.1519(3) 0.3449(3) 0.5865(3)
N8A N 0.1339(6) 1.2246(5) -0.4799(5)
N9A N 0.2933(3) 1.2288(3) -0.2768(3)
C1A C 0.3164(4) -0.3781(4) 0.5241(4)
H1A H 0.3726 -0.4257 0.5885
C2A C 0.2571(4) -0.2452(4) 0.3824(4)
H2A H 0.2611 -0.1859 0.3309
C3A C 0.5177(4) -0.2552(4) 0.5102(5)
H3A H 0.5761 -0.3203 0.5501
H4A H 0.5213 -0.2476 0.4267
C4A C 0.5820(5) -0.1296(4) 0.6108(5)
H5A H 0.6814 -0.1102 0.6300
H6A H 0.5850 -0.1406 0.6965
C5A C 0.5050(5) -0.0165(4) 0.5662(4)
H7A H 0.4076 -0.0329 0.5531
H8A H 0.5549 0.0566 0.6397
C6A C 1.2396(4) -0.2578(4) -0.0773(4)
H9A H 1.3187 -0.2028 -0.0074
C7A C 1.0324(4) -0.3793(3) -0.1965(4)
H10A H 0.9425 -0.4221 -0.2202
C8A C 1.0983(6) -0.2733(4) 0.0429(4)
H11A H 1.0053 -0.3155 0.0232
H12A H 1.1733 -0.3045 0.1192
C9A C 1.1045(6) -0.1309(5) 0.0837(5)
H13A H 1.2006 -0.0904 0.1100
H14A H 1.0908 -0.1151 0.1639
C10A C 0.9968(6) -0.0712(5) -0.0242(5)
H15A H 1.0131 -0.0827 -0.1031
H16A H 0.9006 -0.1134 -0.0535
C11A C 0.2187(5) 1.1517(4) -0.4004(4)
H17A H 0.2255 1.0666 -0.4239
C12A C 0.2522(4) 1.3426(4) -0.2859(4)
H18A H 0.2886 1.4115 -0.2133
C13A C 0.4020(4) 1.1845(4) -0.1566(5)
H19A H 0.4734 1.1491 -0.1781
H20A H 0.4516 1.2559 -0.0809
C14A C 0.3348(5) 1.0856(4) -0.1135(5)
H21A H 0.2634 1.1210 -0.0922
H22A H 0.2851 1.0143 -0.1894
C15A C 0.4488(5) 1.0379(4) 0.0133(4)
H23A H 0.3987 0.9861 0.0465
H24A H 0.5046 1.1106 0.0858
Cl1 Cl 0.34631(12) 0.43950(11) 0.14011(12)
O1 O 0.4251(10) 0.5578(9) 0.1931(12)
O2 O 0.2373(6) 0.4308(6) 0.0061(5)
O3 O 0.2879(8) 0.4341(10) 0.2275(8)
O4 O 0.4360(9) 0.3502(8) 0.1562(6)
loop_
_geom_bond_atom_site_label_1
_geom_bond_atom_site_label_2
_geom_bond_site_symmetry_1
_geom_bond_site_symmetry_2
Cd1 N1 1_555 1_555
N1 N2 1_555 1_555
N2 C2 1_555 1_555
N3 C1 1_555 1_555
N4 Cd1 1_555 1_555
N5 N4 1_555 1_555
N6 C6 1_555 1_555
N7 Cd1 1_555 1_555
N8 N7 1_555 1_555
N9 C11 1_555 1_555
C1 N1 1_555 1_555
H1 C1 1_555 1_555
C2 N3 1_555 1_555
H2 C2 1_555 1_555
C3 N3 1_555 1_555
H3 C3 1_555 1_555
H4 C3 1_555 1_555
C4 C3 1_555 1_555
H5 C4 1_555 1_555
H6 C4 1_555 1_555
C5 C4 1_555 1_555
H7 C5 1_555 1_555
H8 C5 1_555 1_555
C6 N5 1_555 1_555
H9 C6 1_555 1_555
C7 N4 1_555 1_555
H10 C7 1_555 1_555
C8 N6 1_555 1_555
H11 C8 1_555 1_555
H12 C8 1_555 1_555
C9 C8 1_555 1_555
H13 C9 1_555 1_555
H14 C9 1_555 1_555
C10 C9 1_555 1_555
H15 C10 1_555 1_555
H16 C10 1_555 1_555
C11 N8 1_555 1_555
H17 C11 1_555 1_555
C12 N7 1_555 1_555
H18 C12 1_555 1_555
C13 N9 1_555 1_555
H19 C13 1_555 1_555
H20 C13 1_555 1_555
C14 C13 1_555 1_555
H21 C14 1_555 1_555
H22 C14 1_555 1_555
C15 C14 1_555 1_555
H23 C15 1_555 1_555
H24 C15 1_555 1_555
Cl1 O1 1_555 1_555
O2 Cl1 1_555 1_555
O3 Cl1 1_555 1_555
O4 Cl1 1_555 1_555
Cd1_2 N1A 1_555 1_555
Cd1_3 N4A 1_555 1_555
Cd1_4 N7A 1_555 1_555
N1A N2A 1_555 1_555
N1A_2 Cd1 1_555 1_555
N2A C2A 1_555 1_555
N3A C1A 1_555 1_555
N4A N5A 1_555 1_555
N4A_2 Cd1 1_555 1_555
N5A C6A 1_555 1_555
N6A C6A 1_555 1_555
N7A N8A 1_555 1_555
N7A_2 Cd1 1_555 1_555
N8A C11A 1_555 1_555
N9A C11A 1_555 1_555
C1A N1A 1_555 1_555
H1A C1A 1_555 1_555
C2A N3A 1_555 1_555
H2A C2A 1_555 1_555
C3A N3A 1_555 1_555
H3A C3A 1_555 1_555
H4A C3A 1_555 1_555
C4A C3A 1_555 1_555
H5A C4A 1_555 1_555
H6A C4A 1_555 1_555
C5A C5 1_555 1_555
H7A C5A 1_555 1_555
H8A C5A 1_555 1_555
C6A H9A 1_555 1_555
C7A N4A 1_555 1_555
H10A C7A 1_555 1_555
C8A N6A 1_555 1_555
H11A C8A 1_555 1_555
H12A C8A 1_555 1_555
C9A C8A 1_555 1_555
H13A C9A 1_555 1_555
H14A C9A 1_555 1_555
C10A C10 1_555 1_555
H15A C10A 1_555 1_555
H16A C10A 1_555 1_555
C11A H17A 1_555 1_555
C12A N7A 1_555 1_555
H18A C12A 1_555 1_555
C13A N9A 1_555 1_555
H19A C13A 1_555 1_555
H20A C13A 1_555 1_555
C14A C13A 1_555 1_555
H21A C14A 1_555 1_555
H22A C14A 1_555 1_555
C15A C15 1_555 1_555
H23A C15A 1_555 1_555
H24A C15A 1_555 1_555
N6 C7 1_555 1_555
N9 C12 1_555 1_555
N6A C7A 1_555 1_555
N9A C12A 1_555 1_555
C4A C5A 1_555 1_555
C9A C10A 1_555 1_555
C14A C15A 1_555 1_555

#END
