
#######################################################################
#
#                 Cambridge Crystallographic Data Centre
#                                CCDC 
#
#######################################################################
#
# If this CIF has been generated from an entry in the Cambridge 
# Structural Database, then it will include bibliographic, chemical, 
# crystal, experimental, refinement or atomic coordinate data resulting 
# from the CCDC's data processing and validation procedures.
#
#######################################################################

data_PIBJER
_symmetry_cell_setting           monoclinic
_symmetry_space_group_name_H-M   'P 21/n'
_symmetry_Int_Tables_number      14
_space_group_name_Hall           '-P 2yn'
loop_
_symmetry_equiv_pos_site_id
_symmetry_equiv_pos_as_xyz
1 x,y,z
2 1/2-x,1/2+y,1/2-z
3 -x,-y,-z
4 1/2+x,1/2-y,1/2+z
_cell_length_a                   11.3781(8)
_cell_length_b                   8.6401(6)
_cell_length_c                   18.6461(13)
_cell_angle_alpha                90
_cell_angle_beta                 94.0700(10)
_cell_angle_gamma                90
_cell_volume                     1828.44
loop_
_atom_site_label
_atom_site_type_symbol
_atom_site_fract_x
_atom_site_fract_y
_atom_site_fract_z
Zn1 Zn 0.224259(17) 0.04346(2) 0.824322(11)
N1 N 0.03531(14) 0.04670(19) 0.82610(9)
N2 N -0.58628(14) 0.0448(2) 0.82602(9)
O1 O 0.20071(13) 0.07662(16) 0.71240(8)
O2 O 0.27573(12) 0.31194(16) 0.70670(8)
O3 O 0.23509(15) 0.28154(18) 0.85282(10)
O4 O 0.23163(15) -0.0200(2) 0.93675(9)
C1 C -0.02076(18) 0.1484(3) 0.86540(13)
C2 C -0.14229(17) 0.1526(3) 0.86684(13)
C3 C -0.21031(15) 0.0467(2) 0.82645(11)
C4 C -0.15141(18) -0.0590(3) 0.78624(14)
C5 C -0.02994(18) -0.0551(3) 0.78751(14)
C6 C -0.51901(18) 0.0835(3) 0.88476(12)
C7 C -0.39729(18) 0.0865(3) 0.88728(12)
C8 C -0.34011(15) 0.0475(2) 0.82647(11)
C9 C -0.41058(18) 0.0071(3) 0.76520(12)
C10 C -0.53136(18) 0.0069(3) 0.76730(12)
C11 C 0.22180(17) 0.1983(2) 0.68005(11)
H1 H 0.031(2) 0.224(3) 0.8901(16)
H2 H -0.175(2) 0.228(3) 0.8942(15)
H3 H -0.193(3) -0.133(4) 0.7567(16)
H4 H 0.006(3) -0.119(4) 0.7625(17)
H5 H -0.560(2) 0.112(3) 0.9283(14)
H6 H -0.355(2) 0.109(3) 0.9319(15)
H7 H -0.371(3) -0.016(3) 0.7203(15)
H8 H -0.576(2) -0.022(3) 0.7251(15)
H9 H 0.195(2) 0.206(3) 0.6316(15)
H10 H 0.264(3) 0.327(4) 0.8272(18)
H11 H 0.241(3) 0.334(4) 0.8932(17)
H12 H 0.176(3) -0.094(5) 0.937(2)
H13 H 0.222(3) 0.041(4) 0.9663(18)
Zn1_2 Zn -0.775741(17) 0.04346(2) 0.824322(11)
Zn1A Zn 0.275741(17) 0.54346(2) 0.675678(11)
N2_2 N 0.41372(14) 0.0448(2) 0.82602(9)
O2A O 0.22427(12) -0.18806(16) 0.79330(8)
C12 C -0.1264(5) 0.1072(5) 0.5858(3)
S1 S -0.27386(9) 0.12079(9) 0.54371(4)
O5 O -0.2945(3) 0.2826(3) 0.53571(14)
O6 O -0.2712(4) 0.0415(3) 0.47700(14)
O7 O -0.3452(4) 0.0479(4) 0.59450(17)
F1 F -0.0959(4) -0.0359(3) 0.5963(2)
F2 F -0.0528(3) 0.1729(5) 0.5430(2)
F3 F -0.1165(3) 0.1777(3) 0.64726(16)
O8 O 0.0833(2) -0.2623(3) 0.95317(16)
loop_
_geom_bond_atom_site_label_1
_geom_bond_atom_site_label_2
_geom_bond_site_symmetry_1
_geom_bond_site_symmetry_2
Zn1 N1 1_555 1_555
N1 C1 1_555 1_555
N2 C6 1_555 1_555
O1 Zn1 1_555 1_555
O2 C11 1_555 1_555
O3 Zn1 1_555 1_555
O4 Zn1 1_555 1_555
C1 C2 1_555 1_555
C2 C3 1_555 1_555
C3 C4 1_555 1_555
C4 C5 1_555 1_555
C5 N1 1_555 1_555
C6 C7 1_555 1_555
C7 C8 1_555 1_555
C8 C3 1_555 1_555
C9 C8 1_555 1_555
C10 N2 1_555 1_555
C11 O1 1_555 1_555
H1 C1 1_555 1_555
H2 C2 1_555 1_555
H3 C4 1_555 1_555
H4 C5 1_555 1_555
H5 C6 1_555 1_555
H6 C7 1_555 1_555
H7 C9 1_555 1_555
H8 C10 1_555 1_555
H9 C11 1_555 1_555
H10 O3 1_555 1_555
H11 O3 1_555 1_555
H12 O4 1_555 1_555
H13 O4 1_555 1_555
C12 S1 1_555 1_555
S1 O5 1_555 1_555
O6 S1 1_555 1_555
O7 S1 1_555 1_555
F1 C12 1_555 1_555
F2 C12 1_555 1_555
F3 C12 1_555 1_555
Zn1_2 N2 1_555 1_555
Zn1A O2 1_555 1_555
N2_2 Zn1 1_555 1_555
O2A Zn1 1_555 1_555
C9 C10 1_555 1_555

#END
