
#######################################################################
#
#                 Cambridge Crystallographic Data Centre
#                                CCDC 
#
#######################################################################
#
# If this CIF has been generated from an entry in the Cambridge 
# Structural Database, then it will include bibliographic, chemical, 
# crystal, experimental, refinement or atomic coordinate data resulting 
# from the CCDC's data processing and validation procedures.
#
#######################################################################

data_PIBJIV
_symmetry_cell_setting           monoclinic
_symmetry_space_group_name_H-M   'C 2/c'
_symmetry_Int_Tables_number      15
_space_group_name_Hall           '-C 2yn'
loop_
_symmetry_equiv_pos_site_id
_symmetry_equiv_pos_as_xyz
1 x,y,z
2 -x,y,1/2-z
3 1/2+x,1/2+y,z
4 1/2-x,1/2+y,1/2-z
5 -x,-y,-z
6 x,-y,1/2+z
7 1/2-x,1/2-y,-z
8 1/2+x,1/2-y,1/2+z
_cell_length_a                   26.410(5)
_cell_length_b                   18.994(4)
_cell_length_c                   24.211(5)
_cell_angle_alpha                90
_cell_angle_beta                 130.556(2)
_cell_angle_gamma                90
_cell_volume                     9227.42
loop_
_atom_site_label
_atom_site_type_symbol
_atom_site_fract_x
_atom_site_fract_y
_atom_site_fract_z
Zn1 Zn 0.18880(3) 0.43616(3) 0.43735(3)
Zn2 Zn 0.2500 0.2500 0.5000
Zn3 Zn 0.39797(3) 0.52890(4) 0.64690(3)
Zn4 Zn 0.0000 0.54368(4) 0.2500
N1 N 0.2309(2) 0.4417(2) 0.3844(2)
N2 N 0.3615(2) 0.4653(3) 0.2047(3)
N3 N 0.1466(2) 0.4428(2) 0.4898(2)
N4 N 0.0259(2) 0.4578(2) 0.6802(2)
N5 N 0.2875(2) 0.2480(2) 0.4442(2)
N6 N 0.4233(3) 0.2209(3) 0.2712(3)
N7 N 0.4350(2) 0.5172(3) 0.5898(3)
O1 O 0.11512(16) 0.36874(18) 0.36029(18)
O2 O 0.15118(18) 0.25875(17) 0.39990(19)
O3 O 0.32285(19) 0.6025(2) 0.5658(2)
O4 O 0.26061(16) 0.36278(17) 0.51153(17)
O5 O 0.0000 0.4348(3) 0.2500
O6 O 0.31382(18) 0.4598(2) 0.56677(19)
O7 O 0.0000 0.6523(3) 0.2500
O8 O 0.4436(2) 0.4362(2) 0.6986(2)
O9 O 0.4533(3) 0.6177(3) 0.6928(3)
O10 O 0.10097(17) 0.5323(2) 0.34332(18)
O11 O 0.20129(18) 0.5447(2) 0.45026(19)
C1 C 0.2745(3) 0.4919(4) 0.4016(3)
H1 H 0.2874 0.5240 0.4378
C2 C 0.3011(3) 0.4983(4) 0.3685(4)
H2 H 0.3309 0.5345 0.3821
C3 C 0.2836(3) 0.4509(3) 0.3144(3)
C4 C 0.2393(3) 0.3980(3) 0.2982(3)
H3 H 0.2263 0.3643 0.2634
C5 C 0.2146(3) 0.3956(3) 0.3337(3)
H4 H 0.1849 0.3598 0.3215
C6 C 0.3650(4) 0.5196(4) 0.2428(4)
H5 H 0.3846 0.5613 0.2448
C7 C 0.3411(4) 0.5165(4) 0.2787(4)
H6 H 0.3453 0.5556 0.3046
C8 C 0.3107(3) 0.4561(3) 0.2769(3)
C9 C 0.3067(3) 0.4002(3) 0.2369(3)
H7 H 0.2866 0.3583 0.2333
C10 C 0.3322(3) 0.4070(3) 0.2026(3)
H8 H 0.3289 0.3687 0.1764
C11 C 0.1723(3) 0.4870(4) 0.5452(3)
H9 H 0.2082 0.5149 0.5602
C12 C 0.1485(3) 0.4931(4) 0.5810(3)
H10 H 0.1683 0.5251 0.6190
C13 C 0.0952(2) 0.4524(3) 0.5614(3)
C14 C 0.0676(3) 0.4085(3) 0.5025(3)
H11 H 0.0310 0.3808 0.4855
C15 C 0.0939(3) 0.4054(3) 0.4687(3)
H12 H 0.0739 0.3755 0.4290
C16 C 0.0761(4) 0.4982(4) 0.6983(4)
H13 H 0.0972 0.5273 0.7388
C17 C 0.0977(4) 0.4987(4) 0.6602(4)
H14 H 0.1328 0.5283 0.6753
C18 C 0.0690(3) 0.4566(3) 0.6000(3)
C19 C 0.0146(3) 0.4183(3) 0.5787(3)
H15 H -0.0088 0.3908 0.5369
C20 C -0.0052(3) 0.4207(3) 0.6195(3)
H16 H -0.0426 0.3949 0.6033
C21 C 0.2553(3) 0.2160(3) 0.3803(3)
H17 H 0.2141 0.1958 0.3590
C22 C 0.2784(3) 0.2109(3) 0.3445(3)
H18 H 0.2533 0.1881 0.2998
C23 C 0.3400(3) 0.2399(3) 0.3749(3)
C24 C 0.3733(3) 0.2745(4) 0.4405(3)
H19 H 0.4140 0.2962 0.4623
C25 C 0.3464(3) 0.2767(3) 0.4738(3)
H20 H 0.3702 0.2990 0.5186
C26 C 0.3610(4) 0.2046(4) 0.2375(4)
H21 H 0.3349 0.1883 0.1899
C27 C 0.3323(3) 0.2103(4) 0.2682(4)
H22 H 0.2879 0.1978 0.2415
C28 C 0.3689(3) 0.2345(3) 0.3387(3)
C29 C 0.4341(4) 0.2532(4) 0.3743(4)
H23 H 0.4612 0.2698 0.4219
C30 C 0.4584(4) 0.2470(4) 0.3387(5)
H24 H 0.5018 0.2619 0.3629
C31 C 0.4553(4) 0.4550(4) 0.5844(4)
H25 H 0.4518 0.4155 0.6045
C32 C 0.4814(4) 0.4465(3) 0.5503(4)
H26 H 0.4955 0.4023 0.5487
C33 C 0.4865(3) 0.5037(3) 0.5187(3)
C34 C 0.4650(3) 0.5677(3) 0.5250(4)
H27 H 0.4677 0.6081 0.5053
C35 C 0.4402(3) 0.5722(3) 0.5593(4)
H28 H 0.4260 0.6160 0.5617
C36 C 0.1094(2) 0.3019(3) 0.3574(3)
H29 H 0.0681 0.2840 0.3179
C37 C 0.3121(2) 0.3959(3) 0.5643(3)
H30 H 0.3493 0.3705 0.6020
C38 C 0.5000 0.4085(5) 0.7500
H31 H 0.5000 0.3596 0.7500
C39 C 0.5000 0.6416(4) 0.7500
H32 H 0.5000 0.6906 0.7500
C40 C 0.1462(2) 0.5691(3) 0.3927(3)
H33 H 0.1403 0.6177 0.3883
N7D N 0.5650(2) 0.4828(3) 0.4102(3)
C31D C 0.5447(4) 0.5450(4) 0.4156(4)
H25D H 0.5482 0.5845 0.3955
C32D C 0.5186(4) 0.5535(3) 0.4497(4)
H26D H 0.5045 0.5977 0.4513
C33D C 0.5135(3) 0.4963(3) 0.4813(3)
C34D C 0.5350(3) 0.4323(3) 0.4750(4)
H27D H 0.5323 0.3919 0.4947
C35D C 0.5598(3) 0.4278(3) 0.4407(4)
H28D H 0.5740 0.3840 0.4383
O8A O 0.5564(2) 0.4362(2) 0.8014(2)
O9A O 0.5467(3) 0.6177(3) 0.8072(3)
Zn1A Zn -0.18880(3) 0.43616(3) 0.06265(3)
Zn3A Zn -0.39797(3) 0.52890(4) -0.14690(3)
N1A N -0.2309(2) 0.4417(2) 0.1156(2)
N2A N -0.3615(2) 0.4653(3) 0.2953(3)
N3A N -0.1466(2) 0.4428(2) 0.0102(2)
N4A N -0.0259(2) 0.4578(2) -0.1802(2)
O1A O -0.11512(16) 0.36874(18) 0.13971(18)
O2A O -0.15118(18) 0.25875(17) 0.10010(19)
O3A O -0.32285(19) 0.6025(2) -0.0658(2)
O4A O -0.26061(16) 0.36278(17) -0.01153(17)
O6A O -0.31382(18) 0.4598(2) -0.06677(19)
O10A O -0.10097(17) 0.5323(2) 0.15668(18)
O11A O -0.20129(18) 0.5447(2) 0.04974(19)
C1A C -0.2745(3) 0.4919(4) 0.0984(3)
H1A H -0.2874 0.5240 0.0622
C2A C -0.3011(3) 0.4983(4) 0.1315(4)
H2A H -0.3309 0.5345 0.1179
C3A C -0.2836(3) 0.4509(3) 0.1856(3)
C4A C -0.2393(3) 0.3980(3) 0.2018(3)
H3A H -0.2263 0.3643 0.2366
C5A C -0.2146(3) 0.3956(3) 0.1663(3)
H4A H -0.1849 0.3598 0.1785
C6A C -0.3650(4) 0.5196(4) 0.2572(4)
H5A H -0.3846 0.5613 0.2552
C7A C -0.3411(4) 0.5165(4) 0.2213(4)
H6A H -0.3453 0.5556 0.1954
C8A C -0.3107(3) 0.4561(3) 0.2231(3)
C9A C -0.3067(3) 0.4002(3) 0.2631(3)
H7A H -0.2866 0.3583 0.2667
C10A C -0.3322(3) 0.4070(3) 0.2974(3)
H8A H -0.3289 0.3687 0.3236
C11A C -0.1723(3) 0.4870(4) -0.0452(3)
H9A H -0.2082 0.5149 -0.0602
C12A C -0.1485(3) 0.4931(4) -0.0810(3)
H10A H -0.1683 0.5251 -0.1190
C13A C -0.0952(2) 0.4524(3) -0.0614(3)
C14A C -0.0676(3) 0.4085(3) -0.0025(3)
H11A H -0.0310 0.3808 0.0145
C15A C -0.0939(3) 0.4054(3) 0.0313(3)
H12A H -0.0739 0.3755 0.0710
C16A C -0.0761(4) 0.4982(4) -0.1983(4)
H13A H -0.0972 0.5273 -0.2388
C17A C -0.0977(4) 0.4987(4) -0.1602(4)
H14A H -0.1328 0.5283 -0.1753
C18A C -0.0690(3) 0.4566(3) -0.1000(3)
C19A C -0.0146(3) 0.4183(3) -0.0787(3)
H15A H 0.0088 0.3908 -0.0369
C20A C 0.0052(3) 0.4207(3) -0.1195(3)
H16A H 0.0426 0.3949 -0.1033
C36A C -0.1094(2) 0.3019(3) 0.1426(3)
H29A H -0.0681 0.2840 0.1821
C37A C -0.3121(2) 0.3959(3) -0.0643(3)
H30A H -0.3493 0.3705 -0.1020
C40A C -0.1462(2) 0.5691(3) 0.1073(3)
H33A H -0.1403 0.6177 0.1117
N5F N 0.2125(2) 0.2520(2) 0.5558(2)
N6F N 0.0767(3) 0.2791(3) 0.7288(3)
C21F C 0.2447(3) 0.2840(3) 0.6197(3)
H17F H 0.2859 0.3042 0.6410
C22F C 0.2216(3) 0.2891(3) 0.6555(3)
H18F H 0.2467 0.3119 0.7002
C23F C 0.1600(3) 0.2601(3) 0.6251(3)
C24F C 0.1267(3) 0.2255(4) 0.5595(3)
H19F H 0.0860 0.2038 0.5377
C25F C 0.1536(3) 0.2233(3) 0.5262(3)
H20F H 0.1298 0.2010 0.4814
C26F C 0.1390(4) 0.2954(4) 0.7625(4)
H21F H 0.1651 0.3117 0.8101
C27F C 0.1677(3) 0.2897(4) 0.7318(4)
H22F H 0.2121 0.3022 0.7585
C28F C 0.1311(3) 0.2655(3) 0.6613(3)
C29F C 0.0659(4) 0.2468(4) 0.6257(4)
H23F H 0.0388 0.2302 0.5781
C30F C 0.0416(4) 0.2530(4) 0.6613(5)
H24F H -0.0018 0.2381 0.6371
Zn2A Zn -0.2500 0.2500 0.0000
Zn3A_2 Zn 0.60203(3) 0.52890(4) 0.85310(3)
Zn3D Zn -0.39797(3) 0.47110(4) 0.35310(3)
Zn3D_2 Zn 0.60203(3) 0.47110(4) 0.35310(3)
Zn3E Zn 0.39797(3) 0.47110(4) 0.14690(3)
Zn4D Zn 0.0000 0.45632(4) -0.2500
Zn4D_2 Zn 0.0000 0.45632(4) 0.7500
N2D N -0.3615(2) 0.5347(3) -0.2047(3)
N2E N 0.3615(2) 0.5347(3) 0.7047(3)
N4D N -0.0259(2) 0.5422(2) 0.3198(2)
N4E N 0.0259(2) 0.5422(2) 0.1802(2)
N7A N -0.4350(2) 0.5172(3) -0.0898(3)
O2F O 0.34882(18) 0.24125(17) 0.60010(19)
O4F O 0.23939(16) 0.13722(17) 0.48847(17)
O8A_2 O -0.4436(2) 0.4362(2) -0.1986(2)
O9A_2 O -0.4533(3) 0.6177(3) -0.1928(3)
P1 P 0.06517(9) 0.24473(9) 0.16207(10)
F1 F 0.0352(6) 0.2664(6) 0.0896(6)
F2 F 0.0937(6) 0.2150(6) 0.2366(6)
F3 F 0.0898(5) 0.1792(4) 0.1508(6)
F4 F 0.0394(5) 0.3069(4) 0.1769(5)
F5 F -0.0020(4) 0.2065(5) 0.1313(5)
F6 F 0.1303(4) 0.2784(5) 0.1974(6)
P2 P 0.16919(11) 0.26270(11) 0.03812(12)
F7 F 0.1012(4) 0.2421(5) 0.0138(4)
F8 F 0.2369(4) 0.2827(6) 0.0616(5)
F9 F 0.1983(4) 0.2811(4) 0.1162(3)
F10 F 0.1422(4) 0.2400(3) -0.0400(4)
F11 F 0.1943(5) 0.1868(4) 0.0638(5)
F12 F 0.1432(6) 0.3362(4) 0.0113(4)
loop_
_geom_bond_atom_site_label_1
_geom_bond_atom_site_label_2
_geom_bond_site_symmetry_1
_geom_bond_site_symmetry_2
Zn1 N1 1_555 1_555
Zn2 N5 1_555 1_555
Zn3 N7 1_555 1_555
Zn4 O5 1_555 1_555
N1 C1 1_555 1_555
N2 C6 1_555 1_555
N3 Zn1 1_555 1_555
N4 C16 1_555 1_555
N5 C21 1_555 1_555
N6 C26 1_555 1_555
N7 C31 1_555 1_555
O1 Zn1 1_555 1_555
O2 Zn2 1_555 1_555
O3 Zn3 1_555 1_555
O4 Zn1 1_555 1_555
O6 Zn3 1_555 1_555
O7 Zn4 1_555 1_555
O8 Zn3 1_555 1_555
O9 Zn3 1_555 1_555
O10 Zn4 1_555 1_555
O11 Zn1 1_555 1_555
C1 H1 1_555 1_555
C2 C1 1_555 1_555
H2 C2 1_555 1_555
C3 C2 1_555 1_555
C4 C3 1_555 1_555
H3 C4 1_555 1_555
C5 N1 1_555 1_555
H4 C5 1_555 1_555
C6 H5 1_555 1_555
C7 C6 1_555 1_555
H6 C7 1_555 1_555
C8 C3 1_555 1_555
C9 C8 1_555 1_555
H7 C9 1_555 1_555
C10 N2 1_555 1_555
H8 C10 1_555 1_555
C11 N3 1_555 1_555
H9 C11 1_555 1_555
C12 C11 1_555 1_555
H10 C12 1_555 1_555
C13 C12 1_555 1_555
C14 C13 1_555 1_555
H11 C14 1_555 1_555
C15 N3 1_555 1_555
H12 C15 1_555 1_555
C16 H13 1_555 1_555
C17 C16 1_555 1_555
H14 C17 1_555 1_555
C18 C13 1_555 1_555
C19 C18 1_555 1_555
H15 C19 1_555 1_555
C20 N4 1_555 1_555
H16 C20 1_555 1_555
C21 H17 1_555 1_555
C22 C21 1_555 1_555
H18 C22 1_555 1_555
C23 C22 1_555 1_555
C24 C23 1_555 1_555
H19 C24 1_555 1_555
C25 N5 1_555 1_555
H20 C25 1_555 1_555
C26 H21 1_555 1_555
C27 C26 1_555 1_555
H22 C27 1_555 1_555
C28 C23 1_555 1_555
C29 C28 1_555 1_555
H23 C29 1_555 1_555
C30 N6 1_555 1_555
H24 C30 1_555 1_555
C31 H25 1_555 1_555
C32 C31 1_555 1_555
H26 C32 1_555 1_555
C33 C32 1_555 1_555
C34 C33 1_555 1_555
H27 C34 1_555 1_555
C35 N7 1_555 1_555
H28 C35 1_555 1_555
C36 O1 1_555 1_555
H29 C36 1_555 1_555
C37 O4 1_555 1_555
H30 C37 1_555 1_555
C38 O8 1_555 1_555
H31 C38 1_555 1_555
C39 O9 1_555 1_555
H32 C39 1_555 1_555
C40 O10 1_555 1_555
H33 C40 1_555 1_555
P1 F1 1_555 1_555
F2 P1 1_555 1_555
F3 P1 1_555 1_555
F4 P1 1_555 1_555
F5 P1 1_555 1_555
F6 P1 1_555 1_555
P2 F7 1_555 1_555
F8 P2 1_555 1_555
F9 P2 1_555 1_555
F10 P2 1_555 1_555
F11 P2 1_555 1_555
F12 P2 1_555 1_555
N7D C31D 1_555 1_555
C31D H25D 1_555 1_555
C32D C31D 1_555 1_555
H26D C32D 1_555 1_555
C33D C33 1_555 1_555
C34D C33D 1_555 1_555
H27D C34D 1_555 1_555
C35D N7D 1_555 1_555
H28D C35D 1_555 1_555
O8A C38 1_555 1_555
O9A C39 1_555 1_555
Zn1A N1A 1_555 1_555
Zn3A O3A 1_555 1_555
N1A C1A 1_555 1_555
N2A C6A 1_555 1_555
N3A Zn1A 1_555 1_555
N4A C16A 1_555 1_555
O1A Zn1A 1_555 1_555
O2A C36A 1_555 1_555
O4A Zn1A 1_555 1_555
O6A Zn3A 1_555 1_555
O10A Zn4 1_555 1_555
O11A Zn1A 1_555 1_555
C1A H1A 1_555 1_555
C2A C1A 1_555 1_555
H2A C2A 1_555 1_555
C3A C2A 1_555 1_555
C4A C3A 1_555 1_555
H3A C4A 1_555 1_555
C5A N1A 1_555 1_555
H4A C5A 1_555 1_555
C6A H5A 1_555 1_555
C7A C6A 1_555 1_555
H6A C7A 1_555 1_555
C8A C3A 1_555 1_555
C9A C8A 1_555 1_555
H7A C9A 1_555 1_555
C10A N2A 1_555 1_555
H8A C10A 1_555 1_555
C11A N3A 1_555 1_555
H9A C11A 1_555 1_555
C12A C11A 1_555 1_555
H10A C12A 1_555 1_555
C13A C12A 1_555 1_555
C14A C13A 1_555 1_555
H11A C14A 1_555 1_555
C15A N3A 1_555 1_555
H12A C15A 1_555 1_555
C16A H13A 1_555 1_555
C17A C16A 1_555 1_555
H14A C17A 1_555 1_555
C18A C13A 1_555 1_555
C19A C18A 1_555 1_555
H15A C19A 1_555 1_555
C20A N4A 1_555 1_555
H16A C20A 1_555 1_555
C36A O1A 1_555 1_555
H29A C36A 1_555 1_555
C37A O4A 1_555 1_555
H30A C37A 1_555 1_555
C40A O10A 1_555 1_555
H33A C40A 1_555 1_555
N5F Zn2 1_555 1_555
N6F C26F 1_555 1_555
C21F N5F 1_555 1_555
H17F C21F 1_555 1_555
C22F C21F 1_555 1_555
H18F C22F 1_555 1_555
C23F C22F 1_555 1_555
C24F C23F 1_555 1_555
H19F C24F 1_555 1_555
C25F N5F 1_555 1_555
H20F C25F 1_555 1_555
C26F H21F 1_555 1_555
C27F C26F 1_555 1_555
H22F C27F 1_555 1_555
C28F C23F 1_555 1_555
C29F C28F 1_555 1_555
H23F C29F 1_555 1_555
C30F N6F 1_555 1_555
H24F C30F 1_555 1_555
Zn2A O2A 1_555 1_555
Zn3A_2 O8A 1_555 1_555
Zn3D N2A 1_555 1_555
Zn3D_2 N7D 1_555 1_555
Zn3E N2 1_555 1_555
Zn4D N4A 1_555 1_555
Zn4D_2 N4 1_555 1_555
N2D Zn3A 1_555 1_555
N2E Zn3 1_555 1_555
N4D Zn4 1_555 1_555
N4E Zn4 1_555 1_555
N7A Zn3A 1_555 1_555
O2F Zn2 1_555 1_555
O4F Zn2 1_555 1_555
O8A_2 Zn3A 1_555 1_555
O9A_2 Zn3A 1_555 1_555
Zn2 O4 1_555 1_555
O2 C36 1_555 1_555
O6 C37 1_555 1_555
O11 C40 1_555 1_555
C4 C5 1_555 1_555
C7 C8 1_555 1_555
C9 C10 1_555 1_555
C14 C15 1_555 1_555
C17 C18 1_555 1_555
C19 C20 1_555 1_555
C24 C25 1_555 1_555
C27 C28 1_555 1_555
C29 C30 1_555 1_555
C34 C35 1_555 1_555
C32D C33D 1_555 1_555
C34D C35D 1_555 1_555
O9A Zn3A_2 1_555 1_555
O4A Zn2A 1_555 1_555
O6A C37A 1_555 1_555
O11A C40A 1_555 1_555
C4A C5A 1_555 1_555
C7A C8A 1_555 1_555
C9A C10A 1_555 1_555
C14A C15A 1_555 1_555
C17A C18A 1_555 1_555
C19A C20A 1_555 1_555
C24F C25F 1_555 1_555
C27F C28F 1_555 1_555
C29F C30F 1_555 1_555

#END
