
#######################################################################
#
#                 Cambridge Crystallographic Data Centre
#                                CCDC 
#
#######################################################################
#
# If this CIF has been generated from an entry in the Cambridge 
# Structural Database, then it will include bibliographic, chemical, 
# crystal, experimental, refinement or atomic coordinate data resulting 
# from the CCDC's data processing and validation procedures.
#
#######################################################################

data_PIBJAN
_symmetry_cell_setting           triclinic
_symmetry_space_group_name_H-M   'P -1'
_symmetry_Int_Tables_number      2
_space_group_name_Hall           '-P 1'
loop_
_symmetry_equiv_pos_site_id
_symmetry_equiv_pos_as_xyz
1 x,y,z
2 -x,-y,-z
_cell_length_a                   10.3958(9)
_cell_length_b                   12.4132(11)
_cell_length_c                   14.2678(12)
_cell_angle_alpha                111.477(2)
_cell_angle_beta                 98.397(2)
_cell_angle_gamma                109.528(2)
_cell_volume                     1537.31
loop_
_atom_site_label
_atom_site_type_symbol
_atom_site_fract_x
_atom_site_fract_y
_atom_site_fract_z
Zn1 Zn 0.5000 0.0000 0.5000
Zn2 Zn 0.63569(4) 0.27819(3) 0.77695(3)
O1 O 0.8550(2) 0.3331(2) 0.76177(19)
O2 O 0.6780(2) 0.1682(2) 0.63110(17)
O3 O 0.4218(2) 0.1918(2) 0.74332(18)
O4 O 0.3555(2) 0.0294(2) 0.58379(18)
O5 O 0.6901(3) 0.4160(2) 0.9286(2)
N1 N 0.4674(3) 0.1219(2) 0.4364(2)
N2 N 0.6698(3) 0.1503(2) 0.8397(2)
N3 N 0.7111(4) -0.3444(3) 0.9623(2)
N4 N 0.3996(3) 0.5927(2) 0.2876(2)
C1 C 0.5759(4) 0.2013(3) 0.4216(3)
H1 H 0.6622 0.1936 0.4310
C2 C 0.5683(4) 0.2937(3) 0.3935(3)
H2 H 0.6485 0.3467 0.3850
C3 C 0.4430(3) 0.3090(3) 0.3777(2)
C4 C 0.3281(4) 0.2231(4) 0.3894(3)
H3 H 0.2394 0.2263 0.3773
C5 C 0.3445(4) 0.1336(4) 0.4185(3)
H4 H 0.2655 0.0780 0.4262
C6 C 0.4308(3) 0.4090(3) 0.3486(2)
C7 C 0.5285(4) 0.4710(3) 0.3087(3)
H5 H 0.6067 0.4520 0.3008
C8 C 0.3185(4) 0.4434(3) 0.3578(3)
H6 H 0.2503 0.4060 0.3852
C9 C 0.7961(4) 0.1462(3) 0.8673(3)
H7 H 0.8774 0.2081 0.8679
C10 C 0.8115(4) 0.0553(4) 0.8946(3)
H8 H 0.9017 0.0558 0.9113
C11 C 0.6948(4) -0.0373(3) 0.8977(2)
C12 C 0.5647(4) -0.0303(3) 0.8716(3)
H9 H 0.4821 -0.0890 0.8730
C13 C 0.5577(4) 0.0629(3) 0.8438(3)
H10 H 0.4689 0.0649 0.8269
C14 C 0.8110(4) -0.2807(4) 0.9309(3)
H11 H 0.8847 -0.3059 0.9213
C15 C 0.8129(4) -0.1792(3) 0.9114(3)
H12 H 0.8869 -0.1372 0.8905
C16 C 0.7027(4) -0.1403(3) 0.9233(3)
C17 C 0.6004(4) -0.2048(4) 0.9585(3)
H13 H 0.5265 -0.1806 0.9704
C18 C 0.6074(5) -0.3055(4) 0.9761(3)
H14 H 0.5362 -0.3481 0.9988
C19 C 0.3072(4) 0.5334(3) 0.3262(3)
H15 H 0.2295 0.5537 0.3325
C20 C 0.5096(4) 0.5615(4) 0.2804(3)
H16 H 0.5777 0.6028 0.2550
C21 C 0.8105(4) 0.2427(3) 0.6694(3)
C22 C 0.9104(4) 0.2235(4) 0.6069(4)
H17 H 0.8617 0.1972 0.5336
H18 H 0.9307 0.1536 0.6096
C23 C 1.0511(6) 0.3368(5) 0.6412(6)
H19 H 1.0960 0.3703 0.7157
H20 H 1.0343 0.4015 0.6268
H21 H 1.1127 0.3109 0.6030
C24 C 0.3299(3) 0.0970(3) 0.6606(3)
C25 C 0.1740(4) 0.0637(4) 0.6554(3)
H22 H 0.1338 0.0917 0.6079
H23 H 0.1232 -0.0285 0.6241
C26 C 0.1437(5) 0.1188(5) 0.7583(3)
H24 H 0.1869 0.2103 0.7880
H25 H 0.1831 0.0926 0.8067
H26 H 0.0420 0.0888 0.7458
H27 H 0.694(4) 0.480(3) 0.932(3)
H28 H 0.753(5) 0.420(4) 0.975(3)
Zn2A Zn 0.36431(4) -0.27819(3) 0.22305(3)
O1A O 0.1450(2) -0.3331(2) 0.23823(19)
O2A O 0.3220(2) -0.1682(2) 0.36890(17)
O3A O 0.5782(2) -0.1918(2) 0.25668(18)
O4A O 0.6445(2) -0.0294(2) 0.41621(18)
O5A O 0.3099(3) -0.4160(2) 0.0714(2)
N1A N 0.5326(3) -0.1219(2) 0.5636(2)
N2A N 0.3302(3) -0.1503(2) 0.1603(2)
N3A N 0.2889(4) 0.3444(3) 0.0377(2)
N4A N 0.6004(3) -0.5927(2) 0.7124(2)
C1A C 0.4241(4) -0.2013(3) 0.5784(3)
H1A H 0.3378 -0.1936 0.5690
C2A C 0.4317(4) -0.2937(3) 0.6065(3)
H2A H 0.3515 -0.3467 0.6150
C3A C 0.5570(3) -0.3090(3) 0.6223(2)
C4A C 0.6719(4) -0.2231(4) 0.6106(3)
H3A H 0.7606 -0.2263 0.6227
C5A C 0.6555(4) -0.1336(4) 0.5815(3)
H4A H 0.7345 -0.0780 0.5738
C6A C 0.5692(3) -0.4090(3) 0.6514(2)
C7A C 0.4715(4) -0.4710(3) 0.6913(3)
H5A H 0.3933 -0.4520 0.6992
C8A C 0.6815(4) -0.4434(3) 0.6422(3)
H6A H 0.7497 -0.4060 0.6148
C9A C 0.2039(4) -0.1462(3) 0.1327(3)
H7A H 0.1226 -0.2081 0.1321
C10A C 0.1885(4) -0.0553(4) 0.1054(3)
H8A H 0.0983 -0.0558 0.0887
C11A C 0.3052(4) 0.0373(3) 0.1023(2)
C12A C 0.4353(4) 0.0303(3) 0.1284(3)
H9A H 0.5179 0.0890 0.1270
C13A C 0.4423(4) -0.0629(3) 0.1562(3)
H10A H 0.5311 -0.0649 0.1731
C14A C 0.1890(4) 0.2807(4) 0.0691(3)
H11A H 0.1153 0.3059 0.0787
C15A C 0.1871(4) 0.1792(3) 0.0886(3)
H12A H 0.1131 0.1372 0.1095
C16A C 0.2973(4) 0.1403(3) 0.0767(3)
C17A C 0.3996(4) 0.2048(4) 0.0415(3)
H13A H 0.4735 0.1806 0.0296
C18A C 0.3926(5) 0.3055(4) 0.0239(3)
H14A H 0.4638 0.3481 0.0012
C19A C 0.6928(4) -0.5334(3) 0.6738(3)
H15A H 0.7705 -0.5537 0.6675
C20A C 0.4904(4) -0.5615(4) 0.7196(3)
H16A H 0.4223 -0.6028 0.7450
C21A C 0.1895(4) -0.2427(3) 0.3306(3)
C22A C 0.0896(4) -0.2235(4) 0.3931(4)
H17A H 0.1383 -0.1972 0.4664
H18A H 0.0693 -0.1536 0.3904
C23A C -0.0511(6) -0.3368(5) 0.3588(6)
H19A H -0.0960 -0.3703 0.2843
H20A H -0.0343 -0.4015 0.3732
H21A H -0.1127 -0.3109 0.3970
C24A C 0.6701(3) -0.0970(3) 0.3394(3)
C25A C 0.8260(4) -0.0637(4) 0.3446(3)
H22A H 0.8662 -0.0917 0.3921
H23A H 0.8768 0.0285 0.3759
C26A C 0.8563(5) -0.1188(5) 0.2417(3)
H24A H 0.8131 -0.2103 0.2120
H25A H 0.8169 -0.0926 0.1933
H26A H 0.9580 -0.0888 0.2542
H27A H 0.306(4) -0.480(3) 0.068(3)
H28A H 0.247(5) -0.420(4) 0.025(3)
Zn2_2 Zn 0.63569(4) -0.72181(3) 0.77695(3)
Zn2A_2 Zn 0.36431(4) 0.72181(3) 0.22305(3)
N4_2 N 0.3996(3) -0.4073(2) 0.2876(2)
N4A_2 N 0.6004(3) 0.4073(2) 0.7124(2)
O6 O 0.9040(4) 0.4407(3) 0.0830(3)
P1 P 0.87956(12) 0.24278(12) 0.25233(10)
F1 F 0.9975(3) 0.2033(3) 0.2902(3)
F2 F 0.7627(3) 0.2883(3) 0.2201(3)
F3 F 0.7701(3) 0.1462(4) 0.2757(4)
F4 F 0.9892(4) 0.3419(5) 0.2314(5)
F5 F 0.9146(6) 0.3417(5) 0.3619(3)
F6 F 0.8411(7) 0.1437(5) 0.1435(3)
loop_
_geom_bond_atom_site_label_1
_geom_bond_atom_site_label_2
_geom_bond_site_symmetry_1
_geom_bond_site_symmetry_2
Zn1 O2 1_555 1_555
Zn2 O1 1_555 1_555
O1 C21 1_555 1_555
O2 Zn2 1_555 1_555
O3 Zn2 1_555 1_555
O4 Zn1 1_555 1_555
O5 Zn2 1_555 1_555
N1 Zn1 1_555 1_555
N2 Zn2 1_555 1_555
N3 C14 1_555 1_555
N4 C19 1_555 1_555
C1 N1 1_555 1_555
H1 C1 1_555 1_555
C2 C1 1_555 1_555
H2 C2 1_555 1_555
C3 C2 1_555 1_555
C4 C3 1_555 1_555
H3 C4 1_555 1_555
C5 N1 1_555 1_555
H4 C5 1_555 1_555
C6 C3 1_555 1_555
C7 C6 1_555 1_555
H5 C7 1_555 1_555
C8 C6 1_555 1_555
H6 C8 1_555 1_555
C9 N2 1_555 1_555
H7 C9 1_555 1_555
C10 C9 1_555 1_555
H8 C10 1_555 1_555
C11 C10 1_555 1_555
C12 C11 1_555 1_555
H9 C12 1_555 1_555
C13 N2 1_555 1_555
H10 C13 1_555 1_555
C14 H11 1_555 1_555
C15 C14 1_555 1_555
H12 C15 1_555 1_555
C16 C11 1_555 1_555
C17 C16 1_555 1_555
H13 C17 1_555 1_555
C18 N3 1_555 1_555
H14 C18 1_555 1_555
C19 C8 1_555 1_555
H15 C19 1_555 1_555
C20 N4 1_555 1_555
H16 C20 1_555 1_555
C21 O2 1_555 1_555
C22 C21 1_555 1_555
H17 C22 1_555 1_555
H18 C22 1_555 1_555
C23 C22 1_555 1_555
H19 C23 1_555 1_555
H20 C23 1_555 1_555
H21 C23 1_555 1_555
C24 O3 1_555 1_555
C25 C24 1_555 1_555
H22 C25 1_555 1_555
H23 C25 1_555 1_555
C26 C25 1_555 1_555
H24 C26 1_555 1_555
H25 C26 1_555 1_555
H26 C26 1_555 1_555
H27 O5 1_555 1_555
H28 O5 1_555 1_555
P1 F1 1_555 1_555
F2 P1 1_555 1_555
F3 P1 1_555 1_555
F4 P1 1_555 1_555
F5 P1 1_555 1_555
F6 P1 1_555 1_555
Zn2A O1A 1_555 1_555
O1A C21A 1_555 1_555
O2A Zn1 1_555 1_555
O3A Zn2A 1_555 1_555
O4A Zn1 1_555 1_555
O5A Zn2A 1_555 1_555
N1A Zn1 1_555 1_555
N2A Zn2A 1_555 1_555
N3A C14A 1_555 1_555
N4A C19A 1_555 1_555
C1A N1A 1_555 1_555
H1A C1A 1_555 1_555
C2A C1A 1_555 1_555
H2A C2A 1_555 1_555
C3A C2A 1_555 1_555
C4A C3A 1_555 1_555
H3A C4A 1_555 1_555
C5A N1A 1_555 1_555
H4A C5A 1_555 1_555
C6A C3A 1_555 1_555
C7A C6A 1_555 1_555
H5A C7A 1_555 1_555
C8A C6A 1_555 1_555
H6A C8A 1_555 1_555
C9A N2A 1_555 1_555
H7A C9A 1_555 1_555
C10A C9A 1_555 1_555
H8A C10A 1_555 1_555
C11A C10A 1_555 1_555
C12A C11A 1_555 1_555
H9A C12A 1_555 1_555
C13A N2A 1_555 1_555
H10A C13A 1_555 1_555
C14A H11A 1_555 1_555
C15A C14A 1_555 1_555
H12A C15A 1_555 1_555
C16A C11A 1_555 1_555
C17A C16A 1_555 1_555
H13A C17A 1_555 1_555
C18A N3A 1_555 1_555
H14A C18A 1_555 1_555
C19A C8A 1_555 1_555
H15A C19A 1_555 1_555
C20A N4A 1_555 1_555
H16A C20A 1_555 1_555
C21A O2A 1_555 1_555
C22A C21A 1_555 1_555
H17A C22A 1_555 1_555
H18A C22A 1_555 1_555
C23A C22A 1_555 1_555
H19A C23A 1_555 1_555
H20A C23A 1_555 1_555
H21A C23A 1_555 1_555
C24A O3A 1_555 1_555
C25A C24A 1_555 1_555
H22A C25A 1_555 1_555
H23A C25A 1_555 1_555
C26A C25A 1_555 1_555
H24A C26A 1_555 1_555
H25A C26A 1_555 1_555
H26A C26A 1_555 1_555
H27A O5A 1_555 1_555
H28A O5A 1_555 1_555
Zn2_2 N4A 1_555 1_555
Zn2A_2 N4 1_555 1_555
N4_2 Zn2A 1_555 1_555
N4A_2 Zn2 1_555 1_555
O4 C24 1_555 1_555
C4 C5 1_555 1_555
C7 C20 1_555 1_555
C12 C13 1_555 1_555
C15 C16 1_555 1_555
C17 C18 1_555 1_555
Zn2A O2A 1_555 1_555
O4A C24A 1_555 1_555
C4A C5A 1_555 1_555
C7A C20A 1_555 1_555
C12A C13A 1_555 1_555
C15A C16A 1_555 1_555
C17A C18A 1_555 1_555

#END
