
#######################################################################
#
#                 Cambridge Crystallographic Data Centre
#                                CCDC 
#
#######################################################################
#
# If this CIF has been generated from an entry in the Cambridge 
# Structural Database, then it will include bibliographic, chemical, 
# crystal, experimental, refinement or atomic coordinate data resulting 
# from the CCDC's data processing and validation procedures.
#
#######################################################################

data_PIBLAO
_symmetry_cell_setting           triclinic
_symmetry_space_group_name_H-M   'P -1'
_symmetry_Int_Tables_number      2
_space_group_name_Hall           '-P 1'
loop_
_symmetry_equiv_pos_site_id
_symmetry_equiv_pos_as_xyz
1 x,y,z
2 -x,-y,-z
_cell_length_a                   11.977(10)
_cell_length_b                   12.236(10)
_cell_length_c                   12.717(11)
_cell_angle_alpha                99.564(11)
_cell_angle_beta                 111.627(11)
_cell_angle_gamma                103.384(11)
_cell_volume                     1618.97
loop_
_atom_site_label
_atom_site_type_symbol
_atom_site_fract_x
_atom_site_fract_y
_atom_site_fract_z
Cu1 Cu -0.25777(7) -0.16433(6) 0.63729(6)
F1 F -0.5091(4) -0.1305(3) 0.1529(4)
F2 F -0.6351(5) -0.5126(4) 0.1727(5)
F3 F 0.0289(4) 0.5530(3) 0.9247(3)
F4 F 0.3293(4) 0.8179(3) 0.8601(4)
N1 N -0.3435(4) -0.1441(4) -0.0760(4)
N2 N -0.4374(5) -0.2475(4) -0.1429(4)
N3 N -0.3193(4) -0.1826(4) -0.2368(4)
N4 N -0.1951(5) -0.0892(4) 0.3573(4)
N5 N -0.0943(5) -0.1293(5) 0.3971(5)
N6 N -0.2017(4) -0.1469(4) 0.5083(4)
N7 N -0.1345(4) 0.1979(4) 0.7361(4)
N8 N -0.2442(5) 0.1855(4) 0.7510(4)
N9 N -0.2312(4) 0.0107(4) 0.6802(4)
N10 N -0.2587(4) 0.6682(4) 0.6088(4)
N11 N -0.3063(7) 0.5825(6) 0.5038(6)
N12 N -0.2265(5) 0.5067(4) 0.6354(4)
N13 N -0.4781(5) -0.2120(5) 0.4886(4)
N14 N -0.0170(5) -0.1080(5) 0.7888(5)
O1 O -0.1820(4) -0.1843(4) 0.1272(4)
H1 H -0.1268 -0.1305 0.1267
O2 O -0.0933(4) 0.3379(3) 0.5782(4)
H2 H -0.1530 0.2769 0.5505
S1 S -0.63643(18) -0.13761(16) 0.58042(19)
S2 S 0.00656(18) -0.16655(16) 0.99344(16)
C1 C -0.3318(6) -0.0847(5) 0.0384(5)
H3 H -0.4144 -0.0808 0.0303
H4 H -0.2758 -0.0050 0.0621
C2 C -0.2809(6) -0.1425(5) 0.1369(5)
C3 C -0.2258(6) -0.0456(5) 0.2547(5)
H5 H -0.1498 0.0109 0.2619
H6 H -0.2870 -0.0051 0.2528
C4 C -0.4181(6) -0.2649(5) -0.2383(5)
H7 H -0.4689 -0.3296 -0.3030
C5 C -0.2744(5) -0.1079(5) -0.1316(5)
H8 H -0.2048 -0.0403 -0.1014
C6 C -0.1030(6) -0.1632(5) 0.4882(5)
H9 H -0.0463 -0.1954 0.5340
C7 C -0.2574(6) -0.1010(5) 0.4238(5)
H10 H -0.3299 -0.0801 0.4129
C8 C -0.3795(6) -0.2457(5) 0.1373(5)
C9 C -0.4873(6) -0.2352(5) 0.1493(6)
C10 C -0.5734(7) -0.3217(6) 0.1606(6)
H11 H -0.6444 -0.3102 0.1682
C11 C -0.5506(7) -0.4255(6) 0.1601(7)
C12 C -0.4483(7) -0.4446(6) 0.1479(7)
H12 H -0.4353 -0.5167 0.1471
C13 C -0.3634(6) -0.3537(5) 0.1366(6)
H13 H -0.2931 -0.3661 0.1282
C14 C -0.0384(5) 0.3114(4) 0.7745(6)
H14 H 0.0400 0.2996 0.7779
H15 H -0.0233 0.3508 0.8536
C15 C -0.0734(5) 0.3916(5) 0.6946(5)
C16 C -0.1933(6) 0.4166(5) 0.6957(6)
H16 H -0.2640 0.3444 0.6577
H17 H -0.1807 0.4424 0.7768
C17 C -0.2991(6) 0.0727(5) 0.7144(5)
H18 H -0.3781 0.0373 0.7118
C18 C -0.1289(6) 0.0937(4) 0.6947(5)
H19 H -0.0630 0.0805 0.6781
C19 C -0.2890(6) 0.4840(4) 0.5190(5)
H20 H -0.3144 0.4140 0.4618
C20 C -0.2097(5) 0.6150(5) 0.6883(5)
H21 H -0.1694 0.6491 0.7692
C21 C 0.0394(5) 0.5048(5) 0.7416(5)
C22 C 0.0846(6) 0.5801(5) 0.8534(6)
C23 C 0.1817(6) 0.6851(5) 0.8953(6)
H22 H 0.2081 0.7346 0.9699
C24 C 0.2374(6) 0.7132(5) 0.8223(7)
C25 C 0.2013(7) 0.6410(6) 0.7132(6)
H23 H 0.2423 0.6613 0.6665
C26 C 0.1020(6) 0.5367(5) 0.6732(6)
H24 H 0.0771 0.4873 0.5990
C27 C -0.5432(7) -0.1800(6) 0.5275(6)
C28 C -0.0063(6) -0.1302(5) 0.8725(6)
Cu1_2 Cu -0.25777(7) -0.16433(6) -0.36271(6)
Cu1_3 Cu -0.25777(7) 0.83567(6) 0.63729(6)
N3_2 N -0.3193(4) -0.1826(4) 0.7632(4)
N10_2 N -0.2587(4) -0.3318(4) 0.6088(4)
loop_
_geom_bond_atom_site_label_1
_geom_bond_atom_site_label_2
_geom_bond_site_symmetry_1
_geom_bond_site_symmetry_2
Cu1 N6 1_555 1_555
F1 C9 1_555 1_555
F2 C11 1_555 1_555
F3 C22 1_555 1_555
F4 C24 1_555 1_555
N1 N2 1_555 1_555
N2 C4 1_555 1_555
N3 C4 1_555 1_555
N4 N5 1_555 1_555
N5 C6 1_555 1_555
N6 C6 1_555 1_555
N7 N8 1_555 1_555
N8 C17 1_555 1_555
N9 Cu1 1_555 1_555
N10 N11 1_555 1_555
N11 C19 1_555 1_555
N12 C16 1_555 1_555
N13 Cu1 1_555 1_555
N14 Cu1 1_555 1_555
O1 H1 1_555 1_555
O2 H2 1_555 1_555
S1 C27 1_555 1_555
S2 C28 1_555 1_555
C1 N1 1_555 1_555
H3 C1 1_555 1_555
H4 C1 1_555 1_555
C2 O1 1_555 1_555
C3 N4 1_555 1_555
H5 C3 1_555 1_555
H6 C3 1_555 1_555
C4 H7 1_555 1_555
C5 N1 1_555 1_555
H8 C5 1_555 1_555
C6 H9 1_555 1_555
C7 N4 1_555 1_555
H10 C7 1_555 1_555
C8 C2 1_555 1_555
C9 C8 1_555 1_555
C10 C9 1_555 1_555
H11 C10 1_555 1_555
C11 C10 1_555 1_555
C12 C11 1_555 1_555
H12 C12 1_555 1_555
C13 C8 1_555 1_555
H13 C13 1_555 1_555
C14 N7 1_555 1_555
H14 C14 1_555 1_555
H15 C14 1_555 1_555
C15 O2 1_555 1_555
C16 C15 1_555 1_555
H16 C16 1_555 1_555
H17 C16 1_555 1_555
C17 N9 1_555 1_555
H18 C17 1_555 1_555
C18 N7 1_555 1_555
H19 C18 1_555 1_555
C19 N12 1_555 1_555
H20 C19 1_555 1_555
C20 N10 1_555 1_555
H21 C20 1_555 1_555
C21 C15 1_555 1_555
C22 C21 1_555 1_555
C23 C22 1_555 1_555
H22 C23 1_555 1_555
C24 C23 1_555 1_555
C25 C24 1_555 1_555
H23 C25 1_555 1_555
C26 C21 1_555 1_555
H24 C26 1_555 1_555
C27 N13 1_555 1_555
C28 N14 1_555 1_555
Cu1_2 N3 1_555 1_555
Cu1_3 N10 1_555 1_555
N3_2 Cu1 1_555 1_555
N10_2 Cu1 1_555 1_555
N3 C5 1_555 1_555
N6 C7 1_555 1_555
N9 C18 1_555 1_555
N12 C20 1_555 1_555
C1 C2 1_555 1_555
C2 C3 1_555 1_555
C12 C13 1_555 1_555
C14 C15 1_555 1_555
C25 C26 1_555 1_555

#END
