
#######################################################################
#
#                 Cambridge Crystallographic Data Centre
#                                CCDC 
#
#######################################################################
#
# If this CIF has been generated from an entry in the Cambridge 
# Structural Database, then it will include bibliographic, chemical, 
# crystal, experimental, refinement or atomic coordinate data resulting 
# from the CCDC's data processing and validation procedures.
#
#######################################################################

data_PIBLUI
_symmetry_cell_setting           triclinic
_symmetry_space_group_name_H-M   'P -1'
_symmetry_Int_Tables_number      2
_space_group_name_Hall           '-P 1'
loop_
_symmetry_equiv_pos_site_id
_symmetry_equiv_pos_as_xyz
1 x,y,z
2 -x,-y,-z
_cell_length_a                   7.7106(13)
_cell_length_b                   8.0030(14)
_cell_length_c                   9.9073(17)
_cell_angle_alpha                70.817(2)
_cell_angle_beta                 68.376(2)
_cell_angle_gamma                88.452(2)
_cell_volume                     533.686
loop_
_atom_site_label
_atom_site_type_symbol
_atom_site_fract_x
_atom_site_fract_y
_atom_site_fract_z
Co1 Co 0.0000 0.0000 1.0000
Na1 Na 0.36037(12) 0.38453(11) 0.21175(10)
O1 O 0.4104(2) 0.2617(2) 0.43658(17)
O2 O -0.1863(2) 0.1705(2) 0.94467(18)
O3 O -0.2591(2) 0.3482(2) 0.75300(19)
O4 O -0.0929(2) -0.1863(2) 0.92947(18)
O5 O -0.0203(3) -0.2958(3) 0.7389(2)
O6 O 0.6866(3) 0.4756(3) 0.0635(2)
O7 O 0.4290(3) 0.1294(3) 0.1326(2)
N1 N 0.1542(2) 0.1111(2) 0.74731(19)
N2 N 0.6427(3) 0.3191(3) 0.5077(2)
H1 H 0.7246 0.3534 0.4146
H2 H 0.6745 0.3192 0.5823
C1 C 0.4667(3) 0.2657(3) 0.5366(2)
C2 C 0.3366(3) 0.2071(3) 0.7080(2)
H3 H 0.4011 0.1310 0.7685
H4 H 0.3136 0.3118 0.7383
C3 C -0.1520(3) 0.2500(3) 0.8021(3)
C4 C 0.0296(3) 0.2272(3) 0.6828(3)
H5 H -0.0006 0.1782 0.6158
H6 H 0.0984 0.3437 0.6196
C5 C 0.0091(3) -0.1886(3) 0.7953(3)
C6 C 0.1795(3) -0.0497(3) 0.7017(3)
H7 H 0.2891 -0.1016 0.7164
H8 H 0.2015 -0.0154 0.5928
H9 H 0.757(4) 0.565(3) 0.041(4)
H10 H 0.5389(18) 0.146(5) 0.067(3)
H11 H 0.746(4) 0.398(3) 0.034(4)
H12 H 0.352(3) 0.121(5) 0.094(3)
Na1A Na -0.36037(12) -0.38453(11) 1.78825(10)
Na1A_2 Na -0.36037(12) 0.61547(11) 0.78825(10)
Na1A_3 Na -0.36037(12) -0.38453(11) 0.78825(10)
Na1A_4 Na 0.63963(12) 0.61547(11) -0.21175(10)
Na1_2 Na 0.36037(12) -0.61547(11) 1.21175(10)
Na1_3 Na 0.36037(12) 0.38453(11) 1.21175(10)
O1A O -0.4104(2) -0.2617(2) 1.56342(17)
O2A O 0.1863(2) -0.1705(2) 1.05533(18)
O3A O 0.2591(2) -0.3482(2) 1.24700(19)
O3A_2 O 0.2591(2) 0.6518(2) 0.24700(19)
O3_2 O -0.2591(2) -0.6518(2) 1.75300(19)
O4A O 0.0929(2) 0.1863(2) 1.07053(18)
O5A O 0.0203(3) 0.2958(3) 1.2611(2)
O5A_2 O 0.0203(3) 0.2958(3) 0.2611(2)
O5_2 O -0.0203(3) -0.2958(3) 1.7389(2)
O6A O 0.3134(3) 0.5244(3) -0.0635(2)
O6_2 O -0.3134(3) -0.5244(3) 2.0635(2)
O6A_2 O -0.6866(3) -0.4756(3) 1.9365(2)
O7A O -0.4290(3) -0.1294(3) 1.8674(2)
N1A N -0.1542(2) -0.1111(2) 1.25269(19)
N2A N -0.6427(3) -0.3191(3) 1.4923(2)
H1A H -0.7246 -0.3534 1.5854
H2A H -0.6745 -0.3192 1.4177
C1A C -0.4667(3) -0.2657(3) 1.4634(2)
C2A C -0.3366(3) -0.2071(3) 1.2920(2)
H3A H -0.4011 -0.1310 1.2315
H4A H -0.3136 -0.3118 1.2617
C3A C 0.1520(3) -0.2500(3) 1.1979(3)
C4A C -0.0296(3) -0.2272(3) 1.3172(3)
H5A H 0.0006 -0.1782 1.3842
H6A H -0.0984 -0.3437 1.3804
C5A C -0.0091(3) 0.1886(3) 1.2047(3)
C6A C -0.1795(3) 0.0497(3) 1.2983(3)
H7A H -0.2891 0.1016 1.2836
H8A H -0.2015 0.0154 1.4072
H9A H 0.243(4) 0.435(3) -0.041(4)
H9_2 H -0.243(4) -0.435(3) 2.041(4)
H9A_2 H -0.757(4) -0.565(3) 1.959(4)
H10A H -0.5389(18) -0.146(5) 1.933(3)
H11A H 0.254(4) 0.602(3) -0.034(4)
H11_2 H -0.254(4) -0.602(3) 2.034(4)
H11A_2 H -0.746(4) -0.398(3) 1.966(4)
H12A H -0.352(3) -0.121(5) 1.906(3)
loop_
_geom_bond_atom_site_label_1
_geom_bond_atom_site_label_2
_geom_bond_site_symmetry_1
_geom_bond_site_symmetry_2
Co1 O2 1_555 1_555
Na1 O1 1_555 1_555
O1 C1 1_555 1_555
O2 C3 1_555 1_555
O3 C3 1_555 1_555
O4 Co1 1_555 1_555
O5 C5 1_555 1_555
O6 Na1 1_555 1_555
O7 Na1 1_555 1_555
N1 Co1 1_555 1_555
N2 H1 1_555 1_555
H2 N2 1_555 1_555
C1 N2 1_555 1_555
C2 N1 1_555 1_555
H3 C2 1_555 1_555
H4 C2 1_555 1_555
C3 C4 1_555 1_555
C4 N1 1_555 1_555
H5 C4 1_555 1_555
H6 C4 1_555 1_555
C5 O4 1_555 1_555
C6 N1 1_555 1_555
H7 C6 1_555 1_555
H8 C6 1_555 1_555
H9 O6 1_555 1_555
H10 O7 1_555 1_555
H11 O6 1_555 1_555
H12 O7 1_555 1_555
Na1A O1A 1_555 1_555
Na1A_2 O3 1_555 1_555
Na1A_3 O5 1_555 1_555
Na1A_4 O6 1_555 1_555
Na1_2 O3A 1_555 1_555
Na1_3 O5A 1_555 1_555
O1A C1A 1_555 1_555
O2A Co1 1_555 1_555
O3A C3A 1_555 1_555
O3A_2 Na1 1_555 1_555
O3_2 Na1A 1_555 1_555
O4A Co1 1_555 1_555
O5A C5A 1_555 1_555
O5A_2 Na1 1_555 1_555
O5_2 Na1A 1_555 1_555
O6A Na1 1_555 1_555
O6_2 Na1A 1_555 1_555
O6A_2 Na1A 1_555 1_555
O7A Na1A 1_555 1_555
N1A Co1 1_555 1_555
N2A H1A 1_555 1_555
H2A N2A 1_555 1_555
C1A N2A 1_555 1_555
C2A N1A 1_555 1_555
H3A C2A 1_555 1_555
H4A C2A 1_555 1_555
C3A O2A 1_555 1_555
C4A N1A 1_555 1_555
H5A C4A 1_555 1_555
H6A C4A 1_555 1_555
C5A O4A 1_555 1_555
C6A N1A 1_555 1_555
H7A C6A 1_555 1_555
H8A C6A 1_555 1_555
H9A O6A 1_555 1_555
H9_2 O6_2 1_555 1_555
H9A_2 O6A_2 1_555 1_555
H10A O7A 1_555 1_555
H11A O6A 1_555 1_555
H11_2 O6_2 1_555 1_555
H11A_2 O6A_2 1_555 1_555
H12A O7A 1_555 1_555
C1 C2 1_555 1_555
C5 C6 1_555 1_555
Na1A_4 O6A 1_555 1_555
C1A C2A 1_555 1_555
C3A C4A 1_555 1_555
C5A C6A 1_555 1_555

#END
