
#######################################################################
#
#                 Cambridge Crystallographic Data Centre
#                                CCDC 
#
#######################################################################
#
# If this CIF has been generated from an entry in the Cambridge 
# Structural Database, then it will include bibliographic, chemical, 
# crystal, experimental, refinement or atomic coordinate data resulting 
# from the CCDC's data processing and validation procedures.
#
#######################################################################

data_PIBMAP
_symmetry_cell_setting           triclinic
_symmetry_space_group_name_H-M   'P -1'
_symmetry_Int_Tables_number      2
_space_group_name_Hall           '-P 1'
loop_
_symmetry_equiv_pos_site_id
_symmetry_equiv_pos_as_xyz
1 x,y,z
2 -x,-y,-z
_cell_length_a                   7.756(2)
_cell_length_b                   7.999(2)
_cell_length_c                   9.818(3)
_cell_angle_alpha                70.847(3)
_cell_angle_beta                 68.215(3)
_cell_angle_gamma                88.466(3)
_cell_volume                     531.159
loop_
_atom_site_label
_atom_site_type_symbol
_atom_site_fract_x
_atom_site_fract_y
_atom_site_fract_z
Ni1 Ni 0.0000 0.0000 0.0000
Na1 Na 0.35750(12) 0.38561(11) -0.78846(10)
O1 O -0.1911(2) 0.1626(2) -0.05051(19)
O2 O -0.2606(2) 0.3443(2) -0.2431(2)
O3 O -0.0923(2) -0.1894(2) -0.06520(18)
O4 O -0.0173(3) -0.2992(3) -0.2588(2)
O5 O 0.4076(2) 0.2623(2) -0.56148(18)
O6 O 0.4234(2) 0.1299(3) -0.8664(2)
O7 O 0.3157(3) 0.5258(3) -1.0650(2)
N1 N 0.1522(2) 0.1099(2) -0.24767(19)
N2 N 0.6394(3) 0.3168(3) -0.4900(2)
H1 H 0.7207 0.3516 -0.5843
H2 H 0.6715 0.3159 -0.4148
C1 C -0.1545(3) 0.2456(3) -0.1932(3)
C2 C 0.0293(3) 0.2265(4) -0.3139(3)
H3 H 0.0024 0.1791 -0.3838
H4 H 0.0970 0.3439 -0.3755
C3 C 0.0100(3) -0.1902(3) -0.2018(3)
C4 C 0.1790(3) -0.0504(3) -0.2957(3)
H5 H 0.2884 -0.1020 -0.2815
H6 H 0.2011 -0.0150 -0.4057
C5 C 0.3337(3) 0.2059(3) -0.2871(2)
H7 H 0.3976 0.1298 -0.2259
H8 H 0.3107 0.3106 -0.2565
C6 C 0.4638(3) 0.2645(3) -0.4603(2)
H9 H 0.347(4) 0.105(5) -0.899(4)
H10 H 0.530(3) 0.143(5) -0.934(4)
H11 H 0.255(5) 0.598(5) -1.029(6)
H12 H 0.246(5) 0.442(4) -1.052(5)
Na1_2 Na 0.35750(12) -0.61439(11) 0.21154(10)
Na1A Na -0.35750(12) -0.38561(11) -0.21154(10)
Na1A_2 Na -0.35750(12) 0.61439(11) -0.21154(10)
Na1_3 Na 0.35750(12) 0.38561(11) 0.21154(10)
Na1A_3 Na -0.35750(12) -0.38561(11) 0.78846(10)
Na1A_4 Na 0.64250(12) 0.61439(11) -1.21154(10)
O1A O 0.1911(2) -0.1626(2) 0.05051(19)
O2A O 0.2606(2) -0.3443(2) 0.2431(2)
O2A_2 O 0.2606(2) 0.6557(2) -0.7569(2)
O2_2 O -0.2606(2) -0.6557(2) 0.7569(2)
O3A O 0.0923(2) 0.1894(2) 0.06520(18)
O4A O 0.0173(3) 0.2992(3) 0.2588(2)
O4A_2 O 0.0173(3) 0.2992(3) -0.7412(2)
O4_2 O -0.0173(3) -0.2992(3) 0.7412(2)
O5A O -0.4076(2) -0.2623(2) 0.56148(18)
O6A O -0.4234(2) -0.1299(3) 0.8664(2)
O7A O 0.6843(3) 0.4742(3) -0.9350(2)
O7_2 O -0.6843(3) -0.4742(3) 0.9350(2)
O7A_2 O -0.3157(3) -0.5258(3) 1.0650(2)
N1A N -0.1522(2) -0.1099(2) 0.24767(19)
N2A N -0.6394(3) -0.3168(3) 0.4900(2)
H1A H -0.7207 -0.3516 0.5843
H2A H -0.6715 -0.3159 0.4148
C1A C 0.1545(3) -0.2456(3) 0.1932(3)
C2A C -0.0293(3) -0.2265(4) 0.3139(3)
H3A H -0.0024 -0.1791 0.3838
H4A H -0.0970 -0.3439 0.3755
C3A C -0.0100(3) 0.1902(3) 0.2018(3)
C4A C -0.1790(3) 0.0504(3) 0.2957(3)
H5A H -0.2884 0.1020 0.2815
H6A H -0.2011 0.0150 0.4057
C5A C -0.3337(3) -0.2059(3) 0.2871(2)
H7A H -0.3976 -0.1298 0.2259
H8A H -0.3107 -0.3106 0.2565
C6A C -0.4638(3) -0.2645(3) 0.4603(2)
H9A H -0.347(4) -0.105(5) 0.899(4)
H10A H -0.530(3) -0.143(5) 0.934(4)
H11A H 0.745(5) 0.402(5) -0.971(6)
H11_2 H -0.745(5) -0.402(5) 0.971(6)
H11A_2 H -0.255(5) -0.598(5) 1.029(6)
H12A H 0.754(5) 0.558(4) -0.948(5)
H12_2 H -0.754(5) -0.558(4) 0.948(5)
H12A_2 H -0.246(5) -0.442(4) 1.052(5)
loop_
_geom_bond_atom_site_label_1
_geom_bond_atom_site_label_2
_geom_bond_site_symmetry_1
_geom_bond_site_symmetry_2
Ni1 O1 1_555 1_555
Na1 O5 1_555 1_555
O1 C1 1_555 1_555
O2 C1 1_555 1_555
O3 Ni1 1_555 1_555
O4 C3 1_555 1_555
O5 C6 1_555 1_555
O6 Na1 1_555 1_555
O7 Na1 1_555 1_555
N1 Ni1 1_555 1_555
N2 H1 1_555 1_555
H2 N2 1_555 1_555
C1 C2 1_555 1_555
C2 N1 1_555 1_555
H3 C2 1_555 1_555
H4 C2 1_555 1_555
C3 O3 1_555 1_555
C4 N1 1_555 1_555
H5 C4 1_555 1_555
H6 C4 1_555 1_555
C5 N1 1_555 1_555
H7 C5 1_555 1_555
H8 C5 1_555 1_555
C6 N2 1_555 1_555
H9 O6 1_555 1_555
H10 O6 1_555 1_555
H11 O7 1_555 1_555
H12 O7 1_555 1_555
Na1_2 O2A 1_555 1_555
Na1A O4 1_555 1_555
Na1A_2 O2 1_555 1_555
Na1_3 O4A 1_555 1_555
Na1A_3 O2_2 1_555 1_555
Na1A_4 O7 1_555 1_555
O1A Ni1 1_555 1_555
O2A C1A 1_555 1_555
O2A_2 Na1 1_555 1_555
O3A Ni1 1_555 1_555
O4A C3A 1_555 1_555
O4A_2 Na1 1_555 1_555
O4_2 Na1A_3 1_555 1_555
O5A Na1A_3 1_555 1_555
O6A Na1A_3 1_555 1_555
O7A Na1 1_555 1_555
O7_2 Na1A_3 1_555 1_555
O7A_2 Na1A_3 1_555 1_555
N1A Ni1 1_555 1_555
N2A H1A 1_555 1_555
H2A N2A 1_555 1_555
C1A O1A 1_555 1_555
C2A N1A 1_555 1_555
H3A C2A 1_555 1_555
H4A C2A 1_555 1_555
C3A O3A 1_555 1_555
C4A N1A 1_555 1_555
H5A C4A 1_555 1_555
H6A C4A 1_555 1_555
C5A N1A 1_555 1_555
H7A C5A 1_555 1_555
H8A C5A 1_555 1_555
C6A O5A 1_555 1_555
H9A O6A 1_555 1_555
H10A O6A 1_555 1_555
H11A O7A 1_555 1_555
H11_2 O7_2 1_555 1_555
H11A_2 O7A_2 1_555 1_555
H12A O7A 1_555 1_555
H12_2 O7_2 1_555 1_555
H12A_2 O7A_2 1_555 1_555
C3 C4 1_555 1_555
C5 C6 1_555 1_555
Na1A_4 O7A 1_555 1_555
N2A C6A 1_555 1_555
C1A C2A 1_555 1_555
C3A C4A 1_555 1_555
C5A C6A 1_555 1_555

#END
