
#######################################################################
#
#                 Cambridge Crystallographic Data Centre
#                                CCDC 
#
#######################################################################
#
# If this CIF has been generated from an entry in the Cambridge 
# Structural Database, then it will include bibliographic, chemical, 
# crystal, experimental, refinement or atomic coordinate data resulting 
# from the CCDC's data processing and validation procedures.
#
#######################################################################

data_PICBIM10
_symmetry_cell_setting           orthorhombic
_symmetry_space_group_name_H-M   'C m c 21'
_symmetry_Int_Tables_number      36
_space_group_name_Hall           'C 2n -2'
loop_
_symmetry_equiv_pos_site_id
_symmetry_equiv_pos_as_xyz
1 x,y,z
2 -x,-y,1/2+z
3 -x,y,z
4 x,-y,1/2+z
5 1/2+x,1/2+y,z
6 1/2-x,1/2-y,1/2+z
7 1/2-x,1/2+y,z
8 1/2+x,1/2-y,1/2+z
_cell_length_a                   21.90(1)
_cell_length_b                   20.28(1)
_cell_length_c                   19.63(1)
_cell_angle_alpha                90
_cell_angle_beta                 90
_cell_angle_gamma                90
_cell_volume                     8718.31
loop_
_atom_site_label
_atom_site_type_symbol
_atom_site_fract_x
_atom_site_fract_y
_atom_site_fract_z
Cl2 Cl 0.50000 0.5976(2) 0.6501(3)
O5 O 0.50000 0.5387(7) 0.686(1)
O6 O 0.5541(5) 0.6329(6) 0.6580(6)
O7 O 0.50000 0.581(1) 0.580(1)
O6B O 0.4459(5) 0.6329(6) 0.6580(6)
Cl3 Cl 0.50000 0.8149(4) 0.1410(5)
O8 O 0.50000 0.7723(9) 0.199(1)
O9 O 0.5522(5) 0.8566(7) 0.148(1)
O10 O 0.5000 0.784(2) 0.085(3)
O9B O 0.4478(5) 0.8566(7) 0.148(1)
O11 O 1.0000 0.7183(6) 0.146(1)
O12 O 1.0000 0.505(1) 0.1597(9)
O13 O 1.0000 0.6055(8) 0.061(1)
Ni1 Ni 0.62138(6) 0.60579(7) 0.31477(8)
Ni2 Ni 0.86633(7) 0.62672(7) 0.28147(9)
N1 N 0.6074(3) 0.6864(3) 0.2571(4)
N2 N 0.6315(3) 0.6704(3) 0.3938(4)
N3 N 0.6286(3) 0.5227(3) 0.3745(3)
N4 N 0.6094(3) 0.5425(4) 0.2355(4)
N5 N 0.8627(3) 0.7112(4) 0.3343(4)
N6 N 0.8697(4) 0.5685(4) 0.3638(4)
N7 N 0.8606(4) 0.6819(5) 0.1988(4)
N8 N 0.8743(4) 0.5436(4) 0.2278(4)
C1 C 0.8773(4) 0.6624(5) 0.4475(5)
C2 C 0.8073(4) 0.6696(5) 0.4623(5)
C3 C 0.7854(4) 0.6472(5) 0.5314(5)
C4 C 0.8133(5) 0.6738(5) 0.5900(5)
C5 C 0.7963(5) 0.6575(5) 0.6556(5)
C6 C 0.7475(5) 0.6157(5) 0.6649(5)
C7 C 0.7190(4) 0.5904(5) 0.6084(5)
C8 C 0.7358(4) 0.6050(4) 0.5249(4)
C9 C 0.7020(4) 0.5722(5) 0.4852(5)
C10 C 0.6312(4) 0.5824(5) 0.4842(5)
C11 C 0.9011(4) 0.7120(5) 0.3968(5)
C12 C 0.8772(5) 0.7650(5) 0.2831(6)
C13 C 0.8444(6) 0.7493(6) 0.2201(6)
C14 C 0.8209(5) 0.6576(6) 0.1415(5)
C15 C 0.8430(6) 0.5895(7) 0.1149(6)
C16 C 0.8358(5) 0.5363(6) 0.1659(6)
C17 C 0.8670(5) 0.4891(5) 0.2743(7)
C18 C 0.8954(6) 0.5054(5) 0.3403(6)
C19 C 0.8972(5) 0.5908(5) 0.4293(5)
C20 C 0.9047(5) 0.7806(5) 0.4288(6)
C21 C 0.8892(7) 0.5414(6) 0.4890(7)
C22 C 0.6002(4) 0.5288(4) 0.4418(4)
C23 C 0.6075(4) 0.4676(4) 0.3313(5)
C24 C 0.6321(4) 0.4779(5) 0.2597(5)
C25 C 0.6332(5) 0.5612(5) 0.1696(5)
C26 C 0.6085(5) 0.6281(5) 0.1459(5)
C27 C 0.6302(5) 0.6864(5) 0.1859(5)
C28 C 0.6272(5) 0.7439(5) 0.2966(5)
C29 C 0.6050(5) 0.7348(5) 0.3702(5)
C30 C 0.6107(5) 0.6527(5) 0.4625(4)
C31 C 0.5961(5) 0.4645(5) 0.4815(5)
C32 C 0.6241(5) 0.7046(5) 0.5170(5)
Cl4 Cl 0.50000 0.6051(2) 0.3245(2)
Cl5 Cl 0.7373(1) 0.6129(1) 0.2961(1)
Cl6 Cl 0.9840(2) 0.6335(2) 0.2764(3)
Ni1B Ni 0.37862(6) 0.60579(7) 0.31477(8)
Cl6B Cl 1.0160(2) 0.6335(2) 0.2764(3)
N1B N 0.3926(3) 0.6864(3) 0.2571(4)
N2B N 0.3685(3) 0.6704(3) 0.3938(4)
N3B N 0.3714(3) 0.5227(3) 0.3745(3)
N4B N 0.3906(3) 0.5425(4) 0.2355(4)
Cl5B Cl 0.2627(1) 0.6129(1) 0.2961(1)
Ni2B Ni 1.13367(7) 0.62672(7) 0.28147(9)
C27B C 0.3698(5) 0.6864(5) 0.1859(5)
C28B C 0.3728(5) 0.7439(5) 0.2966(5)
C29B C 0.3950(5) 0.7348(5) 0.3702(5)
C30B C 0.3893(5) 0.6527(5) 0.4625(4)
C22B C 0.3998(4) 0.5288(4) 0.4418(4)
C23B C 0.3925(4) 0.4676(4) 0.3313(5)
C24B C 0.3679(4) 0.4779(5) 0.2597(5)
C25B C 0.3668(5) 0.5612(5) 0.1696(5)
Ni2B_2 Ni 0.13367(7) 0.62672(7) 0.28147(9)
N5B N 1.1373(3) 0.7112(4) 0.3343(4)
N6B N 1.1303(4) 0.5685(4) 0.3638(4)
N7B N 1.1394(4) 0.6819(5) 0.1988(4)
N8B N 1.1257(4) 0.5436(4) 0.2278(4)
Cl5B_2 Cl 1.2627(1) 0.6129(1) 0.2961(1)
C26B C 0.3915(5) 0.6281(5) 0.1459(5)
C10B C 0.3688(4) 0.5824(5) 0.4842(5)
C32B C 0.3759(5) 0.7046(5) 0.5170(5)
C31B C 0.4039(5) 0.4645(5) 0.4815(5)
C11B C 1.0989(4) 0.7120(5) 0.3968(5)
C12B C 1.1228(5) 0.7650(5) 0.2831(6)
C18B C 1.1046(6) 0.5054(5) 0.3403(6)
C19B C 1.1028(5) 0.5908(5) 0.4293(5)
C13B C 1.1556(6) 0.7493(6) 0.2201(6)
C14B C 1.1791(5) 0.6576(6) 0.1415(5)
C16B C 1.1642(5) 0.5363(6) 0.1659(6)
C17B C 1.1330(5) 0.4891(5) 0.2743(7)
C9B C 0.2980(4) 0.5722(5) 0.4852(5)
C1B C 1.1227(4) 0.6624(5) 0.4475(5)
C20B C 1.0953(5) 0.7806(5) 0.4288(6)
C21B C 1.1108(7) 0.5414(6) 0.4890(7)
C15B C 1.1570(6) 0.5895(7) 0.1149(6)
C8B C 0.2642(4) 0.6050(4) 0.5249(4)
C2B C 1.1927(4) 0.6696(5) 0.4623(5)
C3B C 0.2146(4) 0.6472(5) 0.5314(5)
C7B C 0.2810(4) 0.5904(5) 0.6084(5)
C3B_2 C 1.2146(4) 0.6472(5) 0.5314(5)
C2B_2 C 0.1927(4) 0.6696(5) 0.4623(5)
C4B C 0.1867(5) 0.6738(5) 0.5900(5)
C6B C 0.2525(5) 0.6157(5) 0.6649(5)
C5B C 0.2037(5) 0.6575(5) 0.6556(5)
Cl1 Cl 0.7649(1) 0.3741(2) 0.4084(2)
O1 O 0.8287(5) 0.3741(5) 0.424(1)
O2 O 0.7511(6) 0.3188(7) 0.3715(8)
O3 O 0.7466(6) 0.4337(6) 0.3813(7)
O4 O 0.7339(6) 0.3660(6) 0.4744(7)
loop_
_geom_bond_atom_site_label_1
_geom_bond_atom_site_label_2
_geom_bond_site_symmetry_1
_geom_bond_site_symmetry_2
Cl1 O1 1_555 1_555
O2 Cl1 1_555 1_555
O3 Cl1 1_555 1_555
O4 Cl1 1_555 1_555
Cl2 O5 1_555 1_555
O6 Cl2 1_555 1_555
O7 Cl2 1_555 1_555
Cl3 O8 1_555 1_555
O9 Cl3 1_555 1_555
O10 Cl3 1_555 1_555
Ni1 N1 1_555 1_555
Ni2 N5 1_555 1_555
N1 C27 1_555 1_555
N2 Ni1 1_555 1_555
N3 Ni1 1_555 1_555
N4 Ni1 1_555 1_555
N5 C11 1_555 1_555
N6 Ni2 1_555 1_555
N7 Ni2 1_555 1_555
N8 Ni2 1_555 1_555
C1 C2 1_555 1_555
C2 C3 1_555 1_555
C3 C4 1_555 1_555
C4 C5 1_555 1_555
C5 C6 1_555 1_555
C6 C7 1_555 1_555
C7 C8 1_555 1_555
C8 C3 1_555 1_555
C9 C8 1_555 1_555
C10 C9 1_555 1_555
C11 C1 1_555 1_555
C12 N5 1_555 1_555
C13 N7 1_555 1_555
C14 N7 1_555 1_555
C15 C14 1_555 1_555
C16 N8 1_555 1_555
C17 N8 1_555 1_555
C18 N6 1_555 1_555
C19 N6 1_555 1_555
C20 C11 1_555 1_555
C21 C19 1_555 1_555
C22 N3 1_555 1_555
C23 N3 1_555 1_555
C24 N4 1_555 1_555
C25 N4 1_555 1_555
C26 C25 1_555 1_555
C27 C26 1_555 1_555
C28 N1 1_555 1_555
C29 N2 1_555 1_555
C30 N2 1_555 1_555
C31 C22 1_555 1_555
C32 C30 1_555 1_555
Cl4 Ni1 1_555 1_555
Cl5 Ni1 1_555 1_555
Cl6 Ni2 1_555 1_555
O6B Cl2 1_555 1_555
O9B Cl3 1_555 1_555
Ni1B Cl4 1_555 1_555
Cl6B Cl6 1_555 1_555
N1B Ni1B 1_555 1_555
N2B Ni1B 1_555 1_555
N3B Ni1B 1_555 1_555
N4B Ni1B 1_555 1_555
Cl5B Ni1B 1_555 1_555
Ni2B Cl6B 1_555 1_555
C27B N1B 1_555 1_555
C28B N1B 1_555 1_555
C29B N2B 1_555 1_555
C30B N2B 1_555 1_555
C22B N3B 1_555 1_555
C23B N3B 1_555 1_555
C24B N4B 1_555 1_555
C25B N4B 1_555 1_555
Ni2B_2 Cl5B 1_555 1_555
N5B Ni2B 1_555 1_555
N6B Ni2B 1_555 1_555
N7B Ni2B 1_555 1_555
N8B Ni2B 1_555 1_555
Cl5B_2 Ni2B 1_555 1_555
C26B C27B 1_555 1_555
C10B C30B 1_555 1_555
C32B C30B 1_555 1_555
C31B C22B 1_555 1_555
C11B N5B 1_555 1_555
C12B N5B 1_555 1_555
C18B N6B 1_555 1_555
C19B N6B 1_555 1_555
C13B N7B 1_555 1_555
C14B N7B 1_555 1_555
C16B N8B 1_555 1_555
C17B N8B 1_555 1_555
C9B C10B 1_555 1_555
C1B C11B 1_555 1_555
C20B C11B 1_555 1_555
C21B C19B 1_555 1_555
C15B C14B 1_555 1_555
C8B C9B 1_555 1_555
C2B C1B 1_555 1_555
C3B C8B 1_555 1_555
C7B C8B 1_555 1_555
C3B_2 C2B 1_555 1_555
C2B_2 C3B 1_555 1_555
C4B C3B 1_555 1_555
C6B C7B 1_555 1_555
C5B C4B 1_555 1_555
Ni2 Cl5 1_555 1_555
C1 C19 1_555 1_555
C10 C22 1_555 1_555
C10 C30 1_555 1_555
C12 C13 1_555 1_555
C15 C16 1_555 1_555
C17 C18 1_555 1_555
C23 C24 1_555 1_555
C28 C29 1_555 1_555
C28B C29B 1_555 1_555
C22B C10B 1_555 1_555
C23B C24B 1_555 1_555
C25B C26B 1_555 1_555
C12B C13B 1_555 1_555
C18B C17B 1_555 1_555
C19B C1B 1_555 1_555
C16B C15B 1_555 1_555
C6B C5B 1_555 1_555

#END
