
#######################################################################
#
#                 Cambridge Crystallographic Data Centre
#                                CCDC 
#
#######################################################################
#
# If this CIF has been generated from an entry in the Cambridge 
# Structural Database, then it will include bibliographic, chemical, 
# crystal, experimental, refinement or atomic coordinate data resulting 
# from the CCDC's data processing and validation procedures.
#
#######################################################################

data_PICJUI
_symmetry_cell_setting           monoclinic
_symmetry_space_group_name_H-M   'P 21/n'
_symmetry_Int_Tables_number      14
_space_group_name_Hall           '-P 2yn'
loop_
_symmetry_equiv_pos_site_id
_symmetry_equiv_pos_as_xyz
1 x,y,z
2 1/2-x,1/2+y,1/2-z
3 -x,-y,-z
4 1/2+x,1/2-y,1/2+z
_cell_length_a                   12.9178(4)
_cell_length_b                   11.4056(4)
_cell_length_c                   23.0528(7)
_cell_angle_alpha                90
_cell_angle_beta                 90.9520(10)
_cell_angle_gamma                90
_cell_volume                     3396.02
loop_
_atom_site_label
_atom_site_type_symbol
_atom_site_fract_x
_atom_site_fract_y
_atom_site_fract_z
O1 O 0.2135(3) 0.2096(4) 0.17378(16)
C1 C 0.0767(5) 0.1991(6) 0.0831(3)
H1 H 0.1032 0.1318 0.1036
H2 H 0.0852 0.1882 0.0422
H3 H 0.0046 0.2086 0.0912
O2 O 0.2216(2) 0.1320(3) 0.30357(14)
Cd1 Cd 0.344683(16) 0.17823(2) 0.238784(11)
C2 C 0.9223(2) -0.3102(3) 0.40818(14)
O3 O 0.6278(2) -0.1532(2) 0.34738(12)
H4 H 0.5806 -0.1412 0.3239
C3 C 0.7208(3) 0.1617(3) 0.42273(14)
C4 C 0.7891(2) -0.1644(2) 0.42705(13)
C5 C 0.7707(2) 0.0548(3) 0.43737(13)
O4 O 0.4932(2) -0.0400(2) 0.29003(12)
O5 O 0.9014(2) -0.1354(2) 0.35020(11)
H5 H 0.9442 -0.1711 0.3312
O6 O 0.4746(2) 0.1520(2) 0.30327(12)
C6 C 0.6383(3) 0.1589(3) 0.38222(15)
H6 H 0.6044 0.2284 0.3726
C7 C 0.6065(2) 0.0562(3) 0.35649(13)
C8 C 0.7378(2) -0.0518(2) 0.41158(12)
C9 C 0.8092(3) -0.3370(3) 0.48993(14)
C10 C 0.7559(2) -0.2315(3) 0.47525(13)
C11 C 0.8712(2) -0.2025(3) 0.39470(13)
C12 C 0.5176(2) 0.0557(3) 0.31317(15)
C13 C 0.6577(2) -0.0506(3) 0.37164(13)
C14 C 0.8527(3) 0.0589(3) 0.47925(15)
H7 H 0.8866 -0.0101 0.4896
C15 C 0.8909(3) -0.3735(3) 0.45505(13)
H8 H 0.9250 -0.4431 0.4641
O7 O 0.3434(3) 0.3700(3) 0.26253(18)
C16 C 1.0097(3) -0.3549(3) 0.37167(14)
O8 O 1.0472(2) -0.4519(2) 0.38209(12)
C17 C 0.6723(3) -0.1964(3) 0.51028(16)
H9 H 0.6356 -0.1287 0.5009
C18 C 0.1317(4) 0.1635(5) 0.2992(3)
H10 H 0.1107 0.1930 0.2633
N1 N 0.0644(3) 0.1605(4) 0.33764(19)
C19 C 0.8333(4) 0.2663(4) 0.4895(2)
H11 H 0.8547 0.3361 0.5068
C20 C 0.8822(3) 0.1607(3) 0.5042(2)
H12 H 0.9359 0.1607 0.5317
C21 C 0.7547(3) 0.2663(3) 0.44989(18)
H13 H 0.7223 0.3366 0.4404
C22 C 0.6450(4) -0.2600(4) 0.55732(19)
H14 H 0.5904 -0.2350 0.5800
C23 C 0.7775(4) -0.4005(4) 0.53924(17)
H15 H 0.8119 -0.4693 0.5494
N2 N 0.1316(3) 0.3001(5) 0.10138(18)
C24 C 0.1971(4) 0.2933(6) 0.1441(3)
H16 H 0.2353 0.3604 0.1527
C25 C -0.0413(6) 0.1949(10) 0.3288(5)
H17 H -0.0574 0.2581 0.3546
H18 H -0.0857 0.1295 0.3365
H19 H -0.0515 0.2201 0.2894
C26 C 0.6982(4) -0.3630(4) 0.5719(2)
H20 H 0.6789 -0.4059 0.6043
C27 C 0.1146(5) 0.4079(7) 0.0714(3)
H21 H 0.1566 0.4682 0.0888
H22 H 0.0429 0.4294 0.0738
H23 H 0.1327 0.3987 0.0314
O9 O 1.0382(2) -0.2874(2) 0.33091(12)
C28 C 0.0889(6) 0.1062(12) 0.3917(3)
H24 H 0.0568 0.0304 0.3932
H25 H 0.0639 0.1540 0.4227
H26 H 0.1626 0.0976 0.3956
H27 H 0.392(4) 0.401(4) 0.2766(18)
O10 O 0.34326(19) -0.0201(2) 0.20952(13)
H28 H 0.296(5) 0.401(5) 0.272(2)
H29 H 0.376(4) -0.015(4) 0.178(2)
H30 H 0.397(4) -0.047(4) 0.233(2)
Cd1A Cd 1.155317(16) -0.32177(2) 0.261216(11)
O9A O 0.4618(2) 0.2126(2) 0.16909(12)
N3 N 0.6756(4) 0.4828(5) 0.3054(2)
C29 C 0.7649(9) 0.431(2) 0.2870(5)
H31 H 0.7949 0.3853 0.3180
H32 H 0.8130 0.4900 0.2753
H33 H 0.7492 0.3802 0.2547
O11 O 0.5082(4) 0.4740(6) 0.3069(4)
C30 C 0.5902(6) 0.4400(7) 0.2929(3)
H34 H 0.5907 0.3732 0.2697
C31 C 0.6789(12) 0.5615(14) 0.3506(7)
H35 H 0.6705 0.6396 0.3356
H36 H 0.7444 0.5555 0.3706
H37 H 0.6241 0.5446 0.3769
loop_
_geom_bond_atom_site_label_1
_geom_bond_atom_site_label_2
_geom_bond_site_symmetry_1
_geom_bond_site_symmetry_2
O1 Cd1 1_555 1_555
C1 H1 1_555 1_555
H2 C1 1_555 1_555
H3 C1 1_555 1_555
O2 Cd1 1_555 1_555
Cd1 O6 1_555 1_555
C2 C11 1_555 1_555
O3 H4 1_555 1_555
C3 C5 1_555 1_555
C4 C8 1_555 1_555
C5 C8 1_555 1_555
O4 C12 1_555 1_555
O5 H5 1_555 1_555
O6 C12 1_555 1_555
C6 C3 1_555 1_555
H6 C6 1_555 1_555
C7 C6 1_555 1_555
C8 C13 1_555 1_555
C9 C10 1_555 1_555
C10 C4 1_555 1_555
C11 C4 1_555 1_555
C12 C7 1_555 1_555
C13 O3 1_555 1_555
C14 C5 1_555 1_555
H7 C14 1_555 1_555
C15 C2 1_555 1_555
H8 C15 1_555 1_555
O7 Cd1 1_555 1_555
C16 C2 1_555 1_555
O8 C16 1_555 1_555
C17 C10 1_555 1_555
H9 C17 1_555 1_555
C18 O2 1_555 1_555
H10 C18 1_555 1_555
N1 C18 1_555 1_555
C19 H11 1_555 1_555
C20 C14 1_555 1_555
H12 C20 1_555 1_555
C21 C3 1_555 1_555
H13 C21 1_555 1_555
C22 C17 1_555 1_555
H14 C22 1_555 1_555
C23 C9 1_555 1_555
H15 C23 1_555 1_555
N2 C1 1_555 1_555
C24 O1 1_555 1_555
H16 C24 1_555 1_555
C25 N1 1_555 1_555
H17 C25 1_555 1_555
H18 C25 1_555 1_555
H19 C25 1_555 1_555
C26 C22 1_555 1_555
H20 C26 1_555 1_555
C27 N2 1_555 1_555
H21 C27 1_555 1_555
H22 C27 1_555 1_555
H23 C27 1_555 1_555
O9 C16 1_555 1_555
C28 N1 1_555 1_555
H24 C28 1_555 1_555
H25 C28 1_555 1_555
H26 C28 1_555 1_555
H27 O7 1_555 1_555
O10 Cd1 1_555 1_555
H28 O7 1_555 1_555
H29 O10 1_555 1_555
H30 O10 1_555 1_555
N3 C29 1_555 1_555
C29 H31 1_555 1_555
H32 C29 1_555 1_555
H33 C29 1_555 1_555
O11 C30 1_555 1_555
C30 N3 1_555 1_555
H34 C30 1_555 1_555
C31 N3 1_555 1_555
H35 C31 1_555 1_555
H36 C31 1_555 1_555
H37 C31 1_555 1_555
Cd1A O9 1_555 1_555
O9A Cd1 1_555 1_555
O5 C11 1_555 1_555
C7 C13 1_555 1_555
C9 C15 1_555 1_555
C19 C20 1_555 1_555
C19 C21 1_555 1_555
C23 C26 1_555 1_555
N2 C24 1_555 1_555

#END
