
#######################################################################
#
#                 Cambridge Crystallographic Data Centre
#                                CCDC 
#
#######################################################################
#
# If this CIF has been generated from an entry in the Cambridge 
# Structural Database, then it will include bibliographic, chemical, 
# crystal, experimental, refinement or atomic coordinate data resulting 
# from the CCDC's data processing and validation procedures.
#
#######################################################################

data_PICKAP
_symmetry_cell_setting           orthorhombic
_symmetry_space_group_name_H-M   'C 2 2 21'
_symmetry_Int_Tables_number      20
_space_group_name_Hall           'C 2n 2'
loop_
_symmetry_equiv_pos_site_id
_symmetry_equiv_pos_as_xyz
1 x,y,z
2 x,-y,-z
3 -x,y,1/2-z
4 -x,-y,1/2+z
5 1/2+x,1/2+y,z
6 1/2+x,1/2-y,-z
7 1/2-x,1/2+y,1/2-z
8 1/2-x,1/2-y,1/2+z
_cell_length_a                   11.7689(11)
_cell_length_b                   13.8060(13)
_cell_length_c                   20.708(2)
_cell_angle_alpha                90
_cell_angle_beta                 90
_cell_angle_gamma                90
_cell_volume                     3364.67
loop_
_atom_site_label
_atom_site_type_symbol
_atom_site_fract_x
_atom_site_fract_y
_atom_site_fract_z
Cd1 Cd 0.888930(16) 0.5000 0.5000
N1 N 0.6914(2) 0.5000 0.5000
N2 N 0.0910(2) 0.5000 0.5000
N3 N 0.9144(3) 0.7538(2) 0.36467(16)
O1 O 0.7589(2) 0.69960(18) 0.54072(12)
O2 O 0.9114(2) 0.62134(16) 0.57549(10)
O3 O 1.02433(16) 0.68988(14) 0.67093(10)
H1 H 1.0062 0.6516 0.6424
O4 O 0.8959(3) 0.61083(18) 0.41527(11)
C1 C 0.8365(2) 0.68907(19) 0.57902(13)
C2 C 0.8474(2) 0.75892(18) 0.63449(13)
C3 C 0.9413(2) 0.75657(17) 0.67849(12)
C4 C 0.9500(2) 0.82310(17) 0.72808(11)
C5 C 0.8628(2) 0.89340(18) 0.73610(11)
C6 C 0.8636(2) 0.9609(2) 0.78756(13)
H2 H 0.9238 0.9610 0.8166
C7 C 0.7768(3) 1.0260(2) 0.79511(16)
H3 H 0.7785 1.0688 0.8298
C8 C 0.6858(3) 1.0293(3) 0.75183(19)
H4 H 0.6280 1.0745 0.7573
C9 C 0.6828(3) 0.9657(2) 0.70163(17)
H5 H 0.6223 0.9681 0.6727
C10 C 0.7697(2) 0.8959(2) 0.69240(13)
C11 C 0.7659(2) 0.8279(2) 0.64230(13)
H6 H 0.7056 0.8300 0.6133
C12 C 0.6329(2) 0.4356(2) 0.53401(14)
H7 H 0.6730 0.3899 0.5579
C13 C 0.5152(2) 0.4328(2) 0.53581(14)
H8 H 0.4777 0.3867 0.5606
C14 C 0.4544(2) 0.5000 0.5000
C15 C 0.3285(3) 0.5000 0.5000
C16 C 0.2675(2) 0.4172(2) 0.48599(15)
H9 H 0.3051 0.3596 0.4768
C17 C 0.1504(2) 0.4205(2) 0.48577(14)
H10 H 0.1108 0.3644 0.4752
C18 C 0.9396(3) 0.6881(3) 0.40966(18)
H11 H 0.9962 0.7040 0.4392
C19 C 0.8285(7) 0.7409(5) 0.3220(4)
H12 H 0.7825 0.6871 0.3355
H13 H 0.8595 0.7279 0.2800
H14 H 0.7828 0.7984 0.3203
C20 C 0.9842(5) 0.8407(4) 0.3613(3)
H15 H 1.0281 0.8466 0.4001
H16 H 0.9362 0.8964 0.3565
H17 H 1.0344 0.8363 0.3248
C12A C 0.6329(2) 0.5644(2) 0.46599(14)
H7A H 0.6730 0.6101 0.4421
C13A C 0.5152(2) 0.5672(2) 0.46419(14)
H8A H 0.4777 0.6133 0.4394
C16A C 0.2675(2) 0.5828(2) 0.51401(15)
H9A H 0.3051 0.6404 0.5232
C17A C 0.1504(2) 0.5795(2) 0.51423(14)
H10A H 0.1108 0.6356 0.5248
O1B O 1.2411(2) 0.69960(18) 0.95928(12)
O2B O 1.0886(2) 0.62134(16) 0.92451(10)
O3B O 0.97567(16) 0.68988(14) 0.82907(10)
H1B H 0.9938 0.6516 0.8576
C1B C 1.1635(2) 0.68907(19) 0.92098(13)
C2B C 1.1526(2) 0.75892(18) 0.86551(13)
C3B C 1.0587(2) 0.75657(17) 0.82151(12)
C4B C 1.0500(2) 0.82310(17) 0.77192(11)
C5B C 1.1372(2) 0.89340(18) 0.76390(11)
C6B C 1.1364(2) 0.9609(2) 0.71244(13)
H2B H 1.0762 0.9610 0.6834
C7B C 1.2232(3) 1.0260(2) 0.70489(16)
H3B H 1.2215 1.0688 0.6702
C8B C 1.3142(3) 1.0293(3) 0.74817(19)
H4B H 1.3720 1.0745 0.7427
C9B C 1.3172(3) 0.9657(2) 0.79837(17)
H5B H 1.3777 0.9681 0.8273
C10B C 1.2303(2) 0.8959(2) 0.80760(13)
C11B C 1.2341(2) 0.8279(2) 0.85770(13)
H6B H 1.2944 0.8300 0.8867
N3A N 0.9144(3) 0.2462(2) 0.63533(16)
O4A O 0.8959(3) 0.38917(18) 0.58473(11)
C18A C 0.9396(3) 0.3119(3) 0.59034(18)
H11A H 0.9962 0.2960 0.5608
C19A C 0.8285(7) 0.2591(5) 0.6780(4)
H12A H 0.7825 0.3129 0.6645
H13A H 0.8595 0.2721 0.7200
H14A H 0.7828 0.2016 0.6797
C20A C 0.9842(5) 0.1593(4) 0.6387(3)
H15A H 1.0281 0.1534 0.5999
H16A H 0.9362 0.1036 0.6435
H17A H 1.0344 0.1637 0.6752
Cd1_2 Cd -0.111070(16) 0.5000 0.5000
Cd1B Cd 1.111070(16) 0.5000 1.0000
N2_2 N 1.0910(2) 0.5000 0.5000
O2A O 0.9114(2) 0.37866(16) 0.42451(10)
loop_
_geom_bond_atom_site_label_1
_geom_bond_atom_site_label_2
_geom_bond_site_symmetry_1
_geom_bond_site_symmetry_2
Cd1 N1 1_555 1_555
N1 C12 1_555 1_555
N2 C17 1_555 1_555
N3 C18 1_555 1_555
O1 C1 1_555 1_555
O2 Cd1 1_555 1_555
O3 H1 1_555 1_555
O4 Cd1 1_555 1_555
C1 O2 1_555 1_555
C2 C1 1_555 1_555
C3 O3 1_555 1_555
C4 C3 1_555 1_555
C5 C4 1_555 1_555
C6 C5 1_555 1_555
H2 C6 1_555 1_555
C7 C6 1_555 1_555
H3 C7 1_555 1_555
C8 C7 1_555 1_555
H4 C8 1_555 1_555
C9 C8 1_555 1_555
H5 C9 1_555 1_555
C10 C5 1_555 1_555
C11 C2 1_555 1_555
H6 C11 1_555 1_555
C12 H7 1_555 1_555
C13 C12 1_555 1_555
H8 C13 1_555 1_555
C14 C13 1_555 1_555
C15 C14 1_555 1_555
C16 C15 1_555 1_555
H9 C16 1_555 1_555
C17 C16 1_555 1_555
H10 C17 1_555 1_555
C18 O4 1_555 1_555
H11 C18 1_555 1_555
C19 N3 1_555 1_555
H12 C19 1_555 1_555
H13 C19 1_555 1_555
H14 C19 1_555 1_555
C20 N3 1_555 1_555
H15 C20 1_555 1_555
H16 C20 1_555 1_555
H17 C20 1_555 1_555
C12A N1 1_555 1_555
H7A C12A 1_555 1_555
C13A C14 1_555 1_555
H8A C13A 1_555 1_555
C16A C15 1_555 1_555
H9A C16A 1_555 1_555
C17A N2 1_555 1_555
H10A C17A 1_555 1_555
O1B C1B 1_555 1_555
O2B C1B 1_555 1_555
O3B H1B 1_555 1_555
C1B C2B 1_555 1_555
C2B C3B 1_555 1_555
C3B O3B 1_555 1_555
C4B C4 1_555 1_555
C5B C4B 1_555 1_555
C6B C5B 1_555 1_555
H2B C6B 1_555 1_555
C7B C6B 1_555 1_555
H3B C7B 1_555 1_555
C8B C7B 1_555 1_555
H4B C8B 1_555 1_555
C9B C8B 1_555 1_555
H5B C9B 1_555 1_555
C10B C5B 1_555 1_555
C11B C2B 1_555 1_555
H6B C11B 1_555 1_555
N3A C18A 1_555 1_555
O4A Cd1 1_555 1_555
C18A O4A 1_555 1_555
H11A C18A 1_555 1_555
C19A N3A 1_555 1_555
H12A C19A 1_555 1_555
H13A C19A 1_555 1_555
H14A C19A 1_555 1_555
C20A N3A 1_555 1_555
H15A C20A 1_555 1_555
H16A C20A 1_555 1_555
H17A C20A 1_555 1_555
Cd1_2 N2 1_555 1_555
Cd1B O2B 1_555 1_555
N2_2 Cd1 1_555 1_555
O2A Cd1 1_555 1_555
C2 C3 1_555 1_555
C9 C10 1_555 1_555
C10 C11 1_555 1_555
C12A C13A 1_555 1_555
C16A C17A 1_555 1_555
C3B C4B 1_555 1_555
C9B C10B 1_555 1_555
C10B C11B 1_555 1_555

#END
