
#######################################################################
#
#                 Cambridge Crystallographic Data Centre
#                                CCDC 
#
#######################################################################
#
# If this CIF has been generated from an entry in the Cambridge 
# Structural Database, then it will include bibliographic, chemical, 
# crystal, experimental, refinement or atomic coordinate data resulting 
# from the CCDC's data processing and validation procedures.
#
#######################################################################

data_PICMUL
_symmetry_cell_setting           triclinic
_symmetry_space_group_name_H-M   'P -1'
_symmetry_Int_Tables_number      2
_space_group_name_Hall           '-P 1'
loop_
_symmetry_equiv_pos_site_id
_symmetry_equiv_pos_as_xyz
1 x,y,z
2 -x,-y,-z
_cell_length_a                   9.697(4)
_cell_length_b                   13.845(5)
_cell_length_c                   14.045(4)
_cell_angle_alpha                118.171(10)
_cell_angle_beta                 103.979(16)
_cell_angle_gamma                89.817(19)
_cell_volume                     1599.42
loop_
_atom_site_label
_atom_site_type_symbol
_atom_site_fract_x
_atom_site_fract_y
_atom_site_fract_z
Er1 Er 0.253201(13) -0.000153(12) 1.003974(12)
O1 O 0.3777(3) -0.0244(3) 0.8822(2)
O2 O 0.5785(3) -0.0311(3) 0.8311(2)
O3 O 0.1126(3) 0.0877(2) 0.9150(3)
O4 O -0.1023(3) 0.0421(3) 0.9201(3)
O5 O 0.2093(3) 0.1774(2) 1.1517(3)
O6 O 0.3828(3) 0.1808(2) 1.0774(2)
O7 O 0.3493(3) -0.1696(2) 0.9656(3)
H1 H 0.4410 -0.1719 0.9520
H2 H 0.3096 -0.2281 0.9528
O8 O 0.0802(3) -0.1452(2) 0.8485(2)
H3 H 0.0644 -0.1914 0.8689
H4 H 0.0786 -0.1929 0.7835
N1 N -0.3251(5) -0.2013(5) 0.4609(5)
N2 N 0.2282(6) 0.6211(4) 0.9108(4)
N3 N 0.1320(5) 0.6896(4) 1.6535(4)
C1 C 0.3604(4) -0.0520(4) 0.6989(3)
C2 C 0.2118(4) -0.0733(4) 0.6686(4)
H5 H 0.1657 -0.0700 0.7207
C3 C 0.1313(4) -0.0992(4) 0.5612(4)
C4 C 0.2018(5) -0.1007(5) 0.4853(4)
H6 H 0.1498 -0.1177 0.4131
C5 C 0.3497(5) -0.0767(6) 0.5174(4)
H7 H 0.3962 -0.0758 0.4671
C6 C 0.4288(5) -0.0543(5) 0.6228(4)
H8 H 0.5282 -0.0406 0.6426
C7 C -0.0284(4) -0.1314(4) 0.5260(4)
C8 C -0.1022(5) -0.1237(5) 0.6023(5)
H9 H -0.0541 -0.0934 0.6781
C9 C -0.2458(5) -0.1609(6) 0.5657(5)
H10 H -0.2908 -0.1576 0.6185
C10 C -0.2548(6) -0.2056(6) 0.3886(5)
H11 H -0.3073 -0.2323 0.3143
C11 C -0.1099(5) -0.1734(5) 0.4160(5)
H12 H -0.0673 -0.1798 0.3610
C12 C 0.4444(4) -0.0333(3) 0.8119(3)
C13 C -0.0786(4) 0.1739(3) 0.8610(3)
C14 C 0.0121(4) 0.2583(3) 0.8738(3)
H13 H 0.1104 0.2624 0.9017
C15 C -0.0419(5) 0.3378(4) 0.8453(4)
C16 C -0.1893(5) 0.3252(4) 0.7989(4)
H14 H -0.2280 0.3758 0.7775
C17 C -0.2783(5) 0.2393(4) 0.7839(4)
H15 H -0.3761 0.2316 0.7512
C18 C -0.2244(4) 0.1644(4) 0.8169(4)
H16 H -0.2855 0.1081 0.8096
C19 C 0.0518(5) 0.4350(4) 0.8668(4)
C20 C -0.0037(6) 0.5236(4) 0.8586(5)
H17 H -0.1024 0.5232 0.8383
C21 C 0.0863(7) 0.6125(5) 0.8804(5)
H18 H 0.0450 0.6702 0.8732
C22 C 0.2806(7) 0.5373(5) 0.9186(6)
H19 H 0.3798 0.5410 0.9404
C23 C 0.1995(6) 0.4430(5) 0.8969(6)
H20 H 0.2443 0.3857 0.9025
C24 C -0.0180(4) 0.0962(3) 0.9012(3)
C25 C 0.3440(4) 0.3522(3) 1.2199(3)
C26 C 0.2805(4) 0.4067(4) 1.3063(3)
H21 H 0.2102 0.3679 1.3145
C27 C 0.3207(5) 0.5190(4) 1.3810(4)
C28 C 0.4280(5) 0.5752(4) 1.3691(4)
H22 H 0.4584 0.6495 1.4206
C29 C 0.4898(5) 0.5228(4) 1.2827(4)
H23 H 0.5602 0.5618 1.2748
C30 C 0.4473(5) 0.4114(4) 1.2070(4)
H24 H 0.4878 0.3762 1.1475
C31 C 0.2544(5) 0.5790(4) 1.4752(4)
C32 C 0.1062(5) 0.5784(4) 1.4565(4)
H25 H 0.0455 0.5405 1.3841
C33 C 0.0515(6) 0.6348(4) 1.5474(5)
H26 H -0.0472 0.6347 1.5339
C34 C 0.2725(7) 0.6893(5) 1.6680(5)
H27 H 0.3313 0.7275 1.7411
C35 C 0.3366(6) 0.6373(5) 1.5841(4)
H28 H 0.4360 0.6413 1.6005
C36 C 0.3081(4) 0.2314(3) 1.1453(3)
Er1A Er -0.253201(13) 0.000153(12) 0.996026(12)
Er1A_2 Er 0.746799(13) 0.000153(12) 0.996026(12)
O2A O 0.4215(3) 0.0311(3) 1.1689(2)
O4A O 0.1023(3) -0.0421(3) 1.0799(3)
O9 O 0.3838(7) 0.2320(5) 0.8896(6)
H29 H 0.4376 0.1858 0.8603
H30 H 0.2959 0.1839 0.8492
loop_
_geom_bond_atom_site_label_1
_geom_bond_atom_site_label_2
_geom_bond_site_symmetry_1
_geom_bond_site_symmetry_2
Er1 O1 1_555 1_555
O1 C12 1_555 1_555
O2 C12 1_555 1_555
O3 Er1 1_555 1_555
O4 C24 1_555 1_555
O5 Er1 1_555 1_555
O6 Er1 1_555 1_555
O7 Er1 1_555 1_555
H1 O7 1_555 1_555
H2 O7 1_555 1_555
O8 Er1 1_555 1_555
H3 O8 1_555 1_555
H4 O8 1_555 1_555
N1 C9 1_555 1_555
N2 C21 1_555 1_555
N3 C33 1_555 1_555
C1 C2 1_555 1_555
C2 H5 1_555 1_555
C3 C2 1_555 1_555
C4 C3 1_555 1_555
H6 C4 1_555 1_555
C5 C4 1_555 1_555
H7 C5 1_555 1_555
C6 C1 1_555 1_555
H8 C6 1_555 1_555
C7 C3 1_555 1_555
C8 C7 1_555 1_555
H9 C8 1_555 1_555
C9 C8 1_555 1_555
H10 C9 1_555 1_555
C10 N1 1_555 1_555
H11 C10 1_555 1_555
C11 C7 1_555 1_555
H12 C11 1_555 1_555
C12 C1 1_555 1_555
C13 C14 1_555 1_555
C14 H13 1_555 1_555
C15 C14 1_555 1_555
C16 C15 1_555 1_555
H14 C16 1_555 1_555
C17 C16 1_555 1_555
H15 C17 1_555 1_555
C18 C13 1_555 1_555
H16 C18 1_555 1_555
C19 C15 1_555 1_555
C20 C19 1_555 1_555
H17 C20 1_555 1_555
C21 C20 1_555 1_555
H18 C21 1_555 1_555
C22 N2 1_555 1_555
H19 C22 1_555 1_555
C23 C19 1_555 1_555
H20 C23 1_555 1_555
C24 O3 1_555 1_555
C25 C26 1_555 1_555
C26 H21 1_555 1_555
C27 C26 1_555 1_555
C28 C27 1_555 1_555
H22 C28 1_555 1_555
C29 C28 1_555 1_555
H23 C29 1_555 1_555
C30 C25 1_555 1_555
H24 C30 1_555 1_555
C31 C27 1_555 1_555
C32 C31 1_555 1_555
H25 C32 1_555 1_555
C33 C32 1_555 1_555
H26 C33 1_555 1_555
C34 N3 1_555 1_555
H27 C34 1_555 1_555
C35 C31 1_555 1_555
H28 C35 1_555 1_555
C36 O5 1_555 1_555
O9 H29 1_555 1_555
H30 O9 1_555 1_555
Er1A O4 1_555 1_555
Er1A_2 O2 1_555 1_555
O2A Er1 1_555 1_555
O4A Er1 1_555 1_555
O6 C36 1_555 1_555
C5 C6 1_555 1_555
C10 C11 1_555 1_555
C13 C24 1_555 1_555
C17 C18 1_555 1_555
C22 C23 1_555 1_555
C25 C36 1_555 1_555
C29 C30 1_555 1_555
C34 C35 1_555 1_555

#END
