
#######################################################################
#
#                 Cambridge Crystallographic Data Centre
#                                CCDC 
#
#######################################################################
#
# If this CIF has been generated from an entry in the Cambridge 
# Structural Database, then it will include bibliographic, chemical, 
# crystal, experimental, refinement or atomic coordinate data resulting 
# from the CCDC's data processing and validation procedures.
#
#######################################################################

data_PICNIA
_symmetry_cell_setting           triclinic
_symmetry_space_group_name_H-M   'P -1'
_symmetry_Int_Tables_number      2
_space_group_name_Hall           '-P 1'
loop_
_symmetry_equiv_pos_site_id
_symmetry_equiv_pos_as_xyz
1 x,y,z
2 -x,-y,-z
_cell_length_a                   10.008(6)
_cell_length_b                   13.404(7)
_cell_length_c                   24.179(14)
_cell_angle_alpha                93.280(11)
_cell_angle_beta                 91.351(8)
_cell_angle_gamma                93.369(9)
_cell_volume                     3231.45
loop_
_atom_site_label
_atom_site_type_symbol
_atom_site_fract_x
_atom_site_fract_y
_atom_site_fract_z
Sm1 Sm 1.01031(3) -0.26017(2) -0.261933(12)
Sm2 Sm 0.50501(3) -0.26931(2) -0.242309(12)
O1 O 0.9350(4) -0.2387(4) -0.16285(19)
O2 O 1.1220(4) -0.1539(3) -0.18333(18)
O3 O 0.9348(4) -0.2929(3) -0.36315(19)
O4 O 1.1102(4) -0.3676(3) -0.33329(18)
O5 O 0.8455(4) -0.1426(3) -0.26969(19)
O6 O 0.6447(4) -0.1128(3) -0.23760(19)
O7 O 0.6138(4) -0.4248(3) -0.25070(19)
O8 O 0.8271(4) -0.3738(3) -0.2533(2)
O9 O 1.3636(4) -0.3620(4) -0.18250(19)
O10 O 1.1587(4) -0.3636(3) -0.21990(18)
O11 O 1.1365(4) -0.1400(3) -0.31197(18)
O12 O 1.3364(4) -0.1841(3) -0.2849(2)
O13 O 0.3834(4) -0.3901(3) -0.31019(18)
H1 H 0.2983 -0.3926 -0.3125
H2 H 0.4267 -0.4290 -0.3311
O14 O 0.4119(4) -0.1436(4) -0.17371(19)
H3 H 0.3278 -0.1387 -0.1720
H4 H 0.4648 -0.1060 -0.1525
O15 O 0.6504(4) -0.2679(3) -0.15994(17)
H5 H 0.6536 -0.3177 -0.1407
H6 H 0.6989 -0.2165 -0.1518
O16 O 0.6196(4) -0.2538(4) -0.32769(18)
H7 H 0.6356 -0.1963 -0.3401
H8 H 0.6442 -0.3057 -0.3456
C1 C 1.4727(11) 0.1515(9) -0.0259(4)
H9 H 1.5299 0.1767 -0.0522
C2 C 1.4814(8) -0.6463(6) -0.4732(4)
H10 H 1.5378 -0.6658 -0.4452
N1 N 1.3821(6) 0.1015(6) -0.2005(3)
N2 N 1.3106(5) -0.6131(4) -0.3174(3)
N3 N 0.6244(9) -0.5059(10) -0.1104(5)
N4 N 1.1092(8) -0.0763(5) -0.5782(3)
C3 C 1.0642(6) -0.1524(5) -0.0881(3)
C4 C 0.9904(7) -0.1972(6) -0.0469(3)
H11 H 0.9241 -0.2471 -0.0565
C5 C 1.0162(8) -0.1669(6) 0.0086(3)
H12 H 0.9676 -0.1966 0.0363
C6 C 1.1156(8) -0.0917(6) 0.0223(3)
H13 H 1.1333 -0.0724 0.0594
C7 C 1.1890(7) -0.0448(5) -0.0179(3)
C8 C 1.1605(6) -0.0779(5) -0.0726(3)
H14 H 1.2091 -0.0482 -0.1003
C9 C 1.2928(8) 0.0367(6) -0.0032(3)
C10 C 1.3038(10) 0.0828(8) 0.0478(3)
H15 H 1.2451 0.0610 0.0744
N5 N 1.3944(9) 0.1586(7) 0.0627(3)
C11 C 1.4795(10) 0.1900(8) 0.0264(4)
H16 H 1.5454 0.2396 0.0370
C12 C 1.3789(11) 0.0733(9) -0.0402(4)
H17 H 1.3753 0.0454 -0.0764
C13 C 1.0374(6) -0.1830(5) -0.1477(3)
C14 C 1.0764(6) -0.3678(5) -0.4310(3)
C15 C 1.1663(6) -0.4414(5) -0.4408(3)
H18 H 1.2000 -0.4740 -0.4109
C16 C 1.2077(7) -0.4681(5) -0.4940(3)
C17 C 1.1568(8) -0.4157(6) -0.5376(3)
H19 H 1.1842 -0.4306 -0.5735
C18 C 1.0665(8) -0.3423(6) -0.5286(3)
H20 H 1.0339 -0.3090 -0.5583
C19 C 1.0253(8) -0.3187(5) -0.4762(3)
H21 H 0.9635 -0.2702 -0.4704
C20 C 1.3034(7) -0.5466(5) -0.5040(3)
C21 C 1.3151(7) -0.5962(6) -0.5557(3)
H22 H 1.2568 -0.5811 -0.5841
N6 N 1.4047(7) -0.6639(5) -0.5670(3)
C22 C 1.4860(8) -0.6879(6) -0.5264(4)
H23 H 1.5489 -0.7348 -0.5343
C23 C 1.3900(8) -0.5746(6) -0.4628(3)
H24 H 1.3865 -0.5443 -0.4273
C24 C 1.0369(6) -0.3418(4) -0.3731(3)
C25 C 0.8205(6) 0.0092(4) -0.2170(3)
C26 C 0.7370(6) 0.0713(5) -0.1874(3)
H25 H 0.6464 0.0527 -0.1848
C27 C 0.7885(7) 0.1598(5) -0.1621(3)
H26 H 0.7325 0.2012 -0.1426
C28 C 0.9229(7) 0.1880(5) -0.1652(3)
H27 H 0.9559 0.2483 -0.1477
C29 C 1.0089(6) 0.1287(4) -0.1938(3)
C30 C 0.9547(6) 0.0389(4) -0.2211(2)
H28 H 1.0099 -0.0008 -0.2422
C31 C 1.1551(6) 0.1565(5) -0.1949(3)
C32 C 1.2081(7) 0.2545(6) -0.1892(3)
H29 H 1.1510 0.3067 -0.1860
C33 C 1.3453(8) 0.2755(6) -0.1884(4)
H30 H 1.3812 0.3411 -0.1837
C34 C 1.4271(8) 0.1970(8) -0.1947(4)
H31 H 1.5191 0.2115 -0.1949
C35 C 1.2477(7) 0.0836(6) -0.2005(3)
H32 H 1.2146 0.0172 -0.2045
C36 C 0.7663(6) -0.0891(4) -0.2433(2)
C37 C 0.7673(6) -0.5451(4) -0.2760(3)
C38 C 0.6704(7) -0.6232(5) -0.2796(4)
H33 H 0.5820 -0.6117 -0.2716
C39 C 0.7064(7) -0.7190(5) -0.2953(4)
H34 H 0.6415 -0.7717 -0.2972
C40 C 0.8370(7) -0.7376(5) -0.3082(4)
H35 H 0.8584 -0.8022 -0.3193
C41 C 0.9365(6) -0.6602(4) -0.3046(3)
C42 C 0.8983(6) -0.5641(4) -0.2883(3)
H36 H 0.9631 -0.5113 -0.2857
C43 C 1.0784(6) -0.6777(5) -0.3172(3)
C44 C 1.1173(7) -0.7683(5) -0.3394(3)
H37 H 1.0543 -0.8213 -0.3473
C45 C 1.2519(7) -0.7792(6) -0.3499(4)
H38 H 1.2793 -0.8399 -0.3648
C46 C 1.3427(7) -0.7022(6) -0.3384(3)
H39 H 1.4321 -0.7118 -0.3455
C47 C 1.1803(7) -0.6037(5) -0.3067(3)
H40 H 1.1565 -0.5425 -0.2909
C48 C 0.7328(6) -0.4402(4) -0.2589(2)
C49 C 1.1867(6) -0.4479(5) -0.1372(3)
C50 C 1.2676(8) -0.4696(7) -0.0932(3)
H41 H 1.3572 -0.4468 -0.0919
C51 C 1.2178(9) -0.5246(8) -0.0509(4)
H42 H 1.2740 -0.5396 -0.0218
C52 C 1.0838(8) -0.5573(6) -0.0520(3)
H43 H 1.0501 -0.5950 -0.0238
C53 C 1.0008(7) -0.5340(5) -0.0949(3)
C54 C 1.0534(7) -0.4806(5) -0.1376(3)
H44 H 0.9977 -0.4666 -0.1671
C55 C 0.8486(9) -0.5495(8) -0.0896(4)
C56 C 0.7869(11) -0.6273(8) -0.0588(5)
H45 H 0.8432 -0.6670 -0.0398
C57 C 0.6640(9) -0.6459(8) -0.0556(5)
H46 H 0.6290 -0.6955 -0.0338
C58 C 0.5906(11) -0.5947(9) -0.0832(5)
H47 H 0.5011 -0.6177 -0.0865
C59 C 0.7538(11) -0.4845(10) -0.1133(6)
H48 H 0.7848 -0.4277 -0.1306
C60 C 1.2397(6) -0.3862(5) -0.1828(3)
C61 C 1.3267(5) -0.0731(4) -0.3573(2)
C62 C 1.4540(6) -0.0270(5) -0.3480(3)
H49 H 1.5014 -0.0362 -0.3153
C63 C 1.5100(6) 0.0323(5) -0.3872(3)
H50 H 1.5946 0.0639 -0.3807
C64 C 1.4389(6) 0.0450(5) -0.4370(3)
H51 H 1.4769 0.0855 -0.4631
C65 C 1.3127(6) -0.0022(4) -0.4478(3)
C66 C 1.2562(6) -0.0601(4) -0.4062(2)
H52 H 1.1704 -0.0899 -0.4118
C67 C 1.2409(6) 0.0054(4) -0.5009(3)
C68 C 1.2390(7) 0.0964(5) -0.5272(3)
H53 H 1.2814 0.1547 -0.5109
C69 C 1.1711(8) 0.0969(6) -0.5791(3)
H54 H 1.1679 0.1557 -0.5976
C70 C 1.1106(8) 0.0106(7) -0.6015(3)
H55 H 1.0669 0.0125 -0.6357
C71 C 1.1761(8) -0.0784(5) -0.5297(3)
H56 H 1.1799 -0.1399 -0.5139
C72 C 1.2632(6) -0.1356(4) -0.3146(2)
Sm2_2 Sm 1.50501(3) -0.26931(2) -0.242309(12)
O9_2 O 0.3636(4) -0.3620(4) -0.18250(19)
O12_2 O 0.3364(4) -0.1841(3) -0.2849(2)
loop_
_geom_bond_atom_site_label_1
_geom_bond_atom_site_label_2
_geom_bond_site_symmetry_1
_geom_bond_site_symmetry_2
Sm1 O1 1_555 1_555
Sm2 O6 1_555 1_555
O1 C13 1_555 1_555
O2 Sm1 1_555 1_555
O3 Sm1 1_555 1_555
O4 Sm1 1_555 1_555
O5 Sm1 1_555 1_555
O6 C36 1_555 1_555
O7 Sm2 1_555 1_555
O8 Sm1 1_555 1_555
O9 C60 1_555 1_555
O10 Sm1 1_555 1_555
O11 Sm1 1_555 1_555
O12 C72 1_555 1_555
O13 Sm2 1_555 1_555
H1 O13 1_555 1_555
H2 O13 1_555 1_555
O14 Sm2 1_555 1_555
H3 O14 1_555 1_555
H4 O14 1_555 1_555
O15 Sm2 1_555 1_555
H5 O15 1_555 1_555
H6 O15 1_555 1_555
O16 Sm2 1_555 1_555
H7 O16 1_555 1_555
H8 O16 1_555 1_555
C1 H9 1_555 1_555
C2 H10 1_555 1_555
N1 C34 1_555 1_555
N2 C46 1_555 1_555
N3 C58 1_555 1_555
N4 C70 1_555 1_555
C3 C4 1_555 1_555
C4 H11 1_555 1_555
C5 C4 1_555 1_555
H12 C5 1_555 1_555
C6 C5 1_555 1_555
H13 C6 1_555 1_555
C7 C6 1_555 1_555
C8 C3 1_555 1_555
H14 C8 1_555 1_555
C9 C7 1_555 1_555
C10 C9 1_555 1_555
H15 C10 1_555 1_555
N5 C10 1_555 1_555
C11 C1 1_555 1_555
H16 C11 1_555 1_555
C12 C1 1_555 1_555
H17 C12 1_555 1_555
C13 O2 1_555 1_555
C14 C15 1_555 1_555
C15 H18 1_555 1_555
C16 C15 1_555 1_555
C17 C16 1_555 1_555
H19 C17 1_555 1_555
C18 C17 1_555 1_555
H20 C18 1_555 1_555
C19 C14 1_555 1_555
H21 C19 1_555 1_555
C20 C16 1_555 1_555
C21 C20 1_555 1_555
H22 C21 1_555 1_555
N6 C21 1_555 1_555
C22 C2 1_555 1_555
H23 C22 1_555 1_555
C23 C2 1_555 1_555
H24 C23 1_555 1_555
C24 O3 1_555 1_555
C25 C26 1_555 1_555
C26 H25 1_555 1_555
C27 C26 1_555 1_555
H26 C27 1_555 1_555
C28 C27 1_555 1_555
H27 C28 1_555 1_555
C29 C28 1_555 1_555
C30 C25 1_555 1_555
H28 C30 1_555 1_555
C31 C29 1_555 1_555
C32 C31 1_555 1_555
H29 C32 1_555 1_555
C33 C32 1_555 1_555
H30 C33 1_555 1_555
C34 C33 1_555 1_555
H31 C34 1_555 1_555
C35 N1 1_555 1_555
H32 C35 1_555 1_555
C36 O5 1_555 1_555
C37 C38 1_555 1_555
C38 H33 1_555 1_555
C39 C38 1_555 1_555
H34 C39 1_555 1_555
C40 C39 1_555 1_555
H35 C40 1_555 1_555
C41 C40 1_555 1_555
C42 C37 1_555 1_555
H36 C42 1_555 1_555
C43 C41 1_555 1_555
C44 C43 1_555 1_555
H37 C44 1_555 1_555
C45 C44 1_555 1_555
H38 C45 1_555 1_555
C46 C45 1_555 1_555
H39 C46 1_555 1_555
C47 N2 1_555 1_555
H40 C47 1_555 1_555
C48 O7 1_555 1_555
C49 C50 1_555 1_555
C50 H41 1_555 1_555
C51 C50 1_555 1_555
H42 C51 1_555 1_555
C52 C51 1_555 1_555
H43 C52 1_555 1_555
C53 C52 1_555 1_555
C54 C49 1_555 1_555
H44 C54 1_555 1_555
C55 C53 1_555 1_555
C56 C55 1_555 1_555
H45 C56 1_555 1_555
C57 C56 1_555 1_555
H46 C57 1_555 1_555
C58 C57 1_555 1_555
H47 C58 1_555 1_555
C59 N3 1_555 1_555
H48 C59 1_555 1_555
C60 O10 1_555 1_555
C61 C62 1_555 1_555
C62 H49 1_555 1_555
C63 C62 1_555 1_555
H50 C63 1_555 1_555
C64 C63 1_555 1_555
H51 C64 1_555 1_555
C65 C64 1_555 1_555
C66 C61 1_555 1_555
H52 C66 1_555 1_555
C67 C65 1_555 1_555
C68 C67 1_555 1_555
H53 C68 1_555 1_555
C69 C68 1_555 1_555
H54 C69 1_555 1_555
C70 C69 1_555 1_555
H55 C70 1_555 1_555
C71 N4 1_555 1_555
H56 C71 1_555 1_555
C72 O11 1_555 1_555
Sm2_2 O9 1_555 1_555
O9_2 Sm2 1_555 1_555
O12_2 Sm2 1_555 1_555
O4 C24 1_555 1_555
O8 C48 1_555 1_555
O12 Sm2_2 1_555 1_555
C3 C13 1_555 1_555
C7 C8 1_555 1_555
C9 C12 1_555 1_555
N5 C11 1_555 1_555
C14 C24 1_555 1_555
C18 C19 1_555 1_555
C20 C23 1_555 1_555
N6 C22 1_555 1_555
C25 C36 1_555 1_555
C29 C30 1_555 1_555
C31 C35 1_555 1_555
C37 C48 1_555 1_555
C41 C42 1_555 1_555
C43 C47 1_555 1_555
C49 C60 1_555 1_555
C53 C54 1_555 1_555
C55 C59 1_555 1_555
C61 C72 1_555 1_555
C65 C66 1_555 1_555
C67 C71 1_555 1_555

#END
