
#######################################################################
#
#                 Cambridge Crystallographic Data Centre
#                                CCDC 
#
#######################################################################
#
# If this CIF has been generated from an entry in the Cambridge 
# Structural Database, then it will include bibliographic, chemical, 
# crystal, experimental, refinement or atomic coordinate data resulting 
# from the CCDC's data processing and validation procedures.
#
#######################################################################

data_PICOCU02
_symmetry_cell_setting           triclinic
_symmetry_space_group_name_H-M   'P -1'
_symmetry_Int_Tables_number      2
_space_group_name_Hall           '-P 1'
loop_
_symmetry_equiv_pos_site_id
_symmetry_equiv_pos_as_xyz
1 x,y,z
2 -x,-y,-z
_cell_length_a                   5.1329(2)
_cell_length_b                   7.6410(4)
_cell_length_c                   9.2397(4)
_cell_angle_alpha                74.918(2)
_cell_angle_beta                 84.368(2)
_cell_angle_gamma                71.469(2)
_cell_volume                     331.714
loop_
_atom_site_label
_atom_site_type_symbol
_atom_site_fract_x
_atom_site_fract_y
_atom_site_fract_z
Cu1 Cu 0.5000 0.5000 0.5000
O1 O 0.1693(5) 0.5408(4) 0.6257(3)
O2 O -0.2720(5) 0.7126(4) 0.6166(3)
N1 N 0.2820(5) 0.7307(4) 0.3612(3)
C1 C 0.3611(8) 0.8237(5) 0.2291(4)
H1 H 0.5347 0.7729 0.1900
C2 C 0.1874(9) 0.9952(6) 0.1495(4)
H2 H 0.2448 1.0599 0.0585
C3 C -0.0723(9) 1.0682(5) 0.2079(5)
H3 H -0.1901 1.1835 0.1569
C4 C -0.1546(7) 0.9702(5) 0.3405(4)
H4 H -0.3299 1.0163 0.3796
C5 C 0.0281(6) 0.7998(4) 0.4166(4)
C6 C -0.0348(6) 0.6782(4) 0.5642(4)
Cu1_2 Cu -0.5000 0.5000 0.5000
O1A O -0.1693(5) 0.4592(4) 0.3743(3)
O1A_2 O 0.8307(5) 0.4592(4) 0.3743(3)
O2A O 0.2720(5) 0.2874(4) 0.3834(3)
O2_2 O 0.7280(5) 0.7126(4) 0.6166(3)
N1A N -0.2820(5) 0.2693(4) 0.6388(3)
N1A_2 N 0.7180(5) 0.2693(4) 0.6388(3)
C1A C -0.3611(8) 0.1763(5) 0.7709(4)
H1A H -0.5347 0.2271 0.8100
C2A C -0.1874(9) 0.0048(6) 0.8505(4)
H2A H -0.2448 -0.0599 0.9415
C3A C 0.0723(9) -0.0682(5) 0.7921(5)
H3A H 0.1901 -0.1835 0.8431
C4A C 0.1546(7) 0.0298(5) 0.6595(4)
H4A H 0.3299 -0.0163 0.6204
C5A C -0.0281(6) 0.2002(4) 0.5834(4)
C6A C 0.0348(6) 0.3218(4) 0.4358(4)
O3 O 0.2617(12) 0.4544(11) 0.0612(6)
loop_
_geom_bond_atom_site_label_1
_geom_bond_atom_site_label_2
_geom_bond_site_symmetry_1
_geom_bond_site_symmetry_2
Cu1 O1 1_555 1_555
O1 C6 1_555 1_555
O2 C6 1_555 1_555
N1 Cu1 1_555 1_555
C1 N1 1_555 1_555
H1 C1 1_555 1_555
C2 C1 1_555 1_555
H2 C2 1_555 1_555
C3 C2 1_555 1_555
H3 C3 1_555 1_555
C4 C3 1_555 1_555
H4 C4 1_555 1_555
C5 N1 1_555 1_555
C6 C5 1_555 1_555
Cu1_2 O2 1_555 1_555
O1A Cu1_2 1_555 1_555
O1A_2 Cu1 1_555 1_555
O2A Cu1 1_555 1_555
O2_2 Cu1 1_555 1_555
N1A Cu1_2 1_555 1_555
N1A_2 Cu1 1_555 1_555
C1A N1A 1_555 1_555
H1A C1A 1_555 1_555
C2A C1A 1_555 1_555
H2A C2A 1_555 1_555
C3A C2A 1_555 1_555
H3A C3A 1_555 1_555
C4A C3A 1_555 1_555
H4A C4A 1_555 1_555
C5A N1A 1_555 1_555
C6A O1A 1_555 1_555
C4 C5 1_555 1_555
O2A C6A 1_555 1_555
C4A C5A 1_555 1_555
C5A C6A 1_555 1_555

#END
