
#######################################################################
#
#                 Cambridge Crystallographic Data Centre
#                                CCDC 
#
#######################################################################
#
# If this CIF has been generated from an entry in the Cambridge 
# Structural Database, then it will include bibliographic, chemical, 
# crystal, experimental, refinement or atomic coordinate data resulting 
# from the CCDC's data processing and validation procedures.
#
#######################################################################

data_PICVEE
_symmetry_cell_setting           monoclinic
_symmetry_space_group_name_H-M   'P 21/c'
_symmetry_Int_Tables_number      14
_space_group_name_Hall           '-P 2ybc'
loop_
_symmetry_equiv_pos_site_id
_symmetry_equiv_pos_as_xyz
1 x,y,z
2 -x,1/2+y,1/2-z
3 -x,-y,-z
4 x,1/2-y,1/2+z
_cell_length_a                   7.3567(7)
_cell_length_b                   18.0436(18)
_cell_length_c                   9.1905(9)
_cell_angle_alpha                90
_cell_angle_beta                 110.107(2)
_cell_angle_gamma                90
_cell_volume                     1145.61
loop_
_atom_site_label
_atom_site_type_symbol
_atom_site_fract_x
_atom_site_fract_y
_atom_site_fract_z
Ag1 Ag 0.46709(2) 0.182016(8) -0.173056(17)
N1 N 0.5961(2) 0.06632(8) -0.14081(16)
C1 C 0.5129(3) 0.02504(10) -0.2655(2)
H1 H 0.4222 0.0482 -0.3535
C2 C 0.5507(3) -0.05061(10) -0.2754(2)
H2 H 0.4917 -0.0770 -0.3694
C3 C 0.6739(3) -0.08582(9) -0.1477(2)
H3 H 0.6980 -0.1374 -0.1509
C4 C 0.8923(2) -0.07960(9) 0.12341(19)
H4 H 0.9168 -0.1312 0.1220
C5 C 0.9809(2) -0.03927(9) 0.25581(19)
C6 C 0.9456(2) 0.03805(9) 0.25742(18)
H5 H 1.0048 0.0661 0.3490
C7 C 0.8256(2) 0.07182(9) 0.12620(18)
C8 C 0.7258(2) 0.03282(8) -0.01321(18)
C9 C 0.7651(2) -0.04476(9) -0.01066(19)
O1 O 1.10731(19) -0.06686(7) 0.38913(15)
C10 C 1.1489(3) -0.14478(9) 0.3880(2)
H6 H 1.0277 -0.1730 0.3582
H7 H 1.2328 -0.1601 0.4916
H8 H 1.2146 -0.1543 0.3134
N2 N 0.8121(2) 0.15298(8) 0.13320(17)
O2 O 0.7914(2) 0.18034(7) 0.24817(17)
O3 O 0.8270(2) 0.18856(7) 0.02367(18)
N3 N 0.3051(2) 0.29334(8) -0.02172(17)
O4 O 0.2478(2) 0.27442(8) -0.16176(16)
O5 O 0.4379(2) 0.25634(8) 0.07435(17)
O6 O 0.2333(2) 0.34721(8) 0.02289(17)
Ag1C Ag 0.46709(2) 0.317984(8) 0.326944(17)
O5C O 0.4379(2) 0.24366(8) -0.42565(17)
loop_
_geom_bond_atom_site_label_1
_geom_bond_atom_site_label_2
_geom_bond_site_symmetry_1
_geom_bond_site_symmetry_2
Ag1 N1 1_555 1_555
N1 C1 1_555 1_555
C1 H1 1_555 1_555
C2 C1 1_555 1_555
H2 C2 1_555 1_555
C3 C2 1_555 1_555
H3 C3 1_555 1_555
C4 H4 1_555 1_555
C5 C4 1_555 1_555
C6 C5 1_555 1_555
H5 C6 1_555 1_555
C7 C6 1_555 1_555
C8 N1 1_555 1_555
C9 C3 1_555 1_555
O1 C5 1_555 1_555
C10 O1 1_555 1_555
H6 C10 1_555 1_555
H7 C10 1_555 1_555
H8 C10 1_555 1_555
N2 C7 1_555 1_555
O2 N2 1_555 1_555
O3 Ag1 1_555 1_555
N3 O4 1_555 1_555
O4 Ag1 1_555 1_555
O5 Ag1 1_555 1_555
O6 N3 1_555 1_555
Ag1C O5 1_555 1_555
O5C Ag1 1_555 1_555
C4 C9 1_555 1_555
C7 C8 1_555 1_555
C8 C9 1_555 1_555
N2 O3 1_555 1_555
N3 O5 1_555 1_555

#END
