
#######################################################################
#
#                 Cambridge Crystallographic Data Centre
#                                CCDC 
#
#######################################################################
#
# If this CIF has been generated from an entry in the Cambridge 
# Structural Database, then it will include bibliographic, chemical, 
# crystal, experimental, refinement or atomic coordinate data resulting 
# from the CCDC's data processing and validation procedures.
#
#######################################################################

data_PICVAA
_symmetry_cell_setting           monoclinic
_symmetry_space_group_name_H-M   'P 21/c'
_symmetry_Int_Tables_number      14
_space_group_name_Hall           '-P 2ybc'
loop_
_symmetry_equiv_pos_site_id
_symmetry_equiv_pos_as_xyz
1 x,y,z
2 -x,1/2+y,1/2-z
3 -x,-y,-z
4 x,1/2-y,1/2+z
_cell_length_a                   14.140(4)
_cell_length_b                   9.621(3)
_cell_length_c                   7.429(2)
_cell_angle_alpha                90
_cell_angle_beta                 98.177(6)
_cell_angle_gamma                90
_cell_volume                     1000.37
loop_
_atom_site_label
_atom_site_type_symbol
_atom_site_fract_x
_atom_site_fract_y
_atom_site_fract_z
Ag1 Ag -0.08056(3) 0.55231(5) 0.34953(7)
O1 O 0.0597(3) 0.6115(4) 0.2574(6)
O2 O 0.1511(3) 0.7744(4) 0.1850(6)
O3 O 0.0093(3) 0.8249(5) 0.2396(6)
N1 N -0.2060(3) 0.5914(5) 0.4923(6)
N2 N -0.4304(4) 0.2826(7) 0.6958(8)
N3 N 0.0734(4) 0.7388(5) 0.2274(7)
C1 C -0.2564(4) 0.4853(7) 0.5348(8)
H1 H -0.2328 0.3942 0.5193
C2 C -0.3436(4) 0.5001(6) 0.6021(7)
C3 C -0.3800(4) 0.6318(6) 0.6237(7)
H2 H -0.4395 0.6437 0.6670
C4 C -0.3578(4) 0.8868(6) 0.6016(7)
H3 H -0.4177 0.9046 0.6407
C5 C -0.3008(5) 0.9937(6) 0.5658(7)
H4 H -0.3215 1.0863 0.5812
C6 C -0.2127(5) 0.9717(6) 0.5070(8)
H5 H -0.1742 1.0488 0.4842
C7 C -0.1809(4) 0.8372(6) 0.4815(7)
H6 H -0.1214 0.8222 0.4392
C8 C -0.2378(4) 0.7237(6) 0.5190(7)
C9 C -0.3270(4) 0.7473(6) 0.5803(7)
C10 C -0.3939(5) 0.3778(7) 0.6544(8)
Ag1A Ag 0.08056(3) 1.05231(5) 0.15047(7)
O3A O -0.0093(3) 0.3249(5) 0.2604(6)
loop_
_geom_bond_atom_site_label_1
_geom_bond_atom_site_label_2
_geom_bond_site_symmetry_1
_geom_bond_site_symmetry_2
Ag1 O1 1_555 1_555
O1 N3 1_555 1_555
O2 N3 1_555 1_555
O3 N3 1_555 1_555
N1 Ag1 1_555 1_555
N2 C10 1_555 1_555
C1 N1 1_555 1_555
H1 C1 1_555 1_555
C2 C1 1_555 1_555
C3 C2 1_555 1_555
H2 C3 1_555 1_555
C4 H3 1_555 1_555
C5 C4 1_555 1_555
H4 C5 1_555 1_555
C6 C5 1_555 1_555
H5 C6 1_555 1_555
C7 C6 1_555 1_555
H6 C7 1_555 1_555
C8 N1 1_555 1_555
C9 C3 1_555 1_555
C10 C2 1_555 1_555
Ag1A O3 1_555 1_555
O3A Ag1 1_555 1_555
C4 C9 1_555 1_555
C7 C8 1_555 1_555
C8 C9 1_555 1_555

#END
