
#######################################################################
#
#                 Cambridge Crystallographic Data Centre
#                                CCDC 
#
#######################################################################
#
# If this CIF has been generated from an entry in the Cambridge 
# Structural Database, then it will include bibliographic, chemical, 
# crystal, experimental, refinement or atomic coordinate data resulting 
# from the CCDC's data processing and validation procedures.
#
#######################################################################

data_PICWOP
_symmetry_cell_setting           monoclinic
_symmetry_space_group_name_H-M   'C 2/c'
_symmetry_Int_Tables_number      15
_space_group_name_Hall           '-C 2yn'
loop_
_symmetry_equiv_pos_site_id
_symmetry_equiv_pos_as_xyz
1 x,y,z
2 -x,y,1/2-z
3 1/2+x,1/2+y,z
4 1/2-x,1/2+y,1/2-z
5 -x,-y,-z
6 x,-y,1/2+z
7 1/2-x,1/2-y,-z
8 1/2+x,1/2-y,1/2+z
_cell_length_a                   14.707(11)
_cell_length_b                   11.252(8)
_cell_length_c                   16.704(9)
_cell_angle_alpha                90
_cell_angle_beta                 117.08(5)
_cell_angle_gamma                90
_cell_volume                     2461.19
loop_
_atom_site_label
_atom_site_type_symbol
_atom_site_fract_x
_atom_site_fract_y
_atom_site_fract_z
Cu1 Cu 0.54278(3) 0.08252(4) 0.46027(3)
C1 C 0.3741(3) 0.1963(4) 0.3827(3)
C2 C 0.2649(3) 0.2279(4) 0.3477(3)
C3 C 0.2085(3) 0.1940(4) 0.3925(3)
H1 H 0.2411 0.1564 0.4481
C4 C 0.2170(3) 0.2869(4) 0.2650(2)
H2 H 0.2545 0.3105 0.2355
C5 C 0.1053(3) 0.2156(4) 0.3552(3)
H3 H 0.0684 0.1931 0.3855
C6 C 0.1142(3) 0.3098(3) 0.2277(2)
C7 C 0.0561(3) 0.2715(3) 0.2715(2)
C8 C 0.0698(3) 0.3803(3) 0.1411(2)
C9 C 0.6754(4) 0.0655(4) 0.3729(4)
H4 H 0.6137 0.0554 0.3215
C10 C 0.7621(4) 0.0966(5) 0.5253(3)
H5 H 0.7631 0.1079 0.5808
C11 C 0.8528(4) 0.0938(5) 0.5202(5)
H6 H 0.9141 0.1032 0.5722
C12 C 0.7643(5) 0.0617(5) 0.3644(5)
H7 H 0.7627 0.0488 0.3088
C13 C 0.8539(5) 0.0773(5) 0.4390(5)
H8 H 0.9152 0.0768 0.4356
N1 N 0.6734(3) 0.0835(3) 0.4529(3)
O1 O 0.4063(2) 0.1183(3) 0.44592(19)
O2 O 0.4284(2) 0.2398(4) 0.3509(3)
O3 O 0.0980(2) 0.3506(3) 0.08192(17)
O4 O 0.0121(2) 0.4641(3) 0.13766(18)
C1A C -0.3741(3) 0.1963(4) 0.1173(3)
C2A C -0.2649(3) 0.2279(4) 0.1523(3)
C3A C -0.2085(3) 0.1940(4) 0.1075(3)
H1A H -0.2411 0.1564 0.0519
C4A C -0.2170(3) 0.2869(4) 0.2350(2)
H2A H -0.2545 0.3105 0.2645
C5A C -0.1053(3) 0.2156(4) 0.1448(3)
H3A H -0.0684 0.1931 0.1145
C6A C -0.1142(3) 0.3098(3) 0.2723(2)
C7A C -0.0561(3) 0.2715(3) 0.2285(2)
C8A C -0.0698(3) 0.3803(3) 0.3589(2)
O1A O -0.4063(2) 0.1183(3) 0.05408(19)
O2A O -0.4284(2) 0.2398(4) 0.1491(3)
O3A O -0.0980(2) 0.3506(3) 0.41808(17)
O4A O -0.0121(2) 0.4641(3) 0.36234(18)
Cu1A Cu -0.54278(3) 0.08252(4) 0.03973(3)
C9A C -0.6754(4) 0.0655(4) 0.1271(4)
H4A H -0.6137 0.0554 0.1785
C10A C -0.7621(4) 0.0966(5) -0.0253(3)
H5A H -0.7631 0.1079 -0.0808
C11A C -0.8528(4) 0.0938(5) -0.0202(5)
H6A H -0.9141 0.1032 -0.0722
C12A C -0.7643(5) 0.0617(5) 0.1356(5)
H7A H -0.7627 0.0488 0.1912
C13A C -0.8539(5) 0.0773(5) 0.0610(5)
H8A H -0.9152 0.0768 0.0644
N1A N -0.6734(3) 0.0835(3) 0.0471(3)
Cu1B Cu 0.04278(3) 0.58252(4) 0.46027(3)
Cu1C Cu -0.04278(3) 0.58252(4) 0.03973(3)
Cu1D Cu 0.45722(3) -0.08252(4) 0.53973(3)
Cu1E Cu -0.45722(3) -0.08252(4) -0.03973(3)
Cu1F Cu -0.04278(3) 0.41748(4) 0.53973(3)
Cu1G Cu 0.04278(3) 0.41748(4) -0.03973(3)
O1D O 0.5937(2) -0.1183(3) 0.55408(19)
O1E O -0.5937(2) -0.1183(3) -0.05408(19)
O3F O -0.5980(2) 0.1494(3) -0.08192(17)
O3G O 0.5980(2) 0.1494(3) 0.58192(17)
O4B O -0.4879(2) -0.0359(3) 0.13766(18)
O4C O 0.4879(2) -0.0359(3) 0.36234(18)
O5 O 0.5000 0.388(2) 0.2500
H9 H 0.466(6) 0.340(4) 0.269(6)
H9A H 0.534(6) 0.340(4) 0.231(6)
loop_
_geom_bond_atom_site_label_1
_geom_bond_atom_site_label_2
_geom_bond_site_symmetry_1
_geom_bond_site_symmetry_2
Cu1 N1 1_555 1_555
C1 C2 1_555 1_555
C2 C3 1_555 1_555
C3 H1 1_555 1_555
C4 C2 1_555 1_555
H2 C4 1_555 1_555
C5 C3 1_555 1_555
H3 C5 1_555 1_555
C6 C4 1_555 1_555
C7 C5 1_555 1_555
C8 C6 1_555 1_555
C9 H4 1_555 1_555
C10 H5 1_555 1_555
C11 C10 1_555 1_555
H6 C11 1_555 1_555
C12 C9 1_555 1_555
H7 C12 1_555 1_555
C13 C11 1_555 1_555
H8 C13 1_555 1_555
N1 C9 1_555 1_555
O1 Cu1 1_555 1_555
O2 Cu1 1_555 1_555
O3 C8 1_555 1_555
O4 C8 1_555 1_555
O5 H9 1_555 1_555
C1A C2A 1_555 1_555
C2A C3A 1_555 1_555
C3A H1A 1_555 1_555
C4A C2A 1_555 1_555
H2A C4A 1_555 1_555
C5A C3A 1_555 1_555
H3A C5A 1_555 1_555
C6A C4A 1_555 1_555
C7A C7 1_555 1_555
C8A C6A 1_555 1_555
O1A C1A 1_555 1_555
O2A C1A 1_555 1_555
O3A C8A 1_555 1_555
O4A C8A 1_555 1_555
Cu1A O1A 1_555 1_555
C9A H4A 1_555 1_555
C10A H5A 1_555 1_555
C11A C10A 1_555 1_555
H6A C11A 1_555 1_555
C12A C9A 1_555 1_555
H7A C12A 1_555 1_555
C13A C11A 1_555 1_555
H8A C13A 1_555 1_555
N1A Cu1A 1_555 1_555
Cu1B O4A 1_555 1_555
Cu1C O4 1_555 1_555
Cu1D O1 1_555 1_555
Cu1E O1A 1_555 1_555
Cu1F O3A 1_555 1_555
Cu1G O3 1_555 1_555
O1D Cu1 1_555 1_555
O1E Cu1A 1_555 1_555
O3F Cu1A 1_555 1_555
O3G Cu1 1_555 1_555
O4B Cu1A 1_555 1_555
O4C Cu1 1_555 1_555
H9A O5 1_555 1_555
C1 O1 1_555 1_555
C1 O2 1_555 1_555
C6 C7 1_555 1_555
C10 N1 1_555 1_555
C12 C13 1_555 1_555
C5A C7A 1_555 1_555
C6A C7A 1_555 1_555
O2A Cu1A 1_555 1_555
C9A N1A 1_555 1_555
C10A N1A 1_555 1_555
C12A C13A 1_555 1_555
Cu1D O1D 1_555 1_555
Cu1E O1E 1_555 1_555

#END
