
#######################################################################
#
#                 Cambridge Crystallographic Data Centre
#                                CCDC 
#
#######################################################################
#
# If this CIF has been generated from an entry in the Cambridge 
# Structural Database, then it will include bibliographic, chemical, 
# crystal, experimental, refinement or atomic coordinate data resulting 
# from the CCDC's data processing and validation procedures.
#
#######################################################################

data_PICWEF
_symmetry_cell_setting           monoclinic
_symmetry_space_group_name_H-M   'C 2/c'
_symmetry_Int_Tables_number      15
_space_group_name_Hall           '-C 2yn'
loop_
_symmetry_equiv_pos_site_id
_symmetry_equiv_pos_as_xyz
1 x,y,z
2 -x,y,1/2-z
3 1/2+x,1/2+y,z
4 1/2-x,1/2+y,1/2-z
5 -x,-y,-z
6 x,-y,1/2+z
7 1/2-x,1/2-y,-z
8 1/2+x,1/2-y,1/2+z
_cell_length_a                   14.7964(6)
_cell_length_b                   11.0068(5)
_cell_length_c                   16.5455(10)
_cell_angle_alpha                90
_cell_angle_beta                 115.3700(10)
_cell_angle_gamma                90
_cell_volume                     2434.75
loop_
_atom_site_label
_atom_site_type_symbol
_atom_site_fract_x
_atom_site_fract_y
_atom_site_fract_z
Cu1 Cu 0.54083(4) 0.08550(6) 0.45906(3)
C1 C 0.3712(3) 0.1926(5) 0.3780(3)
C2 C 0.2626(3) 0.2233(4) 0.3425(3)
C3 C 0.2082(3) 0.1938(5) 0.3907(3)
H1 H 0.2406 0.1597 0.4474
C4 C 0.2132(3) 0.2791(5) 0.2601(3)
H2 H 0.2491 0.3008 0.2280
C5 C 0.1067(3) 0.2149(4) 0.3548(3)
H3 H 0.0713 0.1933 0.3874
C6 C 0.1116(3) 0.3035(4) 0.2241(3)
C7 C 0.0558(3) 0.2678(4) 0.2709(3)
C8 C 0.0663(3) 0.3737(4) 0.1382(3)
C9 C 0.6801(4) 0.0614(5) 0.3789(4)
H4 H 0.6223 0.0554 0.3257
C10 C 0.7573(4) 0.0989(5) 0.5291(4)
H5 H 0.7528 0.1197 0.5817
C11 C 0.8505(4) 0.0836(6) 0.5318(4)
H6 H 0.9075 0.0941 0.5851
C12 C 0.7726(4) 0.0451(6) 0.3780(4)
H7 H 0.7762 0.0287 0.3243
C13 C 0.8586(4) 0.0528(6) 0.4553(5)
C14 C 0.9565(5) 0.0106(9) 0.4616(6)
H8 H 0.9601 -0.0035 0.4076
N1 N 0.6726(3) 0.0854(4) 0.4548(3)
O1 O 0.4048(2) 0.1193(3) 0.4435(2)
O2 O 0.4235(2) 0.2345(4) 0.3432(3)
O3 O 0.0928(2) 0.3423(3) 0.07835(19)
O4 O 0.0106(2) 0.4604(3) 0.1353(2)
C1A C -0.3712(3) 0.1926(5) 0.1220(3)
C2A C -0.2626(3) 0.2233(4) 0.1575(3)
C3A C -0.2082(3) 0.1938(5) 0.1093(3)
H1A H -0.2406 0.1597 0.0526
C4A C -0.2132(3) 0.2791(5) 0.2399(3)
H2A H -0.2491 0.3008 0.2720
C5A C -0.1067(3) 0.2149(4) 0.1452(3)
H3A H -0.0713 0.1933 0.1126
C6A C -0.1116(3) 0.3035(4) 0.2759(3)
C7A C -0.0558(3) 0.2678(4) 0.2291(3)
C8A C -0.0663(3) 0.3737(4) 0.3618(3)
O1A O -0.4048(2) 0.1193(3) 0.0565(2)
O2A O -0.4235(2) 0.2345(4) 0.1568(3)
O3A O -0.0928(2) 0.3423(3) 0.42165(19)
O4A O -0.0106(2) 0.4604(3) 0.3647(2)
C9D C 1.3199(4) -0.0614(5) 0.6211(4)
H4D H 1.3777 -0.0554 0.6743
C10D C 1.2427(4) -0.0989(5) 0.4709(4)
H5D H 1.2472 -0.1197 0.4183
C11D C 1.1495(4) -0.0836(6) 0.4682(4)
H6D H 1.0925 -0.0941 0.4149
C12D C 1.2274(4) -0.0451(6) 0.6220(4)
H7D H 1.2238 -0.0287 0.6757
C13D C 1.1414(4) -0.0528(6) 0.5447(5)
C14D C 1.0435(5) -0.0106(9) 0.5384(6)
H8D H 1.0399 0.0035 0.5924
N1D N 1.3274(3) -0.0854(4) 0.5452(3)
Cu1A Cu -0.54083(4) 0.08550(6) 0.04094(3)
Cu1B Cu 0.04083(4) 0.58550(6) 0.45906(3)
Cu1C Cu -0.04083(4) 0.58550(6) 0.04094(3)
Cu1D Cu 0.45917(4) -0.08550(6) 0.54094(3)
Cu1D_2 Cu 1.45917(4) -0.08550(6) 0.54094(3)
Cu1E Cu -0.45917(4) -0.08550(6) -0.04094(3)
Cu1F Cu -0.04083(4) 0.41450(6) 0.54094(3)
Cu1G Cu 0.04083(4) 0.41450(6) -0.04094(3)
N1A N -0.6726(3) 0.0854(4) 0.0452(3)
O1D O 0.5952(2) -0.1193(3) 0.5565(2)
O1E O -0.5952(2) -0.1193(3) -0.0565(2)
O3F O -0.5928(2) 0.1577(3) -0.07835(19)
O3G O 0.5928(2) 0.1577(3) 0.57835(19)
O4B O -0.4894(2) -0.0396(3) 0.1353(2)
O4C O 0.4894(2) -0.0396(3) 0.3647(2)
O5 O 0.5000 0.3828(12) 0.2500
H9 H 0.459(3) 0.332(3) 0.260(4)
H9A H 0.541(3) 0.332(3) 0.240(4)
loop_
_geom_bond_atom_site_label_1
_geom_bond_atom_site_label_2
_geom_bond_site_symmetry_1
_geom_bond_site_symmetry_2
Cu1 N1 1_555 1_555
C1 C2 1_555 1_555
C2 C3 1_555 1_555
C3 H1 1_555 1_555
C4 C2 1_555 1_555
H2 C4 1_555 1_555
C5 C3 1_555 1_555
H3 C5 1_555 1_555
C6 C4 1_555 1_555
C7 C5 1_555 1_555
C8 C6 1_555 1_555
C9 H4 1_555 1_555
C10 H5 1_555 1_555
C11 C10 1_555 1_555
H6 C11 1_555 1_555
C12 C9 1_555 1_555
H7 C12 1_555 1_555
C13 C11 1_555 1_555
C14 C13 1_555 1_555
H8 C14 1_555 1_555
N1 C9 1_555 1_555
O1 Cu1 1_555 1_555
O2 Cu1 1_555 1_555
O3 C8 1_555 1_555
O4 C8 1_555 1_555
O5 H9 1_555 1_555
C1A C2A 1_555 1_555
C2A C3A 1_555 1_555
C3A H1A 1_555 1_555
C4A C2A 1_555 1_555
H2A C4A 1_555 1_555
C5A C3A 1_555 1_555
H3A C5A 1_555 1_555
C6A C4A 1_555 1_555
C7A C7 1_555 1_555
C8A C6A 1_555 1_555
O1A C1A 1_555 1_555
O2A C1A 1_555 1_555
O3A C8A 1_555 1_555
O4A C8A 1_555 1_555
C9D H4D 1_555 1_555
C10D H5D 1_555 1_555
C11D C10D 1_555 1_555
H6D C11D 1_555 1_555
C12D C9D 1_555 1_555
H7D C12D 1_555 1_555
C13D C11D 1_555 1_555
C14D C14 1_555 1_555
H8D C14D 1_555 1_555
N1D C9D 1_555 1_555
Cu1A O1A 1_555 1_555
Cu1B O4A 1_555 1_555
Cu1C O4 1_555 1_555
Cu1D O1 1_555 1_555
Cu1D_2 N1D 1_555 1_555
Cu1E O1A 1_555 1_555
Cu1F O3A 1_555 1_555
Cu1G O3 1_555 1_555
N1A Cu1A 1_555 1_555
O1D Cu1 1_555 1_555
O1E Cu1A 1_555 1_555
O3F Cu1A 1_555 1_555
O3G Cu1 1_555 1_555
O4B Cu1A 1_555 1_555
O4C Cu1 1_555 1_555
H9A O5 1_555 1_555
C1 O1 1_555 1_555
C1 O2 1_555 1_555
C6 C7 1_555 1_555
C10 N1 1_555 1_555
C12 C13 1_555 1_555
C5A C7A 1_555 1_555
C6A C7A 1_555 1_555
O2A Cu1A 1_555 1_555
C10D N1D 1_555 1_555
C12D C13D 1_555 1_555
C13D C14D 1_555 1_555
Cu1D O1D 1_555 1_555
Cu1E O1E 1_555 1_555

#END
