
#######################################################################
#
#                 Cambridge Crystallographic Data Centre
#                                CCDC 
#
#######################################################################
#
# If this CIF has been generated from an entry in the Cambridge 
# Structural Database, then it will include bibliographic, chemical, 
# crystal, experimental, refinement or atomic coordinate data resulting 
# from the CCDC's data processing and validation procedures.
#
#######################################################################

data_PICYUX
_symmetry_cell_setting           tetragonal
_symmetry_space_group_name_H-M   'I 41/a c d'
_symmetry_Int_Tables_number      142
_space_group_name_Hall           '-I 4bd 2c'
loop_
_symmetry_equiv_pos_site_id
_symmetry_equiv_pos_as_xyz
1 x,y,z
2 1/2-x,-y,1/2+z
3 1/4-y,3/4+x,1/4+z
4 1/4+y,1/4-x,3/4+z
5 1/2-x,y,-z
6 x,-y,1/2-z
7 1/4+y,3/4+x,3/4-z
8 1/4-y,1/4-x,1/4-z
9 1/2+x,1/2+y,1/2+z
10 -x,1/2-y,z
11 3/4-y,1/4+x,3/4+z
12 3/4+y,3/4-x,1/4+z
13 -x,1/2+y,1/2-z
14 1/2+x,1/2-y,-z
15 3/4+y,1/4+x,1/4-z
16 3/4-y,3/4-x,3/4-z
17 -x,-y,-z
18 1/2+x,y,1/2-z
19 3/4+y,1/4-x,3/4-z
20 3/4-y,3/4+x,1/4-z
21 1/2+x,-y,z
22 -x,y,1/2+z
23 3/4-y,1/4-x,1/4+z
24 3/4+y,3/4+x,3/4+z
25 1/2-x,1/2-y,1/2-z
26 x,1/2+y,-z
27 1/4+y,3/4-x,1/4-z
28 1/4-y,1/4+x,3/4-z
29 x,1/2-y,1/2+z
30 1/2-x,1/2+y,z
31 1/4-y,3/4-x,3/4+z
32 1/4+y,1/4+x,1/4+z
_cell_length_a                   41.4454(12)
_cell_length_b                   41.4454(12)
_cell_length_c                   32.834(3)
_cell_angle_alpha                90
_cell_angle_beta                 90
_cell_angle_gamma                90
_cell_volume                     56399.7
loop_
_atom_site_label
_atom_site_type_symbol
_atom_site_fract_x
_atom_site_fract_y
_atom_site_fract_z
Cd1 Cd 0.5000 -0.2500 -0.1250
Cd2 Cd 0.62797(4) 0.12203(4) -0.1250
Cd3 Cd 0.62965(7) 0.15531(7) -0.20919(15)
Fe1 Fe 0.37643(6) 0.00359(6) -0.19711(8)
O1 O 0.1670(5) -0.1080(5) -0.2021(7)
O2 O 0.1808(6) -0.1214(5) -0.1328(7)
O3 O 0.2577(12) 0.1968(13) -0.2513(13)
O4 O 0.2845(9) 0.2158(10) -0.1890(13)
O5 O 0.5889(5) 0.1216(5) -0.2153(7)
O6 O 0.5761(2) 0.1172(5) -0.1390(7)
O7 O 0.4805(4) -0.1994(4) -0.0976(7)
O8 O 0.4833(3) -0.2069(4) -0.1711(5)
O9 O 0.599(4) 0.148(6) -0.276(5)
O10 O 0.3767(3) 0.0000 -0.2500
O11 O 0.6285(9) 0.1921(2) -0.1614(4)
O12 O 0.6284(16) 0.1165(13) -0.2580(14)
C1 C 0.3728(3) 0.0772(3) -0.1908(3)
C2 C 0.3932(4) 0.1064(3) -0.1962(4)
H1 H 0.3869 0.1274 -0.2027
C3 C 0.4214(3) 0.0955(4) -0.1899(3)
H2 H 0.4393 0.1087 -0.1856
C4 C 0.4229(3) 0.0634(4) -0.1900(4)
N1 N 0.3885(4) 0.0500(3) -0.1898(3)
C5 C 0.4462(6) 0.0467(6) -0.1858(7)
N2 N 0.4236(4) -0.0068(4) -0.1818(4)
C6 C 0.4520(6) 0.0161(4) -0.1839(5)
C7 C 0.4809(4) -0.0050(6) -0.1803(5)
H3 H 0.5022 0.0015 -0.1833
C8 C 0.4697(5) -0.0383(4) -0.1709(4)
H4 H 0.4822 -0.0560 -0.1637
C9 C 0.4354(4) -0.0370(4) -0.1756(4)
C10 C 0.4117(5) -0.0643(5) -0.1710(5)
N3 N 0.3607(4) -0.0432(3) -0.1771(3)
C11 C 0.3805(3) -0.0685(4) -0.1735(4)
C12 C 0.3625(4) -0.0950(3) -0.1683(3)
H5 H 0.3701 -0.1159 -0.1651
C13 C 0.3315(3) -0.0860(4) -0.1686(3)
H6 H 0.3138 -0.0996 -0.1655
C14 C 0.3304(3) -0.0540(4) -0.1740(3)
C15 C 0.3023(3) -0.0337(4) -0.1766(4)
N4 N 0.3296(3) 0.0185(3) -0.1826(2)
C16 C 0.3063(3) -0.0009(3) -0.1811(3)
C17 C 0.2735(3) 0.0209(4) -0.1785(3)
H7 H 0.2525 0.0140 -0.1741
C18 C 0.2834(3) 0.0483(3) -0.1839(3)
H8 H 0.2695 0.0658 -0.1868
C19 C 0.3201(3) 0.0518(3) -0.1856(4)
C20 C 0.3384(3) 0.0769(3) -0.1875(4)
C21 C 0.2718(2) -0.0530(3) -0.1711(6)
C22 C 0.2570(4) -0.0559(3) -0.2090(4)
H9 H 0.2671 -0.0475 -0.2320
C23 C 0.2274(4) -0.0713(3) -0.2124(4)
H10 H 0.2175 -0.0732 -0.2377
C24 C 0.2124(3) -0.0838(3) -0.1780(5)
C25 C 0.2271(3) -0.0810(3) -0.1401(4)
H11 H 0.2171 -0.0894 -0.1171
C26 C 0.2568(3) -0.0656(3) -0.1367(4)
H12 H 0.2666 -0.0636 -0.1113
C27 C 0.1825(4) -0.1033(5) -0.1659(8)
C28 C 0.3190(3) 0.1078(3) -0.1962(6)
C29 C 0.3166(3) 0.1188(4) -0.2360(5)
H13 H 0.3233 0.1057 -0.2575
C30 C 0.3044(3) 0.1494(5) -0.2439(4)
H14 H 0.3028 0.1568 -0.2706
C31 C 0.2945(3) 0.1690(3) -0.2118(8)
C32 C 0.2969(3) 0.1580(4) -0.1720(6)
H15 H 0.2903 0.1711 -0.1505
C33 C 0.3091(3) 0.1274(5) -0.1641(4)
H16 H 0.3107 0.1200 -0.1375
C34 C 0.2813(6) 0.2022(5) -0.2247(13)
C35 C 0.4845(3) 0.0668(3) -0.1921(8)
C36 C 0.5006(6) 0.0775(4) -0.2267(5)
H17 H 0.4915 0.0745 -0.2523
C37 C 0.5304(5) 0.0927(4) -0.2229(6)
H18 H 0.5412 0.0998 -0.2460
C38 C 0.5440(3) 0.0972(2) -0.1846(8)
C39 C 0.5278(5) 0.0865(4) -0.1501(5)
H19 H 0.5369 0.0895 -0.1245
C40 C 0.4981(5) 0.0713(4) -0.1538(6)
H20 H 0.4872 0.0642 -0.1307
C41 C 0.5772(4) 0.1133(4) -0.1784(8)
C42 C 0.4330(3) -0.1011(3) -0.1673(7)
C43 C 0.4398(3) -0.1229(4) -0.1984(4)
H21 H 0.4343 -0.1180 -0.2251
C44 C 0.4549(3) -0.1520(4) -0.1894(5)
H22 H 0.4595 -0.1666 -0.2102
C45 C 0.4631(2) -0.1594(3) -0.1495(6)
C46 C 0.4562(4) -0.1376(5) -0.1184(4)
H23 H 0.4617 -0.1426 -0.0917
C47 C 0.4412(4) -0.1085(4) -0.1274(6)
H24 H 0.4366 -0.0939 -0.1066
C48 C 0.4796(3) -0.1919(3) -0.1361(7)
H25 H 0.751684 -0.717701 -0.260150
Cd3E Cd 0.62965(7) -0.15531(7) -0.29081(15)
Fe1E Fe 0.37643(6) -0.00359(6) -0.30289(8)
O1E O 0.1670(5) 0.1080(5) -0.2979(7)
O2E O 0.1808(6) 0.1214(5) -0.3672(7)
O3E O 0.2577(12) -0.1968(13) -0.2487(13)
O4E O 0.2845(9) -0.2158(10) -0.3110(13)
O5E O 0.5889(5) -0.1216(5) -0.2847(7)
O6E O 0.5761(2) -0.1172(5) -0.3610(7)
O7E O 0.4805(4) 0.1994(4) -0.4024(7)
O8E O 0.4833(3) 0.2069(4) -0.3289(5)
O9E O 0.599(4) -0.148(6) -0.224(5)
O11E O 0.6285(9) -0.1921(2) -0.3386(4)
O12E O 0.6284(16) -0.1165(13) -0.2420(14)
C1E C 0.3728(3) -0.0772(3) -0.3092(3)
C2E C 0.3932(4) -0.1064(3) -0.3038(4)
H1E H 0.3869 -0.1274 -0.2973
C3E C 0.4214(3) -0.0955(4) -0.3101(3)
H2E H 0.4393 -0.1087 -0.3144
C4E C 0.4229(3) -0.0634(4) -0.3100(4)
N1E N 0.3885(4) -0.0500(3) -0.3102(3)
C5E C 0.4462(6) -0.0467(6) -0.3142(7)
N2E N 0.4236(4) 0.0068(4) -0.3182(4)
C6E C 0.4520(6) -0.0161(4) -0.3161(5)
C7E C 0.4809(4) 0.0050(6) -0.3197(5)
H3E H 0.5022 -0.0015 -0.3167
C8E C 0.4697(5) 0.0383(4) -0.3291(4)
H4E H 0.4822 0.0560 -0.3363
C9E C 0.4354(4) 0.0370(4) -0.3244(4)
C10E C 0.4117(5) 0.0643(5) -0.3290(5)
N3E N 0.3607(4) 0.0432(3) -0.3229(3)
C11E C 0.3805(3) 0.0685(4) -0.3265(4)
C12E C 0.3625(4) 0.0950(3) -0.3317(3)
H5E H 0.3701 0.1159 -0.3349
C13E C 0.3315(3) 0.0860(4) -0.3314(3)
H6E H 0.3138 0.0996 -0.3345
C14E C 0.3304(3) 0.0540(4) -0.3260(3)
C15E C 0.3023(3) 0.0337(4) -0.3234(4)
N4E N 0.3296(3) -0.0185(3) -0.3174(2)
C16E C 0.3063(3) 0.0009(3) -0.3189(3)
C17E C 0.2735(3) -0.0209(4) -0.3215(3)
H7E H 0.2525 -0.0140 -0.3259
C18E C 0.2834(3) -0.0483(3) -0.3161(3)
H8E H 0.2695 -0.0658 -0.3132
C19E C 0.3201(3) -0.0518(3) -0.3144(4)
C20E C 0.3384(3) -0.0769(3) -0.3125(4)
C21E C 0.2718(2) 0.0530(3) -0.3289(6)
C22E C 0.2570(4) 0.0559(3) -0.2910(4)
H9E H 0.2671 0.0475 -0.2680
C23E C 0.2274(4) 0.0713(3) -0.2876(4)
H10E H 0.2175 0.0732 -0.2623
C24E C 0.2124(3) 0.0838(3) -0.3220(5)
C25E C 0.2271(3) 0.0810(3) -0.3599(4)
H11E H 0.2171 0.0894 -0.3829
C26E C 0.2568(3) 0.0656(3) -0.3633(4)
H12E H 0.2666 0.0636 -0.3887
C27E C 0.1825(4) 0.1033(5) -0.3341(8)
C28E C 0.3190(3) -0.1078(3) -0.3038(6)
C29E C 0.3166(3) -0.1188(4) -0.2640(5)
H13E H 0.3233 -0.1057 -0.2425
C30E C 0.3044(3) -0.1494(5) -0.2561(4)
H14E H 0.3028 -0.1568 -0.2294
C31E C 0.2945(3) -0.1690(3) -0.2882(8)
C32E C 0.2969(3) -0.1580(4) -0.3280(6)
H15E H 0.2903 -0.1711 -0.3495
C33E C 0.3091(3) -0.1274(5) -0.3359(4)
H16E H 0.3107 -0.1200 -0.3625
C34E C 0.2813(6) -0.2022(5) -0.2753(13)
C35E C 0.4845(3) -0.0668(3) -0.3079(8)
C36E C 0.5006(6) -0.0775(4) -0.2733(5)
H17E H 0.4915 -0.0745 -0.2477
C37E C 0.5304(5) -0.0927(4) -0.2771(6)
H18E H 0.5412 -0.0998 -0.2540
C38E C 0.5440(3) -0.0972(2) -0.3154(8)
C39E C 0.5278(5) -0.0865(4) -0.3499(5)
H19E H 0.5369 -0.0895 -0.3755
C40E C 0.4981(5) -0.0713(4) -0.3462(6)
H20E H 0.4872 -0.0642 -0.3693
C41E C 0.5772(4) -0.1133(4) -0.3216(8)
C42E C 0.4330(3) 0.1011(3) -0.3327(7)
C43E C 0.4398(3) 0.1229(4) -0.3016(4)
H21E H 0.4343 0.1180 -0.2749
C44E C 0.4549(3) 0.1520(4) -0.3106(5)
H22E H 0.4595 0.1666 -0.2898
C45E C 0.4631(2) 0.1594(3) -0.3505(6)
C46E C 0.4562(4) 0.1376(5) -0.3816(4)
H23E H 0.4617 0.1426 -0.4083
C47E C 0.4412(4) 0.1085(4) -0.3726(6)
H24E H 0.4366 0.0939 -0.3934
C48E C 0.4796(3) 0.1919(3) -0.3639(7)
Cd3I Cd 0.37035(7) -0.65531(7) -0.20919(15)
Fe1I Fe 0.62357(6) -0.50359(6) -0.19711(8)
O1I O 0.8330(5) -0.3920(5) -0.2021(7)
O2I O 0.8192(6) -0.3786(5) -0.1328(7)
O3I O 0.7423(12) -0.6968(13) -0.2513(13)
O4I O 0.7155(9) -0.7158(10) -0.1890(13)
O5I O 0.4111(5) -0.6216(5) -0.2153(7)
O6I O 0.4239(2) -0.6172(5) -0.1390(7)
O7I O 0.5195(4) -0.3006(4) -0.0976(7)
O8I O 0.5167(3) -0.2931(4) -0.1711(5)
O9I O 0.401(4) -0.648(6) -0.276(5)
O10I O 0.6233(3) -0.5000 -0.2500
O11I O 0.3715(9) -0.6921(2) -0.1614(4)
O12I O 0.3716(16) -0.6165(13) -0.2580(14)
C1I C 0.6272(3) -0.5772(3) -0.1908(3)
C2I C 0.6068(4) -0.6064(3) -0.1962(4)
H1I H 0.6131 -0.6274 -0.2027
C3I C 0.5786(3) -0.5955(4) -0.1899(3)
H2I H 0.5607 -0.6087 -0.1856
C4I C 0.5771(3) -0.5634(4) -0.1900(4)
N1I N 0.6115(4) -0.5500(3) -0.1898(3)
C5I C 0.5538(6) -0.5467(6) -0.1858(7)
N2I N 0.5764(4) -0.4932(4) -0.1818(4)
C6I C 0.5480(6) -0.5161(4) -0.1839(5)
C7I C 0.5191(4) -0.4950(6) -0.1803(5)
H3I H 0.4978 -0.5015 -0.1833
C8I C 0.5303(5) -0.4617(4) -0.1709(4)
H4I H 0.5178 -0.4440 -0.1637
C9I C 0.5646(4) -0.4630(4) -0.1756(4)
C10I C 0.5883(5) -0.4357(5) -0.1710(5)
N3I N 0.6393(4) -0.4568(3) -0.1771(3)
C11I C 0.6195(3) -0.4315(4) -0.1735(4)
C12I C 0.6375(4) -0.4050(3) -0.1683(3)
H5I H 0.6299 -0.3841 -0.1651
C13I C 0.6685(3) -0.4140(4) -0.1686(3)
H6I H 0.6862 -0.4004 -0.1655
C14I C 0.6696(3) -0.4460(4) -0.1740(3)
C15I C 0.6977(3) -0.4663(4) -0.1766(4)
N4I N 0.6704(3) -0.5185(3) -0.1826(2)
C16I C 0.6937(3) -0.4991(3) -0.1811(3)
C17I C 0.7265(3) -0.5209(4) -0.1785(3)
H7I H 0.7475 -0.5140 -0.1741
C18I C 0.7166(3) -0.5483(3) -0.1839(3)
H8I H 0.7305 -0.5658 -0.1868
C19I C 0.6799(3) -0.5518(3) -0.1856(4)
C20I C 0.6616(3) -0.5769(3) -0.1875(4)
C21I C 0.7282(2) -0.4470(3) -0.1711(6)
C22I C 0.7430(4) -0.4441(3) -0.2090(4)
H9I H 0.7329 -0.4525 -0.2320
C23I C 0.7726(4) -0.4287(3) -0.2124(4)
H10I H 0.7825 -0.4268 -0.2377
C24I C 0.7876(3) -0.4162(3) -0.1780(5)
C25I C 0.7729(3) -0.4190(3) -0.1401(4)
H11I H 0.7829 -0.4106 -0.1171
C26I C 0.7432(3) -0.4344(3) -0.1367(4)
H12I H 0.7334 -0.4364 -0.1113
C27I C 0.8175(4) -0.3967(5) -0.1659(8)
C28I C 0.6810(3) -0.6078(3) -0.1962(6)
C29I C 0.6834(3) -0.6188(4) -0.2360(5)
H13I H 0.6767 -0.6057 -0.2575
C30I C 0.6956(3) -0.6494(5) -0.2439(4)
H14I H 0.6972 -0.6568 -0.2706
C31I C 0.7055(3) -0.6690(3) -0.2118(8)
C32I C 0.7031(3) -0.6580(4) -0.1720(6)
H15I H 0.7097 -0.6711 -0.1505
C33I C 0.6909(3) -0.6274(5) -0.1641(4)
H16I H 0.6893 -0.6200 -0.1375
C34I C 0.7187(6) -0.7022(5) -0.2247(13)
C35I C 0.5155(3) -0.5668(3) -0.1921(8)
C36I C 0.4994(6) -0.5775(4) -0.2267(5)
H17I H 0.5085 -0.5745 -0.2523
C37I C 0.4696(5) -0.5927(4) -0.2229(6)
H18I H 0.4588 -0.5998 -0.2460
C38I C 0.4560(3) -0.5972(2) -0.1846(8)
C39I C 0.4722(5) -0.5865(4) -0.1501(5)
H19I H 0.4631 -0.5895 -0.1245
C40I C 0.5019(5) -0.5713(4) -0.1538(6)
H20I H 0.5128 -0.5642 -0.1307
C41I C 0.4228(4) -0.6133(4) -0.1784(8)
C42I C 0.5670(3) -0.3989(3) -0.1673(7)
C43I C 0.5602(3) -0.3771(4) -0.1984(4)
H21I H 0.5657 -0.3820 -0.2251
C44I C 0.5451(3) -0.3480(4) -0.1894(5)
H22I H 0.5405 -0.3334 -0.2102
C45I C 0.5369(2) -0.3406(3) -0.1495(6)
C46I C 0.5438(4) -0.3624(5) -0.1184(4)
H23I H 0.5383 -0.3574 -0.0917
C47I C 0.5588(4) -0.3915(4) -0.1274(6)
H24I H 0.5634 -0.4061 -0.1066
C48I C 0.5204(3) -0.3081(3) -0.1361(7)
Cd3O Cd 0.59469(7) 0.12035(7) -0.04081(15)
Fe1O Fe 0.74641(6) 0.37357(6) -0.05289(8)
O1O O 0.8580(5) 0.5830(5) -0.0479(7)
O2O O 0.8714(5) 0.5692(6) -0.1172(7)
O3O O 0.5532(13) 0.4923(12) 0.0013(13)
O4O O 0.5342(10) 0.4655(9) -0.0610(13)
O5O O 0.6284(5) 0.1611(5) -0.0347(7)
O6O O 0.6328(5) 0.1739(2) -0.1110(7)
O7O O 0.9494(4) 0.2695(4) -0.1524(7)
O8O O 0.9569(4) 0.2667(3) -0.0789(5)
O9O O 0.602(6) 0.151(4) 0.026(5)
O11O O 0.5579(2) 0.1215(9) -0.0886(4)
O12O O 0.6335(13) 0.1216(16) 0.0080(14)
C1O C 0.6728(3) 0.3772(3) -0.0592(3)
C2O C 0.6436(3) 0.3568(4) -0.0538(4)
H1O H 0.6226 0.3631 -0.0473
C3O C 0.6545(4) 0.3286(3) -0.0601(3)
H2O H 0.6413 0.3107 -0.0644
C4O C 0.6866(4) 0.3271(3) -0.0600(4)
N1O N 0.7000(3) 0.3615(4) -0.0602(3)
C5O C 0.7033(6) 0.3038(6) -0.0642(7)
N2O N 0.7568(4) 0.3264(4) -0.0682(4)
C6O C 0.7339(4) 0.2980(6) -0.0661(5)
C7O C 0.7550(6) 0.2691(4) -0.0697(5)
H3O H 0.7485 0.2478 -0.0667
C8O C 0.7883(4) 0.2803(5) -0.0791(4)
H4O H 0.8060 0.2678 -0.0863
C9O C 0.7870(4) 0.3146(4) -0.0744(4)
C10O C 0.8143(5) 0.3383(5) -0.0790(5)
N3O N 0.7932(3) 0.3893(4) -0.0729(3)
C11O C 0.8185(4) 0.3695(3) -0.0765(4)
C12O C 0.8450(3) 0.3875(4) -0.0817(3)
H5O H 0.8659 0.3799 -0.0849
C13O C 0.8360(4) 0.4185(3) -0.0814(3)
H6O H 0.8496 0.4362 -0.0845
C14O C 0.8040(4) 0.4196(3) -0.0760(3)
C15O C 0.7837(4) 0.4477(3) -0.0734(4)
N4O N 0.7315(3) 0.4204(3) -0.0674(2)
C16O C 0.7509(3) 0.4437(3) -0.0689(3)
C17O C 0.7291(4) 0.4765(3) -0.0715(3)
H7O H 0.7360 0.4975 -0.0759
C18O C 0.7017(3) 0.4666(3) -0.0661(3)
H8O H 0.6842 0.4805 -0.0632
C19O C 0.6982(3) 0.4299(3) -0.0644(4)
C20O C 0.6731(3) 0.4116(3) -0.0625(4)
C21O C 0.8030(3) 0.4782(2) -0.0789(6)
C22O C 0.8059(3) 0.4930(4) -0.0410(4)
H9O H 0.7975 0.4829 -0.0180
C23O C 0.8213(3) 0.5226(4) -0.0376(4)
H10O H 0.8232 0.5325 -0.0123
C24O C 0.8338(3) 0.5376(3) -0.0720(5)
C25O C 0.8310(3) 0.5229(3) -0.1099(4)
H11O H 0.8394 0.5329 -0.1329
C26O C 0.8156(3) 0.4932(3) -0.1133(4)
H12O H 0.8136 0.4834 -0.1387
C27O C 0.8533(5) 0.5675(4) -0.0841(8)
C28O C 0.6422(3) 0.4310(3) -0.0538(6)
C29O C 0.6312(4) 0.4334(3) -0.0140(5)
H13O H 0.6443 0.4267 0.0075
C30O C 0.6006(5) 0.4456(3) -0.0061(4)
H14O H 0.5932 0.4472 0.0206
C31O C 0.5810(3) 0.4555(3) -0.0382(8)
C32O C 0.5920(4) 0.4531(3) -0.0780(6)
H15O H 0.5789 0.4597 -0.0995
C33O C 0.6226(5) 0.4409(3) -0.0859(4)
H16O H 0.6300 0.4393 -0.1125
C34O C 0.5478(5) 0.4687(6) -0.0253(13)
C35O C 0.6832(3) 0.2655(3) -0.0579(8)
C36O C 0.6725(4) 0.2494(6) -0.0233(5)
H17O H 0.6755 0.2585 0.0023
C37O C 0.6573(4) 0.2196(5) -0.0271(6)
H18O H 0.6502 0.2088 -0.0040
C38O C 0.6528(2) 0.2060(3) -0.0654(8)
C39O C 0.6635(4) 0.2222(5) -0.0999(5)
H19O H 0.6605 0.2131 -0.1255
C40O C 0.6787(4) 0.2519(5) -0.0962(6)
H20O H 0.6858 0.2628 -0.1193
C41O C 0.6367(4) 0.1728(4) -0.0716(8)
C42O C 0.8511(3) 0.3170(3) -0.0827(7)
C43O C 0.8729(4) 0.3102(3) -0.0516(4)
H21O H 0.8680 0.3157 -0.0249
C44O C 0.9020(4) 0.2951(3) -0.0606(5)
H22O H 0.9166 0.2905 -0.0398
C45O C 0.9094(3) 0.2869(2) -0.1005(6)
C46O C 0.8876(5) 0.2938(4) -0.1316(4)
H23O H 0.8926 0.2883 -0.1583
C47O C 0.8585(4) 0.3088(4) -0.1226(6)
H24O H 0.8439 0.3134 -0.1434
C48O C 0.9419(3) 0.2704(3) -0.1139(7)
Cd2T Cd 0.12797(4) -0.12203(4) -0.1250
Cd1E Cd 0.5000 0.2500 -0.3750
Cd1F Cd 1.0000 0.2500 -0.1250
Cd2E Cd 0.62797(4) -0.12203(4) -0.3750
Cd2F Cd 0.37203(4) -0.62203(4) -0.1250
Cd2Q Cd 0.12797(4) 0.12203(4) -0.3750
Cd2R Cd 0.87203(4) -0.37797(4) -0.1250
Cd2R_2 Cd 0.87203(4) 0.62203(4) -0.1250
Cd3Q Cd 0.12965(7) 0.15531(7) -0.29081(15)
Cd3R Cd 0.90531(7) 0.62035(7) -0.04081(15)
Cd3T Cd 0.12965(7) -0.15531(7) -0.20919(15)
Cd3CA Cd 0.87035(7) -0.34469(7) -0.20919(15)
Fe1L Fe 0.62357(6) -0.49641(6) -0.30289(8)
O1Q O 0.6670(5) -0.1080(5) -0.2979(7)
O1R O 0.6420(5) 0.0830(5) -0.0479(7)
O1T O 0.6670(5) 0.1080(5) -0.2021(7)
O1CA O 0.3330(5) -0.6080(5) -0.2021(7)
O2F O 0.1286(5) -0.0692(6) -0.1172(7)
O2R O 0.6286(5) 0.0692(6) -0.1172(7)
O2T O 0.6808(6) 0.1214(5) -0.1328(7)
O6T O 0.0761(2) -0.1172(5) -0.1390(7)
O6AA O 0.1328(5) -0.1739(2) -0.1110(7)
O7R O 0.5506(4) -0.2305(4) -0.1524(7)
O7AA O 0.4494(4) -0.2695(4) -0.1524(7)
O8R O 0.5431(4) -0.2333(3) -0.0789(5)
O8AA O 0.4569(4) -0.2667(3) -0.0789(5)
O10K O 0.7500 0.3733(3) 0.0000
H25F H 0.532299 0.501684 0.010150
H25L H 0.248316 -0.217701 -0.239850
H25I H 0.248316 0.217701 -0.260150
loop_
_geom_bond_atom_site_label_1
_geom_bond_atom_site_label_2
_geom_bond_site_symmetry_1
_geom_bond_site_symmetry_2
Cd1 O7 1_555 1_555
Cd2 O6 1_555 1_555
Cd3 O5 1_555 1_555
Fe1 O10 1_555 1_555
O1 C27 1_555 1_555
O2 C27 1_555 1_555
O3 C34 1_555 1_555
O4 C34 1_555 1_555
O5 C41 1_555 1_555
O6 C41 1_555 1_555
O7 C48 1_555 1_555
O8 Cd1 1_555 1_555
O9 Cd3 1_555 1_555
O10 Fe1E 1_555 1_555
O11 Cd3 1_555 1_555
O12 Cd3 1_555 1_555
C1 C2 1_555 1_555
C2 H1 1_555 1_555
C3 C2 1_555 1_555
H2 C3 1_555 1_555
C4 C3 1_555 1_555
N1 Fe1 1_555 1_555
C5 C4 1_555 1_555
N2 Fe1 1_555 1_555
C6 C5 1_555 1_555
C7 C6 1_555 1_555
H3 C7 1_555 1_555
C8 C7 1_555 1_555
H4 C8 1_555 1_555
C9 N2 1_555 1_555
C10 C9 1_555 1_555
N3 Fe1 1_555 1_555
C11 C10 1_555 1_555
C12 C11 1_555 1_555
H5 C12 1_555 1_555
C13 C12 1_555 1_555
H6 C13 1_555 1_555
C14 N3 1_555 1_555
C15 C14 1_555 1_555
N4 Fe1 1_555 1_555
C16 C15 1_555 1_555
C17 C16 1_555 1_555
H7 C17 1_555 1_555
C18 C17 1_555 1_555
H8 C18 1_555 1_555
C19 N4 1_555 1_555
C20 C1 1_555 1_555
C21 C15 1_555 1_555
C22 C21 1_555 1_555
H9 C22 1_555 1_555
C23 C22 1_555 1_555
H10 C23 1_555 1_555
C24 C23 1_555 1_555
C25 C24 1_555 1_555
H11 C25 1_555 1_555
C26 C21 1_555 1_555
H12 C26 1_555 1_555
C27 C24 1_555 1_555
C28 C20 1_555 1_555
C29 C28 1_555 1_555
H13 C29 1_555 1_555
C30 C29 1_555 1_555
H14 C30 1_555 1_555
C31 C30 1_555 1_555
C32 C31 1_555 1_555
H15 C32 1_555 1_555
C33 C28 1_555 1_555
H16 C33 1_555 1_555
C34 C31 1_555 1_555
C35 C5 1_555 1_555
C36 C35 1_555 1_555
H17 C36 1_555 1_555
C37 C36 1_555 1_555
H18 C37 1_555 1_555
C38 C37 1_555 1_555
C39 C38 1_555 1_555
H19 C39 1_555 1_555
C40 C35 1_555 1_555
H20 C40 1_555 1_555
C41 C38 1_555 1_555
C42 C10 1_555 1_555
C43 C42 1_555 1_555
H21 C43 1_555 1_555
C44 C43 1_555 1_555
H22 C44 1_555 1_555
C45 C44 1_555 1_555
C46 C45 1_555 1_555
H23 C46 1_555 1_555
C47 C42 1_555 1_555
H24 C47 1_555 1_555
C48 O8 1_555 1_555
H25 O3I 1_555 1_555
Cd3E O5E 1_555 1_555
Fe1E N1E 1_555 1_555
O1E C27E 1_555 1_555
O2E C27E 1_555 1_555
O3E C34E 1_555 1_555
O4E C34E 1_555 1_555
O5E C41E 1_555 1_555
O6E C41E 1_555 1_555
O7E C48E 1_555 1_555
O8E C48E 1_555 1_555
O9E Cd3E 1_555 1_555
O11E Cd3E 1_555 1_555
O12E Cd3E 1_555 1_555
C1E C2E 1_555 1_555
C2E H1E 1_555 1_555
C3E C2E 1_555 1_555
H2E C3E 1_555 1_555
C4E C3E 1_555 1_555
N1E C1E 1_555 1_555
C5E C4E 1_555 1_555
N2E Fe1E 1_555 1_555
C6E C5E 1_555 1_555
C7E C6E 1_555 1_555
H3E C7E 1_555 1_555
C8E C7E 1_555 1_555
H4E C8E 1_555 1_555
C9E N2E 1_555 1_555
C10E C9E 1_555 1_555
N3E Fe1E 1_555 1_555
C11E C10E 1_555 1_555
C12E C11E 1_555 1_555
H5E C12E 1_555 1_555
C13E C12E 1_555 1_555
H6E C13E 1_555 1_555
C14E N3E 1_555 1_555
C15E C14E 1_555 1_555
N4E Fe1E 1_555 1_555
C16E C15E 1_555 1_555
C17E C16E 1_555 1_555
H7E C17E 1_555 1_555
C18E C17E 1_555 1_555
H8E C18E 1_555 1_555
C19E N4E 1_555 1_555
C20E C1E 1_555 1_555
C21E C15E 1_555 1_555
C22E C21E 1_555 1_555
H9E C22E 1_555 1_555
C23E C22E 1_555 1_555
H10E C23E 1_555 1_555
C24E C23E 1_555 1_555
C25E C24E 1_555 1_555
H11E C25E 1_555 1_555
C26E C21E 1_555 1_555
H12E C26E 1_555 1_555
C27E C24E 1_555 1_555
C28E C20E 1_555 1_555
C29E C28E 1_555 1_555
H13E C29E 1_555 1_555
C30E C29E 1_555 1_555
H14E C30E 1_555 1_555
C31E C30E 1_555 1_555
C32E C31E 1_555 1_555
H15E C32E 1_555 1_555
C33E C28E 1_555 1_555
H16E C33E 1_555 1_555
C34E C31E 1_555 1_555
C35E C5E 1_555 1_555
C36E C35E 1_555 1_555
H17E C36E 1_555 1_555
C37E C36E 1_555 1_555
H18E C37E 1_555 1_555
C38E C37E 1_555 1_555
C39E C38E 1_555 1_555
H19E C39E 1_555 1_555
C40E C35E 1_555 1_555
H20E C40E 1_555 1_555
C41E C38E 1_555 1_555
C42E C10E 1_555 1_555
C43E C42E 1_555 1_555
H21E C43E 1_555 1_555
C44E C43E 1_555 1_555
H22E C44E 1_555 1_555
C45E C44E 1_555 1_555
C46E C45E 1_555 1_555
H23E C46E 1_555 1_555
C47E C42E 1_555 1_555
H24E C47E 1_555 1_555
C48E C45E 1_555 1_555
Cd3I O5I 1_555 1_555
Fe1I O10I 1_555 1_555
O1I C27I 1_555 1_555
O2I C27I 1_555 1_555
O3I C34I 1_555 1_555
O4I C34I 1_555 1_555
O5I C41I 1_555 1_555
O6I C41I 1_555 1_555
O7I Cd1 1_555 1_555
O8I Cd1 1_555 1_555
O9I Cd3I 1_555 1_555
O10I Fe1L 1_555 1_555
O11I Cd3I 1_555 1_555
O12I Cd3I 1_555 1_555
C1I C2I 1_555 1_555
C2I H1I 1_555 1_555
C3I C2I 1_555 1_555
H2I C3I 1_555 1_555
C4I C3I 1_555 1_555
N1I Fe1I 1_555 1_555
C5I C4I 1_555 1_555
N2I Fe1I 1_555 1_555
C6I C5I 1_555 1_555
C7I C6I 1_555 1_555
H3I C7I 1_555 1_555
C8I C7I 1_555 1_555
H4I C8I 1_555 1_555
C9I N2I 1_555 1_555
C10I C9I 1_555 1_555
N3I Fe1I 1_555 1_555
C11I C10I 1_555 1_555
C12I C11I 1_555 1_555
H5I C12I 1_555 1_555
C13I C12I 1_555 1_555
H6I C13I 1_555 1_555
C14I N3I 1_555 1_555
C15I C14I 1_555 1_555
N4I Fe1I 1_555 1_555
C16I C15I 1_555 1_555
C17I C16I 1_555 1_555
H7I C17I 1_555 1_555
C18I C17I 1_555 1_555
H8I C18I 1_555 1_555
C19I N4I 1_555 1_555
C20I C1I 1_555 1_555
C21I C15I 1_555 1_555
C22I C21I 1_555 1_555
H9I C22I 1_555 1_555
C23I C22I 1_555 1_555
H10I C23I 1_555 1_555
C24I C23I 1_555 1_555
C25I C24I 1_555 1_555
H11I C25I 1_555 1_555
C26I C21I 1_555 1_555
H12I C26I 1_555 1_555
C27I C24I 1_555 1_555
C28I C20I 1_555 1_555
C29I C28I 1_555 1_555
H13I C29I 1_555 1_555
C30I C29I 1_555 1_555
H14I C30I 1_555 1_555
C31I C30I 1_555 1_555
C32I C31I 1_555 1_555
H15I C32I 1_555 1_555
C33I C28I 1_555 1_555
H16I C33I 1_555 1_555
C34I C31I 1_555 1_555
C35I C5I 1_555 1_555
C36I C35I 1_555 1_555
H17I C36I 1_555 1_555
C37I C36I 1_555 1_555
H18I C37I 1_555 1_555
C38I C37I 1_555 1_555
C39I C38I 1_555 1_555
H19I C39I 1_555 1_555
C40I C35I 1_555 1_555
H20I C40I 1_555 1_555
C41I C38I 1_555 1_555
C42I C10I 1_555 1_555
C43I C42I 1_555 1_555
H21I C43I 1_555 1_555
C44I C43I 1_555 1_555
H22I C44I 1_555 1_555
C45I C44I 1_555 1_555
C46I C45I 1_555 1_555
H23I C46I 1_555 1_555
C47I C42I 1_555 1_555
H24I C47I 1_555 1_555
C48I O7I 1_555 1_555
Cd3O O5O 1_555 1_555
Fe1O N1O 1_555 1_555
O1O C27O 1_555 1_555
O2O C27O 1_555 1_555
O3O C34O 1_555 1_555
O4O C34O 1_555 1_555
O5O C41O 1_555 1_555
O6O Cd2 1_555 1_555
O7O C48O 1_555 1_555
O8O C48O 1_555 1_555
O9O Cd3O 1_555 1_555
O11O Cd3O 1_555 1_555
O12O Cd3O 1_555 1_555
C1O C2O 1_555 1_555
C2O H1O 1_555 1_555
C3O C2O 1_555 1_555
H2O C3O 1_555 1_555
C4O C3O 1_555 1_555
N1O C1O 1_555 1_555
C5O C4O 1_555 1_555
N2O Fe1O 1_555 1_555
C6O C5O 1_555 1_555
C7O C6O 1_555 1_555
H3O C7O 1_555 1_555
C8O C7O 1_555 1_555
H4O C8O 1_555 1_555
C9O N2O 1_555 1_555
C10O C9O 1_555 1_555
N3O Fe1O 1_555 1_555
C11O C10O 1_555 1_555
C12O C11O 1_555 1_555
H5O C12O 1_555 1_555
C13O C12O 1_555 1_555
H6O C13O 1_555 1_555
C14O N3O 1_555 1_555
C15O C14O 1_555 1_555
N4O Fe1O 1_555 1_555
C16O C15O 1_555 1_555
C17O C16O 1_555 1_555
H7O C17O 1_555 1_555
C18O C17O 1_555 1_555
H8O C18O 1_555 1_555
C19O N4O 1_555 1_555
C20O C1O 1_555 1_555
C21O C15O 1_555 1_555
C22O C21O 1_555 1_555
H9O C22O 1_555 1_555
C23O C22O 1_555 1_555
H10O C23O 1_555 1_555
C24O C23O 1_555 1_555
C25O C24O 1_555 1_555
H11O C25O 1_555 1_555
C26O C21O 1_555 1_555
H12O C26O 1_555 1_555
C27O C24O 1_555 1_555
C28O C20O 1_555 1_555
C29O C28O 1_555 1_555
H13O C29O 1_555 1_555
C30O C29O 1_555 1_555
H14O C30O 1_555 1_555
C31O C30O 1_555 1_555
C32O C31O 1_555 1_555
H15O C32O 1_555 1_555
C33O C28O 1_555 1_555
H16O C33O 1_555 1_555
C34O C31O 1_555 1_555
C35O C5O 1_555 1_555
C36O C35O 1_555 1_555
H17O C36O 1_555 1_555
C37O C36O 1_555 1_555
H18O C37O 1_555 1_555
C38O C37O 1_555 1_555
C39O C38O 1_555 1_555
H19O C39O 1_555 1_555
C40O C35O 1_555 1_555
H20O C40O 1_555 1_555
C41O O6O 1_555 1_555
C42O C10O 1_555 1_555
C43O C42O 1_555 1_555
H21O C43O 1_555 1_555
C44O C43O 1_555 1_555
H22O C44O 1_555 1_555
C45O C44O 1_555 1_555
C46O C45O 1_555 1_555
H23O C46O 1_555 1_555
C47O C42O 1_555 1_555
H24O C47O 1_555 1_555
C48O C45O 1_555 1_555
Cd2T O2 1_555 1_555
Cd1E O7E 1_555 1_555
Cd1F O7O 1_555 1_555
Cd2E O6E 1_555 1_555
Cd2F O6I 1_555 1_555
Cd2Q O2E 1_555 1_555
Cd2R O2I 1_555 1_555
Cd2R_2 O2O 1_555 1_555
Cd3Q O1E 1_555 1_555
Cd3R O1O 1_555 1_555
Cd3T O1 1_555 1_555
Cd3CA O1I 1_555 1_555
O1Q Cd3E 1_555 1_555
O1R Cd3O 1_555 1_555
O1T Cd3 1_555 1_555
O1CA Cd3I 1_555 1_555
O2F Cd2T 1_555 1_555
O2R Cd2 1_555 1_555
O2T Cd2 1_555 1_555
O6T Cd2T 1_555 1_555
O6AA Cd2T 1_555 1_555
O7R Cd1 1_555 1_555
O7AA Cd1 1_555 1_555
O8R Cd1 1_555 1_555
O8AA Cd1 1_555 1_555
O10K Fe1O 1_555 1_555
H25F O3O 1_555 1_555
H25L O3E 1_555 1_555
H25I O3 1_555 1_555
C1 N1 1_555 1_555
C4 N1 1_555 1_555
N2 C6 1_555 1_555
C8 C9 1_555 1_555
N3 C11 1_555 1_555
C13 C14 1_555 1_555
N4 C16 1_555 1_555
C18 C19 1_555 1_555
C19 C20 1_555 1_555
C25 C26 1_555 1_555
C32 C33 1_555 1_555
C39 C40 1_555 1_555
C45 C48 1_555 1_555
C46 C47 1_555 1_555
O8E Cd1E 1_555 1_555
C4E N1E 1_555 1_555
N2E C6E 1_555 1_555
C8E C9E 1_555 1_555
N3E C11E 1_555 1_555
C13E C14E 1_555 1_555
N4E C16E 1_555 1_555
C18E C19E 1_555 1_555
C19E C20E 1_555 1_555
C25E C26E 1_555 1_555
C32E C33E 1_555 1_555
C39E C40E 1_555 1_555
C46E C47E 1_555 1_555
O8I C48I 1_555 1_555
C1I N1I 1_555 1_555
C4I N1I 1_555 1_555
N2I C6I 1_555 1_555
C8I C9I 1_555 1_555
N3I C11I 1_555 1_555
C13I C14I 1_555 1_555
N4I C16I 1_555 1_555
C18I C19I 1_555 1_555
C19I C20I 1_555 1_555
C25I C26I 1_555 1_555
C32I C33I 1_555 1_555
C39I C40I 1_555 1_555
C45I C48I 1_555 1_555
C46I C47I 1_555 1_555
O8O Cd1F 1_555 1_555
C4O N1O 1_555 1_555
N2O C6O 1_555 1_555
C8O C9O 1_555 1_555
N3O C11O 1_555 1_555
C13O C14O 1_555 1_555
N4O C16O 1_555 1_555
C18O C19O 1_555 1_555
C19O C20O 1_555 1_555
C25O C26O 1_555 1_555
C32O C33O 1_555 1_555
C38O C41O 1_555 1_555
C39O C40O 1_555 1_555
C46O C47O 1_555 1_555

#END
