
#######################################################################
#
#                 Cambridge Crystallographic Data Centre
#                                CCDC 
#
#######################################################################
#
# If this CIF has been generated from an entry in the Cambridge 
# Structural Database, then it will include bibliographic, chemical, 
# crystal, experimental, refinement or atomic coordinate data resulting 
# from the CCDC's data processing and validation procedures.
#
#######################################################################

data_PIDCUC
_symmetry_cell_setting           orthorhombic
_symmetry_space_group_name_H-M   'P n m a'
_symmetry_Int_Tables_number      62
_space_group_name_Hall           '-P 2ac 2n'
loop_
_symmetry_equiv_pos_site_id
_symmetry_equiv_pos_as_xyz
1 x,y,z
2 1/2-x,-y,1/2+z
3 -x,1/2+y,-z
4 1/2+x,1/2-y,1/2-z
5 -x,-y,-z
6 1/2+x,y,1/2-z
7 x,1/2-y,z
8 1/2-x,1/2+y,1/2+z
_cell_length_a                   13.5746(18)
_cell_length_b                   24.273(3)
_cell_length_c                   12.9873(17)
_cell_angle_alpha                90
_cell_angle_beta                 90
_cell_angle_gamma                90
_cell_volume                     4279.27
loop_
_atom_site_label
_atom_site_type_symbol
_atom_site_fract_x
_atom_site_fract_y
_atom_site_fract_z
Ag1 Ag 0.00779(3) 0.548843(16) 0.87929(2)
Ag2 Ag 0.01307(3) 0.456528(17) 0.63052(3)
N1 N -0.0805(2) 0.57026(13) 1.0144(2)
N2 N -0.1166(3) 0.52999(14) 1.0804(3)
N3 N -0.1724(2) 0.61056(14) 1.1273(2)
N4 N -0.2269(3) 0.64976(15) 1.1838(3)
H1 H -0.2577 0.6322 1.2356
N5 N -0.1182(3) 0.46589(15) 0.8287(3)
N6 N -0.0659(3) 0.42892(14) 0.7674(3)
N7 N -0.1362(2) 0.38247(14) 0.8894(3)
N8 N -0.1686(3) 0.34052(16) 0.9552(3)
H2 H -0.2053 0.3483 1.0071
H3 H -0.1517 0.3069 0.9438
N9 N 0.0831(3) 0.57725(13) 0.7396(3)
N10 N 0.1156(3) 0.54078(15) 0.6648(3)
N11 N 0.1562(2) 0.62465(14) 0.6209(2)
N12 N 0.1965(3) 0.66750(15) 0.5622(3)
H4 H 0.2253 0.6604 0.5048
H5 H 0.1925 0.7009 0.5836
N13 N 0.0875(3) 0.43018(14) 0.4893(3)
N14 N 0.1194(3) 0.46782(15) 0.4158(3)
N15 N 0.1482(3) 0.38459(15) 0.3612(3)
N16 N 0.1796(4) 0.34310(18) 0.2943(4)
H6 H 0.2057 0.3516 0.2360
H7 H 0.1730 0.3091 0.3113
C1 C -0.1148(3) 0.61762(16) 1.0436(3)
H8 H -0.1018 0.6512 1.0119
C2 C -0.1713(3) 0.55629(17) 1.1475(3)
H9 H -0.2047 0.5396 1.2017
C3 C -0.1585(3) 0.43599(19) 0.9008(3)
H10 H -0.1977 0.4500 0.9534
C4 C -0.0785(3) 0.37955(17) 0.8049(3)
H11 H -0.0519 0.3474 0.7777
C5 C 0.1091(3) 0.62672(16) 0.7123(3)
H12 H 0.0972 0.6586 0.7500
C6 C 0.1582(3) 0.57109(17) 0.5950(3)
H13 H 0.1863 0.5574 0.5349
C7 C 0.1060(3) 0.38097(17) 0.4553(3)
H14 H 0.0923 0.3484 0.4901
C8 C 0.1556(3) 0.43822(18) 0.3410(4)
H15 H 0.1831 0.4527 0.2813
Ag1D Ag -0.00779(3) 0.451157(16) 1.12071(2)
Ag2D Ag -0.01307(3) 0.543472(17) 0.36948(3)
N2D N 0.1166(3) 0.47001(14) 0.9196(3)
N14D N -0.1194(3) 0.53218(15) 0.5842(3)
S1 S 0.53722(13) 0.2500 0.37604(11)
O1 O 0.6351(5) 0.2500 0.4183(7)
O2 O 0.4898(5) 0.3006(3) 0.3955(6)
O3 O 0.5464(8) 0.2500 0.2690(6)
O2F O 0.4898(5) 0.1994(3) 0.3955(6)
S2 S -0.37133(12) 0.2500 0.86561(11)
O4 O -0.2685(3) 0.2500 0.8315(3)
O5 O -0.3724(4) 0.2500 0.9789(3)
O6 O -0.4205(3) 0.29924(17) 0.8279(3)
O6F O -0.4205(3) 0.20076(17) 0.8279(3)
O7 O 0.0406(4) 0.7500 0.5881(4)
H16 H 0.0068 0.7788 0.5999
H16F H 0.0068 0.7212 0.5999
O8 O -0.1447(4) 0.2500 0.6508(4)
H17 H -0.1625 0.2176 0.6671
H17F H -0.1625 0.2824 0.6671
O9 O -0.2234(5) 0.2500 1.1226(5)
H18 H -0.2193 0.2204 1.0878
H18F H -0.2193 0.2796 1.0878
O10 O -0.5080(8) 0.2500 0.6394(6)
H19 H -0.5706 0.2500 0.6427
H20 H -0.4794 0.2500 0.5812
loop_
_geom_bond_atom_site_label_1
_geom_bond_atom_site_label_2
_geom_bond_site_symmetry_1
_geom_bond_site_symmetry_2
Ag1 N1 1_555 1_555
Ag2 N6 1_555 1_555
N1 N2 1_555 1_555
N2 C2 1_555 1_555
N3 N4 1_555 1_555
N4 H1 1_555 1_555
N5 N6 1_555 1_555
N6 C4 1_555 1_555
N7 N8 1_555 1_555
N8 H2 1_555 1_555
H3 N8 1_555 1_555
N9 Ag1 1_555 1_555
N10 Ag2 1_555 1_555
N11 N12 1_555 1_555
N12 H4 1_555 1_555
H5 N12 1_555 1_555
N13 Ag2 1_555 1_555
N14 N13 1_555 1_555
N15 N16 1_555 1_555
N16 H6 1_555 1_555
H7 N16 1_555 1_555
C1 N1 1_555 1_555
H8 C1 1_555 1_555
C2 N3 1_555 1_555
H9 C2 1_555 1_555
C3 N5 1_555 1_555
H10 C3 1_555 1_555
C4 N7 1_555 1_555
H11 C4 1_555 1_555
C5 N9 1_555 1_555
H12 C5 1_555 1_555
C6 N10 1_555 1_555
H13 C6 1_555 1_555
C7 N13 1_555 1_555
H14 C7 1_555 1_555
C8 N14 1_555 1_555
H15 C8 1_555 1_555
S1 O1 1_555 1_555
O2 S1 1_555 1_555
O3 S1 1_555 1_555
S2 O4 1_555 1_555
O5 S2 1_555 1_555
O6 S2 1_555 1_555
O7 H16 1_555 1_555
O8 H17 1_555 1_555
O9 H18 1_555 1_555
O10 H19 1_555 1_555
H20 O10 1_555 1_555
Ag1D N2 1_555 1_555
Ag2D N14 1_555 1_555
N2D Ag1 1_555 1_555
N14D Ag2 1_555 1_555
O2F S1 1_555 1_555
O6F S2 1_555 1_555
H16F O7 1_555 1_555
H17F O8 1_555 1_555
H18F O9 1_555 1_555
N3 C1 1_555 1_555
N7 C3 1_555 1_555
N9 N10 1_555 1_555
N11 C5 1_555 1_555
N11 C6 1_555 1_555
N15 C7 1_555 1_555
N15 C8 1_555 1_555

#END
