
#######################################################################
#
#                 Cambridge Crystallographic Data Centre
#                                CCDC 
#
#######################################################################
#
# If this CIF has been generated from an entry in the Cambridge 
# Structural Database, then it will include bibliographic, chemical, 
# crystal, experimental, refinement or atomic coordinate data resulting 
# from the CCDC's data processing and validation procedures.
#
#######################################################################

data_PIDDAJ
_symmetry_cell_setting           orthorhombic
_symmetry_space_group_name_H-M   'C c c a'
_symmetry_Int_Tables_number      68
_space_group_name_Hall           '-C 2b 2bc'
loop_
_symmetry_equiv_pos_site_id
_symmetry_equiv_pos_as_xyz
1 x,y,z
2 1/2-x,-y,z
3 -x,y,1/2-z
4 1/2+x,-y,1/2-z
5 1/2+x,1/2+y,z
6 -x,1/2-y,z
7 1/2-x,1/2+y,1/2-z
8 x,1/2-y,1/2-z
9 -x,-y,-z
10 1/2+x,y,-z
11 x,-y,1/2+z
12 1/2-x,y,1/2+z
13 1/2-x,1/2-y,-z
14 x,1/2+y,-z
15 1/2+x,1/2-y,1/2+z
16 -x,1/2+y,1/2+z
_cell_length_a                   12.882(4)
_cell_length_b                   23.436(8)
_cell_length_c                   6.5734(18)
_cell_angle_alpha                90
_cell_angle_beta                 90
_cell_angle_gamma                90
_cell_volume                     1984.53
loop_
_atom_site_label
_atom_site_type_symbol
_atom_site_fract_x
_atom_site_fract_y
_atom_site_fract_z
Ag1 Ag 0.0000 0.048301(13) 0.2500
N1 N -0.1224(2) -0.03531(9) 0.1750(5)
N2 N -0.0800(2) -0.07442(9) 0.0357(4)
N3 N -0.1560(3) -0.12250(10) 0.2767(5)
N4 N -0.1969(2) -0.16707(10) 0.3971(5)
H1 H -0.1879 -0.2020 0.3613
H2 H -0.2308 -0.1593 0.5063
C1 C -0.1014(3) -0.12577(10) 0.1028(5)
H3 H -0.0816 -0.1595 0.0393
C2 C -0.1673(3) -0.06577(12) 0.3178(6)
H4 H -0.2016 -0.0509 0.4303
N1B N 0.1224(2) -0.03531(9) 0.3250(5)
N2B N 0.0800(2) -0.07442(9) 0.4643(4)
N3B N 0.1560(3) -0.12250(10) 0.2233(5)
N4B N 0.1969(2) -0.16707(10) 0.1029(5)
H1B H 0.1879 -0.2020 0.1387
H2B H 0.2308 -0.1593 -0.0063
C1B C 0.1014(3) -0.12577(10) 0.3972(5)
H3B H 0.0816 -0.1595 0.4607
C2B C 0.1673(3) -0.06577(12) 0.1822(6)
H4B H 0.2016 -0.0509 0.0697
Ag1H Ag 0.0000 -0.048301(13) -0.2500
Ag1H_2 Ag 0.0000 -0.048301(13) 0.7500
N2H N 0.0800(2) 0.07442(9) -0.0357(4)
N2J N -0.0800(2) 0.07442(9) 0.5357(4)
P1 P 0.0000 0.2500 0.2500
F1 F 0.0000 0.32152(11) 0.2500
F2 F 0.0000 0.2500 -0.0060(7)
F3 F 0.1315(4) 0.2500 0.2500
F2B F 0.0000 0.2500 0.5060(7)
F3B F -0.1315(4) 0.2500 0.2500
F1E F 0.0000 0.17848(11) 0.2500
loop_
_geom_bond_atom_site_label_1
_geom_bond_atom_site_label_2
_geom_bond_site_symmetry_1
_geom_bond_site_symmetry_2
Ag1 N1 1_555 1_555
N1 N2 1_555 1_555
N2 C1 1_555 1_555
N3 N4 1_555 1_555
N4 H1 1_555 1_555
H2 N4 1_555 1_555
C1 N3 1_555 1_555
H3 C1 1_555 1_555
C2 N1 1_555 1_555
H4 C2 1_555 1_555
P1 F1 1_555 1_555
F2 P1 1_555 1_555
F3 P1 1_555 1_555
N1B Ag1 1_555 1_555
N2B N1B 1_555 1_555
N3B N4B 1_555 1_555
N4B H1B 1_555 1_555
H2B N4B 1_555 1_555
C1B N2B 1_555 1_555
H3B C1B 1_555 1_555
C2B N1B 1_555 1_555
H4B C2B 1_555 1_555
Ag1H N2 1_555 1_555
Ag1H_2 N2B 1_555 1_555
N2H Ag1 1_555 1_555
N2J Ag1 1_555 1_555
F2B P1 1_555 1_555
F3B P1 1_555 1_555
F1E P1 1_555 1_555
N3 C2 1_555 1_555
N3B C1B 1_555 1_555
N3B C2B 1_555 1_555

#END
