
#######################################################################
#
#                 Cambridge Crystallographic Data Centre
#                                CCDC 
#
#######################################################################
#
# If this CIF has been generated from an entry in the Cambridge 
# Structural Database, then it will include bibliographic, chemical, 
# crystal, experimental, refinement or atomic coordinate data resulting 
# from the CCDC's data processing and validation procedures.
#
#######################################################################

data_PIDGOA
_symmetry_cell_setting           monoclinic
_symmetry_space_group_name_H-M   'C 2/c'
_symmetry_Int_Tables_number      15
_space_group_name_Hall           '-C 2yn'
loop_
_symmetry_equiv_pos_site_id
_symmetry_equiv_pos_as_xyz
1 x,y,z
2 -x,y,1/2-z
3 1/2+x,1/2+y,z
4 1/2-x,1/2+y,1/2-z
5 -x,-y,-z
6 x,-y,1/2+z
7 1/2-x,1/2-y,-z
8 1/2+x,1/2-y,1/2+z
_cell_length_a                   13.7551(9)
_cell_length_b                   9.6373(4)
_cell_length_c                   24.9546(13)
_cell_angle_alpha                90
_cell_angle_beta                 92.515(4)
_cell_angle_gamma                90
_cell_volume                     3304.85
loop_
_atom_site_label
_atom_site_type_symbol
_atom_site_fract_x
_atom_site_fract_y
_atom_site_fract_z
U1 U 0.09954(3) 0.11841(5) 0.033221(14)
Mn1 Mn 0.0000 0.1809(2) 0.2500
O1 O 0.0056(10) 0.2496(14) 0.0295(7)
O2 O 0.1891(10) -0.0096(16) 0.0359(7)
O3 O 0.0665(5) 0.0962(7) 0.1252(2)
O4 O -0.0240(5) 0.0202(7) 0.1905(2)
O5 O -0.1686(7) -0.2410(13) 0.0378(4)
O6 O -0.3006(10) -0.2111(18) 0.0855(5)
O7 O -0.0344(4) -0.0229(7) 0.0479(2)
N1 N 0.1634(5) 0.2200(9) 0.2585(3)
N2 N 0.0255(6) 0.3443(8) 0.3137(3)
C1 C -0.0038(7) 0.0283(10) 0.1419(3)
C2 C -0.0809(15) -0.009(2) 0.0983(7)
H1 H -0.1272 0.0651 0.0949
C3 C -0.1331(19) -0.141(2) 0.1141(10)
H2 H -0.1611 -0.1245 0.1481
H3 H -0.0861 -0.2139 0.1190
C4 C -0.2136(7) -0.1864(11) 0.0751(4)
C5 C 0.2288(7) 0.1642(11) 0.2270(4)
H4 H 0.2070 0.1167 0.1964
C6 C 0.3284(7) 0.1747(13) 0.2385(5)
H5 H 0.3729 0.1360 0.2158
C7 C 0.3592(8) 0.2435(13) 0.2842(5)
H6 H 0.4254 0.2519 0.2929
C8 C 0.2920(8) 0.3002(12) 0.3173(5)
H7 H 0.3123 0.3463 0.3485
C9 C 0.1936(7) 0.2878(11) 0.3033(4)
C10 C 0.1178(7) 0.3549(10) 0.3344(4)
C11 C 0.1371(9) 0.4307(14) 0.3810(5)
H8 H 0.2005 0.4373 0.3952
C12 C 0.0626(10) 0.4963(14) 0.4064(5)
H9 H 0.0752 0.5445 0.4382
C13 C -0.0301(9) 0.4892(12) 0.3840(5)
H10 H -0.0812 0.5360 0.3993
C14 C -0.0453(8) 0.4108(11) 0.3383(4)
H11 H -0.1084 0.4037 0.3237
U1A U -0.09954(3) 0.11841(5) 0.466779(14)
O1A O -0.0056(10) 0.2496(14) 0.4705(7)
O2A O -0.1891(10) -0.0096(16) 0.4641(7)
O3A O -0.0665(5) 0.0962(7) 0.3748(2)
O4A O 0.0240(5) 0.0202(7) 0.3095(2)
O5A O 0.1686(7) -0.2410(13) 0.4622(4)
O6A O 0.3006(10) -0.2111(18) 0.4145(5)
O7A O 0.0344(4) -0.0229(7) 0.4521(2)
N1A N -0.1634(5) 0.2200(9) 0.2415(3)
N2A N -0.0255(6) 0.3443(8) 0.1863(3)
C1A C 0.0038(7) 0.0283(10) 0.3581(3)
C2A C 0.0809(15) -0.009(2) 0.4017(7)
H1A H 0.1272 0.0651 0.4051
C3A C 0.1331(19) -0.141(2) 0.3859(10)
H2A H 0.1611 -0.1245 0.3519
H3A H 0.0861 -0.2139 0.3810
C4A C 0.2136(7) -0.1864(11) 0.4249(4)
C5A C -0.2288(7) 0.1642(11) 0.2730(4)
H4A H -0.2070 0.1167 0.3036
C6A C -0.3284(7) 0.1747(13) 0.2615(5)
H5A H -0.3729 0.1360 0.2842
C7A C -0.3592(8) 0.2435(13) 0.2158(5)
H6A H -0.4254 0.2519 0.2071
C8A C -0.2920(8) 0.3002(12) 0.1827(5)
H7A H -0.3123 0.3463 0.1515
C9A C -0.1936(7) 0.2878(11) 0.1967(4)
C10A C -0.1178(7) 0.3549(10) 0.1656(4)
C11A C -0.1371(9) 0.4307(14) 0.1190(5)
H8A H -0.2005 0.4373 0.1048
C12A C -0.0626(10) 0.4963(14) 0.0936(5)
H9A H -0.0752 0.5445 0.0618
C13A C 0.0301(9) 0.4892(12) 0.1160(5)
H10A H 0.0812 0.5360 0.1007
C14A C 0.0453(8) 0.4108(11) 0.1617(4)
H11A H 0.1084 0.4037 0.1763
U1B U -0.40046(3) -0.38159(5) 0.033221(14)
U1C U 0.40046(3) -0.38159(5) 0.466779(14)
U1D U -0.09954(3) -0.11841(5) -0.033221(14)
U1E U 0.09954(3) -0.11841(5) 0.533221(14)
O5D O 0.1686(7) 0.2410(13) -0.0378(4)
O5E O -0.1686(7) 0.2410(13) 0.5378(4)
O6B O 0.1994(10) 0.2889(18) 0.0855(5)
O6C O -0.1994(10) 0.2889(18) 0.4145(5)
O7D O 0.0344(4) 0.0229(7) -0.0479(2)
O7E O -0.0344(4) 0.0229(7) 0.5479(2)
O12 O 0.1886(10) -0.3361(14) 0.0438(5)
O8? O 0.0450(14) 0.2773(12) 0.0198(7)
O9? O 0.1629(15) -0.0383(16) 0.0474(10)
O10? O -0.2258(11) -0.128(2) 0.0305(6)
O11? O -0.2627(15) -0.289(2) 0.0892(7)
C15? C -0.0546(10) -0.0714(19) 0.1015(6)
H12? H -0.0312 -0.1645 0.1067
C16? C -0.1646(10) -0.0700(17) 0.1082(6)
H13? H -0.1892 0.0181 0.0959
H14? H -0.1780 -0.0801 0.1454
loop_
_geom_bond_atom_site_label_1
_geom_bond_atom_site_label_2
_geom_bond_site_symmetry_1
_geom_bond_site_symmetry_2
U1 O1 1_555 1_555
Mn1 O4 1_555 1_555
O2 U1 1_555 1_555
O3 U1 1_555 1_555
O4 C1 1_555 1_555
O5 C4 1_555 1_555
O6 C4 1_555 1_555
O7 U1 1_555 1_555
N1 Mn1 1_555 1_555
N2 Mn1 1_555 1_555
C1 O3 1_555 1_555
C2 O7 1_555 1_555
H1 C2 1_555 1_555
C3 C2 1_555 1_555
H2 C3 1_555 1_555
H3 C3 1_555 1_555
C4 C3 1_555 1_555
C5 N1 1_555 1_555
H4 C5 1_555 1_555
C6 C5 1_555 1_555
H5 C6 1_555 1_555
C7 C6 1_555 1_555
H6 C7 1_555 1_555
C8 C7 1_555 1_555
H7 C8 1_555 1_555
C9 N1 1_555 1_555
C10 N2 1_555 1_555
C11 C10 1_555 1_555
H8 C11 1_555 1_555
C12 C11 1_555 1_555
H9 C12 1_555 1_555
C13 C12 1_555 1_555
H10 C13 1_555 1_555
C14 N2 1_555 1_555
H11 C14 1_555 1_555
U1A O1A 1_555 1_555
O2A U1A 1_555 1_555
O3A U1A 1_555 1_555
O4A Mn1 1_555 1_555
O5A C4A 1_555 1_555
O6A C4A 1_555 1_555
O7A U1A 1_555 1_555
N1A Mn1 1_555 1_555
N2A Mn1 1_555 1_555
C1A O3A 1_555 1_555
C2A O7A 1_555 1_555
H1A C2A 1_555 1_555
C3A C2A 1_555 1_555
H2A C3A 1_555 1_555
H3A C3A 1_555 1_555
C4A C3A 1_555 1_555
C5A N1A 1_555 1_555
H4A C5A 1_555 1_555
C6A C5A 1_555 1_555
H5A C6A 1_555 1_555
C7A C6A 1_555 1_555
H6A C7A 1_555 1_555
C8A C7A 1_555 1_555
H7A C8A 1_555 1_555
C9A N1A 1_555 1_555
C10A N2A 1_555 1_555
C11A C10A 1_555 1_555
H8A C11A 1_555 1_555
C12A C11A 1_555 1_555
H9A C12A 1_555 1_555
C13A C12A 1_555 1_555
H10A C13A 1_555 1_555
C14A N2A 1_555 1_555
H11A C14A 1_555 1_555
U1B O6 1_555 1_555
U1C O6A 1_555 1_555
U1D O5 1_555 1_555
U1E O5A 1_555 1_555
O5D U1 1_555 1_555
O5E U1A 1_555 1_555
O6B U1 1_555 1_555
O6C U1A 1_555 1_555
O7D U1 1_555 1_555
O7E U1A 1_555 1_555
O7 U1D 1_555 1_555
C1 C2 1_555 1_555
C8 C9 1_555 1_555
C9 C10 1_555 1_555
C13 C14 1_555 1_555
O4A C1A 1_555 1_555
O7A U1E 1_555 1_555
C1A C2A 1_555 1_555
C8A C9A 1_555 1_555
C9A C10A 1_555 1_555
C13A C14A 1_555 1_555
U1D O7D 1_555 1_555
U1E O7E 1_555 1_555

#END
