
#######################################################################
#
#                 Cambridge Crystallographic Data Centre
#                                CCDC 
#
#######################################################################
#
# If this CIF has been generated from an entry in the Cambridge 
# Structural Database, then it will include bibliographic, chemical, 
# crystal, experimental, refinement or atomic coordinate data resulting 
# from the CCDC's data processing and validation procedures.
#
#######################################################################

data_PIDGUG
_symmetry_cell_setting           monoclinic
_symmetry_space_group_name_H-M   'P 21'
_symmetry_Int_Tables_number      4
_space_group_name_Hall           'P 2yb'
loop_
_symmetry_equiv_pos_site_id
_symmetry_equiv_pos_as_xyz
1 x,y,z
2 -x,1/2+y,-z
_cell_length_a                   8.2402(4)
_cell_length_b                   18.2164(14)
_cell_length_c                   14.1658(11)
_cell_angle_alpha                90
_cell_angle_beta                 91.122(4)
_cell_angle_gamma                90
_cell_volume                     2125.97
loop_
_atom_site_label
_atom_site_type_symbol
_atom_site_fract_x
_atom_site_fract_y
_atom_site_fract_z
U1 U 0.47911(7) 0.78442(3) 0.76027(4)
U2 U 0.05982(7) 0.87907(3) 0.76908(4)
Cu1 Cu 0.4135(2) 0.49346(10) 0.80650(13)
Cu2 Cu 0.1129(2) 1.16127(10) 0.68516(14)
O1 O 0.5033(14) 0.8148(6) 0.8791(8)
O2 O 0.4646(15) 0.7525(6) 0.6410(8)
O3 O 0.1106(17) 0.9026(8) 0.8877(9)
O4 O 0.0103(13) 0.8576(7) 0.6506(8)
O5 O 0.4101(15) 0.6663(7) 0.8072(9)
O6 O 0.2440(14) 0.5677(7) 0.7800(8)
O7 O -0.1221(12) 0.7954(7) 0.8314(8)
O8 O -0.2814(15) 0.7061(7) 0.7815(9)
O9 O 0.1973(13) 0.7628(6) 0.7771(7)
O10 O 0.1253(16) 1.0021(7) 0.7202(11)
O11 O 0.2945(14) 1.0900(6) 0.7077(9)
O12 O 0.6569(12) 0.8711(7) 0.7109(9)
O13 O 0.8160(17) 0.9587(7) 0.7736(10)
O14 O 0.3345(13) 0.8966(5) 0.7307(8)
O15 O 0.6311(15) 0.5459(6) 0.7411(10)
H1 H 0.6474 0.5964 0.7368
H2 H 0.6742 0.5325 0.6917
O16 O 0.517(3) 0.5393(13) 0.9264(13)
O17 O 0.282(3) 0.5241(16) 0.984(2)
O18 O 0.449(2) 0.6004(7) 1.0481(9)
O19 O -0.1015(18) 1.1150(6) 0.7562(11)
H3 H -0.1190 1.0675 0.7600
H4 H -0.1711 1.1259 0.7202
O20 O 0.019(3) 1.0981(12) 0.5736(14)
O21 O 0.111(3) 1.0471(12) 0.4497(17)
O22 O 0.219(3) 1.1462(11) 0.5019(16)
N1 N 0.3497(15) 0.4376(7) 0.6856(9)
N2 N 0.5252(15) 0.3977(7) 0.8378(9)
N3 N 0.1699(16) 1.2208(7) 0.8020(10)
N4 N -0.0071(14) 1.2530(6) 0.6479(8)
N5 N 0.418(3) 0.5536(17) 0.987(2)
N6 N 0.115(3) 1.0976(12) 0.5068(16)
C1 C 0.2675(18) 0.6378(10) 0.7884(11)
C2 C 0.1308(17) 0.6918(8) 0.7614(9)
C3 C -0.008(2) 0.6748(9) 0.8313(13)
H5 H -0.0444 0.6246 0.8230
H6 H 0.0319 0.6805 0.8958
C4 C -0.1460(19) 0.7267(10) 0.8126(12)
C5 C 0.090(2) 0.6811(9) 0.6585(9)
H7 H -0.0048 0.7094 0.6419
H8 H 0.0687 0.6300 0.6465
H9 H 0.1794 0.6970 0.6213
C6 C 0.260(2) 1.0246(9) 0.7116(14)
C7 C 0.392(2) 0.9645(10) 0.6997(13)
C8 C 0.541(2) 0.9858(11) 0.7530(15)
H10 H 0.5123 0.9935 0.8183
H11 H 0.5775 1.0326 0.7285
C9 C 0.6823(19) 0.9324(9) 0.7509(13)
C10 C 0.423(2) 0.9658(9) 0.5965(13)
H12 H 0.4536 1.0146 0.5781
H13 H 0.3272 0.9512 0.5621
H14 H 0.5101 0.9325 0.5828
C11 C 0.263(2) 0.4578(11) 0.6165(12)
H15 H 0.2203 0.5051 0.6174
C12 C 0.226(2) 0.4130(14) 0.5375(13)
H16 H 0.1591 0.4295 0.4882
C13 C 0.292(2) 0.3442(15) 0.5368(14)
H17 H 0.2705 0.3130 0.4862
C14 C 0.391(2) 0.3205(11) 0.6105(13)
C15 C 0.4153(17) 0.3720(10) 0.6875(11)
C16 C 0.5080(19) 0.3481(8) 0.7709(12)
C17 C 0.5801(17) 0.2796(10) 0.7732(11)
C18 C 0.674(2) 0.2598(9) 0.8535(14)
H18 H 0.7236 0.2141 0.8582
C19 C 0.689(2) 0.3123(9) 0.9264(14)
H19 H 0.7507 0.3019 0.9805
C20 C 0.6141(18) 0.3781(10) 0.9167(11)
H20 H 0.6231 0.4116 0.9661
C21 C 0.468(3) 0.2504(12) 0.6199(16)
H21 H 0.4554 0.2184 0.5692
C22 C 0.556(2) 0.2258(11) 0.695(2)
H22 H 0.5992 0.1787 0.6970
C23 C 0.2600(18) 1.2025(10) 0.8738(11)
H23 H 0.3137 1.1576 0.8733
C24 C 0.279(2) 1.2488(11) 0.9529(12)
H24 H 0.3391 1.2333 1.0055
C25 C 0.211(2) 1.3142(11) 0.9518(14)
H25 H 0.2234 1.3453 1.0035
C26 C 0.1202(18) 1.3369(9) 0.8725(10)
C27 C 0.0995(17) 1.2862(10) 0.7980(10)
C28 C 0.0033(16) 1.3067(8) 0.7188(12)
C29 C -0.0705(17) 1.3765(11) 0.7118(11)
C30 C -0.164(2) 1.3853(11) 0.6233(13)
H26 H -0.2182 1.4295 0.6140
C31 C -0.177(2) 1.3370(11) 0.5577(13)
H27 H -0.2360 1.3461 0.5023
C32 C -0.0962(19) 1.2684(8) 0.5736(11)
H28 H -0.1083 1.2323 0.5276
C33 C 0.0429(19) 1.4090(8) 0.8638(12)
H29 H 0.0577 1.4440 0.9110
C34 C -0.053(2) 1.4248(8) 0.7840(16)
H30 H -0.1066 1.4696 0.7804
U1_2 U -0.52089(7) 0.78442(3) 0.76027(4)
U2_2 U 1.05982(7) 0.87907(3) 0.76908(4)
O8_2 O 0.7186(15) 0.7061(7) 0.7815(9)
O13_2 O -0.1840(17) 0.9587(7) 0.7736(10)
O23 O 0.563(3) 0.6031(14) 0.5760(18)
O24 O 0.853(3) 0.5397(13) 0.994(2)
O25? O 0.379(4) 0.5241(13) 0.9425(9)
O26? O 0.220(3) 0.5449(17) 1.056(2)
O27? O 0.116(2) 1.1255(11) 0.5534(16)
O28? O 0.050(3) 1.0336(13) 0.4677(18)
O29? O -0.120(2) 1.0779(12) 0.5650(15)
N7? N 0.014(2) 1.0802(12) 0.5262(18)
N8? N 0.346(3) 0.5588(19) 1.0139(19)
loop_
_geom_bond_atom_site_label_1
_geom_bond_atom_site_label_2
_geom_bond_site_symmetry_1
_geom_bond_site_symmetry_2
U1 O1 1_555 1_555
U2 O3 1_555 1_555
Cu1 O6 1_555 1_555
Cu2 O11 1_555 1_555
O2 U1 1_555 1_555
O4 U2 1_555 1_555
O5 U1 1_555 1_555
O6 C1 1_555 1_555
O7 U2 1_555 1_555
O8 C4 1_555 1_555
O9 U1 1_555 1_555
O10 U2 1_555 1_555
O11 C6 1_555 1_555
O12 U1 1_555 1_555
O13 C9 1_555 1_555
O14 U1 1_555 1_555
O15 Cu1 1_555 1_555
H1 O15 1_555 1_555
H2 O15 1_555 1_555
O16 Cu1 1_555 1_555
O17 N5 1_555 1_555
O18 N5 1_555 1_555
O19 Cu2 1_555 1_555
H3 O19 1_555 1_555
H4 O19 1_555 1_555
O20 Cu2 1_555 1_555
O21 N6 1_555 1_555
O22 N6 1_555 1_555
N1 Cu1 1_555 1_555
N2 Cu1 1_555 1_555
N3 Cu2 1_555 1_555
N4 Cu2 1_555 1_555
N5 O16 1_555 1_555
N6 O20 1_555 1_555
C1 O5 1_555 1_555
C2 O9 1_555 1_555
C3 C2 1_555 1_555
H5 C3 1_555 1_555
H6 C3 1_555 1_555
C4 O7 1_555 1_555
C5 C2 1_555 1_555
H7 C5 1_555 1_555
H8 C5 1_555 1_555
H9 C5 1_555 1_555
C6 O10 1_555 1_555
C7 O14 1_555 1_555
C8 C7 1_555 1_555
H10 C8 1_555 1_555
H11 C8 1_555 1_555
C9 O12 1_555 1_555
C10 C7 1_555 1_555
H12 C10 1_555 1_555
H13 C10 1_555 1_555
H14 C10 1_555 1_555
C11 N1 1_555 1_555
H15 C11 1_555 1_555
C12 C11 1_555 1_555
H16 C12 1_555 1_555
C13 C12 1_555 1_555
H17 C13 1_555 1_555
C14 C13 1_555 1_555
C15 N1 1_555 1_555
C16 N2 1_555 1_555
C17 C16 1_555 1_555
C18 C17 1_555 1_555
H18 C18 1_555 1_555
C19 C18 1_555 1_555
H19 C19 1_555 1_555
C20 N2 1_555 1_555
H20 C20 1_555 1_555
C21 C14 1_555 1_555
H21 C21 1_555 1_555
C22 C17 1_555 1_555
H22 C22 1_555 1_555
C23 N3 1_555 1_555
H23 C23 1_555 1_555
C24 C23 1_555 1_555
H24 C24 1_555 1_555
C25 C24 1_555 1_555
H25 C25 1_555 1_555
C26 C25 1_555 1_555
C27 N3 1_555 1_555
C28 N4 1_555 1_555
C29 C28 1_555 1_555
C30 C29 1_555 1_555
H26 C30 1_555 1_555
C31 C30 1_555 1_555
H27 C31 1_555 1_555
C32 N4 1_555 1_555
H28 C32 1_555 1_555
C33 C26 1_555 1_555
H29 C33 1_555 1_555
C34 C29 1_555 1_555
H30 C34 1_555 1_555
U1_2 O8 1_555 1_555
U2_2 O13 1_555 1_555
O8_2 U1 1_555 1_555
O13_2 U2 1_555 1_555
U2 O9 1_555 1_555
U2 O14 1_555 1_555
C1 C2 1_555 1_555
C3 C4 1_555 1_555
C6 C7 1_555 1_555
C8 C9 1_555 1_555
C14 C15 1_555 1_555
C15 C16 1_555 1_555
C19 C20 1_555 1_555
C21 C22 1_555 1_555
C26 C27 1_555 1_555
C27 C28 1_555 1_555
C31 C32 1_555 1_555
C33 C34 1_555 1_555

#END
