
#######################################################################
#
#                 Cambridge Crystallographic Data Centre
#                                CCDC 
#
#######################################################################
#
# If this CIF has been generated from an entry in the Cambridge 
# Structural Database, then it will include bibliographic, chemical, 
# crystal, experimental, refinement or atomic coordinate data resulting 
# from the CCDC's data processing and validation procedures.
#
#######################################################################

data_PIDHOB
_symmetry_cell_setting           monoclinic
_symmetry_space_group_name_H-M   'P 21/c'
_symmetry_Int_Tables_number      14
_space_group_name_Hall           '-P 2ybc'
loop_
_symmetry_equiv_pos_site_id
_symmetry_equiv_pos_as_xyz
1 x,y,z
2 -x,1/2+y,1/2-z
3 -x,-y,-z
4 x,1/2-y,1/2+z
_cell_length_a                   8.2664(2)
_cell_length_b                   24.6040(9)
_cell_length_c                   25.7372(10)
_cell_angle_alpha                90
_cell_angle_beta                 91.575(2)
_cell_angle_gamma                90
_cell_volume                     5232.62
loop_
_atom_site_label
_atom_site_type_symbol
_atom_site_fract_x
_atom_site_fract_y
_atom_site_fract_z
U1 U 0.262966(13) 0.598414(5) 0.229282(4)
U2 U 0.659789(13) 0.755157(5) 0.473278(4)
O1 O 0.3023(2) 0.52807(9) 0.23021(9)
O2 O 0.2249(2) 0.66936(9) 0.22986(9)
O3 O 0.6165(2) 0.70880(9) 0.52383(8)
O4 O 0.7036(2) 0.79959(9) 0.42159(8)
O5 O 0.3911(2) 0.60560(9) 0.31782(8)
O6 O 0.1278(2) 0.59508(9) 0.31372(8)
O7 O 0.3589(2) 0.75273(9) 0.45560(8)
O8 O 0.5089(2) 0.69657(9) 0.41163(8)
O9 O -0.1753(2) 0.68438(9) 0.43209(8)
O10 O -0.0492(2) 0.73668(9) 0.48819(8)
O11 O 0.0127(3) 0.56749(9) 0.50370(9)
O12 O 0.0845(3) 0.51414(9) 0.43825(9)
H1 H 0.0599 0.4853 0.4589
O13 O -0.0286(2) 0.58150(10) 0.21983(8)
O14 O 0.1005(2) 0.58761(11) 0.14778(8)
O15 O -0.5919(3) 0.60998(11) 0.14908(8)
O16 O -0.4409(2) 0.61505(10) 0.21973(8)
O17 O -0.2097(2) 0.68245(9) 0.03650(8)
O18 O -0.4663(2) 0.66900(9) 0.01772(8)
O19 O -0.1433(3) 0.47566(11) 0.07521(10)
O20 O -0.2472(3) 0.52007(10) 0.00696(9)
H2 H -0.2549 0.4885 -0.0045
C1 C 0.2467(3) 0.61841(12) 0.39653(11)
H3 H 0.3385 0.6031 0.4165
C2 C 0.2251(3) 0.67994(12) 0.40874(11)
H4 H 0.1690 0.6982 0.3796
C3 C 0.1022(3) 0.66377(12) 0.45112(11)
H5 H 0.1589 0.6596 0.4848
C4 C 0.0860(3) 0.60868(12) 0.42435(11)
H6 H -0.0035 0.6103 0.3987
C5 C 0.2562(3) 0.60439(12) 0.34011(11)
C6 C 0.3707(3) 0.71184(13) 0.42604(11)
C7 C -0.0479(3) 0.69714(13) 0.45734(12)
C8 C 0.0615(4) 0.56095(14) 0.45915(12)
C9 C -0.1861(3) 0.57102(13) 0.14036(11)
H7 H -0.2398 0.5380 0.1525
C10 C -0.3092(3) 0.61915(13) 0.13721(11)
H8 H -0.2541 0.6540 0.1427
C11 C -0.3361(3) 0.60729(12) 0.07810(11)
H9 H -0.4327 0.5848 0.0722
C12 C -0.1819(3) 0.57129(13) 0.08082(11)
H10 H -0.0881 0.5919 0.0692
C13 C -0.0300(3) 0.58019(13) 0.17109(12)
C14 C -0.4547(3) 0.61461(13) 0.17093(12)
C15 C -0.3391(4) 0.65495(13) 0.04236(11)
C16 C -0.1884(4) 0.51700(14) 0.05480(12)
U1_2 U -0.737034(13) 0.598414(5) 0.229282(4)
U2_2 U -0.340211(13) 0.755157(5) 0.473278(4)
U2C U -0.340211(13) 0.744843(5) -0.026722(4)
O9_2 O 0.8247(2) 0.68438(9) 0.43209(8)
O10_2 O 0.9508(2) 0.73668(9) 0.48819(8)
O15_2 O 0.4081(3) 0.60998(11) 0.14908(8)
O16_2 O 0.5591(2) 0.61505(10) 0.21973(8)
O17C O 0.7903(2) 0.81755(9) 0.53650(8)
O18C O 0.5337(2) 0.83100(9) 0.51772(8)
Ni1 Ni 0.50391(5) 0.850038(17) 0.243664(15)
N1 N 0.3687(3) 0.81323(11) 0.18274(10)
N2 N 0.3708(3) 0.91565(11) 0.21553(10)
N3 N 0.3416(3) 0.83819(11) 0.30256(10)
N4 N 0.6200(3) 0.89034(11) 0.30376(10)
N5 N 0.6425(3) 0.78140(11) 0.25718(10)
N6 N 0.6839(3) 0.85902(12) 0.18801(10)
C17 C 0.3796(4) 0.76203(14) 0.16654(13)
H11 H 0.4266 0.7365 0.1890
C18 C 0.3244(4) 0.74477(14) 0.11786(13)
H12 H 0.3309 0.7084 0.1081
C19 C 0.2600(4) 0.78314(15) 0.08457(13)
H13 H 0.2263 0.7735 0.0511
C20 C 0.2459(4) 0.83577(15) 0.10109(13)
H14 H 0.2025 0.8620 0.0788
C21 C 0.2959(4) 0.84983(13) 0.15077(12)
C22 C 0.2782(4) 0.90481(13) 0.17263(12)
C23 C 0.1735(4) 0.94422(15) 0.15182(13)
H15 H 0.1107 0.9366 0.1222
C24 C 0.1630(4) 0.99445(14) 0.17520(14)
H16 H 0.0909 1.0204 0.1621
C25 C 0.2613(4) 1.00602(14) 0.21853(13)
H17 H 0.2592 1.0400 0.2344
C26 C 0.3630(4) 0.96498(14) 0.23739(13)
H18 H 0.4286 0.9721 0.2665
C27 C 0.1996(4) 0.81195(15) 0.29840(14)
H19 H 0.1746 0.7931 0.2679
C28 C 0.0896(4) 0.81182(16) 0.33757(15)
H20 H -0.0087 0.7938 0.3333
C29 C 0.1272(5) 0.83855(17) 0.38262(15)
H21 H 0.0539 0.8392 0.4094
C30 C 0.2741(5) 0.86465(17) 0.38845(15)
H22 H 0.3021 0.8820 0.4195
C31 C 0.3805(5) 0.86486(15) 0.34724(13)
C32 C 0.5394(5) 0.89177(14) 0.34862(13)
C33 C 0.6114(5) 0.91611(16) 0.39305(15)
H23 H 0.5563 0.9175 0.4240
C34 C 0.7644(6) 0.93775(16) 0.39003(16)
H24 H 0.8127 0.9542 0.4190
C35 C 0.8450(5) 0.93509(15) 0.34484(15)
H25 H 0.9494 0.9488 0.3428
C36 C 0.7689(4) 0.91163(14) 0.30193(15)
H26 H 0.8229 0.9106 0.2707
C37 C 0.6276(4) 0.74699(14) 0.29701(12)
H27 H 0.5457 0.7529 0.3204
C38 C 0.7293(4) 0.70292(14) 0.30476(14)
H28 H 0.7152 0.6795 0.3326
C39 C 0.8517(4) 0.69437(15) 0.27044(14)
H29 H 0.9224 0.6652 0.2750
C40 C 0.8679(4) 0.72987(15) 0.22908(14)
H30 H 0.9497 0.7246 0.2055
C41 C 0.7627(4) 0.77296(14) 0.22294(12)
C42 C 0.7699(4) 0.81308(15) 0.18043(13)
C43 C 0.8540(4) 0.80515(17) 0.13523(14)
H31 H 0.9116 0.7732 0.1304
C44 C 0.8521(5) 0.8448(2) 0.09752(15)
H32 H 0.9057 0.8395 0.0666
C45 C 0.7702(4) 0.89221(19) 0.10614(14)
H33 H 0.7707 0.9201 0.0817
C46 C 0.6865(4) 0.89804(16) 0.15178(14)
H34 H 0.6303 0.9302 0.1574
O21 O -0.2492(3) 0.43182(10) -0.04589(8)
H35 H -0.2395 0.4315 -0.0779
H36 H -0.2115 0.3985 -0.0429
O22 O 0.6683(3) 0.58770(10) 0.38410(9)
H37 H 0.7215 0.6194 0.4002
H38 H 0.6796 0.5615 0.4092
O23 O 0.1527(3) 0.83274(10) 0.51309(10)
H39 H 0.1981 0.8075 0.4998
H40 H 0.0492 0.8177 0.5173
O24 O 0.4388(4) 0.59157(13) 0.51365(11)
H41 H 0.4941 0.6259 0.5211
H42 H 0.4919 0.5796 0.4906
O25 O 0.6733(5) 0.51980(19) 0.46650(17)
O26? O 0.5191(13) 0.4972(4) 0.4338(5)
loop_
_geom_bond_atom_site_label_1
_geom_bond_atom_site_label_2
_geom_bond_site_symmetry_1
_geom_bond_site_symmetry_2
U1 O1 1_555 1_555
U2 O3 1_555 1_555
O2 U1 1_555 1_555
O4 U2 1_555 1_555
O5 U1 1_555 1_555
O6 U1 1_555 1_555
O7 U2 1_555 1_555
O8 U2 1_555 1_555
O9 C7 1_555 1_555
O10 C7 1_555 1_555
O11 C8 1_555 1_555
O12 H1 1_555 1_555
O13 U1 1_555 1_555
O14 U1 1_555 1_555
O15 C14 1_555 1_555
O16 C14 1_555 1_555
O17 C15 1_555 1_555
O18 C15 1_555 1_555
O19 C16 1_555 1_555
O20 H2 1_555 1_555
C1 H3 1_555 1_555
C2 C1 1_555 1_555
H4 C2 1_555 1_555
C3 C2 1_555 1_555
H5 C3 1_555 1_555
C4 C1 1_555 1_555
H6 C4 1_555 1_555
C5 O5 1_555 1_555
C6 O7 1_555 1_555
C7 C3 1_555 1_555
C8 O12 1_555 1_555
C9 H7 1_555 1_555
C10 C9 1_555 1_555
H8 C10 1_555 1_555
C11 C10 1_555 1_555
H9 C11 1_555 1_555
C12 C9 1_555 1_555
H10 C12 1_555 1_555
C13 O13 1_555 1_555
C14 C10 1_555 1_555
C15 C11 1_555 1_555
C16 O20 1_555 1_555
Ni1 N1 1_555 1_555
N1 C17 1_555 1_555
N2 Ni1 1_555 1_555
N3 Ni1 1_555 1_555
N4 Ni1 1_555 1_555
N5 Ni1 1_555 1_555
N6 Ni1 1_555 1_555
C17 H11 1_555 1_555
C18 C17 1_555 1_555
H12 C18 1_555 1_555
C19 C18 1_555 1_555
H13 C19 1_555 1_555
C20 C19 1_555 1_555
H14 C20 1_555 1_555
C21 N1 1_555 1_555
C22 N2 1_555 1_555
C23 C22 1_555 1_555
H15 C23 1_555 1_555
C24 C23 1_555 1_555
H16 C24 1_555 1_555
C25 C24 1_555 1_555
H17 C25 1_555 1_555
C26 N2 1_555 1_555
H18 C26 1_555 1_555
C27 N3 1_555 1_555
H19 C27 1_555 1_555
C28 C27 1_555 1_555
H20 C28 1_555 1_555
C29 C28 1_555 1_555
H21 C29 1_555 1_555
C30 C29 1_555 1_555
H22 C30 1_555 1_555
C31 N3 1_555 1_555
C32 N4 1_555 1_555
C33 C32 1_555 1_555
H23 C33 1_555 1_555
C34 C33 1_555 1_555
H24 C34 1_555 1_555
C35 C34 1_555 1_555
H25 C35 1_555 1_555
C36 N4 1_555 1_555
H26 C36 1_555 1_555
C37 N5 1_555 1_555
H27 C37 1_555 1_555
C38 C37 1_555 1_555
H28 C38 1_555 1_555
C39 C38 1_555 1_555
H29 C39 1_555 1_555
C40 C39 1_555 1_555
H30 C40 1_555 1_555
C41 N5 1_555 1_555
C42 N6 1_555 1_555
C43 C42 1_555 1_555
H31 C43 1_555 1_555
C44 C43 1_555 1_555
H32 C44 1_555 1_555
C45 C44 1_555 1_555
H33 C45 1_555 1_555
C46 N6 1_555 1_555
H34 C46 1_555 1_555
O21 H35 1_555 1_555
H36 O21 1_555 1_555
O22 H37 1_555 1_555
H38 O22 1_555 1_555
O23 H39 1_555 1_555
H40 O23 1_555 1_555
O24 H41 1_555 1_555
H42 O24 1_555 1_555
U1_2 O15 1_555 1_555
U2_2 O9 1_555 1_555
U2C O17 1_555 1_555
O9_2 U2 1_555 1_555
O10_2 U2 1_555 1_555
O15_2 U1 1_555 1_555
O16_2 U1 1_555 1_555
O17C U2 1_555 1_555
O18C U2 1_555 1_555
O6 C5 1_555 1_555
O8 C6 1_555 1_555
O10 U2_2 1_555 1_555
O14 C13 1_555 1_555
O16 U1_2 1_555 1_555
O18 U2C 1_555 1_555
C1 C5 1_555 1_555
C2 C6 1_555 1_555
C3 C4 1_555 1_555
C4 C8 1_555 1_555
C9 C13 1_555 1_555
C11 C12 1_555 1_555
C12 C16 1_555 1_555
C20 C21 1_555 1_555
C21 C22 1_555 1_555
C25 C26 1_555 1_555
C30 C31 1_555 1_555
C31 C32 1_555 1_555
C35 C36 1_555 1_555
C40 C41 1_555 1_555
C41 C42 1_555 1_555
C45 C46 1_555 1_555

#END
