
#######################################################################
#
#                 Cambridge Crystallographic Data Centre
#                                CCDC 
#
#######################################################################
#
# If this CIF has been generated from an entry in the Cambridge 
# Structural Database, then it will include bibliographic, chemical, 
# crystal, experimental, refinement or atomic coordinate data resulting 
# from the CCDC's data processing and validation procedures.
#
#######################################################################

data_PIDHUH
_symmetry_cell_setting           monoclinic
_symmetry_space_group_name_H-M   'C 2/c'
_symmetry_Int_Tables_number      15
_space_group_name_Hall           '-C 2yn'
loop_
_symmetry_equiv_pos_site_id
_symmetry_equiv_pos_as_xyz
1 x,y,z
2 -x,y,1/2-z
3 1/2+x,1/2+y,z
4 1/2-x,1/2+y,1/2-z
5 -x,-y,-z
6 x,-y,1/2+z
7 1/2-x,1/2-y,-z
8 1/2+x,1/2-y,1/2+z
_cell_length_a                   14.6158(9)
_cell_length_b                   16.9169(5)
_cell_length_c                   27.9857(17)
_cell_angle_alpha                90
_cell_angle_beta                 102.458(3)
_cell_angle_gamma                90
_cell_volume                     6756.65
loop_
_atom_site_label
_atom_site_type_symbol
_atom_site_fract_x
_atom_site_fract_y
_atom_site_fract_z
U1 U 0.765095(14) 0.157614(14) 0.469528(8)
U2 U 0.871493(14) -0.033636(14) 0.498985(8)
U3 U 0.802423(15) 0.125575(14) 0.602618(8)
O1 O 0.8839(2) 0.1849(2) 0.47075(13)
O2 O 0.6471(2) 0.1273(2) 0.46567(14)
O3 O 0.8243(2) 0.0240(2) 0.44379(13)
O4 O 0.9041(2) -0.0951(2) 0.55127(14)
O5 O 0.9283(2) 0.1279(3) 0.61511(14)
O6 O 0.6789(2) 0.1172(3) 0.59614(15)
O7 O 0.8035(2) 0.0589(2) 0.53232(13)
O8 O 0.7803(2) 0.2161(2) 0.54484(14)
O9 O 1.0039(2) -0.0533(2) 0.46920(16)
H1 H 1.0012 -0.0603 0.4436
O10 O 0.7304(3) 0.1533(3) 0.38174(14)
O11 O 0.6926(3) 0.2665(3) 0.34129(15)
O12 O 0.8153(3) 0.0653(3) 0.68805(15)
O13 O 0.8013(3) -0.0194(2) 0.62902(16)
O14 O 0.7955(3) -0.0602(3) 0.70253(17)
N1 N 0.8435(3) -0.1678(3) 0.45065(17)
N2 N 0.7060(3) -0.0967(3) 0.48393(18)
N3 N 0.8040(3) -0.0065(4) 0.6740(2)
C1 C 0.7044(4) 0.1923(4) 0.3434(2)
C2 C 0.6844(5) 0.1450(4) 0.2966(2)
H2 H 0.7424 0.1307 0.2881
H3 H 0.6476 0.1762 0.2708
H4 H 0.6504 0.0979 0.3011
C3 C 0.9135(5) -0.2051(4) 0.4346(3)
H5 H 0.9738 -0.1850 0.4446
C4 C 0.9021(5) -0.2694(4) 0.4050(3)
H6 H 0.9530 -0.2916 0.3949
C5 C 0.8136(5) -0.3012(4) 0.3903(3)
H7 H 0.8029 -0.3439 0.3688
C6 C 0.7416(5) -0.2683(4) 0.4081(3)
H8 H 0.6819 -0.2902 0.4002
C7 C 0.7588(4) -0.2023(4) 0.4380(2)
C8 C 0.6839(4) -0.1638(4) 0.4587(2)
C9 C 0.5946(4) -0.1981(4) 0.4532(2)
H9 H 0.5812 -0.2455 0.4363
C10 C 0.5274(4) -0.1620(4) 0.4727(3)
H10 H 0.4677 -0.1835 0.4687
C11 C 0.5510(4) -0.0921(4) 0.4989(3)
H11 H 0.5074 -0.0665 0.5133
C12 C 0.6396(4) -0.0616(4) 0.5033(2)
H12 H 0.6544 -0.0145 0.5203
U1F U 0.734905(14) 0.342386(14) 0.530472(8)
U2D U 1.128507(14) 0.033636(14) 0.501015(8)
U3F U 0.697577(15) 0.374425(14) 0.397382(8)
O8F O 0.7197(2) 0.2839(2) 0.45516(14)
O9D O 0.9961(2) 0.0533(2) 0.53080(16)
O11F O 0.8074(3) 0.2335(3) 0.65871(15)
Mn1 Mn 0.5000 0.82146(8) 0.2500
N4 N 0.5068(3) 0.9110(3) 0.30950(16)
N5 N 0.6529(3) 0.8447(3) 0.28149(17)
N6 N 0.4745(3) 0.7158(3) 0.29310(16)
C13 C 0.4316(4) 0.9424(4) 0.3227(2)
H13 H 0.3726 0.9237 0.3077
C14 C 0.4378(4) 1.0014(4) 0.3576(2)
H14 H 0.3841 1.0236 0.3647
C15 C 0.5255(4) 1.0262(4) 0.3815(2)
H15 H 0.5322 1.0651 0.4055
C16 C 0.6040(4) 0.9918(4) 0.3692(2)
H16 H 0.6639 1.0074 0.3850
C17 C 0.5922(4) 0.9349(4) 0.3334(2)
C18 C 0.6739(4) 0.8991(4) 0.3172(2)
C19 C 0.7660(4) 0.9197(4) 0.3366(2)
H17 H 0.7793 0.9576 0.3613
C20 C 0.8376(4) 0.8850(4) 0.3199(2)
H18 H 0.8996 0.8981 0.3335
C21 C 0.8162(4) 0.8303(4) 0.2826(2)
H19 H 0.8632 0.8069 0.2697
C22 C 0.7230(4) 0.8111(4) 0.2648(2)
H20 H 0.7084 0.7732 0.2403
C23 C 0.4882(4) 0.6452(4) 0.2747(2)
C24 C 0.4813(4) 0.5753(4) 0.3006(2)
H21 H 0.4905 0.5264 0.2872
C25 C 0.4604(4) 0.5804(4) 0.3461(2)
H22 H 0.4562 0.5349 0.3642
C26 C 0.4458(4) 0.6539(4) 0.3647(2)
H23 H 0.4316 0.6586 0.3954
C27 C 0.4524(4) 0.7189(4) 0.3373(2)
H24 H 0.4411 0.7681 0.3497
N6A N 0.5255(3) 0.7158(3) 0.20690(16)
C23A C 0.5118(4) 0.6452(4) 0.2253(2)
C24A C 0.5187(4) 0.5753(4) 0.1994(2)
H21A H 0.5095 0.5264 0.2128
C25A C 0.5396(4) 0.5804(4) 0.1539(2)
H22A H 0.5438 0.5349 0.1358
C26A C 0.5542(4) 0.6539(4) 0.1353(2)
H23A H 0.5684 0.6586 0.1046
C27A C 0.5476(4) 0.7189(4) 0.1627(2)
H24A H 0.5589 0.7681 0.1503
N4A N 0.4932(3) 0.9110(3) 0.19050(16)
N5A N 0.3471(3) 0.8447(3) 0.21851(17)
C13A C 0.5684(4) 0.9424(4) 0.1773(2)
H13A H 0.6274 0.9237 0.1923
C14A C 0.5622(4) 1.0014(4) 0.1424(2)
H14A H 0.6159 1.0236 0.1353
C15A C 0.4745(4) 1.0262(4) 0.1185(2)
H15A H 0.4678 1.0651 0.0945
C16A C 0.3960(4) 0.9918(4) 0.1308(2)
H16A H 0.3361 1.0074 0.1150
C17A C 0.4078(4) 0.9349(4) 0.1666(2)
C18A C 0.3261(4) 0.8991(4) 0.1828(2)
C19A C 0.2340(4) 0.9197(4) 0.1634(2)
H17A H 0.2207 0.9576 0.1387
C20A C 0.1624(4) 0.8850(4) 0.1801(2)
H18A H 0.1004 0.8981 0.1665
C21A C 0.1838(4) 0.8303(4) 0.2174(2)
H19A H 0.1368 0.8069 0.2303
C22A C 0.2770(4) 0.8111(4) 0.2352(2)
H20A H 0.2916 0.7732 0.2597
loop_
_geom_bond_atom_site_label_1
_geom_bond_atom_site_label_2
_geom_bond_site_symmetry_1
_geom_bond_site_symmetry_2
U1 O1 1_555 1_555
U2 O3 1_555 1_555
U3 O5 1_555 1_555
O2 U1 1_555 1_555
O3 U1 1_555 1_555
O4 U2 1_555 1_555
O6 U3 1_555 1_555
O7 U1 1_555 1_555
O8 U1 1_555 1_555
O9 U2 1_555 1_555
H1 O9 1_555 1_555
O10 U1 1_555 1_555
O11 C1 1_555 1_555
O12 U3 1_555 1_555
O13 U3 1_555 1_555
O14 N3 1_555 1_555
N1 U2 1_555 1_555
N2 U2 1_555 1_555
N3 O12 1_555 1_555
C1 O10 1_555 1_555
C2 C1 1_555 1_555
H2 C2 1_555 1_555
H3 C2 1_555 1_555
H4 C2 1_555 1_555
C3 N1 1_555 1_555
H5 C3 1_555 1_555
C4 C3 1_555 1_555
H6 C4 1_555 1_555
C5 C4 1_555 1_555
H7 C5 1_555 1_555
C6 C5 1_555 1_555
H8 C6 1_555 1_555
C7 N1 1_555 1_555
C8 N2 1_555 1_555
C9 C8 1_555 1_555
H9 C9 1_555 1_555
C10 C9 1_555 1_555
H10 C10 1_555 1_555
C11 C10 1_555 1_555
H11 C11 1_555 1_555
C12 N2 1_555 1_555
H12 C12 1_555 1_555
Mn1 N4 1_555 1_555
N4 C13 1_555 1_555
N5 Mn1 1_555 1_555
N6 Mn1 1_555 1_555
C13 H13 1_555 1_555
C14 C13 1_555 1_555
H14 C14 1_555 1_555
C15 C14 1_555 1_555
H15 C15 1_555 1_555
C16 C15 1_555 1_555
H16 C16 1_555 1_555
C17 N4 1_555 1_555
C18 N5 1_555 1_555
C19 C18 1_555 1_555
H17 C19 1_555 1_555
C20 C19 1_555 1_555
H18 C20 1_555 1_555
C21 C20 1_555 1_555
H19 C21 1_555 1_555
C22 N5 1_555 1_555
H20 C22 1_555 1_555
C23 N6 1_555 1_555
C24 C23 1_555 1_555
H21 C24 1_555 1_555
C25 C24 1_555 1_555
H22 C25 1_555 1_555
C26 C25 1_555 1_555
H23 C26 1_555 1_555
C27 N6 1_555 1_555
H24 C27 1_555 1_555
U1F O8 1_555 1_555
U2D O9 1_555 1_555
U3F O11 1_555 1_555
O8F U1 1_555 1_555
O9D U2 1_555 1_555
O11F U3 1_555 1_555
N6A Mn1 1_555 1_555
C23A C23 1_555 1_555
C24A C23A 1_555 1_555
H21A C24A 1_555 1_555
C25A C24A 1_555 1_555
H22A C25A 1_555 1_555
C26A C25A 1_555 1_555
H23A C26A 1_555 1_555
C27A N6A 1_555 1_555
H24A C27A 1_555 1_555
N4A Mn1 1_555 1_555
N5A Mn1 1_555 1_555
C13A N4A 1_555 1_555
H13A C13A 1_555 1_555
C14A C13A 1_555 1_555
H14A C14A 1_555 1_555
C15A C14A 1_555 1_555
H15A C15A 1_555 1_555
C16A C15A 1_555 1_555
H16A C16A 1_555 1_555
C17A N4A 1_555 1_555
C18A N5A 1_555 1_555
C19A C18A 1_555 1_555
H17A C19A 1_555 1_555
C20A C19A 1_555 1_555
H18A C20A 1_555 1_555
C21A C20A 1_555 1_555
H19A C21A 1_555 1_555
C22A N5A 1_555 1_555
H20A C22A 1_555 1_555
U2 O7 1_555 1_555
U3 O7 1_555 1_555
U3 O8 1_555 1_555
O13 N3 1_555 1_555
C6 C7 1_555 1_555
C7 C8 1_555 1_555
C11 C12 1_555 1_555
C16 C17 1_555 1_555
C17 C18 1_555 1_555
C21 C22 1_555 1_555
C26 C27 1_555 1_555
U1F O8F 1_555 1_555
U2D O9D 1_555 1_555
U3F O8F 1_555 1_555
N6A C23A 1_555 1_555
C26A C27A 1_555 1_555
C16A C17A 1_555 1_555
C17A C18A 1_555 1_555
C21A C22A 1_555 1_555

#END
