
#######################################################################
#
#                 Cambridge Crystallographic Data Centre
#                                CCDC 
#
#######################################################################
#
# If this CIF has been generated from an entry in the Cambridge 
# Structural Database, then it will include bibliographic, chemical, 
# crystal, experimental, refinement or atomic coordinate data resulting 
# from the CCDC's data processing and validation procedures.
#
#######################################################################

data_PIDHUF
_symmetry_cell_setting           triclinic
_symmetry_space_group_name_H-M   'P -1'
_symmetry_Int_Tables_number      2
_space_group_name_Hall           '-P 1'
loop_
_symmetry_equiv_pos_site_id
_symmetry_equiv_pos_as_xyz
1 x,y,z
2 -x,-y,-z
_cell_length_a                   7.3531(12)
_cell_length_b                   10.605(2)
_cell_length_c                   11.462(3)
_cell_angle_alpha                82.210(12)
_cell_angle_beta                 79.700(12)
_cell_angle_gamma                72.610(9)
_cell_volume                     835.989
loop_
_atom_site_label
_atom_site_type_symbol
_atom_site_fract_x
_atom_site_fract_y
_atom_site_fract_z
Li1 Li 0.6752(5) 0.4927(4) 0.5125(3)
C1 C 0.6501(4) 0.2293(2) 0.7176(2)
C2 C 0.6079(4) 0.1417(3) 0.8121(3)
C3 C 0.7433(5) 0.0735(3) 0.8825(2)
C4 C 0.9224(4) 0.0936(3) 0.8583(2)
C5 C 0.9673(4) 0.1808(2) 0.7651(2)
C6 C 0.8314(3) 0.2501(2) 0.6920(2)
N1 N 0.8673(3) 0.3385(2) 0.5952(2)
C7 C 1.0413(3) 0.3510(2) 0.5705(2)
N2 N 0.8078(3) 0.6324(2) 0.4576(2)
P1 P 0.3445(1) 0.6681(1) 0.6967(1)
O1 O 0.4291(2) 0.5629(2) 0.6128(1)
N3 N 0.5158(3) 0.6946(2) 0.7551(2)
C8 C 0.4934(5) 0.8111(3) 0.8162(3)
C9 C 0.6834(4) 0.5867(3) 0.7792(3)
N4 N 0.1810(3) 0.6209(2) 0.7966(2)
C10 C 0.0973(5) 0.6982(3) 0.8989(3)
C11 C 0.1970(4) 0.4806(2) 0.8247(2)
N5 N 0.2304(3) 0.8153(2) 0.6456(2)
C12 C 0.3380(5) 0.8981(3) 0.5676(3)
C13 C 0.0274(4) 0.8540(3) 0.6310(3)
N2A N 1.1922(3) 0.3676(2) 0.5424(2)
Li1A Li 1.3248(5) 0.5073(4) 0.4875(3)
N1A N 1.1327(3) 0.6615(2) 0.4048(2)
C6A C 1.1686(3) 0.7499(2) 0.3080(2)
C1A C 1.3499(4) 0.7707(2) 0.2824(2)
C2A C 1.3921(4) 0.8583(3) 0.1879(3)
C3A C 1.2567(5) 0.9265(3) 0.1175(2)
C4A C 1.0776(4) 0.9064(3) 0.1417(2)
C5A C 1.0327(4) 0.8192(2) 0.2349(2)
C7A C 0.9587(3) 0.6490(2) 0.4295(2)
Li1A_2 Li 0.3248(5) 0.5073(4) 0.4875(3)
N1A_2 N 0.1327(3) 0.6615(2) 0.4048(2)
N2A_2 N 0.1922(3) 0.3676(2) 0.5424(2)
O1A O 0.5709(2) 0.4371(2) 0.3872(1)
P1A P 0.6555(1) 0.3319(1) 0.3033(1)
N3A N 0.4842(3) 0.3054(2) 0.2449(2)
C8A C 0.5066(5) 0.1889(3) 0.1838(3)
C9A C 0.3166(4) 0.4133(3) 0.2208(3)
N4A N 0.8190(3) 0.3791(2) 0.2034(2)
C10A C 0.9027(5) 0.3018(3) 0.1011(3)
C11A C 0.8030(4) 0.5194(2) 0.1753(2)
N5A N 0.7696(3) 0.1847(2) 0.3544(2)
C12A C 0.6620(5) 0.1019(3) 0.4324(3)
C13A C 0.9726(4) 0.1460(3) 0.3690(3)
loop_
_geom_bond_atom_site_label_1
_geom_bond_atom_site_label_2
_geom_bond_site_symmetry_1
_geom_bond_site_symmetry_2
Li1 N1 1_555 1_555
C1 C2 1_555 1_555
C2 C3 1_555 1_555
C3 C4 1_555 1_555
C4 C5 1_555 1_555
C5 C6 1_555 1_555
C6 C1 1_555 1_555
N1 C6 1_555 1_555
C7 N1 1_555 1_555
N2 Li1 1_555 1_555
P1 O1 1_555 1_555
O1 Li1 1_555 1_555
N3 P1 1_555 1_555
C8 N3 1_555 1_555
C9 N3 1_555 1_555
N4 P1 1_555 1_555
C10 N4 1_555 1_555
C11 N4 1_555 1_555
N5 P1 1_555 1_555
C12 N5 1_555 1_555
C13 N5 1_555 1_555
N2A C7 1_555 1_555
Li1A N2A 1_555 1_555
N1A Li1A 1_555 1_555
C6A N1A 1_555 1_555
C1A C6A 1_555 1_555
C2A C1A 1_555 1_555
C3A C2A 1_555 1_555
C4A C3A 1_555 1_555
C5A C6A 1_555 1_555
C7A N2 1_555 1_555
Li1A_2 O1 1_555 1_555
N1A_2 Li1A_2 1_555 1_555
N2A_2 Li1A_2 1_555 1_555
O1A Li1 1_555 1_555
P1A O1A 1_555 1_555
N3A P1A 1_555 1_555
C8A N3A 1_555 1_555
C9A N3A 1_555 1_555
N4A P1A 1_555 1_555
C10A N4A 1_555 1_555
C11A N4A 1_555 1_555
N5A P1A 1_555 1_555
C12A N5A 1_555 1_555
C13A N5A 1_555 1_555
N1A C7A 1_555 1_555
C4A C5A 1_555 1_555
Li1A_2 O1A 1_555 1_555

#END
