
#######################################################################
#
#                 Cambridge Crystallographic Data Centre
#                                CCDC 
#
#######################################################################
#
# If this CIF has been generated from an entry in the Cambridge 
# Structural Database, then it will include bibliographic, chemical, 
# crystal, experimental, refinement or atomic coordinate data resulting 
# from the CCDC's data processing and validation procedures.
#
#######################################################################

data_PIDHER
_symmetry_cell_setting           triclinic
_symmetry_space_group_name_H-M   'P -1'
_symmetry_Int_Tables_number      2
_space_group_name_Hall           '-P 1'
loop_
_symmetry_equiv_pos_site_id
_symmetry_equiv_pos_as_xyz
1 x,y,z
2 -x,-y,-z
_cell_length_a                   7.1039(2)
_cell_length_b                   12.1625(7)
_cell_length_c                   22.2182(14)
_cell_angle_alpha                103.229(3)
_cell_angle_beta                 92.916(4)
_cell_angle_gamma                100.199(4)
_cell_volume                     1830.82
loop_
_atom_site_label
_atom_site_type_symbol
_atom_site_fract_x
_atom_site_fract_y
_atom_site_fract_z
U1 U 0.18053(2) 0.482596(10) 0.240143(5)
U2 U 0.0000 0.0000 0.0000
U3 U 1.0000 1.0000 0.5000
Cu1 Cu 0.61119(7) 0.94572(3) 0.277861(18)
O1 O 0.4252(4) 0.4976(2) 0.22392(11)
O2 O -0.0621(5) 0.4700(2) 0.25726(10)
O3 O 0.2532(5) 0.0129(2) -0.00312(11)
O4 O 1.2453(4) 1.0239(2) 0.48506(10)
O5 O 0.2059(4) 0.6824(2) 0.25366(10)
O6 O 0.3209(4) 0.8659(2) 0.30406(10)
O7 O 0.2448(4) 0.3838(2) 0.31653(10)
O8 O 0.3516(4) 0.3721(2) 0.41132(11)
O9 O 0.0584(5) 0.1845(2) 0.08129(10)
O10 O 0.1069(4) 0.2984(2) 0.17644(10)
O11 O -0.0021(5) -0.1804(2) 0.02945(10)
O12 O 0.0016(4) -0.3012(2) 0.09111(10)
O13 O 0.9226(4) 0.9398(2) 0.38624(10)
O14 O 0.7233(4) 0.8264(2) 0.30647(10)
O15 O 1.0726(4) 0.85766(19) 0.55548(10)
O16 O 1.1025(4) 0.6845(2) 0.56786(10)
O17 O 0.0883(4) 0.5183(2) 0.13916(10)
H1 H 0.0836 0.5843 0.1393
H2 H -0.0192 0.4632 0.1207
O18 O 0.6305(4) 1.0485(2) 0.35846(11)
H3 H 0.7408 1.0798 0.3818
H4 H 0.5516 1.0790 0.3762
N1 N 0.2918(5) 0.6052(2) 0.34782(12)
N2 N 0.0384(5) -0.0015(2) 0.11900(12)
N3 N 0.9213(5) 0.7795(2) 0.44343(12)
N4 N 0.5711(5) 0.8476(2) 0.19178(12)
N5 N 0.5816(5) 1.0674(3) 0.23290(14)
C1 C 0.3225(5) 0.7192(3) 0.35830(14)
C2 C 0.3962(6) 0.7913(3) 0.41638(15)
H5 H 0.4213 0.8710 0.4226
C3 C 0.4308(6) 0.7395(3) 0.46472(15)
H6 H 0.4736 0.7849 0.5044
C4 C 0.4021(6) 0.6221(3) 0.45396(15)
H7 H 0.4279 0.5872 0.4858
C5 C 0.3333(5) 0.5553(3) 0.39422(14)
C6 C 0.2805(6) 0.7624(3) 0.30205(14)
C7 C 0.3079(6) 0.4266(3) 0.37382(15)
C8 C 0.0659(6) 0.0971(3) 0.16390(14)
C9 C 0.0834(6) 0.0997(3) 0.22669(15)
H8 H 0.1007 0.1690 0.2565
C10 C 0.0746(6) -0.0040(3) 0.24396(15)
H9 H 0.0862 -0.0051 0.2857
C11 C 0.0481(6) -0.1058(3) 0.19797(14)
H10 H 0.0409 -0.1762 0.2084
C12 C 0.0327(6) -0.1004(3) 0.13608(14)
C13 C 0.0781(6) 0.2007(3) 0.13874(15)
C14 C 0.0093(6) -0.2036(3) 0.08259(15)
C15 C 0.8380(6) 0.7455(3) 0.38497(14)
C16 C 0.7731(5) 0.6313(3) 0.35467(15)
H11 H 0.7158 0.6108 0.3141
C17 C 0.7961(6) 0.5471(3) 0.38704(15)
H12 H 0.7552 0.4693 0.3680
C18 C 0.8798(6) 0.5814(3) 0.44713(15)
H13 H 0.8956 0.5270 0.4694
C19 C 0.9411(5) 0.6989(3) 0.47461(14)
C20 C 0.8274(6) 0.8450(3) 0.35637(14)
C21 C 1.0471(6) 0.7471(3) 0.53830(14)
C22 C 0.5701(6) 0.7349(3) 0.17578(16)
H14 H 0.5933 0.6977 0.2068
C23 C 0.5361(7) 0.6715(3) 0.11500(16)
H15 H 0.5366 0.5930 0.1050
C24 C 0.5010(7) 0.7280(4) 0.06904(18)
H16 H 0.4770 0.6877 0.0276
C25 C 0.5021(7) 0.8450(4) 0.08574(17)
H17 H 0.4786 0.8838 0.0555
C26 C 0.5378(6) 0.9036(3) 0.14706(16)
C27 C 0.5515(6) 1.0287(3) 0.17024(16)
C28 C 0.5437(6) 1.1044(4) 0.13228(18)
H18 H 0.5254 1.0772 0.0893
C29 C 0.5637(7) 1.2207(4) 0.1591(2)
H19 H 0.5574 1.2723 0.1343
C30 C 0.5929(6) 1.2598(3) 0.2228(2)
H20 H 0.6056 1.3376 0.2417
C31 C 0.6028(6) 1.1801(3) 0.25788(18)
H21 H 0.6254 1.2064 0.3008
U1A U -0.18053(2) -0.482596(10) -0.240143(5)
Cu1A Cu -0.61119(7) -0.94572(3) -0.277861(18)
O1A O -0.4252(4) -0.4976(2) -0.22392(11)
O2A O 0.0621(5) -0.4700(2) -0.25726(10)
O3A O -0.2532(5) -0.0129(2) 0.00312(11)
O5A O -0.2059(4) -0.6824(2) -0.25366(10)
O6A O -0.3209(4) -0.8659(2) -0.30406(10)
O7A O -0.2448(4) -0.3838(2) -0.31653(10)
O8A O -0.3516(4) -0.3721(2) -0.41132(11)
O9A O -0.0584(5) -0.1845(2) -0.08129(10)
O10A O -0.1069(4) -0.2984(2) -0.17644(10)
O11A O 0.0021(5) 0.1804(2) -0.02945(10)
O12A O -0.0016(4) 0.3012(2) -0.09111(10)
O13A O -0.9226(4) -0.9398(2) -0.38624(10)
O14A O -0.7233(4) -0.8264(2) -0.30647(10)
O15A O -1.0726(4) -0.85766(19) -0.55548(10)
O16A O -1.1025(4) -0.6845(2) -0.56786(10)
O17A O -0.0883(4) -0.5183(2) -0.13916(10)
H1A H -0.0836 -0.5843 -0.1393
H2A H 0.0192 -0.4632 -0.1207
O18A O -0.6305(4) -1.0485(2) -0.35846(11)
H3A H -0.7408 -1.0798 -0.3818
H4A H -0.5516 -1.0790 -0.3762
N1A N -0.2918(5) -0.6052(2) -0.34782(12)
N2A N -0.0384(5) 0.0015(2) -0.11900(12)
N3A N -0.9213(5) -0.7795(2) -0.44343(12)
N4A N -0.5711(5) -0.8476(2) -0.19178(12)
N5A N -0.5816(5) -1.0674(3) -0.23290(14)
C1A C -0.3225(5) -0.7192(3) -0.35830(14)
C2A C -0.3962(6) -0.7913(3) -0.41638(15)
H5A H -0.4213 -0.8710 -0.4226
C3A C -0.4308(6) -0.7395(3) -0.46472(15)
H6A H -0.4736 -0.7849 -0.5044
C4A C -0.4021(6) -0.6221(3) -0.45396(15)
H7A H -0.4279 -0.5872 -0.4858
C5A C -0.3333(5) -0.5553(3) -0.39422(14)
C6A C -0.2805(6) -0.7624(3) -0.30205(14)
C7A C -0.3079(6) -0.4266(3) -0.37382(15)
C8A C -0.0659(6) -0.0971(3) -0.16390(14)
C9A C -0.0834(6) -0.0997(3) -0.22669(15)
H8A H -0.1007 -0.1690 -0.2565
C10A C -0.0746(6) 0.0040(3) -0.24396(15)
H9A H -0.0862 0.0051 -0.2857
C11A C -0.0481(6) 0.1058(3) -0.19797(14)
H10A H -0.0409 0.1762 -0.2084
C12A C -0.0327(6) 0.1004(3) -0.13608(14)
C13A C -0.0781(6) -0.2007(3) -0.13874(15)
C14A C -0.0093(6) 0.2036(3) -0.08259(15)
C15A C -0.8380(6) -0.7455(3) -0.38497(14)
C16A C -0.7731(5) -0.6313(3) -0.35467(15)
H11A H -0.7158 -0.6108 -0.3141
C17A C -0.7961(6) -0.5471(3) -0.38704(15)
H12A H -0.7552 -0.4693 -0.3680
C18A C -0.8798(6) -0.5814(3) -0.44713(15)
H13A H -0.8956 -0.5270 -0.4694
C19A C -0.9411(5) -0.6989(3) -0.47461(14)
C20A C -0.8274(6) -0.8450(3) -0.35637(14)
C21A C -1.0471(6) -0.7471(3) -0.53830(14)
C22A C -0.5701(6) -0.7349(3) -0.17578(16)
H14A H -0.5933 -0.6977 -0.2068
C23A C -0.5361(7) -0.6715(3) -0.11500(16)
H15A H -0.5366 -0.5930 -0.1050
C24A C -0.5010(7) -0.7280(4) -0.06904(18)
H16A H -0.4770 -0.6877 -0.0276
C25A C -0.5021(7) -0.8450(4) -0.08574(17)
H17A H -0.4786 -0.8838 -0.0555
C26A C -0.5378(6) -0.9036(3) -0.14706(16)
C27A C -0.5515(6) -1.0287(3) -0.17024(16)
C28A C -0.5437(6) -1.1044(4) -0.13228(18)
H18A H -0.5254 -1.0772 -0.0893
C29A C -0.5637(7) -1.2207(4) -0.1591(2)
H19A H -0.5574 -1.2723 -0.1343
C30A C -0.5929(6) -1.2598(3) -0.2228(2)
H20A H -0.6056 -1.3376 -0.2417
C31A C -0.6028(6) -1.1801(3) -0.25788(18)
H21A H -0.6254 -1.2064 -0.3008
O4A O 0.7547(4) 0.9761(2) 0.51494(10)
U3_2 U -1.0000 -1.0000 -0.5000
O13A_2 O 1.0774(4) 1.0602(2) 0.61376(10)
O15A_2 O 0.9274(4) 1.14234(19) 0.44452(10)
N3A_2 N 1.0787(5) 1.2205(2) 0.55657(12)
O19 O 0.3255(4) 0.1426(2) 0.37539(11)
H22 H 0.3538 0.2108 0.3920
H23 H 0.2477 0.1111 0.3888
O20 O -0.1614(7) 0.3600(3) 0.05719(17)
O21 O -0.2384(7) 0.5239(4) -0.00410(18)
O22? O -0.184(2) 0.5945(10) -0.0372(5)
loop_
_geom_bond_atom_site_label_1
_geom_bond_atom_site_label_2
_geom_bond_site_symmetry_1
_geom_bond_site_symmetry_2
U1 O1 1_555 1_555
U2 O3 1_555 1_555
U3 O4 1_555 1_555
Cu1 O6 1_555 1_555
O2 U1 1_555 1_555
O5 U1 1_555 1_555
O6 C6 1_555 1_555
O7 U1 1_555 1_555
O8 C7 1_555 1_555
O9 U2 1_555 1_555
O10 U1 1_555 1_555
O11 U2 1_555 1_555
O12 C14 1_555 1_555
O13 U3 1_555 1_555
O14 Cu1 1_555 1_555
O15 U3 1_555 1_555
O16 C21 1_555 1_555
O17 U1 1_555 1_555
H1 O17 1_555 1_555
H2 O17 1_555 1_555
O18 Cu1 1_555 1_555
H3 O18 1_555 1_555
H4 O18 1_555 1_555
N1 U1 1_555 1_555
N2 U2 1_555 1_555
N3 U3 1_555 1_555
N4 Cu1 1_555 1_555
N5 Cu1 1_555 1_555
C1 N1 1_555 1_555
C2 C1 1_555 1_555
H5 C2 1_555 1_555
C3 C2 1_555 1_555
H6 C3 1_555 1_555
C4 C3 1_555 1_555
H7 C4 1_555 1_555
C5 N1 1_555 1_555
C6 O5 1_555 1_555
C7 O7 1_555 1_555
C8 N2 1_555 1_555
C9 C8 1_555 1_555
H8 C9 1_555 1_555
C10 C9 1_555 1_555
H9 C10 1_555 1_555
C11 C10 1_555 1_555
H10 C11 1_555 1_555
C12 N2 1_555 1_555
C13 O9 1_555 1_555
C14 O11 1_555 1_555
C15 N3 1_555 1_555
C16 C15 1_555 1_555
H11 C16 1_555 1_555
C17 C16 1_555 1_555
H12 C17 1_555 1_555
C18 C17 1_555 1_555
H13 C18 1_555 1_555
C19 N3 1_555 1_555
C20 O13 1_555 1_555
C21 O15 1_555 1_555
C22 N4 1_555 1_555
H14 C22 1_555 1_555
C23 C22 1_555 1_555
H15 C23 1_555 1_555
C24 C23 1_555 1_555
H16 C24 1_555 1_555
C25 C24 1_555 1_555
H17 C25 1_555 1_555
C26 N4 1_555 1_555
C27 N5 1_555 1_555
C28 C27 1_555 1_555
H18 C28 1_555 1_555
C29 C28 1_555 1_555
H19 C29 1_555 1_555
C30 C29 1_555 1_555
H20 C30 1_555 1_555
C31 N5 1_555 1_555
H21 C31 1_555 1_555
O19 H22 1_555 1_555
H23 O19 1_555 1_555
U1A O1A 1_555 1_555
Cu1A O6A 1_555 1_555
O2A U1A 1_555 1_555
O3A U2 1_555 1_555
O5A U1A 1_555 1_555
O6A C6A 1_555 1_555
O7A U1A 1_555 1_555
O8A C7A 1_555 1_555
O9A U2 1_555 1_555
O10A U1A 1_555 1_555
O11A U2 1_555 1_555
O12A C14A 1_555 1_555
O13A C20A 1_555 1_555
O14A Cu1A 1_555 1_555
O15A C21A 1_555 1_555
O16A C21A 1_555 1_555
O17A U1A 1_555 1_555
H1A O17A 1_555 1_555
H2A O17A 1_555 1_555
O18A Cu1A 1_555 1_555
H3A O18A 1_555 1_555
H4A O18A 1_555 1_555
N1A U1A 1_555 1_555
N2A U2 1_555 1_555
N3A C15A 1_555 1_555
N4A Cu1A 1_555 1_555
N5A Cu1A 1_555 1_555
C1A N1A 1_555 1_555
C2A C1A 1_555 1_555
H5A C2A 1_555 1_555
C3A C2A 1_555 1_555
H6A C3A 1_555 1_555
C4A C3A 1_555 1_555
H7A C4A 1_555 1_555
C5A N1A 1_555 1_555
C6A O5A 1_555 1_555
C7A O7A 1_555 1_555
C8A N2A 1_555 1_555
C9A C8A 1_555 1_555
H8A C9A 1_555 1_555
C10A C9A 1_555 1_555
H9A C10A 1_555 1_555
C11A C10A 1_555 1_555
H10A C11A 1_555 1_555
C12A N2A 1_555 1_555
C13A O9A 1_555 1_555
C14A O11A 1_555 1_555
C15A C16A 1_555 1_555
C16A H11A 1_555 1_555
C17A C16A 1_555 1_555
H12A C17A 1_555 1_555
C18A C17A 1_555 1_555
H13A C18A 1_555 1_555
C19A N3A 1_555 1_555
C20A O14A 1_555 1_555
C21A C19A 1_555 1_555
C22A N4A 1_555 1_555
H14A C22A 1_555 1_555
C23A C22A 1_555 1_555
H15A C23A 1_555 1_555
C24A C23A 1_555 1_555
H16A C24A 1_555 1_555
C25A C24A 1_555 1_555
H17A C25A 1_555 1_555
C26A N4A 1_555 1_555
C27A N5A 1_555 1_555
C28A C27A 1_555 1_555
H18A C28A 1_555 1_555
C29A C28A 1_555 1_555
H19A C29A 1_555 1_555
C30A C29A 1_555 1_555
H20A C30A 1_555 1_555
C31A N5A 1_555 1_555
H21A C31A 1_555 1_555
O4A U3 1_555 1_555
U3_2 O13A 1_555 1_555
O13A_2 U3 1_555 1_555
O15A_2 U3 1_555 1_555
N3A_2 U3 1_555 1_555
O10 C13 1_555 1_555
O14 C20 1_555 1_555
C1 C6 1_555 1_555
C4 C5 1_555 1_555
C5 C7 1_555 1_555
C8 C13 1_555 1_555
C11 C12 1_555 1_555
C12 C14 1_555 1_555
C15 C20 1_555 1_555
C18 C19 1_555 1_555
C19 C21 1_555 1_555
C25 C26 1_555 1_555
C26 C27 1_555 1_555
C30 C31 1_555 1_555
O10A C13A 1_555 1_555
O15A U3_2 1_555 1_555
N3A U3_2 1_555 1_555
C1A C6A 1_555 1_555
C4A C5A 1_555 1_555
C5A C7A 1_555 1_555
C8A C13A 1_555 1_555
C11A C12A 1_555 1_555
C12A C14A 1_555 1_555
C15A C20A 1_555 1_555
C18A C19A 1_555 1_555
C25A C26A 1_555 1_555
C26A C27A 1_555 1_555
C30A C31A 1_555 1_555

#END
