
#######################################################################
#
#                 Cambridge Crystallographic Data Centre
#                                CCDC 
#
#######################################################################
#
# If this CIF has been generated from an entry in the Cambridge 
# Structural Database, then it will include bibliographic, chemical, 
# crystal, experimental, refinement or atomic coordinate data resulting 
# from the CCDC's data processing and validation procedures.
#
#######################################################################

data_PIDHIV
_symmetry_cell_setting           monoclinic
_symmetry_space_group_name_H-M   'P 21/n'
_symmetry_Int_Tables_number      14
_space_group_name_Hall           '-P 2yn'
loop_
_symmetry_equiv_pos_site_id
_symmetry_equiv_pos_as_xyz
1 x,y,z
2 1/2-x,1/2+y,1/2-z
3 -x,-y,-z
4 1/2+x,1/2-y,1/2+z
_cell_length_a                   12.8461(6)
_cell_length_b                   13.7347(7)
_cell_length_c                   13.6634(5)
_cell_angle_alpha                90
_cell_angle_beta                 115.429(3)
_cell_angle_gamma                90
_cell_volume                     2177.18
loop_
_atom_site_label
_atom_site_type_symbol
_atom_site_fract_x
_atom_site_fract_y
_atom_site_fract_z
U1 U 0.490272(14) 0.832321(12) 0.084581(13)
Cu1 Cu 1.07974(5) 0.92896(4) 0.31739(4)
O1 O 0.6043(3) 0.8446(2) 0.0444(3)
O2 O 0.3728(3) 0.8215(2) 0.1210(3)
O3 O 0.6086(3) 0.8367(2) 0.2739(3)
O4 O 0.6255(3) 0.9367(3) 0.4077(3)
O5 O 0.5413(3) 0.9972(2) 0.1459(2)
O6 O 0.6382(3) 1.0777(2) 0.0697(2)
O7 O 1.0494(3) 1.0556(2) 0.3698(2)
O8 O 0.9296(3) 1.1784(2) 0.3518(3)
O9 O 1.0329(3) 0.8553(2) 0.4152(2)
O10 O 0.8939(2) 0.7767(2) 0.4402(2)
O11 O 0.8736(3) 0.9427(2) 0.2304(2)
O12 O 1.2658(3) 0.9245(2) 0.4401(2)
H1 H 1.2982 0.9791 0.4908
H2 H 1.3243 0.9198 0.4205
N1 N 1.1108(3) 0.9897(3) 0.1983(3)
N2 N 1.0940(3) 0.8070(3) 0.2431(3)
C1 C 0.7624(4) 0.9540(3) 0.3339(3)
H3 H 0.8141 0.9755 0.4073
C2 C 0.7390(4) 1.0419(3) 0.2581(3)
H4 H 0.7359 1.1010 0.2970
C3 C 0.8493(4) 1.0432(3) 0.2412(4)
H5 H 0.8320 1.0757 0.1721
C4 C 0.8315(4) 0.8844(3) 0.2946(4)
H6 H 0.7797 0.8341 0.2484
C5 C 0.6577(4) 0.9058(3) 0.3394(4)
C6 C 0.6315(4) 1.0378(3) 0.1487(4)
C7 C 0.9519(4) 1.0955(3) 0.3296(3)
C8 C 0.9290(4) 0.8361(3) 0.3902(4)
C9 C 1.1186(4) 1.0847(4) 0.1817(4)
H7 H 1.1072 1.1287 0.2279
C10 C 1.1428(4) 1.1208(4) 0.0995(4)
H8 H 1.1464 1.1875 0.0895
C11 C 1.1617(4) 1.0547(4) 0.0323(4)
H9 H 1.1793 1.0764 -0.0233
C12 C 1.1540(4) 0.9554(4) 0.0488(4)
H10 H 1.1669 0.9101 0.0048
C13 C 1.1268(4) 0.9252(4) 0.1314(4)
C14 C 1.1122(4) 0.8218(3) 0.1538(4)
C15 C 1.1159(4) 0.7448(4) 0.0909(4)
H11 H 1.1312 0.7554 0.0312
C16 C 1.0964(5) 0.6506(4) 0.1178(4)
H12 H 1.0959 0.5983 0.0744
C17 C 1.0780(4) 0.6355(4) 0.2077(4)
H13 H 1.0652 0.5732 0.2271
C18 C 1.0790(4) 0.7171(4) 0.2703(4)
H14 H 1.0687 0.7077 0.3330
U1A U 1.009728(14) 1.332321(12) 0.415419(13)
U1B U 0.509728(14) 1.167679(12) -0.084581(13)
U1C U 0.990272(14) 0.667679(12) 0.584581(13)
O6B O 0.3618(3) 0.9223(2) -0.0697(2)
O8A O 0.5704(3) 0.6784(2) 0.1482(3)
O10C O 0.3939(2) 0.7233(2) -0.0598(2)
O13 O 0.8101(3) 0.7312(3) 0.0909(3)
H15 H 0.7551 0.7701 0.0500
H16 H 0.7972 0.6851 0.0457
O14 O 0.4003(3) 0.8689(3) 0.3426(3)
H17 H 0.3754 0.8400 0.2837
H18 H 0.4622 0.8851 0.3541
loop_
_geom_bond_atom_site_label_1
_geom_bond_atom_site_label_2
_geom_bond_site_symmetry_1
_geom_bond_site_symmetry_2
U1 O1 1_555 1_555
Cu1 O7 1_555 1_555
O2 U1 1_555 1_555
O3 U1 1_555 1_555
O4 C5 1_555 1_555
O5 U1 1_555 1_555
O6 C6 1_555 1_555
O7 C7 1_555 1_555
O8 C7 1_555 1_555
O9 Cu1 1_555 1_555
O10 C8 1_555 1_555
O11 Cu1 1_555 1_555
O12 Cu1 1_555 1_555
H1 O12 1_555 1_555
H2 O12 1_555 1_555
N1 Cu1 1_555 1_555
N2 Cu1 1_555 1_555
C1 H3 1_555 1_555
C2 C1 1_555 1_555
H4 C2 1_555 1_555
C3 O11 1_555 1_555
H5 C3 1_555 1_555
C4 O11 1_555 1_555
H6 C4 1_555 1_555
C5 O3 1_555 1_555
C6 O5 1_555 1_555
C7 C3 1_555 1_555
C8 O9 1_555 1_555
C9 N1 1_555 1_555
H7 C9 1_555 1_555
C10 C9 1_555 1_555
H8 C10 1_555 1_555
C11 C10 1_555 1_555
H9 C11 1_555 1_555
C12 C11 1_555 1_555
H10 C12 1_555 1_555
C13 N1 1_555 1_555
C14 N2 1_555 1_555
C15 C14 1_555 1_555
H11 C15 1_555 1_555
C16 C15 1_555 1_555
H12 C16 1_555 1_555
C17 C16 1_555 1_555
H13 C17 1_555 1_555
C18 N2 1_555 1_555
H14 C18 1_555 1_555
O13 H15 1_555 1_555
H16 O13 1_555 1_555
O14 H17 1_555 1_555
H18 O14 1_555 1_555
U1A O8 1_555 1_555
U1B O6 1_555 1_555
U1C O10 1_555 1_555
O6B U1 1_555 1_555
O8A U1 1_555 1_555
O10C U1 1_555 1_555
C1 C4 1_555 1_555
C1 C5 1_555 1_555
C2 C3 1_555 1_555
C2 C6 1_555 1_555
C4 C8 1_555 1_555
C12 C13 1_555 1_555
C13 C14 1_555 1_555
C17 C18 1_555 1_555

#END
