
#######################################################################
#
#                 Cambridge Crystallographic Data Centre
#                                CCDC 
#
#######################################################################
#
# If this CIF has been generated from an entry in the Cambridge 
# Structural Database, then it will include bibliographic, chemical, 
# crystal, experimental, refinement or atomic coordinate data resulting 
# from the CCDC's data processing and validation procedures.
#
#######################################################################

data_PIDSAY
_symmetry_cell_setting           monoclinic
_symmetry_space_group_name_H-M   'P 21/n'
_symmetry_Int_Tables_number      14
_space_group_name_Hall           '-P 2yn'
loop_
_symmetry_equiv_pos_site_id
_symmetry_equiv_pos_as_xyz
1 x,y,z
2 1/2-x,1/2+y,1/2-z
3 -x,-y,-z
4 1/2+x,1/2-y,1/2+z
_cell_length_a                   11.093(4)
_cell_length_b                   12.530(4)
_cell_length_c                   12.330(4)
_cell_angle_alpha                90
_cell_angle_beta                 93.515(6)
_cell_angle_gamma                90
_cell_volume                     1710.59
loop_
_atom_site_label
_atom_site_type_symbol
_atom_site_fract_x
_atom_site_fract_y
_atom_site_fract_z
Ag1 Ag 0.113096(19) 0.870541(17) 1.121559(16)
S1 S 0.18048(5) 1.11008(5) 0.99994(5)
F1 F 0.41484(15) 1.10350(17) 1.01398(18)
F2 F 0.32971(18) 0.97384(18) 0.9249(2)
F3 F 0.3370(2) 1.1276(2) 0.85405(18)
O1 O 0.18061(18) 1.04799(17) 1.09713(16)
O2 O 0.1867(2) 1.22175(16) 1.01890(19)
O3 O 0.09563(17) 1.0754(2) 0.91553(17)
O4 O 0.25220(15) 0.98191(14) 1.54105(13)
N1 N 0.1251(2) 0.86682(18) 1.3021(2)
N2 N 0.3528(2) 1.2423(2) 1.49425(19)
C1 C 0.3236(2) 1.0766(3) 0.9457(2)
C2 C 0.1073(2) 0.87294(18) 1.3915(2)
C3 C 0.0779(2) 0.87818(18) 1.5032(2)
C4 C -0.0282(2) 0.8314(2) 1.5348(3)
H1 H -0.0803 0.7974 1.4839
C5 C -0.0552(3) 0.8359(3) 1.6422(3)
H2 H -0.1256 0.8043 1.6640
C6 C 0.0206(3) 0.8866(3) 1.7168(3)
H3 H 0.0014 0.8890 1.7892
C7 C 0.1251(3) 0.9344(2) 1.6864(2)
H4 H 0.1759 0.9694 1.7376
C8 C 0.1536(2) 0.92980(19) 1.5797(2)
C9 C 0.3824(2) 1.1682(2) 1.5402(2)
C10 C 0.4270(2) 1.07634(19) 1.60053(18)
C11 C 0.5409(2) 1.0818(2) 1.6545(2)
H5 H 0.5872 1.1435 1.6510
C12 C 0.5841(2) 0.9955(2) 1.7126(2)
H6 H 0.6598 0.9984 1.7493
C13 C 0.5153(3) 0.9042(2) 1.7168(2)
H7 H 0.5449 0.8463 1.7574
C14 C 0.4041(2) 0.8970(2) 1.6624(2)
H8 H 0.3593 0.8345 1.6648
C15 C 0.3595(2) 0.98403(19) 1.60389(17)
Ag1A Ag 0.386904(19) 1.370541(17) 1.378441(16)
Ag1B Ag -0.113096(19) 1.129459(17) 0.878441(16)
O3B O -0.09563(17) 0.9246(2) 1.08447(17)
N2A N 0.1472(2) 0.7423(2) 1.00575(19)
loop_
_geom_bond_atom_site_label_1
_geom_bond_atom_site_label_2
_geom_bond_site_symmetry_1
_geom_bond_site_symmetry_2
Ag1 O1 1_555 1_555
S1 O1 1_555 1_555
F1 C1 1_555 1_555
F2 C1 1_555 1_555
F3 C1 1_555 1_555
O2 S1 1_555 1_555
O3 S1 1_555 1_555
O4 C8 1_555 1_555
N1 Ag1 1_555 1_555
N2 C9 1_555 1_555
C1 S1 1_555 1_555
C2 N1 1_555 1_555
C3 C2 1_555 1_555
C4 C3 1_555 1_555
H1 C4 1_555 1_555
C5 C4 1_555 1_555
H2 C5 1_555 1_555
C6 C5 1_555 1_555
H3 C6 1_555 1_555
C7 C6 1_555 1_555
H4 C7 1_555 1_555
C8 C3 1_555 1_555
C9 C10 1_555 1_555
C10 C11 1_555 1_555
C11 H5 1_555 1_555
C12 C11 1_555 1_555
H6 C12 1_555 1_555
C13 C12 1_555 1_555
H7 C13 1_555 1_555
C14 C13 1_555 1_555
H8 C14 1_555 1_555
C15 O4 1_555 1_555
Ag1A N2 1_555 1_555
Ag1B O3 1_555 1_555
O3B Ag1 1_555 1_555
N2A Ag1 1_555 1_555
C7 C8 1_555 1_555
C10 C15 1_555 1_555
C14 C15 1_555 1_555

#END
