
#######################################################################
#
#                 Cambridge Crystallographic Data Centre
#                                CCDC 
#
#######################################################################
#
# If this CIF has been generated from an entry in the Cambridge 
# Structural Database, then it will include bibliographic, chemical, 
# crystal, experimental, refinement or atomic coordinate data resulting 
# from the CCDC's data processing and validation procedures.
#
#######################################################################

data_PIDVII
_symmetry_cell_setting           triclinic
_symmetry_space_group_name_H-M   'P -1'
_symmetry_Int_Tables_number      2
_space_group_name_Hall           '-P 1'
loop_
_symmetry_equiv_pos_site_id
_symmetry_equiv_pos_as_xyz
1 x,y,z
2 -x,-y,-z
_cell_length_a                   6.8116(4)
_cell_length_b                   10.0669(6)
_cell_length_c                   12.8482(8)
_cell_angle_alpha                102.7070(10)
_cell_angle_beta                 94.1230(10)
_cell_angle_gamma                97.0470(10)
_cell_volume                     848.491
loop_
_atom_site_label
_atom_site_type_symbol
_atom_site_fract_x
_atom_site_fract_y
_atom_site_fract_z
Cd1 Cd 1.26189(2) 0.017862(18) -0.426706(13)
Cl1 Cl 0.93483(8) -0.15032(6) -0.45483(5)
Cl2 Cl 1.41619(8) -0.17749(6) -0.55096(5)
N1 N 1.4586(3) -0.0064(2) -0.27056(15)
N2 N 1.1677(3) 0.1564(2) -0.26462(16)
C1 C 1.4525(3) 0.0889(2) -0.17889(18)
N3 N 1.7170(3) 0.2286(2) 0.09019(17)
N4 N 1.4004(4) 0.3820(2) 0.10266(17)
C2 C 1.2932(3) 0.1742(2) -0.17470(19)
C3 C 1.5767(4) 0.2104(3) 0.00682(19)
C4 C 1.5913(4) 0.1069(2) -0.08957(19)
C5 C 1.2740(4) 0.2685(3) -0.07958(19)
C6 C 1.0154(4) 0.2274(3) -0.2607(2)
H1 H 0.9279 0.2147 -0.3222
C7 C 1.8553(6) 0.3389(3) 0.2706(2)
H2 H 1.8489 0.2536 0.2945
H3 H 1.9847 0.3558 0.2453
C8 C 1.7458(4) -0.0738(3) -0.1898(2)
H4 H 1.8443 -0.1305 -0.1961
C9 C 1.1114(4) 0.3416(3) -0.0782(2)
H5 H 1.0920 0.4044 -0.0162
C10 C 0.9815(4) 0.3200(3) -0.1684(2)
H6 H 0.8718 0.3667 -0.1681
C11 C 1.5364(5) 0.3978(3) 0.1855(2)
C12 C 1.6982(4) 0.3205(3) 0.1782(2)
C13 C 1.6019(4) -0.0850(3) -0.2749(2)
H7 H 1.6064 -0.1506 -0.3379
C14 C 1.7402(4) 0.0219(3) -0.0966(2)
H8 H 1.8343 0.0304 -0.0385
C15 C 1.4202(4) 0.2890(3) 0.01250(19)
C16 C 1.5145(6) 0.4991(3) 0.2872(2)
H9 H 1.5447 0.5915 0.2764
H10 H 1.3771 0.4865 0.3029
C17 C 1.6451(8) 0.4859(5) 0.3810(3)
H11 H 1.6588 0.5721 0.4344
H12 H 1.5767 0.4157 0.4118
C18 C 1.8386(9) 0.4531(5) 0.3646(3)
H13 H 1.8934 0.4294 0.4288
H14 H 1.9210 0.5352 0.3566
Cd1A Cd 0.73811(2) -0.017862(18) -0.573294(13)
Cd1A_2 Cd 1.73811(2) -0.017862(18) -0.573294(13)
Cl1A Cl 1.06517(8) 0.15032(6) -0.54517(5)
Cl2A Cl 1.58381(8) 0.17749(6) -0.44904(5)
loop_
_geom_bond_atom_site_label_1
_geom_bond_atom_site_label_2
_geom_bond_site_symmetry_1
_geom_bond_site_symmetry_2
Cd1 Cl1 1_555 1_555
Cl1 Cd1A 1_555 1_555
Cl2 Cd1 1_555 1_555
N1 Cd1 1_555 1_555
N2 Cd1 1_555 1_555
C1 N1 1_555 1_555
N3 C3 1_555 1_555
N4 C11 1_555 1_555
C2 N2 1_555 1_555
C3 C4 1_555 1_555
C4 C1 1_555 1_555
C5 C2 1_555 1_555
C6 N2 1_555 1_555
H1 C6 1_555 1_555
C7 H2 1_555 1_555
H3 C7 1_555 1_555
C8 H4 1_555 1_555
C9 C5 1_555 1_555
H5 C9 1_555 1_555
C10 C6 1_555 1_555
H6 C10 1_555 1_555
C11 C12 1_555 1_555
C12 N3 1_555 1_555
C13 N1 1_555 1_555
H7 C13 1_555 1_555
C14 C4 1_555 1_555
H8 C14 1_555 1_555
C15 N4 1_555 1_555
C16 C11 1_555 1_555
H9 C16 1_555 1_555
H10 C16 1_555 1_555
C17 C16 1_555 1_555
H11 C17 1_555 1_555
H12 C17 1_555 1_555
C18 C7 1_555 1_555
H13 C18 1_555 1_555
H14 C18 1_555 1_555
Cd1A Cl1A 1_555 1_555
Cd1A_2 Cl2 1_555 1_555
Cl1A Cd1 1_555 1_555
Cl2A Cd1 1_555 1_555
C1 C2 1_555 1_555
C3 C15 1_555 1_555
C5 C15 1_555 1_555
C7 C12 1_555 1_555
C8 C13 1_555 1_555
C8 C14 1_555 1_555
C9 C10 1_555 1_555
C17 C18 1_555 1_555
Cd1A_2 Cl2A 1_555 1_555

#END
