
#######################################################################
#
#                 Cambridge Crystallographic Data Centre
#                                CCDC 
#
#######################################################################
#
# If this CIF has been generated from an entry in the Cambridge 
# Structural Database, then it will include bibliographic, chemical, 
# crystal, experimental, refinement or atomic coordinate data resulting 
# from the CCDC's data processing and validation procedures.
#
#######################################################################

data_PIDZEI
_symmetry_cell_setting           monoclinic
_symmetry_space_group_name_H-M   'P 21/c'
_symmetry_Int_Tables_number      14
_space_group_name_Hall           '-P 2ybc'
loop_
_symmetry_equiv_pos_site_id
_symmetry_equiv_pos_as_xyz
1 x,y,z
2 -x,1/2+y,1/2-z
3 -x,-y,-z
4 x,1/2-y,1/2+z
_cell_length_a                   17.792(4)
_cell_length_b                   7.9920(16)
_cell_length_c                   8.3590(17)
_cell_angle_alpha                90
_cell_angle_beta                 100.29(3)
_cell_angle_gamma                90
_cell_volume                     1169.48
loop_
_atom_site_label
_atom_site_type_symbol
_atom_site_fract_x
_atom_site_fract_y
_atom_site_fract_z
K1 K 0.09787(5) 0.29832(11) 0.46274(10)
O1 O 0.24818(16) 0.3775(4) 0.5024(3)
O2 O 0.11341(15) 0.4556(3) 0.1794(3)
O3 O 0.05205(16) 0.6977(4) 0.1716(4)
O4 O 0.06474(10) 0.4638(2) 0.7220(2)
H1 H 0.0116 0.4980 0.7058
H2 H 0.0974 0.5605 0.7495
N1 N 0.27039(10) 0.5358(2) 0.2451(2)
C1 C 0.31233(10) 0.4326(2) 0.5746(2)
C2 C 0.34179(10) 0.3983(2) 0.7406(2)
H3 H 0.3131 0.3329 0.7994
C3 C 0.4114(3) 0.4586(7) 0.8173(6)
H4 H 0.4286 0.4325 0.9261
C4 C 0.4568(3) 0.5579(7) 0.7361(6)
H5 H 0.5037 0.5977 0.7896
C5 C 0.4312(2) 0.5953(6) 0.5775(6)
H6 H 0.4615 0.6613 0.5228
C6 C 0.3602(2) 0.5373(5) 0.4926(5)
C7 C 0.3354(2) 0.5822(5) 0.3285(5)
H7 H 0.3672 0.6483 0.2780
C8 C 0.2400(2) 0.5883(6) 0.0790(5)
H8 H 0.2270 0.4906 0.0108
H9 H 0.2783 0.6517 0.0359
C9 C 0.1697(2) 0.6948(5) 0.0771(5)
H10 H 0.1498 0.7274 -0.0342
H11 H 0.1843 0.7960 0.1389
C10 C 0.1065(2) 0.6081(5) 0.1470(4)
K1C K 0.09787(5) 0.20168(11) -0.03726(10)
K1A K -0.09787(5) 0.79832(11) 0.03726(10)
K1C_2 K 0.09787(5) 0.20168(11) 0.96274(10)
O2C O 0.11341(15) 0.0444(3) 0.6794(3)
O3A O -0.05205(16) 0.1977(4) 0.3284(4)
O4C O 0.06474(10) 0.0362(2) 0.2220(2)
H1C H 0.0116 0.0020 0.2058
H2C H 0.0974 -0.0605 0.2495
loop_
_geom_bond_atom_site_label_1
_geom_bond_atom_site_label_2
_geom_bond_site_symmetry_1
_geom_bond_site_symmetry_2
K1 O1 1_555 1_555
O1 C1 1_555 1_555
O2 K1 1_555 1_555
O3 C10 1_555 1_555
O4 K1 1_555 1_555
H1 O4 1_555 1_555
H2 O4 1_555 1_555
N1 C7 1_555 1_555
C1 C2 1_555 1_555
C2 H3 1_555 1_555
C3 C2 1_555 1_555
H4 C3 1_555 1_555
C4 C3 1_555 1_555
H5 C4 1_555 1_555
C5 C4 1_555 1_555
H6 C5 1_555 1_555
C6 C1 1_555 1_555
C7 C6 1_555 1_555
H7 C7 1_555 1_555
C8 N1 1_555 1_555
H8 C8 1_555 1_555
H9 C8 1_555 1_555
C9 C8 1_555 1_555
H10 C9 1_555 1_555
H11 C9 1_555 1_555
C10 O2 1_555 1_555
K1C O2 1_555 1_555
K1A O3 1_555 1_555
K1C_2 O4 1_555 1_555
O2C K1 1_555 1_555
O3A K1 1_555 1_555
O4C K1 1_555 1_555
H1C O4C 1_555 1_555
H2C O4C 1_555 1_555
C5 C6 1_555 1_555
C9 C10 1_555 1_555
K1C O4C 1_555 1_555
K1C_2 O2C 1_555 1_555

#END
