
#######################################################################
#
#                 Cambridge Crystallographic Data Centre
#                                CCDC 
#
#######################################################################
#
# If this CIF has been generated from an entry in the Cambridge 
# Structural Database, then it will include bibliographic, chemical, 
# crystal, experimental, refinement or atomic coordinate data resulting 
# from the CCDC's data processing and validation procedures.
#
#######################################################################

data_PIFBIQ
_symmetry_cell_setting           monoclinic
_symmetry_space_group_name_H-M   'P 21/c'
_symmetry_Int_Tables_number      14
_space_group_name_Hall           '-P 2ybc'
loop_
_symmetry_equiv_pos_site_id
_symmetry_equiv_pos_as_xyz
1 x,y,z
2 -x,1/2+y,1/2-z
3 -x,-y,-z
4 x,1/2-y,1/2+z
_cell_length_a                   6.528(2)
_cell_length_b                   19.009(7)
_cell_length_c                   11.493(5)
_cell_angle_alpha                90
_cell_angle_beta                 92.345(16)
_cell_angle_gamma                90
_cell_volume                     1424.98
loop_
_atom_site_label
_atom_site_type_symbol
_atom_site_fract_x
_atom_site_fract_y
_atom_site_fract_z
Ba1 Ba 0.47288(7) 0.509334(19) 0.70287(3)
O1 O 0.3262(9) 0.6462(3) 0.6174(4)
O2 O 0.7920(9) 0.6889(3) 0.5418(5)
O3 O 0.2413(9) 0.7701(3) 0.6380(4)
H1 H 0.274(14) 0.7284(16) 0.635(8)
O4 O 0.8426(9) 0.4428(3) 0.7756(5)
H2 H 0.9294 0.4718 0.8057
H3 H 0.8047 0.4132 0.8252
O5 O 0.7066(10) 0.8125(3) 0.5495(5)
H4 H 0.753(16) 0.772(2) 0.547(9)
O6 O 0.4084(9) 0.5743(3) 0.4768(5)
O7 O 0.1134(9) 0.4539(3) 0.5822(5)
H5 H 0.0160 0.4519 0.6282
H6 H 0.1340 0.4134 0.5537
O8 O 0.8027(9) 0.5993(3) 0.6645(6)
O9 O 0.1832(10) 0.8608(3) 0.5241(5)
O10 O 0.6423(11) 0.8908(3) 0.6838(6)
O11 O 0.6097(14) 0.5537(4) 0.9264(6)
H7 H 0.6183 0.5977 0.9425
H8 H 0.6441 0.5239 0.9787
O12 O 0.1388(10) 0.5530(4) 0.8273(7)
H9 H 0.0642 0.5730 0.7799
H10 H 0.1291 0.5763 0.8917
C1 C 0.3473(11) 0.6326(3) 0.5099(6)
C2 C 0.3023(11) 0.6874(4) 0.4190(6)
H11 H 0.3095 0.6718 0.3426
C3 C 0.2538(11) 0.7545(4) 0.4304(6)
H12 H 0.2368 0.7788 0.3605
C4 C 0.2220(11) 0.7978(4) 0.5357(6)
C5 C 0.6950(11) 0.8314(4) 0.6570(7)
C6 C 0.7440(13) 0.7799(4) 0.7512(6)
H13 H 0.7497 0.7988 0.8259
C7 C 0.7923(10) 0.6635(4) 0.6442(7)
C8 C 0.7810(12) 0.7113(4) 0.7462(6)
H14 H 0.8036 0.6897 0.8181
Ba1B Ba 0.52712(7) 0.490666(19) 0.29713(3)
Ba1A Ba 0.52712(7) 1.009334(19) 0.79713(3)
O6B O 0.5916(9) 0.4257(3) 0.5232(5)
O10A O 0.3577(11) 0.3908(3) 0.8162(6)
loop_
_geom_bond_atom_site_label_1
_geom_bond_atom_site_label_2
_geom_bond_site_symmetry_1
_geom_bond_site_symmetry_2
Ba1 O1 1_555 1_555
O1 C1 1_555 1_555
O2 C7 1_555 1_555
O3 H1 1_555 1_555
O4 Ba1 1_555 1_555
H2 O4 1_555 1_555
H3 O4 1_555 1_555
O5 H4 1_555 1_555
O6 Ba1 1_555 1_555
O7 Ba1 1_555 1_555
H5 O7 1_555 1_555
H6 O7 1_555 1_555
O8 Ba1 1_555 1_555
O9 C4 1_555 1_555
O10 C5 1_555 1_555
O11 Ba1 1_555 1_555
H7 O11 1_555 1_555
H8 O11 1_555 1_555
O12 Ba1 1_555 1_555
H9 O12 1_555 1_555
H10 O12 1_555 1_555
C1 O6 1_555 1_555
C2 C1 1_555 1_555
H11 C2 1_555 1_555
C3 C2 1_555 1_555
H12 C3 1_555 1_555
C4 O3 1_555 1_555
C5 O5 1_555 1_555
C6 C5 1_555 1_555
H13 C6 1_555 1_555
C7 O8 1_555 1_555
C8 C6 1_555 1_555
H14 C8 1_555 1_555
Ba1B O6 1_555 1_555
Ba1A O10 1_555 1_555
O6B Ba1 1_555 1_555
O10A Ba1 1_555 1_555
C3 C4 1_555 1_555
C7 C8 1_555 1_555
Ba1B O6B 1_555 1_555

#END
