
#######################################################################
#
#                 Cambridge Crystallographic Data Centre
#                                CCDC 
#
#######################################################################
#
# If this CIF has been generated from an entry in the Cambridge 
# Structural Database, then it will include bibliographic, chemical, 
# crystal, experimental, refinement or atomic coordinate data resulting 
# from the CCDC's data processing and validation procedures.
#
#######################################################################

data_PIFCUD
_symmetry_cell_setting           monoclinic
_symmetry_space_group_name_H-M   'P 21/c'
_symmetry_Int_Tables_number      14
_space_group_name_Hall           '-P 2ybc'
loop_
_symmetry_equiv_pos_site_id
_symmetry_equiv_pos_as_xyz
1 x,y,z
2 -x,1/2+y,1/2-z
3 -x,-y,-z
4 x,1/2-y,1/2+z
_cell_length_a                   8.6632(17)
_cell_length_b                   17.239(3)
_cell_length_c                   13.789(3)
_cell_angle_alpha                90
_cell_angle_beta                 93.11(3)
_cell_angle_gamma                90
_cell_volume                     2056.28
loop_
_atom_site_label
_atom_site_type_symbol
_atom_site_fract_x
_atom_site_fract_y
_atom_site_fract_z
C1 C 0.9861(4) 0.11829(16) -0.1790(2)
C2 C 1.0868(4) 0.11463(17) -0.0946(2)
C3 C 1.2453(4) 0.12822(18) -0.1037(3)
C4 C 1.2984(4) 0.14376(19) -0.1950(3)
H1 H 1.4037 0.1519 -0.2007
C5 C 1.2009(4) 0.14763(19) -0.2781(3)
C6 C 1.0449(4) 0.13536(17) -0.2681(2)
H2 H 0.9774 0.1387 -0.3227
C7 C 1.2654(6) 0.1640(3) -0.3765(3)
H3 H 1.3622 0.1909 -0.3673
H4 H 1.1936 0.1956 -0.4145
H5 H 1.2813 0.1160 -0.4097
C8 C 1.3569(4) 0.1259(2) -0.0155(3)
H6 H 1.3278 0.1644 0.0304
H7 H 1.4596 0.1364 -0.0348
H8 H 1.3540 0.0755 0.0139
C9 C 0.8492(4) 0.4065(2) -0.0186(3)
H9 H 0.8031 0.4318 0.0319
C10 C 0.9120(4) 0.4412(2) -0.0942(3)
H10 H 0.9167 0.4943 -0.1054
C11 C 0.9353(4) 0.31738(19) -0.1079(3)
H11 H 0.9606 0.2688 -0.1318
C12 C 1.6619(4) 0.4174(2) -0.3511(3)
H12 H 1.6945 0.4486 -0.4010
C13 C 1.5835(4) 0.4420(2) -0.2745(3)
H13 H 1.5521 0.4925 -0.2626
C14 C 1.6224(4) 0.3181(2) -0.2624(3)
H14 H 1.6216 0.2676 -0.2387
C15 C 1.0521(4) 0.3934(2) -0.2395(3)
H15 H 1.0006 0.3639 -0.2917
H16 H 1.0506 0.4476 -0.2586
C16 C 1.2177(4) 0.3666(2) -0.2258(3)
H17 H 1.2674 0.3732 -0.2867
H18 H 1.2181 0.3116 -0.2109
C17 C 1.3117(4) 0.4083(3) -0.1473(3)
H19 H 1.3181 0.4627 -0.1645
H20 H 1.2584 0.4049 -0.0873
C18 C 1.4740(4) 0.3769(3) -0.1294(3)
H21 H 1.4690 0.3239 -0.1061
H22 H 1.5285 0.4077 -0.0795
N1 N 1.0317(5) 0.1013(2) -0.0026(2)
N2 N 0.9674(3) 0.38435(15) -0.1516(2)
N3 N 0.8640(3) 0.32823(17) -0.0279(2)
N4 N 1.6856(3) 0.33897(17) -0.3433(2)
N5 N 1.5597(3) 0.37879(17) -0.2186(2)
O1 O 0.7257(3) 0.16763(13) -0.1191(2)
O2 O 0.7185(3) 0.09931(16) -0.2709(2)
O3 O 0.7705(3) 0.02929(13) -0.1206(2)
S1 S 0.78366(10) 0.10201(5) -0.17196(7)
Ag1 Ag 0.78216(4) 0.23648(2) 0.05684(3)
H23 H 0.945(5) 0.081(2) -0.003(3)
H24 H 1.101(4) 0.079(2) 0.041(3)
N4C N 0.6856(3) 0.16103(17) 0.1567(2)
Ag1C Ag 1.78216(4) 0.26352(2) -0.44316(3)
loop_
_geom_bond_atom_site_label_1
_geom_bond_atom_site_label_2
_geom_bond_site_symmetry_1
_geom_bond_site_symmetry_2
C1 C2 1_555 1_555
C2 C3 1_555 1_555
C3 C4 1_555 1_555
C4 H1 1_555 1_555
C5 C4 1_555 1_555
C6 C1 1_555 1_555
H2 C6 1_555 1_555
C7 C5 1_555 1_555
H3 C7 1_555 1_555
H4 C7 1_555 1_555
H5 C7 1_555 1_555
C8 C3 1_555 1_555
H6 C8 1_555 1_555
H7 C8 1_555 1_555
H8 C8 1_555 1_555
C9 H9 1_555 1_555
C10 C9 1_555 1_555
H10 C10 1_555 1_555
C11 H11 1_555 1_555
C12 H12 1_555 1_555
C13 C12 1_555 1_555
H13 C13 1_555 1_555
C14 H14 1_555 1_555
C15 H15 1_555 1_555
H16 C15 1_555 1_555
C16 C15 1_555 1_555
H17 C16 1_555 1_555
H18 C16 1_555 1_555
C17 C16 1_555 1_555
H19 C17 1_555 1_555
H20 C17 1_555 1_555
C18 C17 1_555 1_555
H21 C18 1_555 1_555
H22 C18 1_555 1_555
N1 C2 1_555 1_555
N2 C10 1_555 1_555
N3 C9 1_555 1_555
N4 C12 1_555 1_555
N5 C13 1_555 1_555
O1 S1 1_555 1_555
O2 S1 1_555 1_555
O3 S1 1_555 1_555
S1 C1 1_555 1_555
Ag1 N3 1_555 1_555
H23 N1 1_555 1_555
H24 N1 1_555 1_555
N4C Ag1 1_555 1_555
Ag1C N4 1_555 1_555
C5 C6 1_555 1_555
C11 N2 1_555 1_555
C11 N3 1_555 1_555
C14 N4 1_555 1_555
C14 N5 1_555 1_555
C15 N2 1_555 1_555
C18 N5 1_555 1_555
O1 Ag1 1_555 1_555

#END
