
#######################################################################
#
#                 Cambridge Crystallographic Data Centre
#                                CCDC 
#
#######################################################################
#
# If this CIF has been generated from an entry in the Cambridge 
# Structural Database, then it will include bibliographic, chemical, 
# crystal, experimental, refinement or atomic coordinate data resulting 
# from the CCDC's data processing and validation procedures.
#
#######################################################################

data_PIFDOY
_symmetry_cell_setting           orthorhombic
_symmetry_space_group_name_H-M   'P 21 21 21'
_symmetry_Int_Tables_number      19
_space_group_name_Hall           'P 2ac 2ab'
loop_
_symmetry_equiv_pos_site_id
_symmetry_equiv_pos_as_xyz
1 x,y,z
2 1/2-x,-y,1/2+z
3 -x,1/2+y,1/2-z
4 1/2+x,1/2-y,-z
_cell_length_a                   5.7040(10)
_cell_length_b                   6.8190(10)
_cell_length_c                   24.823(4)
_cell_angle_alpha                90
_cell_angle_beta                 90
_cell_angle_gamma                90
_cell_volume                     965.505
loop_
_atom_site_label
_atom_site_type_symbol
_atom_site_fract_x
_atom_site_fract_y
_atom_site_fract_z
C1 C 0.3284(6) 0.4129(4) -0.12770(12)
H1 H 0.4965 0.4423 -0.1264
C2 C 0.2723(9) 0.3424(5) -0.18417(11)
H2 H 0.1097 0.3011 -0.1858
H3 H 0.3698 0.2301 -0.1928
C3 C 0.3145(9) 0.5042(6) -0.22536(13)
H4 H 0.4810 0.5325 -0.2272
H5 H 0.2647 0.4593 -0.2606
C4 C 0.1835(8) 0.6890(6) -0.21115(13)
H6 H 0.0163 0.6647 -0.2135
H7 H 0.2227 0.7909 -0.2369
C5 C 0.2436(8) 0.7590(4) -0.15455(11)
H8 H 0.4074 0.7969 -0.1531
H9 H 0.1496 0.8732 -0.1458
C6 C 0.1980(5) 0.5989(4) -0.11358(12)
H10 H 0.0300 0.5690 -0.1146
Cl1 Cl 0.26572(14) 0.09330(9) 0.02474(3)
Cl2 Cl 0.26008(16) 0.55471(10) 0.06844(3)
Cu1 Cu 0.26675(7) 0.40155(4) -0.013331(12)
N1 N 0.2789(6) 0.2686(3) -0.08535(8)
H11 H 0.3915 0.1761 -0.0852
H12 H 0.1408 0.2095 -0.0920
N2 N 0.2584(6) 0.6497(3) -0.05747(9)
H13 H 0.1508 0.7327 -0.0439
H14 H 0.3992 0.7091 -0.0564
Cl1C Cl -0.23428(14) 0.40670(9) -0.02474(3)
Cl1C_2 Cl 0.76572(14) 0.40670(9) -0.02474(3)
Cu1C Cu -0.23325(7) 0.09845(4) 0.013331(12)
Cu1C_2 Cu 0.76675(7) 0.09845(4) 0.013331(12)
loop_
_geom_bond_atom_site_label_1
_geom_bond_atom_site_label_2
_geom_bond_site_symmetry_1
_geom_bond_site_symmetry_2
C1 H1 1_555 1_555
C2 C1 1_555 1_555
H2 C2 1_555 1_555
H3 C2 1_555 1_555
C3 C2 1_555 1_555
H4 C3 1_555 1_555
H5 C3 1_555 1_555
C4 C3 1_555 1_555
H6 C4 1_555 1_555
H7 C4 1_555 1_555
C5 C4 1_555 1_555
H8 C5 1_555 1_555
H9 C5 1_555 1_555
C6 C1 1_555 1_555
H10 C6 1_555 1_555
Cl1 Cu1 1_555 1_555
Cl2 Cu1 1_555 1_555
Cu1 N1 1_555 1_555
N1 C1 1_555 1_555
H11 N1 1_555 1_555
H12 N1 1_555 1_555
N2 C6 1_555 1_555
H13 N2 1_555 1_555
H14 N2 1_555 1_555
Cl1C Cu1 1_555 1_555
Cl1C_2 Cu1 1_555 1_555
Cu1C Cl1 1_555 1_555
Cu1C_2 Cl1 1_555 1_555
C5 C6 1_555 1_555
Cu1 N2 1_555 1_555
Cl1C Cu1C 1_555 1_555
Cl1C_2 Cu1C_2 1_555 1_555

#END
