
#######################################################################
#
#                 Cambridge Crystallographic Data Centre
#                                CCDC 
#
#######################################################################
#
# If this CIF has been generated from an entry in the Cambridge 
# Structural Database, then it will include bibliographic, chemical, 
# crystal, experimental, refinement or atomic coordinate data resulting 
# from the CCDC's data processing and validation procedures.
#
#######################################################################

data_PIFFAM
_symmetry_cell_setting           orthorhombic
_symmetry_space_group_name_H-M   'P b c a'
_symmetry_Int_Tables_number      61
_space_group_name_Hall           '-P 2ac 2ab'
loop_
_symmetry_equiv_pos_site_id
_symmetry_equiv_pos_as_xyz
1 x,y,z
2 1/2-x,-y,1/2+z
3 -x,1/2+y,1/2-z
4 1/2+x,1/2-y,-z
5 -x,-y,-z
6 1/2+x,y,1/2-z
7 x,1/2-y,1/2+z
8 1/2-x,1/2+y,z
_cell_length_a                   8.2054(16)
_cell_length_b                   9.1736(18)
_cell_length_c                   17.846(4)
_cell_angle_alpha                90
_cell_angle_beta                 90
_cell_angle_gamma                90
_cell_volume                     1343.32
loop_
_atom_site_label
_atom_site_type_symbol
_atom_site_fract_x
_atom_site_fract_y
_atom_site_fract_z
Ni1 Ni 0.0000 0.5000 0.5000
N1 N -0.1491(3) 0.3232(3) 0.48286(15)
C1 C -0.0291(4) 0.3372(3) 0.35937(19)
N2 N 0.0456(3) 0.4562(3) 0.38656(15)
N3 N -0.0129(3) 0.2818(3) 0.29133(16)
C2 C 0.1446(4) 0.5280(3) 0.3397(2)
H1 H 0.1993 0.6105 0.3565
C3 C -0.1385(4) 0.2677(3) 0.41376(17)
C4 C 0.1666(4) 0.4812(4) 0.2669(2)
H2 H 0.2334 0.5320 0.2338
N4 N -0.2581(3) 0.2430(3) 0.51904(14)
N5 N -0.2388(3) 0.1549(3) 0.40478(15)
C5 C 0.0857(4) 0.3563(4) 0.2450(2)
H3 H 0.1000 0.3225 0.1963
N6 N -0.3114(3) 0.1428(3) 0.47178(16)
Ni1G Ni -0.5000 0.0000 0.5000
Ni1G_2 Ni 0.5000 1.0000 0.5000
N1D N 0.1491(3) 0.6768(3) 0.51714(15)
C1D C 0.0291(4) 0.6628(3) 0.64063(19)
N2D N -0.0456(3) 0.5438(3) 0.61344(15)
N3D N 0.0129(3) 0.7182(3) 0.70867(16)
C2D C -0.1446(4) 0.4720(3) 0.6603(2)
H1D H -0.1993 0.3895 0.6435
C3D C 0.1385(4) 0.7323(3) 0.58624(17)
C4D C -0.1666(4) 0.5188(4) 0.7331(2)
H2D H -0.2334 0.4680 0.7662
N4D N 0.2581(3) 0.7570(3) 0.48096(14)
N5D N 0.2388(3) 0.8451(3) 0.59522(15)
C5D C -0.0857(4) 0.6437(4) 0.7550(2)
H3D H -0.1000 0.6775 0.8037
N6D N 0.3114(3) 0.8572(3) 0.52822(16)
N6G N -0.1886(3) 0.6428(3) 0.47178(16)
N6C N 0.1886(3) 0.3572(3) 0.52822(16)
loop_
_geom_bond_atom_site_label_1
_geom_bond_atom_site_label_2
_geom_bond_site_symmetry_1
_geom_bond_site_symmetry_2
Ni1 N1 1_555 1_555
N1 C3 1_555 1_555
C1 N2 1_555 1_555
N2 Ni1 1_555 1_555
N3 C1 1_555 1_555
C2 N2 1_555 1_555
H1 C2 1_555 1_555
C3 C1 1_555 1_555
C4 C2 1_555 1_555
H2 C4 1_555 1_555
N4 N1 1_555 1_555
N5 C3 1_555 1_555
C5 N3 1_555 1_555
H3 C5 1_555 1_555
N6 N4 1_555 1_555
Ni1G N6 1_555 1_555
Ni1G_2 N6D 1_555 1_555
N1D Ni1 1_555 1_555
C1D N2D 1_555 1_555
N2D Ni1 1_555 1_555
N3D C1D 1_555 1_555
C2D N2D 1_555 1_555
H1D C2D 1_555 1_555
C3D N1D 1_555 1_555
C4D C2D 1_555 1_555
H2D C4D 1_555 1_555
N4D N1D 1_555 1_555
N5D C3D 1_555 1_555
C5D N3D 1_555 1_555
H3D C5D 1_555 1_555
N6D N4D 1_555 1_555
N6G Ni1 1_555 1_555
N6C Ni1 1_555 1_555
C4 C5 1_555 1_555
N5 N6 1_555 1_555
C1D C3D 1_555 1_555
C4D C5D 1_555 1_555
N5D N6D 1_555 1_555

#END
