
#######################################################################
#
#                 Cambridge Crystallographic Data Centre
#                                CCDC 
#
#######################################################################
#
# If this CIF has been generated from an entry in the Cambridge 
# Structural Database, then it will include bibliographic, chemical, 
# crystal, experimental, refinement or atomic coordinate data resulting 
# from the CCDC's data processing and validation procedures.
#
#######################################################################

data_PIFFUG
_symmetry_cell_setting           orthorhombic
_symmetry_space_group_name_H-M   'P b c a'
_symmetry_Int_Tables_number      61
_space_group_name_Hall           '-P 2ac 2ab'
loop_
_symmetry_equiv_pos_site_id
_symmetry_equiv_pos_as_xyz
1 x,y,z
2 1/2-x,-y,1/2+z
3 -x,1/2+y,1/2-z
4 1/2+x,1/2-y,-z
5 -x,-y,-z
6 1/2+x,y,1/2-z
7 x,1/2-y,1/2+z
8 1/2-x,1/2+y,z
_cell_length_a                   11.964(2)
_cell_length_b                   7.7882(16)
_cell_length_c                   33.893(7)
_cell_angle_alpha                90
_cell_angle_beta                 90
_cell_angle_gamma                90
_cell_volume                     3158.08
loop_
_atom_site_label
_atom_site_type_symbol
_atom_site_fract_x
_atom_site_fract_y
_atom_site_fract_z
Cd1 Cd 0.903474(16) 0.23166(3) 0.448614(5)
O1 O 0.75857(17) 0.2302(3) 0.50006(5)
O2 O 0.93525(17) 0.2420(3) 0.51741(6)
O3 O 0.60334(16) 0.2867(4) 0.54931(6)
H1 H 0.635(4) 0.265(5) 0.5293(14)
O4 O 0.69862(19) 0.4547(4) 0.67789(7)
H2 H 0.7529 0.4701 0.6922
O5 O 0.74055(18) 0.2508(3) 0.40614(6)
O6 O 0.90716(16) 0.2860(3) 0.38111(6)
O7 O 0.93668(17) 0.3721(4) 0.30975(6)
H3 H 0.9543 0.3431 0.3322
O8 O 0.62706(19) 0.4682(4) 0.22892(7)
H4 H 0.5632 0.4326 0.2256
O9 O 0.91561(19) -0.0476(3) 0.44064(8)
H5 H 0.9608(19) -0.100(3) 0.4540(8)
H6 H 0.871(2) -0.113(3) 0.4305(9)
O10 O 0.8982(2) 0.5205(3) 0.45687(8)
H7 H 0.949(2) 0.571(4) 0.4677(8)
H8 H 0.886(3) 0.551(4) 0.4348(4)
C1 C 0.8319(2) 0.2536(3) 0.52658(8)
C2 C 0.7975(2) 0.3003(4) 0.56677(7)
C3 C 0.6847(2) 0.3185(4) 0.57667(7)
C4 C 0.6530(2) 0.3707(4) 0.61387(8)
H9 H 0.5778 0.3843 0.6200
C5 C 0.7336(2) 0.4025(4) 0.64192(8)
C6 C 0.8462(2) 0.3834(5) 0.63318(8)
H10 H 0.9002 0.4036 0.6524
C7 C 0.8769(2) 0.3343(5) 0.59590(9)
H11 H 0.9524 0.3234 0.5899
C8 C 0.8016(2) 0.2865(4) 0.37699(8)
C9 C 0.7541(2) 0.3296(4) 0.33825(8)
C10 C 0.8238(2) 0.3718(4) 0.30639(8)
C11 C 0.7786(2) 0.4173(5) 0.27043(8)
H12 H 0.8254 0.4477 0.2497
C12 C 0.6648(3) 0.4178(5) 0.26516(9)
C13 C 0.5936(2) 0.3759(6) 0.29596(10)
H13 H 0.5165 0.3771 0.2924
C14 C 0.6393(2) 0.3325(5) 0.33174(9)
H14 H 0.5917 0.3038 0.3524
Cd1C Cd 0.403474(16) 0.26834(3) 0.551386(5)
O3C O 1.10334(16) 0.2133(4) 0.45069(6)
H1C H 1.135(4) 0.235(5) 0.4707(14)
loop_
_geom_bond_atom_site_label_1
_geom_bond_atom_site_label_2
_geom_bond_site_symmetry_1
_geom_bond_site_symmetry_2
Cd1 O1 1_555 1_555
O1 C1 1_555 1_555
O2 Cd1 1_555 1_555
O3 H1 1_555 1_555
O4 H2 1_555 1_555
O5 Cd1 1_555 1_555
O6 Cd1 1_555 1_555
O7 H3 1_555 1_555
O8 H4 1_555 1_555
O9 Cd1 1_555 1_555
H5 O9 1_555 1_555
H6 O9 1_555 1_555
O10 Cd1 1_555 1_555
H7 O10 1_555 1_555
H8 O10 1_555 1_555
C1 O2 1_555 1_555
C2 C1 1_555 1_555
C3 O3 1_555 1_555
C4 C3 1_555 1_555
H9 C4 1_555 1_555
C5 O4 1_555 1_555
C6 C5 1_555 1_555
H10 C6 1_555 1_555
C7 C2 1_555 1_555
H11 C7 1_555 1_555
C8 O5 1_555 1_555
C9 C8 1_555 1_555
C10 O7 1_555 1_555
C11 C10 1_555 1_555
H12 C11 1_555 1_555
C12 O8 1_555 1_555
C13 C12 1_555 1_555
H13 C13 1_555 1_555
C14 C9 1_555 1_555
H14 C14 1_555 1_555
Cd1C O3 1_555 1_555
O3C Cd1 1_555 1_555
H1C O3C 1_555 1_555
O6 C8 1_555 1_555
C2 C3 1_555 1_555
C4 C5 1_555 1_555
C6 C7 1_555 1_555
C9 C10 1_555 1_555
C11 C12 1_555 1_555
C13 C14 1_555 1_555

#END
