
#######################################################################
#
#                 Cambridge Crystallographic Data Centre
#                                CCDC 
#
#######################################################################
#
# If this CIF has been generated from an entry in the Cambridge 
# Structural Database, then it will include bibliographic, chemical, 
# crystal, experimental, refinement or atomic coordinate data resulting 
# from the CCDC's data processing and validation procedures.
#
#######################################################################

data_PIFRAY
_symmetry_cell_setting           monoclinic
_symmetry_space_group_name_H-M   'P 21/n'
_symmetry_Int_Tables_number      14
_space_group_name_Hall           '-P 2yn'
loop_
_symmetry_equiv_pos_site_id
_symmetry_equiv_pos_as_xyz
1 x,y,z
2 1/2-x,1/2+y,1/2-z
3 -x,-y,-z
4 1/2+x,1/2-y,1/2+z
_cell_length_a                   12.8579(11)
_cell_length_b                   14.7460(13)
_cell_length_c                   13.8823(12)
_cell_angle_alpha                90
_cell_angle_beta                 98.669(2)
_cell_angle_gamma                90
_cell_volume                     2602.05
loop_
_atom_site_label
_atom_site_type_symbol
_atom_site_fract_x
_atom_site_fract_y
_atom_site_fract_z
Cu1 Cu 0.43013(5) 0.22090(5) 0.37125(4)
Cl1 Cl 0.34572(12) 0.08249(11) 0.38971(12)
N1 N 0.3677(4) 0.2312(3) 0.2315(3)
Cl2 Cl 0.58188(12) 0.28628(13) 0.33467(13)
C1 C 0.3516(4) 0.3066(4) 0.1791(4)
N2 N 0.3184(4) 0.2849(4) 0.0846(3)
C2 C 0.3153(5) 0.1926(5) 0.0775(4)
H1 H 0.2962 0.1589 0.0210
C3 C 0.3451(5) 0.1594(5) 0.1682(4)
H2 H 0.3497 0.0983 0.1850
C4 C 0.3658(5) 0.3995(4) 0.2164(4)
H3 H 0.3740 0.3986 0.2863
H4 H 0.3053 0.4352 0.1913
H5 H 0.4274 0.4255 0.1960
C5 C 0.2912(5) 0.3465(5) 0.0023(4)
H6 H 0.2872 0.4080 0.0264
H7 H 0.2225 0.3305 -0.0325
C6 C 0.3715(4) 0.3425(5) -0.0669(4)
C7 C 0.4710(5) 0.3789(5) -0.0421(4)
H8 H 0.4889 0.4083 0.0174
C8 C 0.5441(5) 0.3719(5) -0.1054(4)
H9 H 0.6107 0.3967 -0.0876
C9 C 0.5207(4) 0.3292(5) -0.1938(4)
C10 C 0.4219(5) 0.2946(5) -0.2183(5)
H10 H 0.4040 0.2664 -0.2785
C11 C 0.3471(5) 0.3004(5) -0.1558(4)
H11 H 0.2805 0.2757 -0.1742
C12 C 0.6048(5) 0.3220(5) -0.2582(4)
H12 H 0.6222 0.3824 -0.2785
H13 H 0.6677 0.2961 -0.2210
N3 N 0.5724(4) 0.2661(4) -0.3450(3)
C13 C 0.5200(4) 0.2938(4) -0.4317(4)
N4 N 0.4930(4) 0.2222(3) -0.4880(3)
C14 C 0.5310(4) 0.1472(4) -0.4355(4)
H14 H 0.5249 0.0875 -0.4573
C15 C 0.5783(4) 0.1745(5) -0.3476(4)
H15 H 0.6095 0.1372 -0.2974
C16 C 0.4987(6) 0.3896(5) -0.4572(5)
H16 H 0.5640 0.4210 -0.4576
H17 H 0.4610 0.4169 -0.4100
H18 H 0.4572 0.3933 -0.5206
O1 O 0.2920(4) 0.3121(3) 0.4048(3)
C17 C 0.2459(7) 0.2944(6) 0.4714(6)
H19 H 0.2709 0.2446 0.5091
N5 N 0.1645(6) 0.3364(6) 0.4979(5)
C18 C 0.1203(9) 0.4091(7) 0.4375(8)
H20 H 0.1642 0.4618 0.4496
H21 H 0.0512 0.4226 0.4518
H22 H 0.1157 0.3918 0.3703
C19 C 0.1172(8) 0.3088(7) 0.5837(7)
H23 H 0.1440 0.2504 0.6058
H24 H 0.0422 0.3056 0.5665
H25 H 0.1348 0.3525 0.6349
Cu1_2 Cu 0.43013(5) 0.22090(5) -0.62875(4)
N4_2 N 0.4930(4) 0.2222(3) 0.5120(3)
C20 C 0.2821(16) 0.0488(12) -0.1964(11)
H26 H 0.2155 0.0705 -0.1905
N6 N 0.2996(9) 0.0353(5) -0.2760(7)
C21 C 0.3872(10) -0.0166(8) -0.2960(9)
H27 H 0.4448 -0.0089 -0.2440
H28 H 0.4078 0.0037 -0.3561
H29 H 0.3680 -0.0795 -0.3015
C22 C 0.2253(10) 0.0719(9) -0.3589(9)
H30 H 0.2246 0.0331 -0.4145
H31 H 0.2471 0.1317 -0.3745
H32 H 0.1559 0.0747 -0.3414
O2 O 0.342(2) 0.0374(13) -0.1220(9)
loop_
_geom_bond_atom_site_label_1
_geom_bond_atom_site_label_2
_geom_bond_site_symmetry_1
_geom_bond_site_symmetry_2
Cu1 Cl1 1_555 1_555
N1 Cu1 1_555 1_555
Cl2 Cu1 1_555 1_555
C1 N1 1_555 1_555
N2 C1 1_555 1_555
C2 N2 1_555 1_555
H1 C2 1_555 1_555
C3 N1 1_555 1_555
H2 C3 1_555 1_555
C4 C1 1_555 1_555
H3 C4 1_555 1_555
H4 C4 1_555 1_555
H5 C4 1_555 1_555
C5 N2 1_555 1_555
H6 C5 1_555 1_555
H7 C5 1_555 1_555
C6 C5 1_555 1_555
C7 C6 1_555 1_555
H8 C7 1_555 1_555
C8 C7 1_555 1_555
H9 C8 1_555 1_555
C9 C8 1_555 1_555
C10 C9 1_555 1_555
H10 C10 1_555 1_555
C11 C6 1_555 1_555
H11 C11 1_555 1_555
C12 C9 1_555 1_555
H12 C12 1_555 1_555
H13 C12 1_555 1_555
N3 C12 1_555 1_555
C13 N3 1_555 1_555
N4 C13 1_555 1_555
C14 N4 1_555 1_555
H14 C14 1_555 1_555
C15 N3 1_555 1_555
H15 C15 1_555 1_555
C16 C13 1_555 1_555
H16 C16 1_555 1_555
H17 C16 1_555 1_555
H18 C16 1_555 1_555
O1 Cu1 1_555 1_555
C17 O1 1_555 1_555
H19 C17 1_555 1_555
N5 C17 1_555 1_555
C18 N5 1_555 1_555
H20 C18 1_555 1_555
H21 C18 1_555 1_555
H22 C18 1_555 1_555
C19 N5 1_555 1_555
H23 C19 1_555 1_555
H24 C19 1_555 1_555
H25 C19 1_555 1_555
C20 H26 1_555 1_555
N6 C20 1_555 1_555
C21 N6 1_555 1_555
H27 C21 1_555 1_555
H28 C21 1_555 1_555
H29 C21 1_555 1_555
C22 N6 1_555 1_555
H30 C22 1_555 1_555
H31 C22 1_555 1_555
H32 C22 1_555 1_555
O2 C20 1_555 1_555
Cu1_2 N4 1_555 1_555
N4_2 Cu1 1_555 1_555
C2 C3 1_555 1_555
C10 C11 1_555 1_555
C14 C15 1_555 1_555

#END
