
#######################################################################
#
#                 Cambridge Crystallographic Data Centre
#                                CCDC 
#
#######################################################################
#
# If this CIF has been generated from an entry in the Cambridge 
# Structural Database, then it will include bibliographic, chemical, 
# crystal, experimental, refinement or atomic coordinate data resulting 
# from the CCDC's data processing and validation procedures.
#
#######################################################################

data_PIFROM
_symmetry_cell_setting           triclinic
_symmetry_space_group_name_H-M   'P -1'
_symmetry_Int_Tables_number      2
_space_group_name_Hall           '-P 1'
loop_
_symmetry_equiv_pos_site_id
_symmetry_equiv_pos_as_xyz
1 x,y,z
2 -x,-y,-z
_cell_length_a                   8.539(5)
_cell_length_b                   10.673(6)
_cell_length_c                   13.386(7)
_cell_angle_alpha                104.272(10)
_cell_angle_beta                 91.858(10)
_cell_angle_gamma                112.793(9)
_cell_volume                     1078.75
loop_
_atom_site_label
_atom_site_type_symbol
_atom_site_fract_x
_atom_site_fract_y
_atom_site_fract_z
Cu1 Cu 0.21831(9) 0.49966(7) 0.23990(6)
Cl1 Cl -0.02110(18) 0.51191(16) 0.17681(12)
N1 N 0.1649(6) 0.4568(5) 0.3722(4)
Cl2 Cl 0.46687(18) 0.69327(15) 0.30023(12)
C1 C 0.0276(7) 0.3532(6) 0.3888(4)
N2 N 0.0444(6) 0.3537(5) 0.4890(4)
C2 C 0.1988(7) 0.4605(6) 0.5391(5)
H1 H 0.2438 0.4855 0.6104
C3 C 0.2735(8) 0.5228(6) 0.4665(5)
H2 H 0.3829 0.5996 0.4782
C4 C -0.1202(7) 0.2493(6) 0.3097(5)
H3 H -0.1144 0.2791 0.2458
H4 H -0.2274 0.2441 0.3363
H5 H -0.1165 0.1559 0.2945
C5 C -0.0747(7) 0.2494(6) 0.5362(5)
H6 H -0.1944 0.2222 0.5057
H7 H -0.0628 0.2924 0.6121
C6 C -0.0368(7) 0.1198(6) 0.5172(4)
C7 C 0.1151(8) 0.1274(6) 0.5636(5)
H8 H 0.1949 0.2151 0.6084
C8 C -0.1526(7) -0.0101(6) 0.4538(5)
H9 H -0.2587 -0.0182 0.4222
N3 N 0.2777(5) 0.4103(4) 0.1102(3)
C9 C 0.4096(7) 0.3730(5) 0.1051(5)
N4 N 0.4253(6) 0.3235(4) 0.0047(4)
C10 C 0.2975(7) 0.3272(6) -0.0574(5)
H10 H 0.2763 0.2975 -0.1314
C11 C 0.2072(7) 0.3820(6) 0.0080(4)
H11 H 0.1110 0.3983 -0.0128
C12 C 0.5223(7) 0.3825(6) 0.1953(5)
H12 H 0.4887 0.4250 0.2599
H13 H 0.6417 0.4413 0.1913
H14 H 0.5114 0.2874 0.1945
C13 C 0.5563(8) 0.2737(6) -0.0313(5)
H15 H 0.6704 0.3443 0.0059
H16 H 0.5571 0.2652 -0.1066
C14 C 0.5247(7) 0.1311(6) -0.0131(4)
C15 C 0.3635(7) 0.0207(5) -0.0409(4)
H17 H 0.2695 0.0340 -0.0692
C16 C 0.6598(7) 0.1104(6) 0.0270(4)
H18 H 0.7704 0.1862 0.0456
Cu1A Cu -0.21831(9) -0.49966(7) 0.76010(6)
Cu1A_2 Cu 0.78169(9) -0.49966(7) -0.23990(6)
Cl1A Cl 0.02110(18) -0.51191(16) 0.82319(12)
N1A N -0.1649(6) -0.4568(5) 0.6278(4)
Cl2A Cl -0.46687(18) -0.69327(15) 0.69977(12)
C1A C -0.0276(7) -0.3532(6) 0.6112(4)
N2A N -0.0444(6) -0.3537(5) 0.5110(4)
C2A C -0.1988(7) -0.4605(6) 0.4609(5)
H1A H -0.2438 -0.4855 0.3896
C3A C -0.2735(8) -0.5228(6) 0.5335(5)
H2A H -0.3829 -0.5996 0.5218
C4A C 0.1202(7) -0.2493(6) 0.6903(5)
H3A H 0.1144 -0.2791 0.7542
H4A H 0.2274 -0.2441 0.6637
H5A H 0.1165 -0.1559 0.7055
C5A C 0.0747(7) -0.2494(6) 0.4638(5)
H6A H 0.1944 -0.2222 0.4943
H7A H 0.0628 -0.2924 0.3879
C6A C 0.0368(7) -0.1198(6) 0.4828(4)
C7A C -0.1151(8) -0.1274(6) 0.4364(5)
H8A H -0.1949 -0.2151 0.3916
C8A C 0.1526(7) 0.0101(6) 0.5462(5)
H9A H 0.2587 0.0182 0.5778
N3A N 0.7223(5) -0.4103(4) -0.1102(3)
N3A_2 N -0.2777(5) -0.4103(4) 0.8898(3)
C9A C 0.5904(7) -0.3730(5) -0.1051(5)
N4A N 0.5747(6) -0.3235(4) -0.0047(4)
C10A C 0.7025(7) -0.3272(6) 0.0574(5)
H10A H 0.7237 -0.2975 0.1314
C11A C 0.7928(7) -0.3820(6) -0.0080(4)
H11A H 0.8890 -0.3983 0.0128
C12A C 0.4777(7) -0.3825(6) -0.1953(5)
H12A H 0.5113 -0.4250 -0.2599
H13A H 0.3583 -0.4413 -0.1913
H14A H 0.4886 -0.2874 -0.1945
C13A C 0.4437(8) -0.2737(6) 0.0313(5)
H15A H 0.3296 -0.3443 -0.0059
H16A H 0.4429 -0.2652 0.1066
C14A C 0.4753(7) -0.1311(6) 0.0131(4)
C15A C 0.6365(7) -0.0207(5) 0.0409(4)
H17A H 0.7305 -0.0340 0.0692
C16A C 0.3402(7) -0.1104(6) -0.0270(4)
H18A H 0.2296 -0.1862 -0.0456
Cl3 Cl -0.1139(2) -0.0612(2) -0.16647(17)
Cl4 Cl -0.4155(3) -0.1309(2) -0.36793(15)
C17 C -0.1531(10) 0.0638(8) -0.2193(6)
H19 H -0.1114 0.1562 -0.1653
H20 H -0.0873 0.0774 -0.2782
C18 C -0.3389(10) 0.0177(7) -0.2565(6)
H21 H -0.3563 0.0971 -0.2733
H22 H -0.4064 -0.0063 -0.1999
loop_
_geom_bond_atom_site_label_1
_geom_bond_atom_site_label_2
_geom_bond_site_symmetry_1
_geom_bond_site_symmetry_2
Cu1 Cl1 1_555 1_555
N1 Cu1 1_555 1_555
Cl2 Cu1 1_555 1_555
C1 N1 1_555 1_555
Cl3 C17 1_555 1_555
N2 C1 1_555 1_555
Cl4 C18 1_555 1_555
C2 N2 1_555 1_555
H1 C2 1_555 1_555
C3 N1 1_555 1_555
H2 C3 1_555 1_555
C4 C1 1_555 1_555
H3 C4 1_555 1_555
H4 C4 1_555 1_555
H5 C4 1_555 1_555
C5 N2 1_555 1_555
H6 C5 1_555 1_555
H7 C5 1_555 1_555
C6 C5 1_555 1_555
C7 C6 1_555 1_555
H8 C7 1_555 1_555
C8 C6 1_555 1_555
H9 C8 1_555 1_555
N3 Cu1 1_555 1_555
C9 N3 1_555 1_555
N4 C9 1_555 1_555
C10 N4 1_555 1_555
H10 C10 1_555 1_555
C11 N3 1_555 1_555
H11 C11 1_555 1_555
C12 C9 1_555 1_555
H12 C12 1_555 1_555
H13 C12 1_555 1_555
H14 C12 1_555 1_555
C13 N4 1_555 1_555
H15 C13 1_555 1_555
H16 C13 1_555 1_555
C14 C13 1_555 1_555
C15 C14 1_555 1_555
H17 C15 1_555 1_555
C16 C14 1_555 1_555
H18 C16 1_555 1_555
C17 H19 1_555 1_555
H20 C17 1_555 1_555
C18 C17 1_555 1_555
H21 C18 1_555 1_555
H22 C18 1_555 1_555
Cu1A Cl1A 1_555 1_555
Cu1A_2 N3A 1_555 1_555
N1A Cu1A 1_555 1_555
Cl2A Cu1A 1_555 1_555
C1A N1A 1_555 1_555
N2A C1A 1_555 1_555
C2A N2A 1_555 1_555
H1A C2A 1_555 1_555
C3A N1A 1_555 1_555
H2A C3A 1_555 1_555
C4A C1A 1_555 1_555
H3A C4A 1_555 1_555
H4A C4A 1_555 1_555
H5A C4A 1_555 1_555
C5A N2A 1_555 1_555
H6A C5A 1_555 1_555
H7A C5A 1_555 1_555
C6A C5A 1_555 1_555
C7A C8 1_555 1_555
H8A C7A 1_555 1_555
C8A C7 1_555 1_555
H9A C8A 1_555 1_555
N3A C9A 1_555 1_555
N3A_2 Cu1A 1_555 1_555
C9A N4A 1_555 1_555
N4A C10A 1_555 1_555
C10A H10A 1_555 1_555
C11A N3A 1_555 1_555
H11A C11A 1_555 1_555
C12A C9A 1_555 1_555
H12A C12A 1_555 1_555
H13A C12A 1_555 1_555
H14A C12A 1_555 1_555
C13A N4A 1_555 1_555
H15A C13A 1_555 1_555
H16A C13A 1_555 1_555
C14A C13A 1_555 1_555
C15A C16 1_555 1_555
H17A C15A 1_555 1_555
C16A C15 1_555 1_555
H18A C16A 1_555 1_555
C2 C3 1_555 1_555
C10 C11 1_555 1_555
C2A C3A 1_555 1_555
C6A C7A 1_555 1_555
C6A C8A 1_555 1_555
C10A C11A 1_555 1_555
C14A C15A 1_555 1_555
C14A C16A 1_555 1_555

#END
