
#######################################################################
#
#                 Cambridge Crystallographic Data Centre
#                                CCDC 
#
#######################################################################
#
# If this CIF has been generated from an entry in the Cambridge 
# Structural Database, then it will include bibliographic, chemical, 
# crystal, experimental, refinement or atomic coordinate data resulting 
# from the CCDC's data processing and validation procedures.
#
#######################################################################

data_PIFYIO
_symmetry_cell_setting           monoclinic
_symmetry_space_group_name_H-M   'P 21/c'
_symmetry_Int_Tables_number      14
_space_group_name_Hall           '-P 2ybc'
loop_
_symmetry_equiv_pos_site_id
_symmetry_equiv_pos_as_xyz
1 x,y,z
2 -x,1/2+y,1/2-z
3 -x,-y,-z
4 x,1/2-y,1/2+z
_cell_length_a                   13.58(2)
_cell_length_b                   16.79(3)
_cell_length_c                   16.04(3)
_cell_angle_alpha                90
_cell_angle_beta                 94.33(3)
_cell_angle_gamma                90
_cell_volume                     3646.81
loop_
_atom_site_label
_atom_site_type_symbol
_atom_site_fract_x
_atom_site_fract_y
_atom_site_fract_z
Ni1 Ni 0.02904(4) 0.43616(3) 0.37996(3)
O1 O 0.0160(3) 0.55775(19) 0.3716(2)
C1 C -0.0215(3) 0.6026(3) 0.4239(3)
C2 C -0.0400(4) 0.6881(3) 0.4002(3)
C3 C -0.0692(6) 0.7492(3) 0.4475(3)
H1 H -0.0860 0.7464 0.5026
O2 O -0.0196(2) 0.71498(18) 0.32200(19)
O3 O -0.0470(3) 0.5841(2) 0.4942(2)
O4 O -0.0274(3) 0.91703(19) 0.2500(2)
O5 O -0.0276(2) 0.8073(2) 0.1730(2)
C4 C -0.0297(3) 0.8413(3) 0.2425(3)
C5 C -0.0393(4) 0.7957(3) 0.3209(3)
C6 C -0.0694(5) 0.8192(3) 0.3962(3)
H2 H -0.0867 0.8705 0.4113
N1 N 0.1853(3) 0.4397(2) 0.3837(2)
C7 C 0.2346(4) 0.5069(3) 0.3980(4)
H3 H 0.1988 0.5530 0.4067
C8 C 0.3361(4) 0.5127(3) 0.4006(4)
H4 H 0.3666 0.5617 0.4106
C9 C 0.3931(3) 0.4455(3) 0.3885(3)
C10 C 0.3415(4) 0.3746(3) 0.3720(4)
H5 H 0.3757 0.3279 0.3623
C11 C 0.2387(4) 0.3737(3) 0.3703(4)
H6 H 0.2057 0.3258 0.3594
C12 C 0.5047(4) 0.4508(4) 0.3951(4)
H7 H 0.5229 0.5026 0.3744
H8 H 0.5273 0.4486 0.4539
C13 C 0.5590(4) 0.3897(4) 0.3508(5)
H9 H 0.5377 0.3913 0.2918
H10 H 0.5429 0.3375 0.3718
N2 N 0.8756(3) 0.4241(2) 0.3758(2)
C14 C 0.8323(4) 0.3711(3) 0.4245(3)
H11 H 0.8719 0.3413 0.4626
C15 C 0.7306(4) 0.3594(3) 0.4198(4)
H12 H 0.7031 0.3234 0.4555
C16 C 0.6704(4) 0.4016(3) 0.3615(4)
C17 C 0.7161(4) 0.4553(4) 0.3119(5)
H13 H 0.6786 0.4850 0.2722
C18 C 0.8177(4) 0.4653(4) 0.3211(4)
H14 H 0.8465 0.5025 0.2875
Ni1_2 Ni 1.02904(4) 0.43616(3) 0.37996(3)
Ni1A Ni -0.02904(4) 0.93616(3) 0.12004(3)
Ni1B Ni -0.02904(4) 0.56384(3) 0.62004(3)
O3B O 0.0470(3) 0.4159(2) 0.5058(2)
O4A O 0.0274(3) 0.41703(19) 0.2500(2)
O5A O 0.0276(2) 0.3073(2) 0.3270(2)
N2_2 N -0.1244(3) 0.4241(2) 0.3758(2)
Ni2 Ni 0.47865(4) 0.06983(3) 0.37554(3)
O6 O 0.4839(3) -0.05183(19) 0.3649(2)
C19 C 0.5001(3) -0.1007(3) 0.4243(3)
C20 C 0.5256(4) -0.1844(3) 0.4038(3)
C21 C 0.5550(6) -0.2456(3) 0.4562(3)
H15 H 0.5652 -0.2434 0.5141
O7 O 0.5179(2) -0.21028(18) 0.32249(19)
O8 O 0.4941(3) -0.0868(2) 0.5000(2)
O9 O 0.5251(3) -0.3022(2) 0.1751(2)
O10 O 0.5429(3) -0.41111(19) 0.2530(2)
C22 C 0.5358(3) -0.3361(3) 0.2456(3)
C23 C 0.5416(4) -0.2897(3) 0.3246(3)
C24 C 0.5671(5) -0.3136(3) 0.4046(4)
H16 H 0.5881 -0.3641 0.4220
N3 N 0.3251(3) 0.0732(2) 0.3872(3)
C25 C 0.2651(4) 0.1296(3) 0.3539(4)
H17 H 0.2930 0.1717 0.3264
C26 C 0.1630(4) 0.1289(3) 0.3578(4)
H18 H 0.1248 0.1705 0.3346
C27 C 0.1189(3) 0.0664(3) 0.3965(3)
C28 C 0.1807(4) 0.0088(4) 0.4325(5)
H19 H 0.1544 -0.0338 0.4606
C29 C 0.2821(4) 0.0140(4) 0.4269(5)
H20 H 0.3221 -0.0256 0.4520
C30 C 0.0079(4) 0.0595(4) 0.4028(4)
H21 H -0.0073 0.0773 0.4579
H22 H -0.0103 0.0037 0.3979
N4 N -0.3679(3) 0.0764(2) 0.3681(3)
C31 C -0.3184(4) 0.1391(3) 0.4001(4)
H23 H -0.3523 0.1772 0.4287
C32 C -0.2166(4) 0.1501(3) 0.3921(5)
H24 H -0.1845 0.1944 0.4162
C33 C -0.1644(3) 0.0955(3) 0.3488(3)
C34 C -0.2162(4) 0.0286(3) 0.3180(4)
H25 H -0.1836 -0.0115 0.2911
C35 C -0.3172(4) 0.0221(3) 0.3278(3)
H26 H -0.3507 -0.0221 0.3052
C36 C -0.0562(4) 0.1067(3) 0.3374(4)
H27 H -0.0397 0.1628 0.3423
H28 H -0.0423 0.0891 0.2819
Ni2_2 Ni -0.52135(4) 0.06983(3) 0.37554(3)
Ni2A Ni 0.52135(4) -0.43017(3) 0.12446(3)
Ni2B Ni 0.52135(4) -0.06983(3) 0.62446(3)
O8B O 0.5059(3) 0.0868(2) 0.5000(2)
O9A O 0.4749(3) 0.1978(2) 0.3249(2)
O10A O 0.4571(3) 0.08889(19) 0.2470(2)
N4_2 N 0.6321(3) 0.0764(2) 0.3681(3)
loop_
_geom_bond_atom_site_label_1
_geom_bond_atom_site_label_2
_geom_bond_site_symmetry_1
_geom_bond_site_symmetry_2
Ni1 O1 1_555 1_555
O1 C1 1_555 1_555
C1 C2 1_555 1_555
C2 C3 1_555 1_555
C3 H1 1_555 1_555
O2 C2 1_555 1_555
O3 C1 1_555 1_555
O4 C4 1_555 1_555
O5 C4 1_555 1_555
C4 C5 1_555 1_555
C5 O2 1_555 1_555
C6 C3 1_555 1_555
H2 C6 1_555 1_555
N1 Ni1 1_555 1_555
C7 N1 1_555 1_555
H3 C7 1_555 1_555
C8 C7 1_555 1_555
H4 C8 1_555 1_555
C9 C8 1_555 1_555
C10 C9 1_555 1_555
H5 C10 1_555 1_555
C11 N1 1_555 1_555
H6 C11 1_555 1_555
C12 C9 1_555 1_555
H7 C12 1_555 1_555
H8 C12 1_555 1_555
C13 C12 1_555 1_555
H9 C13 1_555 1_555
H10 C13 1_555 1_555
N2 C14 1_555 1_555
C14 H11 1_555 1_555
C15 C14 1_555 1_555
H12 C15 1_555 1_555
C16 C13 1_555 1_555
C17 C16 1_555 1_555
H13 C17 1_555 1_555
C18 N2 1_555 1_555
H14 C18 1_555 1_555
Ni2 O6 1_555 1_555
O6 C19 1_555 1_555
C19 C20 1_555 1_555
C20 C21 1_555 1_555
C21 H15 1_555 1_555
O7 C20 1_555 1_555
O8 C19 1_555 1_555
O9 C22 1_555 1_555
O10 C22 1_555 1_555
C22 C23 1_555 1_555
C23 O7 1_555 1_555
C24 C21 1_555 1_555
H16 C24 1_555 1_555
N3 Ni2 1_555 1_555
C25 N3 1_555 1_555
H17 C25 1_555 1_555
C26 C25 1_555 1_555
H18 C26 1_555 1_555
C27 C26 1_555 1_555
C28 C27 1_555 1_555
H19 C28 1_555 1_555
C29 N3 1_555 1_555
H20 C29 1_555 1_555
C30 C27 1_555 1_555
H21 C30 1_555 1_555
H22 C30 1_555 1_555
N4 C31 1_555 1_555
C31 H23 1_555 1_555
C32 C31 1_555 1_555
H24 C32 1_555 1_555
C33 C32 1_555 1_555
C34 C33 1_555 1_555
H25 C34 1_555 1_555
C35 N4 1_555 1_555
H26 C35 1_555 1_555
C36 C30 1_555 1_555
H27 C36 1_555 1_555
H28 C36 1_555 1_555
Ni1_2 N2 1_555 1_555
Ni1A O4 1_555 1_555
Ni1B O3 1_555 1_555
O3B Ni1 1_555 1_555
O4A Ni1 1_555 1_555
O5A Ni1 1_555 1_555
N2_2 Ni1 1_555 1_555
Ni2_2 N4 1_555 1_555
Ni2A O9 1_555 1_555
Ni2B O8 1_555 1_555
O8B Ni2 1_555 1_555
O9A Ni2 1_555 1_555
O10A Ni2 1_555 1_555
N4_2 Ni2 1_555 1_555
O5 Ni1A 1_555 1_555
C5 C6 1_555 1_555
C10 C11 1_555 1_555
C15 C16 1_555 1_555
C17 C18 1_555 1_555
O10 Ni2A 1_555 1_555
C23 C24 1_555 1_555
C28 C29 1_555 1_555
C33 C36 1_555 1_555
C34 C35 1_555 1_555

#END
