
#######################################################################
#
#                 Cambridge Crystallographic Data Centre
#                                CCDC 
#
#######################################################################
#
# If this CIF has been generated from an entry in the Cambridge 
# Structural Database, then it will include bibliographic, chemical, 
# crystal, experimental, refinement or atomic coordinate data resulting 
# from the CCDC's data processing and validation procedures.
#
#######################################################################

data_PIGHIX
_symmetry_cell_setting           monoclinic
_symmetry_space_group_name_H-M   'C 2/c'
_symmetry_Int_Tables_number      15
_space_group_name_Hall           '-C 2yn'
loop_
_symmetry_equiv_pos_site_id
_symmetry_equiv_pos_as_xyz
1 x,y,z
2 1/2+x,1/2+y,z
3 -x,y,1/2-z
4 1/2-x,1/2+y,1/2-z
5 -x,-y,-z
6 1/2-x,1/2-y,-z
7 x,-y,1/2+z
8 1/2+x,1/2-y,1/2+z
_cell_length_a                   19.0949(9)
_cell_length_b                   22.7667(11)
_cell_length_c                   13.3952(7)
_cell_angle_alpha                90
_cell_angle_beta                 113.1850(10)
_cell_angle_gamma                90
_cell_volume                     5352.97
loop_
_atom_site_label
_atom_site_type_symbol
_atom_site_fract_x
_atom_site_fract_y
_atom_site_fract_z
Cu1 Cu 0.49585(2) 0.763352(18) 0.55696(3)
Cu2 Cu 0.5000 0.86874(2) 0.7500
N1 N 0.46740(19) 0.67755(13) 0.5449(3)
N2 N 0.40514(18) 0.76713(14) 0.4159(3)
N3 N 0.57436(16) 0.93534(13) 0.8045(2)
O1 O 0.51142(14) 0.84794(11) 0.5652(2)
O2 O 0.62055(17) 0.84719(13) 0.5407(3)
O3 O 0.57906(17) 0.74621(11) 0.6937(2)
O4 O 0.57967(14) 0.81169(11) 0.8185(2)
O5 O 0.5781(2) 0.73880(15) 0.4618(3)
H1 H 0.557(3) 0.737(6) 0.3889(7)
H2 H 0.616(4) 0.764(3) 0.468(7)
C1 C 0.5011(3) 0.63365(18) 0.6111(4)
H3 H 0.5417 0.6420 0.6775
C2 C 0.4787(3) 0.5757(2) 0.5859(6)
H4 H 0.5033 0.5456 0.6353
C3 C 0.4213(3) 0.5625(2) 0.4901(6)
H5 H 0.4060 0.5233 0.4731
C4 C 0.3847(3) 0.6073(2) 0.4165(5)
C5 C 0.3240(4) 0.5997(3) 0.3134(6)
H6 H 0.3058 0.5615 0.2911
C6 C 0.2921(3) 0.6443(3) 0.2474(5)
H7 H 0.2526 0.6369 0.1796
C7 C 0.3167(3) 0.7038(3) 0.2774(4)
C8 C 0.2862(3) 0.7539(3) 0.2144(4)
H8 H 0.2468 0.7499 0.1453
C9 C 0.3133(3) 0.8080(3) 0.2527(4)
H9 H 0.2918 0.8417 0.2114
C10 C 0.3735(2) 0.8131(2) 0.3542(3)
H10 H 0.3923 0.8508 0.3798
C11 C 0.3768(2) 0.7130(2) 0.3789(3)
C12 C 0.4101(2) 0.66493(18) 0.4486(3)
C13 C 0.6491(2) 0.93375(19) 0.8613(3)
H11 H 0.6737 0.8972 0.8787
C14 C 0.6920(2) 0.9849(2) 0.8960(4)
H12 H 0.7448 0.9823 0.9368
C15 C 0.6585(3) 1.0382(2) 0.8714(4)
H13 H 0.6875 1.0725 0.8953
C16 C 0.5801(2) 1.04172(16) 0.8099(3)
C17 C 0.5379(3) 1.09580(17) 0.7788(3)
H14 H 0.5637 1.1318 0.7990
C18 C 0.5404(2) 0.98872(15) 0.7795(3)
C19 C 0.5678(2) 0.87288(16) 0.5522(3)
C20 C 0.5657(2) 0.93778(15) 0.5472(3)
H15 H 0.6122 0.9583 0.5729
C21 C 0.5017(2) 0.96852(15) 0.5085(3)
H16 H 0.4555 0.9482 0.4908
C22 C 0.6055(2) 0.76806(14) 0.7868(3)
C23 C 0.6736(2) 0.73914(16) 0.8674(3)
H17 H 0.6871 0.7017 0.8510
C24 C 0.7163(2) 0.76331(16) 0.9610(3)
H18 H 0.7018 0.8003 0.9777
Cu1E Cu 1.00415(2) 0.736648(18) 1.44304(3)
Cu1D Cu 0.50415(2) 1.236648(18) 0.44304(3)
Cu2G Cu 1.0000 0.63126(2) 1.2500
N1E N 1.03260(19) 0.82245(13) 1.4551(3)
N2E N 1.09486(18) 0.73287(14) 1.5841(3)
N3B N 0.42564(16) 0.93534(13) 0.6955(2)
O1D O 0.48858(14) 1.15206(11) 0.4348(2)
O1E O 0.98858(14) 0.65206(11) 1.4348(2)
O2D O 0.37945(17) 1.15281(13) 0.4593(3)
O3E O 0.92094(17) 0.75379(11) 1.3063(2)
O4E O 0.92033(14) 0.68831(11) 1.1815(2)
O4B O 0.42033(14) 0.81169(11) 0.6815(2)
O5E O 0.9219(2) 0.76120(15) 1.5382(3)
H1E H 0.943(3) 0.763(6) 1.6111(7)
H2E H 0.884(4) 0.736(3) 1.532(7)
C1E C 0.9989(3) 0.86635(18) 1.3889(4)
H3E H 0.9583 0.8580 1.3225
C2E C 1.0213(3) 0.9243(2) 1.4141(6)
H4E H 0.9967 0.9544 1.3647
C3E C 1.0787(3) 0.9375(2) 1.5099(6)
H5E H 1.0940 0.9767 1.5269
C4E C 1.1153(3) 0.8927(2) 1.5835(5)
C5E C 1.1760(4) 0.9003(3) 1.6866(6)
H6E H 1.1942 0.9385 1.7089
C6E C 1.2079(3) 0.8557(3) 1.7526(5)
H7E H 1.2474 0.8631 1.8204
C7E C 1.1833(3) 0.7962(3) 1.7226(4)
C8E C 1.2138(3) 0.7461(3) 1.7856(4)
H8E H 1.2532 0.7501 1.8547
C9E C 1.1867(3) 0.6920(3) 1.7473(4)
H9E H 1.2082 0.6583 1.7886
C10E C 1.1265(2) 0.6869(2) 1.6458(3)
H10E H 1.1077 0.6492 1.6202
C11E C 1.1232(2) 0.7870(2) 1.6211(3)
C12E C 1.0899(2) 0.83507(18) 1.5514(3)
C13B C 0.3509(2) 0.93375(19) 0.6387(3)
H11B H 0.3263 0.8972 0.6213
C14B C 0.3080(2) 0.9849(2) 0.6040(4)
H12B H 0.2552 0.9823 0.5632
C15B C 0.3415(3) 1.0382(2) 0.6286(4)
H13B H 0.3125 1.0725 0.6047
C16B C 0.4199(2) 1.04172(16) 0.6901(3)
C17B C 0.4621(3) 1.09580(17) 0.7212(3)
H14B H 0.4363 1.1318 0.7010
C18B C 0.4596(2) 0.98872(15) 0.7205(3)
C19D C 0.4322(2) 1.12712(16) 0.4478(3)
C20D C 0.4343(2) 1.06222(15) 0.4528(3)
H15D H 0.3878 1.0417 0.4271
C21D C 0.4983(2) 1.03148(15) 0.4915(3)
H16D H 0.5445 1.0518 0.5092
C22E C 0.8945(2) 0.73194(14) 1.2132(3)
C23E C 0.8264(2) 0.76086(16) 1.1326(3)
H17E H 0.8129 0.7983 1.1490
C24E C 0.7837(2) 0.73669(16) 1.0390(3)
H18E H 0.7982 0.6997 1.0223
O6 O 0.5000 0.7017(4) 0.2500
H19 H 0.4673(4) 0.6755(4) 0.2580(9)
H19B H 0.5327(4) 0.6755(4) 0.2420(9)
O7 O 0.5701(5) 0.5650(3) 0.3455(6)
H20 H 0.538(8) 0.571(9) 0.276(5)
H21 H 0.593(8) 0.600(3) 0.356(15)
O8 O 0.6576(3) 0.6330(2) 0.5275(5)
H23 H 0.620(4) 0.606(3) 0.510(12)
H24 H 0.628(5) 0.665(3) 0.515(11)
B1 B 0.7143(4) 0.5592(2) 0.8208(5)
F1 F 0.6786(5) 0.5621(4) 0.7074(6)
F2 F 0.6918(5) 0.5080(3) 0.8540(7)
F3 F 0.7229(5) 0.5990(4) 0.9045(6)
F4 F 0.7790(4) 0.5346(4) 0.8276(7)
H22? H 0.606(7) 0.545(6) 0.333(15)
F5? F 0.7947(6) 0.5668(6) 0.8510(11)
F6? F 0.6825(8) 0.5999(6) 0.8617(12)
F7? F 0.6556(7) 0.5237(6) 0.8295(12)
F8? F 0.6789(9) 0.5980(6) 0.7364(10)
F9? F 0.7417(12) 0.5051(6) 0.8502(16)
F10? F 0.7539(11) 0.6042(7) 0.8862(15)
F11? F 0.7161(12) 0.5748(10) 0.7193(12)
F12? F 0.6446(9) 0.5766(9) 0.7479(15)
loop_
_geom_bond_atom_site_label_1
_geom_bond_atom_site_label_2
_geom_bond_site_symmetry_1
_geom_bond_site_symmetry_2
Cu1 N1 1_555 1_555
Cu2 N3 1_555 1_555
N1 C1 1_555 1_555
N2 Cu1 1_555 1_555
N3 C13 1_555 1_555
O1 Cu1 1_555 1_555
O2 C19 1_555 1_555
O3 Cu1 1_555 1_555
O4 Cu2 1_555 1_555
O5 Cu1 1_555 1_555
H1 O5 1_555 1_555
H2 O5 1_555 1_555
C1 H3 1_555 1_555
C2 C1 1_555 1_555
H4 C2 1_555 1_555
C3 C2 1_555 1_555
H5 C3 1_555 1_555
C4 C3 1_555 1_555
C5 C4 1_555 1_555
H6 C5 1_555 1_555
C6 C5 1_555 1_555
H7 C6 1_555 1_555
C7 C6 1_555 1_555
C8 C7 1_555 1_555
H8 C8 1_555 1_555
C9 C8 1_555 1_555
H9 C9 1_555 1_555
C10 N2 1_555 1_555
H10 C10 1_555 1_555
C11 N2 1_555 1_555
C12 N1 1_555 1_555
C13 H11 1_555 1_555
C14 C13 1_555 1_555
H12 C14 1_555 1_555
C15 C14 1_555 1_555
H13 C15 1_555 1_555
C16 C15 1_555 1_555
C17 C16 1_555 1_555
H14 C17 1_555 1_555
C18 N3 1_555 1_555
C19 O1 1_555 1_555
C20 C19 1_555 1_555
H15 C20 1_555 1_555
C21 C20 1_555 1_555
H16 C21 1_555 1_555
C22 O3 1_555 1_555
C23 C22 1_555 1_555
H17 C23 1_555 1_555
C24 C23 1_555 1_555
H18 C24 1_555 1_555
O6 H19 1_555 1_555
O7 H20 1_555 1_555
H21 O7 1_555 1_555
O8 H23 1_555 1_555
H24 O8 1_555 1_555
B1 F1 1_555 1_555
F2 B1 1_555 1_555
F3 B1 1_555 1_555
F4 B1 1_555 1_555
Cu1E N1E 1_555 1_555
Cu1D O1D 1_555 1_555
Cu2G O4E 1_555 1_555
N1E C1E 1_555 1_555
N2E Cu1E 1_555 1_555
N3B Cu2 1_555 1_555
O1D C19D 1_555 1_555
O1E Cu1E 1_555 1_555
O2D C19D 1_555 1_555
O3E Cu1E 1_555 1_555
O4E C22E 1_555 1_555
O4B Cu2 1_555 1_555
O5E Cu1E 1_555 1_555
H1E O5E 1_555 1_555
H2E O5E 1_555 1_555
C1E H3E 1_555 1_555
C2E C1E 1_555 1_555
H4E C2E 1_555 1_555
C3E C2E 1_555 1_555
H5E C3E 1_555 1_555
C4E C3E 1_555 1_555
C5E C4E 1_555 1_555
H6E C5E 1_555 1_555
C6E C5E 1_555 1_555
H7E C6E 1_555 1_555
C7E C6E 1_555 1_555
C8E C7E 1_555 1_555
H8E C8E 1_555 1_555
C9E C8E 1_555 1_555
H9E C9E 1_555 1_555
C10E N2E 1_555 1_555
H10E C10E 1_555 1_555
C11E N2E 1_555 1_555
C12E N1E 1_555 1_555
C13B N3B 1_555 1_555
H11B C13B 1_555 1_555
C14B C13B 1_555 1_555
H12B C14B 1_555 1_555
C15B C14B 1_555 1_555
H13B C15B 1_555 1_555
C16B C15B 1_555 1_555
C17B C17 1_555 1_555
H14B C17B 1_555 1_555
C18B C18 1_555 1_555
C19D C20D 1_555 1_555
C20D H15D 1_555 1_555
C21D C21 1_555 1_555
H16D C21D 1_555 1_555
C22E O3E 1_555 1_555
C23E C22E 1_555 1_555
H17E C23E 1_555 1_555
C24E C24 1_555 1_555
H18E C24E 1_555 1_555
H19B O6 1_555 1_555
O4 C22 1_555 1_555
C4 C12 1_555 1_555
C7 C11 1_555 1_555
C9 C10 1_555 1_555
C11 C12 1_555 1_555
C16 C18 1_555 1_555
N3B C18B 1_555 1_555
C4E C12E 1_555 1_555
C7E C11E 1_555 1_555
C9E C10E 1_555 1_555
C11E C12E 1_555 1_555
C16B C17B 1_555 1_555
C16B C18B 1_555 1_555
C20D C21D 1_555 1_555
C23E C24E 1_555 1_555

#END
