
#######################################################################
#
#                 Cambridge Crystallographic Data Centre
#                                CCDC 
#
#######################################################################
#
# If this CIF has been generated from an entry in the Cambridge 
# Structural Database, then it will include bibliographic, chemical, 
# crystal, experimental, refinement or atomic coordinate data resulting 
# from the CCDC's data processing and validation procedures.
#
#######################################################################

data_PIGMID
_symmetry_cell_setting           monoclinic
_symmetry_space_group_name_H-M   'P 21/n'
_symmetry_Int_Tables_number      14
_space_group_name_Hall           '-P 2yn'
loop_
_symmetry_equiv_pos_site_id
_symmetry_equiv_pos_as_xyz
1 x,y,z
2 1/2-x,1/2+y,1/2-z
3 -x,-y,-z
4 1/2+x,1/2-y,1/2+z
_cell_length_a                   12.6809(3)
_cell_length_b                   10.7919(3)
_cell_length_c                   20.7122(5)
_cell_angle_alpha                90
_cell_angle_beta                 100.018(2)
_cell_angle_gamma                90
_cell_volume                     2791.27
loop_
_atom_site_label
_atom_site_type_symbol
_atom_site_fract_x
_atom_site_fract_y
_atom_site_fract_z
Cu1 Cu 0.5000 0.0000 0.0000
O1 O 0.80788(18) -0.1752(2) -0.00386(12)
N1 N 0.7247(2) -0.0274(3) 0.04820(14)
C1 C 0.8079(3) -0.0955(4) 0.04277(17)
Cu2 Cu 0.69095(3) 0.07661(4) 0.11871(2)
O2 O 0.64096(17) -0.0488(2) -0.00431(11)
N2 N 0.8138(2) -0.0121(3) 0.18172(14)
C2 C 0.9078(3) -0.0698(3) 0.09001(17)
Cu3 Cu 0.33418(3) 0.18411(4) 0.05777(2)
O3 O 0.61978(17) 0.1440(2) 0.18632(11)
N3 N 0.4813(2) 0.1672(3) 0.10103(14)
C3 C 1.0030(3) -0.0873(4) 0.06588(18)
H1 H 1.0008 -0.1238 0.0239
O4 O 0.55629(17) 0.1280(2) 0.06237(11)
N4 N 0.3078(2) 0.3038(3) 0.12815(15)
C4 C 1.1005(3) -0.0523(4) 0.10228(19)
H2 H 1.1648 -0.0646 0.0854
N5 N 0.7845(2) 0.2420(3) 0.09029(14)
C5 C 1.1036(3) 0.0003(4) 0.1629(2)
H3 H 1.1701 0.0271 0.1873
N6 N 1.0050(4) 0.5052(4) 0.02698(17)
C6 C 1.0109(3) 0.0147(4) 0.18887(18)
H4 H 1.0146 0.0495 0.2313
C7 C 0.9120(3) -0.0216(4) 0.15316(18)
C8 C 0.7726(3) -0.1398(4) 0.1921(2)
H5 H 0.7614 -0.1851 0.1504
H6 H 0.7046 -0.1335 0.2082
H7 H 0.8250 -0.1840 0.2243
C9 C 0.8304(3) 0.0484(5) 0.24732(19)
H8 H 0.8810 -0.0006 0.2783
H9 H 0.7618 0.0537 0.2629
H10 H 0.8592 0.1320 0.2439
C10 C 0.5209(3) 0.1699(3) 0.16311(17)
C11 C 0.4462(3) 0.1953(3) 0.20953(17)
C12 C 0.4797(3) 0.1548(4) 0.27382(17)
H11 H 0.5499 0.1222 0.2861
C13 C 0.4136(3) 0.1607(4) 0.31987(18)
H12 H 0.4384 0.1327 0.3633
C14 C 0.3120(3) 0.2072(4) 0.30290(19)
H13 H 0.2654 0.2080 0.3341
C15 C 0.2771(3) 0.2529(4) 0.24030(19)
H14 H 0.2073 0.2872 0.2294
C16 C 0.3432(3) 0.2490(3) 0.19336(17)
C17 C 0.3700(3) 0.4212(4) 0.1236(2)
H15 H 0.3574 0.4787 0.1581
H16 H 0.3467 0.4596 0.0806
H17 H 0.4466 0.4019 0.1292
C18 C 0.1925(3) 0.3369(4) 0.1155(2)
H18 H 0.1499 0.2644 0.1233
H19 H 0.1717 0.3639 0.0699
H20 H 0.1797 0.4042 0.1450
C19 C 0.7757(3) 0.2614(4) 0.02594(19)
H21 H 0.7223 0.2175 -0.0031
C20 C 0.8416(4) 0.3431(4) -0.0002(2)
H22 H 0.8345 0.3536 -0.0463
C21 C 0.9176(3) 0.4088(4) 0.0418(3)
C22 C 0.9245(3) 0.3918(4) 0.1075(2)
H23 H 0.9752 0.4370 0.1377
C23 C 0.8572(3) 0.3084(4) 0.1296(2)
H24 H 0.8628 0.2975 0.1756
O5 O 0.3976(3) 0.3264(3) -0.02096(15)
H25 H 0.4723 0.3189 -0.0207
C24 C 0.3503(6) 0.4137(6) -0.0650(3)
H26 H 0.3615 0.3914 -0.1091
H27 H 0.3824 0.4950 -0.0531
H28 H 0.2734 0.4171 -0.0640
N5B N 1.2155(2) 0.7580(3) -0.09029(14)
N6B N 0.9950(4) 0.4948(4) -0.02698(17)
C19B C 1.2243(3) 0.7386(4) -0.02594(19)
H21B H 1.2777 0.7825 0.0031
C20B C 1.1584(4) 0.6569(4) 0.0002(2)
H22B H 1.1655 0.6464 0.0463
C21B C 1.0824(3) 0.5912(4) -0.0418(3)
C22B C 1.0755(3) 0.6082(4) -0.1075(2)
H23B H 1.0248 0.5630 -0.1377
C23B C 1.1428(3) 0.6916(4) -0.1296(2)
H24B H 1.1372 0.7025 -0.1756
O1B O 0.19212(18) 0.1752(2) 0.00386(12)
N1B N 0.2753(2) 0.0274(3) -0.04820(14)
C1B C 0.1921(3) 0.0955(4) -0.04277(17)
Cu2B Cu 0.30905(3) -0.07661(4) -0.11871(2)
O2B O 0.35904(17) 0.0488(2) 0.00431(11)
N2B N 0.1862(2) 0.0121(3) -0.18172(14)
C2B C 0.0922(3) 0.0698(3) -0.09001(17)
Cu3B Cu 0.66582(3) -0.18411(4) -0.05777(2)
O3B O 0.38022(17) -0.1440(2) -0.18632(11)
N3B N 0.5187(2) -0.1672(3) -0.10103(14)
C3B C -0.0030(3) 0.0873(4) -0.06588(18)
H1B H -0.0008 0.1238 -0.0239
O4B O 0.44371(17) -0.1280(2) -0.06237(11)
N4B N 0.6922(2) -0.3038(3) -0.12815(15)
C4B C -0.1005(3) 0.0523(4) -0.10228(19)
H2B H -0.1648 0.0646 -0.0854
C5B C -0.1036(3) -0.0003(4) -0.1629(2)
H3B H -0.1701 -0.0271 -0.1873
C6B C -0.0109(3) -0.0147(4) -0.18887(18)
H4B H -0.0146 -0.0495 -0.2313
C7B C 0.0880(3) 0.0216(4) -0.15316(18)
C8B C 0.2274(3) 0.1398(4) -0.1921(2)
H5B H 0.2386 0.1851 -0.1504
H6B H 0.2954 0.1335 -0.2082
H7B H 0.1750 0.1840 -0.2243
C9B C 0.1696(3) -0.0484(5) -0.24732(19)
H8B H 0.1190 0.0006 -0.2783
H9B H 0.2382 -0.0537 -0.2629
H10B H 0.1408 -0.1320 -0.2439
C10B C 0.4791(3) -0.1699(3) -0.16311(17)
C11B C 0.5538(3) -0.1953(3) -0.20953(17)
C12B C 0.5203(3) -0.1548(4) -0.27382(17)
H11B H 0.4501 -0.1222 -0.2861
C13B C 0.5864(3) -0.1607(4) -0.31987(18)
H12B H 0.5616 -0.1327 -0.3633
C14B C 0.6880(3) -0.2072(4) -0.30290(19)
H13B H 0.7346 -0.2080 -0.3341
C15B C 0.7229(3) -0.2529(4) -0.24030(19)
H14B H 0.7927 -0.2872 -0.2294
C16B C 0.6568(3) -0.2490(3) -0.19336(17)
C17B C 0.6300(3) -0.4212(4) -0.1236(2)
H15B H 0.6426 -0.4787 -0.1581
H16B H 0.6533 -0.4596 -0.0806
H17B H 0.5534 -0.4019 -0.1292
C18B C 0.8075(3) -0.3369(4) -0.1155(2)
H18B H 0.8501 -0.2644 -0.1233
H19B H 0.8283 -0.3639 -0.0699
H20B H 0.8203 -0.4042 -0.1450
O5B O 0.6024(3) -0.3264(3) 0.02096(15)
H25B H 0.5277 -0.3189 0.0207
C24B C 0.6497(6) -0.4137(6) 0.0650(3)
H26B H 0.6385 -0.3914 0.1091
H27B H 0.6176 -0.4950 0.0531
H28B H 0.7266 -0.4171 0.0640
Cu2B_2 Cu 1.30905(3) 0.92339(4) -0.11871(2)
N5B_2 N 0.2155(2) -0.2420(3) -0.09029(14)
Cl1 Cl 0.45494(7) -0.17919(10) 0.15074(5)
O6 O 0.5271(2) -0.1379(3) 0.10866(14)
O7 O 0.4261(4) -0.3012(4) 0.1357(3)
O8 O 0.5068(3) -0.1716(5) 0.21644(17)
O9 O 0.3632(2) -0.1027(4) 0.14326(18)
loop_
_geom_bond_atom_site_label_1
_geom_bond_atom_site_label_2
_geom_bond_site_symmetry_1
_geom_bond_site_symmetry_2
Cu1 O2 1_555 1_555
O1 C1 1_555 1_555
N1 C1 1_555 1_555
C1 C2 1_555 1_555
Cu2 N1 1_555 1_555
O2 N1 1_555 1_555
N2 Cu2 1_555 1_555
C2 C3 1_555 1_555
Cu3 N3 1_555 1_555
O3 Cu2 1_555 1_555
N3 O4 1_555 1_555
C3 H1 1_555 1_555
O4 Cu1 1_555 1_555
N4 Cu3 1_555 1_555
C4 C3 1_555 1_555
H2 C4 1_555 1_555
N5 Cu2 1_555 1_555
C5 C4 1_555 1_555
H3 C5 1_555 1_555
N6 C21 1_555 1_555
C6 C5 1_555 1_555
H4 C6 1_555 1_555
C7 N2 1_555 1_555
C8 N2 1_555 1_555
H5 C8 1_555 1_555
H6 C8 1_555 1_555
H7 C8 1_555 1_555
C9 N2 1_555 1_555
H8 C9 1_555 1_555
H9 C9 1_555 1_555
H10 C9 1_555 1_555
C10 O3 1_555 1_555
C11 C10 1_555 1_555
C12 C11 1_555 1_555
H11 C12 1_555 1_555
C13 C12 1_555 1_555
H12 C13 1_555 1_555
C14 C13 1_555 1_555
H13 C14 1_555 1_555
C15 C14 1_555 1_555
H14 C15 1_555 1_555
C16 N4 1_555 1_555
C17 N4 1_555 1_555
H15 C17 1_555 1_555
H16 C17 1_555 1_555
H17 C17 1_555 1_555
C18 N4 1_555 1_555
H18 C18 1_555 1_555
H19 C18 1_555 1_555
H20 C18 1_555 1_555
C19 N5 1_555 1_555
H21 C19 1_555 1_555
C20 C19 1_555 1_555
H22 C20 1_555 1_555
C21 C20 1_555 1_555
C22 C21 1_555 1_555
H23 C22 1_555 1_555
C23 N5 1_555 1_555
H24 C23 1_555 1_555
O5 Cu3 1_555 1_555
H25 O5 1_555 1_555
C24 O5 1_555 1_555
H26 C24 1_555 1_555
H27 C24 1_555 1_555
H28 C24 1_555 1_555
Cl1 O6 1_555 1_555
O7 Cl1 1_555 1_555
O8 Cl1 1_555 1_555
O9 Cl1 1_555 1_555
N5B C19B 1_555 1_555
N6B N6 1_555 1_555
C19B H21B 1_555 1_555
C20B C19B 1_555 1_555
H22B C20B 1_555 1_555
C21B N6B 1_555 1_555
C22B C21B 1_555 1_555
H23B C22B 1_555 1_555
C23B N5B 1_555 1_555
H24B C23B 1_555 1_555
O1B Cu3 1_555 1_555
N1B C1B 1_555 1_555
C1B O1B 1_555 1_555
Cu2B N1B 1_555 1_555
O2B Cu1 1_555 1_555
N2B Cu2B 1_555 1_555
C2B C1B 1_555 1_555
Cu3B O1 1_555 1_555
O3B Cu2B 1_555 1_555
N3B Cu3B 1_555 1_555
C3B C2B 1_555 1_555
H1B C3B 1_555 1_555
O4B Cu1 1_555 1_555
N4B Cu3B 1_555 1_555
C4B C3B 1_555 1_555
H2B C4B 1_555 1_555
C5B C4B 1_555 1_555
H3B C5B 1_555 1_555
C6B C5B 1_555 1_555
H4B C6B 1_555 1_555
C7B N2B 1_555 1_555
C8B N2B 1_555 1_555
H5B C8B 1_555 1_555
H6B C8B 1_555 1_555
H7B C8B 1_555 1_555
C9B N2B 1_555 1_555
H8B C9B 1_555 1_555
H9B C9B 1_555 1_555
H10B C9B 1_555 1_555
C10B O3B 1_555 1_555
C11B C10B 1_555 1_555
C12B C11B 1_555 1_555
H11B C12B 1_555 1_555
C13B C12B 1_555 1_555
H12B C13B 1_555 1_555
C14B C13B 1_555 1_555
H13B C14B 1_555 1_555
C15B C14B 1_555 1_555
H14B C15B 1_555 1_555
C16B N4B 1_555 1_555
C17B N4B 1_555 1_555
H15B C17B 1_555 1_555
H16B C17B 1_555 1_555
H17B C17B 1_555 1_555
C18B N4B 1_555 1_555
H18B C18B 1_555 1_555
H19B C18B 1_555 1_555
H20B C18B 1_555 1_555
O5B Cu3B 1_555 1_555
H25B O5B 1_555 1_555
C24B O5B 1_555 1_555
H26B C24B 1_555 1_555
H27B C24B 1_555 1_555
H28B C24B 1_555 1_555
Cu2B_2 N5B 1_555 1_555
N5B_2 Cu2B 1_555 1_555
Cu2 O4 1_555 1_555
O2 Cu3B 1_555 1_555
C2 C7 1_555 1_555
Cu3 O2B 1_555 1_555
N3 C10 1_555 1_555
C6 C7 1_555 1_555
C11 C16 1_555 1_555
C15 C16 1_555 1_555
C22 C23 1_555 1_555
C20B C21B 1_555 1_555
C22B C23B 1_555 1_555
N1B O2B 1_555 1_555
Cu2B O4B 1_555 1_555
C2B C7B 1_555 1_555
N3B O4B 1_555 1_555
N3B C10B 1_555 1_555
C6B C7B 1_555 1_555
C11B C16B 1_555 1_555
C15B C16B 1_555 1_555

#END
