
#######################################################################
#
#                 Cambridge Crystallographic Data Centre
#                                CCDC 
#
#######################################################################
#
# If this CIF has been generated from an entry in the Cambridge 
# Structural Database, then it will include bibliographic, chemical, 
# crystal, experimental, refinement or atomic coordinate data resulting 
# from the CCDC's data processing and validation procedures.
#
#######################################################################

data_PIGTEF
_symmetry_cell_setting           orthorhombic
_symmetry_space_group_name_H-M   'P 21 21 21'
_symmetry_Int_Tables_number      19
_space_group_name_Hall           'P 2ac 2ab'
loop_
_symmetry_equiv_pos_site_id
_symmetry_equiv_pos_as_xyz
1 x,y,z
2 1/2-x,-y,1/2+z
3 1/2+x,1/2-y,-z
4 -x,1/2+y,1/2-z
_cell_length_a                   7.72170(10)
_cell_length_b                   14.4052(2)
_cell_length_c                   19.9285(2)
_cell_angle_alpha                90
_cell_angle_beta                 90
_cell_angle_gamma                90
_cell_volume                     2216.7
loop_
_atom_site_label
_atom_site_type_symbol
_atom_site_fract_x
_atom_site_fract_y
_atom_site_fract_z
Ba1 Ba 0.806689(19) 0.311906(10) 0.510439(7)
S1 S 1.16387(10) 0.38496(4) 0.76415(3)
O1 O 1.0391(3) 0.35589(14) 0.89129(10)
O2 O 0.9345(3) 0.34663(17) 0.64455(10)
O3 O 1.1413(3) 0.31241(17) 0.57230(9)
O5 O 0.9598(3) 0.13170(15) 0.51808(17)
O7 O 0.9381(4) 0.49079(15) 0.49896(14)
O9 O 0.6343(4) 0.4428(2) 0.61316(16)
N1 N 1.0464(3) 0.27557(17) 0.85778(12)
C1 C 1.0614(5) 0.1113(2) 0.79030(17)
H1 H 1.0671 0.0552 0.7673
C2 C 1.1123(3) 0.1914(2) 0.75950(13)
H2 H 1.1517 0.1897 0.7154
C3 C 1.1057(4) 0.27542(18) 0.79355(13)
C4 C 0.9946(4) 0.1964(2) 0.88833(14)
H3 H 0.9538 0.1983 0.9322
C5 C 1.0018(5) 0.1135(2) 0.85503(17)
H4 H 0.9665 0.0591 0.8761
C6 C 1.2314(3) 0.35897(19) 0.67922(13)
H5 H 1.2971 0.4115 0.6625
H6 H 1.3094 0.3062 0.6808
C7 C 1.0881(4) 0.33735(17) 0.62873(13)
S2 S 1.08378(10) 0.41564(5) 0.24348(3)
O10 O 1.0076(3) 0.37353(15) 0.11332(10)
O11 O 0.8678(2) 0.37030(14) 0.36984(10)
O12 O 1.0842(3) 0.29418(13) 0.41724(9)
N2 N 1.0477(3) 0.29594(16) 0.14640(11)
C8 C 1.1462(4) 0.1394(2) 0.21300(16)
H7 H 1.1822 0.0861 0.2354
C9 C 1.1455(4) 0.22264(19) 0.24571(15)
H8 H 1.1792 0.2258 0.2905
C10 C 1.0943(3) 0.30295(19) 0.21204(12)
C11 C 1.0439(5) 0.2130(2) 0.11469(16)
H9 H 1.0069 0.2098 0.0703
C12 C 1.0937(4) 0.1339(2) 0.14695(17)
H10 H 1.0924 0.0772 0.1248
C13 C 1.1546(4) 0.39694(18) 0.32887(13)
H11 H 1.2588 0.3594 0.3279
H12 H 1.1851 0.4565 0.3482
C14 C 1.0244(4) 0.35036(18) 0.37447(12)
H13 H 0.861(5) 0.541(3) 0.5078(18)
H14 H 1.021(5) 0.508(3) 0.496(2)
H16 H 0.717(6) 0.436(3) 0.634(2)
H17 H 0.610(7) 0.504(3) 0.625(2)
H21 H 0.928(5) 0.110(3) 0.489(2)
H22 H 0.963(7) 0.097(4) 0.555(3)
Ba1B Ba 0.306689(19) 0.188094(10) 0.489561(7)
Ba1B_2 Ba 1.306689(19) 0.188094(10) 0.489561(7)
O3B O 0.6413(3) 0.18759(17) 0.42770(9)
O5B O 0.4598(3) 0.36830(15) 0.48192(17)
O12B O 0.5842(3) 0.20582(13) 0.58276(9)
H21B H 0.428(5) 0.390(3) 0.511(2)
H22B H 0.463(7) 0.403(4) 0.445(3)
O4 O 0.7909(3) 0.35823(17) 0.00077(13)
H18 H 0.837(6) 0.361(3) 0.036(2)
H24 H 0.873(9) 0.371(5) -0.029(3)
O6 O 0.0598(4) 0.0404(2) 0.63009(15)
H19 H -0.111(14) 0.060(7) 0.623(5)
H20 H 0.056(5) -0.001(2) 0.6325(17)
O8 O 0.7649(4) -0.0786(2) 0.49727(17)
H15 H 0.801(7) -0.105(3) 0.531(2)
H23 H 0.829(7) -0.078(3) 0.464(2)
loop_
_geom_bond_atom_site_label_1
_geom_bond_atom_site_label_2
_geom_bond_site_symmetry_1
_geom_bond_site_symmetry_2
Ba1 O2 1_555 1_555
S1 C3 1_555 1_555
O1 N1 1_555 1_555
O2 C7 1_555 1_555
O3 Ba1 1_555 1_555
O4 H18 1_555 1_555
O5 Ba1 1_555 1_555
O6 H19 1_555 1_555
O7 Ba1 1_555 1_555
O8 H15 1_555 1_555
O9 Ba1 1_555 1_555
N1 C3 1_555 1_555
C1 H1 1_555 1_555
C2 C1 1_555 1_555
H2 C2 1_555 1_555
C3 C2 1_555 1_555
C4 N1 1_555 1_555
H3 C4 1_555 1_555
C5 C1 1_555 1_555
H4 C5 1_555 1_555
C6 S1 1_555 1_555
H5 C6 1_555 1_555
H6 C6 1_555 1_555
C7 O3 1_555 1_555
S2 C10 1_555 1_555
O10 N2 1_555 1_555
O11 Ba1 1_555 1_555
O12 Ba1 1_555 1_555
N2 C10 1_555 1_555
C8 H7 1_555 1_555
C9 C8 1_555 1_555
H8 C9 1_555 1_555
C10 C9 1_555 1_555
C11 N2 1_555 1_555
H9 C11 1_555 1_555
C12 C8 1_555 1_555
H10 C12 1_555 1_555
C13 S2 1_555 1_555
H11 C13 1_555 1_555
H12 C13 1_555 1_555
C14 O11 1_555 1_555
H13 O7 1_555 1_555
H14 O7 1_555 1_555
H16 O9 1_555 1_555
H17 O9 1_555 1_555
H20 O6 1_555 1_555
H21 O5 1_555 1_555
H22 O5 1_555 1_555
H23 O8 1_555 1_555
H24 O4 1_555 1_555
Ba1B O3B 1_555 1_555
Ba1B_2 O3 1_555 1_555
O3B Ba1 1_555 1_555
O5B Ba1 1_555 1_555
O12B Ba1 1_555 1_555
H21B O5B 1_555 1_555
H22B O5B 1_555 1_555
O5 Ba1B_2 1_555 1_555
C4 C5 1_555 1_555
C6 C7 1_555 1_555
O12 C14 1_555 1_555
O12 Ba1B_2 1_555 1_555
C11 C12 1_555 1_555
C13 C14 1_555 1_555
Ba1B O5B 1_555 1_555
Ba1B O12B 1_555 1_555

#END
