
#######################################################################
#
#                 Cambridge Crystallographic Data Centre
#                                CCDC 
#
#######################################################################
#
# If this CIF has been generated from an entry in the Cambridge 
# Structural Database, then it will include bibliographic, chemical, 
# crystal, experimental, refinement or atomic coordinate data resulting 
# from the CCDC's data processing and validation procedures.
#
#######################################################################

data_PIGXEJ
_symmetry_cell_setting           monoclinic
_symmetry_space_group_name_H-M   'P 21/c'
_symmetry_Int_Tables_number      14
_space_group_name_Hall           '-P 2ybc'
loop_
_symmetry_equiv_pos_site_id
_symmetry_equiv_pos_as_xyz
1 x,y,z
2 -x,1/2+y,1/2-z
3 -x,-y,-z
4 x,1/2-y,1/2+z
_cell_length_a                   9.558(2)
_cell_length_b                   7.5277(16)
_cell_length_c                   25.132(6)
_cell_angle_alpha                90
_cell_angle_beta                 100.630(4)
_cell_angle_gamma                90
_cell_volume                     1777.21
loop_
_atom_site_label
_atom_site_type_symbol
_atom_site_fract_x
_atom_site_fract_y
_atom_site_fract_z
Cu1 Cu 0.24630(6) 0.49587(9) 0.28076(2)
O1 O 0.0734(4) 0.6067(5) 0.29740(14)
O2 O 0.1923(3) 0.6123(5) 0.21063(14)
O3 O -0.0059(4) 0.7200(6) 0.15958(15)
O4 O -0.1203(3) 0.7458(5) 0.25502(15)
O5 O 0.6347(4) 0.3604(6) 0.07333(15)
N1 N 0.4397(4) 0.4090(5) 0.26922(17)
N2 N 0.3283(4) 0.4262(5) 0.35683(17)
C1 C 0.2643(5) 0.4309(7) 0.3999(2)
H1 H 0.1720 0.4749 0.3956
C2 C 0.3304(6) 0.3727(8) 0.4505(2)
H2 H 0.2831 0.3763 0.4796
C3 C 0.4687(6) 0.3089(8) 0.4569(2)
H3 H 0.5152 0.2679 0.4904
C4 C 0.5368(6) 0.3070(8) 0.4126(2)
H4 H 0.6301 0.2668 0.4163
C5 C 0.4640(5) 0.3654(7) 0.3632(2)
C6 C 0.5203(5) 0.3594(7) 0.3130(2)
H5 H 0.6126 0.3204 0.3129
C7 C 0.4927(5) 0.4054(7) 0.2191(2)
C8 C 0.4023(5) 0.3461(7) 0.1722(2)
H6 H 0.3080 0.3176 0.1730
C9 C 0.4545(5) 0.3304(7) 0.1247(2)
H7 H 0.3961 0.2869 0.0937
C10 C 0.5940(5) 0.3792(7) 0.1230(2)
C11 C 0.6822(5) 0.4434(7) 0.1687(2)
H8 H 0.7746 0.4786 0.1671
C12 C 0.6321(5) 0.4550(6) 0.2168(2)
H9 H 0.6918 0.4960 0.2478
C13 C 0.7800(6) 0.4009(9) 0.0698(3)
H10 H 0.7995 0.5231 0.0793
H11 H 0.7944 0.3804 0.0335
H12 H 0.8429 0.3261 0.0943
C14 C -0.0030(5) 0.6782(7) 0.2553(2)
C15 C 0.0651(5) 0.6695(7) 0.2030(2)
Cu1A Cu -0.24630(6) 0.99587(9) 0.21924(2)
O4A O 0.1203(3) 0.2458(5) 0.24498(15)
O6 O 0.8781(6) 0.5635(7) 0.3778(2)
H13 H 0.8907 0.4426 0.3779
H14 H 0.9116 0.6316 0.3543
O7 O 0.1124(5) 0.2038(7) 0.53252(19)
H15 H 0.1184 0.2631 0.5615
H16 H 0.0302 0.1708 0.5167
O8 O 0.1030(5) 0.6646(7) 0.06291(19)
H17 H 0.0728 0.7725 0.0578
H18 H 0.0743 0.6080 0.0884
loop_
_geom_bond_atom_site_label_1
_geom_bond_atom_site_label_2
_geom_bond_site_symmetry_1
_geom_bond_site_symmetry_2
Cu1 O1 1_555 1_555
O1 C14 1_555 1_555
O2 Cu1 1_555 1_555
O3 C15 1_555 1_555
O4 C14 1_555 1_555
O5 C10 1_555 1_555
N1 Cu1 1_555 1_555
N2 Cu1 1_555 1_555
C1 N2 1_555 1_555
H1 C1 1_555 1_555
C2 C1 1_555 1_555
H2 C2 1_555 1_555
C3 C2 1_555 1_555
H3 C3 1_555 1_555
C4 C3 1_555 1_555
H4 C4 1_555 1_555
C5 N2 1_555 1_555
C6 N1 1_555 1_555
H5 C6 1_555 1_555
C7 N1 1_555 1_555
C8 C7 1_555 1_555
H6 C8 1_555 1_555
C9 C8 1_555 1_555
H7 C9 1_555 1_555
C10 C9 1_555 1_555
C11 C10 1_555 1_555
H8 C11 1_555 1_555
C12 C7 1_555 1_555
H9 C12 1_555 1_555
C13 O5 1_555 1_555
H10 C13 1_555 1_555
H11 C13 1_555 1_555
H12 C13 1_555 1_555
C14 C15 1_555 1_555
C15 O2 1_555 1_555
O6 H13 1_555 1_555
H14 O6 1_555 1_555
O7 H15 1_555 1_555
H16 O7 1_555 1_555
O8 H17 1_555 1_555
H18 O8 1_555 1_555
Cu1A O4 1_555 1_555
O4A Cu1 1_555 1_555
C4 C5 1_555 1_555
C5 C6 1_555 1_555
C11 C12 1_555 1_555

#END
