
#######################################################################
#
#                 Cambridge Crystallographic Data Centre
#                                CCDC 
#
#######################################################################
#
# If this CIF has been generated from an entry in the Cambridge 
# Structural Database, then it will include bibliographic, chemical, 
# crystal, experimental, refinement or atomic coordinate data resulting 
# from the CCDC's data processing and validation procedures.
#
#######################################################################

data_PIGXIN
_symmetry_cell_setting           monoclinic
_symmetry_space_group_name_H-M   'P 21/m'
_symmetry_Int_Tables_number      11
_space_group_name_Hall           '-P 2yb'
loop_
_symmetry_equiv_pos_site_id
_symmetry_equiv_pos_as_xyz
1 x,y,z
2 -x,1/2+y,-z
3 -x,-y,-z
4 x,1/2-y,z
_cell_length_a                   10.3400(12)
_cell_length_b                   19.931(2)
_cell_length_c                   10.3723(12)
_cell_angle_alpha                90
_cell_angle_beta                 119.8130(10)
_cell_angle_gamma                90
_cell_volume                     1854.69
loop_
_atom_site_label
_atom_site_type_symbol
_atom_site_fract_x
_atom_site_fract_y
_atom_site_fract_z
Zn1 Zn 0.62784(5) 0.40398(3) 0.45310(5)
Zn2 Zn 0.95358(5) 0.40491(3) 0.12343(5)
N1 N 0.7091(4) 0.4406(2) 0.3315(4)
N2 N 0.6139(5) 0.4559(2) 0.1852(4)
N3 N 0.6848(4) 0.4545(2) 0.1126(4)
N4 N 0.8320(4) 0.4393(2) 0.2082(4)
N5 N 0.9677(5) 0.4096(3) 0.4644(5)
H1 H 1.0495 0.4017 0.4607
H2 H 0.9673 0.4043 0.5485
N6 N 0.7566(4) 0.4199(2) 0.6714(4)
N7 N 0.9065(4) 0.4241(2) 0.7197(4)
N8 N 0.9768(4) 0.4304(2) 0.8622(4)
N9 N 0.8784(4) 0.4300(2) 0.9130(4)
N10 N 0.6124(5) 0.4200(2) 0.7926(5)
H3 H 0.5282 0.4152 0.7084
H4 H 0.6118 0.4226 0.8770
N11 N 0.1711(4) 0.4194(2) 0.2552(4)
N12 N 0.2216(4) 0.4230(2) 0.4038(4)
N13 N 0.3639(4) 0.4262(2) 0.4757(4)
N14 N 0.4161(4) 0.4251(2) 0.3773(4)
N15 N 0.2949(5) 0.4168(2) 0.1111(4)
H5 H 0.2106 0.4133 0.0263
H6 H 0.3802 0.4178 0.1116
N16 N 0.6358(7) 0.3048(2) 0.4244(5)
N17 N 0.6483(10) 0.2832(3) 0.3032(8)
N18 N 0.6402(17) 0.2500 0.6280(11)
H7 H 0.6329 0.2131 0.6656
N19 N 0.9232(5) 0.3048(2) 0.1007(6)
N20 N 0.8707(9) 0.2827(3) -0.0466(7)
N21 N 1.0039(15) 0.2500 0.3248(9)
H8 H 1.0179 0.2891 0.3747
C1 C 0.8433(5) 0.4297(2) 0.3418(5)
C2 C 0.7422(5) 0.4233(2) 0.7923(5)
C3 C 0.2931(5) 0.4205(2) 0.2416(5)
C4 C 0.6506(10) 0.2500 0.4966(10)
C5 C 0.9520(11) 0.2500 0.1751(9)
Zn1C Zn 0.62784(5) 0.09602(3) 0.45310(5)
Zn1_2 Zn 0.62784(5) 0.40398(3) -0.54690(5)
Zn1_3 Zn 1.62784(5) 0.40398(3) 0.45310(5)
Zn2_2 Zn 0.95358(5) 0.40491(3) 1.12343(5)
Zn2_3 Zn -0.04642(5) 0.40491(3) 0.12343(5)
Zn2C Zn 0.95358(5) 0.09509(3) 0.12343(5)
N1C N 0.7091(4) 0.0594(2) 0.3315(4)
N2C N 0.6139(5) 0.0441(2) 0.1852(4)
N3C N 0.6848(4) 0.0455(2) 0.1126(4)
N4C N 0.8320(4) 0.0607(2) 0.2082(4)
N4_2 N 0.8320(4) 0.4393(2) 1.2082(4)
N5C N 0.9677(5) 0.0904(3) 0.4644(5)
H1C H 1.0495 0.0983 0.4607
H2C H 0.9673 0.0957 0.5485
N6_2 N 0.7566(4) 0.4199(2) -0.3286(4)
N6C N 0.7566(4) 0.0801(2) 0.6714(4)
N7_2 N 0.9065(4) 0.4241(2) -0.2803(4)
N8_2 N 0.9768(4) 0.4304(2) -0.1378(4)
N9_2 N 0.8784(4) 0.4300(2) -0.0870(4)
N10_2 N 0.6124(5) 0.4200(2) -0.2074(5)
H3_2 H 0.5282 0.4152 -0.2916
H4_2 H 0.6118 0.4226 -0.1230
N11_2 N 1.1711(4) 0.4194(2) 0.2552(4)
N11_3 N 1.1711(4) 0.4194(2) 1.2552(4)
N12_2 N 1.2216(4) 0.4230(2) 0.4038(4)
N13_2 N 1.3639(4) 0.4262(2) 0.4757(4)
N14_2 N 1.4161(4) 0.4251(2) 0.3773(4)
N14C N 0.4161(4) 0.0749(2) 0.3773(4)
N15_2 N 1.2949(5) 0.4168(2) 0.1111(4)
H5_2 H 1.2106 0.4133 0.0263
H6_2 H 1.3802 0.4178 0.1116
N16C N 0.6358(7) 0.1952(2) 0.4244(5)
N17C N 0.6483(10) 0.2168(3) 0.3032(8)
H7C H 0.6329 0.2869 0.6656
N19C N 0.9232(5) 0.1952(2) 0.1007(6)
N19_2 N 0.9232(5) 0.3048(2) 1.1007(6)
N20C N 0.8707(9) 0.2173(3) -0.0466(7)
H8C H 1.0179 0.2109 0.3747
C1C C 0.8433(5) 0.0703(2) 0.3418(5)
C2_2 C 0.7422(5) 0.4233(2) -0.2077(5)
C3_2 C 1.2931(5) 0.4205(2) 0.2416(5)
loop_
_geom_bond_atom_site_label_1
_geom_bond_atom_site_label_2
_geom_bond_site_symmetry_1
_geom_bond_site_symmetry_2
Zn1 N1 1_555 1_555
Zn2 N4 1_555 1_555
N1 N2 1_555 1_555
N2 N3 1_555 1_555
N3 N4 1_555 1_555
N4 C1 1_555 1_555
N5 H1 1_555 1_555
H2 N5 1_555 1_555
N6 Zn1 1_555 1_555
N7 N6 1_555 1_555
N8 N7 1_555 1_555
N9 N8 1_555 1_555
N10 H3 1_555 1_555
H4 N10 1_555 1_555
N11 N12 1_555 1_555
N12 N13 1_555 1_555
N13 N14 1_555 1_555
N14 Zn1 1_555 1_555
N15 H5 1_555 1_555
H6 N15 1_555 1_555
N16 Zn1 1_555 1_555
N17 N16 1_555 1_555
N18 H7 1_555 1_555
N19 Zn2 1_555 1_555
N20 N19 1_555 1_555
N21 H8 1_555 1_555
C1 N1 1_555 1_555
C2 N6 1_555 1_555
C3 N11 1_555 1_555
C4 N16 1_555 1_555
C5 N19 1_555 1_555
Zn1C N1C 1_555 1_555
Zn1_2 N6_2 1_555 1_555
Zn1_3 N14_2 1_555 1_555
Zn2_2 N9 1_555 1_555
Zn2_3 N11 1_555 1_555
Zn2C N4C 1_555 1_555
N1C N2C 1_555 1_555
N2C N3C 1_555 1_555
N3C N4C 1_555 1_555
N4C C1C 1_555 1_555
N4_2 Zn2_2 1_555 1_555
N5C H1C 1_555 1_555
H2C N5C 1_555 1_555
N6_2 N7_2 1_555 1_555
N6C Zn1C 1_555 1_555
N7_2 N8_2 1_555 1_555
N8_2 N9_2 1_555 1_555
N9_2 Zn2 1_555 1_555
N10_2 H3_2 1_555 1_555
H4_2 N10_2 1_555 1_555
N11_2 Zn2 1_555 1_555
N11_3 Zn2_2 1_555 1_555
N12_2 N11_2 1_555 1_555
N13_2 N12_2 1_555 1_555
N14_2 N13_2 1_555 1_555
N14C Zn1C 1_555 1_555
N15_2 H5_2 1_555 1_555
H6_2 N15_2 1_555 1_555
N16C C4 1_555 1_555
N17C N17 1_555 1_555
H7C N18 1_555 1_555
N19C C5 1_555 1_555
N19_2 Zn2_2 1_555 1_555
N20C N20 1_555 1_555
H8C N21 1_555 1_555
C1C N1C 1_555 1_555
C2_2 N6_2 1_555 1_555
C3_2 N11_2 1_555 1_555
N5 C1 1_555 1_555
N9 C2 1_555 1_555
N10 C2 1_555 1_555
N14 C3 1_555 1_555
N15 C3 1_555 1_555
N18 C4 1_555 1_555
N21 C5 1_555 1_555
Zn1C N16C 1_555 1_555
Zn2C N19C 1_555 1_555
N5C C1C 1_555 1_555
N9_2 C2_2 1_555 1_555
N10_2 C2_2 1_555 1_555
N14_2 C3_2 1_555 1_555
N15_2 C3_2 1_555 1_555
N16C N17C 1_555 1_555
N19C N20C 1_555 1_555

#END
