
#######################################################################
#
#                 Cambridge Crystallographic Data Centre
#                                CCDC 
#
#######################################################################
#
# If this CIF has been generated from an entry in the Cambridge 
# Structural Database, then it will include bibliographic, chemical, 
# crystal, experimental, refinement or atomic coordinate data resulting 
# from the CCDC's data processing and validation procedures.
#
#######################################################################

data_PIGYEK
_symmetry_cell_setting           triclinic
_symmetry_space_group_name_H-M   'P -1'
_symmetry_Int_Tables_number      2
_space_group_name_Hall           '-P 1'
loop_
_symmetry_equiv_pos_site_id
_symmetry_equiv_pos_as_xyz
1 x,y,z
2 -x,-y,-z
_cell_length_a                   9.488(2)
_cell_length_b                   10.785(2)
_cell_length_c                   11.084(2)
_cell_angle_alpha                74.820(2)
_cell_angle_beta                 81.331(2)
_cell_angle_gamma                72.638(2)
_cell_volume                     1041.51
loop_
_atom_site_label
_atom_site_type_symbol
_atom_site_fract_x
_atom_site_fract_y
_atom_site_fract_z
Cu1 Cu 0.56968(6) 0.83214(6) 0.51747(5)
S1 S 0.38143(14) 0.96928(13) 0.29079(11)
O1 O 0.4456(5) 1.0423(4) 0.1761(3)
O2 O 0.2231(4) 1.0230(4) 0.3048(4)
O3 O 0.4450(4) 0.9855(3) 0.4000(3)
O4 O 0.4242(5) 0.8275(4) 0.2939(4)
N1 N 0.3888(4) 0.7990(4) 0.6188(4)
N2 N 0.2170(4) 0.7951(4) 0.7748(4)
N3 N 0.7058(5) 0.6797(4) 0.6318(4)
N4 N 0.8603(5) 0.5678(4) 0.7763(4)
N5 N 0.7491(4) 0.8481(4) 0.4023(4)
N6 N 0.9198(4) 0.8473(4) 0.2445(4)
C1 C 0.3505(5) 0.8163(5) 0.7342(4)
H5 H 0.4079 0.8399 0.7809
C2 C 0.2744(6) 0.7647(5) 0.5864(5)
H6 H 0.2713 0.7457 0.5098
C3 C 0.1668(6) 0.7621(6) 0.6807(5)
H7 H 0.0776 0.7423 0.6818
C4 C 0.1410(5) 0.8067(5) 0.8966(4)
C5 C 0.2211(5) 0.7837(5) 0.9965(5)
H8 H 0.3241 0.7597 0.9868
C6 C -0.0108(5) 0.8416(5) 0.9089(5)
H9 H -0.0638 0.8553 0.8403
C7 C 0.7455(6) 0.6728(5) 0.7420(5)
H10 H 0.6989 0.7340 0.7907
C8 C 0.8009(7) 0.5719(6) 0.5938(5)
H11 H 0.7999 0.5503 0.5181
C9 C 0.8950(7) 0.5020(6) 0.6803(5)
H12 H 0.9697 0.4240 0.6767
C10 C 0.9316(6) 0.5319(5) 0.8904(5)
C11 C 1.0835(6) 0.4820(5) 0.8894(5)
H13 H 1.1397 0.4693 0.8151
C12 C 0.8484(6) 0.5489(5) 1.0013(5)
H14 H 0.7459 0.5814 1.0021
C13 C 0.7843(5) 0.8282(5) 0.2882(4)
H15 H 0.7249 0.8044 0.2437
C14 C 0.8663(6) 0.8791(5) 0.4341(5)
H16 H 0.8724 0.8973 0.5104
C15 C 0.9711(6) 0.8792(5) 0.3383(5)
H17 H 1.0614 0.8974 0.3360
C16 C 0.9952(5) 0.8330(5) 0.1247(4)
C17 C 0.1482(6) 0.7964(6) 1.1125(5)
H18 H 0.2016 0.7805 1.1814
C18 C -0.0839(5) 0.8562(5) 1.0233(5)
H19 H -0.1869 0.8817 1.0321
Cu1A Cu 0.43032(6) 1.16786(6) 0.48253(5)
O3A O 0.5550(4) 1.0145(3) 0.6000(3)
C16_2 C -0.0048(5) 0.8330(5) 1.1247(4)
N6_2 N -0.0802(4) 0.8473(4) 1.2445(4)
C13_2 C -0.2157(5) 0.8282(5) 1.2882(4)
N5_2 N -0.2509(4) 0.8481(4) 1.4023(4)
Cu1_2 Cu -0.43032(6) 0.83214(6) 1.51747(5)
Cu1A_2 Cu 1.43032(6) 0.16786(6) 1.48253(5)
N3A N 1.2942(5) 0.3203(4) 1.3682(4)
C14_2 C -0.1337(6) 0.8791(5) 1.4341(5)
H16_2 H -0.1276 0.8973 1.5104
C15_2 C -0.0289(6) 0.8792(5) 1.3383(5)
H17_2 H 0.0614 0.8974 1.3360
H15_2 H -0.2751 0.8044 1.2437
S1A S 0.61857(14) 1.03072(13) 0.70921(11)
O1A O 0.5544(5) 0.9577(4) 0.8239(3)
O2A O 0.7769(4) 0.9770(4) 0.6952(4)
O4A O 0.5758(5) 1.1725(4) 0.7061(4)
N1A N 0.6112(4) 1.2010(4) 0.3812(4)
N3A_2 N 0.2942(5) 1.3203(4) 0.3682(4)
N5A N 0.2509(4) 1.1519(4) 0.5977(4)
C12A C 1.1516(6) 0.4511(5) 0.9987(5)
C11A C 0.9165(6) 0.5180(5) 1.1106(5)
C17_2 C 1.1482(6) 0.7964(6) 0.1125(5)
C18_2 C 0.9161(5) 0.8562(5) 0.0233(5)
C7A C 1.2545(6) 0.3272(5) 1.2580(5)
C8A C 1.1991(7) 0.4281(6) 1.4062(5)
C10A C 1.0684(6) 0.4681(5) 1.1096(5)
H14A H 1.2541 0.4186 0.9979
H13A H 0.8603 0.5307 1.1849
C5_2 C 1.2211(5) 0.7837(5) -0.0035(5)
H18_2 H 1.2016 0.7805 0.1814
C6_2 C 0.9892(5) 0.8416(5) -0.0911(5)
H19_2 H 0.8131 0.8817 0.0321
N4A N 1.1397(5) 0.4322(4) 1.2237(4)
H10A H 1.3011 0.2660 1.2093
H11A H 1.2001 0.4497 1.4819
C9A C 1.1050(7) 0.4980(6) 1.3197(5)
C4_2 C 1.1410(5) 0.8067(5) -0.1034(4)
H8_2 H 1.3241 0.7597 -0.0132
H9_2 H 0.9362 0.8553 -0.1597
H12A H 1.0303 0.5760 1.3233
N2_2 N 1.2170(4) 0.7951(4) -0.2252(4)
C1_2 C 1.3505(5) 0.8163(5) -0.2658(4)
C3_2 C 1.1668(6) 0.7621(6) -0.3193(5)
N1_2 N 1.3888(4) 0.7990(4) -0.3812(4)
H5_2 H 1.4079 0.8399 -0.2191
C2_2 C 1.2744(6) 0.7647(5) -0.4136(5)
H7_2 H 1.0776 0.7423 -0.3182
Cu1_3 Cu 1.56968(6) 0.83214(6) -0.48253(5)
H6_2 H 1.2713 0.7457 -0.4902
O5 O 0.4366(5) 1.2192(5) -0.0578(4)
H1 H 0.484(7) 1.190(6) -0.121(4)
H2 H 0.443(7) 1.152(4) 0.004(4)
O6 O 0.5740(12) 0.5678(9) 0.3874(10)
H3 H 0.547(16) 0.645(7) 0.405(13)
H4 H 0.490(9) 0.563(15) 0.370(14)
O7 O 0.5060(10) 0.5189(9) 0.1379(9)
loop_
_geom_bond_atom_site_label_1
_geom_bond_atom_site_label_2
_geom_bond_site_symmetry_1
_geom_bond_site_symmetry_2
Cu1 O3 1_555 1_555
S1 O1 1_555 1_555
O2 S1 1_555 1_555
O3 S1 1_555 1_555
O4 S1 1_555 1_555
O5 H1 1_555 1_555
H2 O5 1_555 1_555
O6 H3 1_555 1_555
H4 O6 1_555 1_555
N1 Cu1 1_555 1_555
N2 C1 1_555 1_555
N3 Cu1 1_555 1_555
N4 C7 1_555 1_555
N5 Cu1 1_555 1_555
N6 C13 1_555 1_555
C1 N1 1_555 1_555
H5 C1 1_555 1_555
C2 N1 1_555 1_555
H6 C2 1_555 1_555
C3 N2 1_555 1_555
H7 C3 1_555 1_555
C4 N2 1_555 1_555
C5 C4 1_555 1_555
H8 C5 1_555 1_555
C6 C4 1_555 1_555
H9 C6 1_555 1_555
C7 N3 1_555 1_555
H10 C7 1_555 1_555
C8 N3 1_555 1_555
H11 C8 1_555 1_555
C9 N4 1_555 1_555
H12 C9 1_555 1_555
C10 N4 1_555 1_555
C11 C10 1_555 1_555
H13 C11 1_555 1_555
C12 C10 1_555 1_555
H14 C12 1_555 1_555
C13 N5 1_555 1_555
H15 C13 1_555 1_555
C14 N5 1_555 1_555
H16 C14 1_555 1_555
C15 N6 1_555 1_555
H17 C15 1_555 1_555
C16 N6 1_555 1_555
C17 C5 1_555 1_555
H18 C17 1_555 1_555
C18 C6 1_555 1_555
H19 C18 1_555 1_555
Cu1A O3 1_555 1_555
O3A Cu1 1_555 1_555
C16_2 C17 1_555 1_555
N6_2 C16_2 1_555 1_555
C13_2 N6_2 1_555 1_555
N5_2 C13_2 1_555 1_555
Cu1_2 N5_2 1_555 1_555
Cu1A_2 N3A 1_555 1_555
N3A C7A 1_555 1_555
C14_2 N5_2 1_555 1_555
H16_2 C14_2 1_555 1_555
C15_2 N6_2 1_555 1_555
H17_2 C15_2 1_555 1_555
H15_2 C13_2 1_555 1_555
S1A O3A 1_555 1_555
O1A S1A 1_555 1_555
O2A S1A 1_555 1_555
O4A S1A 1_555 1_555
N1A Cu1A 1_555 1_555
N3A_2 Cu1A 1_555 1_555
N5A Cu1A 1_555 1_555
C12A C11 1_555 1_555
C11A C12 1_555 1_555
C17_2 C16 1_555 1_555
C18_2 C16 1_555 1_555
C7A N4A 1_555 1_555
C8A N3A 1_555 1_555
C10A C12A 1_555 1_555
H14A C12A 1_555 1_555
H13A C11A 1_555 1_555
C5_2 C17_2 1_555 1_555
H18_2 C17_2 1_555 1_555
C6_2 C18_2 1_555 1_555
H19_2 C18_2 1_555 1_555
N4A C10A 1_555 1_555
H10A C7A 1_555 1_555
H11A C8A 1_555 1_555
C9A C8A 1_555 1_555
C4_2 C5_2 1_555 1_555
H8_2 C5_2 1_555 1_555
H9_2 C6_2 1_555 1_555
H12A C9A 1_555 1_555
N2_2 C4_2 1_555 1_555
C1_2 N2_2 1_555 1_555
C3_2 N2_2 1_555 1_555
N1_2 C1_2 1_555 1_555
H5_2 C1_2 1_555 1_555
C2_2 C3_2 1_555 1_555
H7_2 C3_2 1_555 1_555
Cu1_3 N1_2 1_555 1_555
H6_2 C2_2 1_555 1_555
C2 C3 1_555 1_555
C8 C9 1_555 1_555
C14 C15 1_555 1_555
C18 C16_2 1_555 1_555
Cu1A O3A 1_555 1_555
C14_2 C15_2 1_555 1_555
C11A C10A 1_555 1_555
C6_2 C4_2 1_555 1_555
N4A C9A 1_555 1_555
N1_2 C2_2 1_555 1_555

#END
