
#######################################################################
#
#                 Cambridge Crystallographic Data Centre
#                                CCDC 
#
#######################################################################
#
# If this CIF has been generated from an entry in the Cambridge 
# Structural Database, then it will include bibliographic, chemical, 
# crystal, experimental, refinement or atomic coordinate data resulting 
# from the CCDC's data processing and validation procedures.
#
#######################################################################

data_PIGZOV
_symmetry_cell_setting           orthorhombic
_symmetry_space_group_name_H-M   'P 21 21 21'
_symmetry_Int_Tables_number      19
_space_group_name_Hall           'P 2ac 2ab'
loop_
_symmetry_equiv_pos_site_id
_symmetry_equiv_pos_as_xyz
1 x,y,z
2 1/2-x,-y,1/2+z
3 -x,1/2+y,1/2-z
4 1/2+x,1/2-y,-z
_cell_length_a                   7.631(9)
_cell_length_b                   8.910(10)
_cell_length_c                   14.946(17)
_cell_angle_alpha                90
_cell_angle_beta                 90
_cell_angle_gamma                90
_cell_volume                     1016.21
loop_
_atom_site_label
_atom_site_type_symbol
_atom_site_fract_x
_atom_site_fract_y
_atom_site_fract_z
Cu1 Cu -0.02552(10) -0.15942(8) -0.45346(4)
Cl1 Cl -0.0584(2) -0.40057(16) -0.49054(10)
N1 N -0.0686(6) 0.1794(5) -0.3476(3)
C1 C -0.0442(10) -0.0291(6) -0.5620(4)
H1 H 0.0413 -0.0463 -0.6089
H2 H -0.1614 -0.0102 -0.5844
C2 C 0.0095(9) 0.0565(6) -0.4911(3)
H3 H 0.1326 0.0873 -0.4943
C3 C -0.1060(8) 0.1656(7) -0.4431(4)
H4 H -0.0933 0.2635 -0.4707
H5 H -0.2270 0.1346 -0.4504
C4 C 0.1028(7) 0.2487(6) -0.3297(3)
H6 H 0.1054 0.3485 -0.3556
H7 H 0.1940 0.1897 -0.3581
C5 C -0.2031(7) 0.2711(7) -0.3059(4)
H8 H -0.3174 0.2284 -0.3185
H9 H -0.1998 0.3713 -0.3313
C6 C 0.1395(7) 0.2591(7) -0.2296(3)
H10 H 0.1453 0.1569 -0.2055
N2 N -0.0007(6) 0.3400(5) -0.1822(3)
H11 H 0.0168 0.4123 -0.1452
C7 C 0.3140(7) 0.3360(10) -0.2112(5)
H12 H 0.3327 0.3421 -0.1478
H13 H 0.3124 0.4353 -0.2361
H14 H 0.4070 0.2791 -0.2381
C8 C -0.1773(8) 0.2807(7) -0.2066(4)
H15 H -0.1918 0.1816 -0.1807
H16 H -0.2666 0.3455 -0.1813
Cu1B Cu 0.02552(10) 0.34058(8) -0.04654(4)
N2B N 0.0007(6) -0.1600(5) -0.3178(3)
H11B H -0.0168 -0.0877 -0.3548
loop_
_geom_bond_atom_site_label_1
_geom_bond_atom_site_label_2
_geom_bond_site_symmetry_1
_geom_bond_site_symmetry_2
Cu1 Cl1 1_555 1_555
N1 C3 1_555 1_555
C1 Cu1 1_555 1_555
H1 C1 1_555 1_555
H2 C1 1_555 1_555
C2 Cu1 1_555 1_555
H3 C2 1_555 1_555
C3 C2 1_555 1_555
H4 C3 1_555 1_555
H5 C3 1_555 1_555
C4 N1 1_555 1_555
H6 C4 1_555 1_555
H7 C4 1_555 1_555
C5 N1 1_555 1_555
H8 C5 1_555 1_555
H9 C5 1_555 1_555
C6 C4 1_555 1_555
H10 C6 1_555 1_555
N2 C6 1_555 1_555
H11 N2 1_555 1_555
C7 C6 1_555 1_555
H12 C7 1_555 1_555
H13 C7 1_555 1_555
H14 C7 1_555 1_555
C8 C5 1_555 1_555
H15 C8 1_555 1_555
H16 C8 1_555 1_555
Cu1B N2 1_555 1_555
N2B Cu1 1_555 1_555
H11B N2B 1_555 1_555
C1 C2 1_555 1_555
N2 C8 1_555 1_555

#END
