
#######################################################################
#
#                 Cambridge Crystallographic Data Centre
#                                CCDC 
#
#######################################################################
#
# If this CIF has been generated from an entry in the Cambridge 
# Structural Database, then it will include bibliographic, chemical, 
# crystal, experimental, refinement or atomic coordinate data resulting 
# from the CCDC's data processing and validation procedures.
#
#######################################################################

data_PIHBUE
_symmetry_cell_setting           triclinic
_symmetry_space_group_name_H-M   'P -1'
_symmetry_Int_Tables_number      2
_space_group_name_Hall           '-P 1'
loop_
_symmetry_equiv_pos_site_id
_symmetry_equiv_pos_as_xyz
1 x,y,z
2 -x,-y,-z
_cell_length_a                   11.621(3)
_cell_length_b                   12.283(3)
_cell_length_c                   12.460(3)
_cell_angle_alpha                69.081(4)
_cell_angle_beta                 83.069(4)
_cell_angle_gamma                75.290(4)
_cell_volume                     1605.98
loop_
_atom_site_label
_atom_site_type_symbol
_atom_site_fract_x
_atom_site_fract_y
_atom_site_fract_z
Ag1 Ag 0.13889(5) 0.36812(5) -0.95355(5)
Ni1 Ni -0.25486(6) 0.69752(6) -0.54226(6)
O1 O 0.2216(4) 0.4477(4) -0.6087(4)
O2 O -0.1689(3) 0.5983(4) -0.6410(4)
N1 N 0.2198(5) 0.1478(4) -0.3265(4)
N2 N 0.1152(4) 0.2790(4) -0.5152(4)
N3 N 0.0670(4) 0.3623(4) -0.6132(4)
N4 N -0.0597(5) 0.6635(4) -0.9011(4)
N5 N -0.0363(5) 0.3842(4) -0.8435(4)
N6 N -0.3616(4) 0.5869(5) -0.6623(5)
N7 N -0.3887(4) 0.6620(4) -0.5993(4)
N8 N -0.4036(4) 0.7866(4) -0.4690(4)
C1 C 0.2679(6) 0.0857(6) -0.2230(6)
H1 H 0.3343 0.1043 -0.2052
C2 C 0.2217(7) -0.0052(6) -0.1423(6)
H2 H 0.2572 -0.0450 -0.0716
N9 N 0.1277(6) -0.0372(5) -0.1633(5)
C3 C 0.0799(6) 0.0247(6) -0.2667(6)
H3 H 0.0147 0.0043 -0.2847
C4 C 0.1234(5) 0.1178(5) -0.3478(6)
C5 C 0.0654(6) 0.1933(5) -0.4580(5)
C6 C -0.0454(8) 0.1750(8) -0.4920(8)
H4 H -0.0679 0.2323 -0.5663
H5 H -0.0312 0.0955 -0.4948
H6 H -0.1084 0.1853 -0.4366
C7 C 0.1273(5) 0.4473(5) -0.6503(5)
C8 C 0.0783(5) 0.5550(5) -0.7498(5)
C9 C 0.1237(6) 0.6566(6) -0.7783(6)
H7 H 0.1882 0.6541 -0.7392
C10 C 0.0750(6) 0.7600(6) -0.8629(6)
H8 H 0.1026 0.8292 -0.8792
C11 C -0.0152(6) 0.7587(5) -0.9228(5)
H9 H -0.0471 0.8282 -0.9819
C12 C -0.0169(5) 0.5628(5) -0.8140(5)
C13 C -0.0828(5) 0.4668(5) -0.7944(5)
C14 C -0.0971(7) 0.3030(6) -0.8365(6)
H10 H -0.0629 0.2437 -0.8682
C15 C -0.2094(6) 0.3036(6) -0.7838(6)
H11 H -0.2512 0.2478 -0.7826
C16 C -0.2574(6) 0.3888(6) -0.7335(6)
H12 H -0.3321 0.3905 -0.6967
C17 C -0.1945(5) 0.4722(5) -0.7374(5)
C18 C -0.2415(5) 0.5592(5) -0.6768(5)
C19 C -0.6031(6) 0.6730(7) -0.6020(7)
H13 H -0.5777 0.6230 -0.6485
H14 H -0.6430 0.6316 -0.5331
H15 H -0.6567 0.7456 -0.6442
C20 C -0.4974(5) 0.7023(5) -0.5711(5)
C21 C -0.5073(5) 0.7784(5) -0.4999(5)
C22 C -0.6151(6) 0.8341(6) -0.4597(6)
H16 H -0.6858 0.8293 -0.4840
N10 N -0.6207(5) 0.8939(6) -0.3879(6)
C23 C -0.5161(7) 0.8987(7) -0.3574(7)
H17 H -0.5163 0.9395 -0.3072
C24 C -0.4084(6) 0.8465(6) -0.3966(6)
H18 H -0.3383 0.8527 -0.3727
N11 N 0.2877(8) 0.4236(9) -0.9196(9)
C25 C 0.3573(8) 0.4394(10) -0.8767(10)
C26 C 0.4444(9) 0.4530(13) -0.8106(11)
H19 H 0.4988 0.4961 -0.8621
H20 H 0.4875 0.3754 -0.7651
H21 H 0.4043 0.4964 -0.7611
Cl1 Cl 0.2612(2) 0.02809(19) -0.79854(19)
O3 O 0.3856(5) -0.0050(8) -0.7861(8)
O4 O 0.2256(16) 0.1554(8) -0.837(2)
O5 O 0.2224(15) -0.019(2) -0.8691(19)
O6 O 0.2161(14) -0.013(2) -0.6819(9)
Ag1A Ag -0.13889(5) 0.63188(5) -1.04645(5)
Ni1A Ni 0.25486(6) 0.30248(6) -0.45774(6)
O1A O -0.2216(4) 0.5523(4) -0.3913(4)
N1A N -0.2198(5) 0.8522(4) -0.6735(4)
N2A N -0.1152(4) 0.7210(4) -0.4848(4)
N4A N 0.0597(5) 0.3365(4) -1.0989(4)
C27 C 0.4624(14) 0.2055(15) -0.0701(15)
C28 C 0.5263(13) 0.2334(13) -0.0043(14)
N12 N 0.5790(16) 0.2606(16) 0.0414(17)
O7? O 0.1963(13) 0.064(2) 0.2934(14)
O8? O 0.2317(13) 0.1276(13) 0.0975(13)
O9? O 0.2228(11) -0.0728(11) 0.1963(16)
loop_
_geom_bond_atom_site_label_1
_geom_bond_atom_site_label_2
_geom_bond_site_symmetry_1
_geom_bond_site_symmetry_2
Ag1 N5 1_555 1_555
Ni1 O2 1_555 1_555
O1 C7 1_555 1_555
O2 C18 1_555 1_555
N1 C1 1_555 1_555
N2 N3 1_555 1_555
N3 C7 1_555 1_555
N4 C11 1_555 1_555
N5 C13 1_555 1_555
N6 N7 1_555 1_555
N7 Ni1 1_555 1_555
N8 Ni1 1_555 1_555
C1 H1 1_555 1_555
C2 C1 1_555 1_555
H2 C2 1_555 1_555
N9 C2 1_555 1_555
C3 N9 1_555 1_555
H3 C3 1_555 1_555
C4 N1 1_555 1_555
C5 N2 1_555 1_555
C6 C5 1_555 1_555
H4 C6 1_555 1_555
H5 C6 1_555 1_555
H6 C6 1_555 1_555
C7 C8 1_555 1_555
C8 C9 1_555 1_555
C9 H7 1_555 1_555
C10 C9 1_555 1_555
H8 C10 1_555 1_555
C11 C10 1_555 1_555
H9 C11 1_555 1_555
C12 N4 1_555 1_555
C13 C12 1_555 1_555
C14 N5 1_555 1_555
H10 C14 1_555 1_555
C15 C14 1_555 1_555
H11 C15 1_555 1_555
C16 C15 1_555 1_555
H12 C16 1_555 1_555
C17 C13 1_555 1_555
C18 N6 1_555 1_555
C19 H13 1_555 1_555
H14 C19 1_555 1_555
H15 C19 1_555 1_555
C20 N7 1_555 1_555
C21 N8 1_555 1_555
C22 C21 1_555 1_555
H16 C22 1_555 1_555
N10 C22 1_555 1_555
C23 N10 1_555 1_555
H17 C23 1_555 1_555
C24 N8 1_555 1_555
H18 C24 1_555 1_555
N11 Ag1 1_555 1_555
C25 N11 1_555 1_555
C26 C25 1_555 1_555
H19 C26 1_555 1_555
H20 C26 1_555 1_555
H21 C26 1_555 1_555
Cl1 O3 1_555 1_555
O4 Ag1 1_555 1_555
O5 Cl1 1_555 1_555
O6 Cl1 1_555 1_555
C27 C28 1_555 1_555
C28 N12 1_555 1_555
Ag1A N4 1_555 1_555
Ni1A O1 1_555 1_555
O1A Ni1 1_555 1_555
N1A Ni1 1_555 1_555
N2A Ni1 1_555 1_555
N4A Ag1 1_555 1_555
N1 Ni1A 1_555 1_555
N2 Ni1A 1_555 1_555
C3 C4 1_555 1_555
C4 C5 1_555 1_555
C8 C12 1_555 1_555
C16 C17 1_555 1_555
C17 C18 1_555 1_555
C19 C20 1_555 1_555
C20 C21 1_555 1_555
C23 C24 1_555 1_555
Cl1 O4 1_555 1_555

#END
