
#######################################################################
#
#                 Cambridge Crystallographic Data Centre
#                                CCDC 
#
#######################################################################
#
# If this CIF has been generated from an entry in the Cambridge 
# Structural Database, then it will include bibliographic, chemical, 
# crystal, experimental, refinement or atomic coordinate data resulting 
# from the CCDC's data processing and validation procedures.
#
#######################################################################

data_PIHCUF
_symmetry_cell_setting           tetragonal
_symmetry_space_group_name_H-M   'I -4 c 2'
_symmetry_Int_Tables_number      120
_space_group_name_Hall           'I -4 -2c'
loop_
_symmetry_equiv_pos_site_id
_symmetry_equiv_pos_as_xyz
1 x,y,z
2 y,-x,-z
3 -x,-y,z
4 -y,x,-z
5 y,x,1/2-z
6 -y,-x,1/2-z
7 -x,y,1/2+z
8 x,-y,1/2+z
9 1/2+x,1/2+y,1/2+z
10 1/2+y,1/2-x,1/2-z
11 1/2-x,1/2-y,1/2+z
12 1/2-y,1/2+x,1/2-z
13 1/2+y,1/2+x,-z
14 1/2-y,1/2-x,-z
15 1/2-x,1/2+y,z
16 1/2+x,1/2-y,z
_cell_length_a                   13.2301(4)
_cell_length_b                   13.2301(4)
_cell_length_c                   15.8544(4)
_cell_angle_alpha                90
_cell_angle_beta                 90
_cell_angle_gamma                90
_cell_volume                     2775.08
loop_
_atom_site_label
_atom_site_type_symbol
_atom_site_fract_x
_atom_site_fract_y
_atom_site_fract_z
Se1 Se 0.261780(16) -0.261780(16) -0.2500
Zn1 Zn 0.5000 -0.5000 0.0000
N1 N 0.39353(16) -0.45175(16) -0.07861(13)
N2 N 0.29609(16) -0.48657(16) -0.08083(15)
H1 H 0.2804 -0.5459 -0.0585
C1 C 0.1300(3) -0.4560(2) -0.1461(2)
H2 H 0.1188 -0.5287 -0.1388
H3 H 0.0900 -0.4187 -0.1043
H4 H 0.1092 -0.4358 -0.2029
C2 C 0.2385(2) -0.43300(19) -0.13411(17)
C3 C 0.29994(19) -0.35892(19) -0.16811(16)
C4 C 0.6040(2) -0.37300(19) 0.36796(15)
C5 C 0.5103(3) -0.3135(2) 0.35285(19)
H5 H 0.4589 -0.3324 0.3945
H6 H 0.4849 -0.3275 0.2960
H7 H 0.5253 -0.2412 0.3581
Se1A Se 0.738220(16) -0.261780(16) 0.2500
Zn1D Zn 0.5000 -0.5000 -0.5000
Zn1D_2 Zn 0.5000 -0.5000 0.5000
N1C N 0.45175(16) -0.60647(16) 0.07861(13)
N1E N 0.45175(16) -0.39353(16) -0.42139(13)
N1B N 0.60647(16) -0.54825(16) -0.07861(13)
N1A N 0.54825(16) -0.39353(16) 0.07861(13)
N1F N 0.60647(16) -0.45175(16) 0.42139(13)
N2E N 0.48657(16) -0.29609(16) -0.41917(15)
N2A N 0.51343(16) -0.29609(16) 0.08083(15)
N2F N 0.70391(16) -0.48657(16) 0.41917(15)
H1A H 0.4541 -0.2804 0.0585
H1F H 0.7196 -0.5459 0.4415
H1E H 0.5459 -0.2804 -0.4415
C1A C 0.5440(2) -0.1300(3) 0.1461(2)
C1F C 0.8700(3) -0.4560(2) 0.3539(2)
C1E C 0.4560(2) -0.1300(3) -0.3539(2)
H2A H 0.4713 -0.1188 0.1388
H2F H 0.8812 -0.5287 0.3612
H2E H 0.5287 -0.1188 -0.3612
H3A H 0.5813 -0.0900 0.1043
H3F H 0.9100 -0.4187 0.3957
H3E H 0.4187 -0.0900 -0.3957
H4A H 0.5642 -0.1092 0.2029
H4F H 0.8908 -0.4358 0.2971
H4E H 0.4358 -0.1092 -0.2971
C2E C 0.43300(19) -0.2385(2) -0.36589(17)
C2A C 0.56700(19) -0.2385(2) 0.13411(17)
C2F C 0.7615(2) -0.43300(19) 0.36589(17)
C3E C 0.35892(19) -0.29994(19) -0.33189(16)
C3A C 0.64108(19) -0.29994(19) 0.16811(16)
C3F C 0.70006(19) -0.35892(19) 0.33189(16)
C4D C 0.62700(19) -0.3960(2) 0.13204(15)
C4C C 0.37300(19) -0.3960(2) -0.36796(15)
C4F C 0.3960(2) -0.37300(19) -0.13204(15)
C5D C 0.6865(2) -0.4897(3) 0.14715(19)
C5C C 0.3135(2) -0.4897(3) -0.35285(19)
C5F C 0.4897(3) -0.3135(2) -0.14715(19)
H5D H 0.6676 -0.5411 0.1055
H5C H 0.3324 -0.5411 -0.3945
H5F H 0.5411 -0.3324 -0.1055
H6D H 0.6725 -0.5151 0.2040
H6C H 0.3275 -0.5151 -0.2960
H6F H 0.5151 -0.3275 -0.2040
H7D H 0.7588 -0.4747 0.1419
H7C H 0.2412 -0.4747 -0.3581
H7F H 0.4747 -0.2412 -0.1419
N3 N 0.21379(16) -0.71379(16) 0.00000(15)
O1 O 0.1973(3) -0.7946(2) 0.03605(12)
O2 O 0.1481(3) -0.6481(3) 0.0000
O1M O 0.2946(2) -0.6973(3) -0.03605(12)
loop_
_geom_bond_atom_site_label_1
_geom_bond_atom_site_label_2
_geom_bond_site_symmetry_1
_geom_bond_site_symmetry_2
Se1 C3 1_555 1_555
Zn1 N1 1_555 1_555
N1 N2 1_555 1_555
N2 H1 1_555 1_555
N3 O1 1_555 1_555
C1 H2 1_555 1_555
H3 C1 1_555 1_555
H4 C1 1_555 1_555
C2 N2 1_555 1_555
C3 C2 1_555 1_555
C4 C5 1_555 1_555
C5 H5 1_555 1_555
H6 C5 1_555 1_555
H7 C5 1_555 1_555
O2 N3 1_555 1_555
Se1A C3A 1_555 1_555
Zn1D N1E 1_555 1_555
Zn1D_2 N1F 1_555 1_555
N1C Zn1 1_555 1_555
N1E N2E 1_555 1_555
N1B Zn1 1_555 1_555
N1A Zn1 1_555 1_555
N1F C4 1_555 1_555
N2E H1E 1_555 1_555
N2A N1A 1_555 1_555
N2F N1F 1_555 1_555
H1A N2A 1_555 1_555
H1F N2F 1_555 1_555
C1A H2A 1_555 1_555
C1F H2F 1_555 1_555
C1E H2E 1_555 1_555
H3A C1A 1_555 1_555
H3F C1F 1_555 1_555
H3E C1E 1_555 1_555
H4A C1A 1_555 1_555
H4F C1F 1_555 1_555
H4E C1E 1_555 1_555
C2E N2E 1_555 1_555
C2A N2A 1_555 1_555
C2F N2F 1_555 1_555
C3E Se1 1_555 1_555
C3A C2A 1_555 1_555
C3F C4 1_555 1_555
C4D N1A 1_555 1_555
C4C N1E 1_555 1_555
C4F N1 1_555 1_555
C5D C4D 1_555 1_555
C5C C4C 1_555 1_555
C5F C4F 1_555 1_555
H5D C5D 1_555 1_555
H5C C5C 1_555 1_555
H5F C5F 1_555 1_555
H6D C5D 1_555 1_555
H6C C5C 1_555 1_555
H6F C5F 1_555 1_555
H7D C5D 1_555 1_555
H7C C5C 1_555 1_555
H7F C5F 1_555 1_555
O1M N3 1_555 1_555
C1 C2 1_555 1_555
C3 C4F 1_555 1_555
Se1A C3F 1_555 1_555
C1A C2A 1_555 1_555
C1F C2F 1_555 1_555
C1E C2E 1_555 1_555
C2E C3E 1_555 1_555
C2F C3F 1_555 1_555
C3E C4C 1_555 1_555
C3A C4D 1_555 1_555

#END
