
#######################################################################
#
#                 Cambridge Crystallographic Data Centre
#                                CCDC 
#
#######################################################################
#
# If this CIF has been generated from an entry in the Cambridge 
# Structural Database, then it will include bibliographic, chemical, 
# crystal, experimental, refinement or atomic coordinate data resulting 
# from the CCDC's data processing and validation procedures.
#
#######################################################################

data_PIHCEP
_symmetry_cell_setting           triclinic
_symmetry_space_group_name_H-M   'P -1'
_symmetry_Int_Tables_number      2
_space_group_name_Hall           '-P 1'
loop_
_symmetry_equiv_pos_site_id
_symmetry_equiv_pos_as_xyz
1 x,y,z
2 -x,-y,-z
_cell_length_a                   9.3331(3)
_cell_length_b                   10.4321(8)
_cell_length_c                   12.8190(9)
_cell_angle_alpha                110.626(6)
_cell_angle_beta                 97.843(3)
_cell_angle_gamma                91.907(4)
_cell_volume                     1152.71
loop_
_atom_site_label
_atom_site_type_symbol
_atom_site_fract_x
_atom_site_fract_y
_atom_site_fract_z
Hg1 Hg -0.202490(14) 0.352610(14) -0.223480(11)
Hg2 Hg -0.670240(14) 0.178340(13) -0.076110(10)
Se1 Se 0.25401(4) 0.49093(4) -0.48752(3)
S1 S -0.22515(9) 0.50306(9) -0.02455(7)
S2 S -0.13352(11) 0.12570(9) -0.21997(8)
S3 S -0.74845(9) 0.10408(9) 0.06498(7)
S4 S -0.70466(11) 0.24648(9) -0.23654(8)
N1 N -0.0291(3) 0.4535(3) -0.2830(2)
N2 N 0.0259(3) 0.5866(3) -0.2303(2)
H1 H 0.002(5) 0.639(4) -0.160(4)
N3 N 0.6073(3) 0.3482(3) -0.3537(2)
N4 N 0.5523(3) 0.2364(3) -0.4468(2)
H2 H 0.597(5) 0.162(4) -0.470(3)
N5 N -0.4314(3) 0.3210(3) 0.0049(2)
N6 N -0.0020(3) 0.2396(3) 0.0072(3)
N7 N -0.4890(3) 0.0115(3) 0.1419(3)
N8 N -0.6896(4) -0.0033(3) -0.4156(3)
C1 C 0.0354(4) 0.4033(3) -0.3738(3)
C2 C -0.0012(4) 0.2591(4) -0.4551(3)
H3 H 0.0256 0.1950 -0.4168
H4 H 0.0525 0.2433 -0.5184
H5 H -0.1057 0.2443 -0.4834
C3 C 0.1349(4) 0.5048(4) -0.3763(3)
C4 C 0.1261(4) 0.6213(4) -0.2828(3)
C5 C 0.2007(4) 0.7615(4) -0.2403(3)
H6 H 0.1284 0.8292 -0.2280
H7 H 0.2586 0.7714 -0.2957
H8 H 0.2645 0.7770 -0.1688
C6 C 0.5175(4) 0.4455(3) -0.3511(3)
C7 C 0.5421(4) 0.5842(3) -0.2622(3)
H9 H 0.4854 0.5877 -0.2024
H10 H 0.5118 0.6528 -0.2949
H11 H 0.6456 0.6039 -0.2303
C8 C 0.4046(3) 0.3946(3) -0.4433(3)
C9 C 0.4318(4) 0.2612(3) -0.5023(3)
C10 C 0.3514(4) 0.1540(4) -0.6060(3)
H12 H 0.4206 0.0992 -0.6502
H13 H 0.2934 0.1981 -0.6514
H14 H 0.2871 0.0941 -0.5851
C11 C -0.3486(4) 0.3949(4) -0.0087(3)
C12 C -0.0564(4) 0.1926(3) -0.0855(3)
C13 C -0.5930(4) 0.0484(3) 0.1068(3)
C14 C -0.6945(4) 0.0951(4) -0.3400(3)
Hg1_2 Hg 0.797510(14) 0.352610(14) -0.223480(11)
Hg2A Hg -0.329760(14) -0.178340(13) 0.076110(10)
N3_2 N -0.3927(3) 0.3482(3) -0.3537(2)
N7A N -0.5110(3) -0.0115(3) -0.1419(3)
loop_
_geom_bond_atom_site_label_1
_geom_bond_atom_site_label_2
_geom_bond_site_symmetry_1
_geom_bond_site_symmetry_2
Hg1 S1 1_555 1_555
Hg2 S3 1_555 1_555
Se1 C3 1_555 1_555
S1 C11 1_555 1_555
S2 Hg1 1_555 1_555
S3 C13 1_555 1_555
S4 Hg2 1_555 1_555
N1 Hg1 1_555 1_555
N2 N1 1_555 1_555
H1 N2 1_555 1_555
N3 N4 1_555 1_555
N4 H2 1_555 1_555
N5 Hg2 1_555 1_555
N6 C12 1_555 1_555
N7 C13 1_555 1_555
N8 C14 1_555 1_555
C1 N1 1_555 1_555
C2 C1 1_555 1_555
H3 C2 1_555 1_555
H4 C2 1_555 1_555
H5 C2 1_555 1_555
C3 C1 1_555 1_555
C4 N2 1_555 1_555
C5 C4 1_555 1_555
H6 C5 1_555 1_555
H7 C5 1_555 1_555
H8 C5 1_555 1_555
C6 N3 1_555 1_555
C7 C6 1_555 1_555
H9 C7 1_555 1_555
H10 C7 1_555 1_555
H11 C7 1_555 1_555
C8 Se1 1_555 1_555
C9 N4 1_555 1_555
C10 C9 1_555 1_555
H12 C10 1_555 1_555
H13 C10 1_555 1_555
H14 C10 1_555 1_555
C11 N5 1_555 1_555
C12 S2 1_555 1_555
C14 S4 1_555 1_555
Hg1_2 N3 1_555 1_555
Hg2A N7 1_555 1_555
N3_2 Hg1 1_555 1_555
N7A Hg2 1_555 1_555
C3 C4 1_555 1_555
C6 C8 1_555 1_555
C8 C9 1_555 1_555

#END
