
#######################################################################
#
#                 Cambridge Crystallographic Data Centre
#                                CCDC 
#
#######################################################################
#
# If this CIF has been generated from an entry in the Cambridge 
# Structural Database, then it will include bibliographic, chemical, 
# crystal, experimental, refinement or atomic coordinate data resulting 
# from the CCDC's data processing and validation procedures.
#
#######################################################################

data_PIHCAL
_symmetry_cell_setting           orthorhombic
_symmetry_space_group_name_H-M   'P n m a'
_symmetry_Int_Tables_number      62
_space_group_name_Hall           '-P 2ac 2n'
loop_
_symmetry_equiv_pos_site_id
_symmetry_equiv_pos_as_xyz
1 x,y,z
2 1/2-x,-y,1/2+z
3 1/2+x,1/2-y,1/2-z
4 -x,1/2+y,-z
5 -x,-y,-z
6 1/2+x,y,1/2-z
7 1/2-x,1/2+y,1/2+z
8 x,1/2-y,z
_cell_length_a                   21.0616(14)
_cell_length_b                   10.2915(6)
_cell_length_c                   8.7973(5)
_cell_angle_alpha                90
_cell_angle_beta                 90
_cell_angle_gamma                90
_cell_volume                     1906.86
loop_
_atom_site_label
_atom_site_type_symbol
_atom_site_fract_x
_atom_site_fract_y
_atom_site_fract_z
Hg1 Hg 0.648427(12) -0.7500 0.28478(3)
Se1 Se 0.50760(3) -0.2500 0.05515(8)
Cl1 Cl 0.58974(8) -0.7500 0.5230(2)
Cl2 Cl 0.76358(8) -0.7500 0.2708(2)
N1 N 0.61758(18) -0.5653(4) 0.1545(5)
N2 N 0.62135(19) -0.5608(4) 0.0004(5)
H4 H 0.643(2) -0.613(5) -0.048(6)
C2 C 0.5897(2) -0.4597(5) -0.0584(5)
C3 C 0.5860(2) -0.4361(5) -0.2256(5)
H5 H 0.6239 -0.3885 -0.2588
H6 H 0.5480 -0.3847 -0.2486
H7 H 0.5837 -0.5194 -0.2791
C4 C 0.5644(2) -0.3934(4) 0.0644(5)
C5 C 0.5828(2) -0.4623(5) 0.1947(5)
C6 C 0.5692(2) -0.4330(5) 0.3577(5)
H8 H 0.6049 -0.3849 0.4016
H9 H 0.5632 -0.5145 0.4135
H10 H 0.5305 -0.3804 0.3649
Hg1_2 Hg 0.648427(12) 0.2500 0.28478(3)
N1G N 0.61758(18) 0.0653(4) 0.1545(5)
N1G_2 N 0.61758(18) -0.9347(4) 0.1545(5)
N2G N 0.62135(19) 0.0608(4) 0.0004(5)
H4G H 0.643(2) 0.113(5) -0.048(6)
C2G C 0.5897(2) -0.0403(5) -0.0584(5)
C3G C 0.5860(2) -0.0639(5) -0.2256(5)
H5G H 0.6239 -0.1115 -0.2588
H6G H 0.5480 -0.1153 -0.2486
H7G H 0.5837 0.0194 -0.2791
C4G C 0.5644(2) -0.1066(4) 0.0644(5)
C5G C 0.5828(2) -0.0377(5) 0.1947(5)
C6G C 0.5692(2) -0.0670(5) 0.3577(5)
H8G H 0.6049 -0.1151 0.4016
H9G H 0.5632 0.0145 0.4135
H10G H 0.5305 -0.1196 0.3649
S1 S 0.74177(8) -0.2500 0.2886(2)
O1 O 0.8021(2) -0.2500 0.3831(6)
C1 C 0.7515(3) -0.1187(5) 0.1592(6)
H1 H 0.7486 -0.0362 0.2145
H2 H 0.7182 -0.1225 0.0816
H3 H 0.7932 -0.1251 0.1104
C1G C 0.7515(3) -0.3813(5) 0.1592(6)
H1G H 0.7486 -0.4638 0.2145
H2G H 0.7182 -0.3775 0.0816
H3G H 0.7932 -0.3749 0.1104
loop_
_geom_bond_atom_site_label_1
_geom_bond_atom_site_label_2
_geom_bond_site_symmetry_1
_geom_bond_site_symmetry_2
Hg1 Cl1 1_555 1_555
Se1 C4 1_555 1_555
Cl2 Hg1 1_555 1_555
S1 O1 1_555 1_555
C1 S1 1_555 1_555
H1 C1 1_555 1_555
H2 C1 1_555 1_555
H3 C1 1_555 1_555
N1 Hg1 1_555 1_555
N2 N1 1_555 1_555
H4 N2 1_555 1_555
C2 N2 1_555 1_555
C3 C2 1_555 1_555
H5 C3 1_555 1_555
H6 C3 1_555 1_555
H7 C3 1_555 1_555
C4 C2 1_555 1_555
C5 N1 1_555 1_555
C6 C5 1_555 1_555
H8 C6 1_555 1_555
H9 C6 1_555 1_555
H10 C6 1_555 1_555
Hg1_2 N1G 1_555 1_555
C1G S1 1_555 1_555
H1G C1G 1_555 1_555
H2G C1G 1_555 1_555
H3G C1G 1_555 1_555
N1G N2G 1_555 1_555
N1G_2 Hg1 1_555 1_555
N2G H4G 1_555 1_555
C2G N2G 1_555 1_555
C3G C2G 1_555 1_555
H5G C3G 1_555 1_555
H6G C3G 1_555 1_555
H7G C3G 1_555 1_555
C4G Se1 1_555 1_555
C5G N1G 1_555 1_555
C6G C5G 1_555 1_555
H8G C6G 1_555 1_555
H9G C6G 1_555 1_555
H10G C6G 1_555 1_555
C4 C5 1_555 1_555
C2G C4G 1_555 1_555
C4G C5G 1_555 1_555

#END
