
#######################################################################
#
#                 Cambridge Crystallographic Data Centre
#                                CCDC 
#
#######################################################################
#
# If this CIF has been generated from an entry in the Cambridge 
# Structural Database, then it will include bibliographic, chemical, 
# crystal, experimental, refinement or atomic coordinate data resulting 
# from the CCDC's data processing and validation procedures.
#
#######################################################################

data_PIHCOZ
_symmetry_cell_setting           monoclinic
_symmetry_space_group_name_H-M   'C 2/c'
_symmetry_Int_Tables_number      15
_space_group_name_Hall           '-C 2yn'
loop_
_symmetry_equiv_pos_site_id
_symmetry_equiv_pos_as_xyz
1 x,y,z
2 1/2+x,1/2+y,z
3 -x,y,1/2-z
4 1/2-x,1/2+y,1/2-z
5 -x,-y,-z
6 1/2-x,1/2-y,-z
7 x,-y,1/2+z
8 1/2+x,1/2-y,1/2+z
_cell_length_a                   11.427(4)
_cell_length_b                   13.537(4)
_cell_length_c                   18.835(4)
_cell_angle_alpha                90
_cell_angle_beta                 93.16(3)
_cell_angle_gamma                90
_cell_volume                     2909.11
loop_
_atom_site_label
_atom_site_type_symbol
_atom_site_fract_x
_atom_site_fract_y
_atom_site_fract_z
Br1 Br 0.23711(5) 0.26421(4) -0.72733(3)
Se1 Se -0.30359(4) 0.59851(3) -0.50127(2)
Cu1 Cu 0.0000 0.46549(6) -0.2500
O1 O 0.0000 0.3012(3) -0.2500
H1 H -0.0614 0.2672 -0.2400
N1 N -0.1233(3) 0.5303(3) -0.6762(2)
N2 N -0.2196(3) 0.4714(3) -0.6857(2)
H2 H -0.2340 0.4344 -0.7223
N3 N -0.1232(3) 0.4851(3) -0.32732(19)
N4 N -0.2120(3) 0.5819(3) 0.1625(2)
H3 H -0.2229 0.6310 0.1903
C1 C -0.0470(4) 0.3504(4) -0.0842(3)
H4 H 0.0099 0.3839 -0.0536
H5 H -0.0864 0.3014 -0.0575
H6 H -0.0084 0.3190 -0.1222
C2 C -0.1338(4) 0.4228(3) -0.1142(2)
C3 C -0.2381(4) 0.5451(3) -0.5842(2)
C4 C -0.2898(4) 0.4781(4) -0.6307(2)
C5 C -0.4016(4) 0.5786(4) -0.1306(3)
H7 H -0.3869 0.6466 -0.1413
H8 H -0.4567 0.5517 -0.1658
H9 H -0.4333 0.5739 -0.0846
C6 C -0.0516(4) 0.3673(3) 0.1110(2)
H10 H -0.0213 0.3462 0.1570
H11 H -0.0920 0.3134 0.0873
H12 H 0.0119 0.3885 0.0833
C7 C -0.1350(4) 0.5487(3) -0.3808(2)
C8 C -0.2335(4) 0.5218(3) -0.4260(2)
C9 C -0.2801(4) 0.5616(3) 0.1041(2)
C10 C -0.3808(4) 0.6262(4) 0.0826(3)
H13 H -0.3527 0.6853 0.0610
H14 H -0.4326 0.5919 0.0492
H15 H -0.4223 0.6434 0.1238
Se1F Se -0.30359(4) 0.40149(3) -0.00127(2)
Cu1F Cu 0.0000 0.53451(6) -0.7500
Cu1F_2 Cu 0.0000 0.53451(6) 0.2500
H1B H 0.0614 0.2672 -0.2600
N1F N -0.1233(3) 0.4697(3) -0.1762(2)
N1D N 0.1233(3) 0.4697(3) -0.3238(2)
N2F N -0.2196(3) 0.5286(3) -0.1857(2)
H2F H -0.2340 0.5656 -0.2223
N3F N -0.1232(3) 0.5149(3) 0.17268(19)
N3B N 0.1232(3) 0.4851(3) -0.17268(19)
N4F N -0.2120(3) 0.4181(3) -0.3375(2)
H3F H -0.2229 0.3690 -0.3097
C1F C -0.0470(4) 0.6496(4) -0.5842(3)
H4F H 0.0099 0.6161 -0.5536
H5F H -0.0864 0.6986 -0.5575
H6F H -0.0084 0.6810 -0.6222
C2F C -0.1338(4) 0.5772(3) -0.6142(2)
C3F C -0.2381(4) 0.4549(3) -0.0842(2)
C4F C -0.2898(4) 0.5219(4) -0.1307(2)
C5F C -0.4016(4) 0.4214(4) -0.6306(3)
H7F H -0.3869 0.3534 -0.6413
H8F H -0.4567 0.4483 -0.6658
H9F H -0.4333 0.4261 -0.5846
C6F C -0.0516(4) 0.6327(3) -0.3890(2)
H10F H -0.0213 0.6538 -0.3430
H11F H -0.0920 0.6866 -0.4127
H12F H 0.0119 0.6115 -0.4167
C7F C -0.1350(4) 0.4513(3) 0.1192(2)
C8F C -0.2335(4) 0.4782(3) 0.0740(2)
C9F C -0.2801(4) 0.4384(3) -0.3959(2)
C10F C -0.3808(4) 0.3738(4) -0.4174(3)
H13F H -0.3527 0.3147 -0.4390
H14F H -0.4326 0.4081 -0.4508
H15F H -0.4223 0.3566 -0.3762
O2 O 0.0000 0.1098(3) -0.7500
loop_
_geom_bond_atom_site_label_1
_geom_bond_atom_site_label_2
_geom_bond_site_symmetry_1
_geom_bond_site_symmetry_2
Se1 C3 1_555 1_555
Cu1 O1 1_555 1_555
O1 H1 1_555 1_555
N1 N2 1_555 1_555
N2 H2 1_555 1_555
N3 Cu1 1_555 1_555
N4 H3 1_555 1_555
C1 H4 1_555 1_555
H5 C1 1_555 1_555
H6 C1 1_555 1_555
C2 C1 1_555 1_555
C3 C4 1_555 1_555
C4 N2 1_555 1_555
C5 H7 1_555 1_555
H8 C5 1_555 1_555
H9 C5 1_555 1_555
C6 H10 1_555 1_555
H11 C6 1_555 1_555
H12 C6 1_555 1_555
C7 N3 1_555 1_555
C8 Se1 1_555 1_555
C9 N4 1_555 1_555
C10 C9 1_555 1_555
H13 C10 1_555 1_555
H14 C10 1_555 1_555
H15 C10 1_555 1_555
Se1F C3F 1_555 1_555
Cu1F N1 1_555 1_555
Cu1F_2 N3F 1_555 1_555
H1B O1 1_555 1_555
N1F Cu1 1_555 1_555
N1D Cu1 1_555 1_555
N2F N1F 1_555 1_555
H2F N2F 1_555 1_555
N3F N4 1_555 1_555
N3B Cu1 1_555 1_555
N4F N3 1_555 1_555
H3F N4F 1_555 1_555
C1F H4F 1_555 1_555
H5F C1F 1_555 1_555
H6F C1F 1_555 1_555
C2F N1 1_555 1_555
C3F C2 1_555 1_555
C4F C5 1_555 1_555
C5F C4 1_555 1_555
H7F C5F 1_555 1_555
H8F C5F 1_555 1_555
H9F C5F 1_555 1_555
C6F C7 1_555 1_555
H10F C6F 1_555 1_555
H11F C6F 1_555 1_555
H12F C6F 1_555 1_555
C7F C6 1_555 1_555
C8F C9 1_555 1_555
C9F C8 1_555 1_555
C10F C9F 1_555 1_555
H13F C10F 1_555 1_555
H14F C10F 1_555 1_555
H15F C10F 1_555 1_555
C2 N1F 1_555 1_555
C3 C2F 1_555 1_555
C7 C8 1_555 1_555
Se1F C8F 1_555 1_555
N2F C4F 1_555 1_555
N3F C7F 1_555 1_555
N4F C9F 1_555 1_555
C1F C2F 1_555 1_555
C3F C4F 1_555 1_555
C7F C8F 1_555 1_555

#END
