
#######################################################################
#
#                 Cambridge Crystallographic Data Centre
#                                CCDC 
#
#######################################################################
#
# If this CIF has been generated from an entry in the Cambridge 
# Structural Database, then it will include bibliographic, chemical, 
# crystal, experimental, refinement or atomic coordinate data resulting 
# from the CCDC's data processing and validation procedures.
#
#######################################################################

data_PIHDIU
_symmetry_cell_setting           monoclinic
_symmetry_space_group_name_H-M   'C 2/c'
_symmetry_Int_Tables_number      15
_space_group_name_Hall           '-C 2yn'
loop_
_symmetry_equiv_pos_site_id
_symmetry_equiv_pos_as_xyz
1 x,y,z
2 1/2+x,1/2+y,z
3 -x,y,1/2-z
4 1/2-x,1/2+y,1/2-z
5 -x,-y,-z
6 1/2-x,1/2-y,-z
7 x,-y,1/2+z
8 1/2+x,1/2-y,1/2+z
_cell_length_a                   22.5978(8)
_cell_length_b                   10.5625(3)
_cell_length_c                   15.1083(5)
_cell_angle_alpha                90
_cell_angle_beta                 116.217(2)
_cell_angle_gamma                90
_cell_volume                     3235.21
loop_
_atom_site_label
_atom_site_type_symbol
_atom_site_fract_x
_atom_site_fract_y
_atom_site_fract_z
Au1 Au 0.0000 0.019236(18) 0.2500
Se1 Se -0.306478(17) 0.53016(3) 0.10022(3)
Fe1 Fe 0.0000 0.52230(6) 0.2500
O1 O -0.02591(13) 0.5065(2) 0.0979(2)
H1 H -0.0592 0.4569 0.0638
H2 H -0.0464 0.5595 0.0613
N1 N 0.0000 0.3157(4) 0.2500
N2 N 0.0000 -0.2770(4) 0.2500
N3 N -0.10379(15) 0.5135(3) 0.2255(2)
N4 N -0.11870(15) 0.4329(3) 0.2841(2)
H3 H -0.0838 0.3899 0.3338
N5 N -0.37741(16) 0.1781(3) -0.0099(3)
N6 N -0.35476(17) 0.2227(3) -0.0747(3)
H4 H -0.3659 0.1706 -0.1306
C1 C 0.0000 0.2079(5) 0.2500
C2 C 0.0000 -0.1695(5) 0.2500
C3 C -0.18409(18) 0.4253(3) 0.2562(3)
C4 C -0.2126(2) 0.3429(4) 0.3071(3)
H5 H -0.2491 0.3872 0.3121
H6 H -0.1786 0.3226 0.3734
H7 H -0.2290 0.2645 0.2695
C5 C -0.21404(18) 0.5033(3) 0.1740(3)
C6 C -0.16246(17) 0.5563(3) 0.1582(3)
C7 C -0.16658(19) 0.6501(4) 0.0825(3)
H8 H -0.1774 0.7335 0.0998
H9 H -0.2010 0.6244 0.0180
H10 H -0.1241 0.6544 0.0799
C8 C -0.33238(17) 0.3726(3) 0.0336(3)
C9 C -0.36312(17) 0.2702(3) 0.0573(3)
C10 C -0.3800(2) 0.2547(4) 0.1416(3)
H11 H -0.4171 0.1960 0.1229
H12 H -0.3921 0.3371 0.1586
H13 H -0.3417 0.2210 0.1987
C11 C -0.32907(18) 0.3401(3) -0.0528(3)
C12 C -0.3037(2) 0.4079(4) -0.1144(3)
H14 H -0.2578 0.3832 -0.0947
H15 H -0.3059 0.4994 -0.1054
H16 H -0.3305 0.3863 -0.1839
Se1B Se 0.306478(17) 0.53016(3) 0.39978(3)
Fe1_2 Fe 0.0000 -0.47770(6) 0.2500
O1B O 0.02591(13) 0.5065(2) 0.4021(2)
H1B H 0.0592 0.4569 0.4362
H2B H 0.0464 0.5595 0.4387
N2_2 N 0.0000 0.7230(4) 0.2500
N3B N 0.10379(15) 0.5135(3) 0.2745(2)
N4B N 0.11870(15) 0.4329(3) 0.2159(2)
H3B H 0.0838 0.3899 0.1662
N5B N 0.37741(16) 0.1781(3) 0.5099(3)
N6B N 0.35476(17) 0.2227(3) 0.5747(3)
H4B H 0.3659 0.1706 0.6306
C3B C 0.18409(18) 0.4253(3) 0.2438(3)
C4B C 0.2126(2) 0.3429(4) 0.1929(3)
H5B H 0.2491 0.3872 0.1879
H6B H 0.1786 0.3226 0.1266
H7B H 0.2290 0.2645 0.2305
C5B C 0.21404(18) 0.5033(3) 0.3260(3)
C6B C 0.16246(17) 0.5563(3) 0.3418(3)
C7B C 0.16658(19) 0.6501(4) 0.4175(3)
H8B H 0.1774 0.7335 0.4002
H9B H 0.2010 0.6244 0.4820
H10B H 0.1241 0.6544 0.4201
C8B C 0.33238(17) 0.3726(3) 0.4664(3)
C9B C 0.36312(17) 0.2702(3) 0.4427(3)
C10B C 0.3800(2) 0.2547(4) 0.3584(3)
H11B H 0.4171 0.1960 0.3771
H12B H 0.3921 0.3371 0.3414
H13B H 0.3417 0.2210 0.3013
C11B C 0.32907(18) 0.3401(3) 0.5528(3)
C12B C 0.3037(2) 0.4079(4) 0.6144(3)
H14B H 0.2578 0.3832 0.5947
H15B H 0.3059 0.4994 0.6054
H16B H 0.3305 0.3863 0.6839
Au2 Au 0.0000 0.0000 0.0000
N7 N -0.05173(16) -0.2798(3) -0.0317(2)
C13 C -0.03426(19) -0.1766(4) -0.0220(3)
N7D N 0.05173(16) 0.2798(3) 0.0317(2)
C13D C 0.03426(19) 0.1766(4) 0.0220(3)
loop_
_geom_bond_atom_site_label_1
_geom_bond_atom_site_label_2
_geom_bond_site_symmetry_1
_geom_bond_site_symmetry_2
Au1 C1 1_555 1_555
Au2 C13 1_555 1_555
Se1 C5 1_555 1_555
Fe1 O1 1_555 1_555
O1 H1 1_555 1_555
H2 O1 1_555 1_555
N1 Fe1 1_555 1_555
N2 C2 1_555 1_555
N3 Fe1 1_555 1_555
N4 N3 1_555 1_555
H3 N4 1_555 1_555
N5 N6 1_555 1_555
N6 H4 1_555 1_555
N7 C13 1_555 1_555
C1 N1 1_555 1_555
C2 Au1 1_555 1_555
C3 N4 1_555 1_555
C4 C3 1_555 1_555
H5 C4 1_555 1_555
H6 C4 1_555 1_555
H7 C4 1_555 1_555
C5 C3 1_555 1_555
C6 N3 1_555 1_555
C7 C6 1_555 1_555
H8 C7 1_555 1_555
H9 C7 1_555 1_555
H10 C7 1_555 1_555
C8 Se1 1_555 1_555
C9 N5 1_555 1_555
C10 C9 1_555 1_555
H11 C10 1_555 1_555
H12 C10 1_555 1_555
H13 C10 1_555 1_555
C11 N6 1_555 1_555
C12 C11 1_555 1_555
H14 C12 1_555 1_555
H15 C12 1_555 1_555
H16 C12 1_555 1_555
Se1B C5B 1_555 1_555
Fe1_2 N2 1_555 1_555
O1B Fe1 1_555 1_555
H1B O1B 1_555 1_555
H2B O1B 1_555 1_555
N2_2 Fe1 1_555 1_555
N3B Fe1 1_555 1_555
N4B N3B 1_555 1_555
H3B N4B 1_555 1_555
N5B N6B 1_555 1_555
N6B H4B 1_555 1_555
N7D C13D 1_555 1_555
C3B N4B 1_555 1_555
C4B C3B 1_555 1_555
H5B C4B 1_555 1_555
H6B C4B 1_555 1_555
H7B C4B 1_555 1_555
C5B C3B 1_555 1_555
C6B N3B 1_555 1_555
C7B C6B 1_555 1_555
H8B C7B 1_555 1_555
H9B C7B 1_555 1_555
H10B C7B 1_555 1_555
C8B Se1B 1_555 1_555
C9B N5B 1_555 1_555
C10B C9B 1_555 1_555
H11B C10B 1_555 1_555
H12B C10B 1_555 1_555
H13B C10B 1_555 1_555
C11B N6B 1_555 1_555
C12B C11B 1_555 1_555
H14B C12B 1_555 1_555
H15B C12B 1_555 1_555
H16B C12B 1_555 1_555
C13D Au2 1_555 1_555
C5 C6 1_555 1_555
C8 C9 1_555 1_555
C8 C11 1_555 1_555
C5B C6B 1_555 1_555
C8B C9B 1_555 1_555
C8B C11B 1_555 1_555

#END
