
#######################################################################
#
#                 Cambridge Crystallographic Data Centre
#                                CCDC 
#
#######################################################################
#
# If this CIF has been generated from an entry in the Cambridge 
# Structural Database, then it will include bibliographic, chemical, 
# crystal, experimental, refinement or atomic coordinate data resulting 
# from the CCDC's data processing and validation procedures.
#
#######################################################################

data_PIHDAM
_symmetry_cell_setting           orthorhombic
_symmetry_space_group_name_H-M   'P b c a'
_symmetry_Int_Tables_number      61
_space_group_name_Hall           '-P 2ac 2ab'
loop_
_symmetry_equiv_pos_site_id
_symmetry_equiv_pos_as_xyz
1 x,y,z
2 1/2-x,-y,1/2+z
3 -x,1/2+y,1/2-z
4 1/2+x,1/2-y,-z
5 -x,-y,-z
6 1/2+x,y,1/2-z
7 x,1/2-y,1/2+z
8 1/2-x,1/2+y,z
_cell_length_a                   10.944(2)
_cell_length_b                   13.516(3)
_cell_length_c                   23.043(5)
_cell_angle_alpha                90
_cell_angle_beta                 90
_cell_angle_gamma                90
_cell_volume                     3408.5
loop_
_atom_site_label
_atom_site_type_symbol
_atom_site_fract_x
_atom_site_fract_y
_atom_site_fract_z
Cd1 Cd -0.41924(2) -0.079390(17) -0.205660(10)
Se1 Se -0.69768(3) 0.23404(3) -0.050140(14)
S1 S -0.47679(7) 0.03454(7) -0.30168(4)
S2 S -0.32391(8) -0.24443(7) -0.25311(4)
N1 N -0.5859(3) 0.1576(2) 0.11337(12)
N2 N -0.5482(3) 0.2537(2) 0.10887(13)
N3 N -0.4942(3) 0.0555(2) -0.15578(12)
N4 N -0.5739(3) -0.1403(2) 0.15375(13)
N5 N -0.7303(2) -0.0010(2) -0.30002(12)
N6 N -0.0934(3) -0.1735(2) -0.28522(13)
C1 C -0.3185(3) -0.0352(3) -0.04868(16)
H1 H -0.2857 -0.0068 -0.0835
H2 H -0.2552 -0.0399 -0.0200
H3 H -0.3833 0.0060 -0.0343
C2 C -0.3673(3) -0.1360(3) -0.06145(14)
C3 C -0.6268(3) 0.2194(2) 0.02462(14)
C4 C -0.5705(3) 0.2931(3) 0.05673(15)
C5 C -0.4659(3) -0.3956(3) -0.04122(15)
H4 H -0.5527 -0.3981 -0.0354
H5 H -0.4251 -0.4150 -0.0061
H6 H -0.4435 -0.4398 -0.0720
C6 C -0.3143(3) 0.0044(3) 0.11264(16)
H7 H -0.3465 0.0573 0.0894
H8 H -0.2451 -0.0244 0.0934
H9 H -0.2894 0.0300 0.1497
C7 C -0.5898(3) 0.0723(3) -0.12118(14)
C8 C -0.5816(3) 0.1675(2) -0.09768(14)
C9 C -0.5236(3) -0.2097(2) 0.12028(14)
C10 C -0.5795(3) -0.3088(3) 0.11190(16)
H10 H -0.6492 -0.3154 0.1369
H11 H -0.5207 -0.3591 0.1212
H12 H -0.6047 -0.3160 0.0722
C11 C -0.6259(3) 0.0136(2) -0.29998(13)
C12 C -0.1880(3) -0.2024(2) -0.27163(14)
H13 H -0.479(3) -0.280(3) -0.1366(17)
H14 H -0.635(3) -0.146(3) 0.1737(16)
Cd1D Cd -0.58076(2) 0.079390(17) 0.205660(10)
Cd1E Cd -0.91924(2) -0.079390(17) -0.294340(10)
Cd1E_2 Cd 0.08076(2) -0.079390(17) -0.294340(10)
Se1D Se -0.30232(3) -0.23404(3) 0.050140(14)
N1D N -0.4141(3) -0.1576(2) -0.11337(12)
N2D N -0.4518(3) -0.2537(2) -0.10887(13)
N3D N -0.5058(3) -0.0555(2) 0.15578(12)
N4D N -0.4261(3) 0.1403(2) -0.15375(13)
N5E N -0.2303(2) -0.0010(2) -0.19998(12)
N6E N -0.5934(3) -0.1735(2) -0.21478(13)
C1D C -0.6815(3) 0.0352(3) 0.04868(16)
H1D H -0.7143 0.0068 0.0835
H2D H -0.7448 0.0399 0.0200
H3D H -0.6167 -0.0060 0.0343
C2D C -0.6327(3) 0.1360(3) 0.06145(14)
C3D C -0.3732(3) -0.2194(2) -0.02462(14)
C4D C -0.4295(3) -0.2931(3) -0.05673(15)
C5D C -0.5341(3) 0.3956(3) 0.04122(15)
H4D H -0.4473 0.3981 0.0354
H5D H -0.5749 0.4150 0.0061
H6D H -0.5565 0.4398 0.0720
C6D C -0.6857(3) -0.0044(3) -0.11264(16)
H7D H -0.6535 -0.0573 -0.0894
H8D H -0.7549 0.0244 -0.0934
H9D H -0.7106 -0.0300 -0.1497
C7D C -0.4102(3) -0.0723(3) 0.12118(14)
C8D C -0.4184(3) -0.1675(2) 0.09768(14)
C9D C -0.4764(3) 0.2097(2) -0.12028(14)
C10D C -0.4205(3) 0.3088(3) -0.11190(16)
H10D H -0.3508 0.3154 -0.1369
H11D H -0.4793 0.3591 -0.1212
H12D H -0.3953 0.3160 -0.0722
H13D H -0.521(3) 0.280(3) 0.1366(17)
H14D H -0.365(3) 0.146(3) -0.1737(16)
loop_
_geom_bond_atom_site_label_1
_geom_bond_atom_site_label_2
_geom_bond_site_symmetry_1
_geom_bond_site_symmetry_2
Cd1 S1 1_555 1_555
Se1 C3 1_555 1_555
S1 C11 1_555 1_555
S2 Cd1 1_555 1_555
N1 N2 1_555 1_555
N2 C4 1_555 1_555
N3 Cd1 1_555 1_555
N4 C9 1_555 1_555
N5 C11 1_555 1_555
N6 C12 1_555 1_555
C1 H1 1_555 1_555
H2 C1 1_555 1_555
H3 C1 1_555 1_555
C2 C1 1_555 1_555
C3 C4 1_555 1_555
C4 C5D 1_555 1_555
C5 H4 1_555 1_555
H5 C5 1_555 1_555
H6 C5 1_555 1_555
C6 H7 1_555 1_555
H8 C6 1_555 1_555
H9 C6 1_555 1_555
C7 N3 1_555 1_555
C8 Se1 1_555 1_555
C9 C10 1_555 1_555
C10 H10 1_555 1_555
H11 C10 1_555 1_555
H12 C10 1_555 1_555
C12 S2 1_555 1_555
H13 N2D 1_555 1_555
H14 N4 1_555 1_555
Cd1D N1 1_555 1_555
Cd1E N5 1_555 1_555
Cd1E_2 N6 1_555 1_555
Se1D C3D 1_555 1_555
N1D Cd1 1_555 1_555
N2D N1D 1_555 1_555
N3D N4 1_555 1_555
N4D N3 1_555 1_555
N5E Cd1 1_555 1_555
N6E Cd1 1_555 1_555
C1D H1D 1_555 1_555
H2D C1D 1_555 1_555
H3D C1D 1_555 1_555
C2D N1 1_555 1_555
C3D C2 1_555 1_555
C4D C5 1_555 1_555
C5D H4D 1_555 1_555
H5D C5D 1_555 1_555
H6D C5D 1_555 1_555
C6D C7 1_555 1_555
H7D C6D 1_555 1_555
H8D C6D 1_555 1_555
H9D C6D 1_555 1_555
C7D C6 1_555 1_555
C8D C9 1_555 1_555
C9D C8 1_555 1_555
C10D C9D 1_555 1_555
H10D C10D 1_555 1_555
H11D C10D 1_555 1_555
H12D C10D 1_555 1_555
H13D N2 1_555 1_555
H14D N4D 1_555 1_555
C2 N1D 1_555 1_555
C3 C2D 1_555 1_555
C7 C8 1_555 1_555
Cd1D N3D 1_555 1_555
Se1D C8D 1_555 1_555
N2D C4D 1_555 1_555
N3D C7D 1_555 1_555
N4D C9D 1_555 1_555
C1D C2D 1_555 1_555
C3D C4D 1_555 1_555
C7D C8D 1_555 1_555

#END
