
#######################################################################
#
#                 Cambridge Crystallographic Data Centre
#                                CCDC 
#
#######################################################################
#
# If this CIF has been generated from an entry in the Cambridge 
# Structural Database, then it will include bibliographic, chemical, 
# crystal, experimental, refinement or atomic coordinate data resulting 
# from the CCDC's data processing and validation procedures.
#
#######################################################################

data_PIHHIZ
_symmetry_cell_setting           monoclinic
_symmetry_space_group_name_H-M   'C 2/c'
_symmetry_Int_Tables_number      15
_space_group_name_Hall           '-C 2yn'
loop_
_symmetry_equiv_pos_site_id
_symmetry_equiv_pos_as_xyz
1 x,y,z
2 -x,y,1/2-z
3 1/2+x,1/2+y,z
4 1/2-x,1/2+y,1/2-z
5 -x,-y,-z
6 x,-y,1/2+z
7 1/2-x,1/2-y,-z
8 1/2+x,1/2-y,1/2+z
_cell_length_a                   18.536(5)
_cell_length_b                   10.488(5)
_cell_length_c                   15.022(5)
_cell_angle_alpha                90
_cell_angle_beta                 99.404(5)
_cell_angle_gamma                90
_cell_volume                     2881.11
loop_
_atom_site_label
_atom_site_type_symbol
_atom_site_fract_x
_atom_site_fract_y
_atom_site_fract_z
Zn1 Zn 0.628884(10) 0.22799(2) 0.073942(13)
O1 O 0.70854(8) 0.34630(15) 0.10701(9)
O2 O 0.85972(12) 0.24533(17) 0.10081(13)
O3 O 0.85008(9) 0.40986(16) 0.00853(10)
C1 C 0.84720(10) 0.45177(19) 0.16211(12)
N1 N 0.41197(9) 0.34574(18) 0.02219(13)
C2 C 0.80066(10) 0.5351(2) 0.28968(12)
H1 H 0.7644 0.5354 0.3258
N2 N 0.85921(8) 0.60917(15) 0.31342(10)
C3 C 0.79124(10) 0.45726(18) 0.21357(12)
C4 C 0.90636(11) 0.5323(2) 0.18543(14)
H2 H 0.9438 0.5336 0.1511
N3 N 0.52775(9) 0.29864(16) 0.06300(11)
O4 O 0.67662(10) 0.3832(2) 0.24127(12)
C5 C 0.84979(10) 0.3594(2) 0.08509(13)
C6 C 0.46642(11) 0.26765(19) 0.00779(14)
C7 C 0.90974(11) 0.6105(2) 0.25965(14)
H3 H 0.9489 0.6666 0.2728
C8 C 0.71936(10) 0.3889(2) 0.18738(13)
C9 C 0.33545(11) 0.3410(2) -0.02305(17)
H4 H 0.3339 0.3143 -0.0851
H5 H 0.3145 0.4258 -0.0237
C10 C 0.43911(13) 0.4298(3) 0.0886(2)
H6 H 0.4134 0.4945 0.1120
C11 C 0.51055(12) 0.4008(3) 0.11390(17)
H7 H 0.5429 0.4426 0.1583
C12 C 0.28978(11) 0.2500(2) 0.02326(17)
H8 H 0.2922 0.2750 0.0858
H9 H 0.3096 0.1645 0.0221
C13 C 0.45846(13) 0.1633(3) -0.05939(17)
H10 H 0.4193 0.1080 -0.0494
H11 H 0.5032 0.1155 -0.0533
H12 H 0.4478 0.1986 -0.1190
N1F N 0.08803(9) 0.15426(18) -0.02219(13)
N3F N -0.02775(9) 0.20136(16) -0.06300(11)
C6F C 0.03358(11) 0.23235(19) -0.00779(14)
C9F C 0.16455(11) 0.1590(2) 0.02305(17)
H4F H 0.1661 0.1857 0.0851
H5F H 0.1855 0.0742 0.0237
C10F C 0.06089(13) 0.0702(3) -0.0886(2)
H6F H 0.0866 0.0055 -0.1120
C11F C -0.01055(12) 0.0992(3) -0.11390(17)
H7F H -0.0429 0.0574 -0.1583
C12F C 0.21022(11) 0.2500(2) -0.02326(17)
H8F H 0.2078 0.2250 -0.0858
H9F H 0.1904 0.3355 -0.0221
C13F C 0.04154(13) 0.3367(3) 0.05939(17)
H10F H 0.0807 0.3920 0.0494
H11F H -0.0032 0.3845 0.0533
H12F H 0.0522 0.3014 0.1190
Zn1F Zn -0.128884(10) 0.27201(2) -0.073942(13)
O1F O -0.20854(8) 0.15370(15) -0.10701(9)
O2F O -0.35972(12) 0.25467(17) -0.10081(13)
O3F O -0.35008(9) 0.09014(16) -0.00853(10)
C1F C -0.34720(10) 0.04823(19) -0.16211(12)
C2F C -0.30066(10) -0.0351(2) -0.28968(12)
H1F H -0.2644 -0.0354 -0.3258
N2F N -0.35921(8) -0.10917(15) -0.31342(10)
C3F C -0.29124(10) 0.04274(18) -0.21357(12)
C4F C -0.40636(11) -0.0323(2) -0.18543(14)
H2F H -0.4438 -0.0336 -0.1511
O4F O -0.17662(10) 0.1168(2) -0.24127(12)
C5F C -0.34979(10) 0.1406(2) -0.08509(13)
C7F C -0.40974(11) -0.1105(2) -0.25965(14)
H3F H -0.4489 -0.1666 -0.2728
C8F C -0.21936(10) 0.1111(2) -0.18738(13)
Zn1_2 Zn -0.371116(10) 0.22799(2) 0.073942(13)
Zn1C Zn 0.871116(10) 0.72799(2) 0.426058(13)
Zn1E Zn -0.371116(10) -0.22799(2) -0.426058(13)
Zn1F_2 Zn 0.871116(10) 0.27201(2) -0.073942(13)
O3_2 O -0.14992(9) 0.40986(16) 0.00853(10)
O3F_2 O 0.64992(9) 0.09014(16) -0.00853(10)
N2C N 0.64079(8) 0.10917(15) 0.18658(10)
N2E N -0.14079(8) 0.39083(15) -0.18658(10)
O5 O 0.9077(8) 0.1472(5) 0.2645(3)
H13 H 0.8785 0.1755 0.2193
H14 H 0.9512 0.1688 0.2603
loop_
_geom_bond_atom_site_label_1
_geom_bond_atom_site_label_2
_geom_bond_site_symmetry_1
_geom_bond_site_symmetry_2
Zn1 O1 1_555 1_555
O1 C8 1_555 1_555
O2 C5 1_555 1_555
O3 C5 1_555 1_555
C1 C3 1_555 1_555
N1 C6 1_555 1_555
C2 H1 1_555 1_555
N2 C2 1_555 1_555
C3 C2 1_555 1_555
C4 C1 1_555 1_555
H2 C4 1_555 1_555
N3 Zn1 1_555 1_555
O4 C8 1_555 1_555
C5 C1 1_555 1_555
C6 N3 1_555 1_555
C7 N2 1_555 1_555
H3 C7 1_555 1_555
C8 C3 1_555 1_555
C9 N1 1_555 1_555
H4 C9 1_555 1_555
H5 C9 1_555 1_555
C10 N1 1_555 1_555
H6 C10 1_555 1_555
C11 N3 1_555 1_555
H7 C11 1_555 1_555
C12 C9 1_555 1_555
H8 C12 1_555 1_555
H9 C12 1_555 1_555
C13 C6 1_555 1_555
H10 C13 1_555 1_555
H11 C13 1_555 1_555
H12 C13 1_555 1_555
O5 H13 1_555 1_555
H14 O5 1_555 1_555
N1F C6F 1_555 1_555
N3F C6F 1_555 1_555
C6F C13F 1_555 1_555
C9F N1F 1_555 1_555
H4F C9F 1_555 1_555
H5F C9F 1_555 1_555
C10F N1F 1_555 1_555
H6F C10F 1_555 1_555
C11F N3F 1_555 1_555
H7F C11F 1_555 1_555
C12F C12 1_555 1_555
H8F C12F 1_555 1_555
H9F C12F 1_555 1_555
C13F H10F 1_555 1_555
H11F C13F 1_555 1_555
H12F C13F 1_555 1_555
Zn1F N3F 1_555 1_555
O1F Zn1F 1_555 1_555
O2F C5F 1_555 1_555
O3F C5F 1_555 1_555
C1F C3F 1_555 1_555
C2F H1F 1_555 1_555
N2F C2F 1_555 1_555
C3F C2F 1_555 1_555
C4F C1F 1_555 1_555
H2F C4F 1_555 1_555
O4F C8F 1_555 1_555
C5F C1F 1_555 1_555
C7F N2F 1_555 1_555
H3F C7F 1_555 1_555
C8F O1F 1_555 1_555
Zn1_2 O3F 1_555 1_555
Zn1C N2 1_555 1_555
Zn1E N2F 1_555 1_555
Zn1F_2 O3 1_555 1_555
O3_2 Zn1F 1_555 1_555
O3F_2 Zn1 1_555 1_555
N2C Zn1 1_555 1_555
N2E Zn1F 1_555 1_555
C4 C7 1_555 1_555
C10 C11 1_555 1_555
C9F C12F 1_555 1_555
C10F C11F 1_555 1_555
C3F C8F 1_555 1_555
C4F C7F 1_555 1_555

#END
