
#######################################################################
#
#                 Cambridge Crystallographic Data Centre
#                                CCDC 
#
#######################################################################
#
# If this CIF has been generated from an entry in the Cambridge 
# Structural Database, then it will include bibliographic, chemical, 
# crystal, experimental, refinement or atomic coordinate data resulting 
# from the CCDC's data processing and validation procedures.
#
#######################################################################

data_PIHJAS
_symmetry_cell_setting           monoclinic
_symmetry_space_group_name_H-M   'C 2/c'
_symmetry_Int_Tables_number      15
_space_group_name_Hall           '-C 2yn'
loop_
_symmetry_equiv_pos_site_id
_symmetry_equiv_pos_as_xyz
1 x,y,z
2 1/2+x,1/2+y,z
3 -x,y,1/2-z
4 1/2-x,1/2+y,1/2-z
5 -x,-y,-z
6 1/2-x,1/2-y,-z
7 x,-y,1/2+z
8 1/2+x,1/2-y,1/2+z
_cell_length_a                   14.3627(14)
_cell_length_b                   7.0254(7)
_cell_length_c                   16.8441(16)
_cell_angle_alpha                90
_cell_angle_beta                 98.104(2)
_cell_angle_gamma                90
_cell_volume                     1682.66
loop_
_atom_site_label
_atom_site_type_symbol
_atom_site_fract_x
_atom_site_fract_y
_atom_site_fract_z
C1 C 0.38587(17) 0.3441(4) -0.38289(15)
H1 H 0.3327 0.2647 -0.3808
C2 C 0.3741(2) 0.5108(4) -0.42745(17)
H2 H 0.3142 0.5443 -0.4553
C3 C 0.45195(17) 0.6285(3) -0.43051(14)
C4 C 0.53834(18) 0.5716(4) -0.38947(15)
H3 H 0.5929 0.6472 -0.3910
C5 C 0.54358(17) 0.4026(4) -0.34629(15)
H4 H 0.6027 0.3651 -0.3181
C6 C 0.44214(18) 0.8049(4) -0.47776(14)
H5 H 0.3846 0.8326 -0.5109
C7 C 0.29567(17) -0.0853(4) -0.32548(16)
Hg1 Hg 0.5000 0.026600(17) -0.2500
N1 N 0.46894(14) 0.2900(3) -0.34260(12)
N2 N 0.51099(16) 0.9213(3) -0.47440(14)
N3 N 0.26080(16) -0.1004(4) -0.39105(15)
S1 S 0.34209(5) -0.06103(12) -0.22826(4)
C1D C 0.61413(17) 1.6559(4) -0.61711(15)
H1D H 0.6673 1.7353 -0.6192
C2D C 0.6259(2) 1.4892(4) -0.57255(17)
H2D H 0.6858 1.4557 -0.5447
C3D C 0.54805(17) 1.3715(3) -0.56949(14)
C4D C 0.46166(18) 1.4284(4) -0.61053(15)
H3D H 0.4071 1.3528 -0.6090
C5D C 0.45642(17) 1.5974(4) -0.65371(15)
H4D H 0.3973 1.6349 -0.6819
C6D C 0.55786(18) 1.1951(4) -0.52224(14)
H5D H 0.6154 1.1674 -0.4891
C7B C 0.70433(17) -0.0853(4) -0.17452(16)
Hg1F Hg 0.5000 1.973400(17) -0.7500
N1B N 0.53106(14) 0.2900(3) -0.15740(12)
N1D N 0.53106(14) 1.7100(3) -0.65740(12)
N2D N 0.48901(16) 1.0787(3) -0.52560(14)
N3B N 0.73920(16) -0.1004(4) -0.10895(15)
S1B S 0.65791(5) -0.06103(12) -0.27174(4)
loop_
_geom_bond_atom_site_label_1
_geom_bond_atom_site_label_2
_geom_bond_site_symmetry_1
_geom_bond_site_symmetry_2
C1 H1 1_555 1_555
C2 C1 1_555 1_555
H2 C2 1_555 1_555
C3 C2 1_555 1_555
C4 C3 1_555 1_555
H3 C4 1_555 1_555
C5 C4 1_555 1_555
H4 C5 1_555 1_555
C6 C3 1_555 1_555
H5 C6 1_555 1_555
C7 N3 1_555 1_555
Hg1 N1 1_555 1_555
N1 C1 1_555 1_555
N2 C6 1_555 1_555
S1 C7 1_555 1_555
C1D H1D 1_555 1_555
C2D C1D 1_555 1_555
H2D C2D 1_555 1_555
C3D C2D 1_555 1_555
C4D C3D 1_555 1_555
H3D C4D 1_555 1_555
C5D C4D 1_555 1_555
H4D C5D 1_555 1_555
C6D C3D 1_555 1_555
H5D C6D 1_555 1_555
C7B N3B 1_555 1_555
Hg1F N1D 1_555 1_555
N1B Hg1 1_555 1_555
N1D C1D 1_555 1_555
N2D N2 1_555 1_555
S1B Hg1 1_555 1_555
C5 N1 1_555 1_555
Hg1 S1 1_555 1_555
C5D N1D 1_555 1_555
C6D N2D 1_555 1_555
C7B S1B 1_555 1_555

#END
