
#######################################################################
#
#                 Cambridge Crystallographic Data Centre
#                                CCDC 
#
#######################################################################
#
# If this CIF has been generated from an entry in the Cambridge 
# Structural Database, then it will include bibliographic, chemical, 
# crystal, experimental, refinement or atomic coordinate data resulting 
# from the CCDC's data processing and validation procedures.
#
#######################################################################

data_PIHJUM
_symmetry_cell_setting           triclinic
_symmetry_space_group_name_H-M   'P -1'
_symmetry_Int_Tables_number      2
_space_group_name_Hall           '-P 1'
loop_
_symmetry_equiv_pos_site_id
_symmetry_equiv_pos_as_xyz
1 x,y,z
2 -x,-y,-z
_cell_length_a                   4.0783(8)
_cell_length_b                   9.1943(17)
_cell_length_c                   11.753(2)
_cell_angle_alpha                87.235(3)
_cell_angle_beta                 88.002(3)
_cell_angle_gamma                85.696(3)
_cell_volume                     438.733
loop_
_atom_site_label
_atom_site_type_symbol
_atom_site_fract_x
_atom_site_fract_y
_atom_site_fract_z
Br1 Br -0.45838(18) 0.17710(8) 0.37817(6)
Br2 Br -0.06516(18) 0.34804(8) 0.09828(6)
C1 C 0.0077(19) -0.1664(8) 0.3562(7)
H1 H -0.1029 -0.1005 0.4071
C2 C 0.032(2) -0.3138(9) 0.3869(7)
H2 H -0.0638 -0.3483 0.4570
C3 C 0.197(2) -0.4100(9) 0.3149(7)
H3 H 0.2144 -0.5119 0.3338
C4 C 0.337(2) -0.3551(9) 0.2149(7)
H4 H 0.4564 -0.4187 0.1644
C5 C 0.3015(18) -0.2076(8) 0.1888(6)
C6 C 0.4508(19) -0.1502(9) 0.0816(7)
H5 H 0.5696 -0.2159 0.0325
Hg1 Hg 0.11679(7) 0.13237(3) 0.22094(2)
N1 N 0.1333(15) -0.1131(7) 0.2579(6)
N2 N 0.4246(16) -0.0150(8) 0.0531(6)
Br1_2 Br 0.54162(18) 0.17710(8) 0.37817(6)
Br1_3 Br 1.54162(18) 0.17710(8) 0.37817(6)
Br2_2 Br 0.93484(18) 0.34804(8) 0.09828(6)
C1A C 0.9923(19) 0.1664(8) -0.3562(7)
H1A H 1.1029 0.1005 -0.4071
C2A C 0.968(2) 0.3138(9) -0.3869(7)
H2A H 1.0638 0.3483 -0.4570
C3A C 0.803(2) 0.4100(9) -0.3149(7)
H3A H 0.7856 0.5119 -0.3338
C4A C 0.663(2) 0.3551(9) -0.2149(7)
H4A H 0.5436 0.4187 -0.1644
C5A C 0.6985(18) 0.2076(8) -0.1888(6)
C6A C 0.5492(19) 0.1502(9) -0.0816(7)
H5A H 0.4304 0.2159 -0.0325
Hg1_2 Hg 1.11679(7) 0.13237(3) 0.22094(2)
Hg1_3 Hg -0.88321(7) 0.13237(3) 0.22094(2)
Hg1A Hg 0.88321(7) -0.13237(3) -0.22094(2)
N1A N 0.8667(15) 0.1131(7) -0.2579(6)
N1_2 N 1.1333(15) -0.1131(7) 0.2579(6)
N2A N 0.5754(16) 0.0150(8) -0.0531(6)
N2_2 N 1.4246(16) -0.0150(8) 0.0531(6)
loop_
_geom_bond_atom_site_label_1
_geom_bond_atom_site_label_2
_geom_bond_site_symmetry_1
_geom_bond_site_symmetry_2
Br1 Hg1 1_555 1_555
Br2 Hg1 1_555 1_555
C1 H1 1_555 1_555
C2 C1 1_555 1_555
H2 C2 1_555 1_555
C3 C2 1_555 1_555
H3 C3 1_555 1_555
C4 C3 1_555 1_555
H4 C4 1_555 1_555
C5 C4 1_555 1_555
C6 C5 1_555 1_555
H5 C6 1_555 1_555
Hg1 N1 1_555 1_555
N1 C1 1_555 1_555
N2 C6 1_555 1_555
Br1_2 Hg1 1_555 1_555
Br1_3 Hg1_2 1_555 1_555
Br2_2 Hg1_2 1_555 1_555
C1A H1A 1_555 1_555
C2A C1A 1_555 1_555
H2A C2A 1_555 1_555
C3A C2A 1_555 1_555
H3A C3A 1_555 1_555
C4A C3A 1_555 1_555
H4A C4A 1_555 1_555
C5A C4A 1_555 1_555
C6A C5A 1_555 1_555
H5A C6A 1_555 1_555
Hg1_2 Br1_2 1_555 1_555
Hg1_3 Br1 1_555 1_555
Hg1A N1A 1_555 1_555
N1A C1A 1_555 1_555
N1_2 Hg1_2 1_555 1_555
N2A N2 1_555 1_555
N2_2 Hg1_2 1_555 1_555
C5 N1 1_555 1_555
Hg1 N2 1_555 1_555
C5A N1A 1_555 1_555
C6A N2A 1_555 1_555
Hg1A N2A 1_555 1_555

#END
