
#######################################################################
#
#                 Cambridge Crystallographic Data Centre
#                                CCDC 
#
#######################################################################
#
# If this CIF has been generated from an entry in the Cambridge 
# Structural Database, then it will include bibliographic, chemical, 
# crystal, experimental, refinement or atomic coordinate data resulting 
# from the CCDC's data processing and validation procedures.
#
#######################################################################

data_PIHJIB
_symmetry_cell_setting           orthorhombic
_symmetry_space_group_name_H-M   'P b c a'
_symmetry_Int_Tables_number      61
_space_group_name_Hall           '-P 2ac 2ab'
loop_
_symmetry_equiv_pos_site_id
_symmetry_equiv_pos_as_xyz
1 x,y,z
2 1/2-x,-y,1/2+z
3 1/2+x,1/2-y,-z
4 -x,1/2+y,1/2-z
5 -x,-y,-z
6 1/2+x,y,1/2-z
7 1/2-x,1/2+y,z
8 x,1/2-y,1/2+z
_cell_length_a                   18.208(5)
_cell_length_b                   14.367(5)
_cell_length_c                   19.710(5)
_cell_angle_alpha                90
_cell_angle_beta                 90
_cell_angle_gamma                90
_cell_volume                     5156.02
loop_
_atom_site_label
_atom_site_type_symbol
_atom_site_fract_x
_atom_site_fract_y
_atom_site_fract_z
Cd1 Cd 0.912283(13) 0.024023(18) 0.058801(12)
O1 O 1.05340(13) 0.11365(18) -0.10973(13)
N1 N 0.66679(16) 0.4469(2) -0.01267(16)
C1 C 0.7559(2) 0.4431(3) -0.1021(2)
H1 H 0.7772 0.4736 -0.1388
N2 N 1.00015(16) 0.0923(2) 0.12760(15)
O2 O 0.96966(15) 0.09400(19) -0.03122(13)
O3 O 1.34433(16) 0.1677(2) 0.42866(14)
O4 O 1.31886(17) 0.0535(2) 0.35987(16)
C2 C 0.94415(18) 0.2010(2) -0.11980(17)
C3 C 0.88545(18) 0.2432(2) -0.08677(17)
H2 H 0.8754 0.2276 -0.0419
C4 C 0.84124(19) 0.3087(3) -0.11972(18)
C5 C 0.77992(19) 0.3553(3) -0.08376(18)
C6 C 1.0822(2) 0.2164(3) 0.15286(19)
H3 H 1.1013 0.2740 0.1405
C7 C 1.1629(2) 0.2157(3) 0.25620(18)
C8 C 1.2224(2) 0.3503(3) 0.3035(2)
H4 H 1.2278 0.4146 0.3058
C9 C 0.99213(18) 0.1324(2) -0.08379(17)
C10 C 0.9583(2) 0.2232(3) -0.18700(18)
H5 H 0.9978 0.1959 -0.2093
C11 C 1.10670(19) 0.1721(3) 0.21131(18)
C12 C 0.6891(2) 0.3617(3) 0.0040(2)
H6 H 0.6660 0.3322 0.0402
C13 C 1.0294(2) 0.1745(3) 0.11335(19)
H7 H 1.0135 0.2054 0.0746
C14 C 1.2088(2) 0.1594(3) 0.29551(19)
H8 H 1.2048 0.0951 0.2921
C15 C 1.3105(2) 0.1350(3) 0.37881(19)
C16 C 1.2666(2) 0.2934(3) 0.3428(2)
H9 H 1.3011 0.3200 0.3718
C17 C 1.2603(2) 0.1972(3) 0.33942(18)
C18 C 0.9138(2) 0.2858(3) -0.22100(19)
H10 H 0.9223 0.2986 -0.2666
C19 C 0.7443(2) 0.3150(3) -0.02930(19)
H11 H 0.7578 0.2557 -0.0150
C20 C 1.0751(2) 0.0872(3) 0.2264(2)
H12 H 1.0895 0.0549 0.2651
C21 C 1.1705(2) 0.3123(3) 0.2611(2)
H13 H 1.1403 0.3510 0.2356
C22 C 0.8568(2) 0.3292(3) -0.18736(19)
H14 H 0.8284 0.3729 -0.2102
C23 C 1.0227(2) 0.0508(3) 0.1847(2)
H15 H 1.0016 -0.0059 0.1965
C24 C 0.7001(3) 0.4855(3) -0.0657(2)
H16 H 0.6850 0.5445 -0.0791
Cd1D Cd 1.087717(13) -0.024023(18) -0.058801(12)
Cd1E Cd 1.412283(13) 0.024023(18) 0.441199(12)
Cd1F Cd 0.587717(13) 0.524023(18) 0.058801(12)
O1D O 0.94660(13) -0.11365(18) 0.10973(13)
N1F N 0.83321(16) -0.0531(2) -0.01267(16)
O2D O 1.03034(15) -0.09400(19) 0.03122(13)
O3E O 0.84433(16) 0.1677(2) 0.07134(14)
O4E O 0.81886(17) 0.0535(2) 0.14013(16)
N3 N 0.0620(5) 0.0226(6) 0.4238(4)
C25 C 0.0799(8) 0.1161(10) 0.4453(7)
H17 H 0.1008 0.1143 0.4900
H18 H 0.0360 0.1533 0.4460
H19 H 0.1146 0.1429 0.4143
C26 C 0.1093(8) -0.0420(10) 0.4369(7)
H20 H 0.0857 -0.0915 0.4612
H21 H 0.1484 -0.0168 0.4639
H22 H 0.1290 -0.0657 0.3951
C27 C -0.0079(8) 0.0147(11) 0.3925(6)
H23 H -0.0382 0.0662 0.3866
O5 O -0.0261(8) -0.0606(6) 0.3741(6)
loop_
_geom_bond_atom_site_label_1
_geom_bond_atom_site_label_2
_geom_bond_site_symmetry_1
_geom_bond_site_symmetry_2
Cd1 N2 1_555 1_555
O1 C9 1_555 1_555
N1 C12 1_555 1_555
C1 H1 1_555 1_555
N2 C13 1_555 1_555
O2 Cd1 1_555 1_555
O3 C15 1_555 1_555
O4 C15 1_555 1_555
C2 C3 1_555 1_555
C3 H2 1_555 1_555
C4 C3 1_555 1_555
C5 C1 1_555 1_555
C6 H3 1_555 1_555
C7 C11 1_555 1_555
C8 H4 1_555 1_555
C9 O2 1_555 1_555
C10 C2 1_555 1_555
H5 C10 1_555 1_555
C11 C6 1_555 1_555
C12 H6 1_555 1_555
C13 C6 1_555 1_555
H7 C13 1_555 1_555
C14 C7 1_555 1_555
H8 C14 1_555 1_555
C15 C17 1_555 1_555
C16 C8 1_555 1_555
H9 C16 1_555 1_555
C17 C14 1_555 1_555
C18 C10 1_555 1_555
H10 C18 1_555 1_555
C19 C5 1_555 1_555
H11 C19 1_555 1_555
C20 C11 1_555 1_555
H12 C20 1_555 1_555
C21 C7 1_555 1_555
H13 C21 1_555 1_555
C22 C4 1_555 1_555
H14 C22 1_555 1_555
C23 N2 1_555 1_555
H15 C23 1_555 1_555
C24 N1 1_555 1_555
H16 C24 1_555 1_555
N3 C25 1_555 1_555
C25 H17 1_555 1_555
H18 C25 1_555 1_555
H19 C25 1_555 1_555
C26 N3 1_555 1_555
H20 C26 1_555 1_555
H21 C26 1_555 1_555
H22 C26 1_555 1_555
C27 N3 1_555 1_555
H23 C27 1_555 1_555
O5 C27 1_555 1_555
Cd1D O1 1_555 1_555
Cd1E O3 1_555 1_555
Cd1F N1 1_555 1_555
O1D Cd1 1_555 1_555
N1F Cd1 1_555 1_555
O2D Cd1 1_555 1_555
O3E Cd1 1_555 1_555
O4E Cd1 1_555 1_555
C1 C24 1_555 1_555
O2 Cd1D 1_555 1_555
O4 Cd1E 1_555 1_555
C2 C9 1_555 1_555
C4 C5 1_555 1_555
C8 C21 1_555 1_555
C12 C19 1_555 1_555
C16 C17 1_555 1_555
C18 C22 1_555 1_555
C20 C23 1_555 1_555
Cd1D O2D 1_555 1_555

#END
