
#######################################################################
#
#                 Cambridge Crystallographic Data Centre
#                                CCDC 
#
#######################################################################
#
# If this CIF has been generated from an entry in the Cambridge 
# Structural Database, then it will include bibliographic, chemical, 
# crystal, experimental, refinement or atomic coordinate data resulting 
# from the CCDC's data processing and validation procedures.
#
#######################################################################

data_PIHJEW
_symmetry_cell_setting           monoclinic
_symmetry_space_group_name_H-M   'P 21/c'
_symmetry_Int_Tables_number      14
_space_group_name_Hall           '-P 2ybc'
loop_
_symmetry_equiv_pos_site_id
_symmetry_equiv_pos_as_xyz
1 x,y,z
2 -x,1/2+y,1/2-z
3 -x,-y,-z
4 x,1/2-y,1/2+z
_cell_length_a                   16.1971(7)
_cell_length_b                   12.6635(5)
_cell_length_c                   7.7778(3)
_cell_angle_alpha                90
_cell_angle_beta                 95.5800(10)
_cell_angle_gamma                90
_cell_volume                     1587.76
loop_
_atom_site_label
_atom_site_type_symbol
_atom_site_fract_x
_atom_site_fract_y
_atom_site_fract_z
C1 C 0.1331(2) 1.1468(3) 0.4006(5)
H1 H 0.1550 1.1843 0.3095
C2 C 0.0779(2) 1.1980(3) 0.4979(5)
H2 H 0.0611 1.2685 0.4713
C3 C 0.0479(2) 1.1454(3) 0.6330(4)
H3 H 0.0095 1.1787 0.7002
C4 C 0.0746(2) 1.0423(3) 0.6707(4)
C5 C 0.1277(2) 0.9953(3) 0.5624(4)
H4 H 0.1440 0.9240 0.5833
C6 C 0.0489(2) 0.9850(3) 0.8207(5)
H5 H 0.0625 0.9124 0.8362
C7 C 0.4049(2) 0.8556(3) 0.3225(5)
H6 H 0.3966 0.8259 0.2100
C8 C 0.4742(2) 0.8264(3) 0.4296(5)
H7 H 0.5129 0.7777 0.3907
C9 C 0.4865(2) 0.8688(3) 0.5937(5)
H8 H 0.5339 0.8497 0.6689
C10 C 0.4286(2) 0.9397(3) 0.6475(5)
C11 C 0.3608(2) 0.9655(3) 0.5327(5)
H9 H 0.3211 1.0139 0.5685
C12 C 0.4375(2) 0.9906(3) 0.8176(5)
H10 H 0.3961 1.0380 0.8494
C13 C 0.2305(2) 0.7175(3) 0.3208(5)
C14 C 0.2938(2) 1.1872(3) 0.1098(5)
Hg1 Hg 0.229674(8) 0.956984(10) 0.193912(16)
N1 N 0.15681(19) 1.0465(2) 0.4299(4)
N2 N 0.00817(19) 1.0330(2) 0.9310(4)
N3 N 0.34891(19) 0.9245(2) 0.3724(4)
N4 N 0.5010(2) 0.9709(3) 0.9228(4)
N5 N 0.2818(2) 0.6641(3) 0.3877(6)
N6 N 0.3318(2) 1.2506(3) 0.1872(5)
S1 S 0.15250(6) 0.79113(7) 0.22478(12)
S2 S 0.23573(6) 1.09914(7) -0.01119(11)
C1B C -0.1331(2) 0.8532(3) 1.5994(5)
H1B H -0.1550 0.8157 1.6905
C2B C -0.0779(2) 0.8020(3) 1.5021(5)
H2B H -0.0611 0.7315 1.5287
C3B C -0.0479(2) 0.8546(3) 1.3670(4)
H3B H -0.0095 0.8213 1.2998
C4B C -0.0746(2) 0.9577(3) 1.3293(4)
C5B C -0.1277(2) 1.0047(3) 1.4376(4)
H4B H -0.1440 1.0760 1.4167
C6B C -0.0489(2) 1.0150(3) 1.1793(5)
H5B H -0.0625 1.0876 1.1638
C7B C 0.5951(2) 1.1444(3) 1.6775(5)
H6B H 0.6034 1.1741 1.7900
C8B C 0.5258(2) 1.1736(3) 1.5704(5)
H7B H 0.4871 1.2223 1.6093
C9B C 0.5135(2) 1.1312(3) 1.4063(5)
H8B H 0.4661 1.1503 1.3311
C10B C 0.5714(2) 1.0603(3) 1.3525(5)
C11B C 0.6392(2) 1.0345(3) 1.4673(5)
H9B H 0.6789 0.9861 1.4315
C12B C 0.5625(2) 1.0094(3) 1.1824(5)
H10B H 0.6039 0.9620 1.1506
C13B C -0.2305(2) 1.2825(3) 1.6792(5)
C14B C -0.2938(2) 0.8128(3) 1.8902(5)
Hg1B Hg -0.229674(8) 1.043016(10) 1.806088(16)
Hg1B_2 Hg 0.770326(8) 1.043016(10) 1.806088(16)
N1B N -0.15681(19) 0.9535(2) 1.5701(4)
N2B N -0.00817(19) 0.9670(2) 1.0690(4)
N3B N 0.65109(19) 1.0755(2) 1.6276(4)
N3B_2 N -0.34891(19) 1.0755(2) 1.6276(4)
N4B N 0.4990(2) 1.0291(3) 1.0772(4)
N5B N -0.2818(2) 1.3359(3) 1.6123(6)
N6B N -0.3318(2) 0.7494(3) 1.8128(5)
S1B S -0.15250(6) 1.20887(7) 1.77522(12)
S2B S -0.23573(6) 0.90086(7) 2.01119(11)
loop_
_geom_bond_atom_site_label_1
_geom_bond_atom_site_label_2
_geom_bond_site_symmetry_1
_geom_bond_site_symmetry_2
C1 H1 1_555 1_555
C2 C1 1_555 1_555
H2 C2 1_555 1_555
C3 C2 1_555 1_555
H3 C3 1_555 1_555
C4 C3 1_555 1_555
C5 C4 1_555 1_555
H4 C5 1_555 1_555
C6 C4 1_555 1_555
H5 C6 1_555 1_555
C7 H6 1_555 1_555
C8 C7 1_555 1_555
H7 C8 1_555 1_555
C9 C8 1_555 1_555
H8 C9 1_555 1_555
C10 C9 1_555 1_555
C11 C10 1_555 1_555
H9 C11 1_555 1_555
C12 C10 1_555 1_555
H10 C12 1_555 1_555
C13 N5 1_555 1_555
C14 N6 1_555 1_555
Hg1 N1 1_555 1_555
N1 C1 1_555 1_555
N2 C6 1_555 1_555
N3 C7 1_555 1_555
N4 C12 1_555 1_555
S1 C13 1_555 1_555
S2 C14 1_555 1_555
C1B H1B 1_555 1_555
C2B C1B 1_555 1_555
H2B C2B 1_555 1_555
C3B C2B 1_555 1_555
H3B C3B 1_555 1_555
C4B C3B 1_555 1_555
C5B C4B 1_555 1_555
H4B C5B 1_555 1_555
C6B C4B 1_555 1_555
H5B C6B 1_555 1_555
C7B H6B 1_555 1_555
C8B C7B 1_555 1_555
H7B C8B 1_555 1_555
C9B C8B 1_555 1_555
H8B C9B 1_555 1_555
C10B C9B 1_555 1_555
C11B C10B 1_555 1_555
H9B C11B 1_555 1_555
C12B C10B 1_555 1_555
H10B C12B 1_555 1_555
C13B N5B 1_555 1_555
C14B N6B 1_555 1_555
Hg1B N1B 1_555 1_555
Hg1B_2 N3B 1_555 1_555
N1B C1B 1_555 1_555
N2B N2 1_555 1_555
N3B C7B 1_555 1_555
N3B_2 Hg1B 1_555 1_555
N4B N4 1_555 1_555
S1B C13B 1_555 1_555
S2B C14B 1_555 1_555
C5 N1 1_555 1_555
C11 N3 1_555 1_555
Hg1 N3 1_555 1_555
Hg1 S1 1_555 1_555
Hg1 S2 1_555 1_555
C5B N1B 1_555 1_555
C6B N2B 1_555 1_555
C11B N3B 1_555 1_555
C12B N4B 1_555 1_555
Hg1B S1B 1_555 1_555
Hg1B S2B 1_555 1_555

#END
