
#######################################################################
#
#                 Cambridge Crystallographic Data Centre
#                                CCDC 
#
#######################################################################
#
# If this CIF has been generated from an entry in the Cambridge 
# Structural Database, then it will include bibliographic, chemical, 
# crystal, experimental, refinement or atomic coordinate data resulting 
# from the CCDC's data processing and validation procedures.
#
#######################################################################

data_PIHJOG
_symmetry_cell_setting           orthorhombic
_symmetry_space_group_name_H-M   'P n m a'
_symmetry_Int_Tables_number      62
_space_group_name_Hall           '-P 2ac 2n'
loop_
_symmetry_equiv_pos_site_id
_symmetry_equiv_pos_as_xyz
1 x,y,z
2 1/2-x,-y,1/2+z
3 -x,1/2+y,-z
4 1/2+x,1/2-y,1/2-z
5 -x,-y,-z
6 1/2+x,y,1/2-z
7 x,1/2-y,z
8 1/2-x,1/2+y,1/2+z
_cell_length_a                   8.3698(11)
_cell_length_b                   14.932(2)
_cell_length_c                   11.9038(16)
_cell_angle_alpha                90
_cell_angle_beta                 90
_cell_angle_gamma                90
_cell_volume                     1487.71
loop_
_atom_site_label
_atom_site_type_symbol
_atom_site_fract_x
_atom_site_fract_y
_atom_site_fract_z
Br1 Br 0.33374(7) 0.7500 1.24758(5)
Br2 Br 0.01056(7) 0.7500 0.91292(5)
C1 C 0.3848(5) 0.6118(3) 0.8626(3)
H1 H 0.2862 0.6273 0.8282
C2 C 0.4879(5) 0.5539(3) 0.8060(3)
H2 H 0.4602 0.5303 0.7345
C3 C 0.6317(5) 0.5314(3) 0.8564(3)
H3 H 0.7019 0.4900 0.8213
C4 C 0.6729(5) 0.5701(3) 0.9591(3)
C5 C 0.5618(5) 0.6272(3) 1.0091(3)
H4 H 0.5881 0.6539 1.0791
C6 C 0.8266(5) 0.5551(3) 1.0136(3)
H5 H 0.8508 0.5846 1.0823
Hg1 Hg 0.22921(3) 0.7500 1.052729(18)
N1 N 0.4194(4) 0.6461(2) 0.9629(3)
N2 N 0.9302(4) 0.5017(2) 0.9685(3)
C1D C 1.6152(5) 0.3882(3) 1.1374(3)
H1D H 1.7138 0.3727 1.1718
C2D C 1.5121(5) 0.4461(3) 1.1940(3)
H2D H 1.5398 0.4697 1.2655
C3D C 1.3683(5) 0.4686(3) 1.1436(3)
H3D H 1.2981 0.5100 1.1787
C4D C 1.3271(5) 0.4299(3) 1.0409(3)
C5D C 1.4382(5) 0.3728(3) 0.9909(3)
H4D H 1.4119 0.3461 0.9209
C6D C 1.1734(5) 0.4449(3) 0.9864(3)
H5D H 1.1492 0.4154 0.9177
Hg1D Hg 1.77079(3) 0.2500 0.947271(18)
N1D N 1.5806(4) 0.3539(2) 1.0371(3)
N1F N 0.4194(4) 0.8539(2) 0.9629(3)
N2D N 1.0698(4) 0.4983(2) 1.0315(3)
loop_
_geom_bond_atom_site_label_1
_geom_bond_atom_site_label_2
_geom_bond_site_symmetry_1
_geom_bond_site_symmetry_2
Br1 Hg1 1_555 1_555
Br2 Hg1 1_555 1_555
C1 H1 1_555 1_555
C2 C1 1_555 1_555
H2 C2 1_555 1_555
C3 C2 1_555 1_555
H3 C3 1_555 1_555
C4 C3 1_555 1_555
C5 C4 1_555 1_555
H4 C5 1_555 1_555
C6 C4 1_555 1_555
H5 C6 1_555 1_555
Hg1 N1 1_555 1_555
N1 C1 1_555 1_555
N2 C6 1_555 1_555
C1D H1D 1_555 1_555
C2D C1D 1_555 1_555
H2D C2D 1_555 1_555
C3D C2D 1_555 1_555
H3D C3D 1_555 1_555
C4D C3D 1_555 1_555
C5D C4D 1_555 1_555
H4D C5D 1_555 1_555
C6D C4D 1_555 1_555
H5D C6D 1_555 1_555
Hg1D N1D 1_555 1_555
N1D C1D 1_555 1_555
N1F Hg1 1_555 1_555
N2D N2 1_555 1_555
C5 N1 1_555 1_555
C5D N1D 1_555 1_555
C6D N2D 1_555 1_555

#END
