
#######################################################################
#
#                 Cambridge Crystallographic Data Centre
#                                CCDC 
#
#######################################################################
#
# If this CIF has been generated from an entry in the Cambridge 
# Structural Database, then it will include bibliographic, chemical, 
# crystal, experimental, refinement or atomic coordinate data resulting 
# from the CCDC's data processing and validation procedures.
#
#######################################################################

data_PIHKUN
_symmetry_cell_setting           triclinic
_symmetry_space_group_name_H-M   'P -1'
_symmetry_Int_Tables_number      2
_space_group_name_Hall           '-P 1'
loop_
_symmetry_equiv_pos_site_id
_symmetry_equiv_pos_as_xyz
1 x,y,z
2 -x,-y,-z
_cell_length_a                   6.8528(4)
_cell_length_b                   7.1459(4)
_cell_length_c                   14.3017(8)
_cell_angle_alpha                100.9910(10)
_cell_angle_beta                 91.8270(10)
_cell_angle_gamma                94.1040(10)
_cell_volume                     684.995
loop_
_atom_site_label
_atom_site_type_symbol
_atom_site_fract_x
_atom_site_fract_y
_atom_site_fract_z
C1 C -0.0038(2) 0.97526(19) 0.80416(10)
H1 H -0.0769 0.9042 0.7498
C2 C -0.0828(2) 1.13220(19) 0.85742(10)
H2 H -0.2073 1.1676 0.8391
C3 C 0.0203(2) 1.23762(18) 0.93768(9)
C4 C 0.2033(2) 1.18034(19) 0.96022(10)
H3 H 0.2793 1.2489 1.0143
C5 C 0.2733(2) 1.02273(19) 0.90322(10)
H4 H 0.3987 0.9859 0.9192
C6 C -0.0631(2) 1.40705(18) 0.99828(11)
H5 H -0.0752 1.3835 1.0639
H6 H -0.1960 1.4205 0.9725
C7 C 0.58135(19) 0.67401(18) 0.60295(9)
H7 H 0.5581 0.5404 0.6002
C8 C 0.71179(19) 0.73651(19) 0.54150(9)
H8 H 0.7755 0.6469 0.4974
C9 C 0.74902(18) 0.93206(19) 0.54482(9)
C10 C 0.65223(18) 1.05646(18) 0.61150(9)
H9 H 0.6752 1.1908 0.6168
C11 C 0.52211(18) 0.98285(18) 0.67019(9)
H10 H 0.4560 1.0693 0.7148
C12 C 0.89420(18) 1.0041(2) 0.48070(10)
H11 H 0.8713 1.1375 0.4765
H12 H 0.8757 0.9249 0.4158
N1 N 0.49498(18) 0.45751(18) 0.82585(9)
N2 N -0.04393(19) 0.47876(18) 0.67178(10)
N3 N 0.48594(15) 0.79409(15) 0.66641(8)
N4 N 0.17197(16) 0.91944(15) 0.82631(8)
O1 O 0.41677(17) 0.40646(15) 0.74376(8)
O2 O 0.45878(15) 0.62554(15) 0.86401(7)
O3 O -0.01846(17) 0.49619(16) 0.75907(8)
O4 O 0.08903(15) 0.57185(15) 0.63428(7)
Zn1 Zn 0.281239(19) 0.680931(18) 0.747704(9)
C1A C 0.0038(2) 2.02474(19) 1.19584(10)
H1A H 0.0769 2.0958 1.2502
C2A C 0.0828(2) 1.86780(19) 1.14258(10)
H2A H 0.2073 1.8324 1.1609
C3A C -0.0203(2) 1.76238(18) 1.06232(9)
C4A C -0.2033(2) 1.81966(19) 1.03978(10)
H3A H -0.2793 1.7511 0.9857
C5A C -0.2733(2) 1.97727(19) 1.09678(10)
H4A H -0.3987 2.0141 1.0808
C6A C 0.0631(2) 1.59295(18) 1.00172(11)
H5A H 0.0752 1.6165 0.9361
H6A H 0.1960 1.5795 1.0275
C7A C 1.41865(19) 1.32599(18) 0.39705(9)
H7A H 1.4419 1.4596 0.3998
C8A C 1.28821(19) 1.26349(19) 0.45850(9)
H8A H 1.2245 1.3531 0.5026
C9A C 1.25098(18) 1.06794(19) 0.45518(9)
C10A C 1.34777(18) 0.94354(18) 0.38850(9)
H9A H 1.3248 0.8092 0.3832
C11A C 1.47789(18) 1.01715(18) 0.32981(9)
H10A H 1.5440 0.9307 0.2852
C12A C 1.10580(18) 0.9959(2) 0.51930(10)
H11A H 1.1287 0.8625 0.5235
H12A H 1.1243 1.0751 0.5842
N1A N 1.50502(18) 1.54249(18) 0.17415(9)
N2A N 2.04393(19) 1.52124(18) 0.32822(10)
N3A N 1.51406(15) 1.20591(15) 0.33359(8)
N4A N 1.82803(16) 1.08056(15) 0.17369(8)
N4A_2 N -0.17197(16) 2.08056(15) 1.17369(8)
O1A O 1.58323(17) 1.59354(15) 0.25624(8)
O2A O 1.54122(15) 1.37446(15) 0.13599(7)
O3A O 2.01846(17) 1.50381(16) 0.24093(8)
O4A O 1.91097(15) 1.42815(15) 0.36572(7)
Zn1A Zn 1.718761(19) 1.319069(18) 0.252296(9)
Zn1A_2 Zn -0.281239(19) 2.319069(18) 1.252296(9)
loop_
_geom_bond_atom_site_label_1
_geom_bond_atom_site_label_2
_geom_bond_site_symmetry_1
_geom_bond_site_symmetry_2
C1 H1 1_555 1_555
C2 C1 1_555 1_555
H2 C2 1_555 1_555
C3 C2 1_555 1_555
C4 C3 1_555 1_555
H3 C4 1_555 1_555
C5 C4 1_555 1_555
H4 C5 1_555 1_555
C6 C3 1_555 1_555
H5 C6 1_555 1_555
H6 C6 1_555 1_555
C7 H7 1_555 1_555
C8 C7 1_555 1_555
H8 C8 1_555 1_555
C9 C8 1_555 1_555
C10 C9 1_555 1_555
H9 C10 1_555 1_555
C11 C10 1_555 1_555
H10 C11 1_555 1_555
C12 C9 1_555 1_555
H11 C12 1_555 1_555
H12 C12 1_555 1_555
N1 O1 1_555 1_555
N2 O3 1_555 1_555
N3 C7 1_555 1_555
N4 C1 1_555 1_555
O1 Zn1 1_555 1_555
O2 N1 1_555 1_555
O3 Zn1 1_555 1_555
O4 N2 1_555 1_555
Zn1 N3 1_555 1_555
C1A H1A 1_555 1_555
C2A C1A 1_555 1_555
H2A C2A 1_555 1_555
C3A C2A 1_555 1_555
C4A C3A 1_555 1_555
H3A C4A 1_555 1_555
C5A C4A 1_555 1_555
H4A C5A 1_555 1_555
C6A C6 1_555 1_555
H5A C6A 1_555 1_555
H6A C6A 1_555 1_555
C7A H7A 1_555 1_555
C8A C7A 1_555 1_555
H8A C8A 1_555 1_555
C9A C8A 1_555 1_555
C10A C9A 1_555 1_555
H9A C10A 1_555 1_555
C11A C10A 1_555 1_555
H10A C11A 1_555 1_555
C12A C12 1_555 1_555
H11A C12A 1_555 1_555
H12A C12A 1_555 1_555
N1A O1A 1_555 1_555
N2A O3A 1_555 1_555
N3A C7A 1_555 1_555
N4A Zn1A 1_555 1_555
N4A_2 C1A 1_555 1_555
O1A Zn1A 1_555 1_555
O2A N1A 1_555 1_555
O3A Zn1A 1_555 1_555
O4A N2A 1_555 1_555
Zn1A N3A 1_555 1_555
Zn1A_2 N4A_2 1_555 1_555
C5 N4 1_555 1_555
C11 N3 1_555 1_555
N4 Zn1 1_555 1_555
O2 Zn1 1_555 1_555
O4 Zn1 1_555 1_555
C3A C6A 1_555 1_555
C5A N4A_2 1_555 1_555
C9A C12A 1_555 1_555
C11A N3A 1_555 1_555
O2A Zn1A 1_555 1_555
O4A Zn1A 1_555 1_555

#END
