
#######################################################################
#
#                 Cambridge Crystallographic Data Centre
#                                CCDC 
#
#######################################################################
#
# If this CIF has been generated from an entry in the Cambridge 
# Structural Database, then it will include bibliographic, chemical, 
# crystal, experimental, refinement or atomic coordinate data resulting 
# from the CCDC's data processing and validation procedures.
#
#######################################################################

data_PIHKAT
_symmetry_cell_setting           monoclinic
_symmetry_space_group_name_H-M   'C 2/c'
_symmetry_Int_Tables_number      15
_space_group_name_Hall           '-C 2yn'
loop_
_symmetry_equiv_pos_site_id
_symmetry_equiv_pos_as_xyz
1 x,y,z
2 1/2+x,1/2+y,z
3 -x,y,1/2-z
4 1/2-x,1/2+y,1/2-z
5 -x,-y,-z
6 1/2-x,1/2-y,-z
7 x,-y,1/2+z
8 1/2+x,1/2-y,1/2+z
_cell_length_a                   13.8208(14)
_cell_length_b                   6.8015(6)
_cell_length_c                   16.8268(16)
_cell_angle_alpha                90
_cell_angle_beta                 103.653(2)
_cell_angle_gamma                90
_cell_volume                     1537.06
loop_
_atom_site_label
_atom_site_type_symbol
_atom_site_fract_x
_atom_site_fract_y
_atom_site_fract_z
Zn1 Zn 0.0000 -1.13920(4) 0.2500
N1 N 0.11456(18) -1.3478(3) 0.17798(15)
N2 N -0.43546(12) 0.4291(2) -0.16340(9)
O1 O 0.14208(15) -1.2233(4) 0.23091(14)
C1 C -0.35668(15) 0.1187(2) -0.06023(12)
C2 C -0.32295(17) 0.1595(3) -0.12947(15)
H1 H -0.2735 0.0824 -0.1428
N3 N -0.26184(19) -0.1727(3) -0.02830(13)
C3 C -0.43023(18) 0.2389(3) -0.04334(12)
H2 H -0.4540 0.2176 0.0032
C4 C -0.46793(19) 0.3903(3) -0.09620(13)
H3 H -0.5180 0.4687 -0.0846
C5 C -0.32015(16) -0.0500(3) -0.00764(13)
H4 H -0.3399 -0.0669 0.0411
C6 C -0.36300(16) 0.3143(3) -0.17838(14)
H5 H -0.3387 0.3411 -0.2243
O2 O 0.02415(19) -1.3552(3) 0.15853(18)
Zn1G Zn -0.5000 0.63920(4) -0.2500
N1B N -0.11456(18) -1.3478(3) 0.32202(15)
N2E N -0.06454(12) -0.9291(2) 0.16340(9)
N2G N 0.06454(12) -0.9291(2) 0.33660(9)
O1B O -0.14208(15) -1.2233(4) 0.26909(14)
C1E C -0.14332(15) -0.6187(2) 0.06023(12)
C2E C -0.17705(17) -0.6595(3) 0.12947(15)
H1E H -0.2265 -0.5824 0.1428
N3E N -0.23816(19) -0.3273(3) 0.02830(13)
C3E C -0.06977(18) -0.7389(3) 0.04334(12)
H2E H -0.0460 -0.7176 -0.0032
C4E C -0.03207(19) -0.8903(3) 0.09620(13)
H3E H 0.0180 -0.9687 0.0846
C5E C -0.17985(16) -0.4500(3) 0.00764(13)
H4E H -0.1601 -0.4331 -0.0411
C6E C -0.13700(16) -0.8143(3) 0.17838(14)
H5E H -0.1613 -0.8411 0.2243
O2B O -0.02415(19) -1.3552(3) 0.34147(18)
loop_
_geom_bond_atom_site_label_1
_geom_bond_atom_site_label_2
_geom_bond_site_symmetry_1
_geom_bond_site_symmetry_2
Zn1 O1 1_555 1_555
N1 O1 1_555 1_555
N2 C4 1_555 1_555
C1 C2 1_555 1_555
C2 H1 1_555 1_555
N3 C5 1_555 1_555
C3 C1 1_555 1_555
H2 C3 1_555 1_555
C4 C3 1_555 1_555
H3 C4 1_555 1_555
C5 C1 1_555 1_555
H4 C5 1_555 1_555
C6 N2 1_555 1_555
H5 C6 1_555 1_555
O2 Zn1 1_555 1_555
Zn1G N2 1_555 1_555
N1B O1B 1_555 1_555
N2E Zn1 1_555 1_555
N2G Zn1 1_555 1_555
O1B Zn1 1_555 1_555
C1E C2E 1_555 1_555
C2E H1E 1_555 1_555
N3E N3 1_555 1_555
C3E C1E 1_555 1_555
H2E C3E 1_555 1_555
C4E N2E 1_555 1_555
H3E C4E 1_555 1_555
C5E C1E 1_555 1_555
H4E C5E 1_555 1_555
C6E N2E 1_555 1_555
H5E C6E 1_555 1_555
O2B Zn1 1_555 1_555
N1 O2 1_555 1_555
C2 C6 1_555 1_555
N1B O2B 1_555 1_555
C2E C6E 1_555 1_555
N3E C5E 1_555 1_555
C3E C4E 1_555 1_555

#END
