
#######################################################################
#
#                 Cambridge Crystallographic Data Centre
#                                CCDC 
#
#######################################################################
#
# If this CIF has been generated from an entry in the Cambridge 
# Structural Database, then it will include bibliographic, chemical, 
# crystal, experimental, refinement or atomic coordinate data resulting 
# from the CCDC's data processing and validation procedures.
#
#######################################################################

data_PIHKIB
_symmetry_cell_setting           orthorhombic
_symmetry_space_group_name_H-M   'P 21 21 21'
_symmetry_Int_Tables_number      19
_space_group_name_Hall           'P 2ac 2ab'
loop_
_symmetry_equiv_pos_site_id
_symmetry_equiv_pos_as_xyz
1 x,y,z
2 1/2-x,-y,1/2+z
3 -x,1/2+y,1/2-z
4 1/2+x,1/2-y,-z
_cell_length_a                   10.3273(8)
_cell_length_b                   15.0682(12)
_cell_length_c                   19.0674(15)
_cell_angle_alpha                90
_cell_angle_beta                 90
_cell_angle_gamma                90
_cell_volume                     2967.15
loop_
_atom_site_label
_atom_site_type_symbol
_atom_site_fract_x
_atom_site_fract_y
_atom_site_fract_z
C1 C 0.77459(17) 0.73604(12) 0.83861(9)
H1 H 0.7391 0.7916 0.8250
C2 C 0.88727(17) 0.70790(12) 0.80696(8)
H2 H 0.9281 0.7440 0.7726
C3 C 0.94155(16) 0.62610(11) 0.82547(8)
C4 C 0.87516(17) 0.57627(12) 0.87507(9)
H3 H 0.9069 0.5196 0.8884
C5 C 0.76307(17) 0.60884(12) 0.90510(9)
H4 H 0.7199 0.5737 0.9393
C6 C 1.06834(16) 0.59742(12) 0.79355(8)
H5 H 1.1110 0.5548 0.8256
H6 H 1.1255 0.6499 0.7891
C7 C 1.05327(18) 0.55379(11) 0.72074(8)
H7 H 0.9975 0.5918 0.6911
H8 H 1.1393 0.5500 0.6981
C8 C 0.99435(18) 0.46086(12) 0.72458(9)
H9 H 1.0481 0.4241 0.7563
H10 H 0.9070 0.4654 0.7457
C9 C 1.06662(16) 0.37247(12) 0.54191(9)
H11 H 1.1336 0.3773 0.5080
C10 C 1.07876(16) 0.41931(12) 0.60382(9)
H12 H 1.1527 0.4555 0.6116
C11 C 0.98273(17) 0.41361(11) 0.65488(9)
C12 C 0.87740(17) 0.35839(12) 0.64007(9)
H13 H 0.8099 0.3517 0.6735
C13 C 0.87118(17) 0.31365(12) 0.57708(9)
H14 H 0.7985 0.2766 0.5682
N1 N 0.52510(16) 0.91113(11) 0.96494(9)
N2 N 0.39486(16) 0.71371(12) 0.82150(8)
N3 N 0.71243(14) 0.68823(10) 0.88794(7)
N4 N 0.96406(14) 0.32024(9) 0.52748(7)
O1 O 0.62740(13) 0.86666(10) 0.95403(8)
O2 O 0.42535(13) 0.86617(10) 0.95792(8)
O3 O 0.47887(14) 0.77111(9) 0.81297(7)
O4 O 0.39640(13) 0.67911(9) 0.88316(7)
Zn1 Zn 0.547666(18) 0.742831(12) 0.932072(10)
N4A N 0.53594(14) 0.67976(9) 1.02748(7)
Zn1A Zn 0.952334(18) 0.257169(12) 0.432072(10)
C14 C 0.47073(17) 0.67581(12) 0.58050(9)
H15 H 0.3995 0.7128 0.5687
C15 C 0.47509(17) 0.63911(13) 0.64635(9)
H16 H 0.4080 0.6509 0.6792
C16 C 0.57889(16) 0.58431(12) 0.66484(9)
C17 C 0.67418(16) 0.57002(12) 0.61471(9)
H17 H 0.7466 0.5335 0.6253
C18 C 0.66316(16) 0.60921(12) 0.54928(9)
H18 H 0.7290 0.5986 0.5155
C19 C 0.58881(17) 0.54256(13) 0.73696(9)
H19 H 0.6088 0.5896 0.7716
H20 H 0.6618 0.5000 0.7370
C20 C 0.46622(17) 0.49422(12) 0.76010(9)
H21 H 0.4449 0.4473 0.7256
H22 H 0.3931 0.5366 0.7615
C21 C 0.48426(17) 0.45237(14) 0.83279(10)
H23 H 0.5521 0.4060 0.8303
H24 H 0.5133 0.4984 0.8664
C22 C 0.16321(16) 0.41922(11) 0.92530(9)
H25 H 0.1090 0.4514 0.9565
C23 C 0.27810(17) 0.45790(12) 0.90340(9)
H26 H 0.3009 0.5157 0.9191
C24 C 0.35981(17) 0.41185(12) 0.85835(9)
C25 C 0.32055(17) 0.32779(13) 0.83679(9)
H27 H 0.3735 0.2940 0.8060
C26 C 0.20421(17) 0.29366(11) 0.86029(8)
H28 H 0.1786 0.2364 0.8448
N5 N 0.56805(17) 0.88580(11) 0.46360(9)
N6 N 0.69471(15) 0.67602(12) 0.32584(8)
N7 N 0.56325(14) 0.66159(10) 0.53170(7)
N8 N 0.12538(14) 0.33831(10) 0.90432(7)
O5 O 0.46418(14) 0.84436(9) 0.45353(7)
O6 O 0.66587(14) 0.83763(10) 0.45617(8)
O7 O 0.69925(13) 0.64551(9) 0.38832(7)
O8 O 0.60732(13) 0.73220(9) 0.31804(7)
Zn2 Zn 0.548099(18) 0.718171(12) 0.434309(9)
N8A N 0.37462(14) 0.66169(10) 0.40432(7)
Zn2A Zn -0.048099(18) 0.281829(12) 0.934309(9)
loop_
_geom_bond_atom_site_label_1
_geom_bond_atom_site_label_2
_geom_bond_site_symmetry_1
_geom_bond_site_symmetry_2
C1 H1 1_555 1_555
C2 C1 1_555 1_555
H2 C2 1_555 1_555
C3 C2 1_555 1_555
C4 C3 1_555 1_555
H3 C4 1_555 1_555
C5 C4 1_555 1_555
H4 C5 1_555 1_555
C6 C3 1_555 1_555
H5 C6 1_555 1_555
H6 C6 1_555 1_555
C7 C6 1_555 1_555
H7 C7 1_555 1_555
H8 C7 1_555 1_555
C8 C7 1_555 1_555
H9 C8 1_555 1_555
H10 C8 1_555 1_555
C9 H11 1_555 1_555
C10 C9 1_555 1_555
H12 C10 1_555 1_555
C11 C8 1_555 1_555
C12 C11 1_555 1_555
H13 C12 1_555 1_555
C13 C12 1_555 1_555
H14 C13 1_555 1_555
C14 H15 1_555 1_555
C15 C14 1_555 1_555
H16 C15 1_555 1_555
C16 C15 1_555 1_555
C17 C16 1_555 1_555
H17 C17 1_555 1_555
C18 C17 1_555 1_555
H18 C18 1_555 1_555
C19 C16 1_555 1_555
H19 C19 1_555 1_555
H20 C19 1_555 1_555
C20 C19 1_555 1_555
H21 C20 1_555 1_555
H22 C20 1_555 1_555
C21 C20 1_555 1_555
H23 C21 1_555 1_555
H24 C21 1_555 1_555
C22 H25 1_555 1_555
C23 C22 1_555 1_555
H26 C23 1_555 1_555
C24 C21 1_555 1_555
C25 C24 1_555 1_555
H27 C25 1_555 1_555
C26 C25 1_555 1_555
H28 C26 1_555 1_555
N1 O1 1_555 1_555
N2 O3 1_555 1_555
N3 C1 1_555 1_555
N4 C9 1_555 1_555
N5 O5 1_555 1_555
N6 O7 1_555 1_555
N7 C14 1_555 1_555
N8 C22 1_555 1_555
O1 Zn1 1_555 1_555
O2 N1 1_555 1_555
O3 Zn1 1_555 1_555
O4 N2 1_555 1_555
O5 Zn2 1_555 1_555
O6 N5 1_555 1_555
O7 Zn2 1_555 1_555
O8 N6 1_555 1_555
Zn1 N3 1_555 1_555
Zn2 N7 1_555 1_555
N4A Zn1 1_555 1_555
N8A Zn2 1_555 1_555
Zn1A N4 1_555 1_555
Zn2A N8 1_555 1_555
C5 N3 1_555 1_555
C10 C11 1_555 1_555
C13 N4 1_555 1_555
C18 N7 1_555 1_555
C23 C24 1_555 1_555
C26 N8 1_555 1_555
O2 Zn1 1_555 1_555
O4 Zn1 1_555 1_555
O6 Zn2 1_555 1_555
O8 Zn2 1_555 1_555

#END
