
#######################################################################
#
#                 Cambridge Crystallographic Data Centre
#                                CCDC 
#
#######################################################################
#
# If this CIF has been generated from an entry in the Cambridge 
# Structural Database, then it will include bibliographic, chemical, 
# crystal, experimental, refinement or atomic coordinate data resulting 
# from the CCDC's data processing and validation procedures.
#
#######################################################################

data_PIHKOI
_symmetry_cell_setting           orthorhombic
_symmetry_space_group_name_H-M   'I b a m'
_symmetry_Int_Tables_number      72
_space_group_name_Hall           '-I 2 2c'
loop_
_symmetry_equiv_pos_site_id
_symmetry_equiv_pos_as_xyz
1 x,y,z
2 -x,-y,z
3 1/2-x,1/2+y,-z
4 1/2+x,1/2-y,-z
5 1/2+x,1/2+y,1/2+z
6 1/2-x,1/2-y,1/2+z
7 -x,y,1/2-z
8 x,-y,1/2-z
9 -x,-y,-z
10 x,y,-z
11 1/2+x,1/2-y,z
12 1/2-x,1/2+y,z
13 1/2-x,1/2-y,1/2-z
14 1/2+x,1/2+y,1/2-z
15 x,-y,1/2+z
16 -x,y,1/2+z
_cell_length_a                   20.631(4)
_cell_length_b                   7.9010(9)
_cell_length_c                   17.498(2)
_cell_angle_alpha                90
_cell_angle_beta                 90
_cell_angle_gamma                90
_cell_volume                     2852.27
loop_
_atom_site_label
_atom_site_type_symbol
_atom_site_fract_x
_atom_site_fract_y
_atom_site_fract_z
Cd1 Cd 0.0000 1.0000 0.2500
Cd2 Cd 0.20117(3) 1.0000 0.2500
O1 O 0.1046(2) 1.0344(6) 0.1697(3)
O2 O 0.0399(2) 0.8116(6) 0.1619(3)
O3 O 0.1839(2) 0.7261(5) 0.2060(2)
O4 O 0.2506(2) 0.5608(7) 0.1402(2)
C1 C 0.0964(4) 0.8855(12) 0.0000
H1 H 0.0604 0.9565 0.0000
C2 C 0.1226(3) 0.8337(7) 0.0691(3)
C3 C 0.1772(2) 0.7274(7) 0.0696(3)
C4 C 0.2031(4) 0.6763(10) 0.0000
H2 H 0.2390 0.6054 0.0000
C5 C 0.0880(3) 0.8948(8) 0.1397(3)
C6 C 0.2063(2) 0.6692(7) 0.1439(3)
O1I O 0.1046(2) 1.0344(6) -0.1697(3)
O2I O 0.0399(2) 0.8116(6) -0.1619(3)
O3I O 0.1839(2) 0.7261(5) -0.2060(2)
O4I O 0.2506(2) 0.5608(7) -0.1402(2)
C2I C 0.1226(3) 0.8337(7) -0.0691(3)
C3I C 0.1772(2) 0.7274(7) -0.0696(3)
C5I C 0.0880(3) 0.8948(8) -0.1397(3)
C6I C 0.2063(2) 0.6692(7) -0.1439(3)
Cd2A Cd -0.20117(3) 1.0000 0.2500
O1A O -0.1046(2) 0.9656(6) 0.1697(3)
O2A O -0.0399(2) 1.1884(6) 0.1619(3)
O3A O -0.1839(2) 1.2739(5) 0.2060(2)
O4A O -0.2506(2) 1.4392(7) 0.1402(2)
C1A C -0.0964(4) 1.1145(12) 0.0000
H1A H -0.0604 1.0435 0.0000
C2A C -0.1226(3) 1.1663(7) 0.0691(3)
C3A C -0.1772(2) 1.2726(7) 0.0696(3)
C4A C -0.2031(4) 1.3237(10) 0.0000
H2A H -0.2390 1.3946 0.0000
C5A C -0.0880(3) 1.1052(8) 0.1397(3)
C6A C -0.2063(2) 1.3308(7) 0.1439(3)
O1H O -0.1046(2) 0.9656(6) -0.1697(3)
O2H O -0.0399(2) 1.1884(6) -0.1619(3)
O3H O -0.1839(2) 1.2739(5) -0.2060(2)
O4H O -0.2506(2) 1.4392(7) -0.1402(2)
C2H C -0.1226(3) 1.1663(7) -0.0691(3)
C3H C -0.1772(2) 1.2726(7) -0.0696(3)
C5H C -0.0880(3) 1.1052(8) -0.1397(3)
C6H C -0.2063(2) 1.3308(7) -0.1439(3)
Cd1H Cd 0.0000 1.0000 -0.2500
Cd2B Cd 0.29883(3) 0.5000 -0.2500
Cd2C Cd -0.29883(3) 1.5000 -0.2500
Cd2H Cd -0.20117(3) 1.0000 -0.2500
Cd2I Cd 0.20117(3) 1.0000 -0.2500
Cd2J Cd -0.29883(3) 1.5000 0.2500
Cd2K Cd 0.29883(3) 0.5000 0.2500
O1F O -0.1046(2) 1.0344(6) 0.3303(3)
O1G O 0.1046(2) 0.9656(6) 0.3303(3)
O2F O -0.0399(2) 0.8116(6) 0.3381(3)
O2G O 0.0399(2) 1.1884(6) 0.3381(3)
O3F O -0.1839(2) 0.7261(5) 0.2940(2)
O3G O 0.1839(2) 1.2739(5) 0.2940(2)
O4J O -0.2494(2) 0.9392(7) 0.1402(2)
O4K O 0.2494(2) 1.0608(7) 0.1402(2)
O4L O 0.2494(2) 0.9392(7) 0.3598(2)
O4M O -0.2494(2) 1.0608(7) 0.3598(2)
Na1 Na 0.0000 0.5000 0.1531(8)
O5 O 0.0728(9) 0.476(3) 0.2309(12)
Na2 Na 0.0232(15) 0.468(4) 0.061(2)
O6 O 0.1077(17) 0.351(4) 0.089(2)
O7? O 0.1374(12) 0.313(3) 0.0682(15)
loop_
_geom_bond_atom_site_label_1
_geom_bond_atom_site_label_2
_geom_bond_site_symmetry_1
_geom_bond_site_symmetry_2
Cd1 O1 1_555 1_555
Cd2 O1 1_555 1_555
O1 C5 1_555 1_555
O2 Cd1 1_555 1_555
O3 Cd2 1_555 1_555
O4 C6 1_555 1_555
C1 H1 1_555 1_555
C2 C1 1_555 1_555
C3 C2 1_555 1_555
C4 C3 1_555 1_555
H2 C4 1_555 1_555
C5 O2 1_555 1_555
C6 O3 1_555 1_555
O1I C5I 1_555 1_555
O2I C5I 1_555 1_555
O3I C6I 1_555 1_555
O4I C6I 1_555 1_555
C2I C1 1_555 1_555
C3I C4 1_555 1_555
C5I C2I 1_555 1_555
C6I C3I 1_555 1_555
Cd2A O1A 1_555 1_555
O1A Cd1 1_555 1_555
O2A Cd1 1_555 1_555
O3A Cd2A 1_555 1_555
O4A C6A 1_555 1_555
C1A H1A 1_555 1_555
C2A C1A 1_555 1_555
C3A C2A 1_555 1_555
C4A C3A 1_555 1_555
H2A C4A 1_555 1_555
C5A O1A 1_555 1_555
C6A O3A 1_555 1_555
O1H C5H 1_555 1_555
O2H C5H 1_555 1_555
O3H C6H 1_555 1_555
O4H C6H 1_555 1_555
C2H C1A 1_555 1_555
C3H C4A 1_555 1_555
C5H C2H 1_555 1_555
C6H C3H 1_555 1_555
Cd1H O1I 1_555 1_555
Cd2B O4I 1_555 1_555
Cd2C O4H 1_555 1_555
Cd2H O1H 1_555 1_555
Cd2I O1I 1_555 1_555
Cd2J O4A 1_555 1_555
Cd2K O4 1_555 1_555
O1F Cd1 1_555 1_555
O1G Cd1 1_555 1_555
O2F Cd1 1_555 1_555
O2G Cd1 1_555 1_555
O3F Cd2A 1_555 1_555
O3G Cd2 1_555 1_555
O4J Cd2A 1_555 1_555
O4K Cd2 1_555 1_555
O4L Cd2 1_555 1_555
O4M Cd2A 1_555 1_555
Cd2 O1G 1_555 1_555
C2 C5 1_555 1_555
C3 C6 1_555 1_555
O2I Cd1H 1_555 1_555
O3I Cd2I 1_555 1_555
C2I C3I 1_555 1_555
Cd2A O1F 1_555 1_555
O2A C5A 1_555 1_555
C2A C5A 1_555 1_555
C3A C6A 1_555 1_555
O1H Cd1H 1_555 1_555
O2H Cd1H 1_555 1_555
O3H Cd2H 1_555 1_555
C2H C3H 1_555 1_555

#END
