
#######################################################################
#
#                 Cambridge Crystallographic Data Centre
#                                CCDC 
#
#######################################################################
#
# If this CIF has been generated from an entry in the Cambridge 
# Structural Database, then it will include bibliographic, chemical, 
# crystal, experimental, refinement or atomic coordinate data resulting 
# from the CCDC's data processing and validation procedures.
#
#######################################################################

data_PIHMUP
_symmetry_cell_setting           triclinic
_symmetry_space_group_name_H-M   'P -1'
_symmetry_Int_Tables_number      2
_space_group_name_Hall           '-P 1'
loop_
_symmetry_equiv_pos_site_id
_symmetry_equiv_pos_as_xyz
1 x,y,z
2 -x,-y,-z
_cell_length_a                   7.6417(19)
_cell_length_b                   10.106(3)
_cell_length_c                   10.638(3)
_cell_angle_alpha                93.557(4)
_cell_angle_beta                 101.146(4)
_cell_angle_gamma                101.551(4)
_cell_volume                     785.37
loop_
_atom_site_label
_atom_site_type_symbol
_atom_site_fract_x
_atom_site_fract_y
_atom_site_fract_z
Co1 Co -1.0000 -0.5000 0.0000
O7 O -0.7574(3) -0.5816(2) 0.0153(2)
H3 H -0.7245 -0.5989 -0.0544
H4 H -0.6820 -0.5276 0.0739
O8 O -0.9276(3) -0.4639(3) 0.1978(2)
H5 H -1.0058 -0.4699 0.2446
H6 H -0.8160 -0.4483 0.2346
N1 N -0.8306(4) -0.3044(3) -0.0095(3)
C10 C -0.8187(5) -0.1961(4) 0.0717(4)
H13 H -0.8990 -0.2022 0.1276
C11 C -0.6944(5) -0.0753(4) 0.0778(4)
H14 H -0.6937 -0.0020 0.1353
C12 C -0.5700(4) -0.0639(3) -0.0027(3)
C13 C -0.5854(5) -0.1740(4) -0.0872(4)
H15 H -0.5076 -0.1705 -0.1448
C14 C -0.7148(5) -0.2912(4) -0.0886(3)
H16 H -0.7212 -0.3645 -0.1479
Co1_2 Co 0.0000 0.5000 0.0000
O7A O -1.2426(3) -0.4184(2) -0.0153(2)
H3A H -1.2755 -0.4011 0.0544
H4A H -1.3180 -0.4724 -0.0739
O8A O -1.0724(3) -0.5361(3) -0.1978(2)
H5A H -0.9942 -0.5301 -0.2446
H6A H -1.1840 -0.5517 -0.2346
N1A N -0.1694(4) 0.3044(3) 0.0095(3)
N1A_2 N -1.1694(4) -0.6956(3) 0.0095(3)
C10A C -0.1813(5) 0.1961(4) -0.0717(4)
H13A H -0.1010 0.2022 -0.1276
C11A C -0.3056(5) 0.0753(4) -0.0778(4)
H14A H -0.3063 0.0020 -0.1353
C12A C -0.4300(4) 0.0639(3) 0.0027(3)
C13A C -0.4146(5) 0.1740(4) 0.0872(4)
H15A H -0.4924 0.1705 0.1448
C14A C -0.2852(5) 0.2912(4) 0.0886(3)
H16A H -0.2788 0.3645 0.1479
Co2 Co -0.5000 -0.5000 0.5000
O1 O -0.5719(3) -0.3978(2) 0.3324(2)
O2 O -0.4674(3) -0.4028(3) 0.1525(2)
O3 O -0.0512(3) 0.1899(2) 0.3928(2)
O4 O 0.1408(3) 0.4648(3) 0.6342(2)
O5 O 0.2299(3) 0.3927(2) 0.4602(2)
O6 O -0.5606(3) -0.3490(2) 0.6165(2)
H1 H -0.4778 -0.3110 0.6802
H2 H -0.6535 -0.4019 0.6318
C1 C -0.4704(4) -0.3444(4) 0.2585(3)
C2 C -0.3584(4) -0.2043(4) 0.2989(3)
C3 C -0.3682(5) -0.1303(4) 0.4091(3)
H7 H -0.4442 -0.1701 0.4612
C4 C -0.2691(5) 0.0016(4) 0.4454(3)
H8 H -0.2791 0.0496 0.5202
C5 C -0.1547(5) 0.0606(4) 0.3684(3)
C6 C -0.1406(5) -0.0111(4) 0.2570(3)
H9 H -0.0626 0.0283 0.2059
C7 C -0.2430(5) -0.1414(4) 0.2223(3)
H10 H -0.2354 -0.1887 0.1464
C8 C -0.0393(5) 0.2652(4) 0.5122(3)
H11 H -0.0252 0.2074 0.5812
H12 H -0.1507 0.2977 0.5110
C9 C 0.1221(5) 0.3842(4) 0.5357(3)
Co2_2 Co 0.5000 0.5000 0.5000
Co2_3 Co -1.5000 -1.5000 0.5000
O1A O -0.4281(3) -0.6022(2) 0.6676(2)
O2A O -0.5326(3) -0.5972(3) 0.8475(2)
O3A O -0.9488(3) -1.1899(2) 0.6072(2)
O4A O -1.1408(3) -1.4648(3) 0.3658(2)
O5_2 O -0.7701(3) -0.6073(2) 0.4602(2)
O5A O -0.2299(3) -0.3927(2) 0.5398(2)
O5A_2 O -1.2299(3) -1.3927(2) 0.5398(2)
O6A O -0.4394(3) -0.6510(2) 0.3835(2)
H1A H -0.5222 -0.6890 0.3198
H2A H -0.3465 -0.5981 0.3682
C1A C -0.5296(4) -0.6556(4) 0.7415(3)
C2A C -0.6416(4) -0.7957(4) 0.7011(3)
C3A C -0.6318(5) -0.8697(4) 0.5909(3)
H7A H -0.5558 -0.8299 0.5388
C4A C -0.7309(5) -1.0016(4) 0.5546(3)
H8A H -0.7209 -1.0496 0.4798
C5A C -0.8453(5) -1.0606(4) 0.6316(3)
C6A C -0.8594(5) -0.9889(4) 0.7430(3)
H9A H -0.9374 -1.0283 0.7941
C7A C -0.7570(5) -0.8586(4) 0.7777(3)
H10A H -0.7646 -0.8113 0.8536
C8A C -0.9607(5) -1.2652(4) 0.4878(3)
H11A H -0.9748 -1.2074 0.4188
H12A H -0.8493 -1.2977 0.4890
C9A C -1.1221(5) -1.3842(4) 0.4643(3)
O9 O -0.7691(3) -0.7653(3) 0.2202(2)
H17 H -0.8012 -0.7304 0.2839
H18 H -0.7837 -0.7284 0.1509
loop_
_geom_bond_atom_site_label_1
_geom_bond_atom_site_label_2
_geom_bond_site_symmetry_1
_geom_bond_site_symmetry_2
Co1 O7 1_555 1_555
Co2 O1 1_555 1_555
O1 C1 1_555 1_555
O2 C1 1_555 1_555
O3 C5 1_555 1_555
O4 C9 1_555 1_555
O5 C9 1_555 1_555
O6 Co2 1_555 1_555
H1 O6 1_555 1_555
H2 O6 1_555 1_555
O7 H3 1_555 1_555
H4 O7 1_555 1_555
O8 Co1 1_555 1_555
H5 O8 1_555 1_555
H6 O8 1_555 1_555
N1 Co1 1_555 1_555
C1 C2 1_555 1_555
C2 C3 1_555 1_555
C3 H7 1_555 1_555
C4 C3 1_555 1_555
H8 C4 1_555 1_555
C5 C4 1_555 1_555
C6 C5 1_555 1_555
H9 C6 1_555 1_555
C7 C2 1_555 1_555
H10 C7 1_555 1_555
C8 O3 1_555 1_555
H11 C8 1_555 1_555
H12 C8 1_555 1_555
C9 C8 1_555 1_555
C10 N1 1_555 1_555
H13 C10 1_555 1_555
C11 C10 1_555 1_555
H14 C11 1_555 1_555
C12 C11 1_555 1_555
C13 C12 1_555 1_555
H15 C13 1_555 1_555
C14 N1 1_555 1_555
H16 C14 1_555 1_555
O9 H17 1_555 1_555
H18 O9 1_555 1_555
Co1_2 N1A 1_555 1_555
Co2_2 O5 1_555 1_555
Co2_3 O5A_2 1_555 1_555
O1A Co2 1_555 1_555
O2A C1A 1_555 1_555
O3A C5A 1_555 1_555
O4A C9A 1_555 1_555
O5_2 Co2 1_555 1_555
O5A Co2 1_555 1_555
O5A_2 C9A 1_555 1_555
O6A Co2 1_555 1_555
H1A O6A 1_555 1_555
H2A O6A 1_555 1_555
O7A Co1 1_555 1_555
H3A O7A 1_555 1_555
H4A O7A 1_555 1_555
O8A Co1 1_555 1_555
H5A O8A 1_555 1_555
H6A O8A 1_555 1_555
N1A C10A 1_555 1_555
N1A_2 Co1 1_555 1_555
C1A O1A 1_555 1_555
C2A C1A 1_555 1_555
C3A C2A 1_555 1_555
H7A C3A 1_555 1_555
C4A C3A 1_555 1_555
H8A C4A 1_555 1_555
C5A C4A 1_555 1_555
C6A C5A 1_555 1_555
H9A C6A 1_555 1_555
C7A C2A 1_555 1_555
H10A C7A 1_555 1_555
C8A O3A 1_555 1_555
H11A C8A 1_555 1_555
H12A C8A 1_555 1_555
C9A C8A 1_555 1_555
C10A H13A 1_555 1_555
C11A C10A 1_555 1_555
H14A C11A 1_555 1_555
C12A C12 1_555 1_555
C13A C12A 1_555 1_555
H15A C13A 1_555 1_555
C14A N1A 1_555 1_555
H16A C14A 1_555 1_555
C6 C7 1_555 1_555
C13 C14 1_555 1_555
C6A C7A 1_555 1_555
C11A C12A 1_555 1_555
C13A C14A 1_555 1_555

#END
