
#######################################################################
#
#                 Cambridge Crystallographic Data Centre
#                                CCDC 
#
#######################################################################
#
# If this CIF has been generated from an entry in the Cambridge 
# Structural Database, then it will include bibliographic, chemical, 
# crystal, experimental, refinement or atomic coordinate data resulting 
# from the CCDC's data processing and validation procedures.
#
#######################################################################

data_PIHNOK
_symmetry_cell_setting           monoclinic
_symmetry_space_group_name_H-M   'C 2/c'
_symmetry_Int_Tables_number      15
_space_group_name_Hall           '-C 2yn'
loop_
_symmetry_equiv_pos_site_id
_symmetry_equiv_pos_as_xyz
1 x,y,z
2 1/2+x,1/2+y,z
3 -x,y,1/2-z
4 1/2-x,1/2+y,1/2-z
5 -x,-y,-z
6 1/2-x,1/2-y,-z
7 x,-y,1/2+z
8 1/2+x,1/2-y,1/2+z
_cell_length_a                   30.931(8)
_cell_length_b                   9.8752(13)
_cell_length_c                   20.370(3)
_cell_angle_alpha                90
_cell_angle_beta                 149.310(6)
_cell_angle_gamma                90
_cell_volume                     3175.67
loop_
_atom_site_label
_atom_site_type_symbol
_atom_site_fract_x
_atom_site_fract_y
_atom_site_fract_z
O6 O 0.4511(6) 0.8876(11) 0.1310(10)
H13 H 0.4733 0.9290 0.1278
C16 C 0.5251(11) 0.807(2) 0.2296(18)
H14 H 0.5625 0.8705 0.2574
H15 H 0.5577 0.7358 0.2917
H16 H 0.4870 0.7699 0.1479
C17 C 0.5729(7) 0.7477(11) 0.3090(12)
H17 H 0.6069 0.7870 0.3193
H18 H 0.6090 0.7109 0.3897
H19 H 0.5384 0.6769 0.2459
C18 C 0.5210(8) 0.8640(13) 0.2680(13)
H20 H 0.4488 0.9421 0.1772
O6B O 0.5489(6) 0.8876(11) 0.3690(10)
H13B H 0.5267 0.9290 0.3722
C16B C 0.4749(11) 0.807(2) 0.2704(18)
H14B H 0.4375 0.8705 0.2426
H15B H 0.4423 0.7358 0.2083
H16B H 0.5130 0.7699 0.3521
C17B C 0.4271(7) 0.7477(11) 0.1910(12)
H17B H 0.3931 0.7870 0.1807
H18B H 0.3910 0.7109 0.1103
H19B H 0.4616 0.6769 0.2541
C18B C 0.4790(8) 0.8640(13) 0.2320(13)
H20B H 0.5512 0.9421 0.3228
Zn1 Zn 0.53101(2) 0.47976(3) 0.47152(3)
O1 O 0.58129(16) 0.6670(2) 0.5452(2)
O2 O 0.58207(15) 1.4325(3) 0.7044(2)
O3 O 0.74306(14) 1.2262(2) 0.8477(2)
O4 O 0.62654(16) 1.4122(3) 0.6589(2)
O5 O 0.53346(18) 0.6880(2) 0.5850(3)
N1 N 0.58529(16) 0.3991(3) 0.4607(2)
C1 C 0.7198(2) 1.0297(3) 0.7555(3)
H1 H 0.7641 1.0564 0.7861
C2 C 0.57281(19) 0.7309(3) 0.5871(3)
C3 C 0.63300(19) 1.3939(3) 0.7271(3)
C4 C 0.67892(19) 0.9087(3) 0.6910(3)
H2 H 0.6949 0.8546 0.6766
C5 C 0.69469(18) 1.1125(3) 0.7748(3)
C6 C 0.6195(3) 0.2763(3) 0.5090(4)
H3 H 0.6137 0.2277 0.5402
C7 C 0.6271(2) 1.0753(3) 0.7256(3)
H4 H 0.6080 1.1327 0.7336
C8 C 0.61352(19) 0.8668(3) 0.6471(3)
C9 C 0.5881(2) 0.9516(3) 0.6640(4)
H5 H 0.5438 0.9250 0.6335
C10 C 0.7119(2) 1.3213(3) 0.8536(3)
H6 H 0.7557 1.3876 0.9198
H7 H 0.6993 1.2744 0.8778
C11 C 0.5944(3) 0.4682(4) 0.4166(4)
H8 H 0.5728 0.5556 0.3858
C12 C 0.7120(4) 0.2224(6) 0.4592(7)
H9 H 0.7206 0.1267 0.4790
H10 H 0.6736 0.2296 0.3721
C13 C 0.6632(3) 0.2179(4) 0.5150(5)
H11 H 0.6889 0.1340 0.5541
C14 C 0.6687(3) 0.2845(5) 0.4625(5)
C15 C 0.6349(3) 0.4132(5) 0.4155(5)
H12 H 0.6394 0.4633 0.3828
Zn1D Zn 0.46899(2) 1.52024(3) 0.52848(3)
Zn1_2 Zn 0.53101(2) 1.47976(3) 0.47152(3)
Zn1D_2 Zn 0.46899(2) 0.52024(3) 0.52848(3)
Zn1E Zn 0.96899(2) 0.02024(3) 0.52848(3)
O1D O 0.41871(16) 1.3330(2) 0.4548(2)
O2D O 0.41793(15) 0.5675(3) 0.2956(2)
O3D O 0.25694(14) 0.7738(2) 0.1523(2)
O4D O 0.37346(16) 0.5878(3) 0.3411(2)
O4_2 O 0.62654(16) 0.4122(3) 0.6589(2)
O4D_2 O 0.37346(16) 1.5878(3) 0.3411(2)
O5D O 0.46654(18) 1.3120(2) 0.4150(3)
O5D_2 O 0.46654(18) 0.3120(2) 0.4150(3)
O5_2 O 0.53346(18) 1.6880(2) 0.5850(3)
N1E N 0.91471(16) 0.1009(3) 0.5393(2)
N1D N 0.41471(16) 1.6009(3) 0.5393(2)
C1D C 0.2802(2) 0.9703(3) 0.2445(3)
H1D H 0.2359 0.9436 0.2139
C2D C 0.42719(19) 1.2691(3) 0.4129(3)
C3D C 0.36700(19) 0.6061(3) 0.2729(3)
C4D C 0.32108(19) 1.0913(3) 0.3090(3)
H2D H 0.3051 1.1454 0.3234
C5D C 0.30531(18) 0.8875(3) 0.2252(3)
C6E C 0.8805(3) 0.2237(3) 0.4910(4)
H3E H 0.8863 0.2723 0.4598
C7D C 0.3729(2) 0.9247(3) 0.2744(3)
H4D H 0.3920 0.8673 0.2664
C8D C 0.38648(19) 1.1332(3) 0.3529(3)
C9D C 0.4119(2) 1.0484(3) 0.3360(4)
H5D H 0.4562 1.0750 0.3665
C10D C 0.2881(2) 0.6787(3) 0.1464(3)
H6D H 0.2443 0.6124 0.0802
H7D H 0.3007 0.7256 0.1222
C11E C 0.9056(3) 0.0318(4) 0.5834(4)
H8E H 0.9272 -0.0556 0.6142
C12E C 0.7880(4) 0.2776(6) 0.5408(7)
H9E H 0.7794 0.3733 0.5210
H10E H 0.8264 0.2704 0.6279
C13E C 0.8368(3) 0.2821(4) 0.4850(5)
H11E H 0.8111 0.3660 0.4459
C14E C 0.8313(3) 0.2155(5) 0.5375(5)
C15E C 0.8651(3) 0.0868(5) 0.5845(5)
H12E H 0.8606 0.0367 0.6172
loop_
_geom_bond_atom_site_label_1
_geom_bond_atom_site_label_2
_geom_bond_site_symmetry_1
_geom_bond_site_symmetry_2
Zn1 O1 1_555 1_555
O1 C2 1_555 1_555
O2 C3 1_555 1_555
O3 C5 1_555 1_555
O4 C3 1_555 1_555
O5 C2 1_555 1_555
N1 Zn1 1_555 1_555
C1 H1 1_555 1_555
C2 C8 1_555 1_555
C3 C10 1_555 1_555
C4 C1 1_555 1_555
H2 C4 1_555 1_555
C5 C1 1_555 1_555
C6 N1 1_555 1_555
H3 C6 1_555 1_555
C7 C5 1_555 1_555
H4 C7 1_555 1_555
C8 C4 1_555 1_555
C9 C7 1_555 1_555
H5 C9 1_555 1_555
C10 O3 1_555 1_555
H6 C10 1_555 1_555
H7 C10 1_555 1_555
C11 N1 1_555 1_555
H8 C11 1_555 1_555
C12 H9 1_555 1_555
H10 C12 1_555 1_555
C13 C6 1_555 1_555
H11 C13 1_555 1_555
C14 C12 1_555 1_555
C15 C11 1_555 1_555
H12 C15 1_555 1_555
O6 H13 1_555 1_555
C16 O6 1_555 1_555
H14 C16 1_555 1_555
H15 C16 1_555 1_555
H16 C16 1_555 1_555
C17 C16 1_555 1_555
H17 C17 1_555 1_555
H18 C17 1_555 1_555
H19 C16 1_555 1_555
C18 O6 1_555 1_555
H20 O6 1_555 1_555
Zn1D O2 1_555 1_555
Zn1_2 O4 1_555 1_555
Zn1D_2 O5 1_555 1_555
Zn1E N1E 1_555 1_555
O1D Zn1D 1_555 1_555
O2D Zn1 1_555 1_555
O3D C5D 1_555 1_555
O4D Zn1D_2 1_555 1_555
O4_2 Zn1 1_555 1_555
O4D_2 Zn1D 1_555 1_555
O5D Zn1_2 1_555 1_555
O5D_2 Zn1 1_555 1_555
O5_2 Zn1D 1_555 1_555
N1E C6E 1_555 1_555
N1D Zn1D 1_555 1_555
C1D H1D 1_555 1_555
C2D O1D 1_555 1_555
C3D O2D 1_555 1_555
C4D C1D 1_555 1_555
H2D C4D 1_555 1_555
C5D C1D 1_555 1_555
C6E H3E 1_555 1_555
C7D C5D 1_555 1_555
H4D C7D 1_555 1_555
C8D C2D 1_555 1_555
C9D C7D 1_555 1_555
H5D C9D 1_555 1_555
C10D O3D 1_555 1_555
H6D C10D 1_555 1_555
H7D C10D 1_555 1_555
C11E N1E 1_555 1_555
H8E C11E 1_555 1_555
C12E C12 1_555 1_555
H9E C12E 1_555 1_555
H10E C12E 1_555 1_555
C13E C6E 1_555 1_555
H11E C13E 1_555 1_555
C14E C12E 1_555 1_555
C15E C11E 1_555 1_555
H12E C15E 1_555 1_555
O6B C18 1_555 1_555
H13B O6B 1_555 1_555
C16B C18 1_555 1_555
H14B C16B 1_555 1_555
H15B C16B 1_555 1_555
H16B C16B 1_555 1_555
C17B C16B 1_555 1_555
H17B C17B 1_555 1_555
H18B C17B 1_555 1_555
H19B C16B 1_555 1_555
C18B O6 1_555 1_555
H20B C18 1_555 1_555
C8 C9 1_555 1_555
C13 C14 1_555 1_555
C14 C15 1_555 1_555
C16 C18 1_555 1_555
C16 C18B 1_555 1_555
H15 C17 1_555 1_555
H15 H19 1_555 1_555
C17 H19 1_555 1_555
C17 C18 1_555 1_555
C18 C18B 1_555 1_555
H20 C18B 1_555 1_555
O4D C3D 1_555 1_555
O5D C2D 1_555 1_555
C3D C10D 1_555 1_555
C4D C8D 1_555 1_555
C8D C9D 1_555 1_555
C13E C14E 1_555 1_555
C14E C15E 1_555 1_555
O6B C16B 1_555 1_555
O6B C18B 1_555 1_555
O6B H20B 1_555 1_555
C16B C18B 1_555 1_555
H15B C17B 1_555 1_555
H15B H19B 1_555 1_555
C17B H19B 1_555 1_555
C17B C18B 1_555 1_555

#END
