
#######################################################################
#
#                 Cambridge Crystallographic Data Centre
#                                CCDC 
#
#######################################################################
#
# If this CIF has been generated from an entry in the Cambridge 
# Structural Database, then it will include bibliographic, chemical, 
# crystal, experimental, refinement or atomic coordinate data resulting 
# from the CCDC's data processing and validation procedures.
#
#######################################################################

data_PIHNUR
_symmetry_cell_setting           triclinic
_symmetry_space_group_name_H-M   'P -1'
_symmetry_Int_Tables_number      2
_space_group_name_Hall           '-P 1'
loop_
_symmetry_equiv_pos_site_id
_symmetry_equiv_pos_as_xyz
1 x,y,z
2 -x,-y,-z
_cell_length_a                   7.920(2)
_cell_length_b                   10.042(3)
_cell_length_c                   11.524(3)
_cell_angle_alpha                92.540(3)
_cell_angle_beta                 95.345(3)
_cell_angle_gamma                104.644(2)
_cell_volume                     880.711
loop_
_atom_site_label
_atom_site_type_symbol
_atom_site_fract_x
_atom_site_fract_y
_atom_site_fract_z
Cu1 Cu 0.5000 0.0000 0.0000
S1 S 0.53467(14) 0.39099(11) 0.27426(10)
O1 O 0.5073(4) 0.0253(3) 0.1685(2)
O2 O 0.2844(4) 0.1112(3) 0.1091(3)
C1 C 0.2387(7) -0.4158(5) 0.0407(4)
H1 H 0.2756 -0.4898 0.0701
C2 C 0.0659(5) -0.4336(4) -0.0002(3)
C3 C 0.0243(6) -0.3194(5) -0.0436(4)
H2 H -0.0904 -0.3247 -0.0740
C4 C 0.1520(8) -0.1965(5) -0.0422(4)
H3 H 0.1190 -0.1209 -0.0712
C5 C 0.8825(6) 0.5408(5) 0.2890(3)
C6 C 0.7645(5) 0.4158(5) 0.3088(3)
C7 C 0.8298(7) 0.3118(5) 0.3539(4)
H4 H 0.7529 0.2279 0.3653
C8 C 1.0071(7) 0.3307(6) 0.3822(4)
H5 H 1.0492 0.2594 0.4124
C9 C 1.1214(6) 0.4534(6) 0.3663(5)
H6 H 1.2410 0.4664 0.3869
C10 C 1.0602(6) 0.5568(5) 0.3202(4)
H7 H 1.1393 0.6400 0.3094
O3 O 0.6782(5) 0.6353(3) 0.1798(3)
C11 C 0.8205(7) 0.6502(5) 0.2337(4)
O4 O 0.9394(4) 0.7732(3) 0.2454(3)
N1 N 0.3183(5) -0.1802(4) -0.0021(3)
C12 C 0.3579(6) -0.2906(6) 0.0389(4)
H8 H 0.4736 -0.2828 0.0684
C13 C 0.4490(5) 0.2551(4) 0.3629(4)
C14 C 0.4471(6) 0.2831(5) 0.4806(4)
H9 H 0.4971 0.3723 0.5136
C15 C 0.3733(7) 0.1827(6) 0.5496(4)
H10 H 0.3762 0.2032 0.6294
C16 C 0.2939(6) 0.0503(6) 0.5017(5)
H11 H 0.2400 -0.0176 0.5484
C17 C 0.2955(6) 0.0203(5) 0.3841(5)
H12 H 0.2431 -0.0687 0.3516
C18 C 0.3746(5) 0.1213(5) 0.3130(4)
C19 C 0.3873(7) 0.0849(4) 0.1876(4)
C20 C 0.8882(7) 0.8850(5) 0.1864(5)
H13 H 0.8477 0.8554 0.1060
H14 H 0.9875 0.9638 0.1907
H15 H 0.7958 0.9094 0.2238
C1A C -0.2387(7) -0.5842(5) -0.0407(4)
H1A H -0.2756 -0.5102 -0.0701
C2A C -0.0659(5) -0.5664(4) 0.0002(3)
C3A C -0.0243(6) -0.6806(5) 0.0436(4)
H2A H 0.0904 -0.6753 0.0740
C4A C -0.1520(8) -0.8035(5) 0.0422(4)
H3A H -0.1190 -0.8791 0.0712
N1A N -0.3183(5) -0.8198(4) 0.0021(3)
C12A C -0.3579(6) -0.7094(6) -0.0389(4)
H8A H -0.4736 -0.7172 -0.0684
S1A S 0.46533(14) -0.39099(11) -0.27426(10)
O1A O 0.4927(4) -0.0253(3) -0.1685(2)
O2A O 0.7156(4) -0.1112(3) -0.1091(3)
C5A C 0.1175(6) -0.5408(5) -0.2890(3)
C6A C 0.2355(5) -0.4158(5) -0.3088(3)
C7A C 0.1702(7) -0.3118(5) -0.3539(4)
H4A H 0.2471 -0.2279 -0.3653
C8A C -0.0071(7) -0.3307(6) -0.3822(4)
H5A H -0.0492 -0.2594 -0.4124
C9A C -0.1214(6) -0.4534(6) -0.3663(5)
H6A H -0.2410 -0.4664 -0.3869
C10A C -0.0602(6) -0.5568(5) -0.3202(4)
H7A H -0.1393 -0.6400 -0.3094
O3A O 0.3218(5) -0.6353(3) -0.1798(3)
C11A C 0.1795(7) -0.6502(5) -0.2337(4)
O4A O 0.0606(4) -0.7732(3) -0.2454(3)
C13A C 0.5510(5) -0.2551(4) -0.3629(4)
C14A C 0.5529(6) -0.2831(5) -0.4806(4)
H9A H 0.5029 -0.3723 -0.5136
C15A C 0.6267(7) -0.1827(6) -0.5496(4)
H10A H 0.6238 -0.2032 -0.6294
C16A C 0.7061(6) -0.0503(6) -0.5017(5)
H11A H 0.7600 0.0176 -0.5484
C17A C 0.7045(6) -0.0203(5) -0.3841(5)
H12A H 0.7569 0.0687 -0.3516
C18A C 0.6254(5) -0.1213(5) -0.3130(4)
C19A C 0.6127(7) -0.0849(4) -0.1876(4)
C20A C 0.1118(7) -0.8850(5) -0.1864(5)
H13A H 0.1523 -0.8554 -0.1060
H14A H 0.0125 -0.9638 -0.1907
H15A H 0.2042 -0.9094 -0.2238
Cu1_2 Cu -0.5000 -1.0000 0.0000
N1A_2 N 0.6817(5) 0.1802(4) 0.0021(3)
loop_
_geom_bond_atom_site_label_1
_geom_bond_atom_site_label_2
_geom_bond_site_symmetry_1
_geom_bond_site_symmetry_2
Cu1 O1 1_555 1_555
S1 C6 1_555 1_555
O1 C19 1_555 1_555
O2 Cu1 1_555 1_555
C1 H1 1_555 1_555
C2 C1 1_555 1_555
C3 C2 1_555 1_555
H2 C3 1_555 1_555
C4 C3 1_555 1_555
H3 C4 1_555 1_555
C5 C6 1_555 1_555
C6 C7 1_555 1_555
C7 H4 1_555 1_555
C8 C7 1_555 1_555
H5 C8 1_555 1_555
C9 C8 1_555 1_555
H6 C9 1_555 1_555
C10 C5 1_555 1_555
H7 C10 1_555 1_555
O3 C11 1_555 1_555
C11 C5 1_555 1_555
O4 C11 1_555 1_555
N1 Cu1 1_555 1_555
C12 C1 1_555 1_555
H8 C12 1_555 1_555
C13 S1 1_555 1_555
C14 C13 1_555 1_555
H9 C14 1_555 1_555
C15 C14 1_555 1_555
H10 C15 1_555 1_555
C16 C15 1_555 1_555
H11 C16 1_555 1_555
C17 C16 1_555 1_555
H12 C17 1_555 1_555
C18 C13 1_555 1_555
C19 O2 1_555 1_555
C20 O4 1_555 1_555
H13 C20 1_555 1_555
H14 C20 1_555 1_555
H15 C20 1_555 1_555
C1A H1A 1_555 1_555
C2A C2 1_555 1_555
C3A C2A 1_555 1_555
H2A C3A 1_555 1_555
C4A C3A 1_555 1_555
H3A C4A 1_555 1_555
N1A C4A 1_555 1_555
C12A C1A 1_555 1_555
H8A C12A 1_555 1_555
S1A C6A 1_555 1_555
O1A Cu1 1_555 1_555
O2A Cu1 1_555 1_555
C5A C6A 1_555 1_555
C6A C7A 1_555 1_555
C7A H4A 1_555 1_555
C8A C7A 1_555 1_555
H5A C8A 1_555 1_555
C9A C8A 1_555 1_555
H6A C9A 1_555 1_555
C10A C5A 1_555 1_555
H7A C10A 1_555 1_555
O3A C11A 1_555 1_555
C11A C5A 1_555 1_555
O4A C11A 1_555 1_555
C13A S1A 1_555 1_555
C14A C13A 1_555 1_555
H9A C14A 1_555 1_555
C15A C14A 1_555 1_555
H10A C15A 1_555 1_555
C16A C15A 1_555 1_555
H11A C16A 1_555 1_555
C17A C16A 1_555 1_555
H12A C17A 1_555 1_555
C18A C13A 1_555 1_555
C19A O1A 1_555 1_555
C20A O4A 1_555 1_555
H13A C20A 1_555 1_555
H14A C20A 1_555 1_555
H15A C20A 1_555 1_555
Cu1_2 N1A 1_555 1_555
N1A_2 Cu1 1_555 1_555
C4 N1 1_555 1_555
C9 C10 1_555 1_555
N1 C12 1_555 1_555
C17 C18 1_555 1_555
C18 C19 1_555 1_555
C1A C2A 1_555 1_555
N1A C12A 1_555 1_555
O2A C19A 1_555 1_555
C9A C10A 1_555 1_555
C17A C18A 1_555 1_555
C18A C19A 1_555 1_555

#END
