
#######################################################################
#
#                 Cambridge Crystallographic Data Centre
#                                CCDC 
#
#######################################################################
#
# If this CIF has been generated from an entry in the Cambridge 
# Structural Database, then it will include bibliographic, chemical, 
# crystal, experimental, refinement or atomic coordinate data resulting 
# from the CCDC's data processing and validation procedures.
#
#######################################################################

data_PIHPON
_symmetry_cell_setting           monoclinic
_symmetry_space_group_name_H-M   'C 2/c'
_symmetry_Int_Tables_number      15
_space_group_name_Hall           '-C 2yn'
loop_
_symmetry_equiv_pos_site_id
_symmetry_equiv_pos_as_xyz
1 x,y,z
2 -x,y,1/2-z
3 1/2+x,1/2+y,z
4 1/2-x,1/2+y,1/2-z
5 -x,-y,-z
6 x,-y,1/2+z
7 1/2-x,1/2-y,-z
8 1/2+x,1/2-y,1/2+z
_cell_length_a                   14.703(15)
_cell_length_b                   17.248(17)
_cell_length_c                   14.91(2)
_cell_angle_alpha                90
_cell_angle_beta                 114.869(10)
_cell_angle_gamma                90
_cell_volume                     3430.52
loop_
_atom_site_label
_atom_site_type_symbol
_atom_site_fract_x
_atom_site_fract_y
_atom_site_fract_z
Hg1 Hg 1.0000 0.38954(3) 0.2500
Cl1 Cl 0.8434(2) 0.32237(17) 0.2043(2)
N1 N 0.8917(6) 0.5684(4) 0.0141(5)
N2 N 0.9747(6) 0.4857(4) 0.1357(5)
C1 C 1.0413(7) 0.5414(5) 0.1338(7)
C2 C 1.1414(8) 0.5505(6) 0.1925(7)
H1 H 1.1754 0.5159 0.2435
C3 C 1.1893(8) 0.6108(8) 0.1746(9)
H2 H 1.2569 0.6184 0.2151
C4 C 1.1417(11) 0.6611(7) 0.0988(11)
H3 H 1.1785 0.7009 0.0878
C5 C 1.0393(10) 0.6551(5) 0.0368(8)
H4 H 1.0068 0.6901 -0.0142
C6 C 0.9889(8) 0.5927(4) 0.0567(7)
C7 C 0.8883(7) 0.5044(5) 0.0642(7)
H5 H 0.8299 0.4761 0.0494
C8 C 0.8082(7) 0.6062(5) -0.0652(6)
H6 H 0.7512 0.5712 -0.0899
H7 H 0.8266 0.6175 -0.1191
C9 C 0.7780(6) 0.6815(5) -0.0305(6)
C10 C 0.7741(7) 0.7496(6) -0.0768(6)
H8 H 0.7910 0.7507 -0.1303
C11 C 0.7543(7) 0.6823(5) 0.0468(7)
H9 H 0.7569 0.6366 0.0808
N1F N 0.6083(6) 0.9316(4) -0.0141(5)
N2F N 0.5253(6) 1.0143(4) -0.1357(5)
C1F C 0.4587(7) 0.9586(5) -0.1338(7)
C2F C 0.3586(8) 0.9495(6) -0.1925(7)
H1F H 0.3246 0.9841 -0.2435
C3F C 0.3107(8) 0.8892(8) -0.1746(9)
H2F H 0.2431 0.8816 -0.2151
C4F C 0.3583(11) 0.8389(7) -0.0988(11)
H3F H 0.3215 0.7991 -0.0878
C5F C 0.4607(10) 0.8449(5) -0.0368(8)
H4F H 0.4932 0.8099 0.0142
C6F C 0.5111(8) 0.9073(4) -0.0567(7)
C7F C 0.6117(7) 0.9956(5) -0.0642(7)
H5F H 0.6701 1.0239 -0.0494
C8F C 0.6918(7) 0.8938(5) 0.0652(6)
H6F H 0.7488 0.9288 0.0899
H7F H 0.6734 0.8825 0.1191
C9F C 0.7220(6) 0.8185(5) 0.0305(6)
C10F C 0.7259(7) 0.7504(6) 0.0768(6)
H8F H 0.7090 0.7493 0.1303
C11F C 0.7457(7) 0.8177(5) -0.0468(7)
H9F H 0.7431 0.8634 -0.0808
Cl1A Cl 1.1566(2) 0.32237(17) 0.2957(2)
Hg1F Hg 0.5000 1.11046(3) -0.2500
N2A N 1.0253(6) 0.4857(4) 0.3643(5)
O1 O 0.5000 0.3422(13) 0.2500
C12 C 0.5000 0.260(2) 0.2500
O2 O 0.0534(16) 0.8849(17) 0.887(2)
H10 H 0.0739 0.9249 0.8577
H11 H 0.1062 0.8656 0.9335
O3 O 0.6405(16) 0.4887(13) 0.0095(14)
H12 H 0.6166 0.4554 -0.0362
H13 H 0.6883 0.4849 0.0631
H14? H 0.5664 0.2414 0.2899
H15? H 0.4787 0.2414 0.1835
H16? H 0.4548 0.2414 0.2766
H17? H 0.5159 0.3580 0.2067
loop_
_geom_bond_atom_site_label_1
_geom_bond_atom_site_label_2
_geom_bond_site_symmetry_1
_geom_bond_site_symmetry_2
Hg1 Cl1 1_555 1_555
N1 C6 1_555 1_555
N2 Hg1 1_555 1_555
C1 N2 1_555 1_555
C2 C1 1_555 1_555
H1 C2 1_555 1_555
C3 C2 1_555 1_555
H2 C3 1_555 1_555
C4 C3 1_555 1_555
H3 C4 1_555 1_555
C5 C4 1_555 1_555
H4 C5 1_555 1_555
C6 C1 1_555 1_555
C7 N1 1_555 1_555
H5 C7 1_555 1_555
C8 N1 1_555 1_555
H6 C8 1_555 1_555
H7 C8 1_555 1_555
C9 C8 1_555 1_555
C10 C9 1_555 1_555
H8 C10 1_555 1_555
C11 C9 1_555 1_555
H9 C11 1_555 1_555
O1 C12 1_555 1_555
O2 H10 1_555 1_555
H11 O2 1_555 1_555
O3 H12 1_555 1_555
H13 O3 1_555 1_555
N1F C6F 1_555 1_555
N2F C1F 1_555 1_555
C1F C2F 1_555 1_555
C2F H1F 1_555 1_555
C3F C2F 1_555 1_555
H2F C3F 1_555 1_555
C4F C3F 1_555 1_555
H3F C4F 1_555 1_555
C5F C4F 1_555 1_555
H4F C5F 1_555 1_555
C6F C1F 1_555 1_555
C7F N1F 1_555 1_555
H5F C7F 1_555 1_555
C8F N1F 1_555 1_555
H6F C8F 1_555 1_555
H7F C8F 1_555 1_555
C9F C8F 1_555 1_555
C10F C11 1_555 1_555
H8F C10F 1_555 1_555
C11F C10 1_555 1_555
H9F C11F 1_555 1_555
Cl1A Hg1 1_555 1_555
Hg1F N2F 1_555 1_555
N2A Hg1 1_555 1_555
N2 C7 1_555 1_555
C5 C6 1_555 1_555
N2F C7F 1_555 1_555
C5F C6F 1_555 1_555
C9F C10F 1_555 1_555
C9F C11F 1_555 1_555

#END
