
#######################################################################
#
#                 Cambridge Crystallographic Data Centre
#                                CCDC 
#
#######################################################################
#
# If this CIF has been generated from an entry in the Cambridge 
# Structural Database, then it will include bibliographic, chemical, 
# crystal, experimental, refinement or atomic coordinate data resulting 
# from the CCDC's data processing and validation procedures.
#
#######################################################################

data_PIHPIG
_symmetry_cell_setting           monoclinic
_symmetry_space_group_name_H-M   'P 21/c'
_symmetry_Int_Tables_number      14
_space_group_name_Hall           '-P 2ybc'
loop_
_symmetry_equiv_pos_site_id
_symmetry_equiv_pos_as_xyz
1 x,y,z
2 -x,1/2+y,1/2-z
3 -x,-y,-z
4 x,1/2-y,1/2+z
_cell_length_a                   24.8125(5)
_cell_length_b                   18.8507(3)
_cell_length_c                   21.8656(3)
_cell_angle_alpha                90
_cell_angle_beta                 93.077(2)
_cell_angle_gamma                90
_cell_volume                     10212.5
loop_
_atom_site_label
_atom_site_type_symbol
_atom_site_fract_x
_atom_site_fract_y
_atom_site_fract_z
Yb1 Yb 0.00727(5) 0.80958(6) 0.17662(5)
Na1 Na 0.0341(5) 1.4083(6) -0.0015(5)
Na2 Na 0.0649(4) 1.1008(5) 0.0862(4)
O1 O 0.1173(8) 1.3482(11) -0.0125(8)
H1 H 0.1328 1.3306 0.0196
H2 H 0.1373 1.3407 -0.0422
O2 O -0.0193(8) 1.0376(10) 0.0568(9)
H3 H -0.0264 0.9940 0.0508
H4 H -0.0373 1.0618 0.0300
O3 O 0.0543(8) 1.1152(10) 0.1946(9)
H5 H 0.0451 1.1577 0.2016
H6 H 0.0754 1.1013 0.2242
O4 O 0.1381(8) 1.1885(11) 0.0765(9)
H7 H 0.1664 1.1994 0.0980
H8 H 0.1448 1.1953 0.0392
O11 O -0.0564(8) 0.7264(10) 0.1397(9)
H21 H -0.0802 0.7439 0.1148
H22 H -0.0691 0.6885 0.1542
O12 O 0.0509(8) 0.7005(10) 0.1812(8)
H23 H 0.0408 0.6667 0.1575
H24 H 0.0654 0.6837 0.2141
O13 O 0.0753(7) 0.8179(10) 0.2574(8)
H25 H 0.0740 0.8533 0.2813
H26 H 0.1054 0.7971 0.2642
O14 O -0.0193(8) 0.9068(10) 0.2360(9)
H27 H -0.0274 0.9450 0.2168
H28 H 0.0034 0.9166 0.2652
O15 O -0.0347(7) 0.7617(9) 0.2591(8)
H29 H -0.0182 0.7636 0.2942
H30 H -0.0675 0.7722 0.2643
O16 O 0.0306(8) 0.7837(11) 0.0780(9)
H31 H 0.0487 0.8146 0.0596
H32 H 0.0156 0.7565 0.0512
O29 O -0.2501(6) 1.2684(8) 0.0453(7)
H57 H -0.2617 1.2866 0.0771
C1 C -0.1964(9) 1.2618(12) 0.0520(10)
C2 C -0.1682(9) 1.1968(12) 0.0559(10)
C3 C -0.1132(9) 1.1983(12) 0.0653(9)
H58 H -0.0939 1.1548 0.0688
C4 C -0.0840(8) 1.2641(11) 0.0701(9)
C5 C -0.1140(9) 1.3269(12) 0.0644(10)
H59 H -0.0960 1.3714 0.0667
C6 C -0.1686(10) 1.3249(13) 0.0556(10)
S1 S -0.0138(3) 1.2644(3) 0.0784(3)
O30 O 0.0041(8) 1.1929(11) 0.0919(9)
O31 O 0.0048(7) 1.2957(9) 0.0213(8)
O32 O -0.0011(7) 1.3117(10) 0.1302(8)
C7 C -0.1961(10) 1.1259(12) 0.0456(11)
H60 H -0.2352 1.1337 0.0498
H61 H -0.1916 1.1122 0.0024
O33 O -0.2269(8) 1.1191(11) 0.1634(9)
H62 H -0.2308 1.1482 0.1343
C8 C -0.1990(10) 1.0608(13) 0.1444(11)
C9 C -0.1862(9) 1.0033(12) 0.1804(10)
C10 C -0.1589(9) 0.9453(13) 0.1592(10)
H63 H -0.1532 0.9039 0.1834
C11 C -0.1400(10) 0.9507(14) 0.0997(11)
C12 C -0.1525(9) 1.0100(12) 0.0619(11)
H64 H -0.1409 1.0107 0.0212
C13 C -0.1807(10) 1.0662(13) 0.0827(11)
S2 S -0.0980(3) 0.8822(3) 0.0734(3)
O34 O -0.0732(7) 0.9079(10) 0.0200(8)
O35 O -0.0599(8) 0.8712(11) 0.1272(9)
O36 O -0.1301(7) 0.8176(9) 0.0598(8)
C14 C -0.2131(10) 0.9937(14) 0.2423(11)
H65 H -0.2111 0.9431 0.2542
H66 H -0.2517 1.0068 0.2368
O37 O -0.2579(7) 1.1246(9) 0.2820(8)
H67 H -0.2536 1.1184 0.2445
C15 C -0.2134(10) 1.1020(14) 0.3150(12)
C16 C -0.1942(10) 1.1369(13) 0.3675(11)
C17 C -0.1463(9) 1.1137(12) 0.3981(10)
H68 H -0.1319 1.1395 0.4326
C18 C -0.1195(10) 1.0540(14) 0.3788(11)
C19 C -0.1400(11) 1.0195(14) 0.3283(12)
H69 H -0.1213 0.9788 0.3150
C20 C -0.1862(11) 1.0397(15) 0.2953(12)
S3 S -0.0564(3) 1.0309(3) 0.4164(3)
O38 O -0.0439(7) 0.9611(9) 0.3950(7)
O39 O -0.0180(8) 1.0847(11) 0.4006(10)
O40 O -0.0645(8) 1.0321(10) 0.4816(9)
C21 C -0.2256(10) 1.1972(13) 0.3928(11)
H70 H -0.2191 1.1977 0.4379
H71 H -0.2645 1.1879 0.3840
O41 O -0.2890(7) 1.2618(9) 0.3014(7)
H72 H -0.2779 1.2200 0.2978
C22 C -0.2480(9) 1.3034(12) 0.3224(10)
C23 C -0.2398(10) 1.3727(13) 0.3008(11)
C24 C -0.1930(10) 1.4078(14) 0.3265(11)
H73 H -0.1848 1.4541 0.3127
C25 C -0.1592(9) 1.3766(12) 0.3708(10)
C26 C -0.1686(9) 1.3079(12) 0.3919(10)
H74 H -0.1449 1.2870 0.4223
C27 C -0.2125(10) 1.2710(13) 0.3682(11)
S4 S -0.1002(3) 1.4233(3) 0.3962(3)
O42 O -0.0592(8) 1.4022(10) 0.3543(9)
O43 O -0.1137(7) 1.4991(10) 0.3905(9)
O44 O -0.0851(7) 1.3988(10) 0.4576(8)
C28 C -0.2754(10) 1.4132(14) 0.2561(11)
H75 H -0.3032 1.3806 0.2380
H76 H -0.2942 1.4507 0.2784
O45 O -0.2617(7) 1.3420(9) 0.1502(8)
H77 H -0.2769 1.3333 0.1827
C29 C -0.2389(10) 1.4076(13) 0.1538(11)
C30 C -0.2077(9) 1.4349(12) 0.1061(10)
C31 C -0.1867(9) 1.5002(12) 0.1144(10)
H78 H -0.1669 1.5203 0.0827
C32 C -0.1931(9) 1.5407(12) 0.1690(10)
C33 C -0.2251(9) 1.5124(12) 0.2125(10)
H79 H -0.2322 1.5398 0.2476
C34 C -0.2469(9) 1.4462(12) 0.2065(10)
S5 S -0.1598(3) 1.6212(3) 0.1779(3)
O46 O -0.1806(8) 1.6539(10) 0.2324(8)
O47 O -0.1030(7) 1.6045(10) 0.1841(8)
O48 O -0.1707(7) 1.6635(9) 0.1227(8)
C35 C -0.1993(9) 1.3949(12) 0.0480(10)
H80 H -0.1795 1.4259 0.0204
H81 H -0.2351 1.3850 0.0275
Yb1A Yb -0.00727(5) 1.30958(6) 0.32338(5)
Na1A Na -0.0341(5) 0.9083(6) 0.5015(5)
Na1C Na 0.0341(5) 1.0917(6) 0.4985(5)
Na2B Na -0.0649(4) 0.8992(5) -0.0862(4)
Na2A Na -0.0649(4) 1.6008(5) 0.4138(4)
O34B O 0.0732(7) 1.0921(10) -0.0200(8)
O38A O 0.0439(7) 1.4611(9) 0.1050(7)
O39C O -0.0180(8) 1.4153(11) -0.0994(10)
O40C O -0.0645(8) 1.4679(10) -0.0184(9)
O40A O 0.0645(8) 1.5321(10) 0.0184(9)
O42A O 0.0592(8) 0.9022(10) 0.1457(9)
O43A O 0.1137(7) 0.9991(10) 0.1095(9)
Yb2 Yb 0.48086(5) 0.95012(6) 0.17432(5)
Na3 Na 0.4638(5) 0.6388(5) 0.1473(5)
Na4 Na 0.4395(5) 0.7750(5) -0.0507(5)
O5 O 0.3836(8) 0.6776(10) 0.0893(8)
H9 H 0.3722 0.7201 0.0893
H10 H 0.3910 0.6670 0.0529
O6 O 0.5015(11) 0.5782(14) 0.0684(12)
H11 H 0.5132 0.5362 0.0739
H12 H 0.4892 0.5825 0.0315
O7 O 0.4207(10) 0.8137(13) -0.1519(11)
H13 H 0.4511 0.8119 -0.1682
H14 H 0.4076 0.8545 -0.1602
O8 O 0.5294(9) 0.7729(12) -0.0797(10)
H15 H 0.5308 0.7802 -0.1181
H16 H 0.5423 0.8113 -0.0646
O21 O 0.5417(8) 1.0051(10) 0.1048(9)
H41 H 0.5699 1.0234 0.1219
H42 H 0.5245 1.0380 0.0854
O22 O 0.4292(7) 0.9809(10) 0.0856(8)
H43 H 0.3987 0.9925 0.0984
H44 H 0.4220 0.9469 0.0609
O23 O 0.4070(8) 0.8769(10) 0.1725(8)
H45 H 0.3983 0.8513 0.2023
H46 H 0.3877 0.8643 0.1411
O24 O 0.5114(9) 0.8583(11) 0.2336(9)
H47 H 0.5383 0.8625 0.2590
H48 H 0.5123 0.8168 0.2187
O25 O 0.4413(8) 0.9667(11) 0.2665(9)
H49 H 0.4409 1.0096 0.2786
H50 H 0.4296 0.9408 0.2947
O49 O 0.7527(6) 0.7692(8) 0.1075(8)
H82 H 0.7623 0.7908 0.0763
C36 C 0.6969(9) 0.7688(12) 0.1077(10)
C37 C 0.6732(9) 0.8357(12) 0.1033(10)
C38 C 0.6188(11) 0.8414(15) 0.1003(12)
H83 H 0.6028 0.8870 0.0961
C39 C 0.5877(11) 0.7853(15) 0.1032(12)
C40 C 0.6117(9) 0.7159(12) 0.1116(9)
H84 H 0.5899 0.6750 0.1160
C41 C 0.6665(9) 0.7108(12) 0.1131(10)
S6 S 0.5158(3) 0.7886(3) 0.0987(3)
O50 O 0.5046(7) 0.8661(9) 0.1028(7)
O51 O 0.4985(6) 0.7498(8) 0.1525(7)
O52 O 0.4948(8) 0.7593(10) 0.0416(9)
C42 C 0.7081(9) 0.9040(11) 0.1067(10)
H85 H 0.7460 0.8903 0.1172
H86 H 0.6959 0.9338 0.1406
O53 O 0.7515(7) 0.8517(10) -0.0053(8)
H87 H 0.7687 0.8476 -0.0371
C43 C 0.7278(11) 0.9199(15) -0.0037(13)
C44 C 0.7272(10) 0.9577(14) -0.0593(12)
C45 C 0.7036(10) 1.0237(14) -0.0617(12)
H88 H 0.7018 1.0498 -0.0989
C46 C 0.6819(9) 1.0527(13) -0.0081(10)
C47 C 0.6846(10) 1.0122(13) 0.0448(11)
H89 H 0.6694 1.0309 0.0803
C48 C 0.7069(9) 0.9494(13) 0.0483(11)
S7 S 0.6490(3) 1.1346(3) -0.0108(3)
O54 O 0.6567(7) 1.1660(9) -0.0702(8)
O55 O 0.6701(7) 1.1787(10) 0.0412(8)
O56 O 0.5933(7) 1.1214(9) -0.0025(8)
C49 C 0.7471(9) 0.9262(13) -0.1171(11)
H90 H 0.7820 0.9023 -0.1068
H91 H 0.7544 0.9655 -0.1456
O57 O 0.7752(7) 0.7778(10) -0.1498(8)
H92 H 0.7696 0.7384 -0.1334
C50 C 0.7283(10) 0.8076(14) -0.1674(11)
C51 C 0.6934(10) 0.7649(13) -0.2060(11)
C52 C 0.6439(9) 0.7860(12) -0.2200(10)
H93 H 0.6211 0.7545 -0.2435
C53 C 0.6225(10) 0.8496(13) -0.2036(11)
C54 C 0.6577(10) 0.8935(14) -0.1675(11)
H94 H 0.6443 0.9379 -0.1545
C55 C 0.7114(10) 0.8754(14) -0.1494(11)
S8 S 0.5548(3) 0.8713(3) -0.2203(3)
O58 O 0.5431(7) 0.9307(10) -0.1793(8)
O59 O 0.5224(7) 0.8080(10) -0.2084(8)
O60 O 0.5495(7) 0.8922(9) -0.2828(8)
C56 C 0.7147(10) 0.6959(14) -0.2315(11)
H95 H 0.7547 0.6973 -0.2278
H96 H 0.7039 0.6936 -0.2757
O61 O 0.7563(6) 0.6413(8) -0.1119(7)
H97 H 0.7453 0.6472 -0.0766
C57 C 0.7181(9) 0.6034(12) -0.1474(10)
C58 C 0.7059(10) 0.5356(14) -0.1243(11)
C59 C 0.6698(9) 0.4949(12) -0.1556(10)
H98 H 0.6607 0.4498 -0.1398
C60 C 0.6444(9) 0.5186(12) -0.2129(10)
C61 C 0.6583(10) 0.5870(13) -0.2331(11)
H99 H 0.6411 0.6050 -0.2698
C62 C 0.6961(10) 0.6288(13) -0.2015(11)
S9 S 0.6003(3) 0.4656(3) -0.2559(3)
O62 O 0.5527(7) 0.5117(10) -0.2642(8)
O63 O 0.5898(7) 0.4019(10) -0.2219(8)
O64 O 0.6253(7) 0.4526(10) -0.3137(8)
C63 C 0.7328(10) 0.5040(14) -0.0650(11)
H100 H 0.7692 0.5251 -0.0580
H101 H 0.7373 0.4523 -0.0704
O65 O 0.7364(7) 0.6305(9) 0.0155(8)
H102 H 0.7347 0.6617 0.0427
C64 C 0.7049(9) 0.5752(13) 0.0291(11)
C65 C 0.6791(10) 0.5789(13) 0.0840(11)
C66 C 0.6452(9) 0.5206(13) 0.1003(11)
H103 H 0.6296 0.5195 0.1390
C67 C 0.6356(10) 0.4656(13) 0.0579(11)
C68 C 0.6650(9) 0.4622(13) 0.0061(11)
H104 H 0.6614 0.4221 -0.0201
C69 C 0.7001(9) 0.5173(13) -0.0081(10)
S10 S 0.5893(3) 0.4012(3) 0.0771(3)
O66 O 0.5969(9) 0.3380(11) 0.0398(9)
O67 O 0.5358(8) 0.4320(10) 0.0643(9)
O68 O 0.5963(7) 0.3885(10) 0.1429(8)
C70 C 0.6919(9) 0.6366(12) 0.1290(11)
H105 H 0.6794 0.6215 0.1693
H106 H 0.7316 0.6420 0.1334
Yb2B Yb 0.51914(5) 1.04988(6) -0.17432(5)
Yb2C Yb 0.48086(5) 0.54988(6) -0.32568(5)
Na3C Na 0.4638(5) 0.8612(5) -0.3527(5)
Na3B Na 0.5362(5) 0.3612(5) -0.1473(5)
Na4B Na 0.5605(5) 1.2250(5) 0.0507(5)
Na4B_2 Na 0.5605(5) 0.2250(5) 0.0507(5)
O55B O 0.3299(7) 0.8213(10) -0.0412(8)
O56B O 0.4067(7) 0.8786(9) 0.0025(8)
O58B O 0.4569(7) 1.0693(10) 0.1793(8)
O60C O 0.5495(7) 0.6078(9) 0.2172(8)
O62C O 0.5527(7) 0.9883(10) 0.2358(8)
O63B O 0.4102(7) 0.5981(10) 0.2219(8)
O66B O 0.4031(9) 0.6620(11) -0.0398(9)
O9 O 0.1177(8) 1.3252(10) 0.1176(9)
H17 H 0.1265 1.2845 0.1047
H18 H 0.0838 1.3241 0.1218
O10 O -0.0375(10) 1.0366(13) 0.1823(10)
H19 H -0.0379 1.0321 0.1436
H20 H -0.0099 1.0609 0.1938
O17 O 0.3778(7) 0.7928(10) 0.2707(8)
H33 H 0.3501 0.7787 0.2494
H34 H 0.3886 0.7579 0.2926
O18 O 0.5446(10) 0.8788(14) 0.3534(11)
H35 H 0.5566 0.8386 0.3688
H36 H 0.5202 0.8938 0.3758
O19 O 0.0542(8) 0.9512(11) 0.3266(9)
H37 H 0.0670 0.9927 0.3233
H38 H 0.0255 0.9543 0.3460
O20 O 0.1382(8) 1.2912(10) 0.2409(9)
H39 H 0.1509 1.2495 0.2453
H40 H 0.1330 1.2981 0.2026
O26 O 0.4734(8) 1.0937(12) 0.0315(10)
H51 H 0.4475 1.0668 0.0409
H52 H 0.4755 1.0927 -0.0072
O27 O 0.1714(10) 0.7571(13) 0.2822(11)
H53 H 0.1816 0.7163 0.2943
H54 H 0.1932 0.7873 0.2986
O28 O 0.0977(11) 0.6482(15) 0.2841(13)
H55 H 0.1223 0.6732 0.3021
H56 H 0.0887 0.6178 0.3103
loop_
_geom_bond_atom_site_label_1
_geom_bond_atom_site_label_2
_geom_bond_site_symmetry_1
_geom_bond_site_symmetry_2
Yb1 O11 1_555 1_555
Yb2 O21 1_555 1_555
Na1 O1 1_555 1_555
Na2 O2 1_555 1_555
Na3 O5 1_555 1_555
Na4 O7 1_555 1_555
O1 H1 1_555 1_555
H2 O1 1_555 1_555
O2 H3 1_555 1_555
H4 O2 1_555 1_555
O3 Na2 1_555 1_555
H5 O3 1_555 1_555
H6 O3 1_555 1_555
O4 Na2 1_555 1_555
H7 O4 1_555 1_555
H8 O4 1_555 1_555
O5 H9 1_555 1_555
H10 O5 1_555 1_555
O6 Na3 1_555 1_555
H11 O6 1_555 1_555
H12 O6 1_555 1_555
O7 H13 1_555 1_555
H14 O7 1_555 1_555
O8 Na4 1_555 1_555
H15 O8 1_555 1_555
H16 O8 1_555 1_555
O9 H17 1_555 1_555
H18 O9 1_555 1_555
O10 H19 1_555 1_555
H20 O10 1_555 1_555
O11 H21 1_555 1_555
H22 O11 1_555 1_555
O12 Yb1 1_555 1_555
H23 O12 1_555 1_555
H24 O12 1_555 1_555
O13 Yb1 1_555 1_555
H25 O13 1_555 1_555
H26 O13 1_555 1_555
O14 Yb1 1_555 1_555
H27 O14 1_555 1_555
H28 O14 1_555 1_555
O15 Yb1 1_555 1_555
H29 O15 1_555 1_555
H30 O15 1_555 1_555
O16 Yb1 1_555 1_555
H31 O16 1_555 1_555
H32 O16 1_555 1_555
O17 H33 1_555 1_555
H34 O17 1_555 1_555
O18 H35 1_555 1_555
H36 O18 1_555 1_555
O19 H37 1_555 1_555
H38 O19 1_555 1_555
O20 H39 1_555 1_555
H40 O20 1_555 1_555
O21 H41 1_555 1_555
H42 O21 1_555 1_555
O22 Yb2 1_555 1_555
H43 O22 1_555 1_555
H44 O22 1_555 1_555
O23 Yb2 1_555 1_555
H45 O23 1_555 1_555
H46 O23 1_555 1_555
O24 Yb2 1_555 1_555
H47 O24 1_555 1_555
H48 O24 1_555 1_555
O25 Yb2 1_555 1_555
H49 O25 1_555 1_555
H50 O25 1_555 1_555
O26 H51 1_555 1_555
H52 O26 1_555 1_555
O27 H53 1_555 1_555
H54 O27 1_555 1_555
O28 H55 1_555 1_555
H56 O28 1_555 1_555
O29 H57 1_555 1_555
C1 O29 1_555 1_555
C2 C1 1_555 1_555
C3 C2 1_555 1_555
H58 C3 1_555 1_555
C4 C3 1_555 1_555
C5 C4 1_555 1_555
H59 C5 1_555 1_555
C6 C1 1_555 1_555
S1 C4 1_555 1_555
O30 Na2 1_555 1_555
O31 Na1 1_555 1_555
O32 S1 1_555 1_555
C7 C2 1_555 1_555
H60 C7 1_555 1_555
H61 C7 1_555 1_555
O33 H62 1_555 1_555
C8 O33 1_555 1_555
C9 C8 1_555 1_555
C10 C9 1_555 1_555
H63 C10 1_555 1_555
C11 C10 1_555 1_555
C12 C11 1_555 1_555
H64 C12 1_555 1_555
C13 C7 1_555 1_555
S2 C11 1_555 1_555
O34 S2 1_555 1_555
O35 Yb1 1_555 1_555
O36 S2 1_555 1_555
C14 C9 1_555 1_555
H65 C14 1_555 1_555
H66 C14 1_555 1_555
O37 H67 1_555 1_555
C15 O37 1_555 1_555
C16 C15 1_555 1_555
C17 C16 1_555 1_555
H68 C17 1_555 1_555
C18 C17 1_555 1_555
C19 C18 1_555 1_555
H69 C19 1_555 1_555
C20 C14 1_555 1_555
S3 C18 1_555 1_555
O38 S3 1_555 1_555
O39 S3 1_555 1_555
O40 S3 1_555 1_555
C21 C16 1_555 1_555
H70 C21 1_555 1_555
H71 C21 1_555 1_555
O41 H72 1_555 1_555
C22 O41 1_555 1_555
C23 C22 1_555 1_555
C24 C23 1_555 1_555
H73 C24 1_555 1_555
C25 C24 1_555 1_555
C26 C25 1_555 1_555
H74 C26 1_555 1_555
C27 C21 1_555 1_555
S4 C25 1_555 1_555
O42 S4 1_555 1_555
O43 S4 1_555 1_555
O44 S4 1_555 1_555
C28 C23 1_555 1_555
H75 C28 1_555 1_555
H76 C28 1_555 1_555
O45 H77 1_555 1_555
C29 O45 1_555 1_555
C30 C29 1_555 1_555
C31 C30 1_555 1_555
H78 C31 1_555 1_555
C32 C31 1_555 1_555
C33 C32 1_555 1_555
H79 C33 1_555 1_555
C34 C28 1_555 1_555
S5 C32 1_555 1_555
O46 S5 1_555 1_555
O47 S5 1_555 1_555
O48 S5 1_555 1_555
C35 C6 1_555 1_555
H80 C35 1_555 1_555
H81 C35 1_555 1_555
O49 H82 1_555 1_555
C36 O49 1_555 1_555
C37 C36 1_555 1_555
C38 C37 1_555 1_555
H83 C38 1_555 1_555
C39 C38 1_555 1_555
C40 C39 1_555 1_555
H84 C40 1_555 1_555
C41 C36 1_555 1_555
S6 C39 1_555 1_555
O50 Yb2 1_555 1_555
O51 Na3 1_555 1_555
O52 Na4 1_555 1_555
C42 C37 1_555 1_555
H85 C42 1_555 1_555
H86 C42 1_555 1_555
O53 H87 1_555 1_555
C43 O53 1_555 1_555
C44 C43 1_555 1_555
C45 C44 1_555 1_555
H88 C45 1_555 1_555
C46 C45 1_555 1_555
C47 C46 1_555 1_555
H89 C47 1_555 1_555
C48 C42 1_555 1_555
S7 C46 1_555 1_555
O54 S7 1_555 1_555
O55 S7 1_555 1_555
O56 S7 1_555 1_555
C49 C44 1_555 1_555
H90 C49 1_555 1_555
H91 C49 1_555 1_555
O57 H92 1_555 1_555
C50 O57 1_555 1_555
C51 C50 1_555 1_555
C52 C51 1_555 1_555
H93 C52 1_555 1_555
C53 C52 1_555 1_555
C54 C53 1_555 1_555
H94 C54 1_555 1_555
C55 C49 1_555 1_555
S8 C53 1_555 1_555
O58 S8 1_555 1_555
O59 S8 1_555 1_555
O60 S8 1_555 1_555
C56 C51 1_555 1_555
H95 C56 1_555 1_555
H96 C56 1_555 1_555
O61 H97 1_555 1_555
C57 O61 1_555 1_555
C58 C57 1_555 1_555
C59 C58 1_555 1_555
H98 C59 1_555 1_555
C60 C59 1_555 1_555
C61 C60 1_555 1_555
H99 C61 1_555 1_555
C62 C56 1_555 1_555
S9 C60 1_555 1_555
O62 S9 1_555 1_555
O63 S9 1_555 1_555
O64 S9 1_555 1_555
C63 C58 1_555 1_555
H100 C63 1_555 1_555
H101 C63 1_555 1_555
O65 H102 1_555 1_555
C64 O65 1_555 1_555
C65 C64 1_555 1_555
C66 C65 1_555 1_555
H103 C66 1_555 1_555
C67 C66 1_555 1_555
C68 C67 1_555 1_555
H104 C68 1_555 1_555
C69 C63 1_555 1_555
S10 C67 1_555 1_555
O66 S10 1_555 1_555
O67 S10 1_555 1_555
O68 S10 1_555 1_555
C70 C41 1_555 1_555
H105 C70 1_555 1_555
H106 C70 1_555 1_555
Yb1A O42 1_555 1_555
Yb2B O58 1_555 1_555
Yb2C O62 1_555 1_555
Na1A O38 1_555 1_555
Na1C O39 1_555 1_555
Na2B O34 1_555 1_555
Na2A O43 1_555 1_555
Na3C O60 1_555 1_555
Na3B O63 1_555 1_555
Na4B O55 1_555 1_555
Na4B_2 O66 1_555 1_555
O34B Na2 1_555 1_555
O38A Na1 1_555 1_555
O39C Na1 1_555 1_555
O40C Na1 1_555 1_555
O40A Na1 1_555 1_555
O42A Yb1 1_555 1_555
O43A Na2 1_555 1_555
O55B Na4 1_555 1_555
O56B Na4 1_555 1_555
O58B Yb2 1_555 1_555
O60C Na3 1_555 1_555
O62C Yb2 1_555 1_555
O63B Na3 1_555 1_555
O66B Na4 1_555 1_555
C5 C6 1_555 1_555
S1 O30 1_555 1_555
S1 O31 1_555 1_555
C8 C13 1_555 1_555
C12 C13 1_555 1_555
S2 O35 1_555 1_555
C15 C20 1_555 1_555
C19 C20 1_555 1_555
O40 Na1A 1_555 1_555
O40 Na1C 1_555 1_555
C22 C27 1_555 1_555
C26 C27 1_555 1_555
C29 C34 1_555 1_555
C30 C35 1_555 1_555
C33 C34 1_555 1_555
C40 C41 1_555 1_555
S6 O50 1_555 1_555
S6 O51 1_555 1_555
S6 O52 1_555 1_555
C43 C48 1_555 1_555
C47 C48 1_555 1_555
O56 Na4B 1_555 1_555
C50 C55 1_555 1_555
C54 C55 1_555 1_555
C57 C62 1_555 1_555
C61 C62 1_555 1_555
C64 C69 1_555 1_555
C65 C70 1_555 1_555
C68 C69 1_555 1_555

#END
