
#######################################################################
#
#                 Cambridge Crystallographic Data Centre
#                                CCDC 
#
#######################################################################
#
# If this CIF has been generated from an entry in the Cambridge 
# Structural Database, then it will include bibliographic, chemical, 
# crystal, experimental, refinement or atomic coordinate data resulting 
# from the CCDC's data processing and validation procedures.
#
#######################################################################

data_PIHRUU
_symmetry_cell_setting           orthorhombic
_symmetry_space_group_name_H-M   'C 2 2 21'
_symmetry_Int_Tables_number      20
_space_group_name_Hall           'C 2n 2'
loop_
_symmetry_equiv_pos_site_id
_symmetry_equiv_pos_as_xyz
1 x,y,z
2 -x,-y,1/2+z
3 -x,y,1/2-z
4 x,-y,-z
5 1/2+x,1/2+y,z
6 1/2-x,1/2-y,1/2+z
7 1/2-x,1/2+y,1/2-z
8 1/2+x,1/2-y,-z
_cell_length_a                   7.5530(7)
_cell_length_b                   8.8704(9)
_cell_length_c                   10.5761(10)
_cell_angle_alpha                90
_cell_angle_beta                 90
_cell_angle_gamma                90
_cell_volume                     708.579
loop_
_atom_site_label
_atom_site_type_symbol
_atom_site_fract_x
_atom_site_fract_y
_atom_site_fract_z
C1 C 0.4558(3) 0.2478(2) 0.57030(19)
C2 C 0.5609(3) 0.2711(2) 0.6924(2)
H1 H 0.636(3) 0.189(2) 0.703(2)
H2 H 0.759(4) 0.395(3) 0.708(2)
Mg1 Mg 0.17229(12) 0.0000 0.5000
O1 O 0.3545(2) 0.13903(19) 0.57019(16)
O2 O 0.4838(2) 0.33623(17) 0.47988(14)
O3 O 0.6615(2) 0.40642(16) 0.68418(15)
C1B C 0.5442(3) 0.2478(2) 0.92970(19)
C2B C 0.4391(3) 0.2711(2) 0.8076(2)
H1B H 0.364(3) 0.189(2) 0.797(2)
H2B H 0.241(4) 0.395(3) 0.792(2)
H2D H 0.259(4) -0.105(3) 0.708(2)
H2G H 0.259(4) 0.105(3) 0.292(2)
Mg1D Mg 0.67229(12) 0.5000 0.5000
Mg1A Mg 0.82771(12) 0.0000 1.0000
Mg1E Mg 0.32771(12) 0.5000 1.0000
O1B O 0.6455(2) 0.13903(19) 0.92981(16)
O1C O 0.3545(2) -0.13903(19) 0.42981(16)
O2B O 0.5162(2) 0.33623(17) 1.02012(14)
O2D O -0.0162(2) -0.16377(17) 0.47988(14)
O2G O -0.0162(2) 0.16377(17) 0.52012(14)
O3B O 0.3385(2) 0.40642(16) 0.81582(15)
O3D O 0.1615(2) -0.09358(16) 0.68418(15)
O3G O 0.1615(2) 0.09358(16) 0.31582(15)
H3 H 0.500(5) 0.242(3) 0.312(3)
O4 O 0.5000 0.1841(3) 0.2500
H3B H 0.500(5) 0.242(3) 0.188(3)
loop_
_geom_bond_atom_site_label_1
_geom_bond_atom_site_label_2
_geom_bond_site_symmetry_1
_geom_bond_site_symmetry_2
C1 C2 1_555 1_555
C2 H1 1_555 1_555
H2 O3 1_555 1_555
H3 O4 1_555 1_555
Mg1 O1 1_555 1_555
O1 C1 1_555 1_555
O2 C1 1_555 1_555
O3 C2 1_555 1_555
O4 H3B 1_555 1_555
C1B C2B 1_555 1_555
C2B C2 1_555 1_555
H1B C2B 1_555 1_555
H2B O3B 1_555 1_555
H2D O3D 1_555 1_555
H2G O3G 1_555 1_555
Mg1D O2 1_555 1_555
Mg1A O1B 1_555 1_555
Mg1E O2B 1_555 1_555
O1B C1B 1_555 1_555
O1C Mg1 1_555 1_555
O2B C1B 1_555 1_555
O2D Mg1 1_555 1_555
O2G Mg1 1_555 1_555
O3B C2B 1_555 1_555
O3D Mg1 1_555 1_555
O3G Mg1 1_555 1_555
O3 Mg1D 1_555 1_555
Mg1E O3B 1_555 1_555

#END
