
#######################################################################
#
#                 Cambridge Crystallographic Data Centre
#                                CCDC 
#
#######################################################################
#
# If this CIF has been generated from an entry in the Cambridge 
# Structural Database, then it will include bibliographic, chemical, 
# crystal, experimental, refinement or atomic coordinate data resulting 
# from the CCDC's data processing and validation procedures.
#
#######################################################################

data_PIHROO
_symmetry_cell_setting           monoclinic
_symmetry_space_group_name_H-M   'P 2/c'
_symmetry_Int_Tables_number      13
_space_group_name_Hall           '-P 2yc'
loop_
_symmetry_equiv_pos_site_id
_symmetry_equiv_pos_as_xyz
1 x,y,z
2 -x,y,1/2-z
3 -x,-y,-z
4 x,-y,1/2+z
_cell_length_a                   10.815(4)
_cell_length_b                   7.332(2)
_cell_length_c                   10.033(3)
_cell_angle_alpha                90
_cell_angle_beta                 111.529(5)
_cell_angle_gamma                90
_cell_volume                     740.067
loop_
_atom_site_label
_atom_site_type_symbol
_atom_site_fract_x
_atom_site_fract_y
_atom_site_fract_z
C1 C 0.8581(2) 1.0005(3) 0.0639(2)
C2 C 0.9236(2) 0.9756(3) 0.2261(2)
C3 C 0.6468(2) 0.5601(3) 0.3143(2)
C4 C 0.5738(2) 0.7398(3) 0.2590(2)
H1 H 0.898(2) 1.068(4) 0.273(3)
H2 H 0.871(3) 0.810(5) 0.343(4)
H3 H 0.615(2) 0.829(3) 0.329(3)
H4 H 0.593(3) 0.887(5) 0.127(3)
H5 H 0.899(3) 0.401(6) 0.075(4)
H6 H 0.955(9) 0.525(11) 0.165(8)
Mg1 Mg 0.74811(7) 0.64989(10) 0.09243(7)
O1 O 0.78780(15) 0.8744(2) -0.00965(16)
O2 O 0.88087(16) 1.1497(2) 0.01544(17)
O3 O 0.87819(15) 0.8090(2) 0.26231(16)
O4 O 0.71966(15) 0.4981(2) 0.25264(17)
O5 O 0.62848(16) 0.4900(2) 0.41952(18)
O6 O 0.58941(15) 0.7868(2) 0.12745(17)
O7 O 0.91309(18) 0.4967(3) 0.1007(2)
C1A C 1.1419(2) 1.0005(3) 0.4361(2)
C2A C 1.0764(2) 0.9756(3) 0.2739(2)
C3A C 0.3532(2) 0.5601(3) 0.1857(2)
C4A C 0.4262(2) 0.7398(3) 0.2410(2)
H1A H 1.102(2) 1.068(4) 0.227(3)
H2A H 1.129(3) 0.810(5) 0.157(4)
H3A H 0.385(2) 0.829(3) 0.171(3)
H4A H 0.407(3) 0.887(5) 0.373(3)
H4A_2 H 1.407(3) 0.887(5) 0.373(3)
H5A H 1.101(3) 0.401(6) 0.425(4)
H6A H 1.045(9) 0.525(11) 0.335(8)
Mg1A Mg 1.25189(7) 0.64989(10) 0.40757(7)
Mg1C Mg 0.74811(7) 0.35011(10) 0.59243(7)
Mg1A_2 Mg 0.25189(7) 0.64989(10) 0.40757(7)
Mg1B Mg 0.25189(7) 0.35011(10) -0.09243(7)
O1A O 1.21220(15) 0.8744(2) 0.50965(16)
O2A O 1.11913(16) 1.1497(2) 0.48456(17)
O3A O 1.12181(15) 0.8090(2) 0.23769(16)
O4A O 0.28034(15) 0.4981(2) 0.24736(17)
O4A_2 O 1.28034(15) 0.4981(2) 0.24736(17)
O5A O 0.37152(16) 0.4900(2) 0.08048(18)
O5C O 0.62848(16) 0.5100(2) -0.08048(18)
O5B O 1.37152(16) 0.5100(2) 0.58048(18)
O6A O 0.41059(15) 0.7868(2) 0.37255(17)
O6A_2 O 1.41059(15) 0.7868(2) 0.37255(17)
O7A O 1.08691(18) 0.4967(3) 0.3993(2)
H7 H 0.569(5) 0.217(7) 0.079(5)
H8 H 0.660(4) 0.190(6) 0.219(5)
O8 O 0.6191(3) 0.1416(3) 0.1494(3)
loop_
_geom_bond_atom_site_label_1
_geom_bond_atom_site_label_2
_geom_bond_site_symmetry_1
_geom_bond_site_symmetry_2
C1 C2 1_555 1_555
C2 H1 1_555 1_555
C3 C4 1_555 1_555
C4 H3 1_555 1_555
H2 O3 1_555 1_555
H4 O6 1_555 1_555
H5 O7 1_555 1_555
H6 O7 1_555 1_555
H7 O8 1_555 1_555
H8 O8 1_555 1_555
Mg1 O1 1_555 1_555
O1 C1 1_555 1_555
O2 C1 1_555 1_555
O3 C2 1_555 1_555
O4 C3 1_555 1_555
O5 C3 1_555 1_555
O6 C4 1_555 1_555
O7 Mg1 1_555 1_555
C1A C2A 1_555 1_555
C2A C2 1_555 1_555
C3A C4A 1_555 1_555
C4A C4 1_555 1_555
H1A C2A 1_555 1_555
H2A O3A 1_555 1_555
H3A C4A 1_555 1_555
H4A O6A 1_555 1_555
H4A_2 O6A_2 1_555 1_555
H5A O7A 1_555 1_555
H6A O7A 1_555 1_555
Mg1A O1A 1_555 1_555
Mg1C O5 1_555 1_555
Mg1A_2 O4A 1_555 1_555
Mg1B O5A 1_555 1_555
O1A C1A 1_555 1_555
O2A C1A 1_555 1_555
O3A C2A 1_555 1_555
O4A C3A 1_555 1_555
O4A_2 Mg1A 1_555 1_555
O5A C3A 1_555 1_555
O5C Mg1 1_555 1_555
O5B Mg1A 1_555 1_555
O6A C4A 1_555 1_555
O6A_2 Mg1A 1_555 1_555
O7A Mg1A 1_555 1_555
Mg1 O3 1_555 1_555
Mg1 O4 1_555 1_555
Mg1 O6 1_555 1_555
Mg1A O3A 1_555 1_555
Mg1A_2 O6A 1_555 1_555

#END
