
#######################################################################
#
#                 Cambridge Crystallographic Data Centre
#                                CCDC 
#
#######################################################################
#
# If this CIF has been generated from an entry in the Cambridge 
# Structural Database, then it will include bibliographic, chemical, 
# crystal, experimental, refinement or atomic coordinate data resulting 
# from the CCDC's data processing and validation procedures.
#
#######################################################################

data_PIHSEF01
_symmetry_cell_setting           orthorhombic
_symmetry_space_group_name_H-M   'P b c a'
_symmetry_Int_Tables_number      61
_space_group_name_Hall           '-P 2ac 2ab'
loop_
_symmetry_equiv_pos_site_id
_symmetry_equiv_pos_as_xyz
1 x,y,z
2 1/2-x,-y,1/2+z
3 -x,1/2+y,1/2-z
4 1/2+x,1/2-y,-z
5 -x,-y,-z
6 1/2+x,y,1/2-z
7 x,1/2-y,1/2+z
8 1/2-x,1/2+y,z
_cell_length_a                   10.0616(14)
_cell_length_b                   11.2358(16)
_cell_length_c                   14.920(2)
_cell_angle_alpha                90
_cell_angle_beta                 90
_cell_angle_gamma                90
_cell_volume                     1686.71
loop_
_atom_site_label
_atom_site_type_symbol
_atom_site_fract_x
_atom_site_fract_y
_atom_site_fract_z
C1 C 0.0571(3) 0.5099(3) 0.2576(2)
C2 C 0.1936(3) 0.4563(2) 0.2400(2)
C3 C 0.1867(3) 0.3192(2) 0.2298(2)
C4 C 0.1080(3) 0.2852(2) 0.14673(19)
H1 H 0.246(3) 0.475(3) 0.292(2)
H2 H 0.143(3) 0.289(2) 0.2810(18)
H3 H 0.330(4) 0.512(3) 0.166(3)
H4 H 0.368(3) 0.285(3) 0.261(3)
H5 H -0.005(4) 0.852(4) 0.094(3)
H6 H -0.041(5) 0.776(4) 0.023(3)
H7 H 0.088(5) 0.609(4) -0.058(3)
H8 H 0.170(6) 0.534(5) -0.027(4)
Mg1 Mg 0.14375(9) 0.65762(9) 0.11325(6)
O1 O 0.01023(19) 0.58072(18) 0.20163(14)
O2 O 0.0018(2) 0.48110(19) 0.33037(14)
O3 O 0.2456(2) 0.50862(18) 0.16054(13)
O4 O 0.3159(2) 0.27054(19) 0.22021(14)
O5 O 0.1697(2) 0.23504(18) 0.08358(13)
O6 O -0.01281(19) 0.31203(19) 0.14573(14)
O7 O 0.0134(2) 0.7832(2) 0.06396(17)
O8 O 0.1343(3) 0.5814(3) -0.00771(18)
Mg1G Mg 0.35625(9) 0.15762(9) 0.11325(6)
O4G O 0.1841(2) 0.77054(19) 0.22021(14)
O5G O 0.3303(2) 0.73504(18) 0.08358(13)
H9 H 0.357(3) 0.401(13) 0.932(9)
H10 H 0.272(14) 0.321(6) 0.957(11)
O9 O 0.2729(4) 0.3898(3) 0.9334(2)
loop_
_geom_bond_atom_site_label_1
_geom_bond_atom_site_label_2
_geom_bond_site_symmetry_1
_geom_bond_site_symmetry_2
C1 C2 1_555 1_555
C2 C3 1_555 1_555
C3 C4 1_555 1_555
C4 O5 1_555 1_555
H1 C2 1_555 1_555
H2 C3 1_555 1_555
H3 O3 1_555 1_555
H4 O4 1_555 1_555
H5 O7 1_555 1_555
H6 O7 1_555 1_555
H7 O8 1_555 1_555
H8 O8 1_555 1_555
H9 O9 1_555 1_555
H10 O9 1_555 1_555
Mg1 O1 1_555 1_555
O1 C1 1_555 1_555
O2 C1 1_555 1_555
O3 C2 1_555 1_555
O4 C3 1_555 1_555
O5 Mg1G 1_555 1_555
O6 C4 1_555 1_555
O7 Mg1 1_555 1_555
O8 Mg1 1_555 1_555
Mg1G O4 1_555 1_555
O4G Mg1 1_555 1_555
O5G Mg1 1_555 1_555
Mg1 O3 1_555 1_555

#END
