
#######################################################################
#
#                 Cambridge Crystallographic Data Centre
#                                CCDC 
#
#######################################################################
#
# If this CIF has been generated from an entry in the Cambridge 
# Structural Database, then it will include bibliographic, chemical, 
# crystal, experimental, refinement or atomic coordinate data resulting 
# from the CCDC's data processing and validation procedures.
#
#######################################################################

data_PIHSEF
_symmetry_cell_setting           monoclinic
_symmetry_space_group_name_H-M   'P 21/n'
_symmetry_Int_Tables_number      14
_space_group_name_Hall           '-P 2yn'
loop_
_symmetry_equiv_pos_site_id
_symmetry_equiv_pos_as_xyz
1 x,y,z
2 1/2-x,1/2+y,1/2-z
3 -x,-y,-z
4 1/2+x,1/2-y,1/2+z
_cell_length_a                   5.8204(8)
_cell_length_b                   9.8167(13)
_cell_length_c                   14.926(2)
_cell_angle_alpha                90
_cell_angle_beta                 92.252(2)
_cell_angle_gamma                90
_cell_volume                     852.17
loop_
_atom_site_label
_atom_site_type_symbol
_atom_site_fract_x
_atom_site_fract_y
_atom_site_fract_z
C1 C 0.2186(3) 0.6147(2) 0.64105(13)
C2 C 0.3438(3) 0.7497(2) 0.66016(13)
C3 C 0.2877(3) 0.86297(19) 0.59211(13)
C4 C 0.0493(3) 0.9265(2) 0.60567(13)
H1 H 0.506(4) 0.729(2) 0.6549(15)
H2 H 0.294(3) 0.829(2) 0.5343(14)
H3 H 0.334(5) 0.872(3) 0.7598(19)
H4 H 0.587(5) 0.944(2) 0.6008(17)
H5 H 0.247(6) 0.871(4) 0.937(3)
H6 H 0.292(5) 0.756(3) 0.985(2)
H7 H -0.282(6) 0.664(4) 0.833(2)
H8 H -0.200(6) 0.791(4) 0.836(2)
Mg1 Mg 0.15301(11) 0.65058(7) 0.83419(4)
O1 O 0.1320(3) 0.55711(14) 0.70881(10)
O2 O 0.2166(3) 0.56707(16) 0.56469(11)
O3 O 0.2952(3) 0.79063(15) 0.74946(9)
O4 O 0.4525(3) 0.97064(14) 0.60422(10)
O5 O 0.0463(2) 1.04650(14) 0.63516(11)
O6 O -0.1239(2) 0.85538(15) 0.58715(11)
O7 O 0.2324(3) 0.78229(18) 0.93772(11)
O8 O -0.1773(3) 0.7091(2) 0.82462(14)
H4A H -0.087(5) 0.444(2) 0.8992(17)
Mg1A Mg 0.34699(11) 1.15058(7) 0.66581(4)
O4A O 0.0475(3) 0.47064(14) 0.89578(10)
O5A O 0.4537(2) 0.54650(14) 0.86484(11)
H9 H 0.236(7) 0.038(5) 0.065(4)
H10 H 0.318(7) -0.001(4) 0.146(3)
O9 O 0.2077(3) 0.0336(2) 0.12428(16)
loop_
_geom_bond_atom_site_label_1
_geom_bond_atom_site_label_2
_geom_bond_site_symmetry_1
_geom_bond_site_symmetry_2
C1 C2 1_555 1_555
C2 C3 1_555 1_555
C3 C4 1_555 1_555
C4 O5 1_555 1_555
H1 C2 1_555 1_555
H2 C3 1_555 1_555
H3 O3 1_555 1_555
H4 O4 1_555 1_555
H5 O7 1_555 1_555
H6 O7 1_555 1_555
H7 O8 1_555 1_555
H8 O8 1_555 1_555
H9 O9 1_555 1_555
H10 O9 1_555 1_555
Mg1 O1 1_555 1_555
O1 C1 1_555 1_555
O2 C1 1_555 1_555
O3 C2 1_555 1_555
O4 C3 1_555 1_555
O5 Mg1A 1_555 1_555
O6 C4 1_555 1_555
O7 Mg1 1_555 1_555
O8 Mg1 1_555 1_555
H4A O4A 1_555 1_555
Mg1A O4 1_555 1_555
O4A Mg1 1_555 1_555
O5A Mg1 1_555 1_555
Mg1 O3 1_555 1_555

#END
