
#######################################################################
#
#                 Cambridge Crystallographic Data Centre
#                                CCDC 
#
#######################################################################
#
# If this CIF has been generated from an entry in the Cambridge 
# Structural Database, then it will include bibliographic, chemical, 
# crystal, experimental, refinement or atomic coordinate data resulting 
# from the CCDC's data processing and validation procedures.
#
#######################################################################

data_PIHSAB
_symmetry_cell_setting           orthorhombic
_symmetry_space_group_name_H-M   'I 2 2 2'
_symmetry_Int_Tables_number      23
_space_group_name_Hall           'I 2 2'
loop_
_symmetry_equiv_pos_site_id
_symmetry_equiv_pos_as_xyz
1 x,y,z
2 -x,-y,z
3 -x,y,-z
4 x,-y,-z
5 1/2+x,1/2+y,1/2+z
6 1/2-x,1/2-y,1/2+z
7 1/2-x,1/2+y,1/2-z
8 1/2+x,1/2-y,1/2-z
_cell_length_a                   5.1708(14)
_cell_length_b                   9.359(3)
_cell_length_c                   11.765(3)
_cell_angle_alpha                90
_cell_angle_beta                 90
_cell_angle_gamma                90
_cell_volume                     569.35
loop_
_atom_site_label
_atom_site_type_symbol
_atom_site_fract_x
_atom_site_fract_y
_atom_site_fract_z
C1 C 0.8076(9) 0.2774(4) 0.6419(3)
C2 C 1.0437(9) 0.2679(4) 0.5645(3)
H1 H 1.128(10) 0.344(5) 0.576(3)
H2 H 1.336(12) 0.152(5) 0.603(4)
Mg1 Mg 1.0000 0.0000 0.71756(13)
O1 O 0.7263(6) 0.1612(3) 0.6899(2)
O2 O 0.7001(7) 0.3993(3) 0.6514(2)
O3 O 1.1882(7) 0.1360(3) 0.5895(2)
C1B C 1.1924(9) 0.2774(4) 0.3581(3)
C2B C 0.9563(9) 0.2679(4) 0.4355(3)
H1B H 0.872(10) 0.344(5) 0.424(3)
H2B H 0.664(12) 0.152(5) 0.397(4)
H2A H 0.664(12) -0.152(5) 0.603(4)
Mg1F Mg 0.5000 0.5000 0.78244(13)
Mg1B Mg 1.0000 0.0000 0.28244(13)
Mg1D Mg 1.5000 0.5000 0.21756(13)
O1B O 1.2737(6) 0.1612(3) 0.3101(2)
O1A O 1.2737(6) -0.1612(3) 0.6899(2)
O2B O 1.2999(7) 0.3993(3) 0.3486(2)
O2F O 0.7999(7) -0.1007(3) 0.8486(2)
O2G O 1.2001(7) 0.1007(3) 0.8486(2)
O3B O 0.8118(7) 0.1360(3) 0.4105(2)
O3A O 0.8118(7) -0.1360(3) 0.5895(2)
loop_
_geom_bond_atom_site_label_1
_geom_bond_atom_site_label_2
_geom_bond_site_symmetry_1
_geom_bond_site_symmetry_2
C1 C2 1_555 1_555
C2 H1 1_555 1_555
H2 O3 1_555 1_555
Mg1 O1 1_555 1_555
O1 C1 1_555 1_555
O2 C1 1_555 1_555
O3 C2 1_555 1_555
C1B C2B 1_555 1_555
C2B C2 1_555 1_555
H1B C2B 1_555 1_555
H2B O3B 1_555 1_555
H2A O3A 1_555 1_555
Mg1F O2 1_555 1_555
Mg1B O1B 1_555 1_555
Mg1D O2B 1_555 1_555
O1B C1B 1_555 1_555
O1A Mg1 1_555 1_555
O2B C1B 1_555 1_555
O2F Mg1 1_555 1_555
O2G Mg1 1_555 1_555
O3B C2B 1_555 1_555
O3A Mg1 1_555 1_555
Mg1 O3 1_555 1_555
Mg1B O3B 1_555 1_555

#END
