
#######################################################################
#
#                 Cambridge Crystallographic Data Centre
#                                CCDC 
#
#######################################################################
#
# If this CIF has been generated from an entry in the Cambridge 
# Structural Database, then it will include bibliographic, chemical, 
# crystal, experimental, refinement or atomic coordinate data resulting 
# from the CCDC's data processing and validation procedures.
#
#######################################################################

data_PIHZOW
_symmetry_cell_setting           orthorhombic
_symmetry_space_group_name_H-M   'P b c n'
_symmetry_Int_Tables_number      60
_space_group_name_Hall           '-P 2n 2ab'
loop_
_symmetry_equiv_pos_site_id
_symmetry_equiv_pos_as_xyz
1 x,y,z
2 1/2-x,1/2-y,1/2+z
3 -x,y,1/2-z
4 1/2+x,1/2-y,-z
5 -x,-y,-z
6 1/2+x,1/2+y,1/2-z
7 x,-y,1/2+z
8 1/2-x,1/2+y,z
_cell_length_a                   8.323(2)
_cell_length_b                   18.830(5)
_cell_length_c                   20.465(5)
_cell_angle_alpha                90
_cell_angle_beta                 90
_cell_angle_gamma                90
_cell_volume                     3207.32
loop_
_atom_site_label
_atom_site_type_symbol
_atom_site_fract_x
_atom_site_fract_y
_atom_site_fract_z
Au1 Au 0.06446(3) 1.132876(13) 0.677323(12)
Cd1 Cd 0.5000 0.93409(3) 0.7500
O1 O 0.5179(7) 0.8621(3) 0.4917(2)
N1 N 0.3246(7) 1.0201(3) 0.7132(3)
N2 N -0.2097(9) 1.2366(4) 0.6358(4)
N3 N 0.3500(6) 0.8484(2) 0.6895(2)
N4 N 0.6146(6) 0.9192(2) 0.6458(2)
N5 N 0.5827(6) 0.8884(3) 0.5418(2)
C1 C 0.2337(8) 1.0618(3) 0.6996(3)
C2 C -0.1099(9) 1.1993(4) 0.6507(4)
C3 C 0.2310(8) 0.8094(3) 0.7136(3)
H1 H 0.2100 0.8110 0.7582
C4 C 0.1368(8) 0.7663(4) 0.6738(4)
H2 H 0.0540 0.7395 0.6918
C5 C 0.1661(8) 0.7634(3) 0.6087(4)
H3 H 0.1031 0.7352 0.5815
C6 C 0.2913(8) 0.8032(3) 0.5833(3)
H4 H 0.3137 0.8024 0.5388
C7 C 0.3813(7) 0.8437(3) 0.6249(3)
C8 C 0.5250(7) 0.8846(3) 0.6057(3)
C9 C 0.7434(8) 0.9235(3) 0.5407(3)
C10 C 0.7484(9) 0.9766(4) 0.4844(3)
H5 H 0.7269 0.9525 0.4440
H6 H 0.8528 0.9982 0.4824
H7 H 0.6686 1.0127 0.4913
C11 C 0.8647(9) 0.8645(4) 0.5281(4)
H8 H 0.8490 0.8270 0.5593
H9 H 0.9716 0.8831 0.5324
H10 H 0.8500 0.8462 0.4848
C12 C 0.7462(7) 0.9563(3) 0.6106(3)
C13 C 0.9011(8) 0.9438(4) 0.6470(3)
H11 H 0.8959 0.9666 0.6889
H12 H 0.9890 0.9631 0.6224
H13 H 0.9170 0.8937 0.6529
C14 C 0.7022(9) 1.0344(3) 0.6118(3)
H14 H 0.6021 1.0413 0.5894
H15 H 0.7848 1.0614 0.5905
H16 H 0.6919 1.0499 0.6563
Au1B Au 0.93554(3) 1.132876(13) 0.822677(12)
Au1B_2 Au -0.06446(3) 1.132876(13) 0.822677(12)
Au1_2 Au 1.06446(3) 1.132876(13) 0.677323(12)
O1B O 0.4821(7) 0.8621(3) 1.0083(2)
N1B N 0.6754(7) 1.0201(3) 0.7868(3)
N2B N 1.2097(9) 1.2366(4) 0.8642(4)
N3B N 0.6500(6) 0.8484(2) 0.8105(2)
N4B N 0.3854(6) 0.9192(2) 0.8542(2)
N5B N 0.4173(6) 0.8884(3) 0.9582(2)
C1B C 0.7663(8) 1.0618(3) 0.8004(3)
C2B C 1.1099(9) 1.1993(4) 0.8493(4)
C3B C 0.7690(8) 0.8094(3) 0.7864(3)
H1B H 0.7900 0.8110 0.7418
C4B C 0.8632(8) 0.7663(4) 0.8262(4)
H2B H 0.9460 0.7395 0.8082
C5B C 0.8339(8) 0.7634(3) 0.8913(4)
H3B H 0.8969 0.7352 0.9185
C6B C 0.7087(8) 0.8032(3) 0.9167(3)
H4B H 0.6863 0.8024 0.9612
C7B C 0.6187(7) 0.8437(3) 0.8751(3)
C8B C 0.4750(7) 0.8846(3) 0.8943(3)
C9B C 0.2566(8) 0.9235(3) 0.9593(3)
C10B C 0.2516(9) 0.9766(4) 1.0156(3)
H5B H 0.2731 0.9525 1.0560
H6B H 0.1472 0.9982 1.0176
H7B H 0.3314 1.0127 1.0087
C11B C 0.1353(9) 0.8645(4) 0.9719(4)
H8B H 0.1510 0.8270 0.9407
H9B H 0.0284 0.8831 0.9676
H10B H 0.1500 0.8462 1.0152
C12B C 0.2538(7) 0.9563(3) 0.8894(3)
C13B C 0.0989(8) 0.9438(4) 0.8530(3)
H11B H 0.1041 0.9666 0.8111
H12B H 0.0110 0.9631 0.8776
H13B H 0.0830 0.8937 0.8471
C14B C 0.2978(9) 1.0344(3) 0.8882(3)
H14B H 0.3979 1.0413 0.9106
H15B H 0.2152 1.0614 0.9095
H16B H 0.3081 1.0499 0.8437
loop_
_geom_bond_atom_site_label_1
_geom_bond_atom_site_label_2
_geom_bond_site_symmetry_1
_geom_bond_site_symmetry_2
Au1 C1 1_555 1_555
Cd1 N1 1_555 1_555
O1 N5 1_555 1_555
N1 C1 1_555 1_555
N2 C2 1_555 1_555
N3 Cd1 1_555 1_555
N4 Cd1 1_555 1_555
N5 C8 1_555 1_555
C2 Au1 1_555 1_555
C3 N3 1_555 1_555
H1 C3 1_555 1_555
C4 C3 1_555 1_555
H2 C4 1_555 1_555
C5 C4 1_555 1_555
H3 C5 1_555 1_555
C6 C5 1_555 1_555
H4 C6 1_555 1_555
C7 N3 1_555 1_555
C8 N4 1_555 1_555
C9 N5 1_555 1_555
C10 C9 1_555 1_555
H5 C10 1_555 1_555
H6 C10 1_555 1_555
H7 C10 1_555 1_555
C11 C9 1_555 1_555
H8 C11 1_555 1_555
H9 C11 1_555 1_555
H10 C11 1_555 1_555
C12 N4 1_555 1_555
C13 C12 1_555 1_555
H11 C13 1_555 1_555
H12 C13 1_555 1_555
H13 C13 1_555 1_555
C14 C12 1_555 1_555
H14 C14 1_555 1_555
H15 C14 1_555 1_555
H16 C14 1_555 1_555
Au1B Au1_2 1_555 1_555
Au1B_2 Au1 1_555 1_555
O1B N5B 1_555 1_555
N1B Cd1 1_555 1_555
N2B C2B 1_555 1_555
N3B Cd1 1_555 1_555
N4B Cd1 1_555 1_555
N5B C8B 1_555 1_555
C1B Au1B 1_555 1_555
C2B Au1B 1_555 1_555
C3B N3B 1_555 1_555
H1B C3B 1_555 1_555
C4B C3B 1_555 1_555
H2B C4B 1_555 1_555
C5B C4B 1_555 1_555
H3B C5B 1_555 1_555
C6B C5B 1_555 1_555
H4B C6B 1_555 1_555
C7B N3B 1_555 1_555
C8B N4B 1_555 1_555
C9B N5B 1_555 1_555
C10B C9B 1_555 1_555
H5B C10B 1_555 1_555
H6B C10B 1_555 1_555
H7B C10B 1_555 1_555
C11B C9B 1_555 1_555
H8B C11B 1_555 1_555
H9B C11B 1_555 1_555
H10B C11B 1_555 1_555
C12B N4B 1_555 1_555
C13B C12B 1_555 1_555
H11B C13B 1_555 1_555
H12B C13B 1_555 1_555
H13B C13B 1_555 1_555
C14B C12B 1_555 1_555
H14B C14B 1_555 1_555
H15B C14B 1_555 1_555
H16B C14B 1_555 1_555
C6 C7 1_555 1_555
C7 C8 1_555 1_555
C9 C12 1_555 1_555
N1B C1B 1_555 1_555
C6B C7B 1_555 1_555
C7B C8B 1_555 1_555
C9B C12B 1_555 1_555

#END
