
#######################################################################
#
#                 Cambridge Crystallographic Data Centre
#                                CCDC 
#
#######################################################################
#
# If this CIF has been generated from an entry in the Cambridge 
# Structural Database, then it will include bibliographic, chemical, 
# crystal, experimental, refinement or atomic coordinate data resulting 
# from the CCDC's data processing and validation procedures.
#
#######################################################################

data_PIHZIQ
_symmetry_cell_setting           rhombohedral
_symmetry_space_group_name_H-M   'R -3'
_symmetry_Int_Tables_number      148
_space_group_name_Hall           '-R 3'
loop_
_symmetry_equiv_pos_site_id
_symmetry_equiv_pos_as_xyz
1 x,y,z
2 -y,x-y,z
3 -x+y,-x,z
4 2/3+x,1/3+y,1/3+z
5 2/3-y,1/3+x-y,1/3+z
6 2/3-x+y,1/3-x,1/3+z
7 1/3+x,2/3+y,2/3+z
8 1/3-y,2/3+x-y,2/3+z
9 1/3-x+y,2/3-x,2/3+z
10 -x,-y,-z
11 y,-x+y,-z
12 x-y,x,-z
13 1/3-x,2/3-y,2/3-z
14 1/3+y,2/3-x+y,2/3-z
15 1/3+x-y,2/3+x,2/3-z
16 2/3-x,1/3-y,1/3-z
17 2/3+y,1/3-x+y,1/3-z
18 2/3+x-y,1/3+x,1/3-z
_cell_length_a                   11.5935(10)
_cell_length_b                   11.5935(10)
_cell_length_c                   16.344(3)
_cell_angle_alpha                90
_cell_angle_beta                 90
_cell_angle_gamma                120.00
_cell_volume                     1902.47
loop_
_atom_site_label
_atom_site_type_symbol
_atom_site_fract_x
_atom_site_fract_y
_atom_site_fract_z
Co1 Co 0.3333 0.6667 0.1667
O1 O 0.31748(12) 0.50888(12) 0.09588(7)
N1 N 0.40755(14) 0.50527(14) 0.04862(8)
C1 C 0.53807(18) 0.57703(17) 0.06691(10)
H1 H 0.5642 0.6302 0.1135
C2 C 0.22215(19) 0.3450(2) -0.03661(13)
H2 H 0.1769 0.2918 0.0104
H3 H 0.2085 0.2879 -0.0825
H4 H 0.1875 0.4028 -0.0491
C3 C 0.36630(17) 0.42583(17) -0.01903(10)
Co1F Co 0.6666 0.3334 -0.1666
Co1F_2 Co 0.6666 1.3334 -0.1666
Co1F_3 Co -0.3334 0.3334 -0.1666
O1I O 0.68252(12) 0.49112(12) -0.09588(7)
O1A O 0.49112(12) 0.80860(17) 0.09588(7)
O1J O 0.50888(12) 1.19140(17) -0.09588(7)
O1B O 0.19140(17) 0.68252(12) 0.09588(7)
O1K O -0.19140(17) 0.31748(12) -0.09588(7)
O1P O 0.17555(12) 0.52473(17) 0.23745(7)
O1Q O 0.47527(17) 0.65081(12) 0.23745(7)
O1O O 0.34919(12) 0.82445(12) 0.23745(7)
N1I N 0.59245(14) 0.49473(14) -0.04862(8)
N1A N 0.49473(14) 0.90228(20) 0.04862(8)
N1J N 0.50527(14) 1.09772(20) -0.04862(8)
N1B N 0.09772(20) 0.59245(14) 0.04862(8)
N1K N -0.09772(20) 0.40755(14) -0.04862(8)
C1I C 0.46193(18) 0.42297(17) -0.06691(10)
C1A C 0.42297(17) 0.96104(25) 0.06691(10)
C1J C 0.57703(17) 1.03896(25) -0.06691(10)
C1B C 0.03896(25) 0.46193(18) 0.06691(10)
C1K C -0.03896(25) 0.53807(18) -0.06691(10)
H1I H 0.4358 0.3698 -0.1135
H1A H 0.3698 0.9340 0.1135
H1J H 0.6302 1.0660 -0.1135
H1B H 0.0660 0.4358 0.1135
H1K H -0.0660 0.5642 -0.1135
C2I C 0.77785(19) 0.6550(2) 0.03661(13)
C2A C 0.6550(2) 0.87715(28) -0.03661(13)
C2J C 0.3450(2) 1.12285(28) 0.03661(13)
C2B C 0.12285(28) 0.77785(19) -0.03661(13)
C2K C -0.12285(28) 0.22215(19) 0.03661(13)
H2I H 0.8231 0.7082 -0.0104
H2A H 0.7082 0.8851 0.0104
H2J H 0.2918 1.1149 -0.0104
H2B H 0.1149 0.8231 0.0104
H2K H -0.1149 0.1769 -0.0104
H3I H 0.7915 0.7121 0.0825
H3A H 0.7121 0.9206 -0.0825
H3J H 0.2879 1.0794 0.0825
H3B H 0.0794 0.7915 -0.0825
H3K H -0.0794 0.2085 0.0825
H4I H 0.8125 0.5972 0.0491
H4A H 0.5972 0.7847 -0.0491
H4J H 0.4028 1.2153 0.0491
H4B H 0.2153 0.8125 -0.0491
H4K H -0.2153 0.1875 0.0491
C3I C 0.63370(17) 0.57417(17) 0.01903(10)
C3A C 0.57417(17) 0.94047(24) -0.01903(10)
C3J C 0.42583(17) 1.05953(24) 0.01903(10)
C3B C 0.05953(24) 0.63370(17) -0.01903(10)
C3K C -0.05953(24) 0.36630(17) 0.01903(10)
Cl1 Cl 0.0000 0.0000 0.16998(6)
O2 O 0.0000 0.0000 0.25835(19)
O3 O 0.0811(2) 0.1341(2) 0.14226(13)
O3A O -0.1341(2) -0.0530(3) 0.14226(13)
O3B O 0.0530(3) -0.0811(2) 0.14226(13)
loop_
_geom_bond_atom_site_label_1
_geom_bond_atom_site_label_2
_geom_bond_site_symmetry_1
_geom_bond_site_symmetry_2
Co1 O1 1_555 1_555
Cl1 O2 1_555 1_555
O1 N1 1_555 1_555
N1 C1 1_555 1_555
C1 H1 1_555 1_555
C2 H2 1_555 1_555
H3 C2 1_555 1_555
H4 C2 1_555 1_555
C3 N1 1_555 1_555
O3 Cl1 1_555 1_555
Co1F O1I 1_555 1_555
Co1F_2 O1J 1_555 1_555
Co1F_3 O1K 1_555 1_555
O1I N1I 1_555 1_555
O1A Co1 1_555 1_555
O1J N1J 1_555 1_555
O1B Co1 1_555 1_555
O1K N1K 1_555 1_555
O1P Co1 1_555 1_555
O1Q Co1 1_555 1_555
O1O Co1 1_555 1_555
N1I C1I 1_555 1_555
N1A O1A 1_555 1_555
N1J C1J 1_555 1_555
N1B O1B 1_555 1_555
N1K C1K 1_555 1_555
C1I C3 1_555 1_555
C1A N1A 1_555 1_555
C1J H1J 1_555 1_555
C1B N1B 1_555 1_555
C1K H1K 1_555 1_555
H1I C1I 1_555 1_555
H1A C1A 1_555 1_555
H1B C1B 1_555 1_555
C2I H2I 1_555 1_555
C2A H2A 1_555 1_555
C2J H2J 1_555 1_555
C2B H2B 1_555 1_555
C2K H2K 1_555 1_555
H3I C2I 1_555 1_555
H3A C2A 1_555 1_555
H3J C2J 1_555 1_555
H3B C2B 1_555 1_555
H3K C2K 1_555 1_555
H4I C2I 1_555 1_555
H4A C2A 1_555 1_555
H4J C2J 1_555 1_555
H4B C2B 1_555 1_555
H4K C2K 1_555 1_555
C3I C1 1_555 1_555
C3A N1A 1_555 1_555
C3J N1J 1_555 1_555
C3B N1B 1_555 1_555
C3K N1K 1_555 1_555
O3A Cl1 1_555 1_555
O3B Cl1 1_555 1_555
C2 C3 1_555 1_555
N1I C3I 1_555 1_555
C1A C3J 1_555 1_555
C1J C3A 1_555 1_555
C1B C3K 1_555 1_555
C1K C3B 1_555 1_555
C2I C3I 1_555 1_555
C2A C3A 1_555 1_555
C2J C3J 1_555 1_555
C2B C3B 1_555 1_555
C2K C3K 1_555 1_555

#END
