
#######################################################################
#
#                 Cambridge Crystallographic Data Centre
#                                CCDC 
#
#######################################################################
#
# If this CIF has been generated from an entry in the Cambridge 
# Structural Database, then it will include bibliographic, chemical, 
# crystal, experimental, refinement or atomic coordinate data resulting 
# from the CCDC's data processing and validation procedures.
#
#######################################################################

data_PIJCEQ
_symmetry_cell_setting           triclinic
_symmetry_space_group_name_H-M   'P -1'
_symmetry_Int_Tables_number      2
_space_group_name_Hall           '-P 1'
loop_
_symmetry_equiv_pos_site_id
_symmetry_equiv_pos_as_xyz
1 x,y,z
2 -x,-y,-z
_cell_length_a                   12.7740(1)
_cell_length_b                   13.0551(2)
_cell_length_c                   14.0194(2)
_cell_angle_alpha                87.3040(10)
_cell_angle_beta                 87.5960(10)
_cell_angle_gamma                70.3150(10)
_cell_volume                     2198.04
loop_
_atom_site_label
_atom_site_type_symbol
_atom_site_fract_x
_atom_site_fract_y
_atom_site_fract_z
Mo1 Mo -0.0325(1) -0.1326(1) 0.1016(1)
Mo2 Mo -0.1163(1) -0.0274(1) -0.1119(1)
Mo3 Mo -0.1501(1) 0.1318(1) 0.0699(1)
Mo4 Mo -0.3770(1) 0.3586(1) 0.3509(1)
Mo5 Mo -0.5517(1) 0.2505(1) 0.4554(1)
Mo6 Mo -0.4487(1) 0.4038(1) 0.5968(1)
Mo7 Mo -0.7209(1) 0.4902(1) 0.5082(1)
Cu1 Cu -0.4205(1) 0.3813(1) 0.0768(1)
Cu2 Cu -0.9636(1) 0.5901(1) 0.3404(1)
Cu3 Cu -0.3776(1) 0.0654(1) 0.6253(1)
O1 O -0.0530(4) -0.2319(4) 0.1740(3)
O2 O -0.1224(3) -0.1277(3) -0.0066(3)
O3 O -0.1412(3) -0.0032(3) 0.1430(3)
O4 O 0.0000 0.0000 0.0000
O5 O -0.2048(4) -0.0437(4) -0.1908(3)
O6 O 0.0223(3) -0.1240(3) -0.1506(3)
O7 O 0.0762(3) -0.0924(4) 0.1679(3)
O8 O -0.2171(3) 0.0830(4) -0.0265(3)
O9 O -0.2588(4) 0.2256(4) 0.1233(4)
O10 O 0.0938(4) -0.2139(3) 0.0187(3)
O11 O -0.2405(3) 0.3101(4) 0.3182(3)
O12 O -0.4454(3) 0.3808(3) 0.2450(3)
O13 O -0.4056(3) 0.2342(3) 0.4027(3)
O14 O -0.4628(3) 0.2756(3) 0.5886(3)
O15 O -0.5322(4) 0.1214(3) 0.5005(3)
O16 O -0.6190(4) 0.2596(4) 0.3523(3)
O17 O -0.6745(3) 0.3375(3) 0.5326(3)
O18 O -0.3243(3) 0.3783(3) 0.5038(3)
O19 O -0.3853(3) 0.3952(3) 0.7017(3)
O20 O -0.3972(3) 0.5165(3) 0.3679(2)
O21 O -0.5392(3) 0.4318(3) 0.4476(2)
O22 O -0.7793(3) 0.5024(4) 0.3988(3)
O23 O -0.8315(3) 0.5301(4) 0.5856(3)
N1 N -0.3432(4) 0.4875(4) 0.0685(3)
N2 N -0.9484(4) 0.4969(4) 0.2350(3)
N3 N -1.0043(4) 0.6941(4) 0.4393(3)
N4 N -0.2557(4) 0.0437(4) 0.5345(3)
N5 N -0.4787(4) 0.0591(4) 0.7278(3)
N6 N -0.5088(4) 0.2870(4) 0.0608(3)
C1 C -0.3478(5) 0.5440(5) 0.1468(4)
C2 C -0.2827(6) 0.6086(5) 0.1587(4)
C3 C -0.2102(5) 0.6180(5) 0.0866(4)
C4 C -0.2029(5) 0.5608(5) 0.0020(4)
C5 C -0.2726(5) 0.4979(4) -0.0047(4)
C6 C -1.0162(5) 0.4399(5) 0.2300(4)
C7 C -1.0167(5) 0.3763(5) 0.1528(5)
C8 C -0.9452(5) 0.3749(5) 0.0764(5)
C9 C -0.1273(5) 0.5653(4) -0.0773(4)
C10 C -0.8731(5) 0.4933(4) 0.1596(4)
C11 C -0.2727(5) 0.4466(5) -0.0927(4)
C12 C -0.7963(5) 0.5495(5) 0.1666(4)
C13 C -1.0756(5) 0.6868(5) 0.5098(5)
C14 C -1.0918(5) 0.7468(5) 0.5924(5)
C15 C -1.0310(5) 0.8119(5) 0.6053(4)
C16 C -0.9552(4) 0.8227(5) 0.5328(4)
C17 C -0.9479(4) 0.7648(4) 0.4488(4)
C18 C -0.2527(5) -0.0122(5) 0.4568(4)
C19 C -0.1822(5) -0.0131(5) 0.3784(4)
C20 C -0.1134(5) 0.0491(5) 0.3791(4)
C21 C -0.8872(4) 0.8910(4) 0.5397(4)
C22 C -0.1841(4) 0.1015(4) 0.5379(4)
C23 C -0.8806(4) 0.7804(5) 0.3690(4)
C24 C -0.1824(5) 0.1549(5) 0.6247(4)
C25 C -0.5374(5) -0.0068(5) 0.7202(4)
C26 C -0.6095(5) -0.0240(5) 0.7918(4)
C27 C -0.6203(5) 0.0281(5) 0.8757(4)
C28 C -0.5601(4) 0.0995(4) 0.8882(4)
C29 C -0.4904(4) 0.1134(4) 0.8120(4)
C30 C -0.5748(5) 0.2761(5) 0.1343(4)
C31 C -0.6383(5) 0.2079(5) 0.1336(4)
C32 C -0.6353(5) 0.1480(5) 0.0545(4)
C33 C -0.5678(4) 0.1584(4) 0.9752(4)
C34 C -0.5047(4) 0.2283(4) -0.0189(4)
C35 C -0.4302(5) 0.1870(5) 0.8197(4)
C36 C -0.4370(5) 0.2402(5) -0.0980(4)
H1 H -0.3975(5) 0.5397(5) 0.1960(4)
H2 H -0.2882(6) 0.6451(5) 0.2151(4)
H3 H -0.1665(5) 0.6615(5) 0.0932(4)
H4 H -1.0662(5) 0.4423(5) 0.2807(4)
H5 H -1.0643(5) 0.3358(5) 0.1531(5)
H6 H -0.9451(5) 0.3341(5) 0.0238(5)
H7 H -0.3224(5) 0.4092(5) -0.0989(4)
H8 H -0.7938(5) 0.5838(5) 0.2227(4)
H9 H -1.1160(5) 0.6401(5) 0.5036(5)
H10 H -1.1445(5) 0.7419(5) 0.6386(5)
H11 H -1.0391(5) 0.8492(5) 0.6615(4)
H12 H -0.3001(5) -0.0527(5) 0.4550(4)
H13 H -0.1813(5) -0.0547(5) 0.3261(4)
H14 H -0.0676(5) 0.0514(5) 0.3263(4)
H15 H -0.8801(4) 0.7458(5) 0.3124(4)
H16 H -0.2251(5) 0.1450(5) 0.6775(4)
H17 H -0.5301(5) -0.0437(5) 0.6638(4)
H18 H -0.6496(5) -0.0702(5) 0.7825(4)
H19 H -0.6672(5) 0.0168(5) 0.9245(4)
H20 H -0.5784(5) 0.3159(5) 0.1884(4)
H21 H -0.6828(5) 0.2028(5) 0.1866(4)
H22 H -0.6769(5) 0.1017(5) 0.0536(4)
H23 H -0.3864(5) 0.1985(5) 0.7684(4)
H24 H -0.3955(5) 0.2862(5) -0.0936(4)
O7A O -0.0762(3) 0.0924(4) -0.1679(3)
O6A O -0.0223(3) 0.1240(3) 0.1506(3)
O10A O -0.0938(4) 0.2139(3) -0.0187(3)
O20A O -0.6028(3) 0.4835(3) 0.6321(2)
O21A O -0.4608(3) 0.5682(3) 0.5524(2)
O18A O -0.6757(3) 0.6217(3) 0.4962(3)
Mo1A Mo 0.0325(1) 0.1326(1) -0.1016(1)
Mo2A Mo 0.1163(1) 0.0274(1) 0.1119(1)
Mo3A Mo 0.1501(1) -0.1318(1) -0.0699(1)
Mo7A Mo -0.2791(1) 0.5098(1) 0.4918(1)
Mo6A Mo -0.5513(1) 0.5962(1) 0.4032(1)
C9A C -0.8727(5) 0.4347(4) 0.0773(4)
C10A C -0.1269(5) 0.5067(4) -0.1596(4)
C8A C -0.0548(5) 0.6251(5) -0.0764(5)
C12A C -0.2037(5) 0.4505(5) -0.1666(4)
C11A C -0.7273(5) 0.5534(5) 0.0927(4)
C21A C -0.1128(4) 0.1090(4) 0.4603(4)
C22A C -0.8159(4) 0.8985(4) 0.4621(4)
C20A C -0.8866(5) 0.9509(5) 0.6209(4)
C24A C -0.8176(5) 0.8451(5) 0.3753(4)
C23A C -0.1194(4) 0.2196(5) 0.6310(4)
C33_2 C -0.5678(4) 0.1584(4) -0.0248(4)
C34_2 C -0.5047(4) 0.2283(4) 0.9811(4)
C32_2 C -0.6353(5) 0.1480(5) 1.0545(4)
C36_2 C -0.4370(5) 0.2402(5) 0.9020(4)
C35_2 C -0.4302(5) 0.1870(5) -0.1803(4)
Mo4A Mo -0.6230(1) 0.6414(1) 0.6491(1)
Mo5A Mo -0.4483(1) 0.7495(1) 0.5446(1)
O1A O 0.0530(4) 0.2319(4) -0.1740(3)
O2A O 0.1224(3) 0.1277(3) 0.0066(3)
O3A O 0.1412(3) 0.0032(3) -0.1430(3)
O5A O 0.2048(4) 0.0437(4) 0.1908(3)
O8A O 0.2171(3) -0.0830(4) 0.0265(3)
O9A O 0.2588(4) -0.2256(4) -0.1233(4)
O17A O -0.3255(3) 0.6625(3) 0.4674(3)
O22A O -0.2207(3) 0.4976(4) 0.6012(3)
O23A O -0.1685(3) 0.4699(4) 0.4144(3)
O14A O -0.5372(3) 0.7244(3) 0.4114(3)
O19A O -0.6147(3) 0.6048(3) 0.2983(3)
C4A C -0.7971(5) 0.4392(5) -0.0020(4)
N2A N -0.0516(4) 0.5031(4) -0.2350(3)
C7A C 0.0167(5) 0.6237(5) -0.1528(5)
H6A H -0.0549(5) 0.6659(5) -0.0238(5)
H8A H -0.2062(5) 0.4162(5) -0.2227(4)
C5A C -0.7274(5) 0.5021(4) 0.0047(4)
H7A H -0.6776(5) 0.5908(5) 0.0989(4)
C16A C -0.0448(4) 0.1773(5) 0.4672(4)
N4A N -0.7443(4) 0.9563(4) 0.4655(3)
C19A C -0.8178(5) 1.0131(5) 0.6216(4)
H14A H -0.9324(5) 0.9486(5) 0.6737(4)
H16A H -0.7749(5) 0.8550(5) 0.3225(4)
C17A C -0.0521(4) 0.2352(4) 0.5512(4)
H15A H -0.1199(4) 0.2542(5) 0.6876(4)
C28_2 C -0.5601(4) 0.0995(4) -0.1118(4)
N6_2 N -0.5088(4) 0.2870(4) 1.0608(3)
C31_2 C -0.6383(5) 0.2079(5) 1.1336(4)
H22_2 H -0.6769(5) 0.1017(5) 1.0536(4)
H24_2 H -0.3955(5) 0.2862(5) 0.9064(4)
C29_2 C -0.4904(4) 0.1134(4) -0.1880(4)
H23_2 H -0.3864(5) 0.1985(5) -0.2316(4)
O11A O -0.7595(3) 0.6899(4) 0.6818(3)
O12A O -0.5546(3) 0.6192(3) 0.7550(3)
O13A O -0.5944(3) 0.7658(3) 0.5973(3)
O15A O -0.4678(4) 0.8786(3) 0.4995(3)
O16A O -0.3810(4) 0.7404(4) 0.6477(3)
Cu1A Cu 0.4205(1) -0.3813(1) -0.0768(1)
Cu2A Cu -0.0364(1) 0.4099(1) 0.6596(1)
C3A C -0.7898(5) 0.3820(5) -0.0866(4)
Cu2A_2 Cu -0.0364(1) 0.4099(1) -0.3404(1)
C6A C 0.0162(5) 0.5601(5) -0.2300(4)
H5A H 0.0643(5) 0.6642(5) -0.1531(5)
N1A N -0.6568(4) 0.5125(4) -0.0685(3)
C15A C 0.0310(5) 0.1881(5) 0.3947(4)
Cu3A Cu -0.6224(1) 0.9346(1) 0.3747(1)
C18A C -0.7473(5) 1.0122(5) 0.5432(4)
H13A H -0.8187(5) 1.0547(5) 0.6739(4)
N3A N 0.0043(4) 0.3059(4) 0.5607(3)
C27_2 C -0.6203(5) 0.0281(5) -0.1243(4)
Cu1_2 Cu -0.4205(1) 0.3813(1) 1.0768(1)
C30_2 C -0.5748(5) 0.2761(5) 1.1343(4)
H21_2 H -0.6828(5) 0.2028(5) 1.1866(4)
N5_2 N -0.4787(4) 0.0591(4) -0.2722(3)
Cu1A_2 Cu -0.5795(1) 0.6187(1) 0.9232(1)
N2A_2 N -0.0516(4) 0.5031(4) 0.7650(3)
C2A C -0.7173(6) 0.3914(5) -0.1587(4)
H3A H -0.8335(5) 0.3385(5) -0.0932(4)
H4A H 0.0662(5) 0.5577(5) -0.2807(4)
Cu1A_3 Cu -0.5795(1) 0.6187(1) -0.0768(1)
C1A C -0.6522(5) 0.4560(5) -0.1468(4)
C14A C 0.0918(5) 0.2532(5) 0.4076(5)
H11A H 0.0391(5) 0.1508(5) 0.3385(4)
N5A N -0.5213(4) 0.9409(4) 0.2722(3)
H12A H -0.6999(5) 1.0527(5) 0.5450(4)
C13A C 0.0756(5) 0.3132(5) 0.4902(5)
C26_2 C -0.6095(5) -0.0240(5) -0.2082(4)
H19_2 H -0.6672(5) 0.0168(5) -0.0755(4)
H20_2 H -0.5784(5) 0.3159(5) 1.1884(4)
Cu3_2 Cu -0.3776(1) 0.0654(1) -0.3747(1)
C25_2 C -0.5374(5) -0.0068(5) -0.2798(4)
H2A H -0.7118(6) 0.3549(5) -0.2151(4)
H1A H -0.6025(5) 0.4603(5) -0.1960(4)
H10A H 0.1445(5) 0.2581(5) 0.3614(5)
H9A H 0.1160(5) 0.3599(5) 0.4964(5)
H18_2 H -0.6496(5) -0.0702(5) -0.2175(4)
O15_2 O -0.5322(4) 0.1214(3) -0.4995(3)
N4_2 N -0.2557(4) 0.0437(4) -0.4655(3)
H17_2 H -0.5301(5) -0.0437(5) -0.3362(4)
O24 O -0.2527(13) 0.7777(13) 0.3153(11)
loop_
_geom_bond_atom_site_label_1
_geom_bond_atom_site_label_2
_geom_bond_site_symmetry_1
_geom_bond_site_symmetry_2
Mo1 O1 1_555 1_555
Mo2 O2 1_555 1_555
Mo3 O3 1_555 1_555
Mo4 O11 1_555 1_555
Mo5 O13 1_555 1_555
Mo6 O14 1_555 1_555
Mo7 O17 1_555 1_555
Cu1 O9 1_555 1_555
Cu2 O22 1_555 1_555
Cu3 O15 1_555 1_555
O2 Mo1 1_555 1_555
O3 Mo1 1_555 1_555
O4 Mo1 1_555 1_555
O5 Mo2 1_555 1_555
O6 Mo2 1_555 1_555
O7 Mo1 1_555 1_555
O8 Mo2 1_555 1_555
O9 Mo3 1_555 1_555
O10 Mo1 1_555 1_555
O12 Mo4 1_555 1_555
O13 Mo4 1_555 1_555
O14 Mo5 1_555 1_555
O15 Mo5 1_555 1_555
O16 Mo5 1_555 1_555
O17 Mo5 1_555 1_555
O18 Mo4 1_555 1_555
O19 Mo6 1_555 1_555
O20 Mo4 1_555 1_555
O21 Mo4 1_555 1_555
O22 Mo7 1_555 1_555
O23 Mo7 1_555 1_555
N1 Cu1 1_555 1_555
N2 Cu2 1_555 1_555
N3 Cu2 1_555 1_555
N4 Cu3 1_555 1_555
N5 Cu3 1_555 1_555
N6 Cu1 1_555 1_555
C1 N1 1_555 1_555
C2 C1 1_555 1_555
C3 C2 1_555 1_555
C4 C3 1_555 1_555
C5 N1 1_555 1_555
C6 N2 1_555 1_555
C7 C6 1_555 1_555
C8 C7 1_555 1_555
C9 C4 1_555 1_555
C10 N2 1_555 1_555
C11 C5 1_555 1_555
C12 C10 1_555 1_555
C13 N3 1_555 1_555
C14 C13 1_555 1_555
C15 C14 1_555 1_555
C16 C15 1_555 1_555
C17 N3 1_555 1_555
C18 N4 1_555 1_555
C19 C18 1_555 1_555
C20 C19 1_555 1_555
C21 C16 1_555 1_555
C22 N4 1_555 1_555
C23 C17 1_555 1_555
C24 C22 1_555 1_555
C25 N5 1_555 1_555
C26 C25 1_555 1_555
C27 C26 1_555 1_555
C28 C27 1_555 1_555
C29 N5 1_555 1_555
C30 N6 1_555 1_555
C31 C30 1_555 1_555
C32 C31 1_555 1_555
C33 C28 1_555 1_555
C34 N6 1_555 1_555
C35 C29 1_555 1_555
C36 C34 1_555 1_555
H1 C1 1_555 1_555
H2 C2 1_555 1_555
H3 C3 1_555 1_555
H4 C6 1_555 1_555
H5 C7 1_555 1_555
H6 C8 1_555 1_555
H7 C11 1_555 1_555
H8 C12 1_555 1_555
H9 C13 1_555 1_555
H10 C14 1_555 1_555
H11 C15 1_555 1_555
H12 C18 1_555 1_555
H13 C19 1_555 1_555
H14 C20 1_555 1_555
H15 C23 1_555 1_555
H16 C24 1_555 1_555
H17 C25 1_555 1_555
H18 C26 1_555 1_555
H19 C27 1_555 1_555
H20 C30 1_555 1_555
H21 C31 1_555 1_555
H22 C32 1_555 1_555
H23 C35 1_555 1_555
H24 C36 1_555 1_555
O7A Mo2 1_555 1_555
O6A Mo3 1_555 1_555
O10A Mo3 1_555 1_555
O20A Mo6 1_555 1_555
O21A Mo6 1_555 1_555
O18A Mo7 1_555 1_555
Mo1A O4 1_555 1_555
Mo2A O4 1_555 1_555
Mo3A O4 1_555 1_555
Mo7A O18 1_555 1_555
Mo6A O20 1_555 1_555
C9A C8 1_555 1_555
C10A C9 1_555 1_555
C8A C9 1_555 1_555
C12A C11 1_555 1_555
C11A C12 1_555 1_555
C21A C20 1_555 1_555
C22A C21 1_555 1_555
C20A C21 1_555 1_555
C24A C23 1_555 1_555
C23A C24 1_555 1_555
C33_2 C32 1_555 1_555
C34_2 C33 1_555 1_555
C32_2 C33 1_555 1_555
C36_2 C35 1_555 1_555
C35_2 C36 1_555 1_555
Mo4A O20A 1_555 1_555
Mo5A O21A 1_555 1_555
O1A Mo1A 1_555 1_555
O2A Mo1A 1_555 1_555
O3A Mo1A 1_555 1_555
O5A Mo2A 1_555 1_555
O8A Mo2A 1_555 1_555
O9A Mo3A 1_555 1_555
O17A Mo7A 1_555 1_555
O22A Mo7A 1_555 1_555
O23A Mo7A 1_555 1_555
O14A Mo6A 1_555 1_555
O19A Mo6A 1_555 1_555
C4A C9A 1_555 1_555
N2A C10A 1_555 1_555
C7A C8A 1_555 1_555
H6A C8A 1_555 1_555
H8A C12A 1_555 1_555
C5A C11A 1_555 1_555
H7A C11A 1_555 1_555
C16A C21A 1_555 1_555
N4A C22A 1_555 1_555
C19A C20A 1_555 1_555
H14A C20A 1_555 1_555
H16A C24A 1_555 1_555
C17A C23A 1_555 1_555
H15A C23A 1_555 1_555
C28_2 C33_2 1_555 1_555
N6_2 C34_2 1_555 1_555
C31_2 C32_2 1_555 1_555
H22_2 C32_2 1_555 1_555
H24_2 C36_2 1_555 1_555
C29_2 C35_2 1_555 1_555
H23_2 C35_2 1_555 1_555
O11A Mo4A 1_555 1_555
O12A Mo4A 1_555 1_555
O13A Mo4A 1_555 1_555
O15A Mo5A 1_555 1_555
O16A Mo5A 1_555 1_555
Cu1A O9A 1_555 1_555
Cu2A O22A 1_555 1_555
C3A C4A 1_555 1_555
Cu2A_2 N2A 1_555 1_555
C6A N2A 1_555 1_555
H5A C7A 1_555 1_555
N1A C5A 1_555 1_555
C15A C16A 1_555 1_555
Cu3A N4A 1_555 1_555
C18A N4A 1_555 1_555
H13A C19A 1_555 1_555
N3A C17A 1_555 1_555
C27_2 C28_2 1_555 1_555
Cu1_2 N6_2 1_555 1_555
C30_2 N6_2 1_555 1_555
H21_2 C31_2 1_555 1_555
N5_2 C29_2 1_555 1_555
Cu1A_2 O12A 1_555 1_555
N2A_2 Cu2A 1_555 1_555
C2A C3A 1_555 1_555
H3A C3A 1_555 1_555
H4A C6A 1_555 1_555
Cu1A_3 N1A 1_555 1_555
C1A N1A 1_555 1_555
C14A C15A 1_555 1_555
H11A C15A 1_555 1_555
N5A Cu3A 1_555 1_555
H12A C18A 1_555 1_555
C13A N3A 1_555 1_555
C26_2 C27_2 1_555 1_555
H19_2 C27_2 1_555 1_555
H20_2 C30_2 1_555 1_555
Cu3_2 N5_2 1_555 1_555
C25_2 N5_2 1_555 1_555
H2A C2A 1_555 1_555
H1A C1A 1_555 1_555
H10A C14A 1_555 1_555
H9A C13A 1_555 1_555
H18_2 C26_2 1_555 1_555
O15_2 Cu3_2 1_555 1_555
N4_2 Cu3_2 1_555 1_555
H17_2 C25_2 1_555 1_555
Mo2 O4 1_555 1_555
Mo3 O4 1_555 1_555
Mo3 O8 1_555 1_555
Mo5 O21 1_555 1_555
Mo6 O18 1_555 1_555
Mo6 O21 1_555 1_555
Mo7 O20A 1_555 1_555
Mo7 O21 1_555 1_555
Cu1 O12 1_555 1_555
O6 Mo3A 1_555 1_555
O7 Mo2A 1_555 1_555
O10 Mo3A 1_555 1_555
O20 Mo7A 1_555 1_555
O21 Mo6A 1_555 1_555
C4 C5 1_555 1_555
C10 C9A 1_555 1_555
C16 C17 1_555 1_555
C22 C21A 1_555 1_555
C28 C29 1_555 1_555
C34 C33_2 1_555 1_555
O7A Mo1A 1_555 1_555
O6A Mo2A 1_555 1_555
O10A Mo1A 1_555 1_555
O21A Mo6A 1_555 1_555
O21A Mo7A 1_555 1_555
O21A Mo4A 1_555 1_555
O18A Mo6A 1_555 1_555
O18A Mo4A 1_555 1_555
Mo2A O2A 1_555 1_555
Mo3A O3A 1_555 1_555
Mo3A O8A 1_555 1_555
C10A C12A 1_555 1_555
C22A C24A 1_555 1_555
C34_2 C36_2 1_555 1_555
Mo5A O13A 1_555 1_555
Mo5A O14A 1_555 1_555
Mo5A O17A 1_555 1_555
C4A C5A 1_555 1_555
C7A C6A 1_555 1_555
C16A C17A 1_555 1_555
C19A C18A 1_555 1_555
C28_2 C29_2 1_555 1_555
C31_2 C30_2 1_555 1_555
O15A Cu3A 1_555 1_555
Cu2A N3A 1_555 1_555
C2A C1A 1_555 1_555
C14A C13A 1_555 1_555
C26_2 C25_2 1_555 1_555

#END
