
#######################################################################
#
#                 Cambridge Crystallographic Data Centre
#                                CCDC 
#
#######################################################################
#
# If this CIF has been generated from an entry in the Cambridge 
# Structural Database, then it will include bibliographic, chemical, 
# crystal, experimental, refinement or atomic coordinate data resulting 
# from the CCDC's data processing and validation procedures.
#
#######################################################################

data_PIJCUI
_symmetry_cell_setting           monoclinic
_symmetry_space_group_name_H-M   'P 21/c'
_symmetry_Int_Tables_number      14
_space_group_name_Hall           '-P 2ybc'
loop_
_symmetry_equiv_pos_site_id
_symmetry_equiv_pos_as_xyz
1 x,y,z
2 -x,1/2+y,1/2-z
3 -x,-y,-z
4 x,1/2-y,1/2+z
_cell_length_a                   15.4283(10)
_cell_length_b                   9.8446(3)
_cell_length_c                   12.3063(7)
_cell_angle_alpha                90
_cell_angle_beta                 109.738(7)
_cell_angle_gamma                90
_cell_volume                     1759.33
loop_
_atom_site_label
_atom_site_type_symbol
_atom_site_fract_x
_atom_site_fract_y
_atom_site_fract_z
S1 S 0.88523(4) 0.16397(5) 0.21485(4)
Na1 Na 1.00534(7) 0.39303(9) 0.37601(7)
O1 O 0.98307(14) 0.11409(15) 0.05381(14)
O2 O 0.91306(13) 0.02197(16) 0.22677(13)
N1 N 1.10599(14) 0.2854(2) 0.02111(17)
O3 O 0.86989(14) 0.2208(2) 0.31526(15)
N2 N 1.05599(15) 0.3152(2) 0.09510(18)
H1 H 1.0634 0.3915 0.1311
N3 N 0.95431(14) 0.26298(18) 0.18532(16)
C1 C 0.99625(16) 0.2219(2) 0.10858(17)
C2 C 0.77714(18) 0.1654(2) 0.1026(2)
C3 C 1.12505(19) 0.4082(3) -0.0344(2)
H2 H 1.0697 0.4430 -0.0921
H3 H 1.1523 0.4789 0.0217
C4 C 1.1941(2) 0.3538(3) -0.0902(3)
H4 H 1.1614 0.3229 -0.1691
C5 C 1.1960(2) 0.2253(3) 0.0796(3)
H5 H 1.2303 0.2772 0.1475
H6 H 1.1903 0.1322 0.1021
C6 C 0.7691(2) 0.1751(4) -0.0115(3)
H7 H 0.8216 0.1862 -0.0318
C7 C 1.2704(3) 0.4512(5) -0.0888(4)
H8 H 1.2899 0.4371 -0.1551
H9 H 1.2510 0.5448 -0.0881
C8 C 0.6847(3) 0.1687(5) -0.0954(3)
H10 H 0.6810 0.1730 -0.1724
C9 C 0.6991(2) 0.1461(5) 0.1304(3)
H11 H 0.7034 0.1357 0.2072
C10 C 1.2422(2) 0.2319(3) -0.0127(3)
H12 H 1.2309 0.1478 -0.0579
C11 C 0.6063(3) 0.1563(6) -0.0705(4)
C12 C 0.6144(3) 0.1424(7) 0.0444(5)
H13 H 0.5617 0.1302 0.0639
C13 C 1.3482(4) 0.4148(7) 0.0246(7)
H14 H 1.3381 0.4578 0.0902
H15 H 1.4076 0.4430 0.0218
C14 C 1.3431(3) 0.2632(6) 0.0322(5)
H16 H 1.3707 0.2327 0.1114
H17 H 1.3745 0.2197 -0.0148
C15 C 0.5128(4) 0.1511(11) -0.1673(6)
H18 H 0.4670 0.1180 -0.1371
H19 H 0.5165 0.0914 -0.2273
H20 H 0.4962 0.2406 -0.1984
Na1A Na 0.99466(7) -0.10697(9) 0.12399(7)
Na1C Na 1.00534(7) 0.10697(9) -0.12399(7)
O1A O 1.01693(14) 0.61409(15) 0.44619(14)
O1C O 0.98307(14) 0.38591(15) 0.55381(14)
O2A O 1.08694(13) 0.52197(16) 0.27323(13)
N1C N 1.10599(14) 0.2146(2) 0.52111(17)
loop_
_geom_bond_atom_site_label_1
_geom_bond_atom_site_label_2
_geom_bond_site_symmetry_1
_geom_bond_site_symmetry_2
S1 O2 1_555 1_555
Na1 O3 1_555 1_555
O1 C1 1_555 1_555
O2 Na1A 1_555 1_555
N1 N2 1_555 1_555
O3 S1 1_555 1_555
N2 H1 1_555 1_555
N3 S1 1_555 1_555
C1 N2 1_555 1_555
C2 S1 1_555 1_555
C3 N1 1_555 1_555
H2 C3 1_555 1_555
H3 C3 1_555 1_555
C4 C3 1_555 1_555
H4 C4 1_555 1_555
C5 N1 1_555 1_555
H5 C5 1_555 1_555
H6 C5 1_555 1_555
C6 C2 1_555 1_555
H7 C6 1_555 1_555
C7 C4 1_555 1_555
H8 C7 1_555 1_555
H9 C7 1_555 1_555
C8 C6 1_555 1_555
H10 C8 1_555 1_555
C9 C2 1_555 1_555
H11 C9 1_555 1_555
C10 C4 1_555 1_555
H12 C10 1_555 1_555
C11 C8 1_555 1_555
C12 C9 1_555 1_555
H13 C12 1_555 1_555
C13 C7 1_555 1_555
H14 C13 1_555 1_555
H15 C13 1_555 1_555
C14 C10 1_555 1_555
H16 C14 1_555 1_555
H17 C14 1_555 1_555
C15 C11 1_555 1_555
H18 C15 1_555 1_555
H19 C15 1_555 1_555
H20 C15 1_555 1_555
Na1A O1 1_555 1_555
Na1C O1 1_555 1_555
O1A Na1 1_555 1_555
O1C Na1 1_555 1_555
O2A Na1 1_555 1_555
N1C Na1 1_555 1_555
Na1 N3 1_555 1_555
N1 Na1C 1_555 1_555
N3 C1 1_555 1_555
C5 C10 1_555 1_555
C11 C12 1_555 1_555
C13 C14 1_555 1_555

#END
