
#######################################################################
#
#                 Cambridge Crystallographic Data Centre
#                                CCDC 
#
#######################################################################
#
# If this CIF has been generated from an entry in the Cambridge 
# Structural Database, then it will include bibliographic, chemical, 
# crystal, experimental, refinement or atomic coordinate data resulting 
# from the CCDC's data processing and validation procedures.
#
#######################################################################

data_PIJGEV
_symmetry_cell_setting           triclinic
_symmetry_space_group_name_H-M   'P -1'
_symmetry_Int_Tables_number      2
_space_group_name_Hall           '-P 1'
loop_
_symmetry_equiv_pos_site_id
_symmetry_equiv_pos_as_xyz
1 x,y,z
2 -x,-y,-z
_cell_length_a                   7.5532(6)
_cell_length_b                   7.6420(6)
_cell_length_c                   8.4674(7)
_cell_angle_alpha                71.386(1)
_cell_angle_beta                 73.065(1)
_cell_angle_gamma                74.956(1)
_cell_volume                     435.555
loop_
_atom_site_label
_atom_site_type_symbol
_atom_site_fract_x
_atom_site_fract_y
_atom_site_fract_z
Cd1 Cd 0.40796(2) 0.94674(2) 0.240196(18)
O1 O 0.2930(2) 1.0441(2) -0.0076(2)
O2 O 0.0281(3) 1.1755(3) -0.2777(2)
O3 O 0.4931(2) 1.2267(2) 0.2158(2)
O4 O 0.4532(3) 1.6517(2) 0.2062(2)
O5 O 0.6094(3) 0.8125(3) 0.4220(2)
H1 H 0.723(5) 0.815(4) 0.385(4)
H2 H 0.584(6) 0.800(6) 0.518(5)
N1 N 0.2032(3) 0.8146(3) 0.5051(2)
N2 N -0.1033(3) 0.8349(3) 0.6857(3)
C1 C 0.1319(3) 1.0176(3) -0.0025(3)
C2 C 0.0126(3) 1.0800(3) -0.1267(3)
C3 C 0.4980(3) 1.3748(3) 0.0957(3)
C4 C 0.4783(3) 1.5725(3) 0.0917(3)
C5 C 0.0274(3) 0.9030(3) 0.5530(3)
C6 C -0.0530(4) 0.6590(4) 0.7792(3)
H3 H -0.1408 0.6056 0.8732
C7 C 0.1240(4) 0.5561(3) 0.7399(3)
H4 H 0.1575 0.4344 0.8050
C8 C 0.2504(4) 0.6399(3) 0.6002(3)
H5 H 0.3717 0.5733 0.5712
Cd1A Cd -0.40796(2) 1.05326(2) -0.240196(18)
Cd1A_2 Cd 0.59204(2) 1.05326(2) -0.240196(18)
Cd1_2 Cd 0.40796(2) 1.94674(2) 0.240196(18)
Cd1A_3 Cd -0.40796(2) 1.05326(2) 0.759804(18)
Cd1_3 Cd -0.59204(2) 0.94674(2) 0.240196(18)
Cd1A_4 Cd 0.59204(2) 2.05326(2) -0.240196(18)
O1A O -0.2930(2) 0.9559(2) 0.0076(2)
O1A_2 O 0.7070(2) 0.9559(2) 0.0076(2)
O1_2 O -0.7070(2) 1.0441(2) -0.0076(2)
O2A O -0.0281(3) 0.8245(3) 0.2777(2)
O3A O 0.5069(2) 1.7733(2) -0.2158(2)
O3A_2 O -0.4931(2) 0.7733(2) -0.2158(2)
O4A O 0.5468(3) 1.3483(2) -0.2062(2)
O4_2 O 0.4532(3) 0.6517(2) 0.2062(2)
O4A_2 O -0.4532(3) 1.3483(2) -0.2062(2)
O5A O -0.6094(3) 1.1875(3) -0.4220(2)
H1A H -0.723(5) 1.185(4) -0.385(4)
H2A H -0.584(6) 1.200(6) -0.518(5)
N1A N -0.2032(3) 1.1854(3) 0.4949(2)
N1A_2 N -0.2032(3) 1.1854(3) -0.5051(2)
N2A N 0.1033(3) 1.1651(3) 0.3143(3)
N2_2 N -0.1033(3) 0.8349(3) -0.3143(3)
C1A C -0.1319(3) 0.9824(3) 0.0025(3)
C2A C -0.0126(3) 0.9200(3) 0.1267(3)
C3A C 0.5020(3) 1.6252(3) -0.0957(3)
C4A C 0.5217(3) 1.4275(3) -0.0917(3)
C5A C -0.0274(3) 1.0970(3) 0.4470(3)
C6A C 0.0530(4) 1.3410(4) 0.2208(3)
H3A H 0.1408 1.3944 0.1268
C7A C -0.1240(4) 1.4439(3) 0.2601(3)
H4A H -0.1575 1.5656 0.1950
C8A C -0.2504(4) 1.3601(3) 0.3998(3)
H5A H -0.3717 1.4267 0.4288
loop_
_geom_bond_atom_site_label_1
_geom_bond_atom_site_label_2
_geom_bond_site_symmetry_1
_geom_bond_site_symmetry_2
Cd1 O1 1_555 1_555
O1 C1 1_555 1_555
O2 C2 1_555 1_555
O3 Cd1 1_555 1_555
O4 C4 1_555 1_555
O5 Cd1 1_555 1_555
H1 O5 1_555 1_555
H2 O5 1_555 1_555
N1 Cd1 1_555 1_555
N2 C5 1_555 1_555
C1 C2 1_555 1_555
C2 C1A 1_555 1_555
C3 O3 1_555 1_555
C4 C3 1_555 1_555
C5 N1 1_555 1_555
C6 N2 1_555 1_555
H3 C6 1_555 1_555
C7 C6 1_555 1_555
H4 C7 1_555 1_555
C8 N1 1_555 1_555
H5 C8 1_555 1_555
Cd1A O1A 1_555 1_555
Cd1A_2 O1 1_555 1_555
Cd1_2 O4 1_555 1_555
Cd1A_3 N2 1_555 1_555
Cd1_3 O1A 1_555 1_555
Cd1A_4 O3A 1_555 1_555
O1A C1A 1_555 1_555
O1A_2 Cd1 1_555 1_555
O1_2 Cd1A 1_555 1_555
O2A C2A 1_555 1_555
O3A C3A 1_555 1_555
O3A_2 Cd1A 1_555 1_555
O4A Cd1A_2 1_555 1_555
O4_2 Cd1 1_555 1_555
O4A_2 Cd1A 1_555 1_555
O5A Cd1A 1_555 1_555
H1A O5A 1_555 1_555
H2A O5A 1_555 1_555
N1A Cd1A_3 1_555 1_555
N1A_2 Cd1A 1_555 1_555
N2A Cd1 1_555 1_555
N2_2 Cd1A 1_555 1_555
C1A C2A 1_555 1_555
C2A C1 1_555 1_555
C3A C4 1_555 1_555
C4A C3 1_555 1_555
C5A C5 1_555 1_555
C6A N2A 1_555 1_555
H3A C6A 1_555 1_555
C7A C6A 1_555 1_555
H4A C7A 1_555 1_555
C8A N1A 1_555 1_555
H5A C8A 1_555 1_555
C7 C8 1_555 1_555
Cd1A_2 O1A_2 1_555 1_555
Cd1_3 O1_2 1_555 1_555
O4A C4A 1_555 1_555
N1A C5A 1_555 1_555
N2A C5A 1_555 1_555
C3A C4A 1_555 1_555
C7A C8A 1_555 1_555

#END
