
#######################################################################
#
#                 Cambridge Crystallographic Data Centre
#                                CCDC 
#
#######################################################################
#
# If this CIF has been generated from an entry in the Cambridge 
# Structural Database, then it will include bibliographic, chemical, 
# crystal, experimental, refinement or atomic coordinate data resulting 
# from the CCDC's data processing and validation procedures.
#
#######################################################################

data_PIJGAR
_symmetry_cell_setting           monoclinic
_symmetry_space_group_name_H-M   'C 2/m'
_symmetry_Int_Tables_number      12
_space_group_name_Hall           '-C 2y'
loop_
_symmetry_equiv_pos_site_id
_symmetry_equiv_pos_as_xyz
1 x,y,z
2 1/2+x,1/2+y,z
3 -x,y,-z
4 1/2-x,1/2+y,-z
5 -x,-y,-z
6 1/2-x,1/2-y,-z
7 x,-y,z
8 1/2+x,1/2-y,z
_cell_length_a                   11.3146(6)
_cell_length_b                   7.6357(4)
_cell_length_c                   11.8779(6)
_cell_angle_alpha                90
_cell_angle_beta                 107.6160(10)
_cell_angle_gamma                90
_cell_volume                     978.068
loop_
_atom_site_label
_atom_site_type_symbol
_atom_site_fract_x
_atom_site_fract_y
_atom_site_fract_z
Cd1 Cd 0.06824(2) 0.5000 0.783172(19)
O1 O 0.11701(17) 0.3102(2) 0.95684(16)
O2 O 0.1886(3) 0.0000 1.1167(2)
O3 O 0.05715(19) 0.1977(2) 0.72148(16)
O4 O -0.1164(3) 0.5000 0.8428(2)
H1 H -0.113(3) 0.415(4) 0.881(3)
N1 N -0.0993(3) 0.5000 0.5931(2)
N2 N -0.1468(3) 0.5000 0.3850(2)
C1 C 0.1166(2) 0.1531(3) 0.9293(2)
C2 C 0.1472(3) 0.0000 1.0075(3)
C3 C 0.0830(2) 0.0954(3) 0.8070(2)
C4 C -0.2205(4) 0.5000 0.5819(3)
H2 H -0.2459 0.5000 0.6495
C5 C -0.3087(4) 0.5000 0.4727(4)
H3 H -0.3929 0.5000 0.4652
C6 C -0.2677(3) 0.5000 0.3760(3)
H4 H -0.3256 0.5000 0.3013
C7 C -0.0676(3) 0.5000 0.4942(3)
Cd1_2 Cd 0.06824(2) -0.5000 0.783172(19)
Cd1E Cd 0.43176(2) 0.0000 1.216828(19)
Cd1D Cd -0.06824(2) 0.5000 0.216828(19)
Cd1E_2 Cd 0.43176(2) 1.0000 1.216828(19)
Cd1_3 Cd 0.06824(2) 1.5000 0.783172(19)
O1F O 0.11701(17) -0.3102(2) 0.95684(16)
O1F_2 O 0.11701(17) 0.6898(2) 0.95684(16)
O1_2 O 0.11701(17) 1.3102(2) 0.95684(16)
O1_3 O 0.11701(17) -0.6898(2) 0.95684(16)
O2_2 O 0.1886(3) 1.0000 1.1167(2)
O2E O 0.3114(3) 0.5000 0.8833(2)
O2E_2 O 0.3114(3) -0.5000 0.8833(2)
O3F O 0.05715(19) -0.1977(2) 0.72148(16)
O3F_2 O 0.05715(19) 0.8023(2) 0.72148(16)
O3_2 O 0.05715(19) 1.1977(2) 0.72148(16)
O3_3 O 0.05715(19) -0.8023(2) 0.72148(16)
O4_2 O -0.1164(3) -0.5000 0.8428(2)
H1F H -0.113(3) 0.585(4) 0.881(3)
H1F_2 H -0.113(3) -0.415(4) 0.881(3)
H1_2 H -0.113(3) -0.585(4) 0.881(3)
N1D N 0.0993(3) 0.5000 0.4069(2)
N1_2 N -0.0993(3) -0.5000 0.5931(2)
N2D N 0.1468(3) 0.5000 0.6150(2)
N2D_2 N 0.1468(3) -0.5000 0.6150(2)
C1F C 0.1166(2) -0.1531(3) 0.9293(2)
C1F_2 C 0.1166(2) 0.8469(3) 0.9293(2)
C1_2 C 0.1166(2) 1.1531(3) 0.9293(2)
C2_2 C 0.1472(3) 1.0000 1.0075(3)
C3F C 0.0830(2) -0.0954(3) 0.8070(2)
C3F_2 C 0.0830(2) 0.9046(3) 0.8070(2)
C3_2 C 0.0830(2) 1.0954(3) 0.8070(2)
C4D C 0.2205(4) 0.5000 0.4181(3)
H2D H 0.2459 0.5000 0.3505
C5D C 0.3087(4) 0.5000 0.5273(4)
H3D H 0.3929 0.5000 0.5348
C6D C 0.2677(3) 0.5000 0.6240(3)
H4D H 0.3256 0.5000 0.6987
C7D C 0.0676(3) 0.5000 0.5058(3)
loop_
_geom_bond_atom_site_label_1
_geom_bond_atom_site_label_2
_geom_bond_site_symmetry_1
_geom_bond_site_symmetry_2
Cd1 O1 1_555 1_555
O1 C1 1_555 1_555
O2 C2 1_555 1_555
O3 Cd1 1_555 1_555
O4 Cd1 1_555 1_555
H1 O4 1_555 1_555
N1 Cd1 1_555 1_555
N2 C6 1_555 1_555
C1 C2 1_555 1_555
C2 C1F 1_555 1_555
C3 O3 1_555 1_555
C4 N1 1_555 1_555
H2 C4 1_555 1_555
C5 C4 1_555 1_555
H3 C5 1_555 1_555
C6 C5 1_555 1_555
H4 C6 1_555 1_555
C7 N1 1_555 1_555
Cd1_2 O1F 1_555 1_555
Cd1E O2 1_555 1_555
Cd1D N2 1_555 1_555
Cd1E_2 O2_2 1_555 1_555
Cd1_3 O1_2 1_555 1_555
O1F C1F 1_555 1_555
O1F_2 Cd1 1_555 1_555
O1_2 C1_2 1_555 1_555
O1_3 Cd1_2 1_555 1_555
O2_2 C2_2 1_555 1_555
O2E Cd1 1_555 1_555
O2E_2 Cd1_2 1_555 1_555
O3F Cd1_2 1_555 1_555
O3F_2 Cd1 1_555 1_555
O3_2 Cd1_3 1_555 1_555
O3_3 Cd1_2 1_555 1_555
O4_2 Cd1_2 1_555 1_555
H1F O4 1_555 1_555
H1F_2 O4_2 1_555 1_555
H1_2 O4_2 1_555 1_555
N1D Cd1D 1_555 1_555
N1_2 Cd1_2 1_555 1_555
N2D Cd1 1_555 1_555
N2D_2 Cd1_2 1_555 1_555
C1F C3F 1_555 1_555
C1F_2 O1F_2 1_555 1_555
C1_2 C2_2 1_555 1_555
C2_2 C1F_2 1_555 1_555
C3F C3 1_555 1_555
C3F_2 O3F_2 1_555 1_555
C3_2 O3_2 1_555 1_555
C4D N1D 1_555 1_555
H2D C4D 1_555 1_555
C5D C4D 1_555 1_555
H3D C5D 1_555 1_555
C6D N2D 1_555 1_555
H4D C6D 1_555 1_555
C7D C7 1_555 1_555
N2 C7 1_555 1_555
C1 C3 1_555 1_555
O3F C3F 1_555 1_555
N1D C7D 1_555 1_555
N2D C7D 1_555 1_555
C1F_2 C3F_2 1_555 1_555
C1_2 C3_2 1_555 1_555
C3F_2 C3_2 1_555 1_555
C5D C6D 1_555 1_555

#END
