
#######################################################################
#
#                 Cambridge Crystallographic Data Centre
#                                CCDC 
#
#######################################################################
#
# If this CIF has been generated from an entry in the Cambridge 
# Structural Database, then it will include bibliographic, chemical, 
# crystal, experimental, refinement or atomic coordinate data resulting 
# from the CCDC's data processing and validation procedures.
#
#######################################################################

data_PIJGUL
_symmetry_cell_setting           monoclinic
_symmetry_space_group_name_H-M   'C c'
_symmetry_Int_Tables_number      9
_space_group_name_Hall           'C -2yc'
loop_
_symmetry_equiv_pos_site_id
_symmetry_equiv_pos_as_xyz
1 x,y,z
2 x,-y,1/2+z
3 1/2+x,1/2+y,z
4 1/2+x,1/2-y,1/2+z
_cell_length_a                   18.7018(11)
_cell_length_b                   10.1221(4)
_cell_length_c                   11.1991(7)
_cell_angle_alpha                90
_cell_angle_beta                 117.7810(14)
_cell_angle_gamma                90
_cell_volume                     1875.65
loop_
_atom_site_label
_atom_site_type_symbol
_atom_site_fract_x
_atom_site_fract_y
_atom_site_fract_z
La1 La 0.46119(16) 0.29820(4) 0.1408(2)
O1 O 0.4747(5) 0.7360(4) 0.1522(9)
O2 O 0.4085(7) 0.5490(13) 0.0487(12)
O3 O 0.5228(7) 0.5528(13) 0.2295(12)
O4 O 0.2526(6) 0.4936(8) 0.1339(9)
O5 O 0.3018(6) 0.3459(9) 0.0496(9)
O6 O 0.3748(6) 0.4274(10) 0.2594(9)
O7 O 0.6768(5) 0.4699(8) 0.1374(9)
O8 O 0.6201(5) 0.3272(8) 0.2124(8)
O9 O 0.5445(6) 0.4360(10) 0.0396(9)
O10 O 0.5350(6) 0.3407(9) 0.4018(9)
O11 O 0.5453(7) 0.1020(12) 0.2757(11)
O12 O 0.4135(6) 0.1524(9) 0.2958(8)
O13 O 0.3765(5) -0.3349(7) 0.3875(7)
O14 O 0.3724(6) -0.1072(11) 0.4920(10)
O15 O 0.5111(5) -0.1420(9) 0.5058(8)
N1 N 0.4528(8) 0.6140(5) 0.1302(14)
N2 N 0.3117(10) 0.4202(16) 0.1582(15)
N3 N 0.6169(8) 0.4142(13) 0.1364(13)
C1 C 0.5853(9) 0.2343(16) 0.4882(16)
H1 H 0.5817 0.2314 0.5718
H2 H 0.6414 0.2476 0.5096
C2 C 0.5522(10) 0.1022(16) 0.4068(15)
H3 H 0.5887 0.0303 0.4583
C3 C 0.4666(9) 0.0750(13) 0.3986(14)
H4 H 0.4676 0.1030 0.4832
C4 C 0.3289(10) -0.2335(17) 0.2977(16)
H5 H 0.3271 -0.2452 0.2104
H6 H 0.2741 -0.2373 0.2856
C5 C 0.3658(7) -0.1054(12) 0.3559(12)
H7 H 0.3283 -0.0349 0.3036
C6 C 0.4453(9) -0.0719(16) 0.3758(15)
H8 H 0.4510 -0.1021 0.2975
La1A La 0.46119(16) -0.29820(4) 0.6408(2)
O13A O 0.3765(5) 0.3349(7) -0.1125(7)
O14A O 0.3724(6) 0.1072(11) -0.0080(10)
O15A O 0.5111(5) 0.1420(9) 0.0058(8)
O16 O 0.6166(7) 0.2352(12) -0.0866(11)
O17 O 0.2943(6) 0.2259(10) 0.3499(9)
O18 O 0.2352(5) -0.0186(8) -0.0542(9)
O19 O 0.6919(6) 0.0122(8) 0.3267(9)
loop_
_geom_bond_atom_site_label_1
_geom_bond_atom_site_label_2
_geom_bond_site_symmetry_1
_geom_bond_site_symmetry_2
La1 O2 1_555 1_555
O1 N1 1_555 1_555
O2 N1 1_555 1_555
O3 La1 1_555 1_555
O4 N2 1_555 1_555
O5 La1 1_555 1_555
O6 La1 1_555 1_555
O7 N3 1_555 1_555
O8 La1 1_555 1_555
O9 La1 1_555 1_555
O10 La1 1_555 1_555
O11 La1 1_555 1_555
O12 La1 1_555 1_555
O13 C4 1_555 1_555
O14 C5 1_555 1_555
O15 C6 1_555 1_555
N1 O3 1_555 1_555
N2 O5 1_555 1_555
N3 O8 1_555 1_555
C1 O10 1_555 1_555
H1 C1 1_555 1_555
H2 C1 1_555 1_555
C2 O11 1_555 1_555
H3 C2 1_555 1_555
C3 O12 1_555 1_555
H4 C3 1_555 1_555
C4 H5 1_555 1_555
H6 C4 1_555 1_555
C5 C4 1_555 1_555
H7 C5 1_555 1_555
C6 C3 1_555 1_555
H8 C6 1_555 1_555
La1A O13 1_555 1_555
O13A La1 1_555 1_555
O14A La1 1_555 1_555
O15A La1 1_555 1_555
O6 N2 1_555 1_555
O9 N3 1_555 1_555
O14 La1A 1_555 1_555
O15 La1A 1_555 1_555
C1 C2 1_555 1_555
C2 C3 1_555 1_555
C5 C6 1_555 1_555

#END
