
#######################################################################
#
#                 Cambridge Crystallographic Data Centre
#                                CCDC 
#
#######################################################################
#
# If this CIF has been generated from an entry in the Cambridge 
# Structural Database, then it will include bibliographic, chemical, 
# crystal, experimental, refinement or atomic coordinate data resulting 
# from the CCDC's data processing and validation procedures.
#
#######################################################################

data_PIJGIZ
_symmetry_cell_setting           monoclinic
_symmetry_space_group_name_H-M   'C 2/c'
_symmetry_Int_Tables_number      15
_space_group_name_Hall           '-C 2yn'
loop_
_symmetry_equiv_pos_site_id
_symmetry_equiv_pos_as_xyz
1 x,y,z
2 1/2+x,1/2+y,z
3 -x,y,1/2-z
4 1/2-x,1/2+y,1/2-z
5 -x,-y,-z
6 1/2-x,1/2-y,-z
7 x,-y,1/2+z
8 1/2+x,1/2-y,1/2+z
_cell_length_a                   12.237(2)
_cell_length_b                   15.295(3)
_cell_length_c                   9.6444(19)
_cell_angle_alpha                90.00
_cell_angle_beta                 108.791(4)
_cell_angle_gamma                90.00
_cell_volume                     1708.88
loop_
_atom_site_label
_atom_site_type_symbol
_atom_site_fract_x
_atom_site_fract_y
_atom_site_fract_z
Co1 Co 0.0000 0.24072(4) 0.2500
P1 P -0.04021(9) 0.36042(6) -0.05771(11)
N1 N -0.0800(3) 0.1302(2) 0.1176(4)
O1 O 0.1584(3) 0.2450(3) 0.1991(4)
C1 C -0.0427(3) 0.0513(2) 0.1803(4)
C2 C -0.0867(4) -0.0287(3) 0.1108(5)
C3 C -0.1721(4) -0.0227(3) -0.0283(6)
H1 H -0.2026 -0.0733 -0.0796
C4 C -0.1617(4) 0.1324(3) -0.0116(5)
H2 H -0.1882 0.1863 -0.0536
C5 C -0.0409(5) -0.1076(3) 0.1840(6)
H3 H -0.0682 -0.1607 0.1392
C6 C -0.2095(4) 0.0562(4) -0.0868(5)
H4 H -0.2670 0.0599 -0.1773
C7 C -0.0458(3) 0.4781(3) -0.0624(4)
H5 H -0.0376 0.4979 -0.1541
H6 H -0.1211 0.4967 -0.0606
O2 O 0.0837(2) 0.33539(18) -0.0587(3)
O3 O -0.0589(2) 0.32692(17) 0.0775(3)
O4 O -0.1285(2) 0.32976(19) -0.2003(3)
H7 H 0.149(4) 0.272(3) 0.096(6)
H8 H 0.104(5) 0.339(3) -0.160(6)
H9 H 0.213(4) 0.222(3) 0.234(5)
Co1F Co 0.0000 0.75928(4) -0.2500
P1D P 0.04021(9) 0.63958(6) 0.05771(11)
N1B N 0.0800(3) 0.1302(2) 0.3824(4)
O1B O -0.1584(3) 0.2450(3) 0.3009(4)
C1B C 0.0427(3) 0.0513(2) 0.3197(4)
C2B C 0.0867(4) -0.0287(3) 0.3892(5)
C3B C 0.1721(4) -0.0227(3) 0.5283(6)
H1B H 0.2026 -0.0733 0.5796
C4B C 0.1617(4) 0.1324(3) 0.5116(5)
H2B H 0.1882 0.1863 0.5536
C5B C 0.0409(5) -0.1076(3) 0.3160(6)
H3B H 0.0682 -0.1607 0.3608
C6B C 0.2095(4) 0.0562(4) 0.5868(5)
H4B H 0.2670 0.0599 0.6773
C7D C 0.0458(3) 0.5219(3) 0.0624(4)
H5D H 0.0376 0.5021 0.1541
H6D H 0.1211 0.5033 0.0606
O2D O -0.0837(2) 0.66461(18) 0.0587(3)
O3D O 0.0589(2) 0.67308(17) -0.0775(3)
O3B O 0.0589(2) 0.32692(17) 0.4225(3)
O4D O 0.1285(2) 0.67024(19) 0.2003(3)
H7B H -0.149(4) 0.272(3) 0.404(6)
H8D H -0.104(5) 0.661(3) 0.160(6)
H9B H -0.213(4) 0.222(3) 0.266(5)
loop_
_geom_bond_atom_site_label_1
_geom_bond_atom_site_label_2
_geom_bond_site_symmetry_1
_geom_bond_site_symmetry_2
Co1 N1 1_555 1_555
P1 C7 1_555 1_555
N1 C1 1_555 1_555
O1 Co1 1_555 1_555
C1 C2 1_555 1_555
C2 C3 1_555 1_555
C3 H1 1_555 1_555
C4 N1 1_555 1_555
H2 C4 1_555 1_555
C5 C2 1_555 1_555
H3 C5 1_555 1_555
C6 C3 1_555 1_555
H4 C6 1_555 1_555
C7 H5 1_555 1_555
H6 C7 1_555 1_555
O2 P1 1_555 1_555
O3 Co1 1_555 1_555
O4 P1 1_555 1_555
H7 O1 1_555 1_555
H8 O2 1_555 1_555
H9 O1 1_555 1_555
Co1F O3D 1_555 1_555
P1D C7D 1_555 1_555
N1B Co1 1_555 1_555
O1B Co1 1_555 1_555
C1B C1 1_555 1_555
C2B C1B 1_555 1_555
C3B C2B 1_555 1_555
H1B C3B 1_555 1_555
C4B N1B 1_555 1_555
H2B C4B 1_555 1_555
C5B C5 1_555 1_555
H3B C5B 1_555 1_555
C6B C3B 1_555 1_555
H4B C6B 1_555 1_555
C7D C7 1_555 1_555
H5D C7D 1_555 1_555
H6D C7D 1_555 1_555
O2D P1D 1_555 1_555
O3D P1D 1_555 1_555
O3B Co1 1_555 1_555
O4D P1D 1_555 1_555
H7B O1B 1_555 1_555
H8D O2D 1_555 1_555
H9B O1B 1_555 1_555
P1 O3 1_555 1_555
C4 C6 1_555 1_555
N1B C1B 1_555 1_555
C2B C5B 1_555 1_555
C4B C6B 1_555 1_555

#END
