
#######################################################################
#
#                 Cambridge Crystallographic Data Centre
#                                CCDC 
#
#######################################################################
#
# If this CIF has been generated from an entry in the Cambridge 
# Structural Database, then it will include bibliographic, chemical, 
# crystal, experimental, refinement or atomic coordinate data resulting 
# from the CCDC's data processing and validation procedures.
#
#######################################################################

data_PIJGOF
_symmetry_cell_setting           triclinic
_symmetry_space_group_name_H-M   'P -1'
_symmetry_Int_Tables_number      2
_space_group_name_Hall           '-P 1'
loop_
_symmetry_equiv_pos_site_id
_symmetry_equiv_pos_as_xyz
1 x,y,z
2 -x,-y,-z
_cell_length_a                   5.5422(6)
_cell_length_b                   10.9953(12)
_cell_length_c                   12.9331(13)
_cell_angle_alpha                86.572(2)
_cell_angle_beta                 82.114(2)
_cell_angle_gamma                84.112(2)
_cell_volume                     775.711
loop_
_atom_site_label
_atom_site_type_symbol
_atom_site_fract_x
_atom_site_fract_y
_atom_site_fract_z
Co1 Co 0.31221(10) 0.73130(5) 0.20573(5)
P1 P 0.8164(2) 0.87745(11) 0.12087(9)
P2 P 0.3222(2) 0.89327(11) 0.41627(10)
N1 N 0.0679(7) 0.6062(4) 0.2932(3)
N2 N 0.4710(8) 0.5550(4) 0.1646(4)
C1 C 0.2834(13) 0.2433(5) 0.2264(5)
H1 H 0.332(12) 0.163(6) 0.210(5)
C2 C 0.4242(11) 0.3377(5) 0.1803(5)
C3 C -0.1294(12) 0.6354(6) 0.3572(6)
H2 H -0.175(13) 0.717(7) 0.371(6)
C4 C -0.0038(14) 0.3917(5) 0.3198(6)
C5 C 0.0805(16) 0.2691(6) 0.2941(6)
H3 H -0.007(14) 0.205(7) 0.325(6)
C6 C -0.274(2) 0.5454(8) 0.4060(10)
H4 H -0.42(2) 0.568(10) 0.451(9)
C7 C -0.210(2) 0.4258(7) 0.3882(10)
H5 H -0.31(2) 0.367(10) 0.422(9)
C8 C 0.6781(16) 0.5316(7) 0.1023(9)
H6 H 0.772(18) 0.596(9) 0.079(8)
C9 C 0.6366(15) 0.3187(7) 0.1089(8)
H7 H 0.692(16) 0.240(8) 0.088(7)
C10 C 0.1330(9) 0.4868(4) 0.2742(4)
C11 C 0.3494(9) 0.4593(4) 0.2041(4)
O1 O 0.5762(6) 0.8242(3) 0.1222(3)
O2 O 0.3243(6) 0.7900(3) 0.3465(3)
O3 O 0.4320(7) 0.8359(3) 0.5159(3)
O4 O 0.4605(6) 0.9988(3) 0.3687(3)
O5 O 1.0339(7) 0.7842(4) 0.1262(3)
O6 O 0.8017(7) 0.9704(4) 0.2107(3)
C12 C 0.8804(8) 0.9695(5) 0.0029(4)
H8 H 0.890(10) 0.919(5) -0.056(4)
H9 H 0.746(10) 1.033(5) -0.002(4)
C13 C 0.0130(8) 0.9501(5) 0.4601(4)
H10 H -0.064(10) 0.983(5) 0.400(4)
H11 H -0.075(10) 0.882(5) 0.491(4)
C14 C 0.7598(18) 0.4130(8) 0.0709(11)
H12 H 0.90(2) 0.400(10) 0.023(9)
H13 H 0.441(13) 0.886(6) 0.545(5)
H14 H 1.045(13) 0.824(6) 0.170(5)
Co1A Co 1.68779(10) 1.26870(5) -0.20573(5)
Co1_2 Co 1.31221(10) 0.73130(5) 0.20573(5)
Co1A_2 Co 0.68779(10) 1.26870(5) -0.20573(5)
Co1A_3 Co -0.31221(10) 1.26870(5) 0.79427(5)
P1A P 1.1836(2) 1.12255(11) -0.12087(9)
P2A P -0.3222(2) 1.10673(11) 0.58373(10)
N1A N 1.9321(7) 1.3938(4) -0.2932(3)
N2A N 1.5290(8) 1.4450(4) -0.1646(4)
C1A C 1.7166(13) 1.7567(5) -0.2264(5)
H1A H 1.668(12) 1.837(6) -0.210(5)
C2A C 1.5758(11) 1.6623(5) -0.1803(5)
C3A C 2.1294(12) 1.3646(6) -0.3572(6)
H2A H 2.175(13) 1.283(7) -0.371(6)
C4A C 2.0038(14) 1.6083(5) -0.3198(6)
C5A C 1.9195(16) 1.7309(6) -0.2941(6)
H3A H 2.007(14) 1.795(7) -0.325(6)
C6A C 2.274(2) 1.4546(8) -0.4060(10)
H4A H 2.42(2) 1.432(10) -0.451(9)
C7A C 2.210(2) 1.5742(7) -0.3882(10)
H5A H 2.31(2) 1.633(10) -0.422(9)
C8A C 1.3219(16) 1.4684(7) -0.1023(9)
H6A H 1.228(18) 1.404(9) -0.079(8)
C9A C 1.3634(15) 1.6813(7) -0.1089(8)
H7A H 1.308(16) 1.760(8) -0.088(7)
C10A C 1.8670(9) 1.5132(4) -0.2742(4)
C11A C 1.6506(9) 1.5407(4) -0.2041(4)
O1A O 1.4238(6) 1.1758(3) -0.1222(3)
O2A O -0.3243(6) 1.2100(3) 0.6535(3)
O2A_2 O 1.6757(6) 1.2100(3) -0.3465(3)
O3A O -0.4320(7) 1.1641(3) 0.4841(3)
O4A O -0.4605(6) 1.0012(3) 0.6313(3)
O5A O 0.9661(7) 1.2158(4) -0.1262(3)
O5_2 O 0.0339(7) 0.7842(4) 0.1262(3)
O5A_2 O 1.9661(7) 1.2158(4) -0.1262(3)
O6A O 1.1983(7) 1.0296(4) -0.2107(3)
C12A C 1.1196(8) 1.0305(5) -0.0029(4)
H8A H 1.110(10) 1.081(5) 0.056(4)
H9A H 1.254(10) 0.967(5) 0.002(4)
C13A C -0.0130(8) 1.0499(5) 0.5399(4)
H10A H 0.064(10) 1.017(5) 0.600(4)
H11A H 0.075(10) 1.118(5) 0.509(4)
C14A C 1.2402(18) 1.5870(8) -0.0709(11)
H12A H 1.10(2) 1.600(10) -0.023(9)
H13A H -0.441(13) 1.114(6) 0.455(5)
H14A H 0.955(13) 1.176(6) -0.170(5)
H14_2 H 0.045(13) 0.824(6) 0.170(5)
H14A_2 H 1.955(13) 1.176(6) -0.170(5)
loop_
_geom_bond_atom_site_label_1
_geom_bond_atom_site_label_2
_geom_bond_site_symmetry_1
_geom_bond_site_symmetry_2
Co1 N1 1_555 1_555
P1 O1 1_555 1_555
P2 O2 1_555 1_555
N1 C3 1_555 1_555
N2 Co1 1_555 1_555
C1 H1 1_555 1_555
C2 C1 1_555 1_555
C3 H2 1_555 1_555
C4 C5 1_555 1_555
C5 C1 1_555 1_555
H3 C5 1_555 1_555
C6 C3 1_555 1_555
H4 C6 1_555 1_555
C7 C4 1_555 1_555
H5 C7 1_555 1_555
C8 N2 1_555 1_555
H6 C8 1_555 1_555
C9 C2 1_555 1_555
H7 C9 1_555 1_555
C10 N1 1_555 1_555
C11 N2 1_555 1_555
O1 Co1 1_555 1_555
O2 Co1 1_555 1_555
O3 P2 1_555 1_555
O4 P2 1_555 1_555
O5 P1 1_555 1_555
O6 P1 1_555 1_555
C12 P1 1_555 1_555
H8 C12 1_555 1_555
H9 C12 1_555 1_555
C13 P2 1_555 1_555
H10 C13 1_555 1_555
H11 C13 1_555 1_555
C14 C8 1_555 1_555
H12 C14 1_555 1_555
H13 O3 1_555 1_555
H14 O5 1_555 1_555
Co1A N1A 1_555 1_555
Co1_2 O5 1_555 1_555
Co1A_2 O5A 1_555 1_555
Co1A_3 O2A 1_555 1_555
P1A O1A 1_555 1_555
P2A O2A 1_555 1_555
N1A C3A 1_555 1_555
N2A Co1A 1_555 1_555
C1A H1A 1_555 1_555
C2A C1A 1_555 1_555
C3A H2A 1_555 1_555
C4A C5A 1_555 1_555
C5A C1A 1_555 1_555
H3A C5A 1_555 1_555
C6A C3A 1_555 1_555
H4A C6A 1_555 1_555
C7A C4A 1_555 1_555
H5A C7A 1_555 1_555
C8A N2A 1_555 1_555
H6A C8A 1_555 1_555
C9A C2A 1_555 1_555
H7A C9A 1_555 1_555
C10A N1A 1_555 1_555
C11A N2A 1_555 1_555
O1A Co1A 1_555 1_555
O2A_2 Co1A 1_555 1_555
O3A P2A 1_555 1_555
O4A P2A 1_555 1_555
O5A P1A 1_555 1_555
O5_2 Co1 1_555 1_555
O5A_2 Co1A 1_555 1_555
O6A P1A 1_555 1_555
C12A C12 1_555 1_555
H8A C12A 1_555 1_555
H9A C12A 1_555 1_555
C13A C13 1_555 1_555
H10A C13A 1_555 1_555
H11A C13A 1_555 1_555
C14A C8A 1_555 1_555
H12A C14A 1_555 1_555
H13A O3A 1_555 1_555
H14A O5A 1_555 1_555
H14_2 O5_2 1_555 1_555
H14A_2 O5A_2 1_555 1_555
C2 C11 1_555 1_555
C4 C10 1_555 1_555
C6 C7 1_555 1_555
C9 C14 1_555 1_555
C10 C11 1_555 1_555
P1A C12A 1_555 1_555
P2A C13A 1_555 1_555
C2A C11A 1_555 1_555
C4A C10A 1_555 1_555
C6A C7A 1_555 1_555
C9A C14A 1_555 1_555
C10A C11A 1_555 1_555

#END
