
#######################################################################
#
#                 Cambridge Crystallographic Data Centre
#                                CCDC 
#
#######################################################################
#
# If this CIF has been generated from an entry in the Cambridge 
# Structural Database, then it will include bibliographic, chemical, 
# crystal, experimental, refinement or atomic coordinate data resulting 
# from the CCDC's data processing and validation procedures.
#
#######################################################################

data_PIJHEW
_symmetry_cell_setting           monoclinic
_symmetry_space_group_name_H-M   'P 21/n'
_symmetry_Int_Tables_number      14
_space_group_name_Hall           '-P 2yn'
loop_
_symmetry_equiv_pos_site_id
_symmetry_equiv_pos_as_xyz
1 x,y,z
2 1/2-x,1/2+y,1/2-z
3 -x,-y,-z
4 1/2+x,1/2-y,1/2+z
_cell_length_a                   8.6712(2)
_cell_length_b                   7.7620(2)
_cell_length_c                   10.2841(3)
_cell_angle_alpha                90
_cell_angle_beta                 109.6903(10)
_cell_angle_gamma                90
_cell_volume                     651.707
loop_
_atom_site_label
_atom_site_type_symbol
_atom_site_fract_x
_atom_site_fract_y
_atom_site_fract_z
Sr1 Sr 0.0000 0.0000 0.0000
O1 O 0.13801(18) 0.3162(2) 0.03487(16)
O2 O -0.12746(19) 0.2518(2) 0.09628(16)
O3 O 0.1765(2) 0.4894(2) 0.37545(17)
O4 O 0.0717(2) -0.1237(2) 0.25030(18)
O5 O -0.1904(2) -0.1008(2) 0.18936(19)
O6 O -0.0572(2) -0.2413(2) 0.3753(2)
N1 N -0.0617(2) -0.1542(2) 0.2715(2)
C1 C 0.0558(3) 0.4617(3) 0.0680(2)
H1 H 0.1372 0.5478 0.1172
C2 C -0.0369(3) 0.4010(3) 0.1609(2)
H2 H -0.1124 0.4913 0.1685
C3 C 0.0762(3) 0.3496(3) 0.3045(2)
H3 H 0.0107 0.3090 0.3583
H4 H 0.1458 0.2554 0.2962
H5 H 0.2326(19) 0.318(3) 0.080(3)
H6 H -0.212(2) 0.246(3) 0.114(3)
H7 H 0.120(3) 0.564(2) 0.390(3)
Sr1C Sr 0.5000 0.5000 0.5000
Sr1_2 Sr 0.0000 1.0000 0.0000
Sr1C_2 Sr -0.5000 0.5000 -0.5000
O1B O -0.13801(18) 0.6838(2) -0.03487(16)
O1B_2 O -0.13801(18) -0.3162(2) -0.03487(16)
O2B O 0.12746(19) 0.7482(2) -0.09628(16)
O2B_2 O 0.12746(19) -0.2518(2) -0.09628(16)
O3B O -0.1765(2) 0.5106(2) -0.37545(17)
O3C O -0.3235(2) 0.0106(2) -0.12455(17)
O3A O 0.3235(2) -0.0106(2) 0.12455(17)
O4B O -0.0717(2) 0.1237(2) -0.25030(18)
O5B O 0.1904(2) 0.1008(2) -0.18936(19)
O6B O 0.0572(2) 0.2413(2) -0.3753(2)
N1B N 0.0617(2) 0.1542(2) -0.2715(2)
C1B C -0.0558(3) 0.5383(3) -0.0680(2)
H1B H -0.1372 0.4522 -0.1172
C2B C 0.0369(3) 0.5990(3) -0.1609(2)
H2B H 0.1124 0.5087 -0.1685
C3B C -0.0762(3) 0.6504(3) -0.3045(2)
H3B H -0.0107 0.6910 -0.3583
H4B H -0.1458 0.7446 -0.2962
H5B H -0.2326(19) 0.682(3) -0.080(3)
H5B_2 H -0.2326(19) -0.318(3) -0.080(3)
H6B H 0.212(2) 0.754(3) -0.114(3)
H6B_2 H 0.212(2) -0.246(3) -0.114(3)
H7B H -0.120(3) 0.436(2) -0.390(3)
H7C H -0.380(3) -0.064(2) -0.110(3)
H7A H 0.380(3) 0.064(2) 0.110(3)
loop_
_geom_bond_atom_site_label_1
_geom_bond_atom_site_label_2
_geom_bond_site_symmetry_1
_geom_bond_site_symmetry_2
Sr1 O1 1_555 1_555
O1 C1 1_555 1_555
O2 Sr1 1_555 1_555
O3 C3 1_555 1_555
O4 Sr1 1_555 1_555
O5 Sr1 1_555 1_555
O6 N1 1_555 1_555
N1 O4 1_555 1_555
C1 H1 1_555 1_555
C2 O2 1_555 1_555
H2 C2 1_555 1_555
C3 C2 1_555 1_555
H3 C3 1_555 1_555
H4 C3 1_555 1_555
H5 O1 1_555 1_555
H6 O2 1_555 1_555
H7 O3 1_555 1_555
Sr1C O3 1_555 1_555
Sr1_2 O1B 1_555 1_555
Sr1C_2 O3B 1_555 1_555
O1B C1B 1_555 1_555
O1B_2 Sr1 1_555 1_555
O2B Sr1_2 1_555 1_555
O2B_2 Sr1 1_555 1_555
O3B C3B 1_555 1_555
O3C Sr1 1_555 1_555
O3A Sr1 1_555 1_555
O4B Sr1 1_555 1_555
O5B Sr1 1_555 1_555
O6B N1B 1_555 1_555
N1B O4B 1_555 1_555
C1B C1 1_555 1_555
H1B C1B 1_555 1_555
C2B O2B 1_555 1_555
H2B C2B 1_555 1_555
C3B C2B 1_555 1_555
H3B C3B 1_555 1_555
H4B C3B 1_555 1_555
H5B O1B 1_555 1_555
H5B_2 O1B_2 1_555 1_555
H6B O2B 1_555 1_555
H6B_2 O2B_2 1_555 1_555
H7B O3B 1_555 1_555
H7C O3C 1_555 1_555
H7A O3A 1_555 1_555
O5 N1 1_555 1_555
C1 C2 1_555 1_555
O5B N1B 1_555 1_555
C1B C2B 1_555 1_555

#END
