
#######################################################################
#
#                 Cambridge Crystallographic Data Centre
#                                CCDC 
#
#######################################################################
#
# If this CIF has been generated from an entry in the Cambridge 
# Structural Database, then it will include bibliographic, chemical, 
# crystal, experimental, refinement or atomic coordinate data resulting 
# from the CCDC's data processing and validation procedures.
#
#######################################################################

data_PIJHAS
_symmetry_cell_setting           monoclinic
_symmetry_space_group_name_H-M   'P 21/c'
_symmetry_Int_Tables_number      14
_space_group_name_Hall           '-P 2ybc'
loop_
_symmetry_equiv_pos_site_id
_symmetry_equiv_pos_as_xyz
1 x,y,z
2 -x,1/2+y,1/2-z
3 -x,-y,-z
4 x,1/2-y,1/2+z
_cell_length_a                   7.2451(14)
_cell_length_b                   17.063(3)
_cell_length_c                   8.0827(16)
_cell_angle_alpha                90
_cell_angle_beta                 107.97(3)
_cell_angle_gamma                90
_cell_volume                     950.466
loop_
_atom_site_label
_atom_site_type_symbol
_atom_site_fract_x
_atom_site_fract_y
_atom_site_fract_z
Ca1 Ca 0.16648(4) 0.409984(16) 0.19634(4)
O1 O -0.10464(14) 0.39585(7) 0.30173(14)
O2 O -0.61223(14) 0.36094(6) 0.04539(14)
O3 O -0.56690(15) 0.49538(6) 0.20036(13)
O4 O 0.00807(19) 0.29370(7) 0.05476(19)
O5 O 0.12534(17) 0.54054(6) 0.38935(13)
O6 O 0.01706(15) 0.55166(6) 0.11337(12)
O7 O 0.0111(2) 0.65191(7) 0.27570(16)
O8 O 0.35687(17) 0.41486(6) 0.51702(14)
O9 O 0.31990(17) 0.29819(6) 0.41207(14)
O10 O 0.4946(2) 0.31752(8) 0.67819(17)
N1 N 0.05100(17) 0.58279(7) 0.26078(15)
N2 N 0.39260(19) 0.34237(7) 0.53990(16)
C1 C -0.2918(2) 0.35918(8) 0.24960(19)
H1 H -0.3526 0.3662 0.3400
H2 H -0.2768 0.3034 0.2347
C2 C -0.42097(19) 0.39388(8) 0.08056(18)
H3 H -0.3687 0.3813 -0.0146
C3 C -0.44862(19) 0.48217(8) 0.08922(17)
H4 H -0.3222 0.5075 0.1392
H5 H -0.093(3) 0.4182(10) 0.389(2)
H6 H -0.617(3) 0.3210(10) 0.011(3)
H7 H -0.512(2) 0.5228(10) 0.273(2)
H8 H 0.005(3) 0.2501(12) 0.088(3)
H9 H 0.001(3) 0.2905(13) -0.040(3)
Ca1B Ca -1.16648(4) 0.590016(16) -0.19634(4)
Ca1_2 Ca -0.83352(4) 0.409984(16) 0.19634(4)
Ca1B_2 Ca -0.16648(4) 0.590016(16) -0.19634(4)
O1B O -0.89536(14) 0.60415(7) -0.30173(14)
O2B O -0.38777(14) 0.63906(6) -0.04539(14)
O2_2 O 0.38777(14) 0.36094(6) 0.04539(14)
O2B_2 O -1.38777(14) 0.63906(6) -0.04539(14)
O3B O -0.43310(15) 0.50462(6) -0.20036(13)
O3_2 O 0.43310(15) 0.49538(6) 0.20036(13)
O3B_2 O -1.43310(15) 0.50462(6) -0.20036(13)
O4B O -1.00807(19) 0.70630(7) -0.05476(19)
O5B O -0.12534(17) 0.45946(6) -0.38935(13)
O5B_2 O -1.12534(17) 0.45946(6) -0.38935(13)
O6B O -0.01706(15) 0.44834(6) -0.11337(12)
O6_2 O -0.98294(15) 0.55166(6) 0.11337(12)
O6B_2 O -1.01706(15) 0.44834(6) -0.11337(12)
O7B O -0.0111(2) 0.34809(7) -0.27570(16)
O8B O -1.35687(17) 0.58514(6) -0.51702(14)
O9B O -1.31990(17) 0.70181(6) -0.41207(14)
O10B O -1.4946(2) 0.68248(8) -0.67819(17)
N1B N -0.05100(17) 0.41721(7) -0.26078(15)
N2B N -1.39260(19) 0.65763(7) -0.53990(16)
C1B C -0.7082(2) 0.64082(8) -0.24960(19)
H1B H -0.6474 0.6338 -0.3400
H2B H -0.7232 0.6966 -0.2347
C2B C -0.57903(19) 0.60612(8) -0.08056(18)
H3B H -0.6313 0.6187 0.0146
C3B C -0.55138(19) 0.51783(8) -0.08922(17)
H4B H -0.6778 0.4925 -0.1392
H5B H -0.907(3) 0.5818(10) -0.389(2)
H6B H -0.383(3) 0.6790(10) -0.011(3)
H6_2 H 0.383(3) 0.3210(10) 0.011(3)
H6B_2 H -1.383(3) 0.6790(10) -0.011(3)
H7B H -0.488(2) 0.4772(10) -0.273(2)
H7_2 H 0.488(2) 0.5228(10) 0.273(2)
H7B_2 H -1.488(2) 0.4772(10) -0.273(2)
H8B H -1.005(3) 0.7499(12) -0.088(3)
H9B H -1.001(3) 0.7095(13) 0.040(3)
loop_
_geom_bond_atom_site_label_1
_geom_bond_atom_site_label_2
_geom_bond_site_symmetry_1
_geom_bond_site_symmetry_2
Ca1 O1 1_555 1_555
O1 C1 1_555 1_555
O2 C2 1_555 1_555
O3 C3 1_555 1_555
O4 Ca1 1_555 1_555
O5 Ca1 1_555 1_555
O6 Ca1 1_555 1_555
O7 N1 1_555 1_555
O8 Ca1 1_555 1_555
O9 Ca1 1_555 1_555
O10 N2 1_555 1_555
N1 O5 1_555 1_555
N2 O8 1_555 1_555
C1 H1 1_555 1_555
H2 C1 1_555 1_555
C2 C1 1_555 1_555
H3 C2 1_555 1_555
C3 C2 1_555 1_555
H4 C3 1_555 1_555
H5 O1 1_555 1_555
H6 O2 1_555 1_555
H7 O3 1_555 1_555
H8 O4 1_555 1_555
H9 O4 1_555 1_555
Ca1B O1B 1_555 1_555
Ca1_2 O2 1_555 1_555
Ca1B_2 O6 1_555 1_555
O1B C1B 1_555 1_555
O2B Ca1B_2 1_555 1_555
O2_2 Ca1 1_555 1_555
O2B_2 Ca1B 1_555 1_555
O3B Ca1B_2 1_555 1_555
O3_2 Ca1 1_555 1_555
O3B_2 Ca1B 1_555 1_555
O4B Ca1B 1_555 1_555
O5B Ca1B_2 1_555 1_555
O5B_2 Ca1B 1_555 1_555
O6B Ca1 1_555 1_555
O6_2 Ca1B 1_555 1_555
O6B_2 Ca1B 1_555 1_555
O7B N1B 1_555 1_555
O8B Ca1B 1_555 1_555
O9B Ca1B 1_555 1_555
O10B N2B 1_555 1_555
N1B O5B 1_555 1_555
N2B O8B 1_555 1_555
C1B H1B 1_555 1_555
H2B C1B 1_555 1_555
C2B O2B 1_555 1_555
H3B C2B 1_555 1_555
C3B C3 1_555 1_555
H4B C3B 1_555 1_555
H5B O1B 1_555 1_555
H6B O2B 1_555 1_555
H6_2 O2_2 1_555 1_555
H6B_2 O2B_2 1_555 1_555
H7B O3B 1_555 1_555
H7_2 O3_2 1_555 1_555
H7B_2 O3B_2 1_555 1_555
H8B O4B 1_555 1_555
H9B O4B 1_555 1_555
O3 Ca1_2 1_555 1_555
O6 N1 1_555 1_555
O9 N2 1_555 1_555
Ca1_2 O6_2 1_555 1_555
Ca1_2 O6B_2 1_555 1_555
Ca1B_2 O6B 1_555 1_555
O3B C3B 1_555 1_555
O6B N1B 1_555 1_555
O9B N2B 1_555 1_555
C1B C2B 1_555 1_555
C2B C3B 1_555 1_555

#END
