
#######################################################################
#
#                 Cambridge Crystallographic Data Centre
#                                CCDC 
#
#######################################################################
#
# If this CIF has been generated from an entry in the Cambridge 
# Structural Database, then it will include bibliographic, chemical, 
# crystal, experimental, refinement or atomic coordinate data resulting 
# from the CCDC's data processing and validation procedures.
#
#######################################################################

data_PIJJIC
_symmetry_cell_setting           monoclinic
_symmetry_space_group_name_H-M   'C 2/c'
_symmetry_Int_Tables_number      15
_space_group_name_Hall           '-C 2yn'
loop_
_symmetry_equiv_pos_site_id
_symmetry_equiv_pos_as_xyz
1 x,y,z
2 1/2+x,1/2+y,z
3 -x,y,1/2-z
4 1/2-x,1/2+y,1/2-z
5 -x,-y,-z
6 1/2-x,1/2-y,-z
7 x,-y,1/2+z
8 1/2+x,1/2-y,1/2+z
_cell_length_a                   20.43310(10)
_cell_length_b                   11.7979(2)
_cell_length_c                   23.9485(3)
_cell_angle_alpha                90
_cell_angle_beta                 112.7230(10)
_cell_angle_gamma                90
_cell_volume                     5325.11
loop_
_atom_site_label
_atom_site_type_symbol
_atom_site_fract_x
_atom_site_fract_y
_atom_site_fract_z
Cd1 Cd 0.0000 0.05389(3) 0.2500
Cd2 Cd 0.067117(16) -0.08946(3) 0.046723(14)
P1 P -0.00750(6) 0.13001(10) 0.10981(5)
S1 S 0.24153(8) 0.37622(16) 0.19974(7)
N1 N 0.1672(2) 0.0088(4) 0.04788(18)
N2 N 0.47441(19) 0.2999(3) 0.05464(17)
N3 N 0.0000 0.2520(4) 0.2500
N4 N 0.0000 0.8538(4) 0.2500
C1 C 0.0386(2) 0.2652(4) 0.12377(19)
C2 C 0.1119(2) 0.2691(4) 0.1533(2)
H1 H 0.1372 0.2023 0.1672
C3 C 0.1478(3) 0.3712(5) 0.1621(2)
C4 C 0.1110(3) 0.4715(5) 0.1419(3)
H2 H 0.1353 0.5399 0.1474
C5 C 0.0379(3) 0.4691(5) 0.1136(3)
H3 H 0.0128 0.5361 0.1003
C6 C 0.0020(3) 0.3666(4) 0.1050(2)
H4 H -0.0473 0.3658 0.0865
C7 C 0.2113(3) 0.0629(6) 0.0976(3)
H5 H 0.2001 0.0626 0.1318
C8 C 0.2718(3) 0.1183(6) 0.1012(3)
H6 H 0.3001 0.1546 0.1369
C9 C 0.2904(2) 0.1199(4) 0.0514(2)
C10 C 0.3555(2) 0.1804(4) 0.0532(2)
C11 C 0.3854(3) 0.2658(4) 0.0941(2)
H7 H 0.3660 0.2852 0.1222
C12 C 0.4442(3) 0.3228(4) 0.0937(2)
H8 H 0.4636 0.3801 0.1220
C13 C 0.4462(3) 0.2155(5) 0.0159(3)
H9 H 0.4673 0.1961 -0.0109
C14 C 0.3875(3) 0.1556(5) 0.0133(3)
H10 H 0.3694 0.0983 -0.0152
C15 C 0.2478(3) 0.0609(5) 0.0016(2)
H11 H 0.2592 0.0563 -0.0324
C16 C 0.1874(3) 0.0080(5) 0.0018(2)
H12 H 0.1591 -0.0309 -0.0329
C17 C 0.0607(3) 0.3115(4) 0.2713(2)
H13 H 0.1034 0.2720 0.2863
C18 C 0.0629(3) 0.4283(4) 0.2721(2)
H14 H 0.1063 0.4656 0.2874
C19 C 0.0000 0.4906(5) 0.2500
C20 C 0.0000 0.6163(5) 0.2500
C21 C 0.0563(3) 0.6779(4) 0.2462(2)
H15 H 0.0949 0.6403 0.2434
C22 C 0.0546(3) 0.7942(4) 0.2464(2)
H16 H 0.0928 0.8337 0.2441
O1 O 0.00241(16) 0.0744(3) 0.05509(13)
O2 O 0.02903(15) 0.0578(3) 0.16661(13)
O3 O -0.08438(15) 0.1538(3) 0.09743(14)
O4 O 0.2659(2) 0.2618(4) 0.2176(2)
O5 O 0.2560(3) 0.4507(5) 0.2498(3)
O6 O 0.2675(3) 0.4167(7) 0.1546(3)
O7 O 0.11704(18) -0.0882(3) 0.15133(15)
O8 O 0.1266(2) -0.2606(4) 0.0510(2)
O9 O -0.11826(19) 0.0546(3) 0.18225(17)
Cd1_2 Cd 0.0000 1.05389(3) 0.2500
Cd2B Cd -0.067117(16) -0.08946(3) 0.453277(14)
Cd2A Cd 0.567117(16) 0.41054(3) 0.046723(14)
Cd2D Cd -0.067117(16) 0.08946(3) -0.046723(14)
Cd2F Cd 0.067117(16) 0.08946(3) 0.546723(14)
Cd2A_2 Cd -0.432883(16) -0.58946(3) 0.046723(14)
P1B P 0.00750(6) 0.13001(10) 0.39019(5)
S1B S -0.24153(8) 0.37622(16) 0.30026(7)
N1A N -0.3328(2) -0.4912(4) 0.04788(18)
N1B N -0.1672(2) 0.0088(4) 0.45212(18)
N2A N -0.02559(19) -0.2001(3) 0.05464(17)
N2C N 0.02559(19) -0.2001(3) 0.44536(17)
N4_2 N 0.0000 -0.1462(4) 0.2500
C1B C -0.0386(2) 0.2652(4) 0.37623(19)
C2B C -0.1119(2) 0.2691(4) 0.3467(2)
H1B H -0.1372 0.2023 0.3328
C3B C -0.1478(3) 0.3712(5) 0.3379(2)
C4B C -0.1110(3) 0.4715(5) 0.3581(3)
H2B H -0.1353 0.5399 0.3526
C5B C -0.0379(3) 0.4691(5) 0.3864(3)
H3B H -0.0128 0.5361 0.3997
C6B C -0.0020(3) 0.3666(4) 0.3950(2)
H4B H 0.0473 0.3658 0.4135
C7A C -0.2887(3) -0.4371(6) 0.0976(3)
H5A H -0.2999 -0.4374 0.1318
C8A C -0.2282(3) -0.3817(6) 0.1012(3)
H6A H -0.1999 -0.3454 0.1369
C9A C -0.2096(2) -0.3801(4) 0.0514(2)
C10A C -0.1445(2) -0.3196(4) 0.0532(2)
C11A C -0.1146(3) -0.2342(4) 0.0941(2)
H7A H -0.1340 -0.2148 0.1222
C12A C -0.0558(3) -0.1772(4) 0.0937(2)
H8A H -0.0364 -0.1199 0.1220
C13A C -0.0538(3) -0.2845(5) 0.0159(3)
H9A H -0.0327 -0.3039 -0.0109
C14A C -0.1125(3) -0.3444(5) 0.0133(3)
H10A H -0.1306 -0.4017 -0.0152
C15A C -0.2522(3) -0.4391(5) 0.0016(2)
H11A H -0.2408 -0.4437 -0.0324
C16A C -0.3126(3) -0.4920(5) 0.0018(2)
H12A H -0.3409 -0.5309 -0.0329
C17B C -0.0607(3) 0.3115(4) 0.2287(2)
H13B H -0.1034 0.2720 0.2137
C18B C -0.0629(3) 0.4283(4) 0.2279(2)
H14B H -0.1063 0.4656 0.2126
C21B C -0.0563(3) 0.6779(4) 0.2538(2)
H15B H -0.0949 0.6403 0.2566
C22B C -0.0546(3) 0.7942(4) 0.2536(2)
H16B H -0.0928 0.8337 0.2559
O1B O -0.00241(16) 0.0744(3) 0.44491(13)
O1D O -0.00241(16) -0.0744(3) -0.05509(13)
O1F O 0.00241(16) -0.0744(3) 0.55509(13)
O2B O -0.02903(15) 0.0578(3) 0.33339(13)
O3B O 0.08438(15) 0.1538(3) 0.40257(14)
O4B O -0.2659(2) 0.2618(4) 0.2824(2)
O5B O -0.2560(3) 0.4507(5) 0.2502(3)
O6B O -0.2675(3) 0.4167(7) 0.3454(3)
O7B O -0.11704(18) -0.0882(3) 0.34867(15)
O8B O -0.1266(2) -0.2606(4) 0.4490(2)
O9B O 0.11826(19) 0.0546(3) 0.31775(17)
O10 O 0.2375(3) -0.2962(5) 0.1649(3)
O11 O 0.1833(4) -0.2997(7) -0.0350(4)
loop_
_geom_bond_atom_site_label_1
_geom_bond_atom_site_label_2
_geom_bond_site_symmetry_1
_geom_bond_site_symmetry_2
Cd1 N3 1_555 1_555
Cd2 N1 1_555 1_555
P1 C1 1_555 1_555
S1 C3 1_555 1_555
N1 C7 1_555 1_555
N2 C12 1_555 1_555
N3 C17 1_555 1_555
N4 C22 1_555 1_555
C1 C2 1_555 1_555
C2 H1 1_555 1_555
C3 C2 1_555 1_555
C4 C3 1_555 1_555
H2 C4 1_555 1_555
C5 C4 1_555 1_555
H3 C5 1_555 1_555
C6 C1 1_555 1_555
H4 C6 1_555 1_555
C7 H5 1_555 1_555
C8 C7 1_555 1_555
H6 C8 1_555 1_555
C9 C8 1_555 1_555
C10 C9 1_555 1_555
C11 C10 1_555 1_555
H7 C11 1_555 1_555
C12 C11 1_555 1_555
H8 C12 1_555 1_555
C13 N2 1_555 1_555
H9 C13 1_555 1_555
C14 C10 1_555 1_555
H10 C14 1_555 1_555
C15 C9 1_555 1_555
H11 C15 1_555 1_555
C16 N1 1_555 1_555
H12 C16 1_555 1_555
C17 H13 1_555 1_555
C18 C17 1_555 1_555
H14 C18 1_555 1_555
C19 C18 1_555 1_555
C20 C19 1_555 1_555
C21 C20 1_555 1_555
H15 C21 1_555 1_555
C22 C21 1_555 1_555
H16 C22 1_555 1_555
O1 Cd2 1_555 1_555
O2 Cd1 1_555 1_555
O3 P1 1_555 1_555
O4 S1 1_555 1_555
O5 S1 1_555 1_555
O6 S1 1_555 1_555
O7 Cd2 1_555 1_555
O8 Cd2 1_555 1_555
O9 Cd1 1_555 1_555
Cd1_2 N4 1_555 1_555
Cd2B N1B 1_555 1_555
Cd2A N2 1_555 1_555
Cd2D O1 1_555 1_555
Cd2F O1B 1_555 1_555
Cd2A_2 N1A 1_555 1_555
P1B C1B 1_555 1_555
S1B C3B 1_555 1_555
N1A C7A 1_555 1_555
N2A Cd2 1_555 1_555
N2C Cd2B 1_555 1_555
N4_2 Cd1 1_555 1_555
C1B C2B 1_555 1_555
C2B H1B 1_555 1_555
C3B C2B 1_555 1_555
C4B C3B 1_555 1_555
H2B C4B 1_555 1_555
C5B C4B 1_555 1_555
H3B C5B 1_555 1_555
C6B C1B 1_555 1_555
H4B C6B 1_555 1_555
C7A H5A 1_555 1_555
C8A C7A 1_555 1_555
H6A C8A 1_555 1_555
C9A C8A 1_555 1_555
C10A C9A 1_555 1_555
C11A C10A 1_555 1_555
H7A C11A 1_555 1_555
C12A N2A 1_555 1_555
H8A C12A 1_555 1_555
C13A N2A 1_555 1_555
H9A C13A 1_555 1_555
C14A C10A 1_555 1_555
H10A C14A 1_555 1_555
C15A C9A 1_555 1_555
H11A C15A 1_555 1_555
C16A N1A 1_555 1_555
H12A C16A 1_555 1_555
C17B N3 1_555 1_555
H13B C17B 1_555 1_555
C18B C19 1_555 1_555
H14B C18B 1_555 1_555
C21B C20 1_555 1_555
H15B C21B 1_555 1_555
C22B N4 1_555 1_555
H16B C22B 1_555 1_555
O1B Cd2B 1_555 1_555
O1D Cd2 1_555 1_555
O1F Cd2B 1_555 1_555
O2B Cd1 1_555 1_555
O3B P1B 1_555 1_555
O4B S1B 1_555 1_555
O5B S1B 1_555 1_555
O6B S1B 1_555 1_555
O7B Cd2B 1_555 1_555
O8B Cd2B 1_555 1_555
O9B Cd1 1_555 1_555
P1 O1 1_555 1_555
P1 O2 1_555 1_555
C5 C6 1_555 1_555
C13 C14 1_555 1_555
C15 C16 1_555 1_555
Cd2D O1D 1_555 1_555
Cd2F O1F 1_555 1_555
P1B O1B 1_555 1_555
P1B O2B 1_555 1_555
C5B C6B 1_555 1_555
C11A C12A 1_555 1_555
C13A C14A 1_555 1_555
C15A C16A 1_555 1_555
C17B C18B 1_555 1_555
C21B C22B 1_555 1_555

#END
