
#######################################################################
#
#                 Cambridge Crystallographic Data Centre
#                                CCDC 
#
#######################################################################
#
# If this CIF has been generated from an entry in the Cambridge 
# Structural Database, then it will include bibliographic, chemical, 
# crystal, experimental, refinement or atomic coordinate data resulting 
# from the CCDC's data processing and validation procedures.
#
#######################################################################

data_PIJJOI
_symmetry_cell_setting           orthorhombic
_symmetry_space_group_name_H-M   'P b c n'
_symmetry_Int_Tables_number      60
_space_group_name_Hall           '-P 2n 2ab'
loop_
_symmetry_equiv_pos_site_id
_symmetry_equiv_pos_as_xyz
1 x,y,z
2 1/2-x,1/2-y,1/2+z
3 -x,y,1/2-z
4 1/2+x,1/2-y,-z
5 -x,-y,-z
6 1/2+x,1/2+y,1/2-z
7 x,-y,1/2+z
8 1/2-x,1/2+y,z
_cell_length_a                   16.2045(13)
_cell_length_b                   17.6022(14)
_cell_length_c                   17.9025(14)
_cell_angle_alpha                90
_cell_angle_beta                 90
_cell_angle_gamma                90
_cell_volume                     5106.42
loop_
_atom_site_label
_atom_site_type_symbol
_atom_site_fract_x
_atom_site_fract_y
_atom_site_fract_z
Zn1 Zn 0.725215(15) 0.100829(14) 0.382966(13)
O1 O 0.82720(10) 0.15365(10) 0.40801(10)
O2 O 0.90519(13) 0.04915(11) 0.39826(11)
O3 O 1.12783(11) 0.33979(11) 0.60507(10)
O4 O 1.17437(12) 0.23121(12) 0.65174(13)
N1 N 0.71380(13) 0.02604(11) 0.46757(10)
N2 N 0.71873(12) -0.05056(11) 0.46251(10)
H1 H 0.7133 -0.0756 0.4215
N3 N 0.74398(12) -0.05779(11) 0.78251(10)
N4 N 0.81522(13) -0.02011(12) 0.77054(10)
H2 H 0.8500 -0.0086 0.8050
C1 C 0.7245(2) 0.12243(17) 0.56821(16)
H4 H 0.7748 0.1478 0.5547
H5 H 0.6785 0.1487 0.5465
H6 H 0.7190 0.1221 0.6216
C2 C 0.72650(16) 0.04260(14) 0.54002(13)
C3 C 0.73887(15) -0.02432(14) 0.58059(12)
C4 C 0.73304(14) -0.08266(14) 0.52911(13)
C5 C 0.7397(2) -0.16651(16) 0.53763(16)
H7 H 0.7384 -0.1900 0.4892
H8 H 0.7907 -0.1788 0.5621
H9 H 0.6943 -0.1848 0.5670
C6 C 0.9005(2) 0.0366(2) 0.66964(18)
H10 H 0.9040 0.0864 0.6913
H11 H 0.9486 0.0078 0.6830
H12 H 0.8973 0.0410 0.6163
C7 C 0.82508(16) -0.00280(16) 0.69822(13)
C8 C 0.75635(15) -0.03053(13) 0.66098(12)
C9 C 0.70728(14) -0.06443(13) 0.71586(12)
C10 C 0.62780(16) -0.10620(16) 0.70789(15)
H13 H 0.5907 -0.0910 0.7470
H14 H 0.6037 -0.0947 0.6603
H15 H 0.6378 -0.1598 0.7113
C11 C 0.89248(15) 0.11478(14) 0.42043(14)
C12 C 0.95546(14) 0.15456(13) 0.46828(13)
C13 C 0.95433(16) 0.23270(15) 0.47474(15)
H16 H 0.9160 0.2610 0.4479
C14 C 1.01012(16) 0.26894(14) 0.52117(15)
H17 H 1.0103 0.3217 0.5239
C15 C 1.06669(15) 0.14962(14) 0.55675(16)
H18 H 1.1040 0.1212 0.5847
C16 C 1.01277(16) 0.11331(14) 0.50875(16)
H19 H 1.0150 0.0608 0.5036
C17 C 1.12772(15) 0.26801(15) 0.61183(14)
C18 C 1.06564(14) 0.22763(13) 0.56351(14)
Zn1C Zn 1.225215(15) 0.399171(14) 0.617034(13)
Zn1F Zn 0.725215(15) -0.100829(14) 0.882966(13)
O3C O 0.62783(11) 0.16021(11) 0.39493(10)
N3F N 0.74398(12) 0.05779(11) 0.28251(10)
N5 N 0.66645(13) 0.81046(12) 0.30424(12)
H3 H 0.7139 0.7888 0.3075
N6 N 0.64479(13) 0.87291(12) 0.34348(12)
C19 C 0.6144(2) 0.71725(18) 0.21184(19)
H20 H 0.6719 0.7077 0.2029
H21 H 0.5867 0.7253 0.1651
H22 H 0.5903 0.6744 0.2368
C20 C 0.60537(15) 0.78612(14) 0.25954(14)
C21 C 0.54050(14) 0.83568(13) 0.26905(13)
C22 C 0.56819(16) 0.88826(13) 0.32252(15)
C23 C 0.5207(2) 0.95221(18) 0.3572(2)
H23 H 0.5267 0.9503 0.4105
H24 H 0.4634 0.9476 0.3443
H25 H 0.5416 0.9998 0.3390
N5B N 0.33355(13) 0.81046(12) 0.19576(12)
H3B H 0.2861 0.7888 0.1925
N6B N 0.35521(13) 0.87291(12) 0.15652(12)
C19B C 0.3856(2) 0.71725(18) 0.28816(19)
H20B H 0.3281 0.7077 0.2971
H21B H 0.4133 0.7253 0.3349
H22B H 0.4097 0.6744 0.2632
C20B C 0.39463(15) 0.78612(14) 0.24046(14)
C21B C 0.45950(14) 0.83568(13) 0.23095(13)
C22B C 0.43181(16) 0.88826(13) 0.17748(15)
C23B C 0.4793(2) 0.95221(18) 0.1428(2)
H23B H 0.4733 0.9503 0.0895
H24B H 0.5366 0.9476 0.1557
H25B H 0.4584 0.9998 0.1610
loop_
_geom_bond_atom_site_label_1
_geom_bond_atom_site_label_2
_geom_bond_site_symmetry_1
_geom_bond_site_symmetry_2
Zn1 O1 1_555 1_555
O1 C11 1_555 1_555
O2 C11 1_555 1_555
O3 C17 1_555 1_555
O4 C17 1_555 1_555
N1 Zn1 1_555 1_555
N2 N1 1_555 1_555
H1 N2 1_555 1_555
N3 N4 1_555 1_555
N4 H2 1_555 1_555
N5 H3 1_555 1_555
N6 N5 1_555 1_555
C1 H4 1_555 1_555
H5 C1 1_555 1_555
H6 C1 1_555 1_555
C2 N1 1_555 1_555
C3 C2 1_555 1_555
C4 N2 1_555 1_555
C5 C4 1_555 1_555
H7 C5 1_555 1_555
H8 C5 1_555 1_555
H9 C5 1_555 1_555
C6 H10 1_555 1_555
H11 C6 1_555 1_555
H12 C6 1_555 1_555
C7 N4 1_555 1_555
C8 C3 1_555 1_555
C9 N3 1_555 1_555
C10 C9 1_555 1_555
H13 C10 1_555 1_555
H14 C10 1_555 1_555
H15 C10 1_555 1_555
C11 C12 1_555 1_555
C12 C13 1_555 1_555
C13 H16 1_555 1_555
C14 C13 1_555 1_555
H17 C14 1_555 1_555
C15 H18 1_555 1_555
C16 C12 1_555 1_555
H19 C16 1_555 1_555
C17 C18 1_555 1_555
C18 C14 1_555 1_555
C19 H20 1_555 1_555
H21 C19 1_555 1_555
H22 C19 1_555 1_555
C20 N5 1_555 1_555
C21 C20 1_555 1_555
C22 N6 1_555 1_555
C23 C22 1_555 1_555
H23 C23 1_555 1_555
H24 C23 1_555 1_555
H25 C23 1_555 1_555
Zn1C O3 1_555 1_555
Zn1F N3 1_555 1_555
O3C Zn1 1_555 1_555
N3F Zn1 1_555 1_555
N5B H3B 1_555 1_555
N6B N5B 1_555 1_555
C19B H20B 1_555 1_555
H21B C19B 1_555 1_555
H22B C19B 1_555 1_555
C20B N5B 1_555 1_555
C21B C21 1_555 1_555
C22B N6B 1_555 1_555
C23B C22B 1_555 1_555
H23B C23B 1_555 1_555
H24B C23B 1_555 1_555
H25B C23B 1_555 1_555
C1 C2 1_555 1_555
C3 C4 1_555 1_555
C6 C7 1_555 1_555
C7 C8 1_555 1_555
C8 C9 1_555 1_555
C15 C16 1_555 1_555
C15 C18 1_555 1_555
C19 C20 1_555 1_555
C21 C22 1_555 1_555
C19B C20B 1_555 1_555
C20B C21B 1_555 1_555
C21B C22B 1_555 1_555

#END
