
#######################################################################
#
#                 Cambridge Crystallographic Data Centre
#                                CCDC 
#
#######################################################################
#
# If this CIF has been generated from an entry in the Cambridge 
# Structural Database, then it will include bibliographic, chemical, 
# crystal, experimental, refinement or atomic coordinate data resulting 
# from the CCDC's data processing and validation procedures.
#
#######################################################################

data_PIJSOQ
_symmetry_cell_setting           orthorhombic
_symmetry_space_group_name_H-M   'C m c m'
_symmetry_Int_Tables_number      63
_space_group_name_Hall           '-C 2n 2'
loop_
_symmetry_equiv_pos_site_id
_symmetry_equiv_pos_as_xyz
1 x,y,z
2 -x,-y,1/2+z
3 x,-y,-z
4 -x,y,1/2-z
5 1/2+x,1/2+y,z
6 1/2-x,1/2-y,1/2+z
7 1/2+x,1/2-y,-z
8 1/2-x,1/2+y,1/2-z
9 -x,-y,-z
10 x,y,1/2-z
11 -x,y,z
12 x,-y,1/2+z
13 1/2-x,1/2-y,-z
14 1/2+x,1/2+y,1/2-z
15 1/2-x,1/2+y,z
16 1/2+x,1/2-y,1/2+z
_cell_length_a                   8.411(2)
_cell_length_b                   20.277(4)
_cell_length_c                   15.986(3)
_cell_angle_alpha                90
_cell_angle_beta                 90
_cell_angle_gamma                90
_cell_volume                     2726.41
loop_
_atom_site_label
_atom_site_type_symbol
_atom_site_fract_x
_atom_site_fract_y
_atom_site_fract_z
I1 I -0.5000 -0.5296(1) 0.1218(1)
I2 I 0.0000 -0.5396(1) 0.1205(1)
Cd1 Cd -0.2481(1) -0.5337(1) 0.2500
N1 N -0.2358(13) -0.4159(4) 0.2500
N2 N -0.2379(13) -0.1521(5) 0.2500
C1 C -0.2358(12) -0.3826(4) 0.1790(5)
C2 C -0.2350(13) -0.3141(4) 0.1746(4)
C3 C -0.2347(15) -0.2801(5) 0.2500
C4 C -0.2354(15) -0.2097(5) 0.2500
H1 H -0.221(11) -0.4068(49) 0.3703(55)
H2 H -0.2203(92) -0.2873(38) 0.3837(47)
I1C I -0.5000 -0.5296(1) 0.3782(1)
Cd1C Cd -0.7519(1) -0.5337(1) 0.2500
Cd1C_2 Cd 0.2481(1) -0.5337(1) 0.2500
I2C I 0.0000 -0.5396(1) 0.3795(1)
C2I C -0.2350(13) -0.3141(4) 0.3254(4)
C1I C -0.2358(12) -0.3826(4) 0.3210(5)
Cd1G Cd -0.2519(1) -0.0337(1) 0.2500
H2I H -0.2203(92) -0.2873(38) 0.1163(47)
H1I H -0.221(11) -0.4068(49) 0.1297(55)
N2G N -0.2621(13) -0.6521(5) 0.2500
I3 I -0.5000 -0.6795(1) 0.4688(1)
I4 I -0.5000 -0.8034(1) 0.5396(1)
loop_
_geom_bond_atom_site_label_1
_geom_bond_atom_site_label_2
_geom_bond_site_symmetry_1
_geom_bond_site_symmetry_2
I1 Cd1 1_555 1_555
I2 Cd1 1_555 1_555
I3 I4 1_555 1_555
Cd1 N1 1_555 1_555
N1 C1 1_555 1_555
N2 C4 1_555 1_555
C1 C2 1_555 1_555
C2 C3 1_555 1_555
C3 C4 1_555 1_555
H1 C1I 1_555 1_555
H2 C2I 1_555 1_555
I1C Cd1 1_555 1_555
Cd1C I1 1_555 1_555
Cd1C_2 I2 1_555 1_555
I2C Cd1 1_555 1_555
C2I C3 1_555 1_555
C1I N1 1_555 1_555
Cd1G N2 1_555 1_555
H2I C2 1_555 1_555
H1I C1 1_555 1_555
N2G Cd1 1_555 1_555
I1C Cd1C 1_555 1_555
Cd1C_2 I2C 1_555 1_555
C2I C1I 1_555 1_555

#END
