
#######################################################################
#
#                 Cambridge Crystallographic Data Centre
#                                CCDC 
#
#######################################################################
#
# If this CIF has been generated from an entry in the Cambridge 
# Structural Database, then it will include bibliographic, chemical, 
# crystal, experimental, refinement or atomic coordinate data resulting 
# from the CCDC's data processing and validation procedures.
#
#######################################################################

data_PIJSEH
_symmetry_cell_setting           monoclinic
_symmetry_space_group_name_H-M   'P 21/n'
_symmetry_Int_Tables_number      14
_space_group_name_Hall           '-P 2yn'
loop_
_symmetry_equiv_pos_site_id
_symmetry_equiv_pos_as_xyz
1 x,y,z
2 1/2-x,1/2+y,1/2-z
3 -x,-y,-z
4 1/2+x,1/2-y,1/2+z
_cell_length_a                   8.5253(9)
_cell_length_b                   9.2938(10)
_cell_length_c                   19.654(2)
_cell_angle_alpha                90
_cell_angle_beta                 102.289(2)
_cell_angle_gamma                90
_cell_volume                     1521.55
loop_
_atom_site_label
_atom_site_type_symbol
_atom_site_fract_x
_atom_site_fract_y
_atom_site_fract_z
O1 O -0.0095(4) 0.5283(4) 0.92813(18)
C1 C 0.0404(5) 0.4593(5) 0.8815(2)
C2 C -0.0482(6) 0.4190(6) 0.8143(2)
N1 N 0.2784(4) 0.2582(4) 1.0454(2)
C3 C 0.1987(6) 0.1458(5) 1.0610(2)
H1 H 0.0885 0.1526 1.0577
O2 O 0.5022(3) 0.3648(3) 1.03038(18)
C4 C 0.4406(5) 0.2525(5) 1.0486(2)
Pb1 Pb 0.256472(19) 0.527482(18) 1.018369(9)
N2 N 0.6957(5) 0.1130(5) 1.0856(3)
C5 C 0.4387(6) 0.0074(5) 1.0915(3)
H2 H 0.4924 -0.0763 1.1088
C6 C 0.5217(5) 0.1244(5) 1.0744(2)
C7 C 0.2767(6) 0.0173(5) 1.0824(3)
O3 O -0.2842(5) 0.5247(5) 0.8289(2)
N3 N -0.2153(6) 0.4632(6) 0.7903(2)
N4 N 0.1974(4) 0.4195(4) 0.89869(19)
C8 C 0.0196(6) 0.3360(6) 0.7719(2)
H3 H -0.0404 0.3053 0.7292
C9 C 0.2664(6) 0.3438(5) 0.8562(2)
H4 H 0.3751 0.3218 0.8691
C10 C 0.1788(7) 0.2974(5) 0.7929(2)
O4 O 0.0396(5) -0.1010(5) 1.0819(2)
O5 O 0.2599(5) -0.2177(4) 1.1168(2)
N5 N 0.1862(6) -0.1097(5) 1.0953(2)
O6 O 0.7621(6) 0.0295(6) 1.1300(4)
O7 O 0.7681(4) 0.1899(4) 1.0526(2)
O8 O -0.2786(6) 0.4338(8) 0.7304(2)
N6 N 0.2561(7) 0.2078(5) 0.7488(2)
O9 O 0.3992(6) 0.1784(5) 0.7699(2)
O10 O 0.1743(6) 0.1647(5) 0.6933(2)
O1B O 0.0095(4) 0.4717(4) 1.07187(18)
O2B O 0.4978(3) 0.6352(3) 0.96962(18)
Pb1B Pb -0.256472(19) 0.472518(18) 0.981631(9)
Pb1B_2 Pb 0.743528(19) 0.472518(18) 0.981631(9)
loop_
_geom_bond_atom_site_label_1
_geom_bond_atom_site_label_2
_geom_bond_site_symmetry_1
_geom_bond_site_symmetry_2
O1 C1 1_555 1_555
C1 C2 1_555 1_555
C2 N3 1_555 1_555
N1 C3 1_555 1_555
C3 H1 1_555 1_555
O2 C4 1_555 1_555
C4 N1 1_555 1_555
Pb1 O1 1_555 1_555
N2 C6 1_555 1_555
C5 H2 1_555 1_555
C6 C4 1_555 1_555
C7 C3 1_555 1_555
O3 N3 1_555 1_555
N3 O8 1_555 1_555
N4 C1 1_555 1_555
C8 C2 1_555 1_555
H3 C8 1_555 1_555
C9 N4 1_555 1_555
H4 C9 1_555 1_555
C10 C8 1_555 1_555
O4 N5 1_555 1_555
O5 N5 1_555 1_555
N5 C7 1_555 1_555
O6 N2 1_555 1_555
O7 N2 1_555 1_555
N6 C10 1_555 1_555
O9 N6 1_555 1_555
O10 N6 1_555 1_555
O1B Pb1 1_555 1_555
O2B Pb1 1_555 1_555
Pb1B O1 1_555 1_555
Pb1B_2 O2 1_555 1_555
N1 Pb1 1_555 1_555
O2 Pb1 1_555 1_555
Pb1 N4 1_555 1_555
C5 C6 1_555 1_555
C5 C7 1_555 1_555
C9 C10 1_555 1_555
O1B Pb1B 1_555 1_555
O2B Pb1B_2 1_555 1_555

#END
