
#######################################################################
#
#                 Cambridge Crystallographic Data Centre
#                                CCDC 
#
#######################################################################
#
# If this CIF has been generated from an entry in the Cambridge 
# Structural Database, then it will include bibliographic, chemical, 
# crystal, experimental, refinement or atomic coordinate data resulting 
# from the CCDC's data processing and validation procedures.
#
#######################################################################

data_PIJVOU
_symmetry_cell_setting           monoclinic
_symmetry_space_group_name_H-M   'P 21/c'
_symmetry_Int_Tables_number      14
_space_group_name_Hall           '-P 2ybc'
loop_
_symmetry_equiv_pos_site_id
_symmetry_equiv_pos_as_xyz
1 x,y,z
2 -x,1/2+y,1/2-z
3 -x,-y,-z
4 x,1/2-y,1/2+z
_cell_length_a                   22.9215(13)
_cell_length_b                   8.3325(3)
_cell_length_c                   19.8801(11)
_cell_angle_alpha                90
_cell_angle_beta                 111.565(4)
_cell_angle_gamma                90
_cell_volume                     3531.18
loop_
_atom_site_label
_atom_site_type_symbol
_atom_site_fract_x
_atom_site_fract_y
_atom_site_fract_z
Hg1 Hg 0.065287(12) 0.42762(3) 0.283616(14)
I1 I 0.12305(2) 0.40601(6) 0.18725(3)
I2 I -0.05612(2) 0.32415(5) 0.23409(2)
P1 P 0.12808(7) 0.45478(17) 0.41412(8)
P2 P 0.30702(7) 0.63126(19) 0.40292(9)
O1 O 0.3422(2) 0.4554(5) 0.5335(3)
C1 C 0.3373(3) 0.7127(8) 0.4881(4)
H1 H 0.3430 0.8252 0.4955
C2 C 0.3532(3) 0.6057(8) 0.5458(4)
C3 C 0.3835(3) 0.6594(8) 0.6217(4)
C4 C 0.3893(3) 0.8218(9) 0.6409(4)
H2 H 0.3719 0.9013 0.6048
C5 C 0.4203(4) 0.8667(10) 0.7119(5)
H3 H 0.4237 0.9772 0.7245
C6 C 0.4465(4) 0.7517(11) 0.7650(4)
H4 H 0.4688 0.7840 0.8136
C7 C 0.4403(4) 0.5917(10) 0.7476(4)
H5 H 0.4576 0.5130 0.7841
C8 C 0.4085(3) 0.5452(9) 0.6761(4)
H6 H 0.4037 0.4343 0.6642
C9 C 0.2819(3) 0.7924(8) 0.3375(4)
C10 C 0.2898(4) 0.7826(9) 0.2715(4)
H7 H 0.3109 0.6932 0.2612
C11 C 0.2671(4) 0.9025(10) 0.2211(4)
H8 H 0.2734 0.8965 0.1766
C12 C 0.2351(4) 1.0313(9) 0.2343(4)
H9 H 0.2191 1.1127 0.1987
C13 C 0.2265(4) 1.0417(8) 0.2998(5)
H10 H 0.2044 1.1302 0.3091
C14 C 0.2499(3) 0.9236(8) 0.3511(4)
H11 H 0.2443 0.9312 0.3960
C15 C 0.3616(3) 0.5064(8) 0.3798(3)
C16 C 0.3408(4) 0.3801(8) 0.3305(4)
H12 H 0.2973 0.3573 0.3080
C17 C 0.3852(4) 0.2881(10) 0.3146(5)
H13 H 0.3718 0.2015 0.2814
C18 C 0.4479(4) 0.3222(9) 0.3469(4)
H14 H 0.4777 0.2593 0.3357
C19 C 0.4681(3) 0.4480(9) 0.3957(4)
H15 H 0.5116 0.4713 0.4177
C20 C 0.4250(3) 0.5393(8) 0.4124(4)
H16 H 0.4388 0.6247 0.4463
C21 C 0.2383(3) 0.5047(8) 0.3886(4)
H17 H 0.2144 0.4922 0.3361
H18 H 0.2520 0.3968 0.4093
C22 C 0.1964(3) 0.5794(7) 0.4244(3)
H19 H 0.1821 0.6861 0.4026
H20 H 0.2210 0.5953 0.4765
C23 C 0.1579(3) 0.2654(7) 0.4591(3)
C24 C 0.2162(3) 0.2541(8) 0.5133(4)
H21 H 0.2430 0.3451 0.5257
C25 C 0.2360(4) 0.1093(8) 0.5501(5)
H22 H 0.2761 0.1011 0.5876
C26 C 0.1963(4) -0.0217(9) 0.5313(5)
H23 H 0.2094 -0.1206 0.5560
C27 C 0.1387(4) -0.0110(8) 0.4776(5)
H24 H 0.1116 -0.1017 0.4661
C28 C 0.1192(3) 0.1305(8) 0.4400(4)
H25 H 0.0797 0.1360 0.4013
C29 C 0.0914(3) 0.5558(7) 0.4686(3)
C30 C 0.1241(3) 0.5686(9) 0.5435(4)
H26 H 0.1637 0.5174 0.5652
C31 C 0.0992(3) 0.6547(9) 0.5857(4)
H27 H 0.1216 0.6635 0.6363
C32 C 0.0417(3) 0.7283(9) 0.5540(4)
H28 H 0.0252 0.7906 0.5829
C33 C 0.0077(3) 0.7126(8) 0.4809(4)
H29 H -0.0328 0.7598 0.4600
C34 C 0.0330(3) 0.6270(8) 0.4380(4)
H30 H 0.0102 0.6175 0.3874
Hg1A Hg -0.065287(12) -0.07238(3) 0.216384(14)
I2A I 0.05612(2) 0.82415(5) 0.26591(2)
loop_
_geom_bond_atom_site_label_1
_geom_bond_atom_site_label_2
_geom_bond_site_symmetry_1
_geom_bond_site_symmetry_2
Hg1 I1 1_555 1_555
I2 Hg1 1_555 1_555
P1 Hg1 1_555 1_555
P2 C1 1_555 1_555
O1 C2 1_555 1_555
C1 H1 1_555 1_555
C2 C1 1_555 1_555
C3 C2 1_555 1_555
C4 C3 1_555 1_555
H2 C4 1_555 1_555
C5 C4 1_555 1_555
H3 C5 1_555 1_555
C6 C5 1_555 1_555
H4 C6 1_555 1_555
C7 C6 1_555 1_555
H5 C7 1_555 1_555
C8 C3 1_555 1_555
H6 C8 1_555 1_555
C9 P2 1_555 1_555
C10 C9 1_555 1_555
H7 C10 1_555 1_555
C11 C10 1_555 1_555
H8 C11 1_555 1_555
C12 C11 1_555 1_555
H9 C12 1_555 1_555
C13 C12 1_555 1_555
H10 C13 1_555 1_555
C14 C9 1_555 1_555
H11 C14 1_555 1_555
C15 P2 1_555 1_555
C16 C15 1_555 1_555
H12 C16 1_555 1_555
C17 C16 1_555 1_555
H13 C17 1_555 1_555
C18 C17 1_555 1_555
H14 C18 1_555 1_555
C19 C18 1_555 1_555
H15 C19 1_555 1_555
C20 C15 1_555 1_555
H16 C20 1_555 1_555
C21 P2 1_555 1_555
H17 C21 1_555 1_555
H18 C21 1_555 1_555
C22 P1 1_555 1_555
H19 C22 1_555 1_555
H20 C22 1_555 1_555
C23 P1 1_555 1_555
C24 C23 1_555 1_555
H21 C24 1_555 1_555
C25 C24 1_555 1_555
H22 C25 1_555 1_555
C26 C25 1_555 1_555
H23 C26 1_555 1_555
C27 C26 1_555 1_555
H24 C27 1_555 1_555
C28 C23 1_555 1_555
H25 C28 1_555 1_555
C29 P1 1_555 1_555
C30 C29 1_555 1_555
H26 C30 1_555 1_555
C31 C30 1_555 1_555
H27 C31 1_555 1_555
C32 C31 1_555 1_555
H28 C32 1_555 1_555
C33 C32 1_555 1_555
H29 C33 1_555 1_555
C34 C29 1_555 1_555
H30 C34 1_555 1_555
Hg1A I2 1_555 1_555
I2A Hg1 1_555 1_555
C7 C8 1_555 1_555
C13 C14 1_555 1_555
C19 C20 1_555 1_555
C21 C22 1_555 1_555
C27 C28 1_555 1_555
C33 C34 1_555 1_555

#END
