
#######################################################################
#
#                 Cambridge Crystallographic Data Centre
#                                CCDC 
#
#######################################################################
#
# If this CIF has been generated from an entry in the Cambridge 
# Structural Database, then it will include bibliographic, chemical, 
# crystal, experimental, refinement or atomic coordinate data resulting 
# from the CCDC's data processing and validation procedures.
#
#######################################################################

data_PIJWAG
_symmetry_cell_setting           monoclinic
_symmetry_space_group_name_H-M   'P 21/c'
_symmetry_Int_Tables_number      14
_space_group_name_Hall           '-P 2ybc'
loop_
_symmetry_equiv_pos_site_id
_symmetry_equiv_pos_as_xyz
1 x,y,z
2 -x,1/2+y,1/2-z
3 -x,-y,-z
4 x,1/2-y,1/2+z
_cell_length_a                   8.8967(6)
_cell_length_b                   13.2822(9)
_cell_length_c                   11.1564(5)
_cell_angle_alpha                90
_cell_angle_beta                 105.36(5)
_cell_angle_gamma                90
_cell_volume                     1271.24
loop_
_atom_site_label
_atom_site_type_symbol
_atom_site_fract_x
_atom_site_fract_y
_atom_site_fract_z
Cd1 Cd 0.47151(4) -0.21720(3) 0.21474(3)
Cd2 Cd 0.00000 0.00000 0.50000
N1 N 0.3252(5) -0.0588(3) 0.2271(3)
N2 N 0.1475(5) 0.0225(3) 0.3331(4)
N3 N 0.3372(5) 0.1246(3) 0.2611(4)
N4 N 0.1146(5) 0.0497(3) 0.1111(4)
N5 N 0.1917(6) 0.0914(4) 0.6485(5)
N6 N 0.4610(6) -0.2709(4) 0.4104(5)
N7 N -0.1381(6) 0.1458(4) 0.4173(5)
C1 C 0.2539(6) 0.1112(4) 0.3575(5)
C2 C 0.2421(6) -0.0682(4) 0.3258(4)
C3 C 0.2074(6) -0.0415(4) 0.1066(5)
C4 C 0.2175(6) 0.1370(4) 0.1395(5)
C5 C 0.4277(6) 0.0317(4) 0.2555(5)
C6 C 0.0349(6) 0.0369(4) 0.2081(5)
C7 C 0.4695(7) -0.2916(5) 0.5091(5)
C8 C -0.2272(9) 0.2016(5) 0.3668(6)
C9 C 0.3000(6) 0.1298(4) 0.7070(5)
H1 H 0.1860(6) 0.1781(4) 0.3607(5)
H2 H 0.3384(6) 0.1009(4) 0.4460(5)
H3 H 0.1659(6) -0.1328(4) 0.3060(4)
H4 H 0.3268(6) -0.0786(4) 0.4142(5)
H5 H 0.2665(6) -0.0327(4) 0.0342(5)
H6 H 0.1303(6) -0.1057(4) 0.0860(5)
H7 H 0.1486(6) 0.2032(4) 0.1438(5)
H8 H 0.2758(6) 0.1461(4) 0.0667(5)
H9 H 0.5118(6) 0.0209(4) 0.3442(5)
H10 H 0.4879(6) 0.0404(4) 0.1838(5)
H11 H -0.0399(6) -0.0283(4) 0.1867(5)
H12 H -0.0348(6) 0.1030(4) 0.2109(5)
N1B N -0.3252(5) 0.0588(3) 0.7729(3)
N2B N -0.1475(5) -0.0225(3) 0.6669(4)
N3B N -0.3372(5) -0.1246(3) 0.7389(4)
N4B N -0.1146(5) -0.0497(3) 0.8889(4)
C1B C -0.2539(6) -0.1112(4) 0.6425(5)
C2B C -0.2421(6) 0.0682(4) 0.6742(4)
C3B C -0.2074(6) 0.0415(4) 0.8934(5)
C4B C -0.2175(6) -0.1370(4) 0.8605(5)
C5B C -0.4277(6) -0.0317(4) 0.7445(5)
C6B C -0.0349(6) -0.0369(4) 0.7919(5)
H1B H -0.1860(6) -0.1781(4) 0.6393(5)
H2B H -0.3384(6) -0.1009(4) 0.5540(5)
H3B H -0.1659(6) 0.1328(4) 0.6940(4)
H4B H -0.3268(6) 0.0786(4) 0.5858(5)
H5B H -0.2665(6) 0.0327(4) 0.9658(5)
H6B H -0.1303(6) 0.1057(4) 0.9140(5)
H7B H -0.1486(6) -0.2032(4) 0.8562(5)
H8B H -0.2758(6) -0.1461(4) 0.9333(5)
H9B H -0.5118(6) -0.0209(4) 0.6558(5)
H10B H -0.4879(6) -0.0404(4) 0.8162(5)
H11B H 0.0399(6) 0.0283(4) 0.8133(5)
H12B H 0.0348(6) -0.1030(4) 0.7891(5)
N5B N -0.1917(6) -0.0914(4) 0.3515(5)
C9B C -0.3000(6) -0.1298(4) 0.2930(5)
N7B N 0.1381(6) -0.1458(4) 0.5827(5)
C8B C 0.2272(9) -0.2016(5) 0.6332(6)
Cd1B Cd -0.47151(4) 0.21720(3) 0.78526(3)
N6C N 0.4610(6) -0.2291(4) -0.0896(5)
C7C C 0.4695(7) -0.2084(5) 0.0091(5)
N3A N 0.6628(5) -0.3754(3) 0.2389(4)
C8A C 0.2272(9) -0.2984(5) 0.1332(6)
C9B_2 C 0.7000(6) -0.1298(4) 0.2930(5)
Cd1A Cd 0.52849(4) 0.28280(3) 0.28526(3)
Cd1C Cd 0.47151(4) -0.28280(3) 0.71474(3)
Cd1A_2 Cd -0.47151(4) 0.28280(3) 0.28526(3)
Cd1B_2 Cd 0.52849(4) 0.21720(3) 0.78526(3)
Cd1C_2 Cd -0.52849(4) -0.28280(3) 0.71474(3)
Cd1_2 Cd -0.52849(4) -0.21720(3) 0.21474(3)
N3C N -0.6628(5) 0.3754(3) 0.7611(4)
N6B N -0.4610(6) 0.2709(4) 0.5896(5)
C7A C -0.4695(7) 0.2084(5) 0.9909(5)
C8C C -0.2272(9) 0.2984(5) 0.8668(6)
C9_2 C -0.7000(6) 0.1298(4) 0.7070(5)
Cd1C_3 Cd 0.47151(4) -0.28280(3) -0.28526(3)
loop_
_geom_bond_atom_site_label_1
_geom_bond_atom_site_label_2
_geom_bond_site_symmetry_1
_geom_bond_site_symmetry_2
Cd1 N1 1_555 1_555
Cd2 N2 1_555 1_555
N1 C2 1_555 1_555
N2 C1 1_555 1_555
N3 C1 1_555 1_555
N4 C3 1_555 1_555
N5 Cd2 1_555 1_555
N6 Cd1 1_555 1_555
N7 Cd2 1_555 1_555
C1 H1 1_555 1_555
C2 N2 1_555 1_555
C3 N1 1_555 1_555
C4 N3 1_555 1_555
C5 N1 1_555 1_555
C6 N2 1_555 1_555
C7 N6 1_555 1_555
C8 N7 1_555 1_555
C9 N5 1_555 1_555
H2 C1 1_555 1_555
H3 C2 1_555 1_555
H4 C2 1_555 1_555
H5 C3 1_555 1_555
H6 C3 1_555 1_555
H7 C4 1_555 1_555
H8 C4 1_555 1_555
H9 C5 1_555 1_555
H10 C5 1_555 1_555
H11 C6 1_555 1_555
H12 C6 1_555 1_555
N1B C2B 1_555 1_555
N2B Cd2 1_555 1_555
N3B C1B 1_555 1_555
N4B C3B 1_555 1_555
C1B N2B 1_555 1_555
C2B N2B 1_555 1_555
C3B N1B 1_555 1_555
C4B N3B 1_555 1_555
C5B N1B 1_555 1_555
C6B N2B 1_555 1_555
H1B C1B 1_555 1_555
H2B C1B 1_555 1_555
H3B C2B 1_555 1_555
H4B C2B 1_555 1_555
H5B C3B 1_555 1_555
H6B C3B 1_555 1_555
H7B C4B 1_555 1_555
H8B C4B 1_555 1_555
H9B C5B 1_555 1_555
H10B C5B 1_555 1_555
H11B C6B 1_555 1_555
H12B C6B 1_555 1_555
N5B Cd2 1_555 1_555
C9B N5B 1_555 1_555
N7B Cd2 1_555 1_555
C8B N7B 1_555 1_555
Cd1B N1B 1_555 1_555
N6C C7C 1_555 1_555
C7C Cd1 1_555 1_555
N3A Cd1 1_555 1_555
C8A Cd1 1_555 1_555
C9B_2 Cd1 1_555 1_555
Cd1A N3 1_555 1_555
Cd1C C7 1_555 1_555
Cd1A_2 C8 1_555 1_555
Cd1B_2 C9 1_555 1_555
Cd1C_2 N3B 1_555 1_555
Cd1_2 C9B 1_555 1_555
N3C Cd1B 1_555 1_555
N6B Cd1B 1_555 1_555
C7A Cd1B 1_555 1_555
C8C Cd1B 1_555 1_555
C9_2 Cd1B 1_555 1_555
Cd1C_3 N6C 1_555 1_555
N3 C5 1_555 1_555
N4 C4 1_555 1_555
N4 C6 1_555 1_555
N3B C5B 1_555 1_555
N4B C4B 1_555 1_555
N4B C6B 1_555 1_555
C8B Cd1C 1_555 1_555

#END
