
#######################################################################
#
#                 Cambridge Crystallographic Data Centre
#                                CCDC 
#
#######################################################################
#
# If this CIF has been generated from an entry in the Cambridge 
# Structural Database, then it will include bibliographic, chemical, 
# crystal, experimental, refinement or atomic coordinate data resulting 
# from the CCDC's data processing and validation procedures.
#
#######################################################################

data_PIJZAK
_symmetry_cell_setting           triclinic
_symmetry_space_group_name_H-M   'P -1'
_symmetry_Int_Tables_number      2
_space_group_name_Hall           '-P 1'
loop_
_symmetry_equiv_pos_site_id
_symmetry_equiv_pos_as_xyz
1 x,y,z
2 -x,-y,-z
_cell_length_a                   9.331(4)
_cell_length_b                   10.419(4)
_cell_length_c                   11.353(2)
_cell_angle_alpha                96.51(3)
_cell_angle_beta                 100.58(3)
_cell_angle_gamma                109.71(7)
_cell_volume                     1002.91
loop_
_atom_site_label
_atom_site_type_symbol
_atom_site_fract_x
_atom_site_fract_y
_atom_site_fract_z
Ni1 Ni 0.57501(5) 0.24520(5) 0.22759(5)
N1 N 0.7089(4) 0.1372(3) 0.1685(4)
H1 H 0.6624 0.0476 0.1734
H2 H 0.7041 0.1403 0.0890
C1 C 0.8746(5) 0.1821(5) 0.2313(6)
H3 H 0.9298 0.2742 0.2176
H4 H 0.9192 0.1197 0.1961
O1 O 0.3931(3) 0.0637(2) 0.2367(3)
N2 N 0.6832(4) 0.2545(3) 0.4085(3)
H5 H 0.6402 0.1681 0.4250
C2 C 0.8998(6) 0.1852(6) 0.3663(7)
H6 H 1.0099 0.2040 0.3995
H7 H 0.8409 0.0936 0.3791
O2 O -0.2486(3) -0.5707(2) 0.2163(3)
N3 N 0.4628(4) 0.2500(4) 0.0534(3)
H8 H 0.5187 0.3300 0.0336
H9 H 0.4682 0.1805 0.0017
C3 C 0.8537(5) 0.2895(5) 0.4375(5)
H10 H 0.8905 0.2939 0.5241
H11 H 0.9044 0.3805 0.4195
N4 N 0.4501(3) 0.3496(3) 0.3078(3)
H12 H 0.5045 0.4418 0.3138
C4 C 0.6338(6) 0.3470(5) 0.4863(4)
H13 H 0.6993 0.4430 0.4909
H14 H 0.6455 0.3272 0.5682
C5 C 0.4662(5) 0.3246(4) 0.4333(4)
H15 H 0.3998 0.2302 0.4336
H16 H 0.4338 0.3877 0.4819
C6 C 0.2895(5) 0.3243(4) 0.2447(5)
H17 H 0.2510 0.3856 0.2893
H18 H 0.2243 0.2296 0.2449
C7 C 0.2733(6) 0.3464(6) 0.1157(5)
H19 H 0.3483 0.4371 0.1150
H20 H 0.1693 0.3470 0.0856
C8 C 0.2982(6) 0.2388(6) 0.0293(5)
H21 H 0.2330 0.1469 0.0372
H22 H 0.2657 0.2499 -0.0539
O3 O 0.4144(5) -0.0966(4) 0.1109(4)
C9 C 0.3461(4) -0.0548(4) 0.1785(3)
C10 C 0.1978(4) -0.1556(4) 0.1969(3)
C11 C 0.1489(5) -0.2953(4) 0.1469(4)
H23 H 0.2079 -0.3262 0.1010
C12 C 0.0141(4) -0.3884(4) 0.1647(4)
H24 H -0.0161 -0.4825 0.1330
C13 C -0.0773(4) -0.3433(3) 0.2295(3)
C14 C -0.0305(4) -0.2052(4) 0.2785(4)
H25 H -0.0915 -0.1744 0.3223
C15 C 0.1054(4) -0.1126(4) 0.2631(4)
H26 H 0.1367 -0.0192 0.2975
O4 O -0.3115(4) -0.3983(3) 0.2962(4)
C16 C -0.2244(4) -0.4450(4) 0.2482(4)
Ni1_2 Ni 1.57501(5) 1.24520(5) 0.22759(5)
Ni1_3 Ni -0.42499(5) -0.75480(5) 0.22759(5)
N1_2 N 1.7089(4) 1.1372(3) 0.1685(4)
H1_2 H 1.6624 1.0476 0.1734
H2_2 H 1.7041 1.1403 0.0890
C1_2 C 1.8746(5) 1.1821(5) 0.2313(6)
H3_2 H 1.9298 1.2742 0.2176
H4_2 H 1.9192 1.1197 0.1961
O1_2 O 1.3931(3) 1.0637(2) 0.2367(3)
N2_2 N 1.6832(4) 1.2545(3) 0.4085(3)
H5_2 H 1.6402 1.1681 0.4250
C2_2 C 1.8998(6) 1.1852(6) 0.3663(7)
H6_2 H 2.0099 1.2040 0.3995
H7_2 H 1.8409 1.0936 0.3791
O2_2 O 0.7514(3) 0.4293(2) 0.2163(3)
O2_3 O 1.7514(3) 1.4293(2) 0.2163(3)
N3_2 N 1.4628(4) 1.2500(4) 0.0534(3)
H8_2 H 1.5187 1.3300 0.0336
H9_2 H 1.4682 1.1805 0.0017
C3_2 C 1.8537(5) 1.2895(5) 0.4375(5)
H10_2 H 1.8905 1.2939 0.5241
H11_2 H 1.9044 1.3805 0.4195
N4_2 N 1.4501(3) 1.3496(3) 0.3078(3)
H12_2 H 1.5045 1.4418 0.3138
C4_2 C 1.6338(6) 1.3470(5) 0.4863(4)
H13_2 H 1.6993 1.4430 0.4909
H14_2 H 1.6455 1.3272 0.5682
C5_2 C 1.4662(5) 1.3246(4) 0.4333(4)
H15_2 H 1.3998 1.2302 0.4336
H16_2 H 1.4338 1.3877 0.4819
C6_2 C 1.2895(5) 1.3243(4) 0.2447(5)
H17_2 H 1.2510 1.3856 0.2893
H18_2 H 1.2243 1.2296 0.2449
C7_2 C 1.2733(6) 1.3464(6) 0.1157(5)
H19_2 H 1.3483 1.4371 0.1150
H20_2 H 1.1693 1.3470 0.0856
C8_2 C 1.2982(6) 1.2388(6) 0.0293(5)
H21_2 H 1.2330 1.1469 0.0372
H22_2 H 1.2657 1.2499 -0.0539
O3_2 O 1.4144(5) 0.9034(4) 0.1109(4)
C9_2 C 1.3461(4) 0.9452(4) 0.1785(3)
C10_2 C 1.1978(4) 0.8444(4) 0.1969(3)
C11_2 C 1.1489(5) 0.7047(4) 0.1469(4)
H23_2 H 1.2079 0.6738 0.1010
C12_2 C 1.0141(4) 0.6116(4) 0.1647(4)
H24_2 H 0.9839 0.5175 0.1330
C13_2 C 0.9227(4) 0.6567(3) 0.2295(3)
C14_2 C 0.9695(4) 0.7948(4) 0.2785(4)
H25_2 H 0.9085 0.8256 0.3223
C15_2 C 1.1054(4) 0.8874(4) 0.2631(4)
H26_2 H 1.1367 0.9808 0.2975
O4_2 O 0.6885(4) 0.6017(3) 0.2962(4)
C16_2 C 0.7756(4) 0.5550(4) 0.2482(4)
O5 O 0.5000 0.0000 0.5000
O6 O 0.6144(5) -0.1653(4) 0.3191(5)
loop_
_geom_bond_atom_site_label_1
_geom_bond_atom_site_label_2
_geom_bond_site_symmetry_1
_geom_bond_site_symmetry_2
Ni1 N1 1_555 1_555
N1 H1 1_555 1_555
H2 N1 1_555 1_555
C1 N1 1_555 1_555
H3 C1 1_555 1_555
H4 C1 1_555 1_555
O1 Ni1 1_555 1_555
N2 Ni1 1_555 1_555
H5 N2 1_555 1_555
C2 C1 1_555 1_555
H6 C2 1_555 1_555
H7 C2 1_555 1_555
O2 C16 1_555 1_555
N3 Ni1 1_555 1_555
H8 N3 1_555 1_555
H9 N3 1_555 1_555
C3 N2 1_555 1_555
H10 C3 1_555 1_555
H11 C3 1_555 1_555
N4 Ni1 1_555 1_555
H12 N4 1_555 1_555
C4 N2 1_555 1_555
H13 C4 1_555 1_555
H14 C4 1_555 1_555
C5 N4 1_555 1_555
H15 C5 1_555 1_555
H16 C5 1_555 1_555
C6 N4 1_555 1_555
H17 C6 1_555 1_555
H18 C6 1_555 1_555
C7 C6 1_555 1_555
H19 C7 1_555 1_555
H20 C7 1_555 1_555
C8 N3 1_555 1_555
H21 C8 1_555 1_555
H22 C8 1_555 1_555
O3 C9 1_555 1_555
C9 O1 1_555 1_555
C10 C9 1_555 1_555
C11 C10 1_555 1_555
H23 C11 1_555 1_555
C12 C11 1_555 1_555
H24 C12 1_555 1_555
C13 C12 1_555 1_555
C14 C13 1_555 1_555
H25 C14 1_555 1_555
C15 C10 1_555 1_555
H26 C15 1_555 1_555
O4 C16 1_555 1_555
C16 C13 1_555 1_555
Ni1_2 N1_2 1_555 1_555
Ni1_3 O2 1_555 1_555
N1_2 H1_2 1_555 1_555
H2_2 N1_2 1_555 1_555
C1_2 N1_2 1_555 1_555
H3_2 C1_2 1_555 1_555
H4_2 C1_2 1_555 1_555
O1_2 Ni1_2 1_555 1_555
N2_2 Ni1_2 1_555 1_555
H5_2 N2_2 1_555 1_555
C2_2 C1_2 1_555 1_555
H6_2 C2_2 1_555 1_555
H7_2 C2_2 1_555 1_555
O2_2 Ni1 1_555 1_555
O2_3 Ni1_2 1_555 1_555
N3_2 Ni1_2 1_555 1_555
H8_2 N3_2 1_555 1_555
H9_2 N3_2 1_555 1_555
C3_2 N2_2 1_555 1_555
H10_2 C3_2 1_555 1_555
H11_2 C3_2 1_555 1_555
N4_2 Ni1_2 1_555 1_555
H12_2 N4_2 1_555 1_555
C4_2 N2_2 1_555 1_555
H13_2 C4_2 1_555 1_555
H14_2 C4_2 1_555 1_555
C5_2 N4_2 1_555 1_555
H15_2 C5_2 1_555 1_555
H16_2 C5_2 1_555 1_555
C6_2 N4_2 1_555 1_555
H17_2 C6_2 1_555 1_555
H18_2 C6_2 1_555 1_555
C7_2 C6_2 1_555 1_555
H19_2 C7_2 1_555 1_555
H20_2 C7_2 1_555 1_555
C8_2 N3_2 1_555 1_555
H21_2 C8_2 1_555 1_555
H22_2 C8_2 1_555 1_555
O3_2 C9_2 1_555 1_555
C9_2 O1_2 1_555 1_555
C10_2 C9_2 1_555 1_555
C11_2 C10_2 1_555 1_555
H23_2 C11_2 1_555 1_555
C12_2 C11_2 1_555 1_555
H24_2 C12_2 1_555 1_555
C13_2 C12_2 1_555 1_555
C14_2 C13_2 1_555 1_555
H25_2 C14_2 1_555 1_555
C15_2 C10_2 1_555 1_555
H26_2 C15_2 1_555 1_555
O4_2 C16_2 1_555 1_555
C16_2 O2_2 1_555 1_555
C2 C3 1_555 1_555
C4 C5 1_555 1_555
C7 C8 1_555 1_555
C14 C15 1_555 1_555
C2_2 C3_2 1_555 1_555
C4_2 C5_2 1_555 1_555
C7_2 C8_2 1_555 1_555
C13_2 C16_2 1_555 1_555
C14_2 C15_2 1_555 1_555

#END
