
#######################################################################
#
#                 Cambridge Crystallographic Data Centre
#                                CCDC 
#
#######################################################################
#
# If this CIF has been generated from an entry in the Cambridge 
# Structural Database, then it will include bibliographic, chemical, 
# crystal, experimental, refinement or atomic coordinate data resulting 
# from the CCDC's data processing and validation procedures.
#
#######################################################################

data_PIKCUI
_symmetry_cell_setting           triclinic
_symmetry_space_group_name_H-M   'P -1'
_symmetry_Int_Tables_number      2
_space_group_name_Hall           '-P 1'
loop_
_symmetry_equiv_pos_site_id
_symmetry_equiv_pos_as_xyz
1 x,y,z
2 -x,-y,-z
_cell_length_a                   7.0972(7)
_cell_length_b                   10.6838(15)
_cell_length_c                   12.379(2)
_cell_angle_alpha                91.164(14)
_cell_angle_beta                 93.484(12)
_cell_angle_gamma                105.831(11)
_cell_volume                     900.702
loop_
_atom_site_label
_atom_site_type_symbol
_atom_site_fract_x
_atom_site_fract_y
_atom_site_fract_z
Ru1 Ru 0.65305(3) 0.722506(16) 0.794219(15)
Cl1 Cl 0.88431(8) 0.77021(6) 0.94666(5)
Cl2 Cl 0.90297(9) 0.83940(6) 0.69007(5)
Cl3 Cl 0.42145(10) 0.68324(7) 0.64593(6)
Cl4 Cl 0.41372(8) 0.60960(5) 0.90914(5)
S1 S 0.72592(9) 0.53238(5) 0.74660(5)
O1 O 0.5768(3) 0.40890(17) 0.76095(19)
N1 N 0.5782(3) 0.89707(18) 0.83235(16)
N2 N 0.4750(3) 1.1262(2) 0.87826(19)
C1 C 0.7148(4) 1.0110(2) 0.8540(2)
H1 H 0.8471 1.0141 0.8548
C2 C 0.6607(4) 1.1238(2) 0.8752(2)
H2 H 0.7591 1.2015 0.8878
C3 C 0.3416(4) 1.0113(2) 0.8581(2)
H3 H 0.2095 1.0080 0.8595
C4 C 0.3900(3) 0.8982(2) 0.8355(2)
H4 H 0.2908 0.8211 0.8222
C5 C 0.7838(7) 0.5288(3) 0.6092(3)
H5 H 0.8026 0.4456 0.5906
H6 H 0.9020 0.5960 0.5993
H7 H 0.6780 0.5430 0.5633
C6 C 0.9472(6) 0.5201(4) 0.8124(4)
H8 H 0.9362 0.5205 0.8893
H9 H 1.0529 0.5927 0.7948
H10 H 0.9728 0.4405 0.7890
Na1 Na 0.64054(15) 0.67128(10) 1.10986(9)
S2 S 0.88852(12) 0.73797(7) 1.35794(6)
O2 O 0.9003(3) 0.7528(2) 1.23843(17)
C7 C 1.1164(5) 0.8367(3) 1.4179(3)
H11 H 1.2219 0.8069 1.3918
H12 H 1.1325 0.9255 1.3990
H13 H 1.1176 0.8309 1.4952
C8 C 0.7339(5) 0.8340(4) 1.4003(3)
H14 H 0.7868 0.9224 1.3803
H15 H 0.6045 0.7999 1.3658
H16 H 0.7273 0.8312 1.4774
Cl4A Cl 0.58628(8) 0.39040(5) 1.09086(5)
O1A O 0.4232(3) 0.59110(17) 1.23905(19)
N2A N 0.5250(3) 0.8738(2) 1.12174(19)
Na1A Na 0.35946(15) 0.32872(10) 0.89014(9)
Na1A_2 Na 0.35946(15) 1.32872(10) 0.89014(9)
loop_
_geom_bond_atom_site_label_1
_geom_bond_atom_site_label_2
_geom_bond_site_symmetry_1
_geom_bond_site_symmetry_2
Ru1 Cl1 1_555 1_555
Cl1 Na1 1_555 1_555
Cl2 Ru1 1_555 1_555
Cl3 Ru1 1_555 1_555
Cl4 Ru1 1_555 1_555
S1 Ru1 1_555 1_555
O1 S1 1_555 1_555
N1 Ru1 1_555 1_555
N2 C2 1_555 1_555
C1 N1 1_555 1_555
H1 C1 1_555 1_555
C2 C1 1_555 1_555
H2 C2 1_555 1_555
C3 N2 1_555 1_555
H3 C3 1_555 1_555
C4 N1 1_555 1_555
H4 C4 1_555 1_555
C5 S1 1_555 1_555
H5 C5 1_555 1_555
H6 C5 1_555 1_555
H7 C5 1_555 1_555
C6 S1 1_555 1_555
H8 C6 1_555 1_555
H9 C6 1_555 1_555
H10 C6 1_555 1_555
Na1 Cl4 1_555 1_555
S2 O2 1_555 1_555
O2 Na1 1_555 1_555
C7 S2 1_555 1_555
H11 C7 1_555 1_555
H12 C7 1_555 1_555
H13 C7 1_555 1_555
C8 S2 1_555 1_555
H14 C8 1_555 1_555
H15 C8 1_555 1_555
H16 C8 1_555 1_555
Cl4A Na1 1_555 1_555
O1A Na1 1_555 1_555
N2A Na1 1_555 1_555
Na1A Cl4 1_555 1_555
Na1A_2 N2 1_555 1_555
O1 Na1A 1_555 1_555
C3 C4 1_555 1_555
Cl4A Na1A 1_555 1_555

#END
