
#######################################################################
#
#                 Cambridge Crystallographic Data Centre
#                                CCDC 
#
#######################################################################
#
# If this CIF has been generated from an entry in the Cambridge 
# Structural Database, then it will include bibliographic, chemical, 
# crystal, experimental, refinement or atomic coordinate data resulting 
# from the CCDC's data processing and validation procedures.
#
#######################################################################

data_PIKCAO
_symmetry_cell_setting           monoclinic
_symmetry_space_group_name_H-M   'P 21/m'
_symmetry_Int_Tables_number      11
_space_group_name_Hall           '-P 2yb'
loop_
_symmetry_equiv_pos_site_id
_symmetry_equiv_pos_as_xyz
1 x,y,z
2 -x,1/2+y,-z
3 -x,-y,-z
4 x,1/2-y,z
_cell_length_a                   8.5751(7)
_cell_length_b                   5.9694(5)
_cell_length_c                   17.8447(13)
_cell_angle_alpha                90
_cell_angle_beta                 101.040(1)
_cell_angle_gamma                90
_cell_volume                     896.534
loop_
_atom_site_label
_atom_site_type_symbol
_atom_site_fract_x
_atom_site_fract_y
_atom_site_fract_z
Pb1 Pb 0.31564(2) 0.25000 0.01717(1)
S1 S 0.34104(16) 0.75000 0.11501(8)
S2 S 0.25314(16) -0.25000 -0.12009(8)
O1 O 0.0305(4) 0.25000 0.0013(2)
O2 O 0.7263(5) 0.75000 0.4233(2)
O3 O -0.1471(5) -0.25000 -0.4260(2)
O4 O 0.2439(3) 0.5487(5) 0.10783(15)
O5 O 0.2073(3) -0.0490(5) -0.08384(16)
O6 O 0.4503(4) 0.75000 0.0627(2)
O7 O 0.4176(5) -0.25000 -0.1275(2)
O8 O 0.2318(5) 0.75000 0.3917(3)
O9 O 0.3470(5) -0.25000 -0.4011(2)
O10 O 0.4608(5) 0.75000 0.4736(2)
O11 O 0.1134(5) -0.25000 -0.4813(2)
C1 C 0.4658(7) 0.75000 0.3423(4)
C2 C 0.1151(7) -0.25000 -0.3493(3)
C3 C 0.6314(7) 0.75000 0.3531(3)
C4 C -0.0488(8) -0.25000 -0.3577(4)
C5 C 0.7067(7) 0.75000 0.2916(3)
C6 C -0.1210(7) -0.25000 -0.2940(4)
C7 C 0.6187(7) 0.75000 0.2187(3)
C8 C -0.0273(7) -0.25000 -0.2220(3)
C9 C 0.4547(7) 0.75000 0.2073(3)
C10 C 0.1371(7) -0.25000 -0.2134(3)
C11 C 0.3759(7) 0.75000 0.2677(3)
C12 C 0.2101(7) -0.25000 -0.2750(3)
C13 C 0.3852(7) 0.75000 0.4074(3)
C14 C 0.1912(8) -0.25000 -0.4151(4)
H1 H -0.018(12) 0.352(16) 0.000(6)
H2 H 0.672(12) 0.75000 0.456(5)
H3 H -0.099(11) -0.25000 -0.459(6)
H4 H 0.81710 0.75000 0.29940
H5 H -0.23110 -0.25000 -0.30000
H6 H 0.66940 0.75000 0.17710
H7 H -0.07420 -0.25000 -0.17910
H8 H 0.26550 0.75000 0.25930
H9 H 0.32040 -0.25000 -0.26830
H10 H 0.192(11) 0.75000 0.435(5)
H11 H 0.385(12) -0.25000 -0.442(6)
Pb1B Pb 0.68436(2) 0.75000 -0.01717(1)
Pb1B_2 Pb 0.68436(2) -0.25000 -0.01717(1)
Pb1_2 Pb 0.31564(2) 1.25000 0.01717(1)
Pb1_3 Pb 0.31564(2) -0.75000 0.01717(1)
O4C O 0.2439(3) 0.9513(5) 0.10783(15)
O4C_2 O 0.2439(3) -0.0487(5) 0.10783(15)
O5C O 0.2073(3) -0.4510(5) -0.08384(16)
O5C_2 O 0.2073(3) 0.5490(5) -0.08384(16)
O6B O 0.5497(4) 0.25000 -0.0627(2)
O7B O 0.5824(5) 0.25000 0.1275(2)
H1C H -0.018(12) 0.148(16) 0.000(6)
loop_
_geom_bond_atom_site_label_1
_geom_bond_atom_site_label_2
_geom_bond_site_symmetry_1
_geom_bond_site_symmetry_2
Pb1 O1 1_555 1_555
S1 O4 1_555 1_555
S2 O5 1_555 1_555
O1 H1 1_555 1_555
O2 C3 1_555 1_555
O3 C4 1_555 1_555
O4 Pb1 1_555 1_555
O5 Pb1 1_555 1_555
O6 S1 1_555 1_555
O7 S2 1_555 1_555
O8 C13 1_555 1_555
O9 C14 1_555 1_555
O10 C13 1_555 1_555
O11 C14 1_555 1_555
C1 C3 1_555 1_555
C2 C4 1_555 1_555
C3 C5 1_555 1_555
C4 C6 1_555 1_555
C5 C7 1_555 1_555
C6 C8 1_555 1_555
C7 C9 1_555 1_555
C8 C10 1_555 1_555
C9 S1 1_555 1_555
C10 S2 1_555 1_555
C11 C1 1_555 1_555
C12 C2 1_555 1_555
C13 C1 1_555 1_555
C14 C2 1_555 1_555
H2 O2 1_555 1_555
H3 O3 1_555 1_555
H4 C5 1_555 1_555
H5 C6 1_555 1_555
H6 C7 1_555 1_555
H7 C8 1_555 1_555
H8 C11 1_555 1_555
H9 C12 1_555 1_555
H10 O8 1_555 1_555
H11 O9 1_555 1_555
Pb1B O6 1_555 1_555
Pb1B_2 O7 1_555 1_555
Pb1_2 O4C 1_555 1_555
Pb1_3 O5C 1_555 1_555
O4C S1 1_555 1_555
O4C_2 Pb1 1_555 1_555
O5C S2 1_555 1_555
O5C_2 Pb1 1_555 1_555
O6B Pb1 1_555 1_555
O7B Pb1 1_555 1_555
H1C O1 1_555 1_555
C9 C11 1_555 1_555
C10 C12 1_555 1_555

#END
