
#######################################################################
#
#                 Cambridge Crystallographic Data Centre
#                                CCDC 
#
#######################################################################
#
# If this CIF has been generated from an entry in the Cambridge 
# Structural Database, then it will include bibliographic, chemical, 
# crystal, experimental, refinement or atomic coordinate data resulting 
# from the CCDC's data processing and validation procedures.
#
#######################################################################

data_PIKGOG
_symmetry_cell_setting           orthorhombic
_symmetry_space_group_name_H-M   'P n 21 a'
_symmetry_Int_Tables_number      33
_space_group_name_Hall           'P -2ac -2n'
loop_
_symmetry_equiv_pos_site_id
_symmetry_equiv_pos_as_xyz
1 x,y,z
2 -x,1/2+y,-z
3 1/2-x,1/2+y,1/2+z
4 1/2+x,y,1/2-z
_cell_length_a                   16.560(5)
_cell_length_b                   8.427(5)
_cell_length_c                   11.203(5)
_cell_angle_alpha                90
_cell_angle_beta                 90
_cell_angle_gamma                90
_cell_volume                     1563.39
loop_
_atom_site_label
_atom_site_type_symbol
_atom_site_fract_x
_atom_site_fract_y
_atom_site_fract_z
Cu1 Cu 0.371920(18) -0.35420(12) -0.50251(2)
O1 O 0.53490(15) -0.6836(3) -0.40407(19)
O2 O 0.31112(16) 0.0013(3) -0.2855(2)
N1 N 0.43748(14) -0.4873(3) -0.3998(2)
C1 C 0.43706(18) -0.4429(3) -0.2786(2)
C2 C 0.39020(16) -0.3068(3) -0.2541(2)
N2 N 0.39562(15) -0.5306(3) -0.6249(2)
N3 N 0.35082(15) -0.2444(3) -0.3546(2)
C3 C 0.2899(3) -0.0661(4) -0.4890(3)
H1 H 0.2382 -0.0074 -0.4849
H2 H 0.3301 0.0040 -0.5280
C4 C 0.31817(17) -0.1017(4) -0.3629(3)
N4 N 0.27848(15) -0.2086(3) -0.5636(2)
C5 C 0.3880(2) -0.2475(4) -0.1385(3)
H3 H 0.3575 -0.1547 -0.1214
C6 C 0.47455(19) -0.5949(4) -0.5864(3)
H4 H 0.5183 -0.5308 -0.6224
H5 H 0.4801 -0.7050 -0.6161
C7 C 0.48428(18) -0.5944(4) -0.4500(3)
C8 C 0.2759(2) -0.1598(4) -0.6916(3)
H6 H 0.2681 -0.2537 -0.7418
H7 H 0.3268 -0.1078 -0.7130
H8 H 0.2310 -0.0858 -0.7040
C9 C 0.4762(3) -0.4546(5) -0.0710(3)
H9 H 0.5057 -0.5037 -0.0083
C10 C 0.2007(2) -0.2834(5) -0.5332(4)
H10 H 0.1928 -0.3780 -0.5827
H11 H 0.1567 -0.2080 -0.5478
H12 H 0.2009 -0.3139 -0.4488
C11 C 0.4299(2) -0.3227(4) -0.0484(3)
H13 H 0.4267 -0.2825 0.0307
C12 C 0.3340(2) -0.6542(4) -0.6102(4)
H14 H 0.2813 -0.6124 -0.6345
H15 H 0.3317 -0.6868 -0.5263
H16 H 0.3478 -0.7459 -0.6599
C13 C 0.4796(2) -0.5160(4) -0.1866(3)
H17 H 0.5111 -0.6079 -0.2026
C14 C 0.4020(2) -0.4869(5) -0.7526(3)
H18 H 0.3503 -0.4437 -0.7800
H19 H 0.4156 -0.5814 -0.7995
H20 H 0.4444 -0.4069 -0.7626
Cu1A Cu 0.628080(18) -0.85420(12) -0.49749(2)
O1A O 0.46510(15) -0.1836(3) -0.59593(19)
loop_
_geom_bond_atom_site_label_1
_geom_bond_atom_site_label_2
_geom_bond_site_symmetry_1
_geom_bond_site_symmetry_2
Cu1 N1 1_555 1_555
O1 C7 1_555 1_555
O2 C4 1_555 1_555
N1 C1 1_555 1_555
C1 C2 1_555 1_555
C2 N3 1_555 1_555
N2 Cu1 1_555 1_555
N3 Cu1 1_555 1_555
C3 H1 1_555 1_555
H2 C3 1_555 1_555
C4 N3 1_555 1_555
N4 Cu1 1_555 1_555
C5 C2 1_555 1_555
H3 C5 1_555 1_555
C6 N2 1_555 1_555
H4 C6 1_555 1_555
H5 C6 1_555 1_555
C7 N1 1_555 1_555
C8 N4 1_555 1_555
H6 C8 1_555 1_555
H7 C8 1_555 1_555
H8 C8 1_555 1_555
C9 H9 1_555 1_555
C10 N4 1_555 1_555
H10 C10 1_555 1_555
H11 C10 1_555 1_555
H12 C10 1_555 1_555
C11 C5 1_555 1_555
H13 C11 1_555 1_555
C12 N2 1_555 1_555
H14 C12 1_555 1_555
H15 C12 1_555 1_555
H16 C12 1_555 1_555
C13 C1 1_555 1_555
H17 C13 1_555 1_555
C14 N2 1_555 1_555
H18 C14 1_555 1_555
H19 C14 1_555 1_555
H20 C14 1_555 1_555
Cu1A O1 1_555 1_555
O1A Cu1 1_555 1_555
C3 C4 1_555 1_555
C3 N4 1_555 1_555
C6 C7 1_555 1_555
C9 C11 1_555 1_555
C9 C13 1_555 1_555

#END
