
#######################################################################
#
#                 Cambridge Crystallographic Data Centre
#                                CCDC 
#
#######################################################################
#
# If this CIF has been generated from an entry in the Cambridge 
# Structural Database, then it will include bibliographic, chemical, 
# crystal, experimental, refinement or atomic coordinate data resulting 
# from the CCDC's data processing and validation procedures.
#
#######################################################################

data_PIKQAC
_symmetry_cell_setting           monoclinic
_symmetry_space_group_name_H-M   'C 2/c'
_symmetry_Int_Tables_number      15
_space_group_name_Hall           '-C 2yn'
loop_
_symmetry_equiv_pos_site_id
_symmetry_equiv_pos_as_xyz
1 x,y,z
2 1/2+x,1/2+y,z
3 -x,y,1/2-z
4 1/2-x,1/2+y,1/2-z
5 -x,-y,-z
6 1/2-x,1/2-y,-z
7 x,-y,1/2+z
8 1/2+x,1/2-y,1/2+z
_cell_length_a                   32.462(4)
_cell_length_b                   10.0672(13)
_cell_length_c                   20.558(3)
_cell_angle_alpha                90
_cell_angle_beta                 92.845(2)
_cell_angle_gamma                90
_cell_volume                     6710.1
loop_
_atom_site_label
_atom_site_type_symbol
_atom_site_fract_x
_atom_site_fract_y
_atom_site_fract_z
Sn1 Sn 0.129220(9) 0.75703(3) 0.370387(15)
S1 S 0.15671(4) 1.03839(13) 0.57218(7)
S2 S 0.15369(3) 0.45845(12) 0.17357(6)
O1 O 0.07819(9) 0.8153(3) 0.43305(16)
O2 O 0.13939(10) 0.8587(3) 0.47665(16)
O3 O 0.13951(9) 0.6513(3) 0.26444(16)
O4 O 0.07887(9) 0.6919(3) 0.30195(15)
N1 N 0.2973(2) 1.2520(10) 0.6228(5)
N2 N 0.29342(12) 0.2667(4) 0.1247(2)
C1 C 0.10100(15) 0.8635(4) 0.4790(2)
C2 C 0.08154(14) 0.9270(4) 0.5350(2)
C3 C 0.03950(15) 0.9061(5) 0.5410(2)
H1 H 0.0250 0.8527 0.5109
C4 C 0.01923(18) 0.9634(6) 0.5911(3)
H2 H -0.0087 0.9471 0.5955
C5 C 0.0403(2) 1.0442(6) 0.6341(3)
H3 H 0.0264 1.0846 0.6674
C6 C 0.08193(18) 1.0671(6) 0.6292(3)
H4 H 0.0958 1.1219 0.6594
C7 C 0.10335(15) 1.0091(5) 0.5796(2)
C8 C 0.16808(18) 1.1673(6) 0.6319(3)
H5 H 0.1515 1.2455 0.6221
H6 H 0.1621 1.1363 0.6751
C9 C 0.2129(2) 1.1991(7) 0.6287(3)
C10 C 0.2416(3) 1.1426(9) 0.6698(4)
H7 H 0.2334 1.0837 0.7015
C11 C 0.2830(3) 1.1715(13) 0.6653(5)
H8 H 0.3018 1.1306 0.6946
C12 C 0.2697(3) 1.3053(10) 0.5839(7)
H9 H 0.2784 1.3641 0.5525
C13 C 0.2279(2) 1.2807(8) 0.5856(5)
H10 H 0.2099 1.3229 0.5557
C14 C 0.10127(14) 0.6433(4) 0.2584(2)
C15 C 0.08025(12) 0.5769(4) 0.2016(2)
C16 C 0.03912(14) 0.6018(5) 0.1898(3)
H11 H 0.0261 0.6622 0.2161
C17 C 0.01638(16) 0.5398(7) 0.1398(3)
H12 H -0.0116 0.5580 0.1326
C18 C 0.03540(16) 0.4525(7) 0.1019(3)
H13 H 0.0204 0.4105 0.0681
C19 C 0.07687(15) 0.4244(5) 0.1123(3)
H14 H 0.0893 0.3624 0.0861
C20 C 0.10034(13) 0.4881(4) 0.1618(2)
C21 C 0.16250(15) 0.3207(6) 0.1188(3)
H15 H 0.1484 0.2416 0.1330
H16 H 0.1523 0.3422 0.0749
C22 C 0.20816(15) 0.2985(5) 0.1207(3)
C23 C 0.22858(17) 0.2314(7) 0.1688(3)
H17 H 0.2142 0.1935 0.2021
C24 C 0.27072(18) 0.2189(6) 0.1686(3)
H18 H 0.2838 0.1724 0.2028
C25 C 0.27355(18) 0.3327(7) 0.0772(3)
H19 H 0.2887 0.3683 0.0441
C26 C 0.23155(17) 0.3511(7) 0.0744(3)
H20 H 0.2191 0.4000 0.0405
C27 C 0.13883(15) 0.5686(5) 0.4150(3)
H21 H 0.1559 0.5158 0.3875
H22 H 0.1541 0.5816 0.4562
C28 C 0.10094(16) 0.4912(5) 0.4273(3)
H23 H 0.0872 0.4690 0.3857
H24 H 0.0824 0.5470 0.4508
C29 C 0.10868(18) 0.3644(6) 0.4655(3)
H25 H 0.1282 0.3100 0.4431
H26 H 0.1211 0.3865 0.5081
C30 C 0.0699(2) 0.2857(6) 0.4740(4)
H27 H 0.0521 0.3341 0.5014
H28 H 0.0769 0.2018 0.4939
H29 H 0.0561 0.2710 0.4323
C31 C 0.13446(15) 0.9479(5) 0.3274(3)
H30 H 0.1530 1.0011 0.3552
H31 H 0.1471 0.9375 0.2860
C32 C 0.09482(17) 1.0232(5) 0.3160(3)
H32 H 0.0827 1.0374 0.3576
H33 H 0.0758 0.9686 0.2897
C33 C 0.0990(2) 1.1565(6) 0.2826(3)
H34 H 0.1179 1.2117 0.3087
H35 H 0.1107 1.1429 0.2407
C34 C 0.0587(3) 1.2278(6) 0.2727(4)
H36 H 0.0399 1.1743 0.2464
H37 H 0.0631 1.3109 0.2511
H38 H 0.0473 1.2441 0.3142
Sn1C Sn 0.370780(9) 0.25703(3) 0.129613(15)
N2C N 0.20658(12) 0.7667(4) 0.3753(2)
loop_
_geom_bond_atom_site_label_1
_geom_bond_atom_site_label_2
_geom_bond_site_symmetry_1
_geom_bond_site_symmetry_2
Sn1 O1 1_555 1_555
S1 C7 1_555 1_555
S2 C20 1_555 1_555
O1 C1 1_555 1_555
O2 Sn1 1_555 1_555
O3 Sn1 1_555 1_555
O4 Sn1 1_555 1_555
N1 C11 1_555 1_555
N2 C24 1_555 1_555
C1 O2 1_555 1_555
C2 C1 1_555 1_555
C3 C2 1_555 1_555
H1 C3 1_555 1_555
C4 C3 1_555 1_555
H2 C4 1_555 1_555
C5 C4 1_555 1_555
H3 C5 1_555 1_555
C6 C5 1_555 1_555
H4 C6 1_555 1_555
C7 C2 1_555 1_555
C8 S1 1_555 1_555
H5 C8 1_555 1_555
H6 C8 1_555 1_555
C9 C8 1_555 1_555
C10 C9 1_555 1_555
H7 C10 1_555 1_555
C11 C10 1_555 1_555
H8 C11 1_555 1_555
C12 N1 1_555 1_555
H9 C12 1_555 1_555
C13 C9 1_555 1_555
H10 C13 1_555 1_555
C14 O3 1_555 1_555
C15 C14 1_555 1_555
C16 C15 1_555 1_555
H11 C16 1_555 1_555
C17 C16 1_555 1_555
H12 C17 1_555 1_555
C18 C17 1_555 1_555
H13 C18 1_555 1_555
C19 C18 1_555 1_555
H14 C19 1_555 1_555
C20 C15 1_555 1_555
C21 S2 1_555 1_555
H15 C21 1_555 1_555
H16 C21 1_555 1_555
C22 C21 1_555 1_555
C23 C22 1_555 1_555
H17 C23 1_555 1_555
C24 C23 1_555 1_555
H18 C24 1_555 1_555
C25 N2 1_555 1_555
H19 C25 1_555 1_555
C26 C22 1_555 1_555
H20 C26 1_555 1_555
C27 Sn1 1_555 1_555
H21 C27 1_555 1_555
H22 C27 1_555 1_555
C28 C27 1_555 1_555
H23 C28 1_555 1_555
H24 C28 1_555 1_555
C29 C28 1_555 1_555
H25 C29 1_555 1_555
H26 C29 1_555 1_555
C30 C29 1_555 1_555
H27 C30 1_555 1_555
H28 C30 1_555 1_555
H29 C30 1_555 1_555
C31 Sn1 1_555 1_555
H30 C31 1_555 1_555
H31 C31 1_555 1_555
C32 C31 1_555 1_555
H32 C32 1_555 1_555
H33 C32 1_555 1_555
C33 C32 1_555 1_555
H34 C33 1_555 1_555
H35 C33 1_555 1_555
C34 C33 1_555 1_555
H36 C34 1_555 1_555
H37 C34 1_555 1_555
H38 C34 1_555 1_555
Sn1C N2 1_555 1_555
N2C Sn1 1_555 1_555
O4 C14 1_555 1_555
C6 C7 1_555 1_555
C12 C13 1_555 1_555
C19 C20 1_555 1_555
C25 C26 1_555 1_555

#END
