
#######################################################################
#
#                 Cambridge Crystallographic Data Centre
#                                CCDC 
#
#######################################################################
#
# If this CIF has been generated from an entry in the Cambridge 
# Structural Database, then it will include bibliographic, chemical, 
# crystal, experimental, refinement or atomic coordinate data resulting 
# from the CCDC's data processing and validation procedures.
#
#######################################################################

data_PIKWEL
_symmetry_cell_setting           monoclinic
_symmetry_space_group_name_H-M   'C 2/c'
_symmetry_Int_Tables_number      15
_space_group_name_Hall           '-C 2yn'
loop_
_symmetry_equiv_pos_site_id
_symmetry_equiv_pos_as_xyz
1 x,y,z
2 1/2+x,1/2+y,z
3 -x,y,1/2-z
4 1/2-x,1/2+y,1/2-z
5 -x,-y,-z
6 1/2-x,1/2-y,-z
7 x,-y,1/2+z
8 1/2+x,1/2-y,1/2+z
_cell_length_a                   22.611(5)
_cell_length_b                   11.064(2)
_cell_length_c                   10.459(2)
_cell_angle_alpha                90
_cell_angle_beta                 113.63(1)
_cell_angle_gamma                90
_cell_volume                     2397.12
loop_
_atom_site_label
_atom_site_type_symbol
_atom_site_fract_x
_atom_site_fract_y
_atom_site_fract_z
N1 N 0.3995(1) 0.4540(2) 0.3453(2)
Li1 Li 0.4525(2) 0.5757(3) 0.2904(4)
C1 C 0.4247(1) 0.4403(2) 0.4760(2)
N2 N 0.4490(1) 0.4324(2) 0.5982(2)
Si1 Si 0.34971(3) 0.35134(6) 0.22920(6)
C2 C 0.3139(2) 0.2474(3) 0.3188(3)
C3 C 0.3959(2) 0.2602(3) 0.1521(4)
C4 C 0.2862(2) 0.4367(3) 0.0875(3)
O1 O 0.4264(1) 0.7370(2) 0.3207(2)
C5 C 0.4653(1) 0.8342(3) 0.3966(3)
C6 C 0.4245(2) 0.9445(3) 0.3484(5)
C7 C 0.3649(2) 0.9081(3) 0.2403(5)
C8 C 0.3618(2) 0.7759(3) 0.2471(4)
H1 H 0.294(1) 0.291(3) 0.361(3)
H2 H 0.347(2) 0.208(3) 0.387(3)
H3 H 0.281(1) 0.196(3) 0.251(3)
H4 H 0.408(2) 0.308(3) 0.090(3)
H5 H 0.374(2) 0.200(3) 0.090(3)
H6 H 0.427(2) 0.219(4) 0.222(4)
H7 H 0.255(2) 0.386(3) 0.027(4)
H8 H 0.297(2) 0.495(4) 0.030(4)
H9 H 0.259(1) 0.488(3) 0.130(3)
N2D N 0.5510(1) 0.5676(2) 0.4018(2)
N2F N 0.4490(1) 0.5676(2) 0.0982(2)
Li1D Li 0.5475(2) 0.4243(3) 0.7096(4)
Li1F Li 0.4525(2) 0.4243(3) 0.7904(4)
loop_
_geom_bond_atom_site_label_1
_geom_bond_atom_site_label_2
_geom_bond_site_symmetry_1
_geom_bond_site_symmetry_2
N1 Li1 1_555 1_555
Li1 O1 1_555 1_555
C1 N1 1_555 1_555
N2 C1 1_555 1_555
Si1 N1 1_555 1_555
C2 Si1 1_555 1_555
C3 Si1 1_555 1_555
C4 Si1 1_555 1_555
O1 C5 1_555 1_555
C5 C6 1_555 1_555
C6 C7 1_555 1_555
C7 C8 1_555 1_555
C8 O1 1_555 1_555
H1 C2 1_555 1_555
H2 C2 1_555 1_555
H3 C2 1_555 1_555
H4 C3 1_555 1_555
H5 C3 1_555 1_555
H6 C3 1_555 1_555
H7 C4 1_555 1_555
H8 C4 1_555 1_555
H9 C4 1_555 1_555
N2D Li1 1_555 1_555
N2F Li1 1_555 1_555
Li1D N2 1_555 1_555
Li1F N2 1_555 1_555

#END
