
#######################################################################
#
#                 Cambridge Crystallographic Data Centre
#                                CCDC 
#
#######################################################################
#
# If this CIF has been generated from an entry in the Cambridge 
# Structural Database, then it will include bibliographic, chemical, 
# crystal, experimental, refinement or atomic coordinate data resulting 
# from the CCDC's data processing and validation procedures.
#
#######################################################################

data_PIKXUD
_symmetry_cell_setting           monoclinic
_symmetry_space_group_name_H-M   'C c'
_symmetry_Int_Tables_number      9
_space_group_name_Hall           'C -2yc'
loop_
_symmetry_equiv_pos_site_id
_symmetry_equiv_pos_as_xyz
1 x,y,z
2 x,-y,1/2+z
3 1/2+x,1/2+y,z
4 1/2+x,1/2-y,1/2+z
_cell_length_a                   12.9666(9)
_cell_length_b                   20.1452(14)
_cell_length_c                   11.7021(8)
_cell_angle_alpha                90
_cell_angle_beta                 110.0200(10)
_cell_angle_gamma                90
_cell_volume                     2872.05
loop_
_atom_site_label
_atom_site_type_symbol
_atom_site_fract_x
_atom_site_fract_y
_atom_site_fract_z
Ag1 Ag 0.95944(4) -0.013421(19) 0.11174(4)
Au1 Au 0.945547(11) 0.021361(9) 0.353961(12)
C1 C 0.7915(5) 0.0395(3) 0.2468(5)
C2 C 0.6296(5) 0.0845(3) 0.1328(6)
H1 H 0.5734 0.1166 0.1007
C3 C 0.6268(5) 0.0203(3) 0.0985(6)
H2 H 0.5683 -0.0019 0.0386
C4 C 0.7589(5) -0.0752(3) 0.1730(5)
C5 C 0.7066(5) -0.1202(3) 0.2262(6)
C6 C 0.7443(6) -0.1858(3) 0.2338(6)
H3 H 0.7121 -0.2192 0.2681
C7 C 0.8291(7) -0.2021(4) 0.1911(7)
H4 H 0.8550 -0.2465 0.1962
C8 C 0.8751(6) -0.1533(3) 0.1412(6)
H5 H 0.9321 -0.1648 0.1110
C9 C 0.7655(6) 0.1584(3) 0.2864(6)
H6 H 0.8433 0.1654 0.2984
H7 H 0.7552 0.1575 0.3655
H8 H 0.7221 0.1947 0.2372
C10 C 0.6205(6) -0.1002(4) 0.2773(7)
H9 H 0.6418 -0.0585 0.3222
H10 H 0.6125 -0.1349 0.3325
H11 H 0.5504 -0.0942 0.2109
C11 C 1.1017(5) 0.0027(3) -0.0511(5)
C12 C 1.2864(5) 0.0012(3) 0.0257(5)
H12 H 1.3601 -0.0132 0.0438
C13 C 1.2526(5) 0.0587(3) 0.0641(5)
H13 H 1.2981 0.0918 0.1146
C14 C 1.0689(5) 0.1116(3) 0.0267(5)
C15 C 1.0855(6) 0.1770(3) -0.0046(6)
C16 C 1.0105(6) 0.2234(3) 0.0080(6)
H14 H 1.0192 0.2688 -0.0090
C17 C 0.9254(6) 0.2055(3) 0.0438(6)
H15 H 0.8744 0.2378 0.0504
C18 C 0.9138(5) 0.1390(3) 0.0707(5)
H16 H 0.8535 0.1260 0.0942
C19 C 1.1915(5) -0.0931(3) -0.1112(5)
H17 H 1.1211 -0.1156 -0.1268
H18 H 1.2012 -0.0826 -0.1887
H19 H 1.2513 -0.1221 -0.0631
C20 C 1.1689(7) 0.1962(4) -0.0611(7)
H20 H 1.1706 0.2446 -0.0681
H21 H 1.1492 0.1762 -0.1421
H22 H 1.2414 0.1802 -0.0100
C21 C 1.2264(5) -0.0766(3) 0.2468(5)
C22 C 1.3367(5) -0.1061(3) 0.2899(6)
H23 H 1.3528 -0.1235 0.3733
H24 H 1.3917 -0.0714 0.2928
C23 C 1.3459(6) -0.1613(3) 0.2079(7)
H25 H 1.4088 -0.1894 0.2511
H26 H 1.3561 -0.1426 0.1353
H27 H 1.2786 -0.1880 0.1839
N1 N 0.7290(4) 0.0946(2) 0.2230(5)
N2 N 0.7273(4) -0.0065(2) 0.1689(5)
N3 N 0.8411(4) -0.0892(2) 0.1341(4)
N4 N 1.1931(4) -0.0319(2) -0.0441(4)
N5 N 1.1392(4) 0.0593(3) 0.0152(5)
N6 N 0.9871(4) 0.0926(3) 0.0640(4)
N7 N 1.1397(5) -0.0550(3) 0.2112(5)
Ag1A Ag 0.95944(4) 0.013421(19) 0.61174(4)
Au1A Au 0.945547(11) -0.021361(9) -0.146039(12)
C11A C 1.1017(5) -0.0027(3) 0.4489(5)
B1 B 0.4768(6) 0.1039(4) 0.3693(7)
F1 F 0.4557(4) 0.1084(2) 0.4776(4)
F2 F 0.5842(4) 0.1215(3) 0.3938(5)
F3 F 0.4073(4) 0.1462(2) 0.2846(4)
F4 F 0.4576(6) 0.0399(2) 0.3270(5)
B2 B 0.5619(7) 0.2566(4) 0.9787(9)
F5 F 0.6601(4) 0.2233(3) 1.0047(5)
F6 F 0.4827(4) 0.2144(2) 0.9938(5)
F7 F 0.5742(6) 0.3124(3) 1.0440(7)
F8 F 0.5323(5) 0.2745(3) 0.8540(6)
loop_
_geom_bond_atom_site_label_1
_geom_bond_atom_site_label_2
_geom_bond_site_symmetry_1
_geom_bond_site_symmetry_2
Ag1 Au1 1_555 1_555
Au1 C1 1_555 1_555
B1 F1 1_555 1_555
B2 F5 1_555 1_555
C1 N1 1_555 1_555
C2 H1 1_555 1_555
C3 C2 1_555 1_555
H2 C3 1_555 1_555
C4 C5 1_555 1_555
C5 C6 1_555 1_555
C6 H3 1_555 1_555
C7 C6 1_555 1_555
H4 C7 1_555 1_555
C8 C7 1_555 1_555
H5 C8 1_555 1_555
C9 H6 1_555 1_555
H7 C9 1_555 1_555
H8 C9 1_555 1_555
C10 C5 1_555 1_555
H9 C10 1_555 1_555
H10 C10 1_555 1_555
H11 C10 1_555 1_555
C11 N4 1_555 1_555
C12 H12 1_555 1_555
C13 C12 1_555 1_555
H13 C13 1_555 1_555
C14 C15 1_555 1_555
C15 C16 1_555 1_555
C16 H14 1_555 1_555
C17 C16 1_555 1_555
H15 C17 1_555 1_555
C18 C17 1_555 1_555
H16 C18 1_555 1_555
C19 H17 1_555 1_555
H18 C19 1_555 1_555
H19 C19 1_555 1_555
C20 C15 1_555 1_555
H20 C20 1_555 1_555
H21 C20 1_555 1_555
H22 C20 1_555 1_555
C21 C22 1_555 1_555
C22 H23 1_555 1_555
H24 C22 1_555 1_555
C23 C22 1_555 1_555
H25 C23 1_555 1_555
H26 C23 1_555 1_555
H27 C23 1_555 1_555
F2 B1 1_555 1_555
F3 B1 1_555 1_555
F4 B1 1_555 1_555
F6 B2 1_555 1_555
F7 B2 1_555 1_555
F8 B2 1_555 1_555
N1 C2 1_555 1_555
N2 C1 1_555 1_555
N3 Ag1 1_555 1_555
N4 C12 1_555 1_555
N5 C11 1_555 1_555
N6 Ag1 1_555 1_555
N7 Ag1 1_555 1_555
Ag1A Au1 1_555 1_555
Au1A Ag1 1_555 1_555
C11A Au1 1_555 1_555
C3 N2 1_555 1_555
C4 N2 1_555 1_555
C4 N3 1_555 1_555
C8 N3 1_555 1_555
C9 N1 1_555 1_555
C11 Au1A 1_555 1_555
C13 N5 1_555 1_555
C14 N5 1_555 1_555
C14 N6 1_555 1_555
C18 N6 1_555 1_555
C19 N4 1_555 1_555
C21 N7 1_555 1_555

#END
