
#######################################################################
#
#                 Cambridge Crystallographic Data Centre
#                                CCDC 
#
#######################################################################
#
# If this CIF has been generated from an entry in the Cambridge 
# Structural Database, then it will include bibliographic, chemical, 
# crystal, experimental, refinement or atomic coordinate data resulting 
# from the CCDC's data processing and validation procedures.
#
#######################################################################

data_PIKZEP
_symmetry_cell_setting           triclinic
_symmetry_space_group_name_H-M   'P -1'
_symmetry_Int_Tables_number      2
_space_group_name_Hall           '-P 1'
loop_
_symmetry_equiv_pos_site_id
_symmetry_equiv_pos_as_xyz
1 x,y,z
2 -x,-y,-z
_cell_length_a                   7.917(3)
_cell_length_b                   10.416(3)
_cell_length_c                   11.357(5)
_cell_angle_alpha                75.58(5)
_cell_angle_beta                 70.66(3)
_cell_angle_gamma                81.11(4)
_cell_volume                     853.184
loop_
_atom_site_label
_atom_site_type_symbol
_atom_site_fract_x
_atom_site_fract_y
_atom_site_fract_z
Ag1 Ag 0.19529(2) 0.921735(16) -0.001479(15)
N1 N 0.2938(2) 1.03785(17) 0.09097(16)
N2 N 0.4846(2) 1.04341(17) 0.44581(16)
N3 N 0.1510(2) 0.79723(18) -0.11309(17)
N4 N 0.0213(2) 0.97670(19) -0.44279(17)
C1 C 0.3153(3) 1.1678(2) 0.0438(2)
H1 H 0.2888 1.2083 -0.0335
C2 C 0.3746(3) 1.2454(2) 0.1027(2)
H2 H 0.3873 1.3373 0.0663
C3 C 0.4149(3) 1.1887(2) 0.2139(2)
H3 H 0.4535 1.2406 0.2568
C4 C 0.3977(3) 1.0527(2) 0.26239(19)
C5 C 0.3354(3) 0.9823(2) 0.19818(19)
H4 H 0.3218 0.8901 0.2322
C6 C 0.4383(3) 0.9820(2) 0.37887(19)
H5 H 0.4301 0.8885 0.4054
C7 C 0.1646(3) 0.6635(2) -0.0804(2)
H6 H 0.1888 0.6218 -0.0025
C8 C 0.1449(3) 0.5847(2) -0.1553(2)
H7 H 0.1562 0.4906 -0.1294
C9 C 0.1085(3) 0.6436(2) -0.2681(2)
H8 H 0.0950 0.5910 -0.3213
C10 C 0.0921(3) 0.7817(2) -0.3023(2)
C11 C 0.1164(3) 0.8541(2) -0.2224(2)
H9 H 0.1079 0.9484 -0.2468
C12 C 0.0484(3) 0.8502(2) -0.4185(2)
H10 H 0.0402 0.8008 -0.4761
Ag1A Ag 0.80471(2) 1.078265(16) 1.001479(15)
Ag1A_2 Ag -0.19529(2) 1.078265(16) 0.001479(15)
Ag1A_3 Ag -0.19529(2) 1.078265(16) -0.998521(15)
Ag1_2 Ag 1.19529(2) 0.921735(16) 0.998521(15)
N1A N 0.7062(2) 0.96215(17) 0.90903(16)
N2A N 0.5154(2) 0.95659(17) 0.55419(16)
N3A N -0.1510(2) 1.20277(18) -0.88691(17)
N3A_2 N 0.8490(2) 1.20277(18) 1.11309(17)
N4A N -0.0213(2) 1.02330(19) -0.55721(17)
C1A C 0.6847(3) 0.8322(2) 0.9562(2)
H1A H 0.7112 0.7917 1.0335
C2A C 0.6254(3) 0.7546(2) 0.8973(2)
H2A H 0.6127 0.6627 0.9337
C3A C 0.5851(3) 0.8113(2) 0.7861(2)
H3A H 0.5465 0.7594 0.7432
C4A C 0.6023(3) 0.9473(2) 0.73761(19)
C5A C 0.6646(3) 1.0177(2) 0.80182(19)
H4A H 0.6782 1.1099 0.7678
C6A C 0.5617(3) 1.0180(2) 0.62113(19)
H5A H 0.5699 1.1115 0.5946
C7A C -0.1646(3) 1.3365(2) -0.9196(2)
H6A H -0.1888 1.3782 -0.9975
C8A C -0.1449(3) 1.4153(2) -0.8447(2)
H7A H -0.1562 1.5094 -0.8706
C9A C -0.1085(3) 1.3564(2) -0.7319(2)
H8A H -0.0950 1.4090 -0.6787
C10A C -0.0921(3) 1.2183(2) -0.6977(2)
C11A C -0.1164(3) 1.1459(2) -0.7776(2)
H9A H -0.1079 1.0516 -0.7532
C12A C -0.0484(3) 1.1498(2) -0.5815(2)
H10A H -0.0402 1.1992 -0.5239
P1 P 0.35231(8) 0.57251(5) 0.27956(5)
F1 F 0.2394(2) 0.68371(14) 0.20476(16)
F2 F 0.4462(2) 0.51518(15) 0.15379(14)
F3 F 0.1968(2) 0.47507(15) 0.32092(16)
F4 F 0.2591(2) 0.63135(17) 0.40388(15)
F5 F 0.46592(19) 0.46138(14) 0.35278(14)
F6 F 0.50926(19) 0.66944(14) 0.23800(14)
N5 N -0.1325(3) 0.84620(19) 0.17805(19)
C13 C -0.1674(3) 0.7765(2) 0.2742(2)
C14 C -0.2150(3) 0.6882(2) 0.3989(2)
H11 H -0.2694 0.7407 0.4647
H12 H -0.1068 0.6364 0.4137
H13 H -0.3009 0.6278 0.4027
loop_
_geom_bond_atom_site_label_1
_geom_bond_atom_site_label_2
_geom_bond_site_symmetry_1
_geom_bond_site_symmetry_2
Ag1 N1 1_555 1_555
P1 F1 1_555 1_555
F2 P1 1_555 1_555
F3 P1 1_555 1_555
F4 P1 1_555 1_555
F5 P1 1_555 1_555
F6 P1 1_555 1_555
N1 C1 1_555 1_555
N2 C6 1_555 1_555
N3 Ag1 1_555 1_555
N4 C12 1_555 1_555
N5 C13 1_555 1_555
C1 H1 1_555 1_555
C2 C1 1_555 1_555
H2 C2 1_555 1_555
C3 C2 1_555 1_555
H3 C3 1_555 1_555
C4 C3 1_555 1_555
C5 N1 1_555 1_555
H4 C5 1_555 1_555
C6 C4 1_555 1_555
H5 C6 1_555 1_555
C7 N3 1_555 1_555
H6 C7 1_555 1_555
C8 C7 1_555 1_555
H7 C8 1_555 1_555
C9 C8 1_555 1_555
H8 C9 1_555 1_555
C10 C9 1_555 1_555
C11 N3 1_555 1_555
H9 C11 1_555 1_555
C12 C10 1_555 1_555
H10 C12 1_555 1_555
C13 C14 1_555 1_555
C14 H11 1_555 1_555
H12 C14 1_555 1_555
H13 C14 1_555 1_555
Ag1A Ag1_2 1_555 1_555
Ag1A_2 Ag1 1_555 1_555
Ag1A_3 N3A 1_555 1_555
N1A Ag1A 1_555 1_555
N2A N2 1_555 1_555
N3A C7A 1_555 1_555
N3A_2 Ag1A 1_555 1_555
N4A N4 1_555 1_555
C1A N1A 1_555 1_555
H1A C1A 1_555 1_555
C2A C1A 1_555 1_555
H2A C2A 1_555 1_555
C3A C2A 1_555 1_555
H3A C3A 1_555 1_555
C4A C3A 1_555 1_555
C5A N1A 1_555 1_555
H4A C5A 1_555 1_555
C6A N2A 1_555 1_555
H5A C6A 1_555 1_555
C7A H6A 1_555 1_555
C8A C7A 1_555 1_555
H7A C8A 1_555 1_555
C9A C8A 1_555 1_555
H8A C9A 1_555 1_555
C10A C9A 1_555 1_555
C11A N3A 1_555 1_555
H9A C11A 1_555 1_555
C12A N4A 1_555 1_555
H10A C12A 1_555 1_555
C4 C5 1_555 1_555
C10 C11 1_555 1_555
C4A C5A 1_555 1_555
C4A C6A 1_555 1_555
C10A C11A 1_555 1_555
C10A C12A 1_555 1_555

#END
