
#######################################################################
#
#                 Cambridge Crystallographic Data Centre
#                                CCDC 
#
#######################################################################
#
# If this CIF has been generated from an entry in the Cambridge 
# Structural Database, then it will include bibliographic, chemical, 
# crystal, experimental, refinement or atomic coordinate data resulting 
# from the CCDC's data processing and validation procedures.
#
#######################################################################

data_PILBER
_symmetry_cell_setting           monoclinic
_symmetry_space_group_name_H-M   'C 2/c'
_symmetry_Int_Tables_number      15
_space_group_name_Hall           '-C 2yn'
loop_
_symmetry_equiv_pos_site_id
_symmetry_equiv_pos_as_xyz
1 x,y,z
2 -x,y,1/2-z
3 1/2+x,1/2+y,z
4 1/2-x,1/2+y,1/2-z
5 -x,-y,-z
6 x,-y,1/2+z
7 1/2-x,1/2-y,-z
8 1/2+x,1/2-y,1/2+z
_cell_length_a                   16.265(2)
_cell_length_b                   12.539(2)
_cell_length_c                   17.450(3)
_cell_angle_alpha                90
_cell_angle_beta                 123.93(1)
_cell_angle_gamma                90
_cell_volume                     2952.87
loop_
_atom_site_label
_atom_site_type_symbol
_atom_site_fract_x
_atom_site_fract_y
_atom_site_fract_z
Mn1 Mn 0.2500 0.2500 0.0000
N1 N 0.1533(4) 0.3549(5) -0.1288(4)
N2 N 0.0000 0.6584(8) -0.2500
N3 N 0.1264(4) 0.2074(4) -0.0152(3)
N4 N 0.1095(4) 0.3495(5) 0.0697(4)
N5 N 0.2619(4) 0.3716(4) 0.0760(3)
N6 N 0.4158(4) 0.4484(4) 0.1121(4)
C1 C 0.0842(5) 0.4003(6) -0.1824(5)
C2 C 0.0000 0.4576(8) -0.2500
C3 C 0.0000 0.5686(9) -0.2500
C4 C 0.0797(5) 0.2615(7) 0.0197(4)
C5 C 0.1915(5) 0.4005(5) 0.0929(4)
C6 C 0.3356(5) 0.4481(5) 0.1131(4)
C7 C 0.0674(5) 0.1225(6) -0.0678(4)
C8 C -0.0119(5) 0.2077(5) -0.0100(5)
C9 C -0.0214(5) 0.1240(5) -0.0661(4)
C10 C -0.1034(5) 0.0573(5) -0.1069(5)
C11 C -0.1754(5) 0.0797(6) -0.0897(5)
C12 C -0.1644(5) 0.1628(6) -0.0318(5)
C13 C -0.0823(5) 0.2283(6) 0.0087(5)
C14 C 0.2230(5) 0.5017(6) 0.1434(4)
C15 C 0.3110(5) 0.5307(5) 0.1541(4)
C16 C 0.3582(5) 0.6243(6) 0.1982(5)
C17 C 0.3148(5) 0.6879(5) 0.2302(5)
C18 C 0.2264(6) 0.6575(6) 0.2201(5)
C19 C 0.1796(5) 0.5653(6) 0.1763(5)
H1 H -0.1096 -0.0022 -0.1474
H2 H -0.2356 0.0359 -0.1200
H3 H -0.2166 0.1746 -0.0223
H4 H -0.0747 0.2862 0.0495
H5 H 0.4198 0.6468 0.2046
H6 H 0.3476 0.7533 0.2656
H7 H 0.1958 0.7056 0.2420
H8 H 0.1169 0.5435 0.1687
C1A C -0.0842(5) 0.4003(6) -0.3176(5)
N1A N -0.1533(4) 0.3549(5) -0.3712(4)
C7F C 0.4326(5) 0.3775(6) 0.0678(4)
N3F N 0.3736(4) 0.2926(4) 0.0152(3)
C4F C 0.4203(5) 0.2385(7) -0.0197(4)
N4F N 0.3905(4) 0.1505(5) -0.0697(4)
C5F C 0.3085(5) 0.0995(5) -0.0929(4)
N5F N 0.2381(4) 0.1284(4) -0.0760(3)
C6F C 0.1644(5) 0.0519(5) -0.1131(4)
N6F N 0.0842(4) 0.0516(4) -0.1121(4)
C15F C 0.1890(5) -0.0307(5) -0.1541(4)
C14F C 0.2770(5) -0.0017(6) -0.1434(4)
C19F C 0.3204(5) -0.0653(6) -0.1763(5)
C18F C 0.2736(6) -0.1575(6) -0.2201(5)
C17F C 0.1852(5) -0.1879(5) -0.2302(5)
C16F C 0.1418(5) -0.1243(6) -0.1982(5)
H5F H 0.0802 -0.1468 -0.2046
H6F H 0.1524 -0.2533 -0.2656
H7F H 0.3042 -0.2056 -0.2420
H8F H 0.3831 -0.0435 -0.1687
C8F C 0.5119(5) 0.2923(5) 0.0100(5)
C9F C 0.5214(5) 0.3760(5) 0.0661(4)
C10F C 0.6034(5) 0.4427(5) 0.1069(5)
C11F C 0.6754(5) 0.4203(6) 0.0897(5)
C12F C 0.6644(5) 0.3372(6) 0.0318(5)
C13F C 0.5823(5) 0.2717(6) -0.0087(5)
H4F H 0.5747 0.2138 -0.0495
H3F H 0.7166 0.3254 0.0223
H2F H 0.7356 0.4641 0.1200
H1F H 0.6096 0.5022 0.1474
N1F N 0.3467(4) 0.1451(5) 0.1288(4)
Mn1A Mn -0.2500 0.2500 -0.5000
loop_
_geom_bond_atom_site_label_1
_geom_bond_atom_site_label_2
_geom_bond_site_symmetry_1
_geom_bond_site_symmetry_2
Mn1 N1 1_555 1_555
N1 C1 1_555 1_555
N2 C3 1_555 1_555
N3 Mn1 1_555 1_555
N4 C4 1_555 1_555
N5 Mn1 1_555 1_555
N6 C6 1_555 1_555
C1 C2 1_555 1_555
C2 C3 1_555 1_555
C4 N3 1_555 1_555
C5 N4 1_555 1_555
C6 N5 1_555 1_555
C7 N3 1_555 1_555
C8 C4 1_555 1_555
C9 C7 1_555 1_555
C10 C9 1_555 1_555
C11 C10 1_555 1_555
C12 C11 1_555 1_555
C13 C8 1_555 1_555
C14 C5 1_555 1_555
C15 C6 1_555 1_555
C16 C15 1_555 1_555
C17 C16 1_555 1_555
C18 C17 1_555 1_555
C19 C14 1_555 1_555
H1 C10 1_555 1_555
H2 C11 1_555 1_555
H3 C12 1_555 1_555
H4 C13 1_555 1_555
H5 C16 1_555 1_555
H6 C17 1_555 1_555
H7 C18 1_555 1_555
H8 C19 1_555 1_555
C1A C2 1_555 1_555
N1A C1A 1_555 1_555
C7F N6 1_555 1_555
N3F Mn1 1_555 1_555
C4F N3F 1_555 1_555
N4F C4F 1_555 1_555
C5F N4F 1_555 1_555
N5F Mn1 1_555 1_555
C6F N5F 1_555 1_555
N6F C7 1_555 1_555
C15F C6F 1_555 1_555
C14F C5F 1_555 1_555
C19F C14F 1_555 1_555
C18F C19F 1_555 1_555
C17F C18F 1_555 1_555
C16F C15F 1_555 1_555
H5F C16F 1_555 1_555
H6F C17F 1_555 1_555
H7F C18F 1_555 1_555
H8F C19F 1_555 1_555
C8F C4F 1_555 1_555
C9F C7F 1_555 1_555
C10F C9F 1_555 1_555
C11F C10F 1_555 1_555
C12F C11F 1_555 1_555
C13F C8F 1_555 1_555
H4F C13F 1_555 1_555
H3F C12F 1_555 1_555
H2F C11F 1_555 1_555
H1F C10F 1_555 1_555
N1F Mn1 1_555 1_555
Mn1A N1A 1_555 1_555
N5 C5 1_555 1_555
C8 C9 1_555 1_555
C12 C13 1_555 1_555
C14 C15 1_555 1_555
C18 C19 1_555 1_555
C7F N3F 1_555 1_555
C5F N5F 1_555 1_555
C6F N6F 1_555 1_555
C15F C14F 1_555 1_555
C17F C16F 1_555 1_555
C8F C9F 1_555 1_555
C12F C13F 1_555 1_555

#END
