
#######################################################################
#
#                 Cambridge Crystallographic Data Centre
#                                CCDC 
#
#######################################################################
#
# If this CIF has been generated from an entry in the Cambridge 
# Structural Database, then it will include bibliographic, chemical, 
# crystal, experimental, refinement or atomic coordinate data resulting 
# from the CCDC's data processing and validation procedures.
#
#######################################################################

data_PILHID
_symmetry_cell_setting           orthorhombic
_symmetry_space_group_name_H-M   'P c c n'
_symmetry_Int_Tables_number      56
_space_group_name_Hall           '-P 2ab 2ac'
loop_
_symmetry_equiv_pos_site_id
_symmetry_equiv_pos_as_xyz
1 x,y,z
2 1/2-x,1/2-y,z
3 1/2+x,-y,1/2-z
4 -x,1/2+y,1/2-z
5 -x,-y,-z
6 1/2+x,1/2+y,-z
7 1/2-x,y,1/2+z
8 x,1/2-y,1/2+z
_cell_length_a                   13.3529(3)
_cell_length_b                   18.1097(4)
_cell_length_c                   16.2065(4)
_cell_angle_alpha                90
_cell_angle_beta                 90
_cell_angle_gamma                90
_cell_volume                     3919.01
loop_
_atom_site_label
_atom_site_type_symbol
_atom_site_fract_x
_atom_site_fract_y
_atom_site_fract_z
C1 C 0.2646(2) 0.63982(17) 0.9690(2)
H1 H 0.2805 0.6921 0.9684
H2 H 0.2244 0.6291 0.9207
N1 N -0.09605(16) 0.71076(12) 1.04098(13)
O1 O 0.2500 0.2500 0.8239(2)
C2 C 0.2041(2) 0.6222(2) 1.0464(2)
H3 H 0.1995 0.5690 1.0527
H4 H 0.2390 0.6416 1.0942
C3 C 0.0992(2) 0.65443(17) 1.04376(17)
C4 C 0.3812(2) 0.46407(15) 1.01639(17)
H5 H 0.4224 0.4810 1.0587
C5 C 0.2624(2) 0.41011(15) 0.89654(17)
H6 H 0.2212 0.3919 0.8550
C6 C 0.35919(19) 0.39005(15) 1.01061(17)
H7 H 0.3870 0.3578 1.0490
C7 C 0.2824(2) 0.48422(16) 0.89811(18)
H8 H 0.2557 0.5150 0.8578
O2 O 0.2500 0.2500 1.08511(18)
C8 C -0.0234(2) 0.74278(15) 1.08494(18)
H9 H -0.0390 0.7850 1.1150
C9 C -0.0698(2) 0.65093(16) 0.99669(17)
H10 H -0.1185 0.6278 0.9648
C10 C 0.0256(2) 0.62241(18) 0.99635(19)
H11 H 0.0404 0.5814 0.9640
C11 C 0.0735(2) 0.71662(17) 1.08805(18)
H12 H 0.1212 0.7408 1.1199
H13 H 0.225(3) 0.278(2) 1.108(2)
H14 H 0.288(3) 0.267(3) 0.800(2)
Co1 Co 0.2500 0.2500 0.95577(3)
N2 N 0.29929(17) 0.36253(12) 0.95185(13)
C12 C 0.34256(19) 0.51349(15) 0.95978(17)
C13 C 0.3618(2) 0.59524(16) 0.9649(2)
H15 H 0.3999 0.6106 0.9169
H16 H 0.4017 0.6056 1.0135
H14A H 0.212(3) 0.233(3) 0.800(2)
H13A H 0.275(3) 0.222(2) 1.108(2)
C1A C 0.2354(2) -0.13982(17) 0.9690(2)
H1A H 0.2195 -0.1921 0.9684
H2A H 0.2756 -0.1291 0.9207
N1A N 0.59605(16) -0.21076(12) 1.04098(13)
C2A C 0.2959(2) -0.1222(2) 1.0464(2)
H3A H 0.3005 -0.0690 1.0527
H4A H 0.2610 -0.1416 1.0942
C3A C 0.4008(2) -0.15443(17) 1.04376(17)
C4A C 0.1188(2) 0.03593(15) 1.01639(17)
H5A H 0.0776 0.0190 1.0587
C5A C 0.2376(2) 0.08989(15) 0.89654(17)
H6A H 0.2788 0.1081 0.8550
C6A C 0.14081(19) 0.10995(15) 1.01061(17)
H7A H 0.1130 0.1422 1.0490
C7A C 0.2176(2) 0.01578(16) 0.89811(18)
H8A H 0.2443 -0.0150 0.8578
C8A C 0.5234(2) -0.24278(15) 1.08494(18)
H9A H 0.5390 -0.2850 1.1150
C9A C 0.5698(2) -0.15093(16) 0.99669(17)
H10A H 0.6185 -0.1278 0.9648
C10A C 0.4744(2) -0.12241(18) 0.99635(19)
H11A H 0.4596 -0.0814 0.9640
C11A C 0.4265(2) -0.21662(17) 1.08805(18)
H12A H 0.3788 -0.2408 1.1199
N2A N 0.20071(17) 0.13747(12) 0.95185(13)
C12A C 0.15744(19) -0.01349(15) 0.95978(17)
C13A C 0.1382(2) -0.09524(16) 0.9649(2)
H15A H 0.1001 -0.1106 0.9169
H16A H 0.0983 -0.1056 1.0135
N1D N 0.09605(16) 0.28924(12) 0.95902(13)
N1E N 0.40395(16) 0.21076(12) 0.95902(13)
Co1D Co -0.2500 0.7500 1.04423(3)
Co1D_2 Co 0.7500 -0.2500 1.04423(3)
C14 C 0.5508(3) 0.5585(2) 0.7608(2)
C15 C 0.6029(3) 0.4940(2) 0.7708(2)
H17 H 0.6688 0.4949 0.7891
C16 C 0.5571(4) 0.4277(2) 0.7535(2)
C17 C 0.4108(3) 0.4906(3) 0.7141(3)
H18 H 0.3456 0.4905 0.6938
O3 O 0.6087(4) 0.3653(2) 0.7625(3)
H19 H 0.5731 0.3301 0.7503
C18 C 0.4530(3) 0.5563(3) 0.7320(2)
H20 H 0.4169 0.5998 0.7250
C19 C 0.4576(3) 0.4246(3) 0.72398(19)
N3 N 0.5958(4) 0.6250(3) 0.7806(2)
O4 O 0.3193(4) 0.3531(3) 0.6868(3)
C20 C 0.4061(6) 0.3532(4) 0.7113(3)
O5 O 0.4568(6) 0.2939(3) 0.7230(3)
H21 H 0.669(4) 0.623(3) 0.800(3)
H22 H 0.562(4) 0.666(2) 0.779(3)
O6 O 0.7500 0.2500 0.7415(13)
loop_
_geom_bond_atom_site_label_1
_geom_bond_atom_site_label_2
_geom_bond_site_symmetry_1
_geom_bond_site_symmetry_2
C1 H1 1_555 1_555
H2 C1 1_555 1_555
N1 C8 1_555 1_555
O1 H14 1_555 1_555
C2 C1 1_555 1_555
H3 C2 1_555 1_555
H4 C2 1_555 1_555
C3 C2 1_555 1_555
C4 H5 1_555 1_555
C5 H6 1_555 1_555
C6 C4 1_555 1_555
H7 C6 1_555 1_555
C7 C5 1_555 1_555
H8 C7 1_555 1_555
O2 H13 1_555 1_555
C8 H9 1_555 1_555
C9 N1 1_555 1_555
H10 C9 1_555 1_555
C10 C3 1_555 1_555
H11 C10 1_555 1_555
C11 C3 1_555 1_555
H12 C11 1_555 1_555
Co1 O1 1_555 1_555
N2 C5 1_555 1_555
C12 C4 1_555 1_555
C13 C1 1_555 1_555
H15 C13 1_555 1_555
H16 C13 1_555 1_555
C14 C15 1_555 1_555
C15 H17 1_555 1_555
C16 C15 1_555 1_555
C17 H18 1_555 1_555
O3 C16 1_555 1_555
H19 O3 1_555 1_555
C18 C14 1_555 1_555
H20 C18 1_555 1_555
C19 C16 1_555 1_555
N3 C14 1_555 1_555
O4 C20 1_555 1_555
C20 C19 1_555 1_555
O5 C20 1_555 1_555
H21 N3 1_555 1_555
H22 N3 1_555 1_555
H14A O1 1_555 1_555
H13A O2 1_555 1_555
C1A H1A 1_555 1_555
H2A C1A 1_555 1_555
N1A C8A 1_555 1_555
C2A C1A 1_555 1_555
H3A C2A 1_555 1_555
H4A C2A 1_555 1_555
C3A C2A 1_555 1_555
C4A H5A 1_555 1_555
C5A H6A 1_555 1_555
C6A C4A 1_555 1_555
H7A C6A 1_555 1_555
C7A C5A 1_555 1_555
H8A C7A 1_555 1_555
C8A H9A 1_555 1_555
C9A N1A 1_555 1_555
H10A C9A 1_555 1_555
C10A C3A 1_555 1_555
H11A C10A 1_555 1_555
C11A C3A 1_555 1_555
H12A C11A 1_555 1_555
N2A Co1 1_555 1_555
C12A C4A 1_555 1_555
C13A C1A 1_555 1_555
H15A C13A 1_555 1_555
H16A C13A 1_555 1_555
N1D Co1 1_555 1_555
N1E Co1 1_555 1_555
Co1D N1 1_555 1_555
Co1D_2 N1A 1_555 1_555
C6 N2 1_555 1_555
C7 C12 1_555 1_555
O2 Co1 1_555 1_555
C8 C11 1_555 1_555
C9 C10 1_555 1_555
Co1 N2 1_555 1_555
C12 C13 1_555 1_555
C17 C18 1_555 1_555
C17 C19 1_555 1_555
C5A N2A 1_555 1_555
C6A N2A 1_555 1_555
C7A C12A 1_555 1_555
C8A C11A 1_555 1_555
C9A C10A 1_555 1_555
C12A C13A 1_555 1_555

#END
