
#######################################################################
#
#                 Cambridge Crystallographic Data Centre
#                                CCDC 
#
#######################################################################
#
# If this CIF has been generated from an entry in the Cambridge 
# Structural Database, then it will include bibliographic, chemical, 
# crystal, experimental, refinement or atomic coordinate data resulting 
# from the CCDC's data processing and validation procedures.
#
#######################################################################

data_PILHUP
_symmetry_cell_setting           triclinic
_symmetry_space_group_name_H-M   'P -1'
_symmetry_Int_Tables_number      2
_space_group_name_Hall           '-P 1'
loop_
_symmetry_equiv_pos_site_id
_symmetry_equiv_pos_as_xyz
1 x,y,z
2 -x,-y,-z
_cell_length_a                   5.5443(9)
_cell_length_b                   9.2707(6)
_cell_length_c                   11.500(2)
_cell_angle_alpha                99.7370(10)
_cell_angle_beta                 100.8660(10)
_cell_angle_gamma                94.823(2)
_cell_volume                     568.014
loop_
_atom_site_label
_atom_site_type_symbol
_atom_site_fract_x
_atom_site_fract_y
_atom_site_fract_z
C1 C 0.0394(5) 0.2471(3) 0.2139(2)
H1 H -0.1222 0.2631 0.1843
C2 C 0.3878(6) 0.1657(4) 0.2289(3)
H2 H 0.5159 0.1133 0.2105
C3 C 0.4012(6) 0.2635(4) 0.3320(3)
H3 H 0.5356 0.2896 0.3966
C4 C 0.0903(5) 0.4125(3) 0.4127(2)
C5 C 0.1258(6) 0.3852(3) 0.5286(3)
H4 H 0.2113 0.3075 0.5479
C6 C -0.0350(6) 0.5272(3) 0.3835(3)
H5 H -0.0588 0.5459 0.3055
C7 C 0.1803(5) -0.2577(3) 0.1087(2)
C8 C 0.3567(5) -0.3751(3) 0.1158(3)
H6 H 0.5088 -0.3327 0.1725
H7 H 0.2829 -0.4550 0.1472
C9 C 0.4196(5) -0.4383(3) -0.0046(3)
H8 H 0.2675 -0.4752 -0.0631
H9 H 0.5050 -0.3602 -0.0334
Cu1 Cu 0.0000 0.0000 0.0000
N1 N 0.1614(4) 0.1546(2) 0.15577(19)
N2 N 0.1758(4) 0.3166(2) 0.3221(2)
O1 O 0.2286(3) -0.15655(19) 0.05211(16)
O2 O 0.0022(4) -0.2675(2) 0.1590(2)
O3 O -0.2656(3) -0.06496(19) 0.09347(16)
H10 H -0.4009 -0.0852 0.0473
H11 H -0.2143 -0.1315 0.1247
C1A C -0.0394(5) 0.7529(3) 0.7861(2)
H1A H 0.1222 0.7369 0.8157
C2A C -0.3878(6) 0.8343(4) 0.7711(3)
H2A H -0.5159 0.8867 0.7895
C3A C -0.4012(6) 0.7365(4) 0.6680(3)
H3A H -0.5356 0.7104 0.6034
C4A C -0.0903(5) 0.5875(3) 0.5873(2)
C5A C -0.1258(6) 0.6148(3) 0.4714(3)
H4A H -0.2113 0.6925 0.4521
C6A C 0.0350(6) 0.4728(3) 0.6165(3)
H5A H 0.0588 0.4541 0.6945
N1A N -0.1614(4) 0.8454(2) 0.84423(19)
N2A N -0.1758(4) 0.6834(2) 0.6779(2)
C7A C 0.8197(5) -0.7423(3) -0.1087(2)
C8A C 0.6433(5) -0.6249(3) -0.1158(3)
H6A H 0.4912 -0.6673 -0.1725
H7A H 0.7171 -0.5450 -0.1472
C9A C 0.5804(5) -0.5617(3) 0.0046(3)
H8A H 0.7325 -0.5248 0.0631
H9A H 0.4950 -0.6398 0.0334
O1A O 0.7714(3) -0.84345(19) -0.05211(16)
O2A O 0.9978(4) -0.7325(2) -0.1590(2)
O3A O 0.2656(3) 0.06496(19) -0.09347(16)
H10A H 0.4009 0.0852 -0.0473
H11A H 0.2143 0.1315 -0.1247
Cu1_2 Cu 0.0000 1.0000 1.0000
Cu1_3 Cu 1.0000 -1.0000 0.0000
N1A_2 N -0.1614(4) -0.1546(2) -0.15577(19)
O1A_2 O -0.2286(3) 0.15655(19) -0.05211(16)
loop_
_geom_bond_atom_site_label_1
_geom_bond_atom_site_label_2
_geom_bond_site_symmetry_1
_geom_bond_site_symmetry_2
C1 H1 1_555 1_555
C2 H2 1_555 1_555
C3 C2 1_555 1_555
H3 C3 1_555 1_555
C4 C5 1_555 1_555
C5 H4 1_555 1_555
C6 C4 1_555 1_555
H5 C6 1_555 1_555
C7 C8 1_555 1_555
C8 H6 1_555 1_555
H7 C8 1_555 1_555
C9 C8 1_555 1_555
H8 C9 1_555 1_555
H9 C9 1_555 1_555
Cu1 N1 1_555 1_555
N1 C1 1_555 1_555
N2 C1 1_555 1_555
O1 C7 1_555 1_555
O2 C7 1_555 1_555
O3 Cu1 1_555 1_555
H10 O3 1_555 1_555
H11 O3 1_555 1_555
C1A H1A 1_555 1_555
C2A H2A 1_555 1_555
C3A C2A 1_555 1_555
H3A C3A 1_555 1_555
C4A C5A 1_555 1_555
C5A C6 1_555 1_555
H4A C5A 1_555 1_555
C6A C5 1_555 1_555
H5A C6A 1_555 1_555
N1A C1A 1_555 1_555
N2A C1A 1_555 1_555
C7A C8A 1_555 1_555
C8A H6A 1_555 1_555
H7A C8A 1_555 1_555
C9A C9 1_555 1_555
H8A C9A 1_555 1_555
H9A C9A 1_555 1_555
O1A C7A 1_555 1_555
O2A C7A 1_555 1_555
O3A Cu1 1_555 1_555
H10A O3A 1_555 1_555
H11A O3A 1_555 1_555
Cu1_2 N1A 1_555 1_555
Cu1_3 O1A 1_555 1_555
N1A_2 Cu1 1_555 1_555
O1A_2 Cu1 1_555 1_555
C2 N1 1_555 1_555
C3 N2 1_555 1_555
C4 N2 1_555 1_555
Cu1 O1 1_555 1_555
C2A N1A 1_555 1_555
C3A N2A 1_555 1_555
C4A C6A 1_555 1_555
C4A N2A 1_555 1_555
C8A C9A 1_555 1_555

#END
