
#######################################################################
#
#                 Cambridge Crystallographic Data Centre
#                                CCDC 
#
#######################################################################
#
# If this CIF has been generated from an entry in the Cambridge 
# Structural Database, then it will include bibliographic, chemical, 
# crystal, experimental, refinement or atomic coordinate data resulting 
# from the CCDC's data processing and validation procedures.
#
#######################################################################

data_PILHAV
_symmetry_cell_setting           monoclinic
_symmetry_space_group_name_H-M   'P 21/n'
_symmetry_Int_Tables_number      14
_space_group_name_Hall           '-P 2yn'
loop_
_symmetry_equiv_pos_site_id
_symmetry_equiv_pos_as_xyz
1 x,y,z
2 1/2-x,1/2+y,1/2-z
3 -x,-y,-z
4 1/2+x,1/2-y,1/2+z
_cell_length_a                   8.053(5)
_cell_length_b                   10.132(6)
_cell_length_c                   28.923(18)
_cell_angle_alpha                90
_cell_angle_beta                 89.976(7)
_cell_angle_gamma                90
_cell_volume                     2359.91
loop_
_atom_site_label
_atom_site_type_symbol
_atom_site_fract_x
_atom_site_fract_y
_atom_site_fract_z
Cd1 Cd 0.28746(4) 0.515733(19) 0.136603(11)
N1 N 0.3583(5) 0.4918(3) 0.21072(13)
N2 N 0.3412(6) 0.4040(4) 0.28067(12)
H1 H 0.3017 0.3613 0.3039
N3 N 0.0400(4) 0.5271(3) 0.10257(12)
N4 N -0.2207(5) 0.4709(3) 0.09186(13)
H2 H -0.3153 0.4338 0.0965
O1 O 0.4724(3) 0.3664(2) 0.10663(10)
O2 O 0.2632(3) 0.2605(2) 0.13647(11)
O3 O 0.2835(4) -0.2337(2) 0.14779(8)
O4 O 0.4506(4) -0.3354(3) 0.10096(11)
O5 O 0.0394(4) 0.4402(3) 0.19052(10)
O6 O 0.8273(8) 0.0110(3) 0.0371(3)
C1 C 0.4727(5) 0.1321(3) 0.10201(13)
C2 C 0.6144(6) 0.1298(4) 0.07527(19)
H3 H 0.6613 0.2082 0.0648
C3 C 0.6864(9) 0.0099(4) 0.0640(3)
C4 C 0.6144(6) -0.1058(4) 0.0777(2)
H4 H 0.6622 -0.1860 0.0694
C5 C 0.4706(5) -0.1037(3) 0.10379(13)
C6 C 0.4021(5) 0.0154(3) 0.11586(13)
H5 H 0.3061 0.0171 0.1338
C7 C 0.3972(5) 0.2598(3) 0.11636(13)
C8 C 0.3973(5) -0.2318(3) 0.11894(13)
C9 C 0.5015(7) 0.5221(4) 0.23505(16)
C10 C 0.6378(6) 0.5950(5) 0.22151(17)
H6 H 0.6441 0.6320 0.1921
C11 C 0.7640(7) 0.6109(5) 0.2530(2)
H7 H 0.8578 0.6595 0.2451
C12 C 0.7515(10) 0.5540(7) 0.2971(2)
H8 H 0.8388 0.5645 0.3178
C13 C 0.6161(10) 0.4842(6) 0.3105(2)
H9 H 0.6083 0.4492 0.3401
C14 C 0.4918(8) 0.4669(5) 0.27911(16)
C15 C 0.2660(6) 0.4209(4) 0.23956(14)
C16 C 0.1030(6) 0.3634(4) 0.22704(15)
H10 H 0.1162 0.2724 0.2173
H11 H 0.0283 0.3659 0.2533
C17 C -0.0786(5) 0.3775(4) 0.16099(16)
H12 H -0.1868 0.3745 0.1757
H13 H -0.0440 0.2880 0.1540
C18 C -0.0856(5) 0.4575(4) 0.11824(15)
C19 C -0.1812(5) 0.5552(4) 0.05557(16)
C20 C -0.2708(7) 0.6001(5) 0.01836(17)
H14 H -0.3799 0.5736 0.0133
C21 C -0.1919(7) 0.6851(5) -0.01065(16)
H15 H -0.2495 0.7195 -0.0358
C22 C -0.0281(7) 0.7220(5) -0.00382(15)
H16 H 0.0216 0.7794 -0.0247
C23 C -0.0172(5) 0.5894(4) 0.06282(14)
C24 C 0.0631(6) 0.6760(4) 0.03308(14)
H17 H 0.1727 0.7017 0.0378
Cd1_2 Cd 0.28746(4) -0.484267(19) 0.136603(11)
O3_2 O 0.2835(4) 0.7663(2) 0.14779(8)
O4_2 O 0.4506(4) 0.6646(3) 0.10096(11)
loop_
_geom_bond_atom_site_label_1
_geom_bond_atom_site_label_2
_geom_bond_site_symmetry_1
_geom_bond_site_symmetry_2
Cd1 N1 1_555 1_555
N1 C9 1_555 1_555
N2 H1 1_555 1_555
N3 Cd1 1_555 1_555
N4 H2 1_555 1_555
O1 Cd1 1_555 1_555
O2 Cd1 1_555 1_555
O3 C8 1_555 1_555
O4 C8 1_555 1_555
O5 Cd1 1_555 1_555
O6 C3 1_555 1_555
C1 C2 1_555 1_555
C2 H3 1_555 1_555
C3 C2 1_555 1_555
C4 C3 1_555 1_555
H4 C4 1_555 1_555
C5 C4 1_555 1_555
C6 C1 1_555 1_555
H5 C6 1_555 1_555
C7 O1 1_555 1_555
C8 C5 1_555 1_555
C9 C10 1_555 1_555
C10 H6 1_555 1_555
C11 C10 1_555 1_555
H7 C11 1_555 1_555
C12 C11 1_555 1_555
H8 C12 1_555 1_555
C13 C12 1_555 1_555
H9 C13 1_555 1_555
C14 N2 1_555 1_555
C15 N1 1_555 1_555
C16 O5 1_555 1_555
H10 C16 1_555 1_555
H11 C16 1_555 1_555
C17 O5 1_555 1_555
H12 C17 1_555 1_555
H13 C17 1_555 1_555
C18 N3 1_555 1_555
C19 N4 1_555 1_555
C20 C19 1_555 1_555
H14 C20 1_555 1_555
C21 C20 1_555 1_555
H15 C21 1_555 1_555
C22 C21 1_555 1_555
H16 C22 1_555 1_555
C23 N3 1_555 1_555
C24 C22 1_555 1_555
H17 C24 1_555 1_555
Cd1_2 O3 1_555 1_555
O3_2 Cd1 1_555 1_555
O4_2 Cd1 1_555 1_555
N2 C15 1_555 1_555
N4 C18 1_555 1_555
O2 C7 1_555 1_555
O4 Cd1_2 1_555 1_555
C1 C7 1_555 1_555
C5 C6 1_555 1_555
C9 C14 1_555 1_555
C13 C14 1_555 1_555
C15 C16 1_555 1_555
C17 C18 1_555 1_555
C19 C23 1_555 1_555
C23 C24 1_555 1_555

#END
