
#######################################################################
#
#                 Cambridge Crystallographic Data Centre
#                                CCDC 
#
#######################################################################
#
# If this CIF has been generated from an entry in the Cambridge 
# Structural Database, then it will include bibliographic, chemical, 
# crystal, experimental, refinement or atomic coordinate data resulting 
# from the CCDC's data processing and validation procedures.
#
#######################################################################

data_PILNEF
_symmetry_cell_setting           triclinic
_symmetry_space_group_name_H-M   'P -1'
_symmetry_Int_Tables_number      2
_space_group_name_Hall           '-P 1'
loop_
_symmetry_equiv_pos_site_id
_symmetry_equiv_pos_as_xyz
1 x,y,z
2 -x,-y,-z
_cell_length_a                   10.108(3)
_cell_length_b                   13.897(4)
_cell_length_c                   15.301(4)
_cell_angle_alpha                98.591(4)
_cell_angle_beta                 104.313(4)
_cell_angle_gamma                97.696(3)
_cell_volume                     2026.26
loop_
_atom_site_label
_atom_site_type_symbol
_atom_site_fract_x
_atom_site_fract_y
_atom_site_fract_z
Ru1 Ru 0.49596(7) 0.44111(4) 0.04484(4)
Ru2 Ru 0.49914(7) 0.02854(5) 0.43348(4)
F1 F 0.0124(9) 0.3645(9) -0.0818(11)
F2 F 0.0157(10) 0.5137(10) -0.1031(13)
F3 F 0.0418(12) 0.4157(12) -0.1930(14)
F4 F 0.4991(9) 0.6869(5) 0.2927(4)
F5 F 0.4975(11) 0.7964(5) 0.2079(5)
F6 F 0.3220(17) 0.7109(9) 0.1953(8)
F7 F 0.9059(10) 0.2078(8) 0.7144(9)
F8 F 0.7881(10) 0.3128(7) 0.6551(8)
F9 F 0.9144(10) 0.2461(8) 0.5936(9)
F10 F 0.7807(17) -0.2494(14) 0.4662(11)
F11 F 0.9183(18) -0.1274(15) 0.5303(11)
F12 F 0.8300(15) -0.1629(13) 0.3852(10)
O1 O 0.2821(7) 0.4104(5) -0.0059(5)
O2 O 0.2898(7) 0.5272(5) -0.0922(5)
O3 O 0.4864(8) 0.5480(5) 0.1512(4)
O4 O 0.4941(7) 0.6635(5) 0.0637(4)
O5 O 0.6568(8) 0.1434(5) 0.5072(5)
O6 O 0.6590(8) 0.0880(5) 0.6383(4)
O7 O 0.6493(8) -0.0543(5) 0.4146(5)
O8 O 0.6515(8) -0.1096(6) 0.5450(5)
N1 N 0.4987(8) 0.3201(5) 0.1296(5)
N2 N 0.5049(8) 0.0890(6) 0.3052(5)
C1 C 0.2302(11) 0.4585(7) -0.0633(7)
C2 C 0.076(2) 0.4310(19) -0.101(3)
C3 C 0.4874(11) 0.6344(6) 0.1362(6)
C4 C 0.483(2) 0.7126(10) 0.2155(9)
C5 C 0.7032(11) 0.1457(8) 0.5918(7)
C6 C 0.8255(19) 0.2283(14) 0.6446(16)
C7 C 0.6927(12) -0.1025(8) 0.4753(7)
C8 C 0.808(4) -0.153(3) 0.462(2)
C9 C 0.5018(8) 0.2426(6) 0.1431(5)
C10 C 0.5047(8) 0.1409(6) 0.1519(6)
C11 C 0.5056(8) 0.1151(6) 0.2381(6)
C12 C 0.5033(7) 0.0720(6) 0.0768(5)
C13 C 0.5000(8) 0.0995(6) -0.0109(5)
C14 C 0.5035(8) -0.0305(6) 0.0840(5)
H1 H 0.5004 0.1665 -0.0173
H2 H 0.5063 -0.0497 0.1414
N1A N 0.5013(8) -0.3201(5) -0.1296(5)
N2A N 0.4951(8) -0.0890(6) -0.3052(5)
C9A C 0.4982(8) -0.2426(6) -0.1431(5)
C10A C 0.4953(8) -0.1409(6) -0.1519(6)
C11A C 0.4944(8) -0.1151(6) -0.2381(6)
C12A C 0.4967(7) -0.0720(6) -0.0768(5)
C13A C 0.5000(8) -0.0995(6) 0.0109(5)
C14A C 0.4965(8) 0.0305(6) -0.0840(5)
H1A H 0.4996 -0.1665 0.0173
H2A H 0.4937 0.0497 -0.1414
Ru1A Ru 0.50404(7) -0.44111(4) -0.04484(4)
Ru2A Ru 0.50086(7) -0.02854(5) -0.43348(4)
F1A F 0.9876(9) -0.3645(9) 0.0818(11)
F2A F 0.9843(10) -0.5137(10) 0.1031(13)
F3A F 0.9582(12) -0.4157(12) 0.1930(14)
F4A F 0.5009(9) -0.6869(5) -0.2927(4)
F5A F 0.5025(11) -0.7964(5) -0.2079(5)
F6A F 0.6780(17) -0.7109(9) -0.1953(8)
F7A F 0.0941(10) -0.2078(8) -0.7144(9)
F8A F 0.2119(10) -0.3128(7) -0.6551(8)
F9A F 0.0856(10) -0.2461(8) -0.5936(9)
F10A F 0.2193(17) 0.2494(14) -0.4662(11)
F11A F 0.0817(18) 0.1274(15) -0.5303(11)
F12A F 0.1700(15) 0.1629(13) -0.3852(10)
O1A O 0.7179(7) -0.4104(5) 0.0059(5)
O2A O 0.7102(7) -0.5272(5) 0.0922(5)
O3A O 0.5136(8) -0.5480(5) -0.1512(4)
O4A O 0.5059(7) -0.6635(5) -0.0637(4)
O5A O 0.3432(8) -0.1434(5) -0.5072(5)
O6A O 0.3410(8) -0.0880(5) -0.6383(4)
O7A O 0.3507(8) 0.0543(5) -0.4146(5)
O8A O 0.3485(8) 0.1096(6) -0.5450(5)
C1A C 0.7698(11) -0.4585(7) 0.0633(7)
C2A C 0.924(2) -0.4310(19) 0.101(3)
C3A C 0.5126(11) -0.6344(6) -0.1362(6)
C4A C 0.517(2) -0.7126(10) -0.2155(9)
C5A C 0.2968(11) -0.1457(8) -0.5918(7)
C6A C 0.1745(19) -0.2283(14) -0.6446(16)
C7A C 0.3073(12) 0.1025(8) -0.4753(7)
C8A C 0.192(4) 0.153(3) -0.462(2)
Ru1_2 Ru 0.49596(7) -0.55889(4) 0.04484(4)
Ru1A_2 Ru 0.50404(7) 0.55889(4) -0.04484(4)
Ru2_2 Ru 0.49914(7) 0.02854(5) -0.56652(4)
Ru2A_2 Ru 0.50086(7) -0.02854(5) 0.56652(4)
O2_2 O 0.2898(7) -0.4728(5) -0.0922(5)
O2A_2 O 0.7102(7) 0.4728(5) 0.0922(5)
O4_2 O 0.4941(7) -0.3365(5) 0.0637(4)
O4A_2 O 0.5059(7) 0.3365(5) -0.0637(4)
O6_2 O 0.6590(8) 0.0880(5) -0.3617(4)
O6A_2 O 0.3410(8) -0.0880(5) 0.3617(4)
O8_2 O 0.6515(8) -0.1096(6) -0.4550(5)
O8A_2 O 0.3485(8) 0.1096(6) 0.4550(5)
Cl1 Cl 0.4278(14) 0.3204(6) 0.3586(6)
Cl2 Cl 0.5242(17) 0.5301(8) 0.4467(8)
C15 C 0.429(3) 0.443(3) 0.343(2)
Cl3 Cl 0.6232(17) 0.3459(8) 0.3813(7)
Cl4 Cl 0.7863(10) 0.4984(6) 0.3159(6)
C16 C 0.642(5) 0.466(4) 0.357(4)
C17 C 0.1785(10) 0.1174(9) 0.1456(9)
C18 C 0.1737(10) 0.1539(9) 0.0678(8)
C19 C 0.1709(10) 0.0930(9) -0.0128(8)
C20 C 0.1663(10) 0.1292(9) -0.0976(8)
C21 C 0.1616(10) 0.0700(9) -0.1742(8)
C22 C 0.1624(10) -0.0334(9) -0.1792(8)
C23 C 0.1666(10) -0.0720(9) -0.0984(8)
C24 C 0.1563(11) -0.1042(10) -0.2605(9)
C25 C 0.1555(11) -0.2018(10) -0.2583(9)
C26 C 0.1583(11) -0.2395(10) -0.1800(9)
C27 C 0.1642(10) -0.1756(9) -0.1005(8)
C28 C 0.1690(10) -0.2124(9) -0.0163(8)
C29 C 0.1721(10) -0.1529(9) 0.0606(8)
C30 C 0.1742(10) -0.0496(9) 0.0651(8)
C31 C 0.1708(9) -0.0103(8) -0.0153(8)
C32 C 0.1765(10) 0.0178(9) 0.1466(8)
H3 H 0.1834 0.1612 0.2007
H4 H 0.1722 0.2223 0.0688
H5 H 0.1667 0.1976 -0.0977
H6 H 0.1577 0.0969 -0.2282
H7 H 0.1527 -0.0820 -0.3166
H8 H 0.1529 -0.2455 -0.3130
H9 H 0.1562 -0.3081 -0.1807
H10 H 0.1700 -0.2807 -0.0162
H11 H 0.1730 -0.1799 0.1142
H12 H 0.1766 -0.0062 0.2016
C33 C 0.106(6) 0.428(4) 0.331(4)
Cl5 Cl 0.2021(19) 0.3271(10) 0.3658(9)
Cl6 Cl 0.048(3) 0.439(3) 0.406(3)
F13? F 0.657(4) 0.7620(16) 0.2533(14)
Cl7? Cl 0.863(2) 0.4170(14) 0.4704(10)
C34? C 0.742(4) 0.359(3) 0.445(3)
C35? C 0.287(4) 0.461(3) 0.308(3)
Cl8? Cl 0.2265(9) 0.4089(7) 0.2105(6)
Cl9? Cl 0.1917(15) 0.4351(10) 0.3917(11)
loop_
_geom_bond_atom_site_label_1
_geom_bond_atom_site_label_2
_geom_bond_site_symmetry_1
_geom_bond_site_symmetry_2
Ru1 O1 1_555 1_555
Ru2 O5 1_555 1_555
F1 C2 1_555 1_555
F2 C2 1_555 1_555
F3 C2 1_555 1_555
F4 C4 1_555 1_555
F5 C4 1_555 1_555
F6 C4 1_555 1_555
F7 C6 1_555 1_555
F8 C6 1_555 1_555
F9 C6 1_555 1_555
F10 C8 1_555 1_555
F11 C8 1_555 1_555
F12 C8 1_555 1_555
O1 C1 1_555 1_555
O2 C1 1_555 1_555
O3 Ru1 1_555 1_555
O4 C3 1_555 1_555
O5 C5 1_555 1_555
O6 C5 1_555 1_555
O7 Ru2 1_555 1_555
O8 C7 1_555 1_555
N1 Ru1 1_555 1_555
N2 Ru2 1_555 1_555
C1 C2 1_555 1_555
C3 O3 1_555 1_555
C4 C3 1_555 1_555
C5 C6 1_555 1_555
C7 O7 1_555 1_555
C8 C7 1_555 1_555
C9 N1 1_555 1_555
C10 C9 1_555 1_555
C11 N2 1_555 1_555
C12 C10 1_555 1_555
C13 C12 1_555 1_555
C14 C12 1_555 1_555
H1 C13 1_555 1_555
H2 C14 1_555 1_555
Cl1 C15 1_555 1_555
Cl2 C15 1_555 1_555
Cl3 C16 1_555 1_555
Cl4 C16 1_555 1_555
C17 C18 1_555 1_555
C18 C19 1_555 1_555
C19 C20 1_555 1_555
C20 C21 1_555 1_555
C21 C22 1_555 1_555
C22 C23 1_555 1_555
C23 C27 1_555 1_555
C24 C22 1_555 1_555
C25 C24 1_555 1_555
C26 C25 1_555 1_555
C27 C26 1_555 1_555
C28 C27 1_555 1_555
C29 C28 1_555 1_555
C30 C29 1_555 1_555
C31 C19 1_555 1_555
C32 C17 1_555 1_555
H3 C17 1_555 1_555
H4 C18 1_555 1_555
H5 C20 1_555 1_555
H6 C21 1_555 1_555
H7 C24 1_555 1_555
H8 C25 1_555 1_555
H9 C26 1_555 1_555
H10 C28 1_555 1_555
H11 C29 1_555 1_555
H12 C32 1_555 1_555
C33 Cl5 1_555 1_555
Cl6 C33 1_555 1_555
N1A C9A 1_555 1_555
N2A C11A 1_555 1_555
C9A C10A 1_555 1_555
C10A C11A 1_555 1_555
C12A C10A 1_555 1_555
C13A C14 1_555 1_555
C14A C13 1_555 1_555
H1A C13A 1_555 1_555
H2A C14A 1_555 1_555
Ru1A N1A 1_555 1_555
Ru2A N2A 1_555 1_555
F1A C2A 1_555 1_555
F2A C2A 1_555 1_555
F3A C2A 1_555 1_555
F4A C4A 1_555 1_555
F5A C4A 1_555 1_555
F6A C4A 1_555 1_555
F7A C6A 1_555 1_555
F8A C6A 1_555 1_555
F9A C6A 1_555 1_555
F10A C8A 1_555 1_555
F11A C8A 1_555 1_555
F12A C8A 1_555 1_555
O1A Ru1A 1_555 1_555
O2A C1A 1_555 1_555
O3A Ru1A 1_555 1_555
O4A C3A 1_555 1_555
O5A Ru2A 1_555 1_555
O6A C5A 1_555 1_555
O7A Ru2A 1_555 1_555
O8A C7A 1_555 1_555
C1A O1A 1_555 1_555
C2A C1A 1_555 1_555
C3A O3A 1_555 1_555
C4A C3A 1_555 1_555
C5A O5A 1_555 1_555
C6A C5A 1_555 1_555
C7A O7A 1_555 1_555
C8A C7A 1_555 1_555
Ru1_2 Ru1A 1_555 1_555
Ru1A_2 Ru1 1_555 1_555
Ru2_2 Ru2A 1_555 1_555
Ru2A_2 Ru2 1_555 1_555
O2_2 Ru1A 1_555 1_555
O2A_2 Ru1 1_555 1_555
O4_2 Ru1A 1_555 1_555
O4A_2 Ru1 1_555 1_555
O6_2 Ru2A 1_555 1_555
O6A_2 Ru2 1_555 1_555
O8_2 Ru2A 1_555 1_555
O8A_2 Ru2 1_555 1_555
O2 Ru1A_2 1_555 1_555
O4 Ru1A_2 1_555 1_555
O6 Ru2A_2 1_555 1_555
O8 Ru2A_2 1_555 1_555
C10 C11 1_555 1_555
C23 C31 1_555 1_555
C30 C31 1_555 1_555
C30 C32 1_555 1_555
C12A C13A 1_555 1_555
C12A C14A 1_555 1_555
O2A Ru1_2 1_555 1_555
O4A Ru1_2 1_555 1_555
O6A Ru2_2 1_555 1_555
O8A Ru2_2 1_555 1_555

#END
