
#######################################################################
#
#                 Cambridge Crystallographic Data Centre
#                                CCDC 
#
#######################################################################
#
# If this CIF has been generated from an entry in the Cambridge 
# Structural Database, then it will include bibliographic, chemical, 
# crystal, experimental, refinement or atomic coordinate data resulting 
# from the CCDC's data processing and validation procedures.
#
#######################################################################

data_PILNAB
_symmetry_cell_setting           monoclinic
_symmetry_space_group_name_H-M   'P 21/m'
_symmetry_Int_Tables_number      11
_space_group_name_Hall           '-P 2yb'
loop_
_symmetry_equiv_pos_site_id
_symmetry_equiv_pos_as_xyz
1 x,y,z
2 -x,1/2+y,-z
3 -x,-y,-z
4 x,1/2-y,z
_cell_length_a                   9.895(4)
_cell_length_b                   21.386(7)
_cell_length_c                   20.452(7)
_cell_angle_alpha                90
_cell_angle_beta                 99.418(7)
_cell_angle_gamma                90
_cell_volume                     4269.6
loop_
_atom_site_label
_atom_site_type_symbol
_atom_site_fract_x
_atom_site_fract_y
_atom_site_fract_z
Ru1 Ru 0.97441(9) 0.55017(4) 0.48209(4)
Ru2 Ru 0.50782(9) 0.55222(4) 0.01164(4)
F1 F 0.5704(11) 0.3920(7) 0.4379(7)
F2 F 0.5154(12) 0.4847(7) 0.4295(8)
F3 F 0.5877(12) 0.4471(8) 0.3523(7)
F4 F 0.9292(9) 0.5421(5) 0.7216(4)
F5 F 0.7563(10) 0.5881(4) 0.6638(5)
F6 F 0.7496(9) 0.4908(4) 0.6812(5)
F7 F 0.1876(10) 0.5024(5) 0.1529(5)
F8 F 0.0587(9) 0.5316(4) 0.0643(5)
F9 F 0.0900(9) 0.4346(4) 0.0810(6)
F10 F 0.8711(17) 0.4706(8) 0.1727(7)
F11 F 0.7319(16) 0.4995(5) 0.2260(5)
F12 F 0.7348(15) 0.4049(5) 0.2015(5)
F13 F 0.7717(6) 0.6388(3) 0.3122(3)
F14 F 0.6595(6) 0.6388(3) 0.1860(3)
O1 O 0.7830(8) 0.5203(4) 0.4384(4)
O2 O 0.8318(9) 0.4220(4) 0.4746(4)
O3 O 0.8961(8) 0.5687(4) 0.5669(4)
O4 O 0.9455(9) 0.4700(4) 0.6034(4)
O5 O 0.3320(8) 0.5462(3) 0.0546(4)
O6 O 0.3159(8) 0.4434(3) 0.0309(4)
O7 O 0.6256(9) 0.5308(4) 0.1019(4)
O8 O 0.6067(8) 0.4276(3) 0.0799(4)
N1 N 0.9142(9) 0.6499(4) 0.4500(4)
N2 N 0.5335(9) 0.6530(4) 0.0413(4)
C1 C 0.7531(13) 0.4631(6) 0.4441(6)
C2 C 0.612(2) 0.4421(13) 0.4136(13)
C3 C 0.8963(12) 0.5230(5) 0.6068(6)
C4 C 0.8337(15) 0.5374(7) 0.6707(7)
C5 C 0.2797(12) 0.4925(6) 0.0550(6)
C6 C 0.1525(16) 0.4890(8) 0.0892(9)
C7 C 0.6474(14) 0.4745(5) 0.1151(6)
C8 C 0.732(3) 0.4602(10) 0.1811(10)
C9 C 0.8779(10) 0.6931(5) 0.4204(5)
C10 C 0.8387(13) 0.7500 0.3841(7)
C11 C 0.7800(12) 0.7500 0.3186(7)
C12 C 0.7445(9) 0.6926(4) 0.2820(5)
C13 C 0.6881(9) 0.6936(4) 0.2172(5)
C14 C 0.6539(12) 0.7500 0.1790(6)
C15 C 0.5968(13) 0.7500 0.1149(6)
C16 C 0.5633(10) 0.6943(4) 0.0756(5)
F13C F 0.7717(6) 0.8612(3) 0.3122(3)
F14C F 0.6595(6) 0.8612(3) 0.1860(3)
N1C N 0.9142(9) 0.8501(4) 0.4500(4)
N2C N 0.5335(9) 0.8470(4) 0.0413(4)
C9C C 0.8779(10) 0.8069(5) 0.4204(5)
C12C C 0.7445(9) 0.8074(4) 0.2820(5)
C13C C 0.6881(9) 0.8064(4) 0.2172(5)
C16C C 0.5633(10) 0.8057(4) 0.0756(5)
Ru2B Ru 0.49218(9) 0.44778(4) -0.01164(4)
F7B F 0.8124(10) 0.4976(5) -0.1529(5)
F8B F 0.9413(9) 0.4684(4) -0.0643(5)
F9B F 0.9100(9) 0.5654(4) -0.0810(6)
F10B F 0.1289(17) 0.5294(8) -0.1727(7)
F11B F 0.2681(16) 0.5005(5) -0.2260(5)
F12B F 0.2652(15) 0.5951(5) -0.2015(5)
O5B O 0.6680(8) 0.4538(3) -0.0546(4)
O6B O 0.6841(8) 0.5566(3) -0.0309(4)
O7B O 0.3744(9) 0.4692(4) -0.1019(4)
O8B O 0.3933(8) 0.5724(3) -0.0799(4)
C5B C 0.7203(12) 0.5075(6) -0.0550(6)
C6B C 0.8475(16) 0.5110(8) -0.0892(9)
C7B C 0.3526(14) 0.5255(5) -0.1151(6)
C8B C 0.268(3) 0.5398(10) -0.1811(10)
Ru1B Ru 1.02559(9) 0.44983(4) 0.51791(4)
F1B F 1.4296(11) 0.6080(7) 0.5621(7)
F2B F 1.4846(12) 0.5153(7) 0.5705(8)
F3B F 1.4123(12) 0.5529(8) 0.6477(7)
F4B F 1.0708(9) 0.4579(5) 0.2784(4)
F5B F 1.2437(10) 0.4119(4) 0.3362(5)
F6B F 1.2504(9) 0.5092(4) 0.3188(5)
O1B O 1.2170(8) 0.4797(4) 0.5616(4)
O2B O 1.1682(9) 0.5780(4) 0.5254(4)
O3B O 1.1039(8) 0.4313(4) 0.4331(4)
O4B O 1.0545(9) 0.5300(4) 0.3966(4)
C1B C 1.2469(13) 0.5369(6) 0.5559(6)
C2B C 1.388(2) 0.5579(13) 0.5864(13)
C3B C 1.1037(12) 0.4770(5) 0.3932(6)
C4B C 1.1663(15) 0.4626(7) 0.3293(7)
Ru1C Ru 0.97441(9) 0.94983(4) 0.48209(4)
Ru2C Ru 0.50782(9) 0.94778(4) 0.01164(4)
N1B N 1.0858(9) 0.3501(4) 0.5500(4)
N2B N 0.4665(9) 0.3470(4) -0.0413(4)
C17 C 0.894(3) 0.2500 0.1491(16)
Cl1 Cl 1.0052(12) 0.3220(6) 0.1870(6)
Cl1C Cl 1.0052(12) 0.1780(6) 0.1870(6)
C18 C 0.5659(19) 0.7500 0.4579(11)
C19 C 0.5416(13) 0.8042(8) 0.4276(7)
C20 C 0.4838(12) 0.8082(7) 0.3582(7)
C21 C 0.4558(12) 0.8644(6) 0.3234(7)
C22 C 0.4003(11) 0.8647(6) 0.2608(7)
C23 C 0.3674(11) 0.8072(6) 0.2231(6)
C24 C 0.3966(14) 0.7500 0.2575(8)
C25 C 0.4549(15) 0.7500 0.3246(9)
C26 C 0.3073(11) 0.8056(6) 0.1554(7)
C27 C 0.2795(16) 0.7500 0.1228(10)
H1 H 0.6027 0.7500 0.5038
H2 H 0.5628 0.8416 0.4521
H3 H 0.4775 0.9030 0.3457
H4 H 0.3807 0.9037 0.2391
H5 H 0.2860 0.8437 0.1322
H6 H 0.2406 0.7500 0.0771
C19C C 0.5416(13) 0.6958(8) 0.4276(7)
C20C C 0.4838(12) 0.6918(7) 0.3582(7)
C21C C 0.4558(12) 0.6356(6) 0.3234(7)
C22C C 0.4003(11) 0.6353(6) 0.2608(7)
C23C C 0.3674(11) 0.6928(6) 0.2231(6)
C26C C 0.3073(11) 0.6944(6) 0.1554(7)
H2C H 0.5628 0.6584 0.4521
H3C H 0.4775 0.5970 0.3457
H4C H 0.3807 0.5963 0.2391
H5C H 0.2860 0.6563 0.1322
C28 C 0.1571(17) 0.7500 0.3743(10)
C29 C 0.1296(12) 0.8056(7) 0.3420(7)
C30 C 0.0671(11) 0.8079(6) 0.2740(7)
C31 C 0.0331(12) 0.8653(6) 0.2398(7)
C32 C -0.0227(12) 0.8650(7) 0.1754(7)
C33 C -0.0518(12) 0.8075(7) 0.1382(7)
C34 C -0.0228(15) 0.7500 0.1734(9)
C35 C 0.0368(14) 0.7500 0.2401(9)
C36 C -0.1102(13) 0.8040(8) 0.0713(8)
C37 C -0.1337(19) 0.7500 0.0401(11)
H7 H 0.1960 0.7500 0.4199
H8 H 0.1526 0.8436 0.3653
H9 H 0.0501 0.9039 0.2627
H10 H -0.0438 0.9038 0.1535
H11 H -0.1336 0.8417 0.0474
H12 H -0.1685 0.7500 -0.0060
C29C C 0.1296(12) 0.6944(7) 0.3420(7)
C30C C 0.0671(11) 0.6921(6) 0.2740(7)
C31C C 0.0331(12) 0.6347(6) 0.2398(7)
C32C C -0.0227(12) 0.6350(7) 0.1754(7)
C33C C -0.0518(12) 0.6925(7) 0.1382(7)
C36C C -0.1102(13) 0.6960(8) 0.0713(8)
H8C H 0.1526 0.6564 0.3653
H9C H 0.0501 0.5961 0.2627
H10C H -0.0438 0.5962 0.1535
H11C H -0.1336 0.6583 0.0474
Cl2? Cl 1.139(3) 0.2500 0.3695(11)
Cl3? Cl 0.8530(7) 0.3285(4) 0.0341(4)
Cl4? Cl 0.730(3) 0.2500 0.4295(10)
Cl5? Cl 0.8321(15) 0.3284(5) 0.3300(5)
Cl6? Cl 0.9333(19) 0.3162(8) 0.3098(8)
Cl7? Cl 0.8418(19) 0.2500 0.4392(7)
C38? C 0.939(5) 0.2828(11) 0.3901(15)
Cl8? Cl 0.9978(13) 0.2955(5) 0.1141(7)
Cl9? Cl 0.6814(12) 0.2741(4) 0.0660(6)
C39? C 0.780(3) 0.2897(10) 0.0931(11)
C40? C -0.401(4) 0.616(4) -0.2102(18)
Cl10? Cl -0.430(3) 0.6848(14) -0.2714(14)
Cl11? Cl -0.3718(10) 0.6818(4) -0.1226(5)
Cl12? Cl 1.154(3) 0.2500 0.4088(10)
loop_
_geom_bond_atom_site_label_1
_geom_bond_atom_site_label_2
_geom_bond_site_symmetry_1
_geom_bond_site_symmetry_2
Ru1 O1 1_555 1_555
Ru2 O5 1_555 1_555
F1 C2 1_555 1_555
F2 C2 1_555 1_555
F3 C2 1_555 1_555
F4 C4 1_555 1_555
F5 C4 1_555 1_555
F6 C4 1_555 1_555
F7 C6 1_555 1_555
F8 C6 1_555 1_555
F9 C6 1_555 1_555
F10 C8 1_555 1_555
F11 C8 1_555 1_555
F12 C8 1_555 1_555
F13 C12 1_555 1_555
F14 C13 1_555 1_555
O1 C1 1_555 1_555
O2 C1 1_555 1_555
O3 Ru1 1_555 1_555
O4 C3 1_555 1_555
O5 C5 1_555 1_555
O6 C5 1_555 1_555
O7 Ru2 1_555 1_555
O8 C7 1_555 1_555
N1 Ru1 1_555 1_555
N2 Ru2 1_555 1_555
C1 C2 1_555 1_555
C3 O3 1_555 1_555
C4 C3 1_555 1_555
C5 C6 1_555 1_555
C7 O7 1_555 1_555
C8 C7 1_555 1_555
C9 N1 1_555 1_555
C10 C9 1_555 1_555
C11 C10 1_555 1_555
C12 C11 1_555 1_555
C13 C12 1_555 1_555
C14 C13 1_555 1_555
C15 C14 1_555 1_555
C16 N2 1_555 1_555
C17 Cl1 1_555 1_555
C18 C19 1_555 1_555
C19 C20 1_555 1_555
C20 C21 1_555 1_555
C21 C22 1_555 1_555
C22 C23 1_555 1_555
C23 C24 1_555 1_555
C24 C25 1_555 1_555
C25 C20 1_555 1_555
C26 C23 1_555 1_555
C27 C26 1_555 1_555
H1 C18 1_555 1_555
H2 C19 1_555 1_555
H3 C21 1_555 1_555
H4 C22 1_555 1_555
H5 C26 1_555 1_555
H6 C27 1_555 1_555
C28 C29 1_555 1_555
C29 C30 1_555 1_555
C30 C31 1_555 1_555
C31 C32 1_555 1_555
C32 C33 1_555 1_555
C33 C34 1_555 1_555
C34 C35 1_555 1_555
C35 C30 1_555 1_555
C36 C33 1_555 1_555
C37 C36 1_555 1_555
H7 C28 1_555 1_555
H8 C29 1_555 1_555
H9 C31 1_555 1_555
H10 C32 1_555 1_555
H11 C36 1_555 1_555
H12 C37 1_555 1_555
F13C C12C 1_555 1_555
F14C C13C 1_555 1_555
N1C C9C 1_555 1_555
N2C C16C 1_555 1_555
C9C C10 1_555 1_555
C12C C11 1_555 1_555
C13C C14 1_555 1_555
C16C C15 1_555 1_555
Ru2B Ru2 1_555 1_555
F7B C6B 1_555 1_555
F8B C6B 1_555 1_555
F9B C6B 1_555 1_555
F10B C8B 1_555 1_555
F11B C8B 1_555 1_555
F12B C8B 1_555 1_555
O5B Ru2B 1_555 1_555
O6B Ru2 1_555 1_555
O7B Ru2B 1_555 1_555
O8B Ru2 1_555 1_555
C5B O5B 1_555 1_555
C6B C5B 1_555 1_555
C7B O7B 1_555 1_555
C8B C7B 1_555 1_555
Ru1B Ru1 1_555 1_555
F1B C2B 1_555 1_555
F2B C2B 1_555 1_555
F3B C2B 1_555 1_555
F4B C4B 1_555 1_555
F5B C4B 1_555 1_555
F6B C4B 1_555 1_555
O1B Ru1B 1_555 1_555
O2B Ru1 1_555 1_555
O3B Ru1B 1_555 1_555
O4B Ru1 1_555 1_555
C1B O1B 1_555 1_555
C2B C1B 1_555 1_555
C3B O3B 1_555 1_555
C4B C3B 1_555 1_555
Ru1C N1C 1_555 1_555
Ru2C N2C 1_555 1_555
N1B Ru1B 1_555 1_555
N2B Ru2B 1_555 1_555
Cl1C C17 1_555 1_555
C19C C18 1_555 1_555
C20C C25 1_555 1_555
C21C C20C 1_555 1_555
C22C C21C 1_555 1_555
C23C C24 1_555 1_555
C26C C27 1_555 1_555
H2C C19C 1_555 1_555
H3C C21C 1_555 1_555
H4C C22C 1_555 1_555
H5C C26C 1_555 1_555
C29C C28 1_555 1_555
C30C C35 1_555 1_555
C31C C30C 1_555 1_555
C32C C31C 1_555 1_555
C33C C34 1_555 1_555
C36C C37 1_555 1_555
H8C C29C 1_555 1_555
H9C C31C 1_555 1_555
H10C C32C 1_555 1_555
H11C C36C 1_555 1_555
O2 Ru1B 1_555 1_555
O4 Ru1B 1_555 1_555
O6 Ru2B 1_555 1_555
O8 Ru2B 1_555 1_555
C15 C16 1_555 1_555
C12C C13C 1_555 1_555
O6B C5B 1_555 1_555
O8B C7B 1_555 1_555
O2B C1B 1_555 1_555
O4B C3B 1_555 1_555
C19C C20C 1_555 1_555
C22C C23C 1_555 1_555
C23C C26C 1_555 1_555
C29C C30C 1_555 1_555
C32C C33C 1_555 1_555
C33C C36C 1_555 1_555

#END
