
#######################################################################
#
#                 Cambridge Crystallographic Data Centre
#                                CCDC 
#
#######################################################################
#
# If this CIF has been generated from an entry in the Cambridge 
# Structural Database, then it will include bibliographic, chemical, 
# crystal, experimental, refinement or atomic coordinate data resulting 
# from the CCDC's data processing and validation procedures.
#
#######################################################################

data_PILNOP
_symmetry_cell_setting           monoclinic
_symmetry_space_group_name_H-M   'C 2/c'
_symmetry_Int_Tables_number      15
_space_group_name_Hall           '-C 2yn'
loop_
_symmetry_equiv_pos_site_id
_symmetry_equiv_pos_as_xyz
1 x,y,z
2 -x,y,1/2-z
3 1/2+x,1/2+y,z
4 1/2-x,1/2+y,1/2-z
5 -x,-y,-z
6 x,-y,1/2+z
7 1/2-x,1/2-y,-z
8 1/2+x,1/2-y,1/2+z
_cell_length_a                   15.532(3)
_cell_length_b                   19.713(3)
_cell_length_c                   15.214(3)
_cell_angle_alpha                90
_cell_angle_beta                 110.792(4)
_cell_angle_gamma                90
_cell_volume                     4354.89
loop_
_atom_site_label
_atom_site_type_symbol
_atom_site_fract_x
_atom_site_fract_y
_atom_site_fract_z
C1 C 0.1824(7) 0.1341(6) 0.4656(7)
C2 C 0.2203(7) 0.1779(7) 0.4140(8)
H1 H 0.1822 0.2074 0.3695
C3 C 0.3125(7) 0.1764(6) 0.4301(7)
C4 C 0.3694(7) 0.1331(6) 0.4987(7)
H2 H 0.4325 0.1325 0.5108
C5 C 0.3323(6) 0.0911(5) 0.5485(6)
C6 C 0.2397(6) 0.0917(5) 0.5328(7)
H3 H 0.2157 0.0635 0.5676
C7 C 0.0803(8) 0.1329(9) 0.4438(8)
C8 C 0.3953(6) 0.0436(5) 0.6201(7)
C9 C 0.4423(8) 0.2225(6) 0.3985(10)
H4 H 0.4734 0.2280 0.4665
C10 C 0.4619(10) 0.2848(7) 0.3496(11)
H5 H 0.4393 0.3245 0.3710
H6 H 0.4315 0.2802 0.2829
H7 H 0.5270 0.2889 0.3642
C11 C 0.4801(7) 0.1576(6) 0.3673(8)
C12 C -0.2453(7) 0.0806(5) 0.5118(7)
H8 H -0.2942 0.0977 0.4614
C13 C -0.1147(7) 0.0494(6) 0.6019(8)
H9 H -0.0520 0.0396 0.6246
C14 C -0.3324(7) 0.0586(6) 0.6173(8)
H10 H -0.3411 0.0144 0.6409
H11 H -0.3865 0.0687 0.5627
C15 C -0.3216(7) 0.1119(6) 0.6926(8)
H12 H -0.3752 0.1104 0.7112
H13 H -0.2682 0.1007 0.7473
C16 C -0.2522(7) 0.2628(6) 0.6223(9)
H14 H -0.2108 0.2904 0.6075
C17 C -0.3688(7) 0.2323(6) 0.6494(8)
H15 H -0.4252 0.2311 0.6578
Cd1 Cd -0.10628(5) 0.10747(4) 0.39765(5)
Cd2 Cd 0.5000 -0.04727(6) 0.7500
N1 N -0.1588(6) 0.0766(5) 0.5153(6)
N2 N -0.1675(6) 0.0382(5) 0.6503(6)
N3 N -0.2515(5) 0.0571(4) 0.5902(5)
N4 N -0.3112(6) 0.1799(5) 0.6631(6)
N5 N -0.2355(6) 0.1992(5) 0.6444(7)
N6 N -0.3345(6) 0.2859(5) 0.6223(6)
O1 O 0.0286(6) 0.1665(9) 0.3764(7)
O2 O 0.0479(5) 0.0961(5) 0.4924(7)
O3 O 0.3604(4) 0.0058(4) 0.6664(5)
O4 O 0.4785(4) 0.0418(5) 0.6327(5)
O5 O 0.3436(6) 0.2191(5) 0.3781(6)
O6 O 0.4234(5) 0.1222(5) 0.3063(5)
O7 O 0.5613(5) 0.1476(4) 0.4034(6)
O8 O -0.0974(6) -0.0082(6) 0.3582(7)
O9 O -0.2494(5) 0.0795(4) 0.2855(5)
O10 O -0.0726(13) 0.0774(13) 0.2611(13)
C1A C 0.8176(7) 0.1341(6) 1.0344(7)
C2A C 0.7797(7) 0.1779(7) 1.0860(8)
H1A H 0.8178 0.2074 1.1305
C3A C 0.6875(7) 0.1764(6) 1.0699(7)
C4A C 0.6306(7) 0.1331(6) 1.0013(7)
H2A H 0.5675 0.1325 0.9892
C5A C 0.6677(6) 0.0911(5) 0.9515(6)
C6A C 0.7603(6) 0.0917(5) 0.9672(7)
H3A H 0.7843 0.0635 0.9324
C7A C 0.9197(8) 0.1329(9) 1.0562(8)
C8A C 0.6047(6) 0.0436(5) 0.8799(7)
C9A C 0.5577(8) 0.2225(6) 1.1015(10)
H4A H 0.5266 0.2280 1.0335
C10A C 0.5381(10) 0.2848(7) 1.1504(11)
H5A H 0.5607 0.3245 1.1290
H6A H 0.5685 0.2802 1.2171
H7A H 0.4730 0.2889 1.1358
C11A C 0.5199(7) 0.1576(6) 1.1327(8)
C12A C 1.2453(7) 0.0806(5) 0.9882(7)
H8A H 1.2942 0.0977 1.0386
C13A C 1.1147(7) 0.0494(6) 0.8981(8)
H9A H 1.0520 0.0396 0.8754
C14A C 1.3324(7) 0.0586(6) 0.8827(8)
H10A H 1.3411 0.0144 0.8591
H11A H 1.3865 0.0687 0.9373
C15A C 1.3216(7) 0.1119(6) 0.8074(8)
H12A H 1.3752 0.1104 0.7888
H13A H 1.2682 0.1007 0.7527
C16A C 1.2522(7) 0.2628(6) 0.8777(9)
H14A H 1.2108 0.2904 0.8925
C17A C 1.3688(7) 0.2323(6) 0.8506(8)
H15A H 1.4252 0.2311 0.8422
Cd1A Cd 1.10628(5) 0.10747(4) 1.10235(5)
N1A N 1.1588(6) 0.0766(5) 0.9847(6)
N2A N 1.1675(6) 0.0382(5) 0.8497(6)
N3A N 1.2515(5) 0.0571(4) 0.9098(5)
N4A N 1.3112(6) 0.1799(5) 0.8369(6)
N5A N 1.2355(6) 0.1992(5) 0.8556(7)
N6A N 1.3345(6) 0.2859(5) 0.8777(6)
O1A O 0.9714(6) 0.1665(9) 1.1236(7)
O2A O 0.9521(5) 0.0961(5) 1.0076(7)
O3A O 0.6396(4) 0.0058(4) 0.8336(5)
O4A O 0.5215(4) 0.0418(5) 0.8673(5)
O5A O 0.6564(6) 0.2191(5) 1.1219(6)
O6A O 0.5766(5) 0.1222(5) 1.1937(5)
O7A O 0.4387(5) 0.1476(4) 1.0966(6)
O8A O 1.0974(6) -0.0082(6) 1.1418(7)
O9A O 1.2494(5) 0.0795(4) 1.2145(5)
O10A O 1.0726(13) 0.0774(13) 1.2389(13)
Cd1F Cd -0.39372(5) 0.39253(4) 0.60235(5)
Cd1G Cd 1.39372(5) 0.39253(4) 0.89765(5)
Cd2D Cd 0.5000 0.04727(6) 0.2500
Cd2D_2 Cd 0.5000 0.04727(6) 1.2500
N6F N -0.1655(6) 0.2141(5) 0.3777(6)
N6G N 1.1655(6) 0.2141(5) 1.1223(6)
O6D O 0.5766(5) -0.1222(5) 0.6937(5)
O6E O 0.4234(5) -0.1222(5) 0.8063(5)
O11 O -0.5000 0.1944(18) 0.7500
loop_
_geom_bond_atom_site_label_1
_geom_bond_atom_site_label_2
_geom_bond_site_symmetry_1
_geom_bond_site_symmetry_2
C1 C2 1_555 1_555
C2 H1 1_555 1_555
C3 C2 1_555 1_555
C4 C3 1_555 1_555
H2 C4 1_555 1_555
C5 C4 1_555 1_555
C6 C1 1_555 1_555
H3 C6 1_555 1_555
C7 C1 1_555 1_555
C8 C5 1_555 1_555
C9 H4 1_555 1_555
C10 C9 1_555 1_555
H5 C10 1_555 1_555
H6 C10 1_555 1_555
H7 C10 1_555 1_555
C11 C9 1_555 1_555
C12 H8 1_555 1_555
C13 H9 1_555 1_555
C14 H10 1_555 1_555
H11 C14 1_555 1_555
C15 C14 1_555 1_555
H12 C15 1_555 1_555
H13 C15 1_555 1_555
C16 H14 1_555 1_555
C17 H15 1_555 1_555
Cd1 N1 1_555 1_555
Cd2 O3 1_555 1_555
N1 C12 1_555 1_555
N2 C13 1_555 1_555
N3 C12 1_555 1_555
N4 C15 1_555 1_555
N5 C16 1_555 1_555
N6 C16 1_555 1_555
O1 C7 1_555 1_555
O2 C7 1_555 1_555
O3 C8 1_555 1_555
O4 C8 1_555 1_555
O5 C3 1_555 1_555
O6 C11 1_555 1_555
O7 C11 1_555 1_555
O8 Cd1 1_555 1_555
O9 Cd1 1_555 1_555
O10 Cd1 1_555 1_555
C1A C2A 1_555 1_555
C2A H1A 1_555 1_555
C3A C2A 1_555 1_555
C4A C3A 1_555 1_555
H2A C4A 1_555 1_555
C5A C4A 1_555 1_555
C6A C1A 1_555 1_555
H3A C6A 1_555 1_555
C7A C1A 1_555 1_555
C8A C5A 1_555 1_555
C9A H4A 1_555 1_555
C10A C9A 1_555 1_555
H5A C10A 1_555 1_555
H6A C10A 1_555 1_555
H7A C10A 1_555 1_555
C11A C9A 1_555 1_555
C12A H8A 1_555 1_555
C13A H9A 1_555 1_555
C14A H10A 1_555 1_555
H11A C14A 1_555 1_555
C15A C14A 1_555 1_555
H12A C15A 1_555 1_555
H13A C15A 1_555 1_555
C16A H14A 1_555 1_555
C17A H15A 1_555 1_555
Cd1A N1A 1_555 1_555
N1A C12A 1_555 1_555
N2A C13A 1_555 1_555
N3A C12A 1_555 1_555
N4A C15A 1_555 1_555
N5A C16A 1_555 1_555
N6A C16A 1_555 1_555
O1A C7A 1_555 1_555
O2A C7A 1_555 1_555
O3A Cd2 1_555 1_555
O4A Cd2 1_555 1_555
O5A C3A 1_555 1_555
O6A C11A 1_555 1_555
O7A C11A 1_555 1_555
O8A Cd1A 1_555 1_555
O9A Cd1A 1_555 1_555
O10A Cd1A 1_555 1_555
Cd1F N6 1_555 1_555
Cd1G N6A 1_555 1_555
Cd2D O6 1_555 1_555
Cd2D_2 O6A 1_555 1_555
N6F Cd1 1_555 1_555
N6G Cd1A 1_555 1_555
O6D Cd2 1_555 1_555
O6E Cd2 1_555 1_555
C5 C6 1_555 1_555
C9 O5 1_555 1_555
C13 N1 1_555 1_555
C14 N3 1_555 1_555
C17 N4 1_555 1_555
C17 N6 1_555 1_555
Cd1 O1 1_555 1_555
Cd1 O2 1_555 1_555
Cd2 O4 1_555 1_555
N2 N3 1_555 1_555
N4 N5 1_555 1_555
C5A C6A 1_555 1_555
C8A O3A 1_555 1_555
C8A O4A 1_555 1_555
C9A O5A 1_555 1_555
C13A N1A 1_555 1_555
C14A N3A 1_555 1_555
C17A N4A 1_555 1_555
C17A N6A 1_555 1_555
Cd1A O1A 1_555 1_555
Cd1A O2A 1_555 1_555
N2A N3A 1_555 1_555
N4A N5A 1_555 1_555

#END
