
#######################################################################
#
#                 Cambridge Crystallographic Data Centre
#                                CCDC 
#
#######################################################################
#
# If this CIF has been generated from an entry in the Cambridge 
# Structural Database, then it will include bibliographic, chemical, 
# crystal, experimental, refinement or atomic coordinate data resulting 
# from the CCDC's data processing and validation procedures.
#
#######################################################################

data_PILPEH
_symmetry_cell_setting           monoclinic
_symmetry_space_group_name_H-M   'C 2/c'
_symmetry_Int_Tables_number      15
_space_group_name_Hall           '-C 2yn'
loop_
_symmetry_equiv_pos_site_id
_symmetry_equiv_pos_as_xyz
1 x,y,z
2 -x,y,1/2-z
3 1/2+x,1/2+y,z
4 1/2-x,1/2+y,1/2-z
5 -x,-y,-z
6 x,-y,1/2+z
7 1/2-x,1/2-y,-z
8 1/2+x,1/2-y,1/2+z
_cell_length_a                   26.884(5)
_cell_length_b                   6.861(5)
_cell_length_c                   20.315(5)
_cell_angle_alpha                90
_cell_angle_beta                 119.611(5)
_cell_angle_gamma                90
_cell_volume                     3257.75
loop_
_atom_site_label
_atom_site_type_symbol
_atom_site_fract_x
_atom_site_fract_y
_atom_site_fract_z
C1 C 0.07913(17) 0.3312(6) 0.8607(2)
C2 C 0.07305(19) 0.4962(7) 0.8204(3)
H1 H 0.0499 0.5965 0.8208
C3 C 0.1011(2) 0.5173(7) 0.7785(3)
H2 H 0.0961 0.6296 0.7502
C4 C 0.13622(17) 0.3697(6) 0.7794(2)
C5 C 0.1418(2) 0.2021(7) 0.8182(3)
H3 H 0.1647 0.1016 0.8173
C6 C 0.1137(2) 0.1814(7) 0.8583(3)
H4 H 0.1175 0.0661 0.8845
C7 C 0.05215(17) 0.3070(6) 0.9093(2)
C8 C 0.22531(19) 0.5202(7) 0.6996(3)
H5 H 0.2577 0.4929 0.7483
H6 H 0.2321 0.6380 0.6797
H7 H 0.2196 0.4142 0.6658
C9 C 0.17215(17) 0.5451(6) 0.7076(3)
H8 H 0.1785 0.6541 0.7421
C10 C 0.11950(16) 0.5910(6) 0.6306(2)
C11 C 0.13792(19) 1.2591(7) 0.5047(3)
H9 H 0.1056 1.3361 0.4897
C12 C 0.17994(19) 1.3264(7) 0.4903(3)
H10 H 0.1756 1.4472 0.4674
C13 C 0.22755(16) 1.2188(6) 0.5091(2)
C14 C 0.2312(2) 1.0458(8) 0.5452(4)
H11 H 0.2630 0.9659 0.5603
C15 C 0.1883(2) 0.9898(8) 0.5592(4)
H12 H 0.1926 0.8730 0.5847
Co1 Co 0.0000 0.5000 0.5000
Co2 Co 0.06409(2) 0.96221(7) 0.53436(3)
N1 N 0.14086(14) 1.0928(5) 0.5384(2)
O1 O 0.04966(13) 0.1336(4) 0.92942(17)
O2 O 0.03470(12) 0.4536(4) 0.92805(16)
O3 O 0.16678(12) 0.3723(4) 0.74128(17)
O4 O 0.07921(12) 0.4721(4) 0.60220(15)
O5 O 0.12208(12) 0.7497(4) 0.60316(19)
O6 O -0.00686(10) 0.8019(3) 0.52187(15)
H13 H 0.0046 0.7946 0.5690
O7 O 0.07795(14) 1.0874(4) 0.63646(17)
H14 H 0.0628 1.0792 0.6644
H15 H 0.1123 1.0670 0.6710
C11F C 0.36208(19) 1.2409(7) 0.4953(3)
H9F H 0.3944 1.1639 0.5103
C12F C 0.32006(19) 1.1736(7) 0.5097(3)
H10F H 0.3244 1.0528 0.5326
C13F C 0.27245(16) 1.2812(6) 0.4909(2)
C14F C 0.2688(2) 1.4542(8) 0.4548(4)
H11F H 0.2370 1.5341 0.4397
C15F C 0.3117(2) 1.5102(8) 0.4408(4)
H12F H 0.3074 1.6270 0.4153
N1F N 0.35914(14) 1.4072(5) 0.4616(2)
C1A C -0.07913(17) 0.3312(6) 0.6393(2)
C2A C -0.07305(19) 0.4962(7) 0.6796(3)
H1A H -0.0499 0.5965 0.6792
C3A C -0.1011(2) 0.5173(7) 0.7215(3)
H2A H -0.0961 0.6296 0.7498
C4A C -0.13622(17) 0.3697(6) 0.7206(2)
C5A C -0.1418(2) 0.2021(7) 0.6818(3)
H3A H -0.1647 0.1016 0.6827
C6A C -0.1137(2) 0.1814(7) 0.6417(3)
H4A H -0.1175 0.0661 0.6155
C7A C -0.05215(17) 0.3070(6) 0.5907(2)
C8A C -0.22531(19) 0.5202(7) 0.8004(3)
H5A H -0.2577 0.4929 0.7517
H6A H -0.2321 0.6380 0.8203
H7A H -0.2196 0.4142 0.8342
C9A C -0.17215(17) 0.5451(6) 0.7924(3)
H8A H -0.1785 0.6541 0.7579
C10A C -0.11950(16) 0.5910(6) 0.8694(2)
Co2A Co -0.06409(2) 0.96221(7) 0.96564(3)
O1A O -0.04966(13) 0.1336(4) 0.57058(17)
O2A O -0.03470(12) 0.4536(4) 0.57195(16)
O3A O -0.16678(12) 0.3723(4) 0.75872(17)
O4A O -0.07921(12) 0.4721(4) 0.89780(15)
O5A O -0.12208(12) 0.7497(4) 0.89684(19)
O6A O 0.00686(10) 0.8019(3) 0.97813(15)
H13A H -0.0046 0.7946 0.9310
O7A O -0.07795(14) 1.0874(4) 0.86354(17)
H14A H -0.0628 1.0792 0.8356
H15A H -0.1123 1.0670 0.8290
Co1A Co 0.0000 0.5000 1.0000
Co2D Co -0.06409(2) 0.03779(7) 0.46564(3)
Co2D_2 Co -0.06409(2) 1.03779(7) 0.46564(3)
Co2E Co 0.06409(2) 0.03779(7) 1.03436(3)
Co2E_2 Co 0.06409(2) 1.03779(7) 1.03436(3)
Co2F Co 0.43591(2) 1.53779(7) 0.46564(3)
N1A N -0.14086(14) 1.0928(5) 0.9616(2)
O1D O -0.04966(13) 0.8664(4) 1.07058(17)
O1E O 0.04966(13) 0.8664(4) 0.42942(17)
O2E O 0.03470(12) 0.5464(4) 0.42805(16)
O4D O -0.07921(12) 0.5279(4) 0.39780(15)
O6D O 0.00686(10) 0.1981(3) 0.47813(15)
O6D_2 O 0.00686(10) 1.1981(3) 0.47813(15)
O6E O -0.00686(10) 1.1981(3) 1.02187(15)
O8 O -0.0108(3) -0.0916(10) 0.8097(4)
loop_
_geom_bond_atom_site_label_1
_geom_bond_atom_site_label_2
_geom_bond_site_symmetry_1
_geom_bond_site_symmetry_2
C1 C2 1_555 1_555
C2 H1 1_555 1_555
C3 C2 1_555 1_555
H2 C3 1_555 1_555
C4 C3 1_555 1_555
C5 C4 1_555 1_555
H3 C5 1_555 1_555
C6 C1 1_555 1_555
H4 C6 1_555 1_555
C7 C1 1_555 1_555
C8 H5 1_555 1_555
H6 C8 1_555 1_555
H7 C8 1_555 1_555
C9 C8 1_555 1_555
H8 C9 1_555 1_555
C10 C9 1_555 1_555
C11 H9 1_555 1_555
C12 C11 1_555 1_555
H10 C12 1_555 1_555
C13 C12 1_555 1_555
C14 C13 1_555 1_555
H11 C14 1_555 1_555
C15 C14 1_555 1_555
H12 C15 1_555 1_555
Co1 O4 1_555 1_555
Co2 N1 1_555 1_555
N1 C11 1_555 1_555
O1 C7 1_555 1_555
O2 C7 1_555 1_555
O3 C4 1_555 1_555
O4 C10 1_555 1_555
O5 C10 1_555 1_555
O6 Co1 1_555 1_555
H13 O6 1_555 1_555
O7 Co2 1_555 1_555
H14 O7 1_555 1_555
H15 O7 1_555 1_555
C11F H9F 1_555 1_555
C12F C11F 1_555 1_555
H10F C12F 1_555 1_555
C13F C13 1_555 1_555
C14F C13F 1_555 1_555
H11F C14F 1_555 1_555
C15F C14F 1_555 1_555
H12F C15F 1_555 1_555
N1F C11F 1_555 1_555
C1A C2A 1_555 1_555
C2A H1A 1_555 1_555
C3A C2A 1_555 1_555
H2A C3A 1_555 1_555
C4A C3A 1_555 1_555
C5A C4A 1_555 1_555
H3A C5A 1_555 1_555
C6A C1A 1_555 1_555
H4A C6A 1_555 1_555
C7A C1A 1_555 1_555
C8A H5A 1_555 1_555
H6A C8A 1_555 1_555
H7A C8A 1_555 1_555
C9A C8A 1_555 1_555
H8A C9A 1_555 1_555
C10A C9A 1_555 1_555
Co2A O5A 1_555 1_555
O1A C7A 1_555 1_555
O2A Co1 1_555 1_555
O3A C4A 1_555 1_555
O4A C10A 1_555 1_555
O5A C10A 1_555 1_555
O6A Co2A 1_555 1_555
H13A O6A 1_555 1_555
O7A Co2A 1_555 1_555
H14A O7A 1_555 1_555
H15A O7A 1_555 1_555
Co1A O2 1_555 1_555
Co2D O1A 1_555 1_555
Co2D_2 Co2 1_555 1_555
Co2E O1 1_555 1_555
Co2E_2 Co2A 1_555 1_555
Co2F N1F 1_555 1_555
N1A Co2A 1_555 1_555
O1D Co2A 1_555 1_555
O1E Co2 1_555 1_555
O2E Co1 1_555 1_555
O4D Co1 1_555 1_555
O6D Co1 1_555 1_555
O6D_2 Co2 1_555 1_555
O6E Co2A 1_555 1_555
C5 C6 1_555 1_555
C9 O3 1_555 1_555
C15 N1 1_555 1_555
Co2 O5 1_555 1_555
Co2 O6 1_555 1_555
O6 Co2D_2 1_555 1_555
C12F C13F 1_555 1_555
C15F N1F 1_555 1_555
C5A C6A 1_555 1_555
C7A O2A 1_555 1_555
C9A O3A 1_555 1_555
O4A Co1A 1_555 1_555
O6A Co1A 1_555 1_555
O6A Co2E_2 1_555 1_555
Co2D O6D 1_555 1_555
Co2D_2 O6D_2 1_555 1_555
Co2E_2 O6E 1_555 1_555

#END
