
#######################################################################
#
#                 Cambridge Crystallographic Data Centre
#                                CCDC 
#
#######################################################################
#
# If this CIF has been generated from an entry in the Cambridge 
# Structural Database, then it will include bibliographic, chemical, 
# crystal, experimental, refinement or atomic coordinate data resulting 
# from the CCDC's data processing and validation procedures.
#
#######################################################################

data_PILPIL
_symmetry_cell_setting           monoclinic
_symmetry_space_group_name_H-M   'C 2/c'
_symmetry_Int_Tables_number      15
_space_group_name_Hall           '-C 2yn'
loop_
_symmetry_equiv_pos_site_id
_symmetry_equiv_pos_as_xyz
1 x,y,z
2 -x,y,1/2-z
3 1/2+x,1/2+y,z
4 1/2-x,1/2+y,1/2-z
5 -x,-y,-z
6 x,-y,1/2+z
7 1/2-x,1/2-y,-z
8 1/2+x,1/2-y,1/2+z
_cell_length_a                   27.652(5)
_cell_length_b                   7.178(5)
_cell_length_c                   20.457(5)
_cell_angle_alpha                90
_cell_angle_beta                 120.883(5)
_cell_angle_gamma                90
_cell_volume                     3484.73
loop_
_atom_site_label
_atom_site_type_symbol
_atom_site_fract_x
_atom_site_fract_y
_atom_site_fract_z
C1 C 0.0824(2) -0.1605(7) 0.8597(3)
C2 C 0.1170(2) -0.3051(7) 0.8612(3)
H1 H 0.1198 -0.4147 0.8871
C3 C 0.1466(2) -0.2862(7) 0.8246(3)
H2 H 0.1694 -0.3830 0.8258
C4 C 0.14262(19) -0.1242(7) 0.7860(3)
C5 C 0.1078(2) 0.0191(7) 0.7822(3)
H3 H 0.1040 0.1272 0.7549
C6 C 0.0785(2) -0.0027(7) 0.8203(3)
H4 H 0.0555 0.0938 0.8188
C7 C 0.0529(2) -0.1814(7) 0.9037(3)
C8 C 0.17966(19) 0.0392(7) 0.7171(3)
H5 H 0.1871 0.1454 0.7511
C9 C 0.2307(2) 0.0075(8) 0.7091(3)
H6 H 0.2630 -0.0184 0.7583
H7 H 0.2376 0.1171 0.6883
H8 H 0.2237 -0.0963 0.6758
C10 C 0.1279(2) 0.0811(7) 0.6403(3)
C11 C 0.1923(2) 0.4906(8) 0.5590(4)
H9 H 0.1970 0.3769 0.5834
C12 C 0.2338(2) 0.5494(8) 0.5443(4)
H10 H 0.2651 0.4745 0.5585
C13 C 0.22878(19) 0.7170(7) 0.5092(3)
C14 C 0.1818(2) 0.8201(8) 0.4917(4)
H11 H 0.1767 0.9364 0.4690
C15 C 0.1419(2) 0.7522(8) 0.5074(4)
H12 H 0.1105 0.8252 0.4946
N1 N 0.14636(17) 0.5890(6) 0.5398(2)
O1 O 0.03618(16) -0.0384(5) 0.9208(2)
O2 O 0.04699(16) -0.3460(5) 0.9212(2)
O3 O 0.17483(14) -0.1251(5) 0.75245(19)
O4 O 0.08878(14) -0.0341(5) 0.61134(19)
O5 O 0.13028(16) 0.2315(6) 0.6119(3)
O6 O -0.00659(12) 0.3026(4) 0.52626(17)
H13 H 0.0028 0.2852 0.5724
O7 O 0.0841(2) 0.5976(6) 0.6484(2)
H14 H 0.0907 0.7138 0.6552
H15 H 0.0483 0.5980 0.6255
Cd1 Cd 0.0000 0.0000 0.5000
Cd2 Cd 0.068820(14) 0.45802(5) 0.53880(2)
C11F C 0.3077(2) 1.0094(8) 0.4410(4)
H9F H 0.3030 1.1231 0.4166
C12F C 0.2662(2) 0.9506(8) 0.4557(4)
H10F H 0.2349 1.0255 0.4415
C13F C 0.27122(19) 0.7830(7) 0.4908(3)
C14F C 0.3182(2) 0.6799(8) 0.5083(4)
H11F H 0.3233 0.5636 0.5310
C15F C 0.3581(2) 0.7478(8) 0.4926(4)
H12F H 0.3895 0.6748 0.5054
N1F N 0.35364(17) 0.9110(6) 0.4602(2)
C1A C -0.0824(2) -0.1605(7) 0.6403(3)
C2A C -0.1170(2) -0.3051(7) 0.6388(3)
H1A H -0.1198 -0.4147 0.6129
C3A C -0.1466(2) -0.2862(7) 0.6754(3)
H2A H -0.1694 -0.3830 0.6742
C4A C -0.14262(19) -0.1242(7) 0.7140(3)
C5A C -0.1078(2) 0.0191(7) 0.7178(3)
H3A H -0.1040 0.1272 0.7451
C6A C -0.0785(2) -0.0027(7) 0.6797(3)
H4A H -0.0555 0.0938 0.6812
C7A C -0.0529(2) -0.1814(7) 0.5963(3)
C8A C -0.17966(19) 0.0392(7) 0.7829(3)
H5A H -0.1871 0.1454 0.7489
C9A C -0.2307(2) 0.0075(8) 0.7909(3)
H6A H -0.2630 -0.0184 0.7417
H7A H -0.2376 0.1171 0.8117
H8A H -0.2237 -0.0963 0.8242
C10A C -0.1279(2) 0.0811(7) 0.8597(3)
O1A O -0.03618(16) -0.0384(5) 0.5792(2)
O2A O -0.04699(16) -0.3460(5) 0.5788(2)
O3A O -0.17483(14) -0.1251(5) 0.74755(19)
O4A O -0.08878(14) -0.0341(5) 0.88866(19)
O5A O -0.13028(16) 0.2315(6) 0.8881(3)
O6A O 0.00659(12) 0.3026(4) 0.97374(17)
H13A H -0.0028 0.2852 0.9276
O7A O -0.0841(2) 0.5976(6) 0.8516(2)
H14A H -0.0907 0.7138 0.8448
H15A H -0.0483 0.5980 0.8745
Cd2A Cd -0.068820(14) 0.45802(5) 0.96120(2)
N1A N -0.14636(17) 0.5890(6) 0.9602(2)
O1E O 0.03618(16) 0.0384(5) 0.4208(2)
O2D O -0.04699(16) 0.3460(5) 1.0788(2)
O2E O 0.04699(16) 0.3460(5) 0.4212(2)
O4D O -0.08878(14) 0.0341(5) 0.38866(19)
O6D O 0.00659(12) -0.3026(4) 0.47374(17)
O6D_2 O 0.00659(12) 0.6974(4) 0.47374(17)
O6E O -0.00659(12) 0.6974(4) 1.02626(17)
Cd1A Cd 0.0000 0.0000 1.0000
Cd2D Cd -0.068820(14) -0.45802(5) 0.46120(2)
Cd2D_2 Cd -0.068820(14) 0.54198(5) 0.46120(2)
Cd2E Cd 0.068820(14) -0.45802(5) 1.03880(2)
Cd2E_2 Cd 0.068820(14) 0.54198(5) 1.03880(2)
Cd2F Cd 0.431180(14) 1.04198(5) 0.46120(2)
O8 O -0.0129(2) -0.5972(8) 0.8096(3)
H16 H 0.0155 -0.5472 0.8476
H17 H -0.0170 -0.5700 0.7667
loop_
_geom_bond_atom_site_label_1
_geom_bond_atom_site_label_2
_geom_bond_site_symmetry_1
_geom_bond_site_symmetry_2
C1 C2 1_555 1_555
C2 H1 1_555 1_555
C3 C2 1_555 1_555
H2 C3 1_555 1_555
C4 C3 1_555 1_555
C5 C4 1_555 1_555
H3 C5 1_555 1_555
C6 C1 1_555 1_555
H4 C6 1_555 1_555
C7 C1 1_555 1_555
C8 H5 1_555 1_555
C9 C8 1_555 1_555
H6 C9 1_555 1_555
H7 C9 1_555 1_555
H8 C9 1_555 1_555
C10 C8 1_555 1_555
C11 H9 1_555 1_555
C12 C11 1_555 1_555
H10 C12 1_555 1_555
C13 C12 1_555 1_555
C14 C13 1_555 1_555
H11 C14 1_555 1_555
C15 C14 1_555 1_555
H12 C15 1_555 1_555
N1 C11 1_555 1_555
O1 C7 1_555 1_555
O2 C7 1_555 1_555
O3 C4 1_555 1_555
O4 C10 1_555 1_555
O5 C10 1_555 1_555
O6 H13 1_555 1_555
O7 H14 1_555 1_555
H15 O7 1_555 1_555
Cd1 O4 1_555 1_555
Cd2 N1 1_555 1_555
O8 H16 1_555 1_555
H17 O8 1_555 1_555
C11F H9F 1_555 1_555
C12F C11F 1_555 1_555
H10F C12F 1_555 1_555
C13F C13 1_555 1_555
C14F C13F 1_555 1_555
H11F C14F 1_555 1_555
C15F C14F 1_555 1_555
H12F C15F 1_555 1_555
N1F C11F 1_555 1_555
C1A C2A 1_555 1_555
C2A H1A 1_555 1_555
C3A C2A 1_555 1_555
H2A C3A 1_555 1_555
C4A C3A 1_555 1_555
C5A C4A 1_555 1_555
H3A C5A 1_555 1_555
C6A C1A 1_555 1_555
H4A C6A 1_555 1_555
C7A C1A 1_555 1_555
C8A H5A 1_555 1_555
C9A C8A 1_555 1_555
H6A C9A 1_555 1_555
H7A C9A 1_555 1_555
H8A C9A 1_555 1_555
C10A C8A 1_555 1_555
O1A Cd1 1_555 1_555
O2A C7A 1_555 1_555
O3A C4A 1_555 1_555
O4A C10A 1_555 1_555
O5A C10A 1_555 1_555
O6A H13A 1_555 1_555
O7A H14A 1_555 1_555
H15A O7A 1_555 1_555
Cd2A O5A 1_555 1_555
N1A Cd2A 1_555 1_555
O1E Cd1 1_555 1_555
O2D Cd2A 1_555 1_555
O2E Cd2 1_555 1_555
O4D Cd1 1_555 1_555
O6D Cd1 1_555 1_555
O6D_2 Cd2 1_555 1_555
O6E Cd2A 1_555 1_555
Cd1A O1 1_555 1_555
Cd2D O2A 1_555 1_555
Cd2D_2 O6 1_555 1_555
Cd2E O2 1_555 1_555
Cd2E_2 O6A 1_555 1_555
Cd2F N1F 1_555 1_555
C5 C6 1_555 1_555
C8 O3 1_555 1_555
C15 N1 1_555 1_555
O5 Cd2 1_555 1_555
O6 Cd1 1_555 1_555
O6 Cd2 1_555 1_555
O7 Cd2 1_555 1_555
C12F C13F 1_555 1_555
C15F N1F 1_555 1_555
C5A C6A 1_555 1_555
C7A O1A 1_555 1_555
C8A O3A 1_555 1_555
O4A Cd1A 1_555 1_555
O6A Cd2A 1_555 1_555
O6A Cd1A 1_555 1_555
O7A Cd2A 1_555 1_555
O6D Cd2D 1_555 1_555
O6D_2 Cd2D_2 1_555 1_555
O6E Cd2E_2 1_555 1_555

#END
