
#######################################################################
#
#                 Cambridge Crystallographic Data Centre
#                                CCDC 
#
#######################################################################
#
# If this CIF has been generated from an entry in the Cambridge 
# Structural Database, then it will include bibliographic, chemical, 
# crystal, experimental, refinement or atomic coordinate data resulting 
# from the CCDC's data processing and validation procedures.
#
#######################################################################

data_PILXIR
_symmetry_cell_setting           monoclinic
_symmetry_space_group_name_H-M   'P 21/n'
_symmetry_Int_Tables_number      14
_space_group_name_Hall           '-P 2yn'
loop_
_symmetry_equiv_pos_site_id
_symmetry_equiv_pos_as_xyz
1 x,y,z
2 1/2-x,1/2+y,1/2-z
3 -x,-y,-z
4 1/2+x,1/2-y,1/2+z
_cell_length_a                   13.875(1)
_cell_length_b                   5.748(1)
_cell_length_c                   14.739(3)
_cell_angle_alpha                90
_cell_angle_beta                 106.32(1)
_cell_angle_gamma                90
_cell_volume                     1128.12
loop_
_atom_site_label
_atom_site_type_symbol
_atom_site_fract_x
_atom_site_fract_y
_atom_site_fract_z
Cu1 Cu 0.30661(8) 0.2738(2) 0.11666(8)
O1 O 0.3216(4) 0.521(1) 0.0301(4)
O2 O 0.2397(5) 0.815(1) -0.0543(5)
O3 O 0.2523(4) 0.027(1) 0.1819(4)
O4 O 0.1174(3) -0.047(1) 0.2321(4)
N1 N 0.1766(6) 0.431(2) 0.1060(7)
N2 N 0.4327(5) 0.130(1) 0.1193(4)
N3 N 0.5868(5) 0.104(1) 0.1080(5)
C1 C 0.2455(7) 0.648(2) 0.0003(6)
C2 C 0.1538(6) 0.587(2) 0.0309(6)
C3 C 0.1073(6) 0.268(2) 0.1261(6)
C4 C 0.1621(7) 0.064(2) 0.1858(6)
C5 C 0.5036(6) 0.226(2) 0.0887(6)
C6 C 0.5708(7) -0.093(1) 0.1549(6)
C7 C 0.6524(8) -0.269(2) 0.1891(7)
C8 C 0.4765(6) -0.078(2) 0.1617(6)
H1 H 0.1959 0.5303 0.1625
H2 H 0.1250 0.7500 0.0410
H3 H 0.1054 0.5000 -0.0195
H4 H 0.0410 0.3750 0.1445
H5 H 0.0689 0.1800 0.0720
H6 H 0.4785 0.3750 0.0625
H7 H 0.6464 0.1250 0.1054
H8 H 0.6250 -0.4179 0.2070
H9 H 0.6875 -0.2089 0.2500
H10 H 0.6844 -0.3006 0.1411
H11 H 0.4375 -0.2089 0.1875
O4A O 0.3826(3) 0.453(1) 0.2679(4)
Cu1A Cu 0.19339(8) -0.2262(2) 0.38334(8)
O5 O 0.5820(6) -0.639(1) 0.3880(5)
loop_
_geom_bond_atom_site_label_1
_geom_bond_atom_site_label_2
_geom_bond_site_symmetry_1
_geom_bond_site_symmetry_2
Cu1 O1 1_555 1_555
O1 C1 1_555 1_555
O2 C1 1_555 1_555
O3 Cu1 1_555 1_555
O4 C4 1_555 1_555
N1 Cu1 1_555 1_555
N2 Cu1 1_555 1_555
N3 C5 1_555 1_555
C1 C2 1_555 1_555
C2 N1 1_555 1_555
C3 N1 1_555 1_555
C4 O3 1_555 1_555
C5 N2 1_555 1_555
C6 N3 1_555 1_555
C7 C6 1_555 1_555
C8 N2 1_555 1_555
H1 N1 1_555 1_555
H2 C2 1_555 1_555
H3 C2 1_555 1_555
H4 C3 1_555 1_555
H5 C3 1_555 1_555
H6 C5 1_555 1_555
H7 N3 1_555 1_555
H8 C7 1_555 1_555
H9 C7 1_555 1_555
H10 C7 1_555 1_555
H11 C8 1_555 1_555
O4A Cu1 1_555 1_555
Cu1A O4 1_555 1_555
C3 C4 1_555 1_555
C6 C8 1_555 1_555

#END
