
#######################################################################
#
#                 Cambridge Crystallographic Data Centre
#                                CCDC 
#
#######################################################################
#
# If this CIF has been generated from an entry in the Cambridge 
# Structural Database, then it will include bibliographic, chemical, 
# crystal, experimental, refinement or atomic coordinate data resulting 
# from the CCDC's data processing and validation procedures.
#
#######################################################################

data_PILXUE
_symmetry_cell_setting           triclinic
_symmetry_space_group_name_H-M   'P -1'
_symmetry_Int_Tables_number      2
_space_group_name_Hall           '-P 1'
loop_
_symmetry_equiv_pos_site_id
_symmetry_equiv_pos_as_xyz
1 x,y,z
2 -x,-y,-z
_cell_length_a                   13.8184(16)
_cell_length_b                   13.7356(16)
_cell_length_c                   14.7053(19)
_cell_angle_alpha                67.473(9)
_cell_angle_beta                 64.329(9)
_cell_angle_gamma                66.728(9)
_cell_volume                     2233.95
loop_
_atom_site_label
_atom_site_type_symbol
_atom_site_fract_x
_atom_site_fract_y
_atom_site_fract_z
Eu1 Eu 0.47389(2) 0.613720(19) 0.06970(2)
Eu2 Eu 0.44473(2) 0.886261(19) 0.12333(2)
O1 O 0.5711(3) 0.7546(3) 0.0136(3)
O2 O 0.3543(3) 0.7352(3) 0.1797(3)
O3 O 0.3709(3) 0.9241(3) -0.0073(3)
O4 O 0.5587(3) 0.5721(3) 0.1956(3)
O5 O 0.2950(3) 0.6714(3) 0.0533(3)
O6 O 0.4105(3) 0.4635(3) 0.1873(3)
O7 O 0.2446(3) 0.8944(3) 0.2117(3)
O8 O 0.6024(3) 0.9170(3) -0.0591(3)
O9 O 0.3758(3) 0.5309(3) -0.0185(3)
O10 O 0.4791(3) 0.3252(3) 0.1109(3)
O11 O 0.5515(3) 0.7275(3) 0.2186(3)
O12 O 0.3713(3) 0.8998(3) 0.3040(3)
C1 C 0.6293(4) 0.8166(4) -0.0593(4)
C2 C 0.2575(4) 0.7959(4) 0.2241(4)
C3 C 0.4354(4) 0.3634(4) 0.1903(4)
C4 C 0.1651(4) 0.7443(4) 0.2948(4)
C5 C 0.2920(4) 0.6104(4) 0.0089(4)
C6 C 0.0698(4) 0.8043(5) 0.3575(4)
H1 H 0.0659 0.8744 0.3550
O13 O 0.4233(3) 1.0622(3) -0.1431(3)
C7 C 0.7717(4) 0.6594(4) -0.1284(4)
H2 H 0.7364 0.6128 -0.0686
C8 C 0.2676(4) 1.0141(4) -0.1233(4)
C9 C 0.4101(4) 0.2842(4) 0.2957(4)
C10 C 0.1700(4) 0.6396(4) 0.2991(4)
H3 H 0.2335 0.5986 0.2579
C11 C 0.7298(4) 0.7718(4) -0.1415(4)
C12 C 0.1870(4) 0.6316(4) -0.0107(4)
C13 C 0.3611(4) 0.9982(4) -0.0887(4)
C14 C 0.0807(5) 0.5960(5) 0.3646(4)
H4 H 0.0840 0.5261 0.3669
C15 C 0.6523(5) 0.5596(4) 0.3042(4)
C16 C 0.5811(4) 0.6233(4) 0.2346(4)
C17 C -0.0138(5) 0.6569(5) 0.4268(4)
H5 H -0.0736 0.6275 0.4709
C18 C 0.7832(5) 0.8413(5) -0.2308(5)
H6 H 0.7573 0.9168 -0.2395
C19 C 0.8659(5) 0.6159(5) -0.2038(5)
H7 H 0.8941 0.5404 -0.1946
C20 C -0.0195(4) 0.7607(5) 0.4236(4)
H8 H -0.0828 0.8012 0.4654
C21 C 0.2004(5) 0.9445(5) -0.0719(5)
H9 H 0.2158 0.8842 -0.0179
C22 C 0.0867(5) 0.6927(5) 0.0457(5)
H10 H 0.0849 0.7203 0.0953
O14 O 0.4993(4) 0.7960(7) 0.3821(4)
H11 H 0.5326 0.7765 0.3276
C23 C 0.1517(6) 1.1224(5) -0.2317(5)
H12 H 0.1353 1.1827 -0.2853
C24 C 0.1890(5) 0.5890(5) -0.0838(5)
H13 H 0.2557 0.5470 -0.1208
C25 C 0.3526(5) 0.3213(5) 0.3857(4)
H14 H 0.3302 0.3959 0.3810
C26 C 0.4459(5) 0.1721(5) 0.3035(5)
H15 H 0.4851 0.1467 0.2435
C27 C -0.0110(5) 0.7123(5) 0.0277(6)
H16 H -0.0783 0.7530 0.0653
C28 C 0.9177(5) 0.6855(5) -0.2927(5)
H17 H 0.9814 0.6571 -0.3434
C29 C 0.0852(5) 1.0533(5) -0.1790(5)
H18 H 0.0230 1.0667 -0.1963
C30 C 0.3988(5) 0.8582(6) 0.3832(5)
C31 C 0.1098(5) 0.9642(6) -0.1004(6)
H19 H 0.0651 0.9163 -0.0658
C32 C 0.3195(5) 0.8650(5) 0.4872(5)
C33 C 0.2443(6) 1.1024(5) -0.2051(5)
H20 H 0.2909 1.1485 -0.2423
C34 C 0.3286(6) 0.2471(6) 0.4828(5)
H21 H 0.2896 0.2719 0.5431
C35 C 0.7386(6) 0.5962(6) 0.2923(6)
H22 H 0.7539 0.6586 0.2403
C36 C 0.8747(6) 0.7969(5) -0.3060(5)
H23 H 0.9082 0.8434 -0.3672
C37 C 0.6339(7) 0.4662(6) 0.3776(6)
H24 H 0.5808 0.4374 0.3825
C38 C 0.0911(6) 0.6097(6) -0.1010(6)
H25 H 0.0923 0.5818 -0.1501
C39 C 0.7769(7) 0.4482(6) 0.4371(6)
H26 H 0.8168 0.4114 0.4834
C40 C -0.0081(6) 0.6713(6) -0.0461(6)
H27 H -0.0734 0.6853 -0.0587
C41 C 0.2078(6) 0.9069(6) 0.4985(6)
H28 H 0.1854 0.9350 0.4401
C42 C 0.4227(7) 0.0982(6) 0.4011(6)
H29 H 0.4476 0.0233 0.4065
C43 C 0.8020(6) 0.5394(6) 0.3584(7)
H30 H 0.8610 0.5626 0.3497
C44 C 0.3631(7) 0.1357(6) 0.4894(6)
H31 H 0.3458 0.0861 0.5543
C45 C 0.3537(7) 0.8250(7) 0.5745(6)
H32 H 0.4291 0.7978 0.5674
C46 C 0.1285(8) 0.9073(8) 0.5970(8)
H33 H 0.0529 0.9355 0.6049
C47 C 0.6952(8) 0.4136(6) 0.4459(7)
H34 H 0.6784 0.3524 0.4992
C48 C 0.2732(11) 0.8270(9) 0.6711(6)
H35 H 0.2950 0.8012 0.7297
C49 C 0.1626(11) 0.8657(10) 0.6830(8)
H36 H 0.1098 0.8641 0.7494
Eu1A Eu 0.52611(2) 0.386280(19) -0.06970(2)
Eu2A Eu 0.55527(2) 1.113739(19) -0.12333(2)
O8A O 0.3976(3) 1.0830(3) 0.0591(3)
O9A O 0.6242(3) 0.4691(3) 0.0185(3)
O10A O 0.5209(3) 0.6748(3) -0.1109(3)
O13A O 0.5767(3) 0.9378(3) 0.1431(3)
loop_
_geom_bond_atom_site_label_1
_geom_bond_atom_site_label_2
_geom_bond_site_symmetry_1
_geom_bond_site_symmetry_2
Eu1 O1 1_555 1_555
Eu2 O1 1_555 1_555
O1 C1 1_555 1_555
O2 Eu1 1_555 1_555
O3 Eu2 1_555 1_555
O4 Eu1 1_555 1_555
O5 Eu1 1_555 1_555
O6 Eu1 1_555 1_555
O7 Eu2 1_555 1_555
O8 Eu2 1_555 1_555
O9 C5 1_555 1_555
O10 C3 1_555 1_555
O11 Eu2 1_555 1_555
O12 Eu2 1_555 1_555
C1 O8 1_555 1_555
C2 O2 1_555 1_555
C3 O6 1_555 1_555
C4 C2 1_555 1_555
C5 O5 1_555 1_555
C6 C4 1_555 1_555
H1 C6 1_555 1_555
O13 C13 1_555 1_555
C7 H2 1_555 1_555
C8 C13 1_555 1_555
C9 C3 1_555 1_555
C10 C4 1_555 1_555
H3 C10 1_555 1_555
C11 C1 1_555 1_555
C12 C5 1_555 1_555
C13 O3 1_555 1_555
C14 C10 1_555 1_555
H4 C14 1_555 1_555
C15 C16 1_555 1_555
C16 O4 1_555 1_555
C17 C14 1_555 1_555
H5 C17 1_555 1_555
C18 C11 1_555 1_555
H6 C18 1_555 1_555
C19 C7 1_555 1_555
H7 C19 1_555 1_555
C20 C6 1_555 1_555
H8 C20 1_555 1_555
C21 C8 1_555 1_555
H9 C21 1_555 1_555
C22 C12 1_555 1_555
H10 C22 1_555 1_555
O14 H11 1_555 1_555
C23 H12 1_555 1_555
C24 C12 1_555 1_555
H13 C24 1_555 1_555
C25 C9 1_555 1_555
H14 C25 1_555 1_555
C26 C9 1_555 1_555
H15 C26 1_555 1_555
C27 C22 1_555 1_555
H16 C27 1_555 1_555
C28 C19 1_555 1_555
H17 C28 1_555 1_555
C29 C23 1_555 1_555
H18 C29 1_555 1_555
C30 O12 1_555 1_555
C31 C21 1_555 1_555
H19 C31 1_555 1_555
C32 C30 1_555 1_555
C33 C8 1_555 1_555
H20 C33 1_555 1_555
C34 C25 1_555 1_555
H21 C34 1_555 1_555
C35 C15 1_555 1_555
H22 C35 1_555 1_555
C36 C18 1_555 1_555
H23 C36 1_555 1_555
C37 C15 1_555 1_555
H24 C37 1_555 1_555
C38 C24 1_555 1_555
H25 C38 1_555 1_555
C39 H26 1_555 1_555
C40 C27 1_555 1_555
H27 C40 1_555 1_555
C41 C32 1_555 1_555
H28 C41 1_555 1_555
C42 C26 1_555 1_555
H29 C42 1_555 1_555
C43 C35 1_555 1_555
H30 C43 1_555 1_555
C44 C34 1_555 1_555
H31 C44 1_555 1_555
C45 C32 1_555 1_555
H32 C45 1_555 1_555
C46 C41 1_555 1_555
H33 C46 1_555 1_555
C47 C37 1_555 1_555
H34 C47 1_555 1_555
C48 C45 1_555 1_555
H35 C48 1_555 1_555
C49 C46 1_555 1_555
H36 C49 1_555 1_555
Eu1A O9 1_555 1_555
Eu2A O8 1_555 1_555
O8A Eu2 1_555 1_555
O9A Eu1 1_555 1_555
O10A Eu1 1_555 1_555
O13A Eu2 1_555 1_555
Eu2 O2 1_555 1_555
O7 C2 1_555 1_555
O10 Eu1A 1_555 1_555
O11 C16 1_555 1_555
O13 Eu2A 1_555 1_555
C7 C11 1_555 1_555
C17 C20 1_555 1_555
O14 C30 1_555 1_555
C23 C33 1_555 1_555
C28 C36 1_555 1_555
C29 C31 1_555 1_555
C38 C40 1_555 1_555
C39 C43 1_555 1_555
C39 C47 1_555 1_555
C42 C44 1_555 1_555
C48 C49 1_555 1_555
Eu2A O8A 1_555 1_555

#END
