
#######################################################################
#
#                 Cambridge Crystallographic Data Centre
#                                CCDC 
#
#######################################################################
#
# If this CIF has been generated from an entry in the Cambridge 
# Structural Database, then it will include bibliographic, chemical, 
# crystal, experimental, refinement or atomic coordinate data resulting 
# from the CCDC's data processing and validation procedures.
#
#######################################################################

data_PILYOA
_symmetry_cell_setting           monoclinic
_symmetry_space_group_name_H-M   'P 21/c'
_symmetry_Int_Tables_number      14
_space_group_name_Hall           '-P 2ybc'
loop_
_symmetry_equiv_pos_site_id
_symmetry_equiv_pos_as_xyz
1 x,y,z
2 -x,1/2+y,1/2-z
3 -x,-y,-z
4 x,1/2-y,1/2+z
_cell_length_a                   9.958(2)
_cell_length_b                   13.999(3)
_cell_length_c                   28.165(7)
_cell_angle_alpha                90
_cell_angle_beta                 105.26(3)
_cell_angle_gamma                90
_cell_volume                     3787.82
loop_
_atom_site_label
_atom_site_type_symbol
_atom_site_fract_x
_atom_site_fract_y
_atom_site_fract_z
C1 C 0.1465(5) 0.9654(3) 0.87179(16)
H1 H 0.0747 0.9415 0.8838
C2 C 0.3489(5) 1.0117(3) 0.86725(16)
C3 C 0.2574(5) 1.0266(3) 0.82068(17)
C4 C 0.3027(6) 1.0633(4) 0.78160(19)
H2 H 0.2419 1.0731 0.7507
C5 C 0.4415(7) 1.0843(5) 0.7910(2)
H3 H 0.4756 1.1095 0.7660
C6 C 0.5329(6) 1.0690(5) 0.8369(2)
H4 H 0.6266 1.0837 0.8417
C7 C 0.4885(5) 1.0327(4) 0.87539(19)
H5 H 0.5505 1.0227 0.9060
C8 C 0.0043(5) 0.9820(3) 0.78567(16)
C9 C -0.0446(5) 1.0532(4) 0.75159(18)
H6 H 0.0040 1.1104 0.7534
C10 C -0.1657(5) 1.0395(4) 0.71481(17)
H7 H -0.1980 1.0879 0.6921
C11 C -0.2404(5) 0.9545(3) 0.71115(16)
C12 C -0.1867(5) 0.8829(4) 0.74519(17)
H8 H -0.2332 0.8248 0.7429
C13 C -0.0659(5) 0.8962(3) 0.78232(17)
H9 H -0.0323 0.8477 0.8049
C14 C -0.3715(5) 0.9404(3) 0.67193(16)
C15 C -0.4113(5) 0.8522(4) 0.65096(17)
H10 H -0.3520 0.8004 0.6607
C16 C -0.5358(5) 0.8384(3) 0.61613(17)
H11 H -0.5601 0.7781 0.6029
C17 C -0.6238(5) 0.9146(3) 0.60109(16)
C18 C -0.5880(5) 1.0050(4) 0.62053(18)
H12 H -0.6470 1.0566 0.6100
C19 C -0.4632(5) 1.0170(4) 0.65587(18)
H13 H -0.4393 1.0773 0.6693
C20 C -0.7764(5) 0.8508(3) 0.52373(16)
H14 H -0.7048 0.8237 0.5127
C21 C -0.9812(5) 0.8932(3) 0.52837(16)
C22 C -0.8854(5) 0.9304(3) 0.56976(17)
C23 C -0.9275(6) 0.9820(4) 0.60536(18)
H15 H -0.8638 1.0071 0.6328
C24 C -1.0686(6) 0.9940(4) 0.5979(2)
H16 H -1.1009 1.0283 0.6209
C25 C -1.1638(6) 0.9570(4) 0.5574(2)
H17 H -1.2582 0.9666 0.5540
C26 C -1.1225(5) 0.9061(3) 0.52192(18)
H18 H -1.1871 0.8814 0.4946
C27 C 0.1173(5) 0.8821(3) 1.01322(19)
C28 C -0.3817(4) 0.8606(3) 1.01709(16)
C29 C 0.0092(4) 0.8580(3) 1.04009(16)
C30 C -0.1303(4) 0.8704(3) 1.01702(16)
H19 H -0.1577 0.8978 0.9859
C31 C -0.2289(4) 0.8418(3) 1.04064(15)
C32 C -0.1887(4) 0.8000(3) 1.08645(16)
H20 H -0.2561 0.7782 1.1012
C33 C -0.0488(4) 0.7901(3) 1.11088(16)
C34 C 0.0489(4) 0.8208(3) 1.08719(16)
H21 H 0.1431 0.8164 1.1033
C35 C -0.0066(6) 0.7454(4) 1.16101(18)
H22 H 0.0931 0.7447 1.1726
H23 H -0.0412 0.6812 1.1592
H24 H -0.0446 0.7818 1.1833
C36 C 0.2486(4) 0.7476(3) 0.89238(17)
C37 C 0.7452(5) 0.7624(4) 0.88526(19)
C38 C 0.3546(4) 0.7623(3) 0.86409(15)
C39 C 0.4953(4) 0.7564(3) 0.88740(16)
H25 H 0.5246 0.7415 0.9207
C40 C 0.5922(4) 0.7727(3) 0.86093(16)
C41 C 0.5466(5) 0.7985(4) 0.81175(17)
H26 H 0.6121 0.8124 0.7946
C42 C 0.4069(4) 0.8042(4) 0.78750(16)
C43 C 0.3114(4) 0.7835(3) 0.81411(16)
H27 H 0.2168 0.7839 0.7983
C44 C 0.3599(6) 0.8309(5) 0.73375(18)
H28 H 0.2600 0.8303 0.7231
H29 H 0.3965 0.7858 0.7147
H30 H 0.3932 0.8937 0.7292
N1 N 0.2750(4) 0.9732(3) 0.89852(13)
N2 N 0.1284(4) 0.9956(3) 0.82464(13)
N3 N -0.9089(4) 0.8442(3) 0.49977(13)
N4 N -0.7553(4) 0.9010(3) 0.56583(13)
O1 O 0.0800(3) 0.8848(2) 0.96669(12)
O2 O 0.2403(3) 0.8945(3) 1.03741(13)
O3 O -0.4720(3) 0.8106(3) 1.02754(13)
O4 O -0.4116(3) 0.9305(2) 0.98744(11)
O5 O 0.2845(3) 0.7587(2) 0.93837(11)
O6 O 0.1263(3) 0.7263(2) 0.86951(12)
O7 O 0.8312(4) 0.8024(5) 0.86776(17)
O8 O 0.7835(3) 0.7139(3) 0.92248(14)
Cd1 Cd 0.34839(3) 0.91188(2) 0.976770(11)
Cd2 Cd 0.01511(3) 0.73809(3) 0.929583(12)
N3C N 0.0911(4) 0.6558(3) 0.99977(13)
O3_2 O 0.5280(3) 0.8106(3) 1.02754(13)
O4_2 O 0.5884(3) 0.9305(2) 0.98744(11)
O4B O 0.4116(3) 1.0695(2) 1.01256(11)
O7_2 O -0.1688(4) 0.8024(5) 0.86776(17)
O8_2 O -0.2165(3) 0.7139(3) 0.92248(14)
Cd1_2 Cd -0.65161(3) 0.91188(2) 0.976770(11)
Cd1B Cd -0.34839(3) 1.08812(2) 1.023230(11)
Cd2_2 Cd 1.01511(3) 0.73809(3) 0.929583(12)
Cd2C Cd -0.98489(3) 0.76191(3) 0.429583(12)
loop_
_geom_bond_atom_site_label_1
_geom_bond_atom_site_label_2
_geom_bond_site_symmetry_1
_geom_bond_site_symmetry_2
C1 H1 1_555 1_555
C2 C3 1_555 1_555
C3 C4 1_555 1_555
C4 H2 1_555 1_555
C5 C4 1_555 1_555
H3 C5 1_555 1_555
C6 C5 1_555 1_555
H4 C6 1_555 1_555
C7 C2 1_555 1_555
H5 C7 1_555 1_555
C8 C9 1_555 1_555
C9 H6 1_555 1_555
C10 C9 1_555 1_555
H7 C10 1_555 1_555
C11 C10 1_555 1_555
C12 C11 1_555 1_555
H8 C12 1_555 1_555
C13 C8 1_555 1_555
H9 C13 1_555 1_555
C14 C11 1_555 1_555
C15 C14 1_555 1_555
H10 C15 1_555 1_555
C16 C15 1_555 1_555
H11 C16 1_555 1_555
C17 C16 1_555 1_555
C18 C17 1_555 1_555
H12 C18 1_555 1_555
C19 C14 1_555 1_555
H13 C19 1_555 1_555
C20 H14 1_555 1_555
C21 C22 1_555 1_555
C22 C23 1_555 1_555
C23 H15 1_555 1_555
C24 C23 1_555 1_555
H16 C24 1_555 1_555
C25 C24 1_555 1_555
H17 C25 1_555 1_555
C26 C21 1_555 1_555
H18 C26 1_555 1_555
C27 C29 1_555 1_555
C28 C31 1_555 1_555
C29 C30 1_555 1_555
C30 H19 1_555 1_555
C31 C30 1_555 1_555
C32 C31 1_555 1_555
H20 C32 1_555 1_555
C33 C32 1_555 1_555
C34 C29 1_555 1_555
H21 C34 1_555 1_555
C35 C33 1_555 1_555
H22 C35 1_555 1_555
H23 C35 1_555 1_555
H24 C35 1_555 1_555
C36 C38 1_555 1_555
C37 C40 1_555 1_555
C38 C39 1_555 1_555
C39 H25 1_555 1_555
C40 C39 1_555 1_555
C41 C40 1_555 1_555
H26 C41 1_555 1_555
C42 C41 1_555 1_555
C43 C38 1_555 1_555
H27 C43 1_555 1_555
C44 C42 1_555 1_555
H28 C44 1_555 1_555
H29 C44 1_555 1_555
H30 C44 1_555 1_555
N1 C1 1_555 1_555
N2 C1 1_555 1_555
N3 C20 1_555 1_555
N4 C17 1_555 1_555
O1 C27 1_555 1_555
O2 C27 1_555 1_555
O3 C28 1_555 1_555
O4 C28 1_555 1_555
O5 C36 1_555 1_555
O6 C36 1_555 1_555
O7 C37 1_555 1_555
O8 C37 1_555 1_555
Cd1 N1 1_555 1_555
Cd2 O1 1_555 1_555
N3C Cd2 1_555 1_555
O3_2 Cd1 1_555 1_555
O4_2 Cd1 1_555 1_555
O4B Cd1 1_555 1_555
O7_2 Cd2 1_555 1_555
O8_2 Cd2 1_555 1_555
Cd1_2 O3 1_555 1_555
Cd1B O4 1_555 1_555
Cd2_2 O7 1_555 1_555
Cd2C N3 1_555 1_555
C2 N1 1_555 1_555
C3 N2 1_555 1_555
C6 C7 1_555 1_555
C8 N2 1_555 1_555
C12 C13 1_555 1_555
C18 C19 1_555 1_555
C20 N4 1_555 1_555
C21 N3 1_555 1_555
C22 N4 1_555 1_555
C25 C26 1_555 1_555
C33 C34 1_555 1_555
C42 C43 1_555 1_555
O1 Cd1 1_555 1_555
O2 Cd1 1_555 1_555
O4 Cd1_2 1_555 1_555
O5 Cd1 1_555 1_555
O5 Cd2 1_555 1_555
O6 Cd2 1_555 1_555
O8 Cd2_2 1_555 1_555

#END
