
#######################################################################
#
#                 Cambridge Crystallographic Data Centre
#                                CCDC 
#
#######################################################################
#
# If this CIF has been generated from an entry in the Cambridge 
# Structural Database, then it will include bibliographic, chemical, 
# crystal, experimental, refinement or atomic coordinate data resulting 
# from the CCDC's data processing and validation procedures.
#
#######################################################################

data_PILYUG
_symmetry_cell_setting           monoclinic
_symmetry_space_group_name_H-M   'P 21/c'
_symmetry_Int_Tables_number      14
_space_group_name_Hall           '-P 2ybc'
loop_
_symmetry_equiv_pos_site_id
_symmetry_equiv_pos_as_xyz
1 x,y,z
2 -x,1/2+y,1/2-z
3 -x,-y,-z
4 x,1/2-y,1/2+z
_cell_length_a                   13.669(3)
_cell_length_b                   5.8838(12)
_cell_length_c                   29.791(9)
_cell_angle_alpha                90
_cell_angle_beta                 108.55(3)
_cell_angle_gamma                90
_cell_volume                     2271.48
loop_
_atom_site_label
_atom_site_type_symbol
_atom_site_fract_x
_atom_site_fract_y
_atom_site_fract_z
C1 C 0.7989(3) 0.8911(8) 0.34429(17)
H1 H 0.7442 0.9550 0.3520
C2 C 0.8863(3) 0.6857(8) 0.31103(16)
C3 C 0.9185(4) 0.5277(9) 0.28418(18)
H2 H 0.8713 0.4375 0.2619
C4 C 1.0228(4) 0.5093(11) 0.2918(2)
H3 H 1.0467 0.4054 0.2742
C5 C 1.0928(4) 0.6429(12) 0.3251(2)
H4 H 1.1628 0.6265 0.3291
C6 C 1.0630(4) 0.7977(11) 0.3523(2)
H5 H 1.1111 0.8852 0.3748
C7 C 0.9576(4) 0.8190(8) 0.34506(17)
C8 C 0.9318(4) 1.1060(8) 0.40491(18)
C9 C 1.0047(5) 1.2684(11) 0.4072(2)
H6 H 1.0363 1.2770 0.3839
C10 C 1.0310(6) 1.4204(11) 0.4448(2)
H7 H 1.0810 1.5297 0.4462
C11 C 0.9862(4) 1.4159(9) 0.48005(18)
C12 C 0.9140(4) 1.2472(10) 0.4772(2)
H8 H 0.8825 1.2367 0.5006
C13 C 0.8878(4) 1.0938(10) 0.4401(2)
H9 H 0.8396 0.9808 0.4390
C14 C 0.6201(3) 0.4421(7) 0.35647(13)
C15 C 0.6411(3) 0.0404(7) 0.68837(13)
C16 C 0.6267(3) 0.3786(7) 0.40603(12)
C17 C 0.6009(3) 0.1635(7) 0.41706(13)
H10 H 0.5805 0.0533 0.3935
C18 C 0.6053(3) 0.1109(7) 0.46318(13)
H11 H 0.5853 -0.0328 0.4699
C19 C 0.6392(3) 0.2704(7) 0.49938(12)
C20 C 0.6678(4) 0.4829(7) 0.48781(14)
H12 H 0.6921 0.5910 0.5115
C21 C 0.6608(4) 0.5369(7) 0.44205(14)
H13 H 0.6793 0.6817 0.4352
C22 C 0.6432(3) 0.2158(7) 0.54846(13)
C23 C 0.6122(3) 0.3734(7) 0.57629(13)
H14 H 0.5893 0.5161 0.5639
C24 C 0.6148(3) 0.3210(7) 0.62220(13)
H15 H 0.5962 0.4300 0.6406
C25 C 0.6450(3) 0.1075(7) 0.64039(12)
C26 C 0.6778(3) -0.0491(7) 0.61378(13)
H16 H 0.6998 -0.1921 0.6262
C27 C 0.6780(3) 0.0064(7) 0.56851(13)
H17 H 0.7020 -0.0992 0.5513
N1 N 0.7873(3) 0.7368(6) 0.31149(13)
N2 N 0.8995(3) 0.9488(7) 0.36602(14)
O1 O 0.6013(2) 0.6479(5) 0.34441(9)
O2 O 0.6348(2) 0.2958(5) 0.32894(9)
O3 O 0.6290(3) -0.1645(5) 0.69596(10)
O4 O 0.6499(2) 0.1886(5) 0.71976(9)
O5 O 0.5562(2) 0.9901(5) 0.25856(11)
H18 H 0.564(3) 1.061(7) 0.2801(14)
H19 H 0.581(4) 1.051(10) 0.241(2)
Cd1 Cd 0.62567(2) 0.60319(5) 0.271581(9)
C1B C 1.2011(3) 2.1089(8) 0.65571(17)
H1B H 1.2558 2.0450 0.6480
C2B C 1.1137(3) 2.3143(8) 0.68897(16)
C3B C 1.0815(4) 2.4723(9) 0.71582(18)
H2B H 1.1287 2.5625 0.7381
C4B C 0.9772(4) 2.4907(11) 0.7082(2)
H3B H 0.9533 2.5946 0.7258
C5B C 0.9072(4) 2.3571(12) 0.6749(2)
H4B H 0.8372 2.3735 0.6709
C6B C 0.9370(4) 2.2023(11) 0.6477(2)
H5B H 0.8889 2.1148 0.6252
C7B C 1.0424(4) 2.1810(8) 0.65494(17)
C8B C 1.0682(4) 1.8940(8) 0.59509(18)
C9B C 0.9953(5) 1.7316(11) 0.5928(2)
H6B H 0.9637 1.7230 0.6161
C10B C 0.9690(6) 1.5796(11) 0.5552(2)
H7B H 0.9190 1.4703 0.5538
C11B C 1.0138(4) 1.5841(9) 0.51995(18)
C12B C 1.0860(4) 1.7528(10) 0.5228(2)
H8B H 1.1175 1.7633 0.4994
C13B C 1.1122(4) 1.9062(10) 0.5599(2)
H9B H 1.1604 2.0192 0.5610
N1B N 1.2127(3) 2.2632(6) 0.68851(13)
N2B N 1.1005(3) 2.0512(7) 0.63398(14)
C14B C 1.3799(3) 2.5579(7) 0.64353(13)
C15B C 1.3589(3) 2.9596(7) 0.31163(13)
C16B C 1.3733(3) 2.6214(7) 0.59397(12)
C17B C 1.3991(3) 2.8365(7) 0.58294(13)
H10B H 1.4195 2.9467 0.6065
C18B C 1.3947(3) 2.8891(7) 0.53682(13)
H11B H 1.4147 3.0328 0.5301
C19B C 1.3608(3) 2.7296(7) 0.50062(12)
C20B C 1.3322(4) 2.5171(7) 0.51219(14)
H12B H 1.3079 2.4090 0.4885
C21B C 1.3392(4) 2.4631(7) 0.55795(14)
H13B H 1.3207 2.3183 0.5648
C22B C 1.3568(3) 2.7842(7) 0.45154(13)
C23B C 1.3878(3) 2.6266(7) 0.42371(13)
H14B H 1.4107 2.4839 0.4361
C24B C 1.3852(3) 2.6790(7) 0.37780(13)
H15B H 1.4038 2.5700 0.3594
C25B C 1.3550(3) 2.8925(7) 0.35961(12)
C26B C 1.3222(3) 3.0491(7) 0.38622(13)
H16B H 1.3002 3.1921 0.3738
C27B C 1.3220(3) 2.9936(7) 0.43149(13)
H17B H 1.2980 3.0992 0.4487
O1B O 1.3987(2) 2.3521(5) 0.65559(9)
O2B O 1.3652(2) 2.7042(5) 0.67106(9)
O3B O 1.3710(3) 3.1645(5) 0.30404(10)
O4B O 1.3501(2) 2.8114(5) 0.28024(9)
O5B O 1.4438(2) 2.0099(5) 0.74144(11)
H18B H 1.436(3) 1.939(7) 0.7199(14)
H19B H 1.419(4) 1.949(10) 0.759(2)
Cd1B Cd 1.37433(2) 2.39681(5) 0.728419(9)
O3A O 1.3710(3) 2.3355(5) 0.80404(10)
O3C O 0.6290(3) 0.6645(5) 0.19596(10)
O4A O 1.3501(2) 2.6886(5) 0.78024(9)
O4C O 0.6499(2) 0.3114(5) 0.21976(9)
O5A O 0.4438(2) 0.4901(5) 0.24144(11)
O5C O 1.5562(2) 2.5099(5) 0.75856(11)
Cd1A Cd 0.37433(2) 1.10319(5) 0.228419(9)
Cd1A_2 Cd 1.37433(2) 3.10319(5) 0.228419(9)
Cd1C Cd 0.62567(2) -0.10319(5) 0.771581(9)
Cd1C_2 Cd 1.62567(2) 1.89681(5) 0.771581(9)
loop_
_geom_bond_atom_site_label_1
_geom_bond_atom_site_label_2
_geom_bond_site_symmetry_1
_geom_bond_site_symmetry_2
C1 H1 1_555 1_555
C2 C3 1_555 1_555
C3 H2 1_555 1_555
C4 C3 1_555 1_555
H3 C4 1_555 1_555
C5 C4 1_555 1_555
H4 C5 1_555 1_555
C6 C5 1_555 1_555
H5 C6 1_555 1_555
C7 C2 1_555 1_555
C8 C9 1_555 1_555
C9 H6 1_555 1_555
C10 C9 1_555 1_555
H7 C10 1_555 1_555
C11 C10 1_555 1_555
C12 C11 1_555 1_555
H8 C12 1_555 1_555
C13 C8 1_555 1_555
H9 C13 1_555 1_555
C14 C16 1_555 1_555
C15 C25 1_555 1_555
C16 C17 1_555 1_555
C17 H10 1_555 1_555
C18 C17 1_555 1_555
H11 C18 1_555 1_555
C19 C18 1_555 1_555
C20 C19 1_555 1_555
H12 C20 1_555 1_555
C21 C16 1_555 1_555
H13 C21 1_555 1_555
C22 C19 1_555 1_555
C23 C22 1_555 1_555
H14 C23 1_555 1_555
C24 C23 1_555 1_555
H15 C24 1_555 1_555
C25 C24 1_555 1_555
C26 C25 1_555 1_555
H16 C26 1_555 1_555
C27 C22 1_555 1_555
H17 C27 1_555 1_555
N1 C1 1_555 1_555
N2 C1 1_555 1_555
O1 C14 1_555 1_555
O2 C14 1_555 1_555
O3 C15 1_555 1_555
O4 C15 1_555 1_555
O5 H18 1_555 1_555
H19 O5 1_555 1_555
Cd1 N1 1_555 1_555
C1B H1B 1_555 1_555
C2B C3B 1_555 1_555
C3B H2B 1_555 1_555
C4B C3B 1_555 1_555
H3B C4B 1_555 1_555
C5B C4B 1_555 1_555
H4B C5B 1_555 1_555
C6B C5B 1_555 1_555
H5B C6B 1_555 1_555
C7B C2B 1_555 1_555
C8B C9B 1_555 1_555
C9B H6B 1_555 1_555
C10B C9B 1_555 1_555
H7B C10B 1_555 1_555
C11B C11 1_555 1_555
C12B C11B 1_555 1_555
H8B C12B 1_555 1_555
C13B C8B 1_555 1_555
H9B C13B 1_555 1_555
N1B C1B 1_555 1_555
N2B C1B 1_555 1_555
C14B C16B 1_555 1_555
C15B C25B 1_555 1_555
C16B C17B 1_555 1_555
C17B H10B 1_555 1_555
C18B C17B 1_555 1_555
H11B C18B 1_555 1_555
C19B C18B 1_555 1_555
C20B C19B 1_555 1_555
H12B C20B 1_555 1_555
C21B C16B 1_555 1_555
H13B C21B 1_555 1_555
C22B C19B 1_555 1_555
C23B C22B 1_555 1_555
H14B C23B 1_555 1_555
C24B C23B 1_555 1_555
H15B C24B 1_555 1_555
C25B C24B 1_555 1_555
C26B C25B 1_555 1_555
H16B C26B 1_555 1_555
C27B C22B 1_555 1_555
H17B C27B 1_555 1_555
O1B C14B 1_555 1_555
O2B C14B 1_555 1_555
O3B C15B 1_555 1_555
O4B C15B 1_555 1_555
O5B H18B 1_555 1_555
H19B O5B 1_555 1_555
Cd1B N1B 1_555 1_555
O3A Cd1B 1_555 1_555
O3C Cd1 1_555 1_555
O4A Cd1B 1_555 1_555
O4C Cd1 1_555 1_555
O5A Cd1 1_555 1_555
O5C Cd1B 1_555 1_555
Cd1A O5 1_555 1_555
Cd1A_2 O3B 1_555 1_555
Cd1C O3 1_555 1_555
Cd1C_2 O5B 1_555 1_555
C2 N1 1_555 1_555
C6 C7 1_555 1_555
C7 N2 1_555 1_555
C8 N2 1_555 1_555
C12 C13 1_555 1_555
C20 C21 1_555 1_555
C26 C27 1_555 1_555
O1 Cd1 1_555 1_555
O2 Cd1 1_555 1_555
O4 Cd1C 1_555 1_555
O5 Cd1 1_555 1_555
C2B N1B 1_555 1_555
C6B C7B 1_555 1_555
C7B N2B 1_555 1_555
C8B N2B 1_555 1_555
C10B C11B 1_555 1_555
C12B C13B 1_555 1_555
C20B C21B 1_555 1_555
C26B C27B 1_555 1_555
O1B Cd1B 1_555 1_555
O2B Cd1B 1_555 1_555
O4B Cd1A_2 1_555 1_555
O5B Cd1B 1_555 1_555

#END
