
#######################################################################
#
#                 Cambridge Crystallographic Data Centre
#                                CCDC 
#
#######################################################################
#
# If this CIF has been generated from an entry in the Cambridge 
# Structural Database, then it will include bibliographic, chemical, 
# crystal, experimental, refinement or atomic coordinate data resulting 
# from the CCDC's data processing and validation procedures.
#
#######################################################################

data_PILZAN
_symmetry_cell_setting           triclinic
_symmetry_space_group_name_H-M   'P -1'
_symmetry_Int_Tables_number      2
_space_group_name_Hall           '-P 1'
loop_
_symmetry_equiv_pos_site_id
_symmetry_equiv_pos_as_xyz
1 x,y,z
2 -x,-y,-z
_cell_length_a                   9.765(2)
_cell_length_b                   15.729(3)
_cell_length_c                   20.076(4)
_cell_angle_alpha                112.19(3)
_cell_angle_beta                 92.51(3)
_cell_angle_gamma                92.39(3)
_cell_volume                     2846.77
loop_
_atom_site_label
_atom_site_type_symbol
_atom_site_fract_x
_atom_site_fract_y
_atom_site_fract_z
C1 C 0.9776(3) 0.2870(2) 0.94757(18)
H1 H 0.8831 0.2744 0.9441
C2 C 1.1949(3) 0.2857(2) 0.97144(17)
C3 C 1.3248(4) 0.2698(2) 0.99304(19)
H2 H 1.3366 0.2295 1.0165
C4 C 1.4364(4) 0.3158(3) 0.9787(2)
H3 H 1.5246 0.3062 0.9928
C5 C 1.4187(4) 0.3765(3) 0.9432(2)
H4 H 1.4956 0.4055 0.9333
C6 C 1.2906(4) 0.3941(3) 0.9228(2)
H5 H 1.2794 0.4351 0.8998
C7 C 1.1791(3) 0.3491(2) 0.93742(19)
C8 C 0.9666(3) 0.4022(2) 0.89086(18)
C9 C 1.0116(4) 0.4916(2) 0.90567(19)
H6 H 1.0863 0.5183 0.9384
C10 C 0.9456(3) 0.5425(2) 0.87168(18)
H7 H 0.9778 0.6028 0.8814
C11 C 0.8328(3) 0.5046(2) 0.82364(17)
C12 C 0.7842(4) 0.4152(2) 0.81215(19)
H8 H 0.7053 0.3897 0.7824
C13 C 0.8527(4) 0.3640(2) 0.8448(2)
H9 H 0.8212 0.3037 0.8355
C14 C 0.7703(3) 0.5571(2) 0.78357(17)
C15 C 0.7695(4) 0.6522(2) 0.81294(17)
H10 H 0.8054 0.6840 0.8600
C16 C 0.7167(4) 0.7012(2) 0.77425(17)
H11 H 0.7182 0.7651 0.7946
C17 C 0.6620(3) 0.6535(2) 0.70497(17)
C18 C 0.6600(4) 0.5586(2) 0.67406(19)
H12 H 0.6221 0.5270 0.6274
C19 C 0.7151(4) 0.5113(2) 0.71359(18)
H13 H 0.7152 0.4475 0.6928
C20 C 0.6418(3) 0.6923(2) 0.59645(17)
H14 H 0.7078 0.6533 0.5721
C21 C 0.5052(3) 0.7651(2) 0.68114(16)
C22 C 0.4267(4) 0.7971(3) 0.74018(19)
H15 H 0.4383 0.7785 0.7788
C23 C 0.3299(4) 0.8582(3) 0.7389(2)
H16 H 0.2750 0.8815 0.7776
C24 C 0.3128(4) 0.8856(3) 0.6812(2)
H17 H 0.2474 0.9275 0.6827
C25 C 0.3885(4) 0.8532(2) 0.62230(19)
H18 H 0.3756 0.8718 0.5838
C26 C 0.4865(3) 0.7907(2) 0.62234(16)
C27 C 0.7115(3) 0.1089(2) 0.90178(16)
H19 H 0.6714 0.1507 0.9411
C28 C 0.8498(3) 0.0120(2) 0.83686(16)
C29 C 0.9522(3) -0.0484(2) 0.81063(18)
H20 H 1.0234 -0.0534 0.8410
C30 C 0.9437(4) -0.1008(3) 0.73769(19)
H21 H 1.0102 -0.1425 0.7187
C31 C 0.8382(4) -0.0932(3) 0.69154(19)
H22 H 0.8380 -0.1284 0.6425
C32 C 0.7347(4) -0.0350(2) 0.71651(18)
H23 H 0.6635 -0.0304 0.6859
C33 C 0.7426(3) 0.0165(2) 0.79018(16)
C34 C 0.5302(3) 0.1090(2) 0.81084(17)
C35 C 0.4070(3) 0.0912(2) 0.83446(18)
H24 H 0.4034 0.0602 0.8658
C36 C 0.2869(3) 0.1196(2) 0.81134(18)
H25 H 0.2031 0.1078 0.8275
C37 C 0.2914(3) 0.1653(2) 0.76467(17)
C38 C 0.4173(4) 0.1831(3) 0.7420(2)
H26 H 0.4218 0.2148 0.7112
C39 C 0.5368(4) 0.1545(3) 0.7645(2)
H27 H 0.6207 0.1660 0.7483
C40 C 0.1657(3) 0.1945(2) 0.73627(17)
C41 C 0.0500(3) 0.1356(2) 0.70755(18)
H28 H 0.0432 0.0797 0.7134
C42 C -0.0567(3) 0.1584(2) 0.66994(18)
H29 H -0.1326 0.1175 0.6496
C43 C -0.0475(3) 0.2425(2) 0.66350(17)
C44 C 0.0609(3) 0.3057(2) 0.6976(2)
H30 H 0.0619 0.3645 0.6968
C45 C 0.1672(3) 0.2813(2) 0.73262(19)
H31 H 0.2412 0.3234 0.7542
C46 C -0.2842(3) 0.2397(2) 0.61134(18)
H32 H -0.3249 0.2037 0.6335
C47 C -0.1266(3) 0.3149(2) 0.57613(18)
C48 C -0.0087(4) 0.3527(3) 0.5593(2)
H33 H 0.0776 0.3490 0.5792
C49 C -0.0260(5) 0.3953(4) 0.5122(3)
H34 H 0.0511 0.4197 0.4984
C50 C -0.1564(6) 0.4039(4) 0.4835(3)
H35 H -0.1640 0.4358 0.4529
C51 C -0.2720(5) 0.3660(3) 0.5001(2)
H36 H -0.3586 0.3715 0.4814
C52 C -0.2553(3) 0.3191(2) 0.54583(18)
C53 C 0.8166(4) 0.2642(2) 1.1069(2)
C54 C 0.6396(4) 0.5742(2) 1.3472(2)
C55 C 0.7667(3) 0.3426(2) 1.17060(18)
C56 C 0.8262(4) 0.3641(2) 1.23906(19)
H37 H 0.8954 0.3294 1.2469
C57 C 0.7818(4) 0.4383(3) 1.29635(19)
H38 H 0.8202 0.4519 1.3427
C58 C 0.6824(3) 0.4914(2) 1.28535(18)
C59 C 0.6257(4) 0.4712(3) 1.2170(2)
H39 H 0.5592 0.5076 1.2091
C60 C 0.6669(4) 0.3972(3) 1.16011(19)
H40 H 0.6272 0.3836 1.1140
C61 C 1.2200(3) 0.0553(2) 1.01055(17)
C62 C 1.3652(3) 0.02601(19) 1.00530(15)
C63 C 1.3981(3) -0.0539(2) 0.94989(16)
H41 H 1.3298 -0.0902 0.9162
C64 C 1.5316(3) -0.0797(2) 0.94467(16)
H42 H 1.5528 -0.1333 0.9075
C65 C 0.7736(4) 0.8664(2) 0.47664(18)
C66 C 0.8899(3) 0.9371(2) 0.48917(17)
C67 C 1.0163(4) 0.9241(2) 0.51776(19)
H43 H 1.0268 0.8732 0.5299
C68 C 1.1263(4) 0.9871(2) 0.52800(19)
H44 H 1.2111 0.9782 0.5465
N1 N 1.0647(3) 0.24734(18) 0.97611(15)
N2 N 1.0385(3) 0.34855(18) 0.92334(15)
N3 N 0.6064(3) 0.70191(18) 0.66289(14)
N4 N 0.5734(3) 0.74370(18) 0.56956(14)
N5 N 0.8287(2) 0.07272(17) 0.90730(13)
N6 N 0.6552(3) 0.07935(18) 0.83364(13)
N7 N -0.1488(3) 0.26555(18) 0.62015(14)
N8 N -0.3523(3) 0.27063(18) 0.56829(15)
O1 O 0.9051(3) 0.21669(18) 1.12023(14)
O2 O 0.7701(3) 0.25307(19) 1.04608(14)
O3 O 0.5838(3) 0.63623(17) 1.33249(14)
O4 O 0.6625(3) 0.57917(16) 1.41068(13)
O5 O 1.1294(2) 0.00574(15) 0.96390(11)
O6 O 1.1948(2) 0.12880(15) 1.05941(13)
O7 O 0.6551(3) 0.88208(17) 0.46094(15)
O8 O 0.8006(3) 0.79241(18) 0.48199(17)
Cd1 Cd 0.96898(2) 0.128075(14) 1.012302(11)
Cd2 Cd 0.58038(2) 0.730258(14) 0.453548(11)
C61A C 1.7800(3) -0.0553(2) 0.98945(17)
C62A C 1.6348(3) -0.02601(19) 0.99470(15)
C63A C 1.6019(3) 0.0539(2) 1.05011(16)
H41A H 1.6702 0.0902 1.0838
C64A C 1.4684(3) 0.0797(2) 1.05533(16)
H42A H 1.4472 0.1333 1.0925
O5A O 1.8706(2) -0.00574(15) 1.03610(11)
O6A O 1.8052(2) -0.12880(15) 0.94059(13)
C65A C 1.2264(4) 1.1336(2) 0.52336(18)
C66A C 1.1101(3) 1.0629(2) 0.51083(17)
C67A C 0.9837(4) 1.0759(2) 0.48224(19)
H43A H 0.9732 1.1268 0.4701
C68A C 0.8737(4) 1.0129(2) 0.47200(19)
H44A H 0.7889 1.0218 0.4535
O7A O 1.3449(3) 1.11792(17) 0.53906(15)
O8A O 1.1994(3) 1.20759(18) 0.51801(17)
C1A C -0.9776(3) 0.7130(2) 0.05243(18)
H1A H -0.8831 0.7256 0.0559
C2A C -1.1949(3) 0.7143(2) 0.02856(17)
C3A C -1.3248(4) 0.7302(2) 0.00696(19)
H2A H -1.3366 0.7705 -0.0165
C4A C -1.4364(4) 0.6842(3) 0.0213(2)
H3A H -1.5246 0.6938 0.0072
C5A C -1.4187(4) 0.6235(3) 0.0568(2)
H4A H -1.4956 0.5945 0.0667
C6A C -1.2906(4) 0.6059(3) 0.0772(2)
H5A H -1.2794 0.5649 0.1002
C7A C -1.1791(3) 0.6509(2) 0.06258(19)
C8A C -0.9666(3) 0.5978(2) 0.10914(18)
C9A C -1.0116(4) 0.5084(2) 0.09433(19)
H6A H -1.0863 0.4817 0.0616
C10A C -0.9456(3) 0.4575(2) 0.12832(18)
H7A H -0.9778 0.3972 0.1186
C11A C -0.8328(3) 0.4954(2) 0.17636(17)
C12A C -0.7842(4) 0.5848(2) 0.18785(19)
H8A H -0.7053 0.6103 0.2176
C13A C -0.8527(4) 0.6360(2) 0.1552(2)
H9A H -0.8212 0.6963 0.1645
C14A C -0.7703(3) 0.4429(2) 0.21643(17)
C15A C -0.7695(4) 0.3478(2) 0.18706(17)
H10A H -0.8054 0.3160 0.1400
C16A C -0.7167(4) 0.2988(2) 0.22575(17)
H11A H -0.7182 0.2349 0.2054
C17A C -0.6620(3) 0.3465(2) 0.29503(17)
C18A C -0.6600(4) 0.4414(2) 0.32594(19)
H12A H -0.6221 0.4730 0.3726
C19A C -0.7151(4) 0.4887(2) 0.28641(18)
H13A H -0.7152 0.5525 0.3072
C20A C -0.6418(3) 0.3077(2) 0.40355(17)
H14A H -0.7078 0.3467 0.4279
C21A C -0.5052(3) 0.2349(2) 0.31886(16)
C22A C -0.4267(4) 0.2029(3) 0.25982(19)
H15A H -0.4383 0.2215 0.2212
C23A C -0.3299(4) 0.1418(3) 0.2611(2)
H16A H -0.2750 0.1185 0.2224
C24A C -0.3128(4) 0.1144(3) 0.3188(2)
H17A H -0.2474 0.0725 0.3173
C25A C -0.3885(4) 0.1468(2) 0.37770(19)
H18A H -0.3756 0.1282 0.4162
C26A C -0.4865(3) 0.2093(2) 0.37766(16)
C27A C -0.7115(3) 0.8911(2) 0.09822(16)
H19A H -0.6714 0.8493 0.0589
C28A C -0.8498(3) 0.9880(2) 0.16314(16)
C29A C -0.9522(3) 1.0484(2) 0.18937(18)
H20A H -1.0234 1.0534 0.1590
C30A C -0.9437(4) 1.1008(3) 0.26231(19)
H21A H -1.0102 1.1425 0.2813
C31A C -0.8382(4) 1.0932(3) 0.30846(19)
H22A H -0.8380 1.1284 0.3575
C32A C -0.7347(4) 1.0350(2) 0.28349(18)
H23A H -0.6635 1.0304 0.3141
C33A C -0.7426(3) 0.9835(2) 0.20982(16)
C34A C -0.5302(3) 0.8910(2) 0.18916(17)
C35A C -0.4070(3) 0.9088(2) 0.16554(18)
H24A H -0.4034 0.9398 0.1342
C36A C -0.2869(3) 0.8804(2) 0.18866(18)
H25A H -0.2031 0.8922 0.1725
C37A C -0.2914(3) 0.8347(2) 0.23533(17)
C38A C -0.4173(4) 0.8169(3) 0.2580(2)
H26A H -0.4218 0.7852 0.2888
C39A C -0.5368(4) 0.8455(3) 0.2355(2)
H27A H -0.6207 0.8340 0.2517
C40A C -0.1657(3) 0.8055(2) 0.26373(17)
C41A C -0.0500(3) 0.8644(2) 0.29245(18)
H28A H -0.0432 0.9203 0.2866
C42A C 0.0567(3) 0.8416(2) 0.33006(18)
H29A H 0.1326 0.8825 0.3504
C43A C 0.0475(3) 0.7575(2) 0.33650(17)
C44A C -0.0609(3) 0.6943(2) 0.3024(2)
H30A H -0.0619 0.6355 0.3032
C45A C -0.1672(3) 0.7187(2) 0.26738(19)
H31A H -0.2412 0.6766 0.2458
C46A C 0.2842(3) 0.7603(2) 0.38866(18)
H32A H 0.3249 0.7963 0.3665
C47A C 0.1266(3) 0.6851(2) 0.42387(18)
C48A C 0.0087(4) 0.6473(3) 0.4407(2)
H33A H -0.0776 0.6510 0.4208
C49A C 0.0260(5) 0.6047(4) 0.4878(3)
H34A H -0.0511 0.5803 0.5016
C50A C 0.1564(6) 0.5961(4) 0.5165(3)
H35A H 0.1640 0.5642 0.5471
C51A C 0.2720(5) 0.6340(3) 0.4999(2)
H36A H 0.3586 0.6285 0.5186
C52A C 0.2553(3) 0.6809(2) 0.45417(18)
C53A C -0.8166(4) 0.7358(2) -0.1069(2)
C54A C -0.6396(4) 0.4258(2) -0.3472(2)
C55A C -0.7667(3) 0.6574(2) -0.17060(18)
C56A C -0.8262(4) 0.6359(2) -0.23906(19)
H37A H -0.8954 0.6706 -0.2469
C57A C -0.7818(4) 0.5617(3) -0.29635(19)
H38A H -0.8202 0.5481 -0.3427
C58A C -0.6824(3) 0.5086(2) -0.28535(18)
C59A C -0.6257(4) 0.5288(3) -0.2170(2)
H39A H -0.5592 0.4924 -0.2091
C60A C -0.6669(4) 0.6028(3) -0.16011(19)
H40A H -0.6272 0.6164 -0.1140
N1A N -1.0647(3) 0.75266(18) 0.02389(15)
N2A N -1.0385(3) 0.65145(18) 0.07666(15)
N3A N -0.6064(3) 0.29809(18) 0.33711(14)
N4A N -0.5734(3) 0.25630(18) 0.43044(14)
N5A N -0.8287(2) 0.92728(17) 0.09270(13)
N6A N -0.6552(3) 0.92065(18) 0.16636(13)
N7A N 0.1488(3) 0.73445(18) 0.37985(14)
N8A N 0.3523(3) 0.72937(18) 0.43171(15)
O1A O -0.9051(3) 0.78331(18) -0.12023(14)
O2A O -0.7701(3) 0.74693(19) -0.04608(14)
O3A O -0.5838(3) 0.36377(17) -0.33249(14)
O4A O -0.6625(3) 0.42083(16) -0.41068(13)
Cd1A Cd -0.96898(2) 0.871925(14) -0.012302(11)
Cd2A Cd -0.58038(2) 0.269742(14) 0.546452(11)
O3_2 O 0.5838(3) 0.63623(17) 0.33249(14)
O3A_2 O -0.5838(3) 0.36377(17) 0.66751(14)
O4_2 O 0.6625(3) 0.57917(16) 0.41068(13)
O4A_2 O -0.6625(3) 0.42083(16) 0.58932(13)
O5_2 O -0.8706(2) 1.00574(15) -0.03610(11)
O5A_2 O -1.1294(2) 0.99426(15) 0.03610(11)
O5A_3 O 0.8706(2) -0.00574(15) 1.03610(11)
O6A_2 O -1.1948(2) 0.87120(15) -0.05941(13)
O7A_2 O -0.6551(3) 0.11792(17) 0.53906(15)
O8A_2 O -0.8006(3) 0.20759(18) 0.51801(17)
Cd1_2 Cd 1.96898(2) 0.128075(14) 1.012302(11)
Cd1A_2 Cd 1.03102(2) -0.128075(14) 0.987698(11)
Cd1A_3 Cd 2.03102(2) -0.128075(14) 0.987698(11)
Cd2_2 Cd 0.58038(2) 0.730258(14) 1.453548(11)
Cd2A_2 Cd -0.58038(2) 0.269742(14) -0.453548(11)
Cd2A_3 Cd 1.41962(2) 1.269742(14) 0.546452(11)
O9 O 0.4235(4) 0.9592(2) 0.41079(18)
H45 H 0.5007 0.9384 0.4156
H46 H 0.4038 1.0014 0.4499
loop_
_geom_bond_atom_site_label_1
_geom_bond_atom_site_label_2
_geom_bond_site_symmetry_1
_geom_bond_site_symmetry_2
C1 H1 1_555 1_555
C2 C3 1_555 1_555
C3 H2 1_555 1_555
C4 C3 1_555 1_555
H3 C4 1_555 1_555
C5 C4 1_555 1_555
H4 C5 1_555 1_555
C6 C5 1_555 1_555
H5 C6 1_555 1_555
C7 C2 1_555 1_555
C8 C9 1_555 1_555
C9 H6 1_555 1_555
C10 C9 1_555 1_555
H7 C10 1_555 1_555
C11 C10 1_555 1_555
C12 C11 1_555 1_555
H8 C12 1_555 1_555
C13 C8 1_555 1_555
H9 C13 1_555 1_555
C14 C11 1_555 1_555
C15 C14 1_555 1_555
H10 C15 1_555 1_555
C16 C15 1_555 1_555
H11 C16 1_555 1_555
C17 C16 1_555 1_555
C18 C17 1_555 1_555
H12 C18 1_555 1_555
C19 C14 1_555 1_555
H13 C19 1_555 1_555
C20 H14 1_555 1_555
C21 C22 1_555 1_555
C22 H15 1_555 1_555
C23 C22 1_555 1_555
H16 C23 1_555 1_555
C24 C23 1_555 1_555
H17 C24 1_555 1_555
C25 C24 1_555 1_555
H18 C25 1_555 1_555
C26 C21 1_555 1_555
C27 H19 1_555 1_555
C28 C29 1_555 1_555
C29 H20 1_555 1_555
C30 C29 1_555 1_555
H21 C30 1_555 1_555
C31 C30 1_555 1_555
H22 C31 1_555 1_555
C32 C31 1_555 1_555
H23 C32 1_555 1_555
C33 C28 1_555 1_555
C34 C35 1_555 1_555
C35 H24 1_555 1_555
C36 C35 1_555 1_555
H25 C36 1_555 1_555
C37 C36 1_555 1_555
C38 C37 1_555 1_555
H26 C38 1_555 1_555
C39 C34 1_555 1_555
H27 C39 1_555 1_555
C40 C37 1_555 1_555
C41 C40 1_555 1_555
H28 C41 1_555 1_555
C42 C41 1_555 1_555
H29 C42 1_555 1_555
C43 C42 1_555 1_555
C44 C43 1_555 1_555
H30 C44 1_555 1_555
C45 C40 1_555 1_555
H31 C45 1_555 1_555
C46 H32 1_555 1_555
C47 C48 1_555 1_555
C48 H33 1_555 1_555
C49 C48 1_555 1_555
H34 C49 1_555 1_555
C50 C49 1_555 1_555
H35 C50 1_555 1_555
C51 C50 1_555 1_555
H36 C51 1_555 1_555
C52 C47 1_555 1_555
C53 C55 1_555 1_555
C54 C58 1_555 1_555
C55 C56 1_555 1_555
C56 H37 1_555 1_555
C57 C56 1_555 1_555
H38 C57 1_555 1_555
C58 C57 1_555 1_555
C59 C58 1_555 1_555
H39 C59 1_555 1_555
C60 C55 1_555 1_555
H40 C60 1_555 1_555
C61 C62 1_555 1_555
C62 C63 1_555 1_555
C63 H41 1_555 1_555
C64 C63 1_555 1_555
H42 C64 1_555 1_555
C65 C66 1_555 1_555
C66 C67 1_555 1_555
C67 H43 1_555 1_555
C68 C67 1_555 1_555
H44 C68 1_555 1_555
N1 C1 1_555 1_555
N2 C1 1_555 1_555
N3 C17 1_555 1_555
N4 C20 1_555 1_555
N5 C27 1_555 1_555
N6 C27 1_555 1_555
N7 C43 1_555 1_555
N8 C46 1_555 1_555
O1 C53 1_555 1_555
O2 C53 1_555 1_555
O3 C54 1_555 1_555
O4 C54 1_555 1_555
O5 C61 1_555 1_555
O6 C61 1_555 1_555
O7 C65 1_555 1_555
O8 C65 1_555 1_555
Cd1 N1 1_555 1_555
Cd2 N4 1_555 1_555
O9 H45 1_555 1_555
H46 O9 1_555 1_555
C61A C62A 1_555 1_555
C62A C64 1_555 1_555
C63A C62A 1_555 1_555
H41A C63A 1_555 1_555
C64A C62 1_555 1_555
H42A C64A 1_555 1_555
O5A C61A 1_555 1_555
O6A C61A 1_555 1_555
C65A C66A 1_555 1_555
C66A C68 1_555 1_555
C67A C66A 1_555 1_555
H43A C67A 1_555 1_555
C68A C66 1_555 1_555
H44A C68A 1_555 1_555
O7A C65A 1_555 1_555
O8A C65A 1_555 1_555
C1A H1A 1_555 1_555
C2A C3A 1_555 1_555
C3A H2A 1_555 1_555
C4A C3A 1_555 1_555
H3A C4A 1_555 1_555
C5A C4A 1_555 1_555
H4A C5A 1_555 1_555
C6A C5A 1_555 1_555
H5A C6A 1_555 1_555
C7A C2A 1_555 1_555
C8A C9A 1_555 1_555
C9A H6A 1_555 1_555
C10A C9A 1_555 1_555
H7A C10A 1_555 1_555
C11A C10A 1_555 1_555
C12A C11A 1_555 1_555
H8A C12A 1_555 1_555
C13A C8A 1_555 1_555
H9A C13A 1_555 1_555
C14A C11A 1_555 1_555
C15A C14A 1_555 1_555
H10A C15A 1_555 1_555
C16A C15A 1_555 1_555
H11A C16A 1_555 1_555
C17A C16A 1_555 1_555
C18A C17A 1_555 1_555
H12A C18A 1_555 1_555
C19A C14A 1_555 1_555
H13A C19A 1_555 1_555
C20A H14A 1_555 1_555
C21A C22A 1_555 1_555
C22A H15A 1_555 1_555
C23A C22A 1_555 1_555
H16A C23A 1_555 1_555
C24A C23A 1_555 1_555
H17A C24A 1_555 1_555
C25A C24A 1_555 1_555
H18A C25A 1_555 1_555
C26A C21A 1_555 1_555
C27A H19A 1_555 1_555
C28A C29A 1_555 1_555
C29A H20A 1_555 1_555
C30A C29A 1_555 1_555
H21A C30A 1_555 1_555
C31A C30A 1_555 1_555
H22A C31A 1_555 1_555
C32A C31A 1_555 1_555
H23A C32A 1_555 1_555
C33A C28A 1_555 1_555
C34A C35A 1_555 1_555
C35A H24A 1_555 1_555
C36A C35A 1_555 1_555
H25A C36A 1_555 1_555
C37A C36A 1_555 1_555
C38A C37A 1_555 1_555
H26A C38A 1_555 1_555
C39A C34A 1_555 1_555
H27A C39A 1_555 1_555
C40A C37A 1_555 1_555
C41A C40A 1_555 1_555
H28A C41A 1_555 1_555
C42A C41A 1_555 1_555
H29A C42A 1_555 1_555
C43A C42A 1_555 1_555
C44A C43A 1_555 1_555
H30A C44A 1_555 1_555
C45A C40A 1_555 1_555
H31A C45A 1_555 1_555
C46A H32A 1_555 1_555
C47A C48A 1_555 1_555
C48A H33A 1_555 1_555
C49A C48A 1_555 1_555
H34A C49A 1_555 1_555
C50A C49A 1_555 1_555
H35A C50A 1_555 1_555
C51A C50A 1_555 1_555
H36A C51A 1_555 1_555
C52A C47A 1_555 1_555
C53A C55A 1_555 1_555
C54A C58A 1_555 1_555
C55A C56A 1_555 1_555
C56A H37A 1_555 1_555
C57A C56A 1_555 1_555
H38A C57A 1_555 1_555
C58A C57A 1_555 1_555
C59A C58A 1_555 1_555
H39A C59A 1_555 1_555
C60A C55A 1_555 1_555
H40A C60A 1_555 1_555
N1A C1A 1_555 1_555
N2A C1A 1_555 1_555
N3A C17A 1_555 1_555
N4A C20A 1_555 1_555
N5A C27A 1_555 1_555
N6A C27A 1_555 1_555
N7A C43A 1_555 1_555
N8A Cd2 1_555 1_555
O1A C53A 1_555 1_555
O2A C53A 1_555 1_555
O3A C54A 1_555 1_555
O4A C54A 1_555 1_555
Cd1A N1A 1_555 1_555
Cd2A N8 1_555 1_555
O3_2 Cd2 1_555 1_555
O3A_2 Cd2A 1_555 1_555
O4_2 Cd2 1_555 1_555
O4A_2 Cd2A 1_555 1_555
O5_2 Cd1A 1_555 1_555
O5A_2 Cd1A 1_555 1_555
O5A_3 Cd1 1_555 1_555
O6A_2 Cd1A 1_555 1_555
O7A_2 Cd2A 1_555 1_555
O8A_2 Cd2A 1_555 1_555
Cd1_2 O5A 1_555 1_555
Cd1A_2 O5 1_555 1_555
Cd1A_3 O5A 1_555 1_555
Cd2_2 O3 1_555 1_555
Cd2A_2 O3A 1_555 1_555
Cd2A_3 O7A 1_555 1_555
C2 N1 1_555 1_555
C6 C7 1_555 1_555
C7 N2 1_555 1_555
C8 N2 1_555 1_555
C12 C13 1_555 1_555
C18 C19 1_555 1_555
C20 N3 1_555 1_555
C21 N3 1_555 1_555
C25 C26 1_555 1_555
C26 N4 1_555 1_555
C28 N5 1_555 1_555
C32 C33 1_555 1_555
C33 N6 1_555 1_555
C34 N6 1_555 1_555
C38 C39 1_555 1_555
C44 C45 1_555 1_555
C46 N7 1_555 1_555
C47 N7 1_555 1_555
C51 C52 1_555 1_555
C52 N8 1_555 1_555
C59 C60 1_555 1_555
N5 Cd1 1_555 1_555
O1 Cd1 1_555 1_555
O2 Cd1 1_555 1_555
O4 Cd2_2 1_555 1_555
O5 Cd1 1_555 1_555
O6 Cd1 1_555 1_555
O7 Cd2 1_555 1_555
O8 Cd2 1_555 1_555
C63A C64A 1_555 1_555
O6A Cd1A_3 1_555 1_555
C67A C68A 1_555 1_555
O8A Cd2A_3 1_555 1_555
C2A N1A 1_555 1_555
C6A C7A 1_555 1_555
C7A N2A 1_555 1_555
C8A N2A 1_555 1_555
C12A C13A 1_555 1_555
C18A C19A 1_555 1_555
C20A N3A 1_555 1_555
C21A N3A 1_555 1_555
C25A C26A 1_555 1_555
C26A N4A 1_555 1_555
C28A N5A 1_555 1_555
C32A C33A 1_555 1_555
C33A N6A 1_555 1_555
C34A N6A 1_555 1_555
C38A C39A 1_555 1_555
C44A C45A 1_555 1_555
C46A N7A 1_555 1_555
C46A N8A 1_555 1_555
C47A N7A 1_555 1_555
C51A C52A 1_555 1_555
C52A N8A 1_555 1_555
C59A C60A 1_555 1_555
N4A Cd2A 1_555 1_555
N5A Cd1A 1_555 1_555
O1A Cd1A 1_555 1_555
O2A Cd1A 1_555 1_555
O4A Cd2A_2 1_555 1_555
O5A_3 Cd1A_2 1_555 1_555

#END
