
#######################################################################
#
#                 Cambridge Crystallographic Data Centre
#                                CCDC 
#
#######################################################################
#
# If this CIF has been generated from an entry in the Cambridge 
# Structural Database, then it will include bibliographic, chemical, 
# crystal, experimental, refinement or atomic coordinate data resulting 
# from the CCDC's data processing and validation procedures.
#
#######################################################################

data_PIMBAO
_symmetry_cell_setting           monoclinic
_symmetry_space_group_name_H-M   'P 21/n'
_symmetry_Int_Tables_number      14
_space_group_name_Hall           '-P 2yn'
loop_
_symmetry_equiv_pos_site_id
_symmetry_equiv_pos_as_xyz
1 x,y,z
2 1/2-x,1/2+y,1/2-z
3 -x,-y,-z
4 1/2+x,1/2-y,1/2+z
_cell_length_a                   12.733(3)
_cell_length_b                   23.717(8)
_cell_length_c                   14.981(4)
_cell_angle_alpha                90
_cell_angle_beta                 110.37(3)
_cell_angle_gamma                90
_cell_volume                     4241.17
loop_
_atom_site_label
_atom_site_type_symbol
_atom_site_fract_x
_atom_site_fract_y
_atom_site_fract_z
Tl1 Tl -0.32509(2) 0.349460(11) -0.21306(2)
P1 P -0.5334(2) 0.33832(7) -0.46440(12)
P2 P -0.5273(2) 0.23870(7) -0.60975(12)
O1 O -0.4444(4) 0.3674(2) -0.3851(3)
O2 O -0.6490(4) 0.2250(2) -0.6411(3)
O3 O -0.4455(5) 0.4216(2) -0.2096(4)
O4 O -0.2616(5) 0.3681(2) -0.0496(4)
C1 C -0.4755(6) 0.2747(3) -0.4958(5)
H1 H -0.4759(6) 0.2462(3) -0.4476(5)
H2 H -0.3957(6) 0.2831(3) -0.4845(5)
C2 C -0.5483(8) 0.4908(3) -0.1642(6)
H3 H -0.5307(21) 0.5244(11) -0.1956(36)
H4 H -0.5606(31) 0.5024(18) -0.1052(8)
H5 H -0.6169(13) 0.4725(8) -0.2078(32)
C3 C -0.4515(7) 0.4497(3) -0.1400(6)
C4 C -0.3804(7) 0.4454(3) -0.0459(6)
H6 H -0.3929(7) 0.4714(3) -0.0033(6)
C5 C -0.2919(8) 0.4070(3) -0.0063(5)
C6 C -0.2245(8) 0.4109(4) 0.1000(5)
H7 H -0.2559(30) 0.4411(17) 0.1288(9)
H8 H -0.1454(13) 0.4196(24) 0.1092(5)
H9 H -0.2285(40) 0.3744(9) 0.1308(9)
C7 C -0.5817(5) 0.3835(3) -0.5674(5)
C8 C -0.6715(6) 0.3691(3) -0.6465(5)
H10 H -0.7109(6) 0.3355(3) -0.6472(5)
C9 C -0.7041(7) 0.4044(3) -0.7258(5)
H11 H -0.7643(7) 0.3943(3) -0.7807(5)
C10 C -0.6478(6) 0.4540(3) -0.7233(5)
H12 H -0.6700(6) 0.4781(3) -0.7765(5)
C11 C -0.5593(7) 0.4689(3) -0.6437(5)
H13 H -0.5211(7) 0.5029(3) -0.6426(5)
C12 C -0.5257(6) 0.4335(3) -0.5642(5)
H14 H -0.4656(6) 0.4437(3) -0.5092(5)
C13 C -0.6489(7) 0.3180(2) -0.4304(5)
C14 C -0.6725(6) 0.3526(3) -0.3646(5)
H15 H -0.6297(6) 0.3853(3) -0.3423(5)
C15 C -0.7586(6) 0.3391(3) -0.3317(5)
H16 H -0.7735(6) 0.3627(3) -0.2871(5)
C16 C -0.8222(7) 0.2916(3) -0.3635(5)
H17 H -0.8818(7) 0.2832(3) -0.3424(5)
C17 C -0.7981(6) 0.2565(3) -0.4265(6)
H18 H -0.8395(6) 0.2232(3) -0.4465(6)
C18 C -0.7131(6) 0.2697(3) -0.4612(5)
H19 H -0.6989(6) 0.2458(3) -0.5057(5)
C19 C -0.4390(6) 0.1766(3) -0.5828(5)
C20 C -0.4657(6) 0.1350(3) -0.5283(5)
H20 H -0.5299(6) 0.1385(3) -0.5114(5)
C21 C -0.3972(7) 0.0888(3) -0.4997(5)
H21 H -0.4150(7) 0.0607(3) -0.4631(5)
C22 C -0.3034(6) 0.0830(3) -0.5236(6)
H22 H -0.2564(6) 0.0516(3) -0.5024(6)
C23 C -0.2782(7) 0.1234(3) -0.5785(6)
H23 H -0.2151(7) 0.1187(3) -0.5966(6)
C24 C -0.3439(6) 0.1705(3) -0.6075(5)
H24 H -0.3248(6) 0.1984(3) -0.6438(5)
C25 C -0.4932(5) 0.2809(3) -0.6957(5)
C26 C -0.5707(6) 0.2807(3) -0.7878(5)
H25 H -0.6360(6) 0.2586(3) -0.8030(5)
C27 C -0.5507(7) 0.3133(3) -0.8571(5)
H26 H -0.6031(7) 0.3133(3) -0.9194(5)
C28 C -0.4566(5) 0.3452(3) -0.8362(5)
H27 H -0.4437(5) 0.3667(3) -0.8841(5)
C29 C -0.3808(6) 0.3459(3) -0.7457(5)
H28 H -0.3161(6) 0.3683(3) -0.7316(5)
C30 C -0.3976(6) 0.3142(3) -0.6741(5)
H29 H -0.3451(6) 0.3151(3) -0.6118(5)
C31 C -0.1998(7) 0.3930(2) -0.2499(4)
C32 C -0.1628(6) 0.3732(3) -0.3200(5)
C33 C -0.0737(6) 0.3955(3) -0.3390(5)
C34 C -0.0182(7) 0.4403(3) -0.2864(5)
C35 C -0.0526(6) 0.4628(3) -0.2179(6)
C36 C -0.1412(6) 0.4387(3) -0.2001(5)
F1 F -0.2168(4) 0.3284(2) -0.3748(3)
F2 F -0.0414(5) 0.3734(2) -0.4078(4)
F3 F 0.0707(5) 0.4622(2) -0.3031(5)
F4 F 0.0005(4) 0.5072(2) -0.1660(4)
F5 F -0.1695(4) 0.4617(2) -0.1278(3)
C37 C -0.4232(6) 0.2785(3) -0.2008(4)
C38 C -0.4948(6) 0.2797(3) -0.1495(5)
C39 C -0.5542(6) 0.2331(3) -0.1389(5)
C40 C -0.5401(6) 0.1832(3) -0.1791(5)
C41 C -0.4723(6) 0.1800(3) -0.2324(5)
C42 C -0.4153(6) 0.2276(2) -0.2427(5)
F6 F -0.5097(4) 0.3275(2) -0.1072(3)
F7 F -0.6226(4) 0.2361(2) -0.0884(4)
F8 F -0.5973(5) 0.1372(2) -0.1686(4)
F9 F -0.4627(4) 0.1314(2) -0.2750(4)
F10 F -0.3477(3) 0.2224(2) -0.2938(3)
O2C O -0.1490(4) 0.2750(2) -0.1411(3)
Tl1C Tl -0.82509(2) 0.150540(11) -0.71306(2)
Cl1 Cl -0.7268(4) 0.0317(2) -0.0661(3)
Cl2 Cl -0.6309(5) -0.0559(2) 0.0670(3)
C43 C -0.6291(16) -0.0198(7) -0.0278(12)
C44? C 0.2571(14) -0.0148(7) 1.0126(13)
loop_
_geom_bond_atom_site_label_1
_geom_bond_atom_site_label_2
_geom_bond_site_symmetry_1
_geom_bond_site_symmetry_2
Tl1 O1 1_555 1_555
P1 O1 1_555 1_555
P2 O2 1_555 1_555
O2 Tl1C 1_555 1_555
O3 Tl1 1_555 1_555
O4 Tl1 1_555 1_555
C1 P1 1_555 1_555
H1 C1 1_555 1_555
H2 C1 1_555 1_555
C2 H3 1_555 1_555
H4 C2 1_555 1_555
H5 C2 1_555 1_555
C3 O3 1_555 1_555
C4 C3 1_555 1_555
H6 C4 1_555 1_555
C5 O4 1_555 1_555
C6 C5 1_555 1_555
H7 C6 1_555 1_555
H8 C6 1_555 1_555
H9 C6 1_555 1_555
C7 P1 1_555 1_555
C8 C7 1_555 1_555
H10 C8 1_555 1_555
C9 C8 1_555 1_555
H11 C9 1_555 1_555
C10 C9 1_555 1_555
H12 C10 1_555 1_555
C11 C10 1_555 1_555
H13 C11 1_555 1_555
C12 C7 1_555 1_555
H14 C12 1_555 1_555
C13 P1 1_555 1_555
C14 C13 1_555 1_555
H15 C14 1_555 1_555
C15 C14 1_555 1_555
H16 C15 1_555 1_555
C16 C15 1_555 1_555
H17 C16 1_555 1_555
C17 C16 1_555 1_555
H18 C17 1_555 1_555
C18 C13 1_555 1_555
H19 C18 1_555 1_555
C19 P2 1_555 1_555
C20 C19 1_555 1_555
H20 C20 1_555 1_555
C21 C20 1_555 1_555
H21 C21 1_555 1_555
C22 C21 1_555 1_555
H22 C22 1_555 1_555
C23 C22 1_555 1_555
H23 C23 1_555 1_555
C24 C19 1_555 1_555
H24 C24 1_555 1_555
C25 P2 1_555 1_555
C26 C25 1_555 1_555
H25 C26 1_555 1_555
C27 C26 1_555 1_555
H26 C27 1_555 1_555
C28 C27 1_555 1_555
H27 C28 1_555 1_555
C29 C28 1_555 1_555
H28 C29 1_555 1_555
C30 C25 1_555 1_555
H29 C30 1_555 1_555
C31 Tl1 1_555 1_555
C32 C31 1_555 1_555
C33 C32 1_555 1_555
C34 C33 1_555 1_555
C35 C34 1_555 1_555
C36 C31 1_555 1_555
F1 C32 1_555 1_555
F2 C33 1_555 1_555
F3 C34 1_555 1_555
F4 C35 1_555 1_555
F5 C36 1_555 1_555
C37 Tl1 1_555 1_555
C38 C37 1_555 1_555
C39 C38 1_555 1_555
C40 C39 1_555 1_555
C41 C40 1_555 1_555
C42 C37 1_555 1_555
F6 C38 1_555 1_555
F7 C39 1_555 1_555
F8 C40 1_555 1_555
F9 C41 1_555 1_555
F10 C42 1_555 1_555
Cl1 C43 1_555 1_555
Cl2 C43 1_555 1_555
O2C Tl1 1_555 1_555
P2 C1 1_555 1_555
C2 C3 1_555 1_555
C4 C5 1_555 1_555
C11 C12 1_555 1_555
C17 C18 1_555 1_555
C23 C24 1_555 1_555
C29 C30 1_555 1_555
C35 C36 1_555 1_555
C41 C42 1_555 1_555

#END
