
#######################################################################
#
#                 Cambridge Crystallographic Data Centre
#                                CCDC 
#
#######################################################################
#
# If this CIF has been generated from an entry in the Cambridge 
# Structural Database, then it will include bibliographic, chemical, 
# crystal, experimental, refinement or atomic coordinate data resulting 
# from the CCDC's data processing and validation procedures.
#
#######################################################################

data_PIMJIG
_symmetry_cell_setting           orthorhombic
_symmetry_space_group_name_H-M   'I b a m'
_symmetry_Int_Tables_number      72
_space_group_name_Hall           '-I 2 2c'
loop_
_symmetry_equiv_pos_site_id
_symmetry_equiv_pos_as_xyz
1 x,y,z
2 -x,-y,z
3 x,-y,1/2-z
4 -x,y,1/2-z
5 1/2+x,1/2+y,1/2+z
6 1/2-x,1/2-y,1/2+z
7 1/2+x,1/2-y,-z
8 1/2-x,1/2+y,-z
9 -x,-y,-z
10 x,y,-z
11 -x,y,1/2+z
12 x,-y,1/2+z
13 1/2-x,1/2-y,1/2-z
14 1/2+x,1/2+y,1/2-z
15 1/2-x,1/2+y,z
16 1/2+x,1/2-y,z
_cell_length_a                   11.744(2)
_cell_length_b                   19.878(4)
_cell_length_c                   36.094(7)
_cell_angle_alpha                90
_cell_angle_beta                 90
_cell_angle_gamma                90
_cell_volume                     8426.04
loop_
_atom_site_label
_atom_site_type_symbol
_atom_site_fract_x
_atom_site_fract_y
_atom_site_fract_z
Cu1 Cu 1.07068(8) 0.55226(5) 0.0000
O1 O 0.9706(4) 0.5865(2) 0.03838(10)
O2 O 0.8482(4) 0.4999(2) 0.03816(9)
O3 O 0.7930(5) 0.6639(2) 0.21357(12)
O4 O 0.4685(6) 0.6773(4) 0.14821(17)
O5 O 1.1840(5) 0.6360(3) 0.0000
N1 N 0.6433(5) 0.6621(3) 0.17298(13)
C1 C 0.8849(7) 0.5558(4) 0.04992(15)
C2 C 0.8169(7) 0.5869(4) 0.08201(16)
C3 C 0.7154(7) 0.5578(4) 0.09172(19)
H1 H 0.6843 0.5220 0.0786
C4 C 0.6596(7) 0.5868(5) 0.1239(2)
H2 H 0.5910 0.5686 0.1320
C5 C 0.7036(8) 0.6381(4) 0.14192(16)
C6 C 0.8037(8) 0.6664(4) 0.12972(17)
H3 H 0.8331 0.7034 0.1422
C7 C 0.8607(7) 0.6420(4) 0.10019(16)
H4 H 0.9280 0.6619 0.0923
C8 C 0.5273(9) 0.6807(4) 0.17361(18)
C9 C 0.4992(8) 0.7099(3) 0.21020(17)
H5 H 0.4736 0.7564 0.2069
C10 C 0.6049(7) 0.7098(3) 0.23083(16)
H6 H 0.6269 0.7563 0.2362
C11 C 0.4077(6) 0.6705(3) 0.23188(15)
H7 H 0.3354 0.6691 0.2183
C12 C 0.4491(6) 0.6021(3) 0.24021(17)
H8 H 0.4111 0.5632 0.2331
C13 C 0.6946(9) 0.6778(3) 0.20608(18)
O1C O 0.0294(4) 0.5865(2) 0.46162(10)
O2C O 0.1518(4) 0.4999(2) 0.46184(9)
O3C O 0.2070(5) 0.6639(2) 0.28643(12)
O4C O 0.5315(6) 0.6773(4) 0.35179(17)
N1C N 0.3567(5) 0.6621(3) 0.32702(13)
C1C C 0.1151(7) 0.5558(4) 0.45008(15)
C2C C 0.1831(7) 0.5869(4) 0.41799(16)
C3C C 0.2846(7) 0.5578(4) 0.40828(19)
H1C H 0.3157 0.5220 0.4214
C4C C 0.3404(7) 0.5868(5) 0.3761(2)
H2C H 0.4090 0.5686 0.3680
C5C C 0.2964(8) 0.6381(4) 0.35808(16)
C6C C 0.1963(8) 0.6664(4) 0.37028(17)
H3C H 0.1669 0.7034 0.3578
C7C C 0.1393(7) 0.6420(4) 0.39981(16)
H4C H 0.0720 0.6619 0.4077
C8C C 0.4727(9) 0.6807(4) 0.32639(18)
C9C C 0.5008(8) 0.7099(3) 0.28980(17)
H5C H 0.5264 0.7564 0.2931
C10C C 0.3951(7) 0.7098(3) 0.26917(16)
H6C H 0.3731 0.7563 0.2638
C11C C 0.5923(6) 0.6705(3) 0.26812(15)
H7C H 0.6646 0.6691 0.2817
C12C C 0.5509(6) 0.6021(3) 0.25979(17)
H8C H 0.5889 0.5632 0.2669
C13C C 0.3054(9) 0.6778(3) 0.29392(18)
Cu1A Cu 0.92932(8) 0.44774(5) 0.0000
Cu1B Cu 0.07068(8) 0.44774(5) 0.5000
Cu1C Cu -0.07068(8) 0.55226(5) 0.5000
O1I O 0.9706(4) 0.5865(2) -0.03838(10)
O2A O 1.1518(4) 0.5001(2) 0.03816(9)
O2H O 1.1518(4) 0.5001(2) -0.03816(9)
loop_
_geom_bond_atom_site_label_1
_geom_bond_atom_site_label_2
_geom_bond_site_symmetry_1
_geom_bond_site_symmetry_2
Cu1 O1 1_555 1_555
O1 C1 1_555 1_555
O2 C1 1_555 1_555
O3 C13 1_555 1_555
O4 C8 1_555 1_555
O5 Cu1 1_555 1_555
N1 C5 1_555 1_555
C1 C2 1_555 1_555
C2 C3 1_555 1_555
C3 H1 1_555 1_555
C4 C3 1_555 1_555
H2 C4 1_555 1_555
C5 C4 1_555 1_555
C6 C5 1_555 1_555
H3 C6 1_555 1_555
C7 C2 1_555 1_555
H4 C7 1_555 1_555
C8 N1 1_555 1_555
C9 C8 1_555 1_555
H5 C9 1_555 1_555
C10 C9 1_555 1_555
H6 C10 1_555 1_555
C11 C9 1_555 1_555
H7 C11 1_555 1_555
C12 C11 1_555 1_555
H8 C12 1_555 1_555
C13 N1 1_555 1_555
O1C C1C 1_555 1_555
O2C C1C 1_555 1_555
O3C C13C 1_555 1_555
O4C C8C 1_555 1_555
N1C C5C 1_555 1_555
C1C C2C 1_555 1_555
C2C C3C 1_555 1_555
C3C H1C 1_555 1_555
C4C C3C 1_555 1_555
H2C C4C 1_555 1_555
C5C C4C 1_555 1_555
C6C C5C 1_555 1_555
H3C C6C 1_555 1_555
C7C C2C 1_555 1_555
H4C C7C 1_555 1_555
C8C N1C 1_555 1_555
C9C C8C 1_555 1_555
H5C C9C 1_555 1_555
C10C C11 1_555 1_555
H6C C10C 1_555 1_555
C11C C10 1_555 1_555
H7C C11C 1_555 1_555
C12C C12 1_555 1_555
H8C C12C 1_555 1_555
C13C N1C 1_555 1_555
Cu1A Cu1 1_555 1_555
Cu1B O2C 1_555 1_555
Cu1C O1C 1_555 1_555
O1I Cu1 1_555 1_555
O2A Cu1 1_555 1_555
O2H Cu1 1_555 1_555
O2 Cu1A 1_555 1_555
C6 C7 1_555 1_555
C10 C13 1_555 1_555
C6C C7C 1_555 1_555
C9C C10C 1_555 1_555
C9C C11C 1_555 1_555
C10C C13C 1_555 1_555
C11C C12C 1_555 1_555
Cu1B Cu1C 1_555 1_555

#END
