
#######################################################################
#
#                 Cambridge Crystallographic Data Centre
#                                CCDC 
#
#######################################################################
#
# If this CIF has been generated from an entry in the Cambridge 
# Structural Database, then it will include bibliographic, chemical, 
# crystal, experimental, refinement or atomic coordinate data resulting 
# from the CCDC's data processing and validation procedures.
#
#######################################################################

data_PIMJEC
_symmetry_cell_setting           triclinic
_symmetry_space_group_name_H-M   'P -1'
_symmetry_Int_Tables_number      2
_space_group_name_Hall           '-P 1'
loop_
_symmetry_equiv_pos_site_id
_symmetry_equiv_pos_as_xyz
1 x,y,z
2 -x,-y,-z
_cell_length_a                   11.4985(3)
_cell_length_b                   21.2760(6)
_cell_length_c                   21.4387(6)
_cell_angle_alpha                77.071(2)
_cell_angle_beta                 80.672(2)
_cell_angle_gamma                88.411(2)
_cell_volume                     5044.05
loop_
_atom_site_label
_atom_site_type_symbol
_atom_site_fract_x
_atom_site_fract_y
_atom_site_fract_z
Co1 Co 0.91113(3) 0.20514(2) 0.201017(18)
Co2 Co 0.67040(3) 0.112056(18) 0.255535(18)
C1 C 0.6621(3) 0.25028(15) 0.25152(15)
C2 C 0.5991(3) 0.30561(15) 0.27348(15)
C3 C 0.6511(4) 0.36643(17) 0.25832(19)
H1 H 0.7238 0.3737 0.2315
C4 C 0.5946(4) 0.41680(18) 0.2833(2)
H2 H 0.6286 0.4578 0.2725
C5 C 0.4877(3) 0.40483(17) 0.32414(18)
C6 C 0.4356(3) 0.34609(17) 0.33777(19)
H3 H 0.3626 0.3391 0.3643
C7 C 0.4894(3) 0.29661(17) 0.31269(17)
H4 H 0.4520 0.2566 0.3221
C8 C 0.3342(4) 0.48878(18) 0.3376(2)
C9 C 0.3079(4) 0.53659(17) 0.38024(19)
H5 H 0.2296 0.5279 0.4065
C10 C 0.3151(3) 0.60686(16) 0.34058(17)
H6 H 0.2587 0.6148 0.3101
C11 C 0.2923(3) 0.65063(16) 0.38940(17)
H7 H 0.2133 0.6426 0.4149
C12 C 0.3075(3) 0.72082(16) 0.35544(17)
C13 C 0.4473(4) 0.70236(16) 0.42565(18)
C14 C 0.3862(3) 0.63863(16) 0.43408(16)
H8 H 0.3484 0.6238 0.4792
C15 C 0.4741(3) 0.58745(15) 0.41460(16)
H9 H 0.5376 0.5808 0.4408
C16 C 0.4025(4) 0.52599(16) 0.42442(17)
H10 H 0.3656 0.5123 0.4699
C17 C 0.4789(4) 0.47278(17) 0.40427(18)
C18 C 0.5219(3) 0.61022(17) 0.34332(16)
H11 H 0.6018 0.6171 0.3274
C19 C 0.4405(3) 0.61933(17) 0.30599(17)
H12 H 0.4587 0.6326 0.2611
C20 C 0.5909(3) 1.00004(15) 0.28602(14)
C21 C 0.5388(3) 0.93426(15) 0.30762(15)
C22 C 0.4189(3) 0.92540(14) 0.33316(14)
H13 H 0.3705 0.9610 0.3348
C23 C 0.3724(3) 0.86381(15) 0.35593(16)
H14 H 0.2929 0.8581 0.3734
C24 C 0.4421(3) 0.81126(15) 0.35306(17)
C25 C 0.5602(3) 0.81903(18) 0.3258(2)
H15 H 0.6072 0.7833 0.3221
C26 C 0.6068(3) 0.88051(17) 0.30444(19)
H16 H 0.6865 0.8858 0.2874
C27 C 0.7514(3) 0.12829(14) 0.13723(14)
C28 C 0.8066(3) 0.12214(15) 0.07091(14)
C29 C 0.9284(3) 0.11463(15) 0.05524(14)
H17 H 0.9775 0.1193 0.0844
C30 C 0.9763(3) 0.10033(16) -0.00326(14)
H18 H 1.0571 0.0949 -0.0137
C31 C 0.9012(3) 0.09419(16) -0.04594(14)
C32 C 0.7841(3) 0.10385(17) -0.03336(15)
H19 H 0.7363 0.1012 -0.0638
C33 C 0.7352(3) 0.11795(17) 0.02621(15)
H20 H 0.6545 0.1245 0.0356
C34 C 0.9064(3) 0.01804(17) -0.11916(15)
C35 C 0.9743(3) 0.01081(16) -0.18333(14)
H21 H 1.0166 -0.0302 -0.1774
C36 C 0.8940(3) 0.01318(15) -0.23416(14)
H22 H 0.8321 -0.0201 -0.2198
C37 C 0.9766(3) 0.00389(15) -0.29556(14)
H23 H 1.0163 -0.0378 -0.2865
C38 C 0.9123(3) 0.00799(16) -0.35225(14)
C39 C 1.0536(3) 0.09066(17) -0.38512(14)
C40 C 1.0687(3) 0.05866(16) -0.31701(14)
H24 H 1.1481 0.0408 -0.3167
C41 C 1.0471(3) 0.10583(16) -0.27191(14)
H25 H 1.1024 0.1424 -0.2864
C42 C 1.0629(3) 0.06631(16) -0.20395(14)
H26 H 1.1432 0.0495 -0.2050
C43 C 1.0366(3) 0.10475(17) -0.15293(15)
C44 C 0.9218(3) 0.12799(16) -0.26924(14)
H27 H 0.9011 0.1711 -0.2807
C45 C 0.8432(3) 0.08026(16) -0.24904(14)
H28 H 0.7624 0.0875 -0.2444
C46 C 0.8418(3) 0.12169(15) -0.65896(14)
C47 C 0.8764(3) 0.10356(15) -0.59273(14)
C48 C 0.9890(3) 0.11473(17) -0.58214(14)
H29 H 1.0457 0.1332 -0.6171
C49 C 1.0183(3) 0.09920(18) -0.52153(15)
H30 H 1.0947 0.1068 -0.5157
C50 C 0.9350(3) 0.07197(15) -0.46824(14)
C51 C 0.8240(3) 0.0600(2) -0.47809(16)
H31 H 0.7673 0.0418 -0.4430
C52 C 0.7957(3) 0.07492(19) -0.53946(16)
H32 H 0.7203 0.0655 -0.5454
C53 C 1.0054(4) 0.2645(2) 0.0642(2)
H33 H 1.0776 0.2618 0.0788
C54 C 0.9013(7) 0.2826(3) -0.0256(3)
H34 H 0.8702 0.2400 -0.0201
H35 H 0.9168 0.3028 -0.0710
H36 H 0.8451 0.3076 -0.0035
C55 C 1.1104(8) 0.2846(5) -0.0464(4)
H37 H 1.1559 0.2460 -0.0377
H38 H 1.1562 0.3208 -0.0442
H39 H 1.0897 0.2907 -0.0890
C56 C 1.1519(3) 0.15698(17) 0.20514(17)
H40 H 1.1319 0.1599 0.2482
C57 C 1.2990(4) 0.1441(3) 0.1176(3)
H41 H 1.2321 0.1493 0.0953
H42 H 1.3330 0.1025 0.1170
H43 H 1.3565 0.1771 0.0964
C58 C 1.3481(4) 0.1448(4) 0.2294(3)
H44 H 1.3070 0.1449 0.2720
H45 H 1.4014 0.1809 0.2150
H46 H 1.3918 0.1055 0.2304
C59 C 1.0144(6) 0.2866(3) 0.2710(4)
H47 H 0.9484 0.2715 0.3014
C60 C 1.0951(9) 0.3260(5) 0.3576(4)
H48 H 1.0811 0.3702 0.3597
H49 H 1.1703 0.3132 0.3699
H50 H 1.0343 0.2992 0.3865
C61 C 1.2061(6) 0.3367(4) 0.2444(4)
H51 H 1.2469 0.2982 0.2375
H52 H 1.2551 0.3619 0.2620
H53 H 1.1883 0.3615 0.2039
N1 N 0.4369(3) 0.45454(14) 0.35352(15)
N2 N 0.3975(3) 0.74710(13) 0.37734(14)
N3 N 0.9485(2) 0.07308(13) -0.10505(12)
N4 N 0.9663(2) 0.05605(12) -0.40490(11)
N5 N 1.0944(6) 0.3189(4) 0.2907(3)
N6 N 1.2618(2) 0.14930(17) 0.18390(16)
N7 N 1.0064(5) 0.2789(2) 0.0002(2)
O1 O 0.69783(18) 1.00648(10) 0.26040(11)
O2 O 0.52912(17) 1.04835(9) 0.29324(10)
O3 O 0.76697(19) 0.25885(11) 0.22568(11)
O4 O 0.60407(18) 0.19862(10) 0.26114(11)
O5 O 0.5611(3) 0.44935(13) 0.42690(13)
O6 O 0.2841(3) 0.48086(14) 0.29543(16)
O7 O 0.5244(3) 0.71521(13) 0.45131(15)
O8 O 0.2539(2) 0.75001(12) 0.31447(14)
O9 O 0.81732(17) 0.13043(9) 0.17972(9)
O10 O 0.64208(17) 0.12519(11) 0.15302(10)
O11 O 1.0818(2) 0.15481(14) -0.15156(12)
O12 O 0.8281(2) -0.01620(13) -0.08565(11)
O13 O 1.1038(2) 0.13843(13) -0.41816(11)
O14 O 0.8283(2) -0.02376(11) -0.35309(10)
O15 O 0.91390(18) 0.15445(11) -0.70363(10)
O16 O 0.74399(19) 0.10109(12) -0.66410(10)
O17 O 0.9166(2) 0.25440(11) 0.10491(10)
O18 O 1.07043(18) 0.16077(11) 0.17260(11)
O19 O 1.0182(2) 0.27486(13) 0.21827(13)
Co1_2 Co 0.91113(3) 0.20514(2) -0.798983(18)
Co2_2 Co 0.67040(3) 0.112056(18) -0.744465(18)
Co2_3 Co 0.67040(3) 1.112056(18) 0.255535(18)
O1_2 O 0.69783(18) 0.00648(10) 0.26040(11)
O2_2 O 0.52912(17) 0.04835(9) 0.29324(10)
O15_2 O 0.91390(18) 0.15445(11) 0.29637(10)
O16_2 O 0.74399(19) 0.10109(12) 0.33590(10)
loop_
_geom_bond_atom_site_label_1
_geom_bond_atom_site_label_2
_geom_bond_site_symmetry_1
_geom_bond_site_symmetry_2
Co1 O3 1_555 1_555
Co2 O4 1_555 1_555
C1 C2 1_555 1_555
C2 C3 1_555 1_555
C3 H1 1_555 1_555
C4 C3 1_555 1_555
H2 C4 1_555 1_555
C5 C4 1_555 1_555
C6 C5 1_555 1_555
H3 C6 1_555 1_555
C7 C2 1_555 1_555
H4 C7 1_555 1_555
C8 C9 1_555 1_555
C9 H5 1_555 1_555
C10 C9 1_555 1_555
H6 C10 1_555 1_555
C11 C10 1_555 1_555
H7 C11 1_555 1_555
C12 C11 1_555 1_555
C13 C14 1_555 1_555
C14 C11 1_555 1_555
H8 C14 1_555 1_555
C15 C14 1_555 1_555
H9 C15 1_555 1_555
C16 C9 1_555 1_555
H10 C16 1_555 1_555
C17 C16 1_555 1_555
C18 C15 1_555 1_555
H11 C18 1_555 1_555
C19 C10 1_555 1_555
H12 C19 1_555 1_555
C20 C21 1_555 1_555
C21 C22 1_555 1_555
C22 H13 1_555 1_555
C23 C22 1_555 1_555
H14 C23 1_555 1_555
C24 C23 1_555 1_555
C25 C24 1_555 1_555
H15 C25 1_555 1_555
C26 C21 1_555 1_555
H16 C26 1_555 1_555
C27 C28 1_555 1_555
C28 C29 1_555 1_555
C29 H17 1_555 1_555
C30 C29 1_555 1_555
H18 C30 1_555 1_555
C31 C30 1_555 1_555
C32 C31 1_555 1_555
H19 C32 1_555 1_555
C33 C28 1_555 1_555
H20 C33 1_555 1_555
C34 C35 1_555 1_555
C35 H21 1_555 1_555
C36 C35 1_555 1_555
H22 C36 1_555 1_555
C37 C36 1_555 1_555
H23 C37 1_555 1_555
C38 C37 1_555 1_555
C39 C40 1_555 1_555
C40 C37 1_555 1_555
H24 C40 1_555 1_555
C41 C40 1_555 1_555
H25 C41 1_555 1_555
C42 C35 1_555 1_555
H26 C42 1_555 1_555
C43 C42 1_555 1_555
C44 C41 1_555 1_555
H27 C44 1_555 1_555
C45 C36 1_555 1_555
H28 C45 1_555 1_555
C46 C47 1_555 1_555
C47 C48 1_555 1_555
C48 H29 1_555 1_555
C49 C48 1_555 1_555
H30 C49 1_555 1_555
C50 C49 1_555 1_555
C51 C50 1_555 1_555
H31 C51 1_555 1_555
C52 C47 1_555 1_555
H32 C52 1_555 1_555
C53 H33 1_555 1_555
C54 H34 1_555 1_555
H35 C54 1_555 1_555
H36 C54 1_555 1_555
C55 H37 1_555 1_555
H38 C55 1_555 1_555
H39 C55 1_555 1_555
C56 H40 1_555 1_555
C57 H41 1_555 1_555
H42 C57 1_555 1_555
H43 C57 1_555 1_555
C58 H44 1_555 1_555
H45 C58 1_555 1_555
H46 C58 1_555 1_555
C59 H47 1_555 1_555
C60 H48 1_555 1_555
H49 C60 1_555 1_555
H50 C60 1_555 1_555
C61 H51 1_555 1_555
H52 C61 1_555 1_555
H53 C61 1_555 1_555
N1 C5 1_555 1_555
N2 C12 1_555 1_555
N3 C31 1_555 1_555
N4 C38 1_555 1_555
N5 C59 1_555 1_555
N6 C56 1_555 1_555
N7 C53 1_555 1_555
O1 C20 1_555 1_555
O2 C20 1_555 1_555
O3 C1 1_555 1_555
O4 C1 1_555 1_555
O5 C17 1_555 1_555
O6 C8 1_555 1_555
O7 C13 1_555 1_555
O8 C12 1_555 1_555
O9 Co1 1_555 1_555
O10 Co2 1_555 1_555
O11 C43 1_555 1_555
O12 C34 1_555 1_555
O13 C39 1_555 1_555
O14 C38 1_555 1_555
O15 C46 1_555 1_555
O16 C46 1_555 1_555
O17 Co1 1_555 1_555
O18 Co1 1_555 1_555
O19 Co1 1_555 1_555
Co1_2 O15 1_555 1_555
Co2_2 O16 1_555 1_555
Co2_3 O1 1_555 1_555
O1_2 Co2 1_555 1_555
O2_2 Co2 1_555 1_555
O15_2 Co1 1_555 1_555
O16_2 Co2 1_555 1_555
Co2 O9 1_555 1_555
C6 C7 1_555 1_555
C8 N1 1_555 1_555
C13 N2 1_555 1_555
C15 C16 1_555 1_555
C17 N1 1_555 1_555
C18 C19 1_555 1_555
C24 N2 1_555 1_555
C25 C26 1_555 1_555
C27 O9 1_555 1_555
C27 O10 1_555 1_555
C32 C33 1_555 1_555
C34 N3 1_555 1_555
C39 N4 1_555 1_555
C41 C42 1_555 1_555
C43 N3 1_555 1_555
C44 C45 1_555 1_555
C50 N4 1_555 1_555
C51 C52 1_555 1_555
C53 O17 1_555 1_555
C54 N7 1_555 1_555
C55 N7 1_555 1_555
C56 O18 1_555 1_555
C57 N6 1_555 1_555
C58 N6 1_555 1_555
C59 O19 1_555 1_555
C60 N5 1_555 1_555
C61 N5 1_555 1_555
O2 Co2_3 1_555 1_555

#END
