
#######################################################################
#
#                 Cambridge Crystallographic Data Centre
#                                CCDC 
#
#######################################################################
#
# If this CIF has been generated from an entry in the Cambridge 
# Structural Database, then it will include bibliographic, chemical, 
# crystal, experimental, refinement or atomic coordinate data resulting 
# from the CCDC's data processing and validation procedures.
#
#######################################################################

data_PIMKUT
_symmetry_cell_setting           orthorhombic
_symmetry_space_group_name_H-M   'P n a 21'
_symmetry_Int_Tables_number      33
_space_group_name_Hall           'P 2c -2n'
loop_
_symmetry_equiv_pos_site_id
_symmetry_equiv_pos_as_xyz
1 x,y,z
2 -x,-y,1/2+z
3 1/2-x,1/2+y,1/2+z
4 1/2+x,1/2-y,z
_cell_length_a                   34.484(10)
_cell_length_b                   20.624(6)
_cell_length_c                   23.922(7)
_cell_angle_alpha                90
_cell_angle_beta                 90
_cell_angle_gamma                90
_cell_volume                     17013.3
loop_
_atom_site_label
_atom_site_type_symbol
_atom_site_fract_x
_atom_site_fract_y
_atom_site_fract_z
Co1 Co 0.35598(3) -0.35285(6) 0.56580(6)
N1 N 0.3722(2) -0.3802(3) 0.6505(3)
N2 N 0.4123(2) -0.3650(3) 0.7226(4)
N3 N 0.4076(2) -0.3636(3) 0.6666(4)
Co2 Co 0.31625(3) 0.45177(6) 0.57751(6)
Co3 Co 0.22170(3) 0.42279(6) 0.77949(6)
Co4 Co 0.39286(3) 0.39911(6) 0.79125(6)
Co5 Co 0.30829(3) 0.38817(5) 0.71035(6)
Co6 Co 0.30428(4) 0.17853(6) 0.53565(6)
Co7 Co 0.37826(3) 0.12697(6) 0.75269(6)
Co8 Co 0.20933(4) 0.14752(6) 0.73950(7)
Co9 Co 0.29905(3) 0.18627(5) 0.68084(6)
Co10 Co 0.37155(3) -0.09216(6) 0.49575(6)
Co11 Co 0.53811(3) -0.07855(6) 0.54574(6)
Co12 Co 0.42212(3) -0.06058(6) 0.72714(6)
Co13 Co 0.44473(3) -0.11454(6) 0.59434(6)
Co14 Co 0.52661(3) -0.36021(6) 0.53408(6)
Co15 Co 0.46156(4) -0.32482(6) 0.76069(6)
Co16 Co 0.44684(3) -0.31354(6) 0.61647(6)
Cl1 Cl 0.31948(7) 0.55142(10) 0.53048(11)
Cl2 Cl 0.18151(8) 0.49704(13) 0.82232(13)
Cl3 Cl 0.43867(7) 0.46322(11) 0.83338(12)
Cl4 Cl 0.16460(8) 0.06898(13) 0.76027(15)
Cl5 Cl 0.30567(11) 0.11189(15) 0.45905(16)
Cl6 Cl 0.41082(6) 0.03138(10) 0.78303(10)
Cl7 Cl 0.58537(7) -0.00622(12) 0.52237(13)
Cl8 Cl 0.56048(7) -0.44678(12) 0.49992(12)
O1 O 0.30885(17) 0.3555(3) 0.6291(3)
O2 O 0.4625(2) -0.3925(3) 0.8251(3)
O3 O 0.30621(16) 0.2484(3) 0.6125(3)
O4 O 0.5139(2) -0.2807(4) 0.7958(4)
O5 O 0.35075(17) 0.3290(3) 0.7427(3)
O6 O 0.33630(15) -0.0225(3) 0.4519(3)
O7 O 0.34527(16) 0.2194(2) 0.7281(3)
O8 O 0.25822(16) 0.3411(3) 0.7378(3)
O9 O 0.25437(18) 0.2321(3) 0.7215(3)
O10 O 0.49713(16) -0.1605(3) 0.5770(3)
O11 O 0.48704(17) -0.2681(3) 0.5682(2)
O12 O 0.43345(17) -0.1517(3) 0.6725(3)
O13 O 0.45487(18) -0.2535(3) 0.6883(3)
O14 O 0.40726(18) -0.1693(3) 0.5472(3)
O15 O 0.39524(16) -0.2681(3) 0.5853(3)
O16 O 0.30866(19) -0.3108(3) 0.6121(3)
N4 N 0.2680(2) 0.4728(3) 0.6247(3)
N5 N 0.26545(19) 0.4501(4) 0.6756(3)
N6 N 0.2330(2) 0.4649(4) 0.7021(4)
N7 N 0.27537(18) 0.4382(3) 0.8210(3)
N8 N 0.3071(2) 0.4204(4) 0.7920(3)
N9 N 0.33889(19) 0.4251(4) 0.8237(3)
N10 N 0.3916(2) 0.4384(4) 0.7123(3)
N11 N 0.3585(2) 0.4390(3) 0.6828(4)
N12 N 0.3631(2) 0.4548(4) 0.6289(4)
N13 N 0.3155(2) 0.3791(4) 0.5184(3)
N14 N 0.3103(2) 0.2701(4) 0.4993(4)
N15 N 0.41367(19) 0.3076(3) 0.8075(3)
N16 N 0.40776(19) 0.1980(3) 0.7942(3)
N17 N 0.18767(19) 0.3414(4) 0.7829(3)
N18 N 0.1852(2) 0.2298(4) 0.7723(3)
N19 N 0.37718(18) 0.1208(3) 0.6672(3)
N20 N 0.3439(2) 0.1358(3) 0.6395(3)
N21 N 0.3476(2) 0.1370(4) 0.5847(3)
N22 N 0.3231(2) 0.1035(4) 0.7802(4)
N23 N 0.2934(2) 0.1260(4) 0.7507(4)
N24 N 0.2602(2) 0.1093(4) 0.7740(4)
N25 N 0.2542(2) 0.1521(4) 0.5756(4)
N26 N 0.2527(2) 0.1500(3) 0.6320(4)
N27 N 0.2174(2) 0.1370(3) 0.6541(4)
N28 N 0.4893(2) -0.0532(3) 0.4997(3)
N29 N 0.4551(2) -0.0741(4) 0.5158(4)
N30 N 0.4262(2) -0.0559(3) 0.4784(3)
N31 N 0.3627(2) -0.0575(4) 0.5761(3)
N32 N 0.3928(2) -0.0612(4) 0.6123(4)
N33 N 0.3811(2) -0.0502(3) 0.6646(3)
N34 N 0.4756(2) -0.0333(3) 0.6910(4)
N35 N 0.4830(2) -0.0572(3) 0.6414(4)
N36 N 0.5190(2) -0.0408(4) 0.6246(4)
N37 N 0.56259(19) -0.1661(4) 0.5195(4)
N38 N 0.5579(2) -0.2764(4) 0.5153(3)
N39 N 0.4212(2) -0.1347(3) 0.7845(3)
N40 N 0.4321(2) -0.2438(3) 0.7982(4)
N41 N 0.3425(2) -0.1777(3) 0.4838(3)
N42 N 0.3394(2) -0.2864(3) 0.5012(4)
N43 N 0.4064(2) -0.3795(3) 0.5210(3)
N44 N 0.4409(2) -0.3678(4) 0.5445(4)
N45 N 0.4701(2) -0.3837(3) 0.5091(4)
N46 N 0.5257(2) -0.3756(4) 0.6182(3)
N47 N 0.4949(2) -0.3604(3) 0.6499(3)
N48 N 0.5004(2) -0.3698(4) 0.7044(4)
C1 C 0.2336(2) 0.5066(4) 0.6147(4)
C2 C 0.2193(3) 0.5403(6) 0.5670(6)
H1 H 0.2335 0.5431 0.5341
C3 C 0.1841(3) 0.5677(5) 0.5725(5)
H2 H 0.1745 0.5925 0.5431
C4 C 0.1612(3) 0.5602(5) 0.6210(6)
H3 H 0.1363 0.5774 0.6208
C5 C 0.1740(3) 0.5284(6) 0.6690(5)
H4 H 0.1591 0.5257 0.7013
C6 C 0.2112(2) 0.5009(4) 0.6645(4)
C7 C 0.2865(2) 0.4545(4) 0.8728(4)
C8 C 0.2656(3) 0.4791(5) 0.9197(4)
H5 H 0.2391 0.4866 0.9179
C9 C 0.2867(3) 0.4913(5) 0.9680(4)
H6 H 0.2745 0.5068 1.0000
C10 C 0.3297(3) 0.4788(6) 0.9674(5)
H7 H 0.3433 0.4852 1.0005
C11 C 0.3491(3) 0.4596(4) 0.9238(4)
H8 H 0.3759 0.4553 0.9250
C12 C 0.3286(3) 0.4456(5) 0.8755(5)
C13 C 0.4201(2) 0.4587(4) 0.6760(4)
C14 C 0.4617(3) 0.4622(5) 0.6809(5)
H9 H 0.4741 0.4563 0.7151
C15 C 0.4820(3) 0.4744(5) 0.6342(6)
H10 H 0.5089 0.4777 0.6370
C16 C 0.4655(3) 0.4823(4) 0.5835(5)
H11 H 0.4816 0.4913 0.5534
C17 C 0.4249(3) 0.4775(4) 0.5734(5)
H12 H 0.4140 0.4809 0.5379
C18 C 0.4023(3) 0.4671(4) 0.6232(4)
C19 C 0.3169(3) 0.3693(5) 0.4614(6)
C20 C 0.3218(4) 0.4137(6) 0.4157(6)
H13 H 0.3257 0.4575 0.4229
C21 C 0.3209(6) 0.3919(6) 0.3621(6)
H14 H 0.3228 0.4226 0.3337
C22 C 0.3170(6) 0.3223(9) 0.3452(10)
H15 H 0.3160 0.3080 0.3083
C23 C 0.3150(4) 0.2787(7) 0.3951(7)
H16 H 0.3152 0.2341 0.3896
C24 C 0.3129(3) 0.3022(6) 0.4491(5)
C25 C 0.3114(2) 0.3187(4) 0.5378(5)
C26 C 0.3082(2) 0.3053(4) 0.5967(4)
C27 C 0.4379(2) 0.2085(4) 0.8320(4)
C28 C 0.4631(2) 0.1644(4) 0.8614(4)
H17 H 0.4610 0.1199 0.8562
C29 C 0.4891(2) 0.1884(4) 0.8955(4)
H18 H 0.5043 0.1601 0.9164
C30 C 0.4948(3) 0.2551(5) 0.9016(5)
H19 H 0.5147 0.2703 0.9243
C31 C 0.4712(2) 0.2985(5) 0.8743(4)
H20 H 0.4745 0.3430 0.8783
C32 C 0.4421(2) 0.2732(4) 0.8406(4)
C33 C 0.3959(2) 0.2581(4) 0.7823(4)
C34 C 0.3610(2) 0.2700(4) 0.7487(4)
C35 C 0.1542(2) 0.3182(4) 0.8117(4)
C36 C 0.1263(3) 0.3519(6) 0.8417(5)
H21 H 0.1264 0.3969 0.8441
C37 C 0.0981(3) 0.3139(6) 0.8681(5)
H22 H 0.0790 0.3349 0.8888
C38 C 0.0969(3) 0.2450(6) 0.8653(5)
H23 H 0.0776 0.2227 0.8844
C39 C 0.1247(3) 0.2098(5) 0.8339(5)
H24 H 0.1247 0.1648 0.8319
C40 C 0.1527(2) 0.2495(5) 0.8053(5)
C41 C 0.2035(2) 0.2859(4) 0.7648(4)
C42 C 0.2415(2) 0.2871(4) 0.7387(4)
C43 C 0.4044(3) 0.1082(4) 0.6231(4)
C44 C 0.4443(3) 0.0944(5) 0.6303(5)
H25 H 0.4561 0.0870 0.6647
C45 C 0.4643(3) 0.0932(4) 0.5776(5)
H26 H 0.4909 0.0855 0.5773
C46 C 0.4435(3) 0.1042(6) 0.5223(6)
H27 H 0.4574 0.1028 0.4890
C47 C 0.4061(3) 0.1155(5) 0.5209(5)
H28 H 0.3930 0.1209 0.4872
C48 C 0.3854(3) 0.1193(4) 0.5750(5)
C49 C 0.3092(3) 0.0709(4) 0.8267(5)
C50 C 0.3262(3) 0.0408(5) 0.8697(4)
H29 H 0.3531 0.0412 0.8732
C51 C 0.3039(3) 0.0093(5) 0.9089(6)
H30 H 0.3153 -0.0157 0.9368
C52 C 0.2624(3) 0.0159(7) 0.9057(6)
H31 H 0.2475 -0.0003 0.9350
C53 C 0.2443(4) 0.0438(6) 0.8634(5)
H32 H 0.2174 0.0439 0.8608
C54 C 0.2677(3) 0.0733(5) 0.8224(5)
C55 C 0.2145(3) 0.1428(5) 0.5602(6)
C56 C 0.1998(4) 0.1478(6) 0.5053(6)
H33 H 0.2152 0.1572 0.4745
C57 C 0.1592(4) 0.1372(7) 0.5019(8)
H34 H 0.1461 0.1416 0.4681
C58 C 0.1388(5) 0.1193(8) 0.5524(9)
H35 H 0.1126 0.1100 0.5487
C59 C 0.1535(3) 0.1147(7) 0.6036(7)
H36 H 0.1387 0.1009 0.6339
C60 C 0.1935(3) 0.1324(5) 0.6092(5)
C61 C 0.4840(2) -0.0198(4) 0.4496(4)
C62 C 0.5099(3) 0.0170(4) 0.4148(4)
H37 H 0.5364 0.0167 0.4215
C63 C 0.4954(3) 0.0512(5) 0.3733(6)
H38 H 0.5116 0.0782 0.3528
C64 C 0.4540(4) 0.0474(6) 0.3590(5)
H39 H 0.4449 0.0701 0.3281
C65 C 0.4286(4) 0.0113(6) 0.3898(5)
H40 H 0.4023 0.0093 0.3808
C66 C 0.4435(3) -0.0218(4) 0.4345(5)
C67 C 0.3313(2) -0.0420(4) 0.6064(5)
C68 C 0.2916(3) -0.0331(4) 0.5881(6)
H41 H 0.2843 -0.0342 0.5507
C69 C 0.2646(3) -0.0224(5) 0.6328(5)
H42 H 0.2384 -0.0182 0.6241
C70 C 0.2752(3) -0.0182(5) 0.6867(5)
H43 H 0.2562 -0.0100 0.7135
C71 C 0.3135(3) -0.0255(5) 0.7041(5)
H44 H 0.3204 -0.0222 0.7416
C72 C 0.3418(3) -0.0383(4) 0.6622(5)
C73 C 0.5058(3) 0.0011(4) 0.7074(4)
C74 C 0.5134(3) 0.0398(5) 0.7553(5)
H45 H 0.4952 0.0433 0.7839
C75 C 0.5477(3) 0.0715(5) 0.7581(5)
H46 H 0.5528 0.0976 0.7890
C76 C 0.5772(3) 0.0657(6) 0.7137(6)
H47 H 0.5999 0.0901 0.7157
C77 C 0.5716(3) 0.0264(5) 0.6713(5)
H48 H 0.5913 0.0176 0.6459
C78 C 0.5343(2) -0.0024(4) 0.6656(4)
C79 C 0.5938(2) -0.1888(4) 0.4872(4)
C80 C 0.6241(3) -0.1583(5) 0.4592(5)
H49 H 0.6261 -0.1133 0.4594
C81 C 0.6504(3) -0.1945(5) 0.4321(5)
H50 H 0.6710 -0.1738 0.4145
C82 C 0.6481(3) -0.2627(6) 0.4291(6)
H51 H 0.6666 -0.2860 0.4093
C83 C 0.6178(2) -0.2950(5) 0.4561(5)
H52 H 0.6159 -0.3399 0.4540
C84 C 0.5905(2) -0.2594(4) 0.4861(4)
C85 C 0.5431(3) -0.2197(5) 0.5341(5)
C86 C 0.5060(2) -0.2154(5) 0.5621(4)
C87 C 0.4208(3) -0.2148(5) 0.8496(4)
C88 C 0.4154(4) -0.2438(6) 0.9039(5)
H53 H 0.4194 -0.2878 0.9101
C89 C 0.4044(3) -0.2039(5) 0.9445(5)
H54 H 0.4023 -0.2204 0.9805
C90 C 0.3957(4) -0.1361(5) 0.9354(6)
H55 H 0.3860 -0.1113 0.9647
C91 C 0.4016(3) -0.1078(5) 0.8835(5)
H56 H 0.3975 -0.0637 0.8779
C92 C 0.4139(3) -0.1485(4) 0.8395(5)
C93 C 0.4315(3) -0.1938(4) 0.7645(4)
C94 C 0.4410(2) -0.2011(4) 0.7038(5)
C95 C 0.3123(2) -0.2040(4) 0.4524(4)
C96 C 0.2861(3) -0.1727(5) 0.4163(4)
H57 H 0.2872 -0.1283 0.4095
C97 C 0.2573(2) -0.2141(4) 0.3903(4)
H58 H 0.2389 -0.1966 0.3662
C98 C 0.2574(3) -0.2796(4) 0.4016(5)
H59 H 0.2392 -0.3053 0.3833
C99 C 0.2826(3) -0.3097(4) 0.4381(5)
H60 H 0.2809 -0.3538 0.4458
C100 C 0.3108(2) -0.2705(4) 0.4628(4)
C101 C 0.3570(3) -0.2304(4) 0.5103(4)
C102 C 0.3883(2) -0.2219(5) 0.5509(4)
C103 C 0.3761(2) -0.3865(4) 0.7434(4)
C104 C 0.3632(3) -0.3935(5) 0.7979(5)
H61 H 0.3802 -0.3888 0.8278
C105 C 0.3243(3) -0.4080(5) 0.8070(6)
H62 H 0.3143 -0.4105 0.8430
C106 C 0.3005(3) -0.4187(5) 0.7593(5)
H63 H 0.2748 -0.4296 0.7660
C107 C 0.3117(3) -0.4145(5) 0.7054(5)
H64 H 0.2950 -0.4220 0.6757
C108 C 0.3518(3) -0.3975(4) 0.6977(5)
C109 C 0.4142(3) -0.4101(5) 0.4687(5)
C110 C 0.3901(3) -0.4290(5) 0.4268(4)
H65 H 0.3634 -0.4240 0.4302
C111 C 0.4053(3) -0.4544(6) 0.3814(6)
H66 H 0.3890 -0.4687 0.3529
C112 C 0.4477(3) -0.4608(6) 0.3748(5)
H67 H 0.4578 -0.4797 0.3426
C113 C 0.4718(3) -0.4396(5) 0.4145(5)
H68 H 0.4985 -0.4430 0.4102
C114 C 0.4553(3) -0.4115(4) 0.4637(4)
C115 C 0.5529(3) -0.4026(5) 0.6554(5)
C116 C 0.5913(3) -0.4262(5) 0.6455(6)
H69 H 0.6015 -0.4287 0.6097
C117 C 0.6123(4) -0.4451(6) 0.6919(5)
H70 H 0.6369 -0.4628 0.6873
C118 C 0.5966(3) -0.4376(6) 0.7472(6)
H71 H 0.6122 -0.4483 0.7776
C119 C 0.5587(3) -0.4147(5) 0.7579(5)
H72 H 0.5489 -0.4118 0.7940
C120 C 0.5363(3) -0.3965(5) 0.7105(5)
C121 C 0.2681(3) -0.3028(5) 0.5917(5)
H73 H 0.2506 -0.3236 0.6180
H74 H 0.2655 -0.3248 0.5561
C122 C 0.2561(3) -0.2339(5) 0.5847(5)
H75 H 0.2752 -0.2114 0.5622
H76 H 0.2553 -0.2131 0.6211
C123 C 0.2162(3) -0.2275(6) 0.5569(6)
H77 H 0.1979 -0.2556 0.5758
H78 H 0.2180 -0.2413 0.5183
C124 C 0.2011(4) -0.1560(7) 0.5591(11)
H79 H 0.2115 -0.1347 0.5914
H80 H 0.1733 -0.1561 0.5611
H81 H 0.2092 -0.1334 0.5260
Co1_2 Co 0.35598(3) 0.64715(6) 0.56580(6)
Cl1_2 Cl 0.31948(7) -0.44858(10) 0.53048(11)
loop_
_geom_bond_atom_site_label_1
_geom_bond_atom_site_label_2
_geom_bond_site_symmetry_1
_geom_bond_site_symmetry_2
Co1 N1 1_555 1_555
N1 N3 1_555 1_555
N2 N3 1_555 1_555
N3 Co16 1_555 1_555
Co2 Cl1 1_555 1_555
Co3 Cl2 1_555 1_555
Co4 Cl3 1_555 1_555
Co5 O1 1_555 1_555
Co6 Cl5 1_555 1_555
Co7 Cl6 1_555 1_555
Co8 Cl4 1_555 1_555
Co9 O3 1_555 1_555
Co10 O6 1_555 1_555
Co11 Cl7 1_555 1_555
Co12 Cl6 1_555 1_555
Co13 O10 1_555 1_555
Co14 Cl8 1_555 1_555
Co15 N2 1_555 1_555
Co16 O11 1_555 1_555
Cl1 Co1_2 1_555 1_555
O1 Co2 1_555 1_555
O2 Co15 1_555 1_555
O3 Co6 1_555 1_555
O4 Co15 1_555 1_555
O5 Co4 1_555 1_555
O7 Co7 1_555 1_555
O8 Co3 1_555 1_555
O9 Co8 1_555 1_555
O10 Co11 1_555 1_555
O11 C86 1_555 1_555
O12 Co12 1_555 1_555
O13 Co15 1_555 1_555
O14 Co10 1_555 1_555
O15 Co1 1_555 1_555
O16 Co1 1_555 1_555
N4 Co2 1_555 1_555
N5 Co5 1_555 1_555
N6 Co3 1_555 1_555
N7 Co3 1_555 1_555
N8 Co5 1_555 1_555
N9 Co4 1_555 1_555
N10 Co4 1_555 1_555
N11 Co5 1_555 1_555
N12 Co2 1_555 1_555
N13 Co2 1_555 1_555
N14 Co6 1_555 1_555
N15 Co4 1_555 1_555
N16 Co7 1_555 1_555
N17 Co3 1_555 1_555
N18 Co8 1_555 1_555
N19 Co7 1_555 1_555
N20 Co9 1_555 1_555
N21 Co6 1_555 1_555
N22 Co7 1_555 1_555
N23 Co9 1_555 1_555
N24 Co8 1_555 1_555
N25 Co6 1_555 1_555
N26 Co9 1_555 1_555
N27 Co8 1_555 1_555
N28 Co11 1_555 1_555
N29 Co13 1_555 1_555
N30 Co10 1_555 1_555
N31 Co10 1_555 1_555
N32 Co13 1_555 1_555
N33 Co12 1_555 1_555
N34 Co12 1_555 1_555
N35 Co13 1_555 1_555
N36 Co11 1_555 1_555
N37 Co11 1_555 1_555
N38 Co14 1_555 1_555
N39 Co12 1_555 1_555
N40 Co15 1_555 1_555
N41 Co10 1_555 1_555
N42 Co1 1_555 1_555
N43 Co1 1_555 1_555
N44 Co16 1_555 1_555
N45 Co14 1_555 1_555
N46 Co14 1_555 1_555
N47 Co16 1_555 1_555
N48 Co15 1_555 1_555
C1 N4 1_555 1_555
C2 C1 1_555 1_555
H1 C2 1_555 1_555
C3 C2 1_555 1_555
H2 C3 1_555 1_555
C4 C3 1_555 1_555
H3 C4 1_555 1_555
C5 C4 1_555 1_555
H4 C5 1_555 1_555
C6 N6 1_555 1_555
C7 N7 1_555 1_555
C8 C7 1_555 1_555
H5 C8 1_555 1_555
C9 C8 1_555 1_555
H6 C9 1_555 1_555
C10 C9 1_555 1_555
H7 C10 1_555 1_555
C11 C10 1_555 1_555
H8 C11 1_555 1_555
C12 N9 1_555 1_555
C13 N10 1_555 1_555
C14 C13 1_555 1_555
H9 C14 1_555 1_555
C15 C14 1_555 1_555
H10 C15 1_555 1_555
C16 C15 1_555 1_555
H11 C16 1_555 1_555
C17 C16 1_555 1_555
H12 C17 1_555 1_555
C18 N12 1_555 1_555
C19 N13 1_555 1_555
C20 C19 1_555 1_555
H13 C20 1_555 1_555
C21 C20 1_555 1_555
H14 C21 1_555 1_555
C22 C21 1_555 1_555
H15 C22 1_555 1_555
C23 C22 1_555 1_555
H16 C23 1_555 1_555
C24 N14 1_555 1_555
C25 N13 1_555 1_555
C26 O1 1_555 1_555
C27 N16 1_555 1_555
C28 C27 1_555 1_555
H17 C28 1_555 1_555
C29 C28 1_555 1_555
H18 C29 1_555 1_555
C30 C29 1_555 1_555
H19 C30 1_555 1_555
C31 C30 1_555 1_555
H20 C31 1_555 1_555
C32 N15 1_555 1_555
C33 N15 1_555 1_555
C34 O5 1_555 1_555
C35 N17 1_555 1_555
C36 C35 1_555 1_555
H21 C36 1_555 1_555
C37 C36 1_555 1_555
H22 C37 1_555 1_555
C38 C37 1_555 1_555
H23 C38 1_555 1_555
C39 C38 1_555 1_555
H24 C39 1_555 1_555
C40 N18 1_555 1_555
C41 N17 1_555 1_555
C42 O8 1_555 1_555
C43 N19 1_555 1_555
C44 C43 1_555 1_555
H25 C44 1_555 1_555
C45 C44 1_555 1_555
H26 C45 1_555 1_555
C46 C45 1_555 1_555
H27 C46 1_555 1_555
C47 C46 1_555 1_555
H28 C47 1_555 1_555
C48 N21 1_555 1_555
C49 N22 1_555 1_555
C50 C49 1_555 1_555
H29 C50 1_555 1_555
C51 C50 1_555 1_555
H30 C51 1_555 1_555
C52 C51 1_555 1_555
H31 C52 1_555 1_555
C53 C52 1_555 1_555
H32 C53 1_555 1_555
C54 N24 1_555 1_555
C55 N25 1_555 1_555
C56 C55 1_555 1_555
H33 C56 1_555 1_555
C57 C56 1_555 1_555
H34 C57 1_555 1_555
C58 C57 1_555 1_555
H35 C58 1_555 1_555
C59 C58 1_555 1_555
H36 C59 1_555 1_555
C60 N27 1_555 1_555
C61 N28 1_555 1_555
C62 C61 1_555 1_555
H37 C62 1_555 1_555
C63 C62 1_555 1_555
H38 C63 1_555 1_555
C64 C63 1_555 1_555
H39 C64 1_555 1_555
C65 C64 1_555 1_555
H40 C65 1_555 1_555
C66 N30 1_555 1_555
C67 N31 1_555 1_555
C68 C67 1_555 1_555
H41 C68 1_555 1_555
C69 C68 1_555 1_555
H42 C69 1_555 1_555
C70 C69 1_555 1_555
H43 C70 1_555 1_555
C71 C70 1_555 1_555
H44 C71 1_555 1_555
C72 N33 1_555 1_555
C73 N34 1_555 1_555
C74 C73 1_555 1_555
H45 C74 1_555 1_555
C75 C74 1_555 1_555
H46 C75 1_555 1_555
C76 C75 1_555 1_555
H47 C76 1_555 1_555
C77 C76 1_555 1_555
H48 C77 1_555 1_555
C78 N36 1_555 1_555
C79 N37 1_555 1_555
C80 C79 1_555 1_555
H49 C80 1_555 1_555
C81 C80 1_555 1_555
H50 C81 1_555 1_555
C82 C81 1_555 1_555
H51 C82 1_555 1_555
C83 C82 1_555 1_555
H52 C83 1_555 1_555
C84 N38 1_555 1_555
C85 N37 1_555 1_555
C86 O10 1_555 1_555
C87 N40 1_555 1_555
C88 C87 1_555 1_555
H53 C88 1_555 1_555
C89 C88 1_555 1_555
H54 C89 1_555 1_555
C90 C89 1_555 1_555
H55 C90 1_555 1_555
C91 C90 1_555 1_555
H56 C91 1_555 1_555
C92 N39 1_555 1_555
C93 N39 1_555 1_555
C94 O12 1_555 1_555
C95 N41 1_555 1_555
C96 C95 1_555 1_555
H57 C96 1_555 1_555
C97 C96 1_555 1_555
H58 C97 1_555 1_555
C98 C97 1_555 1_555
H59 C98 1_555 1_555
C99 C98 1_555 1_555
H60 C99 1_555 1_555
C100 N42 1_555 1_555
C101 N41 1_555 1_555
C102 O14 1_555 1_555
C103 N2 1_555 1_555
C104 C103 1_555 1_555
H61 C104 1_555 1_555
C105 C104 1_555 1_555
H62 C105 1_555 1_555
C106 C105 1_555 1_555
H63 C106 1_555 1_555
C107 C106 1_555 1_555
H64 C107 1_555 1_555
C108 N1 1_555 1_555
C109 N43 1_555 1_555
C110 C109 1_555 1_555
H65 C110 1_555 1_555
C111 C110 1_555 1_555
H66 C111 1_555 1_555
C112 C111 1_555 1_555
H67 C112 1_555 1_555
C113 C112 1_555 1_555
H68 C113 1_555 1_555
C114 N45 1_555 1_555
C115 N46 1_555 1_555
C116 C115 1_555 1_555
H69 C116 1_555 1_555
C117 C116 1_555 1_555
H70 C117 1_555 1_555
C118 C117 1_555 1_555
H71 C118 1_555 1_555
C119 C118 1_555 1_555
H72 C119 1_555 1_555
C120 N48 1_555 1_555
C121 O16 1_555 1_555
H73 C121 1_555 1_555
H74 C121 1_555 1_555
C122 C121 1_555 1_555
H75 C122 1_555 1_555
H76 C122 1_555 1_555
C123 C122 1_555 1_555
H77 C123 1_555 1_555
H78 C123 1_555 1_555
C124 C123 1_555 1_555
H79 C124 1_555 1_555
H80 C124 1_555 1_555
H81 C124 1_555 1_555
Cl1_2 Co1 1_555 1_555
Co5 O5 1_555 1_555
Co5 O8 1_555 1_555
Co9 O7 1_555 1_555
Co9 O9 1_555 1_555
Co13 O12 1_555 1_555
Co13 O14 1_555 1_555
Co16 O13 1_555 1_555
Co16 O15 1_555 1_555
O3 C26 1_555 1_555
O7 C34 1_555 1_555
O9 C42 1_555 1_555
O13 C94 1_555 1_555
O15 C102 1_555 1_555
N4 N5 1_555 1_555
N5 N6 1_555 1_555
N7 N8 1_555 1_555
N8 N9 1_555 1_555
N10 N11 1_555 1_555
N11 N12 1_555 1_555
N14 C25 1_555 1_555
N16 C33 1_555 1_555
N18 C41 1_555 1_555
N19 N20 1_555 1_555
N20 N21 1_555 1_555
N22 N23 1_555 1_555
N23 N24 1_555 1_555
N25 N26 1_555 1_555
N26 N27 1_555 1_555
N28 N29 1_555 1_555
N29 N30 1_555 1_555
N31 N32 1_555 1_555
N32 N33 1_555 1_555
N34 N35 1_555 1_555
N35 N36 1_555 1_555
N38 C85 1_555 1_555
N40 C93 1_555 1_555
N42 C101 1_555 1_555
N43 N44 1_555 1_555
N44 N45 1_555 1_555
N46 N47 1_555 1_555
N47 N48 1_555 1_555
C1 C6 1_555 1_555
C5 C6 1_555 1_555
C7 C12 1_555 1_555
C11 C12 1_555 1_555
C13 C18 1_555 1_555
C17 C18 1_555 1_555
C19 C24 1_555 1_555
C23 C24 1_555 1_555
C25 C26 1_555 1_555
C27 C32 1_555 1_555
C31 C32 1_555 1_555
C33 C34 1_555 1_555
C35 C40 1_555 1_555
C39 C40 1_555 1_555
C41 C42 1_555 1_555
C43 C48 1_555 1_555
C47 C48 1_555 1_555
C49 C54 1_555 1_555
C53 C54 1_555 1_555
C55 C60 1_555 1_555
C59 C60 1_555 1_555
C61 C66 1_555 1_555
C65 C66 1_555 1_555
C67 C72 1_555 1_555
C71 C72 1_555 1_555
C73 C78 1_555 1_555
C77 C78 1_555 1_555
C79 C84 1_555 1_555
C83 C84 1_555 1_555
C85 C86 1_555 1_555
C87 C92 1_555 1_555
C91 C92 1_555 1_555
C93 C94 1_555 1_555
C95 C100 1_555 1_555
C99 C100 1_555 1_555
C101 C102 1_555 1_555
C103 C108 1_555 1_555
C107 C108 1_555 1_555
C109 C114 1_555 1_555
C113 C114 1_555 1_555
C115 C120 1_555 1_555
C119 C120 1_555 1_555

#END
