
#######################################################################
#
#                 Cambridge Crystallographic Data Centre
#                                CCDC 
#
#######################################################################
#
# If this CIF has been generated from an entry in the Cambridge 
# Structural Database, then it will include bibliographic, chemical, 
# crystal, experimental, refinement or atomic coordinate data resulting 
# from the CCDC's data processing and validation procedures.
#
#######################################################################

data_PIMKON
_symmetry_cell_setting           monoclinic
_symmetry_space_group_name_H-M   'P 21/c'
_symmetry_Int_Tables_number      14
_space_group_name_Hall           '-P 2ybc'
loop_
_symmetry_equiv_pos_site_id
_symmetry_equiv_pos_as_xyz
1 x,y,z
2 -x,1/2+y,1/2-z
3 -x,-y,-z
4 x,1/2-y,1/2+z
_cell_length_a                   30.195(5)
_cell_length_b                   20.367(4)
_cell_length_c                   33.896(4)
_cell_angle_alpha                90
_cell_angle_beta                 123.240(10)
_cell_angle_gamma                90
_cell_volume                     17434.7
loop_
_atom_site_label
_atom_site_type_symbol
_atom_site_fract_x
_atom_site_fract_y
_atom_site_fract_z
Co9 Co 0.56374(2) 0.09119(3) 0.206047(18)
Co10 Co 0.53524(2) 0.29269(3) 0.189484(18)
Co11 Co 0.58360(2) 0.33453(3) 0.304760(19)
Co12 Co 0.39906(2) 0.29756(3) 0.108987(19)
Co13 Co 0.61865(2) 0.05916(3) 0.140366(19)
Co14 Co 0.43873(2) 0.02943(3) 0.162330(19)
Co15 Co 0.65231(2) 0.07134(3) 0.328329(19)
Co16 Co 0.61141(2) 0.34423(3) 0.14509(2)
Cl5 Cl 0.64768(5) -0.01211(6) 0.10664(4)
Cl6 Cl 0.61002(4) 0.43266(5) 0.35497(4)
Cl7 Cl 0.64113(5) 0.42974(6) 0.12191(4)
Cl8 Cl 0.69331(4) -0.00212(5) 0.38895(3)
C63 C 0.76189(17) -0.0168(2) 0.32744(17)
H42 H 0.7675 -0.0143 0.3573
O9 O 0.46877(10) 0.23098(14) 0.14823(9)
C64 C 0.32934(18) 0.1103(3) 0.11578(18)
O10 O 0.60474(11) 0.15016(14) 0.26383(9)
O11 O 0.58236(11) 0.24815(14) 0.17169(10)
C65 C 0.2900(2) 0.0650(3) 0.1055(2)
H43 H 0.2972 0.0204 0.1118
O12 O 0.56811(10) 0.24901(14) 0.25755(9)
C66 C 0.2662(2) 0.2011(3) 0.0852(2)
H44 H 0.2581 0.2455 0.0789
O13 O 0.58235(11) 0.13829(14) 0.16334(9)
N25 N 0.63711(12) 0.26105(17) 0.12887(11)
C67 C 0.2392(2) 0.0901(3) 0.0854(3)
H45 H 0.2118 0.0617 0.0786
O14 O 0.48752(11) 0.12757(15) 0.17583(10)
N26 N 0.66700(13) 0.16200(18) 0.35886(11)
N27 N 0.60202(12) 0.35267(17) 0.22715(11)
N28 N 0.50293(13) 0.33935(17) 0.12435(11)
N29 N 0.64025(12) 0.05257(17) 0.23656(11)
N30 N 0.43430(13) 0.33856(17) 0.17814(12)
N31 N 0.38333(13) 0.10164(19) 0.13616(13)
N32 N 0.48693(13) 0.33947(17) 0.20648(12)
N33 N 0.63986(13) 0.14909(17) 0.12555(12)
N34 N 0.52621(12) 0.02982(18) 0.14721(11)
N35 N 0.67327(13) 0.04060(17) 0.28248(11)
N36 N 0.63296(13) 0.37081(17) 0.21235(11)
N37 N 0.65978(13) 0.03278(17) 0.21127(12)
O15 O 0.33659(12) 0.36370(17) 0.08045(11)
N38 N 0.62421(13) 0.36593(17) 0.27306(11)
N39 N 0.47680(13) 0.00845(18) 0.12883(11)
N40 N 0.57461(13) 0.04144(17) 0.29584(11)
N41 N 0.53086(14) 0.35932(18) 0.10702(12)
N42 N 0.50375(13) 0.35804(17) 0.25022(11)
C68 C 0.70826(16) 0.3001(2) 0.43804(14)
H46 H 0.7003 0.3447 0.4349
C69 C 0.63936(15) 0.2125(2) 0.33137(14)
C70 C 0.67012(16) 0.1763(2) 0.10977(14)
N43 N 0.54340(13) 0.04118(17) 0.24858(11)
C71 C 0.62297(15) 0.2022(2) 0.13647(13)
C72 C 0.44908(18) 0.0022(2) 0.27774(16)
H47 H 0.4147 -0.0036 0.2517
N44 N 0.64663(13) 0.27183(18) 0.35143(11)
C73 C 0.75478(16) 0.2040(2) 0.48653(14)
H48 H 0.7776 0.1866 0.5165
C74 C 0.74399(17) 0.2727(2) 0.48154(14)
H49 H 0.7613 0.2995 0.5081
O16 O 0.37016(13) 0.25565(19) 0.04034(11)
N45 N 0.49323(13) 0.02609(17) 0.23339(12)
N46 N 0.45093(13) 0.34804(17) 0.09416(12)
C75 C 0.36291(17) 0.3598(2) 0.19434(16)
H50 H 0.3336 0.3504 0.1644
C76 C 0.70803(15) 0.0049(2) 0.24248(15)
C77 C 0.69642(16) 0.1909(2) 0.40309(13)
C78 C 0.45933(16) 0.3696(2) 0.25093(15)
C79 C 0.45695(15) 0.1737(2) 0.15477(14)
N47 N 0.54536(13) 0.01587(18) 0.12061(11)
C80 C 0.68449(15) 0.2582(2) 0.39892(13)
C81 C 0.54369(17) 0.0261(2) 0.31234(15)
N48 N 0.36524(13) 0.21110(18) 0.11861(13)
C82 C 0.49233(16) 0.0159(2) 0.27316(14)
C83 C 0.71638(15) 0.0096(2) 0.28732(14)
C84 C 0.41542(16) 0.3566(2) 0.20496(15)
C85 C 0.35773(17) 0.3775(2) 0.23085(17)
H51 H 0.3241 0.3792 0.2255
C86 C 0.74450(18) -0.0261(2) 0.23541(17)
H52 H 0.7388 -0.0289 0.2056
C87 C 0.59311(14) 0.19606(19) 0.15857(13)
C88 C 0.60065(15) 0.2041(2) 0.27982(14)
C89 C 0.44469(18) 0.3755(2) 0.05461(15)
C90 C 0.70062(17) 0.1457(2) 0.09553(15)
H53 H 0.7026 0.1003 0.0946
C91 C 0.72506(18) 0.2543(2) 0.08437(16)
H54 H 0.7441 0.2795 0.0757
C92 C 0.50378(19) -0.0460(3) 0.04311(15)
H55 H 0.5327 -0.0449 0.0402
C93 C 0.73211(16) 0.1625(2) 0.44779(14)
H56 H 0.7400 0.1179 0.4510
C94 C 0.50559(18) -0.0180(2) 0.08262(14)
C95 C 0.40113(16) 0.1623(2) 0.13641(15)
C96 C 0.72307(17) 0.4247(2) 0.25380(17)
H57 H 0.7260 0.4288 0.2280
C97 C 0.4148(2) -0.0537(3) 0.05373(16)
H58 H 0.3863 -0.0566 0.0572
C98 C 0.67722(16) 0.3978(2) 0.24982(15)
C99 C 0.66759(16) 0.2452(2) 0.11125(14)
C100 C 0.72776(18) 0.1862(2) 0.08286(17)
H59 H 0.7483 0.1674 0.0731
C101 C 0.45302(18) 0.3882(2) 0.28738(16)
H60 H 0.4819 0.3969 0.3177
C102 C 0.49520(18) 0.3831(2) 0.06299(16)
C103 C 0.75900(18) 0.4385(3) 0.33796(17)
H61 H 0.7872 0.4520 0.3674
C104 C 0.5542(2) 0.0207(3) 0.35772(16)
H62 H 0.5884 0.0259 0.3840
C105 C 0.71427(17) 0.4130(2) 0.33371(16)
H63 H 0.7121 0.4082 0.3599
C106 C 0.67207(15) 0.3944(2) 0.28836(15)
C107 C 0.40176(18) 0.3930(2) 0.27599(17)
H64 H 0.3961 0.4071 0.2990
C108 C 0.76262(18) 0.4444(2) 0.29813(17)
H65 H 0.7932 0.4624 0.3023
C109 C 0.46251(17) -0.0229(2) 0.08678(14)
C110 C 0.78854(19) -0.0520(3) 0.27385(19)
H66 H 0.8132 -0.0736 0.2702
C111 C 0.4561(2) -0.0749(3) 0.00933(17)
H67 H 0.4524 -0.0916 -0.0179
C112 C 0.69515(17) 0.2860(2) 0.09821(14)
H68 H 0.6934 0.3315 0.0988
C113 C 0.4137(2) -0.0801(3) 0.01462(17)
H69 H 0.3833 -0.1018 -0.0086
C114 C 0.31841(17) 0.1780(3) 0.10558(19)
C115 C 0.4616(2) -0.0019(3) 0.32290(19)
H70 H 0.4346 -0.0114 0.3276
C116 C 0.4071(2) 0.4191(3) -0.02195(18)
H71 H 0.3778 0.4314 -0.0511
C117 C 0.79772(19) -0.0467(3) 0.32004(19)
H72 H 0.8288 -0.0639 0.3457
C118 C 0.3993(2) 0.3933(3) 0.01127(17)
H73 H 0.3655 0.3881 0.0053
C119 C 0.5130(2) 0.0075(3) 0.36272(17)
H74 H 0.5192 0.0048 0.3927
C120 C 0.2285(2) 0.1566(3) 0.0752(3)
H75 H 0.1937 0.1709 0.0608
C121 C 0.5029(2) 0.4099(3) 0.02865(18)
H76 H 0.5364 0.4154 0.0342
C122 C 0.4579(3) 0.4273(3) -0.0133(2)
H77 H 0.4611 0.4452 -0.0369
C123 C 0.3196(3) 0.2276(4) 0.0069(2)
H78 H 0.3054 0.2473 -0.0239
H79 H 0.2952 0.2362 0.0164
C124 C 0.3263(5) 0.1511(5) 0.0042(4)
H80 H 0.3426 0.1427 -0.0129
H81 H 0.2922 0.1303 -0.0116
H82 H 0.3483 0.1337 0.0355
O17 O 0.54548(14) 0.28922(19) 0.33738(12)
C125 C 0.5203(4) 0.2174(7) 0.3219(3)
H83 H 0.5072 0.2104 0.2889
H84 H 0.5474 0.1848 0.3404
C126 C 0.4765(6) 0.2095(11) 0.3289(8)
H85 H 0.4907 0.2002 0.3615
H86 H 0.4542 0.1739 0.3098
H87 H 0.4561 0.2493 0.3200
Co14A Co 0.56127(2) 0.52943(3) 0.337670(19)
Cl6A Cl 0.38998(4) -0.06734(5) 0.14503(4)
Co1 Co 0.85594(2) 0.38846(3) 0.194537(19)
Co2 Co 0.94127(2) 0.37908(3) 0.154135(18)
Co3 Co 1.06819(2) 0.42890(3) 0.23459(2)
Co4 Co 0.95968(2) 0.17642(3) 0.146307(19)
Co5 Co 0.90098(2) 0.11552(3) 0.20181(2)
Co6 Co 0.88542(2) 0.43078(3) 0.037902(19)
Co7 Co 1.09648(2) 0.16287(3) 0.20618(2)
Co8 Co 0.88932(2) 0.14774(3) 0.02468(2)
C1 C 0.90015(14) 0.2586(2) 0.18299(13)
Cl1 Cl 0.85806(6) 0.07355(7) -0.03485(4)
Cl2 Cl 0.85504(6) 0.51690(8) -0.01404(5)
C2 C 1.2577(2) 0.3419(3) 0.3667(2)
H1 H 1.2854 0.3664 0.3907
O1 O 0.90215(11) 0.31752(14) 0.17269(10)
C3 C 1.2642(2) 0.2732(3) 0.3645(2)
H2 H 1.2956 0.2533 0.3878
O2 O 0.91892(11) 0.34027(15) 0.09003(10)
O3 O 0.92403(11) 0.21015(14) 0.18083(10)
O4 O 1.01574(11) 0.33865(14) 0.19371(10)
N1 N 0.86725(13) 0.34938(19) -0.00486(12)
N2 N 0.85661(13) 0.18520(17) 0.20861(12)
O5 O 0.91746(11) 0.22912(14) 0.08564(10)
N3 N 1.03058(13) 0.46258(18) 0.16528(12)
O6 O 1.02891(11) 0.23463(15) 0.17890(11)
N4 N 0.83256(13) 0.42328(17) 0.12859(12)
N5 N 1.01423(13) 0.43640(17) 0.25266(12)
N6 N 0.89053(13) 0.11932(18) 0.11078(12)
N7 N 0.86631(13) 0.42225(18) 0.11472(12)
N8 N 0.99481(14) 0.1356(2) 0.11410(14)
N9 N 1.05530(14) 0.11702(18) 0.23355(13)
N10 N 0.86308(13) 0.10827(18) 0.06430(12)
N11 N 0.96412(13) 0.42116(18) 0.21972(11)
N12 N 0.98118(14) 0.44144(18) 0.13478(12)
N13 N 1.00186(13) 0.12033(18) 0.20774(13)
N14 N 0.93232(13) 0.42395(17) 0.23598(12)
C4 C 0.90838(15) 0.2868(2) 0.06851(14)
C5 C 0.83940(16) 0.3320(3) -0.05225(15)
N15 N 0.86556(14) 0.2368(2) -0.00974(12)
N16 N 1.11922(14) 0.35148(18) 0.26156(13)
C6 C 0.74549(17) 0.2409(2) 0.23788(15)
H3 H 0.7207 0.2554 0.2441
N17 N 0.86761(13) 0.09404(18) 0.13184(12)
C7 C 1.01577(17) 0.4491(2) 0.29287(14)
C8 C 0.81941(16) 0.1930(2) 0.22014(15)
N18 N 0.98228(14) 0.10600(18) 0.23464(12)
O7 O 1.13259(14) 0.21284(19) 0.17324(14)
N19 N 0.96932(14) 0.12572(19) 0.06737(13)
C9 C 0.86513(15) 0.2460(2) 0.19951(14)
N20 N 0.83879(13) 0.29434(17) 0.20473(12)
O8 O 1.15918(13) 0.09681(18) 0.23619(15)
C10 C 0.80871(15) 0.2618(2) 0.21767(14)
C11 C 0.75620(17) 0.1722(2) 0.23977(15)
H4 H 0.7378 0.1429 0.2468
C12 C 0.96368(16) 0.4423(2) 0.28217(14)
N21 N 0.96131(14) 0.46185(19) 0.09142(12)
N22 N 0.84393(14) 0.44109(18) 0.07031(12)
N23 N 1.04649(14) 0.1237(2) 0.13672(14)
C13 C 0.82251(15) 0.0624(2) 0.09675(15)
C14 C 0.79252(15) 0.4563(2) 0.05449(14)
C15 C 1.04409(17) 0.4995(2) 0.14005(16)
C16 C 0.77136(16) 0.2858(2) 0.22699(15)
H5 H 0.7645 0.3305 0.2258
C17 C 0.78296(17) 0.0280(2) 0.09834(19)
H6 H 0.7846 0.0222 0.1263
C18 C 0.78522(16) 0.4449(2) 0.09124(14)
C19 C 0.75064(19) 0.4798(2) 0.01039(16)
H7 H 0.7554 0.4896 -0.0138
C20 C 0.9519(2) 0.4520(2) 0.31670(15)
H8 H 0.9176 0.4482 0.3096
C21 C 0.73607(18) 0.4533(2) 0.08592(16)
H9 H 0.7315 0.4449 0.1105
C22 C 1.09927(16) 0.2937(2) 0.23994(16)
C23 C 0.79322(17) 0.1483(2) 0.23145(16)
H10 H 0.8004 0.1036 0.2334
C24 C 0.81992(15) 0.0709(2) 0.05493(15)
C25 C 0.78536(19) 0.3393(3) -0.13540(16)
H11 H 0.7677 0.3639 -0.1631
C26 C 0.88103(16) 0.2900(2) 0.01756(14)
C27 C 1.17021(17) 0.3347(2) 0.29845(16)
C28 C 1.04311(15) 0.2881(2) 0.20101(15)
N24 N 1.13074(15) 0.2413(2) 0.25693(15)
C29 C 0.77795(18) 0.0452(3) 0.01154(17)
H12 H 0.7765 0.0506 -0.0164
C30 C 0.81312(18) 0.3709(3) -0.09251(15)
H13 H 0.8143 0.4165 -0.0905
C31 C 1.21141(18) 0.3727(3) 0.33419(18)
H14 H 1.2074 0.4177 0.3358
C32 C 0.9940(2) 0.4674(2) 0.36151(16)
H15 H 0.9878 0.4738 0.3853
C33 C 1.0904(2) 0.5361(3) 0.1536(2)
H16 H 1.1191 0.5375 0.1847
C34 C 0.74178(18) 0.0035(3) 0.0561(2)
H17 H 0.7146 -0.0190 0.0555
C35 C 0.73947(18) 0.0117(3) 0.01307(19)
H18 H 0.7111 -0.0062 -0.0146
C36 C 1.17699(17) 0.2670(2) 0.29515(19)
C37 C 0.99972(19) 0.5003(3) 0.09268(16)
C38 C 1.05896(19) 0.4648(2) 0.33973(15)
H19 H 1.0936 0.4687 0.3476
C39 C 0.70197(19) 0.4876(3) 0.00502(17)
H20 H 0.6731 0.5016 -0.0239
C40 C 0.83805(17) 0.2632(2) -0.05476(15)
C41 C 0.6952(2) 0.4746(3) 0.04277(18)
H21 H 0.6620 0.4808 0.0379
C42 C 1.02440(19) 0.0951(2) 0.27943(17)
C43 C 1.0704(2) 0.1005(2) 0.27838(17)
C44 C 1.0281(2) 0.0844(2) 0.32184(18)
H22 H 0.9981 0.0814 0.3231
C45 C 1.1245(3) 0.0817(3) 0.3603(2)
H23 H 1.1574 0.0762 0.3883
C46 C 1.1224(2) 0.0925(2) 0.31957(18)
H24 H 1.1526 0.0945 0.3187
C47 C 0.7834(2) 0.2692(3) -0.13787(16)
H25 H 0.7640 0.2491 -0.1673
C48 C 1.0063(2) 0.1037(3) 0.0587(2)
C49 C 1.0457(2) 0.4737(3) 0.37228(16)
H26 H 1.0725 0.4846 0.4030
C50 C 1.0007(2) 0.5347(3) 0.05716(19)
H27 H 0.9716 0.5354 0.0261
C51 C 0.80892(19) 0.2314(3) -0.09895(16)
H28 H 0.8074 0.1858 -0.1011
C52 C 1.0555(2) 0.1026(3) 0.1040(2)
C53 C 1.0033(2) 0.0860(3) 0.0184(2)
H29 H 0.9710 0.0864 -0.0107
C54 C 1.1039(2) 0.0828(3) 0.1092(3)
H30 H 1.1361 0.0811 0.1382
C55 C 1.0906(2) 0.5691(4) 0.1187(2)
H31 H 1.1203 0.5935 0.1265
C56 C 1.0469(2) 0.5675(4) 0.0706(2)
H32 H 1.0496 0.5890 0.0478
C57 C 1.0785(3) 0.0784(3) 0.3618(2)
H33 H 1.0824 0.0720 0.3907
C58 C 1.2243(2) 0.2350(3) 0.3281(2)
H34 H 1.2289 0.1903 0.3259
C59 C 1.0494(3) 0.0678(4) 0.0220(3)
H35 H 1.0483 0.0565 -0.0051
C60 C 1.0980(3) 0.0659(4) 0.0659(3)
H36 H 1.1280 0.0528 0.0667
Cl3 Cl 1.12372(4) 0.51987(5) 0.27434(4)
Cl4 Cl 0.81324(4) 0.45479(5) 0.21805(4)
C61 C 1.1775(3) 0.2553(5) 0.1933(3)
H37 H 1.2067 0.2346 0.2214
H38 H 1.1691 0.2957 0.2030
C62 C 1.1957(4) 0.2724(5) 0.1603(4)
H39 H 1.2102 0.2339 0.1550
H40 H 1.2223 0.3060 0.1745
H41 H 1.1661 0.2879 0.1308
Co5A Co 1.09902(2) 0.61552(3) 0.29819(2)
Cl3A Cl 0.87628(4) 0.01987(5) 0.22566(4)
loop_
_geom_bond_atom_site_label_1
_geom_bond_atom_site_label_2
_geom_bond_site_symmetry_1
_geom_bond_site_symmetry_2
Co1 O1 1_555 1_555
Co2 O1 1_555 1_555
Co3 O4 1_555 1_555
Co4 O3 1_555 1_555
Co5 O3 1_555 1_555
Co6 Cl2 1_555 1_555
Co7 O6 1_555 1_555
Co8 Cl1 1_555 1_555
C1 O1 1_555 1_555
C2 H1 1_555 1_555
C3 C2 1_555 1_555
H2 C3 1_555 1_555
O2 Co2 1_555 1_555
O3 C1 1_555 1_555
O4 Co2 1_555 1_555
N1 Co6 1_555 1_555
N2 Co5 1_555 1_555
O5 Co4 1_555 1_555
N3 Co3 1_555 1_555
O6 Co4 1_555 1_555
N4 Co1 1_555 1_555
N5 Co3 1_555 1_555
N6 Co4 1_555 1_555
N7 Co2 1_555 1_555
N8 Co4 1_555 1_555
N9 Co7 1_555 1_555
N10 Co8 1_555 1_555
N11 Co2 1_555 1_555
N12 Co2 1_555 1_555
N13 Co4 1_555 1_555
N14 Co1 1_555 1_555
C4 O2 1_555 1_555
C5 N1 1_555 1_555
N15 Co8 1_555 1_555
N16 Co3 1_555 1_555
C6 H3 1_555 1_555
N17 Co5 1_555 1_555
C7 N5 1_555 1_555
C8 N2 1_555 1_555
N18 Co5 1_555 1_555
O7 Co7 1_555 1_555
N19 Co8 1_555 1_555
C9 C1 1_555 1_555
N20 Co1 1_555 1_555
O8 Co7 1_555 1_555
C10 C8 1_555 1_555
C11 C6 1_555 1_555
H4 C11 1_555 1_555
C12 N14 1_555 1_555
N21 Co6 1_555 1_555
N22 Co6 1_555 1_555
N23 Co7 1_555 1_555
C13 N17 1_555 1_555
C14 N22 1_555 1_555
C15 N3 1_555 1_555
C16 C6 1_555 1_555
H5 C16 1_555 1_555
C17 C13 1_555 1_555
H6 C17 1_555 1_555
C18 N4 1_555 1_555
C19 C14 1_555 1_555
H7 C19 1_555 1_555
C20 C12 1_555 1_555
H8 C20 1_555 1_555
C21 C18 1_555 1_555
H9 C21 1_555 1_555
C22 N16 1_555 1_555
C23 C8 1_555 1_555
H10 C23 1_555 1_555
C24 N10 1_555 1_555
C25 H11 1_555 1_555
C26 N1 1_555 1_555
C27 N16 1_555 1_555
C28 O4 1_555 1_555
N24 Co7 1_555 1_555
C29 C24 1_555 1_555
H12 C29 1_555 1_555
C30 C5 1_555 1_555
H13 C30 1_555 1_555
C31 C2 1_555 1_555
H14 C31 1_555 1_555
C32 C20 1_555 1_555
H15 C32 1_555 1_555
C33 C15 1_555 1_555
H16 C33 1_555 1_555
C34 C17 1_555 1_555
H17 C34 1_555 1_555
C35 C29 1_555 1_555
H18 C35 1_555 1_555
C36 C27 1_555 1_555
C37 N21 1_555 1_555
C38 C7 1_555 1_555
H19 C38 1_555 1_555
C39 C19 1_555 1_555
H20 C39 1_555 1_555
C40 C5 1_555 1_555
C41 C21 1_555 1_555
H21 C41 1_555 1_555
C42 N18 1_555 1_555
C43 N9 1_555 1_555
C44 C42 1_555 1_555
H22 C44 1_555 1_555
C45 H23 1_555 1_555
C46 C43 1_555 1_555
H24 C46 1_555 1_555
C47 C25 1_555 1_555
H25 C47 1_555 1_555
C48 N19 1_555 1_555
C49 C32 1_555 1_555
H26 C49 1_555 1_555
C50 C37 1_555 1_555
H27 C50 1_555 1_555
C51 C40 1_555 1_555
H28 C51 1_555 1_555
C52 N23 1_555 1_555
C53 C48 1_555 1_555
H29 C53 1_555 1_555
C54 C52 1_555 1_555
H30 C54 1_555 1_555
C55 C33 1_555 1_555
H31 C55 1_555 1_555
C56 C50 1_555 1_555
H32 C56 1_555 1_555
C57 C44 1_555 1_555
H33 C57 1_555 1_555
C58 C3 1_555 1_555
H34 C58 1_555 1_555
C59 C53 1_555 1_555
H35 C59 1_555 1_555
C60 C54 1_555 1_555
H36 C60 1_555 1_555
Cl3 Co3 1_555 1_555
Cl4 Co1 1_555 1_555
C61 O7 1_555 1_555
H37 C61 1_555 1_555
H38 C61 1_555 1_555
C62 C61 1_555 1_555
H39 C62 1_555 1_555
H40 C62 1_555 1_555
H41 C62 1_555 1_555
Co9 O10 1_555 1_555
Co10 O9 1_555 1_555
Co11 Cl6 1_555 1_555
Co12 O9 1_555 1_555
Co13 Cl5 1_555 1_555
Co14 O14 1_555 1_555
Co15 Cl8 1_555 1_555
Co16 Cl7 1_555 1_555
Cl6 Co14A 1_555 1_555
C63 H42 1_555 1_555
O9 C79 1_555 1_555
C64 C65 1_555 1_555
O10 Co15 1_555 1_555
O11 Co10 1_555 1_555
C65 H43 1_555 1_555
O12 Co10 1_555 1_555
C66 H44 1_555 1_555
O13 Co9 1_555 1_555
N25 Co16 1_555 1_555
C67 C65 1_555 1_555
H45 C67 1_555 1_555
O14 Co9 1_555 1_555
N26 Co15 1_555 1_555
N27 Co10 1_555 1_555
N28 Co10 1_555 1_555
N29 Co9 1_555 1_555
N30 Co12 1_555 1_555
N31 Co14 1_555 1_555
N32 Co10 1_555 1_555
N33 Co13 1_555 1_555
N34 Co9 1_555 1_555
N35 Co15 1_555 1_555
N36 Co16 1_555 1_555
N37 Co13 1_555 1_555
O15 Co12 1_555 1_555
N38 Co11 1_555 1_555
N39 Co14 1_555 1_555
N40 Co15 1_555 1_555
N41 Co16 1_555 1_555
N42 Co11 1_555 1_555
C68 H46 1_555 1_555
C69 N26 1_555 1_555
C70 N33 1_555 1_555
N43 Co9 1_555 1_555
C71 N25 1_555 1_555
C72 H47 1_555 1_555
N44 Co11 1_555 1_555
C73 H48 1_555 1_555
C74 C68 1_555 1_555
H49 C74 1_555 1_555
O16 Co12 1_555 1_555
N45 Co14 1_555 1_555
N46 Co12 1_555 1_555
C75 H50 1_555 1_555
C76 N37 1_555 1_555
C77 N26 1_555 1_555
C78 N42 1_555 1_555
C79 O14 1_555 1_555
N47 Co13 1_555 1_555
C80 C68 1_555 1_555
C81 N40 1_555 1_555
N48 Co12 1_555 1_555
C82 C72 1_555 1_555
C83 C63 1_555 1_555
C84 N30 1_555 1_555
C85 C75 1_555 1_555
H51 C85 1_555 1_555
C86 C76 1_555 1_555
H52 C86 1_555 1_555
C87 O11 1_555 1_555
C88 O10 1_555 1_555
C89 N46 1_555 1_555
C90 C70 1_555 1_555
H53 C90 1_555 1_555
C91 H54 1_555 1_555
C92 H55 1_555 1_555
C93 C73 1_555 1_555
H56 C93 1_555 1_555
C94 N47 1_555 1_555
C95 N31 1_555 1_555
C96 H57 1_555 1_555
C97 H58 1_555 1_555
C98 N36 1_555 1_555
C99 N25 1_555 1_555
C100 C90 1_555 1_555
H59 C100 1_555 1_555
C101 C78 1_555 1_555
H60 C101 1_555 1_555
C102 N41 1_555 1_555
C103 H61 1_555 1_555
C104 C81 1_555 1_555
H62 C104 1_555 1_555
C105 C103 1_555 1_555
H63 C105 1_555 1_555
C106 N38 1_555 1_555
C107 C85 1_555 1_555
H64 C107 1_555 1_555
C108 C96 1_555 1_555
H65 C108 1_555 1_555
C109 N39 1_555 1_555
C110 C86 1_555 1_555
H66 C110 1_555 1_555
C111 C92 1_555 1_555
H67 C111 1_555 1_555
C112 C91 1_555 1_555
H68 C112 1_555 1_555
C113 C97 1_555 1_555
H69 C113 1_555 1_555
C114 C64 1_555 1_555
C115 C72 1_555 1_555
H70 C115 1_555 1_555
C116 H71 1_555 1_555
C117 C63 1_555 1_555
H72 C117 1_555 1_555
C118 C89 1_555 1_555
H73 C118 1_555 1_555
C119 C104 1_555 1_555
H74 C119 1_555 1_555
C120 C66 1_555 1_555
H75 C120 1_555 1_555
C121 C102 1_555 1_555
H76 C121 1_555 1_555
C122 C116 1_555 1_555
H77 C122 1_555 1_555
C123 O16 1_555 1_555
H78 C123 1_555 1_555
H79 C123 1_555 1_555
C124 C123 1_555 1_555
H80 C124 1_555 1_555
H81 C124 1_555 1_555
H82 C124 1_555 1_555
O17 Co11 1_555 1_555
C125 O17 1_555 1_555
H83 C125 1_555 1_555
H84 C125 1_555 1_555
C126 C125 1_555 1_555
H85 C126 1_555 1_555
H86 C126 1_555 1_555
H87 C126 1_555 1_555
Co5A Cl3 1_555 1_555
Cl3A Co5 1_555 1_555
Cl6A Co14 1_555 1_555
Co6 O2 1_555 1_555
Co8 O5 1_555 1_555
N2 C9 1_555 1_555
O5 C4 1_555 1_555
N3 N12 1_555 1_555
O6 C28 1_555 1_555
N4 N7 1_555 1_555
N5 N11 1_555 1_555
N6 N10 1_555 1_555
N6 N17 1_555 1_555
N7 N22 1_555 1_555
N8 N19 1_555 1_555
N8 N23 1_555 1_555
N9 N13 1_555 1_555
N11 N14 1_555 1_555
N12 N21 1_555 1_555
N13 N18 1_555 1_555
C4 C26 1_555 1_555
N15 C26 1_555 1_555
N15 C40 1_555 1_555
C7 C12 1_555 1_555
C9 N20 1_555 1_555
N20 C10 1_555 1_555
C10 C16 1_555 1_555
C11 C23 1_555 1_555
C13 C24 1_555 1_555
C14 C18 1_555 1_555
C15 C37 1_555 1_555
C22 C28 1_555 1_555
C22 N24 1_555 1_555
C25 C30 1_555 1_555
C27 C31 1_555 1_555
N24 C36 1_555 1_555
C34 C35 1_555 1_555
C36 C58 1_555 1_555
C38 C49 1_555 1_555
C39 C41 1_555 1_555
C42 C43 1_555 1_555
C45 C46 1_555 1_555
C45 C57 1_555 1_555
C47 C51 1_555 1_555
C48 C52 1_555 1_555
C55 C56 1_555 1_555
C59 C60 1_555 1_555
Co11 O12 1_555 1_555
Co13 O13 1_555 1_555
Co16 O11 1_555 1_555
C64 N31 1_555 1_555
O12 C88 1_555 1_555
C66 C114 1_555 1_555
O13 C87 1_555 1_555
C67 C120 1_555 1_555
N27 N36 1_555 1_555
N27 N38 1_555 1_555
N28 N41 1_555 1_555
N28 N46 1_555 1_555
N29 N35 1_555 1_555
N29 N37 1_555 1_555
N30 N32 1_555 1_555
N32 N42 1_555 1_555
N33 C71 1_555 1_555
N34 N39 1_555 1_555
N34 N47 1_555 1_555
N35 C83 1_555 1_555
N40 N43 1_555 1_555
C69 N44 1_555 1_555
C69 C88 1_555 1_555
C70 C99 1_555 1_555
N43 N45 1_555 1_555
C71 C87 1_555 1_555
N44 C80 1_555 1_555
C73 C74 1_555 1_555
N45 C82 1_555 1_555
C75 C84 1_555 1_555
C76 C83 1_555 1_555
C77 C80 1_555 1_555
C77 C93 1_555 1_555
C78 C84 1_555 1_555
C79 C95 1_555 1_555
C81 C82 1_555 1_555
N48 C95 1_555 1_555
N48 C114 1_555 1_555
C89 C102 1_555 1_555
C91 C100 1_555 1_555
C92 C94 1_555 1_555
C94 C109 1_555 1_555
C96 C98 1_555 1_555
C97 C109 1_555 1_555
C98 C106 1_555 1_555
C99 C112 1_555 1_555
C101 C107 1_555 1_555
C103 C108 1_555 1_555
C105 C106 1_555 1_555
C110 C117 1_555 1_555
C111 C113 1_555 1_555
C115 C119 1_555 1_555
C116 C118 1_555 1_555
C121 C122 1_555 1_555

#END
