
#######################################################################
#
#                 Cambridge Crystallographic Data Centre
#                                CCDC 
#
#######################################################################
#
# If this CIF has been generated from an entry in the Cambridge 
# Structural Database, then it will include bibliographic, chemical, 
# crystal, experimental, refinement or atomic coordinate data resulting 
# from the CCDC's data processing and validation procedures.
#
#######################################################################

data_PIMYUF
_symmetry_cell_setting           cubic
_symmetry_space_group_name_H-M   'P 41 3 2'
_symmetry_Int_Tables_number      213
_space_group_name_Hall           'P 4bd 2ab 3'
loop_
_symmetry_equiv_pos_site_id
_symmetry_equiv_pos_as_xyz
1 x,y,z
2 1/2-x,-y,1/2+z
3 -x,1/2+y,1/2-z
4 1/2+x,1/2-y,-z
5 z,x,y
6 1/2+z,1/2-x,-y
7 1/2-z,-x,1/2+y
8 -z,1/2+x,1/2-y
9 y,z,x
10 -y,1/2+z,1/2-x
11 1/2+y,1/2-z,-x
12 1/2-y,-z,1/2+x
13 3/4+y,1/4+x,1/4-z
14 3/4-y,3/4-x,3/4-z
15 1/4+y,1/4-x,3/4+z
16 1/4-y,3/4+x,1/4+z
17 3/4+x,1/4+z,1/4-y
18 1/4-x,3/4+z,1/4+y
19 3/4-x,3/4-z,3/4-y
20 1/4+x,1/4-z,3/4+y
21 3/4+z,1/4+y,1/4-x
22 1/4+z,1/4-y,3/4+x
23 1/4-z,3/4+y,1/4+x
24 3/4-z,3/4-y,3/4-x
_cell_length_a                   15.287(2)
_cell_length_b                   15.287(2)
_cell_length_c                   15.287(2)
_cell_angle_alpha                90
_cell_angle_beta                 90
_cell_angle_gamma                90
_cell_volume                     3572.46
loop_
_atom_site_label
_atom_site_type_symbol
_atom_site_fract_x
_atom_site_fract_y
_atom_site_fract_z
Co2 Co -1.10481(8) -0.39519(8) 0.39519(8)
O1 O -0.8654(3) -0.2808(3) 0.3607(3)
O2 O -1.1360(3) -0.5105(3) 0.1556(4)
C6 C -0.9430(5) -0.3070(5) 0.3750
C7 C -1.1250(5) -0.4834(5) 0.2334
Co2M Co -0.85481(8) -0.14519(8) 0.35481(8)
O1M O -0.9692(3) -0.3846(3) 0.3893(3)
O1V O -1.1107(3) -0.5308(3) 0.3846(3)
C6E C -1.1250 -0.5570(5) 0.3070(5)
O1E O -1.1393(3) -0.6346(3) 0.2808(3)
Co2N Co -1.14519(8) -0.64519(8) 0.14519(8)
O2R O -1.1140(3) -0.4056(4) 0.2605(3)
O1P O -1.1154(3) -0.3893(3) 0.5308(3)
C6K C -1.1930(5) -0.3750 0.5570(5)
O1K O -1.2192(3) -0.3607(3) 0.6346(3)
Co2O Co -1.35481(8) -0.35481(8) 0.64519(8)
O1G O -1.3607(3) -0.3654(3) 0.7808(3)
O2A O -1.3640(3) -0.4895(3) 0.6556(4)
O1C O -1.3654(3) -0.2192(3) 0.6393(3)
O2I O -1.4895(3) -0.3444(4) 0.6360(3)
O2E O -1.3444(4) -0.3640(3) 0.5105(3)
C7E C -1.2666 -0.3750(5) 0.4834(5)
O2O O -1.2395(3) -0.3860(3) 0.4056(4)
O2T O -1.0944(4) -0.2605(3) 0.3860(3)
C7K C -1.0166(5) -0.2334 0.3750(5)
O2K O -0.9895(3) -0.1556(4) 0.3640(3)
Cl1 Cl 0.6250 0.8750 0.1250
O3 O 0.6815(12) 0.9178(11) 0.0612(10)
O4 O 0.5697(12) 0.9303(12) 0.0697(12)
O3W O 0.6888(10) 0.8322(11) 0.0685(12)
O3E O 0.5612(10) 0.8185(12) 0.0822(11)
O3Q O 0.5685(12) 0.8112(10) 0.1678(11)
O3K O 0.5822(11) 0.9388(10) 0.1815(12)
O3L O 0.6678(11) 0.9315(12) 0.1888(10)
O4L O 0.6803(12) 0.8197(12) 0.1803(12)
Co1 Co 0.3750 0.6250 0.1250
N1 N 0.2500(3) 0.6175(4) 0.1247(4)
C1 C 0.1927(5) 0.6843(6) 0.1287(5)
H1 H 0.2139(5) 0.7413(6) 0.1265(5)
C2 C 0.1025(5) 0.6712(6) 0.1361(6)
H2 H 0.0648(5) 0.7183(6) 0.1432(6)
C3 C 0.0708(6) 0.5872(6) 0.1326(5)
H3 H 0.0107(6) 0.5775(6) 0.1316(5)
C4 C 0.1269(5) 0.5183(5) 0.1306(5)
H4 H 0.1056(5) 0.4614(5) 0.1324(5)
C5 C 0.2181(5) 0.5339(5) 0.1256(5)
C5L C 0.2839(5) 0.4681(5) 0.1244(5)
N1L N 0.3675(4) 0.5000(3) 0.1253(4)
N1F N 0.3753(4) 0.7500(3) 0.1175(4)
C1F C 0.3713(5) 0.8073(5) 0.1843(6)
H1F H 0.3735(5) 0.7861(5) 0.2413(6)
C2F C 0.3639(6) 0.8975(5) 0.1712(6)
H2F H 0.3568(6) 0.9352(5) 0.2183(6)
C3F C 0.3674(5) 0.9292(6) 0.0872(6)
H3F H 0.3684(5) 0.9893(6) 0.0775(6)
C4F C 0.3694(5) 0.8731(5) 0.0183(5)
H4F H 0.3676(5) 0.8944(5) -0.0386(5)
C5F C 0.3744(5) 0.7819(5) 0.0339(5)
C5U C 0.3756(5) 0.7161(5) -0.0319(5)
N1U N 0.3747(4) 0.6325(4) 0.0000(3)
N1I N 0.3825(4) 0.6247(4) 0.2500(3)
C1I C 0.3157(6) 0.6287(5) 0.3073(5)
H1I H 0.2587(6) 0.6265(5) 0.2861(5)
C2I C 0.3288(6) 0.6361(6) 0.3975(5)
H2I H 0.2817(6) 0.6432(6) 0.4352(5)
C3I C 0.4128(6) 0.6326(5) 0.4292(6)
H3I H 0.4225(6) 0.6316(5) 0.4893(6)
C4I C 0.4817(5) 0.6306(5) 0.3731(5)
H4I H 0.5386(5) 0.6324(5) 0.3944(5)
C5I C 0.4661(5) 0.6256(5) 0.2819(5)
C5R C 0.5319(5) 0.6244(5) 0.2161(5)
N1R N 0.5000(3) 0.6253(4) 0.1325(4)
C1R C 0.5573(5) 0.6213(5) 0.0657(6)
H1R H 0.5361(5) 0.6235(5) 0.0087(6)
C2R C 0.6475(5) 0.6139(6) 0.0788(6)
H2R H 0.6852(5) 0.6068(6) 0.0317(6)
C3R C 0.6792(6) 0.6174(5) 0.1628(6)
H3R H 0.7393(6) 0.6184(5) 0.1725(6)
C4R C 0.6231(5) 0.6194(5) 0.2317(5)
H4R H 0.6444(5) 0.6176(5) 0.2886(5)
C1U C 0.3787(5) 0.5657(6) -0.0573(5)
H1U H 0.3765(5) 0.5087(6) -0.0361(5)
C2U C 0.3861(6) 0.5788(6) -0.1475(5)
H2U H 0.3932(6) 0.5317(6) -0.1852(5)
C3U C 0.3826(5) 0.6628(6) -0.1792(6)
H3U H 0.3816(5) 0.6725(6) -0.2393(6)
C4U C 0.3806(5) 0.7317(5) -0.1231(5)
H4U H 0.3824(5) 0.7886(5) -0.1444(5)
C1L C 0.4343(6) 0.4427(5) 0.1213(5)
H1L H 0.4913(6) 0.4639(5) 0.1235(5)
C2L C 0.4212(6) 0.3525(5) 0.1139(6)
H2L H 0.4683(6) 0.3148(5) 0.1068(6)
C3L C 0.3372(6) 0.3208(6) 0.1174(5)
H3L H 0.3275(6) 0.2607(6) 0.1184(5)
C4L C 0.2683(5) 0.3769(5) 0.1194(5)
H4L H 0.2114(5) 0.3556(5) 0.1176(5)
loop_
_geom_bond_atom_site_label_1
_geom_bond_atom_site_label_2
_geom_bond_site_symmetry_1
_geom_bond_site_symmetry_2
Co1 N1 1_555 1_555
Co2 O1M 1_555 1_555
Cl1 O3 1_555 1_555
O1 C6 1_555 1_555
O2 C7 1_555 1_555
N1 C1 1_555 1_555
C1 H1 1_555 1_555
C2 C1 1_555 1_555
H2 C2 1_555 1_555
C3 C2 1_555 1_555
H3 C3 1_555 1_555
C4 C3 1_555 1_555
H4 C4 1_555 1_555
C5 N1 1_555 1_555
C6 O1M 1_555 1_555
C7 C6E 1_555 1_555
O3 O4 1_555 1_555
O4 Cl1 1_555 1_555
C5L C5 1_555 1_555
N1L Co1 1_555 1_555
N1F Co1 1_555 1_555
C1F N1F 1_555 1_555
H1F C1F 1_555 1_555
C2F C1F 1_555 1_555
H2F C2F 1_555 1_555
C3F C2F 1_555 1_555
H3F C3F 1_555 1_555
C4F C3F 1_555 1_555
H4F C4F 1_555 1_555
C5F N1F 1_555 1_555
C5U C5F 1_555 1_555
N1U Co1 1_555 1_555
N1I Co1 1_555 1_555
C1I N1I 1_555 1_555
H1I C1I 1_555 1_555
C2I C1I 1_555 1_555
H2I C2I 1_555 1_555
C3I C2I 1_555 1_555
H3I C3I 1_555 1_555
C4I C3I 1_555 1_555
H4I C4I 1_555 1_555
C5I N1I 1_555 1_555
C5R C5I 1_555 1_555
N1R Co1 1_555 1_555
C1R N1R 1_555 1_555
H1R C1R 1_555 1_555
C2R C1R 1_555 1_555
H2R C2R 1_555 1_555
C3R C2R 1_555 1_555
H3R C3R 1_555 1_555
C4R C5R 1_555 1_555
H4R C4R 1_555 1_555
C1U N1U 1_555 1_555
H1U C1U 1_555 1_555
C2U C1U 1_555 1_555
H2U C2U 1_555 1_555
C3U C2U 1_555 1_555
H3U C3U 1_555 1_555
C4U C5U 1_555 1_555
H4U C4U 1_555 1_555
C1L N1L 1_555 1_555
H1L C1L 1_555 1_555
C2L C1L 1_555 1_555
H2L C2L 1_555 1_555
C3L C2L 1_555 1_555
H3L C3L 1_555 1_555
C4L C5L 1_555 1_555
H4L C4L 1_555 1_555
Co2M O1 1_555 1_555
O1V Co2 1_555 1_555
C6E O1V 1_555 1_555
O1E C6E 1_555 1_555
Co2N O2 1_555 1_555
O2R Co2 1_555 1_555
O1P Co2 1_555 1_555
C6K O1P 1_555 1_555
O1K C6K 1_555 1_555
Co2O O1K 1_555 1_555
O1G Co2O 1_555 1_555
O2A Co2O 1_555 1_555
O1C Co2O 1_555 1_555
O2I Co2O 1_555 1_555
O2E Co2O 1_555 1_555
C7E C6K 1_555 1_555
O2O Co2 1_555 1_555
O2T Co2 1_555 1_555
C7K C6 1_555 1_555
O2K Co2M 1_555 1_555
O3W Cl1 1_555 1_555
O3E Cl1 1_555 1_555
O3Q Cl1 1_555 1_555
O3K Cl1 1_555 1_555
O3L Cl1 1_555 1_555
O4L Cl1 1_555 1_555
C4 C5 1_555 1_555
C7 O2R 1_555 1_555
O3 O3W 1_555 1_555
O4 O3K 1_555 1_555
O4 O3E 1_555 1_555
C5L N1L 1_555 1_555
C4F C5F 1_555 1_555
C5U N1U 1_555 1_555
C4I C5I 1_555 1_555
C5R N1R 1_555 1_555
C3R C4R 1_555 1_555
C3U C4U 1_555 1_555
C3L C4L 1_555 1_555
O1E Co2N 1_555 1_555
O2E C7E 1_555 1_555
C7E O2O 1_555 1_555
O2T C7K 1_555 1_555
C7K O2K 1_555 1_555
O3W O4L 1_555 1_555
O3E O3Q 1_555 1_555
O3Q O4L 1_555 1_555
O3K O3L 1_555 1_555
O3L O4L 1_555 1_555

#END
