
#######################################################################
#
#                 Cambridge Crystallographic Data Centre
#                                CCDC 
#
#######################################################################
#
# If this CIF has been generated from an entry in the Cambridge 
# Structural Database, then it will include bibliographic, chemical, 
# crystal, experimental, refinement or atomic coordinate data resulting 
# from the CCDC's data processing and validation procedures.
#
#######################################################################

data_PINHUP
_symmetry_cell_setting           monoclinic
_symmetry_space_group_name_H-M   'P 21/n'
_symmetry_Int_Tables_number      14
_space_group_name_Hall           '-P 2yn'
loop_
_symmetry_equiv_pos_site_id
_symmetry_equiv_pos_as_xyz
1 x,y,z
2 1/2-x,1/2+y,1/2-z
3 -x,-y,-z
4 1/2+x,1/2-y,1/2+z
_cell_length_a                   6.0513(12)
_cell_length_b                   23.834(3)
_cell_length_c                   13.138(2)
_cell_angle_alpha                90
_cell_angle_beta                 95.871(15)
_cell_angle_gamma                90
_cell_volume                     1884.91
loop_
_atom_site_label
_atom_site_type_symbol
_atom_site_fract_x
_atom_site_fract_y
_atom_site_fract_z
Zn1 Zn 0.5684(1) 0.27075(3) 0.52769(4)
N1 N 0.7663(7) 0.2920(2) 0.4153(3)
N2 N 0.7649(9) 0.2538(2) 0.6602(3)
C1 C 0.678(9) 0.2817(2) 0.3069(4)
C2 C 0.472(1) 0.3168(2) 0.2782(4)
C3 C 0.856(1) 0.1962(2) 0.6710(4)
O1 O 0.4466(6) 0.1968(2) 0.4938(3)
O2 O 0.1614(6) 0.2276(2) 0.3887(3)
C4 C 0.2040(8) 0.1297(2) 0.4129(4)
C5 C 0.349(1) 0.0863(3) 0.4355(5)
C6 C 0.287(1) 0.0317(3) 0.4148(5)
C7 C 0.070(1) 0.0197(2) 0.3769(4)
C8 C -0.076(1) 0.0622(3) 0.3536(5)
C9 C -0.012(1) 0.1178(3) 0.3702(4)
C10 C 0.2690(9) 0.1893(2) 0.4328(4)
Cl1 Cl -0.0101(3) -0.04935(6) 0.3551(1)
O3 O 0.4505(6) 0.3459(1) 0.5459(3)
O4 O 0.1558(7) 0.3095(2) 0.6072(3)
C11 C 0.1845(9) 0.4081(2) 0.6029(3)
C12 C -0.021(1) 0.4173(3) 0.6403(4)
C13 C -0.088(1) 0.4722(3) 0.6608(5)
C14 C 0.046(1) 0.5164(2) 0.6455(4)
C15 C 0.249(1) 0.5086(2) 0.6063(4)
C16 C 0.3148(9) 0.4540(2) 0.5853(4)
C17 C 0.265(1) 0.3500(2) 0.5839(4)
Cl2 Cl -0.0366(3) 0.58337(7) 0.6744(1)
C3C C 0.356(1) 0.3038(2) 0.1710(4)
C2C C 0.972(1) 0.1832(2) 0.7782(4)
N2C N 0.2649(9) 0.2462(2) 0.1602(3)
C1C C 1.178(9) 0.2183(2) 0.8069(4)
Zn1C Zn 0.0684(1) 0.22925(3) 0.02769(4)
N1C N 1.2663(7) 0.2080(2) 0.9153(3)
N1C_2 N 0.2663(7) 0.2080(2) -0.0847(3)
O1C O -0.0534(6) 0.3032(2) -0.0062(3)
O3C O -0.0495(6) 0.1541(1) 0.0459(3)
Zn1C_2 Zn 1.0684(1) 0.22925(3) 1.02769(4)
C10C C -0.2310(9) 0.3107(2) -0.0672(4)
C17C C -0.235(1) 0.1500(2) 0.0839(4)
O2C O -0.3386(6) 0.2724(2) -0.1113(3)
C4C C -0.2960(8) 0.3703(2) -0.0871(4)
O4C O -0.3442(7) 0.1905(2) 0.1072(3)
C11C C -0.3155(9) 0.0919(2) 0.1029(3)
C5C C -0.151(1) 0.4137(3) -0.0645(5)
C9C C -0.512(1) 0.3822(3) -0.1298(4)
C12C C -0.521(1) 0.0827(3) 0.1403(4)
C16C C -0.1852(9) 0.0460(2) 0.0853(4)
C6C C -0.213(1) 0.4683(3) -0.0852(5)
C8C C -0.576(1) 0.4378(3) -0.1464(5)
C13C C -0.588(1) 0.0278(3) 0.1608(5)
C15C C -0.251(1) -0.0086(2) 0.1063(4)
C7C C -0.430(1) 0.4803(2) -0.1231(4)
C14C C -0.454(1) -0.0164(2) 0.1455(4)
Cl1C Cl -0.5101(3) 0.54935(6) -0.1449(1)
Cl2C Cl -0.5366(3) -0.08337(7) 0.1744(1)
loop_
_geom_bond_atom_site_label_1
_geom_bond_atom_site_label_2
_geom_bond_site_symmetry_1
_geom_bond_site_symmetry_2
Zn1 N1 1_555 1_555
N1 C1 1_555 1_555
N2 Zn1 1_555 1_555
C1 C2 1_555 1_555
C2 C3C 1_555 1_555
C3 N2 1_555 1_555
O1 Zn1 1_555 1_555
O2 C10 1_555 1_555
C4 C5 1_555 1_555
C5 C6 1_555 1_555
C6 C7 1_555 1_555
C7 C8 1_555 1_555
C8 C9 1_555 1_555
C9 C4 1_555 1_555
C10 O1 1_555 1_555
Cl1 C7 1_555 1_555
O3 Zn1 1_555 1_555
O4 C17 1_555 1_555
C11 C12 1_555 1_555
C12 C13 1_555 1_555
C13 C14 1_555 1_555
C14 C15 1_555 1_555
C15 C16 1_555 1_555
C16 C11 1_555 1_555
C17 O3 1_555 1_555
Cl2 C14 1_555 1_555
C3C N2C 1_555 1_555
C2C C3 1_555 1_555
N2C Zn1C 1_555 1_555
C1C C2C 1_555 1_555
Zn1C N1C_2 1_555 1_555
N1C C1C 1_555 1_555
O1C Zn1C 1_555 1_555
O3C Zn1C 1_555 1_555
Zn1C_2 N1C 1_555 1_555
C10C O1C 1_555 1_555
C17C O3C 1_555 1_555
O2C C10C 1_555 1_555
C4C C10C 1_555 1_555
O4C C17C 1_555 1_555
C11C C17C 1_555 1_555
C5C C4C 1_555 1_555
C9C C4C 1_555 1_555
C12C C11C 1_555 1_555
C16C C11C 1_555 1_555
C6C C5C 1_555 1_555
C8C C9C 1_555 1_555
C13C C12C 1_555 1_555
C15C C16C 1_555 1_555
C7C C6C 1_555 1_555
C14C C13C 1_555 1_555
Cl1C C7C 1_555 1_555
Cl2C C14C 1_555 1_555
C4 C10 1_555 1_555
C11 C17 1_555 1_555
C8C C7C 1_555 1_555
C15C C14C 1_555 1_555

#END
