
#######################################################################
#
#                 Cambridge Crystallographic Data Centre
#                                CCDC 
#
#######################################################################
#
# If this CIF has been generated from an entry in the Cambridge 
# Structural Database, then it will include bibliographic, chemical, 
# crystal, experimental, refinement or atomic coordinate data resulting 
# from the CCDC's data processing and validation procedures.
#
#######################################################################

data_PINKII
_symmetry_cell_setting           monoclinic
_symmetry_space_group_name_H-M   'P 21/c'
_symmetry_Int_Tables_number      14
_space_group_name_Hall           '-P 2ybc'
loop_
_symmetry_equiv_pos_site_id
_symmetry_equiv_pos_as_xyz
1 x,y,z
2 -x,1/2+y,1/2-z
3 -x,-y,-z
4 x,1/2-y,1/2+z
_cell_length_a                   16.607(4)
_cell_length_b                   18.888(4)
_cell_length_c                   37.465(7)
_cell_angle_alpha                90
_cell_angle_beta                 114.352(8)
_cell_angle_gamma                90
_cell_volume                     10706.2
loop_
_atom_site_label
_atom_site_type_symbol
_atom_site_fract_x
_atom_site_fract_y
_atom_site_fract_z
Dy1 Dy 0.07725(3) -0.20487(2) -0.401068(10)
Cu1 Cu 0.59048(8) -0.21305(8) -0.14118(3)
Cu2 Cu 0.32987(7) -0.24900(6) -0.56102(3)
Cu3 Cu -0.16567(7) -0.22868(7) -0.23609(3)
F1 F 0.2370(5) -0.3795(4) -0.4563(2)
O1 O 0.3094(4) -0.2532(4) -0.49936(16)
F2 F -0.0533(8) -0.4397(4) -0.2502(4)
F3 F -0.2740(8) -0.0335(5) -0.3112(2)
C1 C -0.2073(7) -0.3173(6) -0.3799(3)
H1 H -0.1522 -0.3283 -0.3812
H2 H -0.2541 -0.3190 -0.4058
H3 H -0.2188 -0.3511 -0.3634
F4 F 0.4901(6) -0.0435(5) -0.5360(5)
C2 C -0.1096(8) -0.4472(6) -0.2334(3)
C3 C -0.2146(12) -0.0179(8) -0.2777(4)
F5 F 0.2492(8) -0.4157(5) -0.4004(3)
F6 F 0.1634(8) -0.4663(5) -0.4525(4)
C4 C 0.1770(7) -0.3497(6) -0.3278(3)
H4 H 0.2047 -0.3883 -0.3121
C5 C 0.1920(11) -0.4048(7) -0.4379(4)
C6 C 0.0324(11) -0.3728(6) -0.4611(4)
H5 H 0.0204 -0.4173 -0.4728
C7 C 0.4169(12) -0.0371(8) -0.5585(6)
C8 C 0.5345(10) -0.0985(10) -0.1939(4)
O2 O 0.5674(4) -0.3035(4) -0.16895(18)
O3 O -0.1189(4) -0.3272(3) -0.22365(16)
C9 C -0.1643(6) -0.3797(5) -0.2384(2)
O4 O 0.2128(4) -0.2058(3) -0.58784(15)
O5 O -0.0126(4) -0.1661(3) -0.37081(14)
O6 O -0.0455(4) -0.1929(3) -0.20808(16)
O7 O -0.1378(4) -0.2723(4) -0.29382(15)
F7 F -0.1580(6) -0.5045(4) -0.2495(2)
O8 O 0.4450(4) -0.2876(3) -0.52922(15)
O9 O 0.2728(4) -0.3409(3) -0.56770(16)
F8 F -0.0624(5) -0.4637(4) -0.1971(2)
O10 O 0.1610(3) -0.1520(3) -0.43138(14)
O11 O 0.1468(5) -0.2979(3) -0.42018(18)
N1 N 0.2220(4) -0.1728(4) -0.44231(17)
F9 F -0.4372(6) -0.3957(7) -0.2938(3)
F10 F -0.1690(4) -0.0344(4) -0.47207(17)
O12 O 0.0390(4) -0.3058(3) -0.37371(16)
N2 N -0.0693(4) -0.1953(4) -0.35906(16)
O13 O 0.1324(4) -0.0936(3) -0.37047(14)
O14 O 0.6334(4) -0.2617(4) -0.09019(17)
C10 C 0.0463(6) -0.1966(5) -0.5108(2)
H6 H 0.0460 -0.1642 -0.4922
F11 F 0.2244(4) 0.0027(4) -0.31941(17)
C11 C 0.1051(5) -0.1826(5) -0.2878(2)
H7 H 0.0966 -0.1488 -0.3070
O15 O -0.0139(3) -0.1181(3) -0.44295(14)
C12 C 0.5699(7) -0.3617(7) -0.1532(3)
F12 F -0.1052(4) -0.0469(4) -0.51013(16)
N3 N 0.2930(5) -0.2201(5) -0.47390(18)
C13 C -0.0313(6) -0.2112(5) -0.5428(2)
H8 H -0.0830 -0.1874 -0.5463
O16 O 0.2020(4) -0.2350(3) -0.34567(15)
C14 C 0.0525(6) -0.2822(5) -0.2626(2)
H9 H 0.0082 -0.3145 -0.2651
C15 C 0.2110(6) -0.2090(5) -0.4747(2)
O17 O -0.0342(4) -0.2661(4) -0.45199(16)
N4 N 0.3439(4) -0.2418(4) -0.11929(17)
N5 N -0.1283(5) -0.2450(4) -0.32316(17)
C16 C 0.1858(6) -0.1871(5) -0.2555(2)
H10 H 0.2308 -0.1557 -0.2532
O18 O 0.5490(5) -0.1621(5) -0.19074(19)
O19 O -0.2082(5) -0.1382(4) -0.26084(18)
F13 F 0.0733(4) -0.1597(4) -0.65475(18)
C17 C 0.1262(6) -0.2300(5) -0.5059(2)
C18 C -0.0488(6) -0.2237(5) -0.3235(2)
C19 C -0.2551(7) -0.2871(6) -0.6734(3)
H11 H -0.3051 -0.2923 -0.6968
F14 F 0.6278(6) -0.3103(4) -0.02315(18)
F15 F 0.1462(4) 0.0867(3) -0.3557(2)
F16 F 0.0865(4) -0.0557(3) -0.62836(19)
C20 C 0.6300(6) -0.3250(7) -0.0853(3)
C21 C 0.2275(6) -0.2915(6) -0.3265(2)
O20 O -0.2853(5) -0.2613(5) -0.26068(18)
C22 C 0.4562(6) -0.3475(6) -0.5133(2)
C23 C -0.0232(6) -0.1293(5) -0.2082(3)
C24 C 0.0458(6) -0.2976(6) -0.5642(2)
H12 H 0.0453 -0.3321 -0.5820
C25 C 0.1325(5) -0.2863(5) -0.2312(2)
H13 H 0.1421 -0.3217 -0.2126
C26 C 0.3664(6) -0.1958(6) -0.4362(2)
F17 F 0.6563(5) -0.4144(4) -0.03624(18)
C27 C 0.1239(6) -0.2831(5) -0.5325(2)
H14 H 0.1748 -0.3084 -0.5287
F18 F 0.2429(4) 0.0349(4) -0.3705(2)
O21 O 0.5963(5) -0.1262(4) -0.11138(18)
C28 C 0.4223(6) -0.2300(5) -0.1198(2)
H15 H 0.4707 -0.2270 -0.0957
C29 C 0.2004(6) -0.2379(5) -0.2265(2)
O22 O 0.3887(5) -0.1552(4) -0.5510(2)
C30 C 0.1149(5) -0.0317(5) -0.3820(2)
F19 F 0.0950(6) -0.1522(7) -0.1478(2)
F20 F 0.3699(5) -0.3125(6) -0.3211(2)
C31 C 0.0442(6) -0.0062(5) -0.4150(2)
H16 H 0.0363 0.0424 -0.4189
C32 C -0.0318(6) -0.2625(5) -0.5704(2)
N6 N 0.4376(5) -0.2222(5) -0.15173(19)
F21 F 0.0508(4) -0.1454(4) -0.6036(2)
C33 C 0.0865(7) -0.3546(5) -0.3513(3)
C34 C 0.3151(5) -0.1444(6) -0.4213(2)
C35 C 0.3095(6) -0.3950(5) -0.5471(3)
C36 C 0.0369(6) -0.2289(5) -0.2913(2)
N7 N -0.1804(5) -0.2816(5) -0.6765(2)
C37 C 0.3416(6) -0.1450(6) -0.3773(2)
H17 H 0.3108 -0.1081 -0.3705
H18 H 0.4042 -0.1374 -0.3639
H19 H 0.3268 -0.1900 -0.3697
C38 C 0.3656(6) -0.2266(5) -0.1865(2)
H20 H 0.3736 -0.2222 -0.2095
F22 F -0.0246(5) -0.4375(4) -0.38381(19)
C39 C -0.3071(7) -0.3233(8) -0.2677(3)
F23 F 0.2419(5) -0.4913(4) -0.5868(3)
F24 F 0.1677(4) -0.4415(4) -0.5605(2)
C40 C 0.1825(7) 0.0242(6) -0.3562(3)
F25 F 0.3568(4) -0.2319(5) -0.2853(2)
C41 C 0.2751(6) -0.2451(5) -0.1533(2)
H21 H 0.2195 -0.2531 -0.1537
F26 F 0.5657(4) -0.4217(4) -0.4660(2)
F27 F 0.2769(5) -0.5059(4) -0.5261(3)
C42 C -0.0141(5) -0.0519(5) -0.4418(2)
F28 F 0.7520(5) -0.3322(5) -0.02514(19)
C43 C 0.3271(7) -0.2958(8) -0.3001(3)
C44 C 0.1190(9) -0.3532(6) -0.4393(3)
C45 C 0.1995(6) -0.1414(5) -0.5964(2)
C46 C -0.0942(6) -0.0210(5) -0.4755(3)
C47 C 0.1024(7) -0.1254(6) -0.6208(3)
F29 F 0.1282(5) -0.1245(6) -0.1925(3)
C48 C 0.2604(7) -0.0874(6) -0.5873(4)
H22 H 0.2404 -0.0419 -0.5958
F30 F 0.3458(5) -0.3348(6) -0.2699(2)
C49 C 0.2827(5) -0.2372(5) -0.1890(2)
F31 F 0.6079(4) -0.3544(5) -0.5001(3)
F32 F 0.0876(6) -0.4757(4) -0.3350(3)
C50 C -0.2026(6) -0.2432(5) -0.3629(2)
C51 C -0.1666(6) -0.1871(6) -0.3828(2)
F33 F 0.0816(6) -0.0493(5) -0.1666(4)
C52 C 0.0693(7) -0.1123(6) -0.1796(3)
C53 C -0.2869(6) -0.2248(6) -0.3596(3)
H23 H -0.3323 -0.2157 -0.3852
H24 H -0.2780 -0.1834 -0.3435
H25 H -0.3045 -0.2636 -0.3478
C54 C -0.1083(6) -0.2744(5) -0.6431(2)
H26 H -0.0536 -0.2704 -0.6442
C55 C -0.1617(9) -0.0830(6) -0.2551(3)
F34 F -0.0078(6) -0.4072(4) -0.3269(2)
C56 C -0.1118(6) -0.2724(6) -0.6062(2)
C57 C -0.1882(6) -0.2012(7) -0.4259(2)
H27 H -0.1736 -0.1602 -0.4372
H28 H -0.2502 -0.2113 -0.4396
H29 H -0.1546 -0.2410 -0.4281
C58 C 0.3960(6) -0.4020(6) -0.5196(3)
H30 H 0.4137 -0.4436 -0.5052
C59 C -0.4093(9) -0.3292(10) -0.2877(3)
C60 C 0.4393(6) -0.1647(7) -0.4444(3)
H31 H 0.4656 -0.2009 -0.4542
H32 H 0.4832 -0.1452 -0.4207
H33 H 0.4162 -0.1279 -0.4637
C61 C -0.1965(6) -0.2780(6) -0.6071(2)
H34 H -0.2027 -0.2760 -0.5835
C62 C -0.1878(7) -0.1095(6) -0.3754(4)
H35 H -0.1867 -0.1059 -0.3497
H36 H -0.2454 -0.0967 -0.3946
H37 H -0.1444 -0.0782 -0.3775
F35 F 0.5496(7) -0.4858(4) -0.1675(2)
C63 C 0.0338(8) -0.4201(6) -0.3497(3)
C64 C 0.2473(7) -0.4593(6) -0.5553(4)
C65 C 0.5379(11) -0.4223(9) -0.1827(4)
F36 F -0.4400(6) -0.2978(8) -0.3209(2)
C66 C 0.3126(7) -0.0681(6) -0.4363(3)
H38 H 0.2977 -0.0689 -0.4639
H39 H 0.3696 -0.0465 -0.4228
H40 H 0.2690 -0.0413 -0.4314
N8 N -0.2688(5) -0.2861(5) -0.6403(2)
C67 C 0.5673(9) -0.0672(7) -0.1266(4)
C68 C 0.3961(8) -0.2630(7) -0.4116(3)
H41 H 0.3470 -0.2832 -0.4079
H42 H 0.4423 -0.2516 -0.3865
H43 H 0.4178 -0.2965 -0.4248
F37 F 0.5762(5) -0.3099(5) -0.4562(2)
C69 C -0.0725(8) -0.0741(6) -0.2312(3)
H44 H -0.0456 -0.0307 -0.2306
C70 C 0.3521(8) -0.0982(7) -0.5655(4)
C71 C -0.2572(7) -0.3849(7) -0.2599(3)
H45 H -0.2841 -0.4286 -0.2685
C72 C 0.5383(11) -0.0497(8) -0.1646(4)
H46 H 0.5198 -0.0034 -0.1720
C73 C 0.5960(7) -0.3774(7) -0.1137(3)
H47 H 0.5906 -0.4235 -0.1062
C74 C 0.6647(8) -0.3468(7) -0.0422(3)
F38 F -0.4478(5) -0.3032(7) -0.2654(3)
C75 C 0.5526(7) -0.3595(6) -0.4837(3)
F39 F 0.4557(7) -0.4152(5) -0.2060(3)
F40 F -0.0916(5) 0.0485(4) -0.4786(3)
C76 C -0.0393(8) -0.3261(6) -0.4662(3)
F41 F 0.5883(9) -0.4217(6) -0.2047(3)
F42 F 0.5035(9) -0.0337(6) -0.0842(4)
F43 F 0.6380(9) -0.0107(6) -0.0659(3)
F44 F 0.5481(11) 0.0513(5) -0.1105(3)
C77 C 0.5637(17) -0.0138(9) -0.0974(5)
F45 F -0.1833(6) -0.3011(5) -0.5130(2)
F46 F -0.1743(7) -0.3671(7) -0.4688(3)
C78 C -0.1338(11) -0.3511(8) -0.4911(4)
F47 F -0.1388(9) -0.4018(8) -0.5128(5)
F48 F 0.5177(14) -0.1086(10) -0.2591(4)
F49 F 0.5334(14) -0.0146(11) -0.2382(4)
F50 F 0.4137(11) -0.0691(16) -0.2524(4)
C79 C 0.488(3) -0.0744(13) -0.2378(7)
F51 F -0.1635(9) 0.0293(7) -0.2843(6)
F52 F 0.3786(7) 0.0224(5) -0.5518(4)
F53 F -0.2531(10) 0.0113(8) -0.2579(3)
F54 F 0.4233(14) -0.0211(11) -0.5921(6)
Cu1C Cu -0.40952(8) -0.28695(8) -0.64118(3)
Cu2C Cu 0.32987(7) -0.25100(6) -0.06102(3)
Cu3C Cu -0.16567(7) -0.27132(7) -0.73609(3)
N4C N 0.3439(4) -0.2582(4) -0.61929(17)
N7C N -0.1804(5) -0.2184(5) -0.1765(2)
N8C N 0.7312(5) -0.2139(5) -0.1403(2)
loop_
_geom_bond_atom_site_label_1
_geom_bond_atom_site_label_2
_geom_bond_site_symmetry_1
_geom_bond_site_symmetry_2
Dy1 O5 1_555 1_555
Cu1 O2 1_555 1_555
Cu2 O1 1_555 1_555
Cu3 O3 1_555 1_555
F1 C5 1_555 1_555
O1 N3 1_555 1_555
F2 C2 1_555 1_555
F3 C3 1_555 1_555
C1 H1 1_555 1_555
H2 C1 1_555 1_555
H3 C1 1_555 1_555
F4 C7 1_555 1_555
C2 C9 1_555 1_555
C3 C55 1_555 1_555
F5 C5 1_555 1_555
F6 C5 1_555 1_555
C4 H4 1_555 1_555
C5 C44 1_555 1_555
C6 H5 1_555 1_555
C7 C70 1_555 1_555
C8 O18 1_555 1_555
O2 C12 1_555 1_555
O3 C9 1_555 1_555
C9 C71 1_555 1_555
O4 Cu2 1_555 1_555
O5 N2 1_555 1_555
O6 Cu3 1_555 1_555
O7 Cu3 1_555 1_555
F7 C2 1_555 1_555
O8 Cu2 1_555 1_555
O9 Cu2 1_555 1_555
F8 C2 1_555 1_555
O10 Dy1 1_555 1_555
O11 Dy1 1_555 1_555
N1 O10 1_555 1_555
F9 C59 1_555 1_555
F10 C46 1_555 1_555
O12 Dy1 1_555 1_555
N2 C18 1_555 1_555
O13 Dy1 1_555 1_555
O14 Cu1 1_555 1_555
C10 H6 1_555 1_555
F11 C40 1_555 1_555
C11 H7 1_555 1_555
O15 Dy1 1_555 1_555
C12 C65 1_555 1_555
F12 C46 1_555 1_555
N3 C15 1_555 1_555
C13 C10 1_555 1_555
H8 C13 1_555 1_555
O16 Dy1 1_555 1_555
C14 H9 1_555 1_555
C15 N1 1_555 1_555
O17 Dy1 1_555 1_555
N4 C28 1_555 1_555
N5 O7 1_555 1_555
C16 C11 1_555 1_555
H10 C16 1_555 1_555
O18 Cu1 1_555 1_555
O19 Cu3 1_555 1_555
F13 C47 1_555 1_555
C17 C10 1_555 1_555
C18 N5 1_555 1_555
C19 H11 1_555 1_555
F14 C74 1_555 1_555
F15 C40 1_555 1_555
F16 C47 1_555 1_555
C20 O14 1_555 1_555
C21 C4 1_555 1_555
O20 Cu3 1_555 1_555
C22 O8 1_555 1_555
C23 O6 1_555 1_555
C24 H12 1_555 1_555
C25 C14 1_555 1_555
H13 C25 1_555 1_555
C26 N3 1_555 1_555
F17 C74 1_555 1_555
C27 C17 1_555 1_555
H14 C27 1_555 1_555
F18 C40 1_555 1_555
O21 Cu1 1_555 1_555
C28 H15 1_555 1_555
C29 C16 1_555 1_555
O22 Cu2 1_555 1_555
C30 O13 1_555 1_555
F19 C52 1_555 1_555
F20 C43 1_555 1_555
C31 C30 1_555 1_555
H16 C31 1_555 1_555
C32 C13 1_555 1_555
N6 Cu1 1_555 1_555
F21 C47 1_555 1_555
C33 C4 1_555 1_555
C34 N1 1_555 1_555
C35 O9 1_555 1_555
C36 C11 1_555 1_555
N7 C19 1_555 1_555
C37 C34 1_555 1_555
H17 C37 1_555 1_555
H18 C37 1_555 1_555
H19 C37 1_555 1_555
C38 N6 1_555 1_555
H20 C38 1_555 1_555
F22 C63 1_555 1_555
C39 O20 1_555 1_555
F23 C64 1_555 1_555
F24 C64 1_555 1_555
C40 C30 1_555 1_555
F25 C43 1_555 1_555
C41 N4 1_555 1_555
H21 C41 1_555 1_555
F26 C75 1_555 1_555
F27 C64 1_555 1_555
C42 O15 1_555 1_555
F28 C74 1_555 1_555
C43 C21 1_555 1_555
C44 C6 1_555 1_555
C45 O4 1_555 1_555
C46 C42 1_555 1_555
C47 C45 1_555 1_555
F29 C52 1_555 1_555
C48 C45 1_555 1_555
H22 C48 1_555 1_555
F30 C43 1_555 1_555
C49 C29 1_555 1_555
F31 C75 1_555 1_555
F32 C63 1_555 1_555
C50 C1 1_555 1_555
C51 N2 1_555 1_555
F33 C52 1_555 1_555
C52 C23 1_555 1_555
C53 C50 1_555 1_555
H23 C53 1_555 1_555
H24 C53 1_555 1_555
H25 C53 1_555 1_555
C54 N7 1_555 1_555
H26 C54 1_555 1_555
C55 O19 1_555 1_555
F34 C63 1_555 1_555
C56 C32 1_555 1_555
C57 C51 1_555 1_555
H27 C57 1_555 1_555
H28 C57 1_555 1_555
H29 C57 1_555 1_555
C58 C22 1_555 1_555
H30 C58 1_555 1_555
C59 C39 1_555 1_555
C60 C26 1_555 1_555
H31 C60 1_555 1_555
H32 C60 1_555 1_555
H33 C60 1_555 1_555
C61 C56 1_555 1_555
H34 C61 1_555 1_555
C62 C51 1_555 1_555
H35 C62 1_555 1_555
H36 C62 1_555 1_555
H37 C62 1_555 1_555
F35 C65 1_555 1_555
C63 C33 1_555 1_555
C64 C35 1_555 1_555
C65 F39 1_555 1_555
F36 C59 1_555 1_555
C66 C34 1_555 1_555
H38 C66 1_555 1_555
H39 C66 1_555 1_555
H40 C66 1_555 1_555
N8 C19 1_555 1_555
C67 O21 1_555 1_555
C68 C26 1_555 1_555
H41 C68 1_555 1_555
H42 C68 1_555 1_555
H43 C68 1_555 1_555
F37 C75 1_555 1_555
C69 C23 1_555 1_555
H44 C69 1_555 1_555
C70 O22 1_555 1_555
C71 C39 1_555 1_555
H45 C71 1_555 1_555
C72 C8 1_555 1_555
H46 C72 1_555 1_555
C73 C12 1_555 1_555
H47 C73 1_555 1_555
C74 C20 1_555 1_555
F38 C59 1_555 1_555
C75 C22 1_555 1_555
F40 C46 1_555 1_555
C76 C6 1_555 1_555
F41 C65 1_555 1_555
F42 C77 1_555 1_555
F43 C77 1_555 1_555
F44 C77 1_555 1_555
C77 C67 1_555 1_555
F45 C78 1_555 1_555
F46 C78 1_555 1_555
C78 C76 1_555 1_555
F47 C78 1_555 1_555
F48 C79 1_555 1_555
F49 C79 1_555 1_555
F50 C79 1_555 1_555
C79 C8 1_555 1_555
F51 C3 1_555 1_555
F52 C7 1_555 1_555
F53 C3 1_555 1_555
F54 C7 1_555 1_555
Cu1C N8 1_555 1_555
Cu2C N4 1_555 1_555
Cu3C N7 1_555 1_555
N4C Cu2 1_555 1_555
N7C Cu3 1_555 1_555
N8C Cu1 1_555 1_555
O11 C44 1_555 1_555
O12 C33 1_555 1_555
O16 C21 1_555 1_555
C14 C36 1_555 1_555
C15 C17 1_555 1_555
O17 C76 1_555 1_555
N5 C50 1_555 1_555
C18 C36 1_555 1_555
C20 C73 1_555 1_555
C24 C27 1_555 1_555
C24 C32 1_555 1_555
C25 C29 1_555 1_555
C26 C34 1_555 1_555
C28 N6 1_555 1_555
C31 C42 1_555 1_555
C35 C58 1_555 1_555
C38 C49 1_555 1_555
C41 C49 1_555 1_555
C48 C70 1_555 1_555
C50 C51 1_555 1_555
C54 C56 1_555 1_555
C55 C69 1_555 1_555
C61 N8 1_555 1_555
C67 C72 1_555 1_555

#END
