
#######################################################################
#
#                 Cambridge Crystallographic Data Centre
#                                CCDC 
#
#######################################################################
#
# If this CIF has been generated from an entry in the Cambridge 
# Structural Database, then it will include bibliographic, chemical, 
# crystal, experimental, refinement or atomic coordinate data resulting 
# from the CCDC's data processing and validation procedures.
#
#######################################################################

data_PINKEE
_symmetry_cell_setting           monoclinic
_symmetry_space_group_name_H-M   'P 21/c'
_symmetry_Int_Tables_number      14
_space_group_name_Hall           '-P 2ybc'
loop_
_symmetry_equiv_pos_site_id
_symmetry_equiv_pos_as_xyz
1 x,y,z
2 -x,1/2+y,1/2-z
3 -x,-y,-z
4 x,1/2-y,1/2+z
_cell_length_a                   16.518(7)
_cell_length_b                   18.591(7)
_cell_length_c                   37.278(12)
_cell_angle_alpha                90
_cell_angle_beta                 114.121(14)
_cell_angle_gamma                90
_cell_volume                     10448
loop_
_atom_site_label
_atom_site_type_symbol
_atom_site_fract_x
_atom_site_fract_y
_atom_site_fract_z
Gd1 Gd 0.08193(2) -0.203601(18) 0.099532(9)
Cu1 Cu 0.59694(6) -0.29757(5) -0.13986(3)
Cu2 Cu 0.33663(6) -0.24861(4) -0.06067(2)
Cu3 Cu -0.16069(6) -0.27853(5) -0.23441(3)
F1 F 0.0592(3) -0.1460(3) -0.10279(18)
F2 F 0.0798(4) -0.1574(3) -0.15474(16)
F3 F 0.0923(3) -0.0550(2) -0.12737(17)
F4 F 0.3876(4) 0.0253(3) -0.0572(3)
F5 F 0.4338(9) -0.0270(7) -0.0943(4)
F6 F 0.4954(4) -0.0425(3) -0.0357(3)
F7 F 0.5808(4) -0.3061(3) 0.04461(18)
F8 F 0.6132(3) -0.3566(3) 0.0017(2)
F9 F 0.5694(3) -0.4198(3) 0.03776(17)
F10 F 0.2487(4) -0.4939(3) -0.08427(18)
F11 F 0.2815(3) -0.5057(3) -0.02345(18)
F12 F 0.1727(3) -0.4407(3) -0.05876(18)
F13 F 0.2493(4) -0.3785(3) 0.04531(16)
F14 F 0.2719(4) -0.4071(3) 0.10355(17)
F15 F 0.1853(5) -0.4695(3) 0.0564(3)
F16 F -0.1690(5) -0.3166(4) -0.0108(2)
F17 F -0.1581(7) -0.3773(6) 0.0345(3)
F18 F -0.1189(7) -0.4184(6) -0.0054(4)
F19 F -0.1111(4) -0.0492(4) -0.01080(16)
F20 F -0.1719(3) -0.0388(3) 0.02822(15)
F21 F -0.1003(4) 0.0482(3) 0.0196(2)
F22 F 0.1398(4) 0.0941(3) 0.14053(17)
F23 F 0.2210(4) 0.0122(3) 0.17757(15)
F24 F 0.2373(4) 0.0428(3) 0.12651(19)
F25 F 0.3614(4) -0.2256(5) 0.21670(19)
F26 F 0.3535(5) -0.3303(6) 0.2310(2)
F27 F 0.3763(4) -0.3040(5) 0.1801(2)
F28 F -0.0160(5) -0.4393(3) 0.11826(18)
F29 F 0.0972(4) -0.4789(3) 0.1659(2)
F30 F 0.0025(4) -0.4103(3) 0.17569(17)
F31 F -0.0627(4) -0.0407(3) -0.1961(2)
F32 F -0.0615(6) -0.0628(3) -0.2518(3)
F33 F -0.1646(4) 0.0006(3) -0.24730(18)
F34 F -0.4385(4) -0.2134(5) -0.31872(18)
F35 F -0.4385(4) -0.1146(4) -0.2917(2)
F36 F -0.4446(4) -0.2093(4) -0.26333(19)
F37 F 0.1085(5) -0.3421(5) -0.1493(2)
F38 F 0.1357(4) -0.3878(6) -0.1918(2)
F39 F 0.0837(5) -0.4478(5) -0.1600(3)
F40 F -0.2616(5) -0.4720(3) -0.31281(19)
F41 F -0.1500(6) -0.5317(5) -0.2881(4)
F42 F -0.2388(8) -0.5219(5) -0.2603(2)
F43 F 0.5897(7) -0.0863(4) -0.2039(2)
F44 F 0.5565(5) -0.0221(3) -0.16494(19)
F45 F 0.4621(6) -0.0933(4) -0.2031(2)
F46 F 0.7558(4) -0.1788(3) -0.02338(16)
F47 F 0.6313(5) -0.1996(3) -0.02224(15)
F48 F 0.6631(4) -0.0950(3) -0.03482(14)
F49 F 0.6179(6) -0.5011(4) -0.0666(2)
F50 F 0.4826(6) -0.4693(4) -0.0889(3)
F51 F 0.5265(8) -0.5590(4) -0.1136(2)
F52 F 0.5393(10) -0.4945(8) -0.2388(3)
F53 F 0.4165(9) -0.4438(12) -0.2514(3)
F54 F 0.5189(13) -0.3950(8) -0.2584(3)
O1 O 0.2200(3) -0.2059(2) -0.08715(14)
O2 O 0.3945(3) -0.1547(3) -0.05254(15)
O3 O 0.4509(3) -0.2876(3) -0.02812(13)
O4 O 0.2794(3) -0.3416(2) -0.06605(13)
O5 O 0.3143(3) -0.2486(3) 0.00035(14)
O6 O 0.1639(3) -0.1485(3) 0.06813(13)
O7 O 0.1576(3) -0.2968(3) 0.08184(15)
O8 O -0.0256(3) -0.2711(3) 0.04871(15)
O9 O 0.2075(3) -0.2319(3) 0.15643(14)
O10 O 0.0472(3) -0.3065(3) 0.12818(14)
O11 O -0.0138(3) -0.1181(2) 0.05660(13)
O12 O 0.1322(3) -0.0883(3) 0.12853(13)
O13 O -0.0105(3) -0.3336(3) -0.37015(13)
O14 O -0.1332(4) -0.2304(3) -0.29186(14)
O15 O -0.0391(3) -0.3120(3) -0.20662(15)
O16 O -0.1990(4) -0.3685(3) -0.26083(16)
O17 O -0.1183(3) -0.1779(3) -0.22188(14)
O18 O -0.2813(4) -0.2479(3) -0.25836(15)
O19 O 0.5571(4) -0.3476(3) -0.18963(15)
O20 O 0.5958(3) -0.3847(3) -0.11099(15)
O21 O 0.5745(4) -0.2055(3) -0.16760(15)
O22 O 0.6398(4) -0.2502(3) -0.08896(14)
N1 N 0.2968(4) -0.2147(3) 0.02566(16)
N2 N 0.2256(4) -0.1681(3) 0.05761(15)
N3 N -0.0655(4) -0.3046(3) -0.35811(16)
N4 N -0.1239(4) -0.2553(3) -0.32162(16)
N5 N 0.3498(4) -0.2613(3) -0.11845(15)
N6 N 0.4403(4) -0.2867(4) -0.15186(17)
N7 N -0.2621(4) -0.2962(4) -0.13810(18)
N8 N -0.1733(4) -0.2904(3) -0.17477(17)
C1 C -0.1658(5) -0.1257(4) -0.2365(2)
C2 C 0.2152(5) -0.2058(4) 0.02538(19)
C3 C 0.0527(5) -0.2989(4) -0.0629(2)
H1 H 0.0528 -0.3348 -0.0803
C4 C 0.1081(5) -0.3223(4) -0.2867(2)
H2 H 0.0985 -0.3567 -0.3061
C5 C 0.2048(5) -0.1408(4) -0.0967(2)
C6 C -0.0260(5) -0.2126(4) -0.0420(2)
H3 H -0.0786 -0.1898 -0.0451
C7 C 0.0395(5) -0.0030(4) 0.0830(2)
H4 H 0.0298 0.0461 0.0784
C8 C 0.1298(5) -0.2818(4) -0.0319(2)
H5 H 0.1818 -0.3060 -0.0283
C9 C -0.0463(4) -0.2779(4) -0.32266(18)
C10 C 0.0524(5) -0.1957(4) -0.0104(2)
H6 H 0.0519 -0.1618 0.0079
C11 C 0.3143(5) -0.3946(4) -0.0453(2)
C12 C 0.4621(5) -0.3475(4) -0.0116(2)
C13 C 0.1890(5) -0.3189(4) -0.2546(2)
H7 H 0.2336 -0.3512 -0.2524
C14 C 0.1766(6) 0.0314(5) 0.1405(3)
C15 C -0.1021(5) -0.2804(4) -0.1413(2)
H8 H -0.0472 -0.2752 -0.1424
C16 C -0.2500(5) -0.2982(5) -0.1714(2)
H9 H -0.3002 -0.3058 -0.1945
C17 C 0.3703(5) -0.1903(4) 0.0635(2)
C18 C 0.1123(5) -0.0260(4) 0.1165(2)
C19 C 0.6026(6) -0.1319(5) -0.1119(2)
H10 H 0.5979 -0.0850 -0.1042
C20 C 0.0560(5) -0.2209(4) -0.2616(2)
H11 H 0.0118 -0.1878 -0.2641
C21 C 0.3703(5) -0.2817(4) -0.1857(2)
H12 H 0.3787 -0.2872 -0.2088
C22 C 0.1311(4) -0.2284(4) -0.00556(18)
C23 C 0.1380(5) -0.2177(4) -0.2297(2)
H13 H 0.1488 -0.1819 -0.2108
C24 C 0.5570(5) -0.3576(5) 0.0183(3)
C25 C 0.4272(5) -0.2767(4) -0.1197(2)
H14 H 0.4763 -0.2808 -0.0958
C26 C 0.4026(5) -0.2571(5) 0.0884(2)
H15 H 0.4182 -0.2931 0.0739
H16 H 0.3564 -0.2752 0.0953
H17 H 0.4537 -0.2455 0.1119
C27 C 0.0410(5) -0.2740(4) -0.28977(19)
C28 C 0.1084(6) -0.1237(4) -0.1206(3)
C29 C -0.1891(5) -0.2850(4) -0.1051(2)
H18 H -0.1947 -0.2823 -0.0813
C30 C -0.0258(5) -0.2639(4) -0.06910(19)
C31 C 0.3446(5) -0.1393(5) 0.1223(2)
H19 H 0.3343 -0.1863 0.1303
H20 H 0.3102 -0.1045 0.1291
H21 H 0.4064 -0.1276 0.1355
C32 C -0.1065(5) -0.2774(4) -0.1051(2)
C33 C 0.2536(5) -0.4597(4) -0.0529(3)
C34 C 0.6345(5) -0.1845(4) -0.0840(2)
C35 C -0.1974(5) -0.2537(4) -0.3616(2)
C36 C -0.1522(6) -0.4226(4) -0.2558(2)
C37 C 0.0957(6) -0.3537(4) 0.1508(2)
C38 C -0.0182(5) -0.0507(4) 0.0567(2)
C39 C 0.2682(6) -0.0866(4) -0.0886(3)
H22 H 0.2491 -0.0405 -0.0979
C40 C 0.2334(6) -0.2884(5) 0.1750(2)
C41 C 0.4016(5) -0.4017(4) -0.0169(2)
H23 H 0.4185 -0.4431 -0.0016
C42 C -0.2021(8) -0.4886(5) -0.2787(3)
C43 C -0.0148(5) -0.3750(4) -0.2069(2)
C44 C 0.3175(5) -0.1386(4) 0.0783(2)
C45 C 0.2038(5) -0.2676(4) -0.22570(19)
C46 C -0.3071(6) -0.1843(5) -0.2654(2)
C47 C -0.1126(7) -0.0565(5) -0.2328(3)
C48 C 0.1336(6) -0.3548(4) 0.0649(2)
C49 C 0.4424(5) -0.1563(5) 0.0546(2)
H24 H 0.4183 -0.1167 0.0369
H25 H 0.4665 -0.1913 0.0427
H26 H 0.4884 -0.1392 0.0786
C50 C -0.1002(6) -0.0215(4) 0.0231(2)
C51 C 0.3140(5) -0.0625(4) 0.0635(2)
H27 H 0.2689 -0.0361 0.0679
H28 H 0.3003 -0.0634 0.0359
H29 H 0.3704 -0.0397 0.0773
C52 C 0.6714(6) -0.1636(5) -0.0406(2)
C53 C 0.0430(6) -0.4227(5) 0.1519(3)
C54 C 0.0763(5) -0.3921(4) -0.1781(2)
C55 C -0.2574(6) -0.1229(5) -0.2573(2)
H30 H -0.2851 -0.0788 -0.2658
C56 C 0.2102(7) -0.4046(5) 0.0673(3)
C57 C -0.1170(8) -0.3628(6) 0.0130(3)
C58 C 0.2853(5) -0.2689(4) -0.1887(2)
C59 C 0.3578(5) -0.0978(4) -0.0675(3)
C60 C -0.0240(6) -0.3344(5) 0.0366(2)
C61 C 0.1843(6) -0.3497(5) 0.1736(3)
H31 H 0.2128 -0.3893 0.1888
C62 C 0.5598(6) -0.4407(5) -0.1274(3)
C63 C -0.4078(6) -0.1804(6) -0.2859(3)
C64 C 0.5435(10) -0.4938(6) -0.0993(4)
C65 C 0.5456(9) -0.0857(6) -0.1804(3)
C66 C 0.5289(10) -0.4584(6) -0.1664(3)
H32 H 0.5047 -0.5038 -0.1745
C67 C 0.5325(8) -0.4104(6) -0.1942(3)
C68 C 0.3337(7) -0.2917(6) 0.2011(3)
C69 C -0.1639(5) -0.3090(4) -0.3829(2)
C70 C -0.1839(5) -0.2914(5) -0.4250(2)
H33 H -0.1574 -0.2461 -0.4262
H34 H -0.2469 -0.2885 -0.4397
H35 H -0.1601 -0.3283 -0.4359
C71 C 0.2799(5) -0.2579(4) -0.15299(19)
H36 H 0.2247 -0.2476 -0.1531
C72 C -0.2006(6) -0.1773(5) -0.3762(2)
H37 H -0.2091 -0.1447 -0.3580
H38 H -0.2489 -0.1726 -0.4015
H39 H -0.1459 -0.1663 -0.3782
C73 C 0.0473(6) -0.3774(4) 0.0431(3)
H40 H 0.0378 -0.4236 0.0326
C74 C -0.2848(5) -0.2731(5) -0.3591(2)
H41 H -0.2780 -0.3174 -0.3450
H42 H -0.3304 -0.2784 -0.3851
H43 H -0.3011 -0.2355 -0.3456
C75 C -0.0625(6) -0.4304(4) -0.2312(3)
H44 H -0.0342 -0.4737 -0.2310
C76 C -0.1877(6) -0.3856(5) -0.3781(3)
H45 H -0.1514 -0.4179 -0.3852
H46 H -0.2490 -0.3940 -0.3947
H47 H -0.1779 -0.3938 -0.3512
C77 C 0.4204(7) -0.0351(6) -0.0627(4)
C78 C 0.5767(6) -0.1473(5) -0.1520(2)
C79 C 0.4950(15) -0.4343(8) -0.2374(5)
Gd1C Gd 0.08193(2) -0.296399(18) -0.400468(9)
Cu1_2 Cu -0.40306(6) -0.29757(5) -0.13986(3)
O13C O -0.0105(3) -0.1664(3) 0.12985(13)
N7_2 N 0.7379(4) -0.2962(4) -0.13810(18)
loop_
_geom_bond_atom_site_label_1
_geom_bond_atom_site_label_2
_geom_bond_site_symmetry_1
_geom_bond_site_symmetry_2
Gd1 O6 1_555 1_555
Cu1 O19 1_555 1_555
Cu2 O1 1_555 1_555
Cu3 O14 1_555 1_555
F1 C28 1_555 1_555
F2 C28 1_555 1_555
F3 C28 1_555 1_555
F4 C77 1_555 1_555
F5 C77 1_555 1_555
F6 C77 1_555 1_555
F7 C24 1_555 1_555
F8 C24 1_555 1_555
F9 C24 1_555 1_555
F10 C33 1_555 1_555
F11 C33 1_555 1_555
F12 C33 1_555 1_555
F13 C56 1_555 1_555
F14 C56 1_555 1_555
F15 C56 1_555 1_555
F16 C57 1_555 1_555
F17 C57 1_555 1_555
F18 C57 1_555 1_555
F19 C50 1_555 1_555
F20 C50 1_555 1_555
F21 C50 1_555 1_555
F22 C14 1_555 1_555
F23 C14 1_555 1_555
F24 C14 1_555 1_555
F25 C68 1_555 1_555
F26 C68 1_555 1_555
F27 C68 1_555 1_555
F28 C53 1_555 1_555
F29 C53 1_555 1_555
F30 C53 1_555 1_555
F31 C47 1_555 1_555
F32 C47 1_555 1_555
F33 C47 1_555 1_555
F34 C63 1_555 1_555
F35 C63 1_555 1_555
F36 C63 1_555 1_555
F37 C54 1_555 1_555
F38 C54 1_555 1_555
F39 C54 1_555 1_555
F40 C42 1_555 1_555
F41 C42 1_555 1_555
F42 C42 1_555 1_555
F43 C65 1_555 1_555
F44 C65 1_555 1_555
F45 C65 1_555 1_555
F46 C52 1_555 1_555
F47 C52 1_555 1_555
F48 C52 1_555 1_555
F49 C64 1_555 1_555
F50 C64 1_555 1_555
F51 C64 1_555 1_555
F52 C79 1_555 1_555
F53 C79 1_555 1_555
F54 C79 1_555 1_555
O1 C5 1_555 1_555
O2 Cu2 1_555 1_555
O3 Cu2 1_555 1_555
O4 Cu2 1_555 1_555
O5 Cu2 1_555 1_555
O6 N2 1_555 1_555
O7 Gd1 1_555 1_555
O8 Gd1 1_555 1_555
O9 Gd1 1_555 1_555
O10 Gd1 1_555 1_555
O11 Gd1 1_555 1_555
O12 Gd1 1_555 1_555
O13 N3 1_555 1_555
O14 N4 1_555 1_555
O15 Cu3 1_555 1_555
O16 Cu3 1_555 1_555
O17 Cu3 1_555 1_555
O18 Cu3 1_555 1_555
O19 C67 1_555 1_555
O20 Cu1 1_555 1_555
O21 Cu1 1_555 1_555
O22 Cu1 1_555 1_555
N1 O5 1_555 1_555
N2 C2 1_555 1_555
N3 C9 1_555 1_555
N4 C9 1_555 1_555
N5 Cu2 1_555 1_555
N6 Cu1 1_555 1_555
N7 C16 1_555 1_555
N8 Cu3 1_555 1_555
C1 O17 1_555 1_555
C2 N1 1_555 1_555
C3 H1 1_555 1_555
C4 H2 1_555 1_555
C5 C28 1_555 1_555
C6 H3 1_555 1_555
C7 H4 1_555 1_555
C8 C3 1_555 1_555
H5 C8 1_555 1_555
C9 C27 1_555 1_555
C10 C6 1_555 1_555
H6 C10 1_555 1_555
C11 O4 1_555 1_555
C12 O3 1_555 1_555
C13 C4 1_555 1_555
H7 C13 1_555 1_555
C14 C18 1_555 1_555
C15 N8 1_555 1_555
H8 C15 1_555 1_555
C16 N8 1_555 1_555
H9 C16 1_555 1_555
C17 N1 1_555 1_555
C18 O12 1_555 1_555
C19 H10 1_555 1_555
C20 H11 1_555 1_555
C21 N6 1_555 1_555
H12 C21 1_555 1_555
C22 C2 1_555 1_555
C23 C20 1_555 1_555
H13 C23 1_555 1_555
C24 C12 1_555 1_555
C25 N5 1_555 1_555
H14 C25 1_555 1_555
C26 C17 1_555 1_555
H15 C26 1_555 1_555
H16 C26 1_555 1_555
H17 C26 1_555 1_555
C27 C4 1_555 1_555
C29 N7 1_555 1_555
H18 C29 1_555 1_555
C30 C3 1_555 1_555
C31 H19 1_555 1_555
H20 C31 1_555 1_555
H21 C31 1_555 1_555
C32 C15 1_555 1_555
C33 C11 1_555 1_555
C34 O22 1_555 1_555
C35 N4 1_555 1_555
C36 O16 1_555 1_555
C37 O10 1_555 1_555
C38 O11 1_555 1_555
C39 C5 1_555 1_555
H22 C39 1_555 1_555
C40 O9 1_555 1_555
C41 C11 1_555 1_555
H23 C41 1_555 1_555
C42 C36 1_555 1_555
C43 O15 1_555 1_555
C44 N2 1_555 1_555
C45 C13 1_555 1_555
C46 O18 1_555 1_555
C47 C1 1_555 1_555
C48 O7 1_555 1_555
C49 C17 1_555 1_555
H24 C49 1_555 1_555
H25 C49 1_555 1_555
H26 C49 1_555 1_555
C50 C38 1_555 1_555
C51 C44 1_555 1_555
H27 C51 1_555 1_555
H28 C51 1_555 1_555
H29 C51 1_555 1_555
C52 C34 1_555 1_555
C53 C37 1_555 1_555
C54 C43 1_555 1_555
C55 C1 1_555 1_555
H30 C55 1_555 1_555
C56 C48 1_555 1_555
C57 C60 1_555 1_555
C58 C21 1_555 1_555
C59 O2 1_555 1_555
C60 O8 1_555 1_555
C61 C37 1_555 1_555
H31 C61 1_555 1_555
C62 O20 1_555 1_555
C63 C46 1_555 1_555
C64 C62 1_555 1_555
C65 C78 1_555 1_555
C66 C62 1_555 1_555
H32 C66 1_555 1_555
C67 C66 1_555 1_555
C68 C40 1_555 1_555
C69 N3 1_555 1_555
C70 C69 1_555 1_555
H33 C70 1_555 1_555
H34 C70 1_555 1_555
H35 C70 1_555 1_555
C71 N5 1_555 1_555
H36 C71 1_555 1_555
C72 C35 1_555 1_555
H37 C72 1_555 1_555
H38 C72 1_555 1_555
H39 C72 1_555 1_555
C73 C48 1_555 1_555
H40 C73 1_555 1_555
C74 C35 1_555 1_555
H41 C74 1_555 1_555
H42 C74 1_555 1_555
H43 C74 1_555 1_555
C75 C36 1_555 1_555
H44 C75 1_555 1_555
C76 C69 1_555 1_555
H45 C76 1_555 1_555
H46 C76 1_555 1_555
H47 C76 1_555 1_555
C77 C59 1_555 1_555
C78 O21 1_555 1_555
C79 C67 1_555 1_555
Gd1C O13 1_555 1_555
Cu1_2 N7 1_555 1_555
O13C Gd1 1_555 1_555
N7_2 Cu1 1_555 1_555
N6 C25 1_555 1_555
C6 C30 1_555 1_555
C7 C18 1_555 1_555
C7 C38 1_555 1_555
C8 C22 1_555 1_555
C10 C22 1_555 1_555
C12 C41 1_555 1_555
C17 C44 1_555 1_555
C19 C34 1_555 1_555
C19 C78 1_555 1_555
C20 C27 1_555 1_555
C23 C45 1_555 1_555
C29 C32 1_555 1_555
C30 C32 1_555 1_555
C31 C44 1_555 1_555
C35 C69 1_555 1_555
C39 C59 1_555 1_555
C40 C61 1_555 1_555
C43 C75 1_555 1_555
C45 C58 1_555 1_555
C46 C55 1_555 1_555
C58 C71 1_555 1_555
C60 C73 1_555 1_555

#END
