
#######################################################################
#
#                 Cambridge Crystallographic Data Centre
#                                CCDC 
#
#######################################################################
#
# If this CIF has been generated from an entry in the Cambridge 
# Structural Database, then it will include bibliographic, chemical, 
# crystal, experimental, refinement or atomic coordinate data resulting 
# from the CCDC's data processing and validation procedures.
#
#######################################################################

data_PINNIL
_symmetry_cell_setting           monoclinic
_symmetry_space_group_name_H-M   'P 21/c'
_symmetry_Int_Tables_number      14
_space_group_name_Hall           '-P 2ybc'
loop_
_symmetry_equiv_pos_site_id
_symmetry_equiv_pos_as_xyz
1 x,y,z
2 -x,1/2+y,1/2-z
3 -x,-y,-z
4 x,1/2-y,1/2+z
_cell_length_a                   7.1962(8)
_cell_length_b                   10.0563(13)
_cell_length_c                   18.748(3)
_cell_angle_alpha                90
_cell_angle_beta                 91.548(12)
_cell_angle_gamma                90
_cell_volume                     1356.24
loop_
_atom_site_label
_atom_site_type_symbol
_atom_site_fract_x
_atom_site_fract_y
_atom_site_fract_z
Co1 Co -0.5000 0.5000 0.5000
Co2 Co 0.0000 0.5000 0.5000
O1 O -0.1070(8) 0.6558(7) 0.4394(3)
O2 O -0.4131(8) 0.6340(7) 0.4249(3)
C1 C -0.2582(12) 0.6674(9) 0.4034(5)
C2 C -0.2520(11) 0.7294(10) 0.3305(5)
C3 C -0.4137(12) 0.7512(14) 0.2914(5)
H1 H -0.5274 0.7293 0.3107
C4 C -0.4093(13) 0.8053(13) 0.2236(5)
H2 H -0.5200 0.8178 0.1978
C5 C -0.2433(12) 0.8410(10) 0.1937(5)
C6 C -0.0830(13) 0.8267(13) 0.2352(5)
H3 H 0.0301 0.8558 0.2180
C7 C -0.0903(12) 0.7691(12) 0.3023(5)
H4 H 0.0197 0.7573 0.3287
O3 O -0.3917(8) 0.8924(8) 0.0838(3)
C8 C -0.2393(12) 0.8894(10) 0.1175(5)
O4 O -0.0837(8) 0.9204(7) 0.0949(3)
O5 O -0.2488(7) 0.3928(6) 0.4868(3)
N1 N -0.2450(11) 0.2659(11) 0.4844(6)
C9 C -0.2658(14) 0.1949(12) 0.5441(8)
H5 H -0.2871 0.2394 0.5866
Br1 Br -0.2821(3) -0.0329(2) 0.62917(14)
C10 C -0.2569(16) 0.0591(14) 0.5446(8)
C11 C -0.2397(17) -0.0041(16) 0.4840(9)
H6 H -0.2392 -0.0965 0.4833
C12 C -0.2217(18) 0.0680(16) 0.4191(9)
H7 H -0.2089 0.0233 0.3761
C13 C -0.2236(16) 0.2019(14) 0.4209(8)
H8 H -0.2105 0.2504 0.3791
O1B O -0.8930(8) 0.3442(7) 0.5606(3)
O2B O -0.5869(8) 0.3660(7) 0.5751(3)
C1B C -0.7418(12) 0.3326(9) 0.5966(5)
C2B C -0.7480(11) 0.2706(10) 0.6695(5)
C3B C -0.5863(12) 0.2488(14) 0.7086(5)
H1B H -0.4726 0.2707 0.6893
C4B C -0.5907(13) 0.1947(13) 0.7764(5)
H2B H -0.4800 0.1822 0.8022
C5B C -0.7567(12) 0.1590(10) 0.8063(5)
C6B C -0.9170(13) 0.1733(13) 0.7648(5)
H3B H -1.0301 0.1442 0.7820
C7B C -0.9097(12) 0.2309(12) 0.6977(5)
H4B H -1.0197 0.2427 0.6713
O3B O -0.6083(8) 0.1076(8) 0.9162(3)
C8B C -0.7607(12) 0.1106(10) 0.8825(5)
O4B O -0.9163(8) 0.0796(7) 0.9051(3)
O5B O -0.7512(7) 0.6072(6) 0.5132(3)
N1B N -0.7550(11) 0.7341(11) 0.5156(6)
C9B C -0.7342(14) 0.8051(12) 0.4559(8)
H5B H -0.7129 0.7606 0.4134
Br1B Br -0.7179(3) 1.0329(2) 0.37083(14)
C10B C -0.7431(16) 0.9409(14) 0.4554(8)
C11B C -0.7603(17) 1.0041(16) 0.5160(9)
H6B H -0.7608 1.0965 0.5167
C12B C -0.7783(18) 0.9320(16) 0.5809(9)
H7B H -0.7911 0.9767 0.6239
C13B C -0.7764(16) 0.7981(14) 0.5791(8)
H8B H -0.7895 0.7496 0.6209
Co1A Co -0.5000 0.0000 1.0000
Co1A_2 Co -0.5000 1.0000 0.0000
Co2_2 Co -1.0000 0.5000 0.5000
Co2A Co -1.0000 0.0000 1.0000
Co2A_2 Co 0.0000 1.0000 0.0000
O1B_2 O 0.1070(8) 0.3442(7) 0.5606(3)
O3A O -0.6083(8) 0.3924(8) 0.4162(3)
O3C O -0.3917(8) 0.6076(8) 0.5838(3)
O4A O 0.0837(8) 0.4204(7) 0.4051(3)
O4C O -0.0837(8) 0.5796(7) 0.5949(3)
O5B_2 O 0.2488(7) 0.6072(6) 0.5132(3)
loop_
_geom_bond_atom_site_label_1
_geom_bond_atom_site_label_2
_geom_bond_site_symmetry_1
_geom_bond_site_symmetry_2
Co1 O2 1_555 1_555
Co2 O1 1_555 1_555
O1 C1 1_555 1_555
O2 C1 1_555 1_555
C1 C2 1_555 1_555
C2 C3 1_555 1_555
C3 H1 1_555 1_555
C4 C3 1_555 1_555
H2 C4 1_555 1_555
C5 C4 1_555 1_555
C6 C5 1_555 1_555
H3 C6 1_555 1_555
C7 C2 1_555 1_555
H4 C7 1_555 1_555
O3 C8 1_555 1_555
C8 C5 1_555 1_555
O4 C8 1_555 1_555
O5 Co1 1_555 1_555
N1 O5 1_555 1_555
C9 N1 1_555 1_555
H5 C9 1_555 1_555
Br1 C10 1_555 1_555
C10 C9 1_555 1_555
C11 C10 1_555 1_555
H6 C11 1_555 1_555
C12 C11 1_555 1_555
H7 C12 1_555 1_555
C13 N1 1_555 1_555
H8 C13 1_555 1_555
O1B C1B 1_555 1_555
O2B Co1 1_555 1_555
C1B O2B 1_555 1_555
C2B C1B 1_555 1_555
C3B C2B 1_555 1_555
H1B C3B 1_555 1_555
C4B C3B 1_555 1_555
H2B C4B 1_555 1_555
C5B C4B 1_555 1_555
C6B C5B 1_555 1_555
H3B C6B 1_555 1_555
C7B C2B 1_555 1_555
H4B C7B 1_555 1_555
O3B C8B 1_555 1_555
C8B C5B 1_555 1_555
O4B C8B 1_555 1_555
O5B Co1 1_555 1_555
N1B O5B 1_555 1_555
C9B N1B 1_555 1_555
H5B C9B 1_555 1_555
Br1B C10B 1_555 1_555
C10B C9B 1_555 1_555
C11B C10B 1_555 1_555
H6B C11B 1_555 1_555
C12B C11B 1_555 1_555
H7B C12B 1_555 1_555
C13B N1B 1_555 1_555
H8B C13B 1_555 1_555
Co1A O3B 1_555 1_555
Co1A_2 O3 1_555 1_555
Co2_2 O1B 1_555 1_555
Co2A O4B 1_555 1_555
Co2A_2 O4 1_555 1_555
O1B_2 Co2 1_555 1_555
O3A Co1 1_555 1_555
O3C Co1 1_555 1_555
O4A Co2 1_555 1_555
O4C Co2 1_555 1_555
O5B_2 Co2 1_555 1_555
Co2 O5 1_555 1_555
C6 C7 1_555 1_555
C12 C13 1_555 1_555
C6B C7B 1_555 1_555
O5B Co2_2 1_555 1_555
C12B C13B 1_555 1_555

#END
