
#######################################################################
#
#                 Cambridge Crystallographic Data Centre
#                                CCDC 
#
#######################################################################
#
# If this CIF has been generated from an entry in the Cambridge 
# Structural Database, then it will include bibliographic, chemical, 
# crystal, experimental, refinement or atomic coordinate data resulting 
# from the CCDC's data processing and validation procedures.
#
#######################################################################

data_PINNUX
_symmetry_cell_setting           orthorhombic
_symmetry_space_group_name_H-M   'P n m a'
_symmetry_Int_Tables_number      62
_space_group_name_Hall           '-P 2ac 2n'
loop_
_symmetry_equiv_pos_site_id
_symmetry_equiv_pos_as_xyz
1 x,y,z
2 1/2-x,-y,1/2+z
3 1/2+x,1/2-y,1/2-z
4 -x,1/2+y,-z
5 -x,-y,-z
6 1/2+x,y,1/2-z
7 1/2-x,1/2+y,1/2+z
8 x,1/2-y,z
_cell_length_a                   18.025(16)
_cell_length_b                   7.184(6)
_cell_length_c                   11.906(11)
_cell_angle_alpha                90
_cell_angle_beta                 90
_cell_angle_gamma                90
_cell_volume                     1541.73
loop_
_atom_site_label
_atom_site_type_symbol
_atom_site_fract_x
_atom_site_fract_y
_atom_site_fract_z
Co1 Co 0.5000 0.5000 0.5000
O1 O 0.4077(2) 0.5945(6) 0.5862(4)
C1 C 0.3795(4) 0.7500 0.6053(6)
C2 C 0.3051(4) 0.7500 0.6632(6)
C3 C 0.2796(11) 0.908(3) 0.7179(14)
H1 H 0.3094 1.0172 0.7130
C4 C 0.2133(12) 0.921(4) 0.7802(16)
H2 H 0.1977 1.0328 0.8159
C5 C 0.1711(4) 0.7500 0.7850(6)
C6 C 0.0986(4) 0.7500 0.8528(7)
O2 O 0.0727(2) 0.9057(6) 0.8770(4)
O3 O 0.4900(3) 0.2500 0.5878(4)
N1 N 0.4861(4) 0.2500 0.7019(5)
C7 C 0.5475(5) 0.2500 0.7614(7)
H3 H 0.5945 0.2500 0.7254
C8 C 0.5424(6) 0.2500 0.8814(7)
C9 C 0.6072(8) 0.2500 0.9466(10)
H4 H 0.6541 0.2500 0.9103
C10 C 0.6043(11) 0.2500 1.0599(10)
H5 H 0.6488 0.2500 1.1027
C11 C 0.5350(9) 0.2500 1.1138(9)
H6 H 0.5325 0.2500 1.1936
C12 C 0.4711(8) 0.2500 1.0520(8)
H7 H 0.4244 0.2500 1.0889
C13 C 0.4744(7) 0.2500 0.9339(8)
C14 C 0.4112(7) 0.2500 0.8651(9)
H8 H 0.3632 0.2500 0.8981
C15 C 0.4183(6) 0.2500 0.7511(9)
H9 H 0.3751 0.2500 0.7054
O1G O 0.4077(2) 0.9055(6) 0.5862(4)
C3G C 0.2796(11) 0.592(3) 0.7179(14)
H1G H 0.3094 0.4828 0.7130
C4G C 0.2133(12) 0.579(4) 0.7802(16)
H2G H 0.1977 0.4672 0.8159
O2G O 0.0727(2) 0.5943(6) 0.8770(4)
Co1A Co 0.0000 0.5000 1.0000
Co1B Co 0.0000 1.0000 1.0000
Co1C Co 0.5000 0.0000 0.5000
Co1C_2 Co 0.5000 1.0000 0.5000
O1D O 0.5923(2) 0.4055(6) 0.4138(4)
O2B O 0.5727(2) 0.5943(6) 0.6230(4)
O2F O 0.4273(2) 0.4057(6) 0.3770(4)
O3C O 0.5100(3) 0.7500 0.4122(4)
O4 O 0.694(3) 0.7500 0.461(4)
C16? C 0.2614(9) 0.912(3) 0.6722(15)
H10? H 0.2765 1.0245 0.6365
C17? C 0.1965(12) 0.906(3) 0.7333(16)
H11? H 0.1681 1.0169 0.7396
loop_
_geom_bond_atom_site_label_1
_geom_bond_atom_site_label_2
_geom_bond_site_symmetry_1
_geom_bond_site_symmetry_2
Co1 O1 1_555 1_555
O1 C1 1_555 1_555
C1 C2 1_555 1_555
C2 C3 1_555 1_555
C3 H1 1_555 1_555
C4 C3 1_555 1_555
H2 C4 1_555 1_555
C5 C4 1_555 1_555
C6 C5 1_555 1_555
O2 C6 1_555 1_555
O3 Co1 1_555 1_555
N1 O3 1_555 1_555
C7 N1 1_555 1_555
H3 C7 1_555 1_555
C8 C7 1_555 1_555
C9 C8 1_555 1_555
H4 C9 1_555 1_555
C10 C9 1_555 1_555
H5 C10 1_555 1_555
C11 C10 1_555 1_555
H6 C11 1_555 1_555
C12 C11 1_555 1_555
H7 C12 1_555 1_555
C13 C8 1_555 1_555
C14 C13 1_555 1_555
H8 C14 1_555 1_555
C15 N1 1_555 1_555
H9 C15 1_555 1_555
O1G C1 1_555 1_555
C3G C2 1_555 1_555
H1G C3G 1_555 1_555
C4G C5 1_555 1_555
H2G C4G 1_555 1_555
O2G C6 1_555 1_555
Co1A O2G 1_555 1_555
Co1B O2 1_555 1_555
Co1C O3 1_555 1_555
Co1C_2 O1G 1_555 1_555
O1D Co1 1_555 1_555
O2B Co1 1_555 1_555
O2F Co1 1_555 1_555
O3C Co1 1_555 1_555
C12 C13 1_555 1_555
C14 C15 1_555 1_555
C3G C4G 1_555 1_555
Co1C_2 O3C 1_555 1_555

#END
