
#######################################################################
#
#                 Cambridge Crystallographic Data Centre
#                                CCDC 
#
#######################################################################
#
# If this CIF has been generated from an entry in the Cambridge 
# Structural Database, then it will include bibliographic, chemical, 
# crystal, experimental, refinement or atomic coordinate data resulting 
# from the CCDC's data processing and validation procedures.
#
#######################################################################

data_PINNEF
_symmetry_cell_setting           orthorhombic
_symmetry_space_group_name_H-M   'P 21 21 21'
_symmetry_Int_Tables_number      19
_space_group_name_Hall           'P 2ac 2ab'
loop_
_symmetry_equiv_pos_site_id
_symmetry_equiv_pos_as_xyz
1 x,y,z
2 1/2+x,1/2-y,-z
3 -x,1/2+y,1/2-z
4 1/2-x,-y,1/2+z
_cell_length_a                   8.112(2)
_cell_length_b                   15.507(4)
_cell_length_c                   16.090(5)
_cell_angle_alpha                90
_cell_angle_beta                 90
_cell_angle_gamma                90
_cell_volume                     2024.01
loop_
_atom_site_label
_atom_site_type_symbol
_atom_site_fract_x
_atom_site_fract_y
_atom_site_fract_z
Sb1 Sb -0.0866(1) -0.0467(1) 0.2132(1)
Sb2 Sb -0.0742(1) 0.1646(1) 0.4618(1)
Zn1 Zn 0.4143(1) 0.2056(1) 0.2122(1)
K1 K 0.3853(2) 0.0650(1) 0.4319(1)
O1 O 0.1332(6) -0.0847(3) 0.2761(3)
C1 C 0.1198(8) -0.0921(4) 0.3565(4)
O2 O 0.2381(7) -0.1041(3) 0.4017(3)
C2 C -0.0588(9) -0.0861(4) 0.3908(4)
O3 O -0.1714(6) -0.0608(3) 0.3284(3)
C3 C -0.0617(8) -0.0234(3) 0.4643(4)
O4 O 0.0322(5) 0.0508(3) 0.4478(3)
C4 C -0.2443(9) -0.0004(4) 0.4834(4)
O5 O -0.2789(6) 0.0810(3) 0.4830(3)
O6 O -0.3451(8) -0.0565(4) 0.4978(4)
O7 O 0.1379(6) 0.2034(3) 0.3839(3)
C5 C 0.0981(9) 0.2225(4) 0.3102(4)
O8 O 0.1909(6) 0.2534(3) 0.2569(3)
C6 C -0.0798(8) 0.2054(3) 0.2838(4)
O9 O -0.1730(5) 0.1707(3) 0.3489(3)
C7 C -0.0751(9) 0.1426(4) 0.2094(3)
O10 O 0.0161(6) 0.0680(3) 0.2292(3)
C8 C -0.2559(9) 0.1205(4) 0.1918(4)
O11 O -0.2983(6) 0.0418(3) 0.2002(3)
O12 O -0.3508(6) 0.1806(3) 0.1718(3)
N1 N 0.1986(7) 0.0864(4) 0.6039(4)
O13 O 0.2818(7) 0.0192(3) 0.5990(3)
O14 O 0.0611(8) 0.0863(4) 0.6394(4)
O15 O 0.2469(8) 0.1535(3) 0.5710(4)
O16 O 0.4550(6) 0.3313(3) 0.1691(4)
O17 O 0.2995(8) 0.1659(4) 0.1059(3)
O18 O 0.5125(7) 0.2268(3) 0.3315(3)
O19 O 0.3644(6) 0.0746(3) 0.2551(3)
O5_2 O 0.7211(6) 0.0810(3) 0.4830(3)
O6_2 O 0.6549(8) -0.0565(4) 0.4978(4)
O12_2 O 0.6492(6) 0.1806(3) 0.1718(3)
K1_2 K -0.6147(2) 0.0650(1) 0.4319(1)
Zn1_2 Zn -0.5857(1) 0.2056(1) 0.2122(1)
O20 O -0.6570(12) -0.7329(4) 0.9788(4)
loop_
_geom_bond_atom_site_label_1
_geom_bond_atom_site_label_2
_geom_bond_site_symmetry_1
_geom_bond_site_symmetry_2
Sb1 O1 1_555 1_555
Sb2 O4 1_555 1_555
Zn1 O8 1_555 1_555
K1 O2 1_555 1_555
O1 C1 1_555 1_555
C1 O2 1_555 1_555
C2 C1 1_555 1_555
O3 Sb1 1_555 1_555
C3 C2 1_555 1_555
O4 K1 1_555 1_555
C4 C3 1_555 1_555
O5 Sb2 1_555 1_555
O6 C4 1_555 1_555
O7 Sb2 1_555 1_555
C5 O7 1_555 1_555
O8 C5 1_555 1_555
C6 C5 1_555 1_555
O9 Sb2 1_555 1_555
C7 C6 1_555 1_555
O10 Sb1 1_555 1_555
C8 C7 1_555 1_555
O11 Sb1 1_555 1_555
O12 C8 1_555 1_555
N1 O13 1_555 1_555
O13 K1 1_555 1_555
O14 N1 1_555 1_555
O15 K1 1_555 1_555
O16 Zn1 1_555 1_555
O17 Zn1 1_555 1_555
O18 Zn1 1_555 1_555
O19 Zn1 1_555 1_555
O5_2 K1 1_555 1_555
O6_2 K1 1_555 1_555
O12_2 Zn1 1_555 1_555
K1_2 O5 1_555 1_555
Zn1_2 O12 1_555 1_555
K1 O7 1_555 1_555
K1 O18 1_555 1_555
K1 O19 1_555 1_555
C2 O3 1_555 1_555
C3 O4 1_555 1_555
C4 O5 1_555 1_555
O6 K1_2 1_555 1_555
C6 O9 1_555 1_555
C7 O10 1_555 1_555
C8 O11 1_555 1_555
N1 O15 1_555 1_555

#END
