
#######################################################################
#
#                 Cambridge Crystallographic Data Centre
#                                CCDC 
#
#######################################################################
#
# If this CIF has been generated from an entry in the Cambridge 
# Structural Database, then it will include bibliographic, chemical, 
# crystal, experimental, refinement or atomic coordinate data resulting 
# from the CCDC's data processing and validation procedures.
#
#######################################################################

data_PINPAF
_symmetry_cell_setting           monoclinic
_symmetry_space_group_name_H-M   'C 2/c'
_symmetry_Int_Tables_number      15
_space_group_name_Hall           '-C 2yn'
loop_
_symmetry_equiv_pos_site_id
_symmetry_equiv_pos_as_xyz
1 x,y,z
2 -x,y,1/2-z
3 1/2+x,1/2+y,z
4 1/2-x,1/2+y,1/2-z
5 -x,-y,-z
6 x,-y,1/2+z
7 1/2-x,1/2-y,-z
8 1/2+x,1/2-y,1/2+z
_cell_length_a                   12.9936(8)
_cell_length_b                   17.9026(8)
_cell_length_c                   7.1797(4)
_cell_angle_alpha                90
_cell_angle_beta                 116.294(8)
_cell_angle_gamma                90
_cell_volume                     1497.33
loop_
_atom_site_label
_atom_site_type_symbol
_atom_site_fract_x
_atom_site_fract_y
_atom_site_fract_z
Co1 Co 0.5000 0.0000 0.0000
O1 O 0.60170(14) 0.08775(10) 0.1862(2)
C1 C 0.64355(18) 0.10289(14) 0.3759(4)
C2 C 0.7008(2) 0.17830(15) 0.4404(4)
O2 O 0.64022(13) 0.06302(9) 0.5180(3)
C3 C 0.6533(2) 0.24064(15) 0.3120(4)
H1 H 0.5867 0.2346 0.1837
C4 C 0.7979(2) 0.18898(15) 0.6300(4)
H2 H 0.8306 0.1477 0.7200
O3 O 0.5000 -0.05720(13) 0.2500
N1 N 0.5000 -0.13221(16) 0.2500
C5 C 0.4023(2) -0.16891(15) 0.2079(4)
H3 H 0.3338 -0.1418 0.1765
C6 C 0.4009(2) -0.24579(15) 0.2099(4)
H4 H 0.3316 -0.2712 0.1836
C7 C 0.5000 -0.2872(2) 0.2500
C8 C 0.5000 -0.3696(2) 0.2500
C9 C 0.4016(2) -0.41010(15) 0.2196(4)
H5 H 0.3337 -0.3840 0.1992
C10 C 0.4013(2) -0.48719(16) 0.2186(5)
H6 H 0.3335 -0.5137 0.1965
C11 C 0.5000 -0.5260(2) 0.2500
H7 H 0.5000 -0.5790 0.2500
O1F O 0.89830(14) 0.41225(10) 0.8138(2)
C1F C 0.85645(18) 0.39711(14) 0.6241(4)
C2F C 0.7992(2) 0.32170(15) 0.5596(4)
O2F O 0.85978(13) 0.43698(9) 0.4820(3)
C3F C 0.8467(2) 0.25936(15) 0.6880(4)
H1F H 0.9133 0.2654 0.8163
C4F C 0.7021(2) 0.31102(15) 0.3700(4)
H2F H 0.6694 0.3523 0.2800
C5A C 0.5977(2) -0.16891(15) 0.2921(4)
H3A H 0.6662 -0.1418 0.3235
C6A C 0.5991(2) -0.24579(15) 0.2901(4)
H4A H 0.6684 -0.2712 0.3164
C9A C 0.5984(2) -0.41010(15) 0.2804(4)
H5A H 0.6663 -0.3840 0.3008
C10A C 0.5987(2) -0.48719(16) 0.2814(5)
H6A H 0.6665 -0.5137 0.3035
Co1A Co 0.5000 0.0000 0.5000
Co1B Co 1.0000 0.5000 1.0000
Co1C Co 1.0000 0.5000 0.5000
O1D O 0.39830(14) -0.08775(10) -0.1862(2)
O2A O 0.35978(13) 0.06302(9) -0.0180(3)
O2E O 0.64022(13) -0.06302(9) 0.0180(3)
O3D O 0.5000 0.05720(13) -0.2500
loop_
_geom_bond_atom_site_label_1
_geom_bond_atom_site_label_2
_geom_bond_site_symmetry_1
_geom_bond_site_symmetry_2
Co1 O1 1_555 1_555
O1 C1 1_555 1_555
C1 C2 1_555 1_555
C2 C3 1_555 1_555
O2 C1 1_555 1_555
C3 H1 1_555 1_555
C4 C2 1_555 1_555
H2 C4 1_555 1_555
O3 Co1 1_555 1_555
N1 O3 1_555 1_555
C5 N1 1_555 1_555
H3 C5 1_555 1_555
C6 C5 1_555 1_555
H4 C6 1_555 1_555
C7 C6 1_555 1_555
C8 C7 1_555 1_555
C9 C8 1_555 1_555
H5 C9 1_555 1_555
C10 C9 1_555 1_555
H6 C10 1_555 1_555
C11 C10 1_555 1_555
H7 C11 1_555 1_555
O1F C1F 1_555 1_555
C1F C2F 1_555 1_555
C2F C3F 1_555 1_555
O2F C1F 1_555 1_555
C3F C4 1_555 1_555
H1F C3F 1_555 1_555
C4F C3 1_555 1_555
H2F C4F 1_555 1_555
C5A N1 1_555 1_555
H3A C5A 1_555 1_555
C6A C7 1_555 1_555
H4A C6A 1_555 1_555
C9A C8 1_555 1_555
H5A C9A 1_555 1_555
C10A C11 1_555 1_555
H6A C10A 1_555 1_555
Co1A O2 1_555 1_555
Co1B O1F 1_555 1_555
Co1C O2F 1_555 1_555
O1D Co1 1_555 1_555
O2A Co1 1_555 1_555
O2E Co1 1_555 1_555
O3D Co1 1_555 1_555
O3 Co1A 1_555 1_555
C2F C4F 1_555 1_555
C5A C6A 1_555 1_555
C9A C10A 1_555 1_555

#END
