
#######################################################################
#
#                 Cambridge Crystallographic Data Centre
#                                CCDC 
#
#######################################################################
#
# If this CIF has been generated from an entry in the Cambridge 
# Structural Database, then it will include bibliographic, chemical, 
# crystal, experimental, refinement or atomic coordinate data resulting 
# from the CCDC's data processing and validation procedures.
#
#######################################################################

data_PINQUA
_symmetry_cell_setting           monoclinic
_symmetry_space_group_name_H-M   'C 2'
_symmetry_Int_Tables_number      5
_space_group_name_Hall           'C 2y'
loop_
_symmetry_equiv_pos_site_id
_symmetry_equiv_pos_as_xyz
1 x,y,z
2 -x,y,-z
3 1/2+x,1/2+y,z
4 1/2-x,1/2+y,-z
_cell_length_a                   15.2194(18)
_cell_length_b                   11.4434(18)
_cell_length_c                   19.218(3)
_cell_angle_alpha                90
_cell_angle_beta                 90.342(4)
_cell_angle_gamma                90
_cell_volume                     3346.98
loop_
_atom_site_label
_atom_site_type_symbol
_atom_site_fract_x
_atom_site_fract_y
_atom_site_fract_z
Cu1 Cu 0.72738(8) 0.78116(11) 0.87992(7)
Mo1 Mo 1.0000 1.00842(9) 1.0000
N1 N 0.7886(6) 0.6488(8) 0.8340(5)
N2 N 0.7932(7) 0.8808(9) 0.7967(5)
H1 H 0.8333 0.9349 0.8227
N3 N 0.6038(6) 0.7505(8) 0.8034(4)
H2 H 0.5710 0.6823 0.8230
N4 N 0.6553(6) 0.9209(8) 0.9004(5)
N5 N 0.8451(6) 0.8331(8) 0.9406(5)
N6 N 1.1603(5) 1.1826(8) 0.9495(5)
N7 N 0.9222(6) 1.1416(10) 0.8587(5)
N8 N 1.0839(7) 0.8871(9) 0.8573(5)
C1 C 0.7758(7) 0.5343(11) 0.8510(6)
H3 H 0.7452 0.5165 0.8926
C2 C 0.8052(8) 0.4437(12) 0.8105(7)
H4 H 0.7959 0.3649 0.8241
C3 C 0.8486(9) 0.4698(13) 0.7498(8)
H5 H 0.8676 0.4091 0.7197
C4 C 0.8638(8) 0.5830(11) 0.7335(6)
H6 H 0.8951 0.6018 0.6924
C5 C 0.8344(7) 0.6714(11) 0.7762(6)
C6 C 0.8560(8) 0.7968(12) 0.7605(7)
H7 H 0.8527 0.8097 0.7096
H8 H 0.9169 0.8135 0.7759
C7 C 0.7413(8) 0.9568(11) 0.7554(6)
C8 C 0.7409(9) 1.0750(11) 0.7733(7)
H9 H 0.7788 1.1018 0.8093
C9 C 0.6877(8) 1.1521(12) 0.7405(7)
H10 H 0.6887 1.2321 0.7538
C10 C 0.6319(8) 1.1156(11) 0.6876(7)
C11 C 0.5762(8) 1.1941(12) 0.6524(7)
H11 H 0.5787 1.2751 0.6630
C12 C 0.5180(9) 1.1542(14) 0.6028(7)
H12 H 0.4823 1.2083 0.5780
C13 C 0.5110(8) 1.0393(13) 0.5889(6)
H13 H 0.4680 1.0132 0.5564
C14 C 0.5647(7) 0.9596(11) 0.6206(6)
H14 H 0.5597 0.8789 0.6096
C15 C 0.6276(7) 0.9978(12) 0.6696(5)
C16 C 0.6848(7) 0.9151(10) 0.7060(6)
C17 C 0.6737(6) 0.7877(10) 0.6906(5)
C18 C 0.7071(7) 0.7391(10) 0.6289(6)
C19 C 0.7557(7) 0.8096(11) 0.5809(6)
H15 H 0.7627 0.8911 0.5889
C20 C 0.7925(9) 0.7570(14) 0.5227(6)
H16 H 0.8231 0.8044 0.4902
C21 C 0.7861(9) 0.6379(14) 0.5102(7)
H17 H 0.8145 0.6035 0.4714
C22 C 0.7380(8) 0.5709(12) 0.5550(6)
H18 H 0.7307 0.4899 0.5456
C23 C 0.6992(8) 0.6189(10) 0.6144(6)
C24 C 0.6556(7) 0.5478(10) 0.6626(6)
H19 H 0.6481 0.4667 0.6537
C25 C 0.6252(8) 0.5943(10) 0.7204(6)
H20 H 0.5966 0.5445 0.7528
C26 C 0.6328(7) 0.7149(9) 0.7369(6)
C27 C 0.5464(7) 0.8523(9) 0.8128(6)
H21 H 0.4877 0.8244 0.8271
H22 H 0.5394 0.8920 0.7673
C28 C 0.5781(7) 0.9394(9) 0.8648(5)
C29 C 0.5306(8) 1.0382(10) 0.8771(6)
H23 H 0.4767 1.0503 0.8529
C30 C 0.5594(8) 1.1203(11) 0.9240(7)
H24 H 0.5264 1.1894 0.9318
C31 C 0.6370(9) 1.1010(12) 0.9594(8)
H25 H 0.6589 1.1564 0.9920
C32 C 0.6809(8) 1.0008(13) 0.9462(6)
H26 H 0.7337 0.9866 0.9715
C33 C 0.9009(7) 0.8916(9) 0.9636(5)
C34 C 1.1037(7) 1.1248(9) 0.9699(5)
C35 C 0.9498(6) 1.0970(9) 0.9091(6)
C36 C 1.0562(8) 0.9274(10) 0.9082(7)
Cu1A Cu 1.27262(8) 0.78116(11) 1.12008(7)
N1A N 1.2114(6) 0.6488(8) 1.1660(5)
N2A N 1.2068(7) 0.8808(9) 1.2033(5)
H1A H 1.1667 0.9349 1.1773
N3A N 1.3962(6) 0.7505(8) 1.1966(4)
H2A H 1.4290 0.6823 1.1770
N4A N 1.3447(6) 0.9209(8) 1.0996(5)
N5A N 1.1549(6) 0.8331(8) 1.0594(5)
N6A N 0.8397(5) 1.1826(8) 1.0505(5)
N7A N 1.0778(6) 1.1416(10) 1.1413(5)
N8A N 0.9161(7) 0.8871(9) 1.1427(5)
C1A C 1.2242(7) 0.5343(11) 1.1490(6)
H3A H 1.2548 0.5165 1.1074
C2A C 1.1948(8) 0.4437(12) 1.1895(7)
H4A H 1.2041 0.3649 1.1759
C3A C 1.1514(9) 0.4698(13) 1.2502(8)
H5A H 1.1324 0.4091 1.2803
C4A C 1.1362(8) 0.5830(11) 1.2665(6)
H6A H 1.1049 0.6018 1.3076
C5A C 1.1656(7) 0.6714(11) 1.2238(6)
C6A C 1.1440(8) 0.7968(12) 1.2395(7)
H7A H 1.1473 0.8097 1.2904
H8A H 1.0831 0.8135 1.2241
C7A C 1.2587(8) 0.9568(11) 1.2446(6)
C8A C 1.2591(9) 1.0750(11) 1.2267(7)
H9A H 1.2212 1.1018 1.1907
C9A C 1.3123(8) 1.1521(12) 1.2595(7)
H10A H 1.3113 1.2321 1.2462
C10A C 1.3681(8) 1.1156(11) 1.3124(7)
C11A C 1.4238(8) 1.1941(12) 1.3476(7)
H11A H 1.4213 1.2751 1.3370
C12A C 1.4820(9) 1.1542(14) 1.3972(7)
H12A H 1.5177 1.2083 1.4220
C13A C 1.4890(8) 1.0393(13) 1.4111(6)
H13A H 1.5320 1.0132 1.4436
C14A C 1.4353(7) 0.9596(11) 1.3794(6)
H14A H 1.4403 0.8789 1.3904
C15A C 1.3724(7) 0.9978(12) 1.3304(5)
C16A C 1.3152(7) 0.9151(10) 1.2940(6)
C17A C 1.3263(6) 0.7877(10) 1.3094(5)
C18A C 1.2929(7) 0.7391(10) 1.3711(6)
C19A C 1.2443(7) 0.8096(11) 1.4191(6)
H15A H 1.2373 0.8911 1.4111
C20A C 1.2075(9) 0.7570(14) 1.4773(6)
H16A H 1.1769 0.8044 1.5098
C21A C 1.2139(9) 0.6379(14) 1.4898(7)
H17A H 1.1855 0.6035 1.5286
C22A C 1.2620(8) 0.5709(12) 1.4450(6)
H18A H 1.2693 0.4899 1.4544
C23A C 1.3008(8) 0.6189(10) 1.3856(6)
C24A C 1.3444(7) 0.5478(10) 1.3374(6)
H19A H 1.3519 0.4667 1.3463
C25A C 1.3748(8) 0.5943(10) 1.2796(6)
H20A H 1.4034 0.5445 1.2472
C26A C 1.3672(7) 0.7149(9) 1.2631(6)
C27A C 1.4536(7) 0.8523(9) 1.1872(6)
H21A H 1.5123 0.8244 1.1729
H22A H 1.4606 0.8920 1.2327
C28A C 1.4219(7) 0.9394(9) 1.1352(5)
C29A C 1.4694(8) 1.0382(10) 1.1229(6)
H23A H 1.5233 1.0503 1.1471
C30A C 1.4406(8) 1.1203(11) 1.0760(7)
H24A H 1.4736 1.1894 1.0682
C31A C 1.3630(9) 1.1010(12) 1.0406(8)
H25A H 1.3411 1.1564 1.0080
C32A C 1.3191(8) 1.0008(13) 1.0538(6)
H26A H 1.2663 0.9866 1.0285
C33A C 1.0991(7) 0.8916(9) 1.0364(5)
C34A C 0.8963(7) 1.1248(9) 1.0301(5)
C35A C 1.0502(6) 1.0970(9) 1.0909(6)
C36A C 0.9438(8) 0.9274(10) 1.0918(7)
Cu1B Cu 1.22738(8) 1.28116(11) 0.87992(7)
Cu1C Cu 0.77262(8) 1.28116(11) 1.12008(7)
N6B N 0.6603(5) 0.6826(8) 0.9495(5)
N6C N 1.3397(5) 0.6826(8) 1.0505(5)
O1 O 0.5000 0.474(3) 0.5000
O2 O 0.587(2) 0.603(3) 0.3725(16)
O3 O 0.452(2) 0.713(4) 0.5475(19)
loop_
_geom_bond_atom_site_label_1
_geom_bond_atom_site_label_2
_geom_bond_site_symmetry_1
_geom_bond_site_symmetry_2
Cu1 N1 1_555 1_555
Mo1 C33 1_555 1_555
N1 C1 1_555 1_555
N2 Cu1 1_555 1_555
H1 N2 1_555 1_555
N3 Cu1 1_555 1_555
H2 N3 1_555 1_555
N4 Cu1 1_555 1_555
N5 Cu1 1_555 1_555
N6 C34 1_555 1_555
N7 C35 1_555 1_555
N8 C36 1_555 1_555
C1 H3 1_555 1_555
C2 C1 1_555 1_555
H4 C2 1_555 1_555
C3 C2 1_555 1_555
H5 C3 1_555 1_555
C4 C3 1_555 1_555
H6 C4 1_555 1_555
C5 N1 1_555 1_555
C6 N2 1_555 1_555
H7 C6 1_555 1_555
H8 C6 1_555 1_555
C7 N2 1_555 1_555
C8 C7 1_555 1_555
H9 C8 1_555 1_555
C9 C8 1_555 1_555
H10 C9 1_555 1_555
C10 C9 1_555 1_555
C11 C10 1_555 1_555
H11 C11 1_555 1_555
C12 C11 1_555 1_555
H12 C12 1_555 1_555
C13 C12 1_555 1_555
H13 C13 1_555 1_555
C14 C13 1_555 1_555
H14 C14 1_555 1_555
C15 C10 1_555 1_555
C16 C7 1_555 1_555
C17 C16 1_555 1_555
C18 C17 1_555 1_555
C19 C18 1_555 1_555
H15 C19 1_555 1_555
C20 C19 1_555 1_555
H16 C20 1_555 1_555
C21 C20 1_555 1_555
H17 C21 1_555 1_555
C22 C21 1_555 1_555
H18 C22 1_555 1_555
C23 C18 1_555 1_555
C24 C23 1_555 1_555
H19 C24 1_555 1_555
C25 C24 1_555 1_555
H20 C25 1_555 1_555
C26 N3 1_555 1_555
C27 N3 1_555 1_555
H21 C27 1_555 1_555
H22 C27 1_555 1_555
C28 N4 1_555 1_555
C29 C28 1_555 1_555
H23 C29 1_555 1_555
C30 C29 1_555 1_555
H24 C30 1_555 1_555
C31 C30 1_555 1_555
H25 C31 1_555 1_555
C32 N4 1_555 1_555
H26 C32 1_555 1_555
C33 N5 1_555 1_555
C34 Mo1 1_555 1_555
C35 Mo1 1_555 1_555
C36 Mo1 1_555 1_555
Cu1A N1A 1_555 1_555
N1A C1A 1_555 1_555
N2A Cu1A 1_555 1_555
H1A N2A 1_555 1_555
N3A Cu1A 1_555 1_555
H2A N3A 1_555 1_555
N4A Cu1A 1_555 1_555
N5A Cu1A 1_555 1_555
N6A C34A 1_555 1_555
N7A C35A 1_555 1_555
N8A C36A 1_555 1_555
C1A H3A 1_555 1_555
C2A C1A 1_555 1_555
H4A C2A 1_555 1_555
C3A C2A 1_555 1_555
H5A C3A 1_555 1_555
C4A C3A 1_555 1_555
H6A C4A 1_555 1_555
C5A N1A 1_555 1_555
C6A N2A 1_555 1_555
H7A C6A 1_555 1_555
H8A C6A 1_555 1_555
C7A N2A 1_555 1_555
C8A C7A 1_555 1_555
H9A C8A 1_555 1_555
C9A C8A 1_555 1_555
H10A C9A 1_555 1_555
C10A C9A 1_555 1_555
C11A C10A 1_555 1_555
H11A C11A 1_555 1_555
C12A C11A 1_555 1_555
H12A C12A 1_555 1_555
C13A C12A 1_555 1_555
H13A C13A 1_555 1_555
C14A C13A 1_555 1_555
H14A C14A 1_555 1_555
C15A C10A 1_555 1_555
C16A C7A 1_555 1_555
C17A C16A 1_555 1_555
C18A C17A 1_555 1_555
C19A C18A 1_555 1_555
H15A C19A 1_555 1_555
C20A C19A 1_555 1_555
H16A C20A 1_555 1_555
C21A C20A 1_555 1_555
H17A C21A 1_555 1_555
C22A C21A 1_555 1_555
H18A C22A 1_555 1_555
C23A C18A 1_555 1_555
C24A C23A 1_555 1_555
H19A C24A 1_555 1_555
C25A C24A 1_555 1_555
H20A C25A 1_555 1_555
C26A N3A 1_555 1_555
C27A N3A 1_555 1_555
H21A C27A 1_555 1_555
H22A C27A 1_555 1_555
C28A N4A 1_555 1_555
C29A C28A 1_555 1_555
H23A C29A 1_555 1_555
C30A C29A 1_555 1_555
H24A C30A 1_555 1_555
C31A C30A 1_555 1_555
H25A C31A 1_555 1_555
C32A N4A 1_555 1_555
H26A C32A 1_555 1_555
C33A Mo1 1_555 1_555
C34A Mo1 1_555 1_555
C35A Mo1 1_555 1_555
C36A Mo1 1_555 1_555
Cu1B N6 1_555 1_555
Cu1C N6A 1_555 1_555
N6B Cu1 1_555 1_555
N6C Cu1A 1_555 1_555
C4 C5 1_555 1_555
C5 C6 1_555 1_555
C14 C15 1_555 1_555
C15 C16 1_555 1_555
C17 C26 1_555 1_555
C22 C23 1_555 1_555
C25 C26 1_555 1_555
C27 C28 1_555 1_555
C31 C32 1_555 1_555
N5A C33A 1_555 1_555
C4A C5A 1_555 1_555
C5A C6A 1_555 1_555
C14A C15A 1_555 1_555
C15A C16A 1_555 1_555
C17A C26A 1_555 1_555
C22A C23A 1_555 1_555
C25A C26A 1_555 1_555
C27A C28A 1_555 1_555
C31A C32A 1_555 1_555

#END
