
#######################################################################
#
#                 Cambridge Crystallographic Data Centre
#                                CCDC 
#
#######################################################################
#
# If this CIF has been generated from an entry in the Cambridge 
# Structural Database, then it will include bibliographic, chemical, 
# crystal, experimental, refinement or atomic coordinate data resulting 
# from the CCDC's data processing and validation procedures.
#
#######################################################################

data_PINRUB
_symmetry_cell_setting           monoclinic
_symmetry_space_group_name_H-M   'C 2'
_symmetry_Int_Tables_number      5
_space_group_name_Hall           'C 2y'
loop_
_symmetry_equiv_pos_site_id
_symmetry_equiv_pos_as_xyz
1 x,y,z
2 -x,y,-z
3 1/2+x,1/2+y,z
4 1/2-x,1/2+y,-z
_cell_length_a                   45.995(9)
_cell_length_b                   15.366(3)
_cell_length_c                   32.009(6)
_cell_angle_alpha                90
_cell_angle_beta                 134.07(3)
_cell_angle_gamma                90
_cell_volume                     16254.2
loop_
_atom_site_label
_atom_site_type_symbol
_atom_site_fract_x
_atom_site_fract_y
_atom_site_fract_z
Cd1 Cd 0.63987(4) 0.91158(8) 0.78884(6)
Cd2 Cd 0.89026(4) 0.66329(8) 0.76354(8)
O1 O 0.6760(5) 1.0533(11) 0.8464(8)
O2 O 0.6997(5) 0.9647(11) 0.8261(8)
O3 O 0.6968(8) 1.0926(12) 0.7536(12)
O4 O 0.8069(9) 1.029(2) 0.9426(10)
O5 O 0.9150(5) 0.9125(19) 0.8694(8)
O6 O 0.8043(5) 0.9885(9) 0.6811(8)
O7 O 0.8647(5) 0.7917(8) 0.7648(8)
O8 O 0.9174(5) 0.8055(9) 0.7770(12)
O9 O 0.8455(3) 0.5843(7) 0.7547(6)
O10 O 0.8682(4) 0.4953(8) 0.7272(8)
O11 O 0.7621(3) 0.5293(7) 0.6423(5)
O12 O 0.8266(4) 0.4278(10) 0.8226(6)
O13 O 0.6047(3) 0.6870(8) 0.6122(5)
O14 O 0.6759(4) 0.6119(8) 0.7997(5)
O15 O 0.6498(4) 0.7945(7) 0.7532(6)
O16 O 0.5962(3) 0.7850(7) 0.7405(5)
O17 O 0.9374(4) 0.6305(17) 0.8698(8)
N1 N 0.7538(9) 1.0734(15) 0.8488(15)
N2 N 0.8616(4) 0.9626(11) 0.7774(8)
N3 N 0.7919(4) 0.4702(7) 0.7291(5)
N4 N 0.6383(4) 0.6396(7) 0.7043(6)
N5 N 0.9401(5) 0.6166(11) 0.7696(8)
N6 N 1.0923(4) 0.4750(11) 0.7847(7)
C1 C 0.6992(7) 1.0375(16) 0.8431(11)
C2 C 0.7311(9) 1.110(2) 0.8662(14)
H1 H 0.7499 1.1180 0.9091
C3 C 0.7079(12) 1.194(2) 0.8323(19)
H2 H 0.6827 1.1758 0.7929
H3 H 0.6996 1.2198 0.8510
C4 C 0.7247(9) 1.269(2) 0.8235(13)
H4 H 0.7342 1.2442 0.8058
C5 C 0.7611(10) 1.310(3) 0.8817(15)
H5 H 0.7519 1.3434 0.8967
H6 H 0.7750 1.3491 0.8760
H7 H 0.7798 1.2644 0.9095
C6 C 0.6931(11) 1.340(2) 0.7824(15)
H8 H 0.6917 1.3491 0.7508
H9 H 0.7009 1.3938 0.8041
H10 H 0.6666 1.3208 0.7661
C7 C 0.7341(9) 1.0704(13) 0.7936(13)
C8 C 0.7912(12) 1.036(2) 0.8922(18)
C9 C 0.8151(9) 1.0041(15) 0.8793(12)
C10 C 0.8510(9) 0.965(2) 0.9189(12)
H11 H 0.8606 0.9483 0.9553
C11 C 0.8739(7) 0.9489(16) 0.9070(9)
H12 H 0.9008 0.9275 0.9361
C12 C 0.8559(6) 0.9656(16) 0.8488(10)
C13 C 0.8172(5) 0.9969(11) 0.8069(8)
C14 C 0.7954(6) 1.0179(11) 0.8199(9)
C15 C 0.7567(6) 1.0484(12) 0.7791(11)
C16 C 0.7371(7) 1.0516(13) 0.7199(10)
H13 H 0.7095 1.0679 0.6903
C17 C 0.7585(6) 1.0311(11) 0.7060(9)
H14 H 0.7454 1.0358 0.6667
C18 C 0.7978(5) 1.0042(8) 0.7466(8)
C19 C 0.8196(6) 0.9858(11) 0.7317(10)
C20 C 0.8791(7) 0.9470(14) 0.8341(10)
C21 C 0.8843(6) 0.9362(9) 0.7628(12)
H15 H 0.8657 0.9479 0.7203
C22 C 0.9218(6) 0.9857(13) 0.7906(10)
H16 H 0.9424 0.9711 0.8325
H17 H 0.9322 0.9656 0.7737
C23 C 0.9175(8) 1.0811(16) 0.7849(11)
H18 H 0.9101 1.1082 0.8048
C24 C 0.8905(8) 1.1079(19) 0.7217(10)
H19 H 0.9066 1.1113 0.7121
H20 H 0.8785 1.1650 0.7156
H21 H 0.8689 1.0648 0.6965
C25 C 0.9595(13) 1.107(3) 0.810(3)
H22 H 0.9791 1.1048 0.8530
H23 H 0.9583 1.1664 0.7981
H24 H 0.9677 1.0668 0.7966
C26 C 0.8883(7) 0.8357(10) 0.7685(12)
C27 C 0.8475(5) 0.5107(9) 0.7376(8)
C28 C 0.8242(5) 0.4360(8) 0.7344(8)
H25 H 0.8438 0.4075 0.7734
C29 C 0.8110(4) 0.3664(7) 0.6923(6)
H26 H 0.8346 0.3488 0.6988
H27 H 0.7906 0.3912 0.6526
C30 C 0.7932(3) 0.2857(7) 0.6943(5)
H28 H 0.7707 0.3044 0.6905
C31 C 0.8247(4) 0.2388(11) 0.7526(6)
H29 H 0.8509 0.2391 0.7644
H30 H 0.8161 0.1786 0.7487
H31 H 0.8273 0.2687 0.7821
C32 C 0.7757(4) 0.2214(9) 0.6446(7)
H32 H 0.7461 0.2267 0.6145
H33 H 0.7832 0.1619 0.6599
H34 H 0.7866 0.2347 0.6278
C33 C 0.7618(4) 0.5198(9) 0.6805(7)
C34 C 0.7973(5) 0.4625(9) 0.7794(8)
C35 C 0.7660(5) 0.5028(9) 0.7740(7)
C36 C 0.7691(7) 0.5022(12) 0.8199(10)
H35 H 0.7920 0.4761 0.8556
C37 C 0.7397(6) 0.5385(12) 0.8154(7)
H36 H 0.7427 0.5366 0.8479
C38 C 0.7068(5) 0.5769(11) 0.7659(8)
C39 C 0.7020(4) 0.5822(8) 0.7165(6)
C40 C 0.7331(4) 0.5444(8) 0.7229(6)
C41 C 0.7296(4) 0.5561(7) 0.6747(6)
C42 C 0.6982(4) 0.5990(10) 0.6266(6)
H37 H 0.6970 0.6065 0.5960
C43 C 0.6666(4) 0.6334(9) 0.6203(6)
H38 H 0.6448 0.6648 0.5864
C44 C 0.6686(4) 0.6200(9) 0.6645(6)
C45 C 0.6342(4) 0.6527(11) 0.6570(6)
C46 C 0.6736(5) 0.6111(10) 0.7600(7)
C47 C 0.6054(5) 0.6761(12) 0.6990(8)
H39 H 0.5843 0.6969 0.6578
C48 C 0.6191(4) 0.7547(10) 0.7334(7)
C49 C 0.5651(6) 0.5315(16) 0.6621(11)
H40 H 0.5863 0.5022 0.6659
C50 C 0.5844(6) 0.6094(12) 0.7033(7)
H41 H 0.5628 0.6392 0.6977
H42 H 0.6040 0.5865 0.7435
C51 C 0.5312(11) 0.566(2) 0.5986(7)
H43 H 0.5051 0.5658 0.5872
H44 H 0.5295 0.5275 0.5724
H45 H 0.5379 0.6249 0.5963
C52 C 0.5490(10) 0.4665(15) 0.6775(13)
H46 H 0.5712 0.4459 0.7174
H47 H 0.5369 0.4170 0.6507
H48 H 0.5284 0.4945 0.6744
C53 C 0.9307(5) 0.5760(11) 0.7263(8)
H49 H 0.9031 0.5633 0.6930
C54 C 0.9603(5) 0.5506(11) 0.7277(8)
H50 H 0.9524 0.5221 0.6948
C55 C 1.0010(4) 0.5655(9) 0.7755(6)
C56 C 1.0097(5) 0.6133(12) 0.8201(7)
H51 H 1.0368 0.6301 0.8528
C57 C 0.9797(5) 0.6362(12) 0.8172(9)
H52 H 0.9864 0.6663 0.8489
C58 C 1.1004(5) 0.5074(13) 0.8284(9)
H53 H 1.1281 0.5092 0.8639
C59 C 1.0731(5) 0.5397(11) 0.8290(7)
H54 H 1.0820 0.5630 0.8638
C60 C 1.0318(5) 0.5380(10) 0.7778(7)
C61 C 1.0233(5) 0.5073(16) 0.7305(9)
H55 H 0.9960 0.5076 0.6938
C62 C 1.0550(6) 0.4735(18) 0.7346(8)
H56 H 1.0484 0.4510 0.7012
O18 O 0.6670(4) 0.8424(9) 0.8737(6)
C63 C 0.6844(4) 0.7728(9) 0.8885(6)
H57 H 0.6886 0.7500 0.8655
N7 N 0.6985(5) 0.7245(10) 0.9352(6)
C64 C 0.6933(10) 0.7546(17) 0.9728(10)
H58 H 0.6735 0.8020 0.9535
H59 H 0.7193 0.7757 1.0095
H60 H 0.6837 0.7065 0.9806
C65 C 0.7189(8) 0.6420(13) 0.9492(11)
H61 H 0.7035 0.5955 0.9475
H62 H 0.7461 0.6448 0.9885
H63 H 0.7208 0.6300 0.9212
O19 O 0.6046(5) 0.9748(10) 0.6994(7)
C66 C 0.6114(5) 1.0519(10) 0.7013(7)
H64 H 0.6199 1.0839 0.7336
N8 N 0.6079(6) 1.0966(11) 0.6612(8)
C67 C 0.5951(11) 1.0525(18) 0.6104(10)
H65 H 0.5935 0.9897 0.6139
H66 H 0.6146 1.0639 0.6076
H67 H 0.5684 1.0742 0.5753
C68 C 0.6168(11) 1.1888(12) 0.6673(15)
H68 H 0.6208 1.2050 0.6419
H69 H 0.6415 1.2017 0.7078
H70 H 0.5942 1.2222 0.6563
O20 O 0.8460(4) 0.6932(9) 0.6626(6)
C69 C 0.8084(6) 0.6849(13) 0.6319(8)
H71 H 0.7999 0.6416 0.6427
N9 N 0.7811(4) 0.7314(11) 0.5871(7)
C70 C 0.7908(11) 0.802(3) 0.5691(16)
H72 H 0.8190 0.8192 0.6016
H73 H 0.7729 0.8512 0.5571
H74 H 0.7870 0.7828 0.5364
C71 C 0.7395(6) 0.7143(18) 0.5543(11)
H75 H 0.7272 0.6848 0.5180
H76 H 0.7254 0.7694 0.5453
H77 H 0.7375 0.6771 0.5770
Cd1B Cd 1.13987(4) 0.41158(8) 0.78884(6)
N6B N 0.5923(4) 0.9750(11) 0.7847(7)
Cd3 Cd 1.13261(4) 0.65786(8) 0.99143(4)
Cd4 Cd 0.85572(4) 0.40682(8) 0.46443(5)
O21 O 1.1399(4) 0.5194(8) 1.0401(5)
O22 O 1.0905(4) 0.5412(7) 0.9462(5)
O23 O 1.0070(3) 0.4158(9) 0.9100(5)
O24 O 1.1143(3) 0.3637(8) 0.9327(4)
O25 O 0.9831(3) 0.1887(7) 0.6501(4)
O26 O 0.8744(3) 0.2791(7) 0.6182(4)
O27 O 0.8950(4) 0.3301(7) 0.5478(5)
O28 O 0.8476(4) 0.2384(8) 0.4800(5)
O29 O 0.8340(6) 0.5567(8) 0.4151(6)
O30 O 0.8791(6) 0.5382(8) 0.5127(6)
O31 O 0.9310(5) 0.6664(10) 0.5158(6)
O32 O 0.8546(5) 0.7248(10) 0.5555(6)
O33 O 1.0260(6) 0.8508(11) 0.8389(6)
O34 O 1.1015(7) 0.7954(14) 0.8030(8)
O35 O 1.1418(6) 0.8115(11) 0.9723(6)
O36 O 1.0984(4) 0.7211(10) 0.9028(5)
O37 O 1.1795(7) 0.601(3) 0.9915(11)
N10 N 1.0609(4) 0.3795(7) 0.9230(5)
N11 N 0.9291(3) 0.2244(7) 0.6370(5)
N12 N 0.8927(5) 0.7065(9) 0.5339(6)
N13 N 1.0615(7) 0.8377(11) 0.8166(9)
N14 N 1.3129(5) 0.8591(9) 1.3709(5)
N15 N 1.1798(5) 0.7078(9) 1.0839(6)
C72 C 1.1093(5) 0.4975(10) 0.9916(6)
C73 C 1.0891(5) 0.4093(11) 0.9846(6)
H78 H 1.0719 0.4227 0.9923
C74 C 1.1198(5) 0.3411(11) 1.0297(7)
H79 H 1.1352 0.3214 1.0203
H80 H 1.1392 0.3700 1.0682
C75 C 1.1034(7) 0.2605(17) 1.0355(10)
H81 H 1.0898 0.2190 1.0024
C76 C 1.0749(8) 0.288(2) 1.0455(13)
H82 H 1.0847 0.3433 1.0672
H83 H 1.0756 0.2430 1.0676
H84 H 1.0471 0.2961 1.0078
C77 C 1.1356(8) 0.2175(19) 1.0941(11)
H85 H 1.1559 0.1907 1.0963
H86 H 1.1231 0.1726 1.0992
H87 H 1.1485 0.2612 1.1249
C78 C 1.0779(5) 0.3585(10) 0.9016(6)
C79 C 1.0207(5) 0.3899(9) 0.8907(7)
C80 C 0.9917(4) 0.3623(9) 0.8271(5)
C81 C 0.9502(4) 0.3722(9) 0.7898(6)
H88 H 0.9397 0.3989 0.8038
C82 C 0.9234(4) 0.3438(9) 0.7323(6)
H89 H 0.8951 0.3525 0.7072
C83 C 0.9387(4) 0.3023(8) 0.7119(6)
C84 C 0.9808(4) 0.2962(7) 0.7476(5)
C85 C 1.0075(4) 0.3298(8) 0.8061(5)
C86 C 1.0503(4) 0.3286(10) 0.8407(6)
C87 C 1.0635(4) 0.2985(11) 0.8174(7)
H90 H 1.0917 0.3006 0.8403
C88 C 1.0384(4) 0.2641(11) 0.7614(7)
H91 H 1.0492 0.2426 0.7468
C89 C 0.9975(4) 0.2624(9) 0.7281(6)
C90 C 0.9693(4) 0.2206(10) 0.6684(6)
C91 C 0.9113(4) 0.2695(8) 0.6533(7)
C92 C 0.9021(5) 0.1858(9) 0.5775(6)
H92 H 0.9197 0.1570 0.5738
C93 C 0.8783(5) 0.2588(12) 0.5314(7)
C94 C 0.8729(5) 0.1155(9) 0.5660(7)
H93 H 0.8548 0.1429 0.5688
H94 H 0.8558 0.0930 0.5259
C95 C 0.8947(6) 0.0403(12) 0.6080(9)
H95 H 0.9119 0.0640 0.6483
C96 C 0.8631(8) -0.0220(16) 0.5960(15)
H96 H 0.8519 0.0044 0.6103
H97 H 0.8761 -0.0774 0.6161
H98 H 0.8411 -0.0323 0.5541
C97 C 0.9224(10) -0.0092(14) 0.6053(17)
H99 H 0.9125 -0.0012 0.5668
H100 H 0.9222 -0.0713 0.6121
H101 H 0.9500 0.0134 0.6351
C98 C 0.8580(9) 0.5819(14) 0.4681(10)
C99 C 0.8551(7) 0.6799(8) 0.4735(7)
H102 H 0.8317 0.6894 0.4694
C100 C 0.8479(8) 0.7366(13) 0.4274(9)
H103 H 0.8668 0.7169 0.4242
H104 H 0.8202 0.7249 0.3894
C101 C 0.8526(8) 0.8332(13) 0.4364(10)
H105 H 0.8804 0.8439 0.4754
C102 C 0.8503(13) 0.8776(19) 0.3909(14)
H106 H 0.8756 0.8674 0.4009
H107 H 0.8463 0.9403 0.3905
H108 H 0.8276 0.8532 0.3523
C103 C 0.8240(9) 0.8668(16) 0.4392(10)
H109 H 0.7962 0.8561 0.4020
H110 H 0.8282 0.9296 0.4469
H111 H 0.8285 0.8373 0.4705
C104 C 0.9290(7) 0.6957(11) 0.5505(7)
C105 C 0.8889(6) 0.7263(12) 0.5738(7)
C106 C 0.9251(5) 0.7453(9) 0.6320(6)
C107 C 0.9226(6) 0.7752(10) 0.6723(8)
H112 H 0.8966 0.7770 0.6589
C108 C 0.9537(6) 0.8000(11) 0.7260(9)
H113 H 0.9507 0.8171 0.7513
C109 C 0.9918(8) 0.8001(11) 0.7443(6)
C110 C 0.9978(7) 0.7720(11) 0.7075(10)
C111 C 0.9635(6) 0.7465(9) 0.6507(6)
C112 C 0.9676(6) 0.7143(12) 0.6121(7)
C113 C 1.0020(9) 0.7118(18) 0.6306(11)
H114 H 1.0057 0.6911 0.6066
C114 C 1.0369(7) 0.7413(15) 0.6903(12)
H115 H 1.0630 0.7409 0.7039
C115 C 1.0330(7) 0.7699(14) 0.7275(9)
C116 C 1.0687(6) 0.8028(14) 0.7881(11)
C117 C 1.0294(7) 0.8292(12) 0.8042(9)
C118 C 1.0999(8) 0.8699(14) 0.8793(9)
H116 H 1.1219 0.8761 0.8800
C119 C 1.1125(6) 0.7973(16) 0.9203(8)
C120 C 1.0966(10) 0.9585(16) 0.8982(13)
H117 H 1.0817 0.9470 0.9096
H118 H 1.1245 0.9741 0.9344
C121 C 1.0790(11) 1.038(2) 0.8634(16)
H119 H 1.0521 1.0238 0.8240
C122 C 1.1082(14) 1.065(3) 0.857(2)
H120 H 1.1023 1.1249 0.8429
H121 H 1.1047 1.0259 0.8299
H122 H 1.1361 1.0613 0.8954
C123 C 1.0733(18) 1.110(3) 0.889(2)
H123 H 1.0615 1.1609 0.8638
H124 H 1.0995 1.1255 0.9277
H125 H 1.0551 1.0900 0.8933
C124 C 1.2764(7) 0.8336(10) 1.3449(8)
H126 H 1.2691 0.8344 1.3663
C125 C 1.2488(6) 0.8064(11) 1.2893(7)
H127 H 1.2226 0.7885 1.2718
C126 C 1.2599(7) 0.8050(12) 1.2570(8)
C127 C 1.2984(5) 0.8333(11) 1.2854(7)
H128 H 1.3068 0.8362 1.2655
C128 C 1.3240(6) 0.8570(11) 1.3424(7)
H129 H 1.3510 0.8727 1.3624
C129 C 1.1769(8) 0.6829(16) 1.1210(10)
H130 H 1.1579 0.6391 1.1092
C130 C 1.2010(6) 0.7191(11) 1.1769(7)
H131 H 1.1963 0.7060 1.2008
C131 C 1.2309(6) 0.7727(10) 1.1951(7)
C132 C 1.2353(6) 0.7989(12) 1.1585(8)
H132 H 1.2559 0.8387 1.1713
C133 C 1.2086(6) 0.7653(11) 1.1023(7)
H133 H 1.2109 0.7836 1.0764
O38 O 1.0876(5) 0.7115(11) 0.9952(7)
C134 C 1.0587(5) 0.7585(11) 0.9598(6)
H134 H 1.0534 0.7738 0.9262
N16 N 1.0332(4) 0.7911(10) 0.9640(7)
C135 C 1.0393(8) 0.771(2) 1.0140(11)
H135 H 1.0245 0.7177 1.0063
H136 H 1.0293 0.8192 1.0211
H137 H 1.0682 0.7623 1.0482
C136 C 0.9993(7) 0.8468(17) 0.9193(11)
H138 H 1.0092 0.8975 0.9136
H139 H 0.9858 0.8662 0.9313
H140 H 0.9802 0.8142 0.8828
O39 O 0.9073(4) 0.3997(13) 0.4678(6)
C137 C 0.9345(5) 0.3465(10) 0.4964(7)
H141 H 0.9280 0.2885 0.4821
N17 N 0.9734(4) 0.3625(13) 0.5470(7)
C138 C 0.9859(6) 0.4495(17) 0.5718(11)
H142 H 0.9758 0.4618 0.5899
H143 H 0.9747 0.4921 0.5410
H144 H 1.0155 0.4531 0.6011
C139 C 1.0038(7) 0.2944(19) 0.5779(12)
H145 H 0.9946 0.2452 0.5517
H146 H 1.0082 0.2749 0.6111
H147 H 1.0293 0.3169 0.5919
O40 O 0.8025(4) 0.4257(11) 0.4598(6)
C140 C 0.8152(5) 0.4329(11) 0.5082(8)
H148 H 0.8381 0.4000 0.5396
N18 N 0.7974(5) 0.4859(11) 0.5174(7)
C141 C 0.7679(10) 0.556(2) 0.4795(15)
H149 H 0.7503 0.5637 0.4863
H150 H 0.7515 0.5410 0.4387
H151 H 0.7824 0.6108 0.4885
C142 C 0.8147(9) 0.491(2) 0.5768(10)
H152 H 0.8171 0.4317 0.5908
H153 H 0.7970 0.5255 0.5771
H154 H 0.8415 0.5176 0.6023
Cd4B Cd 1.35572(4) 0.90682(8) 1.46443(5)
N14B N 0.8129(5) 0.3591(9) 0.3709(5)
O41 O 0.5682(8) 0.9678(19) 0.3875(9)
O42 O 0.8293(5) 0.6851(16) 1.0988(7)
O43 O 0.7247(6) 0.9876(16) 1.0331(10)
C143 C 0.7325(5) 0.9590(14) 1.0065(7)
H155 H 0.7111 0.9574 0.9653
N19 N 0.7693(5) 0.9289(12) 1.0303(8)
C144 C 0.8037(6) 0.929(3) 1.0930(9)
H156 H 0.7944 0.9418 1.1121
H157 H 0.8231 0.9736 1.1035
H158 H 0.8168 0.8719 1.1056
C145 C 0.7756(9) 0.896(2) 0.9947(12)
H159 H 0.7649 0.8365 0.9820
H160 H 0.8046 0.8955 1.0174
H161 H 0.7615 0.9333 0.9605
loop_
_geom_bond_atom_site_label_1
_geom_bond_atom_site_label_2
_geom_bond_site_symmetry_1
_geom_bond_site_symmetry_2
Cd1 O1 1_555 1_555
Cd2 O7 1_555 1_555
O1 C1 1_555 1_555
O2 Cd1 1_555 1_555
O3 C7 1_555 1_555
O4 C8 1_555 1_555
O5 C20 1_555 1_555
O6 C19 1_555 1_555
O7 C26 1_555 1_555
O8 Cd2 1_555 1_555
O9 Cd2 1_555 1_555
O10 Cd2 1_555 1_555
O11 C33 1_555 1_555
O12 C34 1_555 1_555
O13 C45 1_555 1_555
O14 C46 1_555 1_555
O15 Cd1 1_555 1_555
O16 Cd1 1_555 1_555
O17 Cd2 1_555 1_555
N1 C2 1_555 1_555
N2 C19 1_555 1_555
N3 C28 1_555 1_555
N4 C45 1_555 1_555
N5 Cd2 1_555 1_555
N6 C58 1_555 1_555
C1 O2 1_555 1_555
C2 C1 1_555 1_555
H1 C2 1_555 1_555
C3 C2 1_555 1_555
H2 C3 1_555 1_555
H3 C3 1_555 1_555
C4 C3 1_555 1_555
H4 C4 1_555 1_555
C5 C4 1_555 1_555
H5 C5 1_555 1_555
H6 C5 1_555 1_555
H7 C5 1_555 1_555
C6 C4 1_555 1_555
H8 C6 1_555 1_555
H9 C6 1_555 1_555
H10 C6 1_555 1_555
C7 N1 1_555 1_555
C8 N1 1_555 1_555
C9 C8 1_555 1_555
C10 C9 1_555 1_555
H11 C10 1_555 1_555
C11 C10 1_555 1_555
H12 C11 1_555 1_555
C12 C11 1_555 1_555
C13 C12 1_555 1_555
C14 C9 1_555 1_555
C15 C7 1_555 1_555
C16 C15 1_555 1_555
H13 C16 1_555 1_555
C17 C16 1_555 1_555
H14 C17 1_555 1_555
C18 C13 1_555 1_555
C19 C18 1_555 1_555
C20 N2 1_555 1_555
C21 N2 1_555 1_555
H15 C21 1_555 1_555
C22 C21 1_555 1_555
H16 C22 1_555 1_555
H17 C22 1_555 1_555
C23 C22 1_555 1_555
H18 C23 1_555 1_555
C24 C23 1_555 1_555
H19 C24 1_555 1_555
H20 C24 1_555 1_555
H21 C24 1_555 1_555
C25 C23 1_555 1_555
H22 C25 1_555 1_555
H23 C25 1_555 1_555
H24 C25 1_555 1_555
C26 O8 1_555 1_555
C27 O9 1_555 1_555
C28 C27 1_555 1_555
H25 C28 1_555 1_555
C29 C28 1_555 1_555
H26 C29 1_555 1_555
H27 C29 1_555 1_555
C30 C29 1_555 1_555
H28 C30 1_555 1_555
C31 C30 1_555 1_555
H29 C31 1_555 1_555
H30 C31 1_555 1_555
H31 C31 1_555 1_555
C32 C30 1_555 1_555
H32 C32 1_555 1_555
H33 C32 1_555 1_555
H34 C32 1_555 1_555
C33 N3 1_555 1_555
C34 N3 1_555 1_555
C35 C34 1_555 1_555
C36 C35 1_555 1_555
H35 C36 1_555 1_555
C37 C36 1_555 1_555
H36 C37 1_555 1_555
C38 C37 1_555 1_555
C39 C38 1_555 1_555
C40 C35 1_555 1_555
C41 C33 1_555 1_555
C42 C41 1_555 1_555
H37 C42 1_555 1_555
C43 C42 1_555 1_555
H38 C43 1_555 1_555
C44 C39 1_555 1_555
C45 C44 1_555 1_555
C46 N4 1_555 1_555
C47 N4 1_555 1_555
H39 C47 1_555 1_555
C48 O15 1_555 1_555
C49 H40 1_555 1_555
C50 C47 1_555 1_555
H41 C50 1_555 1_555
H42 C50 1_555 1_555
C51 C49 1_555 1_555
H43 C51 1_555 1_555
H44 C51 1_555 1_555
H45 C51 1_555 1_555
C52 C49 1_555 1_555
H46 C52 1_555 1_555
H47 C52 1_555 1_555
H48 C52 1_555 1_555
C53 N5 1_555 1_555
H49 C53 1_555 1_555
C54 C53 1_555 1_555
H50 C54 1_555 1_555
C55 C54 1_555 1_555
C56 C55 1_555 1_555
H51 C56 1_555 1_555
C57 N5 1_555 1_555
H52 C57 1_555 1_555
C58 H53 1_555 1_555
C59 C58 1_555 1_555
H54 C59 1_555 1_555
C60 C55 1_555 1_555
C61 C60 1_555 1_555
H55 C61 1_555 1_555
C62 N6 1_555 1_555
H56 C62 1_555 1_555
O18 Cd1 1_555 1_555
C63 O18 1_555 1_555
H57 C63 1_555 1_555
N7 C63 1_555 1_555
C64 N7 1_555 1_555
H58 C64 1_555 1_555
H59 C64 1_555 1_555
H60 C64 1_555 1_555
C65 N7 1_555 1_555
H61 C65 1_555 1_555
H62 C65 1_555 1_555
H63 C65 1_555 1_555
O19 Cd1 1_555 1_555
C66 O19 1_555 1_555
H64 C66 1_555 1_555
N8 C66 1_555 1_555
C67 N8 1_555 1_555
H65 C67 1_555 1_555
H66 C67 1_555 1_555
H67 C67 1_555 1_555
C68 N8 1_555 1_555
H68 C68 1_555 1_555
H69 C68 1_555 1_555
H70 C68 1_555 1_555
O20 Cd2 1_555 1_555
C69 O20 1_555 1_555
H71 C69 1_555 1_555
N9 C69 1_555 1_555
C70 N9 1_555 1_555
H72 C70 1_555 1_555
H73 C70 1_555 1_555
H74 C70 1_555 1_555
C71 N9 1_555 1_555
H75 C71 1_555 1_555
H76 C71 1_555 1_555
H77 C71 1_555 1_555
Cd3 O21 1_555 1_555
Cd4 O27 1_555 1_555
O21 C72 1_555 1_555
O22 Cd3 1_555 1_555
O23 C79 1_555 1_555
O24 C78 1_555 1_555
O25 C90 1_555 1_555
O26 C91 1_555 1_555
O27 C93 1_555 1_555
O28 Cd4 1_555 1_555
O29 Cd4 1_555 1_555
O30 Cd4 1_555 1_555
O31 C104 1_555 1_555
O32 C105 1_555 1_555
O33 C117 1_555 1_555
O34 C116 1_555 1_555
O35 Cd3 1_555 1_555
O36 Cd3 1_555 1_555
O37 Cd3 1_555 1_555
N10 C73 1_555 1_555
N11 C90 1_555 1_555
N12 C99 1_555 1_555
N13 C116 1_555 1_555
N14 C124 1_555 1_555
N15 Cd3 1_555 1_555
C72 O22 1_555 1_555
C73 C72 1_555 1_555
H78 C73 1_555 1_555
C74 C73 1_555 1_555
H79 C74 1_555 1_555
H80 C74 1_555 1_555
C75 C74 1_555 1_555
H81 C75 1_555 1_555
C76 C75 1_555 1_555
H82 C76 1_555 1_555
H83 C76 1_555 1_555
H84 C76 1_555 1_555
C77 C75 1_555 1_555
H85 C77 1_555 1_555
H86 C77 1_555 1_555
H87 C77 1_555 1_555
C78 N10 1_555 1_555
C79 N10 1_555 1_555
C80 C79 1_555 1_555
C81 C80 1_555 1_555
H88 C81 1_555 1_555
C82 C81 1_555 1_555
H89 C82 1_555 1_555
C83 C82 1_555 1_555
C84 C83 1_555 1_555
C85 C80 1_555 1_555
C86 C78 1_555 1_555
C87 C86 1_555 1_555
H90 C87 1_555 1_555
C88 C87 1_555 1_555
H91 C88 1_555 1_555
C89 C84 1_555 1_555
C90 C89 1_555 1_555
C91 N11 1_555 1_555
C92 N11 1_555 1_555
H92 C92 1_555 1_555
C93 O28 1_555 1_555
C94 C92 1_555 1_555
H93 C94 1_555 1_555
H94 C94 1_555 1_555
C95 C94 1_555 1_555
H95 C95 1_555 1_555
C96 C95 1_555 1_555
H96 C96 1_555 1_555
H97 C96 1_555 1_555
H98 C96 1_555 1_555
C97 C95 1_555 1_555
H99 C97 1_555 1_555
H100 C97 1_555 1_555
H101 C97 1_555 1_555
C98 O29 1_555 1_555
C99 C98 1_555 1_555
H102 C99 1_555 1_555
C100 C99 1_555 1_555
H103 C100 1_555 1_555
H104 C100 1_555 1_555
C101 C100 1_555 1_555
H105 C101 1_555 1_555
C102 C101 1_555 1_555
H106 C102 1_555 1_555
H107 C102 1_555 1_555
H108 C102 1_555 1_555
C103 C101 1_555 1_555
H109 C103 1_555 1_555
H110 C103 1_555 1_555
H111 C103 1_555 1_555
C104 N12 1_555 1_555
C105 N12 1_555 1_555
C106 C105 1_555 1_555
C107 C106 1_555 1_555
H112 C107 1_555 1_555
C108 C107 1_555 1_555
H113 C108 1_555 1_555
C109 C108 1_555 1_555
C110 C109 1_555 1_555
C111 C106 1_555 1_555
C112 C104 1_555 1_555
C113 C112 1_555 1_555
H114 C113 1_555 1_555
C114 C113 1_555 1_555
H115 C114 1_555 1_555
C115 C110 1_555 1_555
C116 C115 1_555 1_555
C117 N13 1_555 1_555
C118 N13 1_555 1_555
H116 C118 1_555 1_555
C119 O35 1_555 1_555
C120 C118 1_555 1_555
H117 C120 1_555 1_555
H118 C120 1_555 1_555
C121 C120 1_555 1_555
H119 C121 1_555 1_555
C122 C121 1_555 1_555
H120 C122 1_555 1_555
H121 C122 1_555 1_555
H122 C122 1_555 1_555
C123 C121 1_555 1_555
H123 C123 1_555 1_555
H124 C123 1_555 1_555
H125 C123 1_555 1_555
C124 H126 1_555 1_555
C125 C124 1_555 1_555
H127 C125 1_555 1_555
C126 C125 1_555 1_555
C127 C126 1_555 1_555
H128 C127 1_555 1_555
C128 N14 1_555 1_555
H129 C128 1_555 1_555
C129 N15 1_555 1_555
H130 C129 1_555 1_555
C130 C129 1_555 1_555
H131 C130 1_555 1_555
C131 C126 1_555 1_555
C132 C131 1_555 1_555
H132 C132 1_555 1_555
C133 N15 1_555 1_555
H133 C133 1_555 1_555
O38 Cd3 1_555 1_555
C134 O38 1_555 1_555
H134 C134 1_555 1_555
N16 C134 1_555 1_555
C135 N16 1_555 1_555
H135 C135 1_555 1_555
H136 C135 1_555 1_555
H137 C135 1_555 1_555
C136 N16 1_555 1_555
H138 C136 1_555 1_555
H139 C136 1_555 1_555
H140 C136 1_555 1_555
O39 Cd4 1_555 1_555
C137 O39 1_555 1_555
H141 C137 1_555 1_555
N17 C137 1_555 1_555
C138 N17 1_555 1_555
H142 C138 1_555 1_555
H143 C138 1_555 1_555
H144 C138 1_555 1_555
C139 N17 1_555 1_555
H145 C139 1_555 1_555
H146 C139 1_555 1_555
H147 C139 1_555 1_555
O40 Cd4 1_555 1_555
C140 O40 1_555 1_555
H148 C140 1_555 1_555
N18 C140 1_555 1_555
C141 N18 1_555 1_555
H149 C141 1_555 1_555
H150 C141 1_555 1_555
H151 C141 1_555 1_555
C142 N18 1_555 1_555
H152 C142 1_555 1_555
H153 C142 1_555 1_555
H154 C142 1_555 1_555
O43 C143 1_555 1_555
C143 H155 1_555 1_555
N19 C143 1_555 1_555
C144 N19 1_555 1_555
H156 C144 1_555 1_555
H157 C144 1_555 1_555
H158 C144 1_555 1_555
C145 N19 1_555 1_555
H159 C145 1_555 1_555
H160 C145 1_555 1_555
H161 C145 1_555 1_555
Cd1B N6 1_555 1_555
N6B Cd1 1_555 1_555
Cd4B N14 1_555 1_555
N14B Cd4 1_555 1_555
O10 C27 1_555 1_555
O16 C48 1_555 1_555
C12 C20 1_555 1_555
C13 C14 1_555 1_555
C14 C15 1_555 1_555
C17 C18 1_555 1_555
C21 C26 1_555 1_555
C38 C46 1_555 1_555
C39 C40 1_555 1_555
C40 C41 1_555 1_555
C43 C44 1_555 1_555
C47 C48 1_555 1_555
C49 C50 1_555 1_555
C56 C57 1_555 1_555
C59 C60 1_555 1_555
C61 C62 1_555 1_555
O30 C98 1_555 1_555
O36 C119 1_555 1_555
C83 C91 1_555 1_555
C84 C85 1_555 1_555
C85 C86 1_555 1_555
C88 C89 1_555 1_555
C92 C93 1_555 1_555
C109 C117 1_555 1_555
C110 C111 1_555 1_555
C111 C112 1_555 1_555
C114 C115 1_555 1_555
C118 C119 1_555 1_555
C127 C128 1_555 1_555
C130 C131 1_555 1_555
C132 C133 1_555 1_555

#END
