
#######################################################################
#
#                 Cambridge Crystallographic Data Centre
#                                CCDC 
#
#######################################################################
#
# If this CIF has been generated from an entry in the Cambridge 
# Structural Database, then it will include bibliographic, chemical, 
# crystal, experimental, refinement or atomic coordinate data resulting 
# from the CCDC's data processing and validation procedures.
#
#######################################################################

data_PINRAH
_symmetry_cell_setting           monoclinic
_symmetry_space_group_name_H-M   'C 2'
_symmetry_Int_Tables_number      5
_space_group_name_Hall           'C 2y'
loop_
_symmetry_equiv_pos_site_id
_symmetry_equiv_pos_as_xyz
1 x,y,z
2 -x,y,-z
3 1/2+x,1/2+y,z
4 1/2-x,1/2+y,-z
_cell_length_a                   14.943(7)
_cell_length_b                   11.568(7)
_cell_length_c                   19.366(10)
_cell_angle_alpha                90
_cell_angle_beta                 90.045(19)
_cell_angle_gamma                90
_cell_volume                     3347.62
loop_
_atom_site_label
_atom_site_type_symbol
_atom_site_fract_x
_atom_site_fract_y
_atom_site_fract_z
Co1 Co 0.2668(2) 0.2753(3) 0.38109(19)
Mo1 Mo 0.0000 0.0506(2) 0.5000
N1 N 0.2051(14) 0.415(2) 0.3334(13)
N2 N 0.3861(13) 0.3038(17) 0.3087(12)
H1 H 0.4192 0.3687 0.3313
N3 N 0.1912(15) 0.1868(19) 0.2914(13)
H2 H 0.1477 0.1326 0.3136
N4 N 0.3411(16) 0.1261(19) 0.3934(14)
N5 N 0.1584(14) 0.2249(17) 0.4403(12)
N6 N -0.1636(12) -0.1241(17) 0.4498(10)
N7 N 0.0722(15) -0.082(2) 0.3567(15)
N8 N -0.0849(16) 0.176(2) 0.3594(15)
C1 C 0.2188(16) 0.527(2) 0.3476(16)
H3 H 0.2514 0.5445 0.3884
C2 C 0.1892(19) 0.621(3) 0.3072(18)
H4 H 0.1958 0.6987 0.3224
C3 C 0.1499(19) 0.595(3) 0.2441(18)
H5 H 0.1359 0.6551 0.2126
C4 C 0.131(2) 0.485(3) 0.2269(19)
H6 H 0.1003 0.4658 0.1856
C5 C 0.1603(18) 0.398(3) 0.2734(17)
C6 C 0.1376(17) 0.270(3) 0.2548(15)
H7 H 0.0737 0.2557 0.2652
H8 H 0.1463 0.2588 0.2046
C7 C 0.249(2) 0.116(3) 0.2499(16)
C8 C 0.243(2) -0.009(2) 0.2616(16)
H9 H 0.2003 -0.0403 0.2926
C9 C 0.3014(19) -0.082(3) 0.2272(15)
H10 H 0.3006 -0.1617 0.2376
C10 C 0.3618(19) -0.041(2) 0.1772(16)
C11 C 0.4158(18) -0.120(3) 0.1425(15)
H11 H 0.4095 -0.2008 0.1509
C12 C 0.4790(19) -0.080(3) 0.0953(16)
H12 H 0.5165 -0.1310 0.0700
C13 C 0.4837(17) 0.038(3) 0.0877(14)
H13 H 0.5292 0.0673 0.0584
C14 C 0.4295(18) 0.115(2) 0.1182(15)
H14 H 0.4337 0.1947 0.1073
C15 C 0.3650(17) 0.074(2) 0.1674(14)
C16 C 0.3081(19) 0.155(2) 0.1991(15)
C17 C 0.3208(16) 0.283(2) 0.1931(13)
C18 C 0.2908(18) 0.334(2) 0.1303(15)
C19 C 0.2438(17) 0.272(3) 0.0790(14)
H15 H 0.2351 0.1907 0.0834
C20 C 0.2104(19) 0.331(2) 0.0219(16)
H16 H 0.1755 0.2914 -0.0114
C21 C 0.228(2) 0.449(3) 0.0132(16)
H17 H 0.2074 0.4859 -0.0276
C22 C 0.2714(18) 0.510(2) 0.0593(15)
H18 H 0.2797 0.5907 0.0527
C23 C 0.3066(18) 0.454(2) 0.1200(15)
C24 C 0.3513(17) 0.518(2) 0.1695(14)
H19 H 0.3655 0.5964 0.1608
C25 C 0.3754(16) 0.469(2) 0.2306(14)
H20 H 0.4000 0.5155 0.2663
C26 C 0.3641(17) 0.351(2) 0.2407(15)
C27 C 0.4482(17) 0.210(2) 0.3129(16)
H21 H 0.5064 0.2398 0.3295
H22 H 0.4576 0.1781 0.2660
C28 C 0.4191(19) 0.115(2) 0.3588(18)
C29 C 0.4727(19) 0.017(2) 0.3728(16)
H23 H 0.5302 0.0114 0.3522
C30 C 0.444(2) -0.069(3) 0.4155(18)
H24 H 0.4795 -0.1348 0.4240
C31 C 0.360(2) -0.057(3) 0.4461(19)
H25 H 0.3350 -0.1188 0.4721
C32 C 0.3138(17) 0.050(3) 0.4373(16)
H26 H 0.2620 0.0653 0.4641
C33 C 0.1026(18) 0.164(2) 0.4640(16)
C34 C -0.1060(15) -0.063(2) 0.4702(13)
C35 C 0.0491(17) -0.034(3) 0.4069(18)
C36 C -0.053(2) 0.133(3) 0.410(2)
Co1A Co -0.2668(2) 0.2753(3) 0.61891(19)
N1A N -0.2051(14) 0.415(2) 0.6666(13)
N2A N -0.3861(13) 0.3038(17) 0.6913(12)
H1A H -0.4192 0.3687 0.6687
N3A N -0.1912(15) 0.1868(19) 0.7086(13)
H2A H -0.1477 0.1326 0.6864
N4A N -0.3411(16) 0.1261(19) 0.6066(14)
N5A N -0.1584(14) 0.2249(17) 0.5597(12)
N6A N 0.1636(12) -0.1241(17) 0.5502(10)
N7A N -0.0722(15) -0.082(2) 0.6433(15)
N8A N 0.0849(16) 0.176(2) 0.6406(15)
C1A C -0.2188(16) 0.527(2) 0.6524(16)
H3A H -0.2514 0.5445 0.6116
C2A C -0.1892(19) 0.621(3) 0.6928(18)
H4A H -0.1958 0.6987 0.6776
C3A C -0.1499(19) 0.595(3) 0.7559(18)
H5A H -0.1359 0.6551 0.7874
C4A C -0.131(2) 0.485(3) 0.7731(19)
H6A H -0.1003 0.4658 0.8144
C5A C -0.1603(18) 0.398(3) 0.7266(17)
C6A C -0.1376(17) 0.270(3) 0.7452(15)
H7A H -0.0737 0.2557 0.7348
H8A H -0.1463 0.2588 0.7954
C7A C -0.249(2) 0.116(3) 0.7501(16)
C8A C -0.243(2) -0.009(2) 0.7384(16)
H9A H -0.2003 -0.0403 0.7074
C9A C -0.3014(19) -0.082(3) 0.7728(15)
H10A H -0.3006 -0.1617 0.7624
C10A C -0.3618(19) -0.041(2) 0.8228(16)
C11A C -0.4158(18) -0.120(3) 0.8575(15)
H11A H -0.4095 -0.2008 0.8491
C12A C -0.4790(19) -0.080(3) 0.9047(16)
H12A H -0.5165 -0.1310 0.9300
C13A C -0.4837(17) 0.038(3) 0.9123(14)
H13A H -0.5292 0.0673 0.9416
C14A C -0.4295(18) 0.115(2) 0.8818(15)
H14A H -0.4337 0.1947 0.8927
C15A C -0.3650(17) 0.074(2) 0.8326(14)
C16A C -0.3081(19) 0.155(2) 0.8009(15)
C17A C -0.3208(16) 0.283(2) 0.8069(13)
C18A C -0.2908(18) 0.334(2) 0.8697(15)
C19A C -0.2438(17) 0.272(3) 0.9210(14)
H15A H -0.2351 0.1907 0.9166
C20A C -0.2104(19) 0.331(2) 0.9781(16)
H16A H -0.1755 0.2914 1.0114
C21A C -0.228(2) 0.449(3) 0.9868(16)
H17A H -0.2074 0.4859 1.0276
C22A C -0.2714(18) 0.510(2) 0.9407(15)
H18A H -0.2797 0.5907 0.9473
C23A C -0.3066(18) 0.454(2) 0.8800(15)
C24A C -0.3513(17) 0.518(2) 0.8305(14)
H19A H -0.3655 0.5964 0.8392
C25A C -0.3754(16) 0.469(2) 0.7694(14)
H20A H -0.4000 0.5155 0.7337
C26A C -0.3641(17) 0.351(2) 0.7593(15)
C27A C -0.4482(17) 0.210(2) 0.6871(16)
H21A H -0.5064 0.2398 0.6705
H22A H -0.4576 0.1781 0.7340
C28A C -0.4191(19) 0.115(2) 0.6412(18)
C29A C -0.4727(19) 0.017(2) 0.6272(16)
H23A H -0.5302 0.0114 0.6478
C30A C -0.444(2) -0.069(3) 0.5845(18)
H24A H -0.4795 -0.1348 0.5760
C31A C -0.360(2) -0.057(3) 0.5539(19)
H25A H -0.3350 -0.1188 0.5279
C32A C -0.3138(17) 0.050(3) 0.5627(16)
H26A H -0.2620 0.0653 0.5359
C33A C -0.1026(18) 0.164(2) 0.5360(16)
C34A C 0.1060(15) -0.063(2) 0.5298(13)
C35A C -0.0491(17) -0.034(3) 0.5931(18)
C36A C 0.053(2) 0.133(3) 0.590(2)
Co1B Co -0.2332(2) -0.2247(3) 0.38109(19)
Co1C Co 0.2332(2) -0.2247(3) 0.61891(19)
N6B N 0.3364(12) 0.3759(17) 0.4498(10)
N6C N -0.3364(12) 0.3759(17) 0.5502(10)
O1 O 0.526(4) 0.607(4) 0.043(3)
O2 O 0.536(4) 0.332(5) 0.034(4)
O3 O 0.422(3) 0.457(4) -0.102(3)
loop_
_geom_bond_atom_site_label_1
_geom_bond_atom_site_label_2
_geom_bond_site_symmetry_1
_geom_bond_site_symmetry_2
Co1 N1 1_555 1_555
Mo1 C33 1_555 1_555
N1 C1 1_555 1_555
N2 Co1 1_555 1_555
H1 N2 1_555 1_555
N3 Co1 1_555 1_555
H2 N3 1_555 1_555
N4 Co1 1_555 1_555
N5 Co1 1_555 1_555
N6 C34 1_555 1_555
N7 C35 1_555 1_555
N8 C36 1_555 1_555
C1 H3 1_555 1_555
C2 C1 1_555 1_555
H4 C2 1_555 1_555
C3 C2 1_555 1_555
H5 C3 1_555 1_555
C4 C3 1_555 1_555
H6 C4 1_555 1_555
C5 N1 1_555 1_555
C6 N3 1_555 1_555
H7 C6 1_555 1_555
H8 C6 1_555 1_555
C7 N3 1_555 1_555
C8 C7 1_555 1_555
H9 C8 1_555 1_555
C9 C8 1_555 1_555
H10 C9 1_555 1_555
C10 C9 1_555 1_555
C11 C10 1_555 1_555
H11 C11 1_555 1_555
C12 C11 1_555 1_555
H12 C12 1_555 1_555
C13 C12 1_555 1_555
H13 C13 1_555 1_555
C14 C13 1_555 1_555
H14 C14 1_555 1_555
C15 C10 1_555 1_555
C16 C7 1_555 1_555
C17 C16 1_555 1_555
C18 C17 1_555 1_555
C19 C18 1_555 1_555
H15 C19 1_555 1_555
C20 C19 1_555 1_555
H16 C20 1_555 1_555
C21 C20 1_555 1_555
H17 C21 1_555 1_555
C22 C21 1_555 1_555
H18 C22 1_555 1_555
C23 C18 1_555 1_555
C24 C23 1_555 1_555
H19 C24 1_555 1_555
C25 C24 1_555 1_555
H20 C25 1_555 1_555
C26 N2 1_555 1_555
C27 N2 1_555 1_555
H21 C27 1_555 1_555
H22 C27 1_555 1_555
C28 N4 1_555 1_555
C29 C28 1_555 1_555
H23 C29 1_555 1_555
C30 C29 1_555 1_555
H24 C30 1_555 1_555
C31 C30 1_555 1_555
H25 C31 1_555 1_555
C32 N4 1_555 1_555
H26 C32 1_555 1_555
C33 N5 1_555 1_555
C34 Mo1 1_555 1_555
C35 Mo1 1_555 1_555
C36 Mo1 1_555 1_555
Co1A N1A 1_555 1_555
N1A C1A 1_555 1_555
N2A Co1A 1_555 1_555
H1A N2A 1_555 1_555
N3A Co1A 1_555 1_555
H2A N3A 1_555 1_555
N4A Co1A 1_555 1_555
N5A Co1A 1_555 1_555
N6A C34A 1_555 1_555
N7A C35A 1_555 1_555
N8A C36A 1_555 1_555
C1A H3A 1_555 1_555
C2A C1A 1_555 1_555
H4A C2A 1_555 1_555
C3A C2A 1_555 1_555
H5A C3A 1_555 1_555
C4A C3A 1_555 1_555
H6A C4A 1_555 1_555
C5A N1A 1_555 1_555
C6A N3A 1_555 1_555
H7A C6A 1_555 1_555
H8A C6A 1_555 1_555
C7A N3A 1_555 1_555
C8A C7A 1_555 1_555
H9A C8A 1_555 1_555
C9A C8A 1_555 1_555
H10A C9A 1_555 1_555
C10A C9A 1_555 1_555
C11A C10A 1_555 1_555
H11A C11A 1_555 1_555
C12A C11A 1_555 1_555
H12A C12A 1_555 1_555
C13A C12A 1_555 1_555
H13A C13A 1_555 1_555
C14A C13A 1_555 1_555
H14A C14A 1_555 1_555
C15A C10A 1_555 1_555
C16A C7A 1_555 1_555
C17A C16A 1_555 1_555
C18A C17A 1_555 1_555
C19A C18A 1_555 1_555
H15A C19A 1_555 1_555
C20A C19A 1_555 1_555
H16A C20A 1_555 1_555
C21A C20A 1_555 1_555
H17A C21A 1_555 1_555
C22A C21A 1_555 1_555
H18A C22A 1_555 1_555
C23A C18A 1_555 1_555
C24A C23A 1_555 1_555
H19A C24A 1_555 1_555
C25A C24A 1_555 1_555
H20A C25A 1_555 1_555
C26A N2A 1_555 1_555
C27A N2A 1_555 1_555
H21A C27A 1_555 1_555
H22A C27A 1_555 1_555
C28A N4A 1_555 1_555
C29A C28A 1_555 1_555
H23A C29A 1_555 1_555
C30A C29A 1_555 1_555
H24A C30A 1_555 1_555
C31A C30A 1_555 1_555
H25A C31A 1_555 1_555
C32A N4A 1_555 1_555
H26A C32A 1_555 1_555
C33A Mo1 1_555 1_555
C34A Mo1 1_555 1_555
C35A Mo1 1_555 1_555
C36A Mo1 1_555 1_555
Co1B N6 1_555 1_555
Co1C N6A 1_555 1_555
N6B Co1 1_555 1_555
N6C Co1A 1_555 1_555
C4 C5 1_555 1_555
C5 C6 1_555 1_555
C14 C15 1_555 1_555
C15 C16 1_555 1_555
C17 C26 1_555 1_555
C22 C23 1_555 1_555
C25 C26 1_555 1_555
C27 C28 1_555 1_555
C31 C32 1_555 1_555
N5A C33A 1_555 1_555
C4A C5A 1_555 1_555
C5A C6A 1_555 1_555
C14A C15A 1_555 1_555
C15A C16A 1_555 1_555
C17A C26A 1_555 1_555
C22A C23A 1_555 1_555
C25A C26A 1_555 1_555
C27A C28A 1_555 1_555
C31A C32A 1_555 1_555

#END
