
#######################################################################
#
#                 Cambridge Crystallographic Data Centre
#                                CCDC 
#
#######################################################################
#
# If this CIF has been generated from an entry in the Cambridge 
# Structural Database, then it will include bibliographic, chemical, 
# crystal, experimental, refinement or atomic coordinate data resulting 
# from the CCDC's data processing and validation procedures.
#
#######################################################################

data_PINTAJ
_symmetry_cell_setting           monoclinic
_symmetry_space_group_name_H-M   'C c'
_symmetry_Int_Tables_number      9
_space_group_name_Hall           'C -2yc'
loop_
_symmetry_equiv_pos_site_id
_symmetry_equiv_pos_as_xyz
1 x,y,z
2 x,-y,1/2+z
3 1/2+x,1/2+y,z
4 1/2+x,1/2-y,1/2+z
_cell_length_a                   35.4086(10)
_cell_length_b                   10.2025(3)
_cell_length_c                   24.5709(8)
_cell_angle_alpha                90
_cell_angle_beta                 107.170(2)
_cell_angle_gamma                90
_cell_volume                     8480.8
loop_
_atom_site_label
_atom_site_type_symbol
_atom_site_fract_x
_atom_site_fract_y
_atom_site_fract_z
C1 C 0.30876(15) 1.0440(5) 0.4114(3)
C2 C 0.2835(2) 0.8683(6) 0.3148(3)
C3 C 0.33179(18) 1.0732(7) 0.3199(3)
C4 C 0.3024(2) 1.3586(7) 0.3178(3)
C5 C 0.2277(2) 1.4055(6) 0.3094(3)
C6 C 0.27584(19) 1.3073(6) 0.4076(3)
C7 C 0.16935(16) 1.1815(7) 0.2897(3)
C8 C 0.21184(15) 1.1283(5) 0.3925(3)
C9 C 0.18908(18) 0.9327(7) 0.3036(3)
C10 C 0.22168(13) 0.6549(4) 0.4593(2)
C11 C 0.18849(18) 0.6559(6) 0.4126(3)
H1 H 0.1854 0.7213 0.3841
C12 C 0.1595(2) 0.5607(7) 0.4074(3)
H2 H 0.1364 0.5624 0.3756
C13 C 0.16390(18) 0.4655(6) 0.4473(3)
H3 H 0.1444 0.3989 0.4427
C14 C 0.19630(19) 0.4656(5) 0.4941(3)
H4 H 0.1989 0.4013 0.5229
C15 C 0.22527(17) 0.5590(5) 0.4996(3)
H5 H 0.2481 0.5569 0.5318
C16 C 0.30532(14) 0.6797(4) 0.4800(2)
C17 C 0.31661(16) 0.6312(5) 0.4348(3)
H6 H 0.3008 0.6502 0.3971
C18 C 0.35005(18) 0.5563(6) 0.4427(3)
H7 H 0.3578 0.5272 0.4109
C19 C 0.37242(16) 0.5235(5) 0.4975(3)
H8 H 0.3949 0.4685 0.5035
C20 C 0.36172(17) 0.5709(6) 0.5425(3)
H9 H 0.3770 0.5503 0.5803
C21 C 0.32838(16) 0.6497(6) 0.5333(3)
H10 H 0.3216 0.6835 0.5652
C22 C 0.26393(13) 0.8555(4) 0.5336(2)
H11 H 0.2687 0.7870 0.5634
H12 H 0.2869 0.9155 0.5435
C23 C 0.22702(13) 0.9320(4) 0.5331(2)
H13 H 0.2034 0.8757 0.5185
H14 H 0.2242 1.0086 0.5075
C24 C 0.18523(13) 1.0817(4) 0.5979(2)
C25 C 0.17204(14) 1.0940(5) 0.6455(2)
H15 H 0.1861 1.0518 0.6800
C26 C 0.13859(16) 1.1671(5) 0.6433(3)
H16 H 0.1298 1.1753 0.6761
C27 C 0.11820(14) 1.2278(5) 0.5930(3)
H17 H 0.0956 1.2792 0.5916
C28 C 0.13017(15) 1.2148(5) 0.5456(3)
H18 H 0.1156 1.2556 0.5111
C29 C 0.16368(15) 1.1421(5) 0.5475(3)
H19 H 0.1719 1.1335 0.5142
C30 C 0.26895(13) 1.1148(4) 0.6202(2)
C31 C 0.29346(15) 1.1267(5) 0.6759(3)
H20 H 0.2901 1.0692 0.7045
C32 C 0.32253(18) 1.2214(6) 0.6897(3)
H21 H 0.3388 1.2303 0.7279
C33 C 0.32783(18) 1.3023(6) 0.6484(3)
H22 H 0.3483 1.3661 0.6580
C34 C 0.30411(18) 1.2930(6) 0.5934(3)
H23 H 0.3077 1.3508 0.5651
C35 C 0.27460(16) 1.1978(5) 0.5795(3)
H24 H 0.2582 1.1904 0.5413
C36 C 0.22028(17) 0.5357(5) 0.6628(3)
C37 C 0.2168(3) 0.3956(6) 0.6694(4)
H25 H 0.1984 0.3592 0.6347
H26 H 0.2067 0.3784 0.7019
H27 H 0.2428 0.3546 0.6762
C38 C 0.33366(16) 0.7358(6) 0.6945(3)
C39 C 0.37441(17) 0.6877(8) 0.7118(3)
H28 H 0.3824 0.6666 0.6779
H29 H 0.3762 0.6088 0.7352
H30 H 0.3919 0.7555 0.7340
N1 N 0.22343(13) 0.6449(4) 0.6587(2)
N2 N 0.30292(12) 0.7738(5) 0.6826(2)
O1 O 0.32591(12) 1.0515(4) 0.45908(19)
O2 O 0.2814(2) 0.7619(5) 0.2999(2)
O3 O 0.36088(14) 1.0945(7) 0.3096(3)
O4 O 0.3287(2) 1.4098(6) 0.3076(3)
O5 O 0.20627(19) 1.4896(5) 0.2943(3)
O6 O 0.28419(16) 1.3302(5) 0.4550(2)
O7 O 0.14205(14) 1.2438(7) 0.2695(3)
O8 O 0.20926(11) 1.1631(4) 0.43613(19)
O9 O 0.17183(19) 0.8374(5) 0.2889(2)
P1 P 0.25992(3) 0.77828(11) 0.46506(5)
P2 P 0.23034(3) 0.98810(10) 0.60568(5)
S1 S 0.24601(3) 1.13334(11) 0.26403(5)
Fe1 Fe 0.287750(19) 1.03648(7) 0.33639(3)
Fe2 Fe 0.26259(2) 1.27580(7) 0.33319(3)
Fe3 Fe 0.212077(19) 1.08688(7) 0.32292(3)
Cu1 Cu 0.249739(16) 0.92022(5) 0.39342(2)
Cu2 Cu 0.244997(16) 0.82950(5) 0.67068(2)
S1A S 0.24601(3) 0.86666(11) 0.76403(5)
Cu2A Cu 0.244997(16) 1.17050(5) 0.17068(2)
C40 C 0.09337(16) 1.0788(7) 0.3698(3)
C41 C 0.05610(17) 0.8560(7) 0.3405(3)
C42 C 0.06014(19) 1.0514(9) 0.2604(3)
C43 C -0.03666(15) 0.8569(6) 0.3125(2)
C44 C -0.04968(15) 1.0449(5) 0.2217(3)
C45 C -0.07545(17) 1.0860(5) 0.3075(3)
C46 C 0.0033(3) 1.2731(6) 0.2345(3)
C47 C -0.0287(2) 1.3494(6) 0.3175(3)
C48 C 0.0488(2) 1.3461(7) 0.3358(3)
C49 C 0.03620(14) 0.6550(4) 0.1708(2)
C50 C 0.07016(16) 0.6646(5) 0.2160(3)
H31 H 0.0726 0.7315 0.2437
C51 C 0.10073(18) 0.5766(7) 0.2208(3)
H32 H 0.1241 0.5835 0.2520
C52 C 0.09749(19) 0.4807(6) 0.1815(3)
H33 H 0.1182 0.4188 0.1858
C53 C 0.06367(18) 0.4728(6) 0.1346(3)
H34 H 0.0617 0.4077 0.1062
C54 C 0.03341(16) 0.5594(5) 0.1297(3)
H35 H 0.0103 0.5541 0.0980
C55 C -0.04759(13) 0.6664(4) 0.1500(2)
C56 C -0.07591(15) 0.6637(5) 0.0966(3)
H36 H -0.0728 0.7174 0.0666
C57 C -0.10862(16) 0.5822(6) 0.0875(3)
H37 H -0.1282 0.5829 0.0515
C58 C -0.11314(17) 0.5018(6) 0.1289(3)
H38 H -0.1353 0.4449 0.1217
C59 C -0.08525(19) 0.5032(7) 0.1818(3)
H39 H -0.0885 0.4485 0.2114
C60 C -0.05225(17) 0.5850(6) 0.1918(3)
H40 H -0.0328 0.5840 0.2279
C61 C -0.00893(13) 0.8584(4) 0.0993(2)
H41 H -0.0125 0.7938 0.0681
H42 H -0.0328 0.9144 0.0904
C62 C 0.02733(13) 0.9440(4) 0.1023(2)
H43 H 0.0517 0.8919 0.1178
H44 H 0.0281 1.0190 0.1282
C63 C 0.07061(13) 1.0979(4) 0.0416(2)
C64 C 0.08314(16) 1.1201(5) -0.0062(2)
H45 H 0.0685 1.0839 -0.0418
C65 C 0.11636(16) 1.1937(6) -0.0027(3)
H46 H 0.1242 1.2097 -0.0360
C66 C 0.13820(15) 1.2438(5) 0.0488(3)
H47 H 0.1608 1.2965 0.0513
C67 C 0.12717(14) 1.2171(5) 0.0968(3)
H48 H 0.1430 1.2479 0.1328
C68 C 0.09314(14) 1.1456(5) 0.0933(2)
H49 H 0.0854 1.1296 0.1266
C69 C -0.01350(13) 1.1297(5) 0.0165(2)
C70 C -0.03888(16) 1.1418(5) -0.0384(3)
H50 H -0.0357 1.0858 -0.0676
C71 C -0.06847(17) 1.2340(7) -0.0509(3)
H51 H -0.0852 1.2428 -0.0889
C72 C -0.07414(19) 1.3136(6) -0.0087(3)
H52 H -0.0951 1.3755 -0.0172
C73 C -0.0492(2) 1.3025(6) 0.0456(3)
H53 H -0.0528 1.3574 0.0749
C74 C -0.01920(17) 1.2124(6) 0.0577(3)
H54 H -0.0019 1.2069 0.0954
C75 C -0.07469(15) 0.7265(5) -0.0682(3)
C76 C -0.11053(19) 0.6499(7) -0.0905(4)
H55 H -0.1245 0.6435 -0.0616
H56 H -0.1036 0.5618 -0.1004
H57 H -0.1276 0.6927 -0.1246
C77 C 0.03466(19) 0.5589(6) -0.0319(3)
C78 C 0.0357(4) 0.4194(7) -0.0438(6)
H58 H 0.0264 0.3697 -0.0161
H59 H 0.0628 0.3933 -0.0410
H60 H 0.0185 0.4014 -0.0823
N3 N -0.04654(13) 0.7846(4) -0.0516(2)
N4 N 0.03264(13) 0.6656(4) -0.0248(2)
O10 O 0.12219(13) 1.1146(7) 0.4007(2)
O11 O 0.06261(17) 0.7474(5) 0.3529(2)
O12 O 0.07284(18) 1.0733(8) 0.2231(2)
O13 O -0.04041(14) 0.7500(4) 0.3247(2)
O14 O -0.06509(13) 1.0614(5) 0.17365(19)
O15 O -0.10460(12) 1.1234(5) 0.3128(2)
O16 O -0.0003(3) 1.2963(6) 0.1876(2)
O17 O -0.05129(19) 1.4205(5) 0.3265(3)
O18 O 0.07503(17) 1.4144(6) 0.3552(3)
P3 P -0.00377(3) 0.77143(10) 0.16631(5)
P4 P 0.02510(3) 1.00462(11) 0.03139(5)
S2 S 0.01113(3) 1.10126(11) 0.37367(5)
Fe4 Fe 0.047439(19) 1.02344(8) 0.32428(3)
Fe5 Fe -0.031452(18) 1.02516(7) 0.29731(3)
Fe6 Fe 0.00788(2) 1.24234(7) 0.30723(3)
Cu3 Cu 0.004724(16) 0.90093(5) 0.24179(2)
Cu4 Cu 0.011041(16) 0.85029(5) -0.03391(2)
S2A S 0.01113(3) 0.89874(11) -0.12633(5)
Cu4A Cu 0.011041(16) 1.14971(5) 0.46609(2)
loop_
_geom_bond_atom_site_label_1
_geom_bond_atom_site_label_2
_geom_bond_site_symmetry_1
_geom_bond_site_symmetry_2
C1 O1 1_555 1_555
C2 O2 1_555 1_555
C3 O3 1_555 1_555
C4 O4 1_555 1_555
C5 O5 1_555 1_555
C6 O6 1_555 1_555
C7 O7 1_555 1_555
C8 O8 1_555 1_555
C9 O9 1_555 1_555
C10 C11 1_555 1_555
C11 H1 1_555 1_555
C12 C11 1_555 1_555
H2 C12 1_555 1_555
C13 C12 1_555 1_555
H3 C13 1_555 1_555
C14 C13 1_555 1_555
H4 C14 1_555 1_555
C15 C10 1_555 1_555
H5 C15 1_555 1_555
C16 C17 1_555 1_555
C17 H6 1_555 1_555
C18 C17 1_555 1_555
H7 C18 1_555 1_555
C19 C18 1_555 1_555
H8 C19 1_555 1_555
C20 C19 1_555 1_555
H9 C20 1_555 1_555
C21 C16 1_555 1_555
H10 C21 1_555 1_555
C22 H11 1_555 1_555
H12 C22 1_555 1_555
C23 C22 1_555 1_555
H13 C23 1_555 1_555
H14 C23 1_555 1_555
C24 C25 1_555 1_555
C25 H15 1_555 1_555
C26 C25 1_555 1_555
H16 C26 1_555 1_555
C27 C26 1_555 1_555
H17 C27 1_555 1_555
C28 C27 1_555 1_555
H18 C28 1_555 1_555
C29 C24 1_555 1_555
H19 C29 1_555 1_555
C30 C31 1_555 1_555
C31 H20 1_555 1_555
C32 C31 1_555 1_555
H21 C32 1_555 1_555
C33 C32 1_555 1_555
H22 C33 1_555 1_555
C34 C33 1_555 1_555
H23 C34 1_555 1_555
C35 C30 1_555 1_555
H24 C35 1_555 1_555
C36 C37 1_555 1_555
C37 H25 1_555 1_555
H26 C37 1_555 1_555
H27 C37 1_555 1_555
C38 C39 1_555 1_555
C39 H28 1_555 1_555
H29 C39 1_555 1_555
H30 C39 1_555 1_555
N1 C36 1_555 1_555
N2 C38 1_555 1_555
P1 C10 1_555 1_555
P2 C23 1_555 1_555
S1 Fe1 1_555 1_555
Fe1 C1 1_555 1_555
Fe2 C4 1_555 1_555
Fe3 C7 1_555 1_555
Cu1 C1 1_555 1_555
Cu2 N1 1_555 1_555
C40 O10 1_555 1_555
C41 O11 1_555 1_555
C42 O12 1_555 1_555
C43 O13 1_555 1_555
C44 O14 1_555 1_555
C45 O15 1_555 1_555
C46 O16 1_555 1_555
C47 O17 1_555 1_555
C48 O18 1_555 1_555
C49 C50 1_555 1_555
C50 H31 1_555 1_555
C51 C50 1_555 1_555
H32 C51 1_555 1_555
C52 C51 1_555 1_555
H33 C52 1_555 1_555
C53 C52 1_555 1_555
H34 C53 1_555 1_555
C54 C49 1_555 1_555
H35 C54 1_555 1_555
C55 C56 1_555 1_555
C56 H36 1_555 1_555
C57 C56 1_555 1_555
H37 C57 1_555 1_555
C58 C57 1_555 1_555
H38 C58 1_555 1_555
C59 C58 1_555 1_555
H39 C59 1_555 1_555
C60 C55 1_555 1_555
H40 C60 1_555 1_555
C61 H41 1_555 1_555
H42 C61 1_555 1_555
C62 C61 1_555 1_555
H43 C62 1_555 1_555
H44 C62 1_555 1_555
C63 C64 1_555 1_555
C64 H45 1_555 1_555
C65 C64 1_555 1_555
H46 C65 1_555 1_555
C66 C65 1_555 1_555
H47 C66 1_555 1_555
C67 C66 1_555 1_555
H48 C67 1_555 1_555
C68 C63 1_555 1_555
H49 C68 1_555 1_555
C69 C70 1_555 1_555
C70 H50 1_555 1_555
C71 C70 1_555 1_555
H51 C71 1_555 1_555
C72 C71 1_555 1_555
H52 C72 1_555 1_555
C73 C72 1_555 1_555
H53 C73 1_555 1_555
C74 C69 1_555 1_555
H54 C74 1_555 1_555
C75 C76 1_555 1_555
C76 H55 1_555 1_555
H56 C76 1_555 1_555
H57 C76 1_555 1_555
C77 C78 1_555 1_555
C78 H58 1_555 1_555
H59 C78 1_555 1_555
H60 C78 1_555 1_555
N3 C75 1_555 1_555
N4 C77 1_555 1_555
P3 C49 1_555 1_555
P4 C62 1_555 1_555
S2 Fe4 1_555 1_555
Fe4 C40 1_555 1_555
Fe5 C43 1_555 1_555
Fe6 C46 1_555 1_555
Cu3 C41 1_555 1_555
Cu4 N3 1_555 1_555
S1A Cu2 1_555 1_555
Cu2A S1 1_555 1_555
S2A Cu4 1_555 1_555
Cu4A S2 1_555 1_555
C2 Fe1 1_555 1_555
C2 Cu1 1_555 1_555
C3 Fe1 1_555 1_555
C5 Fe2 1_555 1_555
C6 Fe2 1_555 1_555
C8 Fe3 1_555 1_555
C8 Cu1 1_555 1_555
C9 Fe3 1_555 1_555
C9 Cu1 1_555 1_555
C14 C15 1_555 1_555
C16 P1 1_555 1_555
C20 C21 1_555 1_555
C22 P1 1_555 1_555
C24 P2 1_555 1_555
C28 C29 1_555 1_555
C30 P2 1_555 1_555
C34 C35 1_555 1_555
N2 Cu2 1_555 1_555
P1 Cu1 1_555 1_555
P2 Cu2 1_555 1_555
S1 Fe2 1_555 1_555
S1 Fe3 1_555 1_555
Fe1 Fe2 1_555 1_555
Fe1 Fe3 1_555 1_555
Fe1 Cu1 1_555 1_555
Fe2 Fe3 1_555 1_555
Fe3 Cu1 1_555 1_555
C41 Fe4 1_555 1_555
C42 Fe4 1_555 1_555
C42 Cu3 1_555 1_555
C43 Cu3 1_555 1_555
C44 Fe5 1_555 1_555
C44 Cu3 1_555 1_555
C45 Fe5 1_555 1_555
C47 Fe6 1_555 1_555
C48 Fe6 1_555 1_555
C53 C54 1_555 1_555
C55 P3 1_555 1_555
C59 C60 1_555 1_555
C61 P3 1_555 1_555
C63 P4 1_555 1_555
C67 C68 1_555 1_555
C69 P4 1_555 1_555
C73 C74 1_555 1_555
N4 Cu4 1_555 1_555
P3 Cu3 1_555 1_555
P4 Cu4 1_555 1_555
S2 Fe5 1_555 1_555
S2 Fe6 1_555 1_555
Fe4 Fe5 1_555 1_555
Fe4 Fe6 1_555 1_555
Fe4 Cu3 1_555 1_555
Fe5 Fe6 1_555 1_555
Fe5 Cu3 1_555 1_555

#END
