
#######################################################################
#
#                 Cambridge Crystallographic Data Centre
#                                CCDC 
#
#######################################################################
#
# If this CIF has been generated from an entry in the Cambridge 
# Structural Database, then it will include bibliographic, chemical, 
# crystal, experimental, refinement or atomic coordinate data resulting 
# from the CCDC's data processing and validation procedures.
#
#######################################################################

data_PIOCUA
_symmetry_cell_setting           triclinic
_symmetry_space_group_name_H-M   'P -1'
_symmetry_Int_Tables_number      2
_space_group_name_Hall           '-P 1'
loop_
_symmetry_equiv_pos_site_id
_symmetry_equiv_pos_as_xyz
1 x,y,z
2 -x,-y,-z
_cell_length_a                   9.732(7)
_cell_length_b                   7.380(5)
_cell_length_c                   9.596(7)
_cell_angle_alpha                104.43(8)
_cell_angle_beta                 119.35(8)
_cell_angle_gamma                68.25(8)
_cell_volume                     556.027
loop_
_atom_site_label
_atom_site_type_symbol
_atom_site_fract_x
_atom_site_fract_y
_atom_site_fract_z
Cl1 Cl 0.34310 0.47440 0.23140
Cl2 Cl 0.72720 0.57390 0.41500
Cl3 Cl 0.39400 0.93940 0.21450
Cu1 Cu 0.50000 0.50000 0.50000
Cu2 Cu 0.51810 0.62160 0.17180
C1 C 0.90100 0.20400 0.18700
C2 C 1.01500 0.03400 0.26900
C3 C 0.97200 -0.09300 0.30500
C4 C 0.80600 -0.06300 0.25700
C5 C 0.69100 0.09600 0.18000
C6 C 0.94100 0.34800 0.14400
N1 N 0.74100 0.22500 0.14700
O1 O 0.40700 0.79000 0.50300
O2 O 0.62170 0.38000 0.06340
Cl1A Cl 0.65690 0.52560 0.76860
Cl2A Cl 0.27280 0.42610 0.58500
O1A O 0.59300 0.21000 0.49700
O2A O 0.37830 0.62000 -0.06340
Cu2A Cu 0.48190 0.37840 -0.17180
Cu2A_2 Cu 0.48190 0.37840 0.82820
N1A N 0.25900 0.77500 -0.14700
C1A C 0.09900 0.79600 -0.18700
C5A C 0.30900 0.90400 -0.18000
C2A C -0.01500 0.96600 -0.26900
C6A C 0.05900 0.65200 -0.14400
C4A C 0.19400 1.06300 -0.25700
C3A C 0.02800 1.09300 -0.30500
Cl3A Cl 0.60600 0.06060 0.78550
O2_2 O 0.62170 0.38000 1.06340
O2A_2 O 0.37830 0.62000 0.93660
loop_
_geom_bond_atom_site_label_1
_geom_bond_atom_site_label_2
_geom_bond_site_symmetry_1
_geom_bond_site_symmetry_2
Cl1 Cu1 1_555 1_555
Cl2 Cu1 1_555 1_555
Cl3 Cu2 1_555 1_555
Cu1 O1 1_555 1_555
Cu2 Cl1 1_555 1_555
C1 C2 1_555 1_555
C2 C3 1_555 1_555
C3 C4 1_555 1_555
C4 C5 1_555 1_555
C5 N1 1_555 1_555
C6 C1 1_555 1_555
N1 C1 1_555 1_555
O2 Cu2 1_555 1_555
Cl1A Cu1 1_555 1_555
Cl2A Cu1 1_555 1_555
O1A Cu1 1_555 1_555
O2A Cu2 1_555 1_555
Cu2A O2 1_555 1_555
Cu2A_2 Cl1A 1_555 1_555
N1A O2A 1_555 1_555
C1A N1A 1_555 1_555
C5A N1A 1_555 1_555
C2A C1A 1_555 1_555
C6A C1A 1_555 1_555
C4A C5A 1_555 1_555
C3A C2A 1_555 1_555
Cl3A Cu2A_2 1_555 1_555
O2_2 Cu2A_2 1_555 1_555
O2A_2 Cu2A_2 1_555 1_555
Cl2 Cu2 1_555 1_555
N1 O2 1_555 1_555
Cl2A Cu2A_2 1_555 1_555
O2A Cu2A 1_555 1_555
C4A C3A 1_555 1_555

#END
