
#######################################################################
#
#                 Cambridge Crystallographic Data Centre
#                                CCDC 
#
#######################################################################
#
# If this CIF has been generated from an entry in the Cambridge 
# Structural Database, then it will include bibliographic, chemical, 
# crystal, experimental, refinement or atomic coordinate data resulting 
# from the CCDC's data processing and validation procedures.
#
#######################################################################

data_PIPBUL
_symmetry_cell_setting           orthorhombic
_symmetry_space_group_name_H-M   'P 21 21 21'
_symmetry_Int_Tables_number      19
_space_group_name_Hall           'P 2ac 2ab'
loop_
_symmetry_equiv_pos_site_id
_symmetry_equiv_pos_as_xyz
1 x,y,z
2 1/2+x,1/2-y,-z
3 -x,1/2+y,1/2-z
4 1/2-x,-y,1/2+z
_cell_length_a                   10.556(5)
_cell_length_b                   10.995(6)
_cell_length_c                   13.641(7)
_cell_angle_alpha                90
_cell_angle_beta                 90
_cell_angle_gamma                90
_cell_volume                     1583.22
loop_
_atom_site_label
_atom_site_type_symbol
_atom_site_fract_x
_atom_site_fract_y
_atom_site_fract_z
Bi1 Bi 0.8487(2) 0.2101(3) -0.0123(2)
Mo1 Mo 0.8324(6) -0.0417(7) -0.0809(4)
Br1 Br 1.0993(6) 0.2468(9) -0.0925(5)
O1 O 0.6832(35) -0.1679(69) -0.2436(39)
O2 O 0.8943(37) 0.1069(53) -0.2755(31)
O3 O 0.5487(38) 0.0019(68) -0.0283(33)
C1 C 0.7358(55) -0.1302(70) -0.1759(45)
C2 C 0.8774(52) 0.0560(63) -0.2015(45)
C3 C 0.6597(79) 0.0024(74) -0.0470(53)
C4 C 0.7713(55) 0.3309(65) -0.1298(46)
C5 C 0.6619(54) 0.2815(68) -0.1936(37)
C6 C 0.6184(52) 0.3733(65) -0.2651(44)
C7 C 0.6722(62) 0.4798(69) -0.2706(43)
C8 C 0.7800(45) 0.5152(59) -0.2199(37)
C9 C 0.8195(46) 0.4407(56) -0.1526(39)
C10 C 0.8879(39) -0.1329(46) 0.0640(29)
C11 C 0.9898 -0.0508 0.0485
C12 C 1.0513 -0.0842 -0.0401
C13 C 0.9874 -0.1869 -0.0793
C14 C 0.8864 -0.2170 -0.0149
H1 H 0.6102 0.2151 -0.1716
H2 H 0.5622 0.3381 -0.3125
H3 H 0.6268 0.5399 -0.3076
H4 H 0.8284 0.5836 -0.2425
H5 H 0.8765 0.4760 -0.1057
H6 H 0.8301 -0.1317 0.1184
H7 H 1.0130 0.0156 0.0905
H8 H 1.1234 -0.0443 -0.0685
H9 H 1.0088 -0.2287 -0.1388
H10 H 0.8275 -0.2827 -0.0234
Br1A Br 0.5993(6) 0.2532(9) 0.0925(5)
Bi1A Bi 1.3487(2) 0.2899(3) 0.0123(2)
Bi1A_2 Bi 0.3487(2) 0.2899(3) 0.0123(2)
Mo1A Mo 1.3324(6) 0.5417(7) 0.0809(4)
Br1A_2 Br 1.5993(6) 0.2532(9) 0.0925(5)
C4A C 1.2713(55) 0.1691(65) 0.1298(46)
C1A C 1.2358(55) 0.6302(70) 0.1759(45)
C2A C 1.3774(52) 0.4440(63) 0.2015(45)
C3A C 1.1597(79) 0.4976(74) 0.0470(53)
C10A C 1.3879(39) 0.6329(46) -0.0640(29)
C11A C 1.4898 0.5508 -0.0485
C12A C 1.5513 0.5842 0.0401
C13A C 1.4874 0.6869 0.0793
C14A C 1.3864 0.7170 0.0149
C5A C 1.1619(54) 0.2185(68) 0.1936(37)
C9A C 1.3195(46) 0.0593(56) 0.1526(39)
O1A O 1.1832(35) 0.6679(69) 0.2436(39)
O2A O 1.3943(37) 0.3931(53) 0.2755(31)
O3A O 1.0487(38) 0.4981(68) 0.0283(33)
H6A H 1.3301 0.6317 -0.1184
H7A H 1.5130 0.4844 -0.0905
H8A H 1.6234 0.5443 0.0685
H9A H 1.5088 0.7287 0.1388
H10A H 1.3275 0.7827 0.0234
C6A C 1.1184(52) 0.1267(65) 0.2651(44)
H1A H 1.1102 0.2849 0.1716
C8A C 1.2800(45) -0.0152(59) 0.2199(37)
H5A H 1.3765 0.0240 0.1057
C7A C 1.1722(62) 0.0202(69) 0.2706(43)
H2A H 1.0622 0.1619 0.3125
H4A H 1.3284 -0.0836 0.2425
H3A H 1.1268 -0.0399 0.3076
loop_
_geom_bond_atom_site_label_1
_geom_bond_atom_site_label_2
_geom_bond_site_symmetry_1
_geom_bond_site_symmetry_2
Bi1 Mo1 1_555 1_555
Mo1 C1 1_555 1_555
Br1 Bi1 1_555 1_555
O1 C1 1_555 1_555
O2 C2 1_555 1_555
O3 C3 1_555 1_555
C2 Mo1 1_555 1_555
C3 Mo1 1_555 1_555
C4 Bi1 1_555 1_555
C5 C4 1_555 1_555
C6 C5 1_555 1_555
C7 C6 1_555 1_555
C8 C7 1_555 1_555
C9 C4 1_555 1_555
C10 Mo1 1_555 1_555
C11 Mo1 1_555 1_555
C12 Mo1 1_555 1_555
C13 Mo1 1_555 1_555
C14 Mo1 1_555 1_555
H1 C5 1_555 1_555
H2 C6 1_555 1_555
H3 C7 1_555 1_555
H4 C8 1_555 1_555
H5 C9 1_555 1_555
H6 C10 1_555 1_555
H7 C11 1_555 1_555
H8 C12 1_555 1_555
H9 C13 1_555 1_555
H10 C14 1_555 1_555
Br1A Bi1 1_555 1_555
Bi1A Br1 1_555 1_555
Bi1A_2 Br1A 1_555 1_555
Mo1A Bi1A 1_555 1_555
Br1A_2 Bi1A 1_555 1_555
C4A Bi1A 1_555 1_555
C1A Mo1A 1_555 1_555
C2A Mo1A 1_555 1_555
C3A Mo1A 1_555 1_555
C10A Mo1A 1_555 1_555
C11A Mo1A 1_555 1_555
C12A Mo1A 1_555 1_555
C13A Mo1A 1_555 1_555
C14A Mo1A 1_555 1_555
C5A C4A 1_555 1_555
C9A C4A 1_555 1_555
O1A C1A 1_555 1_555
O2A C2A 1_555 1_555
O3A C3A 1_555 1_555
H6A C10A 1_555 1_555
H7A C11A 1_555 1_555
H8A C12A 1_555 1_555
H9A C13A 1_555 1_555
H10A C14A 1_555 1_555
C6A C5A 1_555 1_555
H1A C5A 1_555 1_555
C8A C9A 1_555 1_555
H5A C9A 1_555 1_555
C7A C6A 1_555 1_555
H2A C6A 1_555 1_555
H4A C8A 1_555 1_555
H3A C7A 1_555 1_555
C8 C9 1_555 1_555
C10 C11 1_555 1_555
C10 C14 1_555 1_555
C11 C12 1_555 1_555
C12 C13 1_555 1_555
C13 C14 1_555 1_555
C10A C11A 1_555 1_555
C10A C14A 1_555 1_555
C11A C12A 1_555 1_555
C12A C13A 1_555 1_555
C13A C14A 1_555 1_555
C8A C7A 1_555 1_555

#END
