
#######################################################################
#
#                 Cambridge Crystallographic Data Centre
#                                CCDC 
#
#######################################################################
#
# If this CIF has been generated from an entry in the Cambridge 
# Structural Database, then it will include bibliographic, chemical, 
# crystal, experimental, refinement or atomic coordinate data resulting 
# from the CCDC's data processing and validation procedures.
#
#######################################################################

data_PIPDEZ
_symmetry_cell_setting           monoclinic
_symmetry_space_group_name_H-M   'P 21/c'
_symmetry_Int_Tables_number      14
_space_group_name_Hall           '-P 2ybc'
loop_
_symmetry_equiv_pos_site_id
_symmetry_equiv_pos_as_xyz
1 x,y,z
2 -x,1/2+y,1/2-z
3 -x,-y,-z
4 x,1/2-y,1/2+z
_cell_length_a                   10.761(25)
_cell_length_b                   9.570(21)
_cell_length_c                   15.854(33)
_cell_angle_alpha                90
_cell_angle_beta                 96.92(12)
_cell_angle_gamma                90
_cell_volume                     1620.8
loop_
_atom_site_label
_atom_site_type_symbol
_atom_site_fract_x
_atom_site_fract_y
_atom_site_fract_z
Mn1 Mn 0.986(34) 0.301(36) 0.638(17)
N1 N 1.031(15) 0.10(13) 0.672(87)
C1 C 1.07(20) -0.01(16) 0.69(12)
S1 S 1.117(53) -0.165(58) 0.723(30)
N2 N 0.94(15) 0.51(15) 0.596(97)
C2 C 0.92(18) 0.61(16) 0.55(11)
S2 S 0.897(52) 0.748(49) 0.492(27)
N3 N 1.16(12) 0.38(15) 0.711(93)
C3 C 1.23(19) 0.49(19) 0.69(11)
C4 C 1.34(17) 0.53(17) 0.74(13)
C5 C 1.31(22) 0.36(20) 0.83(12)
C6 C 1.21(18) 0.32(19) 0.79(13)
N4 N 1.37(13) 0.47(15) 0.81(10)
Cl1 Cl 1.426(48) 0.668(48) 0.699(30)
N5 N 0.80(15) 0.24(17) 0.571(93)
C7 C 0.70(22) 0.30(20) 0.58(10)
C8 C 0.58(20) 0.26(21) 0.54(12)
C9 C 0.68(22) 0.08(17) 0.48(12)
C10 C 0.79(19) 0.13(21) 0.52(11)
N6 N 0.57(13) 0.15(16) 0.488(89)
Cl2 Cl 0.446(48) 0.338(48) 0.566(30)
Mn1A Mn 1.014(34) -0.199(36) 0.862(17)
Mn1B Mn 1.014(34) 0.699(36) 0.362(17)
S1A S 0.883(53) 0.335(58) 0.777(30)
S2B S 1.103(52) 0.252(49) 0.508(27)
loop_
_geom_bond_atom_site_label_1
_geom_bond_atom_site_label_2
_geom_bond_site_symmetry_1
_geom_bond_site_symmetry_2
Mn1 N1 1_555 1_555
N1 C1 1_555 1_555
C1 S1 1_555 1_555
S1 Mn1A 1_555 1_555
N2 Mn1 1_555 1_555
C2 N2 1_555 1_555
S2 C2 1_555 1_555
N3 Mn1 1_555 1_555
C3 N3 1_555 1_555
C4 C3 1_555 1_555
C5 C6 1_555 1_555
C6 N3 1_555 1_555
N4 C4 1_555 1_555
Cl1 C4 1_555 1_555
N5 Mn1 1_555 1_555
C7 N5 1_555 1_555
C8 C7 1_555 1_555
C9 C10 1_555 1_555
C10 N5 1_555 1_555
N6 C8 1_555 1_555
Cl2 C8 1_555 1_555
Mn1B S2 1_555 1_555
S1A Mn1 1_555 1_555
S2B Mn1 1_555 1_555
C5 N4 1_555 1_555
C9 N6 1_555 1_555

#END
