
#######################################################################
#
#                 Cambridge Crystallographic Data Centre
#                                CCDC 
#
#######################################################################
#
# If this CIF has been generated from an entry in the Cambridge 
# Structural Database, then it will include bibliographic, chemical, 
# crystal, experimental, refinement or atomic coordinate data resulting 
# from the CCDC's data processing and validation procedures.
#
#######################################################################

data_PIPFUP
_symmetry_cell_setting           tetragonal
_symmetry_space_group_name_H-M   'P -4 21 c'
_symmetry_Int_Tables_number      114
_space_group_name_Hall           'P -4 2n'
loop_
_symmetry_equiv_pos_site_id
_symmetry_equiv_pos_as_xyz
1 x,y,z
2 y,-x,-z
3 1/2+x,1/2-y,1/2-z
4 -x,-y,z
5 1/2-y,1/2-x,1/2+z
6 -y,x,-z
7 1/2-x,1/2+y,1/2-z
8 1/2+y,1/2+x,1/2+z
_cell_length_a                   21.065
_cell_length_b                   21.065
_cell_length_c                   13.236
_cell_angle_alpha                90
_cell_angle_beta                 90
_cell_angle_gamma                90
_cell_volume                     5873.27
loop_
_atom_site_label
_atom_site_type_symbol
_atom_site_fract_x
_atom_site_fract_y
_atom_site_fract_z
Pr1 Pr 0.32791(4) 0.24391(5) 0.23402(5)
Pr2 Pr 0.18953(3) 0.25609(4) 0.45879(5)
Pr3 Pr 0.52313(4) 0.25290(5) 0.19513(5)
O1 O 0.3595(5) 0.1262(5) 0.2466(7)
O2 O 0.4369(4) 0.1939(5) 0.2844(6)
O3 O 0.2375(5) 0.3178(4) 0.3043(6)
O4 O 0.2611(5) 0.3300(4) 0.1474(6)
O5 O 0.4142(4) 0.2572(6) 0.1006(5)
O6 O 0.3577(4) 0.3022(4) -0.0095(6)
O7 O 0.2306(4) 0.1815(5) 0.2716(7)
O8 O 0.1346(4) 0.2101(4) 0.3036(7)
O9 O 0.3144(4) 0.2347(5) 0.4192(5)
O10 O 0.2917(5) 0.2190(4) 0.5708(6)
O11 O 0.5125(5) 0.1469(5) 0.1125(6)
O12 O 0.6084(5) 0.1654(5) 0.0983(7)
O13 O 0.5209(6) 0.3534(6) 0.0895(8)
O14 O 0.5763(4) 0.2801(4) 0.0148(6)
O15 O 0.3807(5) 0.3404(5) 0.2912(9)
O16 O 0.4842(5) 0.3369(5) 0.3031(8)
O17 O 0.2198(5) 0.3509(4) 0.5485(7)
O18 O 0.2202(5) 0.4315(5) 0.6483(7)
C1 C 0.4166(8) 0.1365(8) 0.2796(10)
C2 C 0.4581(8) 0.0757(9) 0.3093(12)
C3 C 0.2278(6) 0.3481(6) 0.2239(8)
C4 C 0.1905(7) 0.4072(6) 0.2127(12)
C5 C 0.4047(7) 0.2624(11) 0.0047(12)
C6 C 0.4390(7) 0.2341(9) -0.0809(10)
C7 C 0.1691(7) 0.1739(8) 0.2585(11)
C8 C 0.1530(7) 0.1139(7) 0.1999(12)
C9 C 0.3352(7) 0.2186(6) 0.5088(8)
C10 C 0.4035(7) 0.1991(8) 0.5282(12)
C11 C 0.5644(9) 0.1253(9) 0.0784(11)
C12 C 0.5746(8) 0.0635(8) 0.0286(11)
C13 C 0.5501(7) 0.3359(6) 0.0110(11)
C14 C 0.5555(7) 0.3828(7) -0.0741(9)
C15 C 0.4319(9) 0.3621(9) 0.3182(14)
C16 C 0.4360(9) 0.4261(8) 0.3559(13)
C17 C 0.2389(9) 0.4077(7) 0.5652(10)
C18 C 0.2773(7) 0.4356(7) 0.4837(11)
O4D O 0.1700(4) 0.2389(5) 0.6474(6)
O8B O 0.6346(4) 0.2899(4) 0.1964(7)
O10D O 0.2810(4) 0.2083(5) 0.0708(6)
O12B O 0.1084(5) 0.3346(5) 0.4017(7)
O14B O 0.0763(4) 0.2199(4) 0.4852(6)
Pr2D Pr 0.24391(4) 0.31047(3) -0.04121(5)
Pr2B Pr 0.68953(3) 0.24391(4) 0.04121(5)
O6D O 0.1978(4) 0.1423(4) 0.4905(6)
O18E O 0.5685(5) 0.2202(5) 0.3517(7)
Pr1D Pr 0.25609(5) 0.17209(4) 0.73402(5)
Pr3B Pr 0.02313(4) 0.24710(5) 0.30487(5)
Pr3A Pr 0.25290(5) 0.47687(4) 0.80487(5)
loop_
_geom_bond_atom_site_label_1
_geom_bond_atom_site_label_2
_geom_bond_site_symmetry_1
_geom_bond_site_symmetry_2
Pr1 O1 1_555 1_555
Pr2 O3 1_555 1_555
Pr3 O2 1_555 1_555
O1 C1 1_555 1_555
O2 Pr1 1_555 1_555
O3 Pr1 1_555 1_555
O4 Pr1 1_555 1_555
O5 Pr1 1_555 1_555
O6 C5 1_555 1_555
O7 Pr1 1_555 1_555
O8 Pr2 1_555 1_555
O9 Pr1 1_555 1_555
O10 Pr2 1_555 1_555
O11 Pr3 1_555 1_555
O12 Pr3 1_555 1_555
O13 Pr3 1_555 1_555
O14 Pr3 1_555 1_555
O15 Pr1 1_555 1_555
O16 Pr3 1_555 1_555
O17 Pr2 1_555 1_555
O18 C17 1_555 1_555
C1 O2 1_555 1_555
C2 C1 1_555 1_555
C3 O3 1_555 1_555
C4 C3 1_555 1_555
C5 O5 1_555 1_555
C6 C5 1_555 1_555
C7 O7 1_555 1_555
C8 C7 1_555 1_555
C9 O9 1_555 1_555
C10 C9 1_555 1_555
C11 O11 1_555 1_555
C12 C11 1_555 1_555
C13 O13 1_555 1_555
C14 C13 1_555 1_555
C15 O15 1_555 1_555
C16 C15 1_555 1_555
C17 O17 1_555 1_555
C18 C17 1_555 1_555
O4D Pr2 1_555 1_555
O8B Pr3 1_555 1_555
O10D Pr1 1_555 1_555
O12B Pr2 1_555 1_555
O14B Pr2 1_555 1_555
Pr2D O4 1_555 1_555
Pr2B O12 1_555 1_555
O6D Pr2 1_555 1_555
O18E Pr3 1_555 1_555
Pr1D O10 1_555 1_555
Pr3B O8 1_555 1_555
Pr3A O18 1_555 1_555
Pr2 O7 1_555 1_555
Pr2 O9 1_555 1_555
Pr3 O5 1_555 1_555
O4 C3 1_555 1_555
O6 Pr2D 1_555 1_555
O8 C7 1_555 1_555
O10 C9 1_555 1_555
O12 C11 1_555 1_555
O14 C13 1_555 1_555
O14 Pr2B 1_555 1_555
O16 C15 1_555 1_555
O4D Pr1D 1_555 1_555
O8B Pr2B 1_555 1_555
O10D Pr2D 1_555 1_555
O12B Pr3B 1_555 1_555
O14B Pr3B 1_555 1_555

#END
