
#######################################################################
#
#                 Cambridge Crystallographic Data Centre
#                                CCDC 
#
#######################################################################
#
# If this CIF has been generated from an entry in the Cambridge 
# Structural Database, then it will include bibliographic, chemical, 
# crystal, experimental, refinement or atomic coordinate data resulting 
# from the CCDC's data processing and validation procedures.
#
#######################################################################

data_PIPZEV
_symmetry_cell_setting           orthorhombic
_symmetry_space_group_name_H-M   'P b c n'
_symmetry_Int_Tables_number      60
_space_group_name_Hall           '-P 2n 2ab'
loop_
_symmetry_equiv_pos_site_id
_symmetry_equiv_pos_as_xyz
1 x,y,z
2 1/2-x,1/2-y,1/2+z
3 -x,y,1/2-z
4 1/2+x,1/2-y,-z
5 -x,-y,-z
6 1/2+x,1/2+y,1/2-z
7 x,-y,1/2+z
8 1/2-x,1/2+y,z
_cell_length_a                   18.0747(17)
_cell_length_b                   11.8777(11)
_cell_length_c                   12.5442(12)
_cell_angle_alpha                90
_cell_angle_beta                 90
_cell_angle_gamma                90
_cell_volume                     2693.06
loop_
_atom_site_label
_atom_site_type_symbol
_atom_site_fract_x
_atom_site_fract_y
_atom_site_fract_z
Cu1 Cu 0.477002(16) 0.10148(2) 0.44123(3)
Cu2 Cu 0.5000 -0.07454(3) 0.2500
O1 O 0.42693(9) 0.04247(15) 0.20175(14)
O2 O 0.39145(9) 0.13321(14) 0.34932(14)
O3 O 0.15537(10) 0.34739(18) 0.35011(16)
O4 O 0.07511(9) 0.31199(16) 0.21835(15)
O5 O 0.19662(11) 0.06804(19) -0.03434(16)
O6 O 0.46390(9) -0.05894(15) 0.43725(14)
H1 H 0.4229 -0.0919 0.4262
N1 N 0.50426(12) 0.26293(18) 0.42832(17)
N2 N 0.50531(13) 0.43645(18) 0.3668(2)
C1 C 0.38242(13) 0.1022(2) 0.2543(2)
C2 C 0.31134(13) 0.1377(2) 0.2003(2)
C3 C 0.26373(13) 0.2133(2) 0.2499(2)
H2 H 0.2775 0.2480 0.3133
C4 C 0.19496(13) 0.2367(2) 0.2039(2)
C5 C 0.17654(13) 0.1884(2) 0.1076(2)
H3 H 0.1316 0.2065 0.0756
C6 C 0.22386(15) 0.1135(2) 0.0576(2)
C7 C 0.29156(14) 0.0869(2) 0.1040(2)
H4 H 0.3233 0.0359 0.0712
C8 C 0.13817(13) 0.3060(2) 0.2630(2)
C9 C 0.23181(18) -0.0300(3) -0.0747(3)
H5 H 0.2811 -0.0115 -0.0973
H6 H 0.2042 -0.0585 -0.1343
H7 H 0.2339 -0.0863 -0.0199
C10 C 0.57076(17) 0.3123(2) 0.4537(2)
H8 H 0.6091 0.2780 0.4911
C11 C 0.57145(19) 0.4188(3) 0.4157(3)
H9 H 0.6099 0.4703 0.4219
C12 C 0.46695(15) 0.3406(2) 0.3757(2)
H10 H 0.4197 0.3300 0.3481
C13 C 0.48362(18) 0.5362(2) 0.3054(2)
H11 H 0.4998 0.6033 0.3429
H12 H 0.4301 0.5389 0.3001
N1B N 0.49574(12) 0.26293(18) 0.07168(17)
N2B N 0.49469(13) 0.43645(18) 0.1332(2)
C10B C 0.42924(17) 0.3123(2) 0.0463(2)
H8B H 0.3909 0.2780 0.0089
C11B C 0.42855(19) 0.4188(3) 0.0843(3)
H9B H 0.3901 0.4703 0.0781
C12B C 0.53305(15) 0.3406(2) 0.1243(2)
H10B H 0.5803 0.3300 0.1519
C13B C 0.51638(18) 0.5362(2) 0.1946(2)
H11B H 0.5002 0.6033 0.1571
H12B H 0.5699 0.5389 0.1999
Cu1B Cu 0.522998(16) 0.10148(2) 0.05877(3)
O1B O 0.57307(9) 0.04247(15) 0.29825(14)
O2B O 0.60855(9) 0.13321(14) 0.15068(14)
O3B O 0.84463(10) 0.34739(18) 0.14989(16)
O4B O 0.92489(9) 0.31199(16) 0.28165(15)
O5B O 0.80338(11) 0.06804(19) 0.53434(16)
O6B O 0.53610(9) -0.05894(15) 0.06275(14)
H1B H 0.5771 -0.0919 0.0738
C1B C 0.61758(13) 0.1022(2) 0.2457(2)
C2B C 0.68866(13) 0.1377(2) 0.2997(2)
C3B C 0.73627(13) 0.2133(2) 0.2501(2)
H2B H 0.7225 0.2480 0.1867
C4B C 0.80504(13) 0.2367(2) 0.2961(2)
C5B C 0.82346(13) 0.1884(2) 0.3924(2)
H3B H 0.8684 0.2065 0.4244
C6B C 0.77614(15) 0.1135(2) 0.4424(2)
C7B C 0.70844(14) 0.0869(2) 0.3960(2)
H4B H 0.6767 0.0359 0.4288
C8B C 0.86183(13) 0.3060(2) 0.2370(2)
C9B C 0.76819(18) -0.0300(3) 0.5747(3)
H5B H 0.7189 -0.0115 0.5973
H6B H 0.7958 -0.0585 0.6343
H7B H 0.7661 -0.0863 0.5199
Cu1D Cu 0.522998(16) -0.10148(2) 0.55877(3)
Cu1F Cu 0.477002(16) -0.10148(2) -0.05877(3)
Cu2E Cu 0.0000 0.42546(3) 0.2500
Cu2E_2 Cu 1.0000 0.42546(3) 0.2500
O4E O 0.57511(9) -0.18801(16) 0.28165(15)
O4G O 0.42489(9) -0.18801(16) 0.21835(15)
O6D O 0.53610(9) 0.05894(15) 0.56275(14)
O6F O 0.46390(9) 0.05894(15) -0.06275(14)
loop_
_geom_bond_atom_site_label_1
_geom_bond_atom_site_label_2
_geom_bond_site_symmetry_1
_geom_bond_site_symmetry_2
Cu1 O2 1_555 1_555
Cu2 O1 1_555 1_555
O1 C1 1_555 1_555
O2 C1 1_555 1_555
O3 C8 1_555 1_555
O4 C8 1_555 1_555
O5 C6 1_555 1_555
O6 Cu1 1_555 1_555
H1 O6 1_555 1_555
N1 Cu1 1_555 1_555
N2 C11 1_555 1_555
C1 C2 1_555 1_555
C2 C3 1_555 1_555
C3 H2 1_555 1_555
C4 C3 1_555 1_555
C5 C4 1_555 1_555
H3 C5 1_555 1_555
C6 C5 1_555 1_555
C7 C2 1_555 1_555
H4 C7 1_555 1_555
C8 C4 1_555 1_555
C9 O5 1_555 1_555
H5 C9 1_555 1_555
H6 C9 1_555 1_555
H7 C9 1_555 1_555
C10 N1 1_555 1_555
H8 C10 1_555 1_555
C11 C10 1_555 1_555
H9 C11 1_555 1_555
C12 N1 1_555 1_555
H10 C12 1_555 1_555
C13 N2 1_555 1_555
H11 C13 1_555 1_555
H12 C13 1_555 1_555
N1B C10B 1_555 1_555
N2B C11B 1_555 1_555
C10B H8B 1_555 1_555
C11B C10B 1_555 1_555
H9B C11B 1_555 1_555
C12B N1B 1_555 1_555
H10B C12B 1_555 1_555
C13B C13 1_555 1_555
H11B C13B 1_555 1_555
H12B C13B 1_555 1_555
Cu1B O1 1_555 1_555
O1B Cu1 1_555 1_555
O2B Cu1B 1_555 1_555
O3B C8B 1_555 1_555
O4B C8B 1_555 1_555
O5B C6B 1_555 1_555
O6B Cu2 1_555 1_555
H1B O6B 1_555 1_555
C1B O1B 1_555 1_555
C2B C1B 1_555 1_555
C3B C2B 1_555 1_555
H2B C3B 1_555 1_555
C4B C3B 1_555 1_555
C5B C4B 1_555 1_555
H3B C5B 1_555 1_555
C6B C5B 1_555 1_555
C7B C2B 1_555 1_555
H4B C7B 1_555 1_555
C8B C4B 1_555 1_555
C9B O5B 1_555 1_555
H5B C9B 1_555 1_555
H6B C9B 1_555 1_555
H7B C9B 1_555 1_555
Cu1D O6 1_555 1_555
Cu1F O6B 1_555 1_555
Cu2E O4 1_555 1_555
Cu2E_2 O4B 1_555 1_555
O4E Cu2 1_555 1_555
O4G Cu2 1_555 1_555
O6D Cu1 1_555 1_555
O6F Cu1B 1_555 1_555
Cu2 O6 1_555 1_555
Cu2 O1B 1_555 1_555
N2 C12 1_555 1_555
C6 C7 1_555 1_555
N1B Cu1B 1_555 1_555
N2B C12B 1_555 1_555
N2B C13B 1_555 1_555
Cu1B O6B 1_555 1_555
O2B C1B 1_555 1_555
C6B C7B 1_555 1_555
Cu1D O6D 1_555 1_555
Cu1F O6F 1_555 1_555

#END
