
#######################################################################
#
#                 Cambridge Crystallographic Data Centre
#                                CCDC 
#
#######################################################################
#
# If this CIF has been generated from an entry in the Cambridge 
# Structural Database, then it will include bibliographic, chemical, 
# crystal, experimental, refinement or atomic coordinate data resulting 
# from the CCDC's data processing and validation procedures.
#
#######################################################################

data_PIPZAR
_symmetry_cell_setting           orthorhombic
_symmetry_space_group_name_H-M   'P b c n'
_symmetry_Int_Tables_number      60
_space_group_name_Hall           '-P 2n 2ab'
loop_
_symmetry_equiv_pos_site_id
_symmetry_equiv_pos_as_xyz
1 x,y,z
2 1/2-x,1/2-y,1/2+z
3 -x,y,1/2-z
4 1/2+x,1/2-y,-z
5 -x,-y,-z
6 1/2+x,1/2+y,1/2-z
7 x,-y,1/2+z
8 1/2-x,1/2+y,z
_cell_length_a                   16.564(4)
_cell_length_b                   18.302(4)
_cell_length_c                   15.879(3)
_cell_angle_alpha                90
_cell_angle_beta                 90
_cell_angle_gamma                90
_cell_volume                     4813.79
loop_
_atom_site_label
_atom_site_type_symbol
_atom_site_fract_x
_atom_site_fract_y
_atom_site_fract_z
Mn1 Mn 1.04019(3) 0.22421(4) 0.37654(4)
O1 O 0.90001(16) 0.20761(16) 0.24083(18)
O2 O 0.91118(16) 0.23430(16) 0.37684(19)
O3 O 0.66124(16) 0.27227(17) 0.54668(19)
O4 O 0.54318(16) 0.26183(17) 0.48497(18)
O5 O 0.59952(16) 0.21940(18) 0.18216(18)
N1 N 0.5570(2) -0.1563(2) 0.1465(2)
N2 N 0.6279(2) -0.0585(2) 0.1870(2)
N3 N 1.0303(2) 0.1011(2) 0.3802(2)
N4 N 0.9634(2) -0.0027(2) 0.3572(2)
C1 C 0.8708(2) 0.2243(2) 0.3101(3)
C2 C 0.7799(2) 0.2306(2) 0.3168(3)
C3 C 0.7340(2) 0.2210(2) 0.2444(3)
H1 H 0.7590 0.2112 0.1932
C4 C 0.6503(2) 0.2261(2) 0.2493(3)
C5 C 0.6139(2) 0.2392(2) 0.3266(3)
H2 H 0.5579 0.2418 0.3299
C6 C 0.6594(2) 0.2485(2) 0.3987(3)
C7 C 0.7431(2) 0.2447(2) 0.3936(3)
H3 H 0.7744 0.2516 0.4416
C8 C 0.6188(3) 0.2620(2) 0.4821(3)
C9 C 0.6349(3) 0.2118(3) 0.1008(3)
H4 H 0.6712 0.2518 0.0909
H5 H 0.5932 0.2121 0.0588
H6 H 0.6641 0.1666 0.0980
C10 C 1.0758(3) 0.0431(3) 0.4101(3)
C11 C 1.1511(3) 0.0429(3) 0.4481(3)
H7 H 1.1797 0.0860 0.4566
C12 C 1.1821(3) -0.0241(3) 0.4727(3)
H8 H 1.2329 -0.0262 0.4976
C13 C 1.1387(3) -0.0879(3) 0.4610(4)
H9 H 1.1608 -0.1317 0.4798
C14 C 1.0638(3) -0.0892(3) 0.4225(3)
H10 H 1.0351 -0.1323 0.4143
C15 C 1.0347(3) -0.0226(3) 0.3971(3)
C16 C 0.9652(3) 0.0702(3) 0.3491(3)
H11 H 0.9239 0.0966 0.3236
C17 C 0.8986(3) -0.0518(3) 0.3284(3)
H12 H 0.8803 -0.0814 0.3754
H13 H 0.9198 -0.0845 0.2857
C18 C 0.8276(3) -0.0099(3) 0.2924(3)
H14 H 0.8464 0.0208 0.2467
H15 H 0.8055 0.0216 0.3357
C19 C 0.7610(3) -0.0600(3) 0.2597(3)
H16 H 0.7826 -0.0923 0.2168
H17 H 0.7403 -0.0897 0.3054
C20 C 0.6934(3) -0.0141(3) 0.2228(3)
H18 H 0.6714 0.0171 0.2665
H19 H 0.7153 0.0171 0.1791
C21 C 0.5563(3) -0.0323(3) 0.1539(3)
C22 C 0.5272(3) 0.0375(3) 0.1437(3)
H20 H 0.5560 0.0782 0.1619
C23 C 0.4533(4) 0.0442(3) 0.1052(4)
H21 H 0.4321 0.0905 0.0962
C24 C 0.4096(3) -0.0164(4) 0.0794(3)
H22 H 0.3598 -0.0096 0.0534
C25 C 0.4378(3) -0.0863(3) 0.0913(3)
H23 H 0.4078 -0.1269 0.0749
C26 C 0.5128(3) -0.0936(2) 0.1289(3)
C27 C 0.6241(3) -0.1317(3) 0.1802(3)
H24 H 0.6656 -0.1624 0.1980
Mn1B Mn 0.95981(3) 0.22421(4) 0.12346(4)
Mn1C Mn 0.54019(3) 0.27579(4) 0.62346(4)
Mn1E Mn 0.54019(3) -0.27579(4) 0.12346(4)
O1B O 1.09999(16) 0.20761(16) 0.25917(18)
O3C O 1.16124(16) 0.22773(17) 0.45332(19)
O4C O 1.04318(16) 0.23817(17) 0.51503(18)
N1E N 1.0570(2) 0.3437(2) 0.3535(2)
loop_
_geom_bond_atom_site_label_1
_geom_bond_atom_site_label_2
_geom_bond_site_symmetry_1
_geom_bond_site_symmetry_2
Mn1 O2 1_555 1_555
O1 C1 1_555 1_555
O2 C1 1_555 1_555
O3 C8 1_555 1_555
O4 C8 1_555 1_555
O5 C4 1_555 1_555
N1 C26 1_555 1_555
N2 C20 1_555 1_555
N3 Mn1 1_555 1_555
N4 C15 1_555 1_555
C1 C2 1_555 1_555
C2 C3 1_555 1_555
C3 H1 1_555 1_555
C4 C3 1_555 1_555
C5 C4 1_555 1_555
H2 C5 1_555 1_555
C6 C5 1_555 1_555
C7 C2 1_555 1_555
H3 C7 1_555 1_555
C8 C6 1_555 1_555
C9 O5 1_555 1_555
H4 C9 1_555 1_555
H5 C9 1_555 1_555
H6 C9 1_555 1_555
C10 N3 1_555 1_555
C11 C10 1_555 1_555
H7 C11 1_555 1_555
C12 C11 1_555 1_555
H8 C12 1_555 1_555
C13 C12 1_555 1_555
H9 C13 1_555 1_555
C14 C13 1_555 1_555
H10 C14 1_555 1_555
C15 C10 1_555 1_555
C16 N3 1_555 1_555
H11 C16 1_555 1_555
C17 N4 1_555 1_555
H12 C17 1_555 1_555
H13 C17 1_555 1_555
C18 C17 1_555 1_555
H14 C18 1_555 1_555
H15 C18 1_555 1_555
C19 C18 1_555 1_555
H16 C19 1_555 1_555
H17 C19 1_555 1_555
C20 C19 1_555 1_555
H18 C20 1_555 1_555
H19 C20 1_555 1_555
C21 N2 1_555 1_555
C22 C21 1_555 1_555
H20 C22 1_555 1_555
C23 C22 1_555 1_555
H21 C23 1_555 1_555
C24 C23 1_555 1_555
H22 C24 1_555 1_555
C25 C24 1_555 1_555
H23 C25 1_555 1_555
C26 C21 1_555 1_555
C27 N1 1_555 1_555
H24 C27 1_555 1_555
Mn1B O1 1_555 1_555
Mn1C O3 1_555 1_555
Mn1E N1 1_555 1_555
O1B Mn1 1_555 1_555
O3C Mn1 1_555 1_555
O4C Mn1 1_555 1_555
N1E Mn1 1_555 1_555
O4 Mn1C 1_555 1_555
N2 C27 1_555 1_555
N4 C16 1_555 1_555
C6 C7 1_555 1_555
C14 C15 1_555 1_555
C25 C26 1_555 1_555

#END
