
#######################################################################
#
#                 Cambridge Crystallographic Data Centre
#                                CCDC 
#
#######################################################################
#
# If this CIF has been generated from an entry in the Cambridge 
# Structural Database, then it will include bibliographic, chemical, 
# crystal, experimental, refinement or atomic coordinate data resulting 
# from the CCDC's data processing and validation procedures.
#
#######################################################################

data_PIPZOF
_symmetry_cell_setting           triclinic
_symmetry_space_group_name_H-M   'P -1'
_symmetry_Int_Tables_number      2
_space_group_name_Hall           '-P 1'
loop_
_symmetry_equiv_pos_site_id
_symmetry_equiv_pos_as_xyz
1 x,y,z
2 -x,-y,-z
_cell_length_a                   10.809(10)
_cell_length_b                   10.847(10)
_cell_length_c                   12.549(11)
_cell_angle_alpha                93.404(11)
_cell_angle_beta                 90.140(11)
_cell_angle_gamma                118.890(10)
_cell_volume                     1285.12
loop_
_atom_site_label
_atom_site_type_symbol
_atom_site_fract_x
_atom_site_fract_y
_atom_site_fract_z
Cu1 Cu 0.64668(5) 0.62073(5) 0.75472(4)
O1 O 0.4789(3) 0.6301(3) 0.7166(2)
O2 O 0.3682(3) 0.6058(4) 0.8693(3)
O3 O -0.1741(3) 0.6373(3) 0.7133(2)
O4 O -0.0944(3) 0.6014(4) 0.8658(3)
O5 O 0.2003(3) 0.7138(3) 0.4472(2)
O6 O 0.6449(4) 0.5586(4) 0.9521(3)
H1 H 0.6950 0.5365 0.9907
H2 H 0.5637 0.4864 0.9425
N1 N 0.5558(3) 0.4152(3) 0.7107(3)
N2 N 0.5390(4) 0.2014(3) 0.7051(3)
N3 N 0.2299(4) 0.0251(3) 1.0444(3)
N4 N 0.2573(3) 0.1852(3) 1.1756(3)
C1 C 0.3777(4) 0.6217(4) 0.7714(4)
C2 C 0.2648(4) 0.6352(4) 0.7120(3)
C3 C 0.2792(4) 0.6665(4) 0.6063(3)
H3 H 0.3585 0.6765 0.5706
C4 C 0.1761(4) 0.6832(4) 0.5523(3)
C5 C 0.0587(4) 0.6691(4) 0.6049(3)
H4 H -0.0108 0.6794 0.5690
C6 C 0.0444(4) 0.6392(4) 0.7121(3)
C7 C 0.1460(4) 0.6216(4) 0.7648(3)
H5 H 0.1354 0.6006 0.8361
C8 C -0.0842(4) 0.6240(4) 0.7694(4)
C9 C 0.0924(5) 0.7202(5) 0.3872(4)
H6 H 0.0055 0.6333 0.3908
H7 H 0.1188 0.7342 0.3141
H8 H 0.0799 0.7972 0.4161
C10 C 0.4575(4) 0.3286(4) 0.6298(3)
C11 C 0.3755(5) 0.3568(5) 0.5607(3)
H9 H 0.3796 0.4446 0.5633
C12 C 0.2874(5) 0.2489(5) 0.4879(4)
H10 H 0.2303 0.2642 0.4410
C13 C 0.2819(5) 0.1192(5) 0.4830(4)
H11 H 0.2223 0.0501 0.4317
C14 C 0.3610(5) 0.0881(5) 0.5509(3)
H12 H 0.3565 0.0002 0.5473
C15 C 0.4481(4) 0.1955(4) 0.6252(3)
C16 C 0.5986(4) 0.3333(4) 0.7520(3)
H13 H 0.6644 0.3637 0.8088
C17 C 0.5521(5) 0.0840(4) 0.7434(3)
H14 H 0.6347 0.1204 0.7912
H15 H 0.5659 0.0320 0.6833
C18 C 0.4217(5) -0.0155(4) 0.8019(3)
H16 H 0.3401 -0.0557 0.7528
H17 H 0.4343 -0.0923 0.8256
C19 C 0.3936(5) 0.0585(4) 0.8978(3)
H18 H 0.4708 0.0906 0.9504
H19 H 0.3894 0.1405 0.8756
C20 C 0.2564(5) -0.0392(5) 0.9478(3)
H20 H 0.1790 -0.0665 0.8962
H21 H 0.2586 -0.1240 0.9652
C21 C 0.3122(4) 0.1552(4) 1.0907(3)
H22 H 0.3997 0.2181 1.0654
C22 C 0.1272(4) 0.0625(4) 1.1871(3)
C23 C 0.0237(4) 0.0298(5) 1.2614(3)
H23 H 0.0329 0.0950 1.3166
C24 C -0.0935(5) -0.1024(5) 1.2514(4)
H24 H -0.1640 -0.1263 1.3010
C25 C -0.1092(5) -0.2014(5) 1.1685(4)
H25 H -0.1894 -0.2899 1.1642
C26 C -0.0080(5) -0.1701(5) 1.0932(4)
H26 H -0.0181 -0.2346 1.0371
C27 C 0.1101(4) -0.0373(4) 1.1052(3)
Cu1_2 Cu -0.35332(5) 0.62073(5) 0.75472(4)
Cu1A Cu 0.35332(5) 0.37927(5) 1.24528(4)
O3_2 O 0.8259(3) 0.6373(3) 0.7133(2)
N4A N 0.7427(3) 0.8148(3) 0.8244(3)
O7 O 0.7792(5) 0.3371(4) 0.9608(3)
H27 H 0.8536 0.3314 0.9481
H28 H 0.8044 0.4214 0.9465
loop_
_geom_bond_atom_site_label_1
_geom_bond_atom_site_label_2
_geom_bond_site_symmetry_1
_geom_bond_site_symmetry_2
Cu1 O1 1_555 1_555
O1 C1 1_555 1_555
O2 C1 1_555 1_555
O3 C8 1_555 1_555
O4 C8 1_555 1_555
O5 C4 1_555 1_555
O6 Cu1 1_555 1_555
H1 O6 1_555 1_555
H2 O6 1_555 1_555
N1 Cu1 1_555 1_555
N2 C15 1_555 1_555
N3 C20 1_555 1_555
N4 C21 1_555 1_555
C1 C2 1_555 1_555
C2 C3 1_555 1_555
C3 H3 1_555 1_555
C4 C3 1_555 1_555
C5 C4 1_555 1_555
H4 C5 1_555 1_555
C6 C5 1_555 1_555
C7 C2 1_555 1_555
H5 C7 1_555 1_555
C8 C6 1_555 1_555
C9 O5 1_555 1_555
H6 C9 1_555 1_555
H7 C9 1_555 1_555
H8 C9 1_555 1_555
C10 N1 1_555 1_555
C11 C10 1_555 1_555
H9 C11 1_555 1_555
C12 C11 1_555 1_555
H10 C12 1_555 1_555
C13 C12 1_555 1_555
H11 C13 1_555 1_555
C14 C13 1_555 1_555
H12 C14 1_555 1_555
C15 C10 1_555 1_555
C16 N1 1_555 1_555
H13 C16 1_555 1_555
C17 N2 1_555 1_555
H14 C17 1_555 1_555
H15 C17 1_555 1_555
C18 C17 1_555 1_555
H16 C18 1_555 1_555
H17 C18 1_555 1_555
C19 C18 1_555 1_555
H18 C19 1_555 1_555
H19 C19 1_555 1_555
C20 C19 1_555 1_555
H20 C20 1_555 1_555
H21 C20 1_555 1_555
C21 N3 1_555 1_555
H22 C21 1_555 1_555
C22 N4 1_555 1_555
C23 C22 1_555 1_555
H23 C23 1_555 1_555
C24 C23 1_555 1_555
H24 C24 1_555 1_555
C25 C24 1_555 1_555
H25 C25 1_555 1_555
C26 C25 1_555 1_555
H26 C26 1_555 1_555
C27 N3 1_555 1_555
O7 H27 1_555 1_555
H28 O7 1_555 1_555
Cu1_2 O3 1_555 1_555
Cu1A N4 1_555 1_555
O3_2 Cu1 1_555 1_555
N4A Cu1 1_555 1_555
N2 C16 1_555 1_555
C6 C7 1_555 1_555
C14 C15 1_555 1_555
C22 C27 1_555 1_555
C26 C27 1_555 1_555

#END
