
#######################################################################
#
#                 Cambridge Crystallographic Data Centre
#                                CCDC 
#
#######################################################################
#
# If this CIF has been generated from an entry in the Cambridge 
# Structural Database, then it will include bibliographic, chemical, 
# crystal, experimental, refinement or atomic coordinate data resulting 
# from the CCDC's data processing and validation procedures.
#
#######################################################################

data_PIPZIZ
_symmetry_cell_setting           triclinic
_symmetry_space_group_name_H-M   'P -1'
_symmetry_Int_Tables_number      2
_space_group_name_Hall           '-P 1'
loop_
_symmetry_equiv_pos_site_id
_symmetry_equiv_pos_as_xyz
1 x,y,z
2 -x,-y,-z
_cell_length_a                   9.703(2)
_cell_length_b                   9.703(2)
_cell_length_c                   13.090(3)
_cell_angle_alpha                80.909(2)
_cell_angle_beta                 77.613(2)
_cell_angle_gamma                62.896(2)
_cell_volume                     1068.94
loop_
_atom_site_label
_atom_site_type_symbol
_atom_site_fract_x
_atom_site_fract_y
_atom_site_fract_z
Cu1 Cu 0.67900(4) 0.84541(4) 0.60455(3)
O1 O 0.8622(2) 0.6314(2) 0.62336(16)
O2 O 0.8614(3) 0.7688(2) 0.74404(19)
O3 O 1.4196(2) 0.2090(3) 0.51826(16)
O4 O 1.5396(2) 0.0601(2) 0.65100(16)
O5 O 1.2253(3) 0.3679(3) 0.96984(18)
N1 N 0.5356(3) 0.7768(3) 0.70720(19)
N2 N 0.3264(3) 0.7779(3) 0.8129(2)
N3 N 0.0290(3) 0.8896(3) 1.38192(19)
N4 N -0.1806(3) 0.9050(3) 1.49313(18)
C1 C 0.9178(3) 0.6482(3) 0.6974(2)
C2 C 1.0628(3) 0.5136(3) 0.7303(2)
C3 C 1.1750(3) 0.4102(3) 0.6582(2)
H1 H 1.1599 0.4209 0.5891
C4 C 1.3103(3) 0.2904(3) 0.6908(2)
C5 C 1.3320(3) 0.2722(3) 0.7945(2)
H2 H 1.4221 0.1920 0.8159
C6 C 1.2184(3) 0.3747(4) 0.8660(2)
C7 C 1.0849(3) 0.4966(3) 0.8330(2)
H3 H 1.0104 0.5668 0.8804
C8 C 1.4319(3) 0.1781(3) 0.6122(2)
C9 C 1.3669(4) 0.2653(5) 1.0072(3)
H4 H 1.3902 0.1603 0.9980
H5 H 1.3557 0.2777 1.0803
H6 H 1.4508 0.2884 0.9687
C10 C 0.4010(3) 0.8616(4) 0.7627(2)
H7 H 0.3619 0.9680 0.7666
C11 C 0.5480(5) 0.6303(4) 0.7237(4)
H8 H 0.6322 0.5431 0.6949
C12 C 0.4191(5) 0.6307(5) 0.7885(4)
H9 H 0.3985 0.5453 0.8117
C13 C 0.1717(4) 0.8386(4) 0.8799(2)
H10 H 0.1169 0.7798 0.8717
H11 H 0.1110 0.9457 0.8564
C14 C 0.1807(3) 0.8308(4) 0.9942(2)
C15 C 0.2207(4) 0.9320(4) 1.0303(3)
H12 H 0.2447 1.0033 0.9831
C16 C 0.2256(4) 0.9289(4) 1.1357(3)
H13 H 0.2536 0.9974 1.1585
C17 C 0.1893(3) 0.8249(4) 1.2068(2)
C18 C 0.1476(4) 0.7254(4) 1.1720(3)
H14 H 0.1207 0.6563 1.2196
C19 C 0.1453(4) 0.7270(4) 1.0659(3)
H15 H 0.1194 0.6570 1.0431
C20 C 0.1891(4) 0.8254(5) 1.3225(2)
H16 H 0.2478 0.7201 1.3501
H17 H 0.2411 0.8866 1.3314
C21 C -0.0781(4) 1.0416(4) 1.3774(2)
H18 H -0.0646 1.1229 1.3358
C22 C -0.2076(4) 1.0505(4) 1.4453(2)
H19 H -0.3004 1.1405 1.4579
C23 C -0.0369(4) 0.8115(4) 1.4516(2)
H20 H 0.0122 0.7052 1.4686
Cu1_2 Cu -0.32100(4) 0.84541(4) 1.60455(3)
Cu1_3 Cu 1.67900(4) -0.15459(4) 0.60455(3)
Cu1A Cu 1.32100(4) 0.15459(4) 0.39545(3)
O3A O 0.5804(2) 0.7910(3) 0.48174(16)
O4_2 O 0.5396(2) 1.0601(2) 0.65100(16)
N4_2 N 0.8194(3) 0.9050(3) 0.49313(18)
O6 O 0.4128(15) 0.5417(19) 0.4865(13)
H21 H 0.4533 0.6036 0.4851
H22 H 0.4135 0.4528 0.4948
loop_
_geom_bond_atom_site_label_1
_geom_bond_atom_site_label_2
_geom_bond_site_symmetry_1
_geom_bond_site_symmetry_2
Cu1 O1 1_555 1_555
O1 C1 1_555 1_555
O2 Cu1 1_555 1_555
O3 C8 1_555 1_555
O4 C8 1_555 1_555
O5 C6 1_555 1_555
N1 Cu1 1_555 1_555
N2 C10 1_555 1_555
N3 C20 1_555 1_555
N4 C22 1_555 1_555
C1 O2 1_555 1_555
C2 C1 1_555 1_555
C3 C2 1_555 1_555
H1 C3 1_555 1_555
C4 C3 1_555 1_555
C5 C4 1_555 1_555
H2 C5 1_555 1_555
C6 C5 1_555 1_555
C7 C2 1_555 1_555
H3 C7 1_555 1_555
C8 C4 1_555 1_555
C9 O5 1_555 1_555
H4 C9 1_555 1_555
H5 C9 1_555 1_555
H6 C9 1_555 1_555
C10 N1 1_555 1_555
H7 C10 1_555 1_555
C11 N1 1_555 1_555
H8 C11 1_555 1_555
C12 N2 1_555 1_555
H9 C12 1_555 1_555
C13 N2 1_555 1_555
H10 C13 1_555 1_555
H11 C13 1_555 1_555
C14 C13 1_555 1_555
C15 C14 1_555 1_555
H12 C15 1_555 1_555
C16 C15 1_555 1_555
H13 C16 1_555 1_555
C17 C16 1_555 1_555
C18 C17 1_555 1_555
H14 C18 1_555 1_555
C19 C14 1_555 1_555
H15 C19 1_555 1_555
C20 C17 1_555 1_555
H16 C20 1_555 1_555
H17 C20 1_555 1_555
C21 N3 1_555 1_555
H18 C21 1_555 1_555
C22 C21 1_555 1_555
H19 C22 1_555 1_555
C23 N3 1_555 1_555
H20 C23 1_555 1_555
O6 H21 1_555 1_555
H22 O6 1_555 1_555
Cu1_2 N4 1_555 1_555
Cu1_3 O4 1_555 1_555
Cu1A O3 1_555 1_555
O3A Cu1 1_555 1_555
O4_2 Cu1 1_555 1_555
N4_2 Cu1 1_555 1_555
N4 C23 1_555 1_555
C6 C7 1_555 1_555
C11 C12 1_555 1_555
C18 C19 1_555 1_555

#END
