
#######################################################################
#
#                 Cambridge Crystallographic Data Centre
#                                CCDC 
#
#######################################################################
#
# If this CIF has been generated from an entry in the Cambridge 
# Structural Database, then it will include bibliographic, chemical, 
# crystal, experimental, refinement or atomic coordinate data resulting 
# from the CCDC's data processing and validation procedures.
#
#######################################################################

data_PIQBAU
_symmetry_cell_setting           triclinic
_symmetry_space_group_name_H-M   'P -1'
_symmetry_Int_Tables_number      2
_space_group_name_Hall           '-P 1'
loop_
_symmetry_equiv_pos_site_id
_symmetry_equiv_pos_as_xyz
1 x,y,z
2 -x,-y,-z
_cell_length_a                   9.6214(10)
_cell_length_b                   10.0680(11)
_cell_length_c                   12.9326(14)
_cell_angle_alpha                80.0700(10)
_cell_angle_beta                 81.2400(10)
_cell_angle_gamma                62.3150(10)
_cell_volume                     1088.97
loop_
_atom_site_label
_atom_site_type_symbol
_atom_site_fract_x
_atom_site_fract_y
_atom_site_fract_z
Mn1 Mn 0.33502(4) 0.17592(4) 1.09903(3)
O1 O 0.0903(2) 0.37014(18) 1.11292(13)
O2 O 0.25517(19) 0.34916(19) 1.22258(14)
O3 O -0.2987(2) 0.92342(18) 1.02155(13)
O4 O -0.43808(19) 1.04437(17) 1.15891(13)
O5 O -0.1305(3) 0.7212(2) 1.47248(14)
N1 N 0.4071(3) 0.3228(2) 0.97797(15)
N2 N 0.3952(3) 0.5298(2) 0.88095(15)
N3 N 0.2771(3) 0.8186(2) 0.31617(16)
N4 N 0.2627(3) 1.0229(2) 0.21407(16)
C1 C 0.1250(3) 0.4174(2) 1.18433(18)
C2 C 0.0026(3) 0.5637(2) 1.22447(18)
C3 C -0.0979(3) 0.6789(2) 1.15520(18)
H1 H -0.0889 0.6662 1.0845
C4 C -0.2113(3) 0.8124(2) 1.19195(17)
C5 C -0.2266(3) 0.8310(2) 1.29831(18)
H2 H -0.3036 0.9201 1.3231
C6 C -0.1264(3) 0.7160(3) 1.36684(18)
C7 C -0.0096(3) 0.5824(2) 1.32939(18)
H3 H 0.0595 0.5065 1.3750
C8 C -0.3238(3) 0.9353(2) 1.11806(18)
C9 C -0.2308(4) 0.8593(3) 1.5148(2)
H4 H -0.2028 0.9367 1.4797
H5 H -0.2191 0.8468 1.5887
H6 H -0.3382 0.8878 1.5044
C10 C 0.5556(3) 0.2993(3) 0.93735(19)
H7 H 0.6468 0.2097 0.9492
C11 C 0.5502(3) 0.4261(3) 0.87723(19)
H8 H 0.6348 0.4396 0.8410
C12 C 0.3132(3) 0.4640(3) 0.94127(19)
H9 H 0.2044 0.5109 0.9557
C13 C 0.3309(4) 0.6850(3) 0.8281(2)
H10 H 0.3939 0.7322 0.8405
H11 H 0.2243 0.7426 0.8579
C14 C 0.3299(3) 0.6888(3) 0.71036(19)
C15 C 0.2290(4) 0.6497(4) 0.6723(2)
H12 H 0.1585 0.6252 0.7190
C16 C 0.2315(4) 0.6466(4) 0.5650(2)
H13 H 0.1621 0.6211 0.5403
C17 C 0.3356(3) 0.6807(3) 0.49558(19)
C18 C 0.4368(4) 0.7191(3) 0.5338(2)
H14 H 0.5081 0.7423 0.4871
C19 C 0.4340(3) 0.7236(3) 0.6404(2)
H15 H 0.5026 0.7503 0.6648
C20 C 0.3447(4) 0.6702(3) 0.3791(2)
H16 H 0.4541 0.6142 0.3537
H17 H 0.2892 0.6145 0.3692
C21 C 0.3540(3) 0.8955(3) 0.26734(19)
H18 H 0.4611 0.8625 0.2706
C22 C 0.1212(4) 1.0266(4) 0.2300(3)
H19 H 0.0306 1.1044 0.2024
C23 C 0.1273(4) 0.9009(5) 0.2924(3)
H20 H 0.0442 0.8769 0.3142
Mn1_2 Mn -0.66498(4) 1.17592(4) 1.09903(3)
Mn1_3 Mn 0.33502(4) 1.17592(4) 0.09903(3)
Mn1A Mn -0.33502(4) 0.82408(4) 0.90097(3)
O3A O 0.2987(2) 0.07658(18) 0.97845(13)
O4_2 O 0.56192(19) 0.04437(17) 1.15891(13)
N4_2 N 0.2627(3) 0.0229(2) 1.21407(16)
loop_
_geom_bond_atom_site_label_1
_geom_bond_atom_site_label_2
_geom_bond_site_symmetry_1
_geom_bond_site_symmetry_2
Mn1 O1 1_555 1_555
O1 C1 1_555 1_555
O2 Mn1 1_555 1_555
O3 C8 1_555 1_555
O4 C8 1_555 1_555
O5 C6 1_555 1_555
N1 Mn1 1_555 1_555
N2 C11 1_555 1_555
N3 C20 1_555 1_555
N4 C21 1_555 1_555
C1 O2 1_555 1_555
C2 C1 1_555 1_555
C3 C2 1_555 1_555
H1 C3 1_555 1_555
C4 C3 1_555 1_555
C5 C4 1_555 1_555
H2 C5 1_555 1_555
C6 C5 1_555 1_555
C7 C2 1_555 1_555
H3 C7 1_555 1_555
C8 C4 1_555 1_555
C9 O5 1_555 1_555
H4 C9 1_555 1_555
H5 C9 1_555 1_555
H6 C9 1_555 1_555
C10 N1 1_555 1_555
H7 C10 1_555 1_555
C11 C10 1_555 1_555
H8 C11 1_555 1_555
C12 N1 1_555 1_555
H9 C12 1_555 1_555
C13 N2 1_555 1_555
H10 C13 1_555 1_555
H11 C13 1_555 1_555
C14 C13 1_555 1_555
C15 C14 1_555 1_555
H12 C15 1_555 1_555
C16 C15 1_555 1_555
H13 C16 1_555 1_555
C17 C16 1_555 1_555
C18 C17 1_555 1_555
H14 C18 1_555 1_555
C19 C14 1_555 1_555
H15 C19 1_555 1_555
C20 C17 1_555 1_555
H16 C20 1_555 1_555
H17 C20 1_555 1_555
C21 N3 1_555 1_555
H18 C21 1_555 1_555
C22 N4 1_555 1_555
H19 C22 1_555 1_555
C23 N3 1_555 1_555
H20 C23 1_555 1_555
Mn1_2 O4 1_555 1_555
Mn1_3 N4 1_555 1_555
Mn1A O3 1_555 1_555
O3A Mn1 1_555 1_555
O4_2 Mn1 1_555 1_555
N4_2 Mn1 1_555 1_555
N2 C12 1_555 1_555
C6 C7 1_555 1_555
C18 C19 1_555 1_555
C22 C23 1_555 1_555

#END
