
#######################################################################
#
#                 Cambridge Crystallographic Data Centre
#                                CCDC 
#
#######################################################################
#
# If this CIF has been generated from an entry in the Cambridge 
# Structural Database, then it will include bibliographic, chemical, 
# crystal, experimental, refinement or atomic coordinate data resulting 
# from the CCDC's data processing and validation procedures.
#
#######################################################################

data_PIQDIC
_symmetry_cell_setting           monoclinic
_symmetry_space_group_name_H-M   'C 2/c'
_symmetry_Int_Tables_number      15
_space_group_name_Hall           '-C 2yn'
loop_
_symmetry_equiv_pos_site_id
_symmetry_equiv_pos_as_xyz
1 x,y,z
2 1/2+x,1/2+y,z
3 -x,y,1/2-z
4 1/2-x,1/2+y,1/2-z
5 -x,-y,-z
6 1/2-x,1/2-y,-z
7 x,-y,1/2+z
8 1/2+x,1/2-y,1/2+z
_cell_length_a                   13.522(3)
_cell_length_b                   11.289(2)
_cell_length_c                   15.069(3)
_cell_angle_alpha                90
_cell_angle_beta                 93.80(2)
_cell_angle_gamma                90
_cell_volume                     2295.22
loop_
_atom_site_label
_atom_site_type_symbol
_atom_site_fract_x
_atom_site_fract_y
_atom_site_fract_z
Cu1 Cu 0.5000 0.5000 0.5000
Cu2 Cu 0.5000 0.68227(2) 0.2500
Cl1 Cl 0.58042(3) 0.54715(4) 0.33558(3)
Cl2 Cl 0.48012(3) 0.81808(3) 0.35820(3)
O1 O 0.47717(8) 0.32728(9) 0.47422(7)
N1 N 0.30152(9) 0.45953(11) 0.41560(8)
N2 N 0.36130(9) 0.53486(11) 0.46405(8)
C1 C 0.30124(12) 0.60618(14) 0.50648(11)
C2 C 0.20341(13) 0.5775(2) 0.48523(12)
C3 C 0.20556(12) 0.48397(14) 0.42704(12)
C4 C 0.34444(10) 0.36584(12) 0.36242(9)
C5 C 0.26363(12) 0.3097(2) 0.30047(11)
C6 C 0.30571(15) 0.2109(2) 0.24573(12)
C7 C 0.3554(2) 0.1173(2) 0.30489(14)
C8 C 0.43446(13) 0.1713(2) 0.36947(12)
C9 C 0.39485(10) 0.27290(13) 0.42289(9)
H1 H 0.3283(16) 0.6620(18) 0.5429(14)
H2 H 0.1518(16) 0.6097(19) 0.5097(15)
H3 H 0.1551(15) 0.4432(17) 0.3979(13)
H4 H 0.3933(14) 0.4004(17) 0.3282(12)
H5 H 0.2342(17) 0.3686(20) 0.2647(15)
H6 H 0.2134(16) 0.2753(19) 0.3344(14)
H7 H 0.2569(19) 0.1748(21) 0.2126(17)
H8 H 0.3529(18) 0.2406(21) 0.2098(15)
H9 H 0.3094(21) 0.0844(23) 0.3378(17)
H10 H 0.3854(19) 0.0538(23) 0.2711(17)
H11 H 0.4878(20) 0.2049(23) 0.3385(18)
H12 H 0.4597(17) 0.1140(22) 0.4117(15)
H13 H 0.3464(14) 0.2438(17) 0.4614(12)
H14 H 0.4884(18) 0.2939(23) 0.5163(17)
Cl1B Cl 0.41958(3) 0.54715(4) 0.16442(3)
Cu1B Cu 0.5000 0.5000 0.0000
Cl2B Cl 0.51988(3) 0.81808(3) 0.14180(3)
Cl1D Cl 0.41958(3) 0.45285(4) 0.66442(3)
O1D O 0.52283(8) 0.67272(9) 0.52578(7)
C9D C 0.60515(10) 0.72710(13) 0.57711(9)
C4D C 0.65556(10) 0.63416(12) 0.63758(9)
N1D N 0.69848(9) 0.54047(11) 0.58440(8)
N2D N 0.63870(9) 0.46514(11) 0.53595(8)
C1D C 0.69876(12) 0.39382(14) 0.49352(11)
C2D C 0.79659(13) 0.4225(2) 0.51477(12)
C3D C 0.79444(12) 0.51603(14) 0.57296(12)
H3D H 0.8449(15) 0.5568(17) 0.6021(13)
H2D H 0.8482(16) 0.3903(19) 0.4903(15)
H1D H 0.6717(16) 0.3380(18) 0.4571(14)
C5D C 0.73637(12) 0.6903(2) 0.69953(11)
C6D C 0.69429(15) 0.7891(2) 0.75427(12)
C7D C 0.6446(2) 0.8827(2) 0.69511(14)
C8D C 0.56554(13) 0.8287(2) 0.63053(12)
H13D H 0.6536(14) 0.7562(17) 0.5386(12)
H11D H 0.5122(20) 0.7951(23) 0.6615(18)
H12D H 0.5403(17) 0.8860(22) 0.5883(15)
H9D H 0.6906(21) 0.9156(23) 0.6622(17)
H10D H 0.6146(19) 0.9462(23) 0.7289(17)
H7D H 0.7431(19) 0.8252(21) 0.7874(17)
H8D H 0.6471(18) 0.7594(21) 0.7902(15)
H5D H 0.7658(17) 0.6314(20) 0.7353(15)
H6D H 0.7866(16) 0.7247(19) 0.6656(14)
H4D H 0.6067(14) 0.5996(17) 0.6718(12)
H14D H 0.5116(18) 0.7061(23) 0.4837(17)
loop_
_geom_bond_atom_site_label_1
_geom_bond_atom_site_label_2
_geom_bond_site_symmetry_1
_geom_bond_site_symmetry_2
Cu1 Cl1 1_555 1_555
Cu2 Cl1 1_555 1_555
Cl2 Cu2 1_555 1_555
O1 Cu1 1_555 1_555
N1 N2 1_555 1_555
N2 Cu1 1_555 1_555
C1 N2 1_555 1_555
C2 C1 1_555 1_555
C3 N1 1_555 1_555
C4 N1 1_555 1_555
C5 C4 1_555 1_555
C6 C5 1_555 1_555
C7 C6 1_555 1_555
C8 C7 1_555 1_555
C9 O1 1_555 1_555
H1 C1 1_555 1_555
H2 C2 1_555 1_555
H3 C3 1_555 1_555
H4 C4 1_555 1_555
H5 C5 1_555 1_555
H6 C5 1_555 1_555
H7 C6 1_555 1_555
H8 C6 1_555 1_555
H9 C7 1_555 1_555
H10 C7 1_555 1_555
H11 C8 1_555 1_555
H12 C8 1_555 1_555
H13 C9 1_555 1_555
H14 O1 1_555 1_555
Cl1B Cu2 1_555 1_555
Cu1B Cl1B 1_555 1_555
Cl2B Cu2 1_555 1_555
Cl1D Cu1 1_555 1_555
O1D Cu1 1_555 1_555
C9D O1D 1_555 1_555
C4D C9D 1_555 1_555
N1D C4D 1_555 1_555
N2D Cu1 1_555 1_555
C1D N2D 1_555 1_555
C2D C1D 1_555 1_555
C3D N1D 1_555 1_555
H3D C3D 1_555 1_555
H2D C2D 1_555 1_555
H1D C1D 1_555 1_555
C5D C4D 1_555 1_555
C6D C5D 1_555 1_555
C7D C6D 1_555 1_555
C8D C9D 1_555 1_555
H13D C9D 1_555 1_555
H11D C8D 1_555 1_555
H12D C8D 1_555 1_555
H9D C7D 1_555 1_555
H10D C7D 1_555 1_555
H7D C6D 1_555 1_555
H8D C6D 1_555 1_555
H5D C5D 1_555 1_555
H6D C5D 1_555 1_555
H4D C4D 1_555 1_555
H14D O1D 1_555 1_555
C2 C3 1_555 1_555
C4 C9 1_555 1_555
C8 C9 1_555 1_555
N1D N2D 1_555 1_555
C2D C3D 1_555 1_555
C7D C8D 1_555 1_555

#END
