
#######################################################################
#
#                 Cambridge Crystallographic Data Centre
#                                CCDC 
#
#######################################################################
#
# If this CIF has been generated from an entry in the Cambridge 
# Structural Database, then it will include bibliographic, chemical, 
# crystal, experimental, refinement or atomic coordinate data resulting 
# from the CCDC's data processing and validation procedures.
#
#######################################################################

data_PIQDIC01
_symmetry_cell_setting           monoclinic
_symmetry_space_group_name_H-M   'C 2/c'
_symmetry_Int_Tables_number      15
_space_group_name_Hall           '-C 2yn'
loop_
_symmetry_equiv_pos_site_id
_symmetry_equiv_pos_as_xyz
1 x,y,z
2 -x,y,1/2-z
3 1/2+x,1/2+y,z
4 1/2-x,1/2+y,1/2-z
5 -x,-y,-z
6 x,-y,1/2+z
7 1/2-x,1/2-y,-z
8 1/2+x,1/2-y,1/2+z
_cell_length_a                   13.478(4)
_cell_length_b                   11.259(4)
_cell_length_c                   15.046(3)
_cell_angle_alpha                90
_cell_angle_beta                 93.77(3)
_cell_angle_gamma                90
_cell_volume                     2278.27
loop_
_atom_site_label
_atom_site_type_symbol
_atom_site_fract_x
_atom_site_fract_y
_atom_site_fract_z
Cl1 Cl 0.58054(5) -0.04716(7) 0.33554(4)
Cu1 Cu 0.5000 -0.18230(4) 0.2500
Cu2 Cu 0.5000 0.0000 0.5000
Cl2 Cl 0.52002(6) -0.31796(7) 0.14193(5)
O1 O 0.47696(14) 0.17278(18) 0.47466(12)
N1 N 0.36155(16) -0.0353(2) 0.46416(14)
N2 N 0.30124(15) 0.0404(2) 0.41547(14)
C1 C 0.4345(2) 0.3287(3) 0.3696(2)
H1 H 0.4889 0.3001 0.3362
H2 H 0.4606 0.3896 0.4102
C2 C 0.3061(2) 0.2894(4) 0.2462(2)
H3 H 0.3544 0.2564 0.2080
H4 H 0.2531 0.3252 0.2085
C3 C 0.2030(2) -0.0772(3) 0.48499(19)
H5 H 0.1468 -0.1132 0.5055
C4 C 0.34463(18) 0.1340(3) 0.36273(16)
H6 H 0.3945 0.0983 0.3264
C5 C 0.2637(2) 0.1908(3) 0.30068(19)
H7 H 0.2340 0.1308 0.2610
H8 H 0.2120 0.2227 0.3357
C6 C 0.39489(18) 0.2273(3) 0.42261(16)
H9 H 0.3469 0.2583 0.4629
C7 C 0.2063(2) 0.0158(3) 0.4274(2)
H10 H 0.1515 0.0555 0.4009
C8 C 0.3550(3) 0.3829(3) 0.3052(2)
H11 H 0.3053 0.4220 0.3387
H12 H 0.3851 0.4423 0.2688
C9 C 0.3011(2) -0.1066(3) 0.50629(18)
H13 H 0.3221 -0.1676 0.5447
Cl1A Cl 0.41946(5) -0.04716(7) 0.16446(4)
Cl2A Cl 0.47998(6) -0.31796(7) 0.35807(5)
O1D O 0.52304(14) -0.17278(18) 0.52534(12)
N1D N 0.63845(16) 0.0353(2) 0.53584(14)
N2D N 0.69876(15) -0.0404(2) 0.58453(14)
C1D C 0.5655(2) -0.3287(3) 0.6304(2)
H1D H 0.5111 -0.3001 0.6638
H2D H 0.5394 -0.3896 0.5898
C2D C 0.6939(2) -0.2894(4) 0.7538(2)
H3D H 0.6456 -0.2564 0.7920
H4D H 0.7469 -0.3252 0.7915
C3D C 0.7970(2) 0.0772(3) 0.51501(19)
H5D H 0.8532 0.1132 0.4945
C4D C 0.65537(18) -0.1340(3) 0.63727(16)
H6D H 0.6055 -0.0983 0.6736
C5D C 0.7363(2) -0.1908(3) 0.69932(19)
H7D H 0.7660 -0.1308 0.7390
H8D H 0.7880 -0.2227 0.6643
C6D C 0.60511(18) -0.2273(3) 0.57739(16)
H9D H 0.6531 -0.2583 0.5371
C7D C 0.7937(2) -0.0158(3) 0.5726(2)
H10D H 0.8485 -0.0555 0.5991
C8D C 0.6450(3) -0.3829(3) 0.6948(2)
H11D H 0.6947 -0.4220 0.6613
H12D H 0.6149 -0.4423 0.7312
C9D C 0.6989(2) 0.1066(3) 0.49371(18)
H13D H 0.6779 0.1676 0.4553
Cl1D Cl 0.41946(5) 0.04716(7) 0.66446(4)
Cu2A Cu 0.5000 0.0000 0.0000
loop_
_geom_bond_atom_site_label_1
_geom_bond_atom_site_label_2
_geom_bond_site_symmetry_1
_geom_bond_site_symmetry_2
Cl1 Cu1 1_555 1_555
Cu1 Cl2 1_555 1_555
Cu2 Cl1 1_555 1_555
O1 Cu2 1_555 1_555
N1 Cu2 1_555 1_555
N2 N1 1_555 1_555
C1 H1 1_555 1_555
H2 C1 1_555 1_555
C2 H3 1_555 1_555
H4 C2 1_555 1_555
C3 H5 1_555 1_555
C4 N2 1_555 1_555
H6 C4 1_555 1_555
C5 C2 1_555 1_555
H7 C5 1_555 1_555
H8 C5 1_555 1_555
C6 O1 1_555 1_555
H9 C6 1_555 1_555
C7 N2 1_555 1_555
H10 C7 1_555 1_555
C8 C1 1_555 1_555
H11 C8 1_555 1_555
H12 C8 1_555 1_555
C9 N1 1_555 1_555
H13 C9 1_555 1_555
Cl1A Cu1 1_555 1_555
Cl2A Cu1 1_555 1_555
O1D Cu2 1_555 1_555
N1D Cu2 1_555 1_555
N2D N1D 1_555 1_555
C1D H1D 1_555 1_555
H2D C1D 1_555 1_555
C2D H3D 1_555 1_555
H4D C2D 1_555 1_555
C3D H5D 1_555 1_555
C4D N2D 1_555 1_555
H6D C4D 1_555 1_555
C5D C2D 1_555 1_555
H7D C5D 1_555 1_555
H8D C5D 1_555 1_555
C6D O1D 1_555 1_555
H9D C6D 1_555 1_555
C7D N2D 1_555 1_555
H10D C7D 1_555 1_555
C8D C1D 1_555 1_555
H11D C8D 1_555 1_555
H12D C8D 1_555 1_555
C9D N1D 1_555 1_555
H13D C9D 1_555 1_555
Cl1D Cu2 1_555 1_555
Cu2A Cl1A 1_555 1_555
C1 C6 1_555 1_555
C2 C8 1_555 1_555
C3 C7 1_555 1_555
C3 C9 1_555 1_555
C4 C5 1_555 1_555
C4 C6 1_555 1_555
C1D C6D 1_555 1_555
C2D C8D 1_555 1_555
C3D C7D 1_555 1_555
C3D C9D 1_555 1_555
C4D C5D 1_555 1_555
C4D C6D 1_555 1_555

#END
