
#######################################################################
#
#                 Cambridge Crystallographic Data Centre
#                                CCDC 
#
#######################################################################
#
# If this CIF has been generated from an entry in the Cambridge 
# Structural Database, then it will include bibliographic, chemical, 
# crystal, experimental, refinement or atomic coordinate data resulting 
# from the CCDC's data processing and validation procedures.
#
#######################################################################

data_PIQQOX
_symmetry_cell_setting           monoclinic
_symmetry_space_group_name_H-M   'P 2/c'
_symmetry_Int_Tables_number      13
_space_group_name_Hall           '-P 2yc'
loop_
_symmetry_equiv_pos_site_id
_symmetry_equiv_pos_as_xyz
1 x,y,z
2 -x,y,1/2-z
3 -x,-y,-z
4 x,-y,1/2+z
_cell_length_a                   16.394(5)
_cell_length_b                   8.887(3)
_cell_length_c                   19.103(6)
_cell_angle_alpha                90
_cell_angle_beta                 98.259(7)
_cell_angle_gamma                90
_cell_volume                     2754.32
loop_
_atom_site_label
_atom_site_type_symbol
_atom_site_fract_x
_atom_site_fract_y
_atom_site_fract_z
O1 O 0.4948(13) 0.815(2) 0.4604(9)
C1 C 0.4280(10) 0.917(3) 0.4449(12)
C2 C 0.4415(15) 1.003(2) 0.3852(12)
C3 C 0.5166(15) 0.954(3) 0.3637(10)
C4 C 0.5496(10) 0.838(3) 0.4102(12)
C5 C 0.6092(7) 0.2684(16) 0.3706(6)
C6 C 0.6816(7) 0.1663(15) 0.3899(6)
C7 C 0.7142(7) 0.0896(14) 0.3393(6)
H1 H 0.6893 0.0943 0.2924
C8 C 0.7861(7) 0.0023(16) 0.3578(7)
H2 H 0.8086 -0.0511 0.3233
C9 C 0.8221(7) -0.0032(16) 0.4264(7)
C10 C 0.7866(9) 0.0677(19) 0.4791(7)
H3 H 0.8092 0.0582 0.5264
C11 C 0.7157(8) 0.154(2) 0.4589(6)
H4 H 0.6914 0.2041 0.4934
C12 C 0.9572(7) -0.0703(14) 0.4090(6)
C13 C 1.3461(7) -0.3563(15) 0.1646(6)
C14 C 1.0003(7) -0.1980(15) 0.3959(6)
H5 H 0.9864 -0.2911 0.4130
C15 C 1.0646(8) -0.1845(15) 0.3566(6)
C16 C 1.0876(7) -0.0386(15) 0.3350(6)
H6 H 1.1323 -0.0268 0.3106
C17 C 1.0433(6) 0.0823(14) 0.3507(6)
C18 C 0.9762(7) 0.0688(15) 0.3883(7)
H7 H 0.9460 0.1525 0.3985
C19 C 1.1638(8) -0.3106(17) 0.2985(7)
C20 C 1.1432(8) -0.3661(19) 0.2311(7)
H8 H 1.0888 -0.3919 0.2151
C21 C 1.2017(7) -0.3842(16) 0.1868(6)
H9 H 1.1878 -0.4284 0.1426
C22 C 1.2826(7) -0.3348(15) 0.2094(6)
C23 C 1.3026(8) -0.2745(17) 0.2771(6)
H10 H 1.3564 -0.2446 0.2931
C24 C 1.2404(9) -0.2586(19) 0.3215(7)
H11 H 1.2524 -0.2132 0.3656
C25 C 1.1452(6) 0.2687(14) 0.3455(6)
C26 C 1.1756(7) 0.2981(19) 0.4140(6)
H12 H 1.1438 0.2789 0.4496
C27 C 1.2566(7) 0.3585(18) 0.4308(6)
H13 H 1.2774 0.3858 0.4770
C28 C 1.3037(6) 0.3753(13) 0.3763(5)
C29 C 1.2717(7) 0.3370(15) 0.3081(5)
H14 H 1.3042 0.3457 0.2722
C30 C 1.1909(7) 0.2853(15) 0.2924(6)
H15 H 1.1687 0.2625 0.2460
C31 C 1.3867(7) 0.4449(15) 0.3916(6)
Cd1 Cd 0.5000 0.45747(16) 0.2500
Cd2 Cd 0.54390(5) 0.57286(11) 0.42608(4)
O2 O 0.5891(5) 0.2984(11) 0.3054(4)
O3 O 0.5730(5) 0.3190(11) 0.4195(4)
O4 O 0.8919(5) -0.0899(11) 0.4473(5)
O5 O 1.1038(7) -0.3099(13) 0.3441(6)
O6 O 1.0623(5) 0.2266(11) 0.3289(5)
O7 O 1.4257(4) 0.4825(10) 0.3424(4)
O8 O 1.4171(5) 0.4730(10) 0.4561(4)
O9 O 1.4243(5) -0.3464(10) 0.1903(4)
O10 O 1.3266(5) -0.3876(14) 0.1004(4)
O1A O 0.5052(13) 0.815(2) 0.0396(9)
C1A C 0.5720(10) 0.917(3) 0.0551(12)
C2A C 0.5585(15) 1.003(2) 0.1148(12)
C3A C 0.4834(15) 0.954(3) 0.1363(10)
C4A C 0.4504(10) 0.838(3) 0.0898(12)
C5A C 0.3908(7) 0.2684(16) 0.1294(6)
C6A C 0.3184(7) 0.1663(15) 0.1101(6)
C7A C 0.2858(7) 0.0896(14) 0.1607(6)
H1A H 0.3107 0.0943 0.2076
C8A C 0.2139(7) 0.0023(16) 0.1422(7)
H2A H 0.1914 -0.0511 0.1767
C9A C 0.1779(7) -0.0032(16) 0.0736(7)
C10A C 0.2134(9) 0.0677(19) 0.0209(7)
H3A H 0.1908 0.0582 -0.0264
C11A C 0.2843(8) 0.154(2) 0.0411(6)
H4A H 0.3086 0.2041 0.0066
C12A C 0.0428(7) -0.0703(14) 0.0910(6)
C13A C -0.3461(7) -0.3563(15) 0.3354(6)
C14A C -0.0003(7) -0.1980(15) 0.1041(6)
H5A H 0.0136 -0.2911 0.0870
C15A C -0.0646(8) -0.1845(15) 0.1434(6)
C16A C -0.0876(7) -0.0386(15) 0.1650(6)
H6A H -0.1323 -0.0268 0.1894
C17A C -0.0433(6) 0.0823(14) 0.1493(6)
C18A C 0.0238(7) 0.0688(15) 0.1117(7)
H7A H 0.0540 0.1525 0.1015
C19A C -0.1638(8) -0.3106(17) 0.2015(7)
C20A C -0.1432(8) -0.3661(19) 0.2689(7)
H8A H -0.0888 -0.3919 0.2849
C21A C -0.2017(7) -0.3842(16) 0.3132(6)
H9A H -0.1878 -0.4284 0.3574
C22A C -0.2826(7) -0.3348(15) 0.2906(6)
C23A C -0.3026(8) -0.2745(17) 0.2229(6)
H10A H -0.3564 -0.2446 0.2069
C24A C -0.2404(9) -0.2586(19) 0.1785(7)
H11A H -0.2524 -0.2132 0.1344
C25A C -0.1452(6) 0.2687(14) 0.1545(6)
C26A C -0.1756(7) 0.2981(19) 0.0860(6)
H12A H -0.1438 0.2789 0.0504
C27A C -0.2566(7) 0.3585(18) 0.0692(6)
H13A H -0.2774 0.3858 0.0230
C28A C -0.3037(6) 0.3753(13) 0.1237(5)
C29A C -0.2717(7) 0.3370(15) 0.1919(5)
H14A H -0.3042 0.3457 0.2278
C30A C -0.1909(7) 0.2853(15) 0.2076(6)
H15A H -0.1687 0.2625 0.2540
C31A C -0.3867(7) 0.4449(15) 0.1084(6)
Cd2A Cd 0.45610(5) 0.57286(11) 0.07392(4)
O2A O 0.4109(5) 0.2984(11) 0.1946(4)
O3A O 0.4270(5) 0.3190(11) 0.0805(4)
O4A O 0.1081(5) -0.0899(11) 0.0527(5)
O5A O -0.1038(7) -0.3099(13) 0.1559(6)
O6A O -0.0623(5) 0.2266(11) 0.1711(5)
O7A O -0.4257(4) 0.4825(10) 0.1576(4)
O8A O -0.4171(5) 0.4730(10) 0.0439(4)
O9A O -0.4243(5) -0.3464(10) 0.3097(4)
O10A O -0.3266(5) -0.3876(14) 0.3996(4)
Cd1_2 Cd -0.5000 -0.54253(16) 0.2500
Cd1_3 Cd -0.5000 0.45747(16) 0.2500
Cd1_4 Cd 1.5000 -0.54253(16) 0.2500
Cd1_5 Cd 1.5000 0.45747(16) 0.2500
Cd2_2 Cd -0.45610(5) -0.42714(11) 0.42608(4)
Cd2_3 Cd 1.54390(5) 0.57286(11) 0.42608(4)
Cd2A_2 Cd -0.54390(5) 0.57286(11) 0.07392(4)
Cd2A_3 Cd 1.45610(5) -0.42714(11) 0.07392(4)
Cd2B Cd 1.45610(5) 0.42714(11) 0.57392(4)
Cd2C Cd -0.45610(5) 0.42714(11) -0.07392(4)
O7_2 O 0.4257(4) 0.4825(10) 0.3424(4)
O7A_2 O 0.5743(4) 0.4825(10) 0.1576(4)
O8_2 O 0.4171(5) 0.4730(10) 0.4561(4)
O8A_2 O 0.5829(5) 0.4730(10) 0.0439(4)
O8B O 0.5829(5) 0.5270(10) 0.5439(4)
O8C O 0.4171(5) 0.5270(10) -0.0439(4)
O9_2 O 0.4243(5) 0.6536(10) 0.1903(4)
O9A_2 O 0.5757(5) 0.6536(10) 0.3097(4)
O10_2 O 0.3266(5) 0.6124(14) 0.1004(4)
O10A_2 O 0.6734(5) 0.6124(14) 0.3996(4)
loop_
_geom_bond_atom_site_label_1
_geom_bond_atom_site_label_2
_geom_bond_site_symmetry_1
_geom_bond_site_symmetry_2
O1 C1 1_555 1_555
C1 C2 1_555 1_555
C2 C3 1_555 1_555
C3 C4 1_555 1_555
C4 O1 1_555 1_555
C5 C6 1_555 1_555
C6 C7 1_555 1_555
C7 H1 1_555 1_555
C8 C7 1_555 1_555
H2 C8 1_555 1_555
C9 C8 1_555 1_555
C10 C9 1_555 1_555
H3 C10 1_555 1_555
C11 C6 1_555 1_555
H4 C11 1_555 1_555
C12 C14 1_555 1_555
C13 C22 1_555 1_555
C14 H5 1_555 1_555
C15 C14 1_555 1_555
C16 C15 1_555 1_555
H6 C16 1_555 1_555
C17 C16 1_555 1_555
C18 C12 1_555 1_555
H7 C18 1_555 1_555
C19 C20 1_555 1_555
C20 H8 1_555 1_555
C21 C20 1_555 1_555
H9 C21 1_555 1_555
C22 C21 1_555 1_555
C23 C22 1_555 1_555
H10 C23 1_555 1_555
C24 C19 1_555 1_555
H11 C24 1_555 1_555
C25 C26 1_555 1_555
C26 H12 1_555 1_555
C27 C26 1_555 1_555
H13 C27 1_555 1_555
C28 C27 1_555 1_555
C29 C28 1_555 1_555
H14 C29 1_555 1_555
C30 C25 1_555 1_555
H15 C30 1_555 1_555
C31 C28 1_555 1_555
Cd1 O2 1_555 1_555
Cd2 O1 1_555 1_555
O2 C5 1_555 1_555
O3 C5 1_555 1_555
O4 C9 1_555 1_555
O5 C15 1_555 1_555
O6 C17 1_555 1_555
O7 C31 1_555 1_555
O8 C31 1_555 1_555
O9 C13 1_555 1_555
O10 C13 1_555 1_555
O1A C1A 1_555 1_555
C1A C2A 1_555 1_555
C2A C3A 1_555 1_555
C3A C4A 1_555 1_555
C4A O1A 1_555 1_555
C5A C6A 1_555 1_555
C6A C7A 1_555 1_555
C7A H1A 1_555 1_555
C8A C7A 1_555 1_555
H2A C8A 1_555 1_555
C9A C8A 1_555 1_555
C10A C9A 1_555 1_555
H3A C10A 1_555 1_555
C11A C6A 1_555 1_555
H4A C11A 1_555 1_555
C12A C14A 1_555 1_555
C13A C22A 1_555 1_555
C14A H5A 1_555 1_555
C15A C14A 1_555 1_555
C16A C15A 1_555 1_555
H6A C16A 1_555 1_555
C17A C16A 1_555 1_555
C18A C12A 1_555 1_555
H7A C18A 1_555 1_555
C19A C20A 1_555 1_555
C20A H8A 1_555 1_555
C21A C20A 1_555 1_555
H9A C21A 1_555 1_555
C22A C21A 1_555 1_555
C23A C22A 1_555 1_555
H10A C23A 1_555 1_555
C24A C19A 1_555 1_555
H11A C24A 1_555 1_555
C25A C26A 1_555 1_555
C26A H12A 1_555 1_555
C27A C26A 1_555 1_555
H13A C27A 1_555 1_555
C28A C27A 1_555 1_555
C29A C28A 1_555 1_555
H14A C29A 1_555 1_555
C30A C25A 1_555 1_555
H15A C30A 1_555 1_555
C31A C28A 1_555 1_555
Cd2A O1A 1_555 1_555
O2A Cd1 1_555 1_555
O3A C5A 1_555 1_555
O4A C9A 1_555 1_555
O5A C15A 1_555 1_555
O6A C17A 1_555 1_555
O7A C31A 1_555 1_555
O8A C31A 1_555 1_555
O9A C13A 1_555 1_555
O10A C13A 1_555 1_555
Cd1_2 O9A 1_555 1_555
Cd1_3 O7A 1_555 1_555
Cd1_4 O9 1_555 1_555
Cd1_5 O7 1_555 1_555
Cd2_2 O9A 1_555 1_555
Cd2_3 O7 1_555 1_555
Cd2A_2 O7A 1_555 1_555
Cd2A_3 O9 1_555 1_555
Cd2B O8 1_555 1_555
Cd2C O8A 1_555 1_555
O7_2 Cd1 1_555 1_555
O7A_2 Cd1 1_555 1_555
O8_2 Cd2 1_555 1_555
O8A_2 Cd2A 1_555 1_555
O8B Cd2 1_555 1_555
O8C Cd2A 1_555 1_555
O9_2 Cd1 1_555 1_555
O9A_2 Cd1 1_555 1_555
O10_2 Cd2A 1_555 1_555
O10A_2 Cd2 1_555 1_555
C10 C11 1_555 1_555
C12 O4 1_555 1_555
C17 C18 1_555 1_555
C19 O5 1_555 1_555
C23 C24 1_555 1_555
C25 O6 1_555 1_555
C29 C30 1_555 1_555
Cd2 O3 1_555 1_555
Cd2 O7_2 1_555 1_555
Cd2 O9A_2 1_555 1_555
O8 Cd2_3 1_555 1_555
O10 Cd2A_3 1_555 1_555
C5A O2A 1_555 1_555
C10A C11A 1_555 1_555
C12A O4A 1_555 1_555
C17A C18A 1_555 1_555
C19A O5A 1_555 1_555
C23A C24A 1_555 1_555
C25A O6A 1_555 1_555
C29A C30A 1_555 1_555
Cd2A O3A 1_555 1_555
Cd2A O7A_2 1_555 1_555
Cd2A O9_2 1_555 1_555
O8A Cd2A_2 1_555 1_555
O10A Cd2_2 1_555 1_555

#END
