
#######################################################################
#
#                 Cambridge Crystallographic Data Centre
#                                CCDC 
#
#######################################################################
#
# If this CIF has been generated from an entry in the Cambridge 
# Structural Database, then it will include bibliographic, chemical, 
# crystal, experimental, refinement or atomic coordinate data resulting 
# from the CCDC's data processing and validation procedures.
#
#######################################################################

data_PIQROW
_symmetry_cell_setting           monoclinic
_symmetry_space_group_name_H-M   'P 21/c'
_symmetry_Int_Tables_number      14
_space_group_name_Hall           '-P 2ybc'
loop_
_symmetry_equiv_pos_site_id
_symmetry_equiv_pos_as_xyz
1 x,y,z
2 -x,1/2+y,1/2-z
3 -x,-y,-z
4 x,1/2-y,1/2+z
_cell_length_a                   12.64(1)
_cell_length_b                   14.14(3)
_cell_length_c                   10.009(7)
_cell_angle_alpha                90
_cell_angle_beta                 95.16(8)
_cell_angle_gamma                90
_cell_volume                     1781.65
loop_
_atom_site_label
_atom_site_type_symbol
_atom_site_fract_x
_atom_site_fract_y
_atom_site_fract_z
Sn1 Sn 0.40030(6) 0.19903(5) 0.06170(6)
O1 O 0.38859(60) 0.08539(46) 0.20587(59)
O2 O 0.39694(60) 0.18707(53) 0.37721(60)
O3 O -0.01800(66) -0.11961(53) -0.33838(68)
O4 O 0.04424(72) 0.06024(54) -0.36947(74)
N1 N 0.21085(65) -0.02626(57) 0.22647(70)
N2 N 0.17777(71) -0.10335(59) 0.17915(76)
C1 C 0.37763(86) 0.10639(78) 0.32824(90)
C2 C 0.33378(82) 0.02939(62) 0.41337(85)
C3 C 0.37565(82) 0.02083(70) 0.54524(94)
C4 C 0.34183(90) -0.05063(72) 0.62679(87)
C5 C 0.26588(91) -0.11208(72) 0.57882(93)
C6 C 0.22136(82) -0.10361(76) 0.44761(92)
C7 C 0.25780(77) -0.03464(64) 0.36388(86)
C8 C 0.12702(82) -0.09816(72) 0.04492(94)
C9 C 0.07583(86) -0.18087(67) -0.00060(97)
C10 C 0.02632(85) -0.18575(71) -0.12791(97)
C11 C 0.03053(84) -0.10988(73) -0.21399(97)
C12 C 0.08162(80) -0.02724(71) -0.17060(97)
C13 C 0.08531(98) 0.05545(76) -0.2555(11)
C14 C 0.13045(78) -0.02132(66) -0.03878(90)
C15 C 0.4034(10) 0.09681(83) -0.0926(10)
C16 C 0.24905(89) 0.25300(80) 0.09865(96)
C17 C 0.54844(93) 0.25282(79) 0.1349(11)
H1 H 0.42935 0.06536 0.58155
H2 H -0.01714 -0.06447 -0.40333
H3 H 0.37336 -0.05634 0.71860
H4 H 0.24265 -0.16184 0.63628
H5 H 0.16443 -0.14568 0.41443
H6 H 0.07489 -0.23524 0.05804
H7 H -0.01160 -0.24251 -0.15734
H8 H 0.12286 0.11064 -0.21845
H9 H 0.16579 0.03629 -0.00753
H10 H 0.46535 0.05656 -0.07408
H11 H 0.33967 0.05893 -0.09589
H12 H 0.40773 0.12866 -0.17770
H13 H 0.19576 0.20438 0.07951
H14 H 0.25019 0.27178 0.19197
H15 H 0.23253 0.30728 0.04151
H16 H 0.56652 0.30615 0.08033
H17 H 0.54565 0.27341 0.22702
H18 H 0.60203 0.20397 0.13146
O2C O 0.39694(60) 0.31293(53) -0.12279(60)
Sn1C Sn 0.40030(6) 0.30097(5) 0.56170(6)
loop_
_geom_bond_atom_site_label_1
_geom_bond_atom_site_label_2
_geom_bond_site_symmetry_1
_geom_bond_site_symmetry_2
Sn1 O1 1_555 1_555
O1 C1 1_555 1_555
O2 C1 1_555 1_555
O3 C11 1_555 1_555
O4 C13 1_555 1_555
N1 N2 1_555 1_555
N2 C8 1_555 1_555
C1 C2 1_555 1_555
C2 C3 1_555 1_555
C3 C4 1_555 1_555
C4 C5 1_555 1_555
C5 C6 1_555 1_555
C6 C7 1_555 1_555
C7 N1 1_555 1_555
C8 C9 1_555 1_555
C9 C10 1_555 1_555
C10 C11 1_555 1_555
C11 C12 1_555 1_555
C12 C13 1_555 1_555
C13 H8 1_555 1_555
C14 C8 1_555 1_555
C15 Sn1 1_555 1_555
C16 Sn1 1_555 1_555
C17 Sn1 1_555 1_555
H1 C3 1_555 1_555
H2 O3 1_555 1_555
H3 C4 1_555 1_555
H4 C5 1_555 1_555
H5 C6 1_555 1_555
H6 C9 1_555 1_555
H7 C10 1_555 1_555
H9 C14 1_555 1_555
H10 C15 1_555 1_555
H11 C15 1_555 1_555
H12 C15 1_555 1_555
H13 C16 1_555 1_555
H14 C16 1_555 1_555
H15 C16 1_555 1_555
H16 C17 1_555 1_555
H17 C17 1_555 1_555
H18 C17 1_555 1_555
O2C Sn1 1_555 1_555
Sn1C O2 1_555 1_555
C2 C7 1_555 1_555
C12 C14 1_555 1_555

#END
