
#######################################################################
#
#                 Cambridge Crystallographic Data Centre
#                                CCDC 
#
#######################################################################
#
# If this CIF has been generated from an entry in the Cambridge 
# Structural Database, then it will include bibliographic, chemical, 
# crystal, experimental, refinement or atomic coordinate data resulting 
# from the CCDC's data processing and validation procedures.
#
#######################################################################

data_PIQSOX
_symmetry_cell_setting           triclinic
_symmetry_space_group_name_H-M   'P -1'
_symmetry_Int_Tables_number      2
_space_group_name_Hall           '-P 1'
loop_
_symmetry_equiv_pos_site_id
_symmetry_equiv_pos_as_xyz
1 x,y,z
2 -x,-y,-z
_cell_length_a                   6.419(2)
_cell_length_b                   9.414(2)
_cell_length_c                   9.604(3)
_cell_angle_alpha                88.49(2)
_cell_angle_beta                 74.68(2)
_cell_angle_gamma                76.68(2)
_cell_volume                     544.306
loop_
_atom_site_label
_atom_site_type_symbol
_atom_site_fract_x
_atom_site_fract_y
_atom_site_fract_z
Ce1 Ce 0.15134(3) 0.05958(2) 0.27904(2)
O1 O 0.8528(4) -0.3214(3) 0.6464(3)
O2 O 0.6306(4) -0.1473(3) 0.5611(3)
O3 O 0.4532(4) -0.1596(3) 0.3032(3)
O4 O 0.1557(4) -0.1279(3) 0.4890(3)
O5 O 0.2324(4) -0.1051(3) 0.0673(3)
O6 O 0.5361(5) -0.1307(3) -0.1162(3)
O7 O 0.1073(5) -0.2447(3) -0.1635(3)
O8 O 0.0877(5) -0.4748(3) -0.1980(3)
H1 H 0.9918(81) -0.5641(54) 0.2439(54)
O9 O -0.1603(5) -0.0540(4) 0.2739(4)
H2 H -0.2561(77) -0.0647(50) 0.3331(51)
C1 C 0.5955(5) -0.3926(3) 0.5388(4)
C2 C 0.4290(5) -0.3541(3) 0.4667(4)
C3 C 0.3341(5) -0.4620(3) 0.4295(4)
H3 H 0.2335(5) -0.4280(3) 0.3711(4)
C4 C 0.6983(5) -0.2793(4) 0.5842(4)
C5 C 0.3455(5) -0.2029(3) 0.4189(4)
C6 C 0.4441(5) -0.3461(3) -0.0142(4)
C7 C 0.3375(5) -0.4377(4) -0.0695(4)
C8 C 0.6047(6) -0.4112(4) 0.0560(4)
H4 H 0.7006(6) -0.3584(4) 0.0826(4)
C9 C 0.3985(5) -0.1804(4) -0.0223(3)
C10 C 0.1673(5) -0.3755(4) -0.1480(4)
O4A O -0.1557(4) 0.1279(3) 0.5110(3)
Ce1A Ce -0.15134(3) -0.05958(2) 0.72096(2)
C8A C 0.3953(6) -0.5888(4) -0.0560(4)
C7A C 0.6625(5) -0.5623(4) 0.0695(4)
O6A O 0.4639(5) 0.1307(3) 0.1162(3)
C3A C 0.6659(5) -0.5380(3) 0.5705(4)
C1A C 0.4045(5) -0.6074(3) 0.4612(4)
C2A C 0.5710(5) -0.6459(3) 0.5333(4)
H3A H 0.7665(5) -0.5720(3) 0.6289(4)
C4A C 0.3017(5) -0.7207(4) 0.4158(4)
O1A O 0.1472(4) 0.3214(3) 0.3536(3)
O2A O 0.3694(4) 0.1473(3) 0.4389(3)
O1A_2 O 0.1472(4) -0.6786(3) 0.3536(3)
O2A_2 O 0.3694(4) -0.8527(3) 0.4389(3)
C5A C 0.6545(5) -0.7971(3) 0.5811(4)
Ce1A_2 Ce 0.84866(3) -0.05958(2) 0.72096(2)
Ce1_2 Ce 0.15134(3) -0.94042(2) 0.27904(2)
C6A C 0.5559(5) -0.6539(3) 0.0142(4)
C10A C 0.8327(5) -0.6245(4) 0.1480(4)
H4A H 0.2994(6) -0.6416(4) -0.0826(4)
O7A O -0.1073(5) 0.2447(3) 0.1635(3)
O7A_2 O 0.8927(5) -0.7553(3) 0.1635(3)
O8A O 0.9123(5) -0.5252(3) 0.1980(3)
C9A C 0.6015(5) -0.8196(4) 0.0223(3)
O3_2 O 0.4532(4) -1.1596(3) 0.3032(3)
O4A_2 O -0.1557(4) -0.8721(3) 0.5110(3)
O4_2 O 0.1557(4) -1.1279(3) 0.4890(3)
O5_2 O 0.2324(4) -1.1051(3) 0.0673(3)
O6A_2 O 0.4639(5) -0.8693(3) 0.1162(3)
O7A_3 O -0.1073(5) -0.7553(3) 0.1635(3)
O9_2 O -0.1603(5) -1.0540(4) 0.2739(4)
O3A O 0.5468(4) -0.8404(3) 0.6968(3)
O4A_3 O 0.8443(4) -0.8721(3) 0.5110(3)
Ce1A_3 Ce 0.84866(3) -1.05958(2) 0.72096(2)
Ce1_3 Ce 1.15134(3) -0.94042(2) 0.27904(2)
O5A O 0.7676(4) -0.8949(3) -0.0673(3)
Ce1A_4 Ce 0.84866(3) -1.05958(2) -0.27904(2)
Ce1A_5 Ce -0.15134(3) -0.05958(2) -0.27904(2)
H1A H 0.0082(81) -0.4359(54) -0.2439(54)
Ce1A_6 Ce 0.84866(3) -0.05958(2) -0.27904(2)
H2_2 H -0.2561(77) -1.0647(50) 0.3331(51)
loop_
_geom_bond_atom_site_label_1
_geom_bond_atom_site_label_2
_geom_bond_site_symmetry_1
_geom_bond_site_symmetry_2
Ce1 O3 1_555 1_555
O1 C4 1_555 1_555
O2 C4 1_555 1_555
O3 C5 1_555 1_555
O4 Ce1 1_555 1_555
O5 Ce1 1_555 1_555
O6 C9 1_555 1_555
O7 C10 1_555 1_555
O8 C10 1_555 1_555
H1 O8A 1_555 1_555
O9 Ce1 1_555 1_555
H2 O9 1_555 1_555
C1 C2 1_555 1_555
C2 C3 1_555 1_555
C3 H3 1_555 1_555
C4 C1 1_555 1_555
C5 O4 1_555 1_555
C6 C7 1_555 1_555
C7 C10 1_555 1_555
C8 C6 1_555 1_555
H4 C8 1_555 1_555
C9 O5 1_555 1_555
O4A Ce1 1_555 1_555
Ce1A O4 1_555 1_555
C8A C7 1_555 1_555
C7A C8 1_555 1_555
O6A Ce1 1_555 1_555
C3A C1 1_555 1_555
C1A C3 1_555 1_555
C2A C3A 1_555 1_555
H3A C3A 1_555 1_555
C4A C1A 1_555 1_555
O1A Ce1 1_555 1_555
O2A Ce1 1_555 1_555
O1A_2 C4A 1_555 1_555
O2A_2 C4A 1_555 1_555
C5A C2A 1_555 1_555
Ce1A_2 O1 1_555 1_555
Ce1_2 O1A_2 1_555 1_555
C6A C8A 1_555 1_555
C10A C7A 1_555 1_555
H4A C8A 1_555 1_555
O7A Ce1 1_555 1_555
O7A_2 C10A 1_555 1_555
O8A C10A 1_555 1_555
C9A C6A 1_555 1_555
O3_2 Ce1_2 1_555 1_555
O4A_2 Ce1_2 1_555 1_555
O4_2 Ce1_2 1_555 1_555
O5_2 Ce1_2 1_555 1_555
O6A_2 Ce1_2 1_555 1_555
O7A_3 Ce1_2 1_555 1_555
O9_2 Ce1_2 1_555 1_555
O3A C5A 1_555 1_555
O4A_3 C5A 1_555 1_555
Ce1A_3 O3A 1_555 1_555
Ce1_3 O7A_2 1_555 1_555
O5A C9A 1_555 1_555
Ce1A_4 O5A 1_555 1_555
Ce1A_5 O7 1_555 1_555
H1A O8 1_555 1_555
Ce1A_6 O6 1_555 1_555
H2_2 O9_2 1_555 1_555
O2 Ce1A_2 1_555 1_555
C2 C5 1_555 1_555
C6 C9 1_555 1_555
O4A Ce1A 1_555 1_555
C7A C6A 1_555 1_555
C1A C2A 1_555 1_555
O2A_2 Ce1_2 1_555 1_555
C9A O6A_2 1_555 1_555
O4A_3 Ce1A_3 1_555 1_555
O4A_3 Ce1_3 1_555 1_555

#END
