
#######################################################################
#
#                 Cambridge Crystallographic Data Centre
#                                CCDC 
#
#######################################################################
#
# If this CIF has been generated from an entry in the Cambridge 
# Structural Database, then it will include bibliographic, chemical, 
# crystal, experimental, refinement or atomic coordinate data resulting 
# from the CCDC's data processing and validation procedures.
#
#######################################################################

data_PIQSOX01
_symmetry_cell_setting           triclinic
_symmetry_space_group_name_H-M   'P -1'
_symmetry_Int_Tables_number      2
_space_group_name_Hall           '-P 1'
loop_
_symmetry_equiv_pos_site_id
_symmetry_equiv_pos_as_xyz
1 x,y,z
2 -x,-y,-z
_cell_length_a                   6.4117(13)
_cell_length_b                   9.3941(19)
_cell_length_c                   9.5797(19)
_cell_angle_alpha                88.42(3)
_cell_angle_beta                 74.57(3)
_cell_angle_gamma                76.71(3)
_cell_volume                     540.966
loop_
_atom_site_label
_atom_site_type_symbol
_atom_site_fract_x
_atom_site_fract_y
_atom_site_fract_z
Ce1 Ce 0.15132(3) 0.05960(2) 0.779105(19)
C1 C 0.4286(7) -0.3542(4) 0.9668(4)
C2 C -0.3952(8) 0.5887(5) 0.5556(5)
H1 H -0.3243 0.6477 0.5940
C3 C 0.6998(7) -0.2806(5) 1.0838(4)
C4 C -0.1665(7) 0.3756(5) 0.6482(5)
C5 C -0.3369(7) 0.4369(5) 0.5689(4)
C6 C 0.5954(7) -0.3924(5) 1.0389(4)
C7 C 0.3446(7) -0.2029(4) 0.9200(4)
C8 C -0.5559(7) 0.6532(5) 0.4865(4)
C9 C 0.3353(7) -0.4627(5) 0.9284(4)
H2 H 0.2248 -0.4372 0.8801
C10 C -0.6031(7) 0.8198(5) 0.4778(4)
O1 O 0.4530(5) -0.1602(3) 0.8032(3)
O2 O 0.8525(6) -0.3213(4) 1.1467(4)
O3 O 0.6310(6) -0.1475(3) 1.0619(3)
O4 O 0.1567(5) -0.1280(4) 0.9885(3)
O5 O -0.1070(6) 0.2451(4) 0.6633(4)
O6 O -0.7673(5) 0.8949(4) 0.5666(3)
O7 O -0.4636(6) 0.8702(4) 0.3839(4)
O8 O -0.1609(7) -0.0548(5) 0.7749(5)
O9 O -0.0871(7) 0.4744(4) 0.6969(4)
H3 H 0.0085 0.4341 0.7365
Ce1A Ce 0.84868(3) -1.05960(2) 1.220895(19)
Ce1A_2 Ce 0.84868(3) -0.05960(2) 1.220895(19)
Ce1A_3 Ce -0.15132(3) -0.05960(2) 1.220895(19)
Ce1_2 Ce -0.84868(3) 1.05960(2) 0.779105(19)
Ce1A_4 Ce -0.15132(3) 0.94040(2) 0.220895(19)
Ce1_3 Ce 0.15132(3) -0.94040(2) 0.779105(19)
Ce1_4 Ce 1.15132(3) -0.94040(2) 0.779105(19)
Ce1A_5 Ce -1.15132(3) 0.94040(2) 0.220895(19)
Ce1A_6 Ce -0.15132(3) -0.05960(2) 0.220895(19)
Ce1_5 Ce -0.84868(3) 0.05960(2) 0.779105(19)
C1A C 0.5714(7) -0.6458(4) 1.0332(4)
C2A C -0.6048(8) 0.4113(5) 0.4444(5)
H1A H -0.6757 0.3523 0.4060
C3A C 0.3002(7) -0.7194(5) 0.9162(4)
C4A C -0.8335(7) 0.6244(5) 0.3518(5)
C5A C -0.6631(7) 0.5631(5) 0.4311(4)
C6A C 0.4046(7) -0.6076(5) 0.9611(4)
C7A C 0.6554(7) -0.7971(4) 1.0800(4)
C8A C -0.4441(7) 0.3468(5) 0.5135(4)
C9A C 0.6647(7) -0.5373(5) 1.0716(4)
H2A H 0.7752 -0.5628 1.1199
C10A C -0.3969(7) 0.1802(5) 0.5222(4)
O1A O 0.5470(5) -0.8398(3) 1.1968(3)
O2A O 0.1475(6) -0.6787(4) 0.8533(4)
O2A_2 O 0.1475(6) 0.3213(4) 0.8533(4)
O2_2 O 0.8525(6) -1.3213(4) 1.1467(4)
O3A O 0.3690(6) -0.8525(3) 0.9381(3)
O3A_2 O 0.3690(6) 0.1475(3) 0.9381(3)
O3_2 O 0.6310(6) -1.1475(3) 1.0619(3)
O4A O 0.8433(5) -0.8720(4) 1.0115(3)
O4A_2 O -0.1567(5) 0.1280(4) 1.0115(3)
O4_2 O 1.1567(5) -1.1280(4) 0.9885(3)
O5A O -0.8930(6) 0.7549(4) 0.3367(4)
O5A_2 O 1.1070(6) -1.2451(4) 1.3367(4)
O6A O -0.2327(5) 0.1051(4) 0.4334(3)
O6_2 O 0.2327(5) -0.1051(4) 0.5666(3)
O6A_2 O 0.7673(5) -0.8949(4) 1.4334(3)
O7A O -0.5364(6) 0.1298(4) 0.6161(4)
O7A_2 O 0.4636(6) 0.1298(4) 0.6161(4)
O7_2 O 0.5364(6) -1.1298(4) 1.3839(4)
O8A O 1.1609(7) -0.9452(5) 1.2251(5)
O9A O -0.9129(7) 0.5256(4) 0.3031(4)
H3A H -1.0085 0.5659 0.2635
loop_
_geom_bond_atom_site_label_1
_geom_bond_atom_site_label_2
_geom_bond_site_symmetry_1
_geom_bond_site_symmetry_2
Ce1 O1 1_555 1_555
C1 C6 1_555 1_555
C2 H1 1_555 1_555
C3 C6 1_555 1_555
C4 C5 1_555 1_555
C5 C2 1_555 1_555
C6 C9A 1_555 1_555
C7 C1 1_555 1_555
C8 C2 1_555 1_555
C9 C1 1_555 1_555
H2 C9 1_555 1_555
C10 C8 1_555 1_555
O1 C7 1_555 1_555
O2 C3 1_555 1_555
O3 C3 1_555 1_555
O4 Ce1 1_555 1_555
O5 Ce1 1_555 1_555
O6 C10 1_555 1_555
O7 C10 1_555 1_555
O8 Ce1 1_555 1_555
O9 C4 1_555 1_555
H3 O9 1_555 1_555
Ce1A O1A 1_555 1_555
Ce1A_2 O2 1_555 1_555
Ce1A_3 O4 1_555 1_555
Ce1_2 O6 1_555 1_555
Ce1A_4 O7 1_555 1_555
Ce1_3 O2A 1_555 1_555
Ce1_4 O4A 1_555 1_555
Ce1A_5 O5A 1_555 1_555
Ce1A_6 O6A 1_555 1_555
Ce1_5 O7A 1_555 1_555
C1A C6A 1_555 1_555
C2A H1A 1_555 1_555
C3A C6A 1_555 1_555
C4A C5A 1_555 1_555
C5A C8 1_555 1_555
C6A C9 1_555 1_555
C7A C1A 1_555 1_555
C8A C5 1_555 1_555
C9A C1A 1_555 1_555
H2A C9A 1_555 1_555
C10A C8A 1_555 1_555
O1A C7A 1_555 1_555
O2A C3A 1_555 1_555
O2A_2 Ce1 1_555 1_555
O2_2 Ce1A 1_555 1_555
O3A Ce1_3 1_555 1_555
O3A_2 Ce1 1_555 1_555
O3_2 Ce1A 1_555 1_555
O4A Ce1A 1_555 1_555
O4A_2 Ce1 1_555 1_555
O4_2 Ce1A 1_555 1_555
O5A C4A 1_555 1_555
O5A_2 Ce1A 1_555 1_555
O6A C10A 1_555 1_555
O6_2 Ce1 1_555 1_555
O6A_2 Ce1A 1_555 1_555
O7A C10A 1_555 1_555
O7A_2 Ce1 1_555 1_555
O7_2 Ce1A 1_555 1_555
O8A Ce1A 1_555 1_555
O9A C4A 1_555 1_555
H3A O9A 1_555 1_555
C4 O5 1_555 1_555
C7 O4 1_555 1_555
O3 Ce1A_2 1_555 1_555
Ce1A_3 O4A_2 1_555 1_555
Ce1_4 O4_2 1_555 1_555
C2A C5A 1_555 1_555
C2A C8A 1_555 1_555
C3A O3A 1_555 1_555
C7A O4A 1_555 1_555

#END
