
#######################################################################
#
#                 Cambridge Crystallographic Data Centre
#                                CCDC 
#
#######################################################################
#
# If this CIF has been generated from an entry in the Cambridge 
# Structural Database, then it will include bibliographic, chemical, 
# crystal, experimental, refinement or atomic coordinate data resulting 
# from the CCDC's data processing and validation procedures.
#
#######################################################################

data_PIQSOX02
_symmetry_cell_setting           triclinic
_symmetry_space_group_name_H-M   'P -1'
_symmetry_Int_Tables_number      2
_space_group_name_Hall           '-P 1'
loop_
_symmetry_equiv_pos_site_id
_symmetry_equiv_pos_as_xyz
1 x,y,z
2 -x,-y,-z
_cell_length_a                   6.4164(11)
_cell_length_b                   9.4080(16)
_cell_length_c                   9.5927(16)
_cell_angle_alpha                88.501(2)
_cell_angle_beta                 74.574(2)
_cell_angle_gamma                76.704(2)
_cell_volume                     542.866
loop_
_atom_site_label
_atom_site_type_symbol
_atom_site_fract_x
_atom_site_fract_y
_atom_site_fract_z
Ce1 Ce 0.34865(3) 0.44047(2) 0.22088(2)
O1 O 0.0471(4) 0.6599(3) 0.1964(3)
O2 O 0.3430(4) 0.6283(3) 0.0111(3)
O3 O -0.1303(5) 0.6477(3) -0.0615(3)
O4 O -0.3528(5) 0.8215(3) -0.1464(3)
O5 O 0.7329(4) 0.3949(3) 0.5669(3)
O6 O 1.0361(5) 0.3691(3) 0.3839(3)
O7 O 0.6079(5) 0.2559(3) 0.3367(3)
O8 O 0.5891(5) 0.0255(3) 0.3017(4)
H1 H 0.4976 0.0659 0.2591
O9 O 0.6592(5) 0.5555(4) 0.2263(4)
H2 H 0.7676 0.4824 0.2214
H3 H 0.6900 0.5952 0.1451
C1 C 0.1546(6) 0.7029(4) 0.0810(4)
C2 C 0.0718(6) 0.8540(4) 0.0334(4)
C3 C -0.0957(6) 0.8920(4) -0.0386(4)
C4 C 0.1641(6) 0.9623(4) 0.0715(4)
H4 H 0.2740 0.9370 0.1202
C5 C -0.1978(6) 0.7801(4) -0.0843(4)
C6 C 0.8978(6) 0.3195(4) 0.4775(4)
C7 C 0.9434(6) 0.1540(4) 0.4869(4)
C8 C 1.1044(6) 0.0885(4) 0.5558(4)
H5 H 1.1760 0.1470 0.5940
C9 C 0.8384(6) 0.0628(4) 0.4307(4)
C10 C 0.6670(6) 0.1236(4) 0.3521(4)
Ce1A Ce -0.34865(3) 1.55953(2) -0.22088(2)
Ce1A_2 Ce 0.65135(3) 0.55953(2) -0.22088(2)
Ce1A_3 Ce -0.34865(3) 0.55953(2) -0.22088(2)
Ce1A_4 Ce 0.65135(3) 0.55953(2) 0.77912(2)
Ce1_2 Ce 1.34865(3) 0.44047(2) 0.22088(2)
Ce1_3 Ce -0.65135(3) 1.44047(2) 0.22088(2)
Ce1_4 Ce 0.34865(3) 1.44047(2) 0.22088(2)
Ce1_5 Ce 1.34865(3) -0.55953(2) 0.22088(2)
Ce1A_5 Ce 0.65135(3) -0.44047(2) 0.77912(2)
Ce1A_6 Ce 1.65135(3) -0.44047(2) 0.77912(2)
O1A O -0.0471(4) 1.3401(3) -0.1964(3)
O2A O -0.3430(4) 1.3717(3) -0.0111(3)
O2A_2 O 0.6570(4) 0.3717(3) -0.0111(3)
O2_2 O -0.6570(4) 1.6283(3) 0.0111(3)
O3A O 0.1303(5) 1.3523(3) 0.0615(3)
O3A_2 O 0.1303(5) 0.3523(3) 0.0615(3)
O3_2 O -0.1303(5) 1.6477(3) -0.0615(3)
O4A O 0.3528(5) 1.1785(3) 0.1464(3)
O4A_2 O 0.3528(5) 0.1785(3) 0.1464(3)
O4_2 O -0.3528(5) 1.8215(3) -0.1464(3)
O5A O 1.2671(4) -0.3949(3) 0.4331(3)
O5A_2 O 0.2671(4) 0.6051(3) 0.4331(3)
O5_2 O -0.2671(4) 1.3949(3) -0.4331(3)
O6A O 0.9639(5) -0.3691(3) 0.6161(3)
O6_2 O 0.0361(5) 0.3691(3) 0.3839(3)
O6A_2 O -0.0361(5) 1.6309(3) -0.3839(3)
O7A O 1.3921(5) -0.2559(3) 0.6633(3)
O7A_2 O -0.6079(5) 1.7441(3) -0.3367(3)
O8A O 1.4109(5) -0.0255(3) 0.6983(4)
H1A H 1.5024 -0.0659 0.7409
O9A O -0.6592(5) 1.4445(4) -0.2263(4)
H2A H -0.7676 1.5176 -0.2214
H3A H -0.6900 1.4048 -0.1451
C1A C -0.1546(6) 1.2971(4) -0.0810(4)
C2A C -0.0718(6) 1.1460(4) -0.0334(4)
C3A C 0.0957(6) 1.1080(4) 0.0386(4)
C4A C -0.1641(6) 1.0377(4) -0.0715(4)
H4A H -0.2740 1.0630 -0.1202
C5A C 0.1978(6) 1.2199(4) 0.0843(4)
C6A C 1.1022(6) -0.3195(4) 0.5225(4)
C7A C 1.0566(6) -0.1540(4) 0.5131(4)
C8A C 0.8956(6) -0.0885(4) 0.4442(4)
H5A H 0.8240 -0.1470 0.4060
C9A C 1.1616(6) -0.0628(4) 0.5693(4)
C10A C 1.3330(6) -0.1236(4) 0.6479(4)
loop_
_geom_bond_atom_site_label_1
_geom_bond_atom_site_label_2
_geom_bond_site_symmetry_1
_geom_bond_site_symmetry_2
Ce1 O1 1_555 1_555
O1 C1 1_555 1_555
O2 Ce1 1_555 1_555
O3 C5 1_555 1_555
O4 C5 1_555 1_555
O5 C6 1_555 1_555
O6 C6 1_555 1_555
O7 Ce1 1_555 1_555
O8 H1 1_555 1_555
O9 Ce1 1_555 1_555
H2 O9 1_555 1_555
H3 O9 1_555 1_555
C1 O2 1_555 1_555
C2 C1 1_555 1_555
C3 C2 1_555 1_555
C4 C2 1_555 1_555
H4 C4 1_555 1_555
C5 C3 1_555 1_555
C6 C7 1_555 1_555
C7 C8 1_555 1_555
C8 H5 1_555 1_555
C9 C7 1_555 1_555
C10 O7 1_555 1_555
Ce1A O1A 1_555 1_555
Ce1A_2 O2 1_555 1_555
Ce1A_3 O3 1_555 1_555
Ce1A_4 O5 1_555 1_555
Ce1_2 O6 1_555 1_555
Ce1_3 O2A 1_555 1_555
Ce1_4 O3A 1_555 1_555
Ce1_5 O5A 1_555 1_555
Ce1A_5 O6A 1_555 1_555
Ce1A_6 O7A 1_555 1_555
O1A C1A 1_555 1_555
O2A Ce1A 1_555 1_555
O2A_2 Ce1 1_555 1_555
O2_2 Ce1A 1_555 1_555
O3A C5A 1_555 1_555
O3A_2 Ce1 1_555 1_555
O3_2 Ce1A 1_555 1_555
O4A Ce1_4 1_555 1_555
O4A_2 Ce1 1_555 1_555
O4_2 Ce1A 1_555 1_555
O5A C6A 1_555 1_555
O5A_2 Ce1 1_555 1_555
O5_2 Ce1A 1_555 1_555
O6A C6A 1_555 1_555
O6_2 Ce1 1_555 1_555
O6A_2 Ce1A 1_555 1_555
O7A C10A 1_555 1_555
O7A_2 Ce1A 1_555 1_555
O8A H1A 1_555 1_555
O9A Ce1A 1_555 1_555
H2A O9A 1_555 1_555
H3A O9A 1_555 1_555
C1A O2A 1_555 1_555
C2A C1A 1_555 1_555
C3A C4 1_555 1_555
C4A C3 1_555 1_555
H4A C4A 1_555 1_555
C5A O4A 1_555 1_555
C6A C7A 1_555 1_555
C7A C8A 1_555 1_555
C8A C9 1_555 1_555
H5A C8A 1_555 1_555
C9A C8 1_555 1_555
C10A O8A 1_555 1_555
O4 Ce1A_3 1_555 1_555
O8 C10 1_555 1_555
C9 C10 1_555 1_555
Ce1A_2 O2A_2 1_555 1_555
Ce1_3 O2_2 1_555 1_555
C2A C3A 1_555 1_555
C2A C4A 1_555 1_555
C3A C5A 1_555 1_555
C7A C9A 1_555 1_555
C9A C10A 1_555 1_555

#END
