
#######################################################################
#
#                 Cambridge Crystallographic Data Centre
#                                CCDC 
#
#######################################################################
#
# If this CIF has been generated from an entry in the Cambridge 
# Structural Database, then it will include bibliographic, chemical, 
# crystal, experimental, refinement or atomic coordinate data resulting 
# from the CCDC's data processing and validation procedures.
#
#######################################################################

data_PIQWET
_symmetry_cell_setting           monoclinic
_symmetry_space_group_name_H-M   'P 21/n'
_symmetry_Int_Tables_number      14
_space_group_name_Hall           '-P 2yn'
loop_
_symmetry_equiv_pos_site_id
_symmetry_equiv_pos_as_xyz
1 x,y,z
2 1/2-x,1/2+y,1/2-z
3 -x,-y,-z
4 1/2+x,1/2-y,1/2+z
_cell_length_a                   7.4325(9)
_cell_length_b                   10.8433(14)
_cell_length_c                   15.0890(18)
_cell_angle_alpha                90
_cell_angle_beta                 100.908(5)
_cell_angle_gamma                90
_cell_volume                     1194.09
loop_
_atom_site_label
_atom_site_type_symbol
_atom_site_fract_x
_atom_site_fract_y
_atom_site_fract_z
Br1 Br 0.12752(4) 0.57611(3) 0.292347(18)
Cu1 Cu -0.18372(4) 0.51192(3) 0.22682(2)
C1 C -0.1902(3) 0.4189(2) 0.02659(18)
C2 C -0.1095(4) 0.2448(3) -0.0557(2)
H1 H -0.1038 0.2037 -0.1107
C3 C -0.0545(4) 0.2514(3) 0.1061(2)
H2 H -0.0077 0.2129 0.1623
C4 C -0.1834(4) 0.3636(3) -0.05675(19)
H3 H -0.2274 0.4053 -0.1120
C5 C -0.0440(4) 0.1870(3) 0.0269(2)
H4 H 0.0062 0.1063 0.0292
N1 N -0.2659(3) 0.5405(2) 0.03062(14)
N2 N -0.1277(3) 0.3658(2) 0.10708(15)
N3 N -0.3576(3) 0.7075(2) 0.08651(14)
C6 C -0.2803(3) 0.5960(2) 0.11185(17)
C7 C -0.3333(4) 0.6186(3) -0.04265(18)
H5 H -0.3379 0.6013 -0.1048
C8 C -0.3996(4) 0.8008(2) 0.15167(18)
H6 H -0.3919 0.7614 0.2115
H7 H -0.5268 0.8304 0.1316
C9 C -0.2690(4) 0.9112(3) 0.16099(19)
H8 H -0.2995 0.9791 0.1212
C10 C -0.1106(4) 0.9165(3) 0.2238(2)
H9 H -0.0773 0.8497 0.2643
H10 H -0.0338 0.9870 0.2270
C11 C -0.3904(4) 0.7229(3) -0.00743(18)
H11 H -0.4427 0.7932 -0.0401
Cu1A Cu -0.31628(4) 1.01192(3) 0.27318(2)
C9A C -0.2310(4) 0.4112(3) 0.33901(19)
C10A C -0.3894(4) 0.4165(3) 0.2762(2)
loop_
_geom_bond_atom_site_label_1
_geom_bond_atom_site_label_2
_geom_bond_site_symmetry_1
_geom_bond_site_symmetry_2
Br1 Cu1 1_555 1_555
Cu1 N2 1_555 1_555
C1 C4 1_555 1_555
C2 H1 1_555 1_555
C3 H2 1_555 1_555
C4 C2 1_555 1_555
H3 C4 1_555 1_555
C5 C2 1_555 1_555
H4 C5 1_555 1_555
N1 C1 1_555 1_555
N2 C1 1_555 1_555
N3 C6 1_555 1_555
C6 Cu1 1_555 1_555
C7 N1 1_555 1_555
H5 C7 1_555 1_555
C8 N3 1_555 1_555
H6 C8 1_555 1_555
H7 C8 1_555 1_555
C9 C8 1_555 1_555
H8 C9 1_555 1_555
C10 C9 1_555 1_555
H9 C10 1_555 1_555
H10 C10 1_555 1_555
C11 N3 1_555 1_555
H11 C11 1_555 1_555
Cu1A C9 1_555 1_555
C9A Cu1 1_555 1_555
C10A Cu1 1_555 1_555
C3 C5 1_555 1_555
C3 N2 1_555 1_555
N1 C6 1_555 1_555
C7 C11 1_555 1_555
C10 Cu1A 1_555 1_555
C9A C10A 1_555 1_555

#END
