
#######################################################################
#
#                 Cambridge Crystallographic Data Centre
#                                CCDC 
#
#######################################################################
#
# If this CIF has been generated from an entry in the Cambridge 
# Structural Database, then it will include bibliographic, chemical, 
# crystal, experimental, refinement or atomic coordinate data resulting 
# from the CCDC's data processing and validation procedures.
#
#######################################################################

data_PIRDIF
_symmetry_cell_setting           triclinic
_symmetry_space_group_name_H-M   'P -1'
_symmetry_Int_Tables_number      2
_space_group_name_Hall           '-P 1'
loop_
_symmetry_equiv_pos_site_id
_symmetry_equiv_pos_as_xyz
1 x,y,z
2 -x,-y,-z
_cell_length_a                   7.143(5)
_cell_length_b                   7.274(5)
_cell_length_c                   11.323(8)
_cell_angle_alpha                100.098(5)
_cell_angle_beta                 98.184(5)
_cell_angle_gamma                90.415(5)
_cell_volume                     572.997
loop_
_atom_site_label
_atom_site_type_symbol
_atom_site_fract_x
_atom_site_fract_y
_atom_site_fract_z
Sr1 Sr 0.72966(3) 0.94768(3) 0.393349(17)
O1 O 0.3807(3) 0.9070(3) 0.38808(18)
O2 O 0.0769(3) 0.8930(3) 0.39683(18)
C1 C 0.2134(4) 0.8675(4) 0.3376(2)
C2 C 0.1773(4) 0.7915(4) 0.2032(2)
H1 H 0.0433 0.7615 0.1787
H2 H 0.2452 0.6771 0.1863
C3 C 0.2399(4) 0.9313(4) 0.1295(2)
H3 H 0.1677 1.0435 0.1436
H4 H 0.3725 0.9657 0.1567
C4 C 0.2122(4) 0.8521(4) -0.0052(2)
H5 H 0.083 0.8035 -0.029
H6 H 0.2949 0.7477 -0.0189
C5 C 0.2500(4) 0.9885(4) -0.0871(2)
O3 O 0.3055(3) 1.1523(3) -0.04169(18)
O4 O 0.2211(3) 0.9279(3) -0.20056(17)
O5 O 0.6883(3) 0.6483(3) 0.22269(19)
O6 O 0.7455(3) 0.6567(3) 0.5045(2)
O7 O 0.6032(3) 1.2900(3) 0.3925(2)
H7 H 0.517(7) 1.307(7) 0.436(5)
H8 H 0.551(6) 1.301(6) 0.315(5)
H9 H 0.590(5) 0.572(5) 0.210(3)
H10 H 0.688(6) 0.701(6) 0.157(4)
H11 H 0.825(6) 0.650(6) 0.568(5)
H12 H 0.730(7) 0.560(7) 0.473(5)
Sr1_2 Sr -0.27034(3) 0.94768(3) 0.393349(17)
Sr1A Sr 0.27034(3) 1.05232(3) -0.393349(17)
Sr1A_2 Sr 0.27034(3) 1.05232(3) 0.606651(17)
O1A O 0.6193(3) 1.0930(3) 0.61192(18)
O2_2 O 1.0769(3) 0.8930(3) 0.39683(18)
O2A O 0.9231(3) 1.1070(3) 0.60317(18)
O4A O 0.7789(3) 1.0721(3) 0.20056(17)
O8 O 0.9829(3) 0.6179(4) 0.7176(2)
H13 H 1.051(7) 0.531(7) 0.722(5)
H14 H 1.057(7) 0.720(8) 0.745(5)
O9 O 0.6126(4) 0.6300(3) 0.8175(2)
H15 H 0.727(7) 0.623(6) 0.795(4)
H16 H 0.627(7) 0.696(7) 0.885(5)
loop_
_geom_bond_atom_site_label_1
_geom_bond_atom_site_label_2
_geom_bond_site_symmetry_1
_geom_bond_site_symmetry_2
Sr1 O1 1_555 1_555
O1 C1 1_555 1_555
O2 C1 1_555 1_555
C1 C2 1_555 1_555
C2 H1 1_555 1_555
H2 C2 1_555 1_555
C3 C2 1_555 1_555
H3 C3 1_555 1_555
H4 C3 1_555 1_555
C4 C3 1_555 1_555
H5 C4 1_555 1_555
H6 C4 1_555 1_555
C5 C4 1_555 1_555
O3 C5 1_555 1_555
O4 C5 1_555 1_555
O5 Sr1 1_555 1_555
O6 Sr1 1_555 1_555
O7 Sr1 1_555 1_555
H7 O7 1_555 1_555
H8 O7 1_555 1_555
H9 O5 1_555 1_555
H10 O5 1_555 1_555
H11 O6 1_555 1_555
H12 O6 1_555 1_555
O8 H13 1_555 1_555
H14 O8 1_555 1_555
O9 H15 1_555 1_555
H16 O9 1_555 1_555
Sr1_2 O2 1_555 1_555
Sr1A O4 1_555 1_555
Sr1A_2 O1 1_555 1_555
O1A Sr1 1_555 1_555
O2_2 Sr1 1_555 1_555
O2A Sr1 1_555 1_555
O4A Sr1 1_555 1_555
O2 Sr1A_2 1_555 1_555
Sr1A_2 O1A 1_555 1_555

#END
