
#######################################################################
#
#                 Cambridge Crystallographic Data Centre
#                                CCDC 
#
#######################################################################
#
# If this CIF has been generated from an entry in the Cambridge 
# Structural Database, then it will include bibliographic, chemical, 
# crystal, experimental, refinement or atomic coordinate data resulting 
# from the CCDC's data processing and validation procedures.
#
#######################################################################

data_PIRGOO
_symmetry_cell_setting           monoclinic
_symmetry_space_group_name_H-M   'C 2/m'
_symmetry_Int_Tables_number      12
_space_group_name_Hall           '-C 2y'
loop_
_symmetry_equiv_pos_site_id
_symmetry_equiv_pos_as_xyz
1 x,y,z
2 -x,y,-z
3 1/2+x,1/2+y,z
4 1/2-x,1/2+y,-z
5 -x,-y,-z
6 x,-y,z
7 1/2-x,1/2-y,-z
8 1/2+x,1/2-y,z
_cell_length_a                   8.387(2)
_cell_length_b                   24.660(5)
_cell_length_c                   4.7882(16)
_cell_angle_alpha                90
_cell_angle_beta                 114.56(3)
_cell_angle_gamma                90
_cell_volume                     900.715
loop_
_atom_site_label
_atom_site_type_symbol
_atom_site_fract_x
_atom_site_fract_y
_atom_site_fract_z
Sr1 Sr 0.00000 0.7321(8) 0.50000
O1 O 0.172(10) 0.6473(3) -0.113(3)
C1 C 0.2250(3) 0.6518(2) 0.1713(9)
O2 O 0.254(10) 0.6978(4) 0.293(2)
C2 C 0.25332(17) 0.60205(3) 0.3672(3)
C3 C 0.23489(16) 0.55102(2) 0.1696(2)
C4 C 0.26390(15) 0.50000 0.3707(3)
O3 O 0.00000 0.785(4) 0.00000
H1 H 0.167564 0.60098 0.451427
H2 H 0.368641 0.603082 0.531257
H3 H 0.119565 0.549992 0.005619
H4 H 0.320666 0.552091 0.085479
H5 H 0.18247 0.500 0.464265
H6 H 0.381493 0.500 0.527675
H7 H -0.076727 0.807653 -0.055852
O1E O 0.172(10) 0.3527(3) -0.113(3)
C1E C 0.2250(3) 0.3482(2) 0.1713(9)
O2E O 0.254(10) 0.3022(4) 0.293(2)
C2E C 0.25332(17) 0.39795(3) 0.3672(3)
C3E C 0.23489(16) 0.44898(2) 0.1696(2)
H1E H 0.167564 0.39902 0.451427
H2E H 0.368641 0.396918 0.531257
H3E H 0.119565 0.450008 0.005619
H4E H 0.320666 0.447909 0.085479
H7A H 0.076727 0.807653 0.055852
Sr1_2 Sr 0.00000 0.7321(8) -0.50000
Sr1D Sr 0.00000 0.2679(8) -0.50000
Sr1D_2 Sr 0.00000 0.2679(8) 0.50000
Sr1B Sr 0.50000 0.2321(8) 0.50000
Sr1F Sr 0.50000 0.7679(8) 0.50000
O1_2 O 0.172(10) 0.6473(3) 0.887(3)
O1A O -0.172(10) 0.6473(3) 0.113(3)
O2A O -0.254(10) 0.6978(4) 0.707(2)
O2F O 0.246(10) 0.8022(4) 0.707(2)
O2G O -0.246(10) 0.8022(4) 0.293(2)
O3_2 O 0.00000 0.785(4) 1.00000
loop_
_geom_bond_atom_site_label_1
_geom_bond_atom_site_label_2
_geom_bond_site_symmetry_1
_geom_bond_site_symmetry_2
Sr1 O2 1_555 1_555
O1 C1 1_555 1_555
C1 O2 1_555 1_555
O2 Sr1F 1_555 1_555
C2 C1 1_555 1_555
C3 C2 1_555 1_555
C4 C3 1_555 1_555
O3 Sr1 1_555 1_555
H1 C2 1_555 1_555
H2 C2 1_555 1_555
H3 C3 1_555 1_555
H4 C3 1_555 1_555
H5 C4 1_555 1_555
H6 C4 1_555 1_555
H7 O3 1_555 1_555
O1E C1E 1_555 1_555
C1E O2E 1_555 1_555
O2E Sr1D_2 1_555 1_555
C2E C1E 1_555 1_555
C3E C4 1_555 1_555
H1E C2E 1_555 1_555
H2E C2E 1_555 1_555
H3E C3E 1_555 1_555
H4E C3E 1_555 1_555
H7A O3 1_555 1_555
Sr1_2 O1 1_555 1_555
Sr1D O1E 1_555 1_555
Sr1B O2E 1_555 1_555
Sr1F O2F 1_555 1_555
O1_2 Sr1 1_555 1_555
O1A Sr1 1_555 1_555
O2A Sr1 1_555 1_555
O2F Sr1 1_555 1_555
O2G Sr1 1_555 1_555
O3_2 Sr1 1_555 1_555
O3 Sr1_2 1_555 1_555
C2E C3E 1_555 1_555

#END
