
#######################################################################
#
#                 Cambridge Crystallographic Data Centre
#                                CCDC 
#
#######################################################################
#
# If this CIF has been generated from an entry in the Cambridge 
# Structural Database, then it will include bibliographic, chemical, 
# crystal, experimental, refinement or atomic coordinate data resulting 
# from the CCDC's data processing and validation procedures.
#
#######################################################################

data_PIRGII
_symmetry_cell_setting           triclinic
_symmetry_space_group_name_H-M   'P -1'
_symmetry_Int_Tables_number      2
_space_group_name_Hall           '-P 1'
loop_
_symmetry_equiv_pos_site_id
_symmetry_equiv_pos_as_xyz
1 x,y,z
2 -x,-y,-z
_cell_length_a                   4.4248(9)
_cell_length_b                   9.9786(17)
_cell_length_c                   4.1841(8)
_cell_angle_alpha                97.957(17)
_cell_angle_beta                 97.03(2)
_cell_angle_gamma                97.061(16)
_cell_volume                     179.74
loop_
_atom_site_label
_atom_site_type_symbol
_atom_site_fract_x
_atom_site_fract_y
_atom_site_fract_z
Sr1 Sr 1.00000 1.00000 0.00000
O1 O 0.819(3) 0.8315(16) 0.447(5)
C1 C 0.5579(3) 0.79115(17) 0.2895(3)
O2 O 0.449(3) 0.8580(16) 0.083(5)
C2 C 0.37426(17) 0.66240(4) 0.34848(12)
C3 C 0.59429(11) 0.56609(4) 0.46965(7)
H1 H 0.249613 0.618031 0.149035
H2 H 0.244296 0.684436 0.510121
H3 H 0.724183 0.544016 0.307963
H4 H 0.719007 0.610477 0.669045
O1A O 0.181(3) 0.1685(16) 0.553(5)
C1A C 0.4421(3) 0.20885(17) 0.7105(3)
O2A O 0.551(3) 0.1420(16) 0.917(5)
C2A C 0.62574(17) 0.33760(4) 0.65152(12)
C3A C 0.40571(11) 0.43391(4) 0.53035(7)
H1A H 0.750387 0.381969 0.850965
H2A H 0.755704 0.315564 0.489879
H3A H 0.275817 0.455984 0.692037
H4A H 0.280993 0.389523 0.330955
Sr1_2 Sr 0.00000 0.00000 0.00000
Sr1_3 Sr 0.00000 0.00000 1.00000
Sr1_4 Sr 0.00000 1.00000 0.00000
Sr1_5 Sr 1.00000 0.00000 1.00000
Sr1_6 Sr 1.00000 1.00000 1.00000
O1_2 O 0.819(3) 0.8315(16) -0.553(5)
O1A_2 O 1.181(3) 1.1685(16) -0.447(5)
O1A_3 O 1.181(3) 1.1685(16) 0.553(5)
O2_2 O 1.449(3) 0.8580(16) 0.083(5)
O2A_2 O 0.551(3) 1.1420(16) -0.083(5)
O2A_3 O 1.551(3) 1.1420(16) -0.083(5)
loop_
_geom_bond_atom_site_label_1
_geom_bond_atom_site_label_2
_geom_bond_site_symmetry_1
_geom_bond_site_symmetry_2
Sr1 O1 1_555 1_555
O1 C1 1_555 1_555
C1 O2 1_555 1_555
O2 Sr1 1_555 1_555
C2 C1 1_555 1_555
C3 C2 1_555 1_555
H1 C2 1_555 1_555
H2 C2 1_555 1_555
H3 C3 1_555 1_555
H4 C3 1_555 1_555
O1A C1A 1_555 1_555
C1A O2A 1_555 1_555
O2A Sr1_3 1_555 1_555
C2A C1A 1_555 1_555
C3A C3 1_555 1_555
H1A C2A 1_555 1_555
H2A C2A 1_555 1_555
H3A C3A 1_555 1_555
H4A C3A 1_555 1_555
Sr1_2 O1A 1_555 1_555
Sr1_3 O1A 1_555 1_555
Sr1_4 O2 1_555 1_555
Sr1_5 O2A 1_555 1_555
Sr1_6 O1 1_555 1_555
O1_2 Sr1 1_555 1_555
O1A_2 Sr1 1_555 1_555
O1A_3 Sr1 1_555 1_555
O2_2 Sr1 1_555 1_555
O2A_2 Sr1 1_555 1_555
O2A_3 Sr1 1_555 1_555
C2A C3A 1_555 1_555
Sr1_4 O2A_2 1_555 1_555
Sr1_6 O1A_3 1_555 1_555

#END
