
#######################################################################
#
#                 Cambridge Crystallographic Data Centre
#                                CCDC 
#
#######################################################################
#
# If this CIF has been generated from an entry in the Cambridge 
# Structural Database, then it will include bibliographic, chemical, 
# crystal, experimental, refinement or atomic coordinate data resulting 
# from the CCDC's data processing and validation procedures.
#
#######################################################################

data_PIRHAB
_symmetry_cell_setting           triclinic
_symmetry_space_group_name_H-M   'P -1'
_symmetry_Int_Tables_number      2
_space_group_name_Hall           '-P 1'
loop_
_symmetry_equiv_pos_site_id
_symmetry_equiv_pos_as_xyz
1 x,y,z
2 -x,-y,-z
_cell_length_a                   6.4784(2)
_cell_length_b                   12.4965(3)
_cell_length_c                   5.7115(2)
_cell_angle_alpha                102.222(3)
_cell_angle_beta                 93.692(3)
_cell_angle_gamma                92.215(3)
_cell_volume                     450.321
loop_
_atom_site_label
_atom_site_type_symbol
_atom_site_fract_x
_atom_site_fract_y
_atom_site_fract_z
Sr1 Sr 0.7507(19) -0.0040(8) 0.750(2)
O1 O 0.075(4) 0.8635(10) 0.8712(7)
C1 C 0.09927(14) 0.83031(15) 0.65262(15)
O2 O 0.042(4) 0.8863(10) 0.5053(7)
C2 C 0.19969(5) 0.720242(19) 0.56459(9)
C3 C 0.16370(4) 0.644143(15) 0.73973(8)
C4 C 0.26462(4) 0.534549(14) 0.65069(8)
C5 C 0.22898(4) 0.458584(14) 0.82559(8)
C6 C 0.32970(4) 0.348925(15) 0.73638(8)
C7 C 0.29400(5) 0.272878(19) 0.91167(9)
C8 C 0.39430(14) 0.16270(15) 0.82342(15)
O3 O 0.423(4) 0.0990(10) 0.9630(14)
O4 O 0.447(4) 0.1370(10) 0.6124(14)
H1 H 0.139086 0.685863 0.407556
H2 H 0.345763 0.733465 0.55657
H3 H 0.017636 0.630637 0.747161
H4 H 0.224621 0.678441 0.896667
H5 H 0.410652 0.548066 0.643028
H6 H 0.203623 0.500224 0.493805
H7 H 0.082945 0.445131 0.833385
H8 H 0.29011 0.492874 0.982435
H9 H 0.475738 0.362378 0.728588
H10 H 0.268527 0.314618 0.579568
H11 H 0.147963 0.259701 0.920038
H12 H 0.354866 0.307266 1.068579
Sr1_2 Sr -0.2493(19) 0.9960(8) 0.750(2)
Sr1A Sr 0.2493(19) 0.0040(8) 0.250(2)
Sr1A_2 Sr 0.2493(19) 0.0040(8) 1.250(2)
Sr1A_3 Sr 0.2493(19) 1.0040(8) 0.250(2)
Sr1A_4 Sr 0.2493(19) 1.0040(8) 1.250(2)
O1_2 O 1.075(4) -0.1365(10) 0.8712(7)
O1A O 0.925(4) 0.1365(10) 1.1288(7)
O2_2 O 1.042(4) -0.1137(10) 0.5053(7)
O2A O 0.958(4) 0.1137(10) 0.4947(7)
O3A O 0.577(4) -0.0990(10) 1.0370(14)
O4A O 0.553(4) -0.1370(10) 0.3876(14)
loop_
_geom_bond_atom_site_label_1
_geom_bond_atom_site_label_2
_geom_bond_site_symmetry_1
_geom_bond_site_symmetry_2
Sr1 O3 1_555 1_555
O1 C1 1_555 1_555
C1 O2 1_555 1_555
O2 Sr1_2 1_555 1_555
C2 C1 1_555 1_555
C3 C2 1_555 1_555
C4 C3 1_555 1_555
C5 C4 1_555 1_555
C6 C5 1_555 1_555
C7 C6 1_555 1_555
C8 C7 1_555 1_555
O3 C8 1_555 1_555
O4 Sr1 1_555 1_555
H1 C2 1_555 1_555
H2 C2 1_555 1_555
H3 C3 1_555 1_555
H4 C3 1_555 1_555
H5 C4 1_555 1_555
H6 C4 1_555 1_555
H7 C5 1_555 1_555
H8 C5 1_555 1_555
H9 C6 1_555 1_555
H10 C6 1_555 1_555
H11 C7 1_555 1_555
H12 C7 1_555 1_555
Sr1_2 O1 1_555 1_555
Sr1A O4 1_555 1_555
Sr1A_2 O3 1_555 1_555
Sr1A_3 O2 1_555 1_555
Sr1A_4 O1 1_555 1_555
O1_2 Sr1 1_555 1_555
O1A Sr1 1_555 1_555
O2_2 Sr1 1_555 1_555
O2A Sr1 1_555 1_555
O3A Sr1 1_555 1_555
O4A Sr1 1_555 1_555
C8 O4 1_555 1_555
Sr1A O4A 1_555 1_555
Sr1A_2 O3A 1_555 1_555

#END
