
#######################################################################
#
#                 Cambridge Crystallographic Data Centre
#                                CCDC 
#
#######################################################################
#
# If this CIF has been generated from an entry in the Cambridge 
# Structural Database, then it will include bibliographic, chemical, 
# crystal, experimental, refinement or atomic coordinate data resulting 
# from the CCDC's data processing and validation procedures.
#
#######################################################################

data_PIRKOQ
_symmetry_cell_setting           triclinic
_symmetry_space_group_name_H-M   'P -1'
_symmetry_Int_Tables_number      2
_space_group_name_Hall           '-P 1'
loop_
_symmetry_equiv_pos_site_id
_symmetry_equiv_pos_as_xyz
1 x,y,z
2 -x,-y,-z
_cell_length_a                   7.0730(14)
_cell_length_b                   10.395(2)
_cell_length_c                   14.933(2)
_cell_angle_alpha                81.970(11)
_cell_angle_beta                 76.350(15)
_cell_angle_gamma                71.820(14)
_cell_volume                     1011.06
loop_
_atom_site_label
_atom_site_type_symbol
_atom_site_fract_x
_atom_site_fract_y
_atom_site_fract_z
Cs1 Cs 0.27987(5) 0.35178(3) 0.10597(2)
P1 P 0.2075(2) 0.63468(13) -0.06868(9)
H1 H 0.1803(82) 0.7564(36) -0.0362(35)
C1 C 0.4541(8) 0.5744(5) -0.2461(3)
C2 C 0.5989(8) 0.6043(5) -0.3202(3)
H2 H 0.6842(8) 0.5332(5) -0.3565(3)
C3 C 0.6259(8) 0.7337(5) -0.3443(3)
C4 C 0.4775(8) 0.8376(5) -0.2969(3)
H3 H 0.4809(8) 0.9272(5) -0.3154(3)
C5 C 0.3228(7) 0.8173(5) -0.2232(3)
C6 C 0.3244(7) 0.6808(5) -0.1880(3)
C7 C 0.4518(9) 0.4230(5) -0.2288(4)
C8 C 0.2362(10) 0.4102(6) -0.2001(5)
H4 H 0.1595(10) 0.4570(6) -0.2470(5)
H5 H 0.1705(10) 0.4505(6) -0.1417(5)
H6 H 0.2414(10) 0.3151(6) -0.1934(5)
C9 C 0.5754(10) 0.3493(5) -0.1550(4)
H7 H 0.7121(10) 0.3580(5) -0.1738(4)
H8 H 0.5814(10) 0.2540(5) -0.1482(4)
H9 H 0.5106(10) 0.3895(5) -0.0965(4)
C10 C 0.5513(13) 0.3457(6) -0.3167(5)
H10 H 0.6895(13) 0.3507(6) -0.3380(5)
H11 H 0.4741(13) 0.3862(6) -0.3645(5)
H12 H 0.5527(13) 0.2514(6) -0.3032(5)
C11 C 0.7966(10) 0.7570(6) -0.4236(4)
C12 C 1.0035(12) 0.6740(9) -0.4002(5)
H13 H 1.0086(12) 0.5789(9) -0.3886(5)
H14 H 1.0202(12) 0.7065(9) -0.3456(5)
H15 H 1.1119(12) 0.6843(9) -0.4517(5)
C13 C 0.7749(13) 0.7109(7) -0.5135(4)
H16 H 0.7782(13) 0.6160(7) -0.5046(4)
H17 H 0.8862(13) 0.7223(7) -0.5631(4)
H18 H 0.6468(13) 0.7653(7) -0.5293(4)
C14 C 0.7905(12) 0.9065(7) -0.4418(5)
H19 H 0.9010(12) 0.9161(7) -0.4924(5)
H20 H 0.8047(12) 0.9391(7) -0.3866(5)
H21 H 0.6618(12) 0.9591(7) -0.4578(5)
C15 C 0.1621(8) 0.9494(5) -0.1858(3)
C16 C 0.1419(11) 1.0662(5) -0.2643(4)
H22 H 0.2729(11) 1.0827(5) -0.2883(4)
H23 H 0.0438(11) 1.1483(5) -0.2398(4)
H24 H 0.0965(11) 1.0402(5) -0.3137(4)
C17 C -0.0525(8) 0.9350(5) -0.1552(4)
H25 H -0.0874(8) 0.9022(5) -0.2051(4)
H26 H -0.1481(8) 1.0226(5) -0.1398(4)
H27 H -0.0583(8) 0.8710(5) -0.1015(4)
C18 C 0.2262(10) 1.0012(6) -0.1093(4)
H28 H 0.3629(10) 1.0091(6) -0.1311(4)
H29 H 0.2229(10) 0.9379(6) -0.0551(4)
H30 H 0.1331(10) 1.0895(6) -0.0934(4)
P1A P -0.2075(2) 0.36532(13) 0.06868(9)
P1A_2 P 0.7925(2) 0.36532(13) 0.06868(9)
Cs1A Cs -0.27987(5) 0.64822(3) -0.10597(2)
Cs1A_2 Cs 0.72013(5) 0.64822(3) -0.10597(2)
H1A H -0.1803(82) 0.2436(36) 0.0362(35)
H1A_2 H 0.8197(82) 0.2436(36) 0.0362(35)
loop_
_geom_bond_atom_site_label_1
_geom_bond_atom_site_label_2
_geom_bond_site_symmetry_1
_geom_bond_site_symmetry_2
Cs1 P1 1_555 1_555
P1 H1 1_555 1_555
C1 C2 1_555 1_555
C2 H2 1_555 1_555
C3 C2 1_555 1_555
C4 C3 1_555 1_555
H3 C4 1_555 1_555
C5 C4 1_555 1_555
C6 P1 1_555 1_555
C7 C1 1_555 1_555
C8 C7 1_555 1_555
H4 C8 1_555 1_555
H5 C8 1_555 1_555
H6 C8 1_555 1_555
C9 C7 1_555 1_555
H7 C9 1_555 1_555
H8 C9 1_555 1_555
H9 C9 1_555 1_555
C10 C7 1_555 1_555
H10 C10 1_555 1_555
H11 C10 1_555 1_555
H12 C10 1_555 1_555
C11 C3 1_555 1_555
C12 C11 1_555 1_555
H13 C12 1_555 1_555
H14 C12 1_555 1_555
H15 C12 1_555 1_555
C13 C11 1_555 1_555
H16 C13 1_555 1_555
H17 C13 1_555 1_555
H18 C13 1_555 1_555
C14 C11 1_555 1_555
H19 C14 1_555 1_555
H20 C14 1_555 1_555
H21 C14 1_555 1_555
C15 C5 1_555 1_555
C16 C15 1_555 1_555
H22 C16 1_555 1_555
H23 C16 1_555 1_555
H24 C16 1_555 1_555
C17 C15 1_555 1_555
H25 C17 1_555 1_555
H26 C17 1_555 1_555
H27 C17 1_555 1_555
C18 C15 1_555 1_555
H28 C18 1_555 1_555
H29 C18 1_555 1_555
H30 C18 1_555 1_555
P1A Cs1 1_555 1_555
P1A_2 Cs1 1_555 1_555
Cs1A P1 1_555 1_555
Cs1A_2 P1 1_555 1_555
H1A P1A 1_555 1_555
H1A_2 P1A_2 1_555 1_555
C1 C6 1_555 1_555
C5 C6 1_555 1_555
P1A Cs1A 1_555 1_555
P1A_2 Cs1A_2 1_555 1_555

#END
