
#######################################################################
#
#                 Cambridge Crystallographic Data Centre
#                                CCDC 
#
#######################################################################
#
# If this CIF has been generated from an entry in the Cambridge 
# Structural Database, then it will include bibliographic, chemical, 
# crystal, experimental, refinement or atomic coordinate data resulting 
# from the CCDC's data processing and validation procedures.
#
#######################################################################

data_PIRMOU01
_symmetry_cell_setting           orthorhombic
_symmetry_space_group_name_H-M   'P 21 21 2'
_symmetry_Int_Tables_number      18
_space_group_name_Hall           'P 2 2ab'
loop_
_symmetry_equiv_pos_site_id
_symmetry_equiv_pos_as_xyz
1 x,y,z
2 -x,-y,z
3 1/2+x,1/2-y,-z
4 1/2-x,1/2+y,-z
_cell_length_a                   6.4217(2)
_cell_length_b                   18.0295(6)
_cell_length_c                   9.5740(2)
_cell_angle_alpha                90
_cell_angle_beta                 90
_cell_angle_gamma                90
_cell_volume                     1108.48
loop_
_atom_site_label
_atom_site_type_symbol
_atom_site_fract_x
_atom_site_fract_y
_atom_site_fract_z
Rb1 Rb 0.39798(7) 0.65151(3) 0.53116(5)
Cl1 Cl 0.1626(2) 0.70374(7) -0.12323(12)
Cl2 Cl 0.1563(2) 0.69946(7) 0.20293(12)
O1 O 0.2022(6) 0.5507(2) 0.3174(4)
O2 O 0.2000(7) 0.5552(2) -0.2499(4)
O3 O 0.7606(7) 0.5536(2) 0.5294(4)
H1 H 0.8043 0.5204 0.6007
H2 H 0.7982 0.5304 0.4440
O4 O 0.4395(7) 0.8062(2) 0.4472(4)
H3 H 0.3779 0.8541 0.4517
H4 H 0.4792 0.8010 0.3521
N1 N 0.3357(8) 0.3674(3) 0.2436(4)
N2 N 0.3306(8) 0.3726(3) -0.1918(5)
C1 C 0.2011(9) 0.5505(3) 0.1872(5)
C2 C 0.2341(8) 0.4847(3) 0.1046(5)
C3 C 0.2324(7) 0.4857(3) -0.0402(5)
C4 C 0.2015(8) 0.5542(3) -0.1198(6)
C5 C 0.1783(7) 0.6215(3) -0.0341(6)
C6 C 0.1782(8) 0.6201(3) 0.1074(6)
C7 C 0.2875(8) 0.4174(3) 0.1808(5)
C8 C 0.2854(8) 0.4220(3) -0.1216(5)
Rb1_2 Rb 0.39798(7) 0.65151(3) -0.46884(5)
Rb1A Rb 0.60202(7) 0.34849(3) -0.46884(5)
Rb1A_2 Rb 0.60202(7) 0.34849(3) 0.53116(5)
Rb1B Rb 0.89798(7) 0.84849(3) 0.46884(5)
O2_2 O 0.2000(7) 0.5552(2) 0.7501(4)
O4B O -0.0605(7) 0.6938(2) 0.5528(4)
N1A N 0.6643(8) 0.6326(3) 0.2436(4)
N2A N 0.6694(8) 0.6274(3) 0.8082(5)
loop_
_geom_bond_atom_site_label_1
_geom_bond_atom_site_label_2
_geom_bond_site_symmetry_1
_geom_bond_site_symmetry_2
Rb1 O1 1_555 1_555
Cl1 C5 1_555 1_555
Cl2 C6 1_555 1_555
O1 C1 1_555 1_555
O2 C4 1_555 1_555
O3 Rb1 1_555 1_555
H1 O3 1_555 1_555
H2 O3 1_555 1_555
O4 Rb1 1_555 1_555
H3 O4 1_555 1_555
H4 O4 1_555 1_555
N1 C7 1_555 1_555
N2 C8 1_555 1_555
C1 C2 1_555 1_555
C2 C3 1_555 1_555
C3 C4 1_555 1_555
C4 C5 1_555 1_555
C5 C6 1_555 1_555
C6 C1 1_555 1_555
C7 C2 1_555 1_555
C8 C3 1_555 1_555
Rb1_2 O2 1_555 1_555
Rb1A N2 1_555 1_555
Rb1A_2 N1 1_555 1_555
Rb1B O4 1_555 1_555
O2_2 Rb1 1_555 1_555
O4B Rb1 1_555 1_555
N1A Rb1 1_555 1_555
N2A Rb1 1_555 1_555

#END
