
#######################################################################
#
#                 Cambridge Crystallographic Data Centre
#                                CCDC 
#
#######################################################################
#
# If this CIF has been generated from an entry in the Cambridge 
# Structural Database, then it will include bibliographic, chemical, 
# crystal, experimental, refinement or atomic coordinate data resulting 
# from the CCDC's data processing and validation procedures.
#
#######################################################################

data_PIRQEM
_symmetry_cell_setting           triclinic
_symmetry_space_group_name_H-M   'P -1'
_symmetry_Int_Tables_number      2
_space_group_name_Hall           '-P 1'
loop_
_symmetry_equiv_pos_site_id
_symmetry_equiv_pos_as_xyz
1 x,y,z
2 -x,-y,-z
_cell_length_a                   6.71320(10)
_cell_length_b                   10.5022(2)
_cell_length_c                   14.9733(3)
_cell_angle_alpha                91.3524(13)
_cell_angle_beta                 102.5584(13)
_cell_angle_gamma                107.7966(14)
_cell_volume                     976.486
loop_
_atom_site_label
_atom_site_type_symbol
_atom_site_fract_x
_atom_site_fract_y
_atom_site_fract_z
Rb1 Rb 0.89091(7) 0.63795(5) 0.60589(4)
P1 P 0.3715(2) 0.62975(12) 0.56579(9)
C1 C 0.2930(7) 0.5703(4) 0.7421(3)
C2 C 0.2178(7) 0.6001(5) 0.8170(3)
H1 H 0.1566(7) 0.5255(5) 0.8523(3)
C3 C 0.2161(8) 0.7276(5) 0.8429(3)
C4 C 0.3168(8) 0.8301(5) 0.7961(3)
H2 H 0.3212(8) 0.9225(5) 0.8140(3)
C5 C 0.4041(7) 0.8104(4) 0.7214(3)
C6 C 0.3673(6) 0.6747(4) 0.6847(3)
C7 C 0.2791(8) 0.4210(5) 0.7219(4)
C8 C 0.4814(9) 0.4088(5) 0.6932(4)
H3 H 0.6091(9) 0.4561(5) 0.7405(4)
H4 H 0.4912(9) 0.4479(5) 0.6356(4)
H5 H 0.4706(9) 0.3148(5) 0.6855(4)
C9 C 0.0771(9) 0.3468(5) 0.6479(4)
H6 H 0.0784(9) 0.3922(5) 0.5923(4)
H7 H -0.0496(9) 0.3460(5) 0.6693(4)
H8 H 0.0743(9) 0.2552(5) 0.6352(4)
C10 C 0.2686(11) 0.3446(5) 0.8089(4)
H9 H 0.3950(11) 0.3892(5) 0.8575(4)
H10 H 0.2641(11) 0.2530(5) 0.7947(4)
H11 H 0.1402(11) 0.3438(5) 0.8289(4)
C11 C 0.1233(9) 0.7505(5) 0.9243(4)
C12 C 0.1384(11) 0.8994(6) 0.9425(4)
H12 H 0.0605(11) 0.9273(6) 0.8881(4)
H13 H 0.2883(11) 0.9552(6) 0.9568(4)
H14 H 0.0760(11) 0.9091(6) 0.9939(4)
C13 C -0.1157(11) 0.6659(7) 0.9058(5)
H15 H -0.1948(11) 0.6905(7) 0.8503(5)
H16 H -0.1735(11) 0.6825(7) 0.9574(5)
H17 H -0.1297(11) 0.5714(7) 0.8982(5)
C14 C 0.2477(12) 0.7121(7) 1.0113(4)
H18 H 0.1880(12) 0.7269(7) 1.0626(4)
H19 H 0.3978(12) 0.7669(7) 1.0236(4)
H20 H 0.2365(12) 0.6181(7) 1.0032(4)
C15 C 0.5293(8) 0.9414(5) 0.6849(3)
C16 C 0.6283(10) 1.0595(5) 0.7638(4)
H21 H 0.7244(10) 1.0348(5) 0.8135(4)
H22 H 0.5136(10) 1.0771(5) 0.7865(4)
H23 H 0.7081(10) 1.1396(5) 0.7401(4)
C17 C 0.3809(10) 0.9890(6) 0.6099(4)
H24 H 0.2592(10) 0.9962(6) 0.6323(4)
H25 H 0.3296(10) 0.9247(6) 0.5558(4)
H26 H 0.4600(10) 1.0760(6) 0.5942(4)
C18 C 0.7269(8) 0.9282(5) 0.6523(4)
H27 H 0.8176(8) 0.8980(5) 0.7011(4)
H28 H 0.8086(8) 1.0148(5) 0.6369(4)
H29 H 0.6782(8) 0.8635(5) 0.5985(4)
P1_2 P 1.3715(2) 0.62975(12) 0.56579(9)
P1A P 0.6285(2) 0.37025(12) 0.43421(9)
Rb1_2 Rb -0.10909(7) 0.63795(5) 0.60589(4)
Rb1A Rb 0.10909(7) 0.36205(5) 0.39411(4)
loop_
_geom_bond_atom_site_label_1
_geom_bond_atom_site_label_2
_geom_bond_site_symmetry_1
_geom_bond_site_symmetry_2
Rb1 P1 1_555 1_555
P1 C6 1_555 1_555
C1 C2 1_555 1_555
C2 H1 1_555 1_555
C3 C2 1_555 1_555
C4 C3 1_555 1_555
H2 C4 1_555 1_555
C5 C4 1_555 1_555
C6 C1 1_555 1_555
C7 C1 1_555 1_555
C8 C7 1_555 1_555
H3 C8 1_555 1_555
H4 C8 1_555 1_555
H5 C8 1_555 1_555
C9 C7 1_555 1_555
H6 C9 1_555 1_555
H7 C9 1_555 1_555
H8 C9 1_555 1_555
C10 C7 1_555 1_555
H9 C10 1_555 1_555
H10 C10 1_555 1_555
H11 C10 1_555 1_555
C11 C3 1_555 1_555
C12 C11 1_555 1_555
H12 C12 1_555 1_555
H13 C12 1_555 1_555
H14 C12 1_555 1_555
C13 C11 1_555 1_555
H15 C13 1_555 1_555
H16 C13 1_555 1_555
H17 C13 1_555 1_555
C14 C11 1_555 1_555
H18 C14 1_555 1_555
H19 C14 1_555 1_555
H20 C14 1_555 1_555
C15 C5 1_555 1_555
C16 C15 1_555 1_555
H21 C16 1_555 1_555
H22 C16 1_555 1_555
H23 C16 1_555 1_555
C17 C15 1_555 1_555
H24 C17 1_555 1_555
H25 C17 1_555 1_555
H26 C17 1_555 1_555
C18 C15 1_555 1_555
H27 C18 1_555 1_555
H28 C18 1_555 1_555
H29 C18 1_555 1_555
P1_2 Rb1 1_555 1_555
P1A Rb1 1_555 1_555
Rb1_2 P1 1_555 1_555
Rb1A P1 1_555 1_555
C5 C6 1_555 1_555
P1A Rb1A 1_555 1_555

#END
