
#######################################################################
#
#                 Cambridge Crystallographic Data Centre
#                                CCDC 
#
#######################################################################
#
# If this CIF has been generated from an entry in the Cambridge 
# Structural Database, then it will include bibliographic, chemical, 
# crystal, experimental, refinement or atomic coordinate data resulting 
# from the CCDC's data processing and validation procedures.
#
#######################################################################

data_PIRSUG
_symmetry_cell_setting           monoclinic
_symmetry_space_group_name_H-M   'P 21/n'
_symmetry_Int_Tables_number      14
_space_group_name_Hall           '-P 2yn'
loop_
_symmetry_equiv_pos_site_id
_symmetry_equiv_pos_as_xyz
1 x,y,z
2 1/2-x,1/2+y,1/2-z
3 -x,-y,-z
4 1/2+x,1/2-y,1/2+z
_cell_length_a                   6.8047(11)
_cell_length_b                   18.747(2)
_cell_length_c                   8.4936(15)
_cell_angle_alpha                90
_cell_angle_beta                 106.44(2)
_cell_angle_gamma                90
_cell_volume                     1039.21
loop_
_atom_site_label
_atom_site_type_symbol
_atom_site_fract_x
_atom_site_fract_y
_atom_site_fract_z
Cs1 Cs 0.74560(5) 0.07542(2) 0.65494(4)
O1 O 0.7426(7) 0.0748(2) 1.0368(6)
Cl1 Cl 1.2134(2) 0.08569(8) 0.57896(19)
O2 O 0.7090(6) 0.2165(2) 0.9142(5)
O3 O 0.5125(6) 0.2744(2) 1.1469(5)
O4 O 0.5316(6) 0.0483(2) 1.2793(5)
C1 C 0.6238(8) 0.1288(3) 1.0875(7)
H1 H 0.7126 0.1543 1.1853
C2 C 0.4506(9) 0.0917(3) 1.1358(7)
H2 H 0.3724 0.0609 1.0431
C3 C 0.5386(8) 0.1822(3) 0.9518(6)
H3 H 0.4559 0.1562 0.8522
C4 C 0.4026(8) 0.2363(3) 1.0032(7)
H4 H 0.3464 0.2706 0.9114
O5 O 0.1347(6) 0.1066(2) 1.2086(5)
O6 O 0.0960(6) 0.2506(2) 1.0904(5)
C5 C 0.3034(8) 0.1448(3) 1.1809(7)
H5 H 0.3773 0.1709 1.2833
C6 C 0.2250(8) 0.1973(3) 1.0455(7)
H6 H 0.1427 0.1713 0.9459
H7 H 0.751(8) 0.0377(14) 1.095(6)
H8 H 0.675(5) 0.232(3) 0.816(3)
H9 H 0.595(7) 0.303(3) 1.122(4)
H10 H 0.156(6) 0.098(3) 1.3104(19)
H11 H -0.024(3) 0.247(3) 1.026(5)
H12 H 0.607(9) 0.015(3) 1.261(9)
Cs1_2 Cs 0.74560(5) 0.07542(2) 1.65494(4)
Cs1_3 Cs 1.74560(5) 0.07542(2) 0.65494(4)
Cs1B Cs 0.25440(5) -0.07542(2) 1.34506(4)
Cs1C Cs 0.24560(5) 0.42458(2) 1.15494(4)
Cl1_2 Cl 0.2134(2) 0.08569(8) 0.57896(19)
O3C O 1.0125(6) 0.2256(2) 0.6469(5)
O4_2 O 0.5316(6) 0.0483(2) 0.2793(5)
O4B O 0.4684(6) -0.0483(2) 0.7207(5)
O5B O 0.8653(6) -0.1066(2) 0.7914(5)
O6C O 0.5960(6) 0.2494(2) 0.5904(5)
loop_
_geom_bond_atom_site_label_1
_geom_bond_atom_site_label_2
_geom_bond_site_symmetry_1
_geom_bond_site_symmetry_2
Cs1 O1 1_555 1_555
O1 C1 1_555 1_555
Cl1 Cs1 1_555 1_555
O2 Cs1 1_555 1_555
O3 C4 1_555 1_555
O4 C2 1_555 1_555
C1 H1 1_555 1_555
C2 C1 1_555 1_555
H2 C2 1_555 1_555
C3 O2 1_555 1_555
H3 C3 1_555 1_555
C4 C3 1_555 1_555
H4 C4 1_555 1_555
O5 C5 1_555 1_555
O6 C6 1_555 1_555
C5 C2 1_555 1_555
H5 C5 1_555 1_555
C6 C4 1_555 1_555
H6 C6 1_555 1_555
H7 O1 1_555 1_555
H8 O2 1_555 1_555
H9 O3 1_555 1_555
H10 O5 1_555 1_555
H11 O6 1_555 1_555
H12 O4 1_555 1_555
Cs1_2 O4 1_555 1_555
Cs1_3 Cl1 1_555 1_555
Cs1B O4 1_555 1_555
Cs1C O3 1_555 1_555
Cl1_2 Cs1 1_555 1_555
O3C Cs1 1_555 1_555
O4_2 Cs1 1_555 1_555
O4B Cs1 1_555 1_555
O5B Cs1 1_555 1_555
O6C Cs1 1_555 1_555
C1 C3 1_555 1_555
O5 Cs1B 1_555 1_555
O6 Cs1C 1_555 1_555
C5 C6 1_555 1_555

#END
