
#######################################################################
#
#                 Cambridge Crystallographic Data Centre
#                                CCDC 
#
#######################################################################
#
# If this CIF has been generated from an entry in the Cambridge 
# Structural Database, then it will include bibliographic, chemical, 
# crystal, experimental, refinement or atomic coordinate data resulting 
# from the CCDC's data processing and validation procedures.
#
#######################################################################

data_PIRTAN
_symmetry_cell_setting           orthorhombic
_symmetry_space_group_name_H-M   'P 21 21 21'
_symmetry_Int_Tables_number      19
_space_group_name_Hall           'P 2ac 2ab'
loop_
_symmetry_equiv_pos_site_id
_symmetry_equiv_pos_as_xyz
1 x,y,z
2 1/2-x,-y,1/2+z
3 1/2+x,1/2-y,-z
4 -x,1/2+y,1/2-z
_cell_length_a                   6.7596(14)
_cell_length_b                   8.8699(18)
_cell_length_c                   15.191(3)
_cell_angle_alpha                90
_cell_angle_beta                 90
_cell_angle_gamma                90
_cell_volume                     910.806
loop_
_atom_site_label
_atom_site_type_symbol
_atom_site_fract_x
_atom_site_fract_y
_atom_site_fract_z
Cs1 Cs 1.03349(3) 0.51957(3) 1.021171(14)
Cl1 Cl 0.54106(14) 0.60006(11) 1.01541(6)
O1 O 1.2280(4) 0.7462(4) 1.39697(18)
O2 O 0.9065(5) 0.6769(4) 1.3957(2)
H1 H 0.9252 0.6081 1.4327
O3 O 1.5737(4) 0.8570(4) 1.22128(19)
H2 H 1.6365 0.9310 1.2415
O4 O 1.3103(4) 0.6122(3) 1.18685(18)
H3 H 1.3761 0.6207 1.1402
O5 O 0.9086(4) 0.6633(4) 1.20623(18)
H4 H 0.8020 0.7107 1.2128
C1 C 1.0783(6) 0.6673(5) 1.3469(2)
H5 H 1.1169 0.5596 1.3379
C2 C 1.4136(6) 0.7569(5) 1.3531(3)
H6 H 1.4654 0.6547 1.3409
H7 H 1.5099 0.8100 1.3912
C3 C 1.3884(6) 0.8432(5) 1.2668(3)
H8 H 1.3361 0.9462 1.2799
C4 C 1.0465(5) 0.7463(4) 1.2584(2)
H9 H 0.9923 0.8495 1.2693
C5 C 1.2412(6) 0.7602(5) 1.2083(2)
H10 H 1.2194 0.8189 1.1529
Cs1_2 Cs 0.03349(3) 0.51957(3) 1.021171(14)
Cs1A Cs 1.46651(3) 0.48043(3) 1.521171(14)
Cs1B Cs 0.53349(3) 0.98043(3) 0.978829(14)
Cs1C Cs 0.96651(3) 1.01957(3) 1.478829(14)
Cl1_2 Cl 1.54106(14) 0.60006(11) 1.01541(6)
Cl1B Cl 1.04106(14) 0.89994(11) 0.98459(6)
O1A O 1.2720(4) 0.2538(4) 0.89697(18)
O1C O 0.7720(4) 0.2462(4) 1.10303(18)
O2C O 1.0935(5) 0.1769(4) 1.1043(2)
loop_
_geom_bond_atom_site_label_1
_geom_bond_atom_site_label_2
_geom_bond_site_symmetry_1
_geom_bond_site_symmetry_2
Cs1 Cl1 1_555 1_555
Cl1 Cs1_2 1_555 1_555
O1 C1 1_555 1_555
O2 H1 1_555 1_555
O3 H2 1_555 1_555
O4 Cs1 1_555 1_555
H3 O4 1_555 1_555
O5 Cs1 1_555 1_555
H4 O5 1_555 1_555
C1 O2 1_555 1_555
H5 C1 1_555 1_555
C2 O1 1_555 1_555
H6 C2 1_555 1_555
H7 C2 1_555 1_555
C3 O3 1_555 1_555
H8 C3 1_555 1_555
C4 O5 1_555 1_555
H9 C4 1_555 1_555
C5 O4 1_555 1_555
H10 C5 1_555 1_555
Cs1A O1 1_555 1_555
Cs1B Cl1 1_555 1_555
Cs1C O1 1_555 1_555
Cl1_2 Cs1 1_555 1_555
Cl1B Cs1 1_555 1_555
O1A Cs1 1_555 1_555
O1C Cs1 1_555 1_555
O2C Cs1 1_555 1_555
O2 Cs1C 1_555 1_555
C1 C4 1_555 1_555
C2 C3 1_555 1_555
C3 C5 1_555 1_555
C4 C5 1_555 1_555
Cs1B Cl1B 1_555 1_555

#END
