
#######################################################################
#
#                 Cambridge Crystallographic Data Centre
#                                CCDC 
#
#######################################################################
#
# If this CIF has been generated from an entry in the Cambridge 
# Structural Database, then it will include bibliographic, chemical, 
# crystal, experimental, refinement or atomic coordinate data resulting 
# from the CCDC's data processing and validation procedures.
#
#######################################################################

data_PIRVER
_symmetry_cell_setting           orthorhombic
_symmetry_space_group_name_H-M   'P b c n'
_symmetry_Int_Tables_number      60
_space_group_name_Hall           '-P 2n 2ab'
loop_
_symmetry_equiv_pos_site_id
_symmetry_equiv_pos_as_xyz
1 x,y,z
2 1/2+x,1/2+y,1/2-z
3 x,-y,1/2+z
4 1/2-x,1/2+y,z
5 -x,-y,-z
6 1/2-x,1/2-y,1/2+z
7 -x,y,1/2-z
8 1/2+x,1/2-y,-z
_cell_length_a                   14.6162(2)
_cell_length_b                   21.3992(3)
_cell_length_c                   28.7037(2)
_cell_angle_alpha                90
_cell_angle_beta                 90
_cell_angle_gamma                90
_cell_volume                     8977.8
loop_
_atom_site_label
_atom_site_type_symbol
_atom_site_fract_x
_atom_site_fract_y
_atom_site_fract_z
Cs1 Cs 1.04885(2) 0.084248(14) 0.553913(10)
Cs2 Cs 1.11584(2) -0.044720(13) 0.313540(9)
P1 P 1.15322(9) 0.02285(6) 0.43380(5)
P2 P 1.12988(9) 0.06668(7) 0.67758(5)
N1 N 0.9136(3) 0.1644(2) 0.6196(2)
N2 N 0.8788(3) 0.2637(2) 0.6258(2)
C1 C 0.9336(4) 0.2156(3) 0.6400(2)
H1 H 0.9806(4) 0.2197(3) 0.6621(2)
C2 C 0.8225(4) 0.2386(3) 0.5938(2)
H2 H 0.7768(4) 0.2596(3) 0.5770(2)
C3 C 0.8441(4) 0.1781(3) 0.5907(2)
H3 H 0.8148(4) 0.1492(3) 0.5710(2)
C4 C 0.8848(7) 0.3281(3) 0.6417(3)
H4 H 0.9324(7) 0.3315(3) 0.6651(3)
H5 H 0.8267(7) 0.3406(3) 0.6550(3)
H6 H 0.8994(7) 0.3550(3) 0.6155(3)
C5 C 1.1723(3) 0.1021(2) 0.45699(14)
C6 C 1.2387(3) 0.1188(2) 0.49212(14)
C7 C 1.2330(3) 0.1770(2) 0.51377(14)
H7 H 1.2814(3) 0.1881(2) 0.53641(14)
C8 C 1.1683(3) 0.2224(2) 0.50286(14)
C9 C 1.1104(3) 0.2082(2) 0.4662(2)
H8 H 1.0630(3) 0.2392(2) 0.4578(2)
C10 C 1.1118(3) 0.1515(2) 0.44195(14)
C11 C 1.3184(3) 0.0750(2) 0.5087(2)
C12 C 1.2802(4) 0.0205(3) 0.5379(2)
H9 H 1.2441(4) 0.0369(3) 0.5635(2)
H10 H 1.3305(4) -0.0041(3) 0.5502(2)
H11 H 1.2419(4) -0.0058(3) 0.5184(2)
C13 C 1.3764(3) 0.0538(3) 0.4675(2)
H12 H 1.3983(3) 0.0901(3) 0.4506(2)
H13 H 1.3396(3) 0.0281(3) 0.4469(2)
H14 H 1.4281(3) 0.0298(3) 0.4787(2)
C14 C 1.3854(4) 0.1099(4) 0.5417(2)
H15 H 1.3524(4) 0.1247(4) 0.5688(2)
H16 H 1.4120(4) 0.1452(4) 0.5254(2)
H17 H 1.4335(4) 0.0816(4) 0.5514(2)
C15 C 1.1626(3) 0.2846(2) 0.5300(2)
C16 C 1.2557(4) 0.3039(3) 0.5506(2)
H18 H 1.2996(4) 0.3094(3) 0.5255(2)
H19 H 1.2771(4) 0.2717(3) 0.5716(2)
H20 H 1.2490(4) 0.3429(3) 0.5675(2)
C17 C 1.1326(5) 0.3378(2) 0.4979(2)
H21 H 1.1766(5) 0.3424(2) 0.4728(2)
H22 H 1.1294(5) 0.3764(2) 0.5155(2)
H23 H 1.0729(5) 0.3284(2) 0.4849(2)
C18 C 1.0953(5) 0.2764(3) 0.5695(3)
H24 H 1.1154(5) 0.2425(3) 0.5895(3)
H25 H 1.0354(5) 0.2667(3) 0.5569(3)
H26 H 1.0919(5) 0.3147(3) 0.5874(3)
C19 C 1.0456(3) 0.1464(2) 0.3992(2)
C20 C 1.1002(4) 0.1288(3) 0.3551(2)
H27 H 1.1321(4) 0.0897(3) 0.3604(2)
H28 H 1.1441(4) 0.1614(3) 0.3483(2)
H29 H 1.0585(4) 0.1241(3) 0.3291(2)
C21 C 0.9970(4) 0.2086(3) 0.3881(2)
H30 H 0.9615(4) 0.2217(3) 0.4149(2)
H31 H 0.9567(4) 0.2029(3) 0.3616(2)
H32 H 1.0423(4) 0.2402(3) 0.3808(2)
C22 C 0.9682(3) 0.0989(3) 0.4090(2)
H33 H 0.9946(3) 0.0585(3) 0.4163(2)
H34 H 0.9294(3) 0.0952(3) 0.3817(2)
H35 H 0.9319(3) 0.1133(3) 0.4352(2)
C23 C 1.2305(3) 0.0662(2) 0.71596(13)
C24 C 1.2647(3) 0.1224(2) 0.73852(14)
C25 C 1.3238(3) 0.1174(2) 0.77605(14)
H36 H 1.3428(3) 0.1564(2) 0.79187(14)
C26 C 1.3583(3) 0.0617(2) 0.79277(13)
C27 C 1.3348(3) 0.0081(2) 0.76720(14)
H37 H 1.3633(3) -0.0322(2) 0.77608(14)
C28 C 1.2749(3) 0.0088(2) 0.72945(13)
C29 C 1.2398(3) 0.1900(2) 0.7231(2)
C30 C 1.1407(4) 0.2074(3) 0.7372(2)
H38 H 1.1329(4) 0.2012(3) 0.7704(2)
H39 H 1.0979(4) 0.1811(3) 0.7204(2)
H40 H 1.1292(4) 0.2509(3) 0.7296(2)
C31 C 1.3026(5) 0.2389(2) 0.7467(3)
H41 H 1.2962(5) 0.2359(2) 0.7803(3)
H42 H 1.2853(5) 0.2804(2) 0.7366(3)
H43 H 1.3657(5) 0.2309(2) 0.7381(3)
C32 C 1.2557(4) 0.1990(3) 0.6708(2)
H44 H 1.2182(4) 0.1696(3) 0.6535(2)
H45 H 1.3197(4) 0.1917(3) 0.6636(2)
H46 H 1.2393(4) 0.2413(3) 0.6620(2)
C33 C 1.4235(3) 0.0610(2) 0.83467(15)
C34 C 1.4506(3) -0.0057(2) 0.8489(2)
H47 H 1.4917(3) -0.0041(2) 0.8754(2)
H48 H 1.4810(3) -0.0262(2) 0.8230(2)
H49 H 1.3961(3) -0.0291(2) 0.8572(2)
C35 C 1.3753(3) 0.0913(2) 0.8768(2)
H50 H 1.4162(3) 0.0910(2) 0.9034(2)
H51 H 1.3204(3) 0.0679(2) 0.8843(2)
H52 H 1.3590(3) 0.1341(2) 0.8693(2)
C36 C 1.5101(3) 0.0986(3) 0.8234(2)
H53 H 1.5509(3) 0.0979(3) 0.8500(2)
H54 H 1.4936(3) 0.1414(3) 0.8163(2)
H55 H 1.5407(3) 0.0801(3) 0.7967(2)
C37 C 1.2594(3) -0.0555(2) 0.7046(2)
C38 C 1.3297(4) -0.1047(2) 0.7194(2)
H56 H 1.3257(4) -0.1113(2) 0.7527(2)
H57 H 1.3907(4) -0.0902(2) 0.7115(2)
H58 H 1.3173(4) -0.1436(2) 0.7032(2)
C39 C 1.2716(4) -0.0486(2) 0.6516(2)
H59 H 1.2286(4) -0.0178(2) 0.6399(2)
H60 H 1.2602(4) -0.0885(2) 0.6367(2)
H61 H 1.3335(4) -0.0351(2) 0.6449(2)
C40 C 1.1646(4) -0.0820(2) 0.7173(2)
H62 H 1.1176(4) -0.0522(2) 0.7085(2)
H63 H 1.1616(4) -0.0895(2) 0.7506(2)
H64 H 1.1548(4) -0.1209(2) 0.7008(2)
Cs2D Cs 0.88416(2) 0.044720(13) 0.686460(9)
P1D P 0.84678(9) -0.02285(6) 0.56620(5)
Cs1D Cs 0.95115(2) -0.084248(14) 0.446087(10)
P2B P 1.12988(9) -0.06668(7) 0.17758(5)
P2D P 0.87012(9) -0.06668(7) 0.32242(5)
N1D N 1.0864(3) -0.1644(2) 0.3804(2)
Cs2B Cs 1.11584(2) 0.044720(13) 0.813540(9)
loop_
_geom_bond_atom_site_label_1
_geom_bond_atom_site_label_2
_geom_bond_site_symmetry_1
_geom_bond_site_symmetry_2
Cs1 P1 1_555 1_555
Cs2 P1 1_555 1_555
P1 C5 1_555 1_555
P2 Cs1 1_555 1_555
N1 Cs1 1_555 1_555
N2 C1 1_555 1_555
C1 N1 1_555 1_555
H1 C1 1_555 1_555
C2 N2 1_555 1_555
H2 C2 1_555 1_555
C3 N1 1_555 1_555
H3 C3 1_555 1_555
C4 N2 1_555 1_555
H4 C4 1_555 1_555
H5 C4 1_555 1_555
H6 C4 1_555 1_555
C5 C6 1_555 1_555
C6 C7 1_555 1_555
C7 H7 1_555 1_555
C8 C7 1_555 1_555
C9 C8 1_555 1_555
H8 C9 1_555 1_555
C10 C5 1_555 1_555
C11 C6 1_555 1_555
C12 C11 1_555 1_555
H9 C12 1_555 1_555
H10 C12 1_555 1_555
H11 C12 1_555 1_555
C13 C11 1_555 1_555
H12 C13 1_555 1_555
H13 C13 1_555 1_555
H14 C13 1_555 1_555
C14 C11 1_555 1_555
H15 C14 1_555 1_555
H16 C14 1_555 1_555
H17 C14 1_555 1_555
C15 C8 1_555 1_555
C16 C15 1_555 1_555
H18 C16 1_555 1_555
H19 C16 1_555 1_555
H20 C16 1_555 1_555
C17 C15 1_555 1_555
H21 C17 1_555 1_555
H22 C17 1_555 1_555
H23 C17 1_555 1_555
C18 C15 1_555 1_555
H24 C18 1_555 1_555
H25 C18 1_555 1_555
H26 C18 1_555 1_555
C19 C10 1_555 1_555
C20 C19 1_555 1_555
H27 C20 1_555 1_555
H28 C20 1_555 1_555
H29 C20 1_555 1_555
C21 C19 1_555 1_555
H30 C21 1_555 1_555
H31 C21 1_555 1_555
H32 C21 1_555 1_555
C22 C19 1_555 1_555
H33 C22 1_555 1_555
H34 C22 1_555 1_555
H35 C22 1_555 1_555
C23 P2 1_555 1_555
C24 C23 1_555 1_555
C25 C24 1_555 1_555
H36 C25 1_555 1_555
C26 C25 1_555 1_555
C27 C26 1_555 1_555
H37 C27 1_555 1_555
C28 C23 1_555 1_555
C29 C24 1_555 1_555
C30 C29 1_555 1_555
H38 C30 1_555 1_555
H39 C30 1_555 1_555
H40 C30 1_555 1_555
C31 C29 1_555 1_555
H41 C31 1_555 1_555
H42 C31 1_555 1_555
H43 C31 1_555 1_555
C32 C29 1_555 1_555
H44 C32 1_555 1_555
H45 C32 1_555 1_555
H46 C32 1_555 1_555
C33 C26 1_555 1_555
C34 C33 1_555 1_555
H47 C34 1_555 1_555
H48 C34 1_555 1_555
H49 C34 1_555 1_555
C35 C33 1_555 1_555
H50 C35 1_555 1_555
H51 C35 1_555 1_555
H52 C35 1_555 1_555
C36 C33 1_555 1_555
H53 C36 1_555 1_555
H54 C36 1_555 1_555
H55 C36 1_555 1_555
C37 C28 1_555 1_555
C38 C37 1_555 1_555
H56 C38 1_555 1_555
H57 C38 1_555 1_555
H58 C38 1_555 1_555
C39 C37 1_555 1_555
H59 C39 1_555 1_555
H60 C39 1_555 1_555
H61 C39 1_555 1_555
C40 C37 1_555 1_555
H62 C40 1_555 1_555
H63 C40 1_555 1_555
H64 C40 1_555 1_555
Cs2D P2 1_555 1_555
P1D Cs1 1_555 1_555
Cs1D P1 1_555 1_555
P2B Cs2 1_555 1_555
P2D Cs2 1_555 1_555
N1D Cs2 1_555 1_555
Cs2B P2 1_555 1_555
N1 Cs2D 1_555 1_555
C2 C3 1_555 1_555
C9 C10 1_555 1_555
C27 C28 1_555 1_555
Cs2D P1D 1_555 1_555
P1D Cs1D 1_555 1_555
Cs1D P2D 1_555 1_555
Cs1D N1D 1_555 1_555

#END
