
#######################################################################
#
#                 Cambridge Crystallographic Data Centre
#                                CCDC 
#
#######################################################################
#
# If this CIF has been generated from an entry in the Cambridge 
# Structural Database, then it will include bibliographic, chemical, 
# crystal, experimental, refinement or atomic coordinate data resulting 
# from the CCDC's data processing and validation procedures.
#
#######################################################################

data_PITBOK
_symmetry_cell_setting           triclinic
_symmetry_space_group_name_H-M   'P -1'
_symmetry_Int_Tables_number      2
_space_group_name_Hall           '-P 1'
loop_
_symmetry_equiv_pos_site_id
_symmetry_equiv_pos_as_xyz
1 x,y,z
2 -x,-y,-z
_cell_length_a                   13.338(3)
_cell_length_b                   13.978(3)
_cell_length_c                   17.049(3)
_cell_angle_alpha                68.159(6)
_cell_angle_beta                 71.100(8)
_cell_angle_gamma                87.683(9)
_cell_volume                     2779.73
loop_
_atom_site_label
_atom_site_type_symbol
_atom_site_fract_x
_atom_site_fract_y
_atom_site_fract_z
Ge1 Ge -0.60553(8) -0.15095(8) -0.82147(7)
W1 W -0.82182(4) -0.04027(4) -0.70431(4)
W2 W -0.75315(4) -0.26680(4) -0.58204(3)
W3 W -0.58836(4) -0.04894(4) -0.66782(3)
W4 W -0.36544(4) -0.17701(4) -0.77148(3)
W5 W -0.52965(4) -0.39563(4) -0.68902(3)
W6 W -0.78445(4) -0.38117(4) -0.73892(3)
W7 W -0.15286(4) 0.15157(4) -1.13534(3)
W8 W -0.35141(4) 0.26904(4) -1.04047(3)
W9 W -0.39466(4) -0.28291(4) -0.91020(3)
Ni1 Ni -0.5000 0.0000 -1.5000
Ni2 Ni 0.0000 0.0000 -1.0000
Ni3 Ni -0.82892(17) -0.48301(17) -0.35380(13)
Ni4 Ni -0.39423(13) -0.00537(13) -0.97910(10)
Ni5 Ni -0.58077(11) 0.10579(11) -0.89074(9)
O1 O -0.9295(7) 0.0251(7) -0.6748(6)
O3 O -0.7283(7) 0.0050(7) -0.6569(6)
O5 O -0.8670(6) -0.1124(6) -0.7649(5)
O7 O -0.6726(6) -0.1352(6) -0.7215(5)
O9 O -0.7370(6) 0.0553(7) -0.8198(5)
O10 O -0.8559(7) -0.1684(7) -0.5961(6)
O11 O -0.8165(7) -0.3516(7) -0.4732(5)
O12 O -0.8059(6) -0.3226(6) -0.6498(5)
O13 O -0.6247(7) -0.3347(6) -0.6115(5)
O14 O -0.6733(6) -0.1734(7) -0.5646(5)
O15 O -0.5483(7) 0.0086(7) -0.6070(6)
O16 O -0.5372(6) 0.0440(6) -0.7805(5)
O17 O -0.4759(6) -0.1340(7) -0.6880(5)
O18 O -0.2559(7) -0.1645(8) -0.7439(6)
O19 O -0.3577(7) -0.0564(7) -0.8653(5)
O20 O -0.5045(6) -0.2308(6) -0.8023(5)
O21 O -0.4181(6) -0.3222(7) -0.6831(5)
O22 O -0.5269(7) -0.5149(7) -0.6118(6)
O23 O -0.4417(7) -0.4091(7) -0.7940(6)
O24 O -0.6493(6) -0.4164(6) -0.7225(6)
O25 O -0.8590(7) -0.4985(7) -0.6778(6)
O26 O -0.6950(6) -0.2200(6) -0.8394(5)
O27 O -0.2729(7) 0.3933(6) -1.1501(5)
O28 O -0.1112(6) 0.2976(6) -1.2245(5)
O29 O -0.0360(6) 0.1214(7) -1.1121(6)
O30 O -0.2409(6) 0.0376(7) -1.0599(6)
O31 O -0.2145(7) 0.2198(7) -1.0501(6)
O32 O -0.3650(8) 0.3237(8) -0.9616(6)
O33 O -0.4214(6) 0.1408(6) -0.9724(5)
O34 O -0.3856(6) -0.1493(6) -0.9904(5)
O35 O -0.3045(6) -0.2449(7) -0.8553(6)
O36 O -0.3077(8) -0.3427(7) -0.9735(6)
O37 O -0.4759(7) 0.3145(6) -1.0747(6)
O38 O -0.4451(6) 0.0336(5) -1.0885(5)
O39 O -0.7226(16) -0.3914(15) -0.3359(13)
N1 N -0.3840(10) 0.1224(9) -1.5855(7)
H1 H -0.3946 0.1527 -1.6386
H2 H -0.3866 0.1701 -1.5614
N2 N -0.3767(10) -0.0859(10) -1.5393(8)
H3 H -0.3549 -0.1216 -1.4926
H4 H -0.4000 -0.1315 -1.5567
N3 N 0.1247(8) -0.0307(9) -1.0954(8)
H5 H 0.1809 -0.0455 -1.0761
H6 H 0.1445 0.0255 -1.1468
N4 N -0.0835(8) -0.1125(9) -1.0120(7)
H7 H -0.1460 -0.0903 -1.0175
H8 H -0.0972 -0.1704 -0.9622
N5 N -0.7093(9) -0.5434(10) -0.4271(8)
H9 H -0.6687 -0.4917 -0.4766
H10 H -0.6679 -0.5754 -0.3944
N6 N -0.9238(10) -0.5650(11) -0.3855(10)
H11 H -0.9680 -0.6118 -0.3344
H12 H -0.9640 -0.5211 -0.4134
N7 N -0.839(2) -0.6027(19) -0.2335(13)
H13 H -0.8556 -0.6638 -0.2344
H14 H -0.7761 -0.6052 -0.2237
N8 N -0.9565(17) -0.4245(16) -0.2846(12)
H15 H -0.9455 -0.3555 -0.3022
H16 H -1.0172 -0.4398 -0.2914
N9 N -0.6054(10) 0.2442(8) -0.8733(7)
H17 H -0.5483 0.2886 -0.9122
H18 H -0.6613 0.2687 -0.8909
N10 N -0.5725(18) 0.4395(15) -0.8296(15)
H19 H -0.5195 0.4384 -0.8743
H20 H -0.5838 0.4958 -0.8200
C1 C -0.2778(13) 0.0779(17) -1.5981(14)
H21 H -0.2236 0.1272 -1.6491
H22 H -0.2576 0.0629 -1.5453
C2 C -0.2875(14) -0.0174(16) -1.6132(14)
H23 H -0.3065 0.0019 -1.6677
C3 C -0.182(7) -0.072(13) -1.629(7)
H24 H -0.1263 -0.0244 -1.6788
H25 H -0.1929 -0.1310 -1.6428
H26 H -0.1620 -0.0945 -1.5765
C4 C 0.0922(12) -0.1165(19) -1.1112(16)
H27 H 0.1266 -0.1047 -1.1740
H28 H 0.1178 -0.1784 -1.0765
C5 C -0.0240(12) -0.136(2) -1.0887(19)
H29 H -0.0368 -0.0770 -1.1371
C6 C -0.0576(15) -0.2203(16) -1.1048(15)
H30 H -0.0079 -0.2232 -1.1589
H31 H -0.0609 -0.2837 -1.0554
H32 H -0.1268 -0.2107 -1.1109
C7 C -0.7511(11) -0.6156(17) -0.4525(15)
H33 H -0.7372 -0.6844 -0.4178
H34 H -0.7111 -0.6015 -0.5150
C8 C -0.8657(13) -0.618(3) -0.442(3)
H35 H -0.8573 -0.5596 -0.4987
C9 C -0.9129(15) -0.6885(19) -0.464(2)
H36 H -0.8587 -0.7128 -0.5033
H37 H -0.9622 -0.6547 -0.4935
H38 H -0.9499 -0.7461 -0.4103
C10 C -0.922(3) -0.580(3) -0.164(2)
H39 H -0.9830 -0.6299 -0.1418
H40 H -0.8963 -0.5919 -0.1141
C11 C -0.959(4) -0.483(4) -0.185(3)
H41 H -0.9171 -0.4388 -0.1710
C12 C -1.068(4) -0.509(5) -0.116(4)
H42 H -1.0630 -0.5451 -0.0574
H43 H -1.1098 -0.5531 -0.1283
H44 H -1.1024 -0.4470 -0.1178
C13 C -0.625(2) 0.2512(14) -0.7862(9)
H45 H -0.6848 0.2014 -0.7445
H46 H -0.5635 0.2256 -0.7684
C14 C -0.645(2) 0.3442(16) -0.7691(14)
H47 H -0.7157 0.3605 -0.7722
C15 C -0.649(4) 0.3291(19) -0.6763(19)
H48 H -0.6959 0.2687 -0.6339
H49 H -0.6749 0.3886 -0.6636
H50 H -0.5790 0.3201 -0.6720
Ge1A Ge -0.39447(8) 0.15095(8) -1.17853(7)
W1A W -0.17818(4) 0.04027(4) -1.29569(4)
W2A W -0.24685(4) 0.26680(4) -1.41796(3)
W3A W -0.41164(4) 0.04894(4) -1.33218(3)
W4A W -0.63456(4) 0.17701(4) -1.22852(3)
W5A W -0.47035(4) 0.39563(4) -1.31098(3)
W6A W -0.21555(4) 0.38117(4) -1.26108(3)
W7A W -0.84714(4) -0.15157(4) -0.86466(3)
W8A W -0.64859(4) -0.26904(4) -0.95953(3)
W9A W -0.60534(4) 0.28291(4) -1.08980(3)
Ni1_2 Ni -0.5000 0.0000 -0.5000
Ni2_2 Ni -1.0000 0.0000 -1.0000
Ni3A Ni -0.17108(17) 0.48301(17) -1.64620(13)
Ni4A Ni -0.60577(13) 0.00537(13) -1.02090(10)
Ni5A Ni -0.41923(11) -0.10579(11) -1.10926(9)
O1A O -0.0705(7) -0.0251(7) -1.3252(6)
O3A O -0.2717(7) -0.0050(7) -1.3431(6)
O5A O -0.1330(6) 0.1124(6) -1.2351(5)
O7A O -0.3274(6) 0.1352(6) -1.2785(5)
O9A O -0.2630(6) -0.0553(7) -1.1802(5)
O10A O -0.1441(7) 0.1684(7) -1.4039(6)
O11A O -0.1835(7) 0.3516(7) -1.5268(5)
O12A O -0.1941(6) 0.3226(6) -1.3502(5)
O13A O -0.3753(7) 0.3347(6) -1.3885(5)
O14A O -0.3267(6) 0.1734(7) -1.4354(5)
O15A O -0.4517(7) -0.0086(7) -1.3930(6)
O15_2 O -0.5483(7) 0.0086(7) -1.6070(6)
O16A O -0.4628(6) -0.0440(6) -1.2195(5)
O17A O -0.5241(6) 0.1340(7) -1.3120(5)
O18A O -0.7441(7) 0.1645(8) -1.2561(6)
O19A O -0.6423(7) 0.0564(7) -1.1347(5)
O20A O -0.4955(6) 0.2308(6) -1.1977(5)
O21A O -0.5819(6) 0.3222(7) -1.3169(5)
O22A O -0.4731(7) 0.5149(7) -1.3882(6)
O23A O -0.5583(7) 0.4091(7) -1.2060(6)
O24A O -0.3507(6) 0.4164(6) -1.2775(6)
O25A O -0.1410(7) 0.4985(7) -1.3222(6)
O26A O -0.3050(6) 0.2200(6) -1.1606(5)
O27A O -0.7271(7) -0.3933(6) -0.8499(5)
O28A O -0.8888(6) -0.2976(6) -0.7755(5)
O29A O -0.9640(6) -0.1214(7) -0.8879(6)
O29A_2 O 0.0360(6) -0.1214(7) -0.8879(6)
O30A O -0.7591(6) -0.0376(7) -0.9401(6)
O31A O -0.7855(7) -0.2198(7) -0.9499(6)
O32A O -0.6350(8) -0.3237(8) -1.0384(6)
O33A O -0.5786(6) -0.1408(6) -1.0276(5)
O34A O -0.6144(6) 0.1493(6) -1.0096(5)
O35A O -0.6955(6) 0.2449(7) -1.1447(6)
O36A O -0.6923(8) 0.3427(7) -1.0265(6)
O37A O -0.5241(7) -0.3145(6) -0.9253(6)
O38A O -0.5549(6) -0.0336(5) -0.9115(5)
O39A O -0.2774(16) 0.3914(15) -1.6641(13)
N1A N -0.6160(10) -0.1224(9) -1.4145(7)
H1A H -0.6054 -0.1527 -1.3614
H2A H -0.6134 -0.1701 -1.4386
N2A N -0.6233(10) 0.0859(10) -1.4607(8)
H3A H -0.6451 0.1216 -1.5074
H4A H -0.6000 0.1315 -1.4433
N3A N -0.1247(8) 0.0307(9) -0.9046(8)
H5A H -0.1809 0.0455 -0.9239
H6A H -0.1445 -0.0255 -0.8532
N4A N 0.0835(8) 0.1125(9) -0.9880(7)
H7A H 0.1460 0.0903 -0.9825
H8A H 0.0972 0.1704 -1.0378
N5A N -0.2907(9) 0.5434(10) -1.5729(8)
H9A H -0.3313 0.4917 -1.5234
H10A H -0.3321 0.5754 -1.6056
N6A N -0.0762(10) 0.5650(11) -1.6145(10)
H11A H -0.0320 0.6118 -1.6656
H12A H -0.0360 0.5211 -1.5866
N7A N -0.161(2) 0.6027(19) -1.7665(13)
H13A H -0.1444 0.6638 -1.7656
H14A H -0.2239 0.6052 -1.7763
N8A N -0.0435(17) 0.4245(16) -1.7154(12)
H15A H -0.0545 0.3555 -1.6978
H16A H 0.0172 0.4398 -1.7086
N9A N -0.3946(10) -0.2442(8) -1.1267(7)
H17A H -0.4517 -0.2886 -1.0878
H18A H -0.3387 -0.2687 -1.1091
N10A N -0.4275(18) -0.4395(15) -1.1704(15)
H19A H -0.4805 -0.4384 -1.1257
H20A H -0.4162 -0.4958 -1.1800
C1A C -0.7222(13) -0.0779(17) -1.4019(14)
H21A H -0.7764 -0.1272 -1.3509
H22A H -0.7424 -0.0629 -1.4547
C2A C -0.7125(14) 0.0174(16) -1.3868(14)
H23A H -0.6935 -0.0019 -1.3323
C3A C -0.818(7) 0.072(13) -1.371(7)
H24A H -0.8737 0.0244 -1.3212
H25A H -0.8071 0.1310 -1.3572
H26A H -0.8380 0.0945 -1.4235
C4A C -0.0922(12) 0.1165(19) -0.8888(16)
H27A H -0.1266 0.1047 -0.8260
H28A H -0.1178 0.1784 -0.9235
C5A C 0.0240(12) 0.136(2) -0.9113(19)
H29A H 0.0368 0.0770 -0.8629
C6A C 0.0576(15) 0.2203(16) -0.8952(15)
H30A H 0.0079 0.2232 -0.8411
H31A H 0.0609 0.2837 -0.9446
H32A H 0.1268 0.2107 -0.8891
C7A C -0.2489(11) 0.6156(17) -1.5475(15)
H33A H -0.2628 0.6844 -1.5822
H34A H -0.2889 0.6015 -1.4850
C8A C -0.1343(13) 0.618(3) -1.558(3)
H35A H -0.1427 0.5596 -1.5013
C9A C -0.0871(15) 0.6885(19) -1.536(2)
H36A H -0.1413 0.7128 -1.4967
H37A H -0.0378 0.6547 -1.5065
H38A H -0.0501 0.7461 -1.5897
C10A C -0.078(3) 0.580(3) -1.836(2)
H39A H -0.0170 0.6299 -1.8582
H40A H -0.1037 0.5919 -1.8859
C11A C -0.041(4) 0.483(4) -1.815(3)
H41A H -0.0829 0.4388 -1.8290
C12A C 0.068(4) 0.509(5) -1.884(4)
H42A H 0.0630 0.5451 -1.9426
H43A H 0.1098 0.5531 -1.8717
H44A H 0.1024 0.4470 -1.8822
C13A C -0.375(2) -0.2512(14) -1.2138(9)
H45A H -0.3152 -0.2014 -1.2555
H46A H -0.4365 -0.2256 -1.2316
C14A C -0.355(2) -0.3442(16) -1.2309(14)
H47A H -0.2843 -0.3605 -1.2278
C15A C -0.351(4) -0.3291(19) -1.3237(19)
H48A H -0.3041 -0.2687 -1.3661
H49A H -0.3251 -0.3886 -1.3364
H50A H -0.4210 -0.3201 -1.3280
O2 O 0.5184(10) 0.2944(9) -0.5126(8)
O4 O 0.6435(14) 0.1643(15) -0.7920(11)
O6 O -0.569(2) 0.494(3) -1.007(2)
O8 O 0.008(3) 0.818(4) -0.418(3)
loop_
_geom_bond_atom_site_label_1
_geom_bond_atom_site_label_2
_geom_bond_site_symmetry_1
_geom_bond_site_symmetry_2
Ge1 O7 1_555 1_555
W1 O1 1_555 1_555
W2 O7 1_555 1_555
W3 O3 1_555 1_555
W4 O17 1_555 1_555
W5 O13 1_555 1_555
W6 O12 1_555 1_555
W7 O28 1_555 1_555
W8 O27 1_555 1_555
W9 O20 1_555 1_555
Ni1 N1 1_555 1_555
Ni2 O29 1_555 1_555
Ni3 O11 1_555 1_555
Ni4 O19 1_555 1_555
Ni5 O9 1_555 1_555
O3 W1 1_555 1_555
O5 W1 1_555 1_555
O7 W1 1_555 1_555
O9 W1 1_555 1_555
O10 W1 1_555 1_555
O11 W2 1_555 1_555
O12 W2 1_555 1_555
O13 W2 1_555 1_555
O14 W2 1_555 1_555
O15 W3 1_555 1_555
O16 W3 1_555 1_555
O17 W3 1_555 1_555
O18 W4 1_555 1_555
O19 W4 1_555 1_555
O20 Ge1 1_555 1_555
O21 W4 1_555 1_555
O22 W5 1_555 1_555
O23 W5 1_555 1_555
O24 W5 1_555 1_555
O25 W6 1_555 1_555
O26 Ge1 1_555 1_555
O27 W6A 1_555 1_555
O28 W6A 1_555 1_555
O29 W7 1_555 1_555
O30 W7 1_555 1_555
O31 W7 1_555 1_555
O32 W8 1_555 1_555
O33 W8 1_555 1_555
O34 W9 1_555 1_555
O35 W4 1_555 1_555
O36 W9 1_555 1_555
O37 W8 1_555 1_555
O38 Ni4 1_555 1_555
O39 Ni3 1_555 1_555
N1 H1 1_555 1_555
H2 N1 1_555 1_555
N2 Ni1 1_555 1_555
H3 N2 1_555 1_555
H4 N2 1_555 1_555
N3 Ni2 1_555 1_555
H5 N3 1_555 1_555
H6 N3 1_555 1_555
N4 Ni2 1_555 1_555
H7 N4 1_555 1_555
H8 N4 1_555 1_555
N5 Ni3 1_555 1_555
H9 N5 1_555 1_555
H10 N5 1_555 1_555
N6 Ni3 1_555 1_555
H11 N6 1_555 1_555
H12 N6 1_555 1_555
N7 Ni3 1_555 1_555
H13 N7 1_555 1_555
H14 N7 1_555 1_555
N8 Ni3 1_555 1_555
H15 N8 1_555 1_555
H16 N8 1_555 1_555
N9 Ni5 1_555 1_555
H17 N9 1_555 1_555
H18 N9 1_555 1_555
N10 H19 1_555 1_555
H20 N10 1_555 1_555
C1 N1 1_555 1_555
H21 C1 1_555 1_555
H22 C1 1_555 1_555
C2 N2 1_555 1_555
H23 C2 1_555 1_555
C3 C2 1_555 1_555
H24 C3 1_555 1_555
H25 C3 1_555 1_555
H26 C3 1_555 1_555
C4 N3 1_555 1_555
H27 C4 1_555 1_555
H28 C4 1_555 1_555
C5 N4 1_555 1_555
H29 C5 1_555 1_555
C6 C5 1_555 1_555
H30 C6 1_555 1_555
H31 C6 1_555 1_555
H32 C6 1_555 1_555
C7 N5 1_555 1_555
H33 C7 1_555 1_555
H34 C7 1_555 1_555
C8 N6 1_555 1_555
H35 C8 1_555 1_555
C9 C8 1_555 1_555
H36 C9 1_555 1_555
H37 C9 1_555 1_555
H38 C9 1_555 1_555
C10 N7 1_555 1_555
H39 C10 1_555 1_555
H40 C10 1_555 1_555
C11 N8 1_555 1_555
H41 C11 1_555 1_555
C12 C11 1_555 1_555
H42 C12 1_555 1_555
H43 C12 1_555 1_555
H44 C12 1_555 1_555
C13 N9 1_555 1_555
H45 C13 1_555 1_555
H46 C13 1_555 1_555
C14 N10 1_555 1_555
H47 C14 1_555 1_555
C15 C14 1_555 1_555
H48 C15 1_555 1_555
H49 C15 1_555 1_555
H50 C15 1_555 1_555
Ge1A O38 1_555 1_555
W1A O1A 1_555 1_555
W2A O7A 1_555 1_555
W3A O3A 1_555 1_555
W4A O17A 1_555 1_555
W5A O13A 1_555 1_555
W6A O12A 1_555 1_555
W7A O5 1_555 1_555
W8A O26 1_555 1_555
W9A O37 1_555 1_555
Ni1_2 O15 1_555 1_555
Ni2_2 O29A 1_555 1_555
Ni3A O11A 1_555 1_555
Ni4A O38 1_555 1_555
Ni5A O34 1_555 1_555
O3A W1A 1_555 1_555
O5A W7 1_555 1_555
O7A Ge1A 1_555 1_555
O9A W1A 1_555 1_555
O10A W1A 1_555 1_555
O11A W2A 1_555 1_555
O12A W2A 1_555 1_555
O13A W2A 1_555 1_555
O14A W2A 1_555 1_555
O15A Ni1 1_555 1_555
O15_2 Ni1 1_555 1_555
O16A W3A 1_555 1_555
O17A W3A 1_555 1_555
O18A W4A 1_555 1_555
O19A W4A 1_555 1_555
O20A Ge1A 1_555 1_555
O21A W4A 1_555 1_555
O22A W5A 1_555 1_555
O23A W5A 1_555 1_555
O24A W5A 1_555 1_555
O25A W6A 1_555 1_555
O26A W7 1_555 1_555
O27A W6 1_555 1_555
O28A W6 1_555 1_555
O29A W7A 1_555 1_555
O29A_2 Ni2 1_555 1_555
O30A W7A 1_555 1_555
O31A W7A 1_555 1_555
O32A W8A 1_555 1_555
O33A W8A 1_555 1_555
O34A Ni5 1_555 1_555
O35A W4A 1_555 1_555
O36A W9A 1_555 1_555
O37A W9 1_555 1_555
O38A Ge1 1_555 1_555
O39A Ni3A 1_555 1_555
N1A Ni1 1_555 1_555
H1A N1A 1_555 1_555
H2A N1A 1_555 1_555
N2A Ni1 1_555 1_555
H3A N2A 1_555 1_555
H4A N2A 1_555 1_555
N3A Ni2 1_555 1_555
H5A N3A 1_555 1_555
H6A N3A 1_555 1_555
N4A Ni2 1_555 1_555
H7A N4A 1_555 1_555
H8A N4A 1_555 1_555
N5A Ni3A 1_555 1_555
H9A N5A 1_555 1_555
H10A N5A 1_555 1_555
N6A Ni3A 1_555 1_555
H11A N6A 1_555 1_555
H12A N6A 1_555 1_555
N7A Ni3A 1_555 1_555
H13A N7A 1_555 1_555
H14A N7A 1_555 1_555
N8A Ni3A 1_555 1_555
H15A N8A 1_555 1_555
H16A N8A 1_555 1_555
N9A Ni5A 1_555 1_555
H17A N9A 1_555 1_555
H18A N9A 1_555 1_555
N10A H19A 1_555 1_555
H20A N10A 1_555 1_555
C1A N1A 1_555 1_555
H21A C1A 1_555 1_555
H22A C1A 1_555 1_555
C2A N2A 1_555 1_555
H23A C2A 1_555 1_555
C3A C2A 1_555 1_555
H24A C3A 1_555 1_555
H25A C3A 1_555 1_555
H26A C3A 1_555 1_555
C4A N3A 1_555 1_555
H27A C4A 1_555 1_555
H28A C4A 1_555 1_555
C5A N4A 1_555 1_555
H29A C5A 1_555 1_555
C6A C5A 1_555 1_555
H30A C6A 1_555 1_555
H31A C6A 1_555 1_555
H32A C6A 1_555 1_555
C7A N5A 1_555 1_555
H33A C7A 1_555 1_555
H34A C7A 1_555 1_555
C8A N6A 1_555 1_555
H35A C8A 1_555 1_555
C9A C8A 1_555 1_555
H36A C9A 1_555 1_555
H37A C9A 1_555 1_555
H38A C9A 1_555 1_555
C10A N7A 1_555 1_555
H39A C10A 1_555 1_555
H40A C10A 1_555 1_555
C11A N8A 1_555 1_555
H41A C11A 1_555 1_555
C12A C11A 1_555 1_555
H42A C12A 1_555 1_555
H43A C12A 1_555 1_555
H44A C12A 1_555 1_555
C13A N9A 1_555 1_555
H45A C13A 1_555 1_555
H46A C13A 1_555 1_555
C14A N10A 1_555 1_555
H47A C14A 1_555 1_555
C15A C14A 1_555 1_555
H48A C15A 1_555 1_555
H49A C15A 1_555 1_555
H50A C15A 1_555 1_555
W2 O10 1_555 1_555
W3 O7 1_555 1_555
W3 O14 1_555 1_555
W4 O20 1_555 1_555
W5 O20 1_555 1_555
W5 O21 1_555 1_555
W6 O24 1_555 1_555
W6 O26 1_555 1_555
W8 O31 1_555 1_555
W8 O26A 1_555 1_555
W9 O23 1_555 1_555
W9 O35 1_555 1_555
Ni4 O30 1_555 1_555
Ni4 O33 1_555 1_555
Ni4 O34 1_555 1_555
Ni4 O38A 1_555 1_555
Ni5 O16 1_555 1_555
Ni5 O33 1_555 1_555
Ni5 O38A 1_555 1_555
O26 W7A 1_555 1_555
O38 Ni5A 1_555 1_555
C1 C2 1_555 1_555
C4 C5 1_555 1_555
C7 C8 1_555 1_555
C10 C11 1_555 1_555
C13 C14 1_555 1_555
Ge1A O26A 1_555 1_555
W1A O5A 1_555 1_555
W1A O7A 1_555 1_555
W2A O10A 1_555 1_555
W3A O7A 1_555 1_555
W3A O14A 1_555 1_555
W3A O15A 1_555 1_555
W4A O20A 1_555 1_555
W5A O20A 1_555 1_555
W5A O21A 1_555 1_555
W6A O24A 1_555 1_555
W6A O26A 1_555 1_555
W7A O28A 1_555 1_555
W8A O27A 1_555 1_555
W8A O31A 1_555 1_555
W8A O37A 1_555 1_555
W9A O20A 1_555 1_555
W9A O23A 1_555 1_555
W9A O34A 1_555 1_555
W9A O35A 1_555 1_555
Ni4A O19A 1_555 1_555
Ni4A O30A 1_555 1_555
Ni4A O33A 1_555 1_555
Ni4A O34A 1_555 1_555
Ni4A O38A 1_555 1_555
Ni5A O9A 1_555 1_555
Ni5A O16A 1_555 1_555
Ni5A O33A 1_555 1_555
C1A C2A 1_555 1_555
C4A C5A 1_555 1_555
C7A C8A 1_555 1_555
C10A C11A 1_555 1_555
C13A C14A 1_555 1_555

#END
