
#######################################################################
#
#                 Cambridge Crystallographic Data Centre
#                                CCDC 
#
#######################################################################
#
# If this CIF has been generated from an entry in the Cambridge 
# Structural Database, then it will include bibliographic, chemical, 
# crystal, experimental, refinement or atomic coordinate data resulting 
# from the CCDC's data processing and validation procedures.
#
#######################################################################

data_PITBIE
_symmetry_cell_setting           triclinic
_symmetry_space_group_name_H-M   'P -1'
_symmetry_Int_Tables_number      2
_space_group_name_Hall           '-P 1'
loop_
_symmetry_equiv_pos_site_id
_symmetry_equiv_pos_as_xyz
1 x,y,z
2 -x,-y,-z
_cell_length_a                   13.3613(4)
_cell_length_b                   13.9821(4)
_cell_length_c                   17.0305(5)
_cell_angle_alpha                68.085(10)
_cell_angle_beta                 71.179(11)
_cell_angle_gamma                87.876(14)
_cell_volume                     2781.28
loop_
_atom_site_label
_atom_site_type_symbol
_atom_site_fract_x
_atom_site_fract_y
_atom_site_fract_z
Si1 Si 0.10735(8) 0.15318(8) -0.18109(6)
W1 W 0.252250(15) 0.266860(15) -0.417940(11)
W2 W 0.086510(15) 0.048110(15) -0.330610(11)
W3 W 0.320710(15) 0.039460(16) -0.294860(12)
W4 W 0.346210(14) 0.149660(15) -0.135170(12)
W5 W 0.284400(15) 0.380610(15) -0.261640(12)
W6 W 0.030830(15) 0.395350(15) -0.311200(12)
W7 W -0.134110(15) 0.175800(16) -0.228380(12)
W8 W 0.147810(15) 0.267390(15) -0.040250(11)
W9 W -0.104130(15) 0.281060(15) -0.088940(12)
Ni1 Ni 0.0000 0.0000 0.5000
Ni2 Ni -0.5000 0.0000 0.0000
Ni3 Ni 0.32936(7) 0.48388(7) -0.64724(5)
Ni4 Ni -0.10423(8) 0.00531(8) -0.02037(6)
Ni5 Ni 0.08031(5) -0.10223(5) -0.11031(3)
O1 O 0.3159(3) 0.3489(3) -0.5266(2)
O2 O 0.3530(2) 0.1664(2) -0.39914(19)
O3 O 0.1687(2) 0.1372(2) -0.27393(19)
O4 O 0.1268(2) 0.3345(2) -0.38826(17)
O5 O 0.3079(2) 0.3231(2) -0.35172(17)
O6 O 0.1726(3) 0.1751(2) -0.43329(18)
O7 O 0.0467(3) -0.0100(3) -0.3935(2)
O8 O 0.0378(2) -0.0448(2) -0.22025(17)
O9 O -0.0251(2) 0.1318(2) -0.31051(18)
O10 O 0.2243(2) -0.0034(2) -0.34194(17)
O11 O 0.4272(3) -0.0285(3) -0.3249(2)
O12 O 0.2377(2) -0.0577(3) -0.1773(2)
O13 O 0.3655(2) 0.1108(3) -0.23508(19)
O14 O 0.4660(2) 0.1195(2) -0.11339(19)
O15 O 0.1909(2) 0.2150(2) -0.16111(16)
O16 O -0.2585(2) -0.0360(2) 0.0599(2)
O17 O 0.3889(2) 0.2980(2) -0.2240(2)
O18 O 0.3600(3) 0.4991(3) -0.3237(2)
O19 O 0.1500(2) 0.4171(2) -0.2774(2)
O20 O 0.0261(3) 0.5169(3) -0.38603(19)
O21 O -0.0577(2) 0.4066(2) -0.20578(18)
O22 O 0.0093(2) 0.2267(3) -0.19676(18)
O23 O -0.0826(2) 0.3211(2) -0.31550(18)
O24 O -0.2453(2) 0.1602(3) -0.2530(2)
O25 O -0.1437(2) 0.0533(2) -0.13492(16)
O26 O 0.1350(3) 0.3207(3) 0.0384(2)
O27 O 0.2832(2) 0.2167(3) -0.05062(19)
O28 O 0.2264(2) 0.3901(2) -0.14892(19)
O29 O -0.0786(2) -0.1400(2) -0.02857(17)
O30 O 0.0232(3) 0.3155(2) -0.07417(18)
O31 O -0.1891(3) 0.2415(3) -0.14411(19)
O32 O -0.1934(3) 0.3401(3) -0.0255(2)
O33 O -0.1144(2) 0.1494(3) -0.00828(18)
O34 O 0.0591(2) 0.0425(2) -0.09463(17)
O35 O 0.2177(4) 0.3925(5) -0.6617(4)
N1 N -0.1153(3) -0.1235(3) 0.5832(3)
H1 H -0.1117 -0.1702 0.5579
H2 H -0.1052 -0.1549 0.6364
N2 N -0.1237(3) 0.0863(3) 0.5393(2)
H3 H -0.1002 0.1319 0.5566
H4 H -0.1450 0.1221 0.4922
N3 N -0.3735(3) -0.03151(15) -0.09571(17)
H5 H -0.3552 0.0238 -0.1480
H6 H -0.3168 -0.0431 -0.0769
N4 N -0.5838(3) -0.1119(3) -0.0121(2)
H7 H -0.6046 -0.1670 0.0403
H8 H -0.6425 -0.0866 -0.0240
N5 N 0.3376(4) 0.5985(3) -0.75727(18)
H9 H 0.2725 0.6067 -0.7623
H10 H 0.3622 0.6572 -0.7567
N6 N 0.4582(5) 0.4296(4) -0.72046(15)
H11 H 0.5141 0.4310 -0.7021
H12 H 0.4417 0.3638 -0.7118
N7 N 0.2078(3) 0.5462(4) -0.5732(3)
H13 H 0.1691 0.5819 -0.6072
H14 H 0.1646 0.4949 -0.5248
N8 N 0.4227(4) 0.5718(4) -0.6149(4)
H15 H 0.4607 0.5287 -0.5841
H16 H 0.4690 0.6163 -0.6664
N9 N 0.1066(3) -0.2441(3) -0.1289(2)
H17 H 0.1597 -0.2702 -0.1081
H18 H 0.0480 -0.2878 -0.0925
N10 N 0.0793(5) -0.4388(5) -0.1700(4)
H19 H 0.0429 -0.4650 -0.1918
H20 H 0.0688 -0.4643 -0.1132
C1 C -0.2248(5) -0.0800(6) 0.5968(4)
H21 H -0.2459 -0.0657 0.5444
H22 H -0.2784 -0.1292 0.6487
C2 C -0.2114(5) 0.0206(5) 0.6112(4)
H23 H -0.1955 0.0025 0.6671
C3 C -0.3164(5) 0.0597(5) 0.6243(4)
H24 H -0.3146 0.1221 0.6352
H25 H -0.3680 0.0085 0.6749
H26 H -0.3353 0.0739 0.5715
C4 C -0.4030(3) -0.12248(17) -0.1099(2)
H27 H -0.3748 -0.1824 -0.0754
H28 H -0.3703 -0.1112 -0.1729
C5 C -0.5196(6) -0.1452(6) -0.0839(5)
H29 H -0.5291 -0.0859 -0.1338
C6 C -0.5582(5) -0.2238(5) -0.1056(4)
H30 H -0.6343 -0.2279 -0.0872
H31 H -0.5364 -0.2895 -0.0749
H32 H -0.5295 -0.2065 -0.1692
C7 C 0.4099(2) 0.57729(19) -0.83444(17)
H33 H 0.4512 0.6418 -0.8778
H34 H 0.3664 0.5571 -0.8626
C8 C 0.48577(18) 0.4968(2) -0.81702(14)
H35 H 0.4619 0.4486 -0.8384
C9 C 0.5759(3) 0.5582(4) -0.9002(2)
H36 H 0.6376 0.5206 -0.9033
H37 H 0.5914 0.6236 -0.8983
H38 H 0.5560 0.5698 -0.9522
C10 C 0.25152(16) 0.6103(5) -0.5468(4)
H39 H 0.2184 0.5866 -0.4821
H40 H 0.2281 0.6781 -0.5719
C11 C 0.36819(17) 0.6272(4) -0.5657(4)
H41 H 0.3625 0.5680 -0.5101
C12 C 0.4168(7) 0.6964(7) -0.5339(5)
H42 H 0.4910 0.6874 -0.5453
H43 H 0.3816 0.6781 -0.4707
H44 H 0.4084 0.7674 -0.5657
C13 C 0.1302(9) -0.2498(5) -0.2114(4)
H45 H 0.1869 -0.1954 -0.2520
H46 H 0.0685 -0.2297 -0.2297
C14 C 0.1630(10) -0.3466(5) -0.2323(5)
H47 H 0.2339 -0.3629 -0.2291
C15 C 0.1586(11) -0.3253(12) -0.3207(8)
H48 H 0.1800 -0.3834 -0.3371
H49 H 0.2056 -0.2649 -0.3631
H50 H 0.0874 -0.3135 -0.3206
Si1A Si -0.10735(8) -0.15318(8) 0.18109(6)
W1A W -0.252250(15) -0.266860(15) 0.417940(11)
W2A W -0.086510(15) -0.048110(15) 0.330610(11)
W3A W -0.320710(15) -0.039460(16) 0.294860(12)
W4A W -0.346210(14) -0.149660(15) 0.135170(12)
W5A W -0.284400(15) -0.380610(15) 0.261640(12)
W6A W -0.030830(15) -0.395350(15) 0.311200(12)
W7A W 0.134110(15) -0.175800(16) 0.228380(12)
W8A W -0.147810(15) -0.267390(15) 0.040250(11)
W9A W 0.104130(15) -0.281060(15) 0.088940(12)
Ni1_2 Ni 0.0000 0.0000 -0.5000
Ni2_2 Ni 0.5000 0.0000 0.0000
Ni3A Ni -0.32936(7) -0.48388(7) 0.64724(5)
Ni4A Ni 0.10423(8) -0.00531(8) 0.02037(6)
Ni5A Ni -0.08031(5) 0.10223(5) 0.11031(3)
O1A O -0.3159(3) -0.3489(3) 0.5266(2)
O2A O -0.3530(2) -0.1664(2) 0.39914(19)
O3A O -0.1687(2) -0.1372(2) 0.27393(19)
O4A O -0.1268(2) -0.3345(2) 0.38826(17)
O5A O -0.3079(2) -0.3231(2) 0.35172(17)
O6A O -0.1726(3) -0.1751(2) 0.43329(18)
O7A O -0.0467(3) 0.0100(3) 0.3935(2)
O7_2 O 0.0467(3) -0.0100(3) 0.6065(2)
O8A O -0.0378(2) 0.0448(2) 0.22025(17)
O9A O 0.0251(2) -0.1318(2) 0.31051(18)
O10A O -0.2243(2) 0.0034(2) 0.34194(17)
O11A O -0.4272(3) 0.0285(3) 0.3249(2)
O12A O -0.2377(2) 0.0577(3) 0.1773(2)
O13A O -0.3655(2) -0.1108(3) 0.23508(19)
O14A O -0.4660(2) -0.1195(2) 0.11339(19)
O14_2 O -0.5340(2) 0.1195(2) -0.11339(19)
O15A O -0.1909(2) -0.2150(2) 0.16111(16)
O16A O 0.2585(2) 0.0360(2) -0.0599(2)
O17A O -0.3889(2) -0.2980(2) 0.2240(2)
O18A O -0.3600(3) -0.4991(3) 0.3237(2)
O19A O -0.1500(2) -0.4171(2) 0.2774(2)
O20A O -0.0261(3) -0.5169(3) 0.38603(19)
O21A O 0.0577(2) -0.4066(2) 0.20578(18)
O22A O -0.0093(2) -0.2267(3) 0.19676(18)
O23A O 0.0826(2) -0.3211(2) 0.31550(18)
O24A O 0.2453(2) -0.1602(3) 0.2530(2)
O25A O 0.1437(2) -0.0533(2) 0.13492(16)
O26A O -0.1350(3) -0.3207(3) -0.0384(2)
O27A O -0.2832(2) -0.2167(3) 0.05062(19)
O28A O -0.2264(2) -0.3901(2) 0.14892(19)
O29A O 0.0786(2) 0.1400(2) 0.02857(17)
O30A O -0.0232(3) -0.3155(2) 0.07417(18)
O31A O 0.1891(3) -0.2415(3) 0.14411(19)
O32A O 0.1934(3) -0.3401(3) 0.0255(2)
O33A O 0.1144(2) -0.1494(3) 0.00828(18)
O34A O -0.0591(2) -0.0425(2) 0.09463(17)
O35A O -0.2177(4) -0.3925(5) 0.6617(4)
N1A N 0.1153(3) 0.1235(3) 0.4168(3)
H1A H 0.1117 0.1702 0.4421
H2A H 0.1052 0.1549 0.3636
N2A N 0.1237(3) -0.0863(3) 0.4607(2)
H3A H 0.1002 -0.1319 0.4434
H4A H 0.1450 -0.1221 0.5078
N3A N -0.6265(3) 0.03151(15) 0.09571(17)
H5A H -0.6448 -0.0238 0.1480
H6A H -0.6832 0.0431 0.0769
N4A N -0.4162(3) 0.1119(3) 0.0121(2)
H7A H -0.3954 0.1670 -0.0403
H8A H -0.3575 0.0866 0.0240
N5A N -0.3376(4) -0.5985(3) 0.75727(18)
H9A H -0.2725 -0.6067 0.7623
H10A H -0.3622 -0.6572 0.7567
N6A N -0.4582(5) -0.4296(4) 0.72046(15)
H11A H -0.5141 -0.4310 0.7021
H12A H -0.4417 -0.3638 0.7118
N7A N -0.2078(3) -0.5462(4) 0.5732(3)
H13A H -0.1691 -0.5819 0.6072
H14A H -0.1646 -0.4949 0.5248
N8A N -0.4227(4) -0.5718(4) 0.6149(4)
H15A H -0.4607 -0.5287 0.5841
H16A H -0.4690 -0.6163 0.6664
N9A N -0.1066(3) 0.2441(3) 0.1289(2)
H17A H -0.1597 0.2702 0.1081
H18A H -0.0480 0.2878 0.0925
N10A N -0.0793(5) 0.4388(5) 0.1700(4)
H19A H -0.0429 0.4650 0.1918
H20A H -0.0688 0.4643 0.1132
C1A C 0.2248(5) 0.0800(6) 0.4032(4)
H21A H 0.2459 0.0657 0.4556
H22A H 0.2784 0.1292 0.3513
C2A C 0.2114(5) -0.0206(5) 0.3888(4)
H23A H 0.1955 -0.0025 0.3329
C3A C 0.3164(5) -0.0597(5) 0.3757(4)
H24A H 0.3146 -0.1221 0.3648
H25A H 0.3680 -0.0085 0.3251
H26A H 0.3353 -0.0739 0.4285
C4A C -0.5970(3) 0.12248(17) 0.1099(2)
H27A H -0.6252 0.1824 0.0754
H28A H -0.6297 0.1112 0.1729
C5A C -0.4804(6) 0.1452(6) 0.0839(5)
H29A H -0.4709 0.0859 0.1338
C6A C -0.4418(5) 0.2238(5) 0.1056(4)
H30A H -0.3657 0.2279 0.0872
H31A H -0.4636 0.2895 0.0749
H32A H -0.4705 0.2065 0.1692
C7A C -0.4099(2) -0.57729(19) 0.83444(17)
H33A H -0.4512 -0.6418 0.8778
H34A H -0.3664 -0.5571 0.8626
C8A C -0.48577(18) -0.4968(2) 0.81702(14)
H35A H -0.4619 -0.4486 0.8384
C9A C -0.5759(3) -0.5582(4) 0.9002(2)
H36A H -0.6376 -0.5206 0.9033
H37A H -0.5914 -0.6236 0.8983
H38A H -0.5560 -0.5698 0.9522
C10A C -0.25152(16) -0.6103(5) 0.5468(4)
H39A H -0.2184 -0.5866 0.4821
H40A H -0.2281 -0.6781 0.5719
C11A C -0.36819(17) -0.6272(4) 0.5657(4)
H41A H -0.3625 -0.5680 0.5101
C12A C -0.4168(7) -0.6964(7) 0.5339(5)
H42A H -0.4910 -0.6874 0.5453
H43A H -0.3816 -0.6781 0.4707
H44A H -0.4084 -0.7674 0.5657
C13A C -0.1302(9) 0.2498(5) 0.2114(4)
H45A H -0.1869 0.1954 0.2520
H46A H -0.0685 0.2297 0.2297
C14A C -0.1630(10) 0.3466(5) 0.2323(5)
H47A H -0.2339 0.3629 0.2291
C15A C -0.1586(11) 0.3253(12) 0.3207(8)
H48A H -0.1800 0.3834 0.3371
H49A H -0.2056 0.2649 0.3631
H50A H -0.0874 0.3135 0.3206
O36 O 0.1455(4) 1.1634(6) -0.7930(4)
O37 O 0.0169(3) 0.2927(3) -0.5118(3)
O38 O 0.2857(10) -0.1434(11) -0.4234(8)
O39 O 0.5024(11) 0.8231(12) -0.4227(9)
O40 O 0.1538(11) 0.4031(12) -0.8030(9)
loop_
_geom_bond_atom_site_label_1
_geom_bond_atom_site_label_2
_geom_bond_site_symmetry_1
_geom_bond_site_symmetry_2
Si1 O3 1_555 1_555
W1 O1 1_555 1_555
W2 O3 1_555 1_555
W3 O2 1_555 1_555
W4 O13 1_555 1_555
W5 O5 1_555 1_555
W6 O4 1_555 1_555
W7 O9 1_555 1_555
W8 O15 1_555 1_555
W9 O21 1_555 1_555
Ni1 N1 1_555 1_555
Ni2 N3 1_555 1_555
Ni3 O1 1_555 1_555
Ni4 O16 1_555 1_555
Ni5 O8 1_555 1_555
O2 W1 1_555 1_555
O3 W1 1_555 1_555
O4 W1 1_555 1_555
O5 W1 1_555 1_555
O6 W1 1_555 1_555
O7 W2 1_555 1_555
O8 W2 1_555 1_555
O9 W2 1_555 1_555
O10 W2 1_555 1_555
O11 W3 1_555 1_555
O12 W3 1_555 1_555
O13 W3 1_555 1_555
O14 W4 1_555 1_555
O15 Si1 1_555 1_555
O16 W4A 1_555 1_555
O17 W4 1_555 1_555
O18 W5 1_555 1_555
O19 W5 1_555 1_555
O20 W6 1_555 1_555
O21 W6 1_555 1_555
O22 Si1 1_555 1_555
O23 W6 1_555 1_555
O24 W7 1_555 1_555
O25 W7 1_555 1_555
O26 W8 1_555 1_555
O27 W4 1_555 1_555
O28 W5 1_555 1_555
O29 Ni4 1_555 1_555
O30 W8 1_555 1_555
O31 W7 1_555 1_555
O32 W9 1_555 1_555
O33 W9 1_555 1_555
O34 Si1 1_555 1_555
O35 Ni3 1_555 1_555
N1 H1 1_555 1_555
H2 N1 1_555 1_555
N2 Ni1 1_555 1_555
H3 N2 1_555 1_555
H4 N2 1_555 1_555
N3 H5 1_555 1_555
H6 N3 1_555 1_555
N4 Ni2 1_555 1_555
H7 N4 1_555 1_555
H8 N4 1_555 1_555
N5 Ni3 1_555 1_555
H9 N5 1_555 1_555
H10 N5 1_555 1_555
N6 Ni3 1_555 1_555
H11 N6 1_555 1_555
H12 N6 1_555 1_555
N7 Ni3 1_555 1_555
H13 N7 1_555 1_555
H14 N7 1_555 1_555
N8 Ni3 1_555 1_555
H15 N8 1_555 1_555
H16 N8 1_555 1_555
N9 Ni5 1_555 1_555
H17 N9 1_555 1_555
H18 N9 1_555 1_555
N10 H19 1_555 1_555
H20 N10 1_555 1_555
C1 N1 1_555 1_555
H21 C1 1_555 1_555
H22 C1 1_555 1_555
C2 N2 1_555 1_555
H23 C2 1_555 1_555
C3 C2 1_555 1_555
H24 C3 1_555 1_555
H25 C3 1_555 1_555
H26 C3 1_555 1_555
C4 N3 1_555 1_555
H27 C4 1_555 1_555
H28 C4 1_555 1_555
C5 N4 1_555 1_555
H29 C5 1_555 1_555
C6 C5 1_555 1_555
H30 C6 1_555 1_555
H31 C6 1_555 1_555
H32 C6 1_555 1_555
C7 N5 1_555 1_555
H33 C7 1_555 1_555
H34 C7 1_555 1_555
C8 N6 1_555 1_555
H35 C8 1_555 1_555
C9 C8 1_555 1_555
H36 C9 1_555 1_555
H37 C9 1_555 1_555
H38 C9 1_555 1_555
C10 N7 1_555 1_555
H39 C10 1_555 1_555
H40 C10 1_555 1_555
C11 N8 1_555 1_555
H41 C11 1_555 1_555
C12 C11 1_555 1_555
H42 C12 1_555 1_555
H43 C12 1_555 1_555
H44 C12 1_555 1_555
C13 N9 1_555 1_555
H45 C13 1_555 1_555
H46 C13 1_555 1_555
C14 N10 1_555 1_555
H47 C14 1_555 1_555
C15 C14 1_555 1_555
H48 C15 1_555 1_555
H49 C15 1_555 1_555
H50 C15 1_555 1_555
Si1A O3A 1_555 1_555
W1A O1A 1_555 1_555
W2A O3A 1_555 1_555
W3A O2A 1_555 1_555
W4A O13A 1_555 1_555
W5A O5A 1_555 1_555
W6A O4A 1_555 1_555
W7A O9A 1_555 1_555
W8A O29 1_555 1_555
W9A O21A 1_555 1_555
Ni1_2 O7 1_555 1_555
Ni2_2 O14 1_555 1_555
Ni3A O1A 1_555 1_555
Ni4A O34 1_555 1_555
Ni5A O33 1_555 1_555
O2A W1A 1_555 1_555
O3A W1A 1_555 1_555
O4A W1A 1_555 1_555
O5A W1A 1_555 1_555
O6A W1A 1_555 1_555
O7A Ni1 1_555 1_555
O7_2 Ni1 1_555 1_555
O8A W2A 1_555 1_555
O9A W2A 1_555 1_555
O10A W2A 1_555 1_555
O11A W3A 1_555 1_555
O12A W3A 1_555 1_555
O13A W3A 1_555 1_555
O14A Ni2 1_555 1_555
O14_2 Ni2 1_555 1_555
O15A Si1A 1_555 1_555
O16A W4 1_555 1_555
O17A W4A 1_555 1_555
O18A W5A 1_555 1_555
O19A W5A 1_555 1_555
O20A W6A 1_555 1_555
O21A W6A 1_555 1_555
O22A Si1A 1_555 1_555
O23A W6A 1_555 1_555
O24A W7A 1_555 1_555
O25A W7A 1_555 1_555
O26A W8A 1_555 1_555
O27A W4A 1_555 1_555
O28A W5A 1_555 1_555
O29A W8 1_555 1_555
O30A W8A 1_555 1_555
O31A W7A 1_555 1_555
O32A W9A 1_555 1_555
O33A Ni5 1_555 1_555
O34A Ni4 1_555 1_555
O35A Ni3A 1_555 1_555
N1A Ni1 1_555 1_555
H1A N1A 1_555 1_555
H2A N1A 1_555 1_555
N2A Ni1 1_555 1_555
H3A N2A 1_555 1_555
H4A N2A 1_555 1_555
N3A Ni2 1_555 1_555
H5A N3A 1_555 1_555
H6A N3A 1_555 1_555
N4A Ni2 1_555 1_555
H7A N4A 1_555 1_555
H8A N4A 1_555 1_555
N5A Ni3A 1_555 1_555
H9A N5A 1_555 1_555
H10A N5A 1_555 1_555
N6A Ni3A 1_555 1_555
H11A N6A 1_555 1_555
H12A N6A 1_555 1_555
N7A Ni3A 1_555 1_555
H13A N7A 1_555 1_555
H14A N7A 1_555 1_555
N8A Ni3A 1_555 1_555
H15A N8A 1_555 1_555
H16A N8A 1_555 1_555
N9A Ni5A 1_555 1_555
H17A N9A 1_555 1_555
H18A N9A 1_555 1_555
N10A H19A 1_555 1_555
H20A N10A 1_555 1_555
C1A N1A 1_555 1_555
H21A C1A 1_555 1_555
H22A C1A 1_555 1_555
C2A N2A 1_555 1_555
H23A C2A 1_555 1_555
C3A C2A 1_555 1_555
H24A C3A 1_555 1_555
H25A C3A 1_555 1_555
H26A C3A 1_555 1_555
C4A N3A 1_555 1_555
H27A C4A 1_555 1_555
H28A C4A 1_555 1_555
C5A N4A 1_555 1_555
H29A C5A 1_555 1_555
C6A C5A 1_555 1_555
H30A C6A 1_555 1_555
H31A C6A 1_555 1_555
H32A C6A 1_555 1_555
C7A N5A 1_555 1_555
H33A C7A 1_555 1_555
H34A C7A 1_555 1_555
C8A N6A 1_555 1_555
H35A C8A 1_555 1_555
C9A C8A 1_555 1_555
H36A C9A 1_555 1_555
H37A C9A 1_555 1_555
H38A C9A 1_555 1_555
C10A N7A 1_555 1_555
H39A C10A 1_555 1_555
H40A C10A 1_555 1_555
C11A N8A 1_555 1_555
H41A C11A 1_555 1_555
C12A C11A 1_555 1_555
H42A C12A 1_555 1_555
H43A C12A 1_555 1_555
H44A C12A 1_555 1_555
C13A N9A 1_555 1_555
H45A C13A 1_555 1_555
H46A C13A 1_555 1_555
C14A N10A 1_555 1_555
H47A C14A 1_555 1_555
C15A C14A 1_555 1_555
H48A C15A 1_555 1_555
H49A C15A 1_555 1_555
H50A C15A 1_555 1_555
W2 O6 1_555 1_555
W3 O3 1_555 1_555
W3 O10 1_555 1_555
W4 O15 1_555 1_555
W5 O15 1_555 1_555
W5 O17 1_555 1_555
W6 O19 1_555 1_555
W6 O22 1_555 1_555
W7 O22 1_555 1_555
W7 O23 1_555 1_555
W8 O27 1_555 1_555
W8 O28 1_555 1_555
W9 O22 1_555 1_555
W9 O30 1_555 1_555
W9 O31 1_555 1_555
Ni4 O25 1_555 1_555
Ni4 O33 1_555 1_555
Ni4 O34 1_555 1_555
Ni5 O12 1_555 1_555
Ni5 O29 1_555 1_555
Ni5 O34 1_555 1_555
C1 C2 1_555 1_555
C4 C5 1_555 1_555
C7 C8 1_555 1_555
C10 C11 1_555 1_555
C13 C14 1_555 1_555
Si1A O34A 1_555 1_555
W2A O6A 1_555 1_555
W2A O7A 1_555 1_555
W3A O3A 1_555 1_555
W3A O10A 1_555 1_555
W4A O14A 1_555 1_555
W4A O15A 1_555 1_555
W5A O15A 1_555 1_555
W5A O17A 1_555 1_555
W6A O19A 1_555 1_555
W6A O22A 1_555 1_555
W7A O22A 1_555 1_555
W7A O23A 1_555 1_555
W8A O15A 1_555 1_555
W8A O27A 1_555 1_555
W8A O28A 1_555 1_555
W9A O22A 1_555 1_555
W9A O30A 1_555 1_555
W9A O31A 1_555 1_555
W9A O33A 1_555 1_555
Ni4A O16A 1_555 1_555
Ni4A O25A 1_555 1_555
Ni4A O29A 1_555 1_555
Ni4A O33A 1_555 1_555
Ni4A O34A 1_555 1_555
Ni5A O8A 1_555 1_555
Ni5A O12A 1_555 1_555
Ni5A O29A 1_555 1_555
Ni5A O34A 1_555 1_555
C1A C2A 1_555 1_555
C4A C5A 1_555 1_555
C7A C8A 1_555 1_555
C10A C11A 1_555 1_555
C13A C14A 1_555 1_555

#END
