
#######################################################################
#
#                 Cambridge Crystallographic Data Centre
#                                CCDC 
#
#######################################################################
#
# If this CIF has been generated from an entry in the Cambridge 
# Structural Database, then it will include bibliographic, chemical, 
# crystal, experimental, refinement or atomic coordinate data resulting 
# from the CCDC's data processing and validation procedures.
#
#######################################################################

data_PITBUQ
_symmetry_cell_setting           triclinic
_symmetry_space_group_name_H-M   'P -1'
_symmetry_Int_Tables_number      2
_space_group_name_Hall           '-P 1'
loop_
_symmetry_equiv_pos_site_id
_symmetry_equiv_pos_as_xyz
1 x,y,z
2 -x,-y,-z
_cell_length_a                   13.3570(19)
_cell_length_b                   13.997(2)
_cell_length_c                   17.129(2)
_cell_angle_alpha                67.468(4)
_cell_angle_beta                 71.986(5)
_cell_angle_gamma                88.698(6)
_cell_volume                     2796.18
loop_
_atom_site_label
_atom_site_type_symbol
_atom_site_fract_x
_atom_site_fract_y
_atom_site_fract_z
P1 P 0.1050(2) 0.1500(2) 0.32207(18)
W1 W 0.03345(4) 0.39540(4) 0.18300(3)
W2 W 0.25644(4) 0.26774(4) 0.08124(3)
W3 W 0.28482(4) 0.38683(4) 0.23499(3)
W4 W 0.34683(4) 0.15066(4) 0.36615(3)
W5 W 0.14748(4) 0.26900(4) 0.45989(3)
W6 W -0.10446(4) 0.27972(4) 0.40822(3)
W7 W -0.13478(4) 0.16734(4) 0.27098(3)
W8 W 0.08528(4) 0.04301(4) 0.17122(3)
W9 W 0.31612(4) 0.03123(4) 0.21696(3)
Ni1 Ni 0.0000 0.0000 0.0000
Ni2 Ni 0.5000 0.0000 0.5000
Ni3 Ni 0.32535(17) 0.48893(17) -0.14904(13)
Ni4 Ni 0.10762(12) -0.00407(11) 0.52221(9)
Ni5 Ni 0.08104(12) -0.10709(11) 0.39256(9)
O1 O 0.0271(7) 0.5158(7) 0.1052(6)
O2 O -0.0761(7) 0.3144(6) 0.1837(5)
O3 O 0.0141(6) 0.2162(6) 0.3049(5)
O4 O -0.0520(7) 0.4014(6) 0.2914(5)
O5 O 0.1525(7) 0.4221(6) 0.2157(6)
O6 O 0.1314(7) 0.3404(6) 0.1093(5)
O7 O 0.3201(7) 0.3513(7) -0.0290(5)
O8 O 0.1672(7) 0.1762(6) 0.0719(5)
O9 O 0.3482(6) 0.1681(6) 0.1065(5)
O10 O 0.3059(7) 0.3310(6) 0.1458(5)
O11 O 0.3612(7) 0.5047(7) 0.1772(6)
O12 O 0.1854(6) 0.2120(6) 0.3385(5)
O13 O 0.2232(7) 0.3925(6) 0.3473(5)
O14 O 0.3818(7) 0.2982(6) 0.2772(5)
O15 O 0.4645(7) 0.1260(7) 0.3911(5)
O16 O 0.3683(7) 0.1137(7) 0.2686(5)
O17 O 0.2814(7) 0.2208(7) 0.4474(5)
O18 O 0.2589(6) 0.0386(6) 0.4444(5)
O19 O 0.1363(8) 0.3217(7) 0.5376(6)
O20 O 0.0778(7) 0.1380(6) 0.5269(5)
O21 O 0.0243(7) 0.3150(6) 0.4246(5)
O22 O -0.1916(8) 0.3397(7) 0.4681(6)
O23 O 0.1130(6) -0.1453(6) 0.5110(5)
O24 O -0.1899(7) 0.2388(7) 0.3540(5)
O25 O -0.2457(7) 0.1565(7) 0.2430(6)
O26 O 0.1441(7) -0.0512(6) 0.6350(5)
O27 O -0.0291(7) 0.1282(6) 0.1880(5)
O28 O 0.0461(7) -0.0155(7) 0.1117(6)
O29 O 0.0360(7) -0.0506(6) 0.2835(5)
O30 O 0.1626(6) 0.1314(6) 0.2365(5)
O31 O 0.2251(7) -0.0001(7) 0.1579(5)
O32 O 0.4237(7) -0.0325(7) 0.1863(6)
O33 O 0.2352(7) -0.0604(7) 0.3222(6)
O34 O 0.0602(6) 0.0459(6) 0.4035(5)
O35 O 0.2116(15) 0.3940(15) -0.1613(13)
C1 C -0.2129(13) 0.0183(13) 0.1089(12)
H1 H -0.2029 0.0025 0.1661
H2 H -0.2771 0.0522 0.1089
C2 C -0.2226(13) -0.0764(13) 0.0958(11)
H3 H -0.2332 -0.0529 0.0374
C3 C -0.322(2) -0.145(3) 0.159(2)
H4 H -0.3806 -0.1045 0.1601
H5 H -0.3157 -0.1760 0.2177
H6 H -0.3323 -0.1987 0.1395
C4 C 0.5888(12) -0.1193(18) 0.3930(15)
H7 H 0.6123 -0.1810 0.4302
H8 H 0.6236 -0.1095 0.3312
C5 C 0.4730(13) -0.138(2) 0.4138(17)
H9 H 0.4630 -0.0788 0.3637
C6 C 0.4350(16) -0.2226(15) 0.3983(13)
H10 H 0.3599 -0.2238 0.4101
H11 H 0.4506 -0.2873 0.4373
H12 H 0.4694 -0.2132 0.3373
C7 C 0.423(3) 0.599(3) -0.333(2)
H13 H 0.4818 0.6471 -0.3443
H14 H 0.4025 0.6228 -0.3863
C8 C 0.463(4) 0.495(3) -0.3207(15)
H15 H 0.4116 0.4589 -0.3333
C9 C 0.565(3) 0.505(3) -0.394(2)
H16 H 0.5898 0.4378 -0.3832
H17 H 0.6167 0.5514 -0.3937
H18 H 0.5530 0.5320 -0.4503
C10 C 0.2533(12) 0.6139(18) -0.0449(14)
H19 H 0.2238 0.5872 0.0198
H20 H 0.2295 0.6819 -0.0681
C11 C 0.3704(14) 0.629(4) -0.069(3)
H21 H 0.3748 0.6890 -0.1242
C12 C 0.4154(17) 0.6902(19) -0.040(2)
H22 H 0.4911 0.6922 -0.0616
H23 H 0.3910 0.6620 0.0241
H24 H 0.3957 0.7595 -0.0624
C13 C 0.122(2) -0.2520(13) 0.2914(12)
H25 H 0.0585 -0.2301 0.2758
H26 H 0.1786 -0.1978 0.2496
C14 C 0.1456(19) -0.3423(15) 0.2714(14)
H27 H 0.2146 -0.3586 0.2791
C15 C 0.157(3) -0.330(3) 0.178(2)
H28 H 0.2029 -0.2676 0.1362
H29 H 0.1863 -0.3888 0.1681
H30 H 0.0885 -0.3245 0.1702
N1 N -0.1225(9) 0.0871(10) 0.0370(8)
H31 H -0.0989 0.1320 0.0552
H32 H -0.1426 0.1242 -0.0106
N2 N -0.1183(10) -0.1207(9) 0.0813(8)
H33 H -0.1179 -0.1659 0.0554
H34 H -0.1077 -0.1549 0.1340
N3 N 0.6224(9) -0.0311(9) 0.4059(7)
H35 H 0.6415 0.0249 0.3536
H36 H 0.6791 -0.0443 0.4247
N4 N 0.4131(9) -0.1125(8) 0.4861(7)
H37 H 0.3950 -0.1702 0.5370
H38 H 0.3532 -0.0879 0.4768
N5 N 0.3329(19) 0.6097(15) -0.2608(12)
H39 H 0.2722 0.6094 -0.2731
H40 H 0.3439 0.6697 -0.2554
N6 N 0.4472(16) 0.4335(15) -0.2245(11)
H41 H 0.5073 0.4399 -0.2127
H42 H 0.4304 0.3657 -0.2106
N7 N 0.2073(11) 0.5467(10) -0.0740(9)
H43 H 0.1676 0.5826 -0.1070
H44 H 0.1651 0.4936 -0.0261
N8 N 0.4195(11) 0.5720(11) -0.1181(10)
H45 H 0.4567 0.5273 -0.0875
H46 H 0.4662 0.6162 -0.1696
N9 N 0.1047(10) -0.2496(9) 0.3770(7)
H47 H 0.0478 -0.2952 0.4158
H48 H 0.1608 -0.2737 0.3942
N10 N 0.0733(19) -0.4408(16) 0.3244(15)
H49 H 0.0170 -0.4437 0.3671
H50 H 0.0878 -0.4948 0.3123
P1A P -0.1050(2) -0.1500(2) 0.67793(18)
W1A W -0.03345(4) -0.39540(4) 0.81700(3)
W2A W -0.25644(4) -0.26774(4) 0.91876(3)
W3A W -0.28482(4) -0.38683(4) 0.76501(3)
W4A W -0.34683(4) -0.15066(4) 0.63385(3)
W5A W -0.14748(4) -0.26900(4) 0.54011(3)
W6A W 0.10446(4) -0.27972(4) 0.59178(3)
W7A W 0.13478(4) -0.16734(4) 0.72902(3)
W8A W -0.08528(4) -0.04301(4) 0.82878(3)
W9A W -0.31612(4) -0.03123(4) 0.78304(3)
Ni1_2 Ni 0.0000 0.0000 1.0000
Ni2_2 Ni -0.5000 0.0000 0.5000
Ni3A Ni -0.32535(17) -0.48893(17) 1.14904(13)
Ni4A Ni -0.10762(12) 0.00407(11) 0.47779(9)
Ni5A Ni -0.08104(12) 0.10709(11) 0.60744(9)
O1A O -0.0271(7) -0.5158(7) 0.8948(6)
O2A O 0.0761(7) -0.3144(6) 0.8163(5)
O3A O -0.0141(6) -0.2162(6) 0.6951(5)
O4A O 0.0520(7) -0.4014(6) 0.7086(5)
O5A O -0.1525(7) -0.4221(6) 0.7843(6)
O6A O -0.1314(7) -0.3404(6) 0.8907(5)
O7A O -0.3201(7) -0.3513(7) 1.0290(5)
O8A O -0.1672(7) -0.1762(6) 0.9281(5)
O9A O -0.3482(6) -0.1681(6) 0.8935(5)
O10A O -0.3059(7) -0.3310(6) 0.8542(5)
O11A O -0.3612(7) -0.5047(7) 0.8228(6)
O12A O -0.1854(6) -0.2120(6) 0.6615(5)
O13A O -0.2232(7) -0.3925(6) 0.6527(5)
O14A O -0.3818(7) -0.2982(6) 0.7228(5)
O15A O -0.4645(7) -0.1260(7) 0.6089(5)
O15A_2 O 0.5355(7) -0.1260(7) 0.6089(5)
O16A O -0.3683(7) -0.1137(7) 0.7314(5)
O17A O -0.2814(7) -0.2208(7) 0.5526(5)
O18A O -0.2589(6) -0.0386(6) 0.5556(5)
O19A O -0.1363(8) -0.3217(7) 0.4624(6)
O20A O -0.0778(7) -0.1380(6) 0.4731(5)
O21A O -0.0243(7) -0.3150(6) 0.5754(5)
O22A O 0.1916(8) -0.3397(7) 0.5319(6)
O23A O -0.1130(6) 0.1453(6) 0.4890(5)
O24A O 0.1899(7) -0.2388(7) 0.6460(5)
O25A O 0.2457(7) -0.1565(7) 0.7570(6)
O26A O -0.1441(7) 0.0512(6) 0.3650(5)
O27A O 0.0291(7) -0.1282(6) 0.8120(5)
O28A O -0.0461(7) 0.0155(7) -0.1117(6)
O28A_2 O -0.0461(7) 0.0155(7) 0.8883(6)
O29A O -0.0360(7) 0.0506(6) 0.7165(5)
O30A O -0.1626(6) -0.1314(6) 0.7635(5)
O31A O -0.2251(7) 0.0001(7) 0.8421(5)
O32A O -0.4237(7) 0.0325(7) 0.8137(6)
O33A O -0.2352(7) 0.0604(7) 0.6778(6)
O34A O -0.0602(6) -0.0459(6) 0.5965(5)
O35A O -0.2116(15) -0.3940(15) 1.1613(13)
C1A C 0.2129(13) -0.0183(13) -0.1089(12)
H1A H 0.2029 -0.0025 -0.1661
H2A H 0.2771 -0.0522 -0.1089
C2A C 0.2226(13) 0.0764(13) -0.0958(11)
H3A H 0.2332 0.0529 -0.0374
C3A C 0.322(2) 0.145(3) -0.159(2)
H4A H 0.3806 0.1045 -0.1601
H5A H 0.3157 0.1760 -0.2177
H6A H 0.3323 0.1987 -0.1395
C4A C 0.4112(12) 0.1193(18) 0.6070(15)
H7A H 0.3877 0.1810 0.5698
H8A H 0.3764 0.1095 0.6688
C5A C 0.5270(13) 0.138(2) 0.5862(17)
H9A H 0.5370 0.0788 0.6363
C6A C 0.5650(16) 0.2226(15) 0.6017(13)
H10A H 0.6401 0.2238 0.5899
H11A H 0.5494 0.2873 0.5627
H12A H 0.5306 0.2132 0.6627
C7A C -0.423(3) -0.599(3) 1.333(2)
H13A H -0.4818 -0.6471 1.3443
H14A H -0.4025 -0.6228 1.3863
C8A C -0.463(4) -0.495(3) 1.3207(15)
H15A H -0.4116 -0.4589 1.3333
C9A C -0.565(3) -0.505(3) 1.394(2)
H16A H -0.5898 -0.4378 1.3832
H17A H -0.6167 -0.5514 1.3937
H18A H -0.5530 -0.5320 1.4503
C10A C -0.2533(12) -0.6139(18) 1.0449(14)
H19A H -0.2238 -0.5872 0.9802
H20A H -0.2295 -0.6819 1.0681
C11A C -0.3704(14) -0.629(4) 1.069(3)
H21A H -0.3748 -0.6890 1.1242
C12A C -0.4154(17) -0.6902(19) 1.040(2)
H22A H -0.4911 -0.6922 1.0616
H23A H -0.3910 -0.6620 0.9759
H24A H -0.3957 -0.7595 1.0624
C13A C -0.122(2) 0.2520(13) 0.7086(12)
H25A H -0.0585 0.2301 0.7242
H26A H -0.1786 0.1978 0.7504
C14A C -0.1456(19) 0.3423(15) 0.7286(14)
H27A H -0.2146 0.3586 0.7209
C15A C -0.157(3) 0.330(3) 0.822(2)
H28A H -0.2029 0.2676 0.8638
H29A H -0.1863 0.3888 0.8319
H30A H -0.0885 0.3245 0.8298
N1A N 0.1225(9) -0.0871(10) -0.0370(8)
H31A H 0.0989 -0.1320 -0.0552
H32A H 0.1426 -0.1242 0.0106
N2A N 0.1183(10) 0.1207(9) -0.0813(8)
H33A H 0.1179 0.1659 -0.0554
H34A H 0.1077 0.1549 -0.1340
N3A N 0.3776(9) 0.0311(9) 0.5941(7)
H35A H 0.3585 -0.0249 0.6464
H36A H 0.3209 0.0443 0.5753
N4A N 0.5869(9) 0.1125(8) 0.5139(7)
H37A H 0.6050 0.1702 0.4630
H38A H 0.6468 0.0879 0.5232
N5A N -0.3329(19) -0.6097(15) 1.2608(12)
H39A H -0.2722 -0.6094 1.2731
H40A H -0.3439 -0.6697 1.2554
N6A N -0.4472(16) -0.4335(15) 1.2245(11)
H41A H -0.5073 -0.4399 1.2127
H42A H -0.4304 -0.3657 1.2106
N7A N -0.2073(11) -0.5467(10) 1.0740(9)
H43A H -0.1676 -0.5826 1.1070
H44A H -0.1651 -0.4936 1.0261
N8A N -0.4195(11) -0.5720(11) 1.1181(10)
H45A H -0.4567 -0.5273 1.0875
H46A H -0.4662 -0.6162 1.1696
N9A N -0.1047(10) 0.2496(9) 0.6230(7)
H47A H -0.0478 0.2952 0.5842
H48A H -0.1608 0.2737 0.6058
N10A N -0.0733(19) 0.4408(16) 0.6756(15)
H49A H -0.0170 0.4437 0.6329
H50A H -0.0878 0.4948 0.6877
O36 O -0.0226(12) 0.7063(8) 0.0139(8)
O37 O -0.1536(14) -0.1667(14) 0.2989(10)
loop_
_geom_bond_atom_site_label_1
_geom_bond_atom_site_label_2
_geom_bond_site_symmetry_1
_geom_bond_site_symmetry_2
P1 O3 1_555 1_555
W1 O1 1_555 1_555
W2 O6 1_555 1_555
W3 O5 1_555 1_555
W4 O12 1_555 1_555
W5 O12 1_555 1_555
W6 O3 1_555 1_555
W7 O2 1_555 1_555
W8 O8 1_555 1_555
W9 O9 1_555 1_555
Ni1 O28 1_555 1_555
Ni2 O15 1_555 1_555
Ni3 O7 1_555 1_555
Ni4 O18 1_555 1_555
Ni5 O23 1_555 1_555
O2 W1 1_555 1_555
O3 W1 1_555 1_555
O4 W1 1_555 1_555
O5 W1 1_555 1_555
O6 W1 1_555 1_555
O7 W2 1_555 1_555
O8 W2 1_555 1_555
O9 W2 1_555 1_555
O10 W2 1_555 1_555
O11 W3 1_555 1_555
O12 P1 1_555 1_555
O13 W3 1_555 1_555
O14 W3 1_555 1_555
O15 W4 1_555 1_555
O16 W4 1_555 1_555
O17 W4 1_555 1_555
O18 W4 1_555 1_555
O19 W5 1_555 1_555
O20 W5 1_555 1_555
O21 W5 1_555 1_555
O22 W6 1_555 1_555
O23 Ni4 1_555 1_555
O24 W6 1_555 1_555
O25 W7 1_555 1_555
O26 Ni4 1_555 1_555
O27 W7 1_555 1_555
O28 W8 1_555 1_555
O29 W8 1_555 1_555
O30 P1 1_555 1_555
O31 W8 1_555 1_555
O32 W9 1_555 1_555
O33 W9 1_555 1_555
O34 P1 1_555 1_555
O35 Ni3 1_555 1_555
C1 H1 1_555 1_555
H2 C1 1_555 1_555
C2 C1 1_555 1_555
H3 C2 1_555 1_555
C3 C2 1_555 1_555
H4 C3 1_555 1_555
H5 C3 1_555 1_555
H6 C3 1_555 1_555
C4 H7 1_555 1_555
H8 C4 1_555 1_555
C5 C4 1_555 1_555
H9 C5 1_555 1_555
C6 C5 1_555 1_555
H10 C6 1_555 1_555
H11 C6 1_555 1_555
H12 C6 1_555 1_555
C7 H13 1_555 1_555
H14 C7 1_555 1_555
C8 C7 1_555 1_555
H15 C8 1_555 1_555
C9 C8 1_555 1_555
H16 C9 1_555 1_555
H17 C9 1_555 1_555
H18 C9 1_555 1_555
C10 H19 1_555 1_555
H20 C10 1_555 1_555
C11 C10 1_555 1_555
H21 C11 1_555 1_555
C12 C11 1_555 1_555
H22 C12 1_555 1_555
H23 C12 1_555 1_555
H24 C12 1_555 1_555
C13 H25 1_555 1_555
H26 C13 1_555 1_555
C14 C13 1_555 1_555
H27 C14 1_555 1_555
C15 C14 1_555 1_555
H28 C15 1_555 1_555
H29 C15 1_555 1_555
H30 C15 1_555 1_555
N1 Ni1 1_555 1_555
H31 N1 1_555 1_555
H32 N1 1_555 1_555
N2 Ni1 1_555 1_555
H33 N2 1_555 1_555
H34 N2 1_555 1_555
N3 Ni2 1_555 1_555
H35 N3 1_555 1_555
H36 N3 1_555 1_555
N4 Ni2 1_555 1_555
H37 N4 1_555 1_555
H38 N4 1_555 1_555
N5 Ni3 1_555 1_555
H39 N5 1_555 1_555
H40 N5 1_555 1_555
N6 Ni3 1_555 1_555
H41 N6 1_555 1_555
H42 N6 1_555 1_555
N7 Ni3 1_555 1_555
H43 N7 1_555 1_555
H44 N7 1_555 1_555
N8 Ni3 1_555 1_555
H45 N8 1_555 1_555
H46 N8 1_555 1_555
N9 Ni5 1_555 1_555
H47 N9 1_555 1_555
H48 N9 1_555 1_555
N10 C14 1_555 1_555
H49 N10 1_555 1_555
H50 N10 1_555 1_555
P1A O3A 1_555 1_555
W1A O1A 1_555 1_555
W2A O6A 1_555 1_555
W3A O5A 1_555 1_555
W4A O12A 1_555 1_555
W5A O12A 1_555 1_555
W6A O23 1_555 1_555
W7A O26 1_555 1_555
W8A O8A 1_555 1_555
W9A O9A 1_555 1_555
Ni1_2 O28A_2 1_555 1_555
Ni2_2 O15A 1_555 1_555
Ni3A O7A 1_555 1_555
Ni4A O34 1_555 1_555
Ni5A O20 1_555 1_555
O2A W1A 1_555 1_555
O3A W1A 1_555 1_555
O4A W1A 1_555 1_555
O5A W1A 1_555 1_555
O6A W1A 1_555 1_555
O7A W2A 1_555 1_555
O8A W2A 1_555 1_555
O9A W2A 1_555 1_555
O10A W2A 1_555 1_555
O11A W3A 1_555 1_555
O12A P1A 1_555 1_555
O13A W3A 1_555 1_555
O14A W3A 1_555 1_555
O15A W4A 1_555 1_555
O15A_2 Ni2 1_555 1_555
O16A W4A 1_555 1_555
O17A W4A 1_555 1_555
O18A W4A 1_555 1_555
O19A W5A 1_555 1_555
O20A Ni5 1_555 1_555
O21A W5A 1_555 1_555
O22A W6A 1_555 1_555
O23A W6 1_555 1_555
O24A W6A 1_555 1_555
O25A W7A 1_555 1_555
O26A W7 1_555 1_555
O27A W7A 1_555 1_555
O28A Ni1 1_555 1_555
O28A_2 W8A 1_555 1_555
O29A W8A 1_555 1_555
O30A P1A 1_555 1_555
O31A W8A 1_555 1_555
O32A W9A 1_555 1_555
O33A W9A 1_555 1_555
O34A Ni4 1_555 1_555
O35A Ni3A 1_555 1_555
C1A H1A 1_555 1_555
H2A C1A 1_555 1_555
C2A C1A 1_555 1_555
H3A C2A 1_555 1_555
C3A C2A 1_555 1_555
H4A C3A 1_555 1_555
H5A C3A 1_555 1_555
H6A C3A 1_555 1_555
C4A H7A 1_555 1_555
H8A C4A 1_555 1_555
C5A C4A 1_555 1_555
H9A C5A 1_555 1_555
C6A C5A 1_555 1_555
H10A C6A 1_555 1_555
H11A C6A 1_555 1_555
H12A C6A 1_555 1_555
C7A H13A 1_555 1_555
H14A C7A 1_555 1_555
C8A C7A 1_555 1_555
H15A C8A 1_555 1_555
C9A C8A 1_555 1_555
H16A C9A 1_555 1_555
H17A C9A 1_555 1_555
H18A C9A 1_555 1_555
C10A H19A 1_555 1_555
H20A C10A 1_555 1_555
C11A C10A 1_555 1_555
H21A C11A 1_555 1_555
C12A C11A 1_555 1_555
H22A C12A 1_555 1_555
H23A C12A 1_555 1_555
H24A C12A 1_555 1_555
C13A H25A 1_555 1_555
H26A C13A 1_555 1_555
C14A C13A 1_555 1_555
H27A C14A 1_555 1_555
C15A C14A 1_555 1_555
H28A C15A 1_555 1_555
H29A C15A 1_555 1_555
H30A C15A 1_555 1_555
N1A Ni1 1_555 1_555
H31A N1A 1_555 1_555
H32A N1A 1_555 1_555
N2A Ni1 1_555 1_555
H33A N2A 1_555 1_555
H34A N2A 1_555 1_555
N3A Ni2 1_555 1_555
H35A N3A 1_555 1_555
H36A N3A 1_555 1_555
N4A Ni2 1_555 1_555
H37A N4A 1_555 1_555
H38A N4A 1_555 1_555
N5A Ni3A 1_555 1_555
H39A N5A 1_555 1_555
H40A N5A 1_555 1_555
N6A Ni3A 1_555 1_555
H41A N6A 1_555 1_555
H42A N6A 1_555 1_555
N7A Ni3A 1_555 1_555
H43A N7A 1_555 1_555
H44A N7A 1_555 1_555
N8A Ni3A 1_555 1_555
H45A N8A 1_555 1_555
H46A N8A 1_555 1_555
N9A Ni5A 1_555 1_555
H47A N9A 1_555 1_555
H48A N9A 1_555 1_555
N10A C14A 1_555 1_555
H49A N10A 1_555 1_555
H50A N10A 1_555 1_555
W2 O30 1_555 1_555
W3 O10 1_555 1_555
W3 O12 1_555 1_555
W4 O14 1_555 1_555
W5 O13 1_555 1_555
W5 O17 1_555 1_555
W6 O4 1_555 1_555
W6 O21 1_555 1_555
W7 O3 1_555 1_555
W7 O24 1_555 1_555
W8 O27 1_555 1_555
W8 O30 1_555 1_555
W9 O16 1_555 1_555
W9 O30 1_555 1_555
W9 O31 1_555 1_555
Ni4 O20 1_555 1_555
Ni4 O34 1_555 1_555
Ni5 O29 1_555 1_555
Ni5 O33 1_555 1_555
Ni5 O34 1_555 1_555
C1 N1 1_555 1_555
C2 N2 1_555 1_555
C4 N3 1_555 1_555
C5 N4 1_555 1_555
C7 N5 1_555 1_555
C8 N6 1_555 1_555
C10 N7 1_555 1_555
C11 N8 1_555 1_555
C13 N9 1_555 1_555
P1A O34A 1_555 1_555
W2A O30A 1_555 1_555
W3A O10A 1_555 1_555
W3A O12A 1_555 1_555
W4A O14A 1_555 1_555
W5A O13A 1_555 1_555
W5A O17A 1_555 1_555
W5A O20A 1_555 1_555
W6A O3A 1_555 1_555
W6A O4A 1_555 1_555
W6A O21A 1_555 1_555
W7A O2A 1_555 1_555
W7A O3A 1_555 1_555
W7A O24A 1_555 1_555
W8A O27A 1_555 1_555
W8A O30A 1_555 1_555
W9A O16A 1_555 1_555
W9A O30A 1_555 1_555
W9A O31A 1_555 1_555
Ni4A O18A 1_555 1_555
Ni4A O20A 1_555 1_555
Ni4A O23A 1_555 1_555
Ni4A O26A 1_555 1_555
Ni4A O34A 1_555 1_555
Ni5A O23A 1_555 1_555
Ni5A O29A 1_555 1_555
Ni5A O33A 1_555 1_555
Ni5A O34A 1_555 1_555
C1A N1A 1_555 1_555
C2A N2A 1_555 1_555
C4A N3A 1_555 1_555
C5A N4A 1_555 1_555
C7A N5A 1_555 1_555
C8A N6A 1_555 1_555
C10A N7A 1_555 1_555
C11A N8A 1_555 1_555
C13A N9A 1_555 1_555

#END
