
#######################################################################
#
#                 Cambridge Crystallographic Data Centre
#                                CCDC 
#
#######################################################################
#
# If this CIF has been generated from an entry in the Cambridge 
# Structural Database, then it will include bibliographic, chemical, 
# crystal, experimental, refinement or atomic coordinate data resulting 
# from the CCDC's data processing and validation procedures.
#
#######################################################################

data_PITHUX
_symmetry_cell_setting           triclinic
_symmetry_space_group_name_H-M   'P -1'
_symmetry_Int_Tables_number      2
_space_group_name_Hall           '-P 1'
loop_
_symmetry_equiv_pos_site_id
_symmetry_equiv_pos_as_xyz
1 x,y,z
2 -x,-y,-z
_cell_length_a                   14.4966(8)
_cell_length_b                   15.1538(8)
_cell_length_c                   17.8509(9)
_cell_angle_alpha                73.872(3)
_cell_angle_beta                 81.949(3)
_cell_angle_gamma                62.803(2)
_cell_volume                     3350.24
loop_
_atom_site_label
_atom_site_type_symbol
_atom_site_fract_x
_atom_site_fract_y
_atom_site_fract_z
Tb1 Tb 0.39141(3) 0.25429(2) 0.265547(19)
Cu1 Cu 0.28737(7) 0.08696(6) 0.40105(5)
Cu2 Cu 0.22993(7) 0.51878(6) 0.16862(5)
Cu3 Cu 0.64597(7) 0.12195(6) 0.18164(5)
W1 W 0.22072(2) 0.80068(2) 0.310510(17)
N1 N 0.1440(5) 0.1125(5) 0.4356(4)
C1 C 0.0668(6) 0.2016(6) 0.4239(5)
H1 H 0.0029 0.2052 0.4480
C2 C 0.0658(6) 0.2968(6) 0.3782(5)
C3 C 0.1492(6) 0.3026(5) 0.3317(5)
O1 O 0.2407(4) 0.2230(4) 0.3289(3)
C4 C 0.1389(6) 0.3991(6) 0.2845(4)
O2 O 0.2206(4) 0.4012(4) 0.2423(3)
C5 C 0.0440(6) 0.4856(6) 0.2849(5)
C6 C -0.0388(7) 0.4776(7) 0.3330(5)
H2 H -0.1024 0.5370 0.3333
C7 C -0.0286(6) 0.3855(6) 0.3790(5)
H3 H -0.0846 0.3807 0.4117
C8 C 0.0247(6) 0.5868(6) 0.2378(5)
H4 H -0.0413 0.6402 0.2450
N2 N 0.0849(5) 0.6138(4) 0.1876(4)
C9 C 0.0424(6) 0.7263(5) 0.1515(5)
H5 H -0.0342 0.7572 0.1557
H6 H 0.0669 0.7577 0.1812
C10 C 0.0736(6) 0.7508(6) 0.0677(5)
H7 H 0.0348 0.8252 0.0453
H8 H 0.0544 0.7148 0.0387
C11 C 0.1892(6) 0.7204(5) 0.0566(5)
H9 H 0.2031 0.7529 0.0028
H10 H 0.2115 0.7454 0.0931
N3 N 0.2489(5) 0.6091(4) 0.0707(3)
C12 C 0.3120(6) 0.5773(6) 0.0148(4)
H11 H 0.3094 0.6273 -0.0320
C13 C 0.3865(6) 0.4724(5) 0.0171(4)
C14 C 0.4098(6) 0.3964(5) 0.0861(4)
O3 O 0.3629(4) 0.4072(4) 0.1544(3)
C15 C 0.4931(6) 0.2983(5) 0.0858(4)
O4 O 0.5134(4) 0.2317(4) 0.1542(3)
C16 C 0.5469(6) 0.2788(6) 0.0158(4)
C17 C 0.5187(6) 0.3566(6) -0.0537(4)
H12 H 0.5538 0.3431 -0.1013
C18 C 0.4407(6) 0.4516(6) -0.0526(4)
H13 H 0.4230 0.5042 -0.0995
C19 C 0.6365(6) 0.1827(6) 0.0132(4)
H14 H 0.6609 0.1705 -0.0369
N4 N 0.6859(5) 0.1127(5) 0.0723(4)
C20 C 0.7842(7) 0.0276(6) 0.0590(5)
H15 H 0.7987 0.0339 0.0024
H16 H 0.7810 -0.0384 0.0822
C21 C 0.8706(6) 0.0326(6) 0.0984(5)
H17 H 0.9382 -0.0052 0.0742
H18 H 0.8581 0.1050 0.0867
C22 C 0.8788(6) -0.0096(6) 0.1850(5)
H19 H 0.9235 -0.0842 0.1963
H20 H 0.9126 0.0217 0.2066
N5 N 0.7764(5) 0.0097(5) 0.2245(4)
C23 C 0.7803(6) -0.0554(6) 0.2900(4)
H21 H 0.8468 -0.1091 0.3058
C24 C 0.6944(6) -0.0546(6) 0.3412(4)
C25 C 0.5947(6) 0.0259(5) 0.3320(4)
O5 O 0.5690(4) 0.1132(4) 0.2793(3)
C26 C 0.5114(6) 0.0160(5) 0.3807(4)
O6 O 0.4182(4) 0.0937(4) 0.3645(3)
C27 C 0.5325(6) -0.0731(6) 0.4404(4)
C28 C 0.6358(7) -0.1494(6) 0.4528(5)
H22 H 0.6506 -0.2073 0.4957
C29 C 0.7142(7) -0.1414(6) 0.4046(5)
H23 H 0.7829 -0.1943 0.4135
C30 C 0.4537(6) -0.0937(6) 0.4889(4)
H24 H 0.4779 -0.1528 0.5310
N6 N 0.3553(5) -0.0433(5) 0.4832(4)
C31 C 0.2972(7) -0.0964(7) 0.5376(5)
H25 H 0.3343 -0.1313 0.5877
H26 H 0.2984 -0.1497 0.5151
C32 C 0.1860(7) -0.0276(7) 0.5540(5)
C33 C 0.1216(6) 0.0273(6) 0.4817(5)
H27 H 0.1362 -0.0214 0.4495
H28 H 0.0471 0.0541 0.4967
C34 C 0.2655(6) 0.6618(6) 0.2720(4)
N7 N 0.2856(5) 0.5907(5) 0.2488(4)
C35 C 0.0926(6) 0.7599(6) 0.3318(5)
N8 N 0.0237(6) 0.7384(6) 0.3450(4)
C36 C 0.1538(6) 0.8743(5) 0.1966(5)
N9 N 0.1212(5) 0.9154(5) 0.1342(4)
C37 C 0.0822(6) 0.9400(6) 0.3205(5)
N10 N 0.0109(6) 1.0144(5) 0.3219(4)
C38 C 0.2691(6) 0.9130(5) 0.3215(4)
N11 N 0.2917(5) 0.9743(5) 0.3258(4)
C39 C 0.1902(6) 0.7823(5) 0.4339(4)
N12 N 0.1734(5) 0.7699(5) 0.5009(4)
C40 C 0.3650(6) 0.6967(6) 0.3728(5)
N13 N 0.4397(6) 0.6432(6) 0.4066(4)
C41 C 0.3453(6) 0.7942(6) 0.2246(5)
N14 N 0.4081(6) 0.7938(6) 0.1784(4)
O7 O 0.3407(5) 0.1959(5) 0.1780(3)
C42 C 0.2809(9) 0.1617(8) 0.1741(6)
H29 H 0.2331 0.1613 0.2163
N15 N 0.2761(8) 0.1255(7) 0.1175(5)
C43 C 0.3435(12) 0.1290(13) 0.0445(10)
H30 H 0.3842 0.1648 0.0476
H31 H 0.2994 0.1654 -0.0014
H32 H 0.3906 0.0591 0.0405
C44 C 0.2037(12) 0.0820(10) 0.1185(9)
H33 H 0.1580 0.0912 0.1645
H34 H 0.2429 0.0089 0.1204
H35 H 0.1620 0.1169 0.0712
O8 O 0.5028(5) 0.3184(4) 0.2957(3)
C45 C 0.5180(6) 0.3953(6) 0.2671(5)
H36 H 0.4950 0.4323 0.2155
N16 N 0.5641(6) 0.4296(5) 0.3035(4)
C46 C 0.5987(9) 0.3814(7) 0.3851(6)
H37 H 0.5846 0.3216 0.4050
H38 H 0.5611 0.4307 0.4172
H39 H 0.6733 0.3600 0.3872
C47 C 0.5807(8) 0.5182(7) 0.2654(5)
H40 H 0.6544 0.4969 0.2518
H41 H 0.5594 0.5640 0.3005
H42 H 0.5396 0.5542 0.2179
O9 O 0.3307(5) 0.3225(4) 0.3807(3)
C48 C 0.3308(7) 0.3897(6) 0.4068(5)
H43 H 0.3861 0.4082 0.3906
N17 N 0.2609(7) 0.4383(5) 0.4554(4)
C49 C 0.1682(8) 0.4222(9) 0.4785(7)
H44 H 0.1724 0.3672 0.4574
H45 H 0.1067 0.4853 0.4581
H46 H 0.1631 0.4031 0.5355
C50 C 0.2689(12) 0.5132(9) 0.4846(8)
H47 H 0.3309 0.5216 0.4622
H48 H 0.2739 0.4908 0.5415
H49 H 0.2072 0.5786 0.4700
O10 O 0.7202(5) 0.2385(5) 0.1696(4)
C51 C 0.7594(7) 0.2391(6) 0.2257(5)
H50 H 0.7310 0.2214 0.2757
N18 N 0.8382(7) 0.2623(7) 0.2235(5)
C52 C 0.8820(9) 0.2607(8) 0.2921(7)
H51 H 0.8372 0.2531 0.3375
H52 H 0.8873 0.3248 0.2845
H53 H 0.9512 0.2030 0.3008
C53 C 0.8942(13) 0.2731(14) 0.1512(10)
H54 H 0.9688 0.2331 0.1605
H55 H 0.8783 0.3453 0.1295
H56 H 0.8736 0.2482 0.1143
Cu1_2 Cu 0.28737(7) 1.08696(6) 0.40105(5)
N11_2 N 0.2917(5) -0.0257(5) 0.3258(4)
O11 O 0.0372(9) 0.3328(10) 1.0294(7)
C54 C 0.0933(11) 0.3499(12) 0.9778(9)
H57 H 0.0939 0.3319 0.9308
N19 N 0.1557(10) 0.3928(10) 0.9809(7)
C55 C 0.1571(11) 0.4244(11) 1.0495(8)
H58 H 0.1026 0.4168 1.0861
H59 H 0.1448 0.4961 1.0348
H60 H 0.2248 0.3817 1.0743
C56 C 0.2230(19) 0.4040(19) 0.9193(14)
H61 H 0.2918 0.3460 0.9296
H62 H 0.2283 0.4677 0.9140
H63 H 0.1965 0.4062 0.8709
O12 O 0.7762(9) -0.2102(9) 0.1664(7)
C57 C 0.7282(17) -0.2263(17) 0.2237(13)
H64 H 0.7641 -0.2789 0.2674
N20 N 0.6198(9) -0.1702(9) 0.2290(7)
C58 C 0.5914(13) -0.2332(13) 0.2980(10)
H65 H 0.5372 -0.1887 0.3281
H66 H 0.6525 -0.2787 0.3305
H67 H 0.5656 -0.2742 0.2813
C59 C 0.5264(13) -0.0698(13) 0.2087(10)
H68 H 0.5443 -0.0226 0.1666
H69 H 0.5025 -0.0411 0.2546
H70 H 0.4712 -0.0796 0.1916
loop_
_geom_bond_atom_site_label_1
_geom_bond_atom_site_label_2
_geom_bond_site_symmetry_1
_geom_bond_site_symmetry_2
Tb1 O1 1_555 1_555
Cu1 N1 1_555 1_555
Cu2 O2 1_555 1_555
Cu3 O4 1_555 1_555
W1 C34 1_555 1_555
N1 C1 1_555 1_555
C1 H1 1_555 1_555
C2 C1 1_555 1_555
C3 C2 1_555 1_555
O1 Cu1 1_555 1_555
C4 C3 1_555 1_555
O2 Tb1 1_555 1_555
C5 C4 1_555 1_555
C6 C5 1_555 1_555
H2 C6 1_555 1_555
C7 C2 1_555 1_555
H3 C7 1_555 1_555
C8 C5 1_555 1_555
H4 C8 1_555 1_555
N2 Cu2 1_555 1_555
C9 N2 1_555 1_555
H5 C9 1_555 1_555
H6 C9 1_555 1_555
C10 C9 1_555 1_555
H7 C10 1_555 1_555
H8 C10 1_555 1_555
C11 C10 1_555 1_555
H9 C11 1_555 1_555
H10 C11 1_555 1_555
N3 Cu2 1_555 1_555
C12 N3 1_555 1_555
H11 C12 1_555 1_555
C13 C12 1_555 1_555
C14 C13 1_555 1_555
O3 Tb1 1_555 1_555
C15 C14 1_555 1_555
O4 Tb1 1_555 1_555
C16 C15 1_555 1_555
C17 C16 1_555 1_555
H12 C17 1_555 1_555
C18 C13 1_555 1_555
H13 C18 1_555 1_555
C19 C16 1_555 1_555
H14 C19 1_555 1_555
N4 Cu3 1_555 1_555
C20 N4 1_555 1_555
H15 C20 1_555 1_555
H16 C20 1_555 1_555
C21 C20 1_555 1_555
H17 C21 1_555 1_555
H18 C21 1_555 1_555
C22 C21 1_555 1_555
H19 C22 1_555 1_555
H20 C22 1_555 1_555
N5 Cu3 1_555 1_555
C23 N5 1_555 1_555
H21 C23 1_555 1_555
C24 C23 1_555 1_555
C25 C24 1_555 1_555
O5 Tb1 1_555 1_555
C26 C25 1_555 1_555
O6 Tb1 1_555 1_555
C27 C26 1_555 1_555
C28 C27 1_555 1_555
H22 C28 1_555 1_555
C29 C24 1_555 1_555
H23 C29 1_555 1_555
C30 C27 1_555 1_555
H24 C30 1_555 1_555
N6 Cu1 1_555 1_555
C31 N6 1_555 1_555
H25 C31 1_555 1_555
H26 C31 1_555 1_555
C32 C31 1_555 1_555
C33 N1 1_555 1_555
H27 C33 1_555 1_555
H28 C33 1_555 1_555
C34 N7 1_555 1_555
N7 Cu2 1_555 1_555
C35 W1 1_555 1_555
N8 C35 1_555 1_555
C36 W1 1_555 1_555
N9 C36 1_555 1_555
C37 W1 1_555 1_555
N10 C37 1_555 1_555
C38 W1 1_555 1_555
N11 C38 1_555 1_555
C39 W1 1_555 1_555
N12 C39 1_555 1_555
C40 W1 1_555 1_555
N13 C40 1_555 1_555
C41 W1 1_555 1_555
N14 C41 1_555 1_555
O7 Tb1 1_555 1_555
C42 O7 1_555 1_555
H29 C42 1_555 1_555
N15 C42 1_555 1_555
C43 N15 1_555 1_555
H30 C43 1_555 1_555
H31 C43 1_555 1_555
H32 C43 1_555 1_555
C44 N15 1_555 1_555
H33 C44 1_555 1_555
H34 C44 1_555 1_555
H35 C44 1_555 1_555
O8 Tb1 1_555 1_555
C45 O8 1_555 1_555
H36 C45 1_555 1_555
N16 C45 1_555 1_555
C46 N16 1_555 1_555
H37 C46 1_555 1_555
H38 C46 1_555 1_555
H39 C46 1_555 1_555
C47 N16 1_555 1_555
H40 C47 1_555 1_555
H41 C47 1_555 1_555
H42 C47 1_555 1_555
O9 Tb1 1_555 1_555
C48 O9 1_555 1_555
H43 C48 1_555 1_555
N17 C48 1_555 1_555
C49 N17 1_555 1_555
H44 C49 1_555 1_555
H45 C49 1_555 1_555
H46 C49 1_555 1_555
C50 N17 1_555 1_555
H47 C50 1_555 1_555
H48 C50 1_555 1_555
H49 C50 1_555 1_555
O10 Cu3 1_555 1_555
C51 O10 1_555 1_555
H50 C51 1_555 1_555
N18 C51 1_555 1_555
C52 N18 1_555 1_555
H51 C52 1_555 1_555
H52 C52 1_555 1_555
H53 C52 1_555 1_555
C53 N18 1_555 1_555
H54 C53 1_555 1_555
H55 C53 1_555 1_555
H56 C53 1_555 1_555
O11 C54 1_555 1_555
C54 H57 1_555 1_555
N19 C54 1_555 1_555
C55 N19 1_555 1_555
H58 C55 1_555 1_555
H59 C55 1_555 1_555
H60 C55 1_555 1_555
C56 N19 1_555 1_555
H61 C56 1_555 1_555
H62 C56 1_555 1_555
H63 C56 1_555 1_555
O12 C57 1_555 1_555
C57 H64 1_555 1_555
N20 C57 1_555 1_555
C58 N20 1_555 1_555
H65 C58 1_555 1_555
H66 C58 1_555 1_555
H67 C58 1_555 1_555
C59 N20 1_555 1_555
H68 C59 1_555 1_555
H69 C59 1_555 1_555
H70 C59 1_555 1_555
Cu1_2 N11 1_555 1_555
N11_2 Cu1 1_555 1_555
Cu1 O6 1_555 1_555
Cu2 O3 1_555 1_555
Cu3 O5 1_555 1_555
C3 O1 1_555 1_555
C4 O2 1_555 1_555
C6 C7 1_555 1_555
C8 N2 1_555 1_555
C11 N3 1_555 1_555
C14 O3 1_555 1_555
C15 O4 1_555 1_555
C17 C18 1_555 1_555
C19 N4 1_555 1_555
C22 N5 1_555 1_555
C25 O5 1_555 1_555
C26 O6 1_555 1_555
C28 C29 1_555 1_555
C30 N6 1_555 1_555
C32 C33 1_555 1_555

#END
