
#######################################################################
#
#                 Cambridge Crystallographic Data Centre
#                                CCDC 
#
#######################################################################
#
# If this CIF has been generated from an entry in the Cambridge 
# Structural Database, then it will include bibliographic, chemical, 
# crystal, experimental, refinement or atomic coordinate data resulting 
# from the CCDC's data processing and validation procedures.
#
#######################################################################

data_PITJAF
_symmetry_cell_setting           monoclinic
_symmetry_space_group_name_H-M   'P 21/c'
_symmetry_Int_Tables_number      14
_space_group_name_Hall           '-P 2ybc'
loop_
_symmetry_equiv_pos_site_id
_symmetry_equiv_pos_as_xyz
1 x,y,z
2 -x,1/2+y,1/2-z
3 -x,-y,-z
4 x,1/2-y,1/2+z
_cell_length_a                   22.615(7)
_cell_length_b                   14.423(4)
_cell_length_c                   19.720(6)
_cell_angle_alpha                90
_cell_angle_beta                 92.276(14)
_cell_angle_gamma                90
_cell_volume                     6427.12
loop_
_atom_site_label
_atom_site_type_symbol
_atom_site_fract_x
_atom_site_fract_y
_atom_site_fract_z
Tb1 Tb 0.255292(13) 0.63698(2) 0.031122(15)
Cu1 Cu 0.30543(4) 0.50321(5) 0.18035(4)
Cu2 Cu 0.35763(3) 0.66267(6) -0.11203(4)
Cu3 Cu 0.09891(4) 0.68491(6) 0.00096(4)
W1 W 0.325843(12) 0.124885(17) 0.190492(13)
N1 N 0.3804(3) 0.5212(4) 0.2360(3)
C1 C 0.4279(3) 0.5488(4) 0.2099(3)
H1 H 0.4615 0.5536 0.2402
C2 C 0.4375(3) 0.5739(5) 0.1401(3)
C3 C 0.3905(3) 0.5873(4) 0.0924(3)
O1 O 0.33397(19) 0.5819(3) 0.1079(2)
C4 C 0.4027(3) 0.6086(4) 0.0236(3)
O2 O 0.35609(19) 0.6181(3) -0.0188(2)
C5 C 0.4609(3) 0.6154(4) 0.0050(3)
C6 C 0.5084(3) 0.6044(5) 0.0548(4)
H2 H 0.5483 0.6107 0.0420
C7 C 0.4963(3) 0.5850(5) 0.1207(4)
H3 H 0.5278 0.5789 0.1537
C8 C 0.4783(3) 0.6297(5) -0.0643(4)
H4 H 0.5196 0.6268 -0.0716
N2 N 0.4449(3) 0.6458(4) -0.1166(3)
C9 C 0.4748(3) 0.6511(5) -0.1820(4)
H5 H 0.4688 0.5917 -0.2066
H6 H 0.5178 0.6590 -0.1727
C10 C 0.4528(3) 0.7287(5) -0.2266(3)
H7 H 0.4798 0.7365 -0.2645
H8 H 0.4534 0.7870 -0.2001
C11 C 0.3912(3) 0.7121(5) -0.2551(3)
H9 H 0.3824 0.7567 -0.2923
H10 H 0.3888 0.6488 -0.2745
N3 N 0.3461(2) 0.7220(4) -0.2030(3)
C12 C 0.3007(3) 0.7692(5) -0.2215(3)
H11 H 0.3007 0.7957 -0.2656
C13 C 0.2491(3) 0.7866(4) -0.1823(3)
C14 C 0.2388(3) 0.7449(4) -0.1196(3)
O3 O 0.27542(19) 0.6856(3) -0.0888(2)
C15 C 0.1850(3) 0.7633(4) -0.0881(3)
O4 O 0.17751(19) 0.7210(3) -0.0286(2)
C16 C 0.1438(3) 0.8236(5) -0.1176(3)
C17 C 0.1557(3) 0.8682(5) -0.1806(4)
H12 H 0.1284 0.9115 -0.2002
C18 C 0.2063(3) 0.8480(5) -0.2118(4)
H13 H 0.2134 0.8755 -0.2545
C19 C 0.0866(3) 0.8406(5) -0.0909(4)
H14 H 0.0648 0.8915 -0.1093
N4 N 0.0622(3) 0.7930(5) -0.0443(3)
C20 C 0.0010(4) 0.8156(6) -0.0288(5)
H15 H -0.0128 0.8697 -0.0560
H16 H -0.0014 0.8315 0.0199
C21 C -0.0379(3) 0.7312(7) -0.0457(4)
H17 H -0.0791 0.7522 -0.0551
H18 H -0.0240 0.7015 -0.0874
C22 C -0.0373(4) 0.6617(7) 0.0096(5)
H19 H -0.0609 0.6072 -0.0057
H20 H -0.0567 0.6888 0.0492
N5 N 0.0241(3) 0.6298(5) 0.0316(3)
C23 C 0.0245(3) 0.5626(6) 0.0745(4)
H21 H -0.0130 0.5368 0.0835
C24 C 0.0742(4) 0.5217(6) 0.1106(4)
C25 C 0.1330(3) 0.5422(5) 0.0976(3)
O5 O 0.1500(2) 0.5979(3) 0.0486(2)
C26 C 0.1795(3) 0.5031(5) 0.1398(3)
O6 O 0.2336(2) 0.5297(3) 0.1267(2)
C27 C 0.1650(3) 0.4459(5) 0.1947(4)
C28 C 0.1048(4) 0.4247(7) 0.2042(4)
H22 H 0.0947 0.3847 0.2402
C29 C 0.0617(4) 0.4599(7) 0.1634(4)
H23 H 0.0219 0.4428 0.1702
C30 C 0.2080(3) 0.4158(5) 0.2456(4)
H24 H 0.1938 0.3762 0.2798
N6 N 0.2629(3) 0.4360(4) 0.2505(3)
C31 C 0.2956(3) 0.4041(5) 0.3124(3)
H25 H 0.3226 0.3531 0.3006
H26 H 0.2673 0.3796 0.3449
C32 C 0.3307(3) 0.4807(5) 0.3452(3)
H27 H 0.3396 0.4649 0.3933
H28 H 0.3068 0.5383 0.3439
C33 C 0.3885(3) 0.4979(6) 0.3099(4)
H29 H 0.4099 0.5495 0.3332
H30 H 0.4136 0.4418 0.3146
O7 O 0.3047(2) 0.7833(3) 0.0370(2)
H31 H 0.3313 0.7879 0.0076
H32 H 0.3201 0.7880 0.0774
O8 O 0.2200(2) 0.7342(3) 0.1252(2)
H33 H 0.1832 0.7471 0.1190
H34 H 0.2396 0.7855 0.1262
O9 O 0.1026(3) 0.7806(5) 0.1130(3)
H35 H 0.1000 0.8370 0.0992
H36 H 0.0863 0.7765 0.1513
C34 C 0.3288(3) 0.2672(5) 0.1548(3)
N7 N 0.3312(3) 0.3442(4) 0.1393(3)
C35 C 0.3828(3) 0.2035(5) 0.2605(4)
N8 N 0.4129(3) 0.2439(4) 0.2979(3)
C36 C 0.2664(3) 0.1748(5) 0.2656(4)
N9 N 0.2353(3) 0.2007(4) 0.3051(4)
C37 C 0.3423(3) 0.0368(5) 0.2790(3)
N10 N 0.3506(3) -0.0110(4) 0.3256(3)
C38 C 0.2998(3) -0.0169(5) 0.1654(3)
N11 N 0.2864(3) -0.0905(4) 0.1509(3)
C39 C 0.2378(3) 0.1396(5) 0.1437(4)
N12 N 0.1918(3) 0.1481(5) 0.1181(4)
C40 C 0.3346(3) 0.1093(5) 0.0815(4)
N13 N 0.3381(3) 0.0969(5) 0.0249(3)
C41 C 0.4147(3) 0.0786(5) 0.1731(3)
N14 N 0.4623(3) 0.0547(5) 0.1642(3)
O10 O 0.2475(2) 0.4949(3) -0.0204(2)
N15 N 0.2819(3) 0.3507(4) -0.0361(3)
C42 C 0.2867(3) 0.4398(5) -0.0378(3)
H37 H 0.3225 0.4652 -0.0533
C43 C 0.3296(4) 0.2917(6) -0.0586(4)
H38 H 0.3582 0.3294 -0.0826
H39 H 0.3132 0.2439 -0.0893
H40 H 0.3494 0.2621 -0.0192
C44 C 0.2299(4) 0.3065(6) -0.0108(5)
H41 H 0.2073 0.3517 0.0148
H42 H 0.2419 0.2549 0.0190
H43 H 0.2053 0.2830 -0.0490
N16 N 0.1465(3) 0.5701(5) -0.1850(3)
O11 O 0.0798(3) 0.5941(6) -0.1059(4)
C45 C 0.1290(4) 0.5582(7) -0.1253(5)
H44 H 0.1524 0.5221 -0.0941
C46 C 0.1151(6) 0.6320(7) -0.2332(6)
H45 H 0.0792 0.6555 -0.2129
H46 H 0.1043 0.5976 -0.2747
H47 H 0.1408 0.6841 -0.2442
C47 C 0.2012(4) 0.5423(7) -0.2109(6)
H48 H 0.2261 0.5969 -0.2173
H49 H 0.1940 0.5110 -0.2546
H50 H 0.2212 0.4997 -0.1789
O12 O 0.3898(2) 0.8269(4) -0.0461(3)
N17 N 0.4715(3) 0.8586(4) 0.0221(3)
C48 C 0.4421(3) 0.8503(5) -0.0377(4)
H51 H 0.4632 0.8636 -0.0772
C49 C 0.5328(4) 0.8872(8) 0.0257(5)
H52 H 0.5465 0.8971 -0.0202
H53 H 0.5568 0.8388 0.0483
H54 H 0.5366 0.9450 0.0516
C50 C 0.4429(4) 0.8420(6) 0.0855(4)
H55 H 0.4109 0.8871 0.0905
H56 H 0.4719 0.8485 0.1234
H57 H 0.4264 0.7791 0.0854
Cu2C Cu 0.35763(3) -0.16267(6) 0.38797(4)
N10C N 0.3506(3) 0.5110(4) -0.1744(3)
O13 O -0.0162(8) 0.9544(13) 0.1339(9)
H58 H -0.0023 0.8995 0.1402
H59 H 0.0080 0.9848 0.1081
O14 O 0.0959(5) 0.9548(8) 0.0700(6)
N18 N 0.1577(5) 1.0050(9) -0.0058(7)
C51 C 0.1474(8) 0.9563(12) 0.0407(9)
H60 H 0.1779 0.9163 0.0578
C52 C 0.2208(7) 1.0042(11) -0.0367(8)
H61 H 0.2454 0.9569 -0.0138
H62 H 0.2393 1.0652 -0.0303
H63 H 0.2169 0.9901 -0.0853
C53 C 0.1231(9) 1.0683(14) -0.0438(10)
H64 H 0.0814 1.0606 -0.0332
H65 H 0.1279 1.0570 -0.0923
H66 H 0.1358 1.1316 -0.0325
O16 O 0.0010(6) 0.2650(10) 0.3244(7)
N20 N 0.0496(4) 0.1729(7) 0.2641(5)
C57 C 0.0001(6) 0.2031(10) 0.2852(7)
H74 H -0.0363 0.1762 0.2696
C58 C 0.0468(9) 0.0942(15) 0.2157(10)
H75 H 0.0628 0.0384 0.2382
H76 H 0.0702 0.1089 0.1764
H77 H 0.0056 0.0831 0.2008
C59 C 0.1014(10) 0.1906(16) 0.2938(11)
H78 H 0.0975 0.2416 0.3262
H79 H 0.1295 0.2082 0.2595
H80 H 0.1159 0.1351 0.3180
O15? O 0.0828(12) 0.9709(19) 0.0540(14)
N19? N 0.1667(16) 1.010(2) -0.0195(19)
C54? C 0.1041(9) 1.0118(15) 0.0168(11)
H67? H 0.0800 1.0619 0.0011
C55? C 0.2015(10) 0.9447(16) 0.0276(11)
H68? H 0.2438 0.9590 0.0261
H69? H 0.1947 0.8804 0.0131
H70? H 0.1885 0.9525 0.0741
C56? C 0.1802(12) 1.0634(19) -0.0614(14)
H71? H 0.2174 1.0937 -0.0471
H72? H 0.1490 1.1101 -0.0675
H73? H 0.1853 1.0308 -0.1044
loop_
_geom_bond_atom_site_label_1
_geom_bond_atom_site_label_2
_geom_bond_site_symmetry_1
_geom_bond_site_symmetry_2
Tb1 O1 1_555 1_555
Cu1 N1 1_555 1_555
Cu2 O2 1_555 1_555
Cu3 O4 1_555 1_555
W1 C34 1_555 1_555
N1 C1 1_555 1_555
C1 H1 1_555 1_555
C2 C1 1_555 1_555
C3 C2 1_555 1_555
O1 Cu1 1_555 1_555
C4 C3 1_555 1_555
O2 Tb1 1_555 1_555
C5 C4 1_555 1_555
C6 C5 1_555 1_555
H2 C6 1_555 1_555
C7 C2 1_555 1_555
H3 C7 1_555 1_555
C8 C5 1_555 1_555
H4 C8 1_555 1_555
N2 Cu2 1_555 1_555
C9 N2 1_555 1_555
H5 C9 1_555 1_555
H6 C9 1_555 1_555
C10 C9 1_555 1_555
H7 C10 1_555 1_555
H8 C10 1_555 1_555
C11 C10 1_555 1_555
H9 C11 1_555 1_555
H10 C11 1_555 1_555
N3 Cu2 1_555 1_555
C12 N3 1_555 1_555
H11 C12 1_555 1_555
C13 C12 1_555 1_555
C14 C13 1_555 1_555
O3 Tb1 1_555 1_555
C15 C14 1_555 1_555
O4 Tb1 1_555 1_555
C16 C15 1_555 1_555
C17 C16 1_555 1_555
H12 C17 1_555 1_555
C18 C13 1_555 1_555
H13 C18 1_555 1_555
C19 C16 1_555 1_555
H14 C19 1_555 1_555
N4 Cu3 1_555 1_555
C20 N4 1_555 1_555
H15 C20 1_555 1_555
H16 C20 1_555 1_555
C21 C20 1_555 1_555
H17 C21 1_555 1_555
H18 C21 1_555 1_555
C22 C21 1_555 1_555
H19 C22 1_555 1_555
H20 C22 1_555 1_555
N5 Cu3 1_555 1_555
C23 N5 1_555 1_555
H21 C23 1_555 1_555
C24 C23 1_555 1_555
C25 C24 1_555 1_555
O5 Tb1 1_555 1_555
C26 C25 1_555 1_555
O6 Tb1 1_555 1_555
C27 C26 1_555 1_555
C28 C27 1_555 1_555
H22 C28 1_555 1_555
C29 C24 1_555 1_555
H23 C29 1_555 1_555
C30 C27 1_555 1_555
H24 C30 1_555 1_555
N6 Cu1 1_555 1_555
C31 N6 1_555 1_555
H25 C31 1_555 1_555
H26 C31 1_555 1_555
C32 C31 1_555 1_555
H27 C32 1_555 1_555
H28 C32 1_555 1_555
C33 N1 1_555 1_555
H29 C33 1_555 1_555
H30 C33 1_555 1_555
O7 Tb1 1_555 1_555
H31 O7 1_555 1_555
H32 O7 1_555 1_555
O8 Tb1 1_555 1_555
H33 O8 1_555 1_555
H34 O8 1_555 1_555
O9 Cu3 1_555 1_555
H35 O9 1_555 1_555
H36 O9 1_555 1_555
C34 N7 1_555 1_555
N7 Cu1 1_555 1_555
C35 W1 1_555 1_555
N8 C35 1_555 1_555
C36 W1 1_555 1_555
N9 C36 1_555 1_555
C37 W1 1_555 1_555
N10 C37 1_555 1_555
C38 W1 1_555 1_555
N11 C38 1_555 1_555
C39 W1 1_555 1_555
N12 C39 1_555 1_555
C40 W1 1_555 1_555
N13 C40 1_555 1_555
C41 W1 1_555 1_555
N14 C41 1_555 1_555
O10 Tb1 1_555 1_555
N15 C42 1_555 1_555
C42 O10 1_555 1_555
H37 C42 1_555 1_555
C43 N15 1_555 1_555
H38 C43 1_555 1_555
H39 C43 1_555 1_555
H40 C43 1_555 1_555
C44 N15 1_555 1_555
H41 C44 1_555 1_555
H42 C44 1_555 1_555
H43 C44 1_555 1_555
N16 C45 1_555 1_555
O11 Cu3 1_555 1_555
C45 O11 1_555 1_555
H44 C45 1_555 1_555
C46 N16 1_555 1_555
H45 C46 1_555 1_555
H46 C46 1_555 1_555
H47 C46 1_555 1_555
C47 N16 1_555 1_555
H48 C47 1_555 1_555
H49 C47 1_555 1_555
H50 C47 1_555 1_555
O12 Cu2 1_555 1_555
N17 C48 1_555 1_555
C48 O12 1_555 1_555
H51 C48 1_555 1_555
C49 N17 1_555 1_555
H52 C49 1_555 1_555
H53 C49 1_555 1_555
H54 C49 1_555 1_555
C50 N17 1_555 1_555
H55 C50 1_555 1_555
H56 C50 1_555 1_555
H57 C50 1_555 1_555
O13 H58 1_555 1_555
H59 O13 1_555 1_555
O14 C51 1_555 1_555
N18 C51 1_555 1_555
C51 H60 1_555 1_555
C52 N18 1_555 1_555
H61 C52 1_555 1_555
H62 C52 1_555 1_555
H63 C52 1_555 1_555
C53 N18 1_555 1_555
H64 C53 1_555 1_555
H65 C53 1_555 1_555
H66 C53 1_555 1_555
O16 C57 1_555 1_555
N20 C57 1_555 1_555
C57 H74 1_555 1_555
C58 N20 1_555 1_555
H75 C58 1_555 1_555
H76 C58 1_555 1_555
H77 C58 1_555 1_555
C59 N20 1_555 1_555
H78 C59 1_555 1_555
H79 C59 1_555 1_555
H80 C59 1_555 1_555
Cu2C N10 1_555 1_555
N10C Cu2 1_555 1_555
Cu1 O6 1_555 1_555
Cu2 O3 1_555 1_555
Cu3 O5 1_555 1_555
C3 O1 1_555 1_555
C4 O2 1_555 1_555
C6 C7 1_555 1_555
C8 N2 1_555 1_555
C11 N3 1_555 1_555
C14 O3 1_555 1_555
C15 O4 1_555 1_555
C17 C18 1_555 1_555
C19 N4 1_555 1_555
C22 N5 1_555 1_555
C25 O5 1_555 1_555
C26 O6 1_555 1_555
C28 C29 1_555 1_555
C30 N6 1_555 1_555
C32 C33 1_555 1_555

#END
