
#######################################################################
#
#                 Cambridge Crystallographic Data Centre
#                                CCDC 
#
#######################################################################
#
# If this CIF has been generated from an entry in the Cambridge 
# Structural Database, then it will include bibliographic, chemical, 
# crystal, experimental, refinement or atomic coordinate data resulting 
# from the CCDC's data processing and validation procedures.
#
#######################################################################

data_PITJUY
_symmetry_cell_setting           monoclinic
_symmetry_space_group_name_H-M   'P 21/n'
_symmetry_Int_Tables_number      14
_space_group_name_Hall           '-P 2yn'
loop_
_symmetry_equiv_pos_site_id
_symmetry_equiv_pos_as_xyz
1 x,y,z
2 1/2-x,1/2+y,1/2-z
3 -x,-y,-z
4 1/2+x,1/2-y,1/2+z
_cell_length_a                   14.8732(14)
_cell_length_b                   9.7207(9)
_cell_length_c                   20.0819(16)
_cell_angle_alpha                90
_cell_angle_beta                 90.072(14)
_cell_angle_gamma                90
_cell_volume                     2903.4
loop_
_atom_site_label
_atom_site_type_symbol
_atom_site_fract_x
_atom_site_fract_y
_atom_site_fract_z
Ba1 Ba 0.69263(1) -0.34417(1) 0.01743(1)
Cr1 Cr 0.49575(2) -0.09168(3) 0.27817(1)
Cr2 Cr 0.49250(2) -0.41105(3) -0.24533(1)
O1 O 0.57866(8) -0.21584(12) 0.23153(6)
O2 O 0.66356(9) -0.24593(14) 0.14136(6)
O3 O 0.40571(8) 0.03334(13) 0.31584(6)
O4 O 0.25899(9) 0.06506(15) 0.33406(7)
O5 O 0.90594(8) -0.47949(12) 0.18447(6)
O6 O 0.99121(8) -0.69364(13) 0.13718(6)
O7 O 0.81680(9) -0.46663(14) 0.09503(7)
O8 O 0.92272(12) -0.67580(18) 0.03859(8)
O9 O 0.40570(8) -0.28527(13) -0.20521(6)
O10 O 0.26276(9) -0.26028(15) -0.17394(7)
O11 O 0.57689(8) -0.53100(12) -0.29360(6)
O12 O 0.66322(10) -0.55215(16) -0.38358(8)
O13 O 0.58926(8) -0.29827(12) -0.20623(6)
O14 O 0.50416(8) -0.51746(12) -0.16142(6)
O15 O 0.66287(8) -0.27255(13) -0.11003(6)
O16 O 0.57642(8) -0.50635(13) -0.06357(6)
O17 O 0.72574(12) -0.06496(16) 0.00187(9)
O18 O 0.85787(12) -0.2925(2) -0.03754(10)
O19 O 0.76013(10) -0.60732(15) -0.02770(8)
O20 O 0.50912(10) -0.25344(16) 0.02085(8)
N1 N 0.49424(10) 0.00664(15) 0.18571(7)
N2 N 0.38378(9) -0.19439(16) 0.24159(7)
N3 N 0.37876(10) -0.51167(16) -0.27860(7)
N4 N 0.48837(10) -0.31044(16) -0.33686(7)
C1 C 0.40625(12) -0.02535(19) 0.15285(9)
C2 C 0.38172(12) -0.17382(18) 0.16802(9)
C3 C 0.57394(12) -0.04161(19) 0.14789(9)
C4 C 0.60828(11) -0.17921(18) 0.17399(9)
C5 C 0.30345(12) -0.1396(2) 0.27665(10)
C6 C 0.32180(12) -0.00226(19) 0.31100(9)
C7 C 0.93364(12) -0.64035(19) 0.09646(9)
C8 C 0.87862(11) -0.51911(17) 0.12663(9)
C9 C 0.37410(13) -0.49140(19) -0.35209(9)
C10 C 0.39948(14) -0.34383(19) -0.36813(10)
C11 C 0.30056(12) -0.4570(2) -0.24070(10)
C12 C 0.32197(12) -0.32333(19) -0.20410(9)
C13 C 0.56844(14) -0.35347(19) -0.37578(10)
C14 C 0.60626(12) -0.49016(19) -0.35101(9)
C15 C 0.60977(11) -0.33352(17) -0.14624(9)
C16 C 0.56019(11) -0.46397(17) -0.12010(9)
H1 H 0.4112(15) -0.011(2) 0.1054(12)
H2 H 0.3639(15) 0.037(2) 0.1703(11)
H3 H 0.4967(14) 0.096(2) 0.1926(11)
H4 H 0.3235(16) -0.194(2) 0.1521(11)
H5 H 0.4257(15) -0.236(2) 0.1478(11)
H6 H 0.3915(14) -0.275(2) 0.2508(11)
H7 H 0.5608(15) -0.045(2) 0.1018(12)
H8 H 0.6191(15) 0.023(2) 0.1542(11)
H9 H 0.3835(14) -0.598(3) -0.2723(11)
H10 H 0.4890(15) -0.227(3) -0.3323(11)
H11 H 0.2568(16) -0.130(3) 0.2477(12)
H12 H 0.2850(15) -0.201(3) 0.3103(12)
H13 H 0.4143(16) -0.552(2) -0.3708(12)
H14 H 0.3144(16) -0.510(2) -0.3680(11)
H15 H 0.3567(16) -0.280(3) -0.3500(12)
H16 H 0.4047(16) -0.324(2) -0.4138(13)
H17 H 0.2523(16) -0.442(3) -0.2671(12)
H18 H 0.2805(15) -0.521(3) -0.2115(12)
H19 H 0.5561(17) -0.362(2) -0.4210(13)
H20 H 0.6162(16) -0.286(3) -0.3715(12)
H21 H 0.7067(19) 0.005(3) 0.0155(14)
H22 H 0.753(2) -0.044(3) -0.0280(15)
H23 H 0.860(2) -0.237(3) -0.0702(16)
H24 H 0.902(2) -0.321(3) -0.0357(17)
H25 H 0.7641(17) -0.609(3) -0.0659(15)
H26 H 0.8105(18) -0.630(3) -0.0130(12)
H27 H 0.4769(18) -0.230(3) -0.0054(14)
H28 H 0.4836(18) -0.318(3) 0.0353(14)
Cr1A Cr 1.00425(2) -0.59168(3) 0.22183(1)
O5A O 0.59406(8) 0.02051(12) 0.31553(6)
O6A O 0.50879(8) -0.19364(13) 0.36282(6)
O21 O 0.66425(11) 0.19473(16) 0.04481(9)
H29 H 0.6809(18) 0.213(3) 0.0808(15)
H30 H 0.6872(18) 0.245(3) 0.0203(13)
loop_
_geom_bond_atom_site_label_1
_geom_bond_atom_site_label_2
_geom_bond_site_symmetry_1
_geom_bond_site_symmetry_2
Ba1 O2 1_555 1_555
Cr1 O1 1_555 1_555
Cr2 O9 1_555 1_555
O1 C4 1_555 1_555
O2 C4 1_555 1_555
O3 Cr1 1_555 1_555
O4 C6 1_555 1_555
O5 C8 1_555 1_555
O6 C7 1_555 1_555
O7 Ba1 1_555 1_555
O8 C7 1_555 1_555
O9 C12 1_555 1_555
O10 C12 1_555 1_555
O11 Cr2 1_555 1_555
O12 C14 1_555 1_555
O13 Cr2 1_555 1_555
O14 Cr2 1_555 1_555
O15 Ba1 1_555 1_555
O16 Ba1 1_555 1_555
O17 Ba1 1_555 1_555
O18 Ba1 1_555 1_555
O19 Ba1 1_555 1_555
O20 Ba1 1_555 1_555
N1 Cr1 1_555 1_555
N2 Cr1 1_555 1_555
N3 Cr2 1_555 1_555
N4 Cr2 1_555 1_555
C1 N1 1_555 1_555
C2 N2 1_555 1_555
C3 N1 1_555 1_555
C4 C3 1_555 1_555
C5 N2 1_555 1_555
C6 O3 1_555 1_555
C7 C8 1_555 1_555
C8 O7 1_555 1_555
C9 N3 1_555 1_555
C10 N4 1_555 1_555
C11 N3 1_555 1_555
C12 C11 1_555 1_555
C13 N4 1_555 1_555
C14 O11 1_555 1_555
C15 O13 1_555 1_555
C16 O14 1_555 1_555
O21 H29 1_555 1_555
H1 C1 1_555 1_555
H2 C1 1_555 1_555
H3 N1 1_555 1_555
H4 C2 1_555 1_555
H5 C2 1_555 1_555
H6 N2 1_555 1_555
H7 C3 1_555 1_555
H8 C3 1_555 1_555
H9 N3 1_555 1_555
H10 N4 1_555 1_555
H11 C5 1_555 1_555
H12 C5 1_555 1_555
H13 C9 1_555 1_555
H14 C9 1_555 1_555
H15 C10 1_555 1_555
H16 C10 1_555 1_555
H17 C11 1_555 1_555
H18 C11 1_555 1_555
H19 C13 1_555 1_555
H20 C13 1_555 1_555
H21 O17 1_555 1_555
H22 O17 1_555 1_555
H23 O18 1_555 1_555
H24 O18 1_555 1_555
H25 O19 1_555 1_555
H26 O19 1_555 1_555
H27 O20 1_555 1_555
H28 O20 1_555 1_555
H30 O21 1_555 1_555
Cr1A O5 1_555 1_555
O5A Cr1 1_555 1_555
O6A Cr1 1_555 1_555
O6 Cr1A 1_555 1_555
O15 C15 1_555 1_555
O16 C16 1_555 1_555
C1 C2 1_555 1_555
C5 C6 1_555 1_555
C9 C10 1_555 1_555
C13 C14 1_555 1_555
C15 C16 1_555 1_555

#END
