
#######################################################################
#
#                 Cambridge Crystallographic Data Centre
#                                CCDC 
#
#######################################################################
#
# If this CIF has been generated from an entry in the Cambridge 
# Structural Database, then it will include bibliographic, chemical, 
# crystal, experimental, refinement or atomic coordinate data resulting 
# from the CCDC's data processing and validation procedures.
#
#######################################################################

data_PITMUB
_symmetry_cell_setting           triclinic
_symmetry_space_group_name_H-M   'P -1'
_symmetry_Int_Tables_number      2
_space_group_name_Hall           '-P 1'
loop_
_symmetry_equiv_pos_site_id
_symmetry_equiv_pos_as_xyz
1 x,y,z
2 -x,-y,-z
_cell_length_a                   5.8010(12)
_cell_length_b                   8.7440(17)
_cell_length_c                   10.714(2)
_cell_angle_alpha                87.02(3)
_cell_angle_beta                 79.45(3)
_cell_angle_gamma                85.27(3)
_cell_volume                     532.072
loop_
_atom_site_label
_atom_site_type_symbol
_atom_site_fract_x
_atom_site_fract_y
_atom_site_fract_z
H1 H 0.715(10) -0.250(7) 0.144(5)
Cu1 Cu 0.0000 0.0000 0.0000
O1 O -0.1318(5) 0.1394(3) 0.1377(3)
O2 O 0.7042(6) -0.1898(5) 0.0747(4)
O3 O -0.5060(7) 0.4335(5) 0.3614(4)
O4 O -0.2959(8) 0.4500(4) 0.1725(4)
O5 O 0.0755(6) 0.3447(4) 0.6534(3)
O6 O 0.3453(7) 0.1629(4) 0.6120(3)
N1 N 0.1936(6) -0.1194(4) 0.1141(3)
N2 N -0.3350(9) 0.3959(5) 0.2807(5)
N3 N 0.1771(8) 0.2433(5) 0.5848(4)
C1 C 0.2260(8) -0.0736(6) 0.2208(5)
H2 H 0.3275 -0.1367 0.2622
C2 C 0.1244(8) 0.0641(5) 0.2845(4)
C3 C -0.0570(8) 0.1607(6) 0.2393(5)
C4 C -0.1540(8) 0.2847(6) 0.3210(4)
C5 C -0.0864(8) 0.3076(5) 0.4337(4)
H3 H -0.1631 0.3850 0.4857
C6 C 0.0966(9) 0.2154(5) 0.4701(4)
C7 C 0.1980(8) 0.0933(6) 0.3964(4)
H4 H 0.3179 0.0296 0.4227
C8 C 0.3129(8) -0.2699(5) 0.0769(4)
H5 H 0.2208 -0.3203 0.0265
H6 H 0.3240 -0.3341 0.1525
C9 C 0.5559(8) -0.2526(6) 0.0013(4)
H7 H 0.6250 -0.3522 -0.0277
H8 H 0.5448 -0.1860 -0.0730
H1A H -0.715(10) 0.250(7) -0.144(5)
H1_2 H -0.285(10) -0.250(7) 0.144(5)
H1A_2 H 0.285(10) 0.250(7) -0.144(5)
Cu1_2 Cu 1.0000 0.0000 0.0000
Cu1_3 Cu -1.0000 0.0000 0.0000
O1A O 0.1318(5) -0.1394(3) -0.1377(3)
O2A O -0.7042(6) 0.1898(5) -0.0747(4)
O2_2 O -0.2958(6) -0.1898(5) 0.0747(4)
O2A_2 O 0.2958(6) 0.1898(5) -0.0747(4)
O3A O 0.5060(7) -0.4335(5) -0.3614(4)
O4A O 0.2959(8) -0.4500(4) -0.1725(4)
O5A O -0.0755(6) -0.3447(4) -0.6534(3)
O6A O -0.3453(7) -0.1629(4) -0.6120(3)
N1A N -0.1936(6) 0.1194(4) -0.1141(3)
N2A N 0.3350(9) -0.3959(5) -0.2807(5)
N3A N -0.1771(8) -0.2433(5) -0.5848(4)
C1A C -0.2260(8) 0.0736(6) -0.2208(5)
H2A H -0.3275 0.1367 -0.2622
C2A C -0.1244(8) -0.0641(5) -0.2845(4)
C3A C 0.0570(8) -0.1607(6) -0.2393(5)
C4A C 0.1540(8) -0.2847(6) -0.3210(4)
C5A C 0.0864(8) -0.3076(5) -0.4337(4)
H3A H 0.1631 -0.3850 -0.4857
C6A C -0.0966(9) -0.2154(5) -0.4701(4)
C7A C -0.1980(8) -0.0933(6) -0.3964(4)
H4A H -0.3179 -0.0296 -0.4227
C8A C -0.3129(8) 0.2699(5) -0.0769(4)
H5A H -0.2208 0.3203 -0.0265
H6A H -0.3240 0.3341 -0.1525
C9A C -0.5559(8) 0.2526(6) -0.0013(4)
H7A H -0.6250 0.3522 0.0277
H8A H -0.5448 0.1860 0.0730
loop_
_geom_bond_atom_site_label_1
_geom_bond_atom_site_label_2
_geom_bond_site_symmetry_1
_geom_bond_site_symmetry_2
H1 O2 1_555 1_555
Cu1 O1 1_555 1_555
O1 C3 1_555 1_555
O2 C9 1_555 1_555
O3 N2 1_555 1_555
O4 N2 1_555 1_555
O5 N3 1_555 1_555
O6 N3 1_555 1_555
N1 Cu1 1_555 1_555
N2 C4 1_555 1_555
N3 C6 1_555 1_555
C1 N1 1_555 1_555
H2 C1 1_555 1_555
C2 C1 1_555 1_555
C3 C2 1_555 1_555
C4 C3 1_555 1_555
C5 C4 1_555 1_555
H3 C5 1_555 1_555
C6 C5 1_555 1_555
C7 C2 1_555 1_555
H4 C7 1_555 1_555
C8 N1 1_555 1_555
H5 C8 1_555 1_555
H6 C8 1_555 1_555
C9 C8 1_555 1_555
H7 C9 1_555 1_555
H8 C9 1_555 1_555
H1A O2A 1_555 1_555
H1_2 O2_2 1_555 1_555
H1A_2 O2A_2 1_555 1_555
Cu1_2 O2 1_555 1_555
Cu1_3 O2A 1_555 1_555
O1A Cu1 1_555 1_555
O2A C9A 1_555 1_555
O2_2 Cu1 1_555 1_555
O2A_2 Cu1 1_555 1_555
O3A N2A 1_555 1_555
O4A N2A 1_555 1_555
O5A N3A 1_555 1_555
O6A N3A 1_555 1_555
N1A Cu1 1_555 1_555
N2A C4A 1_555 1_555
N3A C6A 1_555 1_555
C1A N1A 1_555 1_555
H2A C1A 1_555 1_555
C2A C1A 1_555 1_555
C3A O1A 1_555 1_555
C4A C3A 1_555 1_555
C5A C4A 1_555 1_555
H3A C5A 1_555 1_555
C6A C5A 1_555 1_555
C7A C2A 1_555 1_555
H4A C7A 1_555 1_555
C8A N1A 1_555 1_555
H5A C8A 1_555 1_555
H6A C8A 1_555 1_555
C9A C8A 1_555 1_555
H7A C9A 1_555 1_555
H8A C9A 1_555 1_555
C6 C7 1_555 1_555
C2A C3A 1_555 1_555
C6A C7A 1_555 1_555

#END
