
#######################################################################
#
#                 Cambridge Crystallographic Data Centre
#                                CCDC 
#
#######################################################################
#
# If this CIF has been generated from an entry in the Cambridge 
# Structural Database, then it will include bibliographic, chemical, 
# crystal, experimental, refinement or atomic coordinate data resulting 
# from the CCDC's data processing and validation procedures.
#
#######################################################################

data_PITMAI
_symmetry_cell_setting           triclinic
_symmetry_space_group_name_H-M   'P -1'
_symmetry_Int_Tables_number      2
_space_group_name_Hall           '-P 1'
loop_
_symmetry_equiv_pos_site_id
_symmetry_equiv_pos_as_xyz
1 x,y,z
2 -x,-y,-z
_cell_length_a                   9.3925(12)
_cell_length_b                   10.0156(16)
_cell_length_c                   12.6690(16)
_cell_angle_alpha                84.282(2)
_cell_angle_beta                 80.105(2)
_cell_angle_gamma                71.028(2)
_cell_volume                     1109.06
loop_
_atom_site_label
_atom_site_type_symbol
_atom_site_fract_x
_atom_site_fract_y
_atom_site_fract_z
C1 C 1.01976(19) 0.56781(18) 0.18665(13)
C2 C 1.03988(19) 0.41973(18) 0.23180(13)
C3 C 1.02262(19) 0.39183(18) 0.34212(13)
H1 H 1.0050 0.4640 0.3882
C4 C 1.03178(19) 0.25480(18) 0.38379(13)
C5 C 1.0135(2) 0.22527(19) 0.50306(13)
C6 C 1.05861(19) 0.14582(18) 0.31536(13)
H2 H 1.0658 0.0548 0.3434
C7 C 1.07470(19) 0.17389(18) 0.20436(13)
C8 C 1.08649(19) 0.06256(18) 0.12869(13)
C9 C 1.06752(19) 0.31047(18) 0.16285(13)
H3 H 1.0812 0.3286 0.0890
C10 C 0.7572(2) 0.98865(19) 0.26849(14)
H4 H 0.8333 1.0123 0.2931
C11 C 0.6407(2) 0.8950(2) 0.18038(15)
H5 H 0.6230 0.8406 0.1318
C12 C 0.5310(2) 0.9816(2) 0.25042(15)
H6 H 0.4266 0.9972 0.2586
C13 C 0.5405(2) 1.1442(2) 0.38443(14)
C14 C 0.4050(2) 1.2491(2) 0.38758(15)
H7 H 0.3395 1.2636 0.3372
C15 C 0.3757(2) 1.3336(2) 0.47684(15)
H8 H 0.2876 1.4095 0.4916
C16 C 0.4888(2) 1.2934(2) 0.53917(14)
C17 C 0.5019(2) 1.35349(19) 0.63516(14)
C18 C 0.6182(2) 1.3164(2) 0.69474(15)
H9 H 0.7094 1.2451 0.6763
C19 C 0.5879(2) 1.3958(2) 0.78680(14)
H10 H 0.6558 1.3833 0.8351
C20 C 0.4470(2) 1.4927(2) 0.79574(14)
C21 C 0.4331(2) 1.7027(2) 0.89406(15)
H11 H 0.5236 1.7179 0.8618
C22 C 0.2438(2) 1.61270(19) 0.93945(13)
H12 H 0.1840 1.5540 0.9422
C23 C 0.3266(2) 1.7815(2) 0.96915(15)
H13 H 0.3321 1.8616 0.9975
Co1 Co 0.99717(3) 0.81183(2) 0.099705(16)
N1 N 0.78153(18) 0.90024(16) 0.19240(11)
N2 N 0.60629(18) 1.04100(16) 0.30656(12)
N3 N 0.37993(17) 1.59497(16) 0.87518(12)
N4 N 0.20821(17) 1.72478(16) 0.99733(11)
O1 O 0.96829(14) 0.60443(12) 0.09888(9)
O2 O 1.05598(14) 0.65440(12) 0.23510(9)
O3 O 0.94713(17) 0.34368(14) 0.55588(10)
H14 H 0.9506 0.3260 0.6202
O4 O 1.05241(17) 0.10893(14) 0.54509(10)
O5 O 1.07656(15) -0.05426(13) 0.16988(9)
O6 O 1.10431(14) 0.09325(13) 0.02936(9)
S1 S 0.63510(5) 1.14586(5) 0.48978(4)
S2 S 0.35100(5) 1.49147(5) 0.69174(4)
Co1_2 Co -0.00283(3) 1.81183(2) 1.099705(16)
Co1_3 Co 0.99717(3) -0.18817(2) 0.099705(16)
Co1A Co 1.00283(3) 0.18817(2) -0.099705(16)
N4_2 N 1.20821(17) 0.72478(16) -0.00267(11)
O5_2 O 1.07656(15) 0.94574(13) 0.16988(9)
O6A O 0.89569(14) 0.90675(13) -0.02936(9)
loop_
_geom_bond_atom_site_label_1
_geom_bond_atom_site_label_2
_geom_bond_site_symmetry_1
_geom_bond_site_symmetry_2
C1 C2 1_555 1_555
C2 C3 1_555 1_555
C3 H1 1_555 1_555
C4 C3 1_555 1_555
C5 C4 1_555 1_555
C6 C4 1_555 1_555
H2 C6 1_555 1_555
C7 C6 1_555 1_555
C8 C7 1_555 1_555
C9 C2 1_555 1_555
H3 C9 1_555 1_555
C10 H4 1_555 1_555
C11 H5 1_555 1_555
C12 C11 1_555 1_555
H6 C12 1_555 1_555
C13 C14 1_555 1_555
C14 H7 1_555 1_555
C15 C14 1_555 1_555
H8 C15 1_555 1_555
C16 C15 1_555 1_555
C17 C16 1_555 1_555
C18 C17 1_555 1_555
H9 C18 1_555 1_555
C19 C18 1_555 1_555
H10 C19 1_555 1_555
C20 C19 1_555 1_555
C21 H11 1_555 1_555
C22 H12 1_555 1_555
C23 C21 1_555 1_555
H13 C23 1_555 1_555
Co1 N1 1_555 1_555
N1 C10 1_555 1_555
N2 C10 1_555 1_555
N3 C20 1_555 1_555
N4 C22 1_555 1_555
O1 C1 1_555 1_555
O2 C1 1_555 1_555
O3 C5 1_555 1_555
H14 O3 1_555 1_555
O4 C5 1_555 1_555
O5 C8 1_555 1_555
O6 C8 1_555 1_555
S1 C13 1_555 1_555
S2 C17 1_555 1_555
Co1_2 N4 1_555 1_555
Co1_3 O5 1_555 1_555
Co1A O6 1_555 1_555
N4_2 Co1 1_555 1_555
O5_2 Co1 1_555 1_555
O6A Co1 1_555 1_555
C7 C9 1_555 1_555
C11 N1 1_555 1_555
C12 N2 1_555 1_555
C13 N2 1_555 1_555
C16 S1 1_555 1_555
C20 S2 1_555 1_555
C21 N3 1_555 1_555
C22 N3 1_555 1_555
C23 N4 1_555 1_555
Co1 O1 1_555 1_555
Co1 O2 1_555 1_555

#END
