
#######################################################################
#
#                 Cambridge Crystallographic Data Centre
#                                CCDC 
#
#######################################################################
#
# If this CIF has been generated from an entry in the Cambridge 
# Structural Database, then it will include bibliographic, chemical, 
# crystal, experimental, refinement or atomic coordinate data resulting 
# from the CCDC's data processing and validation procedures.
#
#######################################################################

data_PITMUC
_symmetry_cell_setting           triclinic
_symmetry_space_group_name_H-M   'P -1'
_symmetry_Int_Tables_number      2
_space_group_name_Hall           '-P 1'
loop_
_symmetry_equiv_pos_site_id
_symmetry_equiv_pos_as_xyz
1 x,y,z
2 -x,-y,-z
_cell_length_a                   9.5686(8)
_cell_length_b                   10.3542(8)
_cell_length_c                   11.0911(9)
_cell_angle_alpha                80.1480(10)
_cell_angle_beta                 83.5200(10)
_cell_angle_gamma                72.5150(10)
_cell_volume                     1030.42
loop_
_atom_site_label
_atom_site_type_symbol
_atom_site_fract_x
_atom_site_fract_y
_atom_site_fract_z
Cd1 Cd 0.998701(17) -0.200768(14) 0.118521(13)
S1 S 0.63955(7) 0.18419(8) 0.47418(7)
S2 S 0.35002(7) 0.45558(8) 0.71559(7)
O1 O 1.0753(2) -0.06627(17) 0.22108(16)
O2 O 1.1123(2) 0.07911(17) 0.05674(15)
O3 O 0.9736(2) 0.57918(16) 0.11722(15)
O4 O 1.0312(2) 0.61684(16) 0.29191(16)
N1 N 0.7658(2) -0.0993(2) 0.20032(18)
N2 N 0.5952(2) 0.0369(2) 0.30866(18)
N3 N 0.3853(2) 0.6084(2) 0.88025(17)
N4 N 0.2158(2) 0.7228(2) 1.00494(18)
C1 C 1.0863(2) 0.0488(2) 0.1689(2)
C2 C 1.0639(2) 0.1566(2) 0.25087(19)
C3 C 1.0556(2) 0.2925(2) 0.20241(19)
H1 H 1.0714 0.3164 0.1184
C4 C 1.0238(2) 0.3919(2) 0.2790(2)
C5 C 1.0004(2) 0.3558(2) 0.4052(2)
H2 H 0.9781 0.4225 0.4565
C6 C 1.0100(3) 0.2213(2) 0.4547(2)
H3 H 0.9953 0.1974 0.5389
C7 C 1.0418(3) 0.1226(2) 0.3774(2)
H4 H 1.0485 0.0323 0.4105
C8 C 1.0088(2) 0.5395(2) 0.2258(2)
C9 C 0.7406(3) -0.0172(3) 0.2830(2)
H5 H 0.8138 0.0016 0.3195
C10 C 0.6303(3) -0.0979(3) 0.1706(2)
H6 H 0.6141 -0.1468 0.1132
C11 C 0.5234(3) -0.0157(3) 0.2364(3)
H7 H 0.4225 0.0018 0.2336
C12 C 0.5299(3) 0.1312(2) 0.3910(2)
C13 C 0.3865(3) 0.1899(3) 0.4162(2)
H8 H 0.3119 0.1736 0.3796
C14 C 0.3614(3) 0.2791(3) 0.5047(3)
H9 H 0.2680 0.3270 0.5328
C15 C 0.4870(3) 0.2883(2) 0.5449(2)
C16 C 0.5050(3) 0.3688(2) 0.6339(2)
C17 C 0.6274(3) 0.3893(3) 0.6679(2)
H10 H 0.7212 0.3506 0.6343
C18 C 0.5987(3) 0.4755(3) 0.7600(2)
H11 H 0.6708 0.4996 0.7930
C19 C 0.4543(3) 0.5184(2) 0.7938(2)
C20 C 0.2504(3) 0.6216(2) 0.9398(2)
H12 H 0.1909 0.5666 0.9350
C21 C 0.4380(3) 0.7073(2) 0.9122(2)
H13 H 0.5282 0.7228 0.8865
C22 C 0.3328(3) 0.7770(3) 0.9879(2)
H14 H 0.3385 0.8503 1.0232
Cd1_2 Cd -0.001299(17) 0.799232(14) 1.118521(13)
Cd1_3 Cd 0.998701(17) 0.799232(14) 0.118521(13)
Cd1A Cd 1.001299(17) 0.200768(14) -0.118521(13)
O2A O 0.8877(2) -0.07911(17) -0.05674(15)
O3_2 O 0.9736(2) -0.42082(16) 0.11722(15)
O4_2 O 1.0312(2) -0.38316(16) 0.29191(16)
N4_2 N 1.2158(2) -0.2772(2) 0.00494(18)
loop_
_geom_bond_atom_site_label_1
_geom_bond_atom_site_label_2
_geom_bond_site_symmetry_1
_geom_bond_site_symmetry_2
Cd1 O1 1_555 1_555
S1 C12 1_555 1_555
S2 C16 1_555 1_555
O1 C1 1_555 1_555
O2 C1 1_555 1_555
O3 C8 1_555 1_555
O4 C8 1_555 1_555
N1 Cd1 1_555 1_555
N2 C9 1_555 1_555
N3 C19 1_555 1_555
N4 C20 1_555 1_555
C1 C2 1_555 1_555
C2 C3 1_555 1_555
C3 H1 1_555 1_555
C4 C3 1_555 1_555
C5 C4 1_555 1_555
H2 C5 1_555 1_555
C6 C5 1_555 1_555
H3 C6 1_555 1_555
C7 C2 1_555 1_555
H4 C7 1_555 1_555
C8 C4 1_555 1_555
C9 N1 1_555 1_555
H5 C9 1_555 1_555
C10 N1 1_555 1_555
H6 C10 1_555 1_555
C11 N2 1_555 1_555
H7 C11 1_555 1_555
C12 N2 1_555 1_555
C13 C12 1_555 1_555
H8 C13 1_555 1_555
C14 C13 1_555 1_555
H9 C14 1_555 1_555
C15 S1 1_555 1_555
C16 C15 1_555 1_555
C17 C16 1_555 1_555
H10 C17 1_555 1_555
C18 C17 1_555 1_555
H11 C18 1_555 1_555
C19 S2 1_555 1_555
C20 N3 1_555 1_555
H12 C20 1_555 1_555
C21 N3 1_555 1_555
H13 C21 1_555 1_555
C22 N4 1_555 1_555
H14 C22 1_555 1_555
Cd1_2 N4 1_555 1_555
Cd1_3 O3 1_555 1_555
Cd1A O2 1_555 1_555
O2A Cd1 1_555 1_555
O3_2 Cd1 1_555 1_555
O4_2 Cd1 1_555 1_555
N4_2 Cd1 1_555 1_555
O4 Cd1_3 1_555 1_555
C6 C7 1_555 1_555
C10 C11 1_555 1_555
C14 C15 1_555 1_555
C18 C19 1_555 1_555
C21 C22 1_555 1_555

#END
