
#######################################################################
#
#                 Cambridge Crystallographic Data Centre
#                                CCDC 
#
#######################################################################
#
# If this CIF has been generated from an entry in the Cambridge 
# Structural Database, then it will include bibliographic, chemical, 
# crystal, experimental, refinement or atomic coordinate data resulting 
# from the CCDC's data processing and validation procedures.
#
#######################################################################

data_PITMIQ
_symmetry_cell_setting           monoclinic
_symmetry_space_group_name_H-M   'P 21/c'
_symmetry_Int_Tables_number      14
_space_group_name_Hall           '-P 2ybc'
loop_
_symmetry_equiv_pos_site_id
_symmetry_equiv_pos_as_xyz
1 x,y,z
2 -x,1/2+y,1/2-z
3 -x,-y,-z
4 x,1/2-y,1/2+z
_cell_length_a                   17.8224(12)
_cell_length_b                   27.2700(19)
_cell_length_c                   18.3256(12)
_cell_angle_alpha                90
_cell_angle_beta                 110.5320(10)
_cell_angle_gamma                90
_cell_volume                     8340.77
loop_
_atom_site_label
_atom_site_type_symbol
_atom_site_fract_x
_atom_site_fract_y
_atom_site_fract_z
C1 C 0.6885(2) 0.41243(15) 0.0740(2)
H1 H 0.7062 0.3816 0.0653
C2 C 0.6499(2) 0.44528(16) 0.0170(2)
H2 H 0.6366 0.4415 -0.0365
C3 C 0.6659(2) 0.47541(16) 0.1316(2)
H3 H 0.6656 0.4970 0.1709
C4 C 0.5913(3) 0.52838(16) 0.0205(2)
C5 C 0.5775(2) 0.54326(15) -0.0528(2)
H4 H 0.5955 0.5276 -0.0887
C6 C 0.5301(3) 0.58753(15) -0.0669(2)
H5 H 0.5136 0.6041 -0.1143
C7 C 0.5118(2) 0.60280(15) -0.0049(2)
C8 C 0.4663(3) 0.64544(16) 0.0026(2)
C9 C 0.4507(2) 0.66358(16) 0.0653(2)
H6 H 0.4680 0.6481 0.1137
C10 C 0.4057(2) 0.70813(15) 0.0508(2)
H7 H 0.3937 0.7260 0.0885
C11 C 0.3834(3) 0.72045(16) -0.0234(2)
C12 C 0.3158(3) 0.77465(15) -0.1325(2)
H8 H 0.3261 0.7557 -0.1701
C13 C 0.3085(3) 0.79700(15) -0.0233(3)
H9 H 0.3140 0.7977 0.0291
C14 C 0.2699(2) 0.83065(15) -0.0785(2)
H10 H 0.2429 0.8581 -0.0704
C15 C -0.1803(2) 0.75932(15) -0.1421(2)
H11 H -0.1681 0.7404 -0.1787
C16 C -0.2250(2) 0.81587(17) -0.0907(2)
H12 H -0.2494 0.8450 -0.0846
C17 C -0.1928(3) 0.78394(16) -0.0320(3)
H13 H -0.1918 0.7858 0.0190
C18 C -0.1185(2) 0.70613(16) -0.0299(2)
C19 C -0.1136(3) 0.68679(14) 0.0393(2)
H14 H -0.1427 0.6985 0.0690
C20 C -0.0605(2) 0.64745(16) 0.0617(2)
H15 H -0.0471 0.6320 0.1099
C21 C -0.0300(2) 0.63379(15) 0.0060(2)
C22 C 0.0210(3) 0.59311(15) 0.0043(2)
C23 C 0.0560(2) 0.58161(16) -0.0471(2)
H16 H 0.0472 0.5995 -0.0925
C24 C 0.1074(3) 0.54034(16) -0.0277(2)
H17 H 0.1377 0.5296 -0.0569
C25 C 0.1070(2) 0.51866(16) 0.0373(2)
C26 C 0.1608(2) 0.46218(15) 0.1446(2)
H18 H 0.1445 0.4790 0.1806
C27 C 0.1807(3) 0.44358(15) 0.0388(2)
H19 H 0.1814 0.4448 -0.0117
C28 C 0.2116(2) 0.40777(17) 0.0924(2)
H20 H 0.2371 0.3796 0.0846
C29 C 0.1572(2) 0.77483(14) -0.3597(2)
H21 H 0.1387 0.7591 -0.3243
C30 C 0.2204(2) 0.82427(15) -0.4076(2)
H22 H 0.2529 0.8497 -0.4127
C31 C 0.1866(2) 0.78864(15) -0.4630(2)
H23 H 0.1911 0.7858 -0.5118
C32 C 0.1010(2) 0.71778(15) -0.4664(2)
C33 C 0.0791(3) 0.70394(16) -0.5429(2)
H24 H 0.0949 0.7196 -0.5802
C34 C 0.0284(3) 0.66193(16) -0.5566(3)
H25 H 0.0024 0.6500 -0.6067
C35 C 0.0197(2) 0.64033(15) -0.4940(2)
C36 C 0.6688(2) 0.76289(15) 0.6327(2)
H26 H 0.6620 0.7446 0.6728
C37 C 0.6972(3) 0.81835(17) 0.5716(3)
H27 H 0.7175 0.8480 0.5615
C38 C 0.6596(3) 0.78732(16) 0.5181(3)
H28 H 0.6474 0.7906 0.4647
C39 C 0.3167(2) 0.45862(16) 0.3700(2)
H29 H 0.3329 0.4741 0.3327
C40 C 0.2655(3) 0.40759(17) 0.4243(2)
H30 H 0.2367 0.3809 0.4321
C41 C 0.3047(3) 0.44009(16) 0.4787(3)
H31 H 0.3103 0.4395 0.5311
C42 C 0.3830(3) 0.51670(17) 0.4774(2)
C43 C 0.4076(3) 0.52767(15) 0.5526(2)
H32 H 0.3934 0.5113 0.5903
C44 C 0.4587(3) 0.56815(16) 0.5655(2)
H33 H 0.4852 0.5804 0.6153
C45 C 0.4674(2) 0.58802(16) 0.5036(2)
C46 C 0.5138(3) 0.63237(16) 0.4955(2)
C47 C 0.5265(3) 0.64951(15) 0.4329(2)
H34 H 0.5022 0.6366 0.3831
C48 C 0.5792(3) 0.68826(17) 0.4491(2)
H35 H 0.6002 0.7016 0.4136
C49 C 0.5967(3) 0.70436(15) 0.5221(2)
C50 C -0.1767(2) 0.47249(15) -0.6386(2)
H36 H -0.1607 0.4899 -0.6743
C51 C -0.2314(2) 0.41873(15) -0.5894(2)
H37 H -0.2598 0.3912 -0.5840
C52 C -0.1948(3) 0.45159(15) -0.5317(2)
H38 H -0.1946 0.4511 -0.4809
C53 C -0.1093(2) 0.52592(15) -0.5245(2)
C54 C -0.0859(2) 0.53487(15) -0.4491(2)
H39 H -0.0989 0.5160 -0.4130
C55 C -0.0364(3) 0.57903(15) -0.4310(2)
H40 H -0.0147 0.5918 -0.3808
C56 C -0.0247(2) 0.59968(15) -0.4924(2)
C57 C 0.6567(3) 0.30239(19) 0.2830(3)
C58 C 0.5734(3) 0.28811(19) 0.2703(2)
C59 C 0.5497(3) 0.23890(16) 0.2546(2)
H41 H 0.5877 0.2148 0.2576
C60 C 0.4710(3) 0.22654(17) 0.2349(2)
H42 H 0.4561 0.1939 0.2248
C61 C 0.4156(3) 0.25930(15) 0.2299(2)
H43 H 0.3626 0.2492 0.2165
C62 C 0.4341(3) 0.30967(16) 0.2444(2)
C63 C 0.5132(2) 0.32340(15) 0.2641(2)
H44 H 0.5272 0.3563 0.2734
C64 C 0.3724(3) 0.34526(18) 0.2432(2)
C65 C 0.1246(3) 0.90995(18) -0.2048(3)
C66 C 0.0498(3) 0.94086(18) -0.2262(2)
C67 C 0.0544(3) 0.99197(17) -0.2292(2)
H45 H 0.1043 1.0071 -0.2126
C68 C -0.0129(3) 1.01995(16) -0.2561(2)
H46 H -0.0088 1.0539 -0.2564
C69 C -0.0882(3) 0.99748(14) -0.2833(2)
H47 H -0.1346 1.0163 -0.3018
C70 C -0.0930(3) 0.94698(15) -0.2825(2)
C71 C -0.0243(3) 0.91880(17) -0.2547(2)
H48 H -0.0282 0.8848 -0.2553
C72 C -0.1741(3) 0.92328(17) -0.3071(3)
C73 C 0.8438(3) 0.32936(16) 0.2063(2)
C74 C 0.9139(3) 0.29836(15) 0.2241(2)
C75 C 0.9897(2) 0.31622(15) 0.2521(2)
H49 H 0.9985 0.3499 0.2559
C76 C 1.0538(3) 0.28410(18) 0.2750(2)
C77 C 1.0402(3) 0.23354(16) 0.2702(2)
H50 H 1.0833 0.2119 0.2859
C78 C 0.9627(3) 0.21572(18) 0.2422(2)
H51 H 0.9538 0.1821 0.2395
C79 C 0.8996(3) 0.24710(16) 0.2187(2)
H52 H 0.8474 0.2351 0.1992
C80 C 1.1371(3) 0.30385(17) 0.3009(3)
C81 C 0.3425(3) 0.91545(18) -0.2677(2)
C82 C 0.4213(3) 0.93918(15) -0.2609(2)
C83 C 0.4353(3) 0.99028(15) -0.2615(2)
H53 H 0.3924 1.0119 -0.2721
C84 C 0.5094(3) 1.00812(16) -0.2472(2)
H54 H 0.5172 1.0419 -0.2459
C85 C 0.5764(3) 0.97627(19) -0.2339(2)
H55 H 0.6276 0.9888 -0.2236
C86 C 0.5631(3) 0.92609(19) -0.2368(2)
C87 C 0.4873(3) 0.91031(16) -0.2510(2)
H56 H 0.4791 0.8766 -0.2543
C88 C 0.6291(3) 0.89072(17) -0.2329(3)
N1 N 0.69746(19) 0.43091(12) 0.14454(19)
N2 N 0.6345(2) 0.48565(13) 0.0561(2)
N3 N 0.3375(2) 0.76217(12) -0.0596(2)
N4 N 0.2771(2) 0.81762(12) -0.14782(19)
N5 N -0.21893(19) 0.80198(12) -0.15907(19)
N6 N -0.1606(2) 0.74636(13) -0.0671(2)
N7 N 0.1996(2) 0.41954(13) 0.15850(18)
N8 N 0.1487(2) 0.47726(13) 0.07403(19)
N9 N 0.1990(2) 0.81655(12) -0.34504(18)
N10 N 0.1454(2) 0.75853(12) -0.43145(19)
N11 N -0.21991(19) 0.43272(12) -0.65668(19)
N12 N -0.1575(2) 0.48614(12) -0.56405(19)
N13 N 0.7039(2) 0.80319(13) 0.64456(19)
N14 N 0.6410(2) 0.74731(14) 0.5575(2)
N15 N 0.2742(2) 0.41936(13) 0.35633(19)
N16 N 0.3352(2) 0.47492(14) 0.4419(2)
O1 O 0.85388(14) 0.36984(9) 0.24386(14)
O2 O 0.77810(17) 0.32125(10) 0.15312(15)
O3 O 1.19057(17) 0.28156(11) 0.35582(16)
O4 O 1.14502(16) 0.34146(11) 0.26939(16)
O5 O 0.70981(18) 0.27128(11) 0.28314(16)
O6 O 0.67277(17) 0.34647(12) 0.29316(16)
O7 O 0.39471(16) 0.38522(10) 0.27616(17)
O8 O 0.30238(16) 0.33104(10) 0.21254(16)
O9 O 0.18179(18) 0.92177(11) -0.15221(17)
O10 O 0.11543(15) 0.86929(10) -0.24392(14)
O11 O -0.23598(19) 0.95135(11) -0.33019(16)
O12 O -0.17146(15) 0.87876(10) -0.29904(15)
O13 O 0.34522(15) 0.87032(10) -0.25765(14)
O14 O 0.28613(18) 0.94049(11) -0.27798(16)
O15 O 0.69363(17) 0.89933(10) -0.19202(16)
O16 O 0.61047(15) 0.85198(10) -0.27300(15)
S1 S -0.06417(7) 0.67197(4) -0.07255(6)
S2 S 0.04678(7) 0.54981(4) 0.07707(6)
S3 S 0.54864(7) 0.56318(4) 0.07169(6)
S4 S 0.41989(7) 0.68232(4) -0.07702(6)
S5 S -0.07598(7) 0.56588(4) -0.57567(6)
S6 S 0.06118(7) 0.67873(4) -0.41854(6)
S7 S 0.55607(7) 0.66844(4) 0.57396(6)
S8 S 0.41625(7) 0.55417(4) 0.42309(6)
Zn1 Zn 0.74179(3) 0.391500(17) 0.24472(2)
Zn2 Zn 0.23694(3) 0.857400(17) -0.24572(3)
Zn3 Zn -0.25425(3) 0.843212(18) -0.25707(2)
Zn4 Zn 0.23477(3) 0.378303(18) 0.25753(3)
N11_2 N 0.78009(19) 0.43272(12) 0.34332(19)
N13_2 N -0.2961(2) 0.80319(13) -0.35544(19)
O4_2 O 0.14502(16) 0.34146(11) 0.26939(16)
O15_2 O -0.30637(17) 0.89933(10) -0.19202(16)
Zn1_2 Zn -0.25821(3) 0.391500(17) -0.75528(2)
Zn3_2 Zn 0.74575(3) 0.843212(18) -0.25707(2)
Zn3_3 Zn 0.74575(3) 0.843212(18) 0.74293(2)
Zn4_2 Zn 1.23477(3) 0.378303(18) 0.25753(3)
loop_
_geom_bond_atom_site_label_1
_geom_bond_atom_site_label_2
_geom_bond_site_symmetry_1
_geom_bond_site_symmetry_2
C1 H1 1_555 1_555
C2 C1 1_555 1_555
H2 C2 1_555 1_555
C3 H3 1_555 1_555
C4 C5 1_555 1_555
C5 H4 1_555 1_555
C6 C5 1_555 1_555
H5 C6 1_555 1_555
C7 C6 1_555 1_555
C8 C7 1_555 1_555
C9 C8 1_555 1_555
H6 C9 1_555 1_555
C10 C9 1_555 1_555
H7 C10 1_555 1_555
C11 C10 1_555 1_555
C12 H8 1_555 1_555
C13 H9 1_555 1_555
C14 C13 1_555 1_555
H10 C14 1_555 1_555
C15 H11 1_555 1_555
C16 H12 1_555 1_555
C17 C16 1_555 1_555
H13 C17 1_555 1_555
C18 C19 1_555 1_555
C19 H14 1_555 1_555
C20 C19 1_555 1_555
H15 C20 1_555 1_555
C21 C20 1_555 1_555
C22 C21 1_555 1_555
C23 C22 1_555 1_555
H16 C23 1_555 1_555
C24 C23 1_555 1_555
H17 C24 1_555 1_555
C25 C24 1_555 1_555
C26 H18 1_555 1_555
C27 H19 1_555 1_555
C28 C27 1_555 1_555
H20 C28 1_555 1_555
C29 H21 1_555 1_555
C30 H22 1_555 1_555
C31 C30 1_555 1_555
H23 C31 1_555 1_555
C32 C33 1_555 1_555
C33 H24 1_555 1_555
C34 C33 1_555 1_555
H25 C34 1_555 1_555
C35 C34 1_555 1_555
C36 H26 1_555 1_555
C37 H27 1_555 1_555
C38 C37 1_555 1_555
H28 C38 1_555 1_555
C39 H29 1_555 1_555
C40 H30 1_555 1_555
C41 C40 1_555 1_555
H31 C41 1_555 1_555
C42 C43 1_555 1_555
C43 H32 1_555 1_555
C44 C43 1_555 1_555
H33 C44 1_555 1_555
C45 C44 1_555 1_555
C46 C45 1_555 1_555
C47 C46 1_555 1_555
H34 C47 1_555 1_555
C48 C47 1_555 1_555
H35 C48 1_555 1_555
C49 C48 1_555 1_555
C50 H36 1_555 1_555
C51 H37 1_555 1_555
C52 C51 1_555 1_555
H38 C52 1_555 1_555
C53 C54 1_555 1_555
C54 H39 1_555 1_555
C55 C54 1_555 1_555
H40 C55 1_555 1_555
C56 C35 1_555 1_555
C57 C58 1_555 1_555
C58 C59 1_555 1_555
C59 H41 1_555 1_555
C60 C59 1_555 1_555
H42 C60 1_555 1_555
C61 C60 1_555 1_555
H43 C61 1_555 1_555
C62 C61 1_555 1_555
C63 C58 1_555 1_555
H44 C63 1_555 1_555
C64 C62 1_555 1_555
C65 C66 1_555 1_555
C66 C67 1_555 1_555
C67 H45 1_555 1_555
C68 C67 1_555 1_555
H46 C68 1_555 1_555
C69 C68 1_555 1_555
H47 C69 1_555 1_555
C70 C69 1_555 1_555
C71 C66 1_555 1_555
H48 C71 1_555 1_555
C72 C70 1_555 1_555
C73 C74 1_555 1_555
C74 C75 1_555 1_555
C75 H49 1_555 1_555
C76 C75 1_555 1_555
C77 C76 1_555 1_555
H50 C77 1_555 1_555
C78 C77 1_555 1_555
H51 C78 1_555 1_555
C79 C74 1_555 1_555
H52 C79 1_555 1_555
C80 C76 1_555 1_555
C81 C82 1_555 1_555
C82 C83 1_555 1_555
C83 H53 1_555 1_555
C84 C83 1_555 1_555
H54 C84 1_555 1_555
C85 C84 1_555 1_555
H55 C85 1_555 1_555
C86 C85 1_555 1_555
C87 C82 1_555 1_555
H56 C87 1_555 1_555
C88 C86 1_555 1_555
N1 C1 1_555 1_555
N2 C2 1_555 1_555
N3 C11 1_555 1_555
N4 C12 1_555 1_555
N5 C15 1_555 1_555
N6 C15 1_555 1_555
N7 C26 1_555 1_555
N8 C25 1_555 1_555
N9 C29 1_555 1_555
N10 C29 1_555 1_555
N11 C50 1_555 1_555
N12 C50 1_555 1_555
N13 C36 1_555 1_555
N14 C36 1_555 1_555
N15 C39 1_555 1_555
N16 C39 1_555 1_555
O1 C73 1_555 1_555
O2 C73 1_555 1_555
O3 C80 1_555 1_555
O4 C80 1_555 1_555
O5 C57 1_555 1_555
O6 C57 1_555 1_555
O7 C64 1_555 1_555
O8 C64 1_555 1_555
O9 C65 1_555 1_555
O10 C65 1_555 1_555
O11 C72 1_555 1_555
O12 C72 1_555 1_555
O13 C81 1_555 1_555
O14 C81 1_555 1_555
O15 C88 1_555 1_555
O16 C88 1_555 1_555
S1 C18 1_555 1_555
S2 C22 1_555 1_555
S3 C4 1_555 1_555
S4 C8 1_555 1_555
S5 C53 1_555 1_555
S6 C32 1_555 1_555
S7 C46 1_555 1_555
S8 C42 1_555 1_555
Zn1 N1 1_555 1_555
Zn2 N4 1_555 1_555
Zn3 N5 1_555 1_555
Zn4 N7 1_555 1_555
N11_2 Zn1 1_555 1_555
N13_2 Zn3 1_555 1_555
O4_2 Zn4 1_555 1_555
O15_2 Zn3 1_555 1_555
Zn1_2 N11 1_555 1_555
Zn3_2 O15 1_555 1_555
Zn3_3 N13 1_555 1_555
Zn4_2 O4 1_555 1_555
C3 N1 1_555 1_555
C3 N2 1_555 1_555
C4 N2 1_555 1_555
C7 S3 1_555 1_555
C11 S4 1_555 1_555
C12 N3 1_555 1_555
C13 N3 1_555 1_555
C14 N4 1_555 1_555
C16 N5 1_555 1_555
C17 N6 1_555 1_555
C18 N6 1_555 1_555
C21 S1 1_555 1_555
C25 S2 1_555 1_555
C26 N8 1_555 1_555
C27 N8 1_555 1_555
C28 N7 1_555 1_555
C30 N9 1_555 1_555
C31 N10 1_555 1_555
C32 N10 1_555 1_555
C35 S6 1_555 1_555
C37 N13 1_555 1_555
C38 N14 1_555 1_555
C40 N15 1_555 1_555
C41 N16 1_555 1_555
C42 N16 1_555 1_555
C45 S8 1_555 1_555
C49 N14 1_555 1_555
C49 S7 1_555 1_555
C51 N11 1_555 1_555
C52 N12 1_555 1_555
C53 N12 1_555 1_555
C55 C56 1_555 1_555
C56 S5 1_555 1_555
C62 C63 1_555 1_555
C70 C71 1_555 1_555
C78 C79 1_555 1_555
C86 C87 1_555 1_555
N9 Zn2 1_555 1_555
N15 Zn4 1_555 1_555
O1 Zn1 1_555 1_555
O6 Zn1 1_555 1_555
O8 Zn4 1_555 1_555
O10 Zn2 1_555 1_555
O12 Zn3 1_555 1_555
O13 Zn2 1_555 1_555

#END
