
#######################################################################
#
#                 Cambridge Crystallographic Data Centre
#                                CCDC 
#
#######################################################################
#
# If this CIF has been generated from an entry in the Cambridge 
# Structural Database, then it will include bibliographic, chemical, 
# crystal, experimental, refinement or atomic coordinate data resulting 
# from the CCDC's data processing and validation procedures.
#
#######################################################################

data_PITNAJ
_symmetry_cell_setting           triclinic
_symmetry_space_group_name_H-M   'P -1'
_symmetry_Int_Tables_number      2
_space_group_name_Hall           '-P 1'
loop_
_symmetry_equiv_pos_site_id
_symmetry_equiv_pos_as_xyz
1 x,y,z
2 -x,-y,-z
_cell_length_a                   9.4003(6)
_cell_length_b                   9.8766(7)
_cell_length_c                   12.0339(8)
_cell_angle_alpha                82.4750(10)
_cell_angle_beta                 80.7070(10)
_cell_angle_gamma                72.3670(10)
_cell_volume                     1046.79
loop_
_atom_site_label
_atom_site_type_symbol
_atom_site_fract_x
_atom_site_fract_y
_atom_site_fract_z
C1 C 0.58968(17) 0.06789(16) 0.64184(13)
C2 C 0.57757(17) 0.16875(16) 0.72916(12)
C3 C 0.56743(17) 0.31121(16) 0.69600(12)
H1 H 0.5807 0.3421 0.6197
C4 C 0.53717(16) 0.40769(16) 0.77788(13)
C5 C 0.51974(18) 0.56386(17) 0.74593(14)
C6 C 0.52086(17) 0.35956(16) 0.89172(13)
H2 H 0.4990 0.4240 0.9462
C7 C 0.53685(18) 0.21653(17) 0.92489(13)
C8 C 0.56382(18) 0.12066(16) 0.84350(13)
H3 H 0.5726 0.0249 0.8653
C9 C 0.2504(2) 0.3665(2) 0.56928(15)
H4 H 0.3147 0.4204 0.5738
C10 C 0.1588(2) 0.2103(2) 0.52295(16)
H5 H 0.1498 0.1348 0.4885
C11 C 0.0513(2) 0.2882(2) 0.59716(16)
H6 H -0.0434 0.2767 0.6229
C12 C 0.0407(2) 0.48884(19) 0.70728(15)
C13 C -0.1047(2) 0.5671(2) 0.72286(17)
H7 H -0.1766 0.5642 0.6791
C14 C -0.1353(2) 0.6539(2) 0.81333(17)
H8 H -0.2300 0.7148 0.8351
C15 C -0.01231(19) 0.63999(19) 0.86585(15)
C16 C 0.00146(19) 0.71235(19) 0.95854(14)
C17 C 0.1234(2) 0.6966(2) 1.01156(19)
H9 H 0.2172 0.6332 0.9912
C18 C 0.0949(2) 0.7856(2) 1.10051(18)
H10 H 0.1664 0.7859 1.1455
C19 C -0.0480(2) 0.86973(19) 1.11232(14)
C20 C -0.2645(2) 1.01290(19) 1.23103(14)
H11 H -0.3375 0.9837 1.2050
C21 C -0.0457(2) 1.0350(2) 1.25215(16)
H12 H 0.0568 1.0258 1.2446
C22 C -0.1552(2) 1.1154(2) 1.32327(16)
H13 H -0.1402 1.1716 1.3740
N1 N 0.28367(18) 0.25920(16) 0.50590(13)
N2 N 0.11051(17) 0.38823(16) 0.62691(13)
N3 N -0.11619(17) 0.96949(16) 1.19295(12)
N4 N -0.29275(17) 1.10148(16) 1.30944(12)
O1 O 0.60061(15) 0.11424(14) 0.54033(9)
O2 O 0.58650(15) -0.05747(12) 0.67744(10)
O3 O 0.51697(16) 0.60722(12) 0.64232(10)
O4 O 0.51098(19) 0.64115(14) 0.82116(12)
O5 O 0.52664(17) 0.16415(13) 1.03549(9)
H14 H 0.5179 0.2279 1.0757
S1 S 0.14406(5) 0.51672(5) 0.80388(4)
S2 S -0.15235(5) 0.84285(5) 1.01575(4)
Zn1 Zn 0.49259(2) 0.186024(17) 0.399935(14)
N4_2 N 0.70725(17) 0.10148(16) 0.30944(12)
O2A O 0.41350(15) 0.05747(12) 0.32256(10)
O3A O 0.48303(16) 0.39278(12) 0.35768(10)
Zn1_2 Zn -0.50741(2) 1.186024(17) 1.399935(14)
Zn1A Zn 0.50741(2) -0.186024(17) 0.600065(14)
Zn1A_2 Zn 0.50741(2) 0.813976(17) 0.600065(14)
loop_
_geom_bond_atom_site_label_1
_geom_bond_atom_site_label_2
_geom_bond_site_symmetry_1
_geom_bond_site_symmetry_2
C1 C2 1_555 1_555
C2 C3 1_555 1_555
C3 H1 1_555 1_555
C4 C3 1_555 1_555
C5 C4 1_555 1_555
C6 C4 1_555 1_555
H2 C6 1_555 1_555
C7 C6 1_555 1_555
C8 C2 1_555 1_555
H3 C8 1_555 1_555
C9 H4 1_555 1_555
C10 H5 1_555 1_555
C11 C10 1_555 1_555
H6 C11 1_555 1_555
C12 C13 1_555 1_555
C13 H7 1_555 1_555
C14 C13 1_555 1_555
H8 C14 1_555 1_555
C15 C14 1_555 1_555
C16 C15 1_555 1_555
C17 C16 1_555 1_555
H9 C17 1_555 1_555
C18 C17 1_555 1_555
H10 C18 1_555 1_555
C19 C18 1_555 1_555
C20 H11 1_555 1_555
C21 H12 1_555 1_555
C22 C21 1_555 1_555
H13 C22 1_555 1_555
N1 C9 1_555 1_555
N2 C9 1_555 1_555
N3 C19 1_555 1_555
N4 C20 1_555 1_555
O1 C1 1_555 1_555
O2 C1 1_555 1_555
O3 C5 1_555 1_555
O4 C5 1_555 1_555
O5 C7 1_555 1_555
H14 O5 1_555 1_555
S1 C12 1_555 1_555
S2 C16 1_555 1_555
Zn1 N1 1_555 1_555
N4_2 Zn1 1_555 1_555
O2A Zn1 1_555 1_555
O3A Zn1 1_555 1_555
Zn1_2 N4 1_555 1_555
Zn1A O2 1_555 1_555
Zn1A_2 O3 1_555 1_555
C7 C8 1_555 1_555
C10 N1 1_555 1_555
C11 N2 1_555 1_555
C12 N2 1_555 1_555
C15 S1 1_555 1_555
C19 S2 1_555 1_555
C20 N3 1_555 1_555
C21 N3 1_555 1_555
C22 N4 1_555 1_555
O1 Zn1 1_555 1_555

#END
