
#######################################################################
#
#                 Cambridge Crystallographic Data Centre
#                                CCDC 
#
#######################################################################
#
# If this CIF has been generated from an entry in the Cambridge 
# Structural Database, then it will include bibliographic, chemical, 
# crystal, experimental, refinement or atomic coordinate data resulting 
# from the CCDC's data processing and validation procedures.
#
#######################################################################

data_PITNOW
_symmetry_cell_setting           monoclinic
_symmetry_space_group_name_H-M   'P 21'
_symmetry_Int_Tables_number      4
_space_group_name_Hall           'P 2yb'
loop_
_symmetry_equiv_pos_site_id
_symmetry_equiv_pos_as_xyz
1 x,y,z
2 -x,1/2+y,-z
_cell_length_a                   8.8581(6)
_cell_length_b                   13.7369(9)
_cell_length_c                   13.1149(6)
_cell_angle_alpha                90
_cell_angle_beta                 105.246(2)
_cell_angle_gamma                90
_cell_volume                     1539.69
loop_
_atom_site_label
_atom_site_type_symbol
_atom_site_fract_x
_atom_site_fract_y
_atom_site_fract_z
Fe1 Fe 0.76573(8) 0.53421(5) 0.24205(5)
Cu1 Cu 0.50467(7) 0.65266(3) 0.47576(5)
Cu2 Cu 1.00354(7) 0.39305(3) -0.01422(5)
C1 C 0.6128(7) 0.4339(4) 0.2339(4)
C2 C 0.6812(6) 0.5635(3) 0.0972(4)
C3 C 0.9078(6) 0.4437(3) 0.2053(4)
C4 C 0.9071(6) 0.6417(3) 0.2544(4)
C5 C 0.8570(6) 0.5102(3) 0.3899(4)
C6 C 0.6201(6) 0.6227(3) 0.2746(4)
N1 N 0.5115(7) 0.3767(4) 0.2263(5)
N2 N 0.6342(6) 0.5827(3) 0.0075(4)
N3 N 0.9914(5) 0.3853(3) 0.1826(4)
N4 N 0.9884(5) 0.7088(3) 0.2653(4)
N5 N 0.9112(6) 0.4991(3) 0.4776(4)
N6 N 0.5318(6) 0.6751(3) 0.2974(4)
C7 C 0.7467(6) 0.7962(3) 0.5253(4)
H1 H 0.7556 0.8087 0.4543
H2 H 0.8405 0.8202 0.5752
C8 C 0.6025(6) 0.8476(3) 0.5427(4)
H3 H 0.6032 0.8400 0.6171
C9 C 0.7324(6) 1.0098(3) 0.6005(4)
H4 H 0.7164 1.0018 0.6704
H5 H 0.8345 0.9838 0.6012
C10 C 0.6047(6) 0.9563(3) 0.5185(4)
H6 H 0.6242 0.9645 0.4489
C11 C 1.2465(5) 0.5377(3) 0.0208(4)
H7 H 1.2566 0.5527 -0.0494
H8 H 1.3400 0.5605 0.0719
C12 C 1.1030(6) 0.5887(3) 0.0389(4)
H9 H 1.1038 0.5805 0.1133
C13 C 1.2341(6) 0.7508(3) 0.0927(4)
H10 H 1.2224 0.7448 0.1639
H11 H 1.3348 0.7239 0.0912
C14 C 1.1032(6) 0.6976(3) 0.0152(4)
H12 H 1.1200 0.7051 -0.0554
N7 N 0.7292(5) 0.6899(3) 0.5408(4)
H13 H 0.7560 0.6757 0.6102
H14 H 0.7924 0.6564 0.5099
N8 N 0.4627(5) 0.7966(3) 0.4769(3)
H15 H 0.4397 0.8198 0.4105
H16 H 0.3801 0.8075 0.5033
N9 N 0.7236(5) 1.1135(3) 0.5713(4)
H17 H 0.7695 1.1234 0.5185
H18 H 0.7739 1.1497 0.6271
N10 N 0.4567(5) 1.0074(3) 0.5190(3)
H19 H 0.4244 0.9888 0.5756
H20 H 0.3816 0.9921 0.4603
N11 N 1.2297(5) 0.4317(3) 0.0319(4)
H21 H 1.2701 0.4144 0.0998
H22 H 1.2831 0.4002 -0.0077
N12 N 0.9642(5) 0.5378(3) -0.0269(3)
H23 H 0.9470 0.5564 -0.0948
H24 H 0.8791 0.5529 -0.0048
N13 N 1.2235(5) 0.8550(2) 0.0595(4)
H25 H 1.2675 0.8631 0.0056
H26 H 1.2748 0.8927 0.1137
N14 N 0.9560(5) 0.7482(3) 0.0153(3)
H27 H 0.9254 0.7319 0.0732
H28 H 0.8798 0.7312 -0.0422
N15 N 0.4729(6) 0.6671(3) 0.6735(4)
H29 H 0.5176 0.6159 0.7112
H30 H 0.3717 0.6687 0.6715
H31 H 0.5189 0.7214 0.7033
N16 N 1.0150(6) 0.4077(3) -0.2069(4)
H32 H 1.1124 0.3970 -0.2107
H33 H 0.9853 0.4672 -0.2307
H34 H 0.9512 0.3639 -0.2461
Cu1A Cu 0.49533(7) 1.15266(3) 0.52424(5)
Cu2A Cu 0.99646(7) 0.89305(3) 0.01422(5)
N9A N 0.2764(5) 0.6135(3) 0.4287(4)
H17A H 0.2305 0.6234 0.4815
H18A H 0.2261 0.6497 0.3729
N10A N 0.5433(5) 0.5074(3) 0.4810(3)
H19A H 0.5756 0.4888 0.4244
H20A H 0.6184 0.4921 0.5397
N13A N 0.7765(5) 0.3550(2) -0.0595(4)
H25A H 0.7325 0.3631 -0.0056
H26A H 0.7252 0.3927 -0.1137
N14A N 1.0440(5) 0.2482(3) -0.0153(3)
H27A H 1.0746 0.2319 -0.0732
H28A H 1.1202 0.2312 0.0422
O1 O 0.8549(6) 0.2289(3) 0.3176(4)
O2 O 0.6228(6) 0.8351(3) 0.1447(5)
O3 O 0.5136(5) 0.5093(3) -0.1909(3)
O4 O 0.8868(5) 0.2980(3) 0.5240(3)
O5 O 0.8561(7) 0.0267(4) 0.3324(4)
O6 O 0.7063(6) 0.4445(3) -0.3090(4)
O7 O 0.4677(7) 0.7634(4) -0.0493(4)
O8 O 1.2049(6) 0.2185(4) 0.2087(4)
loop_
_geom_bond_atom_site_label_1
_geom_bond_atom_site_label_2
_geom_bond_site_symmetry_1
_geom_bond_site_symmetry_2
Fe1 C1 1_555 1_555
Cu1 N6 1_555 1_555
Cu2 N3 1_555 1_555
C1 N1 1_555 1_555
C2 Fe1 1_555 1_555
C3 Fe1 1_555 1_555
C4 Fe1 1_555 1_555
C5 Fe1 1_555 1_555
C6 Fe1 1_555 1_555
N2 C2 1_555 1_555
N3 C3 1_555 1_555
N4 C4 1_555 1_555
N5 C5 1_555 1_555
N6 C6 1_555 1_555
C7 H1 1_555 1_555
H2 C7 1_555 1_555
C8 C7 1_555 1_555
H3 C8 1_555 1_555
C9 H4 1_555 1_555
H5 C9 1_555 1_555
C10 C8 1_555 1_555
H6 C10 1_555 1_555
C11 H7 1_555 1_555
H8 C11 1_555 1_555
C12 C11 1_555 1_555
H9 C12 1_555 1_555
C13 H10 1_555 1_555
H11 C13 1_555 1_555
C14 C12 1_555 1_555
H12 C14 1_555 1_555
N7 Cu1 1_555 1_555
H13 N7 1_555 1_555
H14 N7 1_555 1_555
N8 Cu1 1_555 1_555
H15 N8 1_555 1_555
H16 N8 1_555 1_555
N9 C9 1_555 1_555
H17 N9 1_555 1_555
H18 N9 1_555 1_555
N10 C10 1_555 1_555
H19 N10 1_555 1_555
H20 N10 1_555 1_555
N11 Cu2 1_555 1_555
H21 N11 1_555 1_555
H22 N11 1_555 1_555
N12 Cu2 1_555 1_555
H23 N12 1_555 1_555
H24 N12 1_555 1_555
N13 C13 1_555 1_555
H25 N13 1_555 1_555
H26 N13 1_555 1_555
N14 C14 1_555 1_555
H27 N14 1_555 1_555
H28 N14 1_555 1_555
N15 Cu1 1_555 1_555
H29 N15 1_555 1_555
H30 N15 1_555 1_555
H31 N15 1_555 1_555
N16 Cu2 1_555 1_555
H32 N16 1_555 1_555
H33 N16 1_555 1_555
H34 N16 1_555 1_555
Cu1A N9 1_555 1_555
Cu2A N13 1_555 1_555
N9A Cu1 1_555 1_555
H17A N9A 1_555 1_555
H18A N9A 1_555 1_555
N10A Cu1 1_555 1_555
H19A N10A 1_555 1_555
H20A N10A 1_555 1_555
N13A Cu2 1_555 1_555
H25A N13A 1_555 1_555
H26A N13A 1_555 1_555
N14A Cu2 1_555 1_555
H27A N14A 1_555 1_555
H28A N14A 1_555 1_555
C7 N7 1_555 1_555
C8 N8 1_555 1_555
C9 C10 1_555 1_555
C11 N11 1_555 1_555
C12 N12 1_555 1_555
C13 C14 1_555 1_555
N10 Cu1A 1_555 1_555
N14 Cu2A 1_555 1_555

#END
