
#######################################################################
#
#                 Cambridge Crystallographic Data Centre
#                                CCDC 
#
#######################################################################
#
# If this CIF has been generated from an entry in the Cambridge 
# Structural Database, then it will include bibliographic, chemical, 
# crystal, experimental, refinement or atomic coordinate data resulting 
# from the CCDC's data processing and validation procedures.
#
#######################################################################

data_PITNIR
_symmetry_cell_setting           trigonal
_symmetry_space_group_name_H-M   'P 3 1 c'
_symmetry_Int_Tables_number      159
_space_group_name_Hall           "P 3 -2'c"
loop_
_symmetry_equiv_pos_site_id
_symmetry_equiv_pos_as_xyz
1 x,y,z
2 -y,x-y,z
3 -x+y,-x,z
4 y,x,1/2+z
5 x-y,-y,1/2+z
6 -x,-x+y,1/2+z
_cell_length_a                   23.9245(6)
_cell_length_b                   23.9245(6)
_cell_length_c                   13.3123(4)
_cell_angle_alpha                90
_cell_angle_beta                 90
_cell_angle_gamma                120
_cell_volume                     6598.87
loop_
_atom_site_label
_atom_site_type_symbol
_atom_site_fract_x
_atom_site_fract_y
_atom_site_fract_z
P1 P 0.31514(12) 0.31055(12) 0.5050(2)
F1 F 0.3064(3) 0.3144(3) 0.6243(4)
F2 F 0.3249(3) 0.3086(3) 0.3852(4)
F3 F 0.3699(4) 0.3828(3) 0.5088(5)
F4 F 0.3685(3) 0.2911(4) 0.5259(5)
F5 F 0.2616(3) 0.3304(4) 0.4824(5)
F6 F 0.2614(3) 0.2355(3) 0.5006(5)
N1 N 0.9258(4) 0.8060(4) 0.7447(6)
O1 O 0.9300(3) 0.9201(3) 0.5095(4)
O2 O 0.9530(3) 0.9140(3) 0.7552(5)
C1 C 1.0277(5) 0.8139(5) 0.7598(10)
H1 H 1.0469 0.8142 0.6938
H2 H 1.0497 0.8028 0.8126
C2 C 0.8265(4) 0.9203(5) 0.5128(7)
H3 H 0.8236 0.9340 0.4437
H4 H 0.8428 0.9580 0.5583
N2 N 0.8314(4) 0.8250(4) 0.5303(7)
C3 C 0.8559(5) 0.7782(5) 0.5308(8)
H5 H 0.9042 0.8035 0.5304
C4 C 0.9674(5) 0.8695(4) 0.7547(7)
C5 C 1.0331(5) 0.8807(5) 0.7816(7)
H6 H 1.0431 0.8927 0.8532
H7 H 1.0669 0.9151 0.7394
C6 C 0.8701(5) 0.8886(5) 0.5168(7)
C7 C 0.8577(5) 0.7774(5) 0.7316(8)
H8 H 0.8459 0.8116 0.7331
H9 H 0.8353 0.7475 0.7881
C8 C 0.7588(6) 0.8631(6) 0.5498(9)
H10 H 0.7536 0.8657 0.6232
H11 H 0.7228 0.8639 0.5147
C9 C 0.8339(5) 0.7393(5) 0.6301(8)
H12 H 0.8481 0.7069 0.6285
H13 H 0.7861 0.7153 0.6309
C10 C 0.8352(6) 0.7379(6) 0.4438(9)
H14 H 0.7885 0.7083 0.4475
H15 H 0.8576 0.7130 0.4408
H16 H 0.8454 0.7647 0.3835
C11 C 0.9552(5) 0.7666(4) 0.7599(9)
H17 H 0.9433 0.7346 0.7051
H18 H 0.9414 0.7433 0.8248
C12 C 0.7617(4) 0.8012(5) 0.5222(7)
H19 H 0.7366 0.7657 0.5703
H20 H 0.7457 0.7863 0.4533
Na1 Na 1.0000 1.0000 0.6339(4)
Na2 Na 1.0000 1.0000 0.3856(4)
N1A N 1.1940(4) 1.1198(6) 0.7447(6)
O1A O 1.0799(3) 1.0099(4) 0.5095(4)
O2A O 1.0860(3) 1.0390(4) 0.7552(5)
C1A C 1.1861(5) 1.2138(7) 0.7598(10)
H1A H 1.1858 1.2327 0.6938
H2A H 1.1972 1.2469 0.8126
C2A C 1.0797(5) 0.9062(6) 0.5128(7)
H3A H 1.0660 0.8896 0.4437
H4A H 1.0420 0.8848 0.5583
N2A N 1.1750(4) 1.0064(6) 0.5303(7)
C3A C 1.2218(5) 1.0777(7) 0.5308(8)
H5A H 1.1965 1.1007 0.5304
C4A C 1.1305(4) 1.0979(6) 0.7547(7)
C5A C 1.1193(5) 1.1524(7) 0.7816(7)
H6A H 1.1073 1.1504 0.8532
H7A H 1.0849 1.1518 0.7394
C6A C 1.1114(5) 0.9815(7) 0.5168(7)
C7A C 1.2226(5) 1.0803(7) 0.7316(8)
H8A H 1.1884 1.0343 0.7331
H9A H 1.2525 1.0878 0.7881
C8A C 1.1369(6) 0.8957(8) 0.5498(9)
H10A H 1.1343 0.8879 0.6232
H11A H 1.1361 0.8589 0.5147
C9A C 1.2607(5) 1.0946(7) 0.6301(8)
H12A H 1.2931 1.1412 0.6285
H13A H 1.2847 1.0708 0.6309
C10A C 1.2621(6) 1.0973(8) 0.4438(9)
H14A H 1.2917 1.0802 0.4475
H15A H 1.2870 1.1446 0.4408
H16A H 1.2353 1.0807 0.3835
C11A C 1.2334(4) 1.1886(6) 0.7599(9)
H17A H 1.2654 1.2087 0.7051
H18A H 1.2567 1.1981 0.8248
C12A C 1.1988(5) 0.9605(6) 0.5222(7)
H19A H 1.2343 0.9709 0.5703
H20A H 1.2137 0.9594 0.4533
N1B N 0.8802(6) 1.0742(4) 0.7447(6)
O1B O 0.9901(4) 1.0700(3) 0.5095(4)
O2B O 0.9610(4) 1.0470(3) 0.7552(5)
C1B C 0.7862(7) 0.9723(5) 0.7598(10)
H1B H 0.7673 0.9531 0.6938
H2B H 0.7531 0.9503 0.8126
C2B C 1.0938(6) 1.1735(4) 0.5128(7)
H3B H 1.1104 1.1764 0.4437
H4B H 1.1152 1.1572 0.5583
N2B N 0.9936(6) 1.1686(4) 0.5303(7)
C3B C 0.9223(7) 1.1441(5) 0.5308(8)
H5B H 0.8993 1.0958 0.5304
C4B C 0.9021(6) 1.0326(5) 0.7547(7)
C5B C 0.8476(7) 0.9669(5) 0.7816(7)
H6B H 0.8496 0.9569 0.8532
H7B H 0.8482 0.9331 0.7394
C6B C 1.0185(7) 1.1299(5) 0.5168(7)
C7B C 0.9197(7) 1.1423(5) 0.7316(8)
H8B H 0.9657 1.1541 0.7331
H9B H 0.9122 1.1647 0.7881
C8B C 1.1043(8) 1.2412(6) 0.5498(9)
H10B H 1.1121 1.2464 0.6232
H11B H 1.1411 1.2772 0.5147
C9B C 0.9054(7) 1.1661(5) 0.6301(8)
H12B H 0.8588 1.1519 0.6285
H13B H 0.9292 1.2139 0.6309
C10B C 0.9027(8) 1.1648(6) 0.4438(9)
H14B H 0.9198 1.2115 0.4475
H15B H 0.8554 1.1424 0.4408
H16B H 0.9193 1.1546 0.3835
C11B C 0.8114(6) 1.0448(5) 0.7599(9)
H17B H 0.7913 1.0567 0.7051
H18B H 0.8019 1.0586 0.8248
C12B C 1.0395(6) 1.2383(4) 0.5222(7)
H19B H 1.0291 1.2634 0.5703
H20B H 1.0406 1.2543 0.4533
O2C O 0.9140(3) 0.9530(3) 0.2552(5)
O2D O 1.0390(4) 1.0860(3) 0.2552(5)
O2E O 1.0470(3) 0.9610(4) 0.2552(5)
Na2C Na 1.0000 1.0000 0.8856(4)
N1E N 1.0742(4) 0.8802(6) 0.2447(6)
C4E C 1.0326(5) 0.9021(6) 0.2547(7)
C7E C 1.1423(5) 0.9197(7) 0.2316(8)
C10E C 1.1648(6) 0.9027(8) -0.0562(9)
H14E H 1.2115 0.9198 -0.0525
C8E C 1.2412(6) 1.1043(8) 0.0498(9)
H11E H 1.2772 1.1411 0.0147
C7C C 0.7774(5) 0.8577(5) 0.2316(8)
H9C H 0.7475 0.8353 0.2881
N2C N 0.8250(4) 0.8314(4) 0.0303(7)
C3C C 0.7782(5) 0.8559(5) 0.0308(8)
C6C C 0.8886(5) 0.8701(5) 0.0168(7)
C10C C 0.7379(6) 0.8352(6) -0.0562(9)
H16C H 0.7647 0.8454 -0.1165
C12C C 0.8012(5) 0.7617(4) 0.0222(7)
C1C C 0.8139(5) 1.0277(5) 0.2598(10)
C5C C 0.8807(5) 1.0331(5) 0.2816(7)
C2C C 0.9203(5) 0.8265(4) 0.0128(7)
C8C C 0.8631(6) 0.7588(6) 0.0498(9)
N2D N 1.0064(6) 1.1750(4) 0.0303(7)
C6D C 0.9815(7) 1.1114(5) 0.0168(7)
H8C H 0.8116 0.8459 0.2331
C9C C 0.7393(5) 0.8339(5) 0.1301(8)
C12D C 0.9605(6) 1.1988(5) 0.0222(7)
H20D H 0.9594 1.2137 -0.0467
C10D C 1.0973(8) 1.2621(6) -0.0562(9)
H14D H 1.0802 1.2917 -0.0525
C1D C 1.2138(7) 1.1861(5) 0.2598(10)
H2D H 1.2469 1.1972 0.3126
Na1C Na 1.0000 1.0000 0.1339(4)
N1D N 1.1198(6) 1.1940(4) 0.2447(6)
C4D C 1.0979(6) 1.1305(4) 0.2547(7)
C1E C 0.9723(5) 0.7862(7) 0.2598(10)
H2E H 0.9503 0.7531 0.3126
C5E C 0.9669(5) 0.8476(7) 0.2816(7)
C11D C 1.1886(6) 1.2334(4) 0.2599(9)
O1E O 1.0700(3) 0.9901(4) 0.0095(4)
C6E C 1.1299(5) 1.0185(7) 0.0168(7)
H19D H 0.9709 1.2343 0.0703
N2E N 1.1686(4) 0.9936(6) 0.0303(7)
C12E C 1.2383(4) 1.0395(6) 0.0222(7)
C2E C 1.1735(4) 1.0938(6) 0.0128(7)
C3E C 1.1441(5) 0.9223(7) 0.0308(8)
C11E C 1.0448(5) 0.8114(6) 0.2599(9)
H18E H 1.0586 0.8019 0.3248
Na2C_2 Na 1.0000 1.0000 -0.1144(4)
H4E H 1.1572 1.1152 0.0583
H4C H 0.9580 0.8428 0.0583
H13C H 0.7153 0.7861 0.1309
H18D H 1.1981 1.2567 0.3248
H17D H 1.2087 1.2654 0.2051
C5D C 1.1524(7) 1.1193(5) 0.2816(7)
H7D H 1.1518 1.0849 0.2394
C2D C 0.9062(6) 1.0797(5) 0.0128(7)
O1C O 0.9201(3) 0.9300(3) 0.0095(4)
C8D C 0.8957(8) 1.1369(6) 0.0498(9)
H20C H 0.7863 0.7457 -0.0467
C11C C 0.7666(4) 0.9552(5) 0.2599(9)
H18C H 0.7433 0.9414 0.3248
H5C H 0.8035 0.9042 0.0304
H19C H 0.7657 0.7366 0.0703
C7D C 1.0803(7) 1.2226(5) 0.2316(8)
H8D H 1.0343 1.1884 0.2331
C4C C 0.8695(4) 0.9674(5) 0.2547(7)
H9D H 1.0878 1.2525 0.2881
H1D H 1.2327 1.1858 0.1938
H6D H 1.1504 1.1073 0.3532
C3D C 1.0777(7) 1.2218(5) 0.0308(8)
C9D C 1.0946(7) 1.2607(5) 0.1301(8)
H15C H 0.7130 0.8576 -0.0592
H5D H 1.1007 1.1965 0.0304
N1C N 0.8060(4) 0.9258(4) 0.2447(6)
H3E H 1.1764 1.1104 -0.0563
C9E C 1.1661(5) 0.9054(7) 0.1301(8)
H13E H 1.2139 0.9292 0.1309
H1C H 0.8142 1.0469 0.1938
H7C H 0.9151 1.0669 0.2394
H6C H 0.8927 1.0431 0.3532
O1D O 1.0099(4) 1.0799(3) 0.0095(4)
H1E H 0.9531 0.7673 0.1938
H4D H 0.8848 1.0420 0.0583
H19E H 1.2634 1.0291 0.0703
H12C H 0.7069 0.8481 0.1285
H11D H 0.8589 1.1361 0.0147
H16D H 1.0807 1.2353 -0.1165
H17C H 0.7346 0.9433 0.2051
H14C H 0.7083 0.7885 -0.0525
H3C H 0.9340 0.8236 -0.0563
H10C H 0.8657 0.7536 0.1232
H11C H 0.8639 0.7228 0.0147
H20E H 1.2543 1.0406 -0.0467
H5E H 1.0958 0.8993 0.0304
H13D H 1.0708 1.2847 0.1309
H10D H 0.8879 1.1343 0.1232
H15E H 1.1424 0.8554 -0.0592
H10E H 1.2464 1.1121 0.1232
H16E H 1.1546 0.9193 -0.1165
H6E H 0.9569 0.8496 0.3532
H9E H 1.1647 0.9122 0.2881
H8E H 1.1541 0.9657 0.2331
H2C H 0.8028 1.0497 0.3126
H15D H 1.1446 1.2870 -0.0592
H17E H 1.0567 0.7913 0.2051
H12D H 1.1412 1.2931 0.1285
H12E H 1.1519 0.8588 0.1285
H3D H 0.8896 1.0660 -0.0563
H7E H 0.9331 0.8482 0.2394
O1E_2 O 1.0700(3) 0.9901(4) 1.0095(4)
O1C_2 O 0.9201(3) 0.9300(3) 1.0095(4)
O1D_2 O 1.0099(4) 1.0799(3) 1.0095(4)
Na3 Na 0.6667 0.3333 0.6453(5)
O3 O 0.7553(3) 0.3822(3) 0.5250(5)
N3 N 0.8399(4) 0.5056(4) 0.7520(6)
O4 O 0.7473(3) 0.4054(3) 0.7649(5)
C13 C 0.8865(4) 0.4833(4) 0.7476(7)
H21 H 0.8626 0.4351 0.7495
C14 C 0.8594(6) 0.5740(5) 0.7573(10)
H22 H 0.8928 0.5994 0.7065
H23 H 0.8760 0.5919 0.8248
C15 C 0.7743(4) 0.4652(4) 0.7573(7)
N4 N 0.8630(4) 0.4143(4) 0.5370(6)
C16 C 0.7989(5) 0.3691(5) 0.5188(6)
C17 C 0.9048(5) 0.3865(5) 0.5125(7)
H24 H 0.9394 0.3994 0.5632
H25 H 0.9247 0.4010 0.4454
C18 C 0.7957(5) 0.5732(5) 0.7346(8)
H26 H 0.7924 0.6062 0.7748
H27 H 0.7927 0.5814 0.6624
C19 C 0.9272(5) 0.5059(4) 0.6499(7)
H28 H 0.9595 0.4916 0.6519
H29 H 0.9510 0.5537 0.6482
C20 C 0.8870(5) 0.4803(5) 0.5508(7)
H30 H 0.8506 0.4887 0.5528
H31 H 0.9147 0.5041 0.4929
C21 C 0.7941(6) 0.3047(5) 0.4952(10)
H32 H 0.7621 0.2703 0.5393
H33 H 0.7814 0.2924 0.4243
C22 C 0.7450(4) 0.5081(5) 0.7628(7)
H34 H 0.7080 0.4925 0.7161
H35 H 0.7296 0.5081 0.8318
C23 C 0.9289(5) 0.5082(5) 0.8389(7)
H36 H 0.9535 0.5555 0.8370
H37 H 0.9587 0.4914 0.8398
H38 H 0.9020 0.4940 0.8995
C24 C 0.8600(5) 0.3152(5) 0.5141(8)
H39 H 0.8721 0.2940 0.4614
H40 H 0.8617 0.2971 0.5802
Na4 Na 0.6667 0.3333 0.1437(5)
Na5 Na 0.6667 0.3333 -0.1102(5)
O5 O 0.5797(3) 0.2836(3) 0.0203(5)
O6 O 0.5831(3) 0.3125(3) 0.2667(5)
N5 N 0.4880(4) 0.3139(4) 0.2471(6)
C25 C 0.4656(5) 0.3607(5) 0.2429(10)
H41 H 0.4412 0.3583 0.3045
H42 H 0.4374 0.3526 0.1838
N6 N 0.4749(4) 0.2028(4) 0.0315(7)
C26 C 0.4476(4) 0.2468(5) 0.2388(7)
H43 H 0.4759 0.2271 0.2378
C27 C 0.5791(5) 0.4143(5) 0.2617(7)
H44 H 0.6151 0.4367 0.2134
H45 H 0.5952 0.4311 0.3299
C28 C 0.5398(5) 0.2259(5) 0.0132(7)
C29 C 0.5535(5) 0.3445(5) 0.2580(6)
C30 C 0.5487(5) 0.1710(5) -0.0063(10)
H46 H 0.5812 0.1717 0.0406
H47 H 0.5645 0.1732 -0.0757
C31 C 0.4466(5) 0.2415(5) 0.0479(7)
H48 H 0.4189 0.2370 -0.0103
H49 H 0.4812 0.2872 0.0516
C32 C 0.5254(4) 0.4248(5) 0.2349(10)
H50 H 0.5308 0.4418 0.1656
H51 H 0.5236 0.4561 0.2815
C33 C 0.4057(5) 0.2241(5) 0.1446(7)
H52 H 0.3783 0.2442 0.1423
H53 H 0.3770 0.1767 0.1478
C34 C 0.4361(5) 0.1326(4) 0.0091(7)
H54 H 0.4145 0.1254 -0.0569
H55 H 0.4029 0.1100 0.0614
C35 C 0.4017(5) 0.2186(5) 0.3329(7)
H56 H 0.4265 0.2379 0.3943
H57 H 0.3832 0.1717 0.3351
H58 H 0.3669 0.2288 0.3275
C36 C 0.4841(5) 0.1087(5) 0.0080(7)
H59 H 0.4753 0.0783 -0.0481
H60 H 0.4832 0.0873 0.0721
Na6 Na 0.6667 0.3333 0.3941(5)
O3A O 0.6178(3) 0.3731(4) 0.5250(5)
N3A N 0.4944(4) 0.3343(6) 0.7520(6)
O4A O 0.5946(3) 0.3419(4) 0.7649(5)
C13A C 0.5167(4) 0.4032(6) 0.7476(7)
H21A H 0.5649 0.4275 0.7495
C14A C 0.4260(5) 0.2854(8) 0.7573(10)
H22A H 0.4006 0.2934 0.7065
H23A H 0.4081 0.2841 0.8248
C15A C 0.5348(4) 0.3091(6) 0.7573(7)
N4A N 0.5857(4) 0.4487(6) 0.5370(6)
C16A C 0.6309(5) 0.4298(7) 0.5188(6)
C17A C 0.6135(5) 0.5183(7) 0.5125(7)
H24A H 0.6006 0.5400 0.5632
H25A H 0.5990 0.5237 0.4454
C18A C 0.4268(5) 0.2225(7) 0.7346(8)
H26A H 0.3938 0.1862 0.7748
H27A H 0.4186 0.2113 0.6624
C19A C 0.4941(4) 0.4213(6) 0.6499(7)
H28A H 0.5084 0.4679 0.6519
H29A H 0.4463 0.3973 0.6482
C20A C 0.5197(5) 0.4067(7) 0.5508(7)
H30A H 0.5113 0.3619 0.5528
H31A H 0.4959 0.4106 0.4929
C21A C 0.6953(5) 0.4894(8) 0.4952(10)
H32A H 0.7297 0.4918 0.5393
H33A H 0.7076 0.4890 0.4243
C22A C 0.4919(5) 0.2369(6) 0.7628(7)
H34A H 0.5075 0.2155 0.7161
H35A H 0.4919 0.2215 0.8318
C23A C 0.4918(5) 0.4207(7) 0.8389(7)
H36A H 0.4445 0.3980 0.8370
H37A H 0.5086 0.4673 0.8398
H38A H 0.5060 0.4080 0.8995
C24A C 0.6848(5) 0.5448(7) 0.5141(8)
H39A H 0.7060 0.5781 0.4614
H40A H 0.7029 0.5646 0.5802
O5A O 0.7164(3) 0.2961(4) 0.0203(5)
O6A O 0.6875(3) 0.2706(4) 0.2667(5)
N5A N 0.6861(4) 0.1741(6) 0.2471(6)
C25A C 0.6393(5) 0.1049(7) 0.2429(10)
H41A H 0.6417 0.0829 0.3045
H42A H 0.6474 0.0848 0.1838
N6A N 0.7972(4) 0.2721(6) 0.0315(7)
C26A C 0.7532(5) 0.2008(6) 0.2388(7)
H43A H 0.7729 0.2488 0.2378
C27A C 0.5857(5) 0.1648(7) 0.2617(7)
H44A H 0.5633 0.1784 0.2134
H45A H 0.5689 0.1641 0.3299
C28A C 0.7741(5) 0.3139(7) 0.0132(7)
C29A C 0.6555(5) 0.2090(7) 0.2580(6)
C30A C 0.8290(5) 0.3777(7) -0.0063(10)
H46A H 0.8283 0.4095 0.0406
H47A H 0.8268 0.3913 -0.0757
C31A C 0.7585(5) 0.2051(7) 0.0479(7)
H48A H 0.7630 0.1819 -0.0103
H49A H 0.7128 0.1940 0.0516
C32A C 0.5752(5) 0.1006(6) 0.2349(10)
H50A H 0.5582 0.0890 0.1656
H51A H 0.5439 0.0675 0.2815
C33A C 0.7759(5) 0.1816(7) 0.1446(7)
H52A H 0.7558 0.1341 0.1423
H53A H 0.8233 0.2003 0.1478
C34A C 0.8674(4) 0.3035(6) 0.0091(7)
H54A H 0.8746 0.2891 -0.0569
H55A H 0.8900 0.2929 0.0614
C35A C 0.7814(5) 0.1831(7) 0.3329(7)
H56A H 0.7621 0.1886 0.3943
H57A H 0.8283 0.2115 0.3351
H58A H 0.7712 0.1381 0.3275
C36A C 0.8913(5) 0.3754(7) 0.0080(7)
H59A H 0.9217 0.3970 -0.0481
H60A H 0.9127 0.3959 0.0721
O3B O 0.6269(4) 0.2447(3) 0.5250(5)
N3B N 0.6657(6) 0.1601(4) 0.7520(6)
O4B O 0.6581(4) 0.2527(3) 0.7649(5)
C13B C 0.5968(6) 0.1135(4) 0.7476(7)
H21B H 0.5725 0.1374 0.7495
C14B C 0.7146(8) 0.1406(6) 0.7573(10)
H22B H 0.7066 0.1072 0.7065
H23B H 0.7159 0.1240 0.8248
C15B C 0.6909(6) 0.2257(4) 0.7573(7)
N4B N 0.5513(6) 0.1370(4) 0.5370(6)
C16B C 0.5702(7) 0.2011(5) 0.5188(6)
C17B C 0.4817(7) 0.0952(5) 0.5125(7)
H24B H 0.4600 0.0606 0.5632
H25B H 0.4763 0.0753 0.4454
C18B C 0.7775(7) 0.2043(5) 0.7346(8)
H26B H 0.8138 0.2076 0.7748
H27B H 0.7887 0.2073 0.6624
C19B C 0.5787(6) 0.0728(5) 0.6499(7)
H28B H 0.5321 0.0405 0.6519
H29B H 0.6027 0.0490 0.6482
C20B C 0.5933(7) 0.1130(5) 0.5508(7)
H30B H 0.6381 0.1494 0.5528
H31B H 0.5894 0.0853 0.4929
C21B C 0.5106(8) 0.2059(6) 0.4952(10)
H32B H 0.5082 0.2379 0.5393
H33B H 0.5110 0.2186 0.4243
C22B C 0.7631(6) 0.2550(4) 0.7628(7)
H34B H 0.7845 0.2920 0.7161
H35B H 0.7785 0.2704 0.8318
C23B C 0.5793(7) 0.0711(5) 0.8389(7)
H36B H 0.6020 0.0465 0.8370
H37B H 0.5327 0.0413 0.8398
H38B H 0.5920 0.0980 0.8995
C24B C 0.4552(7) 0.1400(5) 0.5141(8)
H39B H 0.4219 0.1279 0.4614
H40B H 0.4354 0.1383 0.5802
O5B O 0.7039(4) 0.4203(3) 0.0203(5)
O6B O 0.7294(4) 0.4169(3) 0.2667(5)
N5B N 0.8259(6) 0.5120(4) 0.2471(6)
C25B C 0.8951(7) 0.5344(5) 0.2429(10)
H41B H 0.9171 0.5588 0.3045
H42B H 0.9152 0.5626 0.1838
N6B N 0.7279(6) 0.5251(4) 0.0315(7)
C26B C 0.7992(6) 0.5524(4) 0.2388(7)
H43B H 0.7512 0.5241 0.2378
C27B C 0.8352(7) 0.4209(5) 0.2617(7)
H44B H 0.8216 0.3849 0.2134
H45B H 0.8359 0.4048 0.3299
C28B C 0.6861(7) 0.4602(5) 0.0132(7)
C29B C 0.7910(7) 0.4465(5) 0.2580(6)
C30B C 0.6223(7) 0.4513(5) -0.0063(10)
H46B H 0.5905 0.4188 0.0406
H47B H 0.6087 0.4355 -0.0757
C31B C 0.7949(7) 0.5534(5) 0.0479(7)
H48B H 0.8181 0.5811 -0.0103
H49B H 0.8060 0.5188 0.0516
C32B C 0.8994(6) 0.4746(4) 0.2349(10)
H50B H 0.9110 0.4692 0.1656
H51B H 0.9325 0.4764 0.2815
C33B C 0.8184(7) 0.5943(5) 0.1446(7)
H52B H 0.8659 0.6217 0.1423
H53B H 0.7997 0.6230 0.1478
C34B C 0.6965(6) 0.5639(5) 0.0091(7)
H54B H 0.7109 0.5855 -0.0569
H55B H 0.7071 0.5971 0.0614
C35B C 0.8169(7) 0.5983(5) 0.3329(7)
H56B H 0.8114 0.5735 0.3943
H57B H 0.7885 0.6168 0.3351
H58B H 0.8619 0.6331 0.3275
C36B C 0.6246(7) 0.5159(5) 0.0080(7)
H59B H 0.6030 0.5247 -0.0481
H60B H 0.6041 0.5168 0.0721
O4_2 O 0.7473(3) 0.4054(3) -0.2351(5)
O4A_2 O 0.5946(3) 0.3419(4) -0.2351(5)
O4B_2 O 0.6581(4) 0.2527(3) -0.2351(5)
Na5_2 Na 0.6667 0.3333 0.8898(5)
P2 P 0.65127(13) 0.64680(13) 0.2641(2)
F7 F 0.7269(3) 0.6966(4) 0.2619(5)
F8 F 0.6496(3) 0.6492(3) 0.1445(6)
F9 F 0.6534(4) 0.6459(4) 0.3828(5)
F10 F 0.6357(4) 0.7044(3) 0.2702(5)
F11 F 0.6672(4) 0.5887(3) 0.2584(5)
F12 F 0.5755(3) 0.5961(4) 0.2668(6)
loop_
_geom_bond_atom_site_label_1
_geom_bond_atom_site_label_2
_geom_bond_site_symmetry_1
_geom_bond_site_symmetry_2
P1 F1 1_555 1_555
F2 P1 1_555 1_555
F3 P1 1_555 1_555
F4 P1 1_555 1_555
F5 P1 1_555 1_555
F6 P1 1_555 1_555
N1 C4 1_555 1_555
O1 C6 1_555 1_555
O2 C4 1_555 1_555
C1 H1 1_555 1_555
H2 C1 1_555 1_555
C2 H3 1_555 1_555
H4 C2 1_555 1_555
N2 C3 1_555 1_555
C3 H5 1_555 1_555
C4 C5 1_555 1_555
C5 C1 1_555 1_555
H6 C5 1_555 1_555
H7 C5 1_555 1_555
C6 C2 1_555 1_555
C7 N1 1_555 1_555
H8 C7 1_555 1_555
H9 C7 1_555 1_555
C8 C2 1_555 1_555
H10 C8 1_555 1_555
H11 C8 1_555 1_555
C9 C3 1_555 1_555
H12 C9 1_555 1_555
H13 C9 1_555 1_555
C10 C3 1_555 1_555
H14 C10 1_555 1_555
H15 C10 1_555 1_555
H16 C10 1_555 1_555
C11 N1 1_555 1_555
H17 C11 1_555 1_555
H18 C11 1_555 1_555
C12 N2 1_555 1_555
H19 C12 1_555 1_555
H20 C12 1_555 1_555
Na1 O1 1_555 1_555
Na2 O1 1_555 1_555
Na3 O3 1_555 1_555
O3 C16 1_555 1_555
N3 C13 1_555 1_555
O4 Na3 1_555 1_555
C13 H21 1_555 1_555
C14 N3 1_555 1_555
H22 C14 1_555 1_555
H23 C14 1_555 1_555
C15 N3 1_555 1_555
N4 C16 1_555 1_555
C16 C21 1_555 1_555
C17 N4 1_555 1_555
H24 C17 1_555 1_555
H25 C17 1_555 1_555
C18 C14 1_555 1_555
H26 C18 1_555 1_555
H27 C18 1_555 1_555
C19 C13 1_555 1_555
H28 C19 1_555 1_555
H29 C19 1_555 1_555
C20 N4 1_555 1_555
H30 C20 1_555 1_555
H31 C20 1_555 1_555
C21 H32 1_555 1_555
H33 C21 1_555 1_555
C22 C15 1_555 1_555
H34 C22 1_555 1_555
H35 C22 1_555 1_555
C23 C13 1_555 1_555
H36 C23 1_555 1_555
H37 C23 1_555 1_555
H38 C23 1_555 1_555
C24 C17 1_555 1_555
H39 C24 1_555 1_555
H40 C24 1_555 1_555
Na4 O5 1_555 1_555
Na5 O5 1_555 1_555
O5 C28 1_555 1_555
O6 Na4 1_555 1_555
N5 C25 1_555 1_555
C25 H41 1_555 1_555
H42 C25 1_555 1_555
N6 C28 1_555 1_555
C26 N5 1_555 1_555
H43 C26 1_555 1_555
C27 H44 1_555 1_555
H45 C27 1_555 1_555
C28 C30 1_555 1_555
C29 O6 1_555 1_555
C30 H46 1_555 1_555
H47 C30 1_555 1_555
C31 N6 1_555 1_555
H48 C31 1_555 1_555
H49 C31 1_555 1_555
C32 C25 1_555 1_555
H50 C32 1_555 1_555
H51 C32 1_555 1_555
C33 C26 1_555 1_555
H52 C33 1_555 1_555
H53 C33 1_555 1_555
C34 N6 1_555 1_555
H54 C34 1_555 1_555
H55 C34 1_555 1_555
C35 C26 1_555 1_555
H56 C35 1_555 1_555
H57 C35 1_555 1_555
H58 C35 1_555 1_555
C36 C30 1_555 1_555
H59 C36 1_555 1_555
H60 C36 1_555 1_555
Na6 O3 1_555 1_555
P2 F7 1_555 1_555
F8 P2 1_555 1_555
F9 P2 1_555 1_555
F10 P2 1_555 1_555
F11 P2 1_555 1_555
F12 P2 1_555 1_555
N1A C4A 1_555 1_555
O1A Na1 1_555 1_555
O2A Na1 1_555 1_555
C1A H1A 1_555 1_555
H2A C1A 1_555 1_555
C2A H3A 1_555 1_555
H4A C2A 1_555 1_555
N2A C3A 1_555 1_555
C3A H5A 1_555 1_555
C4A O2A 1_555 1_555
C5A C1A 1_555 1_555
H6A C5A 1_555 1_555
H7A C5A 1_555 1_555
C6A O1A 1_555 1_555
C7A N1A 1_555 1_555
H8A C7A 1_555 1_555
H9A C7A 1_555 1_555
C8A C2A 1_555 1_555
H10A C8A 1_555 1_555
H11A C8A 1_555 1_555
C9A C3A 1_555 1_555
H12A C9A 1_555 1_555
H13A C9A 1_555 1_555
C10A C3A 1_555 1_555
H14A C10A 1_555 1_555
H15A C10A 1_555 1_555
H16A C10A 1_555 1_555
C11A N1A 1_555 1_555
H17A C11A 1_555 1_555
H18A C11A 1_555 1_555
C12A N2A 1_555 1_555
H19A C12A 1_555 1_555
H20A C12A 1_555 1_555
N1B C4B 1_555 1_555
O1B Na1 1_555 1_555
O2B Na1 1_555 1_555
C1B H1B 1_555 1_555
H2B C1B 1_555 1_555
C2B H3B 1_555 1_555
H4B C2B 1_555 1_555
N2B C3B 1_555 1_555
C3B H5B 1_555 1_555
C4B O2B 1_555 1_555
C5B C1B 1_555 1_555
H6B C5B 1_555 1_555
H7B C5B 1_555 1_555
C6B O1B 1_555 1_555
C7B N1B 1_555 1_555
H8B C7B 1_555 1_555
H9B C7B 1_555 1_555
C8B C2B 1_555 1_555
H10B C8B 1_555 1_555
H11B C8B 1_555 1_555
C9B C3B 1_555 1_555
H12B C9B 1_555 1_555
H13B C9B 1_555 1_555
C10B C3B 1_555 1_555
H14B C10B 1_555 1_555
H15B C10B 1_555 1_555
H16B C10B 1_555 1_555
C11B N1B 1_555 1_555
H17B C11B 1_555 1_555
H18B C11B 1_555 1_555
C12B N2B 1_555 1_555
H19B C12B 1_555 1_555
H20B C12B 1_555 1_555
O2C Na2 1_555 1_555
O2D Na2 1_555 1_555
O2E Na2 1_555 1_555
Na2C O2 1_555 1_555
N1E C4E 1_555 1_555
C4E O2E 1_555 1_555
C7E N1E 1_555 1_555
C10E H14E 1_555 1_555
C8E H11E 1_555 1_555
C7C H9C 1_555 1_555
N2C C3C 1_555 1_555
C3C C10C 1_555 1_555
C6C N2C 1_555 1_555
C10C H16C 1_555 1_555
C12C N2C 1_555 1_555
C1C C5C 1_555 1_555
C5C C4C 1_555 1_555
C2C C6C 1_555 1_555
C8C C12C 1_555 1_555
N2D C6D 1_555 1_555
C6D C2D 1_555 1_555
H8C C7C 1_555 1_555
C9C C7C 1_555 1_555
C12D N2D 1_555 1_555
H20D C12D 1_555 1_555
C10D H14D 1_555 1_555
C1D H2D 1_555 1_555
Na1C O2C 1_555 1_555
N1D C4D 1_555 1_555
C4D O2D 1_555 1_555
C1E H2E 1_555 1_555
C5E C4E 1_555 1_555
C11D C1D 1_555 1_555
O1E Na1C 1_555 1_555
C6E O1E 1_555 1_555
H19D C12D 1_555 1_555
N2E C6E 1_555 1_555
C12E C8E 1_555 1_555
C2E C8E 1_555 1_555
C3E C10E 1_555 1_555
C11E N1E 1_555 1_555
H18E C11E 1_555 1_555
Na2C_2 O1E 1_555 1_555
H4E C2E 1_555 1_555
H4C C2C 1_555 1_555
H13C C9C 1_555 1_555
H18D C11D 1_555 1_555
H17D C11D 1_555 1_555
C5D C1D 1_555 1_555
H7D C5D 1_555 1_555
C2D C8D 1_555 1_555
O1C C6C 1_555 1_555
C8D C12D 1_555 1_555
H20C C12C 1_555 1_555
C11C C1C 1_555 1_555
H18C C11C 1_555 1_555
H5C C3C 1_555 1_555
H19C C12C 1_555 1_555
C7D N1D 1_555 1_555
H8D C7D 1_555 1_555
C4C O2C 1_555 1_555
H9D C7D 1_555 1_555
H1D C1D 1_555 1_555
H6D C5D 1_555 1_555
C3D N2D 1_555 1_555
C9D C7D 1_555 1_555
H15C C10C 1_555 1_555
H5D C3D 1_555 1_555
N1C C7C 1_555 1_555
H3E C2E 1_555 1_555
C9E C7E 1_555 1_555
H13E C9E 1_555 1_555
H1C C1C 1_555 1_555
H7C C5C 1_555 1_555
H6C C5C 1_555 1_555
O1D C6D 1_555 1_555
H1E C1E 1_555 1_555
H4D C2D 1_555 1_555
H19E C12E 1_555 1_555
H12C C9C 1_555 1_555
H11D C8D 1_555 1_555
H16D C10D 1_555 1_555
H17C C11C 1_555 1_555
H14C C10C 1_555 1_555
H3C C2C 1_555 1_555
H10C C8C 1_555 1_555
H11C C8C 1_555 1_555
H20E C12E 1_555 1_555
H5E C3E 1_555 1_555
H13D C9D 1_555 1_555
H10D C8D 1_555 1_555
H15E C10E 1_555 1_555
H10E C8E 1_555 1_555
H16E C10E 1_555 1_555
H6E C5E 1_555 1_555
H9E C7E 1_555 1_555
H8E C7E 1_555 1_555
H2C C1C 1_555 1_555
H15D C10D 1_555 1_555
H17E C11E 1_555 1_555
H12D C9D 1_555 1_555
H12E C9E 1_555 1_555
H3D C2D 1_555 1_555
H7E C5E 1_555 1_555
O1E_2 Na2C 1_555 1_555
O1C_2 Na2C 1_555 1_555
O1D_2 Na2C 1_555 1_555
O3A Na3 1_555 1_555
N3A C13A 1_555 1_555
O4A Na3 1_555 1_555
C13A H21A 1_555 1_555
C14A N3A 1_555 1_555
H22A C14A 1_555 1_555
H23A C14A 1_555 1_555
C15A N3A 1_555 1_555
N4A C16A 1_555 1_555
C16A O3A 1_555 1_555
C17A N4A 1_555 1_555
H24A C17A 1_555 1_555
H25A C17A 1_555 1_555
C18A C14A 1_555 1_555
H26A C18A 1_555 1_555
H27A C18A 1_555 1_555
C19A C13A 1_555 1_555
H28A C19A 1_555 1_555
H29A C19A 1_555 1_555
C20A N4A 1_555 1_555
H30A C20A 1_555 1_555
H31A C20A 1_555 1_555
C21A C16A 1_555 1_555
H32A C21A 1_555 1_555
H33A C21A 1_555 1_555
C22A C15A 1_555 1_555
H34A C22A 1_555 1_555
H35A C22A 1_555 1_555
C23A C13A 1_555 1_555
H36A C23A 1_555 1_555
H37A C23A 1_555 1_555
H38A C23A 1_555 1_555
C24A C17A 1_555 1_555
H39A C24A 1_555 1_555
H40A C24A 1_555 1_555
O5A Na4 1_555 1_555
O6A Na4 1_555 1_555
N5A C25A 1_555 1_555
C25A H41A 1_555 1_555
H42A C25A 1_555 1_555
N6A C28A 1_555 1_555
C26A N5A 1_555 1_555
H43A C26A 1_555 1_555
C27A H44A 1_555 1_555
H45A C27A 1_555 1_555
C28A O5A 1_555 1_555
C29A O6A 1_555 1_555
C30A C28A 1_555 1_555
H46A C30A 1_555 1_555
H47A C30A 1_555 1_555
C31A N6A 1_555 1_555
H48A C31A 1_555 1_555
H49A C31A 1_555 1_555
C32A C25A 1_555 1_555
H50A C32A 1_555 1_555
H51A C32A 1_555 1_555
C33A C26A 1_555 1_555
H52A C33A 1_555 1_555
H53A C33A 1_555 1_555
C34A N6A 1_555 1_555
H54A C34A 1_555 1_555
H55A C34A 1_555 1_555
C35A C26A 1_555 1_555
H56A C35A 1_555 1_555
H57A C35A 1_555 1_555
H58A C35A 1_555 1_555
C36A C30A 1_555 1_555
H59A C36A 1_555 1_555
H60A C36A 1_555 1_555
O3B Na3 1_555 1_555
N3B C13B 1_555 1_555
O4B Na3 1_555 1_555
C13B H21B 1_555 1_555
C14B N3B 1_555 1_555
H22B C14B 1_555 1_555
H23B C14B 1_555 1_555
C15B N3B 1_555 1_555
N4B C16B 1_555 1_555
C16B O3B 1_555 1_555
C17B N4B 1_555 1_555
H24B C17B 1_555 1_555
H25B C17B 1_555 1_555
C18B C14B 1_555 1_555
H26B C18B 1_555 1_555
H27B C18B 1_555 1_555
C19B C13B 1_555 1_555
H28B C19B 1_555 1_555
H29B C19B 1_555 1_555
C20B N4B 1_555 1_555
H30B C20B 1_555 1_555
H31B C20B 1_555 1_555
C21B C16B 1_555 1_555
H32B C21B 1_555 1_555
H33B C21B 1_555 1_555
C22B C15B 1_555 1_555
H34B C22B 1_555 1_555
H35B C22B 1_555 1_555
C23B C13B 1_555 1_555
H36B C23B 1_555 1_555
H37B C23B 1_555 1_555
H38B C23B 1_555 1_555
C24B C17B 1_555 1_555
H39B C24B 1_555 1_555
H40B C24B 1_555 1_555
O5B Na4 1_555 1_555
O6B Na4 1_555 1_555
N5B C25B 1_555 1_555
C25B H41B 1_555 1_555
H42B C25B 1_555 1_555
N6B C28B 1_555 1_555
C26B N5B 1_555 1_555
H43B C26B 1_555 1_555
C27B H44B 1_555 1_555
H45B C27B 1_555 1_555
C28B O5B 1_555 1_555
C29B O6B 1_555 1_555
C30B C28B 1_555 1_555
H46B C30B 1_555 1_555
H47B C30B 1_555 1_555
C31B N6B 1_555 1_555
H48B C31B 1_555 1_555
H49B C31B 1_555 1_555
C32B C25B 1_555 1_555
H50B C32B 1_555 1_555
H51B C32B 1_555 1_555
C33B C26B 1_555 1_555
H52B C33B 1_555 1_555
H53B C33B 1_555 1_555
C34B N6B 1_555 1_555
H54B C34B 1_555 1_555
H55B C34B 1_555 1_555
C35B C26B 1_555 1_555
H56B C35B 1_555 1_555
H57B C35B 1_555 1_555
H58B C35B 1_555 1_555
C36B C30B 1_555 1_555
H59B C36B 1_555 1_555
H60B C36B 1_555 1_555
O4_2 Na5 1_555 1_555
O4A_2 Na5 1_555 1_555
O4B_2 Na5 1_555 1_555
Na5_2 O4 1_555 1_555
O2 Na1 1_555 1_555
C1 C11 1_555 1_555
N2 C6 1_555 1_555
C7 C9 1_555 1_555
C8 C12 1_555 1_555
Na2 O1A 1_555 1_555
Na2 O1B 1_555 1_555
O4 C15 1_555 1_555
C18 C22 1_555 1_555
C19 C20 1_555 1_555
C21 C24 1_555 1_555
Na5 O5A 1_555 1_555
Na5 O5B 1_555 1_555
O6 Na6 1_555 1_555
N5 C29 1_555 1_555
C27 C29 1_555 1_555
C27 C32 1_555 1_555
C31 C33 1_555 1_555
C34 C36 1_555 1_555
Na6 O3A 1_555 1_555
Na6 O6A 1_555 1_555
Na6 O3B 1_555 1_555
Na6 O6B 1_555 1_555
O2A Na2C 1_555 1_555
C1A C11A 1_555 1_555
C2A C6A 1_555 1_555
N2A C6A 1_555 1_555
C4A C5A 1_555 1_555
C7A C9A 1_555 1_555
C8A C12A 1_555 1_555
O2B Na2C 1_555 1_555
C1B C11B 1_555 1_555
C2B C6B 1_555 1_555
N2B C6B 1_555 1_555
C4B C5B 1_555 1_555
C7B C9B 1_555 1_555
C8B C12B 1_555 1_555
O2D Na1C 1_555 1_555
O2E Na1C 1_555 1_555
C3C C9C 1_555 1_555
C2C C8C 1_555 1_555
C10D C3D 1_555 1_555
Na1C O1C 1_555 1_555
Na1C O1D 1_555 1_555
N1D C11D 1_555 1_555
C4D C5D 1_555 1_555
C1E C5E 1_555 1_555
C1E C11E 1_555 1_555
C6E C2E 1_555 1_555
N2E C12E 1_555 1_555
N2E C3E 1_555 1_555
C3E C9E 1_555 1_555
Na2C_2 O1C 1_555 1_555
Na2C_2 O1D 1_555 1_555
C11C N1C 1_555 1_555
C4C N1C 1_555 1_555
C3D C9D 1_555 1_555
O4A C15A 1_555 1_555
O4A Na5_2 1_555 1_555
C18A C22A 1_555 1_555
C19A C20A 1_555 1_555
C21A C24A 1_555 1_555
N5A C29A 1_555 1_555
C27A C29A 1_555 1_555
C27A C32A 1_555 1_555
C31A C33A 1_555 1_555
C34A C36A 1_555 1_555
O4B C15B 1_555 1_555
O4B Na5_2 1_555 1_555
C18B C22B 1_555 1_555
C19B C20B 1_555 1_555
C21B C24B 1_555 1_555
N5B C29B 1_555 1_555
C27B C29B 1_555 1_555
C27B C32B 1_555 1_555
C31B C33B 1_555 1_555
C34B C36B 1_555 1_555

#END
