
#######################################################################
#
#                 Cambridge Crystallographic Data Centre
#                                CCDC 
#
#######################################################################
#
# If this CIF has been generated from an entry in the Cambridge 
# Structural Database, then it will include bibliographic, chemical, 
# crystal, experimental, refinement or atomic coordinate data resulting 
# from the CCDC's data processing and validation procedures.
#
#######################################################################

data_PITPEP
_symmetry_cell_setting           rhombohedral
_symmetry_space_group_name_H-M   'R -3'
_symmetry_Int_Tables_number      148
_space_group_name_Hall           '-R 3'
loop_
_symmetry_equiv_pos_site_id
_symmetry_equiv_pos_as_xyz
1 x,y,z
2 -y,x-y,z
3 -x+y,-x,z
4 2/3+x,1/3+y,1/3+z
5 2/3-y,1/3+x-y,1/3+z
6 2/3-x+y,1/3-x,1/3+z
7 1/3+x,2/3+y,2/3+z
8 1/3-y,2/3+x-y,2/3+z
9 1/3-x+y,2/3-x,2/3+z
10 -x,-y,-z
11 y,-x+y,-z
12 x-y,x,-z
13 1/3-x,2/3-y,2/3-z
14 1/3+y,2/3-x+y,2/3-z
15 1/3+x-y,2/3+x,2/3-z
16 2/3-x,1/3-y,1/3-z
17 2/3+y,1/3-x+y,1/3-z
18 2/3+x-y,1/3+x,1/3-z
_cell_length_a                   35.285(3)
_cell_length_b                   35.285(3)
_cell_length_c                   12.398(3)
_cell_angle_alpha                90
_cell_angle_beta                 90
_cell_angle_gamma                120
_cell_volume                     13367.9
loop_
_atom_site_label
_atom_site_type_symbol
_atom_site_fract_x
_atom_site_fract_y
_atom_site_fract_z
Al1 Al 0.02308(4) 0.70867(4) 0.25457(9)
O1 O -0.00001(9) 0.71804(9) 0.1159(2)
H1 H -0.0275 0.7050 0.1259
H2 H -0.0052 0.6992 0.0669
O2 O 0.08201(9) 0.74419(9) 0.5432(2)
H3 H 0.0920 0.7618 0.4934
O3 O 0.04187(9) 0.69684(9) 0.3836(2)
O4 O 0.02033(9) 0.66922(9) 0.5748(2)
O5 O 0.21548(9) 0.85873(9) 0.2601(2)
O6 O 0.19705(9) 0.85023(9) 0.4579(2)
H4 H 0.1727 0.8360 0.4309
O7 O 0.27456(9) 0.89704(9) 0.4000(2)
O8 O 0.11867(10) 0.76177(9) 0.0475(2)
H5 H 0.1231 0.7767 0.1018
O9 O 0.07002(9) 0.68870(9) -0.0217(2)
O10 O 0.06452(8) 0.70414(9) 0.1742(2)
P1 P 0.05678(4) 0.69682(4) 0.49686(8)
P2 P 0.23232(4) 0.85723(4) 0.37317(9)
P3 P 0.09341(4) 0.71243(4) 0.07884(9)
C1 C 0.13243(13) 0.70311(13) 0.4190(3)
C2 C 0.17032(13) 0.74282(14) 0.4421(3)
C3 C 0.19883(13) 0.76713(13) 0.3576(3)
C4 C 0.18845(14) 0.75189(14) 0.2505(3)
C5 C 0.15024(13) 0.71181(14) 0.2290(3)
C6 C 0.12402(13) 0.68620(13) 0.3140(3)
C7 C 0.09655(13) 0.67905(14) 0.5029(3)
H6 H 0.1095 0.6847 0.5743
H7 H 0.0822 0.6478 0.4897
C8 C 0.18116(15) 0.75854(15) 0.5579(3)
H8 H 0.1583 0.7382 0.6046
H9 H 0.1836 0.7868 0.5642
H10 H 0.2084 0.7606 0.5780
C9 C 0.23996(13) 0.81065(13) 0.3814(3)
H11 H 0.2626 0.8146 0.3307
H12 H 0.2502 0.8094 0.4532
C10 C 0.21845(15) 0.77766(15) 0.1582(4)
H13 H 0.2429 0.8040 0.1856
H14 H 0.2026 0.7850 0.1072
H15 H 0.2288 0.7603 0.1232
C11 C 0.13424(14) 0.69791(14) 0.1141(3)
H16 H 0.1218 0.6665 0.1072
H17 H 0.1588 0.7121 0.0647
C12 C 0.08679(14) 0.64012(14) 0.2953(4)
H18 H 0.0852 0.6331 0.2200
H19 H 0.0598 0.6381 0.3177
H20 H 0.0918 0.6199 0.3363
Al1D Al -0.04200(4) 0.64774(6) 0.58790(9)
Al1H Al 0.01892(6) 0.64359(4) -0.07876(9)
Al1L Al 0.31025(4) 0.95800(4) 0.41210(9)
O4H O -0.01778(13) 0.64634(9) 0.2415(2)
O7L O 0.05877(9) 0.76963(9) 0.2667(2)
O9D O -0.02203(9) 0.71465(13) 0.3116(2)
loop_
_geom_bond_atom_site_label_1
_geom_bond_atom_site_label_2
_geom_bond_site_symmetry_1
_geom_bond_site_symmetry_2
Al1 O1 1_555 1_555
O1 H1 1_555 1_555
H2 O1 1_555 1_555
O2 H3 1_555 1_555
O3 Al1 1_555 1_555
O4 P1 1_555 1_555
O5 P2 1_555 1_555
O6 H4 1_555 1_555
O7 P2 1_555 1_555
O8 H5 1_555 1_555
O9 P3 1_555 1_555
O10 Al1 1_555 1_555
P1 O2 1_555 1_555
P2 O6 1_555 1_555
P3 O8 1_555 1_555
C1 C2 1_555 1_555
C2 C3 1_555 1_555
C3 C4 1_555 1_555
C4 C5 1_555 1_555
C5 C6 1_555 1_555
C6 C1 1_555 1_555
C7 P1 1_555 1_555
H6 C7 1_555 1_555
H7 C7 1_555 1_555
C8 C2 1_555 1_555
H8 C8 1_555 1_555
H9 C8 1_555 1_555
H10 C8 1_555 1_555
C9 P2 1_555 1_555
H11 C9 1_555 1_555
H12 C9 1_555 1_555
C10 C4 1_555 1_555
H13 C10 1_555 1_555
H14 C10 1_555 1_555
H15 C10 1_555 1_555
C11 P3 1_555 1_555
H16 C11 1_555 1_555
H17 C11 1_555 1_555
C12 C6 1_555 1_555
H18 C12 1_555 1_555
H19 C12 1_555 1_555
H20 C12 1_555 1_555
Al1D O4 1_555 1_555
Al1H O9 1_555 1_555
Al1L O7 1_555 1_555
O4H Al1 1_555 1_555
O7L Al1 1_555 1_555
O9D Al1 1_555 1_555
O3 P1 1_555 1_555
O10 P3 1_555 1_555
C1 C7 1_555 1_555
C3 C9 1_555 1_555
C5 C11 1_555 1_555

#END
