
#######################################################################
#
#                 Cambridge Crystallographic Data Centre
#                                CCDC 
#
#######################################################################
#
# If this CIF has been generated from an entry in the Cambridge 
# Structural Database, then it will include bibliographic, chemical, 
# crystal, experimental, refinement or atomic coordinate data resulting 
# from the CCDC's data processing and validation procedures.
#
#######################################################################

data_PITPAL
_symmetry_cell_setting           monoclinic
_symmetry_space_group_name_H-M   'P 21/n'
_symmetry_Int_Tables_number      14
_space_group_name_Hall           '-P 2yn'
loop_
_symmetry_equiv_pos_site_id
_symmetry_equiv_pos_as_xyz
1 x,y,z
2 1/2-x,1/2+y,1/2-z
3 -x,-y,-z
4 1/2+x,1/2-y,1/2+z
_cell_length_a                   11.3180(6)
_cell_length_b                   8.6628(3)
_cell_length_c                   16.7004(9)
_cell_angle_alpha                90
_cell_angle_beta                 107.888(6)
_cell_angle_gamma                90
_cell_volume                     1558.25
loop_
_atom_site_label
_atom_site_type_symbol
_atom_site_fract_x
_atom_site_fract_y
_atom_site_fract_z
Zn1 Zn 0.87816(3) 0.35487(3) 0.13168(2)
Cl1 Cl 1.08466(6) 0.34236(8) 0.18730(5)
Cl2 Cl 0.79096(6) 0.57752(8) 0.08135(5)
O1 O 0.81083(16) 0.2867(2) 0.22324(12)
O2 O 1.32747(17) 0.3159(2) 0.54793(12)
N1 N 1.34056(19) 0.4408(3) 0.43112(14)
N2 N 0.92170(19) 0.3112(3) 0.36168(14)
C1 C 0.8841(2) 0.2331(3) 0.29055(17)
C2 C 1.3815(3) 0.4155(3) 0.35680(18)
H1 H 1.3227 0.4623 0.3060
H2 H 1.4652 0.4593 0.3652
C3 C 0.9379(3) 0.0733(3) 0.30253(19)
H3 H 0.9746 0.0470 0.2576
H4 H 0.8738 -0.0043 0.3027
C4 C 1.3828(3) 0.2396(3) 0.34959(18)
H5 H 1.3052 0.2018 0.3084
H6 H 1.4543 0.2047 0.3319
C5 C 1.3090(2) 0.5952(3) 0.45364(18)
H7 H 1.3071 0.5941 0.5125
H8 H 1.3744 0.6687 0.4503
C6 C 1.3502(2) 0.3167(3) 0.47847(17)
C7 C 0.8831(2) 0.4687(3) 0.37242(18)
H9 H 0.8808 0.4822 0.4308
H10 H 0.7982 0.4862 0.3339
C8 C 1.3940(2) 0.1819(3) 0.43834(18)
H11 H 1.4810 0.1551 0.4695
H12 H 1.3408 0.0903 0.4363
C9 C 1.0043(3) 0.2228(3) 0.43160(18)
H13 H 0.9614 0.1925 0.4726
H14 H 1.0796 0.2829 0.4610
C10 C 1.0370(3) 0.0811(4) 0.3877(2)
H15 H 1.1204 0.0928 0.3808
H16 H 1.0361 -0.0136 0.4207
C11 C 0.9701(2) 0.5859(3) 0.35459(19)
H17 H 0.9734 0.5736 0.2964
H18 H 0.9411 0.6917 0.3609
O3 O 1.09037(16) 0.5606(2) 0.41356(12)
C12 C 1.1849(2) 0.6500(3) 0.39662(18)
H19 H 1.1731 0.7605 0.4071
H20 H 1.1814 0.6377 0.3370
Zn1C Zn 1.37816(3) 0.14513(3) 0.63168(2)
O2C O 0.82747(17) 0.1841(2) 0.04793(12)
loop_
_geom_bond_atom_site_label_1
_geom_bond_atom_site_label_2
_geom_bond_site_symmetry_1
_geom_bond_site_symmetry_2
Zn1 Cl1 1_555 1_555
Cl2 Zn1 1_555 1_555
O1 Zn1 1_555 1_555
O2 C6 1_555 1_555
N1 C2 1_555 1_555
N2 C1 1_555 1_555
C1 O1 1_555 1_555
C2 H1 1_555 1_555
H2 C2 1_555 1_555
C3 C1 1_555 1_555
H3 C3 1_555 1_555
H4 C3 1_555 1_555
C4 C2 1_555 1_555
H5 C4 1_555 1_555
H6 C4 1_555 1_555
C5 N1 1_555 1_555
H7 C5 1_555 1_555
H8 C5 1_555 1_555
C6 N1 1_555 1_555
C7 N2 1_555 1_555
H9 C7 1_555 1_555
H10 C7 1_555 1_555
C8 C4 1_555 1_555
H11 C8 1_555 1_555
H12 C8 1_555 1_555
C9 N2 1_555 1_555
H13 C9 1_555 1_555
H14 C9 1_555 1_555
C10 C3 1_555 1_555
H15 C10 1_555 1_555
H16 C10 1_555 1_555
C11 C7 1_555 1_555
H17 C11 1_555 1_555
H18 C11 1_555 1_555
O3 C11 1_555 1_555
C12 C5 1_555 1_555
H19 C12 1_555 1_555
H20 C12 1_555 1_555
Zn1C O2 1_555 1_555
O2C Zn1 1_555 1_555
C6 C8 1_555 1_555
C9 C10 1_555 1_555
O3 C12 1_555 1_555

#END
