
#######################################################################
#
#                 Cambridge Crystallographic Data Centre
#                                CCDC 
#
#######################################################################
#
# If this CIF has been generated from an entry in the Cambridge 
# Structural Database, then it will include bibliographic, chemical, 
# crystal, experimental, refinement or atomic coordinate data resulting 
# from the CCDC's data processing and validation procedures.
#
#######################################################################

data_PITRIV01
_symmetry_cell_setting           triclinic
_symmetry_space_group_name_H-M   'P -1'
_symmetry_Int_Tables_number      2
_space_group_name_Hall           '-P 1'
loop_
_symmetry_equiv_pos_site_id
_symmetry_equiv_pos_as_xyz
1 x,y,z
2 -x,-y,-z
_cell_length_a                   9.042(2)
_cell_length_b                   10.886(3)
_cell_length_c                   11.504(3)
_cell_angle_alpha                92.538(10)
_cell_angle_beta                 107.026(9)
_cell_angle_gamma                104.393(9)
_cell_volume                     1040.33
loop_
_atom_site_label
_atom_site_type_symbol
_atom_site_fract_x
_atom_site_fract_y
_atom_site_fract_z
Zn1 Zn 0.66365(2) 0.663648(19) 0.110969(18)
S1 S 0.93657(5) 0.18951(4) 0.50169(4)
S2 S 1.09336(5) 0.32386(4) 0.44640(4)
O1 O 0.26933(17) 0.28662(12) 0.03017(12)
O2 O 0.26537(19) 0.34881(15) 0.21563(13)
O3 O 0.43828(15) 0.57092(13) 0.07680(13)
O4 O 0.37790(18) 0.75517(14) 0.09631(17)
N1 N 0.78970(17) 0.55388(14) 0.21196(13)
N2 N 0.74941(18) -0.16735(14) 0.22294(14)
C1 C 0.16442(19) 0.56363(16) 0.03833(15)
C2 C 1.0453(2) 0.52544(16) 0.32629(15)
H1 H 1.1568 0.5561 0.3545
C3 C 0.8681(2) 0.05611(16) 0.38722(15)
C4 C 0.11504(19) 0.43293(16) 0.04841(14)
C5 C 0.9522(2) 0.59508(16) 0.25554(15)
H2 H 1.0035 0.6735 0.2372
C6 C 0.9676(2) 0.40769(16) 0.35434(15)
C7 C 0.3391(2) 0.63771(17) 0.07420(15)
C8 C 0.7161(2) 0.44062(17) 0.23972(17)
H3 H 0.6044 0.4122 0.2106
C9 C 0.7454(2) -0.04431(17) 0.40001(16)
H4 H 0.7018 -0.0375 0.4631
C10 C 0.2282(2) 0.35372(16) 0.10330(15)
C11 C 0.0493(2) 0.62884(16) -0.01012(15)
H5 H 0.0831 0.7154 -0.0169
C12 C 0.8001(2) 0.36484(17) 0.30995(18)
H6 H 0.7458 0.2869 0.3272
C13 C 0.8666(2) -0.06996(17) 0.21115(17)
H7 H 0.9074 -0.0789 0.1468
C14 C 0.9299(2) 0.04366(17) 0.29056(17)
H8 H 1.0109 0.1094 0.2797
C15 C 0.6901(2) -0.15403(17) 0.31692(16)
H9 H 0.6092 -0.2212 0.3258
O3A O -0.43828(15) 0.42908(13) -0.07680(13)
O4A O -0.37790(18) 0.24483(14) -0.09631(17)
C1A C -0.16442(19) 0.43637(16) -0.03833(15)
C4A C -0.11504(19) 0.56707(16) -0.04841(14)
C7A C -0.3391(2) 0.36229(17) -0.07420(15)
C11A C -0.0493(2) 0.37116(16) 0.01012(15)
H5A H -0.0831 0.2846 0.0169
O1A O -0.26933(17) 0.71338(12) -0.03017(12)
O2A O -0.26537(19) 0.65119(15) -0.21563(13)
C10A C -0.2282(2) 0.64628(16) -0.10330(15)
Zn1A Zn -0.66365(2) 0.336352(19) -0.110969(18)
S1A S -0.93657(5) 0.81049(4) -0.50169(4)
S2A S -1.09336(5) 0.67614(4) -0.44640(4)
N1A N -0.78970(17) 0.44612(14) -0.21196(13)
N2A N -0.74941(18) 1.16735(14) -0.22294(14)
C2A C -1.0453(2) 0.47456(16) -0.32629(15)
H1A H -1.1568 0.4439 -0.3545
C3A C -0.8681(2) 0.94389(16) -0.38722(15)
C5A C -0.9522(2) 0.40492(16) -0.25554(15)
H2A H -1.0035 0.3265 -0.2372
C6A C -0.9676(2) 0.59231(16) -0.35434(15)
C8A C -0.7161(2) 0.55938(17) -0.23972(17)
H3A H -0.6044 0.5878 -0.2106
C9A C -0.7454(2) 1.04431(17) -0.40001(16)
H4A H -0.7018 1.0375 -0.4631
C12A C -0.8001(2) 0.63516(17) -0.30995(18)
H6A H -0.7458 0.7131 -0.3272
C13A C -0.8666(2) 1.06996(17) -0.21115(17)
H7A H -0.9074 1.0789 -0.1468
C14A C -0.9299(2) 0.95634(17) -0.29056(17)
H8A H -1.0109 0.8906 -0.2797
C15A C -0.6901(2) 1.15403(17) -0.31692(16)
H9A H -0.6092 1.2212 -0.3258
Zn1_2 Zn -0.33635(2) 0.663648(19) 0.110969(18)
Zn1_3 Zn 0.66365(2) -0.336352(19) 0.110969(18)
Zn1A_2 Zn -0.66365(2) 1.336352(19) -0.110969(18)
Zn1A_3 Zn 0.33635(2) 0.336352(19) -0.110969(18)
O1_2 O -0.73067(17) 0.28662(12) 0.03017(12)
O1A_2 O 0.73067(17) 0.71338(12) -0.03017(12)
N2_2 N 0.74941(18) 0.83265(14) 0.22294(14)
N2A_2 N -0.74941(18) 0.16735(14) -0.22294(14)
O5 O 0.7496(3) 0.1231(2) 0.7437(2)
H10 H 0.711(4) 0.145(3) 0.798(3)
H11 H 0.707(5) 0.061(4) 0.737(3)
O6 O 0.5837(3) 0.2256(3) 0.5415(2)
O7 O 0.4727(4) 0.5605(4) 0.3898(3)
H12 H 0.418(5) 0.494(4) 0.344(4)
H13 H 0.4845(17) 0.5168(12) 0.4063(12)
O8 O 0.3998(4) 0.1478(3) 0.3014(3)
H14 H 0.349(6) 0.215(5) 0.266(4)
H15 H 0.418(2) 0.1391(18) 0.2556(17)
O9 O 0.5282(5) 0.0652(4) 0.0917(5)
loop_
_geom_bond_atom_site_label_1
_geom_bond_atom_site_label_2
_geom_bond_site_symmetry_1
_geom_bond_site_symmetry_2
Zn1 O3 1_555 1_555
S1 S2 1_555 1_555
S2 C6 1_555 1_555
O1 C10 1_555 1_555
O2 C10 1_555 1_555
O3 C7 1_555 1_555
O4 C7 1_555 1_555
N1 Zn1 1_555 1_555
N2 C13 1_555 1_555
C1 C4 1_555 1_555
C2 H1 1_555 1_555
C3 S1 1_555 1_555
C4 C10 1_555 1_555
C5 N1 1_555 1_555
H2 C5 1_555 1_555
C6 C2 1_555 1_555
C7 C1 1_555 1_555
C8 N1 1_555 1_555
H3 C8 1_555 1_555
C9 C3 1_555 1_555
H4 C9 1_555 1_555
C11 C1 1_555 1_555
H5 C11 1_555 1_555
C12 C6 1_555 1_555
H6 C12 1_555 1_555
C13 H7 1_555 1_555
C14 C3 1_555 1_555
H8 C14 1_555 1_555
C15 N2 1_555 1_555
H9 C15 1_555 1_555
O5 H10 1_555 1_555
H11 O5 1_555 1_555
O7 H12 1_555 1_555
H13 O7 1_555 1_555
O8 H14 1_555 1_555
H15 O8 1_555 1_555
O3A C7A 1_555 1_555
O4A C7A 1_555 1_555
C1A C4A 1_555 1_555
C4A C11 1_555 1_555
C7A C1A 1_555 1_555
C11A C4 1_555 1_555
H5A C11A 1_555 1_555
O1A C10A 1_555 1_555
O2A C10A 1_555 1_555
C10A C4A 1_555 1_555
Zn1A O3A 1_555 1_555
S1A S2A 1_555 1_555
S2A C6A 1_555 1_555
N1A Zn1A 1_555 1_555
N2A C13A 1_555 1_555
C2A H1A 1_555 1_555
C3A S1A 1_555 1_555
C5A N1A 1_555 1_555
H2A C5A 1_555 1_555
C6A C2A 1_555 1_555
C8A N1A 1_555 1_555
H3A C8A 1_555 1_555
C9A C3A 1_555 1_555
H4A C9A 1_555 1_555
C12A C6A 1_555 1_555
H6A C12A 1_555 1_555
C13A H7A 1_555 1_555
C14A C3A 1_555 1_555
H8A C14A 1_555 1_555
C15A N2A 1_555 1_555
H9A C15A 1_555 1_555
Zn1_2 O1A 1_555 1_555
Zn1_3 N2 1_555 1_555
Zn1A_2 N2A 1_555 1_555
Zn1A_3 O1 1_555 1_555
O1_2 Zn1A 1_555 1_555
O1A_2 Zn1 1_555 1_555
N2_2 Zn1 1_555 1_555
N2A_2 Zn1A 1_555 1_555
C2 C5 1_555 1_555
C8 C12 1_555 1_555
C9 C15 1_555 1_555
C13 C14 1_555 1_555
C1A C11A 1_555 1_555
C2A C5A 1_555 1_555
C8A C12A 1_555 1_555
C9A C15A 1_555 1_555
C13A C14A 1_555 1_555

#END
