
#######################################################################
#
#                 Cambridge Crystallographic Data Centre
#                                CCDC 
#
#######################################################################
#
# If this CIF has been generated from an entry in the Cambridge 
# Structural Database, then it will include bibliographic, chemical, 
# crystal, experimental, refinement or atomic coordinate data resulting 
# from the CCDC's data processing and validation procedures.
#
#######################################################################

data_PITVOD
_symmetry_cell_setting           monoclinic
_symmetry_space_group_name_H-M   'C 2/m'
_symmetry_Int_Tables_number      12
_space_group_name_Hall           '-C 2y'
loop_
_symmetry_equiv_pos_site_id
_symmetry_equiv_pos_as_xyz
1 x,y,z
2 -x,y,-z
3 1/2+x,1/2+y,z
4 1/2-x,1/2+y,-z
5 -x,-y,-z
6 x,-y,z
7 1/2-x,1/2-y,-z
8 1/2+x,1/2-y,z
_cell_length_a                   20.148(5)
_cell_length_b                   7.547(1)
_cell_length_c                   14.156(2)
_cell_angle_alpha                90
_cell_angle_beta                 112.23(2)
_cell_angle_gamma                90
_cell_volume                     1992.53
loop_
_atom_site_label
_atom_site_type_symbol
_atom_site_fract_x
_atom_site_fract_y
_atom_site_fract_z
Mn1 Mn 1.0000 0.0000 0.0000
O1 O 1.0705(2) 0.0000 0.1327(3)
O2 O 0.9352(2) 0.0000 0.0673(3)
C1 C 1.0443(3) 0.0000 0.2060(4)
C2 C 0.9663(3) 0.0000 0.1686(4)
C3 C 0.9315(4) 0.0000 0.2360(5)
C4 C 0.9741(5) 0.0000 0.3387(5)
C5 C 1.0494(4) 0.0000 0.3742(5)
C6 C 1.0855(4) 0.0000 0.3105(4)
C7 C 0.8493(4) 0.0000 0.1972(6)
C8 C 0.8220(5) 0.0000 0.2835(6)
C9 C 0.8198(3) -0.1630(11) 0.1322(5)
C10 C 1.1682(4) 0.0000 0.3479(5)
C11 C 1.2028(4) 0.0000 0.4649(5)
C12 C 1.1937(3) -0.1625(10) 0.3108(4)
N1 N 1.0000 -0.3148(7) 0.0000
C13 C 1.0596(3) -0.4083(7) 0.0264(4)
H1 H 0.9512 0.0000 0.3870
H2 H 1.0767 0.0000 0.4464
H3 H 0.7705 0.0000 0.2575
H4 H 0.8397 0.1039 0.3244
H5 H 0.8397 -0.1039 0.3244
H6 H 0.7684 -0.1634 0.1076
H7 H 0.8382 -0.2667 0.1730
H8 H 0.8347 -0.1628 0.0753
H9 H 1.2542 0.0000 0.4886
H10 H 1.1871 -0.1039 0.4897
H11 H 1.1871 0.1039 0.4897
H12 H 1.1742 -0.1646 0.2376
H13 H 1.1772 -0.2643 0.3363
H14 H 1.2451 -0.1642 0.3352
H15 H 1.1137 -0.3409 0.0576
O1A O 0.9295(2) 0.0000 -0.1327(3)
C1A C 0.9557(3) 0.0000 -0.2060(4)
C2A C 1.0337(3) 0.0000 -0.1686(4)
O2A O 1.0648(2) 0.0000 -0.0673(3)
C13E C 1.0596(3) -0.5917(7) 0.0264(4)
N1E N 1.0000 -0.6852(7) 0.0000
Mn1E Mn 1.0000 -1.0000 0.0000
C13D C 0.9404(3) -0.5917(7) -0.0264(4)
C13A C 0.9404(3) -0.4083(7) -0.0264(4)
H15A H 0.8863 -0.3409 -0.0576
H15D H 0.8863 -0.6591 -0.0576
H15E H 1.1137 -0.6591 0.0576
N1D N 1.0000 0.3148(7) 0.0000
C3A C 1.0685(4) 0.0000 -0.2360(5)
C4A C 1.0259(5) 0.0000 -0.3387(5)
C5A C 0.9506(4) 0.0000 -0.3742(5)
C6A C 0.9145(4) 0.0000 -0.3105(4)
C10A C 0.8318(4) 0.0000 -0.3479(5)
C11A C 0.7972(4) 0.0000 -0.4649(5)
H9A H 0.7458 0.0000 -0.4886
H10A H 0.8129 -0.1039 -0.4897
H10D H 0.8129 0.1039 -0.4897
C12A C 0.8063(3) -0.1625(10) -0.3108(4)
H12A H 0.8258 -0.1646 -0.2376
H13A H 0.8228 -0.2643 -0.3363
H14A H 0.7549 -0.1642 -0.3352
C12D C 0.8063(3) 0.1625(10) -0.3108(4)
H12D H 0.8258 0.1646 -0.2376
H13D H 0.8228 0.2643 -0.3363
H14D H 0.7549 0.1642 -0.3352
H2A H 0.9233 0.0000 -0.4464
H1A H 1.0488 0.0000 -0.3870
C7A C 1.1507(4) 0.0000 -0.1972(6)
C8A C 1.1780(5) 0.0000 -0.2835(6)
H3A H 1.2295 0.0000 -0.2575
H4A H 1.1603 0.1039 -0.3244
H4D H 1.1603 -0.1039 -0.3244
C9A C 1.1802(3) -0.1630(11) -0.1322(5)
H6A H 1.2316 -0.1634 -0.1076
H7A H 1.1618 -0.2667 -0.1730
H8A H 1.1653 -0.1628 -0.0753
C9D C 1.1802(3) 0.1630(11) -0.1322(5)
H6D H 1.2316 0.1634 -0.1076
H7D H 1.1618 0.2667 -0.1730
H8D H 1.1653 0.1628 -0.0753
C12E C 1.1937(3) 0.1625(10) 0.3108(4)
H12E H 1.1742 0.1646 0.2376
H13E H 1.1772 0.2643 0.3363
H14E H 1.2451 0.1642 0.3352
C9E C 0.8198(3) 0.1630(11) 0.1322(5)
H6E H 0.7684 0.1634 0.1076
H7E H 0.8382 0.2667 0.1730
H8E H 0.8347 0.1628 0.0753
C14 C 0.4883(10) 0.0000 0.4381(14)
C15 C 0.5458(11) 0.0000 0.4061(17)
C16 C 0.5128(10) 0.0000 0.2776(11)
C14A C 0.5117(10) 0.0000 0.5619(14)
C15A C 0.4542(11) 0.0000 0.5939(17)
C16A C 0.4872(10) 0.0000 0.7224(11)
loop_
_geom_bond_atom_site_label_1
_geom_bond_atom_site_label_2
_geom_bond_site_symmetry_1
_geom_bond_site_symmetry_2
Mn1 O1 1_555 1_555
O1 C1 1_555 1_555
O2 Mn1 1_555 1_555
C1 C2 1_555 1_555
C2 O2 1_555 1_555
C3 C2 1_555 1_555
C4 C3 1_555 1_555
C5 C4 1_555 1_555
C6 C1 1_555 1_555
C7 C3 1_555 1_555
C8 C7 1_555 1_555
C9 C7 1_555 1_555
C10 C6 1_555 1_555
C11 C10 1_555 1_555
C12 C10 1_555 1_555
N1 Mn1 1_555 1_555
C13 N1 1_555 1_555
C14 C15 1_555 1_555
C15 C16 1_555 1_555
H1 C4 1_555 1_555
H2 C5 1_555 1_555
H3 C8 1_555 1_555
H4 C8 1_555 1_555
H5 C8 1_555 1_555
H6 C9 1_555 1_555
H7 C9 1_555 1_555
H8 C9 1_555 1_555
H9 C11 1_555 1_555
H10 C11 1_555 1_555
H11 C11 1_555 1_555
H12 C12 1_555 1_555
H13 C12 1_555 1_555
H14 C12 1_555 1_555
H15 C13 1_555 1_555
O1A Mn1 1_555 1_555
C1A O1A 1_555 1_555
C2A C1A 1_555 1_555
O2A Mn1 1_555 1_555
C13E C13 1_555 1_555
N1E C13E 1_555 1_555
Mn1E N1E 1_555 1_555
C13D N1E 1_555 1_555
C13A N1 1_555 1_555
H15A C13A 1_555 1_555
H15D C13D 1_555 1_555
H15E C13E 1_555 1_555
N1D Mn1 1_555 1_555
C3A C2A 1_555 1_555
C4A C3A 1_555 1_555
C5A C4A 1_555 1_555
C6A C1A 1_555 1_555
C10A C6A 1_555 1_555
C11A C10A 1_555 1_555
H9A C11A 1_555 1_555
H10A C11A 1_555 1_555
H10D C11A 1_555 1_555
C12A C10A 1_555 1_555
H12A C12A 1_555 1_555
H13A C12A 1_555 1_555
H14A C12A 1_555 1_555
C12D C10A 1_555 1_555
H12D C12D 1_555 1_555
H13D C12D 1_555 1_555
H14D C12D 1_555 1_555
H2A C5A 1_555 1_555
H1A C4A 1_555 1_555
C7A C3A 1_555 1_555
C8A C7A 1_555 1_555
H3A C8A 1_555 1_555
H4A C8A 1_555 1_555
H4D C8A 1_555 1_555
C9A C7A 1_555 1_555
H6A C9A 1_555 1_555
H7A C9A 1_555 1_555
H8A C9A 1_555 1_555
C9D C7A 1_555 1_555
H6D C9D 1_555 1_555
H7D C9D 1_555 1_555
H8D C9D 1_555 1_555
C12E C10 1_555 1_555
H12E C12E 1_555 1_555
H13E C12E 1_555 1_555
H14E C12E 1_555 1_555
C9E C7 1_555 1_555
H6E C9E 1_555 1_555
H7E C9E 1_555 1_555
H8E C9E 1_555 1_555
C14A C14 1_555 1_555
C15A C14A 1_555 1_555
C16A C15A 1_555 1_555
C5 C6 1_555 1_555
C2A O2A 1_555 1_555
C13D C13A 1_555 1_555
C5A C6A 1_555 1_555

#END
