
#######################################################################
#
#                 Cambridge Crystallographic Data Centre
#                                CCDC 
#
#######################################################################
#
# If this CIF has been generated from an entry in the Cambridge 
# Structural Database, then it will include bibliographic, chemical, 
# crystal, experimental, refinement or atomic coordinate data resulting 
# from the CCDC's data processing and validation procedures.
#
#######################################################################

data_PITXIZ01
_symmetry_cell_setting           orthorhombic
_symmetry_space_group_name_H-M   'I m m m'
_symmetry_Int_Tables_number      71
_space_group_name_Hall           '-I 2 2'
loop_
_symmetry_equiv_pos_site_id
_symmetry_equiv_pos_as_xyz
1 x,y,z
2 -x,y,z
3 x,-y,z
4 x,y,-z
5 1/2+x,1/2+y,1/2+z
6 1/2-x,1/2+y,1/2+z
7 1/2+x,1/2-y,1/2+z
8 1/2+x,1/2+y,1/2-z
9 -x,-y,-z
10 x,-y,-z
11 -x,y,-z
12 -x,-y,z
13 1/2-x,1/2-y,1/2-z
14 1/2+x,1/2-y,1/2-z
15 1/2-x,1/2+y,1/2-z
16 1/2-x,1/2-y,1/2+z
_cell_length_a                   5.70042(10)
_cell_length_b                   8.41302(21)
_cell_length_c                   17.4580(4)
_cell_angle_alpha                90
_cell_angle_beta                 90
_cell_angle_gamma                90
_cell_volume                     837.246
loop_
_atom_site_label
_atom_site_type_symbol
_atom_site_fract_x
_atom_site_fract_y
_atom_site_fract_z
Cu1 Cu 0.00000 0.0000 0.18794(15)
Cl1 Cl 0.00000 0.0000 0.3158(4)
Cl2 Cl -0.50000 0.0000 0.17046(34)
N1 N 0.00000 0.0000 0.07702(20)
N2 N 0.00000 0.2405(6) 0.16934(33)
C1 C 0.00000 0.1391(4) 0.03895(18)
C2 C 0.00000 0.2827(8) 0.0895(4)
Cl2_2 Cl 0.50000 0.0000 0.17046(34)
N2B N 0.00000 -0.2405(6) 0.16934(33)
C1B C 0.00000 -0.1391(4) 0.03895(18)
C1C C 0.00000 0.1391(4) -0.03895(18)
Cu1_2 Cu -1.00000 0.0000 0.18794(15)
C2B C 0.00000 -0.2827(8) 0.0895(4)
C1H C 0.00000 -0.1391(4) -0.03895(18)
N1C N 0.00000 0.0000 -0.07702(20)
C2C C 0.00000 0.2827(8) -0.0895(4)
C2H C 0.00000 -0.2827(8) -0.0895(4)
Cu1C Cu 0.00000 0.0000 -0.18794(15)
N2C N 0.00000 0.2405(6) -0.16934(33)
N2H N 0.00000 -0.2405(6) -0.16934(33)
Cl1C Cl 0.00000 0.0000 -0.3158(4)
Cl2C Cl -0.50000 0.0000 -0.17046(34)
Cl2C_2 Cl 0.50000 0.0000 -0.17046(34)
Cu1C_2 Cu -1.00000 0.0000 -0.18794(15)
O1 O 0.50000 0.5000 0.00000
O2 O 0.50000 0.1880(25) 0.00000
O3 O 0.00000 0.5000 0.1965(33)
loop_
_geom_bond_atom_site_label_1
_geom_bond_atom_site_label_2
_geom_bond_site_symmetry_1
_geom_bond_site_symmetry_2
Cu1 Cl1 1_555 1_555
Cl2 Cu1 1_555 1_555
N1 Cu1 1_555 1_555
N2 Cu1 1_555 1_555
C1 N1 1_555 1_555
C2 N2 1_555 1_555
Cl2_2 Cu1 1_555 1_555
N2B Cu1 1_555 1_555
C1B N1 1_555 1_555
C1C C1 1_555 1_555
Cu1_2 Cl2 1_555 1_555
C2B N2B 1_555 1_555
C1H C1B 1_555 1_555
N1C C1C 1_555 1_555
C2C C1C 1_555 1_555
C2H C1H 1_555 1_555
Cu1C N1C 1_555 1_555
N2C C2C 1_555 1_555
N2H C2H 1_555 1_555
Cl1C Cu1C 1_555 1_555
Cl2C Cu1C 1_555 1_555
Cl2C_2 Cu1C 1_555 1_555
Cu1C_2 Cl2C 1_555 1_555
C1 C2 1_555 1_555
C1B C2B 1_555 1_555
C1H N1C 1_555 1_555
Cu1C N2C 1_555 1_555
Cu1C N2H 1_555 1_555

#END
