
#######################################################################
#
#                 Cambridge Crystallographic Data Centre
#                                CCDC 
#
#######################################################################
#
# If this CIF has been generated from an entry in the Cambridge 
# Structural Database, then it will include bibliographic, chemical, 
# crystal, experimental, refinement or atomic coordinate data resulting 
# from the CCDC's data processing and validation procedures.
#
#######################################################################

data_PITYUN04
_symmetry_cell_setting           tetragonal
_symmetry_space_group_name_H-M   'I -4 2 d'
_symmetry_Int_Tables_number      122
_space_group_name_Hall           'I -4 2bw'
loop_
_symmetry_equiv_pos_site_id
_symmetry_equiv_pos_as_xyz
1 x,y,z
2 1/2+x,1/2+y,1/2+z
3 -x,-y,z
4 1/2-x,1/2-y,1/2+z
5 y,-x,-z
6 -y,x,-z
7 1/2+y,1/2-x,1/2-z
8 1/2-y,1/2+x,1/2-z
9 x,1/2-y,1/4-z
10 1/2-x,y,3/4-z
11 1/2+x,-y,3/4-z
12 -x,1/2+y,1/4-z
13 -y,1/2-x,1/4+z
14 1/2+y,x,3/4+z
15 1/2-y,-x,3/4+z
16 y,1/2+x,1/4+z
_cell_length_a                   13.300(2)
_cell_length_b                   13.300(2)
_cell_length_c                   39.569(7)
_cell_angle_alpha                90
_cell_angle_beta                 90
_cell_angle_gamma                90
_cell_volume                     6999.36
loop_
_atom_site_label
_atom_site_type_symbol
_atom_site_fract_x
_atom_site_fract_y
_atom_site_fract_z
Ag1 Ag 0.5000 1.0000 0.9014(1)
Ag2 Ag 0.1180(1) 0.8596(1) 0.9948(1)
F1 F 0.5181(4) 0.7875(3) 0.8593(1)
F2 F 0.6644(4) 0.8424(4) 0.8480(1)
F3 F 0.5842(4) 0.7671(3) 0.8102(1)
F4 F 0.3759(3) 0.8030(3) 0.9086(1)
F5 F 0.2193(3) 0.7859(4) 0.9193(2)
F6 F 0.3270(5) 0.7439(3) 0.9541(1)
F7 F 0.3913(5) 1.2048(3) 0.9291(1)
F8 F 0.3259(3) 1.2308(3) 0.9775(1)
F9 F 0.4703(3) 1.1656(4) 0.9723(2)
N1 N 0.5000 1.0000 0.8452(2)
N2 N 0.3671(3) 0.9938(4) 0.9377(1)
N3 N 0.2385(3) 0.9398(3) 0.9687(1)
N4 N 0.2566(4) 1.0374(3) 0.9773(1)
N5 N 0.5178(3) 0.9508(3) 0.7919(1)
C1 C 0.5289(4) 0.9278(4) 0.8242(1)
C2 C 0.5730(5) 0.8301(5) 0.8351(2)
C3 C 0.3057(4) 0.9172(5) 0.9456(2)
C4 C 0.3074(5) 0.8140(5) 0.9303(2)
C5 C 0.3324(4) 1.0662(4) 0.9582(1)
C6 C 0.3774(5) 1.1673(5) 0.9593(2)
Ag2B Ag 0.8820(1) 1.1404(1) 0.9948(1)
Ag2E Ag 0.1404(1) 1.1180(1) 1.0052(1)
Ag2D Ag 0.8596(1) 0.8820(1) 1.0052(1)
F1B F 0.4819(4) 1.2125(3) 0.8593(1)
F2B F 0.3356(4) 1.1576(4) 0.8480(1)
F3B F 0.4158(4) 1.2329(3) 0.8102(1)
F4B F 0.6241(3) 1.1970(3) 0.9086(1)
F5B F 0.7807(3) 1.2141(4) 0.9193(2)
F6B F 0.6730(5) 1.2561(3) 0.9541(1)
F7B F 0.6087(5) 0.7952(3) 0.9291(1)
F8B F 0.6741(3) 0.7692(3) 0.9775(1)
F9B F 0.5297(3) 0.8344(4) 0.9723(2)
N2B N 0.6329(3) 1.0062(4) 0.9377(1)
N3B N 0.7615(3) 1.0602(3) 0.9687(1)
N4B N 0.7434(4) 0.9626(3) 0.9773(1)
N4D N 0.0374(3) 0.7434(4) 1.0227(1)
N4E N 0.9626(3) 1.2566(4) 1.0227(1)
N5B N 0.4822(3) 1.0492(3) 0.7919(1)
C1B C 0.4711(4) 1.0722(4) 0.8242(1)
C2B C 0.4270(5) 1.1699(5) 0.8351(2)
C3B C 0.6943(4) 1.0828(5) 0.9456(2)
C4B C 0.6926(5) 1.1860(5) 0.9303(2)
C5B C 0.6676(4) 0.9338(4) 0.9582(1)
C6B C 0.6226(5) 0.8327(5) 0.9593(2)
loop_
_geom_bond_atom_site_label_1
_geom_bond_atom_site_label_2
_geom_bond_site_symmetry_1
_geom_bond_site_symmetry_2
Ag1 N1 1_555 1_555
Ag2 N3 1_555 1_555
F1 C2 1_555 1_555
F2 C2 1_555 1_555
F3 C2 1_555 1_555
F4 C4 1_555 1_555
F5 C4 1_555 1_555
F6 C4 1_555 1_555
F7 C6 1_555 1_555
F8 C6 1_555 1_555
F9 C6 1_555 1_555
N1 C1 1_555 1_555
N2 Ag1 1_555 1_555
N3 N4 1_555 1_555
N4 C5 1_555 1_555
N5 C1 1_555 1_555
C1 C2 1_555 1_555
C3 N2 1_555 1_555
C4 C3 1_555 1_555
C5 N2 1_555 1_555
C6 C5 1_555 1_555
Ag2B N3B 1_555 1_555
Ag2E N4 1_555 1_555
Ag2D N4B 1_555 1_555
F1B C2B 1_555 1_555
F2B C2B 1_555 1_555
F3B C2B 1_555 1_555
F4B C4B 1_555 1_555
F5B C4B 1_555 1_555
F6B C4B 1_555 1_555
F7B C6B 1_555 1_555
F8B C6B 1_555 1_555
F9B C6B 1_555 1_555
N2B Ag1 1_555 1_555
N3B N4B 1_555 1_555
N4B C5B 1_555 1_555
N4D Ag2 1_555 1_555
N4E Ag2B 1_555 1_555
N5B N5 1_555 1_555
C1B N1 1_555 1_555
C2B C1B 1_555 1_555
C3B N2B 1_555 1_555
C4B C3B 1_555 1_555
C5B N2B 1_555 1_555
C6B C5B 1_555 1_555
N3 C3 1_555 1_555
N3B C3B 1_555 1_555
N5B C1B 1_555 1_555

#END
