
#######################################################################
#
#                 Cambridge Crystallographic Data Centre
#                                CCDC 
#
#######################################################################
#
# If this CIF has been generated from an entry in the Cambridge 
# Structural Database, then it will include bibliographic, chemical, 
# crystal, experimental, refinement or atomic coordinate data resulting 
# from the CCDC's data processing and validation procedures.
#
#######################################################################

data_PITYUN02
_symmetry_cell_setting           tetragonal
_symmetry_space_group_name_H-M   'I -4 2 d'
_symmetry_Int_Tables_number      122
_space_group_name_Hall           'I -4 2bw'
loop_
_symmetry_equiv_pos_site_id
_symmetry_equiv_pos_as_xyz
1 x,y,z
2 -x,-y,z
3 y,-x,-z
4 -y,x,-z
5 1/2-x,y,3/4-z
6 1/2+x,-y,3/4-z
7 1/2-y,-x,3/4+z
8 1/2+y,x,3/4+z
9 1/2+x,1/2+y,1/2+z
10 1/2-x,1/2-y,1/2+z
11 1/2+y,1/2-x,1/2-z
12 1/2-y,1/2+x,1/2-z
13 -x,1/2+y,1/4-z
14 x,1/2-y,1/4-z
15 -y,1/2-x,1/4+z
16 y,1/2+x,1/4+z
_cell_length_a                   13.4026(7)
_cell_length_b                   13.4026(7)
_cell_length_c                   39.218(4)
_cell_angle_alpha                90
_cell_angle_beta                 90
_cell_angle_gamma                90
_cell_volume                     7044.72
loop_
_atom_site_label
_atom_site_type_symbol
_atom_site_fract_x
_atom_site_fract_y
_atom_site_fract_z
Ag1 Ag 0.0000 0.5000 0.09733(3)
Ag2 Ag -0.13881(7) 0.38274(7) 0.24463(3)
N1 N 0.0000 0.5000 0.1537(3)
N2 N -0.0487(7) 0.5189(8) 0.2075(3)
N3 N 0.0069(9) 0.6330(7) 0.0615(2)
N4 N -0.0383(8) 0.7446(8) 0.0226(3)
N5 N 0.0593(8) 0.7624(8) 0.0308(3)
C1 C -0.0716(10) 0.5296(10) 0.1750(3)
C2 C -0.1682(11) 0.5742(12) 0.1643(4)
C3 C -0.0632(10) 0.6683(9) 0.0412(3)
C4 C 0.0821(10) 0.6930(10) 0.0539(3)
C5 C 0.1849(12) 0.6913(12) 0.0697(4)
C6 C -0.1664(11) 0.6257(12) 0.0396(4)
F1 F -0.1556(8) 0.6636(9) 0.1520(3)
F2 F -0.2092(6) 0.5221(9) 0.1399(2)
F3 F -0.2298(7) 0.5878(10) 0.1891(2)
F4 F 0.2120(9) 0.7797(8) 0.0797(4)
F5 F 0.2542(8) 0.6710(11) 0.0464(3)
F6 F 0.1949(7) 0.6247(7) 0.0911(2)
F7 F -0.2033(8) 0.6095(13) 0.0688(3)
F8 F -0.1630(9) 0.5316(8) 0.0274(4)
F9 F -0.2286(7) 0.6739(7) 0.0212(3)
Ag2A Ag 0.13881(7) 0.61726(7) 0.24463(3)
Ag2J Ag -0.11726(7) 0.63881(7) 0.25537(3)
Ag2G Ag -0.11726(7) 0.86119(7) -0.00537(3)
Ag2L Ag 0.13881(7) 0.88274(7) 0.00537(3)
Ag2K Ag 0.11726(7) 0.36119(7) 0.25537(3)
Ag2F Ag 0.11726(7) 0.13881(7) -0.00537(3)
Ag2M Ag -0.13881(7) 0.11726(7) 0.00537(3)
N2A N 0.0487(7) 0.4811(8) 0.2075(3)
N2K N -0.0189(8) 0.4513(7) 0.2925(3)
N2J N 0.0189(8) 0.5487(7) 0.2925(3)
N3A N -0.0069(9) 0.3670(7) 0.0615(2)
N4A N 0.0383(8) 0.2554(8) 0.0226(3)
N4O N -0.2554(8) 0.4617(8) 0.2726(3)
N4N N 0.2554(8) 0.5383(8) 0.2726(3)
N5A N -0.0593(8) 0.2376(8) 0.0308(3)
N5L N -0.0593(8) 0.2624(8) 0.2192(3)
N5M N 0.0593(8) 0.7376(8) 0.2192(3)
C1A C 0.0716(10) 0.4704(10) 0.1750(3)
C2A C 0.1682(11) 0.4258(12) 0.1643(4)
C3A C 0.0632(10) 0.3317(9) 0.0412(3)
C4A C -0.0821(10) 0.3070(10) 0.0539(3)
C5A C -0.1849(12) 0.3087(12) 0.0697(4)
C6A C 0.1664(11) 0.3743(12) 0.0396(4)
F1A F 0.1556(8) 0.3364(9) 0.1520(3)
F2A F 0.2092(6) 0.4779(9) 0.1399(2)
F3A F 0.2298(7) 0.4122(10) 0.1891(2)
F4A F -0.2120(9) 0.2203(8) 0.0797(4)
F5A F -0.2542(8) 0.3290(11) 0.0464(3)
F6A F -0.1949(7) 0.3753(7) 0.0911(2)
F7A F 0.2033(8) 0.3905(13) 0.0688(3)
F8A F 0.1630(9) 0.4684(8) 0.0274(4)
F9A F 0.2286(7) 0.3261(7) 0.0212(3)
loop_
_geom_bond_atom_site_label_1
_geom_bond_atom_site_label_2
_geom_bond_site_symmetry_1
_geom_bond_site_symmetry_2
Ag1 N1 1_555 1_555
Ag2 N2 1_555 1_555
N1 C1 1_555 1_555
N2 C1 1_555 1_555
N3 Ag1 1_555 1_555
N4 N5 1_555 1_555
N5 C4 1_555 1_555
C1 C2 1_555 1_555
C2 F1 1_555 1_555
C3 N3 1_555 1_555
C4 N3 1_555 1_555
C5 C4 1_555 1_555
C6 C3 1_555 1_555
F2 C2 1_555 1_555
F3 C2 1_555 1_555
F4 C5 1_555 1_555
F5 C5 1_555 1_555
F6 C5 1_555 1_555
F7 C6 1_555 1_555
F8 C6 1_555 1_555
F9 C6 1_555 1_555
Ag2A N2A 1_555 1_555
Ag2J N2 1_555 1_555
Ag2G N4 1_555 1_555
Ag2L N5 1_555 1_555
Ag2K N2A 1_555 1_555
Ag2F N4A 1_555 1_555
Ag2M N5A 1_555 1_555
N2A N2 1_555 1_555
N2K Ag2 1_555 1_555
N2J Ag2A 1_555 1_555
N3A Ag1 1_555 1_555
N4A N5A 1_555 1_555
N4O Ag2 1_555 1_555
N4N Ag2A 1_555 1_555
N5A C4A 1_555 1_555
N5L Ag2 1_555 1_555
N5M Ag2A 1_555 1_555
C1A N1 1_555 1_555
C2A C1A 1_555 1_555
C3A N3A 1_555 1_555
C4A N3A 1_555 1_555
C5A C4A 1_555 1_555
C6A C3A 1_555 1_555
F1A C2A 1_555 1_555
F2A C2A 1_555 1_555
F3A C2A 1_555 1_555
F4A C5A 1_555 1_555
F5A C5A 1_555 1_555
F6A C5A 1_555 1_555
F7A C6A 1_555 1_555
F8A C6A 1_555 1_555
F9A C6A 1_555 1_555
N4 C3 1_555 1_555
Ag2J N2J 1_555 1_555
Ag2K N2K 1_555 1_555
N2A C1A 1_555 1_555
N2K N2J 1_555 1_555
N4A C3A 1_555 1_555

#END
