
#######################################################################
#
#                 Cambridge Crystallographic Data Centre
#                                CCDC 
#
#######################################################################
#
# If this CIF has been generated from an entry in the Cambridge 
# Structural Database, then it will include bibliographic, chemical, 
# crystal, experimental, refinement or atomic coordinate data resulting 
# from the CCDC's data processing and validation procedures.
#
#######################################################################

data_PITYUN
_symmetry_cell_setting           tetragonal
_symmetry_space_group_name_H-M   'I -4 2 d'
_symmetry_Int_Tables_number      122
_space_group_name_Hall           'I -4 2bw'
loop_
_symmetry_equiv_pos_site_id
_symmetry_equiv_pos_as_xyz
1 x,y,z
2 -x,-y,z
3 y,-x,-z
4 -y,x,-z
5 1/2-x,y,3/4-z
6 1/2+x,-y,3/4-z
7 1/2-y,-x,3/4+z
8 1/2+y,x,3/4+z
9 1/2+x,1/2+y,1/2+z
10 1/2-x,1/2-y,1/2+z
11 1/2+y,1/2-x,1/2-z
12 1/2-y,1/2+x,1/2-z
13 -x,1/2+y,1/4-z
14 x,1/2-y,1/4-z
15 -y,1/2-x,1/4+z
16 y,1/2+x,1/4+z
_cell_length_a                   13.4273(7)
_cell_length_b                   13.4273(7)
_cell_length_c                   39.175(4)
_cell_angle_alpha                90
_cell_angle_beta                 90
_cell_angle_gamma                90
_cell_volume                     7062.95
loop_
_atom_site_label
_atom_site_type_symbol
_atom_site_fract_x
_atom_site_fract_y
_atom_site_fract_z
Ag1 Ag 0.0000 0.5000 0.09705(3)
Ag2 Ag -0.13847(7) 0.38295(7) 0.24462(3)
N1 N 0.0000 0.5000 0.1535(3)
N2 N -0.0484(7) 0.5186(8) 0.2075(3)
N3 N 0.0067(8) 0.6329(6) 0.0613(2)
N4 N -0.0382(8) 0.7449(8) 0.0225(3)
N5 N 0.0589(8) 0.7624(8) 0.0308(3)
C1 C -0.0711(10) 0.5293(10) 0.1750(3)
C2 C -0.1682(11) 0.5738(12) 0.1642(4)
C3 C -0.0632(10) 0.6687(9) 0.0410(3)
C4 C 0.0815(10) 0.6935(10) 0.0538(3)
C5 C 0.1842(12) 0.6913(11) 0.0696(4)
C6 C -0.1662(11) 0.6259(12) 0.0394(4)
F1 F -0.1554(8) 0.6628(9) 0.1518(3)
F2 F -0.2087(6) 0.5221(9) 0.1398(2)
F3 F -0.2290(7) 0.5878(10) 0.1890(2)
F4 F 0.2125(9) 0.7793(8) 0.0792(4)
F5 F 0.2537(8) 0.6701(12) 0.0464(3)
F6 F 0.1946(7) 0.6246(8) 0.0910(3)
F7 F -0.2031(8) 0.6101(14) 0.0685(3)
F8 F -0.1630(9) 0.5319(8) 0.0273(4)
F9 F -0.2279(7) 0.6740(7) 0.0209(3)
Ag2A Ag 0.13847(7) 0.61705(7) 0.24462(3)
Ag2J Ag -0.11705(7) 0.63847(7) 0.25538(3)
Ag2G Ag -0.11705(7) 0.86153(7) -0.00538(3)
Ag2L Ag 0.13847(7) 0.88295(7) 0.00538(3)
Ag2K Ag 0.11705(7) 0.36153(7) 0.25538(3)
Ag2F Ag 0.11705(7) 0.13847(7) -0.00538(3)
Ag2M Ag -0.13847(7) 0.11705(7) 0.00538(3)
N2A N 0.0484(7) 0.4814(8) 0.2075(3)
N2K N -0.0186(8) 0.4516(7) 0.2925(3)
N2J N 0.0186(8) 0.5484(7) 0.2925(3)
N3A N -0.0067(8) 0.3671(6) 0.0613(2)
N4A N 0.0382(8) 0.2551(8) 0.0225(3)
N4O N -0.2551(8) 0.4618(8) 0.2725(3)
N4N N 0.2551(8) 0.5382(8) 0.2725(3)
N5A N -0.0589(8) 0.2376(8) 0.0308(3)
N5L N -0.0589(8) 0.2624(8) 0.2192(3)
N5M N 0.0589(8) 0.7376(8) 0.2192(3)
C1A C 0.0711(10) 0.4707(10) 0.1750(3)
C2A C 0.1682(11) 0.4262(12) 0.1642(4)
C3A C 0.0632(10) 0.3313(9) 0.0410(3)
C4A C -0.0815(10) 0.3065(10) 0.0538(3)
C5A C -0.1842(12) 0.3087(11) 0.0696(4)
C6A C 0.1662(11) 0.3741(12) 0.0394(4)
F1A F 0.1554(8) 0.3372(9) 0.1518(3)
F2A F 0.2087(6) 0.4779(9) 0.1398(2)
F3A F 0.2290(7) 0.4122(10) 0.1890(2)
F4A F -0.2125(9) 0.2207(8) 0.0792(4)
F5A F -0.2537(8) 0.3299(12) 0.0464(3)
F6A F -0.1946(7) 0.3754(8) 0.0910(3)
F7A F 0.2031(8) 0.3899(14) 0.0685(3)
F8A F 0.1630(9) 0.4681(8) 0.0273(4)
F9A F 0.2279(7) 0.3260(7) 0.0209(3)
loop_
_geom_bond_atom_site_label_1
_geom_bond_atom_site_label_2
_geom_bond_site_symmetry_1
_geom_bond_site_symmetry_2
Ag1 N1 1_555 1_555
Ag2 N2 1_555 1_555
N1 C1 1_555 1_555
N2 C1 1_555 1_555
N3 Ag1 1_555 1_555
N4 N5 1_555 1_555
N5 C4 1_555 1_555
C1 C2 1_555 1_555
C2 F1 1_555 1_555
C3 N3 1_555 1_555
C4 N3 1_555 1_555
C5 C4 1_555 1_555
C6 C3 1_555 1_555
F2 C2 1_555 1_555
F3 C2 1_555 1_555
F4 C5 1_555 1_555
F5 C5 1_555 1_555
F6 C5 1_555 1_555
F7 C6 1_555 1_555
F8 C6 1_555 1_555
F9 C6 1_555 1_555
Ag2A N2A 1_555 1_555
Ag2J N2 1_555 1_555
Ag2G N4 1_555 1_555
Ag2L N5 1_555 1_555
Ag2K N2A 1_555 1_555
Ag2F N4A 1_555 1_555
Ag2M N5A 1_555 1_555
N2A N2 1_555 1_555
N2K Ag2 1_555 1_555
N2J Ag2A 1_555 1_555
N3A Ag1 1_555 1_555
N4A N5A 1_555 1_555
N4O Ag2 1_555 1_555
N4N Ag2A 1_555 1_555
N5A C4A 1_555 1_555
N5L Ag2 1_555 1_555
N5M Ag2A 1_555 1_555
C1A N1 1_555 1_555
C2A C1A 1_555 1_555
C3A N3A 1_555 1_555
C4A N3A 1_555 1_555
C5A C4A 1_555 1_555
C6A C3A 1_555 1_555
F1A C2A 1_555 1_555
F2A C2A 1_555 1_555
F3A C2A 1_555 1_555
F4A C5A 1_555 1_555
F5A C5A 1_555 1_555
F6A C5A 1_555 1_555
F7A C6A 1_555 1_555
F8A C6A 1_555 1_555
F9A C6A 1_555 1_555
N4 C3 1_555 1_555
Ag2J N2J 1_555 1_555
Ag2K N2K 1_555 1_555
N2A C1A 1_555 1_555
N2K N2J 1_555 1_555
N4A C3A 1_555 1_555

#END
