
#######################################################################
#
#                 Cambridge Crystallographic Data Centre
#                                CCDC 
#
#######################################################################
#
# If this CIF has been generated from an entry in the Cambridge 
# Structural Database, then it will include bibliographic, chemical, 
# crystal, experimental, refinement or atomic coordinate data resulting 
# from the CCDC's data processing and validation procedures.
#
#######################################################################

data_PITYUN01
_symmetry_cell_setting           tetragonal
_symmetry_space_group_name_H-M   'I -4 2 d'
_symmetry_Int_Tables_number      122
_space_group_name_Hall           'I -4 2bw'
loop_
_symmetry_equiv_pos_site_id
_symmetry_equiv_pos_as_xyz
1 x,y,z
2 y,-x,-z
3 x,1/2-y,1/4-z
4 -x,-y,z
5 1/2-y,-x,3/4+z
6 -y,x,-z
7 -x,1/2+y,1/4-z
8 1/2+y,x,3/4+z
9 1/2+x,1/2+y,1/2+z
10 1/2+y,1/2-x,1/2-z
11 1/2+x,-y,3/4-z
12 1/2-x,1/2-y,1/2+z
13 -y,1/2-x,1/4+z
14 1/2-y,1/2+x,1/2-z
15 1/2-x,y,3/4-z
16 y,1/2+x,1/4+z
_cell_length_a                   14.0733(5)
_cell_length_b                   14.0733(5)
_cell_length_c                   37.675(3)
_cell_angle_alpha                90
_cell_angle_beta                 90
_cell_angle_gamma                90
_cell_volume                     7461.83
loop_
_atom_site_label
_atom_site_type_symbol
_atom_site_fract_x
_atom_site_fract_y
_atom_site_fract_z
Ag1 Ag 0.0000 0.5000 0.08870(3)
Ag2 Ag -0.13174(6) 0.39021(6) 0.24322(2)
N1 N 0.0000 0.5000 0.1483(3)
N2 N -0.0446(6) 0.5184(7) 0.2049(2)
N3 N 0.0081(6) 0.6345(6) 0.0543(2)
N4 N -0.0333(6) 0.7500(6) 0.0181(2)
N5 N 0.0569(6) 0.7673(6) 0.0292(2)
C1 C -0.0672(7) 0.5278(7) 0.1713(3)
C2 C -0.1659(16) 0.5577(16) 0.1607(4)
C3 C -0.0587(7) 0.6712(7) 0.0336(3)
C4 C 0.0780(8) 0.6966(8) 0.0502(3)
C5 C 0.1716(11) 0.6919(10) 0.0681(5)
C6 C -0.1535(12) 0.6289(13) 0.0290(5)
F1 F -0.1487(10) 0.6502(14) 0.1476(6)
F2 F -0.1935(8) 0.5349(13) 0.1327(4)
F3 F -0.2154(7) 0.5860(13) 0.1841(3)
F4 F 0.2141(7) 0.7669(7) 0.0727(3)
F5 F 0.2340(9) 0.6459(12) 0.0458(6)
F6 F 0.1766(9) 0.6354(10) 0.0923(4)
F7 F -0.1835(9) 0.5837(14) 0.0526(4)
F8 F -0.1484(12) 0.5602(16) 0.0060(6)
F9 F -0.2092(8) 0.6728(10) 0.0107(6)
Ag2C Ag 0.13174(6) 0.60979(6) 0.24322(2)
Ag2I Ag -0.10979(6) 0.63174(6) 0.25678(2)
Ag2G Ag -0.10979(6) 0.86826(6) -0.00678(2)
Ag2F Ag 0.13174(6) 0.89021(6) 0.00678(2)
Ag2M Ag 0.10979(6) 0.36826(6) 0.25678(2)
Ag2D Ag 0.10979(6) 0.13174(6) -0.00678(2)
Ag2B Ag -0.13174(6) 0.10979(6) 0.00678(2)
N2C N 0.0446(6) 0.4816(7) 0.2049(2)
N2M N -0.0184(7) 0.4554(6) 0.2951(2)
N2I N 0.0184(7) 0.5446(6) 0.2951(2)
N3C N -0.0081(6) 0.3655(6) 0.0543(2)
N4C N 0.0333(6) 0.2500(6) 0.0181(2)
N4O N -0.2500(6) 0.4667(6) 0.2681(2)
N4L N 0.2500(6) 0.5333(6) 0.2681(2)
N5C N -0.0569(6) 0.2327(6) 0.0292(2)
N5F N -0.0569(6) 0.2673(6) 0.2208(2)
N5B N 0.0569(6) 0.7327(6) 0.2208(2)
C1C C 0.0672(7) 0.4722(7) 0.1713(3)
C2C C 0.1659(16) 0.4423(16) 0.1607(4)
C3C C 0.0587(7) 0.3288(7) 0.0336(3)
C4C C -0.0780(8) 0.3034(8) 0.0502(3)
C5C C -0.1716(11) 0.3081(10) 0.0681(5)
C6C C 0.1535(12) 0.3711(13) 0.0290(5)
F1C F 0.1487(10) 0.3498(14) 0.1476(6)
F2C F 0.1935(8) 0.4651(13) 0.1327(4)
F3C F 0.2154(7) 0.4140(13) 0.1841(3)
F4C F -0.2141(7) 0.2331(7) 0.0727(3)
F5C F -0.2340(9) 0.3541(12) 0.0458(6)
F6C F -0.1766(9) 0.3646(10) 0.0923(4)
F7C F 0.1835(9) 0.4163(14) 0.0526(4)
F8C F 0.1484(12) 0.4398(16) 0.0060(6)
F9C F 0.2092(8) 0.3272(10) 0.0107(6)
loop_
_geom_bond_atom_site_label_1
_geom_bond_atom_site_label_2
_geom_bond_site_symmetry_1
_geom_bond_site_symmetry_2
Ag1 N1 1_555 1_555
Ag2 N2 1_555 1_555
N1 C1 1_555 1_555
N2 C1 1_555 1_555
N3 Ag1 1_555 1_555
N4 N5 1_555 1_555
N5 C4 1_555 1_555
C1 C2 1_555 1_555
C2 F1 1_555 1_555
C3 N3 1_555 1_555
C4 N3 1_555 1_555
C5 C4 1_555 1_555
C6 C3 1_555 1_555
F2 C2 1_555 1_555
F3 C2 1_555 1_555
F4 C5 1_555 1_555
F5 C5 1_555 1_555
F6 C5 1_555 1_555
F7 C6 1_555 1_555
F8 C6 1_555 1_555
F9 C6 1_555 1_555
Ag2C N2C 1_555 1_555
Ag2I N2 1_555 1_555
Ag2G N4 1_555 1_555
Ag2F N5 1_555 1_555
Ag2M N2C 1_555 1_555
Ag2D N4C 1_555 1_555
Ag2B N5C 1_555 1_555
N2C N2 1_555 1_555
N2M Ag2 1_555 1_555
N2I Ag2C 1_555 1_555
N3C Ag1 1_555 1_555
N4C N5C 1_555 1_555
N4O Ag2 1_555 1_555
N4L Ag2C 1_555 1_555
N5C C4C 1_555 1_555
N5F Ag2 1_555 1_555
N5B Ag2C 1_555 1_555
C1C N1 1_555 1_555
C2C C1C 1_555 1_555
C3C N3C 1_555 1_555
C4C N3C 1_555 1_555
C5C C4C 1_555 1_555
C6C C3C 1_555 1_555
F1C C2C 1_555 1_555
F2C C2C 1_555 1_555
F3C C2C 1_555 1_555
F4C C5C 1_555 1_555
F5C C5C 1_555 1_555
F6C C5C 1_555 1_555
F7C C6C 1_555 1_555
F8C C6C 1_555 1_555
F9C C6C 1_555 1_555
N4 C3 1_555 1_555
Ag2I N2I 1_555 1_555
Ag2M N2M 1_555 1_555
N2C C1C 1_555 1_555
N2M N2I 1_555 1_555
N4C C3C 1_555 1_555

#END
