
#######################################################################
#
#                 Cambridge Crystallographic Data Centre
#                                CCDC 
#
#######################################################################
#
# If this CIF has been generated from an entry in the Cambridge 
# Structural Database, then it will include bibliographic, chemical, 
# crystal, experimental, refinement or atomic coordinate data resulting 
# from the CCDC's data processing and validation procedures.
#
#######################################################################

data_PIVGOR
_symmetry_cell_setting           orthorhombic
_symmetry_space_group_name_H-M   'P c c a'
_symmetry_Int_Tables_number      54
_space_group_name_Hall           '-P 2a 2ac'
loop_
_symmetry_equiv_pos_site_id
_symmetry_equiv_pos_as_xyz
1 x,y,z
2 1/2-x,-y,z
3 -x,y,1/2-z
4 1/2+x,-y,1/2-z
5 -x,-y,-z
6 1/2+x,y,-z
7 x,-y,1/2+z
8 1/2-x,y,1/2+z
_cell_length_a                   15.5590(5)
_cell_length_b                   8.7698(3)
_cell_length_c                   21.9178(8)
_cell_angle_alpha                90
_cell_angle_beta                 90
_cell_angle_gamma                90
_cell_volume                     2990.67
loop_
_atom_site_label
_atom_site_type_symbol
_atom_site_fract_x
_atom_site_fract_y
_atom_site_fract_z
Co1 Co 0.135634(17) 0.85089(3) 0.087889(12)
O1 O 0.20101(10) 0.65381(16) 0.05206(7)
O2 O 0.17782(9) 0.73872(16) 0.17119(7)
O3 O 0.2500 0.5000 0.25493(9)
O4 O 0.2500 1.0000 0.06689(9)
O5 O 0.11184(9) 0.89846(18) -0.00537(7)
O6 O 0.16456(13) 0.9298(2) -0.13737(8)
N1 N 0.09861(11) 1.04083(18) 0.13846(8)
N2 N 0.01250(11) 0.75086(19) 0.09431(8)
C1 C 0.22771(12) 0.5723(2) 0.09517(9)
C2 C 0.21473(12) 0.6172(2) 0.15800(9)
C3 C 0.2500 0.5000 0.19946(13)
C4 C 0.2500 1.0000 0.00842(13)
C5 C 0.18051(13) 0.9485(2) -0.02778(9)
C6 C 0.20557(15) 0.9650(2) -0.09258(9)
C7 C 0.13011(14) 1.0651(2) 0.19433(10)
H1 H 0.1639 0.9897 0.2120
C8 C 0.11495(15) 1.1960(2) 0.22683(10)
H2 H 0.1380 1.2074 0.2657
C9 C 0.06583(13) 1.3104(2) 0.20202(10)
C10 C 0.03292(16) 1.2852(3) 0.14443(11)
H3 H -0.0006 1.3595 0.1257
C11 C 0.04981(16) 1.1497(3) 0.11452(11)
H4 H 0.0260 1.1342 0.0761
C12 C 0.04626(14) 1.4517(2) 0.23809(11)
H5 H 0.0551 1.5406 0.2125
H6 H 0.0856 1.4586 0.2723
C13 C -0.03639(13) 0.7653(2) 0.14394(10)
H7 H -0.0129 0.8134 0.1779
C14 C -0.11960(14) 0.7133(2) 0.14775(10)
H8 H -0.1506 0.7254 0.1837
C15 C -0.15686(14) 0.6433(2) 0.09811(10)
C16 C -0.10573(16) 0.6263(3) 0.04652(10)
H9 H -0.1276 0.5782 0.0121
C17 C -0.02316(15) 0.6805(3) 0.04643(10)
H10 H 0.0097 0.6677 0.0114
C18 C -0.24792(14) 0.5870(2) 0.09920(10)
H11 H -0.2782 0.6258 0.0638
H12 H -0.2765 0.6257 0.1353
Co1A Co 0.364366(17) 0.14911(3) 0.087889(12)
Co1A_2 Co 0.364366(17) 1.14911(3) 0.087889(12)
Co1B Co -0.135634(17) 0.85089(3) 0.412111(12)
Co1A_3 Co -0.635634(17) 0.14911(3) 0.087889(12)
O1A O 0.29899(10) 0.34619(16) 0.05206(7)
O2A O 0.32218(9) 0.26128(16) 0.17119(7)
O4_2 O 0.2500 0.0000 0.06689(9)
O5A O 0.38816(9) 1.10154(18) -0.00537(7)
O5A_2 O 0.38816(9) 0.10154(18) -0.00537(7)
O6A O 0.33544(13) 1.0702(2) -0.13737(8)
N1B N -0.09861(11) 1.04083(18) 0.36154(8)
N1A N 0.40139(11) -0.04083(18) 0.13846(8)
N2A N -0.51250(11) 0.24914(19) 0.09431(8)
N2A_2 N 0.48750(11) 0.24914(19) 0.09431(8)
C1A C 0.27229(12) 0.4277(2) 0.09517(9)
C2A C 0.28527(12) 0.3828(2) 0.15800(9)
C5A C 0.31949(13) 1.0515(2) -0.02778(9)
C6A C 0.29443(15) 1.0350(2) -0.09258(9)
C7B C -0.13011(14) 1.0651(2) 0.30567(10)
H1B H -0.1639 0.9897 0.2880
C8B C -0.11495(15) 1.1960(2) 0.27317(10)
H2B H -0.1380 1.2074 0.2343
C9B C -0.06583(13) 1.3104(2) 0.29798(10)
C10B C -0.03292(16) 1.2852(3) 0.35557(11)
H3B H 0.0006 1.3595 0.3743
C11B C -0.04981(16) 1.1497(3) 0.38548(11)
H4B H -0.0260 1.1342 0.4239
C12B C -0.04626(14) 1.4517(2) 0.26191(11)
H5B H -0.0551 1.5406 0.2875
H6B H -0.0856 1.4586 0.2277
C13A C -0.46361(13) 0.2347(2) 0.14394(10)
H7A H -0.4871 0.1866 0.1779
C14A C -0.38040(14) 0.2867(2) 0.14775(10)
H8A H -0.3494 0.2746 0.1837
C15A C -0.34314(14) 0.3567(2) 0.09811(10)
C16A C -0.39427(16) 0.3737(3) 0.04652(10)
H9A H -0.3724 0.4218 0.0121
C17A C -0.47684(15) 0.3195(3) 0.04643(10)
H10A H -0.5097 0.3323 0.0114
C18A C -0.25208(14) 0.4130(2) 0.09920(10)
H11A H -0.2218 0.3742 0.0638
H12A H -0.2235 0.3743 0.1353
loop_
_geom_bond_atom_site_label_1
_geom_bond_atom_site_label_2
_geom_bond_site_symmetry_1
_geom_bond_site_symmetry_2
Co1 O1 1_555 1_555
O1 C1 1_555 1_555
O2 Co1 1_555 1_555
O3 C3 1_555 1_555
O4 Co1 1_555 1_555
O5 Co1 1_555 1_555
O6 C6 1_555 1_555
N1 Co1 1_555 1_555
N2 Co1 1_555 1_555
C1 C2 1_555 1_555
C2 O2 1_555 1_555
C3 C2 1_555 1_555
C4 O4 1_555 1_555
C5 O5 1_555 1_555
C6 C5 1_555 1_555
C7 N1 1_555 1_555
H1 C7 1_555 1_555
C8 C7 1_555 1_555
H2 C8 1_555 1_555
C9 C8 1_555 1_555
C10 C9 1_555 1_555
H3 C10 1_555 1_555
C11 N1 1_555 1_555
H4 C11 1_555 1_555
C12 C9 1_555 1_555
H5 C12 1_555 1_555
H6 C12 1_555 1_555
C13 N2 1_555 1_555
H7 C13 1_555 1_555
C14 C13 1_555 1_555
H8 C14 1_555 1_555
C15 C14 1_555 1_555
C16 C15 1_555 1_555
H9 C16 1_555 1_555
C17 N2 1_555 1_555
H10 C17 1_555 1_555
C18 C15 1_555 1_555
H11 C18 1_555 1_555
H12 C18 1_555 1_555
Co1A O1A 1_555 1_555
Co1A_2 O4 1_555 1_555
Co1B N1B 1_555 1_555
Co1A_3 N2A 1_555 1_555
O1A C1A 1_555 1_555
O2A Co1A 1_555 1_555
O4_2 Co1A 1_555 1_555
O5A Co1A_2 1_555 1_555
O5A_2 Co1A 1_555 1_555
O6A C6A 1_555 1_555
N1B C7B 1_555 1_555
N1A Co1A 1_555 1_555
N2A C13A 1_555 1_555
N2A_2 Co1A 1_555 1_555
C1A C1 1_555 1_555
C2A C3 1_555 1_555
C5A C4 1_555 1_555
C6A C6 1_555 1_555
C7B H1B 1_555 1_555
C8B C7B 1_555 1_555
H2B C8B 1_555 1_555
C9B C8B 1_555 1_555
C10B C9B 1_555 1_555
H3B C10B 1_555 1_555
C11B N1B 1_555 1_555
H4B C11B 1_555 1_555
C12B C12 1_555 1_555
H5B C12B 1_555 1_555
H6B C12B 1_555 1_555
C13A H7A 1_555 1_555
C14A C13A 1_555 1_555
H8A C14A 1_555 1_555
C15A C14A 1_555 1_555
C16A C15A 1_555 1_555
H9A C16A 1_555 1_555
C17A N2A 1_555 1_555
H10A C17A 1_555 1_555
C18A C18 1_555 1_555
H11A C18A 1_555 1_555
H12A C18A 1_555 1_555
C4 C5 1_555 1_555
C10 C11 1_555 1_555
C16 C17 1_555 1_555
O2A C2A 1_555 1_555
O5A C5A 1_555 1_555
C1A C2A 1_555 1_555
C5A C6A 1_555 1_555
C9B C12B 1_555 1_555
C10B C11B 1_555 1_555
C15A C18A 1_555 1_555
C16A C17A 1_555 1_555

#END
