
#######################################################################
#
#                 Cambridge Crystallographic Data Centre
#                                CCDC 
#
#######################################################################
#
# If this CIF has been generated from an entry in the Cambridge 
# Structural Database, then it will include bibliographic, chemical, 
# crystal, experimental, refinement or atomic coordinate data resulting 
# from the CCDC's data processing and validation procedures.
#
#######################################################################

data_PIVGAE
_symmetry_cell_setting           trigonal
_symmetry_space_group_name_H-M   'P -3 c 1'
_symmetry_Int_Tables_number      165
_space_group_name_Hall           '-P 3 2"c'
loop_
_symmetry_equiv_pos_site_id
_symmetry_equiv_pos_as_xyz
1 x,y,z
2 -y,x-y,z
3 -x+y,-x,z
4 y,x,1/2-z
5 x-y,-y,1/2-z
6 -x,-x+y,1/2-z
7 -x,-y,-z
8 y,-x+y,-z
9 x-y,x,-z
10 -y,-x,1/2+z
11 -x+y,y,1/2+z
12 x,x-y,1/2+z
_cell_length_a                   23.8680(15)
_cell_length_b                   23.8680(15)
_cell_length_c                   11.2498(7)
_cell_angle_alpha                90
_cell_angle_beta                 90
_cell_angle_gamma                120
_cell_volume                     5550.19
loop_
_atom_site_label
_atom_site_type_symbol
_atom_site_fract_x
_atom_site_fract_y
_atom_site_fract_z
C1 C 0.6105(4) 0.4708(4) 0.3894(5)
H1 H 0.5800 0.4258 0.3862
C2 C 0.6760(4) 0.4907(4) 0.3954(5)
H2 H 0.6895 0.4595 0.3964
C3 C 0.7209(4) 0.5550(4) 0.4000(6)
H3 H 0.7657 0.5686 0.4034
C4 C 0.7003(4) 0.6013(4) 0.3996(5)
C5 C 0.7411(4) 0.6699(4) 0.4034(6)
H4 H 0.7867 0.6876 0.4053
C6 C 0.7172(4) 0.7101(4) 0.4045(6)
H5 H 0.7460 0.7555 0.4060
C7 C 0.6490(3) 0.6858(3) 0.4035(5)
C8 C 0.6183(4) 0.7234(4) 0.4047(6)
C9 C 0.5522(4) 0.6952(4) 0.4026(5)
H6 H 0.5333 0.7220 0.4050
C10 C 0.5117(3) 0.6281(3) 0.3969(5)
H7 H 0.4661 0.6097 0.3956
C11 C 0.5388(3) 0.5893(3) 0.3931(5)
C12 C 0.6071(3) 0.6192(3) 0.3982(5)
C13 C 0.6333(3) 0.5767(3) 0.3951(5)
C14 C 0.3752(4) 0.4664(4) 0.2626(6)
C15 C 0.3093(7) 0.4624(14) 0.2694(13)
H8 H 0.2804 0.4320 0.2092
H9 H 0.3147 0.5053 0.2548
H10 H 0.2906 0.4473 0.3485
N1 N 0.5893(3) 0.5127(3) 0.3879(4)
O1 O 0.4078(2) 0.4845(3) 0.3579(4)
O2 O 0.3952(2) 0.4591(3) 0.1640(4)
Cl1 Cl 0.66559(12) 0.80759(10) 0.4023(2)
Pd1 Pd 0.49754(2) 0.49546(2) 0.37115(3)
O2C O 0.4591(3) 0.3952(2) 0.3360(4)
Pd1C Pd 0.49546(2) 0.49754(2) 0.12885(3)
Pd1F Pd 0.50246(2) 0.50454(2) 0.62885(3)
F1 F 0.6667 0.3333 0.7509(17)
F2 F 0.4075(8) 0.6633(8) 0.5465(18)
Cl2 Cl 0.2846(5) 0.2215(4) 0.3009(8)
C16 C 0.2921(16) 0.2921(16) 0.2500
Cl2C Cl 0.2215(4) 0.2846(5) 0.1991(8)
C17? C 0.3017(8) 0.431(3) 0.280(4)
H11? H 0.2881 0.4632 0.2953
H12? H 0.2897 0.4017 0.3474
H13? H 0.2803 0.4069 0.2078
C18? C 0.6667 0.3333 0.578(3)
H14? H 0.6887 0.3137 0.5346
H15? H 0.6490 0.3506 0.5177
Cl3? Cl 0.7221(7) 0.3953(7) 0.6566(14)
Cl4? Cl 0.6002(7) 0.2705(7) 0.6578(13)
F3? F 0.3883(7) 0.6598(7) 0.6567(15)
H16? H 0.3243 0.3088 0.1849
H17? H 0.3243 0.3088 0.1849
loop_
_geom_bond_atom_site_label_1
_geom_bond_atom_site_label_2
_geom_bond_site_symmetry_1
_geom_bond_site_symmetry_2
C1 H1 1_555 1_555
C2 C1 1_555 1_555
H2 C2 1_555 1_555
C3 C2 1_555 1_555
H3 C3 1_555 1_555
C4 C3 1_555 1_555
C5 C4 1_555 1_555
H4 C5 1_555 1_555
C6 C5 1_555 1_555
H5 C6 1_555 1_555
C7 C6 1_555 1_555
C8 C7 1_555 1_555
C9 C8 1_555 1_555
H6 C9 1_555 1_555
C10 C9 1_555 1_555
H7 C10 1_555 1_555
C11 C10 1_555 1_555
C12 C7 1_555 1_555
C13 C4 1_555 1_555
C14 C15 1_555 1_555
C15 H8 1_555 1_555
H9 C15 1_555 1_555
H10 C15 1_555 1_555
N1 C1 1_555 1_555
O1 C14 1_555 1_555
O2 C14 1_555 1_555
Cl1 C8 1_555 1_555
Pd1 C11 1_555 1_555
Cl2 C16 1_555 1_555
C16 Cl2C 1_555 1_555
O2C Pd1 1_555 1_555
Pd1C O2 1_555 1_555
Pd1F Pd1 1_555 1_555
C11 C12 1_555 1_555
C12 C13 1_555 1_555
C13 N1 1_555 1_555
N1 Pd1 1_555 1_555
O1 Pd1 1_555 1_555
Pd1 Pd1C 1_555 1_555

#END
