
#######################################################################
#
#                 Cambridge Crystallographic Data Centre
#                                CCDC 
#
#######################################################################
#
# If this CIF has been generated from an entry in the Cambridge 
# Structural Database, then it will include bibliographic, chemical, 
# crystal, experimental, refinement or atomic coordinate data resulting 
# from the CCDC's data processing and validation procedures.
#
#######################################################################

data_PIVHIM
_symmetry_cell_setting           triclinic
_symmetry_space_group_name_H-M   'P -1'
_symmetry_Int_Tables_number      2
_space_group_name_Hall           '-P 1'
loop_
_symmetry_equiv_pos_site_id
_symmetry_equiv_pos_as_xyz
1 x,y,z
2 -x,-y,-z
_cell_length_a                   10.115(2)
_cell_length_b                   12.000(2)
_cell_length_c                   12.392(3)
_cell_angle_alpha                98.96(3)
_cell_angle_beta                 108.94(3)
_cell_angle_gamma                107.91(3)
_cell_volume                     1298.04
loop_
_atom_site_label
_atom_site_type_symbol
_atom_site_fract_x
_atom_site_fract_y
_atom_site_fract_z
C1 C 0.7546(2) 0.00659(18) 0.59240(17)
C2 C 0.6650(2) -0.05536(17) 0.65640(18)
C3 C 0.6893(3) -0.15177(19) 0.6963(2)
H1 H 0.7573 -0.1812 0.6791
C4 C 0.6133(3) -0.2044(2) 0.7614(2)
H2 H 0.6318 -0.2685 0.7882
C5 C 0.5100(3) -0.1638(2) 0.7877(2)
C6 C 0.4838(3) -0.0691(2) 0.7452(2)
H3 H 0.4134 -0.0415 0.7604
C7 C 0.5599(3) -0.0149(2) 0.6806(2)
H4 H 0.5409 0.0488 0.6533
C8 C 0.4291(4) -0.2198(3) 0.8609(3)
H5 H 0.3327 -0.2825 0.8089
H6 H 0.4143 -0.1579 0.9093
H7 H 0.4889 -0.2548 0.9111
C9 C 1.1582(2) 0.28255(17) 0.68385(17)
C10 C 1.3198(2) 0.31719(18) 0.75972(17)
C11 C 1.3822(3) 0.22923(19) 0.76880(19)
H8 H 1.3230 0.1479 0.7263
C12 C 1.5329(3) 0.2633(2) 0.8414(2)
H9 H 1.5737 0.2038 0.8478
C13 C 1.6247(3) 0.3842(2) 0.9049(2)
C14 C 1.5620(3) 0.4716(2) 0.8928(2)
H10 H 1.6221 0.5535 0.9328
C15 C 1.4108(3) 0.43828(19) 0.82183(19)
H11 H 1.3698 0.4977 0.8157
C16 C 1.7874(3) 0.4184(3) 0.9868(3)
H12 H 1.7961 0.3538 1.0221
H13 H 1.8199 0.4923 1.0482
H14 H 1.8498 0.4308 0.9421
C17 C 0.9149(2) 0.16005(18) 0.33968(17)
C18 C 0.9364(2) 0.17265(18) 0.22790(17)
C19 C 0.8733(3) 0.0717(2) 0.1295(2)
H15 H 0.8156 -0.0039 0.1325
C20 C 0.8960(3) 0.0832(2) 0.0269(2)
H16 H 0.8496 0.0155 -0.0396
C21 C 0.9861(3) 0.1934(2) 0.0211(2)
C22 C 1.0494(3) 0.2929(2) 0.12017(19)
H17 H 1.1116 0.3675 0.1186
C23 C 1.0225(3) 0.28416(19) 0.22172(18)
H18 H 1.0623 0.3534 0.2859
C24 C 1.0133(4) 0.2036(3) -0.0909(3)
H19 H 0.9315 0.2170 -0.1456
H20 H 1.0190 0.1294 -0.1271
H21 H 1.1067 0.2708 -0.0710
C25 C 0.6461(3) 0.3223(2) 0.5818(3)
H22 H 0.6375 0.2631 0.6222
C26 C 0.5463(3) 0.3803(3) 0.5687(3)
H23 H 0.4729 0.3596 0.5999
C27 C 0.5543(2) 0.46917(16) 0.50948(16)
C28 C 0.6676(3) 0.4947(2) 0.4679(2)
H24 H 0.6798 0.5548 0.4287
C29 C 0.7635(3) 0.4325(2) 0.4834(2)
H25 H 0.8378 0.4515 0.4529
Co1 Co 1.0000 0.0000 0.5000
Co2 Co 0.89175(3) 0.24707(2) 0.55544(2)
N1 N 0.75442(19) 0.34639(15) 0.53997(15)
O1 O 0.75942(17) 0.11306(13) 0.58961(14)
O2 O 0.81908(17) -0.04982(13) 0.54843(14)
O3 O 1.07946(17) 0.17634(12) 0.61454(12)
O4 O 1.09660(17) 0.35973(13) 0.68710(13)
O5 O 0.88597(17) 0.05723(13) 0.35867(13)
O6 O 0.92518(18) 0.25511(13) 0.40863(13)
C1A C 1.2454(2) -0.00659(18) 0.40760(17)
C2A C 1.3350(2) 0.05536(17) 0.34360(18)
C3A C 1.3107(3) 0.15177(19) 0.3037(2)
H1A H 1.2427 0.1812 0.3209
C4A C 1.3867(3) 0.2044(2) 0.2386(2)
H2A H 1.3682 0.2685 0.2118
C5A C 1.4900(3) 0.1638(2) 0.2123(2)
C6A C 1.5162(3) 0.0691(2) 0.2548(2)
H3A H 1.5866 0.0415 0.2396
C7A C 1.4401(3) 0.0149(2) 0.3194(2)
H4A H 1.4591 -0.0488 0.3467
C8A C 1.5709(4) 0.2198(3) 0.1391(3)
H5A H 1.6673 0.2825 0.1911
H6A H 1.5857 0.1579 0.0907
H7A H 1.5111 0.2548 0.0889
C9A C 0.8418(2) -0.28255(17) 0.31615(17)
C10A C 0.6802(2) -0.31719(18) 0.24028(17)
C11A C 0.6178(3) -0.22923(19) 0.23120(19)
H8A H 0.6770 -0.1479 0.2737
C12A C 0.4671(3) -0.2633(2) 0.1586(2)
H9A H 0.4263 -0.2038 0.1522
C13A C 0.3753(3) -0.3842(2) 0.0951(2)
C14A C 0.4380(3) -0.4716(2) 0.1072(2)
H10A H 0.3779 -0.5535 0.0672
C15A C 0.5892(3) -0.43828(19) 0.17817(19)
H11A H 0.6302 -0.4977 0.1843
C16A C 0.2126(3) -0.4184(3) 0.0132(3)
H12A H 0.2039 -0.3538 -0.0221
H13A H 0.1801 -0.4923 -0.0482
H14A H 0.1502 -0.4308 0.0579
C17A C 1.0851(2) -0.16005(18) 0.66032(17)
C18A C 1.0636(2) -0.17265(18) 0.77210(17)
C19A C 1.1267(3) -0.0717(2) 0.8705(2)
H15A H 1.1844 0.0039 0.8675
C20A C 1.1040(3) -0.0832(2) 0.9731(2)
H16A H 1.1504 -0.0155 1.0396
C21A C 1.0139(3) -0.1934(2) 0.9789(2)
C22A C 0.9506(3) -0.2929(2) 0.87983(19)
H17A H 0.8884 -0.3675 0.8814
C23A C 0.9775(3) -0.28416(19) 0.77828(18)
H18A H 0.9377 -0.3534 0.7141
C24A C 0.9867(4) -0.2036(3) 1.0909(3)
H19A H 1.0685 -0.2170 1.1456
H20A H 0.9810 -0.1294 1.1271
H21A H 0.8933 -0.2708 1.0710
C25A C 0.3539(3) 0.6777(2) 0.4182(3)
H22A H 0.3625 0.7369 0.3778
C26A C 0.4537(3) 0.6197(3) 0.4313(3)
H23A H 0.5271 0.6404 0.4001
C27A C 0.4457(2) 0.53083(16) 0.49052(16)
C28A C 0.3324(3) 0.5053(2) 0.5321(2)
H24A H 0.3202 0.4452 0.5713
C29A C 0.2365(3) 0.5675(2) 0.5166(2)
H25A H 0.1622 0.5485 0.5471
Co2A Co 1.10825(3) -0.24707(2) 0.44456(2)
Co2A_2 Co 0.10825(3) 0.75293(2) 0.44456(2)
N1A N 0.24558(19) 0.65361(15) 0.46003(15)
N1A_2 N 1.24558(19) -0.34639(15) 0.46003(15)
O1A O 1.24058(17) -0.11306(13) 0.41039(14)
O2A O 1.18092(17) 0.04982(13) 0.45157(14)
O3A O 0.92054(17) -0.17634(12) 0.38546(12)
O4A O 0.90340(17) -0.35973(13) 0.31290(13)
O5A O 1.11403(17) -0.05723(13) 0.64133(13)
O6A O 1.07482(18) -0.25511(13) 0.59137(13)
loop_
_geom_bond_atom_site_label_1
_geom_bond_atom_site_label_2
_geom_bond_site_symmetry_1
_geom_bond_site_symmetry_2
C1 C2 1_555 1_555
C2 C3 1_555 1_555
C3 H1 1_555 1_555
C4 C3 1_555 1_555
H2 C4 1_555 1_555
C5 C4 1_555 1_555
C6 C5 1_555 1_555
H3 C6 1_555 1_555
C7 C2 1_555 1_555
H4 C7 1_555 1_555
C8 C5 1_555 1_555
H5 C8 1_555 1_555
H6 C8 1_555 1_555
H7 C8 1_555 1_555
C9 C10 1_555 1_555
C10 C11 1_555 1_555
C11 H8 1_555 1_555
C12 C11 1_555 1_555
H9 C12 1_555 1_555
C13 C12 1_555 1_555
C14 C13 1_555 1_555
H10 C14 1_555 1_555
C15 C10 1_555 1_555
H11 C15 1_555 1_555
C16 C13 1_555 1_555
H12 C16 1_555 1_555
H13 C16 1_555 1_555
H14 C16 1_555 1_555
C17 C18 1_555 1_555
C18 C19 1_555 1_555
C19 H15 1_555 1_555
C20 C19 1_555 1_555
H16 C20 1_555 1_555
C21 C20 1_555 1_555
C22 C21 1_555 1_555
H17 C22 1_555 1_555
C23 C18 1_555 1_555
H18 C23 1_555 1_555
C24 C21 1_555 1_555
H19 C24 1_555 1_555
H20 C24 1_555 1_555
H21 C24 1_555 1_555
C25 H22 1_555 1_555
C26 C25 1_555 1_555
H23 C26 1_555 1_555
C27 C26 1_555 1_555
C28 C27 1_555 1_555
H24 C28 1_555 1_555
C29 C28 1_555 1_555
H25 C29 1_555 1_555
Co1 O2 1_555 1_555
Co2 N1 1_555 1_555
N1 C25 1_555 1_555
O1 C1 1_555 1_555
O2 C1 1_555 1_555
O3 C9 1_555 1_555
O4 C9 1_555 1_555
O5 C17 1_555 1_555
O6 C17 1_555 1_555
C1A C2A 1_555 1_555
C2A C3A 1_555 1_555
C3A H1A 1_555 1_555
C4A C3A 1_555 1_555
H2A C4A 1_555 1_555
C5A C4A 1_555 1_555
C6A C5A 1_555 1_555
H3A C6A 1_555 1_555
C7A C2A 1_555 1_555
H4A C7A 1_555 1_555
C8A C5A 1_555 1_555
H5A C8A 1_555 1_555
H6A C8A 1_555 1_555
H7A C8A 1_555 1_555
C9A C10A 1_555 1_555
C10A C11A 1_555 1_555
C11A H8A 1_555 1_555
C12A C11A 1_555 1_555
H9A C12A 1_555 1_555
C13A C12A 1_555 1_555
C14A C13A 1_555 1_555
H10A C14A 1_555 1_555
C15A C10A 1_555 1_555
H11A C15A 1_555 1_555
C16A C13A 1_555 1_555
H12A C16A 1_555 1_555
H13A C16A 1_555 1_555
H14A C16A 1_555 1_555
C17A C18A 1_555 1_555
C18A C19A 1_555 1_555
C19A H15A 1_555 1_555
C20A C19A 1_555 1_555
H16A C20A 1_555 1_555
C21A C20A 1_555 1_555
C22A C21A 1_555 1_555
H17A C22A 1_555 1_555
C23A C18A 1_555 1_555
H18A C23A 1_555 1_555
C24A C21A 1_555 1_555
H19A C24A 1_555 1_555
H20A C24A 1_555 1_555
H21A C24A 1_555 1_555
C25A H22A 1_555 1_555
C26A C25A 1_555 1_555
H23A C26A 1_555 1_555
C27A C27 1_555 1_555
C28A C27A 1_555 1_555
H24A C28A 1_555 1_555
C29A C28A 1_555 1_555
H25A C29A 1_555 1_555
Co2A N1A_2 1_555 1_555
Co2A_2 N1A 1_555 1_555
N1A C25A 1_555 1_555
O1A C1A 1_555 1_555
O2A Co1 1_555 1_555
O3A Co1 1_555 1_555
O4A C9A 1_555 1_555
O5A Co1 1_555 1_555
O6A C17A 1_555 1_555
C6 C7 1_555 1_555
C14 C15 1_555 1_555
C22 C23 1_555 1_555
C29 N1 1_555 1_555
Co1 O3 1_555 1_555
Co1 O5 1_555 1_555
Co2 O1 1_555 1_555
Co2 O3 1_555 1_555
Co2 O4 1_555 1_555
Co2 O6 1_555 1_555
C1A O2A 1_555 1_555
C6A C7A 1_555 1_555
C9A O3A 1_555 1_555
C14A C15A 1_555 1_555
C17A O5A 1_555 1_555
C22A C23A 1_555 1_555
C26A C27A 1_555 1_555
C29A N1A 1_555 1_555
Co2A O1A 1_555 1_555
Co2A O3A 1_555 1_555
Co2A O4A 1_555 1_555
Co2A O6A 1_555 1_555

#END
