
#######################################################################
#
#                 Cambridge Crystallographic Data Centre
#                                CCDC 
#
#######################################################################
#
# If this CIF has been generated from an entry in the Cambridge 
# Structural Database, then it will include bibliographic, chemical, 
# crystal, experimental, refinement or atomic coordinate data resulting 
# from the CCDC's data processing and validation procedures.
#
#######################################################################

data_PIVHUY
_symmetry_cell_setting           monoclinic
_symmetry_space_group_name_H-M   'P 21/n'
_symmetry_Int_Tables_number      14
_space_group_name_Hall           '-P 2yn'
loop_
_symmetry_equiv_pos_site_id
_symmetry_equiv_pos_as_xyz
1 x,y,z
2 1/2-x,1/2+y,1/2-z
3 -x,-y,-z
4 1/2+x,1/2-y,1/2+z
_cell_length_a                   7.4904(7)
_cell_length_b                   14.4190(15)
_cell_length_c                   14.0422(14)
_cell_angle_alpha                90
_cell_angle_beta                 93.072(7)
_cell_angle_gamma                90
_cell_volume                     1514.44
loop_
_atom_site_label
_atom_site_type_symbol
_atom_site_fract_x
_atom_site_fract_y
_atom_site_fract_z
Cu1 Cu 0.15464(8) 0.03194(5) 0.64569(5)
O1 O 0.1778(4) -0.1009(2) 0.6200(2)
N1 N 0.3972(6) 0.0509(3) 0.7420(3)
C1 C 0.2407(6) -0.1146(4) 0.5365(4)
N2 N 0.9781(6) 0.0260(3) 0.7443(3)
C2 C 0.2832(6) -0.2106(4) 0.5072(4)
N3 N 0.6997(5) 0.0822(3) 0.8098(3)
C3 C 0.2553(7) -0.2842(4) 0.5687(4)
H1 H 0.2034 -0.2730 0.6278
C4 C 0.3025(7) -0.3738(4) 0.5446(4)
H2 H 0.2864 -0.4232 0.5881
C5 C 0.3725(7) -0.3913(4) 0.4579(4)
H3 H 0.4040 -0.4528 0.4414
C6 C 0.3973(7) -0.3191(4) 0.3942(4)
H4 H 0.4443 -0.3315 0.3340
C7 C 0.3529(6) -0.2280(4) 0.4189(4)
H5 H 0.3703 -0.1784 0.3757
N4 N 0.2740(5) -0.0477(3) 0.4752(3)
N5 N 0.2317(5) 0.0355(3) 0.5172(3)
C8 C 0.3083(7) 0.1281(4) 0.3769(4)
H6 H 0.3739 0.0729 0.3580
H7 H 0.3873 0.1823 0.3764
H8 H 0.2054 0.1381 0.3320
C9 C 0.2448(6) 0.1146(4) 0.4747(4)
C10 C 0.1899(6) 0.1936(4) 0.5319(4)
C11 C 0.1898(6) 0.2850(4) 0.5022(4)
H9 H 0.2256 0.3007 0.4404
C12 C 0.1363(7) 0.3537(4) 0.5644(4)
H10 H 0.1341 0.4167 0.5447
C13 C 0.0870(7) 0.3305(4) 0.6538(4)
H11 H 0.0536 0.3770 0.6974
C14 C 0.0870(7) 0.2373(4) 0.6793(4)
H12 H 0.0511 0.2206 0.7408
N6 N 0.1362(5) 0.1694(3) 0.6194(3)
C15 C 0.8418(7) 0.0515(4) 0.7713(4)
C16 C 0.5412(7) 0.0634(4) 0.7701(4)
Cu1_2 Cu 1.15464(8) 0.03194(5) 0.64569(5)
N2_2 N -0.0219(6) 0.0260(3) 0.7443(3)
loop_
_geom_bond_atom_site_label_1
_geom_bond_atom_site_label_2
_geom_bond_site_symmetry_1
_geom_bond_site_symmetry_2
Cu1 O1 1_555 1_555
O1 C1 1_555 1_555
N1 Cu1 1_555 1_555
C1 C2 1_555 1_555
N2 C15 1_555 1_555
C2 C3 1_555 1_555
N3 C15 1_555 1_555
C3 H1 1_555 1_555
C4 C3 1_555 1_555
H2 C4 1_555 1_555
C5 C4 1_555 1_555
H3 C5 1_555 1_555
C6 C5 1_555 1_555
H4 C6 1_555 1_555
C7 C2 1_555 1_555
H5 C7 1_555 1_555
N4 C1 1_555 1_555
N5 Cu1 1_555 1_555
C8 H6 1_555 1_555
H7 C8 1_555 1_555
H8 C8 1_555 1_555
C9 N5 1_555 1_555
C10 C9 1_555 1_555
C11 C10 1_555 1_555
H9 C11 1_555 1_555
C12 C11 1_555 1_555
H10 C12 1_555 1_555
C13 C12 1_555 1_555
H11 C13 1_555 1_555
C14 C13 1_555 1_555
H12 C14 1_555 1_555
N6 Cu1 1_555 1_555
C16 N1 1_555 1_555
Cu1_2 N2 1_555 1_555
N2_2 Cu1 1_555 1_555
N3 C16 1_555 1_555
C6 C7 1_555 1_555
N4 N5 1_555 1_555
C8 C9 1_555 1_555
C10 N6 1_555 1_555
C14 N6 1_555 1_555

#END
