
#######################################################################
#
#                 Cambridge Crystallographic Data Centre
#                                CCDC 
#
#######################################################################
#
# If this CIF has been generated from an entry in the Cambridge 
# Structural Database, then it will include bibliographic, chemical, 
# crystal, experimental, refinement or atomic coordinate data resulting 
# from the CCDC's data processing and validation procedures.
#
#######################################################################

data_PIVJOU
_symmetry_cell_setting           monoclinic
_symmetry_space_group_name_H-M   'P c'
_symmetry_Int_Tables_number      7
_space_group_name_Hall           'P -2yc'
loop_
_symmetry_equiv_pos_site_id
_symmetry_equiv_pos_as_xyz
1 x,y,z
2 x,-y,1/2+z
_cell_length_a                   6.8435(14)
_cell_length_b                   9.6060(19)
_cell_length_c                   18.836(4)
_cell_angle_alpha                90
_cell_angle_beta                 90.53(3)
_cell_angle_gamma                90
_cell_volume                     1238.2
loop_
_atom_site_label
_atom_site_type_symbol
_atom_site_fract_x
_atom_site_fract_y
_atom_site_fract_z
Br1 Br 0.56533(16) 0.74692(12) 0.05964(7)
Br2 Br 0.09416(16) 0.34425(13) 0.16795(7)
C1 C 0.0787(18) 0.8405(12) 0.1151(6)
C2 C -0.0045(15) 0.8124(11) -0.0106(6)
H1 H -0.0256 0.7540 -0.0493
C3 C -0.0168(14) 0.9567(11) -0.0166(6)
H2 H -0.0440 0.9969 -0.0605
C4 C 0.0088(13) 1.0329(11) 0.0371(5)
H3 H -0.0187 1.1271 0.0318
C5 C 0.0780(16) 0.9865(9) 0.1074(5)
H4 H 0.1174 1.0474 0.1432
C6 C 0.6493(16) 0.2418(11) 0.2364(6)
H5 H 0.6727 0.2939 0.2772
C7 C 0.6679(15) 0.0977(10) 0.2383(6)
H6 H 0.7038 0.0535 0.2803
C8 C 0.6328(16) 0.0198(13) 0.1773(6)
H7 H 0.6453 -0.0765 0.1785
C9 C 0.5791(16) 0.0860(10) 0.1144(6)
H8 H 0.5557 0.0339 0.0736
C10 C 0.5605(18) 0.2300(9) 0.1126(7)
Cu1 Cu 0.31785(19) 0.53188(11) 0.11485(7)
Cu2 Cu 0.81901(18) 0.53440(12) 0.11301(7)
N1 N 0.0398(14) 0.7618(8) 0.0546(6)
N2 N 0.5956(15) 0.3079(9) 0.1736(5)
O1 O -0.0262(9) 0.6552(7) 0.1945(4)
O2 O 0.3333(11) 0.6523(7) 0.1922(3)
O3 O 0.2072(10) 0.8451(7) 0.2566(4)
O4 O 0.0499(10) 0.6245(7) 0.0578(4)
O5 O 0.5873(10) 0.4451(7) 0.1700(4)
O6 O 0.6745(10) 0.4182(7) 0.0324(3)
O7 O 0.2966(10) 0.4205(7) 0.0309(4)
O8 O 0.4245(10) 0.2268(7) -0.0289(4)
P1 P 0.1570(4) 0.7416(3) 0.19651(15)
P2 P 0.4798(4) 0.3311(2) 0.02932(12)
Br2_2 Br 1.09416(16) 0.34425(13) 0.16795(7)
Cu2_2 Cu -0.18099(18) 0.53440(12) 0.11301(7)
O1_2 O 0.9738(9) 0.6552(7) 0.1945(4)
O4_2 O 1.0499(10) 0.6245(7) 0.0578(4)
Cu3 Cu -0.18498(17) 0.67685(12) 0.35669(7)
O9 O -0.2775(10) 0.7353(7) 0.2558(4)
H9 H -0.1912 0.7052 0.2275
H10 H -0.3909 0.7040 0.2463
O10 O -0.4248(9) 0.5312(7) 0.3359(4)
H11 H -0.4556 0.5037 0.2931
H12 H -0.3876 0.4618 0.3637
O11 O -0.0947(9) 0.6327(7) 0.4586(3)
H13 H -0.1322 0.5508 0.4650
H14 H 0.0367 0.6382 0.4750
O12 O 0.0597(9) 0.8046(6) 0.3684(3)
H15 H 0.1653 0.7735 0.4010
H16 H 0.0860 0.8096 0.3298
O13 O -0.3977(11) 0.8471(6) 0.3689(4)
H17 H -0.4346 0.8442 0.4119
H18 H -0.4965 0.8264 0.3434
O14 O 0.0042(10) 0.4877(6) 0.3291(3)
H19 H 0.1276 0.4871 0.3582
H20 H 0.0066 0.4984 0.2872
O15 O 0.2289(10) 0.1454(6) 0.3021(3)
H21 H 0.1253 0.1864 0.2729
H22 H 0.1999 0.0601 0.3050
O16 O 0.4093(10) 0.3609(8) 0.4060(4)
H23 H 0.3752 0.3491 0.4428
H24 H 0.3602 0.2950 0.3768
loop_
_geom_bond_atom_site_label_1
_geom_bond_atom_site_label_2
_geom_bond_site_symmetry_1
_geom_bond_site_symmetry_2
Br1 Cu1 1_555 1_555
Br2 Cu1 1_555 1_555
C1 C5 1_555 1_555
C2 H1 1_555 1_555
C3 C2 1_555 1_555
H2 C3 1_555 1_555
C4 C3 1_555 1_555
H3 C4 1_555 1_555
C5 C4 1_555 1_555
H4 C5 1_555 1_555
C6 H5 1_555 1_555
C7 C6 1_555 1_555
H6 C7 1_555 1_555
C8 C7 1_555 1_555
H7 C8 1_555 1_555
C9 C8 1_555 1_555
H8 C9 1_555 1_555
C10 C9 1_555 1_555
Cu1 O2 1_555 1_555
Cu2 Br1 1_555 1_555
N1 C1 1_555 1_555
N2 C6 1_555 1_555
O1 P1 1_555 1_555
O2 P1 1_555 1_555
O3 P1 1_555 1_555
O4 Cu1 1_555 1_555
O5 Cu1 1_555 1_555
O6 Cu2 1_555 1_555
O7 Cu1 1_555 1_555
O8 P2 1_555 1_555
P1 C1 1_555 1_555
P2 C10 1_555 1_555
Cu3 O9 1_555 1_555
O9 H9 1_555 1_555
H10 O9 1_555 1_555
O10 Cu3 1_555 1_555
H11 O10 1_555 1_555
H12 O10 1_555 1_555
O11 Cu3 1_555 1_555
H13 O11 1_555 1_555
H14 O11 1_555 1_555
O12 Cu3 1_555 1_555
H15 O12 1_555 1_555
H16 O12 1_555 1_555
O13 Cu3 1_555 1_555
H17 O13 1_555 1_555
H18 O13 1_555 1_555
O14 Cu3 1_555 1_555
H19 O14 1_555 1_555
H20 O14 1_555 1_555
O15 H21 1_555 1_555
H22 O15 1_555 1_555
O16 H23 1_555 1_555
H24 O16 1_555 1_555
Br2_2 Cu2 1_555 1_555
Cu2_2 Br2 1_555 1_555
O1_2 Cu2 1_555 1_555
O4_2 Cu2 1_555 1_555
C2 N1 1_555 1_555
C10 N2 1_555 1_555
Cu2 O5 1_555 1_555
N1 O4 1_555 1_555
N2 O5 1_555 1_555
O1 Cu2_2 1_555 1_555
O4 Cu2_2 1_555 1_555
O6 P2 1_555 1_555
O7 P2 1_555 1_555

#END
