
#######################################################################
#
#                 Cambridge Crystallographic Data Centre
#                                CCDC 
#
#######################################################################
#
# If this CIF has been generated from an entry in the Cambridge 
# Structural Database, then it will include bibliographic, chemical, 
# crystal, experimental, refinement or atomic coordinate data resulting 
# from the CCDC's data processing and validation procedures.
#
#######################################################################

data_PIVJAG
_symmetry_cell_setting           monoclinic
_symmetry_space_group_name_H-M   'P 21/n'
_symmetry_Int_Tables_number      14
_space_group_name_Hall           '-P 2yn'
loop_
_symmetry_equiv_pos_site_id
_symmetry_equiv_pos_as_xyz
1 x,y,z
2 1/2-x,1/2+y,1/2-z
3 -x,-y,-z
4 1/2+x,1/2-y,1/2+z
_cell_length_a                   9.4995(14)
_cell_length_b                   11.604(2)
_cell_length_c                   15.228(5)
_cell_angle_alpha                90
_cell_angle_beta                 106.25(2)
_cell_angle_gamma                90
_cell_volume                     1611.55
loop_
_atom_site_label
_atom_site_type_symbol
_atom_site_fract_x
_atom_site_fract_y
_atom_site_fract_z
Cu1 Cu 0.43688(2) 0.855250(16) 0.213277(13)
O1 O 0.51465(14) 0.71613(10) 0.17868(9)
C1 C 0.60392(17) 0.70794(14) 0.12944(11)
C2 C 0.63939(17) 0.58664(14) 0.10979(11)
C3 C 0.67759(18) 0.55637(15) 0.03074(12)
H1 H 0.6862 0.6131 -0.0106
C4 C 0.7028(2) 0.44196(16) 0.01379(13)
H2 H 0.7258 0.4221 -0.0397
C5 C 0.6940(2) 0.35728(16) 0.07559(14)
H3 H 0.7125 0.2808 0.0642
C6 C 0.6576(2) 0.38631(16) 0.15449(14)
H4 H 0.6525 0.3296 0.1966
C7 C 0.62853(19) 0.50061(15) 0.17067(12)
H5 H 0.6015 0.5195 0.2230
C8 C 0.66840(18) 0.79919(14) 0.09759(11)
H6 H 0.7366 0.7817 0.0661
C9 C 0.63976(18) 0.91774(14) 0.10870(11)
C10 C 0.7298(2) 1.00396(16) 0.07355(13)
H7 H 0.6673 1.0456 0.0230
H8 H 0.8041 0.9643 0.0537
H9 H 0.7752 1.0569 0.1215
N1 N 0.53949(15) 0.95239(11) 0.14642(9)
C11 C 0.5125(2) 1.07574(14) 0.15456(13)
H10 H 0.5081 1.1148 0.0975
H11 H 0.5909 1.1097 0.2026
C12 C 0.3677(2) 1.08800(15) 0.17707(13)
H12 H 0.3565 1.1666 0.1958
H13 H 0.2876 1.0714 0.1231
N2 N 0.36194(15) 1.00772(12) 0.25150(10)
C13 C 0.4635(2) 1.04626(18) 0.33933(13)
H14 H 0.5624 1.0438 0.3352
H15 H 0.4543 0.9962 0.3876
H16 H 0.4394 1.1237 0.3521
C14 C 0.2113(2) 1.00328(18) 0.26129(14)
H17 H 0.2071 0.9471 0.3068
H18 H 0.1440 0.9822 0.2038
H19 H 0.1852 1.0776 0.2796
N3 N 0.42441(16) 0.77722(13) 0.32977(10)
C15 C 0.45865(18) 0.74034(16) 0.40209(12)
N4 N 0.4773(2) 0.6941(2) 0.48233(13)
C16 C 0.6021(2) 0.68890(16) 0.54424(12)
N5 N 0.70453(18) 0.67965(15) 0.60498(11)
Cu1C Cu 0.93688(2) 0.644750(16) 0.713277(13)
N5C N 0.20453(18) 0.82035(15) 0.10498(11)
loop_
_geom_bond_atom_site_label_1
_geom_bond_atom_site_label_2
_geom_bond_site_symmetry_1
_geom_bond_site_symmetry_2
Cu1 O1 1_555 1_555
O1 C1 1_555 1_555
C1 C2 1_555 1_555
C2 C3 1_555 1_555
C3 H1 1_555 1_555
C4 C3 1_555 1_555
H2 C4 1_555 1_555
C5 C4 1_555 1_555
H3 C5 1_555 1_555
C6 C5 1_555 1_555
H4 C6 1_555 1_555
C7 C2 1_555 1_555
H5 C7 1_555 1_555
C8 C1 1_555 1_555
H6 C8 1_555 1_555
C9 C8 1_555 1_555
C10 C9 1_555 1_555
H7 C10 1_555 1_555
H8 C10 1_555 1_555
H9 C10 1_555 1_555
N1 Cu1 1_555 1_555
C11 N1 1_555 1_555
H10 C11 1_555 1_555
H11 C11 1_555 1_555
C12 C11 1_555 1_555
H12 C12 1_555 1_555
H13 C12 1_555 1_555
N2 Cu1 1_555 1_555
C13 N2 1_555 1_555
H14 C13 1_555 1_555
H15 C13 1_555 1_555
H16 C13 1_555 1_555
C14 N2 1_555 1_555
H17 C14 1_555 1_555
H18 C14 1_555 1_555
H19 C14 1_555 1_555
N3 Cu1 1_555 1_555
C15 N3 1_555 1_555
N4 C15 1_555 1_555
C16 N4 1_555 1_555
N5 C16 1_555 1_555
Cu1C N5 1_555 1_555
N5C Cu1 1_555 1_555
C6 C7 1_555 1_555
C9 N1 1_555 1_555
C12 N2 1_555 1_555

#END
