
#######################################################################
#
#                 Cambridge Crystallographic Data Centre
#                                CCDC 
#
#######################################################################
#
# If this CIF has been generated from an entry in the Cambridge 
# Structural Database, then it will include bibliographic, chemical, 
# crystal, experimental, refinement or atomic coordinate data resulting 
# from the CCDC's data processing and validation procedures.
#
#######################################################################

data_PIVJIO
_symmetry_cell_setting           monoclinic
_symmetry_space_group_name_H-M   'P c'
_symmetry_Int_Tables_number      7
_space_group_name_Hall           'P -2yc'
loop_
_symmetry_equiv_pos_site_id
_symmetry_equiv_pos_as_xyz
1 x,y,z
2 x,-y,1/2+z
_cell_length_a                   6.8435(17)
_cell_length_b                   9.606(2)
_cell_length_c                   19.981(5)
_cell_angle_alpha                90
_cell_angle_beta                 109.498(8)
_cell_angle_gamma                90
_cell_volume                     1238.2
loop_
_atom_site_label
_atom_site_type_symbol
_atom_site_fract_x
_atom_site_fract_y
_atom_site_fract_z
Cu1 Cu 0.31547(18) 0.53178(9) 0.11374(6)
Cu2 Cu -0.18417(17) 0.53455(9) 0.11230(6)
P1 P 0.1539(4) 0.7416(2) 0.19594(11)
P2 P 0.4776(3) 0.3317(2) 0.02852(11)
O1 O -0.0315(9) 0.6524(5) 0.1931(3)
O2 O 0.3320(9) 0.6503(5) 0.1934(3)
O3 O 0.2090(9) 0.8459(5) 0.2564(3)
O4 O 0.0523(10) 0.6210(5) 0.0577(3)
O5 O 0.5842(9) 0.4443(5) 0.1697(3)
O6 O 0.6684(8) 0.4188(5) 0.0310(3)
O7 O 0.2968(9) 0.4212(5) 0.0317(3)
O8 O 0.4216(9) 0.2294(5) -0.0312(3)
N1 N 0.0419(12) 0.7595(7) 0.0527(3)
N2 N 0.5947(12) 0.2984(6) 0.1700(4)
Cl1 Cl 0.5682(3) 0.71350(17) 0.07128(10)
Cl2 Cl 0.0613(3) 0.35590(18) 0.15808(11)
C1 C 0.084(2) 0.8388(8) 0.1134(5)
C2 C -0.0151(15) 0.8163(9) -0.0112(5)
H1 H -0.0489 0.7609 -0.0516
C3 C -0.0235(14) 0.9596(9) -0.0168(5)
H2 H -0.0540 1.0004 -0.0613
C4 C 0.0097(13) 1.0373(9) 0.0376(4)
H3 H -0.0079 1.1329 0.0309
C5 C 0.0718(16) 0.9848(8) 0.1075(5)
H4 H 0.1028 1.0427 0.1470
C6 C 0.5567(15) 0.2354(7) 0.1115(5)
C7 C 0.6386(15) 0.2348(8) 0.2348(4)
H5 H 0.6432 0.2871 0.2745
C8 C 0.6737(16) 0.1022(8) 0.2410(5)
H6 H 0.7252 0.0600 0.2854
C9 C 0.6299(17) 0.0223(8) 0.1767(4)
H7 H 0.6386 -0.0743 0.1781
C10 C 0.5756(16) 0.0915(7) 0.1140(5)
H8 H 0.5507 0.0417 0.0720
Cu2_2 Cu 0.81583(17) 0.53455(9) 0.11230(6)
O5_2 O -0.4158(9) 0.4443(5) 0.1697(3)
O6_2 O -0.3316(8) 0.4188(5) 0.0310(3)
Cl1_2 Cl -0.4318(3) 0.71350(17) 0.07128(10)
Cu3 Cu 0.81320(15) 0.67693(11) 0.35631(5)
O9 O 0.7205(9) 0.7297(5) 0.2582(3)
H9 H 0.8243 0.7492 0.2456
H10 H 0.6524 0.6635 0.2327
O10 O 0.5741(8) 0.5387(5) 0.3333(3)
H11 H 0.5433 0.5112 0.2905
H12 H 0.6113 0.4693 0.3611
O11 O 0.9062(9) 0.6337(5) 0.4562(3)
H13 H 0.8687 0.5518 0.4626
H14 H 1.0376 0.6392 0.4726
O12 O 1.0555(9) 0.8070(5) 0.3687(3)
H15 H 1.1611 0.7759 0.4013
H16 H 1.0818 0.8120 0.3301
O13 O 0.5946(9) 0.8455(5) 0.3703(3)
H17 H 0.5524 0.8952 0.3330
H18 H 0.4914 0.8077 0.3777
O14 O 1.0035(9) 0.4882(5) 0.3281(3)
H19 H 1.1269 0.4876 0.3572
H20 H 1.0059 0.4989 0.2862
O15 O 0.2264(9) 0.1466(5) 0.3038(3)
H21 H 0.1228 0.1876 0.2746
H22 H 0.1974 0.0613 0.3067
O16 O 0.4023(8) 0.3627(6) 0.4057(3)
H23 H 0.3682 0.3509 0.4425
H24 H 0.3532 0.2968 0.3765
loop_
_geom_bond_atom_site_label_1
_geom_bond_atom_site_label_2
_geom_bond_site_symmetry_1
_geom_bond_site_symmetry_2
Cu1 O2 1_555 1_555
Cu2 O1 1_555 1_555
P1 O1 1_555 1_555
P2 O6 1_555 1_555
O2 P1 1_555 1_555
O3 P1 1_555 1_555
O4 Cu1 1_555 1_555
O5 Cu1 1_555 1_555
O6 Cu2_2 1_555 1_555
O7 Cu1 1_555 1_555
O8 P2 1_555 1_555
N1 O4 1_555 1_555
N2 O5 1_555 1_555
Cl1 Cu1 1_555 1_555
Cl2 Cu1 1_555 1_555
C1 P1 1_555 1_555
C2 N1 1_555 1_555
H1 C2 1_555 1_555
C3 C2 1_555 1_555
H2 C3 1_555 1_555
C4 C3 1_555 1_555
H3 C4 1_555 1_555
C5 C1 1_555 1_555
H4 C5 1_555 1_555
C6 P2 1_555 1_555
C7 N2 1_555 1_555
H5 C7 1_555 1_555
C8 C7 1_555 1_555
H6 C8 1_555 1_555
C9 C8 1_555 1_555
H7 C9 1_555 1_555
C10 C6 1_555 1_555
H8 C10 1_555 1_555
Cu3 O9 1_555 1_555
O9 H9 1_555 1_555
H10 O9 1_555 1_555
O10 Cu3 1_555 1_555
H11 O10 1_555 1_555
H12 O10 1_555 1_555
O11 Cu3 1_555 1_555
H13 O11 1_555 1_555
H14 O11 1_555 1_555
O12 Cu3 1_555 1_555
H15 O12 1_555 1_555
H16 O12 1_555 1_555
O13 Cu3 1_555 1_555
H17 O13 1_555 1_555
H18 O13 1_555 1_555
O14 Cu3 1_555 1_555
H19 O14 1_555 1_555
H20 O14 1_555 1_555
O15 H21 1_555 1_555
H22 O15 1_555 1_555
O16 H23 1_555 1_555
H24 O16 1_555 1_555
Cu2_2 O5 1_555 1_555
O5_2 Cu2 1_555 1_555
O6_2 Cu2 1_555 1_555
Cl1_2 Cu2 1_555 1_555
Cu2 O4 1_555 1_555
Cu2 Cl2 1_555 1_555
P2 O7 1_555 1_555
N1 C1 1_555 1_555
N2 C6 1_555 1_555
Cl1 Cu2_2 1_555 1_555
C4 C5 1_555 1_555
C9 C10 1_555 1_555

#END
