
#######################################################################
#
#                 Cambridge Crystallographic Data Centre
#                                CCDC 
#
#######################################################################
#
# If this CIF has been generated from an entry in the Cambridge 
# Structural Database, then it will include bibliographic, chemical, 
# crystal, experimental, refinement or atomic coordinate data resulting 
# from the CCDC's data processing and validation procedures.
#
#######################################################################

data_PIVNUE
_symmetry_cell_setting           triclinic
_symmetry_space_group_name_H-M   'P -1'
_symmetry_Int_Tables_number      2
_space_group_name_Hall           '-P 1'
loop_
_symmetry_equiv_pos_site_id
_symmetry_equiv_pos_as_xyz
1 x,y,z
2 -x,-y,-z
_cell_length_a                   11.852(2)
_cell_length_b                   11.868(2)
_cell_length_c                   11.910(2)
_cell_angle_alpha                102.21(3)
_cell_angle_beta                 112.52(3)
_cell_angle_gamma                112.14(3)
_cell_volume                     1303.57
loop_
_atom_site_label
_atom_site_type_symbol
_atom_site_fract_x
_atom_site_fract_y
_atom_site_fract_z
Cu1 Cu 0.51979(6) 0.97505(5) 0.36539(5)
Ni1 Ni 0.60282(7) 1.10575(6) 0.14615(5)
Cl1 Cl 0.71359(17) 1.33040(14) 0.22872(15)
N1 N 0.3999(4) 1.0491(3) 0.2621(3)
N2 N 0.2855(4) 0.9524(3) 0.1380(3)
N3 N 0.3728(4) 0.8173(3) 0.1903(3)
N4 N 0.4893(4) 0.7142(4) 0.2785(4)
N5 N 0.5831(4) 0.8373(4) 0.3858(3)
N6 N 0.3676(7) 0.8888(6) 0.4442(4)
N7 N 0.2709(6) 0.8024(6) 0.3952(5)
N8 N 0.1558(7) 0.6926(6) 0.3253(6)
N9 N 0.6792(7) 1.0783(6) 0.3095(5)
N10 N 0.7924(7) 1.1032(6) 0.3598(5)
N11 N 0.9126(9) 1.1259(12) 0.4144(8)
N12 N 0.5504(5) 0.9280(4) 0.0256(4)
N13 N 0.5750(5) 0.8431(5) 0.0553(4)
N14 N 0.6022(6) 0.7694(5) 0.0859(5)
C1 C 0.2143(5) 1.0058(4) 0.0696(4)
C2 C 0.2843(5) 1.1381(4) 0.1539(4)
H1 H 0.2609 1.2030 0.1357
C3 C 0.3965(5) 1.1603(4) 0.2715(4)
C4 C 0.0926(5) 0.9331(5) -0.0709(5)
H2 H 0.1066 0.8700 -0.1239
H3 H 0.0870 0.9975 -0.1092
H4 H 0.0045 0.8841 -0.0719
C5 C 0.5052(5) 1.2884(4) 0.3937(5)
H5 H 0.5415 1.2686 0.4714
H6 H 0.4619 1.3417 0.4081
H7 H 0.5835 1.3388 0.3815
C6 C 0.2644(5) 0.8216(4) 0.1047(4)
C7 C 0.1435(5) 0.7069(4) -0.0023(4)
H8 H 0.0665 0.7108 -0.0636
C8 C 0.1401(5) 0.5876(4) -0.0155(5)
H9 H 0.0592 0.5077 -0.0886
C9 C 0.2490(5) 0.5799(4) 0.0727(5)
H10 H 0.2444 0.4966 0.0637
C10 C 0.3670(5) 0.6999(4) 0.1765(4)
C11 C 0.5421(6) 0.6288(5) 0.2867(5)
C12 C 0.6697(6) 0.6997(5) 0.4035(5)
H11 H 0.7320 0.6679 0.4386
C13 C 0.6926(5) 0.8271(5) 0.4623(4)
C14 C 0.4717(6) 0.4914(5) 0.1811(6)
H12 H 0.3809 0.4346 0.1721
H13 H 0.5329 0.4531 0.2063
H14 H 0.4554 0.4965 0.0956
C15 C 0.8176(6) 0.9405(6) 0.5907(5)
H15 H 0.7928 1.0065 0.6204
H16 H 0.8970 0.9827 0.5771
H17 H 0.8448 0.9065 0.6588
Cu1A Cu 0.48021(6) 1.02495(5) 0.63461(5)
Ni1A Ni 0.39718(7) 0.89425(6) -0.14615(5)
N6A N 0.6324(7) 1.1112(6) 0.5558(4)
N12A N 0.4496(5) 1.0720(4) -0.0256(4)
N15 N 0.2214(6) 0.4060(5) 0.2906(5)
C16 C 0.1654(7) 0.4257(6) 0.3453(6)
C17 C 0.0921(7) 0.4477(8) 0.4097(7)
H18 H 0.1381 0.5438 0.4631
H19 H 0.0939 0.4007 0.4683
H20 H -0.0064 0.4139 0.3424
N16 N -0.0677(6) 0.7750(5) 0.0828(5)
C18 C -0.0991(6) 0.7438(5) 0.1555(5)
C19 C -0.1413(8) 0.7005(8) 0.2444(7)
H21 H -0.1623 0.6082 0.2253
H22 H -0.2259 0.7052 0.2312
H23 H -0.0642 0.7588 0.3371
loop_
_geom_bond_atom_site_label_1
_geom_bond_atom_site_label_2
_geom_bond_site_symmetry_1
_geom_bond_site_symmetry_2
Cu1 N1 1_555 1_555
Ni1 Cl1 1_555 1_555
N1 N2 1_555 1_555
N2 C1 1_555 1_555
N3 Cu1 1_555 1_555
N4 N5 1_555 1_555
N5 Cu1 1_555 1_555
N6 Cu1 1_555 1_555
N7 N6 1_555 1_555
N8 N7 1_555 1_555
N9 Cu1 1_555 1_555
N10 N9 1_555 1_555
N11 N10 1_555 1_555
N12 Ni1 1_555 1_555
N13 N12 1_555 1_555
N14 N13 1_555 1_555
N15 C16 1_555 1_555
N16 C18 1_555 1_555
C1 C2 1_555 1_555
C2 H1 1_555 1_555
C3 N1 1_555 1_555
C4 C1 1_555 1_555
H2 C4 1_555 1_555
H3 C4 1_555 1_555
H4 C4 1_555 1_555
C5 C3 1_555 1_555
H5 C5 1_555 1_555
H6 C5 1_555 1_555
H7 C5 1_555 1_555
C6 N2 1_555 1_555
C7 C6 1_555 1_555
H8 C7 1_555 1_555
C8 C7 1_555 1_555
H9 C8 1_555 1_555
C9 C8 1_555 1_555
H10 C9 1_555 1_555
C10 N3 1_555 1_555
C11 N4 1_555 1_555
C12 C11 1_555 1_555
H11 C12 1_555 1_555
C13 N5 1_555 1_555
C14 C11 1_555 1_555
H12 C14 1_555 1_555
H13 C14 1_555 1_555
H14 C14 1_555 1_555
C15 C13 1_555 1_555
H15 C15 1_555 1_555
H16 C15 1_555 1_555
H17 C15 1_555 1_555
C16 C17 1_555 1_555
C17 H18 1_555 1_555
H19 C17 1_555 1_555
H20 C17 1_555 1_555
C18 C19 1_555 1_555
C19 H21 1_555 1_555
H22 C19 1_555 1_555
H23 C19 1_555 1_555
Cu1A N6 1_555 1_555
Ni1A N12 1_555 1_555
N6A Cu1 1_555 1_555
N12A Ni1 1_555 1_555
Ni1 N9 1_555 1_555
N3 C6 1_555 1_555
N4 C10 1_555 1_555
C2 C3 1_555 1_555
C9 C10 1_555 1_555
C12 C13 1_555 1_555
Cu1A N6A 1_555 1_555
Ni1A N12A 1_555 1_555

#END
