
#######################################################################
#
#                 Cambridge Crystallographic Data Centre
#                                CCDC 
#
#######################################################################
#
# If this CIF has been generated from an entry in the Cambridge 
# Structural Database, then it will include bibliographic, chemical, 
# crystal, experimental, refinement or atomic coordinate data resulting 
# from the CCDC's data processing and validation procedures.
#
#######################################################################

data_PIVNOY
_symmetry_cell_setting           triclinic
_symmetry_space_group_name_H-M   'P -1'
_symmetry_Int_Tables_number      2
_space_group_name_Hall           '-P 1'
loop_
_symmetry_equiv_pos_site_id
_symmetry_equiv_pos_as_xyz
1 x,y,z
2 -x,-y,-z
_cell_length_a                   9.3824(19)
_cell_length_b                   9.4618(19)
_cell_length_c                   13.615(3)
_cell_angle_alpha                106.55(3)
_cell_angle_beta                 97.90(3)
_cell_angle_gamma                104.33(3)
_cell_volume                     1094.04
loop_
_atom_site_label
_atom_site_type_symbol
_atom_site_fract_x
_atom_site_fract_y
_atom_site_fract_z
Cu1 Cu 0.49281(7) 0.04850(7) 0.12178(5)
Co1 Co 0.49466(6) 0.13610(7) 0.45772(5)
N1 N 0.3250(5) -0.1369(5) 0.1327(3)
N2 N 0.3761(5) -0.2229(5) 0.1878(3)
N3 N 0.5944(5) -0.0234(4) 0.2378(3)
N4 N 0.7931(5) 0.1927(5) 0.2690(3)
N5 N 0.6957(5) 0.2239(5) 0.1976(3)
N6 N 0.5821(5) -0.0936(5) 0.0097(3)
N7 N 0.6451(5) -0.1872(5) 0.0191(3)
N8 N 0.7017(7) -0.2771(7) 0.0284(5)
N9 N 0.3755(6) 0.2054(5) 0.2093(3)
N10 N 0.3547(5) 0.1841(5) 0.2871(3)
N11 N 0.3301(5) 0.1615(5) 0.3658(4)
N12 N 0.3691(5) -0.0719(5) 0.4492(4)
N13 N 0.2319(5) -0.1250(5) 0.4194(3)
N14 N 0.1053(5) -0.1748(6) 0.3912(4)
N15 N 0.6527(5) 0.3169(5) 0.4687(4)
N16 N 0.6267(5) 0.4186(5) 0.4390(3)
N17 N 0.6100(6) 0.5194(5) 0.4124(4)
C1 C 0.2617(6) -0.3494(6) 0.1818(4)
C2 C 0.1361(6) -0.3431(6) 0.1212(4)
H1 H 0.0378 -0.4149 0.1024
C3 C 0.1796(6) -0.2103(6) 0.0919(4)
C4 C 0.2775(7) -0.4668(6) 0.2323(5)
H2 H 0.1795 -0.5453 0.2167
H3 H 0.3126 -0.4162 0.3086
H4 H 0.3508 -0.5161 0.2049
C5 C 0.0865(7) -0.1500(8) 0.0253(5)
H5 H 0.1202 -0.0367 0.0525
H6 H -0.0199 -0.1882 0.0270
H7 H 0.0983 -0.1855 -0.0473
C6 C 0.5274(5) -0.1596(5) 0.2455(4)
C7 C 0.6024(6) -0.2301(6) 0.3030(4)
H8 H 0.5523 -0.3263 0.3096
C8 C 0.7524(6) -0.1548(6) 0.3499(4)
H9 H 0.8066 -0.2004 0.3896
C9 C 0.8268(6) -0.0140(6) 0.3410(4)
H10 H 0.9311 0.0365 0.3715
C10 C 0.7397(5) 0.0486(5) 0.2848(4)
C11 C 0.9152(6) 0.3192(6) 0.3217(4)
C12 C 0.8968(6) 0.4326(6) 0.2804(4)
H11 H 0.9634 0.5347 0.3000
C13 C 0.7602(6) 0.3680(6) 0.2038(4)
C14 C 1.0373(6) 0.3308(7) 0.4079(5)
H12 H 0.9930 0.2976 0.4618
H13 H 1.1021 0.4383 0.4391
H14 H 1.0976 0.2643 0.3798
C15 C 0.6875(7) 0.4415(6) 0.1363(5)
H15 H 0.6947 0.3967 0.0635
H16 H 0.7388 0.5531 0.1615
H17 H 0.5810 0.4231 0.1396
Cu1A Cu 0.50719(7) -0.04850(7) -0.12178(5)
Co1A Co 0.50534(6) -0.13610(7) 0.54228(5)
N6A N 0.4179(5) 0.0936(5) -0.0097(3)
N12A N 0.6309(5) 0.0719(5) 0.5508(4)
loop_
_geom_bond_atom_site_label_1
_geom_bond_atom_site_label_2
_geom_bond_site_symmetry_1
_geom_bond_site_symmetry_2
Cu1 N1 1_555 1_555
Co1 N11 1_555 1_555
N1 N2 1_555 1_555
N2 C1 1_555 1_555
N3 Cu1 1_555 1_555
N4 N5 1_555 1_555
N5 Cu1 1_555 1_555
N6 Cu1 1_555 1_555
N7 N6 1_555 1_555
N8 N7 1_555 1_555
N9 Cu1 1_555 1_555
N10 N9 1_555 1_555
N11 N10 1_555 1_555
N12 Co1 1_555 1_555
N13 N12 1_555 1_555
N14 N13 1_555 1_555
N15 Co1 1_555 1_555
N16 N15 1_555 1_555
N17 N16 1_555 1_555
C1 C2 1_555 1_555
C2 H1 1_555 1_555
C3 N1 1_555 1_555
C4 C1 1_555 1_555
H2 C4 1_555 1_555
H3 C4 1_555 1_555
H4 C4 1_555 1_555
C5 C3 1_555 1_555
H5 C5 1_555 1_555
H6 C5 1_555 1_555
H7 C5 1_555 1_555
C6 N2 1_555 1_555
C7 C6 1_555 1_555
H8 C7 1_555 1_555
C8 C7 1_555 1_555
H9 C8 1_555 1_555
C9 C8 1_555 1_555
H10 C9 1_555 1_555
C10 N3 1_555 1_555
C11 N4 1_555 1_555
C12 C11 1_555 1_555
H11 C12 1_555 1_555
C13 N5 1_555 1_555
C14 C11 1_555 1_555
H12 C14 1_555 1_555
H13 C14 1_555 1_555
H14 C14 1_555 1_555
C15 C13 1_555 1_555
H15 C15 1_555 1_555
H16 C15 1_555 1_555
H17 C15 1_555 1_555
Cu1A N6 1_555 1_555
Co1A N12 1_555 1_555
N6A Cu1 1_555 1_555
N12A Co1 1_555 1_555
N3 C6 1_555 1_555
N4 C10 1_555 1_555
C2 C3 1_555 1_555
C9 C10 1_555 1_555
C12 C13 1_555 1_555
Cu1A N6A 1_555 1_555
Co1A N12A 1_555 1_555

#END
