
#######################################################################
#
#                 Cambridge Crystallographic Data Centre
#                                CCDC 
#
#######################################################################
#
# If this CIF has been generated from an entry in the Cambridge 
# Structural Database, then it will include bibliographic, chemical, 
# crystal, experimental, refinement or atomic coordinate data resulting 
# from the CCDC's data processing and validation procedures.
#
#######################################################################

data_PIVNAK
_symmetry_cell_setting           monoclinic
_symmetry_space_group_name_H-M   'C 2/c'
_symmetry_Int_Tables_number      15
_space_group_name_Hall           '-C 2yn'
loop_
_symmetry_equiv_pos_site_id
_symmetry_equiv_pos_as_xyz
1 x,y,z
2 1/2+x,1/2+y,z
3 -x,y,1/2-z
4 1/2-x,1/2+y,1/2-z
5 -x,-y,-z
6 1/2-x,1/2-y,-z
7 x,-y,1/2+z
8 1/2+x,1/2-y,1/2+z
_cell_length_a                   24.4394(9)
_cell_length_b                   7.4952(3)
_cell_length_c                   21.4748(8)
_cell_angle_alpha                90.00
_cell_angle_beta                 95.9100(10)
_cell_angle_gamma                90.00
_cell_volume                     3912.81
loop_
_atom_site_label
_atom_site_type_symbol
_atom_site_fract_x
_atom_site_fract_y
_atom_site_fract_z
Cu1 Cu 0.601021(15) -0.11824(5) 0.652519(17)
N1 N 0.67878(11) -0.0601(4) 0.68254(12)
N2 N 0.71277(11) -0.0451(4) 0.63559(12)
N3 N 0.63479(12) -0.1081(3) 0.57295(13)
N4 N 0.54960(11) -0.1826(4) 0.52887(13)
N5 N 0.53632(11) -0.1680(4) 0.58943(13)
N6 N 0.56658(12) 0.0763(4) 0.70381(14)
N7 N 0.57581(18) 0.3691(4) 0.75481(16)
C1 C 0.76540(13) -0.0054(4) 0.66013(16)
C2 C 0.76420(14) 0.0044(5) 0.72362(16)
H1 H 0.7945 0.0289 0.7538
C3 C 0.70961(14) -0.0286(5) 0.73583(15)
C4 C 0.81267(14) 0.0201(6) 0.62283(17)
H2 H 0.8463 0.0384 0.6511
H3 H 0.8060 0.1247 0.5957
H4 H 0.8169 -0.0859 0.5970
C5 C 0.68524(15) -0.0293(6) 0.79645(15)
H5 H 0.6782 0.0936 0.8089
H6 H 0.7109 -0.0862 0.8286
H7 H 0.6506 -0.0960 0.7918
C6 C 0.68800(13) -0.0678(4) 0.57420(15)
C7 C 0.71343(15) -0.0510(5) 0.51985(16)
H8 H 0.7515 -0.0239 0.5209
C8 C 0.68082(15) -0.0757(5) 0.46407(16)
H9 H 0.6968 -0.0622 0.4259
C9 C 0.62533(15) -0.1197(4) 0.46194(16)
H10 H 0.6031 -0.1369 0.4234
C10 C 0.60432(13) -0.1368(4) 0.51927(16)
C11 C 0.50598(14) -0.2459(5) 0.49019(16)
C12 C 0.46401(14) -0.2695(5) 0.52703(17)
H11 H 0.4280 -0.3115 0.5137
C13 C 0.48424(14) -0.2198(5) 0.58839(17)
C14 C 0.50728(16) -0.2860(5) 0.42231(17)
H12 H 0.5118 -0.1747 0.3994
H13 H 0.4728 -0.3437 0.4060
H14 H 0.5382 -0.3659 0.4169
C15 C 0.45666(15) -0.2239(6) 0.64663(19)
H15 H 0.4594 -0.3442 0.6646
H16 H 0.4178 -0.1917 0.6371
H17 H 0.4745 -0.1385 0.6768
C16 C 0.57120(13) 0.2184(5) 0.72497(15)
N8 N 0.58839(13) 0.6613(4) 0.70770(14)
C17 C 0.58237(15) 0.5192(5) 0.72606(16)
Cu1_2 Cu 0.601021(15) 0.88176(5) 0.652519(17)
N8_2 N 0.58839(13) -0.3387(4) 0.70770(14)
Cl1 Cl 0.67377(3) 0.42298(11) 0.58542(4)
O1 O 0.69113(14) 0.5654(4) 0.62703(14)
O2 O 0.63587(13) 0.3092(5) 0.61146(18)
O3 O 0.72211(13) 0.3220(4) 0.57389(16)
O4 O 0.65036(14) 0.4954(4) 0.52648(14)
loop_
_geom_bond_atom_site_label_1
_geom_bond_atom_site_label_2
_geom_bond_site_symmetry_1
_geom_bond_site_symmetry_2
Cu1 N1 1_555 1_555
Cl1 O1 1_555 1_555
O2 Cl1 1_555 1_555
O3 Cl1 1_555 1_555
O4 Cl1 1_555 1_555
N1 N2 1_555 1_555
N2 C1 1_555 1_555
N3 Cu1 1_555 1_555
N4 N5 1_555 1_555
N5 Cu1 1_555 1_555
N6 Cu1 1_555 1_555
N7 C16 1_555 1_555
C1 C2 1_555 1_555
C2 H1 1_555 1_555
C3 N1 1_555 1_555
C4 C1 1_555 1_555
H2 C4 1_555 1_555
H3 C4 1_555 1_555
H4 C4 1_555 1_555
C5 C3 1_555 1_555
H5 C5 1_555 1_555
H6 C5 1_555 1_555
H7 C5 1_555 1_555
C6 N2 1_555 1_555
C7 C6 1_555 1_555
H8 C7 1_555 1_555
C8 C7 1_555 1_555
H9 C8 1_555 1_555
C9 C8 1_555 1_555
H10 C9 1_555 1_555
C10 N3 1_555 1_555
C11 N4 1_555 1_555
C12 C11 1_555 1_555
H11 C12 1_555 1_555
C13 N5 1_555 1_555
C14 C11 1_555 1_555
H12 C14 1_555 1_555
H13 C14 1_555 1_555
H14 C14 1_555 1_555
C15 C13 1_555 1_555
H15 C15 1_555 1_555
H16 C15 1_555 1_555
H17 C15 1_555 1_555
C16 N6 1_555 1_555
N8 C17 1_555 1_555
C17 N7 1_555 1_555
Cu1_2 N8 1_555 1_555
N8_2 Cu1 1_555 1_555
N3 C6 1_555 1_555
N4 C10 1_555 1_555
C2 C3 1_555 1_555
C9 C10 1_555 1_555
C12 C13 1_555 1_555

#END
