
#######################################################################
#
#                 Cambridge Crystallographic Data Centre
#                                CCDC 
#
#######################################################################
#
# If this CIF has been generated from an entry in the Cambridge 
# Structural Database, then it will include bibliographic, chemical, 
# crystal, experimental, refinement or atomic coordinate data resulting 
# from the CCDC's data processing and validation procedures.
#
#######################################################################

data_PIVPFE
_symmetry_cell_setting           orthorhombic
_symmetry_space_group_name_H-M   'P 21 21 21'
_symmetry_Int_Tables_number      19
_space_group_name_Hall           'P 2ac 2ab'
loop_
_symmetry_equiv_pos_site_id
_symmetry_equiv_pos_as_xyz
1 x,y,z
2 1/2+x,1/2-y,-z
3 -x,1/2+y,1/2-z
4 1/2-x,-y,1/2+z
_cell_length_a                   15.448(4)
_cell_length_b                   26.481(6)
_cell_length_c                   14.960(4)
_cell_angle_alpha                90
_cell_angle_beta                 90
_cell_angle_gamma                90
_cell_volume                     6119.81
loop_
_atom_site_label
_atom_site_type_symbol
_atom_site_fract_x
_atom_site_fract_y
_atom_site_fract_z
S1 S 0.37040 -0.47730 0.13200
C1 C 0.45500 -0.47180 0.03400
C2 C 0.52300 -0.46770 0.06500
C3 C 0.53200 -0.47730 0.16600
C4 C 0.46300 -0.46990 0.21000
Fe1 Fe 0.03337 -0.20770 0.13497
N1 N -0.04950 -0.21120 0.24170
N2 N 0.02280 -0.28550 0.12200
N3 N 0.14250 -0.21020 0.05340
N4 N 0.06840 -0.13520 0.17370
N5 N -0.01330 -0.36970 0.35180
O2 O 0.02570 -0.45090 0.34280
C5 C 0.04930 -0.40680 0.35490
C6 C 0.14260 -0.39340 0.36600
C7 C 0.16480 -0.38690 0.46310
C8 C 0.16080 -0.34010 0.32450
C9 C 0.19820 -0.43520 0.32530
N6 N -0.19350 -0.16060 -0.02590
O3 O -0.06900 -0.18100 0.04200
C10 C -0.11480 -0.17740 -0.02620
C11 C -0.07580 -0.19670 -0.11560
C12 C -0.05680 -0.25400 -0.10620
C13 C 0.01270 -0.16800 -0.12930
C14 C -0.13620 -0.18270 -0.19290
N7 N 0.32320 -0.09270 0.17370
O4 O 0.44920 -0.08480 0.22110
C15 C 0.37140 -0.09550 0.23690
C16 C 0.36050 -0.11990 0.32760
C17 C 0.32880 -0.17560 0.30760
C18 C 0.28790 -0.09110 0.37520
C19 C 0.44390 -0.12390 0.38890
N8 N 0.00610 -0.14120 0.47290
O5 O -0.00580 -0.15070 0.62400
C20 C 0.02310 -0.16870 0.55080
C21 C 0.07150 -0.21850 0.54650
C22 C 0.08190 -0.23790 0.64020
C23 C 0.15550 -0.20840 0.49790
C24 C 0.01060 -0.25400 0.48850
C25 C -0.09250 -0.30070 0.23300
C26 C 0.13630 -0.29940 0.00710
C27 C 0.19020 -0.12220 0.06620
C28 C -0.03790 -0.12170 0.29590
C29 C -0.07500 -0.17030 0.29430
C30 C -0.14430 -0.18530 0.34940
C31 C -0.16350 -0.23640 0.33700
C32 C -0.10130 -0.25140 0.26800
C33 C -0.03490 -0.31590 0.16440
C34 C -0.02780 -0.36760 0.13550
C35 C 0.03360 -0.36630 0.06940
C36 C 0.06580 -0.31550 0.06410
C37 C 0.16860 -0.25120 0.00480
C38 C 0.24390 -0.23770 -0.05450
C39 C 0.25660 -0.18690 -0.03510
C40 C 0.19430 -0.16950 0.03110
C41 C 0.13140 -0.10520 0.13210
C42 C 0.13000 -0.05440 0.17020
C43 C 0.06800 -0.05420 0.23570
C44 C 0.02690 -0.10550 0.23870
C45 C -0.14400 -0.34150 0.27800
C46 C -0.23300 -0.34560 0.26100
C47 C -0.28030 -0.38460 0.30000
C48 C -0.24000 -0.41940 0.35500
C49 C -0.15100 -0.41530 0.37200
C50 C -0.10370 -0.37630 0.33300
H1 H -0.34070 -0.38700 0.28800
H2 H -0.27200 -0.44610 0.38200
H3 H -0.12300 -0.43900 0.41000
C51 C 0.17100 -0.33870 -0.05600
C52 C 0.12010 -0.35630 -0.12600
C53 C 0.15500 -0.38880 -0.19000
C54 C 0.24100 -0.40360 -0.18400
C55 C 0.29270 -0.38590 -0.11400
C56 C -0.24200 -0.14650 0.05000
H4 H 0.06100 -0.34600 -0.13000
H5 H 0.12000 -0.40080 -0.23800
H6 H 0.26500 -0.42600 -0.22800
H7 H 0.35200 -0.39600 -0.11000
C57 C 0.25500 -0.08410 0.03500
C58 C 0.24900 -0.06470 -0.05100
C59 C 0.31200 -0.03140 -0.08200
C60 C 0.38000 -0.01760 -0.02700
C61 C 0.38600 -0.03700 0.05900
C62 C 0.32300 -0.07020 0.09000
H8 H 0.42300 0.00510 -0.04900
H9 H 0.43300 -0.02800 0.09700
C63 C -0.06200 -0.08510 0.36800
C64 C -0.10500 -0.04010 0.34700
C65 C -0.13000 -0.00720 0.41500
C66 C -0.11200 -0.01930 0.50400
C67 C -0.07000 -0.06430 0.52450
C68 C -0.04500 -0.09720 0.45700
H10 H -0.11700 -0.03180 0.28600
H11 H -0.15900 0.02350 0.40100
H12 H -0.12900 0.00300 0.55000
H13 H -0.05800 -0.07260 0.58510
C56A C 0.25800 -0.35350 -0.05000
C51A C -0.32900 -0.16130 0.05600
C55A C -0.20730 -0.11410 0.11400
N6A N 0.30650 -0.33940 0.02590
C26A C -0.36370 -0.20060 -0.00710
C52A C -0.37990 -0.14370 0.12600
C54A C -0.25900 -0.09640 0.18400
H7A H -0.14800 -0.10400 0.11000
C10A C 0.38520 -0.32260 0.02620
C36A C -0.43420 -0.18450 -0.06410
C37A C -0.33140 -0.24880 -0.00480
C53A C -0.34500 -0.11120 0.19000
H4A H -0.43900 -0.15400 0.13000
H6A H -0.23500 -0.07400 0.22800
O3A O 0.43100 -0.31900 -0.04200
C11A C 0.42420 -0.30330 0.11560
N2A N -0.47720 -0.21450 -0.12200
C35A C -0.46640 -0.13370 -0.06940
N3A N -0.35750 -0.28980 -0.05340
C38A C -0.25610 -0.26230 0.05450
H5A H -0.38000 -0.09920 0.23800
Fe1A Fe 0.53337 -0.29230 -0.13497
C12A C 0.44320 -0.24600 0.10620
C13A C 0.51270 -0.33200 0.12930
C14A C 0.36380 -0.31730 0.19290
Fe1A_2 Fe -0.46663 -0.29230 -0.13497
C33A C -0.53490 -0.18410 -0.16440
C34A C -0.52780 -0.13240 -0.13550
C40A C -0.30570 -0.33050 -0.03110
C39A C -0.24340 -0.31310 0.03510
N1A N 0.45050 -0.28880 -0.24170
N2A_2 N 0.52280 -0.21450 -0.12200
N3A_2 N 0.64250 -0.28980 -0.05340
N4A N 0.56840 -0.36480 -0.17370
C25A C -0.59250 -0.19930 -0.23300
C27A C -0.30980 -0.37780 -0.06620
C29A C 0.42500 -0.32970 -0.29430
C32A C 0.39870 -0.24860 -0.26800
C41A C 0.63140 -0.39480 -0.13210
C44A C 0.52690 -0.39450 -0.23870
C32A_2 C -0.60130 -0.24860 -0.26800
C45A C -0.64400 -0.15850 -0.27800
C41A_2 C -0.36860 -0.39480 -0.13210
C57A C -0.24500 -0.41590 -0.03500
C28A C 0.46210 -0.37830 -0.29590
C30A C 0.35570 -0.31470 -0.34940
C25A_2 C 0.40750 -0.19930 -0.23300
C31A C 0.33650 -0.26360 -0.33700
C27A_2 C 0.69020 -0.37780 -0.06620
C42A C 0.63000 -0.44560 -0.17020
C43A C 0.56800 -0.44580 -0.23570
C46A C -0.73300 -0.15440 -0.26100
C50A C -0.60370 -0.12370 -0.33300
C58A C -0.25100 -0.43530 0.05100
C62A C -0.17700 -0.42980 -0.09000
C63A C 0.43800 -0.41490 -0.36800
C47A C -0.78030 -0.11540 -0.30000
N5A N -0.51330 -0.13030 -0.35180
C49A C -0.65100 -0.08470 -0.37200
C59A C -0.18800 -0.46860 0.08200
N7A N -0.17680 -0.40730 -0.17370
C61A C -0.11400 -0.46300 -0.05900
C64A C 0.39500 -0.45990 -0.34700
C68A C 0.45500 -0.40280 -0.45700
C48A C -0.74000 -0.08060 -0.35500
H1A H -0.84070 -0.11300 -0.28800
C5A C -0.45070 -0.09320 -0.35490
H3A H -0.62300 -0.06100 -0.41000
C60A C -0.12000 -0.48240 0.02700
C15A C -0.12860 -0.40450 -0.23690
H9A H -0.06700 -0.47200 -0.09700
C65A C 0.37000 -0.49280 -0.41500
H10A H 0.38300 -0.46820 -0.28600
N8A N 0.50610 -0.35880 -0.47290
C67A C 0.43000 -0.43570 -0.52450
H2A H -0.77200 -0.05390 -0.38200
O2A O -0.47430 -0.04910 -0.34280
C6A C -0.35740 -0.10660 -0.36600
H8A H -0.07700 -0.50510 0.04900
O4A O -0.05080 -0.41520 -0.22110
C16A C -0.13950 -0.38010 -0.32760
C66A C 0.38800 -0.48070 -0.50400
H11A H 0.34100 -0.52350 -0.40100
C20A C 0.52310 -0.33130 -0.55080
H13A H 0.44200 -0.42740 -0.58510
C7A C -0.33520 -0.11310 -0.46310
C8A C -0.33920 -0.15990 -0.32450
C9A C -0.30180 -0.06480 -0.32530
C17A C -0.17120 -0.32440 -0.30760
C18A C -0.21210 -0.40890 -0.37520
C19A C -0.05610 -0.37610 -0.38890
H12A H 0.37100 -0.50300 -0.55000
O5A O 0.49420 -0.34930 -0.62400
C21A C 0.57150 -0.28150 -0.54650
C22A C 0.58190 -0.26210 -0.64020
C23A C 0.65550 -0.29160 -0.49790
C24A C 0.51060 -0.24600 -0.48850
O1 O 0.16160 -0.23320 0.26890
loop_
_geom_bond_atom_site_label_1
_geom_bond_atom_site_label_2
_geom_bond_site_symmetry_1
_geom_bond_site_symmetry_2
S1 C1 1_555 1_555
C1 C2 1_555 1_555
C2 C3 1_555 1_555
C3 C4 1_555 1_555
C4 S1 1_555 1_555
Fe1 N1 1_555 1_555
N1 C29 1_555 1_555
N2 Fe1 1_555 1_555
N3 Fe1 1_555 1_555
N4 Fe1 1_555 1_555
N5 C5 1_555 1_555
O2 C5 1_555 1_555
C5 C6 1_555 1_555
C6 C7 1_555 1_555
C8 C6 1_555 1_555
C9 C6 1_555 1_555
N6 C10 1_555 1_555
O3 Fe1 1_555 1_555
C10 O3 1_555 1_555
C11 C10 1_555 1_555
C12 C11 1_555 1_555
C13 C11 1_555 1_555
C14 C11 1_555 1_555
N7 C15 1_555 1_555
O4 C15 1_555 1_555
C15 C16 1_555 1_555
C16 C17 1_555 1_555
C18 C16 1_555 1_555
C19 C16 1_555 1_555
N8 C20 1_555 1_555
O5 C20 1_555 1_555
C20 C21 1_555 1_555
C21 C22 1_555 1_555
C23 C21 1_555 1_555
C24 C21 1_555 1_555
C25 C32 1_555 1_555
C26 C36 1_555 1_555
C27 C40 1_555 1_555
C28 C29 1_555 1_555
C29 C30 1_555 1_555
C30 C31 1_555 1_555
C31 C32 1_555 1_555
C32 N1 1_555 1_555
C33 N2 1_555 1_555
C34 C33 1_555 1_555
C35 C34 1_555 1_555
C36 N2 1_555 1_555
C37 N3 1_555 1_555
C38 C37 1_555 1_555
C39 C38 1_555 1_555
C40 N3 1_555 1_555
C41 N4 1_555 1_555
C42 C41 1_555 1_555
C43 C42 1_555 1_555
C44 N4 1_555 1_555
C45 C25 1_555 1_555
C46 C45 1_555 1_555
C47 C46 1_555 1_555
C48 C47 1_555 1_555
C49 C48 1_555 1_555
C50 N5 1_555 1_555
H1 C47 1_555 1_555
H2 C48 1_555 1_555
H3 C49 1_555 1_555
C51 C26 1_555 1_555
C52 C51 1_555 1_555
C53 C52 1_555 1_555
C54 C53 1_555 1_555
C55 C54 1_555 1_555
C56 N6 1_555 1_555
H4 C52 1_555 1_555
H5 C53 1_555 1_555
H6 C54 1_555 1_555
H7 C55 1_555 1_555
C57 C27 1_555 1_555
C58 C57 1_555 1_555
C59 C58 1_555 1_555
C60 C59 1_555 1_555
C61 C60 1_555 1_555
C62 N7 1_555 1_555
H8 C60 1_555 1_555
H9 C61 1_555 1_555
C63 C28 1_555 1_555
C64 C63 1_555 1_555
C65 C64 1_555 1_555
C66 C65 1_555 1_555
C67 C66 1_555 1_555
C68 N8 1_555 1_555
H10 C64 1_555 1_555
H11 C65 1_555 1_555
H12 C66 1_555 1_555
H13 C67 1_555 1_555
C56A C51 1_555 1_555
C51A C56 1_555 1_555
C55A C56 1_555 1_555
N6A C56A 1_555 1_555
C26A C51A 1_555 1_555
C52A C51A 1_555 1_555
C54A C55A 1_555 1_555
H7A C55A 1_555 1_555
C10A N6A 1_555 1_555
C36A C26A 1_555 1_555
C37A C26A 1_555 1_555
C53A C52A 1_555 1_555
H4A C52A 1_555 1_555
H6A C54A 1_555 1_555
O3A C10A 1_555 1_555
C11A C10A 1_555 1_555
N2A C36A 1_555 1_555
C35A C36A 1_555 1_555
N3A C37A 1_555 1_555
C38A C37A 1_555 1_555
H5A C53A 1_555 1_555
Fe1A O3A 1_555 1_555
C12A C11A 1_555 1_555
C13A C11A 1_555 1_555
C14A C11A 1_555 1_555
Fe1A_2 N2A 1_555 1_555
C33A N2A 1_555 1_555
C34A C35A 1_555 1_555
C40A N3A 1_555 1_555
C39A C38A 1_555 1_555
N1A Fe1A 1_555 1_555
N2A_2 Fe1A 1_555 1_555
N3A_2 Fe1A 1_555 1_555
N4A Fe1A 1_555 1_555
C25A C33A 1_555 1_555
C27A C40A 1_555 1_555
C29A N1A 1_555 1_555
C32A N1A 1_555 1_555
C41A N4A 1_555 1_555
C44A N4A 1_555 1_555
C32A_2 C25A 1_555 1_555
C45A C25A 1_555 1_555
C41A_2 C27A 1_555 1_555
C57A C27A 1_555 1_555
C28A C29A 1_555 1_555
C30A C29A 1_555 1_555
C25A_2 C32A 1_555 1_555
C31A C32A 1_555 1_555
C27A_2 C41A 1_555 1_555
C42A C41A 1_555 1_555
C43A C44A 1_555 1_555
C46A C45A 1_555 1_555
C50A C45A 1_555 1_555
C58A C57A 1_555 1_555
C62A C57A 1_555 1_555
C63A C28A 1_555 1_555
C47A C46A 1_555 1_555
N5A C50A 1_555 1_555
C49A C50A 1_555 1_555
C59A C58A 1_555 1_555
N7A C62A 1_555 1_555
C61A C62A 1_555 1_555
C64A C63A 1_555 1_555
C68A C63A 1_555 1_555
C48A C47A 1_555 1_555
H1A C47A 1_555 1_555
C5A N5A 1_555 1_555
H3A C49A 1_555 1_555
C60A C59A 1_555 1_555
C15A N7A 1_555 1_555
H9A C61A 1_555 1_555
C65A C64A 1_555 1_555
H10A C64A 1_555 1_555
N8A C68A 1_555 1_555
C67A C68A 1_555 1_555
H2A C48A 1_555 1_555
O2A C5A 1_555 1_555
C6A C5A 1_555 1_555
H8A C60A 1_555 1_555
O4A C15A 1_555 1_555
C16A C15A 1_555 1_555
C66A C65A 1_555 1_555
H11A C65A 1_555 1_555
C20A N8A 1_555 1_555
H13A C67A 1_555 1_555
C7A C6A 1_555 1_555
C8A C6A 1_555 1_555
C9A C6A 1_555 1_555
C17A C16A 1_555 1_555
C18A C16A 1_555 1_555
C19A C16A 1_555 1_555
H12A C66A 1_555 1_555
O5A C20A 1_555 1_555
C21A C20A 1_555 1_555
C22A C21A 1_555 1_555
C23A C21A 1_555 1_555
C24A C21A 1_555 1_555
C25 C33 1_555 1_555
C26 C37 1_555 1_555
C27 C41 1_555 1_555
C28 C44 1_555 1_555
C35 C36 1_555 1_555
C39 C40 1_555 1_555
C43 C44 1_555 1_555
C45 C50 1_555 1_555
C49 C50 1_555 1_555
C55 C56A 1_555 1_555
C57 C62 1_555 1_555
C61 C62 1_555 1_555
C63 C68 1_555 1_555
C67 C68 1_555 1_555
C54A C53A 1_555 1_555
N3A Fe1A_2 1_555 1_555
C33A C34A 1_555 1_555
C40A C39A 1_555 1_555
C44A C28A 1_555 1_555
C30A C31A 1_555 1_555
C42A C43A 1_555 1_555
C49A C48A 1_555 1_555
C61A C60A 1_555 1_555
C67A C66A 1_555 1_555

#END
