
#######################################################################
#
#                 Cambridge Crystallographic Data Centre
#                                CCDC 
#
#######################################################################
#
# If this CIF has been generated from an entry in the Cambridge 
# Structural Database, then it will include bibliographic, chemical, 
# crystal, experimental, refinement or atomic coordinate data resulting 
# from the CCDC's data processing and validation procedures.
#
#######################################################################

data_PIVPOA
_symmetry_cell_setting           monoclinic
_symmetry_space_group_name_H-M   'P 21/c'
_symmetry_Int_Tables_number      14
_space_group_name_Hall           '-P 2ybc'
loop_
_symmetry_equiv_pos_site_id
_symmetry_equiv_pos_as_xyz
1 x,y,z
2 -x,1/2+y,1/2-z
3 -x,-y,-z
4 x,1/2-y,1/2+z
_cell_length_a                   9.1261(10)
_cell_length_b                   23.287(2)
_cell_length_c                   16.4972(11)
_cell_angle_alpha                90
_cell_angle_beta                 95.441(10)
_cell_angle_gamma                90
_cell_volume                     3490.18
loop_
_atom_site_label
_atom_site_type_symbol
_atom_site_fract_x
_atom_site_fract_y
_atom_site_fract_z
C1 C 0.8850(7) 0.1753(2) 0.3160(3)
H1 H 0.8728 0.2149 0.3179
C2 C 1.0202(7) 0.1521(3) 0.3434(4)
H2 H 1.0974 0.1759 0.3630
C3 C 1.0394(7) 0.0934(3) 0.3414(5)
H3 H 1.1283 0.0769 0.3615
C4 C 0.9234(6) 0.0593(2) 0.3088(4)
H4 H 0.9346 0.0198 0.3042
C5 C 0.7919(6) 0.08533(19) 0.2836(3)
C6 C 0.6607(5) 0.05136(18) 0.2515(3)
C7 C 0.4115(5) 0.06224(17) 0.1977(3)
C8 C 0.2989(6) 0.10685(18) 0.1755(3)
C9 C 0.1611(7) 0.0928(2) 0.1407(4)
H5 H 0.1354 0.0546 0.1309
C10 C 0.0614(7) 0.1361(3) 0.1205(5)
H6 H -0.0319 0.1277 0.0956
C11 C 0.1025(7) 0.1926(2) 0.1379(4)
H7 H 0.0374 0.2226 0.1247
C12 C 0.2387(6) 0.20313(19) 0.1744(3)
H8 H 0.2643 0.2409 0.1876
C13 C 0.6755(6) 0.1692(2) 0.0734(3)
H9 H 0.6586 0.1298 0.0730
C14 C 0.7424(6) 0.1933(2) 0.0096(3)
H10 H 0.7695 0.1705 -0.0328
C15 C 0.7683(6) 0.2518(2) 0.0095(3)
H11 H 0.8154 0.2688 -0.0319
C16 C 0.7227(6) 0.2842(2) 0.0722(3)
H12 H 0.7369 0.3237 0.0732
C17 C 0.6556(5) 0.25747(18) 0.1335(3)
C18 C 0.5993(5) 0.29019(18) 0.2017(3)
C19 C 0.5000(5) 0.27784(17) 0.3278(3)
C20 C 0.4500(5) 0.23222(18) 0.3832(3)
C21 C 0.3802(6) 0.2449(2) 0.4508(3)
H13 H 0.3594 0.2828 0.4633
C22 C 0.3413(7) 0.2009(2) 0.5000(4)
H14 H 0.2919 0.2085 0.5457
C23 C 0.3772(7) 0.1451(2) 0.4803(4)
H15 H 0.3554 0.1147 0.5136
C24 C 0.4448(6) 0.1354(2) 0.4114(3)
H16 H 0.4668 0.0977 0.3982
N1 N 0.7720(4) 0.14303(15) 0.2869(2)
N2 N 0.5421(4) 0.08438(14) 0.2279(2)
N3 N 0.3394(5) 0.16152(15) 0.1925(2)
N4 N 0.6346(4) 0.19990(15) 0.1351(2)
N5 N 0.5567(4) 0.25663(14) 0.2613(2)
N6 N 0.4808(5) 0.17728(15) 0.3622(2)
N7 N 0.5479(9) -0.0676(2) 0.0514(4)
O1 O 0.6680(4) -0.00133(12) 0.2494(2)
O3 O 0.3794(4) 0.01142(12) 0.1894(2)
O4 O 0.7152(4) -0.12298(14) 0.2817(2)
O6 O 0.5936(4) 0.34331(12) 0.1977(2)
O7 O 0.4732(5) -0.04446(15) 0.3550(2)
O9 O 0.4868(4) 0.32880(12) 0.34633(19)
O10 O 0.2354(4) -0.08830(15) 0.2060(3)
O11 O 0.6508(6) -0.06699(19) 0.1084(3)
O12 O 0.4205(6) -0.07233(16) 0.0718(3)
O13 O 0.5738(8) -0.0646(2) -0.0198(3)
Ni1 Ni 0.55743(7) 0.17032(2) 0.24470(4)
Tb1 Tb 0.49451(3) -0.079490(8) 0.220730(15)
O6A O 0.4064(4) -0.15669(12) 0.3023(2)
O9A O 0.5132(4) -0.17120(12) 0.15367(19)
Tb1A Tb 0.50549(3) 0.420510(8) 0.279270(15)
N8 N 1.0258(8) 0.3110(2) 0.3148(6)
O14 O 0.9549(11) 0.3076(3) 0.3680(6)
O15 O 0.9537(9) 0.3231(3) 0.2504(6)
O16 O 1.1481(7) 0.2955(2) 0.3071(4)
N9 N 0.7494(8) 0.4651(3) 0.0031(4)
O17 O 0.7615(8) 0.4310(3) 0.0583(5)
O18 O 0.8483(16) 0.5003(6) 0.0085(9)
O19 O 0.6535(9) 0.4852(4) -0.0423(7)
O2 O 0.0904(7) 0.4145(3) 0.0956(4)
O5 O 0.8316(7) 0.4619(3) 0.5391(5)
O8 O 0.9926(8) 0.4482(3) 0.4048(5)
loop_
_geom_bond_atom_site_label_1
_geom_bond_atom_site_label_2
_geom_bond_site_symmetry_1
_geom_bond_site_symmetry_2
C1 H1 1_555 1_555
C2 C1 1_555 1_555
H2 C2 1_555 1_555
C3 C2 1_555 1_555
H3 C3 1_555 1_555
C4 C3 1_555 1_555
H4 C4 1_555 1_555
C5 C4 1_555 1_555
C6 C5 1_555 1_555
C7 C8 1_555 1_555
C8 C9 1_555 1_555
C9 H5 1_555 1_555
C10 C9 1_555 1_555
H6 C10 1_555 1_555
C11 C10 1_555 1_555
H7 C11 1_555 1_555
C12 C11 1_555 1_555
H8 C12 1_555 1_555
C13 H9 1_555 1_555
C14 C13 1_555 1_555
H10 C14 1_555 1_555
C15 C14 1_555 1_555
H11 C15 1_555 1_555
C16 C15 1_555 1_555
H12 C16 1_555 1_555
C17 C16 1_555 1_555
C18 C17 1_555 1_555
C19 C20 1_555 1_555
C20 C21 1_555 1_555
C21 H13 1_555 1_555
C22 C21 1_555 1_555
H14 C22 1_555 1_555
C23 C22 1_555 1_555
H15 C23 1_555 1_555
C24 C23 1_555 1_555
H16 C24 1_555 1_555
N1 C1 1_555 1_555
N2 C6 1_555 1_555
N3 C8 1_555 1_555
N4 C13 1_555 1_555
N5 C18 1_555 1_555
N6 C20 1_555 1_555
N7 O11 1_555 1_555
N8 O14 1_555 1_555
N9 O17 1_555 1_555
O1 C6 1_555 1_555
O3 C7 1_555 1_555
O4 Tb1 1_555 1_555
O6 C18 1_555 1_555
O7 Tb1 1_555 1_555
O9 C19 1_555 1_555
O10 Tb1 1_555 1_555
O11 Tb1 1_555 1_555
O12 N7 1_555 1_555
O13 N7 1_555 1_555
O15 N8 1_555 1_555
O16 N8 1_555 1_555
O18 N9 1_555 1_555
O19 N9 1_555 1_555
Ni1 N1 1_555 1_555
Tb1 O1 1_555 1_555
O6A Tb1 1_555 1_555
O9A Tb1 1_555 1_555
Tb1A O6 1_555 1_555
C5 N1 1_555 1_555
C7 N2 1_555 1_555
C12 N3 1_555 1_555
C17 N4 1_555 1_555
C19 N5 1_555 1_555
C24 N6 1_555 1_555
N2 Ni1 1_555 1_555
N3 Ni1 1_555 1_555
N4 Ni1 1_555 1_555
N5 Ni1 1_555 1_555
N6 Ni1 1_555 1_555
O3 Tb1 1_555 1_555
O9 Tb1A 1_555 1_555
O12 Tb1 1_555 1_555

#END
