
#######################################################################
#
#                 Cambridge Crystallographic Data Centre
#                                CCDC 
#
#######################################################################
#
# If this CIF has been generated from an entry in the Cambridge 
# Structural Database, then it will include bibliographic, chemical, 
# crystal, experimental, refinement or atomic coordinate data resulting 
# from the CCDC's data processing and validation procedures.
#
#######################################################################

data_PIVPUG
_symmetry_cell_setting           monoclinic
_symmetry_space_group_name_H-M   'P 21/c'
_symmetry_Int_Tables_number      14
_space_group_name_Hall           '-P 2ybc'
loop_
_symmetry_equiv_pos_site_id
_symmetry_equiv_pos_as_xyz
1 x,y,z
2 -x,1/2+y,1/2-z
3 -x,-y,-z
4 x,1/2-y,1/2+z
_cell_length_a                   9.0747(3)
_cell_length_b                   23.3593(7)
_cell_length_c                   16.3107(5)
_cell_angle_alpha                90
_cell_angle_beta                 95.177(2)
_cell_angle_gamma                90
_cell_volume                     3443.42
loop_
_atom_site_label
_atom_site_type_symbol
_atom_site_fract_x
_atom_site_fract_y
_atom_site_fract_z
C1 C 0.8682(4) 0.17806(16) 0.3242(2)
H1 H 0.8527 0.2183 0.3242
C2 C 1.0055(5) 0.15701(17) 0.3544(3)
H2 H 1.0821 0.1822 0.3753
C3 C 1.0282(5) 0.09844(19) 0.3532(3)
H3 H 1.1206 0.0827 0.3741
C4 C 0.9149(4) 0.06283(17) 0.3212(3)
H4 H 0.9290 0.0226 0.3188
C5 C 0.7819(4) 0.08710(14) 0.2929(3)
C6 C 0.6525(4) 0.05168(15) 0.2598(2)
C7 C 0.4019(4) 0.05962(16) 0.2057(2)
C8 C 0.2842(4) 0.10367(15) 0.1834(2)
C9 C 0.1469(4) 0.08775(16) 0.1476(3)
H5 H 0.1243 0.0488 0.1356
C10 C 0.0435(4) 0.13033(17) 0.1298(3)
H6 H -0.0523 0.1209 0.1052
C11 C 0.0795(5) 0.18646(18) 0.1477(3)
H7 H 0.0094 0.2161 0.1354
C12 C 0.2181(4) 0.19869(16) 0.1836(3)
H8 H 0.2421 0.2374 0.1971
C13 C 0.6588(4) 0.16381(15) 0.0779(2)
H9 H 0.6393 0.1239 0.0788
C14 C 0.7289(4) 0.18604(16) 0.0131(2)
H10 H 0.7574 0.1617 -0.0294
C15 C 0.7566(4) 0.24412(16) 0.0111(2)
H11 H 0.8067 0.2602 -0.0321
C16 C 0.7104(4) 0.27869(16) 0.0729(2)
H12 H 0.7259 0.3189 0.0720
C17 C 0.6418(4) 0.25367(15) 0.1355(2)
C18 C 0.5859(4) 0.28785(15) 0.2035(2)
C19 C 0.4874(4) 0.27889(15) 0.3324(2)
C20 C 0.4376(4) 0.23462(15) 0.3902(2)
C21 C 0.3665(4) 0.24916(16) 0.4590(2)
H13 H 0.3476 0.2882 0.4707
C22 C 0.3237(4) 0.20689(17) 0.5099(3)
H14 H 0.2736 0.2161 0.5569
C23 C 0.3548(4) 0.15044(17) 0.4919(3)
H15 H 0.3289 0.1204 0.5273
C24 C 0.4239(4) 0.13842(16) 0.4221(3)
H16 H 0.4441 0.0996 0.4097
N1 N 0.7572(3) 0.14429(12) 0.29542(19)
N2 N 0.5313(3) 0.08337(11) 0.2374(2)
N3 N 0.3212(3) 0.15840(12) 0.20059(19)
N4 N 0.6172(3) 0.19633(12) 0.13964(19)
N5 N 0.5407(3) 0.25568(12) 0.26496(19)
N6 N 0.4639(3) 0.17955(12) 0.37088(19)
N7 N 0.5656(5) -0.06570(14) 0.0526(2)
O1 O 0.6653(3) -0.00122(10) 0.25513(17)
O3 O 0.3740(3) 0.00837(10) 0.19492(16)
O4 O 0.7221(3) -0.12182(12) 0.2807(2)
O6 O 0.5821(3) 0.34086(10) 0.19718(16)
O7 O 0.4796(4) -0.05137(14) 0.3574(2)
O9 O 0.4770(3) 0.33022(10) 0.34914(15)
O10 O 0.2446(4) -0.09351(16) 0.2050(3)
O11 O 0.6672(3) -0.06663(13) 0.11142(19)
O12 O 0.4348(3) -0.06917(11) 0.07200(18)
O13 O 0.5929(4) -0.06198(15) -0.0191(2)
Ni1 Ni 0.54069(5) 0.169372(18) 0.25210(3)
Dy1 Dy 0.501290(19) -0.080470(7) 0.222030(11)
H17 H 0.188(6) -0.077(2) 0.175(4)
H18 H 0.785(5) -0.1063(18) 0.322(3)
H19 H 0.212(7) -0.121(3) 0.215(4)
H20 H 0.765(5) -0.143(2) 0.250(3)
H23 H 0.547(5) -0.034(2) 0.386(3)
H24 H 0.423(4) -0.0609(17) 0.385(3)
O6A O 0.4179(3) -0.15914(10) 0.30282(16)
O9A O 0.5230(3) -0.16978(10) 0.15086(15)
Dy1A Dy 0.498710(19) 0.419530(7) 0.277970(11)
N8 N 1.0181(4) 0.30887(14) 0.3162(3)
O14 O 0.9626(5) 0.30677(15) 0.3816(3)
O15 O 0.9398(4) 0.31726(15) 0.2514(2)
O16 O 1.1510(3) 0.29888(15) 0.3123(2)
N9 N 0.7383(4) 0.46628(16) 0.0030(2)
O17 O 0.7533(4) 0.42263(12) 0.0476(2)
O18 O 0.8273(5) 0.50469(19) 0.0124(3)
O19 O 0.6347(4) 0.47115(16) -0.0489(3)
O2 O 0.0775(5) 0.41741(17) 0.1015(3)
H21 H -0.019(6) 0.4173(19) 0.102(3)
H22 H 0.113(6) 0.441(2) 0.069(4)
O5 O 0.8272(5) 0.45827(17) 0.5311(3)
H25 H 0.858(4) 0.4851(16) 0.555(2)
H26 H 0.744(9) 0.464(4) 0.493(6)
O8 O 0.9948(5) 0.44828(18) 0.4009(3)
H27 H 1.054(7) 0.422(2) 0.403(6)
H28 H 0.934(9) 0.442(4) 0.434(5)
loop_
_geom_bond_atom_site_label_1
_geom_bond_atom_site_label_2
_geom_bond_site_symmetry_1
_geom_bond_site_symmetry_2
C1 H1 1_555 1_555
C2 C1 1_555 1_555
H2 C2 1_555 1_555
C3 C2 1_555 1_555
H3 C3 1_555 1_555
C4 C3 1_555 1_555
H4 C4 1_555 1_555
C5 C4 1_555 1_555
C6 C5 1_555 1_555
C7 C8 1_555 1_555
C8 C9 1_555 1_555
C9 H5 1_555 1_555
C10 C9 1_555 1_555
H6 C10 1_555 1_555
C11 C10 1_555 1_555
H7 C11 1_555 1_555
C12 C11 1_555 1_555
H8 C12 1_555 1_555
C13 H9 1_555 1_555
C14 C13 1_555 1_555
H10 C14 1_555 1_555
C15 C14 1_555 1_555
H11 C15 1_555 1_555
C16 C15 1_555 1_555
H12 C16 1_555 1_555
C17 C16 1_555 1_555
C18 C17 1_555 1_555
C19 C20 1_555 1_555
C20 C21 1_555 1_555
C21 H13 1_555 1_555
C22 C21 1_555 1_555
H14 C22 1_555 1_555
C23 C22 1_555 1_555
H15 C23 1_555 1_555
C24 C23 1_555 1_555
H16 C24 1_555 1_555
N1 C1 1_555 1_555
N2 C6 1_555 1_555
N3 C8 1_555 1_555
N4 C13 1_555 1_555
N5 C18 1_555 1_555
N6 C20 1_555 1_555
N7 O11 1_555 1_555
N8 O14 1_555 1_555
N9 O17 1_555 1_555
O1 C6 1_555 1_555
O2 H21 1_555 1_555
O3 C7 1_555 1_555
O4 Dy1 1_555 1_555
O5 H25 1_555 1_555
O6 C18 1_555 1_555
O7 Dy1 1_555 1_555
O8 H27 1_555 1_555
O9 C19 1_555 1_555
O10 Dy1 1_555 1_555
O11 Dy1 1_555 1_555
O12 N7 1_555 1_555
O13 N7 1_555 1_555
O15 N8 1_555 1_555
O16 N8 1_555 1_555
O18 N9 1_555 1_555
O19 N9 1_555 1_555
Ni1 N1 1_555 1_555
Dy1 O1 1_555 1_555
H17 O10 1_555 1_555
H18 O4 1_555 1_555
H19 O10 1_555 1_555
H20 O4 1_555 1_555
H22 O2 1_555 1_555
H23 O7 1_555 1_555
H24 O7 1_555 1_555
H26 O5 1_555 1_555
H28 O8 1_555 1_555
O6A Dy1 1_555 1_555
O9A Dy1 1_555 1_555
Dy1A O6 1_555 1_555
C5 N1 1_555 1_555
C7 N2 1_555 1_555
C12 N3 1_555 1_555
C17 N4 1_555 1_555
C19 N5 1_555 1_555
C24 N6 1_555 1_555
N2 Ni1 1_555 1_555
N3 Ni1 1_555 1_555
N4 Ni1 1_555 1_555
N5 Ni1 1_555 1_555
N6 Ni1 1_555 1_555
O3 Dy1 1_555 1_555
O9 Dy1A 1_555 1_555
O12 Dy1 1_555 1_555

#END
