
#######################################################################
#
#                 Cambridge Crystallographic Data Centre
#                                CCDC 
#
#######################################################################
#
# If this CIF has been generated from an entry in the Cambridge 
# Structural Database, then it will include bibliographic, chemical, 
# crystal, experimental, refinement or atomic coordinate data resulting 
# from the CCDC's data processing and validation procedures.
#
#######################################################################

data_PIVPIU
_symmetry_cell_setting           monoclinic
_symmetry_space_group_name_H-M   'P 21/c'
_symmetry_Int_Tables_number      14
_space_group_name_Hall           '-P 2ybc'
loop_
_symmetry_equiv_pos_site_id
_symmetry_equiv_pos_as_xyz
1 x,y,z
2 -x,1/2+y,1/2-z
3 -x,-y,-z
4 x,1/2-y,1/2+z
_cell_length_a                   9.1179(11)
_cell_length_b                   23.3192(32)
_cell_length_c                   16.4804(15)
_cell_angle_alpha                90
_cell_angle_beta                 95.350(10)
_cell_angle_gamma                90
_cell_volume                     3488.83
loop_
_atom_site_label
_atom_site_type_symbol
_atom_site_fract_x
_atom_site_fract_y
_atom_site_fract_z
C1 C 0.8850(13) 0.1745(4) 0.3162(6)
H1 H 0.8733 0.2141 0.3172
C2 C 1.0211(14) 0.1514(5) 0.3451(7)
H2 H 1.0973 0.1747 0.3676
C3 C 1.0383(13) 0.0931(6) 0.3392(8)
H3 H 1.1289 0.0762 0.3549
C4 C 0.9225(12) 0.0604(5) 0.3103(8)
H4 H 0.9318 0.0207 0.3082
C5 C 0.7905(10) 0.0862(4) 0.2841(6)
C6 C 0.6619(10) 0.0508(4) 0.2522(5)
C7 C 0.4096(10) 0.0626(4) 0.1977(5)
C8 C 0.2969(10) 0.1076(4) 0.1763(5)
C9 C 0.1605(12) 0.0927(4) 0.1418(7)
H5 H 0.1357 0.0544 0.1324
C10 C 0.0602(14) 0.1358(5) 0.1213(9)
H6 H -0.0334 0.1275 0.0968
C11 C 0.1034(14) 0.1920(5) 0.1382(8)
H7 H 0.0385 0.2220 0.1246
C12 C 0.2377(12) 0.2030(4) 0.1740(6)
H8 H 0.2634 0.2407 0.1866
C13 C 0.6753(10) 0.1700(4) 0.0727(5)
H9 H 0.6601 0.1306 0.0721
C14 C 0.7411(11) 0.1942(5) 0.0093(6)
H10 H 0.7680 0.1716 -0.0334
C15 C 0.7655(11) 0.2505(5) 0.0099(6)
H11 H 0.8133 0.2672 -0.0316
C16 C 0.7204(11) 0.2843(4) 0.0719(6)
H12 H 0.7334 0.3238 0.0722
C17 C 0.6546(9) 0.2564(4) 0.1338(5)
C18 C 0.5978(9) 0.2900(4) 0.2024(5)
C19 C 0.4986(9) 0.2780(4) 0.3290(5)
C20 C 0.4500(9) 0.2322(4) 0.3837(5)
C21 C 0.3808(10) 0.2450(4) 0.4523(5)
H13 H 0.3617 0.2829 0.4656
C22 C 0.3409(12) 0.2012(5) 0.5001(7)
H14 H 0.2919 0.2087 0.5459
C23 C 0.3737(12) 0.1459(5) 0.4801(6)
H15 H 0.3496 0.1156 0.5130
C24 C 0.4423(11) 0.1357(4) 0.4112(6)
H16 H 0.4633 0.0980 0.3980
N1 N 0.7712(8) 0.1425(3) 0.2872(4)
N2 N 0.5400(8) 0.0844(3) 0.2282(4)
N3 N 0.3376(8) 0.1612(3) 0.1925(4)
N4 N 0.6326(8) 0.1998(3) 0.1345(4)
N5 N 0.5554(8) 0.2563(3) 0.2609(4)
N6 N 0.4803(8) 0.1773(3) 0.3625(4)
N7 N 0.5465(17) -0.0676(4) 0.0489(7)
O1 O 0.6678(7) -0.0010(2) 0.2500(4)
O3 O 0.3792(7) 0.0117(2) 0.1903(4)
O4 O 0.7169(7) -0.1234(3) 0.2816(4)
O6 O 0.5935(7) 0.3429(2) 0.1984(4)
O7 O 0.4737(9) -0.0447(3) 0.3560(4)
O9 O 0.4860(7) 0.3286(2) 0.3462(3)
O10 O 0.2320(8) -0.0881(3) 0.2061(5)
O11 O 0.6515(11) -0.0675(4) 0.1075(5)
O12 O 0.4224(11) -0.0720(3) 0.0715(5)
O13 O 0.5734(14) -0.0641(5) -0.0212(5)
Ni1 Ni 0.55640(13) 0.17029(4) 0.24495(7)
Gd1 Gd 0.49477(5) -0.079530(17) 0.22078(3)
O6A O 0.4065(7) -0.1571(2) 0.3016(4)
O9A O 0.5140(7) -0.1714(2) 0.1538(3)
Gd1A Gd 0.50523(5) 0.420470(17) 0.27922(3)
N8 N 1.0261(16) 0.3119(5) 0.3172(11)
O14 O 0.9530(19) 0.3075(5) 0.3692(10)
O15 O 0.9549(16) 0.3232(6) 0.2518(11)
O16 O 1.1491(13) 0.2966(5) 0.3084(7)
N9 N 0.7429(17) 0.4652(7) 0.0044(9)
O17 O 0.7613(15) 0.4305(6) 0.0536(9)
O18 O 0.838(3) 0.4954(12) 0.0037(15)
O19 O 0.6604(18) 0.4833(8) -0.0401(12)
O2 O 0.0889(12) 0.4145(5) 0.0955(7)
O5 O 0.8340(12) 0.4624(5) 0.5396(9)
O8 O 0.9959(12) 0.4483(5) 0.4020(8)
loop_
_geom_bond_atom_site_label_1
_geom_bond_atom_site_label_2
_geom_bond_site_symmetry_1
_geom_bond_site_symmetry_2
C1 H1 1_555 1_555
C2 C1 1_555 1_555
H2 C2 1_555 1_555
C3 C2 1_555 1_555
H3 C3 1_555 1_555
C4 C3 1_555 1_555
H4 C4 1_555 1_555
C5 C4 1_555 1_555
C6 C5 1_555 1_555
C7 C8 1_555 1_555
C8 C9 1_555 1_555
C9 H5 1_555 1_555
C10 C9 1_555 1_555
H6 C10 1_555 1_555
C11 C10 1_555 1_555
H7 C11 1_555 1_555
C12 C11 1_555 1_555
H8 C12 1_555 1_555
C13 H9 1_555 1_555
C14 C13 1_555 1_555
H10 C14 1_555 1_555
C15 C14 1_555 1_555
H11 C15 1_555 1_555
C16 C15 1_555 1_555
H12 C16 1_555 1_555
C17 C16 1_555 1_555
C18 C17 1_555 1_555
C19 C20 1_555 1_555
C20 C21 1_555 1_555
C21 H13 1_555 1_555
C22 C21 1_555 1_555
H14 C22 1_555 1_555
C23 C22 1_555 1_555
H15 C23 1_555 1_555
C24 C23 1_555 1_555
H16 C24 1_555 1_555
N1 C1 1_555 1_555
N2 C6 1_555 1_555
N3 C8 1_555 1_555
N4 C13 1_555 1_555
N5 C18 1_555 1_555
N6 C20 1_555 1_555
N7 O11 1_555 1_555
N8 O14 1_555 1_555
N9 O17 1_555 1_555
O1 C6 1_555 1_555
O3 C7 1_555 1_555
O4 Gd1 1_555 1_555
O6 C18 1_555 1_555
O7 Gd1 1_555 1_555
O9 C19 1_555 1_555
O10 Gd1 1_555 1_555
O11 Gd1 1_555 1_555
O12 N7 1_555 1_555
O13 N7 1_555 1_555
O15 N8 1_555 1_555
O16 N8 1_555 1_555
O18 N9 1_555 1_555
O19 N9 1_555 1_555
Ni1 N1 1_555 1_555
Gd1 O1 1_555 1_555
O6A Gd1 1_555 1_555
O9A Gd1 1_555 1_555
Gd1A O6 1_555 1_555
C5 N1 1_555 1_555
C7 N2 1_555 1_555
C12 N3 1_555 1_555
C17 N4 1_555 1_555
C19 N5 1_555 1_555
C24 N6 1_555 1_555
N2 Ni1 1_555 1_555
N3 Ni1 1_555 1_555
N4 Ni1 1_555 1_555
N5 Ni1 1_555 1_555
N6 Ni1 1_555 1_555
O3 Gd1 1_555 1_555
O9 Gd1A 1_555 1_555
O12 Gd1 1_555 1_555

#END
