
#######################################################################
#
#                 Cambridge Crystallographic Data Centre
#                                CCDC 
#
#######################################################################
#
# If this CIF has been generated from an entry in the Cambridge 
# Structural Database, then it will include bibliographic, chemical, 
# crystal, experimental, refinement or atomic coordinate data resulting 
# from the CCDC's data processing and validation procedures.
#
#######################################################################

data_PIVQIV
_symmetry_cell_setting           monoclinic
_symmetry_space_group_name_H-M   'P 21'
_symmetry_Int_Tables_number      4
_space_group_name_Hall           'P 2yb'
loop_
_symmetry_equiv_pos_site_id
_symmetry_equiv_pos_as_xyz
1 x,y,z
2 -x,1/2+y,-z
_cell_length_a                   18.2356(11)
_cell_length_b                   14.0626(8)
_cell_length_c                   23.6767(14)
_cell_angle_alpha                90
_cell_angle_beta                 95.988(2)
_cell_angle_gamma                90
_cell_volume                     6038.52
loop_
_atom_site_label
_atom_site_type_symbol
_atom_site_fract_x
_atom_site_fract_y
_atom_site_fract_z
Ag1 Ag 0.28447(2) 0.74680(6) 0.719818(15)
Ag2 Ag 0.21663(2) 0.87720(6) 0.239686(16)
N1 N 0.2682(2) 0.7803(3) 0.62897(17)
N2 N 0.2301(2) 0.8484(3) 0.33004(18)
N3 N 0.2377(3) 0.9164(3) 0.15404(18)
N4 N 0.2761(2) 0.9439(3) -0.14006(17)
N5 N 0.2660(2) 0.7024(3) 0.80711(17)
N6 N 0.2172(2) 0.6768(3) 1.10024(17)
C1 C 0.2025(3) 0.7980(4) 0.5996(2)
H1 H 0.1604 0.8018 0.6200
C2 C 0.1925(3) 0.8109(4) 0.5413(2)
H2 H 0.1448 0.8239 0.5228
C3 C 0.2524(3) 0.8048(4) 0.51032(19)
C4 C 0.3209(3) 0.7873(4) 0.5405(2)
H3 H 0.3637 0.7831 0.5209
C5 C 0.3266(3) 0.7761(4) 0.5990(2)
H4 H 0.3739 0.7648 0.6187
C6 C 0.2446(3) 0.8190(4) 0.4477(2)
C7 C 0.3055(3) 0.8442(4) 0.4188(2)
H5 H 0.3529 0.8513 0.4391
C8 C 0.2958(3) 0.8586(4) 0.3609(2)
H6 H 0.3372 0.8763 0.3420
C9 C 0.1727(3) 0.8232(4) 0.3569(2)
H7 H 0.1262 0.8149 0.3354
C10 C 0.1779(3) 0.8085(4) 0.4152(2)
H8 H 0.1353 0.7911 0.4328
C11 C 0.3034(3) 0.9055(4) 0.1348(2)
H9 H 0.3452 0.8946 0.1615
C12 C 0.3133(3) 0.9091(4) 0.0784(2)
H10 H 0.3610 0.9001 0.0666
C13 C 0.2533(3) 0.9262(3) 0.0381(2)
C14 C 0.1857(3) 0.9404(4) 0.0589(2)
H11 H 0.1432 0.9543 0.0336
C15 C 0.1805(3) 0.9342(4) 0.1159(2)
H12 H 0.1335 0.9431 0.1290
C16 C 0.2608(3) 0.9325(3) -0.0235(2)
C17 C 0.3294(3) 0.9513(4) -0.0433(2)
H13 H 0.3723 0.9603 -0.0175
C18 C 0.3330(3) 0.9563(4) -0.1008(2)
H14 H 0.3796 0.9697 -0.1136
C19 C 0.2014(3) 0.9203(4) -0.0642(2)
H15 H 0.1540 0.9076 -0.0528
C20 C 0.2105(3) 0.9264(4) -0.1212(2)
H16 H 0.1687 0.9179 -0.1482
C21 C 0.2017(3) 0.6733(4) 0.8242(2)
H17 H 0.1621 0.6596 0.7960
C22 C 0.1901(3) 0.6624(4) 0.8804(2)
H18 H 0.1435 0.6419 0.8903
C23 C 0.2477(3) 0.6817(3) 0.9228(2)
C24 C 0.3152(3) 0.7096(3) 0.9049(2)
H19 H 0.3561 0.7223 0.9321
C25 C 0.3219(3) 0.7186(4) 0.8479(2)
H20 H 0.3683 0.7371 0.8366
C26 C 0.2374(3) 0.6767(4) 0.9837(2)
C27 C 0.1678(3) 0.6918(4) 1.0024(2)
H21 H 0.1258 0.7024 0.9760
C28 C 0.1617(3) 0.6911(4) 1.0600(2)
H22 H 0.1141 0.7015 1.0718
C29 C 0.2835(3) 0.6611(4) 1.0827(2)
H23 H 0.3240 0.6483 1.1102
C30 C 0.2956(3) 0.6626(4) 1.0255(2)
H24 H 0.3440 0.6540 1.0150
O14 O 0.4130(2) 0.6919(3) 0.72806(16)
H103 H 0.4210 0.6530 0.7555
H104 H 0.4409 0.6949 0.7015
O15 O 0.0783(2) 0.9162(3) 0.23162(19)
H105 H 0.0519 0.9168 0.1998
H106 H 0.0598 0.9501 0.2563
Ag3 Ag 0.22011(2) 0.36897(6) 0.257436(15)
Ag4 Ag 0.27813(2) 0.24491(6) 0.734569(14)
Ag5 Ag 0.31564(2) 0.46158(6) -0.208008(15)
Ag6 Ag 0.16819(2) 0.16706(6) 0.196334(15)
N7 N 0.2296(2) 0.3344(3) 0.34668(17)
N8 N 0.2654(2) 0.2778(3) 0.64518(17)
N9 N 0.2415(2) 0.3967(3) 0.17134(17)
N10 N 0.2977(2) 0.4448(3) -0.11910(17)
N11 N 0.2918(2) 0.5029(3) -0.29682(18)
N12 N 0.2096(3) 0.5715(3) -0.59409(18)
N13 N 0.2625(2) 0.2080(3) 0.82068(17)
N14 N 0.1944(2) 0.1709(3) 1.10859(16)
N15 N 0.1960(2) 0.1133(3) 0.28304(17)
N16 N 0.2837(3) 0.0377(3) 0.57862(18)
C31 C 0.1708(3) 0.3193(4) 0.3746(2)
H25 H 0.1237 0.3160 0.3534
C32 C 0.1750(3) 0.3082(4) 0.4325(2)
H26 H 0.1314 0.2978 0.4505
C33 C 0.2421(3) 0.3123(3) 0.46429(19)
C34 C 0.3037(3) 0.3272(4) 0.4360(2)
H27 H 0.3512 0.3300 0.4565
C35 C 0.2958(3) 0.3381(4) 0.3774(2)
H28 H 0.3385 0.3486 0.3585
C36 C 0.2507(3) 0.3008(4) 0.52690(19)
C37 C 0.1910(3) 0.3168(4) 0.5593(2)
H29 H 0.1442 0.3354 0.5412
C38 C 0.2012(3) 0.3054(4) 0.6169(2)
H30 H 0.1607 0.3176 0.6381
C39 C 0.3164(3) 0.2739(4) 0.5566(2)
H31 H 0.3581 0.2621 0.5367
C40 C 0.3224(3) 0.2638(4) 0.61480(19)
H32 H 0.3688 0.2464 0.6341
C41 C 0.3090(3) 0.3925(4) 0.1547(2)
H33 H 0.3497 0.3830 0.1826
C42 C 0.3222(3) 0.4014(4) 0.0984(2)
H34 H 0.3711 0.3969 0.0882
C43 C 0.2636(3) 0.4170(3) 0.05681(19)
C44 C 0.1939(3) 0.4233(4) 0.0745(2)
H35 H 0.1522 0.4349 0.0478
C45 C 0.1853(3) 0.4124(4) 0.1316(2)
H36 H 0.1370 0.4164 0.1431
C46 C 0.2756(3) 0.4251(3) -0.00420(19)
C47 C 0.3457(3) 0.4384(4) -0.0212(2)
H37 H 0.3875 0.4411 0.0063
C48 C 0.3539(3) 0.4476(4) -0.0783(2)
H38 H 0.4022 0.4565 -0.0891
C49 C 0.2172(3) 0.4210(3) -0.04727(19)
H39 H 0.1682 0.4117 -0.0381
C50 C 0.2309(3) 0.4304(4) -0.1031(2)
H40 H 0.1905 0.4263 -0.1317
C51 C 0.2241(3) 0.5301(4) -0.3189(2)
H41 H 0.1867 0.5363 -0.2940
C52 C 0.2063(3) 0.5492(4) -0.3755(2)
H42 H 0.1577 0.5687 -0.3889
C53 C 0.2597(3) 0.5399(4) -0.4134(2)
C54 C 0.3299(3) 0.5138(4) -0.3900(2)
H43 H 0.3686 0.5082 -0.4137
C55 C 0.3435(3) 0.4961(4) -0.3327(2)
H44 H 0.3920 0.4781 -0.3179
C56 C 0.2423(3) 0.5525(4) -0.4754(2)
C57 C 0.1697(3) 0.5499(4) -0.5011(2)
H45 H 0.1299 0.5422 -0.4786
C58 C 0.1562(3) 0.5588(4) -0.5603(2)
H46 H 0.1066 0.5556 -0.5771
C59 C 0.2972(3) 0.5671(4) -0.5118(2)
H47 H 0.3474 0.5711 -0.4966
C60 C 0.2787(3) 0.5757(4) -0.5691(2)
H48 H 0.3173 0.5851 -0.5926
C61 C 0.3178(3) 0.2142(4) 0.8616(2)
H49 H 0.3657 0.2277 0.8515
C62 C 0.3087(3) 0.2019(4) 0.9188(2)
H50 H 0.3498 0.2069 0.9468
C63 C 0.2393(3) 0.1824(3) 0.93476(19)
C64 C 0.1818(3) 0.1712(4) 0.89113(18)
H51 H 0.1336 0.1553 0.8998
C65 C 0.1960(3) 0.1835(4) 0.83541(19)
H52 H 0.1569 0.1742 0.8062
C66 C 0.2249(3) 0.1770(4) 0.99518(17)
C67 C 0.1531(3) 0.1870(4) 1.01028(19)
H53 H 0.1133 0.1973 0.9818
C68 C 0.1403(3) 0.1820(4) 1.0663(2)
H54 H 0.0910 0.1866 1.0754
C69 C 0.2643(3) 0.1618(4) 1.09463(18)
H55 H 0.3034 0.1535 1.1241
C70 C 0.2803(3) 0.1641(4) 1.03935(18)
H56 H 0.3299 0.1569 1.0312
C71 C 0.1452(3) 0.0926(4) 0.3172(2)
H57 H 0.0952 0.0903 0.3013
C72 C 0.1600(3) 0.0743(4) 0.3735(2)
H58 H 0.1209 0.0590 0.3955
C73 C 0.2319(3) 0.0779(4) 0.39913(19)
C74 C 0.2859(3) 0.0971(4) 0.3637(2)
H59 H 0.3363 0.0987 0.3786
C75 C 0.2661(3) 0.1139(4) 0.3066(2)
H60 H 0.3040 0.1265 0.2830
C76 C 0.2502(3) 0.0635(3) 0.46126(19)
C77 C 0.3215(3) 0.0485(4) 0.4850(2)
H61 H 0.3607 0.0466 0.4615
C78 C 0.3358(3) 0.0362(4) 0.5434(2)
H62 H 0.3854 0.0262 0.5589
C79 C 0.1956(3) 0.0640(4) 0.4981(2)
H63 H 0.1453 0.0721 0.4839
C80 C 0.2150(3) 0.0526(4) 0.5554(2)
H64 H 0.1770 0.0555 0.5799
O1 O 0.0930(2) 0.3001(3) 0.22386(15)
O2 O 0.0029(2) 0.1992(3) 0.24188(16)
N17 N -0.1345(2) 0.5925(3) 0.31422(18)
H65 H -0.1821 0.5861 0.3166
H66 H -0.1127 0.6474 0.3223
C81 C 0.0322(3) 0.2810(4) 0.2423(2)
C82 C -0.0102(3) 0.3612(4) 0.26434(19)
C83 C 0.0223(3) 0.4502(4) 0.27750(19)
H67 H 0.0733 0.4588 0.2741
C84 C -0.0180(3) 0.5249(4) 0.2951(2)
H68 H 0.0059 0.5833 0.3055
C85 C -0.0939(3) 0.5161(4) 0.2978(2)
C86 C -0.1267(3) 0.4288(4) 0.2848(2)
H69 H -0.1781 0.4212 0.2869
C87 C -0.0863(3) 0.3537(4) 0.2691(2)
H70 H -0.1102 0.2944 0.2611
O3 O 0.39969(19) 0.3294(3) 0.76754(15)
O4 O 0.5042(2) 0.4119(3) 0.77620(18)
N18 N 0.6287(2) 0.0176(3) 0.69707(19)
H71 H 0.6768 0.0218 0.6966
H72 H 0.6060 -0.0364 0.6884
C88 C 0.4665(3) 0.3365(4) 0.7636(2)
C89 C 0.5082(3) 0.2533(4) 0.74289(19)
C90 C 0.5845(3) 0.2602(4) 0.74082(19)
H73 H 0.6092 0.3185 0.7500
C91 C 0.6240(3) 0.1817(4) 0.7253(2)
H74 H 0.6757 0.1869 0.7241
C92 C 0.5891(3) 0.0954(4) 0.7113(2)
C93 C 0.5126(3) 0.0908(4) 0.7117(2)
H75 H 0.4873 0.0334 0.7011
C94 C 0.4729(3) 0.1697(4) 0.72739(19)
H76 H 0.4209 0.1655 0.7273
Ag5_2 Ag 0.31564(2) 0.46158(6) 0.791992(15)
Ag6_2 Ag 0.16819(2) 0.16706(6) 1.196334(15)
N14_2 N 0.1944(2) 0.1709(3) 0.10859(16)
O3_2 O 0.39969(19) 0.3294(3) -0.23246(15)
O5 O 0.4844(3) 0.0697(3) 0.40885(19)
O6 O 0.4955(2) 0.2031(3) 0.36011(16)
N19 N 0.5081(2) 0.3691(4) 0.61239(17)
H77 H 0.5124 0.3395 0.6453
H78 H 0.5055 0.4315 0.6112
C95 C 0.4904(3) 0.1570(5) 0.4055(2)
C96 C 0.4953(3) 0.2137(4) 0.4600(2)
C97 C 0.4929(3) 0.3135(4) 0.4603(2)
H79 H 0.4884 0.3470 0.4253
C98 C 0.4970(3) 0.3634(4) 0.5100(2)
H80 H 0.4942 0.4308 0.5086
C99 C 0.5052(3) 0.3178(4) 0.5629(2)
C100 C 0.5091(3) 0.2188(4) 0.5632(2)
H81 H 0.5154 0.1854 0.5982
C101 C 0.5036(3) 0.1694(4) 0.5125(2)
H82 H 0.5057 0.1019 0.5137
O7 O 0.0161(2) 0.2758(3) -0.08887(14)
O8 O 0.0125(2) 0.4237(3) -0.12229(14)
N20 N -0.0138(2) 0.4949(3) 0.14202(17)
H83 H -0.0137 0.5562 0.1496
H84 H -0.0190 0.4533 0.1691
C102 C 0.0125(3) 0.3640(4) -0.0823(2)
C103 C 0.0080(3) 0.4001(4) -0.0230(2)
C104 C 0.0089(3) 0.4965(4) -0.0102(2)
H85 H 0.0138 0.5413 -0.0396
C105 C 0.0028(3) 0.5288(4) 0.0442(2)
H86 H 0.0045 0.5951 0.0517
C106 C -0.0057(2) 0.4645(4) 0.08849(19)
C107 C -0.0061(3) 0.3668(4) 0.07551(18)
H87 H -0.0106 0.3214 0.1047
C108 C -0.0001(2) 0.3365(4) 0.02069(19)
H88 H -0.0014 0.2703 0.0127
O9 O 0.5307(2) 0.6820(3) -0.11265(14)
O10 O 0.5062(2) 0.8287(3) -0.08486(15)
N21 N 0.4731(3) 0.5981(3) 0.14362(18)
H89 H 0.4727 0.5364 0.1495
H90 H 0.4650 0.6376 0.1712
C109 C 0.5150(3) 0.7410(4) -0.07633(19)
C110 C 0.5058(3) 0.7034(4) -0.01793(19)
C111 C 0.4929(2) 0.7653(4) 0.0269(2)
H91 H 0.4905 0.8318 0.0201
C112 C 0.4837(3) 0.7314(4) 0.0803(2)
H92 H 0.4756 0.7747 0.1098
C113 C 0.4863(3) 0.6332(4) 0.0913(2)
C114 C 0.4991(3) 0.5712(4) 0.0473(2)
H93 H 0.5014 0.5046 0.0537
C115 C 0.5085(3) 0.6076(4) -0.0056(2)
H94 H 0.5172 0.5644 -0.0350
O11 O -0.0038(3) 0.8962(4) 0.3646(2)
O12 O -0.0105(3) 1.0262(4) 0.4155(3)
N22 N 0.0158(3) 0.7201(4) 0.6137(2)
H95 H 0.0196 0.7483 0.6471
H96 H 0.0146 0.6576 0.6116
C116 C -0.0040(3) 0.9380(5) 0.4113(3)
C117 C 0.0010(3) 0.8801(4) 0.4641(3)
C118 C 0.0085(3) 0.9231(5) 0.5172(3)
H97 H 0.0102 0.9906 0.5194
C119 C 0.0133(3) 0.8709(5) 0.5668(3)
H98 H 0.0179 0.9030 0.6023
C120 C 0.0117(3) 0.7728(4) 0.5657(3)
C121 C 0.0035(3) 0.7270(4) 0.5118(2)
H99 H 0.0012 0.6596 0.5096
C122 C -0.0010(3) 0.7811(4) 0.4622(3)
H100 H -0.0057 0.7498 0.4265
O13 O 0.3376(2) 0.9094(2) 0.75922(14)
H101 H 0.3782 0.9352 0.7717
H102 H 0.3108 0.9011 0.7861
O16 O 0.39034(19) 0.1810(3) 0.20612(14)
H107 H 0.4019 0.2260 0.2293
H108 H 0.4202 0.1947 0.1822
O17 O 0.1722(2) 0.7002(3) 0.21175(14)
H109 H 0.1738 0.6655 0.1825
H110 H 0.1339 0.7005 0.2293
O18 O 0.0184(2) 0.6922(3) 0.19025(15)
H111 H -0.0146 0.7139 0.2095
H112 H 0.0076 0.7185 0.1582
O19 O 0.4210(2) 0.0350(3) 0.28455(16)
H113 H 0.4599 0.0014 0.2890
H114 H 0.4406 0.0799 0.3048
O20 O 0.4275(2) 0.3256(3) 0.28083(17)
H115 H 0.4487 0.2875 0.3052
H116 H 0.4513 0.3479 0.2549
O21 O 0.2056(2) 0.5475(3) 0.28608(14)
H117 H 0.1919 0.5477 0.3193
H118 H 0.1905 0.6004 0.2719
O22 O 0.69935(19) 0.5692(3) 0.30363(14)
H119 H 0.6867 0.5155 0.2894
H120 H 0.7034 0.5584 0.3391
O23 O 0.5608(2) 0.0632(3) 0.18152(16)
H121 H 0.5352 0.0215 0.1964
H122 H 0.5303 0.0974 0.1609
O24 O 1.0012(2) 0.1232(3) 0.13358(17)
H123 H 1.0014 0.1470 0.1666
H124 H 0.9969 0.0633 0.1299
O25 O 0.5154(2) 0.4009(3) 0.19106(15)
H125 H 0.5355 0.3540 0.2093
H126 H 0.5066 0.3734 0.1591
O26 O 0.1066(2) 0.4054(3) -0.20704(16)
H127 H 0.0917 0.4533 -0.2269
H128 H 0.0777 0.4107 -0.1812
O27 O -0.0598(2) 0.7688(3) 0.28414(18)
H129 H -0.0738 0.8115 0.2601
H130 H -0.0447 0.7849 0.3179
O28 O -0.0531(3) 0.0398(5) 0.28240(18)
H131 H -0.0597 0.0311 0.3170
H132 H -0.0350 0.0900 0.2694
loop_
_geom_bond_atom_site_label_1
_geom_bond_atom_site_label_2
_geom_bond_site_symmetry_1
_geom_bond_site_symmetry_2
Ag1 N1 1_555 1_555
Ag2 N2 1_555 1_555
Ag3 N7 1_555 1_555
Ag4 N8 1_555 1_555
Ag5 N10 1_555 1_555
Ag6 N15 1_555 1_555
N1 C1 1_555 1_555
N2 C8 1_555 1_555
N3 Ag2 1_555 1_555
N4 C18 1_555 1_555
N5 Ag1 1_555 1_555
N6 C28 1_555 1_555
N7 C31 1_555 1_555
N8 C38 1_555 1_555
N9 Ag3 1_555 1_555
N10 C48 1_555 1_555
N11 Ag5 1_555 1_555
N12 C58 1_555 1_555
N13 Ag4 1_555 1_555
N14 C68 1_555 1_555
N15 C71 1_555 1_555
N16 C78 1_555 1_555
C1 H1 1_555 1_555
C2 C1 1_555 1_555
H2 C2 1_555 1_555
C3 C2 1_555 1_555
C4 C3 1_555 1_555
H3 C4 1_555 1_555
C5 N1 1_555 1_555
H4 C5 1_555 1_555
C6 C3 1_555 1_555
C7 C6 1_555 1_555
H5 C7 1_555 1_555
C8 C7 1_555 1_555
H6 C8 1_555 1_555
C9 N2 1_555 1_555
H7 C9 1_555 1_555
C10 C6 1_555 1_555
H8 C10 1_555 1_555
C11 N3 1_555 1_555
H9 C11 1_555 1_555
C12 C11 1_555 1_555
H10 C12 1_555 1_555
C13 C12 1_555 1_555
C14 C13 1_555 1_555
H11 C14 1_555 1_555
C15 N3 1_555 1_555
H12 C15 1_555 1_555
C16 C13 1_555 1_555
C17 C16 1_555 1_555
H13 C17 1_555 1_555
C18 C17 1_555 1_555
H14 C18 1_555 1_555
C19 C16 1_555 1_555
H15 C19 1_555 1_555
C20 N4 1_555 1_555
H16 C20 1_555 1_555
C21 N5 1_555 1_555
H17 C21 1_555 1_555
C22 C21 1_555 1_555
H18 C22 1_555 1_555
C23 C22 1_555 1_555
C24 C23 1_555 1_555
H19 C24 1_555 1_555
C25 N5 1_555 1_555
H20 C25 1_555 1_555
C26 C23 1_555 1_555
C27 C26 1_555 1_555
H21 C27 1_555 1_555
C28 C27 1_555 1_555
H22 C28 1_555 1_555
C29 N6 1_555 1_555
H23 C29 1_555 1_555
C30 C26 1_555 1_555
H24 C30 1_555 1_555
C31 H25 1_555 1_555
C32 C31 1_555 1_555
H26 C32 1_555 1_555
C33 C32 1_555 1_555
C34 C33 1_555 1_555
H27 C34 1_555 1_555
C35 N7 1_555 1_555
H28 C35 1_555 1_555
C36 C33 1_555 1_555
C37 C36 1_555 1_555
H29 C37 1_555 1_555
C38 C37 1_555 1_555
H30 C38 1_555 1_555
C39 C36 1_555 1_555
H31 C39 1_555 1_555
C40 N8 1_555 1_555
H32 C40 1_555 1_555
C41 N9 1_555 1_555
H33 C41 1_555 1_555
C42 C41 1_555 1_555
H34 C42 1_555 1_555
C43 C42 1_555 1_555
C44 C43 1_555 1_555
H35 C44 1_555 1_555
C45 N9 1_555 1_555
H36 C45 1_555 1_555
C46 C43 1_555 1_555
C47 C46 1_555 1_555
H37 C47 1_555 1_555
C48 C47 1_555 1_555
H38 C48 1_555 1_555
C49 C46 1_555 1_555
H39 C49 1_555 1_555
C50 N10 1_555 1_555
H40 C50 1_555 1_555
C51 N11 1_555 1_555
H41 C51 1_555 1_555
C52 C51 1_555 1_555
H42 C52 1_555 1_555
C53 C52 1_555 1_555
C54 C53 1_555 1_555
H43 C54 1_555 1_555
C55 N11 1_555 1_555
H44 C55 1_555 1_555
C56 C53 1_555 1_555
C57 C56 1_555 1_555
H45 C57 1_555 1_555
C58 C57 1_555 1_555
H46 C58 1_555 1_555
C59 C56 1_555 1_555
H47 C59 1_555 1_555
C60 N12 1_555 1_555
H48 C60 1_555 1_555
C61 N13 1_555 1_555
H49 C61 1_555 1_555
C62 C61 1_555 1_555
H50 C62 1_555 1_555
C63 C62 1_555 1_555
C64 C63 1_555 1_555
H51 C64 1_555 1_555
C65 N13 1_555 1_555
H52 C65 1_555 1_555
C66 C63 1_555 1_555
C67 C66 1_555 1_555
H53 C67 1_555 1_555
C68 C67 1_555 1_555
H54 C68 1_555 1_555
C69 N14 1_555 1_555
H55 C69 1_555 1_555
C70 C66 1_555 1_555
H56 C70 1_555 1_555
C71 H57 1_555 1_555
C72 C71 1_555 1_555
H58 C72 1_555 1_555
C73 C72 1_555 1_555
C74 C73 1_555 1_555
H59 C74 1_555 1_555
C75 N15 1_555 1_555
H60 C75 1_555 1_555
C76 C73 1_555 1_555
C77 C76 1_555 1_555
H61 C77 1_555 1_555
C78 C77 1_555 1_555
H62 C78 1_555 1_555
C79 C76 1_555 1_555
H63 C79 1_555 1_555
C80 N16 1_555 1_555
H64 C80 1_555 1_555
O1 Ag3 1_555 1_555
O2 C81 1_555 1_555
N17 H65 1_555 1_555
H66 N17 1_555 1_555
C81 O1 1_555 1_555
C82 C81 1_555 1_555
C83 C82 1_555 1_555
H67 C83 1_555 1_555
C84 C83 1_555 1_555
H68 C84 1_555 1_555
C85 N17 1_555 1_555
C86 C85 1_555 1_555
H69 C86 1_555 1_555
C87 C82 1_555 1_555
H70 C87 1_555 1_555
O3 Ag4 1_555 1_555
O4 C88 1_555 1_555
N18 H71 1_555 1_555
H72 N18 1_555 1_555
C88 O3 1_555 1_555
C89 C88 1_555 1_555
C90 C89 1_555 1_555
H73 C90 1_555 1_555
C91 C90 1_555 1_555
H74 C91 1_555 1_555
C92 N18 1_555 1_555
C93 C92 1_555 1_555
H75 C93 1_555 1_555
C94 C89 1_555 1_555
H76 C94 1_555 1_555
O5 C95 1_555 1_555
O6 C95 1_555 1_555
N19 H77 1_555 1_555
H78 N19 1_555 1_555
C95 C96 1_555 1_555
C96 C97 1_555 1_555
C97 H79 1_555 1_555
C98 C97 1_555 1_555
H80 C98 1_555 1_555
C99 N19 1_555 1_555
C100 C99 1_555 1_555
H81 C100 1_555 1_555
C101 C96 1_555 1_555
H82 C101 1_555 1_555
O7 C102 1_555 1_555
O8 C102 1_555 1_555
N20 H83 1_555 1_555
H84 N20 1_555 1_555
C102 C103 1_555 1_555
C103 C104 1_555 1_555
C104 H85 1_555 1_555
C105 C104 1_555 1_555
H86 C105 1_555 1_555
C106 N20 1_555 1_555
C107 C106 1_555 1_555
H87 C107 1_555 1_555
C108 C103 1_555 1_555
H88 C108 1_555 1_555
O9 C109 1_555 1_555
O10 C109 1_555 1_555
N21 H89 1_555 1_555
H90 N21 1_555 1_555
C109 C110 1_555 1_555
C110 C111 1_555 1_555
C111 H91 1_555 1_555
C112 C111 1_555 1_555
H92 C112 1_555 1_555
C113 N21 1_555 1_555
C114 C113 1_555 1_555
H93 C114 1_555 1_555
C115 C110 1_555 1_555
H94 C115 1_555 1_555
O11 C116 1_555 1_555
O12 C116 1_555 1_555
N22 H95 1_555 1_555
H96 N22 1_555 1_555
C116 C117 1_555 1_555
C117 C118 1_555 1_555
C118 H97 1_555 1_555
C119 C118 1_555 1_555
H98 C119 1_555 1_555
C120 N22 1_555 1_555
C121 C120 1_555 1_555
H99 C121 1_555 1_555
C122 C117 1_555 1_555
H100 C122 1_555 1_555
O13 H101 1_555 1_555
H102 O13 1_555 1_555
O14 Ag1 1_555 1_555
H103 O14 1_555 1_555
H104 O14 1_555 1_555
O15 Ag2 1_555 1_555
H105 O15 1_555 1_555
H106 O15 1_555 1_555
O16 H107 1_555 1_555
H108 O16 1_555 1_555
O17 H109 1_555 1_555
H110 O17 1_555 1_555
O18 H111 1_555 1_555
H112 O18 1_555 1_555
O19 H113 1_555 1_555
H114 O19 1_555 1_555
O20 H115 1_555 1_555
H116 O20 1_555 1_555
O21 H117 1_555 1_555
H118 O21 1_555 1_555
O22 H119 1_555 1_555
H120 O22 1_555 1_555
O23 H121 1_555 1_555
H122 O23 1_555 1_555
O24 H123 1_555 1_555
H124 O24 1_555 1_555
O25 H125 1_555 1_555
H126 O25 1_555 1_555
O26 H127 1_555 1_555
H128 O26 1_555 1_555
O27 H129 1_555 1_555
H130 O27 1_555 1_555
O28 H131 1_555 1_555
H132 O28 1_555 1_555
Ag5_2 O3 1_555 1_555
Ag6_2 N14 1_555 1_555
N14_2 Ag6 1_555 1_555
O3_2 Ag5 1_555 1_555
Ag6 O1 1_555 1_555
C4 C5 1_555 1_555
C9 C10 1_555 1_555
C14 C15 1_555 1_555
C19 C20 1_555 1_555
C24 C25 1_555 1_555
C29 C30 1_555 1_555
C34 C35 1_555 1_555
C39 C40 1_555 1_555
C44 C45 1_555 1_555
C49 C50 1_555 1_555
C54 C55 1_555 1_555
C59 C60 1_555 1_555
C64 C65 1_555 1_555
C69 C70 1_555 1_555
C74 C75 1_555 1_555
C79 C80 1_555 1_555
C84 C85 1_555 1_555
C86 C87 1_555 1_555
C91 C92 1_555 1_555
C93 C94 1_555 1_555
C98 C99 1_555 1_555
C100 C101 1_555 1_555
C105 C106 1_555 1_555
C107 C108 1_555 1_555
C112 C113 1_555 1_555
C114 C115 1_555 1_555
C119 C120 1_555 1_555
C121 C122 1_555 1_555

#END
