
#######################################################################
#
#                 Cambridge Crystallographic Data Centre
#                                CCDC 
#
#######################################################################
#
# If this CIF has been generated from an entry in the Cambridge 
# Structural Database, then it will include bibliographic, chemical, 
# crystal, experimental, refinement or atomic coordinate data resulting 
# from the CCDC's data processing and validation procedures.
#
#######################################################################

data_PIVVIW
_symmetry_cell_setting           monoclinic
_symmetry_space_group_name_H-M   'P 21/n'
_symmetry_Int_Tables_number      14
_space_group_name_Hall           '-P 2yn'
loop_
_symmetry_equiv_pos_site_id
_symmetry_equiv_pos_as_xyz
1 x,y,z
2 1/2-x,1/2+y,1/2-z
3 -x,-y,-z
4 1/2+x,1/2-y,1/2+z
_cell_length_a                   13.448(3)
_cell_length_b                   7.563(2)
_cell_length_c                   22.092(6)
_cell_angle_alpha                90
_cell_angle_beta                 98.12(2)
_cell_angle_gamma                90
_cell_volume                     2224.39
loop_
_atom_site_label
_atom_site_type_symbol
_atom_site_fract_x
_atom_site_fract_y
_atom_site_fract_z
Nd1 Nd 0.2270(1) 0.9124(1) 0.2365(1)
O1 O 0.3416(2) 0.6422(4) 0.2059(1)
O2 O 0.3623(3) 0.9076(4) 0.1721(2)
O3 O 0.1406(2) 0.5986(4) 0.2110(1)
O4 O 0.0531(2) 0.8180(4) 0.2406(2)
O5 O 0.1435(3) 0.9930(4) 0.1345(1)
O6 O 0.2276(2) 1.2164(4) 0.1791(1)
C1 C 0.3847(3) 0.7481(6) 0.1733(2)
C2 C 0.4600(4) 0.6840(6) 0.1356(2)
C3 C 0.5125(4) 0.8054(7) 0.1053(2)
C4 C 0.5807(4) 0.7509(9) 0.0674(3)
C5 C 0.5953(4) 0.5718(10) 0.0609(3)
C6 C 0.5448(5) 0.4500(9) 0.0910(3)
C7 C 0.4752(4) 0.5036(7) 0.1285(3)
C8 C 0.6381(6) 0.8812(11) 0.0347(4)
C9 C 0.0566(3) 0.6630(6) 0.2217(2)
C10 C -0.0355(3) 0.5540(6) 0.2097(2)
C11 C -0.0327(3) 0.3799(6) 0.1898(2)
C12 C -0.1199(4) 0.2815(7) 0.1765(2)
C13 C -0.2095(4) 0.3589(7) 0.1838(3)
C14 C -0.2144(4) 0.5309(9) 0.2039(3)
C15 C -0.1281(4) 0.6287(7) 0.2167(3)
C16 C -0.1140(5) 0.0939(7) 0.1535(3)
C17 C 0.1755(3) 1.1484(5) 0.1311(2)
C18 C 0.1553(3) 1.2523(6) 0.0744(2)
C19 C 0.1920(3) 1.4242(6) 0.0710(2)
C20 C 0.1720(4) 1.5211(6) 0.0176(2)
C21 C 0.1149(4) 1.4446(7) -0.0322(2)
C22 C 0.0774(4) 1.2728(7) -0.0296(2)
C23 C 0.0975(4) 1.1786(6) 0.0238(2)
C24 C 0.2124(5) 1.7068(7) 0.0145(3)
O1A O 0.1584(2) 1.1422(4) 0.2941(1)
O3A O 0.3594(2) 1.0986(4) 0.2890(1)
O6A O 0.2724(2) 0.7164(4) 0.3209(1)
Nd1A Nd 0.2730(1) 0.4124(1) 0.2635(1)
Nd1A_2 Nd 0.2730(1) 1.4124(1) 0.2635(1)
loop_
_geom_bond_atom_site_label_1
_geom_bond_atom_site_label_2
_geom_bond_site_symmetry_1
_geom_bond_site_symmetry_2
Nd1 O1 1_555 1_555
O1 C1 1_555 1_555
O2 Nd1 1_555 1_555
O3 Nd1 1_555 1_555
O4 Nd1 1_555 1_555
O5 Nd1 1_555 1_555
O6 Nd1 1_555 1_555
C1 O2 1_555 1_555
C2 C1 1_555 1_555
C3 C2 1_555 1_555
C4 C3 1_555 1_555
C5 C4 1_555 1_555
C6 C5 1_555 1_555
C7 C2 1_555 1_555
C8 C4 1_555 1_555
C9 O3 1_555 1_555
C10 C9 1_555 1_555
C11 C10 1_555 1_555
C12 C11 1_555 1_555
C13 C12 1_555 1_555
C14 C13 1_555 1_555
C15 C10 1_555 1_555
C16 C12 1_555 1_555
C17 O5 1_555 1_555
C18 C17 1_555 1_555
C19 C18 1_555 1_555
C20 C19 1_555 1_555
C21 C20 1_555 1_555
C22 C21 1_555 1_555
C23 C18 1_555 1_555
C24 C20 1_555 1_555
O1A Nd1 1_555 1_555
O3A Nd1 1_555 1_555
O6A Nd1 1_555 1_555
Nd1A O1 1_555 1_555
Nd1A_2 O6 1_555 1_555
O3 Nd1A 1_555 1_555
O4 C9 1_555 1_555
O6 C17 1_555 1_555
C6 C7 1_555 1_555
C14 C15 1_555 1_555
C22 C23 1_555 1_555
O1A Nd1A_2 1_555 1_555
O3A Nd1A_2 1_555 1_555
O6A Nd1A 1_555 1_555

#END
