
#######################################################################
#
#                 Cambridge Crystallographic Data Centre
#                                CCDC 
#
#######################################################################
#
# If this CIF has been generated from an entry in the Cambridge 
# Structural Database, then it will include bibliographic, chemical, 
# crystal, experimental, refinement or atomic coordinate data resulting 
# from the CCDC's data processing and validation procedures.
#
#######################################################################

data_PIVVIZ
_symmetry_cell_setting           monoclinic
_symmetry_space_group_name_H-M   'P 21/n'
_symmetry_Int_Tables_number      14
_space_group_name_Hall           '-P 2yn'
loop_
_symmetry_equiv_pos_site_id
_symmetry_equiv_pos_as_xyz
1 x,y,z
2 1/2-x,1/2+y,1/2-z
3 -x,-y,-z
4 1/2+x,1/2-y,1/2+z
_cell_length_a                   13.468(3)
_cell_length_b                   7.950(2)
_cell_length_c                   21.105(6)
_cell_angle_alpha                90
_cell_angle_beta                 96.00(2)
_cell_angle_gamma                90
_cell_volume                     2247.35
loop_
_atom_site_label
_atom_site_type_symbol
_atom_site_fract_x
_atom_site_fract_y
_atom_site_fract_z
Tb1 Tb 0.2198(1) -0.0857(1) 0.2445(1)
O1 O 0.1392(3) 0.0716(5) 0.3126(2)
O2 O 0.1541(3) 0.3466(5) 0.3152(2)
O3 O 0.1503(3) -0.4123(5) 0.2089(2)
O4 O 0.0616(3) -0.2083(5) 0.2439(2)
O5 O 0.1463(3) -0.0204(5) 0.1394(2)
O6 O 0.2210(3) 0.1984(4) 0.1858(2)
C1 C 0.1128(4) 0.2155(7) 0.3302(3)
C2 C 0.0292(4) 0.2261(7) 0.3711(3)
C3 C -0.0076(5) 0.3796(9) 0.3868(3)
C4 C -0.0845(5) 0.3928(12) 0.4259(4)
C5 C -0.1236(6) 0.2471(15) 0.4480(5)
C6 C -0.0872(8) 0.0941(13) 0.4332(7)
C7 C -0.0100(6) 0.0811(10) 0.3948(5)
C8 C -0.1232(8) 0.5647(13) 0.4429(6)
C9 C 0.0666(4) -0.3529(7) 0.2229(3)
C10 C -0.0264(4) -0.4537(7) 0.2100(3)
C11 C -0.0261(4) -0.6218(7) 0.1935(3)
C12 C -0.1134(5) -0.7148(7) 0.1819(3)
C13 C -0.2017(5) -0.6346(9) 0.1873(4)
C14 C -0.2065(5) -0.4634(9) 0.2018(4)
C15 C -0.1181(4) -0.3746(8) 0.2148(4)
C16 C -0.1090(7) -0.8987(8) 0.1660(5)
C17 C 0.1756(4) 0.1290(7) 0.1358(3)
C18 C 0.1543(4) 0.2242(6) 0.0756(2)
C19 C 0.1836(4) 0.3932(7) 0.0716(3)
C20 C 0.1608(5) 0.4855(8) 0.0163(3)
C21 C 0.1090(5) 0.4066(8) -0.0357(3)
C22 C 0.0812(5) 0.2389(9) -0.0329(3)
C23 C 0.1040(5) 0.1496(8) 0.0227(3)
C24 C 0.1932(7) 0.6655(9) 0.0130(4)
O2A O 0.3459(3) -0.1534(5) 0.1848(2)
O3A O 0.3497(3) 0.0877(5) 0.2911(2)
O6A O 0.2790(3) -0.3016(4) 0.3142(2)
Tb1A Tb 0.2802(1) 0.4143(1) 0.2555(1)
Tb1A_2 Tb 0.2802(1) -0.5857(1) 0.2555(1)
loop_
_geom_bond_atom_site_label_1
_geom_bond_atom_site_label_2
_geom_bond_site_symmetry_1
_geom_bond_site_symmetry_2
Tb1 O1 1_555 1_555
O1 C1 1_555 1_555
O2 C1 1_555 1_555
O3 Tb1 1_555 1_555
O4 Tb1 1_555 1_555
O5 Tb1 1_555 1_555
O6 Tb1 1_555 1_555
C1 C2 1_555 1_555
C2 C3 1_555 1_555
C3 C4 1_555 1_555
C4 C5 1_555 1_555
C5 C6 1_555 1_555
C6 C7 1_555 1_555
C7 C2 1_555 1_555
C8 C4 1_555 1_555
C9 O3 1_555 1_555
C10 C9 1_555 1_555
C11 C10 1_555 1_555
C12 C11 1_555 1_555
C13 C12 1_555 1_555
C14 C13 1_555 1_555
C15 C10 1_555 1_555
C16 C12 1_555 1_555
C17 O5 1_555 1_555
C18 C17 1_555 1_555
C19 C18 1_555 1_555
C20 C19 1_555 1_555
C21 C20 1_555 1_555
C22 C21 1_555 1_555
C23 C18 1_555 1_555
C24 C20 1_555 1_555
O2A Tb1 1_555 1_555
O3A Tb1 1_555 1_555
O6A Tb1 1_555 1_555
Tb1A O2 1_555 1_555
Tb1A_2 O3 1_555 1_555
O4 C9 1_555 1_555
O6 C17 1_555 1_555
O6 Tb1A 1_555 1_555
C14 C15 1_555 1_555
C22 C23 1_555 1_555
O3A Tb1A 1_555 1_555
O6A Tb1A_2 1_555 1_555

#END
