
#######################################################################
#
#                 Cambridge Crystallographic Data Centre
#                                CCDC 
#
#######################################################################
#
# If this CIF has been generated from an entry in the Cambridge 
# Structural Database, then it will include bibliographic, chemical, 
# crystal, experimental, refinement or atomic coordinate data resulting 
# from the CCDC's data processing and validation procedures.
#
#######################################################################

data_PIVWEX
_symmetry_cell_setting           triclinic
_symmetry_space_group_name_H-M   'P -1'
_symmetry_Int_Tables_number      2
_space_group_name_Hall           '-P 1'
loop_
_symmetry_equiv_pos_site_id
_symmetry_equiv_pos_as_xyz
1 x,y,z
2 -x,-y,-z
_cell_length_a                   8.836(2)
_cell_length_b                   10.759(3)
_cell_length_c                   15.420(4)
_cell_angle_alpha                95.544(4)
_cell_angle_beta                 91.344(4)
_cell_angle_gamma                108.471(4)
_cell_volume                     1381.63
loop_
_atom_site_label
_atom_site_type_symbol
_atom_site_fract_x
_atom_site_fract_y
_atom_site_fract_z
Ag1 Ag 1.34888(14) 1.44990(10) 0.42835(7)
C1 C 0.6634(16) 0.8332(13) 0.8868(8)
H1 H 0.5928 0.7503 0.8669
C2 C 0.8016(18) 0.8709(12) 0.7385(8)
H2 H 0.8513 0.8023 0.7341
H3 H 0.7025 0.8407 0.7026
N1 N 0.9098(12) 0.9942(9) 0.7111(6)
C3 C 0.9792(15) 1.0847(12) 0.7905(8)
H4 H 0.9795 1.1733 0.7832
H5 H 1.0880 1.0869 0.8036
C4 C 0.8760(14) 1.0858(12) 0.9454(8)
H6 H 0.9459 1.1693 0.9647
C5 C 0.7394(16) 1.0457(11) 1.0949(8)
H7 H 0.8394 1.0829 1.1296
H8 H 0.6806 1.1081 1.0997
N2 N 0.6474(13) 0.9223(10) 1.1224(7)
C6 C 0.5607(17) 0.8341(14) 1.0460(9)
H9 H 0.4538 0.8395 1.0378
H10 H 0.5534 0.7433 1.0516
C7 C 0.7713(14) 0.9059(11) 0.8319(8)
C8 C 0.8744(14) 1.0303(12) 0.8609(8)
C9 C 0.7690(15) 1.0125(12) 1.0010(8)
C10 C 0.6638(13) 0.8869(11) 0.9709(8)
C11 C 1.0273(17) 0.9734(12) 0.6542(8)
H11 H 0.9769 0.8954 0.6137
H12 H 1.1095 0.9556 0.6889
C12 C 1.1060(14) 1.0854(11) 0.6025(7)
C13 C 1.2392(14) 1.0888(12) 0.5605(8)
H13 H 1.2849 1.0224 0.5638
C14 C 1.3062(16) 1.1920(13) 0.5129(8)
H14 H 1.3985 1.1933 0.4847
N3 N 1.2475(12) 1.2911(10) 0.5041(6)
C15 C 1.1169(16) 1.2861(13) 0.5452(8)
H15 H 1.0725 1.3531 0.5408
C16 C 1.0445(16) 1.1871(12) 0.5936(8)
H16 H 0.9522 1.1878 0.6212
C17 C 0.5463(17) 0.9332(13) 1.1928(8)
H17 H 0.4523 0.9493 1.1693
H18 H 0.6035 1.0090 1.2336
C18 C 0.4937(15) 0.8142(12) 1.2414(7)
C19 C 0.3750(16) 0.8007(13) 1.2992(9)
H19 H 0.3211 0.8624 1.3047
C20 C 0.3355(16) 0.6974(13) 1.3489(9)
H20 H 0.2559 0.6923 1.3881
N4 N 0.4049(13) 0.6037(11) 1.3440(7)
C21 C 0.5181(15) 0.6149(13) 1.2885(8)
H21 H 0.5685 0.5509 1.2838
C22 C 0.5654(17) 0.7158(13) 1.2371(8)
H22 H 0.6462 0.7187 1.1990
Ag1_2 Ag 0.34888(14) 0.44990(10) 1.42835(7)
N4_2 N 1.4049(13) 1.6037(11) 0.3440(7)
S1 S 0.7083(5) 0.3170(3) 0.3816(3)
O1 O 0.6727(17) 0.1800(11) 0.3733(10)
O2 O 0.5893(18) 0.3693(15) 0.3732(14)
O3 O 0.807(3) 0.3800(18) 0.4568(11)
C23 C 0.839(3) 0.3772(19) 0.2995(13)
F1 F 0.768(4) 0.3235(19) 0.2262(11)
F2 F 0.8824(14) 0.5005(10) 0.2945(7)
F3 F 0.957(2) 0.3396(19) 0.2995(19)
loop_
_geom_bond_atom_site_label_1
_geom_bond_atom_site_label_2
_geom_bond_site_symmetry_1
_geom_bond_site_symmetry_2
Ag1 N3 1_555 1_555
C1 H1 1_555 1_555
C2 H2 1_555 1_555
H3 C2 1_555 1_555
N1 C2 1_555 1_555
C3 N1 1_555 1_555
H4 C3 1_555 1_555
H5 C3 1_555 1_555
C4 H6 1_555 1_555
C5 H7 1_555 1_555
H8 C5 1_555 1_555
N2 C5 1_555 1_555
C6 N2 1_555 1_555
H9 C6 1_555 1_555
H10 C6 1_555 1_555
C7 C1 1_555 1_555
C8 C3 1_555 1_555
C9 C4 1_555 1_555
C10 C1 1_555 1_555
C11 N1 1_555 1_555
H11 C11 1_555 1_555
H12 C11 1_555 1_555
C12 C11 1_555 1_555
C13 C12 1_555 1_555
H13 C13 1_555 1_555
C14 C13 1_555 1_555
H14 C14 1_555 1_555
N3 C14 1_555 1_555
C15 N3 1_555 1_555
H15 C15 1_555 1_555
C16 C12 1_555 1_555
H16 C16 1_555 1_555
C17 N2 1_555 1_555
H17 C17 1_555 1_555
H18 C17 1_555 1_555
C18 C17 1_555 1_555
C19 C18 1_555 1_555
H19 C19 1_555 1_555
C20 C19 1_555 1_555
H20 C20 1_555 1_555
N4 C20 1_555 1_555
C21 N4 1_555 1_555
H21 C21 1_555 1_555
C22 C18 1_555 1_555
H22 C22 1_555 1_555
S1 O1 1_555 1_555
O2 S1 1_555 1_555
O3 S1 1_555 1_555
C23 S1 1_555 1_555
F1 C23 1_555 1_555
F2 C23 1_555 1_555
F3 C23 1_555 1_555
Ag1_2 N4 1_555 1_555
N4_2 Ag1 1_555 1_555
C2 C7 1_555 1_555
C4 C8 1_555 1_555
C5 C9 1_555 1_555
C6 C10 1_555 1_555
C7 C8 1_555 1_555
C9 C10 1_555 1_555
C15 C16 1_555 1_555
C21 C22 1_555 1_555

#END
