
#######################################################################
#
#                 Cambridge Crystallographic Data Centre
#                                CCDC 
#
#######################################################################
#
# If this CIF has been generated from an entry in the Cambridge 
# Structural Database, then it will include bibliographic, chemical, 
# crystal, experimental, refinement or atomic coordinate data resulting 
# from the CCDC's data processing and validation procedures.
#
#######################################################################

data_PIWDEG
_symmetry_cell_setting           triclinic
_symmetry_space_group_name_H-M   'P -1'
_symmetry_Int_Tables_number      2
_space_group_name_Hall           '-P 1'
loop_
_symmetry_equiv_pos_site_id
_symmetry_equiv_pos_as_xyz
1 x,y,z
2 -x,-y,-z
_cell_length_a                   11.7096(9)
_cell_length_b                   12.7197(10)
_cell_length_c                   18.5102(15)
_cell_angle_alpha                108.9560(10)
_cell_angle_beta                 95.6490(10)
_cell_angle_gamma                97.9160(10)
_cell_volume                     2552.25
loop_
_atom_site_label
_atom_site_type_symbol
_atom_site_fract_x
_atom_site_fract_y
_atom_site_fract_z
O19 O 0.0928(12) 0.1366(13) 0.6832(8)
H33 H 0.0249 0.1423 0.6947
H34 H 0.0851 0.0957 0.6358
C1 C 0.1919(6) -0.1994(7) 1.0097(4)
C2 C -0.1157(6) 0.5996(7) 0.0338(4)
C3 C -0.0097(7) -0.0395(6) 0.0098(4)
C4 C 0.4861(10) 0.7492(10) 0.9768(5)
C5 C 0.2937(7) 0.1783(6) 0.1363(4)
H1 H 0.2548 0.2109 0.1053
C6 C 0.3481(6) 0.2454(6) 0.2086(4)
H2 H 0.3438 0.3219 0.2262
C7 C 0.4096(5) 0.2008(6) 0.2559(4)
C8 C 0.4127(6) 0.0873(6) 0.2253(4)
H3 H 0.4547 0.0536 0.2541
C9 C 0.3549(6) 0.0233(6) 0.1533(4)
H4 H 0.3578 -0.0534 0.1348
C10 C 0.4630(5) 0.2693(5) 0.3381(4)
C11 C 0.2544(7) 0.0409(6) 0.8791(4)
H5 H 0.2526 0.1110 0.9155
C12 C 0.2724(7) 0.0348(6) 0.8045(4)
H6 H 0.2836 0.1001 0.7919
C13 C 0.2734(6) -0.0683(6) 0.7498(4)
C14 C 0.2599(6) -0.1624(6) 0.7721(4)
H7 H 0.2616 -0.2334 0.7370
C15 C 0.2440(7) -0.1498(6) 0.8469(4)
H8 H 0.2358 -0.2137 0.8613
C16 C 0.2941(6) -0.0807(6) 0.6675(4)
C17 C -0.0076(7) 0.5783(7) 0.2094(5)
H9 H -0.0402 0.6377 0.2024
C18 C 0.0582(7) 0.5962(6) 0.2809(5)
H10 H 0.0690 0.6660 0.3202
C19 C 0.1064(6) 0.5099(6) 0.2927(4)
C20 C 0.0860(7) 0.4079(7) 0.2326(4)
H11 H 0.1156 0.3467 0.2391
C21 C 0.0215(7) 0.3962(7) 0.1625(5)
H12 H 0.0108 0.3273 0.1224
C22 C 0.1799(5) 0.5247(6) 0.3686(4)
C23 C 0.1121(7) -0.1135(6) 0.2111(5)
H13 H 0.1155 -0.1897 0.1890
C24 C 0.1705(7) -0.0559(6) 0.2845(4)
H14 H 0.2095 -0.0936 0.3118
C25 C 0.1710(6) 0.0594(5) 0.3181(4)
C26 C 0.1076(6) 0.1088(6) 0.2748(4)
H15 H 0.1042 0.1853 0.2947
C27 C 0.0501(7) 0.0437(7) 0.2026(5)
H16 H 0.0079 0.0783 0.1745
C28 C 0.2435(5) 0.1281(5) 0.3946(4)
C29 C 0.3229(8) 0.3991(8) 0.8451(5)
H17 H 0.3069 0.3612 0.8793
C30 C 0.3147(7) 0.3356(6) 0.7685(4)
H18 H 0.2949 0.2572 0.7520
C31 C 0.3363(6) 0.3899(5) 0.7160(4)
C32 C 0.3631(8) 0.5062(6) 0.7442(4)
H19 H 0.3755 0.5462 0.7108
C33 C 0.3714(9) 0.5619(7) 0.8217(5)
H20 H 0.3917 0.6403 0.8396
C34 C 0.3380(5) 0.3253(5) 0.6331(4)
C35 C 0.5594(8) 0.2584(8) 0.8631(5)
H21 H 0.5269 0.2116 0.8881
C36 C 0.5556(8) 0.2140(7) 0.7838(4)
H22 H 0.5232 0.1386 0.7569
C37 C 0.5999(6) 0.2822(6) 0.7449(4)
C38 C 0.6457(7) 0.3914(7) 0.7878(5)
H23 H 0.6747 0.4406 0.7635
C39 C 0.6499(8) 0.4303(8) 0.8671(5)
H24 H 0.6834 0.5051 0.8952
C40 C 0.5888(5) 0.2337(6) 0.6579(4)
C41 C 0.1514(6) -0.0957(6) 0.5049(4)
C42 C 0.0373(6) -0.1748(7) 0.4893(6)
H25 H 0.0239 -0.1913 0.5351
H26 H 0.0394 -0.2435 0.4482
H27 H -0.0245 -0.1400 0.4745
C43 C 0.1796(6) 0.5270(6) 0.5534(4)
C44 C 0.0943(7) 0.5846(7) 0.6012(5)
H28 H 0.0161 0.5474 0.5773
H29 H 0.1042 0.6623 0.6044
H30 H 0.1081 0.5808 0.6522
Cu1 Cu 0.21751(10) -0.04620(9) 1.00644(6)
Cu2 Cu -0.12678(9) 0.45525(9) 0.04123(6)
Cu3 Cu -0.02299(10) -0.15476(9) 0.05402(6)
Cu4 Cu 0.37779(11) 0.60054(12) 0.98304(6)
Cu5 Cu 0.5000 1.0000 1.0000
Dy1 Dy 0.34692(2) -0.26737(2) 0.509479(17)
Dy2 Dy 0.37096(3) 0.04855(2) 0.542051(17)
Dy3 Dy 0.34615(3) 0.41845(2) 0.474503(17)
N1 N 0.1778(6) -0.2971(6) 0.9965(4)
N2 N -0.0919(6) 0.6938(6) 0.0383(4)
N3 N 0.4909(8) 0.8397(10) 0.9833(5)
N4 N 0.2944(5) 0.0665(5) 0.1083(3)
N5 N 0.2397(5) -0.0504(5) 0.9000(3)
N6 N -0.0260(6) 0.4804(5) 0.1505(4)
N7 N 0.0513(6) -0.0666(5) 0.1700(4)
N8 N 0.3522(6) 0.5109(6) 0.8739(4)
N9 N 0.6067(6) 0.3631(6) 0.9048(3)
O1 O 0.4444(4) 0.3680(4) 0.3642(3)
O2 O 0.5169(4) 0.2199(4) 0.3750(3)
O3 O 0.3440(4) 0.0066(4) 0.6577(3)
O4 O 0.2602(4) -0.1757(4) 0.6176(3)
O5 O 0.1831(4) 0.6159(4) 0.4226(3)
O6 O 0.2312(4) 0.4468(4) 0.3716(3)
O7 O 0.2835(4) 0.0748(4) 0.4341(3)
O8 O 0.2589(4) 0.2335(4) 0.4127(3)
O9 O 0.3341(4) 0.2208(4) 0.6144(3)
O10 O 0.3475(4) 0.3793(4) 0.5883(3)
O11 O 0.5495(4) 0.1287(4) 0.6279(3)
O12 O 0.6163(4) 0.2995(4) 0.6225(3)
O13 O 0.2419(4) -0.1338(4) 0.4787(3)
O14 O 0.1605(4) 0.0062(4) 0.5420(3)
O15 O 0.1535(4) 0.4252(4) 0.5120(3)
O16 O 0.2815(4) 0.5845(4) 0.5574(3)
O17 O 0.4796(3) -0.0989(3) 0.5275(2)
H31 H 0.5054 -0.0816 0.5735
O18 O 0.4585(3) 0.5877(3) 0.4745(2)
H32 H 0.4607 0.5806 0.4292
C3A C 0.0097(7) 0.0395(6) -0.0098(4)
C1A C -0.1919(6) 0.1994(7) -1.0097(4)
C2A C 0.1157(6) -0.5996(7) -0.0338(4)
C4A C -0.4861(10) -0.7492(10) -0.9768(5)
C5A C -0.2937(7) -0.1783(6) -0.1363(4)
H1A H -0.2548 -0.2109 -0.1053
C6A C -0.3481(6) -0.2454(6) -0.2086(4)
H2A H -0.3438 -0.3219 -0.2262
C7A C -0.4096(5) -0.2008(6) -0.2559(4)
C8A C -0.4127(6) -0.0873(6) -0.2253(4)
H3A H -0.4547 -0.0536 -0.2541
C9A C -0.3549(6) -0.0233(6) -0.1533(4)
H4A H -0.3578 0.0534 -0.1348
C10A C -0.4630(5) -0.2693(5) -0.3381(4)
C11A C -0.2544(7) -0.0409(6) -0.8791(4)
H5A H -0.2526 -0.1110 -0.9155
C12A C -0.2724(7) -0.0348(6) -0.8045(4)
H6A H -0.2836 -0.1001 -0.7919
C13A C -0.2734(6) 0.0683(6) -0.7498(4)
C14A C -0.2599(6) 0.1624(6) -0.7721(4)
H7A H -0.2616 0.2334 -0.7370
C15A C -0.2440(7) 0.1498(6) -0.8469(4)
H8A H -0.2358 0.2137 -0.8613
C16A C -0.2941(6) 0.0807(6) -0.6675(4)
C17A C 0.0076(7) -0.5783(7) -0.2094(5)
H9A H 0.0402 -0.6377 -0.2024
C18A C -0.0582(7) -0.5962(6) -0.2809(5)
H10A H -0.0690 -0.6660 -0.3202
C19A C -0.1064(6) -0.5099(6) -0.2927(4)
C20A C -0.0860(7) -0.4079(7) -0.2326(4)
H11A H -0.1156 -0.3467 -0.2391
C21A C -0.0215(7) -0.3962(7) -0.1625(5)
H12A H -0.0108 -0.3273 -0.1224
C22A C -0.1799(5) -0.5247(6) -0.3686(4)
C23A C -0.1121(7) 0.1135(6) -0.2111(5)
H13A H -0.1155 0.1897 -0.1890
C24A C -0.1705(7) 0.0559(6) -0.2845(4)
H14A H -0.2095 0.0936 -0.3118
C25A C -0.1710(6) -0.0594(5) -0.3181(4)
C26A C -0.1076(6) -0.1088(6) -0.2748(4)
H15A H -0.1042 -0.1853 -0.2947
C27A C -0.0501(7) -0.0437(7) -0.2026(5)
H16A H -0.0079 -0.0783 -0.1745
C28A C -0.2435(5) -0.1281(5) -0.3946(4)
C29A C -0.3229(8) -0.3991(8) -0.8451(5)
H17A H -0.3069 -0.3612 -0.8793
C30A C -0.3147(7) -0.3356(6) -0.7685(4)
H18A H -0.2949 -0.2572 -0.7520
C31A C -0.3363(6) -0.3899(5) -0.7160(4)
C32A C -0.3631(8) -0.5062(6) -0.7442(4)
H19A H -0.3755 -0.5462 -0.7108
C33A C -0.3714(9) -0.5619(7) -0.8217(5)
H20A H -0.3917 -0.6403 -0.8396
C34A C -0.3380(5) -0.3253(5) -0.6331(4)
C35A C -0.5594(8) -0.2584(8) -0.8631(5)
H21A H -0.5269 -0.2116 -0.8881
C36A C -0.5556(8) -0.2140(7) -0.7838(4)
H22A H -0.5232 -0.1386 -0.7569
C37A C -0.5999(6) -0.2822(6) -0.7449(4)
C38A C -0.6457(7) -0.3914(7) -0.7878(5)
H23A H -0.6747 -0.4406 -0.7635
C39A C -0.6499(8) -0.4303(8) -0.8671(5)
H24A H -0.6834 -0.5051 -0.8952
C40A C -0.5888(5) -0.2337(6) -0.6579(4)
C41A C -0.1514(6) 0.0957(6) -0.5049(4)
C42A C -0.0373(6) 0.1748(7) -0.4893(6)
H25A H -0.0239 0.1913 -0.5351
H26A H -0.0394 0.2435 -0.4482
H27A H 0.0245 0.1400 -0.4745
C43A C -0.1796(6) -0.5270(6) -0.5534(4)
C44A C -0.0943(7) -0.5846(7) -0.6012(5)
H28A H -0.0161 -0.5474 -0.5773
H29A H -0.1042 -0.6623 -0.6044
H30A H -0.1081 -0.5808 -0.6522
Cu1A Cu -0.21751(10) 0.04620(9) -1.00644(6)
Cu2A Cu 0.12678(9) -0.45525(9) -0.04123(6)
Cu3A Cu 0.02299(10) 0.15476(9) -0.05402(6)
Cu4A Cu -0.37779(11) -0.60054(12) -0.98304(6)
Dy1A Dy -0.34692(2) 0.26737(2) -0.509479(17)
Dy2A Dy -0.37096(3) -0.04855(2) -0.542051(17)
Dy3A Dy -0.34615(3) -0.41845(2) -0.474503(17)
N1A N -0.1778(6) 0.2971(6) -0.9965(4)
N2A N 0.0919(6) -0.6938(6) -0.0383(4)
N3A N -0.4909(8) -0.8397(10) -0.9833(5)
N4A N -0.2944(5) -0.0665(5) -0.1083(3)
N5A N -0.2397(5) 0.0504(5) -0.9000(3)
N6A N 0.0260(6) -0.4804(5) -0.1505(4)
N7A N -0.0513(6) 0.0666(5) -0.1700(4)
N8A N -0.3522(6) -0.5109(6) -0.8739(4)
N9A N -0.6067(6) -0.3631(6) -0.9048(3)
O1A O -0.4444(4) -0.3680(4) -0.3642(3)
O2A O -0.5169(4) -0.2199(4) -0.3750(3)
O3A O -0.3440(4) -0.0066(4) -0.6577(3)
O4A O -0.2602(4) 0.1757(4) -0.6176(3)
O5A O -0.1831(4) -0.6159(4) -0.4226(3)
O6A O -0.2312(4) -0.4468(4) -0.3716(3)
O7A O -0.2835(4) -0.0748(4) -0.4341(3)
O8A O -0.2589(4) -0.2335(4) -0.4127(3)
O9A O -0.3341(4) -0.2208(4) -0.6144(3)
O10A O -0.3475(4) -0.3793(4) -0.5883(3)
O11A O -0.5495(4) -0.1287(4) -0.6279(3)
O12A O -0.6163(4) -0.2995(4) -0.6225(3)
O13A O -0.2419(4) 0.1338(4) -0.4787(3)
O14A O -0.1605(4) -0.0062(4) -0.5420(3)
O15A O -0.1535(4) -0.4252(4) -0.5120(3)
O16A O -0.2815(4) -0.5845(4) -0.5574(3)
O17A O -0.4796(3) 0.0989(3) -0.5275(2)
H31A H -0.5054 0.0816 -0.5735
O18A O -0.4585(3) -0.5877(3) -0.4745(2)
H32A H -0.4607 -0.5806 -0.4292
Cu1_2 Cu 0.21751(10) -0.04620(9) 0.00644(6)
Cu1A_2 Cu -0.21751(10) 0.04620(9) -0.00644(6)
Cu2_2 Cu -0.12678(9) -0.54475(9) -0.95877(6)
Cu2_3 Cu -0.12678(9) 0.45525(9) -0.95877(6)
Cu2A_2 Cu 0.12678(9) -0.45525(9) 0.95877(6)
Cu2A_3 Cu 0.12678(9) 0.54475(9) 0.95877(6)
Cu3_2 Cu -0.02299(10) 0.84524(9) 0.05402(6)
Cu3A_2 Cu 0.02299(10) -0.84524(9) -0.05402(6)
Cu4_2 Cu -0.62221(11) -0.39946(12) -1.01696(6)
Cu4_3 Cu 0.37779(11) -0.39946(12) -0.01696(6)
Cu4A_2 Cu -0.37779(11) 0.39946(12) 0.01696(6)
Cu4A_3 Cu 0.62221(11) 0.39946(12) 1.01696(6)
Cu5_2 Cu -0.5000 -1.0000 -1.0000
Dy1_2 Dy -0.65308(2) -0.26737(2) -0.490521(17)
Dy1_3 Dy 0.34692(2) 0.73263(2) 0.509479(17)
Dy1A_2 Dy -0.34692(2) -0.73263(2) -0.509479(17)
Dy1A_3 Dy 0.65308(2) 0.26737(2) 0.490521(17)
Dy2_2 Dy -0.62904(3) 0.04855(2) -0.457949(17)
Dy2A_2 Dy 0.62904(3) -0.04855(2) 0.457949(17)
Dy3_2 Dy -0.65385(3) -0.58155(2) -0.525497(17)
Dy3A_2 Dy 0.65385(3) 0.58155(2) 0.525497(17)
N1_2 N 0.1778(6) -0.2971(6) -0.0035(4)
N1A_2 N -0.1778(6) 0.2971(6) 0.0035(4)
N2_2 N -0.0919(6) -0.3062(6) 0.0383(4)
N2A_2 N 0.0919(6) 0.3062(6) -0.0383(4)
N3A_2 N 0.5091(8) 1.1603(10) 1.0167(5)
N4_2 N 0.2944(5) 0.0665(5) 1.1083(3)
N4A_2 N -0.2944(5) -0.0665(5) -1.1083(3)
N9_2 N -0.3933(6) -0.6369(6) -1.0952(3)
N9A_2 N 0.3933(6) 0.6369(6) 1.0952(3)
O2_2 O -0.4831(4) 0.2199(4) -0.6250(3)
O2A_2 O 0.4831(4) -0.2199(4) 0.6250(3)
O5_2 O 0.1831(4) -0.3841(4) 0.4226(3)
O5A_2 O -0.1831(4) 0.3841(4) -0.4226(3)
O12_2 O -0.3837(4) 0.2995(4) -0.3775(3)
O12A_2 O 0.3837(4) -0.2995(4) 0.3775(3)
O16_2 O 0.2815(4) -0.4155(4) 0.5574(3)
O16A_2 O -0.2815(4) 0.4155(4) -0.5574(3)
O17_2 O -0.5204(3) -0.0989(3) -0.4725(2)
O17A_2 O 0.5204(3) 0.0989(3) 0.4725(2)
O18_2 O -0.5415(3) -0.4123(3) -0.5255(2)
O18_3 O 0.4585(3) -0.4123(3) 0.4745(2)
O18A_2 O -0.4585(3) 0.4123(3) -0.4745(2)
O18A_3 O 0.5415(3) 0.4123(3) 0.5255(2)
N10? N 0.0097(7) 0.0395(6) -0.0098(4)
loop_
_geom_bond_atom_site_label_1
_geom_bond_atom_site_label_2
_geom_bond_site_symmetry_1
_geom_bond_site_symmetry_2
C1 Cu1 1_555 1_555
C2 Cu2 1_555 1_555
C3 Cu3 1_555 1_555
C4 Cu4 1_555 1_555
C5 H1 1_555 1_555
C6 C5 1_555 1_555
H2 C6 1_555 1_555
C7 C6 1_555 1_555
C8 C7 1_555 1_555
H3 C8 1_555 1_555
C9 C8 1_555 1_555
H4 C9 1_555 1_555
C10 C7 1_555 1_555
C11 H5 1_555 1_555
C12 C11 1_555 1_555
H6 C12 1_555 1_555
C13 C12 1_555 1_555
C14 C13 1_555 1_555
H7 C14 1_555 1_555
C15 C14 1_555 1_555
H8 C15 1_555 1_555
C16 C13 1_555 1_555
C17 H9 1_555 1_555
C18 C17 1_555 1_555
H10 C18 1_555 1_555
C19 C18 1_555 1_555
C20 C19 1_555 1_555
H11 C20 1_555 1_555
C21 C20 1_555 1_555
H12 C21 1_555 1_555
C22 C19 1_555 1_555
C23 H13 1_555 1_555
C24 C23 1_555 1_555
H14 C24 1_555 1_555
C25 C24 1_555 1_555
C26 C25 1_555 1_555
H15 C26 1_555 1_555
C27 C26 1_555 1_555
H16 C27 1_555 1_555
C28 C25 1_555 1_555
C29 H17 1_555 1_555
C30 C29 1_555 1_555
H18 C30 1_555 1_555
C31 C30 1_555 1_555
C32 C31 1_555 1_555
H19 C32 1_555 1_555
C33 C32 1_555 1_555
H20 C33 1_555 1_555
C34 C31 1_555 1_555
C35 H21 1_555 1_555
C36 C35 1_555 1_555
H22 C36 1_555 1_555
C37 C36 1_555 1_555
C38 C37 1_555 1_555
H23 C38 1_555 1_555
C39 C38 1_555 1_555
H24 C39 1_555 1_555
C40 C37 1_555 1_555
C41 C42 1_555 1_555
C42 H25 1_555 1_555
H26 C42 1_555 1_555
H27 C42 1_555 1_555
C43 C44 1_555 1_555
C44 H28 1_555 1_555
H29 C44 1_555 1_555
H30 C44 1_555 1_555
Cu1 N5 1_555 1_555
Cu2 N6 1_555 1_555
Cu3 N7 1_555 1_555
Cu4 N8 1_555 1_555
Cu5 N3 1_555 1_555
Dy1 O4 1_555 1_555
Dy2 O3 1_555 1_555
Dy3 O1 1_555 1_555
N1 C1 1_555 1_555
N2 C2 1_555 1_555
N3 C4 1_555 1_555
N4 C5 1_555 1_555
N5 C11 1_555 1_555
N6 C17 1_555 1_555
N7 C23 1_555 1_555
N8 C29 1_555 1_555
N9 C35 1_555 1_555
O1 C10 1_555 1_555
O2 C10 1_555 1_555
O3 C16 1_555 1_555
O4 C16 1_555 1_555
O5 C22 1_555 1_555
O6 C22 1_555 1_555
O7 C28 1_555 1_555
O8 C28 1_555 1_555
O9 C34 1_555 1_555
O10 C34 1_555 1_555
O11 C40 1_555 1_555
O12 C40 1_555 1_555
O13 C41 1_555 1_555
O14 C41 1_555 1_555
O15 C43 1_555 1_555
O16 C43 1_555 1_555
O17 Dy1 1_555 1_555
H31 O17 1_555 1_555
O18 Dy3 1_555 1_555
H32 O18 1_555 1_555
O19 H33 1_555 1_555
H34 O19 1_555 1_555
C3A C3 1_555 1_555
C1A Cu1A 1_555 1_555
C2A Cu2A 1_555 1_555
C4A Cu4A 1_555 1_555
C5A H1A 1_555 1_555
C6A C5A 1_555 1_555
H2A C6A 1_555 1_555
C7A C6A 1_555 1_555
C8A C7A 1_555 1_555
H3A C8A 1_555 1_555
C9A C8A 1_555 1_555
H4A C9A 1_555 1_555
C10A C7A 1_555 1_555
C11A H5A 1_555 1_555
C12A C11A 1_555 1_555
H6A C12A 1_555 1_555
C13A C12A 1_555 1_555
C14A C13A 1_555 1_555
H7A C14A 1_555 1_555
C15A C14A 1_555 1_555
H8A C15A 1_555 1_555
C16A C13A 1_555 1_555
C17A H9A 1_555 1_555
C18A C17A 1_555 1_555
H10A C18A 1_555 1_555
C19A C18A 1_555 1_555
C20A C19A 1_555 1_555
H11A C20A 1_555 1_555
C21A C20A 1_555 1_555
H12A C21A 1_555 1_555
C22A C19A 1_555 1_555
C23A H13A 1_555 1_555
C24A C23A 1_555 1_555
H14A C24A 1_555 1_555
C25A C24A 1_555 1_555
C26A C25A 1_555 1_555
H15A C26A 1_555 1_555
C27A C26A 1_555 1_555
H16A C27A 1_555 1_555
C28A C25A 1_555 1_555
C29A H17A 1_555 1_555
C30A C29A 1_555 1_555
H18A C30A 1_555 1_555
C31A C30A 1_555 1_555
C32A C31A 1_555 1_555
H19A C32A 1_555 1_555
C33A C32A 1_555 1_555
H20A C33A 1_555 1_555
C34A C31A 1_555 1_555
C35A H21A 1_555 1_555
C36A C35A 1_555 1_555
H22A C36A 1_555 1_555
C37A C36A 1_555 1_555
C38A C37A 1_555 1_555
H23A C38A 1_555 1_555
C39A C38A 1_555 1_555
H24A C39A 1_555 1_555
C40A C37A 1_555 1_555
C41A C42A 1_555 1_555
C42A H25A 1_555 1_555
H26A C42A 1_555 1_555
H27A C42A 1_555 1_555
C43A C44A 1_555 1_555
C44A H28A 1_555 1_555
H29A C44A 1_555 1_555
H30A C44A 1_555 1_555
Cu1A N5A 1_555 1_555
Cu2A N6A 1_555 1_555
Cu3A C3A 1_555 1_555
Cu4A N8A 1_555 1_555
Dy1A O4A 1_555 1_555
Dy2A O3A 1_555 1_555
Dy3A O1A 1_555 1_555
N1A C1A 1_555 1_555
N2A C2A 1_555 1_555
N3A C4A 1_555 1_555
N4A C5A 1_555 1_555
N5A C11A 1_555 1_555
N6A C17A 1_555 1_555
N7A C23A 1_555 1_555
N8A C29A 1_555 1_555
N9A C35A 1_555 1_555
O1A C10A 1_555 1_555
O2A C10A 1_555 1_555
O3A C16A 1_555 1_555
O4A C16A 1_555 1_555
O5A C22A 1_555 1_555
O6A C22A 1_555 1_555
O7A C28A 1_555 1_555
O8A C28A 1_555 1_555
O9A C34A 1_555 1_555
O10A C34A 1_555 1_555
O11A C40A 1_555 1_555
O12A C40A 1_555 1_555
O13A C41A 1_555 1_555
O14A C41A 1_555 1_555
O15A C43A 1_555 1_555
O16A C43A 1_555 1_555
O17A Dy1A 1_555 1_555
H31A O17A 1_555 1_555
O18A Dy3A 1_555 1_555
H32A O18A 1_555 1_555
Cu1_2 N4 1_555 1_555
Cu1A_2 N4A 1_555 1_555
Cu2_2 Cu4A 1_555 1_555
Cu2_3 N1A 1_555 1_555
Cu2A_2 N1 1_555 1_555
Cu2A_3 Cu4 1_555 1_555
Cu3_2 N2 1_555 1_555
Cu3A_2 N2A 1_555 1_555
Cu4_2 N9A 1_555 1_555
Cu4_3 Cu2A 1_555 1_555
Cu4A_2 Cu2 1_555 1_555
Cu4A_3 N9 1_555 1_555
Cu5_2 N3A 1_555 1_555
Dy1_2 O2A 1_555 1_555
Dy1_3 O5 1_555 1_555
Dy1A_2 O5A 1_555 1_555
Dy1A_3 O2 1_555 1_555
Dy2_2 O17A 1_555 1_555
Dy2A_2 O17 1_555 1_555
Dy3_2 O18A 1_555 1_555
Dy3A_2 O18 1_555 1_555
N1_2 Cu2A 1_555 1_555
N1A_2 Cu2 1_555 1_555
N2_2 Cu3 1_555 1_555
N2A_2 Cu3A 1_555 1_555
N3A_2 Cu5 1_555 1_555
N4_2 Cu1 1_555 1_555
N4A_2 Cu1A 1_555 1_555
N9_2 Cu4A 1_555 1_555
N9A_2 Cu4 1_555 1_555
O2_2 Dy1A 1_555 1_555
O2A_2 Dy1 1_555 1_555
O5_2 Dy1 1_555 1_555
O5A_2 Dy1A 1_555 1_555
O12_2 Dy1A 1_555 1_555
O12A_2 Dy1 1_555 1_555
O16_2 Dy1 1_555 1_555
O16A_2 Dy1A 1_555 1_555
O17_2 Dy2A 1_555 1_555
O17A_2 Dy2 1_555 1_555
O18_2 Dy3A 1_555 1_555
O18_3 Dy1 1_555 1_555
O18A_2 Dy1A 1_555 1_555
O18A_3 Dy3 1_555 1_555
C9 N4 1_555 1_555
C15 N5 1_555 1_555
C21 N6 1_555 1_555
C27 N7 1_555 1_555
C33 N8 1_555 1_555
C39 N9 1_555 1_555
Dy1 O13 1_555 1_555
Dy2 O7 1_555 1_555
Dy2 O9 1_555 1_555
Dy2 O11 1_555 1_555
Dy2 O13 1_555 1_555
Dy2 O14 1_555 1_555
Dy2 O17 1_555 1_555
Dy3 O6 1_555 1_555
Dy3 O8 1_555 1_555
Dy3 O10 1_555 1_555
Dy3 O15 1_555 1_555
Dy3 O16 1_555 1_555
O12 Dy1A_3 1_555 1_555
O16 Dy1_3 1_555 1_555
O18 Dy1_3 1_555 1_555
C9A N4A 1_555 1_555
C15A N5A 1_555 1_555
C21A N6A 1_555 1_555
C27A N7A 1_555 1_555
C33A N8A 1_555 1_555
C39A N9A 1_555 1_555
Cu3A N7A 1_555 1_555
Dy1A O13A 1_555 1_555
Dy2A O7A 1_555 1_555
Dy2A O9A 1_555 1_555
Dy2A O11A 1_555 1_555
Dy2A O13A 1_555 1_555
Dy2A O14A 1_555 1_555
Dy2A O17A 1_555 1_555
Dy3A O6A 1_555 1_555
Dy3A O8A 1_555 1_555
Dy3A O10A 1_555 1_555
Dy3A O15A 1_555 1_555
Dy3A O16A 1_555 1_555
O12A Dy1_2 1_555 1_555
O16A Dy1A_2 1_555 1_555
O18A Dy1A_2 1_555 1_555
Dy1_2 O17_2 1_555 1_555
Dy1_2 O18_2 1_555 1_555
Dy1A_3 O17A_2 1_555 1_555
Dy1A_3 O18A_3 1_555 1_555
Dy2_2 O17_2 1_555 1_555
Dy2A_2 O17A_2 1_555 1_555
Dy3_2 O18_2 1_555 1_555
Dy3A_2 O18A_3 1_555 1_555

#END
