
#######################################################################
#
#                 Cambridge Crystallographic Data Centre
#                                CCDC 
#
#######################################################################
#
# If this CIF has been generated from an entry in the Cambridge 
# Structural Database, then it will include bibliographic, chemical, 
# crystal, experimental, refinement or atomic coordinate data resulting 
# from the CCDC's data processing and validation procedures.
#
#######################################################################

data_PIWDEF
_symmetry_cell_setting           monoclinic
_symmetry_space_group_name_H-M   'P 21/c'
_symmetry_Int_Tables_number      14
_space_group_name_Hall           '-P 2ybc'
loop_
_symmetry_equiv_pos_site_id
_symmetry_equiv_pos_as_xyz
1 x,y,z
2 -x,1/2+y,1/2-z
3 -x,-y,-z
4 x,1/2-y,1/2+z
_cell_length_a                   10.7071(7)
_cell_length_b                   9.9808(10)
_cell_length_c                   12.4504(8)
_cell_angle_alpha                90
_cell_angle_beta                 111.976(7)
_cell_angle_gamma                90
_cell_volume                     1233.84
loop_
_atom_site_label
_atom_site_type_symbol
_atom_site_fract_x
_atom_site_fract_y
_atom_site_fract_z
C1 C 0.3203(5) 0.8233(5) 0.2593(4)
C2 C 0.2029(4) 0.7297(4) 0.2275(5)
C3 C 0.2004(5) 0.6168(5) 0.2939(5)
H1 H 0.2760 0.5971 0.3622
C4 C 0.0872(6) 0.5328(5) 0.2601(6)
H2 H 0.0876 0.4571 0.3065
C5 C -0.0254(5) 0.5573(5) 0.1608(6)
H3 H -0.1025 0.5012 0.1385
C6 C -0.0194(5) 0.6677(5) 0.0959(5)
C7 C 0.0913(5) 0.7515(5) 0.1289(5)
C8 C -0.0453(6) 0.8095(6) -0.0480(6)
H4 H -0.1043 0.8861 -0.0855
H5 H -0.0150 0.7663 -0.1057
C9 C 0.6709(5) 0.7496(5) 0.1918(5)
H6 H 0.7396 0.7077 0.1685
H7 H 0.7147 0.8052 0.2606
H8 H 0.6120 0.8057 0.1285
C10 C 0.5987(5) 0.5482(5) 0.4068(5)
H9 H 0.6339 0.6273 0.4553
H10 H 0.6663 0.4767 0.4301
H11 H 0.5165 0.5174 0.4162
C11 C 0.3804(5) 0.5330(5) 0.0904(5)
H12 H 0.4060 0.4646 0.0461
H13 H 0.3394 0.6094 0.0400
H14 H 0.3155 0.4951 0.1205
O1 O 0.4342(3) 0.7814(4) 0.2675(3)
O2 O 0.2986(3) 0.9448(3) 0.2750(3)
O3 O -0.1164(4) 0.7153(4) -0.0051(4)
O4 O 0.0688(4) 0.8546(4) 0.0503(3)
Sn1 Sn 0.55424(3) 0.59821(3) 0.23068(3)
O2A O 0.7014(3) 0.4448(3) 0.2250(3)
Sn1A Sn 0.44576(3) 1.09821(3) 0.26932(3)
loop_
_geom_bond_atom_site_label_1
_geom_bond_atom_site_label_2
_geom_bond_site_symmetry_1
_geom_bond_site_symmetry_2
C1 C2 1_555 1_555
C2 C3 1_555 1_555
C3 H1 1_555 1_555
C4 C3 1_555 1_555
H2 C4 1_555 1_555
C5 C4 1_555 1_555
H3 C5 1_555 1_555
C6 C5 1_555 1_555
C7 C2 1_555 1_555
C8 H4 1_555 1_555
H5 C8 1_555 1_555
C9 H6 1_555 1_555
H7 C9 1_555 1_555
H8 C9 1_555 1_555
C10 H9 1_555 1_555
H10 C10 1_555 1_555
H11 C10 1_555 1_555
C11 H12 1_555 1_555
H13 C11 1_555 1_555
H14 C11 1_555 1_555
O1 C1 1_555 1_555
O2 C1 1_555 1_555
O3 C6 1_555 1_555
O4 C7 1_555 1_555
Sn1 C9 1_555 1_555
O2A Sn1 1_555 1_555
Sn1A O2 1_555 1_555
C6 C7 1_555 1_555
C8 O3 1_555 1_555
C8 O4 1_555 1_555
C10 Sn1 1_555 1_555
C11 Sn1 1_555 1_555
O1 Sn1 1_555 1_555

#END
