
#######################################################################
#
#                 Cambridge Crystallographic Data Centre
#                                CCDC 
#
#######################################################################
#
# If this CIF has been generated from an entry in the Cambridge 
# Structural Database, then it will include bibliographic, chemical, 
# crystal, experimental, refinement or atomic coordinate data resulting 
# from the CCDC's data processing and validation procedures.
#
#######################################################################

data_PIWGIM
_symmetry_cell_setting           monoclinic
_symmetry_space_group_name_H-M   'C 2'
_symmetry_Int_Tables_number      5
_space_group_name_Hall           'C 2y'
loop_
_symmetry_equiv_pos_site_id
_symmetry_equiv_pos_as_xyz
1 x,y,z
2 -x,y,-z
3 1/2+x,1/2+y,z
4 1/2-x,1/2+y,-z
_cell_length_a                   30.762(10)
_cell_length_b                   8.711(3)
_cell_length_c                   10.642(3)
_cell_angle_alpha                90
_cell_angle_beta                 104.471(6)
_cell_angle_gamma                90
_cell_volume                     2761.24
loop_
_atom_site_label
_atom_site_type_symbol
_atom_site_fract_x
_atom_site_fract_y
_atom_site_fract_z
Cu1 Cu 0.41744(5) -0.0374(2) 0.46016(15)
Cu2 Cu 0.27714(6) -0.09768(18) 0.11285(16)
Br1 Br 0.43817(4) -0.35816(16) 0.55438(14)
N1 N 0.3836(3) 0.4045(11) 1.1607(8)
N2 N 0.3389(3) -0.0840(11) 0.2237(10)
C1 C 0.3201(3) 0.3909(13) 1.2786(11)
N3 N 0.3989(3) 0.0791(13) 0.6128(10)
C2 C 0.2888(3) 0.4141(13) 1.5018(10)
C3 C 0.3965(4) 0.3324(14) 1.0427(10)
H1 H 0.3992 0.2215 1.0584
C4 C 0.3707(4) -0.0713(14) 0.3109(11)
C5 C 0.3712(4) 0.0218(13) 0.6807(11)
C6 C 0.2933(4) 0.5437(14) 1.4336(12)
H2 H 0.2855 0.6388 1.4614
C7 C 0.3001(4) 0.2711(13) 1.4581(12)
H3 H 0.2973 0.1827 1.5044
C8 C 0.2724(4) 0.4202(15) 1.6172(11)
C9 C 0.4663(4) 0.4603(18) 1.1714(13)
H4 H 0.4978 0.4805 1.1734
C10 C 0.3594(4) 0.1065(13) 0.7826(11)
C11 C 0.3354(4) 0.3735(15) 1.1547(11)
H5 H 0.3287 0.2694 1.1235
H6 H 0.3173 0.4416 1.0903
C12 C 0.4147(4) 0.3330(14) 1.2829(11)
H7 H 0.4096 0.3824 1.3597
H8 H 0.4078 0.2247 1.2870
C13 C 0.3919(4) 0.5760(13) 1.1681(12)
H9 H 0.3818 0.6180 1.2403
H10 H 0.3746 0.6240 1.0892
C14 C 0.3617(5) 0.3554(14) 0.9103(12)
H11 H 0.3317 0.3256 0.9176
N4 N 0.2596(4) 0.4172(14) 1.7088(11)
C15 C 0.3149(4) 0.2609(14) 1.3517(12)
H12 H 0.3220 0.1648 1.3245
C16 C 0.4426(4) 0.3901(17) 1.0411(12)
H13 H 0.4399 0.4666 0.9734
H14 H 0.4604 0.3056 1.0216
C17 C 0.3747(4) 0.2624(14) 0.8075(11)
C18 C 0.4137(4) 0.217(2) 0.6398(13)
H15 H 0.4337 0.2550 0.5950
C19 C 0.3521(4) -0.1244(14) 0.6471(12)
H16 H 0.3597 -0.1799 0.5809
O1 O 0.3624(4) 0.5160(10) 0.8795(9)
H17 H 0.3444 0.5327 0.8098
C20 C 0.3094(4) 0.5338(14) 1.3221(12)
H18 H 0.3130 0.6224 1.2769
C21 C 0.4636(4) 0.3521(16) 1.2801(13)
H19 H 0.4807 0.3931 1.3623
H20 H 0.4762 0.2533 1.2665
C22 C 0.4421(5) 0.6142(17) 1.1858(14)
H21 H 0.4540 0.6527 1.2742
C23 C 0.4015(5) 0.3171(16) 0.7351(12)
H22 H 0.4121 0.4175 0.7459
C24 C 0.3294(5) 0.0381(17) 0.8483(13)
H23 H 0.3216 0.0900 0.9158
C25 C 0.3227(5) -0.1855(16) 0.7105(13)
H24 H 0.3099 -0.2808 0.6851
C26 C 0.3115(5) -0.1092(18) 0.8109(14)
H25 H 0.2921 -0.1546 0.8544
Br2 Br 0.5000 0.0266(9) 0.5000
N5 N 0.2510(4) 0.1041(14) 0.0274(10)
C27 C 0.2426(4) 0.2036(16) -0.0233(13)
Cu3 Cu 0.5000 -0.2450(3) 0.5000
C28 C 0.4497(7) 0.735(2) 1.092(2)
H26 H 0.4437 0.7127 1.0037
C29 C 0.4654(16) 0.879(3) 1.136(5)
H27 H 0.4714 0.9017 1.2238
H28 H 0.4700 0.9528 1.0774
Cu1A Cu 0.58256(5) -0.0374(2) 0.53984(15)
Cu2A Cu 0.72286(6) -0.09768(18) 0.88715(16)
Cu2C Cu 0.22286(6) 0.40232(18) 1.88715(16)
Cu2C_2 Cu 0.22286(6) 0.40232(18) -0.11285(16)
Cu2B Cu 0.77714(6) 0.40232(18) -0.88715(16)
Cu2C_3 Cu 0.22286(6) -0.59768(18) -0.11285(16)
Br1A Br 0.56183(4) -0.35816(16) 0.44562(14)
N1A N 0.6164(3) 0.4045(11) -0.1607(8)
N2A N 0.6611(3) -0.0840(11) 0.7763(10)
C1A C 0.6799(3) 0.3909(13) -0.2786(11)
N3A N 0.6011(3) 0.0791(13) 0.3872(10)
C2A C 0.7112(3) 0.4141(13) -0.5018(10)
C3A C 0.6035(4) 0.3324(14) -0.0427(10)
H1A H 0.6008 0.2215 -0.0584
C4A C 0.6293(4) -0.0713(14) 0.6891(11)
C5A C 0.6288(4) 0.0218(13) 0.3193(11)
C6A C 0.7067(4) 0.5437(14) -0.4336(12)
H2A H 0.7145 0.6388 -0.4614
C7A C 0.6999(4) 0.2711(13) -0.4581(12)
H3A H 0.7027 0.1827 -0.5044
C8A C 0.7276(4) 0.4202(15) -0.6172(11)
C9A C 0.5337(4) 0.4603(18) -0.1714(13)
H4A H 0.5022 0.4805 -0.1734
C10A C 0.6406(4) 0.1065(13) 0.2174(11)
C11A C 0.6646(4) 0.3735(15) -0.1547(11)
H5A H 0.6713 0.2694 -0.1235
H6A H 0.6827 0.4416 -0.0903
C12A C 0.5853(4) 0.3330(14) -0.2829(11)
H7A H 0.5904 0.3824 -0.3597
H8A H 0.5922 0.2247 -0.2870
C13A C 0.6081(4) 0.5760(13) -0.1681(12)
H9A H 0.6182 0.6180 -0.2403
H10A H 0.6254 0.6240 -0.0892
C14A C 0.6383(5) 0.3554(14) 0.0897(12)
H11A H 0.6683 0.3256 0.0824
N4A N 0.7404(4) 0.4172(14) -0.7088(11)
N4C N 0.2404(4) -0.0828(14) 0.2912(11)
N4B N 0.7596(4) -0.0828(14) 0.7088(11)
C15A C 0.6851(4) 0.2609(14) -0.3517(12)
H12A H 0.6780 0.1648 -0.3245
C16A C 0.5574(4) 0.3901(17) -0.0411(12)
H13A H 0.5601 0.4666 0.0266
H14A H 0.5396 0.3056 -0.0216
C17A C 0.6253(4) 0.2624(14) 0.1925(11)
C18A C 0.5863(4) 0.217(2) 0.3602(13)
H15A H 0.5663 0.2550 0.4050
C19A C 0.6479(4) -0.1244(14) 0.3529(12)
H16A H 0.6403 -0.1799 0.4191
O1A O 0.6376(4) 0.5160(10) 0.1205(9)
H17A H 0.6556 0.5327 0.1902
C20A C 0.6906(4) 0.5338(14) -0.3221(12)
H18A H 0.6870 0.6224 -0.2769
C21A C 0.5364(4) 0.3521(16) -0.2801(13)
H19A H 0.5193 0.3931 -0.3623
H20A H 0.5238 0.2533 -0.2665
C22A C 0.5579(5) 0.6142(17) -0.1858(14)
H21A H 0.5460 0.6527 -0.2742
C23A C 0.5985(5) 0.3171(16) 0.2649(12)
H22A H 0.5879 0.4175 0.2541
C24A C 0.6706(5) 0.0381(17) 0.1517(13)
H23A H 0.6784 0.0900 0.0842
C25A C 0.6773(5) -0.1855(16) 0.2895(13)
H24A H 0.6901 -0.2808 0.3149
C26A C 0.6885(5) -0.1092(18) 0.1891(14)
H25A H 0.7079 -0.1546 0.1456
N5C N 0.2490(4) -0.3959(14) -0.0274(10)
N5A N 0.7490(4) 0.1041(14) 0.9726(10)
C27C C 0.2574(4) -0.2964(16) 0.0233(13)
C27B C 0.7426(4) -0.2964(16) 0.9767(13)
C28A C 0.5503(7) 0.735(2) -0.092(2)
H26A H 0.5563 0.7127 -0.0037
C29A C 0.5346(16) 0.879(3) -0.136(5)
H27A H 0.5286 0.9017 -0.2238
H28A H 0.5300 0.9528 -0.0774
loop_
_geom_bond_atom_site_label_1
_geom_bond_atom_site_label_2
_geom_bond_site_symmetry_1
_geom_bond_site_symmetry_2
Cu1 N3 1_555 1_555
Cu2 N2 1_555 1_555
Br1 Cu3 1_555 1_555
N1 C3 1_555 1_555
N2 C4 1_555 1_555
C1 C11 1_555 1_555
N3 C5 1_555 1_555
C2 C6 1_555 1_555
C3 H1 1_555 1_555
C4 Cu1 1_555 1_555
C5 C10 1_555 1_555
C6 H2 1_555 1_555
C7 C2 1_555 1_555
H3 C7 1_555 1_555
C8 C2 1_555 1_555
C9 H4 1_555 1_555
C10 C17 1_555 1_555
C11 N1 1_555 1_555
H5 C11 1_555 1_555
H6 C11 1_555 1_555
C12 N1 1_555 1_555
H7 C12 1_555 1_555
H8 C12 1_555 1_555
C13 N1 1_555 1_555
H9 C13 1_555 1_555
H10 C13 1_555 1_555
C14 C3 1_555 1_555
H11 C14 1_555 1_555
N4 C8 1_555 1_555
C15 C1 1_555 1_555
H12 C15 1_555 1_555
C16 C3 1_555 1_555
H13 C16 1_555 1_555
H14 C16 1_555 1_555
C17 C14 1_555 1_555
C18 N3 1_555 1_555
H15 C18 1_555 1_555
C19 C5 1_555 1_555
H16 C19 1_555 1_555
O1 C14 1_555 1_555
H17 O1 1_555 1_555
C20 C1 1_555 1_555
H18 C20 1_555 1_555
C21 C9 1_555 1_555
H19 C21 1_555 1_555
H20 C21 1_555 1_555
C22 C9 1_555 1_555
H21 C22 1_555 1_555
C23 C17 1_555 1_555
H22 C23 1_555 1_555
C24 C10 1_555 1_555
H23 C24 1_555 1_555
C25 C19 1_555 1_555
H24 C25 1_555 1_555
C26 C24 1_555 1_555
H25 C26 1_555 1_555
Br2 Cu1 1_555 1_555
N5 Cu2 1_555 1_555
C27 N5 1_555 1_555
Cu3 Br2 1_555 1_555
C28 C22 1_555 1_555
H26 C28 1_555 1_555
C29 C28 1_555 1_555
H27 C29 1_555 1_555
H28 C29 1_555 1_555
Cu1A Br2 1_555 1_555
Cu2A N2A 1_555 1_555
Cu2C N4 1_555 1_555
Cu2C_2 C27 1_555 1_555
Cu2B N4A 1_555 1_555
Cu2C_3 N5C 1_555 1_555
Br1A Cu3 1_555 1_555
N1A C3A 1_555 1_555
N2A C4A 1_555 1_555
C1A C11A 1_555 1_555
N3A Cu1A 1_555 1_555
C2A C6A 1_555 1_555
C3A H1A 1_555 1_555
C4A Cu1A 1_555 1_555
C5A N3A 1_555 1_555
C6A H2A 1_555 1_555
C7A C2A 1_555 1_555
H3A C7A 1_555 1_555
C8A C2A 1_555 1_555
C9A H4A 1_555 1_555
C10A C5A 1_555 1_555
C11A N1A 1_555 1_555
H5A C11A 1_555 1_555
H6A C11A 1_555 1_555
C12A N1A 1_555 1_555
H7A C12A 1_555 1_555
H8A C12A 1_555 1_555
C13A N1A 1_555 1_555
H9A C13A 1_555 1_555
H10A C13A 1_555 1_555
C14A C3A 1_555 1_555
H11A C14A 1_555 1_555
N4A C8A 1_555 1_555
N4C Cu2 1_555 1_555
N4B Cu2A 1_555 1_555
C15A C1A 1_555 1_555
H12A C15A 1_555 1_555
C16A C3A 1_555 1_555
H13A C16A 1_555 1_555
H14A C16A 1_555 1_555
C17A C10A 1_555 1_555
C18A N3A 1_555 1_555
H15A C18A 1_555 1_555
C19A C5A 1_555 1_555
H16A C19A 1_555 1_555
O1A C14A 1_555 1_555
H17A O1A 1_555 1_555
C20A C1A 1_555 1_555
H18A C20A 1_555 1_555
C21A C9A 1_555 1_555
H19A C21A 1_555 1_555
H20A C21A 1_555 1_555
C22A C9A 1_555 1_555
H21A C22A 1_555 1_555
C23A C17A 1_555 1_555
H22A C23A 1_555 1_555
C24A C10A 1_555 1_555
H23A C24A 1_555 1_555
C25A C19A 1_555 1_555
H24A C25A 1_555 1_555
C26A C24A 1_555 1_555
H25A C26A 1_555 1_555
N5C C27C 1_555 1_555
N5A Cu2A 1_555 1_555
C27C Cu2 1_555 1_555
C27B Cu2A 1_555 1_555
C28A C22A 1_555 1_555
H26A C28A 1_555 1_555
C29A C28A 1_555 1_555
H27A C29A 1_555 1_555
H28A C29A 1_555 1_555
C6 C20 1_555 1_555
C7 C15 1_555 1_555
C9 C16 1_555 1_555
C12 C21 1_555 1_555
C13 C22 1_555 1_555
C18 C23 1_555 1_555
C25 C26 1_555 1_555
C6A C20A 1_555 1_555
C7A C15A 1_555 1_555
C9A C16A 1_555 1_555
C12A C21A 1_555 1_555
C13A C22A 1_555 1_555
C14A C17A 1_555 1_555
C18A C23A 1_555 1_555
C25A C26A 1_555 1_555

#END
