
#######################################################################
#
#                 Cambridge Crystallographic Data Centre
#                                CCDC 
#
#######################################################################
#
# If this CIF has been generated from an entry in the Cambridge 
# Structural Database, then it will include bibliographic, chemical, 
# crystal, experimental, refinement or atomic coordinate data resulting 
# from the CCDC's data processing and validation procedures.
#
#######################################################################

data_PIWHAG
_symmetry_cell_setting           triclinic
_symmetry_space_group_name_H-M   'P -1'
_symmetry_Int_Tables_number      2
_space_group_name_Hall           '-P 1'
loop_
_symmetry_equiv_pos_site_id
_symmetry_equiv_pos_as_xyz
1 x,y,z
2 -x,-y,-z
_cell_length_a                   13.270(5)
_cell_length_b                   15.060(5)
_cell_length_c                   21.186(5)
_cell_angle_alpha                91.802(5)
_cell_angle_beta                 103.098(5)
_cell_angle_gamma                112.440(5)
_cell_volume                     3778.68
loop_
_atom_site_label
_atom_site_type_symbol
_atom_site_fract_x
_atom_site_fract_y
_atom_site_fract_z
W1 W 0.17981(7) 0.87030(6) -1.93504(3)
W2 W 0.05527(7) 0.98134(6) -1.83870(3)
W3 W 0.43259(7) 1.00880(6) -1.84119(3)
W4 W 0.40404(7) 0.76127(6) -1.68866(3)
W5 W 0.28921(7) 0.86434(6) -1.60077(3)
W6 W 0.30532(7) 1.11864(6) -1.74239(3)
W7 W 0.48882(7) 1.00109(6) -1.66617(3)
W8 W 0.10196(7) 0.97619(6) -1.67980(3)
W9 W 0.12639(8) 0.61639(6) -1.79587(4)
W10 W 0.01117(7) 0.71352(6) -1.70541(4)
W11 W 0.35220(8) 0.76998(6) -1.86481(4)
W12 W -0.04580(8) 0.71768(6) -1.86539(4)
Co1 Co 0.2936(2) 0.77684(19) -1.43723(11)
Co2 Co 0.8027(2) 1.0299(2) -0.90971(11)
O1 O 0.6489(12) 1.0484(13) -0.9468(6)
O2 O -0.0386(12) 1.0199(10) -1.8866(6)
O3 O 0.1344(11) 0.8794(9) -2.0173(6)
O4 O 0.6157(11) 1.0888(9) -1.6269(5)
O5 O 0.1075(13) 0.4982(10) -1.8090(7)
O6 O 0.2945(10) 0.8589(9) -1.5186(6)
O7 O 0.1298(12) 0.9584(10) -1.8984(6)
O8 O 0.0363(11) 1.0063(10) -1.6270(6)
O9 O -0.0965(12) 0.6897(11) -1.7897(6)
O10 O -0.0035(13) 0.6091(10) -1.8618(6)
O11 O 0.2560(12) 0.7890(9) -1.9429(6)
O12 O 0.0374(13) 0.6042(10) -1.7341(6)
O13 O 0.4586(12) 0.8957(10) -1.8648(6)
O14 O 0.3614(11) 0.7776(10) -1.6101(6)
O15 O 0.4987(10) 1.0024(9) -1.7532(6)
O16 O -0.0783(12) 0.6601(12) -1.6591(6)
O17 O 0.3760(12) 1.2409(10) -1.7314(6)
O18 O -0.0310(12) 0.8494(10) -1.8505(6)
O19 O 0.2162(10) 0.9479(9) -1.6216(5)
O20 O 0.4078(11) 1.0798(9) -1.6833(6)
O21 O 0.2205(11) 0.6712(9) -1.8519(6)
O22 O 0.1759(10) 1.1066(9) -1.8097(5)
O23 O 0.4304(12) 0.9671(10) -1.5911(6)
O24 O 0.4191(12) 0.7721(9) -1.7751(5)
O25 O 0.5464(12) 1.0950(10) -1.8607(6)
O26 O 0.1218(11) 0.7708(9) -1.7776(6)
O27 O 0.3713(11) 1.0884(9) -1.8083(6)
O28 O 0.2759(10) 0.8773(9) -1.8272(5)
O29 O 0.0541(12) 0.7688(10) -1.9217(6)
O30 O 0.0138(10) 0.9951(9) -1.7589(5)
O31 O 0.2584(13) 0.6634(10) -1.7247(6)
O32 O 0.3243(10) 0.9773(9) -1.9223(5)
O33 O 0.0184(10) 0.8420(9) -1.6969(6)
O34 O 0.2160(11) 1.1028(9) -1.6808(6)
O35 O 0.5225(11) 0.8870(10) -1.6614(5)
O36 O 0.1502(12) 0.7611(9) -1.6398(6)
O37 O 0.4054(15) 0.7021(12) -1.9024(6)
O38 O -0.1725(12) 0.6676(11) -1.9231(7)
O39 O 0.4786(14) 0.6936(12) -1.6620(6)
O40 O 0.1871(10) 0.9490(9) -1.7615(5)
O41 O 0.3156(10) 0.8735(8) -1.7077(5)
C1 C -0.096(2) 0.3115(19) -1.8040(12)
H1 H -0.1021 0.3703 -1.7972
C2 C -0.2038(15) 0.8007(16) -1.4616(9)
H2 H -0.2086 0.7612 -1.4286
C3 C 0.662(3) 0.623(2) -0.6792(15)
H3 H 0.6850 0.6073 -0.6379
C4 C 0.593(3) 0.659(3) -0.8017(19)
H4 H 0.5702 0.6683 -0.8450
C5 C 0.673(2) 0.738(2) -0.7609(16)
C6 C 0.548(4) 0.580(4) -0.789(2)
C7 C 0.711(3) 0.717(3) -0.6932(16)
H5 H 0.7660 0.7653 -0.6612
C8 C 0.711(2) 0.913(2) -0.7405(14)
H6 H 0.6954 0.9177 -0.7002
C9 C -0.170(2) 0.2322(17) -1.8457(11)
H7 H -0.2396 0.2266 -1.8708
C10 C 0.736(2) 0.979(2) -0.7787(10)
H8 H 0.7427 1.0410 -0.7670
C11 C 0.065(3) 0.533(2) -1.5762(14)
H9 H -0.0078 0.4905 -1.5982
C12 C 0.742(2) 0.864(2) -0.8269(13)
H10 H 0.7547 0.8255 -0.8567
C13 C 0.420(2) 0.6535(17) -1.0566(12)
H11 H 0.4389 0.6579 -1.0112
C14 C 0.283(2) 0.399(2) -1.6775(12)
H12 H 0.3535 0.3999 -1.6780
C15 C 0.625(2) 0.8453(15) -0.9979(10)
H13 H 0.5695 0.8475 -0.9782
C16 C 0.7031(19) 0.8040(15) -1.0667(9)
H14 H 0.7144 0.7748 -1.1023
C17 C -0.1903(19) 0.9176(17) -1.5613(10)
H15 H -0.1852 0.9549 -1.5955
C18 C 0.1123(17) 0.7982(16) -1.3733(9)
H16 H 0.1503 0.7913 -1.3323
C19 C -0.433(2) 0.6995(17) -1.4478(11)
H17 H -0.4021 0.6532 -1.4476
C20 C 0.090(2) 0.6015(17) -1.5288(11)
H18 H 0.0381 0.6151 -1.5118
C21 C -0.526(2) 0.6926(18) -1.4272(11)
H19 H -0.5648 0.6433 -1.4055
C22 C 0.3435(17) 0.7210(15) -1.2915(8)
H20 H 0.3911 0.7843 -1.2732
C23 C -0.2853(19) 0.8868(16) -1.5414(10)
H21 H -0.3441 0.9046 -1.5600
C24 C 0.7818(18) 0.8736(15) -1.0215(9)
H22 H 0.8584 0.8995 -1.0198
C25 C -0.4736(16) 0.8249(14) -1.4677(9)
H23 H -0.4709 0.8829 -1.4828
C26 C -0.0963(17) 0.8952(15) -1.5317(9)
H24 H -0.0299 0.9198 -1.5450
C27 C -0.036(2) 0.1942(15) -1.8007(10)
H25 H 0.0072 0.1587 -1.7877
C28 C 0.1898(17) 0.3367(15) -1.7197(9)
H26 H 0.1936 0.2882 -1.7461
C29 C 0.0809(17) 0.4098(15) -1.6808(9)
H27 H 0.0117 0.4132 -1.6830
C30 C 0.319(2) 0.5872(16) -1.0896(10)
H28 H 0.2716 0.5451 -1.0675
C31 C 0.2362(18) 0.5980(16) -1.3593(9)
H29 H 0.1935 0.5590 -1.3987
C32 C 0.0893(18) 0.3431(15) -1.7244(9)
C33 C -0.2944(17) 0.8254(15) -1.4905(9)
C34 C 0.2413(17) 0.6064(14) -1.5445(9)
H30 H 0.3180 0.6241 -1.5404
C35 C 0.0679(18) 0.8068(15) -1.4742(9)
H31 H 0.0699 0.8095 -1.5177
C36 C 0.4622(15) 0.7115(13) -1.1534(9)
H32 H 0.5101 0.7536 -1.1752
C37 C 0.2743(18) 0.4656(15) -1.6313(10)
H33 H 0.3380 0.5053 -1.5990
C38 C 0.0203(16) 0.8154(14) -1.3851(9)
H34 H -0.0159 0.8243 -1.3541
C39 C 0.360(2) 0.6475(15) -1.1871(8)
C40 C -0.1058(16) 0.8377(15) -1.4842(9)
C41 C 0.4974(19) 0.7152(15) -1.0854(9)
C42 C 0.1768(17) 0.4709(14) -1.6341(9)
C43 C 0.286(2) 0.5818(14) -1.1558(9)
H35 H 0.2162 0.5360 -1.1797
C44 C 0.2496(17) 0.5637(15) -1.3013(9)
H36 H 0.2187 0.4999 -1.2931
C45 C 0.575(3) 0.552(3) -0.7287(16)
H37 H 0.5373 0.4891 -0.7205
N1 N -0.1299(15) 0.1604(12) -1.8471(7)
N2 N 0.2917(14) 0.6953(12) -1.3539(7)
N3 N 0.3199(12) 0.6453(11) -1.2567(7)
N4 N 0.6016(15) 0.7828(12) -1.0516(8)
N5 N 0.7334(15) 0.9033(12) -0.9759(7)
N6 N -0.3938(13) 0.7878(11) -1.4685(7)
N7 N 0.1445(13) 0.7918(11) -1.4293(7)
N8 N -0.0133(14) 0.8178(12) -1.4511(8)
N9 N 0.2046(12) 0.6501(11) -1.5079(7)
N10 N 0.1632(14) 0.5349(11) -1.5883(7)
N11 N 0.7142(18) 0.8360(16) -0.7744(9)
N12 N 0.751(2) 0.9544(15) -0.8347(8)
N13 N -0.0079(14) 0.2854(12) -1.7732(8)
N14 N -0.5531(13) 0.7689(11) -1.4434(7)
N15 N 0.446(3) 0.518(2) -0.8356(16)
C46 C 0.442(3) 0.490(2) -0.9000(18)
H38 H 0.5033 0.5043 -0.9177
N16 N 0.329(3) 0.438(2) -0.9331(13)
C47 C 0.263(3) 0.434(2) -0.8891(19)
H39 H 0.1852 0.4029 -0.8984
C48 C 0.336(3) 0.483(2) -0.8289(16)
H40 H 0.3147 0.4913 -0.7909
B1 B 0.2248(19) 0.8667(16) -1.7690(10)
Co1_2 Co -0.7064(2) 0.77684(19) -1.43723(11)
Co1A Co 0.7064(2) 1.22316(19) -1.56277(11)
Co2_2 Co -0.1973(2) 0.0299(2) -1.90971(11)
Co2_3 Co -0.1973(2) 1.0299(2) -1.90971(11)
Co2A Co 0.1973(2) 0.9701(2) -2.09029(11)
O2_2 O 0.9614(12) 1.0199(10) -0.8866(6)
O3A O 0.8656(11) 1.1206(9) -0.9827(6)
O4A O 0.3843(11) 0.9112(9) -1.3731(5)
N1_2 N 0.8701(15) 1.1604(12) -0.8471(7)
N14_2 N 0.4469(13) 0.7689(11) -1.4434(7)
loop_
_geom_bond_atom_site_label_1
_geom_bond_atom_site_label_2
_geom_bond_site_symmetry_1
_geom_bond_site_symmetry_2
W1 O3 1_555 1_555
W2 O2 1_555 1_555
W3 O13 1_555 1_555
W4 O14 1_555 1_555
W5 O6 1_555 1_555
W6 O17 1_555 1_555
W7 O4 1_555 1_555
W8 O8 1_555 1_555
W9 O5 1_555 1_555
W10 O9 1_555 1_555
W11 O11 1_555 1_555
W12 O9 1_555 1_555
Co1 O6 1_555 1_555
Co2 O1 1_555 1_555
O2 Co2_3 1_555 1_555
O3 Co2A 1_555 1_555
O4 Co1A 1_555 1_555
O7 W1 1_555 1_555
O10 W9 1_555 1_555
O11 W1 1_555 1_555
O12 W9 1_555 1_555
O13 W11 1_555 1_555
O14 W5 1_555 1_555
O15 W3 1_555 1_555
O16 W10 1_555 1_555
O18 W2 1_555 1_555
O19 W5 1_555 1_555
O20 W6 1_555 1_555
O21 W9 1_555 1_555
O22 W2 1_555 1_555
O23 W5 1_555 1_555
O24 W4 1_555 1_555
O25 W3 1_555 1_555
O26 W9 1_555 1_555
O27 W3 1_555 1_555
O28 W1 1_555 1_555
O29 W1 1_555 1_555
O30 W2 1_555 1_555
O31 W4 1_555 1_555
O32 W1 1_555 1_555
O33 W8 1_555 1_555
O34 W6 1_555 1_555
O35 W4 1_555 1_555
O36 W5 1_555 1_555
O37 W11 1_555 1_555
O38 W12 1_555 1_555
O39 W4 1_555 1_555
O40 W2 1_555 1_555
O41 W4 1_555 1_555
C1 H1 1_555 1_555
C2 H2 1_555 1_555
C3 H3 1_555 1_555
C4 H4 1_555 1_555
C5 C4 1_555 1_555
C6 C4 1_555 1_555
C7 C3 1_555 1_555
H5 C7 1_555 1_555
C8 H6 1_555 1_555
C9 C1 1_555 1_555
H7 C9 1_555 1_555
C10 C8 1_555 1_555
H8 C10 1_555 1_555
C11 H9 1_555 1_555
C12 H10 1_555 1_555
C13 H11 1_555 1_555
C14 H12 1_555 1_555
C15 H13 1_555 1_555
C16 H14 1_555 1_555
C17 H15 1_555 1_555
C18 H16 1_555 1_555
C19 H17 1_555 1_555
C20 C11 1_555 1_555
H18 C20 1_555 1_555
C21 C19 1_555 1_555
H19 C21 1_555 1_555
C22 H20 1_555 1_555
C23 C17 1_555 1_555
H21 C23 1_555 1_555
C24 C16 1_555 1_555
H22 C24 1_555 1_555
C25 H23 1_555 1_555
C26 C17 1_555 1_555
H24 C26 1_555 1_555
C27 H25 1_555 1_555
C28 C14 1_555 1_555
H26 C28 1_555 1_555
C29 H27 1_555 1_555
C30 C13 1_555 1_555
H28 C30 1_555 1_555
C31 H29 1_555 1_555
C32 C28 1_555 1_555
C33 C2 1_555 1_555
C34 H30 1_555 1_555
C35 H31 1_555 1_555
C36 H32 1_555 1_555
C37 C14 1_555 1_555
H33 C37 1_555 1_555
C38 C18 1_555 1_555
H34 C38 1_555 1_555
C39 C36 1_555 1_555
C40 C2 1_555 1_555
C41 C13 1_555 1_555
C42 C29 1_555 1_555
C43 C30 1_555 1_555
H35 C43 1_555 1_555
C44 C31 1_555 1_555
H36 C44 1_555 1_555
C45 C3 1_555 1_555
H37 C45 1_555 1_555
N1 C9 1_555 1_555
N2 Co1 1_555 1_555
N3 C22 1_555 1_555
N4 C15 1_555 1_555
N5 Co2 1_555 1_555
N6 C19 1_555 1_555
N7 Co1 1_555 1_555
N8 C35 1_555 1_555
N9 Co1 1_555 1_555
N10 C11 1_555 1_555
N11 C5 1_555 1_555
N12 Co2 1_555 1_555
N13 C1 1_555 1_555
N14 C21 1_555 1_555
N15 C6 1_555 1_555
C46 N15 1_555 1_555
H38 C46 1_555 1_555
N16 C46 1_555 1_555
C47 N16 1_555 1_555
H39 C47 1_555 1_555
C48 N15 1_555 1_555
H40 C48 1_555 1_555
B1 O26 1_555 1_555
Co1_2 N14 1_555 1_555
Co2_2 N1 1_555 1_555
O2_2 Co2 1_555 1_555
O3A Co2 1_555 1_555
O4A Co1 1_555 1_555
N1_2 Co2 1_555 1_555
N14_2 Co1 1_555 1_555
W2 O7 1_555 1_555
W3 O28 1_555 1_555
W3 O32 1_555 1_555
W5 O41 1_555 1_555
W6 O22 1_555 1_555
W6 O27 1_555 1_555
W6 O40 1_555 1_555
W7 O15 1_555 1_555
W7 O20 1_555 1_555
W7 O23 1_555 1_555
W7 O35 1_555 1_555
W7 O41 1_555 1_555
W8 O19 1_555 1_555
W8 O30 1_555 1_555
W8 O34 1_555 1_555
W8 O40 1_555 1_555
W9 O31 1_555 1_555
W10 O12 1_555 1_555
W10 O26 1_555 1_555
W10 O33 1_555 1_555
W10 O36 1_555 1_555
W11 O21 1_555 1_555
W11 O24 1_555 1_555
W11 O28 1_555 1_555
W12 O10 1_555 1_555
W12 O18 1_555 1_555
W12 O26 1_555 1_555
W12 O29 1_555 1_555
O28 B1 1_555 1_555
O40 B1 1_555 1_555
O41 B1 1_555 1_555
C5 C7 1_555 1_555
C6 C45 1_555 1_555
C8 N11 1_555 1_555
C10 N12 1_555 1_555
C12 N11 1_555 1_555
C12 N12 1_555 1_555
C15 N5 1_555 1_555
C16 N4 1_555 1_555
C18 N7 1_555 1_555
C20 N9 1_555 1_555
C22 N2 1_555 1_555
C23 C33 1_555 1_555
C24 N5 1_555 1_555
C25 N6 1_555 1_555
C25 N14 1_555 1_555
C26 C40 1_555 1_555
C27 N1 1_555 1_555
C27 N13 1_555 1_555
C29 C32 1_555 1_555
C31 N2 1_555 1_555
C32 N13 1_555 1_555
C33 N6 1_555 1_555
C34 N9 1_555 1_555
C34 N10 1_555 1_555
C35 N7 1_555 1_555
C36 C41 1_555 1_555
C37 C42 1_555 1_555
C38 N8 1_555 1_555
C39 C43 1_555 1_555
C39 N3 1_555 1_555
C40 N8 1_555 1_555
C41 N4 1_555 1_555
C42 N10 1_555 1_555
C44 N3 1_555 1_555
C47 C48 1_555 1_555

#END
