
#######################################################################
#
#                 Cambridge Crystallographic Data Centre
#                                CCDC 
#
#######################################################################
#
# If this CIF has been generated from an entry in the Cambridge 
# Structural Database, then it will include bibliographic, chemical, 
# crystal, experimental, refinement or atomic coordinate data resulting 
# from the CCDC's data processing and validation procedures.
#
#######################################################################

data_PIWLAJ
_symmetry_cell_setting           monoclinic
_symmetry_space_group_name_H-M   'P 2/c'
_symmetry_Int_Tables_number      13
_space_group_name_Hall           '-P 2yc'
loop_
_symmetry_equiv_pos_site_id
_symmetry_equiv_pos_as_xyz
1 x,y,z
2 -x,y,1/2-z
3 -x,-y,-z
4 x,-y,1/2+z
_cell_length_a                   19.9887(15)
_cell_length_b                   6.9605(8)
_cell_length_c                   14.3162(15)
_cell_angle_alpha                90
_cell_angle_beta                 110.304(13)
_cell_angle_gamma                90
_cell_volume                     1868.07
loop_
_atom_site_label
_atom_site_type_symbol
_atom_site_fract_x
_atom_site_fract_y
_atom_site_fract_z
As1 As 0.31186(4) 0.30434(9) 0.77699(5)
Na1 Na 0.50001(16) -0.0168(4) 0.8736(2)
Na2 Na 0.30916(18) -0.1810(4) 0.9704(3)
Se1 Se 0.33085(4) -0.02089(10) 0.78580(6)
Se2 Se 0.34634(4) 0.45542(10) 0.65938(6)
Se3 Se 0.35411(5) 0.44369(11) 0.93174(6)
O1 O 0.5103(3) 0.2255(7) 1.0017(4)
H1 H 0.5564 0.2918 1.0225
H2 H 0.4715 0.3197 0.9805
O2 O 0.5000 -0.2609(10) 0.7500
H3 H 0.467(3) -0.335(10) 0.716(6)
O3 O 0.5000 0.2029(11) 0.7500
H4 H 0.541(2) 0.252(12) 0.774(7)
O4 O 0.6292(3) -0.0538(8) 0.9247(4)
H5 H 0.6427 -0.1785 0.9576
H6 H 0.6428 -0.0538 0.8652
O5 O 0.1938(4) -0.1114(11) 0.9486(6)
C1 C 0.2088(4) 0.3515(11) 0.7358(6)
C2 C 0.1626(5) 0.2042(14) 0.7360(8)
H7 H 0.1802 0.0800 0.7559
C3 C 0.0901(6) 0.2411(18) 0.7065(11)
H8 H 0.0582 0.1417 0.7063
C4 C 0.0648(5) 0.4234(19) 0.6775(10)
H9 H 0.0157 0.4484 0.6578
C5 C 0.1109(6) 0.5684(17) 0.6773(10)
H10 H 0.0931 0.6925 0.6574
C6 C 0.1828(5) 0.5341(13) 0.7057(9)
H11 H 0.2142 0.6341 0.7048
C7 C 0.1757(6) 0.051(2) 0.9900(10)
H12 H 0.2013 0.0538 1.0621
H13 H 0.1878 0.1671 0.9606
C8 C 0.0967(8) 0.041(3) 0.9681(17)
H14 H 0.0719 0.1423 0.9213
H15 H 0.0857 0.0548 1.0293
C9 C 0.0750(8) -0.154(3) 0.9229(14)
H16 H 0.0502 -0.1438 0.8508
H17 H 0.0434 -0.2175 0.9526
C10 C 0.1420(7) -0.260(2) 0.9451(10)
H18 H 0.1388 -0.3544 0.8927
H19 H 0.1545 -0.3272 1.0091
As1_2 As 0.31186(4) -0.69566(9) 0.77699(5)
Na1B Na 0.49999(16) 0.0168(4) 1.1264(2)
Na1A Na 0.49999(16) -0.0168(4) 0.6264(2)
Na1_2 Na 0.50001(16) -1.0168(4) 0.8736(2)
Na2_2 Na 0.30916(18) 0.8190(4) 0.9704(3)
Na2B Na 0.69084(18) 0.1810(4) 1.0296(3)
Na2_3 Na 0.30916(18) -1.1810(4) 0.9704(3)
Se1_2 Se 0.33085(4) -1.02089(10) 0.78580(6)
Se1B Se 0.66915(4) 0.02089(10) 1.21420(6)
Se1_3 Se 0.33085(4) 0.97911(10) 0.78580(6)
Se2_2 Se 0.34634(4) -0.54458(10) 0.65938(6)
Se3_2 Se 0.35411(5) -0.55631(11) 0.93174(6)
O1B O 0.4897(3) -0.2255(7) 0.9983(4)
H1B H 0.4436 -0.2918 0.9775
H2B H 0.5285 -0.3197 1.0195
O2C O 0.5000 0.2609(10) 1.2500
H3A H 0.533(3) -0.335(10) 0.784(6)
H3C H 0.467(3) 0.335(10) 1.216(6)
H3B H 0.533(3) 0.335(10) 1.284(6)
O3C O 0.5000 -0.2029(11) 1.2500
H4A H 0.459(2) 0.252(12) 0.726(7)
H4C H 0.541(2) -0.252(12) 1.274(7)
H4B H 0.459(2) -0.252(12) 1.226(7)
O4B O 0.3708(3) 0.0538(8) 1.0753(4)
O4B_2 O 0.3708(3) 1.0538(8) 1.0753(4)
H5B H 0.3573 0.1785 1.0424
H5B_2 H 0.3573 1.1785 1.0424
H6B H 0.3572 0.0538 1.1348
H6B_2 H 0.3572 1.0538 1.1348
O5_2 O 0.1938(4) 0.8886(11) 0.9486(6)
C1_2 C 0.2088(4) -0.6485(11) 0.7358(6)
C2_2 C 0.1626(5) -0.7958(14) 0.7360(8)
H7_2 H 0.1802 -0.9200 0.7559
C3_2 C 0.0901(6) -0.7589(18) 0.7065(11)
H8_2 H 0.0582 -0.8583 0.7063
C4_2 C 0.0648(5) -0.5766(19) 0.6775(10)
H9_2 H 0.0157 -0.5516 0.6578
C5_2 C 0.1109(6) -0.4316(17) 0.6773(10)
H10_2 H 0.0931 -0.3075 0.6574
C6_2 C 0.1828(5) -0.4659(13) 0.7057(9)
H11_2 H 0.2142 -0.3659 0.7048
C7_2 C 0.1757(6) 1.051(2) 0.9900(10)
H12_2 H 0.2013 1.0538 1.0621
H13_2 H 0.1878 1.1671 0.9606
C8_2 C 0.0967(8) 1.041(3) 0.9681(17)
H14_2 H 0.0719 1.1423 0.9213
H15_2 H 0.0857 1.0548 1.0293
C9_2 C 0.0750(8) 0.846(3) 0.9229(14)
H16_2 H 0.0502 0.8562 0.8508
H17_2 H 0.0434 0.7825 0.9526
C10_2 C 0.1420(7) 0.740(2) 0.9451(10)
H18_2 H 0.1388 0.6456 0.8927
H19_2 H 0.1545 0.6728 1.0091
loop_
_geom_bond_atom_site_label_1
_geom_bond_atom_site_label_2
_geom_bond_site_symmetry_1
_geom_bond_site_symmetry_2
As1 Se1 1_555 1_555
Na1 Se1 1_555 1_555
Na2 Se1 1_555 1_555
Se2 As1 1_555 1_555
Se3 As1 1_555 1_555
O1 Na1 1_555 1_555
H1 O1 1_555 1_555
H2 O1 1_555 1_555
O2 Na1 1_555 1_555
H3 O2 1_555 1_555
O3 Na1 1_555 1_555
H4 O3 1_555 1_555
O4 Na1 1_555 1_555
H5 O4 1_555 1_555
H6 O4 1_555 1_555
O5 Na2 1_555 1_555
C1 As1 1_555 1_555
C2 C1 1_555 1_555
H7 C2 1_555 1_555
C3 C2 1_555 1_555
H8 C3 1_555 1_555
C4 C3 1_555 1_555
H9 C4 1_555 1_555
C5 C4 1_555 1_555
H10 C5 1_555 1_555
C6 C1 1_555 1_555
H11 C6 1_555 1_555
C7 O5 1_555 1_555
H12 C7 1_555 1_555
H13 C7 1_555 1_555
C8 C7 1_555 1_555
H14 C8 1_555 1_555
H15 C8 1_555 1_555
C9 C8 1_555 1_555
H16 C9 1_555 1_555
H17 C9 1_555 1_555
C10 O5 1_555 1_555
H18 C10 1_555 1_555
H19 C10 1_555 1_555
As1_2 Se1_2 1_555 1_555
Na1B O1 1_555 1_555
Na1A O2 1_555 1_555
Na1_2 Se1_2 1_555 1_555
Na2_2 Se3 1_555 1_555
Na2B O4 1_555 1_555
Na2_3 Se1_2 1_555 1_555
Se1B Na1B 1_555 1_555
Se1_3 Na2_2 1_555 1_555
Se2_2 As1_2 1_555 1_555
Se3_2 Na2 1_555 1_555
O1B Na1 1_555 1_555
H1B O1B 1_555 1_555
H2B O1B 1_555 1_555
O2C Na1B 1_555 1_555
H3A O2 1_555 1_555
H3C O2C 1_555 1_555
H3B O2C 1_555 1_555
O3C Na1B 1_555 1_555
H4A O3 1_555 1_555
H4C O3C 1_555 1_555
H4B O3C 1_555 1_555
O4B Na2 1_555 1_555
O4B_2 Na2_2 1_555 1_555
H5B O4B 1_555 1_555
H5B_2 O4B_2 1_555 1_555
H6B O4B 1_555 1_555
H6B_2 O4B_2 1_555 1_555
O5_2 Na2_2 1_555 1_555
C1_2 As1_2 1_555 1_555
C2_2 C1_2 1_555 1_555
H7_2 C2_2 1_555 1_555
C3_2 C2_2 1_555 1_555
H8_2 C3_2 1_555 1_555
C4_2 C3_2 1_555 1_555
H9_2 C4_2 1_555 1_555
C5_2 C4_2 1_555 1_555
H10_2 C5_2 1_555 1_555
C6_2 C1_2 1_555 1_555
H11_2 C6_2 1_555 1_555
C7_2 O5_2 1_555 1_555
H12_2 C7_2 1_555 1_555
H13_2 C7_2 1_555 1_555
C8_2 C7_2 1_555 1_555
H14_2 C8_2 1_555 1_555
H15_2 C8_2 1_555 1_555
C9_2 C8_2 1_555 1_555
H16_2 C9_2 1_555 1_555
H17_2 C9_2 1_555 1_555
C10_2 O5_2 1_555 1_555
H18_2 C10_2 1_555 1_555
H19_2 C10_2 1_555 1_555
O3 Na1A 1_555 1_555
C5 C6 1_555 1_555
C9 C10 1_555 1_555
As1_2 Se3_2 1_555 1_555
Na1B O1B 1_555 1_555
Na1B O4B 1_555 1_555
Na2B Se1B 1_555 1_555
C5_2 C6_2 1_555 1_555
C9_2 C10_2 1_555 1_555

#END
