
#######################################################################
#
#                 Cambridge Crystallographic Data Centre
#                                CCDC 
#
#######################################################################
#
# If this CIF has been generated from an entry in the Cambridge 
# Structural Database, then it will include bibliographic, chemical, 
# crystal, experimental, refinement or atomic coordinate data resulting 
# from the CCDC's data processing and validation procedures.
#
#######################################################################

data_PIWNOA
_symmetry_cell_setting           triclinic
_symmetry_space_group_name_H-M   'P -1'
_symmetry_Int_Tables_number      2
_space_group_name_Hall           '-P 1'
loop_
_symmetry_equiv_pos_site_id
_symmetry_equiv_pos_as_xyz
1 x,y,z
2 -x,-y,-z
_cell_length_a                   10.142(2)
_cell_length_b                   11.524(2)
_cell_length_c                   11.819(2)
_cell_angle_alpha                85.816(15)
_cell_angle_beta                 88.121(17)
_cell_angle_gamma                77.469(17)
_cell_volume                     1344.66
loop_
_atom_site_label
_atom_site_type_symbol
_atom_site_fract_x
_atom_site_fract_y
_atom_site_fract_z
Zn1 Zn 0.43077(8) 0.12611(7) 0.34066(8)
C1 C 0.2786(7) 0.3076(6) 0.1656(6)
H1 H 0.1982 0.2821 0.1786
C2 C 0.4795(8) 0.3216(7) 0.1655(6)
H2 H 0.5712 0.3046 0.1810
C3 C 0.1859(8) 0.4967(6) 0.0475(7)
H3 H 0.0984 0.4904 0.0798
H4 H 0.1859 0.4823 -0.0323
C4 C 0.2058(9) 0.6203(6) 0.0587(8)
H5 H 0.2871 0.6301 0.0169
H6 H 0.2191 0.6306 0.1379
C5 C 0.0883(9) 0.7157(7) 0.0153(8)
H7 H 0.0726 0.7033 -0.0630
H8 H 0.0078 0.7080 0.0592
C6 C 0.1104(9) 0.8391(7) 0.0218(8)
H9 H 0.1828 0.8500 -0.0308
H10 H 0.1400 0.8468 0.0976
C7 C -0.0122(9) 0.9376(6) -0.0044(8)
H11 H -0.0852 0.9265 0.0476
H12 H -0.0412 0.9310 -0.0806
C8 C 0.4878(7) 0.2254(6) 0.5573(6)
H13 H 0.5492 0.1563 0.5811
C9 C 0.3428(8) 0.3529(6) 0.4680(7)
H14 H 0.2807 0.3879 0.4127
C10 C 0.5166(8) 0.3521(7) 0.7161(6)
H15 H 0.5432 0.4282 0.7061
H16 H 0.5963 0.2915 0.7359
C11 C 0.4136(9) 0.3564(7) 0.8116(6)
H17 H 0.4475 0.3875 0.8762
H18 H 0.3315 0.4120 0.7879
C12 C 0.3784(8) 0.2390(7) 0.8497(7)
H19 H 0.3515 0.2046 0.7839
H20 H 0.3010 0.2540 0.9011
C13 C 0.4901(10) 0.1487(8) 0.9079(7)
H21 H 0.5305 0.1878 0.9634
H22 H 0.5595 0.1200 0.8521
C14 C 0.4440(9) 0.0426(7) 0.9673(7)
H23 H 0.4100 -0.0004 0.9112
H24 H 0.3702 0.0712 1.0194
C15 C 0.0791(6) -0.0041(6) 0.3531(5)
C16 C 0.1135(6) -0.1267(6) 0.3599(5)
H25 H 0.2035 -0.1666 0.3634
C17 C 0.0102(6) -0.1902(6) 0.3613(6)
C18 C -0.1238(6) -0.1313(6) 0.3584(6)
H26 H -0.1916 -0.1743 0.3617
C19 C -0.1569(6) -0.0073(5) 0.3505(5)
C20 C -0.0553(6) 0.0558(6) 0.3477(5)
H27 H -0.0769 0.1386 0.3421
C21 C 0.1895(7) 0.0683(6) 0.3496(6)
C22 C 0.0513(8) -0.3235(7) 0.3606(7)
C23 C -0.3025(6) 0.0613(6) 0.3438(6)
N1 N 0.3973(5) 0.2515(5) 0.2059(5)
N2 N 0.4219(7) 0.4158(6) 0.1028(5)
N3 N 0.2912(6) 0.4048(5) 0.1045(5)
N4 N 0.4127(5) 0.2373(5) 0.4670(5)
N5 N 0.4635(6) 0.3258(5) 0.6095(5)
N6 N 0.3694(7) 0.4099(5) 0.5520(6)
O1 O 0.3109(4) 0.0124(4) 0.3453(4)
O2 O 0.1556(5) 0.1776(4) 0.3496(4)
O3 O -0.3254(5) 0.1702(5) 0.3306(6)
O4 O -0.3971(4) 0.0057(4) 0.3494(4)
O5 O -0.0509(6) -0.3754(5) 0.3567(8)
O6 O 0.1672(6) -0.3783(5) 0.3619(7)
H28 H -0.026(12) -0.449(4) 0.347(10)
C1A C -0.2786(7) 1.6924(6) -0.1656(6)
H1A H -0.1982 1.7179 -0.1786
C2A C -0.4795(8) 1.6784(7) -0.1655(6)
H2A H -0.5712 1.6954 -0.1810
C3A C -0.1859(8) 1.5033(6) -0.0475(7)
H3A H -0.0984 1.5096 -0.0798
H4A H -0.1859 1.5177 0.0323
C4A C -0.2058(9) 1.3797(6) -0.0587(8)
H5A H -0.2871 1.3699 -0.0169
H6A H -0.2191 1.3694 -0.1379
C5A C -0.0883(9) 1.2843(7) -0.0153(8)
H7A H -0.0726 1.2967 0.0630
H8A H -0.0078 1.2920 -0.0592
C6A C -0.1104(9) 1.1609(7) -0.0218(8)
H9A H -0.1828 1.1500 0.0308
H10A H -0.1400 1.1532 -0.0976
C7A C 0.0122(9) 1.0624(6) 0.0044(8)
H11A H 0.0852 1.0735 -0.0476
H12A H 0.0412 1.0690 0.0806
N1A N -0.3973(5) 1.7485(5) -0.2059(5)
N2A N -0.4219(7) 1.5842(6) -0.1028(5)
N3A N -0.2912(6) 1.5952(5) -0.1045(5)
C8A C 0.5122(7) -0.2254(6) 1.4427(6)
H13A H 0.4508 -0.1563 1.4189
C9A C 0.6572(8) -0.3529(6) 1.5320(7)
H14A H 0.7193 -0.3879 1.5873
C10A C 0.4834(8) -0.3521(7) 1.2839(6)
H15A H 0.4568 -0.4282 1.2939
H16A H 0.4037 -0.2915 1.2641
C11A C 0.5864(9) -0.3564(7) 1.1884(6)
H17A H 0.5525 -0.3875 1.1238
H18A H 0.6685 -0.4120 1.2121
C12A C 0.6216(8) -0.2390(7) 1.1503(7)
H19A H 0.6485 -0.2046 1.2161
H20A H 0.6990 -0.2540 1.0989
C13A C 0.5099(10) -0.1487(8) 1.0921(7)
H21A H 0.4695 -0.1878 1.0366
H22A H 0.4405 -0.1200 1.1479
C14A C 0.5560(9) -0.0426(7) 1.0327(7)
H23A H 0.5900 0.0004 1.0888
H24A H 0.6298 -0.0712 0.9806
N4A N 0.5873(5) -0.2373(5) 1.5330(5)
N5A N 0.5365(6) -0.3258(5) 1.3905(5)
N6A N 0.6306(7) -0.4099(5) 1.4480(6)
Zn1A Zn -0.43077(8) 1.87389(7) -0.34066(8)
C15A C -0.0791(6) 2.0041(6) -0.3531(5)
C16A C -0.1135(6) 2.1267(6) -0.3599(5)
H25A H -0.2035 2.1666 -0.3634
C17A C -0.0102(6) 2.1902(6) -0.3613(6)
C18A C 0.1238(6) 2.1313(6) -0.3584(6)
H26A H 0.1916 2.1743 -0.3617
C19A C 0.1569(6) 2.0073(5) -0.3505(5)
C20A C 0.0553(6) 1.9442(6) -0.3477(5)
H27A H 0.0769 1.8614 -0.3421
C21A C -0.1895(7) 1.9317(6) -0.3496(6)
C22A C -0.0513(8) 2.3235(7) -0.3606(7)
C23A C 0.3025(6) 1.9387(6) -0.3438(6)
O1A O -0.3109(4) 1.9876(4) -0.3453(4)
O2A O -0.1556(5) 1.8224(4) -0.3496(4)
O3A O 0.3254(5) 1.8298(5) -0.3306(6)
O4A O 0.3971(4) 1.9943(4) -0.3494(4)
O5A O 0.0509(6) 2.3754(5) -0.3567(8)
O6A O -0.1672(6) 2.3783(5) -0.3619(7)
H28A H 0.026(12) 2.449(4) -0.347(10)
Zn1_2 Zn -0.56923(8) 0.12611(7) 0.34066(8)
Zn1A_2 Zn 0.56923(8) -0.12611(7) 1.65934(8)
Zn1A_3 Zn 0.56923(8) 1.87389(7) -0.34066(8)
N4A_2 N -0.4127(5) 1.7627(5) -0.4670(5)
O4_2 O 0.6029(4) 0.0057(4) 0.3494(4)
O4A_2 O -0.6029(4) 1.9943(4) -0.3494(4)
O7 O -0.0077(9) -0.5965(5) 0.3036(8)
H29 H 0.028(12) -0.666(5) 0.283(8)
H30 H -0.011(14) -0.610(10) 0.377(3)
O8 O -0.2579(8) 0.3825(6) 0.3309(8)
H31 H -0.191(9) 0.328(8) 0.310(8)
H32 H -0.270(12) 0.356(10) 0.402(4)
loop_
_geom_bond_atom_site_label_1
_geom_bond_atom_site_label_2
_geom_bond_site_symmetry_1
_geom_bond_site_symmetry_2
Zn1 N1 1_555 1_555
C1 H1 1_555 1_555
C2 H2 1_555 1_555
C3 H3 1_555 1_555
H4 C3 1_555 1_555
C4 C3 1_555 1_555
H5 C4 1_555 1_555
H6 C4 1_555 1_555
C5 C4 1_555 1_555
H7 C5 1_555 1_555
H8 C5 1_555 1_555
C6 C5 1_555 1_555
H9 C6 1_555 1_555
H10 C6 1_555 1_555
C7 C6 1_555 1_555
H11 C7 1_555 1_555
H12 C7 1_555 1_555
C8 H13 1_555 1_555
C9 H14 1_555 1_555
C10 H15 1_555 1_555
H16 C10 1_555 1_555
C11 C10 1_555 1_555
H17 C11 1_555 1_555
H18 C11 1_555 1_555
C12 C11 1_555 1_555
H19 C12 1_555 1_555
H20 C12 1_555 1_555
C13 C12 1_555 1_555
H21 C13 1_555 1_555
H22 C13 1_555 1_555
C14 C13 1_555 1_555
H23 C14 1_555 1_555
H24 C14 1_555 1_555
C15 C16 1_555 1_555
C16 H25 1_555 1_555
C17 C16 1_555 1_555
C18 C17 1_555 1_555
H26 C18 1_555 1_555
C19 C18 1_555 1_555
C20 C15 1_555 1_555
H27 C20 1_555 1_555
C21 C15 1_555 1_555
C22 C17 1_555 1_555
C23 C19 1_555 1_555
N1 C1 1_555 1_555
N2 C2 1_555 1_555
N3 C1 1_555 1_555
N4 Zn1 1_555 1_555
N5 C8 1_555 1_555
N6 C9 1_555 1_555
O1 Zn1 1_555 1_555
O2 C21 1_555 1_555
O3 C23 1_555 1_555
O4 C23 1_555 1_555
O5 C22 1_555 1_555
O6 C22 1_555 1_555
H28 O5 1_555 1_555
O7 H29 1_555 1_555
H30 O7 1_555 1_555
O8 H31 1_555 1_555
H32 O8 1_555 1_555
C1A H1A 1_555 1_555
C2A H2A 1_555 1_555
C3A H3A 1_555 1_555
H4A C3A 1_555 1_555
C4A C3A 1_555 1_555
H5A C4A 1_555 1_555
H6A C4A 1_555 1_555
C5A C4A 1_555 1_555
H7A C5A 1_555 1_555
H8A C5A 1_555 1_555
C6A C5A 1_555 1_555
H9A C6A 1_555 1_555
H10A C6A 1_555 1_555
C7A C7 1_555 1_555
H11A C7A 1_555 1_555
H12A C7A 1_555 1_555
N1A C1A 1_555 1_555
N2A C2A 1_555 1_555
N3A C1A 1_555 1_555
C8A H13A 1_555 1_555
C9A H14A 1_555 1_555
C10A H15A 1_555 1_555
H16A C10A 1_555 1_555
C11A C10A 1_555 1_555
H17A C11A 1_555 1_555
H18A C11A 1_555 1_555
C12A C11A 1_555 1_555
H19A C12A 1_555 1_555
H20A C12A 1_555 1_555
C13A C12A 1_555 1_555
H21A C13A 1_555 1_555
H22A C13A 1_555 1_555
C14A C14 1_555 1_555
H23A C14A 1_555 1_555
H24A C14A 1_555 1_555
N4A C8A 1_555 1_555
N5A C8A 1_555 1_555
N6A C9A 1_555 1_555
Zn1A N1A 1_555 1_555
C15A C16A 1_555 1_555
C16A H25A 1_555 1_555
C17A C16A 1_555 1_555
C18A C17A 1_555 1_555
H26A C18A 1_555 1_555
C19A C18A 1_555 1_555
C20A C15A 1_555 1_555
H27A C20A 1_555 1_555
C21A C15A 1_555 1_555
C22A C17A 1_555 1_555
C23A C19A 1_555 1_555
O1A Zn1A 1_555 1_555
O2A C21A 1_555 1_555
O3A C23A 1_555 1_555
O4A C23A 1_555 1_555
O5A C22A 1_555 1_555
O6A C22A 1_555 1_555
H28A O5A 1_555 1_555
Zn1_2 O4 1_555 1_555
Zn1A_2 N4A 1_555 1_555
Zn1A_3 O4A 1_555 1_555
N4A_2 Zn1A 1_555 1_555
O4_2 Zn1 1_555 1_555
O4A_2 Zn1A 1_555 1_555
C2 N1 1_555 1_555
C3 N3 1_555 1_555
C8 N4 1_555 1_555
C9 N4 1_555 1_555
C10 N5 1_555 1_555
C19 C20 1_555 1_555
C21 O1 1_555 1_555
N2 N3 1_555 1_555
N5 N6 1_555 1_555
C2A N1A 1_555 1_555
C3A N3A 1_555 1_555
C6A C7A 1_555 1_555
N2A N3A 1_555 1_555
C9A N4A 1_555 1_555
C10A N5A 1_555 1_555
C13A C14A 1_555 1_555
N5A N6A 1_555 1_555
C19A C20A 1_555 1_555
C21A O1A 1_555 1_555

#END
