
#######################################################################
#
#                 Cambridge Crystallographic Data Centre
#                                CCDC 
#
#######################################################################
#
# If this CIF has been generated from an entry in the Cambridge 
# Structural Database, then it will include bibliographic, chemical, 
# crystal, experimental, refinement or atomic coordinate data resulting 
# from the CCDC's data processing and validation procedures.
#
#######################################################################

data_PIWQIX
_symmetry_cell_setting           triclinic
_symmetry_space_group_name_H-M   'P -1'
_symmetry_Int_Tables_number      2
_space_group_name_Hall           '-P 1'
loop_
_symmetry_equiv_pos_site_id
_symmetry_equiv_pos_as_xyz
1 x,y,z
2 -x,-y,-z
_cell_length_a                   11.8653(11)
_cell_length_b                   17.3600(16)
_cell_length_c                   17.9132(16)
_cell_angle_alpha                74.3680(10)
_cell_angle_beta                 88.4170(10)
_cell_angle_gamma                86.1580(10)
_cell_volume                     3545.15
loop_
_atom_site_label
_atom_site_type_symbol
_atom_site_fract_x
_atom_site_fract_y
_atom_site_fract_z
C1 C 0.0167(6) -0.0968(4) 1.0152(4)
C2 C -0.3362(6) -0.0463(4) 0.9980(4)
C3 C 0.6447(6) 0.1879(4) 1.0079(4)
C4 C 0.9466(5) 0.3479(4) 1.0158(3)
C5 C 0.7341(5) 0.4945(4) 0.0112(3)
C6 C 0.4308(5) 0.3356(4) -0.0159(3)
C7 C 0.7743(5) 0.2797(4) 0.7623(3)
H1 H 0.8504 0.2625 0.7647
C8 C 0.7273(5) 0.3130(4) 0.6904(3)
H2 H 0.7715 0.3194 0.6457
C9 C 0.6145(5) 0.3365(3) 0.6854(3)
C10 C 0.5534(6) 0.3259(5) 0.7530(4)
H3 H 0.4761 0.3393 0.7518
C11 C 0.6071(6) 0.2951(5) 0.8230(4)
H4 H 0.5650 0.2910 0.8684
C12 C 0.5622(5) 0.3791(3) 0.6091(3)
C13 C 0.0616(7) -0.0277(5) 0.8232(4)
H5 H 0.0938 -0.0713 0.8603
C14 C 0.1106(7) -0.0072(4) 0.7495(4)
H6 H 0.1744 -0.0364 0.7382
C15 C 0.0641(5) 0.0563(3) 0.6938(3)
C16 C -0.0298(5) 0.0981(4) 0.7130(4)
H7 H -0.0637 0.1416 0.6766
C17 C -0.0721(5) 0.0741(4) 0.7871(4)
H8 H -0.1354 0.1031 0.7995
C18 C 0.1173(5) 0.0802(3) 0.6139(3)
C19 C 0.4107(6) 0.0739(6) 0.8065(4)
H9 H 0.3384 0.0734 0.8280
C20 C 0.4230(6) 0.0636(5) 0.7329(4)
H10 H 0.3599 0.0593 0.7050
C21 C 0.5292(5) 0.0599(4) 0.7011(3)
C22 C 0.6187(5) 0.0694(4) 0.7444(4)
H11 H 0.6920 0.0672 0.7251
C23 C 0.5992(6) 0.0823(5) 0.8167(4)
H12 H 0.6606 0.0898 0.8446
C24 C 0.5483(5) 0.0410(3) 0.6243(3)
C25 C 0.7483(5) 0.2080(4) 1.2212(3)
H13 H 0.8246 0.2161 1.2117
C26 C 0.7139(5) 0.1741(4) 1.2961(4)
H14 H 0.7668 0.1587 1.3356
C27 C 0.6027(5) 0.1629(3) 1.3127(3)
C28 C 0.5278(5) 0.1878(5) 1.2525(4)
H15 H 0.4506 0.1830 1.2615
C29 C 0.5690(6) 0.2201(5) 1.1784(4)
H16 H 0.5176 0.2358 1.1381
C30 C 0.5619(5) 0.1204(3) 1.3930(3)
C31 C -0.0289(7) 0.4661(5) 0.1926(4)
H17 H -0.0880 0.4418 0.1768
C32 C 0.0039(6) 0.4383(5) 0.2692(4)
H18 H -0.0340 0.3980 0.3035
C33 C 0.0933(5) 0.4713(4) 0.2937(3)
C34 C 0.1474(7) 0.5286(5) 0.2380(4)
H19 H 0.2114 0.5502 0.2509
C35 C 0.1069(7) 0.5537(5) 0.1635(4)
H20 H 0.1441 0.5931 0.1275
C36 C 0.1379(5) 0.4442(3) 0.3748(3)
C37 C 0.6644(6) 0.4174(4) 0.1909(4)
H21 H 0.7337 0.4071 0.1688
C38 C 0.6632(5) 0.4207(4) 0.2664(4)
H22 H 0.7300 0.4130 0.2940
C39 C 0.5618(5) 0.4355(3) 0.3011(3)
C40 C 0.4653(5) 0.4431(4) 0.2581(4)
H23 H 0.3950 0.4504 0.2803
C41 C 0.4732(6) 0.4400(5) 0.1816(4)
H24 H 0.4073 0.4465 0.1530
C42 C 0.5601(5) 0.4503(3) 0.3798(3)
C43 C 0.2431(8) 0.3015(5) 0.1380(4)
H25 H 0.2501 0.3534 0.1071
C44 C 0.2239(7) 0.2909(4) 0.2159(4)
H26 H 0.2175 0.3348 0.2365
C45 C 0.2142(5) 0.2147(4) 0.2632(3)
C46 C 0.2240(6) 0.1527(4) 0.2286(4)
H27 H 0.2177 0.1003 0.2585
C47 C 0.2430(7) 0.1681(5) 0.1501(4)
H28 H 0.2496 0.1251 0.1282
C48 C 0.1974(4) 0.2012(3) 0.3489(3)
C49 C 0.2591(6) 0.3578(4) 0.8364(3)
H29 H 0.2908 0.3976 0.8533
C50 C 0.2370(5) 0.3721(4) 0.7581(3)
H30 H 0.2544 0.4202 0.7233
C51 C 0.1890(5) 0.3140(4) 0.7326(3)
C52 C 0.1629(6) 0.2446(4) 0.7861(3)
H31 H 0.1295 0.2046 0.7705
C53 C 0.1863(7) 0.2342(5) 0.8632(4)
H32 H 0.1663 0.1873 0.8988
C54 C 0.1709(5) 0.3261(4) 0.6472(3)
C55 C 0.3546(5) 0.2493(3) 0.5070(4)
C56 C 0.4788(5) 0.2430(4) 0.5121(5)
H33 H 0.5092 0.2046 0.4859
H34 H 0.5005 0.2260 0.5656
H35 H 0.5076 0.2943 0.4882
C57 C -0.1241(5) 0.2665(4) 0.4816(4)
C58 C -0.2493(6) 0.2594(6) 0.4795(6)
H36 H -0.2678 0.2441 0.4339
H37 H -0.2879 0.3100 0.4786
H38 H -0.2724 0.2195 0.5247
Cu1 Cu 0.78759(7) 0.21599(6) 0.92842(5)
Cu2 Cu -0.08991(8) -0.01894(6) 0.95531(5)
Cu3 Cu 0.47490(8) 0.08614(6) 0.96431(5)
Cu4 Cu 0.73679(7) 0.25304(5) 1.05147(4)
Cu5 Cu 1.04938(7) 0.42797(6) 0.97376(5)
Cu6 Cu 0.60113(7) 0.43864(6) 0.02431(5)
Cu7 Cu 0.29193(8) 0.27415(6) -0.00620(5)
Gd1 Gd 0.32330(2) 0.049931(15) 0.491782(14)
Gd2 Gd 0.32398(2) 0.455784(16) 0.506497(15)
Gd3 Gd 0.11079(2) 0.265893(16) 0.496995(15)
N1 N 0.0829(5) -0.1455(4) 1.0455(4)
N2 N -0.2468(5) -0.0291(4) 0.9772(3)
N3 N 0.5816(5) 0.1478(4) 0.9932(3)
N4 N 0.8703(5) 0.3106(4) 1.0303(4)
N5 N 0.8158(5) 0.5249(4) 0.0144(4)
N6 N 0.4967(5) 0.3766(4) -0.0064(4)
N7 N 0.7161(5) 0.2709(4) 0.8290(3)
N8 N -0.0293(5) 0.0122(3) 0.8429(3)
N9 N 0.4960(5) 0.0843(4) 0.8483(3)
N10 N 0.6776(4) 0.2300(3) 1.1615(3)
N11 N 0.0173(5) 0.5244(4) 0.1403(3)
N12 N 0.5725(5) 0.4279(4) 0.1471(3)
N13 N 0.2523(5) 0.2415(4) 0.1038(3)
N14 N 0.2366(5) 0.2887(4) 0.8892(3)
O1 O 0.6304(4) 0.4140(2) 0.5576(2)
O2 O 0.4584(3) 0.3778(2) 0.6010(2)
O3 O 0.2070(3) 0.0430(2) 0.6028(2)
O4 O 0.0673(3) 0.1354(2) 0.5631(2)
O5 O 0.4636(3) 0.0465(2) 0.5817(2)
O6 O 0.6466(3) 0.0200(2) 0.6087(2)
O7 O 0.6360(3) 0.0862(2) 1.4408(2)
O8 O 0.4575(3) 0.1231(2) 1.4044(2)
O9 O 0.0780(3) 0.3993(2) 0.4257(2)
O10 O 0.2306(3) 0.4684(2) 0.3865(2)
O11 O 0.6493(3) 0.4749(2) 0.3980(2)
O12 O 0.4710(3) 0.4414(2) 0.4185(2)
O13 O 0.1742(3) 0.2630(2) 0.3718(2)
O14 O 0.2075(3) 0.1313(2) 0.3919(2)
O15 O 0.1931(3) 0.3920(2) 0.6020(2)
O16 O 0.1334(3) 0.2695(3) 0.6264(2)
O17 O 0.3019(3) 0.3173(2) 0.4980(2)
O18 O 0.2987(3) 0.1873(2) 0.5130(2)
O19 O -0.0854(3) 0.2951(2) 0.5333(2)
O20 O -0.0593(3) 0.2456(3) 0.4334(2)
O21 O 0.1535(3) -0.0202(2) 0.4769(2)
H39 H 0.1929 -0.0423 0.4491
H40 H 0.1208 -0.0537 0.5100
O22 O 0.1463(3) 0.5398(2) 0.5041(3)
H41 H 0.1559 0.5880 0.4934
H42 H 0.1008 0.5265 0.5395
C1A C -0.0167(6) 0.0968(4) 0.9848(4)
C2A C 0.3362(6) 0.0463(4) 1.0020(4)
Cu1A Cu 0.21241(7) -0.21599(6) 1.07158(5)
Cu2A Cu 0.08991(8) 0.01894(6) 1.04469(5)
Cu3A Cu -0.47490(8) -0.08614(6) 1.03569(5)
Cu5A Cu -0.04938(7) 0.57203(6) 0.02624(5)
Cu5A_2 Cu 0.95062(7) 0.57203(6) 0.02624(5)
Cu7_2 Cu 0.29193(8) 0.27415(6) 0.99380(5)
Gd1_2 Gd 0.32330(2) 0.049931(15) 1.491782(14)
Gd1A Gd 0.67670(2) -0.049931(15) 0.508218(14)
Gd1A_2 Gd 0.67670(2) -0.049931(15) 1.508218(14)
Gd2A Gd 0.67602(2) 0.544216(16) 0.493503(15)
N1A N 0.9171(5) 0.1455(4) 0.9545(4)
N5A N 1.1842(5) 0.4751(4) 0.9856(4)
N11A N 0.9827(5) 0.4756(4) 0.8597(3)
N14_2 N 0.2366(5) 0.2887(4) -0.1108(3)
O1A O 0.3696(4) 0.5860(2) 0.4424(2)
O6A O 0.3534(3) -0.0200(2) 0.3913(2)
O7A O 0.3640(3) -0.0862(2) 0.5592(2)
O8_2 O 0.4575(3) 0.1231(2) 0.4044(2)
O11A O 0.3507(3) 0.5251(2) 0.6020(2)
O23 O 0.0373(4) 0.9022(3) 0.6014(3)
H43 H -0.0303 0.9149 0.6026
H44 H 0.0494 0.8558 0.5996
loop_
_geom_bond_atom_site_label_1
_geom_bond_atom_site_label_2
_geom_bond_site_symmetry_1
_geom_bond_site_symmetry_2
C1 Cu2 1_555 1_555
C2 N2 1_555 1_555
C3 Cu1 1_555 1_555
C4 Cu5 1_555 1_555
C5 Cu6 1_555 1_555
C6 Cu7 1_555 1_555
C7 H1 1_555 1_555
C8 C7 1_555 1_555
H2 C8 1_555 1_555
C9 C8 1_555 1_555
C10 C9 1_555 1_555
H3 C10 1_555 1_555
C11 C10 1_555 1_555
H4 C11 1_555 1_555
C12 C9 1_555 1_555
C13 H5 1_555 1_555
C14 C13 1_555 1_555
H6 C14 1_555 1_555
C15 C14 1_555 1_555
C16 C15 1_555 1_555
H7 C16 1_555 1_555
C17 C16 1_555 1_555
H8 C17 1_555 1_555
C18 C15 1_555 1_555
C19 H9 1_555 1_555
C20 C19 1_555 1_555
H10 C20 1_555 1_555
C21 C20 1_555 1_555
C22 C21 1_555 1_555
H11 C22 1_555 1_555
C23 C22 1_555 1_555
H12 C23 1_555 1_555
C24 C21 1_555 1_555
C25 H13 1_555 1_555
C26 C25 1_555 1_555
H14 C26 1_555 1_555
C27 C26 1_555 1_555
C28 C27 1_555 1_555
H15 C28 1_555 1_555
C29 C28 1_555 1_555
H16 C29 1_555 1_555
C30 C27 1_555 1_555
C31 H17 1_555 1_555
C32 C31 1_555 1_555
H18 C32 1_555 1_555
C33 C32 1_555 1_555
C34 C33 1_555 1_555
H19 C34 1_555 1_555
C35 C34 1_555 1_555
H20 C35 1_555 1_555
C36 C33 1_555 1_555
C37 H21 1_555 1_555
C38 C37 1_555 1_555
H22 C38 1_555 1_555
C39 C38 1_555 1_555
C40 C39 1_555 1_555
H23 C40 1_555 1_555
C41 C40 1_555 1_555
H24 C41 1_555 1_555
C42 C39 1_555 1_555
C43 H25 1_555 1_555
C44 C43 1_555 1_555
H26 C44 1_555 1_555
C45 C44 1_555 1_555
C46 C45 1_555 1_555
H27 C46 1_555 1_555
C47 C46 1_555 1_555
H28 C47 1_555 1_555
C48 C45 1_555 1_555
C49 H29 1_555 1_555
C50 C49 1_555 1_555
H30 C50 1_555 1_555
C51 C50 1_555 1_555
C52 C51 1_555 1_555
H31 C52 1_555 1_555
C53 C52 1_555 1_555
H32 C53 1_555 1_555
C54 C51 1_555 1_555
C55 C56 1_555 1_555
C56 H33 1_555 1_555
H34 C56 1_555 1_555
H35 C56 1_555 1_555
C57 C58 1_555 1_555
C58 H36 1_555 1_555
H37 C58 1_555 1_555
H38 C58 1_555 1_555
Cu1 N7 1_555 1_555
Cu2 N2 1_555 1_555
Cu3 N3 1_555 1_555
Cu4 C3 1_555 1_555
Cu5 N5A 1_555 1_555
Cu6 N6 1_555 1_555
Cu7 N13 1_555 1_555
Gd1 O3 1_555 1_555
Gd2 O2 1_555 1_555
Gd3 O4 1_555 1_555
N1 C1 1_555 1_555
N3 C3 1_555 1_555
N4 C4 1_555 1_555
N5 C5 1_555 1_555
N6 C6 1_555 1_555
N7 C7 1_555 1_555
N8 C13 1_555 1_555
N9 C19 1_555 1_555
N10 C25 1_555 1_555
N11 C31 1_555 1_555
N12 C37 1_555 1_555
N13 C43 1_555 1_555
N14 C49 1_555 1_555
O1 C12 1_555 1_555
O2 C12 1_555 1_555
O3 C18 1_555 1_555
O4 C18 1_555 1_555
O5 C24 1_555 1_555
O6 C24 1_555 1_555
O7 C30 1_555 1_555
O8 C30 1_555 1_555
O9 C36 1_555 1_555
O10 C36 1_555 1_555
O11 C42 1_555 1_555
O12 C42 1_555 1_555
O13 C48 1_555 1_555
O14 C48 1_555 1_555
O15 C54 1_555 1_555
O16 C54 1_555 1_555
O17 C55 1_555 1_555
O18 C55 1_555 1_555
O19 C57 1_555 1_555
O20 C57 1_555 1_555
O21 Gd1 1_555 1_555
H39 O21 1_555 1_555
H40 O21 1_555 1_555
O22 Gd2 1_555 1_555
H41 O22 1_555 1_555
H42 O22 1_555 1_555
O23 H43 1_555 1_555
H44 O23 1_555 1_555
C1A Cu2 1_555 1_555
C2A Cu3 1_555 1_555
Cu1A N1 1_555 1_555
Cu2A C1 1_555 1_555
Cu3A C2 1_555 1_555
Cu5A N11 1_555 1_555
Cu5A_2 N5 1_555 1_555
Cu7_2 N14 1_555 1_555
Gd1_2 O8 1_555 1_555
Gd1A O6 1_555 1_555
Gd1A_2 O7 1_555 1_555
Gd2A O1 1_555 1_555
N1A Cu1 1_555 1_555
N11A Cu5 1_555 1_555
N14_2 Cu7 1_555 1_555
O1A Gd2 1_555 1_555
O6A Gd1 1_555 1_555
O7A Gd1 1_555 1_555
O8_2 Gd1 1_555 1_555
O11A Gd2 1_555 1_555
C11 N7 1_555 1_555
C17 N8 1_555 1_555
C23 N9 1_555 1_555
C29 N10 1_555 1_555
C35 N11 1_555 1_555
C41 N12 1_555 1_555
C47 N13 1_555 1_555
C53 N14 1_555 1_555
Cu2 N8 1_555 1_555
Cu3 N9 1_555 1_555
Cu4 N4 1_555 1_555
Cu4 N10 1_555 1_555
Cu6 N12 1_555 1_555
Gd1 O5 1_555 1_555
Gd1 O14 1_555 1_555
Gd1 O18 1_555 1_555
Gd2 O10 1_555 1_555
Gd2 O12 1_555 1_555
Gd2 O15 1_555 1_555
Gd2 O17 1_555 1_555
Gd3 O9 1_555 1_555
Gd3 O13 1_555 1_555
Gd3 O16 1_555 1_555
Gd3 O17 1_555 1_555
Gd3 O18 1_555 1_555
Gd3 O19 1_555 1_555
Gd3 O20 1_555 1_555
O11 Gd2A 1_555 1_555
C1A Cu2A 1_555 1_555

#END
