
#######################################################################
#
#                 Cambridge Crystallographic Data Centre
#                                CCDC 
#
#######################################################################
#
# If this CIF has been generated from an entry in the Cambridge 
# Structural Database, then it will include bibliographic, chemical, 
# crystal, experimental, refinement or atomic coordinate data resulting 
# from the CCDC's data processing and validation procedures.
#
#######################################################################

data_PIWQER
_symmetry_cell_setting           monoclinic
_symmetry_space_group_name_H-M   'P 21/n'
_symmetry_Int_Tables_number      14
_space_group_name_Hall           '-P 2yn'
loop_
_symmetry_equiv_pos_site_id
_symmetry_equiv_pos_as_xyz
1 x,y,z
2 1/2-x,1/2+y,1/2-z
3 -x,-y,-z
4 1/2+x,1/2-y,1/2+z
_cell_length_a                   13.877(3)
_cell_length_b                   23.023(5)
_cell_length_c                   15.351(2)
_cell_angle_alpha                90
_cell_angle_beta                 91.10(2)
_cell_angle_gamma                90
_cell_volume                     4903.59
loop_
_atom_site_label
_atom_site_type_symbol
_atom_site_fract_x
_atom_site_fract_y
_atom_site_fract_z
N1 N 0.6164(4) 0.5348(3) 0.3984(3)
N2 N 0.5873(4) 0.5471(3) 0.3145(3)
C1 C 0.6505(5) 0.5823(3) 0.2809(4)
N3 N 0.7207(4) 0.5947(3) 0.3401(4)
C2 C 0.6964(6) 0.5651(5) 0.4109(5)
C3 C 0.8044(6) 0.6326(5) 0.3280(7)
C4 C 0.8681(9) 0.6126(8) 0.258(1)
O1 O 0.816(1) 0.616(1) 0.1782(8)
N4 N 0.4948(4) 0.4236(3) 0.4374(3)
N5 N 0.4959(4) 0.4196(3) 0.3482(3)
C5 C 0.4881(6) 0.3646(3) 0.3291(5)
N6 N 0.4814(5) 0.3320(3) 0.4034(4)
C6 C 0.4856(5) 0.3708(3) 0.4686(5)
C7 C 0.4725(8) 0.2683(4) 0.4098(7)
C8 C 0.565(1) 0.2377(6) 0.413(2)
O2 O 0.627(1) 0.2544(9) 0.352(1)
N7 N 0.3921(3) 0.5320(3) 0.4183(3)
N8 N 0.3815(3) 0.5282(3) 0.3283(3)
C9 C 0.2977(5) 0.5510(4) 0.3083(4)
N9 N 0.2533(4) 0.5707(3) 0.3798(4)
C10 C 0.3141(5) 0.5570(3) 0.4460(4)
C11 C 0.1584(6) 0.5990(6) 0.3853(7)
C12 C 0.0808(9) 0.560(1) 0.412(2)
O3 O 0.101(1) 0.5335(9) 0.495(1)
N10 N 0.6264(4) 0.4801(3) 0.1016(3)
N11 N 0.6022(4) 0.4639(2) 0.1845(3)
C13 C 0.6751(5) 0.4356(4) 0.2196(5)
N12 N 0.7457(5) 0.4328(4) 0.1625(5)
C14 C 0.7131(5) 0.4597(5) 0.0914(5)
C15 C 0.8415(7) 0.4043(7) 0.1774(8)
C16 C 0.9065(7) 0.443(1) 0.225(1)
O4 O 0.869(1) 0.4659(8) 0.305(1)
N13 N 0.4685(4) 0.5732(3) 0.0630(3)
N14 N 0.4651(4) 0.5776(3) 0.1519(3)
C17 C 0.4345(6) 0.6302(4) 0.1683(5)
N15 N 0.4186(5) 0.6600(3) 0.0932(5)
C18 C 0.4399(6) 0.6234(4) 0.0293(5)
C19 C 0.3793(8) 0.7188(4) 0.084(1)
C20 C 0.283(1) 0.7192(8) 0.049(2)
O5 O 0.277(1) 0.6923(9) -0.035(1)
N16 N 0.4055(4) 0.4537(3) 0.0789(3)
N17 N 0.3951(3) 0.4570(3) 0.1677(3)
C21 C 0.3201(5) 0.4241(4) 0.1866(4)
N18 N 0.2829(4) 0.3998(3) 0.1126(4)
C22 C 0.3374(5) 0.4202(3) 0.0472(4)
C23 C 0.1978(6) 0.3624(4) 0.1027(6)
C24 C 0.1123(6) 0.3952(5) 0.0733(7)
O6 O 0.1278(5) 0.4185(5) -0.0095(5)
Cu1 Cu 0.5000 0.5000 0.5000
Cu2 Cu 0.48847(4) 0.49905(5) 0.24903(4)
Cu3 Cu 0.5000 0.5000 0.0000
H1 H 0.644 0.598 0.220
H2 H 0.732 0.565 0.466
H3 H 0.778 0.673 0.308
H4 H 0.838 0.641 0.386
H5 H 0.933 0.631 0.261
H6 H 0.884 0.567 0.274
H7 H 0.486 0.350 0.269
H8 H 0.480 0.363 0.532
H9 H 0.446 0.251 0.356
H10 H 0.432 0.256 0.461
H11 H 0.557 0.192 0.424
H12 H 0.593 0.245 0.488
H13 H 0.269 0.550 0.247
H14 H 0.302 0.563 0.511
H15 H 0.162 0.630 0.433
H16 H 0.141 0.618 0.330
H17 H 0.016 0.583 0.413
H18 H 0.069 0.530 0.363
H19 H 0.676 0.421 0.282
H20 H 0.750 0.462 0.033
H21 H 0.827 0.365 0.211
H22 H 0.866 0.390 0.119
H23 H 0.967 0.422 0.238
H24 H 0.918 0.476 0.185
H25 H 0.424 0.649 0.227
H26 H 0.436 0.635 -0.034
H27 H 0.383 0.739 0.144
H28 H 0.424 0.742 0.045
H29 H 0.237 0.696 0.092
H30 H 0.254 0.760 0.050
H31 H 0.296 0.415 0.247
H32 H 0.327 0.410 -0.016
H33 H 0.209 0.330 0.064
H34 H 0.184 0.346 0.165
H35 H 0.054 0.370 0.073
H36 H 0.101 0.429 0.116
N1B N 0.3836(4) 0.4652(3) 0.6016(3)
N4B N 0.5052(4) 0.5764(3) 0.5626(3)
N7B N 0.6079(3) 0.4680(3) 0.5817(3)
N10B N 0.3736(4) 0.5199(3) -0.1016(3)
N13B N 0.5315(4) 0.4268(3) -0.0630(3)
N16B N 0.5945(4) 0.5463(3) -0.0789(3)
N11B N 0.3978(4) 0.5361(2) -0.1845(3)
C14B C 0.2869(5) 0.5403(5) -0.0914(5)
N14B N 0.5349(4) 0.4224(3) -0.1519(3)
C18B C 0.5601(6) 0.3766(4) -0.0293(5)
C17B C 0.5655(6) 0.3698(4) -0.1683(5)
Cu2B Cu 0.51153(4) 0.50095(5) -0.24903(4)
C13B C 0.3249(5) 0.5644(4) -0.2196(5)
N17B N 0.6049(3) 0.5430(3) -0.1677(3)
C22B C 0.6626(5) 0.5798(3) -0.0472(4)
N12B N 0.2543(5) 0.5672(4) -0.1625(5)
H19B H 0.324 0.579 -0.282
H20B H 0.250 0.538 -0.033
N15B N 0.5814(5) 0.3400(3) -0.0932(5)
H25B H 0.576 0.351 -0.227
H26B H 0.564 0.365 0.034
C21B C 0.6799(5) 0.5759(4) -0.1866(4)
N18B N 0.7171(4) 0.6002(3) -0.1126(4)
H32B H 0.673 0.590 0.016
C15B C 0.1585(7) 0.5957(7) -0.1774(8)
H31B H 0.704 0.585 -0.247
C19B C 0.6207(8) 0.2812(4) -0.084(1)
C23B C 0.8022(6) 0.6376(4) -0.1027(6)
C16B C 0.0935(7) 0.557(1) -0.225(1)
H21B H 0.173 0.635 -0.211
H22B H 0.134 0.610 -0.119
C20B C 0.717(1) 0.2808(8) -0.049(2)
H27B H 0.617 0.261 -0.144
H28B H 0.576 0.258 -0.045
C24B C 0.8877(6) 0.6048(5) -0.0733(7)
H33B H 0.791 0.670 -0.064
H34B H 0.816 0.654 -0.165
O4B O 0.131(1) 0.5341(8) -0.305(1)
H23B H 0.033 0.578 -0.238
H24B H 0.082 0.524 -0.185
O6B O 0.8722(5) 0.5815(5) 0.0095(5)
H35B H 0.946 0.630 -0.073
H36B H 0.899 0.571 -0.116
O5B O 0.723(1) 0.3077(9) 0.035(1)
H29B H 0.763 0.304 -0.092
H30B H 0.746 0.240 -0.050
Cl1 Cl 0.1175(2) 0.5722(2) 0.1084(2)
O7 O 0.2146(6) 0.5572(6) 0.1120(6)
O8 O 0.0766(9) 0.5447(7) 0.0335(9)
O9 O 0.079(1) 0.550(1) 0.182(1)
O10 O 0.102(1) 0.6309(8) 0.105(2)
Cl2 Cl 0.1709(3) 0.3863(2) 0.3794(2)
O11 O 0.180(3) 0.446(1) 0.363(2)
O12 O 0.122(1) 0.3777(8) 0.4550(9)
O13 O 0.123(1) 0.3604(8) 0.314(1)
O14 O 0.265(1) 0.366(1) 0.388(1)
Cl3 Cl 0.4401(5) 0.2580(2) 0.1307(3)
O15 O 0.475(1) 0.3142(5) 0.1366(9)
O16 O 0.513(2) 0.2173(8) 0.120(2)
O17 O 0.382(2) 0.255(1) 0.057(1)
O18 O 0.387(1) 0.247(1) 0.203(1)
Cl4 Cl 0.5585(5) 0.7420(2) 0.3259(3)
O19 O 0.503(1) 0.6929(8) 0.348(1)
O20 O 0.532(2) 0.7906(7) 0.374(2)
O21 O 0.545(2) 0.753(1) 0.240(1)
O22 O 0.653(2) 0.728(1) 0.347(2)
O23 O 0.7227(7) 0.3595(5) 0.3911(6)
O24 O 0.337(2) 0.317(1) -1.094(1)
O25 O -0.079(1) 0.339(1) -0.611(1)
loop_
_geom_bond_atom_site_label_1
_geom_bond_atom_site_label_2
_geom_bond_site_symmetry_1
_geom_bond_site_symmetry_2
N1 N2 1_555 1_555
N2 C1 1_555 1_555
C1 N3 1_555 1_555
N3 C2 1_555 1_555
C2 N1 1_555 1_555
C3 N3 1_555 1_555
C4 C3 1_555 1_555
O1 C4 1_555 1_555
N4 N5 1_555 1_555
N5 C5 1_555 1_555
C5 N6 1_555 1_555
N6 C6 1_555 1_555
C6 N4 1_555 1_555
C7 N6 1_555 1_555
C8 C7 1_555 1_555
O2 C8 1_555 1_555
N7 N8 1_555 1_555
N8 C9 1_555 1_555
C9 N9 1_555 1_555
N9 C10 1_555 1_555
C10 N7 1_555 1_555
C11 N9 1_555 1_555
C12 C11 1_555 1_555
O3 C12 1_555 1_555
N10 N11 1_555 1_555
N11 C13 1_555 1_555
C13 N12 1_555 1_555
N12 C14 1_555 1_555
C14 N10 1_555 1_555
C15 N12 1_555 1_555
C16 C15 1_555 1_555
O4 C16 1_555 1_555
N13 N14 1_555 1_555
N14 C17 1_555 1_555
C17 N15 1_555 1_555
N15 C18 1_555 1_555
C18 N13 1_555 1_555
C19 N15 1_555 1_555
C20 C19 1_555 1_555
O5 C20 1_555 1_555
N16 N17 1_555 1_555
N17 C21 1_555 1_555
C21 N18 1_555 1_555
N18 C22 1_555 1_555
C22 N16 1_555 1_555
C23 N18 1_555 1_555
C24 C23 1_555 1_555
O6 C24 1_555 1_555
Cl1 O7 1_555 1_555
Cu1 N1 1_555 1_555
Cu2 N2 1_555 1_555
Cu3 N10 1_555 1_555
O8 Cl1 1_555 1_555
O9 Cl1 1_555 1_555
O10 Cl1 1_555 1_555
Cl2 O11 1_555 1_555
O12 Cl2 1_555 1_555
O13 Cl2 1_555 1_555
O14 Cl2 1_555 1_555
Cl3 O15 1_555 1_555
O16 Cl3 1_555 1_555
O17 Cl3 1_555 1_555
O18 Cl3 1_555 1_555
Cl4 O19 1_555 1_555
O20 Cl4 1_555 1_555
O21 Cl4 1_555 1_555
O22 Cl4 1_555 1_555
H1 C1 1_555 1_555
H2 C2 1_555 1_555
H3 C3 1_555 1_555
H4 C3 1_555 1_555
H5 C4 1_555 1_555
H6 C4 1_555 1_555
H7 C5 1_555 1_555
H8 C6 1_555 1_555
H9 C7 1_555 1_555
H10 C7 1_555 1_555
H11 C8 1_555 1_555
H12 C8 1_555 1_555
H13 C9 1_555 1_555
H14 C10 1_555 1_555
H15 C11 1_555 1_555
H16 C11 1_555 1_555
H17 C12 1_555 1_555
H18 C12 1_555 1_555
H19 C13 1_555 1_555
H20 C14 1_555 1_555
H21 C15 1_555 1_555
H22 C15 1_555 1_555
H23 C16 1_555 1_555
H24 C16 1_555 1_555
H25 C17 1_555 1_555
H26 C18 1_555 1_555
H27 C19 1_555 1_555
H28 C19 1_555 1_555
H29 C20 1_555 1_555
H30 C20 1_555 1_555
H31 C21 1_555 1_555
H32 C22 1_555 1_555
H33 C23 1_555 1_555
H34 C23 1_555 1_555
H35 C24 1_555 1_555
H36 C24 1_555 1_555
N1B Cu1 1_555 1_555
N4B Cu1 1_555 1_555
N7B Cu1 1_555 1_555
N10B Cu3 1_555 1_555
N13B Cu3 1_555 1_555
N16B Cu3 1_555 1_555
N11B N10B 1_555 1_555
C14B N10B 1_555 1_555
N14B N13B 1_555 1_555
C18B N13B 1_555 1_555
C17B N14B 1_555 1_555
Cu2B N11B 1_555 1_555
C13B N11B 1_555 1_555
N17B N16B 1_555 1_555
C22B N16B 1_555 1_555
N12B C14B 1_555 1_555
H19B C13B 1_555 1_555
H20B C14B 1_555 1_555
N15B C18B 1_555 1_555
H25B C17B 1_555 1_555
H26B C18B 1_555 1_555
C21B N17B 1_555 1_555
N18B C22B 1_555 1_555
H32B C22B 1_555 1_555
C15B N12B 1_555 1_555
H31B C21B 1_555 1_555
C19B N15B 1_555 1_555
C23B N18B 1_555 1_555
C16B C15B 1_555 1_555
H21B C15B 1_555 1_555
H22B C15B 1_555 1_555
C20B C19B 1_555 1_555
H27B C19B 1_555 1_555
H28B C19B 1_555 1_555
C24B C23B 1_555 1_555
H33B C23B 1_555 1_555
H34B C23B 1_555 1_555
O4B C16B 1_555 1_555
H23B C16B 1_555 1_555
H24B C16B 1_555 1_555
O6B C24B 1_555 1_555
H35B C24B 1_555 1_555
H36B C24B 1_555 1_555
O5B C20B 1_555 1_555
H29B C20B 1_555 1_555
H30B C20B 1_555 1_555
N4 Cu1 1_555 1_555
N5 Cu2 1_555 1_555
N7 Cu1 1_555 1_555
N8 Cu2 1_555 1_555
N11 Cu2 1_555 1_555
N13 Cu3 1_555 1_555
N14 Cu2 1_555 1_555
N16 Cu3 1_555 1_555
N17 Cu2 1_555 1_555
N14B Cu2B 1_555 1_555
C17B N15B 1_555 1_555
Cu2B N17B 1_555 1_555
C13B N12B 1_555 1_555
C21B N18B 1_555 1_555

#END
