
#######################################################################
#
#                 Cambridge Crystallographic Data Centre
#                                CCDC 
#
#######################################################################
#
# If this CIF has been generated from an entry in the Cambridge 
# Structural Database, then it will include bibliographic, chemical, 
# crystal, experimental, refinement or atomic coordinate data resulting 
# from the CCDC's data processing and validation procedures.
#
#######################################################################

data_PIWQET
_symmetry_cell_setting           triclinic
_symmetry_space_group_name_H-M   'P -1'
_symmetry_Int_Tables_number      2
_space_group_name_Hall           '-P 1'
loop_
_symmetry_equiv_pos_site_id
_symmetry_equiv_pos_as_xyz
1 x,y,z
2 -x,-y,-z
_cell_length_a                   11.8797(8)
_cell_length_b                   17.3366(12)
_cell_length_c                   17.9107(13)
_cell_angle_alpha                74.3320(10)
_cell_angle_beta                 88.4180(10)
_cell_angle_gamma                86.2360(10)
_cell_volume                     3543.86
loop_
_atom_site_label
_atom_site_type_symbol
_atom_site_fract_x
_atom_site_fract_y
_atom_site_fract_z
C1 C 0.9826(6) 1.0969(4) -0.0163(4)
C2 C 1.3355(6) 1.0471(4) 0.0018(4)
C3 C 0.6464(6) 1.1880(4) 0.0077(4)
C4 C 0.9469(5) 1.3479(3) 0.0160(3)
C5 C 0.7343(5) 0.4944(4) 0.0108(3)
C6 C 0.4308(5) 0.3349(4) -0.0160(3)
C7 C 0.2266(5) 0.7205(4) 0.2377(3)
H1 H 0.1508 0.7382 0.2352
C8 C 0.2724(5) 0.6876(4) 0.3093(4)
H2 H 0.2280 0.6814 0.3539
C9 C 0.3852(5) 0.6638(3) 0.3143(3)
C10 C 0.4462(6) 0.6736(4) 0.2461(4)
H3 H 0.5231 0.6593 0.2472
C11 C 0.3921(6) 0.7047(5) 0.1761(4)
H4 H 0.4334 0.7090 0.1304
C12 C 0.4377(5) 0.6213(3) 0.3909(3)
C13 C 0.9378(7) 1.0272(5) 0.1764(4)
H5 H 0.9050 1.0699 0.1386
C14 C 0.8878(6) 1.0077(4) 0.2494(4)
H6 H 0.8235 1.0369 0.2597
C15 C 0.9346(5) 0.9446(3) 0.3065(3)
C16 C 1.0297(5) 0.9032(4) 0.2867(4)
H7 H 1.0641 0.8601 0.3233
C17 C 1.0725(5) 0.9263(4) 0.2126(4)
H8 H 1.1352 0.8970 0.2003
C18 C 0.8829(5) 0.9208(3) 0.3858(3)
C19 C 0.5892(6) 0.9261(6) 0.1937(4)
H9 H 0.6615 0.9262 0.1724
C20 C 0.5768(5) 0.9361(5) 0.2668(4)
H10 H 0.6399 0.9404 0.2947
C21 C 0.4711(5) 0.9399(3) 0.2987(3)
C22 C 0.3814(5) 0.9296(4) 0.2553(4)
H11 H 0.3081 0.9316 0.2745
C23 C 0.4017(6) 0.9165(5) 0.1836(4)
H12 H 0.3409 0.9074 0.1562
C24 C 0.4513(4) 0.9587(3) 0.3758(3)
C25 C 0.7482(5) 1.2083(4) 0.2211(3)
H13 H 0.8244 1.2167 0.2116
C26 C 0.7141(5) 1.1749(4) 0.2955(3)
H14 H 0.7669 1.1598 0.3349
C27 C 0.6018(4) 1.1633(3) 0.3125(3)
C28 C 0.5284(5) 1.1880(5) 0.2519(4)
H15 H 0.4513 1.1835 0.2609
C29 C 0.5681(6) 1.2193(5) 0.1781(4)
H16 H 0.5166 1.2342 0.1378
C30 C 0.5612(5) 1.1211(3) 0.3919(3)
C31 C 1.0293(7) 0.5335(5) 0.8078(4)
H17 H 1.0888 0.5576 0.8233
C32 C 0.9958(6) 0.5608(5) 0.7310(4)
H18 H 1.0337 0.6006 0.6960
C33 C 0.9053(5) 0.5276(3) 0.7078(3)
C34 C 0.8521(6) 0.4715(4) 0.7628(4)
H19 H 0.7876 0.4503 0.7503
C35 C 0.8934(7) 0.4462(5) 0.8366(4)
H20 H 0.8572 0.4061 0.8725
C36 C 0.8620(5) 0.5558(3) 0.6255(3)
C37 C 0.6643(5) 0.4170(4) 0.1904(4)
H21 H 0.7331 0.4061 0.1682
C38 C 0.6631(5) 0.4211(4) 0.2658(4)
H22 H 0.7300 0.4140 0.2932
C39 C 0.5622(5) 0.4357(3) 0.3004(3)
C40 C 0.4650(6) 0.4427(5) 0.2577(4)
H23 H 0.3946 0.4496 0.2797
C41 C 0.4745(6) 0.4392(5) 0.1818(4)
H24 H 0.4088 0.4450 0.1532
C42 C 0.5602(5) 0.4513(3) 0.3793(3)
C43 C 0.7551(8) 0.6986(5) 0.8625(4)
H25 H 0.7459 0.6468 0.8933
C44 C 0.7749(7) 0.7091(4) 0.7848(4)
H26 H 0.7812 0.6652 0.7641
C45 C 0.7854(5) 0.7860(3) 0.7372(3)
C46 C 0.7757(6) 0.8471(4) 0.7712(4)
H27 H 0.7812 0.8996 0.7411
C47 C 0.7576(7) 0.8319(5) 0.8508(4)
H28 H 0.7519 0.8748 0.8729
C48 C 0.8032(4) 0.7985(3) 0.6516(3)
C49 C 0.2598(6) 0.3572(4) -0.1643(4)
H29 H 0.2931 0.3968 -0.1479
C50 C 0.2369(6) 0.3715(4) -0.2415(3)
H30 H 0.2536 0.4200 -0.2762
C51 C 0.1889(5) 0.3135(4) -0.2672(3)
C52 C 0.1622(6) 0.2439(4) -0.2126(3)
H31 H 0.1276 0.2040 -0.2276
C53 C 0.1870(6) 0.2341(5) -0.1363(4)
H32 H 0.1683 0.1869 -0.1004
C54 C 0.1695(5) 0.3258(4) -0.3523(3)
C55 C 0.6455(4) 0.7508(3) 0.4929(3)
C56 C 0.5203(5) 0.7573(4) 0.4887(6)
H33 H 0.4975 0.7468 0.4415
H34 H 0.4929 0.8104 0.4895
H35 H 0.4897 0.7189 0.5323
C57 C 1.1260(5) 0.7338(3) 0.5170(4)
C58 C 1.2493(5) 0.7407(6) 0.5208(6)
H36 H 1.2886 0.6940 0.5113
H37 H 1.2681 0.7447 0.5714
H38 H 1.2710 0.7877 0.4824
Cu1 Cu 0.78800(7) 1.21609(6) -0.07177(5)
Cu2 Cu 1.09017(7) 1.01934(5) 0.04433(5)
Cu3 Cu 1.47478(8) 1.08642(6) -0.03576(5)
Cu4 Cu 0.73715(7) 1.25293(5) 0.05122(4)
Cu5 Cu 0.95054(7) 0.57206(5) 0.02605(5)
Cu6 Cu 0.60104(7) 0.43859(6) 0.02423(5)
Cu7 Cu 0.29223(8) 0.27387(6) -0.00619(4)
Eu1 Eu 0.67669(2) 0.950638(15) 0.508151(14)
Eu2 Eu 0.67622(2) 0.544169(15) 0.493485(15)
Eu3 Eu 0.88975(2) 0.734600(15) 0.502925(15)
N1 N 0.9166(5) 1.1460(4) -0.0455(4)
N2 N 1.2459(5) 1.0292(4) 0.0221(3)
N3 N 0.5818(5) 1.1476(4) -0.0061(3)
N4 N 0.8693(5) 1.3114(4) 0.0298(4)
N5 N 0.8163(5) 0.5249(4) 0.0140(4)
N6 N 0.4970(5) 0.3768(4) -0.0067(4)
N7 N 0.2838(4) 0.7285(3) 0.1715(3)
N8 N 1.0294(5) 0.9886(3) 0.1569(3)
N9 N 0.5037(5) 0.9162(4) 0.1514(3)
N10 N 0.6773(4) 1.2295(3) 0.1613(3)
N11 N 0.9825(5) 0.4759(4) 0.8596(3)
N12 N 0.5723(5) 0.4280(4) 0.1473(3)
N13 N 0.7482(5) 0.7583(4) 0.8962(3)
N14 N 0.2367(5) 0.2892(3) -0.1112(3)
O1 O 0.3706(3) 0.5864(2) 0.4423(2)
O2 O 0.5416(3) 0.6222(2) 0.3980(2)
O3 O 0.7920(3) 0.9580(2) 0.3962(2)
O4 O 0.9330(3) 0.8657(2) 0.4362(2)
O5 O 0.5348(3) 0.9539(2) 0.4176(2)
O6 O 0.3528(3) 0.9800(2) 0.3910(2)
O7 O 0.6353(3) 1.0868(2) 0.4403(2)
O8 O 0.4575(3) 1.1234(2) 0.4038(2)
O9 O 0.9222(3) 0.6003(2) 0.5749(2)
O10 O 0.7693(3) 0.5313(2) 0.6137(2)
O11 O 0.6502(3) 0.4743(2) 0.3978(2)
O12 O 0.4716(3) 0.4416(3) 0.4189(2)
O13 O 0.8269(3) 0.7374(2) 0.6290(2)
O14 O 0.7934(3) 0.8686(2) 0.6086(2)
O15 O 0.1924(3) 0.3913(2) -0.3983(2)
O16 O 0.1326(4) 0.2682(3) -0.3730(2)
O17 O 0.7013(3) 0.8127(2) 0.4865(2)
O18 O 0.6984(3) 0.6832(2) 0.5019(2)
O19 O 1.0858(3) 0.7058(2) 0.4669(3)
O20 O 1.0599(3) 0.7547(2) 0.5664(3)
O21 O 0.8471(3) 1.0208(2) 0.5223(3)
H39 H 0.8773 1.0482 0.4835
H40 H 0.8283 1.0474 0.5527
O22 O 0.8547(3) 0.4601(2) 0.4954(3)
H41 H 0.8541 0.4118 0.5154
H42 H 0.8955 0.4701 0.4569
C1A C 1.0174(6) 0.9031(4) 0.0163(4)
C4A C 1.0531(5) 0.6521(3) -0.0160(3)
Cu1A Cu 0.21200(7) 0.78391(6) 0.07177(5)
Cu2A Cu 0.90983(7) 0.98066(5) -0.04433(5)
Cu3_2 Cu 0.47478(8) 1.08642(6) -0.03576(5)
Cu3A Cu 0.52522(8) 0.91358(6) 0.03576(5)
Cu5A Cu 1.04946(7) 0.42794(5) 0.97395(5)
Cu5A_2 Cu 1.04946(7) 1.42794(5) -0.02605(5)
Cu7A Cu 0.70777(8) 0.72613(6) 1.00619(4)
Eu1A Eu 0.32331(2) 1.049362(15) 0.491849(14)
Eu2A Eu 0.32378(2) 0.455831(15) -0.493485(15)
Eu2A_2 Eu 0.32378(2) 0.455831(15) 0.506515(15)
Eu3A Eu 0.11025(2) 0.265400(15) -0.502925(15)
N3_2 N 1.5818(5) 1.1476(4) -0.0061(3)
N7A N 0.7162(4) 1.2715(3) -0.1715(3)
N9A N 1.4963(5) 1.0838(4) -0.1514(3)
N11A N 1.0175(5) 0.5241(4) 0.1404(3)
N13A N 0.2518(5) 0.2417(4) 0.1038(3)
O1A O 0.6294(3) 0.4136(2) 0.5577(2)
O6A O 0.6472(3) 1.0200(2) 0.6090(2)
O8A O 0.5425(3) 0.8766(2) 0.5962(2)
O12A O 0.5284(3) 0.5584(3) 0.5811(2)
O15A O 0.8076(3) 0.6087(2) 0.3983(2)
O16A O 0.8674(4) 0.7318(3) 0.3730(2)
O23 O 0.0372(4) 0.9015(3) 0.6027(3)
H43 H 0.0402 0.8539 0.6053
H44 H -0.0261 0.9225 0.5955
loop_
_geom_bond_atom_site_label_1
_geom_bond_atom_site_label_2
_geom_bond_site_symmetry_1
_geom_bond_site_symmetry_2
C1 Cu2 1_555 1_555
C2 Cu3 1_555 1_555
C3 Cu1 1_555 1_555
C4 N4 1_555 1_555
C5 Cu6 1_555 1_555
C6 Cu7 1_555 1_555
C7 H1 1_555 1_555
C8 C7 1_555 1_555
H2 C8 1_555 1_555
C9 C8 1_555 1_555
C10 C9 1_555 1_555
H3 C10 1_555 1_555
C11 C10 1_555 1_555
H4 C11 1_555 1_555
C12 C9 1_555 1_555
C13 H5 1_555 1_555
C14 C13 1_555 1_555
H6 C14 1_555 1_555
C15 C14 1_555 1_555
C16 C15 1_555 1_555
H7 C16 1_555 1_555
C17 C16 1_555 1_555
H8 C17 1_555 1_555
C18 C15 1_555 1_555
C19 H9 1_555 1_555
C20 C19 1_555 1_555
H10 C20 1_555 1_555
C21 C20 1_555 1_555
C22 C21 1_555 1_555
H11 C22 1_555 1_555
C23 C22 1_555 1_555
H12 C23 1_555 1_555
C24 C21 1_555 1_555
C25 H13 1_555 1_555
C26 C25 1_555 1_555
H14 C26 1_555 1_555
C27 C26 1_555 1_555
C28 C27 1_555 1_555
H15 C28 1_555 1_555
C29 C28 1_555 1_555
H16 C29 1_555 1_555
C30 C27 1_555 1_555
C31 H17 1_555 1_555
C32 C31 1_555 1_555
H18 C32 1_555 1_555
C33 C32 1_555 1_555
C34 C33 1_555 1_555
H19 C34 1_555 1_555
C35 C34 1_555 1_555
H20 C35 1_555 1_555
C36 C33 1_555 1_555
C37 H21 1_555 1_555
C38 C37 1_555 1_555
H22 C38 1_555 1_555
C39 C38 1_555 1_555
C40 C39 1_555 1_555
H23 C40 1_555 1_555
C41 C40 1_555 1_555
H24 C41 1_555 1_555
C42 C39 1_555 1_555
C43 H25 1_555 1_555
C44 C43 1_555 1_555
H26 C44 1_555 1_555
C45 C44 1_555 1_555
C46 C45 1_555 1_555
H27 C46 1_555 1_555
C47 C46 1_555 1_555
H28 C47 1_555 1_555
C48 C45 1_555 1_555
C49 H29 1_555 1_555
C50 C49 1_555 1_555
H30 C50 1_555 1_555
C51 C50 1_555 1_555
C52 C51 1_555 1_555
H31 C52 1_555 1_555
C53 C52 1_555 1_555
H32 C53 1_555 1_555
C54 C51 1_555 1_555
C55 C56 1_555 1_555
C56 H33 1_555 1_555
H34 C56 1_555 1_555
H35 C56 1_555 1_555
C57 C58 1_555 1_555
C58 H36 1_555 1_555
H37 C58 1_555 1_555
H38 C58 1_555 1_555
Cu1 Cu4 1_555 1_555
Cu2 N2 1_555 1_555
Cu3 N3_2 1_555 1_555
Cu4 C3 1_555 1_555
Cu5 N5 1_555 1_555
Cu6 N6 1_555 1_555
Cu7 N14 1_555 1_555
Eu1 O3 1_555 1_555
Eu2 O2 1_555 1_555
Eu3 O4 1_555 1_555
N1 C1 1_555 1_555
N2 C2 1_555 1_555
N3 C3 1_555 1_555
N4 Cu4 1_555 1_555
N5 C5 1_555 1_555
N6 C6 1_555 1_555
N7 C7 1_555 1_555
N8 C13 1_555 1_555
N9 C19 1_555 1_555
N10 C25 1_555 1_555
N11 C31 1_555 1_555
N12 C37 1_555 1_555
N13 C43 1_555 1_555
N14 C49 1_555 1_555
O1 C12 1_555 1_555
O2 C12 1_555 1_555
O3 C18 1_555 1_555
O4 C18 1_555 1_555
O5 C24 1_555 1_555
O6 C24 1_555 1_555
O7 C30 1_555 1_555
O8 C30 1_555 1_555
O9 C36 1_555 1_555
O10 C36 1_555 1_555
O11 C42 1_555 1_555
O12 C42 1_555 1_555
O13 C48 1_555 1_555
O14 C48 1_555 1_555
O15 C54 1_555 1_555
O16 C54 1_555 1_555
O17 C55 1_555 1_555
O18 C55 1_555 1_555
O19 C57 1_555 1_555
O20 C57 1_555 1_555
O21 Eu1 1_555 1_555
H39 O21 1_555 1_555
H40 O21 1_555 1_555
O22 Eu2 1_555 1_555
H41 O22 1_555 1_555
H42 O22 1_555 1_555
O23 H43 1_555 1_555
H44 O23 1_555 1_555
C1A Cu2 1_555 1_555
C4A Cu5 1_555 1_555
Cu1A N7 1_555 1_555
Cu2A C1 1_555 1_555
Cu3_2 N3 1_555 1_555
Cu3A N9 1_555 1_555
Cu5A N11 1_555 1_555
Cu5A_2 C4 1_555 1_555
Cu7A N13 1_555 1_555
Eu1A O6 1_555 1_555
Eu2A O15 1_555 1_555
Eu2A_2 O1 1_555 1_555
Eu3A O16 1_555 1_555
N7A Cu1 1_555 1_555
N9A Cu3 1_555 1_555
N11A Cu5 1_555 1_555
N13A Cu7 1_555 1_555
O1A Eu2 1_555 1_555
O6A Eu1 1_555 1_555
O8A Eu1 1_555 1_555
O12A Eu2 1_555 1_555
O15A Eu2 1_555 1_555
O16A Eu3 1_555 1_555
C11 N7 1_555 1_555
C17 N8 1_555 1_555
C23 N9 1_555 1_555
C29 N10 1_555 1_555
C35 N11 1_555 1_555
C41 N12 1_555 1_555
C47 N13 1_555 1_555
C53 N14 1_555 1_555
Cu1 N1 1_555 1_555
Cu2 N8 1_555 1_555
Cu4 N10 1_555 1_555
Cu6 N12 1_555 1_555
Eu1 O5 1_555 1_555
Eu1 O7 1_555 1_555
Eu1 O14 1_555 1_555
Eu1 O17 1_555 1_555
Eu2 O10 1_555 1_555
Eu2 O11 1_555 1_555
Eu2 O18 1_555 1_555
Eu3 O9 1_555 1_555
Eu3 O13 1_555 1_555
Eu3 O17 1_555 1_555
Eu3 O18 1_555 1_555
Eu3 O19 1_555 1_555
Eu3 O20 1_555 1_555
O8 Eu1A 1_555 1_555
O12 Eu2A_2 1_555 1_555
C1A Cu2A 1_555 1_555

#END
