
#######################################################################
#
#                 Cambridge Crystallographic Data Centre
#                                CCDC 
#
#######################################################################
#
# If this CIF has been generated from an entry in the Cambridge 
# Structural Database, then it will include bibliographic, chemical, 
# crystal, experimental, refinement or atomic coordinate data resulting 
# from the CCDC's data processing and validation procedures.
#
#######################################################################

data_PIWQUJ
_symmetry_cell_setting           triclinic
_symmetry_space_group_name_H-M   'P -1'
_symmetry_Int_Tables_number      2
_space_group_name_Hall           '-P 1'
loop_
_symmetry_equiv_pos_site_id
_symmetry_equiv_pos_as_xyz
1 x,y,z
2 -x,-y,-z
_cell_length_a                   11.8300(8)
_cell_length_b                   17.3115(11)
_cell_length_c                   17.8851(12)
_cell_angle_alpha                74.4250(10)
_cell_angle_beta                 88.4240(10)
_cell_angle_gamma                86.0630(10)
_cell_volume                     3519.8
loop_
_atom_site_label
_atom_site_type_symbol
_atom_site_fract_x
_atom_site_fract_y
_atom_site_fract_z
C1 C 0.0178(7) -0.0965(5) 1.0147(4)
C2 C -0.3365(7) -0.0457(5) 0.9975(5)
C3 C 0.6464(6) 0.1877(5) 1.0082(4)
C4 C 0.9469(6) 0.3482(4) 1.0149(4)
C5 C 0.7341(6) 0.4947(4) 0.0110(4)
C6 C 0.4291(6) 0.3349(4) -0.0165(4)
C7 C 0.7741(6) 0.2806(5) 0.7630(4)
H1 H 0.8510 0.2649 0.7661
C8 C 0.7283(6) 0.3125(4) 0.6907(4)
H2 H 0.7733 0.3179 0.6463
C9 C 0.6140(5) 0.3365(4) 0.6849(4)
C10 C 0.5520(6) 0.3249(5) 0.7531(4)
H3 H 0.4744 0.3379 0.7519
C11 C 0.6062(6) 0.2937(6) 0.8234(4)
H4 H 0.5643 0.2885 0.8690
C12 C 0.5616(5) 0.3798(4) 0.6085(4)
C13 C 0.0621(8) -0.0268(5) 0.8217(5)
H5 H 0.0944 -0.0706 0.8588
C14 C 0.1109(7) -0.0059(5) 0.7481(4)
H6 H 0.1750 -0.0353 0.7371
C15 C 0.0653(5) 0.0576(4) 0.6917(4)
C16 C -0.0290(6) 0.0995(5) 0.7124(4)
H7 H -0.0626 0.1437 0.6764
C17 C -0.0724(6) 0.0758(4) 0.7861(4)
H8 H -0.1358 0.1049 0.7985
C18 C 0.1180(5) 0.0815(4) 0.6122(4)
C19 C 0.4108(6) 0.0757(6) 0.8055(5)
H9 H 0.3381 0.0772 0.8264
C20 C 0.4224(6) 0.0650(6) 0.7322(5)
H10 H 0.3586 0.0610 0.7045
C21 C 0.5284(5) 0.0603(4) 0.7001(4)
C22 C 0.6185(6) 0.0693(5) 0.7439(4)
H11 H 0.6921 0.0666 0.7248
C23 C 0.5987(6) 0.0824(5) 0.8161(4)
H12 H 0.6604 0.0905 0.8436
C24 C 0.5474(5) 0.0419(4) 0.6233(4)
C25 C 0.7482(6) 0.2088(5) 1.2225(4)
H13 H 0.8241 0.2190 1.2128
C26 C 0.7151(6) 0.1732(4) 1.2971(4)
H14 H 0.7684 0.1562 1.3363
C27 C 0.6022(5) 0.1632(4) 1.3131(4)
C28 C 0.5284(6) 0.1869(5) 1.2532(4)
H15 H 0.4512 0.1810 1.2622
C29 C 0.5673(6) 0.2190(6) 1.1801(4)
H16 H 0.5152 0.2346 1.1400
C30 C 0.5620(5) 0.1187(4) 1.3942(4)
C31 C -0.0274(7) 0.4651(6) 0.1935(4)
H17 H -0.0858 0.4399 0.1778
C32 C 0.0052(6) 0.4385(5) 0.2702(4)
H18 H -0.0331 0.3988 0.3051
C33 C 0.0949(5) 0.4718(4) 0.2938(4)
C34 C 0.1465(7) 0.5287(5) 0.2392(4)
H19 H 0.2094 0.5514 0.2526
C35 C 0.1078(7) 0.5535(6) 0.1646(4)
H20 H 0.1454 0.5929 0.1289
C36 C 0.1385(5) 0.4433(4) 0.3760(3)
C37 C 0.6647(6) 0.4168(5) 0.1911(4)
H21 H 0.7337 0.4058 0.1686
C38 C 0.6644(6) 0.4208(4) 0.2669(4)
H22 H 0.7318 0.4138 0.2942
C39 C 0.5615(5) 0.4354(4) 0.3021(4)
C40 C 0.4650(6) 0.4423(5) 0.2595(4)
H23 H 0.3944 0.4492 0.2819
C41 C 0.4732(6) 0.4391(6) 0.1821(5)
H24 H 0.4073 0.4452 0.1534
C42 C 0.5603(5) 0.4509(4) 0.3813(4)
C43 C 0.2415(8) 0.3024(5) 0.1376(4)
H25 H 0.2463 0.3546 0.1064
C44 C 0.2253(8) 0.2908(5) 0.2164(4)
H26 H 0.2222 0.3345 0.2375
C45 C 0.2138(5) 0.2140(4) 0.2643(4)
C46 C 0.2233(7) 0.1526(5) 0.2297(4)
H27 H 0.2182 0.0998 0.2593
C47 C 0.2408(8) 0.1695(5) 0.1494(4)
H28 H 0.2460 0.1267 0.1269
C48 C 0.1985(5) 0.2007(4) 0.3495(3)
C49 C 0.2589(6) 0.3580(5) 0.8353(4)
H29 H 0.2924 0.3972 0.8522
C50 C 0.2360(6) 0.3731(4) 0.7577(4)
H30 H 0.2528 0.4217 0.7232
C51 C 0.1878(5) 0.3149(4) 0.7316(4)
C52 C 0.1626(7) 0.2443(5) 0.7853(4)
H31 H 0.1303 0.2039 0.7694
C53 C 0.1861(7) 0.2342(5) 0.8625(4)
H32 H 0.1668 0.1871 0.8983
C54 C 0.1719(5) 0.3272(4) 0.6457(3)
C55 C 0.3549(5) 0.2497(4) 0.5068(4)
C56 C 0.4812(5) 0.2438(5) 0.5113(6)
H33 H 0.5095 0.1905 0.5112
H34 H 0.5036 0.2552 0.5582
H35 H 0.5116 0.2819 0.4673
C57 C -0.1220(5) 0.2673(4) 0.4822(4)
C58 C -0.2451(6) 0.2598(6) 0.4799(6)
H36 H -0.2648 0.2535 0.4303
H37 H -0.2847 0.3073 0.4879
H38 H -0.2661 0.2138 0.5201
Cu1 Cu 0.78685(8) 0.21645(7) 0.92870(5)
Cu2 Cu -0.08937(8) -0.01835(6) 0.95463(6)
Cu3 Cu 0.47529(8) 0.08571(7) 0.96426(6)
Cu4 Cu 0.73605(8) 0.25339(6) 1.05211(5)
Cu5 Cu 1.04898(8) 0.42834(6) 0.97331(5)
Cu6 Cu 0.60066(8) 0.43809(6) 0.02470(5)
Cu7 Cu 0.28994(9) 0.27416(7) -0.00624(5)
Dy1 Dy 0.32345(2) 0.050897(18) 0.491592(16)
Dy2 Dy 0.32448(2) 0.455606(18) 0.506309(16)
Dy3 Dy 0.11232(2) 0.266490(18) 0.496675(16)
N1 N 0.0821(6) -0.1456(5) 1.0450(4)
N2 N -0.2468(6) -0.0291(4) 0.9778(4)
N3 N 0.5815(5) 0.1484(4) 0.9937(4)
N4 N 0.8694(6) 0.3112(5) 1.0305(4)
N5 N 0.8162(6) 0.5239(4) 0.0144(4)
N6 N 0.4957(6) 0.3748(4) -0.0060(4)
N7 N 0.7156(5) 0.2710(4) 0.8279(3)
N8 N -0.0292(5) 0.0131(4) 0.8414(3)
N9 N 0.4964(5) 0.0840(4) 0.8484(4)
N10 N 0.6767(5) 0.2294(4) 1.1631(3)
N11 N 0.0184(5) 0.5236(4) 0.1408(3)
N12 N 0.5719(5) 0.4277(4) 0.1482(4)
N13 N 0.2504(5) 0.2423(4) 0.1041(3)
N14 N 0.2351(5) 0.2892(4) 0.8881(3)
O1 O 0.6306(4) 0.4159(3) 0.5578(3)
O2 O 0.4580(4) 0.3789(3) 0.5995(3)
O3 O 0.2074(4) 0.0441(3) 0.6015(2)
O4 O 0.0684(4) 0.1378(3) 0.5623(2)
O5 O 0.4622(4) 0.0477(3) 0.5813(2)
O6 O 0.6448(4) 0.0187(3) 0.6077(3)
O7 O 0.6375(4) 0.0842(3) 1.4416(2)
O8 O 0.4572(3) 0.1216(3) 1.4062(2)
O9 O 0.0791(4) 0.3983(3) 0.4267(2)
O10 O 0.2320(4) 0.4680(3) 0.3882(2)
O11 O 0.6493(4) 0.4756(3) 0.3990(2)
O12 O 0.4702(4) 0.4406(3) 0.4203(3)
O13 O 0.1745(4) 0.2627(3) 0.3729(2)
O14 O 0.2102(4) 0.1317(3) 0.3923(2)
O15 O 0.1953(4) 0.3932(3) 0.6013(2)
O16 O 0.1349(4) 0.2701(3) 0.6243(2)
O17 O 0.3015(3) 0.3180(3) 0.4977(3)
O18 O 0.2988(3) 0.1886(2) 0.5127(3)
O19 O -0.0818(3) 0.2952(3) 0.5341(3)
O20 O -0.0565(4) 0.2460(3) 0.4338(3)
O21 O 0.1554(4) -0.0183(3) 0.4762(3)
H39 H 0.1949 -0.0404 0.4483
H40 H 0.1227 -0.0518 0.5093
O22 O 0.1475(4) 0.5390(3) 0.5041(3)
H41 H 0.1570 0.5871 0.4935
H42 H 0.1020 0.5257 0.5396
C1A C -0.0178(7) 0.0965(5) 0.9853(4)
C2A C 0.3365(7) 0.0457(5) 1.0025(5)
Cu1A Cu 0.21315(8) -0.21645(7) 1.07130(5)
Cu2A Cu 0.08937(8) 0.01835(6) 1.04537(6)
Cu3A Cu -0.47529(8) -0.08571(7) 1.03574(6)
Cu5A Cu -0.04898(8) 0.57166(6) 0.02669(5)
Cu5A_2 Cu 0.95102(8) 0.57166(6) 0.02669(5)
Cu7_2 Cu 0.28994(9) 0.27416(7) 0.99376(5)
Dy1_2 Dy 0.32345(2) 0.050897(18) 1.491592(16)
Dy1A Dy 0.67655(2) -0.050897(18) 0.508408(16)
Dy1A_2 Dy 0.67655(2) -0.050897(18) 1.508408(16)
Dy2A Dy 0.67552(2) 0.544394(18) 0.493691(16)
N1A N 0.9179(6) 0.1456(5) 0.9550(4)
N5A N 1.1838(6) 0.4761(4) 0.9856(4)
N11A N 0.9816(5) 0.4764(4) 0.8592(3)
N14_2 N 0.2351(5) 0.2892(4) -0.1119(3)
O1A O 0.3694(4) 0.5841(3) 0.4422(3)
O6A O 0.3552(4) -0.0187(3) 0.3923(3)
O7A O 0.3625(4) -0.0842(3) 0.5584(2)
O8_2 O 0.4572(3) 0.1216(3) 0.4062(2)
O11A O 0.3507(4) 0.5244(3) 0.6010(2)
O23 O 0.0372(4) 0.9030(3) 0.6002(3)
H43 H -0.0304 0.9157 0.6014
H44 H 0.0493 0.8566 0.5984
loop_
_geom_bond_atom_site_label_1
_geom_bond_atom_site_label_2
_geom_bond_site_symmetry_1
_geom_bond_site_symmetry_2
C1 Cu2 1_555 1_555
C2 N2 1_555 1_555
C3 Cu1 1_555 1_555
C4 Cu5 1_555 1_555
C5 Cu6 1_555 1_555
C6 Cu7 1_555 1_555
C7 H1 1_555 1_555
C8 C7 1_555 1_555
H2 C8 1_555 1_555
C9 C8 1_555 1_555
C10 C9 1_555 1_555
H3 C10 1_555 1_555
C11 C10 1_555 1_555
H4 C11 1_555 1_555
C12 C9 1_555 1_555
C13 H5 1_555 1_555
C14 C13 1_555 1_555
H6 C14 1_555 1_555
C15 C14 1_555 1_555
C16 C15 1_555 1_555
H7 C16 1_555 1_555
C17 C16 1_555 1_555
H8 C17 1_555 1_555
C18 C15 1_555 1_555
C19 H9 1_555 1_555
C20 C19 1_555 1_555
H10 C20 1_555 1_555
C21 C20 1_555 1_555
C22 C21 1_555 1_555
H11 C22 1_555 1_555
C23 C22 1_555 1_555
H12 C23 1_555 1_555
C24 C21 1_555 1_555
C25 H13 1_555 1_555
C26 C25 1_555 1_555
H14 C26 1_555 1_555
C27 C26 1_555 1_555
C28 C27 1_555 1_555
H15 C28 1_555 1_555
C29 C28 1_555 1_555
H16 C29 1_555 1_555
C30 C27 1_555 1_555
C31 H17 1_555 1_555
C32 C31 1_555 1_555
H18 C32 1_555 1_555
C33 C32 1_555 1_555
C34 C33 1_555 1_555
H19 C34 1_555 1_555
C35 C34 1_555 1_555
H20 C35 1_555 1_555
C36 C33 1_555 1_555
C37 H21 1_555 1_555
C38 C37 1_555 1_555
H22 C38 1_555 1_555
C39 C38 1_555 1_555
C40 C39 1_555 1_555
H23 C40 1_555 1_555
C41 C40 1_555 1_555
H24 C41 1_555 1_555
C42 C39 1_555 1_555
C43 H25 1_555 1_555
C44 C43 1_555 1_555
H26 C44 1_555 1_555
C45 C44 1_555 1_555
C46 C45 1_555 1_555
H27 C46 1_555 1_555
C47 C46 1_555 1_555
H28 C47 1_555 1_555
C48 C45 1_555 1_555
C49 H29 1_555 1_555
C50 C49 1_555 1_555
H30 C50 1_555 1_555
C51 C50 1_555 1_555
C52 C51 1_555 1_555
H31 C52 1_555 1_555
C53 C52 1_555 1_555
H32 C53 1_555 1_555
C54 C51 1_555 1_555
C55 C56 1_555 1_555
C56 H33 1_555 1_555
H34 C56 1_555 1_555
H35 C56 1_555 1_555
C57 C58 1_555 1_555
C58 H36 1_555 1_555
H37 C58 1_555 1_555
H38 C58 1_555 1_555
Cu1 N7 1_555 1_555
Cu2 N2 1_555 1_555
Cu3 N3 1_555 1_555
Cu4 C3 1_555 1_555
Cu5 N5A 1_555 1_555
Cu6 N6 1_555 1_555
Cu7 N13 1_555 1_555
Dy1 O3 1_555 1_555
Dy2 O2 1_555 1_555
Dy3 O4 1_555 1_555
N1 C1 1_555 1_555
N3 C3 1_555 1_555
N4 C4 1_555 1_555
N5 C5 1_555 1_555
N6 C6 1_555 1_555
N7 C7 1_555 1_555
N8 C13 1_555 1_555
N9 C19 1_555 1_555
N10 C25 1_555 1_555
N11 C31 1_555 1_555
N12 C37 1_555 1_555
N13 C43 1_555 1_555
N14 C49 1_555 1_555
O1 C12 1_555 1_555
O2 C12 1_555 1_555
O3 C18 1_555 1_555
O4 C18 1_555 1_555
O5 C24 1_555 1_555
O6 C24 1_555 1_555
O7 C30 1_555 1_555
O8 C30 1_555 1_555
O9 C36 1_555 1_555
O10 C36 1_555 1_555
O11 C42 1_555 1_555
O12 C42 1_555 1_555
O13 C48 1_555 1_555
O14 C48 1_555 1_555
O15 C54 1_555 1_555
O16 C54 1_555 1_555
O17 C55 1_555 1_555
O18 C55 1_555 1_555
O19 C57 1_555 1_555
O20 C57 1_555 1_555
O21 Dy1 1_555 1_555
H39 O21 1_555 1_555
H40 O21 1_555 1_555
O22 Dy2 1_555 1_555
H41 O22 1_555 1_555
H42 O22 1_555 1_555
O23 H43 1_555 1_555
H44 O23 1_555 1_555
C1A Cu2 1_555 1_555
C2A Cu3 1_555 1_555
Cu1A N1 1_555 1_555
Cu2A C1 1_555 1_555
Cu3A C2 1_555 1_555
Cu5A N11 1_555 1_555
Cu5A_2 N5 1_555 1_555
Cu7_2 N14 1_555 1_555
Dy1_2 O8 1_555 1_555
Dy1A O6 1_555 1_555
Dy1A_2 O7 1_555 1_555
Dy2A O1 1_555 1_555
N1A Cu1 1_555 1_555
N11A Cu5 1_555 1_555
N14_2 Cu7 1_555 1_555
O1A Dy2 1_555 1_555
O6A Dy1 1_555 1_555
O7A Dy1 1_555 1_555
O8_2 Dy1 1_555 1_555
O11A Dy2 1_555 1_555
C11 N7 1_555 1_555
C17 N8 1_555 1_555
C23 N9 1_555 1_555
C29 N10 1_555 1_555
C35 N11 1_555 1_555
C41 N12 1_555 1_555
C47 N13 1_555 1_555
C53 N14 1_555 1_555
Cu2 N8 1_555 1_555
Cu3 N9 1_555 1_555
Cu4 N4 1_555 1_555
Cu4 N10 1_555 1_555
Cu6 N12 1_555 1_555
Dy1 O5 1_555 1_555
Dy1 O14 1_555 1_555
Dy1 O18 1_555 1_555
Dy2 O10 1_555 1_555
Dy2 O12 1_555 1_555
Dy2 O15 1_555 1_555
Dy2 O17 1_555 1_555
Dy3 O9 1_555 1_555
Dy3 O13 1_555 1_555
Dy3 O16 1_555 1_555
Dy3 O17 1_555 1_555
Dy3 O18 1_555 1_555
Dy3 O19 1_555 1_555
Dy3 O20 1_555 1_555
O11 Dy2A 1_555 1_555
C1A Cu2A 1_555 1_555

#END
