
#######################################################################
#
#                 Cambridge Crystallographic Data Centre
#                                CCDC 
#
#######################################################################
#
# If this CIF has been generated from an entry in the Cambridge 
# Structural Database, then it will include bibliographic, chemical, 
# crystal, experimental, refinement or atomic coordinate data resulting 
# from the CCDC's data processing and validation procedures.
#
#######################################################################

data_PIWQOD
_symmetry_cell_setting           triclinic
_symmetry_space_group_name_H-M   'P -1'
_symmetry_Int_Tables_number      2
_space_group_name_Hall           '-P 1'
loop_
_symmetry_equiv_pos_site_id
_symmetry_equiv_pos_as_xyz
1 x,y,z
2 -x,-y,-z
_cell_length_a                   11.8612(4)
_cell_length_b                   17.3255(5)
_cell_length_c                   17.9096(5)
_cell_angle_alpha                74.402(2)
_cell_angle_beta                 88.414(2)
_cell_angle_gamma                86.095(2)
_cell_volume                     3536.5
loop_
_atom_site_label
_atom_site_type_symbol
_atom_site_fract_x
_atom_site_fract_y
_atom_site_fract_z
C1 C 0.4822(5) 0.5967(3) 0.4844(3)
C2 C 0.8373(5) 0.5463(3) 0.5019(3)
C3 C 0.1459(5) 0.6881(3) 0.5082(3)
C4 C 0.4472(4) 0.8476(3) 0.5154(3)
C5 C 0.7658(4) 1.0056(3) 0.4888(3)
C6 C 0.0700(5) 0.1650(3) 0.5162(3)
C7 C -0.2745(4) 0.2201(3) 0.7374(3)
H1 H -0.3509 0.2367 0.7346
C8 C -0.2276(4) 0.1873(3) 0.8094(3)
H2 H -0.2720 0.1814 0.8539
C9 C -0.1147(4) 0.1632(3) 0.8148(2)
C10 C -0.0525(5) 0.1744(4) 0.7470(3)
H3 H 0.0248 0.1609 0.7485
C11 C -0.1061(5) 0.2059(4) 0.6769(3)
H4 H -0.0639 0.2109 0.6315
C12 C -0.0624(4) 0.1203(2) 0.8919(2)
C13 C 0.5765(3) 0.4223(2) 0.7138(2)
H5 H 0.6397 0.3932 0.7013
C14 C 0.5301(3) 0.40043(18) 0.78803(16)
H6 H 0.5628 0.3572 0.8254
C15 C 0.4349(3) 0.44327(19) 0.80645(14)
C16 C 0.3861(3) 0.5079(2) 0.75061(19)
H7 H 0.3224 0.5366 0.7629
C17 C 0.4325(4) 0.5298(2) 0.67634(18)
H8 H 0.3994 0.5726 0.6387
C18 C 0.3822(4) 0.4191(3) 0.8871(2)
C19 C 0.0902(5) 0.4256(5) 0.6932(3)
H9 H 0.1623 0.4257 0.6714
C20 C 0.0777(5) 0.4358(4) 0.7678(3)
H10 H 0.1407 0.4398 0.7960
C21 C -0.0294(4) 0.4397(3) 0.7990(3)
C22 C -0.1183(5) 0.4302(3) 0.7561(3)
H11 H -0.1916 0.4322 0.7756
C23 C -0.0988(5) 0.4177(4) 0.6839(3)
H12 H -0.1603 0.4103 0.6560
C24 C -0.0476(4) 0.4583(3) 0.8765(2)
C25 C 0.2489(5) 0.7086(3) 0.7216(3)
H13 H 0.3249 0.7176 0.7117
C26 C 0.2151(4) 0.6741(3) 0.7968(3)
H14 H 0.2682 0.6586 0.8362
C27 C 0.1024(4) 0.6626(3) 0.8132(2)
C28 C 0.0277(5) 0.6873(4) 0.7532(3)
H15 H -0.0494 0.6826 0.7623
C29 C 0.0686(5) 0.7192(4) 0.6790(3)
H16 H 0.0172 0.7342 0.6386
C30 C 0.0622(4) 0.6202(2) 0.8933(2)
C31 C 0.5288(6) 0.0343(4) 1.3066(3)
H17 H 0.5891 0.0580 1.3218
C32 C 0.4943(5) 0.0620(4) 1.2298(3)
H18 H 0.5314 0.1024 1.1949
C33 C 0.4047(4) 0.0285(3) 1.2067(2)
C34 C 0.3516(5) -0.0282(3) 1.2616(3)
H19 H 0.2877 -0.0500 1.2488
C35 C 0.3928(6) -0.0534(4) 1.3363(3)
H20 H 0.3565 -0.0933 1.3723
C36 C 0.3608(4) 0.0558(2) 1.1246(2)
C37 C 0.1650(5) -0.0837(3) 0.6909(3)
H21 H 0.2337 -0.0957 0.6690
C38 C 0.1639(4) -0.0789(3) 0.7665(3)
H22 H 0.2310 -0.0850 0.7938
C39 C 0.0621(4) -0.0648(3) 0.8013(3)
C40 C -0.0350(5) -0.0576(4) 0.7589(3)
H23 H -0.1055 -0.0507 0.7811
C41 C -0.0254(5) -0.0610(4) 0.6824(3)
H24 H -0.0913 -0.0552 0.6539
C42 C 0.0599(4) -0.0493(2) 0.8804(2)
C43 C 0.2570(7) 0.1984(4) 1.3621(3)
H25 H 0.2496 0.1465 1.3930
C44 C 0.2756(6) 0.2088(3) 1.2840(3)
H26 H 0.2808 0.1648 1.2633
C45 C 0.2863(4) 0.2855(3) 1.2366(2)
C46 C 0.2767(5) 0.3474(3) 1.2705(3)
H27 H 0.2814 0.4001 1.2405
C47 C 0.2597(6) 0.3312(4) 1.3499(3)
H28 H 0.2557 0.3740 1.3722
C48 C 0.3022(4) 0.2983(3) 1.1508(2)
C49 C 0.2411(5) 0.1423(3) 0.6640(3)
H29 H 0.2083 0.1029 0.6470
C50 C 0.2633(5) 0.1271(3) 0.7422(3)
H30 H 0.2470 0.0784 0.7766
C51 C 0.3101(4) 0.1858(3) 0.7678(2)
C52 C 0.3364(5) 0.2558(3) 0.7141(3)
H31 H 0.3694 0.2961 0.7297
C53 C 0.3133(6) 0.2655(4) 0.6370(3)
H32 H 0.3329 0.3125 0.6012
C54 C 0.3283(4) 0.1736(3) 0.8536(2)
C55 C 0.1449(4) 0.2502(2) 0.9933(2)
C56 C 0.0196(4) 0.2575(3) 0.9884(4)
H33 H -0.0031 0.2456 0.9419
H34 H -0.0073 0.3113 0.9876
H35 H -0.0119 0.2204 1.0326
C57 C 0.6226(4) 0.2328(3) 1.0175(3)
C58 C 0.7459(5) 0.2409(4) 1.0199(5)
H36 H 0.7617 0.2963 0.9994
H37 H 0.7846 0.2095 0.9892
H38 H 0.7712 0.2222 1.0725
Cu1 Cu 0.28736(6) 0.71619(5) 0.42861(4)
Cu2 Cu 0.58960(7) 0.51858(4) 0.54512(4)
Cu3 Cu 0.97510(7) 0.58596(5) 0.46422(4)
Cu4 Cu 0.23660(6) 0.75314(4) 0.55186(3)
Cu5 Cu 0.54913(6) 0.92827(4) 0.47336(4)
Cu6 Cu -0.10083(6) 0.06172(4) 0.47543(4)
Cu7 Cu 0.20937(7) 0.22585(5) 0.50615(3)
N1 N 0.4178(4) 0.6455(3) 0.4555(3)
N2 N 0.7466(4) 0.5294(3) 0.5224(3)
N3 N 0.0819(4) 0.6472(3) 0.4941(2)
N4 N 0.3702(4) 0.8108(3) 0.5303(3)
N5 N 0.6843(4) 0.9760(3) 0.4852(3)
N6 N 0.0034(5) 0.1245(3) 0.5063(3)
N7 N -0.2152(4) 0.2293(3) 0.6714(2)
N8 N 0.5289(4) 0.4870(3) 0.6585(2)
N9 N 0.0037(4) 0.4158(3) 0.6521(2)
N10 N 0.1770(4) 0.7295(3) 0.6625(2)
N11 N 0.4814(4) -0.0233(3) 1.3590(2)
N12 N 0.0725(4) -0.0719(3) 0.6475(2)
N13 N 0.2490(4) 0.2577(3) 1.3960(2)
N14 N 0.2641(4) 0.2107(3) 0.6113(2)
O1 O -0.1308(3) 0.08505(18) 0.94220(17)
O2 O 0.0416(3) 0.12159(19) 0.89961(17)
O3 O 0.2921(3) 0.45690(18) 0.89770(17)
O4 O 0.4320(3) 0.36312(17) 0.93736(17)
O5 O 0.0374(3) 0.45269(18) 0.91853(16)
O6 O -0.1462(3) 0.48143(19) 0.89176(17)
O7 O 0.1366(3) 0.58482(17) 0.94121(17)
O8 O -0.0427(3) 0.62253(18) 0.90534(17)
O9 O 0.4211(3) 0.10126(17) 1.07371(17)
O10 O 0.2686(3) 0.03190(19) 1.11268(17)
O11 O 0.1493(3) -0.02496(19) 0.89889(17)
O12 O -0.0292(3) -0.0592(2) 0.91982(18)
O13 O 0.3258(3) 0.23691(19) 1.12767(16)
O14 O 0.2916(3) 0.36849(18) 1.10804(17)
O15 O 0.3049(3) 0.10724(18) 0.89851(16)
O16 O 0.3653(3) 0.23040(19) 0.87454(16)
O17 O 0.1982(3) 0.18216(17) 1.00265(18)
O18 O 0.2007(3) 0.31204(17) 0.98678(17)
O19 O 0.5832(3) 0.20552(19) 0.96619(19)
O20 O 0.5571(3) 0.2539(2) 1.06659(18)
O21 O 0.3454(3) 0.51916(18) 1.02345(19)
H39 H 0.3810 0.5466 0.9875
H40 H 0.3208 0.5455 1.0528
O22 O 0.3532(3) -0.03933(19) 0.99594(19)
H41 H 0.3551 -0.0886 1.0122
H42 H 0.4042 -0.0263 0.9640
Tb1 Tb 0.176492(17) 0.449532(12) 1.008312(11)
Tb2 Tb 0.175630(18) 0.044282(12) 0.993614(11)
Tb3 Tb 0.388033(17) 0.233785(12) 1.003136(11)
C1A C 0.5178(5) 0.4033(3) 0.5156(3)
C5_2 C -0.2342(4) 0.0056(3) 0.4888(3)
Cu1A Cu -0.28736(6) 0.28381(5) 0.57139(4)
Cu2A Cu 0.41040(7) 0.48142(4) 0.45488(4)
Cu3_2 Cu -0.02490(7) 0.58596(5) 0.46422(4)
Cu3A Cu 0.02490(7) 0.41404(5) 0.53578(4)
Cu5_2 Cu 0.54913(6) -0.07173(4) 1.47336(4)
Cu6_2 Cu 0.89917(6) 1.06172(4) 0.47543(4)
Cu6A Cu 0.10083(6) -0.06172(4) 0.52457(4)
Cu7_2 Cu 0.20937(7) 0.22585(5) 1.50615(3)
N3_2 N 1.0819(4) 0.6472(3) 0.4941(2)
N7A N 0.2152(4) 0.7707(3) 0.3286(2)
N9A N 0.9963(4) 0.5842(3) 0.3479(2)
N11_2 N 0.4814(4) 0.9767(3) 0.3590(2)
N12A N -0.0725(4) 0.0719(3) 0.3525(2)
N13_2 N 0.2490(4) 0.2577(3) 0.3960(2)
O1A O 0.1308(3) -0.08505(18) 1.05780(17)
O6A O 0.1462(3) 0.51857(19) 1.10824(17)
O8A O 0.0427(3) 0.37747(18) 1.09466(17)
O12A O 0.0292(3) 0.0592(2) 1.08018(18)
Tb1A Tb -0.176492(17) 0.550468(12) 0.991688(11)
Tb2A Tb -0.175630(18) -0.044282(12) 1.006386(11)
O23 O 0.4624(3) 0.5975(2) 0.8992(2)
H43 H 0.5288 0.5822 0.9039
H44 H 0.4519 0.6456 0.8942
loop_
_geom_bond_atom_site_label_1
_geom_bond_atom_site_label_2
_geom_bond_site_symmetry_1
_geom_bond_site_symmetry_2
C1 Cu2 1_555 1_555
C2 Cu3 1_555 1_555
C3 Cu1 1_555 1_555
C4 Cu5 1_555 1_555
C5 N5 1_555 1_555
C6 Cu7 1_555 1_555
C7 H1 1_555 1_555
C8 C7 1_555 1_555
H2 C8 1_555 1_555
C9 C8 1_555 1_555
C10 C9 1_555 1_555
H3 C10 1_555 1_555
C11 C10 1_555 1_555
H4 C11 1_555 1_555
C12 C9 1_555 1_555
C13 H5 1_555 1_555
C14 C13 1_555 1_555
H6 C14 1_555 1_555
C15 C14 1_555 1_555
C16 C15 1_555 1_555
H7 C16 1_555 1_555
C17 C16 1_555 1_555
H8 C17 1_555 1_555
C18 C15 1_555 1_555
C19 H9 1_555 1_555
C20 C19 1_555 1_555
H10 C20 1_555 1_555
C21 C20 1_555 1_555
C22 C21 1_555 1_555
H11 C22 1_555 1_555
C23 C22 1_555 1_555
H12 C23 1_555 1_555
C24 C21 1_555 1_555
C25 H13 1_555 1_555
C26 C25 1_555 1_555
H14 C26 1_555 1_555
C27 C26 1_555 1_555
C28 C27 1_555 1_555
H15 C28 1_555 1_555
C29 C28 1_555 1_555
H16 C29 1_555 1_555
C30 C27 1_555 1_555
C31 H17 1_555 1_555
C32 C31 1_555 1_555
H18 C32 1_555 1_555
C33 C32 1_555 1_555
C34 C33 1_555 1_555
H19 C34 1_555 1_555
C35 C34 1_555 1_555
H20 C35 1_555 1_555
C36 C33 1_555 1_555
C37 H21 1_555 1_555
C38 C37 1_555 1_555
H22 C38 1_555 1_555
C39 C38 1_555 1_555
C40 C39 1_555 1_555
H23 C40 1_555 1_555
C41 C40 1_555 1_555
H24 C41 1_555 1_555
C42 C39 1_555 1_555
C43 H25 1_555 1_555
C44 C43 1_555 1_555
H26 C44 1_555 1_555
C45 C44 1_555 1_555
C46 C45 1_555 1_555
H27 C46 1_555 1_555
C47 C46 1_555 1_555
H28 C47 1_555 1_555
C48 C45 1_555 1_555
C49 H29 1_555 1_555
C50 C49 1_555 1_555
H30 C50 1_555 1_555
C51 C50 1_555 1_555
C52 C51 1_555 1_555
H31 C52 1_555 1_555
C53 C52 1_555 1_555
H32 C53 1_555 1_555
C54 C51 1_555 1_555
C55 C56 1_555 1_555
C56 H33 1_555 1_555
H34 C56 1_555 1_555
H35 C56 1_555 1_555
C57 C58 1_555 1_555
C58 H36 1_555 1_555
H37 C58 1_555 1_555
H38 C58 1_555 1_555
Cu1 N1 1_555 1_555
Cu2 N2 1_555 1_555
Cu3 N3_2 1_555 1_555
Cu4 C3 1_555 1_555
Cu5 N5 1_555 1_555
Cu6 N6 1_555 1_555
Cu7 N14 1_555 1_555
N1 C1 1_555 1_555
N2 C2 1_555 1_555
N3 C3 1_555 1_555
N4 C4 1_555 1_555
N6 C6 1_555 1_555
N7 C7 1_555 1_555
N8 C13 1_555 1_555
N9 C19 1_555 1_555
N10 C25 1_555 1_555
N11 C31 1_555 1_555
N12 C37 1_555 1_555
N13 C43 1_555 1_555
N14 C49 1_555 1_555
O1 C12 1_555 1_555
O2 C12 1_555 1_555
O3 C18 1_555 1_555
O4 C18 1_555 1_555
O5 C24 1_555 1_555
O6 C24 1_555 1_555
O7 C30 1_555 1_555
O8 C30 1_555 1_555
O9 C36 1_555 1_555
O10 C36 1_555 1_555
O11 C42 1_555 1_555
O12 C42 1_555 1_555
O13 C48 1_555 1_555
O14 C48 1_555 1_555
O15 C54 1_555 1_555
O16 C54 1_555 1_555
O17 C55 1_555 1_555
O18 C55 1_555 1_555
O19 C57 1_555 1_555
O20 C57 1_555 1_555
O21 H39 1_555 1_555
H40 O21 1_555 1_555
O22 H41 1_555 1_555
H42 O22 1_555 1_555
Tb1 O3 1_555 1_555
Tb2 O2 1_555 1_555
Tb3 O4 1_555 1_555
O23 H43 1_555 1_555
H44 O23 1_555 1_555
C1A Cu2 1_555 1_555
C5_2 Cu6 1_555 1_555
Cu1A N7 1_555 1_555
Cu2A C1 1_555 1_555
Cu3_2 N3 1_555 1_555
Cu3A N9 1_555 1_555
Cu5_2 N11 1_555 1_555
Cu6_2 C5 1_555 1_555
Cu6A N12 1_555 1_555
Cu7_2 N13 1_555 1_555
N7A Cu1 1_555 1_555
N9A Cu3 1_555 1_555
N11_2 Cu5 1_555 1_555
N12A Cu6 1_555 1_555
N13_2 Cu7 1_555 1_555
O1A Tb2 1_555 1_555
O6A Tb1 1_555 1_555
O8A Tb1 1_555 1_555
O12A Tb2 1_555 1_555
Tb1A O6 1_555 1_555
Tb2A O1 1_555 1_555
C11 N7 1_555 1_555
C17 N8 1_555 1_555
C23 N9 1_555 1_555
C29 N10 1_555 1_555
C35 N11 1_555 1_555
C41 N12 1_555 1_555
C47 N13 1_555 1_555
C53 N14 1_555 1_555
Cu2 N8 1_555 1_555
Cu4 N4 1_555 1_555
Cu4 N10 1_555 1_555
O5 Tb1 1_555 1_555
O7 Tb1 1_555 1_555
O8 Tb1A 1_555 1_555
O9 Tb3 1_555 1_555
O10 Tb2 1_555 1_555
O11 Tb2 1_555 1_555
O12 Tb2A 1_555 1_555
O13 Tb3 1_555 1_555
O14 Tb1 1_555 1_555
O15 Tb2 1_555 1_555
O16 Tb3 1_555 1_555
O17 Tb2 1_555 1_555
O17 Tb3 1_555 1_555
O18 Tb1 1_555 1_555
O18 Tb3 1_555 1_555
O19 Tb3 1_555 1_555
O20 Tb3 1_555 1_555
O21 Tb1 1_555 1_555
O22 Tb2 1_555 1_555
C1A Cu2A 1_555 1_555

#END
