
#######################################################################
#
#                 Cambridge Crystallographic Data Centre
#                                CCDC 
#
#######################################################################
#
# If this CIF has been generated from an entry in the Cambridge 
# Structural Database, then it will include bibliographic, chemical, 
# crystal, experimental, refinement or atomic coordinate data resulting 
# from the CCDC's data processing and validation procedures.
#
#######################################################################

data_PIWRAQ
_symmetry_cell_setting           triclinic
_symmetry_space_group_name_H-M   'P -1'
_symmetry_Int_Tables_number      2
_space_group_name_Hall           '-P 1'
loop_
_symmetry_equiv_pos_site_id
_symmetry_equiv_pos_as_xyz
1 x,y,z
2 -x,-y,-z
_cell_length_a                   9.896(2)
_cell_length_b                   16.210(4)
_cell_length_c                   18.443(4)
_cell_angle_alpha                92.002(3)
_cell_angle_beta                 103.580(3)
_cell_angle_gamma                92.510(3)
_cell_volume                     2869.93
loop_
_atom_site_label
_atom_site_type_symbol
_atom_site_fract_x
_atom_site_fract_y
_atom_site_fract_z
O21 O 0.1972(8) 0.2718(4) 0.5860(4)
H41 H 0.1985 0.2333 0.5561
H42 H 0.2605 0.2691 0.6237
O22 O 0.0995(9) 0.7682(4) 0.4457(5)
H43 H 0.0553 0.7465 0.4753
H44 H 0.0952 0.7313 0.4111
C1 C 0.6636(14) 0.0631(8) 0.0294(7)
C2 C 1.0591(9) 0.3082(5) -0.0047(4)
C3 C -0.0405(9) 0.1085(6) 0.7993(5)
H1 H -0.1192 0.1005 0.8181
C4 C -0.0535(8) 0.0921(5) 0.7237(4)
H2 H -0.1393 0.0753 0.6927
C5 C 0.0635(8) 0.1013(4) 0.6952(4)
C6 C 0.1842(8) 0.1330(5) 0.7430(4)
H3 H 0.2635 0.1435 0.7252
C7 C 0.1879(9) 0.1493(5) 0.8172(4)
H4 H 0.2705 0.1714 0.8484
C8 C 0.0630(8) 0.0749(4) 0.6154(4)
C9 C 0.5604(8) 0.0205(5) 0.1939(4)
H5 H 0.6408 0.0100 0.1781
C10 C 0.5646(8) 0.0175(5) 0.2688(4)
H6 H 0.6466 0.0055 0.3024
C11 C 0.4477(7) 0.0323(4) 0.2939(4)
C12 C 0.3287(8) 0.0506(5) 0.2409(4)
H7 H 0.2473 0.0619 0.2554
C13 C 0.3325(9) 0.0519(6) 0.1669(4)
H8 H 0.2520 0.0631 0.1319
C14 C 0.4444(8) 0.0288(4) 0.3747(4)
C15 C 0.1037(10) 0.2227(6) 0.1946(5)
H9 H 0.1439 0.2564 0.1647
C16 C 0.1512(10) 0.2344(6) 0.2707(4)
H10 H 0.2202 0.2750 0.2913
C17 C 0.0928(8) 0.1836(5) 0.3161(4)
C18 C -0.0074(9) 0.1246(5) 0.2818(4)
H11 H -0.0470 0.0888 0.3103
C19 C -0.0493(9) 0.1186(6) 0.2051(5)
H12 H -0.1187 0.0787 0.1832
C20 C 0.1484(9) 0.1905(5) 0.4000(4)
C21 C 1.1401(9) 0.4693(5) 0.1997(4)
H13 H 1.0490 0.4858 0.1874
C22 C 1.2107(8) 0.4758(5) 0.2733(4)
H14 H 1.1661 0.4939 0.3096
C23 C 1.3486(8) 0.4553(4) 0.2936(4)
C24 C 1.4061(9) 0.4259(6) 0.2362(4)
H15 H 1.4978 0.4105 0.2465
C25 C 1.3265(10) 0.4199(6) 0.1646(5)
H16 H 1.3668 0.4001 0.1271
C26 C 1.4337(8) 0.4637(4) 0.3729(4)
C27 C 0.9586(10) 0.6642(5) 0.2053(5)
H17 H 1.0203 0.6945 0.1842
C28 C 1.0021(9) 0.6436(5) 0.2783(5)
H18 H 1.0917 0.6595 0.3054
C29 C 0.9122(8) 0.5992(5) 0.3117(4)
C30 C 0.7806(9) 0.5791(6) 0.2692(5)
H19 H 0.7166 0.5498 0.2896
C31 C 0.7433(10) 0.6023(7) 0.1963(5)
H20 H 0.6531 0.5895 0.1685
C32 C 0.9591(8) 0.5698(4) 0.3883(4)
C33 C 1.2000(11) 0.6564(7) 0.8130(5)
H21 H 1.1414 0.6219 0.8326
C34 C 1.1867(10) 0.6532(6) 0.7367(5)
H22 H 1.1207 0.6163 0.7065
C35 C 1.2684(8) 0.7030(4) 0.7050(4)
C36 C 1.3644(10) 0.7553(6) 0.7530(5)
H23 H 1.4231 0.7907 0.7342
C37 C 1.3744(10) 0.7557(6) 0.8297(5)
H24 H 1.4404 0.7915 0.8610
C38 C 1.2591(8) 0.6991(5) 0.6214(4)
C39 C 1.3969(10) 0.7903(7) 1.1085(5)
H25 H 1.4209 0.8335 1.0812
C40 C 1.4276(10) 0.8010(6) 1.1861(5)
H26 H 1.4727 0.8496 1.2099
C41 C 1.3898(8) 0.7382(5) 1.2263(4)
C42 C 1.3241(10) 0.6689(6) 1.1882(5)
H27 H 1.2963 0.6255 1.2140
C43 C 1.2990(11) 0.6629(6) 1.1120(5)
H28 H 1.2540 0.6148 1.0871
C44 C 1.4258(11) 0.7464(7) 1.3116(5)
Cl1 Cl 0.3385(2) 0.16912(14) 0.00691(12)
Cl2 Cl 0.8527(2) 0.47145(13) 0.04238(11)
Cl3 Cl 1.4350(3) 0.37739(18) -0.00480(16)
Cu1 Cu 0.10626(14) 0.12446(8) -0.04067(6)
Cu2 Cu 0.44255(11) 0.04696(7) 0.03253(5)
Cu3 Cu 0.91772(13) 0.15961(8) 0.04561(6)
Cu4 Cu 1.08054(13) 0.42572(7) 0.03792(6)
Cu5 Cu 1.19812(15) 0.35593(10) -0.05194(7)
Cu6 Cu 1.5000 0.5000 0.0000
Cu7 Cu 1.31467(16) 0.70929(10) 0.96570(6)
N1 N -0.0195(9) -0.0324(4) 0.0062(5)
N2 N 0.7323(11) 0.0951(6) 0.0369(5)
N3 N 1.0011(9) 0.2481(5) 0.0042(4)
N4 N 0.0782(7) 0.1349(4) 0.8466(4)
N5 N 0.4479(7) 0.0376(4) 0.1432(3)
N6 N 0.0040(8) 0.1665(5) 0.1602(4)
N7 N 1.1942(7) 0.4408(4) 0.1453(3)
N8 N 0.8341(8) 0.6432(5) 0.1639(4)
N9 N 1.2932(8) 0.7067(5) 0.8596(4)
N10 N 1.3361(8) 0.7230(5) 1.0718(4)
O1 O -0.0464(5) 0.0393(3) 0.5767(3)
O2 O 0.1738(5) 0.0866(3) 0.5953(3)
O3 O 0.5518(5) 0.0091(3) 0.4195(3)
O4 O 0.3316(5) 0.0451(3) 0.3904(3)
O5 O 0.2233(7) 0.2520(3) 0.4271(3)
O6 O 0.1130(5) 0.1318(3) 0.4367(3)
O7 O 1.3733(5) 0.4937(3) 0.4200(3)
O8 O 1.5546(5) 0.4423(3) 0.3852(3)
O9 O 1.0842(5) 0.5863(3) 0.4225(3)
O10 O 0.8745(5) 0.5281(3) 0.4146(3)
O11 O 1.1881(5) 0.6389(3) 0.5830(3)
O12 O 1.3242(7) 0.7546(3) 0.5971(3)
O13 O 1.5264(9) 0.7955(5) 1.3399(3)
O14 O 1.3541(8) 0.7024(5) 1.3435(3)
O15 O 1.3771(5) 0.6546(3) 0.4812(3)
H29 H 1.3936 0.6962 0.5117
H30 H 1.3668 0.6739 0.4383
O16 O 1.3574(4) 0.3986(2) 0.5458(2)
H31 H 1.2996 0.3574 0.5420
H32 H 1.4342 0.3805 0.5408
O17 O 1.1090(4) 0.4122(2) 0.4297(2)
H33 H 1.0425 0.3848 0.4412
H34 H 1.1839 0.3891 0.4485
O18 O 0.4023(5) 0.1472(3) 0.5249(3)
H35 H 0.3780 0.1895 0.5002
H36 H 0.4352 0.1655 0.5696
O19 O 0.3075(6) -0.1115(3) 0.4508(3)
H37 H 0.2773 -0.1591 0.4589
H38 H 0.3578 -0.0924 0.4922
O20 O 0.1775(5) -0.0884(3) 0.5740(3)
H39 H 0.0920 -0.1016 0.5707
H40 H 0.2183 -0.1337 0.5804
Tb1 Tb 1.25840(4) 0.52773(2) 0.510387(18)
Tb2 Tb 0.24893(4) 0.02120(2) 0.496984(18)
N1A N 0.0195(9) 0.0324(4) -0.0062(5)
C1A C -0.6636(14) -0.0631(8) -0.0294(7)
C2A C -1.0591(9) -0.3082(5) 0.0047(4)
C3A C 0.0405(9) -0.1085(6) -0.7993(5)
H1A H 0.1192 -0.1005 -0.8181
C4A C 0.0535(8) -0.0921(5) -0.7237(4)
H2A H 0.1393 -0.0753 -0.6927
C5A C -0.0635(8) -0.1013(4) -0.6952(4)
C6A C -0.1842(8) -0.1330(5) -0.7430(4)
H3A H -0.2635 -0.1435 -0.7252
C7A C -0.1879(9) -0.1493(5) -0.8172(4)
H4A H -0.2705 -0.1714 -0.8484
C8A C -0.0630(8) -0.0749(4) -0.6154(4)
C9A C -0.5604(8) -0.0205(5) -0.1939(4)
H5A H -0.6408 -0.0100 -0.1781
C10A C -0.5646(8) -0.0175(5) -0.2688(4)
H6A H -0.6466 -0.0055 -0.3024
C11A C -0.4477(7) -0.0323(4) -0.2939(4)
C12A C -0.3287(8) -0.0506(5) -0.2409(4)
H7A H -0.2473 -0.0619 -0.2554
C13A C -0.3325(9) -0.0519(6) -0.1669(4)
H8A H -0.2520 -0.0631 -0.1319
C14A C -0.4444(8) -0.0288(4) -0.3747(4)
C15A C -0.1037(10) -0.2227(6) -0.1946(5)
H9A H -0.1439 -0.2564 -0.1647
C16A C -0.1512(10) -0.2344(6) -0.2707(4)
H10A H -0.2202 -0.2750 -0.2913
C17A C -0.0928(8) -0.1836(5) -0.3161(4)
C18A C 0.0074(9) -0.1246(5) -0.2818(4)
H11A H 0.0470 -0.0888 -0.3103
C19A C 0.0493(9) -0.1186(6) -0.2051(5)
H12A H 0.1187 -0.0787 -0.1832
C20A C -0.1484(9) -0.1905(5) -0.4000(4)
C21A C -1.1401(9) -0.4693(5) -0.1997(4)
H13A H -1.0490 -0.4858 -0.1874
C22A C -1.2107(8) -0.4758(5) -0.2733(4)
H14A H -1.1661 -0.4939 -0.3096
C23A C -1.3486(8) -0.4553(4) -0.2936(4)
C24A C -1.4061(9) -0.4259(6) -0.2362(4)
H15A H -1.4978 -0.4105 -0.2465
C25A C -1.3265(10) -0.4199(6) -0.1646(5)
H16A H -1.3668 -0.4001 -0.1271
C26A C -1.4337(8) -0.4637(4) -0.3729(4)
C27A C -0.9586(10) -0.6642(5) -0.2053(5)
H17A H -1.0203 -0.6945 -0.1842
C28A C -1.0021(9) -0.6436(5) -0.2783(5)
H18A H -1.0917 -0.6595 -0.3054
C29A C -0.9122(8) -0.5992(5) -0.3117(4)
C30A C -0.7806(9) -0.5791(6) -0.2692(5)
H19A H -0.7166 -0.5498 -0.2896
C31A C -0.7433(10) -0.6023(7) -0.1963(5)
H20A H -0.6531 -0.5895 -0.1685
C32A C -0.9591(8) -0.5698(4) -0.3883(4)
C33A C -1.2000(11) -0.6564(7) -0.8130(5)
H21A H -1.1414 -0.6219 -0.8326
C34A C -1.1867(10) -0.6532(6) -0.7367(5)
H22A H -1.1207 -0.6163 -0.7065
C35A C -1.2684(8) -0.7030(4) -0.7050(4)
C36A C -1.3644(10) -0.7553(6) -0.7530(5)
H23A H -1.4231 -0.7907 -0.7342
C37A C -1.3744(10) -0.7557(6) -0.8297(5)
H24A H -1.4404 -0.7915 -0.8610
C38A C -1.2591(8) -0.6991(5) -0.6214(4)
C39A C -1.3969(10) -0.7903(7) -1.1085(5)
H25A H -1.4209 -0.8335 -1.0812
C40A C -1.4276(10) -0.8010(6) -1.1861(5)
H26A H -1.4727 -0.8496 -1.2099
C41A C -1.3898(8) -0.7382(5) -1.2263(4)
C42A C -1.3241(10) -0.6689(6) -1.1882(5)
H27A H -1.2963 -0.6255 -1.2140
C43A C -1.2990(11) -0.6629(6) -1.1120(5)
H28A H -1.2540 -0.6148 -1.0871
C44A C -1.4258(11) -0.7464(7) -1.3116(5)
Cl1A Cl -0.3385(2) -0.16912(14) -0.00691(12)
Cl2A Cl -0.8527(2) -0.47145(13) -0.04238(11)
Cl3A Cl -1.4350(3) -0.37739(18) 0.00480(16)
Cu1A Cu -0.10626(14) -0.12446(8) 0.04067(6)
Cu2A Cu -0.44255(11) -0.04696(7) -0.03253(5)
Cu3A Cu -0.91772(13) -0.15961(8) -0.04561(6)
Cu4A Cu -1.08054(13) -0.42572(7) -0.03792(6)
Cu5A Cu -1.19812(15) -0.35593(10) 0.05194(7)
Cu7A Cu -1.31467(16) -0.70929(10) -0.96570(6)
N2A N -0.7323(11) -0.0951(6) -0.0369(5)
N3A N -1.0011(9) -0.2481(5) -0.0042(4)
N4A N -0.0782(7) -0.1349(4) -0.8466(4)
N5A N -0.4479(7) -0.0376(4) -0.1432(3)
N6A N -0.0040(8) -0.1665(5) -0.1602(4)
N7A N -1.1942(7) -0.4408(4) -0.1453(3)
N8A N -0.8341(8) -0.6432(5) -0.1639(4)
N9A N -1.2932(8) -0.7067(5) -0.8596(4)
N10A N -1.3361(8) -0.7230(5) -1.0718(4)
O1A O 0.0464(5) -0.0393(3) -0.5767(3)
O2A O -0.1738(5) -0.0866(3) -0.5953(3)
O3A O -0.5518(5) -0.0091(3) -0.4195(3)
O4A O -0.3316(5) -0.0451(3) -0.3904(3)
O5A O -0.2233(7) -0.2520(3) -0.4271(3)
O6A O -0.1130(5) -0.1318(3) -0.4367(3)
O7A O -1.3733(5) -0.4937(3) -0.4200(3)
O8A O -1.5546(5) -0.4423(3) -0.3852(3)
O9A O -1.0842(5) -0.5863(3) -0.4225(3)
O10A O -0.8745(5) -0.5281(3) -0.4146(3)
O11A O -1.1881(5) -0.6389(3) -0.5830(3)
O12A O -1.3242(7) -0.7546(3) -0.5971(3)
O13A O -1.5264(9) -0.7955(5) -1.3399(3)
O14A O -1.3541(8) -0.7024(5) -1.3435(3)
O15A O -1.3771(5) -0.6546(3) -0.4812(3)
H29A H -1.3936 -0.6962 -0.5117
H30A H -1.3668 -0.6739 -0.4383
O16A O -1.3574(4) -0.3986(2) -0.5458(2)
H31A H -1.2996 -0.3574 -0.5420
H32A H -1.4342 -0.3805 -0.5408
O17A O -1.1090(4) -0.4122(2) -0.4297(2)
H33A H -1.0425 -0.3848 -0.4412
H34A H -1.1839 -0.3891 -0.4485
O18A O -0.4023(5) -0.1472(3) -0.5249(3)
H35A H -0.3780 -0.1895 -0.5002
H36A H -0.4352 -0.1655 -0.5696
O19A O -0.3075(6) 0.1115(3) -0.4508(3)
H37A H -0.2773 0.1591 -0.4589
H38A H -0.3578 0.0924 -0.4922
O20A O -0.1775(5) 0.0884(3) -0.5740(3)
H39A H -0.0920 0.1016 -0.5707
H40A H -0.2183 0.1337 -0.5804
Tb1A Tb -1.25840(4) -0.52773(2) -0.510387(18)
Tb2A Tb -0.24893(4) -0.02120(2) -0.496984(18)
C1_2 C -0.3364(14) 0.0631(8) 0.0294(7)
C1A_2 C 0.3364(14) -0.0631(8) -0.0294(7)
Cl2_2 Cl -1.1473(2) -0.52855(13) 0.04238(11)
Cl2A_2 Cl 1.1473(2) 0.52855(13) -0.04238(11)
Cl3_2 Cl -1.5650(3) -0.62261(18) -1.00480(16)
Cl3A_2 Cl 1.5650(3) 0.62261(18) 0.00480(16)
Cl3A_3 Cl 1.5650(3) 0.62261(18) 1.00480(16)
Cu1_2 Cu 0.10626(14) 0.12446(8) 0.95933(6)
Cu1_3 Cu 1.10626(14) 0.12446(8) -0.04067(6)
Cu1A_2 Cu -1.10626(14) -0.12446(8) 0.04067(6)
Cu1A_3 Cu -0.10626(14) -0.12446(8) -0.95933(6)
Cu2_2 Cu -0.55745(11) 0.04696(7) 0.03253(5)
Cu2A_2 Cu 0.55745(11) -0.04696(7) -0.03253(5)
Cu3_2 Cu -0.08228(13) 0.15961(8) 0.04561(6)
Cu3A_2 Cu 0.08228(13) -0.15961(8) -0.04561(6)
Cu4_2 Cu -0.91946(13) -0.57428(7) 0.03792(6)
Cu4A_2 Cu 0.91946(13) 0.57428(7) -0.03792(6)
Cu5_2 Cu -0.80188(15) -0.64407(10) -0.05194(7)
Cu5A_2 Cu 0.80188(15) 0.64407(10) 0.05194(7)
Cu6_2 Cu -1.5000 -0.5000 0.0000
Cu7_2 Cu -1.68533(16) -0.29071(10) -0.03430(6)
Cu7A_2 Cu 1.68533(16) 0.29071(10) 0.03430(6)
N1_2 N -1.0195(9) -0.0324(4) 0.0062(5)
N1A_2 N 1.0195(9) 0.0324(4) -0.0062(5)
N3_2 N 0.0011(9) 0.2481(5) 0.0042(4)
N3A_2 N -0.0011(9) -0.2481(5) -0.0042(4)
N4_2 N 0.0782(7) 0.1349(4) -0.1534(4)
N4A_2 N -0.0782(7) -0.1349(4) 0.1534(4)
N6_2 N 1.0040(8) 0.1665(5) 0.1602(4)
N6A_2 N -1.0040(8) -0.1665(5) -0.1602(4)
N8_2 N -1.1659(8) -0.3568(5) 0.1639(4)
N8A_2 N 1.1659(8) 0.3568(5) -0.1639(4)
O1_2 O -0.0464(5) 0.0393(3) -0.4233(3)
O1A_2 O 0.0464(5) -0.0393(3) 0.4233(3)
O3_2 O -0.4482(5) 0.0091(3) -0.5805(3)
O3A_2 O 0.4482(5) -0.0091(3) 0.5805(3)
O8_2 O -1.4454(5) -0.5577(3) -0.6148(3)
O8A_2 O 1.4454(5) 0.5577(3) 0.6148(3)
O10_2 O -1.1255(5) -0.4719(3) -0.5854(3)
O10A_2 O 1.1255(5) 0.4719(3) 0.5854(3)
Tb1_2 Tb -1.74160(4) -0.47227(2) -0.489613(18)
Tb1_3 Tb -0.74160(4) -0.47227(2) -0.489613(18)
Tb1A_2 Tb 0.74160(4) 0.47227(2) 0.489613(18)
Tb1A_3 Tb 1.74160(4) 0.47227(2) 0.489613(18)
Tb2_2 Tb -0.75107(4) 0.02120(2) -0.503016(18)
Tb2_3 Tb 0.24893(4) 0.02120(2) -0.503016(18)
Tb2A_2 Tb -0.24893(4) -0.02120(2) 0.503016(18)
Tb2A_3 Tb 0.75107(4) -0.02120(2) 0.503016(18)
Cu8? Cu 1.624(2) 0.4826(7) 0.0184(6)
C45? C 0.0195(9) 0.0324(4) -0.0062(5)
loop_
_geom_bond_atom_site_label_1
_geom_bond_atom_site_label_2
_geom_bond_site_symmetry_1
_geom_bond_site_symmetry_2
C1 Cu2 1_555 1_555
C2 Cu4 1_555 1_555
C3 H1 1_555 1_555
C4 C3 1_555 1_555
H2 C4 1_555 1_555
C5 C4 1_555 1_555
C6 C5 1_555 1_555
H3 C6 1_555 1_555
C7 C6 1_555 1_555
H4 C7 1_555 1_555
C8 C5 1_555 1_555
C9 H5 1_555 1_555
C10 C9 1_555 1_555
H6 C10 1_555 1_555
C11 C10 1_555 1_555
C12 C11 1_555 1_555
H7 C12 1_555 1_555
C13 C12 1_555 1_555
H8 C13 1_555 1_555
C14 C11 1_555 1_555
C15 H9 1_555 1_555
C16 C15 1_555 1_555
H10 C16 1_555 1_555
C17 C16 1_555 1_555
C18 C17 1_555 1_555
H11 C18 1_555 1_555
C19 C18 1_555 1_555
H12 C19 1_555 1_555
C20 C17 1_555 1_555
C21 H13 1_555 1_555
C22 C21 1_555 1_555
H14 C22 1_555 1_555
C23 C22 1_555 1_555
C24 C23 1_555 1_555
H15 C24 1_555 1_555
C25 C24 1_555 1_555
H16 C25 1_555 1_555
C26 C23 1_555 1_555
C27 H17 1_555 1_555
C28 C27 1_555 1_555
H18 C28 1_555 1_555
C29 C28 1_555 1_555
C30 C29 1_555 1_555
H19 C30 1_555 1_555
C31 C30 1_555 1_555
H20 C31 1_555 1_555
C32 C29 1_555 1_555
C33 H21 1_555 1_555
C34 C33 1_555 1_555
H22 C34 1_555 1_555
C35 C34 1_555 1_555
C36 C35 1_555 1_555
H23 C36 1_555 1_555
C37 C36 1_555 1_555
H24 C37 1_555 1_555
C38 C35 1_555 1_555
C39 H25 1_555 1_555
C40 C39 1_555 1_555
H26 C40 1_555 1_555
C41 C40 1_555 1_555
C42 C41 1_555 1_555
H27 C42 1_555 1_555
C43 C42 1_555 1_555
H28 C43 1_555 1_555
C44 C41 1_555 1_555
Cl1 Cu1 1_555 1_555
Cl2 Cu4 1_555 1_555
Cl3 Cu5 1_555 1_555
Cu1 N1A 1_555 1_555
Cu2 Cl1 1_555 1_555
Cu3 N2 1_555 1_555
Cu4 N7 1_555 1_555
Cu5 C2 1_555 1_555
Cu6 Cl3 1_555 1_555
Cu7 N9 1_555 1_555
N1 N1A 1_555 1_555
N2 C1 1_555 1_555
N3 C2 1_555 1_555
N4 C3 1_555 1_555
N5 C9 1_555 1_555
N6 C15 1_555 1_555
N7 C21 1_555 1_555
N8 C27 1_555 1_555
N9 C33 1_555 1_555
N10 C39 1_555 1_555
O1 C8 1_555 1_555
O2 C8 1_555 1_555
O3 C14 1_555 1_555
O4 C14 1_555 1_555
O5 C20 1_555 1_555
O6 C20 1_555 1_555
O7 C26 1_555 1_555
O8 C26 1_555 1_555
O9 C32 1_555 1_555
O10 C32 1_555 1_555
O11 C38 1_555 1_555
O12 C38 1_555 1_555
O13 C44 1_555 1_555
O14 C44 1_555 1_555
O15 H29 1_555 1_555
H30 O15 1_555 1_555
O16 H31 1_555 1_555
H32 O16 1_555 1_555
O17 H33 1_555 1_555
H34 O17 1_555 1_555
O18 H35 1_555 1_555
H36 O18 1_555 1_555
O19 H37 1_555 1_555
H38 O19 1_555 1_555
O20 H39 1_555 1_555
H40 O20 1_555 1_555
Tb1 O7 1_555 1_555
Tb2 O2 1_555 1_555
O21 H41 1_555 1_555
H42 O21 1_555 1_555
O22 H43 1_555 1_555
H44 O22 1_555 1_555
N1A Cu3_2 1_555 1_555
C1A Cu2A 1_555 1_555
C2A Cu4A 1_555 1_555
C3A H1A 1_555 1_555
C4A C3A 1_555 1_555
H2A C4A 1_555 1_555
C5A C4A 1_555 1_555
C6A C5A 1_555 1_555
H3A C6A 1_555 1_555
C7A C6A 1_555 1_555
H4A C7A 1_555 1_555
C8A C5A 1_555 1_555
C9A H5A 1_555 1_555
C10A C9A 1_555 1_555
H6A C10A 1_555 1_555
C11A C10A 1_555 1_555
C12A C11A 1_555 1_555
H7A C12A 1_555 1_555
C13A C12A 1_555 1_555
H8A C13A 1_555 1_555
C14A C11A 1_555 1_555
C15A H9A 1_555 1_555
C16A C15A 1_555 1_555
H10A C16A 1_555 1_555
C17A C16A 1_555 1_555
C18A C17A 1_555 1_555
H11A C18A 1_555 1_555
C19A C18A 1_555 1_555
H12A C19A 1_555 1_555
C20A C17A 1_555 1_555
C21A H13A 1_555 1_555
C22A C21A 1_555 1_555
H14A C22A 1_555 1_555
C23A C22A 1_555 1_555
C24A C23A 1_555 1_555
H15A C24A 1_555 1_555
C25A C24A 1_555 1_555
H16A C25A 1_555 1_555
C26A C23A 1_555 1_555
C27A H17A 1_555 1_555
C28A C27A 1_555 1_555
H18A C28A 1_555 1_555
C29A C28A 1_555 1_555
C30A C29A 1_555 1_555
H19A C30A 1_555 1_555
C31A C30A 1_555 1_555
H20A C31A 1_555 1_555
C32A C29A 1_555 1_555
C33A H21A 1_555 1_555
C34A C33A 1_555 1_555
H22A C34A 1_555 1_555
C35A C34A 1_555 1_555
C36A C35A 1_555 1_555
H23A C36A 1_555 1_555
C37A C36A 1_555 1_555
H24A C37A 1_555 1_555
C38A C35A 1_555 1_555
C39A H25A 1_555 1_555
C40A C39A 1_555 1_555
H26A C40A 1_555 1_555
C41A C40A 1_555 1_555
C42A C41A 1_555 1_555
H27A C42A 1_555 1_555
C43A C42A 1_555 1_555
H28A C43A 1_555 1_555
C44A C41A 1_555 1_555
Cl1A Cu1A 1_555 1_555
Cl2A Cu4A 1_555 1_555
Cl3A Cu5A 1_555 1_555
Cu1A N1 1_555 1_555
Cu2A Cl1A 1_555 1_555
Cu3A N2A 1_555 1_555
Cu4A N7A 1_555 1_555
Cu5A C2A 1_555 1_555
Cu7A N9A 1_555 1_555
N2A C1A 1_555 1_555
N3A C2A 1_555 1_555
N4A C3A 1_555 1_555
N5A C9A 1_555 1_555
N6A C15A 1_555 1_555
N7A C21A 1_555 1_555
N8A C27A 1_555 1_555
N9A C33A 1_555 1_555
N10A C39A 1_555 1_555
O1A C8A 1_555 1_555
O2A C8A 1_555 1_555
O3A C14A 1_555 1_555
O4A C14A 1_555 1_555
O5A C20A 1_555 1_555
O6A C20A 1_555 1_555
O7A C26A 1_555 1_555
O8A C26A 1_555 1_555
O9A C32A 1_555 1_555
O10A C32A 1_555 1_555
O11A C38A 1_555 1_555
O12A C38A 1_555 1_555
O13A C44A 1_555 1_555
O14A C44A 1_555 1_555
O15A H29A 1_555 1_555
H30A O15A 1_555 1_555
O16A H31A 1_555 1_555
H32A O16A 1_555 1_555
O17A H33A 1_555 1_555
H34A O17A 1_555 1_555
O18A H35A 1_555 1_555
H36A O18A 1_555 1_555
O19A H37A 1_555 1_555
H38A O19A 1_555 1_555
O20A H39A 1_555 1_555
H40A O20A 1_555 1_555
Tb1A O7A 1_555 1_555
Tb2A O2A 1_555 1_555
C1_2 Cu2A 1_555 1_555
C1A_2 Cu2 1_555 1_555
Cl2_2 Cu4A 1_555 1_555
Cl2A_2 Cu4 1_555 1_555
Cl3_2 Cu7A 1_555 1_555
Cl3A_2 Cu6 1_555 1_555
Cl3A_3 Cu7 1_555 1_555
Cu1_2 N4 1_555 1_555
Cu1_3 N3 1_555 1_555
Cu1A_2 N3A 1_555 1_555
Cu1A_3 N4A 1_555 1_555
Cu2_2 C1A 1_555 1_555
Cu2A_2 C1 1_555 1_555
Cu3_2 N6 1_555 1_555
Cu3A_2 N1 1_555 1_555
Cu4_2 Cl2A 1_555 1_555
Cu4A_2 Cl2 1_555 1_555
Cu5_2 Cl2A 1_555 1_555
Cu5A_2 Cl2 1_555 1_555
Cu6_2 Cl3A 1_555 1_555
Cu7_2 Cl3A 1_555 1_555
Cu7A_2 Cl3 1_555 1_555
N1_2 Cu3A 1_555 1_555
N1A_2 Cu3 1_555 1_555
N3_2 Cu1 1_555 1_555
N3A_2 Cu1A 1_555 1_555
N4_2 Cu1 1_555 1_555
N4A_2 Cu1A 1_555 1_555
N6_2 Cu3 1_555 1_555
N6A_2 Cu3A 1_555 1_555
N8_2 Cu5A 1_555 1_555
N8A_2 Cu5 1_555 1_555
O1_2 Tb2A 1_555 1_555
O1A_2 Tb2 1_555 1_555
O3_2 Tb2A 1_555 1_555
O3A_2 Tb2 1_555 1_555
O8_2 Tb1A 1_555 1_555
O8A_2 Tb1 1_555 1_555
O10_2 Tb1A 1_555 1_555
O10A_2 Tb1 1_555 1_555
Tb1_2 O8A 1_555 1_555
Tb1_3 O10A 1_555 1_555
Tb1A_2 O10 1_555 1_555
Tb1A_3 O8 1_555 1_555
Tb2_2 O3A 1_555 1_555
Tb2_3 O1A 1_555 1_555
Tb2A_2 O1 1_555 1_555
Tb2A_3 O3 1_555 1_555
C7 N4 1_555 1_555
C13 N5 1_555 1_555
C19 N6 1_555 1_555
C25 N7 1_555 1_555
C31 N8 1_555 1_555
C37 N9 1_555 1_555
C43 N10 1_555 1_555
Cu2 N5 1_555 1_555
Cu3 N3 1_555 1_555
Cu5 Cl2A_2 1_555 1_555
Cu7 N10 1_555 1_555
N8 Cu5A_2 1_555 1_555
O4 Tb2 1_555 1_555
O6 Tb2 1_555 1_555
O9 Tb1 1_555 1_555
O11 Tb1 1_555 1_555
O15 Tb1 1_555 1_555
O16 Tb1 1_555 1_555
O17 Tb1 1_555 1_555
O18 Tb2 1_555 1_555
O19 Tb2 1_555 1_555
O20 Tb2 1_555 1_555
C7A N4A 1_555 1_555
C13A N5A 1_555 1_555
C19A N6A 1_555 1_555
C25A N7A 1_555 1_555
C31A N8A 1_555 1_555
C37A N9A 1_555 1_555
C43A N10A 1_555 1_555
Cu2A N5A 1_555 1_555
Cu3A N3A 1_555 1_555
Cu5A Cl2_2 1_555 1_555
Cu7A N10A 1_555 1_555
N6A Cu3A_2 1_555 1_555
N8A Cu5_2 1_555 1_555
O4A Tb2A 1_555 1_555
O6A Tb2A 1_555 1_555
O9A Tb1A 1_555 1_555
O11A Tb1A 1_555 1_555
O15A Tb1A 1_555 1_555
O16A Tb1A 1_555 1_555
O17A Tb1A 1_555 1_555
O18A Tb2A 1_555 1_555
O19A Tb2A 1_555 1_555
O20A Tb2A 1_555 1_555
C1_2 Cu2_2 1_555 1_555
C1A_2 Cu2A_2 1_555 1_555
Cl2_2 Cu4_2 1_555 1_555
Cl2A_2 Cu4A_2 1_555 1_555
Cu1_3 N1A_2 1_555 1_555
Cu1A_2 N1_2 1_555 1_555
Cu3_2 N3_2 1_555 1_555
Cu3A_2 N3A_2 1_555 1_555

#END
