
#######################################################################
#
#                 Cambridge Crystallographic Data Centre
#                                CCDC 
#
#######################################################################
#
# If this CIF has been generated from an entry in the Cambridge 
# Structural Database, then it will include bibliographic, chemical, 
# crystal, experimental, refinement or atomic coordinate data resulting 
# from the CCDC's data processing and validation procedures.
#
#######################################################################

data_PIWROE
_symmetry_cell_setting           triclinic
_symmetry_space_group_name_H-M   'P -1'
_symmetry_Int_Tables_number      2
_space_group_name_Hall           '-P 1'
loop_
_symmetry_equiv_pos_site_id
_symmetry_equiv_pos_as_xyz
1 x,y,z
2 -x,-y,-z
_cell_length_a                   11.7096(9)
_cell_length_b                   12.7197(10)
_cell_length_c                   18.5102(15)
_cell_angle_alpha                108.9560(10)
_cell_angle_beta                 95.6490(10)
_cell_angle_gamma                97.9160(10)
_cell_volume                     2552.25
loop_
_atom_site_label
_atom_site_type_symbol
_atom_site_fract_x
_atom_site_fract_y
_atom_site_fract_z
O19 O 0.0931(10) 0.1348(11) 0.6833(6)
H33 H 0.0252 0.1405 0.6949
H34 H 0.0854 0.0940 0.6360
C1 C -0.1151(5) 0.6009(6) 0.0334(3)
C2 C -0.0089(6) -0.0400(5) 0.0097(3)
C3 C 0.4818(9) 0.7504(8) 0.9753(4)
C4 C 0.2926(6) 0.1755(5) 0.1357(3)
H1 H 0.2519 0.2070 0.1046
C5 C 0.3481(6) 0.2457(5) 0.2080(3)
H2 H 0.3450 0.3224 0.2250
C6 C 0.4088(5) 0.1995(5) 0.2553(3)
C7 C 0.4146(6) 0.0871(5) 0.2265(3)
H3 H 0.4579 0.0545 0.2554
C8 C 0.3553(6) 0.0231(5) 0.1541(4)
H4 H 0.3576 -0.0537 0.1360
C9 C 0.4622(5) 0.2689(5) 0.3375(3)
C10 C 0.2535(6) 0.0392(5) 0.8786(3)
H5 H 0.2504 0.1091 0.9146
C11 C 0.2719(6) 0.0332(5) 0.8051(3)
H6 H 0.2832 0.0988 0.7928
C12 C 0.2735(5) -0.0691(5) 0.7500(3)
C13 C 0.2598(6) -0.1619(5) 0.7721(3)
H7 H 0.2618 -0.2326 0.7367
C14 C 0.2429(6) -0.1511(5) 0.8472(3)
H8 H 0.2334 -0.2155 0.8610
C15 C 0.2935(5) -0.0794(5) 0.6691(3)
C16 C -0.0069(6) 0.5794(6) 0.2092(4)
H9 H -0.0377 0.6398 0.2025
C17 C 0.0571(6) 0.5947(5) 0.2799(4)
H10 H 0.0669 0.6638 0.3198
C18 C 0.1057(5) 0.5090(5) 0.2914(3)
C19 C 0.0861(6) 0.4085(5) 0.2314(3)
H11 H 0.1170 0.3476 0.2372
C20 C 0.0203(6) 0.3973(6) 0.1622(4)
H12 H 0.0078 0.3281 0.1222
C21 C 0.1778(5) 0.5243(5) 0.3674(3)
C22 C 0.1109(7) -0.1147(5) 0.2112(4)
H13 H 0.1124 -0.1915 0.1900
C23 C 0.1709(6) -0.0562(5) 0.2846(3)
H14 H 0.2115 -0.0928 0.3119
C24 C 0.1695(5) 0.0580(5) 0.3169(3)
C25 C 0.1069(5) 0.1078(5) 0.2744(3)
H15 H 0.1034 0.1842 0.2944
C26 C 0.0496(6) 0.0420(5) 0.2017(4)
H16 H 0.0073 0.0764 0.1736
C27 C 0.2411(5) 0.1267(5) 0.3944(3)
C28 C 0.3230(7) 0.4002(6) 0.8457(4)
H17 H 0.3091 0.3628 0.8804
C29 C 0.3127(6) 0.3361(5) 0.7688(3)
H18 H 0.2908 0.2579 0.7524
C30 C 0.3351(5) 0.3891(5) 0.7169(3)
C31 C 0.3635(7) 0.5054(5) 0.7437(3)
H19 H 0.3764 0.5444 0.7097
C32 C 0.3724(8) 0.5626(6) 0.8219(4)
H20 H 0.3941 0.6409 0.8398
C33 C 0.3370(5) 0.3228(5) 0.6325(3)
C34 C 0.5575(7) 0.2565(6) 0.8627(4)
H21 H 0.5245 0.2094 0.8874
C35 C 0.5527(7) 0.2136(6) 0.7840(3)
H22 H 0.5182 0.1388 0.7568
C36 C 0.5990(5) 0.2815(5) 0.7452(3)
C37 C 0.6463(6) 0.3909(6) 0.7883(3)
H23 H 0.6763 0.4404 0.7645
C38 C 0.6496(7) 0.4282(6) 0.8681(4)
H24 H 0.6832 0.5028 0.8968
C39 C 0.5886(5) 0.2332(5) 0.6579(3)
C40 C 0.1493(5) -0.0966(5) 0.5042(3)
C41 C 0.0358(6) -0.1745(6) 0.4904(5)
H25 H 0.0172 -0.1795 0.5387
H26 H 0.0414 -0.2481 0.4563
H27 H -0.0245 -0.1460 0.4674
C42 C 0.1789(5) 0.5274(5) 0.5545(3)
C43 C 0.0935(6) 0.5847(6) 0.6015(4)
H28 H 0.0160 0.5560 0.5733
H29 H 0.1120 0.6647 0.6121
H30 H 0.0978 0.5701 0.6494
Cu1 Cu 0.21699(9) -0.04834(8) 1.00682(4)
Cu2 Cu -0.12699(8) 0.45612(7) 0.04080(5)
Cu3 Cu -0.02280(9) -0.15509(7) 0.05335(5)
Cu4 Cu 0.37834(10) 0.60202(10) 0.98288(5)
Cu5 Cu 0.5000 1.0000 1.0000
Tb1 Tb 0.34621(2) -0.26771(2) 0.509451(14)
Tb2 Tb 0.37023(2) 0.04845(2) 0.542128(14)
Tb3 Tb 0.34547(2) 0.41763(2) 0.474164(14)
N1 N -0.0931(6) 0.6935(5) 0.0378(3)
N2 N 0.4911(7) 0.8368(8) 0.9827(4)
N3 N 0.2943(5) 0.0653(4) 0.1079(3)
N4 N 0.2400(5) -0.0515(4) 0.9001(3)
N5 N -0.0261(5) 0.4821(5) 0.1504(3)
N6 N 0.0510(5) -0.0676(4) 0.1692(3)
N7 N 0.3515(5) 0.5117(5) 0.8734(3)
N8 N 0.6063(5) 0.3608(5) 0.9050(3)
O1 O 0.4443(4) 0.3675(3) 0.3635(2)
O2 O 0.5163(4) 0.2194(3) 0.3743(2)
O3 O 0.3436(4) 0.0061(3) 0.6584(2)
O4 O 0.2598(4) -0.1755(3) 0.6184(2)
O5 O 0.1819(3) 0.6156(3) 0.4218(2)
O6 O 0.2301(4) 0.4468(3) 0.3707(2)
O7 O 0.2825(4) 0.0749(3) 0.4337(2)
O8 O 0.2570(4) 0.2322(3) 0.4117(2)
O9 O 0.3320(4) 0.2203(3) 0.6153(2)
O10 O 0.3475(4) 0.3782(3) 0.5886(2)
O11 O 0.5500(4) 0.1291(3) 0.6282(2)
O12 O 0.6171(4) 0.2988(3) 0.6228(2)
O13 O 0.2401(3) -0.1349(3) 0.4786(2)
O14 O 0.1600(4) 0.0054(3) 0.5420(2)
O15 O 0.1530(3) 0.4260(3) 0.5133(2)
O16 O 0.2808(3) 0.5836(3) 0.5581(2)
O17 O 0.4796(3) -0.0977(3) 0.52820(19)
H31 H 0.5054 -0.0803 0.5742
O18 O 0.4584(3) 0.5880(3) 0.47453(19)
H32 H 0.4607 0.5810 0.4292
N9 N -0.1780(5) 0.2978(5) 0.0029(3)
C44 C -0.1914(5) 0.2007(5) -0.0101(3)
C2A C 0.0089(6) 0.0400(5) -0.0097(3)
C1A C 0.1151(5) -0.6009(6) -0.0334(3)
C3A C -0.4818(9) -0.7504(8) -0.9753(4)
C4A C -0.2926(6) -0.1755(5) -0.1357(3)
H1A H -0.2519 -0.2070 -0.1046
C5A C -0.3481(6) -0.2457(5) -0.2080(3)
H2A H -0.3450 -0.3224 -0.2250
C6A C -0.4088(5) -0.1995(5) -0.2553(3)
C7A C -0.4146(6) -0.0871(5) -0.2265(3)
H3A H -0.4579 -0.0545 -0.2554
C8A C -0.3553(6) -0.0231(5) -0.1541(4)
H4A H -0.3576 0.0537 -0.1360
C9A C -0.4622(5) -0.2689(5) -0.3375(3)
C10A C -0.2535(6) -0.0392(5) -0.8786(3)
H5A H -0.2504 -0.1091 -0.9146
C11A C -0.2719(6) -0.0332(5) -0.8051(3)
H6A H -0.2832 -0.0988 -0.7928
C12A C -0.2735(5) 0.0691(5) -0.7500(3)
C13A C -0.2598(6) 0.1619(5) -0.7721(3)
H7A H -0.2618 0.2326 -0.7367
C14A C -0.2429(6) 0.1511(5) -0.8472(3)
H8A H -0.2334 0.2155 -0.8610
C15A C -0.2935(5) 0.0794(5) -0.6691(3)
C16A C 0.0069(6) -0.5794(6) -0.2092(4)
H9A H 0.0377 -0.6398 -0.2025
C17A C -0.0571(6) -0.5947(5) -0.2799(4)
H10A H -0.0669 -0.6638 -0.3198
C18A C -0.1057(5) -0.5090(5) -0.2914(3)
C19A C -0.0861(6) -0.4085(5) -0.2314(3)
H11A H -0.1170 -0.3476 -0.2372
C20A C -0.0203(6) -0.3973(6) -0.1622(4)
H12A H -0.0078 -0.3281 -0.1222
C21A C -0.1778(5) -0.5243(5) -0.3674(3)
C22A C -0.1109(7) 0.1147(5) -0.2112(4)
H13A H -0.1124 0.1915 -0.1900
C23A C -0.1709(6) 0.0562(5) -0.2846(3)
H14A H -0.2115 0.0928 -0.3119
C24A C -0.1695(5) -0.0580(5) -0.3169(3)
C25A C -0.1069(5) -0.1078(5) -0.2744(3)
H15A H -0.1034 -0.1842 -0.2944
C26A C -0.0496(6) -0.0420(5) -0.2017(4)
H16A H -0.0073 -0.0764 -0.1736
C27A C -0.2411(5) -0.1267(5) -0.3944(3)
C28A C -0.3230(7) -0.4002(6) -0.8457(4)
H17A H -0.3091 -0.3628 -0.8804
C29A C -0.3127(6) -0.3361(5) -0.7688(3)
H18A H -0.2908 -0.2579 -0.7524
C30A C -0.3351(5) -0.3891(5) -0.7169(3)
C31A C -0.3635(7) -0.5054(5) -0.7437(3)
H19A H -0.3764 -0.5444 -0.7097
C32A C -0.3724(8) -0.5626(6) -0.8219(4)
H20A H -0.3941 -0.6409 -0.8398
C33A C -0.3370(5) -0.3228(5) -0.6325(3)
C34A C -0.5575(7) -0.2565(6) -0.8627(4)
H21A H -0.5245 -0.2094 -0.8874
C35A C -0.5527(7) -0.2136(6) -0.7840(3)
H22A H -0.5182 -0.1388 -0.7568
C36A C -0.5990(5) -0.2815(5) -0.7452(3)
C37A C -0.6463(6) -0.3909(6) -0.7883(3)
H23A H -0.6763 -0.4404 -0.7645
C38A C -0.6496(7) -0.4282(6) -0.8681(4)
H24A H -0.6832 -0.5028 -0.8968
C39A C -0.5886(5) -0.2332(5) -0.6579(3)
C40A C -0.1493(5) 0.0966(5) -0.5042(3)
C41A C -0.0358(6) 0.1745(6) -0.4904(5)
H25A H -0.0172 0.1795 -0.5387
H26A H -0.0414 0.2481 -0.4563
H27A H 0.0245 0.1460 -0.4674
C42A C -0.1789(5) -0.5274(5) -0.5545(3)
C43A C -0.0935(6) -0.5847(6) -0.6015(4)
H28A H -0.0160 -0.5560 -0.5733
H29A H -0.1120 -0.6647 -0.6121
H30A H -0.0978 -0.5701 -0.6494
Cu1A Cu -0.21699(9) 0.04834(8) -1.00682(4)
Cu2A Cu 0.12699(8) -0.45612(7) -0.04080(5)
Cu3A Cu 0.02280(9) 0.15509(7) -0.05335(5)
Cu4A Cu -0.37834(10) -0.60202(10) -0.98288(5)
Tb1A Tb -0.34621(2) 0.26771(2) -0.509451(14)
Tb2A Tb -0.37023(2) -0.04845(2) -0.542128(14)
Tb3A Tb -0.34547(2) -0.41763(2) -0.474164(14)
N1A N 0.0931(6) -0.6935(5) -0.0378(3)
N2A N -0.4911(7) -0.8368(8) -0.9827(4)
N3A N -0.2943(5) -0.0653(4) -0.1079(3)
N4A N -0.2400(5) 0.0515(4) -0.9001(3)
N5A N 0.0261(5) -0.4821(5) -0.1504(3)
N6A N -0.0510(5) 0.0676(4) -0.1692(3)
N7A N -0.3515(5) -0.5117(5) -0.8734(3)
N8A N -0.6063(5) -0.3608(5) -0.9050(3)
O1A O -0.4443(4) -0.3675(3) -0.3635(2)
O2A O -0.5163(4) -0.2194(3) -0.3743(2)
O3A O -0.3436(4) -0.0061(3) -0.6584(2)
O4A O -0.2598(4) 0.1755(3) -0.6184(2)
O5A O -0.1819(3) -0.6156(3) -0.4218(2)
O6A O -0.2301(4) -0.4468(3) -0.3707(2)
O7A O -0.2825(4) -0.0749(3) -0.4337(2)
O8A O -0.2570(4) -0.2322(3) -0.4117(2)
O9A O -0.3320(4) -0.2203(3) -0.6153(2)
O10A O -0.3475(4) -0.3782(3) -0.5886(2)
O11A O -0.5500(4) -0.1291(3) -0.6282(2)
O12A O -0.6171(4) -0.2988(3) -0.6228(2)
O13A O -0.2401(3) 0.1349(3) -0.4786(2)
O14A O -0.1600(4) -0.0054(3) -0.5420(2)
O15A O -0.1530(3) -0.4260(3) -0.5133(2)
O16A O -0.2808(3) -0.5836(3) -0.5581(2)
O17A O -0.4796(3) 0.0977(3) -0.52820(19)
H31A H -0.5054 0.0803 -0.5742
O18A O -0.4584(3) -0.5880(3) -0.47453(19)
H32A H -0.4607 -0.5810 -0.4292
N9A N 0.1780(5) -0.2978(5) -0.0029(3)
C44A C 0.1914(5) -0.2007(5) 0.0101(3)
Cu1_2 Cu 0.21699(9) -0.04834(8) 0.00682(4)
Cu1A_2 Cu -0.21699(9) 0.04834(8) -0.00682(4)
Cu2_2 Cu -0.12699(8) -0.54388(7) -0.95920(5)
Cu2A_2 Cu 0.12699(8) 0.54388(7) 0.95920(5)
Cu3_2 Cu -0.02280(9) 0.84491(7) 0.05335(5)
Cu3A_2 Cu 0.02280(9) -0.84491(7) -0.05335(5)
Cu4_2 Cu -0.62166(10) -0.39798(10) -1.01712(5)
Cu4_3 Cu 0.37834(10) -0.39798(10) -0.01712(5)
Cu4A_2 Cu -0.37834(10) 0.39798(10) 0.01712(5)
Cu4A_3 Cu 0.62166(10) 0.39798(10) 1.01712(5)
Cu5_2 Cu -0.5000 -1.0000 -1.0000
Tb1_2 Tb -0.65379(2) -0.26771(2) -0.490549(14)
Tb1_3 Tb 0.34621(2) 0.73229(2) 0.509451(14)
Tb1A_2 Tb -0.34621(2) -0.73229(2) -0.509451(14)
Tb1A_3 Tb 0.65379(2) 0.26771(2) 0.490549(14)
Tb2_2 Tb -0.62977(2) 0.04845(2) -0.457872(14)
Tb2A_2 Tb 0.62977(2) -0.04845(2) 0.457872(14)
Tb3_2 Tb -0.65453(2) -0.58237(2) -0.525836(14)
Tb3A_2 Tb 0.65453(2) 0.58237(2) 0.525836(14)
N1_2 N -0.0931(6) -0.3065(5) 0.0378(3)
N1A_2 N 0.0931(6) 0.3065(5) -0.0378(3)
N2A_2 N 0.5089(7) 1.1632(8) 1.0173(4)
N3_2 N 0.2943(5) 0.0653(4) 1.1079(3)
N3A_2 N -0.2943(5) -0.0653(4) -1.1079(3)
N8_2 N -0.3937(5) -0.6392(5) -1.0950(3)
N8A_2 N 0.3937(5) 0.6392(5) 1.0950(3)
O2_2 O -0.4837(4) 0.2194(3) -0.6257(2)
O2A_2 O 0.4837(4) -0.2194(3) 0.6257(2)
O5_2 O 0.1819(3) -0.3844(3) 0.4218(2)
O5A_2 O -0.1819(3) 0.3844(3) -0.4218(2)
O12_2 O -0.3829(4) 0.2988(3) -0.3772(2)
O12A_2 O 0.3829(4) -0.2988(3) 0.3772(2)
O16_2 O 0.2808(3) -0.4164(3) 0.5581(2)
O16A_2 O -0.2808(3) 0.4164(3) -0.5581(2)
O17_2 O -0.5204(3) -0.0977(3) -0.47180(19)
O17A_2 O 0.5204(3) 0.0977(3) 0.47180(19)
O18_2 O -0.5416(3) -0.4120(3) -0.52547(19)
O18_3 O 0.4584(3) -0.4120(3) 0.47453(19)
O18A_2 O -0.4584(3) 0.4120(3) -0.47453(19)
O18A_3 O 0.5416(3) 0.4120(3) 0.52547(19)
C44_2 C -0.1914(5) 0.2007(5) -1.0101(3)
C44A_2 C 0.1914(5) -0.2007(5) 1.0101(3)
N10? N 0.0089(6) 0.0400(5) -0.0097(3)
loop_
_geom_bond_atom_site_label_1
_geom_bond_atom_site_label_2
_geom_bond_site_symmetry_1
_geom_bond_site_symmetry_2
C1 Cu2 1_555 1_555
C2 Cu3 1_555 1_555
C3 Cu4 1_555 1_555
C4 H1 1_555 1_555
C5 C4 1_555 1_555
H2 C5 1_555 1_555
C6 C5 1_555 1_555
C7 C6 1_555 1_555
H3 C7 1_555 1_555
C8 C7 1_555 1_555
H4 C8 1_555 1_555
C9 C6 1_555 1_555
C10 H5 1_555 1_555
C11 C10 1_555 1_555
H6 C11 1_555 1_555
C12 C11 1_555 1_555
C13 C12 1_555 1_555
H7 C13 1_555 1_555
C14 C13 1_555 1_555
H8 C14 1_555 1_555
C15 C12 1_555 1_555
C16 H9 1_555 1_555
C17 C16 1_555 1_555
H10 C17 1_555 1_555
C18 C17 1_555 1_555
C19 C18 1_555 1_555
H11 C19 1_555 1_555
C20 C19 1_555 1_555
H12 C20 1_555 1_555
C21 C18 1_555 1_555
C22 H13 1_555 1_555
C23 C22 1_555 1_555
H14 C23 1_555 1_555
C24 C23 1_555 1_555
C25 C24 1_555 1_555
H15 C25 1_555 1_555
C26 C25 1_555 1_555
H16 C26 1_555 1_555
C27 C24 1_555 1_555
C28 H17 1_555 1_555
C29 C28 1_555 1_555
H18 C29 1_555 1_555
C30 C29 1_555 1_555
C31 C30 1_555 1_555
H19 C31 1_555 1_555
C32 C31 1_555 1_555
H20 C32 1_555 1_555
C33 C30 1_555 1_555
C34 H21 1_555 1_555
C35 C34 1_555 1_555
H22 C35 1_555 1_555
C36 C35 1_555 1_555
C37 C36 1_555 1_555
H23 C37 1_555 1_555
C38 C37 1_555 1_555
H24 C38 1_555 1_555
C39 C36 1_555 1_555
C40 C41 1_555 1_555
C41 H25 1_555 1_555
H26 C41 1_555 1_555
H27 C41 1_555 1_555
C42 C43 1_555 1_555
C43 H28 1_555 1_555
H29 C43 1_555 1_555
H30 C43 1_555 1_555
Cu1 N4 1_555 1_555
Cu2 N5 1_555 1_555
Cu3 N6 1_555 1_555
Cu4 N7 1_555 1_555
Cu5 N2 1_555 1_555
Tb1 O4 1_555 1_555
Tb2 O3 1_555 1_555
Tb3 O1 1_555 1_555
N1 C1 1_555 1_555
N2 C3 1_555 1_555
N3 C4 1_555 1_555
N4 C10 1_555 1_555
N5 C16 1_555 1_555
N6 C22 1_555 1_555
N7 C28 1_555 1_555
N8 C34 1_555 1_555
O1 C9 1_555 1_555
O2 C9 1_555 1_555
O3 C15 1_555 1_555
O4 C15 1_555 1_555
O5 C21 1_555 1_555
O6 C21 1_555 1_555
O7 C27 1_555 1_555
O8 C27 1_555 1_555
O9 C33 1_555 1_555
O10 C33 1_555 1_555
O11 C39 1_555 1_555
O12 C39 1_555 1_555
O13 C40 1_555 1_555
O14 C40 1_555 1_555
O15 C42 1_555 1_555
O16 C42 1_555 1_555
O17 Tb1 1_555 1_555
H31 O17 1_555 1_555
O18 Tb3 1_555 1_555
H32 O18 1_555 1_555
N9 Cu2 1_555 1_555
C44 N9 1_555 1_555
O19 H33 1_555 1_555
H34 O19 1_555 1_555
C2A C2 1_555 1_555
C1A Cu2A 1_555 1_555
C3A Cu4A 1_555 1_555
C4A H1A 1_555 1_555
C5A C4A 1_555 1_555
H2A C5A 1_555 1_555
C6A C5A 1_555 1_555
C7A C6A 1_555 1_555
H3A C7A 1_555 1_555
C8A C7A 1_555 1_555
H4A C8A 1_555 1_555
C9A C6A 1_555 1_555
C10A H5A 1_555 1_555
C11A C10A 1_555 1_555
H6A C11A 1_555 1_555
C12A C11A 1_555 1_555
C13A C12A 1_555 1_555
H7A C13A 1_555 1_555
C14A C13A 1_555 1_555
H8A C14A 1_555 1_555
C15A C12A 1_555 1_555
C16A H9A 1_555 1_555
C17A C16A 1_555 1_555
H10A C17A 1_555 1_555
C18A C17A 1_555 1_555
C19A C18A 1_555 1_555
H11A C19A 1_555 1_555
C20A C19A 1_555 1_555
H12A C20A 1_555 1_555
C21A C18A 1_555 1_555
C22A H13A 1_555 1_555
C23A C22A 1_555 1_555
H14A C23A 1_555 1_555
C24A C23A 1_555 1_555
C25A C24A 1_555 1_555
H15A C25A 1_555 1_555
C26A C25A 1_555 1_555
H16A C26A 1_555 1_555
C27A C24A 1_555 1_555
C28A H17A 1_555 1_555
C29A C28A 1_555 1_555
H18A C29A 1_555 1_555
C30A C29A 1_555 1_555
C31A C30A 1_555 1_555
H19A C31A 1_555 1_555
C32A C31A 1_555 1_555
H20A C32A 1_555 1_555
C33A C30A 1_555 1_555
C34A H21A 1_555 1_555
C35A C34A 1_555 1_555
H22A C35A 1_555 1_555
C36A C35A 1_555 1_555
C37A C36A 1_555 1_555
H23A C37A 1_555 1_555
C38A C37A 1_555 1_555
H24A C38A 1_555 1_555
C39A C36A 1_555 1_555
C40A C41A 1_555 1_555
C41A H25A 1_555 1_555
H26A C41A 1_555 1_555
H27A C41A 1_555 1_555
C42A C43A 1_555 1_555
C43A H28A 1_555 1_555
H29A C43A 1_555 1_555
H30A C43A 1_555 1_555
Cu1A N4A 1_555 1_555
Cu2A N5A 1_555 1_555
Cu3A C2A 1_555 1_555
Cu4A N7A 1_555 1_555
Tb1A O4A 1_555 1_555
Tb2A O3A 1_555 1_555
Tb3A O1A 1_555 1_555
N1A C1A 1_555 1_555
N2A C3A 1_555 1_555
N3A C4A 1_555 1_555
N4A C10A 1_555 1_555
N5A C16A 1_555 1_555
N6A C22A 1_555 1_555
N7A C28A 1_555 1_555
N8A C34A 1_555 1_555
O1A C9A 1_555 1_555
O2A C9A 1_555 1_555
O3A C15A 1_555 1_555
O4A C15A 1_555 1_555
O5A C21A 1_555 1_555
O6A C21A 1_555 1_555
O7A C27A 1_555 1_555
O8A C27A 1_555 1_555
O9A C33A 1_555 1_555
O10A C33A 1_555 1_555
O11A C39A 1_555 1_555
O12A C39A 1_555 1_555
O13A C40A 1_555 1_555
O14A C40A 1_555 1_555
O15A C42A 1_555 1_555
O16A C42A 1_555 1_555
O17A Tb1A 1_555 1_555
H31A O17A 1_555 1_555
O18A Tb3A 1_555 1_555
H32A O18A 1_555 1_555
N9A Cu2A 1_555 1_555
C44A N9A 1_555 1_555
Cu1_2 N3 1_555 1_555
Cu1A_2 C44 1_555 1_555
Cu2_2 Cu4A 1_555 1_555
Cu2A_2 Cu4 1_555 1_555
Cu3_2 N1 1_555 1_555
Cu3A_2 N1A 1_555 1_555
Cu4_2 N8A 1_555 1_555
Cu4_3 Cu2A 1_555 1_555
Cu4A_2 Cu2 1_555 1_555
Cu4A_3 N8 1_555 1_555
Cu5_2 N2A 1_555 1_555
Tb1_2 O2A 1_555 1_555
Tb1_3 O5 1_555 1_555
Tb1A_2 O5A 1_555 1_555
Tb1A_3 O2 1_555 1_555
Tb2_2 O17A 1_555 1_555
Tb2A_2 O17 1_555 1_555
Tb3_2 O18A 1_555 1_555
Tb3A_2 O18 1_555 1_555
N1_2 Cu3 1_555 1_555
N1A_2 Cu3A 1_555 1_555
N2A_2 Cu5 1_555 1_555
N3_2 Cu1 1_555 1_555
N3A_2 Cu1A 1_555 1_555
N8_2 Cu4A 1_555 1_555
N8A_2 Cu4 1_555 1_555
O2_2 Tb1A 1_555 1_555
O2A_2 Tb1 1_555 1_555
O5_2 Tb1 1_555 1_555
O5A_2 Tb1A 1_555 1_555
O12_2 Tb1A 1_555 1_555
O12A_2 Tb1 1_555 1_555
O16_2 Tb1 1_555 1_555
O16A_2 Tb1A 1_555 1_555
O17_2 Tb2A 1_555 1_555
O17A_2 Tb2 1_555 1_555
O18_2 Tb3A 1_555 1_555
O18_3 Tb1 1_555 1_555
O18A_2 Tb1A 1_555 1_555
O18A_3 Tb3 1_555 1_555
C44_2 Cu1A 1_555 1_555
C44A_2 Cu1 1_555 1_555
C8 N3 1_555 1_555
C14 N4 1_555 1_555
C20 N5 1_555 1_555
C26 N6 1_555 1_555
C32 N7 1_555 1_555
C38 N8 1_555 1_555
Tb1 O13 1_555 1_555
Tb2 O7 1_555 1_555
Tb2 O9 1_555 1_555
Tb2 O11 1_555 1_555
Tb2 O13 1_555 1_555
Tb2 O14 1_555 1_555
Tb2 O17 1_555 1_555
Tb3 O6 1_555 1_555
Tb3 O8 1_555 1_555
Tb3 O10 1_555 1_555
Tb3 O15 1_555 1_555
Tb3 O16 1_555 1_555
O12 Tb1A_3 1_555 1_555
O16 Tb1_3 1_555 1_555
O18 Tb1_3 1_555 1_555
C8A N3A 1_555 1_555
C14A N4A 1_555 1_555
C20A N5A 1_555 1_555
C26A N6A 1_555 1_555
C32A N7A 1_555 1_555
C38A N8A 1_555 1_555
Cu3A N6A 1_555 1_555
Tb1A O13A 1_555 1_555
Tb2A O7A 1_555 1_555
Tb2A O9A 1_555 1_555
Tb2A O11A 1_555 1_555
Tb2A O13A 1_555 1_555
Tb2A O14A 1_555 1_555
Tb2A O17A 1_555 1_555
Tb3A O6A 1_555 1_555
Tb3A O8A 1_555 1_555
Tb3A O10A 1_555 1_555
Tb3A O15A 1_555 1_555
Tb3A O16A 1_555 1_555
N3A Cu1A_2 1_555 1_555
O12A Tb1_2 1_555 1_555
O16A Tb1A_2 1_555 1_555
O18A Tb1A_2 1_555 1_555
C44A Cu1_2 1_555 1_555
Tb1_2 O17_2 1_555 1_555
Tb1_2 O18_2 1_555 1_555
Tb1A_3 O17A_2 1_555 1_555
Tb1A_3 O18A_3 1_555 1_555
Tb2_2 O17_2 1_555 1_555
Tb2A_2 O17A_2 1_555 1_555
Tb3_2 O18_2 1_555 1_555
Tb3A_2 O18A_3 1_555 1_555

#END
