
#######################################################################
#
#                 Cambridge Crystallographic Data Centre
#                                CCDC 
#
#######################################################################
#
# If this CIF has been generated from an entry in the Cambridge 
# Structural Database, then it will include bibliographic, chemical, 
# crystal, experimental, refinement or atomic coordinate data resulting 
# from the CCDC's data processing and validation procedures.
#
#######################################################################

data_PIWWAT
_symmetry_cell_setting           monoclinic
_symmetry_space_group_name_H-M   'P 21/c'
_symmetry_Int_Tables_number      14
_space_group_name_Hall           '-P 2ybc'
loop_
_symmetry_equiv_pos_site_id
_symmetry_equiv_pos_as_xyz
1 x,y,z
2 -x,1/2+y,1/2-z
3 -x,-y,-z
4 x,1/2-y,1/2+z
_cell_length_a                   21.022(3)
_cell_length_b                   19.034(3)
_cell_length_c                   10.771(2)
_cell_angle_alpha                90
_cell_angle_beta                 99.63(2)
_cell_angle_gamma                90
_cell_volume                     4249.1
loop_
_atom_site_label
_atom_site_type_symbol
_atom_site_fract_x
_atom_site_fract_y
_atom_site_fract_z
V1 V 0.8344(1) 0.2085(1) 0.2527(2)
V2 V 0.8345(1) 0.1027(1) -0.2052(2)
V3 V 0.8272(1) -0.2924(1) 0.1270(2)
V4 V 0.8327(1) -0.1045(1) 0.0863(2)
P1 P 0.7834(2) -0.0655(2) -0.2223(2)
P2 P 0.7860(2) 0.0662(2) 0.0739(3)
P3 P 0.7784(2) -0.1808(2) 0.3186(3)
P4 P 0.7847(2) 0.1813(2) 0.5275(3)
O1 O 0.9016(5) -0.2959(5) 0.1603(7)
O2 O 0.9094(4) 0.2071(4) 0.2744(7)
O3 O 0.9072(5) -0.1069(5) 0.1228(9)
O4 O 0.8071(6) 0.0889(4) -0.0473(7)
O5 O 0.9084(5) 0.1003(5) -0.1834(9)
O6 O 0.8074(4) -0.2016(3) 0.0452(6)
O7 O 0.8132(5) -0.0903(4) -0.0926(7)
O8 O 0.8029(4) -0.1677(4) 0.4573(6)
O9 O 0.8117(4) 0.2990(3) 0.3190(6)
O10 O 0.8074(4) 0.1685(4) 0.4026(6)
O11 O 0.8062(4) 0.0063(4) -0.2525(6)
O12 O 0.7989(5) -0.1213(4) 0.2424(6)
O13 O 0.8066(5) 0.1213(4) 0.6149(6)
O14 O 0.8087(4) 0.1167(4) 0.1812(6)
O15 O 0.7974(4) -0.2527(3) 0.2773(6)
O16 O 0.8069(4) -0.0073(4) 0.1120(6)
O17 O 0.7969(4) -0.1169(4) -0.3227(6)
O18 O 0.8060(4) 0.2527(3) 0.5826(6)
C1 C 0.6989(7) -0.0633(7) -0.2351(12)
C2 C 0.6664(10) -0.1207(11) -0.1933(16)
C3 C 0.6002(12) -0.1205(14) -0.2080(20)
C4 C 0.5672(14) -0.0643(13) -0.2557(21)
C5 C 0.5953(13) -0.0082(16) -0.3009(22)
C6 C 0.6610(11) -0.0074(12) -0.2835(17)
C7 C 0.7014(7) 0.0679(8) 0.0512(12)
C8 C 0.6666(9) 0.0143(9) 0.0878(14)
C9 C 0.6009(12) 0.0179(13) 0.0754(19)
C10 C 0.5698(14) 0.0765(14) 0.0266(22)
C11 C 0.6006(12) 0.1285(14) -0.0188(21)
C12 C 0.6676(10) 0.1257(10) -0.0078(16)
C13 C 0.6936(7) -0.1794(7) 0.2981(12)
C14 C 0.6625(10) -0.1627(10) 0.3980(18)
C15 C 0.5971(12) -0.1596(12) 0.3743(22)
C16 C 0.5600(14) -0.1709(12) 0.2615(23)
C17 C 0.5899(11) -0.1863(11) 0.1612(21)
C18 C 0.6568(8) -0.1887(8) 0.1812(15)
C19 C 0.6993(6) 0.1802(6) 0.4973(11)
C20 C 0.6655(8) 0.1875(8) 0.5974(15)
C21 C 0.5982(11) 0.1862(10) 0.5756(20)
C22 C 0.5670(11) 0.1773(11) 0.4566(19)
C23 C 0.5982(10) 0.1713(10) 0.3589(19)
C24 C 0.6635(8) 0.1718(8) 0.3773(15)
H1 H 0.6904 -0.1601 -0.1545
H2 H 0.5777 -0.1608 -0.1837
H3 H 0.5214 -0.0637 -0.2582
H4 H 0.5701 0.0295 -0.3435
H5 H 0.6821 0.0343 -0.3063
H6 H 0.6885 -0.0272 0.1231
H7 H 0.5770 -0.0209 0.1013
H8 H 0.5241 0.0803 0.0249
H9 H 0.5771 0.1679 -0.0589
H10 H 0.6905 0.1632 -0.0406
H11 H 0.6862 -0.1536 0.4805
H12 H 0.5755 -0.1487 0.4437
H13 H 0.5138 -0.1681 0.2516
H14 H 0.5653 -0.1952 0.0794
H15 H 0.6782 -0.1971 0.1105
H16 H 0.6885 0.1934 0.6815
H17 H 0.5745 0.1916 0.6439
H18 H 0.5207 0.1751 0.4416
H19 H 0.5742 0.1666 0.2753
H20 H 0.6855 0.1663 0.3066
O18C O 0.8060(4) 0.2473(3) 0.0826(6)
O9C O 0.8117(4) 0.2010(3) -0.1810(6)
O13_2 O 0.8066(5) 0.1213(4) -0.3851(6)
O8C O 0.8029(4) -0.3323(4) -0.0427(6)
O17C O 0.7969(4) -0.3831(4) 0.1773(6)
V3C V 0.8272(1) -0.2076(1) 0.6270(2)
V2C V 0.8345(1) 0.3973(1) 0.2948(2)
V2_2 V 0.8345(1) 0.1027(1) 0.7948(2)
V3C_2 V 0.8272(1) -0.2076(1) -0.3730(2)
V1C V 0.8344(1) 0.2915(1) 0.7527(2)
C25 C 0.0001(11) 0.5975(10) 0.3983(18)
C26 C -0.0011(10) 0.5500(10) 0.3041(18)
C27 C -0.0017(9) 0.7200(8) 0.4670(15)
C28 C -0.0033(9) 0.7941(8) 0.4313(16)
N1 N -0.0027(8) 0.6707(8) 0.3912(14)
H21 H -0.0358 0.5847 0.4382
H22 H 0.0397 0.5878 0.4544
H23 H 0.0015 0.5034 0.3387
H24 H 0.0349 0.5580 0.2616
H25 H -0.0406 0.5549 0.2454
H26 H -0.0384 0.7130 0.5079
H27 H 0.0372 0.7140 0.5270
H28 H -0.0022 0.8227 0.5050
H29 H -0.0422 0.8036 0.3731
H30 H 0.0334 0.8047 0.3923
C29 C 0.2493(9) 0.5043(10) 0.0936(16)
C30 C 0.1102(11) 0.4950(13) 0.0289(20)
N2 N 0.1898(9) 0.4888(10) 0.0252(17)
H31 H 0.2824 0.4885 0.0486
H32 H 0.2542 0.4810 0.1737
H33 H 0.2530 0.5541 0.1064
H34 H 0.0735 0.5084 0.0659
H35 H 0.1101 0.4450 0.0175
H36 H 0.1080 0.5177 -0.0513
loop_
_geom_bond_atom_site_label_1
_geom_bond_atom_site_label_2
_geom_bond_site_symmetry_1
_geom_bond_site_symmetry_2
V1 O2 1_555 1_555
V2 O4 1_555 1_555
V3 O1 1_555 1_555
V4 O3 1_555 1_555
P1 O7 1_555 1_555
P2 O4 1_555 1_555
P3 O8 1_555 1_555
P4 O10 1_555 1_555
O5 V2 1_555 1_555
O6 V3 1_555 1_555
O7 V4 1_555 1_555
O8 V3C 1_555 1_555
O9 V1 1_555 1_555
O10 V1 1_555 1_555
O11 V2 1_555 1_555
O12 V4 1_555 1_555
O13 P4 1_555 1_555
O14 V1 1_555 1_555
O15 V3 1_555 1_555
O16 V4 1_555 1_555
O17 P1 1_555 1_555
O18 P4 1_555 1_555
C1 P1 1_555 1_555
C2 C1 1_555 1_555
C3 C2 1_555 1_555
C4 C3 1_555 1_555
C5 C4 1_555 1_555
C6 C1 1_555 1_555
C7 P2 1_555 1_555
C8 C7 1_555 1_555
C9 C8 1_555 1_555
C10 C9 1_555 1_555
C11 C10 1_555 1_555
C12 C7 1_555 1_555
C13 P3 1_555 1_555
C14 C13 1_555 1_555
C15 C14 1_555 1_555
C16 C15 1_555 1_555
C17 C16 1_555 1_555
C18 C13 1_555 1_555
C19 P4 1_555 1_555
C20 C19 1_555 1_555
C21 C20 1_555 1_555
C22 C21 1_555 1_555
C23 C22 1_555 1_555
C24 C19 1_555 1_555
C25 C26 1_555 1_555
C26 H23 1_555 1_555
C27 C28 1_555 1_555
C28 H28 1_555 1_555
C29 N2 1_555 1_555
C30 N2 1_555 1_555
N1 C25 1_555 1_555
H1 C2 1_555 1_555
H2 C3 1_555 1_555
H3 C4 1_555 1_555
H4 C5 1_555 1_555
H5 C6 1_555 1_555
H6 C8 1_555 1_555
H7 C9 1_555 1_555
H8 C10 1_555 1_555
H9 C11 1_555 1_555
H10 C12 1_555 1_555
H11 C14 1_555 1_555
H12 C15 1_555 1_555
H13 C16 1_555 1_555
H14 C17 1_555 1_555
H15 C18 1_555 1_555
H16 C20 1_555 1_555
H17 C21 1_555 1_555
H18 C22 1_555 1_555
H19 C23 1_555 1_555
H20 C24 1_555 1_555
H21 C25 1_555 1_555
H22 C25 1_555 1_555
H24 C26 1_555 1_555
H25 C26 1_555 1_555
H26 C27 1_555 1_555
H27 C27 1_555 1_555
H29 C28 1_555 1_555
H30 C28 1_555 1_555
H31 C29 1_555 1_555
H32 C29 1_555 1_555
H33 C29 1_555 1_555
H34 C30 1_555 1_555
H35 C30 1_555 1_555
H36 C30 1_555 1_555
O18C V1 1_555 1_555
O9C V2 1_555 1_555
O13_2 V2 1_555 1_555
O8C V3 1_555 1_555
O17C V3 1_555 1_555
V2C O9 1_555 1_555
V2_2 O13 1_555 1_555
V3C_2 O17 1_555 1_555
V1C O18 1_555 1_555
V4 O6 1_555 1_555
P1 O11 1_555 1_555
P2 O14 1_555 1_555
P2 O16 1_555 1_555
P3 O12 1_555 1_555
P3 O15 1_555 1_555
C5 C6 1_555 1_555
C11 C12 1_555 1_555
C17 C18 1_555 1_555
C23 C24 1_555 1_555
C27 N1 1_555 1_555

#END
