
#######################################################################
#
#                 Cambridge Crystallographic Data Centre
#                                CCDC 
#
#######################################################################
#
# If this CIF has been generated from an entry in the Cambridge 
# Structural Database, then it will include bibliographic, chemical, 
# crystal, experimental, refinement or atomic coordinate data resulting 
# from the CCDC's data processing and validation procedures.
#
#######################################################################

data_PIXBEE
_symmetry_cell_setting           triclinic
_symmetry_space_group_name_H-M   'P -1'
_symmetry_Int_Tables_number      2
_space_group_name_Hall           '-P 1'
loop_
_symmetry_equiv_pos_site_id
_symmetry_equiv_pos_as_xyz
1 x,y,z
2 -x,-y,-z
_cell_length_a                   5.581(4)
_cell_length_b                   12.071(8)
_cell_length_c                   12.878(10)
_cell_angle_alpha                92.10(3)
_cell_angle_beta                 96.73(3)
_cell_angle_gamma                102.02(2)
_cell_volume                     841.034
loop_
_atom_site_label
_atom_site_type_symbol
_atom_site_fract_x
_atom_site_fract_y
_atom_site_fract_z
Cd1 Cd 0.73432(4) -0.12441(2) 0.513430(17)
N1 N -0.4764(6) -0.4443(3) 0.2456(3)
N2 N 0.2019(7) -0.3072(3) 0.0475(3)
N3 N 0.8861(6) -0.1181(3) 0.6923(2)
N4 N 0.4609(6) -0.2498(3) 0.5979(2)
O1 O 0.4502(4) -0.0781(2) 0.38586(19)
O2 O 0.1119(5) -0.0738(2) 0.45661(19)
O3 O -0.2634(5) -0.2688(2) 0.4006(2)
O4 O -0.5307(7) -0.4696(3) 0.3320(3)
O5 O -0.5979(6) -0.4899(3) 0.1642(3)
O6 O 0.0979(7) -0.3757(3) -0.0237(2)
O7 O 0.4040(6) -0.2436(3) 0.0434(2)
C1 C 0.0853(6) -0.2060(3) 0.3089(3)
C2 C -0.1492(6) -0.2763(3) 0.3228(3)
C3 C -0.2476(7) -0.3622(3) 0.2378(3)
C4 C -0.1388(7) -0.3713(3) 0.1488(3)
H1 H -0.2130 -0.4255 0.0951
C5 C 0.0832(7) -0.2983(3) 0.1404(3)
C6 C 0.1972(7) -0.2187(3) 0.2207(3)
H2 H 0.3511 -0.1733 0.2151
C7 C 0.2251(6) -0.1148(3) 0.3895(3)
C8 C 1.1061(8) -0.0542(4) 0.7359(3)
H3 H 1.2117 -0.0155 0.6922
C9 C 1.1796(9) -0.0442(4) 0.8415(4)
H4 H 1.3309 0.0013 0.8692
C10 C 1.0258(9) -0.1027(4) 0.9054(3)
H5 H 1.0722 -0.0975 0.9775
C11 C 0.8009(8) -0.1698(4) 0.8626(3)
H6 H 0.6959 -0.2108 0.9053
C12 C 0.7346(7) -0.1750(3) 0.7549(3)
C13 C 0.4971(7) -0.2454(3) 0.7029(3)
C14 C 0.3219(8) -0.3041(3) 0.7602(3)
H7 H 0.3509 -0.3006 0.8330
C15 C 0.1027(8) -0.3682(4) 0.7078(4)
H8 H -0.0187 -0.4064 0.7452
C16 C 0.0667(8) -0.3748(4) 0.5995(4)
H9 H -0.0779 -0.4180 0.5627
C17 C 0.2503(8) -0.3158(4) 0.5475(3)
H10 H 0.2285 -0.3215 0.4746
Cd1_2 Cd -0.26568(4) -0.12441(2) 0.513430(17)
Cd1A Cd 0.26568(4) 0.12441(2) 0.486570(17)
O2_2 O 1.1119(5) -0.0738(2) 0.45661(19)
O2A O 0.8881(5) 0.0738(2) 0.54339(19)
O3_2 O 0.7366(5) -0.2688(2) 0.4006(2)
loop_
_geom_bond_atom_site_label_1
_geom_bond_atom_site_label_2
_geom_bond_site_symmetry_1
_geom_bond_site_symmetry_2
Cd1 N3 1_555 1_555
N1 O4 1_555 1_555
N2 O6 1_555 1_555
N3 C8 1_555 1_555
N4 Cd1 1_555 1_555
O1 Cd1 1_555 1_555
O2 C7 1_555 1_555
O3 C2 1_555 1_555
O5 N1 1_555 1_555
O7 N2 1_555 1_555
C1 C2 1_555 1_555
C2 C3 1_555 1_555
C3 N1 1_555 1_555
C4 C3 1_555 1_555
H1 C4 1_555 1_555
C5 N2 1_555 1_555
C6 C1 1_555 1_555
H2 C6 1_555 1_555
C7 O1 1_555 1_555
C8 H3 1_555 1_555
C9 C8 1_555 1_555
H4 C9 1_555 1_555
C10 C9 1_555 1_555
H5 C10 1_555 1_555
C11 C10 1_555 1_555
H6 C11 1_555 1_555
C12 N3 1_555 1_555
C13 N4 1_555 1_555
C14 C13 1_555 1_555
H7 C14 1_555 1_555
C15 C14 1_555 1_555
H8 C15 1_555 1_555
C16 C15 1_555 1_555
H9 C16 1_555 1_555
C17 N4 1_555 1_555
H10 C17 1_555 1_555
Cd1_2 O2 1_555 1_555
Cd1A O2 1_555 1_555
O2_2 Cd1 1_555 1_555
O2A Cd1 1_555 1_555
O3_2 Cd1 1_555 1_555
O3 Cd1_2 1_555 1_555
C1 C7 1_555 1_555
C4 C5 1_555 1_555
C5 C6 1_555 1_555
C11 C12 1_555 1_555
C12 C13 1_555 1_555
C16 C17 1_555 1_555

#END
