
#######################################################################
#
#                 Cambridge Crystallographic Data Centre
#                                CCDC 
#
#######################################################################
#
# If this CIF has been generated from an entry in the Cambridge 
# Structural Database, then it will include bibliographic, chemical, 
# crystal, experimental, refinement or atomic coordinate data resulting 
# from the CCDC's data processing and validation procedures.
#
#######################################################################

data_PIXCAC
_symmetry_cell_setting           triclinic
_symmetry_space_group_name_H-M   'P -1'
_symmetry_Int_Tables_number      2
_space_group_name_Hall           '-P 1'
loop_
_symmetry_equiv_pos_site_id
_symmetry_equiv_pos_as_xyz
1 x,y,z
2 -x,-y,-z
_cell_length_a                   7.1278(4)
_cell_length_b                   7.4475(5)
_cell_length_c                   20.5513(13)
_cell_angle_alpha                86.304(5)
_cell_angle_beta                 80.409(5)
_cell_angle_gamma                66.461(6)
_cell_volume                     986.189
loop_
_atom_site_label
_atom_site_type_symbol
_atom_site_fract_x
_atom_site_fract_y
_atom_site_fract_z
Cu1 Cu 0.5000 1.0000 0.0000
Cu2 Cu 0.0000 0.5000 0.5000
Cl1 Cl 0.58248(13) 0.60140(11) -0.11608(4)
O1 O 0.5865(4) 0.6795(3) -0.05401(11)
O2 O 0.7745(5) 0.4430(5) -0.13693(14)
O3 O 0.4225(5) 0.5285(5) -0.10707(15)
O4 O 0.5374(5) 0.7487(4) -0.16548(13)
O5 O -0.2326(6) 0.8394(5) 0.52029(19)
N1 N 0.3397(4) 0.6154(4) 0.34285(12)
N2 N 0.4338(5) 0.6684(5) 0.38779(14)
N3 N 0.3471(5) 0.6458(5) 0.44563(14)
N4 N 0.1980(4) 0.5792(4) 0.44119(13)
N5 N 0.5001(4) 0.8416(4) 0.18800(12)
N6 N 0.7130(4) 0.7692(4) 0.17308(14)
N7 N 0.7588(4) 0.7923(4) 0.11120(13)
N8 N 0.5841(4) 0.8760(4) 0.08355(12)
N9 N 0.0711(4) 0.4830(5) 0.35818(13)
N10 N 0.2305(4) 0.9894(4) 0.11856(13)
N11 N -0.0863(5) 0.4807(6) 0.41144(14)
N12 N 0.2253(4) 1.0112(5) 0.04882(13)
C1 C 0.1971(5) 0.5582(5) 0.37742(15)
C2 C 0.4083(6) 0.6328(5) 0.27167(16)
H1 H 0.3159 0.6112 0.2464
H2 H 0.5465 0.5338 0.2590
C3 C 0.4091(6) 0.8334(5) 0.25664(15)
H3 H 0.2684 0.9315 0.2643
H4 H 0.4885 0.8613 0.2856
C4 C 0.4238(5) 0.9056(4) 0.13145(15)
C5 C 0.0424(8) 0.4657(8) 0.29099(18)
H5 H -0.0310 0.5936 0.2741
H6 H -0.0359 0.3868 0.2904
H7 H 0.1750 0.4053 0.2640
C6 C 0.0433(6) 1.0418(6) 0.16331(17)
H8 H 0.0170 0.9267 0.1761
H9 H -0.0686 1.1328 0.1425
H10 H 0.0544 1.1016 0.2017
H11 H 0.190(5) 0.919(5) 0.0345(15)
H12 H 0.120(5) 1.124(5) 0.0394(17)
H13 H -0.204(6) 0.582(6) 0.4069(18)
H14 H -0.095(7) 0.374(7) 0.408(2)
H15 H -0.220(8) 0.927(5) 0.498(2)
H16 H -0.329(5) 0.861(7) 0.5490(18)
O5A O 0.2326(6) 0.1606(5) 0.47971(19)
N1A N -0.3397(4) 0.3846(4) 0.65715(12)
N2A N -0.4338(5) 0.3316(5) 0.61221(14)
N3A N -0.3471(5) 0.3542(5) 0.55437(14)
N4A N -0.1980(4) 0.4208(4) 0.55881(13)
N5A N -0.5001(4) 0.1584(4) 0.81200(12)
N6A N -0.7130(4) 0.2308(4) 0.82692(14)
N7A N -0.7588(4) 0.2077(4) 0.88880(13)
N8A N -0.5841(4) 0.1240(4) 0.91645(12)
N9A N -0.0711(4) 0.5170(5) 0.64182(13)
N10A N -0.2305(4) 0.0106(4) 0.88144(13)
N11A N 0.0863(5) 0.5193(6) 0.58856(14)
N12A N -0.2253(4) -0.0112(5) 0.95118(13)
C1A C -0.1971(5) 0.4418(5) 0.62258(15)
C2A C -0.4083(6) 0.3672(5) 0.72833(16)
H1A H -0.3159 0.3888 0.7536
H2A H -0.5465 0.4662 0.7410
C3A C -0.4091(6) 0.1666(5) 0.74336(15)
H3A H -0.2684 0.0685 0.7357
H4A H -0.4885 0.1387 0.7144
C4A C -0.4238(5) 0.0944(4) 0.86855(15)
C5A C -0.0424(8) 0.5343(8) 0.70901(18)
H5A H 0.0310 0.4064 0.7259
H6A H 0.0359 0.6132 0.7096
H7A H -0.1750 0.5947 0.7360
C6A C -0.0433(6) -0.0418(6) 0.83669(17)
H8A H -0.0170 0.0733 0.8239
H9A H 0.0686 -0.1328 0.8575
H10A H -0.0544 -0.1016 0.7983
H11A H -0.190(5) 0.081(5) 0.9655(15)
H12A H -0.120(5) -0.124(5) 0.9606(17)
H13A H 0.204(6) 0.418(6) 0.5931(18)
H14A H 0.095(7) 0.626(7) 0.592(2)
H15A H 0.220(8) 0.073(5) 0.502(2)
H16A H 0.329(5) 0.139(7) 0.4510(18)
Cl1A Cl 0.41752(13) 1.39860(11) 0.11608(4)
O1A O 0.4135(4) 1.3205(3) 0.05401(11)
O2A O 0.2255(5) 1.5570(5) 0.13693(14)
O3A O 0.5775(5) 1.4715(5) 0.10707(15)
O4A O 0.4626(5) 1.2513(4) 0.16548(13)
Cu1_2 Cu -0.5000 0.0000 1.0000
N8A_2 N 0.4159(4) 1.1240(4) -0.08355(12)
N12A_2 N 0.7747(4) 0.9888(5) -0.04882(13)
Cl2 Cl 0.7330(5) 0.0824(4) 0.35104(14)
O6 O 0.8340(12) -0.1188(8) 0.3349(4)
O7 O 0.782(2) 0.2021(13) 0.3010(5)
O8 O 0.841(2) 0.0959(16) 0.4092(4)
O9 O 0.5298(13) 0.1305(15) 0.3647(6)
O14 O 0.1074(5) 0.7015(4) 0.00262(16)
H17 H 0.070(9) 0.657(9) 0.040(3)
H18 H 0.192(6) 0.631(6) -0.020(2)
Cl3? Cl 0.7645(6) 0.0710(5) 0.35768(16)
O10? O 0.6588(17) -0.0601(14) 0.3772(5)
O11? O 0.6518(19) 0.1965(18) 0.3082(6)
O12? O 0.667(2) 0.1881(19) 0.4099(6)
O13? O 0.9557(12) 0.001(2) 0.3376(6)
loop_
_geom_bond_atom_site_label_1
_geom_bond_atom_site_label_2
_geom_bond_site_symmetry_1
_geom_bond_site_symmetry_2
Cu1 O1 1_555 1_555
Cu2 O5 1_555 1_555
Cl1 O1 1_555 1_555
O2 Cl1 1_555 1_555
O3 Cl1 1_555 1_555
O4 Cl1 1_555 1_555
O5 H15 1_555 1_555
N1 N2 1_555 1_555
N2 N3 1_555 1_555
N3 N4 1_555 1_555
N4 Cu2 1_555 1_555
N5 N6 1_555 1_555
N6 N7 1_555 1_555
N7 N8 1_555 1_555
N8 Cu1 1_555 1_555
N9 N11 1_555 1_555
N10 N12 1_555 1_555
N11 Cu2 1_555 1_555
N12 Cu1 1_555 1_555
C1 N1 1_555 1_555
C2 N1 1_555 1_555
H1 C2 1_555 1_555
H2 C2 1_555 1_555
C3 N5 1_555 1_555
H3 C3 1_555 1_555
H4 C3 1_555 1_555
C4 N5 1_555 1_555
C5 N9 1_555 1_555
H5 C5 1_555 1_555
H6 C5 1_555 1_555
H7 C5 1_555 1_555
C6 N10 1_555 1_555
H8 C6 1_555 1_555
H9 C6 1_555 1_555
H10 C6 1_555 1_555
H11 N12 1_555 1_555
H12 N12 1_555 1_555
H13 N11 1_555 1_555
H14 N11 1_555 1_555
H16 O5 1_555 1_555
Cl2 O6 1_555 1_555
O7 Cl2 1_555 1_555
O8 Cl2 1_555 1_555
O9 Cl2 1_555 1_555
O14 H17 1_555 1_555
H18 O14 1_555 1_555
O5A Cu2 1_555 1_555
N1A N2A 1_555 1_555
N2A N3A 1_555 1_555
N3A N4A 1_555 1_555
N4A Cu2 1_555 1_555
N5A N6A 1_555 1_555
N6A N7A 1_555 1_555
N7A N8A 1_555 1_555
N8A C4A 1_555 1_555
N9A N11A 1_555 1_555
N10A N12A 1_555 1_555
N11A Cu2 1_555 1_555
N12A H11A 1_555 1_555
C1A N1A 1_555 1_555
C2A N1A 1_555 1_555
H1A C2A 1_555 1_555
H2A C2A 1_555 1_555
C3A N5A 1_555 1_555
H3A C3A 1_555 1_555
H4A C3A 1_555 1_555
C4A N5A 1_555 1_555
C5A N9A 1_555 1_555
H5A C5A 1_555 1_555
H6A C5A 1_555 1_555
H7A C5A 1_555 1_555
C6A N10A 1_555 1_555
H8A C6A 1_555 1_555
H9A C6A 1_555 1_555
H10A C6A 1_555 1_555
H12A N12A 1_555 1_555
H13A N11A 1_555 1_555
H14A N11A 1_555 1_555
H15A O5A 1_555 1_555
H16A O5A 1_555 1_555
Cl1A O1A 1_555 1_555
O1A Cu1 1_555 1_555
O2A Cl1A 1_555 1_555
O3A Cl1A 1_555 1_555
O4A Cl1A 1_555 1_555
Cu1_2 N8A 1_555 1_555
N8A_2 Cu1 1_555 1_555
N12A_2 Cu1 1_555 1_555
N4 C1 1_555 1_555
N8 C4 1_555 1_555
N9 C1 1_555 1_555
N10 C4 1_555 1_555
C2 C3 1_555 1_555
N4A C1A 1_555 1_555
N9A C1A 1_555 1_555
N10A C4A 1_555 1_555
N12A Cu1_2 1_555 1_555
C2A C3A 1_555 1_555

#END
