
#######################################################################
#
#                 Cambridge Crystallographic Data Centre
#                                CCDC 
#
#######################################################################
#
# If this CIF has been generated from an entry in the Cambridge 
# Structural Database, then it will include bibliographic, chemical, 
# crystal, experimental, refinement or atomic coordinate data resulting 
# from the CCDC's data processing and validation procedures.
#
#######################################################################

data_PIXQUK
_symmetry_cell_setting           triclinic
_symmetry_space_group_name_H-M   'P -1'
_symmetry_Int_Tables_number      2
_space_group_name_Hall           '-P 1'
loop_
_symmetry_equiv_pos_site_id
_symmetry_equiv_pos_as_xyz
1 x,y,z
2 -x,-y,-z
_cell_length_a                   10.771(2)
_cell_length_b                   14.620(3)
_cell_length_c                   16.081(3)
_cell_angle_alpha                110.698(3)
_cell_angle_beta                 98.914(3)
_cell_angle_gamma                102.479(3)
_cell_volume                     2237.49
loop_
_atom_site_label
_atom_site_type_symbol
_atom_site_fract_x
_atom_site_fract_y
_atom_site_fract_z
O1 O 0.1727(6) 0.2536(4) 0.7595(4)
O2 O 0.0425(7) 0.3502(6) 0.7798(5)
C1 C -0.7097(9) -0.4567(8) 0.7842(6)
C2 C 0.0026(11) 0.2850(7) 1.5405(7)
O3 O -0.6693(5) -0.5312(4) 0.7517(4)
O4 O -0.8290(6) -0.4552(4) 0.7723(4)
O5 O -0.0671(7) 0.3260(5) 1.5887(4)
O6 O 0.1247(7) 0.2940(5) 1.5715(4)
O7 O -0.0633(6) 0.5336(5) 0.6383(4)
H1 H -0.0404 0.5278 0.5767
H2 H -0.1639 0.5236 0.6179
N1 N -0.1277(7) 0.4711(5) 0.7857(5)
O8 O 0.3854(5) 0.2585(5) 0.6382(6)
H3 H 0.3672 0.1905 0.6271
H4 H 0.3957 0.2624 0.5843
C3 C -0.0885(8) 0.5196(6) 0.8756(7)
H5 H 0.0012 0.5495 0.9023
C4 C -0.2554(9) 0.4285(7) 0.7489(6)
H6 H -0.2853 0.3947 0.6853
C5 C -0.3058(8) 0.4825(6) 0.8948(6)
C6 C -0.3438(8) 0.4321(7) 0.7997(6)
H7 H -0.4325 0.4002 0.7704
C7 C -0.1719(8) 0.5287(7) 0.9325(6)
H8 H -0.1391 0.5655 0.9956
C8 C -0.5226(9) 0.4120(7) 0.9227(6)
H9 H -0.5373 0.3520 0.8713
C9 C -0.4033(8) 0.4919(7) 0.9500(5)
C10 C -0.3844(8) 0.5777(7) 1.0288(6)
H10 H -0.3059 0.6301 1.0494
Zn1 Zn -0.00022(9) 0.44815(7) 0.70276(6)
Zn2 Zn 0.24024(9) 0.32427(7) 0.68667(7)
C11 C -0.1240(7) 0.1238(5) 1.0989(5)
C12 C -0.2886(7) -0.0174(6) 1.1000(6)
C13 C -0.3225(8) -0.0617(6) 1.0019(6)
C14 C -0.4245(8) -0.1641(6) 0.9504(5)
C15 C -0.0154(8) 0.2231(6) 1.1503(6)
H11 H 0.0663 0.2089 1.1650
H12 H -0.0350 0.2622 1.2059
H13 H -0.0083 0.2614 1.1126
C16 C -0.6485(8) -0.2684(7) 0.8877(6)
H14 H -0.7373 -0.2741 0.8827
C17 C -0.1611(7) 0.0823(6) 1.0036(5)
C18 C -0.4772(9) -0.3438(7) 0.8550(6)
H15 H -0.4496 -0.4003 0.8260
C19 C -0.0906(9) 0.2517(7) 0.8757(6)
H16 H -0.1255 0.2982 0.8602
C20 C -0.1713(10) 0.2277(7) 1.3965(6)
H17 H -0.2205 0.2637 1.4306
C21 C 0.0205(8) 0.2306(6) 0.8467(6)
C22 C -0.1455(8) 0.1217(6) 1.2489(6)
C23 C 0.0824(9) 0.2821(7) 0.7913(6)
C24 C -0.3841(8) -0.2498(6) 0.9088(6)
H18 H -0.2950 -0.2442 0.9168
C25 C -0.3619(8) -0.0694(7) 1.1524(6)
H19 H -0.4433 -0.0531 1.1542
H20 H -0.3091 -0.0459 1.2139
H21 H -0.3794 -0.1422 1.1221
C26 C -0.1885(8) 0.0749(6) 1.1462(6)
C27 C -0.6108(8) -0.3544(6) 0.8441(5)
C28 C -0.2583(8) -0.0108(6) 0.9543(5)
C29 C -0.2997(9) -0.0582(7) 0.8498(5)
H22 H -0.2563 -0.1093 0.8269
H23 H -0.2758 -0.0060 0.8271
H24 H -0.3932 -0.0892 0.8293
C30 C -0.0967(8) 0.1353(6) 0.9508(5)
C31 C -0.5562(8) -0.1744(7) 0.9386(6)
H25 H -0.5840 -0.1173 0.9652
C32 C 0.0690(8) 0.1617(7) 0.8701(6)
H26 H 0.1418 0.1457 0.8511
C33 C 0.0119(9) 0.1158(7) 0.9213(6)
H27 H 0.0478 0.0698 0.9368
C34 C -0.1483(8) 0.2051(6) 0.9263(6)
H28 H -0.2220 0.2199 0.9445
C35 C 0.0202(9) 0.1712(7) 1.3880(6)
H29 H 0.1010 0.1697 1.4170
C36 C -0.0275(9) 0.1197(7) 1.2945(6)
H30 H 0.0212 0.0823 1.2611
C37 C -0.0519(9) 0.2251(6) 1.4387(6)
C38 C -0.2172(9) 0.1753(7) 1.3015(6)
H31 H -0.2983 0.1762 1.2725
N1A N -0.8723(7) 0.5289(5) 1.2143(5)
C3A C -0.9115(8) 0.4804(6) 1.1244(7)
H5A H -1.0012 0.4505 1.0977
C4A C -0.7446(9) 0.5715(7) 1.2511(6)
H6A H -0.7147 0.6053 1.3147
C5A C -0.6942(8) 0.5175(6) 1.1052(6)
C6A C -0.6562(8) 0.5679(7) 1.2003(6)
H7A H -0.5675 0.5998 1.2296
C7A C -0.8281(8) 0.4713(7) 1.0675(6)
H8A H -0.8609 0.4345 1.0044
C8A C -0.4774(9) 0.5880(7) 1.0773(6)
H9A H -0.4627 0.6480 1.1287
C9A C -0.5967(8) 0.5081(7) 1.0500(5)
C10A C -0.6156(8) 0.4223(7) 0.9712(6)
H10A H -0.6941 0.3699 0.9506
O1A O -1.1727(6) 0.7464(4) 1.2405(4)
O2A O -1.0425(7) 0.6498(6) 1.2202(5)
C1A C -0.2903(9) 1.4567(8) 1.2158(6)
C2A C -1.0026(11) 0.7150(7) 0.4595(7)
O3A O -0.3307(5) 1.5312(4) 1.2483(4)
O4A O -0.1710(6) 1.4552(4) 1.2277(4)
O5A O -0.9329(7) 0.6740(5) 0.4113(4)
O6A O -1.1247(7) 0.7060(5) 0.4285(4)
O7A O -0.9367(6) 0.4664(5) 1.3617(4)
H1A H -0.9596 0.4722 1.4233
H2A H -0.8361 0.4764 1.3821
O8A O -1.3854(5) 0.7415(5) 1.3618(6)
H3A H -1.3672 0.8095 1.3729
H4A H -1.3957 0.7376 1.4157
Zn1A Zn -0.99978(9) 0.55185(7) 1.29724(6)
Zn2A Zn -1.24024(9) 0.67573(7) 1.31333(7)
C11A C -0.8760(7) 0.8762(5) 0.9011(5)
C12A C -0.7114(7) 1.0174(6) 0.9000(6)
C13A C -0.6775(8) 1.0617(6) 0.9981(6)
C14A C -0.5755(8) 1.1641(6) 1.0496(5)
C15A C -0.9846(8) 0.7769(6) 0.8497(6)
H11A H -1.0663 0.7911 0.8350
H12A H -0.9650 0.7378 0.7941
H13A H -0.9917 0.7386 0.8874
C16A C -0.3515(8) 1.2684(7) 1.1123(6)
H14A H -0.2627 1.2741 1.1173
C17A C -0.8389(7) 0.9177(6) 0.9964(5)
C18A C -0.5228(9) 1.3438(7) 1.1450(6)
H15A H -0.5504 1.4003 1.1740
C19A C -0.9094(9) 0.7483(7) 1.1243(6)
H16A H -0.8745 0.7018 1.1398
C20A C -0.8287(10) 0.7723(7) 0.6035(6)
H17A H -0.7795 0.7363 0.5694
C21A C -1.0205(8) 0.7694(6) 1.1533(6)
C22A C -0.8545(8) 0.8783(6) 0.7511(6)
C23A C -1.0824(9) 0.7179(7) 1.2087(6)
C24A C -0.6159(8) 1.2498(6) 1.0912(6)
H18A H -0.7050 1.2442 1.0832
C25A C -0.6381(8) 1.0694(7) 0.8476(6)
H19A H -0.5567 1.0531 0.8458
H20A H -0.6909 1.0459 0.7861
H21A H -0.6206 1.1422 0.8779
C26A C -0.8115(8) 0.9251(6) 0.8538(6)
C27A C -0.3892(8) 1.3544(6) 1.1559(5)
C28A C -0.7417(8) 1.0108(6) 1.0457(5)
C29A C -0.7003(9) 1.0582(7) 1.1502(5)
H22A H -0.7437 1.1093 1.1731
H23A H -0.7242 1.0060 1.1729
H24A H -0.6068 1.0892 1.1707
C30A C -0.9033(8) 0.8647(6) 1.0492(5)
C31A C -0.4438(8) 1.1744(7) 1.0614(6)
H25A H -0.4160 1.1173 1.0348
C32A C -1.0690(8) 0.8383(7) 1.1299(6)
H26A H -1.1418 0.8543 1.1489
C33A C -1.0119(9) 0.8842(7) 1.0787(6)
H27A H -1.0478 0.9302 1.0632
C34A C -0.8517(8) 0.7949(6) 1.0737(6)
H28A H -0.7780 0.7801 1.0555
C35A C -1.0202(9) 0.8288(7) 0.6120(6)
H29A H -1.1010 0.8303 0.5830
C36A C -0.9725(9) 0.8803(7) 0.7055(6)
H30A H -1.0212 0.9177 0.7389
C37A C -0.9481(9) 0.7749(6) 0.5613(6)
C38A C -0.7828(9) 0.8247(7) 0.6985(6)
H31A H -0.7017 0.8238 0.7275
O3_2 O 0.3307(5) 0.4688(4) 0.7517(4)
O3A_2 O -1.3307(5) 0.5312(4) 1.2483(4)
O4_2 O 0.1710(6) 0.5448(4) 0.7723(4)
O4A_2 O -1.1710(6) 0.4552(4) 1.2277(4)
O5_2 O -0.0671(7) 0.3260(5) 0.5887(4)
O5A_2 O -0.9329(7) 0.6740(5) 1.4113(4)
O6_2 O 0.1247(7) 0.2940(5) 0.5715(4)
O6A_2 O -1.1247(7) 0.7060(5) 1.4285(4)
Zn1_2 Zn -1.00022(9) -0.55185(7) 0.70276(6)
Zn1_3 Zn -0.00022(9) 0.44815(7) 1.70276(6)
Zn1A_2 Zn -0.99978(9) 0.55185(7) 0.29724(6)
Zn1A_3 Zn 0.00022(9) 1.55185(7) 1.29724(6)
Zn2_2 Zn -0.75976(9) -0.67573(7) 0.68667(7)
Zn2_3 Zn 0.24024(9) 0.32427(7) 1.68667(7)
Zn2A_2 Zn -1.24024(9) 0.67573(7) 0.31333(7)
Zn2A_3 Zn -0.24024(9) 1.67573(7) 1.31333(7)
loop_
_geom_bond_atom_site_label_1
_geom_bond_atom_site_label_2
_geom_bond_site_symmetry_1
_geom_bond_site_symmetry_2
O1 Zn2 1_555 1_555
O2 Zn1 1_555 1_555
C1 O3 1_555 1_555
C2 O5 1_555 1_555
O3 Zn2_2 1_555 1_555
O4 C1 1_555 1_555
O5 Zn1_3 1_555 1_555
O6 C2 1_555 1_555
O7 H1 1_555 1_555
H2 O7 1_555 1_555
N1 C3 1_555 1_555
O8 H3 1_555 1_555
H4 O8 1_555 1_555
C3 H5 1_555 1_555
C4 N1 1_555 1_555
H6 C4 1_555 1_555
C5 C6 1_555 1_555
C6 C4 1_555 1_555
H7 C6 1_555 1_555
C7 C3 1_555 1_555
H8 C7 1_555 1_555
C8 H9 1_555 1_555
C9 C5 1_555 1_555
C10 C9 1_555 1_555
H10 C10 1_555 1_555
Zn1 O7 1_555 1_555
Zn2 O8 1_555 1_555
C11 C15 1_555 1_555
C12 C13 1_555 1_555
C13 C14 1_555 1_555
C14 C24 1_555 1_555
C15 H11 1_555 1_555
H12 C15 1_555 1_555
H13 C15 1_555 1_555
C16 H14 1_555 1_555
C17 C11 1_555 1_555
C18 H15 1_555 1_555
C19 H16 1_555 1_555
C20 H17 1_555 1_555
C21 C19 1_555 1_555
C22 C26 1_555 1_555
C23 O1 1_555 1_555
C24 C18 1_555 1_555
H18 C24 1_555 1_555
C25 C12 1_555 1_555
H19 C25 1_555 1_555
H20 C25 1_555 1_555
H21 C25 1_555 1_555
C26 C11 1_555 1_555
C27 C1 1_555 1_555
C28 C13 1_555 1_555
C29 C28 1_555 1_555
H22 C29 1_555 1_555
H23 C29 1_555 1_555
H24 C29 1_555 1_555
C30 C17 1_555 1_555
C31 C14 1_555 1_555
H25 C31 1_555 1_555
C32 C21 1_555 1_555
H26 C32 1_555 1_555
C33 C30 1_555 1_555
H27 C33 1_555 1_555
C34 C19 1_555 1_555
H28 C34 1_555 1_555
C35 H29 1_555 1_555
C36 C22 1_555 1_555
H30 C36 1_555 1_555
C37 C2 1_555 1_555
C38 C20 1_555 1_555
H31 C38 1_555 1_555
N1A C3A 1_555 1_555
C3A H5A 1_555 1_555
C4A N1A 1_555 1_555
H6A C4A 1_555 1_555
C5A C6A 1_555 1_555
C6A C4A 1_555 1_555
H7A C6A 1_555 1_555
C7A C3A 1_555 1_555
H8A C7A 1_555 1_555
C8A C10 1_555 1_555
H9A C8A 1_555 1_555
C9A C5A 1_555 1_555
C10A C8 1_555 1_555
H10A C10A 1_555 1_555
O1A Zn2A 1_555 1_555
O2A Zn1A 1_555 1_555
C1A O3A 1_555 1_555
C2A O5A 1_555 1_555
O3A Zn2A_3 1_555 1_555
O4A C1A 1_555 1_555
O5A Zn1A_2 1_555 1_555
O6A C2A 1_555 1_555
O7A H1A 1_555 1_555
H2A O7A 1_555 1_555
O8A H3A 1_555 1_555
H4A O8A 1_555 1_555
Zn1A N1A 1_555 1_555
Zn2A O8A 1_555 1_555
C11A C15A 1_555 1_555
C12A C13A 1_555 1_555
C13A C14A 1_555 1_555
C14A C24A 1_555 1_555
C15A H11A 1_555 1_555
H12A C15A 1_555 1_555
H13A C15A 1_555 1_555
C16A H14A 1_555 1_555
C17A C11A 1_555 1_555
C18A H15A 1_555 1_555
C19A H16A 1_555 1_555
C20A H17A 1_555 1_555
C21A C19A 1_555 1_555
C22A C26A 1_555 1_555
C23A O1A 1_555 1_555
C24A C18A 1_555 1_555
H18A C24A 1_555 1_555
C25A C12A 1_555 1_555
H19A C25A 1_555 1_555
H20A C25A 1_555 1_555
H21A C25A 1_555 1_555
C26A C11A 1_555 1_555
C27A C1A 1_555 1_555
C28A C13A 1_555 1_555
C29A C28A 1_555 1_555
H22A C29A 1_555 1_555
H23A C29A 1_555 1_555
H24A C29A 1_555 1_555
C30A C17A 1_555 1_555
C31A C14A 1_555 1_555
H25A C31A 1_555 1_555
C32A C21A 1_555 1_555
H26A C32A 1_555 1_555
C33A C30A 1_555 1_555
H27A C33A 1_555 1_555
C34A C19A 1_555 1_555
H28A C34A 1_555 1_555
C35A H29A 1_555 1_555
C36A C22A 1_555 1_555
H30A C36A 1_555 1_555
C37A C2A 1_555 1_555
C38A C20A 1_555 1_555
H31A C38A 1_555 1_555
O3_2 Zn2 1_555 1_555
O3A_2 Zn2A 1_555 1_555
O4_2 Zn1 1_555 1_555
O4A_2 Zn1A 1_555 1_555
O5_2 Zn1 1_555 1_555
O5A_2 Zn1A 1_555 1_555
O6_2 Zn2 1_555 1_555
O6A_2 Zn2A 1_555 1_555
Zn1_2 O4 1_555 1_555
Zn1A_3 O4A 1_555 1_555
Zn2_3 O6 1_555 1_555
Zn2A_2 O6A 1_555 1_555
O2 C23 1_555 1_555
N1 Zn1 1_555 1_555
C5 C7 1_555 1_555
C8 C9 1_555 1_555
C12 C26 1_555 1_555
C16 C27 1_555 1_555
C16 C31 1_555 1_555
C17 C28 1_555 1_555
C18 C27 1_555 1_555
C20 C37 1_555 1_555
C21 C23 1_555 1_555
C22 C38 1_555 1_555
C30 C34 1_555 1_555
C32 C33 1_555 1_555
C35 C36 1_555 1_555
C35 C37 1_555 1_555
C5A C7A 1_555 1_555
C8A C9A 1_555 1_555
C9A C10A 1_555 1_555
O2A C23A 1_555 1_555
O7A Zn1A 1_555 1_555
C12A C26A 1_555 1_555
C16A C27A 1_555 1_555
C16A C31A 1_555 1_555
C17A C28A 1_555 1_555
C18A C27A 1_555 1_555
C20A C37A 1_555 1_555
C21A C23A 1_555 1_555
C22A C38A 1_555 1_555
C30A C34A 1_555 1_555
C32A C33A 1_555 1_555
C35A C36A 1_555 1_555
C35A C37A 1_555 1_555

#END
