
#######################################################################
#
#                 Cambridge Crystallographic Data Centre
#                                CCDC 
#
#######################################################################
#
# If this CIF has been generated from an entry in the Cambridge 
# Structural Database, then it will include bibliographic, chemical, 
# crystal, experimental, refinement or atomic coordinate data resulting 
# from the CCDC's data processing and validation procedures.
#
#######################################################################

data_PIXSUM
_symmetry_cell_setting           triclinic
_symmetry_space_group_name_H-M   'P -1'
_symmetry_Int_Tables_number      2
_space_group_name_Hall           '-P 1'
loop_
_symmetry_equiv_pos_site_id
_symmetry_equiv_pos_as_xyz
1 x,y,z
2 -x,-y,-z
_cell_length_a                   9.6048(14)
_cell_length_b                   10.2230(15)
_cell_length_c                   12.6536(19)
_cell_angle_alpha                77.235(2)
_cell_angle_beta                 70.751(2)
_cell_angle_gamma                81.346(2)
_cell_volume                     1139.93
loop_
_atom_site_label
_atom_site_type_symbol
_atom_site_fract_x
_atom_site_fract_y
_atom_site_fract_z
C1 C 0.6819(2) 0.8292(2) 0.49587(19)
C2 C 0.8291(2) 0.7622(2) 0.51248(18)
H1 H 0.8489 0.6747 0.4883
C3 C 0.9517(2) 0.8518(2) 0.43598(19)
H2 H 0.9503 0.8659 0.3580
H3 H 0.9320 0.9389 0.4590
C4 C 1.1039(3) 0.7916(3) 0.4414(2)
H4 H 1.0989 0.7616 0.5207
H5 H 1.1297 0.7128 0.4057
C5 C 1.2264(2) 0.8848(2) 0.38513(18)
C6 C 0.6290(3) 0.5471(2) 0.7330(2)
C7 C 0.6030(3) 0.4967(3) 0.6490(2)
H6 H 0.6778 0.4906 0.5809
C8 C 0.4649(3) 0.4551(3) 0.6669(3)
H7 H 0.4474 0.4220 0.6101
C9 C 0.3528(3) 0.4623(3) 0.7682(3)
C10 C 0.3809(3) 0.5132(3) 0.8510(3)
H8 H 0.3065 0.5183 0.9196
C11 C 0.5175(3) 0.5565(3) 0.8337(2)
H9 H 0.5342 0.5919 0.8898
C12 C 0.2055(4) 0.4087(4) 0.7900(4)
H10 H 0.2176 0.3122 0.8009
H11 H 0.1697 0.4438 0.7260
H12 H 0.1356 0.4361 0.8571
C13 C 0.5174(3) 0.8421(2) 0.1399(2)
H13 H 0.4403 0.7931 0.1903
C14 C 0.5711(3) 0.8228(3) 0.0278(2)
H14 H 0.5314 0.7605 0.0047
C15 C 0.6816(3) 0.8948(3) -0.0482(2)
H15 H 0.7180 0.8824 -0.1234
C16 C 0.7404(3) 0.9885(3) -0.0117(2)
C17 C 0.6829(2) 0.9994(2) 0.10334(19)
C18 C 0.7429(3) 1.0894(2) 0.14685(19)
C19 C 0.8598(3) 1.1639(3) 0.0737(2)
C20 C 0.9097(3) 1.1564(3) -0.0448(2)
H16 H 0.9824 1.2106 -0.0947
C21 C 0.8535(3) 1.0727(3) -0.0852(2)
H17 H 0.8887 1.0694 -0.1625
C22 C 0.9228(3) 1.2396(3) 0.1243(2)
H18 H 1.0024 1.2893 0.0801
C23 C 0.8670(3) 1.2398(3) 0.2378(2)
H19 H 0.9098 1.2874 0.2721
C24 C 0.7446(3) 1.1681(3) 0.3026(2)
H20 H 0.7039 1.1730 0.3794
N1 N 0.6845(2) 1.0934(2) 0.25903(16)
N2 N 0.5717(2) 0.92761(19) 0.17805(15)
N3 N 0.8274(2) 0.74119(19) 0.63041(16)
H21 H 0.7959 0.8109 0.6635
O1 O 0.66491(18) 0.82567(18) 0.40271(15)
O2 O 0.59337(19) 0.8853(2) 0.57174(17)
O3 O 1.20972(18) 0.98916(17) 0.31770(14)
O4 O 1.34405(17) 0.84520(18) 0.41329(14)
O5 O 0.8094(2) 0.6168(2) 0.82096(16)
O6 O 0.9111(2) 0.50076(19) 0.65560(18)
S1 S 0.80628(7) 0.59658(6) 0.71311(5)
Zn1 Zn 0.51336(3) 0.95731(3) 0.34889(2)
O2A O 0.40663(19) 1.1147(2) 0.42826(17)
O4_2 O 0.34405(17) 0.84520(18) 0.41329(14)
Zn1_2 Zn 1.51336(3) 0.95731(3) 0.34889(2)
Zn1A Zn 0.48664(3) 1.04269(3) 0.65111(2)
loop_
_geom_bond_atom_site_label_1
_geom_bond_atom_site_label_2
_geom_bond_site_symmetry_1
_geom_bond_site_symmetry_2
C1 C2 1_555 1_555
C2 H1 1_555 1_555
C3 C2 1_555 1_555
H2 C3 1_555 1_555
H3 C3 1_555 1_555
C4 C3 1_555 1_555
H4 C4 1_555 1_555
H5 C4 1_555 1_555
C5 C4 1_555 1_555
C6 C7 1_555 1_555
C7 H6 1_555 1_555
C8 C7 1_555 1_555
H7 C8 1_555 1_555
C9 C8 1_555 1_555
C10 C9 1_555 1_555
H8 C10 1_555 1_555
C11 C6 1_555 1_555
H9 C11 1_555 1_555
C12 C9 1_555 1_555
H10 C12 1_555 1_555
H11 C12 1_555 1_555
H12 C12 1_555 1_555
C13 H13 1_555 1_555
C14 C13 1_555 1_555
H14 C14 1_555 1_555
C15 C14 1_555 1_555
H15 C15 1_555 1_555
C16 C15 1_555 1_555
C17 C16 1_555 1_555
C18 C17 1_555 1_555
C19 C18 1_555 1_555
C20 C19 1_555 1_555
H16 C20 1_555 1_555
C21 C16 1_555 1_555
H17 C21 1_555 1_555
C22 C19 1_555 1_555
H18 C22 1_555 1_555
C23 C22 1_555 1_555
H19 C23 1_555 1_555
C24 C23 1_555 1_555
H20 C24 1_555 1_555
N1 C18 1_555 1_555
N2 C13 1_555 1_555
N3 C2 1_555 1_555
H21 N3 1_555 1_555
O1 C1 1_555 1_555
O2 C1 1_555 1_555
O3 C5 1_555 1_555
O4 C5 1_555 1_555
O5 S1 1_555 1_555
O6 S1 1_555 1_555
S1 C6 1_555 1_555
Zn1 N1 1_555 1_555
O2A Zn1 1_555 1_555
O4_2 Zn1 1_555 1_555
Zn1_2 O4 1_555 1_555
Zn1A O2 1_555 1_555
C10 C11 1_555 1_555
C17 N2 1_555 1_555
C20 C21 1_555 1_555
C24 N1 1_555 1_555
N2 Zn1 1_555 1_555
N3 S1 1_555 1_555
O1 Zn1 1_555 1_555

#END
