
#######################################################################
#
#                 Cambridge Crystallographic Data Centre
#                                CCDC 
#
#######################################################################
#
# If this CIF has been generated from an entry in the Cambridge 
# Structural Database, then it will include bibliographic, chemical, 
# crystal, experimental, refinement or atomic coordinate data resulting 
# from the CCDC's data processing and validation procedures.
#
#######################################################################

data_PIXTEW
_symmetry_cell_setting           monoclinic
_symmetry_space_group_name_H-M   'P 21/c'
_symmetry_Int_Tables_number      14
_space_group_name_Hall           '-P 2ybc'
loop_
_symmetry_equiv_pos_site_id
_symmetry_equiv_pos_as_xyz
1 x,y,z
2 -x,1/2+y,1/2-z
3 -x,-y,-z
4 x,1/2-y,1/2+z
_cell_length_a                   14.076(7)
_cell_length_b                   13.896(7)
_cell_length_c                   9.278(5)
_cell_angle_alpha                90
_cell_angle_beta                 106.909(6)
_cell_angle_gamma                90
_cell_volume                     1736.32
loop_
_atom_site_label
_atom_site_type_symbol
_atom_site_fract_x
_atom_site_fract_y
_atom_site_fract_z
C17 C 0.0000 -1.0000 -0.5000
O9 O 0.0570(15) -1.0486(16) -0.539(2)
O9B O -0.0570(15) -0.9514(16) -0.461(2)
N1 N -0.0864(3) 0.0913(2) -0.0671(4)
N2 N -0.3083(3) 0.0906(3) -0.1947(4)
N3 N -0.2666(3) -0.4943(3) -0.2470(5)
O1 O -0.2074(3) -0.5201(2) -0.3138(4)
O2 O -0.4654(3) -0.3422(3) 0.4092(6)
O3 O -0.3206(3) -0.5485(3) -0.2036(5)
C1 C -0.0922(4) 0.1947(3) -0.1023(7)
H1 H -0.0371 0.2126 -0.1399
H2 H -0.0864 0.2311 -0.0109
C2 C -0.3860(18) 0.0743(11) -0.117(3)
H5 H -0.3591 0.0885 -0.0115
H6 H -0.4072 0.0084 -0.1290
H7 H -0.4417 0.1156 -0.1597
C3 C -0.351(2) 0.0724(13) -0.3579(10)
H8 H -0.4116 0.1087 -0.3950
H9 H -0.3655 0.0051 -0.3743
H10 H -0.3048 0.0917 -0.4103
C4 C -0.1874(6) 0.2199(12) -0.2168(15)
H11 H -0.1883 0.2886 -0.2360
H12 H -0.1904 0.1870 -0.3103
C5 C -0.2767(11) 0.1939(7) -0.1706(16)
H13 H 0.3315 -0.2341 0.2260
H14 H 0.2638 -0.2089 0.0645
O4 O -0.0853(2) -0.09212(19) -0.0022(3)
C10 C -0.0006(3) -0.0532(3) 0.0177(5)
Cu1 Cu -0.19391(3) -0.00022(4) -0.09611(6)
O5 O -0.2879(2) -0.3948(2) 0.3845(3)
O6 O -0.1857(3) -0.0853(2) -0.3266(4)
C11 C -0.2717(3) -0.3911(3) -0.2154(5)
N4 N -0.4252(3) -0.2656(3) 0.4461(5)
N5 N -0.1563(3) -0.1677(3) -0.2902(5)
C12 C -0.2175(3) -0.2313(3) -0.2313(5)
C13 C -0.2100(3) -0.3281(3) -0.2581(5)
H25 H -0.1638 -0.1497 0.1956
C14 C -0.2842(3) -0.3073(3) 0.3444(5)
C15 C -0.3471(3) -0.2362(3) 0.3797(5)
O7 O -0.0782(3) -0.3010(3) 0.1978(6)
C16 C -0.3405(3) -0.1398(3) 0.3530(5)
H26 H -0.3820 -0.0960 0.3808
O8 O -0.4478(3) -0.2096(3) 0.5322(4)
N1B N 0.0864(3) -0.0913(2) 0.0671(4)
N2B N 0.3083(3) -0.0906(3) 0.1947(4)
N3C N -0.2666(3) -0.0057(3) 0.2530(5)
O1C O -0.2074(3) 0.0201(2) 0.1862(4)
O1A O 0.2074(3) -0.0201(2) -0.1862(4)
O2C O -0.4654(3) -0.1578(3) -0.0908(6)
O3C O -0.3206(3) 0.0485(3) 0.2964(5)
C1B C 0.0922(4) -0.1947(3) 0.1023(7)
H1B H 0.0371 -0.2126 0.1399
H2B H 0.0864 -0.2311 0.0109
C2B C 0.3860(18) -0.0743(11) 0.117(3)
H5B H 0.3591 -0.0885 0.0115
H6B H 0.4072 -0.0084 0.1290
H7B H 0.4417 -0.1156 0.1597
C3B C 0.351(2) -0.0724(13) 0.3579(10)
H8B H 0.4116 -0.1087 0.3950
H9B H 0.3655 -0.0051 0.3743
H10B H 0.3048 -0.0917 0.4103
C4B C 0.1874(6) -0.2199(12) 0.2168(15)
H11B H 0.1883 -0.2886 0.2360
H12B H 0.1904 -0.1870 0.3103
C5B C 0.2767(11) -0.1939(7) 0.1706(16)
H13B H -0.3315 0.2341 -0.2260
H14B H -0.2638 0.2089 -0.0645
O4B O 0.0853(2) 0.09212(19) 0.0022(3)
C10B C 0.0006(3) 0.0532(3) -0.0177(5)
Cu1C Cu -0.19391(3) -0.49978(4) -0.59611(6)
Cu1C_2 Cu -0.19391(3) -0.49978(4) 0.40389(6)
Cu1B Cu 0.19391(3) 0.00022(4) 0.09611(6)
O5A O 0.2879(2) 0.1052(2) 0.1155(3)
O5C O -0.2879(2) -0.1052(2) -0.1155(3)
O6C O -0.1857(3) -0.4147(2) 0.1734(4)
O6B O 0.1857(3) 0.0853(2) 0.3266(4)
C11C C -0.2717(3) -0.1089(3) 0.2846(5)
N4C N -0.4252(3) -0.2344(3) -0.0539(5)
N5C N -0.1563(3) -0.3323(3) 0.2098(5)
C12C C -0.2175(3) -0.2687(3) 0.2687(5)
C13C C -0.2100(3) -0.1719(3) 0.2419(5)
H25C H -0.1638 -0.3503 -0.3044
C14C C -0.2842(3) -0.1927(3) -0.1556(5)
C15C C -0.3471(3) -0.2638(3) -0.1203(5)
O7C O -0.0782(3) -0.1990(3) -0.3022(6)
C16C C -0.3405(3) -0.3602(3) -0.1470(5)
H26C H -0.3820 -0.4040 -0.1192
O8C O -0.4478(3) -0.2904(3) 0.0322(4)
H3? H 0.0730 -0.2941 -0.3068
H4? H 0.0464 -0.2704 -0.4795
C6? C 0.3763(17) -0.3916(10) -0.398(3)
H15? H 0.3408 -0.3602 -0.4898
H16? H 0.4022 -0.4518 -0.4204
H17? H 0.4301 -0.3513 -0.3428
C7? C 0.3683(15) -0.4594(10) -0.1651(10)
H18? H 0.4291 -0.4249 -0.1228
H19? H 0.3830 -0.5238 -0.1896
H20? H 0.3311 -0.4617 -0.0933
C8? C 0.1949(6) -0.2693(9) -0.3772(17)
H21? H 0.2100 -0.2771 -0.4720
H22? H 0.1955 -0.2008 -0.3566
C9? C 0.2760(11) -0.3147(8) -0.2572(13)
H23? H 0.2537 -0.3246 -0.1687
H24? H 0.3325 -0.2714 -0.2296
loop_
_geom_bond_atom_site_label_1
_geom_bond_atom_site_label_2
_geom_bond_site_symmetry_1
_geom_bond_site_symmetry_2
N1 C1 1_555 1_555
N2 C2 1_555 1_555
N3 O1 1_555 1_555
O1 Cu1C 1_555 1_555
O2 N4 1_555 1_555
O3 N3 1_555 1_555
C1 H1 1_555 1_555
H2 C1 1_555 1_555
C2 H5 1_555 1_555
H6 C2 1_555 1_555
H7 C2 1_555 1_555
C3 N2 1_555 1_555
H8 C3 1_555 1_555
H9 C3 1_555 1_555
H10 C3 1_555 1_555
C4 C1 1_555 1_555
H11 C4 1_555 1_555
H12 C4 1_555 1_555
C5 N2 1_555 1_555
H13 C5B 1_555 1_555
H14 C5B 1_555 1_555
O4 C10 1_555 1_555
C10 N1B 1_555 1_555
Cu1 N1 1_555 1_555
O5 C14 1_555 1_555
O6 Cu1 1_555 1_555
C11 N3 1_555 1_555
N4 C15 1_555 1_555
N5 O6 1_555 1_555
C12 N5 1_555 1_555
C13 C11 1_555 1_555
H25 C13C 1_555 1_555
C14 C15 1_555 1_555
C15 C16 1_555 1_555
O7 N5C 1_555 1_555
C16 H26 1_555 1_555
O8 N4 1_555 1_555
C17 O9 1_555 1_555
N1B C1B 1_555 1_555
N2B C2B 1_555 1_555
N3C O1C 1_555 1_555
O1C Cu1 1_555 1_555
O1A Cu1B 1_555 1_555
O2C N4C 1_555 1_555
O3C N3C 1_555 1_555
C1B H1B 1_555 1_555
H2B C1B 1_555 1_555
C2B H5B 1_555 1_555
H6B C2B 1_555 1_555
H7B C2B 1_555 1_555
C3B N2B 1_555 1_555
H8B C3B 1_555 1_555
H9B C3B 1_555 1_555
H10B C3B 1_555 1_555
C4B C1B 1_555 1_555
H11B C4B 1_555 1_555
H12B C4B 1_555 1_555
C5B N2B 1_555 1_555
H13B C5 1_555 1_555
H14B C5 1_555 1_555
O4B C10B 1_555 1_555
C10B N1 1_555 1_555
Cu1C_2 O5 1_555 1_555
Cu1B N1B 1_555 1_555
O5A Cu1B 1_555 1_555
O5C Cu1 1_555 1_555
O6C Cu1C_2 1_555 1_555
O6B Cu1B 1_555 1_555
C11C C16 1_555 1_555
N4C C15C 1_555 1_555
N5C O6C 1_555 1_555
C12C C14 1_555 1_555
C13C C11C 1_555 1_555
H25C C13 1_555 1_555
C14C C12 1_555 1_555
C15C C14C 1_555 1_555
O7C N5 1_555 1_555
C16C C11 1_555 1_555
H26C C16C 1_555 1_555
O8C N4C 1_555 1_555
O9B C17 1_555 1_555
N2 Cu1 1_555 1_555
C4 C5 1_555 1_555
O4 Cu1 1_555 1_555
C10 C10B 1_555 1_555
C12 C13 1_555 1_555
N2B Cu1B 1_555 1_555
N3C C11C 1_555 1_555
C4B C5B 1_555 1_555
O4B Cu1B 1_555 1_555
O5C C14C 1_555 1_555
N5C C12C 1_555 1_555
C12C C13C 1_555 1_555
C15C C16C 1_555 1_555

#END
