
#######################################################################
#
#                 Cambridge Crystallographic Data Centre
#                                CCDC 
#
#######################################################################
#
# If this CIF has been generated from an entry in the Cambridge 
# Structural Database, then it will include bibliographic, chemical, 
# crystal, experimental, refinement or atomic coordinate data resulting 
# from the CCDC's data processing and validation procedures.
#
#######################################################################

data_PIXVIC01
_symmetry_cell_setting           monoclinic
_symmetry_space_group_name_H-M   'C 2/c'
_symmetry_Int_Tables_number      15
_space_group_name_Hall           '-C 2yn'
loop_
_symmetry_equiv_pos_site_id
_symmetry_equiv_pos_as_xyz
1 x,y,z
2 1/2+x,1/2+y,z
3 -x,y,1/2-z
4 1/2-x,1/2+y,1/2-z
5 -x,-y,-z
6 1/2-x,1/2-y,-z
7 x,-y,1/2+z
8 1/2+x,1/2-y,1/2+z
_cell_length_a                   25.408(8)
_cell_length_b                   5.4930(10)
_cell_length_c                   30.007(9)
_cell_angle_alpha                90
_cell_angle_beta                 108.43(4)
_cell_angle_gamma                90
_cell_volume                     3973.16
loop_
_atom_site_label
_atom_site_type_symbol
_atom_site_fract_x
_atom_site_fract_y
_atom_site_fract_z
Co1 Co 0.17390(3) 0.01127(13) 0.15384(3)
P1 P 0.09436(5) 0.5087(2) 0.12992(5)
P2 P 0.13559(5) 0.3093(2) 0.23118(4)
O1 O 0.13093(13) 0.3209(6) 0.12134(11)
O2 O 0.11162(15) 0.7683(6) 0.12817(11)
O3 O 0.15070(14) 0.0703(6) 0.21318(12)
O4 O 0.18200(16) 0.4892(6) 0.24929(13)
O5 O 0.24842(13) 0.2438(6) 0.17543(10)
O6 O 0.22637(12) -0.2666(6) 0.19528(10)
N1 N 0.20375(17) -0.0707(8) 0.09579(14)
C1 C 0.0806(2) 0.4582(10) 0.18455(19)
H1 H 0.0472 0.3603 0.1781
H2 H 0.0728 0.6144 0.1962
C2 C 0.01289(13) 0.2816(6) 0.05693(13)
H3 H 0.0389 0.1586 0.0597
C3 C -0.03915(15) 0.2640(6) 0.02330(12)
H4 H -0.048 0.1293 0.0035
C4 C -0.07801(12) 0.4478(7) 0.01920(12)
H5 H -0.1128 0.436 -0.0033
C5 C -0.06484(14) 0.6491(6) 0.04872(14)
H6 H -0.0908 0.772 0.046
C6 C -0.01280(16) 0.6666(6) 0.08235(13)
H7 H -0.004 0.8013 0.1021
C7 C 0.02607(12) 0.4829(6) 0.08645(11)
C8 C 0.1170(3) 0.4166(9) 0.3135(2)
H8 H 0.1352 0.5616 0.3118
C9 C 0.0983(3) 0.3723(11) 0.35157(17)
H9 H 0.104 0.4876 0.3753
C10 C 0.0712(2) 0.1556(12) 0.35415(15)
H10 H 0.0587 0.1259 0.3796
C11 C 0.0627(3) -0.0168(10) 0.3187(2)
H11 H 0.0446 -0.1618 0.3204
C12 C 0.0814(3) 0.0275(9) 0.28059(19)
H12 H 0.0757 -0.0878 0.2568
C13 C 0.10854(18) 0.2442(9) 0.27801(14)
C14 C 0.1871(4) 0.0313(16) 0.0563(3)
H13 H 0.1624 0.1605 0.0524
C15 C 0.2045(4) -0.0418(18) 0.0162(4)
H14 H 0.1886 0.0355 -0.0125
C16 C 0.2404(2) -0.2070(10) 0.01909(17)
C17 C 0.2476(4) -0.369(2) 0.0583(3)
H15 H 0.2659 -0.5174 0.0613
C18 C 0.2234(4) -0.276(2) 0.0931(4)
H16 H 0.2225 -0.385 0.1165
Co1_2 Co 0.17390(3) -0.98873(13) 0.15384(3)
Co1_3 Co 0.17390(3) 1.01127(13) 0.15384(3)
Co1E Co 0.32610(3) -0.51127(13) -0.15384(3)
P1_2 P 0.09436(5) -0.4913(2) 0.12992(5)
P2_2 P 0.13559(5) -0.6907(2) 0.23118(4)
O1_2 O 0.13093(13) -0.6791(6) 0.12134(11)
O2_2 O 0.11162(15) -0.2317(6) 0.12817(11)
O2_3 O 0.11162(15) -1.2317(6) 0.12817(11)
O3_2 O 0.15070(14) -0.9297(6) 0.21318(12)
O4_2 O 0.18200(16) -0.5108(6) 0.24929(13)
O5_2 O 0.24842(13) -0.7562(6) 0.17543(10)
O6_2 O 0.22637(12) -1.2666(6) 0.19528(10)
N1E N 0.29625(17) -0.4293(8) -0.09579(14)
N1_2 N 0.20375(17) -1.0707(8) 0.09579(14)
C1_2 C 0.0806(2) -0.5418(10) 0.18455(19)
H1_2 H 0.0472 -0.6397 0.1781
H2_2 H 0.0728 -0.3856 0.1962
C2_2 C 0.01289(13) -0.7184(6) 0.05693(13)
H3_2 H 0.0389 -0.8414 0.0597
C3_2 C -0.03915(15) -0.7360(6) 0.02330(12)
H4_2 H -0.048 -0.8707 0.0035
C4_2 C -0.07801(12) -0.5522(7) 0.01920(12)
H5_2 H -0.1128 -0.564 -0.0033
C5_2 C -0.06484(14) -0.3509(6) 0.04872(14)
H6_2 H -0.0908 -0.228 0.046
C6_2 C -0.01280(16) -0.3334(6) 0.08235(13)
H7_2 H -0.004 -0.1987 0.1021
C7_2 C 0.02607(12) -0.5171(6) 0.08645(11)
C8_2 C 0.1170(3) -0.5834(9) 0.3135(2)
H8_2 H 0.1352 -0.4384 0.3118
C9_2 C 0.0983(3) -0.6277(11) 0.35157(17)
H9_2 H 0.104 -0.5124 0.3753
C10_2 C 0.0712(2) -0.8444(12) 0.35415(15)
H10_2 H 0.0587 -0.8741 0.3796
C11_2 C 0.0627(3) -1.0168(10) 0.3187(2)
H11_2 H 0.0446 -1.1618 0.3204
C12_2 C 0.0814(3) -0.9725(9) 0.28059(19)
H12_2 H 0.0757 -1.0878 0.2568
C13_2 C 0.10854(18) -0.7558(9) 0.27801(14)
C14E C 0.3129(4) -0.5313(16) -0.0563(3)
H13E H 0.3376 -0.6605 -0.0524
C15E C 0.2955(4) -0.4582(18) -0.0162(4)
H14E H 0.3114 -0.5355 0.0125
C16E C 0.2596(2) -0.2930(10) -0.01909(17)
C17E C 0.2524(4) -0.131(2) -0.0583(3)
H15E H 0.2341 0.0174 -0.0613
C18E C 0.2766(4) -0.224(2) -0.0931(4)
H16E H 0.2775 -0.115 -0.1165
loop_
_geom_bond_atom_site_label_1
_geom_bond_atom_site_label_2
_geom_bond_site_symmetry_1
_geom_bond_site_symmetry_2
Co1 O1 1_555 1_555
P1 O1 1_555 1_555
P2 O3 1_555 1_555
O2 P1 1_555 1_555
O3 Co1 1_555 1_555
O4 P2 1_555 1_555
O5 Co1 1_555 1_555
O6 Co1 1_555 1_555
N1 Co1 1_555 1_555
C1 P1 1_555 1_555
H1 C1 1_555 1_555
H2 C1 1_555 1_555
C2 H3 1_555 1_555
C3 C2 1_555 1_555
H4 C3 1_555 1_555
C4 C3 1_555 1_555
H5 C4 1_555 1_555
C5 C4 1_555 1_555
H6 C5 1_555 1_555
C6 C5 1_555 1_555
H7 C6 1_555 1_555
C7 P1 1_555 1_555
C8 H8 1_555 1_555
C9 C8 1_555 1_555
H9 C9 1_555 1_555
C10 C9 1_555 1_555
H10 C10 1_555 1_555
C11 C10 1_555 1_555
H11 C11 1_555 1_555
C12 C11 1_555 1_555
H12 C12 1_555 1_555
C13 P2 1_555 1_555
C14 N1 1_555 1_555
H13 C14 1_555 1_555
C15 C14 1_555 1_555
H14 C15 1_555 1_555
C16 C15 1_555 1_555
C17 C16 1_555 1_555
H15 C17 1_555 1_555
C18 N1 1_555 1_555
H16 C18 1_555 1_555
Co1_2 O1_2 1_555 1_555
Co1_3 O2 1_555 1_555
Co1E N1E 1_555 1_555
P1_2 O1_2 1_555 1_555
P2_2 O3_2 1_555 1_555
O2_2 Co1 1_555 1_555
O2_3 Co1_2 1_555 1_555
O3_2 Co1_2 1_555 1_555
O4_2 P2_2 1_555 1_555
O5_2 Co1_2 1_555 1_555
O6_2 Co1_2 1_555 1_555
N1E C14E 1_555 1_555
N1_2 Co1_2 1_555 1_555
C1_2 P1_2 1_555 1_555
H1_2 C1_2 1_555 1_555
H2_2 C1_2 1_555 1_555
C2_2 H3_2 1_555 1_555
C3_2 C2_2 1_555 1_555
H4_2 C3_2 1_555 1_555
C4_2 C3_2 1_555 1_555
H5_2 C4_2 1_555 1_555
C5_2 C4_2 1_555 1_555
H6_2 C5_2 1_555 1_555
C6_2 C5_2 1_555 1_555
H7_2 C6_2 1_555 1_555
C7_2 P1_2 1_555 1_555
C8_2 H8_2 1_555 1_555
C9_2 C8_2 1_555 1_555
H9_2 C9_2 1_555 1_555
C10_2 C9_2 1_555 1_555
H10_2 C10_2 1_555 1_555
C11_2 C10_2 1_555 1_555
H11_2 C11_2 1_555 1_555
C12_2 C11_2 1_555 1_555
H12_2 C12_2 1_555 1_555
C13_2 P2_2 1_555 1_555
C14E H13E 1_555 1_555
C15E C14E 1_555 1_555
H14E C15E 1_555 1_555
C16E C16 1_555 1_555
C17E C16E 1_555 1_555
H15E C17E 1_555 1_555
C18E N1E 1_555 1_555
H16E C18E 1_555 1_555
P2 C1 1_555 1_555
C2 C7 1_555 1_555
C6 C7 1_555 1_555
C8 C13 1_555 1_555
C12 C13 1_555 1_555
C17 C18 1_555 1_555
P1_2 O2_2 1_555 1_555
P2_2 C1_2 1_555 1_555
C2_2 C7_2 1_555 1_555
C6_2 C7_2 1_555 1_555
C8_2 C13_2 1_555 1_555
C12_2 C13_2 1_555 1_555
C15E C16E 1_555 1_555
C17E C18E 1_555 1_555

#END
