
#######################################################################
#
#                 Cambridge Crystallographic Data Centre
#                                CCDC 
#
#######################################################################
#
# If this CIF has been generated from an entry in the Cambridge 
# Structural Database, then it will include bibliographic, chemical, 
# crystal, experimental, refinement or atomic coordinate data resulting 
# from the CCDC's data processing and validation procedures.
#
#######################################################################

data_PIXVUO
_symmetry_cell_setting           triclinic
_symmetry_space_group_name_H-M   'P -1'
_symmetry_Int_Tables_number      2
_space_group_name_Hall           '-P 1'
loop_
_symmetry_equiv_pos_site_id
_symmetry_equiv_pos_as_xyz
1 x,y,z
2 -x,-y,-z
_cell_length_a                   9.3476(15)
_cell_length_b                   9.3569(15)
_cell_length_c                   11.4693(18)
_cell_angle_alpha                94.826(2)
_cell_angle_beta                 98.196(2)
_cell_angle_gamma                107.202(2)
_cell_volume                     939.997
loop_
_atom_site_label
_atom_site_type_symbol
_atom_site_fract_x
_atom_site_fract_y
_atom_site_fract_z
Zn1 Zn -0.17914(4) 0.08977(4) -0.20839(3)
O1 O -0.0270(3) -0.0470(3) -0.1756(2)
O2 O 0.0612(3) -0.2150(3) -0.2664(2)
O3 O -0.3164(3) 0.1881(3) -0.3270(2)
O4 O -0.4057(3) 0.1809(3) -0.5202(2)
N1 N -0.3370(3) -0.0327(3) -0.1229(2)
N2 N -0.6310(3) -0.3665(3) 0.0298(2)
H1 H -0.583(4) -0.374(5) 0.100(2)
N3 N -1.0215(3) -0.7227(3) -0.1212(2)
N4 N -0.1813(3) -0.0117(3) -0.3716(2)
C1 C -0.4580(4) -0.1362(4) -0.1904(3)
H2 H -0.4737 -0.1321 -0.2719
C2 C -0.5611(4) -0.2488(4) -0.1469(3)
H3 H -0.6424 -0.3188 -0.1981
C3 C -0.5409(3) -0.2555(3) -0.0244(3)
C4 C -0.4155(3) -0.1464(4) 0.0466(3)
H4 H -0.3981 -0.1461 0.1285
C5 C -0.3178(3) -0.0393(3) -0.0050(3)
H5 H -0.2349 0.0317 0.0438
C6 C -0.9245(4) -0.7338(4) -0.0258(3)
H6 H -0.9446 -0.8243 0.0062
C7 C -0.7969(4) -0.6163(4) 0.0259(3)
H7 H -0.7336 -0.6276 0.0924
C8 C -0.7629(3) -0.4803(3) -0.0216(3)
C9 C -0.8695(4) -0.4659(4) -0.1153(3)
H8 H -0.8559 -0.3746 -0.1456
C10 C -0.9942(4) -0.5883(4) -0.1619(3)
H9 H -1.0633 -0.5776 -0.2248
C11 C -0.2612(4) 0.0199(4) -0.4664(3)
C12 C -0.2725(4) -0.0521(4) -0.5791(3)
H10 H -0.3272 -0.0283 -0.6448
C13 C -0.1998(4) -0.1611(4) -0.5917(3)
H11 H -0.2074 -0.2130 -0.6663
C14 C -0.1159(4) -0.1921(4) -0.4925(3)
H12 H -0.0656 -0.2638 -0.4996
C15 C -0.1089(4) -0.1136(4) -0.3826(3)
C16 C -0.0168(4) -0.1284(4) -0.2648(3)
C17 C -0.3344(4) 0.1396(4) -0.4369(3)
Zn1_2 Zn -1.17914(4) -0.91023(4) -0.20839(3)
N3_2 N -0.0215(3) 0.2773(3) -0.1212(2)
O5 O -0.5258(4) -0.3897(4) 0.2627(2)
H13 H -0.560(5) -0.327(4) 0.299(4)
H14 H -0.526(6) -0.461(4) 0.304(4)
O6 O 0.1159(7) -0.4372(6) -0.4060(4)
H15 H 0.097(8) -0.367(6) -0.370(6)
H16 H 0.191(6) -0.430(8) -0.439(7)
O7 O -0.3731(7) 0.4529(6) -0.5798(5)
O8? O -0.4366(8) -0.3817(7) -0.3961(5)
loop_
_geom_bond_atom_site_label_1
_geom_bond_atom_site_label_2
_geom_bond_site_symmetry_1
_geom_bond_site_symmetry_2
Zn1 O1 1_555 1_555
O1 C16 1_555 1_555
O2 C16 1_555 1_555
O3 Zn1 1_555 1_555
O4 C17 1_555 1_555
N1 Zn1 1_555 1_555
N2 H1 1_555 1_555
N3 C6 1_555 1_555
N4 Zn1 1_555 1_555
C1 N1 1_555 1_555
H2 C1 1_555 1_555
C2 C1 1_555 1_555
H3 C2 1_555 1_555
C3 N2 1_555 1_555
C4 C3 1_555 1_555
H4 C4 1_555 1_555
C5 N1 1_555 1_555
H5 C5 1_555 1_555
C6 H6 1_555 1_555
C7 C6 1_555 1_555
H7 C7 1_555 1_555
C8 N2 1_555 1_555
C9 C8 1_555 1_555
H8 C9 1_555 1_555
C10 N3 1_555 1_555
H9 C10 1_555 1_555
C11 N4 1_555 1_555
C12 C11 1_555 1_555
H10 C12 1_555 1_555
C13 C12 1_555 1_555
H11 C13 1_555 1_555
C14 C13 1_555 1_555
H12 C14 1_555 1_555
C15 N4 1_555 1_555
C16 C15 1_555 1_555
C17 O3 1_555 1_555
O5 H13 1_555 1_555
H14 O5 1_555 1_555
O6 H15 1_555 1_555
H16 O6 1_555 1_555
Zn1_2 N3 1_555 1_555
N3_2 Zn1 1_555 1_555
C2 C3 1_555 1_555
C4 C5 1_555 1_555
C7 C8 1_555 1_555
C9 C10 1_555 1_555
C11 C17 1_555 1_555
C14 C15 1_555 1_555

#END
