
#######################################################################
#
#                 Cambridge Crystallographic Data Centre
#                                CCDC 
#
#######################################################################
#
# If this CIF has been generated from an entry in the Cambridge 
# Structural Database, then it will include bibliographic, chemical, 
# crystal, experimental, refinement or atomic coordinate data resulting 
# from the CCDC's data processing and validation procedures.
#
#######################################################################

data_PIXVOI
_symmetry_cell_setting           orthorhombic
_symmetry_space_group_name_H-M   'C c c 2'
_symmetry_Int_Tables_number      37
_space_group_name_Hall           'C 2 -2c'
loop_
_symmetry_equiv_pos_site_id
_symmetry_equiv_pos_as_xyz
1 x,y,z
2 -x,-y,z
3 x,-y,1/2+z
4 -x,y,1/2+z
5 1/2+x,1/2+y,z
6 1/2-x,1/2-y,z
7 1/2+x,1/2-y,1/2+z
8 1/2-x,1/2+y,1/2+z
_cell_length_a                   15.849(5)
_cell_length_b                   24.720(8)
_cell_length_c                   9.905(3)
_cell_angle_alpha                90
_cell_angle_beta                 90
_cell_angle_gamma                90
_cell_volume                     3880.65
loop_
_atom_site_label
_atom_site_type_symbol
_atom_site_fract_x
_atom_site_fract_y
_atom_site_fract_z
Ni1 Ni 0.185820(18) 0.380890(12) -0.01914(5)
O1 O 0.3737(2) 0.35320(12) 0.2610(3)
O3 O 0.1779(2) 0.53651(14) -0.1649(5)
O5 O 0.14872(16) 0.44841(10) -0.1425(2)
O7 O 0.26218(15) 0.34057(9) 0.1283(2)
O8 O 0.10826(15) 0.40769(12) 0.1388(3)
H4 H 0.132(2) 0.4261(15) 0.200(3)
H5 H 0.0608(16) 0.4178(17) 0.120(4)
N1 N 0.25452(17) 0.34749(11) -0.1802(3)
N2 N 0.37077(15) 0.26804(11) -0.5036(3)
H6 H 0.3325(18) 0.2643(16) -0.566(3)
N3 N 0.58900(14) 0.17374(9) -0.5404(3)
N4 N 0.27034(15) 0.43660(10) 0.0294(2)
C1 C 0.3210(2) 0.31585(16) -0.1616(3)
H7 H 0.3400 0.3112 -0.0735
C2 C 0.3642(2) 0.28912(15) -0.2632(3)
H8 H 0.4104 0.2674 -0.2429
C3 C 0.33770(18) 0.29522(12) -0.3955(3)
C4 C 0.26776(19) 0.32909(13) -0.4162(3)
H9 H 0.2478 0.3351 -0.5032
C5 C 0.22912(19) 0.35308(14) -0.3090(3)
H10 H 0.1822 0.3747 -0.3259
C6 C 0.58638(19) 0.21605(13) -0.4559(3)
H11 H 1.1345 0.2762 -0.9056
C7 C 0.51658(19) 0.24896(13) -0.4388(3)
H12 H 1.0183 0.2220 -0.8792
C8 C 0.44403(16) 0.23793(11) -0.5118(3)
C9 C 0.44670(19) 0.19460(13) -0.6038(3)
H13 H 0.4001 0.1867 -0.6574
C10 C 1.01892(19) 0.33599(13) -1.1138(3)
H14 H 1.0195 0.3648 -1.1741
C11 C 0.32866(18) 0.42573(14) 0.1236(3)
C12 C 0.3843(2) 0.46537(16) 0.1671(4)
H15 H 0.4243 0.4579 0.2332
C13 C 0.3787(3) 0.51623(17) 0.1096(5)
H16 H 0.4161 0.5433 0.1354
C14 C 0.3172(3) 0.52695(16) 0.0135(4)
H17 H 0.3124 0.5612 -0.0246
C15 C 0.26315(18) 0.48570(11) -0.0244(4)
C16 C 0.3222(2) 0.36853(14) 0.1770(4)
C17 C 0.1912(2) 0.49078(15) -0.1198(4)
Ni1F Ni 0.685820(18) 0.119110(12) -0.51914(5)
Ni1_2 Ni 1.185820(18) 0.380890(12) -1.01914(5)
O1F O 0.8737(2) 0.14680(12) -0.2390(3)
O3F O 0.6779(2) -0.03651(14) -0.6649(5)
O5F O 0.64872(16) 0.05159(10) -0.6425(2)
O7F O 0.76218(15) 0.15943(9) -0.3717(2)
O8F O 0.60826(15) 0.09231(12) -0.3612(3)
H4F H 0.632(2) 0.0739(15) -0.300(3)
H5F H 0.5608(16) 0.0822(17) -0.380(4)
N1F N 0.75452(17) 0.15251(11) -0.6802(3)
N2F N 0.87077(15) 0.23196(11) -1.0036(3)
H6F H 0.8325(18) 0.2357(16) -1.066(3)
N3F N 0.08900(14) 0.32626(9) -0.0404(3)
N3F_2 N 1.08900(14) 0.32626(9) -1.0404(3)
N4F N 0.77034(15) 0.06340(10) -0.4706(2)
C1F C 0.8210(2) 0.18415(16) -0.6616(3)
H7F H 0.8400 0.1888 -0.5735
C2F C 0.8642(2) 0.21088(15) -0.7632(3)
H8F H 0.9104 0.2326 -0.7429
C3F C 0.83770(18) 0.20478(12) -0.8955(3)
C4F C 0.76776(19) 0.17091(13) -0.9162(3)
H9F H 0.7478 0.1649 -1.0032
C5F C 0.72912(19) 0.14692(14) -0.8090(3)
H10F H 0.6822 0.1253 -0.8259
C6F C 1.08638(19) 0.28395(13) -0.9559(3)
H11F H 0.6345 0.2238 -0.4056
C7F C 1.01658(19) 0.25104(13) -0.9388(3)
H12F H 0.5183 0.2780 -0.3792
C8F C 0.94403(16) 0.26207(11) -1.0118(3)
C9F C 0.94670(19) 0.30540(13) -1.1038(3)
H13F H 0.9001 0.3133 -1.1574
C10F C 0.51892(19) 0.16401(13) -0.6138(3)
H14F H 0.5195 0.1352 -0.6741
C11F C 0.82866(18) 0.07427(14) -0.3764(3)
C12F C 0.8843(2) 0.03463(16) -0.3329(4)
H15F H 0.9243 0.0421 -0.2668
C13F C 0.8787(3) -0.01623(17) -0.3904(5)
H16F H 0.9161 -0.0433 -0.3646
C14F C 0.8172(3) -0.02695(16) -0.4865(4)
H17F H 0.8124 -0.0612 -0.5246
C15F C 0.76315(18) 0.01430(11) -0.5244(4)
C16F C 0.8222(2) 0.13147(14) -0.3230(4)
C17F C 0.6912(2) 0.00922(15) -0.6198(4)
O2 O 0.2500 0.2500 0.2845(3)
H1 H 0.245(2) 0.2270(11) 0.220(3)
H1E H 0.255(2) 0.2730(11) 0.220(3)
O4 O -0.0563(2) 0.44137(18) 0.1109(4)
H2 H -0.092(3) 0.450(2) 0.172(4)
H3 H -0.031(3) 0.4656(18) 0.060(5)
O6 O 0.5039(5) 0.6068(3) -0.0797(12)
loop_
_geom_bond_atom_site_label_1
_geom_bond_atom_site_label_2
_geom_bond_site_symmetry_1
_geom_bond_site_symmetry_2
Ni1 O5 1_555 1_555
O1 C16 1_555 1_555
O2 H1 1_555 1_555
O3 C17 1_555 1_555
O4 H2 1_555 1_555
H3 O4 1_555 1_555
O5 C17 1_555 1_555
O7 Ni1 1_555 1_555
O8 Ni1 1_555 1_555
H4 O8 1_555 1_555
H5 O8 1_555 1_555
N1 Ni1 1_555 1_555
N2 H6 1_555 1_555
N3 C6 1_555 1_555
N4 Ni1 1_555 1_555
C1 N1 1_555 1_555
H7 C1 1_555 1_555
C2 C1 1_555 1_555
H8 C2 1_555 1_555
C3 N2 1_555 1_555
C4 C3 1_555 1_555
H9 C4 1_555 1_555
C5 N1 1_555 1_555
H10 C5 1_555 1_555
C6 C7 1_555 1_555
H11 C6F 1_555 1_555
C7 C8 1_555 1_555
H12 C7F 1_555 1_555
C8 N2 1_555 1_555
C9 C8 1_555 1_555
H13 C9 1_555 1_555
C10 H14 1_555 1_555
C11 N4 1_555 1_555
C12 C11 1_555 1_555
H15 C12 1_555 1_555
C13 C12 1_555 1_555
H16 C13 1_555 1_555
C14 C13 1_555 1_555
H17 C14 1_555 1_555
C15 N4 1_555 1_555
C16 O7 1_555 1_555
C17 C15 1_555 1_555
Ni1F N3 1_555 1_555
Ni1_2 N3F_2 1_555 1_555
O1F C16F 1_555 1_555
H1E O2 1_555 1_555
O3F C17F 1_555 1_555
O5F Ni1F 1_555 1_555
O7F Ni1F 1_555 1_555
O8F Ni1F 1_555 1_555
H4F O8F 1_555 1_555
H5F O8F 1_555 1_555
N1F Ni1F 1_555 1_555
N2F H6F 1_555 1_555
N3F Ni1 1_555 1_555
N3F_2 C10 1_555 1_555
N4F Ni1F 1_555 1_555
C1F N1F 1_555 1_555
H7F C1F 1_555 1_555
C2F C1F 1_555 1_555
H8F C2F 1_555 1_555
C3F N2F 1_555 1_555
C4F C3F 1_555 1_555
H9F C4F 1_555 1_555
C5F N1F 1_555 1_555
H10F C5F 1_555 1_555
C6F N3F_2 1_555 1_555
H11F C6 1_555 1_555
C7F C6F 1_555 1_555
H12F C7 1_555 1_555
C8F N2F 1_555 1_555
C9F C10 1_555 1_555
H13F C9F 1_555 1_555
C10F N3 1_555 1_555
H14F C10F 1_555 1_555
C11F N4F 1_555 1_555
C12F C11F 1_555 1_555
H15F C12F 1_555 1_555
C13F C12F 1_555 1_555
H16F C13F 1_555 1_555
C14F C13F 1_555 1_555
H17F C14F 1_555 1_555
C15F N4F 1_555 1_555
C16F O7F 1_555 1_555
C17F O5F 1_555 1_555
C2 C3 1_555 1_555
C4 C5 1_555 1_555
C9 C10F 1_555 1_555
C11 C16 1_555 1_555
C14 C15 1_555 1_555
C2F C3F 1_555 1_555
C4F C5F 1_555 1_555
C7F C8F 1_555 1_555
C8F C9F 1_555 1_555
C11F C16F 1_555 1_555
C14F C15F 1_555 1_555
C15F C17F 1_555 1_555

#END
