
#######################################################################
#
#                 Cambridge Crystallographic Data Centre
#                                CCDC 
#
#######################################################################
#
# If this CIF has been generated from an entry in the Cambridge 
# Structural Database, then it will include bibliographic, chemical, 
# crystal, experimental, refinement or atomic coordinate data resulting 
# from the CCDC's data processing and validation procedures.
#
#######################################################################

data_PIXVIC
_symmetry_cell_setting           orthorhombic
_symmetry_space_group_name_H-M   'P n a a'
_symmetry_Int_Tables_number      56
_space_group_name_Hall           '-P 2ac 2bc'
loop_
_symmetry_equiv_pos_site_id
_symmetry_equiv_pos_as_xyz
1 x,y,z
2 1/2-x,-y,1/2+z
3 x,1/2-y,1/2-z
4 1/2-x,1/2+y,-z
5 -x,-y,-z
6 1/2+x,y,1/2-z
7 -x,1/2+y,1/2+z
8 1/2+x,1/2-y,z
_cell_length_a                   9.483(6)
_cell_length_b                   19.296(3)
_cell_length_c                   22.270(3)
_cell_angle_alpha                90
_cell_angle_beta                 90
_cell_angle_gamma                90
_cell_volume                     4075.05
loop_
_atom_site_label
_atom_site_type_symbol
_atom_site_fract_x
_atom_site_fract_y
_atom_site_fract_z
Co1 Co 0.61357(10) 0.17871(5) 0.61606(4)
P1 P 0.3174(2) 0.19037(12) 0.54743(9)
P2 P 0.3245(2) 0.10373(12) 0.66054(10)
O1 O 0.4837(5) 0.1102(2) 0.6612(2)
O2 O 0.2423(5) 0.1522(2) 0.70050(18)
O3 O 0.4756(4) 0.1899(2) 0.54704(19)
O4 O 0.7497(4) 0.2480(3) 0.57481(19)
O5 O 0.5289(5) 0.2663(2) 0.6710(2)
O6 O 0.7689(4) 0.1749(3) 0.68419(19)
N1 N 0.7255(6) 0.0995(3) 0.5696(3)
C1 C 0.2585(7) 0.1097(3) 0.5824(3)
H1 H 0.2931 0.0705 0.5593
H2 H 0.1563 0.1079 0.5824
C2 C 0.1562(5) 0.0030(2) 0.71345(17)
H3 H 0.1062 0.0397 0.7301
C3 C 0.1118(4) -0.0647(3) 0.72318(15)
H4 H 0.0321 -0.0733 0.7464
C4 C 0.1864(5) -0.11966(18) 0.6982(2)
H5 H 0.1567 -0.165 0.7048
C5 C 0.3055(5) -0.1068(2) 0.66357(19)
H6 H 0.3554 -0.1436 0.6469
C6 C 0.3499(4) -0.0391(3) 0.65384(16)
H7 H 0.4295 -0.0305 0.6306
C7 C 0.2752(5) 0.01580(18) 0.67878(18)
C8 C 0.3458(4) 0.1501(2) 0.4295(2)
H8 H 0.431 0.1314 0.4423
C9 C 0.3055(5) 0.14398(19) 0.36968(19)
H9 H 0.3638 0.1212 0.3425
C10 C 0.1781(5) 0.1719(2) 0.35049(14)
H10 H 0.1512 0.1678 0.3105
C11 C 0.0910(4) 0.20599(19) 0.3911(2)
H11 H 0.0058 0.2247 0.3782
C12 C 0.1313(5) 0.21213(18) 0.45086(19)
H12 H 0.073 0.2349 0.478
C13 C 0.2586(5) 0.1842(2) 0.47005(14)
C14 C 0.7689(7) 0.1092(3) 0.5148(3)
H13 H 0.7278 0.1453 0.4934
C15 C 0.8690(7) 0.0711(3) 0.4856(3)
H14 H 0.888 0.0804 0.4455
C16 C 0.9447(6) 0.0178(3) 0.5152(3)
C17 C 0.9026(8) 0.0094(4) 0.5713(3)
H15 H 0.9487 -0.0235 0.5946
C18 C 0.7949(8) 0.0465(4) 0.5971(4)
H16 H 0.7675 0.0347 0.6359
Co1G Co 1.11357(10) 0.32129(5) 0.61606(4)
Co1G_2 Co 0.11357(10) 0.32129(5) 0.61606(4)
Co1D Co 1.38643(10) -0.17871(5) 0.38394(4)
P1G P 0.8174(2) 0.30963(12) 0.54743(9)
P2G P 0.8245(2) 0.39627(12) 0.66054(10)
O1G O 0.9837(5) 0.3898(2) 0.6612(2)
O2G O 0.7423(5) 0.3478(2) 0.70050(18)
O3G O 0.9756(4) 0.3101(2) 0.54704(19)
O4G O 1.2497(4) 0.2520(3) 0.57481(19)
O4G_2 O 0.2497(4) 0.2520(3) 0.57481(19)
O5G O 1.0289(5) 0.2337(2) 0.6710(2)
O6G O 1.2689(4) 0.3251(3) 0.68419(19)
N1G N 1.2255(6) 0.4005(3) 0.5696(3)
N1D N 1.2745(6) -0.0995(3) 0.4304(3)
C1G C 0.7585(7) 0.3903(3) 0.5824(3)
H1G H 0.7931 0.4295 0.5593
H2G H 0.6563 0.3921 0.5824
C2G C 0.6562(5) 0.4970(2) 0.71345(17)
H3G H 0.6062 0.4603 0.7301
C3G C 0.6118(4) 0.5647(3) 0.72318(15)
H4G H 0.5321 0.5733 0.7464
C4G C 0.6864(5) 0.61966(18) 0.6982(2)
H5G H 0.6567 0.665 0.7048
C5G C 0.8055(5) 0.6068(2) 0.66357(19)
H6G H 0.8554 0.6436 0.6469
C6G C 0.8499(4) 0.5391(3) 0.65384(16)
H7G H 0.9295 0.5305 0.6306
C7G C 0.7752(5) 0.48420(18) 0.67878(18)
C8G C 0.8458(4) 0.3499(2) 0.4295(2)
H8G H 0.931 0.3686 0.4423
C9G C 0.8055(5) 0.35602(19) 0.36968(19)
H9G H 0.8638 0.3788 0.3425
C10G C 0.6781(5) 0.3281(2) 0.35049(14)
H10G H 0.6512 0.3322 0.3105
C11G C 0.5910(4) 0.29401(19) 0.3911(2)
H11G H 0.5058 0.2753 0.3782
C12G C 0.6313(5) 0.28787(18) 0.45086(19)
H12G H 0.573 0.2651 0.478
C13G C 0.7586(5) 0.3158(2) 0.47005(14)
C14D C 1.2311(7) -0.1092(3) 0.4852(3)
H13D H 1.2722 -0.1453 0.5066
C15D C 1.1310(7) -0.0711(3) 0.5144(3)
H14D H 1.112 -0.0804 0.5545
C16D C 1.0553(6) -0.0178(3) 0.4848(3)
C17D C 1.0974(8) -0.0094(4) 0.4287(3)
H15D H 1.0513 0.0235 0.4054
C18D C 1.2051(8) -0.0465(4) 0.4029(4)
H16D H 1.2325 -0.0347 0.3641
loop_
_geom_bond_atom_site_label_1
_geom_bond_atom_site_label_2
_geom_bond_site_symmetry_1
_geom_bond_site_symmetry_2
Co1 O1 1_555 1_555
P1 O3 1_555 1_555
P2 O1 1_555 1_555
O2 P2 1_555 1_555
O3 Co1 1_555 1_555
O4 Co1 1_555 1_555
O5 Co1 1_555 1_555
O6 Co1 1_555 1_555
N1 Co1 1_555 1_555
C1 P1 1_555 1_555
H1 C1 1_555 1_555
H2 C1 1_555 1_555
C2 H3 1_555 1_555
C3 C2 1_555 1_555
H4 C3 1_555 1_555
C4 C3 1_555 1_555
H5 C4 1_555 1_555
C5 C4 1_555 1_555
H6 C5 1_555 1_555
C6 C5 1_555 1_555
H7 C6 1_555 1_555
C7 P2 1_555 1_555
C8 H8 1_555 1_555
C9 C8 1_555 1_555
H9 C9 1_555 1_555
C10 C9 1_555 1_555
H10 C10 1_555 1_555
C11 C10 1_555 1_555
H11 C11 1_555 1_555
C12 C11 1_555 1_555
H12 C12 1_555 1_555
C13 P1 1_555 1_555
C14 N1 1_555 1_555
H13 C14 1_555 1_555
C15 C14 1_555 1_555
H14 C15 1_555 1_555
C16 C15 1_555 1_555
C17 C16 1_555 1_555
H15 C17 1_555 1_555
C18 N1 1_555 1_555
H16 C18 1_555 1_555
Co1G O1G 1_555 1_555
Co1G_2 O4G_2 1_555 1_555
Co1D N1D 1_555 1_555
P1G O4 1_555 1_555
P2G O1G 1_555 1_555
O2G P2G 1_555 1_555
O3G Co1G 1_555 1_555
O4G Co1G 1_555 1_555
O4G_2 P1 1_555 1_555
O5G Co1G 1_555 1_555
O6G Co1G 1_555 1_555
N1G Co1G 1_555 1_555
N1D C14D 1_555 1_555
C1G P1G 1_555 1_555
H1G C1G 1_555 1_555
H2G C1G 1_555 1_555
C2G H3G 1_555 1_555
C3G C2G 1_555 1_555
H4G C3G 1_555 1_555
C4G C3G 1_555 1_555
H5G C4G 1_555 1_555
C5G C4G 1_555 1_555
H6G C5G 1_555 1_555
C6G C5G 1_555 1_555
H7G C6G 1_555 1_555
C7G P2G 1_555 1_555
C8G H8G 1_555 1_555
C9G C8G 1_555 1_555
H9G C9G 1_555 1_555
C10G C9G 1_555 1_555
H10G C10G 1_555 1_555
C11G C10G 1_555 1_555
H11G C11G 1_555 1_555
C12G C11G 1_555 1_555
H12G C12G 1_555 1_555
C13G P1G 1_555 1_555
C14D H13D 1_555 1_555
C15D C14D 1_555 1_555
H14D C15D 1_555 1_555
C16D C16 1_555 1_555
C17D C16D 1_555 1_555
H15D C17D 1_555 1_555
C18D N1D 1_555 1_555
H16D C18D 1_555 1_555
P2 C1 1_555 1_555
C2 C7 1_555 1_555
C6 C7 1_555 1_555
C8 C13 1_555 1_555
C12 C13 1_555 1_555
C17 C18 1_555 1_555
P1G O3G 1_555 1_555
P2G C1G 1_555 1_555
C2G C7G 1_555 1_555
C6G C7G 1_555 1_555
C8G C13G 1_555 1_555
C12G C13G 1_555 1_555
C15D C16D 1_555 1_555
C17D C18D 1_555 1_555

#END
