
#######################################################################
#
#                 Cambridge Crystallographic Data Centre
#                                CCDC 
#
#######################################################################
#
# If this CIF has been generated from an entry in the Cambridge 
# Structural Database, then it will include bibliographic, chemical, 
# crystal, experimental, refinement or atomic coordinate data resulting 
# from the CCDC's data processing and validation procedures.
#
#######################################################################

data_PIXWOJ
_symmetry_cell_setting           monoclinic
_symmetry_space_group_name_H-M   'P 2/c'
_symmetry_Int_Tables_number      13
_space_group_name_Hall           '-P 2yc'
loop_
_symmetry_equiv_pos_site_id
_symmetry_equiv_pos_as_xyz
1 x,y,z
2 -x,y,1/2-z
3 -x,-y,-z
4 x,-y,1/2+z
_cell_length_a                   9.189(5)
_cell_length_b                   11.332(7)
_cell_length_c                   9.994(6)
_cell_angle_alpha                90
_cell_angle_beta                 109.497(8)
_cell_angle_gamma                90
_cell_volume                     980.999
loop_
_atom_site_label
_atom_site_type_symbol
_atom_site_fract_x
_atom_site_fract_y
_atom_site_fract_z
Co1 Co 0.5000 0.47588(4) 0.2500
N1 N 0.0000 0.2299(3) -0.2500
N2 N 0.5000 0.2874(2) 0.2500
N3 N 0.5000 -0.3363(3) 0.2500
O1 O 0.35421(19) 0.52896(15) -0.12640(18)
O2 O 0.30060(19) 0.46478(14) 0.06297(17)
C1 C 0.1214(3) 0.2903(2) -0.1655(3)
C2 C 0.1282(3) 0.4135(2) -0.1630(2)
C3 C 0.0000 0.4765(3) -0.2500
C4 C 0.0000 0.6089(3) -0.2500
C5 C -0.0143(3) 0.6710(2) -0.3731(3)
H1 H -0.0241 0.6303 -0.4565
C6 C -0.0142(3) 0.7933(2) -0.3730(3)
H2 H -0.0238 0.8342 -0.4562
C7 C 0.0000 0.8546(4) -0.2500
H3 H 0.0000 0.9367 -0.2500
C8 C -0.2493(3) 0.2154(2) -0.4281(3)
H4 H -0.2225 0.1336 -0.4108
H5 H -0.3425 0.2310 -0.4078
H6 H -0.2650 0.2336 -0.5257
C9 C 0.2737(3) 0.4745(2) -0.0684(3)
C10 C 0.6038(3) 0.2264(2) 0.2117(3)
H7 H 0.6767 0.2677 0.1844
C11 C 0.6076(3) 0.1043(2) 0.2108(3)
H8 H 0.6824 0.0651 0.1839
C12 C 0.5000 0.0411(3) 0.2500
C13 C 0.5000 -0.0895(3) 0.2500
C14 C 0.6183(3) -0.1533(2) 0.3443(3)
H9 H 0.7010 -0.1142 0.4092
C15 C 0.6141(3) -0.2746(2) 0.3423(3)
H10 H 0.3060 -0.3157 0.0920
Co1_2 Co 0.5000 -0.52412(4) 0.2500
Co1C Co 0.5000 0.52412(4) -0.2500
Co1C_2 Co -0.5000 0.52412(4) -0.2500
Co1_3 Co -0.5000 0.47588(4) -0.7500
N3_2 N 0.5000 0.6637(3) 0.2500
O1B O 0.64579(19) 0.47104(15) 0.12640(18)
O1C O 0.35421(19) 0.47104(15) 0.37360(18)
O1A O -0.35421(19) 0.52896(15) -0.37360(18)
O2A O 0.69940(19) 0.46478(14) 0.43703(17)
O2A_2 O -0.30060(19) 0.46478(14) -0.56297(17)
C1A C -0.1214(3) 0.2903(2) -0.3345(3)
C2A C -0.1282(3) 0.4135(2) -0.3370(2)
C5A C 0.0143(3) 0.6710(2) -0.1269(3)
H1A H 0.0241 0.6303 -0.0435
C6A C 0.0142(3) 0.7933(2) -0.1270(3)
H2A H 0.0238 0.8342 -0.0438
C8A C 0.2493(3) 0.2154(2) -0.0719(3)
H4A H 0.2225 0.1336 -0.0892
H5A H 0.3425 0.2310 -0.0922
H6A H 0.2650 0.2336 0.0257
C9A C -0.2737(3) 0.4745(2) -0.4316(3)
C10A C 0.3962(3) 0.2264(2) 0.2883(3)
H7A H 0.3233 0.2677 0.3156
C11A C 0.3924(3) 0.1043(2) 0.2892(3)
H8A H 0.3176 0.0651 0.3161
C14A C 0.3817(3) -0.1533(2) 0.1557(3)
H9A H 0.2990 -0.1142 0.0908
C15A C 0.3859(3) -0.2746(2) 0.1577(3)
H10A H 0.6940 -0.3157 0.4080
loop_
_geom_bond_atom_site_label_1
_geom_bond_atom_site_label_2
_geom_bond_site_symmetry_1
_geom_bond_site_symmetry_2
Co1 N2 1_555 1_555
N1 C1 1_555 1_555
N2 C10 1_555 1_555
N3 C15 1_555 1_555
O1 C9 1_555 1_555
O2 Co1 1_555 1_555
C1 C2 1_555 1_555
C2 C3 1_555 1_555
C3 C4 1_555 1_555
C4 C5 1_555 1_555
C5 H1 1_555 1_555
C6 C5 1_555 1_555
H2 C6 1_555 1_555
C7 C6 1_555 1_555
H3 C7 1_555 1_555
C8 H4 1_555 1_555
H5 C8 1_555 1_555
H6 C8 1_555 1_555
C9 O2 1_555 1_555
C10 H7 1_555 1_555
C11 C10 1_555 1_555
H8 C11 1_555 1_555
C12 C11 1_555 1_555
C13 C12 1_555 1_555
C14 C13 1_555 1_555
H9 C14 1_555 1_555
C15 C14 1_555 1_555
H10 C15A 1_555 1_555
Co1_2 N3 1_555 1_555
Co1C O1 1_555 1_555
Co1C_2 O1A 1_555 1_555
Co1_3 O2A_2 1_555 1_555
N3_2 Co1 1_555 1_555
O1B Co1 1_555 1_555
O1C Co1 1_555 1_555
O1A C9A 1_555 1_555
O2A Co1 1_555 1_555
O2A_2 C9A 1_555 1_555
C1A N1 1_555 1_555
C2A C3 1_555 1_555
C5A C4 1_555 1_555
H1A C5A 1_555 1_555
C6A C7 1_555 1_555
H2A C6A 1_555 1_555
C8A C1 1_555 1_555
H4A C8A 1_555 1_555
H5A C8A 1_555 1_555
H6A C8A 1_555 1_555
C9A C2A 1_555 1_555
C10A N2 1_555 1_555
H7A C10A 1_555 1_555
C11A C12 1_555 1_555
H8A C11A 1_555 1_555
C14A C13 1_555 1_555
H9A C14A 1_555 1_555
C15A N3 1_555 1_555
H10A C15 1_555 1_555
C2 C9 1_555 1_555
C8 C1A 1_555 1_555
C1A C2A 1_555 1_555
C5A C6A 1_555 1_555
C10A C11A 1_555 1_555
C14A C15A 1_555 1_555

#END
