
#######################################################################
#
#                 Cambridge Crystallographic Data Centre
#                                CCDC 
#
#######################################################################
#
# If this CIF has been generated from an entry in the Cambridge 
# Structural Database, then it will include bibliographic, chemical, 
# crystal, experimental, refinement or atomic coordinate data resulting 
# from the CCDC's data processing and validation procedures.
#
#######################################################################

data_PIYFIO
_symmetry_cell_setting           triclinic
_symmetry_space_group_name_H-M   'P -1'
_symmetry_Int_Tables_number      2
_space_group_name_Hall           '-P 1'
loop_
_symmetry_equiv_pos_site_id
_symmetry_equiv_pos_as_xyz
1 x,y,z
2 -x,-y,-z
_cell_length_a                   11.4060(9)
_cell_length_b                   11.6360(9)
_cell_length_c                   14.2197(11)
_cell_angle_alpha                96.093(2)
_cell_angle_beta                 106.264(2)
_cell_angle_gamma                115.741(2)
_cell_volume                     1574.3
loop_
_atom_site_label
_atom_site_type_symbol
_atom_site_fract_x
_atom_site_fract_y
_atom_site_fract_z
Ag1 Ag 0.32103(4) 0.47397(4) 0.57977(3)
Ag2 Ag 0.08252(4) 0.44748(4) 0.41600(3)
Ag3 Ag 0.14806(4) 0.21865(4) 0.43078(3)
Ag4 Ag 0.44756(4) 0.35940(4) 0.48400(3)
Ag5 Ag 0.05215(5) 0.02013(4) -0.20261(4)
N1 N 0.1151(6) 0.1824(5) -0.0793(4)
N2 N 0.3712(5) 0.4753(5) 0.7370(4)
C1 C 0.2993(5) 0.4493(5) 0.4262(4)
C2 C 0.2691(5) 0.4657(5) 0.3413(4)
C3 C 0.2426(5) 0.4763(5) 0.2380(4)
C4 C 0.2635(6) 0.5967(5) 0.2150(4)
H1 H 0.2975 0.6731 0.2681
C5 C 0.2349(7) 0.6042(6) 0.1162(5)
H2 H 0.2459 0.6852 0.1012
C6 C 0.1903(7) 0.4961(6) 0.0384(5)
H3 H 0.1711 0.5023 -0.0298
C7 C 0.1739(6) 0.3778(6) 0.0607(4)
C8 C 0.1971(5) 0.3650(5) 0.1602(4)
H4 H 0.1823 0.2830 0.1745
C9 C 0.1367(6) 0.2659(6) -0.0178(4)
C10 C -0.0083(6) 0.2972(5) 0.5773(5)
C11 C -0.0849(10) 0.2621(8) 0.6514(7)
C12 C -0.1260(6) 0.2258(5) 0.2252(4)
C13 C -0.2410(7) 0.1563(7) 0.1182(5)
C14 C 0.3723(6) 0.1335(5) 0.5831(4)
C15 C 0.4005(7) 0.0421(6) 0.6468(6)
C16 C 0.3095(6) 0.1436(5) 0.2808(4)
C17 C 0.2949(7) 0.0579(6) 0.1840(5)
C18 C 0.3772(8) 0.3764(7) 0.7709(5)
H5 H 0.3461 0.2968 0.7223
C19 C 0.4251(8) 0.3806(7) 0.8714(5)
H6 H 0.4264 0.3054 0.8907
C20 C 0.4719(6) 0.4944(5) 0.9450(4)
C21 C 0.4640(10) 0.5991(7) 0.9103(5)
H7 H 0.4916 0.6791 0.9569
C22 C 0.4158(9) 0.5853(7) 0.8077(5)
H8 H 0.4140 0.6589 0.7855
O1 O 0.0096(4) 0.4016(4) 0.5536(3)
O2 O -0.0424(4) -0.0149(4) 0.3728(3)
H9 H -0.0966 -0.0248 0.4054
H10 H -0.0076 -0.0660 0.3830
O3 O 0.0293(5) 0.2191(4) 0.5500(4)
O4 O 0.2835(4) 0.6669(4) 0.6045(4)
H11 H 0.2354 0.6576 0.6420
H12 H 0.2406 0.6728 0.5473
O5 O -0.1244(4) 0.3220(4) 0.2733(4)
O6 O -0.0468(4) 0.1799(4) 0.2502(3)
O7 O 0.2520(4) 0.1142(4) 0.5525(3)
O8 O 0.4784(4) 0.2192(4) 0.5739(4)
O9 O 0.1972(4) 0.1212(4) 0.2906(3)
O10 O 0.4290(4) 0.2272(4) 0.3365(3)
F1 F -0.2108(7) 0.2586(8) 0.6127(6)
F2 F -0.1210(11) 0.1471(8) 0.6613(8)
F3 F -0.0251(9) 0.3457(10) 0.7336(5)
F4 F -0.2964(7) 0.0267(6) 0.0949(5)
F5 F -0.3422(7) 0.1792(9) 0.1044(5)
F6 F -0.1891(8) 0.1895(9) 0.0490(4)
F7 F 0.2868(5) -0.0616(5) 0.6410(5)
F8 F 0.4824(7) 0.0050(7) 0.6278(6)
F9 F 0.4613(8) 0.1062(6) 0.7432(4)
F10 F 0.4165(5) 0.0838(4) 0.1758(4)
F11 F 0.2306(5) -0.0700(4) 0.1787(4)
F12 F 0.2203(6) 0.0746(5) 0.1027(3)
N2A N 0.6288(5) 0.5247(5) 1.2630(4)
C18A C 0.6228(8) 0.6236(7) 1.2291(5)
H5A H 0.6539 0.7032 1.2777
C19A C 0.5749(8) 0.6194(7) 1.1286(5)
H6A H 0.5736 0.6946 1.1093
C20A C 0.5281(6) 0.5056(5) 1.0550(4)
C21A C 0.5360(10) 0.4009(7) 1.0897(5)
H7A H 0.5084 0.3209 1.0431
C22A C 0.5842(9) 0.4147(7) 1.1923(5)
H8A H 0.5860 0.3411 1.2145
Ag1A Ag -0.32103(4) -0.47397(4) -0.57977(3)
Ag2A Ag -0.08252(4) -0.44748(4) -0.41600(3)
Ag3A Ag -0.14806(4) -0.21865(4) -0.43078(3)
Ag4A Ag -0.44756(4) -0.35940(4) -0.48400(3)
Ag5A Ag -0.05215(5) -0.02013(4) 0.20261(4)
N1A N -0.1151(6) -0.1824(5) 0.0793(4)
C1A C -0.2993(5) -0.4493(5) -0.4262(4)
C2A C -0.2691(5) -0.4657(5) -0.3413(4)
C3A C -0.2426(5) -0.4763(5) -0.2380(4)
C4A C -0.2635(6) -0.5967(5) -0.2150(4)
H1A H -0.2975 -0.6731 -0.2681
C5A C -0.2349(7) -0.6042(6) -0.1162(5)
H2A H -0.2459 -0.6852 -0.1012
C6A C -0.1903(7) -0.4961(6) -0.0384(5)
H3A H -0.1711 -0.5023 0.0298
C7A C -0.1739(6) -0.3778(6) -0.0607(4)
C8A C -0.1971(5) -0.3650(5) -0.1602(4)
H4A H -0.1823 -0.2830 -0.1745
C9A C -0.1367(6) -0.2659(6) 0.0178(4)
C10A C 0.0083(6) -0.2972(5) -0.5773(5)
C11A C 0.0849(10) -0.2621(8) -0.6514(7)
C12A C 0.1260(6) -0.2258(5) -0.2252(4)
C13A C 0.2410(7) -0.1563(7) -0.1182(5)
C14A C -0.3723(6) -0.1335(5) -0.5831(4)
C15A C -0.4005(7) -0.0421(6) -0.6468(6)
C16A C -0.3095(6) -0.1436(5) -0.2808(4)
C17A C -0.2949(7) -0.0579(6) -0.1840(5)
O1A O -0.0096(4) -0.4016(4) -0.5536(3)
O2A O 0.0424(4) 0.0149(4) -0.3728(3)
H9A H 0.0966 0.0248 -0.4054
H10A H 0.0076 0.0660 -0.3830
O3A O -0.0293(5) -0.2191(4) -0.5500(4)
O4A O -0.2835(4) -0.6669(4) -0.6045(4)
H11A H -0.2354 -0.6576 -0.6420
H12A H -0.2406 -0.6728 -0.5473
O5A O 0.1244(4) -0.3220(4) -0.2733(4)
O6A O 0.0468(4) -0.1799(4) -0.2502(3)
O7A O -0.2520(4) -0.1142(4) -0.5525(3)
O8A O -0.4784(4) -0.2192(4) -0.5739(4)
O9A O -0.1972(4) -0.1212(4) -0.2906(3)
O10A O -0.4290(4) -0.2272(4) -0.3365(3)
F1A F 0.2108(7) -0.2586(8) -0.6127(6)
F2A F 0.1210(11) -0.1471(8) -0.6613(8)
F3A F 0.0251(9) -0.3457(10) -0.7336(5)
F4A F 0.2964(7) -0.0267(6) -0.0949(5)
F5A F 0.3422(7) -0.1792(9) -0.1044(5)
F6A F 0.1891(8) -0.1895(9) -0.0490(4)
F7A F -0.2868(5) 0.0616(5) -0.6410(5)
F8A F -0.4824(7) -0.0050(7) -0.6278(6)
F9A F -0.4613(8) -0.1062(6) -0.7432(4)
F10A F -0.4165(5) -0.0838(4) -0.1758(4)
F11A F -0.2306(5) 0.0700(4) -0.1787(4)
F12A F -0.2203(6) -0.0746(5) -0.1027(3)
Ag1_2 Ag -0.67897(4) -0.52603(4) -0.42023(3)
Ag1A_2 Ag 0.67897(4) 0.52603(4) 0.42023(3)
Ag1A_3 Ag 0.67897(4) 0.52603(4) 1.42023(3)
Ag2_2 Ag 0.08252(4) -0.55252(4) -0.58400(3)
Ag2A_2 Ag -0.08252(4) 0.55252(4) 0.58400(3)
Ag4_2 Ag -0.55244(4) -0.64060(4) -0.51600(3)
Ag4A_2 Ag 0.55244(4) 0.64060(4) 0.51600(3)
N2A_2 N -0.3712(5) -0.4753(5) -0.7370(4)
O1_2 O 0.0096(4) -0.5984(4) -0.4464(3)
O1A_2 O -0.0096(4) 0.5984(4) 0.4464(3)
loop_
_geom_bond_atom_site_label_1
_geom_bond_atom_site_label_2
_geom_bond_site_symmetry_1
_geom_bond_site_symmetry_2
Ag1 Ag2 1_555 1_555
Ag2 O1 1_555 1_555
Ag3 Ag1 1_555 1_555
Ag4 Ag1 1_555 1_555
Ag5 N1 1_555 1_555
N1 C9 1_555 1_555
N2 Ag1 1_555 1_555
C1 Ag1 1_555 1_555
C2 C1 1_555 1_555
C3 C2 1_555 1_555
C4 C3 1_555 1_555
H1 C4 1_555 1_555
C5 C4 1_555 1_555
H2 C5 1_555 1_555
C6 C5 1_555 1_555
H3 C6 1_555 1_555
C7 C6 1_555 1_555
C8 C3 1_555 1_555
H4 C8 1_555 1_555
C9 C7 1_555 1_555
C10 C11 1_555 1_555
C11 F1 1_555 1_555
C12 C13 1_555 1_555
C13 F4 1_555 1_555
C14 C15 1_555 1_555
C15 F7 1_555 1_555
C16 C17 1_555 1_555
C17 F10 1_555 1_555
C18 N2 1_555 1_555
H5 C18 1_555 1_555
C19 C18 1_555 1_555
H6 C19 1_555 1_555
C20 C19 1_555 1_555
C21 C20 1_555 1_555
H7 C21 1_555 1_555
C22 N2 1_555 1_555
H8 C22 1_555 1_555
O1 C10 1_555 1_555
O2 Ag3 1_555 1_555
H9 O2 1_555 1_555
H10 O2 1_555 1_555
O3 Ag3 1_555 1_555
O4 Ag1 1_555 1_555
H11 O4 1_555 1_555
H12 O4 1_555 1_555
O5 Ag2 1_555 1_555
O6 C12 1_555 1_555
O7 Ag3 1_555 1_555
O8 Ag4 1_555 1_555
O9 Ag3 1_555 1_555
O10 Ag4 1_555 1_555
F2 C11 1_555 1_555
F3 C11 1_555 1_555
F5 C13 1_555 1_555
F6 C13 1_555 1_555
F8 C15 1_555 1_555
F9 C15 1_555 1_555
F11 C17 1_555 1_555
F12 C17 1_555 1_555
N2A C18A 1_555 1_555
C18A H5A 1_555 1_555
C19A C18A 1_555 1_555
H6A C19A 1_555 1_555
C20A C20 1_555 1_555
C21A C20A 1_555 1_555
H7A C21A 1_555 1_555
C22A N2A 1_555 1_555
H8A C22A 1_555 1_555
Ag1A Ag2A 1_555 1_555
Ag2A O1A 1_555 1_555
Ag3A Ag1A 1_555 1_555
Ag4A Ag1A 1_555 1_555
Ag5A O2 1_555 1_555
N1A Ag5A 1_555 1_555
C1A Ag1A 1_555 1_555
C2A C1A 1_555 1_555
C3A C2A 1_555 1_555
C4A C3A 1_555 1_555
H1A C4A 1_555 1_555
C5A C4A 1_555 1_555
H2A C5A 1_555 1_555
C6A C5A 1_555 1_555
H3A C6A 1_555 1_555
C7A C6A 1_555 1_555
C8A C3A 1_555 1_555
H4A C8A 1_555 1_555
C9A N1A 1_555 1_555
C10A C11A 1_555 1_555
C11A F1A 1_555 1_555
C12A C13A 1_555 1_555
C13A F4A 1_555 1_555
C14A C15A 1_555 1_555
C15A F7A 1_555 1_555
C16A C17A 1_555 1_555
C17A F10A 1_555 1_555
O1A C10A 1_555 1_555
O2A Ag5 1_555 1_555
H9A O2A 1_555 1_555
H10A O2A 1_555 1_555
O3A Ag3A 1_555 1_555
O4A Ag1A 1_555 1_555
H11A O4A 1_555 1_555
H12A O4A 1_555 1_555
O5A Ag2A 1_555 1_555
O6A Ag5 1_555 1_555
O7A Ag3A 1_555 1_555
O8A Ag4A 1_555 1_555
O9A Ag5 1_555 1_555
O10A Ag4A 1_555 1_555
F2A C11A 1_555 1_555
F3A C11A 1_555 1_555
F5A C13A 1_555 1_555
F6A C13A 1_555 1_555
F8A C15A 1_555 1_555
F9A C15A 1_555 1_555
F11A C17A 1_555 1_555
F12A C17A 1_555 1_555
Ag1_2 Ag4A 1_555 1_555
Ag1A_2 Ag4 1_555 1_555
Ag1A_3 N2A 1_555 1_555
Ag2_2 O1A 1_555 1_555
Ag2A_2 O1 1_555 1_555
Ag4_2 Ag1A 1_555 1_555
Ag4A_2 Ag1 1_555 1_555
N2A_2 Ag1A 1_555 1_555
O1_2 Ag2A 1_555 1_555
O1A_2 Ag2 1_555 1_555
Ag3 Ag4 1_555 1_555
Ag4 C1 1_555 1_555
Ag4 Ag4A_2 1_555 1_555
C7 C8 1_555 1_555
C10 O3 1_555 1_555
C12 O5 1_555 1_555
C14 O7 1_555 1_555
C14 O8 1_555 1_555
C16 O9 1_555 1_555
C16 O10 1_555 1_555
C21 C22 1_555 1_555
O6 Ag5A 1_555 1_555
O9 Ag5A 1_555 1_555
C19A C20A 1_555 1_555
C21A C22A 1_555 1_555
Ag3A Ag4A 1_555 1_555
Ag3A O2A 1_555 1_555
Ag3A O9A 1_555 1_555
Ag4A C1A 1_555 1_555
Ag4A Ag4_2 1_555 1_555
C7A C8A 1_555 1_555
C7A C9A 1_555 1_555
C10A O3A 1_555 1_555
C12A O5A 1_555 1_555
C12A O6A 1_555 1_555
C14A O7A 1_555 1_555
C14A O8A 1_555 1_555
C16A O9A 1_555 1_555
C16A O10A 1_555 1_555
Ag1_2 Ag4_2 1_555 1_555
Ag1A_2 Ag4A_2 1_555 1_555
Ag2_2 O1_2 1_555 1_555
Ag2A_2 O1A_2 1_555 1_555

#END
