
#######################################################################
#
#                 Cambridge Crystallographic Data Centre
#                                CCDC 
#
#######################################################################
#
# If this CIF has been generated from an entry in the Cambridge 
# Structural Database, then it will include bibliographic, chemical, 
# crystal, experimental, refinement or atomic coordinate data resulting 
# from the CCDC's data processing and validation procedures.
#
#######################################################################

data_PIYGEL
_symmetry_cell_setting           triclinic
_symmetry_space_group_name_H-M   'P -1'
_symmetry_Int_Tables_number      2
_space_group_name_Hall           '-P 1'
loop_
_symmetry_equiv_pos_site_id
_symmetry_equiv_pos_as_xyz
1 x,y,z
2 -x,-y,-z
_cell_length_a                   11.3688(5)
_cell_length_b                   11.6712(5)
_cell_length_c                   14.1547(6)
_cell_angle_alpha                96.2370(10)
_cell_angle_beta                 105.6300(10)
_cell_angle_gamma                115.4870(10)
_cell_volume                     1577.26
loop_
_atom_site_label
_atom_site_type_symbol
_atom_site_fract_x
_atom_site_fract_y
_atom_site_fract_z
Ag1 Ag 0.81819(5) 1.47474(5) 0.57901(3)
Ag2 Ag 0.58197(5) 1.44666(5) 0.41478(4)
Ag3 Ag 0.94867(5) 1.36042(5) 0.48517(4)
Ag4 Ag 0.64907(5) 1.21972(5) 0.43115(4)
Ag5 Ag 0.54842(6) 1.02335(5) -0.20071(4)
O1 O 0.7802(6) 1.6671(5) 0.6041(4)
H1 H 0.7324 1.6588 0.6415
H2 H 0.8561 1.7394 0.6164
O2 O 0.3793(5) 1.3203(5) 0.2720(4)
O3 O 0.4543(5) 1.1736(5) 0.2496(4)
O4 O 0.4633(5) 0.9858(4) 0.3730(3)
H3 H 0.4071 0.9744 0.4048
H4 H 0.4198 0.9664 0.3096
O5 O 0.5100(5) 1.4023(5) 0.5551(4)
O6 O 0.5253(5) 1.2172(5) 0.5493(4)
O7 O 0.9777(5) 1.2201(5) 0.5752(4)
O8 O 0.7523(5) 1.1160(5) 0.5555(4)
O9 O 0.9313(5) 1.2284(5) 0.3368(4)
O10 O 0.6991(5) 1.1218(5) 0.2904(4)
C1 C 0.8000(6) 1.4494(6) 0.4248(5)
C2 C 0.7700(6) 1.4626(6) 0.3384(5)
C3 C 0.7435(6) 1.4738(6) 0.2346(4)
C4 C 0.7661(7) 1.5925(7) 0.2113(5)
H5 H 0.8014 1.6691 0.2640
C5 C 0.7371(8) 1.5991(7) 0.1109(6)
H6 H 0.7506 1.6797 0.0947
C6 C 0.6889(7) 1.4887(7) 0.0347(5)
H7 H 0.6673 1.4925 -0.0341
C7 C 0.6721(7) 1.3738(7) 0.0585(5)
C8 C 0.6961(7) 1.3615(6) 0.1582(5)
H8 H 0.6808 1.2800 0.1733
C9 C 0.6063(8) 1.1763(8) -0.0815(6)
C10 C 0.9118(12) 1.5845(9) 0.8078(6)
H9 H 0.9058 1.6566 0.7860
C11 C 0.9650(11) 1.5976(8) 0.9102(6)
H10 H 0.9968 1.6782 0.9574
C12 C 0.9723(7) 1.4947(7) 0.9443(5)
C13 C 0.9236(10) 1.3805(8) 0.8721(6)
H11 H 0.9248 1.3058 0.8921
C14 C 0.8729(10) 1.3748(8) 0.7699(6)
H12 H 0.8402 1.2952 0.7211
C15 C 0.3761(7) 1.2215(7) 0.2238(5)
C16 C 0.2653(9) 1.1554(9) 0.1176(6)
C17 C 0.4880(6) 1.2954(6) 0.5758(5)
C18 C 0.4055(11) 1.2590(9) 0.6475(8)
C19 C 0.8714(7) 1.1340(6) 0.5848(5)
C20 C 0.9008(8) 1.0450(8) 0.6485(7)
C21 C 0.8139(7) 1.1467(6) 0.2814(5)
C22 C 0.8008(8) 1.0610(7) 0.1834(5)
F1 F 0.2014(7) 1.0259(6) 0.0978(5)
F2 F 0.3169(8) 1.1807(8) 0.0479(4)
F3 F 0.1649(8) 1.1858(9) 0.1017(5)
F4 F 0.2892(7) 1.2700(8) 0.6156(6)
F5 F 0.3601(10) 1.1374(8) 0.6522(7)
F6 F 0.4728(9) 1.3321(10) 0.7355(5)
F7 F 0.7865(6) 0.9406(6) 0.6432(5)
F8 F 0.9829(8) 1.0061(8) 0.6285(7)
F9 F 0.9636(9) 1.1078(6) 0.7455(5)
F10 F 0.7348(5) 0.9325(4) 0.1769(4)
F11 F 0.9229(5) 1.0858(5) 0.1766(4)
F12 F 0.7283(6) 1.0799(6) 0.1021(3)
N1 N 0.6326(6) 1.2637(6) -0.0176(4)
N2 N 0.8682(6) 1.4747(6) 0.7377(4)
C10A C 1.0882(12) 1.4155(9) 1.1922(6)
H9A H 1.0942 1.3434 1.2140
C11A C 1.0350(11) 1.4024(8) 1.0898(6)
H10A H 1.0032 1.3218 1.0426
C12A C 1.0277(7) 1.5053(7) 1.0557(5)
C13A C 1.0764(10) 1.6195(8) 1.1279(6)
H11A H 1.0752 1.6942 1.1079
C14A C 1.1271(10) 1.6252(8) 1.2301(6)
H12A H 1.1598 1.7048 1.2789
N2A N 1.1318(6) 1.5253(6) 1.2623(4)
Ag1A Ag 0.18181(5) 0.52526(5) -0.57901(3)
Ag2A Ag 0.41803(5) 0.55334(5) -0.41478(4)
Ag3A Ag 0.05133(5) 0.63958(5) -0.48517(4)
Ag4A Ag 0.35093(5) 0.78028(5) -0.43115(4)
Ag5A Ag 0.45158(6) 0.97665(5) 0.20071(4)
O1A O 0.2198(6) 0.3329(5) -0.6041(4)
H1A H 0.2676 0.3412 -0.6415
H2A H 0.1439 0.2606 -0.6164
O2A O 0.6207(5) 0.6797(5) -0.2720(4)
O3A O 0.5457(5) 0.8264(5) -0.2496(4)
O4A O 0.5367(5) 1.0142(4) -0.3730(3)
H3A H 0.5929 1.0256 -0.4048
H4A H 0.5802 1.0336 -0.3096
O5A O 0.4900(5) 0.5977(5) -0.5551(4)
O6A O 0.4747(5) 0.7828(5) -0.5493(4)
O7A O 0.0223(5) 0.7799(5) -0.5752(4)
O8A O 0.2477(5) 0.8840(5) -0.5555(4)
O9A O 0.0687(5) 0.7716(5) -0.3368(4)
O10A O 0.3009(5) 0.8782(5) -0.2904(4)
C1A C 0.2000(6) 0.5506(6) -0.4248(5)
C2A C 0.2300(6) 0.5374(6) -0.3384(5)
C3A C 0.2565(6) 0.5262(6) -0.2346(4)
C4A C 0.2339(7) 0.4075(7) -0.2113(5)
H5A H 0.1986 0.3309 -0.2640
C5A C 0.2629(8) 0.4009(7) -0.1109(6)
H6A H 0.2494 0.3203 -0.0947
C6A C 0.3111(7) 0.5113(7) -0.0347(5)
H7A H 0.3327 0.5075 0.0341
C7A C 0.3279(7) 0.6262(7) -0.0585(5)
C8A C 0.3039(7) 0.6385(6) -0.1582(5)
H8A H 0.3192 0.7200 -0.1733
C9A C 0.3937(8) 0.8237(8) 0.0815(6)
C15A C 0.6239(7) 0.7785(7) -0.2238(5)
C16A C 0.7347(9) 0.8446(9) -0.1176(6)
C17A C 0.5120(6) 0.7046(6) -0.5758(5)
C18A C 0.5945(11) 0.7410(9) -0.6475(8)
C19A C 0.1286(7) 0.8660(6) -0.5848(5)
C20A C 0.0992(8) 0.9550(8) -0.6485(7)
C21A C 0.1861(7) 0.8533(6) -0.2814(5)
C22A C 0.1992(8) 0.9390(7) -0.1834(5)
F1A F 0.7986(7) 0.9741(6) -0.0978(5)
F2A F 0.6831(8) 0.8193(8) -0.0479(4)
F3A F 0.8351(8) 0.8142(9) -0.1017(5)
F4A F 0.7108(7) 0.7300(8) -0.6156(6)
F5A F 0.6399(10) 0.8626(8) -0.6522(7)
F6A F 0.5272(9) 0.6679(10) -0.7355(5)
F7A F 0.2135(6) 1.0594(6) -0.6432(5)
F8A F 0.0171(8) 0.9939(8) -0.6285(7)
F9A F 0.0364(9) 0.8922(6) -0.7455(5)
F10A F 0.2652(5) 1.0675(4) -0.1769(4)
F11A F 0.0771(5) 0.9142(5) -0.1766(4)
F12A F 0.2717(6) 0.9201(6) -0.1021(3)
N1A N 0.3674(6) 0.7363(6) 0.0176(4)
Ag1_2 Ag -0.18181(5) 0.47474(5) -0.42099(3)
Ag1A_2 Ag 1.18181(5) 1.52526(5) 0.42099(3)
Ag1A_3 Ag 1.18181(5) 1.52526(5) 1.42099(3)
Ag2_2 Ag 0.58197(5) 0.44666(5) -0.58522(4)
Ag2A_2 Ag 0.41803(5) 1.55334(5) 0.58522(4)
Ag3_2 Ag -0.05133(5) 0.36042(5) -0.51483(4)
Ag3A_2 Ag 1.05133(5) 1.63958(5) 0.51483(4)
O5_2 O 0.5100(5) 0.4023(5) -0.4449(4)
O5A_2 O 0.4900(5) 1.5977(5) 0.4449(4)
N2A_2 N 0.1318(6) 0.5253(6) -0.7377(4)
loop_
_geom_bond_atom_site_label_1
_geom_bond_atom_site_label_2
_geom_bond_site_symmetry_1
_geom_bond_site_symmetry_2
Ag1 Ag2 1_555 1_555
Ag2 O2 1_555 1_555
Ag3 Ag1 1_555 1_555
Ag4 Ag1 1_555 1_555
Ag5 C9 1_555 1_555
O1 Ag1 1_555 1_555
H1 O1 1_555 1_555
H2 O1 1_555 1_555
O2 C15 1_555 1_555
O3 C15 1_555 1_555
O4 Ag4 1_555 1_555
H3 O4 1_555 1_555
H4 O4 1_555 1_555
O5 Ag2 1_555 1_555
O6 Ag4 1_555 1_555
O7 Ag3 1_555 1_555
O8 Ag4 1_555 1_555
O9 Ag3 1_555 1_555
O10 Ag4 1_555 1_555
C1 Ag1 1_555 1_555
C2 C1 1_555 1_555
C3 C2 1_555 1_555
C4 C3 1_555 1_555
H5 C4 1_555 1_555
C5 C4 1_555 1_555
H6 C5 1_555 1_555
C6 C5 1_555 1_555
H7 C6 1_555 1_555
C7 C6 1_555 1_555
C8 C3 1_555 1_555
H8 C8 1_555 1_555
C9 N1 1_555 1_555
C10 H9 1_555 1_555
C11 C10 1_555 1_555
H10 C11 1_555 1_555
C12 C11 1_555 1_555
C13 C12 1_555 1_555
H11 C13 1_555 1_555
C14 C13 1_555 1_555
H12 C14 1_555 1_555
C15 C16 1_555 1_555
C16 F1 1_555 1_555
C17 O5 1_555 1_555
C18 C17 1_555 1_555
C19 O7 1_555 1_555
C20 C19 1_555 1_555
C21 O9 1_555 1_555
C22 C21 1_555 1_555
F2 C16 1_555 1_555
F3 C16 1_555 1_555
F4 C18 1_555 1_555
F5 C18 1_555 1_555
F6 C18 1_555 1_555
F7 C20 1_555 1_555
F8 C20 1_555 1_555
F9 C20 1_555 1_555
F10 C22 1_555 1_555
F11 C22 1_555 1_555
F12 C22 1_555 1_555
N1 C7 1_555 1_555
N2 Ag1 1_555 1_555
C10A H9A 1_555 1_555
C11A C10A 1_555 1_555
H10A C11A 1_555 1_555
C12A C12 1_555 1_555
C13A C12A 1_555 1_555
H11A C13A 1_555 1_555
C14A C13A 1_555 1_555
H12A C14A 1_555 1_555
N2A C10A 1_555 1_555
Ag1A Ag2A 1_555 1_555
Ag2A O2A 1_555 1_555
Ag3A Ag1A 1_555 1_555
Ag4A Ag1A 1_555 1_555
Ag5A O3 1_555 1_555
O1A Ag1A 1_555 1_555
H1A O1A 1_555 1_555
H2A O1A 1_555 1_555
O2A C15A 1_555 1_555
O3A Ag5 1_555 1_555
O4A Ag5 1_555 1_555
H3A O4A 1_555 1_555
H4A O4A 1_555 1_555
O5A Ag2A 1_555 1_555
O6A Ag4A 1_555 1_555
O7A Ag3A 1_555 1_555
O8A Ag4A 1_555 1_555
O9A Ag3A 1_555 1_555
O10A Ag5 1_555 1_555
C1A Ag1A 1_555 1_555
C2A C1A 1_555 1_555
C3A C2A 1_555 1_555
C4A C3A 1_555 1_555
H5A C4A 1_555 1_555
C5A C4A 1_555 1_555
H6A C5A 1_555 1_555
C6A C5A 1_555 1_555
H7A C6A 1_555 1_555
C7A C6A 1_555 1_555
C8A C3A 1_555 1_555
H8A C8A 1_555 1_555
C9A Ag5A 1_555 1_555
C15A O3A 1_555 1_555
C16A C15A 1_555 1_555
C17A O5A 1_555 1_555
C18A C17A 1_555 1_555
C19A O7A 1_555 1_555
C20A C19A 1_555 1_555
C21A O9A 1_555 1_555
C22A C21A 1_555 1_555
F1A C16A 1_555 1_555
F2A C16A 1_555 1_555
F3A C16A 1_555 1_555
F4A C18A 1_555 1_555
F5A C18A 1_555 1_555
F6A C18A 1_555 1_555
F7A C20A 1_555 1_555
F8A C20A 1_555 1_555
F9A C20A 1_555 1_555
F10A C22A 1_555 1_555
F11A C22A 1_555 1_555
F12A C22A 1_555 1_555
N1A C7A 1_555 1_555
Ag1_2 Ag3A 1_555 1_555
Ag1A_2 Ag3 1_555 1_555
Ag1A_3 N2A 1_555 1_555
Ag2_2 O5A 1_555 1_555
Ag2A_2 O5 1_555 1_555
Ag3_2 Ag1A 1_555 1_555
Ag3A_2 Ag1 1_555 1_555
O5_2 Ag2A 1_555 1_555
O5A_2 Ag2 1_555 1_555
N2A_2 Ag1A 1_555 1_555
Ag2 C1 1_555 1_555
Ag3 Ag4 1_555 1_555
Ag3 C1 1_555 1_555
Ag3 Ag3A_2 1_555 1_555
O4 Ag5A 1_555 1_555
O6 C17 1_555 1_555
O8 C19 1_555 1_555
O10 C21 1_555 1_555
O10 Ag5A 1_555 1_555
C7 C8 1_555 1_555
C10 N2 1_555 1_555
C14 N2 1_555 1_555
C11A C12A 1_555 1_555
C14A N2A 1_555 1_555
Ag2A C1A 1_555 1_555
Ag3A Ag4A 1_555 1_555
Ag3A C1A 1_555 1_555
Ag3A Ag3_2 1_555 1_555
Ag4A O4A 1_555 1_555
Ag4A O10A 1_555 1_555
O6A C17A 1_555 1_555
O8A C19A 1_555 1_555
O10A C21A 1_555 1_555
C7A C8A 1_555 1_555
C9A N1A 1_555 1_555
Ag1_2 Ag3_2 1_555 1_555
Ag1A_2 Ag3A_2 1_555 1_555
Ag2_2 O5_2 1_555 1_555
Ag2A_2 O5A_2 1_555 1_555

#END
