
#######################################################################
#
#                 Cambridge Crystallographic Data Centre
#                                CCDC 
#
#######################################################################
#
# If this CIF has been generated from an entry in the Cambridge 
# Structural Database, then it will include bibliographic, chemical, 
# crystal, experimental, refinement or atomic coordinate data resulting 
# from the CCDC's data processing and validation procedures.
#
#######################################################################

data_PIYRAR
_symmetry_cell_setting           monoclinic
_symmetry_space_group_name_H-M   'P 21/c'
_symmetry_Int_Tables_number      14
_space_group_name_Hall           '-P 2ybc'
loop_
_symmetry_equiv_pos_site_id
_symmetry_equiv_pos_as_xyz
1 x,y,z
2 -x,1/2+y,1/2-z
3 -x,-y,-z
4 x,1/2-y,1/2+z
_cell_length_a                   15.049(4)
_cell_length_b                   14.392(4)
_cell_length_c                   13.211(4)
_cell_angle_alpha                90
_cell_angle_beta                 112.718(4)
_cell_angle_gamma                90
_cell_volume                     2639.32
loop_
_atom_site_label
_atom_site_type_symbol
_atom_site_fract_x
_atom_site_fract_y
_atom_site_fract_z
Au1 Au 0.30294(3) 0.33743(3) -0.08617(3)
P1 P 0.1919(2) 0.0956(2) -0.5318(2)
C1 C 0.1396(7) 0.1776(8) -0.4688(8)
C2 C 0.0798(8) 0.1464(7) -0.4164(8)
C3 C 0.0374(9) 0.2099(9) -0.3714(9)
C4 C 0.0526(9) 0.3029(9) -0.3742(9)
C5 C 0.1126(9) 0.3357(8) -0.4238(9)
C6 C 0.1549(8) 0.2738(8) -0.4720(8)
C7 C 0.0938(7) 0.0476(7) -0.6487(8)
C8 C -0.0027(8) 0.0700(7) -0.6710(8)
C9 C -0.0744(8) 0.0330(7) -0.7642(9)
C10 C -0.0531(9) -0.0259(8) -0.8316(9)
C11 C 0.0418(8) -0.0483(8) -0.8117(9)
C12 C 0.1136(7) -0.0100(7) -0.7210(8)
C13 C 0.2378(7) 0.0019(7) -0.4292(8)
C14 C 0.1955(7) -0.0871(8) -0.4573(8)
C15 C 0.2265(8) -0.1581(7) -0.3835(8)
C16 C 0.2978(9) -0.1410(8) -0.2807(9)
C17 C 0.3366(8) -0.0526(8) -0.2551(8)
C18 C 0.3092(7) 0.0207(7) -0.3271(9)
C19 C 0.3564(7) 0.1131(7) -0.2918(8)
C20 C 0.3249(7) 0.1625(8) -0.2082(8)
C21 C 0.3774(8) 0.2541(7) -0.1745(9)
C22 C 0.4497(7) 0.2743(7) -0.0738(9)
C23 C 0.4805(9) 0.2114(9) 0.024(1)
C24 C 0.5153(9) 0.3578(9) -0.061(1)
H1 H 0.0687 0.0818 -0.4120
H2 H -0.0039 0.1882 -0.3374
H3 H 0.0224 0.3451 -0.3423
H4 H 0.1245 0.4004 -0.4247
H5 H 0.1946 0.2966 -0.5076
H6 H -0.0188 0.1098 -0.6233
H7 H -0.1397 0.0494 -0.7808
H8 H -0.1036 -0.0520 -0.8931
H9 H 0.0571 -0.0890 -0.8593
H10 H 0.1789 -0.0237 -0.7079
H11 H 0.1456 -0.0973 -0.5272
H12 H 0.1996 -0.2185 -0.4022
H13 H 0.3199 -0.1896 -0.2282
H14 H 0.3846 -0.0422 -0.1841
H15 H 0.3406 0.1516 -0.3548
H16 H 0.4241 0.1042 -0.2597
H17 H 0.3393 0.1242 -0.1453
H18 H 0.2574 0.1736 -0.2403
H19 H 0.3590 0.3025 -0.2275
H20 H 0.5402 0.1831 0.0334
H21 H 0.4331 0.1646 0.0131
H22 H 0.4877 0.2465 0.0876
H23 H 0.4807 0.4055 -0.1102
H24 H 0.5691 0.3399 -0.0774
H25 H 0.5371 0.3802 0.0122
Au1C Au 0.30294(3) 0.16257(3) -0.58617(3)
P1C P 0.1919(2) 0.4044(2) -0.0318(2)
Sb1 Sb 0.32852(6) 0.55465(6) -0.39476(7)
F1 F 0.4459(5) 0.5242(6) -0.3993(8)
F2 F 0.3867(7) 0.6487(7) -0.3013(9)
F3 F 0.2092(6) 0.5852(6) -0.3966(7)
F4 F 0.2736(6) 0.4597(6) -0.4964(8)
F5 F 0.3452(9) 0.4739(8) -0.2878(9)
F6 F 0.3038(7) 0.6371(7) -0.5119(8)
loop_
_geom_bond_atom_site_label_1
_geom_bond_atom_site_label_2
_geom_bond_site_symmetry_1
_geom_bond_site_symmetry_2
Au1 C21 1_555 1_555
Sb1 F1 1_555 1_555
P1 C1 1_555 1_555
F2 Sb1 1_555 1_555
F3 Sb1 1_555 1_555
F4 Sb1 1_555 1_555
F5 Sb1 1_555 1_555
F6 Sb1 1_555 1_555
C1 C2 1_555 1_555
C2 C3 1_555 1_555
C3 C4 1_555 1_555
C4 C5 1_555 1_555
C5 C6 1_555 1_555
C6 C1 1_555 1_555
C7 P1 1_555 1_555
C8 C7 1_555 1_555
C9 C8 1_555 1_555
C10 C9 1_555 1_555
C11 C10 1_555 1_555
C12 C7 1_555 1_555
C13 P1 1_555 1_555
C14 C13 1_555 1_555
C15 C14 1_555 1_555
C16 C15 1_555 1_555
C17 C16 1_555 1_555
C18 C13 1_555 1_555
C19 C18 1_555 1_555
C20 C19 1_555 1_555
C21 C20 1_555 1_555
C22 Au1 1_555 1_555
C23 C22 1_555 1_555
C24 C22 1_555 1_555
H1 C2 1_555 1_555
H2 C3 1_555 1_555
H3 C4 1_555 1_555
H4 C5 1_555 1_555
H5 C6 1_555 1_555
H6 C8 1_555 1_555
H7 C9 1_555 1_555
H8 C10 1_555 1_555
H9 C11 1_555 1_555
H10 C12 1_555 1_555
H11 C14 1_555 1_555
H12 C15 1_555 1_555
H13 C16 1_555 1_555
H14 C17 1_555 1_555
H15 C19 1_555 1_555
H16 C19 1_555 1_555
H17 C20 1_555 1_555
H18 C20 1_555 1_555
H19 C21 1_555 1_555
H20 C23 1_555 1_555
H21 C23 1_555 1_555
H22 C23 1_555 1_555
H23 C24 1_555 1_555
H24 C24 1_555 1_555
H25 C24 1_555 1_555
Au1C P1 1_555 1_555
P1C Au1 1_555 1_555
C11 C12 1_555 1_555
C17 C18 1_555 1_555
C21 C22 1_555 1_555

#END
