
#######################################################################
#
#                 Cambridge Crystallographic Data Centre
#                                CCDC 
#
#######################################################################
#
# If this CIF has been generated from an entry in the Cambridge 
# Structural Database, then it will include bibliographic, chemical, 
# crystal, experimental, refinement or atomic coordinate data resulting 
# from the CCDC's data processing and validation procedures.
#
#######################################################################

data_PIYTEY
_symmetry_cell_setting           triclinic
_symmetry_space_group_name_H-M   'P -1'
_symmetry_Int_Tables_number      2
_space_group_name_Hall           '-P 1'
loop_
_symmetry_equiv_pos_site_id
_symmetry_equiv_pos_as_xyz
1 x,y,z
2 -x,-y,-z
_cell_length_a                   9.1906(7)
_cell_length_b                   11.3629(6)
_cell_length_c                   13.6819(11)
_cell_angle_alpha                113.600(6)
_cell_angle_beta                 105.419(7)
_cell_angle_gamma                91.254(6)
_cell_volume                     1248.81
loop_
_atom_site_label
_atom_site_type_symbol
_atom_site_fract_x
_atom_site_fract_y
_atom_site_fract_z
Cd1 Cd 0.65690(5) 0.77975(4) 0.27176(4)
O1 O 0.5451(7) 0.9070(6) 0.1651(6)
O2 O 0.4159(6) 0.8427(6) 0.2527(6)
O3 O 0.8854(6) 0.7515(5) 0.2236(4)
O4 O 0.6781(6) 0.6201(6) 0.1042(5)
O5 O 0.5820(13) 0.6013(8) 0.2975(7)
O6 O 0.6743(11) 0.7583(9) 0.4535(8)
N1 N 0.2320(7) 2.0132(5) 0.5915(5)
N2 N 0.0161(6) 1.3599(5) 0.2036(5)
C1 C 0.2994(11) 1.9563(8) 0.5139(9)
H1 H 0.3807 2.0064 0.5108
C2 C 0.2583(10) 1.8288(8) 0.4375(8)
H2 H 0.3095 1.7933 0.3825
C3 C 0.1436(7) 1.7531(6) 0.4408(6)
C4 C 0.0685(10) 1.8136(8) 0.5181(7)
H3 H -0.0149 1.7664 0.5218
C5 C 0.1146(10) 1.9425(7) 0.5901(7)
H4 H 0.0593 1.9828 0.6413
C6 C 0.0998(7) 1.6151(6) 0.3602(6)
C7 C 0.1883(8) 1.5539(7) 0.2921(6)
H5 H 0.2806 1.6004 0.2994
C8 C 0.1450(8) 1.4281(7) 0.2148(6)
H6 H 0.2068 1.3884 0.1685
C9 C -0.0709(9) 1.4148(8) 0.2689(8)
H7 H -0.1616 1.3654 0.2609
C10 C -0.0319(9) 1.5414(7) 0.3475(8)
H8 H -0.0953 1.5785 0.3933
C11 C -0.0287(8) 1.2234(7) 0.1149(7)
H9 H -0.1272 1.1866 0.1153
H10 H -0.0431 1.2240 0.0408
C12 C 0.0885(8) 1.1395(6) 0.1327(6)
C13 C 0.1977(9) 1.1126(7) 0.0774(7)
H11 H 0.1978 1.1474 0.0248
C14 C 0.3055(8) 1.0371(7) 0.0963(7)
H12 H 0.3790 1.0202 0.0567
C15 C 0.3091(8) 0.9853(6) 0.1718(7)
C16 C 0.1989(9) 1.0094(7) 0.2283(7)
H13 H 0.1982 0.9731 0.2798
C17 C 0.0905(9) 1.0868(7) 0.2084(7)
H14 H 0.0164 1.1039 0.2474
C18 C 0.4321(9) 0.9068(7) 0.1968(7)
C19 C 0.8180(9) 0.6548(7) 0.1338(6)
C20 C 0.9125(8) 0.5759(6) 0.0634(5)
C21 C 1.0603(8) 0.6239(6) 0.0793(6)
H15 H 1.1028 0.7092 0.1344
C22 C 0.8524(8) 0.4506(6) -0.0160(6)
H16 H 0.7514 0.4157 -0.0271
C23 C 0.6077(9) 0.6464(9) 0.3970(9)
C24 C 0.5555(8) 0.5712(7) 0.4516(7)
C25 C 0.5159(11) 0.4378(8) 0.3954(7)
H17 H 0.5271 0.3941 0.3229
C26 C 0.5400(10) 0.6330(8) 0.5566(7)
H18 H 0.5676 0.7244 0.5965
O3A O 1.1146(6) 0.2485(5) -0.2236(4)
O4A O 1.3219(6) 0.3799(6) -0.1042(5)
C19A C 1.1820(9) 0.3452(7) -0.1338(6)
C20A C 1.0875(8) 0.4241(6) -0.0634(5)
C21A C 0.9397(8) 0.3761(6) -0.0793(6)
H15A H 0.8972 0.2908 -0.1344
C22A C 1.1476(8) 0.5494(6) 0.0160(6)
H16A H 1.2486 0.5843 0.0271
O5A O 0.4180(13) 0.3987(8) 0.7025(7)
O6A O 0.3257(11) 0.2417(9) 0.5465(8)
C23A C 0.3923(9) 0.3536(9) 0.6030(9)
C24A C 0.4445(8) 0.4288(7) 0.5484(7)
C25A C 0.4841(11) 0.5622(8) 0.6046(7)
H17A H 0.4729 0.6059 0.6771
C26A C 0.4600(10) 0.3670(8) 0.4434(7)
H18A H 0.4324 0.2756 0.4035
Cd1A Cd 0.34310(5) 0.22025(4) 0.72824(4)
O1A O 0.4549(7) 0.0930(6) 0.8349(6)
O2A O 0.5841(6) 0.1573(6) 0.7473(6)
N1A N 0.7680(7) -1.0132(5) 0.4085(5)
N2A N 0.9839(6) -0.3599(5) 0.7964(5)
C1A C 0.7006(11) -0.9563(8) 0.4861(9)
H1A H 0.6193 -1.0064 0.4892
C2A C 0.7417(10) -0.8288(8) 0.5625(8)
H2A H 0.6905 -0.7933 0.6175
C3A C 0.8564(7) -0.7531(6) 0.5592(6)
C4A C 0.9315(10) -0.8136(8) 0.4819(7)
H3A H 1.0149 -0.7664 0.4782
C5A C 0.8854(10) -0.9425(7) 0.4099(7)
H4A H 0.9407 -0.9828 0.3587
C6A C 0.9002(7) -0.6151(6) 0.6398(6)
C7A C 0.8117(8) -0.5539(7) 0.7079(6)
H5A H 0.7194 -0.6004 0.7006
C8A C 0.8550(8) -0.4281(7) 0.7852(6)
H6A H 0.7932 -0.3884 0.8315
C9A C 1.0709(9) -0.4148(8) 0.7311(8)
H7A H 1.1616 -0.3654 0.7391
C10A C 1.0319(9) -0.5414(7) 0.6525(8)
H8A H 1.0953 -0.5785 0.6067
C11A C 1.0287(8) -0.2234(7) 0.8851(7)
H9A H 1.1272 -0.1866 0.8847
H10A H 1.0431 -0.2240 0.9592
C12A C 0.9115(8) -0.1395(6) 0.8673(6)
C13A C 0.8023(9) -0.1126(7) 0.9226(7)
H11A H 0.8022 -0.1474 0.9752
C14A C 0.6945(8) -0.0371(7) 0.9037(7)
H12A H 0.6210 -0.0202 0.9433
C15A C 0.6909(8) 0.0147(6) 0.8282(7)
C16A C 0.8011(9) -0.0094(7) 0.7717(7)
H13A H 0.8018 0.0269 0.7202
C17A C 0.9095(9) -0.0868(7) 0.7916(7)
H14A H 0.9836 -0.1039 0.7526
C18A C 0.5679(9) 0.0932(7) 0.8032(7)
Cd1_2 Cd 0.65690(5) -1.22025(4) 0.27176(4)
Cd1A_2 Cd 0.34310(5) 2.22025(4) 0.72824(4)
Cd1A_3 Cd 1.34310(5) 0.22025(4) -0.27176(4)
O3A_2 O 0.1146(6) 0.2485(5) 0.7764(4)
O4A_2 O 0.3219(6) 0.3799(6) 0.8958(5)
N1_2 N 0.2320(7) 0.0132(5) 0.5915(5)
N1A_2 N 0.7680(7) 0.9868(5) 0.4085(5)
O7 O 0.708(2) 1.1419(19) 0.2138(15)
O9 O 0.427(2) 0.7621(18) -0.0682(15)
O11 O 0.5782(19) 0.5746(17) -0.1162(13)
O8? O 0.6611(19) 1.1811(16) 0.1881(13)
O10? O 0.518(2) 0.6540(19) -0.1065(15)
loop_
_geom_bond_atom_site_label_1
_geom_bond_atom_site_label_2
_geom_bond_site_symmetry_1
_geom_bond_site_symmetry_2
Cd1 O1 1_555 1_555
O1 C18 1_555 1_555
O2 Cd1 1_555 1_555
O3 Cd1 1_555 1_555
O4 Cd1 1_555 1_555
O5 Cd1 1_555 1_555
O6 Cd1 1_555 1_555
N1 C1 1_555 1_555
N2 C8 1_555 1_555
C1 H1 1_555 1_555
C2 C1 1_555 1_555
H2 C2 1_555 1_555
C3 C2 1_555 1_555
C4 C3 1_555 1_555
H3 C4 1_555 1_555
C5 N1 1_555 1_555
H4 C5 1_555 1_555
C6 C3 1_555 1_555
C7 C6 1_555 1_555
H5 C7 1_555 1_555
C8 C7 1_555 1_555
H6 C8 1_555 1_555
C9 N2 1_555 1_555
H7 C9 1_555 1_555
C10 C6 1_555 1_555
H8 C10 1_555 1_555
C11 N2 1_555 1_555
H9 C11 1_555 1_555
H10 C11 1_555 1_555
C12 C11 1_555 1_555
C13 C12 1_555 1_555
H11 C13 1_555 1_555
C14 C13 1_555 1_555
H12 C14 1_555 1_555
C15 C14 1_555 1_555
C16 C15 1_555 1_555
H13 C16 1_555 1_555
C17 C12 1_555 1_555
H14 C17 1_555 1_555
C18 O2 1_555 1_555
C19 O3 1_555 1_555
C20 C19 1_555 1_555
C21 C20 1_555 1_555
H15 C21 1_555 1_555
C22 C20 1_555 1_555
H16 C22 1_555 1_555
C23 O5 1_555 1_555
C24 C23 1_555 1_555
C25 C24 1_555 1_555
H17 C25 1_555 1_555
C26 C24 1_555 1_555
H18 C26 1_555 1_555
O3A C19A 1_555 1_555
O4A C19A 1_555 1_555
C19A C20A 1_555 1_555
C20A C21A 1_555 1_555
C21A C22 1_555 1_555
H15A C21A 1_555 1_555
C22A C21 1_555 1_555
H16A C22A 1_555 1_555
O5A C23A 1_555 1_555
O6A C23A 1_555 1_555
C23A C24A 1_555 1_555
C24A C25A 1_555 1_555
C25A C26 1_555 1_555
H17A C25A 1_555 1_555
C26A C25 1_555 1_555
H18A C26A 1_555 1_555
Cd1A O5A 1_555 1_555
O1A Cd1A 1_555 1_555
O2A Cd1A 1_555 1_555
N1A C1A 1_555 1_555
N2A C8A 1_555 1_555
C1A H1A 1_555 1_555
C2A C1A 1_555 1_555
H2A C2A 1_555 1_555
C3A C2A 1_555 1_555
C4A C3A 1_555 1_555
H3A C4A 1_555 1_555
C5A N1A 1_555 1_555
H4A C5A 1_555 1_555
C6A C3A 1_555 1_555
C7A C6A 1_555 1_555
H5A C7A 1_555 1_555
C8A C7A 1_555 1_555
H6A C8A 1_555 1_555
C9A N2A 1_555 1_555
H7A C9A 1_555 1_555
C10A C6A 1_555 1_555
H8A C10A 1_555 1_555
C11A N2A 1_555 1_555
H9A C11A 1_555 1_555
H10A C11A 1_555 1_555
C12A C11A 1_555 1_555
C13A C12A 1_555 1_555
H11A C13A 1_555 1_555
C14A C13A 1_555 1_555
H12A C14A 1_555 1_555
C15A C14A 1_555 1_555
C16A C15A 1_555 1_555
H13A C16A 1_555 1_555
C17A C12A 1_555 1_555
H14A C17A 1_555 1_555
C18A O1A 1_555 1_555
Cd1_2 N1A 1_555 1_555
Cd1A_2 N1 1_555 1_555
Cd1A_3 O3A 1_555 1_555
O3A_2 Cd1A 1_555 1_555
O4A_2 Cd1A 1_555 1_555
N1_2 Cd1A 1_555 1_555
N1A_2 Cd1 1_555 1_555
O4 C19 1_555 1_555
O6 C23 1_555 1_555
C4 C5 1_555 1_555
C9 C10 1_555 1_555
C15 C18 1_555 1_555
C16 C17 1_555 1_555
O4A Cd1A_3 1_555 1_555
C20A C22A 1_555 1_555
O6A Cd1A 1_555 1_555
C24A C26A 1_555 1_555
O2A C18A 1_555 1_555
C4A C5A 1_555 1_555
C9A C10A 1_555 1_555
C15A C18A 1_555 1_555
C16A C17A 1_555 1_555

#END
