
#######################################################################
#
#                 Cambridge Crystallographic Data Centre
#                                CCDC 
#
#######################################################################
#
# If this CIF has been generated from an entry in the Cambridge 
# Structural Database, then it will include bibliographic, chemical, 
# crystal, experimental, refinement or atomic coordinate data resulting 
# from the CCDC's data processing and validation procedures.
#
#######################################################################

data_PIYWUQ01
_symmetry_cell_setting           triclinic
_symmetry_space_group_name_H-M   'P -1'
_symmetry_Int_Tables_number      2
_space_group_name_Hall           '-P 1'
loop_
_symmetry_equiv_pos_site_id
_symmetry_equiv_pos_as_xyz
1 x,y,z
2 -x,-y,-z
_cell_length_a                   10.161(2)
_cell_length_b                   12.773(3)
_cell_length_c                   16.673(3)
_cell_angle_alpha                75.01(3)
_cell_angle_beta                 89.27(3)
_cell_angle_gamma                87.55(3)
_cell_volume                     2088.38
loop_
_atom_site_label
_atom_site_type_symbol
_atom_site_fract_x
_atom_site_fract_y
_atom_site_fract_z
Cd1 Cd -0.09056(3) 0.21797(2) 0.598692(19)
Cd2 Cd 0.56211(3) -0.28582(3) 1.10256(2)
Cd3 Cd 0.5000 -0.5000 1.0000
Cd4 Cd 0.0000 0.0000 0.5000
O1 O 0.0154(4) 0.0872(3) 0.6908(2)
O2 O 0.0306(4) -0.0559(3) 0.6359(2)
O3 O 0.4009(4) -0.2069(3) 1.0190(2)
O4 O 0.3562(3) -0.3591(3) 0.9869(2)
O5 O 0.0536(3) 0.2987(3) 0.5050(2)
O6 O 0.1312(3) 0.1418(3) 0.4817(2)
O7 O 0.4508(4) 0.5860(3) 0.1903(2)
O8 O 0.4701(4) 0.4435(3) 0.1371(2)
O9 O -0.1781(3) 0.1155(3) 0.5144(2)
O10 O -0.2967(3) 0.1331(3) 0.6222(2)
O11 O 0.7768(3) -0.3679(3) 1.1236(2)
O12 O 0.6642(3) -0.3860(3) 1.0161(2)
O13 O -0.0577(4) 0.3083(3) 0.6979(2)
O14 O -0.2237(4) 0.3670(3) 0.5259(3)
O15 O 0.5681(5) -0.2117(3) 1.2109(3)
O16 O 0.6740(5) -0.1312(3) 1.0207(3)
N1 N -0.0790(4) 0.2152(4) 0.8330(3)
N2 N -0.2296(5) 0.4250(4) 0.3866(3)
N3 N 0.5967(4) -0.2657(5) 1.3494(3)
N4 N 0.6705(6) -0.0952(5) 0.8807(3)
C1 C 0.1214(4) -0.0756(4) 0.7682(3)
C2 C 0.1654(5) -0.0261(5) 0.8260(3)
H1 H 0.1468 0.0474 0.8199
C3 C 0.2377(5) -0.0861(4) 0.8938(3)
H2 H 0.2694 -0.0521 0.9323
C4 C 0.2631(4) -0.1965(4) 0.9044(3)
C5 C 0.2176(7) -0.2437(5) 0.8466(4)
H3 H 0.2361 -0.3174 0.8532
C6 C 0.1449(6) -0.1871(4) 0.7784(4)
H4 H 0.1127 -0.2219 0.7406
C7 C 0.0493(4) -0.0078(4) 0.6913(3)
C8 C 0.3466(4) -0.2606(4) 0.9762(3)
C9 C 0.2037(4) 0.3077(4) 0.3948(3)
C10 C 0.2002(5) 0.4182(4) 0.3757(3)
H5 H 0.1469 0.4539 0.4069
C11 C 0.2752(5) 0.4798(4) 0.3100(4)
H6 H 0.2739 0.5550 0.2989
C12 C 0.3511(4) 0.4261(4) 0.2623(3)
C13 C 0.3541(6) 0.3138(4) 0.2812(4)
H7 H 0.4062 0.2773 0.2500
C14 C 0.2800(6) 0.2563(5) 0.3461(4)
H8 H 0.2814 0.1810 0.3575
C15 C 0.1231(4) 0.2426(4) 0.4656(3)
C16 C 0.4297(4) 0.4893(4) 0.1900(3)
C17 C -0.3938(4) 0.0478(4) 0.5278(3)
C18 C -0.5057(5) 0.0194(5) 0.5779(3)
H9 H -0.5094 0.0322 0.6303
C19 C -0.3893(4) 0.0277(4) 0.4500(3)
H10 H -0.3157 0.0458 0.4163
C20 C -0.2835(4) 0.1002(4) 0.5588(3)
C21 C 0.8875(4) -0.4557(4) 1.0287(3)
C22 C 1.0009(4) -0.4811(4) 1.0780(3)
H11 H 1.0010 -0.4687 1.1306
C23 C 0.8875(4) -0.4757(4) 0.9514(3)
H12 H 0.8119 -0.4600 0.9189
C24 C 0.7685(4) -0.4022(4) 1.0592(3)
C25 C -0.0169(5) 0.2757(5) 0.7701(3)
H13 H 0.0665 0.2965 0.7806
C26 C -0.0203(7) 0.1829(6) 0.9162(4)
H14 H 0.0627 0.2164 0.9152
H15 H -0.0068 0.1055 0.9330
H16 H -0.0784 0.2058 0.9549
C27 C -0.2056(7) 0.1747(8) 0.8210(6)
H17 H -0.2314 0.2018 0.7640
H18 H -0.2697 0.1985 0.8560
H19 H -0.1998 0.0969 0.8351
C28 C -0.1861(6) 0.4265(5) 0.4588(4)
H20 H -0.1220 0.4756 0.4608
C29 C -0.3275(10) 0.3479(8) 0.3781(6)
H21 H -0.3559 0.3083 0.4322
H22 H -0.2891 0.2982 0.3491
H23 H -0.4018 0.3865 0.3474
C30 C -0.1777(11) 0.4907(9) 0.3102(6)
H24 H -0.1152 0.5387 0.3224
H25 H -0.2483 0.5325 0.2777
H26 H -0.1349 0.4447 0.2796
C31 C 0.5307(6) -0.2621(5) 1.2828(4)
H27 H 0.4522 -0.2982 1.2880
C32 C 0.5518(7) -0.3202(7) 1.4303(4)
H28 H 0.4695 -0.3526 1.4258
H29 H 0.5398 -0.2691 1.4633
H30 H 0.6158 -0.3757 1.4562
C33 C 0.7210(6) -0.2108(7) 1.3445(5)
H31 H 0.7406 -0.1765 1.2875
H32 H 0.7904 -0.2629 1.3675
H33 H 0.7136 -0.1570 1.3754
C34 C 0.6269(7) -0.0852(5) 0.9520(4)
H34 H 0.5534 -0.0391 0.9513
C35 C 0.7835(10) -0.1649(7) 0.8758(6)
H35 H 0.8209 -0.1929 0.9301
H36 H 0.8479 -0.1244 0.8393
H37 H 0.7572 -0.2240 0.8547
C36 C 0.6004(10) -0.0429(6) 0.8034(5)
H38 H 0.5279 0.0016 0.8151
H39 H 0.5678 -0.0974 0.7795
H40 H 0.6595 0.0014 0.7651
O9A O -0.8219(3) -0.1155(3) 0.4856(2)
O10A O -0.7033(3) -0.1331(3) 0.3778(2)
C17A C -0.6062(4) -0.0478(4) 0.4722(3)
C18A C -0.4943(5) -0.0194(5) 0.4221(3)
H9A H -0.4906 -0.0322 0.3697
C19A C -0.6107(4) -0.0277(4) 0.5500(3)
H10A H -0.6843 -0.0458 0.5837
C20A C -0.7165(4) -0.1002(4) 0.4412(3)
O11A O 1.2232(3) -0.6321(3) 0.8764(2)
O12A O 1.3358(3) -0.6140(3) 0.9839(2)
C21A C 1.1125(4) -0.5443(4) 0.9713(3)
C22A C 0.9991(4) -0.5189(4) 0.9220(3)
H11A H 0.9990 -0.5313 0.8694
C23A C 1.1125(4) -0.5243(4) 1.0486(3)
H12A H 1.1881 -0.5400 1.0811
C24A C 1.2315(4) -0.5978(4) 0.9408(3)
Cd1A Cd -0.90944(3) -0.21797(2) 0.401308(19)
Cd2A Cd -1.56211(3) 0.28582(3) -0.10256(2)
O1A O -1.0154(4) -0.0872(3) 0.3092(2)
O2A O -1.0306(4) 0.0559(3) 0.3641(2)
O3A O -1.4009(4) 0.2069(3) -0.0190(2)
O4A O -1.3562(3) 0.3591(3) 0.0131(2)
O5A O -1.0536(3) -0.2987(3) 0.4950(2)
O6A O -1.1312(3) -0.1418(3) 0.5183(2)
O7A O -1.4508(4) -0.5860(3) 0.8097(2)
O8A O -1.4701(4) -0.4435(3) 0.8629(2)
O13A O -0.9423(4) -0.3083(3) 0.3021(2)
O14A O -0.7763(4) -0.3670(3) 0.4741(3)
O15A O -1.5681(5) 0.2117(3) -0.2109(3)
O16A O -1.6740(5) 0.1312(3) -0.0207(3)
N1A N -0.9210(4) -0.2152(4) 0.1670(3)
N2A N -0.7704(5) -0.4250(4) 0.6134(3)
N3A N -1.5967(4) 0.2657(5) -0.3494(3)
N4A N -1.6705(6) 0.0952(5) 0.1193(3)
C1A C -1.1214(4) 0.0756(4) 0.2318(3)
C2A C -1.1654(5) 0.0261(5) 0.1740(3)
H1A H -1.1468 -0.0474 0.1801
C3A C -1.2377(5) 0.0861(4) 0.1062(3)
H2A H -1.2694 0.0521 0.0677
C4A C -1.2631(4) 0.1965(4) 0.0956(3)
C5A C -1.2176(7) 0.2437(5) 0.1534(4)
H3A H -1.2361 0.3174 0.1468
C6A C -1.1449(6) 0.1871(4) 0.2216(4)
H4A H -1.1127 0.2219 0.2594
C7A C -1.0493(4) 0.0078(4) 0.3087(3)
C8A C -1.3466(4) 0.2606(4) 0.0238(3)
C9A C -1.2037(4) -0.3077(4) 0.6052(3)
C10A C -1.2002(5) -0.4182(4) 0.6243(3)
H5A H -1.1469 -0.4539 0.5931
C11A C -1.2752(5) -0.4798(4) 0.6900(4)
H6A H -1.2739 -0.5550 0.7011
C12A C -1.3511(4) -0.4261(4) 0.7377(3)
C13A C -1.3541(6) -0.3138(4) 0.7188(4)
H7A H -1.4062 -0.2773 0.7500
C14A C -1.2800(6) -0.2563(5) 0.6539(4)
H8A H -1.2814 -0.1810 0.6425
C15A C -1.1231(4) -0.2426(4) 0.5344(3)
C16A C -1.4297(4) -0.4893(4) 0.8100(3)
C25A C -0.9831(5) -0.2757(5) 0.2299(3)
H13A H -1.0665 -0.2965 0.2194
C26A C -0.9797(7) -0.1829(6) 0.0838(4)
H14A H -1.0627 -0.2164 0.0848
H15A H -0.9932 -0.1055 0.0670
H16A H -0.9216 -0.2058 0.0451
C27A C -0.7944(7) -0.1747(8) 0.1790(6)
H17A H -0.7686 -0.2018 0.2360
H18A H -0.7303 -0.1985 0.1440
H19A H -0.8002 -0.0969 0.1649
C28A C -0.8139(6) -0.4265(5) 0.5412(4)
H20A H -0.8780 -0.4756 0.5392
C29A C -0.6725(10) -0.3479(8) 0.6219(6)
H21A H -0.6441 -0.3083 0.5678
H22A H -0.7109 -0.2982 0.6509
H23A H -0.5982 -0.3865 0.6526
C30A C -0.8223(11) -0.4907(9) 0.6898(6)
H24A H -0.8848 -0.5387 0.6776
H25A H -0.7517 -0.5325 0.7223
H26A H -0.8651 -0.4447 0.7204
C31A C -1.5307(6) 0.2621(5) -0.2828(4)
H27A H -1.4522 0.2982 -0.2880
C32A C -1.5518(7) 0.3202(7) -0.4303(4)
H28A H -1.4695 0.3526 -0.4258
H29A H -1.5398 0.2691 -0.4633
H30A H -1.6158 0.3757 -0.4562
C33A C -1.7210(6) 0.2108(7) -0.3445(5)
H31A H -1.7406 0.1765 -0.2875
H32A H -1.7904 0.2629 -0.3675
H33A H -1.7136 0.1570 -0.3754
C34A C -1.6269(7) 0.0852(5) 0.0480(4)
H34A H -1.5534 0.0391 0.0487
C35A C -1.7835(10) 0.1649(7) 0.1242(6)
H35A H -1.8209 0.1929 0.0699
H36A H -1.8479 0.1244 0.1607
H37A H -1.7572 0.2240 0.1453
C36A C -1.6004(10) 0.0429(6) 0.1966(5)
H38A H -1.5279 -0.0016 0.1849
H39A H -1.5678 0.0974 0.2205
H40A H -1.6595 -0.0014 0.2349
Cd2_2 Cd 0.56211(3) 0.71418(3) 0.10256(2)
Cd2A_2 Cd -1.56211(3) -0.71418(3) 0.89744(2)
Cd2A_3 Cd 1.43789(3) -0.71418(3) 0.89744(2)
Cd3_2 Cd -1.5000 -0.5000 1.0000
Cd3_3 Cd -1.5000 0.5000 0.0000
Cd3_4 Cd 0.5000 0.5000 0.0000
Cd3_5 Cd 1.5000 -0.5000 1.0000
Cd4_2 Cd -1.0000 0.0000 0.5000
O2A_2 O -0.0306(4) 0.0559(3) 0.3641(2)
O4A_2 O 0.6438(3) -0.6409(3) 1.0131(2)
O6A_2 O -0.1312(3) -0.1418(3) 0.5183(2)
O7_2 O 0.4508(4) -0.4140(3) 1.1903(2)
O7A_2 O -1.4508(4) 0.4140(3) -0.1903(2)
O8_2 O 0.4701(4) -0.5565(3) 1.1371(2)
O8A_2 O 0.5299(4) -0.4435(3) 0.8629(2)
O9A_2 O 0.1781(3) -0.1155(3) 0.4856(2)
O11A_2 O -1.7768(3) 0.3679(3) -0.1236(2)
O12A_2 O -1.6642(3) 0.3860(3) -0.0161(2)
O12A_3 O 0.3358(3) -0.6140(3) 0.9839(2)
loop_
_geom_bond_atom_site_label_1
_geom_bond_atom_site_label_2
_geom_bond_site_symmetry_1
_geom_bond_site_symmetry_2
Cd1 O1 1_555 1_555
Cd2 O3 1_555 1_555
Cd3 O4 1_555 1_555
Cd4 O2 1_555 1_555
O1 C7 1_555 1_555
O2 C7 1_555 1_555
O3 C8 1_555 1_555
O4 C8 1_555 1_555
O5 Cd1 1_555 1_555
O6 Cd4 1_555 1_555
O7 C16 1_555 1_555
O8 C16 1_555 1_555
O9 Cd1 1_555 1_555
O10 Cd1 1_555 1_555
O11 Cd2 1_555 1_555
O12 Cd2 1_555 1_555
O13 Cd1 1_555 1_555
O14 Cd1 1_555 1_555
O15 Cd2 1_555 1_555
O16 Cd2 1_555 1_555
N1 C25 1_555 1_555
N2 C28 1_555 1_555
N3 C31 1_555 1_555
N4 C34 1_555 1_555
C1 C2 1_555 1_555
C2 H1 1_555 1_555
C3 C2 1_555 1_555
H2 C3 1_555 1_555
C4 C3 1_555 1_555
C5 C4 1_555 1_555
H3 C5 1_555 1_555
C6 C1 1_555 1_555
H4 C6 1_555 1_555
C7 C1 1_555 1_555
C8 C4 1_555 1_555
C9 C10 1_555 1_555
C10 H5 1_555 1_555
C11 C10 1_555 1_555
H6 C11 1_555 1_555
C12 C11 1_555 1_555
C13 C12 1_555 1_555
H7 C13 1_555 1_555
C14 C9 1_555 1_555
H8 C14 1_555 1_555
C15 O5 1_555 1_555
C16 C12 1_555 1_555
C17 C18 1_555 1_555
C18 H9 1_555 1_555
C19 C17 1_555 1_555
H10 C19 1_555 1_555
C20 O9 1_555 1_555
C21 C22 1_555 1_555
C22 H11 1_555 1_555
C23 C21 1_555 1_555
H12 C23 1_555 1_555
C24 O11 1_555 1_555
C25 O13 1_555 1_555
H13 C25 1_555 1_555
C26 N1 1_555 1_555
H14 C26 1_555 1_555
H15 C26 1_555 1_555
H16 C26 1_555 1_555
C27 N1 1_555 1_555
H17 C27 1_555 1_555
H18 C27 1_555 1_555
H19 C27 1_555 1_555
C28 O14 1_555 1_555
H20 C28 1_555 1_555
C29 N2 1_555 1_555
H21 C29 1_555 1_555
H22 C29 1_555 1_555
H23 C29 1_555 1_555
C30 N2 1_555 1_555
H24 C30 1_555 1_555
H25 C30 1_555 1_555
H26 C30 1_555 1_555
C31 O15 1_555 1_555
H27 C31 1_555 1_555
C32 N3 1_555 1_555
H28 C32 1_555 1_555
H29 C32 1_555 1_555
H30 C32 1_555 1_555
C33 N3 1_555 1_555
H31 C33 1_555 1_555
H32 C33 1_555 1_555
H33 C33 1_555 1_555
C34 O16 1_555 1_555
H34 C34 1_555 1_555
C35 N4 1_555 1_555
H35 C35 1_555 1_555
H36 C35 1_555 1_555
H37 C35 1_555 1_555
C36 N4 1_555 1_555
H38 C36 1_555 1_555
H39 C36 1_555 1_555
H40 C36 1_555 1_555
O9A C20A 1_555 1_555
O10A C20A 1_555 1_555
C17A C18A 1_555 1_555
C18A C19 1_555 1_555
H9A C18A 1_555 1_555
C19A C18 1_555 1_555
H10A C19A 1_555 1_555
C20A C17A 1_555 1_555
O11A C24A 1_555 1_555
O12A C24A 1_555 1_555
C21A C22A 1_555 1_555
C22A C23 1_555 1_555
H11A C22A 1_555 1_555
C23A C22 1_555 1_555
H12A C23A 1_555 1_555
C24A C21A 1_555 1_555
Cd1A O9A 1_555 1_555
Cd2A O3A 1_555 1_555
O1A Cd1A 1_555 1_555
O2A C7A 1_555 1_555
O3A C8A 1_555 1_555
O4A C8A 1_555 1_555
O5A Cd1A 1_555 1_555
O6A C15A 1_555 1_555
O7A C16A 1_555 1_555
O8A C16A 1_555 1_555
O13A Cd1A 1_555 1_555
O14A Cd1A 1_555 1_555
O15A Cd2A 1_555 1_555
O16A Cd2A 1_555 1_555
N1A C25A 1_555 1_555
N2A C28A 1_555 1_555
N3A C31A 1_555 1_555
N4A C34A 1_555 1_555
C1A C2A 1_555 1_555
C2A H1A 1_555 1_555
C3A C2A 1_555 1_555
H2A C3A 1_555 1_555
C4A C3A 1_555 1_555
C5A C4A 1_555 1_555
H3A C5A 1_555 1_555
C6A C1A 1_555 1_555
H4A C6A 1_555 1_555
C7A O1A 1_555 1_555
C8A C4A 1_555 1_555
C9A C10A 1_555 1_555
C10A H5A 1_555 1_555
C11A C10A 1_555 1_555
H6A C11A 1_555 1_555
C12A C11A 1_555 1_555
C13A C12A 1_555 1_555
H7A C13A 1_555 1_555
C14A C9A 1_555 1_555
H8A C14A 1_555 1_555
C15A O5A 1_555 1_555
C16A C12A 1_555 1_555
C25A O13A 1_555 1_555
H13A C25A 1_555 1_555
C26A N1A 1_555 1_555
H14A C26A 1_555 1_555
H15A C26A 1_555 1_555
H16A C26A 1_555 1_555
C27A N1A 1_555 1_555
H17A C27A 1_555 1_555
H18A C27A 1_555 1_555
H19A C27A 1_555 1_555
C28A O14A 1_555 1_555
H20A C28A 1_555 1_555
C29A N2A 1_555 1_555
H21A C29A 1_555 1_555
H22A C29A 1_555 1_555
H23A C29A 1_555 1_555
C30A N2A 1_555 1_555
H24A C30A 1_555 1_555
H25A C30A 1_555 1_555
H26A C30A 1_555 1_555
C31A O15A 1_555 1_555
H27A C31A 1_555 1_555
C32A N3A 1_555 1_555
H28A C32A 1_555 1_555
H29A C32A 1_555 1_555
H30A C32A 1_555 1_555
C33A N3A 1_555 1_555
H31A C33A 1_555 1_555
H32A C33A 1_555 1_555
H33A C33A 1_555 1_555
C34A O16A 1_555 1_555
H34A C34A 1_555 1_555
C35A N4A 1_555 1_555
H35A C35A 1_555 1_555
H36A C35A 1_555 1_555
H37A C35A 1_555 1_555
C36A N4A 1_555 1_555
H38A C36A 1_555 1_555
H39A C36A 1_555 1_555
H40A C36A 1_555 1_555
Cd2_2 O7 1_555 1_555
Cd2A_2 O7A 1_555 1_555
Cd2A_3 O11A 1_555 1_555
Cd3_2 O8A 1_555 1_555
Cd3_3 O4A 1_555 1_555
Cd3_4 O8 1_555 1_555
Cd3_5 O12A 1_555 1_555
Cd4_2 O9A 1_555 1_555
O2A_2 Cd4 1_555 1_555
O4A_2 Cd3 1_555 1_555
O6A_2 Cd4 1_555 1_555
O7_2 Cd2 1_555 1_555
O7A_2 Cd2A 1_555 1_555
O8_2 Cd3 1_555 1_555
O8A_2 Cd3 1_555 1_555
O9A_2 Cd4 1_555 1_555
O11A_2 Cd2A 1_555 1_555
O12A_2 Cd2A 1_555 1_555
O12A_3 Cd3 1_555 1_555
Cd3 O12 1_555 1_555
Cd4 O9 1_555 1_555
O6 C15 1_555 1_555
O10 C20 1_555 1_555
O12 C24 1_555 1_555
C5 C6 1_555 1_555
C9 C15 1_555 1_555
C13 C14 1_555 1_555
C17 C20 1_555 1_555
C21 C24 1_555 1_555
O10A Cd1A 1_555 1_555
C17A C19A 1_555 1_555
O12A Cd2A_3 1_555 1_555
C21A C23A 1_555 1_555
O2A Cd4_2 1_555 1_555
O6A Cd4_2 1_555 1_555
C1A C7A 1_555 1_555
C5A C6A 1_555 1_555
C9A C15A 1_555 1_555
C13A C14A 1_555 1_555
Cd3_3 O12A_2 1_555 1_555

#END
