
#######################################################################
#
#                 Cambridge Crystallographic Data Centre
#                                CCDC 
#
#######################################################################
#
# If this CIF has been generated from an entry in the Cambridge 
# Structural Database, then it will include bibliographic, chemical, 
# crystal, experimental, refinement or atomic coordinate data resulting 
# from the CCDC's data processing and validation procedures.
#
#######################################################################

data_PIYXEC
_symmetry_cell_setting           orthorhombic
_symmetry_space_group_name_H-M   'P n a 21'
_symmetry_Int_Tables_number      33
_space_group_name_Hall           'P 2c -2n'
loop_
_symmetry_equiv_pos_site_id
_symmetry_equiv_pos_as_xyz
1 x,y,z
2 -x,-y,1/2+z
3 1/2-x,1/2+y,1/2+z
4 1/2+x,1/2-y,z
_cell_length_a                   17.329(3)
_cell_length_b                   10.274(2)
_cell_length_c                   15.063(3)
_cell_angle_alpha                90
_cell_angle_beta                 90
_cell_angle_gamma                90
_cell_volume                     2681.79
loop_
_atom_site_label
_atom_site_type_symbol
_atom_site_fract_x
_atom_site_fract_y
_atom_site_fract_z
Lu1 Lu -0.761632(10) -0.517654(16) 0.08868(3)
Cl1 Cl -0.89370(9) -0.50679(15) 0.01259(12)
Cl2 Cl -0.62119(9) -0.54162(18) 0.14215(13)
Cl3 Cl -0.80188(13) -0.41162(17) 0.23507(11)
O1 O -0.7753(2) -0.7156(3) 0.1384(2)
O2 O -0.7231(3) -0.6115(5) -0.0438(3)
H1 H -0.7574 -0.6179 -0.0812
O3 O -0.7598(2) -0.8292(4) 0.5262(3)
N1 N -0.6633(3) -0.7129(4) 0.4126(2)
N2 N -0.6653(3) -0.8303(4) 0.2382(3)
C1 C -0.8850(4) -1.0698(7) 0.1321(4)
H2 H -0.9099 -1.1499 0.1303
C2 C -0.8171(4) -1.0566(6) 0.1760(4)
H3 H -0.7952 -1.1285 0.2039
C3 C -0.7798(3) -0.9374(5) 0.1798(3)
C4 C -0.8089(3) -0.8268(5) 0.1358(3)
C5 C -0.8807(3) -0.8445(5) 0.0923(6)
H4 H -0.9035 -0.7731 0.0649
C6 C -0.9176(3) -0.9602(5) 0.0888(6)
H5 H -0.9641 -0.9680 0.0582
C7 C -0.7100(3) -0.9289(5) 0.2298(3)
H6 H -0.6952 -1.0039 0.2598
C8 C -0.5960(3) -0.8306(5) 0.2929(3)
H7 H -0.5969 -0.9080 0.3309
C9 C -0.5233(3) -0.8353(6) 0.2350(3)
H8 H -0.5227 -0.9160 0.2016
H9 H -0.5245 -0.7638 0.1929
C10 C -0.4501(3) -0.8260(7) 0.2908(4)
H10 H -0.4054 -0.8247 0.2520
H11 H -0.4461 -0.9019 0.3288
C11 C -0.4507(4) -0.7026(7) 0.3479(4)
H12 H -0.4047 -0.7000 0.3845
H13 H -0.4506 -0.6264 0.3099
C12 C -0.5217(4) -0.7010(6) 0.4064(4)
H14 H -0.5222 -0.6214 0.4411
H15 H -0.5195 -0.7738 0.4474
C13 C -0.5954(3) -0.7097(5) 0.3522(3)
H16 H -0.5992 -0.6322 0.3145
C14 C -0.7118(3) -0.6202(5) 0.4178(3)
H17 H -0.7029 -0.5479 0.3820
C15 C -0.7792(3) -0.6166(5) 0.4736(3)
C16 C -0.8218(5) -0.5013(6) 0.4731(4)
H18 H -0.8051 -0.4308 0.4394
C17 C -0.8880(4) -0.4919(6) 0.5223(4)
H19 H -0.9171 -0.4159 0.5217
C18 C -0.9107(3) -0.5981(6) 0.5730(4)
H20 H -0.9560 -0.5926 0.6058
C19 C -0.8687(3) -0.7103(5) 0.5761(4)
H21 H -0.8854 -0.7794 0.6109
C20 C -0.7993(3) -0.7222(5) 0.5263(3)
C21 C -0.6480(5) -0.6230(10) -0.0817(6)
H22 H -0.6479 -0.6923 -0.1245
H23 H -0.6112 -0.6416 -0.0358
H24 H -0.6344 -0.5428 -0.1105
Lu1B Lu -0.738368(10) -1.017654(16) 0.58868(3)
O3B O -0.7402(2) -0.3292(4) 0.0262(3)
O4 O -0.6858(4) -1.2390(6) 0.3354(3)
H25 H -0.7019 -1.3053 0.3611
C22 C -0.5948(9) -1.2641(13) 0.3332(8)
H26 H -0.5681 -1.1850 0.3476
H27 H -0.5799 -1.2924 0.2749
H28 H -0.5817 -1.3301 0.3758
loop_
_geom_bond_atom_site_label_1
_geom_bond_atom_site_label_2
_geom_bond_site_symmetry_1
_geom_bond_site_symmetry_2
Lu1 Cl1 1_555 1_555
Cl2 Lu1 1_555 1_555
Cl3 Lu1 1_555 1_555
O1 Lu1 1_555 1_555
O2 Lu1 1_555 1_555
H1 O2 1_555 1_555
O3 C20 1_555 1_555
N1 C13 1_555 1_555
N2 C7 1_555 1_555
C1 H2 1_555 1_555
C2 C1 1_555 1_555
H3 C2 1_555 1_555
C3 C2 1_555 1_555
C4 O1 1_555 1_555
C5 C4 1_555 1_555
H4 C5 1_555 1_555
C6 C1 1_555 1_555
H5 C6 1_555 1_555
C7 C3 1_555 1_555
H6 C7 1_555 1_555
C8 N2 1_555 1_555
H7 C8 1_555 1_555
C9 C8 1_555 1_555
H8 C9 1_555 1_555
H9 C9 1_555 1_555
C10 C9 1_555 1_555
H10 C10 1_555 1_555
H11 C10 1_555 1_555
C11 C10 1_555 1_555
H12 C11 1_555 1_555
H13 C11 1_555 1_555
C12 C11 1_555 1_555
H14 C12 1_555 1_555
H15 C12 1_555 1_555
C13 C8 1_555 1_555
H16 C13 1_555 1_555
C14 N1 1_555 1_555
H17 C14 1_555 1_555
C15 C14 1_555 1_555
C16 C15 1_555 1_555
H18 C16 1_555 1_555
C17 C16 1_555 1_555
H19 C17 1_555 1_555
C18 C17 1_555 1_555
H20 C18 1_555 1_555
C19 C18 1_555 1_555
H21 C19 1_555 1_555
C20 C15 1_555 1_555
C21 O2 1_555 1_555
H22 C21 1_555 1_555
H23 C21 1_555 1_555
H24 C21 1_555 1_555
O4 H25 1_555 1_555
C22 O4 1_555 1_555
H26 C22 1_555 1_555
H27 C22 1_555 1_555
H28 C22 1_555 1_555
Lu1B O3 1_555 1_555
O3B Lu1 1_555 1_555
C3 C4 1_555 1_555
C5 C6 1_555 1_555
C12 C13 1_555 1_555
C19 C20 1_555 1_555

#END
