
#######################################################################
#
#                 Cambridge Crystallographic Data Centre
#                                CCDC 
#
#######################################################################
#
# If this CIF has been generated from an entry in the Cambridge 
# Structural Database, then it will include bibliographic, chemical, 
# crystal, experimental, refinement or atomic coordinate data resulting 
# from the CCDC's data processing and validation procedures.
#
#######################################################################

data_PIZDEH
_symmetry_cell_setting           monoclinic
_symmetry_space_group_name_H-M   'P 21/c'
_symmetry_Int_Tables_number      14
_space_group_name_Hall           '-P 2ybc'
loop_
_symmetry_equiv_pos_site_id
_symmetry_equiv_pos_as_xyz
1 x,y,z
2 -x,1/2+y,1/2-z
3 -x,-y,-z
4 x,1/2-y,1/2+z
_cell_length_a                   10.8184(19)
_cell_length_b                   13.3823(16)
_cell_length_c                   10.4782(20)
_cell_angle_alpha                90
_cell_angle_beta                 115.780(14)
_cell_angle_gamma                90
_cell_volume                     1366
loop_
_atom_site_label
_atom_site_type_symbol
_atom_site_fract_x
_atom_site_fract_y
_atom_site_fract_z
Pd1 Pd 0.83231(3) 0.50481(2) 0.88139(3)
Cu1 Cu 0.50000 0.50000 1.00000
Cl1 Cl 0.6459(1) 0.59221(8) 0.8646(1)
Cl2 Cl 0.7042(1) 0.42433(9) 0.6758(1)
Cl3 Cl 1.0298(1) 0.42374(9) 0.8995(1)
O1 O 0.4603(3) 0.6320(2) 1.0496(3)
O2 O 0.3309(3) 0.4964(2) 0.8183(4)
N1 N 0.2276(3) 0.6567(3) 0.9170(4)
N2 N 0.3885(4) 0.4301(3) 0.6501(4)
C1 C 0.3497(4) 0.6792(3) 1.0193(4)
C2 C 0.3388(4) 0.7688(3) 1.0990(5)
C3 C 0.1852(5) 0.7882(4) 1.0397(6)
C4 C 0.1195(4) 0.7262(3) 0.9053(5)
C5 C 0.3067(4) 0.4454(3) 0.7106(5)
C6 C 0.1753(6) 0.3906(6) 0.6300(7)
C7 C 0.1841(6) 0.3563(5) 0.4947(6)
C8 C 0.3353(5) 0.3601(4) 0.5302(5)
H1 H 0.2223(48) 0.6113(38) 0.8563(52)
H2 H 0.4688(54) 0.4557(39) 0.6761(56)
H3 H 0.3863 0.8262 1.0826
H4 H 0.3783 0.7552 1.2010
H5 H 0.1505 0.7677 1.1080
H6 H 0.1653 0.8593 1.0182
H7 H 0.0386 0.6904 0.9008
H8 H 0.0920 0.7683 0.8208
H9 H 0.0963 0.4347 0.6077
H10 H 0.1677 0.3333 0.6843
H11 H 0.1316 0.4011 0.4115
H12 H 0.1483 0.2883 0.4693
H13 H 0.3503 0.3851 0.4501
H14 H 0.3781 0.2941 0.5575
Cl3B Cl 0.9702(1) 0.57626(9) 1.1005(1)
Cl1B Cl 0.3541(1) 0.40779(8) 1.1354(1)
O1B O 0.5397(3) 0.3680(2) 0.9504(3)
O2B O 0.6691(3) 0.5036(2) 1.1817(4)
Pd1B Pd 1.16769(3) 0.49519(2) 1.11861(3)
Pd1B_2 Pd 0.16769(3) 0.49519(2) 1.11861(3)
C1B C 0.6503(4) 0.3208(3) 0.9807(4)
C5B C 0.6933(4) 0.5546(3) 1.2894(5)
Cl1B_2 Cl 1.3541(1) 0.40779(8) 1.1354(1)
Cl2B Cl 1.2958(1) 0.57567(9) 1.3242(1)
N1B N 0.7724(3) 0.3433(3) 1.0830(4)
C2B C 0.6612(4) 0.2312(3) 0.9010(5)
N2B N 0.6115(4) 0.5699(3) 1.3499(4)
C6B C 0.8247(6) 0.6094(6) 1.3700(7)
C4B C 0.8805(4) 0.2738(3) 1.0947(5)
H1B H 0.7777(48) 0.3887(38) 1.1437(52)
C3B C 0.8148(5) 0.2118(4) 0.9603(6)
H3B H 0.6137 0.1738 0.9174
H4B H 0.6217 0.2448 0.7990
C8B C 0.6647(5) 0.6399(4) 1.4698(5)
H2B H 0.5312(54) 0.5443(39) 1.3239(56)
C7B C 0.8159(6) 0.6437(5) 1.5053(6)
H9B H 0.9037 0.5653 1.3923
H10B H 0.8323 0.6667 1.3157
H7B H 0.9614 0.3096 1.0992
H8B H 0.9080 0.2317 1.1792
H5B H 0.8495 0.2323 0.8920
H6B H 0.8347 0.1407 0.9818
H13B H 0.6497 0.6149 1.5499
H14B H 0.6219 0.7059 1.4425
H11B H 0.8684 0.5989 1.5885
H12B H 0.8517 0.7117 1.5307
loop_
_geom_bond_atom_site_label_1
_geom_bond_atom_site_label_2
_geom_bond_site_symmetry_1
_geom_bond_site_symmetry_2
Pd1 Cl1 1_555 1_555
Cu1 Cl1 1_555 1_555
Cl2 Pd1 1_555 1_555
Cl3 Pd1 1_555 1_555
O1 Cu1 1_555 1_555
O2 Cu1 1_555 1_555
N1 C1 1_555 1_555
N2 C5 1_555 1_555
C1 O1 1_555 1_555
C2 C1 1_555 1_555
C3 C2 1_555 1_555
C4 N1 1_555 1_555
C5 O2 1_555 1_555
C6 C5 1_555 1_555
C7 C6 1_555 1_555
C8 N2 1_555 1_555
H1 N1 1_555 1_555
H2 N2 1_555 1_555
H3 C2 1_555 1_555
H4 C2 1_555 1_555
H5 C3 1_555 1_555
H6 C3 1_555 1_555
H7 C4 1_555 1_555
H8 C4 1_555 1_555
H9 C6 1_555 1_555
H10 C6 1_555 1_555
H11 C7 1_555 1_555
H12 C7 1_555 1_555
H13 C8 1_555 1_555
H14 C8 1_555 1_555
Cl3B Pd1 1_555 1_555
Cl1B Cu1 1_555 1_555
O1B Cu1 1_555 1_555
O2B Cu1 1_555 1_555
Pd1B Cl3 1_555 1_555
Pd1B_2 Cl1B 1_555 1_555
C1B O1B 1_555 1_555
C5B O2B 1_555 1_555
Cl1B_2 Pd1B 1_555 1_555
Cl2B Pd1B 1_555 1_555
N1B C1B 1_555 1_555
C2B C1B 1_555 1_555
N2B C5B 1_555 1_555
C6B C5B 1_555 1_555
C4B N1B 1_555 1_555
H1B N1B 1_555 1_555
C3B C2B 1_555 1_555
H3B C2B 1_555 1_555
H4B C2B 1_555 1_555
C8B N2B 1_555 1_555
H2B N2B 1_555 1_555
C7B C6B 1_555 1_555
H9B C6B 1_555 1_555
H10B C6B 1_555 1_555
H7B C4B 1_555 1_555
H8B C4B 1_555 1_555
H5B C3B 1_555 1_555
H6B C3B 1_555 1_555
H13B C8B 1_555 1_555
H14B C8B 1_555 1_555
H11B C7B 1_555 1_555
H12B C7B 1_555 1_555
C3 C4 1_555 1_555
C7 C8 1_555 1_555
Cl3B Pd1B 1_555 1_555
C4B C3B 1_555 1_555
C8B C7B 1_555 1_555

#END
