
#######################################################################
#
#                 Cambridge Crystallographic Data Centre
#                                CCDC 
#
#######################################################################
#
# If this CIF has been generated from an entry in the Cambridge 
# Structural Database, then it will include bibliographic, chemical, 
# crystal, experimental, refinement or atomic coordinate data resulting 
# from the CCDC's data processing and validation procedures.
#
#######################################################################

data_PIZHUC
_symmetry_cell_setting           tetragonal
_symmetry_space_group_name_H-M   'P 42/n'
_symmetry_Int_Tables_number      86
_space_group_name_Hall           '-P 4bc'
loop_
_symmetry_equiv_pos_site_id
_symmetry_equiv_pos_as_xyz
1 x,y,z
2 -y,1/2+x,1/2+z
3 1/2+y,-x,1/2+z
4 1/2-x,1/2-y,z
5 -x,-y,-z
6 y,1/2-x,1/2-z
7 1/2-y,x,1/2-z
8 1/2+x,1/2+y,-z
_cell_length_a                   24.2146(12)
_cell_length_b                   24.2146(12)
_cell_length_c                   18.6339(12)
_cell_angle_alpha                90
_cell_angle_beta                 90
_cell_angle_gamma                90
_cell_volume                     10925.9
loop_
_atom_site_label
_atom_site_type_symbol
_atom_site_fract_x
_atom_site_fract_y
_atom_site_fract_z
Cu1 Cu 0.57327(7) 0.41536(6) 0.01327(8)
Cl1 Cl 0.5000 0.5000 0.0000
C1 C 0.4954(5) 0.3961(5) 0.1336(6)
H1 H 0.5001 0.4339 0.1402
C2 C 0.4611(5) 0.3698(5) 0.1786(6)
H2 H 0.4440 0.3887 0.2159
C3 C 0.4514(5) 0.3140(5) 0.1687(6)
C4 C 0.4799(5) 0.2882(5) 0.1151(7)
H3 H 0.4756 0.2505 0.1076
C5 C 0.5150(5) 0.3183(5) 0.0722(7)
H4 H 0.5338 0.3000 0.0359
C6 C 0.5167(5) 0.1139(5) 0.3930(6)
H5 H 0.5130 0.0765 0.3828
C7 C 0.4898(5) 0.1522(6) 0.3500(7)
H6 H 0.4666 0.1401 0.3135
C8 C 0.4971(6) 0.2074(7) 0.3607(8)
C9 C 0.5304(7) 0.2222(7) 0.4175(9)
H7 H 0.5366 0.2595 0.4264
C10 C 0.5543(6) 0.1845(7) 0.4603(9)
H8 H 0.5757 0.1964 0.4987
C11 C 0.4103(6) 0.2820(6) 0.2156(7)
H9 H 0.3923 0.3078 0.2479
H10 H 0.3820 0.2663 0.1849
C12 C 0.4353(7) 0.2361(6) 0.2596(8)
H11 H 0.4057 0.2157 0.2824
H12 H 0.4542 0.2110 0.2274
C13 C 0.4723(7) 0.2530(6) 0.3122(9)
H13 H 0.4537 0.2796 0.3428
H14 H 0.5025 0.2722 0.2889
C14 C 0.6106(6) 0.4973(7) 0.1156(8)
H15 H 0.5891 0.5199 0.0865
C15 C 0.6381(7) 0.5218(8) 0.1724(9)
H16 H 0.6373 0.5597 0.1800
C16 C 0.6670(5) 0.4866(7) 0.2174(7)
C17 C 0.6693(7) 0.4359(8) 0.2022(10)
H17 H 0.6892 0.4124 0.2319
C18 C 0.6428(7) 0.4143(8) 0.1423(10)
H18 H 0.6464 0.3769 0.1316
C19 C 0.8529(7) 0.4325(6) 0.3754(8)
H19 H 0.8543 0.3942 0.3789
C20 C 0.8257(7) 0.4543(6) 0.3164(8)
H20 H 0.8093 0.4312 0.2829
C21 C 0.8237(8) 0.5066(6) 0.3088(8)
C22 C 0.8471(7) 0.5398(7) 0.3610(9)
H21 H 0.8439 0.5779 0.3575
C23 C 0.8759(6) 0.5165(6) 0.4191(8)
H22 H 0.8940 0.5393 0.4517
C24 C 0.6972(11) 0.5102(10) 0.2823(12)
H23 H 0.6698 0.5185 0.3186
H24 H 0.7207 0.4813 0.3015
C25 C 0.7274(10) 0.5538(10) 0.2737(13)
H25 H 0.7313 0.5732 0.3190
H26 H 0.7101 0.5786 0.2395
C26 C 0.7871(9) 0.5348(8) 0.2447(10)
H27 H 0.8066 0.5666 0.2258
H28 H 0.7824 0.5085 0.2060
N1 N 0.5235(4) 0.3724(4) 0.0801(5)
N2 N 0.5481(4) 0.1297(4) 0.4493(5)
N3 N 0.6125(4) 0.4463(5) 0.1004(5)
N4 N 0.8773(4) 0.4612(4) 0.4277(6)
O23 O 0.6459(7) 0.3247(6) 0.0159(9)
Cu1D Cu 0.42673(7) 0.58464(6) -0.01327(8)
Cu1A Cu 0.58464(6) 0.07327(7) 0.51327(8)
Cu1B Cu 0.91536(6) 0.42673(7) 0.51327(8)
Cu1B_2 Cu 0.91536(6) 0.42673(7) -0.48673(8)
Cu1A_2 Cu 0.58464(6) 0.07327(7) -0.48673(8)
C1B C 0.8961(5) 0.5046(5) -0.3664(6)
H1B H 0.9339 0.4999 -0.3598
C2B C 0.8698(5) 0.5389(5) -0.3214(6)
H2B H 0.8887 0.5560 -0.2841
C3B C 0.8140(5) 0.5486(5) -0.3313(6)
C4B C 0.7882(5) 0.5201(5) -0.3849(7)
H3B H 0.7505 0.5244 -0.3924
C5B C 0.8183(5) 0.4850(5) -0.4278(7)
H4B H 0.8000 0.4662 -0.4641
C6B C 0.6139(5) 0.4833(5) -0.1070(6)
H5B H 0.5765 0.4870 -0.1172
C7B C 0.6522(6) 0.5102(5) -0.1500(7)
H6B H 0.6401 0.5334 -0.1865
C8B C 0.7074(7) 0.5029(6) -0.1393(8)
C9B C 0.7222(7) 0.4696(7) -0.0825(9)
H7B H 0.7595 0.4634 -0.0736
C10B C 0.6845(7) 0.4457(6) -0.0397(9)
H8B H 0.6964 0.4243 -0.0013
C11B C 0.7820(6) 0.5897(6) -0.2844(7)
H9B H 0.8078 0.6077 -0.2521
H10B H 0.7663 0.6180 -0.3151
C12B C 0.7361(6) 0.5647(7) -0.2404(8)
H11B H 0.7157 0.5943 -0.2176
H12B H 0.7110 0.5458 -0.2726
C13B C 0.7530(6) 0.5277(7) -0.1878(9)
H13B H 0.7796 0.5463 -0.1572
H14B H 0.7722 0.4975 -0.2111
C14A C 0.5027(7) 0.1106(6) -0.3844(8)
H15A H 0.4801 0.0891 -0.4135
C15A C 0.4782(8) 0.1381(7) -0.3276(9)
H16A H 0.4403 0.1373 -0.3200
C16A C 0.5134(7) 0.1670(5) -0.2826(7)
C17A C 0.5641(8) 0.1693(7) -0.2978(10)
H17A H 0.5876 0.1892 -0.2681
C18A C 0.5857(8) 0.1428(7) -0.3577(10)
H18A H 0.6231 0.1464 -0.3684
C19A C 0.5675(6) 0.3529(7) -0.1246(8)
H19A H 0.6058 0.3543 -0.1211
C20A C 0.5457(6) 0.3257(7) -0.1836(8)
H20A H 0.5688 0.3093 -0.2171
C21A C 0.4934(6) 0.3237(8) -0.1912(8)
C22A C 0.4602(7) 0.3471(7) -0.1390(9)
H21A H 0.4221 0.3439 -0.1425
C23A C 0.4835(6) 0.3759(6) -0.0809(8)
H22A H 0.4607 0.3940 -0.0483
C24A C 0.4898(10) 0.1972(11) -0.2177(12)
H23A H 0.4815 0.1698 -0.1814
H24A H 0.5187 0.2207 -0.1985
C25A C 0.4462(10) 0.2274(10) -0.2263(13)
H25A H 0.4268 0.2313 -0.1810
H26A H 0.4214 0.2101 -0.2605
C26A C 0.4652(8) 0.2871(9) -0.2553(10)
H27A H 0.4334 0.3066 -0.2742
H28A H 0.4915 0.2824 -0.2940
N1B N 0.8724(4) 0.4765(4) -0.4199(5)
N1D N 0.4765(4) 0.6276(4) -0.0801(5)
N2B N 0.6297(4) 0.4519(4) -0.0507(5)
N2F N 0.3703(4) 0.5481(4) 0.0507(5)
N3A N 0.5537(5) 0.1125(4) -0.3996(5)
N3D N 0.3875(4) 0.5537(5) -0.1004(5)
N4A N 0.5388(4) 0.3773(4) -0.0723(6)
N4E N 0.4612(4) 0.6227(4) 0.0723(6)
O23D O 0.3541(7) 0.6753(6) -0.0159(9)
O24 O 0.2906(8) 0.6357(8) 0.2798(11)
O25 O 0.6787(8) 0.2333(7) -0.0330(11)
Mo1 Mo 0.59406(4) 0.57793(4) 0.60614(5)
Mo2 Mo 0.55099(5) 0.40413(4) 0.37116(6)
Mo3 Mo 0.59113(5) 0.59516(5) 0.41548(7)
Mo4 Mo 0.64313(5) 0.47078(5) 0.49260(7)
Mo5 Mo 0.48727(6) 0.52878(5) 0.31282(6)
Mo6 Mo 0.54877(6) 0.36870(5) 0.55780(8)
P1 P 0.5000 0.5000 0.5000
O1 O 0.5479(5) 0.4558(5) 0.4785(6)
O2 O 0.5141(6) 0.5245(5) 0.5674(7)
O3 O 0.4475(5) 0.4759(5) 0.4905(6)
O4 O 0.5100(5) 0.5448(5) 0.4361(6)
O5 O 0.5739(4) 0.3093(3) 0.5863(5)
O6 O 0.6424(4) 0.5183(4) 0.5698(5)
O7 O 0.6008(3) 0.6117(4) 0.5200(5)
O8 O 0.7095(4) 0.4577(4) 0.4844(5)
O9 O 0.6360(4) 0.5360(3) 0.4303(5)
O10 O 0.5287(4) 0.6118(4) 0.6281(5)
O11 O 0.5361(4) 0.4636(4) 0.3141(4)
O12 O 0.5720(4) 0.3571(3) 0.3136(5)
O13 O 0.5705(4) 0.5182(4) 0.6725(4)
O14 O 0.6349(4) 0.6411(4) 0.3809(5)
O15 O 0.4861(4) 0.5392(4) 0.2259(5)
O16 O 0.5585(5) 0.5673(5) 0.3351(7)
O17 O 0.6380(5) 0.6126(4) 0.6575(6)
O18 O 0.5494(5) 0.3599(5) 0.4614(6)
O19 O 0.5254(4) 0.6407(5) 0.4302(6)
O20 O 0.6157(5) 0.4328(5) 0.4061(6)
O21 O 0.6152(5) 0.4125(5) 0.5454(6)
O22 O 0.4533(4) 0.5889(5) 0.3499(7)
Mo1D Mo 0.40594(4) 0.42207(4) 0.39386(5)
Mo2D Mo 0.44901(5) 0.59587(4) 0.62884(6)
Mo3D Mo 0.40887(5) 0.40484(5) 0.58452(7)
Mo4D Mo 0.35687(5) 0.52922(5) 0.50740(7)
Mo5D Mo 0.51273(6) 0.47122(5) 0.68718(6)
Mo6D Mo 0.45123(6) 0.63130(5) 0.44220(8)
O1D O 0.4521(5) 0.5442(5) 0.5215(6)
O2D O 0.4859(6) 0.4755(5) 0.4326(7)
O3D O 0.5525(5) 0.5241(5) 0.5095(6)
O4D O 0.4900(5) 0.4552(5) 0.5639(6)
O5D O 0.4261(4) 0.6907(3) 0.4137(5)
O6D O 0.3576(4) 0.4817(4) 0.4302(5)
O7D O 0.3992(3) 0.3883(4) 0.4800(5)
O8D O 0.2905(4) 0.5423(4) 0.5156(5)
O9D O 0.3640(4) 0.4640(3) 0.5697(5)
O10D O 0.4713(4) 0.3882(4) 0.3719(5)
O11D O 0.4639(4) 0.5364(4) 0.6859(4)
O12D O 0.4280(4) 0.6429(3) 0.6864(5)
O13D O 0.4295(4) 0.4818(4) 0.3275(4)
O14D O 0.3651(4) 0.3589(4) 0.6191(5)
O15D O 0.5139(4) 0.4608(4) 0.7741(5)
O16D O 0.4415(5) 0.4327(5) 0.6649(7)
O17D O 0.3620(5) 0.3874(4) 0.3425(6)
O18D O 0.4506(5) 0.6401(5) 0.5386(6)
O19D O 0.4746(4) 0.3593(5) 0.5698(6)
O20D O 0.3843(5) 0.5672(5) 0.5939(6)
O21D O 0.3848(5) 0.5875(5) 0.4546(6)
O22D O 0.5467(4) 0.4111(5) 0.6501(7)
loop_
_geom_bond_atom_site_label_1
_geom_bond_atom_site_label_2
_geom_bond_site_symmetry_1
_geom_bond_site_symmetry_2
Mo1 O2 1_555 1_555
Mo2 O1 1_555 1_555
Mo3 O4 1_555 1_555
Mo4 O1 1_555 1_555
Mo5 O4 1_555 1_555
Mo6 O5 1_555 1_555
P1 O1 1_555 1_555
O1 O2D 1_555 1_555
O2 P1 1_555 1_555
O3 P1 1_555 1_555
O4 P1 1_555 1_555
O6 Mo1 1_555 1_555
O7 Mo1 1_555 1_555
O8 Mo4 1_555 1_555
O9 Mo3 1_555 1_555
O10 Mo1 1_555 1_555
O11 Mo2 1_555 1_555
O12 Mo2 1_555 1_555
O13 Mo1 1_555 1_555
O14 Mo3 1_555 1_555
O15 Mo5 1_555 1_555
O16 Mo3 1_555 1_555
O17 Mo1 1_555 1_555
O18 Mo2 1_555 1_555
O19 Mo3 1_555 1_555
O20 Mo2 1_555 1_555
O21 Mo4 1_555 1_555
O22 Mo5 1_555 1_555
Cu1 Cl1 1_555 1_555
Cl1 Cu1D 1_555 1_555
C1 H1 1_555 1_555
C2 C1 1_555 1_555
H2 C2 1_555 1_555
C3 C2 1_555 1_555
C4 C3 1_555 1_555
H3 C4 1_555 1_555
C5 C4 1_555 1_555
H4 C5 1_555 1_555
C6 H5 1_555 1_555
C7 C6 1_555 1_555
H6 C7 1_555 1_555
C8 C7 1_555 1_555
C9 C8 1_555 1_555
H7 C9 1_555 1_555
C10 C9 1_555 1_555
H8 C10 1_555 1_555
C11 C3 1_555 1_555
H9 C11 1_555 1_555
H10 C11 1_555 1_555
C12 C11 1_555 1_555
H11 C12 1_555 1_555
H12 C12 1_555 1_555
C13 C8 1_555 1_555
H13 C13 1_555 1_555
H14 C13 1_555 1_555
C14 H15 1_555 1_555
C15 C14 1_555 1_555
H16 C15 1_555 1_555
C16 C15 1_555 1_555
C17 C16 1_555 1_555
H17 C17 1_555 1_555
C18 C17 1_555 1_555
H18 C18 1_555 1_555
C19 H19 1_555 1_555
C20 C19 1_555 1_555
H20 C20 1_555 1_555
C21 C20 1_555 1_555
C22 C21 1_555 1_555
H21 C22 1_555 1_555
C23 C22 1_555 1_555
H22 C23 1_555 1_555
C24 C16 1_555 1_555
H23 C24 1_555 1_555
H24 C24 1_555 1_555
C25 C24 1_555 1_555
H25 C25 1_555 1_555
H26 C25 1_555 1_555
C26 C21 1_555 1_555
H27 C26 1_555 1_555
H28 C26 1_555 1_555
N1 Cu1 1_555 1_555
N2 C6 1_555 1_555
N3 Cu1 1_555 1_555
N4 C19 1_555 1_555
O23 Cu1 1_555 1_555
Mo1D O3 1_555 1_555
Mo2D O10 1_555 1_555
Mo3D O4D 1_555 1_555
Mo4D O1D 1_555 1_555
Mo5D O13 1_555 1_555
Mo6D O19 1_555 1_555
O1D P1 1_555 1_555
O2D P1 1_555 1_555
O3D Mo1 1_555 1_555
O4D P1 1_555 1_555
O5D Mo6D 1_555 1_555
O6D Mo1D 1_555 1_555
O7D Mo1D 1_555 1_555
O8D Mo4D 1_555 1_555
O9D Mo3D 1_555 1_555
O10D Mo2 1_555 1_555
O11D Mo2D 1_555 1_555
O12D Mo2D 1_555 1_555
O13D Mo5 1_555 1_555
O14D Mo3D 1_555 1_555
O15D Mo5D 1_555 1_555
O16D Mo3D 1_555 1_555
O17D Mo1D 1_555 1_555
O18D Mo2D 1_555 1_555
O19D Mo6 1_555 1_555
O20D Mo2D 1_555 1_555
O21D Mo4D 1_555 1_555
O22D Mo6 1_555 1_555
Cu1D N1D 1_555 1_555
Cu1A N2 1_555 1_555
Cu1B N4 1_555 1_555
Cu1B_2 N1B 1_555 1_555
Cu1A_2 N3A 1_555 1_555
C1B H1B 1_555 1_555
C2B C1B 1_555 1_555
H2B C2B 1_555 1_555
C3B C2B 1_555 1_555
C4B C3B 1_555 1_555
H3B C4B 1_555 1_555
C5B C4B 1_555 1_555
H4B C5B 1_555 1_555
C6B H5B 1_555 1_555
C7B C6B 1_555 1_555
H6B C7B 1_555 1_555
C8B C7B 1_555 1_555
C9B C8B 1_555 1_555
H7B C9B 1_555 1_555
C10B C9B 1_555 1_555
H8B C10B 1_555 1_555
C11B C3B 1_555 1_555
H9B C11B 1_555 1_555
H10B C11B 1_555 1_555
C12B C11B 1_555 1_555
H11B C12B 1_555 1_555
H12B C12B 1_555 1_555
C13B C8B 1_555 1_555
H13B C13B 1_555 1_555
H14B C13B 1_555 1_555
C14A H15A 1_555 1_555
C15A C14A 1_555 1_555
H16A C15A 1_555 1_555
C16A C15A 1_555 1_555
C17A C16A 1_555 1_555
H17A C17A 1_555 1_555
C18A C17A 1_555 1_555
H18A C18A 1_555 1_555
C19A H19A 1_555 1_555
C20A C19A 1_555 1_555
H20A C20A 1_555 1_555
C21A C20A 1_555 1_555
C22A C21A 1_555 1_555
H21A C22A 1_555 1_555
C23A C22A 1_555 1_555
H22A C23A 1_555 1_555
C24A C16A 1_555 1_555
H23A C24A 1_555 1_555
H24A C24A 1_555 1_555
C25A C24A 1_555 1_555
H25A C25A 1_555 1_555
H26A C25A 1_555 1_555
C26A C21A 1_555 1_555
H27A C26A 1_555 1_555
H28A C26A 1_555 1_555
N1B C1B 1_555 1_555
N2B Cu1 1_555 1_555
N2F Cu1D 1_555 1_555
N3A C14A 1_555 1_555
N3D Cu1D 1_555 1_555
N4A Cu1 1_555 1_555
N4E Cu1D 1_555 1_555
O23D Cu1D 1_555 1_555
Mo3 O7 1_555 1_555
Mo4 O6 1_555 1_555
Mo4 O9 1_555 1_555
Mo4 O20 1_555 1_555
Mo5 O11 1_555 1_555
Mo5 O16 1_555 1_555
Mo6 O18 1_555 1_555
Mo6 O21 1_555 1_555
P1 O3D 1_555 1_555
O1 O3D 1_555 1_555
O2 O1D 1_555 1_555
O2 O3D 1_555 1_555
O2 O4D 1_555 1_555
O3 O1D 1_555 1_555
O3 O2D 1_555 1_555
O3 O4D 1_555 1_555
O4 O2D 1_555 1_555
O4 O3D 1_555 1_555
O22 Mo6D 1_555 1_555
C1 N1 1_555 1_555
C5 N1 1_555 1_555
C10 N2 1_555 1_555
C12 C13 1_555 1_555
C14 N3 1_555 1_555
C18 N3 1_555 1_555
C23 N4 1_555 1_555
C25 C26 1_555 1_555
Mo1D O2D 1_555 1_555
Mo1D O10D 1_555 1_555
Mo1D O13D 1_555 1_555
Mo2D O1D 1_555 1_555
Mo3D O7D 1_555 1_555
Mo3D O19D 1_555 1_555
Mo4D O6D 1_555 1_555
Mo4D O9D 1_555 1_555
Mo4D O20D 1_555 1_555
Mo5D O4D 1_555 1_555
Mo5D O11D 1_555 1_555
Mo5D O16D 1_555 1_555
Mo5D O22D 1_555 1_555
Mo6D O18D 1_555 1_555
Mo6D O21D 1_555 1_555
C5B N1B 1_555 1_555
C6B N2B 1_555 1_555
C10B N2B 1_555 1_555
C12B C13B 1_555 1_555
C18A N3A 1_555 1_555
C19A N4A 1_555 1_555
C23A N4A 1_555 1_555
C25A C26A 1_555 1_555

#END
