
#######################################################################
#
#                 Cambridge Crystallographic Data Centre
#                                CCDC 
#
#######################################################################
#
# If this CIF has been generated from an entry in the Cambridge 
# Structural Database, then it will include bibliographic, chemical, 
# crystal, experimental, refinement or atomic coordinate data resulting 
# from the CCDC's data processing and validation procedures.
#
#######################################################################

data_PIZKUG
_symmetry_cell_setting           triclinic
_symmetry_space_group_name_H-M   'P -1'
_symmetry_Int_Tables_number      2
_space_group_name_Hall           '-P 1'
loop_
_symmetry_equiv_pos_site_id
_symmetry_equiv_pos_as_xyz
1 x,y,z
2 -x,-y,-z
_cell_length_a                   7.4717(15)
_cell_length_b                   8.9361(18)
_cell_length_c                   9.391(2)
_cell_angle_alpha                76.781(18)
_cell_angle_beta                 75.283(18)
_cell_angle_gamma                71.000(19)
_cell_volume                     566.055
loop_
_atom_site_label
_atom_site_type_symbol
_atom_site_fract_x
_atom_site_fract_y
_atom_site_fract_z
Cu1 Cu 0.0000 0.5000 0.5000
Cu2 Cu 0.42883(9) 0.39393(9) 0.29012(8)
N1 N 0.2988(7) 0.5712(7) 0.4075(6)
N2 N 0.3673(7) 0.6677(6) 0.4171(5)
N3 N 0.4363(9) 0.7612(9) 0.4308(9)
N4 N 0.1803(7) 0.3409(8) 0.3619(7)
N5 N 0.1317(8) 0.2449(8) 0.3199(7)
N6 N 0.0872(11) 0.1563(12) 0.2808(10)
N7 N 0.6515(7) 0.4796(7) 0.2036(7)
N8 N 0.7404(9) 0.4530(8) 0.0851(8)
N9 N 0.8221(16) 0.4380(12) -0.0348(12)
N10 N 0.5625(7) 0.1960(7) 0.1969(6)
C1 C 0.6797(8) 0.0695(8) 0.2685(7)
H1 H 0.6802 0.0708 0.3672
C2 C 0.7975(8) -0.0600(8) 0.2063(7)
C3 C 0.7959(9) -0.0617(9) 0.0623(7)
H2 H 0.8747 -0.1485 0.0160
C4 C 0.6761(10) 0.0671(9) -0.0155(7)
H3 H 0.6731 0.0677 -0.1141
C5 C 0.5631(9) 0.1924(9) 0.0563(7)
H4 H 0.4831 0.2789 0.0045
C6 C 0.9276(9) -0.1925(8) 0.2930(9)
H5 H 1.0586 -0.2062 0.2368
H6 H 0.9219 -0.1583 0.3853
N11 N 0.8914(7) -0.3481(7) 0.3305(6)
H7 H 0.9380 -0.3955 0.2498
H8 H 0.7642 -0.3323 0.3512
Cu2A Cu -0.42883(9) 0.60607(9) 0.70988(8)
N1A N -0.2988(7) 0.4288(7) 0.5925(6)
N2A N -0.3673(7) 0.3323(6) 0.5829(5)
N3A N -0.4363(9) 0.2388(9) 0.5692(9)
N4A N -0.1803(7) 0.6591(8) 0.6381(7)
N5A N -0.1317(8) 0.7551(8) 0.6801(7)
N6A N -0.0872(11) 0.8437(12) 0.7192(10)
N7A N -0.6515(7) 0.5204(7) 0.7964(7)
N8A N -0.7404(9) 0.5470(8) 0.9149(8)
N9A N -0.8221(16) 0.5620(12) 1.0348(12)
N10A N -0.5625(7) 0.8040(7) 0.8031(6)
C1A C -0.6797(8) 0.9305(8) 0.7315(7)
H1A H -0.6802 0.9292 0.6328
C2A C -0.7975(8) 1.0600(8) 0.7937(7)
C3A C -0.7959(9) 1.0617(9) 0.9377(7)
H2A H -0.8747 1.1485 0.9840
C4A C -0.6761(10) 0.9329(9) 1.0155(7)
H3A H -0.6731 0.9323 1.1141
C5A C -0.5631(9) 0.8076(9) 0.9437(7)
H4A H -0.4831 0.7211 0.9955
C6A C -0.9276(9) 1.1925(8) 0.7070(9)
H5A H -1.0586 1.2062 0.7632
H6A H -0.9219 1.1583 0.6147
N11A N -0.8914(7) 1.3481(7) 0.6695(6)
H7A H -0.9380 1.3955 0.7502
H8A H -0.7642 1.3323 0.6488
Cu1_2 Cu -1.0000 1.5000 0.5000
Cu1_3 Cu 1.0000 -0.5000 0.5000
N11_2 N -0.1086(7) 0.6519(7) 0.3305(6)
N11A_2 N 0.1086(7) 0.3481(7) 0.6695(6)
loop_
_geom_bond_atom_site_label_1
_geom_bond_atom_site_label_2
_geom_bond_site_symmetry_1
_geom_bond_site_symmetry_2
Cu1 N1 1_555 1_555
Cu2 N1 1_555 1_555
N1 N2 1_555 1_555
N2 N3 1_555 1_555
N4 Cu1 1_555 1_555
N5 N4 1_555 1_555
N6 N5 1_555 1_555
N7 Cu2 1_555 1_555
N8 N7 1_555 1_555
N9 N8 1_555 1_555
N10 Cu2 1_555 1_555
C1 N10 1_555 1_555
H1 C1 1_555 1_555
C2 C1 1_555 1_555
C3 C2 1_555 1_555
H2 C3 1_555 1_555
C4 C3 1_555 1_555
H3 C4 1_555 1_555
C5 N10 1_555 1_555
H4 C5 1_555 1_555
C6 C2 1_555 1_555
H5 C6 1_555 1_555
H6 C6 1_555 1_555
N11 C6 1_555 1_555
H7 N11 1_555 1_555
H8 N11 1_555 1_555
Cu2A N1A 1_555 1_555
N1A Cu1 1_555 1_555
N2A N1A 1_555 1_555
N3A N2A 1_555 1_555
N4A Cu1 1_555 1_555
N5A N4A 1_555 1_555
N6A N5A 1_555 1_555
N7A Cu2A 1_555 1_555
N8A N7A 1_555 1_555
N9A N8A 1_555 1_555
N10A Cu2A 1_555 1_555
C1A N10A 1_555 1_555
H1A C1A 1_555 1_555
C2A C1A 1_555 1_555
C3A C2A 1_555 1_555
H2A C3A 1_555 1_555
C4A C3A 1_555 1_555
H3A C4A 1_555 1_555
C5A N10A 1_555 1_555
H4A C5A 1_555 1_555
C6A C2A 1_555 1_555
H5A C6A 1_555 1_555
H6A C6A 1_555 1_555
N11A C6A 1_555 1_555
H7A N11A 1_555 1_555
H8A N11A 1_555 1_555
Cu1_2 N11A 1_555 1_555
Cu1_3 N11 1_555 1_555
N11_2 Cu1 1_555 1_555
N11A_2 Cu1 1_555 1_555
Cu2 N4 1_555 1_555
C4 C5 1_555 1_555
Cu2A N4A 1_555 1_555
C4A C5A 1_555 1_555

#END
