
#######################################################################
#
#                 Cambridge Crystallographic Data Centre
#                                CCDC 
#
#######################################################################
#
# If this CIF has been generated from an entry in the Cambridge 
# Structural Database, then it will include bibliographic, chemical, 
# crystal, experimental, refinement or atomic coordinate data resulting 
# from the CCDC's data processing and validation procedures.
#
#######################################################################

data_PIZLOB
_symmetry_cell_setting           monoclinic
_symmetry_space_group_name_H-M   'P 21/n'
_symmetry_Int_Tables_number      14
_space_group_name_Hall           '-P 2yn'
loop_
_symmetry_equiv_pos_site_id
_symmetry_equiv_pos_as_xyz
1 x,y,z
2 1/2-x,1/2+y,1/2-z
3 -x,-y,-z
4 1/2+x,1/2-y,1/2+z
_cell_length_a                   15.3948(3)
_cell_length_b                   9.2721(2)
_cell_length_c                   20.2932(3)
_cell_angle_alpha                90
_cell_angle_beta                 103.0880(10)
_cell_angle_gamma                90
_cell_volume                     2821.45
loop_
_atom_site_label
_atom_site_type_symbol
_atom_site_fract_x
_atom_site_fract_y
_atom_site_fract_z
Hg1 Hg 0.07960(2) 0.90793(4) 0.172892(18)
Mo1 Mo -0.45877(4) 0.93371(6) 0.03577(3)
I1 I 0.10425(7) 0.65510(9) 0.23294(5)
N1 N -0.0767(4) 0.9463(7) 0.1284(4)
C1 C -0.0998(6) 1.0755(8) 0.1001(5)
H1 H -0.0565 1.1470 0.1049
I2 I 0.15472(5) 1.07703(9) 0.09657(4)
N2 N -0.3374(4) 1.0213(6) 0.0153(3)
C2 C -0.1851(5) 1.1072(8) 0.0643(4)
H2 H -0.1990 1.1992 0.0469
C3 C -0.2510(5) 0.9984(8) 0.0544(4)
N3 N -0.4274(4) 1.1562(6) -0.0687(3)
C4 C -0.2258(5) 0.8652(8) 0.0845(4)
H3 H -0.2670 0.7905 0.0802
N4 N -0.4357(5) 1.4142(8) -0.2408(4)
C5 C -0.1394(5) 0.8451(9) 0.1208(5)
H4 H -0.1242 0.7559 0.1412
N5 N -0.2612(8) 1.0623(12) 0.3041(6)
N6 N -0.4470(4) 1.0871(6) 0.1163(3)
C6 C -0.3462(5) 1.1130(7) -0.0352(4)
H5 H -0.2958 1.1482 -0.0477
N7 N -0.5434(4) 1.2293(6) 0.0400(3)
C7 C -0.3696(6) 1.3196(12) -0.2203(5)
H6 H -0.3249 1.3133 -0.2442
N8 N -0.7338(7) 1.5645(9) 0.0146(6)
C8 C -0.3652(6) 1.2309(11) -0.1650(5)
H7 H -0.3185 1.1655 -0.1531
C9 C -0.4289(5) 1.2376(7) -0.1273(4)
C10 C -0.5011(6) 1.3305(8) -0.1518(4)
H8 H -0.5491 1.3345 -0.1311
C11 C -0.4995(6) 1.4157(9) -0.2074(5)
H9 H -0.5469 1.4787 -0.2221
C12 C -0.2546(9) 1.156(2) 0.2590(7)
H10 H -0.2058 1.2179 0.2681
C13 C -0.3154(8) 1.1715(18) 0.1976(6)
H11 H -0.3082 1.2452 0.1682
C14 C -0.3853(6) 1.0794(8) 0.1803(4)
C15 C -0.3964(10) 0.9824(12) 0.2304(6)
H12 H -0.4456 0.9213 0.2231
C16 C -0.3335(12) 0.9783(13) 0.2907(7)
H13 H -0.3418 0.9136 0.3238
C17 C -0.4937(5) 1.2077(8) 0.1017(4)
H14 H -0.4916 1.2776 0.1350
C18 C -0.7263(7) 1.4675(12) 0.0622(8)
H15 H -0.7660 1.4739 0.0904
C19 C -0.6647(6) 1.3556(10) 0.0746(6)
H16 H -0.6633 1.2911 0.1099
C20 C -0.6060(5) 1.3430(7) 0.0332(4)
C21 C -0.6111(8) 1.4450(10) -0.0175(5)
H17 H -0.5715 1.4439 -0.0459
C22 C -0.6770(9) 1.5485(10) -0.0243(6)
H18 H -0.6816 1.6133 -0.0599
Hg1C Hg -0.42040(2) 1.59207(4) -0.327108(18)
Mo1B Mo -0.54123(4) 1.06629(6) -0.03577(3)
N3B N -0.5726(4) 0.8438(6) 0.0687(3)
N4C N 0.0643(5) 1.0858(8) 0.2592(4)
N7B N -0.4566(4) 0.7707(6) -0.0400(3)
C23 C -0.032(2) 1.450(4) 0.0451(15)
H19 H -0.0865 1.4251 0.0578
H20 H -0.0307 1.5522 0.0375
H21 H 0.0179 1.4235 0.0807
O1 O -0.027(2) 1.374(3) -0.0164(15)
C23B C 0.032(2) 1.550(4) -0.0451(15)
H19B H 0.0865 1.5749 -0.0578
H20B H 0.0307 1.4478 -0.0375
H21B H -0.0179 1.5765 -0.0807
O1B O 0.027(2) 1.626(3) 0.0164(15)
loop_
_geom_bond_atom_site_label_1
_geom_bond_atom_site_label_2
_geom_bond_site_symmetry_1
_geom_bond_site_symmetry_2
Hg1 I1 1_555 1_555
Mo1 N2 1_555 1_555
N1 Hg1 1_555 1_555
C1 N1 1_555 1_555
H1 C1 1_555 1_555
I2 Hg1 1_555 1_555
N2 C3 1_555 1_555
C2 C1 1_555 1_555
H2 C2 1_555 1_555
C3 C2 1_555 1_555
N3 C6 1_555 1_555
C4 C3 1_555 1_555
H3 C4 1_555 1_555
N4 C7 1_555 1_555
C5 N1 1_555 1_555
H4 C5 1_555 1_555
N5 C12 1_555 1_555
N6 Mo1 1_555 1_555
C6 N2 1_555 1_555
H5 C6 1_555 1_555
N7 C17 1_555 1_555
C7 H6 1_555 1_555
N8 C18 1_555 1_555
C8 C7 1_555 1_555
H7 C8 1_555 1_555
C9 N3 1_555 1_555
C10 C9 1_555 1_555
H8 C10 1_555 1_555
C11 N4 1_555 1_555
H9 C11 1_555 1_555
C12 H10 1_555 1_555
C13 C12 1_555 1_555
H11 C13 1_555 1_555
C14 N6 1_555 1_555
C15 C14 1_555 1_555
H12 C15 1_555 1_555
C16 N5 1_555 1_555
H13 C16 1_555 1_555
C17 N6 1_555 1_555
H14 C17 1_555 1_555
C18 H15 1_555 1_555
C19 C18 1_555 1_555
H16 C19 1_555 1_555
C20 N7 1_555 1_555
C21 C20 1_555 1_555
H17 C21 1_555 1_555
C22 N8 1_555 1_555
H18 C22 1_555 1_555
C23 H19 1_555 1_555
H20 C23 1_555 1_555
H21 C23 1_555 1_555
O1 C23 1_555 1_555
Hg1C N4 1_555 1_555
Mo1B Mo1 1_555 1_555
N3B Mo1 1_555 1_555
N4C Hg1 1_555 1_555
N7B Mo1 1_555 1_555
C23B H19B 1_555 1_555
H20B C23B 1_555 1_555
H21B C23B 1_555 1_555
O1B C23B 1_555 1_555
N3 Mo1B 1_555 1_555
C4 C5 1_555 1_555
N7 Mo1B 1_555 1_555
C8 C9 1_555 1_555
C10 C11 1_555 1_555
C13 C14 1_555 1_555
C15 C16 1_555 1_555
C19 C20 1_555 1_555
C21 C22 1_555 1_555

#END
