
#######################################################################
#
#                 Cambridge Crystallographic Data Centre
#                                CCDC 
#
#######################################################################
#
# If this CIF has been generated from an entry in the Cambridge 
# Structural Database, then it will include bibliographic, chemical, 
# crystal, experimental, refinement or atomic coordinate data resulting 
# from the CCDC's data processing and validation procedures.
#
#######################################################################

data_PIZLIV
_symmetry_cell_setting           monoclinic
_symmetry_space_group_name_H-M   'P 21/n'
_symmetry_Int_Tables_number      14
_space_group_name_Hall           '-P 2yn'
loop_
_symmetry_equiv_pos_site_id
_symmetry_equiv_pos_as_xyz
1 x,y,z
2 1/2-x,1/2+y,1/2-z
3 -x,-y,-z
4 1/2+x,1/2-y,1/2+z
_cell_length_a                   14.9903(8)
_cell_length_b                   9.2196(5)
_cell_length_c                   20.0369(11)
_cell_angle_alpha                90
_cell_angle_beta                 101.615(3)
_cell_angle_gamma                90
_cell_volume                     2712.49
loop_
_atom_site_label
_atom_site_type_symbol
_atom_site_fract_x
_atom_site_fract_y
_atom_site_fract_z
Hg1 Hg 1.08587(2) 1.09906(4) 0.673203(18)
Mo1 Mo 0.54166(4) 1.06705(6) 0.53541(3)
Br1 Br 1.10390(10) 1.33307(14) 0.73302(7)
Br2 Br 1.16295(8) 0.93803(13) 0.60317(6)
N1 N 0.9298(4) 1.0594(7) 0.6253(4)
N2 N 0.6660(4) 0.9789(6) 0.5135(3)
N3 N 0.5749(4) 0.8447(6) 0.4304(3)
N4 N 0.5677(5) 0.5813(8) 0.2575(4)
N5 N 0.7420(6) 1.5628(9) 0.4818(5)
N6 N 0.5451(4) 1.2304(6) 0.4584(3)
N7 N 0.4480(4) 1.0857(6) 0.3827(3)
N8 N 0.2618(8) 1.0563(11) 0.1944(5)
C1 C 0.8636(6) 1.1574(9) 0.6199(4)
H1 H 0.8769 1.2463 0.6416
C2 C 0.7771(5) 1.1343(8) 0.5841(4)
H2 H 0.7334 1.2068 0.5816
C3 C 0.7544(5) 1.0030(8) 0.5516(3)
C4 C 0.8220(6) 0.8999(8) 0.5593(4)
H3 H 0.8096 0.8084 0.5403
C5 C 0.9077(6) 0.9318(8) 0.5950(4)
H4 H 0.9526 0.8610 0.5984
C6 C 0.6562(5) 0.8858(8) 0.4636(4)
H5 H 0.7077 0.8474 0.4511
C7 C 0.5038(7) 0.5796(9) 0.2928(5)
H6 H 0.4563 0.5143 0.2796
C8 C 0.5008(6) 0.6672(8) 0.3486(4)
H7 H 0.4514 0.6637 0.3702
C9 C 0.5729(5) 0.7597(8) 0.3712(4)
C10 C 0.6382(6) 0.7685(11) 0.3316(4)
H8 H 0.6855 0.8350 0.3427
C11 C 0.6338(7) 0.6801(12) 0.2761(5)
H9 H 0.6785 0.6889 0.2502
C12 C 0.7356(7) 1.4644(12) 0.4323(6)
H10 H 0.7763 1.4699 0.4030
C13 C 0.6713(6) 1.3540(10) 0.4223(5)
H11 H 0.6698 1.2876 0.3871
C14 C 0.6098(6) 1.3432(8) 0.4645(4)
C15 C 0.6163(7) 1.4468(9) 0.5149(4)
H12 H 0.5757 1.4463 0.5444
C16 C 0.6824(8) 1.5498(10) 0.5211(5)
H13 H 0.6855 1.6167 0.5562
C17 C 0.4978(5) 1.2047(8) 0.3958(4)
H14 H 0.4998 1.2708 0.3611
C18 C 0.3392(11) 0.9757(12) 0.2061(6)
H15 H 0.3514 0.9148 0.1721
C19 C 0.4012(9) 0.9825(12) 0.2688(5)
H16 H 0.4520 0.9221 0.2767
C20 C 0.3878(6) 1.0759(9) 0.3179(4)
C21 C 0.3120(7) 1.1627(16) 0.3029(5)
H17 H 0.3011 1.2327 0.3337
C22 C 0.2523(8) 1.1445(18) 0.2414(6)
H18 H 0.2002 1.2019 0.2335
Hg1C Hg 0.58587(2) 0.40094(4) 0.173203(18)
Mo1B Mo 0.45834(4) 0.93295(6) 0.46459(3)
N3B N 0.4251(4) 1.1553(6) 0.5696(3)
N4C N 1.0677(5) 0.9187(8) 0.7575(4)
N7B N 0.5520(4) 0.9143(6) 0.6173(3)
C23 C 0.9952(18) 0.627(3) 0.4867(12)
H19 H 1.0495 0.6854 0.4944
H20 H 0.9453 0.6944 0.4756
H21 H 0.9986 0.5664 0.4484
O1 O 0.9854(13) 0.532(4) 0.5542(12)
C23B C 1.0048(18) 0.373(3) 0.5133(12)
H19B H 0.9505 0.3146 0.5056
H20B H 1.0547 0.3056 0.5244
H21B H 1.0014 0.4336 0.5516
O1B O 1.0146(13) 0.468(4) 0.4458(12)
loop_
_geom_bond_atom_site_label_1
_geom_bond_atom_site_label_2
_geom_bond_site_symmetry_1
_geom_bond_site_symmetry_2
Hg1 Br1 1_555 1_555
Mo1 N2 1_555 1_555
Br2 Hg1 1_555 1_555
N1 Hg1 1_555 1_555
N2 C3 1_555 1_555
N3 C6 1_555 1_555
N4 C7 1_555 1_555
N5 C12 1_555 1_555
N6 Mo1 1_555 1_555
N7 C17 1_555 1_555
N8 C18 1_555 1_555
C1 N1 1_555 1_555
H1 C1 1_555 1_555
C2 C1 1_555 1_555
H2 C2 1_555 1_555
C3 C2 1_555 1_555
C4 C3 1_555 1_555
H3 C4 1_555 1_555
C5 N1 1_555 1_555
H4 C5 1_555 1_555
C6 N2 1_555 1_555
H5 C6 1_555 1_555
C7 H6 1_555 1_555
C8 C7 1_555 1_555
H7 C8 1_555 1_555
C9 N3 1_555 1_555
C10 C9 1_555 1_555
H8 C10 1_555 1_555
C11 N4 1_555 1_555
H9 C11 1_555 1_555
C12 H10 1_555 1_555
C13 C12 1_555 1_555
H11 C13 1_555 1_555
C14 N6 1_555 1_555
C15 C14 1_555 1_555
H12 C15 1_555 1_555
C16 N5 1_555 1_555
H13 C16 1_555 1_555
C17 N6 1_555 1_555
H14 C17 1_555 1_555
C18 H15 1_555 1_555
C19 C18 1_555 1_555
H16 C19 1_555 1_555
C20 N7 1_555 1_555
C21 C20 1_555 1_555
H17 C21 1_555 1_555
C22 N8 1_555 1_555
H18 C22 1_555 1_555
C23 H19 1_555 1_555
H20 C23 1_555 1_555
H21 C23 1_555 1_555
O1 C23 1_555 1_555
Hg1C N4 1_555 1_555
Mo1B Mo1 1_555 1_555
N3B Mo1 1_555 1_555
N4C Hg1 1_555 1_555
N7B Mo1 1_555 1_555
C23B H19B 1_555 1_555
H20B C23B 1_555 1_555
H21B C23B 1_555 1_555
O1B C23B 1_555 1_555
N3 Mo1B 1_555 1_555
N7 Mo1B 1_555 1_555
C4 C5 1_555 1_555
C8 C9 1_555 1_555
C10 C11 1_555 1_555
C13 C14 1_555 1_555
C15 C16 1_555 1_555
C19 C20 1_555 1_555
C21 C22 1_555 1_555

#END
