
#######################################################################
#
#                 Cambridge Crystallographic Data Centre
#                                CCDC 
#
#######################################################################
#
# If this CIF has been generated from an entry in the Cambridge 
# Structural Database, then it will include bibliographic, chemical, 
# crystal, experimental, refinement or atomic coordinate data resulting 
# from the CCDC's data processing and validation procedures.
#
#######################################################################

data_PIZNOB
_symmetry_cell_setting           triclinic
_symmetry_space_group_name_H-M   'P -1'
_symmetry_Int_Tables_number      2
_space_group_name_Hall           '-P 1'
loop_
_symmetry_equiv_pos_site_id
_symmetry_equiv_pos_as_xyz
1 x,y,z
2 -x,-y,-z
_cell_length_a                   10.275(3)
_cell_length_b                   8.714(3)
_cell_length_c                   9.325(3)
_cell_angle_alpha                116.19(2)
_cell_angle_beta                 94.84(2)
_cell_angle_gamma                72.37(3)
_cell_volume                     712.833
loop_
_atom_site_label
_atom_site_type_symbol
_atom_site_fract_x
_atom_site_fract_y
_atom_site_fract_z
Eu1 Eu 0.0191(1) 0.2437(1) 0.0000
O1 O 0.0460(5) 0.5830(5) 0.1473(4)
O2 O 0.1000(5) 0.4100(5) 0.2700(4)
O3 O 0.0424(5) 0.8822(5) 0.8453(4)
O4 O 0.0984(5) 1.0168(5) 0.7199(5)
O5 O 0.2440(5) 0.0523(6) 0.0270(6)
O6 O 0.2533(5) 0.2499(6) -0.0556(6)
O7 O -0.1892(5) 0.1719(6) -0.1334(6)
O8 O -0.1885(6) 0.4805(7) 0.1667(6)
C1 C 0.0798(6) 0.5613(6) 0.2721(5)
C2 C 0.0882(7) 0.7184(7) 0.4225(7)
C3 C 0.0840(7) 0.7188(7) 0.5645(5)
C4 C 0.0767(6) 0.8819(6) 0.7179(5)
C5 C 0.3117(6) 0.1242(7) -0.0159(7)
C6 C 0.4661(7) 0.0615(8) -0.0230(9)
C6A C 0.5339(7) -0.0615(8) 0.0230(9)
C5A C 0.6883(6) -0.1242(7) 0.0159(7)
O5A O 0.7560(5) -0.0523(6) -0.0270(6)
O6A O 0.7467(5) -0.2499(6) 0.0556(6)
O1A O -0.0460(5) 0.4170(5) -0.1473(4)
O2A O -0.1000(5) 0.5900(5) -0.2700(4)
O3A O -0.0424(5) 0.1178(5) -0.8453(4)
O4A O -0.0984(5) -0.0168(5) -0.7199(5)
C1A C -0.0798(6) 0.4387(6) -0.2721(5)
C2A C -0.0882(7) 0.2816(7) -0.4225(7)
C3A C -0.0840(7) 0.2812(7) -0.5645(5)
C4A C -0.0767(6) 0.1181(6) -0.7179(5)
Eu1A Eu -0.0191(1) 0.7563(1) 0.0000
O7A O 0.1892(5) 0.8281(6) 0.1334(6)
O8A O 0.1885(6) 0.5195(7) -0.1667(6)
O3_2 O 0.0424(5) -0.1178(5) -0.1547(4)
O3A_2 O -0.0424(5) 0.1178(5) 0.1547(4)
O4_2 O 0.0984(5) 0.0168(5) -0.2801(5)
Eu1_2 Eu 0.0191(1) 1.2437(1) 1.0000
Eu1A_2 Eu -0.0191(1) 0.7563(1) 1.0000
Eu1A_3 Eu 0.9809(1) -0.2437(1) 0.0000
Eu1_3 Eu 0.0191(1) 0.2437(1) -1.0000
Eu1A_4 Eu -0.0191(1) -0.2437(1) -1.0000
O3_3 O 0.0424(5) 0.8822(5) -0.1547(4)
O3A_3 O -0.0424(5) 1.1178(5) 0.1547(4)
O4A_2 O -0.0984(5) 0.9832(5) 0.2801(5)
O5A_2 O -0.2440(5) 0.9477(6) -0.0270(6)
O6A_2 O -0.2533(5) 0.7501(6) 0.0556(6)
O9 O 0.4019(14) 0.5276(15) 0.1107(18)
O10 O 0.6000(19) 0.4375(32) 0.3004(26)
O11 O 0.2973(27) 0.2670(27) 0.4415(29)
O12 O 0.2901(26) 0.0073(29) 0.5194(28)
loop_
_geom_bond_atom_site_label_1
_geom_bond_atom_site_label_2
_geom_bond_site_symmetry_1
_geom_bond_site_symmetry_2
Eu1 O1 1_555 1_555
O1 C1 1_555 1_555
O2 Eu1 1_555 1_555
O3 C4 1_555 1_555
O4 C4 1_555 1_555
O5 Eu1 1_555 1_555
O6 Eu1 1_555 1_555
O7 Eu1 1_555 1_555
O8 Eu1 1_555 1_555
C1 O2 1_555 1_555
C2 C1 1_555 1_555
C3 C2 1_555 1_555
C4 C3 1_555 1_555
C5 O5 1_555 1_555
C6 C5 1_555 1_555
C6A C6 1_555 1_555
C5A C6A 1_555 1_555
O5A C5A 1_555 1_555
O6A C5A 1_555 1_555
O1A Eu1 1_555 1_555
O2A C1A 1_555 1_555
O3A C4A 1_555 1_555
O4A C4A 1_555 1_555
C1A O1A 1_555 1_555
C2A C1A 1_555 1_555
C3A C2A 1_555 1_555
C4A C3A 1_555 1_555
Eu1A O1 1_555 1_555
O7A Eu1A 1_555 1_555
O8A Eu1A 1_555 1_555
O3_2 Eu1 1_555 1_555
O3A_2 Eu1 1_555 1_555
O4_2 Eu1 1_555 1_555
Eu1_2 O3 1_555 1_555
Eu1A_2 O3 1_555 1_555
Eu1A_3 O5A 1_555 1_555
Eu1_3 O3A 1_555 1_555
Eu1A_4 O3A 1_555 1_555
O3_3 Eu1A 1_555 1_555
O3A_3 Eu1A 1_555 1_555
O4A_2 Eu1A 1_555 1_555
O5A_2 Eu1A 1_555 1_555
O6A_2 Eu1A 1_555 1_555
O4 Eu1_2 1_555 1_555
O6 C5 1_555 1_555
O6A Eu1A_3 1_555 1_555
O1A Eu1A 1_555 1_555
O2A Eu1A 1_555 1_555
O4A Eu1A_4 1_555 1_555

#END
