
#######################################################################
#
#                 Cambridge Crystallographic Data Centre
#                                CCDC 
#
#######################################################################
#
# If this CIF has been generated from an entry in the Cambridge 
# Structural Database, then it will include bibliographic, chemical, 
# crystal, experimental, refinement or atomic coordinate data resulting 
# from the CCDC's data processing and validation procedures.
#
#######################################################################

data_PIZPAP
_symmetry_cell_setting           monoclinic
_symmetry_space_group_name_H-M   'P 21/c'
_symmetry_Int_Tables_number      14
_space_group_name_Hall           '-P 2ybc'
loop_
_symmetry_equiv_pos_site_id
_symmetry_equiv_pos_as_xyz
1 x,y,z
2 -x,1/2+y,1/2-z
3 -x,-y,-z
4 x,1/2-y,1/2+z
_cell_length_a                   8.523(2)
_cell_length_b                   17.314(5)
_cell_length_c                   9.764(4)
_cell_angle_alpha                90
_cell_angle_beta                 112.25(3)
_cell_angle_gamma                90
_cell_volume                     1333.56
loop_
_atom_site_label
_atom_site_type_symbol
_atom_site_fract_x
_atom_site_fract_y
_atom_site_fract_z
Tb1 Tb 0.1569(1) 0.7423(1) 0.9740(1)
O1 O 0.0356(7) 0.8559(3) 1.0439(6)
O2 O 0.1863(7) 0.8796(3) 0.9081(7)
O3 O 0.3389(6) 0.7297(4) 0.8548(6)
O4 O 0.4015(6) 0.7033(3) 0.6607(6)
O5 O 0.9765(6) 0.6948(3) 1.0762(6)
O6 O 0.9102(7) 0.7305(4) 1.2651(6)
O7 O 0.0719(8) 0.6211(3) 0.8323(7)
O8 O 0.3095(8) 0.6358(3) 1.1324(8)
C1 C 0.0941(10) 0.9025(4) 0.9771(8)
C2 C 0.0537(11) 0.9869(4) 0.9721(10)
C3 C 0.4423(8) 0.7103(4) 0.7982(7)
C4 C 0.6256(8) 0.6982(4) 0.8946(8)
C5 C 0.6866(8) 0.7168(5) 1.0378(8)
C6 C 0.8703(8) 0.7135(4) 1.1317(8)
C2B C -0.0537(11) 1.0131(4) 1.0279(10)
C1B C -0.0941(10) 1.0975(4) 1.0229(8)
O1B O -0.0356(7) 1.1441(3) 0.9561(6)
O2B O -0.1863(7) 1.1204(3) 1.0919(7)
O4C O 0.4015(6) 0.7967(3) 1.1607(6)
Tb1B Tb -0.1569(1) 1.2577(1) 1.0260(1)
O5_2 O -0.0235(6) 0.6948(3) 1.0762(6)
O6C O -0.0898(7) 0.7695(4) 0.7651(6)
Tb1C Tb 0.1569(1) 0.7577(1) 0.4740(1)
Tb1_2 Tb 1.1569(1) 0.7423(1) 0.9740(1)
Tb1C_2 Tb 1.1569(1) 0.7577(1) 1.4740(1)
O1C O 0.0356(7) 0.6441(3) 0.5439(6)
O2C O 0.1863(7) 0.6204(3) 0.4081(7)
O3C O 0.3389(6) 0.7703(4) 0.3548(6)
O5C O -0.0235(6) 0.8052(3) 0.5762(6)
O6_2 O -0.0898(7) 0.7305(4) 0.2651(6)
O7C O 0.0719(8) 0.8789(3) 0.3323(7)
O8C O 0.3095(8) 0.8642(3) 0.6324(8)
C6C C -0.1297(8) 0.7865(4) 0.6317(8)
C5C C -0.3134(8) 0.7832(5) 0.5378(8)
C4C C -0.3744(8) 0.8018(4) 0.3946(8)
C3C C -0.5577(8) 0.7897(4) 0.2982(7)
O3C_2 O -0.6611(6) 0.7703(4) 0.3548(6)
O4C_2 O -0.5985(6) 0.7967(3) 0.1607(6)
Tb1C_3 Tb -0.8431(1) 0.7577(1) 0.4740(1)
Tb1_3 Tb -0.8431(1) 0.7423(1) -0.0260(1)
O9 O 0.3527(8) 0.1150(4) 0.1890(8)
O10 O 0.5690(10) 0.9249(5) 0.0574(10)
O11 O 0.6726(14) 0.4985(7) 0.1010(13)
O12 O 0.1966(14) 0.4711(6) 0.1562(12)
loop_
_geom_bond_atom_site_label_1
_geom_bond_atom_site_label_2
_geom_bond_site_symmetry_1
_geom_bond_site_symmetry_2
Tb1 O1 1_555 1_555
O1 C1 1_555 1_555
O2 Tb1 1_555 1_555
O3 Tb1 1_555 1_555
O4 C3 1_555 1_555
O5 C6 1_555 1_555
O6 C6 1_555 1_555
O7 Tb1 1_555 1_555
O8 Tb1 1_555 1_555
C1 O2 1_555 1_555
C2 C1 1_555 1_555
C3 O3 1_555 1_555
C4 C3 1_555 1_555
C5 C4 1_555 1_555
C6 C5 1_555 1_555
C2B C2 1_555 1_555
C1B C2B 1_555 1_555
O1B C1B 1_555 1_555
O2B C1B 1_555 1_555
O4C Tb1 1_555 1_555
Tb1B O1B 1_555 1_555
O5_2 Tb1 1_555 1_555
O6C Tb1 1_555 1_555
Tb1C O4 1_555 1_555
Tb1_2 O5 1_555 1_555
Tb1C_2 O6 1_555 1_555
O1C Tb1C 1_555 1_555
O2C Tb1C 1_555 1_555
O3C Tb1C 1_555 1_555
O5C Tb1C 1_555 1_555
O6_2 Tb1C 1_555 1_555
O7C Tb1C 1_555 1_555
O8C Tb1C 1_555 1_555
C6C O6C 1_555 1_555
C5C C6C 1_555 1_555
C4C C5C 1_555 1_555
C3C C4C 1_555 1_555
O3C_2 C3C 1_555 1_555
O4C_2 C3C 1_555 1_555
Tb1C_3 O3C_2 1_555 1_555
Tb1_3 O4C_2 1_555 1_555
O2B Tb1B 1_555 1_555
O5C C6C 1_555 1_555

#END
