
#######################################################################
#
#                 Cambridge Crystallographic Data Centre
#                                CCDC 
#
#######################################################################
#
# If this CIF has been generated from an entry in the Cambridge 
# Structural Database, then it will include bibliographic, chemical, 
# crystal, experimental, refinement or atomic coordinate data resulting 
# from the CCDC's data processing and validation procedures.
#
#######################################################################

data_PIZPET
_symmetry_cell_setting           monoclinic
_symmetry_space_group_name_H-M   'P 21/c'
_symmetry_Int_Tables_number      14
_space_group_name_Hall           '-P 2ybc'
loop_
_symmetry_equiv_pos_site_id
_symmetry_equiv_pos_as_xyz
1 x,y,z
2 -x,1/2+y,1/2-z
3 -x,-y,-z
4 x,1/2-y,1/2+z
_cell_length_a                   8.486(2)
_cell_length_b                   17.271(2)
_cell_length_c                   9.737(1)
_cell_angle_alpha                90
_cell_angle_beta                 112.25(1)
_cell_angle_gamma                90
_cell_volume                     1320.81
loop_
_atom_site_label
_atom_site_type_symbol
_atom_site_fract_x
_atom_site_fract_y
_atom_site_fract_z
O1 O 0.0360(7) -0.1446(3) 0.0461(5)
O2 O 0.1864(7) -0.1215(3) -0.0907(5)
O3 O 0.3363(7) -0.2290(4) 0.3602(6)
O4 O 0.3969(7) -0.2032(3) 0.1622(5)
O5 O -0.0246(7) -0.3048(3) 0.0753(5)
O6 O -0.0887(7) -0.2688(3) 0.2670(5)
O7 O 0.0734(8) -0.3780(3) -0.1645(6)
O8 O 0.3026(8) -0.3634(3) 0.1332(6)
C1 C 0.0963(11) -0.0978(4) -0.0250(8)
C2 C 0.0535(11) -0.0146(4) -0.0287(8)
C3 C 0.4392(9) -0.2106(4) 0.3018(7)
C4 C 0.6206(10) -0.1990(4) 0.3939(7)
C5 C -0.3132(10) -0.2825(4) 0.0398(7)
C6 C -0.1273(9) -0.2866(4) 0.1333(7)
Y1 Y 0.1560(1) -0.2575(1) -0.0245(1)
C2B C -0.0535(11) 0.0146(4) 0.0287(8)
O6C O -0.0887(7) -0.2312(3) -0.2330(5)
O3C O 0.3363(7) -0.2710(4) -0.1398(6)
C1B C -0.0963(11) 0.0978(4) 0.0250(8)
Y1C Y 0.1560(1) -0.2425(1) 0.4755(1)
C4C C -0.3794(10) -0.3010(4) -0.1061(7)
C5C C 0.6868(10) -0.2175(4) 0.5398(7)
O1B O -0.0360(7) 0.1446(3) -0.0461(5)
O2B O -0.1864(7) 0.1215(3) 0.0907(5)
Y1C_2 Y 1.1560(1) -0.2425(1) 0.4755(1)
C3C C -0.5608(9) -0.2894(4) -0.1982(7)
C6C C 0.8727(9) -0.2134(4) 0.6333(7)
Y1B Y -0.1560(1) 0.2575(1) 0.0245(1)
O3C_2 O -0.6637(7) -0.2710(4) -0.1398(6)
O4C O -0.6031(7) -0.2968(3) -0.3378(5)
O5C O 0.9754(7) -0.1952(3) 0.5753(5)
O6C_2 O 0.9113(7) -0.2312(3) 0.7670(5)
Y1_2 Y -0.8440(1) -0.2575(1) -0.0245(1)
Y1C_3 Y -0.8440(1) -0.2425(1) -0.5245(1)
Y1_3 Y 1.1560(1) -0.2575(1) 0.9755(1)
O1C O 0.0360(7) -0.3554(3) 0.5461(5)
O2C O 0.1864(7) -0.3785(3) 0.4093(5)
O4C_2 O 0.3969(7) -0.2968(3) 0.6622(5)
O5C_2 O -0.0246(7) -0.1952(3) 0.5753(5)
O7C O 0.0734(8) -0.1220(3) 0.3355(6)
O8C O 0.3026(8) -0.1366(3) 0.6332(6)
O9 O 0.3548(8) -0.8850(4) -0.8122(6)
O10 O 0.5738(9) -0.0733(4) -0.9360(8)
O11 O 0.6678(12) -0.5011(5) -0.9036(9)
O12 O 0.1962(12) -0.5294(5) -0.8456(9)
loop_
_geom_bond_atom_site_label_1
_geom_bond_atom_site_label_2
_geom_bond_site_symmetry_1
_geom_bond_site_symmetry_2
O1 C1 1_555 1_555
O2 C1 1_555 1_555
O3 C3 1_555 1_555
O4 C3 1_555 1_555
O5 C6 1_555 1_555
O6 C6 1_555 1_555
O7 Y1 1_555 1_555
O8 Y1 1_555 1_555
C1 C2 1_555 1_555
C2 C2B 1_555 1_555
C3 C4 1_555 1_555
C4 C5C 1_555 1_555
C5 C6 1_555 1_555
Y1 O1 1_555 1_555
C2B C1B 1_555 1_555
O6C Y1 1_555 1_555
O3C Y1 1_555 1_555
C1B O1B 1_555 1_555
Y1C O3 1_555 1_555
C4C C5 1_555 1_555
C5C C6C 1_555 1_555
O1B Y1B 1_555 1_555
O2B C1B 1_555 1_555
Y1C_2 O5C 1_555 1_555
C3C C4C 1_555 1_555
C6C O5C 1_555 1_555
Y1B O2B 1_555 1_555
O3C_2 C3C 1_555 1_555
O4C C3C 1_555 1_555
O6C_2 C6C 1_555 1_555
Y1_2 O3C_2 1_555 1_555
Y1C_3 O4C 1_555 1_555
Y1_3 O6C_2 1_555 1_555
O1C Y1C 1_555 1_555
O2C Y1C 1_555 1_555
O4C_2 Y1C 1_555 1_555
O5C_2 Y1C 1_555 1_555
O7C Y1C 1_555 1_555
O8C Y1C 1_555 1_555
O2 Y1 1_555 1_555
O4 Y1 1_555 1_555
O5 Y1 1_555 1_555
O6 Y1C 1_555 1_555

#END
