
#######################################################################
#
#                 Cambridge Crystallographic Data Centre
#                                CCDC 
#
#######################################################################
#
# If this CIF has been generated from an entry in the Cambridge 
# Structural Database, then it will include bibliographic, chemical, 
# crystal, experimental, refinement or atomic coordinate data resulting 
# from the CCDC's data processing and validation procedures.
#
#######################################################################

data_PIZPOD
_symmetry_cell_setting           monoclinic
_symmetry_space_group_name_H-M   'P 21/c'
_symmetry_Int_Tables_number      14
_space_group_name_Hall           '-P 2ybc'
loop_
_symmetry_equiv_pos_site_id
_symmetry_equiv_pos_as_xyz
1 x,y,z
2 -x,1/2+y,1/2-z
3 -x,-y,-z
4 x,1/2-y,1/2+z
_cell_length_a                   8.426(2)
_cell_length_b                   17.159(4)
_cell_length_c                   9.629(2)
_cell_angle_alpha                90
_cell_angle_beta                 112.14(1)
_cell_angle_gamma                90
_cell_volume                     1289.53
loop_
_atom_site_label
_atom_site_type_symbol
_atom_site_fract_x
_atom_site_fract_y
_atom_site_fract_z
Lu1 Lu 0.1558(1) -0.2571(1) -0.0256(1)
O1 O 0.0343(5) -0.1453(3) 0.0458(5)
O2 O 0.1865(6) -0.1233(3) -0.0928(6)
O3 O 0.3375(6) -0.2696(3) -0.1349(6)
O4 O 0.3931(5) -0.2963(3) -0.3355(5)
O5 O -0.0224(5) -0.1947(3) -0.4239(5)
O6 O -0.0854(6) -0.2312(3) -0.2301(6)
O7 O 0.0764(6) -0.3768(3) -0.1600(5)
O8 O 0.3019(6) -0.3622(6) 0.1342(6)
C1 C 0.0933(8) -0.0984(3) -0.0258(7)
C2 C 0.0534(8) -0.0144(4) -0.0342(8)
C3 C 0.4366(7) -0.2889(3) -0.1964(6)
C4 C 0.6221(6) -0.3006(3) -0.1031(6)
C5 C 0.6880(7) -0.2827(4) 0.0421(7)
C6 C -0.1278(6) -0.2142(3) -0.3643(6)
C2B C -0.0534(8) 0.0144(4) 0.0342(8)
O4C O 0.3931(5) -0.2037(3) 0.1645(5)
C6C C 0.8722(6) -0.2858(3) 0.1357(6)
O5C O -0.0224(5) -0.3053(3) 0.0761(5)
C5C C -0.3120(7) -0.2173(4) -0.4579(7)
C1B C -0.0933(8) 0.0984(3) 0.0258(7)
Lu1C Lu 0.1558(1) -0.2429(1) -0.5256(1)
C4C C -0.3779(6) -0.1994(3) -0.6031(6)
O1B O -0.0343(5) 0.1453(3) -0.0458(5)
O2B O -0.1865(6) 0.1233(3) 0.0928(6)
O1C O 0.0343(5) -0.3547(3) -0.4542(5)
O2C O 0.1865(6) -0.3767(3) -0.5928(6)
O3C O 0.3375(6) -0.2304(3) -0.6349(6)
O6C O -0.0854(6) -0.2688(3) -0.7301(6)
O7C O 0.0764(6) -0.1232(3) -0.6600(5)
O8C O 0.3019(6) -0.1378(6) -0.3658(6)
Lu1B Lu -0.1558(1) 0.2571(1) 0.0256(1)
O5C_2 O 0.9776(5) -0.3053(3) 0.0761(5)
O6C_2 O 0.9146(6) -0.2688(3) 0.2699(6)
C3C C -0.5634(7) -0.2111(3) -0.6964(6)
Lu1_2 Lu 1.1558(1) -0.2571(1) -0.0256(1)
Lu1C_2 Lu 1.1558(1) -0.2429(1) 0.4744(1)
O3C_2 O -0.6625(6) -0.2304(3) -0.6349(6)
O4C_2 O -0.6069(5) -0.2037(3) -0.8355(5)
Lu1C_3 Lu -0.8442(1) -0.2429(1) -0.5256(1)
Lu1_3 Lu -0.8442(1) -0.2571(1) -1.0256(1)
O9 O 0.3497(7) -0.8857(3) -0.8124(7)
O10 O 0.5702(9) -0.0717(4) -0.9377(9)
O11 O 0.6753(11) -0.4975(5) -0.9052(10)
O12 O 0.1939(11) -0.5299(4) -0.8504(10)
loop_
_geom_bond_atom_site_label_1
_geom_bond_atom_site_label_2
_geom_bond_site_symmetry_1
_geom_bond_site_symmetry_2
Lu1 O1 1_555 1_555
O1 C1 1_555 1_555
O2 Lu1 1_555 1_555
O3 Lu1 1_555 1_555
O4 C3 1_555 1_555
O5 C6 1_555 1_555
O6 Lu1 1_555 1_555
O7 Lu1 1_555 1_555
O8 Lu1 1_555 1_555
C1 O2 1_555 1_555
C2 C1 1_555 1_555
C3 O3 1_555 1_555
C4 C3 1_555 1_555
C5 C4 1_555 1_555
C6 O6 1_555 1_555
C2B C2 1_555 1_555
O4C Lu1 1_555 1_555
C6C C5 1_555 1_555
O5C Lu1 1_555 1_555
C5C C6 1_555 1_555
C1B C2B 1_555 1_555
Lu1C O4 1_555 1_555
C4C C5C 1_555 1_555
O1B C1B 1_555 1_555
O2B C1B 1_555 1_555
O1C Lu1C 1_555 1_555
O2C Lu1C 1_555 1_555
O3C Lu1C 1_555 1_555
O6C Lu1C 1_555 1_555
O7C Lu1C 1_555 1_555
O8C Lu1C 1_555 1_555
Lu1B O1B 1_555 1_555
O5C_2 C6C 1_555 1_555
O6C_2 C6C 1_555 1_555
C3C C4C 1_555 1_555
Lu1_2 O5C_2 1_555 1_555
Lu1C_2 O6C_2 1_555 1_555
O3C_2 C3C 1_555 1_555
O4C_2 C3C 1_555 1_555
Lu1C_3 O3C_2 1_555 1_555
Lu1_3 O4C_2 1_555 1_555
O5 Lu1C 1_555 1_555
O2B Lu1B 1_555 1_555

#END
