
#######################################################################
#
#                 Cambridge Crystallographic Data Centre
#                                CCDC 
#
#######################################################################
#
# If this CIF has been generated from an entry in the Cambridge 
# Structural Database, then it will include bibliographic, chemical, 
# crystal, experimental, refinement or atomic coordinate data resulting 
# from the CCDC's data processing and validation procedures.
#
#######################################################################

data_PIZPIX
_symmetry_cell_setting           monoclinic
_symmetry_space_group_name_H-M   'P 21/c'
_symmetry_Int_Tables_number      14
_space_group_name_Hall           '-P 2ybc'
loop_
_symmetry_equiv_pos_site_id
_symmetry_equiv_pos_as_xyz
1 x,y,z
2 -x,1/2+y,1/2-z
3 -x,-y,-z
4 x,1/2-y,1/2+z
_cell_length_a                   8.478(1)
_cell_length_b                   17.243(4)
_cell_length_c                   9.695(2)
_cell_angle_alpha                90
_cell_angle_beta                 112.28(2)
_cell_angle_gamma                90
_cell_volume                     1311.46
loop_
_atom_site_label
_atom_site_type_symbol
_atom_site_fract_x
_atom_site_fract_y
_atom_site_fract_z
Er1 Er 0.1567(1) -0.2574(1) -0.0235(1)
O1 O 0.0369(7) -0.1451(3) 0.0455(5)
O2 O 0.1860(7) -0.1217(3) -0.0907(7)
O3 O 0.3356(8) -0.2699(4) -0.1374(7)
O4 O 0.3980(7) -0.2965(3) -0.3369(5)
O5 O -0.0246(6) -0.1924(3) -0.4244(5)
O6 O -0.0826(8) -0.2316(4) -0.2314(6)
O7 O 0.0758(8) -0.3775(4) -0.1625(6)
O8 O 0.3056(8) -0.3624(3) 0.1321(7)
C1 C 0.0956(10) -0.0979(4) -0.0243(8)
C2 C 0.0543(10) -0.0145(4) -0.0301(9)
C3 C 0.4375(8) -0.2886(4) -0.1994(7)
C4 C 0.6233(9) -0.3011(4) -0.1031(7)
C5 C 0.6877(9) -0.2831(5) 0.0394(8)
C6 C -0.1288(8) -0.2133(4) -0.3670(6)
C2B C -0.0543(10) 0.0145(4) 0.0301(9)
O4C O 0.3980(7) -0.2035(3) 0.1631(5)
C6C C 0.8712(8) -0.2867(4) 0.1330(6)
O5C O -0.0246(6) -0.3076(3) 0.0756(5)
C5C C -0.3123(9) -0.2169(5) -0.4606(8)
C1B C -0.0956(10) 0.0979(4) 0.0243(8)
Er1C Er 0.1567(1) -0.2426(1) -0.5235(1)
C4C C -0.3767(9) -0.1989(4) -0.6031(7)
O1B O -0.0369(7) 0.1451(3) -0.0455(5)
O2B O -0.1860(7) 0.1217(3) 0.0907(7)
O1C O 0.0369(7) -0.3549(3) -0.4545(5)
O2C O 0.1860(7) -0.3783(3) -0.5907(7)
O3C O 0.3356(8) -0.2301(4) -0.6374(7)
O6C O -0.0826(8) -0.2684(4) -0.7314(6)
O7C O 0.0758(8) -0.1225(4) -0.6625(6)
O8C O 0.3056(8) -0.1376(3) -0.3679(7)
Er1B Er -0.1567(1) 0.2574(1) 0.0235(1)
O5C_2 O 0.9754(6) -0.3076(3) 0.0756(5)
O6C_2 O 0.9174(8) -0.2684(4) 0.2686(6)
C3C C -0.5625(8) -0.2114(4) -0.6994(7)
Er1_2 Er 1.1567(1) -0.2574(1) -0.0235(1)
Er1C_2 Er 1.1567(1) -0.2426(1) 0.4765(1)
O3C_2 O -0.6644(8) -0.2301(4) -0.6374(7)
O4C_2 O -0.6020(7) -0.2035(3) -0.8369(5)
Er1C_3 Er -0.8433(1) -0.2426(1) -0.5235(1)
Er1_3 Er -0.8433(1) -0.2574(1) -1.0235(1)
O9 O 0.3510(9) -0.8865(4) -0.8090(8)
O10 O 0.5691(10) -0.0721(5) -0.9395(10)
O11 O 0.6705(13) -0.4966(7) -0.9024(12)
O12 O 0.1957(12) -0.5294(5) -0.8448(11)
loop_
_geom_bond_atom_site_label_1
_geom_bond_atom_site_label_2
_geom_bond_site_symmetry_1
_geom_bond_site_symmetry_2
Er1 O1 1_555 1_555
O1 C1 1_555 1_555
O2 Er1 1_555 1_555
O3 Er1 1_555 1_555
O4 C3 1_555 1_555
O5 C6 1_555 1_555
O6 Er1 1_555 1_555
O7 Er1 1_555 1_555
O8 Er1 1_555 1_555
C1 O2 1_555 1_555
C2 C1 1_555 1_555
C3 O3 1_555 1_555
C4 C3 1_555 1_555
C5 C4 1_555 1_555
C6 O6 1_555 1_555
C2B C2 1_555 1_555
O4C Er1 1_555 1_555
C6C C5 1_555 1_555
O5C Er1 1_555 1_555
C5C C6 1_555 1_555
C1B C2B 1_555 1_555
Er1C O4 1_555 1_555
C4C C5C 1_555 1_555
O1B C1B 1_555 1_555
O2B C1B 1_555 1_555
O1C Er1C 1_555 1_555
O2C Er1C 1_555 1_555
O3C Er1C 1_555 1_555
O6C Er1C 1_555 1_555
O7C Er1C 1_555 1_555
O8C Er1C 1_555 1_555
Er1B O1B 1_555 1_555
O5C_2 C6C 1_555 1_555
O6C_2 C6C 1_555 1_555
C3C C4C 1_555 1_555
Er1_2 O5C_2 1_555 1_555
Er1C_2 O6C_2 1_555 1_555
O3C_2 C3C 1_555 1_555
O4C_2 C3C 1_555 1_555
Er1C_3 O3C_2 1_555 1_555
Er1_3 O4C_2 1_555 1_555
O5 Er1C 1_555 1_555
O2B Er1B 1_555 1_555

#END
