
#######################################################################
#
#                 Cambridge Crystallographic Data Centre
#                                CCDC 
#
#######################################################################
#
# If this CIF has been generated from an entry in the Cambridge 
# Structural Database, then it will include bibliographic, chemical, 
# crystal, experimental, refinement or atomic coordinate data resulting 
# from the CCDC's data processing and validation procedures.
#
#######################################################################

data_PIZQUM
_symmetry_cell_setting           orthorhombic
_symmetry_space_group_name_H-M   'P 21 21 21'
_symmetry_Int_Tables_number      19
_space_group_name_Hall           'P 2ac 2ab'
loop_
_symmetry_equiv_pos_site_id
_symmetry_equiv_pos_as_xyz
1 x,y,z
2 1/2-x,-y,1/2+z
3 1/2+x,1/2-y,-z
4 -x,1/2+y,1/2-z
_cell_length_a                   13.014(3)
_cell_length_b                   14.394(3)
_cell_length_c                   16.306(3)
_cell_angle_alpha                90
_cell_angle_beta                 90
_cell_angle_gamma                90
_cell_volume                     3054.5
loop_
_atom_site_label
_atom_site_type_symbol
_atom_site_fract_x
_atom_site_fract_y
_atom_site_fract_z
Cu1 Cu 1.06007(7) 0.03701(6) 0.91414(5)
Cu2 Cu 0.79018(7) 0.29436(6) 0.83953(5)
O1 O 1.1140(5) -0.0516(4) 0.8298(3)
O2 O 1.1202(5) -0.0786(5) 0.6955(4)
O3 O 0.9795(5) 0.1380(4) 0.9734(3)
O4 O 0.8741(5) 0.1972(5) 0.7803(3)
O5 O 0.7134(5) 0.3930(5) 1.0615(3)
O6 O 0.7094(4) 0.3572(4) 0.9283(3)
N1 N 0.9989(6) 0.0914(5) 0.8192(4)
N2 N 0.8694(5) 0.2562(5) 0.9319(4)
N3 N 0.4300(5) 0.0495(5) 0.5092(4)
N4 N 0.3971(6) 0.0202(5) 0.5822(4)
H1 H 0.3775 -0.0357 0.5927
N5 N 0.7138(6) 0.3410(5) 0.6772(4)
H2 H 0.7727 0.3647 0.6654
N6 N 0.6884(5) 0.3074(5) 0.7517(4)
C1 C 1.0889(6) -0.0343(6) 0.7549(5)
C2 C 1.0184(8) 0.0488(6) 0.7402(4)
H3 H 0.9533 0.0269 0.7169
C3 C 1.0698(12) 0.1163(8) 0.6792(6)
H4 H 1.0252 0.1683 0.6695
H5 H 1.0827 0.0847 0.6284
H6 H 1.1336 0.1380 0.7017
C4 C 0.9319(6) 0.1563(5) 0.8317(4)
C5 C 0.9278(6) 0.1839(5) 0.9218(4)
C6 C 0.8522(6) 0.3053(6) 1.0085(5)
H7 H 0.8507 0.2615 1.0545
C7 C 0.9371(8) 0.3770(7) 1.0208(6)
H8 H 1.0021 0.3459 1.0256
H9 H 0.9239 0.4119 1.0699
H10 H 0.9388 0.4184 0.9746
C8 C 0.7497(7) 0.3546(6) 1.0007(5)
C9 C 0.3645(12) 0.0720(10) 0.7244(6)
H11 H 0.3420 0.0087 0.7293
H12 H 0.3088 0.1129 0.7381
H13 H 0.4208 0.0827 0.7612
C10 C 0.3986(7) 0.0904(7) 0.6375(5)
C11 C 0.4368(6) 0.1670(5) 0.5988(5)
C12 C 0.4553(7) 0.1384(6) 0.5182(5)
C13 C 0.4974(11) 0.1922(8) 0.4503(6)
H14 H 0.5006 0.1540 0.4021
H15 H 0.5653 0.2131 0.4642
H16 H 0.4542 0.2449 0.4399
C14 C 0.5385(10) 0.2354(10) 0.8173(5)
H17 H 0.5836 0.2359 0.8638
H18 H 0.5182 0.1727 0.8055
H19 H 0.4786 0.2720 0.8292
C15 C 0.5926(7) 0.2752(6) 0.7450(5)
C16 C 0.5564(6) 0.2894(5) 0.6632(4)
C17 C 0.4503(7) 0.2644(6) 0.6319(5)
H20 H 0.4017 0.2732 0.6763
H21 H 0.4322 0.3078 0.5888
C18 C 0.6362(7) 0.3328(6) 0.6240(5)
C19 C 0.6487(10) 0.3699(9) 0.5375(6)
H22 H 0.7162 0.3958 0.5313
H23 H 0.5982 0.4172 0.5276
H24 H 0.6396 0.3202 0.4989
Cu1A Cu 0.43993(7) -0.03701(6) 0.41414(5)
Cu1B Cu 0.56007(7) 0.46299(6) 1.08586(5)
Cu2C Cu 1.20982(7) -0.20564(6) 0.66047(5)
O2C O 0.8798(5) 0.4214(5) 0.8045(4)
O5B O 1.2134(5) 0.1070(5) 0.9385(3)
N3A N 1.0700(5) -0.0495(5) 1.0092(4)
C20 C 0.7781(9) 0.0016(9) 1.2271(8)
H25 H 0.8125 -0.0529 1.2407
C21 C 0.7457(13) 0.0619(13) 1.2884(5)
H26 H 0.7582 0.0477 1.3431
C22 C 0.6943(13) 0.1433(12) 1.2680(9)
H27 H 0.6726 0.1836 1.3090
C23 C 0.6755(11) 0.1646(8) 1.1862(11)
H28 H 0.6412 0.2191 1.1725
C24 C 0.7080(10) 0.1043(9) 1.1248(6)
H29 H 0.6954 0.1185 1.0701
C25 C 0.7593(9) 0.0228(8) 1.1453(7)
C26 C 0.7910(14) -0.0458(13) 1.0784(10)
H30 H 0.8526 -0.0795 1.0961
C27 C 0.7056(16) -0.1148(15) 1.0613(13)
H31 H 0.7272 -0.1573 1.0194
H32 H 0.6454 -0.0821 1.0433
H33 H 0.6901 -0.1486 1.1105
O7 O 0.8123(10) 0.0017(11) 1.0033(7)
H34 H 0.8599 0.0381 1.0103
loop_
_geom_bond_atom_site_label_1
_geom_bond_atom_site_label_2
_geom_bond_site_symmetry_1
_geom_bond_site_symmetry_2
Cu1 O1 1_555 1_555
Cu2 O4 1_555 1_555
O1 C1 1_555 1_555
O2 C1 1_555 1_555
O3 Cu1 1_555 1_555
O4 C4 1_555 1_555
O5 C8 1_555 1_555
O6 Cu2 1_555 1_555
N1 Cu1 1_555 1_555
N2 Cu2 1_555 1_555
N3 N4 1_555 1_555
N4 H1 1_555 1_555
N5 H2 1_555 1_555
N6 Cu2 1_555 1_555
C1 C2 1_555 1_555
C2 N1 1_555 1_555
H3 C2 1_555 1_555
C3 C2 1_555 1_555
H4 C3 1_555 1_555
H5 C3 1_555 1_555
H6 C3 1_555 1_555
C4 N1 1_555 1_555
C5 O3 1_555 1_555
C6 N2 1_555 1_555
H7 C6 1_555 1_555
C7 C6 1_555 1_555
H8 C7 1_555 1_555
H9 C7 1_555 1_555
H10 C7 1_555 1_555
C8 O6 1_555 1_555
C9 H11 1_555 1_555
H12 C9 1_555 1_555
H13 C9 1_555 1_555
C10 N4 1_555 1_555
C11 C10 1_555 1_555
C12 N3 1_555 1_555
C13 C12 1_555 1_555
H14 C13 1_555 1_555
H15 C13 1_555 1_555
H16 C13 1_555 1_555
C14 H17 1_555 1_555
H18 C14 1_555 1_555
H19 C14 1_555 1_555
C15 N6 1_555 1_555
C16 C15 1_555 1_555
C17 C11 1_555 1_555
H20 C17 1_555 1_555
H21 C17 1_555 1_555
C18 N5 1_555 1_555
C19 C18 1_555 1_555
H22 C19 1_555 1_555
H23 C19 1_555 1_555
H24 C19 1_555 1_555
C20 H25 1_555 1_555
C21 C20 1_555 1_555
H26 C21 1_555 1_555
C22 C21 1_555 1_555
H27 C22 1_555 1_555
C23 C22 1_555 1_555
H28 C23 1_555 1_555
C24 C23 1_555 1_555
H29 C24 1_555 1_555
C25 C20 1_555 1_555
C26 C25 1_555 1_555
H30 C26 1_555 1_555
C27 C26 1_555 1_555
H31 C27 1_555 1_555
H32 C27 1_555 1_555
H33 C27 1_555 1_555
O7 C26 1_555 1_555
H34 O7 1_555 1_555
Cu1A N3 1_555 1_555
Cu1B O5 1_555 1_555
Cu2C O2 1_555 1_555
O2C Cu2 1_555 1_555
O5B Cu1 1_555 1_555
N3A Cu1 1_555 1_555
N2 C5 1_555 1_555
N5 N6 1_555 1_555
C4 C5 1_555 1_555
C6 C8 1_555 1_555
C9 C10 1_555 1_555
C11 C12 1_555 1_555
C14 C15 1_555 1_555
C16 C17 1_555 1_555
C16 C18 1_555 1_555
C24 C25 1_555 1_555

#END
