
#######################################################################
#
#                 Cambridge Crystallographic Data Centre
#                                CCDC 
#
#######################################################################
#
# If this CIF has been generated from an entry in the Cambridge 
# Structural Database, then it will include bibliographic, chemical, 
# crystal, experimental, refinement or atomic coordinate data resulting 
# from the CCDC's data processing and validation procedures.
#
#######################################################################

data_PIZROH
_symmetry_cell_setting           tetragonal
_symmetry_space_group_name_H-M   'P 43 21 2'
_symmetry_Int_Tables_number      96
_space_group_name_Hall           'P 4nw 2abw'
loop_
_symmetry_equiv_pos_site_id
_symmetry_equiv_pos_as_xyz
1 x,y,z
2 1/2-y,1/2+x,3/4+z
3 -x,-y,1/2+z
4 1/2+y,1/2-x,1/4+z
5 1/2+x,1/2-y,1/4-z
6 1/2-x,1/2+y,3/4-z
7 y,x,-z
8 -y,-x,1/2-z
_cell_length_a                   13.5050(4)
_cell_length_b                   13.5050(4)
_cell_length_c                   14.9246(10)
_cell_angle_alpha                90
_cell_angle_beta                 90
_cell_angle_gamma                90
_cell_volume                     2722.02
loop_
_atom_site_label
_atom_site_type_symbol
_atom_site_fract_x
_atom_site_fract_y
_atom_site_fract_z
Cu1 Cu 0.29531(3) 0.02687(3) 0.03524(3)
O1 O 0.1170(2) 0.2049(2) -0.10436(16)
O2 O 0.36031(19) -0.05386(19) -0.05982(17)
O3 O 0.3810(2) -0.0656(2) -0.20654(18)
C1 C 0.1676(3) 0.1532(3) -0.0501(2)
C2 C 0.2589(3) 0.0483(3) -0.1550(2)
H1 H 0.2858 0.1030 -0.1906
C3 C 0.1717(4) 0.0025(5) -0.2048(4)
H2 H 0.1215 0.0519 -0.2139
H3 H 0.1449 -0.0510 -0.1701
H4 H 0.1937 -0.0221 -0.2618
C4 C 0.3401(3) -0.0298(3) -0.1405(2)
C5 C 0.2898(3) -0.1630(3) 0.1392(2)
C6 C 0.3279(3) -0.2055(3) 0.2175(3)
C7 C 0.3854(3) -0.1333(3) 0.2563(3)
C8 C 0.2249(5) -0.2072(4) 0.0695(3)
H5 H 0.2119 -0.1590 0.0237
H6 H 0.1635 -0.2275 0.0963
H7 H 0.2572 -0.2636 0.0435
C9 C 0.4474(5) -0.1316(5) 0.3390(4)
H8 H 0.4781 -0.0678 0.3450
H9 H 0.4977 -0.1817 0.3349
H10 H 0.4064 -0.1442 0.3903
C10 C 0.3102(3) -0.3102(3) 0.2500
H11 H 0.3554 -0.3250 0.2980
N1 N 0.3206(2) -0.0691(2) 0.1324(2)
N2 N 0.3779(3) -0.0524(2) 0.2039(2)
H12 H 0.4065 0.0031 0.2151
N3 N 0.2324(2) 0.0846(2) -0.06730(19)
O2F O -0.05386(19) 0.36031(19) 0.05982(17)
C1F C 0.1532(3) 0.1676(3) 0.0501(2)
C2F C 0.0483(3) 0.2589(3) 0.1550(2)
H1F H 0.1030 0.2858 0.1906
C3F C 0.0025(5) 0.1717(4) 0.2048(4)
H2F H 0.0519 0.1215 0.2139
H3F H -0.0510 0.1449 0.1701
H4F H -0.0221 0.1937 0.2618
C4F C -0.0298(3) 0.3401(3) 0.1405(2)
N3F N 0.0846(2) 0.2324(2) 0.06730(19)
O1F O 0.2049(2) 0.1170(2) 0.10436(16)
O3F O -0.0656(2) 0.3810(2) 0.20654(18)
C5G C 0.1630(3) -0.2898(3) 0.3608(2)
C6G C 0.2055(3) -0.3279(3) 0.2825(3)
C7G C 0.1333(3) -0.3854(3) 0.2437(3)
C8G C 0.2072(4) -0.2249(5) 0.4305(3)
H5G H 0.1590 -0.2119 0.4763
H6G H 0.2275 -0.1635 0.4037
H7G H 0.2636 -0.2572 0.4565
C9G C 0.1316(5) -0.4474(5) 0.1610(4)
H8G H 0.0678 -0.4781 0.1550
H9G H 0.1817 -0.4977 0.1651
H10G H 0.1442 -0.4064 0.1097
H11G H 0.3250 -0.3554 0.2020
N1G N 0.0691(2) -0.3206(2) 0.3676(2)
N2G N 0.0524(2) -0.3779(3) 0.2961(2)
H12G H -0.0031 -0.4065 0.2849
Cu1F Cu 0.02687(3) 0.29531(3) -0.03524(3)
Cu1A Cu 0.47313(3) -0.20469(3) -0.21476(3)
Cu1D Cu -0.20469(3) 0.47313(3) 0.21476(3)
Cu1G Cu -0.02687(3) -0.29531(3) 0.46476(3)
O3C O 0.4344(2) 0.1190(2) 0.04346(18)
O3E O 0.1190(2) 0.4344(2) -0.04346(18)
N1F N -0.0691(2) 0.3206(2) -0.1324(2)
loop_
_geom_bond_atom_site_label_1
_geom_bond_atom_site_label_2
_geom_bond_site_symmetry_1
_geom_bond_site_symmetry_2
Cu1 O2 1_555 1_555
O1 C1 1_555 1_555
O2 C4 1_555 1_555
O3 C4 1_555 1_555
C1 N3 1_555 1_555
C2 H1 1_555 1_555
C3 C2 1_555 1_555
H2 C3 1_555 1_555
H3 C3 1_555 1_555
H4 C3 1_555 1_555
C4 C2 1_555 1_555
C5 C6 1_555 1_555
C6 C7 1_555 1_555
C7 C9 1_555 1_555
C8 C5 1_555 1_555
H5 C8 1_555 1_555
H6 C8 1_555 1_555
H7 C8 1_555 1_555
C9 H8 1_555 1_555
H9 C9 1_555 1_555
H10 C9 1_555 1_555
C10 C6 1_555 1_555
H11 C10 1_555 1_555
N1 Cu1 1_555 1_555
N2 C7 1_555 1_555
H12 N2 1_555 1_555
N3 Cu1 1_555 1_555
O2F C4F 1_555 1_555
C1F C1 1_555 1_555
C2F H1F 1_555 1_555
C3F C2F 1_555 1_555
H2F C3F 1_555 1_555
H3F C3F 1_555 1_555
H4F C3F 1_555 1_555
C4F C2F 1_555 1_555
N3F C1F 1_555 1_555
O1F Cu1 1_555 1_555
O3F C4F 1_555 1_555
C5G C6G 1_555 1_555
C6G C10 1_555 1_555
C7G C6G 1_555 1_555
C8G C5G 1_555 1_555
H5G C8G 1_555 1_555
H6G C8G 1_555 1_555
H7G C8G 1_555 1_555
C9G C7G 1_555 1_555
H8G C9G 1_555 1_555
H9G C9G 1_555 1_555
H10G C9G 1_555 1_555
H11G C10 1_555 1_555
N1G C5G 1_555 1_555
N2G C7G 1_555 1_555
H12G N2G 1_555 1_555
Cu1F O1 1_555 1_555
Cu1A O3 1_555 1_555
Cu1D O3F 1_555 1_555
Cu1G N1G 1_555 1_555
O3C Cu1 1_555 1_555
O3E Cu1F 1_555 1_555
N1F Cu1F 1_555 1_555
C2 N3 1_555 1_555
C5 N1 1_555 1_555
N1 N2 1_555 1_555
O2F Cu1F 1_555 1_555
C1F O1F 1_555 1_555
C2F N3F 1_555 1_555
N3F Cu1F 1_555 1_555
N1G N2G 1_555 1_555

#END
