
#######################################################################
#
#                 Cambridge Crystallographic Data Centre
#                                CCDC 
#
#######################################################################
#
# If this CIF has been generated from an entry in the Cambridge 
# Structural Database, then it will include bibliographic, chemical, 
# crystal, experimental, refinement or atomic coordinate data resulting 
# from the CCDC's data processing and validation procedures.
#
#######################################################################

data_PIZRIB
_symmetry_cell_setting           orthorhombic
_symmetry_space_group_name_H-M   'P 21 21 21'
_symmetry_Int_Tables_number      19
_space_group_name_Hall           'P 2ac 2ab'
loop_
_symmetry_equiv_pos_site_id
_symmetry_equiv_pos_as_xyz
1 x,y,z
2 1/2-x,-y,1/2+z
3 1/2+x,1/2-y,-z
4 -x,1/2+y,1/2-z
_cell_length_a                   13.0844(2)
_cell_length_b                   14.0741(2)
_cell_length_c                   16.4507(3)
_cell_angle_alpha                90
_cell_angle_beta                 90
_cell_angle_gamma                90
_cell_volume                     3029.42
loop_
_atom_site_label
_atom_site_type_symbol
_atom_site_fract_x
_atom_site_fract_y
_atom_site_fract_z
Cu1 Cu 0.71444(7) 0.20566(6) 0.34215(5)
Cu2 Cu 0.44125(6) 0.46650(6) 0.41206(5)
O1 O 0.7955(4) 0.1441(3) 0.4311(3)
O2 O 0.6285(4) 0.3015(4) 0.2817(3)
N1 N 1.0961(5) 0.4784(4) 0.0789(3)
O3 O 0.3866(3) 0.5541(3) 0.3268(3)
O4 O 0.5230(4) 0.3655(4) 0.4719(3)
N2 N 0.7856(4) 0.1631(4) 0.1801(3)
H1 H 0.7249 0.1442 0.1684
C1 C 0.5748(5) 0.3170(4) 0.4218(4)
N3 N 0.8170(4) 0.1899(4) 0.2551(3)
C2 C 0.9464(5) 0.2071(4) 0.1663(4)
C3 C 0.5697(5) 0.3439(4) 0.3325(4)
O5 O 0.7925(4) 0.1099(4) 0.5636(3)
O6 O 0.3763(5) 0.5759(4) 0.1933(3)
N4 N 0.5025(5) 0.4095(4) 0.3191(3)
N5 N 1.0733(4) 0.4452(4) 0.0054(3)
N6 N 0.6340(4) 0.2457(4) 0.4322(3)
C4 C 0.7551(5) 0.1475(4) 0.5026(4)
C5 C 0.4087(5) 0.5327(5) 0.2537(4)
C6 C 0.9140(5) 0.2152(5) 0.2489(4)
C7 C 1.0648(4) 0.3281(4) 0.0985(4)
C8 C 0.6517(5) 0.1980(5) 0.5091(4)
H2 H 0.6528 0.2442 0.5537
C9 C 1.0553(6) 0.3527(4) 0.0164(4)
C10 C 0.8634(5) 0.1702(5) 0.1257(4)
C11 C 0.4797(8) 0.4488(7) 0.2395(4)
H3 H 0.5422 0.4686 0.2115
C12 C 0.5686(6) 0.1250(7) 0.5231(5)
H4 H 0.5030 0.1554 0.5203
H5 H 0.5772 0.0968 0.5758
H6 H 0.5728 0.0766 0.4822
C13 C 1.0930(6) 0.4101(5) 0.1355(4)
C14 C 1.0522(5) 0.2291(4) 0.1333(4)
H7 H 1.1015 0.2207 0.1767
H8 H 1.0682 0.1833 0.0911
C15 C 1.0362(13) 0.2882(7) -0.0529(5)
H9 H 0.9650 0.2897 -0.0667
H10 H 1.0553 0.2247 -0.0381
H11 H 1.0760 0.3084 -0.0988
C16 C 1.1203(14) 0.4340(9) 0.2217(6)
H12 H 1.1403 0.4996 0.2249
H13 H 1.1758 0.3945 0.2392
H14 H 1.0621 0.4234 0.2561
C17 C 0.8474(8) 0.1364(8) 0.0406(5)
H15 H 0.7803 0.1094 0.0356
H16 H 0.8977 0.0890 0.0276
H17 H 0.8540 0.1889 0.0038
C18 C 0.9741(8) 0.2449(9) 0.3209(5)
H18 H 0.9324 0.2839 0.3555
H19 H 1.0328 0.2805 0.3035
H20 H 0.9961 0.1897 0.3504
H21 H 1.120(5) 0.541(5) 0.091(4)
C19 C 0.4164(17) 0.3756(10) 0.1864(8)
H22 H 0.4578 0.3208 0.1752
H23 H 0.3969 0.4051 0.1361
H24 H 0.3563 0.3565 0.2156
Cu1C Cu 0.28556(7) 0.70566(6) 0.15785(5)
Cu2A Cu 1.05875(6) 0.53350(6) -0.08794(5)
Cu2B Cu 0.94125(6) 0.03350(6) 0.58794(5)
O5B O 0.2925(4) 0.3901(4) 0.4364(3)
O6C O 0.6237(5) 0.0759(4) 0.3067(3)
N5A N 0.4267(4) 0.5548(4) 0.5054(3)
loop_
_geom_bond_atom_site_label_1
_geom_bond_atom_site_label_2
_geom_bond_site_symmetry_1
_geom_bond_site_symmetry_2
Cu1 O1 1_555 1_555
Cu2 O3 1_555 1_555
O1 C4 1_555 1_555
O2 Cu1 1_555 1_555
N1 N5 1_555 1_555
O3 C5 1_555 1_555
O4 Cu2 1_555 1_555
N2 H1 1_555 1_555
C1 O4 1_555 1_555
N3 Cu1 1_555 1_555
C2 C6 1_555 1_555
C3 O2 1_555 1_555
O5 C4 1_555 1_555
O6 C5 1_555 1_555
N4 Cu2 1_555 1_555
N5 C9 1_555 1_555
N6 Cu1 1_555 1_555
C4 C8 1_555 1_555
C5 C11 1_555 1_555
C6 N3 1_555 1_555
C7 C9 1_555 1_555
C8 N6 1_555 1_555
H2 C8 1_555 1_555
C9 C15 1_555 1_555
C10 N2 1_555 1_555
C11 N4 1_555 1_555
H3 C11 1_555 1_555
C12 C8 1_555 1_555
H4 C12 1_555 1_555
H5 C12 1_555 1_555
H6 C12 1_555 1_555
C13 N1 1_555 1_555
C14 C2 1_555 1_555
H7 C14 1_555 1_555
H8 C14 1_555 1_555
C15 H9 1_555 1_555
H10 C15 1_555 1_555
H11 C15 1_555 1_555
C16 C13 1_555 1_555
H12 C16 1_555 1_555
H13 C16 1_555 1_555
H14 C16 1_555 1_555
C17 C10 1_555 1_555
H15 C17 1_555 1_555
H16 C17 1_555 1_555
H17 C17 1_555 1_555
C18 C6 1_555 1_555
H18 C18 1_555 1_555
H19 C18 1_555 1_555
H20 C18 1_555 1_555
H21 N1 1_555 1_555
C19 C11 1_555 1_555
H22 C19 1_555 1_555
H23 C19 1_555 1_555
H24 C19 1_555 1_555
Cu1C O6 1_555 1_555
Cu2A N5 1_555 1_555
Cu2B O5 1_555 1_555
O5B Cu2 1_555 1_555
O6C Cu1 1_555 1_555
N5A Cu2 1_555 1_555
N2 N3 1_555 1_555
C1 C3 1_555 1_555
C1 N6 1_555 1_555
C2 C10 1_555 1_555
C3 N4 1_555 1_555
C7 C13 1_555 1_555
C7 C14 1_555 1_555

#END
