
#######################################################################
#
#                 Cambridge Crystallographic Data Centre
#                                CCDC 
#
#######################################################################
#
# If this CIF has been generated from an entry in the Cambridge 
# Structural Database, then it will include bibliographic, chemical, 
# crystal, experimental, refinement or atomic coordinate data resulting 
# from the CCDC's data processing and validation procedures.
#
#######################################################################

data_PIZRAT
_symmetry_cell_setting           orthorhombic
_symmetry_space_group_name_H-M   'P 21 21 21'
_symmetry_Int_Tables_number      19
_space_group_name_Hall           'P 2ac 2ab'
loop_
_symmetry_equiv_pos_site_id
_symmetry_equiv_pos_as_xyz
1 x,y,z
2 1/2-x,-y,1/2+z
3 1/2+x,1/2-y,-z
4 -x,1/2+y,1/2-z
_cell_length_a                   13.492(2)
_cell_length_b                   14.377(2)
_cell_length_c                   16.191(3)
_cell_angle_alpha                90
_cell_angle_beta                 90
_cell_angle_gamma                90
_cell_volume                     3140.64
loop_
_atom_site_label
_atom_site_type_symbol
_atom_site_fract_x
_atom_site_fract_y
_atom_site_fract_z
Cu1 Cu -0.70060(4) -0.20674(4) 0.33602(3)
Cu2 Cu -0.42989(4) -0.45121(4) 0.41501(3)
N1 N -0.6218(3) -0.2392(3) 0.4289(2)
N2 N -0.4837(3) -0.3965(3) 0.3176(2)
N3 N -0.7010(3) -0.7977(3) 0.7477(2)
N4 N -0.7192(3) -0.8369(3) 0.6744(2)
H1 H -0.7741 -0.8651 0.6615
N5 N -0.3998(3) -0.5094(3) 0.5848(3)
H2 H -0.3764 -0.4542 0.5950
N6 N -0.4319(3) -0.5373(3) 0.5106(2)
C1 C -0.7453(4) -0.1482(3) 0.4984(3)
C2 C -0.5670(5) -0.1186(4) 0.5239(4)
H3 H -0.5021 -0.1472 0.5293
H4 H -0.5833 -0.0861 0.5746
H5 H -0.5662 -0.0749 0.4783
C3 C -0.6443(4) -0.1937(4) 0.5075(3)
H6 H -0.6451 -0.2397 0.5530
C4 C -0.5592(3) -0.3069(3) 0.4186(3)
C5 C -0.5525(3) -0.3350(3) 0.3290(3)
C6 C -0.4598(4) -0.4379(4) 0.2384(3)
H7 H -0.5217 -0.4549 0.2092
C7 C -0.3983(7) -0.3719(5) 0.1843(4)
H8 H -0.4367 -0.3165 0.1723
H9 H -0.3811 -0.4029 0.1331
H10 H -0.3382 -0.3546 0.2134
C8 C -0.3994(4) -0.5251(3) 0.2560(3)
C9 C -0.6484(6) -0.8657(5) 0.5360(4)
H11 H -0.7102 -0.8995 0.5302
H12 H -0.5933 -0.9076 0.5260
H13 H -0.6465 -0.8152 0.4964
C10 C -0.6408(4) -0.8267(3) 0.6226(3)
C11 C -0.5701(4) -0.7760(3) 0.6639(3)
C12 C -0.6107(4) -0.7594(3) 0.7424(3)
C13 C -0.5688(5) -0.7102(5) 0.8140(3)
H14 H -0.6156 -0.7121 0.8594
H15 H -0.5556 -0.6460 0.7992
H16 H -0.5074 -0.7400 0.8305
C14 C -0.4662(4) -0.7497(3) 0.6357(4)
H17 H -0.4486 -0.7962 0.5963
H18 H -0.4284 -0.7924 0.6676
C15 C -0.5053(5) -0.6782(4) 0.4498(4)
H19 H -0.5046 -0.6401 0.4004
H20 H -0.5730 -0.6955 0.4629
H21 H -0.4663 -0.7339 0.4406
C16 C -0.4624(3) -0.6247(3) 0.5198(3)
C17 C -0.4491(3) -0.6531(3) 0.6023(3)
C18 C -0.4083(4) -0.5772(4) 0.6418(3)
C19 C -0.3765(6) -0.5587(5) 0.7286(4)
H22 H -0.3873 -0.6139 0.7619
H23 H -0.4148 -0.5075 0.7510
H24 H -0.3066 -0.5428 0.7294
O1 O -0.7817(3) -0.1100(3) 0.5588(2)
O2 O -0.7846(2) -0.1490(2) 0.4252(2)
O3 O -0.6114(3) -0.2983(3) 0.2763(2)
O4 O -0.5070(3) -0.3489(2) 0.4717(2)
O5 O -0.3782(2) -0.5426(2) 0.3310(2)
O6 O -0.3728(3) -0.5728(2) 0.1967(2)
Cu1A Cu -0.79940(4) -0.79326(4) 0.83602(3)
Cu1C Cu -0.29940(4) -0.70674(4) 0.16398(3)
Cu2B Cu -0.92989(4) -0.04879(4) 0.58499(3)
N3A N -0.7990(3) -0.2023(3) 0.2477(2)
O1B O -0.2817(3) -0.3900(3) 0.4412(2)
O6C O -0.6272(3) -0.0728(2) 0.3033(2)
C20 C -0.8214(5) -0.5159(5) 0.1601(6)
H25 H -0.8728 -0.4728 0.1519
C21 C -0.8344(6) -0.5897(6) 0.2145(6)
H26 H -0.8946 -0.5965 0.2431
C22 C -0.7583(7) -0.6534(5) 0.2268(5)
H27 H -0.7671 -0.7033 0.2636
C23 C -0.6692(6) -0.6433(5) 0.1846(5)
H28 H -0.6177 -0.6864 0.1928
C24 C -0.6562(5) -0.5695(6) 0.1302(5)
H29 H -0.5959 -0.5627 0.1016
C25 C -0.7323(6) -0.5058(5) 0.1179(5)
O7 O -0.6527(7) -0.3575(5) 0.0907(6)
H30 H -0.6524 -0.3503 0.1428
C26 C -0.7144(11) -0.4329(9) -0.0232(8)
H31 H -0.7387 -0.3773 -0.0517
H32 H -0.6441 -0.4401 -0.0370
C27 C -0.7232(12) -0.4182(8) 0.0659(8)
H33 H -0.7869 -0.3850 0.0734
C28 C -0.7642(14) -0.5076(11) -0.0521(8)
H34 H -0.7516 -0.5145 -0.1107
H35 H -0.8347 -0.4989 -0.0430
H36 H -0.7422 -0.5630 -0.0232
loop_
_geom_bond_atom_site_label_1
_geom_bond_atom_site_label_2
_geom_bond_site_symmetry_1
_geom_bond_site_symmetry_2
Cu1 N1 1_555 1_555
Cu2 N2 1_555 1_555
N1 C3 1_555 1_555
N2 C5 1_555 1_555
N3 N4 1_555 1_555
N4 H1 1_555 1_555
N5 H2 1_555 1_555
N6 Cu2 1_555 1_555
C1 C3 1_555 1_555
C2 H3 1_555 1_555
H4 C2 1_555 1_555
H5 C2 1_555 1_555
C3 C2 1_555 1_555
H6 C3 1_555 1_555
C4 N1 1_555 1_555
C5 C4 1_555 1_555
C6 N2 1_555 1_555
H7 C6 1_555 1_555
C7 C6 1_555 1_555
H8 C7 1_555 1_555
H9 C7 1_555 1_555
H10 C7 1_555 1_555
C8 C6 1_555 1_555
C9 H11 1_555 1_555
H12 C9 1_555 1_555
H13 C9 1_555 1_555
C10 N4 1_555 1_555
C11 C10 1_555 1_555
C12 N3 1_555 1_555
C13 C12 1_555 1_555
H14 C13 1_555 1_555
H15 C13 1_555 1_555
H16 C13 1_555 1_555
C14 C11 1_555 1_555
H17 C14 1_555 1_555
H18 C14 1_555 1_555
C15 H19 1_555 1_555
H20 C15 1_555 1_555
H21 C15 1_555 1_555
C16 N6 1_555 1_555
C17 C14 1_555 1_555
C18 N5 1_555 1_555
C19 C18 1_555 1_555
H22 C19 1_555 1_555
H23 C19 1_555 1_555
H24 C19 1_555 1_555
O1 C1 1_555 1_555
O2 Cu1 1_555 1_555
O3 Cu1 1_555 1_555
O4 Cu2 1_555 1_555
O5 Cu2 1_555 1_555
O6 C8 1_555 1_555
C20 H25 1_555 1_555
C21 C20 1_555 1_555
H26 C21 1_555 1_555
C22 C21 1_555 1_555
H27 C22 1_555 1_555
C23 C22 1_555 1_555
H28 C23 1_555 1_555
C24 C23 1_555 1_555
H29 C24 1_555 1_555
C25 C20 1_555 1_555
O7 H30 1_555 1_555
C26 H31 1_555 1_555
H32 C26 1_555 1_555
C27 C25 1_555 1_555
H33 C27 1_555 1_555
C28 C26 1_555 1_555
H34 C28 1_555 1_555
H35 C28 1_555 1_555
H36 C28 1_555 1_555
Cu1A N3 1_555 1_555
Cu1C O6 1_555 1_555
Cu2B O1 1_555 1_555
N3A Cu1 1_555 1_555
O1B Cu2 1_555 1_555
O6C Cu1 1_555 1_555
N5 N6 1_555 1_555
C1 O2 1_555 1_555
C4 O4 1_555 1_555
C5 O3 1_555 1_555
C8 O5 1_555 1_555
C9 C10 1_555 1_555
C11 C12 1_555 1_555
C15 C16 1_555 1_555
C16 C17 1_555 1_555
C17 C18 1_555 1_555
C24 C25 1_555 1_555
O7 C27 1_555 1_555
C26 C27 1_555 1_555

#END
