
#######################################################################
#
#                 Cambridge Crystallographic Data Centre
#                                CCDC 
#
#######################################################################
#
# If this CIF has been generated from an entry in the Cambridge 
# Structural Database, then it will include bibliographic, chemical, 
# crystal, experimental, refinement or atomic coordinate data resulting 
# from the CCDC's data processing and validation procedures.
#
#######################################################################

data_PIZREX
_symmetry_cell_setting           orthorhombic
_symmetry_space_group_name_H-M   'P 21 21 21'
_symmetry_Int_Tables_number      19
_space_group_name_Hall           'P 2ac 2ab'
loop_
_symmetry_equiv_pos_site_id
_symmetry_equiv_pos_as_xyz
1 x,y,z
2 1/2-x,-y,1/2+z
3 1/2+x,1/2-y,-z
4 -x,1/2+y,1/2-z
_cell_length_a                   13.4134(5)
_cell_length_b                   14.0452(6)
_cell_length_c                   16.3011(8)
_cell_angle_alpha                90
_cell_angle_beta                 90
_cell_angle_gamma                90
_cell_volume                     3071.03
loop_
_atom_site_label
_atom_site_type_symbol
_atom_site_fract_x
_atom_site_fract_y
_atom_site_fract_z
Cu1 Cu 0.93567(5) 0.53951(5) 0.08688(4)
Cu2 Cu 1.20969(5) 0.79229(5) 0.16027(4)
N1 N 1.3083(4) 0.8022(4) 0.2484(4)
O1 O 1.2914(3) 0.8527(3) 0.0710(3)
O2 O 1.0178(4) 0.6389(4) 0.0276(3)
C1 C 1.0707(5) 0.6846(4) 0.0788(4)
O3 O 1.1208(4) 0.6989(4) 0.2202(3)
O4 O 0.8807(3) 0.4511(3) 0.1720(3)
C2 C 1.4384(5) 0.7878(4) 0.3345(4)
N2 N 1.5734(4) 0.5491(4) 0.4933(3)
N3 N 1.2840(4) 0.8365(4) 0.3228(3)
H1 H 1.2269 0.8605 0.3348
O5 O 1.2888(4) 0.8877(4) -0.0626(3)
C3 C 1.0612(5) 0.6587(5) 0.1694(4)
C4 C 0.9015(5) 0.4708(5) 0.2466(4)
N4 N 1.6012(4) 0.5185(4) 0.4182(3)
H2 H 1.6213 0.4615 0.4081
O6 O 0.8698(4) 0.4279(4) 0.3071(3)
C5 C 1.2528(5) 0.8498(5) -0.0012(4)
N5 N 0.9935(5) 0.5965(4) 0.1825(3)
C6 C 1.1503(5) 0.8019(5) -0.0088(4)
H3 H 1.1505 0.7560 -0.0541
N6 N 1.1318(4) 0.7540(4) 0.0679(3)
C7 C 1.0696(6) 0.8792(7) -0.0234(5)
H4 H 1.0055 0.8494 -0.0286
H5 H 1.0846 0.9135 -0.0728
H6 H 1.0687 0.9225 0.0222
C8 C 1.5427(5) 0.7657(5) 0.3647(5)
H7 H 1.5884 0.7741 0.3191
H8 H 1.5602 0.8125 0.4060
C9 C 1.4037(5) 0.7729(5) 0.2543(4)
C10 C 1.3595(5) 0.8287(5) 0.3758(4)
C11 C 1.5598(4) 0.6671(5) 0.4008(4)
C12 C 1.5477(5) 0.6403(5) 0.4831(4)
C13 C 1.5942(5) 0.5863(6) 0.3616(4)
C14 C 1.5138(9) 0.6978(7) 0.5538(5)
H9 H 1.5138 0.6591 0.6024
H10 H 1.4475 0.7208 0.5436
H11 H 1.5580 0.7508 0.5614
C15 C 1.4536(7) 0.7326(8) 0.1808(5)
H12 H 1.4081 0.7330 0.1354
H13 H 1.4741 0.6684 0.1920
H14 H 1.5110 0.7704 0.1675
C16 C 1.3467(8) 0.8659(7) 0.4609(5)
H15 H 1.2796 0.8884 0.4679
H16 H 1.3924 0.9174 0.4700
H17 H 1.3597 0.8159 0.4996
C17 C 1.6243(10) 0.5635(9) 0.2746(6)
H18 H 1.6444 0.4981 0.2711
H19 H 1.6788 0.6038 0.2586
H20 H 1.5687 0.5743 0.2386
C18 C 0.9644(7) 0.5594(7) 0.2616(5)
H21 H 1.0263 0.5393 0.2912
C19 C 0.9113(12) 0.6307(13) 0.3114(10)
H22 H 0.9535 0.6851 0.3195
H23 H 0.8943 0.6035 0.3636
H24 H 0.8516 0.6499 0.2834
Cu1A Cu 1.56433(5) 0.46049(5) 0.58688(4)
Cu1B Cu 1.43567(5) 0.96049(5) -0.08688(4)
Cu2C Cu 0.79031(5) 0.29229(5) 0.33973(4)
N2A N 0.9266(4) 0.4509(4) -0.0067(3)
O5B O 0.7888(4) 0.6123(4) 0.0626(3)
O6C O 1.1302(4) 0.9279(4) 0.1929(3)
loop_
_geom_bond_atom_site_label_1
_geom_bond_atom_site_label_2
_geom_bond_site_symmetry_1
_geom_bond_site_symmetry_2
Cu1 O2 1_555 1_555
Cu2 N1 1_555 1_555
N1 N3 1_555 1_555
O1 Cu2 1_555 1_555
O2 C1 1_555 1_555
C1 C3 1_555 1_555
O3 Cu2 1_555 1_555
O4 Cu1 1_555 1_555
C2 C8 1_555 1_555
N2 N4 1_555 1_555
N3 H1 1_555 1_555
O5 C5 1_555 1_555
C3 O3 1_555 1_555
C4 O4 1_555 1_555
N4 H2 1_555 1_555
O6 C4 1_555 1_555
C5 O1 1_555 1_555
N5 Cu1 1_555 1_555
C6 C5 1_555 1_555
H3 C6 1_555 1_555
N6 Cu2 1_555 1_555
C7 C6 1_555 1_555
H4 C7 1_555 1_555
H5 C7 1_555 1_555
H6 C7 1_555 1_555
C8 H7 1_555 1_555
H8 C8 1_555 1_555
C9 N1 1_555 1_555
C10 C2 1_555 1_555
C11 C8 1_555 1_555
C12 N2 1_555 1_555
C13 N4 1_555 1_555
C14 C12 1_555 1_555
H9 C14 1_555 1_555
H10 C14 1_555 1_555
H11 C14 1_555 1_555
C15 C9 1_555 1_555
H12 C15 1_555 1_555
H13 C15 1_555 1_555
H14 C15 1_555 1_555
C16 C10 1_555 1_555
H15 C16 1_555 1_555
H16 C16 1_555 1_555
H17 C16 1_555 1_555
C17 C13 1_555 1_555
H18 C17 1_555 1_555
H19 C17 1_555 1_555
H20 C17 1_555 1_555
C18 C4 1_555 1_555
H21 C18 1_555 1_555
C19 C18 1_555 1_555
H22 C19 1_555 1_555
H23 C19 1_555 1_555
H24 C19 1_555 1_555
Cu1A N2 1_555 1_555
Cu1B O5 1_555 1_555
Cu2C O6 1_555 1_555
N2A Cu1 1_555 1_555
O5B Cu1 1_555 1_555
O6C Cu2 1_555 1_555
C1 N6 1_555 1_555
C2 C9 1_555 1_555
N3 C10 1_555 1_555
C3 N5 1_555 1_555
N5 C18 1_555 1_555
C6 N6 1_555 1_555
C11 C12 1_555 1_555
C11 C13 1_555 1_555

#END
