
#######################################################################
#
#                 Cambridge Crystallographic Data Centre
#                                CCDC 
#
#######################################################################
#
# If this CIF has been generated from an entry in the Cambridge 
# Structural Database, then it will include bibliographic, chemical, 
# crystal, experimental, refinement or atomic coordinate data resulting 
# from the CCDC's data processing and validation procedures.
#
#######################################################################

data_PIZRUN
_symmetry_cell_setting           orthorhombic
_symmetry_space_group_name_H-M   'P 21 21 21'
_symmetry_Int_Tables_number      19
_space_group_name_Hall           'P 2ac 2ab'
loop_
_symmetry_equiv_pos_site_id
_symmetry_equiv_pos_as_xyz
1 x,y,z
2 1/2-x,-y,1/2+z
3 1/2+x,1/2-y,-z
4 -x,1/2+y,1/2-z
_cell_length_a                   13.041(3)
_cell_length_b                   14.411(4)
_cell_length_c                   16.307(4)
_cell_angle_alpha                90
_cell_angle_beta                 90
_cell_angle_gamma                90
_cell_volume                     3064.64
loop_
_atom_site_label
_atom_site_type_symbol
_atom_site_fract_x
_atom_site_fract_y
_atom_site_fract_z
Cu1 Cu 0.44018(5) 0.03698(4) 0.91402(4)
O1 O 0.7909(3) 0.3573(3) 0.9287(2)
O2 O 0.7877(4) 0.3924(3) 1.0625(2)
O3 O 0.6263(4) 0.1972(3) 0.7802(2)
O4 O 0.5207(3) 0.1373(3) 0.9734(2)
O5 O 0.3792(4) -0.0785(3) 0.6954(2)
O6 O 0.3865(3) -0.0511(3) 0.8293(2)
C1 C 0.7510(5) 0.3545(4) 1.0019(3)
C2 C 0.6473(5) 0.3047(4) 1.0093(3)
H1 H 0.6487 0.2607 1.0552
C3 C 0.5623(5) 0.3767(5) 1.0220(4)
H2 H 0.4975 0.3456 1.0270
H3 H 0.5604 0.4180 0.9758
H4 H 0.5758 0.4115 1.0710
C4 C 0.5720(4) 0.1841(4) 0.9212(3)
C5 C 0.5671(5) 0.1563(4) 0.8310(3)
C6 C 0.4799(5) 0.0492(5) 0.7400(3)
H5 H 0.5444 0.0278 0.7157
C7 C 0.4288(9) 0.1167(6) 0.6809(5)
H6 H 0.4733 0.1687 0.6716
H7 H 0.3653 0.1380 0.7039
H8 H 0.4155 0.0859 0.6297
C8 C 0.4113(4) -0.0341(4) 0.7544(3)
C9 C 0.6494(7) -0.3715(6) 1.0383(4)
H9 H 0.7165 -0.3983 1.0330
H10 H 0.6416 -0.3222 0.9992
H11 H 0.5985 -0.4182 1.0284
C10 C 0.6362(5) -0.3329(4) 1.1249(3)
C11 C 0.5569(4) -0.2890(3) 1.1642(3)
C12 C 0.5921(5) -0.2752(4) 1.2445(3)
C13 C 0.5388(7) -0.2342(8) 1.3163(4)
H12 H 0.5836 -0.2356 1.3631
H13 H 0.4780 -0.2694 1.3280
H14 H 0.5204 -0.1712 1.3043
C14 C 0.4975(7) -0.1934(5) 0.9491(4)
H15 H 0.5009 -0.1551 0.9011
H16 H 0.4536 -0.2455 0.9387
H17 H 0.5650 -0.2151 0.9627
C15 C 0.4560(5) -0.1386(4) 1.0184(3)
C16 C 0.4371(4) -0.1672(4) 1.0993(3)
C17 C 0.4508(5) -0.2642(4) 1.1332(4)
H18 H 0.4324 -0.3081 1.0906
H19 H 0.4026 -0.2724 1.1779
C18 C 0.3990(6) -0.0900(5) 1.1383(3)
C19 C 0.3648(8) -0.0713(7) 1.2250(4)
H20 H 0.3433 -0.0078 1.2298
H21 H 0.4208 -0.0826 1.2619
H22 H 0.3086 -0.1115 1.2386
N1 N 0.6307(4) 0.2555(3) 0.9322(3)
N2 N 0.5018(4) 0.0918(3) 0.8185(3)
N3 N 0.6887(4) -0.3067(3) 1.2516(3)
N4 N 0.7132(4) -0.3408(3) 1.1779(3)
H23 H 0.7717 -0.3650 1.1662
N5 N 0.3974(4) -0.0204(3) 1.0830(3)
H24 H 0.3776 0.0352 1.0935
N6 N 0.4307(4) -0.0490(3) 1.0093(3)
Cu2 Cu 0.70991(5) 0.29449(4) 0.83967(4)
Cu1B Cu 0.94018(5) 0.46302(4) 1.08598(4)
O2B O 0.2877(4) 0.1076(3) 0.9375(2)
O5C O 0.6208(4) 0.4215(3) 0.8046(2)
N3A N 0.8113(4) 0.3067(3) 0.7516(3)
Cu2A Cu 0.79009(5) -0.29449(4) 1.33967(4)
Cu2C Cu 0.29009(5) -0.20551(4) 0.66033(4)
O7 O 0.6906(8) -0.0002(8) 1.0038(6)
H25 H 0.6411 0.0343 1.0092
C20 C 0.7918(10) 0.1041(9) 1.1268(10)
H26 H 0.8054 0.1190 1.0724
C21 C 0.8220(12) 0.1632(11) 1.1903(12)
H27 H 0.8563 0.2183 1.1792
C22 C 0.7995(15) 0.1380(16) 1.2699(12)
H28 H 0.8168 0.1790 1.3117
C23 C 0.7538(15) 0.0572(15) 1.2908(10)
H29 H 0.7445 0.0401 1.3452
C24 C 0.7214(12) 0.0007(11) 1.2260(9)
H30 H 0.6852 -0.0534 1.2375
C25 C 0.7415(8) 0.0230(8) 1.1468(7)
C26 C 0.7119(10) -0.0467(10) 1.0820(8)
H31 H 0.6502 -0.0798 1.0999
C27 C 0.7960(12) -0.1160(10) 1.0663(10)
H32 H 0.7743 -0.1590 1.0248
H33 H 0.8110 -0.1490 1.1159
H34 H 0.8564 -0.0840 1.0480
loop_
_geom_bond_atom_site_label_1
_geom_bond_atom_site_label_2
_geom_bond_site_symmetry_1
_geom_bond_site_symmetry_2
Cu1 O4 1_555 1_555
O1 C1 1_555 1_555
O2 C1 1_555 1_555
O3 C5 1_555 1_555
O4 C4 1_555 1_555
O5 C8 1_555 1_555
O6 Cu1 1_555 1_555
C1 C2 1_555 1_555
C2 H1 1_555 1_555
C3 C2 1_555 1_555
H2 C3 1_555 1_555
H3 C3 1_555 1_555
H4 C3 1_555 1_555
C4 C5 1_555 1_555
C5 N2 1_555 1_555
C6 H5 1_555 1_555
C7 C6 1_555 1_555
H6 C7 1_555 1_555
H7 C7 1_555 1_555
H8 C7 1_555 1_555
C8 O6 1_555 1_555
C9 H9 1_555 1_555
H10 C9 1_555 1_555
H11 C9 1_555 1_555
C10 C9 1_555 1_555
C11 C10 1_555 1_555
C12 C11 1_555 1_555
C13 C12 1_555 1_555
H12 C13 1_555 1_555
H13 C13 1_555 1_555
H14 C13 1_555 1_555
C14 H15 1_555 1_555
H16 C14 1_555 1_555
H17 C14 1_555 1_555
C15 C14 1_555 1_555
C16 C15 1_555 1_555
C17 C11 1_555 1_555
H18 C17 1_555 1_555
H19 C17 1_555 1_555
C18 C16 1_555 1_555
C19 C18 1_555 1_555
H20 C19 1_555 1_555
H21 C19 1_555 1_555
H22 C19 1_555 1_555
N1 C2 1_555 1_555
N2 Cu1 1_555 1_555
N3 C12 1_555 1_555
N4 C10 1_555 1_555
H23 N4 1_555 1_555
N5 C18 1_555 1_555
H24 N5 1_555 1_555
N6 Cu1 1_555 1_555
Cu2 O1 1_555 1_555
O7 H25 1_555 1_555
C20 H26 1_555 1_555
C21 C20 1_555 1_555
H27 C21 1_555 1_555
C22 C21 1_555 1_555
H28 C22 1_555 1_555
C23 C22 1_555 1_555
H29 C23 1_555 1_555
C24 C23 1_555 1_555
H30 C24 1_555 1_555
C25 C20 1_555 1_555
C26 O7 1_555 1_555
H31 C26 1_555 1_555
C27 C26 1_555 1_555
H32 C27 1_555 1_555
H33 C27 1_555 1_555
H34 C27 1_555 1_555
Cu1B O2 1_555 1_555
O2B Cu1 1_555 1_555
O5C Cu2 1_555 1_555
N3A Cu2 1_555 1_555
Cu2A N3 1_555 1_555
Cu2C O5 1_555 1_555
O3 Cu2 1_555 1_555
C4 N1 1_555 1_555
C6 C8 1_555 1_555
C6 N2 1_555 1_555
C15 N6 1_555 1_555
C16 C17 1_555 1_555
N1 Cu2 1_555 1_555
N3 N4 1_555 1_555
N5 N6 1_555 1_555
C24 C25 1_555 1_555
C25 C26 1_555 1_555

#END
