
#######################################################################
#
#                 Cambridge Crystallographic Data Centre
#                                CCDC 
#
#######################################################################
#
# If this CIF has been generated from an entry in the Cambridge 
# Structural Database, then it will include bibliographic, chemical, 
# crystal, experimental, refinement or atomic coordinate data resulting 
# from the CCDC's data processing and validation procedures.
#
#######################################################################

data_PIZZII
_symmetry_cell_setting           monoclinic
_symmetry_space_group_name_H-M   'C 2/c'
_symmetry_Int_Tables_number      15
_space_group_name_Hall           '-C 2yn'
loop_
_symmetry_equiv_pos_site_id
_symmetry_equiv_pos_as_xyz
1 x,y,z
2 1/2+x,1/2+y,z
3 -x,y,1/2-z
4 1/2-x,1/2+y,1/2-z
5 -x,-y,-z
6 1/2-x,1/2-y,-z
7 x,-y,1/2+z
8 1/2+x,1/2-y,1/2+z
_cell_length_a                   26.2718(9)
_cell_length_b                   16.0042(6)
_cell_length_c                   7.6441(3)
_cell_angle_alpha                90
_cell_angle_beta                 93.389(2)
_cell_angle_gamma                90
_cell_volume                     3208.41
loop_
_atom_site_label
_atom_site_type_symbol
_atom_site_fract_x
_atom_site_fract_y
_atom_site_fract_z
Dy1 Dy 0.178221(4) 0.462717(7) 1.034236(13)
C1 C 0.18211(10) 0.33545(16) 0.6848(3)
O1 O 0.18405(8) 0.35392(12) 0.8437(2)
C2 C 0.18322(11) 0.24320(16) 0.6402(3)
H1 H 0.2153 0.2199 0.6865
H2 H 0.1820 0.2372 0.5137
C3 C 0.13970(10) 0.19279(16) 0.7111(3)
C4 C 0.14083(10) 0.10589(18) 0.6974(4)
C5 C 0.09908(11) 0.2306(2) 0.7894(4)
H3 H 0.0977 0.2886 0.7968
C6 C 0.23052(10) 0.05135(15) 0.7430(3)
C7 C 0.18441(11) 0.06124(17) 0.6172(4)
H4 H 0.1729 0.0064 0.5779
H5 H 0.1941 0.0922 0.5154
C8 C 0.06084(13) 0.1831(3) 0.8563(5)
H6 H 0.0340 0.2090 0.9089
O2 O 0.12722(7) 0.51233(12) 0.7873(2)
O3 O 0.18024(10) 0.33735(12) 1.2123(2)
O4 O 0.26996(7) 0.01308(12) 0.6911(2)
O5 O 0.23136(7) 0.07876(13) 0.8951(2)
C9 C 0.10186(13) 0.0587(2) 0.7651(5)
H7 H 0.1025 0.0008 0.7561
C10 C 0.06253(14) 0.0972(3) 0.8452(5)
H8 H 0.0371 0.0652 0.8917
O6 O 0.08848(8) 0.58128(15) 0.5716(3)
C11 C 0.02398(10) 0.66682(19) 0.7968(3)
C12 C 0.05166(12) 0.5887(2) 0.8519(4)
H9 H 0.0269 0.5445 0.8646
H10 H 0.0689 0.5979 0.9659
H11 H 0.1781 0.2835 1.1910
H12 H 0.1823 0.3424 1.3255
C13 C 0.09028(10) 0.55975(18) 0.7268(3)
C14 C 0.04647(13) 0.7443(2) 0.8386(5)
H13 H 0.0784 0.7453 0.8979
C15 C 0.02323(16) 0.8181(2) 0.7954(6)
H14 H 0.0389 0.8683 0.8275
O8 O 0.17969(8) 0.38736(12) 0.5600(2)
Dy1E Dy 0.321779(4) 0.037283(7) 0.965764(13)
Dy1F Dy 0.178221(4) 0.537283(7) 0.534236(13)
Dy1C Dy 0.321779(4) -0.037283(7) 0.465764(13)
Dy1D Dy -0.178221(4) 0.537283(7) 0.965764(13)
Dy1B Dy -0.178221(4) 0.462717(7) 0.465764(13)
Dy1F_2 Dy 0.178221(4) 0.537283(7) 1.534236(13)
Dy1C_2 Dy 0.321779(4) -0.037283(7) 1.465764(13)
C1E C 0.31789(10) 0.16455(16) 1.3152(3)
O1E O 0.31595(8) 0.14608(12) 1.1563(2)
C2E C 0.31678(11) 0.25680(16) 1.3598(3)
H1E H 0.2847 0.2801 1.3135
H2E H 0.3180 0.2628 1.4863
C3E C 0.36030(10) 0.30721(16) 1.2889(3)
C4E C 0.35917(10) 0.39411(18) 1.3026(4)
C5E C 0.40092(11) 0.2694(2) 1.2106(4)
H3E H 0.4023 0.2114 1.2032
C6E C 0.26948(10) 0.44865(15) 1.2570(3)
C7E C 0.31559(11) 0.43876(17) 1.3828(4)
H4E H 0.3271 0.4936 1.4221
H5E H 0.3059 0.4078 1.4846
C8E C 0.43916(13) 0.3169(3) 1.1437(5)
H6E H 0.4660 0.2910 1.0911
O2B O -0.12722(7) 0.51233(12) 0.7127(2)
O2F O 0.12722(7) 0.48767(12) 1.2873(2)
O2E O 0.37278(7) -0.01233(12) 1.2127(2)
O2C O 0.37278(7) 0.01233(12) 0.7127(2)
O3E O 0.31976(10) 0.16265(12) 0.7877(2)
O4E O 0.23004(7) 0.48692(12) 1.3089(2)
O4C O 0.23004(7) 0.51308(12) 0.8089(2)
O4F O 0.26996(7) -0.01308(12) 1.1911(2)
O5E O 0.26864(7) 0.42124(13) 1.1049(2)
C9E C 0.39814(13) 0.4413(2) 1.2349(5)
H7E H 0.3975 0.4992 1.2439
C10E C 0.43747(14) 0.4028(3) 1.1548(5)
H8E H 0.4629 0.4348 1.1083
O6B O -0.08848(8) 0.58128(15) 0.9284(3)
O6F O 0.08848(8) 0.41872(15) 1.0716(3)
O6C O 0.41152(8) 0.08128(15) 0.9284(3)
C11B C -0.02398(10) 0.66682(19) 0.7032(3)
C12B C -0.05166(12) 0.5887(2) 0.6481(4)
H9B H -0.0269 0.5445 0.6354
H10B H -0.0689 0.5979 0.5341
H11E H 0.3219 0.2165 0.8090
H12E H 0.3177 0.1576 0.6745
C13B C -0.09028(10) 0.55975(18) 0.7732(3)
C14B C -0.04647(13) 0.7443(2) 0.6614(5)
H13B H -0.0784 0.7453 0.6021
C15B C -0.02323(16) 0.8181(2) 0.7046(6)
H14B H -0.0389 0.8683 0.6725
O8E O 0.32031(8) 0.11264(12) 1.4400(2)
O8F O 0.17969(8) 0.61264(12) 1.0600(2)
O8C O 0.32031(8) -0.11264(12) 0.9400(2)
O7 O 0.17404(18) 0.16798(18) 0.1475(4)
H15 H 0.157(3) 0.190(6) 0.088(10)
H16 H 0.1979(16) 0.159(5) 0.111(10)
loop_
_geom_bond_atom_site_label_1
_geom_bond_atom_site_label_2
_geom_bond_site_symmetry_1
_geom_bond_site_symmetry_2
Dy1 O1 1_555 1_555
C1 O1 1_555 1_555
C2 C1 1_555 1_555
H1 C2 1_555 1_555
H2 C2 1_555 1_555
C3 C2 1_555 1_555
C4 C3 1_555 1_555
C5 C3 1_555 1_555
H3 C5 1_555 1_555
C6 C7 1_555 1_555
C7 C4 1_555 1_555
H4 C7 1_555 1_555
H5 C7 1_555 1_555
C8 C5 1_555 1_555
H6 C8 1_555 1_555
O2 Dy1 1_555 1_555
O3 Dy1 1_555 1_555
O4 C6 1_555 1_555
O5 C6 1_555 1_555
C9 C4 1_555 1_555
H7 C9 1_555 1_555
C10 C8 1_555 1_555
H8 C10 1_555 1_555
O6 C13 1_555 1_555
C11 C12 1_555 1_555
C12 H9 1_555 1_555
H10 C12 1_555 1_555
H11 O3 1_555 1_555
H12 O3 1_555 1_555
C13 O2 1_555 1_555
C14 C11 1_555 1_555
H13 C14 1_555 1_555
C15 C14 1_555 1_555
H14 C15 1_555 1_555
O7 H15 1_555 1_555
O8 C1 1_555 1_555
H16 O7 1_555 1_555
Dy1E O4 1_555 1_555
Dy1F O2 1_555 1_555
Dy1C O4 1_555 1_555
Dy1D O2B 1_555 1_555
Dy1B O2B 1_555 1_555
Dy1F_2 O2F 1_555 1_555
Dy1C_2 O2E 1_555 1_555
C1E O1E 1_555 1_555
O1E Dy1E 1_555 1_555
C2E C1E 1_555 1_555
H1E C2E 1_555 1_555
H2E C2E 1_555 1_555
C3E C2E 1_555 1_555
C4E C3E 1_555 1_555
C5E C3E 1_555 1_555
H3E C5E 1_555 1_555
C6E C7E 1_555 1_555
C7E C4E 1_555 1_555
H4E C7E 1_555 1_555
H5E C7E 1_555 1_555
C8E C5E 1_555 1_555
H6E C8E 1_555 1_555
O2B C13B 1_555 1_555
O2F Dy1 1_555 1_555
O2E Dy1E 1_555 1_555
O2C Dy1E 1_555 1_555
O3E Dy1E 1_555 1_555
O4E Dy1 1_555 1_555
O4C Dy1 1_555 1_555
O4F Dy1E 1_555 1_555
O5E Dy1 1_555 1_555
C9E C4E 1_555 1_555
H7E C9E 1_555 1_555
C10E C8E 1_555 1_555
H8E C10E 1_555 1_555
O6B Dy1D 1_555 1_555
O6F Dy1 1_555 1_555
O6C Dy1E 1_555 1_555
C11B C11 1_555 1_555
C12B C11B 1_555 1_555
H9B C12B 1_555 1_555
H10B C12B 1_555 1_555
H11E O3E 1_555 1_555
H12E O3E 1_555 1_555
C13B O6B 1_555 1_555
C14B C11B 1_555 1_555
H13B C14B 1_555 1_555
C15B C15 1_555 1_555
H14B C15B 1_555 1_555
O8E Dy1C_2 1_555 1_555
O8F Dy1 1_555 1_555
O8C Dy1E 1_555 1_555
O5 Dy1E 1_555 1_555
C9 C10 1_555 1_555
O6 Dy1F 1_555 1_555
C12 C13 1_555 1_555
O8 Dy1F 1_555 1_555
Dy1F O4C 1_555 1_555
Dy1C O2C 1_555 1_555
Dy1F_2 O4E 1_555 1_555
Dy1C_2 O4F 1_555 1_555
C1E O8E 1_555 1_555
C6E O4E 1_555 1_555
C6E O5E 1_555 1_555
C9E C10E 1_555 1_555
C12B C13B 1_555 1_555
C14B C15B 1_555 1_555

#END
