
#######################################################################
#
#                 Cambridge Crystallographic Data Centre
#                                CCDC 
#
#######################################################################
#
# If this CIF has been generated from an entry in the Cambridge 
# Structural Database, then it will include bibliographic, chemical, 
# crystal, experimental, refinement or atomic coordinate data resulting 
# from the CCDC's data processing and validation procedures.
#
#######################################################################

data_PMDSCU20
_symmetry_cell_setting           monoclinic
_symmetry_space_group_name_H-M   'C 2/m'
_symmetry_Int_Tables_number      12
_space_group_name_Hall           '-C 2y'
loop_
_symmetry_equiv_pos_site_id
_symmetry_equiv_pos_as_xyz
1 x,y,z
2 1/2+x,1/2+y,z
3 -x,y,-z
4 1/2-x,1/2+y,-z
5 -x,-y,-z
6 1/2-x,1/2-y,-z
7 x,-y,z
8 1/2+x,1/2-y,z
_cell_length_a                   11.916(3)
_cell_length_b                   17.405(4)
_cell_length_c                   6.642(2)
_cell_angle_alpha                90
_cell_angle_beta                 116.58(2)
_cell_angle_gamma                90
_cell_volume                     1231.95
loop_
_atom_site_label
_atom_site_type_symbol
_atom_site_fract_x
_atom_site_fract_y
_atom_site_fract_z
Cu1 Cu 0.00000 0.09499 0.00000
Cl1 Cl 0.10150 0.00000 -0.14020
N1 N 0.14680 0.13160 0.26930
C1 C 0.18310 0.10280 0.47720
C2 C 0.30030 0.11770 0.64980
C3 C 0.37780 0.16470 0.60220
N2 N 0.34340 0.19620 0.39910
C4 C 0.23000 0.17790 0.24390
S1 S 0.17167 0.21485 -0.03100
H1 H 0.12740 0.07060 0.50200
H2 H 0.32220 0.10090 0.78220
H3 H 0.45840 0.17090 0.70060
Cl1B Cl -0.10150 0.00000 0.14020
N1B N -0.14680 0.13160 -0.26930
Cu1D Cu 0.00000 -0.09499 0.00000
S1E S 0.32833 0.28515 0.03100
C1B C -0.18310 0.10280 -0.47720
C4B C -0.23000 0.17790 -0.24390
N1D N -0.14680 -0.13160 -0.26930
N1F N 0.14680 -0.13160 0.26930
C4E C 0.27000 0.32210 -0.24390
C2B C -0.30030 0.11770 -0.64980
H1B H -0.12740 0.07060 -0.50200
N2B N -0.34340 0.19620 -0.39910
S1B S -0.17167 0.21485 0.03100
C1D C -0.18310 -0.10280 -0.47720
C4D C -0.23000 -0.17790 -0.24390
C1F C 0.18310 -0.10280 0.47720
C4F C 0.23000 -0.17790 0.24390
N1E N 0.35320 0.36840 -0.26930
N2E N 0.15660 0.30380 -0.39910
C3B C -0.37780 0.16470 -0.60220
H2B H -0.32220 0.10090 -0.78220
S1G S -0.32833 0.28515 -0.03100
C2D C -0.30030 -0.11770 -0.64980
H1D H -0.12740 -0.07060 -0.50200
N2D N -0.34340 -0.19620 -0.39910
S1D S -0.17167 -0.21485 0.03100
C2F C 0.30030 -0.11770 0.64980
H1F H 0.12740 -0.07060 0.50200
N2F N 0.34340 -0.19620 0.39910
S1F S 0.17167 -0.21485 -0.03100
Cu1E Cu 0.50000 0.40501 0.00000
C1E C 0.31690 0.39720 -0.47720
C3E C 0.12220 0.33530 -0.60220
H3B H -0.45840 0.17090 -0.70060
C4G C -0.27000 0.32210 0.24390
C3D C -0.37780 -0.16470 -0.60220
H2D H -0.32220 -0.10090 -0.78220
S1A S -0.32833 -0.28515 -0.03100
C3F C 0.37780 -0.16470 0.60220
H2F H 0.32220 -0.10090 0.78220
S1C S 0.32833 -0.28515 0.03100
Cl1A Cl 0.60150 0.50000 -0.14020
Cl1C Cl 0.39850 0.50000 0.14020
N1G N 0.64680 0.36840 0.26930
C2E C 0.19970 0.38230 -0.64980
H1E H 0.37260 0.42940 -0.50200
H3E H 0.04160 0.32910 -0.70060
N1G_2 N -0.35320 0.36840 0.26930
N2G N -0.15660 0.30380 0.39910
H3D H -0.45840 -0.17090 -0.70060
C4A C -0.27000 -0.32210 0.24390
H3F H 0.45840 -0.17090 0.70060
C4C C 0.27000 -0.32210 -0.24390
Cu1A Cu 0.50000 0.59499 0.00000
H2E H 0.17780 0.39910 -0.78220
C3G C -0.12220 0.33530 0.60220
N1A N -0.35320 -0.36840 0.26930
N2A N -0.15660 -0.30380 0.39910
N1C N 0.35320 -0.36840 -0.26930
N2C N 0.15660 -0.30380 -0.39910
N1A_2 N 0.64680 0.63160 0.26930
N1C_2 N 0.35320 0.63160 -0.26930
C2G C -0.19970 0.38230 0.64980
H3G H -0.04160 0.32910 0.70060
Cu1A_2 Cu -0.50000 -0.40501 0.00000
C1A C -0.31690 -0.39720 0.47720
C3A C -0.12220 -0.33530 0.60220
Cu1A_3 Cu 0.50000 -0.40501 0.00000
C1C C 0.31690 -0.39720 -0.47720
C3C C 0.12220 -0.33530 -0.60220
C2A C -0.19970 -0.38230 0.64980
H1A H -0.37260 -0.42940 0.50200
H3A H -0.04160 -0.32910 0.70060
C2C C 0.19970 -0.38230 -0.64980
H1C H 0.37260 -0.42940 -0.50200
H3C H 0.04160 -0.32910 -0.70060
H2A H -0.17780 -0.39910 0.78220
H2C H 0.17780 -0.39910 -0.78220
Cu1E_2 Cu -0.50000 0.40501 0.00000
C1G C -0.31690 0.39720 0.47720
H2G H -0.17780 0.39910 0.78220
H1G H -0.37260 0.42940 0.50200
O1 O 0.40250 0.00000 0.21730
loop_
_geom_bond_atom_site_label_1
_geom_bond_atom_site_label_2
_geom_bond_site_symmetry_1
_geom_bond_site_symmetry_2
Cu1 Cl1 1_555 1_555
Cl1 Cu1D 1_555 1_555
N1 Cu1 1_555 1_555
C1 N1 1_555 1_555
C2 C1 1_555 1_555
C3 C2 1_555 1_555
N2 C3 1_555 1_555
C4 N1 1_555 1_555
S1 C4 1_555 1_555
H1 C1 1_555 1_555
H2 C2 1_555 1_555
H3 C3 1_555 1_555
Cl1B Cu1 1_555 1_555
N1B Cu1 1_555 1_555
Cu1D Cl1B 1_555 1_555
S1E S1 1_555 1_555
C1B N1B 1_555 1_555
C4B N1B 1_555 1_555
N1D Cu1D 1_555 1_555
N1F Cu1D 1_555 1_555
C4E S1E 1_555 1_555
C2B C1B 1_555 1_555
H1B C1B 1_555 1_555
N2B C4B 1_555 1_555
S1B C4B 1_555 1_555
C1D N1D 1_555 1_555
C4D N1D 1_555 1_555
C1F N1F 1_555 1_555
C4F N1F 1_555 1_555
N1E C4E 1_555 1_555
N2E C4E 1_555 1_555
C3B C2B 1_555 1_555
H2B C2B 1_555 1_555
S1G S1B 1_555 1_555
C2D C1D 1_555 1_555
H1D C1D 1_555 1_555
N2D C4D 1_555 1_555
S1D C4D 1_555 1_555
C2F C1F 1_555 1_555
H1F C1F 1_555 1_555
N2F C4F 1_555 1_555
S1F C4F 1_555 1_555
Cu1E N1E 1_555 1_555
C1E N1E 1_555 1_555
C3E N2E 1_555 1_555
H3B C3B 1_555 1_555
C4G S1G 1_555 1_555
C3D C2D 1_555 1_555
H2D C2D 1_555 1_555
S1A S1D 1_555 1_555
C3F C2F 1_555 1_555
H2F C2F 1_555 1_555
S1C S1F 1_555 1_555
Cl1A Cu1E 1_555 1_555
Cl1C Cu1E 1_555 1_555
N1G Cu1E 1_555 1_555
C2E C1E 1_555 1_555
H1E C1E 1_555 1_555
H3E C3E 1_555 1_555
N1G_2 C4G 1_555 1_555
N2G C4G 1_555 1_555
H3D C3D 1_555 1_555
C4A S1A 1_555 1_555
H3F C3F 1_555 1_555
C4C S1C 1_555 1_555
Cu1A Cl1A 1_555 1_555
H2E C2E 1_555 1_555
C3G N2G 1_555 1_555
N1A C4A 1_555 1_555
N2A C4A 1_555 1_555
N1C C4C 1_555 1_555
N2C C4C 1_555 1_555
N1A_2 Cu1A 1_555 1_555
N1C_2 Cu1A 1_555 1_555
C2G C3G 1_555 1_555
H3G C3G 1_555 1_555
Cu1A_2 N1A 1_555 1_555
C1A N1A 1_555 1_555
C3A N2A 1_555 1_555
Cu1A_3 N1C 1_555 1_555
C1C N1C 1_555 1_555
C3C N2C 1_555 1_555
C2A C1A 1_555 1_555
H1A C1A 1_555 1_555
H3A C3A 1_555 1_555
C2C C1C 1_555 1_555
H1C C1C 1_555 1_555
H3C C3C 1_555 1_555
H2A C2A 1_555 1_555
H2C C2C 1_555 1_555
Cu1E_2 N1G_2 1_555 1_555
C1G N1G_2 1_555 1_555
H2G C2G 1_555 1_555
H1G C1G 1_555 1_555
N2 C4 1_555 1_555
N2B C3B 1_555 1_555
N2D C3D 1_555 1_555
N2F C3F 1_555 1_555
C3E C2E 1_555 1_555
Cl1C Cu1A 1_555 1_555
C2G C1G 1_555 1_555
C3A C2A 1_555 1_555
C3C C2C 1_555 1_555

#END
