
#######################################################################
#
#                 Cambridge Crystallographic Data Centre
#                                CCDC 
#
#######################################################################
#
# If this CIF has been generated from an entry in the Cambridge 
# Structural Database, then it will include bibliographic, chemical, 
# crystal, experimental, refinement or atomic coordinate data resulting 
# from the CCDC's data processing and validation procedures.
#
#######################################################################

data_POBBEP
_symmetry_cell_setting           orthorhombic
_symmetry_space_group_name_H-M   'P 21 21 21'
_symmetry_Int_Tables_number      19
_space_group_name_Hall           'P 2ac 2ab'
loop_
_symmetry_equiv_pos_site_id
_symmetry_equiv_pos_as_xyz
1 x,y,z
2 1/2-x,-y,1/2+z
3 -x,1/2+y,1/2-z
4 1/2+x,1/2-y,-z
_cell_length_a                   12.1527(9)
_cell_length_b                   25.226(2)
_cell_length_c                   27.992(2)
_cell_angle_alpha                90
_cell_angle_beta                 90
_cell_angle_gamma                90
_cell_volume                     8581.34
loop_
_atom_site_label
_atom_site_type_symbol
_atom_site_fract_x
_atom_site_fract_y
_atom_site_fract_z
W1 W 0.00157(11) 0.13875(5) -0.07094(4)
W2 W -0.13137(9) 0.07411(5) 0.01102(4)
W3 W 0.13302(10) 0.09515(5) 0.01946(4)
W4 W 0.23721(10) -0.05537(5) -0.13380(4)
W5 W -0.22961(10) -0.02191(5) -0.07780(4)
W6 W -0.09389(10) 0.04319(5) -0.16242(4)
W7 W -0.07800(10) -0.06824(5) 0.02844(4)
W8 W -0.05374(10) -0.08647(5) -0.14638(4)
W9 W 0.33749(9) 0.02735(5) -0.05499(4)
W10 W 0.19113(10) -0.04686(5) 0.04065(4)
W11 W 0.10296(10) -0.13208(5) -0.03987(4)
W12 W 0.20289(10) 0.06895(5) -0.14886(4)
Cu1 Cu -0.0260(3) 0.13249(14) 0.11696(12)
Cu2 Cu 0.2669(3) 0.17557(14) 0.11286(12)
Cu3 Cu 0.5036(3) -0.06471(15) -0.12526(12)
N1 N 0.012(2) 0.1708(10) 0.1751(8)
N2 N 0.0377(19) 0.0735(10) 0.1551(8)
N3 N -0.076(2) 0.2059(10) 0.0982(8)
N4 N 0.040(3) 0.2989(12) 0.3105(10)
N5 N 0.305(2) 0.2122(11) 0.1711(9)
N6 N 0.203(2) 0.2471(10) 0.0990(8)
N7 N 0.332(2) 0.1151(10) 0.1492(9)
N8 N 0.447(3) 0.2626(13) 0.3327(12)
N9 N 0.594(2) -0.1106(11) -0.1640(9)
N10 N 0.545(2) -0.0145(11) -0.1775(8)
N11 N 0.500(2) -0.1301(10) -0.0854(8)
N12 N 0.794(3) -0.1946(13) -0.2964(11)
O1 O 0.0575(15) 0.0504(8) -0.1724(6)
O2 O -0.0993(15) 0.0048(7) 0.0375(6)
O3 O -0.2333(15) 0.0222(8) -0.1328(6)
O4 O 0.0957(14) 0.1574(7) -0.0173(6)
O5 O 0.1502(14) 0.0269(7) 0.0471(6)
O6 O 0.2768(16) -0.0567(7) 0.0892(6)
O7 O 0.1016(14) -0.0723(7) -0.1591(6)
O8 O 0.4659(14) 0.0457(8) -0.0363(6)
O9 O -0.0698(17) -0.1389(8) -0.1840(6)
O10 O 0.3269(15) -0.0958(8) -0.1665(7)
O11 O -0.0845(14) 0.0988(7) -0.1161(6)
O12 O 0.3783(15) -0.0303(7) -0.0963(6)
O13 O 0.1921(15) 0.1328(7) 0.0663(6)
O14 O -0.1689(16) -0.0925(8) 0.0697(7)
O15 O 0.2533(14) 0.0806(7) -0.0185(6)
O16 O -0.1673(15) -0.0629(7) -0.0271(7)
O17 O 0.1263(14) 0.1164(7) -0.1062(6)
O18 O 0.0687(14) -0.0456(7) -0.0191(6)
O19 O -0.0217(15) 0.2033(8) -0.0913(6)
O20 O 0.2105(15) -0.1026(7) -0.0818(6)
O21 O 0.1308(18) -0.1982(8) -0.0453(7)
O22 O 0.2920(15) -0.0212(7) -0.0053(6)
O23 O 0.2508(17) 0.1106(8) -0.1929(6)
O24 O 0.3318(15) 0.0748(8) -0.1081(6)
O25 O -0.1962(15) -0.0810(8) -0.1200(7)
O26 O 0.1851(14) 0.0059(7) -0.0931(6)
O27 O -0.0527(14) -0.0102(7) -0.1001(6)
O28 O -0.0157(14) 0.1019(7) 0.0539(6)
O29 O 0.0530(15) -0.0647(7) 0.0686(6)
O30 O -0.0893(15) -0.0278(8) -0.1879(6)
O31 O -0.3673(16) -0.0347(8) -0.0705(7)
O32 O 0.2587(15) 0.0043(7) -0.1770(6)
O33 O -0.1456(17) 0.0772(8) -0.2103(7)
O34 O -0.2097(14) 0.0381(7) -0.0376(6)
O35 O 0.0016(16) -0.1215(7) -0.0919(6)
O36 O 0.2022(16) -0.1174(7) 0.0128(7)
O37 O -0.0199(15) -0.1356(7) 0.0035(6)
O38 O 0.0227(13) 0.0662(7) -0.0271(6)
O39 O -0.1257(15) 0.1364(7) -0.0275(6)
O40 O -0.2372(15) 0.0934(8) 0.0471(6)
O41 O -0.1968(19) 0.1071(10) 0.1456(7)
H1 H -0.2408 0.1043 0.1222
H2 H -0.2215 0.1311 0.1641
O42 O 0.4098(18) 0.1947(10) 0.0702(8)
H3 H 0.4549 0.1690 0.0686
H4 H 0.4424 0.2221 0.0809
C1 C 0.061(3) 0.1434(12) 0.2103(10)
C2 C 0.089(3) 0.1697(12) 0.2507(11)
H5 H 0.1262 0.1512 0.2743
C3 C 0.064(3) 0.2220(13) 0.2589(11)
C4 C 0.006(3) 0.2485(12) 0.2211(10)
H6 H -0.0171 0.2834 0.2251
C5 C -0.017(3) 0.2221(13) 0.1787(9)
C6 C 0.081(3) 0.0875(12) 0.1981(10)
C7 C 0.130(3) 0.0517(12) 0.2283(10)
H7 H 0.1597 0.0632 0.2572
C8 C 0.136(3) -0.0010(12) 0.2159(11)
H8 H 0.1689 -0.0254 0.2364
C9 C 0.093(2) -0.0170(11) 0.1730(10)
H9 H 0.0960 -0.0523 0.1634
C10 C 0.043(2) 0.0229(12) 0.1435(10)
H10 H 0.0135 0.0124 0.1145
C11 C -0.073(3) 0.2431(12) 0.1353(10)
C12 C -0.118(3) 0.2921(12) 0.1314(10)
H11 H -0.1170 0.3153 0.1572
C13 C -0.165(3) 0.3073(13) 0.0876(10)
H12 H -0.1940 0.3412 0.0837
C14 C -0.168(3) 0.2710(12) 0.0501(10)
H13 H -0.1981 0.2803 0.0208
C15 C -0.123(3) 0.2195(12) 0.0575(10)
H14 H -0.1265 0.1948 0.0329
C16 C 0.088(3) 0.2500(14) 0.3049(12)
C17 C 0.158(3) 0.2259(15) 0.3354(12)
H15 H 0.1892 0.1931 0.3287
C18 C 0.180(4) 0.2524(16) 0.3769(14)
H16 H 0.2320 0.2385 0.3979
C19 C 0.127(4) 0.2999(16) 0.3886(14)
H17 H 0.1366 0.3162 0.4181
C20 C 0.061(4) 0.3207(15) 0.3545(14)
H18 H 0.0272 0.3529 0.3615
C21 C 0.285(3) 0.2611(14) 0.1768(10)
C22 C 0.310(3) 0.2894(14) 0.2194(11)
H19 H 0.2918 0.3250 0.2227
C23 C 0.363(3) 0.2619(15) 0.2560(12)
C24 C 0.387(3) 0.2109(14) 0.2496(12)
H20 H 0.4240 0.1922 0.2734
C25 C 0.358(3) 0.1848(13) 0.2058(11)
C26 C 0.225(3) 0.2853(13) 0.1340(10)
C27 C 0.199(3) 0.3373(13) 0.1290(11)
H21 H 0.2138 0.3618 0.1529
C28 C 0.148(3) 0.3519(13) 0.0864(10)
H22 H 0.1317 0.3876 0.0822
C29 C 0.122(3) 0.3176(13) 0.0503(10)
H23 H 0.0865 0.3283 0.0224
C30 C 0.152(2) 0.2650(12) 0.0592(10)
H24 H 0.1350 0.2401 0.0358
C31 C 0.375(3) 0.1285(13) 0.1930(11)
C32 C 0.423(3) 0.0927(14) 0.2217(12)
H25 H 0.4435 0.1020 0.2525
C33 C 0.442(3) 0.0418(14) 0.2051(12)
H26 H 0.4852 0.0185 0.2228
C34 C 0.397(3) 0.0256(14) 0.1622(12)
H27 H 0.4009 -0.0093 0.1517
C35 C 0.344(3) 0.0646(13) 0.1358(11)
H28 H 0.3149 0.0548 0.1064
C36 C 0.388(4) 0.2906(16) 0.3014(13)
C37 C 0.356(4) 0.3393(17) 0.3056(14)
H29 H 0.3250 0.3575 0.2801
C38 C 0.370(4) 0.3627(18) 0.3488(16)
H30 H 0.3376 0.3953 0.3552
C39 C 0.433(4) 0.338(2) 0.3828(16)
H31 H 0.4476 0.3548 0.4117
C40 C 0.470(4) 0.2925(19) 0.3743(15)
H32 H 0.5161 0.2773 0.3970
C41 C 0.636(3) -0.0902(13) -0.2028(12)
C42 C 0.696(3) -0.1241(14) -0.2322(11)
H33 H 0.7216 -0.1112 -0.2612
C43 C 0.718(3) -0.1751(14) -0.2202(12)
C44 C 0.674(3) -0.1938(14) -0.1755(11)
H34 H 0.6865 -0.2286 -0.1660
C45 C 0.612(3) -0.1592(14) -0.1463(11)
C46 C 0.614(3) -0.0354(14) -0.2115(11)
C47 C 0.651(3) -0.0031(15) -0.2479(12)
H35 H 0.6966 -0.0182 -0.2710
C48 C 0.627(3) 0.0485(14) -0.2524(12)
H36 H 0.6547 0.0693 -0.2771
C49 C 0.562(3) 0.0673(15) -0.2192(12)
H37 H 0.5411 0.1027 -0.2209
C50 C 0.523(2) 0.0363(13) -0.1815(10)
H38 H 0.4798 0.0523 -0.1583
C51 C 0.561(3) -0.1709(13) -0.1005(11)
C52 C 0.576(3) -0.2160(15) -0.0763(12)
H39 H 0.6242 -0.2419 -0.0874
C53 C 0.517(3) -0.2231(16) -0.0331(12)
H40 H 0.5217 -0.2547 -0.0161
C54 C 0.455(3) -0.1839(14) -0.0176(13)
H41 H 0.4159 -0.1877 0.0108
C55 C 0.446(3) -0.1375(13) -0.0429(11)
H42 H 0.4026 -0.1103 -0.0309
C56 C 0.780(3) -0.2159(15) -0.2513(13)
C57 C 0.816(3) -0.2629(16) -0.2338(14)
H43 H 0.8038 -0.2745 -0.2027
C58 C 0.875(3) -0.2917(17) -0.2678(14)
H44 H 0.9028 -0.3243 -0.2583
C59 C 0.894(3) -0.2770(17) -0.3122(14)
H45 H 0.9327 -0.2978 -0.3338
C60 C 0.854(3) -0.2307(17) -0.3232(14)
H46 H 0.8669 -0.2201 -0.3545
Cu3_2 Cu -0.4964(3) -0.06471(15) -0.12526(12)
O31_2 O 0.6327(16) -0.0347(8) -0.0705(7)
O43 O 0.5296(19) 0.1073(9) 0.0462(9)
H47 H 0.5072 0.0896 0.0222
H48 H 0.5992 0.1042 0.0478
loop_
_geom_bond_atom_site_label_1
_geom_bond_atom_site_label_2
_geom_bond_site_symmetry_1
_geom_bond_site_symmetry_2
W1 W3 1_555 1_555
W2 O2 1_555 1_555
W3 O4 1_555 1_555
W4 O7 1_555 1_555
W5 O3 1_555 1_555
W6 O1 1_555 1_555
W7 O2 1_555 1_555
W8 O7 1_555 1_555
W9 O8 1_555 1_555
W10 O5 1_555 1_555
W11 O18 1_555 1_555
W12 O1 1_555 1_555
Cu1 N1 1_555 1_555
Cu2 N5 1_555 1_555
Cu3 N9 1_555 1_555
N1 C1 1_555 1_555
N2 Cu1 1_555 1_555
N3 Cu1 1_555 1_555
N4 C16 1_555 1_555
N5 C21 1_555 1_555
N6 Cu2 1_555 1_555
N7 Cu2 1_555 1_555
N8 C36 1_555 1_555
N9 C41 1_555 1_555
N10 Cu3 1_555 1_555
N11 Cu3 1_555 1_555
N12 C56 1_555 1_555
O3 W6 1_555 1_555
O4 W1 1_555 1_555
O5 W3 1_555 1_555
O6 W10 1_555 1_555
O9 W8 1_555 1_555
O10 W4 1_555 1_555
O11 W1 1_555 1_555
O12 W4 1_555 1_555
O13 W3 1_555 1_555
O14 W7 1_555 1_555
O15 W3 1_555 1_555
O16 W5 1_555 1_555
O17 W1 1_555 1_555
O18 W7 1_555 1_555
O19 W1 1_555 1_555
O20 W4 1_555 1_555
O21 W11 1_555 1_555
O22 W9 1_555 1_555
O23 W12 1_555 1_555
O24 W9 1_555 1_555
O25 W5 1_555 1_555
O26 W4 1_555 1_555
O27 W5 1_555 1_555
O28 W2 1_555 1_555
O29 W7 1_555 1_555
O30 W6 1_555 1_555
O31 W5 1_555 1_555
O32 W4 1_555 1_555
O33 W6 1_555 1_555
O34 W2 1_555 1_555
O35 W8 1_555 1_555
O36 W10 1_555 1_555
O37 W7 1_555 1_555
O38 W1 1_555 1_555
O39 W1 1_555 1_555
O40 W2 1_555 1_555
O41 Cu1 1_555 1_555
H1 O41 1_555 1_555
H2 O41 1_555 1_555
O42 Cu2 1_555 1_555
H3 O42 1_555 1_555
H4 O42 1_555 1_555
C1 C2 1_555 1_555
C2 H5 1_555 1_555
C3 C2 1_555 1_555
C4 C3 1_555 1_555
H6 C4 1_555 1_555
C5 N1 1_555 1_555
C6 N2 1_555 1_555
C7 C6 1_555 1_555
H7 C7 1_555 1_555
C8 C7 1_555 1_555
H8 C8 1_555 1_555
C9 C8 1_555 1_555
H9 C9 1_555 1_555
C10 N2 1_555 1_555
H10 C10 1_555 1_555
C11 N3 1_555 1_555
C12 C11 1_555 1_555
H11 C12 1_555 1_555
C13 C12 1_555 1_555
H12 C13 1_555 1_555
C14 C13 1_555 1_555
H13 C14 1_555 1_555
C15 N3 1_555 1_555
H14 C15 1_555 1_555
C16 C3 1_555 1_555
C17 C16 1_555 1_555
H15 C17 1_555 1_555
C18 C17 1_555 1_555
H16 C18 1_555 1_555
C19 C18 1_555 1_555
H17 C19 1_555 1_555
C20 N4 1_555 1_555
H18 C20 1_555 1_555
C21 C22 1_555 1_555
C22 H19 1_555 1_555
C23 C22 1_555 1_555
C24 C23 1_555 1_555
H20 C24 1_555 1_555
C25 N5 1_555 1_555
C26 N6 1_555 1_555
C27 C26 1_555 1_555
H21 C27 1_555 1_555
C28 C27 1_555 1_555
H22 C28 1_555 1_555
C29 C28 1_555 1_555
H23 C29 1_555 1_555
C30 N6 1_555 1_555
H24 C30 1_555 1_555
C31 N7 1_555 1_555
C32 C31 1_555 1_555
H25 C32 1_555 1_555
C33 C32 1_555 1_555
H26 C33 1_555 1_555
C34 C33 1_555 1_555
H27 C34 1_555 1_555
C35 N7 1_555 1_555
H28 C35 1_555 1_555
C36 C23 1_555 1_555
C37 C36 1_555 1_555
H29 C37 1_555 1_555
C38 C37 1_555 1_555
H30 C38 1_555 1_555
C39 C38 1_555 1_555
H31 C39 1_555 1_555
C40 N8 1_555 1_555
H32 C40 1_555 1_555
C41 C42 1_555 1_555
C42 H33 1_555 1_555
C43 C42 1_555 1_555
C44 C43 1_555 1_555
H34 C44 1_555 1_555
C45 N9 1_555 1_555
C46 N10 1_555 1_555
C47 C46 1_555 1_555
H35 C47 1_555 1_555
C48 C47 1_555 1_555
H36 C48 1_555 1_555
C49 C48 1_555 1_555
H37 C49 1_555 1_555
C50 N10 1_555 1_555
H38 C50 1_555 1_555
C51 N11 1_555 1_555
C52 C51 1_555 1_555
H39 C52 1_555 1_555
C53 C52 1_555 1_555
H40 C53 1_555 1_555
C54 C53 1_555 1_555
H41 C54 1_555 1_555
C55 N11 1_555 1_555
H42 C55 1_555 1_555
C56 C43 1_555 1_555
C57 C56 1_555 1_555
H43 C57 1_555 1_555
C58 C57 1_555 1_555
H44 C58 1_555 1_555
C59 C58 1_555 1_555
H45 C59 1_555 1_555
C60 N12 1_555 1_555
H46 C60 1_555 1_555
O43 H47 1_555 1_555
H48 O43 1_555 1_555
Cu3_2 O31 1_555 1_555
O31_2 Cu3 1_555 1_555
W2 O38 1_555 1_555
W2 O39 1_555 1_555
W3 O28 1_555 1_555
W3 O38 1_555 1_555
W5 O34 1_555 1_555
W6 O11 1_555 1_555
W6 O27 1_555 1_555
W7 O16 1_555 1_555
W8 O25 1_555 1_555
W8 O27 1_555 1_555
W8 O30 1_555 1_555
W9 O12 1_555 1_555
W9 O15 1_555 1_555
W9 O26 1_555 1_555
W10 O18 1_555 1_555
W10 O22 1_555 1_555
W10 O29 1_555 1_555
W11 O20 1_555 1_555
W11 O35 1_555 1_555
W11 O36 1_555 1_555
W11 O37 1_555 1_555
W12 O17 1_555 1_555
W12 O24 1_555 1_555
W12 O26 1_555 1_555
W12 O32 1_555 1_555
Cu1 O28 1_555 1_555
Cu2 O13 1_555 1_555
Cu3 O10 1_555 1_555
Cu3 O12 1_555 1_555
C1 C6 1_555 1_555
C4 C5 1_555 1_555
C5 C11 1_555 1_555
C9 C10 1_555 1_555
C14 C15 1_555 1_555
C19 C20 1_555 1_555
C21 C26 1_555 1_555
C24 C25 1_555 1_555
C25 C31 1_555 1_555
C29 C30 1_555 1_555
C34 C35 1_555 1_555
C39 C40 1_555 1_555
C41 C46 1_555 1_555
C44 C45 1_555 1_555
C45 C51 1_555 1_555
C49 C50 1_555 1_555
C54 C55 1_555 1_555
C59 C60 1_555 1_555

#END
