
#######################################################################
#
#                 Cambridge Crystallographic Data Centre
#                                CCDC 
#
#######################################################################
#
# If this CIF has been generated from an entry in the Cambridge 
# Structural Database, then it will include bibliographic, chemical, 
# crystal, experimental, refinement or atomic coordinate data resulting 
# from the CCDC's data processing and validation procedures.
#
#######################################################################

data_POBBIT
_symmetry_cell_setting           monoclinic
_symmetry_space_group_name_H-M   'C 2/c'
_symmetry_Int_Tables_number      15
_space_group_name_Hall           '-C 2yn'
loop_
_symmetry_equiv_pos_site_id
_symmetry_equiv_pos_as_xyz
1 x,y,z
2 -x,y,1/2-z
3 1/2+x,1/2+y,z
4 1/2-x,1/2+y,1/2-z
5 -x,-y,-z
6 x,-y,1/2+z
7 1/2-x,1/2-y,-z
8 1/2+x,1/2-y,1/2+z
_cell_length_a                   25.7827(12)
_cell_length_b                   10.1372(5)
_cell_length_c                   25.3918(12)
_cell_angle_alpha                90
_cell_angle_beta                 110.1410(10)
_cell_angle_gamma                90
_cell_volume                     6230.68
loop_
_atom_site_label
_atom_site_type_symbol
_atom_site_fract_x
_atom_site_fract_y
_atom_site_fract_z
C1 C 0.23748(19) 0.6373(5) 0.4391(2)
H1 H 0.2140 0.6760 0.4063
C2 C 0.2924(2) 0.6774(5) 0.4601(2)
H2 H 0.3055 0.7427 0.4422
C3 C 0.32722(19) 0.6172(5) 0.5086(2)
H3 H 0.3641 0.6423 0.5236
C4 C 0.3064(2) 0.5174(5) 0.5351(2)
H4 H 0.3290 0.4761 0.5676
C5 C 0.25233(19) 0.4846(5) 0.5111(2)
C6 C 0.22249(18) 0.3896(5) 0.5367(2)
C7 C 0.2469(2) 0.3050(5) 0.5811(2)
H5 H 0.2851 0.3016 0.5982
C8 C 0.21248(19) 0.2246(5) 0.5995(2)
C9 C 0.2349(2) 0.1285(5) 0.6450(2)
C10 C 0.2873(2) 0.1355(5) 0.6852(2)
H6 H 0.3092 0.2096 0.6871
C11 C 0.3070(2) 0.0320(5) 0.7224(2)
H7 H 0.3423 0.0364 0.7493
C12 C 0.2748(2) -0.0762(5) 0.7197(2)
H8 H 0.2879 -0.1468 0.7440
C13 C 0.2218(2) -0.0788(5) 0.6798(2)
H9 H 0.1989 -0.1507 0.6783
C14 C 0.1541(2) 0.2400(5) 0.5744(2)
H10 H 0.1305 0.1947 0.5887
C15 C 0.13293(18) 0.3220(5) 0.52891(19)
C16 C 0.07533(18) 0.3487(5) 0.49581(19)
C17 C 0.0312(2) 0.2886(5) 0.5065(2)
H11 H 0.0372 0.2246 0.5342
C18 C -0.02179(19) 0.3274(5) 0.4746(2)
H12 H -0.0520 0.2877 0.4801
C19 C -0.0297(2) 0.4230(5) 0.4352(2)
H13 H -0.0651 0.4520 0.4146
C20 C 0.0155(2) 0.4762(5) 0.4265(2)
H14 H 0.0098 0.5402 0.3988
Cu1 Cu 0.13707(2) 0.49661(6) 0.44345(2)
N1 N 0.21729(16) 0.5447(4) 0.46457(17)
N2 N 0.06710(15) 0.4414(4) 0.45537(17)
N3 N 0.16780(15) 0.3907(4) 0.50981(16)
N4 N 0.20362(17) 0.0198(4) 0.64389(18)
O1 O 0.06592(14) 0.2691(3) 0.26539(15)
O2 O 0.01048(12) 0.0714(3) 0.30862(13)
O3 O 0.00923(12) 0.3087(3) 0.33453(14)
O4 O 0.12373(13) 0.3400(3) 0.37842(15)
O5 O -0.03650(13) 0.1206(3) 0.37906(14)
O6 O -0.10526(14) 0.3202(4) 0.32277(15)
O7 O -0.03946(12) -0.1285(3) 0.35488(13)
O8 O -0.09058(13) -0.3709(3) 0.33826(15)
O9 O -0.14158(13) -0.1688(3) 0.26973(14)
O10 O -0.06262(12) -0.1269(3) 0.23255(13)
O11 O -0.21380(15) -0.0014(3) 0.19304(16)
O12 O -0.08876(13) -0.3657(3) 0.23108(14)
O13 O -0.00544(12) -0.3105(3) 0.18834(14)
O14 O -0.10864(12) -0.3820(3) 0.11581(13)
O15 O -0.03176(13) -0.0468(4) 0.03756(13)
O16 O -0.07388(12) 0.1308(3) 0.09319(14)
O17 O -0.12445(12) 0.0877(3) 0.16708(13)
O18 O -0.11059(13) 0.0779(3) 0.27327(14)
O19 O -0.15244(12) -0.1792(3) 0.15743(14)
O20 O -0.06777(12) -0.1305(3) 0.12266(13)
W1 W 0.075042(7) 0.226548(18) 0.340607(8)
W2 W -0.145165(7) -0.043291(18) 0.208474(8)
W3 W -0.062188(7) 0.209685(19) 0.307627(8)
W4 W -0.022104(7) -0.009853(19) 0.105989(8)
W5 W -0.078364(7) -0.270968(18) 0.172274(8)
W6 W -0.072287(7) -0.253492(19) 0.299401(8)
Cu1A Cu -0.13707(2) -0.50339(6) 0.05655(2)
O1A O -0.06592(14) 0.2691(3) 0.23461(15)
O2A O -0.01048(12) 0.0714(3) 0.19138(13)
O5A O 0.03650(13) 0.1206(3) 0.12094(14)
O7A O 0.03946(12) -0.1285(3) 0.14512(13)
O13A O 0.00544(12) -0.3105(3) 0.31166(14)
O14A O 0.10864(12) 0.6180(3) 0.38419(13)
O16A O 0.07388(12) 0.1308(3) 0.40681(14)
O17A O 0.12445(12) 0.0877(3) 0.33292(13)
W1A W -0.075042(7) 0.226548(18) 0.159393(8)
W3A W 0.062188(7) 0.209685(19) 0.192373(8)
W4A W 0.022104(7) -0.009853(19) 0.394011(8)
W6A W 0.072287(7) -0.253492(19) 0.200599(8)
O21 O 0.68007(15) 0.9086(4) 0.12098(18)
O22 O 0.89352(16) 0.9503(4) 0.92844(17)
O23 O 0.0000 0.4767(10) 0.2500
loop_
_geom_bond_atom_site_label_1
_geom_bond_atom_site_label_2
_geom_bond_site_symmetry_1
_geom_bond_site_symmetry_2
C1 H1 1_555 1_555
C2 C1 1_555 1_555
H2 C2 1_555 1_555
C3 C2 1_555 1_555
H3 C3 1_555 1_555
C4 C3 1_555 1_555
H4 C4 1_555 1_555
C5 C4 1_555 1_555
C6 C5 1_555 1_555
C7 C6 1_555 1_555
H5 C7 1_555 1_555
C8 C7 1_555 1_555
C9 C8 1_555 1_555
C10 C9 1_555 1_555
H6 C10 1_555 1_555
C11 C10 1_555 1_555
H7 C11 1_555 1_555
C12 C11 1_555 1_555
H8 C12 1_555 1_555
C13 C12 1_555 1_555
H9 C13 1_555 1_555
C14 C8 1_555 1_555
H10 C14 1_555 1_555
C15 C14 1_555 1_555
C16 C15 1_555 1_555
C17 C16 1_555 1_555
H11 C17 1_555 1_555
C18 C17 1_555 1_555
H12 C18 1_555 1_555
C19 C18 1_555 1_555
H13 C19 1_555 1_555
C20 C19 1_555 1_555
H14 C20 1_555 1_555
Cu1 N1 1_555 1_555
N1 C1 1_555 1_555
N2 C16 1_555 1_555
N3 C6 1_555 1_555
N4 C9 1_555 1_555
O1 W1 1_555 1_555
O2 W1 1_555 1_555
O3 W1 1_555 1_555
O4 Cu1 1_555 1_555
O5 W3 1_555 1_555
O6 W3 1_555 1_555
O7 W6 1_555 1_555
O8 W6 1_555 1_555
O9 W2 1_555 1_555
O10 W2 1_555 1_555
O11 W2 1_555 1_555
O12 W5 1_555 1_555
O13 W5 1_555 1_555
O14 W5 1_555 1_555
O15 W4 1_555 1_555
O16 W4 1_555 1_555
O17 W2 1_555 1_555
O18 W2 1_555 1_555
O19 W2 1_555 1_555
O20 W4 1_555 1_555
W1 O4 1_555 1_555
W3 O2 1_555 1_555
W4 O2A 1_555 1_555
W5 O10 1_555 1_555
W6 O9 1_555 1_555
Cu1A O14 1_555 1_555
O1A W3 1_555 1_555
O2A W1A 1_555 1_555
O5A W4 1_555 1_555
O7A W4 1_555 1_555
O13A W6 1_555 1_555
O14A Cu1 1_555 1_555
O16A W1 1_555 1_555
O17A W1 1_555 1_555
W1A O16 1_555 1_555
W3A O1 1_555 1_555
W4A O2 1_555 1_555
W6A O13 1_555 1_555
C5 N1 1_555 1_555
C13 N4 1_555 1_555
C15 N3 1_555 1_555
C20 N2 1_555 1_555
Cu1 N2 1_555 1_555
Cu1 N3 1_555 1_555
O3 W3 1_555 1_555
O5 W4A 1_555 1_555
O7 W4A 1_555 1_555
O10 W6 1_555 1_555
O12 W6 1_555 1_555
O17 W1A 1_555 1_555
O18 W3 1_555 1_555
O19 W5 1_555 1_555
O20 W5 1_555 1_555
W5 W6 1_555 1_555
O1A W1A 1_555 1_555
O2A W3A 1_555 1_555
O5A W3A 1_555 1_555
O7A W6A 1_555 1_555
O16A W4A 1_555 1_555

#END
