
#######################################################################
#
#                 Cambridge Crystallographic Data Centre
#                                CCDC 
#
#######################################################################
#
# If this CIF has been generated from an entry in the Cambridge 
# Structural Database, then it will include bibliographic, chemical, 
# crystal, experimental, refinement or atomic coordinate data resulting 
# from the CCDC's data processing and validation procedures.
#
#######################################################################

data_POBHIZ
_symmetry_cell_setting           monoclinic
_symmetry_space_group_name_H-M   'C 2/c'
_symmetry_Int_Tables_number      15
_space_group_name_Hall           '-C 2yn'
loop_
_symmetry_equiv_pos_site_id
_symmetry_equiv_pos_as_xyz
1 x,y,z
2 -x,y,1/2-z
3 1/2+x,1/2+y,z
4 1/2-x,1/2+y,1/2-z
5 -x,-y,-z
6 x,-y,1/2+z
7 1/2-x,1/2-y,-z
8 1/2+x,1/2-y,1/2+z
_cell_length_a                   16.3872(19)
_cell_length_b                   12.5163(12)
_cell_length_c                   7.0474(7)
_cell_angle_alpha                90
_cell_angle_beta                 99.056(8)
_cell_angle_gamma                90
_cell_volume                     1427.45
loop_
_atom_site_label
_atom_site_type_symbol
_atom_site_fract_x
_atom_site_fract_y
_atom_site_fract_z
Cu1 Cu 0.5000 0.27820(5) 0.2500
S1 S 0.5000 0.34289(11) -0.2500
O1 O 0.43165(17) 0.41360(19) -0.2052(3)
O2 O 0.52896(17) 0.2769(2) -0.0810(3)
N1 N 0.42075(19) 0.1568(2) 0.1920(4)
C1 C 0.3392(3) 0.1642(3) 0.1378(5)
H1 H 0.3152 0.2333 0.1191
C2 C 0.4549(2) 0.0577(3) 0.2176(5)
C3 C 0.4069(2) -0.0339(3) 0.1875(5)
H2 H 0.4321 -0.1023 0.2053
C4 C 0.3218(3) -0.0253(3) 0.1312(5)
C5 C 0.2881(3) 0.0763(3) 0.1077(5)
H3 H 0.2302 0.0853 0.0711
C6 C 0.2678(3) -0.1232(3) 0.0983(6)
H4 H 0.2320 -0.1270 0.1972
H5 H 0.3025 -0.1872 0.1053
H6 H 0.2337 -0.1189 -0.0288
O3 O 0.41515(16) 0.3871(2) 0.1561(3)
H7 H 0.4178 0.3919 0.0228
H8 H 0.4211 0.4510 0.2115
O1A O 0.56835(17) 0.41360(19) -0.2948(3)
O2A O 0.47104(17) 0.2769(2) -0.4190(3)
N1A N 0.57925(19) 0.1568(2) 0.3080(4)
C1A C 0.6608(3) 0.1642(3) 0.3622(5)
H1A H 0.6848 0.2333 0.3809
C2A C 0.5451(2) 0.0577(3) 0.2824(5)
C3A C 0.5931(2) -0.0339(3) 0.3125(5)
H2A H 0.5679 -0.1023 0.2947
C4A C 0.6782(3) -0.0253(3) 0.3688(5)
C5A C 0.7119(3) 0.0763(3) 0.3923(5)
H3A H 0.7698 0.0853 0.4289
C6A C 0.7322(3) -0.1232(3) 0.4017(6)
H4A H 0.7680 -0.1270 0.3028
H5A H 0.6975 -0.1872 0.3947
H6A H 0.7663 -0.1189 0.5288
O3A O 0.58485(16) 0.3871(2) 0.3439(3)
H7A H 0.5822 0.3919 0.4772
H8A H 0.5789 0.4510 0.2885
Cu1_2 Cu 0.5000 0.27820(5) -0.7500
O2A_2 O 0.47104(17) 0.2769(2) 0.5810(3)
loop_
_geom_bond_atom_site_label_1
_geom_bond_atom_site_label_2
_geom_bond_site_symmetry_1
_geom_bond_site_symmetry_2
Cu1 O2 1_555 1_555
S1 O1 1_555 1_555
O2 S1 1_555 1_555
N1 Cu1 1_555 1_555
C1 N1 1_555 1_555
H1 C1 1_555 1_555
C2 N1 1_555 1_555
C3 C2 1_555 1_555
H2 C3 1_555 1_555
C4 C3 1_555 1_555
C5 C1 1_555 1_555
H3 C5 1_555 1_555
C6 C4 1_555 1_555
H4 C6 1_555 1_555
H5 C6 1_555 1_555
H6 C6 1_555 1_555
O3 Cu1 1_555 1_555
H7 O3 1_555 1_555
H8 O3 1_555 1_555
O1A S1 1_555 1_555
O2A S1 1_555 1_555
N1A Cu1 1_555 1_555
C1A N1A 1_555 1_555
H1A C1A 1_555 1_555
C2A C2 1_555 1_555
C3A C2A 1_555 1_555
H2A C3A 1_555 1_555
C4A C3A 1_555 1_555
C5A C1A 1_555 1_555
H3A C5A 1_555 1_555
C6A C4A 1_555 1_555
H4A C6A 1_555 1_555
H5A C6A 1_555 1_555
H6A C6A 1_555 1_555
O3A Cu1 1_555 1_555
H7A O3A 1_555 1_555
H8A O3A 1_555 1_555
Cu1_2 O2A 1_555 1_555
O2A_2 Cu1 1_555 1_555
C4 C5 1_555 1_555
N1A C2A 1_555 1_555
C4A C5A 1_555 1_555

#END
