
#######################################################################
#
#                 Cambridge Crystallographic Data Centre
#                                CCDC 
#
#######################################################################
#
# If this CIF has been generated from an entry in the Cambridge 
# Structural Database, then it will include bibliographic, chemical, 
# crystal, experimental, refinement or atomic coordinate data resulting 
# from the CCDC's data processing and validation procedures.
#
#######################################################################

data_POBJOH
_symmetry_cell_setting           triclinic
_symmetry_space_group_name_H-M   'P 1'
_symmetry_Int_Tables_number      1
_space_group_name_Hall           'P 1'
loop_
_symmetry_equiv_pos_site_id
_symmetry_equiv_pos_as_xyz
1 x,y,z
_cell_length_a                   6.1190(2)
_cell_length_b                   7.4588(2)
_cell_length_c                   13.0613(4)
_cell_angle_alpha                88.2190(10)
_cell_angle_beta                 81.1640(10)
_cell_angle_gamma                89.2910(10)
_cell_volume                     588.746
loop_
_atom_site_label
_atom_site_type_symbol
_atom_site_fract_x
_atom_site_fract_y
_atom_site_fract_z
Ce1 Ce 1.88615(3) -1.26412(2) -2.32020(2)
O1 O 1.9331(9) -1.1680(8) -2.1356(4)
O2 O 1.6929(10) -1.3839(8) -2.1414(4)
O3 O 1.7984(11) -1.1333(12) -1.9254(5)
H1 H 1.7766 -1.0250 -1.9312
O4 O 1.4889(9) -0.9730(7) -2.0571(4)
H2 H 1.4375 -0.8769 -2.0378
O5 O 1.3007(10) -0.9179(7) -1.8602(4)
O6 O 1.2760(9) -1.2130(7) -1.8202(4)
C1 C 1.7773(12) -1.2611(10) -2.0945(5)
C2 C 1.6617(12) -1.2256(11) -1.9839(5)
H3 H 1.6269 -1.3422 -1.9490
C3 C 1.4425(12) -1.1272(10) -1.9894(5)
H4 H 1.3445 -1.2067 -2.0194
C4 C 1.3320(11) -1.0790(10) -1.8813(5)
O7 O 1.5663(8) -1.0441(7) -2.2680(4)
H5 H 1.5504 -1.0309 -2.2029
H6 H 1.4769 -1.1182 -2.2843
O8 O 2.2896(8) -1.3113(7) -2.3274(5)
O9 O 2.0347(7) -1.5858(7) -2.3064(4)
H7 H 1.9806 -1.6800 -2.3283
O10 O 2.6008(7) -1.4707(7) -2.3549(4)
O11 O 2.3212(7) -1.6182(6) -2.5271(3)
H8 H 2.2622 -1.5192 -2.5037
O12 O 2.0845(10) -1.9785(8) -2.3601(4)
O13 O 2.0030(8) -1.8513(7) -2.5073(4)
C5 C 2.3952(10) -1.4569(9) -2.3391(5)
C6 C 2.2637(9) -1.6296(8) -2.3338(5)
H9 H 2.3080 -1.7080 -2.2788
C7 C 2.3062(12) -1.7306(9) -2.4366(5)
H10 H 2.4451 -1.7982 -2.4388
C8 C 2.1178(10) -1.8642(8) -2.4337(5)
O14 O 1.7555(8) -1.7951(8) -2.6956(5)
O15 O 2.0135(8) -2.0650(7) -2.6776(4)
H11 H 2.1161 -2.1379 -2.6993
O16 O 1.4488(8) -1.9535(7) -2.6532(4)
O17 O 1.7189(7) -2.1175(6) -2.4779(3)
H12 H 1.7953 -2.0222 -2.4967
O18 O 2.0209(8) -2.3696(7) -2.4970(4)
O19 O 1.9340(10) -2.4708(7) -2.6442(4)
C9 C 1.6517(11) -1.9396(10) -2.6720(5)
C10 C 1.7892(9) -2.1116(8) -2.6688(4)
H13 H 1.7685 -2.1851 -2.7275
C11 C 1.7273(11) -2.2216(9) -2.5678(5)
H14 H 1.5833 -2.2777 -2.5676
C12 C 1.9055(10) -2.3682(9) -2.5693(5)
O20 O 2.4669(9) -1.5305(8) -2.7460(5)
H15 H 2.4300 -1.4392 -2.7751
H16 H 2.6062 -1.5153 -2.7407
O21 O 2.0916(9) -1.5617(7) -2.8542(4)
H17 H 2.2085 -1.5367 -2.8958
H18 H 2.0181 -1.4880 -2.8171
Ce2 Ce 2.15228(4) -1.75054(3) -2.68793(2)
Ce1_2 Ce 1.88615(3) -2.26412(2) -2.32020(2)
Ce1_3 Ce 2.88615(3) -1.26412(2) -2.32020(2)
O5_2 O 2.3007(10) -1.9179(7) -2.8602(4)
O10_2 O 1.6008(7) -1.4707(7) -2.3549(4)
O12_2 O 2.0845(10) -0.9785(8) -2.3601(4)
O16_2 O 2.4488(8) -1.9535(7) -2.6532(4)
O17_2 O 1.7189(7) -1.1175(6) -2.4779(3)
O18_2 O 2.0209(8) -1.3696(7) -2.4970(4)
O19_2 O 1.9340(10) -1.4708(7) -2.6442(4)
Ce2_2 Ce 1.15228(4) -1.75054(3) -2.68793(2)
Ce2_3 Ce 1.15228(4) -0.75054(3) -1.68793(2)
Ce2_4 Ce 2.15228(4) -2.75054(3) -2.68793(2)
O22 O 1.3312(11) -1.6093(10) -2.0488(5)
H19 H 1.3753 -1.7134 -2.0620
H20 H 1.4360 -1.5471 -2.0809
O23 O 1.9751(10) -1.7838(8) -2.1318(4)
H21 H 2.0080 -1.8964 -2.1441
H22 H 2.0910 -1.7277 -2.1185
O24 O 1.7434(12) -1.7249(12) -2.9355(5)
H23 H 1.8033 -1.7333 -2.9967
H24 H 1.7111 -1.6239 -2.9106
loop_
_geom_bond_atom_site_label_1
_geom_bond_atom_site_label_2
_geom_bond_site_symmetry_1
_geom_bond_site_symmetry_2
Ce1 O1 1_555 1_555
O1 C1 1_555 1_555
O2 Ce1 1_555 1_555
O3 H1 1_555 1_555
O4 H2 1_555 1_555
O5 C4 1_555 1_555
O6 C4 1_555 1_555
C1 O2 1_555 1_555
C2 O3 1_555 1_555
H3 C2 1_555 1_555
C3 O4 1_555 1_555
H4 C3 1_555 1_555
C4 C3 1_555 1_555
O7 Ce1 1_555 1_555
H5 O7 1_555 1_555
H6 O7 1_555 1_555
O8 Ce1 1_555 1_555
O9 Ce1 1_555 1_555
H7 O9 1_555 1_555
O10 C5 1_555 1_555
O11 H8 1_555 1_555
O12 C8 1_555 1_555
O13 C8 1_555 1_555
C5 O8 1_555 1_555
C6 O9 1_555 1_555
H9 C6 1_555 1_555
C7 O11 1_555 1_555
H10 C7 1_555 1_555
C8 C7 1_555 1_555
O14 C9 1_555 1_555
O15 H11 1_555 1_555
O16 C9 1_555 1_555
O17 H12 1_555 1_555
O18 C12 1_555 1_555
O19 C12 1_555 1_555
C9 C10 1_555 1_555
C10 O15 1_555 1_555
H13 C10 1_555 1_555
C11 O17 1_555 1_555
H14 C11 1_555 1_555
C12 C11 1_555 1_555
O20 H15 1_555 1_555
H16 O20 1_555 1_555
O21 H17 1_555 1_555
H18 O21 1_555 1_555
Ce2 O11 1_555 1_555
O22 H19 1_555 1_555
H20 O22 1_555 1_555
O23 H21 1_555 1_555
H22 O23 1_555 1_555
O24 H23 1_555 1_555
H24 O24 1_555 1_555
Ce1_2 O12 1_555 1_555
Ce1_3 O10 1_555 1_555
O5_2 Ce2 1_555 1_555
O10_2 Ce1 1_555 1_555
O12_2 Ce1 1_555 1_555
O16_2 Ce2 1_555 1_555
O17_2 Ce1 1_555 1_555
O18_2 Ce1 1_555 1_555
O19_2 Ce2 1_555 1_555
Ce2_2 O16 1_555 1_555
Ce2_3 O5 1_555 1_555
Ce2_4 O19 1_555 1_555
C1 C2 1_555 1_555
C2 C3 1_555 1_555
O13 Ce2 1_555 1_555
C5 C6 1_555 1_555
C6 C7 1_555 1_555
O14 Ce2 1_555 1_555
O15 Ce2 1_555 1_555
O17 Ce1_2 1_555 1_555
O18 Ce1_2 1_555 1_555
C10 C11 1_555 1_555
O20 Ce2 1_555 1_555
O21 Ce2 1_555 1_555

#END
