
#######################################################################
#
#                 Cambridge Crystallographic Data Centre
#                                CCDC 
#
#######################################################################
#
# If this CIF has been generated from an entry in the Cambridge 
# Structural Database, then it will include bibliographic, chemical, 
# crystal, experimental, refinement or atomic coordinate data resulting 
# from the CCDC's data processing and validation procedures.
#
#######################################################################

data_POBWEI
_symmetry_cell_setting           orthorhombic
_symmetry_space_group_name_H-M   'P n a 21'
_symmetry_Int_Tables_number      33
_space_group_name_Hall           'P 2c -2n'
loop_
_symmetry_equiv_pos_site_id
_symmetry_equiv_pos_as_xyz
1 x,y,z
2 1/2-x,1/2+y,1/2+z
3 1/2+x,1/2-y,z
4 -x,-y,1/2+z
_cell_length_a                   25.981(3)
_cell_length_b                   15.333(2)
_cell_length_c                   11.725(2)
_cell_angle_alpha                90
_cell_angle_beta                 90
_cell_angle_gamma                90
_cell_volume                     4670.85
loop_
_atom_site_label
_atom_site_type_symbol
_atom_site_fract_x
_atom_site_fract_y
_atom_site_fract_z
W1 W -0.79307(2) 0.71374(3) 0.3522
N1 N -0.9771(4) 0.7080(6) 0.6624(9)
O1 O -0.8358(4) 0.6950(6) 0.2186(9)
O2 O -0.7512(3) 0.6131(6) 0.3273(7)
O3 O -0.7843(3) 0.8341(6) 0.3247(8)
C1 C -0.8402(5) 0.6975(8) 0.4586(11)
C2 C -0.8860(4) 0.6981(7) 0.5276(10)
C3 C -0.8899(4) 0.6614(9) 0.6397(10)
C4 C -0.9339(4) 0.6687(8) 0.7002(10)
C5 C -0.9740(5) 0.7423(8) 0.5590(13)
C6 C -0.9323(5) 0.7381(7) 0.4874(12)
C7 C -0.9356(5) 0.7734(8) 0.3670(14)
C8 C -0.8449(5) 0.6121(12) 0.6896(12)
C9 C -0.8218(8) 0.7054(13) 0.1015(15)
C10 C -0.7673(9) 0.7210(19) 0.0805(20)
C11 C -0.8549(10) 0.7799(17) 0.0541(17)
C12 C -0.8367(11) 0.6175(17) 0.0458(17)
C13 C -0.7344(6) 0.5317(10) 0.3629(16)
C14 C -0.7630(7) 0.4988(14) 0.4618(19)
C15 C -0.7411(13) 0.4703(13) 0.2648(22)
C16 C -0.6796(7) 0.5365(14) 0.3926(26)
C17 C -0.7927(7) 0.9215(9) 0.3591(25)
C18 C -0.8182(10) 0.9247(12) 0.4753(18)
C19 C -0.8278(9) 0.9648(11) 0.2690(19)
C20 C -0.7418(8) 0.9659(13) 0.3630(28)
W2 W -1.04412(2) 0.72914(3) 0.78403(5)
N2 N -0.7284(5) 0.7437(8) 0.4742(10)
O4 O -1.0870(4) 0.7464(7) 0.9147(9)
O5 O -1.0287(3) 0.6106(5) 0.8154(7)
O6 O -1.0110(3) 0.8388(5) 0.7969(9)
C21 C -0.5936(6) 0.7672(10) 0.6805(13)
C22 C -0.6393(5) 0.7616(9) 0.6080(11)
C23 C -0.6866(5) 0.7432(8) 0.6572(11)
C24 C -0.7288(6) 0.7339(8) 0.5879(12)
C25 C -0.6833(5) 0.7662(11) 0.4288(11)
C26 C -0.6386(5) 0.7780(10) 0.4893(12)
C27 C -0.6925(5) 0.7322(9) 0.7823(17)
C28 C -0.5910(6) 0.8031(18) 0.4235(15)
C29 C -1.0762(8) 0.7409(12) 1.0363(13)
C30 C -1.0967(10) 0.6583(14) 1.0805(18)
C31 C -1.0963(9) 0.8254(15) 1.0877(18)
C32 C -1.0161(10) 0.7449(17) 1.0526(23)
C33 C -1.0423(5) 0.5225(7) 0.7863(16)
C34 C -1.0063(10) 0.4648(10) 0.8468(21)
C35 C -1.0974(6) 0.5080(12) 0.8168(20)
C36 C -1.0349(7) 0.5099(10) 0.6599(14)
C37 C -1.0040(8) 0.9241(10) 0.7654(22)
C38 C -1.0384(11) 0.9510(14) 0.6683(19)
C39 C -1.0114(14) 0.9813(14) 0.8632(24)
C40 C -0.9484(9) 0.9344(14) 0.7195(27)
H1 H -0.9349 0.6428 0.7747
H2 H -1.0038 0.7731 0.5316
H3 H -0.9689 0.7979 0.3526
H4 H -0.9098 0.8177 0.3580
H5 H -0.9292 0.7269 0.3139
H6 H -0.8533 0.5909 0.7644
H7 H -0.8362 0.5638 0.6412
H8 H -0.8160 0.6511 0.6946
H9 H -0.7472 0.6733 0.1093
H10 H -0.7607 0.7283 0.0005
H11 H -0.7582 0.7735 0.1203
H12 H -0.8440 0.8339 0.0877
H13 H -0.8517 0.7835 -0.0273
H14 H -0.8901 0.7688 0.0739
H15 H -0.8157 0.5704 0.0732
H16 H -0.8720 0.6069 0.0657
H17 H -0.8335 0.6216 -0.0356
H18 H -0.7591 0.5379 0.5251
H19 H -0.7987 0.4948 0.4415
H20 H -0.7504 0.4421 0.4825
H21 H -0.7226 0.4884 0.1980
H22 H -0.7288 0.4141 0.2887
H23 H -0.7771 0.4667 0.2477
H24 H -0.6595 0.5581 0.3299
H25 H -0.6778 0.5769 0.4549
H26 H -0.6663 0.4810 0.4164
H27 H -0.8507 0.8951 0.4735
H28 H -0.7957 0.8959 0.5282
H29 H -0.8232 0.9840 0.4989
H30 H -0.8110 0.9622 0.1962
H31 H -0.8601 0.9344 0.2650
H32 H -0.8339 1.0246 0.2892
H33 H -0.7266 0.9650 0.2884
H34 H -0.7469 1.0253 0.3867
H35 H -0.7193 0.9371 0.4160
H36 H -0.7608 0.7180 0.6232
H37 H -0.6821 0.7741 0.3476
H38 H -0.7279 0.7198 0.7994
H39 H -0.6713 0.6846 0.8076
H40 H -0.6823 0.7847 0.8208
H41 H -0.6000 0.8114 0.3448
H42 H -0.5777 0.8566 0.4541
H43 H -0.5653 0.7583 0.4293
H44 H -1.1334 0.6562 1.0722
H45 H -1.0879 0.6528 1.1597
H46 H -1.0814 0.6114 1.0383
H47 H -1.1331 0.8247 1.0817
H48 H -1.0829 0.8745 1.0466
H49 H -1.0866 0.8298 1.1665
H50 H -1.0008 0.6929 1.0218
H51 H -1.0072 0.7501 1.1318
H52 H -1.0035 0.7948 1.0118
H53 H -1.0100 0.4725 0.9276
H54 H -0.9716 0.4781 0.8247
H55 H -1.0140 0.4054 0.8272
H56 H -1.1017 0.5163 0.8974
H57 H -1.1080 0.4501 0.7965
H58 H -1.1180 0.5497 0.7762
H59 H -0.9994 0.5177 0.6396
H60 H -1.0556 0.5516 0.6196
H61 H -1.0457 0.4520 0.6399
H62 H -1.0733 0.9471 0.6947
H63 H -1.0338 0.9126 0.6045
H64 H -1.0312 1.0099 0.6454
H65 H -1.0457 0.9793 0.8939
H66 H -1.0028 1.0405 0.8445
H67 H -0.9875 0.9595 0.9188
H68 H -0.9448 0.8999 0.6516
H69 H -0.9252 0.9132 0.7769
H70 H -0.9405 0.9942 0.7026
C21B C -1.0936(6) 0.7328(10) 0.6805(13)
W2B W -0.54412(2) 0.77086(3) 0.78403(5)
loop_
_geom_bond_atom_site_label_1
_geom_bond_atom_site_label_2
_geom_bond_site_symmetry_1
_geom_bond_site_symmetry_2
W1 O1 1_555 1_555
N1 C4 1_555 1_555
O1 C9 1_555 1_555
O2 W1 1_555 1_555
O3 W1 1_555 1_555
C1 W1 1_555 1_555
C2 C1 1_555 1_555
C3 C2 1_555 1_555
C4 C3 1_555 1_555
C5 N1 1_555 1_555
C6 C2 1_555 1_555
C7 C6 1_555 1_555
C8 C3 1_555 1_555
C9 C10 1_555 1_555
C10 H9 1_555 1_555
C11 C9 1_555 1_555
C12 C9 1_555 1_555
C13 O2 1_555 1_555
C14 C13 1_555 1_555
C15 C13 1_555 1_555
C16 C13 1_555 1_555
C17 O3 1_555 1_555
C18 C17 1_555 1_555
C19 C17 1_555 1_555
C20 C17 1_555 1_555
W2 N1 1_555 1_555
N2 W1 1_555 1_555
O4 W2 1_555 1_555
O5 W2 1_555 1_555
O6 W2 1_555 1_555
C21 C22 1_555 1_555
C22 C23 1_555 1_555
C23 C24 1_555 1_555
C24 N2 1_555 1_555
C25 N2 1_555 1_555
C26 C22 1_555 1_555
C27 C23 1_555 1_555
C28 C26 1_555 1_555
C29 O4 1_555 1_555
C30 C29 1_555 1_555
C31 C29 1_555 1_555
C32 C29 1_555 1_555
C33 O5 1_555 1_555
C34 C33 1_555 1_555
C35 C33 1_555 1_555
C36 C33 1_555 1_555
C37 O6 1_555 1_555
C38 C37 1_555 1_555
C39 C37 1_555 1_555
C40 C37 1_555 1_555
H1 C4 1_555 1_555
H2 C5 1_555 1_555
H3 C7 1_555 1_555
H4 C7 1_555 1_555
H5 C7 1_555 1_555
H6 C8 1_555 1_555
H7 C8 1_555 1_555
H8 C8 1_555 1_555
H10 C10 1_555 1_555
H11 C10 1_555 1_555
H12 C11 1_555 1_555
H13 C11 1_555 1_555
H14 C11 1_555 1_555
H15 C12 1_555 1_555
H16 C12 1_555 1_555
H17 C12 1_555 1_555
H18 C14 1_555 1_555
H19 C14 1_555 1_555
H20 C14 1_555 1_555
H21 C15 1_555 1_555
H22 C15 1_555 1_555
H23 C15 1_555 1_555
H24 C16 1_555 1_555
H25 C16 1_555 1_555
H26 C16 1_555 1_555
H27 C18 1_555 1_555
H28 C18 1_555 1_555
H29 C18 1_555 1_555
H30 C19 1_555 1_555
H31 C19 1_555 1_555
H32 C19 1_555 1_555
H33 C20 1_555 1_555
H34 C20 1_555 1_555
H35 C20 1_555 1_555
H36 C24 1_555 1_555
H37 C25 1_555 1_555
H38 C27 1_555 1_555
H39 C27 1_555 1_555
H40 C27 1_555 1_555
H41 C28 1_555 1_555
H42 C28 1_555 1_555
H43 C28 1_555 1_555
H44 C30 1_555 1_555
H45 C30 1_555 1_555
H46 C30 1_555 1_555
H47 C31 1_555 1_555
H48 C31 1_555 1_555
H49 C31 1_555 1_555
H50 C32 1_555 1_555
H51 C32 1_555 1_555
H52 C32 1_555 1_555
H53 C34 1_555 1_555
H54 C34 1_555 1_555
H55 C34 1_555 1_555
H56 C35 1_555 1_555
H57 C35 1_555 1_555
H58 C35 1_555 1_555
H59 C36 1_555 1_555
H60 C36 1_555 1_555
H61 C36 1_555 1_555
H62 C38 1_555 1_555
H63 C38 1_555 1_555
H64 C38 1_555 1_555
H65 C39 1_555 1_555
H66 C39 1_555 1_555
H67 C39 1_555 1_555
H68 C40 1_555 1_555
H69 C40 1_555 1_555
H70 C40 1_555 1_555
C21B W2 1_555 1_555
W2B C21 1_555 1_555
C5 C6 1_555 1_555
C25 C26 1_555 1_555

#END
