
#######################################################################
#
#                 Cambridge Crystallographic Data Centre
#                                CCDC 
#
#######################################################################
#
# If this CIF has been generated from an entry in the Cambridge 
# Structural Database, then it will include bibliographic, chemical, 
# crystal, experimental, refinement or atomic coordinate data resulting 
# from the CCDC's data processing and validation procedures.
#
#######################################################################

data_POBWIM
_symmetry_cell_setting           monoclinic
_symmetry_space_group_name_H-M   'P 21/n'
_symmetry_Int_Tables_number      14
_space_group_name_Hall           '-P 2yn'
loop_
_symmetry_equiv_pos_site_id
_symmetry_equiv_pos_as_xyz
1 x,y,z
2 1/2-x,1/2+y,1/2-z
3 -x,-y,-z
4 1/2+x,1/2-y,1/2+z
_cell_length_a                   17.408(3)
_cell_length_b                   14.422(3)
_cell_length_c                   19.965(5)
_cell_angle_alpha                90
_cell_angle_beta                 107.20(2)
_cell_angle_gamma                90
_cell_volume                     4788.21
loop_
_atom_site_label
_atom_site_type_symbol
_atom_site_fract_x
_atom_site_fract_y
_atom_site_fract_z
W1 W 0.7373(1) 0.2132(1) 0.7270(1)
N1 N 0.6765(5) 0.0714(5) 0.7652(4)
O1 O 0.7727(3) 0.1241(3) 0.6735(3)
O2 O 0.7849(3) 0.1984(4) 0.8237(3)
O3 O 0.6266(3) 0.2385(4) 0.6940(3)
C1 C 0.7796(5) 0.3189(6) 0.7091(5)
C2 C 0.8091(5) 0.4112(5) 0.7004(5)
C3 C 0.8474(7) 0.4318(6) 0.6508(6)
C4 C 0.8728(6) 0.5195(7) 0.6432(6)
C5 C 0.6387(6) 0.0882(6) 0.8129(6)
C6 C 0.7003(5) -0.0150(5) 0.7593(5)
C7 C 0.8260(6) 0.1237(6) 0.6290(5)
C8 C 0.9079(6) 0.1600(8) 0.6705(6)
C9 C 0.7893(7) 0.1830(7) 0.5668(6)
C10 C 0.8300(7) 0.0249(7) 0.6085(6)
C11 C 0.8435(7) 0.2345(7) 0.8836(5)
C12 C 0.8673(11) 0.1558(10) 0.9313(8)
C13 C 0.8069(9) 0.3079(10) 0.9148(8)
C14 C 0.9128(8) 0.2756(11) 0.8666(8)
C15 C 0.5740(6) 0.3121(6) 0.6575(6)
C16 C 0.4886(5) 0.2740(7) 0.6434(6)
C17 C 0.5861(6) 0.3966(6) 0.7040(6)
C18 C 0.5918(7) 0.3331(8) 0.5896(6)
H1 H 0.8547 0.3837 0.6199
H2 H 0.9005 0.5328 0.6093
H3 H 0.6206 0.1501 0.8176
H4 H 0.7271 -0.0264 0.7245
H5 H 0.9294 0.1195 0.7097
H6 H 0.9442 0.1629 0.6426
H7 H 0.9011 0.2210 0.6873
H8 H 0.7388 0.1553 0.5418
H9 H 0.7801 0.2444 0.5814
H10 H 0.8232 0.1863 0.5367
H11 H 0.7773 0.0060 0.5808
H12 H 0.8668 0.0193 0.5811
H13 H 0.8477 -0.0139 0.6492
H14 H 0.8222 0.1336 0.9450
H15 H 0.8857 0.1080 0.9064
H16 H 0.9099 0.1728 0.9724
H17 H 0.7921 0.3597 0.8835
H18 H 0.7595 0.2816 0.9224
H19 H 0.8427 0.3284 0.9588
H20 H 0.8980 0.3290 0.8368
H21 H 0.9552 0.2920 0.9080
H22 H 0.9309 0.2272 0.8420
H23 H 0.4796 0.2602 0.6875
H24 H 0.4502 0.3194 0.6188
H25 H 0.4825 0.2185 0.6158
H26 H 0.6396 0.4202 0.7119
H27 H 0.5479 0.4426 0.6803
H28 H 0.5776 0.3819 0.7482
H29 H 0.6457 0.3565 0.6015
H30 H 0.5875 0.2786 0.5610
H31 H 0.5552 0.3795 0.5640
C6A C 0.7997(5) 0.4850(5) 0.7407(5)
C5A C 0.8613(6) 0.5882(6) 0.6871(6)
C4A C 0.6272(6) 0.0195(7) 0.8568(6)
C2A C 0.6909(5) -0.0888(5) 0.7996(5)
N1A N 0.8235(5) 0.5714(5) 0.7348(4)
H4A H 0.7729 0.4736 0.7755
H3A H 0.8794 0.6501 0.6824
C3A C 0.6526(7) -0.0682(6) 0.8492(6)
H2A H 0.5995 0.0328 0.8907
C1A C 0.7204(5) -0.1811(6) 0.7909(5)
W1A W 0.7627(1) 0.7132(1) 0.7730(1)
H1A H 0.6453 -0.1163 0.8801
W1A_2 W 0.7627(1) -0.2868(1) 0.7730(1)
O1A O 0.7273(3) 0.6241(3) 0.8265(3)
O2A O 0.7151(3) 0.6984(4) 0.6763(3)
O3A O 0.8734(3) 0.7385(4) 0.8060(3)
C1A_2 C 0.7204(5) 0.8189(6) 0.7909(5)
C7A C 0.6740(6) 0.6237(6) 0.8710(5)
C11A C 0.6565(7) 0.7345(7) 0.6164(5)
C15A C 0.9260(6) 0.8121(6) 0.8425(6)
C8A C 0.5921(6) 0.6600(8) 0.8295(6)
C9A C 0.7107(7) 0.6830(7) 0.9332(6)
C10A C 0.6700(7) 0.5249(7) 0.8915(6)
C12A C 0.6327(11) 0.6558(10) 0.5687(8)
C13A C 0.6931(9) 0.8079(10) 0.5852(8)
C14A C 0.5872(8) 0.7756(11) 0.6334(8)
C16A C 1.0114(5) 0.7740(7) 0.8566(6)
C17A C 0.9139(6) 0.8966(6) 0.7960(6)
C18A C 0.9082(7) 0.8331(8) 0.9104(6)
H5A H 0.5706 0.6195 0.7903
H6A H 0.5558 0.6629 0.8574
H7A H 0.5989 0.7210 0.8127
H8A H 0.7612 0.6553 0.9582
H9A H 0.7199 0.7444 0.9186
H10A H 0.6768 0.6863 0.9633
H11A H 0.7227 0.5060 0.9192
H12A H 0.6332 0.5193 0.9189
H13A H 0.6523 0.4861 0.8508
H14A H 0.6778 0.6336 0.5550
H15A H 0.6143 0.6080 0.5936
H16A H 0.5901 0.6728 0.5276
H17A H 0.7079 0.8597 0.6165
H18A H 0.7405 0.7816 0.5776
H19A H 0.6573 0.8284 0.5412
H20A H 0.6020 0.8290 0.6632
H21A H 0.5448 0.7920 0.5920
H22A H 0.5691 0.7272 0.6580
H23A H 1.0204 0.7602 0.8125
H24A H 1.0498 0.8194 0.8812
H25A H 1.0175 0.7185 0.8842
H26A H 0.8604 0.9202 0.7881
H27A H 0.9521 0.9426 0.8197
H28A H 0.9224 0.8819 0.7518
H29A H 0.8543 0.8565 0.8985
H30A H 0.9125 0.7786 0.9390
H31A H 0.9448 0.8795 0.9360
W2 W 0.2715(1) 0.1845(1) 0.7744(1)
N2 N 0.3457(4) 0.0357(4) 0.7668(3)
O4 O 0.2432(3) 0.1511(4) 0.6791(3)
O5 O 0.3788(3) 0.2218(3) 0.8169(3)
O6 O 0.2334(3) 0.1031(3) 0.8316(3)
C19 C 0.2145(5) 0.2886(5) 0.7711(5)
C20 C 0.1677(5) 0.3733(5) 0.7652(4)
C21 C 0.0937(6) 0.3785(6) 0.7792(5)
C22 C 0.0530(6) 0.4609(6) 0.7707(5)
C23 C 0.4155(6) 0.0372(6) 0.7521(5)
C24 C 0.3066(5) -0.0455(5) 0.7594(4)
C25 C 0.1939(6) 0.1818(6) 0.6120(5)
C26 C 0.2194(7) 0.2764(6) 0.5957(5)
C27 C 0.1072(6) 0.1833(8) 0.6142(6)
C28 C 0.2053(7) 0.1112(8) 0.5606(5)
C29 C 0.4218(5) 0.3011(6) 0.8534(5)
C30 C 0.4115(6) 0.3824(6) 0.8034(6)
C31 C 0.3908(6) 0.3250(7) 0.9144(5)
C32 C 0.5098(5) 0.2718(6) 0.8784(6)
C33 C 0.1744(6) 0.1025(6) 0.8687(5)
C34 C 0.1853(7) 0.0103(7) 0.9083(6)
C35 C 0.1877(7) 0.1825(7) 0.9206(6)
C36 C 0.0915(5) 0.1058(7) 0.8158(5)
H32 H 0.0714 0.3235 0.7931
H33 H 0.0035 0.4654 0.7825
H34 H 0.4445 0.0947 0.7571
H35 H 0.2557 -0.0475 0.7690
H36 H 0.2742 0.2767 0.5946
H37 H 0.1847 0.2951 0.5508
H38 H 0.2137 0.3187 0.6310
H39 H 0.0904 0.1231 0.6247
H40 H 0.1027 0.2267 0.6493
H41 H 0.0737 0.2030 0.5691
H42 H 0.2607 0.1101 0.5614
H43 H 0.1903 0.0512 0.5734
H44 H 0.1722 0.1267 0.5143
H45 H 0.4328 0.3667 0.7657
H46 H 0.3552 0.3961 0.7849
H47 H 0.4393 0.4356 0.8278
H48 H 0.3989 0.2725 0.9452
H49 H 0.4184 0.3778 0.9396
H50 H 0.3344 0.3383 0.8967
H51 H 0.5163 0.2204 0.9102
H52 H 0.5264 0.2537 0.8385
H53 H 0.5421 0.3229 0.9017
H54 H 0.1749 -0.0409 0.8761
H55 H 0.2393 0.0058 0.9391
H56 H 0.1481 0.0087 0.9354
H57 H 0.1814 0.2394 0.8947
H58 H 0.1504 0.1811 0.9477
H59 H 0.2416 0.1783 0.9514
H60 H 0.0851 0.0527 0.7857
H61 H 0.0507 0.1053 0.8393
H62 H 0.0867 0.1613 0.7884
C24A C 0.1934(5) 0.4545(5) 0.7406(4)
C23A C 0.0845(6) 0.5372(6) 0.7479(5)
C22A C 0.4470(6) -0.0391(6) 0.7293(5)
C20A C 0.3323(5) -0.1267(5) 0.7348(4)
N2A N 0.1543(4) 0.5357(4) 0.7332(3)
H35A H 0.2443 0.4525 0.7310
H34A H 0.0555 0.5947 0.7429
C21A C 0.4063(6) -0.1215(6) 0.7208(5)
H33A H 0.4965 -0.0346 0.7175
C19A C 0.2855(5) -0.2114(5) 0.7289(5)
W2A W 0.2285(1) 0.6845(1) 0.7256(1)
H32A H 0.4286 -0.1765 0.7069
W2A_2 W 0.2285(1) -0.3155(1) 0.7256(1)
O4A O 0.2568(3) 0.6511(4) 0.8209(3)
O5A O 0.1212(3) 0.7218(3) 0.6831(3)
O6A O 0.2666(3) 0.6031(3) 0.6684(3)
C19A_2 C 0.2855(5) 0.7886(5) 0.7289(5)
C25A C 0.3061(6) 0.6818(6) 0.8880(5)
C29A C 0.0782(5) 0.8011(6) 0.6466(5)
C33A C 0.3256(6) 0.6025(6) 0.6313(5)
C26A C 0.2806(7) 0.7764(6) 0.9043(5)
C27A C 0.3928(6) 0.6833(8) 0.8858(6)
C28A C 0.2947(7) 0.6112(8) 0.9394(5)
C30A C 0.0885(6) 0.8824(6) 0.6966(6)
C31A C 0.1092(6) 0.8250(7) 0.5856(5)
C32A C -0.0098(5) 0.7718(6) 0.6216(6)
C34A C 0.3147(7) 0.5103(7) 0.5917(6)
C35A C 0.3123(7) 0.6825(7) 0.5794(6)
C36A C 0.4085(5) 0.6058(7) 0.6842(5)
H36A H 0.2258 0.7767 0.9054
H37A H 0.3153 0.7951 0.9492
H38A H 0.2863 0.8187 0.8690
H39A H 0.4096 0.6231 0.8753
H40A H 0.3973 0.7267 0.8507
H41A H 0.4263 0.7030 0.9309
H42A H 0.2393 0.6101 0.9386
H43A H 0.3097 0.5512 0.9266
H44A H 0.3278 0.6267 0.9857
H45A H 0.0672 0.8667 0.7343
H46A H 0.1448 0.8961 0.7151
H47A H 0.0607 0.9356 0.6722
H48A H 0.1011 0.7725 0.5548
H49A H 0.0816 0.8778 0.5604
H50A H 0.1656 0.8383 0.6033
H51A H -0.0163 0.7204 0.5898
H52A H -0.0264 0.7537 0.6615
H53A H -0.0421 0.8229 0.5983
H54A H 0.3251 0.4591 0.6239
H55A H 0.2607 0.5058 0.5609
H56A H 0.3519 0.5087 0.5646
H57A H 0.3186 0.7394 0.6053
H58A H 0.3496 0.6811 0.5523
H59A H 0.2584 0.6783 0.5486
H60A H 0.4149 0.5527 0.7143
H61A H 0.4493 0.6053 0.6607
H62A H 0.4133 0.6613 0.7116
C37 C 0.5666(8) 0.9642(13) 0.0459(8)
C38 C 0.5362(10) 1.0448(11) 0.0604(7)
C39 C 0.5287(11) 0.9199(9) -0.0144(8)
H63 H 0.6174 0.9444 0.0768
H64 H 0.5592 1.0733 0.1054
H65 H 0.5495 0.8606 -0.0222
C39B C 0.4713(11) 1.0801(9) 0.0144(8)
C38B C 0.4638(10) 0.9552(11) -0.0604(7)
C37B C 0.4334(8) 1.0358(13) -0.0459(8)
H65B H 0.4505 1.1394 0.0222
H64B H 0.4408 0.9267 -0.1054
H63B H 0.3826 1.0556 -0.0768
C40 C -0.0061(9) 0.5265(10) -0.0649(9)
C41 C 0.0619(10) 0.4840(10) -0.0272(9)
C42 C -0.0657(10) 0.5455(9) -0.0393(8)
H66 H -0.0177 0.5486 -0.1122
H67 H 0.1031 0.4751 -0.0496
H68 H -0.1138 0.5788 -0.0628
C42B C 0.0657(10) 0.4545(9) 0.0393(8)
C41B C -0.0619(10) 0.5160(10) 0.0272(9)
C40B C 0.0061(9) 0.4735(10) 0.0649(9)
H68B H 0.1138 0.4212 0.0628
H67B H -0.1031 0.5249 0.0496
H66B H 0.0177 0.4514 0.1122
loop_
_geom_bond_atom_site_label_1
_geom_bond_atom_site_label_2
_geom_bond_site_symmetry_1
_geom_bond_site_symmetry_2
W1 N1 1_555 1_555
W2 N2 1_555 1_555
N1 C5 1_555 1_555
N2 C23 1_555 1_555
O1 W1 1_555 1_555
O2 W1 1_555 1_555
O3 W1 1_555 1_555
C1 W1 1_555 1_555
C2 C1 1_555 1_555
C3 C2 1_555 1_555
C4 C3 1_555 1_555
C5 H3 1_555 1_555
C6 N1 1_555 1_555
C7 O1 1_555 1_555
C8 C7 1_555 1_555
C9 C7 1_555 1_555
C10 C7 1_555 1_555
C11 O2 1_555 1_555
C12 C11 1_555 1_555
C13 C11 1_555 1_555
C14 C11 1_555 1_555
C15 O3 1_555 1_555
C16 C15 1_555 1_555
C17 C15 1_555 1_555
C18 C15 1_555 1_555
O4 W2 1_555 1_555
O5 W2 1_555 1_555
O6 W2 1_555 1_555
C19 W2 1_555 1_555
C20 C19 1_555 1_555
C21 C20 1_555 1_555
C22 C21 1_555 1_555
C23 H34 1_555 1_555
C24 N2 1_555 1_555
C25 O4 1_555 1_555
C26 C25 1_555 1_555
C27 C25 1_555 1_555
C28 C25 1_555 1_555
C29 O5 1_555 1_555
C30 C29 1_555 1_555
C31 C29 1_555 1_555
C32 C29 1_555 1_555
C33 O6 1_555 1_555
C34 C33 1_555 1_555
C35 C33 1_555 1_555
C36 C33 1_555 1_555
C37 C38 1_555 1_555
C38 H64 1_555 1_555
C39 C37 1_555 1_555
C40 C41 1_555 1_555
C41 H67 1_555 1_555
C42 C40 1_555 1_555
H1 C3 1_555 1_555
H2 C4 1_555 1_555
H4 C6 1_555 1_555
H5 C8 1_555 1_555
H6 C8 1_555 1_555
H7 C8 1_555 1_555
H8 C9 1_555 1_555
H9 C9 1_555 1_555
H10 C9 1_555 1_555
H11 C10 1_555 1_555
H12 C10 1_555 1_555
H13 C10 1_555 1_555
H14 C12 1_555 1_555
H15 C12 1_555 1_555
H16 C12 1_555 1_555
H17 C13 1_555 1_555
H18 C13 1_555 1_555
H19 C13 1_555 1_555
H20 C14 1_555 1_555
H21 C14 1_555 1_555
H22 C14 1_555 1_555
H23 C16 1_555 1_555
H24 C16 1_555 1_555
H25 C16 1_555 1_555
H26 C17 1_555 1_555
H27 C17 1_555 1_555
H28 C17 1_555 1_555
H29 C18 1_555 1_555
H30 C18 1_555 1_555
H31 C18 1_555 1_555
H32 C21 1_555 1_555
H33 C22 1_555 1_555
H35 C24 1_555 1_555
H36 C26 1_555 1_555
H37 C26 1_555 1_555
H38 C26 1_555 1_555
H39 C27 1_555 1_555
H40 C27 1_555 1_555
H41 C27 1_555 1_555
H42 C28 1_555 1_555
H43 C28 1_555 1_555
H44 C28 1_555 1_555
H45 C30 1_555 1_555
H46 C30 1_555 1_555
H47 C30 1_555 1_555
H48 C31 1_555 1_555
H49 C31 1_555 1_555
H50 C31 1_555 1_555
H51 C32 1_555 1_555
H52 C32 1_555 1_555
H53 C32 1_555 1_555
H54 C34 1_555 1_555
H55 C34 1_555 1_555
H56 C34 1_555 1_555
H57 C35 1_555 1_555
H58 C35 1_555 1_555
H59 C35 1_555 1_555
H60 C36 1_555 1_555
H61 C36 1_555 1_555
H62 C36 1_555 1_555
H63 C37 1_555 1_555
H65 C39 1_555 1_555
H66 C40 1_555 1_555
H68 C42 1_555 1_555
C6A C2 1_555 1_555
C5A C4 1_555 1_555
C4A C5 1_555 1_555
C2A C6 1_555 1_555
N1A C6A 1_555 1_555
H4A C6A 1_555 1_555
H3A C5A 1_555 1_555
C3A C4A 1_555 1_555
H2A C4A 1_555 1_555
C1A C2A 1_555 1_555
W1A N1A 1_555 1_555
H1A C3A 1_555 1_555
W1A_2 C1A 1_555 1_555
O1A W1A 1_555 1_555
O2A W1A 1_555 1_555
O3A W1A 1_555 1_555
C1A_2 W1A 1_555 1_555
C7A O1A 1_555 1_555
C11A O2A 1_555 1_555
C15A O3A 1_555 1_555
C8A C7A 1_555 1_555
C9A C7A 1_555 1_555
C10A C7A 1_555 1_555
C12A C11A 1_555 1_555
C13A C11A 1_555 1_555
C14A C11A 1_555 1_555
C16A C15A 1_555 1_555
C17A C15A 1_555 1_555
C18A C15A 1_555 1_555
H5A C8A 1_555 1_555
H6A C8A 1_555 1_555
H7A C8A 1_555 1_555
H8A C9A 1_555 1_555
H9A C9A 1_555 1_555
H10A C9A 1_555 1_555
H11A C10A 1_555 1_555
H12A C10A 1_555 1_555
H13A C10A 1_555 1_555
H14A C12A 1_555 1_555
H15A C12A 1_555 1_555
H16A C12A 1_555 1_555
H17A C13A 1_555 1_555
H18A C13A 1_555 1_555
H19A C13A 1_555 1_555
H20A C14A 1_555 1_555
H21A C14A 1_555 1_555
H22A C14A 1_555 1_555
H23A C16A 1_555 1_555
H24A C16A 1_555 1_555
H25A C16A 1_555 1_555
H26A C17A 1_555 1_555
H27A C17A 1_555 1_555
H28A C17A 1_555 1_555
H29A C18A 1_555 1_555
H30A C18A 1_555 1_555
H31A C18A 1_555 1_555
C24A C20 1_555 1_555
C23A C22 1_555 1_555
C22A C23 1_555 1_555
C20A C24 1_555 1_555
N2A C24A 1_555 1_555
H35A C24A 1_555 1_555
H34A C23A 1_555 1_555
C21A C22A 1_555 1_555
H33A C22A 1_555 1_555
C19A C20A 1_555 1_555
W2A N2A 1_555 1_555
H32A C21A 1_555 1_555
W2A_2 C19A 1_555 1_555
O4A W2A 1_555 1_555
O5A W2A 1_555 1_555
O6A W2A 1_555 1_555
C19A_2 W2A 1_555 1_555
C25A O4A 1_555 1_555
C29A O5A 1_555 1_555
C33A O6A 1_555 1_555
C26A C25A 1_555 1_555
C27A C25A 1_555 1_555
C28A C25A 1_555 1_555
C30A C29A 1_555 1_555
C31A C29A 1_555 1_555
C32A C29A 1_555 1_555
C34A C33A 1_555 1_555
C35A C33A 1_555 1_555
C36A C33A 1_555 1_555
H36A C26A 1_555 1_555
H37A C26A 1_555 1_555
H38A C26A 1_555 1_555
H39A C27A 1_555 1_555
H40A C27A 1_555 1_555
H41A C27A 1_555 1_555
H42A C28A 1_555 1_555
H43A C28A 1_555 1_555
H44A C28A 1_555 1_555
H45A C30A 1_555 1_555
H46A C30A 1_555 1_555
H47A C30A 1_555 1_555
H48A C31A 1_555 1_555
H49A C31A 1_555 1_555
H50A C31A 1_555 1_555
H51A C32A 1_555 1_555
H52A C32A 1_555 1_555
H53A C32A 1_555 1_555
H54A C34A 1_555 1_555
H55A C34A 1_555 1_555
H56A C34A 1_555 1_555
H57A C35A 1_555 1_555
H58A C35A 1_555 1_555
H59A C35A 1_555 1_555
H60A C36A 1_555 1_555
H61A C36A 1_555 1_555
H62A C36A 1_555 1_555
C39B C38 1_555 1_555
C38B C39 1_555 1_555
C37B C39B 1_555 1_555
H65B C39B 1_555 1_555
H64B C38B 1_555 1_555
H63B C37B 1_555 1_555
C42B C41 1_555 1_555
C41B C42 1_555 1_555
C40B C42B 1_555 1_555
H68B C42B 1_555 1_555
H67B C41B 1_555 1_555
H66B C40B 1_555 1_555
C5A N1A 1_555 1_555
C2A C3A 1_555 1_555
C23A N2A 1_555 1_555
C20A C21A 1_555 1_555
C38B C37B 1_555 1_555
C41B C40B 1_555 1_555

#END
