
#######################################################################
#
#                 Cambridge Crystallographic Data Centre
#                                CCDC 
#
#######################################################################
#
# If this CIF has been generated from an entry in the Cambridge 
# Structural Database, then it will include bibliographic, chemical, 
# crystal, experimental, refinement or atomic coordinate data resulting 
# from the CCDC's data processing and validation procedures.
#
#######################################################################

data_POBXIO
_symmetry_cell_setting           orthorhombic
_symmetry_space_group_name_H-M   'P 21 21 21'
_symmetry_Int_Tables_number      19
_space_group_name_Hall           'P 2ac 2ab'
loop_
_symmetry_equiv_pos_site_id
_symmetry_equiv_pos_as_xyz
1 x,y,z
2 1/2-x,-y,1/2+z
3 -x,1/2+y,1/2-z
4 1/2+x,1/2-y,-z
_cell_length_a                   13.2810(2)
_cell_length_b                   19.3451(3)
_cell_length_c                   23.2401(4)
_cell_angle_alpha                90
_cell_angle_beta                 90
_cell_angle_gamma                90
_cell_volume                     5970.9
loop_
_atom_site_label
_atom_site_type_symbol
_atom_site_fract_x
_atom_site_fract_y
_atom_site_fract_z
Ni1 Ni -1.04484(12) 0.38550(8) 0.14096(7)
Ni2 Ni -1.21550(11) 0.37753(8) 0.22328(7)
Ni3 Ni -1.01035(11) 0.31765(8) 0.26352(7)
Ni4 Ni -1.39557(11) 0.39087(8) 0.30792(8)
Ni5 Ni -1.19561(11) 0.32242(8) 0.34877(7)
Ni6 Ni -0.99863(11) 0.27432(8) 0.39348(7)
W1 W -1.18181(4) 0.14256(2) 0.38558(2)
W2 W -0.96381(3) 0.13845(2) 0.28780(2)
W3 W -0.98623(4) 0.19990(3) 0.14901(2)
W4 W -1.10422(4) 0.04706(3) 0.18850(2)
W5 W -1.32310(4) 0.05061(3) 0.28776(2)
W6 W -1.35089(4) 0.11651(3) 0.13834(3)
W7 W -1.43058(4) 0.27403(3) 0.19135(2)
W8 W -1.40525(3) 0.20827(3) 0.33963(2)
W9 W -1.23154(4) 0.26710(3) 0.09907(2)
S1 S -1.2366(3) 0.5573(2) 0.03338(17)
P1 P -1.1984(2) 0.20875(15) 0.24296(13)
O1 O -1.1822(6) 0.3337(5) 0.1456(4)
O2 O -1.0688(6) 0.4026(4) 0.2259(4)
O3 O -0.9884(6) 0.2846(4) 0.1805(4)
O4 O -1.3622(6) 0.3432(4) 0.2267(4)
O5 O -1.2442(6) 0.4035(4) 0.3046(4)
O6 O -1.1656(6) 0.2830(4) 0.2631(4)
O7 O -1.0492(6) 0.3488(4) 0.3411(3)
O8 O -0.9717(6) 0.2279(4) 0.3079(4)
O9 O -1.1420(6) 0.2311(4) 0.3821(4)
O10 O -1.3452(6) 0.2914(4) 0.3435(4)
O11 O -1.1327(8) 0.4688(5) 0.1141(5)
O12 O -1.2576(7) 0.4651(4) 0.1816(4)
O13 O -1.2935(6) 0.6361(4) -0.0714(4)
O14 O -1.4435(7) 0.6712(5) -0.0377(4)
O15 O -1.4513(6) 0.1814(5) 0.1542(4)
O16 O -1.3208(6) 0.1720(4) 0.3978(4)
O17 O -1.4216(6) 0.1097(4) 0.3189(4)
O18 O -1.2195(8) 0.3000(5) 0.0319(4)
O19 O -1.5157(6) 0.2216(5) 0.3760(4)
O20 O -0.8567(7) 0.1133(5) 0.3234(4)
O21 O -1.0854(7) -0.0349(4) 0.1629(4)
O22 O -1.0048(7) 0.0522(4) 0.2453(4)
O23 O -1.4084(8) 0.0583(5) 0.0965(5)
O24 O -0.9089(6) 0.1650(4) 0.2128(4)
O25 O -1.2965(7) 0.1773(5) 0.0829(4)
O26 O -1.1983(6) 0.0305(5) 0.2485(4)
O27 O -1.2712(6) 0.2135(4) 0.1911(4)
O28 O -1.3706(6) 0.0774(4) 0.2136(4)
O29 O -1.1061(6) 0.2175(4) 0.1054(4)
O30 O -1.0215(6) 0.1005(4) 0.1393(4)
O31 O -1.2181(7) 0.0765(4) 0.1443(4)
O32 O -0.8967(7) 0.2082(5) 0.0973(4)
O33 O -1.2520(6) 0.1707(4) 0.2920(4)
O34 O -1.3680(6) 0.2951(4) 0.1191(4)
O35 O -1.4485(6) 0.2266(4) 0.2612(4)
O36 O -1.3785(7) -0.0299(4) 0.2945(5)
O37 O -1.1469(7) 0.1169(5) 0.4539(4)
O38 O -1.5494(6) 0.3074(5) 0.1825(5)
O39 O -1.0646(6) 0.1130(4) 0.3420(4)
O40 O -1.1057(6) 0.1669(4) 0.2241(4)
O41 O -1.2489(6) 0.0560(4) 0.3549(4)
N1 N -0.9132(10) 0.4394(7) 0.1353(6)
H1 H -0.9199 0.4808 0.1526
H2 H -0.8636 0.4161 0.1531
N2 N -1.0121(9) 0.3627(6) 0.0557(5)
H3 H -1.0205 0.3172 0.0493
H4 H -1.0542 0.3860 0.0324
N3 N -1.5484(7) 0.3684(5) 0.3072(5)
H5 H -1.5775 0.3862 0.2756
H6 H -1.5580 0.3224 0.3072
N4 N -1.4224(8) 0.4242(6) 0.3904(6)
H7 H -1.3718 0.4110 0.4137
H8 H -1.4266 0.4706 0.3912
N5 N -1.4175(8) 0.4846(6) 0.2660(6)
H9 H -1.3912 0.4819 0.2304
H10 H -1.4841 0.4923 0.2624
N6 N -1.3093(11) 0.6657(9) 0.2899(8)
H11 H -1.3116 0.7042 0.2690
H12 H -1.2458 0.6513 0.2926
H13 H -1.3335 0.6740 0.3249
N7 N -0.8556(8) 0.3125(7) 0.4054(5)
H14 H -0.8204 0.3096 0.3724
H15 H -0.8585 0.3572 0.4159
N8 N -0.9429(9) 0.1986(6) 0.4489(5)
H16 H -0.9926 0.1810 0.4708
H17 H -0.9142 0.1640 0.4289
C1 C -1.2835(12) 0.5257(7) 0.0965(8)
C2 C -1.3795(12) 0.5488(7) 0.1068(7)
H18 H -1.4161 0.5375 0.1395
C3 C -1.4165(12) 0.5914(8) 0.0627(7)
H19 H -1.4803 0.6112 0.0628
C4 C -1.3474(10) 0.6004(7) 0.0192(7)
C5 C -1.2198(10) 0.4820(6) 0.1337(6)
C6 C -1.3615(7) 0.6370(6) -0.0329(5)
C7 C -0.8889(15) 0.4487(10) 0.0766(8)
H20 H -0.8179 0.4595 0.0726
H21 H -0.9276 0.4867 0.0607
C8 C -0.9135(13) 0.3813(11) 0.0441(8)
H22 H -0.9047 0.3882 0.0031
H23 H -0.8682 0.3448 0.0564
C9 C -1.5915(11) 0.3987(10) 0.3583(8)
H24 H -1.6545 0.3757 0.3671
H25 H -1.6061 0.4471 0.3511
C10 C -1.5199(13) 0.3926(8) 0.4102(8)
H26 H -1.5466 0.4176 0.4431
H27 H -1.5104 0.3446 0.4209
C11 C -1.3689(16) 0.5466(9) 0.2981(9)
H28 H -1.4053 0.5546 0.3337
H29 H -1.3000 0.5349 0.3080
C12 C -1.3692(15) 0.6129(8) 0.2624(10)
H30 H -1.3425 0.6034 0.2244
H31 H -1.4378 0.6293 0.2580
C13 C -0.8064(12) 0.2714(10) 0.4506(8)
H32 H -0.7585 0.2404 0.4325
H33 H -0.7687 0.3025 0.4752
C14 C -0.8694(14) 0.2334(9) 0.4839(8)
H34 H -0.9033 0.2634 0.5112
H35 H -0.8308 0.1996 0.5054
O42 O -0.8618(7) 0.3503(5) 0.2688(4)
Ni5A Ni -1.30439(11) 0.67758(8) -0.15123(7)
Ni6A Ni -1.50137(11) 0.72568(8) -0.10652(7)
O13A O -1.2065(6) 0.3639(4) 0.4286(4)
O14A O -1.0565(7) 0.3288(5) 0.4623(4)
O43 O -0.7570(10) 0.3235(9) 0.1713(6)
O44 O -1.7076(12) 0.2273(11) 0.3228(11)
O45 O -0.8432(10) 0.0137(9) 0.1257(10)
O46 O -1.340(2) 0.701(2) 0.4092(11)
O47 O -1.238(3) -0.0279(13) 0.0343(12)
O48 O -1.1188(7) 0.0967(4) 0.0277(4)
loop_
_geom_bond_atom_site_label_1
_geom_bond_atom_site_label_2
_geom_bond_site_symmetry_1
_geom_bond_site_symmetry_2
Ni1 O1 1_555 1_555
Ni2 O1 1_555 1_555
Ni3 O2 1_555 1_555
Ni4 O4 1_555 1_555
Ni5 O5 1_555 1_555
Ni6 O7 1_555 1_555
W1 O9 1_555 1_555
W2 O8 1_555 1_555
W3 O3 1_555 1_555
W4 O21 1_555 1_555
W5 O17 1_555 1_555
W6 O15 1_555 1_555
W7 O4 1_555 1_555
W8 O10 1_555 1_555
W9 O1 1_555 1_555
S1 C1 1_555 1_555
P1 O6 1_555 1_555
O2 Ni1 1_555 1_555
O3 Ni1 1_555 1_555
O4 Ni2 1_555 1_555
O5 Ni2 1_555 1_555
O6 Ni2 1_555 1_555
O7 Ni3 1_555 1_555
O8 Ni3 1_555 1_555
O9 Ni5 1_555 1_555
O10 Ni4 1_555 1_555
O11 Ni1 1_555 1_555
O12 Ni2 1_555 1_555
O13 C6 1_555 1_555
O14 C6 1_555 1_555
O15 W7 1_555 1_555
O16 W1 1_555 1_555
O17 W8 1_555 1_555
O18 W9 1_555 1_555
O19 W8 1_555 1_555
O20 W2 1_555 1_555
O22 W2 1_555 1_555
O23 W6 1_555 1_555
O24 W2 1_555 1_555
O25 W6 1_555 1_555
O26 W4 1_555 1_555
O27 W6 1_555 1_555
O28 W5 1_555 1_555
O29 W3 1_555 1_555
O30 W3 1_555 1_555
O31 W4 1_555 1_555
O32 W3 1_555 1_555
O33 W1 1_555 1_555
O34 W7 1_555 1_555
O35 W7 1_555 1_555
O36 W5 1_555 1_555
O37 W1 1_555 1_555
O38 W7 1_555 1_555
O39 W1 1_555 1_555
O40 W2 1_555 1_555
O41 W1 1_555 1_555
N1 Ni1 1_555 1_555
H1 N1 1_555 1_555
H2 N1 1_555 1_555
N2 Ni1 1_555 1_555
H3 N2 1_555 1_555
H4 N2 1_555 1_555
N3 Ni4 1_555 1_555
H5 N3 1_555 1_555
H6 N3 1_555 1_555
N4 Ni4 1_555 1_555
H7 N4 1_555 1_555
H8 N4 1_555 1_555
N5 Ni4 1_555 1_555
H9 N5 1_555 1_555
H10 N5 1_555 1_555
N6 H11 1_555 1_555
H12 N6 1_555 1_555
H13 N6 1_555 1_555
N7 Ni6 1_555 1_555
H14 N7 1_555 1_555
H15 N7 1_555 1_555
N8 Ni6 1_555 1_555
H16 N8 1_555 1_555
H17 N8 1_555 1_555
C1 C2 1_555 1_555
C2 H18 1_555 1_555
C3 C2 1_555 1_555
H19 C3 1_555 1_555
C4 S1 1_555 1_555
C5 O11 1_555 1_555
C6 C4 1_555 1_555
C7 N1 1_555 1_555
H20 C7 1_555 1_555
H21 C7 1_555 1_555
C8 N2 1_555 1_555
H22 C8 1_555 1_555
H23 C8 1_555 1_555
C9 N3 1_555 1_555
H24 C9 1_555 1_555
H25 C9 1_555 1_555
C10 N4 1_555 1_555
H26 C10 1_555 1_555
H27 C10 1_555 1_555
C11 N5 1_555 1_555
H28 C11 1_555 1_555
H29 C11 1_555 1_555
C12 N6 1_555 1_555
H30 C12 1_555 1_555
H31 C12 1_555 1_555
C13 N7 1_555 1_555
H32 C13 1_555 1_555
H33 C13 1_555 1_555
C14 N8 1_555 1_555
H34 C14 1_555 1_555
H35 C14 1_555 1_555
O42 Ni3 1_555 1_555
Ni5A O13 1_555 1_555
Ni6A O14 1_555 1_555
O13A Ni5 1_555 1_555
O14A Ni6 1_555 1_555
Ni2 O2 1_555 1_555
Ni3 O3 1_555 1_555
Ni3 O6 1_555 1_555
Ni4 O5 1_555 1_555
Ni5 O6 1_555 1_555
Ni5 O7 1_555 1_555
Ni5 O10 1_555 1_555
Ni6 O8 1_555 1_555
Ni6 O9 1_555 1_555
W2 O39 1_555 1_555
W3 O24 1_555 1_555
W3 O40 1_555 1_555
W4 O22 1_555 1_555
W4 O30 1_555 1_555
W4 O40 1_555 1_555
W5 O26 1_555 1_555
W5 O33 1_555 1_555
W5 O41 1_555 1_555
W6 O28 1_555 1_555
W6 O31 1_555 1_555
W7 O27 1_555 1_555
W8 O16 1_555 1_555
W8 O33 1_555 1_555
W8 O35 1_555 1_555
W9 O25 1_555 1_555
W9 O27 1_555 1_555
W9 O29 1_555 1_555
W9 O34 1_555 1_555
P1 O27 1_555 1_555
P1 O33 1_555 1_555
P1 O40 1_555 1_555
O12 C5 1_555 1_555
C1 C5 1_555 1_555
C3 C4 1_555 1_555
C7 C8 1_555 1_555
C9 C10 1_555 1_555
C11 C12 1_555 1_555
C13 C14 1_555 1_555

#END
