
#######################################################################
#
#                 Cambridge Crystallographic Data Centre
#                                CCDC 
#
#######################################################################
#
# If this CIF has been generated from an entry in the Cambridge 
# Structural Database, then it will include bibliographic, chemical, 
# crystal, experimental, refinement or atomic coordinate data resulting 
# from the CCDC's data processing and validation procedures.
#
#######################################################################

data_POBXOU
_symmetry_cell_setting           triclinic
_symmetry_space_group_name_H-M   'P -1'
_symmetry_Int_Tables_number      2
_space_group_name_Hall           '-P 1'
loop_
_symmetry_equiv_pos_site_id
_symmetry_equiv_pos_as_xyz
1 x,y,z
2 -x,-y,-z
_cell_length_a                   12.7821(8)
_cell_length_b                   19.7680(14)
_cell_length_c                   25.3812(18)
_cell_angle_alpha                86.894(13)
_cell_angle_beta                 89.870(18)
_cell_angle_gamma                79.587(13)
_cell_volume                     6298.16
loop_
_atom_site_label
_atom_site_type_symbol
_atom_site_fract_x
_atom_site_fract_y
_atom_site_fract_z
Ni1 Ni 1.3950(3) -0.2490(2) -0.11815(17)
Ni2 Ni 1.3916(3) -0.24004(18) -0.24194(16)
Ni3 Ni 1.2840(3) -0.34430(18) -0.17304(16)
Ni4 Ni 1.3977(3) -0.2499(2) -0.36346(17)
Ni5 Ni 1.2830(3) -0.34785(19) -0.29598(16)
Ni6 Ni 1.1920(3) -0.45728(19) -0.22584(18)
Ni7 Ni 0.7979(3) 0.10624(19) -0.13180(15)
Ni8 Ni 0.8086(3) 0.11531(17) -0.25621(15)
Ni9 Ni 0.5956(3) 0.12846(17) -0.19375(15)
Ni10 Ni 0.7974(3) 0.1040(2) -0.37821(17)
Ni11 Ni 0.5952(3) 0.12714(19) -0.31785(16)
Ni12 Ni 0.3873(3) 0.1347(2) -0.2555(2)
W1 W 1.11626(11) -0.21729(7) -0.10186(5)
W2 W 1.00372(10) -0.33696(6) -0.16214(5)
W3 W 1.00521(9) -0.33987(6) -0.30688(5)
W4 W 1.11984(10) -0.22366(7) -0.38080(5)
W5 W 1.24545(9) -0.09712(6) -0.31535(6)
W6 W 1.24652(10) -0.09528(6) -0.18019(6)
W7 W 0.88184(10) -0.16583(7) -0.17122(6)
W8 W 1.01434(9) -0.04224(6) -0.24988(5)
W9 W 0.88446(9) -0.16813(6) -0.31700(6)
W10 W 0.64043(10) 0.26824(7) -0.40298(5)
W11 W 0.89459(10) 0.25055(7) -0.33058(5)
W12 W 0.89391(9) 0.25215(6) -0.19566(5)
W13 W 0.64105(10) 0.27147(6) -0.12324(5)
W14 W 0.40794(9) 0.28535(6) -0.19073(5)
W15 W 0.40785(9) 0.28350(6) -0.33570(5)
W16 W 0.80173(10) 0.40149(6) -0.27068(6)
W17 W 0.54550(10) 0.41836(6) -0.34318(5)
W18 W 0.54719(10) 0.42008(6) -0.19760(5)
P1 P 0.6469(5) 0.2648(3) -0.2636(3)
P2 P 1.1275(5) -0.2211(3) -0.2412(3)
O1 O 1.4192(17) -0.3077(10) -0.1798(8)
H1 H 1.4854 -0.3416 -0.1799
O2 O 0.6138(17) 0.2833(10) -0.3127(8)
O3 O 1.0631(13) -0.2331(8) -0.2886(7)
O4 O 0.5871(13) 0.2974(8) -0.2176(7)
O5 O 0.9594(16) 0.2448(14) -0.2623(9)
O6 O 0.6558(16) 0.1854(9) -0.2596(9)
O7 O 1.4208(13) -0.3124(9) -0.2965(8)
H2 H 1.4871 -0.3462 -0.2931
O8 O 1.1621(16) -0.1390(10) -0.3624(9)
O9 O 0.5397(18) 0.0826(9) -0.2553(10)
H3 H 0.5502 0.0322 -0.2533
O10 O 0.4902(18) 0.2754(12) -0.1272(9)
O11 O 0.6545(14) 0.2632(9) -0.0487(8)
O12 O 1.0493(16) -0.3025(11) -0.3754(9)
O13 O 0.6870(15) 0.4197(11) -0.2211(9)
O14 O 1.1224(15) -0.2153(9) -0.4547(8)
O15 O 0.9804(14) -0.3406(8) -0.2410(7)
O16 O 0.690(2) 0.4183(13) -0.3211(9)
O17 O 1.3121(19) -0.0488(14) -0.1409(11)
O18 O 1.1168(17) -0.0304(10) -0.3044(9)
O19 O 1.002(2) 0.2403(11) -0.1533(12)
O20 O 0.8807(16) 0.3518(10) -0.3221(11)
O21 O 1.1419(16) -0.3806(10) -0.2872(8)
O22 O 1.2393(17) -0.2682(10) -0.1233(9)
O23 O 0.6659(16) 0.1846(9) -0.1430(9)
O24 O 0.8812(15) -0.2599(10) -0.1569(9)
O25 O 0.7410(15) 0.0698(10) -0.3114(8)
H4 H 0.7453 0.0198 -0.3064
O26 O 0.6035(17) 0.3685(10) -0.4025(8)
O27 O 0.4183(18) 0.3855(10) -0.1874(9)
O28 O 0.9426(17) -0.0928(11) -0.2986(9)
O29 O 1.2328(14) -0.2717(10) -0.2384(7)
O30 O 1.0680(17) -0.2311(10) -0.1896(9)
O31 O 0.8619(15) 0.1670(11) -0.1964(7)
O32 O 0.8586(14) 0.1664(9) -0.3206(7)
O33 O 0.4177(16) 0.3802(9) -0.3522(8)
O34 O 0.4867(16) 0.2715(11) -0.3996(8)
O35 O 0.7574(13) 0.2849(9) -0.2644(7)
O36 O 0.7409(13) 0.0700(10) -0.1960(7)
H5 H 0.7448 0.0201 -0.1963
O37 O 1.3400(17) -0.1761(10) -0.3064(8)
O38 O 0.9367(15) 0.0387(9) -0.2533(8)
O39 O 0.2815(17) 0.2894(11) -0.1660(10)
O40 O 0.9668(17) -0.1671(12) -0.1105(10)
O41 O 0.9421(17) -0.0885(10) -0.1969(10)
O42 O 1.3221(15) -0.4118(10) -0.2306(9)
H6 H 1.3924 -0.4414 -0.2291
O43 O 1.0512(18) -0.2988(12) -0.1030(9)
O44 O 1.1174(16) -0.0305(9) -0.1987(9)
O45 O 0.7035(16) 0.0547(13) -0.0837(10)
O46 O 0.8826(16) -0.2633(11) -0.3218(9)
O47 O 1.1367(16) -0.3770(9) -0.1762(8)
O48 O 0.5510(16) 0.0706(12) -0.1323(8)
O49 O 1.1494(13) -0.1467(9) -0.2445(7)
O50 O 1.3395(16) -0.1735(9) -0.1830(8)
O51 O 0.4491(16) 0.1932(10) -0.3162(9)
O52 O 0.7786(14) 0.2792(9) -0.1497(9)
O53 O 1.337(2) -0.4100(11) -0.1108(9)
O54 O 0.549(2) 0.0687(12) -0.3732(9)
O55 O 1.2424(16) -0.2746(10) -0.3543(8)
O56 O 0.947(2) -0.4058(12) -0.3294(10)
O57 O 0.2798(17) 0.2893(12) -0.3596(11)
O58 O 1.309(2) -0.0506(13) -0.3608(10)
O59 O 0.4556(15) 0.1958(9) -0.2025(8)
O60 O 0.3951(14) 0.2981(8) -0.2568(7)
O61 O 0.5389(13) 0.4230(8) -0.2541(7)
O62 O 0.952(2) -0.4027(15) -0.1326(12)
O63 O 1.425(2) -0.3348(12) -0.0691(11)
O64 O 0.7594(19) -0.1258(13) -0.1516(10)
O65 O 0.999(2) 0.2384(15) -0.3737(11)
O66 O 0.7029(18) 0.0543(13) -0.4222(10)
O67 O 0.667(2) 0.2585(17) -0.4688(10)
O68 O 0.7628(18) -0.1311(16) -0.3429(11)
O69 O 0.7814(17) 0.2787(13) -0.3793(10)
O70 O 0.5110(18) 0.5016(12) -0.3738(12)
O71 O 0.9695(17) -0.1745(11) -0.3789(10)
O72 O 1.2905(18) -0.0652(11) -0.2494(10)
O73 O 0.8486(19) 0.4751(13) -0.2732(13)
O74 O 1.138(3) -0.2088(17) -0.0374(12)
O75 O 0.8662(13) -0.1743(8) -0.2455(7)
O76 O 0.6022(17) 0.3716(10) -0.1350(9)
O77 O 0.8826(15) 0.3517(10) -0.2152(10)
O78 O 0.6646(18) 0.1808(11) -0.3753(10)
O79 O 1.1634(18) -0.1363(11) -0.1283(11)
O80 O 0.5063(17) 0.5016(12) -0.1765(10)
N1 N 1.366(2) -0.1915(17) -0.0538(11)
H7 H 1.3355 -0.1479 -0.0631
H8 H 1.3246 -0.2098 -0.0306
N2 N 1.541(3) -0.2244(18) -0.1123(13)
H9 H 1.5878 -0.2625 -0.1020
H10 H 1.5606 -0.2095 -0.1442
N3 N 1.249(2) -0.5325(15) -0.2771(15)
H11 H 1.2659 -0.5136 -0.3084
H12 H 1.3078 -0.5604 -0.2637
N4 N 1.542(2) -0.2176(19) -0.3659(14)
H13 H 1.5598 -0.2051 -0.3340
H14 H 1.5938 -0.2510 -0.3767
N5 N 1.366(3) -0.1903(17) -0.4302(13)
H15 H 1.3399 -0.2133 -0.4552
H16 H 1.3187 -0.1521 -0.4243
N6 N 1.064(2) -0.5050(15) -0.2173(14)
H17 H 1.0470 -0.5105 -0.1830
H18 H 1.0066 -0.4808 -0.2348
N7 N 0.860(3) 0.1456(18) -0.4434(14)
H19 H 0.8101 0.1572 -0.4688
H20 H 0.8845 0.1838 -0.4353
N8 N 0.928(2) 0.0284(16) -0.3848(13)
H21 H 0.9650 0.0217 -0.3542
H22 H 0.9081 -0.0114 -0.3922
N9 N 0.862(2) 0.1468(15) -0.0706(11)
H23 H 0.8859 0.1853 -0.0819
H24 H 0.8130 0.1580 -0.0457
N10 N 0.932(2) 0.0333(15) -0.1212(12)
H25 H 0.9121 -0.0080 -0.1149
H26 H 0.9689 0.0314 -0.1513
N11 N 0.230(2) 0.1832(15) -0.2556(15)
H27 H 0.2093 0.1951 -0.2230
H28 H 0.2198 0.2214 -0.2774
N12 N 0.352(3) 0.0735(18) -0.314(2)
H29 H 0.3848 0.0809 -0.3445
H30 H 0.3654 0.0283 -0.3039
C1 C 0.607(2) 0.0521(17) -0.4145(11)
C2 C 1.405(3) -0.3922(18) -0.0747(14)
C3 C 0.603(2) 0.0523(15) -0.0910(13)
C4 C 0.550(3) 0.023(2) -0.0449(18)
C5 C 0.440(3) 0.0246(19) -0.4558(16)
C6 C 0.546(3) 0.0233(16) -0.4578(15)
C7 C 0.610(3) -0.001(3) 0.0036(16)
C8 C 0.439(3) 0.023(3) -0.0487(17)
C9 C 1.524(8) -0.157(5) -0.405(3)
C10 C 1.473(4) -0.171(3) -0.448(2)
H35 H 1.5159 -0.2097 -0.4649
H36 H 1.4611 -0.1319 -0.4729
C11 C 0.999(4) 0.052(2) -0.4301(19)
H37 H 1.0556 0.0714 -0.4152
H38 H 1.0304 0.0124 -0.4494
C12 C 1.101(4) -0.574(3) -0.241(4)
H39 H 1.1407 -0.6051 -0.2144
H40 H 1.0386 -0.5930 -0.2500
C13 C 0.946(4) 0.099(2) -0.050(2)
H41 H 0.9187 0.0777 -0.0185
H42 H 0.9980 0.1246 -0.0375
C14 C 0.944(4) 0.096(3) -0.461(2)
H43 H 0.9144 0.0707 -0.4873
H44 H 0.9934 0.1208 -0.4795
C15 C 1.160(4) -0.572(3) -0.283(2)
H45 H 1.1153 -0.5505 -0.3128
H46 H 1.1899 -0.6185 -0.2920
C16 C 1.002(4) 0.045(3) -0.0772(19)
H47 H 1.0203 0.0038 -0.0542
H48 H 1.0676 0.0573 -0.0911
C17 C 1.472(3) -0.5147(17) -0.0479(15)
C18 C 0.607(4) -0.003(2) -0.4994(16)
C19 C 1.486(3) -0.4287(19) 0.0115(16)
C20 C 1.453(3) -0.455(2) -0.0365(17)
C21 C 0.248(6) 0.100(4) -0.315(3)
C22 C 0.171(7) 0.133(5) -0.274(4)
C23 C 1.479(4) -0.194(3) -0.030(2)
H49 H 1.4777 -0.1613 -0.0032
H50 H 1.5079 -0.2400 -0.0153
C24 C 1.544(6) -0.176(4) -0.078(3)
H51 H 1.5137 -0.1304 -0.0933
H52 H 1.6171 -0.1752 -0.0672
O81 O 1.450(3) -0.3271(19) -0.4131(13)
O83 O 0.350(3) 0.0779(17) -0.1845(19)
O84 O 1.317(2) -0.4204(12) -0.3519(10)
O85 O 1.2556(19) -0.5160(12) -0.1546(10)
O86 O 1.5334(18) -0.2061(14) -0.2426(10)
Ni1A Ni 1.6050(3) -0.7510(2) 0.11815(17)
Ni2A Ni 1.6084(3) -0.75996(18) 0.24194(16)
Ni3A Ni 1.7160(3) -0.65570(18) 0.17304(16)
Ni4A Ni 1.6023(3) -0.7501(2) 0.36346(17)
Ni5A Ni 1.7170(3) -0.65215(19) 0.29598(16)
Ni6A Ni 1.8080(3) -0.54272(19) 0.22584(18)
Ni7A Ni 2.2021(3) -1.10624(19) 0.13180(15)
Ni7A_2 Ni 0.2021(3) -0.10624(19) 0.13180(15)
Ni8A Ni 2.1914(3) -1.11531(17) 0.25621(15)
Ni9A Ni 2.4044(3) -1.12846(17) 0.19375(15)
Ni9A_2 Ni 0.4044(3) -0.12846(17) 0.19375(15)
Ni10A Ni 2.2026(3) -1.1040(2) 0.37821(17)
Ni10A_2 Ni 0.2026(3) -0.1040(2) -0.62179(17)
Ni11A Ni 2.4048(3) -1.12714(19) 0.31785(16)
Ni11A_2 Ni 0.4048(3) -0.12714(19) -0.68215(16)
Ni12A Ni 2.6127(3) -1.1347(2) 0.2555(2)
W1A W 1.88374(11) -0.78271(7) 0.10186(5)
W2A W 1.99628(10) -0.66304(6) 0.16214(5)
W3A W 1.99479(9) -0.66013(6) 0.30688(5)
W4A W 1.88016(10) -0.77634(7) 0.38080(5)
W5A W 1.75455(9) -0.90288(6) 0.31535(6)
W6A W 1.75348(10) -0.90472(6) 0.18019(6)
W7A W 2.11816(10) -0.83417(7) 0.17122(6)
W8A W 1.98566(9) -0.95776(6) 0.24988(5)
W9A W 2.11554(9) -0.83187(6) 0.31700(6)
W10A W 2.35957(10) -1.26824(7) 0.40298(5)
W11A W 2.10541(10) -1.25055(7) 0.33058(5)
W12A W 2.10609(9) -1.25215(6) 0.19566(5)
W13A W 2.35895(10) -1.27147(6) 0.12324(5)
W14A W 2.59206(9) -1.28535(6) 0.19073(5)
W15A W 2.59215(9) -1.28350(6) 0.33570(5)
W16A W 2.19827(10) -1.40149(6) 0.27068(6)
W17A W 2.45450(10) -1.41836(6) 0.34318(5)
W18A W 2.45281(10) -1.42008(6) 0.19760(5)
P1A P 2.3531(5) -1.2648(3) 0.2636(3)
P2A P 1.8725(5) -0.7789(3) 0.2412(3)
O1A O 1.5808(17) -0.6923(10) 0.1798(8)
H1A H 1.5146 -0.6584 0.1799
O2A O 2.3862(17) -1.2833(10) 0.3127(8)
O3A O 1.9369(13) -0.7669(8) 0.2886(7)
O4A O 2.4129(13) -1.2974(8) 0.2176(7)
O5A O 2.0406(16) -1.2448(14) 0.2623(9)
O6A O 2.3442(16) -1.1854(9) 0.2596(9)
O7A O 1.5792(13) -0.6876(9) 0.2965(8)
H2A H 1.5129 -0.6538 0.2931
O8A O 1.8379(16) -0.8610(10) 0.3624(9)
O9A O 2.4603(18) -1.0826(9) 0.2553(10)
H3A H 2.4498 -1.0322 0.2533
O10A O 2.5098(18) -1.2754(12) 0.1272(9)
O11A O 2.3455(14) -1.2632(9) 0.0487(8)
O12A O 1.9507(16) -0.6975(11) 0.3754(9)
O13A O 2.3130(15) -1.4197(11) 0.2211(9)
O14A O 1.8776(15) -0.7847(9) 0.4547(8)
O15A O 2.0196(14) -0.6594(8) 0.2410(7)
O16A O 2.310(2) -1.4183(13) 0.3211(9)
O17A O 1.6879(19) -0.9512(14) 0.1409(11)
O18A O 1.8832(17) -0.9696(10) 0.3044(9)
O19A O 1.998(2) -1.2403(11) 0.1533(12)
O20A O 2.1193(16) -1.3518(10) 0.3221(11)
O21A O 1.8581(16) -0.6194(10) 0.2872(8)
O22A O 1.7607(17) -0.7318(10) 0.1233(9)
O23A O 2.3341(16) -1.1846(9) 0.1430(9)
O24A O 2.1188(15) -0.7401(10) 0.1569(9)
O25A O 2.2590(15) -1.0698(10) 0.3114(8)
H4A H 2.2547 -1.0198 0.3064
O26A O 2.3965(17) -1.3685(10) 0.4025(8)
O27A O 2.5817(18) -1.3855(10) 0.1874(9)
O28A O 2.0574(17) -0.9072(11) 0.2986(9)
O29A O 1.7672(14) -0.7283(10) 0.2384(7)
O30A O 1.9320(17) -0.7689(10) 0.1896(9)
O31A O 2.1381(15) -1.1670(11) 0.1964(7)
O32A O 2.1414(14) -1.1664(9) 0.3206(7)
O33A O 2.5823(16) -1.3802(9) 0.3522(8)
O34A O 2.5133(16) -1.2715(11) 0.3996(8)
O35A O 2.2426(13) -1.2849(9) 0.2644(7)
O36A O 2.2591(13) -1.0700(10) 0.1960(7)
H5A H 2.2552 -1.0201 0.1963
O37A O 1.6600(17) -0.8239(10) 0.3064(8)
O38A O 2.0633(15) -1.0387(9) 0.2533(8)
O39A O 2.7185(17) -1.2894(11) 0.1660(10)
O40A O 2.0332(17) -0.8329(12) 0.1105(10)
O41A O 2.0579(17) -0.9115(10) 0.1969(10)
O42A O 1.6779(15) -0.5882(10) 0.2306(9)
H6A H 1.6076 -0.5586 0.2291
O43A O 1.9488(18) -0.7012(12) 0.1030(9)
O44A O 1.8826(16) -0.9695(9) 0.1987(9)
O45A O 0.2965(16) -0.0547(13) 0.0837(10)
O45A_2 O 2.2965(16) -1.0547(13) 0.0837(10)
O46A O 2.1174(16) -0.7367(11) 0.3218(9)
O47A O 1.8633(16) -0.6230(9) 0.1762(8)
O48A O 0.4490(16) -0.0706(12) 0.1323(8)
O48A_2 O 2.4490(16) -1.0706(12) 0.1323(8)
O49A O 1.8506(13) -0.8533(9) 0.2445(7)
O50A O 1.6605(16) -0.8265(9) 0.1830(8)
O51A O 2.5509(16) -1.1932(10) 0.3162(9)
O52A O 2.2214(14) -1.2792(9) 0.1497(9)
O53A O 1.663(2) -0.5900(11) 0.1108(9)
O54A O 0.451(2) -0.0687(12) -0.6268(9)
O54A_2 O 2.451(2) -1.0687(12) 0.3732(9)
O55A O 1.7576(16) -0.7254(10) 0.3543(8)
O56A O 2.053(2) -0.5942(12) 0.3294(10)
O57A O 2.7202(17) -1.2893(12) 0.3596(11)
O58A O 1.691(2) -0.9494(13) 0.3608(10)
O59A O 2.5444(15) -1.1958(9) 0.2025(8)
O60A O 2.6049(14) -1.2981(8) 0.2568(7)
O61A O 2.4611(13) -1.4230(8) 0.2541(7)
O62A O 2.048(2) -0.5973(15) 0.1326(12)
O63A O 1.575(2) -0.6652(12) 0.0691(11)
O64A O 2.2406(19) -0.8742(13) 0.1516(10)
O65A O 2.001(2) -1.2384(15) 0.3737(11)
O66A O 0.2971(18) -0.0543(13) -0.5778(10)
O66A_2 O 2.2971(18) -1.0543(13) 0.4222(10)
O67A O 2.333(2) -1.2585(17) 0.4688(10)
O68A O 2.2372(18) -0.8689(16) 0.3429(11)
O69A O 2.2186(17) -1.2787(13) 0.3793(10)
O70A O 2.4890(18) -1.5016(12) 0.3738(12)
O71A O 2.0305(17) -0.8255(11) 0.3789(10)
O72A O 1.7095(18) -0.9348(11) 0.2494(10)
O73A O 2.1514(19) -1.4751(13) 0.2732(13)
O74A O 1.862(3) -0.7912(17) 0.0374(12)
O75A O 2.1338(13) -0.8257(8) 0.2455(7)
O76A O 2.3978(17) -1.3716(10) 0.1350(9)
O77A O 2.1174(15) -1.3517(10) 0.2152(10)
O78A O 2.3354(18) -1.1808(11) 0.3753(10)
O79A O 1.8366(18) -0.8637(11) 0.1283(11)
O80A O 2.4937(17) -1.5016(12) 0.1765(10)
N1A N 1.634(2) -0.8085(17) 0.0538(11)
H7A H 1.6645 -0.8521 0.0631
H8A H 1.6754 -0.7902 0.0306
N2A N 1.459(3) -0.7756(18) 0.1123(13)
H9A H 1.4122 -0.7375 0.1020
H10A H 1.4394 -0.7905 0.1442
N3A N 1.751(2) -0.4675(15) 0.2771(15)
H11A H 1.7341 -0.4864 0.3084
H12A H 1.6922 -0.4396 0.2637
N4A N 1.458(2) -0.7824(19) 0.3659(14)
H13A H 1.4402 -0.7949 0.3340
H14A H 1.4062 -0.7490 0.3767
N5A N 1.634(3) -0.8097(17) 0.4302(13)
H15A H 1.6601 -0.7867 0.4552
H16A H 1.6813 -0.8479 0.4243
N6A N 1.936(2) -0.4950(15) 0.2173(14)
H17A H 1.9530 -0.4895 0.1830
H18A H 1.9934 -0.5192 0.2348
N7A N 2.140(3) -1.1456(18) 0.4434(14)
H19A H 2.1899 -1.1572 0.4688
H20A H 2.1155 -1.1838 0.4353
N8A N 2.072(2) -1.0284(16) 0.3848(13)
H21A H 2.0350 -1.0217 0.3542
H22A H 2.0919 -0.9886 0.3922
N9A N 2.138(2) -1.1468(15) 0.0706(11)
H23A H 2.1141 -1.1853 0.0819
H24A H 2.1870 -1.1580 0.0457
N10A N 2.068(2) -1.0333(15) 0.1212(12)
H25A H 2.0879 -0.9920 0.1149
H26A H 2.0311 -1.0314 0.1513
N11A N 2.770(2) -1.1832(15) 0.2556(15)
H27A H 2.7907 -1.1951 0.2230
H28A H 2.7802 -1.2214 0.2774
N12A N 2.648(3) -1.0735(18) 0.314(2)
H29A H 2.6152 -1.0809 0.3445
H30A H 2.6346 -1.0283 0.3039
C1A C 0.393(2) -0.0521(17) -0.5855(11)
C2A C 1.595(3) -0.6078(18) 0.0747(14)
C3A C 0.397(2) -0.0523(15) 0.0910(13)
C4A C 0.450(3) -0.023(2) 0.0449(18)
C5A C 0.560(3) -0.0246(19) -0.5442(16)
C6A C 0.454(3) -0.0233(16) -0.5422(15)
C7A C 0.390(3) 0.001(3) -0.0036(16)
C8A C 0.561(3) -0.023(3) 0.0487(17)
C9A C 1.476(8) -0.843(5) 0.405(3)
C10A C 1.527(4) -0.829(3) 0.448(2)
H35A H 1.4841 -0.7903 0.4649
H36A H 1.5389 -0.8681 0.4729
C11A C 2.001(4) -1.052(2) 0.4301(19)
H37A H 1.9444 -1.0714 0.4152
H38A H 1.9696 -1.0124 0.4494
C12A C 1.899(4) -0.426(3) 0.241(4)
H39A H 1.8593 -0.3949 0.2144
H40A H 1.9614 -0.4070 0.2500
C13A C 2.054(4) -1.099(2) 0.050(2)
H41A H 2.0813 -1.0777 0.0185
H42A H 2.0020 -1.1246 0.0375
C14A C 2.056(4) -1.096(3) 0.461(2)
H43A H 2.0856 -1.0707 0.4873
H44A H 2.0066 -1.1208 0.4795
C15A C 1.840(4) -0.428(3) 0.283(2)
H45A H 1.8847 -0.4495 0.3128
H46A H 1.8101 -0.3815 0.2920
C16A C 1.998(4) -1.045(3) 0.0772(19)
H47A H 1.9797 -1.0038 0.0542
H48A H 1.9324 -1.0573 0.0911
C17A C 1.528(3) -0.4853(17) 0.0479(15)
C18A C 0.393(4) 0.003(2) -0.5006(16)
C19A C 1.514(3) -0.5713(19) -0.0115(16)
C20A C 1.547(3) -0.545(2) 0.0365(17)
C21A C 2.752(6) -1.100(4) 0.315(3)
C22A C 2.829(7) -1.133(5) 0.274(4)
C23A C 1.521(4) -0.806(3) 0.030(2)
H49A H 1.5223 -0.8387 0.0032
H50A H 1.4921 -0.7600 0.0153
C24A C 1.456(6) -0.824(4) 0.078(3)
H51A H 1.4863 -0.8696 0.0933
H52A H 1.3829 -0.8248 0.0672
O81A O 1.550(3) -0.6729(19) 0.4131(13)
O83A O 2.650(3) -1.0779(17) 0.1845(19)
O84A O 1.683(2) -0.5796(12) 0.3519(10)
O85A O 1.7444(19) -0.4840(12) 0.1546(10)
O86A O 1.4666(18) -0.7939(14) 0.2426(10)
Ni13 Ni 1.0358(9) 0.3746(6) -0.0415(4)
N13 N 0.9041(18) 0.391(2) 0.0054(11)
H31 H 0.9034 0.3580 0.0313
H32 H 0.8900 0.4333 0.0181
N14 N 0.947(3) 0.409(2) -0.1083(10)
H33 H 0.9600 0.4503 -0.1192
H34 H 0.9676 0.3795 -0.1340
C25 C 0.839(4) 0.383(3) -0.0423(16)
H53 H 0.7663 0.3933 -0.0297
H54 H 0.8528 0.3337 -0.0464
C26 C 0.830(3) 0.413(6) -0.099(2)
H55 H 0.7982 0.3854 -0.1227
H56 H 0.7918 0.4605 -0.1020
O87 O 1.180(2) 0.3758(14) -0.0779(11)
O88 O 1.084(2) 0.4653(14) -0.0509(11)
O89 O 1.123(3) 0.3399(19) 0.0303(15)
O90 O 1.036(3) 0.2700(17) -0.0430(14)
O82 O 0.8559(14) -0.3272(8) -0.4949(7)
loop_
_geom_bond_atom_site_label_1
_geom_bond_atom_site_label_2
_geom_bond_site_symmetry_1
_geom_bond_site_symmetry_2
Ni1 O1 1_555 1_555
Ni2 O1 1_555 1_555
Ni3 O1 1_555 1_555
Ni4 O7 1_555 1_555
Ni5 O7 1_555 1_555
Ni6 O21 1_555 1_555
Ni7 O23 1_555 1_555
Ni8 O6 1_555 1_555
Ni9 O6 1_555 1_555
Ni10 O25 1_555 1_555
Ni11 O6 1_555 1_555
Ni12 O9 1_555 1_555
Ni13 N13 1_555 1_555
W1 O22 1_555 1_555
W2 O15 1_555 1_555
W3 O3 1_555 1_555
W4 O3 1_555 1_555
W5 O8 1_555 1_555
W6 O17 1_555 1_555
W7 O24 1_555 1_555
W8 O18 1_555 1_555
W9 O3 1_555 1_555
W10 O2 1_555 1_555
W11 O5 1_555 1_555
W12 O5 1_555 1_555
W13 O4 1_555 1_555
W14 O4 1_555 1_555
W15 O33 1_555 1_555
W16 O13 1_555 1_555
W17 O16 1_555 1_555
W18 O4 1_555 1_555
P1 O2 1_555 1_555
P2 O3 1_555 1_555
O1 H1 1_555 1_555
O4 P1 1_555 1_555
O6 P1 1_555 1_555
O7 Ni2 1_555 1_555
H2 O7 1_555 1_555
O8 W4 1_555 1_555
O9 Ni9 1_555 1_555
H3 O9 1_555 1_555
O10 W13 1_555 1_555
O11 W13 1_555 1_555
O12 W3 1_555 1_555
O13 W18 1_555 1_555
O14 W4 1_555 1_555
O15 W3 1_555 1_555
O16 W16 1_555 1_555
O18 W5 1_555 1_555
O19 W12 1_555 1_555
O20 W11 1_555 1_555
O21 Ni5 1_555 1_555
O22 Ni1 1_555 1_555
O23 Ni9 1_555 1_555
O24 W2 1_555 1_555
O25 Ni8 1_555 1_555
H4 O25 1_555 1_555
O26 W10 1_555 1_555
O27 W14 1_555 1_555
O28 W8 1_555 1_555
O29 Ni2 1_555 1_555
O30 W1 1_555 1_555
O31 Ni7 1_555 1_555
O32 Ni8 1_555 1_555
O33 W17 1_555 1_555
O34 W10 1_555 1_555
O35 W11 1_555 1_555
O36 Ni7 1_555 1_555
H5 O36 1_555 1_555
O37 Ni2 1_555 1_555
O38 Ni8 1_555 1_555
O39 W14 1_555 1_555
O40 W1 1_555 1_555
O41 W7 1_555 1_555
O42 Ni3 1_555 1_555
H6 O42 1_555 1_555
O43 W1 1_555 1_555
O44 W6 1_555 1_555
O45 Ni7 1_555 1_555
O46 W3 1_555 1_555
O47 Ni3 1_555 1_555
O48 Ni9 1_555 1_555
O49 W5 1_555 1_555
O50 Ni1 1_555 1_555
O51 Ni11 1_555 1_555
O52 W12 1_555 1_555
O53 Ni3 1_555 1_555
O54 Ni11 1_555 1_555
O55 Ni4 1_555 1_555
O56 W3 1_555 1_555
O57 W15 1_555 1_555
O58 W5 1_555 1_555
O59 Ni9 1_555 1_555
O60 W14 1_555 1_555
O61 W17 1_555 1_555
O62 W2 1_555 1_555
O63 Ni1 1_555 1_555
O64 W7 1_555 1_555
O65 W11 1_555 1_555
O66 Ni10 1_555 1_555
O67 W10 1_555 1_555
O68 W9 1_555 1_555
O69 W10 1_555 1_555
O70 W17 1_555 1_555
O71 W4 1_555 1_555
O72 W5 1_555 1_555
O73 W16 1_555 1_555
O74 W1 1_555 1_555
O75 W7 1_555 1_555
O76 W13 1_555 1_555
O77 W12 1_555 1_555
O78 Ni10 1_555 1_555
O79 W1 1_555 1_555
O80 W18 1_555 1_555
N1 Ni1 1_555 1_555
H7 N1 1_555 1_555
H8 N1 1_555 1_555
N2 Ni1 1_555 1_555
H9 N2 1_555 1_555
H10 N2 1_555 1_555
N3 Ni6 1_555 1_555
H11 N3 1_555 1_555
H12 N3 1_555 1_555
N4 Ni4 1_555 1_555
H13 N4 1_555 1_555
H14 N4 1_555 1_555
N5 Ni4 1_555 1_555
H15 N5 1_555 1_555
H16 N5 1_555 1_555
N6 Ni6 1_555 1_555
H17 N6 1_555 1_555
H18 N6 1_555 1_555
N7 Ni10 1_555 1_555
H19 N7 1_555 1_555
H20 N7 1_555 1_555
N8 Ni10 1_555 1_555
H21 N8 1_555 1_555
H22 N8 1_555 1_555
N9 Ni7 1_555 1_555
H23 N9 1_555 1_555
H24 N9 1_555 1_555
N10 Ni7 1_555 1_555
H25 N10 1_555 1_555
H26 N10 1_555 1_555
N11 Ni12 1_555 1_555
H27 N11 1_555 1_555
H28 N11 1_555 1_555
N12 Ni12 1_555 1_555
H29 N12 1_555 1_555
H30 N12 1_555 1_555
N13 H31 1_555 1_555
H32 N13 1_555 1_555
N14 Ni13 1_555 1_555
H33 N14 1_555 1_555
H34 N14 1_555 1_555
C1 O54 1_555 1_555
C2 O53 1_555 1_555
C3 O45 1_555 1_555
C4 C3 1_555 1_555
C5 C6 1_555 1_555
C6 C1 1_555 1_555
C7 C4 1_555 1_555
C8 C4 1_555 1_555
C9 N4 1_555 1_555
C10 N5 1_555 1_555
H35 C10 1_555 1_555
H36 C10 1_555 1_555
C11 N8 1_555 1_555
H37 C11 1_555 1_555
H38 C11 1_555 1_555
C12 N6 1_555 1_555
H39 C12 1_555 1_555
H40 C12 1_555 1_555
C13 N9 1_555 1_555
H41 C13 1_555 1_555
H42 C13 1_555 1_555
C14 N7 1_555 1_555
H43 C14 1_555 1_555
H44 C14 1_555 1_555
C15 N3 1_555 1_555
H45 C15 1_555 1_555
H46 C15 1_555 1_555
C16 N10 1_555 1_555
H47 C16 1_555 1_555
H48 C16 1_555 1_555
C17 C20 1_555 1_555
C18 C6 1_555 1_555
C19 C20 1_555 1_555
C20 C2 1_555 1_555
C21 N12 1_555 1_555
C22 N11 1_555 1_555
C23 N1 1_555 1_555
H49 C23 1_555 1_555
H50 C23 1_555 1_555
C24 N2 1_555 1_555
H51 C24 1_555 1_555
H52 C24 1_555 1_555
C25 N13 1_555 1_555
H53 C25 1_555 1_555
H54 C25 1_555 1_555
C26 N14 1_555 1_555
H55 C26 1_555 1_555
H56 C26 1_555 1_555
O81 Ni4 1_555 1_555
O83 Ni12 1_555 1_555
O84 Ni5 1_555 1_555
O85 Ni6 1_555 1_555
O86 Ni2 1_555 1_555
O87 Ni13 1_555 1_555
O88 Ni13 1_555 1_555
O89 Ni13 1_555 1_555
O90 Ni13 1_555 1_555
Ni1A O1A 1_555 1_555
Ni2A O1A 1_555 1_555
Ni3A O1A 1_555 1_555
Ni4A O7A 1_555 1_555
Ni5A O7A 1_555 1_555
Ni6A O21A 1_555 1_555
Ni7A O23A 1_555 1_555
Ni7A_2 O45A 1_555 1_555
Ni8A O6A 1_555 1_555
Ni9A O6A 1_555 1_555
Ni9A_2 O48A 1_555 1_555
Ni10A O25A 1_555 1_555
Ni10A_2 O66A 1_555 1_555
Ni11A O6A 1_555 1_555
Ni11A_2 O54A 1_555 1_555
Ni12A O9A 1_555 1_555
W1A O22A 1_555 1_555
W2A O15A 1_555 1_555
W3A O3A 1_555 1_555
W4A O3A 1_555 1_555
W5A O8A 1_555 1_555
W6A O17A 1_555 1_555
W7A O24A 1_555 1_555
W8A O18A 1_555 1_555
W9A O3A 1_555 1_555
W10A O2A 1_555 1_555
W11A O5A 1_555 1_555
W12A O5A 1_555 1_555
W13A O4A 1_555 1_555
W14A O4A 1_555 1_555
W15A O33A 1_555 1_555
W16A O13A 1_555 1_555
W17A O16A 1_555 1_555
W18A O4A 1_555 1_555
P1A O2A 1_555 1_555
P2A O3A 1_555 1_555
O1A H1A 1_555 1_555
O4A P1A 1_555 1_555
O6A P1A 1_555 1_555
O7A Ni2A 1_555 1_555
H2A O7A 1_555 1_555
O8A W4A 1_555 1_555
O9A Ni9A 1_555 1_555
H3A O9A 1_555 1_555
O10A W13A 1_555 1_555
O11A W13A 1_555 1_555
O12A W3A 1_555 1_555
O13A W18A 1_555 1_555
O14A W4A 1_555 1_555
O15A W3A 1_555 1_555
O16A W16A 1_555 1_555
O18A W5A 1_555 1_555
O19A W12A 1_555 1_555
O20A W11A 1_555 1_555
O21A Ni5A 1_555 1_555
O22A Ni1A 1_555 1_555
O23A Ni9A 1_555 1_555
O24A W2A 1_555 1_555
O25A Ni8A 1_555 1_555
H4A O25A 1_555 1_555
O26A W10A 1_555 1_555
O27A W14A 1_555 1_555
O28A W8A 1_555 1_555
O29A Ni2A 1_555 1_555
O30A W1A 1_555 1_555
O31A Ni7A 1_555 1_555
O32A Ni8A 1_555 1_555
O33A W17A 1_555 1_555
O34A W10A 1_555 1_555
O35A W11A 1_555 1_555
O36A Ni7A 1_555 1_555
H5A O36A 1_555 1_555
O37A Ni2A 1_555 1_555
O38A Ni8A 1_555 1_555
O39A W14A 1_555 1_555
O40A W1A 1_555 1_555
O41A W7A 1_555 1_555
O42A Ni3A 1_555 1_555
H6A O42A 1_555 1_555
O43A W1A 1_555 1_555
O44A W6A 1_555 1_555
O45A C3A 1_555 1_555
O45A_2 Ni7A 1_555 1_555
O46A W3A 1_555 1_555
O47A Ni3A 1_555 1_555
O48A C3A 1_555 1_555
O48A_2 Ni9A 1_555 1_555
O49A W5A 1_555 1_555
O50A Ni1A 1_555 1_555
O51A Ni11A 1_555 1_555
O52A W12A 1_555 1_555
O53A Ni3A 1_555 1_555
O54A C1A 1_555 1_555
O54A_2 Ni11A 1_555 1_555
O55A Ni4A 1_555 1_555
O56A W3A 1_555 1_555
O57A W15A 1_555 1_555
O58A W5A 1_555 1_555
O59A Ni9A 1_555 1_555
O60A W14A 1_555 1_555
O61A W17A 1_555 1_555
O62A W2A 1_555 1_555
O63A Ni1A 1_555 1_555
O64A W7A 1_555 1_555
O65A W11A 1_555 1_555
O66A C1A 1_555 1_555
O66A_2 Ni10A 1_555 1_555
O67A W10A 1_555 1_555
O68A W9A 1_555 1_555
O69A W10A 1_555 1_555
O70A W17A 1_555 1_555
O71A W4A 1_555 1_555
O72A W5A 1_555 1_555
O73A W16A 1_555 1_555
O74A W1A 1_555 1_555
O75A W7A 1_555 1_555
O76A W13A 1_555 1_555
O77A W12A 1_555 1_555
O78A Ni10A 1_555 1_555
O79A W1A 1_555 1_555
O80A W18A 1_555 1_555
N1A Ni1A 1_555 1_555
H7A N1A 1_555 1_555
H8A N1A 1_555 1_555
N2A Ni1A 1_555 1_555
H9A N2A 1_555 1_555
H10A N2A 1_555 1_555
N3A Ni6A 1_555 1_555
H11A N3A 1_555 1_555
H12A N3A 1_555 1_555
N4A Ni4A 1_555 1_555
H13A N4A 1_555 1_555
H14A N4A 1_555 1_555
N5A Ni4A 1_555 1_555
H15A N5A 1_555 1_555
H16A N5A 1_555 1_555
N6A Ni6A 1_555 1_555
H17A N6A 1_555 1_555
H18A N6A 1_555 1_555
N7A Ni10A 1_555 1_555
H19A N7A 1_555 1_555
H20A N7A 1_555 1_555
N8A Ni10A 1_555 1_555
H21A N8A 1_555 1_555
H22A N8A 1_555 1_555
N9A Ni7A 1_555 1_555
H23A N9A 1_555 1_555
H24A N9A 1_555 1_555
N10A Ni7A 1_555 1_555
H25A N10A 1_555 1_555
H26A N10A 1_555 1_555
N11A Ni12A 1_555 1_555
H27A N11A 1_555 1_555
H28A N11A 1_555 1_555
N12A Ni12A 1_555 1_555
H29A N12A 1_555 1_555
H30A N12A 1_555 1_555
C1A C6A 1_555 1_555
C2A O53A 1_555 1_555
C3A C4A 1_555 1_555
C4A C7A 1_555 1_555
C5A C18 1_555 1_555
C6A C5A 1_555 1_555
C7A C8 1_555 1_555
C8A C7 1_555 1_555
C9A N4A 1_555 1_555
C10A N5A 1_555 1_555
H35A C10A 1_555 1_555
H36A C10A 1_555 1_555
C11A N8A 1_555 1_555
H37A C11A 1_555 1_555
H38A C11A 1_555 1_555
C12A N6A 1_555 1_555
H39A C12A 1_555 1_555
H40A C12A 1_555 1_555
C13A N9A 1_555 1_555
H41A C13A 1_555 1_555
H42A C13A 1_555 1_555
C14A N7A 1_555 1_555
H43A C14A 1_555 1_555
H44A C14A 1_555 1_555
C15A N3A 1_555 1_555
H45A C15A 1_555 1_555
H46A C15A 1_555 1_555
C16A N10A 1_555 1_555
H47A C16A 1_555 1_555
H48A C16A 1_555 1_555
C17A C19 1_555 1_555
C18A C5 1_555 1_555
C19A C17 1_555 1_555
C20A C2A 1_555 1_555
C21A N12A 1_555 1_555
C22A N11A 1_555 1_555
C23A N1A 1_555 1_555
H49A C23A 1_555 1_555
H50A C23A 1_555 1_555
C24A N2A 1_555 1_555
H51A C24A 1_555 1_555
H52A C24A 1_555 1_555
O81A Ni4A 1_555 1_555
O83A Ni12A 1_555 1_555
O84A Ni5A 1_555 1_555
O85A Ni6A 1_555 1_555
O86A Ni2A 1_555 1_555
Ni2 O50 1_555 1_555
Ni3 O22 1_555 1_555
Ni3 O29 1_555 1_555
Ni4 O37 1_555 1_555
Ni5 O29 1_555 1_555
Ni5 O42 1_555 1_555
Ni5 O55 1_555 1_555
Ni6 O42 1_555 1_555
Ni6 O47 1_555 1_555
Ni8 O31 1_555 1_555
Ni8 O36 1_555 1_555
Ni9 O36 1_555 1_555
Ni10 O32 1_555 1_555
Ni11 O9 1_555 1_555
Ni11 O25 1_555 1_555
Ni11 O78 1_555 1_555
Ni12 O51 1_555 1_555
Ni12 O59 1_555 1_555
W2 O30 1_555 1_555
W2 O43 1_555 1_555
W2 O47 1_555 1_555
W3 O21 1_555 1_555
W4 O12 1_555 1_555
W4 O55 1_555 1_555
W5 O37 1_555 1_555
W6 O49 1_555 1_555
W6 O50 1_555 1_555
W6 O72 1_555 1_555
W6 O79 1_555 1_555
W7 O30 1_555 1_555
W7 O40 1_555 1_555
W8 O38 1_555 1_555
W8 O41 1_555 1_555
W8 O44 1_555 1_555
W8 O49 1_555 1_555
W9 O28 1_555 1_555
W9 O46 1_555 1_555
W9 O71 1_555 1_555
W9 O75 1_555 1_555
W10 O78 1_555 1_555
W11 O32 1_555 1_555
W11 O69 1_555 1_555
W12 O31 1_555 1_555
W12 O35 1_555 1_555
W13 O23 1_555 1_555
W13 O52 1_555 1_555
W14 O10 1_555 1_555
W14 O59 1_555 1_555
W15 O34 1_555 1_555
W15 O51 1_555 1_555
W15 O60 1_555 1_555
W16 O20 1_555 1_555
W16 O35 1_555 1_555
W16 O77 1_555 1_555
W17 O26 1_555 1_555
W18 O27 1_555 1_555
W18 O61 1_555 1_555
W18 O76 1_555 1_555
P1 O35 1_555 1_555
P2 O29 1_555 1_555
P2 O30 1_555 1_555
P2 O49 1_555 1_555
O48 C3 1_555 1_555
O63 C2 1_555 1_555
O66 C1 1_555 1_555
C9 C10 1_555 1_555
C11 C14 1_555 1_555
C12 C15 1_555 1_555
C13 C16 1_555 1_555
C21 C22 1_555 1_555
C23 C24 1_555 1_555
C25 C26 1_555 1_555
Ni2A O50A 1_555 1_555
Ni3A O22A 1_555 1_555
Ni3A O29A 1_555 1_555
Ni4A O37A 1_555 1_555
Ni5A O29A 1_555 1_555
Ni5A O42A 1_555 1_555
Ni5A O55A 1_555 1_555
Ni6A O42A 1_555 1_555
Ni6A O47A 1_555 1_555
Ni8A O31A 1_555 1_555
Ni8A O36A 1_555 1_555
Ni9A O36A 1_555 1_555
Ni10A O32A 1_555 1_555
Ni11A O9A 1_555 1_555
Ni11A O25A 1_555 1_555
Ni11A O78A 1_555 1_555
Ni12A O51A 1_555 1_555
Ni12A O59A 1_555 1_555
W2A O30A 1_555 1_555
W2A O43A 1_555 1_555
W2A O47A 1_555 1_555
W3A O21A 1_555 1_555
W4A O12A 1_555 1_555
W4A O55A 1_555 1_555
W5A O37A 1_555 1_555
W6A O49A 1_555 1_555
W6A O50A 1_555 1_555
W6A O72A 1_555 1_555
W6A O79A 1_555 1_555
W7A O30A 1_555 1_555
W7A O40A 1_555 1_555
W8A O38A 1_555 1_555
W8A O41A 1_555 1_555
W8A O44A 1_555 1_555
W8A O49A 1_555 1_555
W9A O28A 1_555 1_555
W9A O46A 1_555 1_555
W9A O71A 1_555 1_555
W9A O75A 1_555 1_555
W10A O78A 1_555 1_555
W11A O32A 1_555 1_555
W11A O69A 1_555 1_555
W12A O31A 1_555 1_555
W12A O35A 1_555 1_555
W13A O23A 1_555 1_555
W13A O52A 1_555 1_555
W14A O10A 1_555 1_555
W14A O59A 1_555 1_555
W15A O34A 1_555 1_555
W15A O51A 1_555 1_555
W15A O60A 1_555 1_555
W16A O20A 1_555 1_555
W16A O35A 1_555 1_555
W16A O77A 1_555 1_555
W17A O26A 1_555 1_555
W18A O27A 1_555 1_555
W18A O61A 1_555 1_555
W18A O76A 1_555 1_555
P1A O35A 1_555 1_555
P2A O29A 1_555 1_555
P2A O30A 1_555 1_555
P2A O49A 1_555 1_555
O63A C2A 1_555 1_555
C4A C8A 1_555 1_555
C6A C18A 1_555 1_555
C9A C10A 1_555 1_555
C11A C14A 1_555 1_555
C12A C15A 1_555 1_555
C13A C16A 1_555 1_555
C17A C20A 1_555 1_555
C19A C20A 1_555 1_555
C21A C22A 1_555 1_555
C23A C24A 1_555 1_555

#END
