
#######################################################################
#
#                 Cambridge Crystallographic Data Centre
#                                CCDC 
#
#######################################################################
#
# If this CIF has been generated from an entry in the Cambridge 
# Structural Database, then it will include bibliographic, chemical, 
# crystal, experimental, refinement or atomic coordinate data resulting 
# from the CCDC's data processing and validation procedures.
#
#######################################################################

data_POBYAH
_symmetry_cell_setting           tetragonal
_symmetry_space_group_name_H-M   'P 41'
_symmetry_Int_Tables_number      76
_space_group_name_Hall           'P 4w'
loop_
_symmetry_equiv_pos_site_id
_symmetry_equiv_pos_as_xyz
1 x,y,z
2 -x,-y,1/2+z
3 -y,x,1/4+z
4 y,-x,3/4+z
_cell_length_a                   15.5419(4)
_cell_length_b                   15.5419(4)
_cell_length_c                   26.4893(13)
_cell_angle_alpha                90
_cell_angle_beta                 90
_cell_angle_gamma                90
_cell_volume                     6398.51
loop_
_atom_site_label
_atom_site_type_symbol
_atom_site_fract_x
_atom_site_fract_y
_atom_site_fract_z
Ni1 Ni -0.37036(8) -0.15499(8) -0.25259(5)
Ni2 Ni -0.19780(8) -0.15560(9) -0.31293(5)
Ni3 Ni -0.34603(8) -0.28740(8) -0.33170(5)
Ni4 Ni -0.04160(9) -0.16325(9) -0.38572(6)
Ni5 Ni -0.18522(8) -0.29477(8) -0.39899(5)
Ni6 Ni -0.58603(8) -0.32810(8) -0.17059(5)
W1 W -0.35983(3) -0.36517(3) -0.206590(15)
W2 W -0.14105(3) -0.51865(3) -0.378850(16)
W3 W -0.01882(3) -0.53928(3) -0.271100(17)
W4 W 0.02040(3) -0.37349(3) -0.354520(16)
W5 W -0.03810(3) -0.37595(3) -0.169000(18)
W6 W -0.33698(3) -0.51370(3) -0.301070(16)
W7 W -0.21626(3) -0.53156(3) -0.191510(16)
W8 W -0.00377(3) -0.21193(3) -0.254230(17)
W9 W -0.18596(3) -0.20978(3) -0.180440(16)
P1 P -0.16950(16) -0.36108(17) -0.28153(10)
O1 O -0.2353(4) -0.1629(5) -0.2361(3)
O2 O -0.3227(4) -0.1618(4) -0.3225(3)
H1 H -0.3477 -0.1228 -0.3476
O3 O -0.3642(5) -0.2873(4) -0.2561(3)
O4 O -0.0693(5) -0.1680(5) -0.3044(3)
O5 O -0.1704(4) -0.1675(5) -0.3879(3)
H2 H -0.1998 -0.1284 -0.4113
O6 O -0.3139(4) -0.2910(4) -0.4030(3)
H3 H -0.3400 -0.2483 -0.4256
O7 O -0.3538(5) -0.4223(4) -0.3421(3)
O8 O -0.0553(4) -0.2989(5) -0.3826(3)
O9 O -0.5742(4) -0.2003(4) -0.1500(3)
O10 O -0.2095(4) -0.2967(4) -0.3191(3)
O11 O -0.4908(5) -0.1605(5) -0.2844(3)
O12 O -0.4711(5) -0.2651(5) -0.3414(3)
O13 O -0.6147(5) -0.2894(5) -0.2428(3)
O14 O -0.7045(5) -0.1772(5) -0.2243(3)
O15 O -0.9169(5) -0.1621(6) -0.3717(3)
O16 O -0.8595(6) -0.1511(12) -0.4493(4)
H4 H -0.9103 -0.1464 -0.4571
O17 O -0.4552(5) -0.3448(5) -0.1742(3)
O18 O -0.2900(5) -0.5765(5) -0.2418(3)
O19 O -0.1109(5) -0.2899(5) -0.1418(3)
O20 O -0.2729(4) -0.2943(5) -0.1745(3)
O21 O 0.0473(5) -0.6222(6) -0.2542(4)
O22 O -0.2131(5) -0.1399(5) -0.1326(3)
O23 O -0.0722(5) -0.5848(5) -0.3294(3)
O24 O -0.2365(4) -0.5491(5) -0.3355(3)
O25 O 0.0831(5) -0.1446(5) -0.2517(3)
O26 O -0.1064(4) -0.4216(5) -0.3088(3)
O27 O -0.0755(5) -0.1630(5) -0.2024(3)
O28 O 0.1131(5) -0.3609(5) -0.3879(3)
O29 O -0.0357(5) -0.4658(5) -0.3962(3)
O30 O -0.1217(5) -0.5647(5) -0.2349(3)
O31 O -0.4085(5) -0.1505(5) -0.1785(3)
O32 O -0.2383(4) -0.4178(4) -0.2567(3)
O33 O 0.0331(5) -0.2910(6) -0.1979(3)
O34 O -0.0003(5) -0.4554(5) -0.2190(3)
O35 O -0.3085(5) -0.4604(5) -0.1686(3)
O36 O -0.1369(5) -0.4513(5) -0.1649(3)
O37 O 0.0200(5) -0.4078(6) -0.1177(3)
O38 O -0.1195(4) -0.3119(5) -0.2400(3)
O39 O -0.4118(5) -0.5883(5) -0.3201(3)
O40 O 0.0372(5) -0.3039(5) -0.2969(3)
O41 O -0.4023(4) -0.4531(5) -0.2494(3)
O42 O 0.0549(4) -0.4733(5) -0.3122(3)
O43 O -0.2165(5) -0.6118(5) -0.1476(3)
C1 C -0.6029(6) -0.1962(8) -0.3407(5)
C2 C -0.6146(7) -0.1742(10) -0.3911(5)
H5 H -0.5668 -0.1679 -0.4119
C3 C -0.6922(8) -0.1619(10) -0.4101(5)
H6 H -0.6983 -0.1456 -0.4437
C4 C -0.7651(7) -0.1732(8) -0.3801(5)
C5 C -0.7568(6) -0.1947(8) -0.3298(4)
H7 H -0.8054 -0.2023 -0.3098
C6 C -0.6750(7) -0.2048(7) -0.3092(4)
C7 C -0.5142(6) -0.2097(7) -0.3193(4)
C8 C -0.6629(7) -0.2252(7) -0.2542(4)
C9 C -0.8536(8) -0.1626(10) -0.4029(5)
O44 O -0.3779(9) -0.0226(6) -0.2510(5)
O45 O -0.1927(7) -0.0214(6) -0.3116(5)
O46 O -0.0438(6) -0.0284(6) -0.3905(5)
O47 O -0.0231(5) -0.1822(7) -0.4622(3)
O48 O -0.6003(6) -0.4570(8) -0.1882(5)
Ni4_2 Ni -1.04160(9) -0.16325(9) -0.38572(6)
Ni5B Ni -0.70523(8) -0.18522(8) -0.14899(5)
Ni6C Ni -0.32810(8) -0.41397(8) -0.42059(5)
W2B W -0.48135(3) -0.14105(3) -0.128850(16)
O6B O -0.7090(4) -0.3139(4) -0.1530(3)
H3B H -0.7517 -0.3400 -0.1756
O7B O -0.5777(4) -0.3538(5) -0.0921(3)
O9C O -0.2003(4) -0.4258(4) -0.4000(3)
O14C O -0.1772(5) -0.2955(5) -0.4743(3)
O15_2 O 0.0831(5) -0.1621(6) -0.3717(3)
O31C O -0.1505(5) -0.5915(5) -0.4285(3)
O49 O -0.5640(5) -0.4275(5) 0.6963(3)
O50 O -0.300(2) 0.0326(18) 0.8401(13)
O51 O -0.5553(14) -0.5223(17) 0.6066(9)
O52 O -0.2833(5) -0.1902(5) 0.9599(3)
O53 O -0.3723(10) -0.7665(7) 0.6811(5)
O54 O -0.3939(10) -0.1914(8) 0.5197(6)
C10 C -0.6143(10) -0.0229(10) 0.7553(6)
H8 H -0.6735 -0.0214 0.7450
H9 H -0.6058 0.0160 0.7830
H10 H -0.5995 -0.0802 0.7656
C11 C -0.557(5) 0.004(6) 0.711(2)
H11 H -0.5262 -0.0409 0.6926
C12 C -0.520(3) 0.097(2) 0.7097(17)
H12 H -0.5671 0.1365 0.7023
H13 H -0.4796 0.1010 0.6821
N1 N -0.470(3) 0.132(3) 0.7635(17)
H14 H -0.4196 0.1552 0.7555
H15 H -0.4620 0.0876 0.7842
H16 H -0.5028 0.1712 0.7787
N2 N -0.633(3) 0.044(3) 0.687(2)
H17 H -0.6804 0.0188 0.6985
H18 H -0.6296 0.0363 0.6536
H19 H -0.6340 0.0996 0.6939
loop_
_geom_bond_atom_site_label_1
_geom_bond_atom_site_label_2
_geom_bond_site_symmetry_1
_geom_bond_site_symmetry_2
Ni1 O1 1_555 1_555
Ni2 O1 1_555 1_555
Ni3 O2 1_555 1_555
Ni4 O4 1_555 1_555
Ni5 O5 1_555 1_555
Ni6 O9 1_555 1_555
W1 O3 1_555 1_555
W2 O23 1_555 1_555
W3 O21 1_555 1_555
W4 O8 1_555 1_555
W5 O19 1_555 1_555
W6 O7 1_555 1_555
W7 O18 1_555 1_555
W8 O4 1_555 1_555
W9 O1 1_555 1_555
P1 O10 1_555 1_555
O2 Ni1 1_555 1_555
H1 O2 1_555 1_555
O3 Ni1 1_555 1_555
O4 Ni2 1_555 1_555
O5 Ni2 1_555 1_555
H2 O5 1_555 1_555
O6 Ni3 1_555 1_555
H3 O6 1_555 1_555
O7 Ni3 1_555 1_555
O8 Ni4 1_555 1_555
O9 Ni5B 1_555 1_555
O10 Ni2 1_555 1_555
O11 Ni1 1_555 1_555
O12 Ni3 1_555 1_555
O13 Ni6 1_555 1_555
O14 C8 1_555 1_555
O15 C9 1_555 1_555
O16 H4 1_555 1_555
O17 Ni6 1_555 1_555
O18 W6 1_555 1_555
O19 W9 1_555 1_555
O20 W1 1_555 1_555
O22 W9 1_555 1_555
O23 W3 1_555 1_555
O24 W2 1_555 1_555
O25 W8 1_555 1_555
O26 W2 1_555 1_555
O27 W8 1_555 1_555
O28 W4 1_555 1_555
O29 W2 1_555 1_555
O30 W3 1_555 1_555
O31 Ni1 1_555 1_555
O32 W1 1_555 1_555
O33 W5 1_555 1_555
O34 W3 1_555 1_555
O35 W1 1_555 1_555
O36 W5 1_555 1_555
O37 W5 1_555 1_555
O38 W5 1_555 1_555
O39 W6 1_555 1_555
O40 W4 1_555 1_555
O41 W1 1_555 1_555
O42 W3 1_555 1_555
O43 W7 1_555 1_555
C1 C2 1_555 1_555
C2 H5 1_555 1_555
C3 C2 1_555 1_555
H6 C3 1_555 1_555
C4 C3 1_555 1_555
C5 C4 1_555 1_555
H7 C5 1_555 1_555
C6 C1 1_555 1_555
C7 O11 1_555 1_555
C8 O13 1_555 1_555
C9 O16 1_555 1_555
O44 Ni1 1_555 1_555
O45 Ni2 1_555 1_555
O46 Ni4 1_555 1_555
O47 Ni4 1_555 1_555
O48 Ni6 1_555 1_555
C10 H8 1_555 1_555
H9 C10 1_555 1_555
H10 C10 1_555 1_555
C11 C10 1_555 1_555
H11 C11 1_555 1_555
C12 C11 1_555 1_555
H12 C12 1_555 1_555
H13 C12 1_555 1_555
N1 C12 1_555 1_555
H14 N1 1_555 1_555
H15 N1 1_555 1_555
H16 N1 1_555 1_555
N2 C11 1_555 1_555
H17 N2 1_555 1_555
H18 N2 1_555 1_555
H19 N2 1_555 1_555
Ni4_2 O15 1_555 1_555
Ni5B O14 1_555 1_555
Ni6C O6 1_555 1_555
W2B O9 1_555 1_555
O6B Ni6 1_555 1_555
H3B O6B 1_555 1_555
O7B Ni6 1_555 1_555
O9C Ni5 1_555 1_555
O14C Ni5 1_555 1_555
O15_2 Ni4 1_555 1_555
O31C W2 1_555 1_555
Ni2 O2 1_555 1_555
Ni3 O3 1_555 1_555
Ni3 O10 1_555 1_555
Ni4 O5 1_555 1_555
Ni5 O6 1_555 1_555
Ni5 O8 1_555 1_555
Ni5 O10 1_555 1_555
W1 O17 1_555 1_555
W2 O9C 1_555 1_555
W3 O26 1_555 1_555
W4 O26 1_555 1_555
W4 O29 1_555 1_555
W4 O42 1_555 1_555
W5 O34 1_555 1_555
W6 O24 1_555 1_555
W6 O32 1_555 1_555
W6 O41 1_555 1_555
W7 O30 1_555 1_555
W7 O32 1_555 1_555
W7 O35 1_555 1_555
W7 O36 1_555 1_555
W8 O33 1_555 1_555
W8 O38 1_555 1_555
W8 O40 1_555 1_555
W9 O20 1_555 1_555
W9 O27 1_555 1_555
W9 O38 1_555 1_555
P1 O26 1_555 1_555
P1 O32 1_555 1_555
P1 O38 1_555 1_555
O7 Ni6C 1_555 1_555
O12 C7 1_555 1_555
O31 W2B 1_555 1_555
C1 C7 1_555 1_555
C4 C9 1_555 1_555
C5 C6 1_555 1_555
C6 C8 1_555 1_555
Ni5B O6B 1_555 1_555
Ni6C O9C 1_555 1_555

#END
