
#######################################################################
#
#                 Cambridge Crystallographic Data Centre
#                                CCDC 
#
#######################################################################
#
# If this CIF has been generated from an entry in the Cambridge 
# Structural Database, then it will include bibliographic, chemical, 
# crystal, experimental, refinement or atomic coordinate data resulting 
# from the CCDC's data processing and validation procedures.
#
#######################################################################

data_POCCUH
_symmetry_cell_setting           triclinic
_symmetry_space_group_name_H-M   'P -1'
_symmetry_Int_Tables_number      2
_space_group_name_Hall           '-P 1'
loop_
_symmetry_equiv_pos_site_id
_symmetry_equiv_pos_as_xyz
1 x,y,z
2 -x,-y,-z
_cell_length_a                   5.1044(7)
_cell_length_b                   8.8079(12)
_cell_length_c                   9.3844(13)
_cell_angle_alpha                116.5000(10)
_cell_angle_beta                 95.646(2)
_cell_angle_gamma                93.160(2)
_cell_volume                     373.423
loop_
_atom_site_label
_atom_site_type_symbol
_atom_site_fract_x
_atom_site_fract_y
_atom_site_fract_z
Zn1 Zn 0.0000 1.0000 0.5000
C1 C 0.1911(3) 0.6729(2) 0.2647(2)
C2 C 0.3489(3) 0.5838(2) 0.1273(2)
C3 C 0.4817(3) 0.4447(2) 0.1142(2)
C4 C 0.6281(3) 0.3640(2) -0.0091(2)
C5 C -0.2851(4) 1.1058(2) 0.2808(2)
H1 H -0.3726 1.1938 0.3599
H2 H -0.3757 1.0766 0.1746
C6 C 0.0034(4) 1.1688(2) 0.2950(2)
H3 H 0.0829 1.0863 0.2068
H4 H 0.0153 1.2758 0.2885
F1 F 0.4768(2) 0.39054(14) 0.22731(13)
F2 F 0.7561(2) 0.23272(14) -0.01187(14)
O1 O 0.2342(2) 0.83604(15) 0.33646(15)
O2 O 0.0357(3) 0.58338(16) 0.29710(16)
O3 O -0.2903(2) 0.95699(16) 0.30834(15)
H5 H -0.4467 0.9268 0.3133
O4 O 0.1462(2) 1.19366(16) 0.44647(15)
H6 H 0.0914 1.2784 0.5190
C1A C 0.8089(3) 0.3271(2) -0.2647(2)
C2A C 0.6511(3) 0.4162(2) -0.1273(2)
C3A C 0.5183(3) 0.5553(2) -0.1142(2)
C4A C 0.3719(3) 0.6360(2) 0.0091(2)
F1A F 0.5232(2) 0.60946(14) -0.22731(13)
F2A F 0.2439(2) 0.76728(14) 0.01187(14)
O1A O 0.7658(2) 0.16396(15) -0.33646(15)
O2A O 0.9643(3) 0.41662(16) -0.29710(16)
C5A C 0.2851(4) 0.8942(2) 0.7192(2)
H1A H 0.3726 0.8062 0.6401
H2A H 0.3757 0.9234 0.8254
C6A C -0.0034(4) 0.8312(2) 0.7050(2)
H3A H -0.0829 0.9137 0.7932
H4A H -0.0153 0.7242 0.7115
O3A O 0.2903(2) 1.04301(16) 0.69166(15)
H5A H 0.4467 1.0732 0.6867
O4A O -0.1462(2) 0.80634(16) 0.55353(15)
H6A H -0.0914 0.7216 0.4810
Zn1_2 Zn 1.0000 0.0000 -0.5000
O1A_2 O -0.2342(2) 1.16396(15) 0.66354(15)
loop_
_geom_bond_atom_site_label_1
_geom_bond_atom_site_label_2
_geom_bond_site_symmetry_1
_geom_bond_site_symmetry_2
Zn1 O1 1_555 1_555
C1 C2 1_555 1_555
C2 C3 1_555 1_555
C3 C4 1_555 1_555
C4 F2 1_555 1_555
C5 H1 1_555 1_555
H2 C5 1_555 1_555
C6 C5 1_555 1_555
H3 C6 1_555 1_555
H4 C6 1_555 1_555
F1 C3 1_555 1_555
O1 C1 1_555 1_555
O2 C1 1_555 1_555
O3 Zn1 1_555 1_555
H5 O3 1_555 1_555
O4 Zn1 1_555 1_555
H6 O4 1_555 1_555
C1A C2A 1_555 1_555
C2A C4 1_555 1_555
C3A C2A 1_555 1_555
C4A C2 1_555 1_555
F1A C3A 1_555 1_555
F2A C4A 1_555 1_555
O1A C1A 1_555 1_555
O2A C1A 1_555 1_555
C5A H1A 1_555 1_555
H2A C5A 1_555 1_555
C6A C5A 1_555 1_555
H3A C6A 1_555 1_555
H4A C6A 1_555 1_555
O3A Zn1 1_555 1_555
H5A O3A 1_555 1_555
O4A Zn1 1_555 1_555
H6A O4A 1_555 1_555
Zn1_2 O1A 1_555 1_555
O1A_2 Zn1 1_555 1_555
C5 O3 1_555 1_555
C6 O4 1_555 1_555
C3A C4A 1_555 1_555
C5A O3A 1_555 1_555
C6A O4A 1_555 1_555

#END
