
#######################################################################
#
#                 Cambridge Crystallographic Data Centre
#                                CCDC 
#
#######################################################################
#
# If this CIF has been generated from an entry in the Cambridge 
# Structural Database, then it will include bibliographic, chemical, 
# crystal, experimental, refinement or atomic coordinate data resulting 
# from the CCDC's data processing and validation procedures.
#
#######################################################################

data_POCFOE
_symmetry_cell_setting           triclinic
_symmetry_space_group_name_H-M   'P -1'
_symmetry_Int_Tables_number      2
_space_group_name_Hall           '-P 1'
loop_
_symmetry_equiv_pos_site_id
_symmetry_equiv_pos_as_xyz
1 x,y,z
2 -x,-y,-z
_cell_length_a                   8.5794(9)
_cell_length_b                   10.0961(9)
_cell_length_c                   12.6883(12)
_cell_angle_alpha                86.243(2)
_cell_angle_beta                 83.642(2)
_cell_angle_gamma                67.7510(10)
_cell_volume                     1010.63
loop_
_atom_site_label
_atom_site_type_symbol
_atom_site_fract_x
_atom_site_fract_y
_atom_site_fract_z
Cu1 Cu 0.81460(10) 0.81089(9) 0.23280(6)
Mo1 Mo 0.37930(7) 0.41224(6) 0.06005(4)
Mo2 Mo 0.56164(6) 0.56976(6) 0.23938(4)
Mo3 Mo 0.82183(6) 0.27589(5) 0.11879(4)
Mo4 Mo 0.25884(6) 0.81093(6) 0.11236(4)
O1 O 0.7015(7) 0.8973(7) 0.1033(4)
O2 O 0.9473(7) 0.6308(6) 0.1623(4)
O3 O 0.6169(6) 0.7057(5) 0.2746(4)
O4 O 0.5485(6) 0.4793(6) 0.3539(4)
O5 O 0.7821(5) 0.4587(5) 0.1741(3)
O6 O 0.8274(6) 0.1824(5) 0.2341(4)
O7 O 1.0288(6) 0.2344(6) 0.0710(4)
O8 O 0.5289(5) 0.4017(5) 0.1398(3)
O9 O 0.2697(7) 0.3222(6) 0.1346(4)
O10 O 0.4603(5) 0.3303(5) -0.0558(3)
O11 O 0.2469(5) 0.5832(5) 0.0415(3)
O12 O 0.3307(5) 0.6718(5) 0.2233(3)
O13 O 0.2511(6) 0.8365(5) -0.0360(3)
O14 O 0.3244(7) 0.9419(6) 0.1413(4)
O15 O 0.0478(6) 0.8717(6) 0.1525(4)
N1 N 0.9380(7) 0.7459(6) 0.3633(4)
N2 N 0.6748(7) 0.9771(6) 0.3206(4)
C1 C 1.0695(9) 0.6295(8) 0.3808(6)
H1 H 1.1130 0.5611 0.3286
C2 C 1.1461(10) 0.6051(9) 0.4757(6)
H2 H 1.2396 0.5218 0.4855
C3 C 1.0833(10) 0.7043(9) 0.5547(6)
H3 H 1.1321 0.6881 0.6186
C4 C 0.8675(10) 0.9421(9) 0.6119(6)
H4 H 0.9117 0.9331 0.6768
C5 C 0.7330(10) 1.0593(8) 0.5894(6)
H5 H 0.6853 1.1301 0.6396
C6 C 0.5210(9) 1.1978(8) 0.4628(6)
H6 H 0.4698 1.2733 0.5090
C7 C 0.4607(9) 1.2018(8) 0.3673(6)
H7 H 0.3660 1.2795 0.3489
C8 C 0.5398(9) 1.0907(8) 0.2972(6)
H8 H 0.4972 1.0959 0.2321
C9 C 0.7325(8) 0.9708(7) 0.4165(5)
C10 C 0.6617(8) 1.0779(7) 0.4909(5)
C11 C 0.8754(8) 0.8458(7) 0.4398(5)
C12 C 0.9428(9) 0.8314(8) 0.5365(5)
H9 H 0.9485 0.5657 0.2142
H10 H 0.8944 0.5721 0.1510
H11 H 0.7212 0.9674 0.0743
H12 H 0.6486 0.9414 0.0427
Cu1_2 Cu -0.18540(10) 0.81089(9) 0.23280(6)
Mo2A Mo 0.43836(6) 0.43024(6) -0.23938(4)
Mo3A Mo 0.17817(6) 0.72411(5) -0.11879(4)
Mo4A Mo 0.74116(6) 0.18907(6) -0.11236(4)
O10A O 0.5397(5) 0.6697(5) 0.0558(3)
O11A O 0.7531(5) 0.4168(5) -0.0415(3)
O13A O 0.7489(6) 0.1635(5) 0.0360(3)
O15_2 O 1.0478(6) 0.8717(6) 0.1525(4)
loop_
_geom_bond_atom_site_label_1
_geom_bond_atom_site_label_2
_geom_bond_site_symmetry_1
_geom_bond_site_symmetry_2
Cu1 O1 1_555 1_555
Mo1 O8 1_555 1_555
Mo2 O3 1_555 1_555
Mo3 O5 1_555 1_555
Mo4 O11 1_555 1_555
O1 H11 1_555 1_555
O2 Cu1 1_555 1_555
O3 Cu1 1_555 1_555
O4 Mo2 1_555 1_555
O5 Mo2 1_555 1_555
O6 Mo3 1_555 1_555
O7 Mo3 1_555 1_555
O8 Mo2 1_555 1_555
O9 Mo1 1_555 1_555
O10 Mo1 1_555 1_555
O11 Mo1 1_555 1_555
O12 Mo2 1_555 1_555
O13 Mo4 1_555 1_555
O14 Mo4 1_555 1_555
O15 Mo4 1_555 1_555
N1 Cu1 1_555 1_555
N2 Cu1 1_555 1_555
C1 N1 1_555 1_555
H1 C1 1_555 1_555
C2 C1 1_555 1_555
H2 C2 1_555 1_555
C3 C2 1_555 1_555
H3 C3 1_555 1_555
C4 H4 1_555 1_555
C5 C4 1_555 1_555
H5 C5 1_555 1_555
C6 H6 1_555 1_555
C7 C6 1_555 1_555
H7 C7 1_555 1_555
C8 N2 1_555 1_555
H8 C8 1_555 1_555
C9 N2 1_555 1_555
C10 C5 1_555 1_555
C11 N1 1_555 1_555
C12 C3 1_555 1_555
H9 O2 1_555 1_555
H10 O2 1_555 1_555
H12 O1 1_555 1_555
Cu1_2 O15 1_555 1_555
Mo2A O10 1_555 1_555
Mo3A O11 1_555 1_555
Mo4A O10 1_555 1_555
O10A Mo2 1_555 1_555
O11A Mo3 1_555 1_555
O13A Mo3 1_555 1_555
O15_2 Cu1 1_555 1_555
Mo3 O8 1_555 1_555
Mo4 O12 1_555 1_555
Mo4 O10A 1_555 1_555
O13 Mo3A 1_555 1_555
C4 C12 1_555 1_555
C6 C10 1_555 1_555
C7 C8 1_555 1_555
C9 C10 1_555 1_555
C9 C11 1_555 1_555
C11 C12 1_555 1_555
Mo4A O11A 1_555 1_555
Mo4A O13A 1_555 1_555

#END
