
#######################################################################
#
#                 Cambridge Crystallographic Data Centre
#                                CCDC 
#
#######################################################################
#
# If this CIF has been generated from an entry in the Cambridge 
# Structural Database, then it will include bibliographic, chemical, 
# crystal, experimental, refinement or atomic coordinate data resulting 
# from the CCDC's data processing and validation procedures.
#
#######################################################################

data_POCFAQ
_symmetry_cell_setting           monoclinic
_symmetry_space_group_name_H-M   'P 21/n'
_symmetry_Int_Tables_number      14
_space_group_name_Hall           '-P 2yn'
loop_
_symmetry_equiv_pos_site_id
_symmetry_equiv_pos_as_xyz
1 x,y,z
2 1/2-x,1/2+y,1/2-z
3 -x,-y,-z
4 1/2+x,1/2-y,1/2+z
_cell_length_a                   14.640(5)
_cell_length_b                   18.279(5)
_cell_length_c                   22.974(5)
_cell_angle_alpha                90
_cell_angle_beta                 100.005(5)
_cell_angle_gamma                90
_cell_volume                     6054.45
loop_
_atom_site_label
_atom_site_type_symbol
_atom_site_fract_x
_atom_site_fract_y
_atom_site_fract_z
C1 C 0.5125(3) 0.1706(2) 0.69460(16)
H1 H 0.5373 0.1969 0.7283
C2 C 0.5191(3) 0.0950(2) 0.69625(17)
H2 H 0.5471 0.0714 0.7306
C3 C 0.4838(3) 0.0550(2) 0.64667(18)
H3 H 0.4886 0.0042 0.6468
C4 C 0.4405(2) 0.0921(2) 0.59608(15)
C5 C 0.4363(2) 0.16795(19) 0.59847(15)
C6 C 0.3915(2) 0.2097(2) 0.54715(16)
C7 C 0.3485(4) 0.3233(3) 0.5094(2)
H4 H 0.3485 0.3740 0.5134
C8 C 0.3017(4) 0.2918(4) 0.4571(3)
H5 H 0.2701 0.3212 0.4273
C9 C 0.3025(4) 0.2185(4) 0.4502(2)
H6 H 0.2718 0.1973 0.4155
C10 C 0.3499(3) 0.1745(3) 0.49573(17)
C11 C 0.3546(3) 0.0955(3) 0.49235(16)
C12 C 0.4007(2) 0.0543(2) 0.54159(16)
C13 C 0.3710(3) -0.0516(3) 0.4892(2)
C14 C 0.3787(4) -0.1283(3) 0.4848(3)
H7 H 0.4112 -0.1553 0.5159
C15 C 0.3371(5) -0.1623(4) 0.4335(4)
H8 H 0.3408 -0.2129 0.4303
C16 C 0.2892(5) -0.1214(6) 0.3862(4)
H9 H 0.2615 -0.1456 0.3521
C17 C 0.2824(4) -0.0493(5) 0.3889(3)
H10 H 0.2505 -0.0238 0.3566
C18 C 0.3232(3) -0.0105(4) 0.4404(2)
C19 C 0.6314(3) 0.33172(19) 0.67584(19)
C20 C 0.7298(2) 0.34110(19) 0.70466(18)
C21 C 0.7508(3) 0.3570(2) 0.76471(18)
H11 H 0.7033 0.3597 0.7867
C22 C 0.8409(3) 0.3688(2) 0.79195(18)
H12 H 0.8544 0.3792 0.8322
C23 C 0.9117(3) 0.3650(2) 0.75877(18)
C24 C 0.8926(3) 0.3492(2) 0.69881(18)
H13 H 0.9403 0.3467 0.6769
C25 C 0.8010(3) 0.3371(2) 0.67183(18)
H14 H 0.7874 0.3263 0.6317
C26 C 1.0727(3) 0.3793(3) 0.75855(18)
C27 C 1.0966(3) 0.4440(3) 0.7355(2)
H15 H 1.0622 0.4861 0.7390
C28 C 1.1715(3) 0.4467(2) 0.7072(2)
H16 H 1.1872 0.4905 0.6908
C29 C 1.2243(2) 0.38445(19) 0.70281(15)
C30 C 1.1993(3) 0.3196(2) 0.72657(18)
H17 H 1.2339 0.2775 0.7235
C31 C 1.1236(3) 0.3165(2) 0.7547(2)
H18 H 1.1071 0.2728 0.7709
C32 C 1.3047(2) 0.38789(19) 0.67074(17)
O1 O 0.56878(19) 0.33830(16) 0.70669(14)
O2 O 0.61050(19) 0.31774(15) 0.62126(13)
O3 O 0.4655(3) 0.42757(19) 0.6072(2)
O4 O 1.3156(3) 0.44527(19) 0.6441(2)
O5 O 1.35462(18) 0.33288(14) 0.67233(12)
O6 O 0.9990(2) 0.3771(2) 0.78969(13)
Ni1 Ni 0.46744(4) 0.31942(3) 0.63325(3)
N1 N 0.47243(19) 0.20696(17) 0.64721(13)
N2 N 0.3930(2) 0.28313(19) 0.55361(15)
N3 N 0.3157(3) 0.0627(3) 0.44227(16)
N4 N 0.4095(2) -0.0177(2) 0.53973(16)
O5_2 O 0.35462(18) 0.33288(14) 0.67233(12)
Ni1_2 Ni 1.46744(4) 0.31942(3) 0.63325(3)
C33 C 0.6458(2) 0.0956(2) 0.84192(17)
C34 C 0.7295(2) 0.09691(18) 0.81259(15)
C35 C 0.7741(3) 0.0324(2) 0.8035(2)
H19 H 0.7518 -0.0116 0.8156
C36 C 0.8517(3) 0.0322(2) 0.7764(2)
H20 H 0.8821 -0.0114 0.7713
C37 C 0.8826(2) 0.0964(2) 0.75759(17)
C38 C 0.8394(3) 0.1612(2) 0.7652(2)
H21 H 0.8613 0.2047 0.7518
C39 C 0.7623(3) 0.1616(2) 0.79320(18)
H22 H 0.7330 0.2055 0.7988
C40 C 1.0438(3) 0.1101(2) 0.75550(18)
C41 C 1.0648(3) 0.1253(2) 0.81492(18)
H23 H 1.0185 0.1256 0.8380
C42 C 1.1558(3) 0.1403(2) 0.83994(18)
H24 H 1.1706 0.1505 0.8801
C43 C 1.2254(2) 0.14016(19) 0.80585(17)
C44 C 1.3234(2) 0.15587(19) 0.83338(17)
C45 C 1.2028(3) 0.1239(2) 0.74624(18)
H25 H 1.2492 0.1224 0.7233
C46 C 1.1125(3) 0.1099(2) 0.72046(18)
H26 H 1.0974 0.1004 0.6802
C47 C 0.4643(2) 0.3188(2) 0.81247(16)
H27 H 0.4360 0.2925 0.7796
C48 C 0.4743(3) 0.3940(2) 0.80694(17)
H28 H 0.4538 0.4171 0.7710
C49 C 0.5147(3) 0.4333(2) 0.85487(18)
H29 H 0.5220 0.4836 0.8521
C50 C 0.5451(2) 0.3967(2) 0.90861(15)
C51 C 0.5337(2) 0.3218(2) 0.91024(15)
C52 C 0.5644(2) 0.2805(2) 0.96428(16)
C53 C 0.5774(4) 0.1678(3) 1.0095(2)
H30 H 0.5670 0.1176 1.0077
C54 C 0.6210(5) 0.1984(4) 1.0622(2)
H31 H 0.6391 0.1689 1.0952
C55 C 0.6371(4) 0.2715(4) 1.0657(2)
H32 H 0.6673 0.2924 1.1007
C56 C 0.6075(3) 0.3154(3) 1.01560(17)
C57 C 0.6201(3) 0.3941(3) 1.01553(17)
C58 C 0.5880(3) 0.4349(2) 0.96298(18)
C59 C 0.6368(3) 0.5412(3) 1.0114(2)
C60 C 0.6711(3) 0.4988(3) 1.0630(2)
C61 C 0.7150(4) 0.5381(4) 1.1144(3)
H33 H 0.7385 0.5131 1.1489
C62 C 0.6445(3) 0.6178(3) 1.0110(3)
H34 H 0.6213 0.6448 0.9773
C63 C 0.6883(4) 0.6523(4) 1.0627(4)
H35 H 0.6948 0.7029 1.0636
C64 C 0.7221(4) 0.6117(5) 1.1123(4)
H36 H 0.7511 0.6361 1.1460
O7 O 0.4849(2) 0.06579(16) 0.91161(16)
O8 O 0.60398(17) 0.15455(14) 0.84614(12)
O9 O 0.6207(3) 0.03464(17) 0.8583(2)
O10 O 0.95592(18) 0.09507(18) 0.72586(13)
O11 O 1.34250(18) 0.17655(15) 0.88705(12)
O12 O 1.38700(17) 0.14833(15) 0.80363(12)
Ni2 Ni 0.48550(4) 0.17143(3) 0.87964(3)
N5 N 0.49333(18) 0.28293(16) 0.86259(12)
N6 N 0.5499(2) 0.20786(19) 0.96135(15)
N7 N 0.6620(3) 0.4265(3) 1.06477(17)
N8 N 0.5944(2) 0.5072(2) 0.96075(17)
O11_2 O 0.34250(18) 0.17655(15) 0.88705(12)
O12_2 O 0.38700(17) 0.14833(15) 0.80363(12)
Ni2_2 Ni 1.48550(4) 0.17143(3) 0.87964(3)
O13 O 0.3308(3) -0.0022(3) 0.9363(2)
O14 O 0.7456(6) -0.0106(5) 0.9589(3)
O15 O 1.2892(9) 0.1630(6) 0.9986(4)
O16 O 0.5576(10) 0.5345(8) 0.5605(7)
O17 O 1.0903(13) 0.1495(10) 0.9955(8)
loop_
_geom_bond_atom_site_label_1
_geom_bond_atom_site_label_2
_geom_bond_site_symmetry_1
_geom_bond_site_symmetry_2
C1 H1 1_555 1_555
C2 C1 1_555 1_555
H2 C2 1_555 1_555
C3 C2 1_555 1_555
H3 C3 1_555 1_555
C4 C3 1_555 1_555
C5 C4 1_555 1_555
C6 C5 1_555 1_555
C7 H4 1_555 1_555
C8 C7 1_555 1_555
H5 C8 1_555 1_555
C9 C8 1_555 1_555
H6 C9 1_555 1_555
C10 C6 1_555 1_555
C11 C10 1_555 1_555
C12 C4 1_555 1_555
C13 C14 1_555 1_555
C14 H7 1_555 1_555
C15 C14 1_555 1_555
H8 C15 1_555 1_555
C16 C15 1_555 1_555
H9 C16 1_555 1_555
C17 C16 1_555 1_555
H10 C17 1_555 1_555
C18 C13 1_555 1_555
C19 C20 1_555 1_555
C20 C21 1_555 1_555
C21 H11 1_555 1_555
C22 C21 1_555 1_555
H12 C22 1_555 1_555
C23 C22 1_555 1_555
C24 C23 1_555 1_555
H13 C24 1_555 1_555
C25 C20 1_555 1_555
H14 C25 1_555 1_555
C26 C27 1_555 1_555
C27 H15 1_555 1_555
C28 C27 1_555 1_555
H16 C28 1_555 1_555
C29 C28 1_555 1_555
C30 C29 1_555 1_555
H17 C30 1_555 1_555
C31 C26 1_555 1_555
H18 C31 1_555 1_555
C32 C29 1_555 1_555
O1 C19 1_555 1_555
O2 C19 1_555 1_555
O3 Ni1 1_555 1_555
O4 C32 1_555 1_555
O5 C32 1_555 1_555
O6 C23 1_555 1_555
Ni1 O1 1_555 1_555
N1 C1 1_555 1_555
N2 C6 1_555 1_555
N3 C11 1_555 1_555
N4 C12 1_555 1_555
C33 C34 1_555 1_555
C34 C35 1_555 1_555
C35 H19 1_555 1_555
C36 C35 1_555 1_555
H20 C36 1_555 1_555
C37 C36 1_555 1_555
C38 C37 1_555 1_555
H21 C38 1_555 1_555
C39 C34 1_555 1_555
H22 C39 1_555 1_555
C40 C41 1_555 1_555
C41 H23 1_555 1_555
C42 C41 1_555 1_555
H24 C42 1_555 1_555
C43 C42 1_555 1_555
C44 C43 1_555 1_555
C45 C43 1_555 1_555
H25 C45 1_555 1_555
C46 C40 1_555 1_555
H26 C46 1_555 1_555
C47 H27 1_555 1_555
C48 C47 1_555 1_555
H28 C48 1_555 1_555
C49 C48 1_555 1_555
H29 C49 1_555 1_555
C50 C49 1_555 1_555
C51 C50 1_555 1_555
C52 C51 1_555 1_555
C53 H30 1_555 1_555
C54 C53 1_555 1_555
H31 C54 1_555 1_555
C55 C54 1_555 1_555
H32 C55 1_555 1_555
C56 C52 1_555 1_555
C57 C56 1_555 1_555
C58 C50 1_555 1_555
C59 C60 1_555 1_555
C60 C61 1_555 1_555
C61 H33 1_555 1_555
C62 C59 1_555 1_555
H34 C62 1_555 1_555
C63 C62 1_555 1_555
H35 C63 1_555 1_555
C64 C61 1_555 1_555
H36 C64 1_555 1_555
O7 Ni2 1_555 1_555
O8 C33 1_555 1_555
O9 C33 1_555 1_555
O10 C37 1_555 1_555
O11 C44 1_555 1_555
O12 C44 1_555 1_555
Ni2 O8 1_555 1_555
N5 C47 1_555 1_555
N6 C52 1_555 1_555
N7 C57 1_555 1_555
N8 C58 1_555 1_555
O5_2 Ni1 1_555 1_555
Ni1_2 O5 1_555 1_555
O11_2 Ni2 1_555 1_555
O12_2 Ni2 1_555 1_555
Ni2_2 O11 1_555 1_555
C5 N1 1_555 1_555
C7 N2 1_555 1_555
C9 C10 1_555 1_555
C11 C12 1_555 1_555
C13 N4 1_555 1_555
C17 C18 1_555 1_555
C18 N3 1_555 1_555
C24 C25 1_555 1_555
C26 O6 1_555 1_555
C30 C31 1_555 1_555
O2 Ni1 1_555 1_555
Ni1 N1 1_555 1_555
Ni1 N2 1_555 1_555
C38 C39 1_555 1_555
C40 O10 1_555 1_555
C45 C46 1_555 1_555
C51 N5 1_555 1_555
C53 N6 1_555 1_555
C55 C56 1_555 1_555
C57 C58 1_555 1_555
C59 N8 1_555 1_555
C60 N7 1_555 1_555
C63 C64 1_555 1_555
O12 Ni2_2 1_555 1_555
Ni2 N5 1_555 1_555
Ni2 N6 1_555 1_555

#END
