
#######################################################################
#
#                 Cambridge Crystallographic Data Centre
#                                CCDC 
#
#######################################################################
#
# If this CIF has been generated from an entry in the Cambridge 
# Structural Database, then it will include bibliographic, chemical, 
# crystal, experimental, refinement or atomic coordinate data resulting 
# from the CCDC's data processing and validation procedures.
#
#######################################################################

data_POCGAR
_symmetry_cell_setting           orthorhombic
_symmetry_space_group_name_H-M   'P n n a'
_symmetry_Int_Tables_number      52
_space_group_name_Hall           '-P 2a 2bc'
loop_
_symmetry_equiv_pos_site_id
_symmetry_equiv_pos_as_xyz
1 x,y,z
2 1/2-x,-y,z
3 x,1/2-y,1/2-z
4 1/2-x,1/2+y,1/2-z
5 -x,-y,-z
6 1/2+x,y,-z
7 -x,1/2+y,1/2+z
8 1/2+x,1/2-y,1/2+z
_cell_length_a                   25.206(5)
_cell_length_b                   15.132(5)
_cell_length_c                   7.647(5)
_cell_angle_alpha                90
_cell_angle_beta                 90
_cell_angle_gamma                90
_cell_volume                     2916.7
loop_
_atom_site_label
_atom_site_type_symbol
_atom_site_fract_x
_atom_site_fract_y
_atom_site_fract_z
Zn1 Zn 0.21763(3) 0.2500 0.2500
O1 O 0.14378(16) 0.3894(3) 0.2231(4)
O2 O 0.18168(13) 0.2952(2) 0.0410(4)
C1 C 0.31822(18) 0.4553(3) 0.3794(6)
H1 H 0.3397 0.5029 0.3490
N1 N 0.26669(15) 0.3410(2) 0.3565(5)
C2 C 0.11908(16) 0.3954(3) -0.0762(5)
C3 C 0.12753(19) 0.3652(3) -0.2440(5)
H2 H 0.1542 0.3242 -0.2651
C4 C 0.15016(16) 0.3585(3) 0.0731(6)
C5 C 0.0226(2) 0.4785(4) -0.5026(7)
H3 H 0.0346 0.4611 -0.6124
C6 C 0.09653(18) 0.3953(3) -0.3819(6)
H4 H 0.1031 0.3749 -0.4945
C7 C 0.0809(2) 0.4587(4) -0.0478(6)
H5 H 0.0760 0.4818 0.0637
C8 C 0.2950(2) 0.4001(4) 0.2696(7)
C9 C 0.05606(19) 0.4553(3) -0.3543(6)
C10 C 0.0494(2) 0.4882(4) -0.1864(8)
H6 H 0.0236 0.5307 -0.1657
C11 C 0.2734(2) 0.3602(4) 0.5284(8)
H7 H 0.2582 0.3294 0.6212
C12 C 0.2996(3) 0.4036(5) 0.0747(8)
H8 H 0.2791 0.3567 0.0240
H9 H 0.3361 0.3970 0.0416
H10 H 0.2866 0.4595 0.0333
N2 N 0.3053(3) 0.4305(5) 0.5427(9)
H11 H 0.3157 0.4551 0.6382
O1D O -0.14378(16) 0.6106(3) -1.2231(4)
O2D O -0.18168(13) 0.7048(2) -1.0410(4)
C2D C -0.11908(16) 0.6046(3) -0.9238(5)
C3D C -0.12753(19) 0.6348(3) -0.7560(5)
H2D H -0.1542 0.6758 -0.7349
C4D C -0.15016(16) 0.6415(3) -1.0731(6)
C5D C -0.0226(2) 0.5215(4) -0.4974(7)
H3D H -0.0346 0.5389 -0.3876
C6D C -0.09653(18) 0.6047(3) -0.6181(6)
H4D H -0.1031 0.6251 -0.5055
C7D C -0.0809(2) 0.5413(4) -0.9522(6)
H5D H -0.0760 0.5182 -1.0637
C9D C -0.05606(19) 0.5447(3) -0.6457(6)
C10D C -0.0494(2) 0.5118(4) -0.8136(8)
H6D H -0.0236 0.4693 -0.8343
C1B C 0.31822(18) 0.0447(3) 0.1206(6)
H1B H 0.3397 -0.0029 0.1510
N1B N 0.26669(15) 0.1590(2) 0.1435(5)
C8B C 0.2950(2) 0.0999(4) 0.2304(7)
C11B C 0.2734(2) 0.1398(4) -0.0284(8)
H7B H 0.2582 0.1706 -0.1212
C12B C 0.2996(3) 0.0964(5) 0.4253(8)
H8B H 0.2791 0.1433 0.4760
H9B H 0.3361 0.1030 0.4584
H10B H 0.2866 0.0405 0.4667
N2B N 0.3053(3) 0.0695(5) -0.0427(9)
H11B H 0.3157 0.0449 -0.1382
Zn1D Zn -0.21763(3) 0.7500 -1.2500
O2B O 0.18168(13) 0.2048(2) 0.4590(4)
O3 O 0.0001(14) 0.2350(17) -0.503(5)
O4? O 0.0130(10) 0.2433(15) -0.675(3)
loop_
_geom_bond_atom_site_label_1
_geom_bond_atom_site_label_2
_geom_bond_site_symmetry_1
_geom_bond_site_symmetry_2
Zn1 O2 1_555 1_555
O1 C4 1_555 1_555
O2 C4 1_555 1_555
C1 H1 1_555 1_555
N1 Zn1 1_555 1_555
C2 C3 1_555 1_555
C3 H2 1_555 1_555
C4 C2 1_555 1_555
C5 H3 1_555 1_555
C6 C3 1_555 1_555
H4 C6 1_555 1_555
C7 C2 1_555 1_555
H5 C7 1_555 1_555
C8 C1 1_555 1_555
C9 C5 1_555 1_555
C10 C7 1_555 1_555
H6 C10 1_555 1_555
C11 N1 1_555 1_555
H7 C11 1_555 1_555
C12 C8 1_555 1_555
H8 C12 1_555 1_555
H9 C12 1_555 1_555
H10 C12 1_555 1_555
N2 C1 1_555 1_555
H11 N2 1_555 1_555
O1D C4D 1_555 1_555
O2D C4D 1_555 1_555
C2D C3D 1_555 1_555
C3D H2D 1_555 1_555
C4D C2D 1_555 1_555
C5D C5 1_555 1_555
H3D C5D 1_555 1_555
C6D C3D 1_555 1_555
H4D C6D 1_555 1_555
C7D C2D 1_555 1_555
H5D C7D 1_555 1_555
C9D C5D 1_555 1_555
C10D C7D 1_555 1_555
H6D C10D 1_555 1_555
C1B H1B 1_555 1_555
N1B Zn1 1_555 1_555
C8B C1B 1_555 1_555
C11B N1B 1_555 1_555
H7B C11B 1_555 1_555
C12B C8B 1_555 1_555
H8B C12B 1_555 1_555
H9B C12B 1_555 1_555
H10B C12B 1_555 1_555
N2B C1B 1_555 1_555
H11B N2B 1_555 1_555
Zn1D O2D 1_555 1_555
O2B Zn1 1_555 1_555
N1 C8 1_555 1_555
C6 C9 1_555 1_555
C9 C10 1_555 1_555
C11 N2 1_555 1_555
C6D C9D 1_555 1_555
C9D C10D 1_555 1_555
N1B C8B 1_555 1_555
C11B N2B 1_555 1_555

#END
