
#######################################################################
#
#                 Cambridge Crystallographic Data Centre
#                                CCDC 
#
#######################################################################
#
# If this CIF has been generated from an entry in the Cambridge 
# Structural Database, then it will include bibliographic, chemical, 
# crystal, experimental, refinement or atomic coordinate data resulting 
# from the CCDC's data processing and validation procedures.
#
#######################################################################

data_POCHEV
_symmetry_cell_setting           monoclinic
_symmetry_space_group_name_H-M   'C 2/c'
_symmetry_Int_Tables_number      15
_space_group_name_Hall           '-C 2yn'
loop_
_symmetry_equiv_pos_site_id
_symmetry_equiv_pos_as_xyz
1 x,y,z
2 1/2+x,1/2+y,z
3 -x,y,1/2-z
4 1/2-x,1/2+y,1/2-z
5 -x,-y,-z
6 1/2-x,1/2-y,-z
7 x,-y,1/2+z
8 1/2+x,1/2-y,1/2+z
_cell_length_a                   28.050(5)
_cell_length_b                   11.834(2)
_cell_length_c                   17.228(3)
_cell_angle_alpha                90
_cell_angle_beta                 113.881(3)
_cell_angle_gamma                90
_cell_volume                     5229.14
loop_
_atom_site_label
_atom_site_type_symbol
_atom_site_fract_x
_atom_site_fract_y
_atom_site_fract_z
Cs1 Cs 0.296033(13) 0.56656(3) -0.00453(2)
O1 O 0.24617(17) 0.3320(3) -0.0619(3)
O2 O 0.31273(17) 0.5086(5) 0.1792(3)
O3 O 0.31936(19) 0.5363(4) 0.3463(3)
O4 O 0.40535(19) 0.4464(4) 0.0734(4)
O5 O 0.5135(2) 0.4264(5) 0.1346(5)
C1 C 0.2802(3) 0.2379(5) -0.0459(4)
H1 H 0.3105 0.2592 -0.0562
H2 H 0.2625 0.1772 -0.0846
C2 C 0.2026(2) 0.3028(6) -0.0431(4)
H3 H 0.1824 0.2442 -0.0818
H4 H 0.1803 0.3684 -0.0514
C3 C 0.3486(3) 0.4455(7) 0.2485(5)
H5 H 0.3792 0.4287 0.2379
H6 H 0.3326 0.3744 0.2528
C4 C 0.3645(3) 0.5076(8) 0.3299(4)
H7 H 0.3829 0.5761 0.3275
H8 H 0.3881 0.4611 0.3758
C5 C 0.2859(3) 0.6018(6) 0.2799(4)
H9 H 0.2557 0.6224 0.2910
H10 H 0.3035 0.6708 0.2763
C6 C 0.2684(3) 0.5402(7) 0.1977(4)
H11 H 0.2494 0.4729 0.2003
H12 H 0.2450 0.5880 0.1525
C7 C 0.4325(4) 0.3417(8) 0.0972(15)
H13 H 0.4341 0.3271 0.1536
H14 H 0.4119 0.2818 0.0605
C8 C 0.4792(4) 0.3340(9) 0.1023(11)
H15 H 0.4762 0.3147 0.0458
H16 H 0.4960 0.2706 0.1388
C9 C 0.4876(4) 0.5281(8) 0.1148(12)
H17 H 0.5084 0.5817 0.1578
H18 H 0.4877 0.5536 0.0614
C10 C 0.4401(4) 0.5361(8) 0.1067(11)
H19 H 0.4251 0.6016 0.0713
H20 H 0.4411 0.5529 0.1624
P1 P 0.33609(6) 0.85904(13) 0.03068(9)
Si1 Si 0.37646(6) 0.89242(14) 0.16677(10)
Si2 Si 0.39412(7) 0.90075(14) -0.01934(11)
C11 C 0.4194(3) 1.0221(6) 0.2000(4)
H21 H 0.4355 1.0266 0.2609
H22 H 0.4460 1.0168 0.1784
H23 H 0.3988 1.0885 0.1776
C12 C 0.3251(3) 0.9122(7) 0.2083(4)
H24 H 0.3413 0.9272 0.2682
H25 H 0.3044 0.8448 0.1984
H26 H 0.3032 0.9747 0.1798
C13 C 0.4186(3) 0.7724(6) 0.2307(5)
H27 H 0.4282 0.7861 0.2901
H28 H 0.3998 0.7024 0.2149
H29 H 0.4494 0.7682 0.2195
C14 C 0.3738(4) 0.8291(7) -0.1249(5)
H30 H 0.3974 0.8493 -0.1502
H31 H 0.3743 0.7486 -0.1173
H32 H 0.3391 0.8526 -0.1613
C15 C 0.3978(3) 1.0571(5) -0.0383(5)
H33 H 0.4248 1.0700 -0.0580
H34 H 0.3651 1.0833 -0.0801
H35 H 0.4058 1.0973 0.0139
C16 C 0.4632(3) 0.8554(8) 0.0453(6)
H36 H 0.4850 0.8823 0.0183
H37 H 0.4750 0.8863 0.1015
H38 H 0.4649 0.7744 0.0485
Cs1E Cs 0.203967(13) -0.06656(3) 0.00453(2)
Cs1F Cs 0.296033(13) 0.43344(3) 0.49547(2)
Cs1F_2 Cs 0.296033(13) 0.43344(3) -0.50453(2)
O1E O 0.25383(17) 0.1680(3) 0.0619(3)
O2F O 0.31273(17) 0.4914(5) -0.3208(3)
O2E O 0.18727(17) -0.0086(5) -0.1792(3)
O3F O 0.31936(19) 0.4637(4) -0.1537(3)
O3C O 0.18064(19) 0.0363(4) 0.1537(3)
O4E O 0.09465(19) 0.0536(4) -0.0734(4)
O5E O -0.0135(2) 0.0736(5) -0.1346(5)
C1E C 0.2198(3) 0.2621(5) 0.0459(4)
H1E H 0.1895 0.2408 0.0562
H2E H 0.2375 0.3228 0.0846
C2E C 0.2974(2) 0.1972(6) 0.0431(4)
H3E H 0.3176 0.2558 0.0818
H4E H 0.3197 0.1316 0.0514
C3F C 0.3486(3) 0.5545(7) -0.2515(5)
H5F H 0.3792 0.5713 -0.2621
H6F H 0.3326 0.6256 -0.2472
C4F C 0.3645(3) 0.4924(8) -0.1701(4)
H7F H 0.3829 0.4239 -0.1725
H8F H 0.3881 0.5389 -0.1242
C5F C 0.2859(3) 0.3982(6) -0.2201(4)
H9F H 0.2557 0.3776 -0.2090
H10F H 0.3035 0.3292 -0.2237
C6F C 0.2684(3) 0.4598(7) -0.3023(4)
H11F H 0.2494 0.5271 -0.2997
H12F H 0.2450 0.4120 -0.3475
C7E C 0.0675(4) 0.1583(8) -0.0972(15)
H13E H 0.0659 0.1729 -0.1536
H14E H 0.0881 0.2182 -0.0605
C8E C 0.0208(4) 0.1660(9) -0.1023(11)
H15E H 0.0238 0.1853 -0.0458
H16E H 0.0040 0.2294 -0.1388
C9E C 0.0124(4) -0.0281(8) -0.1148(12)
H17E H -0.0084 -0.0817 -0.1578
H18E H 0.0123 -0.0536 -0.0614
C10E C 0.0599(4) -0.0361(8) -0.1067(11)
H19E H 0.0749 -0.1016 -0.0713
H20E H 0.0589 -0.0529 -0.1624
P1E P 0.16391(6) -0.35904(13) -0.03068(9)
Si1E Si 0.12354(6) -0.39242(14) -0.16677(10)
Si2E Si 0.10588(7) -0.40075(14) 0.01934(11)
C11E C 0.0806(3) -0.5221(6) -0.2000(4)
H21E H 0.0645 -0.5266 -0.2609
H22E H 0.0540 -0.5168 -0.1784
H23E H 0.1012 -0.5885 -0.1776
C12E C 0.1749(3) -0.4122(7) -0.2083(4)
H24E H 0.1587 -0.4272 -0.2682
H25E H 0.1956 -0.3448 -0.1984
H26E H 0.1968 -0.4747 -0.1798
C13E C 0.0814(3) -0.2724(6) -0.2307(5)
H27E H 0.0718 -0.2861 -0.2901
H28E H 0.1002 -0.2024 -0.2149
H29E H 0.0506 -0.2682 -0.2195
C14E C 0.1262(4) -0.3291(7) 0.1249(5)
H30E H 0.1026 -0.3493 0.1502
H31E H 0.1257 -0.2486 0.1173
H32E H 0.1609 -0.3526 0.1613
C15E C 0.1022(3) -0.5571(5) 0.0383(5)
H33E H 0.0752 -0.5700 0.0580
H34E H 0.1349 -0.5833 0.0801
H35E H 0.0942 -0.5973 -0.0139
C16E C 0.0368(3) -0.3554(8) -0.0453(6)
H36E H 0.0150 -0.3823 -0.0183
H37E H 0.0250 -0.3863 -0.1015
H38E H 0.0351 -0.2744 -0.0485
loop_
_geom_bond_atom_site_label_1
_geom_bond_atom_site_label_2
_geom_bond_site_symmetry_1
_geom_bond_site_symmetry_2
Cs1 O1 1_555 1_555
O1 C1 1_555 1_555
O2 Cs1 1_555 1_555
O3 C4 1_555 1_555
O4 Cs1 1_555 1_555
O5 C8 1_555 1_555
C1 H1 1_555 1_555
H2 C1 1_555 1_555
C2 O1 1_555 1_555
H3 C2 1_555 1_555
H4 C2 1_555 1_555
C3 O2 1_555 1_555
H5 C3 1_555 1_555
H6 C3 1_555 1_555
C4 C3 1_555 1_555
H7 C4 1_555 1_555
H8 C4 1_555 1_555
C5 O3 1_555 1_555
H9 C5 1_555 1_555
H10 C5 1_555 1_555
C6 O2 1_555 1_555
H11 C6 1_555 1_555
H12 C6 1_555 1_555
C7 O4 1_555 1_555
H13 C7 1_555 1_555
H14 C7 1_555 1_555
C8 C7 1_555 1_555
H15 C8 1_555 1_555
H16 C8 1_555 1_555
C9 O5 1_555 1_555
H17 C9 1_555 1_555
H18 C9 1_555 1_555
C10 O4 1_555 1_555
H19 C10 1_555 1_555
H20 C10 1_555 1_555
P1 Cs1 1_555 1_555
Si1 P1 1_555 1_555
Si2 P1 1_555 1_555
C11 Si1 1_555 1_555
H21 C11 1_555 1_555
H22 C11 1_555 1_555
H23 C11 1_555 1_555
C12 Si1 1_555 1_555
H24 C12 1_555 1_555
H25 C12 1_555 1_555
H26 C12 1_555 1_555
C13 Si1 1_555 1_555
H27 C13 1_555 1_555
H28 C13 1_555 1_555
H29 C13 1_555 1_555
C14 Si2 1_555 1_555
H30 C14 1_555 1_555
H31 C14 1_555 1_555
H32 C14 1_555 1_555
C15 Si2 1_555 1_555
H33 C15 1_555 1_555
H34 C15 1_555 1_555
H35 C15 1_555 1_555
C16 Si2 1_555 1_555
H36 C16 1_555 1_555
H37 C16 1_555 1_555
H38 C16 1_555 1_555
Cs1E O1E 1_555 1_555
Cs1F O3 1_555 1_555
Cs1F_2 O2F 1_555 1_555
O1E C1E 1_555 1_555
O2F C3F 1_555 1_555
O2E Cs1E 1_555 1_555
O3F Cs1 1_555 1_555
O3C Cs1E 1_555 1_555
O4E Cs1E 1_555 1_555
O5E C8E 1_555 1_555
C1E C2 1_555 1_555
H1E C1E 1_555 1_555
H2E C1E 1_555 1_555
C2E C1 1_555 1_555
H3E C2E 1_555 1_555
H4E C2E 1_555 1_555
C3F H5F 1_555 1_555
H6F C3F 1_555 1_555
C4F O3F 1_555 1_555
H7F C4F 1_555 1_555
H8F C4F 1_555 1_555
C5F O3F 1_555 1_555
H9F C5F 1_555 1_555
H10F C5F 1_555 1_555
C6F O2F 1_555 1_555
H11F C6F 1_555 1_555
H12F C6F 1_555 1_555
C7E O4E 1_555 1_555
H13E C7E 1_555 1_555
H14E C7E 1_555 1_555
C8E C7E 1_555 1_555
H15E C8E 1_555 1_555
H16E C8E 1_555 1_555
C9E O5E 1_555 1_555
H17E C9E 1_555 1_555
H18E C9E 1_555 1_555
C10E O4E 1_555 1_555
H19E C10E 1_555 1_555
H20E C10E 1_555 1_555
P1E Cs1E 1_555 1_555
Si1E P1E 1_555 1_555
Si2E P1E 1_555 1_555
C11E Si1E 1_555 1_555
H21E C11E 1_555 1_555
H22E C11E 1_555 1_555
H23E C11E 1_555 1_555
C12E Si1E 1_555 1_555
H24E C12E 1_555 1_555
H25E C12E 1_555 1_555
H26E C12E 1_555 1_555
C13E Si1E 1_555 1_555
H27E C13E 1_555 1_555
H28E C13E 1_555 1_555
H29E C13E 1_555 1_555
C14E Si2E 1_555 1_555
H30E C14E 1_555 1_555
H31E C14E 1_555 1_555
H32E C14E 1_555 1_555
C15E Si2E 1_555 1_555
H33E C15E 1_555 1_555
H34E C15E 1_555 1_555
H35E C15E 1_555 1_555
C16E Si2E 1_555 1_555
H36E C16E 1_555 1_555
H37E C16E 1_555 1_555
H38E C16E 1_555 1_555
C5 C6 1_555 1_555
C9 C10 1_555 1_555
O1E C2E 1_555 1_555
C3F C4F 1_555 1_555
C5F C6F 1_555 1_555
C9E C10E 1_555 1_555

#END
