
#######################################################################
#
#                 Cambridge Crystallographic Data Centre
#                                CCDC 
#
#######################################################################
#
# If this CIF has been generated from an entry in the Cambridge 
# Structural Database, then it will include bibliographic, chemical, 
# crystal, experimental, refinement or atomic coordinate data resulting 
# from the CCDC's data processing and validation procedures.
#
#######################################################################

data_POCJOI
_symmetry_cell_setting           monoclinic
_symmetry_space_group_name_H-M   'P 21/n'
_symmetry_Int_Tables_number      14
_space_group_name_Hall           '-P 2yn'
loop_
_symmetry_equiv_pos_site_id
_symmetry_equiv_pos_as_xyz
1 x,y,z
2 1/2-x,1/2+y,1/2-z
3 -x,-y,-z
4 1/2+x,1/2-y,1/2+z
_cell_length_a                   12.091(5)
_cell_length_b                   19.444(5)
_cell_length_c                   18.645(5)
_cell_angle_alpha                90
_cell_angle_beta                 101.703(5)
_cell_angle_gamma                90
_cell_volume                     4292.27
loop_
_atom_site_label
_atom_site_type_symbol
_atom_site_fract_x
_atom_site_fract_y
_atom_site_fract_z
C1 C -0.0920(5) -0.3767(2) 0.2785(3)
C2 C -0.1330(4) -0.4430(2) 0.2402(3)
C3 C -0.2221(5) -0.4745(3) 0.2602(3)
H1 H -0.2591 -0.4525 0.2929
C4 C -0.2601(4) -0.5401(2) 0.2327(3)
H2 H -0.3205 -0.5611 0.2479
C5 C -0.2071(4) -0.5725(2) 0.1834(3)
C6 C -0.2569(4) -0.6397(2) 0.1525(3)
C7 C -0.1145(4) -0.5409(2) 0.1604(3)
C8 C -0.0779(4) -0.4752(2) 0.1893(3)
C9 C 0.0135(6) -0.4441(3) 0.1657(4)
H3 H 0.0394 -0.4014 0.1846
C10 C 0.0648(7) -0.4751(4) 0.1158(5)
H4 H 0.1238 -0.4531 0.1000
C11 C 0.0288(7) -0.5404(4) 0.0880(5)
H5 H 0.0652 -0.5620 0.0548
C12 C -0.0580(6) -0.5716(3) 0.1095(4)
H6 H -0.0815 -0.6145 0.0903
C13 C 0.0926(5) -0.1519(3) 0.5301(3)
H7 H 0.0810 -0.1926 0.5537
C14 C 0.1318(5) -0.0948(3) 0.5726(3)
H8 H 0.1468 -0.0977 0.6235
C15 C 0.1479(5) -0.0351(3) 0.5391(3)
H9 H 0.1742 0.0035 0.5669
C16 C 0.1251(5) -0.0315(3) 0.4633(3)
C17 C 0.0869(4) -0.0919(3) 0.4225(3)
C18 C 0.0630(4) -0.0904(3) 0.3427(3)
C19 C 0.0060(5) -0.1493(3) 0.2352(3)
H10 H -0.0178 -0.1900 0.2107
C20 C 0.0169(5) -0.0923(3) 0.1929(3)
H11 H -0.0009 -0.0948 0.1420
C21 C 0.0549(5) -0.0318(3) 0.2277(3)
H12 H 0.0662 0.0071 0.2010
C22 C 0.0759(4) -0.0303(3) 0.3036(3)
C23 C 0.1105(5) 0.0305(3) 0.3464(3)
C24 C 0.1346(4) 0.0287(3) 0.4211(3)
C25 C 0.1507(5) 0.1331(3) 0.3807(3)
C26 C 0.1747(4) 0.20827(18) 0.3790(3)
C27 C 0.0956(3) 0.2517(3) 0.3372(2)
C28 C 0.1225(4) 0.3202(2) 0.3280(3)
H13 H 0.0696 0.3492 0.3000
C29 C 0.2284(5) 0.34528(19) 0.3606(3)
H14 H 0.2464 0.3911 0.3544
C30 C 0.3075(4) 0.3019(3) 0.4024(3)
H15 H 0.3784 0.3187 0.4242
C31 C 0.2807(4) 0.2334(2) 0.4116(3)
C32 C -0.3421(5) -0.3185(3) 0.3703(3)
H16 H -0.3557 -0.2814 0.3382
C33 C -0.4299(5) -0.3617(3) 0.3727(3)
H17 H -0.5016 -0.3531 0.3449
C34 C -0.4092(5) -0.4191(3) 0.4180(3)
H18 H -0.4670 -0.4498 0.4210
C35 C -0.3010(4) -0.4298(3) 0.4587(3)
C36 C -0.2170(4) -0.3810(3) 0.4553(3)
C37 C -0.1034(4) -0.3869(2) 0.5006(3)
C38 C -0.0748(4) -0.4442(2) 0.5469(3)
C39 C 0.0330(5) -0.4474(3) 0.5900(3)
H19 H 0.0543 -0.4849 0.6206
C40 C 0.1078(5) -0.3953(3) 0.5873(3)
H20 H 0.1800 -0.3962 0.6163
C41 C 0.0731(5) -0.3411(3) 0.5401(3)
H21 H 0.1245 -0.3060 0.5380
C42 C -0.1597(4) -0.4941(3) 0.5463(3)
C43 C -0.2684(4) -0.4892(3) 0.5050(3)
C44 C -0.2596(5) -0.5856(3) 0.5590(4)
C45 C -0.2832(5) -0.6547(3) 0.5856(4)
C46 C -0.3300(5) -0.7073(4) 0.5423(4)
C47 C -0.3432(6) -0.7726(4) 0.5701(6)
H22 H -0.3746 -0.8082 0.5393
C48 C -0.3096(8) -0.7831(5) 0.6425(6)
H23 H -0.3162 -0.8270 0.6610
C49 C -0.2668(8) -0.7328(5) 0.6891(5)
H24 H -0.2469 -0.7422 0.7389
C50 C -0.2521(6) -0.6681(4) 0.6646(5)
O1 O -0.0257(4) -0.37979(18) 0.3370(2)
O2 O -0.1567(7) -0.3237(4) 0.2598(4)
O3 O -0.2685(3) -0.68559(17) 0.1982(2)
O4 O -0.2929(4) -0.64678(17) 0.0863(2)
Pb1 Pb -0.075032(16) -0.252859(9) 0.375755(10)
Cl1 Cl -0.0239(2) 0.22876(14) 0.30312(14)
Cl2 Cl -0.36468(18) -0.69794(11) 0.45016(12)
N1 N 0.0708(4) -0.1509(2) 0.4574(3)
N2 N 0.0263(4) -0.1507(2) 0.3071(2)
N3 N 0.1200(4) 0.0959(2) 0.3208(3)
N4 N 0.1625(4) 0.0955(2) 0.4424(3)
H25 H 0.1833 0.1102 0.4865
N5 N -0.2384(4) -0.3254(2) 0.4103(2)
N6 N -0.0291(4) -0.3360(2) 0.4974(2)
N7 N -0.3319(4) -0.5469(2) 0.5131(3)
N8 N -0.1568(4) -0.5561(2) 0.5811(2)
H26 H -0.1003 -0.5733 0.6114
F1 F 0.3685(2) 0.19462(15) 0.45386(18)
F2 F -0.2095(4) -0.6178(2) 0.7104(2)
O3A O -0.2315(3) -0.18559(17) 0.3018(2)
O4A O -0.2071(4) -0.14678(17) 0.4137(2)
Pb1A Pb -0.424968(16) -0.752859(9) 0.124245(10)
O6 O -0.2591(15) -0.2407(10) 0.1575(8)
O5? O -0.0992(7) -0.3211(4) 0.2448(4)
loop_
_geom_bond_atom_site_label_1
_geom_bond_atom_site_label_2
_geom_bond_site_symmetry_1
_geom_bond_site_symmetry_2
C1 C2 1_555 1_555
C2 C3 1_555 1_555
C3 H1 1_555 1_555
C4 C3 1_555 1_555
H2 C4 1_555 1_555
C5 C4 1_555 1_555
C6 C5 1_555 1_555
C7 C5 1_555 1_555
C8 C2 1_555 1_555
C9 C8 1_555 1_555
H3 C9 1_555 1_555
C10 C9 1_555 1_555
H4 C10 1_555 1_555
C11 C10 1_555 1_555
H5 C11 1_555 1_555
C12 C7 1_555 1_555
H6 C12 1_555 1_555
C13 H7 1_555 1_555
C14 C13 1_555 1_555
H8 C14 1_555 1_555
C15 C14 1_555 1_555
H9 C15 1_555 1_555
C16 C15 1_555 1_555
C17 C16 1_555 1_555
C18 C17 1_555 1_555
C19 H10 1_555 1_555
C20 C19 1_555 1_555
H11 C20 1_555 1_555
C21 C20 1_555 1_555
H12 C21 1_555 1_555
C22 C18 1_555 1_555
C23 C22 1_555 1_555
C24 C16 1_555 1_555
C25 C26 1_555 1_555
C26 C27 1_555 1_555
C27 C28 1_555 1_555
C28 H13 1_555 1_555
C29 C28 1_555 1_555
H14 C29 1_555 1_555
C30 C29 1_555 1_555
H15 C30 1_555 1_555
C31 C26 1_555 1_555
C32 H16 1_555 1_555
C33 C32 1_555 1_555
H17 C33 1_555 1_555
C34 C33 1_555 1_555
H18 C34 1_555 1_555
C35 C34 1_555 1_555
C36 C35 1_555 1_555
C37 C36 1_555 1_555
C38 C37 1_555 1_555
C39 C38 1_555 1_555
H19 C39 1_555 1_555
C40 C39 1_555 1_555
H20 C40 1_555 1_555
C41 C40 1_555 1_555
H21 C41 1_555 1_555
C42 C38 1_555 1_555
C43 C35 1_555 1_555
C44 C45 1_555 1_555
C45 C46 1_555 1_555
C46 C47 1_555 1_555
C47 H22 1_555 1_555
C48 C47 1_555 1_555
H23 C48 1_555 1_555
C49 C48 1_555 1_555
H24 C49 1_555 1_555
C50 C45 1_555 1_555
O1 C1 1_555 1_555
O2 C1 1_555 1_555
O3 C6 1_555 1_555
O4 C6 1_555 1_555
Pb1 O1 1_555 1_555
Cl1 C27 1_555 1_555
Cl2 C46 1_555 1_555
N1 C13 1_555 1_555
N2 C18 1_555 1_555
N3 C23 1_555 1_555
N4 C24 1_555 1_555
H25 N4 1_555 1_555
N5 C32 1_555 1_555
N6 C37 1_555 1_555
N7 C43 1_555 1_555
N8 C42 1_555 1_555
H26 N8 1_555 1_555
F1 C31 1_555 1_555
F2 C50 1_555 1_555
O3A Pb1 1_555 1_555
O4A Pb1 1_555 1_555
Pb1A O3 1_555 1_555
C7 C8 1_555 1_555
C11 C12 1_555 1_555
C17 N1 1_555 1_555
C19 N2 1_555 1_555
C21 C22 1_555 1_555
C23 C24 1_555 1_555
C25 N3 1_555 1_555
C25 N4 1_555 1_555
C30 C31 1_555 1_555
C36 N5 1_555 1_555
C41 N6 1_555 1_555
C42 C43 1_555 1_555
C44 N7 1_555 1_555
C44 N8 1_555 1_555
C49 C50 1_555 1_555
O2 Pb1 1_555 1_555
O4 Pb1A 1_555 1_555
Pb1 N1 1_555 1_555
Pb1 N2 1_555 1_555
Pb1 N5 1_555 1_555
Pb1 N6 1_555 1_555

#END
