
#######################################################################
#
#                 Cambridge Crystallographic Data Centre
#                                CCDC 
#
#######################################################################
#
# If this CIF has been generated from an entry in the Cambridge 
# Structural Database, then it will include bibliographic, chemical, 
# crystal, experimental, refinement or atomic coordinate data resulting 
# from the CCDC's data processing and validation procedures.
#
#######################################################################

data_POCKUO01
_symmetry_cell_setting           monoclinic
_symmetry_space_group_name_H-M   'C 2/c'
_symmetry_Int_Tables_number      15
_space_group_name_Hall           '-C 2yn'
loop_
_symmetry_equiv_pos_site_id
_symmetry_equiv_pos_as_xyz
1 x,y,z
2 -x,y,1/2-z
3 1/2+x,1/2+y,z
4 1/2-x,1/2+y,1/2-z
5 -x,-y,-z
6 x,-y,1/2+z
7 1/2-x,1/2-y,-z
8 1/2+x,1/2-y,1/2+z
_cell_length_a                   15.674(7)
_cell_length_b                   10.578(4)
_cell_length_c                   7.433(4)
_cell_angle_alpha                90
_cell_angle_beta                 110.763(6)
_cell_angle_gamma                90
_cell_volume                     1152.35
loop_
_atom_site_label
_atom_site_type_symbol
_atom_site_fract_x
_atom_site_fract_y
_atom_site_fract_z
Cd1 Cd 0.311657(16) 0.08444(2) 0.54030(4)
O1 O 0.36044(16) -0.1184(2) 0.6040(4)
C1 C 0.4107(2) -0.1595(3) 0.7647(5)
O2 O 0.42676(14) -0.1039(2) 0.9220(4)
C2 C 0.4574(2) -0.2834(3) 0.7607(4)
C3 C 0.4146(2) -0.3983(3) 0.7696(5)
C4 C 0.4578(2) -0.5111(3) 0.7584(5)
H1 H 0.4291 -0.5875 0.7624
C5 C 0.3256(2) -0.4042(3) 0.8028(5)
O3 O 0.27685(15) -0.5016(2) 0.7528(4)
O4 O 0.30365(15) -0.3154(2) 0.8923(4)
O5 O 0.40729(16) 0.1855(2) 0.8018(3)
H2 H 0.3797(18) 0.183(3) 0.886(4)
H3 H 0.4627(12) 0.154(4) 0.854(4)
Cd1A Cd 0.688343(16) 0.08444(2) 0.95970(4)
Cd1E Cd 0.311657(16) -0.08444(2) 1.04030(4)
Cd1F Cd 0.188343(16) -0.58444(2) 0.45970(4)
Cd1C Cd 0.188343(16) -0.41556(2) 0.95970(4)
Cd1D Cd 0.688343(16) -0.08444(2) 0.45970(4)
Cd1G Cd 0.811657(16) -0.58444(2) 1.04030(4)
Cd1B Cd 0.811657(16) -0.41556(2) 0.54030(4)
O1A O 0.63956(16) -0.1184(2) 0.8960(4)
C1A C 0.5893(2) -0.1595(3) 0.7353(5)
O2A O 0.57324(14) -0.1039(2) 0.5780(4)
O2E O 0.42676(14) 0.1039(2) 0.4220(4)
O2D O 0.57324(14) 0.1039(2) 1.0780(4)
C2A C 0.5426(2) -0.2834(3) 0.7393(4)
C3A C 0.5854(2) -0.3983(3) 0.7304(5)
C4A C 0.5422(2) -0.5111(3) 0.7416(5)
H1A H 0.5709 -0.5875 0.7376
C5A C 0.6744(2) -0.4042(3) 0.6972(5)
O3A O 0.72315(15) -0.5016(2) 0.7472(4)
O3F O 0.22315(15) 0.0016(2) 0.2472(4)
O3C O 0.22315(15) -0.0016(2) 0.7472(4)
O3G O 0.77685(15) 0.0016(2) 1.2528(4)
O3B O 0.77685(15) -0.0016(2) 0.7528(4)
O4A O 0.69635(15) -0.3154(2) 0.6077(4)
O4C O 0.19635(15) 0.1846(2) 0.6077(4)
O4B O 0.80365(15) 0.1846(2) 0.8923(4)
O5A O 0.59271(16) 0.1855(2) 0.6982(3)
H2A H 0.6203(18) 0.183(3) 0.614(4)
H3A H 0.5373(12) 0.154(4) 0.646(4)
loop_
_geom_bond_atom_site_label_1
_geom_bond_atom_site_label_2
_geom_bond_site_symmetry_1
_geom_bond_site_symmetry_2
Cd1 O1 1_555 1_555
O1 C1 1_555 1_555
C1 O2 1_555 1_555
O2 Cd1E 1_555 1_555
C2 C1 1_555 1_555
C3 C2 1_555 1_555
C4 C3 1_555 1_555
H1 C4 1_555 1_555
C5 C3 1_555 1_555
O3 C5 1_555 1_555
O4 C5 1_555 1_555
O5 Cd1 1_555 1_555
H2 O5 1_555 1_555
H3 O5 1_555 1_555
Cd1A O1A 1_555 1_555
Cd1E O3C 1_555 1_555
Cd1F O3 1_555 1_555
Cd1C O3 1_555 1_555
Cd1D O2A 1_555 1_555
Cd1G O3A 1_555 1_555
Cd1B O3A 1_555 1_555
O1A C1A 1_555 1_555
C1A O2A 1_555 1_555
O2E Cd1 1_555 1_555
O2D Cd1A 1_555 1_555
C2A C2 1_555 1_555
C3A C2A 1_555 1_555
C4A C4 1_555 1_555
H1A C4A 1_555 1_555
C5A C3A 1_555 1_555
O3A C5A 1_555 1_555
O3F Cd1 1_555 1_555
O3C Cd1 1_555 1_555
O3G Cd1A 1_555 1_555
O3B Cd1A 1_555 1_555
O4A Cd1B 1_555 1_555
O4C Cd1 1_555 1_555
O4B Cd1A 1_555 1_555
O5A Cd1A 1_555 1_555
H2A O5A 1_555 1_555
H3A O5A 1_555 1_555
O4 Cd1C 1_555 1_555
Cd1D O3B 1_555 1_555
C1A C2A 1_555 1_555
C3A C4A 1_555 1_555
C5A O4A 1_555 1_555

#END
