
#######################################################################
#
#                 Cambridge Crystallographic Data Centre
#                                CCDC 
#
#######################################################################
#
# If this CIF has been generated from an entry in the Cambridge 
# Structural Database, then it will include bibliographic, chemical, 
# crystal, experimental, refinement or atomic coordinate data resulting 
# from the CCDC's data processing and validation procedures.
#
#######################################################################

data_POCKUO
_symmetry_cell_setting           monoclinic
_symmetry_space_group_name_H-M   'C 2/c'
_symmetry_Int_Tables_number      15
_space_group_name_Hall           '-C 2yn'
loop_
_symmetry_equiv_pos_site_id
_symmetry_equiv_pos_as_xyz
1 x,y,z
2 1/2+x,1/2+y,z
3 -x,y,1/2-z
4 1/2-x,1/2+y,1/2-z
5 -x,-y,-z
6 1/2-x,1/2-y,-z
7 x,-y,1/2+z
8 1/2+x,1/2-y,1/2+z
_cell_length_a                   15.721(3)
_cell_length_b                   10.6099(18)
_cell_length_c                   7.4605(13)
_cell_angle_alpha                90
_cell_angle_beta                 110.626(2)
_cell_angle_gamma                90
_cell_volume                     1164.63
loop_
_atom_site_label
_atom_site_type_symbol
_atom_site_fract_x
_atom_site_fract_y
_atom_site_fract_z
Cd1 Cd 0.312009(16) 0.41586(2) 0.04146(3)
O1 O 0.36065(19) 0.6183(2) 0.1043(3)
O2 O 0.42680(19) 0.6035(2) 0.4215(4)
O3 O 0.30368(16) 0.8149(3) 0.3920(3)
O4 O 0.27717(17) 1.0014(2) 0.2523(3)
O5 O 0.40746(18) 0.3144(2) 0.3013(3)
H1 H 0.4599 0.3473 0.3385
H2 H 0.3795 0.3111 0.3791
C1 C 0.4112(2) 0.6589(3) 0.2636(4)
C2 C 0.4578(2) 0.7836(3) 0.2612(4)
C3 C 0.4145(3) 0.8981(3) 0.2689(5)
C4 C 0.4575(2) 1.0107(3) 0.2583(5)
H3 H 0.4289 1.0869 0.2623
C5 C 0.3261(3) 0.9028(3) 0.3028(5)
Cd1B Cd 0.687991(16) 0.41586(2) 0.45854(3)
Cd1F Cd 0.312009(16) 0.58414(2) 0.54146(3)
Cd1C Cd 0.187991(16) 0.91586(2) 0.45854(3)
Cd1E Cd 0.187991(16) 1.08414(2) -0.04146(3)
Cd1D Cd 0.687991(16) 0.58414(2) -0.04146(3)
Cd1A Cd 0.812009(16) 0.91586(2) 0.04146(3)
Cd1G Cd 0.812009(16) 1.08414(2) 0.54146(3)
O1B O 0.63935(19) 0.6183(2) 0.3957(3)
O2B O 0.57320(19) 0.6035(2) 0.0785(4)
O2F O 0.42680(19) 0.3965(2) -0.0785(4)
O2D O 0.57320(19) 0.3965(2) 0.5785(4)
O3B O 0.69632(16) 0.8149(3) 0.1080(3)
O3C O 0.19632(16) 0.3149(3) 0.1080(3)
O3A O 0.80368(16) 0.3149(3) 0.3920(3)
O4B O 0.72283(17) 1.0014(2) 0.2477(3)
O4E O 0.22283(17) 0.4986(2) -0.2523(3)
O4C O 0.22283(17) 0.5014(2) 0.2477(3)
O4A O 0.77717(17) 0.5014(2) 0.2523(3)
O4G O 0.77717(17) 0.4986(2) 0.7523(3)
O5B O 0.59254(18) 0.3144(2) 0.1987(3)
H1B H 0.5401 0.3473 0.1615
H2B H 0.6205 0.3111 0.1209
C1B C 0.5888(2) 0.6589(3) 0.2364(4)
C2B C 0.5422(2) 0.7836(3) 0.2388(4)
C3B C 0.5855(3) 0.8981(3) 0.2311(5)
C4B C 0.5425(2) 1.0107(3) 0.2417(5)
H3B H 0.5711 1.0869 0.2377
C5B C 0.6739(3) 0.9028(3) 0.1972(5)
loop_
_geom_bond_atom_site_label_1
_geom_bond_atom_site_label_2
_geom_bond_site_symmetry_1
_geom_bond_site_symmetry_2
Cd1 O1 1_555 1_555
O1 C1 1_555 1_555
O2 C1 1_555 1_555
O3 C5 1_555 1_555
O4 C5 1_555 1_555
O5 Cd1 1_555 1_555
H1 O5 1_555 1_555
H2 O5 1_555 1_555
C1 C2 1_555 1_555
C2 C3 1_555 1_555
C3 C4 1_555 1_555
C4 H3 1_555 1_555
C5 C3 1_555 1_555
Cd1B O1B 1_555 1_555
Cd1F O2 1_555 1_555
Cd1C O3 1_555 1_555
Cd1E O4 1_555 1_555
Cd1D O2B 1_555 1_555
Cd1A O3B 1_555 1_555
Cd1G O4B 1_555 1_555
O1B C1B 1_555 1_555
O2B C1B 1_555 1_555
O2F Cd1 1_555 1_555
O2D Cd1B 1_555 1_555
O3B C5B 1_555 1_555
O3C Cd1 1_555 1_555
O3A Cd1B 1_555 1_555
O4B Cd1A 1_555 1_555
O4E Cd1 1_555 1_555
O4C Cd1 1_555 1_555
O4A Cd1B 1_555 1_555
O4G Cd1B 1_555 1_555
O5B Cd1B 1_555 1_555
H1B O5B 1_555 1_555
H2B O5B 1_555 1_555
C1B C2B 1_555 1_555
C2B C2 1_555 1_555
C3B C2B 1_555 1_555
C4B C4 1_555 1_555
H3B C4B 1_555 1_555
C5B O4B 1_555 1_555
O4 Cd1C 1_555 1_555
Cd1F O4C 1_555 1_555
Cd1D O4A 1_555 1_555
C3B C4B 1_555 1_555
C3B C5B 1_555 1_555

#END
