
#######################################################################
#
#                 Cambridge Crystallographic Data Centre
#                                CCDC 
#
#######################################################################
#
# If this CIF has been generated from an entry in the Cambridge 
# Structural Database, then it will include bibliographic, chemical, 
# crystal, experimental, refinement or atomic coordinate data resulting 
# from the CCDC's data processing and validation procedures.
#
#######################################################################

data_POCLOK
_symmetry_cell_setting           monoclinic
_symmetry_space_group_name_H-M   'P 21/n'
_symmetry_Int_Tables_number      14
_space_group_name_Hall           '-P 2yn'
loop_
_symmetry_equiv_pos_site_id
_symmetry_equiv_pos_as_xyz
1 x,y,z
2 1/2-x,1/2+y,1/2-z
3 -x,-y,-z
4 1/2+x,1/2-y,1/2+z
_cell_length_a                   9.5218(9)
_cell_length_b                   15.0371(13)
_cell_length_c                   18.2850(16)
_cell_angle_alpha                90
_cell_angle_beta                 93.822(1)
_cell_angle_gamma                90
_cell_volume                     2612.23
loop_
_atom_site_label
_atom_site_type_symbol
_atom_site_fract_x
_atom_site_fract_y
_atom_site_fract_z
Sm1 Sm 0.303549(14) 1.084800(9) -0.000640(7)
Cu1 Cu 0.0000 0.5000 0.0000
O1 O 0.1022(2) 1.06985(13) 0.08317(11)
O2 O 0.2241(2) 1.19395(13) 0.08933(11)
O3 O 0.4104(2) 1.03423(18) 0.11132(12)
O4 O 0.6048(3) 0.95248(17) 0.11231(12)
O5 O 0.2714(2) 0.92881(14) -0.00398(13)
O6 O 0.4704(2) 0.85317(15) -0.00984(14)
O7 O -0.1420(2) 0.55366(14) -0.07136(11)
O8 O -0.3139(2) 0.62128(16) -0.01438(11)
N1 N -0.0769(4) 1.2279(2) 0.30315(16)
N2 N 0.5926(3) 1.0505(3) 0.37273(15)
N3 N 0.1135(2) 0.61288(15) 0.00239(12)
N4 N -0.4825(3) 0.6230(2) -0.28160(15)
C1 C -0.1334(4) 1.1683(3) 0.2564(2)
H1 H -0.2213 1.1456 0.2656
C2 C -0.0711(4) 1.1377(3) 0.1950(2)
H2 H -0.1151 1.0949 0.1648
C3 C 0.0576(3) 1.1721(2) 0.17983(15)
C4 C 0.1180(4) 1.2343(2) 0.22750(18)
H3 H 0.2050 1.2589 0.2189
C5 C 0.0485(4) 1.2599(3) 0.2882(2)
H4 H 0.0914 1.3015 0.3201
C6 C 0.1329(3) 1.1432(2) 0.11331(15)
C7 C 0.5089(4) 1.1027(3) 0.33001(19)
H5 H 0.4656 1.1504 0.3518
C8 C 0.4824(4) 1.0906(2) 0.25533(17)
H6 H 0.4216 1.1283 0.2282
C9 C 0.5483(3) 1.0211(2) 0.22209(15)
C10 C 0.6410(4) 0.9697(3) 0.26468(17)
H7 H 0.6913 0.9242 0.2439
C11 C 0.6578(4) 0.9867(3) 0.33875(19)
H8 H 0.7197 0.9507 0.3669
C12 C 0.5193(3) 1.0016(2) 0.14180(15)
C13 C 0.0470(3) 0.69169(19) 0.00148(15)
H9 H -0.0508 0.6921 0.0004
C14 C 0.1172(3) 0.77197(19) 0.00207(15)
H10 H 0.0676 0.8252 0.0027
C15 C 0.2621(3) 0.77222(19) 0.00173(14)
C16 C 0.3327(3) 0.69096(19) 0.00510(15)
H11 H 0.4305 0.6889 0.0072
C17 C 0.2545(3) 0.6135(2) 0.00524(15)
H12 H 0.3018 0.5594 0.0074
C18 C 0.3420(3) 0.8586(2) -0.00392(16)
C19 C -0.5216(3) 0.6665(2) -0.22291(19)
H13 H -0.5995 0.7038 -0.2288
C20 C -0.4541(3) 0.6600(2) -0.15378(17)
H14 H -0.4856 0.6926 -0.1148
C21 C -0.3387(3) 0.6041(2) -0.14357(16)
C22 C -0.2961(4) 0.5588(2) -0.20395(18)
H15 H -0.2191 0.5207 -0.1994
C23 C -0.3693(4) 0.5708(3) -0.2715(2)
H16 H -0.3379 0.5410 -0.3118
C24 C -0.2594(3) 0.59323(18) -0.06933(16)
O9 O 0.0897(2) 1.07055(13) -0.07832(11)
H17 H 0.0757 1.0919 -0.1202
H18 H 0.0301 1.0314 -0.0715
O10 O 0.2777(2) 1.22483(13) -0.06923(11)
H19 H 0.3208 1.2307 -0.1068
H20 H 0.2738 1.2729 -0.0473
Sm1B Sm -0.303549(14) -0.084800(9) 0.000640(7)
O1B O -0.1022(2) -0.06985(13) -0.08317(11)
O2B O -0.2241(2) -0.19395(13) -0.08933(11)
O3B O -0.4104(2) -0.03423(18) -0.11132(12)
O4B O -0.6048(3) 0.04752(17) -0.11231(12)
O5B O -0.2714(2) 0.07119(14) 0.00398(13)
O6B O -0.4704(2) 0.14683(15) 0.00984(14)
O7B O 0.1420(2) 0.44634(14) 0.07136(11)
O8B O 0.3139(2) 0.37872(16) 0.01438(11)
N1B N 0.0769(4) -0.2279(2) -0.30315(16)
N2B N -0.5926(3) -0.0505(3) -0.37273(15)
N3B N -0.1135(2) 0.38712(15) -0.00239(12)
N4B N 0.4825(3) 0.3770(2) 0.28160(15)
C1B C 0.1334(4) -0.1683(3) -0.2564(2)
H1B H 0.2213 -0.1456 -0.2656
C2B C 0.0711(4) -0.1377(3) -0.1950(2)
H2B H 0.1151 -0.0949 -0.1648
C3B C -0.0576(3) -0.1721(2) -0.17983(15)
C4B C -0.1180(4) -0.2343(2) -0.22750(18)
H3B H -0.2050 -0.2589 -0.2189
C5B C -0.0485(4) -0.2599(3) -0.2882(2)
H4B H -0.0914 -0.3015 -0.3201
C6B C -0.1329(3) -0.1432(2) -0.11331(15)
C7B C -0.5089(4) -0.1027(3) -0.33001(19)
H5B H -0.4656 -0.1504 -0.3518
C8B C -0.4824(4) -0.0906(2) -0.25533(17)
H6B H -0.4216 -0.1283 -0.2282
C9B C -0.5483(3) -0.0211(2) -0.22209(15)
C10B C -0.6410(4) 0.0303(3) -0.26468(17)
H7B H -0.6913 0.0758 -0.2439
C11B C -0.6578(4) 0.0133(3) -0.33875(19)
H8B H -0.7197 0.0493 -0.3669
C12B C -0.5193(3) -0.0016(2) -0.14180(15)
C13B C -0.0470(3) 0.30831(19) -0.00148(15)
H9B H 0.0508 0.3079 -0.0004
C14B C -0.1172(3) 0.22803(19) -0.00207(15)
H10B H -0.0676 0.1748 -0.0027
C15B C -0.2621(3) 0.22778(19) -0.00173(14)
C16B C -0.3327(3) 0.30904(19) -0.00510(15)
H11B H -0.4305 0.3111 -0.0072
C17B C -0.2545(3) 0.3865(2) -0.00524(15)
H12B H -0.3018 0.4406 -0.0074
C18B C -0.3420(3) 0.1414(2) 0.00392(16)
C19B C 0.5216(3) 0.3335(2) 0.22291(19)
H13B H 0.5995 0.2962 0.2288
C20B C 0.4541(3) 0.3400(2) 0.15378(17)
H14B H 0.4856 0.3074 0.1148
C21B C 0.3387(3) 0.3959(2) 0.14357(16)
C22B C 0.2961(4) 0.4412(2) 0.20395(18)
H15B H 0.2191 0.4793 0.1994
C23B C 0.3693(4) 0.4292(3) 0.2715(2)
H16B H 0.3379 0.4590 0.3118
C24B C 0.2594(3) 0.40677(18) 0.06933(16)
O9B O -0.0897(2) -0.07055(13) 0.07832(11)
H17B H -0.0757 -0.0919 0.1202
H18B H -0.0301 -0.0314 0.0715
O10B O -0.2777(2) -0.22483(13) 0.06923(11)
H19B H -0.3208 -0.2307 0.1068
H20B H -0.2738 -0.2729 0.0473
Sm1_2 Sm -0.696451(14) 0.084800(9) -0.000640(7)
Sm1B_2 Sm 0.696451(14) 0.915200(9) 0.000640(7)
Cu1A Cu -0.5000 0.0000 -0.5000
Cu1A_2 Cu 0.5000 1.0000 0.5000
O4_2 O -0.3952(3) -0.04752(17) 0.11231(12)
O4B_2 O 0.3952(3) 1.04752(17) -0.11231(12)
O6_2 O -0.5296(2) -0.14683(15) -0.00984(14)
O6B_2 O 0.5296(2) 1.14683(15) 0.00984(14)
N2A N -0.0926(3) 0.5505(3) 0.12727(15)
N2C N 0.0926(3) 0.4495(3) -0.12727(15)
loop_
_geom_bond_atom_site_label_1
_geom_bond_atom_site_label_2
_geom_bond_site_symmetry_1
_geom_bond_site_symmetry_2
Sm1 O1 1_555 1_555
Cu1 O7 1_555 1_555
O1 C6 1_555 1_555
O2 Sm1 1_555 1_555
O3 Sm1 1_555 1_555
O4 C12 1_555 1_555
O5 Sm1 1_555 1_555
O6 C18 1_555 1_555
O7 C24 1_555 1_555
O8 C24 1_555 1_555
N1 C1 1_555 1_555
N2 C7 1_555 1_555
N3 Cu1 1_555 1_555
N4 C19 1_555 1_555
C1 H1 1_555 1_555
C2 C1 1_555 1_555
H2 C2 1_555 1_555
C3 C2 1_555 1_555
C4 C3 1_555 1_555
H3 C4 1_555 1_555
C5 N1 1_555 1_555
H4 C5 1_555 1_555
C6 O2 1_555 1_555
C7 H5 1_555 1_555
C8 C7 1_555 1_555
H6 C8 1_555 1_555
C9 C8 1_555 1_555
C10 C9 1_555 1_555
H7 C10 1_555 1_555
C11 N2 1_555 1_555
H8 C11 1_555 1_555
C12 O3 1_555 1_555
C13 N3 1_555 1_555
H9 C13 1_555 1_555
C14 C13 1_555 1_555
H10 C14 1_555 1_555
C15 C14 1_555 1_555
C16 C15 1_555 1_555
H11 C16 1_555 1_555
C17 N3 1_555 1_555
H12 C17 1_555 1_555
C18 O5 1_555 1_555
C19 H13 1_555 1_555
C20 C19 1_555 1_555
H14 C20 1_555 1_555
C21 C20 1_555 1_555
C22 C21 1_555 1_555
H15 C22 1_555 1_555
C23 N4 1_555 1_555
H16 C23 1_555 1_555
C24 C21 1_555 1_555
O9 Sm1 1_555 1_555
H17 O9 1_555 1_555
H18 O9 1_555 1_555
O10 Sm1 1_555 1_555
H19 O10 1_555 1_555
H20 O10 1_555 1_555
Sm1B O1B 1_555 1_555
O1B C6B 1_555 1_555
O2B Sm1B 1_555 1_555
O3B Sm1B 1_555 1_555
O4B C12B 1_555 1_555
O5B Sm1B 1_555 1_555
O6B C18B 1_555 1_555
O7B Cu1 1_555 1_555
O8B C24B 1_555 1_555
N1B C1B 1_555 1_555
N2B C7B 1_555 1_555
N3B Cu1 1_555 1_555
N4B C19B 1_555 1_555
C1B H1B 1_555 1_555
C2B C1B 1_555 1_555
H2B C2B 1_555 1_555
C3B C2B 1_555 1_555
C4B C3B 1_555 1_555
H3B C4B 1_555 1_555
C5B N1B 1_555 1_555
H4B C5B 1_555 1_555
C6B O2B 1_555 1_555
C7B H5B 1_555 1_555
C8B C7B 1_555 1_555
H6B C8B 1_555 1_555
C9B C8B 1_555 1_555
C10B C9B 1_555 1_555
H7B C10B 1_555 1_555
C11B N2B 1_555 1_555
H8B C11B 1_555 1_555
C12B O3B 1_555 1_555
C13B N3B 1_555 1_555
H9B C13B 1_555 1_555
C14B C13B 1_555 1_555
H10B C14B 1_555 1_555
C15B C14B 1_555 1_555
C16B C15B 1_555 1_555
H11B C16B 1_555 1_555
C17B N3B 1_555 1_555
H12B C17B 1_555 1_555
C18B O5B 1_555 1_555
C19B H13B 1_555 1_555
C20B C19B 1_555 1_555
H14B C20B 1_555 1_555
C21B C20B 1_555 1_555
C22B C21B 1_555 1_555
H15B C22B 1_555 1_555
C23B N4B 1_555 1_555
H16B C23B 1_555 1_555
C24B O7B 1_555 1_555
O9B Sm1B 1_555 1_555
H17B O9B 1_555 1_555
H18B O9B 1_555 1_555
O10B Sm1B 1_555 1_555
H19B O10B 1_555 1_555
H20B O10B 1_555 1_555
Sm1_2 O4B 1_555 1_555
Sm1B_2 O4 1_555 1_555
Cu1A N2B 1_555 1_555
Cu1A_2 N2 1_555 1_555
O4_2 Sm1B 1_555 1_555
O4B_2 Sm1 1_555 1_555
O6_2 Sm1B 1_555 1_555
O6B_2 Sm1 1_555 1_555
N2A Cu1 1_555 1_555
N2C Cu1 1_555 1_555
O6 Sm1B_2 1_555 1_555
C3 C6 1_555 1_555
C4 C5 1_555 1_555
C9 C12 1_555 1_555
C10 C11 1_555 1_555
C15 C18 1_555 1_555
C16 C17 1_555 1_555
C22 C23 1_555 1_555
O6B Sm1_2 1_555 1_555
C3B C6B 1_555 1_555
C4B C5B 1_555 1_555
C9B C12B 1_555 1_555
C10B C11B 1_555 1_555
C15B C18B 1_555 1_555
C16B C17B 1_555 1_555
C21B C24B 1_555 1_555
C22B C23B 1_555 1_555

#END
