
#######################################################################
#
#                 Cambridge Crystallographic Data Centre
#                                CCDC 
#
#######################################################################
#
# If this CIF has been generated from an entry in the Cambridge 
# Structural Database, then it will include bibliographic, chemical, 
# crystal, experimental, refinement or atomic coordinate data resulting 
# from the CCDC's data processing and validation procedures.
#
#######################################################################

data_POCMEA
_symmetry_cell_setting           orthorhombic
_symmetry_space_group_name_H-M   'P b c n'
_symmetry_Int_Tables_number      60
_space_group_name_Hall           '-P 2n 2ab'
loop_
_symmetry_equiv_pos_site_id
_symmetry_equiv_pos_as_xyz
1 x,y,z
2 1/2-x,1/2-y,1/2+z
3 -x,y,1/2-z
4 1/2+x,1/2-y,-z
5 -x,-y,-z
6 1/2+x,1/2+y,1/2-z
7 x,-y,1/2+z
8 1/2-x,1/2+y,z
_cell_length_a                   16.6078(2)
_cell_length_b                   10.0415(2)
_cell_length_c                   14.6671(3)
_cell_angle_alpha                90
_cell_angle_beta                 90
_cell_angle_gamma                90
_cell_volume                     2445.99
loop_
_atom_site_label
_atom_site_type_symbol
_atom_site_fract_x
_atom_site_fract_y
_atom_site_fract_z
Pb1 Pb 0.435604(18) 0.12053(3) 0.38404(2)
O1 O 0.4117(4) 0.1425(7) 0.1939(5)
O2 O 0.3145(4) 0.1714(7) 0.2956(4)
N1 N 0.1793(5) 0.3222(9) 0.0091(5)
C1 C 0.2433(6) 0.2445(11) -0.0123(6)
H1 H 0.2516 0.2224 -0.0731
C2 C 0.2960(6) 0.1970(10) 0.0511(6)
H2 H 0.3382 0.1416 0.0338
C3 C 0.2856(5) 0.2326(10) 0.1418(6)
C4 C 0.2217(5) 0.3128(10) 0.1646(6)
H3 H 0.2130 0.3384 0.2247
C5 C 0.1704(6) 0.3548(11) 0.0958(7)
H4 H 0.1273 0.4090 0.1116
C6 C 0.3424(5) 0.1767(9) 0.2147(6)
N2 N 0.4441(6) 0.3902(9) 0.3587(8)
O3 O 0.4897(4) 0.8668(7) 0.4452(5)
O4 O 0.3907(5) 0.8854(7) 0.3466(6)
C7 C 0.3789(7) 0.4649(11) 0.3376(7)
H5 H 0.3323 0.4211 0.3193
C8 C 0.3774(6) 0.6024(9) 0.3415(7)
H6 H 0.3319 0.6496 0.3236
C9 C 0.4454(6) 0.6682(11) 0.3726(7)
C10 C 0.5121(7) 0.5941(11) 0.3916(8)
H7 H 0.5590 0.6360 0.4108
C11 C 0.5103(7) 0.4577(12) 0.3826(7)
H8 H 0.5574 0.4102 0.3935
C12 C 0.4422(6) 0.8195(12) 0.3872(6)
Pb1B Pb 0.564396(18) 0.12053(3) 0.11596(2)
Pb1A Pb 0.064396(18) 0.37947(3) -0.11596(2)
Pb1D Pb 0.564396(18) 0.87947(3) 0.61596(2)
Pb1_2 Pb 0.435604(18) 1.12053(3) 0.38404(2)
O1B O 0.5883(4) 0.1425(7) 0.3061(5)
N1A N 0.3207(5) 0.1778(9) 0.5091(5)
O3D O 0.5103(4) 0.1332(7) 0.5548(5)
O3_2 O 0.4897(4) -0.1332(7) 0.4452(5)
O4_2 O 0.3907(5) -0.1146(7) 0.3466(6)
loop_
_geom_bond_atom_site_label_1
_geom_bond_atom_site_label_2
_geom_bond_site_symmetry_1
_geom_bond_site_symmetry_2
Pb1 O1 1_555 1_555
O1 C6 1_555 1_555
O2 Pb1 1_555 1_555
N1 C1 1_555 1_555
C1 H1 1_555 1_555
C2 C1 1_555 1_555
H2 C2 1_555 1_555
C3 C2 1_555 1_555
C4 C3 1_555 1_555
H3 C4 1_555 1_555
C5 N1 1_555 1_555
H4 C5 1_555 1_555
C6 O2 1_555 1_555
N2 Pb1 1_555 1_555
O3 C12 1_555 1_555
O4 C12 1_555 1_555
C7 N2 1_555 1_555
H5 C7 1_555 1_555
C8 C7 1_555 1_555
H6 C8 1_555 1_555
C9 C8 1_555 1_555
C10 C9 1_555 1_555
H7 C10 1_555 1_555
C11 N2 1_555 1_555
H8 C11 1_555 1_555
C12 C9 1_555 1_555
Pb1B O1 1_555 1_555
Pb1A N1 1_555 1_555
Pb1D O3 1_555 1_555
Pb1_2 O3 1_555 1_555
O1B Pb1 1_555 1_555
N1A Pb1 1_555 1_555
O3D Pb1 1_555 1_555
O3_2 Pb1 1_555 1_555
O4_2 Pb1 1_555 1_555
C3 C6 1_555 1_555
C4 C5 1_555 1_555
O4 Pb1_2 1_555 1_555
C10 C11 1_555 1_555
Pb1B O1B 1_555 1_555

#END
