
#######################################################################
#
#                 Cambridge Crystallographic Data Centre
#                                CCDC 
#
#######################################################################
#
# If this CIF has been generated from an entry in the Cambridge 
# Structural Database, then it will include bibliographic, chemical, 
# crystal, experimental, refinement or atomic coordinate data resulting 
# from the CCDC's data processing and validation procedures.
#
#######################################################################

data_POCNEB
_symmetry_cell_setting           monoclinic
_symmetry_space_group_name_H-M   'C 2/c'
_symmetry_Int_Tables_number      15
_space_group_name_Hall           '-C 2yn'
loop_
_symmetry_equiv_pos_site_id
_symmetry_equiv_pos_as_xyz
1 x,y,z
2 1/2+x,1/2+y,z
3 -x,y,1/2-z
4 1/2-x,1/2+y,1/2-z
5 -x,-y,-z
6 1/2-x,1/2-y,-z
7 x,-y,1/2+z
8 1/2+x,1/2-y,1/2+z
_cell_length_a                   17.3729(8)
_cell_length_b                   10.3815(4)
_cell_length_c                   6.9415(3)
_cell_angle_alpha                90
_cell_angle_beta                 112.925(2)
_cell_angle_gamma                90
_cell_volume                     1153.06
loop_
_atom_site_label
_atom_site_type_symbol
_atom_site_fract_x
_atom_site_fract_y
_atom_site_fract_z
Fe1 Fe 0.0000 -0.42905(5) -0.2500
Cl1 Cl -0.08727(4) -0.42168(6) -0.01123(9)
N1 N 0.07543(12) -0.2635(2) -0.0941(3)
C1 C 0.15171(17) -0.2655(4) 0.0570(4)
H1 H 0.1752 -0.3442 0.1139
C2 C 0.0823(3) -0.0297(3) -0.0960(6)
C3 C 0.0387(3) 0.0872(3) -0.1779(7)
H2 H 0.0651 0.1654 -0.1288
C4 C 0.1645(3) -0.0377(5) 0.0593(7)
H3 H -0.1954 0.0368 -0.6103
C5 C 0.1972(2) -0.1533(6) 0.1321(6)
H4 H -0.2511 -0.1585 -0.7342
C6 C 0.04139(16) -0.1488(3) -0.1689(4)
Fe1F Fe 0.0000 -0.57095(5) 0.2500
Fe1F_2 Fe 0.0000 -0.57095(5) -0.7500
Cl1D Cl 0.08727(4) -0.57832(6) 0.01123(9)
Cl1F Cl -0.08727(4) -0.57832(6) -0.51123(9)
Cl1B Cl 0.08727(4) -0.42168(6) -0.48877(9)
N1B N -0.07543(12) -0.2635(2) -0.4059(3)
C1B C -0.15171(17) -0.2655(4) -0.5570(4)
H1B H -0.1752 -0.3442 -0.6139
C2B C -0.0823(3) -0.0297(3) -0.4040(6)
C3B C -0.0387(3) 0.0872(3) -0.3221(7)
H2B H -0.0651 0.1654 -0.3712
C4B C -0.1645(3) -0.0377(5) -0.5593(7)
H3B H 0.1954 0.0368 0.1103
C5B C -0.1972(2) -0.1533(6) -0.6321(6)
H4B H 0.2511 -0.1585 0.2342
C6B C -0.04139(16) -0.1488(3) -0.3311(4)
loop_
_geom_bond_atom_site_label_1
_geom_bond_atom_site_label_2
_geom_bond_site_symmetry_1
_geom_bond_site_symmetry_2
Fe1 Cl1 1_555 1_555
Cl1 Fe1F 1_555 1_555
N1 Fe1 1_555 1_555
C1 N1 1_555 1_555
H1 C1 1_555 1_555
C2 C3 1_555 1_555
C3 H2 1_555 1_555
C4 C2 1_555 1_555
H3 C4B 1_555 1_555
C5 C1 1_555 1_555
H4 C5B 1_555 1_555
C6 N1 1_555 1_555
Fe1F Cl1D 1_555 1_555
Fe1F_2 Cl1F 1_555 1_555
Cl1D Fe1 1_555 1_555
Cl1F Fe1 1_555 1_555
Cl1B Fe1 1_555 1_555
N1B Fe1 1_555 1_555
C1B N1B 1_555 1_555
H1B C1B 1_555 1_555
C2B C3B 1_555 1_555
C3B C3 1_555 1_555
H2B C3B 1_555 1_555
C4B C2B 1_555 1_555
H3B C4 1_555 1_555
C5B C1B 1_555 1_555
H4B C5 1_555 1_555
C6B C6 1_555 1_555
C2 C6 1_555 1_555
C4 C5 1_555 1_555
Fe1F_2 Cl1B 1_555 1_555
N1B C6B 1_555 1_555
C2B C6B 1_555 1_555
C4B C5B 1_555 1_555

#END
