
#######################################################################
#
#                 Cambridge Crystallographic Data Centre
#                                CCDC 
#
#######################################################################
#
# If this CIF has been generated from an entry in the Cambridge 
# Structural Database, then it will include bibliographic, chemical, 
# crystal, experimental, refinement or atomic coordinate data resulting 
# from the CCDC's data processing and validation procedures.
#
#######################################################################

data_POCNUS
_symmetry_cell_setting           monoclinic
_symmetry_space_group_name_H-M   'C 2/c'
_symmetry_Int_Tables_number      15
_space_group_name_Hall           '-C 2yn'
loop_
_symmetry_equiv_pos_site_id
_symmetry_equiv_pos_as_xyz
1 x,y,z
2 -x,y,1/2-z
3 1/2+x,1/2+y,z
4 1/2-x,1/2+y,1/2-z
5 -x,-y,-z
6 x,-y,1/2+z
7 1/2-x,1/2-y,-z
8 1/2+x,1/2-y,1/2+z
_cell_length_a                   12.653(6)
_cell_length_b                   13.888(6)
_cell_length_c                   9.403(6)
_cell_angle_alpha                90
_cell_angle_beta                 100.49(3)
_cell_angle_gamma                90
_cell_volume                     1624.72
loop_
_atom_site_label
_atom_site_type_symbol
_atom_site_fract_x
_atom_site_fract_y
_atom_site_fract_z
Co1 Co 0.5000 0.39769(3) 0.7500
C1 C 0.40047(18) 0.24109(16) 0.9182(2)
H1 H 0.4531 0.2500 1.0001
C2 C 0.3055(2) 0.25661(19) 0.7080(3)
H2 H 0.2798 0.2789 0.6149
C3 C 0.2622(2) 0.18320(19) 0.7729(3)
H3 H 0.2025 0.1465 0.7336
C4 C 0.3129(2) 0.09975(18) 1.0150(3)
H4 H 0.2394 0.0988 1.0315
H5 H 0.3594 0.1160 1.1056
C5 C 0.3421(2) 0.00117(19) 0.9672(4)
H6 H 0.2916 -0.0164 0.8806
H7 H 0.3338 -0.0449 1.0420
C6 C 0.4555(2) -0.00750(19) 0.9360(3)
H8 H 0.4636 -0.0710 0.8964
H9 H 0.4639 0.0392 0.8621
C7 C 0.54847(15) 0.46959(13) 1.03855(19)
N1 N 0.39236(14) 0.29297(12) 0.79932(19)
N2 N 0.32329(16) 0.17381(13) 0.9065(2)
O1 O 0.58245(12) 0.40548(10) 0.96540(15)
O2 O 0.58498(12) 0.48988(10) 1.16727(15)
C1D C 0.59953(18) -0.24109(16) 1.0818(2)
H1D H 0.5469 -0.2500 0.9999
C2D C 0.6945(2) -0.25661(19) 1.2920(3)
H2D H 0.7202 -0.2789 1.3851
C3D C 0.7378(2) -0.18320(19) 1.2271(3)
H3D H 0.7975 -0.1465 1.2664
C4D C 0.6871(2) -0.09975(18) 0.9850(3)
H4D H 0.7606 -0.0988 0.9685
H5D H 0.6406 -0.1160 0.8944
C5D C 0.6579(2) -0.00117(19) 1.0328(4)
H6D H 0.7084 0.0164 1.1194
H7D H 0.6662 0.0449 0.9580
C6D C 0.5445(2) 0.00750(19) 1.0640(3)
H8D H 0.5364 0.0710 1.1036
H9D H 0.5361 -0.0392 1.1379
N1D N 0.60764(14) -0.29297(12) 1.20068(19)
N2D N 0.67671(16) -0.17381(13) 1.0935(2)
C7D C 0.45153(15) 0.53041(13) 0.96145(19)
O1D O 0.41755(12) 0.59452(10) 1.03460(15)
O2D O 0.41502(12) 0.51012(10) 0.83273(15)
Co1D Co 0.5000 -0.39769(3) 1.2500
Co1D_2 Co 0.5000 0.60231(3) 1.2500
N1A N 0.60764(14) 0.29297(12) 0.70068(19)
O1A O 0.41755(12) 0.40548(10) 0.53460(15)
O2E O 0.58498(12) 0.51012(10) 0.66727(15)
O3 O 0.5000 0.2815(8) 1.2500
loop_
_geom_bond_atom_site_label_1
_geom_bond_atom_site_label_2
_geom_bond_site_symmetry_1
_geom_bond_site_symmetry_2
Co1 N1 1_555 1_555
C1 H1 1_555 1_555
C2 H2 1_555 1_555
C3 C2 1_555 1_555
H3 C3 1_555 1_555
C4 H4 1_555 1_555
H5 C4 1_555 1_555
C5 C4 1_555 1_555
H6 C5 1_555 1_555
H7 C5 1_555 1_555
C6 C5 1_555 1_555
H8 C6 1_555 1_555
H9 C6 1_555 1_555
C7 O1 1_555 1_555
N1 C1 1_555 1_555
N2 C1 1_555 1_555
O1 Co1 1_555 1_555
O2 C7 1_555 1_555
C1D H1D 1_555 1_555
C2D H2D 1_555 1_555
C3D C2D 1_555 1_555
H3D C3D 1_555 1_555
C4D H4D 1_555 1_555
H5D C4D 1_555 1_555
C5D C4D 1_555 1_555
H6D C5D 1_555 1_555
H7D C5D 1_555 1_555
C6D C6 1_555 1_555
H8D C6D 1_555 1_555
H9D C6D 1_555 1_555
N1D C1D 1_555 1_555
N2D C1D 1_555 1_555
C7D C7 1_555 1_555
O1D C7D 1_555 1_555
O2D Co1 1_555 1_555
Co1D N1D 1_555 1_555
Co1D_2 O2 1_555 1_555
N1A Co1 1_555 1_555
O1A Co1 1_555 1_555
O2E Co1 1_555 1_555
C2 N1 1_555 1_555
C3 N2 1_555 1_555
C4 N2 1_555 1_555
C2D N1D 1_555 1_555
C3D N2D 1_555 1_555
C4D N2D 1_555 1_555
C5D C6D 1_555 1_555
C7D O2D 1_555 1_555
O1D Co1D_2 1_555 1_555

#END
