
#######################################################################
#
#                 Cambridge Crystallographic Data Centre
#                                CCDC 
#
#######################################################################
#
# If this CIF has been generated from an entry in the Cambridge 
# Structural Database, then it will include bibliographic, chemical, 
# crystal, experimental, refinement or atomic coordinate data resulting 
# from the CCDC's data processing and validation procedures.
#
#######################################################################

data_POCNOM01
_symmetry_cell_setting           monoclinic
_symmetry_space_group_name_H-M   'P 21/c'
_symmetry_Int_Tables_number      14
_space_group_name_Hall           '-P 2ybc'
loop_
_symmetry_equiv_pos_site_id
_symmetry_equiv_pos_as_xyz
1 x,y,z
2 -x,1/2+y,1/2-z
3 -x,-y,-z
4 x,1/2-y,1/2+z
_cell_length_a                   17.429(3)
_cell_length_b                   5.8100(10)
_cell_length_c                   25.244(5)
_cell_angle_alpha                90
_cell_angle_beta                 130.351(12)
_cell_angle_gamma                90
_cell_volume                     1948.11
loop_
_atom_site_label
_atom_site_type_symbol
_atom_site_fract_x
_atom_site_fract_y
_atom_site_fract_z
Zn1 Zn -0.24308(3) 0.40583(5) 0.360539(18)
C1 C -0.1006(2) 0.7514(5) 0.37518(16)
H1 H -0.0631 0.7659 0.4229
N1 N -0.1511(2) 0.8033(6) 0.27197(16)
C2 C -0.0149(2) 1.0599(5) 0.36176(17)
H2 H 0.0281 1.0777 0.4118
H3 H -0.0523 1.2019 0.3404
C3 C 0.0505(2) 1.0189(5) 0.34235(15)
H4 H 0.0074 1.0080 0.2922
H5 H 0.0944 1.1506 0.3571
C4 C 0.1139(2) 0.8054(5) 0.37399(14)
H6 H 0.0706 0.6713 0.3521
H7 H 0.1472 0.8009 0.4230
C5 C 0.1933(2) 0.7938(4) 0.36576(14)
H8 H 0.1598 0.8082 0.3168
H9 H 0.2382 0.9243 0.3897
C6 C 0.2552(2) 0.5763(5) 0.39325(13)
H10 H 0.2108 0.4462 0.3677
H11 H 0.2861 0.5576 0.4416
C7 C 0.33676(19) 0.5730(5) 0.38796(13)
H12 H 0.3839 0.6963 0.4164
H13 H 0.3064 0.6041 0.3402
C8 C 0.3946(2) 0.3481(4) 0.41035(13)
H14 H 0.3472 0.2224 0.3851
H15 H 0.4309 0.3242 0.4595
C9 C 0.4690(2) 0.3429(4) 0.39771(14)
H16 H 0.4336 0.3838 0.3496
H17 H 0.5201 0.4593 0.4266
C10 C 0.52100(19) 0.1123(5) 0.41257(13)
H18 H 0.5604 0.0730 0.4612
H19 H 0.4710 -0.0072 0.3849
C11 C 0.5888(2) 0.1278(5) 0.39506(15)
H20 H 0.5482 0.1675 0.3463
H21 H 0.6366 0.2516 0.4220
C12 C 0.6456(2) -0.2037(5) 0.36411(15)
H22 H 0.6043 -0.1760 0.3166
C13 C 0.7535(2) -0.3384(5) 0.46408(17)
H23 H 0.8045 -0.4313 0.5003
Cl1 Cl -0.13124(6) 0.18540(13) 0.45127(4)
Cl2 Cl -0.37562(6) 0.25214(13) 0.26152(4)
N2 N -0.17566(19) 0.6054(4) 0.33575(14)
C14 C -0.2031(3) 0.6443(7) 0.27279(18)
H24 H -0.2551 0.5641 0.2331
N3 N -0.0852(2) 0.8726(5) 0.33968(16)
N4 N 0.64437(18) -0.0831(4) 0.40826(14)
N5 N 0.7140(2) -0.1672(5) 0.47342(14)
N6 N 0.71369(18) -0.3684(4) 0.39743(13)
Zn1_2 Zn 0.75692(3) -0.59417(5) 0.360539(18)
N6_2 N -0.28631(18) 0.6316(4) 0.39743(13)
loop_
_geom_bond_atom_site_label_1
_geom_bond_atom_site_label_2
_geom_bond_site_symmetry_1
_geom_bond_site_symmetry_2
Zn1 Cl1 1_555 1_555
C1 H1 1_555 1_555
N1 C14 1_555 1_555
C2 H2 1_555 1_555
H3 C2 1_555 1_555
C3 C2 1_555 1_555
H4 C3 1_555 1_555
H5 C3 1_555 1_555
C4 C3 1_555 1_555
H6 C4 1_555 1_555
H7 C4 1_555 1_555
C5 C4 1_555 1_555
H8 C5 1_555 1_555
H9 C5 1_555 1_555
C6 C5 1_555 1_555
H10 C6 1_555 1_555
H11 C6 1_555 1_555
C7 C6 1_555 1_555
H12 C7 1_555 1_555
H13 C7 1_555 1_555
C8 C7 1_555 1_555
H14 C8 1_555 1_555
H15 C8 1_555 1_555
C9 C8 1_555 1_555
H16 C9 1_555 1_555
H17 C9 1_555 1_555
C10 C9 1_555 1_555
H18 C10 1_555 1_555
H19 C10 1_555 1_555
C11 C10 1_555 1_555
H20 C11 1_555 1_555
H21 C11 1_555 1_555
C12 H22 1_555 1_555
C13 H23 1_555 1_555
Cl2 Zn1 1_555 1_555
N2 Zn1 1_555 1_555
C14 N2 1_555 1_555
H24 C14 1_555 1_555
N3 C1 1_555 1_555
N4 C11 1_555 1_555
N5 C13 1_555 1_555
N6 C12 1_555 1_555
Zn1_2 N6 1_555 1_555
N6_2 Zn1 1_555 1_555
C1 N2 1_555 1_555
N1 N3 1_555 1_555
C2 N3 1_555 1_555
C12 N4 1_555 1_555
C13 N6 1_555 1_555
N4 N5 1_555 1_555

#END
