
#######################################################################
#
#                 Cambridge Crystallographic Data Centre
#                                CCDC 
#
#######################################################################
#
# If this CIF has been generated from an entry in the Cambridge 
# Structural Database, then it will include bibliographic, chemical, 
# crystal, experimental, refinement or atomic coordinate data resulting 
# from the CCDC's data processing and validation procedures.
#
#######################################################################

data_POCNOM
_symmetry_cell_setting           monoclinic
_symmetry_space_group_name_H-M   'P 21/n'
_symmetry_Int_Tables_number      14
_space_group_name_Hall           '-P 2yn'
loop_
_symmetry_equiv_pos_site_id
_symmetry_equiv_pos_as_xyz
1 x,y,z
2 1/2-x,1/2+y,1/2-z
3 -x,-y,-z
4 1/2+x,1/2-y,1/2+z
_cell_length_a                   17.3980(12)
_cell_length_b                   5.8040(5)
_cell_length_c                   19.2560(16)
_cell_angle_alpha                90
_cell_angle_beta                 93.253(6)
_cell_angle_gamma                90
_cell_volume                     1941.3
loop_
_atom_site_label
_atom_site_type_symbol
_atom_site_fract_x
_atom_site_fract_y
_atom_site_fract_z
Zn1 Zn 0.603669(14) 0.90548(5) 0.360498(15)
Cl1 Cl 0.63775(4) 0.75212(15) 0.26119(4)
Cl2 Cl 0.58256(4) 0.68425(13) 0.45132(4)
C1 C 0.47570(17) 1.1402(7) 0.27301(16)
H1 H 0.4874 1.0572 0.2337
C2 C 0.47596(14) 1.2518(5) 0.37506(15)
H2 H 0.4864 1.2670 0.4227
C3 C 0.37674(13) 1.5597(5) 0.36172(19)
H3 H 0.3929 1.7020 0.3405
H4 H 0.3840 1.5768 0.4118
C4 C 0.29225(13) 1.5199(5) 0.34262(17)
H5 H 0.2633 1.6525 0.3573
H6 H 0.2850 1.5087 0.2924
C5 C 0.25987(12) 1.3064(5) 0.37456(15)
H7 H 0.2752 1.3032 0.4238
H8 H 0.2816 1.1717 0.3532
C6 C 0.17257(13) 1.2940(5) 0.36569(15)
H9 H 0.1511 1.4251 0.3891
H10 H 0.1575 1.3068 0.3166
C7 C 0.13807(12) 1.0765(5) 0.39356(15)
H11 H 0.1555 1.0589 0.4420
H12 H 0.1571 0.9458 0.3683
C8 C 0.05090(12) 1.0724(5) 0.38809(14)
H13 H 0.0320 1.1954 0.4167
H14 H 0.0336 1.1042 0.3403
C9 C 0.01552(13) 0.8480(5) 0.40999(14)
H15 H 0.0284 0.8231 0.4591
H16 H 0.0377 0.7226 0.3845
C10 C -0.07116(13) 0.8430(5) 0.39742(15)
H17 H -0.0838 0.8826 0.3492
H18 H -0.0932 0.9608 0.4260
C11 C -0.10887(12) 0.6138(5) 0.41281(14)
H19 H -0.0866 0.4928 0.3856
H20 H -0.0998 0.5761 0.4617
C12 C -0.19413(13) 0.6289(5) 0.39499(17)
H21 H -0.2152 0.7537 0.4215
H22 H -0.2021 0.6673 0.3461
C13 C -0.28894(15) 0.1632(5) 0.46441(15)
H23 H -0.3036 0.0699 0.5006
C14 C -0.28093(13) 0.2981(5) 0.36477(14)
H24 H -0.2869 0.3250 0.3172
N1 N 0.51114(10) 1.1055(4) 0.33520(11)
N2 N 0.42483(11) 1.3719(4) 0.33920(13)
N3 N 0.42325(15) 1.3005(6) 0.27199(15)
N4 N -0.23649(10) 0.4191(4) 0.40855(12)
N5 N -0.24054(13) 0.3338(4) 0.47366(13)
N6 N -0.31589(10) 0.1335(3) 0.39795(11)
Zn1_2 Zn -0.396331(14) -0.09452(5) 0.360498(15)
N6_2 N 0.68411(10) 1.1335(3) 0.39795(11)
loop_
_geom_bond_atom_site_label_1
_geom_bond_atom_site_label_2
_geom_bond_site_symmetry_1
_geom_bond_site_symmetry_2
Zn1 Cl1 1_555 1_555
Cl2 Zn1 1_555 1_555
C1 H1 1_555 1_555
C2 H2 1_555 1_555
C3 H3 1_555 1_555
H4 C3 1_555 1_555
C4 C3 1_555 1_555
H5 C4 1_555 1_555
H6 C4 1_555 1_555
C5 C4 1_555 1_555
H7 C5 1_555 1_555
H8 C5 1_555 1_555
C6 C5 1_555 1_555
H9 C6 1_555 1_555
H10 C6 1_555 1_555
C7 C6 1_555 1_555
H11 C7 1_555 1_555
H12 C7 1_555 1_555
C8 C7 1_555 1_555
H13 C8 1_555 1_555
H14 C8 1_555 1_555
C9 C8 1_555 1_555
H15 C9 1_555 1_555
H16 C9 1_555 1_555
C10 C9 1_555 1_555
H17 C10 1_555 1_555
H18 C10 1_555 1_555
C11 C10 1_555 1_555
H19 C11 1_555 1_555
H20 C11 1_555 1_555
C12 C11 1_555 1_555
H21 C12 1_555 1_555
H22 C12 1_555 1_555
C13 H23 1_555 1_555
C14 H24 1_555 1_555
N1 Zn1 1_555 1_555
N2 C2 1_555 1_555
N3 C1 1_555 1_555
N4 C12 1_555 1_555
N5 C13 1_555 1_555
N6 C13 1_555 1_555
Zn1_2 N6 1_555 1_555
N6_2 Zn1 1_555 1_555
C1 N1 1_555 1_555
C2 N1 1_555 1_555
C3 N2 1_555 1_555
C14 N4 1_555 1_555
C14 N6 1_555 1_555
N2 N3 1_555 1_555
N4 N5 1_555 1_555

#END
