
#######################################################################
#
#                 Cambridge Crystallographic Data Centre
#                                CCDC 
#
#######################################################################
#
# If this CIF has been generated from an entry in the Cambridge 
# Structural Database, then it will include bibliographic, chemical, 
# crystal, experimental, refinement or atomic coordinate data resulting 
# from the CCDC's data processing and validation procedures.
#
#######################################################################

data_POCNUR
_symmetry_cell_setting           triclinic
_symmetry_space_group_name_H-M   'P -1'
_symmetry_Int_Tables_number      2
_space_group_name_Hall           '-P 1'
loop_
_symmetry_equiv_pos_site_id
_symmetry_equiv_pos_as_xyz
1 x,y,z
2 -x,-y,-z
_cell_length_a                   9.71580(10)
_cell_length_b                   9.8273(2)
_cell_length_c                   10.0758(2)
_cell_angle_alpha                70.989(10)
_cell_angle_beta                 89.308(13)
_cell_angle_gamma                63.868(10)
_cell_volume                     806.747
loop_
_atom_site_label
_atom_site_type_symbol
_atom_site_fract_x
_atom_site_fract_y
_atom_site_fract_z
Ag1 Ag 0.03691(2) 0.12989(3) -0.09049(2)
N1 N 0.2540(2) 0.1514(3) -0.1307(2)
N2 N 0.4229(2) 0.2467(2) -0.1729(2)
C1 C -0.2284(4) 0.1040(4) 0.3996(3)
H1 H -0.1790 0.1318 0.4623
H2 H -0.1641 -0.0092 0.4122
C2 C -0.3850(4) 0.1298(4) 0.4349(4)
H3 H -0.3754 0.0628 0.5316
H4 H -0.4330 0.1015 0.3727
H5 H -0.4477 0.2417 0.4231
C3 C 0.0926(4) 0.3043(4) 0.2670(4)
H6 H 0.0826 0.3779 0.1718
H7 H 0.1819 0.2007 0.2810
C4 C 0.1145(5) 0.3713(5) 0.3736(5)
H8 H 0.2062 0.3854 0.3632
H9 H 0.1253 0.2974 0.4676
H10 H 0.0261 0.4741 0.3588
C5 C 0.2821(3) 0.2728(3) -0.1385(3)
H11 H 0.2127 0.3655 -0.1222
C6 C 0.3850(3) 0.0409(3) -0.1609(3)
H12 H 0.3994 -0.0584 -0.1631
C7 C 0.4900(3) 0.0980(3) -0.1870(3)
H13 H 0.5882 0.0466 -0.2100
C8 C 0.4898(3) 0.3588(3) -0.1994(3)
H14 H 0.5942 0.3016 -0.1470
H15 H 0.4283 0.4456 -0.1652
C9 C 0.4948(3) 0.4304(3) -0.3555(2)
C10 C 0.3627(3) 0.5064(3) -0.4566(3)
H16 H 0.2696 0.5115 -0.4281
C11 C 0.6319(3) 0.4256(3) -0.4010(3)
H17 H 0.7212 0.3760 -0.3348
O1 O -0.24458(19) 0.2055(2) 0.25303(18)
O2 O -0.0454(2) 0.2839(2) 0.28346(19)
P1 P -0.09797(6) 0.20999(7) 0.18652(6)
S1 S -0.17029(8) 0.36117(8) -0.01212(7)
S2 S 0.07419(7) -0.01294(7) 0.21965(7)
Ag1A Ag 0.96309(2) 0.87011(3) -0.90951(2)
Ag1A_2 Ag -0.03691(2) -0.12989(3) 0.09049(2)
N1A N 0.7460(2) 0.8486(3) -0.8693(2)
N1A_2 N -0.2540(2) -0.1514(3) 0.1307(2)
N2A N 0.5771(2) 0.7533(2) -0.8271(2)
C1A C 0.2284(4) -0.1040(4) -0.3996(3)
H1A H 0.1790 -0.1318 -0.4623
H2A H 0.1641 0.0092 -0.4122
C2A C 0.3850(4) -0.1298(4) -0.4349(4)
H3A H 0.3754 -0.0628 -0.5316
H4A H 0.4330 -0.1015 -0.3727
H5A H 0.4477 -0.2417 -0.4231
C3A C -0.0926(4) -0.3043(4) -0.2670(4)
H6A H -0.0826 -0.3779 -0.1718
H7A H -0.1819 -0.2007 -0.2810
C4A C -0.1145(5) -0.3713(5) -0.3736(5)
H8A H -0.2062 -0.3854 -0.3632
H9A H -0.1253 -0.2974 -0.4676
H10A H -0.0261 -0.4741 -0.3588
C5A C 0.7179(3) 0.7272(3) -0.8615(3)
H11A H 0.7873 0.6345 -0.8778
C6A C 0.6150(3) 0.9591(3) -0.8391(3)
H12A H 0.6006 1.0584 -0.8369
C7A C 0.5100(3) 0.9020(3) -0.8130(3)
H13A H 0.4118 0.9534 -0.7900
C8A C 0.5102(3) 0.6412(3) -0.8006(3)
H14A H 0.4058 0.6984 -0.8530
H15A H 0.5717 0.5544 -0.8348
C9A C 0.5052(3) 0.5696(3) -0.6445(2)
C10A C 0.6373(3) 0.4936(3) -0.5434(3)
H16A H 0.7304 0.4885 -0.5719
C11A C 0.3681(3) 0.5744(3) -0.5990(3)
H17A H 0.2788 0.6240 -0.6652
O1A O 0.24458(19) -0.2055(2) -0.25303(18)
O2A O 0.0454(2) -0.2839(2) -0.28346(19)
P1A P 0.09797(6) -0.20999(7) -0.18652(6)
S1A S 0.17029(8) -0.36117(8) 0.01212(7)
S2A S -0.07419(7) 0.01294(7) -0.21965(7)
loop_
_geom_bond_atom_site_label_1
_geom_bond_atom_site_label_2
_geom_bond_site_symmetry_1
_geom_bond_site_symmetry_2
Ag1 N1 1_555 1_555
N1 C5 1_555 1_555
N2 C5 1_555 1_555
C1 H1 1_555 1_555
H2 C1 1_555 1_555
C2 C1 1_555 1_555
H3 C2 1_555 1_555
H4 C2 1_555 1_555
H5 C2 1_555 1_555
C3 H6 1_555 1_555
H7 C3 1_555 1_555
C4 C3 1_555 1_555
H8 C4 1_555 1_555
H9 C4 1_555 1_555
H10 C4 1_555 1_555
C5 H11 1_555 1_555
C6 N1 1_555 1_555
H12 C6 1_555 1_555
C7 N2 1_555 1_555
H13 C7 1_555 1_555
C8 N2 1_555 1_555
H14 C8 1_555 1_555
H15 C8 1_555 1_555
C9 C8 1_555 1_555
C10 C9 1_555 1_555
H16 C10 1_555 1_555
C11 C9 1_555 1_555
H17 C11 1_555 1_555
O1 C1 1_555 1_555
O2 C3 1_555 1_555
P1 O1 1_555 1_555
S1 Ag1 1_555 1_555
S2 Ag1 1_555 1_555
Ag1A N1A 1_555 1_555
Ag1A_2 S2 1_555 1_555
N1A C5A 1_555 1_555
N1A_2 Ag1A_2 1_555 1_555
N2A C5A 1_555 1_555
C1A H1A 1_555 1_555
H2A C1A 1_555 1_555
C2A C1A 1_555 1_555
H3A C2A 1_555 1_555
H4A C2A 1_555 1_555
H5A C2A 1_555 1_555
C3A H6A 1_555 1_555
H7A C3A 1_555 1_555
C4A C3A 1_555 1_555
H8A C4A 1_555 1_555
H9A C4A 1_555 1_555
H10A C4A 1_555 1_555
C5A H11A 1_555 1_555
C6A N1A 1_555 1_555
H12A C6A 1_555 1_555
C7A N2A 1_555 1_555
H13A C7A 1_555 1_555
C8A N2A 1_555 1_555
H14A C8A 1_555 1_555
H15A C8A 1_555 1_555
C9A C8A 1_555 1_555
C10A C11 1_555 1_555
H16A C10A 1_555 1_555
C11A C10 1_555 1_555
H17A C11A 1_555 1_555
O1A C1A 1_555 1_555
O2A C3A 1_555 1_555
P1A O1A 1_555 1_555
S1A Ag1A_2 1_555 1_555
S2A Ag1 1_555 1_555
C6 C7 1_555 1_555
O2 P1 1_555 1_555
P1 S1 1_555 1_555
P1 S2 1_555 1_555
Ag1A_2 S2A 1_555 1_555
C6A C7A 1_555 1_555
C9A C10A 1_555 1_555
C9A C11A 1_555 1_555
O2A P1A 1_555 1_555
P1A S1A 1_555 1_555
P1A S2A 1_555 1_555

#END
