
#######################################################################
#
#                 Cambridge Crystallographic Data Centre
#                                CCDC 
#
#######################################################################
#
# If this CIF has been generated from an entry in the Cambridge 
# Structural Database, then it will include bibliographic, chemical, 
# crystal, experimental, refinement or atomic coordinate data resulting 
# from the CCDC's data processing and validation procedures.
#
#######################################################################

data_POCPIG01
_symmetry_cell_setting           orthorhombic
_symmetry_space_group_name_H-M   'P 21 21 21'
_symmetry_Int_Tables_number      19
_space_group_name_Hall           'P 2ac 2ab'
loop_
_symmetry_equiv_pos_site_id
_symmetry_equiv_pos_as_xyz
1 x,y,z
2 1/2-x,-y,1/2+z
3 1/2+x,1/2-y,-z
4 -x,1/2+y,1/2-z
_cell_length_a                   3.6456(4)
_cell_length_b                   7.730(2)
_cell_length_c                   20.432(4)
_cell_angle_alpha                90
_cell_angle_beta                 90
_cell_angle_gamma                90
_cell_volume                     575.784
loop_
_atom_site_label
_atom_site_type_symbol
_atom_site_fract_x
_atom_site_fract_y
_atom_site_fract_z
Ag1 Ag 0.1586(3) -0.1900(1) 0.0549(1)
N1 N 0.0047(31) 0.4799(12) -0.1117(4)
C1 C 0.0357(39) 0.3215(14) -0.0857(5)
C2 C 0.1647(33) 0.1806(13) -0.1198(5)
C3 C 0.2091(14) 0.0076(14) -0.0865(5)
O1 O 0.0770(30) -0.0046(11) -0.0307(4)
O2 O 0.3804(31) -0.1066(10) -0.1167(4)
C4 C 0.2607(39) 0.2054(15) -0.1847(5)
C5 C 0.2257(39) 0.3669(16) -0.2121(5)
C6 C 0.1018(45) 0.5000(15) -0.1747(6)
H1 H 0.061(37) 0.326(15) -0.0421(63)
H2 H 0.343(46) 0.110(21) -0.2095(75)
H3 H 0.278(29) 0.394(16) -0.2525(55)
H4 H 0.166(65) 0.628(31) -0.196(11)
Ag1B Ag -0.3414(3) -0.3100(1) -0.0549(1)
Ag1B_2 Ag -0.3414(3) 0.6900(1) -0.0549(1)
Ag1B_3 Ag 0.6586(3) -0.3100(1) -0.0549(1)
N1B N 0.5047(31) 0.0201(12) 0.1117(4)
O2B O -0.1196(31) -0.3934(10) 0.1167(4)
loop_
_geom_bond_atom_site_label_1
_geom_bond_atom_site_label_2
_geom_bond_site_symmetry_1
_geom_bond_site_symmetry_2
Ag1 O1 1_555 1_555
N1 C1 1_555 1_555
C1 C2 1_555 1_555
C2 C3 1_555 1_555
C3 O1 1_555 1_555
O2 C3 1_555 1_555
C4 C2 1_555 1_555
C5 C4 1_555 1_555
C6 N1 1_555 1_555
H1 C1 1_555 1_555
H2 C4 1_555 1_555
H3 C5 1_555 1_555
H4 C6 1_555 1_555
Ag1B Ag1 1_555 1_555
Ag1B_2 N1 1_555 1_555
Ag1B_3 Ag1 1_555 1_555
N1B Ag1 1_555 1_555
O2B Ag1 1_555 1_555
O2 Ag1B_3 1_555 1_555
C5 C6 1_555 1_555

#END
