
#######################################################################
#
#                 Cambridge Crystallographic Data Centre
#                                CCDC 
#
#######################################################################
#
# If this CIF has been generated from an entry in the Cambridge 
# Structural Database, then it will include bibliographic, chemical, 
# crystal, experimental, refinement or atomic coordinate data resulting 
# from the CCDC's data processing and validation procedures.
#
#######################################################################

data_POCPIG
_symmetry_cell_setting           orthorhombic
_symmetry_space_group_name_H-M   'P 21 21 21'
_symmetry_Int_Tables_number      19
_space_group_name_Hall           'P 2ac 2ab'
loop_
_symmetry_equiv_pos_site_id
_symmetry_equiv_pos_as_xyz
1 x,y,z
2 1/2+x,1/2-y,-z
3 -x,1/2+y,1/2-z
4 1/2-x,-y,1/2+z
_cell_length_a                   3.646(1)
_cell_length_b                   7.734(1)
_cell_length_c                   20.433(3)
_cell_angle_alpha                90
_cell_angle_beta                 90
_cell_angle_gamma                90
_cell_volume                     576.173
loop_
_atom_site_label
_atom_site_type_symbol
_atom_site_fract_x
_atom_site_fract_y
_atom_site_fract_z
Ag1 Ag 0.1578(3) -0.81002(8) 0.05485(4)
N1 N -0.498(2) -0.0199(8) 0.1113(3)
C1 C -0.471(2) -0.1781(9) 0.0848(4)
C2 C -0.332(2) -0.3193(8) 0.1195(3)
C3 C -0.234(2) -0.296(1) 0.1847(4)
C4 C -0.273(3) -0.133(1) 0.2131(4)
C5 C -0.400(3) 0.001(1) 0.1746(4)
C6 C -0.292(2) -0.4916(9) 0.0860(4)
O1 O -0.117(2) -0.6057(7) 0.1166(3)
O2 O -0.421(2) -0.5050(8) 0.0304(3)
Ag1A Ag -0.3422(3) -0.68998(8) -0.05485(4)
Ag1_2 Ag -0.8422(3) 0.18998(8) 0.05485(4)
Ag1A_2 Ag 0.6578(3) -0.68998(8) -0.05485(4)
N1_2 N 0.502(2) -1.0199(8) 0.1113(3)
O2A O 0.079(2) -0.9950(8) -0.0304(3)
loop_
_geom_bond_atom_site_label_1
_geom_bond_atom_site_label_2
_geom_bond_site_symmetry_1
_geom_bond_site_symmetry_2
Ag1 O1 1_555 1_555
N1 C1 1_555 1_555
C1 C2 1_555 1_555
C2 C3 1_555 1_555
C3 C4 1_555 1_555
C4 C5 1_555 1_555
C5 N1 1_555 1_555
C6 C2 1_555 1_555
O1 C6 1_555 1_555
O2 C6 1_555 1_555
Ag1A Ag1 1_555 1_555
Ag1_2 N1 1_555 1_555
Ag1A_2 Ag1 1_555 1_555
N1_2 Ag1 1_555 1_555
O2A Ag1 1_555 1_555
O2 Ag1A 1_555 1_555

#END
