
#######################################################################
#
#                 Cambridge Crystallographic Data Centre
#                                CCDC 
#
#######################################################################
#
# If this CIF has been generated from an entry in the Cambridge 
# Structural Database, then it will include bibliographic, chemical, 
# crystal, experimental, refinement or atomic coordinate data resulting 
# from the CCDC's data processing and validation procedures.
#
#######################################################################

data_POCPUT
_symmetry_cell_setting           triclinic
_symmetry_space_group_name_H-M   'P -1'
_symmetry_Int_Tables_number      2
_space_group_name_Hall           '-P 1'
loop_
_symmetry_equiv_pos_site_id
_symmetry_equiv_pos_as_xyz
1 x,y,z
2 -x,-y,-z
_cell_length_a                   9.343(3)
_cell_length_b                   9.544(4)
_cell_length_c                   11.305(4)
_cell_angle_alpha                109.344(6)
_cell_angle_beta                 96.262(6)
_cell_angle_gamma                91.636(6)
_cell_volume                     943.228
loop_
_atom_site_label
_atom_site_type_symbol
_atom_site_fract_x
_atom_site_fract_y
_atom_site_fract_z
Cd1 Cd 0.5000 0.5000 0.5000
S1 S 0.04301(12) 0.26193(15) 0.49621(11)
O1 O 0.6966(3) 0.0327(3) -0.0956(2)
H1 H 0.6606 0.0580 -0.0304
N1 N 0.6018(3) 0.3447(3) 0.3255(3)
N2 N 0.6136(3) 0.1571(4) 0.1468(3)
N3 N 0.7469(3) 0.2113(3) 0.2044(2)
N4 N 0.6682(3) 0.1563(3) -0.3451(3)
N5 N 0.5519(3) 0.3181(3) -0.4068(3)
N6 N 0.5265(4) 0.1172(4) -0.3494(4)
N7 N 0.2692(4) 0.3833(4) 0.4134(4)
C1 C 0.7379(4) 0.3225(4) 0.3101(3)
H2 H 0.8165 0.3772 0.3655
C2 C 0.5305(4) 0.2400(4) 0.2230(4)
H3 H 0.4303 0.2279 0.2077
C3 C 0.8748(3) 0.1411(4) 0.1515(3)
H4 H 0.8597 0.0342 0.1305
H5 H 0.9576 0.1749 0.2159
C4 C 0.9091(3) 0.1731(3) 0.0356(3)
C5 C 0.8227(3) 0.1157(3) -0.0800(3)
C6 C 0.8677(3) 0.1349(3) -0.1870(3)
C7 C 0.9978(4) 0.2154(4) -0.1763(3)
H6 H 1.0277 0.2274 -0.2484
C8 C 1.0845(3) 0.2785(3) -0.0613(3)
C9 C 1.0379(3) 0.2537(3) 0.0429(3)
H7 H 1.0951 0.2924 0.1206
C10 C 0.7810(4) 0.0646(4) -0.3151(3)
H8 H 0.8462 0.0444 -0.3790
H9 H 0.7361 -0.0300 -0.3191
C11 C 1.2309(4) 0.3606(4) -0.0519(4)
C12 C 1.3443(4) 0.2442(4) -0.0817(4)
H10 H 1.4367 0.2928 -0.0783
H11 H 1.3172 0.1730 -0.1646
H12 H 1.3497 0.1940 -0.0206
C13 C 1.2276(5) 0.4430(5) -0.1472(5)
H13 H 1.1527 0.5113 -0.1332
H14 H 1.2092 0.3725 -0.2314
H15 H 1.3190 0.4970 -0.1368
C14 C 1.2743(5) 0.4738(5) 0.0796(4)
H16 H 1.2953 0.4225 0.1389
H17 H 1.1965 0.5365 0.1038
H18 H 1.3584 0.5335 0.0789
C15 C 0.6796(4) 0.2734(4) -0.3809(4)
H19 H 0.7665 0.3187 -0.3871
C16 C 0.4626(4) 0.2187(5) -0.3863(4)
H20 H 0.3627 0.2216 -0.3973
C17 C 0.1759(4) 0.3340(4) 0.4495(4)
Cd1_2 Cd 0.5000 0.5000 -0.5000
Cd1_3 Cd 0.5000 0.5000 1.5000
S1A S 0.95699(12) 0.73807(15) 0.50379(11)
O1A O 0.3034(3) 0.9673(3) 1.0956(2)
H1A H 0.3394 0.9420 1.0304
N1A N 0.3982(3) 0.6553(3) 0.6745(3)
N2A N 0.3864(3) 0.8429(4) 0.8532(3)
N3A N 0.2531(3) 0.7887(3) 0.7956(2)
N4A N 0.3318(3) 0.8437(3) 1.3451(3)
N5A N 0.4481(3) 0.6819(3) 1.4068(3)
N5_2 N 0.5519(3) 0.3181(3) 0.5932(3)
N5A_2 N 0.4481(3) 0.6819(3) 0.4068(3)
N6A N 0.4735(4) 0.8828(4) 1.3494(4)
N7A N 0.7308(4) 0.6167(4) 0.5866(4)
C1A C 0.2621(4) 0.6775(4) 0.6899(3)
H2A H 0.1835 0.6228 0.6345
C2A C 0.4695(4) 0.7600(4) 0.7770(4)
H3A H 0.5697 0.7721 0.7923
C3A C 0.1252(3) 0.8589(4) 0.8485(3)
H4A H 0.1403 0.9658 0.8695
H5A H 0.0424 0.8251 0.7841
C4A C 0.0909(3) 0.8269(3) 0.9644(3)
C5A C 0.1773(3) 0.8843(3) 1.0800(3)
C6A C 0.1323(3) 0.8651(3) 1.1870(3)
C7A C 0.0022(4) 0.7846(4) 1.1763(3)
H6A H -0.0277 0.7726 1.2484
C8A C -0.0845(3) 0.7215(3) 1.0613(3)
C9A C -0.0379(3) 0.7463(3) 0.9571(3)
H7A H -0.0951 0.7076 0.8794
C10A C 0.2190(4) 0.9354(4) 1.3151(3)
H8A H 0.1538 0.9556 1.3790
H9A H 0.2639 1.0300 1.3191
C11A C -0.2309(4) 0.6394(4) 1.0519(4)
C12A C -0.3443(4) 0.7558(4) 1.0817(4)
H10A H -0.4367 0.7072 1.0783
H11A H -0.3172 0.8270 1.1646
H12A H -0.3497 0.8060 1.0206
C13A C -0.2276(5) 0.5570(5) 1.1472(5)
H13A H -0.1527 0.4887 1.1332
H14A H -0.2092 0.6275 1.2314
H15A H -0.3190 0.5030 1.1368
C14A C -0.2743(5) 0.5262(5) 0.9204(4)
H16A H -0.2953 0.5775 0.8611
H17A H -0.1965 0.4635 0.8962
H18A H -0.3584 0.4665 0.9211
C15A C 0.3204(4) 0.7266(4) 1.3809(4)
H19A H 0.2335 0.6813 1.3871
C16A C 0.5374(4) 0.7813(5) 1.3863(4)
H20A H 0.6373 0.7784 1.3973
C17A C 0.8241(4) 0.6660(4) 0.5505(4)
loop_
_geom_bond_atom_site_label_1
_geom_bond_atom_site_label_2
_geom_bond_site_symmetry_1
_geom_bond_site_symmetry_2
Cd1 N1 1_555 1_555
S1 C17 1_555 1_555
O1 H1 1_555 1_555
N1 C1 1_555 1_555
N2 N3 1_555 1_555
N3 C1 1_555 1_555
N4 N6 1_555 1_555
N5 C15 1_555 1_555
N6 C16 1_555 1_555
N7 Cd1 1_555 1_555
C1 H2 1_555 1_555
C2 N1 1_555 1_555
H3 C2 1_555 1_555
C3 N3 1_555 1_555
H4 C3 1_555 1_555
H5 C3 1_555 1_555
C4 C3 1_555 1_555
C5 O1 1_555 1_555
C6 C5 1_555 1_555
C7 C6 1_555 1_555
H6 C7 1_555 1_555
C8 C7 1_555 1_555
C9 C4 1_555 1_555
H7 C9 1_555 1_555
C10 N4 1_555 1_555
H8 C10 1_555 1_555
H9 C10 1_555 1_555
C11 C8 1_555 1_555
C12 C11 1_555 1_555
H10 C12 1_555 1_555
H11 C12 1_555 1_555
H12 C12 1_555 1_555
C13 C11 1_555 1_555
H13 C13 1_555 1_555
H14 C13 1_555 1_555
H15 C13 1_555 1_555
C14 C11 1_555 1_555
H16 C14 1_555 1_555
H17 C14 1_555 1_555
H18 C14 1_555 1_555
C15 N4 1_555 1_555
H19 C15 1_555 1_555
C16 N5 1_555 1_555
H20 C16 1_555 1_555
C17 N7 1_555 1_555
Cd1_2 N5 1_555 1_555
Cd1_3 N5A 1_555 1_555
S1A C17A 1_555 1_555
O1A H1A 1_555 1_555
N1A Cd1 1_555 1_555
N2A N3A 1_555 1_555
N3A C1A 1_555 1_555
N4A N6A 1_555 1_555
N5A C15A 1_555 1_555
N5_2 Cd1 1_555 1_555
N5A_2 Cd1 1_555 1_555
N6A C16A 1_555 1_555
N7A Cd1 1_555 1_555
C1A N1A 1_555 1_555
H2A C1A 1_555 1_555
C2A N1A 1_555 1_555
H3A C2A 1_555 1_555
C3A N3A 1_555 1_555
H4A C3A 1_555 1_555
H5A C3A 1_555 1_555
C4A C3A 1_555 1_555
C5A O1A 1_555 1_555
C6A C5A 1_555 1_555
C7A C6A 1_555 1_555
H6A C7A 1_555 1_555
C8A C7A 1_555 1_555
C9A C4A 1_555 1_555
H7A C9A 1_555 1_555
C10A N4A 1_555 1_555
H8A C10A 1_555 1_555
H9A C10A 1_555 1_555
C11A C8A 1_555 1_555
C12A C11A 1_555 1_555
H10A C12A 1_555 1_555
H11A C12A 1_555 1_555
H12A C12A 1_555 1_555
C13A C11A 1_555 1_555
H13A C13A 1_555 1_555
H14A C13A 1_555 1_555
H15A C13A 1_555 1_555
C14A C11A 1_555 1_555
H16A C14A 1_555 1_555
H17A C14A 1_555 1_555
H18A C14A 1_555 1_555
C15A N4A 1_555 1_555
H19A C15A 1_555 1_555
C16A N5A 1_555 1_555
H20A C16A 1_555 1_555
C17A N7A 1_555 1_555
N2 C2 1_555 1_555
C4 C5 1_555 1_555
C6 C10 1_555 1_555
C8 C9 1_555 1_555
N2A C2A 1_555 1_555
C4A C5A 1_555 1_555
C6A C10A 1_555 1_555
C8A C9A 1_555 1_555

#END
