
#######################################################################
#
#                 Cambridge Crystallographic Data Centre
#                                CCDC 
#
#######################################################################
#
# If this CIF has been generated from an entry in the Cambridge 
# Structural Database, then it will include bibliographic, chemical, 
# crystal, experimental, refinement or atomic coordinate data resulting 
# from the CCDC's data processing and validation procedures.
#
#######################################################################

data_POCQIJ
_symmetry_cell_setting           triclinic
_symmetry_space_group_name_H-M   'P -1'
_symmetry_Int_Tables_number      2
_space_group_name_Hall           '-P 1'
loop_
_symmetry_equiv_pos_site_id
_symmetry_equiv_pos_as_xyz
1 x,y,z
2 -x,-y,-z
_cell_length_a                   9.761(8)
_cell_length_b                   10.086(8)
_cell_length_c                   11.202(9)
_cell_angle_alpha                76.457(9)
_cell_angle_beta                 80.029(9)
_cell_angle_gamma                68.399(9)
_cell_volume                     992.246
loop_
_atom_site_label
_atom_site_type_symbol
_atom_site_fract_x
_atom_site_fract_y
_atom_site_fract_z
Co1 Co 0.95442(6) 0.36598(5) 0.38443(4)
Br1 Br 0.76664(6) 0.00259(5) -0.06353(4)
O1 O 0.8411(3) 0.3168(3) 0.2498(2)
O2 O 0.9956(3) 0.1482(3) 0.3724(2)
O3 O 0.9061(3) -0.3277(3) 0.4888(2)
O4 O 0.8754(3) -0.4147(3) 0.3349(2)
N1 N 0.7721(4) 0.3591(3) 0.5234(3)
N2 N 0.1317(4) 0.3681(3) 1.2391(3)
C1 C 0.8753(4) 0.0684(4) 0.2523(3)
C2 C 0.8919(4) -0.0617(4) 0.3313(3)
H1 H 0.9186 -0.0752 0.4102
C3 C 0.8689(4) -0.1736(4) 0.2941(3)
C4 C 0.8328(4) -0.1529(4) 0.1758(3)
H2 H 0.8205 -0.2279 0.1488
C5 C 0.8151(4) -0.0217(4) 0.0978(3)
C6 C 0.8336(4) 0.0913(4) 0.1351(3)
H3 H 0.8184 0.1808 0.0826
C7 C 0.9058(4) 0.1864(4) 0.2928(3)
C8 C 0.8868(4) -0.3161(4) 0.3800(3)
C9 C 0.7441(5) 0.2365(4) 0.5712(4)
H4 H 0.8023 0.1531 0.5405
C10 C 0.6333(5) 0.2276(5) 0.6635(4)
H5 H 0.6164 0.1401 0.6918
C11 C 0.5481(4) 0.3453(4) 0.7139(3)
C12 C 0.5746(6) 0.4730(5) 0.6632(4)
H6 H 0.5166 0.5580 0.6916
C13 C 0.6860(6) 0.4744(5) 0.5710(4)
H7 H 0.7026 0.5617 0.5397
C14 C 0.4316(5) 0.3387(5) 0.8203(4)
H8 H 0.4271 0.2413 0.8419
H9 H 0.3358 0.4048 0.7953
C15 C 0.4633(5) 0.3783(6) 0.9320(4)
H10 H 0.4673 0.4759 0.9101
H11 H 0.5596 0.3127 0.9561
C16 C 0.1043(5) 0.4650(5) 1.1359(4)
H12 H 0.0096 0.5335 1.1306
C17 C 0.2073(5) 0.4706(5) 1.0360(4)
H13 H 0.1816 0.5414 0.9657
C18 C 0.3484(5) 0.3713(5) 1.0404(4)
C19 C 0.3772(5) 0.2706(5) 1.1469(4)
H14 H 0.4709 0.2006 1.1544
C20 C 0.2675(5) 0.2728(5) 1.2431(4)
H15 H 0.2903 0.2035 1.3145
Co1_2 Co -0.04558(6) 0.36598(5) 1.38443(4)
Co1_3 Co 0.95442(6) -0.63402(5) 0.38443(4)
Co1A Co 1.04558(6) -0.36598(5) 0.61557(4)
O3A O 1.0939(3) 0.3277(3) 0.5112(2)
O4_2 O 0.8754(3) 0.5853(3) 0.3349(2)
N2_2 N 1.1317(4) 0.3681(3) 0.2391(3)
loop_
_geom_bond_atom_site_label_1
_geom_bond_atom_site_label_2
_geom_bond_site_symmetry_1
_geom_bond_site_symmetry_2
Co1 O1 1_555 1_555
Br1 C5 1_555 1_555
O1 C7 1_555 1_555
O2 Co1 1_555 1_555
O3 C8 1_555 1_555
O4 C8 1_555 1_555
N1 Co1 1_555 1_555
N2 C16 1_555 1_555
C1 C2 1_555 1_555
C2 H1 1_555 1_555
C3 C2 1_555 1_555
C4 C3 1_555 1_555
H2 C4 1_555 1_555
C5 C4 1_555 1_555
C6 C1 1_555 1_555
H3 C6 1_555 1_555
C7 O2 1_555 1_555
C8 C3 1_555 1_555
C9 N1 1_555 1_555
H4 C9 1_555 1_555
C10 C9 1_555 1_555
H5 C10 1_555 1_555
C11 C10 1_555 1_555
C12 C11 1_555 1_555
H6 C12 1_555 1_555
C13 N1 1_555 1_555
H7 C13 1_555 1_555
C14 C11 1_555 1_555
H8 C14 1_555 1_555
H9 C14 1_555 1_555
C15 C14 1_555 1_555
H10 C15 1_555 1_555
H11 C15 1_555 1_555
C16 H12 1_555 1_555
C17 C16 1_555 1_555
H13 C17 1_555 1_555
C18 C15 1_555 1_555
C19 C18 1_555 1_555
H14 C19 1_555 1_555
C20 N2 1_555 1_555
H15 C20 1_555 1_555
Co1_2 N2 1_555 1_555
Co1_3 O4 1_555 1_555
Co1A O3 1_555 1_555
O3A Co1 1_555 1_555
O4_2 Co1 1_555 1_555
N2_2 Co1 1_555 1_555
C1 C7 1_555 1_555
C5 C6 1_555 1_555
C12 C13 1_555 1_555
C17 C18 1_555 1_555
C19 C20 1_555 1_555

#END
