
#######################################################################
#
#                 Cambridge Crystallographic Data Centre
#                                CCDC 
#
#######################################################################
#
# If this CIF has been generated from an entry in the Cambridge 
# Structural Database, then it will include bibliographic, chemical, 
# crystal, experimental, refinement or atomic coordinate data resulting 
# from the CCDC's data processing and validation procedures.
#
#######################################################################

data_POCQAA
_symmetry_cell_setting           triclinic
_symmetry_space_group_name_H-M   'P -1'
_symmetry_Int_Tables_number      2
_space_group_name_Hall           '-P 1'
loop_
_symmetry_equiv_pos_site_id
_symmetry_equiv_pos_as_xyz
1 x,y,z
2 -x,-y,-z
_cell_length_a                   5.929(4)
_cell_length_b                   13.332(9)
_cell_length_c                   13.364(9)
_cell_angle_alpha                91.800(12)
_cell_angle_beta                 94.277(13)
_cell_angle_gamma                101.147(11)
_cell_volume                     1032.41
loop_
_atom_site_label
_atom_site_type_symbol
_atom_site_fract_x
_atom_site_fract_y
_atom_site_fract_z
Cd1 Cd 0.51639(7) 0.18166(3) 0.29433(3)
N1 N 0.1863(11) -0.0580(4) 0.0573(4)
C1 C 0.5129(11) -0.0272(5) 0.1491(5)
H1 H 0.6561 -0.0350 0.1775
C2 C 0.4154(13) -0.1910(4) 0.0418(5)
H2 H 0.5791 -0.1895 0.0393
H3 H 0.3438 -0.2023 -0.0263
C3 C 0.3143(12) -0.2774(5) 0.1034(5)
C4 C 0.0980(12) -0.3367(5) 0.0778(5)
H4 H 0.0110 -0.3209 0.0218
C5 C 0.0070(12) -0.4189(5) 0.1329(5)
C6 C -0.2255(14) -0.4821(6) 0.1012(6)
H5 H -0.2755 -0.5266 0.1538
H6 H -0.2170 -0.5225 0.0414
H7 H -0.3335 -0.4380 0.0882
N2 N 0.2232(11) -0.4280(5) 0.4608(4)
C7 C 0.5270(12) -0.3103(5) 0.4951(5)
H8 H 0.6700 -0.2687 0.4889
C8 C 0.4983(13) -0.4144(5) 0.3331(4)
H9 H 0.6600 -0.3850 0.3289
H10 H 0.4815 -0.4883 0.3298
C9 C 0.3588(12) -0.3827(4) 0.2441(5)
C10 C 0.4429(12) -0.2999(5) 0.1889(5)
C11 C 0.1421(13) -0.4402(4) 0.2145(5)
H11 H 0.0852 -0.4960 0.2517
C12 C 1.0388(11) 0.2746(4) 0.2078(4)
C13 C -0.0084(11) 0.0901(4) 0.3805(4)
N3 N 0.4147(9) 0.0509(3) 0.1700(4)
C15 C 0.2182(12) 0.0272(5) 0.1112(5)
H15 H 0.1101 0.0693 0.1088
N4 N 0.3824(10) -0.0925(4) 0.0828(4)
N5 N 0.4013(9) -0.3029(4) 0.5718(4)
C16 C 0.2186(13) -0.3778(6) 0.5470(5)
H16 H 0.0970 -0.3933 0.5876
N6 N 0.4277(10) -0.3821(4) 0.4297(4)
N7 N 0.8513(9) 0.2542(4) 0.2284(4)
N8 N 0.1787(9) 0.1187(4) 0.3648(4)
O1 O 0.6521(9) -0.2376(4) 0.2089(4)
H17 H 0.6962 -0.2408 0.2682
S1 S 1.3053(3) 0.30710(12) 0.17703(13)
S2 S -0.2765(3) 0.04576(13) 0.40340(13)
Cd1A Cd 0.48361(7) -0.18166(3) 0.70567(3)
Cd1_2 Cd 1.51639(7) 0.18166(3) 0.29433(3)
Cd1_3 Cd -0.48361(7) 0.18166(3) 0.29433(3)
N5A N 0.5987(9) 0.3029(4) 0.4282(4)
S1_2 S 0.3053(3) 0.30710(12) 0.17703(13)
S2_2 S 0.7235(3) 0.04576(13) 0.40340(13)
C14 C 0.8633(14) 0.1618(6) 0.6615(6)
H12 H 0.8836 0.1452 0.7306
H13 H 0.7804 0.1024 0.6228
H14 H 0.7777 0.2159 0.6564
O2 O 1.0677(14) 0.1918(7) 0.6267(5)
H18 H 1.1003 0.1366 0.6038
loop_
_geom_bond_atom_site_label_1
_geom_bond_atom_site_label_2
_geom_bond_site_symmetry_1
_geom_bond_site_symmetry_2
Cd1 N3 1_555 1_555
N1 C15 1_555 1_555
C1 H1 1_555 1_555
C2 H2 1_555 1_555
H3 C2 1_555 1_555
C3 C2 1_555 1_555
C4 C3 1_555 1_555
H4 C4 1_555 1_555
C5 C4 1_555 1_555
C6 C5 1_555 1_555
H5 C6 1_555 1_555
H6 C6 1_555 1_555
H7 C6 1_555 1_555
N2 C16 1_555 1_555
C7 H8 1_555 1_555
C8 H9 1_555 1_555
H10 C8 1_555 1_555
C9 C8 1_555 1_555
C10 C3 1_555 1_555
C11 C5 1_555 1_555
H11 C11 1_555 1_555
C12 N7 1_555 1_555
C13 N8 1_555 1_555
C14 H12 1_555 1_555
H13 C14 1_555 1_555
H14 C14 1_555 1_555
N3 C1 1_555 1_555
C15 N3 1_555 1_555
H15 C15 1_555 1_555
N4 N1 1_555 1_555
N5 C7 1_555 1_555
C16 N5 1_555 1_555
H16 C16 1_555 1_555
N6 N2 1_555 1_555
N7 Cd1 1_555 1_555
N8 Cd1 1_555 1_555
O1 C10 1_555 1_555
H17 O1 1_555 1_555
O2 C14 1_555 1_555
H18 O2 1_555 1_555
S1 C12 1_555 1_555
S2 C13 1_555 1_555
Cd1A N5 1_555 1_555
Cd1_2 S1 1_555 1_555
Cd1_3 S2 1_555 1_555
N5A Cd1 1_555 1_555
S1_2 Cd1 1_555 1_555
S2_2 Cd1 1_555 1_555
C1 N4 1_555 1_555
C2 N4 1_555 1_555
C7 N6 1_555 1_555
C8 N6 1_555 1_555
C9 C10 1_555 1_555
C9 C11 1_555 1_555

#END
