
#######################################################################
#
#                 Cambridge Crystallographic Data Centre
#                                CCDC 
#
#######################################################################
#
# If this CIF has been generated from an entry in the Cambridge 
# Structural Database, then it will include bibliographic, chemical, 
# crystal, experimental, refinement or atomic coordinate data resulting 
# from the CCDC's data processing and validation procedures.
#
#######################################################################

data_POCQUU
_symmetry_cell_setting           triclinic
_symmetry_space_group_name_H-M   'P -1'
_symmetry_Int_Tables_number      2
_space_group_name_Hall           '-P 1'
loop_
_symmetry_equiv_pos_site_id
_symmetry_equiv_pos_as_xyz
1 x,y,z
2 -x,-y,-z
_cell_length_a                   10.2570(6)
_cell_length_b                   13.5140(6)
_cell_length_c                   14.6040(8)
_cell_angle_alpha                94.7440(10)
_cell_angle_beta                 99.8260(10)
_cell_angle_gamma                95.5430(10)
_cell_volume                     1975.1
loop_
_atom_site_label
_atom_site_type_symbol
_atom_site_fract_x
_atom_site_fract_y
_atom_site_fract_z
Zn1 Zn 0.80540(3) 0.19496(2) -0.00075(2)
Zn2 Zn 1.07479(4) 0.55973(2) 0.23670(2)
C1 C 0.8892(3) -0.0123(2) 0.0892(2)
H1 H 0.9698 -0.0190 0.0696
C2 C 0.8408(3) -0.0656(2) 0.1523(2)
H2 H 0.8810 -0.1151 0.1835
C3 C 0.7005(2) 0.03986(18) 0.10338(17)
C4 C 0.5894(3) 0.10021(18) 0.08696(16)
C5 C 0.4651(3) 0.0781(2) 0.1095(2)
H3 H 0.4466 0.0223 0.1404
C6 C 0.3686(3) 0.1408(2) 0.0849(2)
H4 H 0.2843 0.1277 0.0995
C7 C 0.3976(3) 0.2220(2) 0.0392(2)
H5 H 0.3336 0.2646 0.0224
C8 C 0.5228(3) 0.2395(2) 0.0185(2)
H6 H 0.5423 0.2948 -0.0128
C9 C 0.6493(3) -0.0601(2) 0.23624(19)
H7 H 0.6867 -0.1162 0.2642
H8 H 0.5566 -0.0814 0.2096
C10 C 0.6571(3) 0.02564(19) 0.31177(18)
C11 C 0.7590(3) 0.1032(2) 0.32842(19)
H9 H 0.8251 0.1039 0.2920
C12 C 0.7645(3) 0.18016(19) 0.39871(18)
C13 C 0.6669(3) 0.1778(2) 0.4535(2)
H10 H 0.6696 0.2286 0.5010
C14 C 0.5650(3) 0.0994(2) 0.4375(2)
H11 H 0.4993 0.0982 0.4743
C15 C 0.5607(3) 0.0244(2) 0.3682(2)
H12 H 0.4927 -0.0281 0.3586
C16 C 0.8793(3) 0.2625(2) 0.41969(19)
H13 H 0.8799 0.2974 0.4805
H14 H 0.9622 0.2329 0.4224
C17 C 0.7714(3) 0.3369(2) 0.2745(2)
H15 H 0.6919 0.2948 0.2607
C18 C 0.8099(3) 0.4111(2) 0.2248(2)
H16 H 0.7607 0.4284 0.1701
C19 C 0.9691(3) 0.40927(17) 0.34298(17)
C20 C 1.0944(3) 0.44360(17) 0.40618(17)
C21 C 1.1368(3) 0.4134(2) 0.49385(19)
H17 H 1.0847 0.3651 0.5176
C22 C 1.2581(3) 0.4563(2) 0.5455(2)
H18 H 1.2881 0.4375 0.6046
C23 C 1.3336(3) 0.5269(2) 0.5085(2)
H19 H 1.4158 0.5559 0.5417
C24 C 1.2854(3) 0.5539(2) 0.4219(2)
H20 H 1.3363 0.6023 0.3974
C25 C 1.3676(3) 0.2981(2) 0.3430(2)
H21 H 1.4369 0.2946 0.3924
C26 C 1.2550(3) 0.23082(17) 0.32879(18)
C27 C 1.1541(3) 0.23297(18) 0.25426(17)
H22 H 1.0802 0.1852 0.2443
C28 C 1.1623(3) 0.30652(18) 0.19343(17)
C29 C 1.2738(3) 0.37806(17) 0.20906(18)
C30 C 1.3761(3) 0.3710(2) 0.2826(2)
H23 H 1.4524 0.4164 0.2916
C31 C 1.2880(3) 0.46558(19) 0.15230(19)
C32 C 1.0532(3) 0.3039(2) 0.11051(19)
C33 C 1.0884(3) -0.0830(2) 0.4081(2)
H24 H 1.0414 -0.1156 0.4481
C34 C 1.1316(3) 0.0176(2) 0.4295(2)
H25 H 1.1157 0.0519 0.4836
C35 C 1.1983(3) 0.06604(18) 0.36951(18)
C36 C 1.2240(3) 0.01499(18) 0.28977(18)
H26 H 1.2697 0.0487 0.2498
C37 C 1.1820(2) -0.08652(17) 0.26900(16)
C38 C 1.1128(3) -0.13667(18) 0.32932(18)
C39 C 1.0708(3) -0.2472(2) 0.3136(2)
C40 C 1.2106(3) -0.13525(18) 0.17928(19)
N1 N 0.8019(2) 0.05328(16) 0.05829(16)
N2 N 0.6174(2) 0.18058(16) 0.04149(15)
N3 N 0.7203(2) -0.03287(16) 0.16178(16)
N4 N 0.9321(2) 0.45632(16) 0.26737(15)
N5 N 1.1688(2) 0.51376(15) 0.37085(16)
N6 N 0.8721(2) 0.33554(15) 0.34900(14)
O1 O 1.3715(3) 0.46719(18) 0.10115(18)
O2 O 1.2204(2) 0.53720(15) 0.16522(15)
O3 O 1.0598(3) 0.3666(3) 0.0561(2)
O4 O 0.9558(2) 0.23883(16) 0.10500(15)
O5 O 1.3268(3) -0.1415(2) 0.1702(2)
O6 O 1.1138(3) -0.16098(18) 0.11442(15)
O7 O 1.1394(3) -0.29754(14) 0.26782(19)
O8 O 0.9784(2) -0.28374(17) 0.34876(17)
O9 O 1.2446(2) 0.16515(13) 0.39666(13)
O10 O 0.7879(2) 0.34688(15) -0.01948(15)
H27 H 0.764(3) 0.376(2) -0.0711(15)
H28 H 0.861(2) 0.386(2) 0.006(2)
O14 O 0.9352(4) 0.5959(4) 0.1223(2)
H35 H 0.942(8) 0.635(4) 0.077(3)
H36 H 0.940(8) 0.538(2) 0.091(4)
Zn1A Zn 1.19460(3) -0.19496(2) 0.00075(2)
Zn2_2 Zn 1.07479(4) -0.44027(2) 0.23670(2)
O6A O 0.8862(3) 0.16098(18) -0.11442(15)
O7_2 O 1.1394(3) 0.70246(14) 0.26782(19)
O11 O 0.5317(4) 0.2609(3) -0.3430(3)
H29 H 0.464(5) 0.274(5) -0.387(3)
H30 H 0.515(7) 0.303(4) -0.296(3)
O12 O 0.2954(4) 0.3043(3) -0.2634(3)
H31 H 0.2081(18) 0.299(5) -0.286(4)
H32 H 0.294(6) 0.335(5) -0.207(2)
O13 O 0.3728(3) 0.4369(3) -0.0927(2)
H33 H 0.377(5) 0.468(4) -0.0357(19)
H34 H 0.450(3) 0.465(4) -0.105(4)
loop_
_geom_bond_atom_site_label_1
_geom_bond_atom_site_label_2
_geom_bond_site_symmetry_1
_geom_bond_site_symmetry_2
Zn1 N1 1_555 1_555
Zn2 N4 1_555 1_555
C1 H1 1_555 1_555
C2 C1 1_555 1_555
H2 C2 1_555 1_555
C3 C4 1_555 1_555
C4 C5 1_555 1_555
C5 H3 1_555 1_555
C6 C5 1_555 1_555
H4 C6 1_555 1_555
C7 C6 1_555 1_555
H5 C7 1_555 1_555
C8 C7 1_555 1_555
H6 C8 1_555 1_555
C9 H7 1_555 1_555
H8 C9 1_555 1_555
C10 C9 1_555 1_555
C11 C10 1_555 1_555
H9 C11 1_555 1_555
C12 C11 1_555 1_555
C13 C12 1_555 1_555
H10 C13 1_555 1_555
C14 C13 1_555 1_555
H11 C14 1_555 1_555
C15 C10 1_555 1_555
H12 C15 1_555 1_555
C16 C12 1_555 1_555
H13 C16 1_555 1_555
H14 C16 1_555 1_555
C17 H15 1_555 1_555
C18 C17 1_555 1_555
H16 C18 1_555 1_555
C19 C20 1_555 1_555
C20 C21 1_555 1_555
C21 H17 1_555 1_555
C22 C21 1_555 1_555
H18 C22 1_555 1_555
C23 C22 1_555 1_555
H19 C23 1_555 1_555
C24 C23 1_555 1_555
H20 C24 1_555 1_555
C25 H21 1_555 1_555
C26 C25 1_555 1_555
C27 C26 1_555 1_555
H22 C27 1_555 1_555
C28 C27 1_555 1_555
C29 C28 1_555 1_555
C30 C25 1_555 1_555
H23 C30 1_555 1_555
C31 C29 1_555 1_555
C32 C28 1_555 1_555
C33 H24 1_555 1_555
C34 C33 1_555 1_555
H25 C34 1_555 1_555
C35 C34 1_555 1_555
C36 C35 1_555 1_555
H26 C36 1_555 1_555
C37 C36 1_555 1_555
C38 C33 1_555 1_555
C39 C38 1_555 1_555
C40 C37 1_555 1_555
N1 C1 1_555 1_555
N2 Zn1 1_555 1_555
N3 C2 1_555 1_555
N4 C18 1_555 1_555
N5 Zn2 1_555 1_555
N6 C16 1_555 1_555
O1 C31 1_555 1_555
O2 Zn2 1_555 1_555
O3 C32 1_555 1_555
O4 Zn1 1_555 1_555
O5 C40 1_555 1_555
O6 C40 1_555 1_555
O7 C39 1_555 1_555
O8 C39 1_555 1_555
O9 C26 1_555 1_555
O10 Zn1 1_555 1_555
H27 O10 1_555 1_555
H28 O10 1_555 1_555
O11 H29 1_555 1_555
H30 O11 1_555 1_555
O12 H31 1_555 1_555
H32 O12 1_555 1_555
O13 H33 1_555 1_555
H34 O13 1_555 1_555
O14 Zn2 1_555 1_555
H35 O14 1_555 1_555
H36 O14 1_555 1_555
Zn1A O6 1_555 1_555
Zn2_2 O7 1_555 1_555
O6A Zn1 1_555 1_555
O7_2 Zn2 1_555 1_555
C3 N1 1_555 1_555
C3 N3 1_555 1_555
C4 N2 1_555 1_555
C8 N2 1_555 1_555
C9 N3 1_555 1_555
C14 C15 1_555 1_555
C17 N6 1_555 1_555
C19 N4 1_555 1_555
C19 N6 1_555 1_555
C20 N5 1_555 1_555
C24 N5 1_555 1_555
C29 C30 1_555 1_555
C31 O2 1_555 1_555
C32 O4 1_555 1_555
C35 O9 1_555 1_555
C37 C38 1_555 1_555

#END
