
#######################################################################
#
#                 Cambridge Crystallographic Data Centre
#                                CCDC 
#
#######################################################################
#
# If this CIF has been generated from an entry in the Cambridge 
# Structural Database, then it will include bibliographic, chemical, 
# crystal, experimental, refinement or atomic coordinate data resulting 
# from the CCDC's data processing and validation procedures.
#
#######################################################################

data_POCQOO
_symmetry_cell_setting           monoclinic
_symmetry_space_group_name_H-M   'C 2/c'
_symmetry_Int_Tables_number      15
_space_group_name_Hall           '-C 2yn'
loop_
_symmetry_equiv_pos_site_id
_symmetry_equiv_pos_as_xyz
1 x,y,z
2 1/2+x,1/2+y,z
3 -x,y,1/2-z
4 1/2-x,1/2+y,1/2-z
5 -x,-y,-z
6 1/2-x,1/2-y,-z
7 x,-y,1/2+z
8 1/2+x,1/2-y,1/2+z
_cell_length_a                   16.8510(6)
_cell_length_b                   26.0810(7)
_cell_length_c                   14.5640(7)
_cell_angle_alpha                90
_cell_angle_beta                 116.7350(10)
_cell_angle_gamma                90
_cell_volume                     5716.49
loop_
_atom_site_label
_atom_site_type_symbol
_atom_site_fract_x
_atom_site_fract_y
_atom_site_fract_z
Zn1 Zn 0.34778(2) 0.205697(12) 0.09119(2)
Zn2 Zn 0.23496(2) 0.085186(12) 0.05996(2)
C1 C 0.30746(17) 0.14122(11) 0.2425(2)
C2 C 0.32848(17) 0.15388(10) 0.35166(19)
C3 C 0.26208(18) 0.15425(12) 0.3833(2)
H1 H 0.2054 0.1427 0.3387
C4 C 0.2791(2) 0.17152(12) 0.4801(2)
H2 H 0.2343 0.1719 0.5007
C5 C 0.36339(19) 0.18811(11) 0.5454(2)
C6 C 0.43130(18) 0.18686(11) 0.5171(2)
H3 H 0.4881 0.1975 0.5629
C7 C 0.41431(17) 0.16966(10) 0.42014(19)
C8 C 0.49409(18) 0.16405(11) 0.3990(2)
C9 C 0.35552(19) 0.18541(12) 0.7050(2)
C10 C 0.3722(2) 0.13378(12) 0.7288(2)
H4 H 0.3980 0.1136 0.6968
C11 C 0.34954(19) 0.11305(11) 0.8009(2)
H5 H 0.3601 0.0785 0.8174
C12 C 0.31095(17) 0.14305(10) 0.84968(19)
C13 C 0.29400(17) 0.19485(10) 0.82367(19)
C14 C 0.31598(19) 0.21561(11) 0.7503(2)
H6 H 0.3040 0.2499 0.7317
C15 C 0.25065(19) 0.23001(10) 0.8694(2)
C16 C 0.28517(18) 0.11878(11) 0.9246(2)
C17 C 0.1997(2) -0.03491(12) 0.0434(3)
H7 H 0.2550 -0.0464 0.0919
C18 C 0.1337(2) -0.06509(13) -0.0225(3)
H8 H 0.1350 -0.1006 -0.0277
C19 C 0.09030(18) 0.01501(10) -0.0477(2)
C20 C 0.04339(18) 0.06417(11) -0.0836(2)
C21 C -0.04579(19) 0.07141(12) -0.1472(3)
H9 H -0.0840 0.0435 -0.1721
C22 C -0.0772(2) 0.12095(13) -0.1733(3)
H10 H -0.1371 0.1265 -0.2168
C23 C -0.0207(2) 0.16197(13) -0.1353(3)
H11 H -0.0410 0.1954 -0.1533
C24 C 0.0663(2) 0.15210(12) -0.0702(2)
H12 H 0.1047 0.1797 -0.0425
C25 C -0.02248(19) -0.05071(12) -0.1622(2)
H13 H -0.0471 -0.0244 -0.2146
H14 H -0.0636 -0.0562 -0.1333
C26 C -0.01198(18) -0.09986(10) -0.2104(2)
C27 C -0.0238(2) -0.14656(13) -0.1719(3)
H15 H -0.0399 -0.1470 -0.1186
C28 C -0.0120(2) -0.19216(12) -0.2119(3)
H16 H -0.0207 -0.2231 -0.1859
N1 N 0.09884(15) 0.10470(9) -0.04451(17)
N2 N 0.17317(15) 0.01499(9) 0.02796(18)
N3 N 0.06383(15) -0.03323(9) -0.08046(18)
O1 O 0.24090(13) 0.11359(9) 0.19111(15)
O2 O 0.35827(13) 0.15961(8) 0.20931(14)
O3 O 0.51800(14) 0.12027(8) 0.39034(17)
O4 O 0.53463(13) 0.20514(8) 0.40125(17)
O5 O 0.38317(16) 0.20985(9) 0.64033(17)
O6 O 0.16802(14) 0.23229(9) 0.82964(16)
O7 O 0.30009(17) 0.25621(9) 0.94577(18)
O8 O 0.26825(17) 0.07241(8) 0.91921(18)
O9 O 0.27682(12) 0.14629(7) 0.99266(13)
O10 O 0.36604(14) 0.05447(8) 0.14139(18)
H17 H 0.368(3) 0.0292(11) 0.111(4)
H18 H 0.402(3) 0.0766(13) 0.151(4)
Zn1B Zn 0.65222(2) 0.205697(12) 0.40881(2)
Zn1E Zn 0.15222(2) 0.294303(12) 0.90881(2)
Zn1_2 Zn 0.34778(2) 0.205697(12) 1.09119(2)
Zn1G Zn 0.84778(2) 0.294303(12) -0.40881(2)
Zn1B_2 Zn 0.65222(2) 0.205697(12) -0.59119(2)
Zn2B Zn 0.76504(2) 0.085186(12) 0.44004(2)
Zn2_2 Zn 0.23496(2) 0.085186(12) 1.05996(2)
Zn2B_2 Zn -0.23496(2) 0.085186(12) -0.55996(2)
Zn2B_3 Zn 0.76504(2) 0.085186(12) -0.55996(2)
C1B C 0.69254(17) 0.14122(11) 0.2575(2)
C2B C 0.67152(17) 0.15388(10) 0.14834(19)
C3B C 0.73792(18) 0.15425(12) 0.1167(2)
H1B H 0.7946 0.1427 0.1613
C4B C 0.7209(2) 0.17152(12) 0.0199(2)
H2B H 0.7657 0.1719 -0.0007
C5B C 0.63661(19) 0.18811(11) -0.0454(2)
C6B C 0.56870(18) 0.18686(11) -0.0171(2)
H3B H 0.5119 0.1975 -0.0629
C7B C 0.58569(17) 0.16966(10) 0.07986(19)
C8B C 0.50591(18) 0.16405(11) 0.1010(2)
C9B C 0.64448(19) 0.18541(12) -0.2050(2)
C10B C 0.6278(2) 0.13378(12) -0.2288(2)
H4B H 0.6020 0.1136 -0.1968
C11B C 0.65046(19) 0.11305(11) -0.3009(2)
H5B H 0.6399 0.0785 -0.3174
C12B C 0.68905(17) 0.14305(10) -0.34968(19)
C13B C 0.70600(17) 0.19485(10) -0.32367(19)
C14B C 0.68402(19) 0.21561(11) -0.2503(2)
H6B H 0.6960 0.2499 -0.2317
C15B C 0.74935(19) 0.23001(10) -0.3694(2)
C16B C 0.71483(18) 0.11878(11) -0.4246(2)
C17B C -0.1997(2) -0.03491(12) -0.5434(3)
H7B H -0.2550 -0.0464 -0.5919
C18B C -0.1337(2) -0.06509(13) -0.4775(3)
H8B H -0.1350 -0.1006 -0.4723
C19B C -0.09030(18) 0.01501(10) -0.4523(2)
C20B C -0.04339(18) 0.06417(11) -0.4164(2)
C21B C 0.04579(19) 0.07141(12) -0.3528(3)
H9B H 0.0840 0.0435 -0.3279
C22B C 0.0772(2) 0.12095(13) -0.3267(3)
H10B H 0.1371 0.1265 -0.2832
C23B C 0.0207(2) 0.16197(13) -0.3647(3)
H11B H 0.0410 0.1954 -0.3467
C24B C -0.0663(2) 0.15210(12) -0.4298(2)
H12B H -0.1047 0.1797 -0.4575
C25B C 0.02248(19) -0.05071(12) -0.3378(2)
H13B H 0.0471 -0.0244 -0.2854
H14B H 0.0636 -0.0562 -0.3667
C26B C 0.01198(18) -0.09986(10) -0.2896(2)
C27B C 0.0238(2) -0.14656(13) -0.3281(3)
H15B H 0.0399 -0.1470 -0.3814
C28B C 0.0120(2) -0.19216(12) -0.2881(3)
H16B H 0.0207 -0.2231 -0.3141
N1B N -0.09884(15) 0.10470(9) -0.45549(17)
N1B_2 N 0.90116(15) 0.10470(9) 0.54451(17)
N2B N -0.17317(15) 0.01499(9) -0.52796(18)
N2B_2 N 0.82683(15) 0.01499(9) 0.47204(18)
N3B N -0.06383(15) -0.03323(9) -0.41954(18)
O1B O 0.75910(13) 0.11359(9) 0.30889(15)
O2B O 0.64173(13) 0.15961(8) 0.29069(14)
O3B O 0.48200(14) 0.12027(8) 0.10966(17)
O4B O 0.46537(13) 0.20514(8) 0.09875(17)
O5B O 0.61683(16) 0.20985(9) -0.14033(17)
O6B O 0.83198(14) 0.23229(9) -0.32964(16)
O6E O 0.33198(14) 0.26771(9) 0.17036(16)
O6G O 0.66802(14) 0.26771(9) 0.32964(16)
O7B O 0.69991(17) 0.25621(9) -0.44577(18)
O7_2 O 0.30009(17) 0.25621(9) -0.05423(18)
O7B_2 O 0.69991(17) 0.25621(9) 0.55423(18)
O8B O 0.73175(17) 0.07241(8) -0.41921(18)
O8_2 O 0.26825(17) 0.07241(8) -0.08079(18)
O8B_2 O 0.73175(17) 0.07241(8) 0.58079(18)
O9B O 0.72318(12) 0.14629(7) -0.49266(13)
O9_2 O 0.27682(12) 0.14629(7) -0.00734(13)
O9B_2 O 0.72318(12) 0.14629(7) 0.50734(13)
O10B O 0.63396(14) 0.05447(8) 0.35861(18)
H17B H 0.632(3) 0.0292(11) 0.389(4)
H18B H 0.598(3) 0.0766(13) 0.349(4)
O11 O 0.4237(3) -0.03083(13) 0.0685(3)
O12 O 0.2105(2) -0.01366(15) -0.2087(3)
H19 H 0.237(3) 0.0103(12) -0.173(4)
H20 H 0.240(3) -0.0383(12) -0.209(4)
O13 O 0.4200(2) 0.03297(12) 0.3548(3)
H21 H 0.462(2) 0.0523(14) 0.376(4)
H22 H 0.425(3) 0.0052(10) 0.335(5)
loop_
_geom_bond_atom_site_label_1
_geom_bond_atom_site_label_2
_geom_bond_site_symmetry_1
_geom_bond_site_symmetry_2
Zn1 O2 1_555 1_555
Zn2 N1 1_555 1_555
C1 C2 1_555 1_555
C2 C3 1_555 1_555
C3 H1 1_555 1_555
C4 C3 1_555 1_555
H2 C4 1_555 1_555
C5 C4 1_555 1_555
C6 C5 1_555 1_555
H3 C6 1_555 1_555
C7 C2 1_555 1_555
C8 C7 1_555 1_555
C9 C10 1_555 1_555
C10 H4 1_555 1_555
C11 C10 1_555 1_555
H5 C11 1_555 1_555
C12 C11 1_555 1_555
C13 C12 1_555 1_555
C14 C9 1_555 1_555
H6 C14 1_555 1_555
C15 C13 1_555 1_555
C16 C12 1_555 1_555
C17 H7 1_555 1_555
C18 C17 1_555 1_555
H8 C18 1_555 1_555
C19 C20 1_555 1_555
C20 C21 1_555 1_555
C21 H9 1_555 1_555
C22 C21 1_555 1_555
H10 C22 1_555 1_555
C23 C22 1_555 1_555
H11 C23 1_555 1_555
C24 C23 1_555 1_555
H12 C24 1_555 1_555
C25 H13 1_555 1_555
H14 C25 1_555 1_555
C26 C25 1_555 1_555
C27 C26 1_555 1_555
H15 C27 1_555 1_555
C28 C27 1_555 1_555
H16 C28 1_555 1_555
N1 C20 1_555 1_555
N2 Zn2 1_555 1_555
N3 C18 1_555 1_555
O1 Zn2 1_555 1_555
O2 C1 1_555 1_555
O3 C8 1_555 1_555
O4 C8 1_555 1_555
O5 C5 1_555 1_555
O6 C15 1_555 1_555
O7 C15 1_555 1_555
O8 C16 1_555 1_555
O9 C16 1_555 1_555
O10 Zn2 1_555 1_555
O12 H19 1_555 1_555
O13 H21 1_555 1_555
H17 O10 1_555 1_555
H18 O10 1_555 1_555
H20 O12 1_555 1_555
H22 O13 1_555 1_555
Zn1B O4 1_555 1_555
Zn1E O6 1_555 1_555
Zn1_2 O7 1_555 1_555
Zn1G O6B 1_555 1_555
Zn1B_2 O7B 1_555 1_555
Zn2B N1B_2 1_555 1_555
Zn2_2 O8 1_555 1_555
Zn2B_2 N1B 1_555 1_555
Zn2B_3 O8B 1_555 1_555
C1B C2B 1_555 1_555
C2B C3B 1_555 1_555
C3B H1B 1_555 1_555
C4B C3B 1_555 1_555
H2B C4B 1_555 1_555
C5B C4B 1_555 1_555
C6B C5B 1_555 1_555
H3B C6B 1_555 1_555
C7B C2B 1_555 1_555
C8B C7B 1_555 1_555
C9B C10B 1_555 1_555
C10B H4B 1_555 1_555
C11B C10B 1_555 1_555
H5B C11B 1_555 1_555
C12B C11B 1_555 1_555
C13B C12B 1_555 1_555
C14B C9B 1_555 1_555
H6B C14B 1_555 1_555
C15B C13B 1_555 1_555
C16B C12B 1_555 1_555
C17B H7B 1_555 1_555
C18B C17B 1_555 1_555
H8B C18B 1_555 1_555
C19B C20B 1_555 1_555
C20B C21B 1_555 1_555
C21B H9B 1_555 1_555
C22B C21B 1_555 1_555
H10B C22B 1_555 1_555
C23B C22B 1_555 1_555
H11B C23B 1_555 1_555
C24B C23B 1_555 1_555
H12B C24B 1_555 1_555
C25B H13B 1_555 1_555
H14B C25B 1_555 1_555
C26B C26 1_555 1_555
C27B C26B 1_555 1_555
H15B C27B 1_555 1_555
C28B C28 1_555 1_555
H16B C28B 1_555 1_555
N1B C20B 1_555 1_555
N2B Zn2B_2 1_555 1_555
N2B_2 Zn2B 1_555 1_555
N3B C18B 1_555 1_555
O1B Zn2B 1_555 1_555
O2B Zn1B 1_555 1_555
O3B C8B 1_555 1_555
O4B Zn1 1_555 1_555
O5B C5B 1_555 1_555
O6B C15B 1_555 1_555
O6E Zn1 1_555 1_555
O6G Zn1B 1_555 1_555
O7B C15B 1_555 1_555
O7_2 Zn1 1_555 1_555
O7B_2 Zn1B 1_555 1_555
O8B C16B 1_555 1_555
O8_2 Zn2 1_555 1_555
O8B_2 Zn2B 1_555 1_555
O9B Zn1B_2 1_555 1_555
O9_2 Zn1 1_555 1_555
O9B_2 Zn1B 1_555 1_555
O10B Zn2B 1_555 1_555
H17B O10B 1_555 1_555
H18B O10B 1_555 1_555
Zn2 O9_2 1_555 1_555
C1 O1 1_555 1_555
C6 C7 1_555 1_555
C9 O5 1_555 1_555
C13 C14 1_555 1_555
C17 N2 1_555 1_555
C19 N2 1_555 1_555
C19 N3 1_555 1_555
C24 N1 1_555 1_555
C25 N3 1_555 1_555
O9 Zn1_2 1_555 1_555
O9 Zn2_2 1_555 1_555
Zn2B O9B_2 1_555 1_555
Zn2B_3 O9B 1_555 1_555
C1B O1B 1_555 1_555
C1B O2B 1_555 1_555
C6B C7B 1_555 1_555
C8B O4B 1_555 1_555
C9B O5B 1_555 1_555
C13B C14B 1_555 1_555
C16B O9B 1_555 1_555
C17B N2B 1_555 1_555
C19B N2B 1_555 1_555
C19B N3B 1_555 1_555
C24B N1B 1_555 1_555
C25B C26B 1_555 1_555
C25B N3B 1_555 1_555
C27B C28B 1_555 1_555

#END
