
#######################################################################
#
#                 Cambridge Crystallographic Data Centre
#                                CCDC 
#
#######################################################################
#
# If this CIF has been generated from an entry in the Cambridge 
# Structural Database, then it will include bibliographic, chemical, 
# crystal, experimental, refinement or atomic coordinate data resulting 
# from the CCDC's data processing and validation procedures.
#
#######################################################################

data_POCQEE
_symmetry_cell_setting           triclinic
_symmetry_space_group_name_H-M   'P -1'
_symmetry_Int_Tables_number      2
_space_group_name_Hall           '-P 1'
loop_
_symmetry_equiv_pos_site_id
_symmetry_equiv_pos_as_xyz
1 x,y,z
2 -x,-y,-z
_cell_length_a                   5.9697(4)
_cell_length_b                   13.1004(8)
_cell_length_c                   13.2752(8)
_cell_angle_alpha                93.2440(10)
_cell_angle_beta                 94.1130(10)
_cell_angle_gamma                100.3510(10)
_cell_volume                     1016.11
loop_
_atom_site_label
_atom_site_type_symbol
_atom_site_fract_x
_atom_site_fract_y
_atom_site_fract_z
Cd1 Cd 0.02135(3) 0.681699(14) -0.207174(14)
C1 C 0.1396(4) 0.88893(19) 0.25959(19)
C2 C 0.0586(4) 0.80778(19) 0.3187(2)
C3 C 0.1917(4) 0.78688(19) 0.4035(2)
C4 C 0.4113(4) 0.84363(19) 0.4266(2)
H1 H 0.5020 0.8288 0.4818
C5 C 0.4919(4) 0.92256(19) 0.3663(2)
C6 C 0.3599(4) 0.94585(19) 0.2849(2)
H2 H 0.4077 0.9940 0.2431
C7 C -0.0026(5) 0.9199(2) 0.17200(19)
H3 H -0.1615 0.8889 0.1766
H4 H 0.0092 0.9948 0.1769
C8 C 0.2823(5) 0.8802(2) -0.0433(2)
H5 H 0.4055 0.8939 -0.0827
C9 C -0.0325(4) 0.81208(19) 0.0056(2)
H6 H -0.1742 0.7707 0.0106
C10 C 0.0956(5) 0.70132(18) 0.4682(2)
H7 H 0.1745 0.7136 0.5355
H8 H -0.0647 0.7022 0.4746
C11 C -0.0152(4) 0.53337(19) 0.3572(2)
H9 H -0.1583 0.5424 0.3305
C12 C 0.2834(4) 0.4741(2) 0.3909(2)
H10 H 0.3895 0.4302 0.3908
C14 C 0.5449(4) 0.77328(18) -0.29044(19)
C15 C -0.5000(4) 0.58772(19) -0.12033(19)
Cl1 Cl 0.76651(11) 0.99509(5) 0.39525(6)
N1 N 0.0679(4) 0.88716(16) 0.07351(16)
N2 N 0.2740(4) 0.93325(19) 0.04310(18)
N3 N 0.0983(4) 0.80435(16) -0.07040(16)
N4 N 0.1208(4) 0.59890(16) 0.42487(16)
N5 N 0.3173(4) 0.56203(16) 0.44723(17)
N6 N 0.0812(4) 0.45227(15) 0.33334(16)
N7 N -0.3109(4) 0.61814(17) -0.13440(17)
N8 N 0.3583(4) 0.75087(16) -0.26969(17)
O1 O -0.1537(3) 0.74674(13) 0.30271(14)
H14 H -0.1923 0.7388 0.2419
S1 S -0.76741(11) 0.54274(5) -0.09869(5)
S2 S 0.80844(11) 0.80787(5) -0.32231(5)
Cd1A Cd -0.02135(3) 0.318301(14) 0.207174(14)
Cd1_2 Cd -0.97865(3) 0.681699(14) -0.207174(14)
Cd1_3 Cd 1.02135(3) 0.681699(14) -0.207174(14)
N6A N -0.0812(4) 0.54773(15) -0.33334(16)
S1_2 S 0.23259(11) 0.54274(5) -0.09869(5)
S2_2 S -0.19156(11) 0.80787(5) -0.32231(5)
C13 C 0.3740(5) 0.6679(2) 0.1633(2)
H11 H 0.3720 0.6244 0.2191
H12 H 0.2653 0.6341 0.1095
H13 H 0.3346 0.7331 0.1850
O2 O 0.5983(3) 0.68610(14) 0.12782(14)
H15 H 0.6392 0.6280 0.1163
loop_
_geom_bond_atom_site_label_1
_geom_bond_atom_site_label_2
_geom_bond_site_symmetry_1
_geom_bond_site_symmetry_2
Cd1 N3 1_555 1_555
C1 C2 1_555 1_555
C2 C3 1_555 1_555
C3 C4 1_555 1_555
C4 H1 1_555 1_555
C5 C4 1_555 1_555
C6 C1 1_555 1_555
H2 C6 1_555 1_555
C7 C1 1_555 1_555
H3 C7 1_555 1_555
H4 C7 1_555 1_555
C8 H5 1_555 1_555
C9 H6 1_555 1_555
C10 C3 1_555 1_555
H7 C10 1_555 1_555
H8 C10 1_555 1_555
C11 H9 1_555 1_555
C12 H10 1_555 1_555
C13 H11 1_555 1_555
H12 C13 1_555 1_555
H13 C13 1_555 1_555
C14 N8 1_555 1_555
C15 N7 1_555 1_555
Cl1 C5 1_555 1_555
N1 C7 1_555 1_555
N2 C8 1_555 1_555
N3 C8 1_555 1_555
N4 C10 1_555 1_555
N5 C12 1_555 1_555
N6 C11 1_555 1_555
N7 Cd1 1_555 1_555
N8 Cd1 1_555 1_555
O1 C2 1_555 1_555
H14 O1 1_555 1_555
O2 C13 1_555 1_555
H15 O2 1_555 1_555
S1 C15 1_555 1_555
S2 C14 1_555 1_555
Cd1A N6 1_555 1_555
Cd1_2 S1 1_555 1_555
Cd1_3 S2 1_555 1_555
N6A Cd1 1_555 1_555
S1_2 Cd1 1_555 1_555
S2_2 Cd1 1_555 1_555
C5 C6 1_555 1_555
C9 N1 1_555 1_555
C9 N3 1_555 1_555
C11 N4 1_555 1_555
C12 N6 1_555 1_555
N1 N2 1_555 1_555
N4 N5 1_555 1_555

#END
