
#######################################################################
#
#                 Cambridge Crystallographic Data Centre
#                                CCDC 
#
#######################################################################
#
# If this CIF has been generated from an entry in the Cambridge 
# Structural Database, then it will include bibliographic, chemical, 
# crystal, experimental, refinement or atomic coordinate data resulting 
# from the CCDC's data processing and validation procedures.
#
#######################################################################

data_POCQII
_symmetry_cell_setting           orthorhombic
_symmetry_space_group_name_H-M   'P c c n'
_symmetry_Int_Tables_number      56
_space_group_name_Hall           '-P 2ab 2ac'
loop_
_symmetry_equiv_pos_site_id
_symmetry_equiv_pos_as_xyz
1 x,y,z
2 1/2-x,1/2-y,z
3 -x,1/2+y,1/2-z
4 1/2+x,-y,1/2-z
5 -x,-y,-z
6 1/2+x,1/2+y,-z
7 x,1/2-y,1/2+z
8 1/2-x,y,1/2+z
_cell_length_a                   25.979(2)
_cell_length_b                   8.3510(7)
_cell_length_c                   17.1031(14)
_cell_angle_alpha                90
_cell_angle_beta                 90
_cell_angle_gamma                90
_cell_volume                     3710.53
loop_
_atom_site_label
_atom_site_type_symbol
_atom_site_fract_x
_atom_site_fract_y
_atom_site_fract_z
Cd1 Cd 0.474189(8) 0.81169(3) 1.132811(13)
C1 C 0.25090(12) 0.4948(4) 0.93428(19)
C2 C 0.22399(11) 0.5432(4) 0.86887(17)
C3 C 0.24407(12) 0.5123(4) 0.79534(18)
H1 H 0.2262 0.5443 0.7509
C4 C 0.29037(13) 0.4344(4) 0.78819(19)
C5 C 0.31801(13) 0.3905(4) 0.8536(2)
H2 H 0.3499 0.3413 0.8479
C6 C 0.29862(12) 0.4190(4) 0.9271(2)
C7 C 0.32837(14) 0.3628(4) 0.9983(2)
H3 H 0.3057 0.3005 1.0315
H4 H 0.3562 0.2935 0.9815
C8 C 0.39739(13) 0.5468(5) 1.0505(2)
H5 H 0.4260 0.4982 1.0280
C9 C 0.34968(15) 0.7004(4) 1.1125(2)
H6 H 0.3388 0.7850 1.1438
C10 C 0.17330(12) 0.6290(4) 0.8760(2)
H7 H 0.1684 0.6612 0.9300
H8 H 0.1743 0.7252 0.8443
C11 C 0.08733(12) 0.4947(4) 0.88960(19)
H9 H 0.0807 0.5220 0.9413
C12 C 0.08198(12) 0.4060(4) 0.77626(19)
H10 H 0.0691 0.3551 0.7320
C13 C 0.52627(13) 0.8296(4) 0.9559(2)
C14 C 0.53437(13) 0.4674(5) 1.18448(19)
Cl1 Cl 0.31407(4) 0.39099(15) 0.69593(6)
N1 N 0.34960(10) 0.4954(3) 1.04322(16)
N2 N 0.31762(11) 0.5942(4) 1.08292(18)
N3 N 0.39888(11) 0.6770(3) 1.09429(16)
N4 N 0.05542(10) 0.4140(3) 0.84396(15)
N5 N 0.12983(9) 0.5311(3) 0.85165(14)
N6 N 0.12705(10) 0.4748(3) 0.77734(15)
N7 N 0.49720(12) 0.7870(4) 1.00196(18)
N8 N 0.51100(13) 0.5651(4) 1.1539(2)
O1 O 0.22806(8) 0.5186(4) 1.00562(13)
H11 H 0.2500 0.5436 1.0378
S1 S 0.56861(3) 0.89248(11) 0.89140(5)
S2 S 0.56725(4) 0.32291(12) 1.22516(5)
Cd1E Cd -0.025811(8) 0.31169(3) 0.867189(13)
Cd1D Cd 0.525811(8) 1.18831(3) 0.867189(13)
Cd1B Cd 0.525811(8) 0.31169(3) 1.367189(13)
N4E N 0.55542(10) 0.9140(3) 1.15604(15)
S1D S 0.43139(3) 1.10752(11) 1.10860(5)
S2B S 0.43275(4) 0.82291(12) 1.27484(5)
loop_
_geom_bond_atom_site_label_1
_geom_bond_atom_site_label_2
_geom_bond_site_symmetry_1
_geom_bond_site_symmetry_2
Cd1 N3 1_555 1_555
C1 C2 1_555 1_555
C2 C3 1_555 1_555
C3 H1 1_555 1_555
C4 C3 1_555 1_555
C5 C4 1_555 1_555
H2 C5 1_555 1_555
C6 C1 1_555 1_555
C7 C6 1_555 1_555
H3 C7 1_555 1_555
H4 C7 1_555 1_555
C8 H5 1_555 1_555
C9 H6 1_555 1_555
C10 C2 1_555 1_555
H7 C10 1_555 1_555
H8 C10 1_555 1_555
C11 H9 1_555 1_555
C12 H10 1_555 1_555
C13 N7 1_555 1_555
C14 N8 1_555 1_555
Cl1 C4 1_555 1_555
N1 C7 1_555 1_555
N2 C9 1_555 1_555
N3 C8 1_555 1_555
N4 C11 1_555 1_555
N5 C10 1_555 1_555
N6 C12 1_555 1_555
N7 Cd1 1_555 1_555
N8 Cd1 1_555 1_555
O1 C1 1_555 1_555
H11 O1 1_555 1_555
S1 C13 1_555 1_555
S2 C14 1_555 1_555
Cd1E N4 1_555 1_555
Cd1D S1 1_555 1_555
Cd1B S2 1_555 1_555
N4E Cd1 1_555 1_555
S1D Cd1 1_555 1_555
S2B Cd1 1_555 1_555
C5 C6 1_555 1_555
C8 N1 1_555 1_555
C9 N3 1_555 1_555
C11 N5 1_555 1_555
C12 N4 1_555 1_555
N1 N2 1_555 1_555
N5 N6 1_555 1_555

#END
