
#######################################################################
#
#                 Cambridge Crystallographic Data Centre
#                                CCDC 
#
#######################################################################
#
# If this CIF has been generated from an entry in the Cambridge 
# Structural Database, then it will include bibliographic, chemical, 
# crystal, experimental, refinement or atomic coordinate data resulting 
# from the CCDC's data processing and validation procedures.
#
#######################################################################

data_POCREF
_symmetry_cell_setting           monoclinic
_symmetry_space_group_name_H-M   'C 2/c'
_symmetry_Int_Tables_number      15
_space_group_name_Hall           '-C 2yn'
loop_
_symmetry_equiv_pos_site_id
_symmetry_equiv_pos_as_xyz
1 x,y,z
2 1/2+x,1/2+y,z
3 -x,y,1/2-z
4 1/2-x,1/2+y,1/2-z
5 -x,-y,-z
6 1/2-x,1/2-y,-z
7 x,-y,1/2+z
8 1/2+x,1/2-y,1/2+z
_cell_length_a                   17.1100(7)
_cell_length_b                   26.7290(7)
_cell_length_c                   14.7020(7)
_cell_angle_alpha                90
_cell_angle_beta                 118.4020(8)
_cell_angle_gamma                90
_cell_volume                     5914.39
loop_
_atom_site_label
_atom_site_type_symbol
_atom_site_fract_x
_atom_site_fract_y
_atom_site_fract_z
Cd1 Cd -0.14039(2) 0.207771(13) 0.60463(3)
Cd2 Cd -0.24913(2) 0.081520(14) 0.56673(3)
C1 C -0.3716(4) -0.0682(2) 0.4784(4)
H1 H -0.3728 -0.1029 0.4748
C2 C -0.3032(4) -0.0401(2) 0.5437(4)
H2 H -0.2482 -0.0522 0.5929
C3 C -0.4106(3) 0.01061(17) 0.4504(3)
C4 C -0.4563(3) 0.05929(18) 0.4134(4)
C5 C -0.5474(4) 0.0655(2) 0.3510(4)
H3 H -0.5851 0.0380 0.3282
C6 C -0.5805(4) 0.1133(2) 0.3236(5)
H4 H -0.6412 0.1182 0.2816
C7 C -0.5237(4) 0.1540(2) 0.3585(5)
H5 H -0.5449 0.1865 0.3397
C8 C -0.4351(4) 0.1449(2) 0.4217(4)
H6 H -0.3967 0.1721 0.4470
C9 C -0.5271(3) -0.0530(2) 0.3322(4)
H7 H -0.5514 -0.0275 0.2790
H8 H -0.5687 -0.0583 0.3587
C10 C -0.5148(3) -0.10148(18) 0.2863(4)
C11 C -0.5295(4) -0.1467(2) 0.3230(4)
H9 H -0.5494 -0.1469 0.3719
C12 C -0.5143(4) -0.1914(2) 0.2858(5)
H10 H -0.5239 -0.2217 0.3102
C13 C -0.2025(3) 0.1207(2) 1.4254(3)
C14 C -0.2439(3) 0.22903(18) 1.3656(3)
C15 C -0.1782(3) 0.21623(19) 1.2507(3)
H11 H -0.1916 0.2496 1.2313
C16 C -0.1988(3) 0.19539(18) 1.3227(3)
C17 C -0.1794(3) 0.14502(19) 1.3498(3)
C18 C -0.1403(3) 0.1171(2) 1.3020(4)
H12 H -0.1279 0.0834 1.3188
C19 C -0.1198(3) 0.1376(2) 1.2317(4)
H13 H -0.0940 0.1183 1.2005
C20 C -0.1373(3) 0.1868(2) 1.2076(4)
C21 C -0.0182(3) 0.1785(3) 0.8886(4)
C22 C -0.0940(3) 0.17690(18) 0.9143(3)
C23 C -0.0747(3) 0.19500(19) 1.0117(4)
H14 H -0.0199 0.2098 1.0534
C24 C -0.1359(3) 0.1912(2) 1.0464(4)
C25 C -0.2169(4) 0.1707(2) 0.9865(4)
H15 H -0.2590 0.1698 1.0095
C26 C -0.2366(3) 0.1511(2) 0.8913(4)
H16 H -0.2912 0.1357 0.8514
C27 C -0.1756(3) 0.15417(18) 0.8538(3)
C28 C -0.2004(3) 0.13305(19) 0.7499(3)
N1 N -0.3271(3) 0.00976(16) 0.5267(3)
N2 N -0.4012(3) 0.09888(16) 0.4487(3)
N3 N -0.4404(3) -0.03619(15) 0.4169(3)
O1 O -0.2608(3) 0.10076(16) 0.7126(3)
O2 O -0.1595(2) 0.14620(14) 0.7027(2)
O3 O -0.2032(3) 0.07392(14) 1.4324(3)
O4 O -0.3264(2) 0.23171(14) 1.3165(3)
O5 O -0.2234(2) 0.14853(12) 1.4809(2)
O6 O -0.1972(2) 0.25511(13) 1.4441(3)
O7 O 0.0222(3) 0.1393(2) 0.8958(3)
O8 O 0.0046(3) 0.22003(19) 0.8718(4)
O9 O -0.1124(3) 0.21219(14) 1.1422(3)
O10 O -0.1212(4) 0.0334(3) 0.6654(4)
Cd1E Cd -0.35961(2) 0.292229(13) 1.39537(3)
Cd1_2 Cd -0.14039(2) 0.207771(13) 1.60463(3)
Cd1B Cd 0.14039(2) 0.207771(13) 0.89537(3)
Cd1E_2 Cd -0.35961(2) 0.292229(13) 0.39537(3)
Cd1G Cd -0.64039(2) 0.292229(13) 1.10463(3)
Cd2E Cd -0.25087(2) 0.418480(14) 1.43327(3)
Cd2_2 Cd -0.24913(2) 0.081520(14) 1.56673(3)
Cd2B Cd -0.75087(2) 0.081520(14) -0.06673(3)
Cd2E_2 Cd -0.25087(2) 0.418480(14) 0.43327(3)
C1B C -0.6284(4) -0.0682(2) 0.0216(4)
H1B H -0.6272 -0.1029 0.0252
C2B C -0.6968(4) -0.0401(2) -0.0437(4)
H2B H -0.7518 -0.0522 -0.0929
C3B C -0.5894(3) 0.01061(17) 0.0496(3)
C4B C -0.5437(3) 0.05929(18) 0.0866(4)
C5B C -0.4526(4) 0.0655(2) 0.1490(4)
H3B H -0.4149 0.0380 0.1718
C6B C -0.4195(4) 0.1133(2) 0.1764(5)
H4B H -0.3588 0.1182 0.2184
C7B C -0.4763(4) 0.1540(2) 0.1415(5)
H5B H -0.4551 0.1865 0.1603
C8B C -0.5649(4) 0.1449(2) 0.0783(4)
H6B H -0.6033 0.1721 0.0530
C9B C -0.4729(3) -0.0530(2) 0.1678(4)
H7B H -0.4486 -0.0275 0.2210
H8B H -0.4313 -0.0583 0.1413
C10B C -0.4852(3) -0.10148(18) 0.2137(4)
C11B C -0.4705(4) -0.1467(2) 0.1770(4)
H9B H -0.4506 -0.1469 0.1281
C12B C -0.4857(4) -0.1914(2) 0.2142(5)
H10B H -0.4761 -0.2217 0.1898
C13E C -0.2975(3) 0.3793(2) 0.5746(3)
C14E C -0.2561(3) 0.27097(18) 0.6344(3)
C15E C -0.3218(3) 0.28377(19) 0.7493(3)
H11E H -0.3084 0.2504 0.7687
C16E C -0.3012(3) 0.30461(18) 0.6773(3)
C17E C -0.3206(3) 0.35498(19) 0.6502(3)
C18E C -0.3597(3) 0.3829(2) 0.6980(4)
H12E H -0.3721 0.4166 0.6812
C19E C -0.3802(3) 0.3624(2) 0.7683(4)
H13E H -0.4060 0.3817 0.7995
C20E C -0.3627(3) 0.3132(2) 0.7924(4)
C21E C -0.4818(3) 0.3215(3) 1.1114(4)
C22E C -0.4060(3) 0.32310(18) 1.0857(3)
C23E C -0.4253(3) 0.30500(19) 0.9883(4)
H14E H -0.4801 0.2902 0.9466
C24E C -0.3641(3) 0.3088(2) 0.9536(4)
C25E C -0.2831(4) 0.3293(2) 1.0135(4)
H15E H -0.2410 0.3302 0.9905
C26E C -0.2634(3) 0.3489(2) 1.1087(4)
H16E H -0.2088 0.3643 1.1486
C27E C -0.3244(3) 0.34583(18) 1.1462(3)
C28E C -0.2996(3) 0.36695(19) 1.2501(3)
N1B N -0.6729(3) 0.00976(16) -0.0267(3)
N1E N -0.1729(3) 0.49024(16) 1.4733(3)
N2B N -0.5988(3) 0.09888(16) 0.0513(3)
N2E N -0.0988(3) 0.40112(16) 1.5513(3)
N3B N -0.5596(3) -0.03619(15) 0.0831(3)
O1E O -0.2392(3) 0.39924(16) 1.2874(3)
O2E O -0.3405(2) 0.35380(14) 1.2973(2)
O3E O -0.2968(3) 0.42608(14) 0.5676(3)
O3_2 O -0.2032(3) 0.07392(14) 0.4324(3)
O3E_2 O -0.2968(3) 0.42608(14) 1.5676(3)
O4E O -0.1736(2) 0.26829(14) 0.6835(3)
O5E O -0.2766(2) 0.35147(12) 0.5191(2)
O5_2 O -0.2234(2) 0.14853(12) 0.4809(2)
O5E_2 O -0.2766(2) 0.35147(12) 1.5191(2)
O6E O -0.3028(2) 0.24489(13) 0.5559(3)
O6_2 O -0.1972(2) 0.25511(13) 0.4441(3)
O6E_2 O -0.3028(2) 0.24489(13) 1.5559(3)
O7E O -0.5222(3) 0.3607(2) 1.1042(3)
O8E O -0.5046(3) 0.27997(19) 1.1282(4)
O8B O -0.0046(3) 0.22003(19) 0.6282(4)
O8G O -0.4954(3) 0.27997(19) 1.3718(4)
O9E O -0.3876(3) 0.28781(14) 0.8578(3)
O10E O -0.3788(4) 0.4666(3) 1.3346(4)
O11 O 0.0292(5) 0.0463(3) 0.6230(6)
O12 O 0.0862(15) -0.0354(8) 0.9557(17)
O13 O 0.2791(6) -0.0122(3) 1.1839(7)
loop_
_geom_bond_atom_site_label_1
_geom_bond_atom_site_label_2
_geom_bond_site_symmetry_1
_geom_bond_site_symmetry_2
Cd1 O2 1_555 1_555
Cd2 N1 1_555 1_555
C1 H1 1_555 1_555
C2 C1 1_555 1_555
H2 C2 1_555 1_555
C3 C4 1_555 1_555
C4 C5 1_555 1_555
C5 H3 1_555 1_555
C6 C5 1_555 1_555
H4 C6 1_555 1_555
C7 C6 1_555 1_555
H5 C7 1_555 1_555
C8 C7 1_555 1_555
H6 C8 1_555 1_555
C9 H7 1_555 1_555
H8 C9 1_555 1_555
C10 C9 1_555 1_555
C11 C10 1_555 1_555
H9 C11 1_555 1_555
C12 C11 1_555 1_555
H10 C12 1_555 1_555
C13 C17 1_555 1_555
C14 C16 1_555 1_555
C15 H11 1_555 1_555
C16 C15 1_555 1_555
C17 C16 1_555 1_555
C18 C17 1_555 1_555
H12 C18 1_555 1_555
C19 C18 1_555 1_555
H13 C19 1_555 1_555
C20 C15 1_555 1_555
C21 C22 1_555 1_555
C22 C23 1_555 1_555
C23 H14 1_555 1_555
C24 C23 1_555 1_555
C25 C24 1_555 1_555
H15 C25 1_555 1_555
C26 C25 1_555 1_555
H16 C26 1_555 1_555
C27 C22 1_555 1_555
C28 C27 1_555 1_555
N1 C2 1_555 1_555
N2 Cd2 1_555 1_555
N3 C1 1_555 1_555
O1 Cd2 1_555 1_555
O2 C28 1_555 1_555
O3 C13 1_555 1_555
O4 C14 1_555 1_555
O5 C13 1_555 1_555
O6 C14 1_555 1_555
O7 C21 1_555 1_555
O8 C21 1_555 1_555
O9 C20 1_555 1_555
O10 Cd2 1_555 1_555
Cd1E O4 1_555 1_555
Cd1_2 O5 1_555 1_555
Cd1B O8 1_555 1_555
Cd1E_2 O5E 1_555 1_555
Cd1G O8E 1_555 1_555
Cd2E N1E 1_555 1_555
Cd2_2 O3 1_555 1_555
Cd2B N1B 1_555 1_555
Cd2E_2 O3E 1_555 1_555
C1B H1B 1_555 1_555
C2B C1B 1_555 1_555
H2B C2B 1_555 1_555
C3B C4B 1_555 1_555
C4B C5B 1_555 1_555
C5B H3B 1_555 1_555
C6B C5B 1_555 1_555
H4B C6B 1_555 1_555
C7B C6B 1_555 1_555
H5B C7B 1_555 1_555
C8B C7B 1_555 1_555
H6B C8B 1_555 1_555
C9B H7B 1_555 1_555
H8B C9B 1_555 1_555
C10B C10 1_555 1_555
C11B C10B 1_555 1_555
H9B C11B 1_555 1_555
C12B C12 1_555 1_555
H10B C12B 1_555 1_555
C13E C17E 1_555 1_555
C14E C16E 1_555 1_555
C15E H11E 1_555 1_555
C16E C15E 1_555 1_555
C17E C16E 1_555 1_555
C18E C17E 1_555 1_555
H12E C18E 1_555 1_555
C19E C18E 1_555 1_555
H13E C19E 1_555 1_555
C20E C15E 1_555 1_555
C21E C22E 1_555 1_555
C22E C23E 1_555 1_555
C23E H14E 1_555 1_555
C24E C23E 1_555 1_555
C25E C24E 1_555 1_555
H15E C25E 1_555 1_555
C26E C25E 1_555 1_555
H16E C26E 1_555 1_555
C27E C22E 1_555 1_555
C28E C27E 1_555 1_555
N1B C2B 1_555 1_555
N2B Cd2B 1_555 1_555
N2E Cd2E 1_555 1_555
N3B C1B 1_555 1_555
O1E Cd2E 1_555 1_555
O2E Cd1E 1_555 1_555
O3E C13E 1_555 1_555
O3_2 Cd2 1_555 1_555
O3E_2 Cd2E 1_555 1_555
O4E Cd1 1_555 1_555
O5E Cd2E_2 1_555 1_555
O5_2 Cd1 1_555 1_555
O5E_2 Cd1E 1_555 1_555
O6E Cd1E_2 1_555 1_555
O6_2 Cd1 1_555 1_555
O6E_2 Cd1E 1_555 1_555
O7E C21E 1_555 1_555
O8E C21E 1_555 1_555
O8B Cd1 1_555 1_555
O8G Cd1E 1_555 1_555
O9E C20E 1_555 1_555
O10E Cd2E 1_555 1_555
Cd2 O5_2 1_555 1_555
C3 N1 1_555 1_555
C3 N3 1_555 1_555
C4 N2 1_555 1_555
C8 N2 1_555 1_555
C9 N3 1_555 1_555
C19 C20 1_555 1_555
C24 O9 1_555 1_555
C26 C27 1_555 1_555
C28 O1 1_555 1_555
O5 Cd2_2 1_555 1_555
O6 Cd1_2 1_555 1_555
Cd2E O5E_2 1_555 1_555
C3B N1B 1_555 1_555
C3B N3B 1_555 1_555
C4B N2B 1_555 1_555
C8B N2B 1_555 1_555
C9B C10B 1_555 1_555
C9B N3B 1_555 1_555
C11B C12B 1_555 1_555
C13E O5E 1_555 1_555
C14E O4E 1_555 1_555
C14E O6E 1_555 1_555
C19E C20E 1_555 1_555
C24E O9E 1_555 1_555
C26E C27E 1_555 1_555
C28E O1E 1_555 1_555
C28E O2E 1_555 1_555

#END
