
#######################################################################
#
#                 Cambridge Crystallographic Data Centre
#                                CCDC 
#
#######################################################################
#
# If this CIF has been generated from an entry in the Cambridge 
# Structural Database, then it will include bibliographic, chemical, 
# crystal, experimental, refinement or atomic coordinate data resulting 
# from the CCDC's data processing and validation procedures.
#
#######################################################################

data_POCRAC
_symmetry_cell_setting           triclinic
_symmetry_space_group_name_H-M   'P -1'
_symmetry_Int_Tables_number      2
_space_group_name_Hall           '-P 1'
loop_
_symmetry_equiv_pos_site_id
_symmetry_equiv_pos_as_xyz
1 x,y,z
2 -x,-y,-z
_cell_length_a                   8.5356(7)
_cell_length_b                   9.5342(8)
_cell_length_c                   12.6702(11)
_cell_angle_alpha                69.3770(10)
_cell_angle_beta                 86.2360(10)
_cell_angle_gamma                67.6660(10)
_cell_volume                     889.861
loop_
_atom_site_label
_atom_site_type_symbol
_atom_site_fract_x
_atom_site_fract_y
_atom_site_fract_z
Zn1 Zn -0.47682(4) 1.09898(4) 0.80056(2)
S1 S -0.02417(8) 0.58002(8) 0.83227(6)
O1 O -0.3502(2) 1.1127(2) 0.92902(16)
H1 H -0.2541 1.1152 0.9088
H2 H -0.3366 1.0305 0.9886
C1 C -0.5413(4) 1.1962(3) 0.5528(2)
O2 O -0.4845(3) 0.7338(3) 0.92737(19)
C2 C -0.3362(5) 1.3361(4) 0.4735(3)
H3 H -0.3684 1.3534 0.3998
O3 O 0.2944(2) 0.1376(2) 0.87548(16)
C3 C -0.7311(5) 1.1573(4) 0.4465(3)
H4 H -0.7751 1.1671 0.3778
O4 O -0.3168(3) 0.8642(2) 0.83798(17)
C4 C -0.4079(4) 1.2538(3) 0.5647(2)
O5 O 0.3119(3) 0.3762(3) 0.78880(19)
N1 N -0.3586(3) 1.2254(3) 0.6720(2)
N2 N -0.5982(3) 1.1236(3) 0.6499(2)
C5 C -0.6070(5) 1.2153(4) 0.4484(3)
H5 H -0.5676 1.2662 0.3815
C6 C 0.2320(3) 0.2929(3) 0.8432(2)
C7 C 0.0567(3) 0.3732(3) 0.8709(2)
C8 C -0.2135(3) 0.5818(3) 0.8872(2)
C9 C -0.1704(5) 1.3637(4) 0.6023(3)
H6 H -0.0913 1.4010 0.6170
C10 C -0.2139(4) 0.4287(3) 0.9329(2)
H7 H -0.3062 0.4063 0.9661
C11 C -0.2186(5) 1.3909(4) 0.4933(3)
H8 H -0.1713 1.4465 0.4330
C12 C -0.7904(4) 1.0846(5) 0.5459(3)
H9 H -0.8756 1.0465 0.5454
C13 C -0.3496(3) 0.7378(3) 0.8845(2)
C14 C -0.7200(4) 1.0695(4) 0.6473(3)
H10 H -0.7590 1.0202 0.7150
C15 C -0.0582(4) 0.3082(3) 0.9243(2)
H11 H -0.0364 0.1979 0.9517
C16 C -0.2430(4) 1.2788(4) 0.6899(3)
H12 H -0.2096 1.2585 0.7640
Zn1_2 Zn 0.52318(4) 0.09898(4) 0.80056(2)
O3_2 O -0.7056(2) 1.1376(2) 0.87548(16)
O5_2 O -0.6881(3) 1.3762(3) 0.78880(19)
O6 O -0.6614(3) 0.6677(3) 0.7811(2)
H13 H -0.6150 0.6111 0.8478
H14 H -0.7688 0.7058 0.7828
O7 O 0.0010(6) 0.9279(5) 0.7433(6)
H15 H 0.0261 1.0036 0.6961
H16 H 0.0164 0.9237 0.8102
loop_
_geom_bond_atom_site_label_1
_geom_bond_atom_site_label_2
_geom_bond_site_symmetry_1
_geom_bond_site_symmetry_2
Zn1 O1 1_555 1_555
S1 C7 1_555 1_555
O1 H1 1_555 1_555
H2 O1 1_555 1_555
C1 C4 1_555 1_555
O2 C13 1_555 1_555
C2 H3 1_555 1_555
O3 C6 1_555 1_555
C3 H4 1_555 1_555
O4 Zn1 1_555 1_555
C4 C2 1_555 1_555
O5 C6 1_555 1_555
N1 Zn1 1_555 1_555
N2 Zn1 1_555 1_555
C5 C1 1_555 1_555
H5 C5 1_555 1_555
C6 C7 1_555 1_555
C7 C15 1_555 1_555
C8 S1 1_555 1_555
C9 H6 1_555 1_555
C10 C8 1_555 1_555
H7 C10 1_555 1_555
C11 C2 1_555 1_555
H8 C11 1_555 1_555
C12 C3 1_555 1_555
H9 C12 1_555 1_555
C13 O4 1_555 1_555
C14 N2 1_555 1_555
H10 C14 1_555 1_555
C15 C10 1_555 1_555
H11 C15 1_555 1_555
C16 N1 1_555 1_555
H12 C16 1_555 1_555
O6 H13 1_555 1_555
H14 O6 1_555 1_555
O7 H15 1_555 1_555
H16 O7 1_555 1_555
Zn1_2 O3 1_555 1_555
O3_2 Zn1 1_555 1_555
O5_2 Zn1 1_555 1_555
C1 N2 1_555 1_555
C3 C5 1_555 1_555
C4 N1 1_555 1_555
O5 Zn1_2 1_555 1_555
C8 C13 1_555 1_555
C9 C11 1_555 1_555
C9 C16 1_555 1_555
C12 C14 1_555 1_555

#END
