
#######################################################################
#
#                 Cambridge Crystallographic Data Centre
#                                CCDC 
#
#######################################################################
#
# If this CIF has been generated from an entry in the Cambridge 
# Structural Database, then it will include bibliographic, chemical, 
# crystal, experimental, refinement or atomic coordinate data resulting 
# from the CCDC's data processing and validation procedures.
#
#######################################################################

data_POCSUW
_symmetry_cell_setting           monoclinic
_symmetry_space_group_name_H-M   'P 21/n'
_symmetry_Int_Tables_number      14
_space_group_name_Hall           '-P 2yn'
loop_
_symmetry_equiv_pos_site_id
_symmetry_equiv_pos_as_xyz
1 x,y,z
2 1/2-x,1/2+y,1/2-z
3 -x,-y,-z
4 1/2+x,1/2-y,1/2+z
_cell_length_a                   12.460(3)
_cell_length_b                   15.047(3)
_cell_length_c                   12.597(3)
_cell_angle_alpha                90
_cell_angle_beta                 92.04(3)
_cell_angle_gamma                90
_cell_volume                     2360.26
loop_
_atom_site_label
_atom_site_type_symbol
_atom_site_fract_x
_atom_site_fract_y
_atom_site_fract_z
C1 C 0.3731(5) 0.1025(4) 0.3351(6)
C2 C 0.5769(7) 0.6546(6) 0.3469(7)
H1 H 0.5058 0.6384 0.3325
C3 C 0.3588(6) -0.0981(5) 0.3440(6)
C4 C 0.2418(6) -0.0894(5) 0.1812(7)
H2 H 0.2361 -0.1509 0.1845
C5 C 0.5750(8) 0.3262(4) 0.3436(9)
H3 H 0.5055 0.3442 0.3246
C6 C 0.3025(5) -0.0453(5) 0.2578(6)
C7 C 0.6670(7) 0.3578(5) 0.3002(6)
H4 H 0.6714 0.4004 0.2471
C8 C 0.2537(6) 0.0921(5) 0.1729(6)
H5 H 0.2560 0.1539 0.1712
C9 C 0.3080(5) 0.0486(5) 0.2545(5)
C10 C 0.7076(6) 0.2592(4) 0.4190(6)
H6 H 0.7488 0.2212 0.4621
C11 C 0.7161(6) 0.7213(4) 0.4138(6)
H7 H 0.7595 0.7601 0.4537
C12 C 0.1962(7) 0.0485(6) 0.0938(6)
H8 H 0.1631 0.0799 0.0381
C13 C 0.1887(7) -0.0436(6) 0.0990(7)
H9 H 0.1483 -0.0746 0.0476
C14 C 0.6641(7) 0.6168(5) 0.3038(7)
H10 H 0.6643 0.5711 0.2541
C15 C 0.9100(6) 0.4067(5) 0.3836(6)
H11 H 0.8961 0.4042 0.4589
H12 H 0.9871 0.4071 0.3755
C16 C 0.8612(8) 0.3275(4) 0.3283(9)
H13 H 0.8695 0.3339 0.2524
H14 H 0.9001 0.2746 0.3512
C17 C 0.9094(6) 0.5621(5) 0.3833(7)
H15 H 0.9868 0.5607 0.3773
H16 H 0.8936 0.5652 0.4581
C18 C 0.8637(7) 0.6424(6) 0.3261(8)
H17 H 0.9064 0.6941 0.3462
H18 H 0.8696 0.6338 0.2502
Co1 Co 0.49100(4) 0.17429(3) 0.50797(4)
N1 N 0.6020(5) 0.2640(4) 0.4194(5)
N2 N 0.7484(6) 0.3158(3) 0.3486(6)
N3 N 0.7523(6) 0.6600(4) 0.3485(6)
N4 N 0.6104(5) 0.7200(4) 0.4146(5)
O1 O 0.3322(6) 0.1680(4) 0.3734(6)
O3 O 0.4668(4) 0.0783(3) 0.3605(4)
O4 O 0.3506(5) -0.0755(3) 0.4391(4)
O5 O 0.4141(7) -0.1615(4) 0.3184(6)
O6 O 0.3871(5) 0.0615(3) 0.5870(4)
O7 O 0.8638(5) 0.4849(3) 0.3383(5)
Co1B Co 0.50900(4) 0.82571(3) 0.49203(4)
Co1B_2 Co 0.50900(4) -0.17429(3) 0.49203(4)
N4B N 0.3896(5) 0.2800(4) 0.5854(5)
O5B O 0.5859(7) 0.1615(4) 0.6816(6)
H19 H 0.113(8) 0.215(8) 0.2861(12)
H20 H 0.167(7) 0.248(7) 0.362(8)
O2 O 0.1140(7) 0.2127(7) 0.3537(9)
loop_
_geom_bond_atom_site_label_1
_geom_bond_atom_site_label_2
_geom_bond_site_symmetry_1
_geom_bond_site_symmetry_2
C1 C9 1_555 1_555
C2 H1 1_555 1_555
C3 C6 1_555 1_555
C4 H2 1_555 1_555
C5 H3 1_555 1_555
C6 C4 1_555 1_555
C7 C5 1_555 1_555
H4 C7 1_555 1_555
C8 H5 1_555 1_555
C9 C6 1_555 1_555
C10 H6 1_555 1_555
C11 H7 1_555 1_555
C12 C8 1_555 1_555
H8 C12 1_555 1_555
C13 C4 1_555 1_555
H9 C13 1_555 1_555
C14 C2 1_555 1_555
H10 C14 1_555 1_555
C15 H11 1_555 1_555
H12 C15 1_555 1_555
C16 C15 1_555 1_555
H13 C16 1_555 1_555
H14 C16 1_555 1_555
C17 H15 1_555 1_555
H16 C17 1_555 1_555
C18 C17 1_555 1_555
H17 C18 1_555 1_555
H18 C18 1_555 1_555
Co1 N1 1_555 1_555
H19 O2 1_555 1_555
H20 O2 1_555 1_555
N1 C5 1_555 1_555
N2 C7 1_555 1_555
N3 C11 1_555 1_555
N4 C2 1_555 1_555
O1 C1 1_555 1_555
O3 C1 1_555 1_555
O4 C3 1_555 1_555
O5 C3 1_555 1_555
O6 Co1 1_555 1_555
O7 C15 1_555 1_555
Co1B N4 1_555 1_555
Co1B_2 O5 1_555 1_555
N4B Co1 1_555 1_555
O5B Co1 1_555 1_555
C8 C9 1_555 1_555
C10 N1 1_555 1_555
C10 N2 1_555 1_555
C11 N4 1_555 1_555
C12 C13 1_555 1_555
C14 N3 1_555 1_555
C16 N2 1_555 1_555
C17 O7 1_555 1_555
C18 N3 1_555 1_555
Co1 O3 1_555 1_555

#END
