
#######################################################################
#
#                 Cambridge Crystallographic Data Centre
#                                CCDC 
#
#######################################################################
#
# If this CIF has been generated from an entry in the Cambridge 
# Structural Database, then it will include bibliographic, chemical, 
# crystal, experimental, refinement or atomic coordinate data resulting 
# from the CCDC's data processing and validation procedures.
#
#######################################################################

data_POCSAC
_symmetry_cell_setting           orthorhombic
_symmetry_space_group_name_H-M   'I 2 2 2'
_symmetry_Int_Tables_number      23
_space_group_name_Hall           'I 2 2'
loop_
_symmetry_equiv_pos_site_id
_symmetry_equiv_pos_as_xyz
1 x,y,z
2 -x,-y,z
3 -x,y,-z
4 x,-y,-z
5 1/2+x,1/2+y,1/2+z
6 1/2-x,1/2-y,1/2+z
7 1/2-x,1/2+y,1/2-z
8 1/2+x,1/2-y,1/2-z
_cell_length_a                   9.0750(9)
_cell_length_b                   12.1333(12)
_cell_length_c                   29.037(3)
_cell_angle_alpha                90
_cell_angle_beta                 90
_cell_angle_gamma                90
_cell_volume                     3197.26
loop_
_atom_site_label
_atom_site_type_symbol
_atom_site_fract_x
_atom_site_fract_y
_atom_site_fract_z
Co1 Co 0.0000 0.5000 0.0000
C1 C -0.0485(4) 0.7207(3) 0.05413(10)
H1 H -0.1187 0.7351 0.0316
C2 C -0.0210(4) 0.8010(2) 0.08639(9)
H2 H -0.0727 0.8671 0.0857
C3 C 0.0848(4) 0.7824(2) 0.12016(9)
C4 C 0.1539(4) 0.6825(3) 0.12033(10)
H3 H 0.2234 0.6663 0.1429
C5 C 0.1201(4) 0.6056(2) 0.08692(10)
H4 H 0.1687 0.5381 0.0875
C6 C 0.1254(4) 0.8728(3) 0.15370(11)
H5 H 0.2015 0.9188 0.1402
H6 H 0.0398 0.9187 0.1594
C7 C 0.2676(4) 0.9034(4) 0.22431(14)
H7 H 0.3391 0.9383 0.2042
H8 H 0.3213 0.8625 0.2476
C8 C 0.0631(4) 0.7810(3) 0.22580(10)
H9 H 0.1069 0.7341 0.2491
H10 H -0.0001 0.7355 0.2068
C9 C -0.1498(4) 0.9092(3) 0.22781(9)
O1 O -0.2239(3) 0.8630(2) 0.19885(10)
C10 C 0.0539(3) 0.9497(2) 0.27320(9)
C11 C 0.1061(4) 0.9112(3) 0.32124(10)
N1 N 0.0195(4) 0.62370(19) 0.05329(7)
N2 N 0.1787(4) 0.8273(3) 0.19756(10)
N3 N -0.0262(3) 0.86593(18) 0.24833(7)
N4 N 0.1776(3) 0.9897(3) 0.24699(8)
O2 O 0.2372(4) 0.5000 0.0000
H11 H 0.2673 0.4382 0.0065
O8 O 0.2290(10) 0.9370(9) 0.3344(3)
O9 O 0.0212(12) 0.8489(13) 0.3396(2)
C12 C 0.074(2) 0.8088(15) 0.3849(3)
H12 H 0.0180 0.8433 0.4095
H13 H 0.1770 0.8265 0.3890
C13 C 0.0512(15) 0.6831(13) 0.3858(4)
H14 H -0.0469 0.6659 0.3758
H15 H 0.0654 0.6564 0.4166
H16 H 0.1212 0.6487 0.3656
Co1_2 Co 0.0000 1.5000 0.0000
Co1_3 Co 0.0000 -0.5000 0.0000
C1A C 0.0485(4) 1.2793(3) 0.05413(10)
C1A_2 C 0.0485(4) 0.2793(3) 0.05413(10)
C1_2 C -0.0485(4) -0.2793(3) 0.05413(10)
H1A H 0.1187 1.2649 0.0316
H1A_2 H 0.1187 0.2649 0.0316
H1_2 H -0.1187 -0.2649 0.0316
C2A C 0.0210(4) 1.1990(2) 0.08639(9)
C2A_2 C 0.0210(4) 0.1990(2) 0.08639(9)
C2_2 C -0.0210(4) -0.1990(2) 0.08639(9)
H2A H 0.0727 1.1329 0.0857
H2A_2 H 0.0727 0.1329 0.0857
H2_2 H -0.0727 -0.1329 0.0857
C3A C -0.0848(4) 1.2176(2) 0.12016(9)
C3A_2 C -0.0848(4) 0.2176(2) 0.12016(9)
C3_2 C 0.0848(4) -0.2176(2) 0.12016(9)
C4A C -0.1539(4) 1.3175(3) 0.12033(10)
C4A_2 C -0.1539(4) 0.3175(3) 0.12033(10)
C4_2 C 0.1539(4) -0.3175(3) 0.12033(10)
H3A H -0.2234 1.3337 0.1429
H3A_2 H -0.2234 0.3337 0.1429
H3_2 H 0.2234 -0.3337 0.1429
C5A C -0.1201(4) 1.3944(2) 0.08692(10)
C5A_2 C -0.1201(4) 0.3944(2) 0.08692(10)
C5_2 C 0.1201(4) -0.3944(2) 0.08692(10)
H4A H -0.1687 1.4619 0.0875
H4A_2 H -0.1687 0.4619 0.0875
H4_2 H 0.1687 -0.4619 0.0875
C6A C -0.1254(4) 1.1272(3) 0.15370(11)
C6A_2 C -0.1254(4) 0.1272(3) 0.15370(11)
C6_2 C 0.1254(4) -0.1272(3) 0.15370(11)
H5A H -0.2015 1.0812 0.1402
H5A_2 H -0.2015 0.0812 0.1402
H5_2 H 0.2015 -0.0812 0.1402
H6A H -0.0398 1.0813 0.1594
H6A_2 H -0.0398 0.0813 0.1594
H6_2 H 0.0398 -0.0813 0.1594
C7A C -0.2676(4) 1.0966(4) 0.22431(14)
C7A_2 C -0.2676(4) 0.0966(4) 0.22431(14)
C7_2 C 0.2676(4) -0.0966(4) 0.22431(14)
H7A H -0.3391 1.0617 0.2042
H7A_2 H -0.3391 0.0617 0.2042
H7_2 H 0.3391 -0.0617 0.2042
H8A H -0.3213 1.1375 0.2476
H8A_2 H -0.3213 0.1375 0.2476
H8_2 H 0.3213 -0.1375 0.2476
C8A C -0.0631(4) 1.2190(3) 0.22580(10)
C8A_2 C -0.0631(4) 0.2190(3) 0.22580(10)
C8_2 C 0.0631(4) -0.2190(3) 0.22580(10)
H9A H -0.1069 1.2659 0.2491
H9A_2 H -0.1069 0.2659 0.2491
H9_2 H 0.1069 -0.2659 0.2491
H10A H 0.0001 1.2645 0.2068
H10A_2 H 0.0001 0.2645 0.2068
H10_2 H -0.0001 -0.2645 0.2068
C9A C 0.1498(4) 1.0908(3) 0.22781(9)
C9A_2 C 0.1498(4) 0.0908(3) 0.22781(9)
C9_2 C -0.1498(4) -0.0908(3) 0.22781(9)
O1A O 0.2239(3) 1.1370(2) 0.19885(10)
O1A_2 O 0.2239(3) 0.1370(2) 0.19885(10)
O1_2 O -0.2239(3) -0.1370(2) 0.19885(10)
C10A C -0.0539(3) 1.0503(2) 0.27320(9)
C10A_2 C -0.0539(3) 0.0503(2) 0.27320(9)
C10_2 C 0.0539(3) -0.0503(2) 0.27320(9)
C11A C -0.1061(4) 1.0888(3) 0.32124(10)
C11A_2 C -0.1061(4) 0.0888(3) 0.32124(10)
C11_2 C 0.1061(4) -0.0888(3) 0.32124(10)
N1A N -0.0195(4) 1.37630(19) 0.05329(7)
N1A_2 N -0.0195(4) 0.37630(19) 0.05329(7)
N1_2 N 0.0195(4) -0.37630(19) 0.05329(7)
N1B N -0.0195(4) 0.62370(19) -0.05329(7)
N1C N 0.0195(4) 0.37630(19) -0.05329(7)
N2A N -0.1787(4) 1.1727(3) 0.19756(10)
N2A_2 N -0.1787(4) 0.1727(3) 0.19756(10)
N2_2 N 0.1787(4) -0.1727(3) 0.19756(10)
N3A N 0.0262(3) 1.13407(18) 0.24833(7)
N3A_2 N 0.0262(3) 0.13407(18) 0.24833(7)
N3_2 N -0.0262(3) -0.13407(18) 0.24833(7)
N4A N -0.1776(3) 1.0103(3) 0.24699(8)
N4A_2 N -0.1776(3) 0.0103(3) 0.24699(8)
N4_2 N 0.1776(3) -0.0103(3) 0.24699(8)
O2A O -0.2372(4) 0.5000 0.0000
H11C H 0.2673 0.5618 -0.0065
H11A H -0.2673 0.5618 0.0065
H11B H -0.2673 0.4382 -0.0065
O8A O -0.2290(10) 1.0630(9) 0.3344(3)
O8A_2 O -0.2290(10) 0.0630(9) 0.3344(3)
O8_2 O 0.2290(10) -0.0630(9) 0.3344(3)
O9A O -0.0212(12) 1.1511(13) 0.3396(2)
O9A_2 O -0.0212(12) 0.1511(13) 0.3396(2)
O9_2 O 0.0212(12) -0.1511(13) 0.3396(2)
C12A C -0.074(2) 1.1912(15) 0.3849(3)
C12A_2 C -0.074(2) 0.1912(15) 0.3849(3)
C12_2 C 0.074(2) -0.1912(15) 0.3849(3)
H12A H -0.0180 1.1567 0.4095
H12A_2 H -0.0180 0.1567 0.4095
H12_2 H 0.0180 -0.1567 0.4095
H13A H -0.1770 1.1735 0.3890
H13A_2 H -0.1770 0.1735 0.3890
H13_2 H 0.1770 -0.1735 0.3890
C13A C -0.0512(15) 1.3169(13) 0.3858(4)
C13A_2 C -0.0512(15) 0.3169(13) 0.3858(4)
C13_2 C 0.0512(15) -0.3169(13) 0.3858(4)
H14A H 0.0469 1.3341 0.3758
H14A_2 H 0.0469 0.3341 0.3758
H14_2 H -0.0469 -0.3341 0.3758
H15A H -0.0654 1.3436 0.4166
H15A_2 H -0.0654 0.3436 0.4166
H15_2 H 0.0654 -0.3436 0.4166
H16A H -0.1212 1.3513 0.3656
H16A_2 H -0.1212 0.3513 0.3656
H16_2 H 0.1212 -0.3513 0.3656
N5 N 1.0000 0.7690(7) 0.5000
O3 O 0.8761(5) 0.7472(8) 0.4963(2)
O4 O 1.0000 0.8709(8) 0.5000
O3B O 1.1239(5) 0.7472(8) 0.5037(2)
O5 O 0.5000 0.0000 0.2945(4)
O6 O 0.0000 0.0000 0.0000
O7 O 0.720(3) 0.016(3) 0.0339(10)
O12 O 0.0000 0.609(4) 0.5000
O10? O 0.170(2) 0.9695(9) 0.3488(4)
O11? O 0.0422(14) 0.8163(5) 0.3352(3)
C14? C 0.0860(11) 0.7704(7) 0.3802(3)
H17? H 0.0560 0.8196 0.4048
H18? H 0.1922 0.7616 0.3816
C15? C 0.0104(18) 0.6585(9) 0.3857(6)
H19? H -0.0944 0.6688 0.3868
H20? H 0.0431 0.6242 0.4136
H21? H 0.0350 0.6124 0.3599
loop_
_geom_bond_atom_site_label_1
_geom_bond_atom_site_label_2
_geom_bond_site_symmetry_1
_geom_bond_site_symmetry_2
Co1 N1 1_555 1_555
C1 H1 1_555 1_555
C2 C1 1_555 1_555
H2 C2 1_555 1_555
C3 C2 1_555 1_555
C4 C3 1_555 1_555
H3 C4 1_555 1_555
C5 C4 1_555 1_555
H4 C5 1_555 1_555
C6 C3 1_555 1_555
H5 C6 1_555 1_555
H6 C6 1_555 1_555
C7 H7 1_555 1_555
H8 C7 1_555 1_555
C8 H9 1_555 1_555
H10 C8 1_555 1_555
C9 O1 1_555 1_555
C10 C11 1_555 1_555
C11 O8 1_555 1_555
N1 C1 1_555 1_555
N2 C6 1_555 1_555
N3 C8 1_555 1_555
N4 C7 1_555 1_555
N5 O3 1_555 1_555
O2 Co1 1_555 1_555
H11 O2 1_555 1_555
O4 N5 1_555 1_555
O9 C11 1_555 1_555
C12 O9 1_555 1_555
H12 C12 1_555 1_555
H13 C12 1_555 1_555
C13 C12 1_555 1_555
H14 C13 1_555 1_555
H15 C13 1_555 1_555
H16 C13 1_555 1_555
Co1_2 N1A 1_555 1_555
Co1_3 N1_2 1_555 1_555
C1A H1A 1_555 1_555
C1A_2 H1A_2 1_555 1_555
C1_2 H1_2 1_555 1_555
C2A C1A 1_555 1_555
C2A_2 C1A_2 1_555 1_555
C2_2 C1_2 1_555 1_555
H2A C2A 1_555 1_555
H2A_2 C2A_2 1_555 1_555
H2_2 C2_2 1_555 1_555
C3A C2A 1_555 1_555
C3A_2 C2A_2 1_555 1_555
C3_2 C2_2 1_555 1_555
C4A C3A 1_555 1_555
C4A_2 C3A_2 1_555 1_555
C4_2 C3_2 1_555 1_555
H3A C4A 1_555 1_555
H3A_2 C4A_2 1_555 1_555
H3_2 C4_2 1_555 1_555
C5A C4A 1_555 1_555
C5A_2 C4A_2 1_555 1_555
C5_2 C4_2 1_555 1_555
H4A C5A 1_555 1_555
H4A_2 C5A_2 1_555 1_555
H4_2 C5_2 1_555 1_555
C6A C3A 1_555 1_555
C6A_2 C3A_2 1_555 1_555
C6_2 C3_2 1_555 1_555
H5A C6A 1_555 1_555
H5A_2 C6A_2 1_555 1_555
H5_2 C6_2 1_555 1_555
H6A C6A 1_555 1_555
H6A_2 C6A_2 1_555 1_555
H6_2 C6_2 1_555 1_555
C7A H7A 1_555 1_555
C7A_2 H7A_2 1_555 1_555
C7_2 H7_2 1_555 1_555
H8A C7A 1_555 1_555
H8A_2 C7A_2 1_555 1_555
H8_2 C7_2 1_555 1_555
C8A H9A 1_555 1_555
C8A_2 H9A_2 1_555 1_555
C8_2 H9_2 1_555 1_555
H10A C8A 1_555 1_555
H10A_2 C8A_2 1_555 1_555
H10_2 C8_2 1_555 1_555
C9A N4 1_555 1_555
C9A_2 O1A_2 1_555 1_555
C9_2 O1_2 1_555 1_555
O1A C9A 1_555 1_555
C10A C10 1_555 1_555
C10A_2 C10_2 1_555 1_555
C10_2 C11_2 1_555 1_555
C11A C10A 1_555 1_555
C11A_2 C10A_2 1_555 1_555
C11_2 O8_2 1_555 1_555
N1A C1A 1_555 1_555
N1A_2 Co1 1_555 1_555
N1_2 C1_2 1_555 1_555
N1B Co1 1_555 1_555
N1C Co1 1_555 1_555
N2A C6A 1_555 1_555
N2A_2 C6A_2 1_555 1_555
N2_2 C6_2 1_555 1_555
N3A C8A 1_555 1_555
N3A_2 C8A_2 1_555 1_555
N3_2 C8_2 1_555 1_555
N4A C9 1_555 1_555
N4A_2 C7A_2 1_555 1_555
N4_2 C7_2 1_555 1_555
O2A Co1 1_555 1_555
H11C O2 1_555 1_555
H11A O2A 1_555 1_555
H11B O2A 1_555 1_555
O3B N5 1_555 1_555
O8A C11A 1_555 1_555
O8A_2 C11A_2 1_555 1_555
O9A C11A 1_555 1_555
O9A_2 C11A_2 1_555 1_555
O9_2 C11_2 1_555 1_555
C12A O9A 1_555 1_555
C12A_2 O9A_2 1_555 1_555
C12_2 O9_2 1_555 1_555
H12A C12A 1_555 1_555
H12A_2 C12A_2 1_555 1_555
H12_2 C12_2 1_555 1_555
H13A C12A 1_555 1_555
H13A_2 C12A_2 1_555 1_555
H13_2 C12_2 1_555 1_555
C13A C12A 1_555 1_555
C13A_2 C12A_2 1_555 1_555
C13_2 C12_2 1_555 1_555
H14A C13A 1_555 1_555
H14A_2 C13A_2 1_555 1_555
H14_2 C13_2 1_555 1_555
H15A C13A 1_555 1_555
H15A_2 C13A_2 1_555 1_555
H15_2 C13_2 1_555 1_555
H16A C13A 1_555 1_555
H16A_2 C13A_2 1_555 1_555
H16_2 C13_2 1_555 1_555
C5 N1 1_555 1_555
C7 N2 1_555 1_555
C8 N2 1_555 1_555
C9 N3 1_555 1_555
C10 N3 1_555 1_555
C10 N4 1_555 1_555
C1A_2 N1A_2 1_555 1_555
C5A N1A 1_555 1_555
C5A_2 N1A_2 1_555 1_555
C5_2 N1_2 1_555 1_555
C7A N2A 1_555 1_555
C7A N4A 1_555 1_555
C7A_2 N2A_2 1_555 1_555
C7_2 N2_2 1_555 1_555
C8A N2A 1_555 1_555
C8A_2 N2A_2 1_555 1_555
C8_2 N2_2 1_555 1_555
C9A N3A 1_555 1_555
C9A_2 N3A_2 1_555 1_555
C9A_2 N4_2 1_555 1_555
C9_2 N3_2 1_555 1_555
C9_2 N4A_2 1_555 1_555
C10A N3A 1_555 1_555
C10A N4A 1_555 1_555
C10A_2 N3A_2 1_555 1_555
C10A_2 N4A_2 1_555 1_555
C10_2 N3_2 1_555 1_555
C10_2 N4_2 1_555 1_555

#END
