
#######################################################################
#
#                 Cambridge Crystallographic Data Centre
#                                CCDC 
#
#######################################################################
#
# If this CIF has been generated from an entry in the Cambridge 
# Structural Database, then it will include bibliographic, chemical, 
# crystal, experimental, refinement or atomic coordinate data resulting 
# from the CCDC's data processing and validation procedures.
#
#######################################################################

data_POCTEH
_symmetry_cell_setting           monoclinic
_symmetry_space_group_name_H-M   'C 2/c'
_symmetry_Int_Tables_number      15
_space_group_name_Hall           '-C 2yn'
loop_
_symmetry_equiv_pos_site_id
_symmetry_equiv_pos_as_xyz
1 x,y,z
2 1/2+x,1/2+y,z
3 -x,y,1/2-z
4 1/2-x,1/2+y,1/2-z
5 -x,-y,-z
6 1/2-x,1/2-y,-z
7 x,-y,1/2+z
8 1/2+x,1/2-y,1/2+z
_cell_length_a                   17.935(3)
_cell_length_b                   11.1424(17)
_cell_length_c                   21.448(3)
_cell_angle_alpha                90
_cell_angle_beta                 99.335(3)
_cell_angle_gamma                90
_cell_volume                     4229.38
loop_
_atom_site_label
_atom_site_type_symbol
_atom_site_fract_x
_atom_site_fract_y
_atom_site_fract_z
C1 C 0.7077(3) 0.5848(5) 0.7273(2)
H1 H 0.7414 0.5468 0.7050
C2 C 0.6092(4) 0.6623(9) 0.7526(3)
H2 H 0.5601 0.6906 0.7505
C3 C 0.6629(6) 0.6671(8) 0.8035(3)
H3 H 0.6577 0.6970 0.8430
C4 C 0.7983(4) 0.5987(8) 0.8287(3)
H4 H 0.8022 0.6495 0.8658
H5 H 0.8394 0.6192 0.8063
C5 C 0.8053(4) 0.4693(9) 0.8488(4)
H6 H 0.8000 0.4173 0.8121
H7 H 0.8543 0.4548 0.8743
C6 C 0.7408(3) 0.3271(7) 0.8970(4)
H8 H 0.7878 0.2974 0.9208
H9 H 0.7299 0.2820 0.8579
C7 C 0.6787(3) 0.3109(6) 0.9342(3)
H10 H 0.6747 0.2266 0.9444
H11 H 0.6907 0.3549 0.9736
C8 C 0.5679(2) 0.4482(4) 0.9150(2)
H12 H 0.5838 0.4985 0.9492
C9 C 0.5033(3) 0.3691(5) 0.8335(2)
H13 H 0.4650 0.3542 0.7997
C10 C 0.5655(3) 0.3024(5) 0.8488(2)
H14 H 0.5782 0.2342 0.8278
C11 C 0.7069(2) 0.4549(4) 0.5696(2)
C12 C 0.7292(2) 0.3487(4) 0.53287(17)
C13 C 0.6762(2) 0.2649(4) 0.50806(19)
H15 H 0.6261 0.2745 0.5133
C14 C 0.8035(2) 0.3322(4) 0.5242(2)
H16 H 0.8400 0.3880 0.5407
C15 C 0.5217(2) 0.7919(4) 0.5816(2)
C16 C 0.5094(2) 0.8998(4) 0.5393(2)
C17 C 0.4949(2) 1.0116(4) 0.5631(2)
H17 H 0.4918 1.0200 0.6058
C18 C 0.5149(2) 0.8899(4) 0.4759(2)
H18 H 0.5253 0.8156 0.4594
N1 N 0.6373(2) 0.6095(4) 0.70420(17)
N2 N 0.7246(3) 0.6214(5) 0.7870(2)
N3 N 0.6063(2) 0.3525(4) 0.90020(16)
N4 N 0.5046(2) 0.4623(3) 0.87491(16)
O1 O 0.63725(17) 0.4654(3) 0.57014(16)
O2 O 0.75546(19) 0.5261(3) 0.59454(18)
O3 O 0.55501(17) 0.7038(3) 0.56050(14)
O4 O 0.5006(2) 0.7921(3) 0.63389(18)
O5 O 0.7477(3) 0.4468(5) 0.8840(3)
Zn1 Zn 0.58229(3) 0.57248(4) 0.61813(2)
C1B C 0.2923(3) 0.5848(5) 0.7727(2)
H1B H 0.2586 0.5468 0.7950
C2B C 0.3908(4) 0.6623(9) 0.7474(3)
H2B H 0.4399 0.6906 0.7495
C3B C 0.3371(6) 0.6671(8) 0.6965(3)
H3B H 0.3423 0.6970 0.6570
C4B C 0.2017(4) 0.5987(8) 0.6713(3)
H4B H 0.1978 0.6495 0.6342
H5B H 0.1606 0.6192 0.6937
C5B C 0.1947(4) 0.4693(9) 0.6512(4)
H6B H 0.2000 0.4173 0.6879
H7B H 0.1457 0.4548 0.6257
C6B C 0.2592(3) 0.3271(7) 0.6030(4)
H8B H 0.2122 0.2974 0.5792
H9B H 0.2701 0.2820 0.6421
C7B C 0.3213(3) 0.3109(6) 0.5658(3)
H10B H 0.3253 0.2266 0.5556
H11B H 0.3093 0.3549 0.5264
C8B C 0.4321(2) 0.4482(4) 0.5850(2)
H12B H 0.4162 0.4985 0.5508
C9B C 0.4967(3) 0.3691(5) 0.6665(2)
H13B H 0.5350 0.3542 0.7003
C10B C 0.4345(3) 0.3024(5) 0.6512(2)
H14B H 0.4218 0.2342 0.6722
C11E C 0.7931(2) 0.0451(4) 0.4304(2)
C12E C 0.7708(2) 0.1513(4) 0.46713(17)
C13E C 0.8238(2) 0.2351(4) 0.49194(19)
H15E H 0.8739 0.2255 0.4867
C14E C 0.6965(2) 0.1678(4) 0.4758(2)
H16E H 0.6600 0.1120 0.4593
C15D C 0.4783(2) 1.2081(4) 0.4184(2)
C16D C 0.4906(2) 1.1002(4) 0.4607(2)
C17D C 0.5051(2) 0.9884(4) 0.4369(2)
H17D H 0.5082 0.9800 0.3942
C18D C 0.4851(2) 1.1101(4) 0.5241(2)
H18D H 0.4747 1.1844 0.5406
N1B N 0.3627(2) 0.6095(4) 0.79580(17)
N2B N 0.2754(3) 0.6214(5) 0.7130(2)
N3B N 0.3937(2) 0.3525(4) 0.59980(16)
N4B N 0.4954(2) 0.4623(3) 0.62509(16)
O1E O 0.86275(17) 0.0346(3) 0.42986(16)
O1B O 0.36275(17) 0.4654(3) 0.92986(16)
O2E O 0.74454(19) -0.0261(3) 0.40546(18)
O3D O 0.44499(17) 1.2962(3) 0.43950(14)
O3B O 0.44499(17) 0.7038(3) 0.93950(14)
O4D O 0.4994(2) 1.2079(3) 0.36611(18)
O5B O 0.2523(3) 0.4468(5) 0.6160(3)
Zn1B Zn 0.41771(3) 0.57248(4) 0.88187(2)
Zn1E Zn 0.91771(3) -0.07248(4) 0.38187(2)
Zn1D Zn 0.41771(3) 1.42752(4) 0.38187(2)
O7 O 0.0000 0.5710(12) 0.2500
O8 O 0.1128(5) 0.5394(10) 0.3267(4)
O6? O 0.1269(4) 0.4438(9) 0.2972(4)
loop_
_geom_bond_atom_site_label_1
_geom_bond_atom_site_label_2
_geom_bond_site_symmetry_1
_geom_bond_site_symmetry_2
C1 H1 1_555 1_555
C2 H2 1_555 1_555
C3 C2 1_555 1_555
H3 C3 1_555 1_555
C4 H4 1_555 1_555
H5 C4 1_555 1_555
C5 C4 1_555 1_555
H6 C5 1_555 1_555
H7 C5 1_555 1_555
C6 H8 1_555 1_555
H9 C6 1_555 1_555
C7 C6 1_555 1_555
H10 C7 1_555 1_555
H11 C7 1_555 1_555
C8 H12 1_555 1_555
C9 H13 1_555 1_555
C10 C9 1_555 1_555
H14 C10 1_555 1_555
C11 C12 1_555 1_555
C12 C13 1_555 1_555
C13 H15 1_555 1_555
C14 C12 1_555 1_555
H16 C14 1_555 1_555
C15 C16 1_555 1_555
C16 C17 1_555 1_555
C17 H17 1_555 1_555
C18 C16 1_555 1_555
H18 C18 1_555 1_555
N1 C1 1_555 1_555
N2 C1 1_555 1_555
N3 C7 1_555 1_555
N4 C8 1_555 1_555
O1 C11 1_555 1_555
O2 C11 1_555 1_555
O3 C15 1_555 1_555
O4 C15 1_555 1_555
O5 C5 1_555 1_555
Zn1 N1 1_555 1_555
C1B H1B 1_555 1_555
C2B H2B 1_555 1_555
C3B C2B 1_555 1_555
H3B C3B 1_555 1_555
C4B H4B 1_555 1_555
H5B C4B 1_555 1_555
C5B C4B 1_555 1_555
H6B C5B 1_555 1_555
H7B C5B 1_555 1_555
C6B H8B 1_555 1_555
H9B C6B 1_555 1_555
C7B C6B 1_555 1_555
H10B C7B 1_555 1_555
H11B C7B 1_555 1_555
C8B H12B 1_555 1_555
C9B H13B 1_555 1_555
C10B C9B 1_555 1_555
H14B C10B 1_555 1_555
C11E C12E 1_555 1_555
C12E C13E 1_555 1_555
C13E C14 1_555 1_555
H15E C13E 1_555 1_555
C14E C13 1_555 1_555
H16E C14E 1_555 1_555
C15D C16D 1_555 1_555
C16D C17D 1_555 1_555
C17D C18 1_555 1_555
H17D C17D 1_555 1_555
C18D C17 1_555 1_555
H18D C18D 1_555 1_555
N1B C1B 1_555 1_555
N2B C1B 1_555 1_555
N3B C7B 1_555 1_555
N4B Zn1 1_555 1_555
O1E C11E 1_555 1_555
O1B Zn1B 1_555 1_555
O2E C11E 1_555 1_555
O3D C15D 1_555 1_555
O3B Zn1B 1_555 1_555
O4D C15D 1_555 1_555
O5B C5B 1_555 1_555
Zn1B N4 1_555 1_555
Zn1E O1E 1_555 1_555
Zn1D O3D 1_555 1_555
C2 N1 1_555 1_555
C3 N2 1_555 1_555
C4 N2 1_555 1_555
C6 O5 1_555 1_555
C8 N3 1_555 1_555
C9 N4 1_555 1_555
C10 N3 1_555 1_555
O1 Zn1 1_555 1_555
O3 Zn1 1_555 1_555
C2B N1B 1_555 1_555
C3B N2B 1_555 1_555
C4B N2B 1_555 1_555
C6B O5B 1_555 1_555
C8B N3B 1_555 1_555
C8B N4B 1_555 1_555
C9B N4B 1_555 1_555
C10B N3B 1_555 1_555
C12E C14E 1_555 1_555
C16D C18D 1_555 1_555
N1B Zn1B 1_555 1_555

#END
