
#######################################################################
#
#                 Cambridge Crystallographic Data Centre
#                                CCDC 
#
#######################################################################
#
# If this CIF has been generated from an entry in the Cambridge 
# Structural Database, then it will include bibliographic, chemical, 
# crystal, experimental, refinement or atomic coordinate data resulting 
# from the CCDC's data processing and validation procedures.
#
#######################################################################

data_POCTOR
_symmetry_cell_setting           monoclinic
_symmetry_space_group_name_H-M   'P 21/c'
_symmetry_Int_Tables_number      14
_space_group_name_Hall           '-P 2ybc'
loop_
_symmetry_equiv_pos_site_id
_symmetry_equiv_pos_as_xyz
1 x,y,z
2 -x,1/2+y,1/2-z
3 -x,-y,-z
4 x,1/2-y,1/2+z
_cell_length_a                   18.281(4)
_cell_length_b                   13.951(3)
_cell_length_c                   13.260(3)
_cell_angle_alpha                90
_cell_angle_beta                 102.23(3)
_cell_angle_gamma                90
_cell_volume                     3305.06
loop_
_atom_site_label
_atom_site_type_symbol
_atom_site_fract_x
_atom_site_fract_y
_atom_site_fract_z
C1 C 0.2096(4) -0.0636(4) 0.1880(4)
C2 C 0.3956(5) 0.8220(6) 0.3706(5)
H1 H 0.3519 0.8565 0.3690
C3 C 0.4001(5) 0.4625(5) 0.1096(4)
H2 H 0.4397 0.4816 0.0754
H3 H 0.3762 0.4058 0.0750
C4 C 0.3453(5) 0.5393(5) 0.1014(5)
H4 H 0.3248 0.5533 0.0294
H5 H 0.3046 0.5196 0.1332
C5 C -0.0159(4) 0.2575(4) 0.6863(5)
H6 H -0.0395 0.2168 0.7250
C6 C 0.0886(6) -0.0202(5) 0.5794(5)
H7 H 0.0694 0.0023 0.5130
C7 C 0.0870(6) 0.0295(6) 0.6671(5)
H8 H 0.0673 0.0902 0.6727
C8 C 0.4926(4) 0.4816(5) 0.2800(5)
H9 H 0.5251 0.5261 0.2613
C9 C 0.3315(5) 0.6991(5) 0.1485(5)
H10 H 0.2978 0.6878 0.1948
H11 H 0.3019 0.7078 0.0792
C10 C 0.2961(3) 0.0884(4) 0.2872(4)
C11 C 0.3778(4) 0.7857(5) 0.1813(5)
H12 H 0.4133 0.7935 0.1370
H13 H 0.3455 0.8417 0.1726
C12 C 0.1650(5) 0.0889(5) 0.8825(5)
H14 H 0.1840 0.0939 0.9564
H15 H 0.2064 0.0979 0.8483
C13 C 0.4948(4) 0.4449(5) 0.3733(5)
H16 H 0.5301 0.4615 0.4322
C14 C 0.4495(5) 0.8026(5) 0.4544(6)
H17 H 0.4486 0.8206 0.5216
C15 C 0.1305(6) -0.0078(5) 0.8565(5)
H18 H 0.1621 -0.0563 0.8962
H19 H 0.0821 -0.0100 0.8756
C16 C 0.4842(4) 0.7409(4) 0.3233(4)
H20 H 0.5119 0.7090 0.2824
C17 C 0.4018(4) 0.3794(4) 0.2743(5)
H21 H 0.3599 0.3418 0.2490
C18 C 0.0150(5) 0.3298(6) 0.5598(6)
H22 H 0.0170 0.3482 0.4930
C19 C 0.3328(4) 0.1311(4) 0.1189(4)
C20 C 0.0740(5) 0.3206(5) 0.8360(5)
H23 H 0.0364 0.3059 0.8755
H24 H 0.0910 0.3858 0.8523
C21 C 0.1658(4) -0.1445(4) 0.1335(4)
C22 C 0.2541(3) -0.0084(4) 0.1378(4)
H25 H 0.2561 -0.0238 0.0702
C23 C 0.2081(4) -0.0388(4) 0.2902(4)
C24 C 0.2951(3) 0.0674(4) 0.1834(4)
C25 C 0.1620(4) -0.0936(5) 0.3532(4)
C26 C 0.1392(4) -0.1085(5) 0.7039(5)
H26 H 0.1621 -0.1604 0.7418
C27 C 0.2513(3) 0.0347(4) 0.3364(4)
H27 H 0.2504 0.0494 0.4046
C28 C 0.1394(5) 0.2527(5) 0.8672(6)
H28 H 0.1765 0.2645 0.8260
H29 H 0.1628 0.2616 0.9393
C29 C 0.0613(5) 0.3623(6) 0.6470(5)
H30 H 0.0989 0.4079 0.6519
C30 C 0.3516(4) 0.1575(4) 0.3465(4)
Co1 Co 0.12851(5) -0.20883(6) 0.49822(6)
Co2 Co 0.40395(5) 0.30270(6) 0.48119(6)
N1 N 0.1207(4) -0.0296(4) 0.7449(4)
N2 N 0.1213(3) -0.1057(4) 0.6014(4)
N3 N 0.0406(3) 0.3137(4) 0.7259(4)
N4 N 0.4390(3) 0.3801(4) 0.3718(3)
N5 N 0.4323(3) 0.4395(4) 0.2181(4)
N6 N 0.4181(3) 0.7808(4) 0.2875(4)
N7 N 0.5063(3) 0.7518(4) 0.4248(4)
N8 N -0.0350(3) 0.2656(4) 0.5851(4)
O1 O 0.3264(3) 0.2178(3) 0.4034(3)
O2 O 0.3340(3) 0.2183(3) 0.1311(3)
O3 O 0.3609(3) 0.0904(3) 0.0491(3)
O4 O 0.1018(3) -0.0600(3) 0.3647(3)
O5 O 0.1918(3) -0.1678(3) 0.3992(3)
O6 O 0.1089(3) -0.1733(3) 0.1613(3)
O7 O 0.1900(3) -0.1806(3) 0.0590(3)
O9 O 0.1108(3) 0.1589(3) 0.8502(3)
O10 O 0.3799(3) 0.6218(3) 0.1511(3)
O11 O 0.4177(3) 0.1499(3) 0.3438(3)
Co1B Co -0.12851(5) 0.20883(6) 0.50178(6)
Co1C Co 0.12851(5) -0.29117(6) -0.00178(6)
Co2B Co 0.59605(5) 0.69730(6) 0.51881(6)
Co2C Co 0.40395(5) 0.19730(6) -0.01881(6)
N7B N 0.4937(3) 0.2482(4) 0.5752(4)
N8B N 0.0350(3) -0.2656(4) 0.4149(4)
O3C O 0.3609(3) 0.4096(3) 0.5491(3)
O7C O 0.1900(3) -0.3194(3) 0.5590(3)
H31 H 0.342(4) 0.971(7) 0.939(7)
H32 H 0.355(5) 0.916(5) 0.872(5)
O8 O 0.3182(8) 0.9316(11) 0.8944(12)
loop_
_geom_bond_atom_site_label_1
_geom_bond_atom_site_label_2
_geom_bond_site_symmetry_1
_geom_bond_site_symmetry_2
C1 C21 1_555 1_555
C2 H1 1_555 1_555
C3 H2 1_555 1_555
H3 C3 1_555 1_555
C4 C3 1_555 1_555
H4 C4 1_555 1_555
H5 C4 1_555 1_555
C5 H6 1_555 1_555
C6 H7 1_555 1_555
C7 C6 1_555 1_555
H8 C7 1_555 1_555
C8 H9 1_555 1_555
C9 H10 1_555 1_555
H11 C9 1_555 1_555
C10 C24 1_555 1_555
C11 C9 1_555 1_555
H12 C11 1_555 1_555
H13 C11 1_555 1_555
C12 H14 1_555 1_555
H15 C12 1_555 1_555
C13 C8 1_555 1_555
H16 C13 1_555 1_555
C14 C2 1_555 1_555
H17 C14 1_555 1_555
C15 C12 1_555 1_555
H18 C15 1_555 1_555
H19 C15 1_555 1_555
C16 H20 1_555 1_555
C17 H21 1_555 1_555
C18 H22 1_555 1_555
C19 C24 1_555 1_555
C20 H23 1_555 1_555
H24 C20 1_555 1_555
C21 O6 1_555 1_555
C22 C1 1_555 1_555
H25 C22 1_555 1_555
C23 C1 1_555 1_555
C24 C22 1_555 1_555
C25 C23 1_555 1_555
C26 H26 1_555 1_555
C27 C10 1_555 1_555
H27 C27 1_555 1_555
C28 C20 1_555 1_555
H28 C28 1_555 1_555
H29 C28 1_555 1_555
C29 C18 1_555 1_555
H30 C29 1_555 1_555
C30 C10 1_555 1_555
Co1 N2 1_555 1_555
Co2 N4 1_555 1_555
H31 O8 1_555 1_555
H32 O8 1_555 1_555
N1 C7 1_555 1_555
N2 C6 1_555 1_555
N3 C5 1_555 1_555
N4 C13 1_555 1_555
N5 C3 1_555 1_555
N6 C2 1_555 1_555
N7 C14 1_555 1_555
N8 C5 1_555 1_555
O1 C30 1_555 1_555
O2 C19 1_555 1_555
O3 C19 1_555 1_555
O4 C25 1_555 1_555
O5 C25 1_555 1_555
O7 C21 1_555 1_555
O9 C12 1_555 1_555
O10 C4 1_555 1_555
O11 C30 1_555 1_555
Co1B N8 1_555 1_555
Co1C O7 1_555 1_555
Co2B N7 1_555 1_555
Co2C O3 1_555 1_555
N7B Co2 1_555 1_555
N8B Co1 1_555 1_555
O3C Co2 1_555 1_555
O7C Co1 1_555 1_555
C8 N5 1_555 1_555
C9 O10 1_555 1_555
C11 N6 1_555 1_555
C15 N1 1_555 1_555
C16 N6 1_555 1_555
C16 N7 1_555 1_555
C17 N4 1_555 1_555
C17 N5 1_555 1_555
C18 N8 1_555 1_555
C20 N3 1_555 1_555
C23 C27 1_555 1_555
C26 N1 1_555 1_555
C26 N2 1_555 1_555
C28 O9 1_555 1_555
C29 N3 1_555 1_555
Co1 O5 1_555 1_555
Co2 O1 1_555 1_555

#END
