
#######################################################################
#
#                 Cambridge Crystallographic Data Centre
#                                CCDC 
#
#######################################################################
#
# If this CIF has been generated from an entry in the Cambridge 
# Structural Database, then it will include bibliographic, chemical, 
# crystal, experimental, refinement or atomic coordinate data resulting 
# from the CCDC's data processing and validation procedures.
#
#######################################################################

data_POCVAF
_symmetry_cell_setting           triclinic
_symmetry_space_group_name_H-M   'P -1'
_symmetry_Int_Tables_number      2
_space_group_name_Hall           '-P 1'
loop_
_symmetry_equiv_pos_site_id
_symmetry_equiv_pos_as_xyz
1 x,y,z
2 -x,-y,-z
_cell_length_a                   8.5363(17)
_cell_length_b                   10.273(2)
_cell_length_c                   10.811(2)
_cell_angle_alpha                98.53(3)
_cell_angle_beta                 100.10(3)
_cell_angle_gamma                94.88(3)
_cell_volume                     917.01
loop_
_atom_site_label
_atom_site_type_symbol
_atom_site_fract_x
_atom_site_fract_y
_atom_site_fract_z
C1 C 0.0399(3) 0.0594(2) 0.2827(2)
C2 C 0.0681(3) -0.0788(2) 0.2258(2)
C3 C 0.0803(3) -0.3101(2) 0.2390(2)
C4 C 0.0612(3) -0.1822(2) 0.2952(2)
H1 H 0.0440 -0.1664 0.3784
C5 C 0.1004(3) -0.1013(2) 0.1047(2)
H2 H 0.1131 -0.0305 0.0613
C6 C 0.0738(3) -0.4236(2) 0.3120(2)
C7 C 0.1035(3) -0.3326(2) 0.1142(2)
H3 H 0.1120 -0.4182 0.0757
C8 C 0.1141(3) -0.2293(3) 0.0461(2)
H4 H 0.1302 -0.2449 -0.0375
C9 C 0.2784(3) 0.1979(3) 0.5662(2)
H5 H 0.2157 0.1163 0.5471
C10 C 0.3626(3) 0.4020(3) 0.5704(3)
H6 H 0.3681 0.4882 0.5533
C11 C 0.6626(3) 0.3476(3) 1.2051(3)
H7 H 0.7087 0.3971 1.1526
C12 C 0.4833(3) 0.2449(3) 1.2886(3)
H8 H 0.3866 0.2105 1.3059
C13 C 0.4996(3) 0.1307(3) 0.7197(3)
H9 H 0.6109 0.1652 0.7521
H10 H 0.4970 0.0464 0.6650
C14 C 0.4757(3) 0.3529(3) 0.6492(3)
H11 H 0.5710 0.3986 0.6969
C15 C 0.6315(3) 0.2334(3) 1.3501(3)
H12 H 0.6541 0.1880 1.4182
C16 C 0.3759(4) 0.3512(4) 1.0989(3)
H13 H 0.4146 0.4288 1.0669
H14 H 0.2858 0.3729 1.1386
C17 C 0.4198(4) 0.1092(3) 0.8292(3)
H15 H 0.3060 0.0833 0.7988
H16 H 0.4647 0.0390 0.8697
C18 C 0.3214(4) 0.2411(4) 0.9913(3)
H17 H 0.2990 0.1594 1.0230
H18 H 0.2239 0.2590 0.9386
Cd1 Cd 0.010965(18) 0.318464(14) 0.381016(14)
N1 N 0.4222(2) 0.2227(2) 0.6447(2)
N2 N 0.2386(2) 0.3045(2) 0.5201(2)
N3 N 0.7442(2) 0.2977(2) 1.2983(2)
N4 N 0.5045(3) 0.3178(2) 1.1955(2)
O1 O -0.0336(2) 0.07233(17) 0.37344(18)
O2 O 0.0908(2) 0.15434(17) 0.23385(18)
O3 O 0.0841(3) -0.4013(2) 0.43023(19)
O4 O 0.0619(3) -0.53790(18) 0.2497(2)
O5 O 0.4446(2) 0.2282(2) 0.9176(2)
Cd1_2 Cd 1.010965(18) 0.318464(14) 1.381016(14)
Cd1A Cd -0.010965(18) -0.318464(14) 0.618984(14)
Cd1_3 Cd 0.010965(18) -0.681536(14) 0.381016(14)
N3_2 N -0.2558(2) 0.2977(2) 0.2983(2)
O3A O -0.0841(3) 0.4013(2) 0.56977(19)
O4_2 O 0.0619(3) 0.46210(18) 0.2497(2)
loop_
_geom_bond_atom_site_label_1
_geom_bond_atom_site_label_2
_geom_bond_site_symmetry_1
_geom_bond_site_symmetry_2
C1 C2 1_555 1_555
C2 C4 1_555 1_555
C3 C4 1_555 1_555
C4 H1 1_555 1_555
C5 C2 1_555 1_555
H2 C5 1_555 1_555
C6 C3 1_555 1_555
C7 C3 1_555 1_555
H3 C7 1_555 1_555
C8 C5 1_555 1_555
H4 C8 1_555 1_555
C9 H5 1_555 1_555
C10 H6 1_555 1_555
C11 H7 1_555 1_555
C12 H8 1_555 1_555
C13 H9 1_555 1_555
H10 C13 1_555 1_555
C14 C10 1_555 1_555
H11 C14 1_555 1_555
C15 C12 1_555 1_555
H12 C15 1_555 1_555
C16 H13 1_555 1_555
H14 C16 1_555 1_555
C17 C13 1_555 1_555
H15 C17 1_555 1_555
H16 C17 1_555 1_555
C18 C16 1_555 1_555
H17 C18 1_555 1_555
H18 C18 1_555 1_555
Cd1 N2 1_555 1_555
N1 C9 1_555 1_555
N2 C9 1_555 1_555
N3 C11 1_555 1_555
N4 C11 1_555 1_555
O1 C1 1_555 1_555
O2 C1 1_555 1_555
O3 C6 1_555 1_555
O4 C6 1_555 1_555
O5 C17 1_555 1_555
Cd1_2 N3 1_555 1_555
Cd1A O3 1_555 1_555
Cd1_3 O4 1_555 1_555
N3_2 Cd1 1_555 1_555
O3A Cd1 1_555 1_555
O4_2 Cd1 1_555 1_555
C7 C8 1_555 1_555
C10 N2 1_555 1_555
C12 N4 1_555 1_555
C13 N1 1_555 1_555
C14 N1 1_555 1_555
C15 N3 1_555 1_555
C16 N4 1_555 1_555
C18 O5 1_555 1_555
Cd1 O1 1_555 1_555
Cd1 O2 1_555 1_555

#END
