
#######################################################################
#
#                 Cambridge Crystallographic Data Centre
#                                CCDC 
#
#######################################################################
#
# If this CIF has been generated from an entry in the Cambridge 
# Structural Database, then it will include bibliographic, chemical, 
# crystal, experimental, refinement or atomic coordinate data resulting 
# from the CCDC's data processing and validation procedures.
#
#######################################################################

data_POCVEJ
_symmetry_cell_setting           monoclinic
_symmetry_space_group_name_H-M   'P 21/n'
_symmetry_Int_Tables_number      14
_space_group_name_Hall           '-P 2yn'
loop_
_symmetry_equiv_pos_site_id
_symmetry_equiv_pos_as_xyz
1 x,y,z
2 1/2-x,1/2+y,1/2-z
3 -x,-y,-z
4 1/2+x,1/2-y,1/2+z
_cell_length_a                   9.2397(4)
_cell_length_b                   14.5421(7)
_cell_length_c                   14.0224(7)
_cell_angle_alpha                90
_cell_angle_beta                 95.0830(10)
_cell_angle_gamma                90
_cell_volume                     1876.71
loop_
_atom_site_label
_atom_site_type_symbol
_atom_site_fract_x
_atom_site_fract_y
_atom_site_fract_z
Tb1 Tb 1.023336(14) 0.346469(9) 0.906432(10)
S1 S 1.08015(9) 0.29011(5) 0.65655(6)
O1 O 1.0137(2) 0.31998(15) 0.74223(16)
O2 O 1.2369(2) 0.29390(15) 0.66856(19)
O3 O 1.0156(3) 0.33612(16) 0.57295(19)
O4 O 0.6203(2) 0.07900(15) 0.54664(15)
O5 O 0.6785(2) -0.06097(14) 0.60096(17)
O6 O 1.2215(2) -0.13342(14) 0.61474(16)
O7 O 1.3700(2) -0.01812(14) 0.65445(16)
O8 O 0.9364(3) 0.2908(2) 1.05656(18)
H1 H 0.9168 0.2359 1.0515
H2 H 0.8486 0.3005 1.0561
N1 N 1.1026(3) 0.18163(17) 0.90891(19)
N2 N 0.8197(3) 0.22944(18) 0.8618(2)
C1 C 1.2399(4) 0.1572(2) 0.9296(3)
H3 H 1.3083 0.2031 0.9443
C2 C 1.2872(4) 0.0661(2) 0.9306(3)
H4 H 1.3847 0.0521 0.9463
C3 C 1.1901(4) -0.0017(2) 0.9087(3)
H5 H 1.2208 -0.0626 0.9086
C4 C 1.0437(4) 0.0193(2) 0.8859(2)
C5 C 0.9339(5) -0.0486(2) 0.8617(3)
H6 H 0.9599 -0.1104 0.8615
C6 C 0.7952(5) -0.0253(2) 0.8396(3)
H7 H 0.7262 -0.0710 0.8254
C7 C 0.7510(4) 0.0694(2) 0.8375(2)
C8 C 0.6088(4) 0.0971(3) 0.8090(3)
H8 H 0.5375 0.0535 0.7920
C9 C 0.5751(4) 0.1886(3) 0.8062(3)
H9 H 0.4813 0.2080 0.7865
C10 C 0.6836(4) 0.2524(3) 0.8334(3)
H10 H 0.6592 0.3145 0.8316
C11 C 0.8543(4) 0.1384(2) 0.8628(2)
C12 C 1.0031(3) 0.1130(2) 0.8875(2)
C13 C 1.0366(3) 0.1713(2) 0.6443(2)
C14 C 0.8949(3) 0.14411(19) 0.6199(2)
H11 H 0.8210 0.1876 0.6121
C15 C 0.8638(3) 0.05116(19) 0.6072(2)
C16 C 0.9759(3) -0.0130(2) 0.6152(2)
H12 H 0.9555 -0.0749 0.6043
C17 C 1.1170(3) 0.01481(19) 0.6390(2)
C18 C 1.1468(3) 0.1076(2) 0.6553(2)
H13 H 1.2413 0.1265 0.6737
C19 C 0.7091(3) 0.0212(2) 0.5830(2)
C20 C 1.2426(3) -0.0505(2) 0.6385(2)
Tb1C Tb 0.523336(14) 0.153531(9) 0.406432(10)
Tb1A Tb 0.476664(14) -0.153531(9) 0.593568(10)
Tb1A_2 Tb 1.476664(14) -0.153531(9) 0.593568(10)
O4C O 1.1203(2) 0.42100(15) 1.04664(15)
O5A O 0.8215(2) 0.43903(14) 0.89904(17)
O6A O 1.2785(2) 0.36658(14) 0.88526(16)
O7A O 1.1300(2) 0.48188(14) 0.84555(16)
loop_
_geom_bond_atom_site_label_1
_geom_bond_atom_site_label_2
_geom_bond_site_symmetry_1
_geom_bond_site_symmetry_2
Tb1 O1 1_555 1_555
S1 O1 1_555 1_555
O2 S1 1_555 1_555
O3 S1 1_555 1_555
O4 C19 1_555 1_555
O5 C19 1_555 1_555
O6 C20 1_555 1_555
O7 C20 1_555 1_555
O8 Tb1 1_555 1_555
H1 O8 1_555 1_555
H2 O8 1_555 1_555
N1 Tb1 1_555 1_555
N2 Tb1 1_555 1_555
C1 N1 1_555 1_555
H3 C1 1_555 1_555
C2 C1 1_555 1_555
H4 C2 1_555 1_555
C3 C2 1_555 1_555
H5 C3 1_555 1_555
C4 C3 1_555 1_555
C5 C4 1_555 1_555
H6 C5 1_555 1_555
C6 C5 1_555 1_555
H7 C6 1_555 1_555
C7 C6 1_555 1_555
C8 C7 1_555 1_555
H8 C8 1_555 1_555
C9 C8 1_555 1_555
H9 C9 1_555 1_555
C10 N2 1_555 1_555
H10 C10 1_555 1_555
C11 N2 1_555 1_555
C12 N1 1_555 1_555
C13 S1 1_555 1_555
C14 C13 1_555 1_555
H11 C14 1_555 1_555
C15 C14 1_555 1_555
C16 C15 1_555 1_555
H12 C16 1_555 1_555
C17 C16 1_555 1_555
C18 C13 1_555 1_555
H13 C18 1_555 1_555
C19 C15 1_555 1_555
C20 C17 1_555 1_555
Tb1C O4 1_555 1_555
Tb1A O5 1_555 1_555
Tb1A_2 O6 1_555 1_555
O4C Tb1 1_555 1_555
O5A Tb1 1_555 1_555
O6A Tb1 1_555 1_555
O7A Tb1 1_555 1_555
O7 Tb1A_2 1_555 1_555
C4 C12 1_555 1_555
C7 C11 1_555 1_555
C9 C10 1_555 1_555
C11 C12 1_555 1_555
C17 C18 1_555 1_555

#END
