
#######################################################################
#
#                 Cambridge Crystallographic Data Centre
#                                CCDC 
#
#######################################################################
#
# If this CIF has been generated from an entry in the Cambridge 
# Structural Database, then it will include bibliographic, chemical, 
# crystal, experimental, refinement or atomic coordinate data resulting 
# from the CCDC's data processing and validation procedures.
#
#######################################################################

data_POCWAH
_symmetry_cell_setting           monoclinic
_symmetry_space_group_name_H-M   'C 2/c'
_symmetry_Int_Tables_number      15
_space_group_name_Hall           '-C 2yn'
loop_
_symmetry_equiv_pos_site_id
_symmetry_equiv_pos_as_xyz
1 x,y,z
2 -x,y,1/2-z
3 1/2+x,1/2+y,z
4 1/2-x,1/2+y,1/2-z
5 -x,-y,-z
6 x,-y,1/2+z
7 1/2-x,1/2-y,-z
8 1/2+x,1/2-y,1/2+z
_cell_length_a                   16.778(6)
_cell_length_b                   6.395(2)
_cell_length_c                   15.241(5)
_cell_angle_alpha                90
_cell_angle_beta                 110.879(3)
_cell_angle_gamma                90
_cell_volume                     1527.91
loop_
_atom_site_label
_atom_site_type_symbol
_atom_site_fract_x
_atom_site_fract_y
_atom_site_fract_z
Sr1 Sr 0.5000 0.33374(4) 0.2500
O1 O 0.41275(12) 0.3654(3) 0.02286(15)
O2 O 0.29803(12) 0.4447(3) -0.09403(12)
O3 O 0.11751(12) 0.6631(3) 0.18521(13)
O4 O 0.06566(12) 0.6662(3) 0.03344(15)
O5 O 0.42046(11) -0.0124(3) 0.16072(11)
H1 H 0.3857 -0.0144 0.1061
H2 H 0.3981 -0.0478 0.1986
O6 O 0.53648(12) 0.6572(3) 0.16470(12)
H3 H 0.5521 0.6482 0.1187
H4 H 0.5006 0.7511 0.1568
N1 N 0.33927(12) 0.4746(3) 0.14792(13)
N2 N 0.21460(12) 0.5294(3) 0.02350(13)
N3 N 0.33820(13) 0.4252(3) -0.00982(14)
N4 N 0.12375(13) 0.6340(3) 0.10715(15)
C1 C 0.29614(14) 0.4766(3) 0.05475(15)
C2 C 0.27864(15) 0.5341(4) 0.18192(16)
H5 H 0.2859 0.5512 0.2449
C3 C 0.20404(14) 0.5647(4) 0.10642(15)
O1A O 0.58725(12) 0.3654(3) 0.47714(15)
O2A O 0.70197(12) 0.4447(3) 0.59403(12)
O3A O 0.88249(12) 0.6631(3) 0.31479(13)
O4A O 0.93434(12) 0.6662(3) 0.46656(15)
O5A O 0.57954(11) -0.0124(3) 0.33928(11)
H1A H 0.6143 -0.0144 0.3939
H2A H 0.6019 -0.0478 0.3014
O6A O 0.46352(12) 0.6572(3) 0.33530(12)
H3A H 0.4479 0.6482 0.3813
H4A H 0.4994 0.7511 0.3432
N1A N 0.66073(12) 0.4746(3) 0.35208(13)
N2A N 0.78540(12) 0.5294(3) 0.47650(13)
N3A N 0.66180(13) 0.4252(3) 0.50982(14)
N4A N 0.87625(13) 0.6340(3) 0.39285(15)
C1A C 0.70386(14) 0.4766(3) 0.44525(15)
C2A C 0.72136(15) 0.5341(4) 0.31808(16)
H5A H 0.7141 0.5512 0.2551
C3A C 0.79596(14) 0.5647(4) 0.39358(15)
Sr1B Sr 0.0000 0.83374(4) 0.2500
Sr1B_2 Sr 1.0000 0.83374(4) 0.2500
O3B O 0.61751(12) 0.1631(3) 0.18521(13)
O3C O 0.38249(12) 0.1631(3) 0.31479(13)
loop_
_geom_bond_atom_site_label_1
_geom_bond_atom_site_label_2
_geom_bond_site_symmetry_1
_geom_bond_site_symmetry_2
Sr1 O5 1_555 1_555
O1 N3 1_555 1_555
O2 N3 1_555 1_555
O3 N4 1_555 1_555
O4 N4 1_555 1_555
O5 H1 1_555 1_555
H2 O5 1_555 1_555
O6 Sr1 1_555 1_555
H3 O6 1_555 1_555
H4 O6 1_555 1_555
N1 Sr1 1_555 1_555
N2 C1 1_555 1_555
N3 C1 1_555 1_555
N4 C3 1_555 1_555
C1 N1 1_555 1_555
C2 N1 1_555 1_555
H5 C2 1_555 1_555
C3 N2 1_555 1_555
O1A N3A 1_555 1_555
O2A N3A 1_555 1_555
O3A N4A 1_555 1_555
O4A N4A 1_555 1_555
O5A Sr1 1_555 1_555
H1A O5A 1_555 1_555
H2A O5A 1_555 1_555
O6A Sr1 1_555 1_555
H3A O6A 1_555 1_555
H4A O6A 1_555 1_555
N1A Sr1 1_555 1_555
N2A C1A 1_555 1_555
N3A C1A 1_555 1_555
N4A C3A 1_555 1_555
C1A N1A 1_555 1_555
C2A N1A 1_555 1_555
H5A C2A 1_555 1_555
C3A N2A 1_555 1_555
Sr1B O3 1_555 1_555
Sr1B_2 O3A 1_555 1_555
O3B Sr1 1_555 1_555
O3C Sr1 1_555 1_555
C2 C3 1_555 1_555
C2A C3A 1_555 1_555

#END
