
#######################################################################
#
#                 Cambridge Crystallographic Data Centre
#                                CCDC 
#
#######################################################################
#
# If this CIF has been generated from an entry in the Cambridge 
# Structural Database, then it will include bibliographic, chemical, 
# crystal, experimental, refinement or atomic coordinate data resulting 
# from the CCDC's data processing and validation procedures.
#
#######################################################################

data_PODDUJ
_symmetry_cell_setting           monoclinic
_symmetry_space_group_name_H-M   'P 21/c'
_symmetry_Int_Tables_number      14
_space_group_name_Hall           '-P 2ybc'
loop_
_symmetry_equiv_pos_site_id
_symmetry_equiv_pos_as_xyz
1 x,y,z
2 -x,1/2+y,1/2-z
3 -x,-y,-z
4 x,1/2-y,1/2+z
_cell_length_a                   18.1357(7)
_cell_length_b                   8.8722(4)
_cell_length_c                   7.0958(3)
_cell_angle_alpha                90
_cell_angle_beta                 94.158(4)
_cell_angle_gamma                90
_cell_volume                     1138.73
loop_
_atom_site_label
_atom_site_type_symbol
_atom_site_fract_x
_atom_site_fract_y
_atom_site_fract_z
Cs1 Cs 0.43536(1) 0.43073(2) 0.72238(2)
Cl1 Cl 0.11172(5) 0.64082(11) 1.00244(12)
O1 O 0.56012(11) 0.2745(2) 0.9860(3)
O2 O 0.26794(10) 0.4721(2) 0.4811(3)
O3 O 0.38663(11) 0.5439(2) 0.2971(3)
O4 O 0.36286(12) 0.3644(2) 0.0831(3)
C1 C 0.20072(15) 0.4599(3) 0.5573(4)
C2 C 0.19296(15) 0.5457(3) 0.7203(4)
C3 C 0.12531(17) 0.5364(3) 0.7984(4)
C4 C 0.06705(17) 0.4499(3) 0.7242(5)
C5 C 0.07712(16) 0.3652(4) 0.5651(4)
C6 C 0.14362(16) 0.3688(3) 0.4810(4)
C7 C 0.27581(15) 0.3959(3) 0.3055(4)
C8 C 0.34809(16) 0.4395(3) 0.2239(4)
C9 C 0.25432(15) 0.6459(3) 0.7987(4)
H1 H 0.02120 0.44880 0.78110
H2 H 0.03790 0.30370 0.51270
H3 H 0.15020 0.30950 0.37200
H4 H 0.58080 0.33400 0.90710
H5 H 0.59700 0.21590 1.06020
H6 H 0.23390 0.42250 0.21450
H7 H 0.27480 0.28550 0.32620
H8 H 0.28830 0.66630 0.70050
H9 H 0.28120 0.59590 0.90600
H10 H 0.23360 0.74110 0.84080
Cs1_2 Cs 0.43536(1) 0.43073(2) -0.27762(2)
Cs1A Cs 0.56464(1) -0.06927(2) 0.77762(2)
Cs1B Cs 0.56464(1) 0.56927(2) 0.27762(2)
Cs1B_2 Cs 0.56464(1) 0.56927(2) 1.27762(2)
Cs1C Cs 0.43536(1) 0.06927(2) 0.22238(2)
Cs1C_2 Cs 0.43536(1) 0.06927(2) 1.22238(2)
O1A O 0.43988(11) 0.7745(2) 0.5140(3)
O1B O 0.43988(11) 0.7255(2) 1.0140(3)
O1C O 0.56012(11) 0.2255(2) 0.4860(3)
O3B O 0.61337(11) 0.4561(2) 0.7029(3)
O4_2 O 0.36286(12) 0.3644(2) 1.0831(3)
O4C O 0.36286(12) 0.1356(2) 0.5831(3)
loop_
_geom_bond_atom_site_label_1
_geom_bond_atom_site_label_2
_geom_bond_site_symmetry_1
_geom_bond_site_symmetry_2
Cs1 O1 1_555 1_555
Cl1 C3 1_555 1_555
O1 H4 1_555 1_555
O2 Cs1 1_555 1_555
O3 Cs1 1_555 1_555
O4 C8 1_555 1_555
C1 O2 1_555 1_555
C2 C1 1_555 1_555
C3 C2 1_555 1_555
C4 C3 1_555 1_555
C5 C4 1_555 1_555
C6 C1 1_555 1_555
C7 O2 1_555 1_555
C8 O3 1_555 1_555
C9 C2 1_555 1_555
H1 C4 1_555 1_555
H2 C5 1_555 1_555
H3 C6 1_555 1_555
H5 O1 1_555 1_555
H6 C7 1_555 1_555
H7 C7 1_555 1_555
H8 C9 1_555 1_555
H9 C9 1_555 1_555
H10 C9 1_555 1_555
Cs1_2 O4 1_555 1_555
Cs1A O1 1_555 1_555
Cs1B O3 1_555 1_555
Cs1B_2 O1 1_555 1_555
Cs1C O4 1_555 1_555
Cs1C_2 O1 1_555 1_555
O1A Cs1 1_555 1_555
O1B Cs1 1_555 1_555
O1C Cs1 1_555 1_555
O3B Cs1 1_555 1_555
O4_2 Cs1 1_555 1_555
O4C Cs1 1_555 1_555
C5 C6 1_555 1_555
C7 C8 1_555 1_555
Cs1A O1C 1_555 1_555
Cs1B O1A 1_555 1_555
Cs1B O1C 1_555 1_555
Cs1B O3B 1_555 1_555
Cs1B_2 O1B 1_555 1_555
Cs1C O1C 1_555 1_555
Cs1C O4C 1_555 1_555
Cs1C_2 O4_2 1_555 1_555

#END
