
#######################################################################
#
#                 Cambridge Crystallographic Data Centre
#                                CCDC 
#
#######################################################################
#
# If this CIF has been generated from an entry in the Cambridge 
# Structural Database, then it will include bibliographic, chemical, 
# crystal, experimental, refinement or atomic coordinate data resulting 
# from the CCDC's data processing and validation procedures.
#
#######################################################################

data_PODDIX
_symmetry_cell_setting           monoclinic
_symmetry_space_group_name_H-M   'C 2/c'
_symmetry_Int_Tables_number      15
_space_group_name_Hall           '-C 2yn'
loop_
_symmetry_equiv_pos_site_id
_symmetry_equiv_pos_as_xyz
1 x,y,z
2 -x,y,1/2-z
3 1/2+x,1/2+y,z
4 1/2-x,1/2+y,1/2-z
5 -x,-y,-z
6 x,-y,1/2+z
7 1/2-x,1/2-y,-z
8 1/2+x,1/2-y,1/2+z
_cell_length_a                   19.116(4)
_cell_length_b                   11.968(2)
_cell_length_c                   11.139(2)
_cell_angle_alpha                90
_cell_angle_beta                 107.70(3)
_cell_angle_gamma                90
_cell_volume                     2427.75
loop_
_atom_site_label
_atom_site_type_symbol
_atom_site_fract_x
_atom_site_fract_y
_atom_site_fract_z
Cu1 Cu 0.0000 0.26811(6) -0.2500
Cu2 Cu 0.07719(3) 0.07190(5) -0.00732(4)
Cu3 Cu 0.0000 0.12080(6) 0.2500
N1 N 0.10524(19) -0.0660(3) 0.3385(3)
N2 N 0.08148(19) 0.0124(3) 0.2480(3)
N3 N 0.1104(2) -0.0043(3) 0.1541(3)
N4 N -0.0115(2) 0.2774(3) -0.0899(3)
N5 N 0.00901(19) 0.1970(3) -0.0001(3)
N6 N -0.0185(2) 0.2180(3) 0.0939(3)
C1 C 0.1516(2) -0.1352(3) 0.3008(3)
C2 C 0.1897(3) -0.2319(4) 0.3569(4)
H1 H 0.1863 -0.2600 0.4348
C3 C 0.2311(3) -0.2826(4) 0.2943(4)
H2 H 0.2578 -0.3479 0.3294
C4 C 0.2360(3) -0.2417(4) 0.1779(4)
H3 H 0.2665 -0.2797 0.1379
C5 C 0.1987(3) -0.1505(4) 0.1221(4)
H4 H 0.2021 -0.1240 0.0436
C6 C 0.1545(2) -0.0959(3) 0.1849(3)
C7 C -0.0539(3) 0.3511(3) -0.0513(3)
C8 C -0.0887(3) 0.4494(4) -0.1066(4)
H5 H -0.0834 0.4770 -0.1833
C9 C -0.1307(3) 0.5040(4) -0.0457(4)
H6 H -0.1565 0.5697 -0.0817
C10 C -0.1363(3) 0.4639(4) 0.0700(4)
H7 H -0.1658 0.5042 0.1099
C11 C -0.1013(3) 0.3702(4) 0.1274(4)
H8 H -0.1053 0.3449 0.2059
C12 C -0.0592(2) 0.3137(3) 0.0641(3)
Cu2A Cu -0.07719(3) 0.07190(5) -0.49268(4)
N1A N -0.10524(19) -0.0660(3) -0.8385(3)
N2A N -0.08148(19) 0.0124(3) -0.7480(3)
N3A N -0.1104(2) -0.0043(3) -0.6541(3)
N4A N 0.0115(2) 0.2774(3) -0.4101(3)
N5A N -0.00901(19) 0.1970(3) -0.4999(3)
N6A N 0.0185(2) 0.2180(3) -0.5939(3)
C1A C -0.1516(2) -0.1352(3) -0.8008(3)
C2A C -0.1897(3) -0.2319(4) -0.8569(4)
H1A H -0.1863 -0.2600 -0.9348
C3A C -0.2311(3) -0.2826(4) -0.7943(4)
H2A H -0.2578 -0.3479 -0.8294
C4A C -0.2360(3) -0.2417(4) -0.6779(4)
H3A H -0.2665 -0.2797 -0.6379
C5A C -0.1987(3) -0.1505(4) -0.6221(4)
H4A H -0.2021 -0.1240 -0.5436
C6A C -0.1545(2) -0.0959(3) -0.6849(3)
C7A C 0.0539(3) 0.3511(3) -0.4487(3)
C8A C 0.0887(3) 0.4494(4) -0.3934(4)
H5A H 0.0834 0.4770 -0.3167
C9A C 0.1307(3) 0.5040(4) -0.4543(4)
H6A H 0.1565 0.5697 -0.4183
C10A C 0.1363(3) 0.4639(4) -0.5700(4)
H7A H 0.1658 0.5042 -0.6099
C11A C 0.1013(3) 0.3702(4) -0.6274(4)
H8A H 0.1053 0.3449 -0.7059
C12A C 0.0592(2) 0.3137(3) -0.5641(3)
Cu2D Cu -0.07719(3) -0.07190(5) -0.99268(4)
Cu2E Cu 0.07719(3) -0.07190(5) 0.49268(4)
Cu3_2 Cu 0.0000 0.12080(6) -0.7500
N1D N -0.10524(19) 0.0660(3) -0.3385(3)
N1E N 0.10524(19) 0.0660(3) -0.1615(3)
N2A_2 N -0.08148(19) 0.0124(3) 0.2520(3)
N6A_2 N 0.0185(2) 0.2180(3) 0.4061(3)
loop_
_geom_bond_atom_site_label_1
_geom_bond_atom_site_label_2
_geom_bond_site_symmetry_1
_geom_bond_site_symmetry_2
Cu1 N4 1_555 1_555
Cu2 N3 1_555 1_555
Cu3 N2 1_555 1_555
N1 N2 1_555 1_555
N2 N3 1_555 1_555
N3 C6 1_555 1_555
N4 N5 1_555 1_555
N5 Cu2 1_555 1_555
N6 Cu3 1_555 1_555
C1 N1 1_555 1_555
C2 C1 1_555 1_555
H1 C2 1_555 1_555
C3 C2 1_555 1_555
H2 C3 1_555 1_555
C4 C3 1_555 1_555
H3 C4 1_555 1_555
C5 C4 1_555 1_555
H4 C5 1_555 1_555
C6 C1 1_555 1_555
C7 N4 1_555 1_555
C8 C7 1_555 1_555
H5 C8 1_555 1_555
C9 C8 1_555 1_555
H6 C9 1_555 1_555
C10 C9 1_555 1_555
H7 C10 1_555 1_555
C11 C10 1_555 1_555
H8 C11 1_555 1_555
C12 N6 1_555 1_555
Cu2A N3A 1_555 1_555
N1A N2A 1_555 1_555
N2A N3A 1_555 1_555
N3A C6A 1_555 1_555
N4A Cu1 1_555 1_555
N5A Cu2A 1_555 1_555
N6A N5A 1_555 1_555
C1A N1A 1_555 1_555
C2A C1A 1_555 1_555
H1A C2A 1_555 1_555
C3A C2A 1_555 1_555
H2A C3A 1_555 1_555
C4A C3A 1_555 1_555
H3A C4A 1_555 1_555
C5A C4A 1_555 1_555
H4A C5A 1_555 1_555
C6A C1A 1_555 1_555
C7A N4A 1_555 1_555
C8A C7A 1_555 1_555
H5A C8A 1_555 1_555
C9A C8A 1_555 1_555
H6A C9A 1_555 1_555
C10A C9A 1_555 1_555
H7A C10A 1_555 1_555
C11A C10A 1_555 1_555
H8A C11A 1_555 1_555
C12A N6A 1_555 1_555
Cu2D N1A 1_555 1_555
Cu2E N1 1_555 1_555
Cu3_2 N2A 1_555 1_555
N1D Cu2A 1_555 1_555
N1E Cu2 1_555 1_555
N2A_2 Cu3 1_555 1_555
N6A_2 Cu3 1_555 1_555
N5 N6 1_555 1_555
C5 C6 1_555 1_555
C7 C12 1_555 1_555
C11 C12 1_555 1_555
N4A N5A 1_555 1_555
N6A Cu3_2 1_555 1_555
C5A C6A 1_555 1_555
C7A C12A 1_555 1_555
C11A C12A 1_555 1_555

#END
