
#######################################################################
#
#                 Cambridge Crystallographic Data Centre
#                                CCDC 
#
#######################################################################
#
# If this CIF has been generated from an entry in the Cambridge 
# Structural Database, then it will include bibliographic, chemical, 
# crystal, experimental, refinement or atomic coordinate data resulting 
# from the CCDC's data processing and validation procedures.
#
#######################################################################

data_PODDOD
_symmetry_cell_setting           monoclinic
_symmetry_space_group_name_H-M   'P 21/n'
_symmetry_Int_Tables_number      14
_space_group_name_Hall           '-P 2yn'
loop_
_symmetry_equiv_pos_site_id
_symmetry_equiv_pos_as_xyz
1 x,y,z
2 1/2-x,1/2+y,1/2-z
3 -x,-y,-z
4 1/2+x,1/2-y,1/2+z
_cell_length_a                   6.8582(2)
_cell_length_b                   7.6183(3)
_cell_length_c                   35.6746(15)
_cell_angle_alpha                90
_cell_angle_beta                 92.778(3)
_cell_angle_gamma                90
_cell_volume                     1861.73
loop_
_atom_site_label
_atom_site_type_symbol
_atom_site_fract_x
_atom_site_fract_y
_atom_site_fract_z
Cs1 Cs 0.75958(8) 0.42615(7) 0.20660(2)
Cs2 Cs 1.23687(8) 0.02363(7) 0.21869(2)
F1 F 0.8031(10) 0.5637(11) -0.00079(18)
F2 F 1.3076(11) 0.0195(10) 0.0143(2)
O1 O 0.4758(9) 0.4835(9) 0.13500(18)
O2 O 0.9332(10) 0.0287(9) 0.14616(19)
O3 O 0.3015(10) 0.4003(8) 0.19784(19)
O4 O 0.7836(11) 0.0407(9) 0.2130(2)
O5 O 0.1230(9) 0.6445(9) 0.19599(19)
O6 O 0.5970(10) -0.1948(8) 0.20193(19)
C1 C 0.5519(13) 0.5127(13) 0.1007(3)
C2 C 1.0205(14) 0.0169(13) 0.1124(3)
C3 C 0.7174(14) 0.4145(14) 0.0931(3)
C4 C 1.1839(16) 0.1245(15) 0.1086(3)
C5 C 0.8002(16) 0.4308(16) 0.0587(3)
C6 C 1.2799(17) 0.1255(15) 0.0758(4)
C7 C 0.7210(16) 0.5461(16) 0.0330(3)
C8 C 1.2118(16) 0.0221(15) 0.0468(3)
C9 C 0.5615(15) 0.6475(15) 0.0400(3)
C10 C 1.0525(15) -0.0855(16) 0.0496(3)
C11 C 0.4752(14) 0.6303(13) 0.0743(3)
C12 C 0.9560(15) -0.0863(15) 0.0829(3)
C13 C 0.3128(13) 0.5848(12) 0.1441(3)
C14 C 0.7808(14) -0.0955(13) 0.1527(3)
C15 C 0.2411(13) 0.5392(12) 0.1827(2)
C16 C 0.7154(13) -0.0816(11) 0.1928(3)
H1 H 0.77280 0.33670 0.11150
H2 H 1.22850 0.19730 0.12890
H3 H 0.91100 0.36270 0.05310
H4 H 1.39190 0.19700 0.07330
H5 H 0.51070 0.72820 0.02180
H6 H 1.00940 -0.15800 0.02920
H7 H 0.36420 0.69880 0.07960
H8 H 0.84450 -0.15880 0.08530
H9 H 0.20570 0.56520 0.12490
H10 H 0.82860 -0.21590 0.14810
H11 H 0.34810 0.71080 0.14350
H12 H 0.66820 -0.07300 0.13490
Cs1_2 Cs -0.24042(8) 0.42615(7) 0.20660(2)
Cs1_3 Cs 0.75958(8) -0.57385(7) 0.20660(2)
Cs1A Cs 0.74042(8) -0.07385(7) 0.29340(2)
Cs2_2 Cs 0.23687(8) 0.02363(7) 0.21869(2)
Cs2_3 Cs 0.23687(8) 1.02363(7) 0.21869(2)
Cs2A Cs 0.26313(8) 0.52363(7) 0.28131(2)
O3_2 O 1.3015(10) 0.4003(8) 0.19784(19)
O3A O 1.1985(10) -0.0997(8) 0.30216(19)
O4A O 0.7164(11) 0.5407(9) 0.2870(2)
O5_2 O 1.1230(9) -0.3555(9) 0.19599(19)
O5_3 O 1.1230(9) 0.6445(9) 0.19599(19)
O5A O 1.3770(9) 0.1445(9) 0.30401(19)
O6_2 O 0.5970(10) 0.8052(8) 0.20193(19)
O6_3 O 1.5970(10) -0.1948(8) 0.20193(19)
O6A O 0.9030(10) 0.3052(8) 0.29807(19)
loop_
_geom_bond_atom_site_label_1
_geom_bond_atom_site_label_2
_geom_bond_site_symmetry_1
_geom_bond_site_symmetry_2
Cs1 O1 1_555 1_555
Cs2 O2 1_555 1_555
F1 C7 1_555 1_555
F2 C8 1_555 1_555
O1 C1 1_555 1_555
O2 C2 1_555 1_555
O3 Cs1 1_555 1_555
O4 Cs1 1_555 1_555
O5 C15 1_555 1_555
O6 C16 1_555 1_555
C1 C3 1_555 1_555
C2 C4 1_555 1_555
C3 C5 1_555 1_555
C4 C6 1_555 1_555
C5 C7 1_555 1_555
C6 C8 1_555 1_555
C7 C9 1_555 1_555
C8 C10 1_555 1_555
C9 C11 1_555 1_555
C10 C12 1_555 1_555
C11 C1 1_555 1_555
C12 C2 1_555 1_555
C13 O1 1_555 1_555
C14 O2 1_555 1_555
C15 O3 1_555 1_555
C16 O4 1_555 1_555
H1 C3 1_555 1_555
H2 C4 1_555 1_555
H3 C5 1_555 1_555
H4 C6 1_555 1_555
H5 C9 1_555 1_555
H6 C10 1_555 1_555
H7 C11 1_555 1_555
H8 C12 1_555 1_555
H9 C13 1_555 1_555
H10 C14 1_555 1_555
H11 C13 1_555 1_555
H12 C14 1_555 1_555
Cs1_2 O5 1_555 1_555
Cs1_3 O6 1_555 1_555
Cs1A O4 1_555 1_555
Cs2_2 O3 1_555 1_555
Cs2_3 O5 1_555 1_555
Cs2A O3 1_555 1_555
O3_2 Cs2 1_555 1_555
O3A Cs2 1_555 1_555
O4A Cs1 1_555 1_555
O5_2 Cs2 1_555 1_555
O5_3 Cs1 1_555 1_555
O5A Cs2 1_555 1_555
O6_2 Cs1 1_555 1_555
O6_3 Cs2 1_555 1_555
O6A Cs1 1_555 1_555
Cs2 O4 1_555 1_555
O5 Cs2A 1_555 1_555
O6 Cs1A 1_555 1_555
O6 Cs2_2 1_555 1_555
C13 C15 1_555 1_555
C14 C16 1_555 1_555
Cs1_3 O5_2 1_555 1_555
Cs1A O3A 1_555 1_555
Cs1A O6A 1_555 1_555
Cs2_3 O6_2 1_555 1_555
Cs2A O4A 1_555 1_555

#END
