
#######################################################################
#
#                 Cambridge Crystallographic Data Centre
#                                CCDC 
#
#######################################################################
#
# If this CIF has been generated from an entry in the Cambridge 
# Structural Database, then it will include bibliographic, chemical, 
# crystal, experimental, refinement or atomic coordinate data resulting 
# from the CCDC's data processing and validation procedures.
#
#######################################################################

data_PODFOD
_symmetry_cell_setting           monoclinic
_symmetry_space_group_name_H-M   'P 21/c'
_symmetry_Int_Tables_number      14
_space_group_name_Hall           '-P 2ybc'
loop_
_symmetry_equiv_pos_site_id
_symmetry_equiv_pos_as_xyz
1 x,y,z
2 -x,1/2+y,1/2-z
3 -x,-y,-z
4 x,1/2-y,1/2+z
_cell_length_a                   11.058(7)
_cell_length_b                   24.154(9)
_cell_length_c                   13.122(4)
_cell_angle_alpha                90
_cell_angle_beta                 108.94(4)
_cell_angle_gamma                90
_cell_volume                     3315.07
loop_
_atom_site_label
_atom_site_type_symbol
_atom_site_fract_x
_atom_site_fract_y
_atom_site_fract_z
Au1 Au 0.14794(2) 0.24058(1) 0.38542(2)
Fe1 Fe 0.19289(7) 0.14164(3) 0.65849(7)
P1 P 0.29549(14) 0.17107(6) 0.44414(13)
P2 P 0.07779(14) 0.33184(6) 0.36479(13)
Cl1 Cl -0.08752(15) 0.20397(7) 0.26743(14)
C1 C 0.3261(5) 0.1577(2) 0.5843(5)
C2 C 0.3270(5) 0.1998(3) 0.6630(5)
C3 C 0.3565(6) 0.1744(3) 0.7645(6)
C4 C 0.3716(5) 0.1164(3) 0.7530(5)
C5 C 0.3518(5) 0.1064(3) 0.6412(5)
C6 C 0.0545(5) 0.3553(2) 0.2296(25)
C7 C 0.0679(5) 0.0893(3) 0.6939(5)
C8 C 0.0420(6) 0.0914(3) 0.5807(5)
C9 C 0.0139(5) 0.1466(3) 0.5453(5)
C10 C 0.0200(5) 0.1802(3) 0.6364(5)
C11 C 0.2612(5) 0.1039(2) 0.3785(5)
C12 C 0.1376(6) 0.0924(3) 0.3136(6)
C13 C 0.1095(8) 0.0405(3) 0.2647(7)
C14 C 0.2018(9) 0.0018(3) 0.2807(8)
C15 C 0.3242(8) 0.0124(3) 0.3441(7)
C16 C 0.3554(7) 0.0641(3) 0.3931(6)
C17 C 0.4522(5) 0.1897(2) 0.4357(5)
C18 C 0.5490(6) 0.2079(3) 0.5248(6)
C19 C 0.6659(7) 0.2248(3) 0.5149(7)
C20 C 0.6842(7) 0.2233(3) 0.4148(7)
C21 C 0.5878(7) 0.2052(3) 0.3268(7)
C22 C 0.4717(6) 0.1877(3) 0.3353(5)
C23 C 0.1863(6) 0.3818(3) 0.4510(5)
C24 C 0.3133(7) 0.3665(3) 0.5089(6)
C25 C 0.3975(8) 0.4047(4) 0.5676(7)
C26 C 0.3607(10) 0.4585(4) 0.5739(8)
C27 C 0.2351(10) 0.4749(3) 0.5206(8)
C28 C 0.1486(7) 0.4368(3) 0.4596(6)
C29 C -0.0734(5) 0.3460(2) 0.3870(5)
C30 C -0.0799(6) 0.3493(3) 0.4913(5)
C31 C -0.1927(7) 0.3604(3) 0.5086(6)
C32 C -0.3019(7) 0.3677(3) 0.4226(6)
C33 C -0.2992(6) 0.3646(3) 0.3186(6)
C34 C -0.1863(6) 0.3531(3) 0.2992(5)
H1 H 0.3102 0.2385 0.6484
H2 H 0.3652 0.1931 0.8310
H3 H 0.3912 0.0892 0.8094
H4 H 0.3554 0.0709 0.6094
H5 H 0.0901 0.0569 0.7386
H6 H 0.0433 0.0603 0.5354
H7 H -0.0059 0.1594 0.4725
H8 H 0.0040 0.2193 0.6356
H9 H 0.0718 0.1199 0.3024
H10 H 0.0240 0.0322 0.2195
H11 H 0.1811 -0.0337 0.2469
H12 H 0.3887 -0.0157 0.3550
H13 H 0.4417 0.0720 0.4369
H14 H 0.5364 0.2090 0.5938
H15 H 0.7334 0.2375 0.5772
H16 H 0.7642 0.2350 0.4077
H17 H 0.6003 0.2046 0.2578
H18 H 0.4054 0.1743 0.2729
H19 H 0.3403 0.3289 0.5067
H20 H 0.4841 0.3938 0.6053
H21 H 0.4218 0.4849 0.6152
H22 H 0.2089 0.5124 0.5262
H23 H 0.0620 0.4478 0.4227
H24 H -0.0039 0.3436 0.5518
H25 H -0.1954 0.3631 0.5808
H26 H -0.3813 0.3751 0.4350
H27 H -0.3762 0.3704 0.2592
H28 H -0.1848 0.3501 0.2267
C6C C 0.0545(5) 0.1447(2) 0.7296(25)
Fe1C Fe 0.19289(7) 0.35836(3) 0.15849(7)
C7C C 0.0679(5) 0.4107(3) 0.1939(5)
C10C C 0.0200(5) 0.3198(3) 0.1364(5)
P2C P 0.07779(14) 0.16816(6) 0.86479(13)
C1C C 0.3261(5) 0.3423(2) 0.0843(5)
C2C C 0.3270(5) 0.3002(3) 0.1630(5)
C3C C 0.3565(6) 0.3256(3) 0.2645(6)
C4C C 0.3716(5) 0.3836(3) 0.2530(5)
C5C C 0.3518(5) 0.3936(3) 0.1412(5)
C8C C 0.0420(6) 0.4086(3) 0.0807(5)
C9C C 0.0139(5) 0.3534(3) 0.0453(5)
H5C H 0.0901 0.4431 0.2386
H8C H 0.0040 0.2807 0.1356
Au1C Au 0.14794(2) 0.25942(1) 0.88542(2)
C23C C 0.1863(6) 0.1182(3) 0.9510(5)
C29C C -0.0734(5) 0.1540(2) 0.8870(5)
P1C P 0.29549(14) 0.32893(6) -0.05586(13)
H1C H 0.3102 0.2615 0.1484
H2C H 0.3652 0.3069 0.3310
H3C H 0.3912 0.4108 0.3094
H4C H 0.3554 0.4291 0.1094
H6C H 0.0433 0.4397 0.0354
H7C H -0.0059 0.3406 -0.0275
P1C_2 P 0.29549(14) 0.32893(6) 0.94414(13)
Cl1C Cl -0.08752(15) 0.29603(7) 0.76743(14)
C24C C 0.3133(7) 0.1335(3) 1.0089(6)
C28C C 0.1486(7) 0.0632(3) 0.9596(6)
C30C C -0.0799(6) 0.1507(3) 0.9913(5)
C34C C -0.1863(6) 0.1469(3) 0.7992(5)
Au1C_2 Au 0.14794(2) 0.25942(1) -0.11458(2)
C11C C 0.2612(5) 0.3961(2) -0.1215(5)
C17C C 0.4522(5) 0.3103(2) -0.0643(5)
C25C C 0.3975(8) 0.0953(4) 1.0676(7)
H19C H 0.3403 0.1711 1.0067
C27C C 0.2351(10) 0.0251(3) 1.0206(8)
H23C H 0.0620 0.0522 0.9227
C31C C -0.1927(7) 0.1396(3) 1.0086(6)
H24C H -0.0039 0.1564 1.0518
C33C C -0.2992(6) 0.1354(3) 0.8186(6)
H28C H -0.1848 0.1499 0.7267
C12C C 0.1376(6) 0.4076(3) -0.1864(6)
C16C C 0.3554(7) 0.4359(3) -0.1069(6)
C18C C 0.5490(6) 0.2921(3) 0.0248(6)
C22C C 0.4717(6) 0.3123(3) -0.1647(5)
C26C C 0.3607(10) 0.0415(4) 1.0739(8)
H20C H 0.4841 0.1062 1.1053
H22C H 0.2089 -0.0124 1.0262
C32C C -0.3019(7) 0.1323(3) 0.9226(6)
H25C H -0.1954 0.1369 1.0808
H27C H -0.3762 0.1296 0.7592
C13C C 0.1095(8) 0.4595(3) -0.2353(7)
H9C H 0.0718 0.3801 -0.1976
C15C C 0.3242(8) 0.4876(3) -0.1559(7)
H13C H 0.4417 0.4280 -0.0631
C19C C 0.6659(7) 0.2752(3) 0.0149(7)
H14C H 0.5364 0.2910 0.0938
C21C C 0.5878(7) 0.2948(3) -0.1732(7)
H18C H 0.4054 0.3257 -0.2271
H21C H 0.4218 0.0151 1.1152
H26C H -0.3813 0.1249 0.9350
C14C C 0.2018(9) 0.4982(3) -0.2193(8)
H10C H 0.0240 0.4678 -0.2805
H12C H 0.3887 0.5157 -0.1450
C20C C 0.6842(7) 0.2767(3) -0.0852(7)
H15C H 0.7334 0.2625 0.0772
H17C H 0.6003 0.2954 -0.2422
H11C H 0.1811 0.5337 -0.2531
H16C H 0.7642 0.2650 -0.0923
Cl2 Cl 0.7259(3) 0.0396(1) 0.2115(2)
Cl3 Cl 0.7252(3) 0.0498(1) 0.4339(3)
C35 C 0.7595(13) 0.0773(4) 0.3260(9)
H29 H 0.8496 0.0847 0.3495
H30 H 0.7132 0.1115 0.3078
loop_
_geom_bond_atom_site_label_1
_geom_bond_atom_site_label_2
_geom_bond_site_symmetry_1
_geom_bond_site_symmetry_2
Au1 P1 1_555 1_555
Fe1 C1 1_555 1_555
P1 C1 1_555 1_555
P2 Au1 1_555 1_555
Cl1 Au1 1_555 1_555
C1 C2 1_555 1_555
C2 Fe1 1_555 1_555
C3 Fe1 1_555 1_555
C4 Fe1 1_555 1_555
C5 Fe1 1_555 1_555
C6 P2 1_555 1_555
C7 Fe1 1_555 1_555
C8 Fe1 1_555 1_555
C9 Fe1 1_555 1_555
C10 Fe1 1_555 1_555
C11 P1 1_555 1_555
C12 C11 1_555 1_555
C13 C12 1_555 1_555
C14 C13 1_555 1_555
C15 C14 1_555 1_555
C16 C11 1_555 1_555
C17 P1 1_555 1_555
C18 C17 1_555 1_555
C19 C18 1_555 1_555
C20 C19 1_555 1_555
C21 C20 1_555 1_555
C22 C17 1_555 1_555
C23 P2 1_555 1_555
C24 C23 1_555 1_555
C25 C24 1_555 1_555
C26 C25 1_555 1_555
C27 C26 1_555 1_555
C28 C23 1_555 1_555
C29 P2 1_555 1_555
C30 C29 1_555 1_555
C31 C30 1_555 1_555
C32 C31 1_555 1_555
C33 C32 1_555 1_555
C34 C29 1_555 1_555
Cl2 C35 1_555 1_555
Cl3 C35 1_555 1_555
C35 H29 1_555 1_555
H1 C2 1_555 1_555
H2 C3 1_555 1_555
H3 C4 1_555 1_555
H4 C5 1_555 1_555
H5 C7 1_555 1_555
H6 C8 1_555 1_555
H7 C9 1_555 1_555
H8 C10 1_555 1_555
H9 C12 1_555 1_555
H10 C13 1_555 1_555
H11 C14 1_555 1_555
H12 C15 1_555 1_555
H13 C16 1_555 1_555
H14 C18 1_555 1_555
H15 C19 1_555 1_555
H16 C20 1_555 1_555
H17 C21 1_555 1_555
H18 C22 1_555 1_555
H19 C24 1_555 1_555
H20 C25 1_555 1_555
H21 C26 1_555 1_555
H22 C27 1_555 1_555
H23 C28 1_555 1_555
H24 C30 1_555 1_555
H25 C31 1_555 1_555
H26 C32 1_555 1_555
H27 C33 1_555 1_555
H28 C34 1_555 1_555
H30 C35 1_555 1_555
C6C Fe1 1_555 1_555
Fe1C C6 1_555 1_555
C7C C6 1_555 1_555
C10C C6 1_555 1_555
P2C C6C 1_555 1_555
C1C Fe1C 1_555 1_555
C2C Fe1C 1_555 1_555
C3C Fe1C 1_555 1_555
C4C Fe1C 1_555 1_555
C5C Fe1C 1_555 1_555
C8C Fe1C 1_555 1_555
C9C Fe1C 1_555 1_555
H5C C7C 1_555 1_555
H8C C10C 1_555 1_555
Au1C P2C 1_555 1_555
C23C P2C 1_555 1_555
C29C P2C 1_555 1_555
P1C C1C 1_555 1_555
H1C C2C 1_555 1_555
H2C C3C 1_555 1_555
H3C C4C 1_555 1_555
H4C C5C 1_555 1_555
H6C C8C 1_555 1_555
H7C C9C 1_555 1_555
P1C_2 Au1C 1_555 1_555
Cl1C Au1C 1_555 1_555
C24C C23C 1_555 1_555
C28C C23C 1_555 1_555
C30C C29C 1_555 1_555
C34C C29C 1_555 1_555
Au1C_2 P1C 1_555 1_555
C11C P1C 1_555 1_555
C17C P1C 1_555 1_555
C25C C24C 1_555 1_555
H19C C24C 1_555 1_555
C27C C28C 1_555 1_555
H23C C28C 1_555 1_555
C31C C30C 1_555 1_555
H24C C30C 1_555 1_555
C33C C34C 1_555 1_555
H28C C34C 1_555 1_555
C12C C11C 1_555 1_555
C16C C11C 1_555 1_555
C18C C17C 1_555 1_555
C22C C17C 1_555 1_555
C26C C25C 1_555 1_555
H20C C25C 1_555 1_555
H22C C27C 1_555 1_555
C32C C31C 1_555 1_555
H25C C31C 1_555 1_555
H27C C33C 1_555 1_555
C13C C12C 1_555 1_555
H9C C12C 1_555 1_555
C15C C16C 1_555 1_555
H13C C16C 1_555 1_555
C19C C18C 1_555 1_555
H14C C18C 1_555 1_555
C21C C22C 1_555 1_555
H18C C22C 1_555 1_555
H21C C26C 1_555 1_555
H26C C32C 1_555 1_555
C14C C13C 1_555 1_555
H10C C13C 1_555 1_555
H12C C15C 1_555 1_555
C20C C19C 1_555 1_555
H15C C19C 1_555 1_555
H17C C21C 1_555 1_555
H11C C14C 1_555 1_555
H16C C20C 1_555 1_555
C1 C5 1_555 1_555
C2 C3 1_555 1_555
C3 C4 1_555 1_555
C4 C5 1_555 1_555
C7 C6C 1_555 1_555
C7 C8 1_555 1_555
C8 C9 1_555 1_555
C9 C10 1_555 1_555
C10 C6C 1_555 1_555
C15 C16 1_555 1_555
C21 C22 1_555 1_555
C27 C28 1_555 1_555
C33 C34 1_555 1_555
Fe1C C7C 1_555 1_555
Fe1C C10C 1_555 1_555
C7C C8C 1_555 1_555
C10C C9C 1_555 1_555
C1C C2C 1_555 1_555
C1C C5C 1_555 1_555
C2C C3C 1_555 1_555
C3C C4C 1_555 1_555
C4C C5C 1_555 1_555
C8C C9C 1_555 1_555
C27C C26C 1_555 1_555
C33C C32C 1_555 1_555
C15C C14C 1_555 1_555
C21C C20C 1_555 1_555

#END
