
#######################################################################
#
#                 Cambridge Crystallographic Data Centre
#                                CCDC 
#
#######################################################################
#
# If this CIF has been generated from an entry in the Cambridge 
# Structural Database, then it will include bibliographic, chemical, 
# crystal, experimental, refinement or atomic coordinate data resulting 
# from the CCDC's data processing and validation procedures.
#
#######################################################################

data_PODJEZ
_symmetry_cell_setting           monoclinic
_symmetry_space_group_name_H-M   'C 2/c'
_symmetry_Int_Tables_number      15
_space_group_name_Hall           '-C 2yn'
loop_
_symmetry_equiv_pos_site_id
_symmetry_equiv_pos_as_xyz
1 x,y,z
2 -x,y,1/2-z
3 1/2+x,1/2+y,z
4 1/2-x,1/2+y,1/2-z
5 -x,-y,-z
6 x,-y,1/2+z
7 1/2-x,1/2-y,-z
8 1/2+x,1/2-y,1/2+z
_cell_length_a                   23.831(3)
_cell_length_b                   9.8104(13)
_cell_length_c                   16.555(2)
_cell_angle_alpha                90
_cell_angle_beta                 114.275(3)
_cell_angle_gamma                90
_cell_volume                     3528.21
loop_
_atom_site_label
_atom_site_type_symbol
_atom_site_fract_x
_atom_site_fract_y
_atom_site_fract_z
Ag1 Ag 0.46932(3) -0.10596(6) 0.56779(4)
O1 O 0.0543(3) 0.1894(6) 0.0513(4)
C1 C 0.2423(4) 0.1132(7) 0.2015(5)
H1 H 0.2652 0.0604 0.1794
C2 C 0.3892(3) 0.2211(7) 0.2608(5)
C3 C 0.1462(3) 0.2170(7) 0.1822(5)
C4 C 0.1810(4) 0.1442(8) 0.1486(6)
H2 H 0.1635 0.1152 0.0900
N1 N 0.3306(3) 0.1217(6) 0.3447(4)
N2 N 0.4300(3) 0.0888(5) 0.3985(4)
C5 C 0.2684(3) 0.1622(8) 0.2870(5)
O2 O 0.0487(3) 0.2957(7) 0.1669(4)
C6 C 0.4173(3) 0.1619(8) 0.2128(5)
H3 H 0.4306 0.0722 0.2264
N3 N 0.4068(3) 0.0241(6) 0.4531(4)
C7 C 0.3836(3) 0.1451(7) 0.3331(5)
C8 C 0.2358(4) 0.2393(7) 0.3206(5)
H4 H 0.2543 0.2726 0.3782
C9 C 0.3791(5) 0.4200(8) 0.1732(7)
H5 H 0.3659 0.5092 0.1578
C10 C 0.3473(3) 0.0453(8) 0.4190(5)
N4 N 0.4273(3) 0.2225(6) 0.1480(4)
C11 C 0.0774(4) 0.2353(8) 0.1290(6)
C12 C 0.1745(4) 0.2678(8) 0.2682(5)
H6 H 0.1521 0.3215 0.2907
C13 C 0.3057(4) -0.0096(9) 0.4575(6)
H7 H 0.2881 0.0645 0.4773
H8 H 0.3286 -0.0675 0.5068
H9 H 0.2734 -0.0612 0.4133
C14 C 0.4089(4) 0.3514(9) 0.1310(6)
H10 H 0.4169 0.3974 0.0877
C15 C 0.3691(4) 0.3526(8) 0.2398(6)
H11 H 0.3490 0.3964 0.2701
Ag1C Ag 0.03068(3) 0.39404(6) -0.06779(4)
Ag1D Ag 0.53068(3) 0.10596(6) 0.43221(4)
Ag1E Ag 0.46932(3) 0.10596(6) 0.06779(4)
O1C O 0.4457(3) -0.3106(6) 0.4487(4)
N2D N 0.5700(3) -0.0888(5) 0.6015(4)
N4E N 0.4273(3) -0.2225(6) 0.6480(4)
O3 O 0.4321(3) -0.1626(8) 0.1546(5)
H12 H 0.4362 -0.2479 0.1502
H13 H 0.4014 -0.1343 0.1094
O4 O 0.3410(3) 0.3268(8) 0.5215(6)
H14 H 0.3784 0.3280 0.5289
H15 H 0.3256 0.4061 0.5076
O5 O 0.4303(3) 0.4016(7) 0.4618(6)
H16 H 0.4351 0.4876 0.4624
H17 H 0.4669 0.3725 0.4884
loop_
_geom_bond_atom_site_label_1
_geom_bond_atom_site_label_2
_geom_bond_site_symmetry_1
_geom_bond_site_symmetry_2
Ag1 N3 1_555 1_555
O1 C11 1_555 1_555
C1 H1 1_555 1_555
C2 C6 1_555 1_555
C3 C4 1_555 1_555
C4 C1 1_555 1_555
H2 C4 1_555 1_555
N1 C5 1_555 1_555
N2 N3 1_555 1_555
C5 C1 1_555 1_555
O2 C11 1_555 1_555
C6 H3 1_555 1_555
N3 C10 1_555 1_555
C7 C2 1_555 1_555
C8 C5 1_555 1_555
H4 C8 1_555 1_555
C9 H5 1_555 1_555
C10 N1 1_555 1_555
N4 C6 1_555 1_555
C11 C3 1_555 1_555
C12 C3 1_555 1_555
H6 C12 1_555 1_555
C13 C10 1_555 1_555
H7 C13 1_555 1_555
H8 C13 1_555 1_555
H9 C13 1_555 1_555
C14 C9 1_555 1_555
H10 C14 1_555 1_555
C15 C2 1_555 1_555
H11 C15 1_555 1_555
O3 H12 1_555 1_555
H13 O3 1_555 1_555
O4 H14 1_555 1_555
H15 O4 1_555 1_555
O5 H16 1_555 1_555
H17 O5 1_555 1_555
Ag1C O1 1_555 1_555
Ag1D N2 1_555 1_555
Ag1E N4 1_555 1_555
O1C Ag1 1_555 1_555
N2D Ag1 1_555 1_555
N4E Ag1 1_555 1_555
N1 C7 1_555 1_555
N2 C7 1_555 1_555
C8 C12 1_555 1_555
C9 C15 1_555 1_555
N4 C14 1_555 1_555

#END
