
#######################################################################
#
#                 Cambridge Crystallographic Data Centre
#                                CCDC 
#
#######################################################################
#
# If this CIF has been generated from an entry in the Cambridge 
# Structural Database, then it will include bibliographic, chemical, 
# crystal, experimental, refinement or atomic coordinate data resulting 
# from the CCDC's data processing and validation procedures.
#
#######################################################################

data_PODKUQ
_symmetry_cell_setting           tetragonal
_symmetry_space_group_name_H-M   'I 4/m'
_symmetry_Int_Tables_number      87
_space_group_name_Hall           '-I 4'
loop_
_symmetry_equiv_pos_site_id
_symmetry_equiv_pos_as_xyz
1 x,y,z
2 -y,x,z
3 -x,-y,z
4 y,-x,z
5 1/2+x,1/2+y,1/2+z
6 1/2-y,1/2+x,1/2+z
7 1/2-x,1/2-y,1/2+z
8 1/2+y,1/2-x,1/2+z
9 -x,-y,-z
10 y,-x,-z
11 x,y,-z
12 -y,x,-z
13 1/2-x,1/2-y,1/2-z
14 1/2+y,1/2-x,1/2-z
15 1/2+x,1/2+y,1/2-z
16 1/2-y,1/2+x,1/2-z
_cell_length_a                   36.7876(13)
_cell_length_b                   36.7876(13)
_cell_length_c                   54.618(2)
_cell_angle_alpha                90
_cell_angle_beta                 90
_cell_angle_gamma                90
_cell_volume                     73916
loop_
_atom_site_label
_atom_site_type_symbol
_atom_site_fract_x
_atom_site_fract_y
_atom_site_fract_z
Cu1 Cu 0.93769(2) 0.86085(2) 0.60397(2)
Cu2 Cu 0.91632(2) 0.81393(2) 0.63811(2)
Cu3 Cu 0.90057(2) 0.27039(2) 0.5000
Cu4 Cu 0.92499(2) 0.20238(2) 0.5000
O1 O 0.93808(7) 0.77876(6) 0.61600(4)
O2 O 0.96138(7) 0.81927(7) 0.58915(4)
O3 O 1.04343(7) 0.77815(7) 0.52528(4)
O4 O 1.06237(7) 0.71968(7) 0.52473(4)
O5 O 0.90037(8) 0.77430(9) 0.66472(5)
O6 O 0.95531(13) 0.89843(8) 0.57673(5)
O7 O 0.86906(7) 0.24976(8) 0.52536(4)
O8 O 0.88894(7) 0.19236(7) 0.52504(4)
O9 O 0.84692(7) 0.10786(7) 0.58854(4)
O10 O 0.81142(7) 0.12893(6) 0.61912(4)
O11 O 0.87502(13) 0.32335(11) 0.5000
O12 O 0.94893(12) 0.14948(11) 0.5000
O13 O 0.67585(7) 0.46403(7) 0.84751(4)
O14 O 0.63281(7) 0.47988(6) 0.87442(5)
O15 O 0.58984(7) 0.60448(6) 0.87628(4)
O16 O 0.60283(7) 0.64347(7) 0.84539(4)
N1 N 0.96700(17) 0.65746(11) 0.57966(9)
N2 N 0.9848(2) 0.62892(16) 0.57302(16)
N3 N 0.9667(3) 0.60122(15) 0.57993(18)
N4 N 0.78968(13) 0.26100(10) 0.59906(8)
N5 N 0.76185(17) 0.25713(13) 0.61384(12)
N6 N 0.7546(2) 0.29008(14) 0.62128(13)
N7 N 0.68050(15) 0.56897(11) 0.78819(8)
N8 N 0.6800(2) 0.60203(14) 0.77852(10)
N9 N 0.6987(2) 0.59906(15) 0.75798(11)
C1 C 0.95689(10) 0.78722(11) 0.59739(7)
C2 C 0.97359(11) 0.75663(11) 0.58323(7)
C3 C 0.99854(10) 0.76395(11) 0.56413(7)
H1 H 1.0041 0.7884 0.5600
C4 C 1.01475(11) 0.73629(10) 0.55154(7)
C5 C 1.00499(15) 0.70118(12) 0.55577(8)
H2 H 1.0155 0.6820 0.5465
C6 C 0.97886(16) 0.69370(12) 0.57429(10)
C7 C 0.96399(13) 0.72144(12) 0.58797(8)
H3 H 0.9471 0.7161 0.6006
C8 C 1.04250(12) 0.74605(12) 0.53272(7)
C9 C 0.9400(2) 0.64806(15) 0.59184(13)
H4 H 0.9238 0.6641 0.6000
C10 C 0.9375(3) 0.61182(18) 0.59170(15)
C11 C 0.9071(3) 0.58691(16) 0.60048(16)
C12 C 0.9077(3) 0.55247(19) 0.5994(2)
H5 H 0.9266 0.5415 0.5901
C13 C 0.8830(4) 0.52993(19) 0.6107(2)
H6 H 0.8856 0.5044 0.6090
C14 C 0.8553(3) 0.54320(17) 0.62397(17)
C15 C 0.8510(3) 0.58116(19) 0.62288(18)
H7 H 0.8302 0.5926 0.6297
C16 C 0.8780(3) 0.6016(2) 0.61145(19)
H8 H 0.8757 0.6273 0.6114
C17 C 0.8271(3) 0.52017(16) 0.63657(16)
C18 C 0.8179(3) 0.48559(16) 0.62780(16)
H9 H 0.8274 0.4777 0.6125
C19 C 0.7960(3) 0.46326(16) 0.64057(16)
C20 C 0.7782(3) 0.47794(17) 0.66110(17)
H10 H 0.7647 0.4622 0.6715
C21 C 0.7797(3) 0.51359(16) 0.66645(15)
C22 C 0.8087(3) 0.53473(16) 0.65554(15)
H11 H 0.8146 0.5582 0.6616
C23 C 0.7898(3) 0.42608(16) 0.63385(19)
C24 C 0.8064(3) 0.4116(2) 0.61513(16)
H12 H 0.8201 0.4266 0.6045
C25 C 0.8042(3) 0.37347(18) 0.61033(17)
H13 H 0.8217 0.3632 0.5995
C26 C 0.7805(3) 0.35233(17) 0.61952(14)
C27 C 0.7563(4) 0.3698(2) 0.6336(2)
H14 H 0.7344 0.3579 0.6381
C28 C 0.7624(4) 0.4035(2) 0.6415(2)
H15 H 0.7462 0.4128 0.6535
C29 C 0.7790(2) 0.31343(13) 0.61310(13)
C30 C 0.79941(18) 0.29602(14) 0.59787(11)
H16 H 0.8178 0.3061 0.5877
C31 C 0.80760(13) 0.23076(11) 0.58667(9)
C32 C 0.82654(12) 0.23719(11) 0.56544(7)
H17 H 0.8264 0.2607 0.5582
C33 C 0.84546(10) 0.20975(10) 0.55488(6)
C34 C 0.84528(10) 0.17534(11) 0.56502(6)
H18 H 0.8585 0.1563 0.5574
C35 C 0.82565(10) 0.16843(10) 0.58665(6)
C36 C 0.80700(12) 0.19646(12) 0.59728(7)
H19 H 0.7936 0.1925 0.6119
C37 C 0.87001(11) 0.21720(11) 0.53326(6)
C38 C 0.82829(10) 0.13244(10) 0.59893(7)
C39 C 0.7612(3) 0.52672(15) 0.68981(14)
C40 C 0.7533(3) 0.50395(15) 0.70844(14)
H20 H 0.7607 0.4792 0.7077
C41 C 0.7344(2) 0.51658(16) 0.72869(13)
H21 H 0.7255 0.4996 0.7403
C42 C 0.7284(3) 0.55180(16) 0.73233(13)
C43 C 0.7331(3) 0.57651(17) 0.71198(15)
H22 H 0.7241 0.6007 0.7127
C44 C 0.7517(3) 0.56359(18) 0.69100(14)
H23 H 0.7577 0.5796 0.6780
C45 C 0.7085(2) 0.56517(15) 0.75419(12)
C46 C 0.69600(17) 0.54602(13) 0.77307(10)
H24 H 0.6979 0.5205 0.7752
C47 C 0.66239(14) 0.56158(13) 0.81071(8)
C48 C 0.66542(12) 0.52790(12) 0.82143(7)
H25 H 0.6793 0.5094 0.8138
C49 C 0.64805(10) 0.52103(10) 0.84354(7)
C50 C 0.62725(10) 0.54832(11) 0.85466(7)
H26 H 0.6149 0.5436 0.8696
C51 C 0.62476(11) 0.58210(11) 0.84382(7)
C52 C 0.64186(13) 0.58951(12) 0.82122(7)
H27 H 0.6395 0.6125 0.8135
C53 C 0.65258(10) 0.48621(10) 0.85599(7)
C54 C 0.60426(10) 0.61361(12) 0.85603(7)
Cu1A Cu 0.13915(2) 0.93769(2) 0.60397(2)
Cu2A Cu 0.18607(2) 0.91632(2) 0.63811(2)
O1A O 0.22124(6) 0.93808(7) 0.61600(4)
O2A O 0.18073(7) 0.96138(7) 0.58915(4)
O3A O 0.22185(7) 1.04343(7) 0.52528(4)
O4A O 0.28032(7) 1.06237(7) 0.52473(4)
O5A O 0.22570(9) 0.90037(8) 0.66472(5)
O6A O 0.10157(8) 0.95531(13) 0.57673(5)
O7A O 0.75024(8) 0.86906(7) 0.52536(4)
O8A O 0.80764(7) 0.88894(7) 0.52504(4)
O9A O 0.89214(7) 0.84692(7) 0.58854(4)
O10A O 0.87107(6) 0.81142(7) 0.61912(4)
O13A O 0.53597(7) 0.67585(7) 0.84751(4)
O14A O 0.52012(6) 0.63281(7) 0.87442(5)
O15A O 0.39552(6) 0.58984(7) 0.87628(4)
O16A O 0.35653(7) 0.60283(7) 0.84539(4)
N1A N 0.34254(11) 0.96700(17) 0.57966(9)
N2A N 0.37108(16) 0.9848(2) 0.57302(16)
N3A N 0.39878(15) 0.9667(3) 0.57993(18)
N4A N 0.73900(10) 0.78968(13) 0.59906(8)
N5A N 0.74287(13) 0.76185(17) 0.61384(12)
N6A N 0.70992(14) 0.7546(2) 0.62128(13)
N7A N 0.43103(11) 0.68050(15) 0.78819(8)
N8A N 0.39797(14) 0.6800(2) 0.77852(10)
N9A N 0.40094(15) 0.6987(2) 0.75798(11)
C1A C 0.21278(11) 0.95689(10) 0.59739(7)
C2A C 0.24337(11) 0.97359(11) 0.58323(7)
C3A C 0.23605(11) 0.99854(10) 0.56413(7)
H1A H 0.2116 1.0041 0.5600
C4A C 0.26371(10) 1.01475(11) 0.55154(7)
C5A C 0.29882(12) 1.00499(15) 0.55577(8)
H2A H 0.3180 1.0155 0.5465
C6A C 0.30630(12) 0.97886(16) 0.57429(10)
C7A C 0.27856(12) 0.96399(13) 0.58797(8)
H3A H 0.2839 0.9471 0.6006
C8A C 0.25395(12) 1.04250(12) 0.53272(7)
C9A C 0.35194(15) 0.9400(2) 0.59184(13)
H4A H 0.3359 0.9238 0.6000
C10A C 0.38818(18) 0.9375(3) 0.59170(15)
C11A C 0.41309(16) 0.9071(3) 0.60048(16)
C12A C 0.44753(19) 0.9077(3) 0.5994(2)
H5A H 0.4585 0.9266 0.5901
C13A C 0.47007(19) 0.8830(4) 0.6107(2)
H6A H 0.4956 0.8856 0.6090
C14A C 0.45680(17) 0.8553(3) 0.62397(17)
C15A C 0.41884(19) 0.8510(3) 0.62288(18)
H7A H 0.4074 0.8302 0.6297
C16A C 0.3984(2) 0.8780(3) 0.61145(19)
H8A H 0.3727 0.8757 0.6114
C17A C 0.47983(16) 0.8271(3) 0.63657(16)
C18A C 0.51441(16) 0.8179(3) 0.62780(16)
H9A H 0.5223 0.8274 0.6125
C19A C 0.53674(16) 0.7960(3) 0.64057(16)
C20A C 0.52206(17) 0.7782(3) 0.66110(17)
H10A H 0.5378 0.7647 0.6715
C21A C 0.48641(16) 0.7797(3) 0.66645(15)
C22A C 0.46527(16) 0.8087(3) 0.65554(15)
H11A H 0.4418 0.8146 0.6616
C23A C 0.57392(16) 0.7898(3) 0.63385(19)
C24A C 0.5884(2) 0.8064(3) 0.61513(16)
H12A H 0.5734 0.8201 0.6045
C25A C 0.62653(18) 0.8042(3) 0.61033(17)
H13A H 0.6368 0.8217 0.5995
C26A C 0.64767(17) 0.7805(3) 0.61952(14)
C27A C 0.6302(2) 0.7563(4) 0.6336(2)
H14A H 0.6421 0.7344 0.6381
C28A C 0.5965(2) 0.7624(4) 0.6415(2)
H15A H 0.5872 0.7462 0.6535
C29A C 0.68657(13) 0.7790(2) 0.61310(13)
C30A C 0.70398(14) 0.79941(18) 0.59787(11)
H16A H 0.6939 0.8178 0.5877
C31A C 0.76924(11) 0.80760(13) 0.58667(9)
C32A C 0.76281(11) 0.82654(12) 0.56544(7)
H17A H 0.7393 0.8264 0.5582
C33A C 0.79025(10) 0.84546(10) 0.55488(6)
C34A C 0.82466(11) 0.84528(10) 0.56502(6)
H18A H 0.8437 0.8585 0.5574
C35A C 0.83157(10) 0.82565(10) 0.58665(6)
C36A C 0.80354(12) 0.80700(12) 0.59728(7)
H19A H 0.8075 0.7936 0.6119
C37A C 0.78280(11) 0.87001(11) 0.53326(6)
C38A C 0.86756(10) 0.82829(10) 0.59893(7)
C39A C 0.47328(15) 0.7612(3) 0.68981(14)
C40A C 0.49605(15) 0.7533(3) 0.70844(14)
H20A H 0.5208 0.7607 0.7077
C41A C 0.48342(16) 0.7344(2) 0.72869(13)
H21A H 0.5004 0.7255 0.7403
C42A C 0.44820(16) 0.7284(3) 0.73233(13)
C43A C 0.42349(17) 0.7331(3) 0.71198(15)
H22A H 0.3993 0.7241 0.7127
C44A C 0.43641(18) 0.7517(3) 0.69100(14)
H23A H 0.4204 0.7577 0.6780
C45A C 0.43483(15) 0.7085(2) 0.75419(12)
C46A C 0.45398(13) 0.69600(17) 0.77307(10)
H24A H 0.4795 0.6979 0.7752
C47A C 0.43842(13) 0.66239(14) 0.81071(8)
C48A C 0.47210(12) 0.66542(12) 0.82143(7)
H25A H 0.4906 0.6793 0.8138
C49A C 0.47897(10) 0.64805(10) 0.84354(7)
C50A C 0.45168(11) 0.62725(10) 0.85466(7)
H26A H 0.4564 0.6149 0.8696
C51A C 0.41790(11) 0.62476(11) 0.84382(7)
C52A C 0.41049(12) 0.64186(13) 0.82122(7)
H27A H 0.3875 0.6395 0.8135
C53A C 0.51379(10) 0.65258(10) 0.85599(7)
C54A C 0.38639(12) 0.60426(10) 0.85603(7)
Cu1C Cu 0.86085(2) 0.06231(2) 0.60397(2)
Cu1L Cu 0.56231(2) 0.63915(2) 0.89603(2)
Cu1M Cu 0.36085(2) 0.56231(2) 0.89603(2)
Cu1O Cu 0.63915(2) 0.43769(2) 0.89603(2)
Cu2C Cu 0.81393(2) 0.08368(2) 0.63811(2)
Cu2L Cu 0.58368(2) 0.68607(2) 0.86189(2)
Cu2M Cu 0.31393(2) 0.58368(2) 0.86189(2)
Cu2O Cu 0.68607(2) 0.41632(2) 0.86189(2)
Cu3A Cu 0.72961(2) 0.90057(2) 0.5000
Cu3B Cu 1.09943(2) 0.72961(2) 0.5000
Cu3C Cu 0.27039(2) 1.09943(2) 0.5000
Cu4A Cu 0.79762(2) 0.92499(2) 0.5000
Cu4B Cu 1.07501(2) 0.79762(2) 0.5000
Cu4C Cu 0.20238(2) 1.07501(2) 0.5000
O3B O 0.95657(7) 0.22185(7) 0.52528(4)
O3H O 0.95657(7) 0.22185(7) 0.47472(4)
O4B O 0.93763(7) 0.28032(7) 0.52473(4)
O4H O 0.93763(7) 0.28032(7) 0.47527(4)
O7J O 0.86906(7) 0.24976(8) 0.47464(4)
O8J O 0.88894(7) 0.19236(7) 0.47496(4)
O9B O 0.15308(7) 0.89214(7) 0.58854(4)
O10B O 0.18858(7) 0.87107(6) 0.61912(4)
O13M O 0.96403(7) 0.82415(7) 0.65249(4)
O13N O 0.17585(7) 0.96403(7) 0.65249(4)
O14M O 0.97988(6) 0.86719(7) 0.62558(5)
O14N O 0.13281(7) 0.97988(6) 0.62558(5)
O15L O 0.91016(7) 0.89552(6) 0.62372(4)
O15M O 0.10448(6) 0.91016(7) 0.62372(4)
O16L O 0.89717(7) 0.85653(7) 0.65461(4)
O16M O 0.14347(7) 0.89717(7) 0.65461(4)
loop_
_geom_bond_atom_site_label_1
_geom_bond_atom_site_label_2
_geom_bond_site_symmetry_1
_geom_bond_site_symmetry_2
Cu1 Cu2 1_555 1_555
Cu2 O1 1_555 1_555
Cu3 Cu4 1_555 1_555
Cu4 O8 1_555 1_555
O1 C1 1_555 1_555
O2 Cu1 1_555 1_555
O3 C8 1_555 1_555
O4 C8 1_555 1_555
O5 Cu2 1_555 1_555
O6 Cu1 1_555 1_555
O7 Cu3 1_555 1_555
O8 C37 1_555 1_555
O9 C38 1_555 1_555
O10 C38 1_555 1_555
O11 Cu3 1_555 1_555
O12 Cu4 1_555 1_555
O13 C53 1_555 1_555
O14 C53 1_555 1_555
O15 C54 1_555 1_555
O16 C54 1_555 1_555
N1 N2 1_555 1_555
N2 N3 1_555 1_555
N3 C10 1_555 1_555
N4 N5 1_555 1_555
N5 N6 1_555 1_555
N6 C29 1_555 1_555
N7 N8 1_555 1_555
N8 N9 1_555 1_555
N9 C45 1_555 1_555
C1 O2 1_555 1_555
C2 C1 1_555 1_555
C3 C2 1_555 1_555
H1 C3 1_555 1_555
C4 C3 1_555 1_555
C5 C4 1_555 1_555
H2 C5 1_555 1_555
C6 N1 1_555 1_555
C7 C2 1_555 1_555
H3 C7 1_555 1_555
C8 C4 1_555 1_555
C9 N1 1_555 1_555
H4 C9 1_555 1_555
C10 C9 1_555 1_555
C11 C10 1_555 1_555
C12 C11 1_555 1_555
H5 C12 1_555 1_555
C13 C12 1_555 1_555
H6 C13 1_555 1_555
C14 C13 1_555 1_555
C15 C14 1_555 1_555
H7 C15 1_555 1_555
C16 C11 1_555 1_555
H8 C16 1_555 1_555
C17 C14 1_555 1_555
C18 C17 1_555 1_555
H9 C18 1_555 1_555
C19 C18 1_555 1_555
C20 C19 1_555 1_555
H10 C20 1_555 1_555
C21 C20 1_555 1_555
C22 C17 1_555 1_555
H11 C22 1_555 1_555
C23 C19 1_555 1_555
C24 C23 1_555 1_555
H12 C24 1_555 1_555
C25 C24 1_555 1_555
H13 C25 1_555 1_555
C26 C25 1_555 1_555
C27 C26 1_555 1_555
H14 C27 1_555 1_555
C28 C23 1_555 1_555
H15 C28 1_555 1_555
C29 C26 1_555 1_555
C30 N4 1_555 1_555
H16 C30 1_555 1_555
C31 N4 1_555 1_555
C32 C31 1_555 1_555
H17 C32 1_555 1_555
C33 C32 1_555 1_555
C34 C33 1_555 1_555
H18 C34 1_555 1_555
C35 C34 1_555 1_555
C36 C31 1_555 1_555
H19 C36 1_555 1_555
C37 O7 1_555 1_555
C38 C35 1_555 1_555
C39 C21 1_555 1_555
C40 C39 1_555 1_555
H20 C40 1_555 1_555
C41 C40 1_555 1_555
H21 C41 1_555 1_555
C42 C41 1_555 1_555
C43 C42 1_555 1_555
H22 C43 1_555 1_555
C44 C39 1_555 1_555
H23 C44 1_555 1_555
C45 C42 1_555 1_555
C46 N7 1_555 1_555
H24 C46 1_555 1_555
C47 N7 1_555 1_555
C48 C47 1_555 1_555
H25 C48 1_555 1_555
C49 C48 1_555 1_555
C50 C49 1_555 1_555
H26 C50 1_555 1_555
C51 C50 1_555 1_555
C52 C47 1_555 1_555
H27 C52 1_555 1_555
C53 C49 1_555 1_555
C54 C51 1_555 1_555
Cu1A Cu2A 1_555 1_555
Cu2A O1A 1_555 1_555
O1A C1A 1_555 1_555
O2A Cu1A 1_555 1_555
O3A C8A 1_555 1_555
O4A C8A 1_555 1_555
O5A Cu2A 1_555 1_555
O6A Cu1A 1_555 1_555
O7A C37A 1_555 1_555
O8A C37A 1_555 1_555
O9A Cu1 1_555 1_555
O10A Cu2 1_555 1_555
O13A C53A 1_555 1_555
O14A C53A 1_555 1_555
O15A C54A 1_555 1_555
O16A C54A 1_555 1_555
N1A N2A 1_555 1_555
N2A N3A 1_555 1_555
N3A C10A 1_555 1_555
N4A N5A 1_555 1_555
N5A N6A 1_555 1_555
N6A C29A 1_555 1_555
N7A N8A 1_555 1_555
N8A N9A 1_555 1_555
N9A C45A 1_555 1_555
C1A O2A 1_555 1_555
C2A C1A 1_555 1_555
C3A C2A 1_555 1_555
H1A C3A 1_555 1_555
C4A C3A 1_555 1_555
C5A C4A 1_555 1_555
H2A C5A 1_555 1_555
C6A N1A 1_555 1_555
C7A C2A 1_555 1_555
H3A C7A 1_555 1_555
C8A C4A 1_555 1_555
C9A N1A 1_555 1_555
H4A C9A 1_555 1_555
C10A C9A 1_555 1_555
C11A C10A 1_555 1_555
C12A C11A 1_555 1_555
H5A C12A 1_555 1_555
C13A C12A 1_555 1_555
H6A C13A 1_555 1_555
C14A C13A 1_555 1_555
C15A C14A 1_555 1_555
H7A C15A 1_555 1_555
C16A C11A 1_555 1_555
H8A C16A 1_555 1_555
C17A C14A 1_555 1_555
C18A C17A 1_555 1_555
H9A C18A 1_555 1_555
C19A C18A 1_555 1_555
C20A C19A 1_555 1_555
H10A C20A 1_555 1_555
C21A C20A 1_555 1_555
C22A C17A 1_555 1_555
H11A C22A 1_555 1_555
C23A C19A 1_555 1_555
C24A C23A 1_555 1_555
H12A C24A 1_555 1_555
C25A C24A 1_555 1_555
H13A C25A 1_555 1_555
C26A C25A 1_555 1_555
C27A C26A 1_555 1_555
H14A C27A 1_555 1_555
C28A C23A 1_555 1_555
H15A C28A 1_555 1_555
C29A C26A 1_555 1_555
C30A N4A 1_555 1_555
H16A C30A 1_555 1_555
C31A N4A 1_555 1_555
C32A C31A 1_555 1_555
H17A C32A 1_555 1_555
C33A C32A 1_555 1_555
C34A C33A 1_555 1_555
H18A C34A 1_555 1_555
C35A C34A 1_555 1_555
C36A C31A 1_555 1_555
H19A C36A 1_555 1_555
C37A C33A 1_555 1_555
C38A O9A 1_555 1_555
C39A C21A 1_555 1_555
C40A C39A 1_555 1_555
H20A C40A 1_555 1_555
C41A C40A 1_555 1_555
H21A C41A 1_555 1_555
C42A C41A 1_555 1_555
C43A C42A 1_555 1_555
H22A C43A 1_555 1_555
C44A C39A 1_555 1_555
H23A C44A 1_555 1_555
C45A C42A 1_555 1_555
C46A N7A 1_555 1_555
H24A C46A 1_555 1_555
C47A N7A 1_555 1_555
C48A C47A 1_555 1_555
H25A C48A 1_555 1_555
C49A C48A 1_555 1_555
C50A C49A 1_555 1_555
H26A C50A 1_555 1_555
C51A C50A 1_555 1_555
C52A C47A 1_555 1_555
H27A C52A 1_555 1_555
C53A C49A 1_555 1_555
C54A C51A 1_555 1_555
Cu1C O9 1_555 1_555
Cu1L O15 1_555 1_555
Cu1M O15A 1_555 1_555
Cu1O O14 1_555 1_555
Cu2C O10 1_555 1_555
Cu2L O16 1_555 1_555
Cu2M O16A 1_555 1_555
Cu2O O13 1_555 1_555
Cu3A O7A 1_555 1_555
Cu3B O4 1_555 1_555
Cu3C O4A 1_555 1_555
Cu4A O8A 1_555 1_555
Cu4B O3 1_555 1_555
Cu4C O3A 1_555 1_555
O3B Cu4 1_555 1_555
O3H Cu4 1_555 1_555
O4B Cu3 1_555 1_555
O4H Cu3 1_555 1_555
O7J Cu3 1_555 1_555
O8J Cu4 1_555 1_555
O9B Cu1A 1_555 1_555
O10B Cu2A 1_555 1_555
O13M Cu2 1_555 1_555
O13N Cu2A 1_555 1_555
O14M Cu1 1_555 1_555
O14N Cu1A 1_555 1_555
O15L Cu1 1_555 1_555
O15M Cu1A 1_555 1_555
O16L Cu2 1_555 1_555
O16M Cu2A 1_555 1_555
C5 C6 1_555 1_555
C6 C7 1_555 1_555
C15 C16 1_555 1_555
C21 C22 1_555 1_555
C27 C28 1_555 1_555
C29 C30 1_555 1_555
C33 C37 1_555 1_555
C35 C36 1_555 1_555
C43 C44 1_555 1_555
C45 C46 1_555 1_555
C51 C52 1_555 1_555
O10A C38A 1_555 1_555
O13A Cu2L 1_555 1_555
O14A Cu1L 1_555 1_555
C5A C6A 1_555 1_555
C6A C7A 1_555 1_555
C15A C16A 1_555 1_555
C21A C22A 1_555 1_555
C27A C28A 1_555 1_555
C29A C30A 1_555 1_555
C35A C36A 1_555 1_555
C35A C38A 1_555 1_555
C43A C44A 1_555 1_555
C45A C46A 1_555 1_555
C51A C52A 1_555 1_555
Cu1C Cu2C 1_555 1_555
Cu1L Cu2L 1_555 1_555
Cu1M Cu2M 1_555 1_555
Cu1O Cu2O 1_555 1_555
Cu3A Cu4A 1_555 1_555
Cu3B Cu4B 1_555 1_555
Cu3C Cu4C 1_555 1_555

#END
