
#######################################################################
#
#                 Cambridge Crystallographic Data Centre
#                                CCDC 
#
#######################################################################
#
# If this CIF has been generated from an entry in the Cambridge 
# Structural Database, then it will include bibliographic, chemical, 
# crystal, experimental, refinement or atomic coordinate data resulting 
# from the CCDC's data processing and validation procedures.
#
#######################################################################

data_PODKOK
_symmetry_cell_setting           tetragonal
_symmetry_space_group_name_H-M   'I 4/m'
_symmetry_Int_Tables_number      87
_space_group_name_Hall           '-I 4'
loop_
_symmetry_equiv_pos_site_id
_symmetry_equiv_pos_as_xyz
1 x,y,z
2 -x,-y,z
3 -y,x,z
4 y,-x,z
5 1/2+x,1/2+y,1/2+z
6 1/2-x,1/2-y,1/2+z
7 1/2-y,1/2+x,1/2+z
8 1/2+y,1/2-x,1/2+z
9 -x,-y,-z
10 x,y,-z
11 y,-x,-z
12 -y,x,-z
13 1/2-x,1/2-y,1/2-z
14 1/2+x,1/2+y,1/2-z
15 1/2+y,1/2-x,1/2-z
16 1/2-y,1/2+x,1/2-z
_cell_length_a                   34.6853(6)
_cell_length_b                   34.6853(6)
_cell_length_c                   50.6917(13)
_cell_angle_alpha                90
_cell_angle_beta                 90
_cell_angle_gamma                90
_cell_volume                     60985.7
loop_
_atom_site_label
_atom_site_type_symbol
_atom_site_fract_x
_atom_site_fract_y
_atom_site_fract_z
Cu1 Cu 0.08862(3) 0.29021(2) 1.0000
Cu2 Cu 0.06661(3) 0.21673(2) 1.0000
Cu3 Cu 0.14372(2) 0.07323(2) 0.88719(2)
Cu4 Cu 0.19229(2) 0.09868(2) 0.85052(2)
O1 O 0.12320(10) 0.27085(10) 0.97240(6)
O2 O 0.10530(9) 0.20849(8) 0.97254(5)
O3 O 0.15598(9) 0.12162(8) 0.90469(6)
O4 O 0.19217(9) 0.14605(9) 0.87146(6)
O5 O 0.11173(17) 0.34774(13) 1.0000
O6 O 0.04589(17) 0.15768(15) 1.0000
O7 O 0.10613(11) 0.04895(15) 0.91680(7)
O8 O 0.23068(12) 0.11976(11) 0.82105(8)
O9 O -0.04839(10) 0.70114(9) 0.97322(6)
O10 O -0.03144(10) 0.76391(9) 0.97260(6)
O11 O 0.05114(8) 0.81014(9) 0.90263(6)
O12 O 0.07762(9) 0.76842(8) 0.87424(6)
O13 O 0.38385(9) 0.64543(10) 0.66719(6)
O14 O 0.39938(9) 0.60518(8) 0.63406(6)
O15 O 0.36090(8) 0.47161(8) 0.63595(6)
O16 O 0.31535(9) 0.45237(8) 0.66528(6)
N1 N 0.2106(2) 0.28651(14) 0.89563(13)
N2 N 0.2445(3) 0.28469(19) 0.8843(2)
N3 N 0.2543(3) 0.3199(2) 0.8782(2)
N4 N 0.0600(3) 0.64098(15) 0.91948(13)
N5 N 0.0527(4) 0.6132(2) 0.9353(2)
N6 N 0.0722(5) 0.5839(2) 0.9288(2)
N7 N 0.2247(4) 0.50343(18) 0.8675(2)
N8 N 0.3110(3) 0.56239(15) 0.73124(13)
N9 N 0.3140(5) 0.5945(2) 0.74353(19)
N10 N 0.2983(4) 0.5921(2) 0.76588(18)
C1 C 0.12229(14) 0.23736(13) 0.96400(8)
C2 C 0.15005(14) 0.22865(14) 0.94042(9)
C3 C 0.15240(13) 0.19255(13) 0.92977(9)
H1 H 0.1387 0.1717 0.9375
C4 C 0.17508(13) 0.18647(13) 0.90744(9)
C5 C 0.19431(16) 0.21598(16) 0.89634(12)
H2 H 0.2087 0.2120 0.8806
C6 C 0.1931(2) 0.25306(16) 0.90816(13)
C7 C 0.16990(17) 0.25893(15) 0.93015(11)
H3 H 0.1679 0.2838 0.9379
C8 C 0.17343(13) 0.14790(12) 0.89288(9)
C9 C 0.2001(3) 0.3212(2) 0.89759(16)
H4 H 0.1779 0.3311 0.9063
C10 C 0.2282(3) 0.3416(2) 0.8842(2)
C11 C 0.2243(4) 0.3855(2) 0.8793(2)
C12 C 0.1924(4) 0.4050(3) 0.8816(3)
H5 H 0.1696 0.3923 0.8872
C13 C 0.1914(4) 0.4425(3) 0.8765(2)
H6 H 0.1672 0.4553 0.8769
C14 C 0.2227(4) 0.4630(2) 0.8706(2)
C15 C 0.2552(4) 0.4445(3) 0.8693(3)
H7 H 0.2780 0.4580 0.8647
C16 C 0.2569(4) 0.4038(3) 0.8748(3)
H8 H 0.2809 0.3906 0.8752
C17 C -0.03087(15) 0.73004(14) 0.96508(8)
C18 C 0.00017(17) 0.72112(13) 0.94494(9)
C19 C 0.0134(2) 0.68420(17) 0.94084(12)
H9 H 0.0025 0.6632 0.9502
C20 C 0.0439(3) 0.67776(17) 0.92226(13)
C21 C 0.0571(2) 0.70807(15) 0.90662(12)
H10 H 0.0763 0.7036 0.8936
C22 C 0.04244(15) 0.74414(14) 0.91000(9)
C23 C 0.01552(14) 0.75102(14) 0.92968(9)
H11 H 0.0073 0.7767 0.9329
C24 C 0.05649(13) 0.77770(13) 0.89348(9)
C25 C 0.0873(4) 0.6301(2) 0.9038(2)
H12 H 0.1000 0.6458 0.8912
C26 C 0.0947(5) 0.5920(3) 0.9085(2)
C27 C 0.1328(4) 0.5697(2) 0.8986(2)
C28 C 0.1405(5) 0.5754(3) 0.8748(2)
H13 H 0.1269 0.5940 0.8647
C29 C 0.1683(5) 0.5545(4) 0.8643(3)
H14 H 0.1751 0.5603 0.8466
C30 C 0.1884(4) 0.5253(2) 0.8762(2)
C31 C 0.1793(5) 0.5196(4) 0.9013(3)
H15 H 0.1922 0.5004 0.9113
C32 C 0.1501(5) 0.5426(4) 0.9129(2)
H16 H 0.1430 0.5386 0.9307
C33 C 0.38415(12) 0.61337(13) 0.65527(9)
C34 C 0.36505(14) 0.58056(13) 0.66970(9)
C35 C 0.34967(19) 0.58608(15) 0.69355(11)
H17 H 0.3520 0.6103 0.7021
C36 C 0.3295(2) 0.55490(17) 0.70603(12)
C37 C 0.32694(17) 0.51921(15) 0.69445(11)
H18 H 0.3146 0.4984 0.7032
C38 C 0.34298(13) 0.51448(13) 0.66953(9)
C39 C 0.36263(12) 0.54447(13) 0.65760(8)
H19 H 0.3746 0.5405 0.6410
C40 C 0.33828(13) 0.47527(12) 0.65482(9)
C41 C 0.2722(4) 0.5434(2) 0.7956(2)
C42 C 0.2539(5) 0.5106(3) 0.7947(2)
H20 H 0.2515 0.4969 0.7785
C43 C 0.2382(5) 0.4962(3) 0.8177(3)
H21 H 0.2264 0.4715 0.8175
C44 C 0.2392(4) 0.5164(2) 0.8404(2)
C45 C 0.2555(6) 0.5505(3) 0.8397(2)
H22 H 0.2572 0.5654 0.8553
C46 C 0.2702(6) 0.5649(2) 0.8167(2)
H23 H 0.2791 0.5908 0.8161
C47 C 0.2957(3) 0.53902(19) 0.74736(17)
H24 H 0.2900 0.5127 0.7439
C48 C 0.2890(4) 0.5573(2) 0.76987(19)
Cu3A Cu -0.14372(2) 0.92677(2) 0.88719(2)
Cu4A Cu -0.19229(2) 0.90132(2) 0.85052(2)
O1A O -0.12320(10) 0.72915(10) 0.97240(6)
O2A O -0.10530(9) 0.79151(8) 0.97254(5)
O3A O -0.15598(9) 0.87838(8) 0.90469(6)
O4A O -0.19217(9) 0.85395(9) 0.87146(6)
O7A O -0.10613(11) 0.95105(15) 0.91680(7)
O8A O -0.23068(12) 0.88024(11) 0.82105(8)
O9A O 0.04839(10) 0.29886(9) 0.97322(6)
O10A O 0.03144(10) 0.23609(9) 0.97260(6)
O11A O -0.05114(8) 0.18986(9) 0.90263(6)
O12A O -0.07762(9) 0.23158(8) 0.87424(6)
O13A O -0.38385(9) 0.35457(10) 0.66719(6)
O14A O -0.39938(9) 0.39482(8) 0.63406(6)
O15A O -0.36090(8) 0.52839(8) 0.63595(6)
O16A O -0.31535(9) 0.54763(8) 0.66528(6)
N1A N -0.2106(2) 0.71349(14) 0.89563(13)
N2A N -0.2445(3) 0.71531(19) 0.8843(2)
N3A N -0.2543(3) 0.6801(2) 0.8782(2)
N4A N -0.0600(3) 0.35902(15) 0.91948(13)
N5A N -0.0527(4) 0.3868(2) 0.9353(2)
N6A N -0.0722(5) 0.4161(2) 0.9288(2)
N7A N -0.2247(4) 0.49657(18) 0.8675(2)
N8A N -0.3110(3) 0.43761(15) 0.73124(13)
N9A N -0.3140(5) 0.4055(2) 0.74353(19)
N10A N -0.2983(4) 0.4079(2) 0.76588(18)
C1A C -0.12229(14) 0.76264(13) 0.96400(8)
C2A C -0.15005(14) 0.77135(14) 0.94042(9)
C3A C -0.15240(13) 0.80745(13) 0.92977(9)
H1A H -0.1387 0.8283 0.9375
C4A C -0.17508(13) 0.81353(13) 0.90744(9)
C5A C -0.19431(16) 0.78402(16) 0.89634(12)
H2A H -0.2087 0.7880 0.8806
C6A C -0.1931(2) 0.74694(16) 0.90816(13)
C7A C -0.16990(17) 0.74107(15) 0.93015(11)
H3A H -0.1679 0.7162 0.9379
C8A C -0.17343(13) 0.85210(12) 0.89288(9)
C9A C -0.2001(3) 0.6788(2) 0.89759(16)
H4A H -0.1779 0.6689 0.9063
C10A C -0.2282(3) 0.6584(2) 0.8842(2)
C11A C -0.2243(4) 0.6145(2) 0.8793(2)
C12A C -0.1924(4) 0.5950(3) 0.8816(3)
H5A H -0.1696 0.6077 0.8872
C13A C -0.1914(4) 0.5575(3) 0.8765(2)
H6A H -0.1672 0.5447 0.8769
C14A C -0.2227(4) 0.5370(2) 0.8706(2)
C15A C -0.2552(4) 0.5555(3) 0.8693(3)
H7A H -0.2780 0.5420 0.8647
C16A C -0.2569(4) 0.5962(3) 0.8748(3)
H8A H -0.2809 0.6094 0.8752
C17A C 0.03087(15) 0.26996(14) 0.96508(8)
C18A C -0.00017(17) 0.27888(13) 0.94494(9)
C19A C -0.0134(2) 0.31580(17) 0.94084(12)
H9A H -0.0025 0.3368 0.9502
C20A C -0.0439(3) 0.32224(17) 0.92226(13)
C21A C -0.0571(2) 0.29193(15) 0.90662(12)
H10A H -0.0763 0.2964 0.8936
C22A C -0.04244(15) 0.25586(14) 0.91000(9)
C23A C -0.01552(14) 0.24898(14) 0.92968(9)
H11A H -0.0073 0.2233 0.9329
C24A C -0.05649(13) 0.22230(13) 0.89348(9)
C25A C -0.0873(4) 0.3699(2) 0.9038(2)
H12A H -0.1000 0.3542 0.8912
C26A C -0.0947(5) 0.4080(3) 0.9085(2)
C27A C -0.1328(4) 0.4303(2) 0.8986(2)
C28A C -0.1405(5) 0.4246(3) 0.8748(2)
H13A H -0.1269 0.4060 0.8647
C29A C -0.1683(5) 0.4455(4) 0.8643(3)
H14A H -0.1751 0.4397 0.8466
C30A C -0.1884(4) 0.4747(2) 0.8762(2)
C31A C -0.1793(5) 0.4804(4) 0.9013(3)
H15A H -0.1922 0.4996 0.9113
C32A C -0.1501(5) 0.4574(4) 0.9129(2)
H16A H -0.1430 0.4614 0.9307
C33A C -0.38415(12) 0.38663(13) 0.65527(9)
C34A C -0.36505(14) 0.41944(13) 0.66970(9)
C35A C -0.34967(19) 0.41392(15) 0.69355(11)
H17A H -0.3520 0.3897 0.7021
C36A C -0.3295(2) 0.44510(17) 0.70603(12)
C37A C -0.32694(17) 0.48079(15) 0.69445(11)
H18A H -0.3146 0.5016 0.7032
C38A C -0.34298(13) 0.48552(13) 0.66953(9)
C39A C -0.36263(12) 0.45553(13) 0.65760(8)
H19A H -0.3746 0.4595 0.6410
C40A C -0.33828(13) 0.52473(12) 0.65482(9)
C41A C -0.2722(4) 0.4566(2) 0.7956(2)
C42A C -0.2539(5) 0.4894(3) 0.7947(2)
H20A H -0.2515 0.5031 0.7785
C43A C -0.2382(5) 0.5038(3) 0.8177(3)
H21A H -0.2264 0.5285 0.8175
C44A C -0.2392(4) 0.4836(2) 0.8404(2)
C45A C -0.2555(6) 0.4495(3) 0.8397(2)
H22A H -0.2572 0.4346 0.8553
C46A C -0.2702(6) 0.4351(2) 0.8167(2)
H23A H -0.2791 0.4092 0.8161
C47A C -0.2957(3) 0.46098(19) 0.74736(17)
H24A H -0.2900 0.4873 0.7439
C48A C -0.2890(4) 0.4427(2) 0.76987(19)
Cu1A Cu -0.08862(3) 0.70979(2) 1.0000
Cu2A Cu -0.06661(3) 0.78327(2) 1.0000
Cu3B Cu -0.07323(2) 0.14372(2) 0.88719(2)
Cu3C Cu 0.07323(2) 0.85628(2) 0.88719(2)
Cu3L Cu 0.35628(2) 0.42677(2) 0.61281(2)
Cu3M Cu -0.35628(2) 0.57323(2) 0.61281(2)
Cu3N Cu -0.42677(2) 0.35628(2) 0.61281(2)
Cu3O Cu 0.42677(2) 0.64372(2) 0.61281(2)
Cu4B Cu -0.09868(2) 0.19229(2) 0.85052(2)
Cu4C Cu 0.09868(2) 0.80771(2) 0.85052(2)
Cu4L Cu 0.30771(2) 0.40132(2) 0.64948(2)
Cu4M Cu -0.30771(2) 0.59868(2) 0.64948(2)
Cu4N Cu -0.40132(2) 0.30771(2) 0.64948(2)
Cu4O Cu 0.40132(2) 0.69229(2) 0.64948(2)
O1I O 0.12320(10) 0.27085(10) 1.02760(6)
O2I O 0.10530(9) 0.20849(8) 1.02746(5)
O9H O 0.04839(10) 0.29886(9) 1.02678(6)
O10H O 0.03144(10) 0.23609(9) 1.02740(6)
O11B O 0.18986(9) 0.05114(8) 0.90263(6)
O11C O -0.18986(9) 0.94886(8) 0.90263(6)
O12B O 0.23158(8) 0.07762(9) 0.87424(6)
O12C O -0.23158(8) 0.92238(9) 0.87424(6)
O13N O 0.14543(10) 0.11615(9) 0.83281(6)
O13O O -0.14543(10) 0.88385(9) 0.83281(6)
O14N O 0.10518(8) 0.10062(9) 0.86594(6)
O14O O -0.10518(8) 0.89938(9) 0.86594(6)
O15L O 0.13910(8) 0.02839(8) 0.86405(6)
O15M O -0.13910(8) 0.97161(8) 0.86405(6)
O16L O 0.18465(9) 0.04763(8) 0.83472(6)
O16M O -0.18465(9) 0.95237(8) 0.83472(6)
loop_
_geom_bond_atom_site_label_1
_geom_bond_atom_site_label_2
_geom_bond_site_symmetry_1
_geom_bond_site_symmetry_2
Cu1 Cu2 1_555 1_555
Cu2 O2 1_555 1_555
Cu3 Cu4 1_555 1_555
Cu4 O4 1_555 1_555
O1 Cu1 1_555 1_555
O2 C1 1_555 1_555
O3 Cu3 1_555 1_555
O4 C8 1_555 1_555
O5 Cu1 1_555 1_555
O6 Cu2 1_555 1_555
O7 Cu3 1_555 1_555
O8 Cu4 1_555 1_555
O9 C17 1_555 1_555
O10 C17 1_555 1_555
O11 C24 1_555 1_555
O12 C24 1_555 1_555
O13 C33 1_555 1_555
O14 C33 1_555 1_555
O15 C40 1_555 1_555
O16 C40 1_555 1_555
N1 N2 1_555 1_555
N2 N3 1_555 1_555
N3 C10 1_555 1_555
N4 N5 1_555 1_555
N5 N6 1_555 1_555
N6 C26 1_555 1_555
N7 C14 1_555 1_555
N8 N9 1_555 1_555
N9 N10 1_555 1_555
N10 C48 1_555 1_555
C1 O1 1_555 1_555
C2 C1 1_555 1_555
C3 C2 1_555 1_555
H1 C3 1_555 1_555
C4 C3 1_555 1_555
C5 C4 1_555 1_555
H2 C5 1_555 1_555
C6 N1 1_555 1_555
C7 C2 1_555 1_555
H3 C7 1_555 1_555
C8 O3 1_555 1_555
C9 N1 1_555 1_555
H4 C9 1_555 1_555
C10 C9 1_555 1_555
C11 C10 1_555 1_555
C12 C11 1_555 1_555
H5 C12 1_555 1_555
C13 C12 1_555 1_555
H6 C13 1_555 1_555
C14 C13 1_555 1_555
C15 C14 1_555 1_555
H7 C15 1_555 1_555
C16 C11 1_555 1_555
H8 C16 1_555 1_555
C17 C18 1_555 1_555
C18 C19 1_555 1_555
C19 H9 1_555 1_555
C20 N4 1_555 1_555
C21 C20 1_555 1_555
H10 C21 1_555 1_555
C22 C21 1_555 1_555
C23 C18 1_555 1_555
H11 C23 1_555 1_555
C24 C22 1_555 1_555
C25 N4 1_555 1_555
H12 C25 1_555 1_555
C26 C25 1_555 1_555
C27 C26 1_555 1_555
C28 C27 1_555 1_555
H13 C28 1_555 1_555
C29 C28 1_555 1_555
H14 C29 1_555 1_555
C30 N7 1_555 1_555
C31 C30 1_555 1_555
H15 C31 1_555 1_555
C32 C27 1_555 1_555
H16 C32 1_555 1_555
C33 C34 1_555 1_555
C34 C35 1_555 1_555
C35 H17 1_555 1_555
C36 N8 1_555 1_555
C37 C36 1_555 1_555
H18 C37 1_555 1_555
C38 C37 1_555 1_555
C39 C34 1_555 1_555
H19 C39 1_555 1_555
C40 C38 1_555 1_555
C41 C42 1_555 1_555
C42 H20 1_555 1_555
C43 C42 1_555 1_555
H21 C43 1_555 1_555
C44 N7 1_555 1_555
C45 C44 1_555 1_555
H22 C45 1_555 1_555
C46 C41 1_555 1_555
H23 C46 1_555 1_555
C47 N8 1_555 1_555
H24 C47 1_555 1_555
C48 C41 1_555 1_555
Cu3A Cu4A 1_555 1_555
Cu4A O4A 1_555 1_555
O1A C1A 1_555 1_555
O2A C1A 1_555 1_555
O3A Cu3A 1_555 1_555
O4A C8A 1_555 1_555
O7A Cu3A 1_555 1_555
O8A Cu4A 1_555 1_555
O9A Cu1 1_555 1_555
O10A Cu2 1_555 1_555
O11A C24A 1_555 1_555
O12A C24A 1_555 1_555
O13A C33A 1_555 1_555
O14A C33A 1_555 1_555
O15A C40A 1_555 1_555
O16A C40A 1_555 1_555
N1A N2A 1_555 1_555
N2A N3A 1_555 1_555
N3A C10A 1_555 1_555
N4A N5A 1_555 1_555
N5A N6A 1_555 1_555
N6A C26A 1_555 1_555
N7A C14A 1_555 1_555
N8A N9A 1_555 1_555
N9A N10A 1_555 1_555
N10A C48A 1_555 1_555
C1A C2A 1_555 1_555
C2A C3A 1_555 1_555
C3A H1A 1_555 1_555
C4A C3A 1_555 1_555
C5A C4A 1_555 1_555
H2A C5A 1_555 1_555
C6A N1A 1_555 1_555
C7A C2A 1_555 1_555
H3A C7A 1_555 1_555
C8A O3A 1_555 1_555
C9A N1A 1_555 1_555
H4A C9A 1_555 1_555
C10A C9A 1_555 1_555
C11A C10A 1_555 1_555
C12A C11A 1_555 1_555
H5A C12A 1_555 1_555
C13A C12A 1_555 1_555
H6A C13A 1_555 1_555
C14A C13A 1_555 1_555
C15A C14A 1_555 1_555
H7A C15A 1_555 1_555
C16A C11A 1_555 1_555
H8A C16A 1_555 1_555
C17A O9A 1_555 1_555
C18A C17A 1_555 1_555
C19A C18A 1_555 1_555
H9A C19A 1_555 1_555
C20A N4A 1_555 1_555
C21A C20A 1_555 1_555
H10A C21A 1_555 1_555
C22A C21A 1_555 1_555
C23A C18A 1_555 1_555
H11A C23A 1_555 1_555
C24A C22A 1_555 1_555
C25A N4A 1_555 1_555
H12A C25A 1_555 1_555
C26A C25A 1_555 1_555
C27A C26A 1_555 1_555
C28A C27A 1_555 1_555
H13A C28A 1_555 1_555
C29A C28A 1_555 1_555
H14A C29A 1_555 1_555
C30A N7A 1_555 1_555
C31A C30A 1_555 1_555
H15A C31A 1_555 1_555
C32A C27A 1_555 1_555
H16A C32A 1_555 1_555
C33A C34A 1_555 1_555
C34A C35A 1_555 1_555
C35A H17A 1_555 1_555
C36A N8A 1_555 1_555
C37A C36A 1_555 1_555
H18A C37A 1_555 1_555
C38A C37A 1_555 1_555
C39A C34A 1_555 1_555
H19A C39A 1_555 1_555
C40A C38A 1_555 1_555
C41A C42A 1_555 1_555
C42A H20A 1_555 1_555
C43A C42A 1_555 1_555
H21A C43A 1_555 1_555
C44A N7A 1_555 1_555
C45A C44A 1_555 1_555
H22A C45A 1_555 1_555
C46A C41A 1_555 1_555
H23A C46A 1_555 1_555
C47A N8A 1_555 1_555
H24A C47A 1_555 1_555
C48A C41A 1_555 1_555
Cu1A O9 1_555 1_555
Cu2A O10 1_555 1_555
Cu3B O11A 1_555 1_555
Cu3C O11 1_555 1_555
Cu3L O15 1_555 1_555
Cu3M O15A 1_555 1_555
Cu3N O14A 1_555 1_555
Cu3O O14 1_555 1_555
Cu4B O12A 1_555 1_555
Cu4C O12 1_555 1_555
Cu4L O16 1_555 1_555
Cu4M O16A 1_555 1_555
Cu4N O13A 1_555 1_555
Cu4O O13 1_555 1_555
O1I Cu1 1_555 1_555
O2I Cu2 1_555 1_555
O9H Cu1 1_555 1_555
O10H Cu2 1_555 1_555
O11B Cu3 1_555 1_555
O11C Cu3A 1_555 1_555
O12B Cu4 1_555 1_555
O12C Cu4A 1_555 1_555
O13N Cu4 1_555 1_555
O13O Cu4A 1_555 1_555
O14N Cu3 1_555 1_555
O14O Cu3A 1_555 1_555
O15L Cu3 1_555 1_555
O15M Cu3A 1_555 1_555
O16L Cu4 1_555 1_555
O16M Cu4A 1_555 1_555
C4 C8 1_555 1_555
C5 C6 1_555 1_555
C6 C7 1_555 1_555
C15 C16 1_555 1_555
C19 C20 1_555 1_555
C22 C23 1_555 1_555
C29 C30 1_555 1_555
C31 C32 1_555 1_555
C35 C36 1_555 1_555
C38 C39 1_555 1_555
C43 C44 1_555 1_555
C45 C46 1_555 1_555
C47 C48 1_555 1_555
O1A Cu1A 1_555 1_555
O2A Cu2A 1_555 1_555
O10A C17A 1_555 1_555
C4A C8A 1_555 1_555
C5A C6A 1_555 1_555
C6A C7A 1_555 1_555
C15A C16A 1_555 1_555
C19A C20A 1_555 1_555
C22A C23A 1_555 1_555
C29A C30A 1_555 1_555
C31A C32A 1_555 1_555
C35A C36A 1_555 1_555
C38A C39A 1_555 1_555
C43A C44A 1_555 1_555
C45A C46A 1_555 1_555
C47A C48A 1_555 1_555
Cu1A Cu2A 1_555 1_555
Cu3B Cu4B 1_555 1_555
Cu3C Cu4C 1_555 1_555
Cu3L Cu4L 1_555 1_555
Cu3M Cu4M 1_555 1_555
Cu3N Cu4N 1_555 1_555
Cu3O Cu4O 1_555 1_555

#END
