
#######################################################################
#
#                 Cambridge Crystallographic Data Centre
#                                CCDC 
#
#######################################################################
#
# If this CIF has been generated from an entry in the Cambridge 
# Structural Database, then it will include bibliographic, chemical, 
# crystal, experimental, refinement or atomic coordinate data resulting 
# from the CCDC's data processing and validation procedures.
#
#######################################################################

data_PODMAX
_symmetry_cell_setting           monoclinic
_symmetry_space_group_name_H-M   'P 21/n'
_symmetry_Int_Tables_number      14
_space_group_name_Hall           '-P 2yn'
loop_
_symmetry_equiv_pos_site_id
_symmetry_equiv_pos_as_xyz
1 x,y,z
2 1/2-x,1/2+y,1/2-z
3 -x,-y,-z
4 1/2+x,1/2-y,1/2+z
_cell_length_a                   10.1122(5)
_cell_length_b                   18.9068(7)
_cell_length_c                   13.3503(5)
_cell_angle_alpha                90
_cell_angle_beta                 112.241(2)
_cell_angle_gamma                90
_cell_volume                     2362.53
loop_
_atom_site_label
_atom_site_type_symbol
_atom_site_fract_x
_atom_site_fract_y
_atom_site_fract_z
Cu1 Cu 0.26068(3) 0.469671(15) 0.29288(2)
Cu2 Cu 0.40469(3) 0.491597(15) 0.56472(2)
O1 O 0.38520(16) 0.52312(3) 0.42053(12)
H1 H 0.3640 0.5668 0.4129
O2 O 0.37469(17) 0.38473(9) 0.35256(12)
O3 O 0.34082(19) 0.38453(9) 0.51024(13)
O4 O 0.36772(17) 0.05199(9) 0.27104(13)
O5 O 0.22279(18) 0.14151(9) 0.18524(13)
O6 O 0.63940(19) 0.08103(10) 0.66757(13)
O7 O 0.56927(18) 0.16865(10) 0.75040(13)
N1 N 0.5382(2) 0.54369(11) 0.28435(15)
N2 N 0.4171(2) 0.51376(11) 0.20857(16)
N3 N 0.4854(2) 0.60324(11) 0.13355(15)
N4 N 0.7648(2) 0.93714(12) 0.07811(16)
N5 N 0.6734(2) 0.94616(12) 0.13189(18)
N6 N 0.6393(2) 0.83997(11) 0.05571(16)
C1 C 0.5769(2) 0.59659(14) 0.23849(18)
H4 H 0.6564 0.6258 0.2730
C2 C 0.3882(3) 0.55009(13) 0.11941(18)
H5 H 0.3108 0.5409 0.0543
C3 C 0.7438(3) 0.87378(14) 0.0350(2)
H6 H 0.7945 0.8546 -0.0048
C4 C 0.5986(3) 0.88746(15) 0.1161(2)
H7 H 0.5264 0.8791 0.1429
C5 C 0.4937(2) 0.65226(13) 0.04760(17)
C6 C 0.5663(2) 0.72204(13) 0.09990(18)
H8 H 0.5122 0.7445 0.1386
H9 H 0.6634 0.7127 0.1517
C7 C 0.5708(2) 0.77117(13) 0.00875(18)
C8 C 0.6570(3) 0.73540(14) -0.0501(2)
H10 H 0.6634 0.7670 -0.1063
H11 H 0.7542 0.7255 0.0013
C9 C 0.5834(3) 0.66597(14) -0.1017(2)
H12 H 0.6387 0.6432 -0.1402
C10 C 0.5778(3) 0.61616(14) -0.0120(2)
H13 H 0.6749 0.6055 0.0388
H14 H 0.5313 0.5716 -0.0439
C11 C 0.3412(2) 0.66785(14) -0.03202(19)
H15 H 0.2930 0.6236 -0.0636
H16 H 0.2867 0.6906 0.0062
C12 C 0.3472(3) 0.71702(15) -0.1224(2)
H17 H 0.2488 0.7266 -0.1742
C13 C 0.4187(3) 0.78707(14) -0.0720(2)
H18 H 0.4224 0.8190 -0.1287
H19 H 0.3635 0.8101 -0.0347
C14 C 0.4316(3) 0.68116(16) -0.1820(2)
H20 H 0.3847 0.6369 -0.2147
H21 H 0.4350 0.7120 -0.2400
C15 C 0.3710(2) 0.35469(13) 0.43742(17)
C16 C 0.3224(2) 0.11582(13) 0.26474(17)
C17 C 0.5770(2) 0.13964(13) 0.66935(18)
C18 C 0.4072(2) 0.27715(13) 0.44860(18)
C19 C 0.3638(2) 0.23499(13) 0.35561(18)
H22 H 0.3162 0.2557 0.2874
C20 C 0.3907(2) 0.16211(13) 0.36334(18)
C21 C 0.4669(2) 0.13240(13) 0.46532(18)
H23 H 0.4912 0.0842 0.4708
C22 C 0.5069(2) 0.17396(13) 0.55891(17)
C23 C 0.4751(2) 0.24598(13) 0.55069(18)
H24 H 0.4992 0.2737 0.6136
Cu1A Cu 0.23932(3) -0.030329(15) 0.20712(2)
Cu1C Cu 0.76068(3) 0.030329(15) 0.79288(2)
Cu2B Cu 0.59531(3) 0.508403(15) 0.43528(2)
Cu2C Cu 0.90469(3) 1.008403(15) 0.06472(2)
O1B O 0.61480(16) 0.47688(3) 0.57947(12)
H1B H 0.6360 0.4332 0.5871
O4A O 0.13228(17) 0.55199(9) 0.22896(13)
O6C O 0.13940(19) 0.41897(10) 0.16757(13)
N1B N 0.4618(2) 0.45631(11) 0.71565(15)
N4C N 0.2648(2) 0.56286(12) 0.57811(16)
O8 O 0.6695(3) 0.0031(2) 0.3479(3)
H2 H 0.6844 -0.0024 0.2899
H3 H 0.5838 0.0169 0.3313
loop_
_geom_bond_atom_site_label_1
_geom_bond_atom_site_label_2
_geom_bond_site_symmetry_1
_geom_bond_site_symmetry_2
Cu1 O1 1_555 1_555
Cu2 O1 1_555 1_555
O1 H1 1_555 1_555
O2 Cu1 1_555 1_555
O3 Cu2 1_555 1_555
O4 C16 1_555 1_555
O5 C16 1_555 1_555
O6 C17 1_555 1_555
O7 C17 1_555 1_555
O8 H2 1_555 1_555
H3 O8 1_555 1_555
N1 N2 1_555 1_555
N2 Cu1 1_555 1_555
N3 C1 1_555 1_555
N4 N5 1_555 1_555
N5 C4 1_555 1_555
N6 C3 1_555 1_555
C1 N1 1_555 1_555
H4 C1 1_555 1_555
C2 N2 1_555 1_555
H5 C2 1_555 1_555
C3 N4 1_555 1_555
H6 C3 1_555 1_555
C4 N6 1_555 1_555
H7 C4 1_555 1_555
C5 N3 1_555 1_555
C6 C5 1_555 1_555
H8 C6 1_555 1_555
H9 C6 1_555 1_555
C7 N6 1_555 1_555
C8 C7 1_555 1_555
H10 C8 1_555 1_555
H11 C8 1_555 1_555
C9 C8 1_555 1_555
H12 C9 1_555 1_555
C10 C5 1_555 1_555
H13 C10 1_555 1_555
H14 C10 1_555 1_555
C11 C5 1_555 1_555
H15 C11 1_555 1_555
H16 C11 1_555 1_555
C12 C11 1_555 1_555
H17 C12 1_555 1_555
C13 C7 1_555 1_555
H18 C13 1_555 1_555
H19 C13 1_555 1_555
C14 C9 1_555 1_555
H20 C14 1_555 1_555
H21 C14 1_555 1_555
C15 O2 1_555 1_555
C16 C20 1_555 1_555
C17 C22 1_555 1_555
C18 C15 1_555 1_555
C19 C18 1_555 1_555
H22 C19 1_555 1_555
C20 C19 1_555 1_555
C21 C20 1_555 1_555
H23 C21 1_555 1_555
C22 C21 1_555 1_555
C23 C18 1_555 1_555
H24 C23 1_555 1_555
Cu1A O4 1_555 1_555
Cu1C O6 1_555 1_555
Cu2B O1 1_555 1_555
Cu2C N4 1_555 1_555
O1B Cu2 1_555 1_555
H1B O1B 1_555 1_555
O4A Cu1 1_555 1_555
O6C Cu1 1_555 1_555
N1B Cu2 1_555 1_555
N4C Cu2 1_555 1_555
O3 C15 1_555 1_555
N1 Cu2B 1_555 1_555
N3 C2 1_555 1_555
C6 C7 1_555 1_555
C9 C10 1_555 1_555
C12 C13 1_555 1_555
C12 C14 1_555 1_555
C22 C23 1_555 1_555
Cu2B O1B 1_555 1_555

#END
