
#######################################################################
#
#                 Cambridge Crystallographic Data Centre
#                                CCDC 
#
#######################################################################
#
# If this CIF has been generated from an entry in the Cambridge 
# Structural Database, then it will include bibliographic, chemical, 
# crystal, experimental, refinement or atomic coordinate data resulting 
# from the CCDC's data processing and validation procedures.
#
#######################################################################

data_PODMUR
_symmetry_cell_setting           monoclinic
_symmetry_space_group_name_H-M   'P 21/c'
_symmetry_Int_Tables_number      14
_space_group_name_Hall           '-P 2ybc'
loop_
_symmetry_equiv_pos_site_id
_symmetry_equiv_pos_as_xyz
1 x,y,z
2 -x,1/2+y,1/2-z
3 -x,-y,-z
4 x,1/2-y,1/2+z
_cell_length_a                   4.1377(2)
_cell_length_b                   12.5407(7)
_cell_length_c                   13.5301(8)
_cell_angle_alpha                90
_cell_angle_beta                 93.786(4)
_cell_angle_gamma                90
_cell_volume                     700.54
loop_
_atom_site_label
_atom_site_type_symbol
_atom_site_fract_x
_atom_site_fract_y
_atom_site_fract_z
Cu1 Cu 0.0000 0.0000 0.0000
Br1 Br 0.38905(9) -0.07954(3) 0.11892(3)
N1 N -0.0773(8) 0.1368(3) 0.1682(2)
N2 N 0.0300(7) 0.1365(2) 0.0772(2)
C1 C 0.1530(9) 0.2224(3) 0.0389(3)
H1 H 0.2194 0.2182 -0.0253
C2 C 0.1907(8) 0.3205(3) 0.0889(3)
C3 C 0.0708(9) 0.3222(3) 0.1811(3)
H2 H 0.0755 0.3843 0.2187
C4 C -0.0575(10) 0.2285(3) 0.2167(3)
H3 H -0.1357 0.2304 0.2796
C5 C 0.3470(8) 0.4126(3) 0.0428(3)
C6 C 0.4070(10) 0.4144(3) -0.0570(3)
H4 H 0.3429 0.3565 -0.0965
C7 C 0.4420(10) 0.5009(3) 0.0993(3)
H5 H 0.4034 0.5029 0.1662
Cu1_2 Cu 1.0000 1.0000 0.0000
Br1B Br -0.38905(9) 0.07954(3) -0.11892(3)
N1B N 1.0773(8) 0.8632(3) -0.1682(2)
N2B N 0.9700(7) 0.8635(2) -0.0772(2)
N2B_2 N -0.0300(7) -0.1365(2) -0.0772(2)
C1B C 0.8470(9) 0.7776(3) -0.0389(3)
H1B H 0.7806 0.7818 0.0253
C2B C 0.8093(8) 0.6795(3) -0.0889(3)
C3B C 0.9292(9) 0.6778(3) -0.1811(3)
H2B H 0.9245 0.6157 -0.2187
C4B C 1.0575(10) 0.7715(3) -0.2167(3)
H3B H 1.1357 0.7696 -0.2796
C5B C 0.6530(8) 0.5874(3) -0.0428(3)
C6B C 0.5930(10) 0.5856(3) 0.0570(3)
H4B H 0.6571 0.6435 0.0965
C7B C 0.5580(10) 0.4991(3) -0.0993(3)
H5B H 0.5966 0.4971 -0.1662
loop_
_geom_bond_atom_site_label_1
_geom_bond_atom_site_label_2
_geom_bond_site_symmetry_1
_geom_bond_site_symmetry_2
Cu1 Br1 1_555 1_555
N1 N2 1_555 1_555
N2 Cu1 1_555 1_555
C1 N2 1_555 1_555
H1 C1 1_555 1_555
C2 C1 1_555 1_555
C3 C2 1_555 1_555
H2 C3 1_555 1_555
C4 N1 1_555 1_555
H3 C4 1_555 1_555
C5 C2 1_555 1_555
C6 C5 1_555 1_555
H4 C6 1_555 1_555
C7 C5 1_555 1_555
H5 C7 1_555 1_555
Cu1_2 N2B 1_555 1_555
Br1B Cu1 1_555 1_555
N1B N2B 1_555 1_555
N2B C1B 1_555 1_555
N2B_2 Cu1 1_555 1_555
C1B H1B 1_555 1_555
C2B C1B 1_555 1_555
C3B C2B 1_555 1_555
H2B C3B 1_555 1_555
C4B N1B 1_555 1_555
H3B C4B 1_555 1_555
C5B C2B 1_555 1_555
C6B C7 1_555 1_555
H4B C6B 1_555 1_555
C7B C6 1_555 1_555
H5B C7B 1_555 1_555
C3 C4 1_555 1_555
C3B C4B 1_555 1_555
C5B C6B 1_555 1_555
C5B C7B 1_555 1_555

#END
