
#######################################################################
#
#                 Cambridge Crystallographic Data Centre
#                                CCDC 
#
#######################################################################
#
# If this CIF has been generated from an entry in the Cambridge 
# Structural Database, then it will include bibliographic, chemical, 
# crystal, experimental, refinement or atomic coordinate data resulting 
# from the CCDC's data processing and validation procedures.
#
#######################################################################

data_PODMIF
_symmetry_cell_setting           monoclinic
_symmetry_space_group_name_H-M   'P 21/c'
_symmetry_Int_Tables_number      14
_space_group_name_Hall           '-P 2ybc'
loop_
_symmetry_equiv_pos_site_id
_symmetry_equiv_pos_as_xyz
1 x,y,z
2 -x,1/2+y,1/2-z
3 -x,-y,-z
4 x,1/2-y,1/2+z
_cell_length_a                   9.2553(6)
_cell_length_b                   15.6133(9)
_cell_length_c                   8.1857(5)
_cell_angle_alpha                90
_cell_angle_beta                 106.3050(10)
_cell_angle_gamma                90
_cell_volume                     1135.31
loop_
_atom_site_label
_atom_site_type_symbol
_atom_site_fract_x
_atom_site_fract_y
_atom_site_fract_z
Cd1 Cd 1.0000 1.0000 1.0000
O1 O 1.11768(15) 0.97584(11) 0.79668(18)
O2 O 1.10339(17) 1.13444(9) 1.0009(2)
H1 H 1.090(3) 1.1596(17) 0.910(4)
H2 H 1.103(3) 1.1670(19) 1.068(4)
N1 N 1.80030(15) 1.05294(10) 0.7766(2)
H3 H 1.824(3) 1.0477(16) 0.694(3)
H4 H 1.802(3) 1.1043(16) 0.798(3)
S1 S 1.18805(4) 0.91024(3) 0.71746(5)
O3 O 1.10855(13) 0.90148(9) 0.53857(16)
O4 O 1.20730(16) 0.83016(10) 0.8099(2)
C1 C 1.36979(16) 0.94930(10) 0.72907(19)
C2 C 1.41026(18) 1.02687(11) 0.8044(2)
H5 H 1.3426 1.0572 0.8474
C3 C 1.55322(18) 1.06131(10) 0.8177(2)
H6 H 1.5797 1.1141 0.8702
C4 C 1.65332(17) 1.01814(10) 0.7545(2)
C5 C 1.61484(16) 0.93781(10) 0.67093(19)
C6 C 1.47031(16) 0.90182(9) 0.65861(18)
C7 C 1.43389(19) 0.82177(10) 0.5757(2)
H7 H 1.3411 0.7967 0.5683
C8 C 1.5334(2) 0.78091(12) 0.5063(2)
H8 H 1.5075 0.7285 0.4520
C9 C 1.6739(2) 0.81719(12) 0.5162(2)
H9 H 1.7399 0.7892 0.4670
C10 C 1.71453(18) 0.89329(11) 0.5975(2)
H10 H 1.8088 0.9163 0.6049
Cd1_2 Cd 2.0000 1.0000 1.0000
Cd1_3 Cd 0.0000 1.0000 1.0000
O1B O 0.88232(15) 1.02416(11) 1.20332(18)
O2B O 0.89661(17) 0.86556(9) 0.9991(2)
H1B H 0.910(3) 0.8404(17) 1.090(4)
H2B H 0.897(3) 0.8330(19) 0.932(4)
N1B N 0.19970(15) 0.94706(10) 1.2234(2)
N1_2 N 0.80030(15) 1.05294(10) 0.7766(2)
N1B_2 N 1.19970(15) 0.94706(10) 1.2234(2)
H3B H 0.176(3) 0.9523(16) 1.306(3)
H3_2 H 0.824(3) 1.0477(16) 0.694(3)
H3B_2 H 1.176(3) 0.9523(16) 1.306(3)
H4B H 0.198(3) 0.8957(16) 1.202(3)
H4_2 H 0.802(3) 1.1043(16) 0.798(3)
H4B_2 H 1.198(3) 0.8957(16) 1.202(3)
S1B S 0.81195(4) 1.08976(3) 1.28254(5)
O3B O 0.89145(13) 1.09852(9) 1.46143(16)
O4B O 0.79270(16) 1.16984(10) 1.1901(2)
C1B C 0.63021(16) 1.05070(10) 1.27093(19)
C2B C 0.58974(18) 0.97313(11) 1.1956(2)
H5B H 0.6574 0.9428 1.1526
C3B C 0.44678(18) 0.93869(10) 1.1823(2)
H6B H 0.4203 0.8859 1.1298
C4B C 0.34668(17) 0.98186(10) 1.2455(2)
C5B C 0.38516(16) 1.06219(10) 1.32907(19)
C6B C 0.52969(16) 1.09818(9) 1.34139(18)
C7B C 0.56611(19) 1.17823(10) 1.4243(2)
H7B H 0.6589 1.2033 1.4317
C8B C 0.4666(2) 1.21909(12) 1.4937(2)
H8B H 0.4925 1.2715 1.5480
C9B C 0.3261(2) 1.18281(12) 1.4838(2)
H9B H 0.2601 1.2108 1.5330
C10B C 0.28547(18) 1.10671(11) 1.4025(2)
H10B H 0.1912 1.0837 1.3951
O5 O -0.02582(17) 0.72167(9) 0.80732(19)
H11 H 0.011(3) 0.6882(17) 0.883(3)
H12 H 0.049(3) 0.7475(18) 0.800(4)
loop_
_geom_bond_atom_site_label_1
_geom_bond_atom_site_label_2
_geom_bond_site_symmetry_1
_geom_bond_site_symmetry_2
Cd1 O1 1_555 1_555
O1 S1 1_555 1_555
O2 Cd1 1_555 1_555
H1 O2 1_555 1_555
H2 O2 1_555 1_555
N1 H3 1_555 1_555
H4 N1 1_555 1_555
S1 O3 1_555 1_555
O4 S1 1_555 1_555
C1 S1 1_555 1_555
C2 C1 1_555 1_555
H5 C2 1_555 1_555
C3 C2 1_555 1_555
H6 C3 1_555 1_555
C4 N1 1_555 1_555
C5 C4 1_555 1_555
C6 C1 1_555 1_555
C7 C6 1_555 1_555
H7 C7 1_555 1_555
C8 C7 1_555 1_555
H8 C8 1_555 1_555
C9 C8 1_555 1_555
H9 C9 1_555 1_555
C10 C5 1_555 1_555
H10 C10 1_555 1_555
O5 H11 1_555 1_555
H12 O5 1_555 1_555
Cd1_2 N1 1_555 1_555
Cd1_3 N1B 1_555 1_555
O1B Cd1 1_555 1_555
O2B Cd1 1_555 1_555
H1B O2B 1_555 1_555
H2B O2B 1_555 1_555
N1B H3B 1_555 1_555
N1_2 Cd1 1_555 1_555
N1B_2 Cd1 1_555 1_555
H3_2 N1_2 1_555 1_555
H3B_2 N1B_2 1_555 1_555
H4B N1B 1_555 1_555
H4_2 N1_2 1_555 1_555
H4B_2 N1B_2 1_555 1_555
S1B O1B 1_555 1_555
O3B S1B 1_555 1_555
O4B S1B 1_555 1_555
C1B S1B 1_555 1_555
C2B C1B 1_555 1_555
H5B C2B 1_555 1_555
C3B C2B 1_555 1_555
H6B C3B 1_555 1_555
C4B N1B 1_555 1_555
C5B C4B 1_555 1_555
C6B C1B 1_555 1_555
C7B C6B 1_555 1_555
H7B C7B 1_555 1_555
C8B C7B 1_555 1_555
H8B C8B 1_555 1_555
C9B C8B 1_555 1_555
H9B C9B 1_555 1_555
C10B C5B 1_555 1_555
H10B C10B 1_555 1_555
C3 C4 1_555 1_555
C5 C6 1_555 1_555
C9 C10 1_555 1_555
C3B C4B 1_555 1_555
C5B C6B 1_555 1_555
C9B C10B 1_555 1_555

#END
