
#######################################################################
#
#                 Cambridge Crystallographic Data Centre
#                                CCDC 
#
#######################################################################
#
# If this CIF has been generated from an entry in the Cambridge 
# Structural Database, then it will include bibliographic, chemical, 
# crystal, experimental, refinement or atomic coordinate data resulting 
# from the CCDC's data processing and validation procedures.
#
#######################################################################

data_PODNIH
_symmetry_cell_setting           monoclinic
_symmetry_space_group_name_H-M   'C 2/c'
_symmetry_Int_Tables_number      15
_space_group_name_Hall           '-C 2yc'
loop_
_symmetry_equiv_pos_site_id
_symmetry_equiv_pos_as_xyz
1 x,y,z
2 1/2+x,1/2+y,z
3 1/2-x,1/2+y,1/2-z
4 -x,y,1/2-z
5 -x,-y,-z
6 1/2-x,1/2-y,-z
7 1/2+x,1/2-y,1/2+z
8 x,-y,1/2+z
_cell_length_a                   23.004(3)
_cell_length_b                   9.7714(11)
_cell_length_c                   16.2331(18)
_cell_angle_alpha                90
_cell_angle_beta                 113.152(3)
_cell_angle_gamma                90
_cell_volume                     3355.03
loop_
_atom_site_label
_atom_site_type_symbol
_atom_site_fract_x
_atom_site_fract_y
_atom_site_fract_z
Cu1 Cu 0.4674 0.9011 0.0646
N1 N 0.3383(1) 0.8904(3) 0.3485(2)
O1 O 0.0576(1) 0.8136(3) 0.0509(2)
N2 N 0.4404(1) 0.9188(3) 0.4050(2)
C1 C 0.3989(2) 0.7916(3) 0.2628(2)
O2 O 0.0513(1) 0.7098(3) 0.1689(2)
C2 C 0.2492(2) 0.9008(3) 0.2026(3)
H1 H 0.2733 0.9536 0.1800
C3 C 0.0808(2) 0.7706(4) 0.1303(2)
C4 C 0.1870(2) 0.8700(4) 0.1496(2)
H2 H 0.1693 0.9014 0.0908
N3 N 0.4322(1) 0.7987(3) 0.1404(2)
N4 N 0.4155(1) 0.9821(3) 0.4608(2)
C5 C 0.3900(3) 0.5948(4) 0.1742(3)
H3 H 0.3782 0.5040 0.1600
C6 C 0.1507(2) 0.7929(3) 0.1833(2)
C7 C 0.3543(2) 0.9642(3) 0.4254(2)
C8 C 0.4233(2) 0.8589(3) 0.2091(2)
H4 H 0.4342 0.9506 0.2208
C9 C 0.3810(2) 0.6563(4) 0.2446(3)
H5 H 0.3634 0.6084 0.2786
C10 C 0.1788(2) 0.7412(4) 0.2697(2)
H6 H 0.1553 0.6859 0.2919
C11 C 0.3935(2) 0.8656(3) 0.3381(2)
C12 C 0.4163(2) 0.6660(4) 0.1253(3)
H7 H 0.4235 0.6210 0.0797
C13 C 0.2752(2) 0.8520(3) 0.2894(2)
C14 C 0.3092(2) 1.0169(4) 0.4625(3)
H8 H 0.2745 1.0613 0.4159
H9 H 0.3303 1.0812 0.5095
H10 H 0.2934 0.9421 0.4861
C15 C 0.2411(2) 0.7701(4) 0.3235(2)
H11 H 0.2595 0.7353 0.3813
Cu1C Cu 0.5326 0.9011 0.4354
Cu1E Cu 0.0326 0.5989 -0.0646
Cu1G Cu 0.4674 1.0989 0.5646
O1E O 0.4424(1) 0.6864(3) -0.0509(2)
N2C N 0.5596(1) 0.9188(3) 0.0950(2)
N4G N 0.4155(1) 1.0179(3) -0.0392(2)
O3 O 0.4311(2) 0.6027(3) 0.4582(3)
H12 H 0.4386 0.5175 0.4587
H13 H 0.4658 0.6353 0.4956
O4 O 0.3373(2) 0.6635(4) 0.5200(3)
H14 H 0.3102 0.6006 0.4971
H15 H 0.3667 0.6566 0.5007
O5 O 0.4299(1) 1.1796(4) 0.1527(2)
H16 H 0.3992 1.2086 0.1066
H17 H 0.4645 1.1980 0.1479
loop_
_geom_bond_atom_site_label_1
_geom_bond_atom_site_label_2
_geom_bond_site_symmetry_1
_geom_bond_site_symmetry_2
Cu1 N3 1_555 1_555
N1 C7 1_555 1_555
O1 C3 1_555 1_555
N2 N4 1_555 1_555
C1 C8 1_555 1_555
O2 C3 1_555 1_555
C2 H1 1_555 1_555
C3 C6 1_555 1_555
C4 C2 1_555 1_555
H2 C4 1_555 1_555
N3 C8 1_555 1_555
N4 C7 1_555 1_555
C5 H3 1_555 1_555
C6 C4 1_555 1_555
C7 C14 1_555 1_555
C8 H4 1_555 1_555
C9 C1 1_555 1_555
H5 C9 1_555 1_555
C10 C6 1_555 1_555
H6 C10 1_555 1_555
C11 N1 1_555 1_555
C12 N3 1_555 1_555
H7 C12 1_555 1_555
C13 N1 1_555 1_555
C14 H8 1_555 1_555
H9 C14 1_555 1_555
H10 C14 1_555 1_555
C15 C10 1_555 1_555
H11 C15 1_555 1_555
O3 H12 1_555 1_555
H13 O3 1_555 1_555
O4 H14 1_555 1_555
H15 O4 1_555 1_555
O5 H16 1_555 1_555
H17 O5 1_555 1_555
Cu1C N2 1_555 1_555
Cu1E O1 1_555 1_555
Cu1G N4 1_555 1_555
O1E Cu1 1_555 1_555
N2C Cu1 1_555 1_555
N4G Cu1 1_555 1_555
N2 C11 1_555 1_555
C1 C11 1_555 1_555
C2 C13 1_555 1_555
C5 C9 1_555 1_555
C5 C12 1_555 1_555
C13 C15 1_555 1_555

#END
