
#######################################################################
#
#                 Cambridge Crystallographic Data Centre
#                                CCDC 
#
#######################################################################
#
# If this CIF has been generated from an entry in the Cambridge 
# Structural Database, then it will include bibliographic, chemical, 
# crystal, experimental, refinement or atomic coordinate data resulting 
# from the CCDC's data processing and validation procedures.
#
#######################################################################

data_PODNED
_symmetry_cell_setting           monoclinic
_symmetry_space_group_name_H-M   'P 21/n'
_symmetry_Int_Tables_number      14
_space_group_name_Hall           '-P 2yn'
loop_
_symmetry_equiv_pos_site_id
_symmetry_equiv_pos_as_xyz
1 x,y,z
2 1/2-x,1/2+y,1/2-z
3 -x,-y,-z
4 1/2+x,1/2-y,1/2+z
_cell_length_a                   12.2276(15)
_cell_length_b                   10.8880(13)
_cell_length_c                   14.4806(18)
_cell_angle_alpha                90
_cell_angle_beta                 104.459(3)
_cell_angle_gamma                90
_cell_volume                     1866.8
loop_
_atom_site_label
_atom_site_type_symbol
_atom_site_fract_x
_atom_site_fract_y
_atom_site_fract_z
Cu1 Cu -0.12245(3) 0.26770(4) 0.29938(3)
N1 N 0.7097(2) 0.2973(2) 0.27014(18)
O1 O 0.0445(2) 0.2639(3) 0.3330(2)
N2 N 0.6545(2) 0.3067(3) 0.17443(18)
O2 O -0.10704(18) 0.3687(2) 0.19172(15)
N3 N 0.5323(2) 0.3351(2) 0.26097(18)
O3 O -0.1563(2) 0.0841(2) 0.21233(18)
H1 H -0.1244 0.0248 0.2475
H2 H -0.2273 0.0709 0.1946
N4 N 0.3812(2) 0.3272(3) -0.08092(18)
O4 O -0.0656(3) 0.2150(3) 0.1025(2)
C1 C 0.4637(2) 0.3639(3) 0.0842(2)
C2 C 0.3441(3) 0.2566(3) 0.2468(3)
H3 H 0.3594 0.1948 0.2075
C3 C 0.3980(3) 0.4684(3) 0.0805(2)
H4 H 0.4041 0.5165 0.1345
C4 C 0.5492(2) 0.3308(3) 0.1706(2)
C5 C 0.6351(3) 0.3160(3) 0.3219(2)
C6 C -0.0729(3) 0.3254(3) 0.1219(2)
C7 C 0.3240(3) 0.4996(3) -0.0038(2)
H5 H 0.2784 0.5687 -0.0074
C8 C 0.4530(3) 0.2969(3) 0.0016(2)
H6 H 0.4978 0.2275 0.0034
C9 C 0.0108(3) 0.5282(4) 0.0943(2)
H7 H 0.0180 0.5480 0.1581
C10 C 0.4026(3) 0.4383(3) 0.3395(2)
H8 H 0.4568 0.4981 0.3626
C11 C 0.3176(3) 0.4284(3) -0.0831(2)
H9 H 0.2677 0.4508 -0.1402
C12 C 0.2182(3) 0.3534(3) 0.3277(2)
O5 O 0.0815(2) 0.4550(3) 0.3888(2)
C13 C 0.1053(3) 0.3589(4) 0.3522(2)
C14 C 0.2406(3) 0.2614(3) 0.2695(3)
H10 H 0.1860 0.2023 0.2453
C15 C 0.6579(3) 0.3215(4) 0.4263(2)
H11 H 0.6409 0.2434 0.4503
H12 H 0.6115 0.3838 0.4442
H13 H 0.7360 0.3409 0.4528
C16 C -0.0360(3) 0.4181(3) 0.0597(2)
C17 C 0.2981(3) 0.4423(3) 0.3610(2)
H14 H 0.2821 0.5059 0.3984
C18 C 0.4242(2) 0.3445(3) 0.2834(2)
C19 C 0.0472(3) 0.6104(3) 0.0357(2)
H15 H 0.0793 0.6848 0.0601
O2B O 0.10704(18) 0.6313(2) -0.19172(15)
O4B O 0.0656(3) 0.7850(3) -0.1025(2)
C6B C 0.0729(3) 0.6746(3) -0.1219(2)
C9B C -0.0108(3) 0.4718(4) -0.0943(2)
H7B H -0.0180 0.4520 -0.1581
C16B C 0.0360(3) 0.5819(3) -0.0597(2)
C19B C -0.0472(3) 0.3896(3) -0.0357(2)
H15B H -0.0793 0.3152 -0.0601
Cu1B Cu 0.12245(3) 0.73230(4) -0.29938(3)
N1B N -0.7097(2) 0.7027(2) -0.27014(18)
O1B O -0.0445(2) 0.7361(3) -0.3330(2)
N2B N -0.6545(2) 0.6933(3) -0.17443(18)
N3B N -0.5323(2) 0.6649(2) -0.26097(18)
O3B O 0.1563(2) 0.9159(2) -0.21233(18)
H1B H 0.1244 0.9752 -0.2475
H2B H 0.2273 0.9291 -0.1946
N4B N -0.3812(2) 0.6728(3) 0.08092(18)
C1B C -0.4637(2) 0.6361(3) -0.0842(2)
C2B C -0.3441(3) 0.7434(3) -0.2468(3)
H3B H -0.3594 0.8052 -0.2075
C3B C -0.3980(3) 0.5316(3) -0.0805(2)
H4B H -0.4041 0.4835 -0.1345
C4B C -0.5492(2) 0.6692(3) -0.1706(2)
C5B C -0.6351(3) 0.6840(3) -0.3219(2)
C7B C -0.3240(3) 0.5004(3) 0.0038(2)
H5B H -0.2784 0.4313 0.0074
C8B C -0.4530(3) 0.7031(3) -0.0016(2)
H6B H -0.4978 0.7725 -0.0034
C10B C -0.4026(3) 0.5617(3) -0.3395(2)
H8B H -0.4568 0.5019 -0.3626
C11B C -0.3176(3) 0.5716(3) 0.0831(2)
H9B H -0.2677 0.5492 0.1402
C12B C -0.2182(3) 0.6466(3) -0.3277(2)
O5B O -0.0815(2) 0.5450(3) -0.3888(2)
C13B C -0.1053(3) 0.6411(4) -0.3522(2)
C14B C -0.2406(3) 0.7386(3) -0.2695(3)
H10B H -0.1860 0.7977 -0.2453
C15B C -0.6579(3) 0.6785(4) -0.4263(2)
H11B H -0.6409 0.7566 -0.4503
H12B H -0.6115 0.6162 -0.4442
H13B H -0.7360 0.6591 -0.4528
C17B C -0.2981(3) 0.5577(3) -0.3610(2)
H14B H -0.2821 0.4941 -0.3984
C18B C -0.4242(2) 0.6555(3) -0.2834(2)
Cu1_2 Cu 0.87755(3) 0.26770(4) 0.29938(3)
Cu1A Cu -0.37755(3) 0.76770(4) 0.20062(3)
Cu1B_2 Cu -0.87755(3) 0.73230(4) -0.29938(3)
Cu1C Cu 0.37755(3) 0.23230(4) -0.20062(3)
N1_2 N -0.2903(2) 0.2973(2) 0.27014(18)
N1B_2 N 0.2903(2) 0.7027(2) -0.27014(18)
N4A N 0.1188(2) 0.8272(3) -0.41908(18)
N4C N -0.1188(2) 0.1728(3) 0.41908(18)
O6 O -0.1327(2) 0.4987(3) 0.4039(2)
H16 H -0.0690 0.5059 0.3908
H17 H -0.1250 0.5104 0.4632
loop_
_geom_bond_atom_site_label_1
_geom_bond_atom_site_label_2
_geom_bond_site_symmetry_1
_geom_bond_site_symmetry_2
Cu1 O1 1_555 1_555
N1 N2 1_555 1_555
O1 C13 1_555 1_555
N2 C4 1_555 1_555
O2 Cu1 1_555 1_555
N3 C4 1_555 1_555
O3 Cu1 1_555 1_555
H1 O3 1_555 1_555
H2 O3 1_555 1_555
N4 C8 1_555 1_555
O4 C6 1_555 1_555
C1 C3 1_555 1_555
C2 H3 1_555 1_555
C3 H4 1_555 1_555
C4 C1 1_555 1_555
C5 N1 1_555 1_555
C6 O2 1_555 1_555
C7 C3 1_555 1_555
H5 C7 1_555 1_555
C8 C1 1_555 1_555
H6 C8 1_555 1_555
C9 H7 1_555 1_555
C10 H8 1_555 1_555
C11 N4 1_555 1_555
H9 C11 1_555 1_555
C12 C13 1_555 1_555
O5 C13 1_555 1_555
C14 C2 1_555 1_555
H10 C14 1_555 1_555
C15 C5 1_555 1_555
H11 C15 1_555 1_555
H12 C15 1_555 1_555
H13 C15 1_555 1_555
C16 C6 1_555 1_555
C17 C10 1_555 1_555
H14 C17 1_555 1_555
C18 N3 1_555 1_555
C19 C9 1_555 1_555
H15 C19 1_555 1_555
O6 H16 1_555 1_555
H17 O6 1_555 1_555
O2B C6B 1_555 1_555
O4B C6B 1_555 1_555
C6B C16B 1_555 1_555
C9B H7B 1_555 1_555
C16B C19 1_555 1_555
C19B C16 1_555 1_555
H15B C19B 1_555 1_555
Cu1B O2B 1_555 1_555
N1B N2B 1_555 1_555
O1B Cu1B 1_555 1_555
N2B C4B 1_555 1_555
N3B C4B 1_555 1_555
O3B Cu1B 1_555 1_555
H1B O3B 1_555 1_555
H2B O3B 1_555 1_555
N4B C8B 1_555 1_555
C1B C3B 1_555 1_555
C2B H3B 1_555 1_555
C3B H4B 1_555 1_555
C4B C1B 1_555 1_555
C5B N1B 1_555 1_555
C7B C3B 1_555 1_555
H5B C7B 1_555 1_555
C8B C1B 1_555 1_555
H6B C8B 1_555 1_555
C10B H8B 1_555 1_555
C11B N4B 1_555 1_555
H9B C11B 1_555 1_555
C12B C13B 1_555 1_555
O5B C13B 1_555 1_555
C13B O1B 1_555 1_555
C14B C2B 1_555 1_555
H10B C14B 1_555 1_555
C15B C5B 1_555 1_555
H11B C15B 1_555 1_555
H12B C15B 1_555 1_555
H13B C15B 1_555 1_555
C17B C10B 1_555 1_555
H14B C17B 1_555 1_555
C18B N3B 1_555 1_555
Cu1_2 N1 1_555 1_555
Cu1A N4B 1_555 1_555
Cu1B_2 N1B 1_555 1_555
Cu1C N4 1_555 1_555
N1_2 Cu1 1_555 1_555
N1B_2 Cu1B 1_555 1_555
N4A Cu1B 1_555 1_555
N4C Cu1 1_555 1_555
N3 C5 1_555 1_555
C2 C18 1_555 1_555
C7 C11 1_555 1_555
C9 C16 1_555 1_555
C10 C18 1_555 1_555
C12 C14 1_555 1_555
C12 C17 1_555 1_555
C9B C16B 1_555 1_555
C9B C19B 1_555 1_555
N3B C5B 1_555 1_555
C2B C18B 1_555 1_555
C7B C11B 1_555 1_555
C10B C18B 1_555 1_555
C12B C14B 1_555 1_555
C12B C17B 1_555 1_555

#END
