
#######################################################################
#
#                 Cambridge Crystallographic Data Centre
#                                CCDC 
#
#######################################################################
#
# If this CIF has been generated from an entry in the Cambridge 
# Structural Database, then it will include bibliographic, chemical, 
# crystal, experimental, refinement or atomic coordinate data resulting 
# from the CCDC's data processing and validation procedures.
#
#######################################################################

data_PODPOP
_symmetry_cell_setting           monoclinic
_symmetry_space_group_name_H-M   'C 2/c'
_symmetry_Int_Tables_number      15
_space_group_name_Hall           '-C 2yn'
loop_
_symmetry_equiv_pos_site_id
_symmetry_equiv_pos_as_xyz
1 x,y,z
2 -x,y,1/2-z
3 1/2+x,1/2+y,z
4 1/2-x,1/2+y,1/2-z
5 -x,-y,-z
6 x,-y,1/2+z
7 1/2-x,1/2-y,-z
8 1/2+x,1/2-y,1/2+z
_cell_length_a                   26.134(8)
_cell_length_b                   7.933(2)
_cell_length_c                   32.693(9)
_cell_angle_alpha                90
_cell_angle_beta                 90.210(5)
_cell_angle_gamma                90
_cell_volume                     6777.9
loop_
_atom_site_label
_atom_site_type_symbol
_atom_site_fract_x
_atom_site_fract_y
_atom_site_fract_z
Zn1 Zn 0.86243(2) 1.02285(7) 0.968780(17)
Zn2 Zn 1.0000 -0.10395(11) 0.7500
N1 N 0.82303(16) 0.7730(6) 1.02043(13)
N2 N 0.86083(16) 0.8949(5) 1.02406(13)
N3 N 0.87618(15) 0.6978(5) 1.06899(12)
N4 N 0.71326(15) 0.4128(5) 1.04367(12)
N5 N 0.94302(17) 0.0639(6) 0.76718(14)
N6 N 0.89340(17) 0.0635(6) 0.75189(13)
N7 N 0.89916(18) 0.2501(6) 0.80127(14)
C1 C 0.7392(3) 0.2541(12) 0.7267(3)
H1 H 0.7240 0.2634 0.7011
O1 O 0.98820(19) 0.1742(7) 1.18758(15)
O2 O 0.9420(3) 0.2975(7) 1.23061(14)
O3 O 0.94312(14) 1.0912(5) 0.97457(12)
O4 O 0.88108(13) 1.2780(5) 0.97509(11)
O5 O 0.86899(14) 0.8198(5) 0.93572(11)
O6 O 0.86617(19) 0.9818(5) 0.88069(13)
C2 C 0.89245(18) 0.8500(7) 1.05388(15)
C3 C 0.83307(18) 0.6560(7) 1.04711(16)
C4 C 0.79941(18) 0.5087(7) 1.05233(15)
C5 C 0.74790(19) 0.5367(7) 1.04390(14)
H2 H 0.7371 0.6459 1.0382
C6 C 0.72911(19) 0.2553(6) 1.05283(15)
H3 H 0.7054 0.1680 1.0525
C7 C 0.77934(19) 0.2195(7) 1.06270(17)
H4 H 0.7890 0.1104 1.0696
C8 C 0.8150(2) 0.3478(7) 1.06213(16)
H5 H 0.8491 0.3258 1.0683
C9 C 0.9362(2) 0.9457(7) 1.07022(16)
H6 H 0.9395 1.0496 1.0554
H7 H 0.9669 0.8805 1.0672
H8 H 0.9306 0.9695 1.0987
C10 C 0.89848(19) 0.5999(7) 1.10191(15)
C11 C 0.8731(2) 0.5925(9) 1.13866(18)
H9 H 0.8439 0.6566 1.1433
C12 C 0.8927(3) 0.4852(9) 1.16864(18)
H10 H 0.8757 0.4761 1.1935
C13 C 0.9360(2) 0.3933(8) 1.16246(16)
C14 C 0.9608(2) 0.4048(7) 1.12551(15)
H11 H 0.9903 0.3419 1.1210
C15 C 0.94209(19) 0.5100(7) 1.09486(15)
H12 H 0.9590 0.5188 1.0700
C16 C 0.9567(3) 0.2785(9) 1.1951(2)
C17 C 0.8700(2) 0.8433(7) 0.89721(17)
C18 C 0.8763(2) 0.6855(6) 0.87211(16)
C19 C 0.8875(2) 0.6974(7) 0.83079(17)
H13 H 0.8905 0.8027 0.8186
C20 C 0.8943(2) 0.5534(7) 0.80778(18)
H14 H 0.9020 0.5615 0.7801
C21 C 0.7120(3) 0.2717(10) 0.7601(3)
H15 H 0.6773 0.2945 0.7568
C22 C 0.8896(2) 0.3983(7) 0.82597(17)
C23 C 0.8784(2) 0.3829(7) 0.86689(17)
H16 H 0.8753 0.2772 0.8789
C24 C 0.8720(2) 0.5272(7) 0.88954(17)
H17 H 0.8646 0.5182 0.9173
C25 C 0.9452(2) 0.1767(8) 0.7965(2)
C26 C 0.8678(2) 0.1765(7) 0.77275(17)
C27 C 0.9916(3) 0.2203(12) 0.8212(3)
H18 H 0.9834 0.2153 0.8498
H19 H 1.0027 0.3321 0.8144
H20 H 1.0184 0.1414 0.8154
C28 C 0.8125(2) 0.2133(8) 0.7687(2)
C29 C 0.7810(3) 0.2331(11) 0.8018(3)
H21 H 0.7952 0.2280 0.8279
N8 N 0.7296(3) 0.2600(10) 0.7980(3)
C30 C 0.7918(3) 0.2208(11) 0.7305(3)
H22 H 0.8119 0.2043 0.7075
C31 C 0.92821(19) 1.2406(7) 0.97868(15)
C32 C 0.96561(18) 1.3758(6) 0.98937(14)
C33 C 1.01260(18) 1.3301(6) 1.00586(15)
H23 H 1.0207 1.2172 1.0098
C34 C 1.04731(19) 1.4555(6) 1.01641(15)
H24 H 1.0791 1.4269 1.0273
O3D O 1.05688(14) 1.9088(5) 1.02543(12)
O4D O 1.11892(13) 1.7220(5) 1.02491(11)
C31D C 1.07179(19) 1.7594(7) 1.02132(15)
C32D C 1.03439(18) 1.6242(6) 1.01063(14)
C33D C 0.98740(18) 1.6699(6) 0.99414(15)
H23D H 0.9793 1.7828 0.9902
C34D C 0.95269(19) 1.5445(6) 0.98359(15)
H24D H 0.9209 1.5731 0.9727
Zn1A Zn 1.13757(2) 1.02285(7) 0.531220(17)
N1A N 1.17697(16) 0.7730(6) 0.47957(13)
N2A N 1.13917(16) 0.8949(5) 0.47594(13)
N3A N 1.12382(15) 0.6978(5) 0.43101(12)
N4A N 1.28674(15) 0.4128(5) 0.45633(12)
N5A N 1.05698(17) 0.0639(6) 0.73282(14)
N6A N 1.10660(17) 0.0635(6) 0.74811(13)
N7A N 1.10084(18) 0.2501(6) 0.69873(14)
C1A C 1.2608(3) 0.2541(12) 0.7733(3)
H1A H 1.2760 0.2634 0.7989
O1A O 1.01180(19) 0.1742(7) 0.31242(15)
O2A O 1.0580(3) 0.2975(7) 0.26939(14)
O5A O 1.13101(14) 0.8198(5) 0.56428(11)
O6A O 1.13383(19) 0.9818(5) 0.61931(13)
C2A C 1.10755(18) 0.8500(7) 0.44612(15)
C3A C 1.16693(18) 0.6560(7) 0.45289(16)
C4A C 1.20059(18) 0.5087(7) 0.44767(15)
C5A C 1.25210(19) 0.5367(7) 0.45610(14)
H2A H 1.2629 0.6459 0.4618
C6A C 1.27089(19) 0.2553(6) 0.44717(15)
H3A H 1.2946 0.1680 0.4475
C7A C 1.22066(19) 0.2195(7) 0.43730(17)
H4A H 1.2110 0.1104 0.4304
C8A C 1.1850(2) 0.3478(7) 0.43787(16)
H5A H 1.1509 0.3258 0.4317
C9A C 1.0638(2) 0.9457(7) 0.42978(16)
H6A H 1.0605 1.0496 0.4446
H7A H 1.0331 0.8805 0.4328
H8A H 1.0694 0.9695 0.4013
C10A C 1.10152(19) 0.5999(7) 0.39809(15)
C11A C 1.1269(2) 0.5925(9) 0.36134(18)
H9A H 1.1561 0.6566 0.3567
C12A C 1.1073(3) 0.4852(9) 0.33136(18)
H10A H 1.1243 0.4761 0.3065
C13A C 1.0640(2) 0.3933(8) 0.33754(16)
C14A C 1.0392(2) 0.4048(7) 0.37449(15)
H11A H 1.0097 0.3419 0.3790
C15A C 1.05791(19) 0.5100(7) 0.40514(15)
H12A H 1.0410 0.5188 0.4300
C16A C 1.0433(3) 0.2785(9) 0.3049(2)
C17A C 1.1300(2) 0.8433(7) 0.60279(17)
C18A C 1.1237(2) 0.6855(6) 0.62789(16)
C19A C 1.1125(2) 0.6974(7) 0.66921(17)
H13A H 1.1095 0.8027 0.6814
C20A C 1.1057(2) 0.5534(7) 0.69222(18)
H14A H 1.0980 0.5615 0.7199
C21A C 1.2880(3) 0.2717(10) 0.7399(3)
H15A H 1.3227 0.2945 0.7432
C22A C 1.1104(2) 0.3983(7) 0.67403(17)
C23A C 1.1216(2) 0.3829(7) 0.63311(17)
H16A H 1.1247 0.2772 0.6211
C24A C 1.1280(2) 0.5272(7) 0.61046(17)
H17A H 1.1354 0.5182 0.5827
C25A C 1.0548(2) 0.1767(8) 0.7035(2)
C26A C 1.1322(2) 0.1765(7) 0.72725(17)
C27A C 1.0084(3) 0.2203(12) 0.6788(3)
H18A H 1.0166 0.2153 0.6502
H19A H 0.9973 0.3321 0.6856
H20A H 0.9816 0.1414 0.6846
C28A C 1.1875(2) 0.2133(8) 0.7313(2)
C29A C 1.2190(3) 0.2331(11) 0.6982(3)
H21A H 1.2048 0.2280 0.6721
N8A N 1.2704(3) 0.2600(10) 0.7020(3)
C30A C 1.2082(3) 0.2208(11) 0.7695(3)
H22A H 1.1881 0.2043 0.7925
Zn1D Zn 1.13757(2) 1.97715(7) 1.031220(17)
Zn1F Zn 0.63757(2) 0.47715(7) 1.031220(17)
Zn1G Zn 1.36243(2) 0.47715(7) 0.468780(17)
Zn2D Zn 1.0000 0.10395(11) 0.2500
Zn2D_2 Zn 1.0000 0.10395(11) 1.2500
N4F N 0.78674(15) 1.0872(5) 0.95633(12)
N4G N 1.21326(15) 1.0872(5) 0.54367(12)
O1D O 1.01180(19) -0.1742(7) 0.81242(15)
O1E O 0.98820(19) -0.1742(7) 0.68758(15)
O2D O 1.0580(3) -0.2975(7) 0.76939(14)
O2E O 0.9420(3) -0.2975(7) 0.73061(14)
O3A O 1.05688(14) 1.0912(5) 0.52543(12)
O4A O 1.11892(13) 1.2780(5) 0.52491(11)
O7 O 0.7737(6) 0.136(2) 0.6184(5)
O9 O 0.8545(3) 0.9617(10) 0.6607(3)
O8? O 0.7382(7) 0.411(3) 0.6528(5)
loop_
_geom_bond_atom_site_label_1
_geom_bond_atom_site_label_2
_geom_bond_site_symmetry_1
_geom_bond_site_symmetry_2
Zn1 N2 1_555 1_555
Zn2 N5 1_555 1_555
N1 N2 1_555 1_555
N2 C2 1_555 1_555
N3 C2 1_555 1_555
N4 C5 1_555 1_555
N5 N6 1_555 1_555
N6 C26 1_555 1_555
N7 C22 1_555 1_555
C1 H1 1_555 1_555
O1 C16 1_555 1_555
O2 C16 1_555 1_555
O3 Zn1 1_555 1_555
O4 Zn1 1_555 1_555
O5 Zn1 1_555 1_555
O6 C17 1_555 1_555
C2 C9 1_555 1_555
C3 N1 1_555 1_555
C4 C3 1_555 1_555
C5 C4 1_555 1_555
H2 C5 1_555 1_555
C6 N4 1_555 1_555
H3 C6 1_555 1_555
C7 C6 1_555 1_555
H4 C7 1_555 1_555
C8 C4 1_555 1_555
H5 C8 1_555 1_555
C9 H6 1_555 1_555
H7 C9 1_555 1_555
H8 C9 1_555 1_555
C10 N3 1_555 1_555
C11 C10 1_555 1_555
H9 C11 1_555 1_555
C12 C11 1_555 1_555
H10 C12 1_555 1_555
C13 C12 1_555 1_555
C14 C13 1_555 1_555
H11 C14 1_555 1_555
C15 C10 1_555 1_555
H12 C15 1_555 1_555
C16 C13 1_555 1_555
C17 O5 1_555 1_555
C18 C17 1_555 1_555
C19 C18 1_555 1_555
H13 C19 1_555 1_555
C20 C19 1_555 1_555
H14 C20 1_555 1_555
C21 C1 1_555 1_555
H15 C21 1_555 1_555
C22 C20 1_555 1_555
C23 C22 1_555 1_555
H16 C23 1_555 1_555
C24 C18 1_555 1_555
H17 C24 1_555 1_555
C25 N5 1_555 1_555
C26 N7 1_555 1_555
C27 C25 1_555 1_555
H18 C27 1_555 1_555
H19 C27 1_555 1_555
H20 C27 1_555 1_555
C28 C26 1_555 1_555
C29 C28 1_555 1_555
H21 C29 1_555 1_555
N8 C21 1_555 1_555
C30 C1 1_555 1_555
H22 C30 1_555 1_555
C31 O3 1_555 1_555
C32 C31 1_555 1_555
C33 C32 1_555 1_555
H23 C33 1_555 1_555
C34 C33 1_555 1_555
H24 C34 1_555 1_555
O3D C31D 1_555 1_555
O4D C31D 1_555 1_555
C31D C32D 1_555 1_555
C32D C34 1_555 1_555
C33D C32D 1_555 1_555
H23D C33D 1_555 1_555
C34D C32 1_555 1_555
H24D C34D 1_555 1_555
Zn1A N2A 1_555 1_555
N1A N2A 1_555 1_555
N2A C2A 1_555 1_555
N3A C2A 1_555 1_555
N4A C5A 1_555 1_555
N5A Zn2 1_555 1_555
N6A N5A 1_555 1_555
N7A C22A 1_555 1_555
C1A H1A 1_555 1_555
O1A C16A 1_555 1_555
O2A C16A 1_555 1_555
O5A Zn1A 1_555 1_555
O6A C17A 1_555 1_555
C2A C9A 1_555 1_555
C3A N1A 1_555 1_555
C4A C3A 1_555 1_555
C5A C4A 1_555 1_555
H2A C5A 1_555 1_555
C6A N4A 1_555 1_555
H3A C6A 1_555 1_555
C7A C6A 1_555 1_555
H4A C7A 1_555 1_555
C8A C4A 1_555 1_555
H5A C8A 1_555 1_555
C9A H6A 1_555 1_555
H7A C9A 1_555 1_555
H8A C9A 1_555 1_555
C10A N3A 1_555 1_555
C11A C10A 1_555 1_555
H9A C11A 1_555 1_555
C12A C11A 1_555 1_555
H10A C12A 1_555 1_555
C13A C12A 1_555 1_555
C14A C13A 1_555 1_555
H11A C14A 1_555 1_555
C15A C10A 1_555 1_555
H12A C15A 1_555 1_555
C16A C13A 1_555 1_555
C17A O5A 1_555 1_555
C18A C17A 1_555 1_555
C19A C18A 1_555 1_555
H13A C19A 1_555 1_555
C20A C19A 1_555 1_555
H14A C20A 1_555 1_555
C21A C1A 1_555 1_555
H15A C21A 1_555 1_555
C22A C20A 1_555 1_555
C23A C22A 1_555 1_555
H16A C23A 1_555 1_555
C24A C18A 1_555 1_555
H17A C24A 1_555 1_555
C25A N5A 1_555 1_555
C26A N6A 1_555 1_555
C27A C25A 1_555 1_555
H18A C27A 1_555 1_555
H19A C27A 1_555 1_555
H20A C27A 1_555 1_555
C28A C26A 1_555 1_555
C29A C28A 1_555 1_555
H21A C29A 1_555 1_555
N8A C21A 1_555 1_555
C30A C1A 1_555 1_555
H22A C30A 1_555 1_555
Zn1D O3D 1_555 1_555
Zn1F N4 1_555 1_555
Zn1G N4A 1_555 1_555
Zn2D O1A 1_555 1_555
Zn2D_2 O1 1_555 1_555
N4F Zn1 1_555 1_555
N4G Zn1A 1_555 1_555
O1D Zn2 1_555 1_555
O1E Zn2 1_555 1_555
O2D Zn2 1_555 1_555
O2E Zn2 1_555 1_555
O3A Zn1A 1_555 1_555
O4A Zn1A 1_555 1_555
N3 C3 1_555 1_555
N7 C25 1_555 1_555
O2 Zn2D_2 1_555 1_555
O4 C31 1_555 1_555
C7 C8 1_555 1_555
C14 C15 1_555 1_555
C23 C24 1_555 1_555
C28 C30 1_555 1_555
C29 N8 1_555 1_555
O4D Zn1D 1_555 1_555
C33D C34D 1_555 1_555
N3A C3A 1_555 1_555
N7A C25A 1_555 1_555
N7A C26A 1_555 1_555
O2A Zn2D 1_555 1_555
C7A C8A 1_555 1_555
C14A C15A 1_555 1_555
C23A C24A 1_555 1_555
C28A C30A 1_555 1_555
C29A N8A 1_555 1_555

#END
