
#######################################################################
#
#                 Cambridge Crystallographic Data Centre
#                                CCDC 
#
#######################################################################
#
# If this CIF has been generated from an entry in the Cambridge 
# Structural Database, then it will include bibliographic, chemical, 
# crystal, experimental, refinement or atomic coordinate data resulting 
# from the CCDC's data processing and validation procedures.
#
#######################################################################

data_PODPAA
_symmetry_cell_setting           monoclinic
_symmetry_space_group_name_H-M   'C c'
_symmetry_Int_Tables_number      9
_space_group_name_Hall           'C -2yc'
loop_
_symmetry_equiv_pos_site_id
_symmetry_equiv_pos_as_xyz
1 x,y,z
2 x,-y,1/2+z
3 1/2+x,1/2+y,z
4 1/2+x,1/2-y,1/2+z
_cell_length_a                   15.1641(9)
_cell_length_b                   13.1653(9)
_cell_length_c                   20.6761(19)
_cell_angle_alpha                90
_cell_angle_beta                 102.7530(10)
_cell_angle_gamma                90
_cell_volume                     4025.95
loop_
_atom_site_label
_atom_site_type_symbol
_atom_site_fract_x
_atom_site_fract_y
_atom_site_fract_z
Co1 Co 0.59672(3) 1.07560(4) 0.12677(3)
Co2 Co 1.28068(3) 1.19311(4) 0.39342(3)
C1 C 0.7174(3) 1.1442(3) 0.2550(2)
H1 H 0.7666 1.1099 0.2456
C2 C 0.5844(3) 1.2016(3) 0.2496(2)
H2 H 0.5229 1.2139 0.2349
C3 C 0.6374(3) 1.2411(4) 0.3047(2)
H3 H 0.6196 1.2850 0.3347
C4 C 0.8036(3) 1.2323(4) 0.3573(2)
H4 H 0.8515 1.1843 0.3555
H5 H 0.7915 1.2296 0.4015
C5 C 0.8328(3) 1.3369(4) 0.3437(3)
H6 H 0.8428 1.3410 0.2990
H7 H 0.7868 1.3859 0.3481
C6 C 0.9403(3) 1.4604(4) 0.3907(3)
H8 H 0.8959 1.5031 0.4049
H9 H 0.9444 1.4810 0.3465
C7 C 1.0296(3) 1.4717(4) 0.4371(2)
H10 H 1.0418 1.5433 0.4458
H11 H 1.0275 1.4392 0.4789
C8 C 1.1422(3) 1.4674(4) 0.3632(3)
H12 H 1.1280 1.5289 0.3411
C9 C 1.2045(3) 1.4013(4) 0.3539(3)
H13 H 1.2421 1.4094 0.3243
C10 C 1.1420(3) 1.3389(3) 0.4281(2)
H14 H 1.1272 1.2954 0.4595
C11 C 0.4490(3) 0.9192(3) 0.0960(2)
H15 H 0.4141 0.9599 0.0633
C12 C 0.5569(4) 0.8647(4) 0.1723(3)
H16 H 0.6118 0.8597 0.2029
C13 C 0.4893(4) 0.7956(4) 0.1626(3)
H17 H 0.4892 0.7348 0.1854
C14 C 0.3368(3) 0.7799(4) 0.0858(3)
H18 H 0.3134 0.8065 0.0416
H19 H 0.3480 0.7079 0.0817
C15 C 0.2691(5) 0.7927(5) 0.1245(4)
H20 H 0.2167 0.7518 0.1050
H21 H 0.2930 0.7670 0.1689
C16 C 0.1631(4) 0.9020(5) 0.1544(3)
H22 H 0.1736 0.8744 0.1989
H23 H 0.1135 0.8650 0.1267
C17 C 0.1405(3) 1.0105(5) 0.1553(3)
H24 H 0.1382 1.0389 0.1116
H25 H 0.0807 1.0173 0.1645
C18 C 0.2877(3) 1.1029(4) 0.1990(3)
H26 H 0.3144 1.0959 0.1628
C19 C 0.3230(3) 1.1485(4) 0.2569(2)
H27 H 0.3795 1.1795 0.2674
C20 C 0.1928(3) 1.0941(4) 0.2641(2)
H28 H 0.1413 1.0792 0.2797
C21 C 0.7544(3) 0.9815(3) 0.1130(2)
C22 C 0.8204(2) 0.9414(3) 0.0749(2)
C23 C 0.8341(3) 0.9904(3) 0.0182(2)
H29 H 0.8023 1.0493 0.0034
C24 C 0.8953(3) 0.9508(3) -0.0160(2)
H30 H 0.9049 0.9841 -0.0535
C25 C 0.9421(3) 0.8627(3) 0.0051(2)
H31 H 0.9836 0.8373 -0.0179
C26 C 0.9272(2) 0.8122(3) 0.06058(18)
C27 C 0.8672(2) 0.8517(3) 0.09497(18)
H32 H 0.8576 0.8178 0.1323
C28 C 0.9730(3) 0.7129(3) 0.0837(2)
C29 C 1.4407(3) 1.2786(3) 0.4178(2)
C30 C 1.5333(3) 1.3168(3) 0.44829(19)
C31 C 1.5917(3) 1.2643(3) 0.4974(2)
H33 H 1.5727 1.2043 0.5138
C32 C 1.6783(3) 1.2999(4) 0.5228(3)
H34 H 1.7177 1.2631 0.5552
C33 C 1.7060(3) 1.3906(4) 0.4996(2)
H35 H 1.7645 1.4143 0.5161
C34 C 1.6470(2) 1.4460(3) 0.4521(2)
C35 C 1.5618(2) 1.4084(3) 0.42610(18)
H36 H 1.5227 1.4447 0.3932
C36 C 1.6734(3) 1.5474(3) 0.4277(2)
N1 N 0.6354(2) 1.1400(2) 0.21813(16)
N2 N 0.7214(2) 1.2043(3) 0.30794(16)
N3 N 1.1026(2) 1.4277(2) 0.41162(19)
N4 N 1.2045(2) 1.3194(2) 0.39478(17)
N5 N 0.5302(2) 0.9434(3) 0.12895(18)
N6 N 0.4225(3) 0.8306(3) 0.1144(2)
N7 N 0.2045(3) 1.0689(3) 0.20420(19)
N8 N 0.2640(2) 1.1430(3) 0.29847(16)
O1 O 0.69757(19) 1.0482(2) 0.08332(15)
O2 O 0.7561(2) 0.9512(3) 0.16961(16)
O3 O 0.9419(2) 0.6577(2) 0.12121(17)
O4 O 1.04582(18) 0.6901(2) 0.06551(14)
O5 O 1.40953(18) 1.2043(2) 0.44555(15)
O6 O 1.3958(2) 1.3188(2) 0.36714(16)
O7 O 1.6159(2) 1.5991(2) 0.39070(17)
O8 O 1.7556(2) 1.5744(2) 0.44611(16)
O9 O 0.9138(2) 1.3568(2) 0.39055(16)
O10 O 0.2414(3) 0.8919(4) 0.1291(3)
Co1B Co 1.09672(3) 0.57560(4) 0.12677(3)
Co2_2 Co 0.28068(3) 1.19311(4) 0.39342(3)
Co2B Co 1.78068(3) 1.69311(4) 0.39342(3)
N8_2 N 1.2640(2) 1.1430(3) 0.29847(16)
O4B O 0.54582(18) 1.1901(2) 0.06551(14)
O8B O 1.2556(2) 1.0744(2) 0.44611(16)
O11 O 0.9264(4) 0.9184(4) 0.2560(2)
H37 H 0.861(6) 0.932(6) 0.236(4)
H38 H 0.911(6) 0.905(7) 0.291(3)
O12 O 0.4608(4) 0.6253(4) 0.2791(3)
H39 H 0.496(6) 0.621(7) 0.317(4)
H40 H 0.467(7) 0.569(7) 0.260(5)
loop_
_geom_bond_atom_site_label_1
_geom_bond_atom_site_label_2
_geom_bond_site_symmetry_1
_geom_bond_site_symmetry_2
Co1 N1 1_555 1_555
Co2 N4 1_555 1_555
C1 H1 1_555 1_555
C2 H2 1_555 1_555
C3 C2 1_555 1_555
H3 C3 1_555 1_555
C4 H4 1_555 1_555
H5 C4 1_555 1_555
C5 C4 1_555 1_555
H6 C5 1_555 1_555
H7 C5 1_555 1_555
C6 H8 1_555 1_555
H9 C6 1_555 1_555
C7 C6 1_555 1_555
H10 C7 1_555 1_555
H11 C7 1_555 1_555
C8 H12 1_555 1_555
C9 C8 1_555 1_555
H13 C9 1_555 1_555
C10 H14 1_555 1_555
C11 H15 1_555 1_555
C12 H16 1_555 1_555
C13 C12 1_555 1_555
H17 C13 1_555 1_555
C14 H18 1_555 1_555
H19 C14 1_555 1_555
C15 C14 1_555 1_555
H20 C15 1_555 1_555
H21 C15 1_555 1_555
C16 H22 1_555 1_555
H23 C16 1_555 1_555
C17 C16 1_555 1_555
H24 C17 1_555 1_555
H25 C17 1_555 1_555
C18 H26 1_555 1_555
C19 C18 1_555 1_555
H27 C19 1_555 1_555
C20 H28 1_555 1_555
C21 C22 1_555 1_555
C22 C23 1_555 1_555
C23 H29 1_555 1_555
C24 C23 1_555 1_555
H30 C24 1_555 1_555
C25 C24 1_555 1_555
H31 C25 1_555 1_555
C26 C25 1_555 1_555
C27 C22 1_555 1_555
H32 C27 1_555 1_555
C28 C26 1_555 1_555
C29 C30 1_555 1_555
C30 C31 1_555 1_555
C31 H33 1_555 1_555
C32 C31 1_555 1_555
H34 C32 1_555 1_555
C33 C32 1_555 1_555
H35 C33 1_555 1_555
C34 C33 1_555 1_555
C35 C30 1_555 1_555
H36 C35 1_555 1_555
C36 C34 1_555 1_555
N1 C1 1_555 1_555
N2 C1 1_555 1_555
N3 C7 1_555 1_555
N4 C9 1_555 1_555
N5 Co1 1_555 1_555
N6 C11 1_555 1_555
N7 C17 1_555 1_555
N8 C19 1_555 1_555
O1 Co1 1_555 1_555
O2 C21 1_555 1_555
O3 C28 1_555 1_555
O4 C28 1_555 1_555
O5 Co2 1_555 1_555
O6 C29 1_555 1_555
O7 C36 1_555 1_555
O8 C36 1_555 1_555
O9 C5 1_555 1_555
O10 C15 1_555 1_555
O11 H37 1_555 1_555
O12 H39 1_555 1_555
H38 O11 1_555 1_555
H40 O12 1_555 1_555
Co1B O4 1_555 1_555
Co2_2 N8 1_555 1_555
Co2B O8 1_555 1_555
N8_2 Co2 1_555 1_555
O4B Co1 1_555 1_555
O8B Co2 1_555 1_555
C2 N1 1_555 1_555
C3 N2 1_555 1_555
C4 N2 1_555 1_555
C6 O9 1_555 1_555
C8 N3 1_555 1_555
C10 N3 1_555 1_555
C10 N4 1_555 1_555
C11 N5 1_555 1_555
C12 N5 1_555 1_555
C13 N6 1_555 1_555
C14 N6 1_555 1_555
C16 O10 1_555 1_555
C18 N7 1_555 1_555
C20 N7 1_555 1_555
C20 N8 1_555 1_555
C21 O1 1_555 1_555
C26 C27 1_555 1_555
C29 O5 1_555 1_555
C34 C35 1_555 1_555

#END
