
#######################################################################
#
#                 Cambridge Crystallographic Data Centre
#                                CCDC 
#
#######################################################################
#
# If this CIF has been generated from an entry in the Cambridge 
# Structural Database, then it will include bibliographic, chemical, 
# crystal, experimental, refinement or atomic coordinate data resulting 
# from the CCDC's data processing and validation procedures.
#
#######################################################################

data_PODROR
_symmetry_cell_setting           triclinic
_symmetry_space_group_name_H-M   'P -1'
_symmetry_Int_Tables_number      2
_space_group_name_Hall           '-P 1'
loop_
_symmetry_equiv_pos_site_id
_symmetry_equiv_pos_as_xyz
1 x,y,z
2 -x,-y,-z
_cell_length_a                   7.9497(10)
_cell_length_b                   8.6273(11)
_cell_length_c                   14.1801(14)
_cell_angle_alpha                81.028(9)
_cell_angle_beta                 78.780(10)
_cell_angle_gamma                73.165(11)
_cell_volume                     907.911
loop_
_atom_site_label
_atom_site_type_symbol
_atom_site_fract_x
_atom_site_fract_y
_atom_site_fract_z
Ni1 Ni 0.31732(6) 0.24107(5) 0.24705(3)
S1 S 0.59756(11) 0.23544(13) 0.43383(6)
S2 S 0.26029(11) 0.27906(11) 0.57644(5)
S3 S 0.72833(10) 0.24641(11) 0.06511(6)
S4 S 0.51360(10) 0.22357(10) -0.08246(5)
O1 O 0.4390(3) 0.4341(3) 0.23704(17)
O2 O 0.5660(3) 0.0709(3) 0.25886(16)
N1 N 0.2658(3) 0.2525(3) 0.39976(16)
N2 N 0.0911(3) 0.2717(3) 0.44316(16)
N3 N -0.1306(3) 0.1707(3) 0.66256(16)
N4 N -0.0402(3) 0.1229(3) 0.73870(18)
N5 N -0.2015(3) -0.0490(3) 0.73184(16)
N6 N 0.3827(3) 0.2352(3) 0.09526(16)
N7 N 0.2468(3) 0.2279(3) 0.04990(16)
N8 N 0.0960(3) 0.3760(3) -0.15780(16)
N9 N 0.2036(3) 0.4568(3) -0.21974(18)
N10 N -0.0838(3) 0.5854(3) -0.22443(16)
C1 C 0.3744(4) 0.2528(4) 0.4600(2)
C2 C 0.0678(4) 0.2872(3) 0.53424(19)
C3 C -0.1122(4) 0.3149(3) 0.5959(2)
H1 H -0.1311 0.4059 0.6328
H2 H -0.2030 0.3431 0.5546
C4 C -0.2255(4) 0.0688(3) 0.65990(19)
H3 H -0.2984 0.0785 0.6142
C5 C -0.0873(4) -0.0108(4) 0.7781(2)
H4 H -0.0457 -0.0731 0.8327
C6 C 0.5333(4) 0.2348(3) 0.0359(2)
C7 C 0.2938(4) 0.2237(3) -0.0421(2)
C8 C 0.1682(4) 0.2166(3) -0.1065(2)
H5 H 0.2302 0.1399 -0.1533
H6 H 0.0710 0.1774 -0.0679
C9 C -0.0735(4) 0.4539(3) -0.1617(2)
H7 H -0.1704 0.4209 -0.1256
C10 C 0.0886(4) 0.5818(4) -0.2571(2)
H8 H 0.1229 0.6617 -0.3024
H9 H 0.587(5) 0.090(5) 0.3099(18)
H10 H 0.635(5) 0.109(5) 0.215(3)
H11 H 0.522(5) 0.420(5) 0.190(2)
H12 H 0.496(5) 0.418(5) 0.283(2)
Ni1A Ni -0.31732(6) -0.24107(5) 0.75295(3)
Ni1A_2 Ni -0.31732(6) 0.75893(5) -0.24705(3)
N5A N 0.2015(3) 0.0490(3) 0.26816(16)
N10A N 0.0838(3) 0.4146(3) 0.22443(16)
loop_
_geom_bond_atom_site_label_1
_geom_bond_atom_site_label_2
_geom_bond_site_symmetry_1
_geom_bond_site_symmetry_2
Ni1 O1 1_555 1_555
S1 C1 1_555 1_555
S2 C1 1_555 1_555
S3 C6 1_555 1_555
S4 C6 1_555 1_555
O1 H11 1_555 1_555
O2 Ni1 1_555 1_555
N1 Ni1 1_555 1_555
N2 N1 1_555 1_555
N3 N4 1_555 1_555
N4 C5 1_555 1_555
N5 C4 1_555 1_555
N6 Ni1 1_555 1_555
N7 N6 1_555 1_555
N8 N9 1_555 1_555
N9 C10 1_555 1_555
N10 C9 1_555 1_555
C1 N1 1_555 1_555
C2 S2 1_555 1_555
C3 N3 1_555 1_555
H1 C3 1_555 1_555
H2 C3 1_555 1_555
C4 N3 1_555 1_555
H3 C4 1_555 1_555
C5 N5 1_555 1_555
H4 C5 1_555 1_555
C6 N6 1_555 1_555
C7 S4 1_555 1_555
C8 N8 1_555 1_555
H5 C8 1_555 1_555
H6 C8 1_555 1_555
C9 N8 1_555 1_555
H7 C9 1_555 1_555
C10 N10 1_555 1_555
H8 C10 1_555 1_555
H9 O2 1_555 1_555
H10 O2 1_555 1_555
H12 O1 1_555 1_555
Ni1A N5 1_555 1_555
Ni1A_2 N10 1_555 1_555
N5A Ni1 1_555 1_555
N10A Ni1 1_555 1_555
N2 C2 1_555 1_555
N7 C7 1_555 1_555
C2 C3 1_555 1_555
C7 C8 1_555 1_555

#END
