
#######################################################################
#
#                 Cambridge Crystallographic Data Centre
#                                CCDC 
#
#######################################################################
#
# If this CIF has been generated from an entry in the Cambridge 
# Structural Database, then it will include bibliographic, chemical, 
# crystal, experimental, refinement or atomic coordinate data resulting 
# from the CCDC's data processing and validation procedures.
#
#######################################################################

data_PODRUX
_symmetry_cell_setting           triclinic
_symmetry_space_group_name_H-M   'P -1'
_symmetry_Int_Tables_number      2
_space_group_name_Hall           '-P 1'
loop_
_symmetry_equiv_pos_site_id
_symmetry_equiv_pos_as_xyz
1 x,y,z
2 -x,-y,-z
_cell_length_a                   7.9295(16)
_cell_length_b                   8.5837(17)
_cell_length_c                   14.385(3)
_cell_angle_alpha                81.02(3)
_cell_angle_beta                 79.30(3)
_cell_angle_gamma                73.30(3)
_cell_volume                     915.998
loop_
_atom_site_label
_atom_site_type_symbol
_atom_site_fract_x
_atom_site_fract_y
_atom_site_fract_z
C1 C 0.3822(5) 0.7510(5) 0.9606(3)
C2 C 0.0767(5) 0.7861(5) 1.0349(3)
C3 C -0.1035(5) 0.8157(5) 1.0948(3)
H1 H -0.1213 0.9074 1.1307
H2 H -0.1944 0.8443 1.0537
C4 C -0.2174(5) 0.5697(5) 1.1577(3)
H3 H -0.2876 0.5780 1.1111
N1 N -0.0354(5) 0.6247(4) 1.2382(2)
C5 C 0.5366(5) 0.7381(5) 0.5365(3)
C6 C 0.2974(5) 0.7233(5) 0.4593(3)
C7 C 0.1714(6) 0.7144(5) 0.3962(3)
H4 H 0.2329 0.6356 0.3514
H5 H 0.0741 0.6759 0.4346
C8 C -0.0708(5) 0.9524(5) 0.3412(3)
H6 H -0.1673 0.9222 0.3791
N2 N 0.2063(4) 0.9484(4) 0.2793(2)
Co1 Co 0.32028(7) 0.74144(6) 0.74753(4)
N3 N 0.2726(4) 0.7503(4) 0.9015(2)
N4 N 0.0974(4) 0.7707(4) 0.9450(2)
N5 N -0.1231(4) 0.6721(4) 1.1607(2)
N6 N -0.1985(4) 0.4535(4) 1.2299(2)
C9 C -0.0860(6) 0.4931(5) 1.2769(3)
H7 H -0.0478 0.4320 1.3321
N7 N 0.3864(4) 0.7377(4) 0.5946(2)
N8 N 0.2494(4) 0.7294(4) 0.5501(2)
N9 N 0.0990(4) 0.8720(4) 0.3437(2)
N10 N -0.0823(4) 1.0823(4) 0.2765(2)
C10 C 0.0896(5) 1.0737(5) 0.2413(3)
H8 H 0.1235 1.1504 0.1939
O1 O 0.4418(4) 0.9399(4) 0.7401(2)
H9 H 0.497(5) 0.925(6) 0.7869(18)
H10 H 0.520(4) 0.942(6) 0.6914(17)
O2 O 0.5738(4) 0.5719(4) 0.7585(2)
H11 H 0.601(6) 0.599(6) 0.8065(16)
H12 H 0.638(5) 0.609(6) 0.7116(17)
S1 S 0.60516(16) 0.73222(18) 0.93426(8)
S2 S 0.27052(16) 0.77722(16) 1.07535(8)
S3 S 0.73002(15) 0.75229(16) 0.56608(8)
S4 S 0.51537(15) 0.72493(15) 0.42009(8)
Co1A Co -0.32028(7) 0.25856(6) 1.25247(4)
Co1A_2 Co -0.32028(7) 1.25856(6) 0.25247(4)
N6A N 0.1985(4) 0.5465(4) 0.7701(2)
N10A N 0.0823(4) 0.9177(4) 0.7235(2)
loop_
_geom_bond_atom_site_label_1
_geom_bond_atom_site_label_2
_geom_bond_site_symmetry_1
_geom_bond_site_symmetry_2
C1 N3 1_555 1_555
C2 C3 1_555 1_555
C3 H1 1_555 1_555
H2 C3 1_555 1_555
C4 H3 1_555 1_555
N1 N5 1_555 1_555
C5 N7 1_555 1_555
C6 C7 1_555 1_555
C7 H4 1_555 1_555
H5 C7 1_555 1_555
C8 H6 1_555 1_555
N2 N9 1_555 1_555
Co1 N3 1_555 1_555
N3 N4 1_555 1_555
N4 C2 1_555 1_555
N5 C3 1_555 1_555
N6 C4 1_555 1_555
C9 N1 1_555 1_555
H7 C9 1_555 1_555
N7 Co1 1_555 1_555
N8 C6 1_555 1_555
N9 C7 1_555 1_555
N10 C8 1_555 1_555
C10 N2 1_555 1_555
H8 C10 1_555 1_555
O1 Co1 1_555 1_555
H9 O1 1_555 1_555
H10 O1 1_555 1_555
O2 Co1 1_555 1_555
H11 O2 1_555 1_555
H12 O2 1_555 1_555
S1 C1 1_555 1_555
S2 C1 1_555 1_555
S3 C5 1_555 1_555
S4 C5 1_555 1_555
Co1A N6 1_555 1_555
Co1A_2 N10 1_555 1_555
N6A Co1 1_555 1_555
N10A Co1 1_555 1_555
C2 S2 1_555 1_555
C4 N5 1_555 1_555
C6 S4 1_555 1_555
C8 N9 1_555 1_555
N6 C9 1_555 1_555
N7 N8 1_555 1_555
N10 C10 1_555 1_555

#END
