
#######################################################################
#
#                 Cambridge Crystallographic Data Centre
#                                CCDC 
#
#######################################################################
#
# If this CIF has been generated from an entry in the Cambridge 
# Structural Database, then it will include bibliographic, chemical, 
# crystal, experimental, refinement or atomic coordinate data resulting 
# from the CCDC's data processing and validation procedures.
#
#######################################################################

data_PODREH
_symmetry_cell_setting           monoclinic
_symmetry_space_group_name_H-M   'C 2'
_symmetry_Int_Tables_number      5
_space_group_name_Hall           'C 2y'
loop_
_symmetry_equiv_pos_site_id
_symmetry_equiv_pos_as_xyz
1 x,y,z
2 -x,y,-z
3 1/2+x,1/2+y,z
4 1/2-x,1/2+y,-z
_cell_length_a                   17.400(4)
_cell_length_b                   7.7601(16)
_cell_length_c                   14.905(3)
_cell_angle_alpha                90
_cell_angle_beta                 122.99(3)
_cell_angle_gamma                90
_cell_volume                     1688.06
loop_
_atom_site_label
_atom_site_type_symbol
_atom_site_fract_x
_atom_site_fract_y
_atom_site_fract_z
Zn1 Zn 0.25103(2) 0.10799(7) 0.74463(3)
N1 N 0.21163(17) 0.2363(4) 0.8306(2)
N2 N 0.14339(16) 0.3099(4) 0.9101(2)
N3 N 0.21206(18) 0.4284(4) 0.9428(2)
N4 N -0.06746(18) 0.4613(4) 0.8512(2)
N5 N -0.11173(15) 0.6191(4) 0.81916(17)
N6 N 0.18877(18) 0.2410(3) 0.6054(2)
N7 N 0.13866(19) 0.4395(4) 0.4840(2)
N8 N 0.0821(3) 0.3066(5) 0.4356(3)
N9 N 0.0320(2) 0.8494(4) 0.3910(3)
N10 N -0.0555(2) 0.9122(4) 0.3512(3)
S1 S 0.05701(6) 0.68754(12) 0.91075(7)
S2 S -0.08730(6) 0.96361(13) 0.82007(8)
S3 S -0.06834(6) 0.58427(13) 0.33594(7)
S4 S -0.23111(6) 0.81292(13) 0.26791(8)
C1 C 0.2504(2) 0.3791(5) 0.8922(3)
H1 H 0.2997 0.4365 0.8978
C2 C 0.1440(2) 0.1987(4) 0.8442(2)
H2 H 0.1032 0.1074 0.8118
C3 C 0.0819(2) 0.3224(5) 0.9480(3)
H3 H 0.1176 0.3320 1.0254
H4 H 0.0451 0.2186 0.9286
C4 C 0.0197(2) 0.4776(4) 0.8998(2)
C5 C -0.0568(2) 0.7554(5) 0.8448(3)
C6 C 0.1144(3) 0.1911(6) 0.5111(3)
H5 H 0.0882 0.0826 0.5007
C7 C 0.2014(2) 0.3993(5) 0.5838(2)
H6 H 0.2481 0.4723 0.6323
C8 C 0.1251(2) 0.5969(6) 0.4244(3)
H7 H 0.1267 0.5701 0.3619
H8 H 0.1750 0.6758 0.4687
C9 C 0.0359(2) 0.6836(5) 0.3893(2)
C10 C -0.1152(2) 0.7875(4) 0.3195(3)
Zn1A Zn -0.25103(2) 1.10799(7) 0.25537(3)
Zn1B Zn -0.24897(2) 0.60799(7) 0.74463(3)
N5B N 0.38827(15) 0.1191(4) 0.81916(17)
S4A S 0.23111(6) -0.18708(13) 0.73209(8)
loop_
_geom_bond_atom_site_label_1
_geom_bond_atom_site_label_2
_geom_bond_site_symmetry_1
_geom_bond_site_symmetry_2
Zn1 N1 1_555 1_555
N1 C1 1_555 1_555
N2 N3 1_555 1_555
N3 C1 1_555 1_555
N4 N5 1_555 1_555
N5 C5 1_555 1_555
N6 Zn1 1_555 1_555
N7 N8 1_555 1_555
N8 C6 1_555 1_555
N9 N10 1_555 1_555
N10 C10 1_555 1_555
S1 C4 1_555 1_555
S2 C5 1_555 1_555
S3 C9 1_555 1_555
S4 C10 1_555 1_555
C1 H1 1_555 1_555
C2 N1 1_555 1_555
H2 C2 1_555 1_555
C3 N2 1_555 1_555
H3 C3 1_555 1_555
H4 C3 1_555 1_555
C4 N4 1_555 1_555
C5 S1 1_555 1_555
C6 N6 1_555 1_555
H5 C6 1_555 1_555
C7 N6 1_555 1_555
H6 C7 1_555 1_555
C8 N7 1_555 1_555
H7 C8 1_555 1_555
H8 C8 1_555 1_555
C9 N9 1_555 1_555
C10 S3 1_555 1_555
Zn1A S4 1_555 1_555
Zn1B N5 1_555 1_555
N5B Zn1 1_555 1_555
S4A Zn1 1_555 1_555
N2 C2 1_555 1_555
N7 C7 1_555 1_555
C3 C4 1_555 1_555
C8 C9 1_555 1_555

#END
