
#######################################################################
#
#                 Cambridge Crystallographic Data Centre
#                                CCDC 
#
#######################################################################
#
# If this CIF has been generated from an entry in the Cambridge 
# Structural Database, then it will include bibliographic, chemical, 
# crystal, experimental, refinement or atomic coordinate data resulting 
# from the CCDC's data processing and validation procedures.
#
#######################################################################

data_PODVIP
_symmetry_cell_setting           triclinic
_symmetry_space_group_name_H-M   'P -1'
_symmetry_Int_Tables_number      2
_space_group_name_Hall           '-P 1'
loop_
_symmetry_equiv_pos_site_id
_symmetry_equiv_pos_as_xyz
1 x,y,z
2 -x,-y,-z
_cell_length_a                   9.2355(18)
_cell_length_b                   11.278(2)
_cell_length_c                   18.640(4)
_cell_angle_alpha                93.948(2)
_cell_angle_beta                 98.273(2)
_cell_angle_gamma                109.090(2)
_cell_volume                     1801.64
loop_
_atom_site_label
_atom_site_type_symbol
_atom_site_fract_x
_atom_site_fract_y
_atom_site_fract_z
U1 U 0.59184(3) 0.45743(2) 0.313426(15)
U2 U 0.65801(3) -0.02313(2) 0.309517(15)
Cu1 Cu 0.13124(10) -0.04595(8) 0.38221(5)
P1 P 0.3540(2) 0.13206(17) 0.28605(10)
P2 P 0.1244(2) 0.23227(17) -0.28114(10)
P3 P 0.3492(2) -0.33573(17) 0.28874(11)
P4 P 0.1206(2) -0.30453(18) -0.28546(11)
O1 O 0.6329(6) 0.4970(5) 0.4087(3)
O2 O 0.5499(6) 0.4158(5) 0.2179(3)
O3 O 0.6995(6) 0.0149(5) 0.4068(3)
O4 O 0.6205(6) -0.0645(5) 0.2138(3)
O5 O 0.4206(6) 0.2669(4) 0.3272(3)
O6 O 0.4772(6) 0.0695(5) 0.2967(3)
O7 O 0.2041(5) 0.0565(4) 0.3090(3)
O8 O -0.0490(5) 0.2057(4) -0.3102(2)
O9 O 0.2241(6) 0.3614(5) -0.2960(3)
O10 O 0.1674(6) 0.1268(5) -0.3181(3)
O11 O 0.4550(6) -0.2056(5) 0.3226(3)
O12 O 0.1907(6) -0.3671(4) 0.3201(3)
O13 O 0.4115(6) -0.4402(5) 0.3045(3)
O14 O -0.0577(6) -0.3724(5) -0.3164(3)
O15 O 0.2108(6) -0.3731(5) -0.3218(3)
O16 O 0.1577(6) -0.1694(5) -0.2995(3)
O17 O 0.3449(7) -0.0717(7) 0.4361(3)
N1 N 0.0192(7) -0.1402(5) 0.4593(3)
N2 N -0.1055(7) -0.1026(5) 0.5574(3)
C1 C 0.3104(8) 0.1448(6) 0.1905(4)
C2 C 0.3885(10) 0.1072(8) 0.1404(4)
H1 H 0.4612 0.0691 0.1554
C3 C 0.3584(10) 0.1263(9) 0.0676(4)
H2 H 0.4129 0.1015 0.0347
C4 C 0.2515(8) 0.1803(7) 0.0431(4)
C5 C 0.1738(10) 0.2180(8) 0.0937(4)
H3 H 0.1005 0.2553 0.0784
C6 C 0.2033(10) 0.2012(8) 0.1659(4)
H4 H 0.1505 0.2282 0.1989
C7 C 0.2172(9) 0.1967(7) -0.0362(4)
C8 C 0.0930(11) 0.1111(9) -0.0832(5)
H5 H 0.0260 0.0435 -0.0650
C9 C 0.0653(10) 0.1228(9) -0.1559(5)
H6 H -0.0161 0.0603 -0.1867
C10 C 0.1554(8) 0.2253(6) -0.1847(4)
C11 C 0.2818(10) 0.3117(8) -0.1383(4)
H7 H 0.3473 0.3800 -0.1566
C12 C 0.3122(11) 0.2978(8) -0.0644(4)
H8 H 0.3974 0.3572 -0.0339
C13 C 0.2995(9) -0.3357(7) 0.1928(4)
C14 C 0.3027(10) -0.4343(7) 0.1437(4)
H9 H 0.3289 -0.5014 0.1608
C15 C 0.2661(10) -0.4306(8) 0.0687(4)
H10 H 0.2683 -0.4963 0.0363
C16 C 0.2270(9) -0.3335(7) 0.0412(4)
C17 C 0.2202(12) -0.2377(8) 0.0919(5)
H11 H 0.1923 -0.1711 0.0750
C18 C 0.2539(11) -0.2409(8) 0.1655(5)
H12 H 0.2457 -0.1777 0.1977
C19 C 0.1979(9) -0.3280(8) -0.0383(4)
C20 C 0.1412(10) -0.4368(8) -0.0885(5)
H13 H 0.1197 -0.5155 -0.0717
C21 C 0.1161(10) -0.4301(8) -0.1633(4)
H14 H 0.0768 -0.5039 -0.1960
C22 C 0.1497(9) -0.3131(7) -0.1892(4)
C23 C 0.2017(9) -0.2041(8) -0.1403(4)
H15 H 0.2200 -0.1257 -0.1572
C24 C 0.2268(10) -0.2119(8) -0.0652(5)
H16 H 0.2636 -0.1379 -0.0326
C25 C -0.1496(9) -0.2256(7) 0.5655(4)
H17 H -0.2087 -0.2551 0.6011
C26 C -0.1092(10) -0.3097(7) 0.5220(4)
H18 H -0.1384 -0.3947 0.5286
C27 C -0.0247(10) -0.2643(7) 0.4689(4)
H19 H 0.0029 -0.3197 0.4389
C28 C -0.0244(8) -0.0670(6) 0.5041(4)
N1A N -0.0192(7) 0.1402(5) 0.5407(3)
N2A N 0.1055(7) 0.1026(5) 0.4426(3)
C25A C 0.1496(9) 0.2256(7) 0.4345(4)
H17A H 0.2087 0.2551 0.3989
C26A C 0.1092(10) 0.3097(7) 0.4780(4)
H18A H 0.1384 0.3947 0.4714
C27A C 0.0247(10) 0.2643(7) 0.5311(4)
H19A H -0.0029 0.3197 0.5611
C28A C 0.0244(8) 0.0670(6) 0.4959(4)
U1A U -0.59184(3) -0.45743(2) -0.313426(15)
U2A U -0.65801(3) 0.02313(2) -0.309517(15)
Cu1A Cu -0.13124(10) 0.04595(8) -0.38221(5)
P1A P -0.3540(2) -0.13206(17) -0.28605(10)
P2A P -0.1244(2) -0.23227(17) 0.28114(10)
P3A P -0.3492(2) 0.33573(17) -0.28874(11)
P4A P -0.1206(2) 0.30453(18) 0.28546(11)
O1A O -0.6329(6) -0.4970(5) -0.4087(3)
O2A O -0.5499(6) -0.4158(5) -0.2179(3)
O3A O -0.6995(6) -0.0149(5) -0.4068(3)
O4A O -0.6205(6) 0.0645(5) -0.2138(3)
O5A O -0.4206(6) -0.2669(4) -0.3272(3)
O6A O -0.4772(6) -0.0695(5) -0.2967(3)
O7A O -0.2041(5) -0.0565(4) -0.3090(3)
O8A O 0.0490(5) -0.2057(4) 0.3102(2)
O9A O -0.2241(6) -0.3614(5) 0.2960(3)
O10A O -0.1674(6) -0.1268(5) 0.3181(3)
O11A O -0.4550(6) 0.2056(5) -0.3226(3)
O12A O -0.1907(6) 0.3671(4) -0.3201(3)
O13A O -0.4115(6) 0.4402(5) -0.3045(3)
O14A O 0.0577(6) 0.3724(5) 0.3164(3)
O15A O -0.2108(6) 0.3731(5) 0.3218(3)
O16A O -0.1577(6) 0.1694(5) 0.2995(3)
O17A O -0.3449(7) 0.0717(7) -0.4361(3)
C1A C -0.3104(8) -0.1448(6) -0.1905(4)
C2A C -0.3885(10) -0.1072(8) -0.1404(4)
H1A H -0.4612 -0.0691 -0.1554
C3A C -0.3584(10) -0.1263(9) -0.0676(4)
H2A H -0.4129 -0.1015 -0.0347
C4A C -0.2515(8) -0.1803(7) -0.0431(4)
C5A C -0.1738(10) -0.2180(8) -0.0937(4)
H3A H -0.1005 -0.2553 -0.0784
C6A C -0.2033(10) -0.2012(8) -0.1659(4)
H4A H -0.1505 -0.2282 -0.1989
C7A C -0.2172(9) -0.1967(7) 0.0362(4)
C8A C -0.0930(11) -0.1111(9) 0.0832(5)
H5A H -0.0260 -0.0435 0.0650
C9A C -0.0653(10) -0.1228(9) 0.1559(5)
H6A H 0.0161 -0.0603 0.1867
C10A C -0.1554(8) -0.2253(6) 0.1847(4)
C11A C -0.2818(10) -0.3117(8) 0.1383(4)
H7A H -0.3473 -0.3800 0.1566
C12A C -0.3122(11) -0.2978(8) 0.0644(4)
H8A H -0.3974 -0.3572 0.0339
C13A C -0.2995(9) 0.3357(7) -0.1928(4)
C14A C -0.3027(10) 0.4343(7) -0.1437(4)
H9A H -0.3289 0.5014 -0.1608
C15A C -0.2661(10) 0.4306(8) -0.0687(4)
H10A H -0.2683 0.4963 -0.0363
C16A C -0.2270(9) 0.3335(7) -0.0412(4)
C17A C -0.2202(12) 0.2377(8) -0.0919(5)
H11A H -0.1923 0.1711 -0.0750
C18A C -0.2539(11) 0.2409(8) -0.1655(5)
H12A H -0.2457 0.1777 -0.1977
C19A C -0.1979(9) 0.3280(8) 0.0383(4)
C20A C -0.1412(10) 0.4368(8) 0.0885(5)
H13A H -0.1197 0.5155 0.0717
C21A C -0.1161(10) 0.4301(8) 0.1633(4)
H14A H -0.0768 0.5039 0.1960
C22A C -0.1497(9) 0.3131(7) 0.1892(4)
C23A C -0.2017(9) 0.2041(8) 0.1403(4)
H15A H -0.2200 0.1257 0.1572
C24A C -0.2268(10) 0.2119(8) 0.0652(5)
H16A H -0.2636 0.1379 0.0326
U1_2 U -0.40816(3) -0.54257(2) 0.313426(15)
U1_3 U -0.40816(3) 0.45743(2) 0.313426(15)
U1_4 U 0.59184(3) -0.54257(2) 0.313426(15)
U1A_2 U -0.59184(3) 0.54257(2) -0.313426(15)
U1A_3 U 0.40816(3) -0.45743(2) -0.313426(15)
U1A_4 U 0.40816(3) 0.54257(2) -0.313426(15)
U2_2 U -0.34199(3) -0.02313(2) 0.309517(15)
U2A_2 U 0.34199(3) 0.02313(2) -0.309517(15)
Cu1A_2 Cu -0.13124(10) 0.04595(8) 0.61779(5)
O9_2 O -0.7759(6) -0.6386(5) -0.2960(3)
O9A_2 O 0.7759(6) 0.6386(5) 0.2960(3)
O10_2 O -0.8326(6) 0.1268(5) -0.3181(3)
O10A_2 O 0.8326(6) -0.1268(5) 0.3181(3)
O13_2 O 0.4115(6) 0.5598(5) 0.3045(3)
O13A_2 O -0.4115(6) -0.5598(5) -0.3045(3)
O15_2 O -0.7892(6) -0.3731(5) -0.3218(3)
O15A_2 O 0.7892(6) 0.3731(5) 0.3218(3)
O16_2 O -0.8423(6) -0.1694(5) -0.2995(3)
O16A_2 O 0.8423(6) 0.1694(5) 0.2995(3)
N1A_2 N -0.0192(7) 0.1402(5) -0.4593(3)
N2_2 N -0.1055(7) -0.1026(5) -0.4426(3)
loop_
_geom_bond_atom_site_label_1
_geom_bond_atom_site_label_2
_geom_bond_site_symmetry_1
_geom_bond_site_symmetry_2
U1 O1 1_555 1_555
U2 O3 1_555 1_555
Cu1 O7 1_555 1_555
P1 O5 1_555 1_555
P2 O8 1_555 1_555
P3 O11 1_555 1_555
P4 O14 1_555 1_555
O2 U1 1_555 1_555
O4 U2 1_555 1_555
O5 U1 1_555 1_555
O6 U2 1_555 1_555
O7 P1 1_555 1_555
O8 Cu1A 1_555 1_555
O9 P2 1_555 1_555
O10 P2 1_555 1_555
O11 U2 1_555 1_555
O12 P3 1_555 1_555
O13 P3 1_555 1_555
O15 P4 1_555 1_555
O16 P4 1_555 1_555
O17 Cu1 1_555 1_555
N1 Cu1 1_555 1_555
N2 C25 1_555 1_555
C1 P1 1_555 1_555
C2 C1 1_555 1_555
H1 C2 1_555 1_555
C3 C2 1_555 1_555
H2 C3 1_555 1_555
C4 C3 1_555 1_555
C5 C4 1_555 1_555
H3 C5 1_555 1_555
C6 C1 1_555 1_555
H4 C6 1_555 1_555
C7 C4 1_555 1_555
C8 C7 1_555 1_555
H5 C8 1_555 1_555
C9 C8 1_555 1_555
H6 C9 1_555 1_555
C10 P2 1_555 1_555
C11 C10 1_555 1_555
H7 C11 1_555 1_555
C12 C7 1_555 1_555
H8 C12 1_555 1_555
C13 P3 1_555 1_555
C14 C13 1_555 1_555
H9 C14 1_555 1_555
C15 C14 1_555 1_555
H10 C15 1_555 1_555
C16 C15 1_555 1_555
C17 C16 1_555 1_555
H11 C17 1_555 1_555
C18 C13 1_555 1_555
H12 C18 1_555 1_555
C19 C16 1_555 1_555
C20 C19 1_555 1_555
H13 C20 1_555 1_555
C21 C20 1_555 1_555
H14 C21 1_555 1_555
C22 P4 1_555 1_555
C23 C22 1_555 1_555
H15 C23 1_555 1_555
C24 C19 1_555 1_555
H16 C24 1_555 1_555
C25 H17 1_555 1_555
C26 C25 1_555 1_555
H18 C26 1_555 1_555
C27 N1 1_555 1_555
H19 C27 1_555 1_555
C28 N1 1_555 1_555
N1A C27A 1_555 1_555
N2A Cu1 1_555 1_555
C25A N2A 1_555 1_555
H17A C25A 1_555 1_555
C26A C25A 1_555 1_555
H18A C26A 1_555 1_555
C27A C26A 1_555 1_555
H19A C27A 1_555 1_555
C28A C28 1_555 1_555
U1A O1A 1_555 1_555
U2A O3A 1_555 1_555
Cu1A O10 1_555 1_555
P1A O5A 1_555 1_555
P2A O8A 1_555 1_555
P3A O11A 1_555 1_555
P4A O14A 1_555 1_555
O2A U1A 1_555 1_555
O4A U2A 1_555 1_555
O5A U1A 1_555 1_555
O6A U2A 1_555 1_555
O7A Cu1A 1_555 1_555
O8A Cu1 1_555 1_555
O9A P2A 1_555 1_555
O10A Cu1 1_555 1_555
O11A U2A 1_555 1_555
O12A P3A 1_555 1_555
O13A P3A 1_555 1_555
O15A P4A 1_555 1_555
O16A P4A 1_555 1_555
O17A Cu1A 1_555 1_555
C1A P1A 1_555 1_555
C2A C1A 1_555 1_555
H1A C2A 1_555 1_555
C3A C2A 1_555 1_555
H2A C3A 1_555 1_555
C4A C3A 1_555 1_555
C5A C4A 1_555 1_555
H3A C5A 1_555 1_555
C6A C1A 1_555 1_555
H4A C6A 1_555 1_555
C7A C4A 1_555 1_555
C8A C7A 1_555 1_555
H5A C8A 1_555 1_555
C9A C8A 1_555 1_555
H6A C9A 1_555 1_555
C10A P2A 1_555 1_555
C11A C10A 1_555 1_555
H7A C11A 1_555 1_555
C12A C7A 1_555 1_555
H8A C12A 1_555 1_555
C13A P3A 1_555 1_555
C14A C13A 1_555 1_555
H9A C14A 1_555 1_555
C15A C14A 1_555 1_555
H10A C15A 1_555 1_555
C16A C15A 1_555 1_555
C17A C16A 1_555 1_555
H11A C17A 1_555 1_555
C18A C13A 1_555 1_555
H12A C18A 1_555 1_555
C19A C16A 1_555 1_555
C20A C19A 1_555 1_555
H13A C20A 1_555 1_555
C21A C20A 1_555 1_555
H14A C21A 1_555 1_555
C22A P4A 1_555 1_555
C23A C22A 1_555 1_555
H15A C23A 1_555 1_555
C24A C19A 1_555 1_555
H16A C24A 1_555 1_555
U1_2 O9A 1_555 1_555
U1_3 O15A 1_555 1_555
U1_4 O13 1_555 1_555
U1A_2 O13A 1_555 1_555
U1A_3 O15 1_555 1_555
U1A_4 O9 1_555 1_555
U2_2 O10A 1_555 1_555
U2A_2 O10 1_555 1_555
Cu1A_2 N2 1_555 1_555
O9_2 U1A 1_555 1_555
O9A_2 U1 1_555 1_555
O10_2 U2A 1_555 1_555
O10A_2 U2 1_555 1_555
O13_2 U1 1_555 1_555
O13A_2 U1A 1_555 1_555
O15_2 U1A 1_555 1_555
O15A_2 U1 1_555 1_555
O16_2 U2A 1_555 1_555
O16A_2 U2 1_555 1_555
N1A_2 Cu1A 1_555 1_555
N2_2 Cu1A 1_555 1_555
P1 O6 1_555 1_555
O16 U2A_2 1_555 1_555
N2 C28 1_555 1_555
C5 C6 1_555 1_555
C9 C10 1_555 1_555
C11 C12 1_555 1_555
C17 C18 1_555 1_555
C21 C22 1_555 1_555
C23 C24 1_555 1_555
C26 C27 1_555 1_555
N1A C28A 1_555 1_555
N1A Cu1A_2 1_555 1_555
N2A C28A 1_555 1_555
P1A O6A 1_555 1_555
P1A O7A 1_555 1_555
P2A O10A 1_555 1_555
O16A U2_2 1_555 1_555
C5A C6A 1_555 1_555
C9A C10A 1_555 1_555
C11A C12A 1_555 1_555
C17A C18A 1_555 1_555
C21A C22A 1_555 1_555
C23A C24A 1_555 1_555

#END
