
#######################################################################
#
#                 Cambridge Crystallographic Data Centre
#                                CCDC 
#
#######################################################################
#
# If this CIF has been generated from an entry in the Cambridge 
# Structural Database, then it will include bibliographic, chemical, 
# crystal, experimental, refinement or atomic coordinate data resulting 
# from the CCDC's data processing and validation procedures.
#
#######################################################################

data_PODVUB
_symmetry_cell_setting           monoclinic
_symmetry_space_group_name_H-M   'P 21/c'
_symmetry_Int_Tables_number      14
_space_group_name_Hall           '-P 2ybc'
loop_
_symmetry_equiv_pos_site_id
_symmetry_equiv_pos_as_xyz
1 x,y,z
2 -x,1/2+y,1/2-z
3 -x,-y,-z
4 x,1/2-y,1/2+z
_cell_length_a                   18.608(3)
_cell_length_b                   9.9149(14)
_cell_length_c                   19.979(3)
_cell_angle_alpha                90
_cell_angle_beta                 93.926(2)
_cell_angle_gamma                90
_cell_volume                     3677.4
loop_
_atom_site_label
_atom_site_type_symbol
_atom_site_fract_x
_atom_site_fract_y
_atom_site_fract_z
U1 U 0.814179(18) 0.53196(3) 0.791925(16)
U2 U 0.809663(19) 0.13127(4) 0.743357(17)
Cu1 Cu 0.87333(6) 0.37185(12) 0.51729(5)
P1 P 0.76337(13) 0.3330(2) 0.62721(11)
P2 P 0.18916(13) 0.3725(2) 0.62631(12)
P3 P 0.77198(13) -0.2028(3) 0.65845(11)
P4 P 0.20584(13) -0.0961(2) 0.54103(11)
F1 F 0.8222(3) 0.3017(5) 0.8192(2)
O1 O 0.9069(3) 0.5265(7) 0.7788(3)
O2 O 0.7216(3) 0.5343(6) 0.8030(3)
O3 O 0.9033(4) 0.1358(7) 0.7319(3)
O4 O 0.7165(3) 0.1254(6) 0.7546(3)
O5 O 0.7913(3) 0.3739(6) 0.6986(3)
O6 O 0.7816(3) 0.1805(6) 0.6259(3)
O7 O 0.7937(3) 0.4106(6) 0.5713(3)
O8 O 0.1531(3) 0.3793(7) 0.5536(3)
O9 O 0.1680(3) 0.4976(6) 0.6634(3)
O10 O 0.1668(3) 0.2477(6) 0.6626(3)
O11 O 0.8048(3) -0.0759(7) 0.6901(3)
O12 O 0.8033(3) -0.2258(7) 0.5873(3)
O13 O 0.7888(3) -0.3306(6) 0.6978(3)
O14 O 0.1751(3) -0.2355(7) 0.5345(3)
O15 O 0.1999(3) -0.0216(6) 0.4707(3)
O16 O 0.1686(3) -0.0020(6) 0.5885(3)
O17 O 0.9535(3) 0.2333(7) 0.5946(3)
N1 N 0.9537(4) 0.3726(8) 0.4528(4)
N2 N 1.0643(4) 0.4840(8) 0.4379(4)
C1 C 0.6665(5) 0.3481(9) 0.6232(4)
C2 C 0.6265(5) 0.3353(10) 0.5609(5)
H1 H 0.6498 0.3257 0.5215
C3 C 0.5520(5) 0.3373(10) 0.5591(5)
H2 H 0.5257 0.3285 0.5181
C4 C 0.5153(5) 0.3521(9) 0.6175(5)
C5 C 0.5555(5) 0.3667(9) 0.6791(4)
H3 H 0.5322 0.3793 0.7184
C6 C 0.6309(5) 0.3621(9) 0.6812(5)
H4 H 0.6573 0.3687 0.7223
C7 C 0.4341(5) 0.3565(9) 0.6174(4)
C8 C 0.3919(5) 0.3913(10) 0.5595(5)
H5 H 0.4138 0.4104 0.5201
C9 C 0.3178(5) 0.3976(10) 0.5605(5)
H6 H 0.2902 0.4213 0.5217
C10 C 0.2841(5) 0.3690(10) 0.6184(5)
C11 C 0.3268(5) 0.3315(10) 0.6764(5)
H7 H 0.3052 0.3103 0.7156
C12 C 0.4000(5) 0.3262(10) 0.6749(5)
H8 H 0.4276 0.3017 0.7135
C13 C 0.6753(5) -0.1820(9) 0.6450(4)
C14 C 0.6456(5) -0.0534(10) 0.6345(5)
H9 H 0.6754 0.0219 0.6349
C15 C 0.5723(6) -0.0386(10) 0.6236(5)
H10 H 0.5527 0.0475 0.6196
C16 C 0.5269(5) -0.1508(9) 0.6183(4)
C17 C 0.5578(6) -0.2766(10) 0.6265(5)
H11 H 0.5285 -0.3525 0.6229
C18 C 0.6308(5) -0.2933(11) 0.6400(5)
H12 H 0.6500 -0.3794 0.6457
C19 C 0.4474(5) -0.1341(10) 0.6019(4)
C20 C 0.4208(5) -0.0223(9) 0.5635(5)
H13 H 0.4521 0.0438 0.5499
C21 C 0.3490(5) -0.0130(10) 0.5468(5)
H14 H 0.3322 0.0618 0.5224
C22 C 0.2989(5) -0.1103(9) 0.5645(5)
C23 C 0.3260(5) -0.2186(9) 0.6032(4)
H15 H 0.2941 -0.2839 0.6167
C24 C 0.3980(5) -0.2318(10) 0.6220(5)
H16 H 0.4142 -0.3049 0.6480
C25 C 0.9610(5) 0.3024(10) 0.3959(4)
H17 H 0.9259 0.2399 0.3817
C26 C 1.0209(5) 0.3225(10) 0.3578(5)
H18 H 1.0256 0.2770 0.3177
C27 C 1.0719(5) 0.4123(9) 0.3827(5)
H19 H 1.1135 0.4234 0.3600
C28 C 1.0054(5) 0.4615(9) 0.4698(4)
N1B N 1.0463(4) 0.6274(8) 0.5472(4)
N2B N 0.9357(4) 0.5160(8) 0.5621(4)
C25B C 1.0390(5) 0.6976(10) 0.6041(4)
H17B H 1.0741 0.7601 0.6183
C26B C 0.9791(5) 0.6775(10) 0.6422(5)
H18B H 0.9744 0.7230 0.6823
C27B C 0.9281(5) 0.5877(9) 0.6173(5)
H19B H 0.8865 0.5766 0.6400
C28B C 0.9946(5) 0.5385(9) 0.5302(4)
U1B U 0.185821(18) -0.53196(3) 0.208075(16)
U2B U 0.190337(19) -0.13127(4) 0.256643(17)
Cu1B Cu 0.12667(6) -0.37185(12) 0.48271(5)
P1B P 0.23663(13) -0.3330(2) 0.37279(11)
P2B P 0.81084(13) -0.3725(2) 0.37369(12)
P3B P 0.22802(13) 0.2028(3) 0.34155(11)
P4B P 0.79416(13) 0.0961(2) 0.45897(11)
F1B F 0.1778(3) -0.3017(5) 0.1808(2)
O1B O 0.0931(3) -0.5265(7) 0.2212(3)
O2B O 0.2784(3) -0.5343(6) 0.1970(3)
O3B O 0.0967(4) -0.1358(7) 0.2681(3)
O4B O 0.2835(3) -0.1254(6) 0.2454(3)
O5B O 0.2087(3) -0.3739(6) 0.3014(3)
O6B O 0.2184(3) -0.1805(6) 0.3741(3)
O7B O 0.2063(3) -0.4106(6) 0.4287(3)
O8B O 0.8469(3) -0.3793(7) 0.4464(3)
O9B O 0.8320(3) -0.4976(6) 0.3366(3)
O10B O 0.8332(3) -0.2477(6) 0.3374(3)
O11B O 0.1952(3) 0.0759(7) 0.3099(3)
O12B O 0.1967(3) 0.2258(7) 0.4127(3)
O13B O 0.2112(3) 0.3306(6) 0.3022(3)
O14B O 0.8249(3) 0.2355(7) 0.4655(3)
O15B O 0.8001(3) 0.0216(6) 0.5293(3)
O16B O 0.8314(3) 0.0020(6) 0.4115(3)
O17B O 0.0465(3) -0.2333(7) 0.4054(3)
C1B C 0.3335(5) -0.3481(9) 0.3768(4)
C2B C 0.3735(5) -0.3353(10) 0.4391(5)
H1B H 0.3502 -0.3257 0.4785
C3B C 0.4480(5) -0.3373(10) 0.4409(5)
H2B H 0.4743 -0.3285 0.4819
C4B C 0.4847(5) -0.3521(9) 0.3825(5)
C5B C 0.4445(5) -0.3667(9) 0.3209(4)
H3B H 0.4678 -0.3793 0.2816
C6B C 0.3691(5) -0.3621(9) 0.3188(5)
H4B H 0.3427 -0.3687 0.2777
C7B C 0.5659(5) -0.3565(9) 0.3826(4)
C8B C 0.6081(5) -0.3913(10) 0.4405(5)
H5B H 0.5862 -0.4104 0.4799
C9B C 0.6822(5) -0.3976(10) 0.4395(5)
H6B H 0.7098 -0.4213 0.4783
C10B C 0.7159(5) -0.3690(10) 0.3816(5)
C11B C 0.6732(5) -0.3315(10) 0.3236(5)
H7B H 0.6948 -0.3103 0.2844
C12B C 0.6000(5) -0.3262(10) 0.3251(5)
H8B H 0.5724 -0.3017 0.2865
C13B C 0.3247(5) 0.1820(9) 0.3550(4)
C14B C 0.3544(5) 0.0534(10) 0.3655(5)
H9B H 0.3246 -0.0219 0.3651
C15B C 0.4277(6) 0.0386(10) 0.3764(5)
H10B H 0.4473 -0.0475 0.3804
C16B C 0.4731(5) 0.1508(9) 0.3817(4)
C17B C 0.4422(6) 0.2766(10) 0.3735(5)
H11B H 0.4715 0.3525 0.3771
C18B C 0.3692(5) 0.2933(11) 0.3600(5)
H12B H 0.3500 0.3794 0.3543
C19B C 0.5526(5) 0.1341(10) 0.3981(4)
C20B C 0.5792(5) 0.0223(9) 0.4365(5)
H13B H 0.5479 -0.0438 0.4501
C21B C 0.6510(5) 0.0130(10) 0.4532(5)
H14B H 0.6678 -0.0618 0.4776
C22B C 0.7011(5) 0.1103(9) 0.4355(5)
C23B C 0.6740(5) 0.2186(9) 0.3968(4)
H15B H 0.7059 0.2839 0.3833
C24B C 0.6020(5) 0.2318(10) 0.3780(5)
H16B H 0.5858 0.3049 0.3520
U1_2 U 0.814179(18) -0.46804(3) 0.791925(16)
U1A U 0.185821(18) 0.03196(3) 0.708075(16)
U1B_2 U 0.185821(18) 0.46804(3) 0.208075(16)
U1C U 0.814179(18) -0.03196(3) 0.291925(16)
U2A U 0.190337(19) 0.63127(4) 0.756643(17)
U2C U 0.809663(19) -0.63127(4) 0.243357(17)
Cu1B_2 Cu 1.12667(6) 0.62815(12) 0.48271(5)
O9A O 0.8320(3) -0.0024(6) 0.8366(3)
O9C O 0.1680(3) 0.0024(6) 0.1634(3)
O10A O 0.8332(3) 0.7477(6) 0.8374(3)
O10C O 0.1668(3) -0.7477(6) 0.1626(3)
O13_2 O 0.7888(3) 0.6694(6) 0.6978(3)
O13B_2 O 0.2112(3) -0.6694(6) 0.3022(3)
O16A O 0.8314(3) 0.4980(6) 0.9115(3)
O16C O 0.1686(3) -0.4980(6) 0.0885(3)
N1B_2 N 0.0463(4) -0.3726(8) 0.5472(4)
N2_2 N 0.0643(4) -0.5160(8) 0.4379(4)
O18 O 1.0198(4) 0.3615(8) 0.7082(4)
O19 O 0.9427(9) -0.0298(19) 0.6090(9)
O20 O 0.9269(4) 0.6737(7) 0.9765(3)
loop_
_geom_bond_atom_site_label_1
_geom_bond_atom_site_label_2
_geom_bond_site_symmetry_1
_geom_bond_site_symmetry_2
U1 F1 1_555 1_555
U2 F1 1_555 1_555
Cu1 O7 1_555 1_555
P1 O5 1_555 1_555
P2 O8 1_555 1_555
P3 O11 1_555 1_555
P4 O14 1_555 1_555
O1 U1 1_555 1_555
O2 U1 1_555 1_555
O3 U2 1_555 1_555
O4 U2 1_555 1_555
O5 U1 1_555 1_555
O6 U2 1_555 1_555
O7 P1 1_555 1_555
O9 P2 1_555 1_555
O10 P2 1_555 1_555
O11 U2 1_555 1_555
O12 P3 1_555 1_555
O13 P3 1_555 1_555
O14 Cu1B 1_555 1_555
O15 P4 1_555 1_555
O16 P4 1_555 1_555
O17 Cu1 1_555 1_555
N1 Cu1 1_555 1_555
N2 C27 1_555 1_555
C1 P1 1_555 1_555
C2 C1 1_555 1_555
H1 C2 1_555 1_555
C3 C2 1_555 1_555
H2 C3 1_555 1_555
C4 C3 1_555 1_555
C5 C4 1_555 1_555
H3 C5 1_555 1_555
C6 C1 1_555 1_555
H4 C6 1_555 1_555
C7 C4 1_555 1_555
C8 C7 1_555 1_555
H5 C8 1_555 1_555
C9 C8 1_555 1_555
H6 C9 1_555 1_555
C10 P2 1_555 1_555
C11 C10 1_555 1_555
H7 C11 1_555 1_555
C12 C7 1_555 1_555
H8 C12 1_555 1_555
C13 P3 1_555 1_555
C14 C13 1_555 1_555
H9 C14 1_555 1_555
C15 C14 1_555 1_555
H10 C15 1_555 1_555
C16 C15 1_555 1_555
C17 C16 1_555 1_555
H11 C17 1_555 1_555
C18 C13 1_555 1_555
H12 C18 1_555 1_555
C19 C16 1_555 1_555
C20 C19 1_555 1_555
H13 C20 1_555 1_555
C21 C20 1_555 1_555
H14 C21 1_555 1_555
C22 P4 1_555 1_555
C23 C22 1_555 1_555
H15 C23 1_555 1_555
C24 C19 1_555 1_555
H16 C24 1_555 1_555
C25 N1 1_555 1_555
H17 C25 1_555 1_555
C26 C25 1_555 1_555
H18 C26 1_555 1_555
C27 C26 1_555 1_555
H19 C27 1_555 1_555
C28 N1 1_555 1_555
N1B C25B 1_555 1_555
N2B Cu1 1_555 1_555
C25B H17B 1_555 1_555
C26B C25B 1_555 1_555
H18B C26B 1_555 1_555
C27B N2B 1_555 1_555
H19B C27B 1_555 1_555
C28B C28 1_555 1_555
U1B F1B 1_555 1_555
U2B F1B 1_555 1_555
Cu1B O7B 1_555 1_555
P1B O5B 1_555 1_555
P2B O8B 1_555 1_555
P3B O11B 1_555 1_555
P4B O14B 1_555 1_555
O1B U1B 1_555 1_555
O2B U1B 1_555 1_555
O3B U2B 1_555 1_555
O4B U2B 1_555 1_555
O5B U1B 1_555 1_555
O6B U2B 1_555 1_555
O7B P1B 1_555 1_555
O9B P2B 1_555 1_555
O10B P2B 1_555 1_555
O11B U2B 1_555 1_555
O12B P3B 1_555 1_555
O13B P3B 1_555 1_555
O14B Cu1 1_555 1_555
O15B P4B 1_555 1_555
O16B P4B 1_555 1_555
O17B Cu1B 1_555 1_555
C1B P1B 1_555 1_555
C2B C1B 1_555 1_555
H1B C2B 1_555 1_555
C3B C2B 1_555 1_555
H2B C3B 1_555 1_555
C4B C3B 1_555 1_555
C5B C4B 1_555 1_555
H3B C5B 1_555 1_555
C6B C1B 1_555 1_555
H4B C6B 1_555 1_555
C7B C4B 1_555 1_555
C8B C7B 1_555 1_555
H5B C8B 1_555 1_555
C9B C8B 1_555 1_555
H6B C9B 1_555 1_555
C10B P2B 1_555 1_555
C11B C10B 1_555 1_555
H7B C11B 1_555 1_555
C12B C7B 1_555 1_555
H8B C12B 1_555 1_555
C13B P3B 1_555 1_555
C14B C13B 1_555 1_555
H9B C14B 1_555 1_555
C15B C14B 1_555 1_555
H10B C15B 1_555 1_555
C16B C15B 1_555 1_555
C17B C16B 1_555 1_555
H11B C17B 1_555 1_555
C18B C13B 1_555 1_555
H12B C18B 1_555 1_555
C19B C16B 1_555 1_555
C20B C19B 1_555 1_555
H13B C20B 1_555 1_555
C21B C20B 1_555 1_555
H14B C21B 1_555 1_555
C22B P4B 1_555 1_555
C23B C22B 1_555 1_555
H15B C23B 1_555 1_555
C24B C19B 1_555 1_555
H16B C24B 1_555 1_555
U1_2 O13 1_555 1_555
U1A O10 1_555 1_555
U1B_2 O13B 1_555 1_555
U1C O10B 1_555 1_555
U2A O9 1_555 1_555
U2C O9B 1_555 1_555
Cu1B_2 N2 1_555 1_555
O9A U2 1_555 1_555
O9C U2B 1_555 1_555
O10A U1 1_555 1_555
O10C U1B 1_555 1_555
O13_2 U1 1_555 1_555
O13B_2 U1B 1_555 1_555
O16A U1 1_555 1_555
O16C U1B 1_555 1_555
N1B_2 Cu1B 1_555 1_555
N2_2 Cu1B 1_555 1_555
U2 O5 1_555 1_555
P1 O6 1_555 1_555
O16 U1A 1_555 1_555
N2 C28 1_555 1_555
C5 C6 1_555 1_555
C9 C10 1_555 1_555
C11 C12 1_555 1_555
C17 C18 1_555 1_555
C21 C22 1_555 1_555
C23 C24 1_555 1_555
N1B C28B 1_555 1_555
N1B Cu1B_2 1_555 1_555
N2B C28B 1_555 1_555
C26B C27B 1_555 1_555
U2B O5B 1_555 1_555
P1B O6B 1_555 1_555
O16B U1C 1_555 1_555
C5B C6B 1_555 1_555
C9B C10B 1_555 1_555
C11B C12B 1_555 1_555
C17B C18B 1_555 1_555
C21B C22B 1_555 1_555
C23B C24B 1_555 1_555

#END
