
#######################################################################
#
#                 Cambridge Crystallographic Data Centre
#                                CCDC 
#
#######################################################################
#
# If this CIF has been generated from an entry in the Cambridge 
# Structural Database, then it will include bibliographic, chemical, 
# crystal, experimental, refinement or atomic coordinate data resulting 
# from the CCDC's data processing and validation procedures.
#
#######################################################################

data_PODWEL
_symmetry_cell_setting           triclinic
_symmetry_space_group_name_H-M   'P -1'
_symmetry_Int_Tables_number      2
_space_group_name_Hall           '-P 1'
loop_
_symmetry_equiv_pos_site_id
_symmetry_equiv_pos_as_xyz
1 x,y,z
2 -x,-y,-z
_cell_length_a                   9.5270(4)
_cell_length_b                   10.9508(4)
_cell_length_c                   15.1309(6)
_cell_angle_alpha                104.402(2)
_cell_angle_beta                 91.480(2)
_cell_angle_gamma                111.159(2)
_cell_volume                     1414.17
loop_
_atom_site_label
_atom_site_type_symbol
_atom_site_fract_x
_atom_site_fract_y
_atom_site_fract_z
C1 C 0.5075(3) 0.5494(2) 0.34089(15)
C2 C 0.5770(3) 0.5734(2) 0.25475(15)
C3 C 0.5067(3) 0.6111(3) 0.19077(17)
H1 H 0.4147 0.6209 0.1997
C4 C 0.5740(4) 0.6338(3) 0.11420(19)
H2 H 0.5284 0.6602 0.0712
C5 C 0.7756(4) 0.5802(3) 0.1610(2)
H3 H 0.8660 0.5686 0.1494
C6 C 0.7134(3) 0.5586(3) 0.23913(19)
H4 H 0.7626 0.5341 0.2815
C7 C 0.5896(3) 0.7590(2) 0.58623(15)
C8 C 0.6542(3) 0.9101(2) 0.63494(16)
C9 C 0.5830(3) 0.9941(3) 0.6193(2)
H5 H 0.4924 0.9581 0.5800
C10 C 0.6474(4) 1.1312(3) 0.6624(2)
H6 H 0.6011 1.1889 0.6520
C11 C 0.8452(4) 1.1036(3) 0.7370(2)
H7 H 0.9340 1.1423 0.7781
C12 C 0.7861(3) 0.9652(3) 0.6950(2)
H8 H 0.8347 0.9101 0.7071
C13 C 0.0791(2) 0.6363(2) 0.64810(15)
C14 C 0.1596(3) 0.7484(2) 0.73496(15)
C15 C 0.3153(3) 0.7907(3) 0.75849(18)
H9 H 0.3706 0.7471 0.7228
C16 C 0.3860(4) 0.8976(3) 0.8351(2)
H10 H 0.4903 0.9284 0.8511
C17 C 0.1552(4) 0.9163(3) 0.86757(19)
H11 H 0.1023 0.9587 0.9066
C18 C 0.0790(3) 0.8120(3) 0.79059(17)
H12 H -0.0252 0.7845 0.7761
N1 N 0.7053(3) 0.6179(3) 0.10183(17)
H13 H 0.7463 0.6327 0.0536
N2 N 0.7759(3) 1.1812(2) 0.71899(18)
H14 H 0.8156 1.2674 0.7449
N3 N 0.3051(3) 0.9566(2) 0.88613(16)
H15 H 0.3514 1.0242 0.9335
O9 O 0.37551(18) 0.54575(17) 0.34757(11)
O10 O 0.58826(19) 0.53420(17) 0.40081(11)
O11 O 0.45551(18) 0.70996(16) 0.54760(12)
O12 O 0.67592(18) 0.69729(16) 0.58981(12)
O13 O 0.14890(19) 0.56556(17) 0.60850(11)
O14 O -0.05161(18) 0.62332(17) 0.62233(12)
Tb1 Tb 0.270670(11) 0.491645(10) 0.483309(7)
O16 O 0.18165(19) 0.66276(17) 0.44776(12)
H18 H 0.0905 0.6479 0.4333
H19 H 0.2191 0.7391 0.4861
O17 O 0.0974(2) 0.28637(18) 0.52869(13)
H20 H 0.1357 0.2549 0.5636
H21 H 0.0490 0.2213 0.4832
O10A O 0.41174(19) 0.46580(17) 0.59919(11)
O12A O 0.32408(18) 0.30271(16) 0.41019(12)
O14A O 0.05161(18) 0.37668(17) 0.37767(12)
Tb1A Tb 0.729330(11) 0.508355(10) 0.516691(7)
Tb1A_2 Tb -0.270670(11) 0.508355(10) 0.516691(7)
Cl1 Cl 0.19389(9) 0.70180(8) 0.03011(5)
O1 O 0.3135(4) 0.8310(3) 0.0649(2)
O2 O 0.1590(4) 0.6721(3) -0.06629(17)
O3 O 0.0636(3) 0.7009(3) 0.0738(2)
O4 O 0.2370(4) 0.5967(3) 0.0487(2)
Cl2 Cl 0.29246(9) 0.22081(7) 0.09772(5)
O5 O 0.4033(3) 0.2007(3) 0.03987(17)
O6 O 0.2468(4) 0.3225(3) 0.0772(2)
O7 O 0.3532(4) 0.2641(3) 0.19129(16)
O8 O 0.1675(3) 0.0947(3) 0.0809(2)
O15 O 0.1147(2) 0.53818(19) 0.22458(14)
H16 H 0.1025 0.4998 0.1681
H17 H 0.1711 0.5100 0.2502
Cl3 Cl 0.21484(9) 0.04724(7) 0.62478(5)
O18 O 0.3356(12) 0.1332(11) 0.5842(9)
O19 O 0.3010(12) 0.0741(6) 0.7152(4)
O20 O 0.1764(12) -0.0885(8) 0.5784(8)
O21 O 0.0975(11) 0.0931(12) 0.6326(9)
Cl4? Cl 0.21484(9) 0.04724(7) 0.62478(5)
O22? O 0.2951(16) 0.1488(12) 0.5860(10)
O23? O 0.2119(17) 0.0782(8) 0.7181(5)
O24? O 0.2277(15) -0.0826(11) 0.5862(10)
O25? O 0.0520(9) 0.0154(16) 0.5847(10)
loop_
_geom_bond_atom_site_label_1
_geom_bond_atom_site_label_2
_geom_bond_site_symmetry_1
_geom_bond_site_symmetry_2
C1 C2 1_555 1_555
C2 C3 1_555 1_555
C3 H1 1_555 1_555
C4 C3 1_555 1_555
H2 C4 1_555 1_555
C5 H3 1_555 1_555
C6 C2 1_555 1_555
H4 C6 1_555 1_555
C7 C8 1_555 1_555
C8 C9 1_555 1_555
C9 H5 1_555 1_555
C10 C9 1_555 1_555
H6 C10 1_555 1_555
C11 H7 1_555 1_555
C12 C8 1_555 1_555
H8 C12 1_555 1_555
C13 C14 1_555 1_555
C14 C15 1_555 1_555
C15 H9 1_555 1_555
C16 C15 1_555 1_555
H10 C16 1_555 1_555
C17 H11 1_555 1_555
C18 C14 1_555 1_555
H12 C18 1_555 1_555
Cl1 O1 1_555 1_555
Cl2 O5 1_555 1_555
N1 C4 1_555 1_555
H13 N1 1_555 1_555
N2 C10 1_555 1_555
H14 N2 1_555 1_555
N3 C16 1_555 1_555
H15 N3 1_555 1_555
O2 Cl1 1_555 1_555
O3 Cl1 1_555 1_555
O4 Cl1 1_555 1_555
O6 Cl2 1_555 1_555
O7 Cl2 1_555 1_555
O8 Cl2 1_555 1_555
O9 C1 1_555 1_555
O10 C1 1_555 1_555
O11 C7 1_555 1_555
O12 C7 1_555 1_555
O13 C13 1_555 1_555
O14 C13 1_555 1_555
Tb1 O9 1_555 1_555
O15 H16 1_555 1_555
H17 O15 1_555 1_555
O16 Tb1 1_555 1_555
H18 O16 1_555 1_555
H19 O16 1_555 1_555
O17 Tb1 1_555 1_555
H20 O17 1_555 1_555
H21 O17 1_555 1_555
Cl3 O18 1_555 1_555
O19 Cl3 1_555 1_555
O20 Cl3 1_555 1_555
O21 Cl3 1_555 1_555
O10A Tb1 1_555 1_555
O12A Tb1 1_555 1_555
O14A Tb1 1_555 1_555
Tb1A O10 1_555 1_555
Tb1A_2 O14 1_555 1_555
C5 C6 1_555 1_555
C5 N1 1_555 1_555
C11 C12 1_555 1_555
C11 N2 1_555 1_555
C17 C18 1_555 1_555
C17 N3 1_555 1_555
O11 Tb1 1_555 1_555
O12 Tb1A 1_555 1_555
O13 Tb1 1_555 1_555

#END
