
#######################################################################
#
#                 Cambridge Crystallographic Data Centre
#                                CCDC 
#
#######################################################################
#
# If this CIF has been generated from an entry in the Cambridge 
# Structural Database, then it will include bibliographic, chemical, 
# crystal, experimental, refinement or atomic coordinate data resulting 
# from the CCDC's data processing and validation procedures.
#
#######################################################################

data_PODWAI
_symmetry_cell_setting           monoclinic
_symmetry_space_group_name_H-M   'P 21/c'
_symmetry_Int_Tables_number      14
_space_group_name_Hall           '-P 2ybc'
loop_
_symmetry_equiv_pos_site_id
_symmetry_equiv_pos_as_xyz
1 x,y,z
2 -x,1/2+y,1/2-z
3 -x,-y,-z
4 x,1/2-y,1/2+z
_cell_length_a                   10.3188(7)
_cell_length_b                   12.2799(10)
_cell_length_c                   18.4566(15)
_cell_angle_alpha                90
_cell_angle_beta                 97.141(3)
_cell_angle_gamma                90
_cell_volume                     2320.57
loop_
_atom_site_label
_atom_site_type_symbol
_atom_site_fract_x
_atom_site_fract_y
_atom_site_fract_z
Cu1 Cu 0.40767(5) -0.06973(4) 0.80717(3)
N1 N 0.5203(3) 0.1586(3) 0.69154(19)
N2 N 0.6513(3) 0.0264(3) 0.7639(2)
N3 N 0.5874(3) -0.0083(3) 0.8207(2)
N4 N 0.2952(3) 0.1029(3) 0.7040(2)
N5 N 0.2969(3) -0.0075(3) 0.7201(2)
N6 N 0.6156(3) 0.2421(2) 0.59378(18)
N7 N 0.6739(3) 0.3333(3) 0.62706(19)
C1 C 0.5804(4) 0.0504(3) 0.6937(2)
H1 H 0.5115 -0.0051 0.6819
H2 H 0.6408 0.0463 0.6561
C2 C 0.4082(4) 0.1693(3) 0.7322(2)
H3 H 0.3813 0.2467 0.7316
H4 H 0.4357 0.1487 0.7837
C3 C 0.4964(4) 0.2015(3) 0.6176(2)
H5 H 0.4596 0.1433 0.5840
H6 H 0.4315 0.2612 0.6159
C4 C 0.7759(4) 0.0566(3) 0.7881(3)
C5 C 0.7911(4) 0.0424(3) 0.8626(3)
H7 H 0.8671 0.0574 0.8956
C6 C 0.6727(4) 0.0016(3) 0.8801(3)
C7 C 0.8679(4) 0.0925(4) 0.7369(3)
H8 H 0.8829 0.0324 0.7040
H9 H 0.9510 0.1141 0.7648
H10 H 0.8304 0.1546 0.7083
C8 C 0.6384(5) -0.0272(4) 0.9531(2)
H11 H 0.6396 0.0385 0.9833
H12 H 0.7020 -0.0798 0.9763
H13 H 0.5509 -0.0595 0.9481
C9 C 0.1914(4) 0.1279(4) 0.6539(3)
C10 C 0.1274(4) 0.0320(4) 0.6360(3)
H14 H 0.0518 0.0224 0.6017
C11 C 0.1947(5) -0.0478(4) 0.6777(3)
C12 C 0.1580(4) 0.2415(4) 0.6300(3)
H15 H 0.1820 0.2916 0.6708
H16 H 0.0639 0.2467 0.6143
H17 H 0.2060 0.2609 0.5893
C13 C 0.1673(5) -0.1675(4) 0.6818(3)
H18 H 0.2449 -0.2048 0.7059
H19 H 0.1453 -0.1966 0.6324
H20 H 0.0939 -0.1792 0.7099
C14 C 0.6874(4) 0.2009(3) 0.5434(2)
C15 C 0.7950(4) 0.2663(3) 0.5456(2)
H21 H 0.8648 0.2583 0.5169
C16 C 0.7835(4) 0.3462(3) 0.5971(2)
C17 C 0.6460(4) 0.1041(4) 0.4972(3)
H22 H 0.6268 0.0433 0.5286
H23 H 0.7165 0.0832 0.4689
H24 H 0.5677 0.1222 0.4637
C18 C 0.8747(4) 0.4376(3) 0.6211(3)
H25 H 0.8257 0.4971 0.6404
H26 H 0.9159 0.4640 0.5794
H27 H 0.9422 0.4117 0.6593
Cu1A Cu 0.59233(5) 0.43027(4) 0.69283(3)
N7A N 0.3261(3) -0.1667(3) 0.87294(19)
P1 P 0.76705(13) 0.78052(10) 0.60349(7)
F1 F 0.6504(3) 0.8391(2) 0.63758(18)
F2 F 0.8814(3) 0.7216(3) 0.56940(18)
F3 F 0.8377(4) 0.8934(3) 0.5987(2)
F4 F 0.8382(3) 0.7625(3) 0.68301(17)
F5 F 0.6940(3) 0.6674(2) 0.60876(17)
F6 F 0.6921(3) 0.7974(3) 0.52378(16)
loop_
_geom_bond_atom_site_label_1
_geom_bond_atom_site_label_2
_geom_bond_site_symmetry_1
_geom_bond_site_symmetry_2
Cu1 N3 1_555 1_555
N1 C1 1_555 1_555
N2 N3 1_555 1_555
N3 C6 1_555 1_555
N4 N5 1_555 1_555
N5 Cu1 1_555 1_555
N6 N7 1_555 1_555
N7 C16 1_555 1_555
C1 N2 1_555 1_555
H1 C1 1_555 1_555
H2 C1 1_555 1_555
C2 N1 1_555 1_555
H3 C2 1_555 1_555
H4 C2 1_555 1_555
C3 N1 1_555 1_555
H5 C3 1_555 1_555
H6 C3 1_555 1_555
C4 N2 1_555 1_555
C5 C4 1_555 1_555
H7 C5 1_555 1_555
C6 C5 1_555 1_555
C7 C4 1_555 1_555
H8 C7 1_555 1_555
H9 C7 1_555 1_555
H10 C7 1_555 1_555
C8 C6 1_555 1_555
H11 C8 1_555 1_555
H12 C8 1_555 1_555
H13 C8 1_555 1_555
C9 N4 1_555 1_555
C10 C9 1_555 1_555
H14 C10 1_555 1_555
C11 N5 1_555 1_555
C12 C9 1_555 1_555
H15 C12 1_555 1_555
H16 C12 1_555 1_555
H17 C12 1_555 1_555
C13 C11 1_555 1_555
H18 C13 1_555 1_555
H19 C13 1_555 1_555
H20 C13 1_555 1_555
C14 N6 1_555 1_555
C15 C14 1_555 1_555
H21 C15 1_555 1_555
C16 C15 1_555 1_555
C17 C14 1_555 1_555
H22 C17 1_555 1_555
H23 C17 1_555 1_555
H24 C17 1_555 1_555
C18 C16 1_555 1_555
H25 C18 1_555 1_555
H26 C18 1_555 1_555
H27 C18 1_555 1_555
P1 F1 1_555 1_555
F2 P1 1_555 1_555
F3 P1 1_555 1_555
F4 P1 1_555 1_555
F5 P1 1_555 1_555
F6 P1 1_555 1_555
Cu1A N7 1_555 1_555
N7A Cu1 1_555 1_555
N4 C2 1_555 1_555
N6 C3 1_555 1_555
C10 C11 1_555 1_555

#END
