
#######################################################################
#
#                 Cambridge Crystallographic Data Centre
#                                CCDC 
#
#######################################################################
#
# If this CIF has been generated from an entry in the Cambridge 
# Structural Database, then it will include bibliographic, chemical, 
# crystal, experimental, refinement or atomic coordinate data resulting 
# from the CCDC's data processing and validation procedures.
#
#######################################################################

data_PODXOX
_symmetry_cell_setting           monoclinic
_symmetry_space_group_name_H-M   'C 2'
_symmetry_Int_Tables_number      5
_space_group_name_Hall           'C 2y'
loop_
_symmetry_equiv_pos_site_id
_symmetry_equiv_pos_as_xyz
1 x,y,z
2 -x,y,-z
3 1/2+x,1/2+y,z
4 1/2-x,1/2+y,-z
_cell_length_a                   26.150(10)
_cell_length_b                   15.464(5)
_cell_length_c                   9.002(3)
_cell_angle_alpha                90
_cell_angle_beta                 103.994(6)
_cell_angle_gamma                90
_cell_volume                     3532.22
loop_
_atom_site_label
_atom_site_type_symbol
_atom_site_fract_x
_atom_site_fract_y
_atom_site_fract_z
Co1 Co 0.20641(2) 0.06403(3) 0.00840(6)
Cl1 Cl 0.23755(11) -0.04988(16) 0.1914(3)
N1 N -0.21854(14) 0.61521(19) 0.0147(4)
N2 N 0.16940(14) 0.2578(2) 0.2973(4)
N3 N -0.13193(14) 0.63089(19) 0.0662(4)
C1 C 0.14948(16) 0.3439(2) 0.3116(4)
N4 N 0.19037(13) 0.8675(2) 0.6719(4)
C2 C 0.02861(17) 0.5952(3) 0.2876(5)
C3 C 0.18785(19) 0.1195(3) 0.3266(5)
H1 H 0.1928 0.0641 0.3677
N5 N 0.21063(15) 0.9768(2) 0.8330(4)
N6 N 0.19600(14) 0.1456(2) 0.1868(4)
C4 C -0.07856(16) 0.6187(2) 0.1358(5)
C5 C -0.17333(16) 0.5853(3) 0.0911(5)
H2 H -0.1698 0.5376 0.1558
Cl2 Cl 0.16882(14) 0.1601(2) -0.1825(4)
C6 C 0.18437(17) 0.2295(3) 0.1716(5)
H3 H 0.1862 0.2634 0.0878
C7 C 0.10598(16) 0.5036(3) 0.3447(5)
C8 C -0.04262(16) 0.6861(3) 0.1413(4)
H4 H -0.0538 0.7393 0.0966
C9 C 0.16452(16) 0.7917(2) 0.6038(5)
C10 C -0.20672(19) 0.6871(3) -0.0641(6)
H5 H -0.2313 0.7232 -0.1265
N7 N 0.08099(15) 0.5825(2) 0.3624(5)
C11 C 0.10976(17) 0.6517(2) 0.4476(5)
C12 C -0.00886(18) 0.5281(3) 0.2780(5)
H6 H 0.0021 0.4751 0.3238
C13 C -0.1532(2) 0.6960(3) -0.0351(7)
H7 H -0.1348 0.7376 -0.0755
C14 C 0.15789(19) 0.3800(3) 0.4544(5)
H8 H 0.1782 0.3516 0.5396
O1 O 0.12617(15) 0.0240(3) -0.0138(5)
H9 H 0.1190 -0.0214 0.0405
H10 H 0.0998 0.0526 -0.0774
C15 C 0.01068(16) 0.6727(3) 0.2152(5)
H11 H 0.0347 0.7172 0.2157
C16 C 0.08528(18) 0.7060(3) 0.5321(5)
H12 H 0.0508 0.6951 0.5378
C17 C 0.1008(2) 0.4679(3) 0.2034(6)
H13 H 0.0832 0.4983 0.1171
C18 C 0.2191(2) 0.9248(3) 0.6082(6)
H14 H 0.2283 0.9195 0.5150
C19 C -0.06100(18) 0.5385(2) 0.2032(5)
H15 H -0.0845 0.4928 0.1972
C20 C 0.23156(19) 0.9920(3) 0.7113(6)
H16 H 0.2513 1.0403 0.6994
C21 C 0.11249(18) 0.7766(3) 0.6082(5)
H17 H 0.0958 0.8140 0.6623
C22 C 0.18969(19) 0.7338(3) 0.5292(6)
H18 H 0.2253 0.7411 0.5334
C23 C 0.16313(19) 0.6657(3) 0.4493(6)
H19 H 0.1803 0.6286 0.3959
C24 C 0.17116(18) 0.1908(3) 0.3931(5)
H20 H 0.1626 0.1924 0.4876
C25 C 0.18585(18) 0.9016(2) 0.8069(5)
H21 H 0.1678 0.8757 0.8724
C26 C 0.12138(19) 0.3877(3) 0.1869(5)
H22 H 0.1161 0.3631 0.0901
C27 C 0.1353(2) 0.4604(3) 0.4693(5)
H23 H 0.1402 0.4852 0.5659
Co1_2 Co 0.20641(2) 1.06403(3) 1.00840(6)
Co1B Co -0.29359(2) 0.56403(3) 0.00840(6)
N1B N 0.28146(14) 0.11521(19) 0.0147(4)
N5_2 N 0.21063(15) -0.0232(2) -0.1670(4)
loop_
_geom_bond_atom_site_label_1
_geom_bond_atom_site_label_2
_geom_bond_site_symmetry_1
_geom_bond_site_symmetry_2
Co1 Cl1 1_555 1_555
N1 C5 1_555 1_555
N2 C1 1_555 1_555
N3 C4 1_555 1_555
C1 C14 1_555 1_555
N4 C9 1_555 1_555
C2 N7 1_555 1_555
C3 H1 1_555 1_555
N5 C20 1_555 1_555
N6 Co1 1_555 1_555
C4 C8 1_555 1_555
C5 N3 1_555 1_555
H2 C5 1_555 1_555
Cl2 Co1 1_555 1_555
C6 N2 1_555 1_555
H3 C6 1_555 1_555
C7 N7 1_555 1_555
C8 H4 1_555 1_555
C9 C21 1_555 1_555
C10 N1 1_555 1_555
H5 C10 1_555 1_555
N7 C11 1_555 1_555
C11 C16 1_555 1_555
C12 C2 1_555 1_555
H6 C12 1_555 1_555
C13 N3 1_555 1_555
H7 C13 1_555 1_555
C14 H8 1_555 1_555
O1 Co1 1_555 1_555
H9 O1 1_555 1_555
H10 O1 1_555 1_555
C15 C2 1_555 1_555
H11 C15 1_555 1_555
C16 H12 1_555 1_555
C17 C7 1_555 1_555
H13 C17 1_555 1_555
C18 N4 1_555 1_555
H14 C18 1_555 1_555
C19 C4 1_555 1_555
H15 C19 1_555 1_555
C20 C18 1_555 1_555
H16 C20 1_555 1_555
C21 C16 1_555 1_555
H17 C21 1_555 1_555
C22 C9 1_555 1_555
H18 C22 1_555 1_555
C23 C11 1_555 1_555
H19 C23 1_555 1_555
C24 N2 1_555 1_555
H20 C24 1_555 1_555
C25 N4 1_555 1_555
H21 C25 1_555 1_555
C26 C1 1_555 1_555
H22 C26 1_555 1_555
C27 C7 1_555 1_555
H23 C27 1_555 1_555
Co1_2 N5 1_555 1_555
Co1B N1 1_555 1_555
N1B Co1 1_555 1_555
N5_2 Co1 1_555 1_555
C3 N6 1_555 1_555
C3 C24 1_555 1_555
N5 C25 1_555 1_555
N6 C6 1_555 1_555
C8 C15 1_555 1_555
C10 C13 1_555 1_555
C12 C19 1_555 1_555
C14 C27 1_555 1_555
C17 C26 1_555 1_555
C22 C23 1_555 1_555

#END
