
#######################################################################
#
#                 Cambridge Crystallographic Data Centre
#                                CCDC 
#
#######################################################################
#
# If this CIF has been generated from an entry in the Cambridge 
# Structural Database, then it will include bibliographic, chemical, 
# crystal, experimental, refinement or atomic coordinate data resulting 
# from the CCDC's data processing and validation procedures.
#
#######################################################################

data_PODYOX
_symmetry_cell_setting           monoclinic
_symmetry_space_group_name_H-M   'P 21/c'
_symmetry_Int_Tables_number      14
_space_group_name_Hall           '-P 2ybc'
loop_
_symmetry_equiv_pos_site_id
_symmetry_equiv_pos_as_xyz
1 x,y,z
2 -x,1/2+y,1/2-z
3 -x,-y,-z
4 x,1/2-y,1/2+z
_cell_length_a                   6.1608(9)
_cell_length_b                   25.811(4)
_cell_length_c                   16.185(3)
_cell_angle_alpha                90
_cell_angle_beta                 92.503(2)
_cell_angle_gamma                90
_cell_volume                     2571.23
loop_
_atom_site_label
_atom_site_type_symbol
_atom_site_fract_x
_atom_site_fract_y
_atom_site_fract_z
C1 C 0.1661(7) 0.45016(15) -0.4505(3)
H1 H 0.0525 0.4725 -0.4397
C2 C 0.3029(7) 0.45513(16) -0.5136(3)
H2 H 0.3004 0.4810 -0.5537
C3 C 0.3919(7) 0.38632(15) -0.4401(3)
H3 H 0.4643 0.3566 -0.4216
C4 C 0.6352(8) 0.40599(17) -0.5563(3)
H4 H 0.6121 0.4236 -0.6089
H5 H 0.7623 0.4211 -0.5283
C5 C 0.6768(7) 0.34960(16) -0.5719(3)
C6 C 0.5194(8) 0.31861(19) -0.6091(3)
H6 H 0.3861 0.3332 -0.6251
C7 C 0.5531(8) 0.26637(19) -0.6233(3)
H7 H 0.4425 0.2463 -0.6476
C8 C 0.7516(7) 0.24416(16) -0.6014(3)
C9 C 0.9128(7) 0.27533(18) -0.5648(3)
H8 H 1.0479 0.2612 -0.5502
C10 C 0.8738(8) 0.32735(18) -0.5500(3)
H9 H 0.9828 0.3476 -0.5249
C11 C 0.8036(7) 0.18778(17) -0.6168(3)
H10 H 0.8759 0.1734 -0.5675
H11 H 0.9032 0.1855 -0.6614
C12 C 0.4828(8) 0.13189(18) -0.5836(3)
H12 H 0.5095 0.1280 -0.5269
C13 C 0.3094(8) 0.11385(17) -0.6294(3)
H13 H 0.1968 0.0943 -0.6091
C14 C 0.5102(7) 0.15473(16) -0.7128(3)
H14 H 0.5639 0.1694 -0.7603
C15 C -0.2311(7) 0.45175(15) -0.2780(3)
C16 C -0.3735(7) 0.48550(15) -0.2277(3)
C17 C -0.5687(7) 0.50464(16) -0.2627(3)
H15 H -0.6076 0.4968 -0.3174
C18 C -0.7053(7) 0.53508(17) -0.2175(3)
H16 H -0.8353 0.5475 -0.2413
C19 C -0.6446(7) 0.54668(15) -0.1365(3)
C20 C -0.4550(8) 0.52835(16) -0.1000(3)
H17 H -0.4174 0.5366 -0.0453
C21 C -0.3190(7) 0.49738(16) -0.1453(3)
H18 H -0.1910 0.4845 -0.1205
C22 C -0.8501(7) 0.62400(15) -0.1115(3)
C23 C -0.7128(7) 0.65793(17) -0.1498(3)
H19 H -0.5768 0.6471 -0.1656
C24 C -0.7814(7) 0.70848(16) -0.1644(3)
H20 H -0.6888 0.7318 -0.1889
C25 C -0.9857(7) 0.72472(15) -0.1429(3)
C26 C -1.0669(7) 0.77912(16) -0.1573(3)
C27 C -1.1208(7) 0.68936(16) -0.1054(3)
H21 H -1.2587 0.6997 -0.0910
C28 C -1.0534(7) 0.63930(17) -0.0894(3)
H22 H -1.1446 0.6161 -0.0640
N1 N 0.2223(6) 0.40670(12) -0.4052(2)
N2 N 0.4459(6) 0.41425(13) -0.5061(2)
N3 N 0.6107(6) 0.15708(13) -0.6381(2)
N4 N 0.3250(6) 0.12890(13) -0.7109(2)
O1 O -0.0854(5) 0.42579(11) -0.23802(18)
O2 O -0.2634(5) 0.44973(12) -0.35433(18)
O3 O -1.2588(5) 0.78926(12) -0.1450(2)
O4 O -0.9314(5) 0.81274(11) -0.18326(19)
O5 O -0.7843(5) 0.57438(11) -0.08694(19)
Zn1 Zn 0.09373(8) 0.379100(17) -0.30254(3)
N4C N 0.3250(6) 0.37110(13) -0.2109(2)
O4A O -0.0686(5) 0.31274(11) -0.31674(19)
Zn1C Zn 0.09373(8) 0.120900(17) -0.80254(3)
Zn1A Zn -1.09373(8) 0.879100(17) -0.19746(3)
loop_
_geom_bond_atom_site_label_1
_geom_bond_atom_site_label_2
_geom_bond_site_symmetry_1
_geom_bond_site_symmetry_2
C1 H1 1_555 1_555
C2 C1 1_555 1_555
H2 C2 1_555 1_555
C3 H3 1_555 1_555
C4 H4 1_555 1_555
H5 C4 1_555 1_555
C5 C4 1_555 1_555
C6 C5 1_555 1_555
H6 C6 1_555 1_555
C7 C6 1_555 1_555
H7 C7 1_555 1_555
C8 C7 1_555 1_555
C9 C8 1_555 1_555
H8 C9 1_555 1_555
C10 C5 1_555 1_555
H9 C10 1_555 1_555
C11 C8 1_555 1_555
H10 C11 1_555 1_555
H11 C11 1_555 1_555
C12 H12 1_555 1_555
C13 C12 1_555 1_555
H13 C13 1_555 1_555
C14 H14 1_555 1_555
C15 C16 1_555 1_555
C16 C17 1_555 1_555
C17 H15 1_555 1_555
C18 C17 1_555 1_555
H16 C18 1_555 1_555
C19 C18 1_555 1_555
C20 C19 1_555 1_555
H17 C20 1_555 1_555
C21 C16 1_555 1_555
H18 C21 1_555 1_555
C22 C23 1_555 1_555
C23 H19 1_555 1_555
C24 C23 1_555 1_555
H20 C24 1_555 1_555
C25 C24 1_555 1_555
C26 C25 1_555 1_555
C27 C25 1_555 1_555
H21 C27 1_555 1_555
C28 C22 1_555 1_555
H22 C28 1_555 1_555
N1 C1 1_555 1_555
N2 C2 1_555 1_555
N3 C11 1_555 1_555
N4 C13 1_555 1_555
O1 C15 1_555 1_555
O2 C15 1_555 1_555
O3 C26 1_555 1_555
O4 C26 1_555 1_555
O5 C19 1_555 1_555
Zn1 N1 1_555 1_555
N4C Zn1 1_555 1_555
O4A Zn1 1_555 1_555
Zn1C N4 1_555 1_555
Zn1A O4 1_555 1_555
C3 N1 1_555 1_555
C3 N2 1_555 1_555
C4 N2 1_555 1_555
C9 C10 1_555 1_555
C12 N3 1_555 1_555
C14 N3 1_555 1_555
C14 N4 1_555 1_555
C20 C21 1_555 1_555
C22 O5 1_555 1_555
C27 C28 1_555 1_555
O1 Zn1 1_555 1_555

#END
