
#######################################################################
#
#                 Cambridge Crystallographic Data Centre
#                                CCDC 
#
#######################################################################
#
# If this CIF has been generated from an entry in the Cambridge 
# Structural Database, then it will include bibliographic, chemical, 
# crystal, experimental, refinement or atomic coordinate data resulting 
# from the CCDC's data processing and validation procedures.
#
#######################################################################

data_PODYIR
_symmetry_cell_setting           monoclinic
_symmetry_space_group_name_H-M   'P 21/n'
_symmetry_Int_Tables_number      14
_space_group_name_Hall           '-P 2yn'
loop_
_symmetry_equiv_pos_site_id
_symmetry_equiv_pos_as_xyz
1 x,y,z
2 1/2-x,1/2+y,1/2-z
3 -x,-y,-z
4 1/2+x,1/2-y,1/2+z
_cell_length_a                   12.4213(12)
_cell_length_b                   13.2543(13)
_cell_length_c                   13.4328(13)
_cell_angle_alpha                90
_cell_angle_beta                 107.361(2)
_cell_angle_gamma                90
_cell_volume                     2110.77
loop_
_atom_site_label
_atom_site_type_symbol
_atom_site_fract_x
_atom_site_fract_y
_atom_site_fract_z
C1 C -0.2031(3) -0.6196(2) -0.2778(3)
C2 C -0.2855(3) -0.6584(2) -0.2242(2)
C3 C -0.2886(3) -0.7586(2) -0.2054(3)
H1 H -0.2417 -0.8019 -0.2279
C4 C -0.3608(3) -0.7986(2) -0.1528(3)
H2 H -0.3601 -0.8677 -0.1403
C5 C -0.4326(3) -0.7376(2) -0.1195(2)
C6 C -0.5034(3) -0.7829(2) -0.0580(3)
C7 C -0.4364(3) -0.6328(2) -0.1424(2)
C8 C -0.3618(3) -0.5919(2) -0.1945(2)
C9 C -0.3694(3) -0.4882(2) -0.2194(3)
H3 H -0.3205 -0.4607 -0.2527
C10 C -0.4464(3) -0.4277(3) -0.1958(3)
H4 H -0.4503 -0.3596 -0.2132
C11 C -0.5196(3) -0.4680(3) -0.1454(3)
H5 H -0.5722 -0.4262 -0.1294
C12 C -0.5157(3) -0.5664(2) -0.1194(3)
H6 H -0.5657 -0.5914 -0.0859
C13 C -0.3290(3) 0.2540(3) -0.6581(3)
H7 H -0.3356 0.3063 -0.7056
C14 C -0.3849(4) 0.1660(3) -0.6787(3)
H8 H -0.4356 0.1463 -0.7418
C15 C -0.2781(3) 0.1688(3) -0.5198(3)
H9 H -0.2419 0.1490 -0.4516
C16 C -0.3882(3) 0.0086(2) -0.5714(3)
H10 H -0.3732 -0.0024 -0.4971
H11 H -0.4689 0.0024 -0.6039
C17 C -0.3285(3) -0.0711(2) -0.6149(3)
H12 H -0.3502 -0.0648 -0.6903
H13 H -0.2477 -0.0605 -0.5882
C18 C -0.3566(3) -0.1771(2) -0.5863(3)
H14 H -0.4378 -0.1862 -0.6083
H15 H -0.3295 -0.1855 -0.5112
C19 C -0.3029(3) -0.2560(2) -0.6379(3)
H16 H -0.2246 -0.2381 -0.6277
H17 H -0.3410 -0.2559 -0.7123
C20 C -0.3950(3) -0.4021(3) -0.5704(3)
H18 H -0.4647 -0.3734 -0.5749
C21 C -0.2254(3) -0.4270(2) -0.5777(3)
H19 H -0.1564 -0.4163 -0.5898
N1 N -0.2523(2) -0.51080(19) -0.5399(2)
C22 C -0.3598(3) -0.4948(3) -0.5365(3)
H20 H -0.4027 -0.5419 -0.5137
N2 N -0.2616(2) 0.2554(2) -0.5581(2)
N3 N -0.3524(2) 0.11138(19) -0.5887(2)
N4 N -0.3080(2) -0.3579(2) -0.5970(2)
O1 O -0.55860(18) -0.86339(16) -0.09293(17)
O2 O -0.1938(2) -0.67401(16) -0.35270(18)
O3 O -0.0267(2) -0.54150(17) -0.37885(19)
O4 O -0.50731(19) -0.74467(16) 0.02507(17)
O5 O -0.14809(19) -0.54171(16) -0.24656(18)
Ni1 Ni -0.14866(4) -0.63565(3) -0.48181(3)
H21 H -0.005(2) -0.4865(16) -0.393(2)
H22 H -0.060(3) -0.534(2) -0.334(2)
N2_2 N -0.2616(2) -0.7446(2) -0.5581(2)
O1C O -0.05860(18) -0.63661(16) -0.59293(17)
O4C O -0.00731(19) -0.75533(16) -0.47493(17)
Ni1C Ni -0.64866(4) -0.86435(3) 0.01819(3)
Ni1_2 Ni -0.14866(4) 0.36435(3) -0.48181(3)
loop_
_geom_bond_atom_site_label_1
_geom_bond_atom_site_label_2
_geom_bond_site_symmetry_1
_geom_bond_site_symmetry_2
C1 C2 1_555 1_555
C2 C3 1_555 1_555
C3 H1 1_555 1_555
C4 C3 1_555 1_555
H2 C4 1_555 1_555
C5 C4 1_555 1_555
C6 C5 1_555 1_555
C7 C5 1_555 1_555
C8 C2 1_555 1_555
C9 C8 1_555 1_555
H3 C9 1_555 1_555
C10 C9 1_555 1_555
H4 C10 1_555 1_555
C11 C10 1_555 1_555
H5 C11 1_555 1_555
C12 C7 1_555 1_555
H6 C12 1_555 1_555
C13 H7 1_555 1_555
C14 C13 1_555 1_555
H8 C14 1_555 1_555
C15 H9 1_555 1_555
C16 H10 1_555 1_555
H11 C16 1_555 1_555
C17 C16 1_555 1_555
H12 C17 1_555 1_555
H13 C17 1_555 1_555
C18 C17 1_555 1_555
H14 C18 1_555 1_555
H15 C18 1_555 1_555
C19 C18 1_555 1_555
H16 C19 1_555 1_555
H17 C19 1_555 1_555
C20 H18 1_555 1_555
C21 H19 1_555 1_555
N1 C21 1_555 1_555
C22 C20 1_555 1_555
H20 C22 1_555 1_555
N2 C13 1_555 1_555
N3 C14 1_555 1_555
N4 C19 1_555 1_555
O1 C6 1_555 1_555
O2 C1 1_555 1_555
O3 Ni1 1_555 1_555
O4 C6 1_555 1_555
O5 C1 1_555 1_555
Ni1 N1 1_555 1_555
H21 O3 1_555 1_555
H22 O3 1_555 1_555
N2_2 Ni1 1_555 1_555
O1C Ni1 1_555 1_555
O4C Ni1 1_555 1_555
Ni1C O1 1_555 1_555
Ni1_2 N2 1_555 1_555
C7 C8 1_555 1_555
C11 C12 1_555 1_555
C15 N2 1_555 1_555
C15 N3 1_555 1_555
C16 N3 1_555 1_555
C20 N4 1_555 1_555
C21 N4 1_555 1_555
N1 C22 1_555 1_555
O2 Ni1 1_555 1_555
O4 Ni1C 1_555 1_555

#END
