
#######################################################################
#
#                 Cambridge Crystallographic Data Centre
#                                CCDC 
#
#######################################################################
#
# If this CIF has been generated from an entry in the Cambridge 
# Structural Database, then it will include bibliographic, chemical, 
# crystal, experimental, refinement or atomic coordinate data resulting 
# from the CCDC's data processing and validation procedures.
#
#######################################################################

data_PODZOY
_symmetry_cell_setting           monoclinic
_symmetry_space_group_name_H-M   'P 21/c'
_symmetry_Int_Tables_number      14
_space_group_name_Hall           '-P 2ybc'
loop_
_symmetry_equiv_pos_site_id
_symmetry_equiv_pos_as_xyz
1 x,y,z
2 -x,1/2+y,1/2-z
3 -x,-y,-z
4 x,1/2-y,1/2+z
_cell_length_a                   10.7388(11)
_cell_length_b                   6.6608(7)
_cell_length_c                   13.7789(10)
_cell_angle_alpha                90
_cell_angle_beta                 120.384(6)
_cell_angle_gamma                90
_cell_volume                     850.225
loop_
_atom_site_label
_atom_site_type_symbol
_atom_site_fract_x
_atom_site_fract_y
_atom_site_fract_z
Zn1 Zn -0.21910(4) -0.31001(6) -0.54678(3)
C1 C -0.5300(4) -0.3318(5) -0.6300(2)
C2 C -0.4615(3) -0.2580(5) -0.5104(2)
C3 C -0.2985(3) -0.1691(5) -0.3493(3)
C4 C -0.1588(4) -0.1138(5) -0.2453(3)
N1 N -0.5320(3) -0.2264(4) -0.4566(2)
N2 N -0.4261(3) -0.1687(4) -0.3544(2)
H1 H -0.4471 -0.1452 -0.3071
N3 N -0.3183(3) -0.2244(4) -0.4487(2)
O1 O -0.4393(2) -0.3607(4) -0.66272(18)
O2 O -0.6604(3) -0.3595(4) -0.68401(19)
O3 O -0.0468(3) -0.1174(5) -0.2503(2)
O4 O -0.1676(2) -0.0634(4) -0.16134(18)
O5 O -0.2327(3) -0.0209(4) -0.60933(19)
H2 H -0.2626 0.0338 -0.6731
H3 H -0.1556 0.0484 -0.5776
O6 O -0.1842(2) -0.6059(4) -0.47695(19)
H4 H -0.2630 -0.6585 -0.4892
H5 H -0.1227 -0.6151 -0.4072
O7 O -0.0099(2) -0.2331(4) -0.42261(18)
H6 H -0.0169 -0.1900 -0.3675
H7 H 0.0497 -0.3301 -0.3975
Zn1C Zn -0.21910(4) -0.18999(6) -0.04678(3)
O4C O -0.1676(2) -0.4366(4) -0.66134(18)
loop_
_geom_bond_atom_site_label_1
_geom_bond_atom_site_label_2
_geom_bond_site_symmetry_1
_geom_bond_site_symmetry_2
Zn1 N3 1_555 1_555
C1 C2 1_555 1_555
C2 N1 1_555 1_555
C3 C4 1_555 1_555
C4 O3 1_555 1_555
N1 N2 1_555 1_555
N2 C3 1_555 1_555
H1 N2 1_555 1_555
N3 C2 1_555 1_555
O1 Zn1 1_555 1_555
O2 C1 1_555 1_555
O4 C4 1_555 1_555
O5 Zn1 1_555 1_555
H2 O5 1_555 1_555
H3 O5 1_555 1_555
O6 Zn1 1_555 1_555
H4 O6 1_555 1_555
H5 O6 1_555 1_555
O7 Zn1 1_555 1_555
H6 O7 1_555 1_555
H7 O7 1_555 1_555
Zn1C O4 1_555 1_555
O4C Zn1 1_555 1_555
C1 O1 1_555 1_555
C3 N3 1_555 1_555

#END
