
#######################################################################
#
#                 Cambridge Crystallographic Data Centre
#                                CCDC 
#
#######################################################################
#
# If this CIF has been generated from an entry in the Cambridge 
# Structural Database, then it will include bibliographic, chemical, 
# crystal, experimental, refinement or atomic coordinate data resulting 
# from the CCDC's data processing and validation procedures.
#
#######################################################################

data_POFBOC01
_symmetry_cell_setting           triclinic
_symmetry_space_group_name_H-M   'P -1'
_symmetry_Int_Tables_number      2
_space_group_name_Hall           '-P 1'
loop_
_symmetry_equiv_pos_site_id
_symmetry_equiv_pos_as_xyz
1 x,y,z
2 -x,-y,-z
_cell_length_a                   8.7842(2)
_cell_length_b                   9.6200(2)
_cell_length_c                   10.2230(2)
_cell_angle_alpha                73.7710(10)
_cell_angle_beta                 70.8160(10)
_cell_angle_gamma                63.9870(10)
_cell_volume                     723.871
loop_
_atom_site_label
_atom_site_type_symbol
_atom_site_fract_x
_atom_site_fract_y
_atom_site_fract_z
Cu1 Cu -0.32791(4) 0.53460(4) 0.85848(3)
Cu2 Cu 0.03376(4) 0.45585(4) 0.67803(3)
Br1 Br -0.42125(4) 0.49545(3) 1.15252(3)
Br2 Br -0.12146(4) 0.27736(3) 0.79269(3)
Br3 Br 0.23010(4) 0.30964(3) 0.49910(3)
N1 N -0.4198(3) 0.7654(2) 0.8437(2)
N2 N 0.1180(3) 0.6276(3) 0.6331(2)
O1 O -0.1105(2) 0.5546(2) 0.84176(18)
O2 O -0.1006(3) 0.7149(2) 0.9687(2)
C1 C -0.5869(4) 0.8620(3) 0.8472(3)
C2 C -0.6432(4) 1.0221(3) 0.8385(3)
C3 C -0.5237(4) 1.0840(3) 0.8257(3)
C4 C -0.3519(4) 0.9853(3) 0.8212(3)
C5 C -0.3027(3) 0.8257(3) 0.8310(3)
C6 C -0.1186(4) 0.7031(3) 0.8402(3)
C7 C 0.0284(3) 0.7345(3) 0.7197(3)
C8 C 0.0725(4) 0.8613(4) 0.7034(4)
C9 C 0.2095(4) 0.8785(4) 0.5955(4)
C10 C 0.3022(4) 0.7672(4) 0.5083(3)
C11 C 0.2531(4) 0.6435(4) 0.5300(3)
H1 H -0.018(5) 0.653(4) 0.986(4)
H2 H -0.675(4) 0.816(4) 0.859(3)
H3 H -0.753(4) 1.082(4) 0.842(3)
H4 H -0.555(4) 1.180(4) 0.821(3)
H5 H -0.273(4) 1.023(4) 0.817(3)
H6 H 0.020(4) 0.919(3) 0.765(3)
H7 H 0.237(5) 0.961(4) 0.586(4)
H8 H 0.392(5) 0.778(4) 0.431(4)
H9 H 0.312(4) 0.572(4) 0.471(3)
Cu1A Cu -0.67209(4) 0.46540(4) 1.14152(3)
Cu2A Cu -0.03376(4) 0.54415(4) 0.32197(3)
Br1A Br -0.57875(4) 0.50455(3) 0.84748(3)
Br3A Br -0.23010(4) 0.69036(3) 0.50090(3)
loop_
_geom_bond_atom_site_label_1
_geom_bond_atom_site_label_2
_geom_bond_site_symmetry_1
_geom_bond_site_symmetry_2
Cu1 Br1 1_555 1_555
Cu2 Br2 1_555 1_555
Br1 Cu1A 1_555 1_555
Br2 Cu1 1_555 1_555
Br3 Cu2 1_555 1_555
N1 Cu1 1_555 1_555
N2 Cu2 1_555 1_555
O1 Cu1 1_555 1_555
O2 C6 1_555 1_555
C1 N1 1_555 1_555
C2 C1 1_555 1_555
C3 C2 1_555 1_555
C4 C3 1_555 1_555
C5 N1 1_555 1_555
C6 O1 1_555 1_555
C7 N2 1_555 1_555
C8 C7 1_555 1_555
C9 C8 1_555 1_555
C10 C9 1_555 1_555
C11 N2 1_555 1_555
H1 O2 1_555 1_555
H2 C1 1_555 1_555
H3 C2 1_555 1_555
H4 C3 1_555 1_555
H5 C4 1_555 1_555
H6 C8 1_555 1_555
H7 C9 1_555 1_555
H8 C10 1_555 1_555
H9 C11 1_555 1_555
Cu1A Br1A 1_555 1_555
Cu2A Br3 1_555 1_555
Br1A Cu1 1_555 1_555
Br3A Cu2 1_555 1_555
Cu2 O1 1_555 1_555
C4 C5 1_555 1_555
C5 C6 1_555 1_555
C6 C7 1_555 1_555
C10 C11 1_555 1_555
Cu2A Br3A 1_555 1_555

#END
