
#######################################################################
#
#                 Cambridge Crystallographic Data Centre
#                                CCDC 
#
#######################################################################
#
# If this CIF has been generated from an entry in the Cambridge 
# Structural Database, then it will include bibliographic, chemical, 
# crystal, experimental, refinement or atomic coordinate data resulting 
# from the CCDC's data processing and validation procedures.
#
#######################################################################

data_POFBOC
_symmetry_cell_setting           triclinic
_symmetry_space_group_name_H-M   'P -1'
_symmetry_Int_Tables_number      2
_space_group_name_Hall           '-P 1'
loop_
_symmetry_equiv_pos_site_id
_symmetry_equiv_pos_as_xyz
1 x,y,z
2 -x,-y,-z
_cell_length_a                   8.7708(7)
_cell_length_b                   9.6018(8)
_cell_length_c                   10.1839(8)
_cell_angle_alpha                73.7060(10)
_cell_angle_beta                 70.8520(10)
_cell_angle_gamma                63.9280(10)
_cell_volume                     718.285
loop_
_atom_site_label
_atom_site_type_symbol
_atom_site_fract_x
_atom_site_fract_y
_atom_site_fract_z
Br1 Br 0.12154(3) 1.22298(3) 0.70734(3)
Br2 Br -0.23030(3) 1.19011(3) 1.00202(3)
Br3 Br 0.57965(3) 0.99477(3) 0.65263(3)
Cu1 Cu 0.32811(4) 0.96542(3) 0.64120(3)
Cu2 Cu -0.03366(4) 1.04405(4) 0.82256(3)
O1 O 0.1101(2) 0.9459(2) 0.65750(18)
O2 O 0.1005(2) 0.7855(2) 0.53023(19)
H1 H 0.0027 0.8513 0.5168
N1 N 0.4203(3) 0.7340(2) 0.6562(2)
C1 C 0.1192(3) 0.7966(3) 0.6588(3)
N2 N -0.1178(3) 0.8719(3) 0.8672(2)
C2 C -0.0283(3) 0.7649(3) 0.7798(3)
C3 C 0.3027(3) 0.6743(3) 0.6683(2)
C4 C 0.3512(3) 0.5141(3) 0.6783(3)
H2 H 0.2670 0.4726 0.6880
C5 C 0.5248(3) 0.4151(3) 0.6739(3)
H3 H 0.5603 0.3051 0.6801
C6 C -0.2540(3) 0.8573(3) 0.9709(3)
H4 H -0.3182 0.9345 1.0310
C7 C 0.5880(3) 0.6375(3) 0.6519(3)
H5 H 0.6702 0.6812 0.6426
C8 C -0.3034(4) 0.7321(4) 0.9924(3)
H6 H -0.3998 0.7232 1.0667
C9 C -0.2103(4) 0.6209(3) 0.9042(3)
H7 H -0.2400 0.5328 0.9187
C10 C 0.6449(3) 0.4767(3) 0.6606(3)
H8 H 0.7641 0.4106 0.6575
C11 C -0.0737(4) 0.6390(3) 0.7948(3)
H9 H -0.0116 0.5661 0.7305
Br2A Br 0.23030(3) 0.80989(3) 0.99798(3)
Br3A Br 0.42035(3) 1.00523(3) 0.34737(3)
Cu1A Cu 0.67189(4) 1.03458(3) 0.35880(3)
Cu2A Cu 0.03366(4) 0.95595(4) 1.17744(3)
loop_
_geom_bond_atom_site_label_1
_geom_bond_atom_site_label_2
_geom_bond_site_symmetry_1
_geom_bond_site_symmetry_2
Br1 Cu1 1_555 1_555
Br2 Cu2 1_555 1_555
Br3 Cu1 1_555 1_555
Cu1 Cu2 1_555 1_555
Cu2 Br1 1_555 1_555
O1 Cu1 1_555 1_555
O2 H1 1_555 1_555
N1 Cu1 1_555 1_555
C1 O1 1_555 1_555
N2 Cu2 1_555 1_555
C2 C1 1_555 1_555
C3 N1 1_555 1_555
C4 C3 1_555 1_555
H2 C4 1_555 1_555
C5 C4 1_555 1_555
H3 C5 1_555 1_555
C6 N2 1_555 1_555
H4 C6 1_555 1_555
C7 N1 1_555 1_555
H5 C7 1_555 1_555
C8 C6 1_555 1_555
H6 C8 1_555 1_555
C9 C8 1_555 1_555
H7 C9 1_555 1_555
C10 C5 1_555 1_555
H8 C10 1_555 1_555
C11 C2 1_555 1_555
H9 C11 1_555 1_555
Br2A Cu2 1_555 1_555
Br3A Cu1 1_555 1_555
Cu1A Br3 1_555 1_555
Cu2A Br2 1_555 1_555
Cu2 O1 1_555 1_555
O2 C1 1_555 1_555
C1 C3 1_555 1_555
N2 C2 1_555 1_555
C7 C10 1_555 1_555
C9 C11 1_555 1_555
Br2A Cu2A 1_555 1_555
Br3A Cu1A 1_555 1_555

#END
