
#######################################################################
#
#                 Cambridge Crystallographic Data Centre
#                                CCDC 
#
#######################################################################
#
# If this CIF has been generated from an entry in the Cambridge 
# Structural Database, then it will include bibliographic, chemical, 
# crystal, experimental, refinement or atomic coordinate data resulting 
# from the CCDC's data processing and validation procedures.
#
#######################################################################

data_POFDOF
_symmetry_cell_setting           monoclinic
_symmetry_space_group_name_H-M   'P 21/n'
_symmetry_Int_Tables_number      14
_space_group_name_Hall           '-P 2yn'
loop_
_symmetry_equiv_pos_site_id
_symmetry_equiv_pos_as_xyz
1 x,y,z
2 1/2-x,1/2+y,1/2-z
3 -x,-y,-z
4 1/2+x,1/2-y,1/2+z
_cell_length_a                   6.1018(2)
_cell_length_b                   21.6019(6)
_cell_length_c                   11.0266(3)
_cell_angle_alpha                90
_cell_angle_beta                 105.0430(10)
_cell_angle_gamma                90
_cell_volume                     1403.61
loop_
_atom_site_label
_atom_site_type_symbol
_atom_site_fract_x
_atom_site_fract_y
_atom_site_fract_z
Cu1 Cu 0.99536(4) 0.384231(10) 0.355065(19)
Cu2 Cu 1.07019(4) 0.454542(10) 0.604076(19)
Cl1 Cl 1.35287(7) 0.41857(2) 0.47133(4)
O1 O 0.8963(2) 0.38722(6) 0.64902(12)
O2 O 0.8841(3) 0.32376(7) 0.48641(14)
O3 O 0.7336(2) 0.38751(7) 0.20418(12)
O4 O 0.9922(3) 0.43684(9) 0.13239(15)
O5 O 0.8706(2) 0.45716(5) 0.43038(11)
N1 N 0.6203(3) 0.18946(7) 0.78669(15)
N2 N 0.2984(3) 0.44628(7) -0.23083(14)
C1 C 0.5193(4) 0.24479(10) 0.7750(2)
H1 H 0.3965 0.2504 0.8092
C2 C 0.5887(4) 0.29414(10) 0.7143(2)
H2 H 0.5170 0.3324 0.7102
C3 C 0.7673(3) 0.28559(9) 0.65957(17)
C4 C 0.8731(4) 0.22860(10) 0.6729(2)
H3 H 0.9939 0.2215 0.6378
C5 C 0.7991(3) 0.18209(9) 0.73859(19)
H4 H 0.8757 0.1445 0.7498
C6 C 0.8542(3) 0.33625(9) 0.58997(17)
C7 C 0.2463(3) 0.41616(10) -0.13498(18)
H5 H 0.0987 0.4018 -0.1457
C8 C 0.4017(3) 0.40569(10) -0.02204(18)
H6 H 0.3583 0.3852 0.0421
C9 C 0.6235(3) 0.42586(9) -0.00416(17)
C10 C 0.6771(3) 0.45754(9) -0.10231(18)
H7 H 0.8235 0.4724 -0.0933
C11 C 0.5129(3) 0.46683(9) -0.21312(18)
H8 H 0.5516 0.4880 -0.2780
C12 C 0.8000(3) 0.41652(9) 0.11973(17)
Cu1C Cu 0.49536(4) 0.115769(10) 0.855065(19)
Cu2_2 Cu 0.07019(4) 0.454542(10) -0.395924(19)
Cu2B Cu 0.92981(4) 0.545458(10) 0.395924(19)
O5B O 1.1294(2) 0.54284(5) 0.56962(11)
N1C N 1.1203(3) 0.31054(7) 0.28669(15)
N2_2 N 1.2984(3) 0.44628(7) 0.76917(14)
loop_
_geom_bond_atom_site_label_1
_geom_bond_atom_site_label_2
_geom_bond_site_symmetry_1
_geom_bond_site_symmetry_2
Cu1 Cl1 1_555 1_555
Cu2 Cl1 1_555 1_555
O1 Cu2 1_555 1_555
O2 Cu1 1_555 1_555
O3 Cu1 1_555 1_555
O4 Cu1 1_555 1_555
O5 Cu1 1_555 1_555
N1 C1 1_555 1_555
N2 C7 1_555 1_555
C1 H1 1_555 1_555
C2 C1 1_555 1_555
H2 C2 1_555 1_555
C3 C2 1_555 1_555
C4 C3 1_555 1_555
H3 C4 1_555 1_555
C5 N1 1_555 1_555
H4 C5 1_555 1_555
C6 O1 1_555 1_555
C7 H5 1_555 1_555
C8 C7 1_555 1_555
H6 C8 1_555 1_555
C9 C8 1_555 1_555
C10 C9 1_555 1_555
H7 C10 1_555 1_555
C11 N2 1_555 1_555
H8 C11 1_555 1_555
C12 O3 1_555 1_555
Cu1C N1 1_555 1_555
Cu2_2 N2 1_555 1_555
Cu2B O5 1_555 1_555
O5B Cu2 1_555 1_555
N1C Cu1 1_555 1_555
N2_2 Cu2 1_555 1_555
Cu2 O5 1_555 1_555
O2 C6 1_555 1_555
O4 C12 1_555 1_555
C3 C6 1_555 1_555
C4 C5 1_555 1_555
C9 C12 1_555 1_555
C10 C11 1_555 1_555
Cu2B O5B 1_555 1_555

#END
