
#######################################################################
#
#                 Cambridge Crystallographic Data Centre
#                                CCDC 
#
#######################################################################
#
# If this CIF has been generated from an entry in the Cambridge 
# Structural Database, then it will include bibliographic, chemical, 
# crystal, experimental, refinement or atomic coordinate data resulting 
# from the CCDC's data processing and validation procedures.
#
#######################################################################

data_POFDIZ
_symmetry_cell_setting           triclinic
_symmetry_space_group_name_H-M   'P -1'
_symmetry_Int_Tables_number      2
_space_group_name_Hall           '-P 1'
loop_
_symmetry_equiv_pos_site_id
_symmetry_equiv_pos_as_xyz
1 x,y,z
2 -x,-y,-z
_cell_length_a                   5.951(7)
_cell_length_b                   10.706(11)
_cell_length_c                   25.35(3)
_cell_angle_alpha                90.92(2)
_cell_angle_beta                 90.37(2)
_cell_angle_gamma                101.89(2)
_cell_volume                     1580.15
loop_
_atom_site_label
_atom_site_type_symbol
_atom_site_fract_x
_atom_site_fract_y
_atom_site_fract_z
Cu1 Cu 0.43139(19) 0.89561(10) 0.95921(4)
Cu2 Cu 0.4857(2) 1.15306(10) 0.90235(4)
Cu3 Cu 0.9979(2) 0.63074(10) 0.66373(4)
Cu4 Cu 0.9712(2) 0.61412(10) 0.53711(4)
Cu5 Cu 0.9034(2) 0.37198(10) 0.59576(4)
Cl1 Cl 0.1303(4) 1.0330(2) 0.92977(9)
Cl2 Cl 0.6002(4) 0.5324(3) 0.63920(11)
Cl3 Cl 0.7448(4) 0.6936(2) 0.47945(10)
O1 O 0.7696(12) 1.2893(6) 0.9035(3)
O2 O 0.5205(15) 1.3710(7) 0.9479(3)
O3 O 1.1362(14) 0.8033(6) 0.6391(3)
O4 O 1.1740(12) 0.7820(6) 0.5513(2)
O5 O 1.0849(13) 0.5019(6) 0.7115(2)
O6 O 1.0258(13) 0.3198(6) 0.6624(3)
O7 O 0.5904(13) 1.0184(7) 0.8465(3)
O8 O 0.5927(12) 0.8499(6) 0.8972(2)
O9 O 0.6194(10) 1.0722(5) 0.9638(2)
H1 H 0.7810 1.0713 0.9575
O10 O 0.8117(10) 0.4354(5) 0.5296(2)
H2 H 0.6463 0.4207 0.5225
O11 O 1.0962(10) 0.5457(5) 0.6016(2)
H3 H 1.2618 0.5484 0.6007
N1 N 1.2108(12) 1.7294(6) 0.9512(3)
N2 N 1.6874(13) 1.2026(7) 0.5935(3)
N3 N 1.3590(15) 0.2251(7) 0.8379(3)
N4 N 0.8959(15) 0.7197(7) 0.7266(3)
C1 C 0.7033(19) 1.3770(8) 0.9301(3)
C2 C 0.8851(18) 1.5012(10) 0.9359(4)
C3 C 1.1098(18) 1.5154(8) 0.9145(4)
H4 H 1.1510 1.4502 0.8946
C4 C 1.2609(19) 1.6278(10) 0.9240(4)
H5 H 1.4111 1.6362 0.9112
C5 C 1.0011(19) 1.7161(9) 0.9704(4)
H6 H 0.9617 1.7843 0.9889
C6 C 0.8316(18) 1.6046(9) 0.9641(4)
H7 H 0.6867 1.5989 0.9785
C7 C 1.2203(18) 0.8386(8) 0.5951(4)
C8 C 1.3892(18) 0.9673(8) 0.5942(4)
C9 C 1.3461(19) 1.0692(9) 0.6251(4)
H8 H 1.2181 1.0584 0.6469
C10 C 1.4976(19) 1.1837(9) 0.6225(4)
H9 H 1.4665 1.2526 0.6418
C11 C 1.728(2) 1.1017(10) 0.5643(4)
H10 H 1.8620 1.1130 0.5445
C12 C 1.5794(18) 0.9831(9) 0.5634(4)
H11 H 1.6094 0.9172 0.5421
C13 C 1.0906(18) 0.3866(9) 0.7033(4)
C14 C 1.1911(18) 0.3250(9) 0.7481(4)
C15 C 1.401(2) 0.3778(13) 0.7696(5)
H12 H 1.4913 0.4496 0.7545
C16 C 1.481(2) 0.3229(13) 0.8123(5)
H13 H 1.6264 0.3580 0.8249
C17 C 1.155(2) 0.1773(12) 0.8168(6)
H14 H 1.0633 0.1078 0.8330
C18 C 1.068(2) 0.2234(12) 0.7721(5)
H15 H 0.9262 0.1832 0.7579
C19 C 0.6277(16) 0.9119(8) 0.8551(3)
C20 C 0.7233(17) 0.8431(8) 0.8104(3)
C21 C 0.866(2) 0.7587(11) 0.8187(4)
H16 H 0.9062 0.7415 0.8532
C22 C 0.948(2) 0.7003(11) 0.7773(4)
H17 H 1.0453 0.6446 0.7841
C23 C 0.759(2) 0.8016(11) 0.7179(4)
H18 H 0.7174 0.8169 0.6835
C24 C 0.677(2) 0.8675(10) 0.7601(4)
H19 H 0.5911 0.9284 0.7527
Cu1_2 Cu 1.43139(19) 1.89561(10) 0.95921(4)
Cu1A Cu 0.56861(19) 1.10439(10) 1.04079(4)
Cu2_2 Cu 1.4857(2) 0.15306(10) 0.90235(4)
Cu4A Cu 1.0288(2) 0.38588(10) 0.46289(4)
Cu5_2 Cu 1.9034(2) 1.37198(10) 0.59576(4)
O9A O 0.3806(10) 0.9278(5) 1.0362(2)
O10A O 1.1883(10) 0.5646(5) 0.4704(2)
N1_2 N 0.2108(12) 0.7294(6) 0.9512(3)
N2_2 N 0.6874(13) 0.2026(7) 0.5935(3)
N3_2 N 0.3590(15) 1.2251(7) 0.8379(3)
loop_
_geom_bond_atom_site_label_1
_geom_bond_atom_site_label_2
_geom_bond_site_symmetry_1
_geom_bond_site_symmetry_2
Cu1 Cl1 1_555 1_555
Cu2 Cl1 1_555 1_555
Cu3 Cl2 1_555 1_555
Cu4 Cl3 1_555 1_555
Cu5 Cl2 1_555 1_555
O1 Cu2 1_555 1_555
O2 Cu2 1_555 1_555
O3 Cu3 1_555 1_555
O4 Cu4 1_555 1_555
O5 Cu3 1_555 1_555
O6 Cu5 1_555 1_555
O7 Cu2 1_555 1_555
O8 Cu1 1_555 1_555
O9 Cu1 1_555 1_555
H1 O9 1_555 1_555
O10 Cu4 1_555 1_555
H2 O10 1_555 1_555
O11 Cu3 1_555 1_555
H3 O11 1_555 1_555
N1 C4 1_555 1_555
N2 C10 1_555 1_555
N3 C16 1_555 1_555
N4 Cu3 1_555 1_555
C1 O1 1_555 1_555
C2 C1 1_555 1_555
C3 C2 1_555 1_555
H4 C3 1_555 1_555
C4 C3 1_555 1_555
H5 C4 1_555 1_555
C5 N1 1_555 1_555
H6 C5 1_555 1_555
C6 C2 1_555 1_555
H7 C6 1_555 1_555
C7 O3 1_555 1_555
C8 C7 1_555 1_555
C9 C8 1_555 1_555
H8 C9 1_555 1_555
C10 C9 1_555 1_555
H9 C10 1_555 1_555
C11 N2 1_555 1_555
H10 C11 1_555 1_555
C12 C8 1_555 1_555
H11 C12 1_555 1_555
C13 O5 1_555 1_555
C14 C13 1_555 1_555
C15 C14 1_555 1_555
H12 C15 1_555 1_555
C16 C15 1_555 1_555
H13 C16 1_555 1_555
C17 N3 1_555 1_555
H14 C17 1_555 1_555
C18 C14 1_555 1_555
H15 C18 1_555 1_555
C19 O7 1_555 1_555
C20 C19 1_555 1_555
C21 C20 1_555 1_555
H16 C21 1_555 1_555
C22 N4 1_555 1_555
H17 C22 1_555 1_555
C23 N4 1_555 1_555
H18 C23 1_555 1_555
C24 C20 1_555 1_555
H19 C24 1_555 1_555
Cu1_2 N1 1_555 1_555
Cu1A O9 1_555 1_555
Cu2_2 N3 1_555 1_555
Cu4A O10 1_555 1_555
Cu5_2 N2 1_555 1_555
O9A Cu1 1_555 1_555
O10A Cu4 1_555 1_555
N1_2 Cu1 1_555 1_555
N2_2 Cu5 1_555 1_555
N3_2 Cu2 1_555 1_555
Cu2 O9 1_555 1_555
Cu4 O11 1_555 1_555
Cu5 O10 1_555 1_555
Cu5 O11 1_555 1_555
O2 C1 1_555 1_555
O4 C7 1_555 1_555
O6 C13 1_555 1_555
O8 C19 1_555 1_555
C5 C6 1_555 1_555
C11 C12 1_555 1_555
C17 C18 1_555 1_555
C21 C22 1_555 1_555
C23 C24 1_555 1_555
Cu1A O9A 1_555 1_555
Cu4A O10A 1_555 1_555

#END
