
#######################################################################
#
#                 Cambridge Crystallographic Data Centre
#                                CCDC 
#
#######################################################################
#
# If this CIF has been generated from an entry in the Cambridge 
# Structural Database, then it will include bibliographic, chemical, 
# crystal, experimental, refinement or atomic coordinate data resulting 
# from the CCDC's data processing and validation procedures.
#
#######################################################################

data_POFDUK
_symmetry_cell_setting           monoclinic
_symmetry_space_group_name_H-M   'C 2/c'
_symmetry_Int_Tables_number      15
_space_group_name_Hall           '-C 2yn'
loop_
_symmetry_equiv_pos_site_id
_symmetry_equiv_pos_as_xyz
1 x,y,z
2 1/2+x,1/2+y,z
3 -x,y,1/2-z
4 1/2-x,1/2+y,1/2-z
5 -x,-y,-z
6 1/2-x,1/2-y,-z
7 x,-y,1/2+z
8 1/2+x,1/2-y,1/2+z
_cell_length_a                   21.659(4)
_cell_length_b                   11.590(2)
_cell_length_c                   11.137(2)
_cell_angle_alpha                90
_cell_angle_beta                 93.88(3)
_cell_angle_gamma                90
_cell_volume                     2789.29
loop_
_atom_site_label
_atom_site_type_symbol
_atom_site_fract_x
_atom_site_fract_y
_atom_site_fract_z
Cd1 Cd 0.0000 0.05131(2) 0.2500
S1 S 0.14880(4) 0.21253(9) -0.05125(7)
O1 O 0.08144(10) 0.05635(16) 0.1325(2)
O2 O 0.06445(12) 0.0644(2) 0.4169(2)
H1 H 0.0990 0.0836 0.3982
H2 H 0.0700(14) 0.012(3) 0.464(3)
O3 O 0.15198(12) 0.1218(3) 0.2705(2)
N1 N 0.0000 -0.1422(3) 0.2500
N2 N 0.0000 -0.7537(3) 0.2500
C1 C 0.16190(13) 0.3534(3) 0.0059(3)
C2 C 0.19048(16) 0.3817(4) 0.1177(3)
H3 H 0.2025 0.3234 0.1717
C3 C 0.20102(17) 0.4945(4) 0.1488(3)
H4 H 0.2210 0.5109 0.2234
C4 C 0.18302(16) 0.5854(4) 0.0730(3)
C5 C 0.15375(18) 0.5566(3) -0.0382(3)
H5 H 0.1407 0.6152 -0.0910
C6 C 0.14372(16) 0.4440(3) -0.0715(3)
H6 H 0.1245 0.4275 -0.1468
C7 C 0.1952(2) 0.7075(5) 0.1109(4)
H7 H 0.2389 0.7186 0.1271
H8 H 0.1742 0.7236 0.1822
H9 H 0.1803 0.7586 0.0476
C8 C 0.17850(15) 0.1165(4) 0.0670(3)
H10 H 0.1879 0.0426 0.0316
H11 H 0.2169 0.1481 0.1029
C9 C 0.13410(13) 0.0967(3) 0.1664(3)
C10 C -0.02550(18) -0.2021(3) 0.3350(3)
H12 H -0.0435 -0.1619 0.3959
C11 C -0.02676(18) -0.3207(3) 0.3379(3)
H13 H -0.0457 -0.3584 0.3992
C12 C 0.0000 -0.3838(3) 0.2500
C13 C 0.0000 -0.5111(3) 0.2500
C14 C -0.02533(15) -0.5744(3) 0.3404(3)
H14 H -0.0432 -0.5363 0.4029
C15 C -0.02423(15) -0.6931(3) 0.3382(3)
H15 H 0.0410 -0.7331 0.0994
Cd1_2 Cd 0.0000 -0.94869(2) 0.2500
S1B S -0.14880(4) 0.21253(9) 0.55125(7)
O1B O -0.08144(10) 0.05635(16) 0.3675(2)
O2B O -0.06445(12) 0.0644(2) 0.0831(2)
H1B H -0.0990 0.0836 0.1018
H2B H -0.0700(14) 0.012(3) 0.036(3)
O3B O -0.15198(12) 0.1218(3) 0.2295(2)
N2_2 N 0.0000 0.2463(3) 0.2500
C1B C -0.16190(13) 0.3534(3) 0.4941(3)
C2B C -0.19048(16) 0.3817(4) 0.3823(3)
H3B H -0.2025 0.3234 0.3283
C3B C -0.20102(17) 0.4945(4) 0.3512(3)
H4B H -0.2210 0.5109 0.2766
C4B C -0.18302(16) 0.5854(4) 0.4270(3)
C5B C -0.15375(18) 0.5566(3) 0.5382(3)
H5B H -0.1407 0.6152 0.5910
C6B C -0.14372(16) 0.4440(3) 0.5715(3)
H6B H -0.1245 0.4275 0.6468
C7B C -0.1952(2) 0.7075(5) 0.3891(4)
H7B H -0.2389 0.7186 0.3729
H8B H -0.1742 0.7236 0.3178
H9B H -0.1803 0.7586 0.4524
C8B C -0.17850(15) 0.1165(4) 0.4330(3)
H10B H -0.1879 0.0426 0.4684
H11B H -0.2169 0.1481 0.3971
C9B C -0.13410(13) 0.0967(3) 0.3336(3)
C10B C 0.02550(18) -0.2021(3) 0.1650(3)
H12B H 0.0435 -0.1619 0.1041
C11B C 0.02676(18) -0.3207(3) 0.1621(3)
H13B H 0.0457 -0.3584 0.1008
C14B C 0.02533(15) -0.5744(3) 0.1596(3)
H14B H 0.0432 -0.5363 0.0971
C15B C 0.02423(15) -0.6931(3) 0.1618(3)
H15B H -0.0410 -0.7331 0.4006
loop_
_geom_bond_atom_site_label_1
_geom_bond_atom_site_label_2
_geom_bond_site_symmetry_1
_geom_bond_site_symmetry_2
Cd1 O1 1_555 1_555
S1 C1 1_555 1_555
O1 C9 1_555 1_555
O2 Cd1 1_555 1_555
H1 O2 1_555 1_555
H2 O2 1_555 1_555
O3 C9 1_555 1_555
N1 Cd1 1_555 1_555
N2 C15 1_555 1_555
C1 C2 1_555 1_555
C2 H3 1_555 1_555
C3 C2 1_555 1_555
H4 C3 1_555 1_555
C4 C3 1_555 1_555
C5 C4 1_555 1_555
H5 C5 1_555 1_555
C6 C1 1_555 1_555
H6 C6 1_555 1_555
C7 C4 1_555 1_555
H7 C7 1_555 1_555
H8 C7 1_555 1_555
H9 C7 1_555 1_555
C8 S1 1_555 1_555
H10 C8 1_555 1_555
H11 C8 1_555 1_555
C9 C8 1_555 1_555
C10 N1 1_555 1_555
H12 C10 1_555 1_555
C11 C10 1_555 1_555
H13 C11 1_555 1_555
C12 C11 1_555 1_555
C13 C12 1_555 1_555
C14 C13 1_555 1_555
H14 C14 1_555 1_555
C15 C14 1_555 1_555
H15 C15B 1_555 1_555
Cd1_2 N2 1_555 1_555
S1B C1B 1_555 1_555
O1B Cd1 1_555 1_555
O2B Cd1 1_555 1_555
H1B O2B 1_555 1_555
H2B O2B 1_555 1_555
O3B C9B 1_555 1_555
N2_2 Cd1 1_555 1_555
C1B C2B 1_555 1_555
C2B H3B 1_555 1_555
C3B C2B 1_555 1_555
H4B C3B 1_555 1_555
C4B C3B 1_555 1_555
C5B C4B 1_555 1_555
H5B C5B 1_555 1_555
C6B C1B 1_555 1_555
H6B C6B 1_555 1_555
C7B C4B 1_555 1_555
H7B C7B 1_555 1_555
H8B C7B 1_555 1_555
H9B C7B 1_555 1_555
C8B S1B 1_555 1_555
H10B C8B 1_555 1_555
H11B C8B 1_555 1_555
C9B O1B 1_555 1_555
C10B N1 1_555 1_555
H12B C10B 1_555 1_555
C11B C12 1_555 1_555
H13B C11B 1_555 1_555
C14B C13 1_555 1_555
H14B C14B 1_555 1_555
C15B N2 1_555 1_555
H15B C15 1_555 1_555
C5 C6 1_555 1_555
C5B C6B 1_555 1_555
C8B C9B 1_555 1_555
C10B C11B 1_555 1_555
C14B C15B 1_555 1_555

#END
