
#######################################################################
#
#                 Cambridge Crystallographic Data Centre
#                                CCDC 
#
#######################################################################
#
# If this CIF has been generated from an entry in the Cambridge 
# Structural Database, then it will include bibliographic, chemical, 
# crystal, experimental, refinement or atomic coordinate data resulting 
# from the CCDC's data processing and validation procedures.
#
#######################################################################

data_POFDUL
_symmetry_cell_setting           monoclinic
_symmetry_space_group_name_H-M   'P 21/c'
_symmetry_Int_Tables_number      14
_space_group_name_Hall           '-P 2ybc'
loop_
_symmetry_equiv_pos_site_id
_symmetry_equiv_pos_as_xyz
1 x,y,z
2 -x,1/2+y,1/2-z
3 -x,-y,-z
4 x,1/2-y,1/2+z
_cell_length_a                   9.7398(5)
_cell_length_b                   13.0223(6)
_cell_length_c                   7.1713(3)
_cell_angle_alpha                90
_cell_angle_beta                 105.4930(10)
_cell_angle_gamma                90
_cell_volume                     876.518
loop_
_atom_site_label
_atom_site_type_symbol
_atom_site_fract_x
_atom_site_fract_y
_atom_site_fract_z
Cu1 Cu 0.81280(4) 0.32923(3) 0.73769(6)
Cu2 Cu 1.0000 0.5000 1.0000
Cl1 Cl 0.94515(9) 0.21760(6) 0.60483(12)
N1 N 0.3446(3) 0.7257(2) 0.7978(4)
O1 O 0.8069(2) 0.54466(18) 0.9767(4)
O2 O 0.6701(2) 0.43288(18) 0.7706(4)
O3 O 0.9446(2) 0.43961(17) 0.7451(3)
H1 H 0.9770 0.4611 0.6407
C1 C 0.3204(3) 0.6288(3) 0.7338(5)
H2 H 0.2271 0.6087 0.6758
C2 C 0.4284(3) 0.5575(2) 0.7510(5)
H3 H 0.4085 0.4913 0.7026
C3 C 0.5672(3) 0.5870(2) 0.8423(5)
C4 C 0.5914(4) 0.6850(3) 0.9151(5)
H4 H 0.6828 0.7055 0.9821
C5 C 0.4788(3) 0.7528(3) 0.8863(5)
H5 H 0.4967 0.8200 0.9307
C6 C 0.6927(3) 0.5145(3) 0.8643(5)
Cu1B Cu 1.18720(4) 0.67077(3) 1.26231(6)
Cl1B Cl 1.05485(9) 0.78240(6) 1.39517(12)
N1B N 1.6554(3) 0.2743(2) 1.2022(4)
O1B O 1.1931(2) 0.45534(18) 1.0233(4)
O2B O 1.3299(2) 0.56712(18) 1.2294(4)
O3B O 1.0554(2) 0.56039(17) 1.2549(3)
H1B H 1.0230 0.5389 1.3593
C1B C 1.6796(3) 0.3712(3) 1.2662(5)
H2B H 1.7729 0.3913 1.3242
C2B C 1.5716(3) 0.4425(2) 1.2490(5)
H3B H 1.5915 0.5087 1.2974
C3B C 1.4328(3) 0.4130(2) 1.1577(5)
C4B C 1.4086(4) 0.3150(3) 1.0849(5)
H4B H 1.3172 0.2945 1.0179
C5B C 1.5212(3) 0.2472(3) 1.1137(5)
H5B H 1.5033 0.1800 1.0693
C6B C 1.3073(3) 0.4855(3) 1.1357(5)
Cu1A Cu 0.18720(4) 0.82923(3) 0.76231(6)
Cu1A_2 Cu 1.18720(4) 0.82923(3) 1.76231(6)
Cu1C Cu 0.81280(4) 0.17077(3) 0.23769(6)
Cu1C_2 Cu 1.81280(4) 0.17077(3) 1.23769(6)
Cl1A Cl 1.05485(9) 0.71760(6) 0.89517(12)
Cl1C Cl 0.94515(9) 0.28240(6) 1.10483(12)
N1A N 0.6554(3) 0.2257(2) 0.7022(4)
N1C N 1.3446(3) 0.7743(2) 1.2978(4)
O4 O 0.8340(3) 0.5993(2) 0.4770(5)
loop_
_geom_bond_atom_site_label_1
_geom_bond_atom_site_label_2
_geom_bond_site_symmetry_1
_geom_bond_site_symmetry_2
Cu1 Cl1 1_555 1_555
Cu2 O1 1_555 1_555
Cl1 Cu1C 1_555 1_555
N1 C1 1_555 1_555
O1 C6 1_555 1_555
O2 Cu1 1_555 1_555
O3 Cu1 1_555 1_555
H1 O3 1_555 1_555
C1 H2 1_555 1_555
C2 C1 1_555 1_555
H3 C2 1_555 1_555
C3 C2 1_555 1_555
C4 C3 1_555 1_555
H4 C4 1_555 1_555
C5 N1 1_555 1_555
H5 C5 1_555 1_555
C6 O2 1_555 1_555
Cu1B Cl1B 1_555 1_555
Cl1B Cu1A_2 1_555 1_555
N1B C1B 1_555 1_555
O1B Cu2 1_555 1_555
O2B Cu1B 1_555 1_555
O3B Cu2 1_555 1_555
H1B O3B 1_555 1_555
C1B H2B 1_555 1_555
C2B C1B 1_555 1_555
H3B C2B 1_555 1_555
C3B C2B 1_555 1_555
C4B C3B 1_555 1_555
H4B C4B 1_555 1_555
C5B N1B 1_555 1_555
H5B C5B 1_555 1_555
C6B O1B 1_555 1_555
Cu1A N1 1_555 1_555
Cu1C_2 N1B 1_555 1_555
Cl1A Cu1B 1_555 1_555
Cl1C Cu1 1_555 1_555
N1A Cu1 1_555 1_555
N1C Cu1B 1_555 1_555
Cu2 O3 1_555 1_555
C3 C6 1_555 1_555
C4 C5 1_555 1_555
Cu1B O3B 1_555 1_555
O2B C6B 1_555 1_555
C3B C6B 1_555 1_555
C4B C5B 1_555 1_555

#END
