
#######################################################################
#
#                 Cambridge Crystallographic Data Centre
#                                CCDC 
#
#######################################################################
#
# If this CIF has been generated from an entry in the Cambridge 
# Structural Database, then it will include bibliographic, chemical, 
# crystal, experimental, refinement or atomic coordinate data resulting 
# from the CCDC's data processing and validation procedures.
#
#######################################################################

data_POFDEV
_symmetry_cell_setting           triclinic
_symmetry_space_group_name_H-M   'P -1'
_symmetry_Int_Tables_number      2
_space_group_name_Hall           '-P 1'
loop_
_symmetry_equiv_pos_site_id
_symmetry_equiv_pos_as_xyz
1 x,y,z
2 -x,-y,-z
_cell_length_a                   6.1549(12)
_cell_length_b                   10.678(2)
_cell_length_c                   25.259(5)
_cell_angle_alpha                91.801(4)
_cell_angle_beta                 90.600(4)
_cell_angle_gamma                102.554(4)
_cell_volume                     1619.33
loop_
_atom_site_label
_atom_site_type_symbol
_atom_site_fract_x
_atom_site_fract_y
_atom_site_fract_z
Cu1 Cu 0.43172(17) 0.89323(10) 0.95945(4)
Cu2 Cu 0.48635(17) 1.15224(10) 0.90070(4)
Cu3 Cu 1.01402(18) 0.63547(10) 0.66634(4)
Cu4 Cu 0.98099(17) 0.61424(10) 0.53836(4)
Cu5 Cu 0.90533(18) 0.37263(10) 0.59753(4)
Br1 Br 0.12110(14) 1.03097(9) 0.92895(4)
Br2 Br 0.60138(16) 0.53868(11) 0.64156(4)
Br3 Br 0.74200(15) 0.69922(9) 0.47948(4)
O1 O 0.7604(11) 1.2895(6) 0.9031(3)
O2 O 0.5251(13) 1.3757(7) 0.9480(3)
O3 O 1.1429(12) 0.8056(6) 0.6399(3)
O4 O 1.1849(11) 0.7830(6) 0.5521(2)
O5 O 1.0915(12) 0.5040(7) 0.7132(2)
O6 O 1.0279(11) 0.3205(6) 0.6645(3)
O7 O 0.5829(11) 1.0124(6) 0.8470(2)
O8 O 0.5881(12) 0.8439(6) 0.8985(2)
O9 O 0.6095(9) 1.0700(5) 0.9631(2)
H1 H 0.7658 1.0690 0.9570
O10 O 0.8224(9) 0.4362(5) 0.5308(2)
H2 H 0.6624 0.4235 0.5241
O11 O 1.0976(9) 0.5462(6) 0.6036(2)
H3 H 1.2568 0.5467 0.6023
N1 N 1.2119(12) 1.7259(7) 0.9524(3)
N2 N 1.6927(14) 1.2032(8) 0.5950(3)
N3 N 1.3664(13) 0.2221(7) 0.8365(3)
N4 N 0.9203(13) 0.7292(8) 0.7299(3)
C1 C 0.6994(13) 1.3801(8) 0.9302(3)
C2 C 0.8854(15) 1.5001(9) 0.9368(4)
C3 C 1.1008(15) 1.5109(9) 0.9164(4)
H4 H 1.1397 1.4433 0.8979
C4 C 1.2529(16) 1.6263(10) 0.9250(4)
H5 H 1.3930 1.6345 0.9102
C5 C 1.0061(16) 1.7162(9) 0.9718(4)
H6 H 0.9733 1.7872 0.9901
C6 C 0.8397(15) 1.6060(9) 0.9650(4)
H7 H 0.7000 1.6021 0.9792
C7 C 1.2275(14) 0.8397(9) 0.5959(4)
C8 C 1.3974(14) 0.9675(9) 0.5960(3)
C9 C 1.365(2) 1.0689(11) 0.6278(4)
H8 H 1.2432 1.0611 0.6498
C10 C 1.5171(15) 1.1831(10) 0.6262(4)
H9 H 1.4985 1.2509 0.6485
C11 C 1.7209(16) 1.1039(10) 0.5649(4)
H10 H 1.8472 1.1149 0.5436
C12 C 1.573(2) 0.9836(11) 0.5639(4)
H11 H 1.5961 0.9170 0.5415
C13 C 1.0954(15) 0.3899(9) 0.7041(3)
C14 C 1.1935(16) 0.3296(10) 0.7490(4)
C15 C 1.377(2) 0.3886(15) 0.7733(6)
H12 H 1.4467 0.4707 0.7631
C16 C 1.477(2) 0.3307(15) 0.8147(6)
H13 H 1.6199 0.3692 0.8271
C17 C 1.184(3) 0.1684(17) 0.8116(7)
H14 H 1.1038 0.0894 0.8236
C18 C 1.091(2) 0.2195(15) 0.7684(6)
H15 H 0.9582 0.1741 0.7529
C19 C 0.6244(17) 0.9073(9) 0.8561(4)
C20 C 0.7338(14) 0.8456(8) 0.8126(3)
C21 C 0.8552(19) 0.7534(11) 0.8216(4)
H16 H 0.8782 0.7306 0.8564
C22 C 0.9409(19) 0.6946(11) 0.7804(4)
H17 H 1.0170 0.6300 0.7873
C23 C 0.802(2) 0.8163(13) 0.7205(4)
H18 H 0.7815 0.8382 0.6858
C24 C 0.7112(18) 0.8741(8) 0.7605(4)
H19 H 0.6304 0.9359 0.7523
Cu1_2 Cu 1.43172(17) 1.89323(10) 0.95945(4)
Cu1A Cu 0.56828(17) 1.10677(10) 1.04055(4)
Cu2_2 Cu 1.48635(17) 0.15224(10) 0.90070(4)
Cu4A Cu 1.01901(17) 0.38576(10) 0.46164(4)
Cu5_2 Cu 1.90533(18) 1.37263(10) 0.59753(4)
Cu5A Cu 1.09467(18) 0.62737(10) 0.40247(4)
Br3A Br 1.25800(15) 0.30078(9) 0.52052(4)
O9A O 0.3905(9) 0.9300(5) 1.0369(2)
O10A O 1.1776(9) 0.5638(5) 0.4692(2)
N1_2 N 0.2119(12) 0.7259(7) 0.9524(3)
N2_2 N 0.6927(14) 0.2032(8) 0.5950(3)
N3_2 N 0.3664(13) 1.2221(7) 0.8365(3)
loop_
_geom_bond_atom_site_label_1
_geom_bond_atom_site_label_2
_geom_bond_site_symmetry_1
_geom_bond_site_symmetry_2
Cu1 Br1 1_555 1_555
Cu2 Br1 1_555 1_555
Cu3 Br2 1_555 1_555
Cu4 Br3 1_555 1_555
Cu5 Br2 1_555 1_555
Br3 Cu5A 1_555 1_555
O1 Cu2 1_555 1_555
O2 Cu2 1_555 1_555
O3 Cu3 1_555 1_555
O4 Cu4 1_555 1_555
O5 Cu3 1_555 1_555
O6 Cu5 1_555 1_555
O7 Cu2 1_555 1_555
O8 Cu1 1_555 1_555
O9 Cu1 1_555 1_555
H1 O9 1_555 1_555
O10 Cu4 1_555 1_555
H2 O10 1_555 1_555
O11 Cu3 1_555 1_555
H3 O11 1_555 1_555
N1 C4 1_555 1_555
N2 C10 1_555 1_555
N3 C16 1_555 1_555
N4 Cu3 1_555 1_555
C1 O1 1_555 1_555
C2 C1 1_555 1_555
C3 C2 1_555 1_555
H4 C3 1_555 1_555
C4 C3 1_555 1_555
H5 C4 1_555 1_555
C5 N1 1_555 1_555
H6 C5 1_555 1_555
C6 C2 1_555 1_555
H7 C6 1_555 1_555
C7 O3 1_555 1_555
C8 C7 1_555 1_555
C9 C8 1_555 1_555
H8 C9 1_555 1_555
C10 C9 1_555 1_555
H9 C10 1_555 1_555
C11 N2 1_555 1_555
H10 C11 1_555 1_555
C12 C8 1_555 1_555
H11 C12 1_555 1_555
C13 O5 1_555 1_555
C14 C13 1_555 1_555
C15 C14 1_555 1_555
H12 C15 1_555 1_555
C16 C15 1_555 1_555
H13 C16 1_555 1_555
C17 N3 1_555 1_555
H14 C17 1_555 1_555
C18 C14 1_555 1_555
H15 C18 1_555 1_555
C19 O7 1_555 1_555
C20 C19 1_555 1_555
C21 C20 1_555 1_555
H16 C21 1_555 1_555
C22 N4 1_555 1_555
H17 C22 1_555 1_555
C23 N4 1_555 1_555
H18 C23 1_555 1_555
C24 C20 1_555 1_555
H19 C24 1_555 1_555
Cu1_2 N1 1_555 1_555
Cu1A O9 1_555 1_555
Cu2_2 N3 1_555 1_555
Cu4A O10 1_555 1_555
Cu5_2 N2 1_555 1_555
Cu5A O10A 1_555 1_555
Br3A Cu5 1_555 1_555
O9A Cu1 1_555 1_555
O10A Cu4 1_555 1_555
N1_2 Cu1 1_555 1_555
N2_2 Cu5 1_555 1_555
N3_2 Cu2 1_555 1_555
Cu2 O9 1_555 1_555
Cu4 O11 1_555 1_555
Cu5 O10 1_555 1_555
Cu5 O11 1_555 1_555
O2 C1 1_555 1_555
O4 C7 1_555 1_555
O6 C13 1_555 1_555
O8 C19 1_555 1_555
C5 C6 1_555 1_555
C11 C12 1_555 1_555
C17 C18 1_555 1_555
C21 C22 1_555 1_555
C23 C24 1_555 1_555
Cu1A O9A 1_555 1_555
Cu4A Br3A 1_555 1_555
Cu4A O10A 1_555 1_555

#END
