
#######################################################################
#
#                 Cambridge Crystallographic Data Centre
#                                CCDC 
#
#######################################################################
#
# If this CIF has been generated from an entry in the Cambridge 
# Structural Database, then it will include bibliographic, chemical, 
# crystal, experimental, refinement or atomic coordinate data resulting 
# from the CCDC's data processing and validation procedures.
#
#######################################################################

data_POFFEX
_symmetry_cell_setting           triclinic
_symmetry_space_group_name_H-M   'P -1'
_symmetry_Int_Tables_number      2
_space_group_name_Hall           '-P 1'
loop_
_symmetry_equiv_pos_site_id
_symmetry_equiv_pos_as_xyz
1 x,y,z
2 -x,-y,-z
_cell_length_a                   7.5825(3)
_cell_length_b                   10.5201(5)
_cell_length_c                   11.2163(5)
_cell_angle_alpha                108.0190(10)
_cell_angle_beta                 100.5900(10)
_cell_angle_gamma                105.6750(10)
_cell_volume                     783.482
loop_
_atom_site_label
_atom_site_type_symbol
_atom_site_fract_x
_atom_site_fract_y
_atom_site_fract_z
Cu1 Cu 0.30691(7) 0.13497(5) 0.12122(4)
O1 O 0.2879(4) 0.0044(3) 0.2149(3)
O2 O 0.2996(4) 0.2350(3) 0.0017(3)
N1 N 0.2440(4) 0.3966(3) -0.3742(3)
O3 O 0.2065(4) -0.1916(3) 0.0347(3)
N2 N 0.2615(4) -0.3758(3) 0.3951(3)
O4 O 0.5645(4) 0.1411(3) 0.1208(2)
H1 H 0.5921 0.0822 0.1523
H2 H 0.6438 0.2253 0.1680
O5 O 0.2979(6) 0.0513(3) -0.1663(3)
O6 O 0.0507(4) 0.1344(3) 0.1260(3)
H3 H -0.0194 0.0523 0.1201
H4 H -0.0010 0.1525 0.0614
C1 C 0.2757(6) 0.4632(4) -0.2448(4)
H5 H 0.2908 0.5594 -0.2119
C2 C 0.2984(5) -0.2348(4) 0.4490(4)
H6 H 0.3278 -0.1914 0.5395
C3 C 0.2550(5) -0.2139(4) 0.2411(3)
C4 C 0.2201(6) 0.2580(4) -0.4202(4)
H7 H 0.1931 0.2103 -0.5100
C5 C 0.2942(5) -0.1518(4) 0.3750(4)
H8 H 0.3176 -0.0548 0.4153
C6 C 0.2248(5) -0.4351(4) 0.2647(4)
H9 H 0.2015 -0.5324 0.2263
C7 C 0.2337(6) 0.1830(4) -0.3399(4)
H10 H 0.2199 0.0872 -0.3751
C8 C 0.2487(5) -0.1277(4) 0.1554(4)
C9 C 0.2680(5) 0.2509(4) -0.2066(4)
C10 C 0.2867(6) 0.3938(4) -0.1591(4)
H11 H 0.3065 0.4424 -0.0703
C11 C 0.2889(5) 0.1712(4) -0.1171(4)
C12 C 0.2202(6) -0.3585(4) 0.1853(4)
H12 H 0.1940 -0.4035 0.0951
Cu2 Cu 0.25034(6) 0.50655(5) -0.49262(4)
Cl1 Cl 0.55779(13) 0.65469(9) -0.36047(8)
Cl2 Cl -0.03949(13) 0.34205(10) -0.63470(9)
Cu1A Cu 0.69309(7) 0.86503(5) -0.12122(4)
N2_2 N 0.2615(4) 0.6242(3) -0.6049(3)
Cu2_2 Cu 0.25034(6) -0.49345(5) 0.50738(4)
Cu2A Cu -0.25034(6) 0.49345(5) -0.50738(4)
Cu2A_2 Cu 0.74966(6) 0.49345(5) -0.50738(4)
Cl1A Cl 0.44221(13) 0.34531(9) -0.63953(8)
Cl1A_2 Cl 0.44221(13) 0.34531(9) 0.36047(8)
Cl2A Cl 0.03949(13) 0.65795(10) -0.36530(9)
loop_
_geom_bond_atom_site_label_1
_geom_bond_atom_site_label_2
_geom_bond_site_symmetry_1
_geom_bond_site_symmetry_2
Cu1 O1 1_555 1_555
O1 C8 1_555 1_555
O2 Cu1 1_555 1_555
N1 C1 1_555 1_555
O3 C8 1_555 1_555
N2 C2 1_555 1_555
O4 Cu1 1_555 1_555
H1 O4 1_555 1_555
H2 O4 1_555 1_555
O5 C11 1_555 1_555
O6 Cu1 1_555 1_555
H3 O6 1_555 1_555
H4 O6 1_555 1_555
C1 H5 1_555 1_555
C2 H6 1_555 1_555
C3 C5 1_555 1_555
C4 N1 1_555 1_555
H7 C4 1_555 1_555
C5 C2 1_555 1_555
H8 C5 1_555 1_555
C6 N2 1_555 1_555
H9 C6 1_555 1_555
C7 C4 1_555 1_555
H10 C7 1_555 1_555
C8 C3 1_555 1_555
C9 C7 1_555 1_555
C10 C1 1_555 1_555
H11 C10 1_555 1_555
C11 O2 1_555 1_555
C12 C3 1_555 1_555
H12 C12 1_555 1_555
Cu2 N1 1_555 1_555
Cl1 Cu2 1_555 1_555
Cl2 Cu2 1_555 1_555
Cu1A Cl1 1_555 1_555
N2_2 Cu2 1_555 1_555
Cu2_2 N2 1_555 1_555
Cu2A Cl2 1_555 1_555
Cu2A_2 Cl1 1_555 1_555
Cl1A Cu2 1_555 1_555
Cl1A_2 Cu1 1_555 1_555
Cl2A Cu2 1_555 1_555
C6 C12 1_555 1_555
C9 C10 1_555 1_555
C9 C11 1_555 1_555
Cu2A Cl2A 1_555 1_555
Cu2A_2 Cl1A 1_555 1_555

#END
