
#######################################################################
#
#                 Cambridge Crystallographic Data Centre
#                                CCDC 
#
#######################################################################
#
# If this CIF has been generated from an entry in the Cambridge 
# Structural Database, then it will include bibliographic, chemical, 
# crystal, experimental, refinement or atomic coordinate data resulting 
# from the CCDC's data processing and validation procedures.
#
#######################################################################

data_POFFAT
_symmetry_cell_setting           monoclinic
_symmetry_space_group_name_H-M   'P 21/c'
_symmetry_Int_Tables_number      14
_space_group_name_Hall           '-P 2ybc'
loop_
_symmetry_equiv_pos_site_id
_symmetry_equiv_pos_as_xyz
1 x,y,z
2 -x,1/2+y,1/2-z
3 -x,-y,-z
4 x,1/2-y,1/2+z
_cell_length_a                   9.693(9)
_cell_length_b                   13.192(13)
_cell_length_c                   7.432(7)
_cell_angle_alpha                90
_cell_angle_beta                 105.632(16)
_cell_angle_gamma                90
_cell_volume                     915.18
loop_
_atom_site_label
_atom_site_type_symbol
_atom_site_fract_x
_atom_site_fract_y
_atom_site_fract_z
Cu1 Cu 0.18946(4) 0.66701(3) 0.25567(5)
Cu2 Cu 0.0000 0.5000 0.0000
Br1 Br 0.04186(3) 0.78132(3) 0.38708(5)
N1 N 0.6543(3) 0.2704(2) 0.2079(4)
O1 O 0.1952(2) 0.45755(19) 0.0182(3)
O2 O 0.3337(2) 0.56546(18) 0.2235(4)
O3 O 0.0577(2) 0.55803(17) 0.2471(3)
H1 H 0.0260 0.5361 0.3480
C1 C 0.6802(3) 0.3667(3) 0.2690(5)
H2 H 0.7741 0.3856 0.3270
C2 C 0.5732(3) 0.4382(3) 0.2490(5)
H3 H 0.5941 0.5033 0.2968
C3 C 0.4338(3) 0.4113(2) 0.1562(4)
C4 C 0.4072(4) 0.3140(3) 0.0876(5)
H4 H 0.3152 0.2947 0.0218
C5 C 0.5186(4) 0.2459(3) 0.1178(5)
H5 H 0.4991 0.1800 0.0738
C6 C 0.3101(3) 0.4846(3) 0.1318(5)
Cu1B Cu -0.18946(4) 0.33299(3) -0.25567(5)
Br1B Br -0.04186(3) 0.21868(3) -0.38708(5)
N1B N -0.6543(3) 0.7296(2) -0.2079(4)
O1B O -0.1952(2) 0.54245(19) -0.0182(3)
O2B O -0.3337(2) 0.43454(18) -0.2235(4)
O3B O -0.0577(2) 0.44197(17) -0.2471(3)
H1B H -0.0260 0.4639 -0.3480
C1B C -0.6802(3) 0.6333(3) -0.2690(5)
H2B H -0.7741 0.6144 -0.3270
C2B C -0.5732(3) 0.5618(3) -0.2490(5)
H3B H -0.5941 0.4967 -0.2968
C3B C -0.4338(3) 0.5887(2) -0.1562(4)
C4B C -0.4072(4) 0.6860(3) -0.0876(5)
H4B H -0.3152 0.7053 -0.0218
C5B C -0.5186(4) 0.7541(3) -0.1178(5)
H5B H -0.4991 0.8200 -0.0738
C6B C -0.3101(3) 0.5154(3) -0.1318(5)
Cu1A Cu -0.18946(4) 0.16701(3) -0.75567(5)
Cu1A_2 Cu 0.81054(4) 0.16701(3) 0.24433(5)
Cu1C Cu -0.81054(4) 0.83299(3) -0.24433(5)
Cu1C_2 Cu 0.18946(4) 0.83299(3) 0.75567(5)
Cu2A Cu 0.0000 0.0000 -0.5000
Cu2A_2 Cu 0.0000 1.0000 0.5000
Br1A Br -0.04186(3) 0.28132(3) 0.11292(5)
Br1C Br 0.04186(3) 0.71868(3) -0.11292(5)
N1A N 0.3457(3) 0.7704(2) 0.2921(4)
N1C N -0.3457(3) 0.2296(2) -0.2921(4)
O4 O 0.1731(4) 0.4112(3) 0.5284(5)
loop_
_geom_bond_atom_site_label_1
_geom_bond_atom_site_label_2
_geom_bond_site_symmetry_1
_geom_bond_site_symmetry_2
Cu1 Br1 1_555 1_555
Cu2 O1 1_555 1_555
Br1 Cu1C_2 1_555 1_555
N1 C1 1_555 1_555
O1 C6 1_555 1_555
O2 Cu1 1_555 1_555
O3 Cu1 1_555 1_555
H1 O3 1_555 1_555
C1 H2 1_555 1_555
C2 C1 1_555 1_555
H3 C2 1_555 1_555
C3 C2 1_555 1_555
C4 C3 1_555 1_555
H4 C4 1_555 1_555
C5 N1 1_555 1_555
H5 C5 1_555 1_555
C6 O2 1_555 1_555
Cu1B Br1B 1_555 1_555
Br1B Cu1A 1_555 1_555
N1B C1B 1_555 1_555
O1B Cu2 1_555 1_555
O2B Cu1B 1_555 1_555
O3B Cu2 1_555 1_555
H1B O3B 1_555 1_555
C1B H2B 1_555 1_555
C2B C1B 1_555 1_555
H3B C2B 1_555 1_555
C3B C2B 1_555 1_555
C4B C3B 1_555 1_555
H4B C4B 1_555 1_555
C5B N1B 1_555 1_555
H5B C5B 1_555 1_555
C6B O1B 1_555 1_555
Cu1A_2 N1 1_555 1_555
Cu1C N1B 1_555 1_555
Cu2A Br1B 1_555 1_555
Cu2A_2 Br1 1_555 1_555
Br1A Cu2 1_555 1_555
Br1C Cu1 1_555 1_555
N1A Cu1 1_555 1_555
N1C Cu1B 1_555 1_555
Cu2 O3 1_555 1_555
Cu2 Br1C 1_555 1_555
C3 C6 1_555 1_555
C4 C5 1_555 1_555
Cu1B O3B 1_555 1_555
Cu1B Br1A 1_555 1_555
O2B C6B 1_555 1_555
C3B C6B 1_555 1_555
C4B C5B 1_555 1_555

#END
