
#######################################################################
#
#                 Cambridge Crystallographic Data Centre
#                                CCDC 
#
#######################################################################
#
# If this CIF has been generated from an entry in the Cambridge 
# Structural Database, then it will include bibliographic, chemical, 
# crystal, experimental, refinement or atomic coordinate data resulting 
# from the CCDC's data processing and validation procedures.
#
#######################################################################

data_POFHEY
_symmetry_cell_setting           triclinic
_symmetry_space_group_name_H-M   'P -1'
_symmetry_Int_Tables_number      2
_space_group_name_Hall           '-P 1'
loop_
_symmetry_equiv_pos_site_id
_symmetry_equiv_pos_as_xyz
1 x,y,z
2 -x,-y,-z
_cell_length_a                   7.2012(10)
_cell_length_b                   10.095(2)
_cell_length_c                   11.581(2)
_cell_angle_alpha                69.15(2)
_cell_angle_beta                 89.73(2)
_cell_angle_gamma                89.95(2)
_cell_volume                     786.754
loop_
_atom_site_label
_atom_site_type_symbol
_atom_site_fract_x
_atom_site_fract_y
_atom_site_fract_z
Cu1 Cu 0.72893(13) 0.60509(7) 0.61951(6)
C1 C 0.7556(9) 0.9968(6) 0.1737(5)
C2 C 0.7606(11) 1.1062(6) 0.2212(6)
H1 H 0.7675 1.2001 0.1682
C3 C 0.7551(10) 1.0737(7) 0.3470(6)
H2 H 0.7594 1.1475 0.3772
C4 C 0.7434(8) 0.9336(6) 0.4323(5)
C5 C 0.7281(8) 0.8240(6) 0.3825(5)
C6 C 0.7387(9) 0.8620(6) 0.2511(6)
H3 H 0.7337 0.7905 0.2181
C7 C 0.7388(8) 0.9117(6) 0.5646(5)
C8 C 0.7516(10) 1.0377(7) 0.6051(6)
H4 H 0.6518 1.0342 0.6614
H5 H 0.7428 1.1235 0.5342
H6 H 0.8682 1.0357 0.6455
C9 C 0.7303(11) 0.7615(7) 0.7821(5)
H7 H 0.6546 0.8307 0.8011
H8 H 0.8577 0.7716 0.8046
C10 C 0.6598(11) 0.6117(8) 0.8535(6)
H9 H 0.6895 0.5850 0.9404
H10 H 0.5260 0.6079 0.8456
C11 C 0.6772(13) 0.3710(8) 0.8405(7)
H11 H 0.5426 0.3719 0.8441
H12 H 0.7233 0.3152 0.9219
C12 C 0.7406(11) 0.3068(7) 0.7474(6)
H13 H 0.8729 0.2881 0.7557
H14 H 0.6766 0.2177 0.7620
N1 N 0.7187(7) 0.7844(5) 0.6477(4)
N2 N 0.7485(8) 0.5147(5) 0.8029(4)
H15 H 0.871(2) 0.517(7) 0.816(6)
N3 N 1.2005(9) 0.5570(6) 0.6866(6)
N4 N 0.6991(8) 0.4070(5) 0.6214(5)
H16 H 0.5822 0.3937 0.6006
H17 H 0.7773 0.3921 0.5664
O1 O 0.7593(8) 1.0387(5) 0.0493(4)
O2 O 0.7129(9) 0.6914(4) 0.4468(4)
O3 O 1.0805(9) 0.5939(7) 0.6146(6)
O4 O 1.3604(9) 0.5871(7) 0.6519(7)
O5 O 1.1656(9) 0.4935(8) 0.7984(6)
C13 C 0.7476(17) 0.9303(8) -0.0054(6)
H18 H 0.8518 0.8674 0.0206
H19 H 0.7488 0.9741 -0.0938
H20 H 0.6346 0.8776 0.0207
Cu1_2 Cu 1.72893(13) 0.60509(7) 0.61951(6)
O4_2 O 0.3604(9) 0.5871(7) 0.6519(7)
loop_
_geom_bond_atom_site_label_1
_geom_bond_atom_site_label_2
_geom_bond_site_symmetry_1
_geom_bond_site_symmetry_2
Cu1 N1 1_555 1_555
C1 C2 1_555 1_555
C2 H1 1_555 1_555
C3 C2 1_555 1_555
H2 C3 1_555 1_555
C4 C3 1_555 1_555
C5 C4 1_555 1_555
C6 C1 1_555 1_555
H3 C6 1_555 1_555
C7 C4 1_555 1_555
C8 C7 1_555 1_555
H4 C8 1_555 1_555
H5 C8 1_555 1_555
H6 C8 1_555 1_555
C9 H7 1_555 1_555
H8 C9 1_555 1_555
C10 C9 1_555 1_555
H9 C10 1_555 1_555
H10 C10 1_555 1_555
C11 H11 1_555 1_555
H12 C11 1_555 1_555
C12 C11 1_555 1_555
H13 C12 1_555 1_555
H14 C12 1_555 1_555
N1 C7 1_555 1_555
N2 Cu1 1_555 1_555
H15 N2 1_555 1_555
N3 O3 1_555 1_555
N4 Cu1 1_555 1_555
H16 N4 1_555 1_555
H17 N4 1_555 1_555
O1 C1 1_555 1_555
O2 Cu1 1_555 1_555
O3 Cu1 1_555 1_555
O4 N3 1_555 1_555
O5 N3 1_555 1_555
C13 O1 1_555 1_555
H18 C13 1_555 1_555
H19 C13 1_555 1_555
H20 C13 1_555 1_555
Cu1_2 O4 1_555 1_555
O4_2 Cu1 1_555 1_555
C5 C6 1_555 1_555
C5 O2 1_555 1_555
C9 N1 1_555 1_555
C10 N2 1_555 1_555
C11 N2 1_555 1_555
C12 N4 1_555 1_555

#END
