
#######################################################################
#
#                 Cambridge Crystallographic Data Centre
#                                CCDC 
#
#######################################################################
#
# If this CIF has been generated from an entry in the Cambridge 
# Structural Database, then it will include bibliographic, chemical, 
# crystal, experimental, refinement or atomic coordinate data resulting 
# from the CCDC's data processing and validation procedures.
#
#######################################################################

data_POFJOK
_symmetry_cell_setting           monoclinic
_symmetry_space_group_name_H-M   'C 2'
_symmetry_Int_Tables_number      5
_space_group_name_Hall           'C 2y'
loop_
_symmetry_equiv_pos_site_id
_symmetry_equiv_pos_as_xyz
1 x,y,z
2 -x,y,-z
3 1/2+x,1/2+y,z
4 1/2-x,1/2+y,-z
_cell_length_a                   10.9466(16)
_cell_length_b                   9.8135(14)
_cell_length_c                   11.3913(17)
_cell_angle_alpha                90
_cell_angle_beta                 100.187(3)
_cell_angle_gamma                90
_cell_volume                     1204.41
loop_
_atom_site_label
_atom_site_type_symbol
_atom_site_fract_x
_atom_site_fract_y
_atom_site_fract_z
I1 I 0.31728(8) 0.46912(8) 1.05780(7)
Zn1 Zn 0.0000 0.52673(14) 0.5000
Zn2 Zn 0.0000 0.94976(18) 0.5000
O1 O 0.1541(6) 0.6253(7) 0.5567(6)
O2 O 0.1099(7) 0.8284(7) 0.6272(6)
O3 O 0.3711(6) 0.8475(7) 0.5451(6)
O4 O 0.4839(6) 0.9757(8) 0.6747(6)
O5 O -0.1277(5) 0.9419(7) 0.6112(5)
H1 H -0.2029 0.9518 0.5787
H2 H -0.1254 0.8743 0.6577
O6 O 0.1005(8) 1.1179(7) 0.5892(7)
H3 H 0.1232 1.1982 0.5746
H4 H 0.1538 1.0920 0.6488
C1 C 0.1734(8) 0.7220(12) 0.6301(8)
C2 C 0.4137(9) 0.8752(11) 0.6505(9)
C3 C 0.3828(10) 0.7879(9) 0.7465(9)
C4 C 0.2774(9) 0.7090(10) 0.7331(8)
C5 C 0.2594(9) 0.6187(9) 0.8224(9)
H7 H 0.1881 0.5652 0.8124
C6 C 0.3468(9) 0.6073(9) 0.9266(8)
C7 C 0.4536(8) 0.6899(9) 0.9425(7)
C8 C 0.4700(9) 0.7767(9) 0.8536(9)
H8 H 0.5411 0.8305 0.8636
I1A I 0.68272(8) 0.46912(8) 0.94220(7)
Zn1B Zn 0.5000 1.02673(14) 0.5000
Zn1_2 Zn 1.0000 0.52673(14) 1.5000
Zn1B_2 Zn 0.5000 1.02673(14) 1.5000
Zn2_2 Zn 1.0000 0.94976(18) 1.5000
O1A O 0.8459(6) 0.6253(7) 1.4433(6)
O1A_2 O -0.1541(6) 0.6253(7) 0.4433(6)
O2A O 0.8901(7) 0.8284(7) 1.3728(6)
O2A_2 O -0.1099(7) 0.8284(7) 0.3728(6)
O3A O 0.6289(6) 0.8475(7) 1.4549(6)
O3B O -0.1289(6) 0.3475(7) 0.5451(6)
O3C O 0.1289(6) 0.3475(7) 0.4549(6)
O4A O 0.5161(6) 0.9757(8) 1.3253(6)
O4B O -0.0161(6) 0.4757(8) 0.6747(6)
O4C O 0.0161(6) 0.4757(8) 0.3253(6)
O5A O 0.1277(5) 0.9419(7) 0.3888(5)
H1A H 0.2029 0.9518 0.4213
H2A H 0.1254 0.8743 0.3423
O6A O -0.1005(8) 1.1179(7) 0.4108(7)
H3A H -0.1232 1.1982 0.4254
H4A H -0.1538 1.0920 0.3512
C1A C 0.8266(8) 0.7220(12) 1.3699(8)
C2A C 0.5863(9) 0.8752(11) 1.3495(9)
C3A C 0.6172(10) 0.7879(9) 1.2535(9)
C4A C 0.7226(9) 0.7090(10) 1.2669(8)
C5A C 0.7406(9) 0.6187(9) 1.1776(9)
H7A H 0.8119 0.5652 1.1876
C6A C 0.6532(9) 0.6073(9) 1.0734(8)
C7A C 0.5464(8) 0.6899(9) 1.0575(7)
C8A C 0.5300(9) 0.7767(9) 1.1464(9)
H8A H 0.4589 0.8305 1.1364
O7 O 0.3492(12) 1.2077(15) 0.7470(11)
H5 H 0.3346 1.2367 0.8145
H6 H 0.4010 1.1431 0.7670
loop_
_geom_bond_atom_site_label_1
_geom_bond_atom_site_label_2
_geom_bond_site_symmetry_1
_geom_bond_site_symmetry_2
I1 C6 1_555 1_555
Zn1 O1 1_555 1_555
Zn2 O2 1_555 1_555
O1 C1 1_555 1_555
O2 C1 1_555 1_555
O3 C2 1_555 1_555
O4 C2 1_555 1_555
O5 Zn2 1_555 1_555
H1 O5 1_555 1_555
H2 O5 1_555 1_555
O6 Zn2 1_555 1_555
H3 O6 1_555 1_555
H4 O6 1_555 1_555
O7 H5 1_555 1_555
H6 O7 1_555 1_555
C1 C4 1_555 1_555
C2 C3 1_555 1_555
C3 C4 1_555 1_555
C4 C5 1_555 1_555
C5 H7 1_555 1_555
C6 C5 1_555 1_555
C7 C6 1_555 1_555
C8 C3 1_555 1_555
H8 C8 1_555 1_555
I1A C6A 1_555 1_555
Zn1B O3 1_555 1_555
Zn1_2 O1A 1_555 1_555
Zn1B_2 O3A 1_555 1_555
Zn2_2 O2A 1_555 1_555
O1A C1A 1_555 1_555
O1A_2 Zn1 1_555 1_555
O2A C1A 1_555 1_555
O2A_2 Zn2 1_555 1_555
O3A C2A 1_555 1_555
O3B Zn1 1_555 1_555
O3C Zn1 1_555 1_555
O4A Zn1B_2 1_555 1_555
O4B Zn1 1_555 1_555
O4C Zn1 1_555 1_555
O5A Zn2 1_555 1_555
H1A O5A 1_555 1_555
H2A O5A 1_555 1_555
O6A Zn2 1_555 1_555
H3A O6A 1_555 1_555
H4A O6A 1_555 1_555
C1A C4A 1_555 1_555
C2A O4A 1_555 1_555
C3A C2A 1_555 1_555
C4A C3A 1_555 1_555
C5A C4A 1_555 1_555
H7A C5A 1_555 1_555
C6A C5A 1_555 1_555
C7A C7 1_555 1_555
C8A C3A 1_555 1_555
H8A C8A 1_555 1_555
O4 Zn1B 1_555 1_555
C7 C8 1_555 1_555
C6A C7A 1_555 1_555
C7A C8A 1_555 1_555

#END
