
#######################################################################
#
#                 Cambridge Crystallographic Data Centre
#                                CCDC 
#
#######################################################################
#
# If this CIF has been generated from an entry in the Cambridge 
# Structural Database, then it will include bibliographic, chemical, 
# crystal, experimental, refinement or atomic coordinate data resulting 
# from the CCDC's data processing and validation procedures.
#
#######################################################################

data_POFJIE
_symmetry_cell_setting           triclinic
_symmetry_space_group_name_H-M   'P -1'
_symmetry_Int_Tables_number      2
_space_group_name_Hall           '-P 1'
loop_
_symmetry_equiv_pos_site_id
_symmetry_equiv_pos_as_xyz
1 x,y,z
2 -x,-y,-z
_cell_length_a                   10.023(2)
_cell_length_b                   11.708(2)
_cell_length_c                   16.219(3)
_cell_angle_alpha                97.22(3)
_cell_angle_beta                 107.05(3)
_cell_angle_gamma                105.00(3)
_cell_volume                     1715.25
loop_
_atom_site_label
_atom_site_type_symbol
_atom_site_fract_x
_atom_site_fract_y
_atom_site_fract_z
Cu1 Cu 0.90729(5) 0.04270(4) 0.21869(3)
C1 C 0.6975(4) 0.0019(4) 0.3152(3)
C2 C 0.7856(4) -0.0629(3) 0.3706(3)
C3 C 0.9119(4) -0.0878(3) 0.3593(3)
C4 C 0.9788(4) -0.1560(3) 0.4170(3)
C5 C 1.0984(5) -0.1904(4) 0.4073(3)
H1 H 1.1368 -0.1669 0.3642
C6 C 1.1580(5) -0.2569(5) 0.4601(3)
C7 C 1.1120(5) -0.2918(4) 0.5307(3)
C8 C 0.9952(5) -0.2557(4) 0.5407(3)
H2 H 0.9617 -0.2748 0.5866
C9 C 0.9262(4) -0.1917(4) 0.4842(3)
C10 C 0.7405(4) -0.1000(4) 0.4376(3)
H3 H 0.6590 -0.0819 0.4448
C11 C 0.7415(5) -0.1957(5) 0.5614(3)
H4 H 0.6805 -0.1459 0.5693
H5 H 0.8203 -0.1801 0.6172
C12 C 0.6511(7) -0.3266(6) 0.5376(5)
H6 H 0.5717 -0.3422 0.4830
H7 H 0.6122 -0.3452 0.5835
H8 H 0.7115 -0.3763 0.5309
C13 C 1.3388(5) -0.3119(5) 0.6269(4)
H9 H 1.3626 -0.2425 0.6742
H10 H 1.3845 -0.2851 0.5847
C14 C 1.3980(6) -0.4084(5) 0.6642(3)
H11 H 1.3819 -0.4739 0.6157
H12 H 1.5031 -0.3738 0.6944
C15 C 1.1717(6) -0.5018(5) 0.6819(4)
H13 H 1.1267 -0.5291 0.7244
H14 H 1.1474 -0.5715 0.6348
C16 C 1.1055(6) -0.4098(4) 0.6437(3)
H15 H 1.0011 -0.4476 0.6124
H16 H 1.1180 -0.3442 0.6910
C17 C 1.1846(4) -0.8328(4) 0.1965(3)
C18 C 1.1248(4) -0.7318(3) 0.1721(2)
C19 C 0.9742(4) -0.7387(3) 0.1532(3)
C20 C 0.9356(4) -0.6355(3) 0.1262(3)
C21 C 0.7879(4) -0.6387(3) 0.1007(3)
H17 H 0.7149 -0.7088 0.0973
C22 C 0.7527(4) -0.5390(3) 0.0811(3)
C23 C 0.8575(4) -0.4268(3) 0.0900(3)
C24 C 1.0026(4) -0.4252(3) 0.1113(3)
H18 H 1.0749 -0.3544 0.1152
C25 C 1.0414(4) -0.5297(3) 0.1269(3)
C26 C 1.2212(4) -0.6288(4) 0.1661(3)
H19 H 1.3180 -0.6274 0.1767
C27 C 1.3780(7) -0.3450(5) 0.2444(5)
H20 H 1.3050 -0.3191 0.2618
H21 H 1.4552 -0.2753 0.2459
H22 H 1.4179 -0.3912 0.2844
C28 C 1.3088(5) -0.4225(4) 0.1518(4)
H23 H 1.2717 -0.3748 0.1112
H24 H 1.3826 -0.4489 0.1344
C29 C 0.7251(5) -0.2919(4) 0.1276(3)
H25 H 0.7885 -0.2576 0.1885
H26 H 0.6495 -0.3638 0.1265
C30 C 0.6551(5) -0.2013(4) 0.0915(4)
H27 H 0.5873 -0.2373 0.0317
H28 H 0.6001 -0.1788 0.1275
C31 C 0.8498(5) -0.1280(4) 0.0359(3)
H29 H 0.9240 -0.0570 0.0344
H30 H 0.7829 -0.1640 -0.0240
C32 C 0.9225(5) -0.2182(3) 0.0719(3)
H31 H 0.9756 -0.2411 0.0348
H32 H 0.9923 -0.1812 0.1310
F1 F 1.2644(4) -0.2977(4) 0.4433(2)
F2 F 0.6077(2) -0.5476(2) 0.05141(19)
N1 N 0.8050(4) -0.1605(3) 0.4935(2)
N2 N 1.1767(4) -0.3611(4) 0.5827(3)
N3 N 1.3301(5) -0.4575(4) 0.7252(3)
H33 H 1.3751(17) -0.441(4) 0.7842(7)
N4 N 1.1867(3) -0.5301(3) 0.1462(2)
N5 N 0.8124(4) -0.3257(3) 0.0745(2)
N6 N 0.7690(4) -0.0919(3) 0.0911(2)
H34 H 0.723(3) -0.0253(16) 0.069(3)
O1 O 0.7412(3) 0.0469(3) 0.2558(2)
O2 O 0.5865(4) 0.0120(4) 0.3291(3)
O3 O 0.9694(3) -0.0539(3) 0.3021(2)
O4 O 1.1027(3) -0.9254(2) 0.2105(2)
O5 O 0.8753(3) -0.8258(2) 0.1603(2)
O6 O 1.3139(3) -0.8204(3) 0.2032(3)
Cu1_2 Cu 0.90729(5) -0.95730(4) 0.21869(3)
O4_2 O 1.1027(3) 0.0746(2) 0.2105(2)
O5_2 O 0.8753(3) 0.1742(2) 0.1603(2)
O7 O 0.2803(6) 0.9249(5) 0.2713(5)
H35 H 0.309(13) 0.974(7) 0.319(4)
H36 H 0.240(11) 0.855(3) 0.274(6)
O8 O 0.5350(6) 0.1403(7) 0.1444(4)
H37 H 0.472(9) 0.069(4) 0.138(8)
H38 H 0.615(5) 0.143(8) 0.180(6)
O9 O 0.2705(8) 0.8303(7) 0.0935(7)
H39 H 0.351(6) 0.819(10) 0.100(9)
H40 H 0.265(11) 0.888(6) 0.062(8)
O10? O 0.4376(13) 0.9606(8) 0.0102(6)
H41? H 0.365(9) 0.903(8) 0.006(7)
H42? H 0.473(12) 1.008(9) 0.059(4)
loop_
_geom_bond_atom_site_label_1
_geom_bond_atom_site_label_2
_geom_bond_site_symmetry_1
_geom_bond_site_symmetry_2
Cu1 N6 1_555 1_555
C1 C2 1_555 1_555
C2 C3 1_555 1_555
C3 C4 1_555 1_555
C4 C5 1_555 1_555
C5 H1 1_555 1_555
C6 C5 1_555 1_555
C7 C6 1_555 1_555
C8 C7 1_555 1_555
H2 C8 1_555 1_555
C9 C4 1_555 1_555
C10 C2 1_555 1_555
H3 C10 1_555 1_555
C11 H4 1_555 1_555
H5 C11 1_555 1_555
C12 C11 1_555 1_555
H6 C12 1_555 1_555
H7 C12 1_555 1_555
H8 C12 1_555 1_555
C13 H9 1_555 1_555
H10 C13 1_555 1_555
C14 C13 1_555 1_555
H11 C14 1_555 1_555
H12 C14 1_555 1_555
C15 H13 1_555 1_555
H14 C15 1_555 1_555
C16 C15 1_555 1_555
H15 C16 1_555 1_555
H16 C16 1_555 1_555
C17 C18 1_555 1_555
C18 C19 1_555 1_555
C19 C20 1_555 1_555
C20 C21 1_555 1_555
C21 H17 1_555 1_555
C22 C21 1_555 1_555
C23 C22 1_555 1_555
C24 C23 1_555 1_555
H18 C24 1_555 1_555
C25 C20 1_555 1_555
C26 C18 1_555 1_555
H19 C26 1_555 1_555
C27 H20 1_555 1_555
H21 C27 1_555 1_555
H22 C27 1_555 1_555
C28 C27 1_555 1_555
H23 C28 1_555 1_555
H24 C28 1_555 1_555
C29 H25 1_555 1_555
H26 C29 1_555 1_555
C30 C29 1_555 1_555
H27 C30 1_555 1_555
H28 C30 1_555 1_555
C31 H29 1_555 1_555
H30 C31 1_555 1_555
C32 C31 1_555 1_555
H31 C32 1_555 1_555
H32 C32 1_555 1_555
F1 C6 1_555 1_555
F2 C22 1_555 1_555
N1 C9 1_555 1_555
N2 C7 1_555 1_555
N3 C14 1_555 1_555
H33 N3 1_555 1_555
N4 C25 1_555 1_555
N5 C23 1_555 1_555
N6 C30 1_555 1_555
H34 N6 1_555 1_555
O1 Cu1 1_555 1_555
O2 C1 1_555 1_555
O3 Cu1 1_555 1_555
O4 C17 1_555 1_555
O5 C19 1_555 1_555
O6 C17 1_555 1_555
O7 H35 1_555 1_555
H36 O7 1_555 1_555
O8 H37 1_555 1_555
H38 O8 1_555 1_555
O9 H39 1_555 1_555
H40 O9 1_555 1_555
Cu1_2 O4 1_555 1_555
O4_2 Cu1 1_555 1_555
O5_2 Cu1 1_555 1_555
C1 O1 1_555 1_555
C3 O3 1_555 1_555
C8 C9 1_555 1_555
C10 N1 1_555 1_555
C11 N1 1_555 1_555
C13 N2 1_555 1_555
C15 N3 1_555 1_555
C16 N2 1_555 1_555
C24 C25 1_555 1_555
C26 N4 1_555 1_555
C28 N4 1_555 1_555
C29 N5 1_555 1_555
C31 N6 1_555 1_555
C32 N5 1_555 1_555
O5 Cu1_2 1_555 1_555

#END
