
#######################################################################
#
#                 Cambridge Crystallographic Data Centre
#                                CCDC 
#
#######################################################################
#
# If this CIF has been generated from an entry in the Cambridge 
# Structural Database, then it will include bibliographic, chemical, 
# crystal, experimental, refinement or atomic coordinate data resulting 
# from the CCDC's data processing and validation procedures.
#
#######################################################################

data_POFKUS
_symmetry_cell_setting           monoclinic
_symmetry_space_group_name_H-M   'P 21/n'
_symmetry_Int_Tables_number      14
_space_group_name_Hall           '-P 2yn'
loop_
_symmetry_equiv_pos_site_id
_symmetry_equiv_pos_as_xyz
1 x,y,z
2 1/2-x,1/2+y,1/2-z
3 -x,-y,-z
4 1/2+x,1/2-y,1/2+z
_cell_length_a                   10.9978(6)
_cell_length_b                   10.5081(6)
_cell_length_c                   12.7559(7)
_cell_angle_alpha                90
_cell_angle_beta                 108.9760(10)
_cell_angle_gamma                90
_cell_volume                     1394.04
loop_
_atom_site_label
_atom_site_type_symbol
_atom_site_fract_x
_atom_site_fract_y
_atom_site_fract_z
Ag1 Ag 0.47207(2) 0.61822(2) 0.412386(18)
N1 N 0.5497(2) 0.4784(2) 0.33275(19)
N2 N 0.4485(3) 0.2196(3) 0.1313(2)
H1 H 0.4838 0.1727 0.0917
N3 N 0.0973(2) 0.2683(2) 0.01010(19)
C1 C 0.4751(3) 0.3971(3) 0.2586(2)
H2 H 0.3845 0.4021 0.2417
C2 C 0.5256(3) 0.3050(3) 0.2052(2)
C3 C 0.6588(3) 0.3014(3) 0.2305(3)
H3 H 0.6972 0.2408 0.1956
C4 C 0.7343(3) 0.3859(3) 0.3062(3)
H4 H 0.8252 0.3839 0.3242
C5 C 0.6775(3) 0.4734(3) 0.3559(2)
H5 H 0.7303 0.5317 0.4079
C6 C 0.3137(3) 0.2022(3) 0.1148(3)
H6 H 0.3001 0.2103 0.1876
H7 H 0.2896 0.1144 0.0880
C7 C 0.2236(3) 0.2940(3) 0.0343(2)
C8 C 0.2648(4) 0.3970(3) -0.0121(3)
H8 H 0.3541 0.4145 0.0060
C9 C 0.1750(4) 0.4743(3) -0.0851(3)
H9 H 0.2021 0.5462 -0.1169
C10 C 0.0460(4) 0.4471(3) -0.1120(3)
H10 H -0.0172 0.4982 -0.1630
C11 C 0.0118(3) 0.3428(3) -0.0620(3)
H11 H -0.0770 0.3231 -0.0797
Ag1A Ag 0.02793(2) 0.11822(2) 0.087614(18)
N3A N 0.4027(2) 0.7683(2) 0.48990(19)
P1 P 0.37249(7) 0.77956(8) 0.11683(7)
F1 F 0.4915(2) 0.7903(2) 0.22735(18)
F2 F 0.4462(3) 0.6767(2) 0.0700(2)
F3 F 0.31392(19) 0.66683(19) 0.17158(17)
F4 F 0.2950(3) 0.8808(2) 0.1620(3)
F5 F 0.43037(19) 0.89076(19) 0.06094(19)
F6 F 0.2517(2) 0.7676(2) 0.00672(18)
loop_
_geom_bond_atom_site_label_1
_geom_bond_atom_site_label_2
_geom_bond_site_symmetry_1
_geom_bond_site_symmetry_2
Ag1 N1 1_555 1_555
N1 C1 1_555 1_555
N2 H1 1_555 1_555
N3 C7 1_555 1_555
C1 H2 1_555 1_555
C2 N2 1_555 1_555
C3 C2 1_555 1_555
H3 C3 1_555 1_555
C4 C3 1_555 1_555
H4 C4 1_555 1_555
C5 N1 1_555 1_555
H5 C5 1_555 1_555
C6 N2 1_555 1_555
H6 C6 1_555 1_555
H7 C6 1_555 1_555
C7 C6 1_555 1_555
C8 C7 1_555 1_555
H8 C8 1_555 1_555
C9 C8 1_555 1_555
H9 C9 1_555 1_555
C10 C9 1_555 1_555
H10 C10 1_555 1_555
C11 N3 1_555 1_555
H11 C11 1_555 1_555
P1 F1 1_555 1_555
F2 P1 1_555 1_555
F3 P1 1_555 1_555
F4 P1 1_555 1_555
F5 P1 1_555 1_555
F6 P1 1_555 1_555
Ag1A N3 1_555 1_555
N3A Ag1 1_555 1_555
C1 C2 1_555 1_555
C4 C5 1_555 1_555
C10 C11 1_555 1_555

#END
