
#######################################################################
#
#                 Cambridge Crystallographic Data Centre
#                                CCDC 
#
#######################################################################
#
# If this CIF has been generated from an entry in the Cambridge 
# Structural Database, then it will include bibliographic, chemical, 
# crystal, experimental, refinement or atomic coordinate data resulting 
# from the CCDC's data processing and validation procedures.
#
#######################################################################

data_POFLAY
_symmetry_cell_setting           triclinic
_symmetry_space_group_name_H-M   'P -1'
_symmetry_Int_Tables_number      2
_space_group_name_Hall           '-P 1'
loop_
_symmetry_equiv_pos_site_id
_symmetry_equiv_pos_as_xyz
1 x,y,z
2 -x,-y,-z
_cell_length_a                   6.8430(14)
_cell_length_b                   7.4455(15)
_cell_length_c                   17.454(4)
_cell_angle_alpha                93.64(3)
_cell_angle_beta                 95.99(3)
_cell_angle_gamma                97.61(3)
_cell_volume                     873.929
loop_
_atom_site_label
_atom_site_type_symbol
_atom_site_fract_x
_atom_site_fract_y
_atom_site_fract_z
C1 C 0.1297(9) -0.2248(9) 0.7468(4)
H1 H 0.0668 -0.2119 0.7912
C2 C 0.0341(10) -0.3449(9) 0.6867(4)
H2 H -0.0854 -0.4160 0.6918
C3 C 0.1202(10) -0.3567(9) 0.6187(4)
H3 H 0.0554 -0.4305 0.5761
C4 C 0.3067(10) -0.2560(9) 0.6148(4)
C5 C 0.4113(10) -0.2614(9) 0.5466(4)
C6 C 0.4200(11) -0.3667(10) 0.4217(4)
H4 H 0.3620 -0.4352 0.3767
C7 C 0.6080(12) -0.2729(10) 0.4227(4)
H5 H 0.6723 -0.2817 0.3785
C8 C 0.6015(10) -0.1635(9) 0.5474(4)
C9 C 0.6942(9) -0.0530(9) 0.6161(4)
C10 C 0.8851(10) 0.0455(9) 0.6205(4)
H6 H 0.9584 0.0432 0.5785
C11 C 0.9615(10) 0.1464(9) 0.6892(4)
H7 H 1.0859 0.2162 0.6939
C12 C 0.8503(10) 0.1414(9) 0.7502(4)
H8 H 0.9055 0.2066 0.7963
C13 C 0.5930(9) -0.0467(8) 0.6809(4)
C14 C 0.3934(9) -0.1466(8) 0.6793(4)
C15 C 0.6273(9) 0.4436(8) 0.8808(3)
C16 C 0.7009(9) 0.6013(9) 0.9285(4)
C17 C 0.7670(9) 0.4280(10) 1.0288(4)
H9 H 0.8113 0.4179 1.0804
C18 C 0.7034(9) 0.2695(9) 0.9810(4)
H10 H 0.7119 0.1568 1.0002
C19 C 0.5404(10) 0.4446(10) 0.7980(4)
C20 C 0.7100(11) 0.7927(9) 0.9014(4)
N1 N 0.3064(8) -0.1266(7) 0.7451(3)
N2 N 0.6678(8) 0.0493(7) 0.7479(3)
N3 N 0.3191(8) -0.3632(7) 0.4820(3)
N4 N 0.7025(8) -0.1691(8) 0.4849(3)
N5 N 0.6314(7) 0.2789(7) 0.9087(3)
N6 N 0.7668(7) 0.5927(7) 1.0039(3)
O1 O 0.4150(7) 0.3020(6) 0.7750(2)
O2 O 0.5959(7) 0.5679(7) 0.7600(3)
O3 O 0.2264(8) 0.0860(8) 0.8973(3)
O4 O 0.5474(7) 0.8538(6) 0.8915(3)
O5 O 0.8788(7) 0.8715(7) 0.8956(3)
Co1 Co 0.46559(14) 0.06529(13) 0.83165(5)
H11 H 0.113(11) 0.005(10) 0.905(4)
H12 H 0.200(10) 0.182(10) 0.910(4)
O4_2 O 0.5474(7) -0.1462(6) 0.8915(3)
Co1_2 Co 0.46559(14) 1.06529(13) 0.83165(5)
loop_
_geom_bond_atom_site_label_1
_geom_bond_atom_site_label_2
_geom_bond_site_symmetry_1
_geom_bond_site_symmetry_2
C1 H1 1_555 1_555
C2 C1 1_555 1_555
H2 C2 1_555 1_555
C3 C2 1_555 1_555
H3 C3 1_555 1_555
C4 C3 1_555 1_555
C5 C4 1_555 1_555
C6 H4 1_555 1_555
C7 C6 1_555 1_555
H5 C7 1_555 1_555
C8 C5 1_555 1_555
C9 C8 1_555 1_555
C10 C9 1_555 1_555
H6 C10 1_555 1_555
C11 C10 1_555 1_555
H7 C11 1_555 1_555
C12 C11 1_555 1_555
H8 C12 1_555 1_555
C13 C9 1_555 1_555
C14 C4 1_555 1_555
C15 C16 1_555 1_555
C16 C20 1_555 1_555
C17 H9 1_555 1_555
C18 C17 1_555 1_555
H10 C18 1_555 1_555
C19 C15 1_555 1_555
C20 O4 1_555 1_555
N1 C1 1_555 1_555
N2 C12 1_555 1_555
N3 C5 1_555 1_555
N4 C7 1_555 1_555
N5 C15 1_555 1_555
N6 C16 1_555 1_555
O1 C19 1_555 1_555
O2 C19 1_555 1_555
O3 Co1 1_555 1_555
O4 Co1_2 1_555 1_555
O5 C20 1_555 1_555
Co1 N1 1_555 1_555
H11 O3 1_555 1_555
H12 O3 1_555 1_555
O4_2 Co1 1_555 1_555
C6 N3 1_555 1_555
C8 N4 1_555 1_555
C13 C14 1_555 1_555
C13 N2 1_555 1_555
C14 N1 1_555 1_555
C17 N6 1_555 1_555
C18 N5 1_555 1_555
N2 Co1 1_555 1_555
N5 Co1 1_555 1_555
O1 Co1 1_555 1_555

#END
