
#######################################################################
#
#                 Cambridge Crystallographic Data Centre
#                                CCDC 
#
#######################################################################
#
# If this CIF has been generated from an entry in the Cambridge 
# Structural Database, then it will include bibliographic, chemical, 
# crystal, experimental, refinement or atomic coordinate data resulting 
# from the CCDC's data processing and validation procedures.
#
#######################################################################

data_POFLUT
_symmetry_cell_setting           orthorhombic
_symmetry_space_group_name_H-M   'C m c m'
_symmetry_Int_Tables_number      63
_space_group_name_Hall           '-C 2n 2'
loop_
_symmetry_equiv_pos_site_id
_symmetry_equiv_pos_as_xyz
1 x,y,z
2 -x,-y,1/2+z
3 x,-y,-z
4 -x,y,1/2-z
5 1/2+x,1/2+y,z
6 1/2-x,1/2-y,1/2+z
7 1/2+x,1/2-y,-z
8 1/2-x,1/2+y,1/2-z
9 -x,-y,-z
10 x,y,1/2-z
11 -x,y,z
12 x,-y,1/2+z
13 1/2-x,1/2-y,-z
14 1/2+x,1/2+y,1/2-z
15 1/2-x,1/2+y,z
16 1/2+x,1/2-y,1/2+z
_cell_length_a                   12.0554(3)
_cell_length_b                   6.39040(17)
_cell_length_c                   19.3383(4)
_cell_angle_alpha                90
_cell_angle_beta                 90
_cell_angle_gamma                90
_cell_volume                     1489.8
loop_
_atom_site_label
_atom_site_type_symbol
_atom_site_fract_x
_atom_site_fract_y
_atom_site_fract_z
O6 O 0.33035(11) 0.4166(2) 0.7500
H6 H 0.2920(19) 0.432(3) 0.7135(10)
H6I H 0.2920(19) 0.432(3) 0.7865(10)
O1 O 0.67161(8) 0.07053(19) 0.35355(5)
O2 O 0.5000 -0.1345(3) 0.2500
O3 O 0.79263(8) 0.04117(18) 0.43921(5)
O4 O 0.5000 0.3004(4) 0.2500
N1 N 0.5000 0.0321(2) 0.43101(7)
C1 C 0.59630(8) 0.01679(18) 0.46407(6)
C2 C 0.69421(10) 0.0441(2) 0.41465(6)
Li1 Li 0.5000 0.0823(7) 0.32284(17)
H1 H 0.555(2) -0.229(5) 0.2500
H2 H 0.445(3) 0.377(7) 0.2500
H3 H 0.797(3) 0.0000 0.5000
O5 O 0.5000 0.4486(17) 0.3733(5)
H4 H 0.5000 0.578(7) 0.386(7)
H5 H 0.5000 0.39(2) 0.413(4)
O1B O 0.67161(8) -0.07053(19) 0.64645(5)
O3B O 0.79263(8) -0.04117(18) 0.56079(5)
N1B N 0.5000 -0.0321(2) 0.56899(7)
C1B C 0.59630(8) -0.01679(18) 0.53593(6)
C2B C 0.69421(10) -0.0441(2) 0.58535(6)
O1H O 0.32839(8) -0.07053(19) 0.64645(5)
O3H O 0.20737(8) -0.04117(18) 0.56079(5)
C1H C 0.40370(8) -0.01679(18) 0.53593(6)
C2H C 0.30579(10) -0.0441(2) 0.58535(6)
H3H H 0.203(3) 0.0000 0.5000
O1J O 0.32839(8) 0.07053(19) 0.35355(5)
O3J O 0.20737(8) 0.04117(18) 0.43921(5)
C1J C 0.40370(8) 0.01679(18) 0.46407(6)
C2J C 0.30579(10) 0.0441(2) 0.41465(6)
H1C H 0.445(2) -0.229(5) 0.2500
H2C H 0.555(3) 0.377(7) 0.2500
Li1B Li 0.5000 -0.0823(7) 0.67716(17)
O2A O 0.5000 0.1345(3) 0.7500
O4A O 0.5000 -0.3004(4) 0.7500
Li1C Li 0.5000 0.0823(7) 0.17716(17)
loop_
_geom_bond_atom_site_label_1
_geom_bond_atom_site_label_2
_geom_bond_site_symmetry_1
_geom_bond_site_symmetry_2
O1 C2 1_555 1_555
O2 Li1 1_555 1_555
O3 C2 1_555 1_555
O4 Li1 1_555 1_555
N1 C1 1_555 1_555
C1 C2 1_555 1_555
Li1 O1 1_555 1_555
H1 O2 1_555 1_555
H2 O4 1_555 1_555
H3 O3 1_555 1_555
O5 Li1 1_555 1_555
H4 O5 1_555 1_555
H5 O5 1_555 1_555
O6 H6 1_555 1_555
O1B C2B 1_555 1_555
O3B H3 1_555 1_555
N1B C1B 1_555 1_555
C1B C1 1_555 1_555
C2B O3B 1_555 1_555
O1H C2H 1_555 1_555
O3H C2H 1_555 1_555
C1H N1B 1_555 1_555
C2H C1H 1_555 1_555
H3H O3H 1_555 1_555
O1J Li1 1_555 1_555
O3J H3H 1_555 1_555
C1J N1 1_555 1_555
C2J O1J 1_555 1_555
H1C O2 1_555 1_555
H2C O4 1_555 1_555
Li1B O1B 1_555 1_555
O2A Li1B 1_555 1_555
O4A Li1B 1_555 1_555
Li1C O2 1_555 1_555
H6I O6 1_555 1_555
O4 Li1C 1_555 1_555
N1 Li1 1_555 1_555
N1B Li1B 1_555 1_555
C1B C2B 1_555 1_555
O1H Li1B 1_555 1_555
C1H C1J 1_555 1_555
O3J C2J 1_555 1_555
C1J C2J 1_555 1_555

#END
