
#######################################################################
#
#                 Cambridge Crystallographic Data Centre
#                                CCDC 
#
#######################################################################
#
# If this CIF has been generated from an entry in the Cambridge 
# Structural Database, then it will include bibliographic, chemical, 
# crystal, experimental, refinement or atomic coordinate data resulting 
# from the CCDC's data processing and validation procedures.
#
#######################################################################

data_POFVIQ
_symmetry_cell_setting           monoclinic
_symmetry_space_group_name_H-M   'C 2/c'
_symmetry_Int_Tables_number      15
_space_group_name_Hall           '-C 2yn'
loop_
_symmetry_equiv_pos_site_id
_symmetry_equiv_pos_as_xyz
1 x,y,z
2 1/2+x,1/2+y,z
3 -x,y,1/2-z
4 1/2-x,1/2+y,1/2-z
5 -x,-y,-z
6 1/2-x,1/2-y,-z
7 x,-y,1/2+z
8 1/2+x,1/2-y,1/2+z
_cell_length_a                   22.161(11)
_cell_length_b                   10.334(4)
_cell_length_c                   14.366(7)
_cell_angle_alpha                90
_cell_angle_beta                 126.375(18)
_cell_angle_gamma                90
_cell_volume                     2648.94
loop_
_atom_site_label
_atom_site_type_symbol
_atom_site_fract_x
_atom_site_fract_y
_atom_site_fract_z
C1 C 0.43494(12) 0.5667(2) 0.87357(19)
H1 H 0.4387 0.4802 0.8600
C2 C 0.40800(13) 0.6108(2) 0.9310(2)
H2 H 0.3901 0.5611 0.9638
C3 C 0.44106(11) 0.7749(2) 0.87476(18)
H3 H 0.4495 0.8593 0.8627
C4 C 0.38590(14) 0.8327(3) 0.9787(2)
H4 H 0.4039 0.9190 0.9807
H5 H 0.4069 0.8078 1.0576
C5 C 0.30100(14) 0.8355(3) 0.9086(2)
H6 H 0.2872 0.8926 0.9467
H7 H 0.2836 0.7493 0.9084
C6 C 0.26042(14) 0.8803(3) 0.7830(2)
H8 H 0.2128 0.9186 0.7569
H9 H 0.2902 0.9470 0.7804
C7 C 0.24623(12) 0.7730(2) 0.70083(18)
H10 H 0.2938 0.7405 0.7214
H11 H 0.2205 0.7023 0.7082
C8 C 0.22282(12) 0.9038(3) 0.5330(2)
H12 H 0.2696 0.9427 0.5699
C9 C 0.16308(12) 0.9201(3) 0.42203(19)
H13 H 0.1619 0.9731 0.3687
C10 C 0.12939(11) 0.7874(2) 0.49805(18)
H14 H 0.1010 0.7315 0.5086
Cu1 Cu 0.5000 0.66433(3) 0.7500
N1 N 0.45588(9) 0.67011(16) 0.83845(14)
N2 N 0.41221(9) 0.74259(19) 0.93120(14)
N3 N 0.20075(10) 0.81828(18) 0.58036(16)
N4 N 0.10424(9) 0.84658(17) 0.39970(15)
O1 O 0.5000 0.9027(3) 0.7500
H15 H 0.4628 0.9523 0.7254
O5 O 0.5000 0.4120(3) 0.7500
H16 H 0.4690 0.3573 0.7433
C1B C 0.56506(12) 0.5667(2) 0.62643(19)
H1B H 0.5613 0.4802 0.6400
C2B C 0.59200(13) 0.6108(2) 0.5690(2)
H2B H 0.6099 0.5611 0.5362
C3B C 0.55894(11) 0.7749(2) 0.62524(18)
H3B H 0.5505 0.8593 0.6373
C4B C 0.61410(14) 0.8327(3) 0.5213(2)
H4B H 0.5961 0.9190 0.5193
H5B H 0.5931 0.8078 0.4424
C5B C 0.69900(14) 0.8355(3) 0.5914(2)
H6B H 0.7128 0.8926 0.5533
H7B H 0.7164 0.7493 0.5916
C6B C 0.73958(14) 0.8803(3) 0.7170(2)
H8B H 0.7872 0.9186 0.7431
H9B H 0.7098 0.9470 0.7196
C7B C 0.75377(12) 0.7730(2) 0.79917(18)
H10B H 0.7062 0.7405 0.7786
H11B H 0.7795 0.7023 0.7918
C8B C 0.77718(12) 0.9038(3) 0.9670(2)
H12B H 0.7304 0.9427 0.9301
C9B C 0.83692(12) 0.9201(3) 1.07797(19)
H13B H 0.8381 0.9731 1.1313
C10B C 0.87061(11) 0.7874(2) 1.00195(18)
H14B H 0.8990 0.7315 0.9914
Cu1G Cu 0.0000 0.83567(3) 0.2500
Cu1G_2 Cu 1.0000 0.83567(3) 1.2500
N1B N 0.54412(9) 0.67011(16) 0.66155(14)
N2B N 0.58779(9) 0.74259(19) 0.56880(14)
N3B N 0.79925(10) 0.81828(18) 0.91964(16)
N4B N 0.89576(9) 0.84658(17) 1.10030(15)
N4G N 0.60424(9) 0.65342(17) 0.89970(15)
N4E N 0.39576(9) 0.65342(17) 0.60030(15)
H15B H 0.5372 0.9523 0.7746
H16B H 0.5310 0.3573 0.7567
N5 N 0.59796(14) 0.1501(2) 0.7259(3)
O2 O 0.5825(2) 0.0978(4) 0.6366(3)
O3 O 0.5894(5) 0.2662(7) 0.7011(8)
O4 O 0.61485(19) 0.0723(3) 0.8025(3)
O6? O 0.6140(5) 0.2592(7) 0.7753(9)
loop_
_geom_bond_atom_site_label_1
_geom_bond_atom_site_label_2
_geom_bond_site_symmetry_1
_geom_bond_site_symmetry_2
C1 H1 1_555 1_555
C2 C1 1_555 1_555
H2 C2 1_555 1_555
C3 H3 1_555 1_555
C4 H4 1_555 1_555
H5 C4 1_555 1_555
C5 C4 1_555 1_555
H6 C5 1_555 1_555
H7 C5 1_555 1_555
C6 C5 1_555 1_555
H8 C6 1_555 1_555
H9 C6 1_555 1_555
C7 C6 1_555 1_555
H10 C7 1_555 1_555
H11 C7 1_555 1_555
C8 H12 1_555 1_555
C9 C8 1_555 1_555
H13 C9 1_555 1_555
C10 H14 1_555 1_555
Cu1 N1 1_555 1_555
N1 C1 1_555 1_555
N2 C2 1_555 1_555
N3 C7 1_555 1_555
N4 C9 1_555 1_555
N5 O2 1_555 1_555
O1 Cu1 1_555 1_555
H15 O1 1_555 1_555
O3 N5 1_555 1_555
O4 N5 1_555 1_555
O5 Cu1 1_555 1_555
H16 O5 1_555 1_555
C1B H1B 1_555 1_555
C2B C1B 1_555 1_555
H2B C2B 1_555 1_555
C3B H3B 1_555 1_555
C4B H4B 1_555 1_555
H5B C4B 1_555 1_555
C5B C4B 1_555 1_555
H6B C5B 1_555 1_555
H7B C5B 1_555 1_555
C6B C5B 1_555 1_555
H8B C6B 1_555 1_555
H9B C6B 1_555 1_555
C7B C6B 1_555 1_555
H10B C7B 1_555 1_555
H11B C7B 1_555 1_555
C8B H12B 1_555 1_555
C9B C8B 1_555 1_555
H13B C9B 1_555 1_555
C10B H14B 1_555 1_555
Cu1G N4 1_555 1_555
Cu1G_2 N4B 1_555 1_555
N1B Cu1 1_555 1_555
N2B C2B 1_555 1_555
N3B C7B 1_555 1_555
N4B C9B 1_555 1_555
N4G Cu1 1_555 1_555
N4E Cu1 1_555 1_555
H15B O1 1_555 1_555
H16B O5 1_555 1_555
C3 N1 1_555 1_555
C3 N2 1_555 1_555
C4 N2 1_555 1_555
C8 N3 1_555 1_555
C10 N3 1_555 1_555
C10 N4 1_555 1_555
C1B N1B 1_555 1_555
C3B N1B 1_555 1_555
C3B N2B 1_555 1_555
C4B N2B 1_555 1_555
C8B N3B 1_555 1_555
C10B N3B 1_555 1_555
C10B N4B 1_555 1_555

#END
