
#######################################################################
#
#                 Cambridge Crystallographic Data Centre
#                                CCDC 
#
#######################################################################
#
# If this CIF has been generated from an entry in the Cambridge 
# Structural Database, then it will include bibliographic, chemical, 
# crystal, experimental, refinement or atomic coordinate data resulting 
# from the CCDC's data processing and validation procedures.
#
#######################################################################

data_POFXOY
_symmetry_cell_setting           triclinic
_symmetry_space_group_name_H-M   'P -1'
_symmetry_Int_Tables_number      2
_space_group_name_Hall           '-P 1'
loop_
_symmetry_equiv_pos_site_id
_symmetry_equiv_pos_as_xyz
1 x,y,z
2 -x,-y,-z
_cell_length_a                   9.1831(5)
_cell_length_b                   9.6550(6)
_cell_length_c                   11.3600(7)
_cell_angle_alpha                104.6310(8)
_cell_angle_beta                 104.0390(9)
_cell_angle_gamma                101.8920(7)
_cell_volume                     906.284
loop_
_atom_site_label
_atom_site_type_symbol
_atom_site_fract_x
_atom_site_fract_y
_atom_site_fract_z
Cd1 Cd 0.95793(3) 0.18405(3) 0.35302(2)
O1 O 1.0863(3) -0.0176(3) 0.3642(3)
O2 O 1.2261(3) 0.2183(3) 0.4339(3)
O3 O 0.9956(3) 0.2355(3) 0.1778(2)
O4 O 1.0395(3) 0.4563(3) 0.3186(2)
O5 O 0.9890(4) 0.2639(4) 0.5669(3)
N1 N 0.7280(3) 0.2663(3) 0.3305(3)
N2 N 0.7334(3) -0.0205(3) 0.2344(3)
C1 C 1.2161(4) 0.0827(4) 0.4162(3)
C2 C 1.3631(4) 0.0395(4) 0.4593(3)
C3 C 1.4937(4) 0.1431(4) 0.5520(4)
H1 H 1.4903 0.2399 0.5871
C4 C 1.3706(4) -0.1043(4) 0.4069(4)
H2 H 1.2838 -0.1749 0.3439
C5 C 1.0181(4) 0.3738(4) 0.2075(3)
C6 C 1.0122(4) 0.4413(4) 0.1011(3)
C7 C 1.0364(5) 0.3674(4) -0.0097(3)
H3 H 1.0609 0.2775 -0.0170
C8 C 0.9751(5) 0.5750(4) 0.1105(4)
H4 H 0.9580 0.6262 0.1847
C9 C 0.7232(5) 0.4041(4) 0.3839(4)
H5 H 0.8158 0.4753 0.4379
C10 C 0.5850(5) 0.4462(5) 0.3622(4)
H6 H 0.5859 0.5431 0.4027
C11 C 0.4501(5) 0.3451(5) 0.2821(4)
H7 H 0.3579 0.3728 0.2663
C12 C 0.4487(4) 0.1981(4) 0.2224(4)
C13 C 0.3116(4) 0.0852(5) 0.1363(4)
H8 H 0.2174 0.1088 0.1161
C14 C 0.3154(4) -0.0539(5) 0.0839(4)
H9 H 0.2250 -0.1247 0.0258
C15 C 0.4574(4) -0.0949(4) 0.1162(4)
C16 C 0.4649(5) -0.2426(5) 0.0711(5)
H10 H 0.3758 -0.3178 0.0162
C17 C 0.6024(6) -0.2744(5) 0.1081(6)
H11 H 0.6083 -0.3716 0.0795
C18 C 0.7343(5) -0.1603(4) 0.1893(4)
H12 H 0.8282 -0.1835 0.2131
C19 C 0.5959(4) 0.0121(4) 0.1992(3)
C20 C 0.5924(4) 0.1633(4) 0.2516(3)
H13 H 0.958(5) 0.200(4) 0.596(4)
H14 H 0.960(5) 0.327(4) 0.596(4)
Cd1A Cd 2.04207(3) -0.18405(3) 0.64698(2)
Cd1A_2 Cd 1.04207(3) 0.81595(3) -0.35302(2)
O1A O 1.9137(3) 0.0176(3) 0.6358(3)
O2A O 1.7739(3) -0.2183(3) 0.5661(3)
O3A O 1.0044(3) 0.7645(3) -0.1778(2)
O3A_2 O 2.0044(3) -0.2355(3) 0.8222(2)
O4A O 0.9605(3) 0.5437(3) -0.3186(2)
O5A O 2.0110(4) -0.2639(4) 0.4331(3)
N1A N 2.2720(3) -0.2663(3) 0.6695(3)
N2A N 2.2666(3) 0.0205(3) 0.7656(3)
C1A C 1.7839(4) -0.0827(4) 0.5838(3)
C2A C 1.6369(4) -0.0395(4) 0.5407(3)
C3A C 1.5063(4) -0.1431(4) 0.4480(4)
H1A H 1.5097 -0.2399 0.4129
C4A C 1.6294(4) 0.1043(4) 0.5931(4)
H2A H 1.7162 0.1749 0.6561
C5A C 0.9819(4) 0.6262(4) -0.2075(3)
C6A C 0.9878(4) 0.5587(4) -0.1011(3)
C7A C 0.9636(5) 0.6326(4) 0.0097(3)
H3A H 0.9391 0.7225 0.0170
C8A C 1.0249(5) 0.4250(4) -0.1105(4)
H4A H 1.0420 0.3738 -0.1847
C9A C 2.2768(5) -0.4041(4) 0.6161(4)
H5A H 2.1842 -0.4753 0.5621
C10A C 2.4150(5) -0.4462(5) 0.6378(4)
H6A H 2.4141 -0.5431 0.5973
C11A C 2.5499(5) -0.3451(5) 0.7179(4)
H7A H 2.6421 -0.3728 0.7337
C12A C 2.5513(4) -0.1981(4) 0.7776(4)
C13A C 2.6884(4) -0.0852(5) 0.8637(4)
H8A H 2.7826 -0.1088 0.8839
C14A C 2.6846(4) 0.0539(5) 0.9161(4)
H9A H 2.7750 0.1247 0.9742
C15A C 2.5426(4) 0.0949(4) 0.8838(4)
C16A C 2.5351(5) 0.2426(5) 0.9289(5)
H10A H 2.6242 0.3178 0.9838
C17A C 2.3976(6) 0.2744(5) 0.8919(6)
H11A H 2.3917 0.3716 0.9205
C18A C 2.2657(5) 0.1603(4) 0.8107(4)
H12A H 2.1718 0.1835 0.7869
C19A C 2.4041(4) -0.0121(4) 0.8008(3)
C20A C 2.4076(4) -0.1633(4) 0.7484(3)
H13A H 2.042(5) -0.200(4) 0.404(4)
H14A H 2.040(5) -0.327(4) 0.404(4)
loop_
_geom_bond_atom_site_label_1
_geom_bond_atom_site_label_2
_geom_bond_site_symmetry_1
_geom_bond_site_symmetry_2
Cd1 O1 1_555 1_555
O1 C1 1_555 1_555
O2 Cd1 1_555 1_555
O3 Cd1 1_555 1_555
O4 C5 1_555 1_555
O5 Cd1 1_555 1_555
N1 Cd1 1_555 1_555
N2 Cd1 1_555 1_555
C1 O2 1_555 1_555
C2 C1 1_555 1_555
C3 C2 1_555 1_555
H1 C3 1_555 1_555
C4 C2 1_555 1_555
H2 C4 1_555 1_555
C5 O3 1_555 1_555
C6 C5 1_555 1_555
C7 C6 1_555 1_555
H3 C7 1_555 1_555
C8 C6 1_555 1_555
H4 C8 1_555 1_555
C9 N1 1_555 1_555
H5 C9 1_555 1_555
C10 C9 1_555 1_555
H6 C10 1_555 1_555
C11 C10 1_555 1_555
H7 C11 1_555 1_555
C12 C11 1_555 1_555
C13 C12 1_555 1_555
H8 C13 1_555 1_555
C14 C13 1_555 1_555
H9 C14 1_555 1_555
C15 C14 1_555 1_555
C16 C15 1_555 1_555
H10 C16 1_555 1_555
C17 C16 1_555 1_555
H11 C17 1_555 1_555
C18 N2 1_555 1_555
H12 C18 1_555 1_555
C19 N2 1_555 1_555
C20 N1 1_555 1_555
H13 O5 1_555 1_555
H14 O5 1_555 1_555
Cd1A O1A 1_555 1_555
Cd1A_2 O3A 1_555 1_555
O1A C1A 1_555 1_555
O2A Cd1A 1_555 1_555
O3A C5A 1_555 1_555
O3A_2 Cd1A 1_555 1_555
O4A C5A 1_555 1_555
O5A Cd1A 1_555 1_555
N1A Cd1A 1_555 1_555
N2A Cd1A 1_555 1_555
C1A O2A 1_555 1_555
C2A C1A 1_555 1_555
C3A C4 1_555 1_555
H1A C3A 1_555 1_555
C4A C3 1_555 1_555
H2A C4A 1_555 1_555
C5A C6A 1_555 1_555
C6A C7A 1_555 1_555
C7A C8 1_555 1_555
H3A C7A 1_555 1_555
C8A C7 1_555 1_555
H4A C8A 1_555 1_555
C9A N1A 1_555 1_555
H5A C9A 1_555 1_555
C10A C9A 1_555 1_555
H6A C10A 1_555 1_555
C11A C10A 1_555 1_555
H7A C11A 1_555 1_555
C12A C11A 1_555 1_555
C13A C12A 1_555 1_555
H8A C13A 1_555 1_555
C14A C13A 1_555 1_555
H9A C14A 1_555 1_555
C15A C14A 1_555 1_555
C16A C15A 1_555 1_555
H10A C16A 1_555 1_555
C17A C16A 1_555 1_555
H11A C17A 1_555 1_555
C18A N2A 1_555 1_555
H12A C18A 1_555 1_555
C19A N2A 1_555 1_555
C20A N1A 1_555 1_555
H13A O5A 1_555 1_555
H14A O5A 1_555 1_555
C12 C20 1_555 1_555
C15 C19 1_555 1_555
C17 C18 1_555 1_555
C19 C20 1_555 1_555
C2A C3A 1_555 1_555
C2A C4A 1_555 1_555
C6A C8A 1_555 1_555
C12A C20A 1_555 1_555
C15A C19A 1_555 1_555
C17A C18A 1_555 1_555
C19A C20A 1_555 1_555

#END
