
#######################################################################
#
#                 Cambridge Crystallographic Data Centre
#                                CCDC 
#
#######################################################################
#
# If this CIF has been generated from an entry in the Cambridge 
# Structural Database, then it will include bibliographic, chemical, 
# crystal, experimental, refinement or atomic coordinate data resulting 
# from the CCDC's data processing and validation procedures.
#
#######################################################################

data_POFYOZ
_symmetry_cell_setting           monoclinic
_symmetry_space_group_name_H-M   'C 2/c'
_symmetry_Int_Tables_number      15
_space_group_name_Hall           '-C 2yn'
loop_
_symmetry_equiv_pos_site_id
_symmetry_equiv_pos_as_xyz
1 x,y,z
2 1/2+x,1/2+y,z
3 -x,y,1/2-z
4 1/2-x,1/2+y,1/2-z
5 -x,-y,-z
6 1/2-x,1/2-y,-z
7 x,-y,1/2+z
8 1/2+x,1/2-y,1/2+z
_cell_length_a                   9.770(2)
_cell_length_b                   24.046(7)
_cell_length_c                   8.567(2)
_cell_angle_alpha                90
_cell_angle_beta                 114.892(2)
_cell_angle_gamma                90
_cell_volume                     1825.67
loop_
_atom_site_label
_atom_site_type_symbol
_atom_site_fract_x
_atom_site_fract_y
_atom_site_fract_z
La1 La 0.5000 0.006510(6) 0.2500
Ni1 Ni 0.5000 0.160958(16) 0.2500
O1 O 0.35507(16) 0.02307(7) -0.09163(19)
O2 O 0.20878(18) 0.04046(7) 0.0397(2)
N1 N 0.0000 0.09825(11) -0.2500
H2 H -0.0394 0.1204 -0.3431
C1 C 0.2336(2) 0.04168(8) -0.0912(3)
C2 C 0.1242(2) 0.06583(10) -0.2610(3)
H3 H 0.1795 0.0897 -0.3056
H4 H 0.0813 0.0357 -0.3423
O4 O 0.57021(18) 0.09790(6) 0.1387(2)
O5 O 0.6266(2) 0.08215(6) -0.0855(2)
O6 O 0.7060(2) 0.16494(7) 0.4561(2)
O7 O 0.9458(2) 0.18648(8) 0.5229(3)
N2 N 0.6084(2) 0.20944(8) 0.1323(2)
H5 H 0.5560 0.2410 0.0912
C3 C 0.6030(2) 0.11313(9) 0.0166(3)
C4 C 0.8077(3) 0.18820(10) 0.4256(3)
C5 C 0.6060(3) 0.17552(10) -0.0112(3)
H6 H 0.6945 0.1844 -0.0306
H7 H 0.5179 0.1856 -0.1145
C6 C 0.7602(3) 0.22278(11) 0.2622(3)
H8 H 0.7637 0.2618 0.2920
H9 H 0.8321 0.2169 0.2130
La1F La 0.5000 -0.006510(6) -0.2500
La1_2 La -0.5000 0.006510(6) -0.7500
La1F_2 La -0.5000 -0.006510(6) -0.2500
La1F_3 La 0.5000 -0.006510(6) 0.7500
O1B O -0.35507(16) 0.02307(7) -0.40837(19)
O1F O 0.35507(16) -0.02307(7) 0.40837(19)
O1D O 0.64493(16) -0.02307(7) 0.09163(19)
O1B_2 O 0.64493(16) 0.02307(7) 0.59163(19)
O2B O -0.20878(18) 0.04046(7) -0.5397(2)
O2B_2 O 0.79122(18) 0.04046(7) 0.4603(2)
H2B H 0.0394 0.1204 -0.1569
C1B C -0.2336(2) 0.04168(8) -0.4088(3)
C2B C -0.1242(2) 0.06583(10) -0.2390(3)
H3B H -0.1795 0.0897 -0.1944
H4B H -0.0813 0.0357 -0.1577
O4B O 0.42979(18) 0.09790(6) 0.3613(2)
O5B O 0.3734(2) 0.08215(6) 0.5855(2)
O5F O 0.6266(2) -0.08215(6) 0.4145(2)
O5D O 0.3734(2) -0.08215(6) 0.0855(2)
O6B O 0.2940(2) 0.16494(7) 0.0439(2)
O7B O 0.0542(2) 0.18648(8) -0.0229(3)
N2B N 0.3916(2) 0.20944(8) 0.3677(2)
H5B H 0.4440 0.2410 0.4088
C3B C 0.3970(2) 0.11313(9) 0.4834(3)
C4B C 0.1923(3) 0.18820(10) 0.0744(3)
C5B C 0.3940(3) 0.17552(10) 0.5112(3)
H6B H 0.3055 0.1844 0.5306
H7B H 0.4821 0.1856 0.6145
C6B C 0.2398(3) 0.22278(11) 0.2378(3)
H8B H 0.2363 0.2618 0.2080
H9B H 0.1679 0.2169 0.2870
O3 O 0.0000 0.0837(6) 0.2500
H1 H 0.0446 0.0631 0.2051
H1B H -0.0446 0.0631 0.2949
loop_
_geom_bond_atom_site_label_1
_geom_bond_atom_site_label_2
_geom_bond_site_symmetry_1
_geom_bond_site_symmetry_2
La1 O1 1_555 1_555
Ni1 O4 1_555 1_555
O1 C1 1_555 1_555
O2 La1 1_555 1_555
O3 H1 1_555 1_555
N1 H2 1_555 1_555
C1 O2 1_555 1_555
C2 N1 1_555 1_555
H3 C2 1_555 1_555
H4 C2 1_555 1_555
O4 La1 1_555 1_555
O5 C3 1_555 1_555
O6 Ni1 1_555 1_555
O7 C4 1_555 1_555
N2 Ni1 1_555 1_555
H5 N2 1_555 1_555
C3 O4 1_555 1_555
C4 O6 1_555 1_555
C5 N2 1_555 1_555
H6 C5 1_555 1_555
H7 C5 1_555 1_555
C6 N2 1_555 1_555
H8 C6 1_555 1_555
H9 C6 1_555 1_555
La1F O1 1_555 1_555
La1_2 O1B 1_555 1_555
La1F_2 O1B 1_555 1_555
La1F_3 O1F 1_555 1_555
O1B C1B 1_555 1_555
O1F La1 1_555 1_555
O1D La1 1_555 1_555
O1B_2 La1 1_555 1_555
O2B La1_2 1_555 1_555
O2B_2 La1 1_555 1_555
H1B O3 1_555 1_555
H2B N1 1_555 1_555
C1B O2B 1_555 1_555
C2B N1 1_555 1_555
H3B C2B 1_555 1_555
H4B C2B 1_555 1_555
O4B La1 1_555 1_555
O5B La1F_3 1_555 1_555
O5F La1 1_555 1_555
O5D La1 1_555 1_555
O6B Ni1 1_555 1_555
O7B C4B 1_555 1_555
N2B Ni1 1_555 1_555
H5B N2B 1_555 1_555
C3B O4B 1_555 1_555
C4B O6B 1_555 1_555
C5B N2B 1_555 1_555
H6B C5B 1_555 1_555
H7B C5B 1_555 1_555
C6B N2B 1_555 1_555
H8B C6B 1_555 1_555
H9B C6B 1_555 1_555
Ni1 O4B 1_555 1_555
C1 C2 1_555 1_555
O5 La1F 1_555 1_555
C3 C5 1_555 1_555
C4 C6 1_555 1_555
La1F O1D 1_555 1_555
La1F_3 O1B_2 1_555 1_555
C1B C2B 1_555 1_555
O5B C3B 1_555 1_555
C3B C5B 1_555 1_555
C4B C6B 1_555 1_555

#END
