
#######################################################################
#
#                 Cambridge Crystallographic Data Centre
#                                CCDC 
#
#######################################################################
#
# If this CIF has been generated from an entry in the Cambridge 
# Structural Database, then it will include bibliographic, chemical, 
# crystal, experimental, refinement or atomic coordinate data resulting 
# from the CCDC's data processing and validation procedures.
#
#######################################################################

data_POFZIV
_symmetry_cell_setting           monoclinic
_symmetry_space_group_name_H-M   'P 21/c'
_symmetry_Int_Tables_number      14
_space_group_name_Hall           '-P 2ybc'
loop_
_symmetry_equiv_pos_site_id
_symmetry_equiv_pos_as_xyz
1 x,y,z
2 -x,1/2+y,1/2-z
3 -x,-y,-z
4 x,1/2-y,1/2+z
_cell_length_a                   12.4226(6)
_cell_length_b                   20.6183(9)
_cell_length_c                   18.4739(6)
_cell_angle_alpha                90
_cell_angle_beta                 129.865(2)
_cell_angle_gamma                90
_cell_volume                     3631.91
loop_
_atom_site_label
_atom_site_type_symbol
_atom_site_fract_x
_atom_site_fract_y
_atom_site_fract_z
I1 I 0.20779(2) -0.496107(11) 0.125885(13)
I2 I 0.47554(2) -0.637254(10) 0.355675(14)
I3 I 0.27756(2) -0.481537(10) 0.383800(13)
I4 I 0.62760(2) -0.434406(10) 0.380685(14)
Cu1 Cu 0.35489(4) -0.43398(2) 0.28659(3)
Cu2 Cu 0.46867(4) -0.53444(2) 0.26762(3)
Cu3 Cu 0.52016(4) -0.52141(2) 0.43162(3)
S1 S 0.28053(8) -0.32653(4) 0.26684(5)
S2 S 0.43749(8) -0.06553(4) 0.30281(5)
Na1 Na 0.17836(13) -0.12071(7) 0.24280(9)
O1 O -0.0295(2) -0.21495(11) 0.18497(14)
O2 O 0.0787(2) -0.11995(12) 0.31759(15)
O3 O 0.2530(2) -0.00905(11) 0.36737(15)
O4 O 0.3667(2) -0.18707(10) 0.36356(14)
N1 N 0.1848(3) -0.17749(15) 0.1312(2)
N2 N 0.0518(3) -0.03026(17) 0.1396(2)
C1 C -0.1192(3) -0.16275(16) 0.1709(2)
H1 H -0.2170 -0.1782 0.1339
H2 H -0.1178 -0.1265 0.1364
C2 C -0.0631(3) -0.14105(16) 0.2666(2)
H3 H -0.1207 -0.1050 0.2610
H4 H -0.0661 -0.1773 0.3004
C3 C 0.1282(4) -0.07720(17) 0.3941(2)
H5 H 0.2212 -0.0920 0.4514
H6 H 0.0626 -0.0779 0.4074
C4 C 0.1397(3) -0.00927(17) 0.3701(2)
H7 H 0.0510 0.0037 0.3080
H8 H 0.1594 0.0216 0.4183
C5 C 0.2883(3) 0.04951(16) 0.3516(2)
C6 C 0.2100(4) 0.10555(18) 0.3245(2)
H9 H 0.1259 0.1052 0.3157
C7 C 0.2537(4) 0.16230(18) 0.3099(2)
H10 H 0.1992 0.2006 0.2913
C8 C 0.3749(4) 0.16373(17) 0.3220(2)
H11 H 0.4041 0.2026 0.3114
C9 C 0.4539(4) 0.10759(17) 0.3498(2)
H12 H 0.5377 0.1084 0.3581
C10 C 0.4137(3) 0.05028(15) 0.3660(2)
C11 C 0.5042(3) -0.00960(15) 0.4000(2)
H13 H 0.5063 -0.0316 0.4485
H14 H 0.6014 0.0031 0.4294
C12 C 0.5452(3) -0.13535(15) 0.3699(2)
H15 H 0.5354 -0.1673 0.3259
H16 H 0.6446 -0.1215 0.4140
C13 C 0.5109(3) -0.16860(16) 0.4257(2)
H17 H 0.5708 -0.2075 0.4574
H18 H 0.5297 -0.1388 0.4747
C14 C 0.3344(4) -0.23659(15) 0.4004(2)
H19 H 0.2333 -0.2344 0.3685
H20 H 0.3874 -0.2284 0.4684
C15 C 0.3686(3) -0.30405(16) 0.3883(2)
H21 H 0.3427 -0.3357 0.4152
H22 H 0.4711 -0.3072 0.4250
C16 C 0.0974(3) -0.33549(16) 0.2173(2)
H23 H 0.0760 -0.3822 0.2141
H24 H 0.0856 -0.3143 0.2598
C17 C -0.0054(3) -0.30622(16) 0.1199(2)
C18 C -0.0391(3) -0.33919(17) 0.0421(2)
H25 H 0.0016 -0.3805 0.0506
C19 C -0.1310(3) -0.31281(18) -0.0478(2)
H26 H -0.1519 -0.3356 -0.1001
C20 C -0.1916(3) -0.25386(17) -0.0604(2)
H27 H -0.2546 -0.2357 -0.1219
C21 C -0.1616(3) -0.22060(17) 0.0155(2)
H28 H -0.2046 -0.1799 0.0062
C22 C -0.0687(3) -0.24687(16) 0.1052(2)
C23 C 0.2030(4) -0.2151(2) 0.0967(3)
C24 C 0.2290(5) -0.2655(2) 0.0537(3)
H29 H 0.2202 -0.3084 0.0725
H30 H 0.3238 -0.2604 0.0749
H31 H 0.1603 -0.2616 -0.0151
C25 C 0.0088(4) 0.0171(2) 0.1006(3)
C26 C -0.0474(5) 0.0789(2) 0.0504(3)
H32 H 0.0281 0.1042 0.0606
H33 H -0.0869 0.1032 0.0741
H34 H -0.1209 0.0706 -0.0172
I3B I 0.72244(2) -0.518463(10) 0.616200(13)
Cu2A Cu 0.53133(4) -0.03444(2) 0.23238(3)
Cu3B Cu 0.47984(4) -0.47859(2) 0.56838(3)
S2A S 0.56251(8) -0.56553(4) 0.19719(5)
loop_
_geom_bond_atom_site_label_1
_geom_bond_atom_site_label_2
_geom_bond_site_symmetry_1
_geom_bond_site_symmetry_2
I1 Cu1 1_555 1_555
I2 Cu2 1_555 1_555
I3 Cu1 1_555 1_555
I4 Cu1 1_555 1_555
Cu1 Cu2 1_555 1_555
Cu2 I1 1_555 1_555
Cu3 I2 1_555 1_555
S1 Cu1 1_555 1_555
S2 Na1 1_555 1_555
Na1 O1 1_555 1_555
O1 C1 1_555 1_555
O2 Na1 1_555 1_555
O3 Na1 1_555 1_555
O4 Na1 1_555 1_555
N1 Na1 1_555 1_555
N2 Na1 1_555 1_555
C1 H1 1_555 1_555
H2 C1 1_555 1_555
C2 O2 1_555 1_555
H3 C2 1_555 1_555
H4 C2 1_555 1_555
C3 O2 1_555 1_555
H5 C3 1_555 1_555
H6 C3 1_555 1_555
C4 O3 1_555 1_555
H7 C4 1_555 1_555
H8 C4 1_555 1_555
C5 O3 1_555 1_555
C6 C5 1_555 1_555
H9 C6 1_555 1_555
C7 C6 1_555 1_555
H10 C7 1_555 1_555
C8 C7 1_555 1_555
H11 C8 1_555 1_555
C9 C8 1_555 1_555
H12 C9 1_555 1_555
C10 C5 1_555 1_555
C11 S2 1_555 1_555
H13 C11 1_555 1_555
H14 C11 1_555 1_555
C12 S2 1_555 1_555
H15 C12 1_555 1_555
H16 C12 1_555 1_555
C13 O4 1_555 1_555
H17 C13 1_555 1_555
H18 C13 1_555 1_555
C14 O4 1_555 1_555
H19 C14 1_555 1_555
H20 C14 1_555 1_555
C15 S1 1_555 1_555
H21 C15 1_555 1_555
H22 C15 1_555 1_555
C16 S1 1_555 1_555
H23 C16 1_555 1_555
H24 C16 1_555 1_555
C17 C16 1_555 1_555
C18 C17 1_555 1_555
H25 C18 1_555 1_555
C19 C18 1_555 1_555
H26 C19 1_555 1_555
C20 C19 1_555 1_555
H27 C20 1_555 1_555
C21 C20 1_555 1_555
H28 C21 1_555 1_555
C22 O1 1_555 1_555
C23 N1 1_555 1_555
C24 C23 1_555 1_555
H29 C24 1_555 1_555
H30 C24 1_555 1_555
H31 C24 1_555 1_555
C25 N2 1_555 1_555
C26 C25 1_555 1_555
H32 C26 1_555 1_555
H33 C26 1_555 1_555
H34 C26 1_555 1_555
I3B Cu3 1_555 1_555
Cu2A S2 1_555 1_555
Cu3B I3 1_555 1_555
S2A Cu2 1_555 1_555
I3 Cu3 1_555 1_555
I4 Cu2 1_555 1_555
I4 Cu3 1_555 1_555
Cu1 Cu3 1_555 1_555
Cu2 Cu3 1_555 1_555
C1 C2 1_555 1_555
C3 C4 1_555 1_555
C9 C10 1_555 1_555
C10 C11 1_555 1_555
C12 C13 1_555 1_555
C14 C15 1_555 1_555
C17 C22 1_555 1_555
C21 C22 1_555 1_555
I3B Cu3B 1_555 1_555

#END
