
#######################################################################
#
#                 Cambridge Crystallographic Data Centre
#                                CCDC 
#
#######################################################################
#
# If this CIF has been generated from an entry in the Cambridge 
# Structural Database, then it will include bibliographic, chemical, 
# crystal, experimental, refinement or atomic coordinate data resulting 
# from the CCDC's data processing and validation procedures.
#
#######################################################################

data_POGDAS
_symmetry_cell_setting           hexagonal
_symmetry_space_group_name_H-M   'P 65 2 2'
_symmetry_Int_Tables_number      179
_space_group_name_Hall           "P 65 2' (0,0,1)"
loop_
_symmetry_equiv_pos_site_id
_symmetry_equiv_pos_as_xyz
1 x,y,z
2 -y,x-y,2/3+z
3 -x+y,-x,1/3+z
4 -x,-y,1/2+z
5 y,-x+y,1/6+z
6 x-y,x,5/6+z
7 y,x,2/3-z
8 x-y,-y,-z
9 -x,-x+y,1/3-z
10 -y,-x,1/6-z
11 -x+y,y,1/2-z
12 x,x-y,5/6-z
_cell_length_a                   37.693(2)
_cell_length_b                   37.693(2)
_cell_length_c                   23.893(3)
_cell_angle_alpha                90
_cell_angle_beta                 90
_cell_angle_gamma                120
_cell_volume                     29398.3
loop_
_atom_site_label
_atom_site_type_symbol
_atom_site_fract_x
_atom_site_fract_y
_atom_site_fract_z
F1 F 0.3959(8) 0.4359(5) 0.0936(7)
F2 F 0.4367(5) 0.4994(5) 0.1039(5)
F3 F 0.4396(5) 0.4610(8) 0.1684(9)
C47 C 0.4178(6) 0.4662(7) 0.1299(10)
S1 S 0.37406(15) 0.46675(15) 0.1710(3)
O10 O 0.3597(6) 0.4786(6) 0.0993(8)
O11 O 0.3443(8) 0.4306(6) 0.1910(13)
O12 O 0.3846(5) 0.5026(5) 0.1975(7)
O13 O 0.6920(10) 0.6888(10) 0.5363(12)
O14 O 0.4107(9) 0.5893(9) 0.0833
O15 O 0.5118(16) 0.4890(17) 0.307(2)
O16 O 0.6213(5) 0.3501(5) 0.2756(7)
O17 O 0.6881(11) 0.4018(11) 0.4593(14)
O18 O 0.7595(10) 0.7410(10) 0.9509(13)
O19 O 0.777(3) 0.777(3) 0.8333
Ag1 Ag 0.18143(3) 0.45395(3) 0.36073(5)
Ag2 Ag 0.58177(3) 0.71047(3) -0.21643(5)
C1 C 0.2044(4) 0.4912(4) 0.2419(6)
H1 H 0.1958 0.4637 0.2320
N1 N 0.2017(4) 0.4987(3) 0.2946(5)
C2 C 0.2110(9) 0.5373(6) 0.3059(7)
H2 H 0.2037 0.5427 0.3417
C3 C 0.2294(13) 0.5683(8) 0.2708(10)
H3 H 0.2400 0.5956 0.2836
C4 C 0.2331(8) 0.5606(5) 0.2146(7)
H4 H 0.2449 0.5820 0.1876
C5 C 0.2184(5) 0.5193(4) 0.2000(7)
C6 C 0.2210(4) 0.5060(5) 0.1385(5)
O1 O 0.2071(3) 0.4699(3) 0.1293(4)
N2 N 0.2359(4) 0.5354(4) 0.1005(5)
H5 H 0.2466 0.5612 0.1105
C7 C 0.2343(5) 0.5246(5) 0.0435(6)
H6 H 0.2379 0.5478 0.0199
H7 H 0.2070 0.5008 0.0351
C8 C 0.2684(4) 0.5136(4) 0.0285(8)
O2 O 0.2945(3) 0.5164(3) 0.0647(5)
N3 N 0.2666(4) 0.4998(4) -0.0240(5)
C9 C 0.2385(6) 0.4968(9) -0.0683(7)
H8 H 0.2098 0.4765 -0.0592
H9 H 0.2408 0.5237 -0.0761
C10 C 0.2538(5) 0.4832(8) -0.1150(8)
H10 H 0.2744 0.5072 -0.1363
H11 H 0.2309 0.4658 -0.1406
C11 C 0.2721(8) 0.4600(6) -0.0938(9)
H12 H 0.2930 0.4610 -0.1199
H13 H 0.2512 0.4311 -0.0865
C12 C 0.2909(5) 0.4823(5) -0.0412(7)
H14 H 0.2889 0.4623 -0.0122
C13 C 0.3360(6) 0.5151(6) -0.0486(7)
O3 O 0.3462(3) 0.5515(4) -0.0579(4)
N4 N 0.3628(5) 0.5034(5) -0.0495(6)
C14 C 0.3536(7) 0.4594(7) -0.0418(13)
H15 H 0.3326 0.4405 -0.0686
H16 H 0.3444 0.4495 -0.0032
C15 C 0.3974(7) 0.4639(7) -0.0544(11)
H17 H 0.4015 0.4445 -0.0311
H18 H 0.3993 0.4579 -0.0943
C16 C 0.4296(7) 0.5076(8) -0.0408(11)
H19 H 0.4550 0.5163 -0.0627
H20 H 0.4363 0.5110 -0.0004
C17 C 0.4069(5) 0.5333(7) -0.0594(9)
H21 H 0.4163 0.5584 -0.0358
C18 C 0.4139(5) 0.5443(6) -0.1210(7)
O4 O 0.3900(4) 0.5234(4) -0.1569(5)
N5 N 0.4500(4) 0.5776(4) -0.1310(5)
H22 H 0.4648 0.5901 -0.1013
C19 C 0.4676(4) 0.5954(5) -0.1833(7)
C20 C 0.4500(5) 0.5834(5) -0.2351(7)
H23 H 0.4231 0.5606 -0.2386
C21 C 0.4715(5) 0.6046(6) -0.2825(7)
H24 H 0.4606 0.5959 -0.3190
C22 C 0.5095(5) 0.6388(4) -0.2739(8)
H25 H 0.5233 0.6546 -0.3060
N6 N 0.5279(4) 0.6513(3) -0.2269(6)
C23 C 0.5073(5) 0.6308(5) -0.1810(7)
H26 H 0.5198 0.6402 -0.1455
C24 C 0.3701(5) 0.1656(4) 0.5056(5)
H27 H 0.3969 0.1845 0.4926
N7 N 0.3637(3) 0.1326(4) 0.5314(6)
C25 C 0.3278(5) 0.1053(7) 0.5495(14)
H28 H 0.3234 0.0820 0.5704
C26 C 0.2956(8) 0.1127(12) 0.5361(19)
H29 H 0.2682 0.0910 0.5412
C27 C 0.3007(8) 0.1457(10) 0.5181(18)
H30 H 0.2790 0.1516 0.5190
C28 C 0.3384(8) 0.1739(6) 0.4967(8)
C29 C 0.3545(9) 0.2152(7) 0.4685(9)
O5 O 0.3848(8) 0.2360(5) 0.4497(7)
N8 N 0.3226(11) 0.2247(9) 0.4611(8)
H31 H 0.2988 0.2065 0.4754
C30 C 0.3228(17) 0.2579(13) 0.4350(14)
H32 H 0.2954 0.2496 0.4197
H33 H 0.3428 0.2680 0.4039
C31 C 0.3362(11) 0.2957(11) 0.4844(15)
O6 O 0.3236(6) 0.2819(5) 0.5330(8)
N9 N 0.3389(8) 0.3253(7) 0.4613(8)
C32 C 0.3504(17) 0.3395(14) 0.4040(10)
H34 H 0.3285 0.3213 0.3777
H35 H 0.3760 0.3397 0.3937
C33 C 0.3570(14) 0.3832(13) 0.4017(11)
H36 H 0.3796 0.4010 0.3761
H37 H 0.3317 0.3831 0.3903
C34 C 0.3671(10) 0.3954(11) 0.4582(12)
H38 H 0.3607 0.4172 0.4671
H39 H 0.3969 0.4066 0.4640
C35 C 0.3425(11) 0.3581(9) 0.4983(10)
H40 H 0.3604 0.3605 0.5308
C36 C 0.3054(9) 0.3541(8) 0.5190(12)
O7 O 0.2733(6) 0.3309(5) 0.4930(9)
N10 N 0.3061(6) 0.3787(7) 0.5557(7)
C37 C 0.3425(8) 0.4085(10) 0.5893(10)
H41 H 0.3587 0.3960 0.6021
H42 H 0.3603 0.4334 0.5673
C38 C 0.3276(18) 0.416(2) 0.628(3)
H43 H 0.3466 0.4450 0.6393
H44 H 0.3257 0.3986 0.6597
C39 C 0.2844(10) 0.4113(12) 0.6185(10)
H45 H 0.2862 0.4367 0.6037
H46 H 0.2679 0.4031 0.6533
C40 C 0.2657(8) 0.3743(8) 0.5716(8)
H47 H 0.2457 0.3468 0.5872
C41 C 0.2484(5) 0.3889(5) 0.5281(7)
O8 O 0.2703(4) 0.4192(4) 0.4943(5)
N11 N 0.2095(6) 0.3707(5) 0.5275(6)
H48 H 0.1983 0.3503 0.5515
C42 C 0.1812(6) 0.3754(6) 0.4985(9)
C43 C 0.1378(7) 0.3437(8) 0.5014(12)
H49 H 0.1287 0.3206 0.5251
C44 C 0.1101(7) 0.3491(7) 0.4674(12)
H50 H 0.0816 0.3304 0.4708
C45 C 0.1227(5) 0.3792(6) 0.4313(8)
H51 H 0.1029 0.3812 0.4091
N12 N 0.1643(3) 0.4087(3) 0.4241(5)
C46 C 0.1927(4) 0.4060(4) 0.4571(6)
H52 H 0.2210 0.4253 0.4518
O9 O 0.5900(8) 0.6971(8) -0.1082(10)
Ag2B Ag 0.12870(4) 0.41823(3) 0.11690(5)
Ag2H Ag 0.41823(3) 0.12870(4) 0.54976(5)
O1A O 0.5301(3) 0.7372(4) -0.2040(4)
N7H N 0.6363(3) 0.7689(5) -0.1981(6)
C48? C 0.3282(11) 0.4402(11) 0.597(2)
H53? H 0.3450 0.4613 0.6254
H54? H 0.3283 0.4536 0.5616
O20? O 0.7569(11) 0.8080(11) 0.9947(14)
O21? O 0.7255(13) 0.7255(13) 0.8333
O22? O 0.6695(13) 0.3558(13) 0.5559(17)
F4? F 0.6214(8) 0.4094(8) 0.0387(11)
F5? F 0.5639(9) 0.4044(12) 0.0723(18)
F6? F 0.594(2) 0.3755(14) 0.117(2)
C49? C 0.5964(5) 0.4036(5) 0.0833
S2? S 0.6305(8) 0.4581(7) 0.1147(11)
O23? O 0.6653(15) 0.4365(18) 0.132(3)
O24? O 0.6483(9) 0.4887(8) 0.0758(12)
O25? O 0.6170(13) 0.4618(12) 0.1656(14)
loop_
_geom_bond_atom_site_label_1
_geom_bond_atom_site_label_2
_geom_bond_site_symmetry_1
_geom_bond_site_symmetry_2
Ag1 N1 1_555 1_555
Ag2 N6 1_555 1_555
C1 H1 1_555 1_555
N1 C1 1_555 1_555
C2 N1 1_555 1_555
H2 C2 1_555 1_555
C3 C2 1_555 1_555
H3 C3 1_555 1_555
C4 C3 1_555 1_555
H4 C4 1_555 1_555
C5 C1 1_555 1_555
C6 C5 1_555 1_555
O1 C6 1_555 1_555
N2 C6 1_555 1_555
H5 N2 1_555 1_555
C7 N2 1_555 1_555
H6 C7 1_555 1_555
H7 C7 1_555 1_555
C8 C7 1_555 1_555
O2 C8 1_555 1_555
N3 C8 1_555 1_555
C9 N3 1_555 1_555
H8 C9 1_555 1_555
H9 C9 1_555 1_555
C10 C9 1_555 1_555
H10 C10 1_555 1_555
H11 C10 1_555 1_555
C11 C10 1_555 1_555
H12 C11 1_555 1_555
H13 C11 1_555 1_555
C12 N3 1_555 1_555
H14 C12 1_555 1_555
C13 C12 1_555 1_555
O3 C13 1_555 1_555
N4 C13 1_555 1_555
C14 N4 1_555 1_555
H15 C14 1_555 1_555
H16 C14 1_555 1_555
C15 C14 1_555 1_555
H17 C15 1_555 1_555
H18 C15 1_555 1_555
C16 C15 1_555 1_555
H19 C16 1_555 1_555
H20 C16 1_555 1_555
C17 N4 1_555 1_555
H21 C17 1_555 1_555
C18 C17 1_555 1_555
O4 C18 1_555 1_555
N5 C18 1_555 1_555
H22 N5 1_555 1_555
C19 N5 1_555 1_555
C20 C19 1_555 1_555
H23 C20 1_555 1_555
C21 C20 1_555 1_555
H24 C21 1_555 1_555
C22 C21 1_555 1_555
H25 C22 1_555 1_555
N6 C22 1_555 1_555
C23 C19 1_555 1_555
H26 C23 1_555 1_555
C24 H27 1_555 1_555
N7 C24 1_555 1_555
C25 N7 1_555 1_555
H28 C25 1_555 1_555
C26 C25 1_555 1_555
H29 C26 1_555 1_555
C27 C26 1_555 1_555
H30 C27 1_555 1_555
C28 C24 1_555 1_555
C29 C28 1_555 1_555
O5 C29 1_555 1_555
N8 C29 1_555 1_555
H31 N8 1_555 1_555
C30 N8 1_555 1_555
H32 C30 1_555 1_555
H33 C30 1_555 1_555
C31 C30 1_555 1_555
O6 C31 1_555 1_555
N9 C31 1_555 1_555
C32 N9 1_555 1_555
H34 C32 1_555 1_555
H35 C32 1_555 1_555
C33 C32 1_555 1_555
H36 C33 1_555 1_555
H37 C33 1_555 1_555
C34 C33 1_555 1_555
H38 C34 1_555 1_555
H39 C34 1_555 1_555
C35 N9 1_555 1_555
H40 C35 1_555 1_555
C36 C35 1_555 1_555
O7 C36 1_555 1_555
N10 C36 1_555 1_555
C37 N10 1_555 1_555
H41 C37 1_555 1_555
H42 C37 1_555 1_555
C38 C37 1_555 1_555
H43 C38 1_555 1_555
H44 C38 1_555 1_555
C39 C38 1_555 1_555
H45 C39 1_555 1_555
H46 C39 1_555 1_555
C40 N10 1_555 1_555
H47 C40 1_555 1_555
C41 C40 1_555 1_555
O8 C41 1_555 1_555
N11 C41 1_555 1_555
H48 N11 1_555 1_555
C42 N11 1_555 1_555
C43 C42 1_555 1_555
H49 C43 1_555 1_555
C44 C43 1_555 1_555
H50 C44 1_555 1_555
C45 C44 1_555 1_555
H51 C45 1_555 1_555
N12 Ag1 1_555 1_555
C46 C42 1_555 1_555
H52 C46 1_555 1_555
O9 Ag2 1_555 1_555
F1 C47 1_555 1_555
F2 C47 1_555 1_555
F3 C47 1_555 1_555
C47 S1 1_555 1_555
S1 O10 1_555 1_555
O11 S1 1_555 1_555
O12 S1 1_555 1_555
Ag2B O1 1_555 1_555
Ag2H N7 1_555 1_555
O1A Ag2 1_555 1_555
N7H Ag2 1_555 1_555
C4 C5 1_555 1_555
C11 C12 1_555 1_555
C16 C17 1_555 1_555
N6 C23 1_555 1_555
C27 C28 1_555 1_555
C34 C35 1_555 1_555
C39 C40 1_555 1_555
C45 N12 1_555 1_555
N12 C46 1_555 1_555

#END
