
#######################################################################
#
#                 Cambridge Crystallographic Data Centre
#                                CCDC 
#
#######################################################################
#
# If this CIF has been generated from an entry in the Cambridge 
# Structural Database, then it will include bibliographic, chemical, 
# crystal, experimental, refinement or atomic coordinate data resulting 
# from the CCDC's data processing and validation procedures.
#
#######################################################################

data_POGLEC
_symmetry_cell_setting           monoclinic
_symmetry_space_group_name_H-M   'P 21/n'
_symmetry_Int_Tables_number      14
_space_group_name_Hall           '-P 2yn'
loop_
_symmetry_equiv_pos_site_id
_symmetry_equiv_pos_as_xyz
1 x,y,z
2 1/2-x,1/2+y,1/2-z
3 -x,-y,-z
4 1/2+x,1/2-y,1/2+z
_cell_length_a                   12.529(4)
_cell_length_b                   17.186(5)
_cell_length_c                   9.531(3)
_cell_angle_alpha                90
_cell_angle_beta                 92.49(2)
_cell_angle_gamma                90
_cell_volume                     2050.31
loop_
_atom_site_label
_atom_site_type_symbol
_atom_site_fract_x
_atom_site_fract_y
_atom_site_fract_z
Cd1 Cd 0.4205 0.2387 0.3553
N1 N 0.3195 0.3282 0.4774
N2 N 0.2806 0.1484 0.3553
O1 O 0.4849 0.1958 0.5924
C1 C 0.7717 0.3902 0.3640
O2 O 0.4470 0.2054 0.1134
O3 O 0.5417 0.1331 0.4168
N3 N 0.5725 0.3151 0.3488
N4 N 0.3921 0.2599 0.0599
N5 N 0.5408 0.1412 0.5482
O4 O 0.3852 0.2700 -0.0668
C2 C 0.8815 0.4274 0.3729
C3 C 0.1823 0.4251 0.4714
C4 C 0.2966 0.0724 0.3847
O5 O 0.5888 0.0970 0.6290
O6 O 0.3453 0.3033 0.1433
C5 C 0.2487 0.3738 0.4069
C6 C 0.7350 0.3512 0.2433
C7 C 0.3227 0.3338 0.6179
C8 C 0.2140 0.0208 0.4042
C9 C 0.1796 0.1732 0.3421
C10 C 0.0931 0.1249 0.3604
C11 C 0.8818 0.5098 0.3092
C12 C 0.6366 0.3141 0.2408
C13 C 0.2596 0.3850 0.6894
C14 C 0.7052 0.3915 0.4760
C15 C 0.1875 0.4331 0.6167
C16 C 0.1094 0.0473 0.3933
C17 C 0.0162 -0.0053 0.4240
C18 C 0.6063 0.3545 0.4643
H1 H 0.3669 0.0576 0.3979
H2 H 0.3697 0.2945 0.6740
H3 H 0.2563 0.3872 0.7852
H4 H 0.2349 -0.0281 0.4208
H5 H 0.1694 0.2233 0.3239
H6 H 0.0321 0.1454 0.3517
H7 H 0.2438 0.3721 0.3116
H8 H 0.1306 0.4562 0.4117
H9 H 0.0287 -0.0573 0.3997
H10 H -0.0518 -0.0013 0.3375
C15B C 0.8125 0.5669 0.3833
C11B C 0.1182 0.4902 0.6908
C17B C -0.0162 0.0053 0.5760
C3B C 0.8177 0.5749 0.5286
C13B C 0.7404 0.6150 0.3106
C2B C 0.1185 0.5726 0.6271
C16B C -0.1094 -0.0473 0.6067
H9B H -0.0287 0.0573 0.6003
H10B H 0.0518 0.0013 0.6625
C5B C 0.7513 0.6262 0.5931
H8B H 0.8694 0.5438 0.5883
C7B C 0.6773 0.6662 0.3821
H3B H 0.7437 0.6128 0.2148
C1B C 0.2283 0.6098 0.6360
C8B C -0.2140 -0.0208 0.5958
C10B C -0.0931 -0.1249 0.6396
N1B N 0.6805 0.6718 0.5226
H7B H 0.7562 0.6279 0.6884
H2B H 0.6303 0.7055 0.3260
C6B C 0.2650 0.6488 0.7567
C14B C 0.2948 0.6085 0.5240
C4B C -0.2966 -0.0724 0.6153
H4B H -0.2349 0.0281 0.5792
C9B C -0.1796 -0.1732 0.6579
H6B H -0.0321 -0.1454 0.6483
Cd1B Cd 0.5795 0.7613 0.6447
C12B C 0.3634 0.6859 0.7592
C18B C 0.3937 0.6455 0.5357
N2B N -0.2806 -0.1484 0.6447
H1B H -0.3669 -0.0576 0.6021
H5B H -0.1694 -0.2233 0.6761
N2B_2 N 0.7194 0.8516 0.6447
O1B O 0.5151 0.8042 0.4076
O2B O 0.5530 0.7946 0.8866
O3B O 0.4583 0.8669 0.5832
N3B N 0.4275 0.6849 0.6512
O6B O 0.6547 0.6967 0.8567
Cd1B_2 Cd -0.4205 -0.2387 0.6447
N5B N 0.4592 0.8588 0.4518
N4B N 0.6079 0.7401 0.9401
O5B O 0.4112 0.9030 0.3710
O4B O 0.6148 0.7300 1.0668
loop_
_geom_bond_atom_site_label_1
_geom_bond_atom_site_label_2
_geom_bond_site_symmetry_1
_geom_bond_site_symmetry_2
Cd1 N1 1_555 1_555
N1 C5 1_555 1_555
N2 Cd1 1_555 1_555
O1 Cd1 1_555 1_555
C1 C2 1_555 1_555
O2 Cd1 1_555 1_555
O3 Cd1 1_555 1_555
N3 Cd1 1_555 1_555
N4 O2 1_555 1_555
N5 O1 1_555 1_555
O4 N4 1_555 1_555
C2 C11 1_555 1_555
C3 C5 1_555 1_555
C4 N2 1_555 1_555
O5 N5 1_555 1_555
O6 Cd1 1_555 1_555
C5 H7 1_555 1_555
C6 C1 1_555 1_555
C7 N1 1_555 1_555
C8 C4 1_555 1_555
C9 N2 1_555 1_555
C10 C9 1_555 1_555
C11 C15B 1_555 1_555
C12 N3 1_555 1_555
C13 C7 1_555 1_555
C14 C1 1_555 1_555
C15 C3 1_555 1_555
C16 C8 1_555 1_555
C17 C16 1_555 1_555
C18 N3 1_555 1_555
H1 C4 1_555 1_555
H2 C7 1_555 1_555
H3 C13 1_555 1_555
H4 C8 1_555 1_555
H5 C9 1_555 1_555
H6 C10 1_555 1_555
H8 C3 1_555 1_555
H9 C17 1_555 1_555
H10 C17 1_555 1_555
C15B C3B 1_555 1_555
C11B C15 1_555 1_555
C17B C17 1_555 1_555
C3B C5B 1_555 1_555
C13B C15B 1_555 1_555
C2B C11B 1_555 1_555
C16B C17B 1_555 1_555
H9B C17B 1_555 1_555
H10B C17B 1_555 1_555
C5B N1B 1_555 1_555
H8B C3B 1_555 1_555
C7B C13B 1_555 1_555
H3B C13B 1_555 1_555
C1B C2B 1_555 1_555
C8B C16B 1_555 1_555
C10B C16B 1_555 1_555
N1B C7B 1_555 1_555
H7B C5B 1_555 1_555
H2B C7B 1_555 1_555
C6B C1B 1_555 1_555
C14B C1B 1_555 1_555
C4B C8B 1_555 1_555
H4B C8B 1_555 1_555
C9B C10B 1_555 1_555
H6B C10B 1_555 1_555
Cd1B N1B 1_555 1_555
C12B C6B 1_555 1_555
C18B C14B 1_555 1_555
N2B C4B 1_555 1_555
H1B C4B 1_555 1_555
H5B C9B 1_555 1_555
N2B_2 Cd1B 1_555 1_555
O1B Cd1B 1_555 1_555
O2B Cd1B 1_555 1_555
O3B Cd1B 1_555 1_555
N3B Cd1B 1_555 1_555
O6B Cd1B 1_555 1_555
Cd1B_2 N2B 1_555 1_555
N5B O1B 1_555 1_555
N4B O2B 1_555 1_555
O5B N5B 1_555 1_555
O4B N4B 1_555 1_555
O3 N5 1_555 1_555
N4 O6 1_555 1_555
C6 C12 1_555 1_555
C10 C16 1_555 1_555
C13 C15 1_555 1_555
C14 C18 1_555 1_555
C9B N2B 1_555 1_555
C12B N3B 1_555 1_555
C18B N3B 1_555 1_555
O3B N5B 1_555 1_555
O6B N4B 1_555 1_555

#END
