
#######################################################################
#
#                 Cambridge Crystallographic Data Centre
#                                CCDC 
#
#######################################################################
#
# If this CIF has been generated from an entry in the Cambridge 
# Structural Database, then it will include bibliographic, chemical, 
# crystal, experimental, refinement or atomic coordinate data resulting 
# from the CCDC's data processing and validation procedures.
#
#######################################################################

data_POGQEI
_symmetry_cell_setting           monoclinic
_symmetry_space_group_name_H-M   'P 21/c'
_symmetry_Int_Tables_number      14
_space_group_name_Hall           '-P 2ybc'
loop_
_symmetry_equiv_pos_site_id
_symmetry_equiv_pos_as_xyz
1 x,y,z
2 -x,1/2+y,1/2-z
3 -x,-y,-z
4 x,1/2-y,1/2+z
_cell_length_a                   9.2083(4)
_cell_length_b                   12.2396(5)
_cell_length_c                   8.8356(4)
_cell_angle_alpha                90
_cell_angle_beta                 106.978(5)
_cell_angle_gamma                90
_cell_volume                     952.423
loop_
_atom_site_label
_atom_site_type_symbol
_atom_site_fract_x
_atom_site_fract_y
_atom_site_fract_z
Ag1 Ag 0.084531(19) 0.204054(13) 0.830901(19)
O1 O 0.19560(18) -0.30261(11) 0.94999(18)
O2 O 0.17983(17) 0.32917(13) 1.07742(17)
O3 O 0.36050(19) 0.31098(14) 1.29526(18)
O4 O 0.4095(2) 0.37684(18) 1.0891(2)
N1 N 0.12553(19) 0.02440(14) 0.89500(19)
N2 N -0.0697(2) -0.01948(16) 0.6747(2)
H1 H -0.1244 -0.0665 0.6106
H2 H -0.0876 0.0492 0.6589
N3 N 0.06492(18) -0.16177(16) 0.81593(18)
N4 N 0.3202(2) 0.33968(16) 1.1540(2)
C1 C 0.0424(2) -0.05282(18) 0.7977(2)
C2 C 0.2399(2) -0.01143(17) 1.0175(2)
C3 C 0.3357(3) 0.07198(19) 1.1240(3)
H3 H 0.4086 0.0361 1.2097
H4 H 0.2724 0.1184 1.1654
H5 H 0.3877 0.1152 1.0654
C4 C 0.2706(2) -0.12032(18) 1.0460(2)
H6 H 0.3492 -0.1439 1.1321
C5 C 0.1794(2) -0.19383(17) 0.9407(2)
C6 C 0.3219(3) -0.3467(2) 1.0742(3)
H7 H 0.3256 -0.4246 1.0623
H8 H 0.3087 -0.3299 1.1755
H9 H 0.4150 -0.3150 1.0670
Ag1C Ag 0.084531(19) 0.295946(13) 1.330901(19)
Ag1A Ag -0.084531(19) -0.295946(13) 0.669099(19)
O2C O 0.17983(17) 0.17083(13) 0.57742(17)
O3C O 0.36050(19) 0.18902(14) 0.79526(18)
N3A N -0.06492(18) 0.33823(16) 0.68407(18)
loop_
_geom_bond_atom_site_label_1
_geom_bond_atom_site_label_2
_geom_bond_site_symmetry_1
_geom_bond_site_symmetry_2
Ag1 O2 1_555 1_555
O1 C5 1_555 1_555
O2 N4 1_555 1_555
O3 N4 1_555 1_555
O4 N4 1_555 1_555
N1 Ag1 1_555 1_555
N2 H1 1_555 1_555
H2 N2 1_555 1_555
N3 C1 1_555 1_555
C1 N1 1_555 1_555
C2 N1 1_555 1_555
C3 C2 1_555 1_555
H3 C3 1_555 1_555
H4 C3 1_555 1_555
H5 C3 1_555 1_555
C4 C2 1_555 1_555
H6 C4 1_555 1_555
C5 N3 1_555 1_555
C6 O1 1_555 1_555
H7 C6 1_555 1_555
H8 C6 1_555 1_555
H9 C6 1_555 1_555
Ag1C O2 1_555 1_555
Ag1A N3 1_555 1_555
O2C Ag1 1_555 1_555
O3C Ag1 1_555 1_555
N3A Ag1 1_555 1_555
O3 Ag1C 1_555 1_555
N2 C1 1_555 1_555
C4 C5 1_555 1_555

#END
