
#######################################################################
#
#                 Cambridge Crystallographic Data Centre
#                                CCDC 
#
#######################################################################
#
# If this CIF has been generated from an entry in the Cambridge 
# Structural Database, then it will include bibliographic, chemical, 
# crystal, experimental, refinement or atomic coordinate data resulting 
# from the CCDC's data processing and validation procedures.
#
#######################################################################

data_POGQOS
_symmetry_cell_setting           orthorhombic
_symmetry_space_group_name_H-M   'P b c a'
_symmetry_Int_Tables_number      61
_space_group_name_Hall           '-P 2ac 2ab'
loop_
_symmetry_equiv_pos_site_id
_symmetry_equiv_pos_as_xyz
1 x,y,z
2 1/2-x,-y,1/2+z
3 1/2+x,1/2-y,-z
4 -x,1/2+y,1/2-z
5 -x,-y,-z
6 1/2+x,y,1/2-z
7 1/2-x,1/2+y,z
8 x,1/2-y,1/2+z
_cell_length_a                   8.9373(7)
_cell_length_b                   12.8647(11)
_cell_length_c                   31.145(3)
_cell_angle_alpha                90
_cell_angle_beta                 90
_cell_angle_gamma                90
_cell_volume                     3580.92
loop_
_atom_site_label
_atom_site_type_symbol
_atom_site_fract_x
_atom_site_fract_y
_atom_site_fract_z
Cu1 Cu 0.01093(7) 0.19813(5) 0.431515(19)
O1 O 0.1033(4) 0.3073(3) 0.46681(10)
H1 H 0.1581 0.2581 0.4830
H2 H 0.0281 0.3419 0.4900
O2 O -0.0337(4) 0.1141(3) 0.48305(10)
H3 H -0.0970 0.0653 0.4820
H4 H -0.0713 0.1482 0.5085
O3 O -0.2151(4) 0.2842(3) 0.43431(12)
H5 H -0.2446 0.3382 0.4499
H6 H -0.3136 0.2583 0.4320
S1 S 0.2256(2) 0.33993(12) 0.20008(5)
C1 C 0.3539(7) 0.4031(5) 0.23589(17)
H9 H 0.4109 0.3498 0.2506
H10 H 0.4238 0.4430 0.2187
N1 N 0.0780(5) 0.2822(3) 0.38023(13)
S2 S 0.41406(15) 0.17595(10) 0.42882(4)
S3 S 0.27625(19) 0.48784(13) 0.27560(5)
O5 O 0.5391(5) 0.1333(3) 0.45404(13)
O6 O 0.3874(4) 0.2838(3) 0.44482(11)
O7 O 0.4571(4) 0.1780(3) 0.38353(12)
O8 O 0.2797(4) 0.1144(3) 0.43518(12)
C2 C 0.0730(6) 0.3869(4) 0.38059(17)
H11 H 0.0274 0.4191 0.4039
C3 C 0.1302(6) 0.4489(4) 0.34920(17)
H12 H 0.1226 0.5208 0.3512
C4 C 0.2004(6) 0.4027(4) 0.31409(16)
C5 C 0.2037(6) 0.2953(4) 0.31232(16)
H13 H 0.2455 0.2613 0.2889
C6 C 0.1438(6) 0.2394(4) 0.34611(17)
H14 H 0.1497 0.1673 0.3450
N2 N 0.0684(5) 0.5865(3) 0.10628(13)
C7 C 0.0102(6) 0.4903(4) 0.10727(16)
H15 H -0.0658 0.4737 0.0881
C8 C 0.0582(6) 0.4154(4) 0.13543(16)
H16 H 0.0164 0.3492 0.1348
C9 C 0.1695(7) 0.4394(4) 0.16477(17)
C10 C 0.2318(6) 0.5373(5) 0.16324(17)
H17 H 0.3089 0.5553 0.1818
C11 C 0.1783(6) 0.6081(4) 0.13381(17)
H18 H 0.2209 0.6740 0.1331
Cu1C Cu -0.01093(7) 0.69813(5) 0.068485(19)
N2C N -0.0684(5) 0.0865(3) 0.39372(13)
O4 O 0.2318(4) 0.5250(3) 0.52070(12)
H7 H 0.2077 0.5722 0.4978
H8 H 0.1470 0.4869 0.5229
loop_
_geom_bond_atom_site_label_1
_geom_bond_atom_site_label_2
_geom_bond_site_symmetry_1
_geom_bond_site_symmetry_2
Cu1 O1 1_555 1_555
O1 H1 1_555 1_555
H2 O1 1_555 1_555
O2 Cu1 1_555 1_555
H3 O2 1_555 1_555
H4 O2 1_555 1_555
O3 Cu1 1_555 1_555
H5 O3 1_555 1_555
H6 O3 1_555 1_555
O4 H7 1_555 1_555
H8 O4 1_555 1_555
S1 C1 1_555 1_555
C1 H9 1_555 1_555
H10 C1 1_555 1_555
N1 Cu1 1_555 1_555
S2 O5 1_555 1_555
S3 C1 1_555 1_555
O6 S2 1_555 1_555
O7 S2 1_555 1_555
O8 Cu1 1_555 1_555
C2 N1 1_555 1_555
H11 C2 1_555 1_555
C3 C2 1_555 1_555
H12 C3 1_555 1_555
C4 S3 1_555 1_555
C5 C4 1_555 1_555
H13 C5 1_555 1_555
C6 N1 1_555 1_555
H14 C6 1_555 1_555
N2 C7 1_555 1_555
C7 H15 1_555 1_555
C8 C7 1_555 1_555
H16 C8 1_555 1_555
C9 S1 1_555 1_555
C10 C9 1_555 1_555
H17 C10 1_555 1_555
C11 N2 1_555 1_555
H18 C11 1_555 1_555
Cu1C N2 1_555 1_555
N2C Cu1 1_555 1_555
S2 O8 1_555 1_555
C3 C4 1_555 1_555
C5 C6 1_555 1_555
C8 C9 1_555 1_555
C10 C11 1_555 1_555

#END
