
#######################################################################
#
#                 Cambridge Crystallographic Data Centre
#                                CCDC 
#
#######################################################################
#
# If this CIF has been generated from an entry in the Cambridge 
# Structural Database, then it will include bibliographic, chemical, 
# crystal, experimental, refinement or atomic coordinate data resulting 
# from the CCDC's data processing and validation procedures.
#
#######################################################################

data_POGQUY
_symmetry_cell_setting           monoclinic
_symmetry_space_group_name_H-M   'C 2/c'
_symmetry_Int_Tables_number      15
_space_group_name_Hall           '-C 2yn'
loop_
_symmetry_equiv_pos_site_id
_symmetry_equiv_pos_as_xyz
1 x,y,z
2 1/2+x,1/2+y,z
3 -x,y,1/2-z
4 1/2-x,1/2+y,1/2-z
5 -x,-y,-z
6 1/2-x,1/2-y,-z
7 x,-y,1/2+z
8 1/2+x,1/2-y,1/2+z
_cell_length_a                   8.553(2)
_cell_length_b                   20.449(5)
_cell_length_c                   16.694(4)
_cell_angle_alpha                90
_cell_angle_beta                 96.372(5)
_cell_angle_gamma                90
_cell_volume                     2901.75
loop_
_atom_site_label
_atom_site_type_symbol
_atom_site_fract_x
_atom_site_fract_y
_atom_site_fract_z
Cu1 Cu 0.0000 0.38322(6) 0.2500
S1 S 0.6825(3) 0.17153(10) 0.15251(16)
S2 S 0.3599(3) 0.16205(12) 0.05615(14)
N1 N 0.1169(8) 0.3164(3) 0.1925(4)
N2 N 0.6314(9) -0.0418(3) 0.2095(6)
C1 C 0.2772(10) 0.2228(4) 0.1096(5)
C2 C 0.6228(11) 0.0412(4) 0.1090(5)
H1 H 0.6032 0.0527 0.0549
C3 C 0.1173(10) 0.2177(4) 0.1160(5)
H2 H 0.0618 0.1818 0.0935
C4 C 0.2712(10) 0.3208(4) 0.1882(5)
H3 H 0.3263 0.3557 0.2135
C5 C 0.0402(10) 0.2647(4) 0.1549(5)
H4 H -0.0681 0.2612 0.1555
C6 C 0.3521(10) 0.2757(4) 0.1477(5)
H5 H 0.4597 0.2811 0.1460
C7 C 0.7164(10) 0.0658(4) 0.2449(6)
H6 H 0.7597 0.0948 0.2841
C8 C 0.6950(10) 0.0010(4) 0.2635(6)
H7 H 0.7261 -0.0133 0.3157
C9 C 0.5653(10) 0.1834(4) 0.0598(6)
H8 H 0.6106 0.1581 0.0190
H9 H 0.5721 0.2291 0.0451
C10 C 0.6029(12) -0.0225(5) 0.1341(7)
H10 H 0.5675 -0.0534 0.0954
C11 C 0.6724(9) 0.0870(4) 0.1665(6)
N3 N -0.3009(9) 0.3727(5) 0.0960(8)
O1 O -0.3775 0.3494 0.0376
O2 O -0.1750 0.3878 0.1071
O3 O -0.4164 0.3974 0.1322
Cu1A Cu 0.5000 -0.11678(6) 0.2500
Cu1A_2 Cu -0.5000 -0.11678(6) 0.2500
S1B S -0.6825(3) 0.17153(10) 0.34749(16)
S2B S -0.3599(3) 0.16205(12) 0.44385(14)
N1B N -0.1169(8) 0.3164(3) 0.3075(4)
N2B N -0.6314(9) -0.0418(3) 0.2905(6)
N2A N 0.1314(9) 0.4582(3) 0.2095(6)
N2C N -0.1314(9) 0.4582(3) 0.2905(6)
C1B C -0.2772(10) 0.2228(4) 0.3904(5)
C2B C -0.6228(11) 0.0412(4) 0.3910(5)
H1B H -0.6032 0.0527 0.4451
C3B C -0.1173(10) 0.2177(4) 0.3840(5)
H2B H -0.0618 0.1818 0.4065
C4B C -0.2712(10) 0.3208(4) 0.3118(5)
H3B H -0.3263 0.3557 0.2865
C5B C -0.0402(10) 0.2647(4) 0.3451(5)
H4B H 0.0681 0.2612 0.3445
C6B C -0.3521(10) 0.2757(4) 0.3523(5)
H5B H -0.4597 0.2811 0.3540
C7B C -0.7164(10) 0.0658(4) 0.2551(6)
H6B H -0.7597 0.0948 0.2159
C8B C -0.6950(10) 0.0010(4) 0.2365(6)
H7B H -0.7261 -0.0133 0.1843
C9B C -0.5653(10) 0.1834(4) 0.4402(6)
H8B H -0.6106 0.1581 0.4810
H9B H -0.5721 0.2291 0.4549
C10B C -0.6029(12) -0.0225(5) 0.3659(7)
H10B H -0.5675 -0.0534 0.4046
C11B C -0.6724(9) 0.0870(4) 0.3335(6)
N3B N 0.3009(9) 0.3727(5) 0.4040(8)
O1B O 0.3775 0.3494 0.4624
O2B O 0.1750 0.3878 0.3929
O3B O 0.4164 0.3974 0.3678
loop_
_geom_bond_atom_site_label_1
_geom_bond_atom_site_label_2
_geom_bond_site_symmetry_1
_geom_bond_site_symmetry_2
Cu1 N1 1_555 1_555
S1 C9 1_555 1_555
S2 C1 1_555 1_555
N1 C4 1_555 1_555
N2 C8 1_555 1_555
C1 C3 1_555 1_555
C2 H1 1_555 1_555
C3 H2 1_555 1_555
C4 H3 1_555 1_555
C5 N1 1_555 1_555
H4 C5 1_555 1_555
C6 C1 1_555 1_555
H5 C6 1_555 1_555
C7 H6 1_555 1_555
C8 C7 1_555 1_555
H7 C8 1_555 1_555
C9 S2 1_555 1_555
H8 C9 1_555 1_555
H9 C9 1_555 1_555
C10 N2 1_555 1_555
H10 C10 1_555 1_555
C11 S1 1_555 1_555
N3 O1 1_555 1_555
O2 Cu1 1_555 1_555
O3 N3 1_555 1_555
Cu1A N2 1_555 1_555
Cu1A_2 N2B 1_555 1_555
S1B C9B 1_555 1_555
S2B C1B 1_555 1_555
N1B Cu1 1_555 1_555
N2B C8B 1_555 1_555
N2A Cu1 1_555 1_555
N2C Cu1 1_555 1_555
C1B C3B 1_555 1_555
C2B H1B 1_555 1_555
C3B H2B 1_555 1_555
C4B N1B 1_555 1_555
H3B C4B 1_555 1_555
C5B N1B 1_555 1_555
H4B C5B 1_555 1_555
C6B C1B 1_555 1_555
H5B C6B 1_555 1_555
C7B H6B 1_555 1_555
C8B C7B 1_555 1_555
H7B C8B 1_555 1_555
C9B S2B 1_555 1_555
H8B C9B 1_555 1_555
H9B C9B 1_555 1_555
C10B N2B 1_555 1_555
H10B C10B 1_555 1_555
C11B S1B 1_555 1_555
N3B O1B 1_555 1_555
O2B Cu1 1_555 1_555
O3B N3B 1_555 1_555
C2 C10 1_555 1_555
C2 C11 1_555 1_555
C3 C5 1_555 1_555
C4 C6 1_555 1_555
C7 C11 1_555 1_555
N3 O2 1_555 1_555
C2B C10B 1_555 1_555
C2B C11B 1_555 1_555
C3B C5B 1_555 1_555
C4B C6B 1_555 1_555
C7B C11B 1_555 1_555
N3B O2B 1_555 1_555

#END
