
#######################################################################
#
#                 Cambridge Crystallographic Data Centre
#                                CCDC 
#
#######################################################################
#
# If this CIF has been generated from an entry in the Cambridge 
# Structural Database, then it will include bibliographic, chemical, 
# crystal, experimental, refinement or atomic coordinate data resulting 
# from the CCDC's data processing and validation procedures.
#
#######################################################################

data_POGQIM
_symmetry_cell_setting           monoclinic
_symmetry_space_group_name_H-M   'C 2/c'
_symmetry_Int_Tables_number      15
_space_group_name_Hall           '-C 2yn'
loop_
_symmetry_equiv_pos_site_id
_symmetry_equiv_pos_as_xyz
1 x,y,z
2 1/2+x,1/2+y,z
3 -x,y,1/2-z
4 1/2-x,1/2+y,1/2-z
5 -x,-y,-z
6 1/2-x,1/2-y,-z
7 x,-y,1/2+z
8 1/2+x,1/2-y,1/2+z
_cell_length_a                   15.0128(8)
_cell_length_b                   11.3189(3)
_cell_length_c                   12.3862(5)
_cell_angle_alpha                90
_cell_angle_beta                 117.096(5)
_cell_angle_gamma                90
_cell_volume                     1873.76
loop_
_atom_site_label
_atom_site_type_symbol
_atom_site_fract_x
_atom_site_fract_y
_atom_site_fract_z
Ag1 Ag 0.133770(18) 0.578838(19) 0.54633(2)
C1 C 0.1238(2) 0.3323(2) 0.4330(3)
C2 C 0.1214(2) 0.4706(3) 0.2971(3)
C3 C 0.1242(2) 0.2743(2) 0.2523(3)
C4 C 0.12449(19) 0.2411(2) 0.3602(2)
H1 H 0.1251 0.1624 0.3818
C5 C 0.1297(3) 0.0756(2) 0.1966(3)
H2 H 0.1305 0.0318 0.1307
H3 H 0.0719 0.0536 0.2061
H4 H 0.1891 0.0584 0.2700
C6 C 0.1224(2) 0.1949(2) 0.5781(3)
H5 H 0.1228 0.1945 0.6558
H6 H 0.1803 0.1537 0.5837
H7 H 0.0630 0.1563 0.5197
N1 N 0.12268(17) 0.4466(2) 0.4052(2)
N2 N 0.12298(18) 0.3872(2) 0.2195(2)
N3 N 0.1179(2) 0.5818(2) 0.2647(2)
H8 H 0.1166 0.5993 0.1964
H9 H 0.1168 0.6371 0.3117
N4 N 0.3664(2) 0.6534(2) 0.5948(2)
O1 O 0.29790(17) 0.67591(19) 0.6231(2)
O2 O 0.42473(15) 0.73438(18) 0.59853(19)
O3 O 0.3770(2) 0.55099(19) 0.5655(2)
O4 O 0.12588(16) 0.19979(17) 0.17112(18)
O5 O 0.12412(15) 0.31470(17) 0.54087(17)
Ag1F Ag 0.133770(18) 0.421162(19) 0.04633(2)
Ag1E Ag 0.366230(18) 0.921162(19) 0.45367(2)
N2F N 0.12298(18) 0.6128(2) 0.7195(2)
O2E O 0.07527(15) 0.76562(18) 0.40147(19)
loop_
_geom_bond_atom_site_label_1
_geom_bond_atom_site_label_2
_geom_bond_site_symmetry_1
_geom_bond_site_symmetry_2
Ag1 N1 1_555 1_555
C1 C4 1_555 1_555
C2 N1 1_555 1_555
C3 C4 1_555 1_555
C4 H1 1_555 1_555
C5 H2 1_555 1_555
H3 C5 1_555 1_555
H4 C5 1_555 1_555
C6 H5 1_555 1_555
H6 C6 1_555 1_555
H7 C6 1_555 1_555
N1 C1 1_555 1_555
N2 C2 1_555 1_555
N3 C2 1_555 1_555
H8 N3 1_555 1_555
H9 N3 1_555 1_555
N4 O1 1_555 1_555
O1 Ag1 1_555 1_555
O2 N4 1_555 1_555
O3 N4 1_555 1_555
O4 C3 1_555 1_555
O5 C1 1_555 1_555
Ag1F N2 1_555 1_555
Ag1E O2 1_555 1_555
N2F Ag1 1_555 1_555
O2E Ag1 1_555 1_555
C3 N2 1_555 1_555
C5 O4 1_555 1_555
C6 O5 1_555 1_555

#END
