
#######################################################################
#
#                 Cambridge Crystallographic Data Centre
#                                CCDC 
#
#######################################################################
#
# If this CIF has been generated from an entry in the Cambridge 
# Structural Database, then it will include bibliographic, chemical, 
# crystal, experimental, refinement or atomic coordinate data resulting 
# from the CCDC's data processing and validation procedures.
#
#######################################################################

data_POHBEU
_symmetry_cell_setting           monoclinic
_symmetry_space_group_name_H-M   'P 21/c'
_symmetry_Int_Tables_number      14
_space_group_name_Hall           '-P 2ybc'
loop_
_symmetry_equiv_pos_site_id
_symmetry_equiv_pos_as_xyz
1 x,y,z
2 -x,1/2+y,1/2-z
3 -x,-y,-z
4 x,1/2-y,1/2+z
_cell_length_a                   15.536(2)
_cell_length_b                   8.9326(12)
_cell_length_c                   15.888(2)
_cell_angle_alpha                90
_cell_angle_beta                 107.156(2)
_cell_angle_gamma                90
_cell_volume                     2106.78
loop_
_atom_site_label
_atom_site_type_symbol
_atom_site_fract_x
_atom_site_fract_y
_atom_site_fract_z
C1 C -0.0494(3) 0.0743(5) 0.3534(3)
H1 H -0.0237 0.0127 0.3202
C2 C -0.1454(3) 0.1949(5) 0.3998(3)
H2 H -0.1998 0.2322 0.4043
C3 C -0.0637(3) 0.2284(6) 0.4547(3)
H3 H -0.0510 0.2915 0.5033
C4 C 0.0948(3) 0.1466(6) 0.4621(3)
H4 H 0.1090 0.1425 0.5257
H5 H 0.1180 0.0561 0.4429
C5 C -0.4148(3) 0.1284(5) 0.1464(3)
C6 C -0.3285(3) 0.3165(5) 0.1982(4)
H6 H -0.2783 0.3728 0.2276
C7 C -0.4098(3) 0.3726(5) 0.1551(3)
H7 H -0.4259 0.4732 0.1485
C8 C -0.6862(3) 0.2045(6) 0.2256(4)
H8 H -0.7101 0.1499 0.2633
C9 C -0.6355(3) 0.1483(6) 0.1779(4)
H9 H -0.6182 0.0490 0.1762
C10 C -0.6525(3) 0.3880(5) 0.1533(3)
C11 C -0.5590(3) 0.2563(6) 0.0740(3)
H10 H -0.5710 0.3425 0.0352
H11 H -0.5741 0.1670 0.0379
C12 C 0.1544(3) 0.2962(5) 0.3605(3)
H12 H 0.1349 0.2317 0.3127
C13 C 0.2165(4) 0.4791(6) 0.4437(4)
H13 H 0.2482 0.5668 0.4635
C14 C 0.1797(3) 0.3915(7) 0.4915(3)
H14 H 0.1811 0.4063 0.5498
N1 N -0.1364(2) 0.0974(4) 0.3362(2)
N2 N -0.0028(2) 0.1500(4) 0.4239(2)
N3 N -0.3310(2) 0.1628(4) 0.1920(2)
N4 N -0.6972(2) 0.3555(4) 0.2101(2)
N5 N -0.6147(2) 0.2638(4) 0.1327(2)
N6 N -0.4641(2) 0.2531(4) 0.1231(2)
N7 N 0.2003(2) 0.4203(4) 0.3602(2)
N8 N 0.1395(2) 0.2750(4) 0.4380(2)
Zn1 Zn -0.23628(3) 0.00866(5) 0.23944(3)
N4A N -0.3028(2) -0.1445(4) 0.2899(2)
N7A N -0.2003(2) -0.0797(4) 0.1398(2)
Zn1A Zn 0.23628(3) 0.50866(5) 0.26056(3)
Zn1A_2 Zn -0.76372(3) 0.50866(5) 0.26056(3)
N9 N -0.5744(3) 0.7576(5) 0.0810(3)
O1 O -0.6490(5) 0.7557(9) 0.0928(7)
O2 O -0.5463(4) 0.6366(5) 0.0662(4)
O3 O -0.5500(4) 0.8777(6) 0.0661(4)
N10 N -0.0680(3) 0.5814(7) 0.3264(3)
O4 O -0.0851(4) 0.7119(6) 0.3479(3)
O5 O -0.1296(5) 0.5085(6) 0.2840(6)
O6 O 0.0060(4) 0.5350(10) 0.3449(6)
O7 O -0.7377(6) 0.9855(10) 0.4515(6)
H15 H -0.7594 0.9962 0.3978
H16 H -0.6867 0.9420 0.4626
O8 O -0.8777(4) 0.8044(8) 0.3444(4)
H17 H -0.8361 0.8647 0.3505
H18 H -0.9112 0.8077 0.2934
loop_
_geom_bond_atom_site_label_1
_geom_bond_atom_site_label_2
_geom_bond_site_symmetry_1
_geom_bond_site_symmetry_2
C1 H1 1_555 1_555
C2 H2 1_555 1_555
C3 C2 1_555 1_555
H3 C3 1_555 1_555
C4 H4 1_555 1_555
H5 C4 1_555 1_555
C5 N3 1_555 1_555
C6 H6 1_555 1_555
C7 C6 1_555 1_555
H7 C7 1_555 1_555
C8 H8 1_555 1_555
C9 C8 1_555 1_555
H9 C9 1_555 1_555
C10 N4 1_555 1_555
C11 H10 1_555 1_555
H11 C11 1_555 1_555
C12 H12 1_555 1_555
C13 H13 1_555 1_555
C14 C13 1_555 1_555
H14 C14 1_555 1_555
N1 C1 1_555 1_555
N2 C1 1_555 1_555
N3 C6 1_555 1_555
N4 C8 1_555 1_555
N5 C9 1_555 1_555
N6 C5 1_555 1_555
N7 C12 1_555 1_555
N8 C4 1_555 1_555
N9 O1 1_555 1_555
N10 O4 1_555 1_555
O2 N9 1_555 1_555
O3 N9 1_555 1_555
O5 N10 1_555 1_555
O6 N10 1_555 1_555
O7 H15 1_555 1_555
H16 O7 1_555 1_555
O8 H17 1_555 1_555
H18 O8 1_555 1_555
Zn1 N1 1_555 1_555
N4A Zn1 1_555 1_555
N7A Zn1 1_555 1_555
Zn1A N7 1_555 1_555
Zn1A_2 N4 1_555 1_555
C2 N1 1_555 1_555
C3 N2 1_555 1_555
C4 N2 1_555 1_555
C7 N6 1_555 1_555
C10 N5 1_555 1_555
C11 N5 1_555 1_555
C11 N6 1_555 1_555
C12 N8 1_555 1_555
C13 N7 1_555 1_555
C14 N8 1_555 1_555
N3 Zn1 1_555 1_555

#END
