
#######################################################################
#
#                 Cambridge Crystallographic Data Centre
#                                CCDC 
#
#######################################################################
#
# If this CIF has been generated from an entry in the Cambridge 
# Structural Database, then it will include bibliographic, chemical, 
# crystal, experimental, refinement or atomic coordinate data resulting 
# from the CCDC's data processing and validation procedures.
#
#######################################################################

data_POHBIY
_symmetry_cell_setting           orthorhombic
_symmetry_space_group_name_H-M   'P c c n'
_symmetry_Int_Tables_number      56
_space_group_name_Hall           '-P 2ab 2ac'
loop_
_symmetry_equiv_pos_site_id
_symmetry_equiv_pos_as_xyz
1 x,y,z
2 1/2-x,1/2-y,z
3 -x,1/2+y,1/2-z
4 1/2+x,-y,1/2-z
5 -x,-y,-z
6 1/2+x,1/2+y,-z
7 x,1/2-y,1/2+z
8 1/2-x,y,1/2+z
_cell_length_a                   17.8451(8)
_cell_length_b                   9.4977(6)
_cell_length_c                   15.6048(4)
_cell_angle_alpha                90
_cell_angle_beta                 90
_cell_angle_gamma                90
_cell_volume                     2644.82
loop_
_atom_site_label
_atom_site_type_symbol
_atom_site_fract_x
_atom_site_fract_y
_atom_site_fract_z
Zn1 Zn 0.2500 -0.2500 -0.12120(2)
C1 C 0.09685(16) -0.2235(3) -0.04361(18)
H1 H 0.0772 -0.2921 -0.0797
C2 C 0.05929(14) -0.1593(3) 0.01918(16)
H2 H 0.0096 -0.1743 0.0346
C3 C 0.17474(13) -0.0760(3) 0.01467(14)
C4 C 0.24268(16) 0.0075(4) 0.0353(2)
H3 H 0.2820 -0.0160 -0.0042
H4 H 0.2586 -0.0135 0.0926
H5 H 0.2314 0.1061 0.0308
C5 C 0.09072(17) 0.0239(3) 0.12940(14)
H6 H 0.0396 0.0059 0.1475
H7 H 0.0940 0.1218 0.1120
C6 C 0.18447(15) 0.1027(3) 0.23890(16)
H8 H 0.1861 0.1975 0.2242
C7 C 0.15465(14) -0.1235(2) 0.24170(15)
C8 C 0.1190(2) -0.2593(3) 0.2209(2)
H9 H 0.1305 -0.3266 0.2649
H10 H 0.1377 -0.2928 0.1669
H11 H 0.0657 -0.2470 0.2174
C9 C 0.22369(17) 0.0385(3) 0.30145(17)
H12 H 0.2579 0.0823 0.3377
N1 N 0.16913(11) -0.1727(2) -0.04667(12)
N2 N 0.10870(11) -0.0660(2) 0.05675(12)
N3 N 0.14142(11) -0.0006(2) 0.20115(12)
N4 N 0.20507(12) -0.1028(2) 0.30326(12)
Zn1F Zn 0.2500 -0.2500 0.37880(2)
C1A C 0.40315(16) -0.2765(3) -0.04361(18)
H1A H 0.4228 -0.2079 -0.0797
C2A C 0.44071(14) -0.3407(3) 0.01918(16)
H2A H 0.4904 -0.3257 0.0346
C3A C 0.32526(13) -0.4240(3) 0.01467(14)
C4A C 0.25732(16) -0.5075(4) 0.0353(2)
H3A H 0.2180 -0.4840 -0.0042
H4A H 0.2414 -0.4865 0.0926
H5A H 0.2686 -0.6061 0.0308
C5A C 0.40928(17) -0.5239(3) 0.12940(14)
H6A H 0.4604 -0.5059 0.1475
H7A H 0.4060 -0.6218 0.1120
C6A C 0.31553(15) -0.6027(3) 0.23890(16)
H8A H 0.3139 -0.6975 0.2242
C7A C 0.34535(14) -0.3765(2) 0.24170(15)
C8A C 0.3810(2) -0.2407(3) 0.2209(2)
H9A H 0.3695 -0.1734 0.2649
H10A H 0.3623 -0.2072 0.1669
H11A H 0.4343 -0.2530 0.2174
C9A C 0.27631(17) -0.5385(3) 0.30145(17)
H12A H 0.2421 -0.5823 0.3377
N1A N 0.33087(11) -0.3273(2) -0.04667(12)
N2A N 0.39130(11) -0.4340(2) 0.05675(12)
N3A N 0.35858(11) -0.4994(2) 0.20115(12)
N4G N 0.29493(12) -0.1028(2) -0.19674(12)
N4F N 0.20507(12) -0.3972(2) -0.19674(12)
N4A N 0.29493(12) -0.3972(2) 0.30326(12)
O1 O 0.0005(4) -0.5157(8) 0.1704(6)
N5 N 0.0558(6) -0.5726(13) 0.1444(7)
O2 O 0.0566(6) -0.5552(14) 0.0651(7)
O3 O 0.1128(11) -0.624(4) 0.1788(11)
O4 O 0.0889(7) -0.6135(13) 0.3543(9)
N6? N 0.0547(3) -0.5842(6) 0.1969(4)
O5? O 0.1073(7) -0.615(2) 0.1479(7)
O6? O 0.0631(4) -0.5996(8) 0.2761(4)
O7? O -0.0031(8) -0.5609(18) 0.1853(11)
O8? O 0.0826(4) -0.5806(8) -0.0262(6)
loop_
_geom_bond_atom_site_label_1
_geom_bond_atom_site_label_2
_geom_bond_site_symmetry_1
_geom_bond_site_symmetry_2
Zn1 N1 1_555 1_555
C1 H1 1_555 1_555
C2 C1 1_555 1_555
H2 C2 1_555 1_555
C3 C4 1_555 1_555
C4 H3 1_555 1_555
H4 C4 1_555 1_555
H5 C4 1_555 1_555
C5 H6 1_555 1_555
H7 C5 1_555 1_555
C6 H8 1_555 1_555
C7 C8 1_555 1_555
C8 H9 1_555 1_555
H10 C8 1_555 1_555
H11 C8 1_555 1_555
C9 C6 1_555 1_555
H12 C9 1_555 1_555
N1 C1 1_555 1_555
N2 C2 1_555 1_555
N3 C5 1_555 1_555
N4 C7 1_555 1_555
O1 N5 1_555 1_555
N5 O2 1_555 1_555
O3 N5 1_555 1_555
Zn1F N4 1_555 1_555
C1A H1A 1_555 1_555
C2A C1A 1_555 1_555
H2A C2A 1_555 1_555
C3A C4A 1_555 1_555
C4A H3A 1_555 1_555
H4A C4A 1_555 1_555
H5A C4A 1_555 1_555
C5A H6A 1_555 1_555
H7A C5A 1_555 1_555
C6A H8A 1_555 1_555
C7A C8A 1_555 1_555
C8A H9A 1_555 1_555
H10A C8A 1_555 1_555
H11A C8A 1_555 1_555
C9A C6A 1_555 1_555
H12A C9A 1_555 1_555
N1A Zn1 1_555 1_555
N2A C2A 1_555 1_555
N3A C5A 1_555 1_555
N4G Zn1 1_555 1_555
N4F Zn1 1_555 1_555
N4A Zn1F 1_555 1_555
C3 N1 1_555 1_555
C3 N2 1_555 1_555
C5 N2 1_555 1_555
C6 N3 1_555 1_555
C7 N3 1_555 1_555
C9 N4 1_555 1_555
C1A N1A 1_555 1_555
C3A N1A 1_555 1_555
C3A N2A 1_555 1_555
C5A N2A 1_555 1_555
C6A N3A 1_555 1_555
C7A N3A 1_555 1_555
C7A N4A 1_555 1_555
C9A N4A 1_555 1_555

#END
