
#######################################################################
#
#                 Cambridge Crystallographic Data Centre
#                                CCDC 
#
#######################################################################
#
# If this CIF has been generated from an entry in the Cambridge 
# Structural Database, then it will include bibliographic, chemical, 
# crystal, experimental, refinement or atomic coordinate data resulting 
# from the CCDC's data processing and validation procedures.
#
#######################################################################

data_POHCEV
_symmetry_cell_setting           monoclinic
_symmetry_space_group_name_H-M   'C 2/c'
_symmetry_Int_Tables_number      15
_space_group_name_Hall           '-C 2yn'
loop_
_symmetry_equiv_pos_site_id
_symmetry_equiv_pos_as_xyz
1 x,y,z
2 1/2+x,1/2+y,z
3 -x,y,1/2-z
4 1/2-x,1/2+y,1/2-z
5 -x,-y,-z
6 1/2-x,1/2-y,-z
7 x,-y,1/2+z
8 1/2+x,1/2-y,1/2+z
_cell_length_a                   9.0765(10)
_cell_length_b                   13.5733(15)
_cell_length_c                   20.276(2)
_cell_angle_alpha                90
_cell_angle_beta                 92.447(2)
_cell_angle_gamma                90
_cell_volume                     2495.69
loop_
_atom_site_label
_atom_site_type_symbol
_atom_site_fract_x
_atom_site_fract_y
_atom_site_fract_z
Cu1 Cu 0.24502(4) 1.28214(3) 0.19800(2)
C1 C 0.4413(3) 1.2798(2) 0.23818(15)
C2 C 0.3053(4) 1.1330(2) 0.08553(17)
H1 H 0.3322 1.1871 0.0606
C3 C 0.3377(3) 1.0408(2) 0.06242(16)
H2 H 0.3842 1.0331 0.0227
C4 C 0.3001(3) 0.9593(2) 0.09922(15)
C5 C 0.2275(4) 0.9747(2) 0.15675(16)
H3 H 0.1991 0.9218 0.1824
C6 C 0.1979(4) 1.0699(2) 0.17555(17)
H4 H 0.1473 1.0795 0.2140
C7 C 0.3398(3) 0.8604(2) 0.07796(15)
C8 C 0.3451(3) 0.7050(2) 0.07859(15)
C9 C 0.3101(3) 0.6049(2) 0.09951(14)
C10 C 0.3915(4) 0.5264(2) 0.07708(16)
H5 H 0.4677 0.5367 0.0486
C11 C 0.3577(4) 0.4327(2) 0.09768(17)
H6 H 0.4126 0.3804 0.0822
C12 C 0.1729(3) 0.4898(2) 0.15944(17)
H7 H 0.0966 0.4777 0.1876
C13 C 0.1994(3) 0.5857(2) 0.14165(17)
H8 H 0.1432 0.6367 0.1580
N1 N 0.0576(3) 1.28633(19) 0.23794(16)
N2 N 0.2380(3) 1.14973(17) 0.14142(13)
N3 N 0.4291(3) 0.83544(18) 0.03289(14)
N4 N 0.4326(3) 0.73209(18) 0.03309(14)
N5 N 0.2506(3) 0.41284(17) 0.13862(13)
O1 O 0.2814(2) 0.78173(13) 0.10899(10)
Cu1B Cu 0.75498(4) 1.28214(3) 0.30200(2)
Cu1_2 Cu 0.24502(4) 0.28214(3) 0.19800(2)
Cu1B_2 Cu -0.24502(4) 1.28214(3) 0.30200(2)
Cu1_3 Cu 0.24502(4) 2.28214(3) 0.19800(2)
C1B C 0.5587(3) 1.2798(2) 0.26182(15)
C2_2 C 0.3053(4) 2.1330(2) 0.08553(17)
H1_2 H 0.3322 2.1871 0.0606
C3_2 C 0.3377(3) 2.0408(2) 0.06242(16)
H2_2 H 0.3842 2.0331 0.0227
C4_2 C 0.3001(3) 1.9593(2) 0.09922(15)
C5_2 C 0.2275(4) 1.9747(2) 0.15675(16)
H3_2 H 0.1991 1.9218 0.1824
C6_2 C 0.1979(4) 2.0699(2) 0.17555(17)
H4_2 H 0.1473 2.0795 0.2140
C7_2 C 0.3398(3) 1.8604(2) 0.07796(15)
C8_2 C 0.3451(3) 1.7050(2) 0.07859(15)
C9_2 C 0.3101(3) 1.6049(2) 0.09951(14)
C10_2 C 0.3915(4) 1.5264(2) 0.07708(16)
H5_2 H 0.4677 1.5367 0.0486
C11_2 C 0.3577(4) 1.4327(2) 0.09768(17)
H6_2 H 0.4126 1.3804 0.0822
C12_2 C 0.1729(3) 1.4898(2) 0.15944(17)
H7_2 H 0.0966 1.4777 0.1876
C13_2 C 0.1994(3) 1.5857(2) 0.14165(17)
H8_2 H 0.1432 1.6367 0.1580
N1B N -0.0576(3) 1.28633(19) 0.26206(16)
N1B_2 N 0.9424(3) 1.28633(19) 0.26206(16)
N2_2 N 0.2380(3) 2.14973(17) 0.14142(13)
N2B N 0.7620(3) 1.14973(17) 0.35858(13)
N3_2 N 0.4291(3) 1.83544(18) 0.03289(14)
N4_2 N 0.4326(3) 1.73209(18) 0.03309(14)
N5_2 N 0.2506(3) 1.41284(17) 0.13862(13)
N5B N 0.7494(3) 1.41284(17) 0.36138(13)
O1_2 O 0.2814(2) 1.78173(13) 0.10899(10)
loop_
_geom_bond_atom_site_label_1
_geom_bond_atom_site_label_2
_geom_bond_site_symmetry_1
_geom_bond_site_symmetry_2
Cu1 C1 1_555 1_555
C1 C1B 1_555 1_555
C2 H1 1_555 1_555
C3 C2 1_555 1_555
H2 C3 1_555 1_555
C4 C3 1_555 1_555
C5 C4 1_555 1_555
H3 C5 1_555 1_555
C6 C5 1_555 1_555
H4 C6 1_555 1_555
C7 C4 1_555 1_555
C8 C9 1_555 1_555
C9 C10 1_555 1_555
C10 H5 1_555 1_555
C11 C10 1_555 1_555
H6 C11 1_555 1_555
C12 H7 1_555 1_555
C13 C9 1_555 1_555
H8 C13 1_555 1_555
N1 Cu1 1_555 1_555
N2 Cu1 1_555 1_555
N3 C7 1_555 1_555
N4 C8 1_555 1_555
N5 C11 1_555 1_555
O1 C7 1_555 1_555
Cu1B C1B 1_555 1_555
Cu1_2 N5 1_555 1_555
Cu1B_2 N1B 1_555 1_555
Cu1_3 N2_2 1_555 1_555
C2_2 H1_2 1_555 1_555
C3_2 C2_2 1_555 1_555
H2_2 C3_2 1_555 1_555
C4_2 C3_2 1_555 1_555
C5_2 C4_2 1_555 1_555
H3_2 C5_2 1_555 1_555
C6_2 C5_2 1_555 1_555
H4_2 C6_2 1_555 1_555
C7_2 C4_2 1_555 1_555
C8_2 C9_2 1_555 1_555
C9_2 C10_2 1_555 1_555
C10_2 H5_2 1_555 1_555
C11_2 C10_2 1_555 1_555
H6_2 C11_2 1_555 1_555
C12_2 H7_2 1_555 1_555
C13_2 C9_2 1_555 1_555
H8_2 C13_2 1_555 1_555
N1B N1 1_555 1_555
N1B_2 Cu1B 1_555 1_555
N2_2 C2_2 1_555 1_555
N2B Cu1B 1_555 1_555
N3_2 C7_2 1_555 1_555
N4_2 C8_2 1_555 1_555
N5_2 Cu1 1_555 1_555
N5B Cu1B 1_555 1_555
O1_2 C7_2 1_555 1_555
C2 N2 1_555 1_555
C6 N2 1_555 1_555
C8 O1 1_555 1_555
C12 C13 1_555 1_555
C12 N5 1_555 1_555
N3 N4 1_555 1_555
C6_2 N2_2 1_555 1_555
C8_2 O1_2 1_555 1_555
C11_2 N5_2 1_555 1_555
C12_2 C13_2 1_555 1_555
C12_2 N5_2 1_555 1_555
N3_2 N4_2 1_555 1_555

#END
