
#######################################################################
#
#                 Cambridge Crystallographic Data Centre
#                                CCDC 
#
#######################################################################
#
# If this CIF has been generated from an entry in the Cambridge 
# Structural Database, then it will include bibliographic, chemical, 
# crystal, experimental, refinement or atomic coordinate data resulting 
# from the CCDC's data processing and validation procedures.
#
#######################################################################

data_POHDOG
_symmetry_cell_setting           orthorhombic
_symmetry_space_group_name_H-M   'P b c a'
_symmetry_Int_Tables_number      61
_space_group_name_Hall           '-P 2ac 2ab'
loop_
_symmetry_equiv_pos_site_id
_symmetry_equiv_pos_as_xyz
1 x,y,z
2 1/2-x,-y,1/2+z
3 -x,1/2+y,1/2-z
4 1/2+x,1/2-y,-z
5 -x,-y,-z
6 1/2+x,y,1/2-z
7 x,1/2-y,1/2+z
8 1/2-x,1/2+y,z
_cell_length_a                   8.2739(8)
_cell_length_b                   15.5840(15)
_cell_length_c                   20.704(2)
_cell_angle_alpha                90
_cell_angle_beta                 90
_cell_angle_gamma                90
_cell_volume                     2669.58
loop_
_atom_site_label
_atom_site_type_symbol
_atom_site_fract_x
_atom_site_fract_y
_atom_site_fract_z
Cu1 Cu 0.22407(4) 0.857415(19) 0.143068(13)
Cu2 Cu 0.02117(5) 1.13224(2) 0.228866(16)
C1 C 0.1192(3) 0.82481(14) -0.00084(12)
H1 H 0.0173 0.8109 0.0149
C2 C 0.1440(4) 0.82221(16) -0.06733(12)
H2 H 0.0608 0.8059 -0.0949
C3 C 0.2917(4) 0.84382(17) -0.09149(12)
H3 H 0.3095 0.8431 -0.1358
C4 C 0.4168(3) 0.86723(14) -0.04929(11)
C5 C 0.5743(3) 0.89243(16) -0.06959(12)
H4 H 0.5976 0.8942 -0.1135
C6 C 0.6897(3) 0.91361(16) -0.02715(12)
H5 H 0.7906 0.9308 -0.0421
C7 C 0.6603(3) 0.91021(14) 0.04090(11)
C8 C 0.7769(3) 0.92952(18) 0.08805(13)
H6 H 0.8805 0.9459 0.0758
C9 C 0.7377(3) 0.9241(2) 0.15149(13)
H7 H 0.8142 0.9364 0.1831
C10 C 0.5812(3) 0.89987(16) 0.16891(12)
H8 H 0.5558 0.8966 0.2126
C11 C 0.5064(3) 0.88660(13) 0.06284(10)
C12 C 0.3816(3) 0.86607(12) 0.01705(10)
C13 C 0.1055(3) 1.03845(15) 0.18759(11)
C14 C 0.1380(3) 0.76870(15) 0.19380(11)
N1 N 0.2333(2) 0.84604(11) 0.04111(8)
N2 N 0.4674(2) 0.88126(12) 0.12633(9)
N3 N 0.1493(2) 0.97589(12) 0.16498(10)
N4 N 0.0782(3) 0.71781(14) 0.22556(10)
Cu2B Cu -0.02117(5) 0.63224(2) 0.271134(16)
N4B N -0.0782(3) 1.21781(14) 0.27444(10)
loop_
_geom_bond_atom_site_label_1
_geom_bond_atom_site_label_2
_geom_bond_site_symmetry_1
_geom_bond_site_symmetry_2
Cu1 C14 1_555 1_555
Cu2 C13 1_555 1_555
C1 H1 1_555 1_555
C2 C1 1_555 1_555
H2 C2 1_555 1_555
C3 C2 1_555 1_555
H3 C3 1_555 1_555
C4 C3 1_555 1_555
C5 C4 1_555 1_555
H4 C5 1_555 1_555
C6 C5 1_555 1_555
H5 C6 1_555 1_555
C7 C6 1_555 1_555
C8 C7 1_555 1_555
H6 C8 1_555 1_555
C9 C8 1_555 1_555
H7 C9 1_555 1_555
C10 C9 1_555 1_555
H8 C10 1_555 1_555
C11 C7 1_555 1_555
C12 C4 1_555 1_555
C13 N3 1_555 1_555
C14 N4 1_555 1_555
N1 Cu1 1_555 1_555
N2 Cu1 1_555 1_555
N3 Cu1 1_555 1_555
N4 Cu2B 1_555 1_555
N4B Cu2 1_555 1_555
C1 N1 1_555 1_555
C10 N2 1_555 1_555
C11 C12 1_555 1_555
C11 N2 1_555 1_555
C12 N1 1_555 1_555

#END
