
#######################################################################
#
#                 Cambridge Crystallographic Data Centre
#                                CCDC 
#
#######################################################################
#
# If this CIF has been generated from an entry in the Cambridge 
# Structural Database, then it will include bibliographic, chemical, 
# crystal, experimental, refinement or atomic coordinate data resulting 
# from the CCDC's data processing and validation procedures.
#
#######################################################################

data_POHDUM
_symmetry_cell_setting           monoclinic
_symmetry_space_group_name_H-M   'P 21/n'
_symmetry_Int_Tables_number      14
_space_group_name_Hall           '-P 2yn'
loop_
_symmetry_equiv_pos_site_id
_symmetry_equiv_pos_as_xyz
1 x,y,z
2 1/2-x,1/2+y,1/2-z
3 -x,-y,-z
4 1/2+x,1/2-y,1/2+z
_cell_length_a                   14.1682(14)
_cell_length_b                   6.8770(7)
_cell_length_c                   16.1200(16)
_cell_angle_alpha                90
_cell_angle_beta                 111.4820(10)
_cell_angle_gamma                90
_cell_volume                     1461.54
loop_
_atom_site_label
_atom_site_type_symbol
_atom_site_fract_x
_atom_site_fract_y
_atom_site_fract_z
Cu1 Cu 0.49839(2) 0.14647(5) 1.12907(2)
Cu2 Cu 0.41226(3) 0.45232(5) 1.16817(2)
Cu3 Cu 0.22908(3) 0.30569(6) 0.84999(2)
C1 C 0.33279(19) 0.3087(4) 0.96175(17)
C2 C 0.46695(19) -0.1232(4) 1.14028(17)
C3 C 1.1886(2) 0.3393(4) 1.0926(2)
H1 H 1.1898 0.2921 1.0389
C4 C 1.1387(2) 0.4222(4) 1.19886(18)
H2 H 1.0984 0.4423 1.2325
C5 C 1.00509(19) 0.2780(4) 1.06470(18)
C6 C 0.9779(2) 0.2350(4) 0.97538(18)
H3 H 1.0238 0.2475 0.9466
C7 C 0.8798(2) 0.1728(4) 0.93058(19)
H4 H 0.8585 0.1407 0.8705
C8 C 0.8134(2) 0.1581(4) 0.97504(18)
H5 H 0.7472 0.1150 0.9464
C9 C 0.84931(19) 0.2101(4) 1.06350(18)
C10 C 0.8127(2) 0.1944(4) 1.20358(18)
H6 H 0.8795 0.1949 1.2436
C11 C 0.6813(2) 0.1994(4) 1.08210(19)
H7 H 0.6401 0.2034 1.0221
C12 C 0.5142(2) 0.3094(4) 1.26108(19)
N1 N 0.3941(2) 0.2872(4) 1.0306(2)
N2 N 0.44357(18) -0.2817(4) 1.14484(16)
N3 N 1.26563(17) 0.4139(4) 1.15583(16)
N4 N 1.23377(18) 0.4683(4) 1.22457(15)
N5 N 1.10537(16) 0.3402(3) 1.11596(15)
N6 N 0.94305(16) 0.2689(3) 1.10976(15)
N7 N 0.73327(16) 0.1850(4) 1.22598(14)
N8 N 0.64868(16) 0.1891(3) 1.14736(15)
N9 N 0.78447(16) 0.2033(3) 1.11398(15)
N10 N 0.58425(19) 0.2503(4) 1.31715(17)
Cu2_2 Cu 0.41226(3) -0.54768(5) 1.16817(2)
Cu2_3 Cu 1.41226(3) 0.45232(5) 1.16817(2)
Cu3C Cu 0.72908(3) 0.19431(6) 1.34999(2)
N2_2 N 0.44357(18) 0.7183(4) 1.14484(16)
N3_2 N 0.26563(17) 0.4139(4) 1.15583(16)
N7C N 0.23327(16) 0.3150(4) 0.72598(14)
N10C N 0.08425(19) 0.2497(4) 0.81715(17)
loop_
_geom_bond_atom_site_label_1
_geom_bond_atom_site_label_2
_geom_bond_site_symmetry_1
_geom_bond_site_symmetry_2
Cu1 C2 1_555 1_555
Cu2 C12 1_555 1_555
Cu3 C1 1_555 1_555
C1 N1 1_555 1_555
C2 N2 1_555 1_555
C3 H1 1_555 1_555
C4 H2 1_555 1_555
C5 C6 1_555 1_555
C6 H3 1_555 1_555
C7 C6 1_555 1_555
H4 C7 1_555 1_555
C8 C7 1_555 1_555
H5 C8 1_555 1_555
C9 C8 1_555 1_555
C10 H6 1_555 1_555
C11 H7 1_555 1_555
C12 Cu1 1_555 1_555
N1 Cu1 1_555 1_555
N2 Cu2_2 1_555 1_555
N3 C3 1_555 1_555
N4 C4 1_555 1_555
N5 C3 1_555 1_555
N6 C5 1_555 1_555
N7 C10 1_555 1_555
N8 Cu1 1_555 1_555
N9 C9 1_555 1_555
N10 C12 1_555 1_555
Cu2_3 N3 1_555 1_555
Cu3C N7 1_555 1_555
N2_2 Cu2 1_555 1_555
N3_2 Cu2 1_555 1_555
N7C Cu3 1_555 1_555
N10C Cu3 1_555 1_555
Cu2 N1 1_555 1_555
C4 N5 1_555 1_555
C5 N5 1_555 1_555
C9 N6 1_555 1_555
C10 N9 1_555 1_555
C11 N8 1_555 1_555
C11 N9 1_555 1_555
N3 N4 1_555 1_555
N7 N8 1_555 1_555
N10 Cu3C 1_555 1_555

#END
