
#######################################################################
#
#                 Cambridge Crystallographic Data Centre
#                                CCDC 
#
#######################################################################
#
# If this CIF has been generated from an entry in the Cambridge 
# Structural Database, then it will include bibliographic, chemical, 
# crystal, experimental, refinement or atomic coordinate data resulting 
# from the CCDC's data processing and validation procedures.
#
#######################################################################

data_POHGUQ
_symmetry_cell_setting           triclinic
_symmetry_space_group_name_H-M   'P -1'
_symmetry_Int_Tables_number      2
_space_group_name_Hall           '-P 1'
loop_
_symmetry_equiv_pos_site_id
_symmetry_equiv_pos_as_xyz
1 x,y,z
2 -x,-y,-z
_cell_length_a                   11.010(2)
_cell_length_b                   12.821(3)
_cell_length_c                   12.932(3)
_cell_angle_alpha                91.21(3)
_cell_angle_beta                 110.33(3)
_cell_angle_gamma                106.46(3)
_cell_volume                     1627.03
loop_
_atom_site_label
_atom_site_type_symbol
_atom_site_fract_x
_atom_site_fract_y
_atom_site_fract_z
Cd1 Cd 1.20589(3) 0.32048(2) -0.09552(2)
C1 C 1.1820(4) 0.1653(3) -0.3100(3)
C2 C 1.0882(4) 0.0788(3) -0.4075(3)
O1 O 1.3658(3) 0.4075(2) -0.1732(2)
C3 C 0.9574(4) 0.0198(3) -0.4156(3)
H1 H 0.9279 0.0324 -0.3587
C4 C 1.1293(4) 0.0567(3) -0.4939(3)
H2 H 1.2166 0.0944 -0.4902
N1 N 1.2829(4) 0.5443(3) 0.0516(3)
C5 C 0.9729(5) 0.1326(4) -0.0397(4)
H3 H 0.9733 0.0823 -0.0923
C6 C 0.9014(5) 0.1081(4) 0.0272(4)
H4 H 0.8467 0.0392 0.0308
C7 C 1.0112(4) 0.2808(3) 0.0565(3)
H5 H 1.0438 0.3547 0.0855
C8 C 0.8663(4) 0.2198(3) 0.1685(3)
C9 C 0.8418(4) 0.1387(3) 0.2339(3)
H6 H 0.8673 0.0761 0.2288
C10 C 0.7791(4) 0.1516(3) 0.3070(3)
H7 H 0.7623 0.0968 0.3507
C11 C 0.7404(4) 0.2444(3) 0.3168(3)
C12 C 0.7698(4) 0.3262(3) 0.2515(3)
H8 H 0.7477 0.3902 0.2581
C13 C 0.8313(4) 0.3133(3) 0.1770(3)
H9 H 0.8487 0.3678 0.1331
C14 C 0.6641(3) 0.2525(3) 0.3900(3)
C15 C 0.6785(4) 0.1957(3) 0.4820(3)
H10 H 0.7432 0.1589 0.5014
C16 C 0.5990(3) 0.1923(3) 0.5457(3)
C17 C 0.5072(3) 0.2524(3) 0.5191(3)
H11 H 0.4552 0.2527 0.5624
C18 C 0.4914(3) 0.3122(3) 0.4289(3)
C19 C 0.5699(3) 0.3102(3) 0.3641(3)
H12 H 0.5589 0.3481 0.3027
C20 C 0.3898(4) 0.3730(3) 0.3998(3)
C21 C 0.2807(4) 0.3457(4) 0.4345(4)
H13 H 0.2699 0.2873 0.4754
C22 C 0.1867(4) 0.4031(3) 0.4098(4)
H14 H 0.1141 0.3831 0.4340
C23 C 0.2014(4) 0.4896(3) 0.3495(3)
C24 C 0.3075(4) 0.5183(3) 0.3127(3)
H15 H 0.3169 0.5765 0.2714
C25 C 0.4009(4) 0.4603(3) 0.3371(3)
H16 H 0.4722 0.4799 0.3113
C26 C 0.0419(4) 0.5803(3) 0.2280(3)
H17 H 0.0613 0.5715 0.1645
C27 C 0.0495(4) 0.5763(3) 0.3993(3)
H18 H 0.0721 0.5650 0.4735
C28 C -0.0454(4) 0.6219(3) 0.3407(3)
H19 H -0.0994 0.6484 0.3691
C29 C 0.6058(3) 0.1202(3) 0.6354(3)
C30 C 0.6486(4) 0.0287(3) 0.6310(3)
H20 H 0.6773 0.0157 0.5736
C31 C 0.6503(4) -0.0438(3) 0.7088(3)
H21 H 0.6807 -0.1038 0.7042
C32 C 0.6063(4) -0.0260(3) 0.7932(3)
C33 C 0.5635(4) 0.0637(3) 0.7998(3)
H22 H 0.5345 0.0762 0.8571
C34 C 0.5632(4) 0.1356(3) 0.7216(3)
H23 H 0.5337 0.1959 0.7271
C35 C 0.6847(4) -0.1672(3) 0.9038(3)
H24 H 0.7505 -0.1696 0.8749
C36 C 0.5577(4) -0.1985(3) 0.9994(3)
H25 H 0.5184 -0.2271 1.0498
C37 C 0.5227(4) -0.1226(3) 0.9340(3)
H26 H 0.4561 -0.0903 0.9314
N2 N 1.0442(3) 0.2408(3) -0.0196(3)
N3 N 0.9253(3) 0.2041(2) 0.0885(2)
N4 N -0.0504(3) 0.6235(3) 0.2332(2)
N5 N 0.1057(3) 0.5500(2) 0.3271(2)
N6 N 0.6589(3) -0.2267(2) 0.9803(2)
N7 N 0.6038(3) -0.1023(2) 0.8726(2)
O2 O 1.1443(3) 0.1687(2) -0.2284(2)
O3 O 1.2866(3) 0.2290(2) -0.3183(2)
O4 O 1.3486(3) 0.4826(2) 0.0387(3)
O5 O 1.3449(3) 0.6373(2) 0.1008(3)
O6 O 1.1567(3) 0.5099(3) 0.0177(3)
C1A C 0.8180(4) -0.1653(3) -0.6900(3)
C2A C 0.9118(4) -0.0788(3) -0.5925(3)
C3A C 1.0426(4) -0.0198(3) -0.5844(3)
H1A H 1.0721 -0.0324 -0.6413
C4A C 0.8707(4) -0.0567(3) -0.5061(3)
H2A H 0.7834 -0.0944 -0.5098
O2A O 0.8557(3) -0.1687(2) -0.7716(2)
O3A O 0.7134(3) -0.2290(2) -0.6817(2)
Cd1A Cd -0.20589(3) 0.67952(2) 0.09552(2)
O1A O -0.3658(3) 0.5925(2) 0.1732(2)
N1A N -0.2829(4) 0.4557(3) -0.0516(3)
C5A C 0.0271(5) 0.8674(4) 0.0397(4)
H3A H 0.0267 0.9177 0.0923
C6A C 0.0986(5) 0.8919(4) -0.0272(4)
H4A H 0.1533 0.9608 -0.0308
C7A C -0.0112(4) 0.7192(3) -0.0565(3)
H5A H -0.0438 0.6453 -0.0855
C8A C 0.1337(4) 0.7802(3) -0.1685(3)
C9A C 0.1582(4) 0.8613(3) -0.2339(3)
H6A H 0.1327 0.9239 -0.2288
C10A C 0.2209(4) 0.8484(3) -0.3070(3)
H7A H 0.2377 0.9032 -0.3507
C11A C 0.2596(4) 0.7556(3) -0.3168(3)
C12A C 0.2302(4) 0.6738(3) -0.2515(3)
H8A H 0.2523 0.6098 -0.2581
C13A C 0.1687(4) 0.6867(3) -0.1770(3)
H9A H 0.1513 0.6322 -0.1331
C14A C 0.3359(3) 0.7475(3) -0.3900(3)
C15A C 0.3215(4) 0.8043(3) -0.4820(3)
H10A H 0.2568 0.8411 -0.5014
C16A C 0.4010(3) 0.8077(3) -0.5457(3)
C17A C 0.4928(3) 0.7476(3) -0.5191(3)
H11A H 0.5448 0.7473 -0.5624
C18A C 0.5086(3) 0.6878(3) -0.4289(3)
C19A C 0.4301(3) 0.6898(3) -0.3641(3)
H12A H 0.4411 0.6519 -0.3027
C20A C 0.6102(4) 0.6270(3) -0.3998(3)
C21A C 0.7193(4) 0.6543(4) -0.4345(4)
H13A H 0.7301 0.7127 -0.4754
C22A C 0.8133(4) 0.5969(3) -0.4098(4)
H14A H 0.8859 0.6169 -0.4340
C23A C 0.7986(4) 0.5104(3) -0.3495(3)
C24A C 0.6925(4) 0.4817(3) -0.3127(3)
H15A H 0.6831 0.4235 -0.2714
C25A C 0.5991(4) 0.5397(3) -0.3371(3)
H16A H 0.5278 0.5201 -0.3113
C26A C 0.9581(4) 0.4197(3) -0.2280(3)
H17A H 0.9387 0.4285 -0.1645
C27A C 0.9505(4) 0.4237(3) -0.3993(3)
H18A H 0.9279 0.4350 -0.4735
C28A C 1.0454(4) 0.3781(3) -0.3407(3)
H19A H 1.0994 0.3516 -0.3691
C29A C 0.3942(3) 0.8798(3) -0.6354(3)
C30A C 0.3514(4) 0.9713(3) -0.6310(3)
H20A H 0.3227 0.9843 -0.5736
C31A C 0.3497(4) 1.0438(3) -0.7088(3)
H21A H 0.3193 1.1038 -0.7042
C32A C 0.3937(4) 1.0260(3) -0.7932(3)
C33A C 0.4365(4) 0.9363(3) -0.7998(3)
H22A H 0.4655 0.9238 -0.8571
C34A C 0.4368(4) 0.8644(3) -0.7216(3)
H23A H 0.4663 0.8041 -0.7271
C35A C 0.3153(4) 1.1672(3) -0.9038(3)
H24A H 0.2495 1.1696 -0.8749
C36A C 0.4423(4) 1.1985(3) -0.9994(3)
H25A H 0.4816 1.2271 -1.0498
C37A C 0.4773(4) 1.1226(3) -0.9340(3)
H26A H 0.5439 1.0903 -0.9314
N2A N -0.0442(3) 0.7592(3) 0.0196(3)
N3A N 0.0747(3) 0.7959(2) -0.0885(2)
N4A N 1.0504(3) 0.3765(3) -0.2332(2)
N5A N 0.8943(3) 0.4500(2) -0.3271(2)
N6A N 0.3411(3) 1.2267(2) -0.9803(2)
N7A N 0.3962(3) 1.1023(2) -0.8726(2)
O4A O -0.3486(3) 0.5174(2) -0.0387(3)
O5A O -0.3449(3) 0.3627(2) -0.1008(3)
O6A O -0.1567(3) 0.4901(3) -0.0177(3)
Cd1_2 Cd 0.20589(3) 1.32048(2) -1.09552(2)
Cd1A_2 Cd 0.79411(3) -0.32048(2) -0.90448(2)
Cd1A_3 Cd 0.79411(3) -0.32048(2) 1.09552(2)
N6_2 N -0.3411(3) 0.7733(2) -0.0197(2)
N6A_2 N 1.3411(3) 0.2267(2) 0.0197(2)
O2A_2 O -0.1443(3) 0.8313(2) 0.2284(2)
loop_
_geom_bond_atom_site_label_1
_geom_bond_atom_site_label_2
_geom_bond_site_symmetry_1
_geom_bond_site_symmetry_2
Cd1 O1 1_555 1_555
C1 C2 1_555 1_555
C2 C3 1_555 1_555
C3 H1 1_555 1_555
C4 C2 1_555 1_555
H2 C4 1_555 1_555
N1 O4 1_555 1_555
C5 H3 1_555 1_555
C6 C5 1_555 1_555
H4 C6 1_555 1_555
C7 H5 1_555 1_555
C8 C9 1_555 1_555
C9 H6 1_555 1_555
C10 C9 1_555 1_555
H7 C10 1_555 1_555
C11 C10 1_555 1_555
C12 C11 1_555 1_555
H8 C12 1_555 1_555
C13 C8 1_555 1_555
H9 C13 1_555 1_555
C14 C11 1_555 1_555
C15 C14 1_555 1_555
H10 C15 1_555 1_555
C16 C15 1_555 1_555
C17 C16 1_555 1_555
H11 C17 1_555 1_555
C18 C17 1_555 1_555
C19 C14 1_555 1_555
H12 C19 1_555 1_555
C20 C18 1_555 1_555
C21 C20 1_555 1_555
H13 C21 1_555 1_555
C22 C21 1_555 1_555
H14 C22 1_555 1_555
C23 C22 1_555 1_555
C24 C23 1_555 1_555
H15 C24 1_555 1_555
C25 C20 1_555 1_555
H16 C25 1_555 1_555
C26 H17 1_555 1_555
C27 H18 1_555 1_555
C28 C27 1_555 1_555
H19 C28 1_555 1_555
C29 C16 1_555 1_555
C30 C29 1_555 1_555
H20 C30 1_555 1_555
C31 C30 1_555 1_555
H21 C31 1_555 1_555
C32 C31 1_555 1_555
C33 C32 1_555 1_555
H22 C33 1_555 1_555
C34 C29 1_555 1_555
H23 C34 1_555 1_555
C35 H24 1_555 1_555
C36 H25 1_555 1_555
C37 C36 1_555 1_555
H26 C37 1_555 1_555
N2 Cd1 1_555 1_555
N3 C6 1_555 1_555
N4 C26 1_555 1_555
N5 C23 1_555 1_555
N6 C35 1_555 1_555
N7 C32 1_555 1_555
O2 Cd1 1_555 1_555
O3 C1 1_555 1_555
O4 Cd1 1_555 1_555
O5 N1 1_555 1_555
O6 N1 1_555 1_555
C1A C2A 1_555 1_555
C2A C3A 1_555 1_555
C3A C4 1_555 1_555
H1A C3A 1_555 1_555
C4A C3 1_555 1_555
H2A C4A 1_555 1_555
O2A C1A 1_555 1_555
O3A C1A 1_555 1_555
Cd1A N4 1_555 1_555
O1A Cd1A 1_555 1_555
N1A O4A 1_555 1_555
C5A H3A 1_555 1_555
C6A C5A 1_555 1_555
H4A C6A 1_555 1_555
C7A H5A 1_555 1_555
C8A C9A 1_555 1_555
C9A H6A 1_555 1_555
C10A C9A 1_555 1_555
H7A C10A 1_555 1_555
C11A C10A 1_555 1_555
C12A C11A 1_555 1_555
H8A C12A 1_555 1_555
C13A C8A 1_555 1_555
H9A C13A 1_555 1_555
C14A C11A 1_555 1_555
C15A C14A 1_555 1_555
H10A C15A 1_555 1_555
C16A C15A 1_555 1_555
C17A C16A 1_555 1_555
H11A C17A 1_555 1_555
C18A C17A 1_555 1_555
C19A C14A 1_555 1_555
H12A C19A 1_555 1_555
C20A C18A 1_555 1_555
C21A C20A 1_555 1_555
H13A C21A 1_555 1_555
C22A C21A 1_555 1_555
H14A C22A 1_555 1_555
C23A C22A 1_555 1_555
C24A C23A 1_555 1_555
H15A C24A 1_555 1_555
C25A C20A 1_555 1_555
H16A C25A 1_555 1_555
C26A H17A 1_555 1_555
C27A H18A 1_555 1_555
C28A C27A 1_555 1_555
H19A C28A 1_555 1_555
C29A C16A 1_555 1_555
C30A C29A 1_555 1_555
H20A C30A 1_555 1_555
C31A C30A 1_555 1_555
H21A C31A 1_555 1_555
C32A C31A 1_555 1_555
C33A C32A 1_555 1_555
H22A C33A 1_555 1_555
C34A C29A 1_555 1_555
H23A C34A 1_555 1_555
C35A H24A 1_555 1_555
C36A H25A 1_555 1_555
C37A C36A 1_555 1_555
H26A C37A 1_555 1_555
N2A Cd1A 1_555 1_555
N3A C6A 1_555 1_555
N4A Cd1 1_555 1_555
N5A C23A 1_555 1_555
N6A C35A 1_555 1_555
N7A C32A 1_555 1_555
O4A Cd1A 1_555 1_555
O5A N1A 1_555 1_555
O6A N1A 1_555 1_555
Cd1_2 N6A 1_555 1_555
Cd1A_2 O2A 1_555 1_555
Cd1A_3 N6 1_555 1_555
N6_2 Cd1A 1_555 1_555
N6A_2 Cd1 1_555 1_555
O2A_2 Cd1A 1_555 1_555
C1 O2 1_555 1_555
C5 N2 1_555 1_555
C7 N2 1_555 1_555
C7 N3 1_555 1_555
C8 N3 1_555 1_555
C12 C13 1_555 1_555
C18 C19 1_555 1_555
C24 C25 1_555 1_555
C26 N5 1_555 1_555
C27 N5 1_555 1_555
C28 N4 1_555 1_555
C33 C34 1_555 1_555
C35 N7 1_555 1_555
C36 N6 1_555 1_555
C37 N7 1_555 1_555
C2A C4A 1_555 1_555
C5A N2A 1_555 1_555
C7A N2A 1_555 1_555
C7A N3A 1_555 1_555
C8A N3A 1_555 1_555
C12A C13A 1_555 1_555
C18A C19A 1_555 1_555
C24A C25A 1_555 1_555
C26A N4A 1_555 1_555
C26A N5A 1_555 1_555
C27A N5A 1_555 1_555
C28A N4A 1_555 1_555
C33A C34A 1_555 1_555
C35A N7A 1_555 1_555
C36A N6A 1_555 1_555
C37A N7A 1_555 1_555

#END
