
#######################################################################
#
#                 Cambridge Crystallographic Data Centre
#                                CCDC 
#
#######################################################################
#
# If this CIF has been generated from an entry in the Cambridge 
# Structural Database, then it will include bibliographic, chemical, 
# crystal, experimental, refinement or atomic coordinate data resulting 
# from the CCDC's data processing and validation procedures.
#
#######################################################################

data_POHHAX
_symmetry_cell_setting           monoclinic
_symmetry_space_group_name_H-M   'P 21/c'
_symmetry_Int_Tables_number      14
_space_group_name_Hall           '-P 2ybc'
loop_
_symmetry_equiv_pos_site_id
_symmetry_equiv_pos_as_xyz
1 x,y,z
2 -x,1/2+y,1/2-z
3 -x,-y,-z
4 x,1/2-y,1/2+z
_cell_length_a                   10.390(2)
_cell_length_b                   15.238(3)
_cell_length_c                   28.827(6)
_cell_angle_alpha                90
_cell_angle_beta                 95.33(3)
_cell_angle_gamma                90
_cell_volume                     4544.24
loop_
_atom_site_label
_atom_site_type_symbol
_atom_site_fract_x
_atom_site_fract_y
_atom_site_fract_z
C1 C 0.4008(7) 0.2179(5) 0.2288(3)
C2 C 0.5236(7) 0.1987(5) 0.2076(2)
C3 C 0.6448(6) 0.2214(4) 0.2302(3)
H1 H 0.6482 0.2470 0.2595
C4 C 0.5183(7) 0.1558(6) 0.1662(3)
H2 H 0.4394 0.1367 0.1518
C5 C 0.6309(9) 0.1407(7) 0.1456(4)
H3 H 0.6274 0.1115 0.1172
C6 C 0.7523(7) 0.1692(7) 0.1672(3)
H4 H 0.8267 0.1619 0.1521
C7 C 0.7592(7) 0.2072(5) 0.2103(3)
C8 C 0.0881(7) 0.4065(5) 0.1859(3)
H5 H 0.0350 0.3658 0.1694
C9 C 0.0476(7) 0.5306(5) 0.1307(2)
C10 C 0.1904(8) 0.5284(6) 0.2055(3)
H6 H 0.2203 0.5859 0.2054
C11 C 0.2200(8) 0.4673(5) 0.2391(3)
H7 H 0.2751 0.4756 0.2660
C12 C -0.8486(7) 0.4638(6) -0.2286(3)
H8 H -0.9121 0.4687 -0.2534
C13 C -0.7763(8) 0.5333(5) -0.2106(3)
H9 H -0.7784 0.5915 -0.2202
C14 C -0.5966(7) 0.5353(5) -0.1452(3)
C15 C -0.5919(8) 0.5264(6) -0.0983(3)
H10 H -0.6548 0.4946 -0.0846
C16 C -0.7288(8) 0.4087(5) -0.1745(3)
H11 H -0.6891 0.3682 -0.1537
C17 C 0.0861(7) 1.1191(5) -0.1575(2)
H12 H 0.0063 1.1119 -0.1745
C18 C 0.2733(9) 1.1646(6) -0.1348(3)
H13 H 0.3505 1.1958 -0.1333
C19 C -0.0009(7) 0.4800(5) 0.0934(3)
H14 H 0.0070 0.4192 0.0949
C20 C -0.0613(7) 0.5191(5) 0.0537(2)
H15 H -0.0962 0.4847 0.0290
C21 C -0.0694(7) 0.6114(5) 0.0511(2)
C22 C -0.0276(8) 0.6603(5) 0.0889(2)
H16 H -0.0398 0.7208 0.0877
C23 C 0.0325(8) 0.6233(5) 0.1290(3)
H17 H 0.0623 0.6581 0.1542
C24 C -0.1288(7) 0.6533(5) 0.0071(2)
C25 C -0.0763(7) 0.7307(4) -0.0087(3)
H18 H -0.0079 0.7567 0.0094
C26 C -0.2327(7) 0.6154(5) -0.0187(2)
H19 H -0.2699 0.5648 -0.0079
C27 C -0.2823(7) 0.6519(5) -0.0607(3)
C28 C -0.2249(7) 0.7304(4) -0.0763(3)
H20 H -0.2570 0.7554 -0.1045
C29 C -0.1218(7) 0.7702(5) -0.0500(3)
C30 C 0.2477(9) 1.1022(6) -0.1052(3)
H21 H 0.3011 1.0826 -0.0797
C31 C 0.0574(7) 0.9982(5) -0.1022(2)
C32 C 0.0801(10) 0.9739(6) -0.0560(3)
H22 H 0.1355 1.0072 -0.0358
C33 C -0.0265(7) 0.9481(5) -0.1305(3)
H23 H -0.0451 0.9636 -0.1616
C34 C -0.5050(8) 0.5814(5) -0.1663(3)
H24 H -0.5104 0.5866 -0.1986
C35 C -0.4048(7) 0.6199(5) -0.1388(3)
H25 H -0.3424 0.6512 -0.1530
C36 C -0.4906(8) 0.5661(6) -0.0711(3)
H26 H -0.4876 0.5607 -0.0388
C37 C -0.3941(7) 0.6132(5) -0.0900(2)
C38 C -0.0830(7) 0.8754(5) -0.1134(3)
H27 H -0.1378 0.8417 -0.1336
C39 C 0.0201(10) 0.8994(5) -0.0396(3)
H28 H 0.0374 0.8834 -0.0085
C40 C -0.0624(6) 0.8502(5) -0.0678(2)
C41 C 0.8892(7) 0.2301(5) 0.2337(3)
Cd1 Cd 0.16082(5) 0.25177(3) 0.261272(17)
N1 N -0.8177(6) 0.3875(4) -0.2066(2)
N2 N -0.6984(6) 0.4939(4) -0.1738(2)
N3 N 0.1556(6) 0.3915(4) 0.2266(2)
N4 N 0.1082(6) 0.4893(4) 0.17200(19)
N5 N 0.1731(6) 1.1776(4) -0.16791(19)
N6 N 0.1245(6) 1.0719(4) -0.1202(2)
O1 O 0.2969(4) 0.2028(4) 0.20490(18)
O2 O 0.4051(5) 0.2530(4) 0.2681(2)
O3 O 0.9837(5) 0.2120(4) 0.21330(19)
O4 O 0.8929(5) 0.2672(4) 0.2731(2)
Cd1_2 Cd 1.16082(5) 0.25177(3) 0.261272(17)
Cd1C Cd -0.83918(5) 0.24823(3) -0.238728(17)
Cd1C_2 Cd 0.16082(5) 1.24823(3) -0.238728(17)
N1C N 0.1823(6) 0.1125(4) 0.2934(2)
N5C N 0.1731(6) 0.3224(4) 0.33209(19)
O3_2 O -0.0163(5) 0.2120(4) 0.21330(19)
loop_
_geom_bond_atom_site_label_1
_geom_bond_atom_site_label_2
_geom_bond_site_symmetry_1
_geom_bond_site_symmetry_2
C1 C2 1_555 1_555
C2 C3 1_555 1_555
C3 H1 1_555 1_555
C4 C2 1_555 1_555
H2 C4 1_555 1_555
C5 C4 1_555 1_555
H3 C5 1_555 1_555
C6 C5 1_555 1_555
H4 C6 1_555 1_555
C7 C3 1_555 1_555
C8 H5 1_555 1_555
C9 C19 1_555 1_555
C10 H6 1_555 1_555
C11 C10 1_555 1_555
H7 C11 1_555 1_555
C12 H8 1_555 1_555
C13 C12 1_555 1_555
H9 C13 1_555 1_555
C14 C15 1_555 1_555
C15 H10 1_555 1_555
C16 H11 1_555 1_555
C17 H12 1_555 1_555
C18 H13 1_555 1_555
C19 H14 1_555 1_555
C20 C19 1_555 1_555
H15 C20 1_555 1_555
C21 C20 1_555 1_555
C22 C21 1_555 1_555
H16 C22 1_555 1_555
C23 C9 1_555 1_555
H17 C23 1_555 1_555
C24 C21 1_555 1_555
C25 C24 1_555 1_555
H18 C25 1_555 1_555
C26 C24 1_555 1_555
H19 C26 1_555 1_555
C27 C26 1_555 1_555
C28 C27 1_555 1_555
H20 C28 1_555 1_555
C29 C25 1_555 1_555
C30 C18 1_555 1_555
H21 C30 1_555 1_555
C31 C32 1_555 1_555
C32 H22 1_555 1_555
C33 C31 1_555 1_555
H23 C33 1_555 1_555
C34 C14 1_555 1_555
H24 C34 1_555 1_555
C35 C34 1_555 1_555
H25 C35 1_555 1_555
C36 C15 1_555 1_555
H26 C36 1_555 1_555
C37 C27 1_555 1_555
C38 C33 1_555 1_555
H27 C38 1_555 1_555
C39 C32 1_555 1_555
H28 C39 1_555 1_555
C40 C29 1_555 1_555
C41 C7 1_555 1_555
Cd1 N3 1_555 1_555
N1 C12 1_555 1_555
N2 C13 1_555 1_555
N3 C8 1_555 1_555
N4 C8 1_555 1_555
N5 C17 1_555 1_555
N6 C17 1_555 1_555
O1 C1 1_555 1_555
O2 C1 1_555 1_555
O3 C41 1_555 1_555
O4 C41 1_555 1_555
Cd1_2 O3 1_555 1_555
Cd1C N1 1_555 1_555
Cd1C_2 N5 1_555 1_555
N1C Cd1 1_555 1_555
N5C Cd1 1_555 1_555
O3_2 Cd1 1_555 1_555
C6 C7 1_555 1_555
C9 N4 1_555 1_555
C10 N4 1_555 1_555
C11 N3 1_555 1_555
C14 N2 1_555 1_555
C16 N1 1_555 1_555
C16 N2 1_555 1_555
C18 N5 1_555 1_555
C22 C23 1_555 1_555
C28 C29 1_555 1_555
C30 N6 1_555 1_555
C31 N6 1_555 1_555
C35 C37 1_555 1_555
C36 C37 1_555 1_555
C38 C40 1_555 1_555
C39 C40 1_555 1_555
Cd1 O1 1_555 1_555
Cd1 O2 1_555 1_555

#END
