
#######################################################################
#
#                 Cambridge Crystallographic Data Centre
#                                CCDC 
#
#######################################################################
#
# If this CIF has been generated from an entry in the Cambridge 
# Structural Database, then it will include bibliographic, chemical, 
# crystal, experimental, refinement or atomic coordinate data resulting 
# from the CCDC's data processing and validation procedures.
#
#######################################################################

data_POHJAZ
_symmetry_cell_setting           orthorhombic
_symmetry_space_group_name_H-M   'P 21 21 21'
_symmetry_Int_Tables_number      19
_space_group_name_Hall           'P 2ac 2ab'
loop_
_symmetry_equiv_pos_site_id
_symmetry_equiv_pos_as_xyz
1 x,y,z
2 1/2-x,-y,1/2+z
3 -x,1/2+y,1/2-z
4 1/2+x,1/2-y,-z
_cell_length_a                   7.8575(16)
_cell_length_b                   12.817(3)
_cell_length_c                   19.047(4)
_cell_angle_alpha                90
_cell_angle_beta                 90
_cell_angle_gamma                90
_cell_volume                     1918.22
loop_
_atom_site_label
_atom_site_type_symbol
_atom_site_fract_x
_atom_site_fract_y
_atom_site_fract_z
Cu1 Cu 0.68587(5) 0.38642(3) 0.01924(2)
N1 N 0.4598(4) 0.4407(2) 0.04747(16)
N2 N 0.6320(3) 0.2731(2) 0.08825(15)
O1 O 0.9091(3) 0.32010(18) 0.01788(14)
O2 O 1.0688(3) 0.20460(19) 0.07369(13)
O3 O 0.7540(3) 0.50450(17) -0.03744(13)
O4 O 0.7669(4) 0.6185(2) 0.04904(14)
O5 O 0.2459(4) 0.0242(3) 0.32756(17)
H1 H 0.2443 0.0599 0.3633
C1 C 0.3717(5) 0.5173(3) 0.0153(2)
H2 H 0.4193 0.5509 -0.0233
C2 C 0.2142(5) 0.5464(3) 0.0381(2)
H3 H 0.1547 0.5989 0.0150
C3 C 0.1438(5) 0.4974(3) 0.0957(3)
H4 H 0.0377 0.5176 0.1124
C4 C 0.2322(5) 0.4183(3) 0.1281(2)
H5 H 0.1858 0.3833 0.1663
C5 C 0.3910(4) 0.3920(3) 0.10289(19)
C6 C 0.4973(5) 0.3082(3) 0.1366(2)
H6 H 0.5484 0.3350 0.1793
H7 H 0.4254 0.2495 0.1490
C7 C 0.7942(5) 0.2409(3) 0.12104(17)
H8 H 0.8171 0.2882 0.1604
C8 C 0.9368(4) 0.2547(3) 0.06693(18)
C9 C 0.7941(5) 0.1285(3) 0.1496(2)
H9 H 0.7902 0.0806 0.1101
H10 H 0.9004 0.1165 0.1742
C10 C 0.6485(5) 0.1029(3) 0.19865(18)
C11 C 0.6435(5) 0.1381(3) 0.26668(19)
H11 H 0.7332 0.1780 0.2837
C12 C 0.5086(5) 0.1155(3) 0.31019(18)
H12 H 0.5069 0.1412 0.3558
C13 C 0.3761(5) 0.0548(3) 0.2863(2)
C14 C 0.3761(6) 0.0223(4) 0.2174(2)
H13 H 0.2845 -0.0153 0.1996
C15 C 0.5124(6) 0.0458(3) 0.1753(2)
H14 H 0.5124 0.0221 0.1291
C16 C 0.7798(4) 0.5942(3) -0.0135(2)
C17 C 0.8306(7) 0.6771(3) -0.0650(2)
H15 H 0.7312 0.7027 -0.0887
H16 H 0.9082 0.6482 -0.0987
H17 H 0.8849 0.7334 -0.0405
Cu1C Cu 1.18587(5) 0.11358(3) -0.01924(2)
O2C O 0.5688(3) 0.29540(19) -0.07369(13)
O6 O 0.8637(13) 0.8081(4) 0.1050(3)
H18 H 0.8615 0.7466 0.0933
C18 C 0.8667(11) 0.8147(6) 0.1744(4)
H19 H 0.9016 0.8835 0.1880
H20 H 0.9456 0.7644 0.1928
H21 H 0.7551 0.8008 0.1926
loop_
_geom_bond_atom_site_label_1
_geom_bond_atom_site_label_2
_geom_bond_site_symmetry_1
_geom_bond_site_symmetry_2
Cu1 N1 1_555 1_555
N1 C1 1_555 1_555
N2 Cu1 1_555 1_555
O1 Cu1 1_555 1_555
O2 C8 1_555 1_555
O3 Cu1 1_555 1_555
O4 C16 1_555 1_555
O5 H1 1_555 1_555
C1 H2 1_555 1_555
C2 C1 1_555 1_555
H3 C2 1_555 1_555
C3 C2 1_555 1_555
H4 C3 1_555 1_555
C4 C3 1_555 1_555
H5 C4 1_555 1_555
C5 N1 1_555 1_555
C6 N2 1_555 1_555
H6 C6 1_555 1_555
H7 C6 1_555 1_555
C7 N2 1_555 1_555
H8 C7 1_555 1_555
C8 O1 1_555 1_555
C9 C7 1_555 1_555
H9 C9 1_555 1_555
H10 C9 1_555 1_555
C10 C9 1_555 1_555
C11 C10 1_555 1_555
H11 C11 1_555 1_555
C12 C11 1_555 1_555
H12 C12 1_555 1_555
C13 O5 1_555 1_555
C14 C13 1_555 1_555
H13 C14 1_555 1_555
C15 C10 1_555 1_555
H14 C15 1_555 1_555
C16 O3 1_555 1_555
C17 C16 1_555 1_555
H15 C17 1_555 1_555
H16 C17 1_555 1_555
H17 C17 1_555 1_555
O6 H18 1_555 1_555
C18 O6 1_555 1_555
H19 C18 1_555 1_555
H20 C18 1_555 1_555
H21 C18 1_555 1_555
Cu1C O2 1_555 1_555
O2C Cu1 1_555 1_555
C4 C5 1_555 1_555
C5 C6 1_555 1_555
C7 C8 1_555 1_555
C12 C13 1_555 1_555
C14 C15 1_555 1_555

#END
