
#######################################################################
#
#                 Cambridge Crystallographic Data Centre
#                                CCDC 
#
#######################################################################
#
# If this CIF has been generated from an entry in the Cambridge 
# Structural Database, then it will include bibliographic, chemical, 
# crystal, experimental, refinement or atomic coordinate data resulting 
# from the CCDC's data processing and validation procedures.
#
#######################################################################

data_POHLOP
_symmetry_cell_setting           monoclinic
_symmetry_space_group_name_H-M   'P 21/c'
_symmetry_Int_Tables_number      14
_space_group_name_Hall           '-P 2ybc'
loop_
_symmetry_equiv_pos_site_id
_symmetry_equiv_pos_as_xyz
1 x,y,z
2 -x,1/2+y,1/2-z
3 -x,-y,-z
4 x,1/2-y,1/2+z
_cell_length_a                   8.821(5)
_cell_length_b                   18.955(9)
_cell_length_c                   9.288(5)
_cell_angle_alpha                90
_cell_angle_beta                 109.557(8)
_cell_angle_gamma                90
_cell_volume                     1463.38
loop_
_atom_site_label
_atom_site_type_symbol
_atom_site_fract_x
_atom_site_fract_y
_atom_site_fract_z
Eu1 Eu 0.28973(3) 0.553215(13) 0.01552(3)
O1 O 0.2333(7) 0.6199(3) 0.2189(6)
H1 H 0.1647 0.6136 0.2651
H2 H 0.2424 0.6667 0.2290
O2 O 0.1970(5) 0.4443(2) -0.1319(5)
H3 H 0.2716 0.4184 -0.1447
H4 H 0.1157 0.4496 -0.2151
O3 O 0.4943(5) 0.5362(2) -0.1212(4)
O4 O 0.2609(5) 0.5749(2) -0.2723(5)
O5 O 0.3481(5) 0.8172(2) -0.5026(5)
O6 O 0.5372(5) 0.88129(19) -0.3448(5)
O7 O 1.0311(5) 0.5915(2) -0.1129(5)
O8 O 0.8250(5) 0.5170(2) -0.1616(5)
C1 C 0.3944(6) 0.5489(3) -0.2551(6)
C2 C 0.4449(6) 0.5258(3) -0.3883(6)
C3 C 0.5663(6) 0.5619(3) -0.4218(6)
C4 C 0.6212(7) 0.5356(3) -0.5346(6)
H5 H 0.7023 0.5590 -0.5586
C5 C 0.6265(6) 0.6324(3) -0.3456(6)
C6 C 0.5343(7) 0.6911(3) -0.4013(6)
H6 H 0.4384 0.6865 -0.4826
C7 C 0.5824(7) 0.7573(3) -0.3378(6)
C8 C 0.7241(8) 0.7639(3) -0.2145(8)
H7 H 0.7552 0.8077 -0.1691
C9 C 0.8181(8) 0.7055(3) -0.1598(8)
H8 H 0.9139 0.7103 -0.0785
C10 C 0.7716(7) 0.6389(3) -0.2250(6)
C11 C 0.8837(7) 0.5774(3) -0.1605(6)
C12 C 0.4823(7) 0.8219(3) -0.4005(7)
O3B O 0.5057(5) 0.4638(2) -0.8788(4)
O4B O 0.7391(5) 0.4251(2) -0.7277(5)
O5B O 0.6519(5) 0.1828(2) -0.4974(5)
O6B O 0.4628(5) 0.11871(19) -0.6552(5)
O7B O -0.0311(5) 0.4085(2) -0.8871(5)
O8B O 0.1750(5) 0.4830(2) -0.8384(5)
C1B C 0.6056(6) 0.4511(3) -0.7449(6)
C2B C 0.5551(6) 0.4742(3) -0.6117(6)
C3B C 0.4337(6) 0.4381(3) -0.5782(6)
C4B C 0.3788(7) 0.4644(3) -0.4654(6)
H5B H 0.2977 0.4410 -0.4414
C5B C 0.3735(6) 0.3676(3) -0.6544(6)
C6B C 0.4657(7) 0.3089(3) -0.5987(6)
H6B H 0.5616 0.3135 -0.5174
C7B C 0.4176(7) 0.2427(3) -0.6622(6)
C8B C 0.2759(8) 0.2361(3) -0.7855(8)
H7B H 0.2448 0.1923 -0.8309
C9B C 0.1819(8) 0.2945(3) -0.8402(8)
H8B H 0.0861 0.2897 -0.9215
C10B C 0.2284(7) 0.3611(3) -0.7750(6)
C11B C 0.1163(7) 0.4226(3) -0.8395(6)
C12B C 0.5177(7) 0.1781(3) -0.5995(7)
Eu1B Eu -0.28973(3) 0.446785(13) -1.01552(3)
O1B O -0.2333(7) 0.3801(3) -1.2189(6)
H1B H -0.1647 0.3864 -1.2651
H2B H -0.2424 0.3333 -1.2290
O2B O -0.1970(5) 0.5557(2) -0.8681(5)
H3B H -0.2716 0.5816 -0.8553
H4B H -0.1157 0.5504 -0.7849
Eu1_2 Eu 0.28973(3) 0.553215(13) -0.98448(3)
Eu1_3 Eu 1.28973(3) 0.553215(13) 0.01552(3)
Eu1A Eu 0.71027(3) 0.053215(13) -0.51552(3)
Eu1B_2 Eu 0.71027(3) 0.446785(13) -1.01552(3)
Eu1B_3 Eu 0.71027(3) 0.446785(13) -0.01552(3)
Eu1C Eu 0.28973(3) 0.946785(13) -0.48448(3)
O3_2 O -0.5057(5) 0.5362(2) -1.1212(4)
O3B_2 O -0.4943(5) 0.4638(2) -0.8788(4)
O3B_3 O 0.5057(5) 0.4638(2) 0.1212(4)
O4B_2 O -0.2609(5) 0.4251(2) -0.7277(5)
O5A O -0.3481(5) 0.3172(2) -0.9974(5)
O5C O 0.3481(5) 0.6828(2) -0.0026(5)
O6A O -0.5372(5) 0.38129(19) -1.1552(5)
O6C O 0.5372(5) 0.61871(19) 0.1552(5)
O7_2 O 0.0311(5) 0.5915(2) -0.1129(5)
O8_2 O -0.1750(5) 0.5170(2) -1.1616(5)
O8B_2 O 0.1750(5) 0.4830(2) 0.1616(5)
O9 O 0.0375(11) 0.5910(5) -0.5780(10)
O10 O 0.1439(14) 0.7659(6) 0.1961(12)
loop_
_geom_bond_atom_site_label_1
_geom_bond_atom_site_label_2
_geom_bond_site_symmetry_1
_geom_bond_site_symmetry_2
Eu1 O1 1_555 1_555
O1 H1 1_555 1_555
H2 O1 1_555 1_555
O2 Eu1 1_555 1_555
H3 O2 1_555 1_555
H4 O2 1_555 1_555
O3 Eu1 1_555 1_555
O4 Eu1 1_555 1_555
O5 C12 1_555 1_555
O6 C12 1_555 1_555
O7 C11 1_555 1_555
O8 C11 1_555 1_555
C1 O3 1_555 1_555
C2 C1 1_555 1_555
C3 C2 1_555 1_555
C4 C3 1_555 1_555
H5 C4 1_555 1_555
C5 C3 1_555 1_555
C6 C5 1_555 1_555
H6 C6 1_555 1_555
C7 C6 1_555 1_555
C8 C7 1_555 1_555
H7 C8 1_555 1_555
C9 C8 1_555 1_555
H8 C9 1_555 1_555
C10 C5 1_555 1_555
C11 C10 1_555 1_555
C12 C7 1_555 1_555
O3B C1B 1_555 1_555
O4B C1B 1_555 1_555
O5B C12B 1_555 1_555
O6B C12B 1_555 1_555
O7B C11B 1_555 1_555
O8B C11B 1_555 1_555
C1B C2B 1_555 1_555
C2B C4 1_555 1_555
C3B C2B 1_555 1_555
C4B C2 1_555 1_555
H5B C4B 1_555 1_555
C5B C3B 1_555 1_555
C6B C5B 1_555 1_555
H6B C6B 1_555 1_555
C7B C6B 1_555 1_555
C8B C7B 1_555 1_555
H7B C8B 1_555 1_555
C9B C8B 1_555 1_555
H8B C9B 1_555 1_555
C10B C5B 1_555 1_555
C11B C10B 1_555 1_555
C12B C7B 1_555 1_555
Eu1B O7B 1_555 1_555
O1B Eu1B 1_555 1_555
H1B O1B 1_555 1_555
H2B O1B 1_555 1_555
O2B Eu1B 1_555 1_555
H3B O2B 1_555 1_555
H4B O2B 1_555 1_555
Eu1_2 O3B 1_555 1_555
Eu1_3 O7 1_555 1_555
Eu1A O5B 1_555 1_555
Eu1B_2 O3B 1_555 1_555
Eu1B_3 O3 1_555 1_555
Eu1C O5 1_555 1_555
O3_2 Eu1B 1_555 1_555
O3B_2 Eu1B 1_555 1_555
O3B_3 Eu1 1_555 1_555
O4B_2 Eu1B 1_555 1_555
O5A Eu1B 1_555 1_555
O5C Eu1 1_555 1_555
O6A Eu1B 1_555 1_555
O6C Eu1 1_555 1_555
O7_2 Eu1 1_555 1_555
O8_2 Eu1B 1_555 1_555
O8B_2 Eu1 1_555 1_555
O4 C1 1_555 1_555
O6 Eu1C 1_555 1_555
O8 Eu1B_3 1_555 1_555
C9 C10 1_555 1_555
O4B Eu1B_2 1_555 1_555
O6B Eu1A 1_555 1_555
O8B Eu1_2 1_555 1_555
C3B C4B 1_555 1_555
C9B C10B 1_555 1_555
Eu1B_3 O3B_3 1_555 1_555

#END
