
#######################################################################
#
#                 Cambridge Crystallographic Data Centre
#                                CCDC 
#
#######################################################################
#
# If this CIF has been generated from an entry in the Cambridge 
# Structural Database, then it will include bibliographic, chemical, 
# crystal, experimental, refinement or atomic coordinate data resulting 
# from the CCDC's data processing and validation procedures.
#
#######################################################################

data_POHLUU
_symmetry_cell_setting           monoclinic
_symmetry_space_group_name_H-M   'P 21/n'
_symmetry_Int_Tables_number      14
_space_group_name_Hall           '-P 2yn'
loop_
_symmetry_equiv_pos_site_id
_symmetry_equiv_pos_as_xyz
1 x,y,z
2 1/2-x,1/2+y,1/2-z
3 -x,-y,-z
4 1/2+x,1/2-y,1/2+z
_cell_length_a                   6.6541(10)
_cell_length_b                   18.358(3)
_cell_length_c                   14.495(2)
_cell_angle_alpha                90
_cell_angle_beta                 98.063(2)
_cell_angle_gamma                90
_cell_volume                     1753.15
loop_
_atom_site_label
_atom_site_type_symbol
_atom_site_fract_x
_atom_site_fract_y
_atom_site_fract_z
Cu1 Cu 0.22214(5) 0.192475(18) 0.64036(2)
C1 C 0.6223(5) 0.13946(19) 0.7441(2)
H1 H 0.6699 0.1869 0.7412
C2 C 0.7497(5) 0.0871(2) 0.7908(2)
H2 H 0.8795 0.0996 0.8187
C3 C 0.6819(6) 0.0175(2) 0.7950(2)
H3 H 0.7664 -0.0179 0.8256
C4 C 0.4860(5) -0.00133(18) 0.7538(2)
C5 C 0.3972(7) -0.07239(19) 0.7546(3)
H4 H 0.4721 -0.1101 0.7854
C6 C 0.2085(7) -0.08593(19) 0.7119(3)
H5 H 0.1552 -0.1326 0.7144
C7 C 0.0878(6) -0.03000(18) 0.6627(2)
C8 C -0.1067(6) -0.0395(2) 0.6126(3)
H6 H -0.1682 -0.0851 0.6097
C9 C -0.2050(6) 0.0186(2) 0.5681(3)
H7 H -0.3328 0.0123 0.5339
C10 C -0.1159(5) 0.08700(18) 0.5736(2)
H8 H -0.1870 0.1260 0.5438
C11 C 0.1689(5) 0.04052(16) 0.6632(2)
C12 C 0.3682(5) 0.05495(16) 0.7085(2)
C13 C -0.2081(4) 0.33668(15) 0.50144(19)
C14 C -0.3925(4) 0.33712(15) 0.5370(2)
C15 C -0.5040(4) 0.40066(15) 0.5360(2)
H9 H -0.6256 0.4002 0.5608
C16 C -0.4403(4) 0.46561(14) 0.49917(18)
C17 C -0.2586(4) 0.46349(16) 0.4620(2)
H10 H -0.2125 0.5055 0.4359
C18 C -0.1452(5) 0.40034(15) 0.4631(2)
H11 H -0.0245 0.4006 0.4375
C19 C -0.0682(4) 0.27179(16) 0.5076(2)
C20 C -0.4853(4) 0.26786(16) 0.5682(2)
N1 N 0.4373(4) 0.12440(13) 0.70408(17)
N2 N 0.0667(4) 0.09843(13) 0.61974(17)
O1 O -0.0072(3) 0.25175(11) 0.59007(15)
O2 O -0.0181(4) 0.24636(12) 0.43490(16)
O3 O -0.4587(3) 0.21019(11) 0.52781(15)
O4 O -0.5946(3) 0.27451(11) 0.63288(15)
O5 O 0.1506(3) 0.21956(13) 0.78457(15)
H12 H 0.0448 0.2460 0.7801
H14 H 0.2514 0.2260 0.8266
Cu1B Cu -1.22214(5) 0.807525(18) 0.35964(2)
Cu1_2 Cu -0.77786(5) 0.192475(18) 0.64036(2)
Cu1B_2 Cu -0.22214(5) 0.807525(18) 0.35964(2)
C1B C -1.6223(5) 0.86054(19) 0.2559(2)
H1B H -1.6699 0.8131 0.2588
C2B C -1.7497(5) 0.9129(2) 0.2092(2)
H2B H -1.8795 0.9004 0.1813
C3B C -1.6819(6) 0.9825(2) 0.2050(2)
H3B H -1.7664 1.0179 0.1744
C4B C -1.4860(5) 1.00133(18) 0.2462(2)
C5B C -1.3972(7) 1.07239(19) 0.2454(3)
H4B H -1.4721 1.1101 0.2146
C6B C -1.2085(7) 1.08593(19) 0.2881(3)
H5B H -1.1552 1.1326 0.2856
C7B C -1.0878(6) 1.03000(18) 0.3373(2)
C8B C -0.8933(6) 1.0395(2) 0.3874(3)
H6B H -0.8318 1.0851 0.3903
C9B C -0.7950(6) 0.9814(2) 0.4319(3)
H7B H -0.6672 0.9877 0.4661
C10B C -0.8841(5) 0.91300(18) 0.4264(2)
H8B H -0.8130 0.8740 0.4562
C11B C -1.1689(5) 0.95948(16) 0.3368(2)
C12B C -1.3682(5) 0.94505(16) 0.2915(2)
C13B C -0.7919(4) 0.66332(15) 0.49856(19)
C14B C -0.6075(4) 0.66288(15) 0.4630(2)
C15B C -0.4960(4) 0.59934(15) 0.4640(2)
H9B H -0.3744 0.5998 0.4392
C16B C -0.5597(4) 0.53439(14) 0.50083(18)
C17B C -0.7414(4) 0.53651(16) 0.5380(2)
H10B H -0.7875 0.4945 0.5641
C18B C -0.8548(5) 0.59966(15) 0.5369(2)
H11B H -0.9755 0.5994 0.5625
C19B C -0.9318(4) 0.72821(16) 0.4924(2)
C20B C -0.5147(4) 0.73214(16) 0.4318(2)
N1B N -1.4373(4) 0.87560(13) 0.29592(17)
N2B N -1.0667(4) 0.90157(13) 0.38026(17)
O1B O -0.9928(3) 0.74825(11) 0.40993(15)
O2B O -0.9819(4) 0.75364(12) 0.56510(16)
O3B O -0.5413(3) 0.78981(11) 0.47219(15)
O4B O -0.4054(3) 0.72549(11) 0.36712(15)
O4_2 O 0.4054(3) 0.27451(11) 0.63288(15)
O4B_2 O -1.4054(3) 0.72549(11) 0.36712(15)
O5B O -1.1506(3) 0.78044(13) 0.21543(15)
H12B H -1.0448 0.7540 0.2199
H14B H -1.2514 0.7740 0.1734
O6 O 0.3282(4) 0.20338(14) 0.35053(18)
H13 H 0.4049 0.2013 0.4025
H15 H 0.2099 0.2176 0.3579
loop_
_geom_bond_atom_site_label_1
_geom_bond_atom_site_label_2
_geom_bond_site_symmetry_1
_geom_bond_site_symmetry_2
Cu1 N1 1_555 1_555
C1 H1 1_555 1_555
C2 C1 1_555 1_555
H2 C2 1_555 1_555
C3 C2 1_555 1_555
H3 C3 1_555 1_555
C4 C3 1_555 1_555
C5 C4 1_555 1_555
H4 C5 1_555 1_555
C6 C5 1_555 1_555
H5 C6 1_555 1_555
C7 C6 1_555 1_555
C8 C7 1_555 1_555
H6 C8 1_555 1_555
C9 C8 1_555 1_555
H7 C9 1_555 1_555
C10 C9 1_555 1_555
H8 C10 1_555 1_555
C11 C7 1_555 1_555
C12 C4 1_555 1_555
C13 C14 1_555 1_555
C14 C15 1_555 1_555
C15 H9 1_555 1_555
C16 C15 1_555 1_555
C17 C16 1_555 1_555
H10 C17 1_555 1_555
C18 C13 1_555 1_555
H11 C18 1_555 1_555
C19 C13 1_555 1_555
C20 C14 1_555 1_555
N1 C1 1_555 1_555
N2 Cu1 1_555 1_555
O1 Cu1 1_555 1_555
O2 C19 1_555 1_555
O3 C20 1_555 1_555
O4 C20 1_555 1_555
O5 Cu1 1_555 1_555
O6 H13 1_555 1_555
H12 O5 1_555 1_555
H14 O5 1_555 1_555
H15 O6 1_555 1_555
Cu1B N1B 1_555 1_555
Cu1_2 O4 1_555 1_555
Cu1B_2 O4B 1_555 1_555
C1B H1B 1_555 1_555
C2B C1B 1_555 1_555
H2B C2B 1_555 1_555
C3B C2B 1_555 1_555
H3B C3B 1_555 1_555
C4B C3B 1_555 1_555
C5B C4B 1_555 1_555
H4B C5B 1_555 1_555
C6B C5B 1_555 1_555
H5B C6B 1_555 1_555
C7B C6B 1_555 1_555
C8B C7B 1_555 1_555
H6B C8B 1_555 1_555
C9B C8B 1_555 1_555
H7B C9B 1_555 1_555
C10B C9B 1_555 1_555
H8B C10B 1_555 1_555
C11B C7B 1_555 1_555
C12B C4B 1_555 1_555
C13B C14B 1_555 1_555
C14B C15B 1_555 1_555
C15B H9B 1_555 1_555
C16B C16 1_555 1_555
C17B C16B 1_555 1_555
H10B C17B 1_555 1_555
C18B C13B 1_555 1_555
H11B C18B 1_555 1_555
C19B C13B 1_555 1_555
C20B C14B 1_555 1_555
N1B C1B 1_555 1_555
N2B Cu1B 1_555 1_555
O1B Cu1B 1_555 1_555
O2B C19B 1_555 1_555
O3B C20B 1_555 1_555
O4B C20B 1_555 1_555
O4_2 Cu1 1_555 1_555
O4B_2 Cu1B 1_555 1_555
O5B Cu1B 1_555 1_555
H12B O5B 1_555 1_555
H14B O5B 1_555 1_555
C10 N2 1_555 1_555
C11 C12 1_555 1_555
C11 N2 1_555 1_555
C12 N1 1_555 1_555
C17 C18 1_555 1_555
C19 O1 1_555 1_555
C10B N2B 1_555 1_555
C11B C12B 1_555 1_555
C11B N2B 1_555 1_555
C12B N1B 1_555 1_555
C15B C16B 1_555 1_555
C17B C18B 1_555 1_555
C19B O1B 1_555 1_555

#END
