
#######################################################################
#
#                 Cambridge Crystallographic Data Centre
#                                CCDC 
#
#######################################################################
#
# If this CIF has been generated from an entry in the Cambridge 
# Structural Database, then it will include bibliographic, chemical, 
# crystal, experimental, refinement or atomic coordinate data resulting 
# from the CCDC's data processing and validation procedures.
#
#######################################################################

data_POHLUU01
_symmetry_cell_setting           monoclinic
_symmetry_space_group_name_H-M   'P 21/n'
_symmetry_Int_Tables_number      14
_space_group_name_Hall           '-P 2yn'
loop_
_symmetry_equiv_pos_site_id
_symmetry_equiv_pos_as_xyz
1 x,y,z
2 1/2-x,1/2+y,1/2-z
3 -x,-y,-z
4 1/2+x,1/2-y,1/2+z
_cell_length_a                   6.6609(11)
_cell_length_b                   18.389(3)
_cell_length_c                   14.523(2)
_cell_angle_alpha                90
_cell_angle_beta                 98.046(2)
_cell_angle_gamma                90
_cell_volume                     1761.37
loop_
_atom_site_label
_atom_site_type_symbol
_atom_site_fract_x
_atom_site_fract_y
_atom_site_fract_z
Cu1 Cu 0.22222(6) 0.19246(2) 0.14039(3)
N1 N 0.0669(4) 0.09850(15) 0.1200(2)
N2 N 0.4370(5) 0.12456(15) 0.2037(2)
O1 O -0.5945(4) 0.27455(13) 0.13280(18)
O2 O -0.4586(4) 0.21003(12) 0.02756(18)
O3 O -0.0068(4) 0.25177(13) 0.09006(17)
O4 O -0.0183(4) 0.24651(14) -0.06499(19)
O5 O 0.1502(5) 0.21950(17) 0.2848(2)
C1 C -0.4842(5) 0.26779(19) 0.0681(3)
C2 C -0.3923(5) 0.33707(17) 0.0371(2)
C3 C -0.5033(5) 0.40074(17) 0.0364(2)
H1 H -0.6245 0.4003 0.0613
C4 C -0.4397(5) 0.46570(16) -0.0005(2)
C5 C -0.2590(6) 0.46327(19) -0.0381(2)
H2 H -0.2136 0.5050 -0.0650
C6 C -0.1453(6) 0.40036(18) -0.0365(2)
H3 H -0.0242 0.4007 -0.0614
C7 C -0.2086(5) 0.33645(17) 0.0019(2)
C8 C -0.0681(5) 0.27187(19) 0.0079(3)
C9 C -0.1163(6) 0.0870(2) 0.0736(3)
H4 H -0.1872 0.1259 0.0438
C10 C -0.2052(7) 0.0185(2) 0.0684(3)
H5 H -0.3328 0.0122 0.0342
C11 C -0.1082(7) -0.0394(2) 0.1126(3)
H6 H -0.1698 -0.0848 0.1098
C12 C 0.0867(7) -0.0296(2) 0.1626(3)
C13 C 0.2093(8) -0.0857(2) 0.2117(3)
H7 H 0.1570 -0.1325 0.2134
C14 C 0.3972(8) -0.0721(2) 0.2552(3)
H8 H 0.4716 -0.1095 0.2868
C15 C 0.4853(7) -0.0011(2) 0.2539(3)
C16 C 0.6811(7) 0.0169(2) 0.2947(3)
H9 H 0.7655 -0.0187 0.3246
C17 C 0.7495(6) 0.0877(3) 0.2906(3)
H10 H 0.8792 0.1003 0.3185
C18 C 0.6226(6) 0.1397(2) 0.2446(3)
H11 H 0.6697 0.1872 0.2423
C19 C 0.3674(6) 0.05505(19) 0.2084(2)
C20 C 0.1685(6) 0.04082(19) 0.1629(2)
H12 H 0.045(5) 0.244(2) 0.288(3)
H14 H 0.247(6) 0.227(3) 0.329(3)
Cu1B Cu -1.22222(6) 0.80754(2) -0.14039(3)
Cu1_2 Cu -0.77778(6) 0.19246(2) 0.14039(3)
Cu1B_2 Cu -0.22222(6) 0.80754(2) -0.14039(3)
N1B N -1.0669(4) 0.90150(15) -0.1200(2)
N2B N -1.4370(5) 0.87544(15) -0.2037(2)
O1B O -0.4055(4) 0.72545(13) -0.13280(18)
O1_2 O 0.4055(4) 0.27455(13) 0.13280(18)
O1B_2 O -1.4055(4) 0.72545(13) -0.13280(18)
O2B O -0.5414(4) 0.78997(12) -0.02756(18)
O3B O -0.9932(4) 0.74823(13) -0.09006(17)
O4B O -0.9817(4) 0.75349(14) 0.06499(19)
O5B O -1.1502(5) 0.78050(17) -0.2848(2)
C1B C -0.5158(5) 0.73221(19) -0.0681(3)
C2B C -0.6077(5) 0.66293(17) -0.0371(2)
C3B C -0.4967(5) 0.59926(17) -0.0364(2)
H1B H -0.3755 0.5997 -0.0613
C4B C -0.5603(5) 0.53430(16) 0.0005(2)
C5B C -0.7410(6) 0.53673(19) 0.0381(2)
H2B H -0.7864 0.4950 0.0650
C6B C -0.8547(6) 0.59964(18) 0.0365(2)
H3B H -0.9758 0.5993 0.0614
C7B C -0.7914(5) 0.66355(17) -0.0019(2)
C8B C -0.9319(5) 0.72813(19) -0.0079(3)
C9B C -0.8837(6) 0.9130(2) -0.0736(3)
H4B H -0.8128 0.8741 -0.0438
C10B C -0.7948(7) 0.9815(2) -0.0684(3)
H5B H -0.6672 0.9878 -0.0342
C11B C -0.8918(7) 1.0394(2) -0.1126(3)
H6B H -0.8302 1.0848 -0.1098
C12B C -1.0867(7) 1.0296(2) -0.1626(3)
C13B C -1.2093(8) 1.0857(2) -0.2117(3)
H7B H -1.1570 1.1325 -0.2134
C14B C -1.3972(8) 1.0721(2) -0.2552(3)
H8B H -1.4716 1.1095 -0.2868
C15B C -1.4853(7) 1.0011(2) -0.2539(3)
C16B C -1.6811(7) 0.9831(2) -0.2947(3)
H9B H -1.7655 1.0187 -0.3246
C17B C -1.7495(6) 0.9123(3) -0.2906(3)
H10B H -1.8792 0.8997 -0.3185
C18B C -1.6226(6) 0.8603(2) -0.2446(3)
H11B H -1.6697 0.8128 -0.2423
C19B C -1.3674(6) 0.94495(19) -0.2084(2)
C20B C -1.1685(6) 0.95918(19) -0.1629(2)
H12B H -1.045(5) 0.756(2) -0.288(3)
H14B H -1.247(6) 0.773(3) -0.329(3)
O6 O 0.3280(6) 0.2035(2) 0.8509(3)
H13 H 0.209(4) 0.217(3) 0.858(4)
H15 H 0.410(8) 0.205(3) 0.902(3)
loop_
_geom_bond_atom_site_label_1
_geom_bond_atom_site_label_2
_geom_bond_site_symmetry_1
_geom_bond_site_symmetry_2
Cu1 N1 1_555 1_555
N1 C9 1_555 1_555
N2 Cu1 1_555 1_555
O1 C1 1_555 1_555
O2 C1 1_555 1_555
O3 Cu1 1_555 1_555
O4 C8 1_555 1_555
O5 Cu1 1_555 1_555
O6 H13 1_555 1_555
C1 C2 1_555 1_555
C2 C3 1_555 1_555
C3 H1 1_555 1_555
C4 C3 1_555 1_555
C5 C4 1_555 1_555
H2 C5 1_555 1_555
C6 C5 1_555 1_555
H3 C6 1_555 1_555
C7 C2 1_555 1_555
C8 O3 1_555 1_555
C9 H4 1_555 1_555
C10 C9 1_555 1_555
H5 C10 1_555 1_555
C11 C10 1_555 1_555
H6 C11 1_555 1_555
C12 C11 1_555 1_555
C13 C12 1_555 1_555
H7 C13 1_555 1_555
C14 C13 1_555 1_555
H8 C14 1_555 1_555
C15 C14 1_555 1_555
C16 C15 1_555 1_555
H9 C16 1_555 1_555
C17 C16 1_555 1_555
H10 C17 1_555 1_555
C18 N2 1_555 1_555
H11 C18 1_555 1_555
C19 N2 1_555 1_555
C20 N1 1_555 1_555
H12 O5 1_555 1_555
H14 O5 1_555 1_555
H15 O6 1_555 1_555
Cu1B N1B 1_555 1_555
Cu1_2 O1 1_555 1_555
Cu1B_2 O1B 1_555 1_555
N1B C9B 1_555 1_555
N2B Cu1B 1_555 1_555
O1B C1B 1_555 1_555
O1_2 Cu1 1_555 1_555
O1B_2 Cu1B 1_555 1_555
O2B C1B 1_555 1_555
O3B Cu1B 1_555 1_555
O4B C8B 1_555 1_555
O5B Cu1B 1_555 1_555
C1B C2B 1_555 1_555
C2B C3B 1_555 1_555
C3B H1B 1_555 1_555
C4B C4 1_555 1_555
C5B C4B 1_555 1_555
H2B C5B 1_555 1_555
C6B C5B 1_555 1_555
H3B C6B 1_555 1_555
C7B C2B 1_555 1_555
C8B O3B 1_555 1_555
C9B H4B 1_555 1_555
C10B C9B 1_555 1_555
H5B C10B 1_555 1_555
C11B C10B 1_555 1_555
H6B C11B 1_555 1_555
C12B C11B 1_555 1_555
C13B C12B 1_555 1_555
H7B C13B 1_555 1_555
C14B C13B 1_555 1_555
H8B C14B 1_555 1_555
C15B C14B 1_555 1_555
C16B C15B 1_555 1_555
H9B C16B 1_555 1_555
C17B C16B 1_555 1_555
H10B C17B 1_555 1_555
C18B N2B 1_555 1_555
H11B C18B 1_555 1_555
C19B N2B 1_555 1_555
C20B N1B 1_555 1_555
H12B O5B 1_555 1_555
H14B O5B 1_555 1_555
C6 C7 1_555 1_555
C7 C8 1_555 1_555
C12 C20 1_555 1_555
C15 C19 1_555 1_555
C17 C18 1_555 1_555
C19 C20 1_555 1_555
C3B C4B 1_555 1_555
C6B C7B 1_555 1_555
C7B C8B 1_555 1_555
C12B C20B 1_555 1_555
C15B C19B 1_555 1_555
C17B C18B 1_555 1_555
C19B C20B 1_555 1_555

#END
