
#######################################################################
#
#                 Cambridge Crystallographic Data Centre
#                                CCDC 
#
#######################################################################
#
# If this CIF has been generated from an entry in the Cambridge 
# Structural Database, then it will include bibliographic, chemical, 
# crystal, experimental, refinement or atomic coordinate data resulting 
# from the CCDC's data processing and validation procedures.
#
#######################################################################

data_POHMUW
_symmetry_cell_setting           monoclinic
_symmetry_space_group_name_H-M   'P 21/c'
_symmetry_Int_Tables_number      14
_space_group_name_Hall           '-P 2ybc'
loop_
_symmetry_equiv_pos_site_id
_symmetry_equiv_pos_as_xyz
1 x,y,z
2 -x,1/2+y,1/2-z
3 -x,-y,-z
4 x,1/2-y,1/2+z
_cell_length_a                   9.51910(10)
_cell_length_b                   9.61940(10)
_cell_length_c                   9.82040(10)
_cell_angle_alpha                90
_cell_angle_beta                 118.92
_cell_angle_gamma                90
_cell_volume                     787.096
loop_
_atom_site_label
_atom_site_type_symbol
_atom_site_fract_x
_atom_site_fract_y
_atom_site_fract_z
Dy1 Dy 0.766634(17) 0.445306(17) 0.130691(16)
O1 O 0.7465(3) 0.8194(3) 0.5508(3)
O2 O 0.7988(3) 0.4509(3) -0.0959(3)
O3 O 0.8209(3) 0.5833(3) 0.3553(3)
O4 O 0.9600(3) 0.3276(3) 0.3574(3)
O5 O 0.3751(3) 0.8359(3) 0.2585(3)
O6 O 0.7992(4) 0.2131(3) 0.0711(4)
O7 O 0.9685(3) 0.4861(3) -0.1903(3)
O8 O 0.4782(3) 0.5984(3) 0.0835(3)
C1 C 0.7020(4) 0.6554(4) 0.3373(4)
C2 C 0.4990(4) 0.7685(4) 0.2912(4)
C3 C 0.6657(4) 0.7610(4) 0.4227(4)
C4 C 0.9325(4) 0.4813(4) -0.0821(4)
C5 C 0.5412(4) 0.6623(4) 0.2100(4)
H1 H 0.769(8) 0.192(7) -0.015(8)
H2 H 1.016(8) 0.368(7) 0.455(8)
H3 H 1.018(7) 0.281(6) 0.359(6)
H4 H 0.827(9) 0.137(8) 0.131(9)
O2B O 1.2012(3) 0.5491(3) 0.0959(3)
C4B C 1.0675(4) 0.5187(4) 0.0821(4)
O7B O 1.0315(3) 0.5139(3) 0.1903(3)
Dy1B Dy 0.233366(17) 0.554694(17) -0.130691(16)
O1B O 0.2535(3) 0.1806(3) -0.5508(3)
O3B O 0.1791(3) 0.4167(3) -0.3553(3)
O4B O 0.0400(3) 0.6724(3) -0.3574(3)
O5B O 0.6249(3) 0.1641(3) -0.2585(3)
O6B O 0.2008(4) 0.7869(3) -0.0711(4)
O8B O 0.5218(3) 0.4016(3) -0.0835(3)
C1B C 0.2980(4) 0.3446(4) -0.3373(4)
C2B C 0.5010(4) 0.2315(4) -0.2912(4)
C3B C 0.3343(4) 0.2390(4) -0.4227(4)
C5B C 0.4588(4) 0.3377(4) -0.2100(4)
H1B H 0.231(8) 0.808(7) 0.015(8)
H2B H -0.016(8) 0.632(7) -0.455(8)
H3B H -0.018(7) 0.719(6) -0.359(6)
H4B H 0.173(9) 0.863(8) -0.131(9)
Dy1A Dy 0.233366(17) -0.054694(17) -0.630691(16)
Dy1A_2 Dy 0.233366(17) 0.945306(17) 0.369309(16)
Dy1B_2 Dy 1.233366(17) 0.554694(17) -0.130691(16)
Dy1C Dy 0.766634(17) 0.054694(17) -0.369309(16)
Dy1C_2 Dy 0.766634(17) 1.054694(17) 0.630691(16)
O1A O 0.2535(3) 0.3194(3) -0.0508(3)
O1C O 0.7465(3) 0.6806(3) 0.0508(3)
O2B_2 O 0.2012(3) 0.5491(3) 0.0959(3)
O5A O 0.6249(3) 0.3359(3) 0.2415(3)
O5C O 0.3751(3) 0.6641(3) -0.2415(3)
O7_2 O -0.0315(3) 0.4861(3) -0.1903(3)
loop_
_geom_bond_atom_site_label_1
_geom_bond_atom_site_label_2
_geom_bond_site_symmetry_1
_geom_bond_site_symmetry_2
Dy1 O2 1_555 1_555
O1 C3 1_555 1_555
O2 C4 1_555 1_555
O3 Dy1 1_555 1_555
O4 Dy1 1_555 1_555
O5 C2 1_555 1_555
O6 Dy1 1_555 1_555
O7 C4 1_555 1_555
O8 C5 1_555 1_555
C1 O3 1_555 1_555
C2 C3 1_555 1_555
C3 C1 1_555 1_555
C4 C4B 1_555 1_555
C5 C1 1_555 1_555
H1 O6 1_555 1_555
H2 O4 1_555 1_555
H3 O4 1_555 1_555
H4 O6 1_555 1_555
O2B C4B 1_555 1_555
C4B O7B 1_555 1_555
O7B Dy1 1_555 1_555
Dy1B O8 1_555 1_555
O1B C3B 1_555 1_555
O3B Dy1B 1_555 1_555
O4B Dy1B 1_555 1_555
O5B C2B 1_555 1_555
O6B Dy1B 1_555 1_555
O8B Dy1 1_555 1_555
C1B O3B 1_555 1_555
C2B C3B 1_555 1_555
C3B C1B 1_555 1_555
C5B O8B 1_555 1_555
H1B O6B 1_555 1_555
H2B O4B 1_555 1_555
H3B O4B 1_555 1_555
H4B O6B 1_555 1_555
Dy1A O1B 1_555 1_555
Dy1A_2 O5 1_555 1_555
Dy1B_2 O7 1_555 1_555
Dy1C O5B 1_555 1_555
Dy1C_2 O1 1_555 1_555
O1A Dy1B 1_555 1_555
O1C Dy1 1_555 1_555
O2B_2 Dy1B 1_555 1_555
O5A Dy1 1_555 1_555
O5C Dy1B 1_555 1_555
O7_2 Dy1B 1_555 1_555
C2 C5 1_555 1_555
O2B Dy1B_2 1_555 1_555
C1B C5B 1_555 1_555
C2B C5B 1_555 1_555

#END
