
#######################################################################
#
#                 Cambridge Crystallographic Data Centre
#                                CCDC 
#
#######################################################################
#
# If this CIF has been generated from an entry in the Cambridge 
# Structural Database, then it will include bibliographic, chemical, 
# crystal, experimental, refinement or atomic coordinate data resulting 
# from the CCDC's data processing and validation procedures.
#
#######################################################################

data_POHNUX
_symmetry_cell_setting           triclinic
_symmetry_space_group_name_H-M   'P -1'
_symmetry_Int_Tables_number      2
_space_group_name_Hall           '-P 1'
loop_
_symmetry_equiv_pos_site_id
_symmetry_equiv_pos_as_xyz
1 x,y,z
2 -x,-y,-z
_cell_length_a                   8.5846(5)
_cell_length_b                   8.7581(4)
_cell_length_c                   11.2696(7)
_cell_angle_alpha                79.944(4)
_cell_angle_beta                 85.037(4)
_cell_angle_gamma                76.391(3)
_cell_volume                     809.948
loop_
_atom_site_label
_atom_site_type_symbol
_atom_site_fract_x
_atom_site_fract_y
_atom_site_fract_z
U1 U 0.410150(13) 0.736113(12) 0.022376(10)
O1 O 0.2453(3) 0.7639(3) -0.0685(2)
O2 O 0.5712(3) 0.7073(3) 0.1164(2)
O3 O 0.2527(3) 0.6165(3) 0.1850(2)
O4 O 0.4337(3) 0.4324(2) 0.1127(2)
O5 O 0.4785(3) 0.0891(3) 0.1104(2)
O6 O 0.2867(3) -0.0405(2) 0.1100(2)
O7 O -0.0997(3) 0.5031(3) 0.1433(2)
H1 H -0.1000 0.5616 0.0627
O8 O 0.1204(3) 0.3350(3) 0.0829(2)
C1 C 0.3085(4) 0.3682(3) 0.3177(3)
C2 C 0.3870(4) 0.1900(3) 0.3306(3)
H2 H 0.4054 0.1515 0.4154
H3 H 0.4915 0.1793 0.2885
C3 C 0.2995(4) 0.0768(3) 0.2856(3)
C4 C 0.1159(4) 0.1241(4) 0.3075(3)
H4 H 0.0678 0.0769 0.2523
H5 H 0.0900 0.0752 0.3886
C5 C 0.0332(4) 0.3024(4) 0.2939(3)
C6 C 0.1290(4) 0.3913(4) 0.3572(3)
H6 H 0.0797 0.5041 0.3422
H7 H 0.1201 0.3559 0.4435
C7 C 0.3301(4) 0.4729(4) 0.1973(3)
C8 C 0.3900(4) 0.4394(4) 0.4049(3)
H8 H 0.3419 0.5508 0.4005
H9 H 0.5024 0.4257 0.3826
H10 H 0.3765 0.3861 0.4858
C9 C 0.3541(4) 0.0455(3) 0.1588(3)
C10 C 0.3575(4) -0.0911(4) 0.3609(3)
H11 H 0.3046 -0.1647 0.3363
H12 H 0.3324 -0.0859 0.4450
H13 H 0.4714 -0.1262 0.3479
C11 C 0.0208(4) 0.3798(4) 0.1620(4)
C12 C -0.1358(4) 0.3177(4) 0.3556(4)
H14 H -0.1854 0.4282 0.3552
H15 H -0.1277 0.2636 0.4374
H16 H -0.1997 0.2710 0.3128
U1_2 U 0.410150(13) -0.263887(12) 0.022376(10)
U1A U 0.589850(13) 0.263887(12) -0.022376(10)
O4A O 0.5663(3) 0.5676(2) -0.1127(2)
O5A O 0.5215(3) 0.9109(3) -0.1104(2)
O6_2 O 0.2867(3) 0.9595(2) 0.1100(2)
N1 N 0.7954(5) 0.8805(6) 0.3680(4)
C13 C 0.8404(5) 0.8739(5) 0.2716(4)
C14 C 0.8995(5) 0.8651(4) 0.1478(4)
H17 H 0.9351 0.9602 0.1140
H18 H 0.8150 0.8548 0.1014
H19 H 0.9875 0.7745 0.1461
loop_
_geom_bond_atom_site_label_1
_geom_bond_atom_site_label_2
_geom_bond_site_symmetry_1
_geom_bond_site_symmetry_2
U1 O1 1_555 1_555
O2 U1 1_555 1_555
O3 U1 1_555 1_555
O4 U1 1_555 1_555
O5 C9 1_555 1_555
O6 C9 1_555 1_555
O7 H1 1_555 1_555
O8 C11 1_555 1_555
C1 C2 1_555 1_555
C2 H2 1_555 1_555
H3 C2 1_555 1_555
C3 C2 1_555 1_555
C4 C3 1_555 1_555
H4 C4 1_555 1_555
H5 C4 1_555 1_555
C5 C4 1_555 1_555
C6 C1 1_555 1_555
H6 C6 1_555 1_555
H7 C6 1_555 1_555
C7 O3 1_555 1_555
C8 C1 1_555 1_555
H8 C8 1_555 1_555
H9 C8 1_555 1_555
H10 C8 1_555 1_555
C9 C3 1_555 1_555
C10 C3 1_555 1_555
H11 C10 1_555 1_555
H12 C10 1_555 1_555
H13 C10 1_555 1_555
C11 O7 1_555 1_555
C12 C5 1_555 1_555
H14 C12 1_555 1_555
H15 C12 1_555 1_555
H16 C12 1_555 1_555
N1 C13 1_555 1_555
C13 C14 1_555 1_555
C14 H17 1_555 1_555
H18 C14 1_555 1_555
H19 C14 1_555 1_555
U1_2 O6 1_555 1_555
U1A O4 1_555 1_555
O4A U1 1_555 1_555
O5A U1 1_555 1_555
O6_2 U1 1_555 1_555
O4 C7 1_555 1_555
O5 U1A 1_555 1_555
C1 C7 1_555 1_555
C5 C6 1_555 1_555
C5 C11 1_555 1_555
U1A O4A 1_555 1_555

#END
