
#######################################################################
#
#                 Cambridge Crystallographic Data Centre
#                                CCDC 
#
#######################################################################
#
# If this CIF has been generated from an entry in the Cambridge 
# Structural Database, then it will include bibliographic, chemical, 
# crystal, experimental, refinement or atomic coordinate data resulting 
# from the CCDC's data processing and validation procedures.
#
#######################################################################

data_POHPEJ
_symmetry_cell_setting           rhombohedral
_symmetry_space_group_name_H-M   'R -3'
_symmetry_Int_Tables_number      148
_space_group_name_Hall           '-R 3'
loop_
_symmetry_equiv_pos_site_id
_symmetry_equiv_pos_as_xyz
1 x,y,z
2 -y,x-y,z
3 -x+y,-x,z
4 2/3+x,1/3+y,1/3+z
5 2/3-y,1/3+x-y,1/3+z
6 2/3-x+y,1/3-x,1/3+z
7 1/3+x,2/3+y,2/3+z
8 1/3-y,2/3+x-y,2/3+z
9 1/3-x+y,2/3-x,2/3+z
10 -x,-y,-z
11 y,-x+y,-z
12 x-y,x,-z
13 1/3-x,2/3-y,2/3-z
14 1/3+y,2/3-x+y,2/3-z
15 1/3+x-y,2/3+x,2/3-z
16 2/3-x,1/3-y,1/3-z
17 2/3+y,1/3-x+y,1/3-z
18 2/3+x-y,1/3+x,1/3-z
_cell_length_a                   33.4807(14)
_cell_length_b                   33.4807(14)
_cell_length_c                   15.8968(4)
_cell_angle_alpha                90
_cell_angle_beta                 90
_cell_angle_gamma                120
_cell_volume                     15432.3
loop_
_atom_site_label
_atom_site_type_symbol
_atom_site_fract_x
_atom_site_fract_y
_atom_site_fract_z
U1 U 0.198928(15) 0.105514(14) 0.06971(2)
U2 U 0.195141(17) 0.137280(16) 0.43208(3)
Ni1 Ni 0.05296(6) 0.13504(6) 0.24920(10)
O1 O 0.1377(3) 0.0718(3) 0.0632(5)
O2 O 0.2595(3) 0.1400(3) 0.0765(5)
O3 O 0.1357(3) 0.0958(3) 0.4386(5)
O4 O 0.2542(3) 0.1779(3) 0.4256(5)
O5 O 0.1834(3) 0.1495(3) 0.1670(5)
O6 O 0.1859(3) 0.1661(3) 0.3008(5)
O7 O 0.1999(3) 0.1670(3) -0.0046(5)
O8 O 0.1642(3) 0.2017(3) -0.0496(5)
O9 O 0.1154(3) 0.1900(3) 0.2120(5)
O10 O 0.1082(3) 0.2020(3) 0.0771(5)
O11 O 0.2003(3) 0.0732(3) 0.2017(5)
O12 O 0.1956(4) 0.0847(4) 0.3347(6)
O13 O 0.2165(3) 0.0893(3) 0.5023(5)
O14 O 0.1945(3) 0.0196(3) 0.5457(5)
O15 O 0.1465(3) -0.0463(3) 0.4216(5)
O16 O 0.1501(3) -0.0258(3) 0.2860(5)
O17 O 0.0225(3) 0.1304(3) 0.1372(6)
H1 H 0.0467 0.1492 0.0996
H2 H 0.0160 0.1039 0.1240
O18 O -0.0082(3) 0.0797(3) 0.2907(6)
H3 H -0.0307 0.0891 0.2714
H4 H -0.0162 0.0602 0.3355
O19 O 0.0827(3) 0.1403(3) 0.3609(5)
H5 H 0.1120 0.1403 0.3596
H6 H 0.0762 0.1552 0.4073
O20 O 0.0771(3) 0.0943(4) 0.2084(6)
H7 H 0.1064 0.0963 0.2186
H8 H 0.0656 0.0656 0.1791
C1 C 0.2312(4) 0.2295(4) 0.2069(6)
C2 C 0.2526(4) 0.2389(4) 0.1190(7)
H9 H 0.2582 0.2133 0.1054
H10 H 0.2832 0.2672 0.1228
C3 C 0.2275(4) 0.2448(4) 0.0432(6)
C4 C 0.2050(4) 0.2737(4) 0.0688(7)
H11 H 0.2296 0.3063 0.0750
H12 H 0.1846 0.2723 0.0226
C5 C 0.1767(4) 0.2585(4) 0.1508(6)
C6 C 0.2072(4) 0.2581(4) 0.2221(6)
H13 H 0.1880 0.2462 0.2734
H14 H 0.2313 0.2904 0.2337
C7 C 0.1980(4) 0.1783(4) 0.2263(7)
C8 C 0.2714(4) 0.2460(4) 0.2715(7)
H15 H 0.2593 0.2435 0.3286
H16 H 0.2945 0.2782 0.2600
H17 H 0.2857 0.2268 0.2666
C9 C 0.1936(4) 0.2008(4) -0.0031(6)
C10 C 0.2642(4) 0.2710(4) -0.0259(7)
H18 H 0.2792 0.2532 -0.0412
H19 H 0.2875 0.3013 -0.0045
H20 H 0.2493 0.2750 -0.0756
C11 C 0.1308(4) 0.2124(4) 0.1447(7)
C12 C 0.1622(4) 0.2947(4) 0.1720(8)
H21 H 0.1896 0.3255 0.1733
H22 H 0.1471 0.2877 0.2272
H23 H 0.1408 0.2938 0.1291
C13 C 0.2583(4) 0.0721(4) 0.2898(6)
C14 C 0.2793(4) 0.0874(4) 0.3786(6)
H24 H 0.2778 0.1153 0.3932
H25 H 0.3124 0.0969 0.3744
C15 C 0.2592(4) 0.0538(3) 0.4539(6)
C16 C 0.2490(4) 0.0060(4) 0.4264(7)
H26 H 0.2323 -0.0159 0.4727
H27 H 0.2788 0.0068 0.4190
C17 C 0.2209(4) -0.0131(4) 0.3455(7)
C18 C 0.2451(4) 0.0216(3) 0.2744(6)
H28 H 0.2248 0.0105 0.2243
H29 H 0.2736 0.0211 0.2601
C19 C 0.2166(4) 0.0782(4) 0.2739(6)
C20 C 0.2947(4) 0.1030(4) 0.2245(7)
H30 H 0.3040 0.1354 0.2352
H31 H 0.2815 0.0944 0.1679
H32 H 0.3216 0.0990 0.2289
C21 C 0.2199(4) 0.0539(4) 0.5002(6)
C22 C 0.2972(4) 0.0714(4) 0.5228(7)
H33 H 0.2857 0.0508 0.5717
H34 H 0.3052 0.1026 0.5397
H35 H 0.3246 0.0717 0.5004
C23 C 0.1700(4) -0.0264(4) 0.3547(7)
C24 C 0.2188(5) -0.0586(4) 0.3242(8)
H36 H 0.2502 -0.0537 0.3214
H37 H 0.2035 -0.0699 0.2698
H38 H 0.2014 -0.0814 0.3679
U1K U 0.093414(21) 0.198928(15) -0.06971(2)
U2J U 0.137280(16) -0.057861(23) 0.56792(3)
Ni1B Ni 0.08208(8) -0.05296(6) 0.24920(10)
O8J O 0.2017(3) 0.0375(4) 0.0496(5)
O10J O 0.2020(3) 0.0938(4) -0.0771(5)
O14K O 0.1749(4) 0.1945(3) 0.4543(5)
O15K O 0.1928(4) 0.1465(3) 0.5784(5)
O16A O 0.0258(3) 0.1759(4) 0.2860(5)
O21 O 0.0185(13) 0.0545(12) 0.077(2)
O22 O 0.0266(16) 0.0516(16) 0.424(3)
O23? O -0.0139(15) 0.0271(21) 0.098(3)
loop_
_geom_bond_atom_site_label_1
_geom_bond_atom_site_label_2
_geom_bond_site_symmetry_1
_geom_bond_site_symmetry_2
U1 O1 1_555 1_555
U2 O3 1_555 1_555
Ni1 O9 1_555 1_555
O2 U1 1_555 1_555
O4 U2 1_555 1_555
O5 U1 1_555 1_555
O6 U2 1_555 1_555
O7 U1 1_555 1_555
O8 C9 1_555 1_555
O9 C11 1_555 1_555
O10 C11 1_555 1_555
O11 U1 1_555 1_555
O12 U2 1_555 1_555
O13 U2 1_555 1_555
O14 C21 1_555 1_555
O15 C23 1_555 1_555
O16 C23 1_555 1_555
O17 Ni1 1_555 1_555
H1 O17 1_555 1_555
H2 O17 1_555 1_555
O18 Ni1 1_555 1_555
H3 O18 1_555 1_555
H4 O18 1_555 1_555
O19 Ni1 1_555 1_555
H5 O19 1_555 1_555
H6 O19 1_555 1_555
O20 Ni1 1_555 1_555
H7 O20 1_555 1_555
H8 O20 1_555 1_555
C1 C2 1_555 1_555
C2 H9 1_555 1_555
H10 C2 1_555 1_555
C3 C2 1_555 1_555
C4 C3 1_555 1_555
H11 C4 1_555 1_555
H12 C4 1_555 1_555
C5 C4 1_555 1_555
C6 C1 1_555 1_555
H13 C6 1_555 1_555
H14 C6 1_555 1_555
C7 O5 1_555 1_555
C8 C1 1_555 1_555
H15 C8 1_555 1_555
H16 C8 1_555 1_555
H17 C8 1_555 1_555
C9 O7 1_555 1_555
C10 C3 1_555 1_555
H18 C10 1_555 1_555
H19 C10 1_555 1_555
H20 C10 1_555 1_555
C11 C5 1_555 1_555
C12 C5 1_555 1_555
H21 C12 1_555 1_555
H22 C12 1_555 1_555
H23 C12 1_555 1_555
C13 C14 1_555 1_555
C14 H24 1_555 1_555
H25 C14 1_555 1_555
C15 C14 1_555 1_555
C16 C15 1_555 1_555
H26 C16 1_555 1_555
H27 C16 1_555 1_555
C17 C16 1_555 1_555
C18 C13 1_555 1_555
H28 C18 1_555 1_555
H29 C18 1_555 1_555
C19 O11 1_555 1_555
C20 C13 1_555 1_555
H30 C20 1_555 1_555
H31 C20 1_555 1_555
H32 C20 1_555 1_555
C21 O13 1_555 1_555
C22 C15 1_555 1_555
H33 C22 1_555 1_555
H34 C22 1_555 1_555
H35 C22 1_555 1_555
C23 C17 1_555 1_555
C24 C17 1_555 1_555
H36 C24 1_555 1_555
H37 C24 1_555 1_555
H38 C24 1_555 1_555
U1K O8 1_555 1_555
U2J O14 1_555 1_555
Ni1B O16 1_555 1_555
O8J U1 1_555 1_555
O10J U1 1_555 1_555
O14K U2 1_555 1_555
O15K U2 1_555 1_555
O16A Ni1 1_555 1_555
O6 C7 1_555 1_555
O10 U1K 1_555 1_555
O12 C19 1_555 1_555
O15 U2J 1_555 1_555
C1 C7 1_555 1_555
C3 C9 1_555 1_555
C5 C6 1_555 1_555
C13 C19 1_555 1_555
C15 C21 1_555 1_555
C17 C18 1_555 1_555

#END
