
#######################################################################
#
#                 Cambridge Crystallographic Data Centre
#                                CCDC 
#
#######################################################################
#
# If this CIF has been generated from an entry in the Cambridge 
# Structural Database, then it will include bibliographic, chemical, 
# crystal, experimental, refinement or atomic coordinate data resulting 
# from the CCDC's data processing and validation procedures.
#
#######################################################################

data_POHQIN
_symmetry_cell_setting           orthorhombic
_symmetry_space_group_name_H-M   'P b c n'
_symmetry_Int_Tables_number      60
_space_group_name_Hall           '-P 2n 2ab'
loop_
_symmetry_equiv_pos_site_id
_symmetry_equiv_pos_as_xyz
1 x,y,z
2 1/2+x,1/2-y,-z
3 -x,y,1/2-z
4 1/2-x,1/2-y,1/2+z
5 -x,-y,-z
6 1/2-x,1/2+y,z
7 x,-y,1/2+z
8 1/2+x,1/2+y,1/2-z
_cell_length_a                   10.391(2)
_cell_length_b                   14.988(3)
_cell_length_c                   6.2556(14)
_cell_angle_alpha                90
_cell_angle_beta                 90
_cell_angle_gamma                90
_cell_volume                     974.249
loop_
_atom_site_label
_atom_site_type_symbol
_atom_site_fract_x
_atom_site_fract_y
_atom_site_fract_z
Cd1 Cd 0.5000 0.564874(18) 0.2500
N1 N 0.4230(2) 0.69051(16) 0.0655(4)
N2 N 0.4251(2) 0.83683(16) 0.0340(4)
H1 H 0.4408 0.8933 0.0618
N3 N 0.3595(2) 0.52239(16) 0.5162(4)
N4 N 0.2548(2) 0.49355(16) 0.4727(4)
N5 N 0.1531(3) 0.46735(18) 0.4323(4)
C1 C 0.4630(3) 0.76652(19) 0.1519(5)
C2 C 0.3573(3) 0.8043(2) -0.1375(5)
H2 H 0.3179 0.8382 -0.2480
C3 C 0.3578(3) 0.7140(2) -0.1176(5)
H3 H 0.3191 0.6734 -0.2150
Cd1F Cd 0.5000 0.435126(18) 0.7500
Cd1F_2 Cd 0.5000 0.435126(18) -0.2500
N1B N 0.5770(2) 0.69051(16) 0.4345(4)
N2B N 0.5749(2) 0.83683(16) 0.4660(4)
H1B H 0.5592 0.8933 0.4382
N3F N 0.3595(2) 0.47761(16) 0.0162(4)
N3D N 0.6405(2) 0.47761(16) 0.4838(4)
N3B N 0.6405(2) 0.52239(16) -0.0162(4)
N4F N 0.2548(2) 0.50645(16) -0.0273(4)
N5F N 0.1531(3) 0.53265(18) -0.0677(4)
C1B C 0.5370(3) 0.76652(19) 0.3481(5)
C2B C 0.6427(3) 0.8043(2) 0.6375(5)
H2B H 0.6821 0.8382 0.7480
C3B C 0.6422(3) 0.7140(2) 0.6176(5)
H3B H 0.6809 0.6734 0.7150
loop_
_geom_bond_atom_site_label_1
_geom_bond_atom_site_label_2
_geom_bond_site_symmetry_1
_geom_bond_site_symmetry_2
Cd1 N1 1_555 1_555
N1 C1 1_555 1_555
N2 H1 1_555 1_555
N3 Cd1 1_555 1_555
N4 N3 1_555 1_555
N5 N4 1_555 1_555
C1 N2 1_555 1_555
C2 N2 1_555 1_555
H2 C2 1_555 1_555
C3 N1 1_555 1_555
H3 C3 1_555 1_555
Cd1F N3 1_555 1_555
Cd1F_2 N3F 1_555 1_555
N1B Cd1 1_555 1_555
N2B H1B 1_555 1_555
N3F Cd1 1_555 1_555
N3D Cd1 1_555 1_555
N3B Cd1 1_555 1_555
N4F N3F 1_555 1_555
N5F N4F 1_555 1_555
C1B C1 1_555 1_555
C2B N2B 1_555 1_555
H2B C2B 1_555 1_555
C3B N1B 1_555 1_555
H3B C3B 1_555 1_555
C2 C3 1_555 1_555
Cd1F N3D 1_555 1_555
Cd1F_2 N3B 1_555 1_555
N1B C1B 1_555 1_555
N2B C1B 1_555 1_555
C2B C3B 1_555 1_555

#END
