
#######################################################################
#
#                 Cambridge Crystallographic Data Centre
#                                CCDC 
#
#######################################################################
#
# If this CIF has been generated from an entry in the Cambridge 
# Structural Database, then it will include bibliographic, chemical, 
# crystal, experimental, refinement or atomic coordinate data resulting 
# from the CCDC's data processing and validation procedures.
#
#######################################################################

data_POHQEJ
_symmetry_cell_setting           monoclinic
_symmetry_space_group_name_H-M   'C 2/c'
_symmetry_Int_Tables_number      15
_space_group_name_Hall           '-C 2yn'
loop_
_symmetry_equiv_pos_site_id
_symmetry_equiv_pos_as_xyz
1 x,y,z
2 1/2+x,1/2+y,z
3 -x,y,1/2-z
4 1/2-x,1/2+y,1/2-z
5 -x,-y,-z
6 1/2-x,1/2-y,-z
7 x,-y,1/2+z
8 1/2+x,1/2-y,1/2+z
_cell_length_a                   13.316(3)
_cell_length_b                   8.5216(15)
_cell_length_c                   10.952(2)
_cell_angle_alpha                90
_cell_angle_beta                 109.105(4)
_cell_angle_gamma                90
_cell_volume                     1174.31
loop_
_atom_site_label
_atom_site_type_symbol
_atom_site_fract_x
_atom_site_fract_y
_atom_site_fract_z
Cd1 Cd 0.5000 0.08472(2) 0.7500
S1 S 0.31892(5) 0.07674(7) 0.81797(6)
N1 N 0.56639(13) 0.3039(2) 0.87981(15)
N2 N 0.57669(15) 0.5609(2) 0.89234(19)
H1 H 0.5669 0.6604 0.8702
N3 N 0.42094(15) 0.09024(19) 1.08581(18)
C1 C 0.63074(17) 0.3451(3) 1.00146(19)
H2 H 0.6653 0.2739 1.0688
C2 C 0.63699(17) 0.5037(3) 1.0100(2)
H3 H 0.6758 0.5635 1.0836
C3 C 0.53491(17) 0.4367(2) 0.8164(2)
C4 C 0.37910(17) 0.0823(2) 0.9750(2)
Cd1F Cd 0.5000 -0.08472(2) 1.2500
Cd1F_2 Cd 0.5000 -0.08472(2) 0.2500
S1B S 0.68108(5) 0.07674(7) 0.68203(6)
N1B N 0.43361(13) 0.3039(2) 0.62019(15)
N2B N 0.42331(15) 0.5609(2) 0.60766(19)
H1B H 0.4331 0.6604 0.6298
N3B N 0.57906(15) 0.09024(19) 0.41419(18)
N3F N 0.42094(15) -0.09024(19) 0.58581(18)
N3D N 0.57906(15) -0.09024(19) 0.91419(18)
C1B C 0.36926(17) 0.3451(3) 0.49854(19)
H2B H 0.3347 0.2739 0.4312
C2B C 0.36301(17) 0.5037(3) 0.4900(2)
H3B H 0.3242 0.5635 0.4164
C3B C 0.46509(17) 0.4367(2) 0.6836(2)
C4B C 0.62090(17) 0.0823(2) 0.5250(2)
loop_
_geom_bond_atom_site_label_1
_geom_bond_atom_site_label_2
_geom_bond_site_symmetry_1
_geom_bond_site_symmetry_2
Cd1 S1 1_555 1_555
S1 C4 1_555 1_555
N1 Cd1 1_555 1_555
N2 H1 1_555 1_555
N3 C4 1_555 1_555
C1 N1 1_555 1_555
H2 C1 1_555 1_555
C2 N2 1_555 1_555
H3 C2 1_555 1_555
C3 N1 1_555 1_555
Cd1F N3 1_555 1_555
Cd1F_2 N3B 1_555 1_555
S1B Cd1 1_555 1_555
N1B Cd1 1_555 1_555
N2B H1B 1_555 1_555
N3B C4B 1_555 1_555
N3F Cd1 1_555 1_555
N3D Cd1 1_555 1_555
C1B N1B 1_555 1_555
H2B C1B 1_555 1_555
C2B N2B 1_555 1_555
H3B C2B 1_555 1_555
C3B C3 1_555 1_555
C4B S1B 1_555 1_555
N2 C3 1_555 1_555
C1 C2 1_555 1_555
N1B C3B 1_555 1_555
N2B C3B 1_555 1_555
C1B C2B 1_555 1_555

#END
