
#######################################################################
#
#                 Cambridge Crystallographic Data Centre
#                                CCDC 
#
#######################################################################
#
# If this CIF has been generated from an entry in the Cambridge 
# Structural Database, then it will include bibliographic, chemical, 
# crystal, experimental, refinement or atomic coordinate data resulting 
# from the CCDC's data processing and validation procedures.
#
#######################################################################

data_POHRIO
_symmetry_cell_setting           monoclinic
_symmetry_space_group_name_H-M   'P 21/c'
_symmetry_Int_Tables_number      14
_space_group_name_Hall           '-P 2ybc'
loop_
_symmetry_equiv_pos_site_id
_symmetry_equiv_pos_as_xyz
1 x,y,z
2 -x,1/2+y,1/2-z
3 -x,-y,-z
4 x,1/2-y,1/2+z
_cell_length_a                   19.595(3)
_cell_length_b                   5.4645(7)
_cell_length_c                   9.0554(17)
_cell_angle_alpha                90
_cell_angle_beta                 98.024(2)
_cell_angle_gamma                90
_cell_volume                     960.131
loop_
_atom_site_label
_atom_site_type_symbol
_atom_site_fract_x
_atom_site_fract_y
_atom_site_fract_z
Co1 Co 0.5000 0.5000 0.5000
N1 N 0.4138(2) 0.3399(8) 0.5827(4)
H1 H 0.3816 0.2981 0.5060
H2 H 0.4271 0.2035 0.6345
N2 N 0.1781(3) 0.2002(13) 0.6182(7)
H3 H 0.1587 0.0732 0.6500
O1 O 0.48534(18) 0.7499(7) 0.6595(3)
O2 O 0.42744(19) 0.8170(8) 0.8461(4)
C1 C 0.4377(3) 0.7071(10) 0.7305(5)
C2 C 0.3853(3) 0.5123(12) 0.6777(6)
H4 H 0.3737 0.4242 0.7651
C3 C 0.3226(3) 0.6320(14) 0.6036(7)
H5 H 0.3306 0.6835 0.5050
H6 H 0.3144 0.7780 0.6594
C4 C 0.2455(3) 0.2773(16) 0.6624(7)
H7 H 0.2767 0.1996 0.7340
C5 C 0.2590(3) 0.4776(13) 0.5880(8)
C6 C 0.1977(3) 0.5410(14) 0.4954(8)
C7 C 0.1494(3) 0.3604(14) 0.5174(7)
C8 C 0.0826(4) 0.376(2) 0.4412(9)
H8 H 0.0500 0.2580 0.4557
C9 C 0.0662(5) 0.558(2) 0.3490(10)
H9 H 0.0214 0.5695 0.2997
C10 C 0.1126(4) 0.728(2) 0.3240(9)
H10 H 0.0988 0.8512 0.2558
C11 C 0.1786(4) 0.7283(16) 0.3931(9)
H11 H 0.2098 0.8481 0.3732
Co1C Co 0.5000 1.0000 1.0000
Co1C_2 Co 0.5000 0.0000 0.0000
N1B N 0.5862(2) 0.6601(8) 0.4173(4)
H1B H 0.6184 0.7019 0.4940
H2B H 0.5729 0.7965 0.3655
N2B N 0.8219(3) 0.7998(13) 0.3818(7)
H3B H 0.8413 0.9268 0.3500
O1B O 0.51466(18) 0.2501(7) 0.3405(3)
O2B O 0.57256(19) 0.1830(8) 0.1539(4)
O2C O 0.42744(19) 0.6830(8) 0.3461(4)
O2A O 0.57256(19) 0.3170(8) 0.6539(4)
C1B C 0.5623(3) 0.2929(10) 0.2695(5)
C2B C 0.6147(3) 0.4877(12) 0.3223(6)
H4B H 0.6263 0.5758 0.2349
C3B C 0.6774(3) 0.3680(14) 0.3964(7)
H5B H 0.6694 0.3165 0.4950
H6B H 0.6856 0.2220 0.3406
C4B C 0.7545(3) 0.7227(16) 0.3376(7)
H7B H 0.7233 0.8004 0.2660
C5B C 0.7410(3) 0.5224(13) 0.4120(8)
C6B C 0.8023(3) 0.4590(14) 0.5046(8)
C7B C 0.8506(3) 0.6396(14) 0.4826(7)
C8B C 0.9174(4) 0.624(2) 0.5588(9)
H8B H 0.9500 0.7420 0.5443
C9B C 0.9338(5) 0.442(2) 0.6510(10)
H9B H 0.9786 0.4305 0.7003
C10B C 0.8874(4) 0.272(2) 0.6760(9)
H10B H 0.9012 0.1488 0.7442
C11B C 0.8214(4) 0.2717(16) 0.6069(9)
H11B H 0.7902 0.1519 0.6268
loop_
_geom_bond_atom_site_label_1
_geom_bond_atom_site_label_2
_geom_bond_site_symmetry_1
_geom_bond_site_symmetry_2
Co1 N1 1_555 1_555
N1 H1 1_555 1_555
H2 N1 1_555 1_555
N2 H3 1_555 1_555
O1 Co1 1_555 1_555
O2 C1 1_555 1_555
C1 O1 1_555 1_555
C2 N1 1_555 1_555
H4 C2 1_555 1_555
C3 C2 1_555 1_555
H5 C3 1_555 1_555
H6 C3 1_555 1_555
C4 N2 1_555 1_555
H7 C4 1_555 1_555
C5 C3 1_555 1_555
C6 C5 1_555 1_555
C7 N2 1_555 1_555
C8 C7 1_555 1_555
H8 C8 1_555 1_555
C9 C8 1_555 1_555
H9 C9 1_555 1_555
C10 C9 1_555 1_555
H10 C10 1_555 1_555
C11 C6 1_555 1_555
H11 C11 1_555 1_555
Co1C O2 1_555 1_555
Co1C_2 O2B 1_555 1_555
N1B Co1 1_555 1_555
H1B N1B 1_555 1_555
H2B N1B 1_555 1_555
N2B H3B 1_555 1_555
O1B Co1 1_555 1_555
O2B C1B 1_555 1_555
O2C Co1 1_555 1_555
O2A Co1 1_555 1_555
C1B O1B 1_555 1_555
C2B N1B 1_555 1_555
H4B C2B 1_555 1_555
C3B C2B 1_555 1_555
H5B C3B 1_555 1_555
H6B C3B 1_555 1_555
C4B N2B 1_555 1_555
H7B C4B 1_555 1_555
C5B C3B 1_555 1_555
C6B C5B 1_555 1_555
C7B N2B 1_555 1_555
C8B C7B 1_555 1_555
H8B C8B 1_555 1_555
C9B C8B 1_555 1_555
H9B C9B 1_555 1_555
C10B C9B 1_555 1_555
H10B C10B 1_555 1_555
C11B C6B 1_555 1_555
H11B C11B 1_555 1_555
C1 C2 1_555 1_555
C4 C5 1_555 1_555
C6 C7 1_555 1_555
C10 C11 1_555 1_555
C1B C2B 1_555 1_555
C4B C5B 1_555 1_555
C6B C7B 1_555 1_555
C10B C11B 1_555 1_555

#END
