
#######################################################################
#
#                 Cambridge Crystallographic Data Centre
#                                CCDC 
#
#######################################################################
#
# If this CIF has been generated from an entry in the Cambridge 
# Structural Database, then it will include bibliographic, chemical, 
# crystal, experimental, refinement or atomic coordinate data resulting 
# from the CCDC's data processing and validation procedures.
#
#######################################################################

data_POHSIP
_symmetry_cell_setting           triclinic
_symmetry_space_group_name_H-M   'P -1'
_symmetry_Int_Tables_number      2
_space_group_name_Hall           '-P 1'
loop_
_symmetry_equiv_pos_site_id
_symmetry_equiv_pos_as_xyz
1 x,y,z
2 -x,-y,-z
_cell_length_a                   9.8240(10)
_cell_length_b                   12.9370(10)
_cell_length_c                   17.374(2)
_cell_angle_alpha                97.810(10)
_cell_angle_beta                 101.390(10)
_cell_angle_gamma                108.520(10)
_cell_volume                     2005.13
loop_
_atom_site_label
_atom_site_type_symbol
_atom_site_fract_x
_atom_site_fract_y
_atom_site_fract_z
Mo1 Mo 0.25887(5) 0.22028(4) 0.19622(3)
Cu1 Cu 0.03335(7) 0.26534(6) 0.23443(4)
Cu2 Cu 0.41780(8) 0.43376(6) 0.21827(4)
Cu3 Cu 0.37507(7) 0.23458(6) 0.35271(4)
O1 O 0.2366(4) 0.1188(3) 0.1160(2)
S1 S 0.13176(15) 0.14230(12) 0.28067(8)
S2 S 0.17501(17) 0.35520(14) 0.15799(9)
S3 S 0.49939(15) 0.30492(13) 0.26422(9)
Br1 Br 0.57230(10) 0.60785(7) 0.22898(5)
Br2 Br 0.49648(8) 0.14059(7) 0.43405(5)
N1 N -0.1680(4) 0.1696(4) 0.1467(2)
N2 N -0.3421(5) 0.6469(4) 0.5625(3)
N3 N -0.0432(5) 0.3499(4) 0.3107(3)
C1 C -0.1683(6) 0.0974(5) 0.0837(3)
H1 H -0.0784 0.0914 0.0787
C2 C -0.2949(6) 0.0318(5) 0.0264(3)
H2 H -0.2884 -0.0168 -0.0162
C3 C -0.4317(5) 0.0359(4) 0.0300(3)
C4 C -0.4296(6) 0.1104(5) 0.0940(3)
H3 H -0.5182 0.1177 0.1002
C5 C -0.2979(6) 0.1758(5) 0.1500(3)
H4 H -0.3016 0.2267 0.1921
C6 C -0.3052(7) 0.6786(6) 0.4985(4)
H5 H -0.3155 0.7444 0.4873
C7 C -0.2523(7) 0.6204(6) 0.4474(4)
H6 H -0.2278 0.6475 0.4031
C8 C -0.2355(6) 0.5241(5) 0.4606(3)
C9 C -0.2747(6) 0.4919(5) 0.5237(3)
H7 H -0.2659 0.4260 0.5356
C10 C -0.3289(6) 0.5533(5) 0.5732(3)
H8 H -0.3573 0.5256 0.6165
C11 C -0.1699(6) 0.4627(5) 0.4079(3)
C12 C -0.1591(7) 0.3616(5) 0.4178(3)
H9 H -0.1950 0.3276 0.4572
C13 C -0.1213(7) 0.5031(5) 0.3452(4)
H10 H -0.1312 0.5689 0.3338
C14 C -0.0577(7) 0.4458(5) 0.2992(4)
H11 H -0.0232 0.4758 0.2581
C15 C -0.0932(6) 0.3112(5) 0.3674(3)
H12 H -0.0850 0.2437 0.3758
Mo1A Mo -1.25887(5) -0.22028(4) -0.19622(3)
Mo1A_2 Mo -0.25887(5) 0.77972(4) 0.80378(3)
Cu1A Cu -1.03335(7) -0.26534(6) -0.23443(4)
Cu1A_2 Cu -0.03335(7) 0.73466(6) 0.76557(4)
Cu2A Cu -1.41780(8) -0.43376(6) -0.21827(4)
Cu2A_2 Cu -0.41780(8) 0.56624(6) 0.78173(4)
Cu3A Cu -0.37507(7) 0.76542(6) 0.64729(4)
Cu3A_2 Cu -1.37507(7) -0.23458(6) -0.35271(4)
O1A O -1.2366(4) -0.1188(3) -0.1160(2)
S1A S -1.13176(15) -0.14230(12) -0.28067(8)
S1A_2 S -0.13176(15) 0.85770(12) 0.71933(8)
S2A S -1.17501(17) -0.35520(14) -0.15799(9)
S3A S -0.49939(15) 0.69508(13) 0.73578(9)
S3A_2 S -1.49939(15) -0.30492(13) -0.26422(9)
Br1A Br -1.57230(10) -0.60785(7) -0.22898(5)
Br2A Br -0.49648(8) 0.85941(7) 0.56595(5)
N1A N -0.8320(4) -0.1696(4) -0.1467(2)
N2A N 0.3421(5) 0.3531(4) 0.4375(3)
N3A N 0.0432(5) 0.6501(4) 0.6893(3)
N3A_2 N -0.9568(5) -0.3499(4) -0.3107(3)
C1A C -0.8317(6) -0.0974(5) -0.0837(3)
H1A H -0.9216 -0.0914 -0.0787
C2A C -0.7051(6) -0.0318(5) -0.0264(3)
H2A H -0.7116 0.0168 0.0162
C3A C -0.5683(5) -0.0359(4) -0.0300(3)
C4A C -0.5704(6) -0.1104(5) -0.0940(3)
H3A H -0.4818 -0.1177 -0.1002
C5A C -0.7021(6) -0.1758(5) -0.1500(3)
H4A H -0.6984 -0.2267 -0.1921
C6A C 0.3052(7) 0.3214(6) 0.5015(4)
H5A H 0.3155 0.2556 0.5127
C7A C 0.2523(7) 0.3796(6) 0.5526(4)
H6A H 0.2278 0.3525 0.5969
C8A C 0.2355(6) 0.4759(5) 0.5394(3)
C9A C 0.2747(6) 0.5081(5) 0.4763(3)
H7A H 0.2659 0.5740 0.4644
C10A C 0.3289(6) 0.4467(5) 0.4268(3)
H8A H 0.3573 0.4744 0.3835
C11A C 0.1699(6) 0.5373(5) 0.5921(3)
C12A C 0.1591(7) 0.6384(5) 0.5822(3)
H9A H 0.1950 0.6724 0.5428
C13A C 0.1213(7) 0.4969(5) 0.6548(4)
H10A H 0.1312 0.4311 0.6662
C14A C 0.0577(7) 0.5542(5) 0.7008(4)
H11A H 0.0232 0.5242 0.7419
C15A C 0.0932(6) 0.6888(5) 0.6326(3)
H12A H 0.0850 0.7563 0.6242
N4 N 0.2067(6) 0.7968(4) 0.1939(3)
C16 C 0.0950(7) 0.8390(5) 0.1473(4)
H13 H 0.0952 0.9049 0.1815
H14 H 0.1291 0.8620 0.1015
C17 C -0.0615(7) 0.7593(6) 0.1174(4)
H15 H -0.0961 0.7341 0.1625
H16 H -0.0640 0.6946 0.0809
C18 C -0.1656(8) 0.8097(6) 0.0746(4)
H17 H -0.1615 0.8748 0.1113
H18 H -0.1296 0.8351 0.0298
C19 C -0.3230(8) 0.7348(6) 0.0434(4)
H19 H -0.3277 0.6596 0.0270
H20 H -0.3692 0.7579 -0.0018
H21 H -0.3741 0.7385 0.0849
C20 C 0.1674(7) 0.7692(5) 0.2695(4)
H22 H 0.2415 0.7432 0.2975
H23 H 0.0730 0.7076 0.2546
C21 C 0.1555(7) 0.8623(5) 0.3276(4)
H24 H 0.2487 0.9250 0.3430
H25 H 0.0785 0.8872 0.3014
C22 C 0.1204(8) 0.8250(6) 0.3995(4)
H26 H 0.1981 0.8002 0.4249
H27 H 0.0284 0.7611 0.3831
C23 C 0.1045(9) 0.9122(6) 0.4609(4)
H28 H 0.2009 0.9654 0.4889
H29 H 0.0571 0.8768 0.4986
H30 H 0.0453 0.9496 0.4342
C24 C 0.2111(7) 0.6923(5) 0.1444(4)
H31 H 0.2857 0.6705 0.1764
H32 H 0.1161 0.6335 0.1368
C25 C 0.2418(8) 0.6946(5) 0.0637(4)
H33 H 0.1665 0.7139 0.0298
H34 H 0.3372 0.7522 0.0697
C26 C 0.2433(8) 0.5874(5) 0.0242(4)
H35 H 0.1537 0.5288 0.0257
H36 H 0.3271 0.5736 0.0549
C27 C 0.2527(8) 0.5792(6) -0.0610(4)
H37 H 0.1788 0.6029 -0.0906
H38 H 0.2358 0.5032 -0.0847
H39 H 0.3495 0.6261 -0.0626
C28 C 0.3581(7) 0.8933(5) 0.2130(4)
H40 H 0.3823 0.9066 0.1629
H41 H 0.3491 0.9606 0.2400
C29 C 0.4823(7) 0.8713(6) 0.2643(5)
H42 H 0.4816 0.7978 0.2430
H43 H 0.4702 0.8736 0.3185
C30 C 0.6321(8) 0.9617(6) 0.2655(5)
H44 H 0.6416 0.9619 0.2110
H45 H 0.6345 1.0348 0.2892
C31 C 0.7550(8) 0.9378(6) 0.3123(5)
H46 H 0.7505 0.9448 0.3674
H47 H 0.8475 0.9898 0.3092
H48 H 0.7478 0.8632 0.2911
O2 O 0.3941(15) 0.6916(11) 0.3731(8)
H49 H 0.3560 0.6337 0.3353
H50 H 0.4376 0.6759 0.4148
loop_
_geom_bond_atom_site_label_1
_geom_bond_atom_site_label_2
_geom_bond_site_symmetry_1
_geom_bond_site_symmetry_2
Mo1 Cu1 1_555 1_555
Cu1 S1 1_555 1_555
Cu2 Mo1 1_555 1_555
Cu3 Mo1 1_555 1_555
O1 Mo1 1_555 1_555
S1 Mo1 1_555 1_555
S2 Mo1 1_555 1_555
S3 Mo1 1_555 1_555
Br1 Cu2 1_555 1_555
Br2 Cu3 1_555 1_555
N1 Cu1 1_555 1_555
N2 C6 1_555 1_555
N3 Cu1 1_555 1_555
N4 C16 1_555 1_555
C1 N1 1_555 1_555
H1 C1 1_555 1_555
C2 C1 1_555 1_555
H2 C2 1_555 1_555
C3 C2 1_555 1_555
C4 C3 1_555 1_555
H3 C4 1_555 1_555
C5 N1 1_555 1_555
H4 C5 1_555 1_555
C6 H5 1_555 1_555
C7 C6 1_555 1_555
H6 C7 1_555 1_555
C8 C7 1_555 1_555
C9 C8 1_555 1_555
H7 C9 1_555 1_555
C10 N2 1_555 1_555
H8 C10 1_555 1_555
C11 C8 1_555 1_555
C12 C11 1_555 1_555
H9 C12 1_555 1_555
C13 C11 1_555 1_555
H10 C13 1_555 1_555
C14 N3 1_555 1_555
H11 C14 1_555 1_555
C15 N3 1_555 1_555
H12 C15 1_555 1_555
C16 H13 1_555 1_555
H14 C16 1_555 1_555
C17 C16 1_555 1_555
H15 C17 1_555 1_555
H16 C17 1_555 1_555
C18 C17 1_555 1_555
H17 C18 1_555 1_555
H18 C18 1_555 1_555
C19 C18 1_555 1_555
H19 C19 1_555 1_555
H20 C19 1_555 1_555
H21 C19 1_555 1_555
C20 N4 1_555 1_555
H22 C20 1_555 1_555
H23 C20 1_555 1_555
C21 C20 1_555 1_555
H24 C21 1_555 1_555
H25 C21 1_555 1_555
C22 C21 1_555 1_555
H26 C22 1_555 1_555
H27 C22 1_555 1_555
C23 C22 1_555 1_555
H28 C23 1_555 1_555
H29 C23 1_555 1_555
H30 C23 1_555 1_555
C24 N4 1_555 1_555
H31 C24 1_555 1_555
H32 C24 1_555 1_555
C25 C24 1_555 1_555
H33 C25 1_555 1_555
H34 C25 1_555 1_555
C26 C25 1_555 1_555
H35 C26 1_555 1_555
H36 C26 1_555 1_555
C27 C26 1_555 1_555
H37 C27 1_555 1_555
H38 C27 1_555 1_555
H39 C27 1_555 1_555
C28 N4 1_555 1_555
H40 C28 1_555 1_555
H41 C28 1_555 1_555
C29 C28 1_555 1_555
H42 C29 1_555 1_555
H43 C29 1_555 1_555
C30 C29 1_555 1_555
H44 C30 1_555 1_555
H45 C30 1_555 1_555
C31 C30 1_555 1_555
H46 C31 1_555 1_555
H47 C31 1_555 1_555
H48 C31 1_555 1_555
O2 H49 1_555 1_555
H50 O2 1_555 1_555
Mo1A Cu1A 1_555 1_555
Mo1A_2 Cu1A_2 1_555 1_555
Cu1A S1A 1_555 1_555
Cu1A_2 S1A_2 1_555 1_555
Cu2A Mo1A 1_555 1_555
Cu2A_2 Mo1A_2 1_555 1_555
Cu3A N2 1_555 1_555
Cu3A_2 Mo1A 1_555 1_555
O1A Mo1A 1_555 1_555
S1A Mo1A 1_555 1_555
S1A_2 Mo1A_2 1_555 1_555
S2A Mo1A 1_555 1_555
S3A Mo1A_2 1_555 1_555
S3A_2 Mo1A 1_555 1_555
Br1A Cu2A 1_555 1_555
Br2A Cu3A 1_555 1_555
N1A Cu1A 1_555 1_555
N2A Cu3 1_555 1_555
N3A Cu1A_2 1_555 1_555
N3A_2 Cu1A 1_555 1_555
C1A N1A 1_555 1_555
H1A C1A 1_555 1_555
C2A C1A 1_555 1_555
H2A C2A 1_555 1_555
C3A C3 1_555 1_555
C4A C3A 1_555 1_555
H3A C4A 1_555 1_555
C5A N1A 1_555 1_555
H4A C5A 1_555 1_555
C6A N2A 1_555 1_555
H5A C6A 1_555 1_555
C7A C6A 1_555 1_555
H6A C7A 1_555 1_555
C8A C7A 1_555 1_555
C9A C8A 1_555 1_555
H7A C9A 1_555 1_555
C10A N2A 1_555 1_555
H8A C10A 1_555 1_555
C11A C8A 1_555 1_555
C12A C11A 1_555 1_555
H9A C12A 1_555 1_555
C13A C11A 1_555 1_555
H10A C13A 1_555 1_555
C14A N3A 1_555 1_555
H11A C14A 1_555 1_555
C15A N3A 1_555 1_555
H12A C15A 1_555 1_555
Cu1 S2 1_555 1_555
Cu2 S2 1_555 1_555
Cu2 S3 1_555 1_555
Cu3 S1 1_555 1_555
Cu3 S3 1_555 1_555
C4 C5 1_555 1_555
C9 C10 1_555 1_555
C12 C15 1_555 1_555
C13 C14 1_555 1_555
Mo1A_2 Cu3A 1_555 1_555
Cu1A S2A 1_555 1_555
Cu2A S2A 1_555 1_555
Cu2A S3A_2 1_555 1_555
Cu2A_2 S3A 1_555 1_555
Cu3A S1A_2 1_555 1_555
Cu3A S3A 1_555 1_555
Cu3A_2 S1A 1_555 1_555
Cu3A_2 S3A_2 1_555 1_555
C2A C3A 1_555 1_555
C4A C5A 1_555 1_555
C9A C10A 1_555 1_555
C12A C15A 1_555 1_555
C13A C14A 1_555 1_555

#END
