
#######################################################################
#
#                 Cambridge Crystallographic Data Centre
#                                CCDC 
#
#######################################################################
#
# If this CIF has been generated from an entry in the Cambridge 
# Structural Database, then it will include bibliographic, chemical, 
# crystal, experimental, refinement or atomic coordinate data resulting 
# from the CCDC's data processing and validation procedures.
#
#######################################################################

data_POHSAH
_symmetry_cell_setting           monoclinic
_symmetry_space_group_name_H-M   'C 2/c'
_symmetry_Int_Tables_number      15
_space_group_name_Hall           '-C 2yn'
loop_
_symmetry_equiv_pos_site_id
_symmetry_equiv_pos_as_xyz
1 x,y,z
2 1/2+x,1/2+y,z
3 -x,y,1/2-z
4 1/2-x,1/2+y,1/2-z
5 -x,-y,-z
6 1/2-x,1/2-y,-z
7 x,-y,1/2+z
8 1/2+x,1/2-y,1/2+z
_cell_length_a                   23.078(6)
_cell_length_b                   11.643(3)
_cell_length_c                   9.709(3)
_cell_angle_alpha                90
_cell_angle_beta                 96.249(5)
_cell_angle_gamma                90
_cell_volume                     2593.28
loop_
_atom_site_label
_atom_site_type_symbol
_atom_site_fract_x
_atom_site_fract_y
_atom_site_fract_z
Mn1 Mn 0.5000 0.97178(6) 0.2500
Cl1 Cl 0.74451(5) 0.78804(11) 0.31163(12)
Cl2 Cl 0.66308(6) 0.44762(11) -0.02402(15)
O1 O 0.57750(11) 0.9729(2) 0.1429(3)
O2 O 0.55921(12) 1.0443(2) -0.0674(3)
O3 O 0.69036(11) 0.9359(3) 0.1026(3)
N1 N 0.5000 1.1705(3) 0.2500
N2 N 0.5000 1.7758(3) 0.2500
C1 C 0.59186(17) 1.0082(3) 0.0324(4)
C2 C 0.65652(17) 1.0167(4) 0.0194(5)
H1 H 0.6629 1.0051 -0.0767
H2 H 0.6698 1.0935 0.0456
C3 C 0.68251(16) 0.8244(4) 0.0668(4)
C4 C 0.70693(17) 0.7420(4) 0.1588(4)
C5 C 0.70212(17) 0.6278(4) 0.1315(4)
H3 H 0.7195 0.5743 0.1941
C6 C 0.67126(18) 0.5925(4) 0.0100(5)
C7 C 0.64671(19) 0.6706(4) -0.0825(5)
H4 H 0.6265 0.6460 -0.1654
C8 C 0.65178(19) 0.7856(4) -0.0538(5)
H5 H 0.6342 0.8384 -0.1169
C9 C 0.51457(19) 1.2305(3) 0.1434(4)
H6 H 0.5238 1.1906 0.0658
C10 C 0.51686(17) 1.3481(3) 0.1405(4)
H7 H 0.5297 1.3858 0.0651
C11 C 0.5000 1.4098(4) 0.2500
C12 C 0.5000 1.5372(4) 0.2500
C13 C 0.54668(17) 1.5979(3) 0.2147(4)
H8 H 0.5792 1.5597 0.1887
C14 C 0.54548(17) 1.7160(3) 0.2177(4)
H9 H 0.5782 1.7558 0.1959
Mn1F Mn 0.5000 1.02822(6) -0.2500
Mn1_2 Mn 0.5000 1.97178(6) 0.2500
Mn1F_2 Mn 0.5000 1.02822(6) 0.7500
Cl1B Cl 0.25549(5) 0.78804(11) 0.18837(12)
Cl2B Cl 0.33692(6) 0.44762(11) 0.52402(15)
O1B O 0.42250(11) 0.9729(2) 0.3571(3)
O2B O 0.44079(12) 1.0443(2) 0.5674(3)
O2F O 0.55921(12) 0.9557(2) 0.4326(3)
O2D O 0.44079(12) 0.9557(2) 0.0674(3)
O3B O 0.30964(11) 0.9359(3) 0.3974(3)
N2_2 N 0.5000 0.7758(3) 0.2500
C1B C 0.40814(17) 1.0082(3) 0.4676(4)
C2B C 0.34348(17) 1.0167(4) 0.4806(5)
H1B H 0.3371 1.0051 0.5767
H2B H 0.3302 1.0935 0.4544
C3B C 0.31749(16) 0.8244(4) 0.4332(4)
C4B C 0.29307(17) 0.7420(4) 0.3412(4)
C5B C 0.29788(17) 0.6278(4) 0.3685(4)
H3B H 0.2805 0.5743 0.3059
C6B C 0.32874(18) 0.5925(4) 0.4900(5)
C7B C 0.35329(19) 0.6706(4) 0.5825(5)
H4B H 0.3735 0.6460 0.6654
C8B C 0.34822(19) 0.7856(4) 0.5538(5)
H5B H 0.3658 0.8384 0.6169
C9B C 0.48543(19) 1.2305(3) 0.3566(4)
H6B H 0.4762 1.1906 0.4342
C10B C 0.48314(17) 1.3481(3) 0.3595(4)
H7B H 0.4703 1.3858 0.4349
C13B C 0.45332(17) 1.5979(3) 0.2853(4)
H8B H 0.4208 1.5597 0.3113
C14B C 0.45452(17) 1.7160(3) 0.2823(4)
H9B H 0.4218 1.7558 0.3041
loop_
_geom_bond_atom_site_label_1
_geom_bond_atom_site_label_2
_geom_bond_site_symmetry_1
_geom_bond_site_symmetry_2
Mn1 O1 1_555 1_555
Cl1 C4 1_555 1_555
Cl2 C6 1_555 1_555
O1 C1 1_555 1_555
O2 C1 1_555 1_555
O3 C2 1_555 1_555
N1 Mn1 1_555 1_555
N2 C14 1_555 1_555
C1 C2 1_555 1_555
C2 H1 1_555 1_555
H2 C2 1_555 1_555
C3 O3 1_555 1_555
C4 C3 1_555 1_555
C5 C4 1_555 1_555
H3 C5 1_555 1_555
C6 C5 1_555 1_555
C7 C6 1_555 1_555
H4 C7 1_555 1_555
C8 C3 1_555 1_555
H5 C8 1_555 1_555
C9 N1 1_555 1_555
H6 C9 1_555 1_555
C10 C9 1_555 1_555
H7 C10 1_555 1_555
C11 C10 1_555 1_555
C12 C11 1_555 1_555
C13 C12 1_555 1_555
H8 C13 1_555 1_555
C14 C13 1_555 1_555
H9 C14 1_555 1_555
Mn1F O2 1_555 1_555
Mn1_2 N2 1_555 1_555
Mn1F_2 O2B 1_555 1_555
Cl1B C4B 1_555 1_555
Cl2B C6B 1_555 1_555
O1B Mn1 1_555 1_555
O2B C1B 1_555 1_555
O2F Mn1 1_555 1_555
O2D Mn1 1_555 1_555
O3B C2B 1_555 1_555
N2_2 Mn1 1_555 1_555
C1B O1B 1_555 1_555
C2B C1B 1_555 1_555
H1B C2B 1_555 1_555
H2B C2B 1_555 1_555
C3B O3B 1_555 1_555
C4B C3B 1_555 1_555
C5B C4B 1_555 1_555
H3B C5B 1_555 1_555
C6B C5B 1_555 1_555
C7B C6B 1_555 1_555
H4B C7B 1_555 1_555
C8B C3B 1_555 1_555
H5B C8B 1_555 1_555
C9B N1 1_555 1_555
H6B C9B 1_555 1_555
C10B C11 1_555 1_555
H7B C10B 1_555 1_555
C13B C12 1_555 1_555
H8B C13B 1_555 1_555
C14B N2 1_555 1_555
H9B C14B 1_555 1_555
C7 C8 1_555 1_555
C7B C8B 1_555 1_555
C9B C10B 1_555 1_555
C13B C14B 1_555 1_555

#END
