
#######################################################################
#
#                 Cambridge Crystallographic Data Centre
#                                CCDC 
#
#######################################################################
#
# If this CIF has been generated from an entry in the Cambridge 
# Structural Database, then it will include bibliographic, chemical, 
# crystal, experimental, refinement or atomic coordinate data resulting 
# from the CCDC's data processing and validation procedures.
#
#######################################################################

data_POHSEL
_symmetry_cell_setting           triclinic
_symmetry_space_group_name_H-M   'P -1'
_symmetry_Int_Tables_number      2
_space_group_name_Hall           '-P 1'
loop_
_symmetry_equiv_pos_site_id
_symmetry_equiv_pos_as_xyz
1 x,y,z
2 -x,-y,-z
_cell_length_a                   12.7511(13)
_cell_length_b                   13.5459(14)
_cell_length_c                   18.8231(19)
_cell_angle_alpha                110.8260(10)
_cell_angle_beta                 94.358(2)
_cell_angle_gamma                108.0380(10)
_cell_volume                     2825.41
loop_
_atom_site_label
_atom_site_type_symbol
_atom_site_fract_x
_atom_site_fract_y
_atom_site_fract_z
C1 C 0.0732(3) 1.1388(3) 0.4403(2)
C2 C 0.1623(3) 1.2483(3) 0.45139(19)
C3 C 0.2461(3) 1.3078(3) 0.5189(2)
H1 H 0.2475 1.2783 0.5565
C4 C 0.3266(3) 1.4099(3) 0.5304(2)
C5 C 0.3249(3) 1.4496(3) 0.4723(2)
H2 H 0.3809 1.5174 0.4792
C6 C 0.2438(3) 1.3931(3) 0.4044(2)
C7 C 0.1618(3) 1.2908(3) 0.3944(2)
H3 H 0.1063 1.2505 0.3490
C8 C 0.4136(3) 1.4774(3) 0.6067(2)
H4 H 0.4626 1.5467 0.6058
H5 H 0.4572 1.4336 0.6132
H6 H 0.3756 1.4944 0.6491
C9 C 0.2438(3) 1.4362(3) 0.3403(2)
H7 H 0.2136 1.4956 0.3539
H8 H 0.1982 1.3753 0.2926
H9 H 0.3196 1.4650 0.3337
C10 C -0.2493(3) 0.8116(3) 0.2718(2)
C11 C -0.3490(3) 0.7299(3) 0.20868(19)
C12 C -0.4242(3) 0.6388(3) 0.2180(2)
H10 H -0.4102 0.6267 0.2629
C13 C -0.5200(3) 0.5655(3) 0.1611(2)
C14 C -0.5385(3) 0.5846(3) 0.0955(2)
H11 H -0.6037 0.5365 0.0579
C15 C -0.4645(3) 0.6723(3) 0.0830(2)
C16 C -0.3713(3) 0.7466(3) 0.1415(2)
H12 H -0.3226 0.8091 0.1356
C17 C -0.6032(3) 0.4705(3) 0.1736(2)
H13 H -0.5636 0.4335 0.1943
H14 H -0.6531 0.4170 0.1250
H15 H -0.6462 0.5002 0.2097
C18 C -0.4847(3) 0.6956(3) 0.0115(2)
H16 H -0.5360 0.6276 -0.0299
H17 H -0.4145 0.7202 -0.0040
H18 H -0.5166 0.7537 0.0228
C19 C -0.0819(3) 1.1960(3) 0.2191(2)
C20 C -0.1003(3) 1.2864(3) 0.2846(2)
C21 C -0.1261(3) 1.2708(3) 0.3504(2)
H19 H -0.1363 1.2011 0.3526
C22 C -0.1373(3) 1.3555(3) 0.4129(2)
C23 C -0.1211(3) 1.4595(3) 0.4088(2)
H20 H -0.1274 1.5177 0.4511
C24 C -0.0958(3) 1.4795(3) 0.3431(2)
C25 C -0.0854(3) 1.3917(3) 0.2814(2)
H21 H -0.0684 1.4027 0.2370
C26 C -0.1656(3) 1.3358(3) 0.4850(2)
H22 H -0.2460 1.3073 0.4796
H23 H -0.1331 1.4060 0.5299
H24 H -0.1355 1.2818 0.4909
C27 C -0.0794(3) 1.5923(3) 0.3401(2)
H25 H -0.0189 1.6112 0.3142
H26 H -0.0613 1.6491 0.3920
H27 H -0.1475 1.5888 0.3121
C28 C 0.1891(3) 1.1121(3) 0.19525(19)
C29 C 0.3142(3) 1.1512(3) 0.2251(2)
C30 C 0.3497(3) 1.1484(3) 0.2950(2)
H28 H 0.2974 1.1254 0.3231
C31 C 0.4649(3) 1.1804(3) 0.3235(2)
C32 C 0.5397(3) 1.2167(3) 0.2809(2)
H29 H 0.6164 1.2366 0.2988
C33 C 0.5052(3) 1.2247(3) 0.2128(2)
C34 C 0.3897(3) 1.1893(3) 0.1849(2)
H30 H 0.3640 1.1919 0.1382
C35 C 0.5036(3) 1.1744(3) 0.4002(2)
H31 H 0.5422 1.2497 0.4391
H32 H 0.5537 1.1331 0.3932
H33 H 0.4391 1.1367 0.4166
C36 C 0.5924(3) 1.2662(3) 0.1700(2)
H34 H 0.6105 1.3460 0.1843
H35 H 0.5629 1.2266 0.1150
H36 H 0.6592 1.2525 0.1833
C37 C -0.0634(3) 0.8428(3) 0.0496(2)
C38 C -0.0927(3) 0.7181(3) 0.02566(19)
C39 C -0.1264(3) 0.6702(3) 0.0774(2)
H37 H -0.1285 0.7158 0.1273
C40 C -0.1568(3) 0.5552(3) 0.0557(2)
C41 C -0.1516(3) 0.4896(3) -0.0179(2)
H38 H -0.1705 0.4121 -0.0324
C42 C -0.1188(3) 0.5364(3) -0.0713(2)
C43 C -0.0895(3) 0.6517(3) -0.0487(2)
H39 H -0.0676 0.6847 -0.0835
C44 C -0.1956(3) 0.5014(3) 0.1118(2)
H40 H -0.2752 0.4846 0.1085
H41 H -0.1559 0.5529 0.1639
H42 H -0.1803 0.4327 0.0988
C45 C -0.1172(3) 0.4624(3) -0.1533(2)
H43 H -0.1895 0.4370 -0.1864
H44 H -0.1008 0.3980 -0.1529
H45 H -0.0602 0.5052 -0.1724
C46 C 0.0844(3) 0.8619(3) 0.31437(19)
C47 C 0.1902(3) 0.8428(3) 0.2992(2)
C48 C 0.2315(3) 0.8582(3) 0.2370(2)
H46 H 0.1905 0.8760 0.2035
C49 C 0.3349(3) 0.8474(3) 0.2235(2)
C50 C 0.3922(3) 0.8180(4) 0.2723(2)
H47 H 0.4609 0.8111 0.2638
C51 C 0.3507(3) 0.7979(3) 0.3345(2)
C52 C 0.2502(3) 0.8116(3) 0.3462(2)
H48 H 0.2213 0.7993 0.3875
C53 C 0.3823(3) 0.8705(3) 0.1569(2)
H49 H 0.4363 0.9465 0.1764
H50 H 0.3221 0.8617 0.1186
H51 H 0.4185 0.8180 0.1338
C54 C 0.4142(3) 0.7620(3) 0.3863(2)
H52 H 0.4610 0.7258 0.3582
H53 H 0.3612 0.7099 0.4019
H54 H 0.4604 0.8274 0.4315
C55 C -0.2973(3) 0.9889(3) 0.4552(2)
H55 H -0.3264 1.0036 0.4130
H56 H -0.3182 1.0293 0.5017
H57 H -0.3281 0.9091 0.4430
C56 C -0.2757(3) 1.0450(3) 0.0221(2)
H58 H -0.3125 1.0365 0.0634
H59 H -0.3299 1.0064 -0.0262
H60 H -0.2425 1.1240 0.0323
Mn1 Mn -0.08124(4) 0.92863(4) 0.40372(3)
Mn2 Mn -0.03646(4) 0.98707(4) 0.24392(3)
O1 O 0.0647(2) 1.10687(19) 0.49481(13)
O2 O 0.0073(2) 1.0781(2) 0.37505(14)
O3 O -0.2247(2) 0.7900(2) 0.32897(14)
O4 O -0.1916(2) 0.9018(2) 0.26619(14)
O5 O -0.1022(2) 1.1010(2) 0.22056(14)
O6 O -0.0469(2) 1.2173(2) 0.16383(15)
O7 O 0.1254(2) 1.0816(2) 0.23682(14)
O8 O 0.1539(2) 1.1083(2) 0.13002(14)
O9 O -0.07357(19) 0.90275(19) 0.11522(14)
Mn3 Mn -0.02354(5) 1.06771(4) 0.09135(3)
O10 O -0.0280(2) 0.88844(19) 0.00424(14)
O11 O 0.02135(19) 0.8647(2) 0.26115(14)
O12 O 0.06131(19) 0.8764(2) 0.38090(14)
O13 O -0.1853(2) 1.0231(2) 0.46605(16)
H61 H -0.153(3) 1.065(3) 0.517(2)
O14 O -0.1945(2) 1.0002(2) 0.01778(16)
H62 H -0.184(4) 0.984(4) -0.028(3)
Mn1A Mn 0.08124(4) 1.07137(4) 0.59628(3)
O1A O -0.0647(2) 0.89313(19) 0.50519(13)
Mn3A Mn 0.02354(5) 0.93229(4) -0.09135(3)
O10A O 0.0280(2) 1.11156(19) -0.00424(14)
O15 O 0.6337(5) 0.9912(5) 0.2918(3)
H63 H 0.632(7) 0.924(8) 0.275(5)
H64 H 0.688(7) 1.032(7) 0.279(5)
loop_
_geom_bond_atom_site_label_1
_geom_bond_atom_site_label_2
_geom_bond_site_symmetry_1
_geom_bond_site_symmetry_2
C1 C2 1_555 1_555
C2 C3 1_555 1_555
C3 H1 1_555 1_555
C4 C3 1_555 1_555
C5 C4 1_555 1_555
H2 C5 1_555 1_555
C6 C5 1_555 1_555
C7 C2 1_555 1_555
H3 C7 1_555 1_555
C8 C4 1_555 1_555
H4 C8 1_555 1_555
H5 C8 1_555 1_555
H6 C8 1_555 1_555
C9 C6 1_555 1_555
H7 C9 1_555 1_555
H8 C9 1_555 1_555
H9 C9 1_555 1_555
C10 C11 1_555 1_555
C11 C12 1_555 1_555
C12 H10 1_555 1_555
C13 C12 1_555 1_555
C14 C13 1_555 1_555
H11 C14 1_555 1_555
C15 C14 1_555 1_555
C16 C11 1_555 1_555
H12 C16 1_555 1_555
C17 C13 1_555 1_555
H13 C17 1_555 1_555
H14 C17 1_555 1_555
H15 C17 1_555 1_555
C18 C15 1_555 1_555
H16 C18 1_555 1_555
H17 C18 1_555 1_555
H18 C18 1_555 1_555
C19 C20 1_555 1_555
C20 C21 1_555 1_555
C21 H19 1_555 1_555
C22 C21 1_555 1_555
C23 C22 1_555 1_555
H20 C23 1_555 1_555
C24 C23 1_555 1_555
C25 C20 1_555 1_555
H21 C25 1_555 1_555
C26 C22 1_555 1_555
H22 C26 1_555 1_555
H23 C26 1_555 1_555
H24 C26 1_555 1_555
C27 C24 1_555 1_555
H25 C27 1_555 1_555
H26 C27 1_555 1_555
H27 C27 1_555 1_555
C28 C29 1_555 1_555
C29 C30 1_555 1_555
C30 H28 1_555 1_555
C31 C30 1_555 1_555
C32 C31 1_555 1_555
H29 C32 1_555 1_555
C33 C32 1_555 1_555
C34 C29 1_555 1_555
H30 C34 1_555 1_555
C35 C31 1_555 1_555
H31 C35 1_555 1_555
H32 C35 1_555 1_555
H33 C35 1_555 1_555
C36 C33 1_555 1_555
H34 C36 1_555 1_555
H35 C36 1_555 1_555
H36 C36 1_555 1_555
C37 C38 1_555 1_555
C38 C39 1_555 1_555
C39 H37 1_555 1_555
C40 C39 1_555 1_555
C41 C40 1_555 1_555
H38 C41 1_555 1_555
C42 C41 1_555 1_555
C43 C38 1_555 1_555
H39 C43 1_555 1_555
C44 C40 1_555 1_555
H40 C44 1_555 1_555
H41 C44 1_555 1_555
H42 C44 1_555 1_555
C45 C42 1_555 1_555
H43 C45 1_555 1_555
H44 C45 1_555 1_555
H45 C45 1_555 1_555
C46 C47 1_555 1_555
C47 C48 1_555 1_555
C48 H46 1_555 1_555
C49 C48 1_555 1_555
C50 C49 1_555 1_555
H47 C50 1_555 1_555
C51 C50 1_555 1_555
C52 C47 1_555 1_555
H48 C52 1_555 1_555
C53 C49 1_555 1_555
H49 C53 1_555 1_555
H50 C53 1_555 1_555
H51 C53 1_555 1_555
C54 C51 1_555 1_555
H52 C54 1_555 1_555
H53 C54 1_555 1_555
H54 C54 1_555 1_555
C55 H55 1_555 1_555
H56 C55 1_555 1_555
H57 C55 1_555 1_555
C56 H58 1_555 1_555
H59 C56 1_555 1_555
H60 C56 1_555 1_555
Mn1 O1 1_555 1_555
Mn2 O2 1_555 1_555
O1 C1 1_555 1_555
O2 C1 1_555 1_555
O3 C10 1_555 1_555
O4 C10 1_555 1_555
O5 C19 1_555 1_555
O6 C19 1_555 1_555
O7 C28 1_555 1_555
O8 C28 1_555 1_555
O9 C37 1_555 1_555
Mn3 O6 1_555 1_555
O10 C37 1_555 1_555
O11 C46 1_555 1_555
O12 C46 1_555 1_555
O13 C55 1_555 1_555
H61 O13 1_555 1_555
O14 C56 1_555 1_555
H62 O14 1_555 1_555
O15 H63 1_555 1_555
H64 O15 1_555 1_555
Mn1A O1 1_555 1_555
O1A Mn1 1_555 1_555
Mn3A O10 1_555 1_555
O10A Mn3 1_555 1_555
C6 C7 1_555 1_555
C15 C16 1_555 1_555
C24 C25 1_555 1_555
C33 C34 1_555 1_555
C42 C43 1_555 1_555
C51 C52 1_555 1_555
Mn1 O2 1_555 1_555
Mn1 O3 1_555 1_555
Mn1 O12 1_555 1_555
Mn1 O13 1_555 1_555
Mn2 O4 1_555 1_555
Mn2 O5 1_555 1_555
Mn2 O7 1_555 1_555
Mn2 O9 1_555 1_555
Mn2 O11 1_555 1_555
O8 Mn3 1_555 1_555
O9 Mn3 1_555 1_555
Mn3 O10 1_555 1_555
Mn3 O14 1_555 1_555
Mn1A O1A 1_555 1_555
Mn3A O10A 1_555 1_555

#END
