
#######################################################################
#
#                 Cambridge Crystallographic Data Centre
#                                CCDC 
#
#######################################################################
#
# If this CIF has been generated from an entry in the Cambridge 
# Structural Database, then it will include bibliographic, chemical, 
# crystal, experimental, refinement or atomic coordinate data resulting 
# from the CCDC's data processing and validation procedures.
#
#######################################################################

data_POHVIT
_symmetry_cell_setting           orthorhombic
_symmetry_space_group_name_H-M   'P b c a'
_symmetry_Int_Tables_number      61
_space_group_name_Hall           '-P 2ac 2ab'
loop_
_symmetry_equiv_pos_site_id
_symmetry_equiv_pos_as_xyz
1 x,y,z
2 1/2-x,-y,1/2+z
3 -x,1/2+y,1/2-z
4 1/2+x,1/2-y,-z
5 -x,-y,-z
6 1/2+x,y,1/2-z
7 x,1/2-y,1/2+z
8 1/2-x,1/2+y,z
_cell_length_a                   16.4476(14)
_cell_length_b                   21.7383(19)
_cell_length_c                   25.410(2)
_cell_angle_alpha                90
_cell_angle_beta                 90
_cell_angle_gamma                90
_cell_volume                     9085.16
loop_
_atom_site_label
_atom_site_type_symbol
_atom_site_fract_x
_atom_site_fract_y
_atom_site_fract_z
Dy1 Dy 0.716619(19) 0.138454(13) 0.336765(11)
Mo1 Mo 0.75285(4) -0.11041(2) 0.40826(2)
O1 O 0.8239(3) 0.13022(19) 0.39299(18)
O2 O 0.6445(3) 0.1360(2) 0.41476(18)
N1 N 0.7144(3) 0.0287(2) 0.3612(2)
N2 N 0.7403(5) -0.0151(3) 0.5094(3)
N3 N 0.6471(5) -0.1837(3) 0.4986(3)
N4 N 0.8858(4) -0.1766(3) 0.4881(3)
N5 N 0.7657(3) -0.2550(3) 0.36711(19)
N6 N 0.7762(4) -0.1054(3) 0.2791(2)
N7 N 0.9319(4) -0.0428(3) 0.3973(3)
N8 N 0.5628(4) -0.1225(3) 0.3680(3)
N9 N 0.6427(3) 0.0878(2) 0.2614(2)
N10 N 0.5782(3) 0.1807(2) 0.3168(2)
N11 N 0.8283(3) 0.1018(2) 0.2754(2)
N12 N 0.7383(3) 0.2031(2) 0.2548(2)
N13 N 0.8917(4) 0.1192(3) 0.4693(2)
N14 N 0.5828(4) 0.1165(3) 0.4916(3)
C1 C 0.7250(4) -0.0195(3) 0.3785(3)
C2 C 0.7440(5) -0.0489(3) 0.4750(3)
C3 C 0.6839(5) -0.1583(3) 0.4671(3)
C4 C 0.8390(5) -0.1535(3) 0.4609(3)
C5 C 0.7605(4) -0.2049(3) 0.3819(2)
C6 C 0.7698(4) -0.1093(3) 0.3239(3)
C7 C 0.8691(5) -0.0672(3) 0.3995(3)
C8 C 0.6287(5) -0.1179(3) 0.3819(3)
C9 C 0.6737(4) 0.0415(3) 0.2338(3)
H1 H 0.7072 0.0139 0.2514
C10 C 0.6597(4) 0.0312(3) 0.1802(3)
C11 C 0.7008(5) -0.0232(4) 0.1541(3)
H2 H 0.6607 -0.0477 0.1363
H3 H 0.7275 -0.0477 0.1803
H4 H 0.7401 -0.0086 0.1291
C12 C 0.6098(4) 0.0719(3) 0.1533(3)
C13 C 0.5967(5) 0.0654(3) 0.0946(3)
H5 H 0.6421 0.0443 0.0793
H6 H 0.5917 0.1055 0.0791
H7 H 0.5479 0.0424 0.0883
C14 C 0.5709(4) 0.1196(3) 0.1816(3)
C15 C 0.5144(5) 0.1625(3) 0.1597(3)
H8 H 0.5027 0.1596 0.1240
C16 C 0.4775(4) 0.2065(3) 0.1876(3)
H9 H 0.4403 0.2323 0.1711
C17 C 0.4947(4) 0.2145(3) 0.2429(3)
C18 C 0.4603(4) 0.2613(3) 0.2742(3)
C19 C 0.3998(4) 0.3065(3) 0.2516(3)
H10 H 0.3667 0.3227 0.2794
H11 H 0.3660 0.2859 0.2263
H12 H 0.4285 0.3395 0.2347
C20 C 0.4853(4) 0.2661(3) 0.3265(3)
C21 C 0.4536(5) 0.3140(3) 0.3644(3)
H13 H 0.4645 0.3543 0.3506
H14 H 0.4800 0.3093 0.3978
H15 H 0.3960 0.3088 0.3687
C22 C 0.5441(4) 0.2244(3) 0.3450(3)
H16 H 0.5603 0.2281 0.3800
C23 C 0.5887(4) 0.1257(3) 0.2354(3)
C24 C 0.5524(4) 0.1742(3) 0.2663(3)
C25 C 0.8754(4) 0.0538(3) 0.2856(3)
H17 H 0.8759 0.0389 0.3199
C26 C 0.9243(4) 0.0237(3) 0.2485(3)
C27 C 0.9728(5) -0.0311(3) 0.2664(3)
H18 H 0.9421 -0.0680 0.2603
H19 H 0.9844 -0.0274 0.3033
H20 H 1.0229 -0.0330 0.2470
C28 C 0.9242(5) 0.0452(3) 0.1981(3)
C29 C 0.9755(5) 0.0143(4) 0.1566(3)
H21 H 1.0248 0.0372 0.1516
H22 H 0.9458 0.0129 0.1240
H23 H 0.9884 -0.0268 0.1676
C30 C 0.8746(4) 0.0956(3) 0.1851(3)
C31 C 0.8660(5) 0.1203(3) 0.1326(3)
H24 H 0.8949 0.1021 0.1052
C32 C 0.8181(5) 0.1682(3) 0.1218(3)
H25 H 0.8146 0.1823 0.0873
C33 C 0.7719(4) 0.1985(3) 0.1621(3)
C34 C 0.7212(4) 0.2489(4) 0.1514(3)
C35 C 0.7093(5) 0.2723(4) 0.0954(3)
H26 H 0.6794 0.3102 0.0961
H27 H 0.6797 0.2423 0.0753
H28 H 0.7614 0.2791 0.0794
C36 C 0.6817(4) 0.2773(3) 0.1931(3)
C37 C 0.6243(4) 0.3301(3) 0.1863(3)
H29 H 0.6542 0.3662 0.1763
H30 H 0.5964 0.3377 0.2188
H31 H 0.5854 0.3203 0.1594
C38 C 0.6938(4) 0.2524(3) 0.2430(3)
H32 H 0.6683 0.2722 0.2709
C39 C 0.8285(4) 0.1240(3) 0.2254(3)
C40 C 0.7788(4) 0.1770(3) 0.2136(3)
C41 C 0.8542(4) 0.0987(3) 0.4288(3)
H33 H 0.8492 0.0563 0.4259
C42 C 0.9260(5) 0.0790(4) 0.5091(3)
H34 H 0.9234 0.0371 0.4971
H35 H 0.8957 0.0831 0.5412
H36 H 0.9817 0.0901 0.5153
C43 C 0.9058(5) 0.1842(4) 0.4769(3)
H37 H 0.9629 0.1926 0.4742
H38 H 0.8867 0.1962 0.5111
H39 H 0.8771 0.2070 0.4504
C44 C 0.6283(5) 0.1021(4) 0.4524(3)
H40 H 0.6509 0.0629 0.4523
C45 C 0.5656(6) 0.0756(4) 0.5346(4)
H41 H 0.5130 0.0574 0.5297
H42 H 0.5662 0.0983 0.5670
H43 H 0.6062 0.0439 0.5359
C46 C 0.5496(6) 0.1770(4) 0.4959(4)
H44 H 0.5875 0.2063 0.4819
H45 H 0.5393 0.1862 0.5323
H46 H 0.4996 0.1791 0.4765
Dy1G Dy 0.783381(19) -0.361546(13) 0.336765(11)
N5G N 0.7343(3) 0.2450(3) 0.36711(19)
loop_
_geom_bond_atom_site_label_1
_geom_bond_atom_site_label_2
_geom_bond_site_symmetry_1
_geom_bond_site_symmetry_2
Dy1 O1 1_555 1_555
Mo1 C1 1_555 1_555
O1 C41 1_555 1_555
O2 Dy1 1_555 1_555
N1 Dy1 1_555 1_555
N2 C2 1_555 1_555
N3 C3 1_555 1_555
N4 C4 1_555 1_555
N5 C5 1_555 1_555
N6 C6 1_555 1_555
N7 C7 1_555 1_555
N8 C8 1_555 1_555
N9 Dy1 1_555 1_555
N10 Dy1 1_555 1_555
N11 Dy1 1_555 1_555
N12 Dy1 1_555 1_555
N13 C41 1_555 1_555
N14 C44 1_555 1_555
C1 N1 1_555 1_555
C2 Mo1 1_555 1_555
C3 Mo1 1_555 1_555
C4 Mo1 1_555 1_555
C5 Mo1 1_555 1_555
C6 Mo1 1_555 1_555
C7 Mo1 1_555 1_555
C8 Mo1 1_555 1_555
C9 N9 1_555 1_555
H1 C9 1_555 1_555
C10 C9 1_555 1_555
C11 C10 1_555 1_555
H2 C11 1_555 1_555
H3 C11 1_555 1_555
H4 C11 1_555 1_555
C12 C10 1_555 1_555
C13 C12 1_555 1_555
H5 C13 1_555 1_555
H6 C13 1_555 1_555
H7 C13 1_555 1_555
C14 C12 1_555 1_555
C15 C14 1_555 1_555
H8 C15 1_555 1_555
C16 C15 1_555 1_555
H9 C16 1_555 1_555
C17 C16 1_555 1_555
C18 C17 1_555 1_555
C19 C18 1_555 1_555
H10 C19 1_555 1_555
H11 C19 1_555 1_555
H12 C19 1_555 1_555
C20 C18 1_555 1_555
C21 C20 1_555 1_555
H13 C21 1_555 1_555
H14 C21 1_555 1_555
H15 C21 1_555 1_555
C22 N10 1_555 1_555
H16 C22 1_555 1_555
C23 N9 1_555 1_555
C24 N10 1_555 1_555
C25 N11 1_555 1_555
H17 C25 1_555 1_555
C26 C25 1_555 1_555
C27 C26 1_555 1_555
H18 C27 1_555 1_555
H19 C27 1_555 1_555
H20 C27 1_555 1_555
C28 C26 1_555 1_555
C29 C28 1_555 1_555
H21 C29 1_555 1_555
H22 C29 1_555 1_555
H23 C29 1_555 1_555
C30 C28 1_555 1_555
C31 C30 1_555 1_555
H24 C31 1_555 1_555
C32 C31 1_555 1_555
H25 C32 1_555 1_555
C33 C32 1_555 1_555
C34 C33 1_555 1_555
C35 C34 1_555 1_555
H26 C35 1_555 1_555
H27 C35 1_555 1_555
H28 C35 1_555 1_555
C36 C34 1_555 1_555
C37 C36 1_555 1_555
H29 C37 1_555 1_555
H30 C37 1_555 1_555
H31 C37 1_555 1_555
C38 N12 1_555 1_555
H32 C38 1_555 1_555
C39 N11 1_555 1_555
C40 N12 1_555 1_555
C41 H33 1_555 1_555
C42 N13 1_555 1_555
H34 C42 1_555 1_555
H35 C42 1_555 1_555
H36 C42 1_555 1_555
C43 N13 1_555 1_555
H37 C43 1_555 1_555
H38 C43 1_555 1_555
H39 C43 1_555 1_555
C44 O2 1_555 1_555
H40 C44 1_555 1_555
C45 N14 1_555 1_555
H41 C45 1_555 1_555
H42 C45 1_555 1_555
H43 C45 1_555 1_555
C46 N14 1_555 1_555
H44 C46 1_555 1_555
H45 C46 1_555 1_555
H46 C46 1_555 1_555
Dy1G N5 1_555 1_555
N5G Dy1 1_555 1_555
C14 C23 1_555 1_555
C17 C24 1_555 1_555
C20 C22 1_555 1_555
C23 C24 1_555 1_555
C30 C39 1_555 1_555
C33 C40 1_555 1_555
C36 C38 1_555 1_555
C39 C40 1_555 1_555

#END
