
#######################################################################
#
#                 Cambridge Crystallographic Data Centre
#                                CCDC 
#
#######################################################################
#
# If this CIF has been generated from an entry in the Cambridge 
# Structural Database, then it will include bibliographic, chemical, 
# crystal, experimental, refinement or atomic coordinate data resulting 
# from the CCDC's data processing and validation procedures.
#
#######################################################################

data_POHZIX
_symmetry_cell_setting           monoclinic
_symmetry_space_group_name_H-M   'P 21/c'
_symmetry_Int_Tables_number      14
_space_group_name_Hall           '-P 2ybc'
loop_
_symmetry_equiv_pos_site_id
_symmetry_equiv_pos_as_xyz
1 x,y,z
2 -x,1/2+y,1/2-z
3 -x,-y,-z
4 x,1/2-y,1/2+z
_cell_length_a                   11.6111(11)
_cell_length_b                   12.2464(12)
_cell_length_c                   16.6743(18)
_cell_angle_alpha                90
_cell_angle_beta                 95.2710(10)
_cell_angle_gamma                90
_cell_volume                     2360.96
loop_
_atom_site_label
_atom_site_type_symbol
_atom_site_fract_x
_atom_site_fract_y
_atom_site_fract_z
Sn1 Sn 0.48696(3) 0.94285(3) 0.246348(19)
Se1 Se 0.35824(4) 0.69105(4) 0.20813(3)
O1 O 0.4207(3) 0.8046(2) 0.17328(18)
O2 O 0.4480(3) 0.5913(2) 0.18443(18)
C1 C 0.0333(12) 0.6560(11) -0.1568(7)
H1 H 0.0735 0.7245 -0.1561
H2 H -0.0274 0.6558 -0.2000
H3 H 0.0864 0.5977 -0.1646
C2 C -0.0130(8) 0.6417(11) -0.0856(6)
H4 H -0.0493 0.5703 -0.0857
H5 H -0.0730 0.6959 -0.0813
C3 C 0.0761(6) 0.6505(8) -0.0105(5)
C4 C 0.0596(5) 0.7217(6) 0.0501(5)
H6 H -0.0071 0.7640 0.0469
C5 C 0.1400(5) 0.7327(5) 0.1166(4)
H7 H 0.1273 0.7812 0.1577
C6 C 0.2390(4) 0.6701(4) 0.1202(3)
C7 C 0.2544(5) 0.5947(5) 0.0617(4)
H8 H 0.3193 0.5499 0.0658
C8 C 0.1722(6) 0.5856(7) -0.0038(4)
H9 H 0.1826 0.5345 -0.0438
C9 C 0.6103(4) 0.9761(4) 0.1629(3)
C10 C 0.5848(5) 1.0397(5) 0.0961(3)
H10 H 0.5092 1.0632 0.0832
C11 C 0.6703(7) 1.0697(6) 0.0472(4)
H11 H 0.6521 1.1153 0.0033
C12 C 0.7794(6) 1.0331(6) 0.0632(4)
H12 H 0.8360 1.0514 0.0296
C13 C 0.8058(5) 0.9694(6) 0.1285(5)
H13 H 0.8808 0.9434 0.1397
C14 C 0.7226(5) 0.9429(5) 0.1784(4)
H14 H 0.7431 0.9011 0.2241
C15 C 0.5413(4) 0.8520(4) 0.3518(3)
C16 C 0.6311(5) 0.7792(4) 0.3555(3)
H15 H 0.6657 0.7628 0.3088
C17 C 0.6718(5) 0.7296(4) 0.4269(4)
H16 H 0.7341 0.6818 0.4281
C18 C 0.6207(5) 0.7506(5) 0.4959(3)
H17 H 0.6472 0.7165 0.5439
C19 C 0.5312(6) 0.8214(5) 0.4936(3)
H18 H 0.4962 0.8361 0.5404
C20 C 0.4909(5) 0.8724(5) 0.4219(3)
H19 H 0.4292 0.9209 0.4213
C21 C 0.3196(4) 1.0151(4) 0.2425(3)
C22 C 0.2889(5) 1.0805(4) 0.3046(4)
H20 H 0.3436 1.0970 0.3471
C23 C 0.1781(6) 1.1220(5) 0.3044(5)
H21 H 0.1577 1.1636 0.3476
C24 C 0.0984(6) 1.1014(6) 0.2403(6)
H22 H 0.0242 1.1303 0.2394
C25 C 0.1276(5) 1.0393(6) 0.1783(5)
H23 H 0.0736 1.0265 0.1346
C26 C 0.2376(5) 0.9941(5) 0.1792(3)
H24 H 0.2559 0.9495 0.1370
Sn1A Sn 0.51304(3) 0.44285(3) 0.253652(19)
O2A O 0.5520(3) 1.0913(2) 0.31557(18)
loop_
_geom_bond_atom_site_label_1
_geom_bond_atom_site_label_2
_geom_bond_site_symmetry_1
_geom_bond_site_symmetry_2
Sn1 O1 1_555 1_555
Se1 O1 1_555 1_555
O2 Se1 1_555 1_555
C1 H1 1_555 1_555
H2 C1 1_555 1_555
H3 C1 1_555 1_555
C2 C1 1_555 1_555
H4 C2 1_555 1_555
H5 C2 1_555 1_555
C3 C2 1_555 1_555
C4 C3 1_555 1_555
H6 C4 1_555 1_555
C5 C4 1_555 1_555
H7 C5 1_555 1_555
C6 Se1 1_555 1_555
C7 C6 1_555 1_555
H8 C7 1_555 1_555
C8 C3 1_555 1_555
H9 C8 1_555 1_555
C9 Sn1 1_555 1_555
C10 C9 1_555 1_555
H10 C10 1_555 1_555
C11 C10 1_555 1_555
H11 C11 1_555 1_555
C12 C11 1_555 1_555
H12 C12 1_555 1_555
C13 C12 1_555 1_555
H13 C13 1_555 1_555
C14 C9 1_555 1_555
H14 C14 1_555 1_555
C15 Sn1 1_555 1_555
C16 C15 1_555 1_555
H15 C16 1_555 1_555
C17 C16 1_555 1_555
H16 C17 1_555 1_555
C18 C17 1_555 1_555
H17 C18 1_555 1_555
C19 C18 1_555 1_555
H18 C19 1_555 1_555
C20 C15 1_555 1_555
H19 C20 1_555 1_555
C21 Sn1 1_555 1_555
C22 C21 1_555 1_555
H20 C22 1_555 1_555
C23 C22 1_555 1_555
H21 C23 1_555 1_555
C24 C23 1_555 1_555
H22 C24 1_555 1_555
C25 C24 1_555 1_555
H23 C25 1_555 1_555
C26 C21 1_555 1_555
H24 C26 1_555 1_555
Sn1A O2 1_555 1_555
O2A Sn1 1_555 1_555
C5 C6 1_555 1_555
C7 C8 1_555 1_555
C13 C14 1_555 1_555
C19 C20 1_555 1_555
C25 C26 1_555 1_555

#END
