
#######################################################################
#
#                 Cambridge Crystallographic Data Centre
#                                CCDC 
#
#######################################################################
#
# If this CIF has been generated from an entry in the Cambridge 
# Structural Database, then it will include bibliographic, chemical, 
# crystal, experimental, refinement or atomic coordinate data resulting 
# from the CCDC's data processing and validation procedures.
#
#######################################################################

data_POJLIK
_symmetry_cell_setting           trigonal
_symmetry_space_group_name_H-M   'P -3'
_symmetry_Int_Tables_number      147
_space_group_name_Hall           '-P 3'
loop_
_symmetry_equiv_pos_site_id
_symmetry_equiv_pos_as_xyz
1 x,y,z
2 -y,x-y,z
3 -x+y,-x,z
4 -x,-y,-z
5 y,-x+y,-z
6 x-y,x,-z
_cell_length_a                   13.8310(12)
_cell_length_b                   13.8310(12)
_cell_length_c                   11.996(2)
_cell_angle_alpha                90
_cell_angle_beta                 90
_cell_angle_gamma                120
_cell_volume                     1987.35
loop_
_atom_site_label
_atom_site_type_symbol
_atom_site_fract_x
_atom_site_fract_y
_atom_site_fract_z
Cu1 Cu 0.29974(6) -0.19356(6) 0.06386(6)
Cu2 Cu 0.42321(6) 0.01566(6) -0.07794(7)
O1 O 0.3046(4) -0.0856(3) -0.1760(4)
O2 O 0.2394(4) -0.2510(3) -0.0901(4)
O3 O 0.4437(3) -0.1043(3) -0.0128(3)
H1 H 0.4561 -0.1475 -0.0701
N1 N 0.1464(4) -0.2681(4) 0.1298(5)
N2 N 0.1310(5) -0.2217(5) 0.2090(5)
N3 N 0.1179(6) -0.1780(7) 0.2827(7)
N4 N 0.3333 -0.3333 0.1152(8)
N5 N 0.3333 -0.3333 0.2173(8)
N6 N 0.3333 -0.3333 0.3113(9)
C1 C 0.2460(5) -0.1906(5) -0.1729(5)
O5 O -0.0914(3) -0.4609(3) -0.1922(4)
O6 O 0.0127(4) -0.3006(4) -0.1038(4)
C2 C 0.0722(5) -0.3286(5) -0.2850(5)
C3 C 0.0273(6) -0.3761(6) -0.3880(6)
H2 H -0.0483 -0.4287 -0.3938
C4 C 0.0942(7) -0.3457(6) -0.4816(6)
H3 H 0.0631 -0.3793 -0.5495
C5 C 0.2055(7) -0.2673(7) -0.4769(6)
H4 H 0.2495 -0.2471 -0.5408
C6 C 0.2512(6) -0.2185(6) -0.3745(6)
H5 H 0.3267 -0.1654 -0.3701
C7 C 0.1861(5) -0.2477(5) -0.2788(5)
C8 C -0.0062(5) -0.3630(5) -0.1861(5)
Cu1E Cu 0.49330(8) 0.29974(6) -0.06386(6)
Cu1B Cu 0.50670(8) -0.29974(6) 0.06386(6)
Cu1A Cu 0.19356(6) -0.50670(8) 0.06386(6)
Cu1D Cu -0.19356(6) -0.49330(8) -0.06386(6)
Cu1A_2 Cu 0.19356(6) 0.49330(8) 0.06386(6)
Cu1C Cu 0.70026(6) 0.19356(6) -0.06386(6)
Cu1D_2 Cu 0.80644(6) 0.50670(8) -0.06386(6)
Cu1D_3 Cu 0.80644(6) -0.49330(8) -0.06386(6)
Cu1E_2 Cu 0.49330(8) -0.70026(6) -0.06386(6)
Cu2E Cu 0.40755(8) 0.42321(6) 0.07794(7)
Cu2C Cu 0.57679(6) -0.01566(6) 0.07794(7)
Cu2D Cu 0.01566(6) -0.40755(8) 0.07794(7)
Cu2A Cu -0.01566(6) 0.40755(8) -0.07794(7)
Cu2B Cu 0.59245(8) -0.42321(6) -0.07794(7)
Cu2B_2 Cu 0.59245(8) 0.57679(6) -0.07794(7)
Cu2E_2 Cu 0.40755(8) -0.57679(6) 0.07794(7)
Cu2D_2 Cu 1.01566(6) -0.40755(8) 0.07794(7)
Cu2A_2 Cu -0.01566(6) -0.59245(8) -0.07794(7)
Cu2B_3 Cu -0.40755(8) -0.42321(6) -0.07794(7)
O1E O 0.3902(5) 0.3046(4) 0.1760(4)
O1A O 0.0856(3) 0.3902(5) -0.1760(4)
O1B O 0.6098(5) -0.3046(4) -0.1760(4)
O1D O 0.9144(3) -0.3902(5) 0.1760(4)
O1A_2 O 0.0856(3) -0.6098(5) -0.1760(4)
O1C O 0.6954(4) 0.0856(3) 0.1760(4)
O1D_2 O -0.0856(3) -0.3902(5) 0.1760(4)
O2E O 0.4904(5) 0.2394(4) 0.0901(4)
O2A O 0.2510(3) 0.4904(5) -0.0901(4)
O2B O 0.5096(5) -0.2394(4) -0.0901(4)
O2D O 0.7490(3) -0.4904(5) 0.0901(4)
O2A_2 O 0.2510(3) -0.5096(5) -0.0901(4)
O2D_2 O -0.2510(3) -0.4904(5) 0.0901(4)
O3C O 0.5563(3) 0.1043(3) 0.0128(3)
O3E O 0.5480(4) 0.4437(3) 0.0128(3)
O3B O 0.4520(4) -0.4437(3) -0.0128(3)
O3A O 0.1043(3) -0.4520(4) -0.0128(3)
O3D O -0.1043(3) -0.5480(4) 0.0128(3)
O3B_2 O 0.4520(4) 0.5563(3) -0.0128(3)
O3A_2 O 0.1043(3) 0.5480(4) -0.0128(3)
O3D_2 O -0.1043(3) 0.4520(4) 0.0128(3)
O3E_2 O 0.5480(4) -0.5563(3) 0.0128(3)
H1C H 0.5439 0.1475 0.0701
H1E H 0.6036 0.4561 0.0701
H1B H 0.3964 -0.4561 -0.0701
H1A H 0.1475 -0.3964 -0.0701
H1D H -0.1475 -0.6036 0.0701
H1B_2 H 0.3964 0.5439 -0.0701
H1A_2 H 0.1475 0.6036 -0.0701
H1D_2 H -0.1475 0.3964 0.0701
H1E_2 H 0.6036 -0.5439 0.0701
N1E N 0.4145(6) 0.1464(4) -0.1298(5)
N1B N 0.5855(6) -0.1464(4) 0.1298(5)
N1A N 0.2681(4) -0.5855(6) 0.1298(5)
N1D N -0.2681(4) -0.4145(6) -0.1298(5)
N1A_2 N 0.2681(4) 0.4145(6) 0.1298(5)
N1C N -0.1464(4) 0.2681(4) -0.1298(5)
N1D_2 N 0.7319(4) -0.4145(6) -0.1298(5)
N2E N 0.3527(7) 0.1310(5) -0.2090(5)
N2B N 0.6473(7) -0.1310(5) 0.2090(5)
N2A N 0.2217(5) -0.6473(7) 0.2090(5)
N2D N -0.2217(5) -0.3527(7) -0.2090(5)
N2A_2 N 0.2217(5) 0.3527(7) 0.2090(5)
N3E N 0.2959(9) 0.1179(6) -0.2827(7)
N3B N 0.7041(9) -0.1179(6) 0.2827(7)
N3A N 0.1780(7) -0.7041(9) 0.2827(7)
N3D N -0.1780(7) -0.2959(9) -0.2827(7)
N3A_2 N 0.1780(7) 0.2959(9) 0.2827(7)
N4E N 0.6666 0.3333 -0.1152(8)
N4C N -0.3333 -0.6667 -0.1152(8)
N4_2 N 0.3333 0.6667 0.1152(8)
N5E N 0.6666 0.3333 -0.2173(8)
N6E N 0.6666 0.3333 -0.3113(9)
C1E C 0.4366(7) 0.2460(5) 0.1729(5)
C1A C 0.1906(5) 0.4366(7) -0.1729(5)
C1B C 0.5634(7) -0.2460(5) -0.1729(5)
C1D C 0.8094(5) -0.4366(7) 0.1729(5)
C1A_2 C 0.1906(5) -0.5634(7) -0.1729(5)
O5E O 0.3695(4) -0.0914(3) 0.1922(4)
O5A O 0.4609(3) 0.3695(4) -0.1922(4)
O5B O 0.6305(4) 0.0914(3) -0.1922(4)
O5D O 0.5391(3) -0.3695(4) 0.1922(4)
O5A_2 O 0.4609(3) -0.6305(4) -0.1922(4)
O5C O 0.0914(3) -0.5391(3) 0.1922(4)
O5C_2 O 0.0914(3) 0.4609(3) 0.1922(4)
O6E O 0.3133(6) 0.0127(4) 0.1038(4)
O6A O 0.3006(4) 0.3133(6) -0.1038(4)
O6B O 0.6867(6) -0.0127(4) -0.1038(4)
O6D O 0.6994(4) -0.3133(6) 0.1038(4)
O6A_2 O 0.3006(4) -0.6867(6) -0.1038(4)
C2E C 0.4008(7) 0.0722(5) 0.2850(5)
C2A C 0.3286(5) 0.4008(7) -0.2850(5)
C2B C 0.5992(7) -0.0722(5) -0.2850(5)
C2D C 0.6714(5) -0.4008(7) 0.2850(5)
C2A_2 C 0.3286(5) -0.5992(7) -0.2850(5)
C3E C 0.4034(8) 0.0273(6) 0.3880(6)
C3A C 0.3761(6) 0.4034(8) -0.3880(6)
C3B C 0.5966(8) -0.0273(6) -0.3880(6)
C3D C 0.6239(6) -0.4034(8) 0.3880(6)
C3A_2 C 0.3761(6) -0.5966(8) -0.3880(6)
H2E H 0.3804 -0.0483 0.3938
H2A H 0.4287 0.3804 -0.3938
H2B H 0.6196 0.0483 -0.3938
H2D H 0.5713 -0.3804 0.3938
H2A_2 H 0.4287 -0.6196 -0.3938
C4E C 0.4399(9) 0.0942(7) 0.4816(6)
C4A C 0.3457(6) 0.4399(9) -0.4816(6)
C4B C 0.5601(9) -0.0942(7) -0.4816(6)
C4D C 0.6543(6) -0.4399(9) 0.4816(6)
C4A_2 C 0.3457(6) -0.5601(9) -0.4816(6)
H3E H 0.4424 0.0631 0.5495
H3A H 0.3793 0.4424 -0.5495
H3B H 0.5576 -0.0631 -0.5495
H3D H 0.6207 -0.4424 0.5495
H3A_2 H 0.3793 -0.5576 -0.5495
C5E C 0.4728(10) 0.2055(7) 0.4769(6)
C5A C 0.2673(7) 0.4728(10) -0.4769(6)
C5B C 0.5272(10) -0.2055(7) -0.4769(6)
C5D C 0.7327(7) -0.4728(10) 0.4769(6)
C5A_2 C 0.2673(7) -0.5272(10) -0.4769(6)
H4E H 0.4966 0.2495 0.5408
H4A H 0.2471 0.4966 -0.5408
H4B H 0.5034 -0.2495 -0.5408
H4D H 0.7529 -0.4966 0.5408
H4A_2 H 0.2471 -0.5034 -0.5408
C6E C 0.4697(8) 0.2512(6) 0.3745(6)
C6A C 0.2185(6) 0.4697(8) -0.3745(6)
C6B C 0.5303(8) -0.2512(6) -0.3745(6)
C6D C 0.7815(6) -0.4697(8) 0.3745(6)
C6A_2 C 0.2185(6) -0.5303(8) -0.3745(6)
H5E H 0.4921 0.3267 0.3701
H5A H 0.1654 0.4921 -0.3701
H5B H 0.5079 -0.3267 -0.3701
H5D H 0.8346 -0.4921 0.3701
H5A_2 H 0.1654 -0.5079 -0.3701
C7E C 0.4338(7) 0.1861(5) 0.2788(5)
C7A C 0.2477(5) 0.4338(7) -0.2788(5)
C7B C 0.5662(7) -0.1861(5) -0.2788(5)
C7D C 0.7523(5) -0.4338(7) 0.2788(5)
C7A_2 C 0.2477(5) -0.5662(7) -0.2788(5)
C8E C 0.3568(7) -0.0062(5) 0.1861(5)
C8A C 0.3630(5) 0.3568(7) -0.1861(5)
C8B C 0.6432(7) 0.0062(5) -0.1861(5)
C8D C 0.6370(5) -0.3568(7) 0.1861(5)
C8A_2 C 0.3630(5) -0.6432(7) -0.1861(5)
Cu3 Cu 0.0000 0.0000 0.0000
O4 O -0.0740(7) -0.1432(7) 0.1018(8)
O4A O 0.1432(7) 0.0692(10) 0.1018(8)
O4B O -0.0692(10) 0.0740(7) 0.1018(8)
O4C O 0.0740(7) 0.1432(7) -0.1018(8)
O4D O -0.1432(7) -0.0692(10) -0.1018(8)
O4E O 0.0692(10) -0.0740(7) -0.1018(8)
loop_
_geom_bond_atom_site_label_1
_geom_bond_atom_site_label_2
_geom_bond_site_symmetry_1
_geom_bond_site_symmetry_2
Cu1 O2 1_555 1_555
Cu2 O1 1_555 1_555
Cu3 O4 1_555 1_555
O1 C1 1_555 1_555
O2 C1 1_555 1_555
O3 Cu1 1_555 1_555
H1 O3 1_555 1_555
N1 Cu1 1_555 1_555
N2 N1 1_555 1_555
N3 N2 1_555 1_555
N4 Cu1 1_555 1_555
N5 N4 1_555 1_555
N6 N5 1_555 1_555
C1 C7 1_555 1_555
O5 C8 1_555 1_555
O6 C8 1_555 1_555
C2 C3 1_555 1_555
C3 H2 1_555 1_555
C4 C3 1_555 1_555
H3 C4 1_555 1_555
C5 C4 1_555 1_555
H4 C5 1_555 1_555
C6 C5 1_555 1_555
H5 C6 1_555 1_555
C7 C2 1_555 1_555
C8 C2 1_555 1_555
Cu1E O2E 1_555 1_555
Cu1B N4 1_555 1_555
Cu1A N4 1_555 1_555
Cu1D O5 1_555 1_555
Cu1A_2 O2A 1_555 1_555
Cu1C O3C 1_555 1_555
Cu1D_2 N4E 1_555 1_555
Cu1D_3 O2D 1_555 1_555
Cu1E_2 O3E_2 1_555 1_555
Cu2E O1E 1_555 1_555
Cu2C O3 1_555 1_555
Cu2D N1 1_555 1_555
Cu2A O1A 1_555 1_555
Cu2B O1B 1_555 1_555
Cu2B_2 O3E 1_555 1_555
Cu2E_2 O3B 1_555 1_555
Cu2D_2 O1D 1_555 1_555
Cu2A_2 O1A_2 1_555 1_555
Cu2B_3 N1D 1_555 1_555
O1E C1E 1_555 1_555
O1A C1A 1_555 1_555
O1B C1B 1_555 1_555
O1D C1D 1_555 1_555
O1A_2 C1A_2 1_555 1_555
O1C Cu2C 1_555 1_555
O1D_2 Cu2D 1_555 1_555
O2E C1E 1_555 1_555
O2A C1A 1_555 1_555
O2B Cu1B 1_555 1_555
O2D C1D 1_555 1_555
O2A_2 Cu1A 1_555 1_555
O2D_2 Cu1D 1_555 1_555
O3C Cu2 1_555 1_555
O3E Cu1E 1_555 1_555
O3B Cu1B 1_555 1_555
O3A Cu1A 1_555 1_555
O3D Cu1D 1_555 1_555
O3B_2 Cu2E 1_555 1_555
O3A_2 Cu1A_2 1_555 1_555
O3D_2 Cu2A 1_555 1_555
O3E_2 Cu2B 1_555 1_555
H1C O3C 1_555 1_555
H1E O3E 1_555 1_555
H1B O3B 1_555 1_555
H1A O3A 1_555 1_555
H1D O3D 1_555 1_555
H1B_2 O3B_2 1_555 1_555
H1A_2 O3A_2 1_555 1_555
H1D_2 O3D_2 1_555 1_555
H1E_2 O3E_2 1_555 1_555
N1E Cu2 1_555 1_555
N1B Cu1B 1_555 1_555
N1A Cu1A 1_555 1_555
N1D Cu1D 1_555 1_555
N1A_2 Cu1A_2 1_555 1_555
N1C Cu2A 1_555 1_555
N1D_2 Cu1D_3 1_555 1_555
N2E N1E 1_555 1_555
N2B N1B 1_555 1_555
N2A N1A 1_555 1_555
N2D N1D 1_555 1_555
N2A_2 N1A_2 1_555 1_555
N3E N2E 1_555 1_555
N3B N2B 1_555 1_555
N3A N2A 1_555 1_555
N3D N2D 1_555 1_555
N3A_2 N2A_2 1_555 1_555
N4E Cu1E 1_555 1_555
N4C Cu1D 1_555 1_555
N4_2 Cu1A_2 1_555 1_555
N5E N4E 1_555 1_555
N6E N5E 1_555 1_555
C1E C7E 1_555 1_555
C1A C7A 1_555 1_555
C1B O2B 1_555 1_555
C1D C7D 1_555 1_555
C1A_2 O2A_2 1_555 1_555
O4A Cu3 1_555 1_555
O4B Cu3 1_555 1_555
O4C Cu3 1_555 1_555
O4D Cu3 1_555 1_555
O4E Cu3 1_555 1_555
O5E Cu1 1_555 1_555
O5A Cu1E 1_555 1_555
O5B Cu1C 1_555 1_555
O5D Cu1B 1_555 1_555
O5A_2 Cu1E_2 1_555 1_555
O5C Cu1A 1_555 1_555
O5C_2 Cu1A_2 1_555 1_555
O6E C8E 1_555 1_555
O6A C8A 1_555 1_555
O6B C8B 1_555 1_555
O6D C8D 1_555 1_555
O6A_2 C8A_2 1_555 1_555
C2E C3E 1_555 1_555
C2A C3A 1_555 1_555
C2B C3B 1_555 1_555
C2D C3D 1_555 1_555
C2A_2 C3A_2 1_555 1_555
C3E H2E 1_555 1_555
C3A H2A 1_555 1_555
C3B H2B 1_555 1_555
C3D H2D 1_555 1_555
C3A_2 H2A_2 1_555 1_555
C4E C3E 1_555 1_555
C4A C3A 1_555 1_555
C4B C3B 1_555 1_555
C4D C3D 1_555 1_555
C4A_2 C3A_2 1_555 1_555
H3E C4E 1_555 1_555
H3A C4A 1_555 1_555
H3B C4B 1_555 1_555
H3D C4D 1_555 1_555
H3A_2 C4A_2 1_555 1_555
C5E C4E 1_555 1_555
C5A C4A 1_555 1_555
C5B C4B 1_555 1_555
C5D C4D 1_555 1_555
C5A_2 C4A_2 1_555 1_555
H4E C5E 1_555 1_555
H4A C5A 1_555 1_555
H4B C5B 1_555 1_555
H4D C5D 1_555 1_555
H4A_2 C5A_2 1_555 1_555
C6E C5E 1_555 1_555
C6A C5A 1_555 1_555
C6B C5B 1_555 1_555
C6D C5D 1_555 1_555
C6A_2 C5A_2 1_555 1_555
H5E C6E 1_555 1_555
H5A C6A 1_555 1_555
H5B C6B 1_555 1_555
H5D C6D 1_555 1_555
H5A_2 C6A_2 1_555 1_555
C7E C2E 1_555 1_555
C7A C2A 1_555 1_555
C7B C1B 1_555 1_555
C7D C2D 1_555 1_555
C7A_2 C1A_2 1_555 1_555
C8E O5E 1_555 1_555
C8A O5A 1_555 1_555
C8B O5B 1_555 1_555
C8D O5D 1_555 1_555
C8A_2 O5A_2 1_555 1_555
Cu2 O3 1_555 1_555
C6 C7 1_555 1_555
Cu1E N1E 1_555 1_555
Cu1C N4E 1_555 1_555
Cu2E O3E 1_555 1_555
Cu2E N1A_2 1_555 1_555
Cu2C O3C 1_555 1_555
Cu2C N1B 1_555 1_555
Cu2D O3A 1_555 1_555
Cu2D O3D 1_555 1_555
Cu2A O3A_2 1_555 1_555
Cu2B O3B 1_555 1_555
Cu2B N1D_2 1_555 1_555
Cu2B_2 O3B_2 1_555 1_555
Cu2E_2 O3E_2 1_555 1_555
Cu2E_2 N1A 1_555 1_555
Cu2A_2 O3A 1_555 1_555
Cu2A_2 O3D 1_555 1_555
C2E C8E 1_555 1_555
C2A C8A 1_555 1_555
C2B C7B 1_555 1_555
C2B C8B 1_555 1_555
C2D C8D 1_555 1_555
C2A_2 C7A_2 1_555 1_555
C2A_2 C8A_2 1_555 1_555
C6E C7E 1_555 1_555
C6A C7A 1_555 1_555
C6B C7B 1_555 1_555
C6D C7D 1_555 1_555
C6A_2 C7A_2 1_555 1_555

#END
