
#######################################################################
#
#                 Cambridge Crystallographic Data Centre
#                                CCDC 
#
#######################################################################
#
# If this CIF has been generated from an entry in the Cambridge 
# Structural Database, then it will include bibliographic, chemical, 
# crystal, experimental, refinement or atomic coordinate data resulting 
# from the CCDC's data processing and validation procedures.
#
#######################################################################

data_POJNIM
_symmetry_cell_setting           monoclinic
_symmetry_space_group_name_H-M   'C 2/c'
_symmetry_Int_Tables_number      15
_space_group_name_Hall           '-C 2yn'
loop_
_symmetry_equiv_pos_site_id
_symmetry_equiv_pos_as_xyz
1 x,y,z
2 1/2+x,1/2+y,z
3 -x,y,1/2-z
4 1/2-x,1/2+y,1/2-z
5 -x,-y,-z
6 1/2-x,1/2-y,-z
7 x,-y,1/2+z
8 1/2+x,1/2-y,1/2+z
_cell_length_a                   11.3346(13)
_cell_length_b                   15.368(3)
_cell_length_c                   11.167(2)
_cell_angle_alpha                90
_cell_angle_beta                 90.949(13)
_cell_angle_gamma                90
_cell_volume                     1944.91
loop_
_atom_site_label
_atom_site_type_symbol
_atom_site_fract_x
_atom_site_fract_y
_atom_site_fract_z
Co1 Co 0.5000 0.00282(4) 0.2500
O1 O 0.4720(2) -0.14807(19) 0.3997(3)
O2 O 0.6200(2) -0.06307(16) 0.3455(2)
O3 O 0.6477(3) -0.1435(2) 0.7734(2)
O4 O 0.5887(2) -0.06261(16) 0.6208(2)
C1 C 0.7221(3) -0.2486(2) 0.3797(3)
H1 H 0.7034 -0.2476 0.2983
C2 C 0.6673(3) -0.1900(2) 0.4554(3)
C3 C 0.6956(3) -0.1909(2) 0.5774(3)
C4 C 0.5777(3) -0.1294(2) 0.3993(3)
C5 C 0.6411(3) -0.1287(2) 0.6645(3)
Co1F Co 0.5000 -0.00282(4) 0.7500
Co1G Co 1.0000 -0.50282(4) 0.7500
Co1A Co 1.0000 -0.49718(4) 0.2500
O1E O 1.0280(2) -0.35193(19) 0.6003(3)
O2B O 0.3800(2) -0.06307(16) 0.1545(2)
O2E O 0.8800(2) -0.43693(16) 0.6545(2)
O3E O 0.8523(3) -0.3565(2) 0.2266(2)
O4F O 0.5887(2) 0.06261(16) 0.1208(2)
O4D O 0.4113(2) 0.06261(16) 0.3792(2)
O4E O 0.9113(2) -0.43739(16) 0.3792(2)
C1E C 0.7779(3) -0.2514(2) 0.6203(3)
H1E H 0.7966 -0.2524 0.7017
C2E C 0.8327(3) -0.3100(2) 0.5446(3)
C3E C 0.8044(3) -0.3091(2) 0.4226(3)
C4E C 0.9223(3) -0.3706(2) 0.6007(3)
C5E C 0.8589(3) -0.3713(2) 0.3355(3)
K1 K 0.28584(10) 0.07458(7) 0.01047(9)
O5 O 0.1701(5) 0.0580(4) -0.2136(5)
O6 O 0.0890(8) 0.1828(6) 0.0349(11)
O7 O 0.0923(12) -0.0471(11) 0.003(2)
O8 O 0.0000 0.0753(8) -0.7500
O9? O 0.0160(16) 0.1829(6) -0.2044(10)
loop_
_geom_bond_atom_site_label_1
_geom_bond_atom_site_label_2
_geom_bond_site_symmetry_1
_geom_bond_site_symmetry_2
Co1 O2 1_555 1_555
O1 C4 1_555 1_555
O2 C4 1_555 1_555
O3 C5 1_555 1_555
O4 C5 1_555 1_555
C1 H1 1_555 1_555
C2 C1 1_555 1_555
C3 C2 1_555 1_555
C4 C2 1_555 1_555
C5 C3 1_555 1_555
Co1F O4 1_555 1_555
Co1G O2E 1_555 1_555
Co1A O4E 1_555 1_555
O1E C4E 1_555 1_555
O2B Co1 1_555 1_555
O2E C4E 1_555 1_555
O3E C5E 1_555 1_555
O4F Co1 1_555 1_555
O4D Co1 1_555 1_555
O4E C5E 1_555 1_555
C1E C3 1_555 1_555
H1E C1E 1_555 1_555
C2E C1E 1_555 1_555
C3E C1 1_555 1_555
C4E C2E 1_555 1_555
C5E C3E 1_555 1_555
C2E C3E 1_555 1_555

#END
