
#######################################################################
#
#                 Cambridge Crystallographic Data Centre
#                                CCDC 
#
#######################################################################
#
# If this CIF has been generated from an entry in the Cambridge 
# Structural Database, then it will include bibliographic, chemical, 
# crystal, experimental, refinement or atomic coordinate data resulting 
# from the CCDC's data processing and validation procedures.
#
#######################################################################

data_POJNEI
_symmetry_cell_setting           monoclinic
_symmetry_space_group_name_H-M   'C 2/m'
_symmetry_Int_Tables_number      12
_space_group_name_Hall           '-C 2y'
loop_
_symmetry_equiv_pos_site_id
_symmetry_equiv_pos_as_xyz
1 x,y,z
2 1/2+x,1/2+y,z
3 -x,y,-z
4 1/2-x,1/2+y,-z
5 -x,-y,-z
6 1/2-x,1/2-y,-z
7 x,-y,z
8 1/2+x,1/2-y,z
_cell_length_a                   15.737(2)
_cell_length_b                   11.9010(14)
_cell_length_c                   9.4667(12)
_cell_angle_alpha                90
_cell_angle_beta                 113.293(10)
_cell_angle_gamma                90
_cell_volume                     1628.47
loop_
_atom_site_label
_atom_site_type_symbol
_atom_site_fract_x
_atom_site_fract_y
_atom_site_fract_z
K1 K 0.0529(2) 0.3171(2) -0.0790(4)
K1B K -0.0529(2) 0.3171(2) 0.0790(4)
O7 O -0.0937(6) 0.5000 -0.2117(12)
O8 O 0.3807(5) 0.0000 0.4643(8)
O9 O 0.5000 0.8193(5) 0.5000
H3 H 0.541(5) 0.773(6) 0.575(8)
H3B H 0.459(5) 0.773(6) 0.425(8)
Co1 Co 0.0000 0.0000 0.0000
Co2 Co 0.22869(5) 0.0000 -0.00453(8)
O1 O 0.2149(2) 0.1269(3) 0.1322(4)
O2 O 0.0780(2) 0.1230(3) 0.1517(4)
O3 O 0.2456(2) 0.3818(3) 0.1482(3)
O4 O 0.3900(2) 0.3271(4) 0.2834(4)
O5 O -0.0822(3) 0.0000 0.1350(5)
O6 O 0.3693(3) 0.0000 0.1512(5)
C1 C 0.1789(3) 0.1740(4) 0.4687(5)
C2 C 0.2056(3) 0.2067(3) 0.3518(4)
C3 C 0.2771(3) 0.2845(4) 0.3821(5)
C4 C 0.1621(3) 0.1476(3) 0.1984(5)
C5 C 0.3058(3) 0.3325(4) 0.2601(5)
H1 H 0.137(4) 0.115(5) 0.450(6)
H2 H -0.078(5) -0.057(6) 0.171(8)
Co1A Co 0.5000 0.5000 1.0000
Co1A_2 Co 0.5000 -0.5000 1.0000
Co2E Co 0.27131(5) 0.5000 1.00453(8)
Co2E_2 Co 0.27131(5) 0.5000 0.00453(8)
Co2D Co -0.22869(5) 0.0000 0.00453(8)
Co2_2 Co 0.22869(5) 0.0000 0.99547(8)
Co2E_3 Co 0.27131(5) -0.5000 0.00453(8)
Co2E_4 Co 0.27131(5) -0.5000 1.00453(8)
O1E O 0.2851(2) 0.3731(3) 0.8678(4)
O1F O 0.2149(2) -0.1269(3) 0.1322(4)
O1C O 0.2851(2) -0.3731(3) 0.8678(4)
O1C_2 O 0.2851(2) 0.6269(3) 0.8678(4)
O2E O 0.4220(2) 0.3770(3) 0.8483(4)
O2F O 0.0780(2) -0.1230(3) 0.1517(4)
O2C O 0.4220(2) -0.3770(3) 0.8483(4)
O2D O -0.0780(2) -0.1230(3) -0.1517(4)
O2B O -0.0780(2) 0.1230(3) -0.1517(4)
O3E O 0.2544(2) 0.1182(3) 0.8518(3)
O3F O 0.2456(2) -0.3818(3) 0.1482(3)
O3C O 0.2544(2) -0.1182(3) 0.8518(3)
O3E_2 O 0.2544(2) 0.1182(3) -0.1482(3)
O3C_2 O 0.2544(2) -0.1182(3) -0.1482(3)
O3_2 O 0.2456(2) 0.3818(3) 1.1482(3)
O3F_2 O 0.2456(2) 0.6182(3) 1.1482(3)
O4E O 0.1100(2) 0.1729(4) 0.7166(4)
O4F O 0.3900(2) -0.3271(4) 0.2834(4)
O4C O 0.1100(2) -0.1729(4) 0.7166(4)
O5D O 0.0822(3) 0.0000 -0.1350(5)
O5A O 0.4178(3) 0.5000 1.1350(5)
O6E O 0.1307(3) 0.5000 0.8488(5)
C1E C 0.3211(3) 0.3260(4) 0.5313(5)
C1F C 0.1789(3) -0.1740(4) 0.4687(5)
C1C C 0.3211(3) -0.3260(4) 0.5313(5)
C2E C 0.2944(3) 0.2933(3) 0.6482(4)
C2F C 0.2056(3) -0.2067(3) 0.3518(4)
C2C C 0.2944(3) -0.2933(3) 0.6482(4)
C3E C 0.2229(3) 0.2155(4) 0.6179(5)
C3F C 0.2771(3) -0.2845(4) 0.3821(5)
C3C C 0.2229(3) -0.2155(4) 0.6179(5)
C4E C 0.3379(3) 0.3524(3) 0.8016(5)
C4F C 0.1621(3) -0.1476(3) 0.1984(5)
C4C C 0.3379(3) -0.3524(3) 0.8016(5)
C5E C 0.1942(3) 0.1675(4) 0.7399(5)
C5F C 0.3058(3) -0.3325(4) 0.2601(5)
C5C C 0.1942(3) -0.1675(4) 0.7399(5)
H1E H 0.363(4) 0.385(5) 0.550(6)
H1F H 0.137(4) -0.115(5) 0.450(6)
H1C H 0.363(4) -0.385(5) 0.550(6)
H2F H -0.078(5) 0.057(6) 0.171(8)
H2D H 0.078(5) 0.057(6) -0.171(8)
H2B H 0.078(5) -0.057(6) -0.171(8)
H2A H 0.422(5) 0.443(6) 1.171(8)
H2G H 0.422(5) 0.557(6) 1.171(8)
loop_
_geom_bond_atom_site_label_1
_geom_bond_atom_site_label_2
_geom_bond_site_symmetry_1
_geom_bond_site_symmetry_2
Co1 O2 1_555 1_555
Co2 O1 1_555 1_555
K1 K1B 1_555 1_555
O1 C4 1_555 1_555
O2 C4 1_555 1_555
O3 C5 1_555 1_555
O4 C5 1_555 1_555
O5 Co1 1_555 1_555
O6 Co2 1_555 1_555
O9 H3 1_555 1_555
C1 C2 1_555 1_555
C2 C3 1_555 1_555
C3 C5 1_555 1_555
C4 C2 1_555 1_555
H1 C1 1_555 1_555
H2 O5 1_555 1_555
Co1A O2E 1_555 1_555
Co1A_2 O2C 1_555 1_555
Co2E O1E 1_555 1_555
Co2E_2 O3 1_555 1_555
Co2D O5 1_555 1_555
Co2_2 O3E 1_555 1_555
Co2E_3 O3F 1_555 1_555
Co2E_4 O1C 1_555 1_555
O1E C4E 1_555 1_555
O1F Co2 1_555 1_555
O1C C4C 1_555 1_555
O1C_2 Co2E 1_555 1_555
O2E C4E 1_555 1_555
O2F Co1 1_555 1_555
O2C C4C 1_555 1_555
O2D Co1 1_555 1_555
O2B Co1 1_555 1_555
O3E C5E 1_555 1_555
O3F C5F 1_555 1_555
O3C Co2_2 1_555 1_555
O3E_2 Co2 1_555 1_555
O3C_2 Co2 1_555 1_555
O3_2 Co2E 1_555 1_555
O3F_2 Co2E 1_555 1_555
O4E C5E 1_555 1_555
O4F C5F 1_555 1_555
O4C C5C 1_555 1_555
O5D Co1 1_555 1_555
O5A Co1A 1_555 1_555
O6E Co2E 1_555 1_555
C1E C3 1_555 1_555
C1F C2F 1_555 1_555
C1C C2C 1_555 1_555
C2E C1E 1_555 1_555
C2F C3F 1_555 1_555
C2C C3C 1_555 1_555
C3E C1 1_555 1_555
C3F C1C 1_555 1_555
C3C C1F 1_555 1_555
C4E C2E 1_555 1_555
C4F O1F 1_555 1_555
C4C C2C 1_555 1_555
C5E C3E 1_555 1_555
C5F C3F 1_555 1_555
C5C O3C 1_555 1_555
H1E C1E 1_555 1_555
H1F C1F 1_555 1_555
H1C C1C 1_555 1_555
H2F O5 1_555 1_555
H2D O5D 1_555 1_555
H2B O5D 1_555 1_555
H2A O5A 1_555 1_555
H2G O5A 1_555 1_555
H3B O9 1_555 1_555
Co2 O5D 1_555 1_555
Co2E O5A 1_555 1_555
O2F C4F 1_555 1_555
C2E C3E 1_555 1_555
C2F C4F 1_555 1_555
C3C C5C 1_555 1_555

#END
