
#######################################################################
#
#                 Cambridge Crystallographic Data Centre
#                                CCDC 
#
#######################################################################
#
# If this CIF has been generated from an entry in the Cambridge 
# Structural Database, then it will include bibliographic, chemical, 
# crystal, experimental, refinement or atomic coordinate data resulting 
# from the CCDC's data processing and validation procedures.
#
#######################################################################

data_POJQIO
_symmetry_cell_setting           monoclinic
_symmetry_space_group_name_H-M   'P 21/c'
_symmetry_Int_Tables_number      14
_space_group_name_Hall           '-P 2ybc'
loop_
_symmetry_equiv_pos_site_id
_symmetry_equiv_pos_as_xyz
1 x,y,z
2 -x,1/2+y,1/2-z
3 -x,-y,-z
4 x,1/2-y,1/2+z
_cell_length_a                   10.943(1)
_cell_length_b                   33.873(5)
_cell_length_c                   10.416(2)
_cell_angle_alpha                90
_cell_angle_beta                 102.54(1)
_cell_angle_gamma                90
_cell_volume                     3768.82
loop_
_atom_site_label
_atom_site_type_symbol
_atom_site_fract_x
_atom_site_fract_y
_atom_site_fract_z
Ag1 Ag 0.0541(1) 0.3392(1) 0.3621(1)
Ag2 Ag 0.1475(1) 0.4144(1) 0.3384(1)
Ag3 Ag -0.2626(1) 0.3980(1) -0.0185(1)
C1 C 0.1611(5) 0.3493(1) 0.0482(5)
C2 C 0.0497(5) 0.3441(1) -0.0452(5)
C3 C -0.0167(5) 0.3087(1) -0.0454(5)
C4 C 0.0226(5) 0.2796(1) 0.0489(5)
C5 C 0.1311(5) 0.2859(1) 0.1458(5)
C6 C 0.2009(5) 0.3199(1) 0.1424(5)
C7 C 0.2371(5) 0.3869(1) 0.0499(5)
N1 N 0.3450(4) 0.3895(1) 0.1583(4)
N2 N 0.3314(4) 0.3993(1) 0.2806(4)
C8 C 0.4462(5) 0.3965(2) 0.3535(5)
C9 C 0.5315(6) 0.3851(2) 0.2822(6)
C10 C 0.4629(6) 0.3804(2) 0.1564(6)
C11 C 0.0027(5) 0.3772(1) -0.1421(5)
N3 N -0.1097(4) 0.3675(1) -0.2384(4)
N4 N -0.2235(4) 0.3736(1) -0.2136(4)
C12 C -0.3052(5) 0.3611(2) -0.3207(5)
C13 C -0.2396(6) 0.3471(2) -0.4122(5)
C14 C -0.1176(6) 0.3518(1) -0.3583(5)
C15 C -0.0482(5) 0.2418(1) 0.0516(5)
N5 N -0.1396(4) 0.2321(1) -0.0676(4)
N6 N -0.1139(4) 0.2035(1) -0.1489(4)
C16 C -0.2172(5) 0.2010(2) -0.2422(5)
C17 C -0.3083(5) 0.2273(2) -0.2229(6)
C18 C -0.2552(5) 0.2463(2) -0.1085(6)
C19 C 0.1705(5) 0.2560(1) 0.2559(5)
N7 N 0.2584(4) 0.2724(1) 0.3693(4)
N8 N 0.2207(4) 0.3020(1) 0.4402(4)
C20 C 0.3219(6) 0.3102(2) 0.5325(6)
C21 C 0.4225(6) 0.2868(2) 0.5204(6)
C22 C 0.3784(6) 0.2634(2) 0.4162(7)
C23 C -0.1179(4) 0.4972(1) 0.0307(5)
C24 C -0.0116(4) 0.5014(1) 0.1313(5)
C25 C -0.1047(4) 0.4955(1) -0.0988(5)
C26 C -0.2434(4) 0.4947(1) 0.0677(4)
N9 N -0.3485(3) 0.4887(1) -0.0432(4)
N10 N -0.3773(4) 0.4521(1) -0.0901(4)
C27 C -0.4731(5) 0.4566(2) -0.1923(5)
C28 C -0.5038(5) 0.4961(2) -0.2123(5)
C29 C -0.4203(5) 0.5156(2) -0.1144(5)
C30 C -0.0263(4) 0.5028(2) 0.2730(4)
N11 N 0.0879(4) 0.5088(1) 0.3670(4)
N12 N 0.1715(4) 0.4792(1) 0.4000(4)
C31 C 0.2712(5) 0.4958(2) 0.4758(5)
C32 C 0.2523(6) 0.5356(2) 0.4928(6)
C33 C 0.1361(5) 0.5427(2) 0.4211(5)
N15 N -0.1237(4) 0.3947(1) 0.1673(4)
C34 C -0.0365(5) 0.3898(1) 0.2481(5)
H1 H -0.0904(5) 0.3045(1) -0.1114(5)
H2 H 0.2773(5) 0.3233(1) 0.2052(5)
H3 H 0.2660(5) 0.3888(1) -0.0337(5)
H4 H 0.1820(5) 0.4099(1) 0.0540(5)
H5 H 0.4671(5) 0.4019(2) 0.4452(5)
H6 H 0.6190(6) 0.3813(2) 0.3131(6)
H7 H 0.4937(6) 0.3722(2) 0.0822(6)
H8 H -0.0137(5) 0.4008(1) -0.0923(5)
H9 H 0.0696(5) 0.3841(1) -0.1887(5)
H10 H -0.3937(5) 0.3616(2) -0.3325(5)
H11 H -0.2747(6) 0.3363(2) -0.4964(5)
H12 H -0.0496(6) 0.3452(1) -0.3975(5)
H13 H 0.0131(5) 0.2199(1) 0.0708(5)
H14 H -0.0920(5) 0.2432(1) 0.1253(5)
H15 H -0.2276(5) 0.1832(2) -0.3142(5)
H16 H -0.3892(5) 0.2312(2) -0.2769(6)
H17 H -0.2937(5) 0.2660(2) -0.0659(6)
H18 H 0.0952(5) 0.2464(1) 0.2845(5)
H19 H 0.2099(5) 0.2331(1) 0.2219(5)
H20 H 0.3249(6) 0.3297(2) 0.5986(6)
H21 H 0.5047(6) 0.2871(2) 0.5739(6)
H22 H 0.4247(6) 0.2439(2) 0.3820(7)
H23 H -0.1771(4) 0.4922(1) -0.1671(5)
H24 H -0.2414(4) 0.4727(1) 0.1306(4)
H25 H -0.2575(4) 0.5194(1) 0.1133(4)
H26 H -0.5147(5) 0.4356(2) -0.2445(5)
H27 H -0.5680(5) 0.5072(2) -0.2785(5)
H28 H -0.4154(5) 0.5434(2) -0.1007(5)
H29 H -0.0850(4) 0.5244(2) 0.2818(4)
H30 H -0.0642(4) 0.4777(2) 0.2936(4)
H31 H 0.3461(5) 0.4821(2) 0.5136(5)
H32 H 0.3086(6) 0.5539(2) 0.5436(6)
H33 H 0.0954(5) 0.5677(2) 0.4109(5)
C24B C 0.0116(4) 0.4986(1) -0.1313(5)
N6C N -0.1139(4) 0.2965(1) 0.3511(4)
Ag1C Ag 0.0541(1) 0.1608(1) -0.1379(1)
C25B C 0.1047(4) 0.5045(1) 0.0988(5)
C23B C 0.1179(4) 0.5028(1) -0.0307(5)
H23B H 0.1771(4) 0.5078(1) 0.1671(5)
N13 N 0.2225(4) 0.4065(1) 0.6424(4)
O1 O 0.2332(3) 0.4232(1) 0.7510(3)
O2 O 0.1246(4) 0.3888(2) 0.5975(4)
O3 O 0.3031(3) 0.4084(1) 0.5779(4)
N14 N -0.4657(5) 0.3324(1) -0.1160(5)
O4 O -0.4894(5) 0.3045(1) -0.1896(5)
O5 O -0.5162(5) 0.3643(1) -0.1416(4)
O6 O -0.3786(4) 0.3296(1) -0.0178(4)
loop_
_geom_bond_atom_site_label_1
_geom_bond_atom_site_label_2
_geom_bond_site_symmetry_1
_geom_bond_site_symmetry_2
Ag1 Ag2 1_555 1_555
Ag2 N2 1_555 1_555
Ag3 N4 1_555 1_555
C1 C2 1_555 1_555
C2 C3 1_555 1_555
C3 C4 1_555 1_555
C4 C5 1_555 1_555
C5 C6 1_555 1_555
C6 C1 1_555 1_555
C7 C1 1_555 1_555
N1 C7 1_555 1_555
N2 N1 1_555 1_555
C8 N2 1_555 1_555
C9 C8 1_555 1_555
C10 N1 1_555 1_555
C11 C2 1_555 1_555
N3 C11 1_555 1_555
N4 N3 1_555 1_555
C12 N4 1_555 1_555
C13 C12 1_555 1_555
C14 N3 1_555 1_555
C15 C4 1_555 1_555
N5 C15 1_555 1_555
N6 N5 1_555 1_555
C16 N6 1_555 1_555
C17 C16 1_555 1_555
C18 N5 1_555 1_555
C19 C5 1_555 1_555
N7 C19 1_555 1_555
N8 Ag1 1_555 1_555
C20 N8 1_555 1_555
C21 C20 1_555 1_555
C22 N7 1_555 1_555
C23 C24 1_555 1_555
C24 C30 1_555 1_555
C25 C23 1_555 1_555
C26 C23 1_555 1_555
N9 C26 1_555 1_555
N10 Ag3 1_555 1_555
C27 N10 1_555 1_555
C28 C27 1_555 1_555
C29 N9 1_555 1_555
C30 N11 1_555 1_555
N11 N12 1_555 1_555
N12 Ag2 1_555 1_555
C31 N12 1_555 1_555
C32 C31 1_555 1_555
C33 N11 1_555 1_555
N13 O1 1_555 1_555
O2 N13 1_555 1_555
O3 N13 1_555 1_555
N14 O4 1_555 1_555
O5 N14 1_555 1_555
O6 N14 1_555 1_555
N15 Ag3 1_555 1_555
C34 Ag1 1_555 1_555
H1 C3 1_555 1_555
H2 C6 1_555 1_555
H3 C7 1_555 1_555
H4 C7 1_555 1_555
H5 C8 1_555 1_555
H6 C9 1_555 1_555
H7 C10 1_555 1_555
H8 C11 1_555 1_555
H9 C11 1_555 1_555
H10 C12 1_555 1_555
H11 C13 1_555 1_555
H12 C14 1_555 1_555
H13 C15 1_555 1_555
H14 C15 1_555 1_555
H15 C16 1_555 1_555
H16 C17 1_555 1_555
H17 C18 1_555 1_555
H18 C19 1_555 1_555
H19 C19 1_555 1_555
H20 C20 1_555 1_555
H21 C21 1_555 1_555
H22 C22 1_555 1_555
H23 C25 1_555 1_555
H24 C26 1_555 1_555
H25 C26 1_555 1_555
H26 C27 1_555 1_555
H27 C28 1_555 1_555
H28 C29 1_555 1_555
H29 C30 1_555 1_555
H30 C30 1_555 1_555
H31 C31 1_555 1_555
H32 C32 1_555 1_555
H33 C33 1_555 1_555
C24B C25 1_555 1_555
N6C Ag1 1_555 1_555
Ag1C N6 1_555 1_555
C25B C24 1_555 1_555
C23B C24B 1_555 1_555
H23B C25B 1_555 1_555
Ag2 C34 1_555 1_555
C9 C10 1_555 1_555
C13 C14 1_555 1_555
C17 C18 1_555 1_555
N7 N8 1_555 1_555
C21 C22 1_555 1_555
N9 N10 1_555 1_555
C28 C29 1_555 1_555
C32 C33 1_555 1_555
N15 C34 1_555 1_555
C25B C23B 1_555 1_555

#END
