
#######################################################################
#
#                 Cambridge Crystallographic Data Centre
#                                CCDC 
#
#######################################################################
#
# If this CIF has been generated from an entry in the Cambridge 
# Structural Database, then it will include bibliographic, chemical, 
# crystal, experimental, refinement or atomic coordinate data resulting 
# from the CCDC's data processing and validation procedures.
#
#######################################################################

data_POJQEL
_symmetry_cell_setting           monoclinic
_symmetry_space_group_name_H-M   'P 21/c'
_symmetry_Int_Tables_number      14
_space_group_name_Hall           '-P 2ybc'
loop_
_symmetry_equiv_pos_site_id
_symmetry_equiv_pos_as_xyz
1 x,y,z
2 -x,1/2+y,1/2-z
3 -x,-y,-z
4 x,1/2-y,1/2+z
_cell_length_a                   12.6670(14)
_cell_length_b                   6.7548(7)
_cell_length_c                   9.5943(10)
_cell_angle_alpha                90
_cell_angle_beta                 104.108(3)
_cell_angle_gamma                90
_cell_volume                     796.157
loop_
_atom_site_label
_atom_site_type_symbol
_atom_site_fract_x
_atom_site_fract_y
_atom_site_fract_z
Ca1 Ca 0.48819(3) 0.01331(5) 0.69003(3)
O1 O 0.44359(10) -0.17379(17) 0.87754(12)
O2 O 0.40967(11) -0.18579(17) 1.09444(12)
O3 O 0.36721(10) 0.23857(18) 0.76154(12)
O4 O 0.37871(11) 0.42847(18) 0.95118(12)
C1 C 0.38155(15) -0.1504(2) 0.96123(17)
C2 C 0.26618(14) -0.0749(2) 0.90034(17)
C3 C 0.21905(15) -0.1304(3) 0.74315(18)
C4 C 0.11672(16) -0.0210(3) 0.67692(19)
C5 C 0.08374(16) 0.1394(3) 0.7349(2)
C6 C 0.14320(15) 0.2272(3) 0.8753(2)
C7 C 0.26037(14) 0.1496(2) 0.93173(18)
C8 C 0.34037(14) 0.2778(2) 0.87719(17)
H1 H 0.21950 -0.14240 0.95630
H2 H 0.27390 -0.10210 0.68780
H3 H 0.20400 -0.27440 0.73670
H4 H 0.07270 -0.06840 0.58850
H5 H 0.01850 0.20190 0.68400
H6 H 0.10150 0.19920 0.94800
H7 H 0.14580 0.37270 0.86430
H8 H 0.27870 0.16460 1.03860
Ca1A Ca 0.51181(3) -0.48669(5) 0.80997(3)
Ca1C Ca 0.48819(3) -0.51331(5) 1.19003(3)
Ca1B Ca 0.51181(3) -0.01331(5) 1.30997(3)
Ca1A_2 Ca 0.51181(3) 0.51331(5) 0.80997(3)
Ca1C_2 Ca 0.48819(3) 0.48669(5) 1.19003(3)
O1A O 0.55641(10) 0.32621(17) 0.62246(12)
O2C O 0.40967(11) -0.31421(17) 0.59444(12)
O2B O 0.59033(11) 0.18579(17) 0.90556(12)
O3A O 0.63279(10) -0.26143(18) 0.73846(12)
O4C O 0.37871(11) 0.07153(18) 0.45118(12)
O4A O 0.62129(11) -0.07153(18) 0.54882(12)
loop_
_geom_bond_atom_site_label_1
_geom_bond_atom_site_label_2
_geom_bond_site_symmetry_1
_geom_bond_site_symmetry_2
Ca1 O1 1_555 1_555
O1 C1 1_555 1_555
O2 C1 1_555 1_555
O3 Ca1 1_555 1_555
O4 C8 1_555 1_555
C1 C2 1_555 1_555
C2 C3 1_555 1_555
C3 C4 1_555 1_555
C4 C5 1_555 1_555
C5 C6 1_555 1_555
C6 C7 1_555 1_555
C7 C2 1_555 1_555
C8 O3 1_555 1_555
H1 C2 1_555 1_555
H2 C3 1_555 1_555
H3 C3 1_555 1_555
H4 C4 1_555 1_555
H5 C5 1_555 1_555
H6 C6 1_555 1_555
H7 C6 1_555 1_555
H8 C7 1_555 1_555
Ca1A O1 1_555 1_555
Ca1C O2 1_555 1_555
Ca1B O2 1_555 1_555
Ca1A_2 O3 1_555 1_555
Ca1C_2 O4 1_555 1_555
O1A Ca1 1_555 1_555
O2C Ca1 1_555 1_555
O2B Ca1 1_555 1_555
O3A Ca1 1_555 1_555
O4C Ca1 1_555 1_555
O4A Ca1 1_555 1_555
O4 Ca1A_2 1_555 1_555
C7 C8 1_555 1_555
Ca1A O2C 1_555 1_555
Ca1A O3A 1_555 1_555
Ca1A_2 O1A 1_555 1_555
Ca1A_2 O2B 1_555 1_555

#END
