
#######################################################################
#
#                 Cambridge Crystallographic Data Centre
#                                CCDC 
#
#######################################################################
#
# If this CIF has been generated from an entry in the Cambridge 
# Structural Database, then it will include bibliographic, chemical, 
# crystal, experimental, refinement or atomic coordinate data resulting 
# from the CCDC's data processing and validation procedures.
#
#######################################################################

data_POJSAJ
_symmetry_cell_setting           monoclinic
_symmetry_space_group_name_H-M   'P 21/c'
_symmetry_Int_Tables_number      14
_space_group_name_Hall           '-P 2ybc'
loop_
_symmetry_equiv_pos_site_id
_symmetry_equiv_pos_as_xyz
1 x,y,z
2 -x,1/2+y,1/2-z
3 -x,-y,-z
4 x,1/2-y,1/2+z
_cell_length_a                   11.0220(2)
_cell_length_b                   15.3770(3)
_cell_length_c                   19.9230(4)
_cell_angle_alpha                90.00
_cell_angle_beta                 97.7460(8)
_cell_angle_gamma                90.00
_cell_volume                     3345.84
loop_
_atom_site_label
_atom_site_type_symbol
_atom_site_fract_x
_atom_site_fract_y
_atom_site_fract_z
Mn1 Mn -0.5000 0.0000 0.0000
Mn2 Mn 0.21400(5) 0.11274(4) 0.32261(3)
Cr1 Cr -0.18620(5) 0.25963(4) 0.17442(3)
O1 O -0.0058(2) 0.25883(16) 0.17805(12)
O2 O -0.1519(2) 0.17249(16) 0.24787(12)
O3 O -0.1773(2) 0.35486(16) 0.24172(11)
O4 O -0.2029(2) 0.35716(16) 0.10906(11)
O5 O -0.3629(2) 0.24786(16) 0.17295(13)
O6 O -0.2134(2) 0.16916(16) 0.10397(12)
O7 O 0.0080(2) 0.11365(17) 0.31317(13)
O8 O 0.1595(2) 0.19767(17) 0.23663(12)
O9 O -0.5159(2) 0.15849(19) 0.13818(15)
O10 O -0.3576(2) 0.07908(17) 0.05649(13)
O11 O -0.1975(2) 0.49907(17) 0.24588(12)
O12 O -0.2203(3) 0.50211(17) 0.10799(12)
C1 C -0.0381(3) 0.1597(2) 0.26564(17)
C2 C 0.0470(3) 0.2095(2) 0.22394(17)
C3 C -0.4110(3) 0.1846(2) 0.13853(18)
C4 C -0.3221(3) 0.1390(2) 0.09493(17)
C5 C -0.2057(3) 0.4313(2) 0.13696(17)
C6 C -0.1928(3) 0.4295(2) 0.21578(17)
O13 O -0.4139(3) -0.1177(2) 0.04650(16)
H1 H -0.393(5) -0.119(3) 0.088(3)
H2 H -0.425(4) -0.172(3) 0.033(2)
O14 O -0.3895(2) -0.01598(17) -0.08100(13)
C7 C -0.2576(4) -0.0245(3) -0.0713(2)
H3 H -0.2286 -0.0264 -0.1146
H4 H -0.2348 -0.0772 -0.0469
H5 H -0.2218 0.0244 -0.0460
O15 O 0.2390(3) 0.2180(2) 0.39139(15)
H6 H 0.244(5) 0.206(4) 0.437(3)
H7 H 0.213(5) 0.266(4) 0.377(3)
O16 O 0.4080(2) 0.11998(17) 0.32108(15)
C8 C 0.4881(4) 0.0645(3) 0.2911(3)
H8 H 0.5603 0.0962 0.2839
H9 H 0.4477 0.0435 0.2485
H10 H 0.5107 0.0161 0.3206
Mn2A Mn -0.21400(5) 0.61274(4) 0.17739(3)
Mn2B Mn -1.21400(5) -0.11274(4) -0.32261(3)
Mn2C Mn -0.78600(5) -0.61274(4) -0.17739(3)
Cr1B Cr -0.81380(5) -0.25963(4) -0.17442(3)
O1B O -0.9942(2) -0.25883(16) -0.17805(12)
O2B O -0.8481(2) -0.17249(16) -0.24787(12)
O3B O -0.8227(2) -0.35486(16) -0.24172(11)
O4B O -0.7971(2) -0.35716(16) -0.10906(11)
O5B O -0.6371(2) -0.24786(16) -0.17295(13)
O6B O -0.7866(2) -0.16916(16) -0.10397(12)
O7B O -1.0080(2) -0.11365(17) -0.31317(13)
O8B O -1.1595(2) -0.19767(17) -0.23663(12)
O9B O -0.4841(2) -0.15849(19) -0.13818(15)
O10B O -0.6424(2) -0.07908(17) -0.05649(13)
O11A O 0.1975(2) -0.00093(17) 0.25412(12)
O11B O -0.8025(2) -0.49907(17) -0.24588(12)
O11C O -1.1975(2) 0.00093(17) -0.25412(12)
O12A O 0.2203(3) 0.00211(17) 0.39201(12)
O12B O -0.7797(3) -0.50211(17) -0.10799(12)
O12C O -1.2203(3) -0.00211(17) -0.39201(12)
C1B C -0.9619(3) -0.1597(2) -0.26564(17)
C2B C -1.0470(3) -0.2095(2) -0.22394(17)
C3B C -0.5890(3) -0.1846(2) -0.13853(18)
C4B C -0.6779(3) -0.1390(2) -0.09493(17)
C5B C -0.7943(3) -0.4313(2) -0.13696(17)
C6B C -0.8072(3) -0.4295(2) -0.21578(17)
O13B O -0.5861(3) 0.1177(2) -0.04650(16)
H1B H -0.607(5) 0.119(3) -0.088(3)
H2B H -0.575(4) 0.172(3) -0.033(2)
O14B O -0.6105(2) 0.01598(17) 0.08100(13)
C7B C -0.7424(4) 0.0245(3) 0.0713(2)
H3B H -0.7714 0.0264 0.1146
H4B H -0.7652 0.0772 0.0469
H5B H -0.7782 -0.0244 0.0460
O15B O -1.2390(3) -0.2180(2) -0.39139(15)
H6B H -1.244(5) -0.206(4) -0.437(3)
H7B H -1.213(5) -0.266(4) -0.377(3)
O16B O -1.4080(2) -0.11998(17) -0.32108(15)
C8B C -1.4881(4) -0.0645(3) -0.2911(3)
H8B H -1.5603 -0.0962 -0.2839
H9B H -1.4477 -0.0435 -0.2485
H10B H -1.5107 -0.0161 -0.3206
C9 C 0.1692(5) -0.7846(3) 0.5662(2)
H11 H 0.1983 -0.7341 0.5928
H12 H 0.1491 -0.8298 0.5968
C10 C 0.0582(5) -0.7613(4) 0.5176(3)
H13 H 0.0342 -0.8102 0.4880
H14 H -0.0093 -0.7474 0.5423
C11 C -0.0119(4) -0.6656(4) 0.4280(3)
H15 H -0.0823 -0.6474 0.4489
H16 H -0.0356 -0.7154 0.3994
C12 C 0.0283(5) -0.5932(4) 0.3864(3)
H17 H -0.0412 -0.5707 0.3564
H18 H 0.0624 -0.5464 0.4157
C13 C 0.1663(5) -0.5588(3) 0.3081(3)
H19 H 0.2058 -0.5144 0.3380
H20 H 0.0995 -0.5317 0.2787
C14 C 0.2557(5) -0.5952(3) 0.2664(2)
H21 H 0.2215 -0.6462 0.2421
H22 H 0.2747 -0.5525 0.2335
C15 C 0.4496(5) -0.6609(3) 0.2729(2)
H23 H 0.4667 -0.6247 0.2354
H24 H 0.4159 -0.7156 0.2548
C16 C 0.5632(5) -0.6767(3) 0.3194(2)
H25 H 0.6275 -0.6957 0.2940
H26 H 0.5896 -0.6234 0.3430
C17 C 0.6423(4) -0.7555(4) 0.4199(2)
H27 H 0.6588 -0.7024 0.4458
H28 H 0.7150 -0.7708 0.4000
C18 C 0.6102(4) -0.8264(4) 0.4646(2)
H29 H 0.5870 -0.8779 0.4378
H30 H 0.6808 -0.8408 0.4973
C19 C 0.4604(5) -0.8726(3) 0.5302(3)
H31 H 0.5251 -0.9029 0.5589
H32 H 0.4252 -0.9128 0.4954
C20 C 0.3668(5) -0.8464(3) 0.5706(2)
H33 H 0.3440 -0.8956 0.5967
H34 H 0.3988 -0.8012 0.6021
O17 O 0.2613(3) -0.8146(2) 0.52810(13)
O18 O 0.0853(3) -0.6888(2) 0.47869(15)
O19 O 0.1187(3) -0.62536(19) 0.34754(15)
O20 O 0.3638(3) -0.61823(19) 0.30991(14)
O21 O 0.5406(2) -0.74249(18) 0.36733(13)
O22 O 0.5112(3) -0.7999(2) 0.49915(14)
O23 O 0.2023(4) 0.5437(3) 0.12156(19)
C21 C 0.1279(5) 0.5267(4) 0.0610(3)
H35 H 0.0942 0.5803 0.0420
H36 H 0.0626 0.4886 0.0694
H37 H 0.1754 0.4995 0.0299
loop_
_geom_bond_atom_site_label_1
_geom_bond_atom_site_label_2
_geom_bond_site_symmetry_1
_geom_bond_site_symmetry_2
Mn1 O10 1_555 1_555
Mn2 O7 1_555 1_555
Cr1 O1 1_555 1_555
O1 C2 1_555 1_555
O2 Cr1 1_555 1_555
O3 Cr1 1_555 1_555
O4 Cr1 1_555 1_555
O5 Cr1 1_555 1_555
O6 Cr1 1_555 1_555
O7 C1 1_555 1_555
O8 Mn2 1_555 1_555
O9 C3 1_555 1_555
O10 C4 1_555 1_555
O11 C6 1_555 1_555
O12 C5 1_555 1_555
C1 O2 1_555 1_555
C2 O8 1_555 1_555
C3 O5 1_555 1_555
C4 O6 1_555 1_555
C5 O4 1_555 1_555
C6 O3 1_555 1_555
O13 Mn1 1_555 1_555
H1 O13 1_555 1_555
H2 O13 1_555 1_555
O14 Mn1 1_555 1_555
C7 O14 1_555 1_555
H3 C7 1_555 1_555
H4 C7 1_555 1_555
H5 C7 1_555 1_555
O15 Mn2 1_555 1_555
H6 O15 1_555 1_555
H7 O15 1_555 1_555
O16 Mn2 1_555 1_555
C8 O16 1_555 1_555
H8 C8 1_555 1_555
H9 C8 1_555 1_555
H10 C8 1_555 1_555
C9 H11 1_555 1_555
H12 C9 1_555 1_555
C10 C9 1_555 1_555
H13 C10 1_555 1_555
H14 C10 1_555 1_555
C11 H15 1_555 1_555
H16 C11 1_555 1_555
C12 C11 1_555 1_555
H17 C12 1_555 1_555
H18 C12 1_555 1_555
C13 H19 1_555 1_555
H20 C13 1_555 1_555
C14 C13 1_555 1_555
H21 C14 1_555 1_555
H22 C14 1_555 1_555
C15 H23 1_555 1_555
H24 C15 1_555 1_555
C16 C15 1_555 1_555
H25 C16 1_555 1_555
H26 C16 1_555 1_555
C17 H27 1_555 1_555
H28 C17 1_555 1_555
C18 C17 1_555 1_555
H29 C18 1_555 1_555
H30 C18 1_555 1_555
C19 H31 1_555 1_555
H32 C19 1_555 1_555
C20 C19 1_555 1_555
H33 C20 1_555 1_555
H34 C20 1_555 1_555
O17 C9 1_555 1_555
O18 C10 1_555 1_555
O19 C12 1_555 1_555
O20 C14 1_555 1_555
O21 C16 1_555 1_555
O22 C18 1_555 1_555
O23 C21 1_555 1_555
C21 H35 1_555 1_555
H36 C21 1_555 1_555
H37 C21 1_555 1_555
Mn2A O11 1_555 1_555
Mn2B O7B 1_555 1_555
Mn2C O11B 1_555 1_555
Cr1B O1B 1_555 1_555
O1B C2B 1_555 1_555
O2B Cr1B 1_555 1_555
O3B Cr1B 1_555 1_555
O4B Cr1B 1_555 1_555
O5B Cr1B 1_555 1_555
O6B Cr1B 1_555 1_555
O7B C1B 1_555 1_555
O8B Mn2B 1_555 1_555
O9B C3B 1_555 1_555
O10B Mn1 1_555 1_555
O11A Mn2 1_555 1_555
O11B C6B 1_555 1_555
O11C Mn2B 1_555 1_555
O12A Mn2 1_555 1_555
O12B Mn2C 1_555 1_555
O12C Mn2B 1_555 1_555
C1B O2B 1_555 1_555
C2B O8B 1_555 1_555
C3B O5B 1_555 1_555
C4B O6B 1_555 1_555
C5B O4B 1_555 1_555
C6B O3B 1_555 1_555
O13B Mn1 1_555 1_555
H1B O13B 1_555 1_555
H2B O13B 1_555 1_555
O14B Mn1 1_555 1_555
C7B O14B 1_555 1_555
H3B C7B 1_555 1_555
H4B C7B 1_555 1_555
H5B C7B 1_555 1_555
O15B Mn2B 1_555 1_555
H6B O15B 1_555 1_555
H7B O15B 1_555 1_555
O16B Mn2B 1_555 1_555
C8B O16B 1_555 1_555
H8B C8B 1_555 1_555
H9B C8B 1_555 1_555
H10B C8B 1_555 1_555
O12 Mn2A 1_555 1_555
C1 C2 1_555 1_555
C3 C4 1_555 1_555
C5 C6 1_555 1_555
C11 O18 1_555 1_555
C13 O19 1_555 1_555
C15 O20 1_555 1_555
C17 O21 1_555 1_555
C19 O22 1_555 1_555
C20 O17 1_555 1_555
O10B C4B 1_555 1_555
O12B C5B 1_555 1_555
C1B C2B 1_555 1_555
C3B C4B 1_555 1_555
C5B C6B 1_555 1_555

#END
