
#######################################################################
#
#                 Cambridge Crystallographic Data Centre
#                                CCDC 
#
#######################################################################
#
# If this CIF has been generated from an entry in the Cambridge 
# Structural Database, then it will include bibliographic, chemical, 
# crystal, experimental, refinement or atomic coordinate data resulting 
# from the CCDC's data processing and validation procedures.
#
#######################################################################

data_POJTIS
_symmetry_cell_setting           triclinic
_symmetry_space_group_name_H-M   'P -1'
_symmetry_Int_Tables_number      2
_space_group_name_Hall           '-P 1'
loop_
_symmetry_equiv_pos_site_id
_symmetry_equiv_pos_as_xyz
1 x,y,z
2 -x,-y,-z
_cell_length_a                   8.2631(6)
_cell_length_b                   8.6149(4)
_cell_length_c                   9.7488(6)
_cell_angle_alpha                84.600(5)
_cell_angle_beta                 76.313(6)
_cell_angle_gamma                62.093(6)
_cell_volume                     595.745
loop_
_atom_site_label
_atom_site_type_symbol
_atom_site_fract_x
_atom_site_fract_y
_atom_site_fract_z
Co1 Co -1.0000 0.0000 0.0000
O1 O -0.9162(4) 0.0477(3) 0.1661(2)
C1 C -0.5851(5) -0.0958(3) -0.1894(3)
N1 N -0.7407(4) -0.0427(3) -0.1311(2)
C2 C -0.3387(3) -0.0833(3) -0.3770(4)
C3 C -0.2619(4) -0.3260(3) -0.2124(3)
C4 C -0.3930(4) -0.1704(3) -0.2580(3)
N2 N -0.2939(3) -0.0123(3) -0.4728(3)
O2 O -0.1016(2) -0.4078(2) -0.30993(16)
C5 C 0.0789(4) -0.5013(4) -0.2685(3)
C6 C 0.2290(4) -0.5250(4) -0.3980(3)
O3 O 0.2020(3) -0.2394(3) -0.3748(2)
C7 C 0.2079(5) -0.3574(4) -0.4720(3)
C8 C -0.2912(3) -0.3988(3) -0.0796(3)
C9 C -0.1970(3) -0.5813(4) -0.0579(2)
N3 N -0.1238(3) -0.7303(3) -0.0381(2)
N4 N -0.5297(3) -0.2152(3) 0.1375(2)
C10 C -0.4251(4) -0.2956(3) 0.0388(3)
H1 H 0.093(3) -0.609(3) -0.232(2)
H2 H 0.078(3) -0.429(3) -0.191(3)
H3 H 0.350(4) -0.585(3) -0.368(2)
H4 H 0.086(4) -0.300(3) -0.511(3)
H5 H 0.230(3) -0.599(3) -0.466(3)
H6 H 0.318(4) -0.385(3) -0.558(3)
H7 H -0.993(5) 0.092(4) 0.238(4)
H8 H -0.823(5) -0.013(4) 0.183(3)
H9 H 0.225(6) -0.154(5) -0.424(4)
Co1_2 Co 0.0000 -1.0000 0.0000
Co1_3 Co -2.0000 1.0000 0.0000
O1A O -1.0838(4) -0.0477(3) -0.1661(2)
C1A C -1.4149(5) 0.0958(3) 0.1894(3)
N1A N -1.2593(4) 0.0427(3) 0.1311(2)
C2A C -1.6613(3) 0.0833(3) 0.3770(4)
C3A C -1.7381(4) 0.3260(3) 0.2124(3)
C4A C -1.6070(4) 0.1704(3) 0.2580(3)
N2A N -1.7061(3) 0.0123(3) 0.4728(3)
O2A O -1.8984(2) 0.4078(2) 0.30993(16)
C5A C -2.0789(4) 0.5013(4) 0.2685(3)
C6A C -2.2290(4) 0.5250(4) 0.3980(3)
O3A O -2.2020(3) 0.2394(3) 0.3748(2)
C7A C -2.2079(5) 0.3574(4) 0.4720(3)
C8A C -1.7088(3) 0.3988(3) 0.0796(3)
C9A C -1.8030(3) 0.5813(4) 0.0579(2)
N3_2 N -1.1238(3) 0.2697(3) -0.0381(2)
N3A N -0.8762(3) -0.2697(3) 0.0381(2)
N3A_2 N -1.8762(3) 0.7303(3) 0.0381(2)
N4A N -1.4703(3) 0.2152(3) -0.1375(2)
C10A C -1.5749(4) 0.2956(3) -0.0388(3)
H1A H -2.093(3) 0.609(3) 0.232(2)
H2A H -2.078(3) 0.429(3) 0.191(3)
H3A H -2.350(4) 0.585(3) 0.368(2)
H4A H -2.086(4) 0.300(3) 0.511(3)
H5A H -2.230(3) 0.599(3) 0.466(3)
H6A H -2.318(4) 0.385(3) 0.558(3)
H7A H -1.007(5) -0.092(4) -0.238(4)
H8A H -1.177(5) 0.013(4) -0.183(3)
H9A H -2.225(6) 0.154(5) 0.424(4)
loop_
_geom_bond_atom_site_label_1
_geom_bond_atom_site_label_2
_geom_bond_site_symmetry_1
_geom_bond_site_symmetry_2
Co1 O1 1_555 1_555
O1 H7 1_555 1_555
C1 N1 1_555 1_555
N1 Co1 1_555 1_555
C2 C4 1_555 1_555
C3 C4 1_555 1_555
C4 C1 1_555 1_555
N2 C2 1_555 1_555
O2 C3 1_555 1_555
C5 O2 1_555 1_555
C6 C5 1_555 1_555
O3 C7 1_555 1_555
C7 C6 1_555 1_555
C8 C3 1_555 1_555
C9 C8 1_555 1_555
N3 C9 1_555 1_555
N4 C10 1_555 1_555
C10 C8 1_555 1_555
H1 C5 1_555 1_555
H2 C5 1_555 1_555
H3 C6 1_555 1_555
H4 C7 1_555 1_555
H5 C6 1_555 1_555
H6 C7 1_555 1_555
H8 O1 1_555 1_555
H9 O3 1_555 1_555
Co1_2 N3 1_555 1_555
Co1_3 N3A_2 1_555 1_555
O1A Co1 1_555 1_555
C1A N1A 1_555 1_555
N1A Co1 1_555 1_555
C2A C4A 1_555 1_555
C3A C4A 1_555 1_555
C4A C1A 1_555 1_555
N2A C2A 1_555 1_555
O2A C3A 1_555 1_555
C5A O2A 1_555 1_555
C6A C5A 1_555 1_555
O3A C7A 1_555 1_555
C7A C6A 1_555 1_555
C8A C3A 1_555 1_555
C9A C8A 1_555 1_555
N3_2 Co1 1_555 1_555
N3A Co1 1_555 1_555
N3A_2 C9A 1_555 1_555
N4A C10A 1_555 1_555
C10A C8A 1_555 1_555
H1A C5A 1_555 1_555
H2A C5A 1_555 1_555
H3A C6A 1_555 1_555
H4A C7A 1_555 1_555
H5A C6A 1_555 1_555
H6A C7A 1_555 1_555
H7A O1A 1_555 1_555
H8A O1A 1_555 1_555
H9A O3A 1_555 1_555

#END
