
#######################################################################
#
#                 Cambridge Crystallographic Data Centre
#                                CCDC 
#
#######################################################################
#
# If this CIF has been generated from an entry in the Cambridge 
# Structural Database, then it will include bibliographic, chemical, 
# crystal, experimental, refinement or atomic coordinate data resulting 
# from the CCDC's data processing and validation procedures.
#
#######################################################################

data_POJTOY
_symmetry_cell_setting           monoclinic
_symmetry_space_group_name_H-M   'C 2/c'
_symmetry_Int_Tables_number      15
_space_group_name_Hall           '-C 2yn'
loop_
_symmetry_equiv_pos_site_id
_symmetry_equiv_pos_as_xyz
1 x,y,z
2 -x,y,1/2-z
3 1/2+x,1/2+y,z
4 1/2-x,1/2+y,1/2-z
5 -x,-y,-z
6 x,-y,1/2+z
7 1/2-x,1/2-y,-z
8 1/2+x,1/2-y,1/2+z
_cell_length_a                   21.2693
_cell_length_b                   6.7589
_cell_length_c                   6.8838
_cell_angle_alpha                90
_cell_angle_beta                 114.625
_cell_angle_gamma                90
_cell_volume                     899.596
loop_
_atom_site_label
_atom_site_type_symbol
_atom_site_fract_x
_atom_site_fract_y
_atom_site_fract_z
Fe1 Fe 0.0000 0.0000 0.0000
O1 O 0.0000 -0.1338 -0.2500
O2 O 0.0636 -0.2073 0.1954
O3 O 0.0853 -0.1490 0.5250
C1 C 0.1809 -0.2217 0.4450
C2 C 0.2033 -0.2744 0.2922
C3 C 0.2276 -0.1973 0.6528
C4 C 0.1058 -0.1910 0.3852
H1 H 0.1698 -0.2919 0.1435
H2 H 0.2116 -0.1595 0.7621
Fe1A Fe 0.0000 0.0000 -0.5000
Fe1A_2 Fe 0.0000 0.0000 0.5000
Fe1B Fe 0.5000 -0.5000 1.0000
Fe1C Fe 0.5000 -0.5000 0.5000
O1D O 0.0000 0.1338 0.2500
O2F O 0.4364 -0.2927 0.8046
O2D O -0.0636 0.2073 -0.1954
O3F O 0.4147 -0.3510 0.4750
O3A O -0.0853 -0.1490 -0.0250
O3E O 0.0853 0.1490 0.0250
C1F C 0.3191 -0.2783 0.5550
C2F C 0.2967 -0.2256 0.7078
C3F C 0.2724 -0.3027 0.3472
C4F C 0.3942 -0.3090 0.6148
H1F H 0.3302 -0.2081 0.8565
H2F H 0.2884 -0.3405 0.2379
loop_
_geom_bond_atom_site_label_1
_geom_bond_atom_site_label_2
_geom_bond_site_symmetry_1
_geom_bond_site_symmetry_2
Fe1 O1 1_555 1_555
O1 Fe1A 1_555 1_555
O2 Fe1 1_555 1_555
O3 C4 1_555 1_555
C1 C2 1_555 1_555
C2 H1 1_555 1_555
C3 C1 1_555 1_555
C4 O2 1_555 1_555
H2 C3 1_555 1_555
Fe1A_2 O3 1_555 1_555
Fe1B O2F 1_555 1_555
Fe1C O3F 1_555 1_555
O1D Fe1 1_555 1_555
O2F C4F 1_555 1_555
O2D Fe1 1_555 1_555
O3F C4F 1_555 1_555
O3A Fe1 1_555 1_555
O3E Fe1 1_555 1_555
C1F C2F 1_555 1_555
C2F C3 1_555 1_555
C3F C2 1_555 1_555
C4F C1F 1_555 1_555
H1F C2F 1_555 1_555
H2F C3F 1_555 1_555
C1 C4 1_555 1_555
Fe1A_2 O1D 1_555 1_555
C1F C3F 1_555 1_555

#END
