
#######################################################################
#
#                 Cambridge Crystallographic Data Centre
#                                CCDC 
#
#######################################################################
#
# If this CIF has been generated from an entry in the Cambridge 
# Structural Database, then it will include bibliographic, chemical, 
# crystal, experimental, refinement or atomic coordinate data resulting 
# from the CCDC's data processing and validation procedures.
#
#######################################################################

data_POJTIS01
_symmetry_cell_setting           triclinic
_symmetry_space_group_name_H-M   'P -1'
_symmetry_Int_Tables_number      2
_space_group_name_Hall           '-P 1'
loop_
_symmetry_equiv_pos_site_id
_symmetry_equiv_pos_as_xyz
1 x,y,z
2 -x,-y,-z
_cell_length_a                   8.241(5)
_cell_length_b                   8.600(5)
_cell_length_c                   9.702(5)
_cell_angle_alpha                84.701(5)
_cell_angle_beta                 76.369(5)
_cell_angle_gamma                62.156(5)
_cell_volume                     590.746
loop_
_atom_site_label
_atom_site_type_symbol
_atom_site_fract_x
_atom_site_fract_y
_atom_site_fract_z
Co1 Co 0.0000 0.0000 0.0000
O1 O 0.08385(19) 0.05035(17) 0.16626(14)
C1 C 0.4147(2) -0.09481(19) -0.19008(16)
N1 N 0.26009(19) -0.04158(17) -0.13244(15)
C2 C 0.6624(2) -0.0831(2) -0.37897(17)
C3 C 0.7390(2) -0.32620(19) -0.21313(16)
C4 C 0.6070(2) -0.16922(19) -0.25928(16)
N2 N 0.7079(2) -0.0129(2) -0.47444(16)
O2 O 0.89915(14) -0.40865(14) -0.31080(11)
C5 C 1.0794(2) -0.5033(2) -0.26750(18)
C6 C 1.2310(2) -0.5271(2) -0.39811(19)
O3 O 1.2050(2) -0.24187(18) -0.37424(14)
C7 C 1.2105(3) -0.3595(3) -0.47271(19)
C8 C 0.7083(2) -0.39878(19) -0.07929(16)
C9 C 0.8015(2) -0.5812(2) -0.05781(16)
N3 N 0.87406(19) -0.72931(17) -0.03844(15)
N4 N 0.4692(2) -0.21384(18) 0.13861(15)
C10 C 0.5739(2) -0.29502(19) 0.03956(17)
H1 H 1.074(3) -0.428(3) -0.192(2)
H2 H 1.096(3) -0.613(3) -0.231(2)
H3 H 1.234(3) -0.603(3) -0.471(2)
H4 H 1.324(3) -0.389(3) -0.558(2)
H5 H 1.352(3) -0.588(3) -0.371(2)
H6 H 1.089(3) -0.304(3) -0.515(2)
H7 H 0.010(4) 0.083(4) 0.242(3)
H8 H 1.231(4) -0.144(4) -0.431(3)
H9 H 0.178(4) -0.019(4) 0.189(3)
Co1_2 Co -1.0000 1.0000 0.0000
Co1_3 Co 1.0000 -1.0000 0.0000
O1A O -0.08385(19) -0.05035(17) -0.16626(14)
C1A C -0.4147(2) 0.09481(19) 0.19008(16)
N1A N -0.26009(19) 0.04158(17) 0.13244(15)
C2A C -0.6624(2) 0.0831(2) 0.37897(17)
C3A C -0.7390(2) 0.32620(19) 0.21313(16)
C4A C -0.6070(2) 0.16922(19) 0.25928(16)
N2A N -0.7079(2) 0.0129(2) 0.47444(16)
O2A O -0.89915(14) 0.40865(14) 0.31080(11)
C5A C -1.0794(2) 0.5033(2) 0.26750(18)
C6A C -1.2310(2) 0.5271(2) 0.39811(19)
O3A O -1.2050(2) 0.24187(18) 0.37424(14)
C7A C -1.2105(3) 0.3595(3) 0.47271(19)
C8A C -0.7083(2) 0.39878(19) 0.07929(16)
C9A C -0.8015(2) 0.5812(2) 0.05781(16)
N3A N -0.87406(19) 0.72931(17) 0.03844(15)
N3_2 N -0.12594(19) 0.27069(17) -0.03844(15)
N3A_2 N 0.12594(19) -0.27069(17) 0.03844(15)
N4A N -0.4692(2) 0.21384(18) -0.13861(15)
C10A C -0.5739(2) 0.29502(19) -0.03956(17)
H1A H -1.074(3) 0.428(3) 0.192(2)
H2A H -1.096(3) 0.613(3) 0.231(2)
H3A H -1.234(3) 0.603(3) 0.471(2)
H4A H -1.324(3) 0.389(3) 0.558(2)
H5A H -1.352(3) 0.588(3) 0.371(2)
H6A H -1.089(3) 0.304(3) 0.515(2)
H7A H -0.010(4) -0.083(4) -0.242(3)
H8A H -1.231(4) 0.144(4) 0.431(3)
H9A H -0.178(4) 0.019(4) -0.189(3)
loop_
_geom_bond_atom_site_label_1
_geom_bond_atom_site_label_2
_geom_bond_site_symmetry_1
_geom_bond_site_symmetry_2
Co1 O1 1_555 1_555
O1 H7 1_555 1_555
C1 N1 1_555 1_555
N1 Co1 1_555 1_555
C2 C4 1_555 1_555
C3 C4 1_555 1_555
C4 C1 1_555 1_555
N2 C2 1_555 1_555
O2 C3 1_555 1_555
C5 O2 1_555 1_555
C6 C5 1_555 1_555
O3 C7 1_555 1_555
C7 C6 1_555 1_555
C8 C3 1_555 1_555
C9 C8 1_555 1_555
N3 C9 1_555 1_555
N4 C10 1_555 1_555
C10 C8 1_555 1_555
H1 C5 1_555 1_555
H2 C5 1_555 1_555
H3 C6 1_555 1_555
H4 C7 1_555 1_555
H5 C6 1_555 1_555
H6 C7 1_555 1_555
H8 O3 1_555 1_555
H9 O1 1_555 1_555
Co1_2 N3A 1_555 1_555
Co1_3 N3 1_555 1_555
O1A Co1 1_555 1_555
C1A N1A 1_555 1_555
N1A Co1 1_555 1_555
C2A C4A 1_555 1_555
C3A C4A 1_555 1_555
C4A C1A 1_555 1_555
N2A C2A 1_555 1_555
O2A C3A 1_555 1_555
C5A O2A 1_555 1_555
C6A C5A 1_555 1_555
O3A C7A 1_555 1_555
C7A C6A 1_555 1_555
C8A C3A 1_555 1_555
C9A C8A 1_555 1_555
N3A C9A 1_555 1_555
N3_2 Co1 1_555 1_555
N3A_2 Co1 1_555 1_555
N4A C10A 1_555 1_555
C10A C8A 1_555 1_555
H1A C5A 1_555 1_555
H2A C5A 1_555 1_555
H3A C6A 1_555 1_555
H4A C7A 1_555 1_555
H5A C6A 1_555 1_555
H6A C7A 1_555 1_555
H7A O1A 1_555 1_555
H8A O3A 1_555 1_555
H9A O1A 1_555 1_555

#END
