
#######################################################################
#
#                 Cambridge Crystallographic Data Centre
#                                CCDC 
#
#######################################################################
#
# If this CIF has been generated from an entry in the Cambridge 
# Structural Database, then it will include bibliographic, chemical, 
# crystal, experimental, refinement or atomic coordinate data resulting 
# from the CCDC's data processing and validation procedures.
#
#######################################################################

data_POJVUG
_symmetry_cell_setting           monoclinic
_symmetry_space_group_name_H-M   'P 21/n'
_symmetry_Int_Tables_number      14
_space_group_name_Hall           '-P 2yn'
loop_
_symmetry_equiv_pos_site_id
_symmetry_equiv_pos_as_xyz
1 x,y,z
2 1/2-x,1/2+y,1/2-z
3 -x,-y,-z
4 1/2+x,1/2-y,1/2+z
_cell_length_a                   9.2810(3)
_cell_length_b                   17.0351(10)
_cell_length_c                   9.5013(5)
_cell_angle_alpha                90.0
_cell_angle_beta                 106.346(3)
_cell_angle_gamma                90.0
_cell_volume                     1441.46
loop_
_atom_site_label
_atom_site_type_symbol
_atom_site_fract_x
_atom_site_fract_y
_atom_site_fract_z
C1 C 0.7603(10) 0.2270(6) 0.3198(11)
H1 H 0.7288 0.2009 0.2304
C2 C 0.8627(10) 0.2224(6) 0.5690(11)
H2 H 0.9019 0.1938 0.6545
C3 C 0.8533(12) 0.3021(6) 0.5791(12)
H3 H 0.886 0.3269 0.6698
C4 C 0.7938(13) 0.3463(6) 0.4513(14)
H4 H 0.787 0.4007 0.4552
C5 C 0.7453(11) 0.3065(6) 0.3193(12)
H5 H 0.7035 0.3335 0.2322
Ag1 Ag 0.95225(7) -0.00010(4) 0.73170(8)
Ag2 Ag 0.54678(7) 0.00295(4) 0.26677(7)
Ag3 Ag 0.84688(9) 0.04747(5) 0.42727(10)
Ag4 Ag 0.65148(9) -0.04666(5) 0.56854(10)
N1 N 0.8180(9) 0.1837(5) 0.4416(10)
N2 N 0.6800(9) -0.1835(5) 0.5547(9)
C6 C 0.7095(13) -0.3455(6) 0.5497(13)
H6 H 0.7198 -0.3998 0.5478
C7 C 0.8128(10) -0.2184(6) 0.6071(12)
H7 H 0.8968 -0.187 0.6452
C8 C 0.5713(12) -0.3107(7) 0.4943(12)
H8 H 0.4866 -0.3411 0.4534
C9 C 0.5602(10) -0.2311(6) 0.5002(11)
H9 H 0.4659 -0.2083 0.4651
C10 C 0.8322(11) -0.2983(6) 0.6079(13)
H10 H 0.9268 -0.3202 0.6471
Ag1B Ag 1.04775(7) 0.00010(4) 0.26830(8)
Ag2B Ag 0.45322(7) -0.00295(4) 0.73323(7)
Ag3B Ag 1.15312(9) -0.04747(5) 0.57273(10)
Ag4B Ag 0.34852(9) 0.04666(5) 0.43146(10)
loop_
_geom_bond_atom_site_label_1
_geom_bond_atom_site_label_2
_geom_bond_site_symmetry_1
_geom_bond_site_symmetry_2
C1 H1 1_555 1_555
C2 H2 1_555 1_555
C3 C2 1_555 1_555
H3 C3 1_555 1_555
C4 C3 1_555 1_555
H4 C4 1_555 1_555
C5 C1 1_555 1_555
H5 C5 1_555 1_555
Ag1 Ag3 1_555 1_555
Ag2 Ag3 1_555 1_555
Ag3 Ag4 1_555 1_555
Ag4 Ag1 1_555 1_555
N1 C1 1_555 1_555
N2 Ag4 1_555 1_555
C6 H6 1_555 1_555
C7 N2 1_555 1_555
H7 C7 1_555 1_555
C8 C6 1_555 1_555
H8 C8 1_555 1_555
C9 N2 1_555 1_555
H9 C9 1_555 1_555
C10 C6 1_555 1_555
H10 C10 1_555 1_555
Ag1B Ag3 1_555 1_555
Ag2B Ag4 1_555 1_555
Ag3B Ag1 1_555 1_555
Ag4B Ag2 1_555 1_555
C2 N1 1_555 1_555
C4 C5 1_555 1_555
Ag2 Ag4 1_555 1_555
Ag3 N1 1_555 1_555
Ag3 Ag3B 1_555 1_555
Ag4 Ag4B 1_555 1_555
C7 C10 1_555 1_555
C8 C9 1_555 1_555
Ag1B Ag3B 1_555 1_555
Ag2B Ag4B 1_555 1_555

#END
