
#######################################################################
#
#                 Cambridge Crystallographic Data Centre
#                                CCDC 
#
#######################################################################
#
# If this CIF has been generated from an entry in the Cambridge 
# Structural Database, then it will include bibliographic, chemical, 
# crystal, experimental, refinement or atomic coordinate data resulting 
# from the CCDC's data processing and validation procedures.
#
#######################################################################

data_POJYUJ
_symmetry_cell_setting           monoclinic
_symmetry_space_group_name_H-M   'C 2/c'
_symmetry_Int_Tables_number      15
_space_group_name_Hall           '-C 2yn'
loop_
_symmetry_equiv_pos_site_id
_symmetry_equiv_pos_as_xyz
1 x,y,z
2 1/2+x,1/2+y,z
3 -x,y,1/2-z
4 1/2-x,1/2+y,1/2-z
5 -x,-y,-z
6 1/2-x,1/2-y,-z
7 x,-y,1/2+z
8 1/2+x,1/2-y,1/2+z
_cell_length_a                   20.222(8)
_cell_length_b                   8.652(3)
_cell_length_c                   16.482(6)
_cell_angle_alpha                90
_cell_angle_beta                 92.282(6)
_cell_angle_gamma                90
_cell_volume                     2881.42
loop_
_atom_site_label
_atom_site_type_symbol
_atom_site_fract_x
_atom_site_fract_y
_atom_site_fract_z
Ag1 Ag 0.04112(2) 0.12621(7) 0.07370(3)
O1 O -0.2450(2) 0.0261(7) 0.2981(4)
N1 N -0.0392(3) 0.1359(6) 0.1526(3)
N2 N -0.3805(3) 0.3501(6) 0.4938(3)
N3 N -0.2243(3) 0.2707(7) 0.3390(3)
C1 C -0.0648(3) 0.0135(7) 0.1864(3)
C2 C -0.1192(3) 0.0149(7) 0.2331(4)
C3 C -0.1493(3) 0.1530(8) 0.2483(4)
C4 C -0.1229(4) 0.2858(9) 0.2158(5)
C5 C -0.0675(3) 0.2736(8) 0.1674(4)
C6 C -0.3790(3) 0.2175(7) 0.4523(4)
C7 C -0.3289(4) 0.1811(9) 0.4011(4)
C8 C -0.2783(3) 0.2906(8) 0.3891(4)
C9 C -0.2802(3) 0.4244(8) 0.4321(4)
C10 C -0.3313(3) 0.4515(7) 0.4823(4)
C11 C -0.2113(3) 0.1435(7) 0.2955(4)
H1 H -0.0440 -0.0832 0.1777
H2 H -0.1357 -0.0785 0.2548
H3 H -0.1419 0.3838 0.2260
H4 H -0.0495 0.3645 0.1446
H5 H -0.4139 0.1453 0.4583
H6 H -0.3285 0.0839 0.3744
H7 H -0.2461 0.4989 0.4274
H8 H -0.3320 0.5472 0.5105
H9 H -0.1943 0.3547 0.3355
Ag1G Ag -0.45888(2) 0.37379(7) 0.57370(3)
N2G N 0.1195(3) 0.1499(6) -0.0062(3)
P1 P -0.08813(10) 0.3534(2) -0.1091(1)
F1 F -0.1069(5) 0.5306(7) -0.1165(4)
F2 F -0.0705(7) 0.1813(8) -0.1026(6)
F3 F -0.1505(5) 0.310(2) -0.145(1)
F4 F -0.0317(5) 0.406(2) -0.062(1)
F5 F -0.1247(7) 0.3569(9) -0.0278(6)
F6 F -0.064(1) 0.3465(10) -0.1909(7)
loop_
_geom_bond_atom_site_label_1
_geom_bond_atom_site_label_2
_geom_bond_site_symmetry_1
_geom_bond_site_symmetry_2
Ag1 N1 1_555 1_555
P1 F1 1_555 1_555
F2 P1 1_555 1_555
F3 P1 1_555 1_555
F4 P1 1_555 1_555
F5 P1 1_555 1_555
F6 P1 1_555 1_555
O1 C11 1_555 1_555
N1 C1 1_555 1_555
N2 C6 1_555 1_555
N3 C8 1_555 1_555
C1 C2 1_555 1_555
C2 C3 1_555 1_555
C3 C4 1_555 1_555
C4 C5 1_555 1_555
C5 N1 1_555 1_555
C6 C7 1_555 1_555
C7 C8 1_555 1_555
C8 C9 1_555 1_555
C9 C10 1_555 1_555
C10 N2 1_555 1_555
C11 N3 1_555 1_555
H1 C1 1_555 1_555
H2 C2 1_555 1_555
H3 C4 1_555 1_555
H4 C5 1_555 1_555
H5 C6 1_555 1_555
H6 C7 1_555 1_555
H7 C9 1_555 1_555
H8 C10 1_555 1_555
H9 N3 1_555 1_555
Ag1G N2 1_555 1_555
N2G Ag1 1_555 1_555
C3 C11 1_555 1_555

#END
