
#######################################################################
#
#                 Cambridge Crystallographic Data Centre
#                                CCDC 
#
#######################################################################
#
# If this CIF has been generated from an entry in the Cambridge 
# Structural Database, then it will include bibliographic, chemical, 
# crystal, experimental, refinement or atomic coordinate data resulting 
# from the CCDC's data processing and validation procedures.
#
#######################################################################

data_POJZIY
_symmetry_cell_setting           monoclinic
_symmetry_space_group_name_H-M   'C 2/c'
_symmetry_Int_Tables_number      15
_space_group_name_Hall           '-C 2yn'
loop_
_symmetry_equiv_pos_site_id
_symmetry_equiv_pos_as_xyz
1 x,y,z
2 1/2+x,1/2+y,z
3 -x,y,1/2-z
4 1/2-x,1/2+y,1/2-z
5 -x,-y,-z
6 1/2-x,1/2-y,-z
7 x,-y,1/2+z
8 1/2+x,1/2-y,1/2+z
_cell_length_a                   19.67(1)
_cell_length_b                   6.728(4)
_cell_length_c                   18.67(1)
_cell_angle_alpha                90
_cell_angle_beta                 91.663(9)
_cell_angle_gamma                90
_cell_volume                     2469.74
loop_
_atom_site_label
_atom_site_type_symbol
_atom_site_fract_x
_atom_site_fract_y
_atom_site_fract_z
Ag1 Ag 1.04788(1) 0.41183(5) 0.43685(2)
O1 O 0.7592(1) 0.5602(5) 0.2073(2)
N1 N 0.9699(2) 0.4137(5) 0.3524(2)
N2 N 0.6270(2) 0.1531(6) 0.0157(2)
N3 N 0.7929(2) 0.2738(6) 0.1556(2)
C1 C 0.9440(2) 0.5799(6) 0.3241(2)
C2 C 0.8919(2) 0.5833(6) 0.2738(2)
C3 C 0.8632(2) 0.4093(6) 0.2511(2)
C4 C 0.8893(2) 0.2351(7) 0.2788(2)
C5 C 0.9429(2) 0.2425(6) 0.3295(2)
C6 C 0.6341(2) 0.3357(7) 0.0438(2)
C7 C 0.6874(2) 0.3875(6) 0.0898(2)
C8 C 0.7354(2) 0.2437(7) 0.1095(2)
C9 C 0.7278(2) 0.0554(7) 0.0814(2)
C10 C 0.6744(2) 0.0182(7) 0.0357(2)
C11 C 0.7997(2) 0.4230(7) 0.2026(2)
H1 H 0.9631 0.7012 0.3397
H2 H 0.8764 0.7073 0.2544
H3 H 0.8713 0.1117 0.2627
H4 H 0.9602 0.1225 0.3490
H5 H 0.6017 0.4352 0.0314
H6 H 0.6911 0.5192 0.1080
H7 H 0.7597 -0.0461 0.0943
H8 H 0.6700 -0.1129 0.0170
H9 H 0.8295 0.1843 0.1522
Ag1G Ag 0.54788(1) 0.08817(5) -0.06315(2)
N2G N 1.1270(2) 0.3469(6) 0.5157(2)
O2 O 1.0901(2) 1.0263(6) 0.3681(3)
O3 O 1.1302(2) 0.7461(6) 0.3970(2)
O4 O 1.0370(2) 0.8365(8) 0.4387(2)
N4 N 1.0851(2) 0.8694(5) 0.4017(2)
loop_
_geom_bond_atom_site_label_1
_geom_bond_atom_site_label_2
_geom_bond_site_symmetry_1
_geom_bond_site_symmetry_2
Ag1 N1 1_555 1_555
O1 C11 1_555 1_555
O2 N4 1_555 1_555
O3 N4 1_555 1_555
O4 N4 1_555 1_555
N1 C1 1_555 1_555
N2 C6 1_555 1_555
N3 C8 1_555 1_555
C1 C2 1_555 1_555
C2 C3 1_555 1_555
C3 C4 1_555 1_555
C4 C5 1_555 1_555
C5 N1 1_555 1_555
C6 C7 1_555 1_555
C7 C8 1_555 1_555
C8 C9 1_555 1_555
C9 C10 1_555 1_555
C10 N2 1_555 1_555
C11 N3 1_555 1_555
H1 C1 1_555 1_555
H2 C2 1_555 1_555
H3 C4 1_555 1_555
H4 C5 1_555 1_555
H5 C6 1_555 1_555
H6 C7 1_555 1_555
H7 C9 1_555 1_555
H8 C10 1_555 1_555
H9 N3 1_555 1_555
Ag1G N2 1_555 1_555
N2G Ag1 1_555 1_555
C3 C11 1_555 1_555

#END
