
#######################################################################
#
#                 Cambridge Crystallographic Data Centre
#                                CCDC 
#
#######################################################################
#
# If this CIF has been generated from an entry in the Cambridge 
# Structural Database, then it will include bibliographic, chemical, 
# crystal, experimental, refinement or atomic coordinate data resulting 
# from the CCDC's data processing and validation procedures.
#
#######################################################################

data_POJZOE
_symmetry_cell_setting           monoclinic
_symmetry_space_group_name_H-M   'P 21/n'
_symmetry_Int_Tables_number      14
_space_group_name_Hall           '-P 2yn'
loop_
_symmetry_equiv_pos_site_id
_symmetry_equiv_pos_as_xyz
1 x,y,z
2 1/2-x,1/2+y,1/2-z
3 -x,-y,-z
4 1/2+x,1/2-y,1/2+z
_cell_length_a                   9.704(4)
_cell_length_b                   25.40(1)
_cell_length_c                   12.458(5)
_cell_angle_alpha                90
_cell_angle_beta                 94.893(6)
_cell_angle_gamma                90
_cell_volume                     3059.48
loop_
_atom_site_label
_atom_site_type_symbol
_atom_site_fract_x
_atom_site_fract_y
_atom_site_fract_z
Ag1 Ag 0.10631(7) -0.88829(2) -0.36215(5)
O1 O 0.4417(5) -1.0681(2) 0.0041(4)
N1 N 0.2043(5) -0.9566(2) -0.2856(4)
N2 N 0.4667(6) -1.3089(2) -0.1116(4)
N3 N 0.5016(5) -1.1099(2) -0.1446(4)
C1 C 0.1655(7) -0.9731(3) -0.1902(5)
C2 C 0.2364(7) -1.0115(2) -0.1291(5)
C3 C 0.3518(6) -1.0341(2) -0.1654(5)
C4 C 0.3869(6) -1.0194(3) -0.2668(5)
C5 C 0.3119(7) -0.9808(3) -0.3226(5)
C6 C 0.3772(7) -1.2695(3) -0.0952(5)
C7 C 0.4147(6) -1.2178(3) -0.0886(5)
C8 C 0.5500(6) -1.2032(2) -0.0981(4)
C9 C 0.6433(7) -1.2434(3) -0.1119(5)
C10 C 0.5987(8) -1.2943(3) -0.1196(6)
C11 C 0.4355(6) -1.0729(2) -0.0937(5)
C12 C 0.5971(7) -1.1470(3) -0.0886(6)
H1 H 0.0858 -0.9577 -0.1637
H2 H 0.2051 -1.0221 -0.0622
H3 H 0.4622 -1.0359 -0.2975
H4 H 0.3386 -0.9709 -0.3913
H5 H 0.2833 -1.2783 -0.0879
H6 H 0.3473 -1.1917 -0.0774
H7 H 0.7384 -1.2356 -0.1162
H8 H 0.6646 -1.3209 -0.1311
H9 H 0.4860 -1.1122 -0.2208
H10 H 0.6839 -1.1442 -0.1180
H11 H 0.6073 -1.1378 -0.0145
Ag1A Ag 0.39369(7) -1.38829(2) -0.13785(5)
N2A N 0.0333(6) -0.8089(2) -0.3884(4)
Ag2 Ag 0.10175(7) -0.60989(2) 0.30363(5)
O2 O 0.5036(5) -0.4224(2) 0.0478(4)
N4 N 0.2076(6) -0.5423(2) 0.2467(5)
N5 N 0.4804(6) -0.1874(2) 0.1844(4)
N6 N 0.5343(6) -0.3867(2) 0.2130(4)
C13 C 0.2582(8) -0.5429(3) 0.1504(5)
C14 C 0.3431(7) -0.5041(3) 0.1165(5)
C15 C 0.3813(6) -0.4624(2) 0.1820(5)
C16 C 0.3277(7) -0.4611(3) 0.2818(5)
C17 C 0.2418(7) -0.5007(3) 0.3114(5)
C18 C 0.6121(7) -0.1990(3) 0.1821(5)
C19 C 0.6650(6) -0.2497(3) 0.1813(5)
C20 C 0.5745(6) -0.2914(2) 0.1849(4)
C21 C 0.4344(7) -0.2799(3) 0.1854(5)
C22 C 0.3923(7) -0.2288(3) 0.1848(5)
C23 C 0.4769(7) -0.4219(2) 0.1429(5)
C24 C 0.6293(7) -0.3471(3) 0.1833(6)
H12 H 0.2344 -0.5715 0.1031
H13 H 0.3757 -0.5062 0.0468
H14 H 0.3503 -0.4327 0.3298
H15 H 0.2053 -0.4988 0.3796
H16 H 0.6756 -0.1705 0.1808
H17 H 0.7612 -0.2555 0.1782
H18 H 0.3685 -0.3075 0.1863
H19 H 0.2961 -0.2218 0.1847
H20 H 0.5112 -0.3879 0.2855
H21 H 0.7099 -0.3491 0.2321
H22 H 0.6529 -0.3546 0.1125
Ag2A Ag 0.39825(7) -0.10989(2) 0.19637(5)
N5A N 0.0196(6) -0.6874(2) 0.3156(4)
P1 P -0.0219(2) -0.85557(7) -0.0357(1)
F1 F -0.070(2) -0.8036(3) -0.0732(9)
F2 F 0.005(1) -0.9123(3) -0.0002(6)
F3 F -0.0797(6) -0.8798(2) -0.1481(4)
F4 F 0.1134(7) -0.8523(4) -0.0826(5)
F5 F 0.0402(7) -0.8352(3) 0.0741(4)
F6 F -0.1630(8) -0.8593(5) 0.008(1)
P2 P -0.0403(2) -0.64116(8) -0.0342(2)
F7 F -0.016(1) -0.5793(3) -0.0306(7)
F8 F -0.095(1) -0.6956(4) -0.0384(8)
F9 F 0.081(1) -0.6566(5) 0.0381(8)
F10 F 0.046(1) -0.6494(5) -0.1246(7)
F11 F -0.156(1) -0.6255(5) -0.112(1)
F12 F -0.109(1) -0.6317(4) 0.0683(8)
loop_
_geom_bond_atom_site_label_1
_geom_bond_atom_site_label_2
_geom_bond_site_symmetry_1
_geom_bond_site_symmetry_2
Ag1 N1 1_555 1_555
Ag2 N4 1_555 1_555
P1 F1 1_555 1_555
P2 F7 1_555 1_555
F2 P1 1_555 1_555
F3 P1 1_555 1_555
F4 P1 1_555 1_555
F5 P1 1_555 1_555
F6 P1 1_555 1_555
F8 P2 1_555 1_555
F9 P2 1_555 1_555
F10 P2 1_555 1_555
F11 P2 1_555 1_555
F12 P2 1_555 1_555
O1 C11 1_555 1_555
O2 C23 1_555 1_555
N1 C1 1_555 1_555
N2 C6 1_555 1_555
N3 C11 1_555 1_555
N4 C13 1_555 1_555
N5 C18 1_555 1_555
N6 C23 1_555 1_555
C1 C2 1_555 1_555
C2 C3 1_555 1_555
C3 C4 1_555 1_555
C4 C5 1_555 1_555
C5 N1 1_555 1_555
C6 C7 1_555 1_555
C7 C8 1_555 1_555
C8 C9 1_555 1_555
C9 C10 1_555 1_555
C10 N2 1_555 1_555
C11 C3 1_555 1_555
C12 N3 1_555 1_555
C13 C14 1_555 1_555
C14 C15 1_555 1_555
C15 C16 1_555 1_555
C16 C17 1_555 1_555
C17 N4 1_555 1_555
C18 C19 1_555 1_555
C19 C20 1_555 1_555
C20 C21 1_555 1_555
C21 C22 1_555 1_555
C22 N5 1_555 1_555
C23 C15 1_555 1_555
C24 N6 1_555 1_555
H1 C1 1_555 1_555
H2 C2 1_555 1_555
H3 C4 1_555 1_555
H4 C5 1_555 1_555
H5 C6 1_555 1_555
H6 C7 1_555 1_555
H7 C9 1_555 1_555
H8 C10 1_555 1_555
H9 N3 1_555 1_555
H10 C12 1_555 1_555
H11 C12 1_555 1_555
H12 C13 1_555 1_555
H13 C14 1_555 1_555
H14 C16 1_555 1_555
H15 C17 1_555 1_555
H16 C18 1_555 1_555
H17 C19 1_555 1_555
H18 C21 1_555 1_555
H19 C22 1_555 1_555
H20 N6 1_555 1_555
H21 C24 1_555 1_555
H22 C24 1_555 1_555
Ag1A N2 1_555 1_555
Ag2A N5 1_555 1_555
N2A Ag1 1_555 1_555
N5A Ag2 1_555 1_555
C8 C12 1_555 1_555
C20 C24 1_555 1_555

#END
