
#######################################################################
#
#                 Cambridge Crystallographic Data Centre
#                                CCDC 
#
#######################################################################
#
# If this CIF has been generated from an entry in the Cambridge 
# Structural Database, then it will include bibliographic, chemical, 
# crystal, experimental, refinement or atomic coordinate data resulting 
# from the CCDC's data processing and validation procedures.
#
#######################################################################

data_POJZUK
_symmetry_cell_setting           orthorhombic
_symmetry_space_group_name_H-M   'P b c a'
_symmetry_Int_Tables_number      61
_space_group_name_Hall           '-P 2ac 2ab'
loop_
_symmetry_equiv_pos_site_id
_symmetry_equiv_pos_as_xyz
1 x,y,z
2 1/2+x,1/2-y,-z
3 -x,1/2+y,1/2-z
4 1/2-x,-y,1/2+z
5 -x,-y,-z
6 1/2-x,1/2+y,z
7 x,1/2-y,1/2+z
8 1/2+x,y,1/2-z
_cell_length_a                   13.4092(9)
_cell_length_b                   9.3825(7)
_cell_length_c                   25.048(1)
_cell_angle_alpha                90
_cell_angle_beta                 90
_cell_angle_gamma                90
_cell_volume                     3151.33
loop_
_atom_site_label
_atom_site_type_symbol
_atom_site_fract_x
_atom_site_fract_y
_atom_site_fract_z
Ag1 Ag -0.83806(4) 0.09879(7) -0.00135(2)
O1 O -0.8165(4) -0.3238(6) -0.2360(2)
N1 N -0.8019(4) -0.0051(6) -0.0761(2)
N2 N -0.6369(4) -0.1909(6) -0.4233(2)
N3 N -0.6514(4) -0.3025(6) -0.2237(2)
C1 C -0.8766(5) -0.0631(10) -0.1063(3)
C2 C -0.8574(5) -0.1483(9) -0.1486(3)
C3 C -0.7610(4) -0.1787(6) -0.1635(2)
C4 C -0.6877(5) -0.1155(9) -0.1343(3)
C5 C -0.7102(5) -0.0315(8) -0.0912(3)
C6 C -0.6528(5) -0.1156(7) -0.3800(3)
C7 C -0.6500(5) -0.1752(7) -0.3289(3)
C8 C -0.6297(4) -0.3152(6) -0.3224(2)
C9 C -0.6097(7) -0.3922(7) -0.3692(3)
C10 C -0.6167(6) -0.3282(7) -0.4173(3)
C11 C -0.7447(5) -0.2733(6) -0.2113(2)
C12 C -0.6274(6) -0.3913(7) -0.2693(2)
H1 H -0.9439 -0.0429 -0.0973
H2 H -0.9112 -0.1879 -0.1683
H3 H -0.6200 -0.1297 -0.1440
H4 H -0.6570 0.0096 -0.0714
H5 H -0.6669 -0.0168 -0.3835
H6 H -0.6624 -0.1170 -0.2986
H7 H -0.5912 -0.4898 -0.3670
H8 H -0.6066 -0.3844 -0.4484
H9 H -0.5990 -0.2647 -0.2025
H10 H -0.5623 -0.4288 -0.2643
H11 H -0.6741 -0.4673 -0.2706
Ag1C Ag -0.66194(4) -0.09879(7) -0.50135(2)
N2C N -0.8631(4) 0.1909(6) 0.0767(2)
Cl1 Cl -0.4254(1) -0.2381(1) -0.04022(6)
O2 O -0.5100(5) -0.1557(9) -0.0509(3)
O3 O -0.3666(8) -0.178(1) 0.0000(3)
O4 O -0.4614(5) -0.3722(7) -0.0255(4)
O5 O -0.3654(4) -0.2534(8) -0.0872(3)
O6 O -0.4543(4) -0.2440(6) -0.1883(2)
loop_
_geom_bond_atom_site_label_1
_geom_bond_atom_site_label_2
_geom_bond_site_symmetry_1
_geom_bond_site_symmetry_2
Ag1 N1 1_555 1_555
Cl1 O2 1_555 1_555
O1 C11 1_555 1_555
O3 Cl1 1_555 1_555
O4 Cl1 1_555 1_555
O5 Cl1 1_555 1_555
N1 C1 1_555 1_555
N2 C6 1_555 1_555
N3 C11 1_555 1_555
C1 C2 1_555 1_555
C2 C3 1_555 1_555
C3 C4 1_555 1_555
C4 C5 1_555 1_555
C5 N1 1_555 1_555
C6 C7 1_555 1_555
C7 C8 1_555 1_555
C8 C9 1_555 1_555
C9 C10 1_555 1_555
C10 N2 1_555 1_555
C11 C3 1_555 1_555
C12 N3 1_555 1_555
H1 C1 1_555 1_555
H2 C2 1_555 1_555
H3 C4 1_555 1_555
H4 C5 1_555 1_555
H5 C6 1_555 1_555
H6 C7 1_555 1_555
H7 C9 1_555 1_555
H8 C10 1_555 1_555
H9 N3 1_555 1_555
H10 C12 1_555 1_555
H11 C12 1_555 1_555
Ag1C N2 1_555 1_555
N2C Ag1 1_555 1_555
C8 C12 1_555 1_555

#END
