
#######################################################################
#
#                 Cambridge Crystallographic Data Centre
#                                CCDC 
#
#######################################################################
#
# If this CIF has been generated from an entry in the Cambridge 
# Structural Database, then it will include bibliographic, chemical, 
# crystal, experimental, refinement or atomic coordinate data resulting 
# from the CCDC's data processing and validation procedures.
#
#######################################################################

data_POKBAT
_symmetry_cell_setting           monoclinic
_symmetry_space_group_name_H-M   'P 21/c'
_symmetry_Int_Tables_number      14
_space_group_name_Hall           '-P 2ybc'
loop_
_symmetry_equiv_pos_site_id
_symmetry_equiv_pos_as_xyz
1 x,y,z
2 -x,1/2+y,1/2-z
3 -x,-y,-z
4 x,1/2-y,1/2+z
_cell_length_a                   8.501(1)
_cell_length_b                   19.951(3)
_cell_length_c                   9.6221(2)
_cell_angle_alpha                90
_cell_angle_beta                 108.4339(4)
_cell_angle_gamma                90
_cell_volume                     1548.2
loop_
_atom_site_label
_atom_site_type_symbol
_atom_site_fract_x
_atom_site_fract_y
_atom_site_fract_z
Ag1 Ag 0.34622(4) 0.02061(2) 0.08393(4)
O1 O 0.9166(4) 0.2198(2) 0.6204(3)
N1 N 0.5246(4) 0.0898(2) 0.2171(4)
N2 N 0.8479(4) 0.4585(2) 0.5513(4)
N3 N 0.9661(4) 0.2644(2) 0.4236(3)
C1 C 0.5993(7) 0.0774(3) 0.3565(5)
C2 C 0.7188(7) 0.1197(3) 0.4479(4)
C3 C 0.7581(5) 0.1770(2) 0.3889(4)
C4 C 0.6770(5) 0.1910(2) 0.2418(4)
C5 C 0.5626(5) 0.1457(2) 0.1611(4)
C6 C 0.9214(6) 0.4747(2) 0.6925(5)
C7 C 1.0479(6) 0.4377(3) 0.7806(4)
C8 C 1.1061(5) 0.3832(2) 0.7257(4)
C9 C 1.0335(4) 0.3659(2) 0.5794(4)
C10 C 0.9046(4) 0.4056(2) 0.4973(4)
C11 C 0.8875(4) 0.2224(2) 0.4869(4)
C12 C 1.0962(4) 0.3079(2) 0.5106(4)
H1 H 0.5707 0.0377 0.3973
H2 H 0.7711 0.1088 0.5481
H3 H 0.7002 0.2309 0.1983
H4 H 0.5084 0.1550 0.0604
H5 H 0.8841 0.5130 0.7316
H6 H 1.0961 0.4496 0.8807
H7 H 1.1952 0.3575 0.7869
H8 H 0.8536 0.3946 0.3970
H9 H 0.9360 0.2658 0.3198
H10 H 1.1697 0.2820 0.5866
H11 H 1.1546 0.3254 0.4492
Ag1A Ag 0.65378(4) 0.52061(2) 0.41607(4)
N2A N 0.1521(4) -0.0415(2) -0.0513(4)
P1 P 0.3953(2) 0.13349(7) -0.3022(1)
F1 F 0.5732(5) 0.1527(4) -0.2229(8)
F2 F 0.3414(8) 0.1921(3) -0.2226(4)
F3 F 0.3920(7) 0.1824(2) -0.4311(4)
F4 F 0.2141(7) 0.1153(4) -0.3809(6)
F5 F 0.458(1) 0.0774(3) -0.3763(9)
F6 F 0.3937(6) 0.0839(2) -0.1729(4)
loop_
_geom_bond_atom_site_label_1
_geom_bond_atom_site_label_2
_geom_bond_site_symmetry_1
_geom_bond_site_symmetry_2
Ag1 N1 1_555 1_555
P1 F1 1_555 1_555
F2 P1 1_555 1_555
F3 P1 1_555 1_555
F4 P1 1_555 1_555
F5 P1 1_555 1_555
F6 P1 1_555 1_555
O1 C11 1_555 1_555
N1 C1 1_555 1_555
N2 C6 1_555 1_555
N3 C11 1_555 1_555
C1 C2 1_555 1_555
C2 C3 1_555 1_555
C3 C4 1_555 1_555
C4 C5 1_555 1_555
C5 N1 1_555 1_555
C6 C7 1_555 1_555
C7 C8 1_555 1_555
C8 C9 1_555 1_555
C9 C10 1_555 1_555
C10 N2 1_555 1_555
C11 C3 1_555 1_555
C12 N3 1_555 1_555
H1 C1 1_555 1_555
H2 C2 1_555 1_555
H3 C4 1_555 1_555
H4 C5 1_555 1_555
H5 C6 1_555 1_555
H6 C7 1_555 1_555
H7 C8 1_555 1_555
H8 C10 1_555 1_555
H9 N3 1_555 1_555
H10 C12 1_555 1_555
H11 C12 1_555 1_555
Ag1A N2 1_555 1_555
N2A Ag1 1_555 1_555
C9 C12 1_555 1_555

#END
