
#######################################################################
#
#                 Cambridge Crystallographic Data Centre
#                                CCDC 
#
#######################################################################
#
# If this CIF has been generated from an entry in the Cambridge 
# Structural Database, then it will include bibliographic, chemical, 
# crystal, experimental, refinement or atomic coordinate data resulting 
# from the CCDC's data processing and validation procedures.
#
#######################################################################

data_POKBIB
_symmetry_cell_setting           monoclinic
_symmetry_space_group_name_H-M   'P 21/c'
_symmetry_Int_Tables_number      14
_space_group_name_Hall           '-P 2ybc'
loop_
_symmetry_equiv_pos_site_id
_symmetry_equiv_pos_as_xyz
1 x,y,z
2 -x,1/2+y,1/2-z
3 -x,-y,-z
4 x,1/2-y,1/2+z
_cell_length_a                   8.514(4)
_cell_length_b                   18.763(9)
_cell_length_c                   9.071(4)
_cell_angle_alpha                90
_cell_angle_beta                 104.630(6)
_cell_angle_gamma                90
_cell_volume                     1402.09
loop_
_atom_site_label
_atom_site_type_symbol
_atom_site_fract_x
_atom_site_fract_y
_atom_site_fract_z
Ag1 Ag 0.33037(4) -0.48203(2) 0.05371(4)
O1 O 0.9178(4) -0.3057(2) 0.6316(3)
N1 N 0.5092(4) -0.4165(2) 0.1993(4)
N2 N 0.8680(4) -0.0436(2) 0.5782(3)
N3 N 0.9673(3) -0.2485(2) 0.4302(3)
C1 C 0.5810(5) -0.4373(2) 0.3411(5)
C2 C 0.6990(5) -0.3984(2) 0.4397(4)
C3 C 0.7517(4) -0.3347(2) 0.3883(3)
C4 C 0.6741(5) -0.3121(2) 0.2426(4)
C5 C 0.5551(5) -0.3539(2) 0.1526(4)
C6 C 0.9489(5) -0.0232(2) 0.7199(4)
C7 C 1.0768(5) -0.0619(2) 0.8036(4)
C8 C 1.1284(4) -0.1226(2) 0.7411(3)
C9 C 1.0478(4) -0.1427(2) 0.5952(3)
C10 C 0.9182(4) -0.1017(2) 0.5191(4)
C11 C 0.8866(4) -0.2949(2) 0.4937(3)
C12 C 1.1013(4) -0.2072(2) 0.5198(4)
H1 H 0.5487 -0.4814 0.3757
H2 H 0.7437 -0.4144 0.5409
H3 H 0.7030 -0.2680 0.2052
H4 H 0.5032 -0.3378 0.0531
H5 H 0.9164 0.0190 0.7622
H6 H 1.1300 -0.0475 0.9042
H7 H 1.2177 -0.1497 0.7977
H8 H 0.8616 -0.1157 0.4191
H9 H 0.9362 -0.2422 0.3228
H10 H 1.1644 -0.2371 0.5969
H11 H 1.1659 -0.1913 0.4548
Ag1A Ag 0.66963(4) 0.01797(2) 0.44629(4)
N2A N 0.1320(4) -0.5436(2) -0.0782(3)
F1 F 0.4325(4) -0.6086(2) 0.2350(4)
F2 F 0.6784(5) -0.5977(3) 0.2029(5)
F3 F 0.6413(6) -0.6322(5) 0.4245(4)
F4 F 0.5980(5) -0.7028(2) 0.2224(5)
B1 B 0.5875(6) -0.6351(3) 0.2822(5)
loop_
_geom_bond_atom_site_label_1
_geom_bond_atom_site_label_2
_geom_bond_site_symmetry_1
_geom_bond_site_symmetry_2
Ag1 N1 1_555 1_555
F1 B1 1_555 1_555
F2 B1 1_555 1_555
F3 B1 1_555 1_555
F4 B1 1_555 1_555
O1 C11 1_555 1_555
N1 C1 1_555 1_555
N2 C6 1_555 1_555
N3 C11 1_555 1_555
C1 C2 1_555 1_555
C2 C3 1_555 1_555
C3 C4 1_555 1_555
C4 C5 1_555 1_555
C5 N1 1_555 1_555
C6 C7 1_555 1_555
C7 C8 1_555 1_555
C8 C9 1_555 1_555
C9 C10 1_555 1_555
C10 N2 1_555 1_555
C11 C3 1_555 1_555
C12 N3 1_555 1_555
H1 C1 1_555 1_555
H2 C2 1_555 1_555
H3 C4 1_555 1_555
H4 C5 1_555 1_555
H5 C6 1_555 1_555
H6 C7 1_555 1_555
H7 C8 1_555 1_555
H8 C10 1_555 1_555
H9 N3 1_555 1_555
H10 C12 1_555 1_555
H11 C12 1_555 1_555
Ag1A N2 1_555 1_555
N2A Ag1 1_555 1_555
C9 C12 1_555 1_555

#END
