
#######################################################################
#
#                 Cambridge Crystallographic Data Centre
#                                CCDC 
#
#######################################################################
#
# If this CIF has been generated from an entry in the Cambridge 
# Structural Database, then it will include bibliographic, chemical, 
# crystal, experimental, refinement or atomic coordinate data resulting 
# from the CCDC's data processing and validation procedures.
#
#######################################################################

data_POKBOH01
_symmetry_cell_setting           tetragonal
_symmetry_space_group_name_H-M   'P 41'
_symmetry_Int_Tables_number      76
_space_group_name_Hall           'P 4w'
loop_
_symmetry_equiv_pos_site_id
_symmetry_equiv_pos_as_xyz
1 x,y,z
2 -x,-y,1/2+z
3 -y,x,1/4+z
4 y,-x,3/4+z
_cell_length_a                   7.9389(7)
_cell_length_b                   7.9389(7)
_cell_length_c                   28.250(3)
_cell_angle_alpha                90
_cell_angle_beta                 90
_cell_angle_gamma                90
_cell_volume                     1780.49
loop_
_atom_site_label
_atom_site_type_symbol
_atom_site_fract_x
_atom_site_fract_y
_atom_site_fract_z
Ag1 Ag 0.1225(1) 0.2018(1) 0.003(1)
O1 O -0.2581(9) 0.022(1) 0.159(1)
N1 N -0.124(1) 0.103(1) 0.021(1)
N2 N -0.305(1) -0.639(1) 0.235(1)
N3 N -0.493(1) -0.125(1) 0.140(1)
C1 C -0.174(1) 0.082(1) 0.068(1)
C2 C -0.322(1) -0.002(1) 0.079(1)
C3 C -0.423(1) -0.059(1) 0.041(1)
C4 C -0.375(1) -0.032(1) -0.005(1)
C5 C -0.222(1) 0.047(1) -0.012(1)
C6 C -0.382(1) -0.535(1) 0.265(1)
C7 C -0.456(1) -0.381(1) 0.251(1)
C8 C -0.452(1) -0.335(2) 0.203(1)
C9 C -0.371(2) -0.437(1) 0.173(1)
C10 C -0.298(1) -0.586(1) 0.190(1)
C11 C -0.353(1) -0.034(1) 0.129(1)
C12 C -0.534(2) -0.171(1) 0.189(1)
H1 H -0.1067 0.1255 0.0926
H2 H -0.5254 -0.1159 0.0475
H3 H -0.4439 -0.0657 -0.0310
H4 H -0.1863 0.0608 -0.0448
H5 H -0.3875 -0.5662 0.2971
H6 H -0.5073 -0.3091 0.2728
H7 H -0.3622 -0.4093 0.1400
H8 H -0.2401 -0.6552 0.1674
H9 H -0.5665 -0.1600 0.1153
H10 H -0.4953 -0.0856 0.2096
H11 H -0.6526 -0.1828 0.1918
Ag1B Ag -0.2018(1) -0.8775(1) 0.253(1)
N2C N 0.361(1) 0.305(1) -0.015(1)
P1 P -0.6494(4) 0.0889(4) 0.334(1)
F1 F -0.618(2) 0.135(2) 0.281(1)
F2 F -0.621(1) 0.275(1) 0.344(2)
F3 F -0.679(3) 0.028(3) 0.381(2)
F4 F -0.698(2) -0.086(2) 0.314(1)
F5 F -0.460(1) 0.048(2) 0.334(1)
F6 F -0.841(1) 0.144(1) 0.330(1)
O2 O 0.212(2) -0.111(2) -0.032(2)
C13 C 0.200(3) -0.200(4) -0.079(2)
loop_
_geom_bond_atom_site_label_1
_geom_bond_atom_site_label_2
_geom_bond_site_symmetry_1
_geom_bond_site_symmetry_2
Ag1 N1 1_555 1_555
P1 F1 1_555 1_555
F2 P1 1_555 1_555
F3 P1 1_555 1_555
F4 P1 1_555 1_555
F5 P1 1_555 1_555
F6 P1 1_555 1_555
O1 C11 1_555 1_555
O2 C13 1_555 1_555
N1 C1 1_555 1_555
N2 C6 1_555 1_555
N3 C11 1_555 1_555
C1 C2 1_555 1_555
C2 C3 1_555 1_555
C3 C4 1_555 1_555
C4 C5 1_555 1_555
C5 N1 1_555 1_555
C6 C7 1_555 1_555
C7 C8 1_555 1_555
C8 C9 1_555 1_555
C9 C10 1_555 1_555
C10 N2 1_555 1_555
C11 C2 1_555 1_555
C12 N3 1_555 1_555
H1 C1 1_555 1_555
H2 C3 1_555 1_555
H3 C4 1_555 1_555
H4 C5 1_555 1_555
H5 C6 1_555 1_555
H6 C7 1_555 1_555
H7 C9 1_555 1_555
H8 C10 1_555 1_555
H9 N3 1_555 1_555
H10 C12 1_555 1_555
H11 C12 1_555 1_555
Ag1B N2 1_555 1_555
N2C Ag1 1_555 1_555
C8 C12 1_555 1_555

#END
