
#######################################################################
#
#                 Cambridge Crystallographic Data Centre
#                                CCDC 
#
#######################################################################
#
# If this CIF has been generated from an entry in the Cambridge 
# Structural Database, then it will include bibliographic, chemical, 
# crystal, experimental, refinement or atomic coordinate data resulting 
# from the CCDC's data processing and validation procedures.
#
#######################################################################

data_POKBOH
_symmetry_cell_setting           tetragonal
_symmetry_space_group_name_H-M   'P 43'
_symmetry_Int_Tables_number      78
_space_group_name_Hall           'P 4cw'
loop_
_symmetry_equiv_pos_site_id
_symmetry_equiv_pos_as_xyz
1 x,y,z
2 -x,-y,1/2+z
3 -y,x,3/4+z
4 y,-x,1/4+z
_cell_length_a                   7.9357(7)
_cell_length_b                   7.9357(7)
_cell_length_c                   28.283(3)
_cell_angle_alpha                90
_cell_angle_beta                 90
_cell_angle_gamma                90
_cell_volume                     1781.13
loop_
_atom_site_label
_atom_site_type_symbol
_atom_site_fract_x
_atom_site_fract_y
_atom_site_fract_z
Ag1 Ag 0.12293(10) 0.2020(1) -0.001(1)
O1 O -0.2585(8) 0.0222(10) -0.159(1)
N1 N -0.121(1) 0.103(1) -0.021(1)
N2 N -0.307(1) -0.636(1) -0.234(1)
N3 N -0.495(1) -0.123(1) -0.140(1)
C1 C -0.174(1) 0.084(1) -0.068(1)
C2 C -0.321(1) -0.001(1) -0.078(1)
C3 C -0.423(1) -0.060(1) -0.040(1)
C4 C -0.372(1) -0.031(1) 0.005(1)
C5 C -0.218(1) 0.046(1) 0.013(1)
C6 C -0.382(1) -0.532(1) -0.264(1)
C7 C -0.457(1) -0.382(1) -0.251(1)
C8 C -0.450(1) -0.332(1) -0.202(1)
C9 C -0.373(1) -0.436(1) -0.172(1)
C10 C -0.300(1) -0.585(1) -0.189(1)
C11 C -0.356(1) -0.037(1) -0.128(1)
C12 C -0.535(1) -0.172(1) -0.188(1)
H1 H -0.1087 0.1288 -0.0926
H2 H -0.5253 -0.1181 -0.0454
H3 H -0.4413 -0.0622 0.0318
H4 H -0.1800 0.0565 0.0451
H5 H -0.3854 -0.5626 -0.2961
H6 H -0.5118 -0.3129 -0.2726
H7 H -0.3676 -0.4081 -0.1387
H8 H -0.2408 -0.6537 -0.1660
H9 H -0.5720 -0.1537 -0.1150
H10 H -0.6533 -0.1872 -0.1905
H11 H -0.4992 -0.0856 -0.2086
Ag1B Ag -0.2020(1) -0.87707(10) -0.251(1)
N2C N 0.364(1) 0.307(1) 0.016(1)
P1 P 0.0892(4) 0.6500(4) -0.083(1)
F1 F 0.274(1) 0.618(2) -0.094(1)
F2 F 0.031(3) 0.676(3) -0.132(1)
F3 F -0.090(2) 0.698(2) -0.063(1)
F4 F 0.133(2) 0.619(2) -0.030(1)
F5 F 0.143(1) 0.8416(10) -0.080(1)
F6 F 0.049(2) 0.458(1) -0.082(1)
O2 O 0.214(2) -0.111(2) 0.032(1)
C13 C 0.217(4) -0.230(4) 0.078(2)
loop_
_geom_bond_atom_site_label_1
_geom_bond_atom_site_label_2
_geom_bond_site_symmetry_1
_geom_bond_site_symmetry_2
Ag1 N1 1_555 1_555
P1 F1 1_555 1_555
F2 P1 1_555 1_555
F3 P1 1_555 1_555
F4 P1 1_555 1_555
F5 P1 1_555 1_555
F6 P1 1_555 1_555
O1 C11 1_555 1_555
O2 C13 1_555 1_555
N1 C1 1_555 1_555
N2 C6 1_555 1_555
N3 C11 1_555 1_555
C1 C2 1_555 1_555
C2 C3 1_555 1_555
C3 C4 1_555 1_555
C4 C5 1_555 1_555
C5 N1 1_555 1_555
C6 C7 1_555 1_555
C7 C8 1_555 1_555
C8 C9 1_555 1_555
C9 C10 1_555 1_555
C10 N2 1_555 1_555
C11 C2 1_555 1_555
C12 N3 1_555 1_555
H1 C1 1_555 1_555
H2 C3 1_555 1_555
H3 C4 1_555 1_555
H4 C5 1_555 1_555
H5 C6 1_555 1_555
H6 C7 1_555 1_555
H7 C9 1_555 1_555
H8 C10 1_555 1_555
H9 N3 1_555 1_555
H10 C12 1_555 1_555
H11 C12 1_555 1_555
Ag1B N2 1_555 1_555
N2C Ag1 1_555 1_555
C8 C12 1_555 1_555

#END
