
#######################################################################
#
#                 Cambridge Crystallographic Data Centre
#                                CCDC 
#
#######################################################################
#
# If this CIF has been generated from an entry in the Cambridge 
# Structural Database, then it will include bibliographic, chemical, 
# crystal, experimental, refinement or atomic coordinate data resulting 
# from the CCDC's data processing and validation procedures.
#
#######################################################################

data_POKFUR
_symmetry_cell_setting           triclinic
_symmetry_space_group_name_H-M   'P -1'
_symmetry_Int_Tables_number      2
_space_group_name_Hall           '-P 1'
loop_
_symmetry_equiv_pos_site_id
_symmetry_equiv_pos_as_xyz
1 x,y,z
2 -x,-y,-z
_cell_length_a                   7.8386(5)
_cell_length_b                   11.5023(3)
_cell_length_c                   11.6566(3)
_cell_angle_alpha                117.1610(10)
_cell_angle_beta                 103.249(2)
_cell_angle_gamma                94.302(2)
_cell_volume                     890.403
loop_
_atom_site_label
_atom_site_type_symbol
_atom_site_fract_x
_atom_site_fract_y
_atom_site_fract_z
Cd1 Cd 0.0000 0.0000 0.5000
Cd2 Cd -0.95124(3) -0.750520(18) -0.104520(18)
O1 O -0.7097(3) -0.8563(2) -0.0941(2)
H1 H -0.6174 -0.7968 -0.0432
H2 H -0.7241 -0.9075 -0.0637
O2 O -1.2166(3) -0.6727(2) -0.1235(2)
H3 H -1.1929 -0.5986 -0.1145
H4 H -1.2614 -0.6712 -0.0659
O3 O 0.2427(4) -0.0301(3) 0.6254(3)
H5 H 0.3277 -0.0020 0.6068
H6 H 0.2500 0.0197 0.7058
O7 O -0.8147(3) -0.5746(2) 0.10061(19)
O8 O -0.9383(4) -0.7316(2) 0.1290(2)
O9 O -0.4568(3) -0.22120(19) 0.55449(19)
O10 O -0.1705(4) -0.0586(2) 0.6046(2)
O11 O -0.1360(3) 0.0535(2) 0.8244(2)
O12 O -0.7846(3) -0.51828(18) 0.64560(18)
O13 O -0.9553(3) -0.7896(2) 0.6822(2)
O14 O -0.8313(4) -0.5816(2) 0.8304(2)
C1 C -0.7753(3) -0.5298(2) 0.3261(2)
C2 C -0.6532(4) -0.4129(3) 0.3766(3)
H13 H -0.6196 -0.3878 0.3183
C3 C -0.5806(3) -0.3327(2) 0.5158(3)
C4 C -0.6297(3) -0.3685(2) 0.6034(2)
H14 H -0.5831 -0.3134 0.6963
C5 C -0.7508(3) -0.4890(3) 0.5504(3)
C6 C -0.8253(3) -0.5697(3) 0.4129(3)
H15 H -0.9072 -0.6490 0.3784
C7 C -0.8495(4) -0.6183(3) 0.1761(3)
C8 C -0.3640(4) -0.1375(3) 0.6937(3)
H16 H -0.3178 -0.1910 0.7335
H17 H -0.4449 -0.0898 0.7409
C9 C -0.2109(4) -0.0392(3) 0.7067(3)
C10 C -0.8795(4) -0.6505(3) 0.5963(3)
H18 H -0.8201 -0.7148 0.5402
H19 H -1.0004 -0.6635 0.5415
C11 C -0.8858(4) -0.6715(3) 0.7131(3)
Cd1_2 Cd -1.0000 -1.0000 0.5000
Cd1_3 Cd 1.0000 1.0000 0.5000
Cd2A Cd 0.95124(3) 0.750520(18) 1.104520(18)
Cd2_2 Cd 0.04876(3) 0.249480(18) 0.895480(18)
Cd2_3 Cd -0.95124(3) -0.750520(18) 0.895480(18)
Cd2A_2 Cd -0.04876(3) -0.249480(18) 0.104520(18)
Cd2A_3 Cd 0.95124(3) 0.750520(18) 0.104520(18)
O1A O 0.7097(3) 0.8563(2) 1.0941(2)
H1A H 0.6174 0.7968 1.0432
H2A H 0.7241 0.9075 1.0637
O2A O 1.2166(3) 0.6727(2) 1.1235(2)
H3A H 1.1929 0.5986 1.1145
H4A H 1.2614 0.6712 1.0659
O3A O -0.2427(4) 0.0301(3) 0.3746(3)
H5A H -0.3277 0.0020 0.3932
H6A H -0.2500 -0.0197 0.2942
O7A O 0.8147(3) 0.5746(2) 0.89939(19)
O8A O 0.9383(4) 0.7316(2) 0.8710(2)
O9A O 0.4568(3) 0.22120(19) 0.44551(19)
O10A O 0.1705(4) 0.0586(2) 0.3954(2)
O11A O 0.1360(3) -0.0535(2) 0.1756(2)
O11_2 O -1.1360(3) -0.9465(2) -0.1756(2)
O11A_2 O 1.1360(3) 0.9465(2) 1.1756(2)
O12A O 0.7846(3) 0.51828(18) 0.35440(18)
O13A O 0.9553(3) 0.7896(2) 0.3178(2)
O13_2 O 0.0447(3) 0.2104(2) 0.6822(2)
O13A_2 O -0.0447(3) -0.2104(2) 0.3178(2)
O13_3 O -0.9553(3) -0.7896(2) -0.3178(2)
O13A_3 O 0.9553(3) 0.7896(2) 1.3178(2)
O14A O 0.8313(4) 0.5816(2) 0.1696(2)
O14_2 O -0.8313(4) -0.5816(2) -0.1696(2)
O14A_2 O 0.8313(4) 0.5816(2) 1.1696(2)
C1A C 0.7753(3) 0.5298(2) 0.6739(2)
C2A C 0.6532(4) 0.4129(3) 0.6234(3)
H13A H 0.6196 0.3878 0.6817
C3A C 0.5806(3) 0.3327(2) 0.4842(3)
C4A C 0.6297(3) 0.3685(2) 0.3966(2)
H14A H 0.5831 0.3134 0.3037
C5A C 0.7508(3) 0.4890(3) 0.4496(3)
C6A C 0.8253(3) 0.5697(3) 0.5871(3)
H15A H 0.9072 0.6490 0.6216
C7A C 0.8495(4) 0.6183(3) 0.8239(3)
C8A C 0.3640(4) 0.1375(3) 0.3063(3)
H16A H 0.3178 0.1910 0.2665
H17A H 0.4449 0.0898 0.2591
C9A C 0.2109(4) 0.0392(3) 0.2933(3)
C10A C 0.8795(4) 0.6505(3) 0.4037(3)
H18A H 0.8201 0.7148 0.4598
H19A H 1.0004 0.6635 0.4585
C11A C 0.8858(4) 0.6715(3) 0.2869(3)
O4 O 0.2222(4) -0.0648(3) 0.9507(3)
H7 H 0.1562 -0.1254 0.8785
H8 H 0.1750 -0.0491 1.0098
O5 O -0.4685(5) 0.1186(3) 0.6371(4)
H9 H -0.4057 0.1850 0.7096
H10 H -0.5056 0.1353 0.5737
O6 O -0.3682(4) 0.3026(3) 1.0612(3)
H11 H -0.3899 0.3775 1.0887
H12 H -0.2738 0.2997 1.1062
loop_
_geom_bond_atom_site_label_1
_geom_bond_atom_site_label_2
_geom_bond_site_symmetry_1
_geom_bond_site_symmetry_2
Cd1 O3 1_555 1_555
Cd2 O1 1_555 1_555
O1 H1 1_555 1_555
H2 O1 1_555 1_555
O2 Cd2 1_555 1_555
H3 O2 1_555 1_555
H4 O2 1_555 1_555
O3 H5 1_555 1_555
H6 O3 1_555 1_555
O4 H7 1_555 1_555
H8 O4 1_555 1_555
O5 H9 1_555 1_555
H10 O5 1_555 1_555
O6 H11 1_555 1_555
H12 O6 1_555 1_555
O7 Cd2 1_555 1_555
O8 Cd2 1_555 1_555
O9 C3 1_555 1_555
O10 Cd1 1_555 1_555
O11 C9 1_555 1_555
O12 C5 1_555 1_555
O13 C11 1_555 1_555
O14 C11 1_555 1_555
C1 C2 1_555 1_555
C2 H13 1_555 1_555
C3 C2 1_555 1_555
C4 C3 1_555 1_555
H14 C4 1_555 1_555
C5 C4 1_555 1_555
C6 C1 1_555 1_555
H15 C6 1_555 1_555
C7 O7 1_555 1_555
C8 O9 1_555 1_555
H16 C8 1_555 1_555
H17 C8 1_555 1_555
C9 O10 1_555 1_555
C10 O12 1_555 1_555
H18 C10 1_555 1_555
H19 C10 1_555 1_555
C11 C10 1_555 1_555
Cd1_2 O13 1_555 1_555
Cd1_3 O13A 1_555 1_555
Cd2A O1A 1_555 1_555
Cd2_2 O11 1_555 1_555
Cd2_3 O13 1_555 1_555
Cd2A_2 O11A 1_555 1_555
Cd2A_3 O13A 1_555 1_555
O1A H1A 1_555 1_555
H2A O1A 1_555 1_555
O2A Cd2A 1_555 1_555
H3A O2A 1_555 1_555
H4A O2A 1_555 1_555
O3A Cd1 1_555 1_555
H5A O3A 1_555 1_555
H6A O3A 1_555 1_555
O7A Cd2A 1_555 1_555
O8A Cd2A 1_555 1_555
O9A C3A 1_555 1_555
O10A Cd1 1_555 1_555
O11A C9A 1_555 1_555
O11_2 Cd2 1_555 1_555
O11A_2 Cd2A 1_555 1_555
O12A C5A 1_555 1_555
O13A C11A 1_555 1_555
O13_2 Cd1 1_555 1_555
O13A_2 Cd1 1_555 1_555
O13_3 Cd2 1_555 1_555
O13A_3 Cd2A 1_555 1_555
O14A Cd2A_3 1_555 1_555
O14_2 Cd2 1_555 1_555
O14A_2 Cd2A 1_555 1_555
C1A C2A 1_555 1_555
C2A H13A 1_555 1_555
C3A C2A 1_555 1_555
C4A C3A 1_555 1_555
H14A C4A 1_555 1_555
C5A C4A 1_555 1_555
C6A C1A 1_555 1_555
H15A C6A 1_555 1_555
C7A O7A 1_555 1_555
C8A O9A 1_555 1_555
H16A C8A 1_555 1_555
H17A C8A 1_555 1_555
C9A O10A 1_555 1_555
C10A O12A 1_555 1_555
H18A C10A 1_555 1_555
H19A C10A 1_555 1_555
C11A O14A 1_555 1_555
O8 C7 1_555 1_555
O14 Cd2_3 1_555 1_555
C1 C7 1_555 1_555
C5 C6 1_555 1_555
C8 C9 1_555 1_555
Cd2_2 O13_2 1_555 1_555
Cd2A_2 O13A_2 1_555 1_555
O8A C7A 1_555 1_555
C1A C7A 1_555 1_555
C5A C6A 1_555 1_555
C8A C9A 1_555 1_555
C10A C11A 1_555 1_555

#END
