
#######################################################################
#
#                 Cambridge Crystallographic Data Centre
#                                CCDC 
#
#######################################################################
#
# If this CIF has been generated from an entry in the Cambridge 
# Structural Database, then it will include bibliographic, chemical, 
# crystal, experimental, refinement or atomic coordinate data resulting 
# from the CCDC's data processing and validation procedures.
#
#######################################################################

data_POKFEC
_symmetry_cell_setting           monoclinic
_symmetry_space_group_name_H-M   'P 21/c'
_symmetry_Int_Tables_number      14
_space_group_name_Hall           '-P 2ybc'
loop_
_symmetry_equiv_pos_site_id
_symmetry_equiv_pos_as_xyz
1 x,y,z
2 -x,1/2+y,1/2-z
3 -x,-y,-z
4 x,1/2-y,1/2+z
_cell_length_a                   9.5652(2)
_cell_length_b                   9.69440(10)
_cell_length_c                   9.8654(2)
_cell_angle_alpha                90
_cell_angle_beta                 118.97
_cell_angle_gamma                90
_cell_volume                     800.341
loop_
_atom_site_label
_atom_site_type_symbol
_atom_site_fract_x
_atom_site_fract_y
_atom_site_fract_z
Gd1 Gd 0.266635(17) 0.445303(16) 0.630686(16)
O1 O 0.2467(3) 0.6807(3) 0.5509(3)
O2 O 0.3209(3) 0.9169(3) 0.3554(3)
O3 O 0.2991(4) 0.4505(3) 0.4045(3)
O4 O 0.4687(3) 0.4854(3) 0.3099(3)
O5 O 0.2988(4) 0.2128(3) 0.5712(3)
O6 O -0.0217(3) 0.9019(3) 0.0834(3)
O7 O 0.4604(3) 0.3273(3) 0.8578(3)
O8 O -0.1250(3) 0.6643(3) 0.2585(3)
C1 C 0.1658(4) 0.7388(4) 0.4225(4)
C2 C 0.2021(4) 0.8445(4) 0.3370(4)
C3 C 0.4326(4) 0.4815(4) 0.4184(4)
C4 C 0.0410(4) 0.8377(4) 0.2099(4)
C5 C -0.0011(4) 0.7316(4) 0.2911(4)
H1 H 0.515(7) 0.369(6) 0.959(7)
H2 H 0.543(9) 0.264(8) 0.862(7)
H3 H 0.259(9) 0.189(6) 0.474(8)
H4 H 0.335(11) 0.127(10) 0.632(9)
O3B O 0.7009(4) 0.5495(3) 0.5955(3)
C3B C 0.5674(4) 0.5185(4) 0.5816(4)
O4B O 0.5313(3) 0.5146(3) 0.6901(3)
Gd1B Gd -0.266635(17) 0.554697(16) 0.369314(16)
O1B O -0.2467(3) 0.3193(3) 0.4491(3)
O2B O -0.3209(3) 0.0831(3) 0.6446(3)
O5B O -0.2988(4) 0.7872(3) 0.4288(3)
O6B O 0.0217(3) 0.0981(3) 0.9166(3)
O7B O -0.4604(3) 0.6727(3) 0.1422(3)
O8B O 0.1250(3) 0.3357(3) 0.7415(3)
C1B C -0.1658(4) 0.2612(4) 0.5775(4)
C2B C -0.2021(4) 0.1555(4) 0.6630(4)
C4B C -0.0410(4) 0.1623(4) 0.7901(4)
C5B C 0.0011(4) 0.2684(4) 0.7089(4)
H1B H -0.515(7) 0.631(6) 0.041(7)
H2B H -0.543(9) 0.736(8) 0.138(7)
H3B H -0.259(9) 0.811(6) 0.526(8)
H4B H -0.335(11) 0.873(10) 0.368(9)
Gd1A Gd -0.266635(17) -0.054697(16) 0.869314(16)
Gd1A_2 Gd -0.266635(17) 0.945303(16) -0.130686(16)
Gd1B_2 Gd 0.733365(17) 0.554697(16) 0.369314(16)
Gd1C Gd 0.266635(17) 0.054697(16) 1.130686(16)
Gd1C_2 Gd 0.266635(17) 1.054697(16) 0.130686(16)
O2A O -0.3209(3) 0.4169(3) 0.1446(3)
O2C O 0.3209(3) 0.5831(3) 0.8554(3)
O3B_2 O -0.2991(4) 0.5495(3) 0.5955(3)
O4_2 O -0.5313(3) 0.4854(3) 0.3099(3)
O6A O 0.0217(3) 0.4019(3) 0.4166(3)
O6C O -0.0217(3) 0.5981(3) 0.5834(3)
loop_
_geom_bond_atom_site_label_1
_geom_bond_atom_site_label_2
_geom_bond_site_symmetry_1
_geom_bond_site_symmetry_2
Gd1 O1 1_555 1_555
O1 C1 1_555 1_555
O2 C2 1_555 1_555
O3 Gd1 1_555 1_555
O4 C3 1_555 1_555
O5 Gd1 1_555 1_555
O6 C4 1_555 1_555
O7 Gd1 1_555 1_555
O8 C5 1_555 1_555
C1 C2 1_555 1_555
C2 C4 1_555 1_555
C3 O3 1_555 1_555
C4 C5 1_555 1_555
C5 C1 1_555 1_555
H1 O7 1_555 1_555
H2 O7 1_555 1_555
H3 O5 1_555 1_555
H4 O5 1_555 1_555
O3B C3B 1_555 1_555
C3B C3 1_555 1_555
O4B Gd1 1_555 1_555
Gd1B O8 1_555 1_555
O1B Gd1B 1_555 1_555
O2B C2B 1_555 1_555
O5B Gd1B 1_555 1_555
O6B C4B 1_555 1_555
O7B Gd1B 1_555 1_555
O8B Gd1 1_555 1_555
C1B O1B 1_555 1_555
C2B C1B 1_555 1_555
C4B C2B 1_555 1_555
C5B O8B 1_555 1_555
H1B O7B 1_555 1_555
H2B O7B 1_555 1_555
H3B O5B 1_555 1_555
H4B O5B 1_555 1_555
Gd1A O2B 1_555 1_555
Gd1A_2 O6 1_555 1_555
Gd1B_2 O4 1_555 1_555
Gd1C O6B 1_555 1_555
Gd1C_2 O2 1_555 1_555
O2A Gd1B 1_555 1_555
O2C Gd1 1_555 1_555
O3B_2 Gd1B 1_555 1_555
O4_2 Gd1B 1_555 1_555
O6A Gd1 1_555 1_555
O6C Gd1B 1_555 1_555
O3B Gd1B_2 1_555 1_555
C3B O4B 1_555 1_555
C1B C5B 1_555 1_555
C4B C5B 1_555 1_555

#END
