
#######################################################################
#
#                 Cambridge Crystallographic Data Centre
#                                CCDC 
#
#######################################################################
#
# If this CIF has been generated from an entry in the Cambridge 
# Structural Database, then it will include bibliographic, chemical, 
# crystal, experimental, refinement or atomic coordinate data resulting 
# from the CCDC's data processing and validation procedures.
#
#######################################################################

data_POKFIF
_symmetry_cell_setting           monoclinic
_symmetry_space_group_name_H-M   'P 21/c'
_symmetry_Int_Tables_number      14
_space_group_name_Hall           '-P 2ybc'
loop_
_symmetry_equiv_pos_site_id
_symmetry_equiv_pos_as_xyz
1 x,y,z
2 -x,1/2+y,1/2-z
3 -x,-y,-z
4 x,1/2-y,1/2+z
_cell_length_a                   14.906(3)
_cell_length_b                   10.362(2)
_cell_length_c                   8.9460(18)
_cell_angle_alpha                90
_cell_angle_beta                 105.42(3)
_cell_angle_gamma                90
_cell_volume                     1332.02
loop_
_atom_site_label
_atom_site_type_symbol
_atom_site_fract_x
_atom_site_fract_y
_atom_site_fract_z
Zn1 Zn 0.366369(17) 0.28249(2) 0.69939(3)
Zn2 Zn 0.152209(17) 0.27649(2) 0.70048(3)
O1 O 0.30833(11) 0.44225(15) 0.5930(2)
O3 O 0.17194(11) 0.45686(15) 0.6523(2)
O4 O 0.36023(10) 0.90479(14) 0.43176(19)
O5 O 0.51786(10) 0.83854(15) 0.64952(17)
O6 O 0.58951(11) 0.77730(16) 0.4769(2)
O7 O 0.10188(10) 0.93585(14) 0.6228(2)
O8 O -0.03544(11) 0.79619(15) 0.43150(18)
O9 O -0.11832(11) 0.78376(16) 0.60023(19)
O10 O 0.26742(10) 0.18500(16) 0.7405(2)
H3 H 0.279(2) 0.145(3) 0.820(2)
C1 C 0.23523(14) 0.64640(19) 0.5765(2)
C2 C 0.16560(15) 0.71922(19) 0.6139(3)
H4 H 0.1207 0.6801 0.6536
C3 C 0.16502(13) 0.8517(2) 0.5902(2)
C4 C 0.23143(14) 0.90991(19) 0.5295(2)
H5 H 0.2303 0.9987 0.5139
C5 C 0.29956(13) 0.8351(2) 0.4921(2)
C6 C 0.30248(15) 0.7026(2) 0.5154(3)
H6 H 0.3483 0.6526 0.4908
C7 C 0.23843(14) 0.5043(2) 0.6097(2)
C8 C 0.43090(14) 0.8393(2) 0.3829(2)
H7 H 0.4466 0.8893 0.3017
H8 H 0.4069 0.7567 0.3389
C9 C 0.51812(14) 0.8168(2) 0.5115(2)
C10 C 0.03020(14) 0.8867(2) 0.6827(3)
H9 H 0.0025 0.9575 0.7258
H10 H 0.0571 0.8274 0.7666
C11 C -0.04545(14) 0.81749(19) 0.5637(2)
Zn1A Zn 0.633631(17) 0.78249(2) 0.80061(3)
Zn1B Zn 0.633631(17) 0.71751(2) 0.30061(3)
Zn2B Zn -0.152209(17) 0.72351(2) 0.29952(3)
Zn2A Zn -0.152209(17) 0.77649(2) 0.79952(3)
O5A O 0.48214(10) 0.33854(15) 0.85048(17)
O6B O 0.41049(11) 0.22270(16) 0.5231(2)
O8B O 0.03544(11) 0.20381(15) 0.56850(18)
O9A O 0.11832(11) 0.28376(16) 0.89977(19)
O2 O 0.4394(2) 1.0172(3) 0.8365(4)
H1 H 0.452(3) 0.964(4) 0.768(5)
H2 H 0.3812(16) 1.003(5) 0.830(5)
loop_
_geom_bond_atom_site_label_1
_geom_bond_atom_site_label_2
_geom_bond_site_symmetry_1
_geom_bond_site_symmetry_2
Zn1 O1 1_555 1_555
Zn2 O3 1_555 1_555
O1 C7 1_555 1_555
O2 H1 1_555 1_555
H2 O2 1_555 1_555
O3 C7 1_555 1_555
O4 C5 1_555 1_555
O5 C9 1_555 1_555
O6 C9 1_555 1_555
O7 C3 1_555 1_555
O8 C11 1_555 1_555
O9 C11 1_555 1_555
O10 Zn1 1_555 1_555
H3 O10 1_555 1_555
C1 C2 1_555 1_555
C2 H4 1_555 1_555
C3 C2 1_555 1_555
C4 C3 1_555 1_555
H5 C4 1_555 1_555
C5 C4 1_555 1_555
C6 C1 1_555 1_555
H6 C6 1_555 1_555
C7 C1 1_555 1_555
C8 O4 1_555 1_555
H7 C8 1_555 1_555
H8 C8 1_555 1_555
C9 C8 1_555 1_555
C10 O7 1_555 1_555
H9 C10 1_555 1_555
H10 C10 1_555 1_555
C11 C10 1_555 1_555
Zn1A O5 1_555 1_555
Zn1B O6 1_555 1_555
Zn2B O8 1_555 1_555
Zn2A O9 1_555 1_555
O5A Zn1 1_555 1_555
O6B Zn1 1_555 1_555
O8B Zn2 1_555 1_555
O9A Zn2 1_555 1_555
Zn2 O10 1_555 1_555
C5 C6 1_555 1_555

#END
