
#######################################################################
#
#                 Cambridge Crystallographic Data Centre
#                                CCDC 
#
#######################################################################
#
# If this CIF has been generated from an entry in the Cambridge 
# Structural Database, then it will include bibliographic, chemical, 
# crystal, experimental, refinement or atomic coordinate data resulting 
# from the CCDC's data processing and validation procedures.
#
#######################################################################

data_POKGUS
_symmetry_cell_setting           triclinic
_symmetry_space_group_name_H-M   'P -1'
_symmetry_Int_Tables_number      2
_space_group_name_Hall           '-P 1'
loop_
_symmetry_equiv_pos_site_id
_symmetry_equiv_pos_as_xyz
1 x,y,z
2 -x,-y,-z
_cell_length_a                   10.144(2)
_cell_length_b                   13.937(3)
_cell_length_c                   15.240(3)
_cell_angle_alpha                116.36(3)
_cell_angle_beta                 101.66(3)
_cell_angle_gamma                91.11(3)
_cell_volume                     1876.04
loop_
_atom_site_label
_atom_site_type_symbol
_atom_site_fract_x
_atom_site_fract_y
_atom_site_fract_z
C1 C 1.4381(7) 1.4704(6) 1.3551(7)
H1 H 1.5095 1.5024 1.3435
C2 C 0.1973(6) 1.1488(5) 1.0943(5)
H2 H 0.1084 1.1526 1.1016
C3 C 1.2481(7) 1.4405(5) 1.3880(6)
H3 H 1.1639 1.4502 1.4037
C4 C 1.2907(6) 1.6196(5) 1.3932(5)
C5 C 0.2339(6) 1.3280(5) 1.0989(5)
C6 C 0.1313(6) 0.5625(5) 0.6665(5)
H4 H 0.0775 0.5557 0.6064
C7 C 0.2289(7) 0.7696(5) 0.9415(5)
C8 C 0.9908(6) 1.0668(5) 1.2206(5)
C9 C 0.1995(7) 0.3777(5) 0.5696(5)
C10 C 0.8497(5) 1.0661(5) 1.2390(5)
C11 C 0.4476(6) 1.0676(5) 1.2896(5)
C12 C 0.6864(6) 1.1547(5) 1.3348(5)
H5 H 0.6647 1.2146 1.3870
C13 C 1.4285(7) 1.3717(6) 1.3510(6)
H6 H 1.4933 1.3242 1.3365
C14 C 0.2220(6) 0.6678(5) 0.8448(5)
C15 C 0.2047(6) 0.4799(5) 0.6674(5)
C16 C 1.2332(7) 1.8232(5) 1.4271(5)
C17 C 0.2941(6) 0.5854(5) 0.8444(5)
H7 H 0.3500 0.5932 0.9043
C18 C 1.1679(7) 1.6516(5) 1.4140(6)
H8 H 1.1042 1.6042 1.4159
C19 C 0.8155(6) 1.1538(5) 1.3181(5)
H9 H 0.8808 1.2127 1.3604
C20 C 0.5889(6) 1.0658(5) 1.2735(5)
C21 C 0.7538(6) 0.9783(5) 1.1793(5)
H10 H 0.7754 0.9185 1.1270
C22 C 0.3895(6) 1.0945(5) 1.0796(5)
H11 H 0.4597 1.0518 1.0745
C23 C 0.1950(7) 1.7062(6) 1.1274(6)
H12 H 0.2804 1.6996 1.1135
C24 C 1.1405(7) 1.7539(5) 1.4318(6)
H13 H 1.0586 1.7763 1.4472
C25 C 0.2853(7) 0.4909(5) 0.7568(5)
H14 H 0.3334 0.4352 0.7580
C26 C 0.6243(6) 0.9786(5) 1.1967(5)
H15 H 0.5602 0.9185 1.1556
C27 C 0.0052(8) 1.6707(6) 1.1566(7)
H16 H -0.0659 1.6367 1.1667
C28 C 0.3970(6) 1.1917(5) 1.0798(5)
H17 H 0.4715 1.2273 1.0748
C29 C 0.1590(7) 1.5274(5) 1.1214(6)
C30 C 1.3843(7) 1.6887(5) 1.3880(6)
H18 H 1.4665 1.6668 1.3730
C31 C 0.3095(9) 1.3925(7) 1.0788(10)
H19 H 0.3871 1.3695 1.0559
C32 C 0.1389(7) 0.6551(5) 0.7557(5)
H20 H 0.0872 0.7094 0.7556
C33 C 1.2229(8) 1.9857(5) 1.4010(5)
H21 H 1.2422 1.9539 1.3377
C34 C 0.0827(8) 1.4627(6) 1.1422(7)
H22 H 0.0047 1.4851 1.1647
C35 C 1.1844(9) 2.1013(6) 1.5384(6)
H23 H 1.1713 2.1666 1.5892
C36 C 1.3542(8) 1.7916(6) 1.4054(6)
H24 H 1.4166 1.8391 1.4022
C37 C 0.0113(7) 1.7687(6) 1.1595(6)
H25 H -0.0559 1.8142 1.1723
C38 C 0.1209(8) 1.3624(6) 1.1298(7)
H26 H 0.0667 1.3185 1.1433
C39 C 0.2739(9) 1.4938(7) 1.0916(10)
H27 H 0.3296 1.5382 1.0796
C40 C 1.1843(9) 2.0090(6) 1.5443(7)
H28 H 1.1705 1.9977 1.5976
Mn1 Mn 0.19802(9) 0.92954(7) 1.11084(7)
Mn2 Mn 1.24141(9) 1.21518(7) 1.40013(7)
N1 N 0.2643(5) 1.0683(4) 1.0881(4)
N2 N 0.2728(5) 1.2270(4) 1.0888(4)
N3 N 0.1304(5) 1.7906(4) 1.1411(5)
N4 N 0.1224(5) 1.6307(4) 1.1361(5)
N5 N 1.3075(5) 1.3526(4) 1.3717(4)
N6 N 1.3245(5) 1.5143(4) 1.3792(4)
N7 N 1.2090(6) 1.9333(4) 1.4546(5)
N8 N 1.2058(6) 2.0882(4) 1.4492(5)
O2 O 0.1297(5) 0.8241(3) 0.9463(4)
O3 O 0.3302(5) 0.7958(4) 1.0114(4)
O4 O 0.0991(5) 0.3534(4) 0.4968(4)
O5 O 0.2969(5) 0.3261(4) 0.5644(4)
O6 O 0.4194(4) 1.1526(3) 1.3559(4)
O7 O 0.3650(4) 0.9822(3) 1.2359(3)
O8 O 1.0745(4) 1.1505(3) 1.2785(3)
O9 O 1.0155(4) 0.9843(3) 1.1502(4)
Mn1_2 Mn 0.19802(9) 1.92954(7) 1.11084(7)
Mn1_3 Mn 1.19802(9) 0.92954(7) 1.11084(7)
Mn2_2 Mn 1.24141(9) 2.21518(7) 1.40013(7)
Mn2_3 Mn 0.24141(9) 0.21518(7) 0.40013(7)
Mn2_4 Mn 0.24141(9) 1.21518(7) 1.40013(7)
N3_2 N 0.1304(5) 0.7906(4) 1.1411(5)
N8_2 N 1.2058(6) 1.0882(4) 1.4492(5)
O5_2 O 1.2969(5) 1.3261(4) 1.5644(4)
O6_2 O 1.4194(4) 1.1526(3) 1.3559(4)
O9_2 O 0.0155(4) 0.9843(3) 1.1502(4)
O1 O 0.5184(16) 0.6946(16) 0.1085(18)
loop_
_geom_bond_atom_site_label_1
_geom_bond_atom_site_label_2
_geom_bond_site_symmetry_1
_geom_bond_site_symmetry_2
C1 H1 1_555 1_555
C2 H2 1_555 1_555
C3 H3 1_555 1_555
C4 C18 1_555 1_555
C5 C31 1_555 1_555
C6 H4 1_555 1_555
C7 C14 1_555 1_555
C8 C10 1_555 1_555
C9 C15 1_555 1_555
C10 C19 1_555 1_555
C11 C20 1_555 1_555
C12 H5 1_555 1_555
C13 C1 1_555 1_555
H6 C13 1_555 1_555
C14 C17 1_555 1_555
C15 C6 1_555 1_555
C16 C24 1_555 1_555
C17 H7 1_555 1_555
C18 H8 1_555 1_555
C19 C12 1_555 1_555
H9 C19 1_555 1_555
C20 C12 1_555 1_555
C21 C10 1_555 1_555
H10 C21 1_555 1_555
C22 H11 1_555 1_555
C23 H12 1_555 1_555
C24 C18 1_555 1_555
H13 C24 1_555 1_555
C25 C15 1_555 1_555
H14 C25 1_555 1_555
C26 C20 1_555 1_555
H15 C26 1_555 1_555
C27 H16 1_555 1_555
C28 C22 1_555 1_555
H17 C28 1_555 1_555
C29 C34 1_555 1_555
C30 C4 1_555 1_555
H18 C30 1_555 1_555
C31 H19 1_555 1_555
C32 C6 1_555 1_555
H20 C32 1_555 1_555
C33 H21 1_555 1_555
C34 H22 1_555 1_555
C35 H23 1_555 1_555
C36 C16 1_555 1_555
H24 C36 1_555 1_555
C37 C27 1_555 1_555
H25 C37 1_555 1_555
C38 C5 1_555 1_555
H26 C38 1_555 1_555
C39 C29 1_555 1_555
H27 C39 1_555 1_555
C40 C35 1_555 1_555
H28 C40 1_555 1_555
Mn1 N1 1_555 1_555
Mn2 N5 1_555 1_555
N1 C2 1_555 1_555
N2 C2 1_555 1_555
N3 C23 1_555 1_555
N4 C23 1_555 1_555
N5 C3 1_555 1_555
N6 C1 1_555 1_555
N7 C16 1_555 1_555
N8 C33 1_555 1_555
O2 C7 1_555 1_555
O3 C7 1_555 1_555
O4 C9 1_555 1_555
O5 C9 1_555 1_555
O6 C11 1_555 1_555
O7 C11 1_555 1_555
O8 C8 1_555 1_555
O9 C8 1_555 1_555
Mn1_2 N3 1_555 1_555
Mn1_3 O9 1_555 1_555
Mn2_2 N8 1_555 1_555
Mn2_3 O5 1_555 1_555
Mn2_4 O6 1_555 1_555
N3_2 Mn1 1_555 1_555
N8_2 Mn2 1_555 1_555
O5_2 Mn2 1_555 1_555
O6_2 Mn2 1_555 1_555
O9_2 Mn1 1_555 1_555
C3 N6 1_555 1_555
C4 N6 1_555 1_555
C5 N2 1_555 1_555
C13 N5 1_555 1_555
C14 C32 1_555 1_555
C17 C25 1_555 1_555
C21 C26 1_555 1_555
C22 N1 1_555 1_555
C27 N4 1_555 1_555
C28 N2 1_555 1_555
C29 N4 1_555 1_555
C30 C36 1_555 1_555
C31 C39 1_555 1_555
C33 N7 1_555 1_555
C34 C38 1_555 1_555
C35 N8 1_555 1_555
C37 N3 1_555 1_555
C40 N7 1_555 1_555
Mn1 O2 1_555 1_555
Mn1 O3 1_555 1_555
Mn1 O7 1_555 1_555
Mn2 O8 1_555 1_555

#END
