
#######################################################################
#
#                 Cambridge Crystallographic Data Centre
#                                CCDC 
#
#######################################################################
#
# If this CIF has been generated from an entry in the Cambridge 
# Structural Database, then it will include bibliographic, chemical, 
# crystal, experimental, refinement or atomic coordinate data resulting 
# from the CCDC's data processing and validation procedures.
#
#######################################################################

data_POKGOM
_symmetry_cell_setting           triclinic
_symmetry_space_group_name_H-M   'P -1'
_symmetry_Int_Tables_number      2
_space_group_name_Hall           '-P 1'
loop_
_symmetry_equiv_pos_site_id
_symmetry_equiv_pos_as_xyz
1 x,y,z
2 -x,-y,-z
_cell_length_a                   8.7128(17)
_cell_length_b                   9.6086(19)
_cell_length_c                   12.500(3)
_cell_angle_alpha                71.31(3)
_cell_angle_beta                 89.72(3)
_cell_angle_gamma                80.33(3)
_cell_volume                     975.861
loop_
_atom_site_label
_atom_site_type_symbol
_atom_site_fract_x
_atom_site_fract_y
_atom_site_fract_z
C1 C 0.6175(5) 0.9644(4) 0.5835(3)
H1 H 0.6963 0.9403 0.6397
C2 C 1.0088(4) 1.0936(4) 0.0636(3)
C3 C 0.4900(5) 0.8939(4) 0.6033(3)
H2 H 0.4833 0.8223 0.6730
C4 C 1.0262(4) 1.1956(4) 0.1310(3)
C5 C 0.9773(5) 1.2246(5) 0.4765(3)
H3 H 1.0646 1.2442 0.5077
C6 C 1.1152(5) 0.9604(4) 0.0864(3)
H4 H 1.1924 0.9341 0.1440
C7 C 0.6285(5) 1.0716(4) 0.4796(3)
C8 C 0.8952(5) 1.1324(4) -0.0226(3)
H5 H 0.8251 1.2216 -0.0380
C9 C 0.5433(6) 2.0135(5) 0.0997(4)
H6 H 0.5721 2.0225 0.1684
C10 C 0.6123(5) 1.8922(4) 0.0708(3)
C11 C 0.8021(5) 1.6546(4) 0.1304(3)
H7 H 0.7717 1.6198 0.0739
C12 C 0.4320(6) 2.1217(5) 0.0285(4)
H8 H 0.3872 2.2043 0.0485
C13 C 0.8707(6) 1.1468(5) 0.5353(4)
H9 H 0.8716 1.1033 0.6134
C14 C 0.8077(5) 1.2191(4) 0.3556(3)
H10 H 0.7545 1.2325 0.2878
C15 C 1.4168(5) 1.4861(4) 0.4104(3)
C16 C 1.3290(5) 1.4709(4) 0.3119(3)
C17 C 1.3691(6) 1.4351(6) 0.5175(4)
H11 H 1.2808 1.3907 0.5307
C18 C 0.9230(5) 1.6728(4) 0.2730(3)
H12 H 0.9933 1.6521 0.3342
C19 C 0.8109(5) 1.7960(4) 0.2345(4)
H13 H 0.7900 1.8738 0.2645
C20 C 1.5479(7) 1.5509(7) 0.3926(4)
H14 H 1.5816 1.5859 0.3196
N1 N 0.9162(4) 1.5830(3) 0.2068(2)
N2 N 0.9350(4) 1.2702(3) 0.3623(2)
N3 N 0.7612(4) 1.1445(3) 0.4579(3)
N4 N 0.7345(4) 1.7845(3) 0.1437(3)
Ni1 Ni 1.05315(5) 1.38116(4) 0.22603(4)
O1 O 0.9245(3) 1.3153(2) 0.1120(2)
O2 O 1.1351(3) 1.1645(3) 0.2029(2)
O3 O 1.2116(3) 1.4085(3) 0.3329(2)
O4 O 1.3804(5) 1.5201(5) 0.2156(3)
O5 O 1.1864(3) 1.4643(3) 0.0879(2)
C1A C 0.3825(5) 1.0356(4) 0.4165(3)
H1A H 0.3037 1.0597 0.3603
C2A C 0.9912(4) 0.9064(4) -0.0636(3)
C3A C 0.5100(5) 1.1061(4) 0.3967(3)
H2A H 0.5167 1.1777 0.3270
C4A C 0.9738(4) 0.8044(4) -0.1310(3)
C5A C 0.0227(5) 0.7754(5) 0.5235(3)
H3A H -0.0646 0.7558 0.4923
C6A C 0.8848(5) 1.0396(4) -0.0864(3)
H4A H 0.8076 1.0659 -0.1440
C7A C 0.3715(5) 0.9284(4) 0.5204(3)
C8A C 1.1048(5) 0.8676(4) 0.0226(3)
H5A H 1.1749 0.7784 0.0380
C9A C 0.4567(6) 1.9865(5) -0.0997(4)
H6A H 0.4279 1.9775 -0.1684
C10A C 0.3877(5) 2.1078(4) -0.0708(3)
C11A C 0.1979(5) 2.3454(4) -0.1304(3)
H7A H 0.2283 2.3802 -0.0739
C12A C 0.5680(6) 1.8783(5) -0.0285(4)
H8A H 0.6128 1.7957 -0.0485
C13A C 0.1293(6) 0.8532(5) 0.4647(4)
H9A H 0.1284 0.8967 0.3866
C14A C 0.1923(5) 0.7809(4) 0.6444(3)
H10A H 0.2455 0.7675 0.7122
C15A C 1.5832(5) 1.5139(4) 0.5896(3)
C16A C 1.6710(5) 1.5291(4) 0.6881(3)
C17A C 1.6309(6) 1.5649(6) 0.4825(4)
H11A H 1.7192 1.6093 0.4693
C18A C 0.0770(5) 2.3272(4) -0.2730(3)
H12A H 0.0067 2.3479 -0.3342
C19A C 0.1891(5) 2.2040(4) -0.2345(4)
H13A H 0.2100 2.1262 -0.2645
C20A C 1.4521(7) 1.4491(7) 0.6074(4)
H14A H 1.4184 1.4141 0.6804
N1A N 0.0838(4) 2.4170(3) -0.2068(2)
N2A N 0.0650(4) 0.7298(3) 0.6377(2)
N2A_2 N 0.0650(4) 2.7298(3) -0.3623(2)
N3A N 0.2388(4) 0.8555(3) 0.5421(3)
N4A N 0.2655(4) 2.2155(3) -0.1437(3)
Ni1A Ni -0.05315(5) 2.61884(4) -0.22603(4)
Ni1A_2 Ni -0.05315(5) 0.61884(4) 0.77397(4)
Ni1A_3 Ni 0.94685(5) 0.61884(4) -0.22603(4)
Ni1A_4 Ni 1.94685(5) 1.61884(4) 0.77397(4)
O1A O 1.0755(3) 0.6847(2) -0.1120(2)
O1A_2 O 0.0755(3) 2.6847(2) -0.1120(2)
O2A O 0.8649(3) 0.8355(3) -0.2029(2)
O2A_2 O -0.1351(3) 2.8355(3) -0.2029(2)
O3A O 1.7884(3) 1.5915(3) 0.6671(2)
O3A_2 O -0.2116(3) 2.5915(3) -0.3329(2)
O4A O 1.6196(5) 1.4799(5) 0.7844(3)
O5A O -0.1864(3) 2.5357(3) -0.0879(2)
O6 O 0.4159(11) 0.6455(12) 0.8805(9)
loop_
_geom_bond_atom_site_label_1
_geom_bond_atom_site_label_2
_geom_bond_site_symmetry_1
_geom_bond_site_symmetry_2
C1 H1 1_555 1_555
C2 C4 1_555 1_555
C3 C1 1_555 1_555
H2 C3 1_555 1_555
C4 O1 1_555 1_555
C5 H3 1_555 1_555
C6 C2 1_555 1_555
H4 C6 1_555 1_555
C7 C1 1_555 1_555
C8 C2 1_555 1_555
H5 C8 1_555 1_555
C9 H6 1_555 1_555
C10 C9 1_555 1_555
C11 H7 1_555 1_555
C12 C9 1_555 1_555
H8 C12 1_555 1_555
C13 C5 1_555 1_555
H9 C13 1_555 1_555
C14 H10 1_555 1_555
C15 C16 1_555 1_555
C16 O3 1_555 1_555
C17 C15 1_555 1_555
H11 C17 1_555 1_555
C18 H12 1_555 1_555
C19 C18 1_555 1_555
H13 C19 1_555 1_555
C20 C15 1_555 1_555
H14 C20 1_555 1_555
N1 C11 1_555 1_555
N2 C5 1_555 1_555
N3 C7 1_555 1_555
N4 C10 1_555 1_555
Ni1 N1 1_555 1_555
O1 Ni1 1_555 1_555
O2 C4 1_555 1_555
O3 Ni1 1_555 1_555
O4 C16 1_555 1_555
O5 Ni1 1_555 1_555
C1A H1A 1_555 1_555
C2A C4A 1_555 1_555
C3A C7 1_555 1_555
H2A C3A 1_555 1_555
C4A O1A 1_555 1_555
C5A H3A 1_555 1_555
C6A C8 1_555 1_555
H4A C6A 1_555 1_555
C7A C3 1_555 1_555
C8A C6 1_555 1_555
H5A C8A 1_555 1_555
C9A H6A 1_555 1_555
C10A C12 1_555 1_555
C11A H7A 1_555 1_555
C12A C10 1_555 1_555
H8A C12A 1_555 1_555
C13A C5A 1_555 1_555
H9A C13A 1_555 1_555
C14A H10A 1_555 1_555
C15A C16A 1_555 1_555
C16A O3A 1_555 1_555
C17A C20 1_555 1_555
H11A C17A 1_555 1_555
C18A H12A 1_555 1_555
C19A C18A 1_555 1_555
H13A C19A 1_555 1_555
C20A C17 1_555 1_555
H14A C20A 1_555 1_555
N1A C11A 1_555 1_555
N2A C5A 1_555 1_555
N2A_2 Ni1A 1_555 1_555
N3A C7A 1_555 1_555
N4A C10A 1_555 1_555
Ni1A N1A 1_555 1_555
Ni1A_2 N2A 1_555 1_555
Ni1A_3 O1A 1_555 1_555
Ni1A_4 O3A 1_555 1_555
O1A_2 Ni1A 1_555 1_555
O2A C4A 1_555 1_555
O2A_2 Ni1A 1_555 1_555
O3A_2 Ni1A 1_555 1_555
O4A C16A 1_555 1_555
O5A Ni1A 1_555 1_555
C11 N4 1_555 1_555
C13 N3 1_555 1_555
C14 N2 1_555 1_555
C14 N3 1_555 1_555
C18 N1 1_555 1_555
C19 N4 1_555 1_555
N2 Ni1 1_555 1_555
Ni1 O2 1_555 1_555
C1A C3A 1_555 1_555
C1A C7A 1_555 1_555
C2A C6A 1_555 1_555
C2A C8A 1_555 1_555
C9A C10A 1_555 1_555
C9A C12A 1_555 1_555
C11A N4A 1_555 1_555
C13A N3A 1_555 1_555
C14A N2A 1_555 1_555
C14A N3A 1_555 1_555
C15A C17A 1_555 1_555
C15A C20A 1_555 1_555
C18A N1A 1_555 1_555
C19A N4A 1_555 1_555
Ni1A_3 O2A 1_555 1_555

#END
