
#######################################################################
#
#                 Cambridge Crystallographic Data Centre
#                                CCDC 
#
#######################################################################
#
# If this CIF has been generated from an entry in the Cambridge 
# Structural Database, then it will include bibliographic, chemical, 
# crystal, experimental, refinement or atomic coordinate data resulting 
# from the CCDC's data processing and validation procedures.
#
#######################################################################

data_POKGAY
_symmetry_cell_setting           triclinic
_symmetry_space_group_name_H-M   'P -1'
_symmetry_Int_Tables_number      2
_space_group_name_Hall           '-P 1'
loop_
_symmetry_equiv_pos_site_id
_symmetry_equiv_pos_as_xyz
1 x,y,z
2 -x,-y,-z
_cell_length_a                   12.242(2)
_cell_length_b                   12.5584(19)
_cell_length_c                   13.0368(18)
_cell_angle_alpha                65.302(8)
_cell_angle_beta                 89.321(10)
_cell_angle_gamma                68.863(9)
_cell_volume                     1675.48
loop_
_atom_site_label
_atom_site_type_symbol
_atom_site_fract_x
_atom_site_fract_y
_atom_site_fract_z
Cd1 Cd 0.39485(2) 0.46476(3) 0.45513(2)
Cd2 Cd 1.35180(2) -0.22130(2) 0.24037(2)
O1 O 1.1767(3) -0.0804(4) 0.1143(3)
O2 O 1.1515(3) -0.1098(3) 0.2890(3)
O3 O 0.5110(3) 0.3996(3) 0.3327(2)
O4 O 0.6499(3) 0.2177(3) 0.4550(3)
O5 O 0.7358(3) 0.4127(3) -0.2788(2)
O6 O 0.6388(3) 0.3347(3) -0.1389(3)
O7 O 0.6510(3) 0.4880(3) -0.0445(2)
O8 O 0.9353(3) 0.0724(3) 0.2219(3)
O9 O 0.4293(2) 0.6393(3) 0.4197(2)
H5 H 0.410(7) 0.679(7) 0.460(6)
N1 N 0.3286(4) 0.2997(4) 0.5261(4)
N2 N 0.2250(4) 0.5216(5) 0.5446(3)
N3 N 1.3895(4) -0.0420(4) 0.2307(4)
N4 N 1.5358(3) -0.2287(4) 0.1805(3)
C1 C 0.6713(3) 0.2959(4) 0.2595(3)
C2 C 0.6305(3) 0.3921(4) 0.1487(3)
H6 H 0.5602 0.4622 0.1328
C3 C 0.6946(3) 0.3844(4) 0.0601(3)
C4 C 0.7959(3) 0.2779(4) 0.0812(3)
H7 H 0.8368 0.2705 0.0223
C5 C 0.8350(3) 0.1821(4) 0.1931(3)
C6 C 0.7752(3) 0.1914(4) 0.2813(3)
H8 H 0.8048 0.1273 0.3557
C7 C 0.6058(4) 0.3040(4) 0.3574(3)
C8 C 0.7108(4) 0.4855(4) -0.1392(3)
H9 H 0.7952 0.4565 -0.1148
H10 H 0.6843 0.5719 -0.1996
C9 C 0.6932(3) 0.4034(4) -0.1884(3)
C10 C 0.9979(4) 0.0564(5) 0.1344(4)
H11 H 1.0100 0.1334 0.0873
H12 H 0.9519 0.0409 0.0861
C11 C 1.1166(3) -0.0547(4) 0.1861(4)
C12 C 0.3805(7) 0.1939(6) 0.5172(6)
H13 H 0.4500 0.1781 0.4862
C13 C 0.3247(10) 0.0996(7) 0.5584(8)
H14 H 0.3566 0.0233 0.5526
C14 C 0.2237(9) 0.1299(11) 0.6056(8)
H15 H 0.1887 0.0707 0.6324
C15 C 0.1730(8) 0.2353(9) 0.6155(6)
C16 C 0.0653(8) 0.2644(11) 0.6662(7)
H16 H 0.0310 0.2049 0.6951
C17 C 0.0177(9) 0.3709(14) 0.6714(7)
H17 H -0.0524 0.3877 0.7013
C18 C 0.0664(6) 0.4616(11) 0.6343(5)
C19 C 0.0182(7) 0.5806(13) 0.6381(7)
H18 H -0.0508 0.6014 0.6690
C20 C 0.0715(6) 0.6639(10) 0.5971(7)
H19 H 0.0399 0.7416 0.6003
C21 C 0.1733(5) 0.6328(7) 0.5505(5)
H20 H 0.2080 0.6920 0.5216
C22 C 0.1739(5) 0.4390(7) 0.5852(4)
C23 C 0.2267(6) 0.3226(7) 0.5759(4)
C24 C 1.3210(7) 0.0470(6) 0.2597(7)
H21 H 1.2572 0.0357 0.2955
C25 C 1.3401(9) 0.1558(8) 0.2391(11)
H22 H 1.2893 0.2163 0.2599
C26 C 1.4281(9) 0.1725(7) 0.1913(9)
H23 H 1.4396 0.2464 0.1770
C27 C 1.5098(7) 0.0815(7) 0.1588(6)
C28 C 1.6098(11) 0.0899(10) 0.1101(8)
H24 H 1.6249 0.1622 0.0943
C29 C 1.6853(9) 0.0008(11) 0.0847(6)
H25 H 1.7508 0.0113 0.0519
C30 C 1.6632(6) -0.1161(8) 0.1098(5)
C31 C 1.7367(7) -0.2132(12) 0.0884(6)
H26 H 1.8044 -0.2086 0.0571
C32 C 1.7100(7) -0.3181(11) 0.1136(7)
H27 H 1.7588 -0.3848 0.0990
C33 C 1.6077(5) -0.3223(7) 0.1618(6)
H28 H 1.5905 -0.3940 0.1810
C34 C 1.5626(5) -0.1264(6) 0.1558(4)
C35 C 1.4841(5) -0.0273(5) 0.1834(4)
Cd1A Cd 0.60515(2) 0.53524(3) -0.45513(2)
Cd1A_2 Cd 0.60515(2) 0.53524(3) 0.54487(2)
Cd2A Cd 0.64820(2) 0.22130(2) -0.24037(2)
Cd2_2 Cd 0.35180(2) 0.77870(2) 0.24037(2)
O5A O 0.2642(3) 0.5873(3) 0.2788(2)
O6A O 1.3612(3) -0.3347(3) 0.1389(3)
O9A O 0.5707(2) 0.3607(3) 0.5803(2)
O9_2 O 1.4293(2) -0.3607(3) 0.4197(2)
H5A H 0.590(7) 0.321(7) 0.540(6)
H5_2 H 1.410(7) -0.321(7) 0.460(6)
O10 O 0.9071(10) 0.0279(11) 0.5423(9)
H1 H 0.9370 0.0846 0.5350
H2 H 0.8363 0.0626 0.5430
O11? O 0.9131(10) -0.0537(12) 0.5915(10)
H3? H 0.9315 -0.1263 0.6461
H4? H 0.8433 -0.0243 0.5634
loop_
_geom_bond_atom_site_label_1
_geom_bond_atom_site_label_2
_geom_bond_site_symmetry_1
_geom_bond_site_symmetry_2
Cd1 O3 1_555 1_555
Cd2 O1 1_555 1_555
O1 C11 1_555 1_555
O2 Cd2 1_555 1_555
O3 C7 1_555 1_555
O4 C7 1_555 1_555
O5 C9 1_555 1_555
O6 C9 1_555 1_555
O7 C3 1_555 1_555
O8 C5 1_555 1_555
O9 Cd1 1_555 1_555
O10 H1 1_555 1_555
H2 O10 1_555 1_555
H5 O9 1_555 1_555
N1 Cd1 1_555 1_555
N2 Cd1 1_555 1_555
N3 Cd2 1_555 1_555
N4 Cd2 1_555 1_555
C1 C2 1_555 1_555
C2 H6 1_555 1_555
C3 C2 1_555 1_555
C4 C3 1_555 1_555
H7 C4 1_555 1_555
C5 C4 1_555 1_555
C6 C1 1_555 1_555
H8 C6 1_555 1_555
C7 C1 1_555 1_555
C8 O7 1_555 1_555
H9 C8 1_555 1_555
H10 C8 1_555 1_555
C9 C8 1_555 1_555
C10 O8 1_555 1_555
H11 C10 1_555 1_555
H12 C10 1_555 1_555
C11 O2 1_555 1_555
C12 N1 1_555 1_555
H13 C12 1_555 1_555
C13 C12 1_555 1_555
H14 C13 1_555 1_555
C14 C13 1_555 1_555
H15 C14 1_555 1_555
C15 C14 1_555 1_555
C16 C15 1_555 1_555
H16 C16 1_555 1_555
C17 C16 1_555 1_555
H17 C17 1_555 1_555
C18 C17 1_555 1_555
C19 C18 1_555 1_555
H18 C19 1_555 1_555
C20 C19 1_555 1_555
H19 C20 1_555 1_555
C21 N2 1_555 1_555
H20 C21 1_555 1_555
C22 N2 1_555 1_555
C23 N1 1_555 1_555
C24 N3 1_555 1_555
H21 C24 1_555 1_555
C25 C24 1_555 1_555
H22 C25 1_555 1_555
C26 C25 1_555 1_555
H23 C26 1_555 1_555
C27 C26 1_555 1_555
C28 C27 1_555 1_555
H24 C28 1_555 1_555
C29 C28 1_555 1_555
H25 C29 1_555 1_555
C30 C29 1_555 1_555
C31 C30 1_555 1_555
H26 C31 1_555 1_555
C32 C31 1_555 1_555
H27 C32 1_555 1_555
C33 N4 1_555 1_555
H28 C33 1_555 1_555
C34 N4 1_555 1_555
C35 N3 1_555 1_555
Cd1A O5 1_555 1_555
Cd1A_2 O9 1_555 1_555
Cd2A O6 1_555 1_555
Cd2_2 O9 1_555 1_555
O5A Cd1 1_555 1_555
O6A Cd2 1_555 1_555
O9A Cd1 1_555 1_555
O9_2 Cd2 1_555 1_555
H5A O9A 1_555 1_555
H5_2 O9_2 1_555 1_555
C5 C6 1_555 1_555
C10 C11 1_555 1_555
C15 C23 1_555 1_555
C18 C22 1_555 1_555
C20 C21 1_555 1_555
C22 C23 1_555 1_555
C27 C35 1_555 1_555
C30 C34 1_555 1_555
C32 C33 1_555 1_555
C34 C35 1_555 1_555
Cd1A_2 O9A 1_555 1_555

#END
