
#######################################################################
#
#                 Cambridge Crystallographic Data Centre
#                                CCDC 
#
#######################################################################
#
# If this CIF has been generated from an entry in the Cambridge 
# Structural Database, then it will include bibliographic, chemical, 
# crystal, experimental, refinement or atomic coordinate data resulting 
# from the CCDC's data processing and validation procedures.
#
#######################################################################

data_POKGON
_symmetry_cell_setting           monoclinic
_symmetry_space_group_name_H-M   'P 21/n'
_symmetry_Int_Tables_number      14
_space_group_name_Hall           '-P 2yn'
loop_
_symmetry_equiv_pos_site_id
_symmetry_equiv_pos_as_xyz
1 x,y,z
2 1/2-x,1/2+y,1/2-z
3 -x,-y,-z
4 1/2+x,1/2-y,1/2+z
_cell_length_a                   10.25413(18)
_cell_length_b                   12.90075(16)
_cell_length_c                   18.8342(3)
_cell_angle_alpha                90
_cell_angle_beta                 100.9954(16)
_cell_angle_gamma                90
_cell_volume                     2445.76
loop_
_atom_site_label
_atom_site_type_symbol
_atom_site_fract_x
_atom_site_fract_y
_atom_site_fract_z
Ag1 Ag -0.067525(14) 0.006977(10) 0.355332(7)
O1 O 0.32387(12) 0.29419(10) 0.56051(7)
O2 O -0.17712(13) 0.07811(9) 0.23907(7)
N1 N 0.06570(14) 0.10598(12) 0.42895(8)
N2 N 0.24265(14) 0.23503(11) 0.51808(7)
N3 N -0.23382(14) 0.16818(10) 0.22852(7)
N4 N -0.34838(14) 0.35981(11) 0.19223(8)
C1 C 0.02361(17) 0.18211(14) 0.46741(9)
H1 H -0.0692 0.1911 0.4644
C2 C 0.10939(16) 0.24761(14) 0.51102(9)
H2 H 0.0753 0.3019 0.5363
C3 C 0.28736(18) 0.15877(15) 0.47961(10)
H3 H 0.3800 0.1482 0.4830
C4 C 0.19759(18) 0.09691(16) 0.43568(10)
H4 H 0.2309 0.0446 0.4084
C5 C -0.36071(17) 0.17519(13) 0.19279(9)
H5 H -0.4120 0.1144 0.1799
C6 C -0.41479(17) 0.27140(14) 0.17527(9)
H6 H -0.5040 0.2752 0.1498
C7 C -0.22513(16) 0.35071(13) 0.23177(9)
H7 H -0.1763 0.4120 0.2469
C8 C -0.16670(16) 0.25637(13) 0.25128(8)
H8 H -0.0803 0.2530 0.2804
Ag1A Ag -0.432475(14) 0.506977(10) 0.144668(7)
N4A N -0.15162(14) -0.14019(11) 0.30777(8)
Ag2 Ag 0.036132(13) 0.052907(9) 0.168903(7)
O3 O 0.14615(13) -0.03363(10) 0.28133(7)
O4 O -0.32141(12) -0.21790(10) -0.06470(7)
N5 N 0.21763(13) -0.11731(11) 0.28426(7)
N6 N 0.36571(14) -0.29791(11) 0.29925(7)
N7 N -0.08224(14) -0.05363(11) 0.09267(8)
N8 N -0.24576(14) -0.16642(10) -0.01499(7)
C9 C 0.34273(16) -0.11821(13) 0.32420(8)
H9 H 0.3805 -0.0569 0.3474
C10 C 0.41359(16) -0.20874(13) 0.33063(8)
H10 H 0.5010 -0.2085 0.3587
C11 C 0.24441(17) -0.29394(13) 0.25740(9)
H11 H 0.2087 -0.3550 0.2330
C12 C 0.16948(16) -0.20447(13) 0.24849(9)
H12 H 0.0847 -0.2040 0.2175
C13 C -0.03287(16) -0.11235(13) 0.04499(9)
H13 H 0.0607 -0.1146 0.0483
C14 C -0.11145(16) -0.16904(13) -0.00821(9)
H14 H -0.0720 -0.2101 -0.0403
C15 C -0.29767(16) -0.10766(13) 0.03256(9)
H15 H -0.3912 -0.1044 0.0293
C16 C -0.21499(17) -0.05300(13) 0.08528(9)
H16 H -0.2536 -0.0128 0.1181
Ag2A Ag 0.463868(13) -0.447093(9) 0.331097(7)
N6A N 0.13429(14) 0.20209(11) 0.20075(7)
Cl1 Cl 0.38401(4) -0.05343(3) 0.13911(2)
O5 O 0.24838(13) -0.02626(11) 0.11096(8)
O6 O 0.42798(15) -0.00173(11) 0.20726(7)
O7 O 0.39432(15) -0.16389(10) 0.14976(8)
O8 O 0.46684(13) -0.02030(11) 0.08957(7)
Cl2 Cl -0.38165(4) 0.09009(3) 0.40523(2)
O9 O -0.35600(17) -0.01465(12) 0.38469(9)
O10 O -0.51176(13) 0.12043(12) 0.36857(8)
O11 O -0.37588(15) 0.09529(11) 0.48185(7)
O12 O -0.28402(16) 0.15834(14) 0.38538(9)
loop_
_geom_bond_atom_site_label_1
_geom_bond_atom_site_label_2
_geom_bond_site_symmetry_1
_geom_bond_site_symmetry_2
Ag1 O2 1_555 1_555
O1 N2 1_555 1_555
O2 N3 1_555 1_555
N1 Ag1 1_555 1_555
N2 C2 1_555 1_555
N3 C5 1_555 1_555
N4 C6 1_555 1_555
C1 N1 1_555 1_555
H1 C1 1_555 1_555
C2 C1 1_555 1_555
H2 C2 1_555 1_555
C3 N2 1_555 1_555
H3 C3 1_555 1_555
C4 N1 1_555 1_555
H4 C4 1_555 1_555
C5 H5 1_555 1_555
C6 C5 1_555 1_555
H6 C6 1_555 1_555
C7 N4 1_555 1_555
H7 C7 1_555 1_555
C8 N3 1_555 1_555
H8 C8 1_555 1_555
Ag2 O3 1_555 1_555
O3 N5 1_555 1_555
O4 N8 1_555 1_555
N5 C9 1_555 1_555
N6 C10 1_555 1_555
N7 Ag2 1_555 1_555
N8 C14 1_555 1_555
C9 H9 1_555 1_555
C10 C9 1_555 1_555
H10 C10 1_555 1_555
C11 N6 1_555 1_555
H11 C11 1_555 1_555
C12 N5 1_555 1_555
H12 C12 1_555 1_555
C13 N7 1_555 1_555
H13 C13 1_555 1_555
C14 C13 1_555 1_555
H14 C14 1_555 1_555
C15 N8 1_555 1_555
H15 C15 1_555 1_555
C16 N7 1_555 1_555
H16 C16 1_555 1_555
Cl1 O5 1_555 1_555
O6 Cl1 1_555 1_555
O7 Cl1 1_555 1_555
O8 Cl1 1_555 1_555
Cl2 O9 1_555 1_555
O10 Cl2 1_555 1_555
O11 Cl2 1_555 1_555
O12 Cl2 1_555 1_555
Ag1A N4 1_555 1_555
N4A Ag1 1_555 1_555
Ag2A N6 1_555 1_555
N6A Ag2 1_555 1_555
C3 C4 1_555 1_555
C7 C8 1_555 1_555
C11 C12 1_555 1_555
C15 C16 1_555 1_555

#END
