
#######################################################################
#
#                 Cambridge Crystallographic Data Centre
#                                CCDC 
#
#######################################################################
#
# If this CIF has been generated from an entry in the Cambridge 
# Structural Database, then it will include bibliographic, chemical, 
# crystal, experimental, refinement or atomic coordinate data resulting 
# from the CCDC's data processing and validation procedures.
#
#######################################################################

data_POKHON
_symmetry_cell_setting           triclinic
_symmetry_space_group_name_H-M   'P -1'
_symmetry_Int_Tables_number      2
_space_group_name_Hall           '-P 1'
loop_
_symmetry_equiv_pos_site_id
_symmetry_equiv_pos_as_xyz
1 x,y,z
2 -x,-y,-z
_cell_length_a                   11.410(2)
_cell_length_b                   13.446(3)
_cell_length_c                   19.377(4)
_cell_angle_alpha                100.08(3)
_cell_angle_beta                 96.88(3)
_cell_angle_gamma                107.19(3)
_cell_volume                     2749.28
loop_
_atom_site_label
_atom_site_type_symbol
_atom_site_fract_x
_atom_site_fract_y
_atom_site_fract_z
Cu1 Cu -0.01879(8) 0.16585(7) 0.39724(4)
Cu2 Cu 0.08603(8) 0.17980(7) 0.28093(4)
Cu3 Cu -1.04800(8) -0.48823(7) 0.06035(4)
I1 I 0.13874(4) 0.05743(4) 0.36535(2)
I2 I -0.04910(5) 0.30496(4) 0.32153(3)
I3 I -1.05728(5) -0.36151(4) -0.02728(2)
N1 N -0.1880(5) 0.0479(4) 0.3831(3)
N2 N -0.9521(5) -0.4002(4) 0.1591(3)
N3 N -0.0109(5) 0.0820(5) 0.1854(3)
N4 N -0.7723(5) -0.4353(5) -0.0718(3)
N5 N 0.0431(5) 0.2362(4) 0.5038(3)
N6 N 0.7496(5) 0.7090(4) 0.7241(3)
C1 C -0.2515(7) -0.0048(6) 0.3179(4)
H9 H -0.2155 0.0112 0.2784
C2 C -0.3674(7) -0.0816(6) 0.3059(4)
H10 H -0.4087 -0.1151 0.2589
C3 C -0.4231(6) -0.1098(5) 0.3618(3)
C4 C -0.3563(7) -0.0552(6) 0.4291(4)
H11 H -0.3896 -0.0702 0.4696
C5 C -0.2422(6) 0.0202(5) 0.4370(4)
H12 H -0.1992 0.0548 0.4835
C6 C -0.5507(6) -0.1910(6) 0.3515(4)
H13 H -0.5456 -0.2458 0.3780
H14 H -0.5784 -0.2260 0.3008
C7 C -0.6454(6) -0.1418(5) 0.3763(4)
H15 H -0.6553 -0.0914 0.3469
H16 H -0.6136 -0.1012 0.4256
C8 C -0.7726(6) -0.2231(6) 0.3725(3)
H17 H -0.7628 -0.2730 0.4022
H18 H -0.8270 -0.1857 0.3925
C9 C -0.9274(6) -0.2943(6) 0.1789(4)
H19 H -0.9497 -0.2579 0.1449
C10 C -0.8704(6) -0.2364(6) 0.2474(4)
H20 H -0.8560 -0.1624 0.2588
C11 C -0.8347(6) -0.2851(6) 0.2987(3)
C12 C -0.8614(7) -0.3939(6) 0.2782(4)
H21 H -0.8400 -0.4317 0.3114
C13 C -0.9196(6) -0.4484(5) 0.2093(4)
H22 H -0.9370 -0.5227 0.1973
C14 C -0.0473(7) 0.1210(6) 0.1318(4)
H23 H -0.0321 0.1951 0.1399
C15 C -0.1058(7) 0.0607(6) 0.0648(4)
H24 H -0.1281 0.0941 0.0289
C16 C -0.1314(6) -0.0465(6) 0.0504(4)
C17 C -0.0965(8) -0.0888(6) 0.1061(4)
H25 H -0.1140 -0.1630 0.0994
C18 C -0.0356(8) -0.0230(6) 0.1720(4)
H26 H -0.0109 -0.0540 0.2086
C19 C -0.1989(6) -0.1197(6) -0.0213(4)
H27 H -0.1973 -0.0769 -0.0575
H28 H -0.1547 -0.1704 -0.0349
C20 C -0.3334(6) -0.1812(6) -0.0201(4)
H29 H -0.3357 -0.2156 0.0205
H30 H -0.3804 -0.1310 -0.0134
C21 C -0.3954(7) -0.2650(6) -0.0875(4)
H31 H -0.3955 -0.2309 -0.1282
H32 H -0.3479 -0.3147 -0.0949
C22 C -0.7424(7) -0.3405(7) -0.0872(5)
H33 H -0.8059 -0.3100 -0.0945
C23 C -0.6238(8) -0.2836(7) -0.0932(5)
H34 H -0.6081 -0.2159 -0.1039
C24 C -0.5268(7) -0.3255(6) -0.0835(4)
C25 C -0.5590(7) -0.4247(6) -0.0681(4)
H35 H -0.4976 -0.4573 -0.0607
C26 C -0.6801(7) -0.4772(6) -0.0633(4)
H36 H -0.6990 -0.5457 -0.0536
C27 C 0.0807(7) 0.1832(6) 0.5491(4)
H37 H 0.0760 0.1121 0.5318
C28 C 0.1265(7) 0.2291(7) 0.6207(4)
H38 H 0.1526 0.1886 0.6505
C29 C 0.1348(6) 0.3312(6) 0.6488(4)
C30 C 0.0930(7) 0.3848(6) 0.6012(4)
H39 H 0.0955 0.4556 0.6176
C31 C 0.0479(7) 0.3362(6) 0.5303(4)
H40 H 0.0196 0.3746 0.4996
C32 C 0.1885(7) 0.3852(7) 0.7256(4)
H41 H 0.2067 0.3332 0.7512
H42 H 0.1267 0.4111 0.7474
C33 C 0.3095(7) 0.4801(6) 0.7333(4)
H43 H 0.2915 0.5309 0.7065
H44 H 0.3372 0.5171 0.7836
C34 C 0.4129(7) 0.4453(6) 0.7069(4)
H45 H 0.4309 0.3946 0.7338
H46 H 0.3850 0.4082 0.6566
C35 C 0.6438(7) 0.6951(6) 0.6810(4)
H47 H 0.6424 0.7454 0.6530
C36 C 0.5357(7) 0.6114(7) 0.6748(4)
H48 H 0.4644 0.6059 0.6426
C37 C 0.5306(6) 0.5370(5) 0.7141(4)
C38 C 0.6380(7) 0.5505(6) 0.7591(4)
H49 H 0.6404 0.5012 0.7876
C39 C 0.7440(7) 0.6368(7) 0.7631(4)
H50 H 0.8161 0.6442 0.7954
Cu2A Cu 0.91397(8) 0.82020(7) 0.71907(4)
Cu3A Cu -0.95200(8) -0.51177(7) -0.06035(4)
I3A I -0.94272(5) -0.63849(4) 0.02728(2)
N4A N -1.2277(5) -0.5647(5) 0.0718(3)
N6A N 0.2504(5) 0.2910(4) 0.2759(3)
N8 N 0.4999(15) 0.1447(14) 0.4202(8)
H3 H 0.4222 0.1094 0.4194
H4 H 0.5460 0.1138 0.3979
C40 C 0.4927(9) 0.3056(9) 0.4924(5)
C41 C 0.5657(14) 0.4062(10) 0.5260(6)
H51 H 0.5280 0.4483 0.5535
C42 C 0.6850(15) 0.4507(12) 0.5238(7)
H52 H 0.7302 0.5214 0.5478
C43 C 0.7379(11) 0.3875(13) 0.4844(8)
H53 H 0.8226 0.4160 0.4818
C44 C 0.6740(12) 0.2841(11) 0.4484(6)
H54 H 0.7133 0.2432 0.4212
C45 C 0.5459(10) 0.2409(8) 0.4538(5)
N10 N -0.4103(18) 0.1716(16) 0.2610(10)
H7 H -0.4359 0.2097 0.2932
H8 H -0.3311 0.1880 0.2593
C46 C -0.4438(15) 0.0378(14) 0.1594(10)
C47 C -0.525(2) -0.0416(16) 0.1049(9)
H55 H -0.4922 -0.0762 0.0695
C48 C -0.646(3) -0.0709(16) 0.1005(13)
H56 H -0.6986 -0.1212 0.0605
C49 C -0.6949(18) -0.0300(16) 0.1518(14)
H57 H -0.7815 -0.0548 0.1503
C50 C -0.6196(19) 0.0482(15) 0.2073(8)
H58 H -0.6561 0.0775 0.2432
C51 C -0.4948(17) 0.0854(10) 0.2128(7)
N11 N -0.4227(10) -0.3035(8) 0.1373(5)
C52 C -0.5272(12) -0.3169(8) 0.1280(5)
C53 C -0.6594(10) -0.3371(8) 0.1176(5)
H59 H -0.7021 -0.4135 0.1059
H60 H -0.6842 -0.3063 0.0789
H61 H -0.6813 -0.3052 0.1610
N7? N 0.3764(16) 0.2920(14) 0.5036(8)
H1? H 0.3589 0.3438 0.5292
H2? H 0.3181 0.2312 0.4854
N9? N -0.335(3) 0.080(2) 0.1724(17)
H5? H -0.2888 0.0611 0.1436
H6? H -0.3013 0.1297 0.2108
loop_
_geom_bond_atom_site_label_1
_geom_bond_atom_site_label_2
_geom_bond_site_symmetry_1
_geom_bond_site_symmetry_2
Cu1 I1 1_555 1_555
Cu2 I1 1_555 1_555
Cu3 I3 1_555 1_555
I2 Cu1 1_555 1_555
I3 Cu3A 1_555 1_555
N1 Cu1 1_555 1_555
N2 Cu3 1_555 1_555
N3 Cu2 1_555 1_555
N4 C22 1_555 1_555
N5 Cu1 1_555 1_555
N6 C35 1_555 1_555
N8 H3 1_555 1_555
H4 N8 1_555 1_555
N10 H7 1_555 1_555
H8 N10 1_555 1_555
C1 N1 1_555 1_555
H9 C1 1_555 1_555
C2 C1 1_555 1_555
H10 C2 1_555 1_555
C3 C2 1_555 1_555
C4 C3 1_555 1_555
H11 C4 1_555 1_555
C5 N1 1_555 1_555
H12 C5 1_555 1_555
C6 C3 1_555 1_555
H13 C6 1_555 1_555
H14 C6 1_555 1_555
C7 C6 1_555 1_555
H15 C7 1_555 1_555
H16 C7 1_555 1_555
C8 C7 1_555 1_555
H17 C8 1_555 1_555
H18 C8 1_555 1_555
C9 N2 1_555 1_555
H19 C9 1_555 1_555
C10 C9 1_555 1_555
H20 C10 1_555 1_555
C11 C8 1_555 1_555
C12 C11 1_555 1_555
H21 C12 1_555 1_555
C13 N2 1_555 1_555
H22 C13 1_555 1_555
C14 N3 1_555 1_555
H23 C14 1_555 1_555
C15 C14 1_555 1_555
H24 C15 1_555 1_555
C16 C15 1_555 1_555
C17 C16 1_555 1_555
H25 C17 1_555 1_555
C18 N3 1_555 1_555
H26 C18 1_555 1_555
C19 C16 1_555 1_555
H27 C19 1_555 1_555
H28 C19 1_555 1_555
C20 C19 1_555 1_555
H29 C20 1_555 1_555
H30 C20 1_555 1_555
C21 C20 1_555 1_555
H31 C21 1_555 1_555
H32 C21 1_555 1_555
C22 H33 1_555 1_555
C23 C22 1_555 1_555
H34 C23 1_555 1_555
C24 C21 1_555 1_555
C25 C24 1_555 1_555
H35 C25 1_555 1_555
C26 N4 1_555 1_555
H36 C26 1_555 1_555
C27 N5 1_555 1_555
H37 C27 1_555 1_555
C28 C27 1_555 1_555
H38 C28 1_555 1_555
C29 C28 1_555 1_555
C30 C29 1_555 1_555
H39 C30 1_555 1_555
C31 N5 1_555 1_555
H40 C31 1_555 1_555
C32 C29 1_555 1_555
H41 C32 1_555 1_555
H42 C32 1_555 1_555
C33 C32 1_555 1_555
H43 C33 1_555 1_555
H44 C33 1_555 1_555
C34 C33 1_555 1_555
H45 C34 1_555 1_555
H46 C34 1_555 1_555
C35 H47 1_555 1_555
C36 C35 1_555 1_555
H48 C36 1_555 1_555
C37 C34 1_555 1_555
C38 C37 1_555 1_555
H49 C38 1_555 1_555
C39 N6 1_555 1_555
H50 C39 1_555 1_555
C40 C41 1_555 1_555
C41 H51 1_555 1_555
C42 C41 1_555 1_555
H52 C42 1_555 1_555
C43 C42 1_555 1_555
H53 C43 1_555 1_555
C44 C43 1_555 1_555
H54 C44 1_555 1_555
C45 N8 1_555 1_555
C46 C47 1_555 1_555
C47 H55 1_555 1_555
C48 C47 1_555 1_555
H56 C48 1_555 1_555
C49 C48 1_555 1_555
H57 C49 1_555 1_555
C50 C49 1_555 1_555
H58 C50 1_555 1_555
C51 N10 1_555 1_555
N11 C52 1_555 1_555
C52 C53 1_555 1_555
C53 H59 1_555 1_555
H60 C53 1_555 1_555
H61 C53 1_555 1_555
Cu2A N6 1_555 1_555
Cu3A N4 1_555 1_555
I3A Cu3 1_555 1_555
N4A Cu3 1_555 1_555
N6A Cu2 1_555 1_555
Cu2 I2 1_555 1_555
C4 C5 1_555 1_555
C10 C11 1_555 1_555
C12 C13 1_555 1_555
C17 C18 1_555 1_555
C23 C24 1_555 1_555
C25 C26 1_555 1_555
C30 C31 1_555 1_555
C36 C37 1_555 1_555
C38 C39 1_555 1_555
C40 C45 1_555 1_555
C44 C45 1_555 1_555
C46 C51 1_555 1_555
C50 C51 1_555 1_555
Cu3A I3A 1_555 1_555

#END
