
#######################################################################
#
#                 Cambridge Crystallographic Data Centre
#                                CCDC 
#
#######################################################################
#
# If this CIF has been generated from an entry in the Cambridge 
# Structural Database, then it will include bibliographic, chemical, 
# crystal, experimental, refinement or atomic coordinate data resulting 
# from the CCDC's data processing and validation procedures.
#
#######################################################################

data_POKJIJ
_symmetry_cell_setting           triclinic
_symmetry_space_group_name_H-M   'P -1'
_symmetry_Int_Tables_number      2
_space_group_name_Hall           '-P 1'
loop_
_symmetry_equiv_pos_site_id
_symmetry_equiv_pos_as_xyz
1 x,y,z
2 -x,-y,-z
_cell_length_a                   10.937(2)
_cell_length_b                   12.017(2)
_cell_length_c                   14.681(3)
_cell_angle_alpha                107.94(3)
_cell_angle_beta                 107.40(3)
_cell_angle_gamma                101.90(3)
_cell_volume                     1654.44
loop_
_atom_site_label
_atom_site_type_symbol
_atom_site_fract_x
_atom_site_fract_y
_atom_site_fract_z
C1 C 1.3053(6) 0.8234(6) 0.2989(4)
H1 H 1.3170 0.8493 0.3684
C2 C 1.1643(5) 0.7513(5) 0.1277(4)
H2 H 1.0788 0.7309 0.0769
C3 C 0.7925(6) 0.8108(5) 0.1054(4)
C4 C 0.7645(6) 0.5011(6) 0.6534(4)
H3 H 0.7859 0.4946 0.5956
C5 C 0.6334(6) 0.4911(8) 0.6435(5)
H4 H 0.5684 0.4785 0.5802
C6 C 0.6730(5) 0.5324(5) 0.9166(4)
C7 C 1.2184(6) 1.2257(5) 0.6354(4)
C8 C 1.1051(6) 0.7483(5) 0.5664(4)
C9 C 1.0751(6) 0.7039(5) 0.4513(4)
C10 C 1.2698(5) 0.7393(5) 0.0965(4)
C11 C 1.2463(5) 0.6747(5) -0.0174(4)
C12 C 1.2643(7) 1.2472(6) 0.4804(5)
H5 H 1.3144 1.3306 0.5198
C13 C 0.5989(6) 0.4998(7) 0.7273(5)
H6 H 0.5100 0.4910 0.7213
C14 C 1.3996(5) 0.7754(6) 0.1716(4)
H7 H 1.4726 0.7695 0.1526
C15 C 1.2129(5) 1.1741(5) 0.5254(4)
C16 C 1.0559(5) 0.6652(5) 0.6045(4)
H8 H 1.0000 0.5858 0.5571
C17 C 0.6986(5) 0.5219(5) 0.8205(4)
C18 C 0.8291(5) 0.5321(5) 0.8241(4)
H9 H 0.8970 0.5485 0.8872
C19 C 1.4180(6) 0.8207(6) 0.2763(4)
H10 H 1.5036 0.8482 0.3288
C20 C 1.1421(5) 1.0503(5) 0.4638(4)
H11 H 1.1072 1.0009 0.4941
C21 C 1.1870(7) 0.8697(6) 0.6373(4)
H12 H 1.2236 0.9284 0.6152
C22 C 1.1688(7) 1.0709(6) 0.3212(4)
H13 H 1.1528 1.0361 0.2510
C23 C 1.1588(7) 0.8080(6) 0.7722(4)
H14 H 1.1770 0.8292 0.8425
C24 C 1.2407(8) 1.1954(6) 0.3759(5)
H15 H 1.2725 1.2433 0.3435
C25 C 0.7458(6) 0.8537(5) 0.0187(4)
C26 C 0.8374(7) 0.9195(8) -0.0087(6)
H16 H 0.9294 0.9396 0.0295
C27 C 0.5709(7) 0.8614(9) -0.1191(6)
H17 H 0.4797 0.8430 -0.1587
C28 C 0.6691(8) 0.9265(9) -0.1398(6)
H18 H 0.6421 0.9520 -0.1942
C29 C 0.6088(7) 0.8232(7) -0.0384(6)
H19 H 0.5438 0.7781 -0.0228
C30 C 1.2111(9) 0.8984(6) 0.7412(5)
H20 H 1.2622 0.9783 0.7902
Co1 Co 1.01615(7) 0.80174(6) 0.28074(5)
Co2 Co 1.06490(7) 0.53575(7) 0.75245(5)
Gd1 Gd 0.67877(2) 0.55942(2) 0.134776(17)
N1 N 1.2676(5) 0.5520(5) 0.7512(3)
N2 N 1.2877(5) 0.5551(5) 0.6767(4)
N3 N 1.3077(7) 0.5576(7) 0.6042(5)
N4 N 1.0840(5) 0.6922(4) 0.7063(3)
N5 N 1.1790(5) 0.7912(4) 0.2277(3)
N6 N 0.8623(5) 0.5195(5) 0.7415(3)
N7 N 1.1209(5) 0.9972(4) 0.3638(3)
N8 N 0.8012(7) 0.9558(9) -0.0869(6)
O1 O 0.9161(3) 0.6094(3) 0.1995(2)
O2 O 0.7015(4) 0.7489(4) 0.1239(3)
O3 O 0.9174(4) 0.8374(4) 0.1520(3)
O4 O 1.1232(4) 1.1686(4) 0.6506(3)
O5 O 1.3151(4) 1.3221(4) 0.7010(3)
O6 O 1.1196(4) 0.7805(4) 0.4176(3)
O7 O 1.0078(4) 0.5916(4) 0.3998(3)
O8 O 0.5531(4) 0.5122(4) 0.9142(3)
O9 O 1.3427(4) 0.6428(4) -0.0335(3)
O10 O 1.1333(4) 0.6543(4) -0.0852(3)
O11 O 0.7719(4) 0.5624(4) 0.9990(3)
Co1A Co 0.98385(7) 1.19826(6) 0.71926(5)
Co2A Co 0.93510(7) 0.46425(7) 0.24755(5)
Co2_2 Co 1.06490(7) 0.53575(7) -0.24755(5)
Gd1A Gd 1.32123(2) 0.44058(2) 0.865224(17)
Gd1A_2 Gd 1.32123(2) 1.44058(2) 0.865224(17)
Gd1A_3 Gd 0.32123(2) 0.44058(2) 0.865224(17)
Gd1A_4 Gd 1.32123(2) 0.44058(2) -0.134776(17)
Gd1_2 Gd 0.67877(2) 0.55942(2) 1.134776(17)
N1A N 0.7324(5) 0.4480(5) 0.2488(3)
O1A O 1.0839(3) 0.3906(3) 0.8005(2)
O4A O 0.8768(4) 0.8314(4) 0.3494(3)
O5A O 0.6849(4) 0.6779(4) 0.2990(3)
O7A O 0.9922(4) 0.4084(4) 0.6002(3)
O8A O 0.4469(4) 0.4878(4) 0.0858(3)
O9A O 0.6573(4) 0.3572(4) 0.0335(3)
O10_2 O 1.1333(4) 0.6543(4) 0.9148(3)
O11_2 O 0.7719(4) 0.5624(4) -0.0010(3)
loop_
_geom_bond_atom_site_label_1
_geom_bond_atom_site_label_2
_geom_bond_site_symmetry_1
_geom_bond_site_symmetry_2
C1 H1 1_555 1_555
C2 H2 1_555 1_555
C3 C25 1_555 1_555
C4 H3 1_555 1_555
C5 C4 1_555 1_555
H4 C5 1_555 1_555
C6 C17 1_555 1_555
C7 C15 1_555 1_555
C8 C9 1_555 1_555
C9 O6 1_555 1_555
C10 C2 1_555 1_555
C11 C10 1_555 1_555
C12 H5 1_555 1_555
C13 C5 1_555 1_555
H6 C13 1_555 1_555
C14 C10 1_555 1_555
H7 C14 1_555 1_555
C15 C12 1_555 1_555
C16 C8 1_555 1_555
H8 C16 1_555 1_555
C17 C13 1_555 1_555
C18 C17 1_555 1_555
H9 C18 1_555 1_555
C19 C1 1_555 1_555
H10 C19 1_555 1_555
C20 C15 1_555 1_555
H11 C20 1_555 1_555
C21 C8 1_555 1_555
H12 C21 1_555 1_555
C22 H13 1_555 1_555
C23 H14 1_555 1_555
C24 C12 1_555 1_555
H15 C24 1_555 1_555
C25 C26 1_555 1_555
C26 H16 1_555 1_555
C27 H17 1_555 1_555
C28 C27 1_555 1_555
H18 C28 1_555 1_555
C29 C25 1_555 1_555
H19 C29 1_555 1_555
C30 C21 1_555 1_555
H20 C30 1_555 1_555
Co1 N5 1_555 1_555
Co2 N1 1_555 1_555
Gd1 O1 1_555 1_555
N1 N2 1_555 1_555
N2 N3 1_555 1_555
N4 C16 1_555 1_555
N5 C1 1_555 1_555
N6 C4 1_555 1_555
N7 C20 1_555 1_555
N8 C26 1_555 1_555
O1 Co1 1_555 1_555
O2 C3 1_555 1_555
O3 C3 1_555 1_555
O4 C7 1_555 1_555
O5 C7 1_555 1_555
O6 Co1 1_555 1_555
O7 C9 1_555 1_555
O8 C6 1_555 1_555
O9 C11 1_555 1_555
O10 C11 1_555 1_555
O11 C6 1_555 1_555
Co1A O4 1_555 1_555
Co2A O1 1_555 1_555
Co2_2 O10 1_555 1_555
Gd1A N1 1_555 1_555
Gd1A_2 O5 1_555 1_555
Gd1A_3 O8 1_555 1_555
Gd1A_4 O9 1_555 1_555
Gd1_2 O11 1_555 1_555
N1A Gd1 1_555 1_555
O1A Co2 1_555 1_555
O4A Co1 1_555 1_555
O5A Gd1 1_555 1_555
O7A Co2 1_555 1_555
O8A Gd1 1_555 1_555
O9A Gd1 1_555 1_555
O10_2 Co2 1_555 1_555
O11_2 Gd1 1_555 1_555
C2 N5 1_555 1_555
C14 C19 1_555 1_555
C18 N6 1_555 1_555
C22 C24 1_555 1_555
C22 N7 1_555 1_555
C23 C30 1_555 1_555
C23 N4 1_555 1_555
C27 C29 1_555 1_555
C28 N8 1_555 1_555
Co1 N7 1_555 1_555
Co1 O3 1_555 1_555
Co2 N4 1_555 1_555
Co2 N6 1_555 1_555
Gd1 O2 1_555 1_555
O7 Co2A 1_555 1_555
Co2A N1A 1_555 1_555
Gd1A O1A 1_555 1_555

#END
