
#######################################################################
#
#                 Cambridge Crystallographic Data Centre
#                                CCDC 
#
#######################################################################
#
# If this CIF has been generated from an entry in the Cambridge 
# Structural Database, then it will include bibliographic, chemical, 
# crystal, experimental, refinement or atomic coordinate data resulting 
# from the CCDC's data processing and validation procedures.
#
#######################################################################

data_POKKAC
_symmetry_cell_setting           triclinic
_symmetry_space_group_name_H-M   'P -1'
_symmetry_Int_Tables_number      2
_space_group_name_Hall           '-P 1'
loop_
_symmetry_equiv_pos_site_id
_symmetry_equiv_pos_as_xyz
1 x,y,z
2 -x,-y,-z
_cell_length_a                   10.957(2)
_cell_length_b                   11.985(2)
_cell_length_c                   14.705(3)
_cell_angle_alpha                108.08(3)
_cell_angle_beta                 107.33(3)
_cell_angle_gamma                101.67(3)
_cell_volume                     1657.39
loop_
_atom_site_label
_atom_site_type_symbol
_atom_site_fract_x
_atom_site_fract_y
_atom_site_fract_z
C1 C 0.1972(4) 0.1762(4) 0.2012(3)
H1 H 0.1857 0.1499 0.1318
C2 C 0.8291(6) 0.0721(6) 0.6400(5)
H2 H 0.8558 0.0458 0.6938
C3 C 0.7350(4) 0.4993(4) -0.1529(3)
H3 H 0.7142 0.5086 -0.0947
C4 C 0.7066(4) 0.1871(4) 0.3944(3)
C5 C 0.3369(3) 0.2491(3) 0.3729(3)
H4 H 0.4223 0.2699 0.4234
C6 C 0.1027(4) 0.2236(4) 0.3288(3)
H5 H 0.0291 0.2281 0.3471
C7 C 0.6697(3) 0.4670(3) -0.3246(3)
H6 H 0.6026 0.4530 -0.3871
C8 C 0.8249(3) 0.4666(3) -0.4174(3)
C9 C 0.2310(3) 0.2609(3) 0.4045(3)
C10 C 0.2881(3) -0.1726(3) -0.0247(3)
C11 C 0.4251(3) 0.2965(3) 0.0490(3)
C12 C 0.2550(3) 0.3235(3) 0.5177(3)
C13 C 0.8988(4) 0.4973(4) -0.2282(3)
H7 H 0.9870 0.5044 -0.2230
C14 C 0.2354(5) -0.2456(4) 0.0203(3)
H8 H 0.1841 -0.3287 -0.0189
C15 C 0.3599(3) -0.0496(3) 0.0368(3)
H9 H 0.3959 -0.0004 0.0071
C16 C 0.3935(4) 0.2508(3) -0.0662(3)
C17 C 0.8651(4) 0.5081(5) -0.1437(3)
H10 H 0.9303 0.5214 -0.0806
C18 C 0.7983(3) 0.4756(3) -0.3214(3)
C19 C 0.2610(6) -0.1917(4) 0.1252(4)
H11 H 0.2288 -0.2392 0.1577
C20 C 0.3332(4) -0.0693(4) 0.1803(3)
H12 H 0.3503 -0.0345 0.2507
C21 C 0.7541(4) 0.1463(4) 0.4815(3)
C22 C 0.3138(5) 0.1320(4) -0.1356(3)
H13 H 0.2784 0.0733 -0.1131
C23 C 0.4444(4) 0.3346(4) -0.1042(3)
H14 H 0.5014 0.4137 -0.0567
C24 C 0.0857(4) 0.1797(4) 0.2257(3)
H15 H 0.0003 0.1530 0.1736
C25 C 0.2797(4) -0.2261(3) -0.1348(3)
C26 C 0.3390(5) 0.1915(4) -0.2717(3)
H16 H 0.3192 0.1700 -0.3421
C27 C 0.6617(5) 0.0817(5) 0.5099(4)
H17 H 0.5702 0.0637 0.4726
C28 C 0.8884(4) 0.1724(5) 0.5369(4)
H18 H 0.9533 0.2134 0.5191
C29 C 0.9272(5) 0.1376(6) 0.6191(4)
H19 H 1.0182 0.1581 0.6596
C30 C 0.2879(5) 0.1023(4) -0.2397(3)
H20 H 0.2361 0.0223 -0.2881
Co1 Co 0.43473(4) 0.46335(4) -0.25235(3)
Co2 Co 0.48508(4) 0.19924(4) 0.21980(3)
H21 H 0.568(6) 0.401(5) 0.348(5)
N1 N 0.3219(3) 0.2092(3) 0.2734(2)
N2 N 0.2329(3) 0.4481(3) -0.2503(2)
N3 N 0.2128(3) 0.4463(3) -0.1751(3)
N4 N 0.1927(5) 0.4433(5) -0.1033(3)
N5 N 0.6363(3) 0.4777(3) -0.2428(2)
N6 N 0.4158(3) 0.3077(3) -0.2054(2)
N7 N 0.3806(3) 0.0030(3) 0.1367(2)
N8 N 0.6961(4) 0.0439(5) 0.5871(4)
O1 O 0.7988(3) 0.2475(3) 0.3757(2)
O2 O 0.5826(2) 0.1615(2) 0.34770(19)
O3 O 0.3744(3) -0.1706(3) -0.1512(2)
O4 O 0.1816(3) -0.3189(2) -0.1999(2)
O5 O 0.7257(2) 0.4386(3) -0.49854(18)
O6 O 0.1576(2) 0.3555(2) 0.53398(19)
O7 O 0.3672(2) 0.3442(2) 0.58557(18)
O8 O 0.3810(3) 0.2197(3) 0.0831(2)
O9 O 0.4918(3) 0.4086(2) 0.10029(19)
O10 O 0.5843(2) 0.3915(2) 0.30071(18)
O11 O 0.9437(2) 0.4865(3) -0.4148(2)
Sm1 Sm 0.822360(16) 0.439940(16) 0.365120(13)
Co1A Co 0.56527(4) 0.53665(4) 0.25235(3)
Co1_2 Co 0.43473(4) 0.46335(4) 0.74765(3)
Co2A Co 0.51492(4) -0.19924(4) -0.21980(3)
H21A H 0.432(6) 0.599(5) -0.348(5)
N2A N 0.7671(3) 0.5519(3) 0.2503(2)
O3A O 0.6256(3) 0.1706(3) 0.1512(2)
O4A O 0.8184(3) 0.3189(2) 0.1999(2)
O5_2 O 0.7257(2) 0.4386(3) 0.50146(18)
O6A O 0.8424(2) 0.6445(2) 0.46602(19)
O7_2 O 0.3672(2) 0.3442(2) -0.41443(18)
O9A O 0.5082(3) 0.5914(2) -0.10029(19)
O10A O 0.4157(2) 0.6085(2) -0.30071(18)
O11A O 1.0563(2) 0.5135(3) 0.4148(2)
Sm1_2 Sm 0.822360(16) 0.439940(16) -0.634880(13)
Sm1A Sm 1.177640(16) 0.560060(16) -0.365120(13)
Sm1A_2 Sm 0.177640(16) 0.560060(16) -0.365120(13)
Sm1A_3 Sm 0.177640(16) 0.560060(16) 0.634880(13)
Sm1A_4 Sm 0.177640(16) -0.439940(16) -0.365120(13)
loop_
_geom_bond_atom_site_label_1
_geom_bond_atom_site_label_2
_geom_bond_site_symmetry_1
_geom_bond_site_symmetry_2
C1 H1 1_555 1_555
C2 H2 1_555 1_555
C3 H3 1_555 1_555
C4 C21 1_555 1_555
C5 H4 1_555 1_555
C6 H5 1_555 1_555
C7 H6 1_555 1_555
C8 C18 1_555 1_555
C9 C5 1_555 1_555
C10 C14 1_555 1_555
C11 C16 1_555 1_555
C12 C9 1_555 1_555
C13 H7 1_555 1_555
C14 H8 1_555 1_555
C15 C10 1_555 1_555
H9 C15 1_555 1_555
C16 C22 1_555 1_555
C17 C3 1_555 1_555
H10 C17 1_555 1_555
C18 C7 1_555 1_555
C19 C14 1_555 1_555
H11 C19 1_555 1_555
C20 C19 1_555 1_555
H12 C20 1_555 1_555
C21 C27 1_555 1_555
C22 H13 1_555 1_555
C23 C16 1_555 1_555
H14 C23 1_555 1_555
C24 C1 1_555 1_555
H15 C24 1_555 1_555
C25 C10 1_555 1_555
C26 H16 1_555 1_555
C27 H17 1_555 1_555
C28 C21 1_555 1_555
H18 C28 1_555 1_555
C29 C2 1_555 1_555
H19 C29 1_555 1_555
C30 C22 1_555 1_555
H20 C30 1_555 1_555
Co1 N2 1_555 1_555
Co2 N1 1_555 1_555
H21 O10 1_555 1_555
N1 C1 1_555 1_555
N2 N3 1_555 1_555
N3 N4 1_555 1_555
N5 C3 1_555 1_555
N6 C23 1_555 1_555
N7 C15 1_555 1_555
N8 C2 1_555 1_555
O1 C4 1_555 1_555
O2 C4 1_555 1_555
O3 C25 1_555 1_555
O4 C25 1_555 1_555
O5 C8 1_555 1_555
O6 C12 1_555 1_555
O7 C12 1_555 1_555
O8 C11 1_555 1_555
O9 C11 1_555 1_555
O10 Co2 1_555 1_555
O11 C8 1_555 1_555
Sm1 O1 1_555 1_555
Co1A O9 1_555 1_555
Co1_2 O7 1_555 1_555
Co2A O3 1_555 1_555
H21A O10A 1_555 1_555
N2A Sm1 1_555 1_555
O3A Co2 1_555 1_555
O4A Sm1 1_555 1_555
O5_2 Sm1 1_555 1_555
O6A Sm1 1_555 1_555
O7_2 Co1 1_555 1_555
O9A Co1 1_555 1_555
O10A Co1 1_555 1_555
O11A Sm1 1_555 1_555
Sm1_2 O5 1_555 1_555
Sm1A O11 1_555 1_555
Sm1A_2 N2 1_555 1_555
Sm1A_3 O6 1_555 1_555
Sm1A_4 O4 1_555 1_555
C5 N1 1_555 1_555
C6 C9 1_555 1_555
C6 C24 1_555 1_555
C7 N5 1_555 1_555
C13 C17 1_555 1_555
C13 C18 1_555 1_555
C20 N7 1_555 1_555
C26 C30 1_555 1_555
C26 N6 1_555 1_555
C27 N8 1_555 1_555
C28 C29 1_555 1_555
Co1 N5 1_555 1_555
Co1 N6 1_555 1_555
Co2 N7 1_555 1_555
Co2 O2 1_555 1_555
Co2 O8 1_555 1_555
O10 Sm1 1_555 1_555
O10 Co1A 1_555 1_555
Co1A N2A 1_555 1_555
O10A Sm1A_2 1_555 1_555

#END
