
#######################################################################
#
#                 Cambridge Crystallographic Data Centre
#                                CCDC 
#
#######################################################################
#
# If this CIF has been generated from an entry in the Cambridge 
# Structural Database, then it will include bibliographic, chemical, 
# crystal, experimental, refinement or atomic coordinate data resulting 
# from the CCDC's data processing and validation procedures.
#
#######################################################################

data_POKLEI
_symmetry_cell_setting           monoclinic
_symmetry_space_group_name_H-M   'P 21/c'
_symmetry_Int_Tables_number      14
_space_group_name_Hall           '-P 2ybc'
loop_
_symmetry_equiv_pos_site_id
_symmetry_equiv_pos_as_xyz
1 x,y,z
2 -x,1/2+y,1/2-z
3 -x,-y,-z
4 x,1/2-y,1/2+z
_cell_length_a                   12.9319(14)
_cell_length_b                   16.4498(17)
_cell_length_c                   13.2232(15)
_cell_angle_alpha                90
_cell_angle_beta                 101.670(2)
_cell_angle_gamma                90
_cell_volume                     2754.79
loop_
_atom_site_label
_atom_site_type_symbol
_atom_site_fract_x
_atom_site_fract_y
_atom_site_fract_z
Eu1 Eu 0.45186(4) 0.07592(3) 0.61416(3)
F1 F 0.9121(4) -0.2638(3) 0.8327(4)
F2 F 0.8107(4) 0.1086(3) 0.5431(4)
N1 N 0.4585(5) -0.0051(4) 0.7928(5)
N2 N 0.2675(5) 0.0375(4) 0.6678(5)
O1 O 0.6331(4) 0.0216(3) 0.6574(4)
O2 O 0.6736(4) -0.0824(4) 0.5549(4)
O3 O 0.8540(5) -0.2289(4) 0.5915(6)
O4 O 0.6939(5) -0.2591(3) 0.6240(5)
H1 H 0.6585 -0.2471 0.6667
O5 O 0.4665(4) 0.2103(3) 0.2873(4)
O6 O 0.5296(4) 0.3376(3) 0.2548(4)
O7 O 0.5653(4) 0.0629(3) 0.4407(4)
O8 O 0.5538(4) 0.1782(3) 0.5317(4)
O9 O 0.3436(4) 0.2065(3) 0.6054(4)
H2 H 0.3357 0.2273 0.5454
H3 H 0.3754 0.2408 0.6489
C1 C 0.6867(6) -0.0418(5) 0.6402(7)
C2 C 0.7868(7) -0.2165(6) 0.6443(7)
C3 C 0.7691(6) -0.0745(6) 0.7331(5)
C4 C 0.8080(6) -0.1571(5) 0.7373(6)
C5 C 0.8760(7) -0.1846(6) 0.8290(7)
C6 C 0.9062(7) -0.1344(7) 0.9166(8)
H4 H 0.9490 -0.1548 0.9763
C7 C 0.8713(7) -0.0533(6) 0.9129(7)
H5 H 0.8907 -0.0198 0.9703
C8 C 0.8053(6) -0.0224(6) 0.8201(6)
H6 H 0.7858 0.0321 0.8165
C9 C 0.5423(7) 0.2635(6) 0.2892(6)
C10 C 0.5922(6) 0.1374(5) 0.4641(6)
C11 C 0.6583(7) 0.2366(5) 0.3344(6)
C12 C 0.6795(6) 0.1774(5) 0.4159(6)
C13 C 0.7875(7) 0.1628(5) 0.4596(7)
C14 C 0.8722(8) 0.1999(6) 0.4267(8)
H7 H 0.9414 0.1878 0.4583
C15 C 0.8503(8) 0.2568(6) 0.3434(8)
H8 H 0.9052 0.2814 0.3190
C16 C 0.7432(7) 0.2754(6) 0.2982(7)
H9 H 0.7282 0.3130 0.2447
C17 C 0.5529(7) -0.0243(5) 0.8553(6)
H10 H 0.6135 0.0004 0.8422
C18 C 0.5641(8) -0.0810(6) 0.9409(6)
H11 H 0.6301 -0.0923 0.9816
C19 C 0.4745(8) -0.1178(6) 0.9604(7)
H12 H 0.4799 -0.1564 1.0127
C20 C 0.3700(7) -0.0963(5) 0.8988(7)
C21 C 0.3683(7) -0.0410(5) 0.8160(6)
C22 C 0.2660(7) -0.0156(5) 0.7499(7)
C23 C 0.1707(7) -0.0485(6) 0.7756(7)
C24 C 0.0706(7) -0.0199(6) 0.7124(8)
H13 H 0.0064 -0.0385 0.7251
C25 C 0.0732(7) 0.0351(6) 0.6336(8)
H14 H 0.0103 0.0546 0.5943
C26 C 0.1717(7) 0.0623(6) 0.6119(7)
H15 H 0.1705 0.0984 0.5576
C27 C 0.2710(9) -0.1282(6) 0.9216(8)
H16 H 0.2734 -0.1641 0.9764
C28 C 0.1751(8) -0.1057(6) 0.8632(7)
H17 H 0.1131 -0.1263 0.8785
Eu1B Eu 0.54814(4) -0.07592(3) 0.38584(3)
Eu1C Eu 0.45186(4) 0.42408(3) 0.11416(3)
O2B O 0.3264(4) 0.0824(4) 0.4451(4)
O6C O 0.5296(4) 0.1624(3) 0.7548(4)
O7B O 0.4347(4) -0.0629(3) 0.5593(4)
loop_
_geom_bond_atom_site_label_1
_geom_bond_atom_site_label_2
_geom_bond_site_symmetry_1
_geom_bond_site_symmetry_2
Eu1 N1 1_555 1_555
F1 C5 1_555 1_555
F2 C13 1_555 1_555
N1 C17 1_555 1_555
N2 Eu1 1_555 1_555
O1 Eu1 1_555 1_555
O2 C1 1_555 1_555
O3 C2 1_555 1_555
O4 H1 1_555 1_555
O5 C9 1_555 1_555
O6 C9 1_555 1_555
O7 C10 1_555 1_555
O8 Eu1 1_555 1_555
O9 Eu1 1_555 1_555
H2 O9 1_555 1_555
H3 O9 1_555 1_555
C1 O1 1_555 1_555
C2 O4 1_555 1_555
C3 C1 1_555 1_555
C4 C2 1_555 1_555
C5 C4 1_555 1_555
C6 C5 1_555 1_555
H4 C6 1_555 1_555
C7 C6 1_555 1_555
H5 C7 1_555 1_555
C8 C3 1_555 1_555
H6 C8 1_555 1_555
C9 C11 1_555 1_555
C10 O8 1_555 1_555
C11 C12 1_555 1_555
C12 C10 1_555 1_555
C13 C12 1_555 1_555
C14 C13 1_555 1_555
H7 C14 1_555 1_555
C15 C14 1_555 1_555
H8 C15 1_555 1_555
C16 C11 1_555 1_555
H9 C16 1_555 1_555
C17 H10 1_555 1_555
C18 C17 1_555 1_555
H11 C18 1_555 1_555
C19 C18 1_555 1_555
H12 C19 1_555 1_555
C20 C19 1_555 1_555
C21 N1 1_555 1_555
C22 N2 1_555 1_555
C23 C22 1_555 1_555
C24 C23 1_555 1_555
H13 C24 1_555 1_555
C25 C24 1_555 1_555
H14 C25 1_555 1_555
C26 N2 1_555 1_555
H15 C26 1_555 1_555
C27 C20 1_555 1_555
H16 C27 1_555 1_555
C28 C23 1_555 1_555
H17 C28 1_555 1_555
Eu1B O2 1_555 1_555
Eu1C O6 1_555 1_555
O2B Eu1 1_555 1_555
O6C Eu1 1_555 1_555
O7B Eu1 1_555 1_555
O7 Eu1B 1_555 1_555
C3 C4 1_555 1_555
C7 C8 1_555 1_555
C15 C16 1_555 1_555
C20 C21 1_555 1_555
C21 C22 1_555 1_555
C25 C26 1_555 1_555
C27 C28 1_555 1_555

#END
