
#######################################################################
#
#                 Cambridge Crystallographic Data Centre
#                                CCDC 
#
#######################################################################
#
# If this CIF has been generated from an entry in the Cambridge 
# Structural Database, then it will include bibliographic, chemical, 
# crystal, experimental, refinement or atomic coordinate data resulting 
# from the CCDC's data processing and validation procedures.
#
#######################################################################

data_POKLIM
_symmetry_cell_setting           monoclinic
_symmetry_space_group_name_H-M   'P 21/c'
_symmetry_Int_Tables_number      14
_space_group_name_Hall           '-P 2ybc'
loop_
_symmetry_equiv_pos_site_id
_symmetry_equiv_pos_as_xyz
1 x,y,z
2 -x,1/2+y,1/2-z
3 -x,-y,-z
4 x,1/2-y,1/2+z
_cell_length_a                   12.6078(17)
_cell_length_b                   16.171(2)
_cell_length_c                   12.9635(18)
_cell_angle_alpha                90
_cell_angle_beta                 102.747(2)
_cell_angle_gamma                90
_cell_volume                     2577.87
loop_
_atom_site_label
_atom_site_type_symbol
_atom_site_fract_x
_atom_site_fract_y
_atom_site_fract_z
C1 C 0.5911(3) 0.14186(19) 0.4685(2)
C2 C 0.6772(3) 0.17813(18) 0.4172(2)
C3 C 0.7854(3) 0.1614(2) 0.4593(3)
C4 C 0.8692(3) 0.1959(2) 0.4223(3)
H1 H 0.9411 0.1827 0.4526
C5 C 0.8438(3) 0.2505(2) 0.3392(3)
H2 H 0.8991 0.2737 0.3116
C6 C 0.7369(3) 0.2711(2) 0.2963(3)
H3 H 0.7210 0.3092 0.2413
C7 C 0.6532(3) 0.23538(19) 0.3345(2)
C8 C 0.5371(3) 0.2616(2) 0.2909(2)
C9 C 0.3064(3) 0.0425(2) 0.3524(2)
C10 C 0.2252(3) 0.0764(2) 0.2583(3)
C11 C 0.1919(3) 0.0272(2) 0.1690(3)
H4 H 0.2134 -0.0279 0.1706
C12 C 0.1272(3) 0.0596(3) 0.0777(3)
H5 H 0.1062 0.0264 0.0181
C13 C 0.0934(3) 0.1411(3) 0.0746(3)
H6 H 0.0523 0.1640 0.0127
C14 C 0.1219(3) 0.1868(2) 0.1644(3)
C15 C 0.1871(2) 0.1577(2) 0.2573(3)
C16 C 0.2086(3) 0.2142(2) 0.3522(3)
C17 C 0.5499(3) -0.0313(2) 0.8565(3)
H7 H 0.6129 -0.0089 0.8417
C18 C 0.5613(3) -0.0839(2) 0.9427(3)
H8 H 0.6296 -0.0964 0.9837
C19 C 0.4706(4) -0.1167(2) 0.9655(3)
H9 H 0.4760 -0.1532 1.0219
C20 C 0.3680(3) -0.0954(2) 0.9037(3)
C21 C 0.2685(4) -0.1244(3) 0.9264(3)
H10 H 0.2704 -0.1606 0.9826
C22 C 0.1732(4) -0.1002(3) 0.8680(4)
H11 H 0.1096 -0.1188 0.8855
C23 C 0.1655(3) -0.0467(3) 0.7792(3)
C24 C 0.0670(3) -0.0196(3) 0.7169(3)
H12 H 0.0017 -0.0368 0.7319
C25 C 0.0668(3) 0.0325(3) 0.6338(4)
H13 H 0.0015 0.0518 0.5926
C26 C 0.1658(3) 0.0563(2) 0.6115(3)
H14 H 0.1648 0.0906 0.5537
C27 C 0.3645(3) -0.0425(2) 0.8177(2)
C28 C 0.2617(3) -0.0182(2) 0.7529(3)
F1 F 0.80971(17) 0.10917(15) 0.54269(19)
F2 F 0.0852(2) 0.26506(14) 0.1636(2)
La1 La 0.450532(14) 0.075147(10) 0.612808(13)
N1 N 0.4559(2) -0.01069(17) 0.7938(2)
N2 N 0.2611(2) 0.03212(18) 0.6688(2)
O1 O 0.56049(18) 0.06800(12) 0.44755(17)
O2 O 0.5574(2) 0.18455(14) 0.53408(18)
O3 O 0.46217(19) 0.21020(14) 0.28939(19)
O4 O 0.5234(2) 0.33562(13) 0.26092(18)
O5 O 0.31613(18) 0.08028(13) 0.43896(17)
O6 O 0.36054(18) -0.01915(14) 0.33545(17)
O7 O 0.1414(2) 0.22392(19) 0.4037(2)
O8 O 0.3006(2) 0.25651(16) 0.3736(2)
H15 H 0.3395 0.2415 0.3342
O9 O 0.33535(19) 0.21025(14) 0.60269(19)
La1B La 0.549468(14) -0.075147(10) 0.387192(13)
La1C La 0.450532(14) 0.424853(10) 0.112808(13)
O1B O 0.43951(18) -0.06800(12) 0.55245(17)
O4C O 0.5234(2) 0.16438(13) 0.76092(18)
O6B O 0.63946(18) 0.01915(14) 0.66455(17)
loop_
_geom_bond_atom_site_label_1
_geom_bond_atom_site_label_2
_geom_bond_site_symmetry_1
_geom_bond_site_symmetry_2
C1 C2 1_555 1_555
C2 C3 1_555 1_555
C3 C4 1_555 1_555
C4 H1 1_555 1_555
C5 C4 1_555 1_555
H2 C5 1_555 1_555
C6 C5 1_555 1_555
H3 C6 1_555 1_555
C7 C2 1_555 1_555
C8 C7 1_555 1_555
C9 C10 1_555 1_555
C10 C11 1_555 1_555
C11 H4 1_555 1_555
C12 C11 1_555 1_555
H5 C12 1_555 1_555
C13 C12 1_555 1_555
H6 C13 1_555 1_555
C14 C13 1_555 1_555
C15 C10 1_555 1_555
C16 C15 1_555 1_555
C17 H7 1_555 1_555
C18 C17 1_555 1_555
H8 C18 1_555 1_555
C19 C18 1_555 1_555
H9 C19 1_555 1_555
C20 C19 1_555 1_555
C21 C20 1_555 1_555
H10 C21 1_555 1_555
C22 C21 1_555 1_555
H11 C22 1_555 1_555
C23 C22 1_555 1_555
C24 C23 1_555 1_555
H12 C24 1_555 1_555
C25 C24 1_555 1_555
H13 C25 1_555 1_555
C26 C25 1_555 1_555
H14 C26 1_555 1_555
C27 C20 1_555 1_555
C28 C23 1_555 1_555
F1 C3 1_555 1_555
F2 C14 1_555 1_555
La1 N1 1_555 1_555
N1 C17 1_555 1_555
N2 C26 1_555 1_555
O1 C1 1_555 1_555
O2 C1 1_555 1_555
O3 C8 1_555 1_555
O4 C8 1_555 1_555
O5 C9 1_555 1_555
O6 C9 1_555 1_555
O7 C16 1_555 1_555
O8 C16 1_555 1_555
H15 O8 1_555 1_555
O9 La1 1_555 1_555
La1B O1 1_555 1_555
La1C O4 1_555 1_555
O1B La1 1_555 1_555
O4C La1 1_555 1_555
O6B La1 1_555 1_555
C6 C7 1_555 1_555
C14 C15 1_555 1_555
C27 C28 1_555 1_555
C27 N1 1_555 1_555
C28 N2 1_555 1_555
La1 N2 1_555 1_555
La1 O1 1_555 1_555
La1 O2 1_555 1_555
La1 O5 1_555 1_555
O6 La1B 1_555 1_555
La1B O1B 1_555 1_555

#END
