
#######################################################################
#
#                 Cambridge Crystallographic Data Centre
#                                CCDC 
#
#######################################################################
#
# If this CIF has been generated from an entry in the Cambridge 
# Structural Database, then it will include bibliographic, chemical, 
# crystal, experimental, refinement or atomic coordinate data resulting 
# from the CCDC's data processing and validation procedures.
#
#######################################################################

data_POKLAE
_symmetry_cell_setting           monoclinic
_symmetry_space_group_name_H-M   'P 21/c'
_symmetry_Int_Tables_number      14
_space_group_name_Hall           '-P 2ybc'
loop_
_symmetry_equiv_pos_site_id
_symmetry_equiv_pos_as_xyz
1 x,y,z
2 -x,1/2+y,1/2-z
3 -x,-y,-z
4 x,1/2-y,1/2+z
_cell_length_a                   12.541(3)
_cell_length_b                   15.909(4)
_cell_length_c                   12.774(3)
_cell_angle_alpha                90
_cell_angle_beta                 101.462(4)
_cell_angle_gamma                90
_cell_volume                     2497.77
loop_
_atom_site_label
_atom_site_type_symbol
_atom_site_fract_x
_atom_site_fract_y
_atom_site_fract_z
C1 C 0.6725(5) -0.0619(3) 0.1113(4)
H1 H 0.6723 -0.0995 0.0555
C2 C 0.5727(5) -0.0351(4) 0.1298(5)
H2 H 0.5080 -0.0540 0.0876
C3 C 0.5723(5) 0.0194(4) 0.2116(5)
H3 H 0.5065 0.0384 0.2260
C4 C 0.6702(5) 0.0471(3) 0.2741(4)
C5 C 0.6765(5) 0.1051(4) 0.3612(5)
H4 H 0.6126 0.1267 0.3769
C6 C 0.7716(5) 0.1288(4) 0.4201(5)
H5 H 0.7730 0.1669 0.4755
C7 C 0.8709(5) 0.0967(3) 0.3994(4)
C8 C 0.9729(5) 0.1183(3) 0.4616(4)
H6 H 0.9782 0.1573 0.5165
C9 C 1.0638(5) 0.0807(3) 0.4398(4)
H7 H 1.1321 0.0931 0.4804
C10 C 1.0527(4) 0.0237(3) 0.3558(4)
H8 H 1.1153 -0.0028 0.3440
C11 C 0.7664(4) 0.0155(3) 0.2493(4)
C12 C 0.8685(4) 0.0404(3) 0.3140(4)
C13 C 0.9064(4) 0.1356(3) 0.0362(3)
C14 C 0.8189(4) 0.1777(3) 0.0827(3)
C15 C 0.7120(4) 0.1633(3) 0.0383(4)
C16 C 0.6261(5) 0.2003(3) 0.0714(5)
H9 H 0.5548 0.1877 0.0390
C17 C 0.6491(5) 0.2578(4) 0.1553(5)
H10 H 0.5926 0.2836 0.1805
C18 C 0.7552(4) 0.2760(3) 0.2008(4)
H11 H 0.7699 0.3149 0.2561
C19 C 0.8414(4) 0.2372(3) 0.1654(3)
C20 C 0.9551(4) 0.2630(3) 0.2117(3)
C21 C 1.1836(4) 0.0426(3) 0.1381(4)
C22 C 1.2687(4) 0.0740(3) 0.2307(4)
C23 C 1.3049(4) 0.0211(3) 0.3175(4)
H12 H 1.2840 -0.0351 0.3131
C24 C 1.3710(5) 0.0502(4) 0.4093(4)
H13 H 1.3927 0.0142 0.4669
C25 C 1.4050(4) 0.1325(4) 0.4161(4)
H14 H 1.4477 0.1533 0.4787
C26 C 1.3744(4) 0.1832(3) 0.3285(4)
C27 C 1.3065(4) 0.1566(3) 0.2348(4)
C28 C 1.2858(4) 0.2175(3) 0.1424(4)
F1 F 0.6890(3) 0.1085(2) -0.0444(3)
F2 F 1.4116(3) 0.2630(2) 0.3330(3)
N1 N 0.7675(3) -0.0380(3) 0.1668(3)
N2 N 0.9607(3) 0.0045(2) 0.2922(3)
O1 O 0.9326(3) 0.06140(18) 0.0633(3)
O2 O 0.9469(3) 0.1755(2) -0.0311(3)
O3 O 1.0308(3) 0.2111(2) 0.2131(3)
O4 O 0.9688(3) 0.33720(19) 0.2455(3)
O5 O 1.1304(3) -0.02104(19) 0.1561(2)
O6 O 1.1702(3) 0.08336(19) 0.0524(2)
O7 O 1.1929(3) 0.2599(2) 0.1244(3)
H15 H 1.1500 0.2375 0.1565
O8 O 1.3524(3) 0.2297(3) 0.0894(3)
O9 O 0.8463(3) -0.2069(2) 0.1062(3)
H16 H 0.809(4) -0.226(3) 0.049(3)
H17 H 0.881(4) -0.246(2) 0.142(3)
Tb1 Tb 0.951653(18) -0.076272(13) 0.115457(16)
O2B O 1.0531(3) -0.1755(2) 0.0311(3)
O4A O 1.0312(3) -0.16280(19) 0.2545(3)
O6B O 0.8298(3) -0.08336(19) -0.0524(2)
Tb1A Tb 1.048347(18) 0.423728(13) 0.384543(16)
Tb1B Tb 1.048347(18) 0.076272(13) -0.115457(16)
loop_
_geom_bond_atom_site_label_1
_geom_bond_atom_site_label_2
_geom_bond_site_symmetry_1
_geom_bond_site_symmetry_2
C1 H1 1_555 1_555
C2 C1 1_555 1_555
H2 C2 1_555 1_555
C3 C2 1_555 1_555
H3 C3 1_555 1_555
C4 C3 1_555 1_555
C5 C4 1_555 1_555
H4 C5 1_555 1_555
C6 C5 1_555 1_555
H5 C6 1_555 1_555
C7 C6 1_555 1_555
C8 C7 1_555 1_555
H6 C8 1_555 1_555
C9 C8 1_555 1_555
H7 C9 1_555 1_555
C10 C9 1_555 1_555
H8 C10 1_555 1_555
C11 C4 1_555 1_555
C12 C7 1_555 1_555
C13 C14 1_555 1_555
C14 C15 1_555 1_555
C15 C16 1_555 1_555
C16 H9 1_555 1_555
C17 C16 1_555 1_555
H10 C17 1_555 1_555
C18 C17 1_555 1_555
H11 C18 1_555 1_555
C19 C14 1_555 1_555
C20 C19 1_555 1_555
C21 C22 1_555 1_555
C22 C23 1_555 1_555
C23 H12 1_555 1_555
C24 C23 1_555 1_555
H13 C24 1_555 1_555
C25 C24 1_555 1_555
H14 C25 1_555 1_555
C26 C25 1_555 1_555
C27 C22 1_555 1_555
C28 C27 1_555 1_555
F1 C15 1_555 1_555
F2 C26 1_555 1_555
N1 C1 1_555 1_555
N2 C10 1_555 1_555
O1 C13 1_555 1_555
O2 C13 1_555 1_555
O3 C20 1_555 1_555
O4 C20 1_555 1_555
O5 C21 1_555 1_555
O6 C21 1_555 1_555
O7 C28 1_555 1_555
H15 O7 1_555 1_555
O8 C28 1_555 1_555
O9 H16 1_555 1_555
H17 O9 1_555 1_555
Tb1 N1 1_555 1_555
O2B Tb1 1_555 1_555
O4A Tb1 1_555 1_555
O6B Tb1 1_555 1_555
Tb1A O4 1_555 1_555
Tb1B O2 1_555 1_555
C11 C12 1_555 1_555
C11 N1 1_555 1_555
C12 N2 1_555 1_555
C18 C19 1_555 1_555
C26 C27 1_555 1_555
N2 Tb1 1_555 1_555
O1 Tb1 1_555 1_555
O5 Tb1 1_555 1_555
O6 Tb1B 1_555 1_555
O9 Tb1 1_555 1_555

#END
