
#######################################################################
#
#                 Cambridge Crystallographic Data Centre
#                                CCDC 
#
#######################################################################
#
# If this CIF has been generated from an entry in the Cambridge 
# Structural Database, then it will include bibliographic, chemical, 
# crystal, experimental, refinement or atomic coordinate data resulting 
# from the CCDC's data processing and validation procedures.
#
#######################################################################

data_POKSOZ
_symmetry_cell_setting           monoclinic
_symmetry_space_group_name_H-M   'P 21/c'
_symmetry_Int_Tables_number      14
_space_group_name_Hall           '-P 2ybc'
loop_
_symmetry_equiv_pos_site_id
_symmetry_equiv_pos_as_xyz
1 x,y,z
2 -x,1/2+y,1/2-z
3 -x,-y,-z
4 x,1/2-y,1/2+z
_cell_length_a                   6.1156(8)
_cell_length_b                   23.426(3)
_cell_length_c                   13.4128(16)
_cell_angle_alpha                90
_cell_angle_beta                 112.610(5)
_cell_angle_gamma                90
_cell_volume                     1773.89
loop_
_atom_site_label
_atom_site_type_symbol
_atom_site_fract_x
_atom_site_fract_y
_atom_site_fract_z
Cu1 Cu 0.0000 0.5000 0.5000
Tb1 Tb 0.89942(5) 0.667269(14) 0.89141(2)
N1 N 0.5161(9) 0.7118(2) 0.7298(4)
N2 N 0.1841(8) 0.7560(2) 0.5400(4)
N3 N 0.2166(9) 0.5593(2) 0.4831(4)
N4 N 0.5612(10) 0.6397(2) 0.5007(5)
O1 O 0.9620(7) 0.7498(2) 0.8081(3)
O2 O 0.8504(9) 0.82719(19) 0.7055(4)
O3 O 0.6619(7) 0.79419(18) 0.4805(3)
O4 O 0.3122(8) 0.83777(18) 0.4338(3)
O5 O 0.8900(8) 0.6281(2) 0.7356(4)
O6 O 0.9965(9) 0.5638(2) 0.6441(4)
O7 O 0.2879(8) 0.47243(18) 0.6137(4)
O8 O 0.6364(9) 0.5045(2) 0.7242(4)
O9 O 0.5975(10) 0.5983(2) 0.8595(4)
H1 H 0.4662 0.5948 0.8061
H2 H 0.6138 0.5695 0.9003
O10 O 1.0345(9) 0.6261(2) 1.0664(4)
H3 H 0.9827 0.6163 1.1143
H4 H 1.1607 0.6452 1.0973
O11 O 1.035(2) 0.5555(6) 0.9013(9)
H5 H 1.1226 0.5264 0.9261
H6 H 1.0032 0.5571 0.8339
C1 C 0.4588(11) 0.5079(3) 0.6410(5)
C2 C 0.4292(10) 0.5567(2) 0.5647(5)
C3 C 0.6037(11) 0.5967(3) 0.5726(5)
C4 C 0.8500(11) 0.5950(3) 0.6579(5)
C5 C 0.3486(13) 0.6416(3) 0.4219(6)
H7 H 0.3143 0.6708 0.3710
C6 C 0.1755(12) 0.6014(3) 0.4131(6)
H8 H 0.0279 0.6042 0.3568
C7 C 0.8179(10) 0.7785(3) 0.7321(5)
C8 C 0.5753(10) 0.7521(2) 0.6726(5)
C9 C 0.4141(10) 0.7701(2) 0.5736(4)
C10 C 0.4721(10) 0.8040(2) 0.4911(4)
C11 C 0.1249(11) 0.7173(3) 0.5981(5)
H9 H -0.0327 0.7063 0.5766
C12 C 0.2950(11) 0.6929(3) 0.6905(5)
H10 H 0.2524 0.6630 0.7249
Tb1B Tb -0.89942(5) 0.332731(14) 0.10859(2)
N1B N -0.5161(9) 0.2882(2) 0.2702(4)
N2B N -0.1841(8) 0.2440(2) 0.4600(4)
N3B N -0.2166(9) 0.4407(2) 0.5169(4)
N4B N -0.5612(10) 0.3603(2) 0.4993(5)
O1B O -0.9620(7) 0.2502(2) 0.1919(3)
O2B O -0.8504(9) 0.17281(19) 0.2945(4)
O3B O -0.6619(7) 0.20581(18) 0.5195(3)
O4B O -0.3122(8) 0.16223(18) 0.5662(3)
O5B O -0.8900(8) 0.3719(2) 0.2644(4)
O6B O -0.9965(9) 0.4362(2) 0.3559(4)
O7B O -0.2879(8) 0.52757(18) 0.3863(4)
O8B O -0.6364(9) 0.4955(2) 0.2758(4)
O9B O -0.5975(10) 0.4017(2) 0.1405(4)
H1B H -0.4662 0.4052 0.1939
H2B H -0.6138 0.4305 0.0997
O10B O -1.0345(9) 0.3739(2) -0.0664(4)
H3B H -0.9827 0.3837 -0.1143
H4B H -1.1607 0.3548 -0.0973
O11B O -1.035(2) 0.4445(6) 0.0987(9)
H5B H -1.1226 0.4736 0.0739
H6B H -1.0032 0.4429 0.1661
C1B C -0.4588(11) 0.4921(3) 0.3590(5)
C2B C -0.4292(10) 0.4433(2) 0.4353(5)
C3B C -0.6037(11) 0.4033(3) 0.4274(5)
C4B C -0.8500(11) 0.4050(3) 0.3421(5)
C5B C -0.3486(13) 0.3584(3) 0.5781(6)
H7B H -0.3143 0.3292 0.6290
C6B C -0.1755(12) 0.3986(3) 0.5869(6)
H8B H -0.0279 0.3958 0.6432
C7B C -0.8179(10) 0.2215(3) 0.2679(5)
C8B C -0.5753(10) 0.2479(2) 0.3274(5)
C9B C -0.4141(10) 0.2299(2) 0.4264(4)
C10B C -0.4721(10) 0.1960(2) 0.5089(4)
C11B C -0.1249(11) 0.2827(3) 0.4019(5)
H9B H 0.0327 0.2937 0.4234
C12B C -0.2950(11) 0.3071(3) 0.3095(5)
H10B H -0.2524 0.3370 0.2751
Cu1_2 Cu -1.0000 0.5000 0.5000
Cu1_3 Cu 1.0000 0.5000 0.5000
Tb1A Tb -0.89942(5) 0.167269(14) 0.60859(2)
Tb1A_2 Tb 0.10058(5) 0.167269(14) 0.60859(2)
Tb1C Tb -0.10058(5) 0.832731(14) 0.39141(2)
Tb1C_2 Tb 0.89942(5) 0.832731(14) 0.39141(2)
N2A N -1.1841(8) 0.2560(2) -0.0400(4)
N2C N 1.1841(8) 0.7440(2) 1.0400(4)
O3A O -0.6619(7) 0.29419(18) 0.0195(3)
O3C O 0.6619(7) 0.70581(18) 0.9805(3)
O4A O -1.3122(8) 0.33777(18) 0.0662(3)
O4C O 1.3122(8) 0.66223(18) 0.9338(3)
O6_2 O -0.0035(9) 0.5638(2) 0.6441(4)
O6B_2 O 0.0035(9) 0.4362(2) 0.3559(4)
O12 O 0.4811(13) 0.5928(4) 0.1712(7)
H11 H 0.6169 0.6063 0.2090
H12 H 0.4692 0.5604 0.1972
O13 O 0.5000 1.0000 0.5000
H13 H 0.4581 1.0024 0.5533
H13B H 0.5419 0.9976 0.4467
H14? H 0.6082 0.9889 0.4924
loop_
_geom_bond_atom_site_label_1
_geom_bond_atom_site_label_2
_geom_bond_site_symmetry_1
_geom_bond_site_symmetry_2
Cu1 N3 1_555 1_555
Tb1 N1 1_555 1_555
N1 C8 1_555 1_555
N2 C9 1_555 1_555
N3 C2 1_555 1_555
N4 C3 1_555 1_555
O1 Tb1 1_555 1_555
O2 C7 1_555 1_555
O3 C10 1_555 1_555
O4 C10 1_555 1_555
O5 Tb1 1_555 1_555
O6 C4 1_555 1_555
O7 Cu1 1_555 1_555
O8 C1 1_555 1_555
O9 Tb1 1_555 1_555
H1 O9 1_555 1_555
H2 O9 1_555 1_555
O10 Tb1 1_555 1_555
H3 O10 1_555 1_555
H4 O10 1_555 1_555
O11 Tb1 1_555 1_555
H5 O11 1_555 1_555
H6 O11 1_555 1_555
C1 O7 1_555 1_555
C2 C1 1_555 1_555
C3 C2 1_555 1_555
C4 O5 1_555 1_555
C5 N4 1_555 1_555
H7 C5 1_555 1_555
C6 N3 1_555 1_555
H8 C6 1_555 1_555
C7 O1 1_555 1_555
C8 C7 1_555 1_555
C9 C8 1_555 1_555
C10 C9 1_555 1_555
C11 N2 1_555 1_555
H9 C11 1_555 1_555
C12 N1 1_555 1_555
H10 C12 1_555 1_555
O12 H11 1_555 1_555
H12 O12 1_555 1_555
O13 H13 1_555 1_555
Tb1B N1B 1_555 1_555
N1B C8B 1_555 1_555
N2B C9B 1_555 1_555
N3B Cu1 1_555 1_555
N4B C3B 1_555 1_555
O1B Tb1B 1_555 1_555
O2B C7B 1_555 1_555
O3B C10B 1_555 1_555
O4B C10B 1_555 1_555
O5B Tb1B 1_555 1_555
O6B C4B 1_555 1_555
O7B Cu1 1_555 1_555
O8B C1B 1_555 1_555
O9B Tb1B 1_555 1_555
H1B O9B 1_555 1_555
H2B O9B 1_555 1_555
O10B Tb1B 1_555 1_555
H3B O10B 1_555 1_555
H4B O10B 1_555 1_555
O11B Tb1B 1_555 1_555
H5B O11B 1_555 1_555
H6B O11B 1_555 1_555
C1B O7B 1_555 1_555
C2B N3B 1_555 1_555
C3B C2B 1_555 1_555
C4B O5B 1_555 1_555
C5B N4B 1_555 1_555
H7B C5B 1_555 1_555
C6B N3B 1_555 1_555
H8B C6B 1_555 1_555
C7B O1B 1_555 1_555
C8B C7B 1_555 1_555
C9B C8B 1_555 1_555
C10B C9B 1_555 1_555
C11B N2B 1_555 1_555
H9B C11B 1_555 1_555
C12B N1B 1_555 1_555
H10B C12B 1_555 1_555
Cu1_2 O6B 1_555 1_555
Cu1_3 O6 1_555 1_555
Tb1A O3B 1_555 1_555
Tb1A_2 N2B 1_555 1_555
Tb1C N2 1_555 1_555
Tb1C_2 O3 1_555 1_555
N2A Tb1B 1_555 1_555
N2C Tb1 1_555 1_555
O3A Tb1B 1_555 1_555
O3C Tb1 1_555 1_555
O4A Tb1B 1_555 1_555
O4C Tb1 1_555 1_555
O6_2 Cu1 1_555 1_555
O6B_2 Cu1 1_555 1_555
H13B O13 1_555 1_555
O4 Tb1C 1_555 1_555
C3 C4 1_555 1_555
C5 C6 1_555 1_555
C11 C12 1_555 1_555
O4B Tb1A_2 1_555 1_555
C1B C2B 1_555 1_555
C3B C4B 1_555 1_555
C5B C6B 1_555 1_555
C11B C12B 1_555 1_555

#END
