
#######################################################################
#
#                 Cambridge Crystallographic Data Centre
#                                CCDC 
#
#######################################################################
#
# If this CIF has been generated from an entry in the Cambridge 
# Structural Database, then it will include bibliographic, chemical, 
# crystal, experimental, refinement or atomic coordinate data resulting 
# from the CCDC's data processing and validation procedures.
#
#######################################################################

data_POKSUF
_symmetry_cell_setting           monoclinic
_symmetry_space_group_name_H-M   'P 21/c'
_symmetry_Int_Tables_number      14
_space_group_name_Hall           '-P 2ybc'
loop_
_symmetry_equiv_pos_site_id
_symmetry_equiv_pos_as_xyz
1 x,y,z
2 -x,1/2+y,1/2-z
3 -x,-y,-z
4 x,1/2-y,1/2+z
_cell_length_a                   6.1069(4)
_cell_length_b                   22.6025(16)
_cell_length_c                   13.5361(7)
_cell_angle_alpha                90
_cell_angle_beta                 116.246(2)
_cell_angle_gamma                90
_cell_volume                     1675.78
loop_
_atom_site_label
_atom_site_type_symbol
_atom_site_fract_x
_atom_site_fract_y
_atom_site_fract_z
Sm1 Sm 0.51113(3) 0.850904(7) 0.056947(13)
Cu1 Cu 0.5000 1.0000 0.5000
O1 O 0.4252(4) 0.77015(11) 0.1463(2)
O2 O 0.5057(5) 0.68775(11) 0.2463(2)
O3 O 0.7620(4) 0.70120(10) 0.47921(19)
O4 O 1.0755(5) 0.64486(10) 0.4964(2)
O5 O 0.5146(5) 0.89495(11) 0.2142(2)
O6 O 0.4544(5) 0.95527(13) 0.3291(2)
O7 O 0.8330(5) 1.01751(12) 0.2602(2)
O8 O 1.2067(4) 1.04091(11) 0.3893(2)
O9 O 0.8647(5) 0.91436(11) 0.1078(2)
H1 H 0.9513 0.9061 0.0836
H2 H 0.9101 0.9468 0.1373
O10 O 0.3527(5) 0.95764(11) 0.0166(2)
H3 H 0.2136 0.9577 -0.0344
H4 H 0.3348 0.9747 0.0670
O11 O 0.3901(6) 0.88391(12) -0.1313(2)
H5 H 0.4208 0.8611 -0.1711
H6 H 0.3193 0.9151 -0.1625
N1 N 0.8951(5) 0.79728(12) 0.2336(2)
N2 N 1.2330(5) 0.73738(12) 0.4171(2)
N3 N 0.8694(6) 0.86417(14) 0.4495(3)
N4 N 1.2566(5) 0.94030(13) 0.4926(2)
C1 C 0.5622(6) 0.73634(15) 0.2221(3)
C2 C 0.9311(6) 0.68812(15) 0.4564(3)
C3 C 0.8254(6) 0.75581(14) 0.2846(3)
C4 C 0.9929(6) 0.72843(14) 0.3816(3)
C5 C 1.1329(6) 0.81080(16) 0.2787(3)
H7 H 1.1861 0.8420 0.2500
C6 C 1.3008(6) 0.77914(16) 0.3671(3)
H8 H 1.4662 0.7873 0.3924
C7 C 0.5828(7) 0.92278(15) 0.3023(3)
C8 C 1.0197(7) 1.00783(15) 0.3461(3)
C9 C 0.8425(6) 0.91292(15) 0.3893(3)
C10 C 1.0324(6) 0.95145(15) 0.4090(3)
C11 C 1.0914(8) 0.85470(16) 0.5319(3)
H9 H 1.1155 0.8218 0.5767
C12 C 1.2862(7) 0.89196(16) 0.5528(3)
H10 H 1.4390 0.8831 0.6093
Sm1B Sm 0.48887(3) 1.149096(7) 0.943053(13)
O1B O 0.5748(4) 1.22985(11) 0.8537(2)
O2B O 0.4943(5) 1.31225(11) 0.7537(2)
O3B O 0.2380(4) 1.29880(10) 0.52079(19)
O4B O -0.0755(5) 1.35514(10) 0.5036(2)
O5B O 0.4854(5) 1.10505(11) 0.7858(2)
O6B O 0.5456(5) 1.04473(13) 0.6709(2)
O7B O 0.1670(5) 0.98249(12) 0.7398(2)
O8B O -0.2067(4) 0.95909(11) 0.6107(2)
O9B O 0.1353(5) 1.08564(11) 0.8922(2)
H1B H 0.0487 1.0939 0.9164
H2B H 0.0899 1.0532 0.8627
O10B O 0.6473(5) 1.04236(11) 0.9834(2)
H3B H 0.7864 1.0423 1.0344
H4B H 0.6652 1.0253 0.9330
O11B O 0.6099(6) 1.11609(12) 1.1313(2)
H5B H 0.5792 1.1389 1.1711
H6B H 0.6807 1.0849 1.1625
N1B N 0.1049(5) 1.20272(12) 0.7664(2)
N2B N -0.2330(5) 1.26262(12) 0.5829(2)
N3B N 0.1306(6) 1.13583(14) 0.5505(3)
N4B N -0.2566(5) 1.05970(13) 0.5074(2)
C1B C 0.4378(6) 1.26366(15) 0.7779(3)
C2B C 0.0689(6) 1.31188(15) 0.5436(3)
C3B C 0.1746(6) 1.24419(14) 0.7154(3)
C4B C 0.0071(6) 1.27157(14) 0.6184(3)
C5B C -0.1329(6) 1.18920(16) 0.7213(3)
H7B H -0.1861 1.1580 0.7500
C6B C -0.3008(6) 1.22086(16) 0.6329(3)
H8B H -0.4662 1.2127 0.6076
C7B C 0.4172(7) 1.07722(15) 0.6977(3)
C8B C -0.0197(7) 0.99217(15) 0.6539(3)
C9B C 0.1575(6) 1.08708(15) 0.6107(3)
C10B C -0.0324(6) 1.04855(15) 0.5910(3)
C11B C -0.0914(8) 1.14530(16) 0.4681(3)
H9B H -0.1155 1.1782 0.4233
C12B C -0.2862(7) 1.10804(16) 0.4472(3)
H10B H -0.4390 1.1169 0.3907
Sm1A Sm -0.51113(3) 1.350904(7) 0.443053(13)
Sm1A_2 Sm 0.48887(3) 1.350904(7) 0.443053(13)
Sm1C Sm 0.51113(3) 0.649096(7) 0.556947(13)
Sm1C_2 Sm 1.51113(3) 0.649096(7) 0.556947(13)
Cu1_2 Cu -0.5000 1.0000 0.5000
Cu1_3 Cu 1.5000 1.0000 0.5000
O3A O 0.2380(4) 1.20120(10) 1.02079(19)
O3C O 0.7620(4) 0.79880(10) -0.02079(19)
O4A O 0.9245(5) 1.14486(10) 1.0036(2)
O4C O 0.0755(5) 0.85514(10) -0.0036(2)
O8_2 O 0.2067(4) 1.04091(11) 0.3893(2)
O8B_2 O 0.7933(4) 0.95909(11) 0.6107(2)
N2A N 0.7670(5) 1.23738(12) 1.0829(2)
N2C N 0.2330(5) 0.76262(12) -0.0829(2)
N4_2 N 0.2566(5) 0.94030(13) 0.4926(2)
N4B_2 N 0.7434(5) 1.05970(13) 0.5074(2)
O12 O 0.8159(6) 0.97388(16) 0.8595(3)
loop_
_geom_bond_atom_site_label_1
_geom_bond_atom_site_label_2
_geom_bond_site_symmetry_1
_geom_bond_site_symmetry_2
Sm1 O1 1_555 1_555
Cu1 O6 1_555 1_555
O1 C1 1_555 1_555
O2 C1 1_555 1_555
O3 C2 1_555 1_555
O4 C2 1_555 1_555
O5 Sm1 1_555 1_555
O6 C7 1_555 1_555
O7 C8 1_555 1_555
O8 C8 1_555 1_555
O9 Sm1 1_555 1_555
H1 O9 1_555 1_555
H2 O9 1_555 1_555
O10 Sm1 1_555 1_555
H3 O10 1_555 1_555
H4 O10 1_555 1_555
O11 Sm1 1_555 1_555
H5 O11 1_555 1_555
H6 O11 1_555 1_555
N1 Sm1 1_555 1_555
N2 C4 1_555 1_555
N3 C9 1_555 1_555
N4 C10 1_555 1_555
C1 C3 1_555 1_555
C2 C4 1_555 1_555
C3 N1 1_555 1_555
C4 C3 1_555 1_555
C5 N1 1_555 1_555
H7 C5 1_555 1_555
C6 N2 1_555 1_555
H8 C6 1_555 1_555
C7 O5 1_555 1_555
C8 C10 1_555 1_555
C9 C7 1_555 1_555
C10 C9 1_555 1_555
C11 N3 1_555 1_555
H9 C11 1_555 1_555
C12 N4 1_555 1_555
H10 C12 1_555 1_555
Sm1B O1B 1_555 1_555
O1B C1B 1_555 1_555
O2B C1B 1_555 1_555
O3B C2B 1_555 1_555
O4B C2B 1_555 1_555
O5B Sm1B 1_555 1_555
O6B Cu1 1_555 1_555
O7B C8B 1_555 1_555
O8B C8B 1_555 1_555
O9B Sm1B 1_555 1_555
H1B O9B 1_555 1_555
H2B O9B 1_555 1_555
O10B Sm1B 1_555 1_555
H3B O10B 1_555 1_555
H4B O10B 1_555 1_555
O11B Sm1B 1_555 1_555
H5B O11B 1_555 1_555
H6B O11B 1_555 1_555
N1B Sm1B 1_555 1_555
N2B C4B 1_555 1_555
N3B C9B 1_555 1_555
N4B C10B 1_555 1_555
C1B C3B 1_555 1_555
C2B C4B 1_555 1_555
C3B N1B 1_555 1_555
C4B C3B 1_555 1_555
C5B N1B 1_555 1_555
H7B C5B 1_555 1_555
C6B N2B 1_555 1_555
H8B C6B 1_555 1_555
C7B O5B 1_555 1_555
C8B C10B 1_555 1_555
C9B C7B 1_555 1_555
C10B C9B 1_555 1_555
C11B N3B 1_555 1_555
H9B C11B 1_555 1_555
C12B N4B 1_555 1_555
H10B C12B 1_555 1_555
Sm1A O4B 1_555 1_555
Sm1A_2 O3B 1_555 1_555
Sm1C O3 1_555 1_555
Sm1C_2 O4 1_555 1_555
Cu1_2 O8B 1_555 1_555
Cu1_3 O8 1_555 1_555
O3A Sm1B 1_555 1_555
O3C Sm1 1_555 1_555
O4A Sm1B 1_555 1_555
O4C Sm1 1_555 1_555
O8_2 Cu1 1_555 1_555
O8B_2 Cu1 1_555 1_555
N2A Sm1B 1_555 1_555
N2C Sm1 1_555 1_555
N4_2 Cu1 1_555 1_555
N4B_2 Cu1 1_555 1_555
N2 Sm1C_2 1_555 1_555
N4 Cu1_3 1_555 1_555
C5 C6 1_555 1_555
C11 C12 1_555 1_555
O6B C7B 1_555 1_555
N2B Sm1A 1_555 1_555
N4B Cu1_2 1_555 1_555
C5B C6B 1_555 1_555
C11B C12B 1_555 1_555

#END
