
#######################################################################
#
#                 Cambridge Crystallographic Data Centre
#                                CCDC 
#
#######################################################################
#
# If this CIF has been generated from an entry in the Cambridge 
# Structural Database, then it will include bibliographic, chemical, 
# crystal, experimental, refinement or atomic coordinate data resulting 
# from the CCDC's data processing and validation procedures.
#
#######################################################################

data_POKTAM
_symmetry_cell_setting           monoclinic
_symmetry_space_group_name_H-M   'P 21/c'
_symmetry_Int_Tables_number      14
_space_group_name_Hall           '-P 2ybc'
loop_
_symmetry_equiv_pos_site_id
_symmetry_equiv_pos_as_xyz
1 x,y,z
2 -x,1/2+y,1/2-z
3 -x,-y,-z
4 x,1/2-y,1/2+z
_cell_length_a                   6.1389(7)
_cell_length_b                   22.728(2)
_cell_length_c                   13.6344(12)
_cell_angle_alpha                90
_cell_angle_beta                 116.340(4)
_cell_angle_gamma                90
_cell_volume                     1704.83
loop_
_atom_site_label
_atom_site_type_symbol
_atom_site_fract_x
_atom_site_fract_y
_atom_site_fract_z
Pr1 Pr 0.98659(5) 0.851514(11) 0.44359(2)
Cu1 Cu 1.0000 1.0000 0.0000
C1 C 0.5682(9) 0.8115(2) 0.5461(4)
C2 C 0.5070(9) 0.7713(2) 0.6194(4)
C3 C 0.6724(9) 0.7441(2) 0.7160(4)
C4 C 0.9363(10) 0.7634(2) 0.7779(4)
C5 C 0.3674(9) 0.6893(2) 0.7216(4)
H1 H 0.3145 0.6586 0.7507
C6 C 0.1986(9) 0.7210(2) 0.6324(4)
H2 H 0.0339 0.7127 0.6066
C7 C 0.4051(11) 0.8546(2) -0.0307(5)
H3 H 0.3798 0.8215 -0.0744
C8 C 0.2143(10) 0.8919(2) -0.0512(4)
H4 H 0.0623 0.8832 -0.1076
C9 C 0.4643(9) 0.9518(2) 0.0897(4)
C10 C 0.6552(9) 0.9133(2) 0.1101(4)
C11 C 0.9141(9) 0.9235(2) 0.1956(4)
C12 C 0.4796(9) 1.0080(2) 0.1521(4)
N1 N 0.2679(8) 0.76285(18) 0.5832(3)
N2 N 0.6037(7) 0.70269(18) 0.7656(3)
N3 N 0.2420(7) 0.94024(18) 0.0079(3)
N4 N 0.6277(8) 0.8647(2) 0.0506(3)
O1 O 0.4303(6) 0.85509(15) 0.5084(3)
O2 O 0.7357(6) 0.79808(16) 0.5225(3)
O3 O 0.9912(8) 0.81196(17) 0.7540(3)
O4 O 1.0730(7) 0.72989(17) 0.8520(3)
O5 O 0.2904(6) 1.04061(15) 0.1092(3)
O6 O 0.6657(7) 1.01816(18) 0.2360(3)
O7 O 0.9831(7) 0.89611(17) 0.2850(3)
O8 O 1.0446(7) 0.95569(19) 0.1702(3)
O9 O 0.6262(8) 0.91539(18) 0.3921(4)
O10 O 1.1049(9) 0.88474(19) 0.6351(3)
O11 O 1.1525(9) 0.95864(17) 0.4844(4)
H5 H 0.535(13) 0.907(3) 0.420(7)
H6 H 0.626(15) 0.9515(8) 0.382(7)
H7 H 1.200(11) 0.857(2) 0.663(7)
H8 H 1.169(12) 0.9167(16) 0.662(6)
H9 H 1.084(15) 0.973(3) 0.518(6)
H10 H 1.198(15) 0.968(3) 0.439(6)
Pr1B Pr 0.01341(5) 1.148486(11) -0.44359(2)
C1B C 0.4318(9) 1.1885(2) -0.5461(4)
C2B C 0.4930(9) 1.2287(2) -0.6194(4)
C3B C 0.3276(9) 1.2559(2) -0.7160(4)
C4B C 0.0637(10) 1.2366(2) -0.7779(4)
C5B C 0.6326(9) 1.3107(2) -0.7216(4)
H1B H 0.6855 1.3414 -0.7507
C6B C 0.8014(9) 1.2790(2) -0.6324(4)
H2B H 0.9661 1.2873 -0.6066
C7B C 0.5949(11) 1.1454(2) 0.0307(5)
H3B H 0.6202 1.1785 0.0744
C8B C 0.7857(10) 1.1081(2) 0.0512(4)
H4B H 0.9377 1.1168 0.1076
C9B C 0.5357(9) 1.0482(2) -0.0897(4)
C10B C 0.3448(9) 1.0867(2) -0.1101(4)
C11B C 0.0859(9) 1.0765(2) -0.1956(4)
C12B C 0.5204(9) 0.9920(2) -0.1521(4)
N1B N 0.7321(8) 1.23715(18) -0.5832(3)
N2B N 0.3963(7) 1.29731(18) -0.7656(3)
N3B N 0.7580(7) 1.05976(18) -0.0079(3)
N4B N 0.3723(8) 1.1353(2) -0.0506(3)
O1B O 0.5697(6) 1.14491(15) -0.5084(3)
O2B O 0.2643(6) 1.20192(16) -0.5225(3)
O3B O 0.0088(8) 1.18804(17) -0.7540(3)
O4B O -0.0730(7) 1.27011(17) -0.8520(3)
O5B O 0.7096(6) 0.95939(15) -0.1092(3)
O6B O 0.3343(7) 0.98184(18) -0.2360(3)
O7B O 0.0169(7) 1.10389(17) -0.2850(3)
O8B O -0.0446(7) 1.04431(19) -0.1702(3)
O9B O 0.3738(8) 1.08461(18) -0.3921(4)
O10B O -0.1049(9) 1.11526(19) -0.6351(3)
O11B O -0.1525(9) 1.04136(17) -0.4844(4)
H5B H 0.465(13) 1.093(3) -0.420(7)
H6B H 0.374(15) 1.0485(8) -0.382(7)
H7B H -0.200(11) 1.143(2) -0.663(7)
H8B H -0.169(12) 1.0833(16) -0.662(6)
H9B H -0.084(15) 1.027(3) -0.518(6)
H10B H -0.198(15) 1.032(3) -0.439(6)
Pr1_2 Pr -0.01341(5) 0.851514(11) 0.44359(2)
Pr1A Pr 0.01341(5) 1.351514(11) -0.94359(2)
Pr1B_2 Pr 1.01341(5) 1.148486(11) -0.44359(2)
Pr1C Pr 0.98659(5) 0.648486(11) 0.94359(2)
Cu1_2 Cu 0.0000 1.0000 0.0000
N1_2 N 1.2679(8) 0.76285(18) 0.5832(3)
N1B_2 N -0.2679(8) 1.23715(18) -0.5832(3)
N2A N 0.3963(7) 1.20269(18) -0.2656(3)
N2C N 0.6037(7) 0.79731(18) 0.2656(3)
N3_2 N 1.2420(7) 0.94024(18) 0.0079(3)
O1_2 O 1.4303(6) 0.85509(15) 0.5084(3)
O1B_2 O -0.4303(6) 1.14491(15) -0.5084(3)
O4A O -0.0730(7) 1.22989(17) -0.3520(3)
O4C O 1.0730(7) 0.77011(17) 0.3520(3)
O5_2 O 1.2904(6) 1.04061(15) 0.1092(3)
O8B_2 O 0.9554(7) 1.04431(19) -0.1702(3)
O12 O 0.6853(10) 0.9751(3) 0.6416(4)
H11 H 0.757(14) 0.992(3) 0.701(3)
H12 H 0.583(12) 0.951(3) 0.640(6)
loop_
_geom_bond_atom_site_label_1
_geom_bond_atom_site_label_2
_geom_bond_site_symmetry_1
_geom_bond_site_symmetry_2
Pr1 O2 1_555 1_555
Cu1 O8 1_555 1_555
C1 C2 1_555 1_555
C2 C3 1_555 1_555
C3 C4 1_555 1_555
C4 O3 1_555 1_555
C5 H1 1_555 1_555
C6 C5 1_555 1_555
H2 C6 1_555 1_555
C7 H3 1_555 1_555
C8 C7 1_555 1_555
H4 C8 1_555 1_555
C9 C10 1_555 1_555
C10 C11 1_555 1_555
C11 O7 1_555 1_555
C12 C9 1_555 1_555
N1 C2 1_555 1_555
N2 C3 1_555 1_555
N3 C8 1_555 1_555
N4 C7 1_555 1_555
O1 C1 1_555 1_555
O2 C1 1_555 1_555
O4 C4 1_555 1_555
O5 C12 1_555 1_555
O6 C12 1_555 1_555
O7 Pr1 1_555 1_555
O8 C11 1_555 1_555
O9 Pr1 1_555 1_555
O10 Pr1 1_555 1_555
O11 Pr1 1_555 1_555
H5 O9 1_555 1_555
H6 O9 1_555 1_555
H7 O10 1_555 1_555
H8 O10 1_555 1_555
H9 O11 1_555 1_555
H10 O11 1_555 1_555
O12 H11 1_555 1_555
H12 O12 1_555 1_555
Pr1B O2B 1_555 1_555
C1B C2B 1_555 1_555
C2B C3B 1_555 1_555
C3B C4B 1_555 1_555
C4B O3B 1_555 1_555
C5B H1B 1_555 1_555
C6B C5B 1_555 1_555
H2B C6B 1_555 1_555
C7B H3B 1_555 1_555
C8B C7B 1_555 1_555
H4B C8B 1_555 1_555
C9B C10B 1_555 1_555
C10B C11B 1_555 1_555
C11B O7B 1_555 1_555
C12B C9B 1_555 1_555
N1B C2B 1_555 1_555
N2B C3B 1_555 1_555
N3B Cu1 1_555 1_555
N4B C7B 1_555 1_555
O1B C1B 1_555 1_555
O2B C1B 1_555 1_555
O4B C4B 1_555 1_555
O5B Cu1 1_555 1_555
O6B C12B 1_555 1_555
O7B Pr1B 1_555 1_555
O8B C11B 1_555 1_555
O9B Pr1B 1_555 1_555
O10B Pr1B 1_555 1_555
O11B Pr1B 1_555 1_555
H5B O9B 1_555 1_555
H6B O9B 1_555 1_555
H7B O10B 1_555 1_555
H8B O10B 1_555 1_555
H9B O11B 1_555 1_555
H10B O11B 1_555 1_555
Pr1_2 N1 1_555 1_555
Pr1A N2B 1_555 1_555
Pr1B_2 N1B 1_555 1_555
Pr1C N2 1_555 1_555
Cu1_2 N3 1_555 1_555
N1_2 Pr1 1_555 1_555
N1B_2 Pr1B 1_555 1_555
N2A Pr1B 1_555 1_555
N2C Pr1 1_555 1_555
N3_2 Cu1 1_555 1_555
O1_2 Pr1 1_555 1_555
O1B_2 Pr1B 1_555 1_555
O4A Pr1B 1_555 1_555
O4C Pr1 1_555 1_555
O5_2 Cu1 1_555 1_555
O8B_2 Cu1 1_555 1_555
C5 N2 1_555 1_555
C6 N1 1_555 1_555
C9 N3 1_555 1_555
C10 N4 1_555 1_555
O1 Pr1_2 1_555 1_555
O4 Pr1C 1_555 1_555
O5 Cu1_2 1_555 1_555
C5B N2B 1_555 1_555
C6B N1B 1_555 1_555
C8B N3B 1_555 1_555
C9B N3B 1_555 1_555
C10B N4B 1_555 1_555
C12B O5B 1_555 1_555
O1B Pr1B_2 1_555 1_555
O4B Pr1A 1_555 1_555
O8B Cu1_2 1_555 1_555

#END
