
#######################################################################
#
#                 Cambridge Crystallographic Data Centre
#                                CCDC 
#
#######################################################################
#
# If this CIF has been generated from an entry in the Cambridge 
# Structural Database, then it will include bibliographic, chemical, 
# crystal, experimental, refinement or atomic coordinate data resulting 
# from the CCDC's data processing and validation procedures.
#
#######################################################################

data_POKTOA
_symmetry_cell_setting           monoclinic
_symmetry_space_group_name_H-M   'P 21/c'
_symmetry_Int_Tables_number      14
_space_group_name_Hall           '-P 2ybc'
loop_
_symmetry_equiv_pos_site_id
_symmetry_equiv_pos_as_xyz
1 x,y,z
2 -x,1/2+y,1/2-z
3 -x,-y,-z
4 x,1/2-y,1/2+z
_cell_length_a                   6.1635(6)
_cell_length_b                   22.826(2)
_cell_length_c                   13.7123(11)
_cell_angle_alpha                90
_cell_angle_beta                 116.356(3)
_cell_angle_gamma                90
_cell_volume                     1728.63
loop_
_atom_site_label
_atom_site_type_symbol
_atom_site_fract_x
_atom_site_fract_y
_atom_site_fract_z
La1 La 0.48500(3) 0.647953(8) 0.443696(15)
Cu1 Cu 0.5000 0.5000 0.0000
O1 O 0.5735(5) 0.73017(12) 0.3505(2)
O2 O 0.1178(5) 0.58328(12) 0.3921(2)
O3 O 0.4857(5) 0.81250(12) 0.2541(2)
O4 O 0.6531(6) 0.54001(12) 0.4838(2)
O5 O 0.2346(4) 0.79729(11) 0.0234(2)
O6 O 0.6087(6) 0.61436(12) 0.6381(2)
H1 H 0.5559 0.6439 0.6698
H2 H 0.7065 0.5812 0.6805
O7 O -0.0665(5) 0.85533(10) 0.0108(2)
O8 O 0.4780(5) 0.60283(12) 0.2826(2)
O9 O 0.5408(5) 0.54401(13) 0.1685(2)
O10 O 0.1648(5) 0.48170(12) 0.2333(2)
O11 O -0.2093(4) 0.45982(10) 0.1086(2)
N1 N -0.2575(5) 0.55938(12) 0.0086(2)
N2 N 0.1251(6) 0.63477(13) 0.0505(3)
N3 N 0.1018(5) 0.70299(12) 0.2651(2)
N4 N -0.2323(5) 0.76211(13) 0.0836(2)
C1 C 0.4330(7) 0.76386(15) 0.2767(3)
C2 C 0.1725(6) 0.74434(14) 0.2160(3)
C3 C 0.0064(6) 0.77117(14) 0.1199(3)
C4 C 0.0694(6) 0.81140(15) 0.0472(3)
C5 C -0.3004(7) 0.72056(16) 0.1323(3)
H3 H -0.4643 0.7121 0.1063
C6 C -0.1342(7) 0.68964(17) 0.2206(3)
H4 H -0.1871 0.6591 0.2496
C7 C 0.4104(6) 0.57547(15) 0.1945(3)
C8 C 0.1550(6) 0.58595(15) 0.1095(3)
C9 C -0.0368(6) 0.54797(14) 0.0892(3)
C10 C -0.0242(7) 0.49176(15) 0.1497(3)
C11 C -0.2892(7) 0.60769(16) -0.0516(3)
H5 H -0.4408 0.6163 -0.1077
C12 C -0.0962(8) 0.64471(16) -0.0303(3)
H6 H -0.1206 0.6778 -0.0735
La1B La -0.48500(3) 0.352047(8) -0.443696(15)
O1B O -0.5735(5) 0.26983(12) -0.3505(2)
O2B O -0.1178(5) 0.41672(12) -0.3921(2)
O3B O -0.4857(5) 0.18750(12) -0.2541(2)
O4B O -0.6531(6) 0.45999(12) -0.4838(2)
O5B O -0.2346(4) 0.20271(11) -0.0234(2)
O6B O -0.6087(6) 0.38564(12) -0.6381(2)
H1B H -0.5559 0.3561 -0.6698
H2B H -0.7065 0.4188 -0.6805
O7B O 0.0665(5) 0.14467(10) -0.0108(2)
O8B O -0.4780(5) 0.39717(12) -0.2826(2)
O9B O -0.5408(5) 0.45599(13) -0.1685(2)
O10B O -0.1648(5) 0.51830(12) -0.2333(2)
O11B O 0.2093(4) 0.54018(10) -0.1086(2)
N1B N 0.2575(5) 0.44062(12) -0.0086(2)
N2B N -0.1251(6) 0.36523(13) -0.0505(3)
N3B N -0.1018(5) 0.29701(12) -0.2651(2)
N4B N 0.2323(5) 0.23789(13) -0.0836(2)
C1B C -0.4330(7) 0.23614(15) -0.2767(3)
C2B C -0.1725(6) 0.25566(14) -0.2160(3)
C3B C -0.0064(6) 0.22883(14) -0.1199(3)
C4B C -0.0694(6) 0.18860(15) -0.0472(3)
C5B C 0.3004(7) 0.27944(16) -0.1323(3)
H3B H 0.4643 0.2879 -0.1063
C6B C 0.1342(7) 0.31036(17) -0.2206(3)
H4B H 0.1871 0.3409 -0.2496
C7B C -0.4104(6) 0.42453(15) -0.1945(3)
C8B C -0.1550(6) 0.41405(15) -0.1095(3)
C9B C 0.0368(6) 0.45203(14) -0.0892(3)
C10B C 0.0242(7) 0.50824(15) -0.1497(3)
C11B C 0.2892(7) 0.39231(16) 0.0516(3)
H5B H 0.4408 0.3837 0.1077
C12B C 0.0962(8) 0.35529(16) 0.0303(3)
H6B H 0.1206 0.3222 0.0735
La1A La -0.48500(3) 0.147953(8) 0.056304(15)
La1A_2 La 0.51500(3) 0.147953(8) 0.056304(15)
La1C La -0.51500(3) 0.852047(8) -0.056304(15)
La1C_2 La 0.48500(3) 0.852047(8) -0.056304(15)
Cu1_2 Cu -0.5000 0.5000 0.0000
O5A O -0.2346(4) 0.29729(11) -0.5234(2)
O5C O 0.2346(4) 0.70271(11) 0.5234(2)
O7A O -0.9335(5) 0.35533(10) -0.5108(2)
O7C O 0.9335(5) 0.64467(10) 0.5108(2)
O9B_2 O 0.4592(5) 0.45599(13) -0.1685(2)
O11_2 O 0.7907(4) 0.45982(10) 0.1086(2)
N1_2 N 0.7425(5) 0.55938(12) 0.0086(2)
N4A N -0.7677(5) 0.26211(13) -0.5836(2)
N4C N 0.7677(5) 0.73789(13) 0.5836(2)
O12 O 0.1843(6) 0.97651(16) 0.1426(3)
H7 H 0.1452 0.9442 0.1575
H8 H 0.2640 0.9753 0.2131
loop_
_geom_bond_atom_site_label_1
_geom_bond_atom_site_label_2
_geom_bond_site_symmetry_1
_geom_bond_site_symmetry_2
La1 O1 1_555 1_555
Cu1 O9 1_555 1_555
O1 C1 1_555 1_555
O2 La1 1_555 1_555
O3 C1 1_555 1_555
O4 La1 1_555 1_555
O5 C4 1_555 1_555
O6 La1 1_555 1_555
H1 O6 1_555 1_555
H2 O6 1_555 1_555
O7 C4 1_555 1_555
O8 La1 1_555 1_555
O9 C7 1_555 1_555
O10 C10 1_555 1_555
O11 C10 1_555 1_555
N1 C9 1_555 1_555
N2 C8 1_555 1_555
N3 La1 1_555 1_555
N4 C3 1_555 1_555
C1 C2 1_555 1_555
C2 N3 1_555 1_555
C3 C2 1_555 1_555
C4 C3 1_555 1_555
C5 N4 1_555 1_555
H3 C5 1_555 1_555
C6 N3 1_555 1_555
H4 C6 1_555 1_555
C7 O8 1_555 1_555
C8 C7 1_555 1_555
C9 C8 1_555 1_555
C10 C9 1_555 1_555
C11 N1 1_555 1_555
H5 C11 1_555 1_555
C12 N2 1_555 1_555
H6 C12 1_555 1_555
O12 H7 1_555 1_555
H8 O12 1_555 1_555
La1B O1B 1_555 1_555
O1B C1B 1_555 1_555
O2B La1B 1_555 1_555
O3B C1B 1_555 1_555
O4B La1B 1_555 1_555
O5B C4B 1_555 1_555
O6B La1B 1_555 1_555
H1B O6B 1_555 1_555
H2B O6B 1_555 1_555
O7B C4B 1_555 1_555
O8B La1B 1_555 1_555
O9B C7B 1_555 1_555
O10B C10B 1_555 1_555
O11B Cu1 1_555 1_555
N1B Cu1 1_555 1_555
N2B C8B 1_555 1_555
N3B La1B 1_555 1_555
N4B C3B 1_555 1_555
C1B C2B 1_555 1_555
C2B N3B 1_555 1_555
C3B C2B 1_555 1_555
C4B C3B 1_555 1_555
C5B N4B 1_555 1_555
H3B C5B 1_555 1_555
C6B N3B 1_555 1_555
H4B C6B 1_555 1_555
C7B O8B 1_555 1_555
C8B C7B 1_555 1_555
C9B N1B 1_555 1_555
C10B O11B 1_555 1_555
C11B N1B 1_555 1_555
H5B C11B 1_555 1_555
C12B N2B 1_555 1_555
H6B C12B 1_555 1_555
La1A O5B 1_555 1_555
La1A_2 O7B 1_555 1_555
La1C O7 1_555 1_555
La1C_2 O5 1_555 1_555
Cu1_2 O11 1_555 1_555
O5A La1B 1_555 1_555
O5C La1 1_555 1_555
O7A La1B 1_555 1_555
O7C La1 1_555 1_555
O9B_2 Cu1 1_555 1_555
O11_2 Cu1 1_555 1_555
N1_2 Cu1 1_555 1_555
N4A La1B 1_555 1_555
N4C La1 1_555 1_555
N1 Cu1_2 1_555 1_555
N4 La1C 1_555 1_555
C5 C6 1_555 1_555
C11 C12 1_555 1_555
O9B Cu1_2 1_555 1_555
N4B La1A_2 1_555 1_555
C5B C6B 1_555 1_555
C8B C9B 1_555 1_555
C9B C10B 1_555 1_555
C11B C12B 1_555 1_555

#END
