
#######################################################################
#
#                 Cambridge Crystallographic Data Centre
#                                CCDC 
#
#######################################################################
#
# If this CIF has been generated from an entry in the Cambridge 
# Structural Database, then it will include bibliographic, chemical, 
# crystal, experimental, refinement or atomic coordinate data resulting 
# from the CCDC's data processing and validation procedures.
#
#######################################################################

data_POKTEQ
_symmetry_cell_setting           monoclinic
_symmetry_space_group_name_H-M   'P 21/c'
_symmetry_Int_Tables_number      14
_space_group_name_Hall           '-P 2ybc'
loop_
_symmetry_equiv_pos_site_id
_symmetry_equiv_pos_as_xyz
1 x,y,z
2 -x,1/2+y,1/2-z
3 -x,-y,-z
4 x,1/2-y,1/2+z
_cell_length_a                   6.128(4)
_cell_length_b                   22.675(15)
_cell_length_c                   13.616(7)
_cell_angle_alpha                90
_cell_angle_beta                 116.43(2)
_cell_angle_gamma                90
_cell_volume                     1694.22
loop_
_atom_site_label
_atom_site_type_symbol
_atom_site_fract_x
_atom_site_fract_y
_atom_site_fract_z
Nd1 Nd 0.48731(10) 0.14870(3) 0.94335(5)
Cu1 Cu 0.5000 0.0000 0.5000
O1 O 0.4839(12) 0.1044(4) 0.7850(6)
O2 O 0.5457(12) 0.0446(4) 0.6704(6)
O3 O -0.2095(12) -0.0408(3) 0.6084(6)
O4 O 0.1648(14) -0.0185(4) 0.7354(6)
O5 O 0.5745(13) 0.2300(4) 0.8526(6)
O6 O 0.4919(14) 0.3117(4) 0.7527(6)
O7 O 0.2368(13) 0.2986(4) 0.5216(5)
O8 O -0.0730(13) 0.3550(4) 0.5049(6)
O9 O 0.6492(14) 0.0419(4) 0.9835(6)
H1 H 0.7735 0.0569 1.0328
H2 H 0.6748 0.0196 0.9415
O10 O 0.6081(15) 0.1155(4) 1.1351(6)
H3 H 0.5301 0.1377 1.1562
H4 H 0.7524 0.1102 1.1789
O11 O 0.1296(12) 0.0857(3) 0.8916(6)
H5 H 0.0545 0.0920 0.9285
H6 H 0.1056 0.0526 0.8627
N1 N -0.2572(14) 0.0603(4) 0.5082(6)
N2 N 0.1293(15) 0.1350(4) 0.5509(7)
N3 N 0.1045(15) 0.2025(4) 0.7650(6)
N4 N -0.2330(15) 0.2606(4) 0.5815(6)
C1 C 0.4148(18) 0.0762(5) 0.6972(9)
C2 C 0.1568(18) 0.0873(4) 0.6103(8)
C3 C -0.0368(18) 0.0488(5) 0.5900(7)
C4 C -0.025(2) -0.0080(5) 0.6513(9)
C5 C -0.286(2) 0.1084(5) 0.4481(8)
H7 H -0.4381 0.1170 0.3911
C6 C -0.095(2) 0.1453(5) 0.4693(8)
H8 H -0.1194 0.1786 0.4259
C7 C 0.436(2) 0.2633(6) 0.7764(8)
C8 C 0.1746(18) 0.2442(4) 0.7139(7)
C9 C -0.1315(19) 0.1904(5) 0.7237(8)
H9 H -0.1847 0.1617 0.7569
C10 C -0.3016(19) 0.2199(5) 0.6312(8)
H10 H -0.4661 0.2107 0.6043
C11 C 0.0035(19) 0.2737(4) 0.6201(8)
C12 C 0.0681(19) 0.3127(6) 0.5457(8)
Nd1B Nd -0.48731(10) -0.14870(3) 0.05665(5)
O1B O -0.4839(12) -0.1044(4) 0.2150(6)
O2B O -0.5457(12) -0.0446(4) 0.3296(6)
O3B O 0.2095(12) 0.0408(3) 0.3916(6)
O4B O -0.1648(14) 0.0185(4) 0.2646(6)
O5B O -0.5745(13) -0.2300(4) 0.1474(6)
O6B O -0.4919(14) -0.3117(4) 0.2473(6)
O7B O -0.2368(13) -0.2986(4) 0.4784(5)
O8B O 0.0730(13) -0.3550(4) 0.4951(6)
O9B O -0.6492(14) -0.0419(4) 0.0165(6)
H1B H -0.7735 -0.0569 -0.0328
H2B H -0.6748 -0.0196 0.0585
O10B O -0.6081(15) -0.1155(4) -0.1351(6)
H3B H -0.5301 -0.1377 -0.1562
H4B H -0.7524 -0.1102 -0.1789
O11B O -0.1296(12) -0.0857(3) 0.1084(6)
H5B H -0.0545 -0.0920 0.0715
H6B H -0.1056 -0.0526 0.1373
N1B N 0.2572(14) -0.0603(4) 0.4918(6)
N2B N -0.1293(15) -0.1350(4) 0.4491(7)
N3B N -0.1045(15) -0.2025(4) 0.2350(6)
N4B N 0.2330(15) -0.2606(4) 0.4185(6)
C1B C -0.4148(18) -0.0762(5) 0.3028(9)
C2B C -0.1568(18) -0.0873(4) 0.3897(8)
C3B C 0.0368(18) -0.0488(5) 0.4100(7)
C4B C 0.025(2) 0.0080(5) 0.3487(9)
C5B C 0.286(2) -0.1084(5) 0.5519(8)
H7B H 0.4381 -0.1170 0.6089
C6B C 0.095(2) -0.1453(5) 0.5307(8)
H8B H 0.1194 -0.1786 0.5741
C7B C -0.436(2) -0.2633(6) 0.2236(8)
C8B C -0.1746(18) -0.2442(4) 0.2861(7)
C9B C 0.1315(19) -0.1904(5) 0.2763(8)
H9B H 0.1847 -0.1617 0.2431
C10B C 0.3016(19) -0.2199(5) 0.3688(8)
H10B H 0.4661 -0.2107 0.3957
C11B C -0.0035(19) -0.2737(4) 0.3799(8)
C12B C -0.0681(19) -0.3127(6) 0.4543(8)
Nd1A Nd -0.48731(10) -0.35130(3) 0.55665(5)
Nd1A_2 Nd 0.51269(10) -0.35130(3) 0.55665(5)
Nd1C Nd -0.51269(10) 0.35130(3) 0.44335(5)
Nd1C_2 Nd 0.48731(10) 0.35130(3) 0.44335(5)
Cu1_2 Cu -0.5000 0.0000 0.5000
O2B_2 O 0.4543(12) -0.0446(4) 0.3296(6)
O3_2 O 0.7905(12) -0.0408(3) 0.6084(6)
O7A O -0.2368(13) -0.2014(4) -0.0216(5)
O7C O 0.2368(13) 0.2014(4) 1.0216(5)
O8A O -0.9270(13) -0.1450(4) -0.0049(6)
O8C O 0.9270(13) 0.1450(4) 1.0049(6)
N1_2 N 0.7428(14) 0.0603(4) 0.5082(6)
N4A N -0.7670(15) -0.2394(4) -0.0815(6)
N4C N 0.7670(15) 0.2394(4) 1.0815(6)
O12 O 0.1836(16) 0.0253(4) 0.1421(7)
loop_
_geom_bond_atom_site_label_1
_geom_bond_atom_site_label_2
_geom_bond_site_symmetry_1
_geom_bond_site_symmetry_2
Nd1 O1 1_555 1_555
Cu1 O2 1_555 1_555
O1 C1 1_555 1_555
O2 C1 1_555 1_555
O3 C4 1_555 1_555
O4 C4 1_555 1_555
O5 Nd1 1_555 1_555
O6 C7 1_555 1_555
O7 C12 1_555 1_555
O8 C12 1_555 1_555
O9 Nd1 1_555 1_555
H1 O9 1_555 1_555
H2 O9 1_555 1_555
O10 Nd1 1_555 1_555
H3 O10 1_555 1_555
H4 O10 1_555 1_555
O11 Nd1 1_555 1_555
H5 O11 1_555 1_555
H6 O11 1_555 1_555
N1 C3 1_555 1_555
N2 C2 1_555 1_555
N3 Nd1 1_555 1_555
N4 C10 1_555 1_555
C1 C2 1_555 1_555
C2 C3 1_555 1_555
C3 C4 1_555 1_555
C5 N1 1_555 1_555
H7 C5 1_555 1_555
C6 N2 1_555 1_555
H8 C6 1_555 1_555
C7 O5 1_555 1_555
C8 N3 1_555 1_555
C9 N3 1_555 1_555
H9 C9 1_555 1_555
C10 C9 1_555 1_555
H10 C10 1_555 1_555
C11 N4 1_555 1_555
C12 C11 1_555 1_555
Nd1B O1B 1_555 1_555
O1B C1B 1_555 1_555
O2B C1B 1_555 1_555
O3B Cu1 1_555 1_555
O4B C4B 1_555 1_555
O5B Nd1B 1_555 1_555
O6B C7B 1_555 1_555
O7B C12B 1_555 1_555
O8B C12B 1_555 1_555
O9B Nd1B 1_555 1_555
H1B O9B 1_555 1_555
H2B O9B 1_555 1_555
O10B Nd1B 1_555 1_555
H3B O10B 1_555 1_555
H4B O10B 1_555 1_555
O11B Nd1B 1_555 1_555
H5B O11B 1_555 1_555
H6B O11B 1_555 1_555
N1B Cu1 1_555 1_555
N2B C2B 1_555 1_555
N3B Nd1B 1_555 1_555
N4B C10B 1_555 1_555
C1B C2B 1_555 1_555
C2B C3B 1_555 1_555
C3B N1B 1_555 1_555
C4B O3B 1_555 1_555
C5B N1B 1_555 1_555
H7B C5B 1_555 1_555
C6B N2B 1_555 1_555
H8B C6B 1_555 1_555
C7B O5B 1_555 1_555
C8B N3B 1_555 1_555
C9B N3B 1_555 1_555
H9B C9B 1_555 1_555
C10B C9B 1_555 1_555
H10B C10B 1_555 1_555
C11B N4B 1_555 1_555
C12B C11B 1_555 1_555
Nd1A O7B 1_555 1_555
Nd1A_2 O8B 1_555 1_555
Nd1C O8 1_555 1_555
Nd1C_2 O7 1_555 1_555
Cu1_2 O3 1_555 1_555
O2B_2 Cu1 1_555 1_555
O3_2 Cu1 1_555 1_555
O7A Nd1B 1_555 1_555
O7C Nd1 1_555 1_555
O8A Nd1B 1_555 1_555
O8C Nd1 1_555 1_555
N1_2 Cu1 1_555 1_555
N4A Nd1B 1_555 1_555
N4C Nd1 1_555 1_555
N1 Cu1_2 1_555 1_555
N4 Nd1C 1_555 1_555
C5 C6 1_555 1_555
C7 C8 1_555 1_555
C8 C11 1_555 1_555
O2B Cu1_2 1_555 1_555
N4B Nd1A_2 1_555 1_555
C3B C4B 1_555 1_555
C5B C6B 1_555 1_555
C7B C8B 1_555 1_555
C8B C11B 1_555 1_555

#END
