
#######################################################################
#
#                 Cambridge Crystallographic Data Centre
#                                CCDC 
#
#######################################################################
#
# If this CIF has been generated from an entry in the Cambridge 
# Structural Database, then it will include bibliographic, chemical, 
# crystal, experimental, refinement or atomic coordinate data resulting 
# from the CCDC's data processing and validation procedures.
#
#######################################################################

data_POKVOC
_symmetry_cell_setting           monoclinic
_symmetry_space_group_name_H-M   'P 21/c'
_symmetry_Int_Tables_number      14
_space_group_name_Hall           '-P 2ybc'
loop_
_symmetry_equiv_pos_site_id
_symmetry_equiv_pos_as_xyz
1 x,y,z
2 -x,1/2+y,1/2-z
3 -x,-y,-z
4 x,1/2-y,1/2+z
_cell_length_a                   6.0991(8)
_cell_length_b                   23.469(3)
_cell_length_c                   13.3984(16)
_cell_angle_alpha                90
_cell_angle_beta                 112.498(5)
_cell_angle_gamma                90
_cell_volume                     1771.88
loop_
_atom_site_label
_atom_site_type_symbol
_atom_site_fract_x
_atom_site_fract_y
_atom_site_fract_z
Cu1 Cu 0.0000 1.0000 0.5000
Dy1 Dy 0.89916(4) 0.831754(11) 0.891150(17)
N1 N 1.1823(7) 0.75589(17) 1.0399(3)
N2 N 1.5189(7) 0.71163(17) 1.2301(3)
N3 N 0.2172(7) 0.94022(17) 0.4843(3)
N4 N 0.5649(8) 0.86039(19) 0.5033(4)
O1 O 1.3120(6) 0.83800(14) 0.9332(3)
O2 O 1.6621(6) 0.79394(14) 0.9795(3)
O3 O 1.8540(8) 0.82727(15) 1.2051(3)
O4 O 1.9624(6) 0.74994(16) 1.3085(3)
O5 O 0.9983(7) 0.93672(18) 0.6450(3)
O6 O 0.8935(7) 0.87234(17) 0.7386(3)
O7 O 0.6374(8) 0.99549(18) 0.7262(3)
O8 O 0.2892(6) 1.02821(14) 0.6142(3)
O9 O 1.039(2) 0.9411(4) 0.9024(8)
H1 H 1.1429 0.9291 0.8797
H2 H 1.1018 0.9416 0.9711
O10 O 0.5996(9) 0.90109(18) 0.8593(4)
O11 O 1.0347(8) 0.87391(18) 1.0648(4)
C1 C 1.1252(9) 0.7171(2) 1.0988(4)
H3 H 0.9673 0.7062 1.0780
C2 C 1.2941(9) 0.6927(2) 1.1901(4)
H4 H 1.2510 0.6628 1.2242
C3 C 1.5772(8) 0.75204(19) 1.1733(4)
C4 C 1.8202(9) 0.7784(2) 1.2319(4)
C5 C 1.4143(8) 0.77011(19) 1.0732(4)
C6 C 1.4715(8) 0.8041(2) 0.9900(3)
C7 C 0.1764(10) 0.8980(2) 0.4133(5)
H5 H 0.0290 0.8951 0.3568
C8 C 0.3495(11) 0.8586(2) 0.4226(5)
H6 H 0.3168 0.8298 0.3714
C9 C 0.6061(9) 0.9034(2) 0.5739(4)
C10 C 0.4312(8) 0.9434(2) 0.5657(4)
C11 C 0.4597(9) 0.9923(2) 0.6429(4)
C12 C 0.8535(9) 0.9058(2) 0.6600(4)
H7 H 0.664(9) 0.9325(12) 0.862(5)
H8 H 1.131(8) 0.883(2) 1.1258(17)
H9 H 0.490(7) 0.901(2) 0.881(5)
H10 H 1.045(10) 0.8954(19) 1.018(3)
Dy1B Dy -0.89916(4) 1.168246(11) 0.108850(17)
N1B N -1.1823(7) 1.24411(17) -0.0399(3)
N2B N -1.5189(7) 1.28837(17) -0.2301(3)
N3B N -0.2172(7) 1.05978(17) 0.5157(3)
N4B N -0.5649(8) 1.13961(19) 0.4967(4)
O1B O -1.3120(6) 1.16200(14) 0.0668(3)
O2B O -1.6621(6) 1.20606(14) 0.0205(3)
O3B O -1.8540(8) 1.17273(15) -0.2051(3)
O4B O -1.9624(6) 1.25006(16) -0.3085(3)
O5B O -0.9983(7) 1.06328(18) 0.3550(3)
O6B O -0.8935(7) 1.12766(17) 0.2614(3)
O7B O -0.6374(8) 1.00451(18) 0.2738(3)
O8B O -0.2892(6) 0.97179(14) 0.3858(3)
O9B O -1.039(2) 1.0589(4) 0.0976(8)
H1B H -1.1429 1.0709 0.1203
H2B H -1.1018 1.0584 0.0289
O10B O -0.5996(9) 1.09891(18) 0.1407(4)
O11B O -1.0347(8) 1.12609(18) -0.0648(4)
C1B C -1.1252(9) 1.2829(2) -0.0988(4)
H3B H -0.9673 1.2938 -0.0780
C2B C -1.2941(9) 1.3073(2) -0.1901(4)
H4B H -1.2510 1.3372 -0.2242
C3B C -1.5772(8) 1.24796(19) -0.1733(4)
C4B C -1.8202(9) 1.2216(2) -0.2319(4)
C5B C -1.4143(8) 1.22989(19) -0.0732(4)
C6B C -1.4715(8) 1.1959(2) 0.0100(3)
C7B C -0.1764(10) 1.1020(2) 0.5867(5)
H5B H -0.0290 1.1049 0.6432
C8B C -0.3495(11) 1.1414(2) 0.5774(5)
H6B H -0.3168 1.1702 0.6286
C9B C -0.6061(9) 1.0966(2) 0.4261(4)
C10B C -0.4312(8) 1.0566(2) 0.4343(4)
C11B C -0.4597(9) 1.0077(2) 0.3571(4)
C12B C -0.8535(9) 1.0942(2) 0.3400(4)
H7B H -0.664(9) 1.0675(12) 0.138(5)
H8B H -1.131(8) 1.117(2) -0.1258(17)
H9B H -0.490(7) 1.099(2) 0.119(5)
H10B H -1.045(10) 1.1046(19) -0.018(3)
Cu1_2 Cu -1.0000 1.0000 0.5000
Cu1_3 Cu 1.0000 1.0000 0.5000
Dy1_2 Dy 1.89916(4) 0.831754(11) 0.891150(17)
Dy1A Dy -1.89916(4) 1.331754(11) -0.391150(17)
Dy1B_2 Dy -1.89916(4) 1.168246(11) 0.108850(17)
Dy1C Dy 1.89916(4) 0.668246(11) 1.391150(17)
N2A N -0.5189(7) 1.21163(17) 0.2699(3)
N2C N 0.5189(7) 0.78837(17) 0.7301(3)
O2_2 O 0.6621(6) 0.79394(14) 0.9795(3)
O2B_2 O -0.6621(6) 1.20606(14) 0.0205(3)
O4A O -0.9624(6) 1.24994(16) 0.1915(3)
O4C O 0.9624(6) 0.75006(16) 0.8085(3)
O5_2 O -0.0017(7) 0.93672(18) 0.6450(3)
O5B_2 O 0.0017(7) 1.06328(18) 0.3550(3)
O12 O 0.4828(11) 0.9071(3) 0.1709(6)
O13 O 0.545(11) 0.9853(19) 0.992(5)
O14 O 0.859(4) 0.9839(10) 0.144(3)
loop_
_geom_bond_atom_site_label_1
_geom_bond_atom_site_label_2
_geom_bond_site_symmetry_1
_geom_bond_site_symmetry_2
Cu1 N3 1_555 1_555
Dy1 N1 1_555 1_555
N1 C1 1_555 1_555
N2 C2 1_555 1_555
N3 C7 1_555 1_555
N4 C8 1_555 1_555
O1 Dy1 1_555 1_555
O2 C6 1_555 1_555
O3 C4 1_555 1_555
O4 C4 1_555 1_555
O5 C12 1_555 1_555
O6 Dy1 1_555 1_555
O7 C11 1_555 1_555
O8 Cu1 1_555 1_555
O9 Dy1 1_555 1_555
H1 O9 1_555 1_555
H2 O9 1_555 1_555
O10 Dy1 1_555 1_555
O11 Dy1 1_555 1_555
C1 H3 1_555 1_555
C2 C1 1_555 1_555
H4 C2 1_555 1_555
C3 N2 1_555 1_555
C4 C3 1_555 1_555
C5 N1 1_555 1_555
C6 O1 1_555 1_555
C7 H5 1_555 1_555
C8 C7 1_555 1_555
H6 C8 1_555 1_555
C9 N4 1_555 1_555
C10 N3 1_555 1_555
C11 O8 1_555 1_555
C12 O6 1_555 1_555
H7 O10 1_555 1_555
H8 O11 1_555 1_555
H9 O10 1_555 1_555
H10 O11 1_555 1_555
Dy1B N1B 1_555 1_555
N1B C1B 1_555 1_555
N2B C2B 1_555 1_555
N3B Cu1 1_555 1_555
N4B C8B 1_555 1_555
O1B Dy1B 1_555 1_555
O2B C6B 1_555 1_555
O3B C4B 1_555 1_555
O4B C4B 1_555 1_555
O5B C12B 1_555 1_555
O6B Dy1B 1_555 1_555
O7B C11B 1_555 1_555
O8B Cu1 1_555 1_555
O9B Dy1B 1_555 1_555
H1B O9B 1_555 1_555
H2B O9B 1_555 1_555
O10B Dy1B 1_555 1_555
O11B Dy1B 1_555 1_555
C1B H3B 1_555 1_555
C2B C1B 1_555 1_555
H4B C2B 1_555 1_555
C3B N2B 1_555 1_555
C4B C3B 1_555 1_555
C5B N1B 1_555 1_555
C6B O1B 1_555 1_555
C7B N3B 1_555 1_555
H5B C7B 1_555 1_555
C8B C7B 1_555 1_555
H6B C8B 1_555 1_555
C9B N4B 1_555 1_555
C10B N3B 1_555 1_555
C11B O8B 1_555 1_555
C12B O6B 1_555 1_555
H7B O10B 1_555 1_555
H8B O11B 1_555 1_555
H9B O10B 1_555 1_555
H10B O11B 1_555 1_555
Cu1_2 O5B 1_555 1_555
Cu1_3 O5 1_555 1_555
Dy1_2 O2 1_555 1_555
Dy1A N2B 1_555 1_555
Dy1B_2 O2B 1_555 1_555
Dy1C N2 1_555 1_555
N2A Dy1B 1_555 1_555
N2C Dy1 1_555 1_555
O2_2 Dy1 1_555 1_555
O2B_2 Dy1B 1_555 1_555
O4A Dy1B 1_555 1_555
O4C Dy1 1_555 1_555
O5_2 Cu1 1_555 1_555
O5B_2 Cu1 1_555 1_555
O4 Dy1C 1_555 1_555
C3 C5 1_555 1_555
C5 C6 1_555 1_555
C9 C10 1_555 1_555
C9 C12 1_555 1_555
C10 C11 1_555 1_555
O4B Dy1A 1_555 1_555
C3B C5B 1_555 1_555
C5B C6B 1_555 1_555
C9B C10B 1_555 1_555
C9B C12B 1_555 1_555
C10B C11B 1_555 1_555

#END
