
#######################################################################
#
#                 Cambridge Crystallographic Data Centre
#                                CCDC 
#
#######################################################################
#
# If this CIF has been generated from an entry in the Cambridge 
# Structural Database, then it will include bibliographic, chemical, 
# crystal, experimental, refinement or atomic coordinate data resulting 
# from the CCDC's data processing and validation procedures.
#
#######################################################################

data_POKWUI
_symmetry_cell_setting           monoclinic
_symmetry_space_group_name_H-M   'P 21/c'
_symmetry_Int_Tables_number      14
_space_group_name_Hall           '-P 2ybc'
loop_
_symmetry_equiv_pos_site_id
_symmetry_equiv_pos_as_xyz
1 x,y,z
2 -x,1/2+y,1/2-z
3 -x,-y,-z
4 x,1/2-y,1/2+z
_cell_length_a                   13.1101(5)
_cell_length_b                   19.5138(7)
_cell_length_c                   11.7626(5)
_cell_angle_alpha                90
_cell_angle_beta                 105.400(2)
_cell_angle_gamma                90
_cell_volume                     2901.16
loop_
_atom_site_label
_atom_site_type_symbol
_atom_site_fract_x
_atom_site_fract_y
_atom_site_fract_z
K1 K 0.176293(16) 0.545269(11) -0.158043(17)
K2 K 0.008952(16) 0.591317(11) 0.056373(18)
K3 K 0.252968(16) 0.456262(11) 0.136855(18)
F1 F 0.50165(9) 0.72829(6) 0.39803(11)
F2 F -0.20541(6) 0.48616(5) -0.62584(6)
F3 F 0.28897(6) 0.17950(3) -0.28746(6)
O1 O 0.21203(6) 0.58375(4) 0.06420(7)
O2 O -0.04021(6) 0.54213(4) -0.15667(6)
O3 O 0.19204(6) 0.41599(4) -0.08674(7)
O4 O -0.38584(7) 0.45403(5) 0.15040(9)
O5 O -0.13397(7) 0.33717(5) 0.28368(9)
O6 O -0.03554(7) 0.27134(4) -0.07055(8)
O7 O -0.45912(6) 0.54870(5) -0.27623(8)
C1 C 0.28136(8) 0.61776(5) 0.14452(9)
C2 C 0.28087(10) 0.61695(6) 0.26400(10)
H1 H 0.2291 0.5906 0.2875
C3 C 0.35474(12) 0.65403(8) 0.34851(12)
H2 H 0.3530 0.6533 0.4287
C4 C 0.42985(11) 0.69146(8) 0.31467(15)
C5 C 0.43529(10) 0.69352(7) 0.20089(15)
H3 H 0.4887 0.7195 0.1797
C6 C 0.36163(9) 0.65711(6) 0.11656(11)
H4 H 0.3652 0.6587 0.0370
C7 C -0.07743(7) 0.52990(5) -0.26964(8)
C8 C -0.04285(8) 0.47360(5) -0.32506(9)
H5 H 0.0111 0.4447 -0.2796
C9 C -0.08501(9) 0.45908(6) -0.44372(9)
H6 H -0.0604 0.4209 -0.4791
C10 C -0.16284(9) 0.50078(7) -0.50887(9)
C11 C -0.19826(9) 0.55742(6) -0.46189(9)
H7 H -0.2514 0.5860 -0.5094
C12 C -0.15501(8) 0.57209(6) -0.34355(9)
H8 H -0.1783 0.6118 -0.3110
C13 C 0.21895(8) 0.36101(5) -0.13554(8)
C14 C 0.28179(8) 0.30888(5) -0.06858(9)
H9 H 0.3091 0.3153 0.0140
C15 C 0.30524(8) 0.24868(5) -0.11877(9)
H10 H 0.3469 0.2141 -0.0714
C16 C 0.26728(8) 0.24007(5) -0.23789(9)
C17 C 0.20978(10) 0.28947(7) -0.30925(9)
H11 H 0.1861 0.2828 -0.3921
C18 C 0.18672(10) 0.34964(6) -0.25816(9)
H12 H 0.1478 0.3844 -0.3077
C19 C -0.44270(10) 0.51441(7) 0.16552(13)
H13 H -0.3970 0.5551 0.1680
H14 H -0.5055 0.5196 0.0974
C20 C -0.44627(10) 0.39418(7) 0.15530(12)
H15 H -0.5095 0.3936 0.0869
H16 H -0.4034 0.3531 0.1505
C21 C -0.19216(10) 0.29373(8) 0.34175(14)
H17 H -0.2492 0.3205 0.3615
H18 H -0.2254 0.2563 0.2878
C22 C -0.04826(11) 0.30020(7) 0.26075(11)
H19 H -0.0757 0.2613 0.2073
H20 H -0.0075 0.3305 0.2215
C23 C -0.12209(10) 0.23619(6) -0.04814(11)
H21 H -0.0956 0.1990 0.0094
H22 H -0.1636 0.2682 -0.0129
C24 C 0.02230(10) 0.22611(7) -0.12588(13)
H23 H 0.0831 0.2508 -0.1417
H24 H 0.0501 0.1872 -0.0727
C25 C -0.52265(9) 0.48905(7) -0.27701(12)
H25 H -0.5855 0.4907 -0.3458
H26 H -0.4814 0.4475 -0.2841
C26 C -0.51968(10) 0.60801(7) -0.26716(12)
H27 H -0.4767 0.6496 -0.2680
H28 H -0.5828 0.6102 -0.3356
K1B K -0.176293(16) 0.454731(11) 0.158043(17)
K1A K -0.176293(16) 0.045269(11) -0.341957(17)
K1_2 K -0.823707(16) 0.545269(11) -0.158043(17)
K2B K -0.008952(16) 0.408683(11) -0.056373(18)
K2A K -0.008952(16) 0.091317(11) 0.443627(18)
K3B K -0.252968(16) 0.543738(11) -0.136855(18)
K3_2 K -0.747032(16) 0.456262(11) 0.136855(18)
F1B F -0.50165(9) 0.27171(6) -0.39803(11)
F2B F 0.20541(6) 0.51384(5) 0.62584(6)
F3B F -0.28897(6) 0.82050(3) 0.28746(6)
O1B O -0.21203(6) 0.41625(4) -0.06420(7)
O2B O 0.04021(6) 0.45787(4) 0.15667(6)
O3B O -0.19204(6) 0.58401(4) 0.08674(7)
O4B O 0.38584(7) 0.54597(5) -0.15040(9)
O4B_2 O -0.61416(7) 0.54597(5) -0.15040(9)
O5B O 0.13397(7) 0.66283(5) -0.28368(9)
O5C O -0.13397(7) 0.16283(5) -0.21632(9)
O6B O 0.03554(7) 0.72866(4) 0.07055(8)
O6C O -0.03554(7) 0.22866(4) 0.42945(8)
O7B O 0.45912(6) 0.45130(5) 0.27623(8)
O7B_2 O -0.54088(6) 0.45130(5) 0.27623(8)
C1B C -0.28136(8) 0.38224(5) -0.14452(9)
C2B C -0.28087(10) 0.38305(6) -0.26400(10)
H1B H -0.2291 0.4094 -0.2875
C3B C -0.35474(12) 0.34597(8) -0.34851(12)
H2B H -0.3530 0.3467 -0.4287
C4B C -0.42985(11) 0.30854(8) -0.31467(15)
C5B C -0.43529(10) 0.30648(7) -0.20089(15)
H3B H -0.4887 0.2805 -0.1797
C6B C -0.36163(9) 0.34289(6) -0.11656(11)
H4B H -0.3652 0.3413 -0.0370
C7B C 0.07743(7) 0.47010(5) 0.26964(8)
C8B C 0.04285(8) 0.52640(5) 0.32506(9)
H5B H -0.0111 0.5553 0.2796
C9B C 0.08501(9) 0.54092(6) 0.44372(9)
H6B H 0.0604 0.5791 0.4791
C10B C 0.16284(9) 0.49922(7) 0.50887(9)
C11B C 0.19826(9) 0.44258(6) 0.46189(9)
H7B H 0.2514 0.4140 0.5094
C12B C 0.15501(8) 0.42791(6) 0.34355(9)
H8B H 0.1783 0.3882 0.3110
C13B C -0.21895(8) 0.63899(5) 0.13554(8)
C14B C -0.28179(8) 0.69112(5) 0.06858(9)
H9B H -0.3091 0.6847 -0.0140
C15B C -0.30524(8) 0.75132(5) 0.11877(9)
H10B H -0.3469 0.7859 0.0714
C16B C -0.26728(8) 0.75993(5) 0.23789(9)
C17B C -0.20978(10) 0.71053(7) 0.30925(9)
H11B H -0.1861 0.7172 0.3921
C18B C -0.18672(10) 0.65036(6) 0.25816(9)
H12B H -0.1478 0.6156 0.3077
C19B C -0.55730(10) 0.48559(7) -0.16552(13)
H13B H -0.6030 0.4449 -0.1680
H14B H -0.4945 0.4804 -0.0974
C20B C -0.55373(10) 0.60582(7) -0.15530(12)
H15B H -0.4905 0.6064 -0.0869
H16B H -0.5966 0.6469 -0.1505
C21C C -0.19216(10) 0.20627(8) -0.15825(14)
H17C H -0.2492 0.1795 -0.1385
H18C H -0.2254 0.2437 -0.2122
C22C C -0.04826(11) 0.19980(7) -0.23925(11)
H19C H -0.0757 0.2387 -0.2927
H20C H -0.0075 0.1695 -0.2785
C23C C -0.12209(10) 0.26381(6) 0.45186(11)
H21C H -0.0956 0.3010 0.5094
H22C H -0.1636 0.2318 0.4871
C24C C 0.02230(10) 0.27389(7) 0.37412(13)
H23C H 0.0831 0.2492 0.3583
H24C H 0.0501 0.3128 0.4273
C25B C -0.47735(9) 0.51095(7) 0.27701(12)
H25B H -0.4145 0.5093 0.3458
H26B H -0.5186 0.5525 0.2841
C26B C -0.48032(10) 0.39199(7) 0.26716(12)
H27B H -0.5233 0.3504 0.2680
H28B H -0.4172 0.3898 0.3356
loop_
_geom_bond_atom_site_label_1
_geom_bond_atom_site_label_2
_geom_bond_site_symmetry_1
_geom_bond_site_symmetry_2
K1 O1 1_555 1_555
K2 O1 1_555 1_555
K3 O1 1_555 1_555
F1 C4 1_555 1_555
F2 C10 1_555 1_555
F3 C16 1_555 1_555
O1 C1 1_555 1_555
O2 K1 1_555 1_555
O3 K1 1_555 1_555
O4 C19 1_555 1_555
O5 C21 1_555 1_555
O6 C23 1_555 1_555
O7 C25 1_555 1_555
C1 C2 1_555 1_555
C2 H1 1_555 1_555
C3 C2 1_555 1_555
H2 C3 1_555 1_555
C4 C3 1_555 1_555
C5 C4 1_555 1_555
H3 C5 1_555 1_555
C6 C1 1_555 1_555
H4 C6 1_555 1_555
C7 O2 1_555 1_555
C8 C7 1_555 1_555
H5 C8 1_555 1_555
C9 C8 1_555 1_555
H6 C9 1_555 1_555
C10 C9 1_555 1_555
C11 C10 1_555 1_555
H7 C11 1_555 1_555
C12 C7 1_555 1_555
H8 C12 1_555 1_555
C13 O3 1_555 1_555
C14 C13 1_555 1_555
H9 C14 1_555 1_555
C15 C14 1_555 1_555
H10 C15 1_555 1_555
C16 C15 1_555 1_555
C17 C16 1_555 1_555
H11 C17 1_555 1_555
C18 C13 1_555 1_555
H12 C18 1_555 1_555
C19 H13 1_555 1_555
H14 C19 1_555 1_555
C20 O4 1_555 1_555
H15 C20 1_555 1_555
H16 C20 1_555 1_555
C21 H17 1_555 1_555
H18 C21 1_555 1_555
C22 O5 1_555 1_555
H19 C22 1_555 1_555
H20 C22 1_555 1_555
C23 H21 1_555 1_555
H22 C23 1_555 1_555
C24 O6 1_555 1_555
H23 C24 1_555 1_555
H24 C24 1_555 1_555
C25 H25 1_555 1_555
H26 C25 1_555 1_555
C26 O7 1_555 1_555
H27 C26 1_555 1_555
H28 C26 1_555 1_555
K1B O4 1_555 1_555
K1A O5C 1_555 1_555
K1_2 O4B_2 1_555 1_555
K2B O2 1_555 1_555
K2A O6C 1_555 1_555
K3B O2 1_555 1_555
K3_2 O7B_2 1_555 1_555
F1B C4B 1_555 1_555
F2B C10B 1_555 1_555
F3B C16B 1_555 1_555
O1B K1B 1_555 1_555
O2B K2 1_555 1_555
O3B K2 1_555 1_555
O4B K1 1_555 1_555
O4B_2 C19B 1_555 1_555
O5B K1 1_555 1_555
O5C C21C 1_555 1_555
O6B K2 1_555 1_555
O6C C23C 1_555 1_555
O7B K3 1_555 1_555
O7B_2 C25B 1_555 1_555
C1B O1B 1_555 1_555
C2B C1B 1_555 1_555
H1B C2B 1_555 1_555
C3B C2B 1_555 1_555
H2B C3B 1_555 1_555
C4B C3B 1_555 1_555
C5B C4B 1_555 1_555
H3B C5B 1_555 1_555
C6B C1B 1_555 1_555
H4B C6B 1_555 1_555
C7B O2B 1_555 1_555
C8B C7B 1_555 1_555
H5B C8B 1_555 1_555
C9B C8B 1_555 1_555
H6B C9B 1_555 1_555
C10B C9B 1_555 1_555
C11B C10B 1_555 1_555
H7B C11B 1_555 1_555
C12B C7B 1_555 1_555
H8B C12B 1_555 1_555
C13B O3B 1_555 1_555
C14B C13B 1_555 1_555
H9B C14B 1_555 1_555
C15B C14B 1_555 1_555
H10B C15B 1_555 1_555
C16B C15B 1_555 1_555
C17B C16B 1_555 1_555
H11B C17B 1_555 1_555
C18B C13B 1_555 1_555
H12B C18B 1_555 1_555
C19B C25 1_555 1_555
H13B C19B 1_555 1_555
H14B C19B 1_555 1_555
C20B C26 1_555 1_555
H15B C20B 1_555 1_555
H16B C20B 1_555 1_555
C21C C23 1_555 1_555
H17C C21C 1_555 1_555
H18C C21C 1_555 1_555
C22C C24 1_555 1_555
H19C C22C 1_555 1_555
H20C C22C 1_555 1_555
C23C C21 1_555 1_555
H21C C23C 1_555 1_555
H22C C23C 1_555 1_555
C24C C22 1_555 1_555
H23C C24C 1_555 1_555
H24C C24C 1_555 1_555
C25B C19 1_555 1_555
H25B C25B 1_555 1_555
H26B C25B 1_555 1_555
C26B C20 1_555 1_555
H27B C26B 1_555 1_555
H28B C26B 1_555 1_555
K2 O2 1_555 1_555
K3 O3 1_555 1_555
K3 O2B 1_555 1_555
O3 K2B 1_555 1_555
O5 K1B 1_555 1_555
O6 K2B 1_555 1_555
O7 K3B 1_555 1_555
C5 C6 1_555 1_555
C11 C12 1_555 1_555
C17 C18 1_555 1_555
K1B O2B 1_555 1_555
K1B O3B 1_555 1_555
K2B O1B 1_555 1_555
K2B O2B 1_555 1_555
K3B O1B 1_555 1_555
K3B O3B 1_555 1_555
O4B_2 C20B 1_555 1_555
O5C C22C 1_555 1_555
O6C C24C 1_555 1_555
O7B_2 C26B 1_555 1_555
C5B C6B 1_555 1_555
C11B C12B 1_555 1_555
C17B C18B 1_555 1_555

#END
