
#######################################################################
#
#                 Cambridge Crystallographic Data Centre
#                                CCDC 
#
#######################################################################
#
# If this CIF has been generated from an entry in the Cambridge 
# Structural Database, then it will include bibliographic, chemical, 
# crystal, experimental, refinement or atomic coordinate data resulting 
# from the CCDC's data processing and validation procedures.
#
#######################################################################

data_POKWOD
_symmetry_cell_setting           monoclinic
_symmetry_space_group_name_H-M   'P 2/n'
_symmetry_Int_Tables_number      13
_space_group_name_Hall           '-P 2yac'
loop_
_symmetry_equiv_pos_site_id
_symmetry_equiv_pos_as_xyz
1 x,y,z
2 1/2-x,y,1/2-z
3 -x,-y,-z
4 1/2+x,-y,1/2+z
_cell_length_a                   13.4980(5)
_cell_length_b                   10.5832(4)
_cell_length_c                   16.6481(7)
_cell_angle_alpha                90
_cell_angle_beta                 98.585(2)
_cell_angle_gamma                90
_cell_volume                     2351.57
loop_
_atom_site_label
_atom_site_type_symbol
_atom_site_fract_x
_atom_site_fract_y
_atom_site_fract_z
Co1 Co 0.30949(4) 0.30906(5) 0.04583(3)
N1 N -0.5556(2) 0.2087(3) 0.0555(2)
N2 N 0.1593(3) -0.5663(4) 0.3560(2)
O1 O 0.1301(2) 0.3075(3) 0.0475(2)
O2 O 0.2399(2) 0.1670(3) 0.0941(2)
O3 O -0.19845(19) 0.0943(3) 0.0696(2)
O4 O 0.0539(3) -0.1861(4) 0.2002(3)
O5 O 0.3325(3) 0.4469(3) -0.03306(19)
O6 O 0.2706(3) 0.2814(4) -0.0937(2)
C1 C 0.0708(3) 0.1150(4) 0.0989(3)
C2 C -0.0290(3) 0.1435(4) 0.0772(3)
H1 H -0.0480 0.2199 0.0519
C3 C -0.1010(3) 0.0574(4) 0.0932(3)
C4 C -0.0735(3) -0.0566(4) 0.1301(3)
H2 H -0.1217 -0.1156 0.1391
C5 C 0.0269(3) -0.0814(5) 0.1535(3)
C6 C 0.0994(3) 0.0026(5) 0.1375(3)
H3 H 0.1669 -0.0163 0.1526
C7 C 0.1504(3) 0.2036(4) 0.0791(3)
C8 C -0.4818(3) 0.2417(5) 0.0146(3)
H4 H -0.4926 0.3089 -0.0216
C9 C -0.3910(3) 0.1817(4) 0.0234(3)
H5 H -0.3419 0.2086 -0.0064
C10 C -0.3725(3) 0.0823(4) 0.0760(3)
C11 C -0.4492(3) 0.0460(5) 0.1170(3)
H6 H -0.4407 -0.0222 0.1526
C12 C -0.5378(3) 0.1103(4) 0.1052(3)
H7 H -0.5885 0.0840 0.1336
C13 C -0.2745(3) 0.0137(4) 0.0910(3)
H8 H -0.2592 -0.0097 0.1479
H9 H -0.2782 -0.0629 0.0587
C14 C 0.1307(4) -0.5990(5) 0.2787(3)
H10 H 0.1304 -0.6844 0.2655
C15 C 0.1015(5) -0.5135(6) 0.2170(3)
H11 H 0.0827 -0.5408 0.1638
C16 C 0.1008(8) -0.3877(6) 0.2361(4)
C17 C 0.1317(8) -0.3531(6) 0.3145(4)
H12 H 0.1332 -0.2682 0.3288
C18 C 0.1606(6) -0.4427(5) 0.3721(4)
H13 H 0.1822 -0.4164 0.4251
C19 C 0.0644(9) -0.2881(9) 0.1691(6)
H14 H 0.1130 -0.2811 0.1319
H15 H 0.0012 -0.3150 0.1384
C20 C 0.2945(3) 0.3931(4) -0.0976(3)
C21 C 0.2744(3) 0.4683(4) -0.1744(2)
C22 C 0.3638(4) 0.5533(5) -0.1829(3)
H16 H 0.4217 0.5019 -0.1890
H17 H 0.3802 0.6047 -0.1345
H18 H 0.3924 0.6937 -0.2619
C23 C 0.2500 0.7225(10) -0.2500
H19 H 0.2356 0.7753 -0.2972
C24 C 0.1842(5) 0.5548(6) -0.1669(3)
H20 H 0.1258 0.5038 -0.1617
H21 H 0.1990 0.6071 -0.1188
C25 C 0.2500 0.3859(5) -0.2500
H22 H 0.1938 0.3326 -0.2447
C26 C 0.3373(6) 0.6385(7) -0.2575(3)
O5A O 0.1675(3) 0.4469(3) -0.46694(19)
O6A O 0.2294(3) 0.2814(4) -0.4063(2)
C20A C 0.2055(3) 0.3931(4) -0.4024(3)
C21A C 0.2256(3) 0.4683(4) -0.3256(2)
C22A C 0.1362(4) 0.5533(5) -0.3171(3)
H16A H 0.0783 0.5019 -0.3110
H17A H 0.1198 0.6047 -0.3655
H18A H 0.1076 0.6937 -0.2381
H19A H 0.2644 0.7753 -0.2028
C24A C 0.3158(5) 0.5548(6) -0.3331(3)
H20A H 0.3742 0.5038 -0.3383
H21A H 0.3010 0.6071 -0.3812
H22A H 0.3062 0.3326 -0.2553
C26A C 0.1627(6) 0.6385(7) -0.2425(3)
Co1A Co 0.19051(4) 0.30906(5) -0.54583(3)
N1A N 1.0556(2) 0.2087(3) -0.5555(2)
N2A N 0.3407(3) -0.5663(4) -0.8560(2)
O1A O 0.3699(2) 0.3075(3) -0.5475(2)
O2A O 0.2601(2) 0.1670(3) -0.5941(2)
O3A O 0.69845(19) 0.0943(3) -0.5696(2)
O4A O 0.4461(3) -0.1861(4) -0.7002(3)
C1A C 0.4292(3) 0.1150(4) -0.5989(3)
C2A C 0.5290(3) 0.1435(4) -0.5772(3)
H1A H 0.5480 0.2199 -0.5519
C3A C 0.6010(3) 0.0574(4) -0.5932(3)
C4A C 0.5735(3) -0.0566(4) -0.6301(3)
H2A H 0.6217 -0.1156 -0.6391
C5A C 0.4731(3) -0.0814(5) -0.6535(3)
C6A C 0.4006(3) 0.0026(5) -0.6375(3)
H3A H 0.3331 -0.0163 -0.6526
C7A C 0.3496(3) 0.2036(4) -0.5791(3)
C8A C 0.9818(3) 0.2417(5) -0.5146(3)
H4A H 0.9926 0.3089 -0.4784
C9A C 0.8910(3) 0.1817(4) -0.5234(3)
H5A H 0.8419 0.2086 -0.4936
C10A C 0.8725(3) 0.0823(4) -0.5760(3)
C11A C 0.9492(3) 0.0460(5) -0.6170(3)
H6A H 0.9407 -0.0222 -0.6526
C12A C 1.0378(3) 0.1103(4) -0.6052(3)
H7A H 1.0885 0.0840 -0.6336
C13A C 0.7745(3) 0.0137(4) -0.5910(3)
H8A H 0.7592 -0.0097 -0.6479
H9A H 0.7782 -0.0629 -0.5587
C14A C 0.3693(4) -0.5990(5) -0.7787(3)
H10A H 0.3696 -0.6844 -0.7655
C15A C 0.3985(5) -0.5135(6) -0.7170(3)
H11A H 0.4173 -0.5408 -0.6638
C16A C 0.3992(8) -0.3877(6) -0.7361(4)
C17A C 0.3683(8) -0.3531(6) -0.8145(4)
H12A H 0.3668 -0.2682 -0.8288
C18A C 0.3394(6) -0.4427(5) -0.8721(4)
H13A H 0.3178 -0.4164 -0.9251
C19A C 0.4356(9) -0.2881(9) -0.6691(6)
H14A H 0.3870 -0.2811 -0.6319
H15A H 0.4988 -0.3150 -0.6384
Co1_2 Co -0.69051(4) 0.30906(5) 0.04583(3)
Co1_3 Co 0.30949(4) -0.69094(5) -0.95417(3)
Co1A_2 Co 0.19051(4) -0.69094(5) 0.45417(3)
Co1A_3 Co 1.19051(4) 0.30906(5) -0.54583(3)
N1_2 N 0.4444(2) 0.2087(3) 0.0555(2)
N1A_2 N 0.0556(2) 0.2087(3) -0.5555(2)
N2_2 N 0.1593(3) 0.4337(4) -0.6440(2)
N2A_2 N 0.3407(3) 0.4337(4) 0.1440(2)
O7 O -0.0516(11) 0.4466(10) -0.0074(10)
H23 H 0.004(8) 0.428(13) 0.022(11)
H24 H -0.051(13) 0.527(2) -0.010(12)
loop_
_geom_bond_atom_site_label_1
_geom_bond_atom_site_label_2
_geom_bond_site_symmetry_1
_geom_bond_site_symmetry_2
Co1 O1 1_555 1_555
N1 C8 1_555 1_555
N2 C14 1_555 1_555
O1 C7 1_555 1_555
O2 Co1 1_555 1_555
O3 C3 1_555 1_555
O4 C5 1_555 1_555
O5 Co1 1_555 1_555
O6 Co1 1_555 1_555
C1 C2 1_555 1_555
C2 H1 1_555 1_555
C3 C2 1_555 1_555
C4 C3 1_555 1_555
H2 C4 1_555 1_555
C5 C4 1_555 1_555
C6 C1 1_555 1_555
H3 C6 1_555 1_555
C7 O2 1_555 1_555
C8 H4 1_555 1_555
C9 C8 1_555 1_555
H5 C9 1_555 1_555
C10 C9 1_555 1_555
C11 C10 1_555 1_555
H6 C11 1_555 1_555
C12 N1 1_555 1_555
H7 C12 1_555 1_555
C13 O3 1_555 1_555
H8 C13 1_555 1_555
H9 C13 1_555 1_555
C14 H10 1_555 1_555
C15 C14 1_555 1_555
H11 C15 1_555 1_555
C16 C15 1_555 1_555
C17 C16 1_555 1_555
H12 C17 1_555 1_555
C18 N2 1_555 1_555
H13 C18 1_555 1_555
C19 O4 1_555 1_555
H14 C19 1_555 1_555
H15 C19 1_555 1_555
C20 O5 1_555 1_555
C21 C20 1_555 1_555
C22 C21 1_555 1_555
H16 C22 1_555 1_555
H17 C22 1_555 1_555
H18 C26 1_555 1_555
C23 H19 1_555 1_555
C24 C21 1_555 1_555
H20 C24 1_555 1_555
H21 C24 1_555 1_555
C25 C21 1_555 1_555
H22 C25 1_555 1_555
C26 C22 1_555 1_555
O7 H23 1_555 1_555
H24 O7 1_555 1_555
O5A C20A 1_555 1_555
O6A C20A 1_555 1_555
C20A C21A 1_555 1_555
C21A C25 1_555 1_555
C22A C21A 1_555 1_555
H16A C22A 1_555 1_555
H17A C22A 1_555 1_555
H18A C26A 1_555 1_555
H19A C23 1_555 1_555
C24A C26 1_555 1_555
H20A C24A 1_555 1_555
H21A C24A 1_555 1_555
H22A C25 1_555 1_555
C26A C23 1_555 1_555
Co1A O5A 1_555 1_555
N1A C8A 1_555 1_555
N2A C14A 1_555 1_555
O1A Co1A 1_555 1_555
O2A Co1A 1_555 1_555
O3A C3A 1_555 1_555
O4A C5A 1_555 1_555
C1A C2A 1_555 1_555
C2A H1A 1_555 1_555
C3A C2A 1_555 1_555
C4A C3A 1_555 1_555
H2A C4A 1_555 1_555
C5A C4A 1_555 1_555
C6A C1A 1_555 1_555
H3A C6A 1_555 1_555
C7A O1A 1_555 1_555
C8A H4A 1_555 1_555
C9A C8A 1_555 1_555
H5A C9A 1_555 1_555
C10A C9A 1_555 1_555
C11A C10A 1_555 1_555
H6A C11A 1_555 1_555
C12A N1A 1_555 1_555
H7A C12A 1_555 1_555
C13A O3A 1_555 1_555
H8A C13A 1_555 1_555
H9A C13A 1_555 1_555
C14A H10A 1_555 1_555
C15A C14A 1_555 1_555
H11A C15A 1_555 1_555
C16A C15A 1_555 1_555
C17A C16A 1_555 1_555
H12A C17A 1_555 1_555
C18A N2A 1_555 1_555
H13A C18A 1_555 1_555
C19A O4A 1_555 1_555
H14A C19A 1_555 1_555
H15A C19A 1_555 1_555
Co1_2 N1 1_555 1_555
Co1_3 N2A 1_555 1_555
Co1A_2 N2 1_555 1_555
Co1A_3 N1A 1_555 1_555
N1_2 Co1 1_555 1_555
N1A_2 Co1A 1_555 1_555
N2_2 Co1A 1_555 1_555
N2A_2 Co1 1_555 1_555
O6 C20 1_555 1_555
C1 C7 1_555 1_555
C5 C6 1_555 1_555
C10 C13 1_555 1_555
C11 C12 1_555 1_555
C16 C19 1_555 1_555
C17 C18 1_555 1_555
C23 C26 1_555 1_555
C24 C26A 1_555 1_555
O6A Co1A 1_555 1_555
C21A C24A 1_555 1_555
C22A C26A 1_555 1_555
O2A C7A 1_555 1_555
C1A C7A 1_555 1_555
C5A C6A 1_555 1_555
C10A C13A 1_555 1_555
C11A C12A 1_555 1_555
C16A C19A 1_555 1_555
C17A C18A 1_555 1_555

#END
