
#######################################################################
#
#                 Cambridge Crystallographic Data Centre
#                                CCDC 
#
#######################################################################
#
# If this CIF has been generated from an entry in the Cambridge 
# Structural Database, then it will include bibliographic, chemical, 
# crystal, experimental, refinement or atomic coordinate data resulting 
# from the CCDC's data processing and validation procedures.
#
#######################################################################

data_POKXET
_symmetry_cell_setting           monoclinic
_symmetry_space_group_name_H-M   'P 21/c'
_symmetry_Int_Tables_number      14
_space_group_name_Hall           '-P 2ybc'
loop_
_symmetry_equiv_pos_site_id
_symmetry_equiv_pos_as_xyz
1 x,y,z
2 -x,1/2+y,1/2-z
3 -x,-y,-z
4 x,1/2-y,1/2+z
_cell_length_a                   11.6779(11)
_cell_length_b                   15.7238(14)
_cell_length_c                   21.4171(19)
_cell_angle_alpha                90
_cell_angle_beta                 103.589(5)
_cell_angle_gamma                90
_cell_volume                     3822.54
loop_
_atom_site_label
_atom_site_type_symbol
_atom_site_fract_x
_atom_site_fract_y
_atom_site_fract_z
Rb1 Rb 0.66883(5) -0.32972(3) 0.59341(3)
Rb2 Rb 0.38305(4) -0.41209(3) 0.45226(2)
Rb3 Rb 0.39155(4) -0.44478(3) 0.64905(2)
I1 I 0.30002(3) 0.06832(2) 0.537070(19)
I2 I 1.03993(4) -0.50354(3) 0.89839(2)
I3 I 1.07170(5) -0.28185(3) 0.41065(3)
O1 O 0.4193(4) -0.3167(2) 0.5673(2)
O2 O 0.6270(4) -0.4803(3) 0.6542(2)
O3 O 0.6247(4) -0.4379(3) 0.4744(2)
O4 O 0.0731(4) -0.6907(3) 0.3566(2)
O5 O 0.1526(4) -0.3796(4) 0.6538(3)
O6 O 0.3820(4) -0.2789(3) 0.3570(2)
O7 O 0.5798(4) -0.6565(3) 0.2325(2)
O8 O 0.3291(4) -0.9468(3) 0.2441(2)
O9 O 0.2988(4) -0.8253(3) 0.3352(2)
C1 C 0.3925(5) -0.2359(4) 0.5574(3)
C2 C 0.3363(5) -0.1936(3) 0.6031(2)
H1 H 0.3181 -0.2252 0.6374
C3 C 0.3093(5) -0.1079(4) 0.5969(3)
H2 H 0.2738 -0.0806 0.6272
C4 C 0.3340(5) -0.0617(3) 0.5465(3)
C5 C 0.3848(5) -0.1022(4) 0.5022(3)
H3 H 0.4010 -0.0711 0.4673
C6 C 0.4122(5) -0.1886(4) 0.5089(3)
H4 H 0.4464 -0.2151 0.4777
C7 C 0.7133(5) -0.4848(4) 0.7050(3)
C8 C 0.7983(5) -0.5502(4) 0.7141(3)
H5 H 0.7924 -0.5924 0.6818
C9 C 0.8900(5) -0.5552(4) 0.7683(3)
H6 H 0.9449 -0.6007 0.7727
C10 C 0.9022(6) -0.4945(4) 0.8161(3)
C11 C 0.8195(6) -0.4297(4) 0.8091(3)
H7 H 0.8257 -0.3883 0.8420
C12 C 0.7292(7) -0.4248(4) 0.7557(5)
H8 H 0.6747 -0.3791 0.7523
C13 C 0.7178(5) -0.4057(3) 0.4608(3)
C14 C 0.8179(5) -0.4544(4) 0.4594(3)
H9 H 0.8171 -0.5134 0.4690
C15 C 0.9166(5) -0.4207(3) 0.4449(3)
H10 H 0.9818 -0.4563 0.4437
C16 C 0.9212(5) -0.3344(4) 0.4320(3)
C17 C 0.8254(5) -0.2834(4) 0.4326(3)
H11 H 0.8289 -0.2243 0.4240
C18 C 0.7245(5) -0.3173(4) 0.4456(3)
H12 H 0.6585 -0.2816 0.4446
C19 C 0.0071(6) -0.2718(4) 0.6106(3)
H13 H 0.0529 -0.2265 0.6375
H14 H -0.0370 -0.2458 0.5700
C20 C 0.0892(6) -0.3392(5) 0.5967(3)
H15 H 0.0430 -0.3824 0.5676
H16 H 0.1456 -0.3130 0.5744
C21 C 0.0723(6) -0.4160(5) 0.6864(3)
H17 H 0.1165 -0.4424 0.7269
H18 H 0.0264 -0.4612 0.6594
C22 C -0.0108(6) -0.3498(5) 0.7014(3)
H19 H -0.0676 -0.3770 0.7229
H20 H 0.0344 -0.3068 0.7310
C23 C 0.3018(5) -0.2107(4) 0.3363(3)
H21 H 0.2634 -0.1951 0.3713
H22 H 0.2397 -0.2292 0.2989
C24 C 0.3645(6) -0.1340(4) 0.3180(4)
H23 H 0.3073 -0.0875 0.3035
H24 H 0.4244 -0.1136 0.3558
C25 C 0.4990(6) -0.2252(4) 0.2871(3)
H25 H 0.5631 -0.2071 0.3237
H26 H 0.5350 -0.2416 0.2513
C26 C 0.4366(6) -0.3008(4) 0.3067(3)
H27 H 0.3762 -0.3215 0.2692
H28 H 0.4939 -0.3473 0.3211
C27 C 0.4210(5) -0.9265(4) 0.2992(3)
H29 H 0.4710 -0.8807 0.2881
H30 H 0.4713 -0.9771 0.3123
C28 C 0.3708(5) -0.8983(4) 0.3535(3)
H31 H 0.3233 -0.9448 0.3658
H32 H 0.4355 -0.8846 0.3912
C29 C 0.2059(7) -0.8462(5) 0.2814(4)
H33 H 0.1559 -0.7955 0.2681
H34 H 0.1562 -0.8912 0.2937
C30 C 0.2527(7) -0.8762(5) 0.2267(3)
H35 H 0.1863 -0.8926 0.1908
H36 H 0.2960 -0.8293 0.2117
Rb1B Rb 0.33117(5) -0.67028(3) 0.40659(3)
Rb1_2 Rb -0.33117(5) -0.32972(3) 0.59341(3)
Rb1B_2 Rb 1.33117(5) -0.67028(3) 0.40659(3)
Rb2B Rb 0.61695(4) -0.58791(3) 0.54774(2)
Rb2A Rb 0.61695(4) -0.91209(3) 0.04774(2)
Rb3B Rb 0.60845(4) -0.55522(3) 0.35095(2)
Rb3C Rb 0.39155(4) -0.05522(3) 0.14905(2)
Rb3B_2 Rb -0.39155(4) -0.55522(3) 0.35095(2)
Rb3C_2 Rb 0.39155(4) -1.05522(3) 0.14905(2)
I1B I 0.69998(3) -1.06832(2) 0.462930(19)
I2B I -0.03993(4) -0.49646(3) 0.10161(2)
I3B I -0.07170(5) -0.71815(3) 0.58935(3)
O1B O 0.5807(4) -0.6833(2) 0.4327(2)
O2B O 0.3730(4) -0.5197(3) 0.3458(2)
O3B O 0.3753(4) -0.5621(3) 0.5256(2)
O4B O 0.9269(4) -0.3093(3) 0.6434(2)
O4B_2 O -0.0731(4) -0.3093(3) 0.6434(2)
O4_2 O 1.0731(4) -0.6907(3) 0.3566(2)
O5B O 0.8474(4) -0.6204(4) 0.3462(3)
O5B_2 O -0.1526(4) -0.6204(4) 0.3462(3)
O6B O 0.6180(4) -0.7211(3) 0.6430(2)
O6A O 0.6180(4) -0.7789(3) 0.1430(2)
O7B O 0.4202(4) -0.3435(3) 0.7675(2)
O7A O 0.4202(4) -0.1565(3) 0.2675(2)
O8A O 0.6709(4) -0.4468(3) 0.2559(2)
O8C O 0.3291(4) -0.5532(3) 0.7441(2)
O9B O 0.7012(4) -0.1747(3) 0.6648(2)
C1B C 0.6075(5) -0.7641(4) 0.4426(3)
C2B C 0.6637(5) -0.8064(3) 0.3969(2)
H1B H 0.6819 -0.7748 0.3626
C3B C 0.6907(5) -0.8921(4) 0.4031(3)
H2B H 0.7262 -0.9194 0.3728
C4B C 0.6660(5) -0.9383(3) 0.4535(3)
C5B C 0.6152(5) -0.8978(4) 0.4978(3)
H3B H 0.5990 -0.9289 0.5327
C6B C 0.5878(5) -0.8114(4) 0.4911(3)
H4B H 0.5536 -0.7849 0.5223
C7B C 0.2867(5) -0.5152(4) 0.2950(3)
C8B C 0.2017(5) -0.4498(4) 0.2859(3)
H5B H 0.2076 -0.4076 0.3182
C9B C 0.1100(5) -0.4448(4) 0.2317(3)
H6B H 0.0551 -0.3993 0.2273
C10B C 0.0978(6) -0.5055(4) 0.1839(3)
C11B C 0.1805(6) -0.5703(4) 0.1909(3)
H7B H 0.1743 -0.6117 0.1580
C12B C 0.2708(7) -0.5752(4) 0.2443(5)
H8B H 0.3253 -0.6209 0.2477
C13B C 0.2822(5) -0.5943(3) 0.5392(3)
C14B C 0.1821(5) -0.5456(4) 0.5406(3)
H9B H 0.1829 -0.4866 0.5310
C15B C 0.0834(5) -0.5793(3) 0.5551(3)
H10B H 0.0182 -0.5437 0.5563
C16B C 0.0788(5) -0.6656(4) 0.5680(3)
C17B C 0.1746(5) -0.7166(4) 0.5674(3)
H11B H 0.1711 -0.7757 0.5760
C18B C 0.2755(5) -0.6827(4) 0.5544(3)
H12B H 0.3415 -0.7184 0.5554
C19B C -0.0071(6) -0.7282(4) 0.3894(3)
C19B_2 C 0.9929(6) -0.7282(4) 0.3894(3)
H13B H -0.0529 -0.7735 0.3625
H13B_2 H 0.9471 -0.7735 0.3625
H14B H 0.0370 -0.7542 0.4300
H14B_2 H 1.0370 -0.7542 0.4300
C20B C 0.9108(6) -0.6608(5) 0.4033(3)
C20B_2 C -0.0892(6) -0.6608(5) 0.4033(3)
H15B H 0.9570 -0.6176 0.4324
H15B_2 H -0.0430 -0.6176 0.4324
H16B H 0.8544 -0.6870 0.4256
H16B_2 H -0.1456 -0.6870 0.4256
C21B C 0.9277(6) -0.5840(5) 0.3136(3)
C21B_2 C -0.0723(6) -0.5840(5) 0.3136(3)
H17B H 0.8835 -0.5576 0.2731
H17B_2 H -0.1165 -0.5576 0.2731
H18B H 0.9736 -0.5388 0.3406
H18B_2 H -0.0264 -0.5388 0.3406
C22B C 0.0108(6) -0.6502(5) 0.2986(3)
C22B_2 C 1.0108(6) -0.6502(5) 0.2986(3)
H19B H 0.0676 -0.6230 0.2771
H19B_2 H 1.0676 -0.6230 0.2771
H20B H -0.0344 -0.6932 0.2690
H20B_2 H 0.9656 -0.6932 0.2690
C23A C 0.6982(5) -0.7107(4) 0.1637(3)
H21A H 0.7366 -0.6951 0.1287
H22A H 0.7603 -0.7292 0.2011
C24A C 0.6355(6) -0.6340(4) 0.1820(4)
H23A H 0.6927 -0.5875 0.1965
H24A H 0.5756 -0.6136 0.1442
C25A C 0.5010(6) -0.7252(4) 0.2129(3)
H25A H 0.4369 -0.7071 0.1763
H26A H 0.4650 -0.7416 0.2487
C26A C 0.5634(6) -0.8008(4) 0.1933(3)
H27A H 0.6238 -0.8215 0.2308
H28A H 0.5061 -0.8473 0.1789
loop_
_geom_bond_atom_site_label_1
_geom_bond_atom_site_label_2
_geom_bond_site_symmetry_1
_geom_bond_site_symmetry_2
Rb1 O1 1_555 1_555
Rb2 O1 1_555 1_555
Rb3 O1 1_555 1_555
I1 C4 1_555 1_555
I2 C10 1_555 1_555
I3 C16 1_555 1_555
O1 C1 1_555 1_555
O2 Rb1 1_555 1_555
O3 Rb1 1_555 1_555
O4 Rb1B 1_555 1_555
O5 Rb3 1_555 1_555
O6 Rb2 1_555 1_555
O7 Rb3B 1_555 1_555
O8 C27 1_555 1_555
O9 C28 1_555 1_555
C1 C2 1_555 1_555
C2 H1 1_555 1_555
C3 C2 1_555 1_555
H2 C3 1_555 1_555
C4 C3 1_555 1_555
C5 C4 1_555 1_555
H3 C5 1_555 1_555
C6 C1 1_555 1_555
H4 C6 1_555 1_555
C7 O2 1_555 1_555
C8 C7 1_555 1_555
H5 C8 1_555 1_555
C9 C8 1_555 1_555
H6 C9 1_555 1_555
C10 C9 1_555 1_555
C11 C10 1_555 1_555
H7 C11 1_555 1_555
C12 C7 1_555 1_555
H8 C12 1_555 1_555
C13 O3 1_555 1_555
C14 C13 1_555 1_555
H9 C14 1_555 1_555
C15 C14 1_555 1_555
H10 C15 1_555 1_555
C16 C15 1_555 1_555
C17 C16 1_555 1_555
H11 C17 1_555 1_555
C18 C13 1_555 1_555
H12 C18 1_555 1_555
C19 H13 1_555 1_555
H14 C19 1_555 1_555
C20 O5 1_555 1_555
H15 C20 1_555 1_555
H16 C20 1_555 1_555
C21 O5 1_555 1_555
H17 C21 1_555 1_555
H18 C21 1_555 1_555
C22 C21 1_555 1_555
H19 C22 1_555 1_555
H20 C22 1_555 1_555
C23 O6 1_555 1_555
H21 C23 1_555 1_555
H22 C23 1_555 1_555
C24 C23 1_555 1_555
H23 C24 1_555 1_555
H24 C24 1_555 1_555
C25 H25 1_555 1_555
H26 C25 1_555 1_555
C26 O6 1_555 1_555
H27 C26 1_555 1_555
H28 C26 1_555 1_555
C27 H29 1_555 1_555
H30 C27 1_555 1_555
C28 C27 1_555 1_555
H31 C28 1_555 1_555
H32 C28 1_555 1_555
C29 O9 1_555 1_555
H33 C29 1_555 1_555
H34 C29 1_555 1_555
C30 O8 1_555 1_555
H35 C30 1_555 1_555
H36 C30 1_555 1_555
Rb1B O9 1_555 1_555
Rb1_2 O4B_2 1_555 1_555
Rb1B_2 O4_2 1_555 1_555
Rb2B O2 1_555 1_555
Rb2A O6A 1_555 1_555
Rb3B O1B 1_555 1_555
Rb3C O7A 1_555 1_555
Rb3B_2 O5B_2 1_555 1_555
Rb3C_2 O8 1_555 1_555
I1B C4B 1_555 1_555
I2B C10B 1_555 1_555
I3B C16B 1_555 1_555
O1B Rb1B 1_555 1_555
O2B Rb2 1_555 1_555
O3B Rb2 1_555 1_555
O4B Rb1 1_555 1_555
O4B_2 C19 1_555 1_555
O4_2 C19B_2 1_555 1_555
O5B Rb3B 1_555 1_555
O5B_2 C20B_2 1_555 1_555
O6B Rb2B 1_555 1_555
O6A C23A 1_555 1_555
O7B Rb3 1_555 1_555
O7A C24 1_555 1_555
O8A Rb3B 1_555 1_555
O8C Rb3 1_555 1_555
O9B Rb1 1_555 1_555
C1B O1B 1_555 1_555
C2B C1B 1_555 1_555
H1B C2B 1_555 1_555
C3B C2B 1_555 1_555
H2B C3B 1_555 1_555
C4B C3B 1_555 1_555
C5B C4B 1_555 1_555
H3B C5B 1_555 1_555
C6B C1B 1_555 1_555
H4B C6B 1_555 1_555
C7B O2B 1_555 1_555
C8B C7B 1_555 1_555
H5B C8B 1_555 1_555
C9B C8B 1_555 1_555
H6B C9B 1_555 1_555
C10B C9B 1_555 1_555
C11B C10B 1_555 1_555
H7B C11B 1_555 1_555
C12B C7B 1_555 1_555
H8B C12B 1_555 1_555
C13B O3B 1_555 1_555
C14B C13B 1_555 1_555
H9B C14B 1_555 1_555
C15B C14B 1_555 1_555
H10B C15B 1_555 1_555
C16B C15B 1_555 1_555
C17B C16B 1_555 1_555
H11B C17B 1_555 1_555
C18B C13B 1_555 1_555
H12B C18B 1_555 1_555
C19B O4 1_555 1_555
C19B_2 H13B_2 1_555 1_555
H13B C19B 1_555 1_555
H14B C19B 1_555 1_555
H14B_2 C19B_2 1_555 1_555
C20B O5B 1_555 1_555
C20B_2 C19B 1_555 1_555
H15B C20B 1_555 1_555
H15B_2 C20B_2 1_555 1_555
H16B C20B 1_555 1_555
H16B_2 C20B_2 1_555 1_555
C21B O5B 1_555 1_555
C21B_2 O5B_2 1_555 1_555
H17B C21B 1_555 1_555
H17B_2 C21B_2 1_555 1_555
H18B C21B 1_555 1_555
H18B_2 C21B_2 1_555 1_555
C22B O4 1_555 1_555
C22B_2 O4_2 1_555 1_555
H19B C22B 1_555 1_555
H19B_2 C22B_2 1_555 1_555
H20B C22B 1_555 1_555
H20B_2 C22B_2 1_555 1_555
C23A H21A 1_555 1_555
H22A C23A 1_555 1_555
C24A O7 1_555 1_555
H23A C24A 1_555 1_555
H24A C24A 1_555 1_555
C25A O7 1_555 1_555
H25A C25A 1_555 1_555
H26A C25A 1_555 1_555
C26A O6A 1_555 1_555
H27A C26A 1_555 1_555
H28A C26A 1_555 1_555
Rb2 O3 1_555 1_555
Rb3 O2 1_555 1_555
O3 Rb2B 1_555 1_555
C5 C6 1_555 1_555
C11 C12 1_555 1_555
C17 C18 1_555 1_555
C19 C20 1_555 1_555
C22 O4B_2 1_555 1_555
C25 C26 1_555 1_555
C25 O7A 1_555 1_555
C29 C30 1_555 1_555
Rb1B O2B 1_555 1_555
Rb1B O3B 1_555 1_555
Rb2B O1B 1_555 1_555
Rb2B O3B 1_555 1_555
Rb3B O2B 1_555 1_555
C5B C6B 1_555 1_555
C11B C12B 1_555 1_555
C17B C18B 1_555 1_555
C19B_2 C20B 1_555 1_555
C21B C22B_2 1_555 1_555
C21B_2 C22B 1_555 1_555
C23A C24A 1_555 1_555
C25A C26A 1_555 1_555

#END
