
#######################################################################
#
#                 Cambridge Crystallographic Data Centre
#                                CCDC 
#
#######################################################################
#
# If this CIF has been generated from an entry in the Cambridge 
# Structural Database, then it will include bibliographic, chemical, 
# crystal, experimental, refinement or atomic coordinate data resulting 
# from the CCDC's data processing and validation procedures.
#
#######################################################################

data_POKXUK01
_symmetry_cell_setting           triclinic
_symmetry_space_group_name_H-M   'P -1'
_symmetry_Int_Tables_number      2
_space_group_name_Hall           '-P 1'
loop_
_symmetry_equiv_pos_site_id
_symmetry_equiv_pos_as_xyz
1 x,y,z
2 -x,-y,-z
_cell_length_a                   7.470(4)
_cell_length_b                   8.222(4)
_cell_length_c                   10.497(5)
_cell_angle_alpha                90.650(7)
_cell_angle_beta                 108.675(6)
_cell_angle_gamma                94.946(6)
_cell_volume                     607.972
loop_
_atom_site_label
_atom_site_type_symbol
_atom_site_fract_x
_atom_site_fract_y
_atom_site_fract_z
Ag1 Ag 0.76602(16) 0.17348(14) 1.25237(9)
C1 C 0.639(2) 0.1364(18) 0.9302(12)
H1 H 0.5845 0.2350 0.9235
C2 C 0.795(2) -0.0573(18) 1.0157(12)
H2 H 0.8685 -0.1261 1.0761
C3 C 0.719(3) -0.381(2) 0.8489(16)
H3 H 0.7045 -0.4059 0.9315
C4 C 0.7303(19) -0.2290(19) 0.8073(13)
C5 C 0.7489(19) -0.2238(17) 0.6759(12)
C6 C 0.754(2) -0.3764(19) 0.6227(15)
H4 H 0.7674 -0.3973 0.5390
C7 C 0.885(2) 0.1515(19) 0.5743(12)
H5 H 0.9512 0.2548 0.5872
C8 C 0.704(2) -0.0546(18) 0.4767(13)
H6 H 0.6201 -0.1273 0.4120
N1 N 0.7502(17) 0.0818(15) 1.0497(10)
N2 N 0.6146(17) 0.0365(15) 0.8251(10)
N3 N 0.7218(16) -0.0896(15) 0.8840(10)
N4 N 0.7744(17) -0.0834(15) 0.6080(10)
N5 N 0.8964(17) 0.0527(15) 0.6729(10)
N6 N 0.7701(17) 0.0917(15) 0.4522(10)
N7 N 0.739(2) 0.5368(17) 1.2346(13)
O1 O 0.801(2) 0.4781(17) 1.3469(12)
O2 O 0.7085(15) 0.4472(13) 1.1336(8)
O3 O 0.722(2) 0.6847(15) 1.2278(15)
S1 S 0.7331(9) -0.5230(5) 0.7346(5)
Ag1_2 Ag 0.76602(16) 0.17348(14) 0.25237(9)
N6_2 N 0.7701(17) 0.0917(15) 1.4522(10)
loop_
_geom_bond_atom_site_label_1
_geom_bond_atom_site_label_2
_geom_bond_site_symmetry_1
_geom_bond_site_symmetry_2
Ag1 N1 1_555 1_555
C1 H1 1_555 1_555
C2 H2 1_555 1_555
C3 H3 1_555 1_555
C4 C3 1_555 1_555
C5 C4 1_555 1_555
C6 C5 1_555 1_555
H4 C6 1_555 1_555
C7 H5 1_555 1_555
C8 H6 1_555 1_555
N1 C1 1_555 1_555
N2 C1 1_555 1_555
N3 C2 1_555 1_555
N4 C5 1_555 1_555
N5 C7 1_555 1_555
N6 C7 1_555 1_555
N7 O1 1_555 1_555
O1 Ag1 1_555 1_555
O2 Ag1 1_555 1_555
O3 N7 1_555 1_555
S1 C3 1_555 1_555
Ag1_2 N6 1_555 1_555
N6_2 Ag1 1_555 1_555
C2 N1 1_555 1_555
C4 N3 1_555 1_555
C6 S1 1_555 1_555
C8 N4 1_555 1_555
C8 N6 1_555 1_555
N2 N3 1_555 1_555
N4 N5 1_555 1_555
N7 O2 1_555 1_555

#END
