
#######################################################################
#
#                 Cambridge Crystallographic Data Centre
#                                CCDC 
#
#######################################################################
#
# If this CIF has been generated from an entry in the Cambridge 
# Structural Database, then it will include bibliographic, chemical, 
# crystal, experimental, refinement or atomic coordinate data resulting 
# from the CCDC's data processing and validation procedures.
#
#######################################################################

data_POKXAP
_symmetry_cell_setting           monoclinic
_symmetry_space_group_name_H-M   'P 21/c'
_symmetry_Int_Tables_number      14
_space_group_name_Hall           '-P 2ybc'
loop_
_symmetry_equiv_pos_site_id
_symmetry_equiv_pos_as_xyz
1 x,y,z
2 -x,1/2+y,1/2-z
3 -x,-y,-z
4 x,1/2-y,1/2+z
_cell_length_a                   11.2104(8)
_cell_length_b                   15.3230(12)
_cell_length_c                   22.0706(18)
_cell_angle_alpha                90
_cell_angle_beta                 103.706(4)
_cell_angle_gamma                90
_cell_volume                     3683.26
loop_
_atom_site_label
_atom_site_type_symbol
_atom_site_fract_x
_atom_site_fract_y
_atom_site_fract_z
K1 K 0.63180(4) -0.33030(3) 0.601810(19)
K2 K 0.39673(3) -0.41586(3) 0.449890(17)
K3 K 0.34910(3) -0.42738(3) 0.648140(17)
I1 I 0.286710(12) 0.074450(8) 0.530600(6)
I2 I 1.031630(12) -0.473110(10) 0.883720(6)
I3 I 1.070740(12) -0.312250(9) 0.391840(7)
O1 O 0.38663(12) -0.32516(8) 0.55917(6)
O2 O 0.57818(12) -0.48086(9) 0.65620(6)
O3 O 0.63294(11) -0.42821(8) 0.50099(6)
O4 O 0.11925(11) -0.70970(9) 0.36283(6)
O5 O 0.10637(11) -0.37299(9) 0.63756(6)
O6 O 0.38312(13) -0.27778(9) 0.36328(6)
O7 O 0.36699(12) -0.18298(9) 0.25111(6)
O8 O 0.31255(13) -0.97208(9) 0.24710(6)
O9 O 0.34083(13) -0.82074(9) 0.32238(7)
C1 C 0.36570(15) -0.24160(12) 0.55387(8)
C2 C 0.30076(16) -0.19589(12) 0.59198(8)
H1 H 0.2720 -0.2273 0.6228
C3 C 0.27804(17) -0.10722(13) 0.58574(9)
H2 H 0.2341 -0.0787 0.6119
C4 C 0.31959(17) -0.06014(12) 0.54121(9)
C5 C 0.38578(17) -0.10127(12) 0.50394(8)
H3 H 0.4153 -0.0687 0.4739
C6 C 0.40883(17) -0.18961(12) 0.51044(8)
H4 H 0.4554 -0.2166 0.4848
C7 C 0.67082(16) -0.47970(12) 0.70463(8)
C8 C 0.76876(17) -0.54004(12) 0.71179(9)
H5 H 0.7651 -0.5837 0.6808
C9 C 0.86950(18) -0.53800(13) 0.76199(9)
H6 H 0.9332 -0.5798 0.7650
C10 C 0.87771(17) -0.47536(13) 0.80777(8)
C11 C 0.78368(18) -0.41549(13) 0.80334(9)
H7 H 0.7885 -0.3727 0.8350
C12 C 0.68229(17) -0.41742(13) 0.75301(9)
H8 H 0.6188 -0.3757 0.7510
C13 C 0.72178(15) -0.40504(12) 0.47607(8)
C14 C 0.81132(16) -0.46477(12) 0.46559(8)
H9 H 0.8044 -0.5245 0.4757
C15 C 0.90817(16) -0.43884(12) 0.44118(8)
H10 H 0.9665 -0.4806 0.4346
C16 C 0.92043(16) -0.35195(12) 0.42625(8)
C17 C 0.83430(17) -0.29145(12) 0.43436(8)
H11 H 0.8420 -0.2321 0.4235
C18 C 0.73689(17) -0.31773(12) 0.45830(9)
H12 H 0.6777 -0.2755 0.4630
C19 C -0.03485(18) -0.25390(13) 0.60448(9)
H13 H 0.0210 -0.2126 0.6320
H14 H -0.0805 -0.2214 0.5675
C20 C 0.03854(18) -0.32569(13) 0.58442(9)
H15 H -0.0174 -0.3660 0.5561
H16 H 0.0960 -0.3005 0.5613
C21 C 0.02323(17) -0.40830(13) 0.67117(9)
H17 H 0.0702 -0.4392 0.7087
H18 H -0.0314 -0.4512 0.6446
C22 C -0.05282(17) -0.33760(13) 0.69044(9)
H19 H -0.1113 -0.3638 0.7126
H20 H 0.0013 -0.2971 0.7195
C23 C 0.33993(18) -0.18983(12) 0.35603(9)
H21 H 0.4095 -0.1493 0.3708
H22 H 0.2796 -0.1803 0.3816
C24 C 0.28072(17) -0.17122(13) 0.28864(9)
H23 H 0.2101 -0.2109 0.2741
H24 H 0.2497 -0.1105 0.2844
C25 C 0.4113(2) -0.27081(13) 0.25763(9)
H25 H 0.4733 -0.2788 0.2327
H26 H 0.3425 -0.3114 0.2413
C26 C 0.46837(19) -0.29215(14) 0.32521(9)
H27 H 0.4950 -0.3539 0.3287
H28 H 0.5419 -0.2552 0.3403
C27 C 0.42029(18) -0.95772(13) 0.29594(9)
H29 H 0.4834 -0.9280 0.2787
H30 H 0.4542 -1.0145 0.3133
C28 C 0.39105(18) -0.90312(14) 0.34681(9)
H31 H 0.3312 -0.9342 0.3656
H32 H 0.4667 -0.8934 0.3799
C29 C 0.23162(18) -0.83550(14) 0.27527(10)
H33 H 0.1968 -0.7789 0.2580
H34 H 0.1701 -0.8651 0.2937
C30 C 0.25794(19) -0.89079(13) 0.22390(9)
H35 H 0.1805 -0.9020 0.1924
H36 H 0.3140 -0.8589 0.2032
K1B K 0.36820(4) -0.66970(3) 0.398190(19)
K1_2 K -0.36820(4) -0.33030(3) 0.601810(19)
K1B_2 K 1.36820(4) -0.66970(3) 0.398190(19)
K2B K 0.60327(3) -0.58414(3) 0.550110(17)
K2A K 0.60327(3) -0.91586(3) 0.050110(17)
K3C K 0.34910(3) -0.07262(3) 0.148140(17)
K3B K 0.65090(3) -0.57262(3) 0.351860(17)
K3B_2 K -0.34910(3) -0.57262(3) 0.351860(17)
K3C_2 K 0.34910(3) -1.07262(3) 0.148140(17)
I1B I 0.713290(12) -1.074450(8) 0.469400(6)
I2B I -0.031630(12) -0.526890(10) 0.116280(6)
I3B I -0.070740(12) -0.687750(9) 0.608160(7)
O1B O 0.61337(12) -0.67484(8) 0.44083(6)
O2B O 0.42182(12) -0.51914(9) 0.34380(6)
O3B O 0.36706(11) -0.57179(8) 0.49901(6)
O4B O 0.88075(11) -0.29030(9) 0.63717(6)
O4B_2 O -0.11925(11) -0.29030(9) 0.63717(6)
O4_2 O 1.11925(11) -0.70970(9) 0.36283(6)
O5B O 0.89363(11) -0.62701(9) 0.36244(6)
O5B_2 O -0.10637(11) -0.62701(9) 0.36244(6)
O6B O 0.61688(13) -0.72222(9) 0.63672(6)
O6A O 0.61688(13) -0.77778(9) 0.13672(6)
O7C O 0.36699(12) -0.31702(9) 0.75111(6)
O7A O 0.63301(12) -0.68298(9) 0.24889(6)
O8C O 0.31255(13) -0.52792(9) 0.74710(6)
O8A O 0.68745(13) -0.47208(9) 0.25290(6)
O9B O 0.65917(13) -0.17926(9) 0.67762(7)
C1B C 0.63430(15) -0.75840(12) 0.44613(8)
C2B C 0.69924(16) -0.80411(12) 0.40802(8)
H1B H 0.7280 -0.7727 0.3772
C3B C 0.72196(17) -0.89278(13) 0.41426(9)
H2B H 0.7659 -0.9213 0.3881
C4B C 0.68041(17) -0.93986(12) 0.45879(9)
C5B C 0.61422(17) -0.89873(12) 0.49606(8)
H3B H 0.5847 -0.9313 0.5261
C6B C 0.59117(17) -0.81039(12) 0.48956(8)
H4B H 0.5446 -0.7834 0.5152
C7B C 0.32918(16) -0.52030(12) 0.29537(8)
C8B C 0.23124(17) -0.45996(12) 0.28821(9)
H5B H 0.2349 -0.4163 0.3192
C9B C 0.13050(18) -0.46200(13) 0.23801(9)
H6B H 0.0668 -0.4202 0.2350
C10B C 0.12229(17) -0.52464(13) 0.19223(8)
C11B C 0.21632(18) -0.58451(13) 0.19666(9)
H7B H 0.2115 -0.6273 0.1650
C12B C 0.31771(17) -0.58258(13) 0.24699(9)
H8B H 0.3812 -0.6243 0.2490
C13B C 0.27822(15) -0.59496(12) 0.52393(8)
C14B C 0.18868(16) -0.53523(12) 0.53441(8)
H9B H 0.1956 -0.4755 0.5243
C15B C 0.09183(16) -0.56116(12) 0.55882(8)
H10B H 0.0335 -0.5194 0.5654
C16B C 0.07957(16) -0.64805(12) 0.57375(8)
C17B C 0.16570(17) -0.70855(12) 0.56564(8)
H11B H 0.1580 -0.7679 0.5765
C18B C 0.26311(17) -0.68227(12) 0.54170(9)
H12B H 0.3223 -0.7245 0.5370
C19B C 0.03485(18) -0.74610(13) 0.39552(9)
C19B_2 C 1.03485(18) -0.74610(13) 0.39552(9)
H13B H -0.0210 -0.7874 0.3680
H13B_2 H 0.9790 -0.7874 0.3680
H14B H 0.0805 -0.7786 0.4325
H14B_2 H 1.0805 -0.7786 0.4325
C20B C 0.96146(18) -0.67431(13) 0.41558(9)
C20B_2 C -0.03854(18) -0.67431(13) 0.41558(9)
H15B H 1.0174 -0.6340 0.4439
H15B_2 H 0.0174 -0.6340 0.4439
H16B H 0.9040 -0.6995 0.4387
H16B_2 H -0.0960 -0.6995 0.4387
C21B C 0.97677(17) -0.59170(13) 0.32883(9)
C21B_2 C -0.02323(17) -0.59170(13) 0.32883(9)
H17B H 0.9298 -0.5608 0.2913
H17B_2 H -0.0702 -0.5608 0.2913
H18B H 1.0314 -0.5488 0.3554
H18B_2 H 0.0314 -0.5488 0.3554
C22B C 0.05282(17) -0.66240(13) 0.30956(9)
C22B_2 C 1.05282(17) -0.66240(13) 0.30956(9)
H19B H 0.1113 -0.6362 0.2874
H19B_2 H 1.1113 -0.6362 0.2874
H20B H -0.0013 -0.7029 0.2805
H20B_2 H 0.9987 -0.7029 0.2805
C23A C 0.66007(18) -0.68983(12) 0.14397(9)
H21A H 0.5905 -0.6493 0.1292
H22A H 0.7204 -0.6803 0.1184
C24A C 0.71928(17) -0.67122(13) 0.21136(9)
H23A H 0.7899 -0.7109 0.2259
H24A H 0.7503 -0.6105 0.2156
C25A C 0.5887(2) -0.77081(13) 0.24237(9)
H25A H 0.5267 -0.7788 0.2673
H26A H 0.6575 -0.8114 0.2587
C26A C 0.53163(19) -0.79215(14) 0.17479(9)
H27A H 0.5050 -0.8539 0.1713
H28A H 0.4581 -0.7552 0.1597
loop_
_geom_bond_atom_site_label_1
_geom_bond_atom_site_label_2
_geom_bond_site_symmetry_1
_geom_bond_site_symmetry_2
K1 O1 1_555 1_555
K2 O1 1_555 1_555
K3 O1 1_555 1_555
I1 C4 1_555 1_555
I2 C10 1_555 1_555
I3 C16 1_555 1_555
O1 C1 1_555 1_555
O2 K1 1_555 1_555
O3 K1 1_555 1_555
O4 K1B 1_555 1_555
O5 K3 1_555 1_555
O6 K2 1_555 1_555
O7 C24 1_555 1_555
O8 C27 1_555 1_555
O9 C28 1_555 1_555
C1 C2 1_555 1_555
C2 H1 1_555 1_555
C3 C2 1_555 1_555
H2 C3 1_555 1_555
C4 C3 1_555 1_555
C5 C4 1_555 1_555
H3 C5 1_555 1_555
C6 C1 1_555 1_555
H4 C6 1_555 1_555
C7 O2 1_555 1_555
C8 C7 1_555 1_555
H5 C8 1_555 1_555
C9 C8 1_555 1_555
H6 C9 1_555 1_555
C10 C9 1_555 1_555
C11 C10 1_555 1_555
H7 C11 1_555 1_555
C12 C7 1_555 1_555
H8 C12 1_555 1_555
C13 O3 1_555 1_555
C14 C13 1_555 1_555
H9 C14 1_555 1_555
C15 C14 1_555 1_555
H10 C15 1_555 1_555
C16 C15 1_555 1_555
C17 C16 1_555 1_555
H11 C17 1_555 1_555
C18 C13 1_555 1_555
H12 C18 1_555 1_555
C19 H13 1_555 1_555
H14 C19 1_555 1_555
C20 O5 1_555 1_555
H15 C20 1_555 1_555
H16 C20 1_555 1_555
C21 O5 1_555 1_555
H17 C21 1_555 1_555
H18 C21 1_555 1_555
C22 C21 1_555 1_555
H19 C22 1_555 1_555
H20 C22 1_555 1_555
C23 O6 1_555 1_555
H21 C23 1_555 1_555
H22 C23 1_555 1_555
C24 C23 1_555 1_555
H23 C24 1_555 1_555
H24 C24 1_555 1_555
C25 O7 1_555 1_555
H25 C25 1_555 1_555
H26 C25 1_555 1_555
C26 O6 1_555 1_555
H27 C26 1_555 1_555
H28 C26 1_555 1_555
C27 H29 1_555 1_555
H30 C27 1_555 1_555
C28 C27 1_555 1_555
H31 C28 1_555 1_555
H32 C28 1_555 1_555
C29 O9 1_555 1_555
H33 C29 1_555 1_555
H34 C29 1_555 1_555
C30 O8 1_555 1_555
H35 C30 1_555 1_555
H36 C30 1_555 1_555
K1B O9 1_555 1_555
K1_2 O4B_2 1_555 1_555
K1B_2 O4_2 1_555 1_555
K2B O2 1_555 1_555
K2A O6A 1_555 1_555
K3C O7 1_555 1_555
K3B O1B 1_555 1_555
K3B_2 O5B_2 1_555 1_555
K3C_2 O8 1_555 1_555
I1B C4B 1_555 1_555
I2B C10B 1_555 1_555
I3B C16B 1_555 1_555
O1B K1B 1_555 1_555
O2B K2 1_555 1_555
O3B K2 1_555 1_555
O4B K1 1_555 1_555
O4B_2 C19 1_555 1_555
O4_2 C19B_2 1_555 1_555
O5B K3B 1_555 1_555
O5B_2 C20B_2 1_555 1_555
O6B K2B 1_555 1_555
O6A C23A 1_555 1_555
O7C K3 1_555 1_555
O7A K3B 1_555 1_555
O8C K3 1_555 1_555
O8A K3B 1_555 1_555
O9B K1 1_555 1_555
C1B O1B 1_555 1_555
C2B C1B 1_555 1_555
H1B C2B 1_555 1_555
C3B C2B 1_555 1_555
H2B C3B 1_555 1_555
C4B C3B 1_555 1_555
C5B C4B 1_555 1_555
H3B C5B 1_555 1_555
C6B C1B 1_555 1_555
H4B C6B 1_555 1_555
C7B O2B 1_555 1_555
C8B C7B 1_555 1_555
H5B C8B 1_555 1_555
C9B C8B 1_555 1_555
H6B C9B 1_555 1_555
C10B C9B 1_555 1_555
C11B C10B 1_555 1_555
H7B C11B 1_555 1_555
C12B C7B 1_555 1_555
H8B C12B 1_555 1_555
C13B O3B 1_555 1_555
C14B C13B 1_555 1_555
H9B C14B 1_555 1_555
C15B C14B 1_555 1_555
H10B C15B 1_555 1_555
C16B C15B 1_555 1_555
C17B C16B 1_555 1_555
H11B C17B 1_555 1_555
C18B C13B 1_555 1_555
H12B C18B 1_555 1_555
C19B O4 1_555 1_555
C19B_2 H13B_2 1_555 1_555
H13B C19B 1_555 1_555
H14B C19B 1_555 1_555
H14B_2 C19B_2 1_555 1_555
C20B O5B 1_555 1_555
C20B_2 C19B 1_555 1_555
H15B C20B 1_555 1_555
H15B_2 C20B_2 1_555 1_555
H16B C20B 1_555 1_555
H16B_2 C20B_2 1_555 1_555
C21B O5B 1_555 1_555
C21B_2 O5B_2 1_555 1_555
H17B C21B 1_555 1_555
H17B_2 C21B_2 1_555 1_555
H18B C21B 1_555 1_555
H18B_2 C21B_2 1_555 1_555
C22B O4 1_555 1_555
C22B_2 O4_2 1_555 1_555
H19B C22B 1_555 1_555
H19B_2 C22B_2 1_555 1_555
H20B C22B 1_555 1_555
H20B_2 C22B_2 1_555 1_555
C23A H21A 1_555 1_555
H22A C23A 1_555 1_555
C24A O7A 1_555 1_555
H23A C24A 1_555 1_555
H24A C24A 1_555 1_555
C25A O7A 1_555 1_555
H25A C25A 1_555 1_555
H26A C25A 1_555 1_555
C26A O6A 1_555 1_555
H27A C26A 1_555 1_555
H28A C26A 1_555 1_555
K2 O3 1_555 1_555
K3 O2 1_555 1_555
O3 K2B 1_555 1_555
C5 C6 1_555 1_555
C11 C12 1_555 1_555
C17 C18 1_555 1_555
C19 C20 1_555 1_555
C22 O4B_2 1_555 1_555
C25 C26 1_555 1_555
C29 C30 1_555 1_555
K1B O2B 1_555 1_555
K1B O3B 1_555 1_555
K2B O1B 1_555 1_555
K2B O3B 1_555 1_555
K3B O2B 1_555 1_555
C5B C6B 1_555 1_555
C11B C12B 1_555 1_555
C17B C18B 1_555 1_555
C19B_2 C20B 1_555 1_555
C21B C22B_2 1_555 1_555
C21B_2 C22B 1_555 1_555
C23A C24A 1_555 1_555
C25A C26A 1_555 1_555

#END
