
#######################################################################
#
#                 Cambridge Crystallographic Data Centre
#                                CCDC 
#
#######################################################################
#
# If this CIF has been generated from an entry in the Cambridge 
# Structural Database, then it will include bibliographic, chemical, 
# crystal, experimental, refinement or atomic coordinate data resulting 
# from the CCDC's data processing and validation procedures.
#
#######################################################################

data_POKXUK
_symmetry_cell_setting           triclinic
_symmetry_space_group_name_H-M   'P -1'
_symmetry_Int_Tables_number      2
_space_group_name_Hall           '-P 1'
loop_
_symmetry_equiv_pos_site_id
_symmetry_equiv_pos_as_xyz
1 x,y,z
2 -x,-y,-z
_cell_length_a                   7.487(9)
_cell_length_b                   8.234(8)
_cell_length_c                   10.455(9)
_cell_angle_alpha                90.522(17)
_cell_angle_beta                 108.553(17)
_cell_angle_gamma                93.795(18)
_cell_volume                     609.383
loop_
_atom_site_label
_atom_site_type_symbol
_atom_site_fract_x
_atom_site_fract_y
_atom_site_fract_z
Ag1 Ag 0.7623(3) 1.1745(2) 1.25172(16)
C1 C 0.640(4) 1.138(3) 0.928(2)
H1 H 0.5908 1.2395 0.9185
C2 C 0.798(4) 0.945(2) 1.016(2)
H2 H 0.8782 0.8802 1.0777
C3 C 0.717(4) 0.621(3) 0.854(2)
H3 H 0.6953 0.5944 0.9345
C4 C 0.735(3) 0.777(2) 0.812(2)
C5 C 0.758(3) 0.778(2) 0.681(2)
C6 C 0.762(4) 0.626(3) 0.630(2)
H4 H 0.7758 0.6042 0.5462
C7 C 0.879(3) 1.145(2) 0.573(2)
H5 H 0.9431 1.2479 0.5859
C8 C 0.703(4) 0.946(2) 0.479(2)
H6 H 0.6179 0.8749 0.4152
N1 N 0.743(3) 1.0840(18) 1.0487(17)
N2 N 0.613(3) 1.037(2) 0.8237(18)
N3 N 0.724(3) 0.909(2) 0.8856(17)
N4 N 0.773(3) 0.917(2) 0.6074(15)
N5 N 0.894(2) 1.050(2) 0.6716(16)
N6 N 0.770(3) 1.092(2) 0.4535(17)
N7 N 0.746(3) 1.541(2) 1.244(2)
O1 O 0.799(3) 1.475(2) 1.3481(17)
O2 O 0.703(4) 1.455(3) 1.135(2)
O3 O 0.725(3) 1.685(2) 1.232(2)
S1 S 0.7378(13) 0.4810(7) 0.7389(8)
Ag1_2 Ag 0.7623(3) 1.1745(2) 0.25172(16)
N6_2 N 0.770(3) 1.092(2) 1.4535(17)
loop_
_geom_bond_atom_site_label_1
_geom_bond_atom_site_label_2
_geom_bond_site_symmetry_1
_geom_bond_site_symmetry_2
Ag1 N1 1_555 1_555
C1 H1 1_555 1_555
C2 H2 1_555 1_555
C3 H3 1_555 1_555
C4 C3 1_555 1_555
C5 C4 1_555 1_555
C6 C5 1_555 1_555
H4 C6 1_555 1_555
C7 H5 1_555 1_555
C8 H6 1_555 1_555
N1 C1 1_555 1_555
N2 C1 1_555 1_555
N3 C2 1_555 1_555
N4 C5 1_555 1_555
N5 C7 1_555 1_555
N6 C7 1_555 1_555
N7 O1 1_555 1_555
O1 Ag1 1_555 1_555
O2 Ag1 1_555 1_555
O3 N7 1_555 1_555
S1 C3 1_555 1_555
Ag1_2 N6 1_555 1_555
N6_2 Ag1 1_555 1_555
C2 N1 1_555 1_555
C4 N3 1_555 1_555
C6 S1 1_555 1_555
C8 N4 1_555 1_555
C8 N6 1_555 1_555
N2 N3 1_555 1_555
N4 N5 1_555 1_555
N7 O2 1_555 1_555

#END
