
#######################################################################
#
#                 Cambridge Crystallographic Data Centre
#                                CCDC 
#
#######################################################################
#
# If this CIF has been generated from an entry in the Cambridge 
# Structural Database, then it will include bibliographic, chemical, 
# crystal, experimental, refinement or atomic coordinate data resulting 
# from the CCDC's data processing and validation procedures.
#
#######################################################################

data_POKYAQ
_symmetry_cell_setting           monoclinic
_symmetry_space_group_name_H-M   'P 21/n'
_symmetry_Int_Tables_number      14
_space_group_name_Hall           '-P 2yn'
loop_
_symmetry_equiv_pos_site_id
_symmetry_equiv_pos_as_xyz
1 x,y,z
2 1/2-x,1/2+y,1/2-z
3 -x,-y,-z
4 1/2+x,1/2-y,1/2+z
_cell_length_a                   15.3562(18)
_cell_length_b                   12.0117(14)
_cell_length_c                   33.175(4)
_cell_angle_alpha                90
_cell_angle_beta                 97.114(3)
_cell_angle_gamma                90
_cell_volume                     6072.16
loop_
_atom_site_label
_atom_site_type_symbol
_atom_site_fract_x
_atom_site_fract_y
_atom_site_fract_z
S1 S 0.69336(12) -0.49955(16) 0.08898(5)
O3 O 0.6497(4) -0.5188(5) 0.04904(16)
O4 O 0.6539(4) -0.4140(4) 0.11177(15)
O5 O 0.7203(4) -0.5969(5) 0.11206(17)
C57 C 0.7957(6) -0.4371(9) 0.0797(2)
F1 F 0.8466(4) -0.5116(6) 0.0643(2)
F2 F 0.7851(4) -0.3530(6) 0.05461(17)
F3 F 0.8404(4) -0.3976(6) 0.11310(17)
C59 C 0.4903(10) -0.6846(15) 0.3544(4)
H51 H 0.4489 -0.7363 0.3401
H52 H 0.5293 -0.7246 0.3746
H53 H 0.5243 -0.6492 0.3352
C60 C 0.4422(12) -0.5990(12) 0.3745(5)
H54 H 0.4646 -0.5983 0.4035
H55 H 0.3802 -0.6207 0.3722
C61 C 0.4477(9) -0.4839(12) 0.3584(4)
H56 H 0.4301 -0.4800 0.3290
H57 H 0.5061 -0.4511 0.3652
C62 C 0.3813(10) -0.4333(14) 0.3820(4)
H58 H 0.3386 -0.4887 0.3888
H59 H 0.3502 -0.3718 0.3671
C63 C 0.4377(11) -0.3925(19) 0.4194(5)
H60 H 0.4812 -0.3394 0.4118
H61 H 0.4690 -0.4553 0.4335
C64 C 0.380(2) -0.336(2) 0.4476(7)
Ag1 Ag 0.40611(3) -0.38212(4) 0.174730(12)
Ag2 Ag 0.44563(3) -0.16739(3) 0.136160(12)
P1 P 0.37253(10) -0.46115(12) 0.10746(4)
P2 P 0.53783(10) -0.34004(12) 0.22100(4)
P3 P 0.58205(10) -0.12613(12) 0.18013(4)
P4 P 0.42804(9) -0.24827(12) 0.06898(4)
O1 O 0.3330(3) -0.0764(3) 0.16290(12)
O2 O 0.2893(3) -0.2439(3) 0.18069(12)
N1 N 0.1632(3) 0.0075(5) 0.27814(16)
C1 C 0.2918(4) -0.1403(5) 0.18274(16)
C2 C 0.1404(4) -0.0942(5) 0.2639(2)
H1 H 0.0965 -0.1332 0.2753
C3 C 0.1788(4) -0.1435(5) 0.23316(19)
H2 H 0.1617 -0.2156 0.2245
C4 C 0.2432(4) -0.0872(5) 0.21468(16)
C5 C 0.2632(4) 0.0195(5) 0.22744(18)
H3 H 0.3027 0.0627 0.2146
C6 C 0.2239(4) 0.0627(6) 0.2599(2)
H4 H 0.2407 0.1341 0.2695
C7 C 0.4340(4) -0.4005(4) 0.06844(16)
H5 H 0.4955 -0.4239 0.0735
H6 H 0.4096 -0.4281 0.0416
C8 C 0.6240(4) -0.2587(4) 0.20117(16)
H7 H 0.6717 -0.2448 0.2231
H8 H 0.6481 -0.3016 0.1800
C9 C 0.2568(4) -0.4558(5) 0.08725(17)
C10 C 0.2265(5) -0.4804(7) 0.0479(2)
H9 H 0.2658 -0.5007 0.0295
C11 C 0.1372(6) -0.4753(10) 0.0352(2)
H10 H 0.1163 -0.4915 0.0080
C12 C 0.0790(6) -0.4474(9) 0.0613(3)
H11 H 0.0187 -0.4429 0.0522
C13 C 0.1094(5) -0.4259(8) 0.1012(3)
H12 H 0.0696 -0.4107 0.1199
C14 C 0.1976(5) -0.4268(6) 0.1137(2)
H13 H 0.2184 -0.4076 0.1407
C15 C 0.3974(4) -0.6095(5) 0.10772(17)
C16 C 0.3389(5) -0.6854(5) 0.1210(2)
H14 H 0.2836 -0.6608 0.1267
C17 C 0.3611(7) -0.7973(6) 0.1261(3)
H15 H 0.3211 -0.8475 0.1354
C18 C 0.4418(7) -0.8346(6) 0.1174(2)
H16 H 0.4573 -0.9099 0.1210
C19 C 0.4970(6) -0.7628(7) 0.1040(3)
H17 H 0.5515 -0.7886 0.0977
C20 C 0.4768(5) -0.6499(6) 0.0988(2)
H18 H 0.5176 -0.6012 0.0892
C21 C 0.5870(4) -0.4765(5) 0.23111(16)
C22 C 0.6097(4) -0.5354(5) 0.19775(17)
H19 H 0.6063 -0.5003 0.1723
C23 C 0.6369(5) -0.6444(5) 0.2017(2)
H20 H 0.6521 -0.6829 0.1789
C24 C 0.6422(4) -0.6977(5) 0.2388(2)
H21 H 0.6596 -0.7726 0.2414
C25 C 0.6216(5) -0.6391(6) 0.2717(2)
H22 H 0.6263 -0.6744 0.2972
C26 C 0.5943(4) -0.5297(5) 0.26863(18)
H23 H 0.5806 -0.4914 0.2917
C27 C 0.5254(4) -0.2791(5) 0.27027(16)
C28 C 0.5935(4) -0.2603(5) 0.30001(17)
H24 H 0.6507 -0.2816 0.2958
C29 C 0.5794(6) -0.2102(6) 0.33633(19)
H25 H 0.6269 -0.1988 0.3567
C30 C 0.4983(7) -0.1777(7) 0.3428(2)
H26 H 0.4899 -0.1435 0.3675
C31 C 0.4275(6) -0.1939(8) 0.3135(2)
H27 H 0.3708 -0.1716 0.3180
C32 C 0.4418(5) -0.2444(6) 0.27695(19)
H28 H 0.3944 -0.2551 0.2565
C33 C 0.5806(4) -0.0369(4) 0.22494(16)
C34 C 0.6542(4) -0.0226(5) 0.25289(17)
H29 H 0.7084 -0.0527 0.2479
C35 C 0.6477(5) 0.0357(5) 0.28799(18)
H30 H 0.6976 0.0438 0.3072
C36 C 0.5695(5) 0.0826(6) 0.2955(2)
H31 H 0.5651 0.1199 0.3201
C37 C 0.4979(5) 0.0738(6) 0.2662(2)
H32 H 0.4453 0.1100 0.2701
C38 C 0.5021(4) 0.0122(6) 0.23107(19)
H33 H 0.4523 0.0041 0.2118
C39 C 0.6696(4) -0.0683(5) 0.15411(15)
C40 C 0.6809(5) 0.0454(5) 0.15244(19)
H34 H 0.6469 0.0923 0.1669
C41 C 0.7405(5) 0.0908(7) 0.1301(2)
H35 H 0.7463 0.1686 0.1291
C42 C 0.7914(5) 0.0259(7) 0.1094(2)
H36 H 0.8336 0.0577 0.0947
C43 C 0.7804(5) -0.0873(7) 0.1104(2)
H37 H 0.8152 -0.1332 0.0959
C44 C 0.7196(5) -0.1345(6) 0.1320(2)
H38 H 0.7120 -0.2122 0.1318
C45 C 0.5147(4) -0.2023(5) 0.04048(16)
C46 C 0.5411(5) -0.0915(6) 0.0463(2)
H39 H 0.5143 -0.0457 0.0641
C47 C 0.6076(6) -0.0491(7) 0.0255(2)
H40 H 0.6252 0.0254 0.0293
C48 C 0.6469(5) -0.1149(8) -0.0002(2)
H41 H 0.6916 -0.0858 -0.0141
C49 C 0.6215(5) -0.2238(8) -0.0059(2)
H42 H 0.6486 -0.2693 -0.0237
C50 C 0.5558(5) -0.2668(6) 0.0147(2)
H43 H 0.5391 -0.3417 0.0108
C51 C 0.3277(4) -0.2164(5) 0.03693(16)
C52 C 0.3132(4) -0.2492(5) -0.00372(17)
H44 H 0.3580 -0.2860 -0.0154
C53 C 0.2344(5) -0.2283(7) -0.0270(2)
H45 H 0.2254 -0.2501 -0.0544
C54 C 0.1697(6) -0.1756(9) -0.0098(3)
H46 H 0.1154 -0.1626 -0.0255
C55 C 0.1819(6) -0.1412(10) 0.0299(3)
H47 H 0.1367 -0.1036 0.0410
C56 C 0.2604(5) -0.1619(7) 0.0533(2)
H48 H 0.2687 -0.1391 0.0806
Ag1A Ag 0.09389(3) 0.11788(4) 0.325270(12)
N1A N 0.3368(3) -0.4925(5) 0.22186(16)
Cl1? Cl 0.4241(7) -0.3530(12) 0.5143(4)
Cl2? Cl 0.393(2) -0.2777(18) 0.4382(6)
C58? C 0.388(3) -0.2359(19) 0.4876(6)
H49? H 0.4260 -0.1720 0.4949
H50? H 0.3275 -0.2170 0.4920
H62? H 0.3535 -0.2698 0.4347
H63? H 0.4148 -0.3161 0.4729
H64? H 0.3336 -0.3872 0.4532
loop_
_geom_bond_atom_site_label_1
_geom_bond_atom_site_label_2
_geom_bond_site_symmetry_1
_geom_bond_site_symmetry_2
Ag1 P1 1_555 1_555
Ag2 P3 1_555 1_555
P1 C7 1_555 1_555
P2 Ag1 1_555 1_555
P3 C8 1_555 1_555
P4 Ag2 1_555 1_555
O1 Ag2 1_555 1_555
O2 Ag1 1_555 1_555
N1 C2 1_555 1_555
C1 O1 1_555 1_555
C2 H1 1_555 1_555
C3 C2 1_555 1_555
H2 C3 1_555 1_555
C4 C1 1_555 1_555
C5 C4 1_555 1_555
H3 C5 1_555 1_555
C6 N1 1_555 1_555
H4 C6 1_555 1_555
C7 P4 1_555 1_555
H5 C7 1_555 1_555
H6 C7 1_555 1_555
C8 P2 1_555 1_555
H7 C8 1_555 1_555
H8 C8 1_555 1_555
C9 P1 1_555 1_555
C10 C9 1_555 1_555
H9 C10 1_555 1_555
C11 C10 1_555 1_555
H10 C11 1_555 1_555
C12 C11 1_555 1_555
H11 C12 1_555 1_555
C13 C12 1_555 1_555
H12 C13 1_555 1_555
C14 C9 1_555 1_555
H13 C14 1_555 1_555
C15 P1 1_555 1_555
C16 C15 1_555 1_555
H14 C16 1_555 1_555
C17 C16 1_555 1_555
H15 C17 1_555 1_555
C18 C17 1_555 1_555
H16 C18 1_555 1_555
C19 C18 1_555 1_555
H17 C19 1_555 1_555
C20 C15 1_555 1_555
H18 C20 1_555 1_555
C21 P2 1_555 1_555
C22 C21 1_555 1_555
H19 C22 1_555 1_555
C23 C22 1_555 1_555
H20 C23 1_555 1_555
C24 C23 1_555 1_555
H21 C24 1_555 1_555
C25 C24 1_555 1_555
H22 C25 1_555 1_555
C26 C21 1_555 1_555
H23 C26 1_555 1_555
C27 P2 1_555 1_555
C28 C27 1_555 1_555
H24 C28 1_555 1_555
C29 C28 1_555 1_555
H25 C29 1_555 1_555
C30 C29 1_555 1_555
H26 C30 1_555 1_555
C31 C30 1_555 1_555
H27 C31 1_555 1_555
C32 C27 1_555 1_555
H28 C32 1_555 1_555
C33 P3 1_555 1_555
C34 C33 1_555 1_555
H29 C34 1_555 1_555
C35 C34 1_555 1_555
H30 C35 1_555 1_555
C36 C35 1_555 1_555
H31 C36 1_555 1_555
C37 C36 1_555 1_555
H32 C37 1_555 1_555
C38 C33 1_555 1_555
H33 C38 1_555 1_555
C39 P3 1_555 1_555
C40 C39 1_555 1_555
H34 C40 1_555 1_555
C41 C40 1_555 1_555
H35 C41 1_555 1_555
C42 C41 1_555 1_555
H36 C42 1_555 1_555
C43 C42 1_555 1_555
H37 C43 1_555 1_555
C44 C39 1_555 1_555
H38 C44 1_555 1_555
C45 P4 1_555 1_555
C46 C45 1_555 1_555
H39 C46 1_555 1_555
C47 C46 1_555 1_555
H40 C47 1_555 1_555
C48 C47 1_555 1_555
H41 C48 1_555 1_555
C49 C48 1_555 1_555
H42 C49 1_555 1_555
C50 C45 1_555 1_555
H43 C50 1_555 1_555
C51 P4 1_555 1_555
C52 C51 1_555 1_555
H44 C52 1_555 1_555
C53 C52 1_555 1_555
H45 C53 1_555 1_555
C54 C53 1_555 1_555
H46 C54 1_555 1_555
C55 C54 1_555 1_555
H47 C55 1_555 1_555
C56 C51 1_555 1_555
H48 C56 1_555 1_555
S1 O3 1_555 1_555
O4 S1 1_555 1_555
O5 S1 1_555 1_555
C57 S1 1_555 1_555
F1 C57 1_555 1_555
F2 C57 1_555 1_555
F3 C57 1_555 1_555
C59 H51 1_555 1_555
H52 C59 1_555 1_555
H53 C59 1_555 1_555
C60 C59 1_555 1_555
H54 C60 1_555 1_555
H55 C60 1_555 1_555
C61 C60 1_555 1_555
H56 C61 1_555 1_555
H57 C61 1_555 1_555
C62 C61 1_555 1_555
H58 C62 1_555 1_555
H59 C62 1_555 1_555
C63 C62 1_555 1_555
H60 C63 1_555 1_555
H61 C63 1_555 1_555
C64 C63 1_555 1_555
Ag1A N1 1_555 1_555
N1A Ag1 1_555 1_555
O2 C1 1_555 1_555
C3 C4 1_555 1_555
C5 C6 1_555 1_555
C13 C14 1_555 1_555
C19 C20 1_555 1_555
C25 C26 1_555 1_555
C31 C32 1_555 1_555
C37 C38 1_555 1_555
C43 C44 1_555 1_555
C49 C50 1_555 1_555
C55 C56 1_555 1_555

#END
