
#######################################################################
#
#                 Cambridge Crystallographic Data Centre
#                                CCDC 
#
#######################################################################
#
# If this CIF has been generated from an entry in the Cambridge 
# Structural Database, then it will include bibliographic, chemical, 
# crystal, experimental, refinement or atomic coordinate data resulting 
# from the CCDC's data processing and validation procedures.
#
#######################################################################

data_POKYEU
_symmetry_cell_setting           orthorhombic
_symmetry_space_group_name_H-M   'P b c a'
_symmetry_Int_Tables_number      61
_space_group_name_Hall           '-P 2ac 2ab'
loop_
_symmetry_equiv_pos_site_id
_symmetry_equiv_pos_as_xyz
1 x,y,z
2 1/2-x,-y,1/2+z
3 -x,1/2+y,1/2-z
4 1/2+x,1/2-y,-z
5 -x,-y,-z
6 1/2+x,y,1/2-z
7 x,1/2-y,1/2+z
8 1/2-x,1/2+y,z
_cell_length_a                   16.9859(6)
_cell_length_b                   28.2770(10)
_cell_length_c                   31.3099(11)
_cell_angle_alpha                90
_cell_angle_beta                 90
_cell_angle_gamma                90
_cell_volume                     15038.5
loop_
_atom_site_label
_atom_site_type_symbol
_atom_site_fract_x
_atom_site_fract_y
_atom_site_fract_z
Ag1 Ag -0.33726(2) 0.326120(10) -0.143420(11)
Ag2 Ag -0.26593(2) 0.280080(10) -0.221630(11)
Ag3 Ag -0.21988(2) 0.364520(10) -0.307160(11)
Ag4 Ag -0.31251(2) 0.316620(10) -0.373160(11)
Ag5 Ag 0.01069(2) 0.562190(11) -0.204940(12)
P1 P -0.39086(6) 0.25354(3) -0.12349(3)
P2 P -0.31098(7) 0.20424(3) -0.19913(3)
P3 P -0.28350(7) 0.43702(3) -0.32444(3)
P4 P -0.37219(7) 0.38654(3) -0.39691(3)
N1 N -0.0739(2) 0.50522(11) -0.20734(12)
N2 N -0.0853(2) 0.12377(11) -0.29822(11)
O1 O -0.2643(2) 0.38180(10) -0.16537(10)
O2 O -0.21855(17) 0.35227(9) -0.22677(9)
O3 O -0.19770(19) 0.28654(9) -0.29813(9)
O4 O -0.25312(19) 0.25353(9) -0.35589(9)
C1 C -0.1323(3) 0.50333(14) -0.17905(14)
H1 H -0.1397 0.5290 -0.1609
C2 C -0.1824(3) 0.46510(13) -0.17535(13)
H2 H -0.2222 0.4650 -0.1550
C3 C -0.1721(2) 0.42694(12) -0.20252(12)
C4 C -0.1128(2) 0.42921(13) -0.23265(13)
H3 H -0.1050 0.4044 -0.2517
C5 C -0.0656(3) 0.46846(14) -0.23409(14)
H4 H -0.0260 0.4697 -0.2546
C6 C -0.2230(2) 0.38350(12) -0.19802(13)
C7 C -0.0691(3) 0.16349(14) -0.27665(14)
H5 H -0.0296 0.1628 -0.2561
C8 C -0.1088(3) 0.20541(14) -0.28372(13)
H6 H -0.0959 0.2323 -0.2682
C9 C -0.1680(2) 0.20699(13) -0.31420(13)
C10 C -0.1850(3) 0.16581(13) -0.33626(14)
H7 H -0.2245 0.1654 -0.3568
C11 C -0.1427(3) 0.12570(14) -0.32737(14)
H8 H -0.1546 0.0983 -0.3425
C12 C -0.2096(3) 0.25325(13) -0.32358(13)
C13 C -0.3998(2) 0.20960(13) -0.16647(12)
H9 H -0.4117 0.1790 -0.1540
H10 H -0.4436 0.2183 -0.1847
C14 C -0.3772(3) 0.42911(13) -0.35294(13)
H11 H -0.4169 0.4186 -0.3327
H12 H -0.3939 0.4595 -0.3642
C15 C -0.4876(2) 0.25642(14) -0.09906(13)
C16 C -0.5384(3) 0.21822(15) -0.09606(15)
H13 H -0.5246 0.1894 -0.1083
C17 C -0.6096(3) 0.22276(18) -0.07500(16)
H14 H -0.6431 0.1969 -0.0727
C18 C -0.6308(3) 0.2653(2) -0.05758(16)
H15 H -0.6789 0.2684 -0.0436
C19 C -0.5804(3) 0.30376(18) -0.06086(18)
H16 H -0.5947 0.3326 -0.0489
C20 C -0.5096(3) 0.29936(16) -0.08160(15)
H17 H -0.4764 0.3254 -0.0839
C21 C -0.3274(3) 0.22559(14) -0.08432(13)
C22 C -0.3536(3) 0.18938(16) -0.05806(15)
H18 H -0.4065 0.1809 -0.0582
C23 C -0.3016(4) 0.16585(19) -0.03171(17)
H19 H -0.3197 0.1414 -0.0144
C24 C -0.2243(4) 0.1781(2) -0.03075(19)
H20 H -0.1895 0.1617 -0.0132
C25 C -0.1974(4) 0.2147(2) -0.05554(19)
H21 H -0.1446 0.2233 -0.0545
C26 C -0.2489(3) 0.23876(17) -0.08209(16)
H22 H -0.2307 0.2639 -0.0985
C27 C -0.2442(3) 0.16662(13) -0.16894(13)
C28 C -0.2704(3) 0.12950(14) -0.14287(14)
H23 H -0.3240 0.1234 -0.1401
C29 C -0.2161(4) 0.10193(18) -0.12125(16)
H24 H -0.2334 0.0773 -0.1039
C30 C -0.1370(4) 0.1105(2) -0.12511(19)
H25 H -0.1010 0.0918 -0.1103
C31 C -0.1106(3) 0.1466(2) -0.15077(19)
H26 H -0.0569 0.1522 -0.1536
C32 C -0.1643(3) 0.17481(18) -0.17241(16)
H27 H -0.1463 0.1995 -0.1895
C33 C -0.3436(2) 0.16822(13) -0.24429(13)
C34 C -0.3505(3) 0.11901(15) -0.24290(15)
H28 H -0.3382 0.1028 -0.2179
C35 C -0.3754(3) 0.09448(16) -0.27820(16)
H29 H -0.3793 0.0617 -0.2770
C36 C -0.3946(3) 0.11765(17) -0.31536(16)
H30 H -0.4127 0.1007 -0.3389
C37 C -0.3868(3) 0.16633(16) -0.31763(15)
H31 H -0.3986 0.1822 -0.3428
C38 C -0.3613(3) 0.19112(14) -0.28211(14)
H32 H -0.3560 0.2238 -0.2837
C39 C -0.3158(2) 0.47004(13) -0.27748(13)
C40 C -0.3547(3) 0.44469(15) -0.24576(14)
H33 H -0.3634 0.4125 -0.2494
C41 C -0.3807(3) 0.46656(17) -0.20899(15)
H34 H -0.4067 0.4493 -0.1880
C42 C -0.3676(3) 0.51462(19) -0.20369(16)
H35 H -0.3855 0.5297 -0.1791
C43 C -0.3283(3) 0.54019(17) -0.23467(16)
H36 H -0.3193 0.5724 -0.2308
C44 C -0.3020(3) 0.51801(15) -0.27162(15)
H37 H -0.2752 0.5352 -0.2923
C45 C -0.2243(3) 0.47786(13) -0.35570(13)
C46 C -0.2568(3) 0.51249(15) -0.38204(14)
H38 H -0.3111 0.5164 -0.3836
C47 C -0.2073(3) 0.54097(16) -0.40576(15)
H39 H -0.2287 0.5639 -0.4236
C48 C -0.1270(4) 0.53603(18) -0.40341(16)
H40 H -0.0946 0.5554 -0.4197
C49 C -0.0946(3) 0.50258(18) -0.37704(16)
H41 H -0.0402 0.4995 -0.3751
C50 C -0.1431(3) 0.47338(16) -0.35326(14)
H42 H -0.1211 0.4506 -0.3355
C51 C -0.3185(3) 0.41662(14) -0.43876(13)
C52 C -0.3561(3) 0.44745(14) -0.46693(14)
H43 H -0.4100 0.4527 -0.4647
C53 C -0.3127(4) 0.47030(17) -0.49841(16)
H44 H -0.3379 0.4903 -0.5176
C54 C -0.2327(4) 0.46333(18) -0.50117(17)
H45 H -0.2039 0.4789 -0.5222
C55 C -0.1953(3) 0.43373(19) -0.47324(18)
H46 H -0.1411 0.4297 -0.4750
C56 C -0.2380(3) 0.40961(16) -0.44229(15)
H47 H -0.2125 0.3888 -0.4239
C57 C -0.4730(3) 0.37992(15) -0.41541(14)
C58 C -0.4921(4) 0.33836(18) -0.43681(17)
H48 H -0.4537 0.3155 -0.4416
C59 C -0.5686(4) 0.3311(2) -0.4510(2)
H49 H -0.5813 0.3037 -0.4660
C60 C -0.6253(4) 0.3645(2) -0.4430(2)
H50 H -0.6768 0.3591 -0.4519
C61 C -0.6073(3) 0.4051(2) -0.42228(19)
H51 H -0.6463 0.4275 -0.4172
C62 C -0.5309(3) 0.41347(19) -0.40860(17)
H52 H -0.5186 0.4417 -0.3948
Ag5B Ag -0.01069(2) 0.062190(11) -0.295060(12)
N2B N 0.0853(2) 0.62377(11) -0.20178(11)
S1 S 0.01258(8) 0.06235(4) -0.40038(4)
O5 O 0.0808(3) 0.03667(16) -0.41686(14)
O6 O -0.0449(2) 0.03361(11) -0.37860(11)
O7 O 0.0316(2) 0.10479(12) -0.37777(11)
C63 C -0.0370(4) 0.08175(19) -0.44811(19)
F1 F -0.0508(3) 0.04628(12) -0.47427(11)
F2 F 0.0058(2) 0.11288(12) -0.46971(11)
F3 F -0.1049(2) 0.10286(14) -0.43783(14)
S2 S -0.38088(10) 0.42218(5) -0.08613(4)
O8 O -0.3411(3) 0.37962(13) -0.07338(14)
O9 O -0.4409(3) 0.41259(16) -0.11735(12)
O10 O -0.3331(3) 0.46240(14) -0.09371(14)
C64 C -0.4357(4) 0.43791(19) -0.03881(17)
F4 F -0.4883(2) 0.40514(14) -0.02910(12)
F5 F -0.3896(2) 0.44290(14) -0.00528(10)
F6 F -0.4725(3) 0.47810(15) -0.04307(13)
S3 S -0.45250(7) 0.31568(4) -0.26668(5)
O11 O -0.4635(4) 0.2712(2) -0.2379(2)
O12 O -0.4787(4) 0.3553(2) -0.2435(2)
O15 O -0.3745(2) 0.31225(13) -0.28297(12)
F7 F -0.58888(19) 0.29305(12) -0.29965(14)
C65 C -0.5191(4) 0.3048(3) -0.30962(19)
F8 F -0.5243(4) 0.34436(19) -0.33075(19)
F9 F -0.4873(4) 0.2730(2) -0.3344(3)
O16 O -0.0699(2) 0.36322(14) -0.32751(14)
C67 C -0.3941(4) 0.1913(4) -0.4805(2)
H53 H -0.3710 0.1643 -0.4950
H54 H -0.4089 0.2148 -0.5016
Cl1 Cl -0.4791(3) 0.1734(2) -0.44817(15)
Cl2 Cl -0.3294(3) 0.2148(2) -0.44331(15)
O13? O -0.4762(5) 0.2983(3) -0.2309(2)
O14? O -0.4781(4) 0.3663(2) -0.2775(3)
C66? C -0.5113(6) 0.2863(3) -0.3071(2)
F10? F -0.4989(6) 0.2951(5) -0.3476(3)
F11? F -0.5092(4) 0.2387(2) -0.3045(2)
Cl3? Cl -0.2994(5) 0.1724(5) -0.4600(4)
Cl4? Cl -0.4695(11) 0.2045(6) -0.4467(6)
loop_
_geom_bond_atom_site_label_1
_geom_bond_atom_site_label_2
_geom_bond_site_symmetry_1
_geom_bond_site_symmetry_2
Ag1 P1 1_555 1_555
Ag2 P2 1_555 1_555
Ag3 Ag4 1_555 1_555
Ag4 P4 1_555 1_555
Ag5 N1 1_555 1_555
P1 C13 1_555 1_555
P2 C13 1_555 1_555
P3 Ag3 1_555 1_555
P4 C14 1_555 1_555
N1 C1 1_555 1_555
N2 C7 1_555 1_555
O1 Ag1 1_555 1_555
O2 Ag2 1_555 1_555
O3 Ag3 1_555 1_555
O4 Ag4 1_555 1_555
C1 H1 1_555 1_555
C2 C1 1_555 1_555
H2 C2 1_555 1_555
C3 C2 1_555 1_555
C4 C3 1_555 1_555
H3 C4 1_555 1_555
C5 N1 1_555 1_555
H4 C5 1_555 1_555
C6 O1 1_555 1_555
C7 H5 1_555 1_555
C8 C7 1_555 1_555
H6 C8 1_555 1_555
C9 C8 1_555 1_555
C10 C9 1_555 1_555
H7 C10 1_555 1_555
C11 N2 1_555 1_555
H8 C11 1_555 1_555
C12 O3 1_555 1_555
C13 H9 1_555 1_555
H10 C13 1_555 1_555
C14 P3 1_555 1_555
H11 C14 1_555 1_555
H12 C14 1_555 1_555
C15 P1 1_555 1_555
C16 C15 1_555 1_555
H13 C16 1_555 1_555
C17 C16 1_555 1_555
H14 C17 1_555 1_555
C18 C17 1_555 1_555
H15 C18 1_555 1_555
C19 C18 1_555 1_555
H16 C19 1_555 1_555
C20 C15 1_555 1_555
H17 C20 1_555 1_555
C21 P1 1_555 1_555
C22 C21 1_555 1_555
H18 C22 1_555 1_555
C23 C22 1_555 1_555
H19 C23 1_555 1_555
C24 C23 1_555 1_555
H20 C24 1_555 1_555
C25 C24 1_555 1_555
H21 C25 1_555 1_555
C26 C21 1_555 1_555
H22 C26 1_555 1_555
C27 P2 1_555 1_555
C28 C27 1_555 1_555
H23 C28 1_555 1_555
C29 C28 1_555 1_555
H24 C29 1_555 1_555
C30 C29 1_555 1_555
H25 C30 1_555 1_555
C31 C30 1_555 1_555
H26 C31 1_555 1_555
C32 C27 1_555 1_555
H27 C32 1_555 1_555
C33 P2 1_555 1_555
C34 C33 1_555 1_555
H28 C34 1_555 1_555
C35 C34 1_555 1_555
H29 C35 1_555 1_555
C36 C35 1_555 1_555
H30 C36 1_555 1_555
C37 C36 1_555 1_555
H31 C37 1_555 1_555
C38 C33 1_555 1_555
H32 C38 1_555 1_555
C39 P3 1_555 1_555
C40 C39 1_555 1_555
H33 C40 1_555 1_555
C41 C40 1_555 1_555
H34 C41 1_555 1_555
C42 C41 1_555 1_555
H35 C42 1_555 1_555
C43 C42 1_555 1_555
H36 C43 1_555 1_555
C44 C39 1_555 1_555
H37 C44 1_555 1_555
C45 P3 1_555 1_555
C46 C45 1_555 1_555
H38 C46 1_555 1_555
C47 C46 1_555 1_555
H39 C47 1_555 1_555
C48 C47 1_555 1_555
H40 C48 1_555 1_555
C49 C48 1_555 1_555
H41 C49 1_555 1_555
C50 C45 1_555 1_555
H42 C50 1_555 1_555
C51 P4 1_555 1_555
C52 C51 1_555 1_555
H43 C52 1_555 1_555
C53 C52 1_555 1_555
H44 C53 1_555 1_555
C54 C53 1_555 1_555
H45 C54 1_555 1_555
C55 C54 1_555 1_555
H46 C55 1_555 1_555
C56 C51 1_555 1_555
H47 C56 1_555 1_555
C57 P4 1_555 1_555
C58 C57 1_555 1_555
H48 C58 1_555 1_555
C59 C58 1_555 1_555
H49 C59 1_555 1_555
C60 C59 1_555 1_555
H50 C60 1_555 1_555
C61 C60 1_555 1_555
H51 C61 1_555 1_555
C62 C57 1_555 1_555
H52 C62 1_555 1_555
S1 O5 1_555 1_555
O6 S1 1_555 1_555
O7 S1 1_555 1_555
C63 S1 1_555 1_555
F1 C63 1_555 1_555
F2 C63 1_555 1_555
F3 C63 1_555 1_555
S2 O8 1_555 1_555
O9 S2 1_555 1_555
O10 S2 1_555 1_555
C64 S2 1_555 1_555
F4 C64 1_555 1_555
F5 C64 1_555 1_555
F6 C64 1_555 1_555
S3 O11 1_555 1_555
O12 S3 1_555 1_555
O15 S3 1_555 1_555
F7 C65 1_555 1_555
C65 S3 1_555 1_555
F8 C65 1_555 1_555
F9 C65 1_555 1_555
C67 H53 1_555 1_555
H54 C67 1_555 1_555
Cl1 C67 1_555 1_555
Cl2 C67 1_555 1_555
Ag5B N2 1_555 1_555
N2B Ag5 1_555 1_555
Ag3 O2 1_555 1_555
O2 C6 1_555 1_555
O4 C12 1_555 1_555
C3 C6 1_555 1_555
C4 C5 1_555 1_555
C9 C12 1_555 1_555
C10 C11 1_555 1_555
C19 C20 1_555 1_555
C25 C26 1_555 1_555
C31 C32 1_555 1_555
C37 C38 1_555 1_555
C43 C44 1_555 1_555
C49 C50 1_555 1_555
C55 C56 1_555 1_555
C61 C62 1_555 1_555

#END
