
#######################################################################
#
#                 Cambridge Crystallographic Data Centre
#                                CCDC 
#
#######################################################################
#
# If this CIF has been generated from an entry in the Cambridge 
# Structural Database, then it will include bibliographic, chemical, 
# crystal, experimental, refinement or atomic coordinate data resulting 
# from the CCDC's data processing and validation procedures.
#
#######################################################################

data_POKZOG
_symmetry_cell_setting           triclinic
_symmetry_space_group_name_H-M   'P -1'
_symmetry_Int_Tables_number      2
_space_group_name_Hall           '-P 1'
loop_
_symmetry_equiv_pos_site_id
_symmetry_equiv_pos_as_xyz
1 x,y,z
2 -x,-y,-z
_cell_length_a                   10.3615(8)
_cell_length_b                   10.7636(8)
_cell_length_c                   15.1561(10)
_cell_angle_alpha                85.9550(10)
_cell_angle_beta                 74.3650(10)
_cell_angle_gamma                62.0070(10)
_cell_volume                     1434.21
loop_
_atom_site_label
_atom_site_type_symbol
_atom_site_fract_x
_atom_site_fract_y
_atom_site_fract_z
Cd1 Cd 0.5000 0.5000 0.0000
Cd2 Cd 0.79891(3) 0.66644(3) -0.017022(18)
Cl1 Cl 0.72870(11) 0.47393(10) 0.05885(7)
O1 O 1.4343(3) 0.4245(3) -0.86397(18)
O2 O 1.4050(3) 0.2544(3) -0.91685(16)
O3 O 0.9420(3) 0.5399(3) -0.14667(18)
O4 O 1.3189(4) 0.1213(3) -0.49985(19)
O5 O 1.0670(3) 0.3415(3) -0.08226(17)
C1 C 1.4088(4) 0.3228(4) -0.8519(3)
C2 C 1.3807(4) 0.2738(4) -0.7573(2)
C3 C 1.4090(5) 0.3263(4) -0.6876(3)
H1 H 1.4423 0.3939 -0.6996
C4 C 1.3882(5) 0.2790(5) -0.6008(3)
H2 H 1.4100 0.3122 -0.5546
C5 C 1.3341(5) 0.1809(4) -0.5830(3)
C6 C 1.3067(5) 0.1273(5) -0.6517(3)
H3 H 1.2717 0.0608 -0.6395
C7 C 1.3316(5) 0.1733(4) -0.7388(3)
H4 H 1.3152 0.1361 -0.7858
C8 C 1.0369(4) 0.4138(4) -0.1523(3)
C9 C 1.1175(4) 0.3402(4) -0.2452(2)
C10 C 1.0905(5) 0.4151(4) -0.3232(3)
H5 H 1.0266 0.5118 -0.3168
C11 C 1.1584(5) 0.3463(4) -0.4096(3)
H6 H 1.1408 0.3962 -0.4614
C12 C 1.2524(5) 0.2028(4) -0.4179(3)
C13 C 1.2816(5) 0.1274(4) -0.3418(3)
H7 H 1.3463 0.0308 -0.3484
C14 C 1.2139(4) 0.1968(4) -0.2563(3)
H8 H 1.2333 0.1464 -0.2049
Cd3 Cd 1.37382(3) -0.08901(3) -0.987002(18)
Cl2 Cl 1.41232(10) 0.10711(10) -1.08456(7)
O6 O 0.6469(3) 0.2993(3) -0.50328(18)
O7 O 1.2033(3) 0.0155(3) -0.85438(18)
O8 O 0.6420(3) 0.2814(2) -0.08200(16)
O9 O 1.0610(3) 0.2099(3) -0.91442(17)
O10 O 0.8795(3) 0.2399(3) -0.14851(17)
C15 C 1.0850(4) 0.1292(4) -0.8473(3)
C16 C 0.9689(4) 0.1750(4) -0.7564(2)
C17 C 0.8440(4) 0.3076(4) -0.7394(3)
H9 H 0.8297 0.3703 -0.7857
C18 C 0.7405(4) 0.3472(4) -0.6540(3)
H10 H 0.6564 0.4362 -0.6433
C19 C 0.7607(4) 0.2564(4) -0.5851(3)
C20 C 0.8839(5) 0.1233(5) -0.6011(3)
H11 H 0.8966 0.0604 -0.5549
C21 C 0.9877(5) 0.0846(4) -0.6858(3)
H12 H 1.0722 -0.0040 -0.6959
C22 C 0.7500(4) 0.2659(4) -0.1529(3)
C23 C 0.7236(4) 0.2765(4) -0.2463(2)
C24 C 0.5940(4) 0.2797(4) -0.2579(3)
H13 H 0.5199 0.2803 -0.2068
C25 C 0.5737(4) 0.2822(4) -0.3445(3)
H14 H 0.4881 0.2810 -0.3520
C26 C 0.6814(4) 0.2865(4) -0.4200(2)
C27 C 0.8103(4) 0.2864(4) -0.4095(3)
H15 H 0.8824 0.2899 -0.4604
C28 C 0.8304(4) 0.2811(4) -0.3225(3)
H16 H 0.9169 0.2807 -0.3151
Cd4 Cd 0.93483(3) 0.21620(3) -0.01597(2)
Cl3 Cl 0.81885(11) 0.06536(10) 0.07735(7)
Cd2A Cd 0.20109(3) 0.33356(3) 0.017022(18)
Cl1A Cl 0.27130(11) 0.52607(10) -0.05885(7)
O1A O -0.4343(3) 0.5755(3) 0.86397(18)
O2A O -0.4050(3) 0.7456(3) 0.91685(16)
O3A O 0.0580(3) 0.4601(3) 0.14667(18)
O4A O -0.3189(4) 0.8787(3) 0.49985(19)
O5A O -0.0670(3) 0.6585(3) 0.08226(17)
C1A C -0.4088(4) 0.6772(4) 0.8519(3)
C2A C -0.3807(4) 0.7262(4) 0.7573(2)
C3A C -0.4090(5) 0.6737(4) 0.6876(3)
H1A H -0.4423 0.6061 0.6996
C4A C -0.3882(5) 0.7210(5) 0.6008(3)
H2A H -0.4100 0.6878 0.5546
C5A C -0.3341(5) 0.8191(4) 0.5830(3)
C6A C -0.3067(5) 0.8727(5) 0.6517(3)
H3A H -0.2717 0.9392 0.6395
C7A C -0.3316(5) 0.8267(4) 0.7388(3)
H4A H -0.3152 0.8639 0.7858
C8A C -0.0369(4) 0.5862(4) 0.1523(3)
C9A C -0.1175(4) 0.6598(4) 0.2452(2)
C10A C -0.0905(5) 0.5849(4) 0.3232(3)
H5A H -0.0266 0.4882 0.3168
C11A C -0.1584(5) 0.6537(4) 0.4096(3)
H6A H -0.1408 0.6038 0.4614
C12A C -0.2524(5) 0.7972(4) 0.4179(3)
C13A C -0.2816(5) 0.8726(4) 0.3418(3)
H7A H -0.3463 0.9692 0.3484
C14A C -0.2139(4) 0.8032(4) 0.2563(3)
H8A H -0.2333 0.8536 0.2049
Cd3A Cd -0.37382(3) 1.08901(3) 0.987002(18)
Cl2A Cl -0.41232(10) 0.89289(10) 1.08456(7)
O6A O 0.3531(3) 0.7007(3) 0.50328(18)
O7A O -0.2033(3) 0.9845(3) 0.85438(18)
O8A O 0.3580(3) 0.7186(2) 0.08200(16)
O9A O -0.0610(3) 0.7901(3) 0.91442(17)
O10A O 0.1205(3) 0.7601(3) 0.14851(17)
C15A C -0.0850(4) 0.8708(4) 0.8473(3)
C16A C 0.0311(4) 0.8250(4) 0.7564(2)
C17A C 0.1560(4) 0.6924(4) 0.7394(3)
H9A H 0.1703 0.6297 0.7857
C18A C 0.2595(4) 0.6528(4) 0.6540(3)
H10A H 0.3436 0.5638 0.6433
C19A C 0.2393(4) 0.7436(4) 0.5851(3)
C20A C 0.1161(5) 0.8767(5) 0.6011(3)
H11A H 0.1034 0.9396 0.5549
C21A C 0.0123(5) 0.9154(4) 0.6858(3)
H12A H -0.0722 1.0040 0.6959
C22A C 0.2500(4) 0.7341(4) 0.1529(3)
C23A C 0.2764(4) 0.7235(4) 0.2463(2)
C24A C 0.4060(4) 0.7203(4) 0.2579(3)
H13A H 0.4801 0.7197 0.2068
C25A C 0.4263(4) 0.7178(4) 0.3445(3)
H14A H 0.5119 0.7190 0.3520
C26A C 0.3186(4) 0.7135(4) 0.4200(2)
C27A C 0.1897(4) 0.7136(4) 0.4095(3)
H15A H 0.1176 0.7101 0.4604
C28A C 0.1696(4) 0.7189(4) 0.3225(3)
H16A H 0.0831 0.7193 0.3151
Cd4A Cd 0.06517(3) 0.78380(3) 0.01597(2)
Cl3A Cl 0.18115(11) 0.93464(10) -0.07735(7)
Cd1_2 Cd -0.5000 0.5000 1.0000
Cd1_3 Cd 1.5000 0.5000 -1.0000
Cd2_2 Cd -0.20109(3) 0.66644(3) -0.017022(18)
Cd2_3 Cd -0.20109(3) 0.66644(3) 0.982978(18)
Cd2A_2 Cd 1.20109(3) 0.33356(3) -0.982978(18)
Cd2A_3 Cd 1.20109(3) 0.33356(3) 0.017022(18)
O1_2 O 0.4343(3) 0.4245(3) 0.13603(18)
O1A_2 O 0.5657(3) 0.5755(3) -0.13603(18)
O2_2 O -0.5950(3) 1.2544(3) 1.08315(16)
O2_3 O 0.4050(3) 0.2544(3) 0.08315(16)
O2A_2 O 0.5950(3) 0.7456(3) -0.08315(16)
O2A_3 O 1.5950(3) -0.2544(3) -1.08315(16)
O5_2 O 0.0670(3) 0.3415(3) -0.08226(17)
O5A_2 O 0.9330(3) 0.6585(3) 0.08226(17)
Cd3_2 Cd -0.62618(3) 0.91099(3) 1.012998(18)
Cd3_3 Cd 0.37382(3) 0.91099(3) 0.012998(18)
Cd3A_2 Cd 0.62618(3) 0.08901(3) -0.012998(18)
Cd3A_3 Cd 1.62618(3) 0.08901(3) -1.012998(18)
Cl2_2 Cl -0.58768(10) 1.10711(10) 0.91544(7)
Cl2_3 Cl 0.41232(10) 0.10711(10) -0.08456(7)
Cl2A_2 Cl 0.58768(10) 0.89289(10) 0.08456(7)
Cl2A_3 Cl 1.58768(10) -0.10711(10) -0.91544(7)
O8_2 O -0.3580(3) 1.2814(2) 0.91800(16)
O8A_2 O 1.3580(3) -0.2814(2) -0.91800(16)
O9_2 O 0.0610(3) 0.2099(3) 0.08558(17)
O9_3 O 1.0610(3) 0.2099(3) 0.08558(17)
O9A_2 O -0.0610(3) 0.7901(3) -0.08558(17)
O9A_3 O 0.9390(3) 0.7901(3) -0.08558(17)
Cd4_2 Cd -0.06517(3) 1.21620(3) -0.01597(2)
Cd4_3 Cd 0.93483(3) 0.21620(3) -1.01597(2)
Cd4A_2 Cd 0.06517(3) 0.78380(3) 1.01597(2)
Cd4A_3 Cd 1.06517(3) -0.21620(3) 0.01597(2)
Cl3_2 Cl -0.18115(11) 1.06536(10) 0.07735(7)
Cl3_3 Cl -0.18115(11) 1.06536(10) 1.07735(7)
Cl3A_2 Cl 1.18115(11) -0.06536(10) -1.07735(7)
Cl3A_3 Cl 1.18115(11) -0.06536(10) -0.07735(7)
loop_
_geom_bond_atom_site_label_1
_geom_bond_atom_site_label_2
_geom_bond_site_symmetry_1
_geom_bond_site_symmetry_2
Cd1 Cl1 1_555 1_555
Cd2 Cl1 1_555 1_555
Cl1 Cd4 1_555 1_555
O1 C1 1_555 1_555
O2 C1 1_555 1_555
O3 Cd2 1_555 1_555
O4 C5 1_555 1_555
O5 C8 1_555 1_555
C1 C2 1_555 1_555
C2 C3 1_555 1_555
C3 H1 1_555 1_555
C4 C3 1_555 1_555
H2 C4 1_555 1_555
C5 C4 1_555 1_555
C6 C5 1_555 1_555
H3 C6 1_555 1_555
C7 C2 1_555 1_555
H4 C7 1_555 1_555
C8 O3 1_555 1_555
C9 C8 1_555 1_555
C10 C9 1_555 1_555
H5 C10 1_555 1_555
C11 C10 1_555 1_555
H6 C11 1_555 1_555
C12 O4 1_555 1_555
C13 C12 1_555 1_555
H7 C13 1_555 1_555
C14 C9 1_555 1_555
H8 C14 1_555 1_555
Cd3 Cl2 1_555 1_555
Cl2 Cd2A_2 1_555 1_555
O6 C19 1_555 1_555
O7 Cd3 1_555 1_555
O8 Cd1 1_555 1_555
O9 C15 1_555 1_555
O10 C22 1_555 1_555
C15 O7 1_555 1_555
C16 C15 1_555 1_555
C17 C16 1_555 1_555
H9 C17 1_555 1_555
C18 C17 1_555 1_555
H10 C18 1_555 1_555
C19 C18 1_555 1_555
C20 C19 1_555 1_555
H11 C20 1_555 1_555
C21 C16 1_555 1_555
H12 C21 1_555 1_555
C22 O8 1_555 1_555
C23 C22 1_555 1_555
C24 C23 1_555 1_555
H13 C24 1_555 1_555
C25 C24 1_555 1_555
H14 C25 1_555 1_555
C26 O6 1_555 1_555
C27 C26 1_555 1_555
H15 C27 1_555 1_555
C28 C23 1_555 1_555
H16 C28 1_555 1_555
Cd4 O5 1_555 1_555
Cl3 Cd4 1_555 1_555
Cd2A Cl1A 1_555 1_555
Cl1A Cd1 1_555 1_555
O1A C1A 1_555 1_555
O2A C1A 1_555 1_555
O3A Cd2A 1_555 1_555
O4A C5A 1_555 1_555
O5A C8A 1_555 1_555
C1A C2A 1_555 1_555
C2A C3A 1_555 1_555
C3A H1A 1_555 1_555
C4A C3A 1_555 1_555
H2A C4A 1_555 1_555
C5A C4A 1_555 1_555
C6A C5A 1_555 1_555
H3A C6A 1_555 1_555
C7A C2A 1_555 1_555
H4A C7A 1_555 1_555
C8A O3A 1_555 1_555
C9A C8A 1_555 1_555
C10A C9A 1_555 1_555
H5A C10A 1_555 1_555
C11A C10A 1_555 1_555
H6A C11A 1_555 1_555
C12A O4A 1_555 1_555
C13A C12A 1_555 1_555
H7A C13A 1_555 1_555
C14A C9A 1_555 1_555
H8A C14A 1_555 1_555
Cd3A Cl2A 1_555 1_555
Cl2A Cd2_3 1_555 1_555
O6A C19A 1_555 1_555
O7A Cd3A 1_555 1_555
O8A Cd1 1_555 1_555
O9A C15A 1_555 1_555
O10A C22A 1_555 1_555
C15A O7A 1_555 1_555
C16A C15A 1_555 1_555
C17A C16A 1_555 1_555
H9A C17A 1_555 1_555
C18A C17A 1_555 1_555
H10A C18A 1_555 1_555
C19A C18A 1_555 1_555
C20A C19A 1_555 1_555
H11A C20A 1_555 1_555
C21A C16A 1_555 1_555
H12A C21A 1_555 1_555
C22A O8A 1_555 1_555
C23A C22A 1_555 1_555
C24A C23A 1_555 1_555
H13A C24A 1_555 1_555
C25A C24A 1_555 1_555
H14A C25A 1_555 1_555
C26A O6A 1_555 1_555
C27A C26A 1_555 1_555
H15A C27A 1_555 1_555
C28A C23A 1_555 1_555
H16A C28A 1_555 1_555
Cd4A Cl1A 1_555 1_555
Cl3A Cd4A 1_555 1_555
Cd1_2 O1A 1_555 1_555
Cd1_3 O1 1_555 1_555
Cd2_2 O5A 1_555 1_555
Cd2_3 O2A 1_555 1_555
Cd2A_2 O2 1_555 1_555
Cd2A_3 O5 1_555 1_555
O1_2 Cd1 1_555 1_555
O1A_2 Cd1 1_555 1_555
O2_2 Cd3A 1_555 1_555
O2_3 Cd2A 1_555 1_555
O2A_2 Cd2 1_555 1_555
O2A_3 Cd3 1_555 1_555
O5_2 Cd2A 1_555 1_555
O5A_2 Cd2 1_555 1_555
Cd3_2 O2A 1_555 1_555
Cd3_3 O8A 1_555 1_555
Cd3A_2 O8 1_555 1_555
Cd3A_3 O2 1_555 1_555
Cl2_2 Cd3A 1_555 1_555
Cl2_3 Cd2A 1_555 1_555
Cl2A_2 Cd2 1_555 1_555
Cl2A_3 Cd3 1_555 1_555
O8_2 Cd3A 1_555 1_555
O8A_2 Cd3 1_555 1_555
O9_2 Cd2A 1_555 1_555
O9_3 Cd4 1_555 1_555
O9A_2 Cd4A 1_555 1_555
O9A_3 Cd2 1_555 1_555
Cd4_2 Cl3A 1_555 1_555
Cd4_3 O9 1_555 1_555
Cd4A_2 O9A 1_555 1_555
Cd4A_3 Cl3 1_555 1_555
Cl3_2 Cd4A 1_555 1_555
Cl3_3 Cd3A 1_555 1_555
Cl3A_2 Cd3 1_555 1_555
Cl3A_3 Cd4 1_555 1_555
C6 C7 1_555 1_555
C11 C12 1_555 1_555
C13 C14 1_555 1_555
Cl2 Cd3A_3 1_555 1_555
O9 Cd2A_2 1_555 1_555
O10 Cd4 1_555 1_555
C20 C21 1_555 1_555
C25 C26 1_555 1_555
C27 C28 1_555 1_555
Cl3 Cd3A_2 1_555 1_555
O5A Cd4A 1_555 1_555
C6A C7A 1_555 1_555
C11A C12A 1_555 1_555
C13A C14A 1_555 1_555
Cl2A Cd3_2 1_555 1_555
O9A Cd2_3 1_555 1_555
O10A Cd4A 1_555 1_555
C20A C21A 1_555 1_555
C25A C26A 1_555 1_555
C27A C28A 1_555 1_555
Cl3A Cd3_3 1_555 1_555
Cd2_2 O9A_2 1_555 1_555
Cd2A_3 O9_3 1_555 1_555
O2_3 Cd3A_2 1_555 1_555
O2A_2 Cd3_3 1_555 1_555
Cd3_2 Cl2_2 1_555 1_555
Cd3_3 Cl2A_2 1_555 1_555
Cd3A_2 Cl2_3 1_555 1_555
Cd3A_3 Cl2A_3 1_555 1_555
Cd4_2 Cl3_2 1_555 1_555
Cd4_3 Cl3A_2 1_555 1_555
Cd4A_2 Cl3_3 1_555 1_555
Cd4A_3 Cl3A_3 1_555 1_555

#END
