
#######################################################################
#
#                 Cambridge Crystallographic Data Centre
#                                CCDC 
#
#######################################################################
#
# If this CIF has been generated from an entry in the Cambridge 
# Structural Database, then it will include bibliographic, chemical, 
# crystal, experimental, refinement or atomic coordinate data resulting 
# from the CCDC's data processing and validation procedures.
#
#######################################################################

data_POKZAS
_symmetry_cell_setting           monoclinic
_symmetry_space_group_name_H-M   'P 21/c'
_symmetry_Int_Tables_number      14
_space_group_name_Hall           '-P 2ybc'
loop_
_symmetry_equiv_pos_site_id
_symmetry_equiv_pos_as_xyz
1 x,y,z
2 -x,1/2+y,1/2-z
3 -x,-y,-z
4 x,1/2-y,1/2+z
_cell_length_a                   3.8821(7)
_cell_length_b                   13.091(2)
_cell_length_c                   23.402(4)
_cell_angle_alpha                90
_cell_angle_beta                 96.072(3)
_cell_angle_gamma                90
_cell_volume                     1182.63
loop_
_atom_site_label
_atom_site_type_symbol
_atom_site_fract_x
_atom_site_fract_y
_atom_site_fract_z
Ag1 Ag 0.13381(8) 0.15886(2) 0.734343(12)
S1 S 1.1284(3) 0.34779(7) 0.97243(4)
O1 O -0.1067(9) -0.0077(3) 0.76889(14)
O2 O 0.0899(9) -0.0090(3) 0.85885(16)
O3 O -0.2058(11) -0.1335(3) 0.82162(16)
N1 N 0.4882(8) 0.2216(2) 0.80169(12)
N2 N 0.8248(9) 0.3354(2) 0.85236(14)
N3 N 0.7979(7) 0.2472(2) 0.88280(12)
N4 N 1.4624(8) 0.3244(2) 1.07780(12)
N5 N 1.4701(9) 0.4287(2) 1.08122(13)
N6 N 1.7941(8) 0.3587(2) 1.15559(13)
N7 N -0.0695(10) -0.0503(3) 0.81685(16)
C1 C 0.6336(11) 0.3164(3) 0.80416(17)
H1 H 0.5971 0.3637 0.7745
C2 C 0.5976(10) 0.1803(3) 0.85215(15)
H2 H 0.5420 0.1153 0.8642
C3 C 0.9727(9) 0.2386(3) 0.93817(15)
C4 C 1.0308(12) 0.1527(3) 0.97049(18)
H3 H 0.9659 0.0873 0.9582
C5 C 1.2079(12) 0.1754(3) 1.02517(18)
H4 H 1.2674 0.1268 1.0535
C6 C 1.2765(9) 0.2749(3) 1.03126(14)
C7 C 1.6719(10) 0.4447(3) 1.12838(16)
H5 H 1.7267 0.5100 1.1422
C8 C 1.6587(9) 0.2842(3) 1.12232(15)
H6 H 1.6954 0.2147 1.1286
Ag1C Ag 2.13381(8) 0.34114(2) 1.234343(12)
N6C N -0.2059(8) 0.1413(2) 0.65559(13)
loop_
_geom_bond_atom_site_label_1
_geom_bond_atom_site_label_2
_geom_bond_site_symmetry_1
_geom_bond_site_symmetry_2
Ag1 O1 1_555 1_555
S1 C3 1_555 1_555
O1 N7 1_555 1_555
O2 N7 1_555 1_555
O3 N7 1_555 1_555
N1 Ag1 1_555 1_555
N2 N3 1_555 1_555
N3 C2 1_555 1_555
N4 N5 1_555 1_555
N5 C7 1_555 1_555
N6 C7 1_555 1_555
C1 N1 1_555 1_555
H1 C1 1_555 1_555
C2 N1 1_555 1_555
H2 C2 1_555 1_555
C3 N3 1_555 1_555
C4 C3 1_555 1_555
H3 C4 1_555 1_555
C5 C4 1_555 1_555
H4 C5 1_555 1_555
C6 S1 1_555 1_555
C7 H5 1_555 1_555
C8 N4 1_555 1_555
H6 C8 1_555 1_555
Ag1C N6 1_555 1_555
N6C Ag1 1_555 1_555
N2 C1 1_555 1_555
N4 C6 1_555 1_555
N6 C8 1_555 1_555
C5 C6 1_555 1_555

#END
