
#######################################################################
#
#                 Cambridge Crystallographic Data Centre
#                                CCDC 
#
#######################################################################
#
# If this CIF has been generated from an entry in the Cambridge 
# Structural Database, then it will include bibliographic, chemical, 
# crystal, experimental, refinement or atomic coordinate data resulting 
# from the CCDC's data processing and validation procedures.
#
#######################################################################

data_POKZIA
_symmetry_cell_setting           triclinic
_symmetry_space_group_name_H-M   'P -1'
_symmetry_Int_Tables_number      2
_space_group_name_Hall           '-P 1'
loop_
_symmetry_equiv_pos_site_id
_symmetry_equiv_pos_as_xyz
1 x,y,z
2 -x,-y,-z
_cell_length_a                   10.3682(12)
_cell_length_b                   10.7642(12)
_cell_length_c                   15.1820(17)
_cell_angle_alpha                85.909(2)
_cell_angle_beta                 74.367(2)
_cell_angle_gamma                61.995(2)
_cell_volume                     1437.61
loop_
_atom_site_label
_atom_site_type_symbol
_atom_site_fract_x
_atom_site_fract_y
_atom_site_fract_z
Zn1 Zn 0.5000 0.5000 0.0000
Zn2 Zn 0.79895(8) 0.66722(8) -0.01723(5)
Cl1 Cl 0.7272(3) 0.4741(3) 0.06002(17)
O1 O 1.4381(9) 0.4222(8) -0.8647(4)
O2 O 1.4068(7) 0.2579(7) -0.9159(4)
O3 O 0.9403(9) 0.5401(7) -0.1468(4)
O4 O 1.3176(12) 0.1214(8) -0.4990(5)
O5 O 1.0612(9) 0.3439(7) -0.0803(4)
C1 C 1.4104(11) 0.3219(9) -0.8575(8)
C2 C 1.3802(11) 0.2751(10) -0.7572(6)
C3 C 1.4113(13) 0.3258(11) -0.6878(6)
H1 H 1.4474 0.3913 -0.7002
C4 C 1.3885(14) 0.2785(12) -0.6000(7)
H2 H 1.4100 0.3112 -0.5535
C5 C 1.3334(13) 0.1825(10) -0.5832(6)
C6 C 1.3038(16) 0.1283(12) -0.6503(8)
H3 H 1.2681 0.0624 -0.6374
C7 C 1.3290(13) 0.1749(11) -0.7383(7)
H4 H 1.3114 0.1387 -0.7850
C8 C 1.0343(11) 0.4128(10) -0.1511(6)
C9 C 1.1180(11) 0.3405(10) -0.2461(6)
C10 C 1.0903(12) 0.4151(10) -0.3222(6)
H5 H 1.0254 0.5116 -0.3155
C11 C 1.1597(13) 0.3460(11) -0.4101(7)
H6 H 1.1423 0.3961 -0.4618
C12 C 1.2532(13) 0.2040(11) -0.4183(6)
C13 C 1.2829(12) 0.1251(10) -0.3415(6)
H7 H 1.3464 0.0283 -0.3482
C14 C 1.2152(11) 0.1957(10) -0.2561(6)
H8 H 1.2345 0.1460 -0.2045
Zn3 Zn 1.37480(8) -0.08859(7) -0.98671(4)
Cl2 Cl 1.4138(3) 0.1077(3) -1.08499(16)
O6 O 0.6462(8) 0.3004(9) -0.5029(4)
O7 O 1.2018(8) 0.0164(7) -0.8534(4)
O8 O 0.6462(8) 0.2798(6) -0.0831(4)
O9 O 1.0639(9) 0.2078(7) -0.9137(4)
O10 O 0.8789(8) 0.2389(8) -0.1484(4)
C15 C 1.0859(11) 0.1309(10) -0.8482(7)
C16 C 0.9697(11) 0.1767(9) -0.7568(6)
C17 C 0.8462(11) 0.3057(11) -0.7395(6)
H9 H 0.8321 0.3680 -0.7860
C18 C 0.7391(12) 0.3481(11) -0.6538(6)
H10 H 0.6550 0.4370 -0.6436
C19 C 0.7608(11) 0.2558(11) -0.5849(6)
C20 C 0.8813(14) 0.1243(11) -0.6010(7)
H11 H 0.8928 0.0609 -0.5551
C21 C 0.9871(13) 0.0845(12) -0.6858(7)
H12 H 1.0708 -0.0047 -0.6957
C22 C 0.7484(11) 0.2630(9) -0.1500(8)
C23 C 0.7236(11) 0.2752(9) -0.2453(6)
C24 C 0.5942(11) 0.2801(11) -0.2584(6)
H13 H 0.5196 0.2812 -0.2075
C25 C 0.5723(12) 0.2833(11) -0.3451(7)
H14 H 0.4862 0.2833 -0.3527
C26 C 0.6819(11) 0.2864(11) -0.4196(6)
C27 C 0.8071(13) 0.2879(12) -0.4093(7)
H15 H 0.8766 0.2950 -0.4602
C28 C 0.8325(12) 0.2788(10) -0.3223(6)
H16 H 0.9208 0.2752 -0.3158
Zn4 Zn 0.93527(9) 0.21552(8) -0.01645(5)
Cl3 Cl 0.8200(3) 0.0644(3) 0.07669(17)
Zn2A Zn 0.20105(8) 0.33278(8) 0.01723(5)
Cl1A Cl 0.2728(3) 0.5259(3) -0.06002(17)
O1A O -0.4381(9) 0.5778(8) 0.8647(4)
O2A O -0.4068(7) 0.7421(7) 0.9159(4)
O3A O 0.0597(9) 0.4599(7) 0.1468(4)
O4A O -0.3176(12) 0.8786(8) 0.4990(5)
O5A O -0.0612(9) 0.6561(7) 0.0803(4)
C1A C -0.4104(11) 0.6781(9) 0.8575(8)
C2A C -0.3802(11) 0.7249(10) 0.7572(6)
C3A C -0.4113(13) 0.6742(11) 0.6878(6)
H1A H -0.4474 0.6087 0.7002
C4A C -0.3885(14) 0.7215(12) 0.6000(7)
H2A H -0.4100 0.6888 0.5535
C5A C -0.3334(13) 0.8175(10) 0.5832(6)
C6A C -0.3038(16) 0.8717(12) 0.6503(8)
H3A H -0.2681 0.9376 0.6374
C7A C -0.3290(13) 0.8251(11) 0.7383(7)
H4A H -0.3114 0.8613 0.7850
C8A C -0.0343(11) 0.5872(10) 0.1511(6)
C9A C -0.1180(11) 0.6595(10) 0.2461(6)
C10A C -0.0903(12) 0.5849(10) 0.3222(6)
H5A H -0.0254 0.4884 0.3155
C11A C -0.1597(13) 0.6540(11) 0.4101(7)
H6A H -0.1423 0.6039 0.4618
C12A C -0.2532(13) 0.7960(11) 0.4183(6)
C13A C -0.2829(12) 0.8749(10) 0.3415(6)
H7A H -0.3464 0.9717 0.3482
C14A C -0.2152(11) 0.8043(10) 0.2561(6)
H8A H -0.2345 0.8540 0.2045
Zn3A Zn -0.37480(8) 1.08859(7) 0.98671(4)
Cl2A Cl -0.4138(3) 0.8923(3) 1.08499(16)
O6A O 0.3538(8) 0.6996(9) 0.5029(4)
O7A O -0.2018(8) 0.9836(7) 0.8534(4)
O8A O 0.3538(8) 0.7202(6) 0.0831(4)
O9A O -0.0639(9) 0.7922(7) 0.9137(4)
O10A O 0.1211(8) 0.7611(8) 0.1484(4)
C15A C -0.0859(11) 0.8691(10) 0.8482(7)
C16A C 0.0303(11) 0.8233(9) 0.7568(6)
C17A C 0.1538(11) 0.6943(11) 0.7395(6)
H9A H 0.1679 0.6320 0.7860
C18A C 0.2609(12) 0.6519(11) 0.6538(6)
H10A H 0.3450 0.5630 0.6436
C19A C 0.2392(11) 0.7442(11) 0.5849(6)
C20A C 0.1187(14) 0.8757(11) 0.6010(7)
H11A H 0.1072 0.9391 0.5551
C21A C 0.0129(13) 0.9155(12) 0.6858(7)
H12A H -0.0708 1.0047 0.6957
C22A C 0.2516(11) 0.7370(9) 0.1500(8)
C23A C 0.2764(11) 0.7248(9) 0.2453(6)
C24A C 0.4058(11) 0.7199(11) 0.2584(6)
H13A H 0.4804 0.7188 0.2075
C25A C 0.4277(12) 0.7167(11) 0.3451(7)
H14A H 0.5138 0.7167 0.3527
C26A C 0.3181(11) 0.7136(11) 0.4196(6)
C27A C 0.1929(13) 0.7121(12) 0.4093(7)
H15A H 0.1234 0.7050 0.4602
C28A C 0.1675(12) 0.7212(10) 0.3223(6)
H16A H 0.0792 0.7248 0.3158
Zn4A Zn 0.06473(9) 0.78448(8) 0.01645(5)
Cl3A Cl 0.1800(3) 0.9356(3) -0.07669(17)
Zn1_2 Zn -0.5000 0.5000 1.0000
Zn1_3 Zn 1.5000 0.5000 -1.0000
Zn2_2 Zn -0.20105(8) 0.66722(8) -0.01723(5)
Zn2_3 Zn -0.20105(8) 0.66722(8) 0.98277(5)
Zn2A_2 Zn 1.20105(8) 0.33278(8) -0.98277(5)
Zn2A_3 Zn 1.20105(8) 0.33278(8) 0.01723(5)
O1_2 O 0.4381(9) 0.4222(8) 0.1353(4)
O1A_2 O 0.5619(9) 0.5778(8) -0.1353(4)
O2_2 O -0.5932(7) 1.2579(7) 1.0841(4)
O2_3 O 0.4068(7) 0.2579(7) 0.0841(4)
O2A_2 O 0.5932(7) 0.7421(7) -0.0841(4)
O2A_3 O 1.5932(7) -0.2579(7) -1.0841(4)
O5_2 O 0.0612(9) 0.3439(7) -0.0803(4)
O5A_2 O 0.9388(9) 0.6561(7) 0.0803(4)
Zn3_2 Zn -0.62520(8) 0.91141(7) 1.01329(4)
Zn3_3 Zn 0.37480(8) 0.91141(7) 0.01329(4)
Zn3A_2 Zn 0.62520(8) 0.08859(7) -0.01329(4)
Zn3A_3 Zn 1.62520(8) 0.08859(7) -1.01329(4)
Cl2_2 Cl -0.5862(3) 1.1077(3) 0.91501(16)
Cl2_3 Cl 0.4138(3) 0.1077(3) -0.08499(16)
Cl2A_2 Cl 0.5862(3) 0.8923(3) 0.08499(16)
Cl2A_3 Cl 1.5862(3) -0.1077(3) -0.91501(16)
O8_2 O -0.3538(8) 1.2798(6) 0.9169(4)
O8A_2 O 1.3538(8) -0.2798(6) -0.9169(4)
O9_2 O 0.0639(9) 0.2078(7) 0.0863(4)
O9_3 O 1.0639(9) 0.2078(7) 0.0863(4)
O9A_2 O -0.0639(9) 0.7922(7) -0.0863(4)
O9A_3 O 0.9361(9) 0.7922(7) -0.0863(4)
Zn4_2 Zn -0.06473(9) 1.21552(8) -0.01645(5)
Zn4_3 Zn 0.93527(9) 0.21552(8) -1.01645(5)
Zn4A_2 Zn 0.06473(9) 0.78448(8) 1.01645(5)
Zn4A_3 Zn 1.06473(9) -0.21552(8) 0.01645(5)
Cl3_2 Cl -0.1800(3) 1.0644(3) 0.07669(17)
Cl3_3 Cl -0.1800(3) 1.0644(3) 1.07669(17)
Cl3A_2 Cl 1.1800(3) -0.0644(3) -1.07669(17)
Cl3A_3 Cl 1.1800(3) -0.0644(3) -0.07669(17)
loop_
_geom_bond_atom_site_label_1
_geom_bond_atom_site_label_2
_geom_bond_site_symmetry_1
_geom_bond_site_symmetry_2
Zn1 Cl1 1_555 1_555
Zn2 Cl1 1_555 1_555
Cl1 Zn4 1_555 1_555
O1 C1 1_555 1_555
O2 C1 1_555 1_555
O3 Zn2 1_555 1_555
O4 C5 1_555 1_555
O5 C8 1_555 1_555
C1 C2 1_555 1_555
C2 C3 1_555 1_555
C3 H1 1_555 1_555
C4 C3 1_555 1_555
H2 C4 1_555 1_555
C5 C4 1_555 1_555
C6 C5 1_555 1_555
H3 C6 1_555 1_555
C7 C2 1_555 1_555
H4 C7 1_555 1_555
C8 O3 1_555 1_555
C9 C8 1_555 1_555
C10 C9 1_555 1_555
H5 C10 1_555 1_555
C11 C10 1_555 1_555
H6 C11 1_555 1_555
C12 O4 1_555 1_555
C13 C12 1_555 1_555
H7 C13 1_555 1_555
C14 C9 1_555 1_555
H8 C14 1_555 1_555
Zn3 Cl2 1_555 1_555
Cl2 Zn2A_2 1_555 1_555
O6 C19 1_555 1_555
O7 Zn3 1_555 1_555
O8 Zn1 1_555 1_555
O9 C15 1_555 1_555
O10 C22 1_555 1_555
C15 O7 1_555 1_555
C16 C15 1_555 1_555
C17 C16 1_555 1_555
H9 C17 1_555 1_555
C18 C17 1_555 1_555
H10 C18 1_555 1_555
C19 C18 1_555 1_555
C20 C19 1_555 1_555
H11 C20 1_555 1_555
C21 C16 1_555 1_555
H12 C21 1_555 1_555
C22 O8 1_555 1_555
C23 C22 1_555 1_555
C24 C23 1_555 1_555
H13 C24 1_555 1_555
C25 C24 1_555 1_555
H14 C25 1_555 1_555
C26 O6 1_555 1_555
C27 C26 1_555 1_555
H15 C27 1_555 1_555
C28 C23 1_555 1_555
H16 C28 1_555 1_555
Zn4 O5 1_555 1_555
Cl3 Zn4 1_555 1_555
Zn2A Cl1A 1_555 1_555
Cl1A Zn1 1_555 1_555
O1A C1A 1_555 1_555
O2A C1A 1_555 1_555
O3A Zn2A 1_555 1_555
O4A C5A 1_555 1_555
O5A C8A 1_555 1_555
C1A C2A 1_555 1_555
C2A C3A 1_555 1_555
C3A H1A 1_555 1_555
C4A C3A 1_555 1_555
H2A C4A 1_555 1_555
C5A C4A 1_555 1_555
C6A C5A 1_555 1_555
H3A C6A 1_555 1_555
C7A C2A 1_555 1_555
H4A C7A 1_555 1_555
C8A O3A 1_555 1_555
C9A C8A 1_555 1_555
C10A C9A 1_555 1_555
H5A C10A 1_555 1_555
C11A C10A 1_555 1_555
H6A C11A 1_555 1_555
C12A O4A 1_555 1_555
C13A C12A 1_555 1_555
H7A C13A 1_555 1_555
C14A C9A 1_555 1_555
H8A C14A 1_555 1_555
Zn3A Cl2A 1_555 1_555
Cl2A Zn2_3 1_555 1_555
O6A C19A 1_555 1_555
O7A Zn3A 1_555 1_555
O8A Zn1 1_555 1_555
O9A C15A 1_555 1_555
O10A C22A 1_555 1_555
C15A O7A 1_555 1_555
C16A C15A 1_555 1_555
C17A C16A 1_555 1_555
H9A C17A 1_555 1_555
C18A C17A 1_555 1_555
H10A C18A 1_555 1_555
C19A C18A 1_555 1_555
C20A C19A 1_555 1_555
H11A C20A 1_555 1_555
C21A C16A 1_555 1_555
H12A C21A 1_555 1_555
C22A O8A 1_555 1_555
C23A C22A 1_555 1_555
C24A C23A 1_555 1_555
H13A C24A 1_555 1_555
C25A C24A 1_555 1_555
H14A C25A 1_555 1_555
C26A O6A 1_555 1_555
C27A C26A 1_555 1_555
H15A C27A 1_555 1_555
C28A C23A 1_555 1_555
H16A C28A 1_555 1_555
Zn4A Cl1A 1_555 1_555
Cl3A Zn4A 1_555 1_555
Zn1_2 O1A 1_555 1_555
Zn1_3 O1 1_555 1_555
Zn2_2 O5A 1_555 1_555
Zn2_3 O2A 1_555 1_555
Zn2A_2 O2 1_555 1_555
Zn2A_3 O5 1_555 1_555
O1_2 Zn1 1_555 1_555
O1A_2 Zn1 1_555 1_555
O2_2 Zn3A 1_555 1_555
O2_3 Zn2A 1_555 1_555
O2A_2 Zn2 1_555 1_555
O2A_3 Zn3 1_555 1_555
O5_2 Zn2A 1_555 1_555
O5A_2 Zn2 1_555 1_555
Zn3_2 O2A 1_555 1_555
Zn3_3 O8A 1_555 1_555
Zn3A_2 O8 1_555 1_555
Zn3A_3 O2 1_555 1_555
Cl2_2 Zn3A 1_555 1_555
Cl2_3 Zn2A 1_555 1_555
Cl2A_2 Zn2 1_555 1_555
Cl2A_3 Zn3 1_555 1_555
O8_2 Zn3A 1_555 1_555
O8A_2 Zn3 1_555 1_555
O9_2 Zn2A 1_555 1_555
O9_3 Zn4 1_555 1_555
O9A_2 Zn4A 1_555 1_555
O9A_3 Zn2 1_555 1_555
Zn4_2 Cl3A 1_555 1_555
Zn4_3 O9 1_555 1_555
Zn4A_2 O9A 1_555 1_555
Zn4A_3 Cl3 1_555 1_555
Cl3_2 Zn4A 1_555 1_555
Cl3_3 Zn3A 1_555 1_555
Cl3A_2 Zn3 1_555 1_555
Cl3A_3 Zn4 1_555 1_555
C6 C7 1_555 1_555
C11 C12 1_555 1_555
C13 C14 1_555 1_555
Cl2 Zn3A_3 1_555 1_555
O9 Zn2A_2 1_555 1_555
O10 Zn4 1_555 1_555
C20 C21 1_555 1_555
C25 C26 1_555 1_555
C27 C28 1_555 1_555
Cl3 Zn3A_2 1_555 1_555
O5A Zn4A 1_555 1_555
C6A C7A 1_555 1_555
C11A C12A 1_555 1_555
C13A C14A 1_555 1_555
Cl2A Zn3_2 1_555 1_555
O9A Zn2_3 1_555 1_555
O10A Zn4A 1_555 1_555
C20A C21A 1_555 1_555
C25A C26A 1_555 1_555
C27A C28A 1_555 1_555
Cl3A Zn3_3 1_555 1_555
Zn2_2 O9A_2 1_555 1_555
Zn2A_3 O9_3 1_555 1_555
O2_3 Zn3A_2 1_555 1_555
O2A_2 Zn3_3 1_555 1_555
Zn3_2 Cl2_2 1_555 1_555
Zn3_3 Cl2A_2 1_555 1_555
Zn3A_2 Cl2_3 1_555 1_555
Zn3A_3 Cl2A_3 1_555 1_555
Zn4_2 Cl3_2 1_555 1_555
Zn4_3 Cl3A_2 1_555 1_555
Zn4A_2 Cl3_3 1_555 1_555
Zn4A_3 Cl3A_3 1_555 1_555

#END
