
#######################################################################
#
#                 Cambridge Crystallographic Data Centre
#                                CCDC 
#
#######################################################################
#
# If this CIF has been generated from an entry in the Cambridge 
# Structural Database, then it will include bibliographic, chemical, 
# crystal, experimental, refinement or atomic coordinate data resulting 
# from the CCDC's data processing and validation procedures.
#
#######################################################################

data_POLBEZ01
_symmetry_cell_setting           monoclinic
_symmetry_space_group_name_H-M   'C 2/c'
_symmetry_Int_Tables_number      15
_space_group_name_Hall           '-C 2yn'
loop_
_symmetry_equiv_pos_site_id
_symmetry_equiv_pos_as_xyz
1 x,y,z
2 -x,y,1/2-z
3 1/2+x,1/2+y,z
4 1/2-x,1/2+y,1/2-z
5 -x,-y,-z
6 x,-y,1/2+z
7 1/2-x,1/2-y,-z
8 1/2+x,1/2-y,1/2+z
_cell_length_a                   23.034(8)
_cell_length_b                   9.401(3)
_cell_length_c                   9.582(3)
_cell_angle_alpha                90
_cell_angle_beta                 104.962(4)
_cell_angle_gamma                90
_cell_volume                     2004.57
loop_
_atom_site_label
_atom_site_type_symbol
_atom_site_fract_x
_atom_site_fract_y
_atom_site_fract_z
Cu1 Cu 0.0000 0.0000 0.0000
N1 N 0.03318(11) -0.1855(3) 0.0867(3)
O1 O 0.0000 0.0759(3) 0.2500
O2 O 0.08318(9) 0.0680(3) 0.0295(2)
C1 C 0.06993(13) -0.2055(4) 0.2157(4)
C2 C 0.02803(17) -0.3169(4) 0.0271(4)
H1 H -0.0341 0.1270 0.2356
H2 H 0.0826 -0.1349 0.2849
N2 N 0.08612(11) -0.3411(3) 0.2320(3)
H3 H 0.0041 -0.3361 -0.0651
N3 N 0.05946(15) -0.4142(3) 0.1101(4)
C3 C 0.12837(13) -0.4098(4) 0.3539(4)
C4 C 0.19363(13) -0.3920(3) 0.3525(3)
H4 H 0.1191 -0.5105 0.3527
H5 H 0.1228 -0.3704 0.4431
C5 C 0.23596(14) -0.4672(4) 0.4551(4)
C6 C 0.21323(13) -0.3053(4) 0.2576(4)
C7 C 0.29607(14) -0.4585(4) 0.4601(4)
H6 H 0.2236 -0.5241 0.5213
H7 H 0.1856 -0.2522 0.1895
C8 C 0.27391(14) -0.2972(4) 0.2636(4)
C9 C 0.31604(13) -0.3741(3) 0.3635(3)
H8 H 0.3237 -0.5102 0.5295
H9 H 0.2865 -0.2387 0.1988
C10 C 0.38140(14) -0.3677(4) 0.3644(4)
O3 O 0.39648(10) -0.3060(3) 0.2654(3)
N1D N -0.03318(11) 0.1855(3) -0.0867(3)
O1D O 0.0000 -0.0759(3) -0.2500
O2D O -0.08318(9) -0.0680(3) -0.0295(2)
H1A H 0.0341 0.1270 0.2644
Cu1A Cu 0.0000 0.0000 0.5000
C1D C -0.06993(13) 0.2055(4) -0.2157(4)
C2D C -0.02803(17) 0.3169(4) -0.0271(4)
H2D H -0.0826 0.1349 -0.2849
N2D N -0.08612(11) 0.3411(3) -0.2320(3)
H3D H -0.0041 0.3361 0.0651
N3D N -0.05946(15) 0.4142(3) -0.1101(4)
C3D C -0.12837(13) 0.4098(4) -0.3539(4)
C4D C -0.19363(13) 0.3920(3) -0.3525(3)
H4D H -0.1191 0.5105 -0.3527
H5D H -0.1228 0.3704 -0.4431
C5D C -0.23596(14) 0.4672(4) -0.4551(4)
C6D C -0.21323(13) 0.3053(4) -0.2576(4)
C7D C -0.29607(14) 0.4585(4) -0.4601(4)
H6D H -0.2236 0.5241 -0.5213
H7D H -0.1856 0.2522 -0.1895
C8D C -0.27391(14) 0.2972(4) -0.2636(4)
C9D C -0.31604(13) 0.3741(3) -0.3635(3)
H8D H -0.3237 0.5102 -0.5295
H9D H -0.2865 0.2387 -0.1988
C10D C -0.38140(14) 0.3677(4) -0.3644(4)
O2C O 0.41682(9) -0.4320(3) 0.4705(2)
O2G O -0.41682(9) 0.4320(3) -0.4705(2)
O3D O -0.39648(10) 0.3060(3) -0.2654(3)
Cu1C Cu 0.5000 -0.5000 0.5000
Cu1C_2 Cu -0.5000 0.5000 -0.5000
loop_
_geom_bond_atom_site_label_1
_geom_bond_atom_site_label_2
_geom_bond_site_symmetry_1
_geom_bond_site_symmetry_2
Cu1 N1 1_555 1_555
N1 C1 1_555 1_555
O1 Cu1 1_555 1_555
O2 Cu1 1_555 1_555
C1 H2 1_555 1_555
C2 N1 1_555 1_555
H1 O1 1_555 1_555
N2 C1 1_555 1_555
H3 C2 1_555 1_555
N3 C2 1_555 1_555
C3 N2 1_555 1_555
C4 C3 1_555 1_555
H4 C3 1_555 1_555
H5 C3 1_555 1_555
C5 C4 1_555 1_555
C6 C4 1_555 1_555
C7 C5 1_555 1_555
H6 C5 1_555 1_555
H7 C6 1_555 1_555
C8 C6 1_555 1_555
C9 C7 1_555 1_555
H8 C7 1_555 1_555
H9 C8 1_555 1_555
C10 C9 1_555 1_555
O3 C10 1_555 1_555
N1D Cu1 1_555 1_555
O1D Cu1 1_555 1_555
O2D Cu1 1_555 1_555
H1A O1 1_555 1_555
Cu1A O1 1_555 1_555
C1D N1D 1_555 1_555
C2D N1D 1_555 1_555
H2D C1D 1_555 1_555
N2D C1D 1_555 1_555
H3D C2D 1_555 1_555
N3D C2D 1_555 1_555
C3D N2D 1_555 1_555
C4D C3D 1_555 1_555
H4D C3D 1_555 1_555
H5D C3D 1_555 1_555
C5D C4D 1_555 1_555
C6D C4D 1_555 1_555
C7D C5D 1_555 1_555
H6D C5D 1_555 1_555
H7D C6D 1_555 1_555
C8D C6D 1_555 1_555
C9D C7D 1_555 1_555
H8D C7D 1_555 1_555
H9D C8D 1_555 1_555
C10D C9D 1_555 1_555
O2C C10 1_555 1_555
O2G C10D 1_555 1_555
O3D C10D 1_555 1_555
Cu1C O2C 1_555 1_555
Cu1C_2 O2G 1_555 1_555
N2 N3 1_555 1_555
C8 C9 1_555 1_555
N2D N3D 1_555 1_555
C8D C9D 1_555 1_555

#END
