
#######################################################################
#
#                 Cambridge Crystallographic Data Centre
#                                CCDC 
#
#######################################################################
#
# If this CIF has been generated from an entry in the Cambridge 
# Structural Database, then it will include bibliographic, chemical, 
# crystal, experimental, refinement or atomic coordinate data resulting 
# from the CCDC's data processing and validation procedures.
#
#######################################################################

data_POLBID
_symmetry_cell_setting           orthorhombic
_symmetry_space_group_name_H-M   'P n a 21'
_symmetry_Int_Tables_number      33
_space_group_name_Hall           'P 2c -2n'
loop_
_symmetry_equiv_pos_site_id
_symmetry_equiv_pos_as_xyz
1 x,y,z
2 -x,-y,1/2+z
3 1/2+x,1/2-y,z
4 1/2-x,1/2+y,1/2+z
_cell_length_a                   9.7494(18)
_cell_length_b                   9.693(2)
_cell_length_c                   21.815(4)
_cell_angle_alpha                90
_cell_angle_beta                 90
_cell_angle_gamma                90
_cell_volume                     2061.54
loop_
_atom_site_label
_atom_site_type_symbol
_atom_site_fract_x
_atom_site_fract_y
_atom_site_fract_z
Cu1 Cu 0.77145(7) 0.09484(9) 0.45724(6)
C1 C 0.8357(11) 0.9391(11) 0.7080(6)
H1 H 0.8528 1.0089 0.6797
C2 C 0.7604(12) 0.8347(13) 0.7829(5)
H2 H 0.7186 0.8112 0.8197
C3 C 0.8647(12) 0.6075(10) 0.7652(4)
H3 H 0.8067 0.5779 0.7989
H4 H 0.9589 0.6059 0.7796
C4 C 0.8502(10) 0.5055(10) 0.7131(4)
C5 C 0.7377(10) 0.5049(11) 0.6745(5)
H5 H 0.6673 0.5682 0.6805
C6 C 0.7290(8) 0.4092(10) 0.6263(4)
H6 H 0.6550 0.4129 0.5995
C7 C 0.8288(9) 0.3097(9) 0.6182(4)
C8 C 0.9382(9) 0.3102(9) 0.6590(4)
H7 H 1.0045 0.2418 0.6555
C9 C 0.9525(9) 0.4079(10) 0.7045(4)
H8 H 1.0302 0.4084 0.7293
C10 C 0.8271(8) 0.2087(9) 0.5670(4)
C11 C 0.5770(8) -0.0444(10) 0.5440(4)
H9 H 0.5557 0.0430 0.5588
C12 C 0.5126(10) -0.1598(12) 0.5706(5)
H10 H 0.4506 -0.1481 0.6026
C13 C 0.5415(9) -0.2889(11) 0.5492(5)
H11 H 0.4967 -0.3655 0.5652
C14 C 0.6380(9) -0.3041(9) 0.5034(4)
C15 C 0.6792(10) -0.4348(10) 0.4784(4)
H12 H 0.6400 -0.5159 0.4930
C16 C 0.7742(11) -0.4401(9) 0.4339(4)
H13 H 0.8020 -0.5261 0.4197
C17 C 0.8343(8) -0.3212(10) 0.4074(4)
C18 C 0.7934(8) -0.1909(9) 0.4302(4)
C19 C 0.6968(7) -0.1844(9) 0.4791(3)
C20 C 0.9362(11) -0.3173(12) 0.3610(5)
H14 H 0.9693 -0.3992 0.3444
C21 C 0.9853(11) -0.1956(13) 0.3409(5)
H15 H 1.0528 -0.1936 0.3108
C22 C 0.9352(8) -0.0739(10) 0.3649(4)
H16 H 0.9683 0.0090 0.3492
C23 C 1.0011(8) 0.2644(9) 0.4322(4)
H17 H 1.0232 0.2385 0.4720
N1 N 0.8430(6) -0.0694(7) 0.4087(3)
N2 N 0.6661(6) -0.0557(7) 0.4992(3)
N3 N 0.8288(9) 0.7485(9) 0.7491(3)
N4 N 0.8854(10) 0.8149(9) 0.7013(4)
N5 N 0.7574(11) 0.9600(12) 0.7586(5)
O1 O 0.7406(6) 0.2298(5) 0.5233(2)
O2 O 0.9080(5) 0.1108(6) 0.5667(3)
O3 O 0.8898(5) 0.2179(6) 0.4097(2)
O4 O 1.0823(5) 0.3416(6) 0.4049(3)
Cu1B Cu 1.27145(7) 0.40516(9) 0.45724(6)
O4B O 0.5823(5) 0.1584(6) 0.4049(3)
loop_
_geom_bond_atom_site_label_1
_geom_bond_atom_site_label_2
_geom_bond_site_symmetry_1
_geom_bond_site_symmetry_2
Cu1 N1 1_555 1_555
C1 H1 1_555 1_555
C2 H2 1_555 1_555
C3 H3 1_555 1_555
H4 C3 1_555 1_555
C4 C3 1_555 1_555
C5 C4 1_555 1_555
H5 C5 1_555 1_555
C6 C5 1_555 1_555
H6 C6 1_555 1_555
C7 C6 1_555 1_555
C8 C7 1_555 1_555
H7 C8 1_555 1_555
C9 C4 1_555 1_555
H8 C9 1_555 1_555
C10 C7 1_555 1_555
C11 H9 1_555 1_555
C12 C11 1_555 1_555
H10 C12 1_555 1_555
C13 C12 1_555 1_555
H11 C13 1_555 1_555
C14 C13 1_555 1_555
C15 C14 1_555 1_555
H12 C15 1_555 1_555
C16 C15 1_555 1_555
H13 C16 1_555 1_555
C17 C16 1_555 1_555
C18 C17 1_555 1_555
C19 C14 1_555 1_555
C20 C17 1_555 1_555
H14 C20 1_555 1_555
C21 C20 1_555 1_555
H15 C21 1_555 1_555
C22 C21 1_555 1_555
H16 C22 1_555 1_555
C23 H17 1_555 1_555
N1 C18 1_555 1_555
N2 Cu1 1_555 1_555
N3 C2 1_555 1_555
N4 C1 1_555 1_555
N5 C1 1_555 1_555
O1 Cu1 1_555 1_555
O2 Cu1 1_555 1_555
O3 Cu1 1_555 1_555
O4 C23 1_555 1_555
Cu1B O4 1_555 1_555
O4B Cu1 1_555 1_555
C2 N5 1_555 1_555
C3 N3 1_555 1_555
C8 C9 1_555 1_555
C10 O1 1_555 1_555
C10 O2 1_555 1_555
C11 N2 1_555 1_555
C18 C19 1_555 1_555
C19 N2 1_555 1_555
C22 N1 1_555 1_555
C23 O3 1_555 1_555
N3 N4 1_555 1_555

#END
