
#######################################################################
#
#                 Cambridge Crystallographic Data Centre
#                                CCDC 
#
#######################################################################
#
# If this CIF has been generated from an entry in the Cambridge 
# Structural Database, then it will include bibliographic, chemical, 
# crystal, experimental, refinement or atomic coordinate data resulting 
# from the CCDC's data processing and validation procedures.
#
#######################################################################

data_POLBUP
_symmetry_cell_setting           triclinic
_symmetry_space_group_name_H-M   'P -1'
_symmetry_Int_Tables_number      2
_space_group_name_Hall           '-P 1'
loop_
_symmetry_equiv_pos_site_id
_symmetry_equiv_pos_as_xyz
1 x,y,z
2 -x,-y,-z
_cell_length_a                   7.5930(14)
_cell_length_b                   7.6304(14)
_cell_length_c                   19.844(4)
_cell_angle_alpha                83.935(3)
_cell_angle_beta                 81.248(3)
_cell_angle_gamma                71.401(3)
_cell_volume                     1074.98
loop_
_atom_site_label
_atom_site_type_symbol
_atom_site_fract_x
_atom_site_fract_y
_atom_site_fract_z
Cu1 Cu 0.0000 0.5000 0.0000
Cu2 Cu 0.0000 1.0000 0.0000
C1 C 0.2247(11) 0.6633(11) 0.4775(4)
C2 C 0.1900(10) 0.5609(11) 0.4237(3)
C3 C 0.2141(10) 0.3707(10) 0.4323(3)
H1 H 0.2517 0.3064 0.4728
C4 C 0.1827(10) 0.2763(10) 0.3814(3)
H2 H 0.2002 0.1496 0.3876
C5 C 0.1244(9) 0.3740(10) 0.3208(3)
C6 C 0.1009(10) 0.5591(10) 0.3126(3)
H3 H 0.0618 0.6235 0.2723
C7 C 0.1341(10) 0.6550(10) 0.3633(4)
H4 H 0.1187 0.7812 0.3563
C8 C 0.0858(11) 0.2690(10) 0.2678(3)
H5 H 0.1635 0.1408 0.2719
H6 H -0.0440 0.2712 0.2768
C9 C 0.0099(9) 0.3910(10) 0.1503(3)
H7 H -0.1152 0.3947 0.1573
C10 C 0.2730(9) 0.4061(9) 0.1067(3)
H8 H 0.3692 0.4254 0.0747
C11 C 0.6858(10) 1.0751(11) 0.3855(4)
C12 C 0.6406(9) 0.9752(10) 0.3338(3)
C13 C 0.6270(11) 0.7965(11) 0.3486(3)
H9 H 0.6505 0.7365 0.3910
C14 C 0.5785(10) 0.7090(10) 0.3000(3)
H10 H 0.5663 0.5915 0.3109
C15 C 0.5477(8) 0.7914(9) 0.2360(3)
C16 C 0.5634(9) 0.9697(10) 0.2211(3)
H11 H 0.5442 1.0276 0.1780
C17 C 0.6069(9) 1.0599(10) 0.2696(3)
H12 H 0.6138 1.1795 0.2592
C18 C 0.5005(9) 0.6918(10) 0.1821(3)
H13 H 0.6042 0.6624 0.1457
H14 H 0.4824 0.5764 0.2024
C19 C 0.3052(9) 0.8475(9) 0.0887(3)
H15 H 0.3998 0.8218 0.0521
C20 C 0.0445(10) 0.9387(10) 0.1494(3)
H16 H -0.0833 0.9916 0.1619
Cl1 Cl -0.2235(2) 0.8621(2) 0.04756(8)
Cl2 Cl -0.2411(2) 0.3761(2) 0.04243(8)
N1 N 0.1218(8) 0.3441(8) 0.1977(3)
N2 N 0.2945(8) 0.3510(8) 0.1707(3)
N3 N 0.0982(7) 0.4323(8) 0.0913(2)
N4 N 0.1628(8) 0.8652(8) 0.1936(3)
N5 N 0.3307(7) 0.8061(7) 0.1537(3)
N6 N 0.1255(7) 0.9306(7) 0.0835(3)
O1 O 0.2720(8) 0.5705(8) 0.5329(2)
H17 H 0.2879 0.6387 0.5591
O2 O 0.2027(9) 0.8337(8) 0.4676(3)
O3 O 0.7065(10) 0.9884(8) 0.4444(3)
H18 H 0.7324 1.0523 0.4697
O4 O 0.7021(8) 1.2302(8) 0.3709(2)
C1A C -0.2247(11) 0.3367(11) -0.4775(4)
C2A C -0.1900(10) 0.4391(11) -0.4237(3)
C3A C -0.2141(10) 0.6293(10) -0.4323(3)
H1A H -0.2517 0.6936 -0.4728
C4A C -0.1827(10) 0.7237(10) -0.3814(3)
H2A H -0.2002 0.8504 -0.3876
C5A C -0.1244(9) 0.6260(10) -0.3208(3)
C6A C -0.1009(10) 0.4409(10) -0.3126(3)
H3A H -0.0618 0.3765 -0.2723
C7A C -0.1341(10) 0.3450(10) -0.3633(4)
H4A H -0.1187 0.2188 -0.3563
C8A C -0.0858(11) 0.7310(10) -0.2678(3)
H5A H -0.1635 0.8592 -0.2719
H6A H 0.0440 0.7288 -0.2768
C9A C -0.0099(9) 0.6090(10) -0.1503(3)
H7A H 0.1152 0.6053 -0.1573
C10A C -0.2730(9) 0.5939(9) -0.1067(3)
H8A H -0.3692 0.5746 -0.0747
Cl1A Cl 0.2235(2) 0.1379(2) -0.04756(8)
Cl2A Cl 0.2411(2) 0.6239(2) -0.04243(8)
N1A N -0.1218(8) 0.6559(8) -0.1977(3)
N2A N -0.2945(8) 0.6490(8) -0.1707(3)
N3A N -0.0982(7) 0.5677(8) -0.0913(2)
O1A O -0.2720(8) 0.4295(8) -0.5329(2)
H17A H -0.2879 0.3613 -0.5591
O2A O -0.2027(9) 0.1663(8) -0.4676(3)
C11A C -0.6858(10) 0.9249(11) -0.3855(4)
C12A C -0.6406(9) 1.0248(10) -0.3338(3)
C13A C -0.6270(11) 1.2035(11) -0.3486(3)
H9A H -0.6505 1.2635 -0.3910
C14A C -0.5785(10) 1.2910(10) -0.3000(3)
H10A H -0.5663 1.4085 -0.3109
C15A C -0.5477(8) 1.2086(9) -0.2360(3)
C16A C -0.5634(9) 1.0303(10) -0.2211(3)
H11A H -0.5442 0.9724 -0.1780
C17A C -0.6069(9) 0.9401(10) -0.2696(3)
H12A H -0.6138 0.8205 -0.2592
C18A C -0.5005(9) 1.3082(10) -0.1821(3)
H13A H -0.6042 1.3376 -0.1457
H14A H -0.4824 1.4236 -0.2024
C19A C -0.3052(9) 1.1525(9) -0.0887(3)
H15A H -0.3998 1.1782 -0.0521
C20A C -0.0445(10) 1.0613(10) -0.1494(3)
H16A H 0.0833 1.0084 -0.1619
N4A N -0.1628(8) 1.1348(8) -0.1936(3)
N5A N -0.3307(7) 1.1939(7) -0.1537(3)
N6A N -0.1255(7) 1.0694(7) -0.0835(3)
O3A O -0.7065(10) 1.0116(8) -0.4444(3)
H18A H -0.7324 0.9477 -0.4697
O4A O -0.7021(8) 0.7698(8) -0.3709(2)
Cu2_2 Cu 0.0000 0.0000 0.0000
Cl1A_2 Cl 0.2235(2) 1.1379(2) -0.04756(8)
loop_
_geom_bond_atom_site_label_1
_geom_bond_atom_site_label_2
_geom_bond_site_symmetry_1
_geom_bond_site_symmetry_2
Cu1 Cl1 1_555 1_555
Cu2 Cl1 1_555 1_555
C1 C2 1_555 1_555
C2 C3 1_555 1_555
C3 H1 1_555 1_555
C4 C3 1_555 1_555
H2 C4 1_555 1_555
C5 C4 1_555 1_555
C6 C5 1_555 1_555
H3 C6 1_555 1_555
C7 C2 1_555 1_555
H4 C7 1_555 1_555
C8 C5 1_555 1_555
H5 C8 1_555 1_555
H6 C8 1_555 1_555
C9 H7 1_555 1_555
C10 H8 1_555 1_555
C11 C12 1_555 1_555
C12 C13 1_555 1_555
C13 H9 1_555 1_555
C14 C13 1_555 1_555
H10 C14 1_555 1_555
C15 C14 1_555 1_555
C16 C15 1_555 1_555
H11 C16 1_555 1_555
C17 C12 1_555 1_555
H12 C17 1_555 1_555
C18 C15 1_555 1_555
H13 C18 1_555 1_555
H14 C18 1_555 1_555
C19 H15 1_555 1_555
C20 H16 1_555 1_555
Cl2 Cu1 1_555 1_555
N1 C8 1_555 1_555
N2 C10 1_555 1_555
N3 Cu1 1_555 1_555
N4 C20 1_555 1_555
N5 C18 1_555 1_555
N6 Cu2 1_555 1_555
O1 C1 1_555 1_555
H17 O1 1_555 1_555
O2 C1 1_555 1_555
O3 C11 1_555 1_555
H18 O3 1_555 1_555
O4 C11 1_555 1_555
C1A C2A 1_555 1_555
C2A C3A 1_555 1_555
C3A H1A 1_555 1_555
C4A C3A 1_555 1_555
H2A C4A 1_555 1_555
C5A C4A 1_555 1_555
C6A C5A 1_555 1_555
H3A C6A 1_555 1_555
C7A C2A 1_555 1_555
H4A C7A 1_555 1_555
C8A C5A 1_555 1_555
H5A C8A 1_555 1_555
H6A C8A 1_555 1_555
C9A H7A 1_555 1_555
C10A H8A 1_555 1_555
Cl1A Cu1 1_555 1_555
Cl2A Cu1 1_555 1_555
N1A C8A 1_555 1_555
N2A C10A 1_555 1_555
N3A Cu1 1_555 1_555
O1A C1A 1_555 1_555
H17A O1A 1_555 1_555
O2A C1A 1_555 1_555
C11A C12A 1_555 1_555
C12A C13A 1_555 1_555
C13A H9A 1_555 1_555
C14A C13A 1_555 1_555
H10A C14A 1_555 1_555
C15A C14A 1_555 1_555
C16A C15A 1_555 1_555
H11A C16A 1_555 1_555
C17A C12A 1_555 1_555
H12A C17A 1_555 1_555
C18A C15A 1_555 1_555
H13A C18A 1_555 1_555
H14A C18A 1_555 1_555
C19A H15A 1_555 1_555
C20A H16A 1_555 1_555
N4A C20A 1_555 1_555
N5A C18A 1_555 1_555
N6A Cu2 1_555 1_555
O3A C11A 1_555 1_555
H18A O3A 1_555 1_555
O4A C11A 1_555 1_555
Cu2_2 Cl1A 1_555 1_555
Cl1A_2 Cu2 1_555 1_555
C6 C7 1_555 1_555
C9 N1 1_555 1_555
C9 N3 1_555 1_555
C10 N3 1_555 1_555
C16 C17 1_555 1_555
C19 N5 1_555 1_555
C19 N6 1_555 1_555
C20 N6 1_555 1_555
N1 N2 1_555 1_555
N4 N5 1_555 1_555
C6A C7A 1_555 1_555
C9A N1A 1_555 1_555
C9A N3A 1_555 1_555
C10A N3A 1_555 1_555
N1A N2A 1_555 1_555
C16A C17A 1_555 1_555
C19A N5A 1_555 1_555
C19A N6A 1_555 1_555
C20A N6A 1_555 1_555
N4A N5A 1_555 1_555

#END
