
#######################################################################
#
#                 Cambridge Crystallographic Data Centre
#                                CCDC 
#
#######################################################################
#
# If this CIF has been generated from an entry in the Cambridge 
# Structural Database, then it will include bibliographic, chemical, 
# crystal, experimental, refinement or atomic coordinate data resulting 
# from the CCDC's data processing and validation procedures.
#
#######################################################################

data_POLBEZ
_symmetry_cell_setting           monoclinic
_symmetry_space_group_name_H-M   'C 2/c'
_symmetry_Int_Tables_number      15
_space_group_name_Hall           '-C 2yn'
loop_
_symmetry_equiv_pos_site_id
_symmetry_equiv_pos_as_xyz
1 x,y,z
2 -x,y,1/2-z
3 1/2+x,1/2+y,z
4 1/2-x,1/2+y,1/2-z
5 -x,-y,-z
6 x,-y,1/2+z
7 1/2-x,1/2-y,-z
8 1/2+x,1/2-y,1/2+z
_cell_length_a                   23.008(2)
_cell_length_b                   9.4363(9)
_cell_length_c                   9.5393(9)
_cell_angle_alpha                90
_cell_angle_beta                 104.9430(10)
_cell_angle_gamma                90
_cell_volume                     2001.04
loop_
_atom_site_label
_atom_site_type_symbol
_atom_site_fract_x
_atom_site_fract_y
_atom_site_fract_z
Cu1 Cu 0.0000 0.0000 0.0000
N1 N 0.41418(9) 0.1597(2) 0.2682(2)
N2 N 0.44091(12) 0.0865(3) 0.3899(3)
N3 N 0.46709(9) 0.3143(2) 0.4143(2)
O1 O 0.08338(7) 0.0674(2) 0.02982(19)
O2 O 0.10341(8) 0.1932(3) 0.2355(2)
C1 C 0.11881(11) 0.1307(3) 0.1365(3)
C2 C 0.18426(10) 0.1259(3) 0.1372(3)
C3 C 0.22646(11) 0.2029(3) 0.2377(3)
H1 H 0.2139 0.2611 0.3030
C4 C 0.28688(11) 0.1949(3) 0.2430(3)
H2 H 0.3145 0.2482 0.3109
C5 C 0.30676(10) 0.1081(3) 0.1481(3)
C6 C 0.26417(11) 0.0324(3) 0.0453(3)
H3 H 0.2766 -0.0249 -0.0208
C7 C 0.20409(12) 0.0408(3) 0.0400(3)
H4 H 0.1764 -0.0109 -0.0293
C8 C 0.37192(11) 0.0911(3) 0.1462(3)
H5 H 0.3813 -0.0091 0.1473
H6 H 0.3773 0.1305 0.0565
C9 C 0.47236(14) 0.1842(3) 0.4731(3)
H7 H 0.4964 0.1652 0.5655
C10 C 0.42994(11) 0.2944(3) 0.2843(3)
H8 H 0.4169 0.3647 0.2149
O3 O 0.0000 0.0744(3) 0.2500
H9 H 0.0310(9) 0.123(3) 0.263(3)
H9A H -0.0310(9) 0.123(3) 0.237(3)
N1C N 0.08582(9) -0.3403(2) 0.2318(2)
N2C N 0.05909(12) -0.4135(3) 0.1101(3)
N3C N 0.03291(9) -0.1857(2) 0.0857(2)
O1C O 0.41662(7) -0.4326(2) 0.47018(19)
O2C O 0.39659(8) -0.3068(3) 0.2645(2)
C1C C 0.38119(11) -0.3693(3) 0.3635(3)
C2C C 0.31574(10) -0.3741(3) 0.3628(3)
C3C C 0.27354(11) -0.2971(3) 0.2623(3)
H1C H 0.2861 -0.2389 0.1970
C4C C 0.21312(11) -0.3051(3) 0.2570(3)
H2C H 0.1855 -0.2518 0.1891
C5C C 0.19324(10) -0.3919(3) 0.3519(3)
C6C C 0.23583(11) -0.4676(3) 0.4547(3)
H3C H 0.2234 -0.5249 0.5208
C7C C 0.29591(12) -0.4592(3) 0.4600(3)
H4C H 0.3236 -0.5109 0.5293
C8C C 0.12808(11) -0.4089(3) 0.3538(3)
H5C H 0.1187 -0.5091 0.3527
H6C H 0.1227 -0.3695 0.4435
C9C C 0.02764(14) -0.3158(3) 0.0269(3)
H7C H 0.0036 -0.3348 -0.0655
C10C C 0.07006(11) -0.2056(3) 0.2157(3)
H8C H 0.0831 -0.1353 0.2851
Cu1A Cu 0.0000 0.0000 0.5000
Cu1C Cu 0.5000 -0.5000 0.5000
Cu1C_2 Cu 0.5000 0.5000 0.5000
N3G N -0.03291(9) 0.1857(2) -0.0857(2)
O1D O -0.08338(7) -0.0674(2) -0.02982(19)
O3D O 0.0000 -0.0744(3) -0.2500
loop_
_geom_bond_atom_site_label_1
_geom_bond_atom_site_label_2
_geom_bond_site_symmetry_1
_geom_bond_site_symmetry_2
Cu1 O1 1_555 1_555
N1 N2 1_555 1_555
N2 C9 1_555 1_555
N3 C9 1_555 1_555
O1 C1 1_555 1_555
O2 C1 1_555 1_555
C1 C2 1_555 1_555
C2 C3 1_555 1_555
C3 H1 1_555 1_555
C4 C3 1_555 1_555
H2 C4 1_555 1_555
C5 C4 1_555 1_555
C6 C5 1_555 1_555
H3 C6 1_555 1_555
C7 C2 1_555 1_555
H4 C7 1_555 1_555
C8 N1 1_555 1_555
H5 C8 1_555 1_555
H6 C8 1_555 1_555
C9 H7 1_555 1_555
C10 N1 1_555 1_555
H8 C10 1_555 1_555
O3 Cu1 1_555 1_555
H9 O3 1_555 1_555
H9A O3 1_555 1_555
N1C N2C 1_555 1_555
N2C C9C 1_555 1_555
N3C Cu1 1_555 1_555
O1C C1C 1_555 1_555
O2C C1C 1_555 1_555
C1C C2C 1_555 1_555
C2C C3C 1_555 1_555
C3C H1C 1_555 1_555
C4C C3C 1_555 1_555
H2C C4C 1_555 1_555
C5C C4C 1_555 1_555
C6C C5C 1_555 1_555
H3C C6C 1_555 1_555
C7C C2C 1_555 1_555
H4C C7C 1_555 1_555
C8C N1C 1_555 1_555
H5C C8C 1_555 1_555
H6C C8C 1_555 1_555
C9C N3C 1_555 1_555
H7C C9C 1_555 1_555
C10C N1C 1_555 1_555
H8C C10C 1_555 1_555
Cu1A O3 1_555 1_555
Cu1C O1C 1_555 1_555
Cu1C_2 N3 1_555 1_555
N3G Cu1 1_555 1_555
O1D Cu1 1_555 1_555
O3D Cu1 1_555 1_555
N3 C10 1_555 1_555
C5 C8 1_555 1_555
C6 C7 1_555 1_555
N3C C10C 1_555 1_555
C5C C8C 1_555 1_555
C6C C7C 1_555 1_555

#END
