
#######################################################################
#
#                 Cambridge Crystallographic Data Centre
#                                CCDC 
#
#######################################################################
#
# If this CIF has been generated from an entry in the Cambridge 
# Structural Database, then it will include bibliographic, chemical, 
# crystal, experimental, refinement or atomic coordinate data resulting 
# from the CCDC's data processing and validation procedures.
#
#######################################################################

data_POLCOK
_symmetry_cell_setting           monoclinic
_symmetry_space_group_name_H-M   'P 21/c'
_symmetry_Int_Tables_number      14
_space_group_name_Hall           '-P 2ybc'
loop_
_symmetry_equiv_pos_site_id
_symmetry_equiv_pos_as_xyz
1 x,y,z
2 -x,1/2+y,1/2-z
3 -x,-y,-z
4 x,1/2-y,1/2+z
_cell_length_a                   14.1474(15)
_cell_length_b                   16.0945(17)
_cell_length_c                   5.9044(7)
_cell_angle_alpha                90
_cell_angle_beta                 97.402(2)
_cell_angle_gamma                90
_cell_volume                     1333.2
loop_
_atom_site_label
_atom_site_type_symbol
_atom_site_fract_x
_atom_site_fract_y
_atom_site_fract_z
Zn1 Zn 0.94400(2) 0.095278(18) 0.12100(5)
O1 O 0.80869(14) 0.08171(14) 0.0056(4)
O2 O 0.84809(14) 0.17391(14) -0.2379(4)
O3 O 0.05816(13) 0.13177(12) -0.0154(4)
O4 O 0.02693(11) 0.02008(11) -0.2308(3)
O5 O 0.40760(12) 0.13866(14) -0.5912(3)
O6 O 0.9541(2) 0.17621(15) 0.3804(4)
H1 H 0.927(2) 0.2233(13) 0.342(7)
H2 H 0.935(3) 0.161(2) 0.506(4)
C1 C 0.78755(19) 0.12940(17) -0.1613(5)
C2 C 0.68603(17) 0.13056(16) -0.2714(5)
C3 C 0.6149(2) 0.09200(17) -0.1668(5)
H3 H 0.6306 0.0650 -0.0279
C4 C 0.5216(2) 0.09356(17) -0.2672(5)
H4 H 0.4744 0.0673 -0.1973
C5 C 0.49855(17) 0.13446(16) -0.4731(5)
C6 C 0.56839(18) 0.17231(18) -0.5800(5)
H5 H 0.5526 0.1991 -0.7193
C7 C 0.66174(18) 0.16996(17) -0.4782(5)
H6 H 0.7090 0.1953 -0.5499
C8 C 0.32849(17) 0.12577(17) -0.4768(5)
C9 C 0.26026(19) 0.07204(17) -0.5805(5)
H7 H 0.2685 0.0457 -0.7168
C10 C 0.17923(18) 0.05822(17) -0.4772(5)
H8 H 0.1335 0.0208 -0.5423
C11 C 0.16549(17) 0.09930(15) -0.2785(5)
C12 C 0.23355(18) 0.15580(17) -0.1829(5)
H9 H 0.2236 0.1850 -0.0522
C13 C 0.31597(19) 0.16884(18) -0.2808(5)
H10 H 0.3621 0.2059 -0.2158
C14 C 0.07890(17) 0.08240(16) -0.1678(5)
Zn1_2 Zn -0.05600(2) 0.095278(18) 0.12100(5)
Zn1B Zn 0.05600(2) -0.095278(18) -0.12100(5)
O3_2 O 1.05816(13) 0.13177(12) -0.0154(4)
O4B O 0.97307(11) -0.02008(11) 0.2308(3)
loop_
_geom_bond_atom_site_label_1
_geom_bond_atom_site_label_2
_geom_bond_site_symmetry_1
_geom_bond_site_symmetry_2
Zn1 O1 1_555 1_555
O1 C1 1_555 1_555
O2 C1 1_555 1_555
O3 C14 1_555 1_555
O4 C14 1_555 1_555
O5 C5 1_555 1_555
O6 Zn1 1_555 1_555
H1 O6 1_555 1_555
H2 O6 1_555 1_555
C1 C2 1_555 1_555
C2 C3 1_555 1_555
C3 H3 1_555 1_555
C4 C3 1_555 1_555
H4 C4 1_555 1_555
C5 C4 1_555 1_555
C6 C5 1_555 1_555
H5 C6 1_555 1_555
C7 C2 1_555 1_555
H6 C7 1_555 1_555
C8 O5 1_555 1_555
C9 C8 1_555 1_555
H7 C9 1_555 1_555
C10 C9 1_555 1_555
H8 C10 1_555 1_555
C11 C10 1_555 1_555
C12 C11 1_555 1_555
H9 C12 1_555 1_555
C13 C8 1_555 1_555
H10 C13 1_555 1_555
C14 C11 1_555 1_555
Zn1_2 O3 1_555 1_555
Zn1B O4 1_555 1_555
O3_2 Zn1 1_555 1_555
O4B Zn1 1_555 1_555
C6 C7 1_555 1_555
C12 C13 1_555 1_555

#END
