
#######################################################################
#
#                 Cambridge Crystallographic Data Centre
#                                CCDC 
#
#######################################################################
#
# If this CIF has been generated from an entry in the Cambridge 
# Structural Database, then it will include bibliographic, chemical, 
# crystal, experimental, refinement or atomic coordinate data resulting 
# from the CCDC's data processing and validation procedures.
#
#######################################################################

data_POLDIE
_symmetry_cell_setting           monoclinic
_symmetry_space_group_name_H-M   'P 21/n'
_symmetry_Int_Tables_number      14
_space_group_name_Hall           '-P 2yn'
loop_
_symmetry_equiv_pos_site_id
_symmetry_equiv_pos_as_xyz
1 x,y,z
2 1/2-x,1/2+y,1/2-z
3 -x,-y,-z
4 1/2+x,1/2-y,1/2+z
_cell_length_a                   4.8092(10)
_cell_length_b                   11.531(2)
_cell_length_c                   9.968(2)
_cell_angle_alpha                90
_cell_angle_beta                 100.41(3)
_cell_angle_gamma                90
_cell_volume                     543.676
loop_
_atom_site_label
_atom_site_type_symbol
_atom_site_fract_x
_atom_site_fract_y
_atom_site_fract_z
Cu1 Cu 0.0000 0.0000 0.0000
O1 O 0.2215(6) -0.1423(2) 0.0384(3)
C1 C 0.3039(9) -0.3366(3) -0.0142(4)
H1 H 0.5000 -0.3147 0.0161
H2 H 0.2453 -0.3824 0.0574
C2 C 0.1218(8) -0.2266(3) -0.0378(4)
O2 O -0.0978(6) -0.2248(3) -0.1215(4)
N1 N 0.3393(7) -0.4744(3) -0.3333(3)
C3 C 0.4285(8) -0.3970(3) -0.2361(4)
H3 H 0.5736 -0.3440 -0.2375
N2 N 0.2806(7) -0.4067(3) -0.1374(3)
C4 C 0.1280(8) -0.5308(3) -0.2860(4)
H4 H 0.0244 -0.5907 -0.3334
N3 N 0.0836(7) -0.4931(3) -0.1679(4)
Cu1C Cu 0.5000 -0.5000 -0.5000
Cu1C_2 Cu -0.5000 0.5000 0.5000
O1B O -0.2215(6) 0.1423(2) -0.0384(3)
C1B C -0.3039(9) 0.3366(3) 0.0142(4)
H1B H -0.5000 0.3147 -0.0161
H2B H -0.2453 0.3824 -0.0574
C2B C -0.1218(8) 0.2266(3) 0.0378(4)
O2B O 0.0978(6) 0.2248(3) 0.1215(4)
N1C N -0.1607(7) -0.0256(3) 0.1667(3)
N1A N 0.1607(7) 0.0256(3) -0.1667(3)
N1B N -0.3393(7) 0.4744(3) 0.3333(3)
C3B C -0.4285(8) 0.3970(3) 0.2361(4)
H3B H -0.5736 0.3440 0.2375
N2B N -0.2806(7) 0.4067(3) 0.1374(3)
C4B C -0.1280(8) 0.5308(3) 0.2860(4)
H4B H -0.0244 0.5907 0.3334
N3B N -0.0836(7) 0.4931(3) 0.1679(4)
loop_
_geom_bond_atom_site_label_1
_geom_bond_atom_site_label_2
_geom_bond_site_symmetry_1
_geom_bond_site_symmetry_2
Cu1 O1 1_555 1_555
O1 C2 1_555 1_555
C1 H1 1_555 1_555
H2 C1 1_555 1_555
C2 C1 1_555 1_555
O2 C2 1_555 1_555
N1 C3 1_555 1_555
C3 H3 1_555 1_555
N2 C1 1_555 1_555
C4 N1 1_555 1_555
H4 C4 1_555 1_555
N3 N2 1_555 1_555
Cu1C N1 1_555 1_555
Cu1C_2 N1B 1_555 1_555
O1B Cu1 1_555 1_555
C1B H1B 1_555 1_555
H2B C1B 1_555 1_555
C2B O1B 1_555 1_555
O2B C2B 1_555 1_555
N1C Cu1 1_555 1_555
N1A Cu1 1_555 1_555
N1B C3B 1_555 1_555
C3B H3B 1_555 1_555
N2B C1B 1_555 1_555
C4B N1B 1_555 1_555
H4B C4B 1_555 1_555
N3B N2B 1_555 1_555
C3 N2 1_555 1_555
C4 N3 1_555 1_555
C1B C2B 1_555 1_555
C3B N2B 1_555 1_555
C4B N3B 1_555 1_555

#END
