
#######################################################################
#
#                 Cambridge Crystallographic Data Centre
#                                CCDC 
#
#######################################################################
#
# If this CIF has been generated from an entry in the Cambridge 
# Structural Database, then it will include bibliographic, chemical, 
# crystal, experimental, refinement or atomic coordinate data resulting 
# from the CCDC's data processing and validation procedures.
#
#######################################################################

data_POLDUR
_symmetry_cell_setting           monoclinic
_symmetry_space_group_name_H-M   'P 21/n'
_symmetry_Int_Tables_number      14
_space_group_name_Hall           '-P 2yn'
loop_
_symmetry_equiv_pos_site_id
_symmetry_equiv_pos_as_xyz
1 x,y,z
2 1/2-x,1/2+y,1/2-z
3 -x,-y,-z
4 1/2+x,1/2-y,1/2+z
_cell_length_a                   8.8434(2)
_cell_length_b                   15.7750(3)
_cell_length_c                   10.7158(3)
_cell_angle_alpha                90
_cell_angle_beta                 97.227(2)
_cell_angle_gamma                90
_cell_volume                     1483.03
loop_
_atom_site_label
_atom_site_type_symbol
_atom_site_fract_x
_atom_site_fract_y
_atom_site_fract_z
Cd1 Cd 0.96827(3) 0.108256(18) 0.73846(3)
Cd2 Cd 0.72986(3) -0.030423(18) 0.50573(3)
O1 O 0.9619(3) -0.02241(16) 0.6502(3)
O2 O 0.6720(3) 0.09386(18) 1.0344(3)
O3 O 0.8323(3) 0.05216(18) 0.9044(3)
N1 N 0.9138(4) 0.2176(2) 0.8548(3)
C1 C 0.8074(4) 0.1993(2) 0.9339(4)
C2 C 0.9242(5) 0.3025(3) 0.8571(4)
H1 H 0.9904 0.3333 0.8104
C3 C 0.7695(5) 0.1100(3) 0.9570(4)
C4 C 1.0720(5) -0.0762(2) 0.6655(4)
C5 C 0.9227(4) -0.1654(3) 0.7992(4)
H2 H 0.8730 -0.1154 0.8224
C6 C 1.0354(4) -0.1596(2) 0.7208(4)
O4 O 1.2038(3) -0.06177(17) 0.6415(3)
O5 O 0.5741(3) 0.22993(18) 1.1096(3)
N2 N 0.8336(4) 0.3393(2) 0.9304(3)
C7 C 0.7568(4) 0.2739(3) 0.9796(4)
C8 C 0.9536(4) -0.3161(3) 0.8093(4)
C9 C 1.0666(4) -0.3114(3) 0.7318(4)
H3 H 1.1149 -0.3617 0.7083
C10 C 0.8821(5) -0.2428(3) 0.8440(4)
H4 H 0.8054 -0.2462 0.8984
C11 C 1.1099(5) -0.2334(3) 0.6880(4)
H5 H 1.1894 -0.2299 0.6363
C12 C 0.6443(5) 0.2900(3) 1.0656(4)
O6 O 0.6221(3) 0.36726(17) 1.0929(3)
C13 C 0.9057(5) -0.4002(3) 0.8571(4)
O7 O 0.7708(3) -0.40624(17) 0.8861(3)
O8 O 0.9969(3) -0.46114(17) 0.8698(3)
O9 O 1.1765(4) 0.06071(19) 0.8786(3)
H6 H 1.241(4) 0.024(2) 0.860(4)
H7 H 0.642(5) 0.1410(17) 1.064(4)
H8 H 1.150(5) 0.048(3) 0.950(2)
Cd1A Cd 0.53173(3) -0.391744(18) 0.76154(3)
Cd1C Cd 0.46827(3) 0.391744(18) 1.23846(3)
Cd2A Cd 0.77014(3) -0.530423(18) 0.99427(3)
Cd2A_2 Cd 0.77014(3) 0.469577(18) 0.99427(3)
Cd2B Cd 1.27014(3) 0.030423(18) 0.49427(3)
Cd2C Cd 1.22986(3) -0.469577(18) 1.00573(3)
O4B O 0.7962(3) 0.06177(17) 0.3585(3)
N2A N 0.6664(4) -0.1607(2) 0.5696(3)
O6A O 0.8779(3) -0.13274(17) 0.4071(3)
O6C O 1.1221(3) 0.13274(17) 0.5929(3)
O7A O 0.7292(3) 0.09376(17) 0.6139(3)
O8A O 0.5031(3) 0.03886(17) 0.6302(3)
O8C O 0.4969(3) -0.03886(17) 0.3698(3)
loop_
_geom_bond_atom_site_label_1
_geom_bond_atom_site_label_2
_geom_bond_site_symmetry_1
_geom_bond_site_symmetry_2
Cd1 O1 1_555 1_555
Cd2 O1 1_555 1_555
O1 C4 1_555 1_555
O2 C3 1_555 1_555
O3 Cd1 1_555 1_555
N1 Cd1 1_555 1_555
C1 N1 1_555 1_555
C2 N1 1_555 1_555
H1 C2 1_555 1_555
C3 O3 1_555 1_555
C4 C6 1_555 1_555
C5 H2 1_555 1_555
C6 C5 1_555 1_555
O4 C4 1_555 1_555
O5 C12 1_555 1_555
N2 C2 1_555 1_555
C7 C1 1_555 1_555
C8 C9 1_555 1_555
C9 H3 1_555 1_555
C10 C5 1_555 1_555
H4 C10 1_555 1_555
C11 C6 1_555 1_555
H5 C11 1_555 1_555
C12 C7 1_555 1_555
O6 C12 1_555 1_555
C13 C8 1_555 1_555
O7 C13 1_555 1_555
O8 C13 1_555 1_555
O9 Cd1 1_555 1_555
H6 O9 1_555 1_555
H7 O2 1_555 1_555
H8 O9 1_555 1_555
Cd1A O7 1_555 1_555
Cd1C O6 1_555 1_555
Cd2A O7 1_555 1_555
Cd2A_2 N2 1_555 1_555
Cd2B O4 1_555 1_555
Cd2C O8 1_555 1_555
O4B Cd2 1_555 1_555
N2A Cd2 1_555 1_555
O6A Cd2 1_555 1_555
O6C Cd1 1_555 1_555
O7A Cd1 1_555 1_555
O8A Cd2 1_555 1_555
O8C Cd2 1_555 1_555
Cd2 O7A 1_555 1_555
C1 C3 1_555 1_555
N2 C7 1_555 1_555
C8 C10 1_555 1_555
C9 C11 1_555 1_555
O6 Cd2A_2 1_555 1_555
O8 Cd2A 1_555 1_555
Cd2B O6C 1_555 1_555

#END
