
#######################################################################
#
#                 Cambridge Crystallographic Data Centre
#                                CCDC 
#
#######################################################################
#
# If this CIF has been generated from an entry in the Cambridge 
# Structural Database, then it will include bibliographic, chemical, 
# crystal, experimental, refinement or atomic coordinate data resulting 
# from the CCDC's data processing and validation procedures.
#
#######################################################################

data_POLDIF
_symmetry_cell_setting           monoclinic
_symmetry_space_group_name_H-M   'P 2/c'
_symmetry_Int_Tables_number      13
_space_group_name_Hall           '-P 2yc'
loop_
_symmetry_equiv_pos_site_id
_symmetry_equiv_pos_as_xyz
1 x,y,z
2 -x,y,1/2-z
3 -x,-y,-z
4 x,-y,1/2+z
_cell_length_a                   19.604(4)
_cell_length_b                   10.357(2)
_cell_length_c                   19.987(4)
_cell_angle_alpha                90
_cell_angle_beta                 101.97(3)
_cell_angle_gamma                90
_cell_volume                     3969.89
loop_
_atom_site_label
_atom_site_type_symbol
_atom_site_fract_x
_atom_site_fract_y
_atom_site_fract_z
O1 O 0.4240(2) 0.7913(4) 0.1764(2)
C1 C 0.3972(3) 0.6877(6) 0.1928(3)
C2 C 0.3437(3) 0.6252(5) 0.1376(2)
C3 C 0.3147(3) 0.6912(5) 0.0777(2)
H1 H 0.3263 0.7772 0.0728
C4 C 0.2686(2) 0.6292(5) 0.0252(2)
C5 C 0.3251(3) 0.4969(5) 0.1446(2)
H2 H 0.3435 0.4531 0.1849
C6 C 0.2523(2) 0.5003(4) 0.0321(2)
H3 H 0.2230 0.4580 -0.0038
O2 O 0.26060(19) 0.8146(3) -0.04504(18)
Zn1 Zn 0.20899(3) 0.09114(5) 0.37469(3)
Zn2 Zn 0.5000 0.15331(9) 0.7500
Zn3 Zn 0.0000 -0.55404(9) 0.7500
Cl1 Cl -0.09075(12) -0.6715(2) 0.69807(12)
O3 O 0.2213(2) 0.1717(3) 0.29042(17)
O4 O 0.1713(2) -0.0074(4) 0.24224(19)
O5 O 0.1874(2) 0.6534(4) -0.08042(18)
N1 N 0.0093(2) -0.2116(4) 0.4805(2)
N2 N 0.2714(2) -0.0671(4) 0.3893(2)
C7 C 0.2037(2) 0.0930(5) 0.2395(2)
N3 N 0.0058(2) -0.3462(4) 0.5728(2)
C8 C 0.2458(2) 0.2583(5) 0.1646(2)
H4 H 0.2504 0.3167 0.2006
N4 N 0.1114(2) 0.0439(4) 0.3804(2)
C9 C 0.2242(2) 0.1322(5) 0.1737(2)
N5 N 0.3661(2) -0.1842(4) 0.4218(2)
C10 C 0.2358(2) 0.7020(5) -0.0385(2)
C11 C -0.0252(2) -0.3054(5) 0.5050(3)
N6 N 0.0199(2) -0.4396(5) 0.6735(2)
C12 C 0.2798(2) 0.4330(5) 0.0927(2)
C13 C -0.0243(3) -0.4190(5) 0.6148(3)
H5 H -0.0697 -0.4503 0.6039
C14 C 0.2604(2) 0.2980(5) 0.1024(2)
O6 O 0.4146(2) 0.6391(5) 0.2501(2)
N7 N 0.0208(2) -0.0702(4) 0.3939(2)
C15 C 0.2538(3) 0.2063(5) 0.0495(3)
H6 H 0.2618 0.2313 0.0071
N8 N 0.4568(2) -0.1587(4) 0.5162(2)
C16 C 0.2354(3) 0.0791(5) 0.0594(3)
H7 H 0.2340 0.0186 0.0247
C17 C 0.3331(3) -0.0730(5) 0.4309(2)
H8 H 0.3515 -0.0091 0.4622
C18 C 0.4328(3) -0.2248(5) 0.4584(3)
C19 C -0.0181(2) -0.1703(5) 0.4182(3)
N9 N 0.5414(2) -0.1221(5) 0.6132(2)
N10 N 0.5422(2) 0.0261(5) 0.6916(2)
C20 C 0.3213(3) -0.2535(6) 0.3720(3)
H9 H 0.3291 -0.3349 0.3555
C21 C 0.5584(3) -0.2935(6) 0.5337(3)
H10 H 0.6014 -0.3156 0.5607
C22 C 0.2193(3) 0.0426(5) 0.1212(3)
H11 H 0.2053 -0.0416 0.1273
C23 C -0.1123(3) -0.3137(6) 0.4044(3)
H12 H -0.1531 -0.3486 0.3786
C24 C 0.0519(3) 0.0891(6) 0.3364(3)
H13 H 0.0507 0.1577 0.3062
C25 C -0.0790(3) -0.2160(6) 0.3779(3)
H14 H -0.0966 -0.1820 0.3347
C26 C 0.5082(3) -0.0196(6) 0.6333(3)
H15 H 0.4664 0.0141 0.6088
C27 C 0.5182(3) -0.1935(5) 0.5521(3)
C28 C 0.0732(3) -0.3192(6) 0.6076(3)
H16 H 0.1066 -0.2713 0.5914
C29 C 0.0897(3) -0.0516(6) 0.4139(3)
H17 H 0.1186 -0.1003 0.4473
C30 C -0.0855(3) -0.3605(6) 0.4691(3)
H18 H -0.1075 -0.4269 0.4877
C31 C 0.4681(3) -0.3221(6) 0.4345(3)
H19 H 0.4500 -0.3628 0.3932
C32 C -0.0031(3) 0.0195(6) 0.3440(3)
H20 H -0.0489 0.0298 0.3202
C33 C 0.0809(3) -0.3755(6) 0.6687(3)
H21 H 0.1211 -0.3723 0.7029
C34 C 0.5315(3) -0.3577(6) 0.4738(3)
H22 H 0.5563 -0.4255 0.4598
C35 C 0.6011(3) -0.1406(7) 0.6637(3)
H23 H 0.6350 -0.2037 0.6646
C36 C 0.5998(3) -0.0501(7) 0.7102(3)
H24 H 0.6335 -0.0400 0.7501
C37 C 0.2646(3) -0.1804(6) 0.3523(3)
H25 H 0.2262 -0.2026 0.3185
O1A O -0.4240(2) 0.7913(4) 1.3236(2)
C1A C -0.3972(3) 0.6877(6) 1.3072(3)
C2A C -0.3437(3) 0.6252(5) 1.3624(2)
C3A C -0.3147(3) 0.6912(5) 1.4223(2)
H1A H -0.3263 0.7772 1.4272
C4A C -0.2686(2) 0.6292(5) 1.4748(2)
C5A C -0.3251(3) 0.4969(5) 1.3554(2)
H2A H -0.3435 0.4531 1.3151
C6A C -0.2523(2) 0.5003(4) 1.4679(2)
H3A H -0.2230 0.4580 1.5038
O2A O -0.26060(19) 0.8146(3) 1.54504(18)
Zn1A Zn -0.20899(3) 0.09114(5) 1.12531(3)
Cl1A Cl 0.09075(12) -0.6715(2) 0.80193(12)
O3A O -0.2213(2) 0.1717(3) 1.20958(17)
O4A O -0.1713(2) -0.0074(4) 1.25776(19)
O5A O -0.1874(2) 0.6534(4) 1.58042(18)
N1A N -0.0093(2) -0.2116(4) 1.0195(2)
N2A N -0.2714(2) -0.0671(4) 1.1107(2)
C7A C -0.2037(2) 0.0930(5) 1.2605(2)
N3A N -0.0058(2) -0.3462(4) 0.9272(2)
C8A C -0.2458(2) 0.2583(5) 1.3354(2)
H4A H -0.2504 0.3167 1.2994
N4A N -0.1114(2) 0.0439(4) 1.1196(2)
C9A C -0.2242(2) 0.1322(5) 1.3263(2)
N5A N -0.3661(2) -0.1842(4) 1.0782(2)
C10A C -0.2358(2) 0.7020(5) 1.5385(2)
C11A C 0.0252(2) -0.3054(5) 0.9950(3)
N6A N -0.0199(2) -0.4396(5) 0.8265(2)
C12A C -0.2798(2) 0.4330(5) 1.4073(2)
C13A C 0.0243(3) -0.4190(5) 0.8852(3)
H5A H 0.0697 -0.4503 0.8961
C14A C -0.2604(2) 0.2980(5) 1.3976(2)
O6A O -0.4146(2) 0.6391(5) 1.2499(2)
N7A N -0.0208(2) -0.0702(4) 1.1061(2)
C15A C -0.2538(3) 0.2063(5) 1.4505(3)
H6A H -0.2618 0.2313 1.4929
N8A N -0.4568(2) -0.1587(4) 0.9838(2)
C16A C -0.2354(3) 0.0791(5) 1.4406(3)
H7A H -0.2340 0.0186 1.4753
C17A C -0.3331(3) -0.0730(5) 1.0691(2)
H8A H -0.3515 -0.0091 1.0378
C18A C -0.4328(3) -0.2248(5) 1.0416(3)
C19A C 0.0181(2) -0.1703(5) 1.0818(3)
N9A N -0.5414(2) -0.1221(5) 0.8868(2)
N10A N -0.5422(2) 0.0261(5) 0.8084(2)
C20A C -0.3213(3) -0.2535(6) 1.1280(3)
H9A H -0.3291 -0.3349 1.1445
C21A C -0.5584(3) -0.2935(6) 0.9663(3)
H10A H -0.6014 -0.3156 0.9393
C22A C -0.2193(3) 0.0426(5) 1.3788(3)
H11A H -0.2053 -0.0416 1.3727
C23A C 0.1123(3) -0.3137(6) 1.0956(3)
H12A H 0.1531 -0.3486 1.1214
C24A C -0.0519(3) 0.0891(6) 1.1636(3)
H13A H -0.0507 0.1577 1.1938
C25A C 0.0790(3) -0.2160(6) 1.1221(3)
H14A H 0.0966 -0.1820 1.1653
C26A C -0.5082(3) -0.0196(6) 0.8667(3)
H15A H -0.4664 0.0141 0.8912
C27A C -0.5182(3) -0.1935(5) 0.9479(3)
C28A C -0.0732(3) -0.3192(6) 0.8924(3)
H16A H -0.1066 -0.2713 0.9086
C29A C -0.0897(3) -0.0516(6) 1.0861(3)
H17A H -0.1186 -0.1003 1.0527
C30A C 0.0855(3) -0.3605(6) 1.0309(3)
H18A H 0.1075 -0.4269 1.0123
C31A C -0.4681(3) -0.3221(6) 1.0655(3)
H19A H -0.4500 -0.3628 1.1068
C32A C 0.0031(3) 0.0195(6) 1.1560(3)
H20A H 0.0489 0.0298 1.1798
C33A C -0.0809(3) -0.3755(6) 0.8313(3)
H21A H -0.1211 -0.3723 0.7971
C34A C -0.5315(3) -0.3577(6) 1.0262(3)
H22A H -0.5563 -0.4255 1.0402
C35A C -0.6011(3) -0.1406(7) 0.8363(3)
H23A H -0.6350 -0.2037 0.8354
C36A C -0.5998(3) -0.0501(7) 0.7898(3)
H24A H -0.6335 -0.0400 0.7499
C37A C -0.2646(3) -0.1804(6) 1.1477(3)
H25A H -0.2262 -0.2026 1.1815
O1B O 0.5760(2) 0.2087(4) 0.8236(2)
O1C O 0.4240(2) 0.2087(4) 0.6764(2)
O2B O -0.26060(19) 0.1854(3) 1.04504(18)
O2C O 0.26060(19) 0.1854(3) 0.45496(18)
Zn1B Zn -0.20899(3) 0.90886(5) 1.62531(3)
Zn1C Zn 0.20899(3) 0.90886(5) -0.12531(3)
Zn2_2 Zn -0.5000 0.15331(9) 0.7500
Zn2B Zn -0.5000 0.84669(9) 1.2500
Zn2B_2 Zn 0.5000 0.84669(9) 0.2500
N10A_2 N 0.4578(2) 0.0261(5) 0.8084(2)
O7 O 0.3569(4) 0.4489(6) 0.3264(4)
H26 H 0.3380 0.4560 0.2842
H27 H 0.4009 0.4421 0.3387
O8 O 0.2140(4) 0.4711(7) 0.2968(3)
H28 H 0.2378 0.4221 0.2763
H29 H 0.1698 0.4715 0.2849
loop_
_geom_bond_atom_site_label_1
_geom_bond_atom_site_label_2
_geom_bond_site_symmetry_1
_geom_bond_site_symmetry_2
O1 C1 1_555 1_555
C1 C2 1_555 1_555
C2 C3 1_555 1_555
C3 H1 1_555 1_555
C4 C3 1_555 1_555
C5 C2 1_555 1_555
H2 C5 1_555 1_555
C6 C4 1_555 1_555
H3 C6 1_555 1_555
O2 C10 1_555 1_555
Zn1 O3 1_555 1_555
Zn2 N10 1_555 1_555
Zn3 Cl1 1_555 1_555
O3 C7 1_555 1_555
O4 C7 1_555 1_555
O5 C10 1_555 1_555
N1 C11 1_555 1_555
N2 Zn1 1_555 1_555
C7 C9 1_555 1_555
N3 C11 1_555 1_555
C8 H4 1_555 1_555
N4 Zn1 1_555 1_555
C9 C8 1_555 1_555
N5 C17 1_555 1_555
C10 C4 1_555 1_555
C11 C30 1_555 1_555
N6 Zn3 1_555 1_555
C12 C5 1_555 1_555
C13 N3 1_555 1_555
H5 C13 1_555 1_555
C14 C8 1_555 1_555
O6 C1 1_555 1_555
N7 C19 1_555 1_555
C15 C14 1_555 1_555
H6 C15 1_555 1_555
N8 C18 1_555 1_555
C16 C15 1_555 1_555
H7 C16 1_555 1_555
C17 N2 1_555 1_555
H8 C17 1_555 1_555
C18 N5 1_555 1_555
C19 N1 1_555 1_555
N9 C26 1_555 1_555
N10 C26 1_555 1_555
C20 N5 1_555 1_555
H9 C20 1_555 1_555
C21 H10 1_555 1_555
C22 C9 1_555 1_555
H11 C22 1_555 1_555
C23 H12 1_555 1_555
C24 N4 1_555 1_555
H13 C24 1_555 1_555
C25 C19 1_555 1_555
H14 C25 1_555 1_555
C26 H15 1_555 1_555
C27 N8 1_555 1_555
C28 N3 1_555 1_555
H16 C28 1_555 1_555
C29 N4 1_555 1_555
H17 C29 1_555 1_555
C30 C23 1_555 1_555
H18 C30 1_555 1_555
C31 C18 1_555 1_555
H19 C31 1_555 1_555
C32 N7 1_555 1_555
H20 C32 1_555 1_555
C33 N6 1_555 1_555
H21 C33 1_555 1_555
C34 C21 1_555 1_555
H22 C34 1_555 1_555
C35 N9 1_555 1_555
H23 C35 1_555 1_555
C36 N10 1_555 1_555
H24 C36 1_555 1_555
C37 N2 1_555 1_555
H25 C37 1_555 1_555
O7 H26 1_555 1_555
H27 O7 1_555 1_555
O8 H28 1_555 1_555
H29 O8 1_555 1_555
O1A C1A 1_555 1_555
C1A C2A 1_555 1_555
C2A C3A 1_555 1_555
C3A H1A 1_555 1_555
C4A C3A 1_555 1_555
C5A C2A 1_555 1_555
H2A C5A 1_555 1_555
C6A C4A 1_555 1_555
H3A C6A 1_555 1_555
O2A C10A 1_555 1_555
Zn1A O3A 1_555 1_555
Cl1A Zn3 1_555 1_555
O3A C7A 1_555 1_555
O4A C7A 1_555 1_555
O5A C10A 1_555 1_555
N1A C11A 1_555 1_555
N2A Zn1A 1_555 1_555
C7A C9A 1_555 1_555
N3A C11A 1_555 1_555
C8A H4A 1_555 1_555
N4A Zn1A 1_555 1_555
C9A C8A 1_555 1_555
N5A C17A 1_555 1_555
C10A C4A 1_555 1_555
C11A C30A 1_555 1_555
N6A Zn3 1_555 1_555
C12A C5A 1_555 1_555
C13A N3A 1_555 1_555
H5A C13A 1_555 1_555
C14A C8A 1_555 1_555
O6A C1A 1_555 1_555
N7A C19A 1_555 1_555
C15A C14A 1_555 1_555
H6A C15A 1_555 1_555
N8A C18A 1_555 1_555
C16A C15A 1_555 1_555
H7A C16A 1_555 1_555
C17A N2A 1_555 1_555
H8A C17A 1_555 1_555
C18A N5A 1_555 1_555
C19A N1A 1_555 1_555
N9A C26A 1_555 1_555
N10A C26A 1_555 1_555
C20A N5A 1_555 1_555
H9A C20A 1_555 1_555
C21A H10A 1_555 1_555
C22A C9A 1_555 1_555
H11A C22A 1_555 1_555
C23A H12A 1_555 1_555
C24A N4A 1_555 1_555
H13A C24A 1_555 1_555
C25A C19A 1_555 1_555
H14A C25A 1_555 1_555
C26A H15A 1_555 1_555
C27A N8A 1_555 1_555
C28A N3A 1_555 1_555
H16A C28A 1_555 1_555
C29A N4A 1_555 1_555
H17A C29A 1_555 1_555
C30A C23A 1_555 1_555
H18A C30A 1_555 1_555
C31A C18A 1_555 1_555
H19A C31A 1_555 1_555
C32A N7A 1_555 1_555
H20A C32A 1_555 1_555
C33A N6A 1_555 1_555
H21A C33A 1_555 1_555
C34A C21A 1_555 1_555
H22A C34A 1_555 1_555
C35A N9A 1_555 1_555
H23A C35A 1_555 1_555
C36A N10A 1_555 1_555
H24A C36A 1_555 1_555
C37A N2A 1_555 1_555
H25A C37A 1_555 1_555
O1B Zn2 1_555 1_555
O1C Zn2 1_555 1_555
O2B Zn1A 1_555 1_555
O2C Zn1 1_555 1_555
Zn1B O2A 1_555 1_555
Zn1C O2 1_555 1_555
Zn2_2 N10A 1_555 1_555
Zn2B O1A 1_555 1_555
Zn2B_2 O1 1_555 1_555
N10A_2 Zn2 1_555 1_555
C6 C12 1_555 1_555
N6 C13 1_555 1_555
C12 C14 1_555 1_555
N7 C29 1_555 1_555
C16 C22 1_555 1_555
N9 C27 1_555 1_555
C20 C37 1_555 1_555
C21 C27 1_555 1_555
C23 C25 1_555 1_555
C24 C32 1_555 1_555
C28 C33 1_555 1_555
C31 C34 1_555 1_555
C35 C36 1_555 1_555
C6A C12A 1_555 1_555
N6A C13A 1_555 1_555
C12A C14A 1_555 1_555
N7A C29A 1_555 1_555
C16A C22A 1_555 1_555
N9A C27A 1_555 1_555
C20A C37A 1_555 1_555
C21A C27A 1_555 1_555
C23A C25A 1_555 1_555
C24A C32A 1_555 1_555
C28A C33A 1_555 1_555
C31A C34A 1_555 1_555
C35A C36A 1_555 1_555

#END
