
#######################################################################
#
#                 Cambridge Crystallographic Data Centre
#                                CCDC 
#
#######################################################################
#
# If this CIF has been generated from an entry in the Cambridge 
# Structural Database, then it will include bibliographic, chemical, 
# crystal, experimental, refinement or atomic coordinate data resulting 
# from the CCDC's data processing and validation procedures.
#
#######################################################################

data_POLDOK
_symmetry_cell_setting           tetragonal
_symmetry_space_group_name_H-M   'I 41/a'
_symmetry_Int_Tables_number      88
_space_group_name_Hall           '-I 4ad'
loop_
_symmetry_equiv_pos_site_id
_symmetry_equiv_pos_as_xyz
1 x,y,z
2 3/4-y,1/4+x,1/4+z
3 1/2+x,1/2+y,1/2+z
4 1/4-y,3/4+x,3/4+z
5 1/4+y,1/4-x,1/4+z
6 1/2-x,-y,1/2+z
7 3/4+y,3/4-x,3/4+z
8 -x,1/2-y,z
9 -x,-y,-z
10 1/4+y,3/4-x,3/4-z
11 1/2-x,1/2-y,1/2-z
12 3/4+y,1/4-x,1/4-z
13 3/4-y,3/4+x,3/4-z
14 1/2+x,y,1/2-z
15 1/4-y,1/4+x,1/4-z
16 x,1/2+y,-z
_cell_length_a                   24.1428(9)
_cell_length_b                   24.1428(9)
_cell_length_c                   4.9878(4)
_cell_angle_alpha                90
_cell_angle_beta                 90
_cell_angle_gamma                90
_cell_volume                     2907.26
loop_
_atom_site_label
_atom_site_type_symbol
_atom_site_fract_x
_atom_site_fract_y
_atom_site_fract_z
Cu1 Cu 0.5000 1.0000 0.0000
O1 O 0.47710(9) 1.06810(10) 0.1773(5)
N1 N 0.36087(11) 1.16142(12) 0.1984(6)
C1 C 0.43182(13) 1.08974(14) 0.0985(7)
N2 N 0.29323(11) 1.20381(11) 0.0006(5)
N3 N 0.31486(14) 1.14627(12) 0.3363(6)
C2 C 0.41454(14) 1.13907(14) 0.2704(7)
H1 H 0.4137 1.1277 0.4569
H2 H 0.4422 1.1680 0.2530
O2 O 0.40427(12) 1.07448(13) -0.0924(6)
C3 C 0.27544(16) 1.17266(15) 0.2103(7)
H3 H 0.2384 1.1703 0.2599
C4 C 0.34744(14) 1.19530(14) 0.0010(6)
H4 H 0.3723 1.2109 -0.1197
Cu1D Cu 0.2500 0.7500 0.2500
Cu1C Cu 0.2500 1.2500 -0.2500
O1H O 0.52290(9) 0.93190(10) -0.1773(5)
O1D O 0.31810(10) 0.77290(9) 0.4273(5)
N1D N 0.41142(12) 0.88913(11) 0.4484(6)
C1D C 0.33974(14) 0.81818(13) 0.3485(7)
N2D N 0.45381(11) 0.95677(11) 0.2506(5)
N2L N 0.54619(11) 1.04323(11) -0.2506(5)
N3D N 0.39627(12) 0.93514(14) 0.5863(6)
C2D C 0.38907(14) 0.83546(14) 0.5204(7)
H1D H 0.3777 0.8363 0.7069
H2D H 0.4180 0.8078 0.5030
O2D O 0.32448(13) 0.84573(12) 0.1576(6)
C3D C 0.42266(15) 0.97456(16) 0.4603(7)
H3D H 0.4203 1.0116 0.5099
C4D C 0.44530(14) 0.90256(14) 0.2510(6)
H4D H 0.4609 0.8777 0.1303
Cl1 Cl 0.5000 0.7500 -0.8750
O3 O 0.53907(15) 0.72178(14) -1.0390(7)
O3N O 0.52822(14) 0.78907(15) -0.7110(7)
O3K O 0.47178(14) 0.71093(15) -0.7110(7)
O3G O 0.46093(15) 0.77822(14) -1.0390(7)
Na1 Na 0.25409(17) 0.99430(17) 0.4306(10)
O4 O 0.2063(5) 0.9399(4) 0.295(4)
O5 O 0.2991(7) 1.0269(8) 0.458(6)
loop_
_geom_bond_atom_site_label_1
_geom_bond_atom_site_label_2
_geom_bond_site_symmetry_1
_geom_bond_site_symmetry_2
Cu1 O1 1_555 1_555
O1 C1 1_555 1_555
N1 N3 1_555 1_555
C1 C2 1_555 1_555
N2 C3 1_555 1_555
N3 C3 1_555 1_555
C2 N1 1_555 1_555
H1 C2 1_555 1_555
H2 C2 1_555 1_555
O2 C1 1_555 1_555
C3 H3 1_555 1_555
C4 N1 1_555 1_555
H4 C4 1_555 1_555
Cl1 O3 1_555 1_555
Cu1D O1D 1_555 1_555
Cu1C N2 1_555 1_555
O1H Cu1 1_555 1_555
O1D C1D 1_555 1_555
N1D N3D 1_555 1_555
C1D C2D 1_555 1_555
N2D Cu1 1_555 1_555
N2L Cu1 1_555 1_555
N3D C3D 1_555 1_555
C2D N1D 1_555 1_555
H1D C2D 1_555 1_555
H2D C2D 1_555 1_555
O2D C1D 1_555 1_555
C3D N2D 1_555 1_555
H3D C3D 1_555 1_555
C4D N1D 1_555 1_555
H4D C4D 1_555 1_555
O3N Cl1 1_555 1_555
O3K Cl1 1_555 1_555
O3G Cl1 1_555 1_555
N2 C4 1_555 1_555
N2D C4D 1_555 1_555

#END
