
#######################################################################
#
#                 Cambridge Crystallographic Data Centre
#                                CCDC 
#
#######################################################################
#
# If this CIF has been generated from an entry in the Cambridge 
# Structural Database, then it will include bibliographic, chemical, 
# crystal, experimental, refinement or atomic coordinate data resulting 
# from the CCDC's data processing and validation procedures.
#
#######################################################################

data_POLDUQ
_symmetry_cell_setting           tetragonal
_symmetry_space_group_name_H-M   'I 41/a'
_symmetry_Int_Tables_number      88
_space_group_name_Hall           '-I 4ad'
loop_
_symmetry_equiv_pos_site_id
_symmetry_equiv_pos_as_xyz
1 x,y,z
2 3/4-y,1/4+x,1/4+z
3 1/2+x,1/2+y,1/2+z
4 1/4-y,3/4+x,3/4+z
5 1/4+y,1/4-x,1/4+z
6 1/2-x,-y,1/2+z
7 3/4+y,3/4-x,3/4+z
8 -x,1/2-y,z
9 -x,-y,-z
10 1/4+y,3/4-x,3/4-z
11 1/2-x,1/2-y,1/2-z
12 3/4+y,1/4-x,1/4-z
13 3/4-y,3/4+x,3/4-z
14 1/2+x,y,1/2-z
15 1/4-y,1/4+x,1/4-z
16 x,1/2+y,-z
_cell_length_a                   24.169(13)
_cell_length_b                   24.169(13)
_cell_length_c                   4.980(3)
_cell_angle_alpha                90
_cell_angle_beta                 90
_cell_angle_gamma                90
_cell_volume                     2909.02
loop_
_atom_site_label
_atom_site_type_symbol
_atom_site_fract_x
_atom_site_fract_y
_atom_site_fract_z
Cu1 Cu 0.5000 1.0000 1.0000
O1 O 0.52246(14) 0.93203(14) 0.8187(7)
N1 N 0.63824(17) 0.83781(17) 0.7984(8)
C1 C 0.5840(2) 0.8596(2) 0.7274(9)
H1 H 0.5566 0.8307 0.7509
H2 H 0.5841 0.8701 0.5394
C2 C 0.5677(2) 0.9097(2) 0.8966(10)
N2 N 0.68391(18) 0.8537(2) 0.6629(9)
C3 C 0.7241(2) 0.8279(2) 0.7902(10)
H3 H 0.7611 0.8313 0.7426
C4 C 0.6518(2) 0.8040(2) 0.9952(9)
H4 H 0.6268 0.7882 1.1150
O2 O 0.59541(19) 0.92547(17) 1.0878(8)
N3 N 0.45428(17) 0.95647(17) 1.2518(7)
Cu1A Cu 0.7500 0.7500 1.2500
Cu1D Cu 0.2500 0.7500 1.2500
O1N O 0.31797(14) 0.77246(14) 1.4313(7)
O1H O 0.47754(14) 1.06797(14) 1.1813(7)
N1N N 0.41219(17) 0.88824(17) 1.4516(8)
C1N C 0.3904(2) 0.8340(2) 1.5226(9)
H1N H 0.4193 0.8066 1.4991
H2N H 0.3799 0.8341 1.7106
C2N C 0.3403(2) 0.8177(2) 1.3534(10)
N2N N 0.3963(2) 0.93391(18) 1.5871(9)
C3N C 0.4221(2) 0.9741(2) 1.4598(10)
H3N H 0.4187 1.0111 1.5074
C4N C 0.4460(2) 0.9018(2) 1.2548(9)
H4N H 0.4618 0.8768 1.1350
O2N O 0.32453(17) 0.84541(19) 1.1622(8)
N3K N 0.70647(17) 0.79572(17) 0.9982(7)
N3H N 0.54572(17) 1.04353(17) 0.7482(7)
F1 F 0.52911(19) 0.7864(2) 0.2816(8)
B1 B 0.5000 0.7500 0.1250
F1K F 0.5364(2) 0.72089(19) -0.0316(8)
F1N F 0.4636(2) 0.77911(19) -0.0316(8)
F1G F 0.47089(19) 0.7136(2) 0.2816(8)
Na1 Na 0.7447(3) 0.9950(3) 0.8150(13)
O3 O 0.6909(6) 1.0418(8) 0.937(6)
O4 O 0.7788(14) 0.9490(10) 0.778(11)
loop_
_geom_bond_atom_site_label_1
_geom_bond_atom_site_label_2
_geom_bond_site_symmetry_1
_geom_bond_site_symmetry_2
Cu1 O1 1_555 1_555
O1 C2 1_555 1_555
N1 C1 1_555 1_555
C1 H1 1_555 1_555
H2 C1 1_555 1_555
C2 C1 1_555 1_555
N2 N1 1_555 1_555
C3 N2 1_555 1_555
H3 C3 1_555 1_555
C4 N1 1_555 1_555
H4 C4 1_555 1_555
O2 C2 1_555 1_555
N3 Cu1 1_555 1_555
F1 B1 1_555 1_555
B1 F1K 1_555 1_555
Cu1A N3K 1_555 1_555
Cu1D O1N 1_555 1_555
O1N C2N 1_555 1_555
O1H Cu1 1_555 1_555
N1N C1N 1_555 1_555
C1N H1N 1_555 1_555
H2N C1N 1_555 1_555
C2N C1N 1_555 1_555
N2N N1N 1_555 1_555
C3N N3 1_555 1_555
H3N C3N 1_555 1_555
C4N N3 1_555 1_555
H4N C4N 1_555 1_555
O2N C2N 1_555 1_555
N3K C3 1_555 1_555
N3H Cu1 1_555 1_555
F1N B1 1_555 1_555
F1G B1 1_555 1_555
C4 N3K 1_555 1_555
N1N C4N 1_555 1_555
N2N C3N 1_555 1_555

#END
