
#######################################################################
#
#                 Cambridge Crystallographic Data Centre
#                                CCDC 
#
#######################################################################
#
# If this CIF has been generated from an entry in the Cambridge 
# Structural Database, then it will include bibliographic, chemical, 
# crystal, experimental, refinement or atomic coordinate data resulting 
# from the CCDC's data processing and validation procedures.
#
#######################################################################

data_POLDEA
_symmetry_cell_setting           monoclinic
_symmetry_space_group_name_H-M   'P 21/c'
_symmetry_Int_Tables_number      14
_space_group_name_Hall           '-P 2ybc'
loop_
_symmetry_equiv_pos_site_id
_symmetry_equiv_pos_as_xyz
1 x,y,z
2 -x,1/2+y,1/2-z
3 -x,-y,-z
4 x,1/2-y,1/2+z
_cell_length_a                   9.577(2)
_cell_length_b                   19.433(5)
_cell_length_c                   17.220(4)
_cell_angle_alpha                90
_cell_angle_beta                 104.215(2)
_cell_angle_gamma                90
_cell_volume                     3106.68
loop_
_atom_site_label
_atom_site_type_symbol
_atom_site_fract_x
_atom_site_fract_y
_atom_site_fract_z
Cu1 Cu 0.94368(5) 0.67881(3) 0.25526(3)
S1 S 0.60484(11) 0.68672(7) 0.30782(6)
O1 O 0.7584(3) 0.67645(16) 0.31330(18)
O3 O 0.5231(3) 0.68627(17) 0.22385(17)
O5 O 0.5844(5) 0.7533(3) 0.3423(3)
O7 O 0.5544(4) 0.6319(3) 0.3506(3)
O9 O 0.5624(3) 0.94079(16) 0.03375(17)
H9 H 0.521(5) 0.9689(18) 0.005(2)
O11 O 0.7419(3) 0.93909(16) -0.03644(17)
H12 H 0.676(4) 0.919(2) -0.066(2)
O13 O 0.5869(3) 0.41814(16) 0.01485(18)
H15 H 0.562(5) 0.3817(15) -0.010(2)
O15 O 0.7832(3) 0.42601(16) -0.04152(17)
H18 H 0.755(5) 0.4620(15) -0.064(3)
N1 N 0.8631(4) 0.75567(18) 0.1784(2)
N2 N 0.9414(3) 1.10599(18) 0.17420(19)
N3 N 0.8713(4) 0.60300(19) 0.1749(2)
N4 N 0.9473(4) 0.25181(19) 0.1705(2)
C1 C 0.8980(5) 0.7669(2) 0.1090(3)
H19 H 0.9569 0.7341 0.0913
C2 C 0.8526(4) 0.8237(2) 0.0618(2)
H20 H 0.8814 0.8301 0.0133
C3 C 0.7649(4) 0.8711(2) 0.0857(2)
C4 C 0.7276(4) 0.8596(2) 0.1573(2)
H21 H 0.6669 0.8912 0.1755
C5 C 0.7788(5) 0.8024(2) 0.2016(2)
H22 H 0.7534 0.7956 0.2510
C6 C 0.7111(4) 0.9367(2) 0.0390(2)
C7 C 1.0071(5) 1.0615(2) 0.1350(3)
H23 H 1.1066 1.0674 0.1376
C8 C 0.9340(4) 1.0076(2) 0.0909(3)
H24 H 0.9837 0.9771 0.0639
C9 C 0.7902(4) 0.9976(2) 0.0857(2)
C10 C 0.7226(4) 1.0430(2) 0.1271(2)
H25 H 0.6234 1.0376 0.1258
C11 C 0.8016(4) 1.0958(2) 0.1699(3)
H26 H 0.7543 1.1266 0.1979
C12 C 0.7378(5) 0.5782(3) 0.1628(3)
H27 H 0.6721 0.6010 0.1874
C13 C 0.6908(5) 0.5212(3) 0.1164(3)
H28 H 0.5944 0.5057 0.1092
C14 C 0.7830(4) 0.4867(2) 0.0805(2)
C15 C 0.9211(5) 0.5122(3) 0.0929(3)
H29 H 0.9888 0.4903 0.0690
C16 C 0.9599(5) 0.5690(3) 0.1398(3)
H30 H 1.0559 0.5854 0.1478
C17 C 0.7376(4) 0.4223(2) 0.0304(2)
C18 C 0.8261(5) 0.2794(2) 0.1820(3)
H31 H 0.7882 0.2613 0.2238
C19 C 0.7535(5) 0.3320(2) 0.1369(3)
H32 H 0.6663 0.3490 0.1466
C20 C 0.8094(4) 0.3605(2) 0.0766(2)
C21 C 0.9340(4) 0.3320(2) 0.0641(2)
H33 H 0.9752 0.3495 0.0233
C22 C 0.9986(4) 0.2777(2) 0.1114(2)
H34 H 1.0832 0.2580 0.1013
Cu1A Cu 1.05632(5) 1.17881(3) 0.24474(3)
Cu1A_2 Cu 1.05632(5) 0.17881(3) 0.24474(3)
N2A N 1.0586(3) 0.60599(18) 0.32580(19)
N4A N 1.0527(4) 0.75181(19) 0.3295(2)
O2 O 0.2334(3) 0.68697(19) 0.1507(2)
H1 H 0.227(5) 0.660(2) 0.109(2)
H2 H 0.320(3) 0.682(3) 0.181(2)
O4 O 0.7301(4) 0.8326(2) 0.4652(3)
H3 H 0.675(4) 0.811(2) 0.4264(18)
H4 H 0.699(6) 0.826(3) 0.5079(19)
O6 O 0.4367(4) 0.8164(2) 0.9827(2)
H5 H 0.469(5) 0.810(3) 0.941(2)
H6 H 0.346(2) 0.816(3) 0.975(3)
O8 O 0.5343(4) 0.80300(17) 0.56433(19)
H7 H 0.550(5) 0.804(2) 0.6173(12)
H8 H 0.506(5) 0.7615(14) 0.550(2)
O10 O 0.2987(7) 0.4559(3) 0.1124(4)
H10 H 0.346(8) 0.462(5) 0.1627(19)
H11 H 0.368(7) 0.447(6) 0.087(5)
O12 O 0.7277(6) 0.0673(3) 0.8671(4)
H13 H 0.676(8) 0.048(4) 0.817(3)
H14 H 0.676(8) 0.109(2) 0.844(4)
O14 O 0.8033(5) 0.1894(3) 0.9521(3)
H16 H 0.763(7) 0.2272(19) 0.926(4)
H17 H 0.766(7) 0.1506(18) 0.928(4)
O16 O 0.5027(8) 0.1110(4) 0.7351(4)
O17? O 0.5002(11) 0.0133(5) 0.7576(5)
loop_
_geom_bond_atom_site_label_1
_geom_bond_atom_site_label_2
_geom_bond_site_symmetry_1
_geom_bond_site_symmetry_2
Cu1 O1 1_555 1_555
S1 O1 1_555 1_555
O2 H1 1_555 1_555
H2 O2 1_555 1_555
O3 S1 1_555 1_555
O4 H3 1_555 1_555
H4 O4 1_555 1_555
O5 S1 1_555 1_555
O6 H5 1_555 1_555
H6 O6 1_555 1_555
O7 S1 1_555 1_555
O8 H7 1_555 1_555
H8 O8 1_555 1_555
O9 H9 1_555 1_555
O10 H10 1_555 1_555
H11 O10 1_555 1_555
O11 H12 1_555 1_555
O12 H13 1_555 1_555
H14 O12 1_555 1_555
O13 H15 1_555 1_555
O14 H16 1_555 1_555
H17 O14 1_555 1_555
O15 H18 1_555 1_555
N1 Cu1 1_555 1_555
N2 C7 1_555 1_555
N3 Cu1 1_555 1_555
N4 C18 1_555 1_555
C1 N1 1_555 1_555
H19 C1 1_555 1_555
C2 C1 1_555 1_555
H20 C2 1_555 1_555
C3 C2 1_555 1_555
C4 C3 1_555 1_555
H21 C4 1_555 1_555
C5 N1 1_555 1_555
H22 C5 1_555 1_555
C6 O9 1_555 1_555
C7 H23 1_555 1_555
C8 C7 1_555 1_555
H24 C8 1_555 1_555
C9 C6 1_555 1_555
C10 C9 1_555 1_555
H25 C10 1_555 1_555
C11 N2 1_555 1_555
H26 C11 1_555 1_555
C12 N3 1_555 1_555
H27 C12 1_555 1_555
C13 C12 1_555 1_555
H28 C13 1_555 1_555
C14 C13 1_555 1_555
C15 C14 1_555 1_555
H29 C15 1_555 1_555
C16 N3 1_555 1_555
H30 C16 1_555 1_555
C17 O13 1_555 1_555
C18 H31 1_555 1_555
C19 C18 1_555 1_555
H32 C19 1_555 1_555
C20 C17 1_555 1_555
C21 C20 1_555 1_555
H33 C21 1_555 1_555
C22 N4 1_555 1_555
H34 C22 1_555 1_555
Cu1A N2 1_555 1_555
Cu1A_2 N4 1_555 1_555
N2A Cu1 1_555 1_555
N4A Cu1 1_555 1_555
O11 C6 1_555 1_555
O15 C17 1_555 1_555
C3 C6 1_555 1_555
C4 C5 1_555 1_555
C8 C9 1_555 1_555
C10 C11 1_555 1_555
C14 C17 1_555 1_555
C15 C16 1_555 1_555
C19 C20 1_555 1_555
C21 C22 1_555 1_555

#END
