
#######################################################################
#
#                 Cambridge Crystallographic Data Centre
#                                CCDC 
#
#######################################################################
#
# If this CIF has been generated from an entry in the Cambridge 
# Structural Database, then it will include bibliographic, chemical, 
# crystal, experimental, refinement or atomic coordinate data resulting 
# from the CCDC's data processing and validation procedures.
#
#######################################################################

data_POLFAY
_symmetry_cell_setting           monoclinic
_symmetry_space_group_name_H-M   'P 21/n'
_symmetry_Int_Tables_number      14
_space_group_name_Hall           '-P 2yn'
loop_
_symmetry_equiv_pos_site_id
_symmetry_equiv_pos_as_xyz
1 x,y,z
2 1/2-x,1/2+y,1/2-z
3 -x,-y,-z
4 1/2+x,1/2-y,1/2+z
_cell_length_a                   16.226(4)
_cell_length_b                   19.493(4)
_cell_length_c                   19.327(4)
_cell_angle_alpha                90
_cell_angle_beta                 109.824(3)
_cell_angle_gamma                90
_cell_volume                     5750.74
loop_
_atom_site_label
_atom_site_type_symbol
_atom_site_fract_x
_atom_site_fract_y
_atom_site_fract_z
W1 W -0.14127(3) -0.39623(2) -0.31641(2)
W2 W -0.02950(3) -0.24800(2) -0.32342(3)
W3 W -0.07710(3) -0.36391(2) -0.46558(3)
W4 W -0.31962(3) -0.29716(2) -0.29039(2)
W5 W -0.42336(3) -0.17250(2) -0.41361(2)
W6 W -0.21146(3) -0.14743(2) -0.29768(2)
W7 W -0.13739(3) -0.11225(2) -0.45688(2)
W8 W -0.18856(3) -0.22955(2) -0.60134(3)
W9 W -0.34905(3) -0.13409(2) -0.56898(2)
W10 W -0.46011(3) -0.30079(2) -0.56711(2)
W11 W -0.36726(3) -0.42554(2) -0.44538(2)
P1 P -0.25365(15) -0.26819(12) -0.44496(14)
Cu1 Cu -0.24960(8) -0.49089(7) -0.55714(8)
Cu2 Cu 0.14277(9) -0.13709(7) -0.19392(8)
Cu3 Cu -0.18412(8) -0.22953(7) -0.10233(8)
O1 O -0.1030(5) -0.4629(4) -0.2570(5)
O3 O -0.0466(5) -0.3316(4) -0.2792(4)
O4 O 0.0005(4) -0.3041(4) -0.3932(4)
O5 O -0.0844(4) -0.4204(4) -0.3886(4)
O6 O -0.2455(4) -0.4314(4) -0.3816(4)
O7 O -0.1659(4) -0.3045(3) -0.4075(4)
O8 O 0.0724(5) -0.2227(4) -0.2665(4)
O9 O -0.1076(5) -0.2040(4) -0.2854(4)
O10 O -0.0578(5) -0.1784(4) -0.3969(4)
O11 O -0.0024(5) -0.4084(4) -0.4926(5)
O12 O -0.1060(4) -0.2879(3) -0.5307(4)
O13 O -0.3484(5) -0.3275(4) -0.2190(4)
O14 O -0.4643(4) -0.2423(4) -0.4793(4)
O15 O -0.3688(5) -0.3599(4) -0.3648(4)
O16 O -0.2086(5) -0.3426(4) -0.2751(4)
O17 O -0.2830(4) -0.2347(3) -0.3847(4)
O18 O -0.4129(4) -0.2328(4) -0.3324(4)
O19 O -0.5145(5) -0.1284(4) -0.4165(5)
O20 O -0.3296(4) -0.1197(3) -0.3395(4)
O21 O -0.2480(4) -0.2176(4) -0.2435(4)
O22 O -0.3825(5) -0.1272(3) -0.4833(4)
O23 O -0.1707(5) -0.0877(4) -0.2310(4)
O24 O -0.1845(5) -0.1088(4) -0.3774(4)
O25 O -0.0762(5) -0.0389(4) -0.4438(5)
O26 O -0.2489(5) -0.0780(3) -0.5194(4)
O27 O -0.1219(5) -0.1513(4) -0.5401(4)
O28 O -0.1851(5) -0.4034(4) -0.5291(4)
O29 O -0.2382(4) -0.2116(3) -0.4951(4)
O30 O 0.2380(5) -0.1963(4) -0.1320(4)
O31 O -0.1456(5) -0.2221(4) -0.6713(4)
O32 O -0.2834(5) -0.1665(4) -0.6297(4)
O33 O -0.4160(5) -0.0759(4) -0.6265(5)
O34 O -0.4144(4) -0.2156(4) -0.5901(4)
O35 O -0.4130(5) -0.4940(4) -0.4174(5)
O36 O -0.3376(5) -0.4608(4) -0.5184(4)
O37 O -0.4672(4) -0.3778(3) -0.5082(4)
O38 O -0.3219(4) -0.3190(3) -0.4899(4)
O39 O -0.0731(4) -0.2103(4) -0.1139(4)
O40 O 0.0737(4) -0.1528(4) -0.1314(4)
O41 O -0.1412(5) -0.5455(4) -0.4663(5)
O42 O 0.1972(4) -0.1145(3) -0.0940(3)
O43 O -0.2067(5) -0.1299(4) -0.1041(5)
N1 N -0.3140(6) -0.5777(5) -0.5928(5)
N2 N -0.1923(6) -0.5187(5) -0.6280(6)
N3 N 0.2046(6) -0.1080(5) -0.2627(5)
N4 N 0.0774(6) -0.0510(5) -0.2331(6)
N5 N -0.2773(7) -0.2516(5) -0.0612(7)
N6 N -0.1674(5) -0.3300(5) -0.0934(5)
C1 C -0.3812(7) -0.6017(6) -0.5699(7)
H1 H -0.4027 -0.5748 -0.5401
C2 C -0.4155(9) -0.6664(6) -0.5923(8)
H2 H -0.4582 -0.6845 -0.5754
C3 C -0.3855(11) -0.7045(8) -0.6408(9)
H3 H -0.4112 -0.7464 -0.6589
C4 C -0.3185(10) -0.6798(7) -0.6613(9)
H4 H -0.2954 -0.7059 -0.6905
C5 C -0.2854(8) -0.6147(6) -0.6376(7)
C6 C -0.2149(8) -0.5820(6) -0.6580(6)
C7 C -0.1750(9) -0.6117(7) -0.7040(7)
H5 H -0.1899 -0.6556 -0.7228
C8 C -0.1128(8) -0.5739(7) -0.7210(7)
H6 H -0.0850 -0.5922 -0.7516
C9 C -0.0918(8) -0.5089(8) -0.6927(8)
H7 H -0.0514 -0.4826 -0.7056
C10 C -0.1305(8) -0.4835(8) -0.6455(8)
H8 H -0.1138 -0.4404 -0.6248
C11 C 0.2706(8) -0.1418(7) -0.2757(8)
H9 H 0.2899 -0.1830 -0.2513
C12 C 0.3110(10) -0.1176(8) -0.3241(9)
H10 H 0.3582 -0.1410 -0.3299
C13 C 0.2802(9) -0.0589(7) -0.3629(8)
H11 H 0.3045 -0.0424 -0.3968
C14 C 0.2122(9) -0.0250(7) -0.3505(8)
H12 H 0.1911 0.0155 -0.3758
C15 C 0.1746(7) -0.0499(6) -0.3010(7)
C16 C 0.1028(7) -0.0164(6) -0.2830(7)
C17 C 0.0649(9) 0.0449(7) -0.3119(8)
H13 H 0.0843 0.0685 -0.3453
C18 C -0.0016(9) 0.0712(7) -0.2912(8)
H14 H -0.0282 0.1123 -0.3110
C19 C -0.0289(9) 0.0355(7) -0.2401(9)
H15 H -0.0744 0.0524 -0.2261
C20 C 0.0113(8) -0.0240(7) -0.2112(7)
H16 H -0.0058 -0.0470 -0.1762
C21 C -0.3263(11) -0.2060(8) -0.0411(11)
H17 H -0.3191 -0.1594 -0.0480
C22 C -0.3874(12) -0.2264(9) -0.0101(15)
H18 H -0.4177 -0.1939 0.0070
C23 C -0.4035(10) -0.2955(8) -0.0046(11)
H19 H -0.4481 -0.3100 0.0121
C24 C -0.3521(8) -0.3421(7) -0.0243(8)
H20 H -0.3597 -0.3889 -0.0193
C25 C -0.2888(7) -0.3187(6) -0.0516(7)
C26 C -0.2255(7) -0.3638(6) -0.0693(6)
C27 C -0.2242(8) -0.4335(6) -0.0623(7)
H21 H -0.2652 -0.4559 -0.0466
C28 C -0.1604(9) -0.4701(6) -0.0792(7)
H22 H -0.1592 -0.5177 -0.0756
C29 C -0.0995(8) -0.4372(6) -0.1008(7)
H23 H -0.0544 -0.4614 -0.1091
C30 C -0.1063(7) -0.3664(6) -0.1102(7)
H24 H -0.0677 -0.3438 -0.1286
W8C W 0.31144(3) -0.27045(2) -0.10134(3)
W10C W 0.03989(3) -0.19921(2) -0.06711(2)
Cu1C Cu 0.25040(8) -0.00911(7) -0.05714(8)
O30C O -0.2620(5) -0.3037(4) -0.6320(4)
O39C O -0.5731(4) -0.2897(4) -0.6139(4)
O40C O -0.4263(4) -0.3472(4) -0.6314(4)
O42C O -0.3028(4) -0.3855(3) -0.5940(3)
O2 O -0.8700(7) -0.3979(6) -0.6969(7)
O44 O -0.5011(18) -0.7939(17) -0.7935(17)
loop_
_geom_bond_atom_site_label_1
_geom_bond_atom_site_label_2
_geom_bond_site_symmetry_1
_geom_bond_site_symmetry_2
W1 O1 1_555 1_555
W2 O3 1_555 1_555
W3 O4 1_555 1_555
W4 O13 1_555 1_555
W5 O14 1_555 1_555
W6 O9 1_555 1_555
W7 O10 1_555 1_555
W8 O12 1_555 1_555
W9 O22 1_555 1_555
W10 O14 1_555 1_555
W11 O6 1_555 1_555
P1 O7 1_555 1_555
Cu1 O28 1_555 1_555
Cu2 O8 1_555 1_555
Cu3 O21 1_555 1_555
O3 W1 1_555 1_555
O4 W2 1_555 1_555
O5 W1 1_555 1_555
O6 W1 1_555 1_555
O7 W1 1_555 1_555
O8 W2 1_555 1_555
O9 W2 1_555 1_555
O10 W2 1_555 1_555
O11 W3 1_555 1_555
O12 W3 1_555 1_555
O15 W4 1_555 1_555
O16 W1 1_555 1_555
O17 W4 1_555 1_555
O18 W4 1_555 1_555
O19 W5 1_555 1_555
O20 W5 1_555 1_555
O21 W4 1_555 1_555
O22 W5 1_555 1_555
O23 W6 1_555 1_555
O24 W6 1_555 1_555
O25 W7 1_555 1_555
O26 W7 1_555 1_555
O27 W7 1_555 1_555
O28 W3 1_555 1_555
O29 W7 1_555 1_555
O30 Cu2 1_555 1_555
O31 W8 1_555 1_555
O32 W8 1_555 1_555
O33 W9 1_555 1_555
O34 W9 1_555 1_555
O35 W11 1_555 1_555
O36 W11 1_555 1_555
O37 W10 1_555 1_555
O38 W10 1_555 1_555
O39 Cu3 1_555 1_555
O40 Cu2 1_555 1_555
O41 Cu1 1_555 1_555
O42 Cu2 1_555 1_555
O43 Cu3 1_555 1_555
N1 Cu1 1_555 1_555
N2 Cu1 1_555 1_555
N3 Cu2 1_555 1_555
N4 Cu2 1_555 1_555
N5 Cu3 1_555 1_555
N6 Cu3 1_555 1_555
C1 N1 1_555 1_555
H1 C1 1_555 1_555
C2 C1 1_555 1_555
H2 C2 1_555 1_555
C3 C2 1_555 1_555
H3 C3 1_555 1_555
C4 C3 1_555 1_555
H4 C4 1_555 1_555
C5 N1 1_555 1_555
C6 N2 1_555 1_555
C7 C6 1_555 1_555
H5 C7 1_555 1_555
C8 C7 1_555 1_555
H6 C8 1_555 1_555
C9 C8 1_555 1_555
H7 C9 1_555 1_555
C10 N2 1_555 1_555
H8 C10 1_555 1_555
C11 N3 1_555 1_555
H9 C11 1_555 1_555
C12 C11 1_555 1_555
H10 C12 1_555 1_555
C13 C12 1_555 1_555
H11 C13 1_555 1_555
C14 C13 1_555 1_555
H12 C14 1_555 1_555
C15 N3 1_555 1_555
C16 N4 1_555 1_555
C17 C16 1_555 1_555
H13 C17 1_555 1_555
C18 C17 1_555 1_555
H14 C18 1_555 1_555
C19 C18 1_555 1_555
H15 C19 1_555 1_555
C20 N4 1_555 1_555
H16 C20 1_555 1_555
C21 N5 1_555 1_555
H17 C21 1_555 1_555
C22 C21 1_555 1_555
H18 C22 1_555 1_555
C23 C22 1_555 1_555
H19 C23 1_555 1_555
C24 C23 1_555 1_555
H20 C24 1_555 1_555
C25 N5 1_555 1_555
C26 N6 1_555 1_555
C27 C26 1_555 1_555
H21 C27 1_555 1_555
C28 C27 1_555 1_555
H22 C28 1_555 1_555
C29 C28 1_555 1_555
H23 C29 1_555 1_555
C30 N6 1_555 1_555
H24 C30 1_555 1_555
W8C O30 1_555 1_555
W10C O39 1_555 1_555
Cu1C O42 1_555 1_555
O30C W8 1_555 1_555
O39C W10 1_555 1_555
O40C W10 1_555 1_555
O42C Cu1 1_555 1_555
W2 O7 1_555 1_555
W3 O5 1_555 1_555
W3 O7 1_555 1_555
W4 O16 1_555 1_555
W5 O17 1_555 1_555
W5 O18 1_555 1_555
W6 O17 1_555 1_555
W6 O20 1_555 1_555
W6 O21 1_555 1_555
W7 O24 1_555 1_555
W8 O27 1_555 1_555
W8 O29 1_555 1_555
W9 O26 1_555 1_555
W9 O29 1_555 1_555
W9 O32 1_555 1_555
W10 O34 1_555 1_555
W11 O15 1_555 1_555
W11 O37 1_555 1_555
W11 O38 1_555 1_555
P1 O17 1_555 1_555
P1 O29 1_555 1_555
P1 O38 1_555 1_555
Cu1 O36 1_555 1_555
O40 W10C 1_555 1_555
C4 C5 1_555 1_555
C5 C6 1_555 1_555
C9 C10 1_555 1_555
C14 C15 1_555 1_555
C15 C16 1_555 1_555
C19 C20 1_555 1_555
C24 C25 1_555 1_555
C25 C26 1_555 1_555
C29 C30 1_555 1_555

#END
