
#######################################################################
#
#                 Cambridge Crystallographic Data Centre
#                                CCDC 
#
#######################################################################
#
# If this CIF has been generated from an entry in the Cambridge 
# Structural Database, then it will include bibliographic, chemical, 
# crystal, experimental, refinement or atomic coordinate data resulting 
# from the CCDC's data processing and validation procedures.
#
#######################################################################

data_POLFUT
_symmetry_cell_setting           monoclinic
_symmetry_space_group_name_H-M   'P 21/c'
_symmetry_Int_Tables_number      14
_space_group_name_Hall           '-P 2ybc'
loop_
_symmetry_equiv_pos_site_id
_symmetry_equiv_pos_as_xyz
1 x,y,z
2 -x,1/2+y,1/2-z
3 -x,-y,-z
4 x,1/2-y,1/2+z
_cell_length_a                   7.7077(4)
_cell_length_b                   19.0982(11)
_cell_length_c                   17.3854(10)
_cell_angle_alpha                90
_cell_angle_beta                 101.7070(10)
_cell_angle_gamma                90
_cell_volume                     2505.95
loop_
_atom_site_label
_atom_site_type_symbol
_atom_site_fract_x
_atom_site_fract_y
_atom_site_fract_z
C1 C -0.1283(3) 1.06243(12) 0.71651(13)
H1 H -0.0694 1.1010 0.7015
C2 C -0.2938(4) 0.99741(15) 0.77130(19)
H2 H -0.3736 0.9833 0.8018
C3 C -0.2146(4) 0.95444(14) 0.72771(19)
H3 H -0.2282 0.9062 0.7228
C4 C -0.0017(3) 0.97361(11) 0.63910(13)
C5 C -0.0704(3) 0.92638(14) 0.58099(16)
H4 H -0.1851 0.9095 0.5769
C6 C 0.0316(3) 0.90426(13) 0.52895(15)
H5 H -0.0132 0.8718 0.4901
C7 C 0.1993(3) 0.93041(13) 0.53493(14)
C8 C 0.2697(3) 0.97711(14) 0.59305(16)
H6 H 0.3843 0.9939 0.5968
C9 C 0.1684(3) 0.99899(14) 0.64602(15)
H7 H 0.2147 1.0304 0.6858
C10 C 0.4240(3) 0.86369(12) 0.49210(14)
C11 C 0.4647(3) 0.82573(13) 0.56103(14)
H8 H 0.3986 0.8315 0.5998
C12 C 0.6049(3) 0.77906(12) 0.57185(14)
H9 H 0.6323 0.7527 0.6177
C13 C 0.7039(3) 0.77174(11) 0.51453(13)
C14 C 0.6573(3) 0.80753(12) 0.44390(13)
H10 H 0.7209 0.8008 0.4044
C15 C 0.5163(3) 0.85305(12) 0.43273(13)
H11 H 0.4830 0.8767 0.3852
C16 C 0.9694(3) 0.71947(12) 0.59904(13)
H12 H 0.9495 0.7376 0.6461
C17 C 1.0856(4) 0.66575(16) 0.51424(15)
H13 H 1.1637 0.6391 0.4920
C18 C 0.9351(4) 0.69492(15) 0.47413(15)
H14 H 0.8907 0.6923 0.4203
C19 C 1.6129(3) 0.59301(12) 0.63453(16)
C20 C 1.7195(3) 0.55806(13) 0.58099(17)
H15 H 1.8086 0.5906 0.5704
H16 H 1.6415 0.5470 0.5313
C21 C 1.8101(3) 0.49155(13) 0.61598(17)
H17 H 1.8901 0.4754 0.5833
H18 H 1.8802 0.5018 0.6677
C22 C 1.6818(4) 0.43475(14) 0.62289(18)
H19 H 1.6269 0.4192 0.5705
H20 H 1.5891 0.4540 0.6469
C23 C 1.7617(4) 0.37118(15) 0.67068(17)
H21 H 1.8536 0.3511 0.6468
H22 H 1.8159 0.3861 0.7234
C24 C 1.6271(4) 0.31763(16) 0.6749(3)
H23 H 1.5776 0.3020 0.6219
H24 H 1.5321 0.3394 0.6953
C25 C 1.6897(4) 0.25380(15) 0.72453(18)
N1 N 1.1068(3) 0.68106(11) 0.59268(11)
N2 N 0.8607(3) 0.72926(10) 0.52876(11)
N3 N -0.2397(3) 1.06530(10) 0.76412(12)
N4 N -0.1097(2) 0.99632(10) 0.69200(11)
O1 O 1.4521(2) 0.60584(10) 0.60510(11)
O2 O 1.6809(3) 0.60771(13) 0.70285(13)
O3 O 1.5814(3) 0.22762(10) 0.76208(12)
O4 O 1.8382(3) 0.22864(11) 0.72600(12)
O5 O 0.2903(2) 0.91291(10) 0.47615(10)
Zn1 Zn 1.31343(3) 0.647374(13) 0.676429(15)
N3A N 1.2397(3) 0.56530(10) 0.73588(12)
O3A O 1.4186(3) 0.72762(10) 0.73792(12)
Zn1A Zn -0.31343(3) 1.147374(13) 0.823571(15)
Zn1A_2 Zn 1.68657(3) 0.147374(13) 0.823571(15)
O6 O 0.1950(4) 0.27075(19) 0.72143(15)
H25 H 0.1033 0.2503 0.6958
H26 H 0.2828 0.2621 0.7002
loop_
_geom_bond_atom_site_label_1
_geom_bond_atom_site_label_2
_geom_bond_site_symmetry_1
_geom_bond_site_symmetry_2
C1 H1 1_555 1_555
C2 H2 1_555 1_555
C3 C2 1_555 1_555
H3 C3 1_555 1_555
C4 C5 1_555 1_555
C5 H4 1_555 1_555
C6 C5 1_555 1_555
H5 C6 1_555 1_555
C7 C6 1_555 1_555
C8 C7 1_555 1_555
H6 C8 1_555 1_555
C9 C4 1_555 1_555
H7 C9 1_555 1_555
C10 C11 1_555 1_555
C11 H8 1_555 1_555
C12 C11 1_555 1_555
H9 C12 1_555 1_555
C13 C12 1_555 1_555
C14 C13 1_555 1_555
H10 C14 1_555 1_555
C15 C10 1_555 1_555
H11 C15 1_555 1_555
C16 H12 1_555 1_555
C17 H13 1_555 1_555
C18 C17 1_555 1_555
H14 C18 1_555 1_555
C19 C20 1_555 1_555
C20 H15 1_555 1_555
H16 C20 1_555 1_555
C21 C20 1_555 1_555
H17 C21 1_555 1_555
H18 C21 1_555 1_555
C22 C21 1_555 1_555
H19 C22 1_555 1_555
H20 C22 1_555 1_555
C23 C22 1_555 1_555
H21 C23 1_555 1_555
H22 C23 1_555 1_555
C24 C23 1_555 1_555
H23 C24 1_555 1_555
H24 C24 1_555 1_555
C25 C24 1_555 1_555
N1 C16 1_555 1_555
N2 C13 1_555 1_555
N3 C1 1_555 1_555
N4 C1 1_555 1_555
O1 C19 1_555 1_555
O2 C19 1_555 1_555
O3 C25 1_555 1_555
O4 C25 1_555 1_555
O5 C7 1_555 1_555
Zn1 N1 1_555 1_555
O6 H25 1_555 1_555
H26 O6 1_555 1_555
N3A Zn1 1_555 1_555
O3A Zn1 1_555 1_555
Zn1A N3 1_555 1_555
Zn1A_2 O3 1_555 1_555
C2 N3 1_555 1_555
C3 N4 1_555 1_555
C4 N4 1_555 1_555
C8 C9 1_555 1_555
C10 O5 1_555 1_555
C14 C15 1_555 1_555
C16 N2 1_555 1_555
C17 N1 1_555 1_555
C18 N2 1_555 1_555
O1 Zn1 1_555 1_555

#END
