
#######################################################################
#
#                 Cambridge Crystallographic Data Centre
#                                CCDC 
#
#######################################################################
#
# If this CIF has been generated from an entry in the Cambridge 
# Structural Database, then it will include bibliographic, chemical, 
# crystal, experimental, refinement or atomic coordinate data resulting 
# from the CCDC's data processing and validation procedures.
#
#######################################################################

data_POLGII
_symmetry_cell_setting           monoclinic
_symmetry_space_group_name_H-M   'P 21/c'
_symmetry_Int_Tables_number      14
_space_group_name_Hall           '-P 2ybc'
loop_
_symmetry_equiv_pos_site_id
_symmetry_equiv_pos_as_xyz
1 x,y,z
2 -x,1/2+y,1/2-z
3 -x,-y,-z
4 x,1/2-y,1/2+z
_cell_length_a                   10.937(2)
_cell_length_b                   22.262(4)
_cell_length_c                   9.8788(19)
_cell_angle_alpha                90
_cell_angle_beta                 105.262(4)
_cell_angle_gamma                90
_cell_volume                     2320.46
loop_
_atom_site_label
_atom_site_type_symbol
_atom_site_fract_x
_atom_site_fract_y
_atom_site_fract_z
Co1 Co 0.35245(8) 0.47524(4) 1.04983(10)
C1 C 0.1894(7) 0.4219(3) 0.7748(8)
C2 C 0.1323(7) 0.3798(3) 0.6748(8)
C3 C 0.1577(7) 0.3201(3) 0.7058(8)
C4 C 0.2377(6) 0.3040(3) 0.8354(7)
C5 C 0.2878(7) 0.3492(3) 0.9280(8)
C6 C 0.2675(6) 0.2405(3) 0.8727(7)
C7 C 0.3501(7) 0.1643(3) 0.9829(8)
C8 C 0.4227(6) 0.1219(3) 1.0880(7)
C9 C 0.4132(7) 0.0610(3) 1.0668(8)
H1 H 0.3631 0.0452 0.9834
C10 C 0.4796(8) 0.0237(3) 1.1718(8)
C11 C 0.5633(7) 0.1035(3) 1.3122(8)
C12 C 0.5024(6) 0.1431(3) 1.2133(8)
C13 C 0.3861(7) 0.5770(3) 0.8513(7)
C14 C 0.3035(6) 0.6255(3) 0.7711(7)
C15 C 0.1747(7) 0.6199(3) 0.7361(8)
C16 C 0.0971(7) 0.6661(3) 0.6736(7)
C17 C 0.1499(7) 0.7188(3) 0.6445(8)
C18 C 0.2782(8) 0.7241(4) 0.6706(11)
C19 C 0.3567(7) 0.6778(3) 0.7329(9)
C20 C 0.0960(6) 0.8228(3) 0.6252(8)
C21 C 0.1499(8) 0.8390(4) 0.7631(10)
C22 C 0.1684(7) 0.8985(4) 0.7963(9)
C23 C 0.1437(6) 0.9426(3) 0.6941(7)
C24 C 0.0889(7) 0.9249(3) 0.5597(8)
C25 C 0.0620(7) 0.8653(3) 0.5236(8)
C26 C 0.1730(7) 1.0077(3) 0.7333(9)
N1 N 0.2662(5) 0.4081(2) 0.9000(6)
N2 N 0.3552(5) 0.2233(2) 0.9908(6)
N3 N 0.2104(6) 0.1964(3) 0.7918(7)
N4 N 0.2648(6) 0.1478(3) 0.8649(7)
H2 H 0.2470 0.1112 0.8393
N5 N 0.5544(5) 0.0435(2) 1.2955(6)
O1 O 0.3315(5) 0.5345(2) 0.8969(5)
O2 O 0.5042(4) 0.58164(19) 0.8712(5)
O3 O 0.0676(5) 0.7639(2) 0.5828(6)
O4 O 0.2216(5) 1.0382(2) 0.6520(6)
O5 O 0.1499(7) 1.0288(3) 0.8364(7)
H3 H 0.165(5) 0.460(3) 0.764(6)
H4 H 0.048(6) 0.394(3) 0.587(7)
H5 H 0.128(6) 0.287(3) 0.643(6)
H6 H 0.339(7) 0.340(3) 1.020(8)
H7 H 0.456(8) -0.023(4) 1.150(8)
H8 H 0.644(6) 0.118(3) 1.403(7)
H9 H 0.509(6) 0.189(3) 1.234(7)
H10 H 0.134(5) 0.589(3) 0.752(6)
H11 H 0.300(7) 0.760(4) 0.637(8)
H12 H 0.161(8) 0.810(4) 0.834(9)
H13 H 0.204(6) 0.907(3) 0.876(7)
H14 H 0.076(5) 0.949(2) 0.496(6)
H15 H 0.010(5) 0.848(3) 0.431(6)
H16 H 0.4620 0.6825 0.7752
H17 H 0.0004 0.6590 0.6365
Co1A Co 0.64755(8) -0.02476(4) 1.45017(10)
Co1B Co 0.64755(8) 0.52476(4) 0.95017(10)
Co1C Co 0.35245(8) 1.02476(4) 0.54983(10)
N5A N 0.4456(5) 0.5435(2) 1.2045(6)
O2B O 0.4958(4) 0.41836(19) 1.1288(5)
O4C O 0.2216(5) 0.4618(2) 1.1520(6)
O6 O 0.9573(18) 0.0147(15) 0.960(3)
O6B O 1.0427(18) -0.0147(15) 1.040(3)
loop_
_geom_bond_atom_site_label_1
_geom_bond_atom_site_label_2
_geom_bond_site_symmetry_1
_geom_bond_site_symmetry_2
Co1 N1 1_555 1_555
C1 C2 1_555 1_555
C2 C3 1_555 1_555
C3 C4 1_555 1_555
C4 C5 1_555 1_555
C5 N1 1_555 1_555
C6 C4 1_555 1_555
C7 C8 1_555 1_555
C8 C9 1_555 1_555
C9 H1 1_555 1_555
C10 C9 1_555 1_555
C11 C12 1_555 1_555
C12 C8 1_555 1_555
C13 C14 1_555 1_555
C14 C15 1_555 1_555
C15 C16 1_555 1_555
C16 C17 1_555 1_555
C17 C18 1_555 1_555
C18 C19 1_555 1_555
C19 C14 1_555 1_555
C20 C21 1_555 1_555
C21 C22 1_555 1_555
C22 C23 1_555 1_555
C23 C24 1_555 1_555
C24 C25 1_555 1_555
C25 C20 1_555 1_555
C26 C23 1_555 1_555
N1 C1 1_555 1_555
N2 C6 1_555 1_555
N3 C6 1_555 1_555
N4 C7 1_555 1_555
H2 N4 1_555 1_555
N5 C10 1_555 1_555
O1 Co1 1_555 1_555
O2 C13 1_555 1_555
O3 C17 1_555 1_555
O4 C26 1_555 1_555
O5 C26 1_555 1_555
H3 C1 1_555 1_555
H4 C2 1_555 1_555
H5 C3 1_555 1_555
H6 C5 1_555 1_555
H7 C10 1_555 1_555
H8 C11 1_555 1_555
H9 C12 1_555 1_555
H10 C15 1_555 1_555
H11 C18 1_555 1_555
H12 C21 1_555 1_555
H13 C22 1_555 1_555
H14 C24 1_555 1_555
H15 C25 1_555 1_555
H16 C19 1_555 1_555
H17 C16 1_555 1_555
Co1A N5 1_555 1_555
Co1B O2 1_555 1_555
Co1C O4 1_555 1_555
N5A Co1 1_555 1_555
O2B Co1 1_555 1_555
O4C Co1 1_555 1_555
C7 N2 1_555 1_555
C11 N5 1_555 1_555
C13 O1 1_555 1_555
C20 O3 1_555 1_555
N3 N4 1_555 1_555

#END
