
#######################################################################
#
#                 Cambridge Crystallographic Data Centre
#                                CCDC 
#
#######################################################################
#
# If this CIF has been generated from an entry in the Cambridge 
# Structural Database, then it will include bibliographic, chemical, 
# crystal, experimental, refinement or atomic coordinate data resulting 
# from the CCDC's data processing and validation procedures.
#
#######################################################################

data_POLGON
_symmetry_cell_setting           monoclinic
_symmetry_space_group_name_H-M   'P 21/c'
_symmetry_Int_Tables_number      14
_space_group_name_Hall           '-P 2ybc'
loop_
_symmetry_equiv_pos_site_id
_symmetry_equiv_pos_as_xyz
1 x,y,z
2 -x,1/2+y,1/2-z
3 -x,-y,-z
4 x,1/2-y,1/2+z
_cell_length_a                   8.6637(9)
_cell_length_b                   13.8357(13)
_cell_length_c                   10.6470(11)
_cell_angle_alpha                90.00
_cell_angle_beta                 106.3640(10)
_cell_angle_gamma                90.00
_cell_volume                     1224.54
loop_
_atom_site_label
_atom_site_type_symbol
_atom_site_fract_x
_atom_site_fract_y
_atom_site_fract_z
Zn1 Zn 0.0000 0.5000 -0.5000
O1 O -0.13061(19) 0.49165(8) -0.69534(14)
N1 N 0.04599(16) 0.35672(9) -0.54109(13)
C1 C -0.1190(2) 0.41254(12) -0.75275(16)
O2 O -0.1683(2) 0.39711(10) -0.87097(13)
N2 N 0.27939(18) 0.04023(11) -0.42984(14)
H1 H 0.2108 0.0160 -0.5001
C2 C -0.02894(19) 0.33098(11) -0.66510(15)
O3 O 0.35146(16) 0.16915(9) -0.29656(13)
N3 N 0.22337(18) -0.05146(11) -0.06138(14)
C3 C -0.0214(2) 0.23832(13) -0.71017(17)
H2 H 0.0788 0.7787 -0.2027
C4 C 0.0718(2) 0.16976(13) -0.62613(17)
H3 H -0.0786 0.8946 -0.3448
C5 C 0.15486(19) 0.19690(12) -0.49891(15)
C6 C -0.13559(19) 0.70894(12) -0.53958(15)
H4 H -0.1884 0.6904 -0.6271
C7 C 0.2692(2) 0.13365(12) -0.40023(16)
C8 C 0.4031(2) -0.02184(16) -0.3468(2)
H5 H -0.4181 1.0784 -0.6009
H6 H -0.5058 0.9856 -0.6780
C9 C 0.3690(2) -0.05812(13) -0.22302(16)
C10 C 0.4635(3) -0.13062(19) -0.1523(2)
H7 H -0.5432 1.1605 -0.8153
C11 C 0.4425(3) -0.1598(2) -0.0346(3)
H8 H -0.5095 1.2083 -1.0161
C12 C 0.3233(2) -0.11769(17) 0.0084(2)
H9 H 0.3114 -0.1364 0.0911
C13 C 0.2495(2) -0.02188(14) -0.17414(19)
H10 H 0.1814 0.0270 -0.2230
Zn1C Zn 0.0000 0.0000 0.0000
Zn1C_2 Zn 0.0000 1.0000 -1.0000
O1B O 0.13061(19) 0.50835(8) -0.30466(14)
N1B N -0.04599(16) 0.64328(9) -0.45891(13)
C1B C 0.1190(2) 0.58746(12) -0.24725(16)
O2B O 0.1683(2) 0.60289(10) -0.12903(13)
N2B N -0.27939(18) 0.95977(11) -0.57016(14)
H1B H -0.2108 0.9840 -0.4999
C2B C 0.02894(19) 0.66902(11) -0.33490(15)
O3B O -0.35146(16) 0.83085(9) -0.70344(13)
N3C N 0.22337(18) 0.55146(11) -0.56138(14)
N3A N -0.22337(18) 0.44854(11) -0.43862(14)
N3B N -0.22337(18) 1.05146(11) -0.93862(14)
C3B C 0.0214(2) 0.76168(13) -0.28983(17)
H2B H -0.0788 0.2213 -0.7973
C4B C -0.0718(2) 0.83024(13) -0.37387(17)
H3B H 0.0786 0.1054 -0.6552
C5B C -0.15486(19) 0.80310(12) -0.50109(15)
C6B C 0.13559(19) 0.29106(12) -0.46042(15)
H4B H 0.1884 0.3096 -0.3729
C7B C -0.2692(2) 0.86635(12) -0.59977(16)
C8B C -0.4031(2) 1.02184(16) -0.6532(2)
H5B H 0.4181 -0.0784 -0.3991
H6B H 0.5058 0.0144 -0.3220
C9B C -0.3690(2) 1.05812(13) -0.77698(16)
C10B C -0.4635(3) 1.13062(19) -0.8477(2)
H7B H 0.5432 -0.1605 -0.1847
C11B C -0.4425(3) 1.1598(2) -0.9654(3)
H8B H 0.5095 -0.2083 0.0161
C12B C -0.3233(2) 1.11769(17) -1.0084(2)
H9B H -0.3114 1.1364 -1.0911
C13B C -0.2495(2) 1.02188(14) -0.82586(19)
H10B H -0.1814 0.9730 -0.7770
loop_
_geom_bond_atom_site_label_1
_geom_bond_atom_site_label_2
_geom_bond_site_symmetry_1
_geom_bond_site_symmetry_2
Zn1 O1 1_555 1_555
O1 C1 1_555 1_555
N1 Zn1 1_555 1_555
C1 O2 1_555 1_555
N2 H1 1_555 1_555
C2 N1 1_555 1_555
O3 C7 1_555 1_555
N3 C12 1_555 1_555
C3 C2 1_555 1_555
H2 C3B 1_555 1_555
C4 C3 1_555 1_555
H3 C4B 1_555 1_555
C5 C4 1_555 1_555
C6 H4 1_555 1_555
C7 N2 1_555 1_555
C8 N2 1_555 1_555
H5 C8B 1_555 1_555
H6 C8B 1_555 1_555
C9 C8 1_555 1_555
C10 C9 1_555 1_555
H7 C10B 1_555 1_555
C11 C10 1_555 1_555
H8 C11B 1_555 1_555
C12 C11 1_555 1_555
H9 C12 1_555 1_555
C13 N3 1_555 1_555
H10 C13 1_555 1_555
Zn1C N3 1_555 1_555
Zn1C_2 N3B 1_555 1_555
O1B Zn1 1_555 1_555
N1B Zn1 1_555 1_555
C1B O1B 1_555 1_555
O2B C1B 1_555 1_555
N2B H1B 1_555 1_555
C2B N1B 1_555 1_555
O3B C7B 1_555 1_555
N3C Zn1 1_555 1_555
N3A Zn1 1_555 1_555
N3B C12B 1_555 1_555
C3B C2B 1_555 1_555
H2B C3 1_555 1_555
C4B C3B 1_555 1_555
H3B C4 1_555 1_555
C5B C6 1_555 1_555
C6B N1 1_555 1_555
H4B C6B 1_555 1_555
C7B N2B 1_555 1_555
C8B N2B 1_555 1_555
H5B C8 1_555 1_555
H6B C8 1_555 1_555
C9B C8B 1_555 1_555
C10B C9B 1_555 1_555
H7B C10 1_555 1_555
C11B C10B 1_555 1_555
H8B C11 1_555 1_555
C12B C11B 1_555 1_555
H9B C12B 1_555 1_555
C13B N3B 1_555 1_555
H10B C13B 1_555 1_555
C1 C2 1_555 1_555
C5 C7 1_555 1_555
C5 C6B 1_555 1_555
C6 N1B 1_555 1_555
C9 C13 1_555 1_555
C1B C2B 1_555 1_555
C4B C5B 1_555 1_555
C5B C7B 1_555 1_555
C9B C13B 1_555 1_555

#END
