
#######################################################################
#
#                 Cambridge Crystallographic Data Centre
#                                CCDC 
#
#######################################################################
#
# If this CIF has been generated from an entry in the Cambridge 
# Structural Database, then it will include bibliographic, chemical, 
# crystal, experimental, refinement or atomic coordinate data resulting 
# from the CCDC's data processing and validation procedures.
#
#######################################################################

data_POLGOO
_symmetry_cell_setting           monoclinic
_symmetry_space_group_name_H-M   'P 21'
_symmetry_Int_Tables_number      4
_space_group_name_Hall           'P 2yb'
loop_
_symmetry_equiv_pos_site_id
_symmetry_equiv_pos_as_xyz
1 x,y,z
2 -x,1/2+y,-z
_cell_length_a                   9.484(11)
_cell_length_b                   17.52(2)
_cell_length_c                   11.450(13)
_cell_angle_alpha                90
_cell_angle_beta                 113.39(2)
_cell_angle_gamma                90
_cell_volume                     1746.19
loop_
_atom_site_label
_atom_site_type_symbol
_atom_site_fract_x
_atom_site_fract_y
_atom_site_fract_z
Zn1 Zn 0.74437(12) 0.28102(6) 0.76933(9)
S1 S 0.9037(3) 0.30705(12) 0.5561(2)
S2 S 0.6042(3) 0.17883(14) 0.9354(3)
O1 O 0.8534(8) 0.3633(4) 0.4540(7)
O2 O 1.0255(9) 0.3315(4) 0.6742(6)
O3 O 0.4759(8) 0.2276(4) 0.8562(7)
O4 O 0.6629(8) 0.1937(4) 1.0710(7)
N1 N 0.7638(7) 0.2805(5) 0.5977(6)
N2 N 0.5300(11) 0.2319(4) 0.5623(8)
N3 N 0.5940(10) 0.2513(4) 0.3814(8)
N4 N 1.0563(11) 0.0112(5) 0.3782(10)
H1 H 1.1073 -0.0232 0.4319
H2 H 1.0188 0.0014 0.2980
N5 N 0.7349(7) 0.1927(4) 0.8764(6)
N6 N 0.9751(11) 0.1814(5) 0.8800(8)
N7 N 0.9069(10) 0.1002(4) 1.0187(8)
N8 N 0.4081(9) -0.1479(4) 0.8415(9)
H3 H 0.3668 -0.1641 0.7643
H4 H 0.4233 -0.1789 0.9036
N9 N 0.5837(9) 0.3745(4) 0.7176(8)
N10 N -0.0976(9) 0.3471(4) -0.0743(7)
C1 C 0.6300(11) 0.2527(5) 0.5101(10)
C2 C 0.3892(14) 0.2087(6) 0.4858(14)
H5 H 0.3195 0.1950 0.5207
C3 C 0.3450(14) 0.2046(6) 0.3538(12)
H6 H 0.2466 0.1894 0.3002
C4 C 0.4520(13) 0.2240(6) 0.3071(11)
H7 H 0.4269 0.2183 0.2204
C5 C 0.9606(11) 0.2263(5) 0.4976(9)
C6 C 0.9144(12) 0.2076(5) 0.3731(10)
H8 H 0.8592 0.2439 0.3132
C7 C 0.9426(12) 0.1394(6) 0.3291(11)
H9 H 0.9043 0.1288 0.2425
C8 C 1.0341(12) 0.0844(6) 0.4219(12)
C9 C 1.0896(11) 0.1031(7) 0.5454(12)
H10 H 1.1515 0.0681 0.6047
C10 C 1.0588(11) 0.1722(6) 0.5887(10)
H11 H 1.1007 0.1836 0.6751
C11 C 0.8772(12) 0.1544(5) 0.9276(10)
C12 C 1.1186(13) 0.1500(7) 0.9270(12)
H12 H 1.1909 0.1671 0.8970
C13 C 1.1580(12) 0.0941(7) 1.0169(11)
H13 H 1.2557 0.0727 1.0476
C14 C 1.0529(13) 0.0705(6) 1.0603(11)
H14 H 1.0803 0.0323 1.1216
C15 C 0.5445(10) 0.0812(5) 0.9098(9)
C16 C 0.5677(9) 0.0336(5) 1.0119(9)
H15 H 0.6155 0.0522 1.0944
C17 C 0.5193(12) -0.0426(5) 0.9911(11)
H16 H 0.5327 -0.0743 1.0598
C18 C 0.4504(10) -0.0713(5) 0.8658(10)
C19 C 0.4255(10) -0.0225(5) 0.7659(9)
H17 H 0.3771 -0.0403 0.6828
C20 C 0.4732(10) 0.0552(5) 0.7880(10)
H18 H 0.4558 0.0880 0.7198
C21 C 0.4291(11) 0.3709(5) 0.6881(9)
H19 H 0.3910 0.3310 0.7206
C22 C 0.6307(11) 0.4357(6) 0.6684(10)
H20 H 0.7353 0.4403 0.6881
C23 C 0.5357(11) 0.4912(5) 0.5921(8)
H21 H 0.5755 0.5320 0.5629
C24 C 0.3275(11) 0.4249(5) 0.6110(9)
H22 H 0.2234 0.4206 0.5940
C25 C 0.3766(11) 0.4844(5) 0.5595(9)
C26 C 0.2671(12) 0.5401(5) 0.4614(10)
H23 H 0.2157 0.5714 0.5024
H24 H 0.3264 0.5737 0.4308
C27 C 0.1467(13) 0.4986(6) 0.3484(10)
H25 H 0.0776 0.4720 0.3782
H26 H 0.0867 0.5366 0.2872
C28 C 0.2045(14) 0.4438(8) 0.2826(12)
H27 H 0.2496 0.4019 0.3409
H28 H 0.2874 0.4684 0.2676
C29 C 0.0987(13) 0.4099(6) 0.1591(11)
C30 C -0.0639(13) 0.3991(6) 0.1275(11)
H29 H -0.1073 0.4126 0.1844
C31 C 0.1464(13) 0.3882(7) 0.0664(13)
H30 H 0.2498 0.3938 0.0817
C32 C 0.0496(14) 0.3584(6) -0.0483(11)
H31 H 0.0882 0.3460 -0.1089
C33 C -0.1526(12) 0.3680(6) 0.0100(10)
H32 H -0.2570 0.3614 -0.0107
Zn1_2 Zn -0.25563(12) 0.28102(6) -0.23067(9)
N10_2 N 0.9024(9) 0.3471(4) 0.9257(7)
loop_
_geom_bond_atom_site_label_1
_geom_bond_atom_site_label_2
_geom_bond_site_symmetry_1
_geom_bond_site_symmetry_2
Zn1 N1 1_555 1_555
S1 O1 1_555 1_555
S2 O3 1_555 1_555
O2 S1 1_555 1_555
O4 S2 1_555 1_555
N1 S1 1_555 1_555
N2 C1 1_555 1_555
N3 C1 1_555 1_555
N4 H1 1_555 1_555
H2 N4 1_555 1_555
N5 Zn1 1_555 1_555
N6 C11 1_555 1_555
N7 C11 1_555 1_555
N8 H3 1_555 1_555
H4 N8 1_555 1_555
N9 Zn1 1_555 1_555
N10 C32 1_555 1_555
C1 N1 1_555 1_555
C2 N2 1_555 1_555
H5 C2 1_555 1_555
C3 C2 1_555 1_555
H6 C3 1_555 1_555
C4 N3 1_555 1_555
H7 C4 1_555 1_555
C5 S1 1_555 1_555
C6 C5 1_555 1_555
H8 C6 1_555 1_555
C7 C6 1_555 1_555
H9 C7 1_555 1_555
C8 N4 1_555 1_555
C9 C8 1_555 1_555
H10 C9 1_555 1_555
C10 C5 1_555 1_555
H11 C10 1_555 1_555
C11 N5 1_555 1_555
C12 N6 1_555 1_555
H12 C12 1_555 1_555
C13 C12 1_555 1_555
H13 C13 1_555 1_555
C14 N7 1_555 1_555
H14 C14 1_555 1_555
C15 S2 1_555 1_555
C16 C15 1_555 1_555
H15 C16 1_555 1_555
C17 C16 1_555 1_555
H16 C17 1_555 1_555
C18 N8 1_555 1_555
C19 C18 1_555 1_555
H17 C19 1_555 1_555
C20 C15 1_555 1_555
H18 C20 1_555 1_555
C21 N9 1_555 1_555
H19 C21 1_555 1_555
C22 N9 1_555 1_555
H20 C22 1_555 1_555
C23 C22 1_555 1_555
H21 C23 1_555 1_555
C24 C21 1_555 1_555
H22 C24 1_555 1_555
C25 C23 1_555 1_555
C26 C25 1_555 1_555
H23 C26 1_555 1_555
H24 C26 1_555 1_555
C27 C26 1_555 1_555
H25 C27 1_555 1_555
H26 C27 1_555 1_555
C28 C27 1_555 1_555
H27 C28 1_555 1_555
H28 C28 1_555 1_555
C29 C28 1_555 1_555
C30 C29 1_555 1_555
H29 C30 1_555 1_555
C31 C29 1_555 1_555
H30 C31 1_555 1_555
C32 C31 1_555 1_555
H31 C32 1_555 1_555
C33 N10 1_555 1_555
H32 C33 1_555 1_555
Zn1_2 N10 1_555 1_555
N10_2 Zn1 1_555 1_555
S2 N5 1_555 1_555
C3 C4 1_555 1_555
C7 C8 1_555 1_555
C9 C10 1_555 1_555
C13 C14 1_555 1_555
C17 C18 1_555 1_555
C19 C20 1_555 1_555
C24 C25 1_555 1_555
C30 C33 1_555 1_555

#END
