
#######################################################################
#
#                 Cambridge Crystallographic Data Centre
#                                CCDC 
#
#######################################################################
#
# If this CIF has been generated from an entry in the Cambridge 
# Structural Database, then it will include bibliographic, chemical, 
# crystal, experimental, refinement or atomic coordinate data resulting 
# from the CCDC's data processing and validation procedures.
#
#######################################################################

data_POLHEF
_symmetry_cell_setting           monoclinic
_symmetry_space_group_name_H-M   'C 2/m'
_symmetry_Int_Tables_number      12
_space_group_name_Hall           '-C 2y'
loop_
_symmetry_equiv_pos_site_id
_symmetry_equiv_pos_as_xyz
1 x,y,z
2 -x,y,-z
3 1/2+x,1/2+y,z
4 1/2-x,1/2+y,-z
5 -x,-y,-z
6 x,-y,z
7 1/2-x,1/2-y,-z
8 1/2+x,1/2-y,z
_cell_length_a                   12.4597(6)
_cell_length_b                   15.5833(9)
_cell_length_c                   16.2999(10)
_cell_angle_alpha                90
_cell_angle_beta                 90.258(6)
_cell_angle_gamma                90
_cell_volume                     3164.81
loop_
_atom_site_label
_atom_site_type_symbol
_atom_site_fract_x
_atom_site_fract_y
_atom_site_fract_z
C1 C 0.6702(4) 0.5000 0.1991(3)
H1 H 0.6108 0.5000 0.2335
C2 C 0.6555(4) 0.5000 0.1148(3)
C3 C 0.7468(4) 0.5000 0.0620(3)
C4 C 0.8493(4) 0.5000 0.0954(3)
H2 H 0.9082 0.5000 0.0606
C5 C 0.8663(4) 0.5000 0.1806(3)
C6 C 0.7740(4) 0.5000 0.2332(3)
C7 C 0.7917(4) 0.5000 0.3216(3)
H3 H 0.7324 0.5000 0.3560
C8 C 0.8927(5) 0.5000 0.3561(4)
C9 C 0.9821(5) 0.5000 0.2980(3)
C10 C 0.9689(4) 0.5000 0.2146(3)
H4 H 1.0286 0.5000 0.1806
C11 C 0.3899(3) 0.7821(3) -0.0750(3)
H5 H 0.3692 0.7994 -0.0228
C12 C 0.4149(3) 0.7822(3) -0.2080(2)
H6 H 0.4137 0.7985 -0.2629
C13 C 0.4596(3) 0.7102(2) -0.1755(2)
H7 H 0.4961 0.6684 -0.2050
C14 C 1.1290(3) 0.7809(3) 0.5332(2)
H8 H 1.1223 0.7924 0.4774
C15 C 1.1769(3) 0.7946(2) 0.6551(2)
H9 H 1.2096 0.8141 0.7030
C16 C 1.1234(3) 0.7165(2) 0.6444(2)
H10 H 1.1095 0.6764 0.6852
Cd1 Cd 1.0000 0.60876(2) 0.5000
Cd2 Cd 0.5000 0.60994(2) 0.0000
N1 N 0.4425(3) 0.7086(2) -0.09135(19)
N2 N 0.3715(3) 0.82616(19) -0.1422(2)
H11 H 0.3380 0.8743 -0.1449
N3 N 1.0960(3) 0.70964(19) 0.56579(18)
N4 N 1.1720(2) 0.83527(19) 0.58453(19)
H12 H 1.1928 0.8868 0.5743
O1 O 0.5546(3) 0.5000 0.0831(3)
O2 O 0.6672(2) 0.57814(17) -0.06327(16)
O3 O 0.8323(3) 0.5000 -0.0824(2)
O4 O 1.1882(3) 0.5000 0.2737(2)
O5 O 1.1194(2) 0.57798(17) 0.39119(16)
O6 O 0.9042(3) 0.5000 0.4372(2)
S1 S 1.11200(10) 0.5000 0.34153(8)
S2 S 0.72658(10) 0.5000 -0.04298(8)
O2E O 0.6672(2) 0.42186(17) -0.06327(16)
O5E O 1.1194(2) 0.42202(17) 0.39119(16)
C11A C 0.6101(3) 0.7821(3) 0.0750(3)
H5A H 0.6308 0.7994 0.0228
C12A C 0.5851(3) 0.7822(3) 0.2080(2)
H6A H 0.5863 0.7985 0.2629
C13A C 0.5404(3) 0.7102(2) 0.1755(2)
H7A H 0.5039 0.6684 0.2050
N1A N 0.5575(3) 0.7086(2) 0.09135(19)
N2A N 0.6285(3) 0.82616(19) 0.1422(2)
H11A H 0.6620 0.8743 0.1449
C14A C 0.8710(3) 0.7809(3) 0.4668(2)
H8A H 0.8777 0.7924 0.5226
C15A C 0.8231(3) 0.7946(2) 0.3449(2)
H9A H 0.7904 0.8141 0.2970
C16A C 0.8766(3) 0.7165(2) 0.3556(2)
H10A H 0.8905 0.6764 0.3148
N3A N 0.9040(3) 0.70964(19) 0.43421(18)
N4A N 0.8280(2) 0.83527(19) 0.41547(19)
H12A H 0.8072 0.8868 0.4257
Cd1D Cd 1.0000 0.39124(2) 0.5000
Cd2D Cd 0.5000 0.39006(2) 0.0000
O1A O 0.4454(3) 0.5000 -0.0831(3)
O2A O 0.3328(2) 0.57814(17) 0.06327(16)
O5A O 0.8806(2) 0.57798(17) 0.60881(16)
O6A O 1.0958(3) 0.5000 0.5628(2)
O7 O 0.4185(6) 0.5000 0.2415(5)
O8? O 0.5198(8) 0.5379(7) 0.3983(7)
H13? H 0.3655 0.5337 0.2351
H14? H 0.4528 0.5395 0.3881
H15? H 0.5330 0.5000 0.4314
H16? H 0.4445 0.4873 0.1949
loop_
_geom_bond_atom_site_label_1
_geom_bond_atom_site_label_2
_geom_bond_site_symmetry_1
_geom_bond_site_symmetry_2
C1 H1 1_555 1_555
C2 C1 1_555 1_555
C3 C2 1_555 1_555
C4 C3 1_555 1_555
H2 C4 1_555 1_555
C5 C4 1_555 1_555
C6 C1 1_555 1_555
C7 C6 1_555 1_555
H3 C7 1_555 1_555
C8 C7 1_555 1_555
C9 C8 1_555 1_555
C10 C5 1_555 1_555
H4 C10 1_555 1_555
C11 H5 1_555 1_555
C12 H6 1_555 1_555
C13 C12 1_555 1_555
H7 C13 1_555 1_555
C14 H8 1_555 1_555
C15 H9 1_555 1_555
C16 C15 1_555 1_555
H10 C16 1_555 1_555
Cd1 N3 1_555 1_555
Cd2 N1 1_555 1_555
N1 C11 1_555 1_555
N2 C11 1_555 1_555
H11 N2 1_555 1_555
N3 C14 1_555 1_555
N4 C14 1_555 1_555
H12 N4 1_555 1_555
O1 C2 1_555 1_555
O2 Cd2 1_555 1_555
O3 S2 1_555 1_555
O4 S1 1_555 1_555
O5 Cd1 1_555 1_555
O6 C8 1_555 1_555
S1 C9 1_555 1_555
S2 C3 1_555 1_555
O2E S2 1_555 1_555
O5E S1 1_555 1_555
C11A H5A 1_555 1_555
C12A H6A 1_555 1_555
C13A C12A 1_555 1_555
H7A C13A 1_555 1_555
N1A Cd2 1_555 1_555
N2A C11A 1_555 1_555
H11A N2A 1_555 1_555
C14A H8A 1_555 1_555
C15A H9A 1_555 1_555
C16A C15A 1_555 1_555
H10A C16A 1_555 1_555
N3A Cd1 1_555 1_555
N4A C14A 1_555 1_555
H12A N4A 1_555 1_555
Cd1D O6 1_555 1_555
Cd2D O1 1_555 1_555
O1A Cd2 1_555 1_555
O2A Cd2 1_555 1_555
O5A Cd1 1_555 1_555
O6A Cd1 1_555 1_555
C5 C6 1_555 1_555
C9 C10 1_555 1_555
C12 N2 1_555 1_555
C13 N1 1_555 1_555
C15 N4 1_555 1_555
C16 N3 1_555 1_555
Cd1 O6 1_555 1_555
Cd2 O1 1_555 1_555
O2 S2 1_555 1_555
O5 S1 1_555 1_555
O2E Cd2D 1_555 1_555
O5E Cd1D 1_555 1_555
C11A N1A 1_555 1_555
C12A N2A 1_555 1_555
C13A N1A 1_555 1_555
C14A N3A 1_555 1_555
C15A N4A 1_555 1_555
C16A N3A 1_555 1_555
Cd1D O6A 1_555 1_555
Cd2D O1A 1_555 1_555

#END
