
#######################################################################
#
#                 Cambridge Crystallographic Data Centre
#                                CCDC 
#
#######################################################################
#
# If this CIF has been generated from an entry in the Cambridge 
# Structural Database, then it will include bibliographic, chemical, 
# crystal, experimental, refinement or atomic coordinate data resulting 
# from the CCDC's data processing and validation procedures.
#
#######################################################################

data_POLJIK
_symmetry_cell_setting           triclinic
_symmetry_space_group_name_H-M   'P -1'
_symmetry_Int_Tables_number      2
_space_group_name_Hall           '-P 1'
loop_
_symmetry_equiv_pos_site_id
_symmetry_equiv_pos_as_xyz
1 x,y,z
2 -x,-y,-z
_cell_length_a                   7.509(2)
_cell_length_b                   9.664(2)
_cell_length_c                   11.084(2)
_cell_angle_alpha                107.77(2)
_cell_angle_beta                 106.42(2)
_cell_angle_gamma                98.25(2)
_cell_volume                     711.095
loop_
_atom_site_label
_atom_site_type_symbol
_atom_site_fract_x
_atom_site_fract_y
_atom_site_fract_z
Ni1 Ni 0.0000 0.0000 0.5000
O1 O 0.2443(8) -0.0768(7) 0.5437(6)
O2 O 0.1747(8) -0.0926(6) 0.0732(6)
O3 O 0.4105(8) -0.1444(7) 0.3063(6)
N1 N -0.8298(10) -0.8124(8) 0.4883(7)
N2 N -0.0597(10) -0.1136(8) 0.2932(8)
C1 C -0.5692(12) -0.5664(9) 0.4962(9)
C2 C 0.0280(14) -0.2160(10) -0.0089(9)
C3 C -0.5911(13) -0.7083(10) 0.4156(10)
H1 H -0.5181 -0.7265 0.3599
C4 C -0.7182(14) -0.8268(10) 0.4135(10)
H2 H -0.7267 -0.9227 0.3565
C5 C -0.8141(13) -0.6719(11) 0.5646(9)
H3 H -0.8928 -0.656 0.6162
C6 C -0.1154(14) -0.2432(10) 0.0433(10)
C7 C -0.6898(15) -0.5498(10) 0.5715(10)
H4 H -0.6855 -0.4544 0.6273
C8 C 0.4103(13) -0.2078(10) 0.1713(10)
H5 H 0.5347 -0.2266 0.1742
H6 H 0.3147 -0.3032 0.1243
C9 C -0.0805(12) -0.1679(10) 0.1834(10)
C10 C 0.3681(13) -0.1069(10) 0.0971(10)
H7 H 0.3874 -0.1457 0.0113
H8 H 0.4563 -0.0087 0.1485
C11 C -0.3049(17) -0.3318(11) -0.0411(10)
N3 N -0.4589(13) -0.3991(11) -0.1031(9)
C12 C -0.0840(13) -0.4520(12) -0.2081(10)
C13 C 0.1388(14) -0.2422(10) -0.2056(9)
C14 C 0.0242(12) -0.3023(9) -0.1374(9)
N4 N 0.2269(11) -0.1999(9) -0.2609(8)
N5 N -0.1692(12) -0.5743(9) -0.2685(9)
Ni1_2 Ni -1.0000 -1.0000 0.5000
O1A O -0.2443(8) 0.0768(7) 0.4563(6)
O2A O -0.1747(8) 0.0926(6) 0.9268(6)
O3A O -0.4105(8) 0.1444(7) 0.6937(6)
N1A N -0.1702(10) -0.1876(8) 0.5117(7)
N1_2 N 0.1702(10) 0.1876(8) 0.4883(7)
N2A N 0.0597(10) 0.1136(8) 0.7068(8)
C1A C -0.4308(12) -0.4336(9) 0.5038(9)
C2A C -0.0280(14) 0.2160(10) 1.0089(9)
C3A C -0.4089(13) -0.2917(10) 0.5844(10)
H1A H -0.4819 -0.2735 0.6401
C4A C -0.2818(14) -0.1732(10) 0.5865(10)
H2A H -0.2733 -0.0773 0.6435
C5A C -0.1859(13) -0.3281(11) 0.4354(9)
H3A H -0.1072 -0.344 0.3838
C6A C 0.1154(14) 0.2432(10) 0.9567(10)
C7A C -0.3102(15) -0.4502(10) 0.4285(10)
H4A H -0.3145 -0.5456 0.3727
C8A C -0.4103(13) 0.2078(10) 0.8287(10)
H5A H -0.5347 0.2266 0.8258
H6A H -0.3147 0.3032 0.8757
C9A C 0.0805(12) 0.1679(10) 0.8166(10)
C10A C -0.3681(13) 0.1069(10) 0.9029(10)
H7A H -0.3874 0.1457 0.9887
H8A H -0.4563 0.0087 0.8515
C11A C 0.3049(17) 0.3318(11) 1.0411(10)
N3A N 0.4589(13) 0.3991(11) 1.1031(9)
C12A C 0.0840(13) 0.4520(12) 1.2081(10)
C13A C -0.1388(14) 0.2422(10) 1.2056(9)
C14A C -0.0242(12) 0.3023(9) 1.1374(9)
N4A N -0.2269(11) 0.1999(9) 1.2609(8)
N5A N 0.1692(12) 0.5743(9) 1.2685(9)
loop_
_geom_bond_atom_site_label_1
_geom_bond_atom_site_label_2
_geom_bond_site_symmetry_1
_geom_bond_site_symmetry_2
Ni1 O1 1_555 1_555
O2 C2 1_555 1_555
O3 C8 1_555 1_555
N1 C4 1_555 1_555
N2 Ni1 1_555 1_555
C1 C3 1_555 1_555
C2 C6 1_555 1_555
C3 H1 1_555 1_555
C4 C3 1_555 1_555
H2 C4 1_555 1_555
C5 N1 1_555 1_555
H3 C5 1_555 1_555
C6 C9 1_555 1_555
C7 C1 1_555 1_555
H4 C7 1_555 1_555
C8 H5 1_555 1_555
H6 C8 1_555 1_555
C9 N2 1_555 1_555
C10 O2 1_555 1_555
H7 C10 1_555 1_555
H8 C10 1_555 1_555
C11 C6 1_555 1_555
N3 C11 1_555 1_555
C12 C14 1_555 1_555
C13 C14 1_555 1_555
C14 C2 1_555 1_555
N4 C13 1_555 1_555
N5 C12 1_555 1_555
Ni1_2 N1 1_555 1_555
O1A Ni1 1_555 1_555
O2A C2A 1_555 1_555
O3A C8A 1_555 1_555
N1A Ni1 1_555 1_555
N1_2 Ni1 1_555 1_555
N2A Ni1 1_555 1_555
C1A C1 1_555 1_555
C2A C6A 1_555 1_555
C3A C1A 1_555 1_555
H1A C3A 1_555 1_555
C4A N1A 1_555 1_555
H2A C4A 1_555 1_555
C5A N1A 1_555 1_555
H3A C5A 1_555 1_555
C6A C9A 1_555 1_555
C7A C1A 1_555 1_555
H4A C7A 1_555 1_555
C8A H5A 1_555 1_555
H6A C8A 1_555 1_555
C9A N2A 1_555 1_555
C10A O2A 1_555 1_555
H7A C10A 1_555 1_555
H8A C10A 1_555 1_555
C11A C6A 1_555 1_555
N3A C11A 1_555 1_555
C12A C14A 1_555 1_555
C13A C14A 1_555 1_555
C14A C2A 1_555 1_555
N4A C13A 1_555 1_555
N5A C12A 1_555 1_555
C5 C7 1_555 1_555
C8 C10 1_555 1_555
C3A C4A 1_555 1_555
C5A C7A 1_555 1_555
C8A C10A 1_555 1_555

#END
