
#######################################################################
#
#                 Cambridge Crystallographic Data Centre
#                                CCDC 
#
#######################################################################
#
# If this CIF has been generated from an entry in the Cambridge 
# Structural Database, then it will include bibliographic, chemical, 
# crystal, experimental, refinement or atomic coordinate data resulting 
# from the CCDC's data processing and validation procedures.
#
#######################################################################

data_POLJAC
_symmetry_cell_setting           triclinic
_symmetry_space_group_name_H-M   'P -1'
_symmetry_Int_Tables_number      2
_space_group_name_Hall           '-P 1'
loop_
_symmetry_equiv_pos_site_id
_symmetry_equiv_pos_as_xyz
1 x,y,z
2 -x,-y,-z
_cell_length_a                   7.4863(8)
_cell_length_b                   9.7600(10)
_cell_length_c                   11.169(2)
_cell_angle_alpha                107.850(10)
_cell_angle_beta                 106.570(10)
_cell_angle_gamma                97.890(10)
_cell_volume                     721.602
loop_
_atom_site_label
_atom_site_type_symbol
_atom_site_fract_x
_atom_site_fract_y
_atom_site_fract_z
Fe1 Fe 0.0000 0.0000 0.5000
O1 O 0.2538(5) -0.0724(3) 0.5503(3)
O2 O 0.1740(4) -0.1000(3) 0.0675(2)
O3 O 0.4112(4) -0.1439(3) 0.3041(2)
N1 N -0.8293(4) -0.8073(3) 0.4887(3)
N2 N -0.0537(4) -0.1177(3) 0.2892(3)
C1 C -0.5702(5) -0.5638(4) 0.4965(3)
C2 C 0.0289(5) -0.2208(4) -0.0135(3)
C3 C -0.5969(6) -0.7073(4) 0.4097(4)
C4 C -0.7243(5) -0.8230(4) 0.4093(4)
C5 C -0.8073(6) -0.6688(4) 0.5697(4)
C6 C -0.1132(5) -0.2475(4) 0.0391(3)
C7 C -0.6835(6) -0.5479(4) 0.5761(4)
C8 C 0.4154(6) -0.2122(5) 0.1725(4)
C9 C -0.0787(5) -0.1744(4) 0.1772(4)
C10 C 0.3708(6) -0.1162(5) 0.0929(4)
C11 C -0.3027(6) -0.3365(4) -0.0409(4)
N3 N -0.4584(5) -0.4030(5) -0.1024(3)
C12 C -0.0846(5) -0.4549(4) -0.2112(3)
C13 C 0.1405(5) -0.2466(4) -0.2049(3)
C14 C 0.0289(5) -0.3057(4) -0.1404(3)
N4 N 0.2280(5) -0.2019(4) -0.2594(3)
N5 N -0.1685(5) -0.5757(4) -0.2688(3)
H1 H 0.546(5) -0.231(4) 0.176(3)
H2 H 0.252(6) -0.104(5) 0.611(5)
H3 H -0.517(6) -0.726(4) 0.355(4)
H4 H -0.738(5) -0.908(5) 0.358(4)
H5 H 0.348(8) -0.020(6) 0.577(5)
H6 H 0.397(5) -0.164(4) 0.005(4)
H7 H -0.885(5) -0.659(5) 0.629(4)
H8 H -0.670(6) -0.458(5) 0.634(4)
H9 H 0.322(6) -0.305(5) 0.128(4)
H10 H 0.440(6) -0.025(5) 0.134(4)
H11 H 0.347(6) -0.205(5) 0.318(4)
Fe1_2 Fe -1.0000 -1.0000 0.5000
O1A O -0.2538(5) 0.0724(3) 0.4497(3)
O2A O -0.1740(4) 0.1000(3) 0.9325(2)
O3A O -0.4112(4) 0.1439(3) 0.6959(2)
N1A N -0.1707(4) -0.1927(3) 0.5113(3)
N1_2 N 0.1707(4) 0.1927(3) 0.4887(3)
N2A N 0.0537(4) 0.1177(3) 0.7108(3)
C1A C -0.4298(5) -0.4362(4) 0.5035(3)
C2A C -0.0289(5) 0.2208(4) 1.0135(3)
C3A C -0.4031(6) -0.2927(4) 0.5903(4)
C4A C -0.2757(5) -0.1770(4) 0.5907(4)
C5A C -0.1927(6) -0.3312(4) 0.4303(4)
C6A C 0.1132(5) 0.2475(4) 0.9609(3)
C7A C -0.3165(6) -0.4521(4) 0.4239(4)
C8A C -0.4154(6) 0.2122(5) 0.8275(4)
C9A C 0.0787(5) 0.1744(4) 0.8228(4)
C10A C -0.3708(6) 0.1162(5) 0.9071(4)
C11A C 0.3027(6) 0.3365(4) 1.0409(4)
N3A N 0.4584(5) 0.4030(5) 1.1024(3)
C12A C 0.0846(5) 0.4549(4) 1.2112(3)
C13A C -0.1405(5) 0.2466(4) 1.2049(3)
C14A C -0.0289(5) 0.3057(4) 1.1404(3)
N4A N -0.2280(5) 0.2019(4) 1.2594(3)
N5A N 0.1685(5) 0.5757(4) 1.2688(3)
H1A H -0.546(5) 0.231(4) 0.824(3)
H2A H -0.252(6) 0.104(5) 0.389(5)
H3A H -0.483(6) -0.274(4) 0.645(4)
H4A H -0.262(5) -0.092(5) 0.642(4)
H5A H -0.348(8) 0.020(6) 0.423(5)
H6A H -0.397(5) 0.164(4) 0.995(4)
H7A H -0.115(5) -0.341(5) 0.371(4)
H8A H -0.330(6) -0.542(5) 0.366(4)
H9A H -0.322(6) 0.305(5) 0.872(4)
H10A H -0.440(6) 0.025(5) 0.866(4)
H11A H -0.347(6) 0.205(5) 0.682(4)
loop_
_geom_bond_atom_site_label_1
_geom_bond_atom_site_label_2
_geom_bond_site_symmetry_1
_geom_bond_site_symmetry_2
Fe1 O1 1_555 1_555
O1 H2 1_555 1_555
O2 C2 1_555 1_555
O3 C8 1_555 1_555
N1 C4 1_555 1_555
N2 Fe1 1_555 1_555
C1 C3 1_555 1_555
C2 C6 1_555 1_555
C3 C4 1_555 1_555
C4 H4 1_555 1_555
C5 N1 1_555 1_555
C6 C9 1_555 1_555
C7 C1 1_555 1_555
C8 C10 1_555 1_555
C9 N2 1_555 1_555
C10 O2 1_555 1_555
C11 C6 1_555 1_555
N3 C11 1_555 1_555
C12 C14 1_555 1_555
C13 C14 1_555 1_555
C14 C2 1_555 1_555
N4 C13 1_555 1_555
N5 C12 1_555 1_555
H1 C8 1_555 1_555
H3 C3 1_555 1_555
H5 O1 1_555 1_555
H6 C10 1_555 1_555
H7 C5 1_555 1_555
H8 C7 1_555 1_555
H9 C8 1_555 1_555
H10 C10 1_555 1_555
H11 O3 1_555 1_555
Fe1_2 N1 1_555 1_555
O1A Fe1 1_555 1_555
O2A C2A 1_555 1_555
O3A C8A 1_555 1_555
N1A Fe1 1_555 1_555
N1_2 Fe1 1_555 1_555
N2A Fe1 1_555 1_555
C1A C1 1_555 1_555
C2A C6A 1_555 1_555
C3A C1A 1_555 1_555
C4A N1A 1_555 1_555
C5A N1A 1_555 1_555
C6A C9A 1_555 1_555
C7A C1A 1_555 1_555
C8A C10A 1_555 1_555
C9A N2A 1_555 1_555
C10A O2A 1_555 1_555
C11A C6A 1_555 1_555
N3A C11A 1_555 1_555
C12A C14A 1_555 1_555
C13A C14A 1_555 1_555
C14A C2A 1_555 1_555
N4A C13A 1_555 1_555
N5A C12A 1_555 1_555
H1A C8A 1_555 1_555
H2A O1A 1_555 1_555
H3A C3A 1_555 1_555
H4A C4A 1_555 1_555
H5A O1A 1_555 1_555
H6A C10A 1_555 1_555
H7A C5A 1_555 1_555
H8A C7A 1_555 1_555
H9A C8A 1_555 1_555
H10A C10A 1_555 1_555
H11A O3A 1_555 1_555
C5 C7 1_555 1_555
C3A C4A 1_555 1_555
C5A C7A 1_555 1_555

#END
