
#######################################################################
#
#                 Cambridge Crystallographic Data Centre
#                                CCDC 
#
#######################################################################
#
# If this CIF has been generated from an entry in the Cambridge 
# Structural Database, then it will include bibliographic, chemical, 
# crystal, experimental, refinement or atomic coordinate data resulting 
# from the CCDC's data processing and validation procedures.
#
#######################################################################

data_POLJEG
_symmetry_cell_setting           triclinic
_symmetry_space_group_name_H-M   'P -1'
_symmetry_Int_Tables_number      2
_space_group_name_Hall           '-P 1'
loop_
_symmetry_equiv_pos_site_id
_symmetry_equiv_pos_as_xyz
1 x,y,z
2 -x,-y,-z
_cell_length_a                   7.5200(10)
_cell_length_b                   9.724(2)
_cell_length_c                   11.139(2)
_cell_angle_alpha                107.910(10)
_cell_angle_beta                 106.270(10)
_cell_angle_gamma                98.460(10)
_cell_volume                     719.35
loop_
_atom_site_label
_atom_site_type_symbol
_atom_site_fract_x
_atom_site_fract_y
_atom_site_fract_z
Co1 Co 0.0000 0.0000 0.5000
O1 O -0.2486(4) 0.0754(4) 0.4541(3)
O2 O -0.1713(4) 0.0968(3) 0.9304(2)
O3 O -0.4111(4) 0.1447(3) 0.6962(3)
N1 N 0.1720(4) 0.1901(3) 0.4905(3)
N2 N 0.0564(4) 0.1152(3) 0.7075(3)
C1 C 0.4305(5) 0.4357(4) 0.4969(4)
C2 C -0.0261(6) 0.2197(5) 1.0126(4)
C3 C 0.4075(6) 0.2931(5) 0.4148(4)
C4 C 0.2800(6) 0.1737(5) 0.4129(4)
C5 C 0.1887(7) 0.3293(5) 0.5674(4)
C6 C 0.1152(6) 0.2459(5) 0.9594(4)
C7 C 0.3137(7) 0.4513(5) 0.5737(5)
C8 C -0.4150(8) 0.2088(6) 0.8284(5)
C9 C 0.0787(6) 0.1713(4) 0.8190(5)
C10 C -0.3670(7) 0.1111(6) 0.9065(5)
C11 C 0.3039(7) 0.3346(5) 1.0401(4)
N3 N 0.4594(6) 0.4013(4) 1.1031(3)
C12 C 0.0861(6) 0.4548(5) 1.2116(4)
C13 C -0.1384(6) 0.2449(4) 1.2043(4)
C14 C -0.0264(5) 0.3035(4) 1.1389(4)
N4 N -0.2255(5) 0.2004(4) 1.2601(3)
N5 N 0.1704(5) 0.5762(4) 1.2695(3)
H1 H 0.457(5) 0.265(4) 0.354(3)
H2 H -0.441(5) 0.010(4) 0.858(3)
H3 H 0.326(5) 0.531(4) 0.627(3)
H4 H -0.304(6) 0.327(5) 0.874(4)
H5 H -0.540(6) 0.232(5) 0.818(4)
H6 H -0.254(6) 0.119(5) 0.397(4)
H7 H 0.126(5) 0.339(4) 0.619(3)
H8 H -0.397(5) 0.156(4) 0.988(4)
H9 H 0.259(5) 0.076(4) 0.353(3)
H10 H -0.305(12) 0.220(10) 0.665(8)
H11 H -0.359(8) -0.008(6) 0.404(5)
Co1_2 Co 1.0000 1.0000 0.5000
O1A O 0.2486(4) -0.0754(4) 0.5459(3)
O2A O 0.1713(4) -0.0968(3) 0.0696(2)
O3A O 0.4111(4) -0.1447(3) 0.3038(3)
N1A N -0.1720(4) -0.1901(3) 0.5095(3)
N1A_2 N 0.8280(4) 0.8099(3) 0.5095(3)
N2A N -0.0564(4) -0.1152(3) 0.2925(3)
C1A C 0.5695(5) 0.5643(4) 0.5031(4)
C2A C 0.0261(6) -0.2197(5) -0.0126(4)
C3A C 0.5925(6) 0.7069(5) 0.5852(4)
C4A C 0.7200(6) 0.8263(5) 0.5871(4)
C5A C 0.8113(7) 0.6707(5) 0.4326(4)
C6A C -0.1152(6) -0.2459(5) 0.0406(4)
C7A C 0.6863(7) 0.5487(5) 0.4263(5)
C8A C 0.4150(8) -0.2088(6) 0.1716(5)
C9A C -0.0787(6) -0.1713(4) 0.1810(5)
C10A C 0.3670(7) -0.1111(6) 0.0935(5)
C11A C -0.3039(7) -0.3346(5) -0.0401(4)
N3A N -0.4594(6) -0.4013(4) -0.1031(3)
C12A C -0.0861(6) -0.4548(5) -0.2116(4)
C13A C 0.1384(6) -0.2449(4) -0.2043(4)
C14A C 0.0264(5) -0.3035(4) -0.1389(4)
N4A N 0.2255(5) -0.2004(4) -0.2601(3)
N5A N -0.1704(5) -0.5762(4) -0.2695(3)
H1A H 0.543(5) 0.735(4) 0.646(3)
H2A H 0.441(5) -0.010(4) 0.142(3)
H3A H 0.674(5) 0.469(4) 0.373(3)
H4A H 0.304(6) -0.327(5) 0.126(4)
H5A H 0.540(6) -0.232(5) 0.182(4)
H6A H 0.254(6) -0.119(5) 0.603(4)
H7A H 0.874(5) 0.661(4) 0.381(3)
H8A H 0.397(5) -0.156(4) 0.012(4)
H9A H 0.741(5) 0.924(4) 0.647(3)
H10A H 0.305(12) -0.220(10) 0.335(8)
H11A H 0.359(8) 0.008(6) 0.596(5)
loop_
_geom_bond_atom_site_label_1
_geom_bond_atom_site_label_2
_geom_bond_site_symmetry_1
_geom_bond_site_symmetry_2
Co1 O1 1_555 1_555
O1 H6 1_555 1_555
O2 C2 1_555 1_555
O3 C8 1_555 1_555
N1 Co1 1_555 1_555
N2 Co1 1_555 1_555
C1 C3 1_555 1_555
C2 C6 1_555 1_555
C3 C4 1_555 1_555
C4 N1 1_555 1_555
C5 N1 1_555 1_555
C6 C9 1_555 1_555
C7 C1 1_555 1_555
C8 C10 1_555 1_555
C9 N2 1_555 1_555
C10 O2 1_555 1_555
C11 C6 1_555 1_555
N3 C11 1_555 1_555
C12 C14 1_555 1_555
C13 C14 1_555 1_555
C14 C2 1_555 1_555
N4 C13 1_555 1_555
N5 C12 1_555 1_555
H1 C3 1_555 1_555
H2 C10 1_555 1_555
H3 C7 1_555 1_555
H4 C8 1_555 1_555
H5 C8 1_555 1_555
H7 C5 1_555 1_555
H8 C10 1_555 1_555
H9 C4 1_555 1_555
H10 O3 1_555 1_555
H11 O1 1_555 1_555
Co1_2 N1A_2 1_555 1_555
O1A Co1 1_555 1_555
O2A C2A 1_555 1_555
O3A C8A 1_555 1_555
N1A Co1 1_555 1_555
N1A_2 C4A 1_555 1_555
N2A Co1 1_555 1_555
C1A C1 1_555 1_555
C2A C6A 1_555 1_555
C3A C1A 1_555 1_555
C4A C3A 1_555 1_555
C5A N1A_2 1_555 1_555
C6A C9A 1_555 1_555
C7A C1A 1_555 1_555
C8A C10A 1_555 1_555
C9A N2A 1_555 1_555
C10A O2A 1_555 1_555
C11A C6A 1_555 1_555
N3A C11A 1_555 1_555
C12A C14A 1_555 1_555
C13A C14A 1_555 1_555
C14A C2A 1_555 1_555
N4A C13A 1_555 1_555
N5A C12A 1_555 1_555
H1A C3A 1_555 1_555
H2A C10A 1_555 1_555
H3A C7A 1_555 1_555
H4A C8A 1_555 1_555
H5A C8A 1_555 1_555
H6A O1A 1_555 1_555
H7A C5A 1_555 1_555
H8A C10A 1_555 1_555
H9A C4A 1_555 1_555
H10A O3A 1_555 1_555
H11A O1A 1_555 1_555
C5 C7 1_555 1_555
C5A C7A 1_555 1_555

#END
