
#######################################################################
#
#                 Cambridge Crystallographic Data Centre
#                                CCDC 
#
#######################################################################
#
# If this CIF has been generated from an entry in the Cambridge 
# Structural Database, then it will include bibliographic, chemical, 
# crystal, experimental, refinement or atomic coordinate data resulting 
# from the CCDC's data processing and validation procedures.
#
#######################################################################

data_POLKUY
_symmetry_cell_setting           triclinic
_symmetry_space_group_name_H-M   'P -1'
_symmetry_Int_Tables_number      2
_space_group_name_Hall           '-P 1'
loop_
_symmetry_equiv_pos_site_id
_symmetry_equiv_pos_as_xyz
1 x,y,z
2 -x,-y,-z
_cell_length_a                   9.6201(15)
_cell_length_b                   9.7635(15)
_cell_length_c                   22.627(4)
_cell_angle_alpha                90.650(2)
_cell_angle_beta                 91.911(2)
_cell_angle_gamma                116.179(2)
_cell_volume                     1905.39
loop_
_atom_site_label
_atom_site_type_symbol
_atom_site_fract_x
_atom_site_fract_y
_atom_site_fract_z
Cd1 Cd 0.96309(9) 0.42994(8) 0.07838(3)
O1 O 1.1669(8) 0.5288(8) 0.0189(3)
O2 O 1.2167(9) 0.6839(9) 0.0968(3)
N1 N 1.0464(10) 0.3770(10) 0.1711(4)
O3 O 0.8891(9) 0.1994(9) 0.0345(4)
O4 O 0.7083(10) 0.1886(10) 0.0946(4)
N2 N 0.8528(10) 0.5798(10) 0.1115(4)
C1 C 1.2582(12) 0.6446(12) 0.0511(5)
C2 C 0.9560(14) 0.2439(14) 0.1965(5)
C3 C 1.1777(14) 0.4698(12) 0.1995(5)
C4 C 1.4198(12) 0.7348(12) 0.0309(4)
C5 C 0.9988(14) 0.2045(14) 0.2498(5)
H1 H 0.8608 0.1761 0.1771
C6 C 1.2260(13) 0.4411(13) 0.2541(4)
H2 H 1.2428 0.5619 0.1811
C7 C 1.4744(13) 0.6754(12) -0.0137(5)
C8 C 1.5136(12) 0.8800(12) 0.0545(4)
H3 H 0.9358 0.1085 0.2660
C9 C 1.1334(14) 0.3050(14) 0.2797(5)
C10 C 1.3738(13) 0.5585(13) 0.2852(5)
C11 C 1.6210(12) 0.7655(12) -0.0332(5)
H4 H 1.4131 0.5760 -0.0303
H5 H 1.4768 0.9194 0.0857
C12 C 1.6600(13) 0.9690(12) 0.0337(5)
H6 H 1.1619 0.2809 0.3174
N3 N 1.4981(10) 0.6259(10) 0.2449(4)
H7 H 1.3532 0.6399 0.3035
H8 H 1.4061 0.5089 0.3171
N4 N 1.6777(11) 0.7060(11) -0.0827(4)
C13 C 1.7145(13) 0.9108(13) -0.0114(5)
C14 C 1.7565(12) 1.1284(12) 0.0571(5)
H9 H 1.5248 0.7194 0.2331
C15 C 1.5726(13) 0.5490(12) 0.2252(5)
O5 O 1.6021(10) 0.5720(10) -0.0983(4)
O6 O 1.7959(11) 0.7928(11) -0.1053(4)
H10 H 1.8135 0.9695 -0.0268
O7 O 1.5460(10) 0.4224(9) 0.2430(4)
C16 C 1.6904(12) 0.6211(12) 0.1791(5)
C17 C 1.7493(13) 0.7730(13) 0.1637(5)
C18 C 1.7463(12) 0.5302(12) 0.1510(5)
H11 H 1.7138 0.8394 0.1817
C19 C 1.8609(14) 0.8258(14) 0.1215(6)
H12 H 1.7052 0.4257 0.1610
H13 H 1.9027 0.9293 0.1102
C20 C 1.9115(13) 0.7272(12) 0.0958(5)
H14 H 1.9881 0.7635 0.0669
O1A O 0.8331(8) 0.4712(8) -0.0189(3)
Cd1A Cd 1.03691(9) 0.57006(8) -0.07838(3)
O3_2 O 1.8891(9) 1.1994(9) 0.0345(4)
O4_2 O 1.7083(10) 1.1886(10) 0.0946(4)
Cd1_2 Cd 1.96309(9) 1.42994(8) 0.07838(3)
N2_2 N 1.8528(10) 0.5798(10) 0.1115(4)
Cd1_3 Cd 1.96309(9) 0.42994(8) 0.07838(3)
Cd2 Cd 0.93976(9) 0.91767(8) 0.42112(3)
O8 O 1.4943(10) 0.9036(9) 0.2514(4)
O9 O 1.1874(9) 1.1629(9) 0.4057(3)
O10 O 1.1586(8) 1.0174(8) 0.4829(3)
O11 O 1.6704(10) 1.6627(9) 0.4014(4)
O12 O 1.8672(9) 1.6933(9) 0.4637(4)
O13 O 1.8165(12) 1.3164(12) 0.6063(5)
O14 O 1.6258(10) 1.0930(11) 0.6008(4)
N5 N 1.0062(10) 0.8495(10) 0.3304(4)
N6 N 1.4437(11) 1.1054(11) 0.2551(4)
H15 H 1.4742 1.2005 0.2674
N7 N 1.8248(10) 1.0632(10) 0.3861(4)
C21 C 1.7123(12) 1.0135(12) 0.3451(5)
H16 H 1.6683 0.9087 0.3333
C22 C 1.6542(12) 1.1057(12) 0.3182(5)
C23 C 1.7185(14) 1.2580(13) 0.3359(5)
H17 H 1.6822 1.3250 0.3185
C24 C 1.8361(13) 1.3113(12) 0.3793(5)
H18 H 1.8810 1.4154 0.3922
C25 C 1.8877(13) 1.2123(12) 0.4036(5)
H19 H 1.9690 1.2494 0.4333
C26 C 1.5231(13) 1.0295(12) 0.2717(5)
C27 C 1.3049(13) 1.0295(14) 0.2161(5)
H20 H 1.3289 0.9814 0.1817
H21 H 1.2717 1.1059 0.2012
C28 C 1.1764(12) 0.9104(13) 0.2488(5)
C29 C 1.1035(14) 0.7597(14) 0.2291(5)
H22 H 1.1338 0.7288 0.1938
C30 C 0.9852(14) 0.6539(13) 0.2614(5)
H23 H 0.9384 0.5488 0.2499
C31 C 0.9365(13) 0.7035(13) 0.3102(5)
H24 H 0.8506 0.6320 0.3304
C32 C 1.1226(12) 0.9473(12) 0.3001(5)
H25 H 1.1731 1.0503 0.3145
C33 C 1.2423(12) 1.1292(12) 0.4510(5)
C34 C 1.4077(12) 1.2246(12) 0.4699(4)
C35 C 1.4747(13) 1.1740(12) 0.5150(5)
H26 H 1.4194 1.0771 0.5320
C36 C 1.4932(12) 1.3644(11) 0.4448(5)
H27 H 1.4480 1.3959 0.4130
C37 C 1.6444(12) 1.4597(12) 0.4652(5)
C38 C 1.6253(12) 1.2713(12) 0.5339(5)
C39 C 1.7107(12) 1.4115(12) 0.5105(5)
H28 H 1.8135 1.4742 0.5251
N8 N 1.6943(12) 1.2220(12) 0.5840(5)
C40 C 1.7337(13) 1.6160(11) 0.4400(5)
Cd2_2 Cd 1.93976(9) 0.91767(8) 0.42112(3)
Cd2_3 Cd 1.93976(9) 1.91767(8) 0.42112(3)
Cd2A Cd 1.06024(9) 1.08233(8) 0.57888(3)
O10A O 0.8414(8) 0.9826(8) 0.5171(3)
O11_2 O 0.6704(10) 0.6627(9) 0.4014(4)
O12_2 O 0.8672(9) 0.6933(9) 0.4637(4)
N7_2 N 0.8248(10) 1.0632(10) 0.3861(4)
loop_
_geom_bond_atom_site_label_1
_geom_bond_atom_site_label_2
_geom_bond_site_symmetry_1
_geom_bond_site_symmetry_2
Cd1 O1 1_555 1_555
O1 C1 1_555 1_555
O2 Cd1 1_555 1_555
N1 Cd1 1_555 1_555
O3 Cd1 1_555 1_555
O4 Cd1 1_555 1_555
N2 Cd1 1_555 1_555
C1 O2 1_555 1_555
C2 N1 1_555 1_555
C3 N1 1_555 1_555
C4 C1 1_555 1_555
C5 C2 1_555 1_555
H1 C2 1_555 1_555
C6 C3 1_555 1_555
H2 C3 1_555 1_555
C7 C4 1_555 1_555
C8 C4 1_555 1_555
H3 C5 1_555 1_555
C9 C5 1_555 1_555
C10 C6 1_555 1_555
C11 C7 1_555 1_555
H4 C7 1_555 1_555
H5 C8 1_555 1_555
C12 C8 1_555 1_555
H6 C9 1_555 1_555
N3 C10 1_555 1_555
H7 C10 1_555 1_555
H8 C10 1_555 1_555
N4 C11 1_555 1_555
C13 C11 1_555 1_555
C14 C12 1_555 1_555
H9 N3 1_555 1_555
C15 N3 1_555 1_555
O5 N4 1_555 1_555
O6 N4 1_555 1_555
H10 C13 1_555 1_555
O7 C15 1_555 1_555
C16 C15 1_555 1_555
C17 C16 1_555 1_555
C18 C16 1_555 1_555
H11 C17 1_555 1_555
C19 C17 1_555 1_555
H12 C18 1_555 1_555
H13 C19 1_555 1_555
C20 C19 1_555 1_555
H14 C20 1_555 1_555
Cd2 O9 1_555 1_555
O8 C26 1_555 1_555
O9 C33 1_555 1_555
O10 Cd2 1_555 1_555
O11 C40 1_555 1_555
O12 C40 1_555 1_555
O13 N8 1_555 1_555
O14 N8 1_555 1_555
N5 Cd2 1_555 1_555
N6 H15 1_555 1_555
N7 C21 1_555 1_555
C21 H16 1_555 1_555
C22 C21 1_555 1_555
C23 C22 1_555 1_555
H17 C23 1_555 1_555
C24 C23 1_555 1_555
H18 C24 1_555 1_555
C25 N7 1_555 1_555
H19 C25 1_555 1_555
C26 N6 1_555 1_555
C27 N6 1_555 1_555
H20 C27 1_555 1_555
H21 C27 1_555 1_555
C28 C27 1_555 1_555
C29 C28 1_555 1_555
H22 C29 1_555 1_555
C30 C29 1_555 1_555
H23 C30 1_555 1_555
C31 N5 1_555 1_555
H24 C31 1_555 1_555
C32 N5 1_555 1_555
H25 C32 1_555 1_555
C33 O10 1_555 1_555
C34 C33 1_555 1_555
C35 C34 1_555 1_555
H26 C35 1_555 1_555
C36 C34 1_555 1_555
H27 C36 1_555 1_555
C37 C36 1_555 1_555
C38 C35 1_555 1_555
C39 C37 1_555 1_555
H28 C39 1_555 1_555
N8 C38 1_555 1_555
C40 C37 1_555 1_555
O1A Cd1 1_555 1_555
Cd1A O1 1_555 1_555
O3_2 C14 1_555 1_555
O4_2 C14 1_555 1_555
Cd1_2 O3_2 1_555 1_555
N2_2 C18 1_555 1_555
Cd1_3 N2_2 1_555 1_555
Cd2_2 N7 1_555 1_555
Cd2_3 O11 1_555 1_555
Cd2A O10 1_555 1_555
O10A Cd2 1_555 1_555
O11_2 Cd2 1_555 1_555
O12_2 Cd2 1_555 1_555
N7_2 Cd2 1_555 1_555
C6 C9 1_555 1_555
C12 C13 1_555 1_555
C20 N2_2 1_555 1_555
O12 Cd2_3 1_555 1_555
C22 C26 1_555 1_555
C24 C25 1_555 1_555
C28 C32 1_555 1_555
C30 C31 1_555 1_555
C38 C39 1_555 1_555
O1A Cd1A 1_555 1_555
O4_2 Cd1_2 1_555 1_555
Cd2A O10A 1_555 1_555

#END
