
#######################################################################
#
#                 Cambridge Crystallographic Data Centre
#                                CCDC 
#
#######################################################################
#
# If this CIF has been generated from an entry in the Cambridge 
# Structural Database, then it will include bibliographic, chemical, 
# crystal, experimental, refinement or atomic coordinate data resulting 
# from the CCDC's data processing and validation procedures.
#
#######################################################################

data_POLKOR
_symmetry_cell_setting           monoclinic
_symmetry_space_group_name_H-M   'P 21/n'
_symmetry_Int_Tables_number      14
_space_group_name_Hall           '-P 2yn'
loop_
_symmetry_equiv_pos_site_id
_symmetry_equiv_pos_as_xyz
1 x,y,z
2 1/2-x,1/2+y,1/2-z
3 -x,-y,-z
4 1/2+x,1/2-y,1/2+z
_cell_length_a                   15.7714(18)
_cell_length_b                   10.5732(8)
_cell_length_c                   25.698(3)
_cell_angle_alpha                90
_cell_angle_beta                 92.001(8)
_cell_angle_gamma                90
_cell_volume                     4282.64
loop_
_atom_site_label
_atom_site_type_symbol
_atom_site_fract_x
_atom_site_fract_y
_atom_site_fract_z
Fe1 Fe 0.34437(3) 0.76596(4) 0.318964(15)
Fe2 Fe 0.28633(3) 0.96859(4) -0.068040(15)
Ni1 Ni 0.29137(2) 0.84184(4) 0.125906(13)
C1 C 0.30964(19) 0.7553(3) 0.24628(11)
C2 C 0.2964(2) 0.6025(3) 0.33357(11)
C3 C 0.2335(2) 0.8375(4) 0.33060(14)
C4 C 0.2849(2) 0.9378(3) 0.00623(11)
C5 C 0.4050(2) 0.9227(3) -0.06409(12)
C6 C 0.2601(2) 0.7899(3) -0.07769(13)
C7 C 0.5980(3) 0.6896(5) 0.30765(17)
C8 C 0.5716(3) 0.5901(5) 0.27640(17)
C9 C 0.4820(3) 0.5951(4) 0.27492(14)
C10 C 0.3624(2) 1.0349(3) 0.27518(12)
C11 C 0.4237(3) 1.1305(3) 0.27444(15)
C12 C 0.4906(3) 1.0851(4) 0.30501(17)
C13 C 0.3499(3) 0.7531(4) 0.43899(13)
C14 C 0.4077(4) 0.7863(5) 0.47994(15)
C15 C 0.4773(3) 0.8381(5) 0.45629(15)
C16 C 0.2948(3) 1.3563(4) -0.07098(18)
C17 C 0.3564(3) 1.3420(4) -0.03096(19)
C18 C 0.3631(2) 1.2125(4) -0.02307(14)
C19 C 0.3251(2) 0.9335(4) -0.18433(14)
C20 C 0.3086(3) 0.9998(5) -0.23127(14)
C21 C 0.2641(3) 1.1048(5) -0.21806(14)
C22 C 0.0915(2) 0.9541(3) -0.05852(14)
C23 C 0.0195(2) 1.0164(4) -0.07843(16)
C24 C 0.0504(2) 1.1151(4) -0.10737(15)
C25 C 0.4861(5) 0.8508(10) 0.1553(4)
C26 C 0.4842(5) 0.7113(10) 0.1358(3)
C27 C 0.4335(5) 0.6765(9) 0.0904(3)
C28 C 0.2878(7) 0.6020(5) 0.0567(2)
C29 C 0.1992(6) 0.5858(6) 0.0662(3)
C30 C 0.1447(4) 0.6930(6) 0.0693(2)
N1 N 0.29441(17) 0.7646(2) 0.20196(9)
N2 N 0.2670(2) 0.5060(3) 0.34475(11)
N3 N 0.1674(3) 0.8816(5) 0.3360(2)
N4 N 0.28536(19) 0.9172(3) 0.05029(10)
N5 N 0.4765(2) 0.8949(4) -0.06379(15)
N6 N 0.2448(3) 0.6848(3) -0.08400(17)
N7 N 0.45693(19) 0.6942(3) 0.30435(10)
N8 N 0.52877(19) 0.7514(3) 0.32415(12)
N9 N 0.39072(17) 0.9381(2) 0.30483(9)
N10 N 0.47004(18) 0.9691(3) 0.32375(11)
N11 N 0.3843(2) 0.7842(3) 0.39297(10)
N12 N 0.4626(2) 0.8366(3) 0.40353(11)
N13 N 0.31063(17) 1.1502(3) -0.05626(10)
N14 N 0.26817(18) 1.2401(3) -0.08605(12)
N15 N 0.29101(17) 0.9992(3) -0.14509(10)
N16 N 0.25408(18) 1.1053(3) -0.16598(10)
N17 N 0.16232(16) 1.0114(3) -0.07418(10)
N18 N 0.13636(17) 1.1122(3) -0.10407(10)
N19 N 0.4099(2) 0.9300(4) 0.14188(13)
N20 N 0.3450(3) 0.6721(4) 0.09914(13)
N21 N 0.1668(2) 0.7701(3) 0.11383(12)
B1 B 0.5197(3) 0.8718(5) 0.35817(18)
B2 B 0.2054(3) 1.1939(4) -0.12980(16)
H1 H 0.5813 0.9150 0.3732
H2 H 0.1767 1.2647 -0.1561
H3 H 0.6588 0.7131 0.3168
H4 H 0.6079 0.5267 0.2584
H5 H 0.4428 0.5351 0.2555
H6 H 0.3055 1.0380 0.2565
H7 H 0.4193 1.2140 0.2559
H8 H 0.5458 1.1302 0.3122
H9 H 0.2926 0.7133 0.4431
H10 H 0.3994 0.7745 0.5182
H11 H 0.5304 0.8709 0.4747
H12 H 0.2738 1.4389 -0.0862
H13 H 0.3890 1.4109 -0.0120
H14 H 0.4020 1.1709 0.0038
H15 H 0.3569 0.8518 -0.1805
H16 H 0.3261 0.9748 -0.2670
H17 H 0.2424 1.1714 -0.2430
H18 H 0.0907 0.8773 -0.0355
H19 H -0.0412 0.9939 -0.0731
H20 H 0.0151 1.1790 -0.1272
H21 H 0.5371 0.8930 0.1407
H22 H 0.4937 0.8485 0.1945
H23 H 0.5454 0.6895 0.1289
H24 H 0.4654 0.6593 0.1656
H25 H 0.4439 0.7377 0.0613
H26 H 0.4519 0.5894 0.0784
H27 H 0.2914 0.6526 0.0231
H28 H 0.3132 0.5168 0.0508
H29 H 0.1971 0.5415 0.1009
H30 H 0.1752 0.5293 0.0385
H31 H 0.1484 0.7462 0.0369
H32 H 0.0837 0.6648 0.0721
Ni1A Ni 0.20863(2) 0.34184(4) 0.374094(13)
N2A N 0.2330(2) 1.0060(3) 0.15525(11)
O1 O 0.6462(4) 0.4044(6) 0.1726(2)
O2 O 0.4898(6) 0.3649(10) 0.1067(5)
O3? O 0.5023(7) 0.3005(17) 0.1487(6)
loop_
_geom_bond_atom_site_label_1
_geom_bond_atom_site_label_2
_geom_bond_site_symmetry_1
_geom_bond_site_symmetry_2
Fe1 C1 1_555 1_555
Fe2 C4 1_555 1_555
Ni1 N1 1_555 1_555
C1 N1 1_555 1_555
C2 Fe1 1_555 1_555
C3 Fe1 1_555 1_555
C4 N4 1_555 1_555
C5 Fe2 1_555 1_555
C6 Fe2 1_555 1_555
C7 C8 1_555 1_555
C8 C9 1_555 1_555
C9 N7 1_555 1_555
C10 C11 1_555 1_555
C11 C12 1_555 1_555
C12 N10 1_555 1_555
C13 C14 1_555 1_555
C14 C15 1_555 1_555
C15 N12 1_555 1_555
C16 C17 1_555 1_555
C17 C18 1_555 1_555
C18 N13 1_555 1_555
C19 C20 1_555 1_555
C20 C21 1_555 1_555
C21 N16 1_555 1_555
C22 C23 1_555 1_555
C23 C24 1_555 1_555
C24 N18 1_555 1_555
C25 C26 1_555 1_555
C26 C27 1_555 1_555
C27 N20 1_555 1_555
C28 C29 1_555 1_555
C29 C30 1_555 1_555
C30 N21 1_555 1_555
N2 C2 1_555 1_555
N3 C3 1_555 1_555
N4 Ni1 1_555 1_555
N5 C5 1_555 1_555
N6 C6 1_555 1_555
N7 Fe1 1_555 1_555
N8 C7 1_555 1_555
N9 Fe1 1_555 1_555
N10 N9 1_555 1_555
N11 Fe1 1_555 1_555
N12 N11 1_555 1_555
N13 Fe2 1_555 1_555
N14 C16 1_555 1_555
N15 Fe2 1_555 1_555
N16 N15 1_555 1_555
N17 Fe2 1_555 1_555
N18 N17 1_555 1_555
N19 Ni1 1_555 1_555
N20 Ni1 1_555 1_555
N21 Ni1 1_555 1_555
B1 N8 1_555 1_555
B2 N14 1_555 1_555
H1 B1 1_555 1_555
H2 B2 1_555 1_555
H3 C7 1_555 1_555
H4 C8 1_555 1_555
H5 C9 1_555 1_555
H6 C10 1_555 1_555
H7 C11 1_555 1_555
H8 C12 1_555 1_555
H9 C13 1_555 1_555
H10 C14 1_555 1_555
H11 C15 1_555 1_555
H12 C16 1_555 1_555
H13 C17 1_555 1_555
H14 C18 1_555 1_555
H15 C19 1_555 1_555
H16 C20 1_555 1_555
H17 C21 1_555 1_555
H18 C22 1_555 1_555
H19 C23 1_555 1_555
H20 C24 1_555 1_555
H21 C25 1_555 1_555
H22 C25 1_555 1_555
H23 C26 1_555 1_555
H24 C26 1_555 1_555
H25 C27 1_555 1_555
H26 C27 1_555 1_555
H27 C28 1_555 1_555
H28 C28 1_555 1_555
H29 C29 1_555 1_555
H30 C29 1_555 1_555
H31 C30 1_555 1_555
H32 C30 1_555 1_555
Ni1A N2 1_555 1_555
N2A Ni1 1_555 1_555
C10 N9 1_555 1_555
C13 N11 1_555 1_555
C19 N15 1_555 1_555
C22 N17 1_555 1_555
C25 N19 1_555 1_555
C28 N20 1_555 1_555
N7 N8 1_555 1_555
N10 B1 1_555 1_555
N12 B1 1_555 1_555
N13 N14 1_555 1_555
N16 B2 1_555 1_555
N18 B2 1_555 1_555

#END
