
#######################################################################
#
#                 Cambridge Crystallographic Data Centre
#                                CCDC 
#
#######################################################################
#
# If this CIF has been generated from an entry in the Cambridge 
# Structural Database, then it will include bibliographic, chemical, 
# crystal, experimental, refinement or atomic coordinate data resulting 
# from the CCDC's data processing and validation procedures.
#
#######################################################################

data_POLLUY
_symmetry_cell_setting           monoclinic
_symmetry_space_group_name_H-M   'P 21/n'
_symmetry_Int_Tables_number      14
_space_group_name_Hall           '-P 2yn'
loop_
_symmetry_equiv_pos_site_id
_symmetry_equiv_pos_as_xyz
1 x,y,z
2 1/2-x,1/2+y,1/2-z
3 -x,-y,-z
4 1/2+x,1/2-y,1/2+z
_cell_length_a                   7.392(5)
_cell_length_b                   17.837(9)
_cell_length_c                   9.087(4)
_cell_angle_alpha                90
_cell_angle_beta                 108.75(3)
_cell_angle_gamma                90
_cell_volume                     1134.55
loop_
_atom_site_label
_atom_site_type_symbol
_atom_site_fract_x
_atom_site_fract_y
_atom_site_fract_z
Cu1 Cu -0.29583(5) 0.208060(19) 0.09405(4)
O1 O -0.4991(3) 0.24681(12) -0.0857(3)
O2 O -0.5724(3) 0.33966(13) -0.2582(3)
N1 N -0.4582(4) 0.12359(15) 0.1108(4)
N2 N -0.6455(4) 0.12232(18) 0.0349(4)
H1 H -0.7068 0.1572 -0.0264
N3 N -0.1677(4) 0.30385(16) 0.0792(4)
H2 H -0.1604 0.3322 0.1628
H3 H -0.0477 0.2943 0.0802
C1 C -0.7261(7) 0.0595(3) 0.0667(7)
H4 H -0.8545 0.0465 0.0267
C2 C -0.5898(7) 0.0196(3) 0.1649(6)
H5 H -0.6026 -0.0273 0.2055
C3 C -0.4226(6) 0.0616(2) 0.1959(5)
H6 H -0.3044 0.0482 0.2654
C4 C -0.4634(4) 0.30771(16) -0.1380(4)
C5 C -0.2696(5) 0.34625(18) -0.0635(4)
H7 H -0.1959 0.3425 -0.1357
C6 C -0.2910(7) 0.4286(2) -0.0302(6)
H8 H -0.3726 0.4335 0.0328
H9 H -0.3461 0.4550 -0.1264
H10 H -0.1677 0.4494 0.0240
Cl1 Cl -0.61967(13) 0.33158(5) 0.24155(11)
O3 O -0.4398(5) 0.2949(2) 0.2749(4)
O4 O -0.7485(5) 0.2718(2) 0.1652(5)
O5 O -0.6578(5) 0.35439(19) 0.3796(4)
O6 O -0.6237(8) 0.3920(2) 0.1462(5)
Cu1C Cu -0.79583(5) 0.291940(19) -0.40595(4)
Cu1C_2 Cu -0.79583(5) 0.291940(19) 0.59405(4)
O2C O -0.0724(3) 0.16034(13) 0.2418(3)
O5C O -0.1578(5) 0.14561(19) -0.1204(4)
loop_
_geom_bond_atom_site_label_1
_geom_bond_atom_site_label_2
_geom_bond_site_symmetry_1
_geom_bond_site_symmetry_2
Cu1 O1 1_555 1_555
O1 C4 1_555 1_555
O2 C4 1_555 1_555
N1 Cu1 1_555 1_555
N2 N1 1_555 1_555
H1 N2 1_555 1_555
N3 Cu1 1_555 1_555
H2 N3 1_555 1_555
H3 N3 1_555 1_555
C1 N2 1_555 1_555
H4 C1 1_555 1_555
C2 C1 1_555 1_555
H5 C2 1_555 1_555
C3 N1 1_555 1_555
H6 C3 1_555 1_555
C4 C5 1_555 1_555
C5 N3 1_555 1_555
H7 C5 1_555 1_555
C6 C5 1_555 1_555
H8 C6 1_555 1_555
H9 C6 1_555 1_555
H10 C6 1_555 1_555
Cl1 O3 1_555 1_555
O3 Cu1 1_555 1_555
O4 Cl1 1_555 1_555
O5 Cl1 1_555 1_555
O6 Cl1 1_555 1_555
Cu1C O2 1_555 1_555
Cu1C_2 O5 1_555 1_555
O2C Cu1 1_555 1_555
O5C Cu1 1_555 1_555
C2 C3 1_555 1_555

#END
