
#######################################################################
#
#                 Cambridge Crystallographic Data Centre
#                                CCDC 
#
#######################################################################
#
# If this CIF has been generated from an entry in the Cambridge 
# Structural Database, then it will include bibliographic, chemical, 
# crystal, experimental, refinement or atomic coordinate data resulting 
# from the CCDC's data processing and validation procedures.
#
#######################################################################

data_POLLEJ
_symmetry_cell_setting           monoclinic
_symmetry_space_group_name_H-M   'P 21'
_symmetry_Int_Tables_number      4
_space_group_name_Hall           'P 2yb'
loop_
_symmetry_equiv_pos_site_id
_symmetry_equiv_pos_as_xyz
1 x,y,z
2 -x,1/2+y,-z
_cell_length_a                   9.4313(18)
_cell_length_b                   18.766(4)
_cell_length_c                   10.432(2)
_cell_angle_alpha                90
_cell_angle_beta                 104.645(2)
_cell_angle_gamma                90
_cell_volume                     1786.35
loop_
_atom_site_label
_atom_site_type_symbol
_atom_site_fract_x
_atom_site_fract_y
_atom_site_fract_z
Cd1 Cd 0.88982(6) 0.45136(2) 0.37198(5)
Cd2 Cd 0.60622(6) 0.41306(2) 0.65259(5)
O1 O 0.6956(6) 0.3801(3) 0.3752(6)
O2 O 0.4938(6) 0.3837(3) 0.4472(5)
O3 O 0.4419(7) 0.3591(3) -0.2425(5)
O4 O 0.6023(6) 0.4324(3) -0.1228(5)
O5 O 1.0017(7) 0.4828(3) 0.5781(5)
O6 O 0.7994(6) 0.4834(3) 0.6479(5)
O7 O 0.8950(6) 0.4318(3) 1.1483(5)
O8 O 1.0524(7) 0.5084(3) 1.2686(6)
O9 O 0.7669(6) 0.2225(3) 1.0756(6)
O10 O 0.7407(6) 0.6431(3) -0.0529(6)
N1 N 0.7724(7) 0.3183(4) 0.7219(7)
N2 N 1.0013(8) 0.1877(4) 1.1088(7)
H1 H 1.0768 0.1828 1.0743
N3 N 1.0293(7) 0.3467(3) 1.4124(6)
N4 N 0.7193(8) 0.5454(4) 0.2975(7)
N5 N 0.5082(8) 0.6803(4) -0.0877(7)
H2 H 0.4338 0.6884 -0.0530
N6 N 0.4674(7) 0.5193(4) -0.3888(7)
C1 C 0.8501(10) 0.2873(5) 0.6485(8)
H3 H 0.8419 0.3051 0.5617
C2 C 0.9432(12) 0.2301(6) 0.6919(10)
H4 H 0.9987 0.2097 0.6369
C3 C 0.9526(9) 0.2041(5) 0.8159(8)
H5 H 1.0130 0.1641 0.8472
C4 C 0.8754(9) 0.2356(5) 0.8950(8)
C5 C 0.7862(9) 0.2921(4) 0.8458(8)
H6 H 0.7319 0.3139 0.9005
C6 C 0.8760(10) 0.2130(5) 1.0327(8)
C7 C 1.0177(10) 0.1682(5) 1.2449(8)
H7 H 1.0888 0.1285 1.2674
H8 H 0.9223 0.1507 1.2556
C8 C 1.1554(9) 0.3406(5) 1.5092(8)
H9 H 1.1857 0.3793 1.5684
C9 C 1.2415(9) 0.2799(5) 1.5246(8)
H10 H 1.3299 0.2770 1.5926
C10 C 1.1958(10) 0.2238(5) 1.4392(9)
H11 H 1.2532 0.1817 1.4488
C11 C 1.0685(8) 0.2279(4) 1.3401(7)
C12 C 0.9898(8) 0.2912(5) 1.3306(7)
H12 H 0.9025 0.2953 1.2616
C13 C 0.7135(9) 0.5723(5) 0.1771(9)
H13 H 0.7739 0.5518 0.1266
C14 C 0.6232(10) 0.6287(5) 0.1234(9)
C15 C 0.5315(10) 0.6559(5) 0.1982(9)
H14 H 0.4665 0.6943 0.1665
C16 C 0.5387(12) 0.6252(6) 0.3178(10)
H15 H 0.4775 0.6428 0.3703
C17 C 0.6321(10) 0.5695(5) 0.3648(8)
H16 H 0.6324 0.5485 0.4478
C18 C 0.6278(10) 0.6519(5) -0.0124(9)
C19 C 0.4931(11) 0.6987(5) -0.2252(9)
H17 H 0.5899 0.7134 -0.2368
H18 H 0.4259 0.7399 -0.2484
C20 C 0.3390(10) 0.5263(5) -0.4834(9)
H19 H 0.3052 0.4873 -0.5410
C21 C 0.2576(10) 0.5866(5) -0.4988(9)
H20 H 0.1698 0.5903 -0.5674
C22 C 0.3032(10) 0.6413(5) -0.4152(9)
H21 H 0.2444 0.6829 -0.4220
C23 C 0.4349(11) 0.6378(5) -0.3192(8)
C24 C 0.5136(10) 0.5742(5) -0.3091(9)
H22 H 0.6033 0.5701 -0.2429
C25 C 0.5576(9) 0.3806(4) 0.3555(8)
C26 C 0.4962(10) 0.3901(4) -0.1348(8)
C27 C 0.4662(8) 0.3744(4) 0.2172(7)
C28 C 0.5223(9) 0.3861(4) 0.1064(7)
H23 H 0.6208 0.4016 0.1191
C29 C 0.4382(8) 0.3758(4) -0.0186(8)
C30 C 0.2955(9) 0.3515(4) -0.0396(8)
H24 H 0.2386 0.3414 -0.1266
C31 C 0.2367(9) 0.3421(4) 0.0689(8)
H25 H 0.1378 0.3271 0.0552
C32 C 0.3207(8) 0.3542(4) 0.1969(8)
H26 H 0.2788 0.3488 0.2700
C33 C 0.9353(9) 0.4850(4) 0.6682(8)
C34 C 0.9979(9) 0.4772(4) 1.1585(8)
C35 C 1.0273(8) 0.4923(4) 0.8076(7)
C36 C 0.9705(9) 0.4814(4) 0.9146(7)
H27 H 0.8722 0.4654 0.9010
C37 C 1.0551(9) 0.4934(4) 1.0438(7)
C38 C 1.1981(9) 0.5203(4) 1.0609(9)
H28 H 1.2548 0.5319 1.1473
C39 C 1.2560(9) 0.5298(4) 0.9553(8)
H29 H 1.3539 0.5464 0.9692
C40 C 1.1741(9) 0.5157(4) 0.8279(8)
H30 H 1.2159 0.5217 0.7548
Cd1_2 Cd 0.88982(6) 0.45136(2) 1.37198(5)
Cd2_2 Cd 0.60622(6) 0.41306(2) -0.34741(5)
O3_2 O 0.4419(7) 0.3591(3) 0.7575(5)
O4_2 O 0.6023(6) 0.4324(3) 0.8772(5)
O7_2 O 0.8950(6) 0.4318(3) 0.1483(5)
O8_2 O 1.0524(7) 0.5084(3) 0.2686(6)
N3_2 N 1.0293(7) 0.3467(3) 0.4124(6)
N6_2 N 0.4674(7) 0.5193(4) 0.6112(7)
loop_
_geom_bond_atom_site_label_1
_geom_bond_atom_site_label_2
_geom_bond_site_symmetry_1
_geom_bond_site_symmetry_2
Cd1 O1 1_555 1_555
Cd2 O2 1_555 1_555
O1 C25 1_555 1_555
O2 C25 1_555 1_555
O3 C26 1_555 1_555
O4 C26 1_555 1_555
O5 Cd1 1_555 1_555
O6 Cd2 1_555 1_555
O7 C34 1_555 1_555
O8 C34 1_555 1_555
O9 C6 1_555 1_555
O10 C18 1_555 1_555
N1 Cd2 1_555 1_555
N2 H1 1_555 1_555
N3 C8 1_555 1_555
N4 Cd1 1_555 1_555
N5 H2 1_555 1_555
N6 C20 1_555 1_555
C1 N1 1_555 1_555
H3 C1 1_555 1_555
C2 C1 1_555 1_555
H4 C2 1_555 1_555
C3 C2 1_555 1_555
H5 C3 1_555 1_555
C4 C3 1_555 1_555
C5 N1 1_555 1_555
H6 C5 1_555 1_555
C6 N2 1_555 1_555
C7 N2 1_555 1_555
H7 C7 1_555 1_555
H8 C7 1_555 1_555
C8 H9 1_555 1_555
C9 C8 1_555 1_555
H10 C9 1_555 1_555
C10 C9 1_555 1_555
H11 C10 1_555 1_555
C11 C7 1_555 1_555
C12 N3 1_555 1_555
H12 C12 1_555 1_555
C13 N4 1_555 1_555
H13 C13 1_555 1_555
C14 C13 1_555 1_555
C15 C14 1_555 1_555
H14 C15 1_555 1_555
C16 C15 1_555 1_555
H15 C16 1_555 1_555
C17 N4 1_555 1_555
H16 C17 1_555 1_555
C18 N5 1_555 1_555
C19 N5 1_555 1_555
H17 C19 1_555 1_555
H18 C19 1_555 1_555
C20 H19 1_555 1_555
C21 C20 1_555 1_555
H20 C21 1_555 1_555
C22 C21 1_555 1_555
H21 C22 1_555 1_555
C23 C19 1_555 1_555
C24 N6 1_555 1_555
H22 C24 1_555 1_555
C25 C27 1_555 1_555
C26 C29 1_555 1_555
C27 C28 1_555 1_555
C28 H23 1_555 1_555
C29 C28 1_555 1_555
C30 C29 1_555 1_555
H24 C30 1_555 1_555
C31 C30 1_555 1_555
H25 C31 1_555 1_555
C32 C27 1_555 1_555
H26 C32 1_555 1_555
C33 O5 1_555 1_555
C34 C37 1_555 1_555
C35 C33 1_555 1_555
C36 C35 1_555 1_555
H27 C36 1_555 1_555
C37 C36 1_555 1_555
C38 C37 1_555 1_555
H28 C38 1_555 1_555
C39 C38 1_555 1_555
H29 C39 1_555 1_555
C40 C35 1_555 1_555
H30 C40 1_555 1_555
Cd1_2 O7 1_555 1_555
Cd2_2 O3 1_555 1_555
O3_2 Cd2 1_555 1_555
O4_2 Cd2 1_555 1_555
O7_2 Cd1 1_555 1_555
O8_2 Cd1 1_555 1_555
N3_2 Cd1 1_555 1_555
N6_2 Cd2 1_555 1_555
O4 Cd2_2 1_555 1_555
O6 C33 1_555 1_555
O8 Cd1_2 1_555 1_555
N3 Cd1_2 1_555 1_555
N6 Cd2_2 1_555 1_555
C4 C5 1_555 1_555
C4 C6 1_555 1_555
C10 C11 1_555 1_555
C11 C12 1_555 1_555
C14 C18 1_555 1_555
C16 C17 1_555 1_555
C22 C23 1_555 1_555
C23 C24 1_555 1_555
C31 C32 1_555 1_555
C39 C40 1_555 1_555

#END
