
#######################################################################
#
#                 Cambridge Crystallographic Data Centre
#                                CCDC 
#
#######################################################################
#
# If this CIF has been generated from an entry in the Cambridge 
# Structural Database, then it will include bibliographic, chemical, 
# crystal, experimental, refinement or atomic coordinate data resulting 
# from the CCDC's data processing and validation procedures.
#
#######################################################################

data_POLLAF
_symmetry_cell_setting           monoclinic
_symmetry_space_group_name_H-M   'P 21'
_symmetry_Int_Tables_number      4
_space_group_name_Hall           'P 2yb'
loop_
_symmetry_equiv_pos_site_id
_symmetry_equiv_pos_as_xyz
1 x,y,z
2 -x,1/2+y,-z
_cell_length_a                   9.5358(7)
_cell_length_b                   18.6543(13)
_cell_length_c                   10.1196(7)
_cell_angle_alpha                90
_cell_angle_beta                 104.2810(10)
_cell_angle_gamma                90
_cell_volume                     1744.48
loop_
_atom_site_label
_atom_site_type_symbol
_atom_site_fract_x
_atom_site_fract_y
_atom_site_fract_z
Ni1 Ni 0.89536(4) 0.301383(19) 0.86101(3)
Ni2 Ni 0.60276(4) 0.33438(2) 0.16145(3)
O1 O 0.7162(3) 0.35852(13) 0.8729(2)
O2 O 0.5270(3) 0.36567(13) 0.9653(2)
O3 O 0.4382(3) 0.37980(14) 0.2430(2)
O4 O 0.6080(2) 0.31251(13) 0.36897(19)
O5 O 0.9706(3) 0.26866(13) 1.0568(2)
O6 O 0.7808(3) 0.27699(13) 1.1478(2)
O7 O 0.8907(2) 0.32331(13) 1.65360(18)
O8 O 1.0603(3) 0.25542(15) 1.7802(2)
O9 O 0.7650(3) 0.10320(15) 0.4451(2)
O10 O 0.7432(3) 0.53267(15) 0.5798(2)
N1 N 0.7590(3) 0.21068(16) 0.7969(3)
N2 N 0.5308(3) 0.07198(16) 0.4101(3)
H1 H 0.4573 0.0658 0.4471
N3 N 0.4816(3) 0.23917(16) 0.1127(2)
N4 N 0.7375(3) 0.42563(17) 0.2230(3)
N5 N 0.9780(3) 0.56148(16) 0.6082(3)
H2 H 1.0506 0.5659 0.5694
N6 N 1.0167(3) 0.39607(17) 0.9095(3)
C1 C 0.6667(4) 0.1890(2) 0.8695(3)
H3 H 0.6702 0.2116 0.9544
C2 C 0.5667(4) 0.1350(2) 0.8260(3)
H4 H 0.5044 0.1204 0.8811
C3 C 0.5581(4) 0.1026(2) 0.7022(4)
H5 H 0.4884 0.0663 0.6698
C4 C 0.6523(4) 0.12382(19) 0.6253(3)
C5 C 0.7503(4) 0.1783(2) 0.6777(3)
H6 H 0.8149 0.1933 0.6252
C6 C 0.6542(4) 0.0971(2) 0.4871(3)
C7 C 0.5124(4) 0.0543(2) 0.2677(3)
H7 H 0.4446 0.0134 0.2439
H8 H 0.6067 0.0393 0.2522
C8 C 0.5295(4) 0.18196(19) 0.1896(3)
H9 H 0.6187 0.1854 0.2566
C9 C 0.4542(4) 0.11724(19) 0.1757(3)
C10 C 0.3233(4) 0.1137(2) 0.0782(3)
H10 H 0.2679 0.0708 0.0666
C11 C 0.2742(4) 0.1728(2) -0.0017(3)
H11 H 0.1851 0.1713 -0.0692
C12 C 0.3568(4) 0.2338(2) 0.0186(3)
H12 H 0.3233 0.2743 -0.0372
C13 C 0.8195(4) 0.4505(2) 0.1448(3)
H13 H 0.8110 0.4291 0.0579
C14 C 0.9171(5) 0.5061(2) 0.1840(4)
H14 H 0.9740 0.5222 0.1249
C15 C 0.9309(4) 0.5382(2) 0.3104(3)
H15 H 0.9962 0.5769 0.3390
C16 C 0.8469(4) 0.5123(2) 0.3936(3)
C17 C 0.7512(4) 0.4566(2) 0.3448(3)
H16 H 0.6921 0.4395 0.4011
C18 C 0.8507(4) 0.5373(2) 0.5339(3)
C19 C 0.9998(4) 0.5806(2) 0.7511(3)
H17 H 0.9076 0.5985 0.7670
H18 H 1.0719 0.6197 0.7736
C20 C 0.9742(4) 0.4541(2) 0.8304(3)
H19 H 0.8862 0.4513 0.7617
C21 C 1.0514(4) 0.51780(19) 0.8434(3)
C22 C 1.1793(4) 0.5209(2) 0.9446(3)
H20 H 1.2363 0.5633 0.9565
C23 C 1.2238(4) 0.4627(2) 1.0278(3)
H21 H 1.3106 0.4649 1.0981
C24 C 1.1404(4) 0.4007(2) 1.0082(3)
H22 H 1.1715 0.3606 1.0657
C25 C 0.5826(4) 0.36326(18) 0.8644(3)
C26 C 0.4974(4) 0.35206(18) 0.3569(3)
C27 C 0.4434(4) 0.36877(18) 0.4797(3)
C28 C 0.3048(4) 0.3967(2) 0.4660(3)
H23 H 0.2458 0.4075 0.3780
C29 C 0.2532(4) 0.4087(2) 0.5807(3)
H24 H 0.1581 0.4268 0.5713
C30 C 0.3405(4) 0.3944(2) 0.7091(3)
H25 H 0.3035 0.4010 0.7873
C31 C 0.4821(4) 0.37023(19) 0.7248(3)
C32 C 0.5324(4) 0.35668(18) 0.6087(3)
H26 H 0.6279 0.3391 0.6181
C33 C 0.9141(4) 0.27128(18) 1.1572(3)
C34 C 0.9999(4) 0.28264(18) 1.6655(3)
C35 C 1.0135(4) 0.26289(19) 1.2971(3)
C36 C 0.9645(4) 0.27689(18) 1.4130(3)
H27 H 0.8695 0.2951 1.4037
C37 C 1.0529(4) 0.26455(19) 1.5428(3)
C38 C 1.1906(4) 0.2354(2) 1.5561(3)
H28 H 1.2494 0.2242 1.6439
C39 C 1.2411(4) 0.22292(19) 1.4414(3)
H29 H 1.3355 0.2040 1.4507
C40 C 1.1548(4) 0.2378(2) 1.3134(3)
H30 H 1.1920 0.2310 1.2354
Ni1_2 Ni 0.89536(4) 0.301383(19) 1.86101(3)
Ni2_2 Ni 0.60276(4) 0.33438(2) 1.16145(3)
O2_2 O 0.5270(3) 0.36567(13) -0.0347(2)
O6_2 O 0.7808(3) 0.27699(13) 0.1478(2)
O7_2 O 0.8907(2) 0.32331(13) 0.65360(18)
O8_2 O 1.0603(3) 0.25542(15) 0.7802(2)
loop_
_geom_bond_atom_site_label_1
_geom_bond_atom_site_label_2
_geom_bond_site_symmetry_1
_geom_bond_site_symmetry_2
Ni1 O1 1_555 1_555
Ni2 O3 1_555 1_555
O1 C25 1_555 1_555
O2 C25 1_555 1_555
O3 C26 1_555 1_555
O4 Ni2 1_555 1_555
O5 Ni1 1_555 1_555
O6 C33 1_555 1_555
O7 C34 1_555 1_555
O8 C34 1_555 1_555
O9 C6 1_555 1_555
O10 C18 1_555 1_555
N1 Ni1 1_555 1_555
N2 H1 1_555 1_555
N3 Ni2 1_555 1_555
N4 Ni2 1_555 1_555
N5 H2 1_555 1_555
N6 Ni1 1_555 1_555
C1 N1 1_555 1_555
H3 C1 1_555 1_555
C2 C1 1_555 1_555
H4 C2 1_555 1_555
C3 C2 1_555 1_555
H5 C3 1_555 1_555
C4 C3 1_555 1_555
C5 N1 1_555 1_555
H6 C5 1_555 1_555
C6 N2 1_555 1_555
C7 N2 1_555 1_555
H7 C7 1_555 1_555
H8 C7 1_555 1_555
C8 N3 1_555 1_555
H9 C8 1_555 1_555
C9 C7 1_555 1_555
C10 C9 1_555 1_555
H10 C10 1_555 1_555
C11 C10 1_555 1_555
H11 C11 1_555 1_555
C12 N3 1_555 1_555
H12 C12 1_555 1_555
C13 N4 1_555 1_555
H13 C13 1_555 1_555
C14 C13 1_555 1_555
H14 C14 1_555 1_555
C15 C14 1_555 1_555
H15 C15 1_555 1_555
C16 C15 1_555 1_555
C17 N4 1_555 1_555
H16 C17 1_555 1_555
C18 N5 1_555 1_555
C19 N5 1_555 1_555
H17 C19 1_555 1_555
H18 C19 1_555 1_555
C20 N6 1_555 1_555
H19 C20 1_555 1_555
C21 C19 1_555 1_555
C22 C21 1_555 1_555
H20 C22 1_555 1_555
C23 C22 1_555 1_555
H21 C23 1_555 1_555
C24 N6 1_555 1_555
H22 C24 1_555 1_555
C25 C31 1_555 1_555
C26 O4 1_555 1_555
C27 C26 1_555 1_555
C28 C27 1_555 1_555
H23 C28 1_555 1_555
C29 C28 1_555 1_555
H24 C29 1_555 1_555
C30 C29 1_555 1_555
H25 C30 1_555 1_555
C31 C30 1_555 1_555
C32 C27 1_555 1_555
H26 C32 1_555 1_555
C33 O5 1_555 1_555
C34 C37 1_555 1_555
C35 C33 1_555 1_555
C36 C35 1_555 1_555
H27 C36 1_555 1_555
C37 C36 1_555 1_555
C38 C37 1_555 1_555
H28 C38 1_555 1_555
C39 C38 1_555 1_555
H29 C39 1_555 1_555
C40 C35 1_555 1_555
H30 C40 1_555 1_555
Ni1_2 O7 1_555 1_555
Ni2_2 O2 1_555 1_555
O2_2 Ni2 1_555 1_555
O6_2 Ni2 1_555 1_555
O7_2 Ni1 1_555 1_555
O8_2 Ni1 1_555 1_555
O6 Ni2_2 1_555 1_555
O8 Ni1_2 1_555 1_555
C4 C5 1_555 1_555
C4 C6 1_555 1_555
C8 C9 1_555 1_555
C11 C12 1_555 1_555
C16 C17 1_555 1_555
C16 C18 1_555 1_555
C20 C21 1_555 1_555
C23 C24 1_555 1_555
C31 C32 1_555 1_555
C39 C40 1_555 1_555

#END
