
#######################################################################
#
#                 Cambridge Crystallographic Data Centre
#                                CCDC 
#
#######################################################################
#
# If this CIF has been generated from an entry in the Cambridge 
# Structural Database, then it will include bibliographic, chemical, 
# crystal, experimental, refinement or atomic coordinate data resulting 
# from the CCDC's data processing and validation procedures.
#
#######################################################################

data_POLMEJ
_symmetry_cell_setting           monoclinic
_symmetry_space_group_name_H-M   'P 21/c'
_symmetry_Int_Tables_number      14
_space_group_name_Hall           '-P 2ybc'
loop_
_symmetry_equiv_pos_site_id
_symmetry_equiv_pos_as_xyz
1 x,y,z
2 -x,1/2+y,1/2-z
3 -x,-y,-z
4 x,1/2-y,1/2+z
_cell_length_a                   7.219(5)
_cell_length_b                   17.033(9)
_cell_length_c                   9.773(5)
_cell_angle_alpha                90
_cell_angle_beta                 121.23(4)
_cell_angle_gamma                90
_cell_volume                     1027.57
loop_
_atom_site_label
_atom_site_type_symbol
_atom_site_fract_x
_atom_site_fract_y
_atom_site_fract_z
Cu1 Cu 0.36701(7) 0.20295(2) 0.12383(5)
Cl1 Cl -0.17318(15) 0.15556(6) -0.22422(11)
O1 O 0.2965(5) 0.34312(15) -0.2258(3)
O2 O 0.3875(4) 0.24258(14) -0.0576(3)
O3 O -0.2876(8) 0.2029(3) -0.1712(6)
O4 O -0.1199(7) 0.2049(3) -0.3182(6)
O5 O -0.3070(10) 0.0946(3) -0.3114(8)
O6 O 0.0215(5) 0.1266(2) -0.0893(4)
N1 N 0.5614(5) 0.11595(17) 0.1554(4)
N2 N 0.6775(5) 0.11314(18) 0.0831(4)
H1 H 0.6755 0.1491 0.0207
N3 N 0.2132(6) 0.30234(18) 0.0999(4)
H2 H 0.0794 0.2919 0.0805
H3 H 0.2845 0.3298 0.1917
C1 C 0.7960(8) 0.0477(2) 0.1202(5)
C2 C 0.7605(8) 0.0069(2) 0.2241(7)
C3 C 0.6131(8) 0.0509(2) 0.2419(6)
C4 C 0.3040(6) 0.30796(19) -0.1091(4)
C5 C 0.1967(6) 0.3493(2) -0.0309(4)
H4 H 0.2656 0.3998 0.0101
H5 H 0.0453 0.3585 -0.1100
H6 H 0.888(6) 0.045(2) 0.077(5)
H7 H 0.835(7) -0.044(2) 0.275(5)
H8 H 0.526(8) 0.046(3) 0.283(7)
Cu1C Cu 0.36701(7) 0.29705(2) -0.37617(5)
O1C O 0.2965(5) 0.15688(15) 0.2742(3)
loop_
_geom_bond_atom_site_label_1
_geom_bond_atom_site_label_2
_geom_bond_site_symmetry_1
_geom_bond_site_symmetry_2
Cu1 O2 1_555 1_555
Cl1 O3 1_555 1_555
O1 C4 1_555 1_555
O2 C4 1_555 1_555
O4 Cl1 1_555 1_555
O5 Cl1 1_555 1_555
O6 Cu1 1_555 1_555
N1 Cu1 1_555 1_555
N2 N1 1_555 1_555
H1 N2 1_555 1_555
N3 Cu1 1_555 1_555
H2 N3 1_555 1_555
H3 N3 1_555 1_555
C1 N2 1_555 1_555
C2 C1 1_555 1_555
C3 N1 1_555 1_555
C4 C5 1_555 1_555
C5 N3 1_555 1_555
H4 C5 1_555 1_555
H5 C5 1_555 1_555
H6 C1 1_555 1_555
H7 C2 1_555 1_555
H8 C3 1_555 1_555
Cu1C O1 1_555 1_555
O1C Cu1 1_555 1_555
Cl1 O6 1_555 1_555
C2 C3 1_555 1_555

#END
