
#######################################################################
#
#                 Cambridge Crystallographic Data Centre
#                                CCDC 
#
#######################################################################
#
# If this CIF has been generated from an entry in the Cambridge 
# Structural Database, then it will include bibliographic, chemical, 
# crystal, experimental, refinement or atomic coordinate data resulting 
# from the CCDC's data processing and validation procedures.
#
#######################################################################

data_POLMOT
_symmetry_cell_setting           orthorhombic
_symmetry_space_group_name_H-M   'P c m n'
_symmetry_Int_Tables_number      62
_space_group_name_Hall           '-P 2n 2ac'
loop_
_symmetry_equiv_pos_site_id
_symmetry_equiv_pos_as_xyz
1 x,y,z
2 1/2+x,-y,1/2-z
3 -x,1/2+y,-z
4 1/2-x,1/2-y,1/2+z
5 -x,-y,-z
6 1/2-x,y,1/2+z
7 x,1/2-y,z
8 1/2+x,1/2+y,1/2-z
_cell_length_a                   10.0031(2)
_cell_length_b                   14.0175(3)
_cell_length_c                   21.3811(3)
_cell_angle_alpha                90
_cell_angle_beta                 90
_cell_angle_gamma                90
_cell_volume                     2998.02
loop_
_atom_site_label
_atom_site_type_symbol
_atom_site_fract_x
_atom_site_fract_y
_atom_site_fract_z
Er1 Er -0.07573(4) 0.2500 0.290860(15)
Cu1 Cu -0.18332(11) 0.2500 0.03015(5)
N1 N 0.2107(8) 0.2500 0.3002(3)
O1 O 0.1418(5) 0.1737(4) 0.2995(2)
O2 O 0.3309(8) 0.2500 0.3036(5)
C1 C -0.4643(9) 0.2500 0.0387(4)
C2 C -0.4218(9) 0.2500 0.1023(4)
C3 C -0.5128(9) 0.2500 0.1512(4)
C4 C -0.6514(10) 0.2500 0.1370(5)
C5 C -0.6938(10) 0.2500 0.0746(5)
C6 C -0.6014(9) 0.2500 0.0259(4)
N2 N -0.3604(7) 0.2500 -0.0042(3)
C7 C -0.3661(9) 0.2500 -0.0658(4)
C8 C -0.2253(9) 0.2500 -0.0949(3)
O3 O -0.4662(6) 0.2500 -0.1021(3)
O4 O -0.1255(6) 0.2500 -0.0596(3)
O5 O -0.2214(6) 0.2500 -0.1533(2)
N3 N -0.2818(7) 0.2500 0.1082(3)
C9 C -0.2067(8) 0.2500 0.1585(4)
C10 C -0.0591(9) 0.2500 0.1424(4)
O6 O -0.2413(6) 0.2500 0.2155(2)
O7 O 0.0178(7) 0.2500 0.1896(3)
O8 O -0.0230(7) 0.2500 0.0862(3)
S1 S -0.2157(3) 0.00780(18) 0.29247(14)
O9 O -0.1193(6) 0.0911(4) 0.2934(3)
C11 C -0.3713(12) 0.0527(9) 0.2647(7)
C12 C -0.2658(16) -0.0062(10) 0.3722(7)
S2 S -0.1914(3) 0.0138(2) 0.07617(13)
O10 O -0.1713(8) 0.0725(5) 0.0201(3)
C13 C -0.3679(11) -0.0152(9) 0.0754(6)
C14 C -0.1270(13) -0.1029(8) 0.0585(7)
Er1E Er -0.42427(4) 0.2500 -0.209140(15)
O1F O 0.1418(5) 0.3263(4) 0.2995(2)
O3E O -0.0338(6) 0.2500 0.3979(3)
O5E O -0.2786(6) 0.2500 0.3467(2)
S1F S -0.2157(3) 0.49220(18) 0.29247(14)
O9F O -0.1193(6) 0.4089(4) 0.2934(3)
C11F C -0.3713(12) 0.4473(9) 0.2647(7)
C12F C -0.2658(16) 0.5062(10) 0.3722(7)
S2F S -0.1914(3) 0.4862(2) 0.07617(13)
O10F O -0.1713(8) 0.4275(5) 0.0201(3)
C13F C -0.3679(11) 0.5152(9) 0.0754(6)
C14F C -0.1270(13) 0.6029(8) 0.0585(7)
loop_
_geom_bond_atom_site_label_1
_geom_bond_atom_site_label_2
_geom_bond_site_symmetry_1
_geom_bond_site_symmetry_2
Er1 O1 1_555 1_555
Cu1 N2 1_555 1_555
N1 O1 1_555 1_555
O2 N1 1_555 1_555
C1 C2 1_555 1_555
C2 C3 1_555 1_555
C3 C4 1_555 1_555
C4 C5 1_555 1_555
C5 C6 1_555 1_555
C6 C1 1_555 1_555
N2 C1 1_555 1_555
C7 N2 1_555 1_555
C8 C7 1_555 1_555
O3 C7 1_555 1_555
O4 Cu1 1_555 1_555
O5 C8 1_555 1_555
N3 Cu1 1_555 1_555
C9 N3 1_555 1_555
C10 C9 1_555 1_555
O6 Er1 1_555 1_555
O7 Er1 1_555 1_555
O8 Cu1 1_555 1_555
S1 O9 1_555 1_555
O9 Er1 1_555 1_555
C11 S1 1_555 1_555
C12 S1 1_555 1_555
S2 O10 1_555 1_555
O10 Cu1 1_555 1_555
C13 S2 1_555 1_555
C14 S2 1_555 1_555
Er1E O3 1_555 1_555
O1F Er1 1_555 1_555
O3E Er1 1_555 1_555
O5E Er1 1_555 1_555
S1F O9F 1_555 1_555
O9F Er1 1_555 1_555
C11F S1F 1_555 1_555
C12F S1F 1_555 1_555
S2F O10F 1_555 1_555
O10F Cu1 1_555 1_555
C13F S2F 1_555 1_555
C14F S2F 1_555 1_555
N1 O1F 1_555 1_555
C2 N3 1_555 1_555
C8 O4 1_555 1_555
O5 Er1E 1_555 1_555
C9 O6 1_555 1_555
C10 O7 1_555 1_555
C10 O8 1_555 1_555

#END
