
#######################################################################
#
#                 Cambridge Crystallographic Data Centre
#                                CCDC 
#
#######################################################################
#
# If this CIF has been generated from an entry in the Cambridge 
# Structural Database, then it will include bibliographic, chemical, 
# crystal, experimental, refinement or atomic coordinate data resulting 
# from the CCDC's data processing and validation procedures.
#
#######################################################################

data_POLMUZ
_symmetry_cell_setting           triclinic
_symmetry_space_group_name_H-M   'P -1'
_symmetry_Int_Tables_number      2
_space_group_name_Hall           '-P 1'
loop_
_symmetry_equiv_pos_site_id
_symmetry_equiv_pos_as_xyz
1 x,y,z
2 -x,-y,-z
_cell_length_a                   9.3644(19)
_cell_length_b                   10.929(3)
_cell_length_c                   12.025(3)
_cell_angle_alpha                105.566(3)
_cell_angle_beta                 94.993(3)
_cell_angle_gamma                107.268(3)
_cell_volume                     1113.36
loop_
_atom_site_label
_atom_site_type_symbol
_atom_site_fract_x
_atom_site_fract_y
_atom_site_fract_z
Zn1 Zn 0.10537(4) 0.69493(3) 0.21007(3)
O1 O -0.1080(3) 0.5811(2) 0.1433(2)
O2 O -0.1540(3) 0.7735(3) 0.1733(2)
O3 O 0.1843(3) 0.7878(2) 0.0965(2)
O4 O 0.3839(3) 0.8623(3) 0.2386(2)
N1 N 0.0576(3) 0.8683(3) 0.5476(2)
N2 N 0.2083(4) 0.8869(4) 0.5726(3)
N3 N 0.1175(3) 0.7833(3) 0.3814(2)
N4 N -0.1815(3) 0.6697(3) 0.8635(2)
N5 N -0.3194(3) 0.5969(3) 0.7942(3)
N6 N -0.1825(3) 0.4636(3) 0.8089(2)
C1 C -0.0245(5) 0.9155(4) 0.6393(3)
H1 H -0.1290 0.9025 0.6028
H2 H 0.0272 1.0130 0.6792
C2 C -0.0319(4) 0.8405(4) 0.7289(3)
H3 H 0.0719 0.8606 0.7713
H4 H -0.0751 0.7423 0.6886
C3 C -0.1309(4) 0.8826(3) 0.8163(3)
H5 H -0.0913 0.9818 0.8520
H6 H -0.2359 0.8575 0.7738
C4 C -0.1341(4) 0.8168(3) 0.9132(3)
H7 H -0.0317 0.8509 0.9625
H8 H -0.2057 0.8411 0.9638
C5 C 0.2383(5) 0.8350(5) 0.4700(3)
H9 H 0.3370 0.8337 0.4586
C6 C 0.0046(4) 0.8042(3) 0.4350(3)
H10 H -0.0984 0.7772 0.3979
C7 C -0.3154(4) 0.4736(4) 0.7639(3)
H11 H -0.3977 0.3983 0.7150
C8 C -0.1015(4) 0.5899(3) 0.8714(3)
H12 H -0.0015 0.6185 0.9150
C9 C -0.1962(4) 0.6502(3) 0.1334(3)
C10 C -0.3542(3) 0.5716(3) 0.0658(3)
C11 C -0.4544(4) 0.6389(3) 0.0475(3)
H13 H -0.4233 0.7341 0.0799
C12 C -0.4008(4) 0.4316(3) 0.0175(3)
H14 H -0.3330 0.3848 0.0293
C13 C 0.3240(4) 0.8568(3) 0.1409(3)
C14 C 0.4147(4) 0.9314(3) 0.0681(3)
C15 C 0.3538(4) 0.9129(4) -0.0476(3)
H15 H 0.2534 0.8527 -0.0807
C16 C 0.5625(4) 1.0189(4) 0.1145(3)
H16 H 0.6060 1.0318 0.1929
Zn1A Zn -1.10537(4) 0.30507(3) -0.21007(3)
Zn1A_2 Zn -0.10537(4) 0.30507(3) 0.78993(3)
Zn1A_3 Zn 0.89463(4) 1.30507(3) -0.21007(3)
O1A O -0.8920(3) 0.4189(2) -0.1433(2)
O2A O -0.8460(3) 0.2265(3) -0.1733(2)
O3A O 0.8157(3) 1.2122(2) -0.0965(2)
O3A_2 O -1.1843(3) 0.2122(2) -0.0965(2)
O4A O 0.6161(3) 1.1377(3) -0.2386(2)
N1A N -0.0576(3) 0.1317(3) 0.4524(2)
N2A N -0.2083(4) 0.1131(4) 0.4274(3)
N3A N -0.1175(3) 0.2167(3) 0.6186(2)
N3A_2 N -1.1175(3) 0.2167(3) -0.3814(2)
N4A N 0.1815(3) 0.3303(3) 0.1365(2)
N5A N 0.3194(3) 0.4031(3) 0.2058(3)
N6A N 0.1825(3) 0.5364(3) 0.1911(2)
N6_2 N -1.1825(3) 0.4636(3) -0.1911(2)
C1A C 0.0245(5) 0.0845(4) 0.3607(3)
H1A H 0.1290 0.0975 0.3972
H2A H -0.0272 -0.0130 0.3208
C2A C 0.0319(4) 0.1595(4) 0.2711(3)
H3A H -0.0719 0.1394 0.2287
H4A H 0.0751 0.2577 0.3114
C3A C 0.1309(4) 0.1174(3) 0.1837(3)
H5A H 0.0913 0.0182 0.1480
H6A H 0.2359 0.1425 0.2262
C4A C 0.1341(4) 0.1832(3) 0.0868(3)
H7A H 0.0317 0.1491 0.0375
H8A H 0.2057 0.1589 0.0362
C5A C -0.2383(5) 0.1650(5) 0.5300(3)
H9A H -0.3370 0.1663 0.5414
C6A C -0.0046(4) 0.1958(3) 0.5650(3)
H10A H 0.0984 0.2228 0.6021
C7A C 0.3154(4) 0.5264(4) 0.2361(3)
H11A H 0.3977 0.6017 0.2850
C8A C 0.1015(4) 0.4101(3) 0.1286(3)
H12A H 0.0015 0.3815 0.0850
C9A C -0.8038(4) 0.3498(3) -0.1334(3)
C10A C -0.6458(3) 0.4284(3) -0.0658(3)
C11A C -0.5456(4) 0.3611(3) -0.0475(3)
H13A H -0.5767 0.2659 -0.0799
C12A C -0.5992(4) 0.5684(3) -0.0175(3)
H14A H -0.6670 0.6152 -0.0293
C13A C 0.6760(4) 1.1432(3) -0.1409(3)
C14A C 0.5853(4) 1.0686(3) -0.0681(3)
C15A C 0.6462(4) 1.0871(4) 0.0476(3)
H15A H 0.7466 1.1473 0.0807
C16A C 0.4375(4) 0.9811(4) -0.1145(3)
H16A H 0.3940 0.9682 -0.1929
O5 O 0.3567(4) 0.2159(4) 0.6303(4)
O6 O 0.4169(4) 0.1162(4) 0.4094(3)
O7 O 0.5428(5) 0.3318(5) 0.3318(4)
O8 O 0.8307(6) 0.3961(5) 0.2817(5)
O10 O 0.6471(15) 0.5728(15) 0.4855(10)
O9? O 0.0705(13) 0.4844(12) 0.4783(13)
loop_
_geom_bond_atom_site_label_1
_geom_bond_atom_site_label_2
_geom_bond_site_symmetry_1
_geom_bond_site_symmetry_2
Zn1 O1 1_555 1_555
O1 C9 1_555 1_555
O2 C9 1_555 1_555
O3 Zn1 1_555 1_555
O4 C13 1_555 1_555
N1 N2 1_555 1_555
N2 C5 1_555 1_555
N3 Zn1 1_555 1_555
N4 N5 1_555 1_555
N5 C7 1_555 1_555
N6 C7 1_555 1_555
C1 N1 1_555 1_555
H1 C1 1_555 1_555
H2 C1 1_555 1_555
C2 C1 1_555 1_555
H3 C2 1_555 1_555
H4 C2 1_555 1_555
C3 C2 1_555 1_555
H5 C3 1_555 1_555
H6 C3 1_555 1_555
C4 N4 1_555 1_555
H7 C4 1_555 1_555
H8 C4 1_555 1_555
C5 N3 1_555 1_555
H9 C5 1_555 1_555
C6 N1 1_555 1_555
H10 C6 1_555 1_555
C7 H11 1_555 1_555
C8 N4 1_555 1_555
H12 C8 1_555 1_555
C9 C10 1_555 1_555
C10 C11 1_555 1_555
C11 H13 1_555 1_555
C12 C10 1_555 1_555
H14 C12 1_555 1_555
C13 O3 1_555 1_555
C14 C13 1_555 1_555
C15 C14 1_555 1_555
H15 C15 1_555 1_555
C16 C14 1_555 1_555
H16 C16 1_555 1_555
Zn1A O1A 1_555 1_555
Zn1A_2 N6 1_555 1_555
Zn1A_3 O3A 1_555 1_555
O1A C9A 1_555 1_555
O2A C9A 1_555 1_555
O3A C13A 1_555 1_555
O3A_2 Zn1A 1_555 1_555
O4A C13A 1_555 1_555
N1A N2A 1_555 1_555
N2A C5A 1_555 1_555
N3A Zn1A_2 1_555 1_555
N3A_2 Zn1A 1_555 1_555
N4A N5A 1_555 1_555
N5A C7A 1_555 1_555
N6A Zn1 1_555 1_555
N6_2 Zn1A 1_555 1_555
C1A N1A 1_555 1_555
H1A C1A 1_555 1_555
H2A C1A 1_555 1_555
C2A C1A 1_555 1_555
H3A C2A 1_555 1_555
H4A C2A 1_555 1_555
C3A C2A 1_555 1_555
H5A C3A 1_555 1_555
H6A C3A 1_555 1_555
C4A N4A 1_555 1_555
H7A C4A 1_555 1_555
H8A C4A 1_555 1_555
C5A N3A 1_555 1_555
H9A C5A 1_555 1_555
C6A N1A 1_555 1_555
H10A C6A 1_555 1_555
C7A N6A 1_555 1_555
H11A C7A 1_555 1_555
C8A N4A 1_555 1_555
H12A C8A 1_555 1_555
C9A C10A 1_555 1_555
C10A C11A 1_555 1_555
C11A C12 1_555 1_555
H13A C11A 1_555 1_555
C12A C11 1_555 1_555
H14A C12A 1_555 1_555
C13A C14A 1_555 1_555
C14A C15A 1_555 1_555
C15A C16 1_555 1_555
H15A C15A 1_555 1_555
C16A C15 1_555 1_555
H16A C16A 1_555 1_555
N3 C6 1_555 1_555
N6 C8 1_555 1_555
C3 C4 1_555 1_555
N3A C6A 1_555 1_555
N6A C8A 1_555 1_555
C3A C4A 1_555 1_555
C10A C12A 1_555 1_555
C14A C16A 1_555 1_555

#END
