
#######################################################################
#
#                 Cambridge Crystallographic Data Centre
#                                CCDC 
#
#######################################################################
#
# If this CIF has been generated from an entry in the Cambridge 
# Structural Database, then it will include bibliographic, chemical, 
# crystal, experimental, refinement or atomic coordinate data resulting 
# from the CCDC's data processing and validation procedures.
#
#######################################################################

data_POLNUA
_symmetry_cell_setting           triclinic
_symmetry_space_group_name_H-M   'P -1'
_symmetry_Int_Tables_number      2
_space_group_name_Hall           '-P 1'
loop_
_symmetry_equiv_pos_site_id
_symmetry_equiv_pos_as_xyz
1 x,y,z
2 -x,-y,-z
_cell_length_a                   14.841(2)
_cell_length_b                   14.922(2)
_cell_length_c                   22.270(3)
_cell_angle_alpha                89.452(2)
_cell_angle_beta                 89.428(2)
_cell_angle_gamma                75.592(2)
_cell_volume                     4776.38
loop_
_atom_site_label
_atom_site_type_symbol
_atom_site_fract_x
_atom_site_fract_y
_atom_site_fract_z
P1 P 0.2338(3) 1.1229(3) 0.27389(18)
P2 P 0.2678(3) 1.3774(3) 0.27213(18)
W1 W 0.13798(5) 1.41926(5) 0.40594(3)
W2 W 0.17754(5) 1.60998(5) 0.22531(4)
W3 W 0.29155(6) 1.56737(5) 0.35700(4)
W4 W 0.36179(5) 1.08187(5) 0.40748(3)
W5 W 0.10848(5) 1.17643(5) 0.40914(3)
W6 W 0.20805(6) 0.93397(6) 0.36194(4)
W7 W 0.38732(5) 1.32822(6) 0.13342(3)
W8 W 0.32389(6) 0.89052(6) 0.23012(4)
W9 W 0.39135(5) 1.32481(5) 0.40674(3)
W10 W 0.50968(5) 1.28001(5) 0.27691(3)
W11 W 0.09005(5) 0.97730(6) 0.23147(4)
W12 W -0.00860(5) 1.22083(5) 0.27972(3)
W13 W 0.47705(5) 1.03831(5) 0.27628(3)
W14 W 0.41128(5) 1.52330(6) 0.22654(4)
W15 W 0.02412(5) 1.46258(5) 0.27501(3)
W16 W 0.15628(5) 1.40974(6) 0.13385(3)
W17 W 0.34590(5) 1.09015(6) 0.13540(3)
W18 W 0.11485(5) 1.17184(6) 0.13574(3)
O1 O 0.2375(9) 1.1503(9) 0.2076(6)
O3 O 0.3246(8) 1.1190(8) 0.3055(5)
O5 O 0.1506(8) 1.1843(8) 0.3064(5)
O7 O 0.2180(9) 1.0206(9) 0.2735(5)
O9 O 0.2810(9) 1.4798(9) 0.2715(5)
O10 O 0.3507(8) 1.3158(9) 0.3044(5)
O11 O 0.1750(9) 1.3823(8) 0.3044(5)
O12 O 0.2638(8) 1.3491(8) 0.2058(5)
O13 O 0.4648(9) 1.2748(9) 0.1976(5)
O14 O 0.5030(9) 1.1562(9) 0.2888(6)
O15 O 0.4349(9) 1.0765(9) 0.1977(5)
O16 O 0.1130(10) 1.7122(10) 0.1952(6)
O17 O 0.4958(10) 1.5709(10) 0.1987(7)
O18 O 0.3892(10) 0.7895(10) 0.2022(6)
O19 O 0.3031(10) 1.6437(10) 0.4111(6)
O20 O 0.4324(9) 1.3318(9) 0.4763(6)
O21 O 0.3530(9) 1.2114(10) 0.1250(5)
O22 O 0.2372(10) 1.1499(9) 0.4227(6)
O23 O 0.1082(9) 0.9204(9) 0.3097(6)
O24 O 0.0662(9) 1.1716(9) 0.4796(6)
O25 O 0.3999(10) 1.0439(11) 0.4787(6)
O26 O 0.3011(10) 1.6101(10) 0.1995(6)
O27 O 0.0042(10) 0.9297(10) 0.2041(6)
O28 O 0.2923(9) 0.8517(10) 0.3086(7)
O29 O 0.1491(9) 1.2848(9) 0.1247(6)
O30 O 0.3919(9) 1.5787(9) 0.3046(5)
O31 O 0.4643(11) 1.3172(11) 0.0746(6)
O32 O 0.3966(10) 1.1955(10) 0.4059(6)
O33 O 0.0303(8) 1.4744(8) 0.3596(5)
O34 O 0.1933(9) 1.5210(9) 0.3860(6)
O35 O 0.5876(9) 0.9744(10) 0.2628(6)
O36 O 0.4704(8) 1.0246(8) 0.3624(5)
O37 O 0.1744(9) 1.5247(9) 0.1625(6)
O38 O 0.6250(10) 1.2601(10) 0.2658(6)
O39 O -0.1247(9) 1.2420(9) 0.2692(6)
O40 O 0.1969(9) 0.8592(9) 0.4176(6)
O41 O 0.2620(10) 1.3512(9) 0.4203(5)
O42 O 0.2085(9) 1.6455(9) 0.3037(6)
O43 O 0.0996(9) 1.4564(9) 0.4770(6)
O44 O 0.0199(9) 1.0888(9) 0.2677(6)
O45 O -0.0037(9) 1.2004(9) 0.3649(5)
O46 O 0.3280(9) 0.9730(9) 0.1665(5)
O47 O -0.0865(9) 1.5248(9) 0.2621(7)
O48 O 0.3066(9) 0.9806(9) 0.3892(5)
O49 O 0.0852(9) 1.4545(9) 0.0738(6)
O50 O 0.4172(9) 1.0457(9) 0.0749(5)
O51 O 0.1069(9) 1.0546(9) 0.1661(6)
O52 O 0.4810(9) 1.4122(9) 0.2638(5)
O53 O 0.1296(9) 1.0473(9) 0.3902(5)
O54 O 0.3944(9) 1.4446(9) 0.1620(6)
O55 O 0.1026(9) 1.3056(9) 0.4064(6)
O56 O 0.3709(8) 1.4533(8) 0.3860(6)
O57 O 0.4159(9) 0.9405(9) 0.2654(5)
O58 O -0.0017(9) 1.3446(9) 0.2894(5)
O59 O 0.5048(9) 1.3004(9) 0.3618(5)
O60 O 0.0850(8) 1.5596(9) 0.2630(6)
O61 O 0.2302(9) 1.1124(10) 0.0957(6)
O62 O 0.0385(10) 1.1838(10) 0.0769(6)
O63 O 0.0673(8) 1.4220(8) 0.1973(5)
O64 O 0.2738(9) 1.3854(9) 0.0920(5)
O65 O 0.0373(8) 1.2240(9) 0.2002(6)
O66 O 0.2008(9) 0.8882(9) 0.2045(7)
Fe1 Fe 0.5000 1.0000 0.0000
Fe2 Fe 0.0000 1.5000 0.0000
C1 C 0.607(2) 0.7908(18) 0.0318(11)
H1 H 0.6196 0.7754 -0.0084
C2 C 0.5550(15) 0.8661(15) 0.1104(9)
H2 H 0.5259 0.9126 0.1367
C3 C 0.6231(15) 0.7418(16) 0.1875(10)
H3 H 0.5953 0.6899 0.1934
H4 H 0.5970 0.7882 0.2174
C4 C 0.7260(16) 0.7101(15) 0.1952(9)
H5 H 0.7514 0.6669 0.1634
H6 H 0.7386 0.6769 0.2331
C5 C 0.7771(15) 0.7882(15) 0.1943(9)
H7 H 0.7531 0.8303 0.1614
H8 H 0.7630 0.8228 0.2313
C6 C 0.8785(18) 0.7564(18) 0.1876(11)
H9 H 0.9032 0.7092 0.2176
H10 H 0.9068 0.8076 0.1933
C7 C 0.897(2) 0.7103(19) 0.0318(11)
H11 H 0.8857 0.7260 -0.0084
C8 C 0.9459(16) 0.6351(16) 0.1090(11)
H12 H 0.9752 0.5884 0.1353
C9 C 0.2996(19) 0.986(3) -0.0255(13)
H13 H 0.2799 1.0199 0.0089
C10 C 0.3879(16) 0.9066(16) -0.0878(11)
H14 H 0.4409 0.8766 -0.1091
C11 C 0.266(2) 0.8816(19) -0.1616(12)
H15 H 0.2163 0.8520 -0.1533
H16 H 0.3167 0.8366 -0.1809
C12 C 0.2323(15) 0.9617(17) -0.2033(10)
H17 H 0.1787 1.0033 -0.1848
H18 H 0.2806 0.9949 -0.2073
C13 C 0.206(2) 0.9397(18) -0.2641(13)
H19 H 0.2590 0.8971 -0.2825
H20 H 0.1566 0.9078 -0.2603
C14 C 0.1745(18) 1.0196(19) -0.3047(10)
H21 H 0.1188 1.0601 -0.2877
H22 H 0.2221 1.0540 -0.3062
C15 C 0.2028(17) 1.514(2) -0.0303(12)
H23 H 0.2242 1.4787 0.0038
C16 C 0.1132(18) 1.5955(19) -0.0909(11)
H24 H 0.0607 1.6293 -0.1107
C17 C 0.233(2) 1.614(2) -0.1666(13)
H25 H 0.2829 1.6430 -0.1587
H26 H 0.1833 1.6596 -0.1859
C18 C 0.2674(16) 1.5371(17) -0.2093(11)
H27 H 0.2209 1.5017 -0.2116
H28 H 0.3228 1.4966 -0.1922
C19 C 0.2909(19) 1.561(2) -0.2727(11)
H29 H 0.2345 1.5950 -0.2922
H30 H 0.3335 1.6003 -0.2714
C20 C 0.332(2) 1.481(2) -0.3078(12)
H31 H 0.2901 1.4403 -0.3067
H32 H 0.3891 1.4486 -0.2885
N1 N 0.5564(13) 0.8745(13) 0.0512(7)
N2 N 0.637(2) 0.7337(19) 0.0775(11)
N3 N 0.6015(15) 0.7812(14) 0.1267(8)
N4 N 0.868(2) 0.7684(18) 0.0759(11)
N5 N 0.9005(12) 0.7178(13) 0.1265(9)
N6 N 0.9460(12) 0.6250(13) 0.0505(8)
N7 N 0.3885(12) 0.9494(12) -0.0386(7)
N8 N 0.2401(16) 0.968(2) -0.0671(13)
N9 N 0.2993(14) 0.9108(15) -0.1050(9)
N10 N 0.1561(18) 0.9985(17) -0.3613(9)
N11 N 0.2192(17) 1.008(2) -0.4080(13)
C29 C 0.179(2) 0.992(2) -0.4635(10)
H45 H 0.2060 0.9938 -0.5013
N12 N 0.0918(19) 0.9732(19) -0.4511(11)
C30 C 0.0774(17) 0.977(2) -0.3879(12)
H46 H 0.0255 0.9676 -0.3675
N13 N 0.2584(16) 1.534(2) -0.0722(11)
N14 N 0.1111(12) 1.5502(13) -0.0420(7)
N15 N 0.1976(14) 1.5883(15) -0.1091(9)
N16 N 0.2936(15) 1.501(2) -0.4139(9)
N17 N 0.3528(15) 1.4964(18) -0.3699(8)
C31 C 0.4308(13) 1.509(2) -0.3928(10)
H47 H 0.4844 1.5087 -0.3716
N18 N 0.4198(17) 1.521(2) -0.4510(10)
C32 C 0.3350(18) 1.516(2) -0.4641(10)
H48 H 0.3088 1.5222 -0.5021
P1A P 0.7662(3) 0.8771(3) -0.27389(18)
P2A P 0.7322(3) 0.6226(3) -0.27213(18)
W1A W 0.86202(5) 0.58074(5) -0.40594(3)
W2A W 0.82246(5) 0.39002(5) -0.22531(4)
W3A W 0.70845(6) 0.43263(5) -0.35700(4)
W4A W 0.63821(5) 0.91813(5) -0.40748(3)
W5A W 0.89152(5) 0.82357(5) -0.40914(3)
W6A W 0.79195(6) 1.06603(6) -0.36194(4)
W7A W 0.61268(5) 0.67178(6) -0.13342(3)
W8A W 0.67611(6) 1.10948(6) -0.23012(4)
W9A W 0.60865(5) 0.67519(5) -0.40674(3)
W10A W 0.49032(5) 0.71999(5) -0.27691(3)
W11A W 0.90995(5) 1.02270(6) -0.23147(4)
W12A W 1.00860(5) 0.77917(5) -0.27972(3)
W13A W 0.52295(5) 0.96169(5) -0.27628(3)
W14A W 0.58872(5) 0.47670(6) -0.22654(4)
W15A W 0.97588(5) 0.53742(5) -0.27501(3)
W16A W 0.84372(5) 0.59026(6) -0.13385(3)
W17A W 0.65410(5) 0.90985(6) -0.13540(3)
W18A W 0.88515(5) 0.82816(6) -0.13574(3)
O1A O 0.7625(9) 0.8497(9) -0.2076(6)
O3A O 0.6754(8) 0.8810(8) -0.3055(5)
O5A O 0.8494(8) 0.8157(8) -0.3064(5)
O7A O 0.7820(9) 0.9794(9) -0.2735(5)
O9A O 0.7190(9) 0.5202(9) -0.2715(5)
O10A O 0.6493(8) 0.6842(9) -0.3044(5)
O11A O 0.8250(9) 0.6177(8) -0.3044(5)
O12A O 0.7362(8) 0.6509(8) -0.2058(5)
O13A O 0.5352(9) 0.7252(9) -0.1976(5)
O14A O 0.4970(9) 0.8438(9) -0.2888(6)
O15A O 0.5651(9) 0.9235(9) -0.1977(5)
O16A O 0.8870(10) 0.2878(10) -0.1952(6)
O17A O 0.5042(10) 0.4291(10) -0.1987(7)
O18A O 0.6108(10) 1.2105(10) -0.2022(6)
O19A O 0.6969(10) 0.3563(10) -0.4111(6)
O20A O 0.5676(9) 0.6682(9) -0.4763(6)
O21A O 0.6470(9) 0.7886(10) -0.1250(5)
O22A O 0.7628(10) 0.8501(9) -0.4227(6)
O23A O 0.8918(9) 1.0796(9) -0.3097(6)
O24A O 0.9338(9) 0.8284(9) -0.4796(6)
O25A O 0.6001(10) 0.9561(11) -0.4787(6)
O26A O 0.6989(10) 0.3899(10) -0.1995(6)
O27A O 0.9958(10) 1.0703(10) -0.2041(6)
O28A O 0.7077(9) 1.1483(10) -0.3086(7)
O29A O 0.8509(9) 0.7152(9) -0.1247(6)
O30A O 0.6081(9) 0.4213(9) -0.3046(5)
O31A O 0.5357(11) 0.6828(11) -0.0746(6)
O32A O 0.6034(10) 0.8045(10) -0.4059(6)
O33A O 0.9697(8) 0.5256(8) -0.3596(5)
O34A O 0.8067(9) 0.4790(9) -0.3860(6)
O35A O 0.4124(9) 1.0256(10) -0.2628(6)
O36A O 0.5296(8) 0.9754(8) -0.3624(5)
O37A O 0.8256(9) 0.4753(9) -0.1625(6)
O38A O 0.3750(10) 0.7399(10) -0.2658(6)
O39A O 1.1247(9) 0.7580(9) -0.2692(6)
O40A O 0.8031(9) 1.1408(9) -0.4176(6)
O41A O 0.7380(10) 0.6488(9) -0.4203(5)
O42A O 0.7915(9) 0.3545(9) -0.3037(6)
O43A O 0.9004(9) 0.5436(9) -0.4770(6)
O44A O 0.9801(9) 0.9112(9) -0.2677(6)
O45A O 1.0037(9) 0.7996(9) -0.3649(5)
O46A O 0.6720(9) 1.0270(9) -0.1665(5)
O47A O 1.0865(9) 0.4752(9) -0.2621(7)
O48A O 0.6934(9) 1.0194(9) -0.3892(5)
O49A O 0.9148(9) 0.5455(9) -0.0738(6)
O49A_2 O -0.0852(9) 1.5455(9) -0.0738(6)
O50A O 0.5828(9) 0.9543(9) -0.0749(5)
O51A O 0.8931(9) 0.9454(9) -0.1661(6)
O52A O 0.5190(9) 0.5878(9) -0.2638(5)
O53A O 0.8704(9) 0.9527(9) -0.3902(5)
O54A O 0.6056(9) 0.5554(9) -0.1620(6)
O55A O 0.8974(9) 0.6944(9) -0.4064(6)
O56A O 0.6291(8) 0.5467(8) -0.3860(6)
O57A O 0.5841(9) 1.0595(9) -0.2654(5)
O58A O 1.0017(9) 0.6554(9) -0.2894(5)
O59A O 0.4952(9) 0.6996(9) -0.3618(5)
O60A O 0.9150(8) 0.4404(9) -0.2630(6)
O61A O 0.7698(9) 0.8876(10) -0.0957(6)
O62A O 0.9615(10) 0.8162(10) -0.0769(6)
O63A O 0.9327(8) 0.5780(8) -0.1973(5)
O64A O 0.7262(9) 0.6146(9) -0.0920(5)
O65A O 0.9627(8) 0.7760(9) -0.2002(6)
O66A O 0.7992(9) 1.1118(9) -0.2045(7)
Fe2_2 Fe 1.0000 0.5000 0.0000
C1A C 0.393(2) 1.2092(18) -0.0318(11)
H1A H 0.3804 1.2246 0.0084
C2A C 0.4450(15) 1.1339(15) -0.1104(9)
H2A H 0.4741 1.0874 -0.1367
C3A C 0.3769(15) 1.2582(16) -0.1875(10)
H3A H 0.4047 1.3101 -0.1934
H4A H 0.4030 1.2118 -0.2174
C4A C 0.2740(16) 1.2899(15) -0.1952(9)
H5A H 0.2486 1.3331 -0.1634
H6A H 0.2614 1.3231 -0.2331
C5A C 0.2229(15) 1.2118(15) -0.1943(9)
H7A H 0.2469 1.1697 -0.1614
H8A H 0.2370 1.1772 -0.2313
C6A C 0.1215(18) 1.2436(18) -0.1876(11)
H9A H 0.0968 1.2908 -0.2176
H10A H 0.0932 1.1924 -0.1933
C7A C 0.103(2) 1.2897(19) -0.0318(11)
H11A H 0.1143 1.2740 0.0084
C8A C 0.0541(16) 1.3649(16) -0.1090(11)
H12A H 0.0248 1.4116 -0.1353
C9A C 0.7004(19) 1.014(3) 0.0255(13)
H13A H 0.7201 0.9801 -0.0089
C10A C 0.6121(16) 1.0934(16) 0.0878(11)
H14A H 0.5591 1.1234 0.1091
C11A C 0.734(2) 1.1184(19) 0.1616(12)
H15A H 0.7837 1.1480 0.1533
H16A H 0.6833 1.1634 0.1809
C12A C 0.7677(15) 1.0383(17) 0.2033(10)
H17A H 0.8213 0.9967 0.1848
H18A H 0.7194 1.0051 0.2073
C13A C 0.794(2) 1.0603(18) 0.2641(13)
H19A H 0.7410 1.1029 0.2825
H20A H 0.8434 1.0922 0.2603
C14A C 0.8255(18) 0.9804(19) 0.3047(10)
H21A H 0.8812 0.9399 0.2877
H22A H 0.7779 0.9460 0.3062
C15A C -0.2028(17) 1.486(2) 0.0303(12)
H23A H -0.2242 1.5213 -0.0038
C16A C -0.1132(18) 1.4045(19) 0.0909(11)
H24A H -0.0607 1.3707 0.1107
C17A C -0.233(2) 1.386(2) 0.1666(13)
H25A H -0.2829 1.3570 0.1587
H26A H -0.1833 1.3404 0.1859
C18A C -0.2674(16) 1.4629(17) 0.2093(11)
H27A H -0.2209 1.4983 0.2116
H28A H -0.3228 1.5034 0.1922
C19A C -0.2909(19) 1.439(2) 0.2727(11)
H29A H -0.2345 1.4050 0.2922
H30A H -0.3335 1.3997 0.2714
C20A C -0.332(2) 1.519(2) 0.3078(12)
H31A H -0.2901 1.5597 0.3067
H32A H -0.3891 1.5514 0.2885
N1A N 0.4436(13) 1.1255(13) -0.0512(7)
N2A N 0.363(2) 1.2663(19) -0.0775(11)
N3A N 0.3985(15) 1.2188(14) -0.1267(8)
N4A N 0.132(2) 1.2316(18) -0.0759(11)
N5A N 0.0995(12) 1.2822(13) -0.1265(9)
N6A N 0.0540(12) 1.3750(13) -0.0505(8)
N6_2 N -0.0540(12) 1.6250(13) 0.0505(8)
N7A N 0.6115(12) 1.0506(12) 0.0386(7)
N8A N 0.7599(16) 1.032(2) 0.0671(13)
N9A N 0.7007(14) 1.0892(15) 0.1050(9)
N10A N 0.8439(18) 1.0015(17) 0.3613(9)
N11A N 0.7808(17) 0.992(2) 0.4080(13)
C29A C 0.821(2) 1.008(2) 0.4635(10)
H45A H 0.7940 1.0062 0.5013
N12A N 0.9082(19) 1.0268(19) 0.4511(11)
C30A C 0.9226(17) 1.023(2) 0.3879(12)
H46A H 0.9745 1.0324 0.3675
N13A N -0.2584(16) 1.466(2) 0.0722(11)
N14A N -0.1111(12) 1.4498(13) 0.0420(7)
N15A N -0.1976(14) 1.4117(15) 0.1091(9)
N16A N -0.2936(15) 1.499(2) 0.4139(9)
N17A N -0.3528(15) 1.5036(18) 0.3699(8)
C31A C -0.4308(13) 1.491(2) 0.3928(10)
H47A H -0.4844 1.4913 0.3716
N18A N -0.4198(17) 1.479(2) 0.4510(10)
C32A C -0.3350(18) 1.484(2) 0.4641(10)
H48A H -0.3088 1.4778 0.5021
O2 O 0.3853(15) -0.1039(17) -1.4250(9)
O4 O -0.1141(16) 0.3942(16) -0.5757(10)
O6 O 0.3450(11) 0.7477(15) -1.4818(9)
O8 O -0.1565(12) -0.7455(15) -1.5162(8)
C21 C 0.0017(18) -0.6793(17) -1.4369(10)
H33 H -0.0006 -0.6478 -1.4733
C22 C -0.0296(17) -0.7582(17) -1.3633(12)
H34 H -0.0605 -0.7932 -1.3398
C23 C 0.1434(15) -0.6407(17) -1.3945(13)
H35 H 0.1505 -0.6192 -1.3542
H36 H 0.1291 -0.5872 -1.4210
C24 C 0.233(3) -0.705(3) -1.414(2)
H37 H 0.2250 -0.7271 -1.4541
H38 H 0.2807 -0.6711 -1.4164
C25 C 0.262(3) -0.780(3) -1.3762(19)
H39 H 0.2120 -0.8114 -1.3729
H40 H 0.2704 -0.7569 -1.3366
C26 C 0.3551(15) -0.8543(16) -1.3947(11)
H41 H 0.3654 -0.9068 -1.3674
H42 H 0.3490 -0.8765 -1.4349
C27 C 0.4974(17) -0.8167(16) -1.4354(12)
H43 H 0.4985 -0.8477 -1.4715
C28 C 0.5264(16) -0.7364(16) -1.3621(10)
H44 H 0.5545 -0.6998 -1.3387
N19 N -0.0584(14) -0.7259(13) -1.4169(9)
N20 N 0.0449(14) -0.7371(13) -1.3463(8)
N21 N 0.0651(12) -0.6866(12) -1.3949(8)
N22 N 0.4517(15) -0.7631(13) -1.3464(9)
N23 N 0.4367(12) -0.8113(13) -1.3928(8)
N24 N 0.5578(13) -0.7700(14) -1.4183(11)
loop_
_geom_bond_atom_site_label_1
_geom_bond_atom_site_label_2
_geom_bond_site_symmetry_1
_geom_bond_site_symmetry_2
P1 O1 1_555 1_555
P2 O9 1_555 1_555
W1 O11 1_555 1_555
W2 O9 1_555 1_555
W3 O9 1_555 1_555
W4 O3 1_555 1_555
W5 O5 1_555 1_555
W6 O7 1_555 1_555
W7 O12 1_555 1_555
W8 O7 1_555 1_555
W9 O10 1_555 1_555
W10 O10 1_555 1_555
W11 O7 1_555 1_555
W12 O5 1_555 1_555
W13 O3 1_555 1_555
W14 O9 1_555 1_555
W15 O11 1_555 1_555
W16 O12 1_555 1_555
W17 O1 1_555 1_555
W18 O1 1_555 1_555
O3 P1 1_555 1_555
O5 P1 1_555 1_555
O7 P1 1_555 1_555
O10 P2 1_555 1_555
O11 P2 1_555 1_555
O12 P2 1_555 1_555
O13 W7 1_555 1_555
O14 W10 1_555 1_555
O15 W13 1_555 1_555
O16 W2 1_555 1_555
O17 W14 1_555 1_555
O18 W8 1_555 1_555
O19 W3 1_555 1_555
O20 W9 1_555 1_555
O21 W7 1_555 1_555
O22 W4 1_555 1_555
O23 W6 1_555 1_555
O24 W5 1_555 1_555
O25 W4 1_555 1_555
O26 W2 1_555 1_555
O27 W11 1_555 1_555
O28 W6 1_555 1_555
O29 W16 1_555 1_555
O30 W3 1_555 1_555
O31 W7 1_555 1_555
O32 W4 1_555 1_555
O33 W1 1_555 1_555
O34 W1 1_555 1_555
O35 W13 1_555 1_555
O36 W4 1_555 1_555
O37 W2 1_555 1_555
O38 W10 1_555 1_555
O39 W12 1_555 1_555
O40 W6 1_555 1_555
O41 W1 1_555 1_555
O42 W2 1_555 1_555
O43 W1 1_555 1_555
O44 W11 1_555 1_555
O45 W5 1_555 1_555
O46 W8 1_555 1_555
O47 W15 1_555 1_555
O48 W4 1_555 1_555
O49 W16 1_555 1_555
O50 W17 1_555 1_555
O51 W11 1_555 1_555
O52 W10 1_555 1_555
O53 W5 1_555 1_555
O54 W7 1_555 1_555
O55 W1 1_555 1_555
O56 W3 1_555 1_555
O57 W8 1_555 1_555
O58 W12 1_555 1_555
O59 W9 1_555 1_555
O60 W2 1_555 1_555
O61 W17 1_555 1_555
O62 W18 1_555 1_555
O63 W15 1_555 1_555
O64 W7 1_555 1_555
O65 W12 1_555 1_555
O66 W8 1_555 1_555
Fe1 O50 1_555 1_555
Fe2 O49 1_555 1_555
C1 H1 1_555 1_555
C2 H2 1_555 1_555
C3 H3 1_555 1_555
H4 C3 1_555 1_555
C4 C3 1_555 1_555
H5 C4 1_555 1_555
H6 C4 1_555 1_555
C5 C4 1_555 1_555
H7 C5 1_555 1_555
H8 C5 1_555 1_555
C6 C5 1_555 1_555
H9 C6 1_555 1_555
H10 C6 1_555 1_555
C7 H11 1_555 1_555
C8 H12 1_555 1_555
C9 H13 1_555 1_555
C10 H14 1_555 1_555
C11 H15 1_555 1_555
H16 C11 1_555 1_555
C12 C11 1_555 1_555
H17 C12 1_555 1_555
H18 C12 1_555 1_555
C13 C12 1_555 1_555
H19 C13 1_555 1_555
H20 C13 1_555 1_555
C14 C13 1_555 1_555
H21 C14 1_555 1_555
H22 C14 1_555 1_555
C15 H23 1_555 1_555
C16 H24 1_555 1_555
C17 H25 1_555 1_555
H26 C17 1_555 1_555
C18 C17 1_555 1_555
H27 C18 1_555 1_555
H28 C18 1_555 1_555
C19 C18 1_555 1_555
H29 C19 1_555 1_555
H30 C19 1_555 1_555
C20 C19 1_555 1_555
H31 C20 1_555 1_555
H32 C20 1_555 1_555
C21 H33 1_555 1_555
C22 H34 1_555 1_555
C23 H35 1_555 1_555
H36 C23 1_555 1_555
C24 C23 1_555 1_555
H37 C24 1_555 1_555
H38 C24 1_555 1_555
C25 C24 1_555 1_555
H39 C25 1_555 1_555
H40 C25 1_555 1_555
C26 C25 1_555 1_555
H41 C26 1_555 1_555
H42 C26 1_555 1_555
C27 H43 1_555 1_555
C28 H44 1_555 1_555
N1 Fe1 1_555 1_555
N2 C1 1_555 1_555
N3 C2 1_555 1_555
N4 C7 1_555 1_555
N5 C6 1_555 1_555
N6 C7 1_555 1_555
N7 Fe1 1_555 1_555
N8 C9 1_555 1_555
N9 C10 1_555 1_555
N10 C14 1_555 1_555
N11 N10 1_555 1_555
C29 N11 1_555 1_555
H45 C29 1_555 1_555
N12 C29 1_555 1_555
C30 N10 1_555 1_555
H46 C30 1_555 1_555
N13 C15 1_555 1_555
N14 Fe2 1_555 1_555
N15 C16 1_555 1_555
N16 N17 1_555 1_555
N17 C20 1_555 1_555
C31 N17 1_555 1_555
H47 C31 1_555 1_555
N18 C31 1_555 1_555
C32 N16 1_555 1_555
H48 C32 1_555 1_555
N19 C21 1_555 1_555
N20 C22 1_555 1_555
N21 C21 1_555 1_555
N22 C28 1_555 1_555
N23 C26 1_555 1_555
N24 C27 1_555 1_555
P1A O1A 1_555 1_555
P2A O9A 1_555 1_555
W1A O11A 1_555 1_555
W2A O9A 1_555 1_555
W3A O9A 1_555 1_555
W4A O3A 1_555 1_555
W5A O5A 1_555 1_555
W6A O7A 1_555 1_555
W7A O12A 1_555 1_555
W8A O7A 1_555 1_555
W9A O10A 1_555 1_555
W10A O10A 1_555 1_555
W11A O7A 1_555 1_555
W12A O5A 1_555 1_555
W13A O3A 1_555 1_555
W14A O9A 1_555 1_555
W15A O11A 1_555 1_555
W16A O12A 1_555 1_555
W17A O1A 1_555 1_555
W18A O1A 1_555 1_555
O3A P1A 1_555 1_555
O5A P1A 1_555 1_555
O7A P1A 1_555 1_555
O10A P2A 1_555 1_555
O11A P2A 1_555 1_555
O12A P2A 1_555 1_555
O13A W7A 1_555 1_555
O14A W10A 1_555 1_555
O15A W13A 1_555 1_555
O16A W2A 1_555 1_555
O17A W14A 1_555 1_555
O18A W8A 1_555 1_555
O19A W3A 1_555 1_555
O20A W9A 1_555 1_555
O21A W7A 1_555 1_555
O22A W4A 1_555 1_555
O23A W6A 1_555 1_555
O24A W5A 1_555 1_555
O25A W4A 1_555 1_555
O26A W2A 1_555 1_555
O27A W11A 1_555 1_555
O28A W6A 1_555 1_555
O29A W16A 1_555 1_555
O30A W3A 1_555 1_555
O31A W7A 1_555 1_555
O32A W4A 1_555 1_555
O33A W1A 1_555 1_555
O34A W1A 1_555 1_555
O35A W13A 1_555 1_555
O36A W4A 1_555 1_555
O37A W2A 1_555 1_555
O38A W10A 1_555 1_555
O39A W12A 1_555 1_555
O40A W6A 1_555 1_555
O41A W1A 1_555 1_555
O42A W2A 1_555 1_555
O43A W1A 1_555 1_555
O44A W11A 1_555 1_555
O45A W5A 1_555 1_555
O46A W8A 1_555 1_555
O47A W15A 1_555 1_555
O48A W4A 1_555 1_555
O49A W16A 1_555 1_555
O49A_2 Fe2 1_555 1_555
O50A Fe1 1_555 1_555
O51A W11A 1_555 1_555
O52A W10A 1_555 1_555
O53A W5A 1_555 1_555
O54A W7A 1_555 1_555
O55A W1A 1_555 1_555
O56A W3A 1_555 1_555
O57A W8A 1_555 1_555
O58A W12A 1_555 1_555
O59A W9A 1_555 1_555
O60A W2A 1_555 1_555
O61A W17A 1_555 1_555
O62A W18A 1_555 1_555
O63A W15A 1_555 1_555
O64A W7A 1_555 1_555
O65A W12A 1_555 1_555
O66A W8A 1_555 1_555
Fe2_2 N6 1_555 1_555
C1A H1A 1_555 1_555
C2A H2A 1_555 1_555
C3A H3A 1_555 1_555
H4A C3A 1_555 1_555
C4A C3A 1_555 1_555
H5A C4A 1_555 1_555
H6A C4A 1_555 1_555
C5A C4A 1_555 1_555
H7A C5A 1_555 1_555
H8A C5A 1_555 1_555
C6A C5A 1_555 1_555
H9A C6A 1_555 1_555
H10A C6A 1_555 1_555
C7A H11A 1_555 1_555
C8A H12A 1_555 1_555
C9A H13A 1_555 1_555
C10A H14A 1_555 1_555
C11A H15A 1_555 1_555
H16A C11A 1_555 1_555
C12A C11A 1_555 1_555
H17A C12A 1_555 1_555
H18A C12A 1_555 1_555
C13A C12A 1_555 1_555
H19A C13A 1_555 1_555
H20A C13A 1_555 1_555
C14A C13A 1_555 1_555
H21A C14A 1_555 1_555
H22A C14A 1_555 1_555
C15A H23A 1_555 1_555
C16A H24A 1_555 1_555
C17A H25A 1_555 1_555
H26A C17A 1_555 1_555
C18A C17A 1_555 1_555
H27A C18A 1_555 1_555
H28A C18A 1_555 1_555
C19A C18A 1_555 1_555
H29A C19A 1_555 1_555
H30A C19A 1_555 1_555
C20A C19A 1_555 1_555
H31A C20A 1_555 1_555
H32A C20A 1_555 1_555
N1A Fe1 1_555 1_555
N2A C1A 1_555 1_555
N3A C2A 1_555 1_555
N4A C7A 1_555 1_555
N5A C6A 1_555 1_555
N6A Fe2 1_555 1_555
N6_2 Fe2 1_555 1_555
N7A Fe1 1_555 1_555
N8A C9A 1_555 1_555
N9A C10A 1_555 1_555
N10A C14A 1_555 1_555
N11A N10A 1_555 1_555
C29A N11A 1_555 1_555
H45A C29A 1_555 1_555
N12A C29A 1_555 1_555
C30A N10A 1_555 1_555
H46A C30A 1_555 1_555
N13A C15A 1_555 1_555
N14A Fe2 1_555 1_555
N15A C16A 1_555 1_555
N16A N17A 1_555 1_555
N17A C20A 1_555 1_555
C31A N17A 1_555 1_555
H47A C31A 1_555 1_555
N18A C31A 1_555 1_555
C32A N16A 1_555 1_555
H48A C32A 1_555 1_555
W3 O34 1_555 1_555
W3 O42 1_555 1_555
W5 O22 1_555 1_555
W5 O55 1_555 1_555
W6 O48 1_555 1_555
W6 O53 1_555 1_555
W8 O28 1_555 1_555
W9 O32 1_555 1_555
W9 O41 1_555 1_555
W9 O56 1_555 1_555
W10 O13 1_555 1_555
W10 O59 1_555 1_555
W11 O23 1_555 1_555
W11 O66 1_555 1_555
W12 O44 1_555 1_555
W12 O45 1_555 1_555
W13 O14 1_555 1_555
W13 O36 1_555 1_555
W13 O57 1_555 1_555
W14 O26 1_555 1_555
W14 O30 1_555 1_555
W14 O52 1_555 1_555
W14 O54 1_555 1_555
W15 O33 1_555 1_555
W15 O58 1_555 1_555
W15 O60 1_555 1_555
W16 O37 1_555 1_555
W16 O63 1_555 1_555
W16 O64 1_555 1_555
W17 O15 1_555 1_555
W17 O21 1_555 1_555
W17 O46 1_555 1_555
W18 O29 1_555 1_555
W18 O51 1_555 1_555
W18 O61 1_555 1_555
W18 O65 1_555 1_555
C1 N1 1_555 1_555
C2 N1 1_555 1_555
C3 N3 1_555 1_555
C8 N5 1_555 1_555
C8 N6 1_555 1_555
C9 N7 1_555 1_555
C10 N7 1_555 1_555
C11 N9 1_555 1_555
C15 N14 1_555 1_555
C16 N14 1_555 1_555
C17 N15 1_555 1_555
C22 N19 1_555 1_555
C23 N21 1_555 1_555
C27 N23 1_555 1_555
C28 N24 1_555 1_555
N2 N3 1_555 1_555
N4 N5 1_555 1_555
N8 N9 1_555 1_555
N12 C30 1_555 1_555
N13 N15 1_555 1_555
N18 C32 1_555 1_555
N20 N21 1_555 1_555
N22 N23 1_555 1_555
W3A O34A 1_555 1_555
W3A O42A 1_555 1_555
W5A O22A 1_555 1_555
W5A O55A 1_555 1_555
W6A O48A 1_555 1_555
W6A O53A 1_555 1_555
W8A O28A 1_555 1_555
W9A O32A 1_555 1_555
W9A O41A 1_555 1_555
W9A O56A 1_555 1_555
W10A O13A 1_555 1_555
W10A O59A 1_555 1_555
W11A O23A 1_555 1_555
W11A O66A 1_555 1_555
W12A O44A 1_555 1_555
W12A O45A 1_555 1_555
W13A O14A 1_555 1_555
W13A O36A 1_555 1_555
W13A O57A 1_555 1_555
W14A O26A 1_555 1_555
W14A O30A 1_555 1_555
W14A O52A 1_555 1_555
W14A O54A 1_555 1_555
W15A O33A 1_555 1_555
W15A O58A 1_555 1_555
W15A O60A 1_555 1_555
W16A O37A 1_555 1_555
W16A O63A 1_555 1_555
W16A O64A 1_555 1_555
W17A O15A 1_555 1_555
W17A O21A 1_555 1_555
W17A O46A 1_555 1_555
W17A O50A 1_555 1_555
W18A O29A 1_555 1_555
W18A O51A 1_555 1_555
W18A O61A 1_555 1_555
W18A O65A 1_555 1_555
O49A Fe2_2 1_555 1_555
C1A N1A 1_555 1_555
C2A N1A 1_555 1_555
C3A N3A 1_555 1_555
C7A N6A 1_555 1_555
C8A N5A 1_555 1_555
C8A N6A 1_555 1_555
C9A N7A 1_555 1_555
C10A N7A 1_555 1_555
C11A N9A 1_555 1_555
C15A N14A 1_555 1_555
C16A N14A 1_555 1_555
C17A N15A 1_555 1_555
N2A N3A 1_555 1_555
N4A N5A 1_555 1_555
N8A N9A 1_555 1_555
N12A C30A 1_555 1_555
N13A N15A 1_555 1_555
N18A C32A 1_555 1_555

#END
