
#######################################################################
#
#                 Cambridge Crystallographic Data Centre
#                                CCDC 
#
#######################################################################
#
# If this CIF has been generated from an entry in the Cambridge 
# Structural Database, then it will include bibliographic, chemical, 
# crystal, experimental, refinement or atomic coordinate data resulting 
# from the CCDC's data processing and validation procedures.
#
#######################################################################

data_POLNIO
_symmetry_cell_setting           monoclinic
_symmetry_space_group_name_H-M   'P 21/c'
_symmetry_Int_Tables_number      14
_space_group_name_Hall           '-P 2ybc'
loop_
_symmetry_equiv_pos_site_id
_symmetry_equiv_pos_as_xyz
1 x,y,z
2 -x,1/2+y,1/2-z
3 -x,-y,-z
4 x,1/2-y,1/2+z
_cell_length_a                   5.9448(7)
_cell_length_b                   9.0543(11)
_cell_length_c                   24.673(3)
_cell_angle_alpha                90.00
_cell_angle_beta                 93.4650(10)
_cell_angle_gamma                90.00
_cell_volume                     1325.62
loop_
_atom_site_label
_atom_site_type_symbol
_atom_site_fract_x
_atom_site_fract_y
_atom_site_fract_z
Cd1 Cd 0.67091(3) -0.04947(2) 0.796678(9)
Cd2 Cd 0.83877(3) -0.43251(2) 0.829150(9)
Cl1 Cl 0.81992(13) -0.17731(8) 0.88784(3)
P1 P 0.07761(12) 0.21892(8) 0.79116(3)
P2 P 0.37076(12) 0.45767(8) 0.84812(3)
O1 O 0.5137(4) 0.1789(2) 0.82852(9)
O2 O 0.0054(3) 0.0591(2) 0.79787(9)
O3 O -0.1123(3) 0.3264(2) 0.80089(8)
O4 O 0.1770(3) 0.2391(2) 0.73562(8)
O5 O 0.5831(3) 0.4765(2) 0.88626(8)
O6 O 0.1684(4) 0.5286(2) 0.87186(9)
O7 O 0.4239(4) 0.5126(2) 0.79172(9)
O8 O 0.3379(4) -0.1501(3) 0.81443(11)
N1 N 0.4937(5) 0.3351(3) 1.03002(11)
C1 C 0.3492(5) 0.3157(4) 0.98635(12)
H1 H 0.2163 0.3700 0.9832
C2 C 0.3968(5) 0.2158(3) 0.94623(12)
C3 C 0.5981(6) 0.1370(4) 0.95308(14)
H2 H 0.6359 0.0688 0.9270
C4 C 0.7422(6) 0.1598(4) 0.99853(14)
H3 H 0.8765 0.1073 1.0029
C5 C 0.6861(6) 0.2596(4) 1.03701(14)
H4 H 0.7813 0.2748 1.0678
C6 C 0.2347(5) 0.1922(3) 0.89721(12)
H5 H 0.0912 0.2365 0.9046
H6 H 0.2101 0.0870 0.8926
C7 C 0.3121(4) 0.2563(3) 0.84306(11)
H7 H 0.322(7) -0.235(2) 0.8028(19)
H8 H 0.235(5) -0.094(3) 0.8048(17)
H9 H 0.464(6) 0.403(4) 1.0572(15)
H10 H 0.613(8) 0.237(5) 0.8244(19)
Cd1_2 Cd -0.32909(3) -0.04947(2) 0.796678(9)
Cd1A Cd 0.32909(3) 0.45053(2) 0.703322(9)
Cd2_2 Cd -0.16123(3) 0.56749(2) 0.829150(9)
Cd2A Cd 0.16123(3) 0.06749(2) 0.670850(9)
Cd2_3 Cd 0.83877(3) 0.56749(2) 0.829150(9)
O2_2 O 1.0054(3) 0.0591(2) 0.79787(9)
O3_2 O 0.8877(3) -0.6736(2) 0.80089(8)
O4A O 0.8230(3) -0.2609(2) 0.76438(8)
O5_2 O 0.5831(3) -0.5235(2) 0.88626(8)
O6_2 O 1.1684(4) -0.4714(2) 0.87186(9)
O7A O 0.5761(4) 0.0126(2) 0.70828(9)
O7_2 O 0.4239(4) -0.4874(2) 0.79172(9)
loop_
_geom_bond_atom_site_label_1
_geom_bond_atom_site_label_2
_geom_bond_site_symmetry_1
_geom_bond_site_symmetry_2
Cd1 Cl1 1_555 1_555
Cd2 Cl1 1_555 1_555
P1 O2 1_555 1_555
P2 O5 1_555 1_555
O1 Cd1 1_555 1_555
O2 Cd1_2 1_555 1_555
O3 P1 1_555 1_555
O4 P1 1_555 1_555
O5 Cd2_3 1_555 1_555
O6 P2 1_555 1_555
O7 P2 1_555 1_555
O8 Cd1 1_555 1_555
N1 C1 1_555 1_555
C1 H1 1_555 1_555
C2 C1 1_555 1_555
C3 C2 1_555 1_555
H2 C3 1_555 1_555
C4 C3 1_555 1_555
H3 C4 1_555 1_555
C5 N1 1_555 1_555
H4 C5 1_555 1_555
C6 C2 1_555 1_555
H5 C6 1_555 1_555
H6 C6 1_555 1_555
C7 P1 1_555 1_555
H7 O8 1_555 1_555
H8 O8 1_555 1_555
H9 N1 1_555 1_555
H10 O1 1_555 1_555
Cd1A O4 1_555 1_555
Cd2_2 O3 1_555 1_555
Cd2A O4 1_555 1_555
Cd2_3 O7 1_555 1_555
O2_2 Cd1 1_555 1_555
O3_2 Cd2 1_555 1_555
O4A Cd1 1_555 1_555
O5_2 Cd2 1_555 1_555
O6_2 Cd2 1_555 1_555
O7A Cd1 1_555 1_555
O7_2 Cd2 1_555 1_555
Cd2 O4A 1_555 1_555
P2 C7 1_555 1_555
O1 C7 1_555 1_555
O6 Cd2_2 1_555 1_555
O7 Cd1A 1_555 1_555
C4 C5 1_555 1_555
C6 C7 1_555 1_555
Cd2A O7A 1_555 1_555

#END
