
#######################################################################
#
#                 Cambridge Crystallographic Data Centre
#                                CCDC 
#
#######################################################################
#
# If this CIF has been generated from an entry in the Cambridge 
# Structural Database, then it will include bibliographic, chemical, 
# crystal, experimental, refinement or atomic coordinate data resulting 
# from the CCDC's data processing and validation procedures.
#
#######################################################################

data_POLNOU
_symmetry_cell_setting           monoclinic
_symmetry_space_group_name_H-M   'C 2/c'
_symmetry_Int_Tables_number      15
_space_group_name_Hall           '-C 2yn'
loop_
_symmetry_equiv_pos_site_id
_symmetry_equiv_pos_as_xyz
1 x,y,z
2 1/2+x,1/2+y,z
3 -x,y,1/2-z
4 1/2-x,1/2+y,1/2-z
5 -x,-y,-z
6 1/2-x,1/2-y,-z
7 x,-y,1/2+z
8 1/2+x,1/2-y,1/2+z
_cell_length_a                   10.751(2)
_cell_length_b                   8.5706(17)
_cell_length_c                   12.414(3)
_cell_angle_alpha                90
_cell_angle_beta                 90.30(3)
_cell_angle_gamma                90
_cell_volume                     1143.84
loop_
_atom_site_label
_atom_site_type_symbol
_atom_site_fract_x
_atom_site_fract_y
_atom_site_fract_z
Eu1 Eu 0.5000 0.52503(3) 0.7500
Ag1 Ag 0.5000 0.09927(5) 0.7500
O1 O 0.5502(2) 0.3436(3) 0.60360(18)
O2 O 0.5456(2) 0.3572(3) 0.42438(18)
O3 O 0.3438(2) 0.2860(3) 0.27946(19)
O4 O 0.1916(2) 0.1100(3) 0.29268(18)
N1 N 0.4066(2) 0.0769(3) 0.6007(2)
N2 N 0.2728(3) -0.0014(3) 0.4791(2)
C1 C 0.5095(3) 0.3017(4) 0.5128(3)
C2 C 0.4175(3) 0.1720(4) 0.5109(2)
C3 C 0.3326(3) 0.1235(4) 0.4344(3)
C4 C 0.2872(3) 0.1784(4) 0.3279(3)
C5 C 0.3191(3) -0.0263(4) 0.5777(3)
H1 H 0.2933 -0.1053 0.6238
H2 H 0.212(3) -0.062(5) 0.453(3)
Eu1F Eu 0.5000 0.47497(3) 0.2500
Eu1G Eu 0.0000 -0.02503(3) 0.2500
Eu1F_2 Eu 0.5000 0.47497(3) 1.2500
Eu1G_2 Eu 1.0000 -0.02503(3) 1.2500
O1B O 0.4498(2) 0.3436(3) 0.89640(18)
O2B O 0.4544(2) 0.3572(3) 1.07562(18)
O2F O 0.5456(2) 0.6428(3) 0.92438(18)
O2D O 0.4544(2) 0.6428(3) 0.57562(18)
O3B O 0.6562(2) 0.2860(3) 1.22054(19)
O3F O 0.3438(2) 0.7140(3) 0.77946(19)
O3D O 0.6562(2) 0.7140(3) 0.72054(19)
O4B O 0.8084(2) 0.1100(3) 1.20732(18)
O4G O 0.6916(2) 0.3900(3) 0.79268(18)
O4E O 0.3084(2) 0.3900(3) 0.70732(18)
N1B N 0.5934(2) 0.0769(3) 0.8993(2)
N2B N 0.7272(3) -0.0014(3) 1.0209(2)
C1B C 0.4905(3) 0.3017(4) 0.9872(3)
C2B C 0.5825(3) 0.1720(4) 0.9891(2)
C3B C 0.6674(3) 0.1235(4) 1.0656(3)
C4B C 0.7128(3) 0.1784(4) 1.1721(3)
C5B C 0.6809(3) -0.0263(4) 0.9223(3)
H1B H 0.7067 -0.1053 0.8762
H2B H 0.788(3) -0.062(5) 1.047(3)
loop_
_geom_bond_atom_site_label_1
_geom_bond_atom_site_label_2
_geom_bond_site_symmetry_1
_geom_bond_site_symmetry_2
Eu1 O1 1_555 1_555
Ag1 N1 1_555 1_555
O1 C1 1_555 1_555
O2 C1 1_555 1_555
O3 C4 1_555 1_555
O4 C4 1_555 1_555
N1 C2 1_555 1_555
N2 C3 1_555 1_555
C1 C2 1_555 1_555
C2 C3 1_555 1_555
C3 C4 1_555 1_555
C5 N1 1_555 1_555
H1 C5 1_555 1_555
H2 N2 1_555 1_555
Eu1F O2 1_555 1_555
Eu1G O4 1_555 1_555
Eu1F_2 O2B 1_555 1_555
Eu1G_2 O4B 1_555 1_555
O1B Eu1 1_555 1_555
O2B C1B 1_555 1_555
O2F Eu1 1_555 1_555
O2D Eu1 1_555 1_555
O3B Eu1F_2 1_555 1_555
O3F Eu1 1_555 1_555
O3D Eu1 1_555 1_555
O4B C4B 1_555 1_555
O4G Eu1 1_555 1_555
O4E Eu1 1_555 1_555
N1B Ag1 1_555 1_555
N2B C3B 1_555 1_555
C1B O1B 1_555 1_555
C2B N1B 1_555 1_555
C3B C2B 1_555 1_555
C4B O3B 1_555 1_555
C5B N1B 1_555 1_555
H1B C5B 1_555 1_555
H2B N2B 1_555 1_555
O3 Eu1F 1_555 1_555
N2 C5 1_555 1_555
N2B C5B 1_555 1_555
C1B C2B 1_555 1_555
C3B C4B 1_555 1_555

#END
