
#######################################################################
#
#                 Cambridge Crystallographic Data Centre
#                                CCDC 
#
#######################################################################
#
# If this CIF has been generated from an entry in the Cambridge 
# Structural Database, then it will include bibliographic, chemical, 
# crystal, experimental, refinement or atomic coordinate data resulting 
# from the CCDC's data processing and validation procedures.
#
#######################################################################

data_POLPOW
_symmetry_cell_setting           monoclinic
_symmetry_space_group_name_H-M   'P 21/n'
_symmetry_Int_Tables_number      14
_space_group_name_Hall           '-P 2yn'
loop_
_symmetry_equiv_pos_site_id
_symmetry_equiv_pos_as_xyz
1 x,y,z
2 1/2-x,1/2+y,1/2-z
3 -x,-y,-z
4 1/2+x,1/2-y,1/2+z
_cell_length_a                   9.4080(7)
_cell_length_b                   8.9402(6)
_cell_length_c                   9.5207(6)
_cell_angle_alpha                90
_cell_angle_beta                 101.213(3)
_cell_angle_gamma                90
_cell_volume                     785.494
loop_
_atom_site_label
_atom_site_type_symbol
_atom_site_fract_x
_atom_site_fract_y
_atom_site_fract_z
Zn1 Zn 0.0000 0.5000 0.5000
Zn2 Zn 0.59593(4) 0.70285(4) 0.80846(4)
Mo1 Mo -0.21130(3) 0.82382(3) 0.54404(3)
C1 C 0.3600(3) 0.7549(3) 0.5435(3)
H1 H 0.4084 0.8354 0.5125
C2 C 0.3110(3) 0.5663(3) 0.6613(3)
N1 N 0.3201(3) 0.4567(3) 0.7602(3)
H2 H 0.2488 0.3960 0.7583
H3 H 0.3971 0.4475 0.8251
N2 N 0.1970(3) 0.5886(3) 0.5579(3)
N3 N 0.4162(3) 0.6699(3) 0.6594(3)
N4 N 0.2307(3) 0.7112(3) 0.4804(3)
O1 O 0.6290(3) 0.4873(2) 0.8753(3)
O2 O -0.0464(2) 0.4816(2) 0.7224(2)
H4 H -0.1343 0.4425 0.7361
H5 H 0.0223 0.5131 0.8007
O3 O -0.0878(2) 0.7271(2) 0.4572(2)
O4 O 0.7459(3) 0.7038(2) 0.6782(2)
O5 O -0.3704(3) 0.8663(3) 0.4269(3)
Zn2B Zn -0.59593(4) 0.29715(4) 0.19154(4)
Zn2C Zn 0.09593(4) 0.79715(4) 0.30846(4)
Zn2A Zn -0.09593(4) 0.20285(4) 0.69154(4)
Zn2A_2 Zn -0.09593(4) 1.20285(4) 0.69154(4)
Zn2_2 Zn -0.40407(4) 0.70285(4) 0.80846(4)
Mo1B Mo 0.21130(3) 0.17618(3) 0.45596(3)
Mo1A Mo 0.71130(3) 0.32382(3) 0.95596(3)
Mo1_2 Mo 0.78870(3) 0.82382(3) 0.54404(3)
C1B C -0.3600(3) 0.2451(3) 0.4565(3)
H1B H -0.4084 0.1646 0.4875
C2B C -0.3110(3) 0.4337(3) 0.3387(3)
N1B N -0.3201(3) 0.5433(3) 0.2398(3)
H2B H -0.2488 0.6040 0.2417
H3B H -0.3971 0.5525 0.1749
N2B N -0.1970(3) 0.4114(3) 0.4421(3)
N3B N -0.4162(3) 0.3301(3) 0.3406(3)
N4B N -0.2307(3) 0.2888(3) 0.5196(3)
N4C N 0.7307(3) 0.7888(3) 0.9804(3)
N4A N -0.7307(3) 0.2112(3) 0.0196(3)
O1A O -0.1290(3) 0.9873(2) 0.6247(3)
O1B O -0.6290(3) 0.5127(2) 0.1247(3)
O1C O 0.1290(3) 0.0127(2) 0.3753(3)
O2B O 0.0464(2) 0.5184(2) 0.2776(2)
H4B H 0.1343 0.5575 0.2639
H5B H -0.0223 0.4869 0.1993
O3B O 0.0878(2) 0.2729(2) 0.5428(2)
O4_2 O -0.2541(3) 0.7038(2) 0.6782(2)
O4B O -0.7459(3) 0.2962(2) 0.3218(2)
O4B_2 O 0.2541(3) 0.2962(2) 0.3218(2)
O5B O 0.3704(3) 0.1337(3) 0.5731(3)
loop_
_geom_bond_atom_site_label_1
_geom_bond_atom_site_label_2
_geom_bond_site_symmetry_1
_geom_bond_site_symmetry_2
Zn1 N2 1_555 1_555
Zn2 N3 1_555 1_555
Mo1 O3 1_555 1_555
C1 H1 1_555 1_555
C2 N1 1_555 1_555
N1 H2 1_555 1_555
H3 N1 1_555 1_555
N2 C2 1_555 1_555
N3 C1 1_555 1_555
N4 C1 1_555 1_555
O1 Zn2 1_555 1_555
O2 Zn1 1_555 1_555
H4 O2 1_555 1_555
H5 O2 1_555 1_555
O3 Zn1 1_555 1_555
O4 Zn2 1_555 1_555
O5 Mo1 1_555 1_555
Zn2B N3B 1_555 1_555
Zn2C N4 1_555 1_555
Zn2A N4B 1_555 1_555
Zn2A_2 O1A 1_555 1_555
Zn2_2 O4_2 1_555 1_555
Mo1B O1C 1_555 1_555
Mo1A O1 1_555 1_555
Mo1_2 O4 1_555 1_555
C1B H1B 1_555 1_555
C2B N1B 1_555 1_555
N1B H2B 1_555 1_555
H3B N1B 1_555 1_555
N2B Zn1 1_555 1_555
N3B C1B 1_555 1_555
N4B C1B 1_555 1_555
N4C Zn2 1_555 1_555
N4A Zn2B 1_555 1_555
O1A Mo1 1_555 1_555
O1B Zn2B 1_555 1_555
O2B Zn1 1_555 1_555
H4B O2B 1_555 1_555
H5B O2B 1_555 1_555
O3B Zn1 1_555 1_555
O4_2 Mo1 1_555 1_555
O4B Zn2B 1_555 1_555
O4B_2 Mo1B 1_555 1_555
O5B Mo1B 1_555 1_555
C2 N3 1_555 1_555
N2 N4 1_555 1_555
Mo1B O3B 1_555 1_555
C2B N2B 1_555 1_555
C2B N3B 1_555 1_555
N2B N4B 1_555 1_555

#END
