
#######################################################################
#
#                 Cambridge Crystallographic Data Centre
#                                CCDC 
#
#######################################################################
#
# If this CIF has been generated from an entry in the Cambridge 
# Structural Database, then it will include bibliographic, chemical, 
# crystal, experimental, refinement or atomic coordinate data resulting 
# from the CCDC's data processing and validation procedures.
#
#######################################################################

data_POLPIQ
_symmetry_cell_setting           triclinic
_symmetry_space_group_name_H-M   'P -1'
_symmetry_Int_Tables_number      2
_space_group_name_Hall           '-P 1'
loop_
_symmetry_equiv_pos_site_id
_symmetry_equiv_pos_as_xyz
1 x,y,z
2 -x,-y,-z
_cell_length_a                   7.5167(1)
_cell_length_b                   9.5952(1)
_cell_length_c                   10.7007(1)
_cell_angle_alpha                72.981(11)
_cell_angle_beta                 80.959(12)
_cell_angle_gamma                67.154(8)
_cell_volume                     679.259
loop_
_atom_site_label
_atom_site_type_symbol
_atom_site_fract_x
_atom_site_fract_y
_atom_site_fract_z
Cd1 Cd 0.24324(4) 0.00540(3) -0.10178(3)
Br1 Br 0.25486(7) 0.21571(6) -0.30950(5)
O1 O 0.0928(4) -0.1640(3) 0.0259(3)
O2 O 0.1339(4) -0.1600(3) -0.1835(3)
O3 O -0.2999(4) -0.0778(3) -0.0682(3)
O4 O -0.4848(4) -0.2119(3) -0.0656(4)
C1 C 0.0863(5) -0.2160(4) -0.0699(4)
C2 C 0.0337(5) -0.3596(4) -0.0359(4)
C3 C -0.1562(5) -0.3561(4) -0.0242(4)
C4 C 0.1863(5) -0.5024(4) -0.0111(4)
H1 H 0.3119 -0.5038 -0.0182
C5 C -0.3270(5) -0.2038(4) -0.0540(4)
Cd1A Cd -0.24324(4) -1.00540(3) 0.10178(3)
Cd1A_2 Cd -0.24324(4) -0.00540(3) 0.10178(3)
Cd1_2 Cd -0.75676(4) 0.00540(3) -0.10178(3)
Cd1_3 Cd 0.24324(4) -0.99460(3) -0.10178(3)
Cd1A_3 Cd 0.75676(4) -1.00540(3) 0.10178(3)
Br1A Br -0.25486(7) -1.21571(6) 0.30950(5)
O1A O -0.0928(4) -0.8360(3) -0.0259(3)
O1A_2 O -0.0928(4) 0.1640(3) -0.0259(3)
O1_2 O 0.0928(4) -1.1640(3) 0.0259(3)
O2A O -0.1339(4) -0.8400(3) 0.1835(3)
O3A O 0.2999(4) -0.9222(3) 0.0682(3)
O3A_2 O 0.2999(4) 0.0778(3) 0.0682(3)
O3_2 O -0.2999(4) -1.0778(3) -0.0682(3)
O4A O 0.4848(4) -0.7881(3) 0.0656(4)
O4_2 O 0.5152(4) -0.2119(3) -0.0656(4)
O4A_2 O -0.5152(4) -0.7881(3) 0.0656(4)
C1A C -0.0863(5) -0.7840(4) 0.0699(4)
C2A C -0.0337(5) -0.6404(4) 0.0359(4)
C3A C 0.1562(5) -0.6439(4) 0.0242(4)
C4A C -0.1863(5) -0.4976(4) 0.0111(4)
H1A H -0.3119 -0.4962 0.0182
C5A C 0.3270(5) -0.7962(4) 0.0540(4)
N1 N -0.2794(6) 0.3406(5) -0.3615(4)
N2 N -0.2456(6) 0.1335(5) -0.4192(4)
C6 C -0.2701(7) 0.1937(6) -0.3198(5)
H2 H -0.2795 0.1409 -0.2325
C7 C -0.2417(7) 0.2458(7) -0.5302(5)
H3 H -0.2283 0.2354 -0.6152
C8 C -0.2608(8) 0.3751(7) -0.4955(5)
H4 H -0.2612 0.4698 -0.5516
C9 C -0.2425(8) -0.0219(7) -0.4106(7)
H5 H -0.2456 -0.0780 -0.3203
H6 H -0.1268 -0.0776 -0.4546
H7 H -0.3532 -0.0125 -0.4512
C10 C -0.3275(12) 0.4476(7) -0.2745(6)
H8 H -0.4668 0.4914 -0.2608
H9 H -0.2736 0.3875 -0.1901
C11 C -0.2558(14) 0.5740(9) -0.3260(8)
H10 H -0.2918 0.6388 -0.2659
H11 H -0.3105 0.6354 -0.4088
H12 H -0.1176 0.5318 -0.3375
loop_
_geom_bond_atom_site_label_1
_geom_bond_atom_site_label_2
_geom_bond_site_symmetry_1
_geom_bond_site_symmetry_2
Cd1 Br1 1_555 1_555
O1 Cd1 1_555 1_555
O2 Cd1 1_555 1_555
O3 C5 1_555 1_555
O4 C5 1_555 1_555
C1 O1 1_555 1_555
C2 C1 1_555 1_555
C3 C2 1_555 1_555
C4 C2 1_555 1_555
H1 C4 1_555 1_555
C5 C3 1_555 1_555
N1 C6 1_555 1_555
N2 C6 1_555 1_555
C6 H2 1_555 1_555
C7 N2 1_555 1_555
H3 C7 1_555 1_555
C8 N1 1_555 1_555
H4 C8 1_555 1_555
C9 N2 1_555 1_555
H5 C9 1_555 1_555
H6 C9 1_555 1_555
H7 C9 1_555 1_555
C10 N1 1_555 1_555
H8 C10 1_555 1_555
H9 C10 1_555 1_555
C11 C10 1_555 1_555
H10 C11 1_555 1_555
H11 C11 1_555 1_555
H12 C11 1_555 1_555
Cd1A Br1A 1_555 1_555
Cd1A_2 O1 1_555 1_555
Cd1_2 O4 1_555 1_555
Cd1_3 O1A 1_555 1_555
Cd1A_3 O4A 1_555 1_555
O1A Cd1A 1_555 1_555
O1A_2 Cd1 1_555 1_555
O1_2 Cd1A 1_555 1_555
O2A Cd1A 1_555 1_555
O3A Cd1_3 1_555 1_555
O3A_2 Cd1 1_555 1_555
O3_2 Cd1A 1_555 1_555
O4A C5A 1_555 1_555
O4_2 Cd1 1_555 1_555
O4A_2 Cd1A 1_555 1_555
C1A O1A 1_555 1_555
C2A C1A 1_555 1_555
C3A C4 1_555 1_555
C4A C3 1_555 1_555
H1A C4A 1_555 1_555
C5A O3A 1_555 1_555
O2 C1 1_555 1_555
O3 Cd1A_2 1_555 1_555
C7 C8 1_555 1_555
Cd1A_2 O1A_2 1_555 1_555
Cd1_3 O1_2 1_555 1_555
O2A C1A 1_555 1_555
C2A C3A 1_555 1_555
C2A C4A 1_555 1_555
C3A C5A 1_555 1_555

#END
