
#######################################################################
#
#                 Cambridge Crystallographic Data Centre
#                                CCDC 
#
#######################################################################
#
# If this CIF has been generated from an entry in the Cambridge 
# Structural Database, then it will include bibliographic, chemical, 
# crystal, experimental, refinement or atomic coordinate data resulting 
# from the CCDC's data processing and validation procedures.
#
#######################################################################

data_POLPUC
_symmetry_cell_setting           monoclinic
_symmetry_space_group_name_H-M   'P 21/c'
_symmetry_Int_Tables_number      14
_space_group_name_Hall           '-P 2ybc'
loop_
_symmetry_equiv_pos_site_id
_symmetry_equiv_pos_as_xyz
1 x,y,z
2 -x,1/2+y,1/2-z
3 -x,-y,-z
4 x,1/2-y,1/2+z
_cell_length_a                   10.0921(2)
_cell_length_b                   18.7190(3)
_cell_length_c                   8.05780(10)
_cell_angle_alpha                90
_cell_angle_beta                 95.4900(10)
_cell_angle_gamma                90
_cell_volume                     1515.25
loop_
_atom_site_label
_atom_site_type_symbol
_atom_site_fract_x
_atom_site_fract_y
_atom_site_fract_z
Eu1 Eu 0.85764(2) 0.105251(11) 0.24004(3)
Ag1 Ag 0.34475(4) 0.07481(2) 0.89237(5)
C1 C 0.6183(5) 0.0836(3) 0.7444(6)
H1 H 0.6431 0.0818 0.8585
C2 C 0.7163(5) 0.0881(3) 0.6362(6)
H2 H 0.8049 0.0895 0.6797
C3 C 0.5581(4) 0.0899(2) 0.4168(5)
C4 C 0.4591(5) 0.0858(2) 0.5257(6)
H3 H 0.3702 0.0860 0.4829
C5 C 0.5270(4) 0.0910(2) 0.2306(5)
C6 C 1.2546(5) 0.2614(3) 0.2573(7)
H4 H 1.3420 0.2566 0.2317
C7 C 1.0878(5) 0.3267(3) 0.3465(6)
H5 H 1.0542 0.3699 0.3810
C8 C 1.1711(5) 0.2024(3) 0.2404(6)
H6 H 1.2037 0.1596 0.2024
C9 C 1.0057(4) 0.2678(2) 0.3363(5)
C10 C 0.8684(4) 0.2706(2) 0.3975(5)
C11 C 1.0378(4) 0.0319(2) 0.5446(5)
C12 C 1.0678(4) 0.0112(2) 0.0436(5)
N1 N 0.4893(4) 0.0816(2) 0.6900(5)
N2 N 0.6879(4) 0.09047(19) 0.4723(4)
N3 N 1.2140(4) 0.3242(2) 0.3086(5)
N4 N 1.0450(4) 0.20574(19) 0.2774(4)
O1 O 0.6259(3) 0.09358(18) 0.1461(4)
O2 O 0.4079(3) 0.0891(2) 0.1744(4)
O3 O 0.8420(3) 0.32277(16) 0.4859(4)
O4 O 0.7939(3) 0.21883(16) 0.3579(4)
O5 O 0.9986(3) 0.09289(16) 0.4991(4)
O6 O 1.1303(3) 0.01680(16) 0.6531(4)
O7 O 1.0662(3) 0.05693(16) 0.1567(4)
O8 O 1.1689(3) -0.01718(16) -0.0092(4)
Eu1C Eu 0.85764(2) 0.394749(11) -0.25996(3)
Eu1C_2 Eu 0.85764(2) 0.394749(11) 0.74004(3)
Eu1B Eu 1.14236(2) -0.105251(11) 0.75996(3)
Eu1B_2 Eu 1.14236(2) -0.105251(11) -0.24004(3)
Eu1_2 Eu 0.85764(2) 0.105251(11) 1.24004(3)
Ag1C Ag 1.34475(4) 0.42519(2) 0.39237(5)
Ag1_2 Ag 0.34475(4) 0.07481(2) -0.10763(5)
Ag1_3 Ag 1.34475(4) 0.07481(2) -0.10763(5)
Ag1B Ag 0.65525(4) -0.07481(2) 0.10763(5)
Ag1_4 Ag 0.34475(4) 0.07481(2) 1.89237(5)
C1_2 C 0.6183(5) 0.0836(3) 1.7444(6)
H1_2 H 0.6431 0.0818 1.8585
C2_2 C 0.7163(5) 0.0881(3) 1.6362(6)
H2_2 H 0.8049 0.0895 1.6797
C3_2 C 0.5581(4) 0.0899(2) 1.4168(5)
C4_2 C 0.4591(5) 0.0858(2) 1.5257(6)
H3_2 H 0.3702 0.0860 1.4829
C5_2 C 0.5270(4) 0.0910(2) 1.2306(5)
C6C C 1.2546(5) 0.2386(3) -0.2427(7)
H4C H 1.3420 0.2434 -0.2683
C7C C 1.0878(5) 0.1733(3) -0.1535(6)
H5C H 1.0542 0.1301 -0.1190
C8C C 1.1711(5) 0.2976(3) -0.2596(6)
H6C H 1.2037 0.3404 -0.2976
C9C C 1.0057(4) 0.2322(2) -0.1637(5)
C10C C 0.8684(4) 0.2294(2) -0.1025(5)
C11B C 0.9622(4) -0.0319(2) 0.4554(5)
C12B C 0.9322(4) -0.0112(2) -0.0436(5)
N1_2 N 0.4893(4) 0.0816(2) 1.6900(5)
N1C N 1.4893(4) 0.4184(2) 0.1900(5)
N2_2 N 0.6879(4) 0.09047(19) 1.4723(4)
N2C N 0.6879(4) 0.40953(19) -0.0277(4)
N3C N 1.2140(4) 0.1758(2) -0.1914(5)
N3C_2 N 0.2140(4) 0.1758(2) 0.8086(5)
N4C N 1.0450(4) 0.29426(19) -0.2226(4)
O1_2 O 0.6259(3) 0.09358(18) 1.1461(4)
O1C O 0.6259(3) 0.40642(18) -0.3539(4)
O2_2 O 0.4079(3) 0.0891(2) 1.1744(4)
O2C O 1.4079(3) 0.4109(2) 0.6744(4)
O3C O 0.8420(3) 0.17723(16) -0.0141(4)
O3_2 O 0.8420(3) 0.32277(16) -0.5141(4)
O4C O 0.7939(3) 0.28117(16) -0.1421(4)
O5B O 1.0014(3) -0.09289(16) 0.5009(4)
O5C O 0.9986(3) 0.40711(16) -0.0009(4)
O6B O 0.8697(3) -0.01680(16) 0.3469(4)
O6A O 0.8697(3) 0.51680(16) -0.1531(4)
O7B O 0.9338(3) -0.05693(16) -0.1567(4)
O7C O 1.0662(3) 0.44307(16) -0.3433(4)
O8B O 0.8311(3) 0.01718(16) 0.0092(4)
O8_2 O 0.1689(3) -0.01718(16) 0.9908(4)
O8A O 0.8311(3) 0.48282(16) -0.4908(4)
O8C O 1.1689(3) 0.51718(16) 0.4908(4)
O9 O 0.5377(5) 0.2425(3) 0.9890(10)
H7 H 0.599(7) 0.243(5) 0.923(10)
H8 H 0.551(9) 0.208(4) 1.057(9)
loop_
_geom_bond_atom_site_label_1
_geom_bond_atom_site_label_2
_geom_bond_site_symmetry_1
_geom_bond_site_symmetry_2
Eu1 N2 1_555 1_555
Ag1 N1 1_555 1_555
C1 H1 1_555 1_555
C2 C1 1_555 1_555
H2 C2 1_555 1_555
C3 C4 1_555 1_555
C4 H3 1_555 1_555
C5 C3 1_555 1_555
C6 H4 1_555 1_555
C7 H5 1_555 1_555
C8 C6 1_555 1_555
H6 C8 1_555 1_555
C9 C7 1_555 1_555
C10 C9 1_555 1_555
C11 O5 1_555 1_555
C12 O7 1_555 1_555
N1 C1 1_555 1_555
N2 C2 1_555 1_555
N3 C6 1_555 1_555
N4 Eu1 1_555 1_555
O1 Eu1 1_555 1_555
O2 C5 1_555 1_555
O3 C10 1_555 1_555
O4 Eu1 1_555 1_555
O5 Eu1 1_555 1_555
O6 C11 1_555 1_555
O7 Eu1 1_555 1_555
O8 C12 1_555 1_555
O9 H7 1_555 1_555
H8 O9 1_555 1_555
Eu1C N2C 1_555 1_555
Eu1C_2 O3 1_555 1_555
Eu1B O6 1_555 1_555
Eu1B_2 O8 1_555 1_555
Eu1_2 N2_2 1_555 1_555
Ag1C N3 1_555 1_555
Ag1_2 O2 1_555 1_555
Ag1_3 O8 1_555 1_555
Ag1B O8B 1_555 1_555
Ag1_4 N1_2 1_555 1_555
C1_2 H1_2 1_555 1_555
C2_2 C1_2 1_555 1_555
H2_2 C2_2 1_555 1_555
C3_2 C4_2 1_555 1_555
C4_2 H3_2 1_555 1_555
C5_2 C3_2 1_555 1_555
C6C H4C 1_555 1_555
C7C H5C 1_555 1_555
C8C C6C 1_555 1_555
H6C C8C 1_555 1_555
C9C C7C 1_555 1_555
C10C C9C 1_555 1_555
C11B C11 1_555 1_555
C12B C12 1_555 1_555
N1_2 C1_2 1_555 1_555
N1C Ag1C 1_555 1_555
N2_2 C2_2 1_555 1_555
N3C Ag1_3 1_555 1_555
N3C_2 Ag1 1_555 1_555
N4C Eu1C 1_555 1_555
O1_2 Eu1_2 1_555 1_555
O1C Eu1C 1_555 1_555
O2_2 Ag1 1_555 1_555
O2C Ag1C 1_555 1_555
O3C Eu1 1_555 1_555
O3_2 Eu1C 1_555 1_555
O4C Eu1C 1_555 1_555
O5B Eu1B 1_555 1_555
O5C Eu1C 1_555 1_555
O6B Eu1 1_555 1_555
O6A Eu1C 1_555 1_555
O7B Eu1B_2 1_555 1_555
O7C Eu1C 1_555 1_555
O8B Eu1 1_555 1_555
O8_2 Ag1 1_555 1_555
O8A Eu1C 1_555 1_555
O8C Ag1C 1_555 1_555
C3 N2 1_555 1_555
C4 N1 1_555 1_555
C5 O1 1_555 1_555
C7 N3 1_555 1_555
C8 N4 1_555 1_555
C9 N4 1_555 1_555
C10 O4 1_555 1_555
C3_2 N2_2 1_555 1_555
C4_2 N1_2 1_555 1_555
C5_2 O1_2 1_555 1_555
C5_2 O2_2 1_555 1_555
C6C N3C 1_555 1_555
C7C N3C 1_555 1_555
C8C N4C 1_555 1_555
C9C N4C 1_555 1_555
C10C O3C 1_555 1_555
C10C O4C 1_555 1_555
C11B O5B 1_555 1_555
C11B O6B 1_555 1_555
C12B O7B 1_555 1_555
C12B O8B 1_555 1_555

#END
