
#######################################################################
#
#                 Cambridge Crystallographic Data Centre
#                                CCDC 
#
#######################################################################
#
# If this CIF has been generated from an entry in the Cambridge 
# Structural Database, then it will include bibliographic, chemical, 
# crystal, experimental, refinement or atomic coordinate data resulting 
# from the CCDC's data processing and validation procedures.
#
#######################################################################

data_POLQAJ
_symmetry_cell_setting           monoclinic
_symmetry_space_group_name_H-M   'P 21/c'
_symmetry_Int_Tables_number      14
_space_group_name_Hall           '-P 2ybc'
loop_
_symmetry_equiv_pos_site_id
_symmetry_equiv_pos_as_xyz
1 x,y,z
2 -x,1/2+y,1/2-z
3 -x,-y,-z
4 x,1/2-y,1/2+z
_cell_length_a                   10.0711(3)
_cell_length_b                   18.5847(6)
_cell_length_c                   8.0521(3)
_cell_angle_alpha                90
_cell_angle_beta                 95.400(2)
_cell_angle_gamma                90
_cell_volume                     1500.41
loop_
_atom_site_label
_atom_site_type_symbol
_atom_site_fract_x
_atom_site_fract_y
_atom_site_fract_z
Tb1 Tb 0.86054(4) 0.105322(19) 0.24048(5)
Ag1 Ag 0.34741(8) 0.07381(4) 0.89282(9)
C1 C 0.6215(10) 0.0851(7) 0.7476(13)
H1 H 0.6455 0.0847 0.8620
C2 C 0.7208(10) 0.0891(6) 0.6366(13)
H2 H 0.8098 0.0905 0.6793
C3 C 0.5609(9) 0.0898(5) 0.4166(11)
C4 C 0.4643(10) 0.0851(5) 0.5269(13)
H3 H 0.3752 0.0841 0.4845
C5 C 0.5312(9) 0.0912(5) 0.2290(12)
C6 C 1.2586(10) 0.2607(6) 0.2548(14)
H4 H 1.3464 0.2559 0.2292
C7 C 1.0912(10) 0.3274(5) 0.3470(13)
H5 H 1.0586 0.3710 0.3827
C8 C 1.1739(10) 0.2012(5) 0.2385(14)
H6 H 1.2060 0.1577 0.2011
C9 C 1.0076(9) 0.2680(5) 0.3380(12)
C10 C 0.8722(9) 0.2700(5) 0.3987(12)
C11 C 1.0380(9) 0.0325(5) 0.5440(11)
C12 C 1.0685(8) 0.0111(4) 0.0435(10)
N1 N 0.4931(8) 0.0820(4) 0.6901(9)
N2 N 0.6911(8) 0.0910(4) 0.4733(10)
N3 N 1.2165(8) 0.3244(4) 0.3063(11)
N4 N 1.0470(8) 0.2054(4) 0.2758(10)
O1 O 0.6308(7) 0.0939(4) 0.1452(9)
O2 O 0.4119(7) 0.0881(4) 0.1742(9)
O3 O 0.8457(6) 0.3224(3) 0.4892(8)
O4 O 0.7959(7) 0.2180(3) 0.3577(9)
O5 O 1.0003(7) 0.0936(3) 0.4971(8)
O6 O 1.1292(6) 0.0169(3) 0.6538(8)
O7 O 1.0673(6) 0.0564(3) 0.1578(8)
O8 O 1.1687(6) -0.0180(3) -0.0095(8)
Tb1C Tb 0.86054(4) 0.394678(19) -0.25952(5)
Tb1C_2 Tb 0.86054(4) 0.394678(19) 0.74048(5)
Tb1B Tb 1.13946(4) -0.105322(19) 0.75952(5)
Tb1B_2 Tb 1.13946(4) -0.105322(19) -0.24048(5)
Tb1_2 Tb 0.86054(4) 0.105322(19) 1.24048(5)
Ag1C Ag 1.34741(8) 0.42619(4) 0.39282(9)
Ag1_2 Ag 0.34741(8) 0.07381(4) -0.10718(9)
Ag1_3 Ag 1.34741(8) 0.07381(4) -0.10718(9)
Ag1B Ag 0.65259(8) -0.07381(4) 0.10718(9)
Ag1_4 Ag 0.34741(8) 0.07381(4) 1.89282(9)
C1_2 C 0.6215(10) 0.0851(7) 1.7476(13)
H1_2 H 0.6455 0.0847 1.8620
C2_2 C 0.7208(10) 0.0891(6) 1.6366(13)
H2_2 H 0.8098 0.0905 1.6793
C3_2 C 0.5609(9) 0.0898(5) 1.4166(11)
C4_2 C 0.4643(10) 0.0851(5) 1.5269(13)
H3_2 H 0.3752 0.0841 1.4845
C5_2 C 0.5312(9) 0.0912(5) 1.2290(12)
C6C C 1.2586(10) 0.2393(6) -0.2452(14)
H4C H 1.3464 0.2441 -0.2708
C7C C 1.0912(10) 0.1726(5) -0.1530(13)
H5C H 1.0586 0.1290 -0.1173
C8C C 1.1739(10) 0.2988(5) -0.2615(14)
H6C H 1.2060 0.3423 -0.2989
C9C C 1.0076(9) 0.2320(5) -0.1620(12)
C10C C 0.8722(9) 0.2300(5) -0.1013(12)
C11B C 0.9620(9) -0.0325(5) 0.4560(11)
C12B C 0.9315(8) -0.0111(4) -0.0435(10)
N1_2 N 0.4931(8) 0.0820(4) 1.6901(9)
N1C N 1.4931(8) 0.4180(4) 0.1901(9)
N2_2 N 0.6911(8) 0.0910(4) 1.4733(10)
N2C N 0.6911(8) 0.4090(4) -0.0267(10)
N3C N 1.2165(8) 0.1756(4) -0.1937(11)
N3C_2 N 0.2165(8) 0.1756(4) 0.8063(11)
N4C N 1.0470(8) 0.2946(4) -0.2242(10)
O1_2 O 0.6308(7) 0.0939(4) 1.1452(9)
O1C O 0.6308(7) 0.4061(4) -0.3548(9)
O2_2 O 0.4119(7) 0.0881(4) 1.1742(9)
O2C O 1.4119(7) 0.4119(4) 0.6742(9)
O3C O 0.8457(6) 0.1776(3) -0.0108(8)
O3_2 O 0.8457(6) 0.3224(3) -0.5108(8)
O4C O 0.7959(7) 0.2820(3) -0.1423(9)
O5B O 0.9997(7) -0.0936(3) 0.5029(8)
O5C O 1.0003(7) 0.4064(3) -0.0029(8)
O6B O 0.8708(6) -0.0169(3) 0.3462(8)
O6A O 0.8708(6) 0.5169(3) -0.1538(8)
O7B O 0.9327(6) -0.0564(3) -0.1578(8)
O7C O 1.0673(6) 0.4436(3) -0.3422(8)
O8B O 0.8313(6) 0.0180(3) 0.0095(8)
O8_2 O 0.1687(6) -0.0180(3) 0.9905(8)
O8A O 0.8313(6) 0.4820(3) -0.4905(8)
O8C O 1.1687(6) 0.5180(3) 0.4905(8)
O9 O 0.5413(11) 0.2417(6) -0.0146(19)
H7 H 0.6168 0.2497 -0.0500
H8 H 0.5501 0.2113 0.0646
loop_
_geom_bond_atom_site_label_1
_geom_bond_atom_site_label_2
_geom_bond_site_symmetry_1
_geom_bond_site_symmetry_2
Tb1 N2 1_555 1_555
Ag1 N1 1_555 1_555
C1 H1 1_555 1_555
C2 C1 1_555 1_555
H2 C2 1_555 1_555
C3 C4 1_555 1_555
C4 H3 1_555 1_555
C5 C3 1_555 1_555
C6 H4 1_555 1_555
C7 H5 1_555 1_555
C8 C6 1_555 1_555
H6 C8 1_555 1_555
C9 C7 1_555 1_555
C10 C9 1_555 1_555
C11 O5 1_555 1_555
C12 O7 1_555 1_555
N1 C1 1_555 1_555
N2 C2 1_555 1_555
N3 C6 1_555 1_555
N4 Tb1 1_555 1_555
O1 Tb1 1_555 1_555
O2 C5 1_555 1_555
O3 C10 1_555 1_555
O4 Tb1 1_555 1_555
O5 Tb1 1_555 1_555
O6 C11 1_555 1_555
O7 Tb1 1_555 1_555
O8 C12 1_555 1_555
O9 H7 1_555 1_555
H8 O9 1_555 1_555
Tb1C N2C 1_555 1_555
Tb1C_2 O3 1_555 1_555
Tb1B O6 1_555 1_555
Tb1B_2 O8 1_555 1_555
Tb1_2 N2_2 1_555 1_555
Ag1C N3 1_555 1_555
Ag1_2 O2 1_555 1_555
Ag1_3 O8 1_555 1_555
Ag1B O8B 1_555 1_555
Ag1_4 N1_2 1_555 1_555
C1_2 H1_2 1_555 1_555
C2_2 C1_2 1_555 1_555
H2_2 C2_2 1_555 1_555
C3_2 C4_2 1_555 1_555
C4_2 H3_2 1_555 1_555
C5_2 C3_2 1_555 1_555
C6C H4C 1_555 1_555
C7C H5C 1_555 1_555
C8C C6C 1_555 1_555
H6C C8C 1_555 1_555
C9C C7C 1_555 1_555
C10C C9C 1_555 1_555
C11B C11 1_555 1_555
C12B C12 1_555 1_555
N1_2 C1_2 1_555 1_555
N1C Ag1C 1_555 1_555
N2_2 C2_2 1_555 1_555
N3C Ag1_3 1_555 1_555
N3C_2 Ag1 1_555 1_555
N4C Tb1C 1_555 1_555
O1_2 Tb1_2 1_555 1_555
O1C Tb1C 1_555 1_555
O2_2 Ag1 1_555 1_555
O2C Ag1C 1_555 1_555
O3C Tb1 1_555 1_555
O3_2 Tb1C 1_555 1_555
O4C Tb1C 1_555 1_555
O5B Tb1B 1_555 1_555
O5C Tb1C 1_555 1_555
O6B Tb1 1_555 1_555
O6A Tb1C 1_555 1_555
O7B Tb1B_2 1_555 1_555
O7C Tb1C 1_555 1_555
O8B Tb1 1_555 1_555
O8_2 Ag1 1_555 1_555
O8A Tb1C 1_555 1_555
O8C Ag1C 1_555 1_555
C3 N2 1_555 1_555
C4 N1 1_555 1_555
C5 O1 1_555 1_555
C7 N3 1_555 1_555
C8 N4 1_555 1_555
C9 N4 1_555 1_555
C10 O4 1_555 1_555
C3_2 N2_2 1_555 1_555
C4_2 N1_2 1_555 1_555
C5_2 O1_2 1_555 1_555
C5_2 O2_2 1_555 1_555
C6C N3C 1_555 1_555
C7C N3C 1_555 1_555
C8C N4C 1_555 1_555
C9C N4C 1_555 1_555
C10C O3C 1_555 1_555
C10C O4C 1_555 1_555
C11B O5B 1_555 1_555
C11B O6B 1_555 1_555
C12B O7B 1_555 1_555
C12B O8B 1_555 1_555

#END
