
#######################################################################
#
#                 Cambridge Crystallographic Data Centre
#                                CCDC 
#
#######################################################################
#
# If this CIF has been generated from an entry in the Cambridge 
# Structural Database, then it will include bibliographic, chemical, 
# crystal, experimental, refinement or atomic coordinate data resulting 
# from the CCDC's data processing and validation procedures.
#
#######################################################################

data_POLQIR
_symmetry_cell_setting           monoclinic
_symmetry_space_group_name_H-M   'P 21/n'
_symmetry_Int_Tables_number      14
_space_group_name_Hall           '-P 2yn'
loop_
_symmetry_equiv_pos_site_id
_symmetry_equiv_pos_as_xyz
1 x,y,z
2 1/2-x,1/2+y,1/2-z
3 -x,-y,-z
4 1/2+x,1/2-y,1/2+z
_cell_length_a                   9.646(3)
_cell_length_b                   15.951(3)
_cell_length_c                   20.061(5)
_cell_angle_alpha                90
_cell_angle_beta                 94.934(11)
_cell_angle_gamma                90
_cell_volume                     3075.21
loop_
_atom_site_label
_atom_site_type_symbol
_atom_site_fract_x
_atom_site_fract_y
_atom_site_fract_z
Cd1 Cd 0.592781(14) 0.135422(9) 0.323002(7)
C1 C 0.3025(2) 0.06508(14) 0.37917(11)
H1 H 0.3394 0.0717 0.4232
C2 C 0.2812(2) 0.05858(15) 0.27227(11)
H2 H 0.3023 0.0607 0.2279
C3 C 0.1565(2) 0.03796(16) 0.29262(12)
H3 H 0.0771 0.0232 0.2656
C4 C 0.0580(3) 0.02867(19) 0.40478(14)
H4 H 0.0849 -0.0164 0.4357
H5 H -0.0253 0.0112 0.3778
C5 C 0.0259(2) 0.10556(19) 0.44393(12)
H6 H 0.0189 0.1542 0.4148
H7 H -0.0618 0.0986 0.4635
C6 C 0.1143(3) 0.18588(15) 0.53663(12)
H8 H 0.0312 0.1776 0.5598
H9 H 0.1028 0.2367 0.5102
C7 C 0.2397(3) 0.19322(14) 0.58624(13)
H10 H 0.3226 0.1973 0.5623
H11 H 0.2326 0.2443 0.6120
C8 C 0.3190(2) 0.04881(13) 0.62103(11)
H12 H 0.3650 0.0374 0.5832
C9 C 0.1978(2) 0.11421(14) 0.69241(12)
H13 H 0.1460 0.1544 0.7129
C10 C 0.2328(2) 0.03690(14) 0.71600(11)
H14 H 0.2090 0.0149 0.7564
C11 C 0.8552(2) 0.26606(15) 0.31937(12)
H15 H 0.8266 0.2914 0.3576
C12 C 0.8728(3) 0.18160(16) 0.23808(13)
H16 H 0.8573 0.1365 0.2090
C13 C 0.9689(3) 0.24165(18) 0.23251(14)
H17 H 1.0313 0.2456 0.1998
C14 C 1.0384(3) 0.37208(16) 0.29829(17)
H18 H 0.9953 0.4053 0.3313
H19 H 1.0383 0.4051 0.2577
C15 C 1.1862(3) 0.35270(18) 0.32377(15)
H20 H 1.2279 0.3152 0.2931
H21 H 1.2406 0.4039 0.3275
C16 C 1.3159(3) 0.28609(15) 0.41392(13)
H22 H 1.3750 0.2774 0.3778
H23 H 1.3055 0.2327 0.4361
C17 C 1.3848(3) 0.34772(15) 0.46316(13)
H24 H 1.3196 0.3632 0.4953
H25 H 1.4641 0.3210 0.4875
C18 C 1.3706(3) 0.50095(16) 0.42919(13)
H26 H 1.2917 0.5166 0.4497
C19 C 1.5412(3) 0.42998(18) 0.39452(15)
H27 H 1.6005 0.3856 0.3872
C20 C 1.4472(3) 0.55006(17) 0.39204(14)
H28 H 1.4287 0.6062 0.3825
C21 C 0.6341(2) 0.17055(16) 0.46962(12)
C22 C 0.7102(2) 0.20776(13) 0.53232(10)
C23 C 0.7760(2) 0.28510(14) 0.53095(11)
H29 H 0.7672 0.3169 0.4920
C24 C 0.8546(2) 0.31551(13) 0.58688(10)
H30 H 0.8969 0.3678 0.5854
C25 C 0.8706(2) 0.26820(13) 0.64518(10)
C26 C 0.8030(2) 0.19143(14) 0.64729(10)
H31 H 0.8121 0.1596 0.6863
C27 C 0.7218(2) 0.16187(14) 0.59172(11)
H32 H 0.6748 0.1112 0.5941
C28 C 0.9624(2) 0.29898(14) 0.70516(10)
N1 N 0.37316(18) 0.07618(11) 0.32693(9)
N2 N 0.16945(19) 0.04292(12) 0.36110(9)
N3 N 0.2539(2) 0.12145(11) 0.63216(10)
N4 N 0.30882(19) -0.00408(11) 0.67112(9)
N5 N 0.80083(19) 0.19659(12) 0.29290(9)
N6 N 0.9566(2) 0.29569(12) 0.28437(11)
N7 N 1.4315(2) 0.42361(12) 0.43078(10)
N8 N 1.5560(3) 0.50587(16) 0.37032(13)
O1 O 0.63734(18) 0.21225(12) 0.41657(8)
O2 O 0.5781(3) 0.10177(15) 0.47386(12)
O3 O 0.96703(17) 0.25676(10) 0.75814(7)
O4 O 1.02897(16) 0.36637(10) 0.70008(8)
O5 O 0.13530(16) 0.11657(10) 0.49480(8)
O6 O 1.18346(18) 0.31455(12) 0.38707(9)
Cd1B Cd 0.407219(14) -0.135422(9) 0.676998(7)
Cd1C Cd 1.092781(14) 0.364578(9) 0.823002(7)
N4B N 0.69118(19) 0.00408(11) 0.32888(9)
O3C O 0.46703(17) 0.24324(10) 0.25814(7)
O4C O 0.52897(16) 0.13363(10) 0.20008(8)
O7 O 1.1679(4) 0.4270(3) 0.59502(15)
H33 H 1.129(7) 0.401(3) 0.627(2)
H34 H 1.149(7) 0.4815(16) 0.608(3)
O8 O 1.0717(12) 0.5638(10) 0.5352(9)
O9? O 0.982(2) 0.5361(13) 0.5279(7)
loop_
_geom_bond_atom_site_label_1
_geom_bond_atom_site_label_2
_geom_bond_site_symmetry_1
_geom_bond_site_symmetry_2
Cd1 N1 1_555 1_555
C1 H1 1_555 1_555
C2 H2 1_555 1_555
C3 C2 1_555 1_555
H3 C3 1_555 1_555
C4 H4 1_555 1_555
H5 C4 1_555 1_555
C5 C4 1_555 1_555
H6 C5 1_555 1_555
H7 C5 1_555 1_555
C6 H8 1_555 1_555
H9 C6 1_555 1_555
C7 C6 1_555 1_555
H10 C7 1_555 1_555
H11 C7 1_555 1_555
C8 H12 1_555 1_555
C9 H13 1_555 1_555
C10 C9 1_555 1_555
H14 C10 1_555 1_555
C11 H15 1_555 1_555
C12 H16 1_555 1_555
C13 C12 1_555 1_555
H17 C13 1_555 1_555
C14 H18 1_555 1_555
H19 C14 1_555 1_555
C15 C14 1_555 1_555
H20 C15 1_555 1_555
H21 C15 1_555 1_555
C16 H22 1_555 1_555
H23 C16 1_555 1_555
C17 C16 1_555 1_555
H24 C17 1_555 1_555
H25 C17 1_555 1_555
C18 H26 1_555 1_555
C19 H27 1_555 1_555
C20 C18 1_555 1_555
H28 C20 1_555 1_555
C21 C22 1_555 1_555
C22 C23 1_555 1_555
C23 H29 1_555 1_555
C24 C23 1_555 1_555
H30 C24 1_555 1_555
C25 C24 1_555 1_555
C26 C25 1_555 1_555
H31 C26 1_555 1_555
C27 C22 1_555 1_555
H32 C27 1_555 1_555
C28 C25 1_555 1_555
N1 C1 1_555 1_555
N2 C1 1_555 1_555
N3 C7 1_555 1_555
N4 C8 1_555 1_555
N5 Cd1 1_555 1_555
N6 C11 1_555 1_555
N7 C17 1_555 1_555
N8 C19 1_555 1_555
O1 Cd1 1_555 1_555
O2 C21 1_555 1_555
O3 C28 1_555 1_555
O4 C28 1_555 1_555
O5 C5 1_555 1_555
O6 C15 1_555 1_555
O7 H33 1_555 1_555
H34 O7 1_555 1_555
Cd1B N4 1_555 1_555
Cd1C O3 1_555 1_555
N4B Cd1 1_555 1_555
O3C Cd1 1_555 1_555
O4C Cd1 1_555 1_555
C2 N1 1_555 1_555
C3 N2 1_555 1_555
C4 N2 1_555 1_555
C6 O5 1_555 1_555
C8 N3 1_555 1_555
C9 N3 1_555 1_555
C10 N4 1_555 1_555
C11 N5 1_555 1_555
C12 N5 1_555 1_555
C13 N6 1_555 1_555
C14 N6 1_555 1_555
C16 O6 1_555 1_555
C18 N7 1_555 1_555
C19 N7 1_555 1_555
C20 N8 1_555 1_555
C21 O1 1_555 1_555
C26 C27 1_555 1_555
O4 Cd1C 1_555 1_555

#END
