
#######################################################################
#
#                 Cambridge Crystallographic Data Centre
#                                CCDC 
#
#######################################################################
#
# If this CIF has been generated from an entry in the Cambridge 
# Structural Database, then it will include bibliographic, chemical, 
# crystal, experimental, refinement or atomic coordinate data resulting 
# from the CCDC's data processing and validation procedures.
#
#######################################################################

data_POLQEN
_symmetry_cell_setting           monoclinic
_symmetry_space_group_name_H-M   'P 21/c'
_symmetry_Int_Tables_number      14
_space_group_name_Hall           '-P 2ybc'
loop_
_symmetry_equiv_pos_site_id
_symmetry_equiv_pos_as_xyz
1 x,y,z
2 -x,1/2+y,1/2-z
3 -x,-y,-z
4 x,1/2-y,1/2+z
_cell_length_a                   10.0638(7)
_cell_length_b                   18.5263(15)
_cell_length_c                   8.0458(5)
_cell_angle_alpha                90
_cell_angle_beta                 95.681(5)
_cell_angle_gamma                90
_cell_volume                     1492.73
loop_
_atom_site_label
_atom_site_type_symbol
_atom_site_fract_x
_atom_site_fract_y
_atom_site_fract_z
Dy1 Dy 0.861697(16) 0.105271(9) 0.24077(2)
Ag1 Ag 0.34858(3) 0.07359(2) 0.89218(4)
C1 C 0.6229(4) 0.0848(3) 0.7459(5)
H1 H 0.6474 0.0832 0.8604
C2 C 0.7213(4) 0.0895(2) 0.6374(5)
H2 H 0.8101 0.0917 0.6817
C3 C 0.5634(4) 0.0900(2) 0.4172(5)
C4 C 0.4646(4) 0.0858(2) 0.5254(5)
H3 H 0.3755 0.0853 0.4820
C5 C 0.5329(4) 0.0915(2) 0.2303(5)
C6 C 1.2588(4) 0.2605(2) 0.2551(6)
H4 H 1.3465 0.2557 0.2295
C7 C 1.0922(4) 0.3268(2) 0.3463(5)
H5 H 1.0592 0.3704 0.3816
C8 C 1.1750(4) 0.2014(2) 0.2376(5)
H6 H 1.2071 0.1582 0.1982
C9 C 1.0093(4) 0.2676(2) 0.3364(5)
C10 C 0.8725(4) 0.2700(2) 0.3992(5)
C11 C 1.0382(4) 0.0324(2) 0.5433(5)
C12 C 1.0683(4) 0.0110(2) 0.0438(5)
N1 N 0.4948(3) 0.08260(19) 0.6899(4)
N2 N 0.6936(3) 0.09097(18) 0.4725(4)
N3 N 1.2178(3) 0.3243(2) 0.3076(5)
N4 N 1.0478(3) 0.20475(17) 0.2763(4)
O1 O 0.6337(3) 0.09445(17) 0.1469(3)
O2 O 0.4152(3) 0.08862(18) 0.1731(4)
O3 O 0.8469(3) 0.32212(15) 0.4900(3)
O4 O 0.7972(3) 0.21817(15) 0.3579(4)
O5 O 1.0007(3) 0.09392(14) 0.4964(3)
O6 O 1.1292(3) 0.01683(15) 0.6548(3)
O7 O 1.0673(3) 0.05653(15) 0.1583(3)
O8 O 1.1686(3) -0.01786(14) -0.0100(3)
Dy1C Dy 0.861697(16) 0.394729(9) -0.25923(2)
Dy1C_2 Dy 0.861697(16) 0.394729(9) 0.74077(2)
Dy1B Dy 1.138303(16) -0.105271(9) 0.75923(2)
Dy1B_2 Dy 1.138303(16) -0.105271(9) -0.24077(2)
Dy1_2 Dy 0.861697(16) 0.105271(9) 1.24077(2)
Ag1C Ag 1.34858(3) 0.42641(2) 0.39218(4)
Ag1_2 Ag 0.34858(3) 0.07359(2) -0.10782(4)
Ag1_3 Ag 1.34858(3) 0.07359(2) -0.10782(4)
Ag1B Ag 0.65142(3) -0.07359(2) 0.10782(4)
Ag1_4 Ag 0.34858(3) 0.07359(2) 1.89218(4)
C1_2 C 0.6229(4) 0.0848(3) 1.7459(5)
H1_2 H 0.6474 0.0832 1.8604
C2_2 C 0.7213(4) 0.0895(2) 1.6374(5)
H2_2 H 0.8101 0.0917 1.6817
C3_2 C 0.5634(4) 0.0900(2) 1.4172(5)
C4_2 C 0.4646(4) 0.0858(2) 1.5254(5)
H3_2 H 0.3755 0.0853 1.4820
C5_2 C 0.5329(4) 0.0915(2) 1.2303(5)
C6C C 1.2588(4) 0.2395(2) -0.2449(6)
H4C H 1.3465 0.2443 -0.2705
C7C C 1.0922(4) 0.1732(2) -0.1537(5)
H5C H 1.0592 0.1296 -0.1184
C8C C 1.1750(4) 0.2986(2) -0.2624(5)
H6C H 1.2071 0.3418 -0.3018
C9C C 1.0093(4) 0.2324(2) -0.1636(5)
C10C C 0.8725(4) 0.2300(2) -0.1008(5)
C11B C 0.9618(4) -0.0324(2) 0.4567(5)
C12B C 0.9317(4) -0.0110(2) -0.0438(5)
N1_2 N 0.4948(3) 0.08260(19) 1.6899(4)
N1C N 1.4948(3) 0.41740(19) 0.1899(4)
N2_2 N 0.6936(3) 0.09097(18) 1.4725(4)
N2C N 0.6936(3) 0.40903(18) -0.0275(4)
N3C N 1.2178(3) 0.1757(2) -0.1924(5)
N3C_2 N 0.2178(3) 0.1757(2) 0.8076(5)
N4C N 1.0478(3) 0.29525(17) -0.2237(4)
O1_2 O 0.6337(3) 0.09445(17) 1.1469(3)
O1C O 0.6337(3) 0.40555(17) -0.3531(3)
O2_2 O 0.4152(3) 0.08862(18) 1.1731(4)
O2C O 1.4152(3) 0.41138(18) 0.6731(4)
O3C O 0.8469(3) 0.17788(15) -0.0100(3)
O3_2 O 0.8469(3) 0.32212(15) -0.5100(3)
O4C O 0.7972(3) 0.28183(15) -0.1421(4)
O5B O 0.9993(3) -0.09392(14) 0.5036(3)
O5C O 1.0007(3) 0.40608(14) -0.0036(3)
O6B O 0.8708(3) -0.01683(15) 0.3452(3)
O6A O 0.8708(3) 0.51683(15) -0.1548(3)
O7B O 0.9327(3) -0.05653(15) -0.1583(3)
O7C O 1.0673(3) 0.44347(15) -0.3417(3)
O8B O 0.8314(3) 0.01786(14) 0.0100(3)
O8_2 O 0.1686(3) -0.01786(14) 0.9900(3)
O8A O 0.8314(3) 0.48214(14) -0.4900(3)
O8C O 1.1686(3) 0.51786(14) 0.4900(3)
O9 O 0.5409(4) 0.2419(3) 0.9866(9)
H7 H 0.609(5) 0.254(5) 0.938(10)
H8 H 0.564(7) 0.209(4) 1.058(9)
loop_
_geom_bond_atom_site_label_1
_geom_bond_atom_site_label_2
_geom_bond_site_symmetry_1
_geom_bond_site_symmetry_2
Dy1 N2 1_555 1_555
Ag1 N1 1_555 1_555
C1 H1 1_555 1_555
C2 C1 1_555 1_555
H2 C2 1_555 1_555
C3 C4 1_555 1_555
C4 H3 1_555 1_555
C5 C3 1_555 1_555
C6 H4 1_555 1_555
C7 H5 1_555 1_555
C8 C6 1_555 1_555
H6 C8 1_555 1_555
C9 C7 1_555 1_555
C10 C9 1_555 1_555
C11 O5 1_555 1_555
C12 O7 1_555 1_555
N1 C1 1_555 1_555
N2 C2 1_555 1_555
N3 C6 1_555 1_555
N4 Dy1 1_555 1_555
O1 Dy1 1_555 1_555
O2 C5 1_555 1_555
O3 C10 1_555 1_555
O4 Dy1 1_555 1_555
O5 Dy1 1_555 1_555
O6 C11 1_555 1_555
O7 Dy1 1_555 1_555
O8 C12 1_555 1_555
O9 H7 1_555 1_555
H8 O9 1_555 1_555
Dy1C N2C 1_555 1_555
Dy1C_2 O3 1_555 1_555
Dy1B O6 1_555 1_555
Dy1B_2 O8 1_555 1_555
Dy1_2 N2_2 1_555 1_555
Ag1C N3 1_555 1_555
Ag1_2 O2 1_555 1_555
Ag1_3 O8 1_555 1_555
Ag1B O8B 1_555 1_555
Ag1_4 N1_2 1_555 1_555
C1_2 H1_2 1_555 1_555
C2_2 C1_2 1_555 1_555
H2_2 C2_2 1_555 1_555
C3_2 C4_2 1_555 1_555
C4_2 H3_2 1_555 1_555
C5_2 C3_2 1_555 1_555
C6C H4C 1_555 1_555
C7C H5C 1_555 1_555
C8C C6C 1_555 1_555
H6C C8C 1_555 1_555
C9C C7C 1_555 1_555
C10C C9C 1_555 1_555
C11B C11 1_555 1_555
C12B C12 1_555 1_555
N1_2 C1_2 1_555 1_555
N1C Ag1C 1_555 1_555
N2_2 C2_2 1_555 1_555
N3C Ag1_3 1_555 1_555
N3C_2 Ag1 1_555 1_555
N4C Dy1C 1_555 1_555
O1_2 Dy1_2 1_555 1_555
O1C Dy1C 1_555 1_555
O2_2 Ag1 1_555 1_555
O2C Ag1C 1_555 1_555
O3C Dy1 1_555 1_555
O3_2 Dy1C 1_555 1_555
O4C Dy1C 1_555 1_555
O5B Dy1B 1_555 1_555
O5C Dy1C 1_555 1_555
O6B Dy1 1_555 1_555
O6A Dy1C 1_555 1_555
O7B Dy1B_2 1_555 1_555
O7C Dy1C 1_555 1_555
O8B Dy1 1_555 1_555
O8_2 Ag1 1_555 1_555
O8A Dy1C 1_555 1_555
O8C Ag1C 1_555 1_555
C3 N2 1_555 1_555
C4 N1 1_555 1_555
C5 O1 1_555 1_555
C7 N3 1_555 1_555
C8 N4 1_555 1_555
C9 N4 1_555 1_555
C10 O4 1_555 1_555
C3_2 N2_2 1_555 1_555
C4_2 N1_2 1_555 1_555
C5_2 O1_2 1_555 1_555
C5_2 O2_2 1_555 1_555
C6C N3C 1_555 1_555
C7C N3C 1_555 1_555
C8C N4C 1_555 1_555
C9C N4C 1_555 1_555
C10C O3C 1_555 1_555
C10C O4C 1_555 1_555
C11B O5B 1_555 1_555
C11B O6B 1_555 1_555
C12B O7B 1_555 1_555
C12B O8B 1_555 1_555

#END
