
#######################################################################
#
#                 Cambridge Crystallographic Data Centre
#                                CCDC 
#
#######################################################################
#
# If this CIF has been generated from an entry in the Cambridge 
# Structural Database, then it will include bibliographic, chemical, 
# crystal, experimental, refinement or atomic coordinate data resulting 
# from the CCDC's data processing and validation procedures.
#
#######################################################################

data_POLRAK
_symmetry_cell_setting           monoclinic
_symmetry_space_group_name_H-M   'P 21/c'
_symmetry_Int_Tables_number      14
_space_group_name_Hall           '-P 2ybc'
loop_
_symmetry_equiv_pos_site_id
_symmetry_equiv_pos_as_xyz
1 x,y,z
2 -x,1/2+y,1/2-z
3 -x,-y,-z
4 x,1/2-y,1/2+z
_cell_length_a                   8.556(5)
_cell_length_b                   8.352(4)
_cell_length_c                   9.908(5)
_cell_angle_alpha                90
_cell_angle_beta                 107.976(8)
_cell_angle_gamma                90
_cell_volume                     673.461
loop_
_atom_site_label
_atom_site_type_symbol
_atom_site_fract_x
_atom_site_fract_y
_atom_site_fract_z
Cd1 Cd 0.5000 0.0000 0.5000
N1 N 0.4057(8) 0.2016(8) 0.3352(7)
N2 N 0.2823(8) 0.3106(8) 0.3214(7)
H1 H 0.2198 0.3145 0.3747
N3 N 0.1669(9) 0.5300(8) 0.1739(8)
H2 H 0.0973 0.5490 0.2186
H3 H 0.1683 0.5889 0.1031
N4 N 0.3889(8) 0.3715(8) 0.1542(7)
C1 C 0.2724(10) 0.4096(9) 0.2142(9)
C2 C 0.4663(10) 0.2447(9) 0.2334(9)
H4 H 0.5549 0.1926 0.2169
O1 O 0.2497(7) -0.1397(7) 0.4093(6)
Cd1C Cd 0.5000 0.5000 0.0000
Cd1C_2 Cd 0.5000 -0.5000 1.0000
N1B N 0.5943(8) -0.2016(8) 0.6648(7)
N2B N 0.7177(8) -0.3106(8) 0.6786(7)
H1B H 0.7802 -0.3145 0.6253
N3B N 0.8331(9) -0.5300(8) 0.8261(8)
H2B H 0.9027 -0.5490 0.7814
H3B H 0.8317 -0.5889 0.8969
N4B N 0.6111(8) -0.3715(8) 0.8458(7)
N4C N 0.3889(8) 0.1285(8) 0.6542(7)
N4A N 0.6111(8) -0.1285(8) 0.3458(7)
C1B C 0.7276(10) -0.4096(9) 0.7858(9)
C2B C 0.5337(10) -0.2447(9) 0.7666(9)
H4B H 0.4451 -0.1926 0.7831
O1B O 0.7503(7) 0.1397(7) 0.5907(6)
Si1 Si 0.0000 -0.5000 0.5000
F1 F 0.1844(6) -0.4307(5) 0.4974(5)
F2 F 0.0730(6) -0.5214(5) 0.6788(5)
F3 F 0.0604(6) -0.6879(5) 0.4780(5)
F1B F -0.1844(6) -0.5693(5) 0.5026(5)
F2B F -0.0730(6) -0.4786(5) 0.3212(5)
F3B F -0.0604(6) -0.3121(5) 0.5220(5)
loop_
_geom_bond_atom_site_label_1
_geom_bond_atom_site_label_2
_geom_bond_site_symmetry_1
_geom_bond_site_symmetry_2
Cd1 N1 1_555 1_555
N1 N2 1_555 1_555
N2 H1 1_555 1_555
N3 H2 1_555 1_555
H3 N3 1_555 1_555
N4 C1 1_555 1_555
C1 N2 1_555 1_555
C2 N1 1_555 1_555
H4 C2 1_555 1_555
O1 Cd1 1_555 1_555
Si1 F1 1_555 1_555
F2 Si1 1_555 1_555
F3 Si1 1_555 1_555
Cd1C N4 1_555 1_555
Cd1C_2 N4B 1_555 1_555
N1B Cd1 1_555 1_555
N2B N1B 1_555 1_555
H1B N2B 1_555 1_555
N3B H2B 1_555 1_555
H3B N3B 1_555 1_555
N4B C1B 1_555 1_555
N4C Cd1 1_555 1_555
N4A Cd1 1_555 1_555
C1B N2B 1_555 1_555
C2B N1B 1_555 1_555
H4B C2B 1_555 1_555
O1B Cd1 1_555 1_555
F1B Si1 1_555 1_555
F2B Si1 1_555 1_555
F3B Si1 1_555 1_555
N3 C1 1_555 1_555
N4 C2 1_555 1_555
N3B C1B 1_555 1_555
N4B C2B 1_555 1_555

#END
