
#######################################################################
#
#                 Cambridge Crystallographic Data Centre
#                                CCDC 
#
#######################################################################
#
# If this CIF has been generated from an entry in the Cambridge 
# Structural Database, then it will include bibliographic, chemical, 
# crystal, experimental, refinement or atomic coordinate data resulting 
# from the CCDC's data processing and validation procedures.
#
#######################################################################

data_POLXUL
_symmetry_cell_setting           monoclinic
_symmetry_space_group_name_H-M   'P 2/c'
_symmetry_Int_Tables_number      13
_space_group_name_Hall           '-P 2yc'
loop_
_symmetry_equiv_pos_site_id
_symmetry_equiv_pos_as_xyz
1 x,y,z
2 -x,y,1/2-z
3 -x,-y,-z
4 x,-y,1/2+z
_cell_length_a                   10.771(2)
_cell_length_b                   6.4406(13)
_cell_length_c                   19.570(4)
_cell_angle_alpha                90
_cell_angle_beta                 98.21(3)
_cell_angle_gamma                90
_cell_volume                     1343.69
loop_
_atom_site_label
_atom_site_type_symbol
_atom_site_fract_x
_atom_site_fract_y
_atom_site_fract_z
Zn1 Zn 0.0000 0.38275(4) 0.2500
N1 N 0.14662(16) 0.5835(2) 0.27942(9)
O1 O -0.00464(16) 0.1855(2) 0.17498(7)
O2 O 0.06635(17) 0.4436(2) 0.11750(8)
C1 C 0.1636(2) 0.7518(3) 0.24153(11)
H1 H 0.1225 0.7581 0.1959
C2 C 0.2384(2) 0.9154(3) 0.26660(12)
H2 H 0.2474 1.0306 0.2382
C3 C 0.30088(19) 0.9109(3) 0.33386(11)
C4 C 0.2892(2) 0.7297(3) 0.37134(11)
H3 H 0.3344 0.7143 0.4158
C5 C 0.2114(2) 0.5738(3) 0.34314(11)
H4 H 0.2031 0.4544 0.3698
C6 C 0.3669(2) 1.0961(3) 0.36395(12)
H5 H 0.3855 1.2009 0.3335
C7 C 0.4022(2) 1.1263(3) 0.43106(12)
H6 H 0.3926 1.0127 0.4600
C8 C 0.6131(3) 1.3568(4) 0.38130(15)
H7 H 0.5818 1.4380 0.3407
H8 H 0.5932 1.2115 0.3725
H9 H 0.7033 1.3735 0.3918
C9 C 0.5523(2) 1.4306(3) 0.44166(12)
C10 C 0.4551(2) 1.3187(3) 0.46578(11)
C11 C 0.4041(2) 1.3856(3) 0.52398(12)
C12 C 0.3003(3) 1.2649(4) 0.55023(15)
H10 H 0.2582 1.1783 0.5134
H11 H 0.2404 1.3607 0.5654
H12 H 0.3356 1.1780 0.5886
C13 C -0.0307(2) -0.0740(3) 0.06153(10)
H13 H -0.0511 -0.1249 0.1035
C14 C 0.01549(19) 0.1261(3) 0.05840(10)
C15 C 0.0469(2) 0.1995(3) -0.00379(10)
H14 H 0.0792 0.3344 -0.0065
C16 C 0.02883(18) 0.2639(3) 0.12080(9)
N1B N 0.85338(16) 2.4165(2) 0.72058(9)
C1B C 0.8364(2) 2.2482(3) 0.75847(11)
H1B H 0.8775 2.2419 0.8041
C2B C 0.7616(2) 2.0846(3) 0.73340(12)
H2B H 0.7526 1.9694 0.7618
C3B C 0.69912(19) 2.0891(3) 0.66614(11)
C4B C 0.7108(2) 2.2703(3) 0.62866(11)
H3B H 0.6656 2.2857 0.5842
C5B C 0.7886(2) 2.4262(3) 0.65686(11)
H4B H 0.7969 2.5456 0.6302
C6B C 0.6331(2) 1.9039(3) 0.63605(12)
H5B H 0.6145 1.7991 0.6665
C7B C 0.5978(2) 1.8737(3) 0.56894(12)
H6B H 0.6074 1.9873 0.5400
C8B C 0.3869(3) 1.6432(4) 0.61870(15)
H7B H 0.4182 1.5620 0.6593
H8B H 0.4068 1.7885 0.6275
H9B H 0.2967 1.6265 0.6082
C9B C 0.4477(2) 1.5694(3) 0.55834(12)
C10B C 0.5449(2) 1.6813(3) 0.53422(11)
C11B C 0.5959(2) 1.6144(3) 0.47602(12)
C12B C 0.6997(3) 1.7351(4) 0.44977(15)
H10B H 0.7418 1.8217 0.4866
H11B H 0.7596 1.6393 0.4346
H12B H 0.6644 1.8220 0.4114
O1B O 0.00464(16) -0.1855(2) -0.17498(7)
O2B O -0.06635(17) -0.4436(2) -0.11750(8)
C13B C 0.0307(2) 0.0740(3) -0.06153(10)
H13B H 0.0511 0.1249 -0.1035
C14B C -0.01549(19) -0.1261(3) -0.05840(10)
C15B C -0.0469(2) -0.1995(3) 0.00379(10)
H14B H -0.0792 -0.3344 0.0065
C16B C -0.02883(18) -0.2639(3) -0.12080(9)
Zn1B Zn 0.0000 -0.38275(4) -0.2500
Zn1B_2 Zn 1.0000 2.61725(4) 0.7500
N1A N -0.14662(16) 0.5835(2) 0.22058(9)
O1A O 0.00464(16) 0.1855(2) 0.32502(7)
loop_
_geom_bond_atom_site_label_1
_geom_bond_atom_site_label_2
_geom_bond_site_symmetry_1
_geom_bond_site_symmetry_2
Zn1 N1 1_555 1_555
N1 C1 1_555 1_555
O1 Zn1 1_555 1_555
O2 C16 1_555 1_555
C1 H1 1_555 1_555
C2 C1 1_555 1_555
H2 C2 1_555 1_555
C3 C2 1_555 1_555
C4 C3 1_555 1_555
H3 C4 1_555 1_555
C5 N1 1_555 1_555
H4 C5 1_555 1_555
C6 C3 1_555 1_555
H5 C6 1_555 1_555
C7 C6 1_555 1_555
H6 C7 1_555 1_555
C8 H7 1_555 1_555
H8 C8 1_555 1_555
H9 C8 1_555 1_555
C9 C8 1_555 1_555
C10 C7 1_555 1_555
C11 C10 1_555 1_555
C12 C11 1_555 1_555
H10 C12 1_555 1_555
H11 C12 1_555 1_555
H12 C12 1_555 1_555
C13 H13 1_555 1_555
C14 C13 1_555 1_555
C15 C14 1_555 1_555
H14 C15 1_555 1_555
C16 O1 1_555 1_555
N1B C1B 1_555 1_555
C1B H1B 1_555 1_555
C2B C1B 1_555 1_555
H2B C2B 1_555 1_555
C3B C2B 1_555 1_555
C4B C3B 1_555 1_555
H3B C4B 1_555 1_555
C5B N1B 1_555 1_555
H4B C5B 1_555 1_555
C6B C3B 1_555 1_555
H5B C6B 1_555 1_555
C7B C6B 1_555 1_555
H6B C7B 1_555 1_555
C8B H7B 1_555 1_555
H8B C8B 1_555 1_555
H9B C8B 1_555 1_555
C9B C11 1_555 1_555
C10B C7B 1_555 1_555
C11B C9 1_555 1_555
C12B C11B 1_555 1_555
H10B C12B 1_555 1_555
H11B C12B 1_555 1_555
H12B C12B 1_555 1_555
O1B C16B 1_555 1_555
O2B C16B 1_555 1_555
C13B C15 1_555 1_555
H13B C13B 1_555 1_555
C14B C13B 1_555 1_555
C15B C13 1_555 1_555
H14B C15B 1_555 1_555
C16B C14B 1_555 1_555
Zn1B O1B 1_555 1_555
Zn1B_2 N1B 1_555 1_555
N1A Zn1 1_555 1_555
O1A Zn1 1_555 1_555
C4 C5 1_555 1_555
C9 C10 1_555 1_555
C14 C16 1_555 1_555
C4B C5B 1_555 1_555
C8B C9B 1_555 1_555
C9B C10B 1_555 1_555
C10B C11B 1_555 1_555
C14B C15B 1_555 1_555

#END
