
#######################################################################
#
#                 Cambridge Crystallographic Data Centre
#                                CCDC 
#
#######################################################################
#
# If this CIF has been generated from an entry in the Cambridge 
# Structural Database, then it will include bibliographic, chemical, 
# crystal, experimental, refinement or atomic coordinate data resulting 
# from the CCDC's data processing and validation procedures.
#
#######################################################################

data_POLYUL
_symmetry_cell_setting           monoclinic
_symmetry_space_group_name_H-M   'C c'
_symmetry_Int_Tables_number      9
_space_group_name_Hall           'C -2yc'
loop_
_symmetry_equiv_pos_site_id
_symmetry_equiv_pos_as_xyz
1 x,y,z
2 x,-y,1/2+z
3 1/2+x,1/2+y,z
4 1/2+x,1/2-y,1/2+z
_cell_length_a                   17.714(4)
_cell_length_b                   24.391(5)
_cell_length_c                   17.120(3)
_cell_angle_alpha                90
_cell_angle_beta                 104.39(3)
_cell_angle_gamma                90
_cell_volume                     7164.84
loop_
_atom_site_label
_atom_site_type_symbol
_atom_site_fract_x
_atom_site_fract_y
_atom_site_fract_z
Zn1 Zn 1.00168(7) 0.31633(5) 0.68121(7)
Zn2 Zn 1.15589(7) 0.25898(5) 0.80504(7)
Zn3 Zn 0.89380(7) 0.40579(5) 1.09251(7)
Zn4 Zn 0.55328(7) 0.15278(5) 0.71954(7)
Zn5 Zn 0.90086(7) 0.08029(5) 0.07934(7)
Zn6 Zn 1.04577(7) 0.02949(5) 0.21697(7)
N1 N 1.2694(6) 0.2294(4) 0.8515(6)
N2 N 1.1737(5) 0.2734(4) 0.9304(5)
N3 N 0.8784(6) 0.3970(4) 0.9683(6)
N4 N 0.7794(5) 0.4338(3) 1.0481(5)
N5 N 0.7878(5) 0.1096(3) 0.0463(6)
N6 N 0.8683(6) 0.0657(4) -0.0475(6)
O1 O 1.0504(5) 0.2754(3) 0.6098(5)
O2 O 1.1507(5) 0.2322(3) 0.6920(5)
O3 O 0.9124(5) 0.1098(4) 0.1941(4)
O4 O 0.9996(4) 0.0690(3) 0.2943(5)
O5 O 0.8402(6) 0.0042(4) 0.5938(6)
O6 O 0.9638(6) -0.0035(4) 0.6191(5)
O7 O 0.9499(5) 0.2585(3) 0.7290(6)
O8 O 1.0561(5) 0.2216(3) 0.8097(5)
O9 O 0.6457(5) 0.1956(3) 0.7667(5)
O10 O 0.5642(5) 0.2373(4) 0.8251(7)
O11 O 0.9944(5) 0.2979(3) 1.1350(5)
O12 O 0.8716(5) 0.3270(3) 1.1128(5)
O13 O 1.0693(6) 0.3570(5) 0.7695(6)
O14 O 1.1931(6) 0.3379(3) 0.7906(6)
O15 O 1.1096(4) 0.4041(3) 1.1749(5)
O16 O 1.0018(4) 0.4372(3) 1.0921(4)
O17 O 0.9953(4) 0.6107(3) 0.7825(4)
O18 O 0.8982(5) 0.5636(3) 0.7008(5)
O19 O 0.5499(5) 0.4455(4) 0.2837(6)
O20 O 0.6469(5) 0.4874(3) 0.2550(5)
O21 O 0.4993(4) 0.3824(3) 0.5663(4)
O22 O 0.5950(5) 0.4113(3) 0.6686(5)
O23 O 0.9088(5) 0.3592(3) 0.6408(5)
O24 O 0.9945(5) 0.4035(4) 0.5938(7)
C1 C 1.1057(6) 0.2418(4) 0.6246(7)
C2 C 1.1159(6) 0.2078(4) 0.5523(7)
H1 H 1.1210 0.2325 0.5080
H2 H 1.1640 0.1855 0.5684
C3 C 1.0458(6) 0.1702(4) 0.5230(5)
C4 C 1.0126(7) 0.1651(5) 0.4412(7)
H3 H 1.0359 0.1828 0.4037
C5 C 0.9451(6) 0.1340(4) 0.4138(6)
C6 C 0.9148(7) 0.1062(4) 0.4715(7)
H4 H 0.8706 0.0831 0.4537
C7 C 0.9477(7) 0.1116(4) 0.5535(6)
C8 C 1.0130(6) 0.1432(4) 0.5779(6)
H5 H 1.0366 0.1468 0.6339
C9 C 0.9058(7) 0.1310(6) 0.3267(6)
H6 H 0.8960 0.1691 0.3068
H7 H 0.8542 0.1138 0.3219
C10 C 0.9441(7) 0.1013(4) 0.2697(6)
C11 C 0.9104(8) 0.0868(5) 0.6150(8)
H8 H 0.9417 0.0967 0.6695
H9 H 0.8579 0.1029 0.6083
C12 C 0.9028(8) 0.0266(4) 0.6099(7)
C13 C 0.9838(7) 0.2239(5) 0.7812(7)
C14 C 0.9336(7) 0.1836(4) 0.8108(7)
H10 H 0.9672 0.1550 0.8429
H11 H 0.8984 0.1655 0.7639
C15 C 0.8844(6) 0.2102(4) 0.8630(6)
C16 C 0.9091(6) 0.2106(4) 0.9451(7)
H12 H 0.9578 0.1942 0.9701
C17 C 0.8654(6) 0.2342(4) 0.9937(7)
C18 C 0.7941(6) 0.2563(4) 0.9557(7)
H13 H 0.7629 0.2716 0.9880
C19 C 0.7663(6) 0.2573(4) 0.8740(7)
C20 C 0.8141(6) 0.2346(4) 0.8252(6)
H14 H 0.7977 0.2362 0.7681
C21 C 0.6884(6) 0.2795(4) 0.8335(7)
H15 H 0.6925 0.3002 0.7850
H16 H 0.6718 0.3055 0.8705
C22 C 0.6252(7) 0.2347(5) 0.8081(7)
C23 C 0.8908(8) 0.2332(4) 1.0846(7)
H17 H 0.9324 0.2057 1.1031
H18 H 0.8463 0.2237 1.1074
C24 C 0.9211(8) 0.2907(5) 1.1119(7)
C25 C 1.1425(7) 0.3712(5) 0.7880(7)
C26 C 1.1574(9) 0.4296(4) 0.8034(10)
H19 H 1.1433 0.4494 0.7513
H20 H 1.2140 0.4348 0.8265
C27 C 1.1137(8) 0.4553(4) 0.8600(8)
C28 C 1.1383(7) 0.4521(4) 0.9417(8)
H21 H 1.1850 0.4327 0.9649
C29 C 1.0985(7) 0.4759(5) 0.9918(7)
C30 C 1.0312(6) 0.5062(4) 0.9579(6)
H22 H 1.0035 0.5241 0.9915
C31 C 1.0054(7) 0.5099(4) 0.8751(7)
C32 C 1.0459(7) 0.4848(4) 0.8259(7)
H23 H 1.0277 0.4875 0.7690
C33 C 1.1235(7) 0.4738(5) 1.0826(7)
H24 H 1.1203 0.5112 1.1041
H25 H 1.1786 0.4619 1.0994
C34 C 1.0735(7) 0.4348(5) 1.1196(7)
C35 C 0.9325(7) 0.5433(5) 0.8400(7)
H26 H 0.8869 0.5185 0.8244
H27 H 0.9232 0.5692 0.8811
C36 C 0.9419(6) 0.5748(4) 0.7668(7)
C37 C 0.6180(8) 0.4470(5) 0.2817(7)
C38 C 0.6700(7) 0.3979(5) 0.3153(6)
H28 H 0.7167 0.3985 0.2934
H29 H 0.6411 0.3636 0.2969
C39 C 0.6955(6) 0.3977(4) 0.4059(7)
C40 C 0.6489(6) 0.3715(4) 0.4501(6)
H30 H 0.6023 0.3534 0.4230
C41 C 0.6719(6) 0.3725(4) 0.5344(6)
C42 C 0.7421(6) 0.3963(4) 0.5720(7)
H31 H 0.7577 0.3960 0.6292
C43 C 0.7909(6) 0.4204(4) 0.5304(7)
C44 C 0.7665(7) 0.4218(5) 0.4463(8)
H32 H 0.7982 0.4391 0.4162
C45 C 0.6236(6) 0.3427(4) 0.5808(7)
H33 H 0.5935 0.3135 0.5466
H34 H 0.6582 0.3252 0.6287
C46 C 0.5674(6) 0.3819(4) 0.6079(6)
C47 C 0.8684(6) 0.4443(4) 0.5736(7)
H35 H 0.8873 0.4690 0.5367
H36 H 0.8620 0.4663 0.6202
C48 C 0.9290(7) 0.3987(5) 0.6035(7)
C49 C 1.3128(7) 0.2110(5) 0.8036(8)
H37 H 1.2906 0.2040 0.7480
C50 C 1.3936(7) 0.2022(5) 0.8385(11)
H38 H 1.4261 0.1887 0.8062
C51 C 1.4240(8) 0.2128(6) 0.9171(10)
H39 H 1.4783 0.2084 0.9400
C52 C 1.3770(8) 0.2297(5) 0.9633(9)
H40 H 1.3982 0.2347 1.0195
C53 C 1.3004(7) 0.2396(4) 0.9315(7)
C54 C 1.2452(7) 0.2632(4) 0.9766(8)
C55 C 1.2647(9) 0.2719(6) 1.0581(8)
H41 H 1.3144 0.2616 1.0904
C56 C 1.2101(9) 0.2962(5) 1.0918(8)
H42 H 1.2238 0.3060 1.1473
C57 C 1.1369(8) 0.3062(5) 1.0466(7)
H43 H 1.0981 0.3209 1.0703
C58 C 1.1207(8) 0.2946(5) 0.9667(9)
H44 H 1.0696 0.3018 0.9347
C59 C 0.9337(8) 0.3793(6) 0.9323(8)
H45 H 0.9841 0.3704 0.9644
C60 C 0.9182(8) 0.3741(5) 0.8501(8)
H46 H 0.9575 0.3612 0.8257
C61 C 0.8469(7) 0.3873(6) 0.8036(8)
H47 H 0.8369 0.3849 0.7466
C62 C 0.7880(8) 0.4045(5) 0.8392(8)
H48 H 0.7373 0.4131 0.8075
C63 C 0.8063(6) 0.4085(4) 0.9221(7)
C64 C 0.7504(6) 0.4267(4) 0.9687(7)
C65 C 0.6722(7) 0.4375(5) 0.9313(8)
H49 H 0.6531 0.4326 0.8747
C66 C 0.6228(7) 0.4552(4) 0.9772(7)
H50 H 0.5693 0.4624 0.9532
C67 C 0.6533(7) 0.4620(5) 1.0583(8)
H51 H 0.6207 0.4739 1.0915
C68 C 0.7293(6) 0.4517(4) 1.0914(7)
H52 H 0.7489 0.4572 1.1477
C69 C 0.7474(7) 0.1267(5) 0.0993(8)
H53 H 0.7746 0.1326 0.1539
C70 C 0.6694(7) 0.1357(4) 0.0770(8)
H54 H 0.6429 0.1482 0.1155
C71 C 0.6293(7) 0.1267(4) -0.0005(8)
H55 H 0.5745 0.1324 -0.0163
C72 C 0.6682(6) 0.1095(5) -0.0556(7)
H56 H 0.6411 0.1032 -0.1101
C73 C 0.7495(7) 0.1012(4) -0.0300(7)
C74 C 0.7953(6) 0.0793(4) -0.0838(6)
C75 C 0.7658(7) 0.0739(5) -0.1659(7)
H57 H 0.7141 0.0851 -0.1911
C76 C 0.8131(8) 0.0520(6) -0.2103(8)
H58 H 0.7932 0.0471 -0.2668
C77 C 0.8865(8) 0.0372(5) -0.1760(8)
H59 H 0.9187 0.0219 -0.2073
C78 C 0.9153(7) 0.0449(5) -0.0920(7)
H60 H 0.9677 0.0355 -0.0666
Zn3A Zn 0.89380(7) 0.59421(5) 0.59251(7)
Zn4C Zn 1.05328(7) 0.34722(5) 1.21954(7)
Zn4B Zn 1.05328(7) 0.65278(5) 0.71954(7)
Zn5A Zn 0.90086(7) -0.08029(5) 0.57934(7)
Zn5C Zn 0.40086(7) 0.41971(5) 0.57934(7)
Zn6A Zn 1.04577(7) -0.02949(5) 0.71697(7)
Zn6B Zn 0.54577(7) 0.52949(5) 0.21697(7)
Zn6C Zn 0.54577(7) 0.47051(5) 0.71697(7)
O5A O 0.8402(6) -0.0042(4) 0.0938(6)
O6A O 0.9638(6) 0.0035(4) 0.1191(5)
O11C O 0.4944(5) 0.2021(3) 0.6350(5)
O15C O 0.6096(4) 0.0959(3) 0.6749(5)
O17B O 0.4953(4) 0.1107(3) 0.7825(4)
O18A O 0.8982(5) 0.4364(3) 1.2008(5)
O19B O 1.0499(5) -0.0545(4) 0.2837(6)
O20B O 1.1469(5) -0.0126(3) 0.2550(5)
O21C O 0.9993(4) 0.1176(3) 0.0663(4)
O22C O 1.0950(5) 0.0887(3) 0.1686(5)
loop_
_geom_bond_atom_site_label_1
_geom_bond_atom_site_label_2
_geom_bond_site_symmetry_1
_geom_bond_site_symmetry_2
Zn1 O1 1_555 1_555
Zn2 N1 1_555 1_555
Zn3 N3 1_555 1_555
Zn4 O9 1_555 1_555
Zn5 N5 1_555 1_555
Zn6 O4 1_555 1_555
N1 C49 1_555 1_555
N2 Zn2 1_555 1_555
N3 C59 1_555 1_555
N4 Zn3 1_555 1_555
N5 C69 1_555 1_555
N6 Zn5 1_555 1_555
O1 C1 1_555 1_555
O2 Zn2 1_555 1_555
O3 Zn5 1_555 1_555
O4 C10 1_555 1_555
O5 C12 1_555 1_555
O6 C12 1_555 1_555
O7 Zn1 1_555 1_555
O8 Zn2 1_555 1_555
O9 C22 1_555 1_555
O10 C22 1_555 1_555
O11 C24 1_555 1_555
O12 Zn3 1_555 1_555
O13 Zn1 1_555 1_555
O14 Zn2 1_555 1_555
O15 C34 1_555 1_555
O16 Zn3 1_555 1_555
O17 C36 1_555 1_555
O18 C36 1_555 1_555
O19 C37 1_555 1_555
O20 C37 1_555 1_555
O21 C46 1_555 1_555
O22 C46 1_555 1_555
O23 Zn1 1_555 1_555
O24 C48 1_555 1_555
C1 O2 1_555 1_555
C2 C1 1_555 1_555
H1 C2 1_555 1_555
H2 C2 1_555 1_555
C3 C2 1_555 1_555
C4 C3 1_555 1_555
H3 C4 1_555 1_555
C5 C4 1_555 1_555
C6 C5 1_555 1_555
H4 C6 1_555 1_555
C7 C6 1_555 1_555
C8 C3 1_555 1_555
H5 C8 1_555 1_555
C9 C5 1_555 1_555
H6 C9 1_555 1_555
H7 C9 1_555 1_555
C10 O3 1_555 1_555
C11 C7 1_555 1_555
H8 C11 1_555 1_555
H9 C11 1_555 1_555
C12 C11 1_555 1_555
C13 O7 1_555 1_555
C14 C13 1_555 1_555
H10 C14 1_555 1_555
H11 C14 1_555 1_555
C15 C14 1_555 1_555
C16 C15 1_555 1_555
H12 C16 1_555 1_555
C17 C16 1_555 1_555
C18 C17 1_555 1_555
H13 C18 1_555 1_555
C19 C18 1_555 1_555
C20 C15 1_555 1_555
H14 C20 1_555 1_555
C21 C19 1_555 1_555
H15 C21 1_555 1_555
H16 C21 1_555 1_555
C22 C21 1_555 1_555
C23 C17 1_555 1_555
H17 C23 1_555 1_555
H18 C23 1_555 1_555
C24 O12 1_555 1_555
C25 O13 1_555 1_555
C26 C25 1_555 1_555
H19 C26 1_555 1_555
H20 C26 1_555 1_555
C27 C26 1_555 1_555
C28 C27 1_555 1_555
H21 C28 1_555 1_555
C29 C28 1_555 1_555
C30 C29 1_555 1_555
H22 C30 1_555 1_555
C31 C30 1_555 1_555
C32 C27 1_555 1_555
H23 C32 1_555 1_555
C33 C29 1_555 1_555
H24 C33 1_555 1_555
H25 C33 1_555 1_555
C34 O16 1_555 1_555
C35 C31 1_555 1_555
H26 C35 1_555 1_555
H27 C35 1_555 1_555
C36 C35 1_555 1_555
C37 C38 1_555 1_555
C38 H28 1_555 1_555
H29 C38 1_555 1_555
C39 C38 1_555 1_555
C40 C39 1_555 1_555
H30 C40 1_555 1_555
C41 C40 1_555 1_555
C42 C41 1_555 1_555
H31 C42 1_555 1_555
C43 C42 1_555 1_555
C44 C39 1_555 1_555
H32 C44 1_555 1_555
C45 C41 1_555 1_555
H33 C45 1_555 1_555
H34 C45 1_555 1_555
C46 C45 1_555 1_555
C47 C43 1_555 1_555
H35 C47 1_555 1_555
H36 C47 1_555 1_555
C48 O23 1_555 1_555
C49 H37 1_555 1_555
C50 C49 1_555 1_555
H38 C50 1_555 1_555
C51 C50 1_555 1_555
H39 C51 1_555 1_555
C52 C51 1_555 1_555
H40 C52 1_555 1_555
C53 N1 1_555 1_555
C54 N2 1_555 1_555
C55 C54 1_555 1_555
H41 C55 1_555 1_555
C56 C55 1_555 1_555
H42 C56 1_555 1_555
C57 C56 1_555 1_555
H43 C57 1_555 1_555
C58 N2 1_555 1_555
H44 C58 1_555 1_555
C59 H45 1_555 1_555
C60 C59 1_555 1_555
H46 C60 1_555 1_555
C61 C60 1_555 1_555
H47 C61 1_555 1_555
C62 C61 1_555 1_555
H48 C62 1_555 1_555
C63 N3 1_555 1_555
C64 N4 1_555 1_555
C65 C64 1_555 1_555
H49 C65 1_555 1_555
C66 C65 1_555 1_555
H50 C66 1_555 1_555
C67 C66 1_555 1_555
H51 C67 1_555 1_555
C68 N4 1_555 1_555
H52 C68 1_555 1_555
C69 H53 1_555 1_555
C70 C69 1_555 1_555
H54 C70 1_555 1_555
C71 C70 1_555 1_555
H55 C71 1_555 1_555
C72 C71 1_555 1_555
H56 C72 1_555 1_555
C73 N5 1_555 1_555
C74 N6 1_555 1_555
C75 C74 1_555 1_555
H57 C75 1_555 1_555
C76 C75 1_555 1_555
H58 C76 1_555 1_555
C77 C76 1_555 1_555
H59 C77 1_555 1_555
C78 N6 1_555 1_555
H60 C78 1_555 1_555
Zn3A O18 1_555 1_555
Zn4C O11 1_555 1_555
Zn4B O17 1_555 1_555
Zn5A O5 1_555 1_555
Zn5C O21 1_555 1_555
Zn6A O6 1_555 1_555
Zn6B O19 1_555 1_555
Zn6C O22 1_555 1_555
O5A Zn5 1_555 1_555
O6A Zn5 1_555 1_555
O11C Zn4 1_555 1_555
O15C Zn4 1_555 1_555
O17B Zn4 1_555 1_555
O18A Zn3 1_555 1_555
O19B Zn6 1_555 1_555
O20B Zn6 1_555 1_555
O21C Zn5 1_555 1_555
O22C Zn6 1_555 1_555
Zn6 O6A 1_555 1_555
O6 Zn5A 1_555 1_555
O8 C13 1_555 1_555
O14 C25 1_555 1_555
O15 Zn4C 1_555 1_555
O20 Zn6B 1_555 1_555
C7 C8 1_555 1_555
C9 C10 1_555 1_555
C19 C20 1_555 1_555
C23 C24 1_555 1_555
C31 C32 1_555 1_555
C33 C34 1_555 1_555
C43 C44 1_555 1_555
C47 C48 1_555 1_555
C52 C53 1_555 1_555
C53 C54 1_555 1_555
C57 C58 1_555 1_555
C62 C63 1_555 1_555
C63 C64 1_555 1_555
C67 C68 1_555 1_555
C72 C73 1_555 1_555
C73 C74 1_555 1_555
C77 C78 1_555 1_555

#END
