
#######################################################################
#
#                 Cambridge Crystallographic Data Centre
#                                CCDC 
#
#######################################################################
#
# If this CIF has been generated from an entry in the Cambridge 
# Structural Database, then it will include bibliographic, chemical, 
# crystal, experimental, refinement or atomic coordinate data resulting 
# from the CCDC's data processing and validation procedures.
#
#######################################################################

data_POLYAS
_symmetry_cell_setting           triclinic
_symmetry_space_group_name_H-M   'P -1'
_symmetry_Int_Tables_number      2
_space_group_name_Hall           '-P 1'
loop_
_symmetry_equiv_pos_site_id
_symmetry_equiv_pos_as_xyz
1 x,y,z
2 -x,-y,-z
_cell_length_a                   10.388(2)
_cell_length_b                   14.804(3)
_cell_length_c                   20.219(4)
_cell_angle_alpha                83.24(3)
_cell_angle_beta                 84.10(3)
_cell_angle_gamma                87.45(3)
_cell_volume                     3069.73
loop_
_atom_site_label
_atom_site_type_symbol
_atom_site_fract_x
_atom_site_fract_y
_atom_site_fract_z
Zn1 Zn 0.25954(3) 0.60752(2) 0.364261(19)
Zn2 Zn 0.25361(3) 0.87815(2) 0.379454(19)
N1 N 0.2557(3) 0.6016(2) 0.25694(15)
N2 N 0.2578(3) 0.60317(19) -0.52954(14)
N3 N 0.2499(3) 0.8986(2) 0.48366(15)
N4 N 0.2470(3) 0.8681(2) 1.27176(15)
O1 O 0.1423(2) 0.48805(16) 0.37914(14)
O2 O 0.3522(2) 0.46606(16) 0.36762(14)
O3 O 0.3785(3) -0.00423(17) 0.35183(14)
O4 O 0.1687(3) 0.01918(18) 0.35799(15)
O5 O 0.4369(2) 0.66249(16) 0.34419(12)
O6 O 0.4090(2) 0.79231(16) 0.38971(12)
O7 O 1.0782(2) 0.82463(17) 0.40172(13)
O8 O 1.1022(2) 0.69306(16) 0.35858(12)
C1 C 0.3570(4) 0.5738(3) 0.2205(2)
H1 H 0.4341 0.5612 0.2409
C2 C 0.3584(5) 0.5616(4) 0.1532(2)
H2 H 0.4348 0.5411 0.1296
C3 C 0.2489(5) 0.5795(5) 0.1216(3)
C4 C 0.1423(5) 0.6078(5) 0.1603(2)
H3 H 0.0636 0.6204 0.1414
C5 C 0.1492(5) 0.6179(5) 0.2266(2)
H4 H 0.0739 0.6375 0.2516
C6 C 0.2437(6) 0.5721(5) 0.0497(3)
H5 H 0.1613 0.5811 0.0343
C7 C 0.3322(5) 0.5558(4) 0.0073(2)
H6 H 0.4129 0.5404 0.0235
C8 C 0.3292(5) 0.5572(4) -0.0667(2)
C9 C 0.3720(5) 0.6345(3) -0.1079(2)
C10 C 0.3736(4) 0.6380(3) -0.1777(2)
C11 C 0.3340(4) 0.5624(3) -0.2052(2)
C12 C 0.2939(5) 0.4838(3) -0.1634(2)
C13 C 0.2921(6) 0.4821(4) -0.0946(3)
C14 C 0.3424(4) 0.5667(3) -0.2795(2)
H7 H 0.4252 0.5586 -0.3019
C15 C 0.2459(4) 0.5807(3) -0.3163(2)
H8 H 0.1629 0.5863 -0.2936
C16 C 0.2536(3) 0.5887(2) -0.38984(18)
C17 C 0.3697(3) 0.5888(3) -0.43085(18)
H9 H 0.4492 0.5842 -0.4121
C18 C 0.3666(3) 0.5959(3) -0.49880(18)
H10 H 0.4460 0.5955 -0.5256
C19 C 0.1475(3) 0.6006(3) -0.49001(19)
H11 H 0.0695 0.6041 -0.5102
C20 C 0.1403(4) 0.5930(3) -0.4215(2)
H12 H 0.0593 0.5907 -0.3960
C21 C 0.4192(6) 0.7165(4) -0.0784(3)
H13 H 0.4009 0.7082 -0.0301
H14 H 0.3749 0.7716 -0.0964
H15 H 0.5118 0.7216 -0.0899
C22 C 0.4176(6) 0.7223(3) -0.2223(3)
H16 H 0.3620 0.7739 -0.2112
H17 H 0.4128 0.7133 -0.2687
H18 H 0.5062 0.7338 -0.2155
C23 C 0.2603(6) 0.4013(4) -0.1947(3)
H19 H 0.1670 0.3992 -0.1943
H20 H 0.2926 0.3467 -0.1694
H21 H 0.2998 0.4050 -0.2405
C24 C 0.2514(6) 0.3964(4) -0.0496(2)
H22 H 0.2836 0.3969 -0.0062
H23 H 0.2872 0.3433 -0.0698
H24 H 0.1577 0.3943 -0.0440
C25 C 0.1399(4) 0.9094(3) 0.5220(2)
H25 H 0.0617 0.9090 0.5024
C26 C 0.1334(4) 0.9212(3) 0.5896(2)
H26 H 0.0527 0.9277 0.6146
C27 C 0.2472(4) 0.9234(3) 0.6198(2)
C28 C 0.3602(4) 0.9192(4) 0.5786(2)
H27 H 0.4398 0.9253 0.5957
C29 C 0.3580(4) 0.9063(4) 0.5124(2)
H28 H 0.4375 0.9026 0.4860
C30 C 0.2545(5) 0.9306(3) 0.6924(2)
H29 H 0.3370 0.9369 0.7063
C31 C 0.1591(5) 0.9290(3) 0.7366(2)
H30 H 0.0763 0.9287 0.7218
C32 C 0.1652(5) 0.9274(4) 0.8108(2)
C33 C 0.0985(6) 0.8585(5) 0.8518(3)
C34 C 0.0926(6) 0.8568(5) 0.9211(3)
C35 C 0.1538(7) 0.9213(5) 0.9492(3)
C36 C 0.2207(6) 0.9891(4) 0.9086(2)
C37 C 0.2269(7) 0.9929(4) 0.8389(3)
C38 C 0.1482(5) 0.9177(4) 1.0235(2)
H31 H 0.0767 0.9470 1.0453
C39 C 0.2316(6) 0.8784(4) 1.0602(2)
H32 H 0.3009 0.8477 1.0377
C40 C 0.2337(5) 0.8747(3) 1.1330(2)
C41 C 0.1325(4) 0.9061(4) 1.1751(2)
H33 H 0.0565 0.9308 1.1576
C42 C 0.1432(4) 0.9013(3) 1.2425(2)
H34 H 0.0725 0.9229 1.2698
C43 C 0.3422(5) 0.8366(3) 1.2316(2)
H35 H 0.4168 0.8116 1.2505
C44 C 0.3387(5) 0.8383(4) 1.1636(2)
H36 H 0.4095 0.8141 1.1377
C45 C 0.0400(6) 0.7817(4) 0.8211(3)
H37 H -0.0507 0.7961 0.8162
H38 H 0.0481 0.7251 0.8501
H39 H 0.0858 0.7752 0.7775
C46 C 0.0155(6) 0.7827(5) 0.9648(3)
H40 H 0.0685 0.7271 0.9695
H41 H -0.0616 0.7716 0.9440
H42 H -0.0094 0.8022 1.0086
C47 C 0.2866(6) 1.0609(4) 0.9396(2)
H43 H 0.2510 1.0619 0.9858
H44 H 0.2722 1.1200 0.9148
H45 H 0.3788 1.0466 0.9380
C48 C 0.2969(7) 1.0693(4) 0.7962(2)
H46 H 0.3880 1.0524 0.7886
H47 H 0.2873 1.1238 0.8189
H48 H 0.2604 1.0810 0.7536
C49 C 0.2203(4) 0.3341(2) 0.3795(2)
H49 H 0.1350 0.3209 0.4046
C50 C 0.2167(5) 0.3086(3) 0.3096(2)
H50 H 0.2973 0.3265 0.2826
H51 H 0.1449 0.3422 0.2890
C51 C 0.2001(5) 0.2063(3) 0.3093(2)
H52 H 0.1134 0.1902 0.3298
H53 H 0.2076 0.1919 0.2629
C52 C 0.2998(4) 0.1501(2) 0.34669(18)
H54 H 0.3863 0.1634 0.3231
C53 C 0.2968(4) 0.1767(2) 0.41715(19)
H55 H 0.2119 0.1636 0.4415
H56 H 0.3626 0.1404 0.4409
C54 C 0.3223(4) 0.2771(2) 0.4154(2)
H57 H 0.3211 0.2929 0.4612
H58 H 0.4082 0.2900 0.3922
C55 C 0.2396(4) 0.4361(2) 0.37573(19)
C56 C 0.2812(4) 0.0479(3) 0.35144(19)
C57 C 0.6250(3) 0.7414(2) 0.35660(17)
H59 H 0.6510 0.7528 0.3079
C58 C 0.6953(3) 0.6541(2) 0.3818(2)
H60 H 0.6681 0.6039 0.3594
H61 H 0.6717 0.6400 0.4300
C59 C 0.8425(3) 0.6624(2) 0.3684(2)
H62 H 0.8851 0.6063 0.3875
H63 H 0.8670 0.6696 0.3200
C60 C 0.8889(3) 0.7424(2) 0.39832(18)
H64 H 0.8690 0.7302 0.4474
C61 C 0.8162(3) 0.8298(2) 0.3762(2)
H65 H 0.8411 0.8475 0.3285
H66 H 0.8416 0.8782 0.4009
C62 C 0.6687(3) 0.8214(2) 0.3875(2)
H67 H 0.6417 0.8140 0.4357
H68 H 0.6269 0.8774 0.3679
C63 C 0.4778(3) 0.7316(2) 0.36479(16)
C64 C 1.0354(3) 0.7537(2) 0.38502(16)
Zn1_2 Zn 0.25954(3) 0.60752(2) -0.635739(19)
Zn1_3 Zn 1.25954(3) 0.60752(2) 0.364261(19)
Zn2_2 Zn 0.25361(3) -0.12185(2) 0.379454(19)
Zn2_3 Zn 0.25361(3) 0.87815(2) 1.379454(19)
Zn2_4 Zn 1.25361(3) 0.87815(2) 0.379454(19)
N2_2 N 0.2578(3) 0.60317(19) 0.47046(14)
N4_2 N 0.2470(3) 0.8681(2) 0.27176(15)
O3_2 O 0.3785(3) 0.99577(17) 0.35183(14)
O4_2 O 0.1687(3) 1.01918(18) 0.35799(15)
O7_2 O 0.0782(2) 0.82463(17) 0.40172(13)
O8_2 O 0.1022(2) 0.69306(16) 0.35858(12)
loop_
_geom_bond_atom_site_label_1
_geom_bond_atom_site_label_2
_geom_bond_site_symmetry_1
_geom_bond_site_symmetry_2
Zn1 N1 1_555 1_555
Zn2 N3 1_555 1_555
N1 C1 1_555 1_555
N2 C18 1_555 1_555
N3 C25 1_555 1_555
N4 C42 1_555 1_555
O1 Zn1 1_555 1_555
O2 Zn1 1_555 1_555
O3 C56 1_555 1_555
O4 C56 1_555 1_555
O5 Zn1 1_555 1_555
O6 Zn2 1_555 1_555
O7 C64 1_555 1_555
O8 C64 1_555 1_555
C1 H1 1_555 1_555
C2 C1 1_555 1_555
H2 C2 1_555 1_555
C3 C2 1_555 1_555
C4 C3 1_555 1_555
H3 C4 1_555 1_555
C5 N1 1_555 1_555
H4 C5 1_555 1_555
C6 C3 1_555 1_555
H5 C6 1_555 1_555
C7 C6 1_555 1_555
H6 C7 1_555 1_555
C8 C7 1_555 1_555
C9 C8 1_555 1_555
C10 C9 1_555 1_555
C11 C10 1_555 1_555
C12 C11 1_555 1_555
C13 C8 1_555 1_555
C14 C11 1_555 1_555
H7 C14 1_555 1_555
C15 C14 1_555 1_555
H8 C15 1_555 1_555
C16 C15 1_555 1_555
C17 C16 1_555 1_555
H9 C17 1_555 1_555
C18 C17 1_555 1_555
H10 C18 1_555 1_555
C19 N2 1_555 1_555
H11 C19 1_555 1_555
C20 C16 1_555 1_555
H12 C20 1_555 1_555
C21 C9 1_555 1_555
H13 C21 1_555 1_555
H14 C21 1_555 1_555
H15 C21 1_555 1_555
C22 C10 1_555 1_555
H16 C22 1_555 1_555
H17 C22 1_555 1_555
H18 C22 1_555 1_555
C23 C12 1_555 1_555
H19 C23 1_555 1_555
H20 C23 1_555 1_555
H21 C23 1_555 1_555
C24 C13 1_555 1_555
H22 C24 1_555 1_555
H23 C24 1_555 1_555
H24 C24 1_555 1_555
C25 H25 1_555 1_555
C26 C25 1_555 1_555
H26 C26 1_555 1_555
C27 C26 1_555 1_555
C28 C27 1_555 1_555
H27 C28 1_555 1_555
C29 N3 1_555 1_555
H28 C29 1_555 1_555
C30 C27 1_555 1_555
H29 C30 1_555 1_555
C31 C30 1_555 1_555
H30 C31 1_555 1_555
C32 C31 1_555 1_555
C33 C32 1_555 1_555
C34 C33 1_555 1_555
C35 C34 1_555 1_555
C36 C35 1_555 1_555
C37 C32 1_555 1_555
C38 C35 1_555 1_555
H31 C38 1_555 1_555
C39 C38 1_555 1_555
H32 C39 1_555 1_555
C40 C39 1_555 1_555
C41 C40 1_555 1_555
H33 C41 1_555 1_555
C42 C41 1_555 1_555
H34 C42 1_555 1_555
C43 N4 1_555 1_555
H35 C43 1_555 1_555
C44 C40 1_555 1_555
H36 C44 1_555 1_555
C45 C33 1_555 1_555
H37 C45 1_555 1_555
H38 C45 1_555 1_555
H39 C45 1_555 1_555
C46 C34 1_555 1_555
H40 C46 1_555 1_555
H41 C46 1_555 1_555
H42 C46 1_555 1_555
C47 C36 1_555 1_555
H43 C47 1_555 1_555
H44 C47 1_555 1_555
H45 C47 1_555 1_555
C48 C37 1_555 1_555
H46 C48 1_555 1_555
H47 C48 1_555 1_555
H48 C48 1_555 1_555
C49 H49 1_555 1_555
C50 C49 1_555 1_555
H50 C50 1_555 1_555
H51 C50 1_555 1_555
C51 C50 1_555 1_555
H52 C51 1_555 1_555
H53 C51 1_555 1_555
C52 C51 1_555 1_555
H54 C52 1_555 1_555
C53 C52 1_555 1_555
H55 C53 1_555 1_555
H56 C53 1_555 1_555
C54 C49 1_555 1_555
H57 C54 1_555 1_555
H58 C54 1_555 1_555
C55 O1 1_555 1_555
C56 C52 1_555 1_555
C57 H59 1_555 1_555
C58 C57 1_555 1_555
H60 C58 1_555 1_555
H61 C58 1_555 1_555
C59 C58 1_555 1_555
H62 C59 1_555 1_555
H63 C59 1_555 1_555
C60 C59 1_555 1_555
H64 C60 1_555 1_555
C61 C60 1_555 1_555
H65 C61 1_555 1_555
H66 C61 1_555 1_555
C62 C57 1_555 1_555
H67 C62 1_555 1_555
H68 C62 1_555 1_555
C63 O5 1_555 1_555
C64 C60 1_555 1_555
Zn1_2 N2 1_555 1_555
Zn1_3 O8 1_555 1_555
Zn2_2 O3 1_555 1_555
Zn2_3 N4 1_555 1_555
Zn2_4 O7 1_555 1_555
N2_2 Zn1 1_555 1_555
N4_2 Zn2 1_555 1_555
O3_2 Zn2 1_555 1_555
O4_2 Zn2 1_555 1_555
O7_2 Zn2 1_555 1_555
O8_2 Zn1 1_555 1_555
O2 C55 1_555 1_555
O4 Zn2_2 1_555 1_555
O6 C63 1_555 1_555
C4 C5 1_555 1_555
C12 C13 1_555 1_555
C19 C20 1_555 1_555
C28 C29 1_555 1_555
C36 C37 1_555 1_555
C43 C44 1_555 1_555
C49 C55 1_555 1_555
C53 C54 1_555 1_555
C57 C63 1_555 1_555
C61 C62 1_555 1_555

#END
