
#######################################################################
#
#                 Cambridge Crystallographic Data Centre
#                                CCDC 
#
#######################################################################
#
# If this CIF has been generated from an entry in the Cambridge 
# Structural Database, then it will include bibliographic, chemical, 
# crystal, experimental, refinement or atomic coordinate data resulting 
# from the CCDC's data processing and validation procedures.
#
#######################################################################

data_POMBAU01
_symmetry_cell_setting           monoclinic
_symmetry_space_group_name_H-M   'P 21/n'
_symmetry_Int_Tables_number      14
_space_group_name_Hall           '-P 2yn'
loop_
_symmetry_equiv_pos_site_id
_symmetry_equiv_pos_as_xyz
1 x,y,z
2 1/2-x,1/2+y,1/2-z
3 -x,-y,-z
4 1/2+x,1/2-y,1/2+z
_cell_length_a                   9.212
_cell_length_b                   16.620
_cell_length_c                   20.088
_cell_angle_alpha                90
_cell_angle_beta                 98.46
_cell_angle_gamma                90
_cell_volume                     3042.08
loop_
_atom_site_label
_atom_site_type_symbol
_atom_site_fract_x
_atom_site_fract_y
_atom_site_fract_z
Mn1 Mn 0.85519(8) -0.49201(4) 0.23865(4)
F1 F 0.5803(4) -0.3991(2) 0.4416(2)
F2 F 0.6530(5) -0.5170(3) 0.4590(2)
F3 F 1.1147(6) -0.2764(3) 0.3698(3)
F4 F 1.0946(5) -0.3290(4) 0.4601(2)
F5 F 1.2599(5) -0.5727(4) 0.1205(3)
F6 F 1.2944(6) -0.4587(4) 0.1521(3)
F7 F 1.4140(5) -0.5478(4) 0.2033(3)
F8 F 1.2778(5) -0.6411(3) 0.4053(2)
F9 F 1.0974(8) -0.7115(3) 0.3836(3)
F10 F 1.0863(7) -0.6052(4) 0.4328(2)
F11 F 0.4913(4) -0.4921(3) 0.3783(2)
F12 F 1.2210(5) -0.3806(4) 0.3954(3)
O1 O 0.9831(4) -0.4071(2) 0.3022(2)
O2 O 0.7663(4) -0.3986(2) 0.1752(2)
O3 O 0.9569(4) -0.5838(2) 0.3063(2)
O4 O 0.7742(4) -0.0696(2) 0.3261(2)
O5 O 0.7055(3) -0.4813(2) 0.3099(2)
O6 O 1.0435(4) -0.5135(2) 0.1904(2)
N1 N 0.7846(5) -0.3220(2) 0.1868(2)
N2 N 0.7228(4) -0.1269(2) 0.3596(2)
C1 C 0.7324(6) -0.4523(3) 0.3674(3)
C2 C 0.8557(7) -0.4102(4) 0.3955(3)
C3 C 0.9699(6) -0.3916(3) 0.3615(3)
C4 C 0.7018(5) -0.2885(3) 0.2342(2)
C5 C 0.5678(6) -0.3233(3) 0.2404(3)
C6 C 0.4860(7) -0.2928(4) 0.2865(3)
C7 C 0.7524(6) -0.2245(3) 0.2748(3)
C8 C 0.6688(5) -0.1955(3) 0.3211(2)
C9 C 0.5350(7) -0.2291(3) 0.3268(3)
C10 C 1.1641(6) -0.5404(3) 0.2176(3)
C11 C 1.1974(6) -0.5781(3) 0.2789(3)
C12 C 1.0910(7) -0.5963(3) 0.3181(3)
C13 C 0.6110(7) -0.4647(4) 0.4114(3)
C14 C 1.0999(8) -0.3458(5) 0.3987(4)
C15 C 0.8760(8) -0.2780(3) 0.1431(3)
C16 C 0.837(1) -0.1917(4) 0.1348(5)
C17 C 1.034(1) -0.2865(7) 0.1772(8)
C18 C 0.7472(6) -0.1197(3) 0.4351(2)
C19 C 0.730(1) -0.1986(4) 0.4678(3)
C20 C 0.895(1) -0.0869(8) 0.4556(4)
C21 C 1.1375(8) -0.6382(5) 0.3851(4)
C22 C 1.2864(8) -0.5301(6) 0.1755(4)
C23 C 0.636(1) -0.0629(6) 0.4552(4)
C24 C 0.858(2) -0.3185(6) 0.0777(6)
H1 H 0.478(5) -0.207(3) 0.352(2)
H2 H 0.841(5) -0.203(3) 0.274(2)
H3 H 0.535(5) -0.366(3) 0.214(2)
H4 H 0.867(4) -0.396(2) 0.434(2)
H5 H 0.401(5) -0.315(3) 0.290(2)
H6 H 0.891(7) -0.166(4) 0.110(3)
H7 H 0.7240(1) -0.191(6) 0.116(5)
H8 H 1.0568 -0.3418 0.1844
H9 H 1.0979 -0.2636 0.1493
H10 H 1.0459 -0.2592 0.2192
H11 H 0.8016 -0.2351 0.4559
H12 H 0.7439 -0.1918 0.5152
H13 H 0.6349 -0.2192 0.4530
H14 H 0.9026 -0.0355 0.4357
H15 H 0.9136 -0.0819 0.5032
H16 H 0.9659 -0.1221 0.4413
H17 H 0.5407 -0.0831 0.4404
H18 H 0.6509 -0.0574 0.5028
H19 H 0.6472 -0.0118 0.4352
H20 H 0.7574 -0.3188 0.0589
H21 H 0.9131 -0.2908 0.0484
H22 H 0.8927 -0.3723 0.0835
H23 H 1.2966 -0.5920 0.2946
H24 H 0.8563 -0.1655 0.1772
O4A O 0.7258(4) -0.5696(2) 0.1739(2)
Mn1A Mn 0.64481(8) 0.00799(4) 0.26135(4)
loop_
_geom_bond_atom_site_label_1
_geom_bond_atom_site_label_2
_geom_bond_site_symmetry_1
_geom_bond_site_symmetry_2
Mn1 O1 1_555 1_555
F1 C13 1_555 1_555
F2 C13 1_555 1_555
F3 C14 1_555 1_555
F4 C14 1_555 1_555
F5 C22 1_555 1_555
F6 C22 1_555 1_555
F7 C22 1_555 1_555
F8 C21 1_555 1_555
F9 C21 1_555 1_555
F10 C21 1_555 1_555
F11 C13 1_555 1_555
F12 C14 1_555 1_555
O1 C3 1_555 1_555
O2 Mn1 1_555 1_555
O3 Mn1 1_555 1_555
O4 N2 1_555 1_555
O5 Mn1 1_555 1_555
O6 Mn1 1_555 1_555
N1 O2 1_555 1_555
N2 C8 1_555 1_555
C1 O5 1_555 1_555
C2 C1 1_555 1_555
C3 C2 1_555 1_555
C4 N1 1_555 1_555
C5 C4 1_555 1_555
C6 C5 1_555 1_555
C7 C4 1_555 1_555
C8 C7 1_555 1_555
C9 C6 1_555 1_555
C10 O6 1_555 1_555
C11 C10 1_555 1_555
C12 O3 1_555 1_555
C13 C1 1_555 1_555
C14 C3 1_555 1_555
C15 N1 1_555 1_555
C16 C15 1_555 1_555
C17 C15 1_555 1_555
C18 N2 1_555 1_555
C19 C18 1_555 1_555
C20 C18 1_555 1_555
C21 C12 1_555 1_555
C22 C10 1_555 1_555
C23 C18 1_555 1_555
C24 C15 1_555 1_555
H1 C9 1_555 1_555
H2 C7 1_555 1_555
H3 C5 1_555 1_555
H4 C2 1_555 1_555
H5 C6 1_555 1_555
H6 C16 1_555 1_555
H7 C16 1_555 1_555
H8 C17 1_555 1_555
H9 C17 1_555 1_555
H10 C17 1_555 1_555
H11 C19 1_555 1_555
H12 C19 1_555 1_555
H13 C19 1_555 1_555
H14 C20 1_555 1_555
H15 C20 1_555 1_555
H16 C20 1_555 1_555
H17 C23 1_555 1_555
H18 C23 1_555 1_555
H19 C23 1_555 1_555
H20 C24 1_555 1_555
H21 C24 1_555 1_555
H22 C24 1_555 1_555
H23 C11 1_555 1_555
H24 C16 1_555 1_555
O4A Mn1 1_555 1_555
Mn1A O4 1_555 1_555
C8 C9 1_555 1_555
C11 C12 1_555 1_555

#END
