
#######################################################################
#
#                 Cambridge Crystallographic Data Centre
#                                CCDC 
#
#######################################################################
#
# If this CIF has been generated from an entry in the Cambridge 
# Structural Database, then it will include bibliographic, chemical, 
# crystal, experimental, refinement or atomic coordinate data resulting 
# from the CCDC's data processing and validation procedures.
#
#######################################################################

data_POMDAY
_symmetry_cell_setting           monoclinic
_symmetry_space_group_name_H-M   'C 2/c'
_symmetry_Int_Tables_number      15
_space_group_name_Hall           '-C 2yn'
loop_
_symmetry_equiv_pos_site_id
_symmetry_equiv_pos_as_xyz
1 x,y,z
2 -x,y,1/2-z
3 1/2+x,1/2+y,z
4 1/2-x,1/2+y,1/2-z
5 -x,-y,-z
6 x,-y,1/2+z
7 1/2-x,1/2-y,-z
8 1/2+x,1/2-y,1/2+z
_cell_length_a                   18.7894(17)
_cell_length_b                   6.4440(4)
_cell_length_c                   18.4847(19)
_cell_angle_alpha                90
_cell_angle_beta                 111.976(4)
_cell_angle_gamma                90
_cell_volume                     2075.49
loop_
_atom_site_label
_atom_site_type_symbol
_atom_site_fract_x
_atom_site_fract_y
_atom_site_fract_z
Zn1 Zn 0.5000 0.17448(6) 0.2500
Zn2 Zn 0.2500 0.2500 0.0000
C1 C 0.52951(17) 0.3163(6) 0.10751(17)
C2 C 0.5895(2) 0.6184(6) 0.1481(2)
C3 C 0.29842(12) -0.3668(4) 0.08603(13)
C4 C 0.30519(13) -0.1997(4) 0.13582(14)
C5 C 0.21592(16) -0.3432(5) 0.17595(17)
H1 H 0.1872 -0.3409 0.2074
C6 C 0.20670(15) -0.5090(4) 0.12510(17)
H2 H 0.1718 -0.6137 0.1226
C7 C 0.34710(13) -0.3940(4) 0.03713(13)
C8 C 0.36057(14) -0.0214(4) 0.14620(14)
O1 O 0.33051(11) -0.5477(3) -0.00916(10)
O2 O 0.39902(12) -0.2685(3) 0.04507(13)
O3 O 0.41974(11) -0.0345(3) 0.20769(12)
O4 O 0.34513(11) 0.1246(3) 0.09991(12)
N1 N 0.56144(19) 0.5451(5) 0.1956(2)
H3 H 0.5653 0.6099 0.2376
N2 N 0.52479(13) 0.3573(4) 0.17648(12)
N3 N 0.56839(16) 0.4734(6) 0.09112(18)
N4 N 0.5011(2) 0.1511(7) 0.0633(2)
H4 H 0.4770 0.0578 0.0784
H5 H 0.5069 0.1372 0.0195
N5 N 0.24748(12) -0.5181(3) 0.08032(12)
N6 N 0.26403(13) -0.1884(4) 0.18140(13)
C1A C 0.47049(17) 0.3163(6) 0.39249(17)
C2A C 0.4105(2) 0.6184(6) 0.3519(2)
C3A C 0.70158(12) -0.3668(4) 0.41397(13)
C4A C 0.69481(13) -0.1997(4) 0.36418(14)
C5A C 0.78408(16) -0.3432(5) 0.32405(17)
H1A H 0.8128 -0.3409 0.2926
C6A C 0.79330(15) -0.5090(4) 0.37490(17)
H2A H 0.8282 -0.6137 0.3774
C7A C 0.65290(13) -0.3940(4) 0.46287(13)
C8A C 0.63943(14) -0.0214(4) 0.35380(14)
O1A O 0.66949(11) -0.5477(3) 0.50916(10)
O2A O 0.60098(12) -0.2685(3) 0.45493(13)
O3A O 0.58026(11) -0.0345(3) 0.29231(12)
O4A O 0.65487(11) 0.1246(3) 0.40009(12)
N1A N 0.43856(19) 0.5451(5) 0.3044(2)
H3A H 0.4347 0.6099 0.2624
N2A N 0.47521(13) 0.3573(4) 0.32352(12)
N3A N 0.43161(16) 0.4734(6) 0.40888(18)
N4A N 0.4989(2) 0.1511(7) 0.4367(2)
H4A H 0.5230 0.0578 0.4216
H5A H 0.4931 0.1372 0.4805
N5A N 0.75252(12) -0.5181(3) 0.41968(12)
N6A N 0.73597(13) -0.1884(4) 0.31860(13)
Zn2_2 Zn 0.2500 -0.7500 0.0000
Zn2A Zn 0.7500 -0.7500 0.5000
Zn2A_2 Zn 0.7500 0.2500 0.5000
O1_2 O 0.33051(11) 0.4523(3) -0.00916(10)
O1F O 0.16949(11) 0.0477(3) 0.00916(10)
O4F O 0.15487(11) 0.3754(3) -0.09991(12)
N5_2 N 0.24748(12) 0.4819(3) 0.08032(12)
N5F N 0.25252(12) 0.0181(3) -0.08032(12)
loop_
_geom_bond_atom_site_label_1
_geom_bond_atom_site_label_2
_geom_bond_site_symmetry_1
_geom_bond_site_symmetry_2
Zn1 O3 1_555 1_555
Zn2 O4 1_555 1_555
C1 N2 1_555 1_555
C2 N1 1_555 1_555
C3 C4 1_555 1_555
C4 C8 1_555 1_555
C5 H1 1_555 1_555
C6 C5 1_555 1_555
H2 C6 1_555 1_555
C7 C3 1_555 1_555
C8 O3 1_555 1_555
O1 C7 1_555 1_555
O2 C7 1_555 1_555
O4 C8 1_555 1_555
N1 H3 1_555 1_555
N2 Zn1 1_555 1_555
N3 C1 1_555 1_555
N4 C1 1_555 1_555
H4 N4 1_555 1_555
H5 N4 1_555 1_555
N5 C3 1_555 1_555
N6 C4 1_555 1_555
C1A N2A 1_555 1_555
C2A N1A 1_555 1_555
C3A C4A 1_555 1_555
C4A C8A 1_555 1_555
C5A H1A 1_555 1_555
C6A C5A 1_555 1_555
H2A C6A 1_555 1_555
C7A C3A 1_555 1_555
C8A O3A 1_555 1_555
O1A C7A 1_555 1_555
O2A C7A 1_555 1_555
O3A Zn1 1_555 1_555
O4A C8A 1_555 1_555
N1A H3A 1_555 1_555
N2A Zn1 1_555 1_555
N3A C1A 1_555 1_555
N4A C1A 1_555 1_555
H4A N4A 1_555 1_555
H5A N4A 1_555 1_555
N5A C3A 1_555 1_555
N6A C4A 1_555 1_555
Zn2_2 O1 1_555 1_555
Zn2A O1A 1_555 1_555
Zn2A_2 O4A 1_555 1_555
O1_2 Zn2 1_555 1_555
O1F Zn2 1_555 1_555
O4F Zn2 1_555 1_555
N5_2 Zn2 1_555 1_555
N5F Zn2 1_555 1_555
C2 N3 1_555 1_555
C5 N6 1_555 1_555
C6 N5 1_555 1_555
N1 N2 1_555 1_555
N5 Zn2_2 1_555 1_555
C2A N3A 1_555 1_555
C5A N6A 1_555 1_555
C6A N5A 1_555 1_555
N1A N2A 1_555 1_555
N5A Zn2A 1_555 1_555

#END
