
#######################################################################
#
#                 Cambridge Crystallographic Data Centre
#                                CCDC 
#
#######################################################################
#
# If this CIF has been generated from an entry in the Cambridge 
# Structural Database, then it will include bibliographic, chemical, 
# crystal, experimental, refinement or atomic coordinate data resulting 
# from the CCDC's data processing and validation procedures.
#
#######################################################################

data_POMDIG
_symmetry_cell_setting           triclinic
_symmetry_space_group_name_H-M   'P -1'
_symmetry_Int_Tables_number      2
_space_group_name_Hall           '-P 1'
loop_
_symmetry_equiv_pos_site_id
_symmetry_equiv_pos_as_xyz
1 x,y,z
2 -x,-y,-z
_cell_length_a                   9.1637(10)
_cell_length_b                   9.5953(10)
_cell_length_c                   12.6356(13)
_cell_angle_alpha                107.867(9)
_cell_angle_beta                 108.383(9)
_cell_angle_gamma                92.135(9)
_cell_volume                     992.376
loop_
_atom_site_label
_atom_site_type_symbol
_atom_site_fract_x
_atom_site_fract_y
_atom_site_fract_z
C1 C 0.5395(6) 0.2631(5) 0.8049(4)
C2 C 0.4601(6) 0.3415(5) 0.7373(4)
H1 H 0.3774 0.2933 0.6678
C3 C 0.5035(7) 0.4939(5) 0.7730(4)
C4 C 0.6236(7) 0.5653(5) 0.8774(4)
H2 H 0.6519 0.6670 0.9004
C5 C 0.7032(6) 0.4888(5) 0.9490(4)
C6 C 0.6615(6) 0.3346(5) 0.9101(4)
H3 H 0.7157 0.2800 0.9549
C7 C 0.8342(7) 0.5634(5) 1.0612(4)
C8 C 0.8720(7) 0.5051(5) 1.1526(4)
H4 H 0.8132 0.4186 1.1439
C9 C 0.9955(7) 0.5732(6) 1.2560(4)
H5 H 1.0206 0.5309 1.3153
C10 C 1.0825(6) 0.7047(5) 1.2723(4)
C11 C 1.0445(7) 0.7638(6) 1.1818(4)
H6 H 1.1010 0.8522 1.1916
C12 C 0.9238(7) 0.6933(6) 1.0772(5)
H7 H 0.9021 0.7333 1.0165
C13 C 0.4987(6) 0.0975(5) 0.7659(4)
C14 C 0.4194(8) 0.5770(6) 0.6955(5)
C15 C 1.2146(6) 0.7814(5) 1.3845(4)
O1 O 0.5479(5) 0.0332(4) 0.8373(3)
O2 O 0.4698(4) 0.7135(3) 0.7264(3)
O3 O 1.2286(4) 0.7359(4) 1.4706(3)
O4 O 1.3012(4) 0.8868(4) 1.3859(3)
O5 O 0.3081(8) 0.5134(5) 0.6058(5)
O6 O 1.5854(4) 0.8123(4) 1.5443(3)
H8 H 1.5620 0.7897 1.6017
H9 H 1.6386 0.7539 1.5043
Zn1 Zn 1.5167(12) 0.999(2) 1.5041(15)
C16 C 0.0002(6) 0.7792(6) 0.6499(4)
C17 C -0.0697(6) 0.8620(5) 0.8127(5)
C18 C 0.1855(7) 0.8703(6) 0.8333(5)
N1 N 0.1532(5) 0.8243(5) 0.7143(3)
N2 N 0.0801(5) 0.8951(5) 0.8862(4)
N3 N -0.1154(5) 0.7989(5) 0.6940(4)
N4 N 0.3340(6) 0.8930(6) 0.9041(4)
H10 H 0.3570 0.9222 0.9797
H11 H 0.4065 0.8784 0.8740
N5 N -0.1792(6) 0.8907(5) 0.8605(4)
H12 H -0.2755 0.8692 0.8161
H13 H -0.1540 0.9310 0.9359
N6 N -0.0398(6) 0.7109(6) 0.5337(4)
H14 H -0.1362 0.6818 0.4907
H15 H 0.0308 0.6960 0.5016
Zn2 Zn 0.33190(7) 0.82271(6) 0.64259(5)
O7 O 0.4092(4) 0.0277(3) 0.6582(3)
O3_2 O 0.2286(4) 0.7359(4) 0.4706(3)
O4A O 1.6988(4) 1.1132(4) 1.6141(3)
O6A O 1.4146(4) 1.1877(4) 1.4557(3)
Zn1_2 Zn 0.5167(12) -0.001(2) 0.5041(15)
Zn1A Zn 0.4833(12) 0.001(2) 0.4959(15)
Zn1A_2 Zn 1.4833(12) 1.001(2) 1.4959(15)
Zn2_2 Zn 0.33190(7) -0.17729(6) 0.64259(5)
Zn2_3 Zn 1.33190(7) 0.82271(6) 1.64259(5)
O7_2 O 0.4092(4) 1.0277(3) 0.6582(3)
O7_3 O 1.4092(4) 1.0277(3) 1.6582(3)
O7A O 1.5908(4) 0.9723(3) 1.3418(3)
loop_
_geom_bond_atom_site_label_1
_geom_bond_atom_site_label_2
_geom_bond_site_symmetry_1
_geom_bond_site_symmetry_2
C1 C2 1_555 1_555
C2 H1 1_555 1_555
C3 C2 1_555 1_555
C4 C3 1_555 1_555
H2 C4 1_555 1_555
C5 C4 1_555 1_555
C6 C1 1_555 1_555
H3 C6 1_555 1_555
C7 C5 1_555 1_555
C8 C7 1_555 1_555
H4 C8 1_555 1_555
C9 C8 1_555 1_555
H5 C9 1_555 1_555
C10 C9 1_555 1_555
C11 C10 1_555 1_555
H6 C11 1_555 1_555
C12 C7 1_555 1_555
H7 C12 1_555 1_555
C13 C1 1_555 1_555
C14 C3 1_555 1_555
C15 C10 1_555 1_555
O1 C13 1_555 1_555
O2 C14 1_555 1_555
O3 C15 1_555 1_555
O4 C15 1_555 1_555
O5 C14 1_555 1_555
O6 H8 1_555 1_555
H9 O6 1_555 1_555
Zn1 O4 1_555 1_555
C16 N1 1_555 1_555
C17 N2 1_555 1_555
C18 N1 1_555 1_555
N1 Zn2 1_555 1_555
N2 C18 1_555 1_555
N3 C16 1_555 1_555
N4 C18 1_555 1_555
H10 N4 1_555 1_555
H11 N4 1_555 1_555
N5 C17 1_555 1_555
H12 N5 1_555 1_555
H13 N5 1_555 1_555
N6 C16 1_555 1_555
H14 N6 1_555 1_555
H15 N6 1_555 1_555
Zn2 O2 1_555 1_555
O7 C13 1_555 1_555
O3_2 Zn2 1_555 1_555
O4A Zn1 1_555 1_555
O6A Zn1 1_555 1_555
Zn1_2 O7 1_555 1_555
Zn1A O7 1_555 1_555
Zn1A_2 O4 1_555 1_555
Zn2_2 O7 1_555 1_555
Zn2_3 O3 1_555 1_555
O7_2 Zn2 1_555 1_555
O7_3 Zn1 1_555 1_555
O7A Zn1 1_555 1_555
C5 C6 1_555 1_555
C11 C12 1_555 1_555
O6 Zn1 1_555 1_555
O6 Zn1A_2 1_555 1_555
C17 N3 1_555 1_555
O4A Zn1A_2 1_555 1_555
O6A Zn1A_2 1_555 1_555
Zn1A_2 O7_3 1_555 1_555
Zn1A_2 O7A 1_555 1_555
Zn2_3 O7_3 1_555 1_555

#END
