
#######################################################################
#
#                 Cambridge Crystallographic Data Centre
#                                CCDC 
#
#######################################################################
#
# If this CIF has been generated from an entry in the Cambridge 
# Structural Database, then it will include bibliographic, chemical, 
# crystal, experimental, refinement or atomic coordinate data resulting 
# from the CCDC's data processing and validation procedures.
#
#######################################################################

data_POMDEC
_symmetry_cell_setting           monoclinic
_symmetry_space_group_name_H-M   'C 2'
_symmetry_Int_Tables_number      5
_space_group_name_Hall           'C 2y'
loop_
_symmetry_equiv_pos_site_id
_symmetry_equiv_pos_as_xyz
1 x,y,z
2 -x,y,-z
3 1/2+x,1/2+y,z
4 1/2-x,1/2+y,-z
_cell_length_a                   8.7658(5)
_cell_length_b                   14.9229(6)
_cell_length_c                   9.1751(5)
_cell_angle_alpha                90
_cell_angle_beta                 109.813(6)
_cell_angle_gamma                90
_cell_volume                     1129.16
loop_
_atom_site_label
_atom_site_type_symbol
_atom_site_fract_x
_atom_site_fract_y
_atom_site_fract_z
Cd1 Cd -1.38106(7) 0.36768(3) -0.64669(7)
Cd2 Cd -1.0000 0.50196(6) -0.5000
O1 O -1.2673(8) 0.4875(4) -0.7423(8)
O2 O -1.5000 0.2624(6) -0.5000
O3 O -1.1550(9) 0.6191(5) -0.6519(8)
O4 O -1.4562(12) 0.2964(6) -0.8774(10)
N1 N -1.3610(9) 0.4291(6) -0.2956(9)
N2 N -1.3046(11) 0.4467(5) -0.4097(9)
N3 N -1.1619(10) 0.4860(6) -0.3526(8)
N4 N -1.1302(10) 0.2924(6) -0.5455(10)
N5 N -1.0000 0.3448(8) -0.5000
C1 C -1.2540(14) 0.4546(8) -0.1622(12)
C2 C -1.1283(12) 0.4947(8) -0.2001(11)
C3 C -1.0836(14) 0.2085(6) -0.5275(15)
C4 C -1.2652(12) 0.5711(7) -0.7491(10)
C5 C -1.5000 0.5732(9) -1.0000
C6 C -1.3856(16) 0.6230(8) -0.8781(13)
C7 C -1.387(3) 0.7127(8) -0.883(2)
C8 C -1.545(4) 0.7549(14) -0.966(3)
C9 C -1.5000 0.3423(11) -1.0000
O1A O -1.7327(8) 0.4875(4) -1.2577(8)
O3A O -1.8450(9) 0.6191(5) -1.3481(8)
C4A C -1.7348(12) 0.5711(7) -1.2509(10)
C6A C -1.6144(16) 0.6230(8) -1.1219(13)
C7A C -1.613(3) 0.7127(8) -1.117(2)
C8A C -1.455(4) 0.7549(14) -1.034(3)
O4A O -1.5438(12) 0.2964(6) -1.1226(10)
N4A N -0.8698(10) 0.2924(6) -0.4545(10)
C3A C -0.9164(14) 0.2085(6) -0.4725(15)
Cd1A Cd -1.61894(7) 0.36768(3) -1.35331(7)
N1A N -1.6390(9) 0.4291(6) -1.7044(9)
N2A N -1.6954(11) 0.4467(5) -1.5903(9)
N3A N -1.8381(10) 0.4860(6) -1.6474(8)
C1A C -1.7460(14) 0.4546(8) -1.8378(12)
C2A C -1.8717(12) 0.4947(8) -1.7999(11)
Cd1_2 Cd -1.38106(7) 0.36768(3) -1.64669(7)
Cd1A_2 Cd -1.61894(7) 0.36768(3) -0.35331(7)
Cd1A_3 Cd -0.61894(7) 0.36768(3) -0.35331(7)
Cd2_2 Cd -2.0000 0.50196(6) -1.5000
O1A_2 O -0.7327(8) 0.4875(4) -0.2577(8)
O2_2 O -1.5000 0.2624(6) -1.5000
O3A_2 O -0.8450(9) 0.6191(5) -0.3481(8)
N1_2 N -1.3610(9) 0.4291(6) -1.2956(9)
N1A_2 N -1.6390(9) 0.4291(6) -0.7044(9)
N3A_2 N -0.8381(10) 0.4860(6) -0.6474(8)
N4A_2 N -1.8698(10) 0.2924(6) -1.4545(10)
loop_
_geom_bond_atom_site_label_1
_geom_bond_atom_site_label_2
_geom_bond_site_symmetry_1
_geom_bond_site_symmetry_2
Cd1 O1 1_555 1_555
Cd2 O1 1_555 1_555
O1 C4 1_555 1_555
O2 Cd1 1_555 1_555
O3 Cd2 1_555 1_555
O4 Cd1 1_555 1_555
N1 N2 1_555 1_555
N2 Cd1 1_555 1_555
N3 Cd2 1_555 1_555
N4 Cd1 1_555 1_555
N5 Cd2 1_555 1_555
C1 N1 1_555 1_555
C2 N3 1_555 1_555
C3 N4 1_555 1_555
C4 O3 1_555 1_555
C5 C6 1_555 1_555
C6 C4 1_555 1_555
C7 C6 1_555 1_555
C8 C7 1_555 1_555
C9 O4 1_555 1_555
O1A C4A 1_555 1_555
O3A C4A 1_555 1_555
C4A C6A 1_555 1_555
C6A C5 1_555 1_555
C7A C8 1_555 1_555
C8A C7 1_555 1_555
O4A C9 1_555 1_555
N4A N5 1_555 1_555
C3A C3 1_555 1_555
Cd1A O1A 1_555 1_555
N1A N2A 1_555 1_555
N2A Cd1A 1_555 1_555
N3A N2A 1_555 1_555
C1A N1A 1_555 1_555
C2A N3A 1_555 1_555
Cd1_2 N1A 1_555 1_555
Cd1A_2 O2 1_555 1_555
Cd1A_3 N4A 1_555 1_555
Cd2_2 O1A 1_555 1_555
O1A_2 Cd2 1_555 1_555
O2_2 Cd1A 1_555 1_555
O3A_2 Cd2 1_555 1_555
N1_2 Cd1A 1_555 1_555
N1A_2 Cd1 1_555 1_555
N3A_2 Cd2 1_555 1_555
N4A_2 Cd1A 1_555 1_555
N1 Cd1A_2 1_555 1_555
N2 N3 1_555 1_555
N4 N5 1_555 1_555
C1 C2 1_555 1_555
C8 C8A 1_555 1_555
O3A Cd2_2 1_555 1_555
C6A C7A 1_555 1_555
C7A C8A 1_555 1_555
O4A Cd1A 1_555 1_555
N4A C3A 1_555 1_555
N3A Cd2_2 1_555 1_555
C1A C2A 1_555 1_555
Cd1_2 O2_2 1_555 1_555
Cd1A_3 O1A_2 1_555 1_555

#END
