
#######################################################################
#
#                 Cambridge Crystallographic Data Centre
#                                CCDC 
#
#######################################################################
#
# If this CIF has been generated from an entry in the Cambridge 
# Structural Database, then it will include bibliographic, chemical, 
# crystal, experimental, refinement or atomic coordinate data resulting 
# from the CCDC's data processing and validation procedures.
#
#######################################################################

data_POMDIF
_symmetry_cell_setting           monoclinic
_symmetry_space_group_name_H-M   'P 21/c'
_symmetry_Int_Tables_number      14
_space_group_name_Hall           '-P 2ybc'
loop_
_symmetry_equiv_pos_site_id
_symmetry_equiv_pos_as_xyz
1 x,y,z
2 -x,1/2+y,1/2-z
3 -x,-y,-z
4 x,1/2-y,1/2+z
_cell_length_a                   7.08240(10)
_cell_length_b                   16.7725(3)
_cell_length_c                   6.90660(10)
_cell_angle_alpha                90
_cell_angle_beta                 101.5850(10)
_cell_angle_gamma                90
_cell_volume                     803.718
loop_
_atom_site_label
_atom_site_type_symbol
_atom_site_fract_x
_atom_site_fract_y
_atom_site_fract_z
Sm1 Sm -0.26067(2) 0.420040(10) 0.48851(2)
O1 O 0.0020(3) 0.34943(13) 0.6725(3)
O2 O -0.1467(3) 0.32226(14) 0.2658(4)
O3 O 0.2263(3) 0.18597(13) 0.6602(3)
O4 O -0.4770(3) 0.41711(14) 0.1649(3)
O5 O 0.5958(3) 0.29019(13) 0.5489(3)
O6 O 0.3785(3) 0.44362(12) 0.5380(3)
O7 O -0.0375(3) 0.48117(13) 0.3160(3)
O8 O -0.2690(3) 0.43098(13) -0.1490(3)
C1 C 0.1656(3) 0.33329(16) 0.6427(4)
C2 C 0.2704(4) 0.25667(17) 0.6407(4)
C3 C 0.4325(4) 0.30194(16) 0.5902(4)
C4 C 0.3272(4) 0.37486(16) 0.5872(4)
C5 C -0.0241(4) 0.48952(17) 0.1381(4)
C6 C -0.1238(4) 0.46752(17) -0.0612(4)
H1 H -0.587(5) 0.385(3) 0.161(7)
H2 H -0.025(3) 0.315(3) 0.241(7)
H3 H -0.422(7) 0.411(3) 0.053(5)
H4 H -0.233(5) 0.285(2) 0.196(7)
Sm1_2 Sm -1.26067(2) 0.420040(10) 0.48851(2)
Sm1_3 Sm 0.73933(2) 0.420040(10) 0.48851(2)
Sm1B Sm 0.26067(2) 0.579960(10) 0.51149(2)
Sm1_4 Sm -0.26067(2) 0.420040(10) -0.51149(2)
Sm1B_2 Sm 0.26067(2) 0.579960(10) -0.48851(2)
Sm1B_3 Sm -0.73933(2) 0.579960(10) 0.51149(2)
O1_2 O -0.9980(3) 0.34943(13) 0.6725(3)
O2_2 O -1.1467(3) 0.32226(14) 0.2658(4)
O3_2 O -0.7737(3) 0.18597(13) 0.6602(3)
O4_2 O -1.4770(3) 0.41711(14) 0.1649(3)
O5_2 O -0.4042(3) 0.29019(13) 0.5489(3)
O5_3 O -1.4042(3) 0.29019(13) 0.5489(3)
O6_2 O -0.6215(3) 0.44362(12) 0.5380(3)
O6B O -0.3785(3) 0.55638(12) 0.4620(3)
O6_3 O -1.6215(3) 0.44362(12) 0.5380(3)
O6B_2 O -1.3785(3) 0.55638(12) 0.4620(3)
O7B O 0.0375(3) 0.51883(13) -0.3160(3)
O7B_2 O 0.0375(3) 0.51883(13) 0.6840(3)
O7_2 O -1.0375(3) 0.48117(13) 0.3160(3)
O7B_3 O -0.9625(3) 0.51883(13) 0.6840(3)
O8B O 0.2690(3) 0.56902(13) 0.1490(3)
O8_2 O -0.2690(3) 0.43098(13) 0.8510(3)
O8_3 O -1.2690(3) 0.43098(13) 0.8510(3)
C1_2 C -0.8344(3) 0.33329(16) 0.6427(4)
C2_2 C -0.7296(4) 0.25667(17) 0.6407(4)
C3_2 C -0.5675(4) 0.30194(16) 0.5902(4)
C4_2 C -0.6728(4) 0.37486(16) 0.5872(4)
C5B C 0.0241(4) 0.51048(17) -0.1381(4)
C6B C 0.1238(4) 0.53248(17) 0.0612(4)
H1_2 H -1.587(5) 0.385(3) 0.161(7)
H2_2 H -1.025(3) 0.315(3) 0.241(7)
H3_2 H -1.422(7) 0.411(3) 0.053(5)
H4_2 H -1.233(5) 0.285(2) 0.196(7)
loop_
_geom_bond_atom_site_label_1
_geom_bond_atom_site_label_2
_geom_bond_site_symmetry_1
_geom_bond_site_symmetry_2
Sm1 O1 1_555 1_555
O1 C1 1_555 1_555
O2 Sm1 1_555 1_555
O3 C2 1_555 1_555
O4 Sm1 1_555 1_555
O5 C3 1_555 1_555
O6 C4 1_555 1_555
O7 Sm1 1_555 1_555
O8 C6 1_555 1_555
C1 C2 1_555 1_555
C2 C3 1_555 1_555
C3 C4 1_555 1_555
C4 C1 1_555 1_555
C5 O7 1_555 1_555
C6 C5 1_555 1_555
H1 O4 1_555 1_555
H2 O2 1_555 1_555
H3 O4 1_555 1_555
H4 O2 1_555 1_555
Sm1_2 O1_2 1_555 1_555
Sm1_3 O5 1_555 1_555
Sm1B O6 1_555 1_555
Sm1_4 O8 1_555 1_555
Sm1B_2 O7B 1_555 1_555
Sm1B_3 O6_2 1_555 1_555
O1_2 C1_2 1_555 1_555
O2_2 Sm1_2 1_555 1_555
O3_2 C2_2 1_555 1_555
O4_2 Sm1_2 1_555 1_555
O5_2 Sm1 1_555 1_555
O5_3 Sm1_2 1_555 1_555
O6_2 Sm1 1_555 1_555
O6B Sm1 1_555 1_555
O6_3 Sm1_2 1_555 1_555
O6B_2 Sm1_2 1_555 1_555
O7B Sm1_4 1_555 1_555
O7B_2 Sm1 1_555 1_555
O7_2 Sm1_2 1_555 1_555
O7B_3 Sm1_2 1_555 1_555
O8B Sm1B 1_555 1_555
O8_2 Sm1 1_555 1_555
O8_3 Sm1_2 1_555 1_555
C1_2 C2_2 1_555 1_555
C2_2 C3_2 1_555 1_555
C3_2 O5_2 1_555 1_555
C4_2 O6_2 1_555 1_555
C5B C6 1_555 1_555
C6B C5 1_555 1_555
H1_2 O4_2 1_555 1_555
H2_2 O2_2 1_555 1_555
H3_2 O4_2 1_555 1_555
H4_2 O2_2 1_555 1_555
O6 Sm1_3 1_555 1_555
O7 Sm1B 1_555 1_555
Sm1B O7B_2 1_555 1_555
Sm1B_3 O6B 1_555 1_555
Sm1B_3 O7_2 1_555 1_555
Sm1B_3 O7B_3 1_555 1_555
O7B C5B 1_555 1_555
O8B C6B 1_555 1_555
C1_2 C4_2 1_555 1_555
C3_2 C4_2 1_555 1_555
C5B C6B 1_555 1_555

#END
