
#######################################################################
#
#                 Cambridge Crystallographic Data Centre
#                                CCDC 
#
#######################################################################
#
# If this CIF has been generated from an entry in the Cambridge 
# Structural Database, then it will include bibliographic, chemical, 
# crystal, experimental, refinement or atomic coordinate data resulting 
# from the CCDC's data processing and validation procedures.
#
#######################################################################

data_POMHUV
_symmetry_cell_setting           monoclinic
_symmetry_space_group_name_H-M   'P 21'
_symmetry_Int_Tables_number      4
_space_group_name_Hall           'P 2yb'
loop_
_symmetry_equiv_pos_site_id
_symmetry_equiv_pos_as_xyz
1 x,y,z
2 -x,1/2+y,-z
_cell_length_a                   6.5900(4)
_cell_length_b                   15.1650(8)
_cell_length_c                   10.7490(6)
_cell_angle_alpha                90
_cell_angle_beta                 95.244(9)
_cell_angle_gamma                90
_cell_volume                     1069.73
loop_
_atom_site_label
_atom_site_type_symbol
_atom_site_fract_x
_atom_site_fract_y
_atom_site_fract_z
C1 C 0.8692(4) 0.81993(17) 0.5050(2)
H1 H 0.9536 0.8445 0.5700
C2 C 0.9222(4) 0.82867(19) 0.3826(2)
H2 H 1.0408 0.8583 0.3669
C3 C 0.7992(4) 0.79351(17) 0.2862(2)
H3 H 0.8341 0.7990 0.2047
C4 C 0.6199(3) 0.74901(17) 0.31010(18)
C5 C 0.4749(4) 0.71054(18) 0.2161(2)
H4 H 0.4972 0.7156 0.1322
C6 C 0.3084(4) 0.66765(18) 0.2479(2)
H5 H 0.2186 0.6434 0.1853
C7 C 0.2660(4) 0.65841(16) 0.3763(2)
C8 C 0.1009(4) 0.61105(18) 0.4178(2)
H6 H 0.0083 0.5828 0.3606
C9 C 0.0779(4) 0.60707(19) 0.5428(2)
H7 H -0.0301 0.5758 0.5711
C10 C 0.2174(4) 0.65023(17) 0.6279(2)
H8 H 0.1995 0.6473 0.7127
C11 C 0.4003(3) 0.69806(15) 0.46831(19)
C12 C 0.5789(3) 0.74318(14) 0.43543(18)
C13 C 1.0048(3) 0.90548(13) 0.94151(18)
H9 H 0.9289 0.8814 1.0080
C14 C 1.0387(3) 1.00356(15) 0.97408(18)
H10 H 0.9159 1.0382 0.9497
C15 C 1.0971(3) 1.00950(14) 1.11723(18)
H11 H 0.9782 0.9919 1.1598
C16 C 1.2682(3) 0.94109(14) 1.14952(18)
H12 H 1.1993 0.8873 1.1736
C17 C 1.3679(3) 0.91758(15) 1.02845(19)
H13 H 1.4990 0.8879 1.0479
C18 C 1.2122(3) 0.85576(14) 0.95247(18)
H14 H 1.1978 0.8014 1.0002
C19 C 1.3913(3) 0.99816(16) 0.94838(19)
H15 H 1.5166 1.0168 0.9246
C20 C 1.2195(4) 1.03987(15) 0.91496(19)
H16 H 1.2108 1.0873 0.8600
C21 C 0.8703(3) 0.88961(15) 0.82048(19)
C22 C 1.2984(3) 0.83259(15) 0.82983(19)
C23 C 1.4200(4) 0.96369(15) 1.2593(2)
C24 C 1.1515(3) 1.10347(15) 1.1550(2)
N1 N 0.7020(3) 0.77771(12) 0.53121(15)
N2 N 0.3738(3) 0.69509(13) 0.59172(16)
O1 O 0.7941(3) 0.95074(11) 0.75885(15)
O2 O 0.8349(2) 0.80701(10) 0.79532(13)
O4 O 1.4401(2) 0.77476(12) 0.84210(14)
O5 O 1.2381(2) 0.86940(12) 0.73066(14)
O6 O 1.3290(3) 0.95633(14) 1.36461(15)
H17 H 1.4105 0.9685 1.4244
O7 O 1.5975(3) 0.97879(13) 1.25429(17)
O8 O 1.2819(3) 1.12253(12) 1.23587(16)
O9 O 1.0345(3) 1.16299(13) 1.09436(17)
H18 H 1.0703 1.2125 1.1181
Cu1 Cu 0.59195(3) 0.760541(17) 0.697564(19)
O4_2 O 0.4401(2) 0.77476(12) 0.84210(14)
O8A O 0.7181(3) 0.62253(12) 0.76413(16)
Cu1_2 Cu 1.59195(3) 0.760541(17) 0.697564(19)
Cu1A Cu 1.40805(3) 1.260541(17) 1.302436(19)
O3 O 1.4570(4) 0.98510(18) 1.59374(17)
H19 H 1.378(5) 0.952(2) 1.625(3)
H20 H 1.575(4) 0.969(3) 1.613(4)
loop_
_geom_bond_atom_site_label_1
_geom_bond_atom_site_label_2
_geom_bond_site_symmetry_1
_geom_bond_site_symmetry_2
C1 H1 1_555 1_555
C2 C1 1_555 1_555
H2 C2 1_555 1_555
C3 C2 1_555 1_555
H3 C3 1_555 1_555
C4 C3 1_555 1_555
C5 C4 1_555 1_555
H4 C5 1_555 1_555
C6 C5 1_555 1_555
H5 C6 1_555 1_555
C7 C6 1_555 1_555
C8 C7 1_555 1_555
H6 C8 1_555 1_555
C9 C8 1_555 1_555
H7 C9 1_555 1_555
C10 C9 1_555 1_555
H8 C10 1_555 1_555
C11 C7 1_555 1_555
C12 C4 1_555 1_555
C13 H9 1_555 1_555
C14 C13 1_555 1_555
H10 C14 1_555 1_555
C15 C14 1_555 1_555
H11 C15 1_555 1_555
C16 C15 1_555 1_555
H12 C16 1_555 1_555
C17 C16 1_555 1_555
H13 C17 1_555 1_555
C18 C13 1_555 1_555
H14 C18 1_555 1_555
C19 C17 1_555 1_555
H15 C19 1_555 1_555
C20 C14 1_555 1_555
H16 C20 1_555 1_555
C21 C13 1_555 1_555
C22 C18 1_555 1_555
C23 C16 1_555 1_555
C24 C15 1_555 1_555
N1 C1 1_555 1_555
N2 C10 1_555 1_555
O1 C21 1_555 1_555
O2 C21 1_555 1_555
O3 H19 1_555 1_555
O4 C22 1_555 1_555
O5 C22 1_555 1_555
O6 C23 1_555 1_555
H17 O6 1_555 1_555
O7 C23 1_555 1_555
O8 C24 1_555 1_555
O9 C24 1_555 1_555
H18 O9 1_555 1_555
Cu1 N1 1_555 1_555
H20 O3 1_555 1_555
O4_2 Cu1 1_555 1_555
O8A Cu1 1_555 1_555
Cu1_2 O4 1_555 1_555
Cu1A O8 1_555 1_555
C11 C12 1_555 1_555
C11 N2 1_555 1_555
C12 N1 1_555 1_555
C17 C18 1_555 1_555
C19 C20 1_555 1_555
N2 Cu1 1_555 1_555
O2 Cu1 1_555 1_555

#END
