
#######################################################################
#
#                 Cambridge Crystallographic Data Centre
#                                CCDC 
#
#######################################################################
#
# If this CIF has been generated from an entry in the Cambridge 
# Structural Database, then it will include bibliographic, chemical, 
# crystal, experimental, refinement or atomic coordinate data resulting 
# from the CCDC's data processing and validation procedures.
#
#######################################################################

data_POMKIM
_symmetry_cell_setting           triclinic
_symmetry_space_group_name_H-M   'P -1'
_symmetry_Int_Tables_number      2
_space_group_name_Hall           '-P 1'
loop_
_symmetry_equiv_pos_site_id
_symmetry_equiv_pos_as_xyz
1 x,y,z
2 -x,-y,-z
_cell_length_a                   9.5925(15)
_cell_length_b                   10.8971(16)
_cell_length_c                   11.1998(17)
_cell_angle_alpha                96.221(3)
_cell_angle_beta                 111.320(2)
_cell_angle_gamma                111.736(2)
_cell_volume                     972.293
loop_
_atom_site_label
_atom_site_type_symbol
_atom_site_fract_x
_atom_site_fract_y
_atom_site_fract_z
Fe1 Fe 0.61551(4) 0.98060(3) 0.64542(3)
C1 C 0.5928(3) 0.5788(2) 0.6758(2)
C2 C 0.4357(3) 0.5188(2) 0.6717(2)
H1 H 0.3838 0.5734 0.6826
C3 C 0.3546(3) 0.3777(2) 0.6513(2)
C4 C 0.4304(3) 0.2952(2) 0.6315(2)
H2 H 0.3761 0.2006 0.6171
C5 C 0.5868(3) 0.3541(2) 0.6331(2)
C6 C 0.6671(3) 0.4959(2) 0.6559(2)
H3 H 0.7723 0.5357 0.6579
C7 C 0.6765(3) 0.7300(2) 0.6897(2)
C8 C 0.1841(3) 0.3114(3) 0.6435(3)
C9 C 0.6707(3) 0.2687(2) 0.6073(2)
C10 C 0.2781(3) 0.8910(3) 0.6674(3)
H4 H 0.2341 0.8235 0.5880
C11 C 0.1720(4) 0.8963(4) 0.7242(4)
H5 H 0.0602 0.8326 0.6841
C12 C 0.2347(5) 0.9959(4) 0.8387(4)
H6 H 0.1653 1.0011 0.8773
C13 C 0.4026(4) 1.0903(3) 0.8989(3)
C14 C 0.4804(6) 1.1991(5) 1.0193(4)
H7 H 0.4165 1.2100 1.0615
C15 C 0.6433(6) 1.2854(4) 1.0726(4)
H8 H 0.6891 1.3571 1.1492
C16 C 0.7479(5) 1.2701(3) 1.0150(3)
C17 C 0.9206(5) 1.3534(4) 1.0703(3)
H9 H 0.9726 1.4269 1.1465
C18 C 1.0113(4) 1.3257(4) 1.0116(3)
H10 H 1.1262 1.3788 1.0487
C19 C 0.9317(4) 1.2178(3) 0.8961(3)
H11 H 0.9955 1.2009 0.8568
C20 C 0.6769(4) 1.1637(3) 0.8977(3)
C21 C 0.5017(4) 1.0749(3) 0.8375(3)
N1 N 0.4379(3) 0.9776(2) 0.7216(2)
N2 N 0.7682(3) 1.1375(2) 0.8391(2)
O1 O 0.8176(2) 0.77854(18) 0.6934(2)
O2 O 0.5949(2) 0.79709(16) 0.69408(18)
O3 O 0.1212(3) 0.3980(2) 0.6550(3)
O4 O 0.1099(2) 0.1906(2) 0.6267(3)
O5 O 0.57939(19) 0.13785(15) 0.55487(16)
O6 O 0.8211(2) 0.32631(18) 0.6395(2)
O7 O 0.8228(2) 0.9974(2) 0.6184(2)
H12 H 0.847(4) 0.935(4) 0.648(4)
H13 H 0.902(4) 1.053(4) 0.613(3)
H14 H 0.029(5) 0.358(4) 0.647(4)
Fe1_2 Fe 0.61551(4) -0.01940(3) 0.64542(3)
Fe1A Fe 0.38449(4) 0.01940(3) 0.35458(3)
O5_2 O 0.57939(19) 1.13785(15) 0.55487(16)
O5A O 0.42061(19) 0.86215(15) 0.44513(16)
loop_
_geom_bond_atom_site_label_1
_geom_bond_atom_site_label_2
_geom_bond_site_symmetry_1
_geom_bond_site_symmetry_2
Fe1 N1 1_555 1_555
C1 C2 1_555 1_555
C2 H1 1_555 1_555
C3 C2 1_555 1_555
C4 C3 1_555 1_555
H2 C4 1_555 1_555
C5 C4 1_555 1_555
C6 C1 1_555 1_555
H3 C6 1_555 1_555
C7 C1 1_555 1_555
C8 C3 1_555 1_555
C9 C5 1_555 1_555
C10 H4 1_555 1_555
C11 C10 1_555 1_555
H5 C11 1_555 1_555
C12 C11 1_555 1_555
H6 C12 1_555 1_555
C13 C12 1_555 1_555
C14 C13 1_555 1_555
H7 C14 1_555 1_555
C15 C14 1_555 1_555
H8 C15 1_555 1_555
C16 C15 1_555 1_555
C17 C16 1_555 1_555
H9 C17 1_555 1_555
C18 C17 1_555 1_555
H10 C18 1_555 1_555
C19 C18 1_555 1_555
H11 C19 1_555 1_555
C20 C16 1_555 1_555
C21 C13 1_555 1_555
N1 C10 1_555 1_555
N2 Fe1 1_555 1_555
O1 C7 1_555 1_555
O2 Fe1 1_555 1_555
O3 C8 1_555 1_555
O4 C8 1_555 1_555
O5 C9 1_555 1_555
O6 C9 1_555 1_555
O7 Fe1 1_555 1_555
H12 O7 1_555 1_555
H13 O7 1_555 1_555
H14 O3 1_555 1_555
Fe1_2 O5 1_555 1_555
Fe1A O5 1_555 1_555
O5_2 Fe1 1_555 1_555
O5A Fe1 1_555 1_555
C5 C6 1_555 1_555
C7 O2 1_555 1_555
C19 N2 1_555 1_555
C20 C21 1_555 1_555
C20 N2 1_555 1_555
C21 N1 1_555 1_555

#END
