
#######################################################################
#
#                 Cambridge Crystallographic Data Centre
#                                CCDC 
#
#######################################################################
#
# If this CIF has been generated from an entry in the Cambridge 
# Structural Database, then it will include bibliographic, chemical, 
# crystal, experimental, refinement or atomic coordinate data resulting 
# from the CCDC's data processing and validation procedures.
#
#######################################################################

data_POMLUZ
_symmetry_cell_setting           tetragonal
_symmetry_space_group_name_H-M   'P 43 21 2'
_symmetry_Int_Tables_number      96
_space_group_name_Hall           'P 4nw 2abw'
loop_
_symmetry_equiv_pos_site_id
_symmetry_equiv_pos_as_xyz
1 x,y,z
2 -x,-y,1/2+z
3 1/2-y,1/2+x,3/4+z
4 1/2+y,1/2-x,1/4+z
5 1/2-x,1/2+y,3/4-z
6 1/2+x,1/2-y,1/4-z
7 y,x,-z
8 -y,-x,1/2-z
_cell_length_a                   9.8857(9)
_cell_length_b                   9.8857(9)
_cell_length_c                   24.896(2)
_cell_angle_alpha                90
_cell_angle_beta                 90
_cell_angle_gamma                90
_cell_volume                     2433.01
loop_
_atom_site_label
_atom_site_type_symbol
_atom_site_fract_x
_atom_site_fract_y
_atom_site_fract_z
Sn1 Sn 0.79786(5) 0.82634(5) 0.11522(2)
F1 F 1.1717(7) 1.1333(7) 0.1597(3)
F2 F 1.4123(8) 1.0943(8) -0.0335(3)
O1 O 0.9583(5) 0.9696(5) 0.0890(2)
O2 O 1.1085(6) 0.8095(6) 0.1065(3)
C1 C 1.0763(7) 0.9249(7) 0.0922(3)
C2 C 1.1900(8) 1.0242(7) 0.0773(3)
C3 C 1.2313(10) 1.1239(11) 0.1101(4)
C4 C 1.3367(11) 1.2144(9) 0.0992(5)
H1 H 1.3649 1.2787 0.1240
C5 C 1.3953(9) 1.2021(11) 0.0498(5)
H2 H 1.4635 1.2615 0.0395
C6 C 1.3539(10) 1.1028(11) 0.0153(4)
C7 C 1.2516(10) 1.0141(11) 0.0269(4)
H3 H 1.2240 0.9495 0.0020
C8 C 0.6502(9) 0.9694(8) 0.0912(3)
H4 H 0.6849 1.0227 0.0621
H5 H 0.6287 1.0274 0.1210
H6 H 0.5700 0.9229 0.0797
C9 C 0.8458(10) 0.6721(11) 0.0603(4)
H7 H 0.7645 0.6261 0.0497
H8 H 0.9065 0.6088 0.0769
H9 H 0.8882 0.7108 0.0292
C10 C 0.8626(9) 0.8328(10) 0.1959(3)
H10 H 0.9112 0.7514 0.2043
H11 H 0.7854 0.8405 0.2191
H12 H 0.9207 0.9095 0.2011
Sn1E Sn 1.29786(5) 0.67366(5) 0.13478(2)
O2E O 0.6085(6) 0.6905(6) 0.1435(3)
loop_
_geom_bond_atom_site_label_1
_geom_bond_atom_site_label_2
_geom_bond_site_symmetry_1
_geom_bond_site_symmetry_2
Sn1 O1 1_555 1_555
F1 C3 1_555 1_555
F2 C6 1_555 1_555
O1 C1 1_555 1_555
O2 C1 1_555 1_555
C1 C2 1_555 1_555
C2 C3 1_555 1_555
C3 C4 1_555 1_555
C4 H1 1_555 1_555
C5 C4 1_555 1_555
H2 C5 1_555 1_555
C6 C5 1_555 1_555
C7 C2 1_555 1_555
H3 C7 1_555 1_555
C8 Sn1 1_555 1_555
H4 C8 1_555 1_555
H5 C8 1_555 1_555
H6 C8 1_555 1_555
C9 Sn1 1_555 1_555
H7 C9 1_555 1_555
H8 C9 1_555 1_555
H9 C9 1_555 1_555
C10 Sn1 1_555 1_555
H10 C10 1_555 1_555
H11 C10 1_555 1_555
H12 C10 1_555 1_555
Sn1E O2 1_555 1_555
O2E Sn1 1_555 1_555
C6 C7 1_555 1_555

#END
