
#######################################################################
#
#                 Cambridge Crystallographic Data Centre
#                                CCDC 
#
#######################################################################
#
# If this CIF has been generated from an entry in the Cambridge 
# Structural Database, then it will include bibliographic, chemical, 
# crystal, experimental, refinement or atomic coordinate data resulting 
# from the CCDC's data processing and validation procedures.
#
#######################################################################

data_POMLAG
_symmetry_cell_setting           monoclinic
_symmetry_space_group_name_H-M   'P 21/n'
_symmetry_Int_Tables_number      14
_space_group_name_Hall           '-P 2yn'
loop_
_symmetry_equiv_pos_site_id
_symmetry_equiv_pos_as_xyz
1 x,y,z
2 1/2-x,1/2+y,1/2-z
3 -x,-y,-z
4 1/2+x,1/2-y,1/2+z
_cell_length_a                   9.3770(10)
_cell_length_b                   21.7830(10)
_cell_length_c                   21.5890(10)
_cell_angle_alpha                90
_cell_angle_beta                 91.9280(10)
_cell_angle_gamma                90
_cell_volume                     4407.26
loop_
_atom_site_label
_atom_site_type_symbol
_atom_site_fract_x
_atom_site_fract_y
_atom_site_fract_z
Cu1 Cu 0.78153(3) 0.039540(15) 0.696082(16)
Cu2 Cu 1.28389(3) -0.076902(15) 0.709106(16)
O1 O 0.9040(2) 0.22343(9) 0.70287(11)
O2 O 0.6563(2) 0.20728(9) 0.63921(10)
O3 O 0.8770(2) 0.12979(9) 0.74446(10)
O4 O 0.6858(2) 0.10608(9) 0.64782(9)
O5 O 1.6120(2) 0.02921(9) 0.74835(9)
O6 O 0.9495(2) 0.03667(9) 0.64372(10)
O7 O 0.8974(2) -0.01552(9) 0.75176(9)
O8 O 1.1602(2) -0.01132(9) 0.64174(10)
O9 O 1.1120(2) -0.05793(9) 0.75707(9)
O10 O 1.4045(2) -0.01789(9) 0.75561(9)
O11 O 1.4469(2) -0.08175(9) 0.65291(9)
O12 O 1.1817(2) -0.14321(9) 0.66430(9)
O13 O 1.3699(2) -0.16474(9) 0.76140(10)
O14 O 1.1550(2) -0.24390(9) 0.65484(10)
O15 O 1.3949(2) -0.26033(9) 0.72411(11)
O16 O 1.6583(2) -0.03617(9) 0.64269(10)
C1 C 0.8428(3) 0.17087(12) 0.70764(13)
C2 C 0.7160(3) 0.16145(12) 0.66075(13)
C3 C 1.0163(3) -0.02649(12) 0.73003(13)
C4 C 1.0469(3) 0.00169(12) 0.66586(13)
C5 C 1.3369(3) -0.20761(12) 0.72650(13)
C6 C 1.2140(3) -0.19840(12) 0.67793(13)
C7 C 1.5460(3) -0.04467(12) 0.66906(13)
C8 C 1.5190(3) -0.00776(12) 0.72887(12)
Cu1_2 Cu 1.78153(3) 0.039540(15) 0.696082(16)
O5_2 O 0.6120(2) 0.02921(9) 0.74835(9)
O16_2 O 0.6583(2) -0.03617(9) 0.64269(10)
N1 N 0.7799(3) 0.11316(12) 0.46699(12)
H1 H 0.7669 0.1057 0.4248
C9 C 0.6407(3) 0.13831(14) 0.48868(14)
H2 H 0.6457 0.1412 0.5345
H3 H 0.5636 0.1090 0.4771
C10 C 0.6020(4) 0.20058(16) 0.46245(16)
H4 H 0.6082 0.1997 0.4168
H5 H 0.6703 0.2317 0.4789
C11 C 0.4519(4) 0.21806(17) 0.47968(18)
H6 H 0.3835 0.1893 0.4603
H7 H 0.4307 0.2598 0.4651
H8 H 0.4443 0.2164 0.5248
C12 C 0.8167(3) 0.05228(13) 0.49648(14)
H9 H 0.8385 0.0588 0.5412
H10 H 0.9040 0.0361 0.4777
C13 C 0.6998(3) 0.00482(14) 0.48940(15)
H11 H 0.6557 0.0070 0.4471
H12 H 0.6248 0.0130 0.5196
C14 C 0.7627(3) -0.05860(14) 0.50064(14)
H13 H 0.8390 -0.0659 0.4716
H14 H 0.6880 -0.0896 0.4943
H15 H 0.8017 -0.0612 0.5432
C15 C 0.9037(3) 0.15739(15) 0.47384(15)
H16 H 0.9904 0.1372 0.4586
H17 H 0.8837 0.1936 0.4472
C16 C 0.9338(3) 0.17902(15) 0.53914(15)
H18 H 0.9608 0.1437 0.5659
H19 H 0.8474 0.1983 0.5557
C17 C 1.0568(4) 0.22600(16) 0.53888(19)
H20 H 1.0299 0.2605 0.5117
H21 H 1.1427 0.2063 0.5236
H22 H 1.0759 0.2411 0.5811
N2 N 0.7190(3) 0.32978(11) 0.67044(12)
H23 H 0.7129 0.2873 0.6664
C18 C 0.5767(3) 0.35501(15) 0.64975(18)
H24 H 0.5032 0.3380 0.6768
H25 H 0.5781 0.4001 0.6557
C19 C 0.5346(5) 0.3421(2) 0.5858(2)
H26 H 0.5532 0.2985 0.5761
H27 H 0.5901 0.3679 0.5576
C20 C 0.3708(6) 0.3565(2) 0.5770(3)
H28 H 0.3373 0.3430 0.5357
H29 H 0.3551 0.4007 0.5812
H30 H 0.3179 0.3346 0.6085
C21 C 0.8391(3) 0.35017(14) 0.63095(14)
H31 H 0.8252 0.3319 0.5892
H32 H 0.9298 0.3338 0.6491
C22 C 0.8529(4) 0.41932(15) 0.62421(17)
H33 H 0.8502 0.4390 0.6655
H34 H 0.7720 0.4353 0.5984
C23 C 0.9936(5) 0.4348(2) 0.59398(19)
H35 H 0.9978 0.4137 0.5540
H36 H 1.0736 0.4214 0.6211
H37 H 0.9996 0.4792 0.5875
C24 C 0.7517(3) 0.34244(14) 0.73755(14)
H38 H 0.7410 0.3870 0.7454
H39 H 0.8521 0.3312 0.7476
C25 C 0.6549(4) 0.30724(16) 0.77974(16)
H40 H 0.6429 0.2647 0.7643
H41 H 0.5598 0.3269 0.7794
C26 C 0.7176(4) 0.30597(19) 0.84550(17)
H42 H 0.8090 0.2842 0.8462
H43 H 0.6516 0.2848 0.8725
H44 H 0.7325 0.3481 0.8603
N3 N 0.2784(3) 0.13560(10) 0.82380(11)
H45 H 0.2837 0.1782 0.8237
C27 C 0.1556(3) 0.11937(14) 0.86344(15)
H46 H 0.0662 0.1337 0.8424
H47 H 0.1664 0.1419 0.9032
C28 C 0.1414(4) 0.05148(15) 0.87733(16)
H48 H 0.2214 0.0380 0.9052
H49 H 0.1450 0.0276 0.8384
C29 C -0.0012(5) 0.0399(2) 0.9084(2)
H50 H -0.0802 0.0488 0.8788
H51 H -0.0082 0.0667 0.9446
H52 H -0.0062 -0.0031 0.9215
C30 C 0.2514(3) 0.11659(12) 0.75746(13)
H53 H 0.1517 0.1268 0.7448
H54 H 0.2628 0.0715 0.7541
C31 C 0.3515(3) 0.14769(14) 0.71371(14)
H55 H 0.3503 0.1926 0.7209
H56 H 0.4500 0.1328 0.7221
C32 C 0.3076(4) 0.13446(18) 0.64705(15)
H57 H 0.3746 0.1544 0.6196
H58 H 0.2113 0.1504 0.6384
H59 H 0.3086 0.0900 0.6400
C33 C 0.4210(3) 0.11323(14) 0.84725(15)
H60 H 0.4950 0.1286 0.8195
H61 H 0.4221 0.0678 0.8453
C34 C 0.4591(4) 0.13302(16) 0.91293(15)
H62 H 0.4016 0.1096 0.9424
H63 H 0.4377 0.1772 0.9180
C35 C 0.6170(4) 0.1215(2) 0.9265(2)
H64 H 0.6734 0.1447 0.8971
H65 H 0.6373 0.0776 0.9223
H66 H 0.6421 0.1348 0.9688
loop_
_geom_bond_atom_site_label_1
_geom_bond_atom_site_label_2
_geom_bond_site_symmetry_1
_geom_bond_site_symmetry_2
Cu1 O3 1_555 1_555
Cu2 O8 1_555 1_555
O1 C1 1_555 1_555
O2 C2 1_555 1_555
O3 C1 1_555 1_555
O4 Cu1 1_555 1_555
O5 C8 1_555 1_555
O6 Cu1 1_555 1_555
O7 Cu1 1_555 1_555
O8 C4 1_555 1_555
O9 Cu2 1_555 1_555
O10 Cu2 1_555 1_555
O11 Cu2 1_555 1_555
O12 Cu2 1_555 1_555
O13 Cu2 1_555 1_555
O14 C6 1_555 1_555
O15 C5 1_555 1_555
O16 C7 1_555 1_555
C1 C2 1_555 1_555
C2 O4 1_555 1_555
C3 O7 1_555 1_555
C4 O6 1_555 1_555
C5 O13 1_555 1_555
C6 O12 1_555 1_555
C7 O11 1_555 1_555
C8 O10 1_555 1_555
N1 H1 1_555 1_555
C9 N1 1_555 1_555
H2 C9 1_555 1_555
H3 C9 1_555 1_555
C10 C9 1_555 1_555
H4 C10 1_555 1_555
H5 C10 1_555 1_555
C11 C10 1_555 1_555
H6 C11 1_555 1_555
H7 C11 1_555 1_555
H8 C11 1_555 1_555
C12 N1 1_555 1_555
H9 C12 1_555 1_555
H10 C12 1_555 1_555
C13 C12 1_555 1_555
H11 C13 1_555 1_555
H12 C13 1_555 1_555
C14 C13 1_555 1_555
H13 C14 1_555 1_555
H14 C14 1_555 1_555
H15 C14 1_555 1_555
C15 N1 1_555 1_555
H16 C15 1_555 1_555
H17 C15 1_555 1_555
C16 C15 1_555 1_555
H18 C16 1_555 1_555
H19 C16 1_555 1_555
C17 C16 1_555 1_555
H20 C17 1_555 1_555
H21 C17 1_555 1_555
H22 C17 1_555 1_555
N2 H23 1_555 1_555
C18 N2 1_555 1_555
H24 C18 1_555 1_555
H25 C18 1_555 1_555
C19 C18 1_555 1_555
H26 C19 1_555 1_555
H27 C19 1_555 1_555
C20 C19 1_555 1_555
H28 C20 1_555 1_555
H29 C20 1_555 1_555
H30 C20 1_555 1_555
C21 N2 1_555 1_555
H31 C21 1_555 1_555
H32 C21 1_555 1_555
C22 C21 1_555 1_555
H33 C22 1_555 1_555
H34 C22 1_555 1_555
C23 C22 1_555 1_555
H35 C23 1_555 1_555
H36 C23 1_555 1_555
H37 C23 1_555 1_555
C24 N2 1_555 1_555
H38 C24 1_555 1_555
H39 C24 1_555 1_555
C25 C24 1_555 1_555
H40 C25 1_555 1_555
H41 C25 1_555 1_555
C26 C25 1_555 1_555
H42 C26 1_555 1_555
H43 C26 1_555 1_555
H44 C26 1_555 1_555
N3 H45 1_555 1_555
C27 N3 1_555 1_555
H46 C27 1_555 1_555
H47 C27 1_555 1_555
C28 C27 1_555 1_555
H48 C28 1_555 1_555
H49 C28 1_555 1_555
C29 C28 1_555 1_555
H50 C29 1_555 1_555
H51 C29 1_555 1_555
H52 C29 1_555 1_555
C30 N3 1_555 1_555
H53 C30 1_555 1_555
H54 C30 1_555 1_555
C31 C30 1_555 1_555
H55 C31 1_555 1_555
H56 C31 1_555 1_555
C32 C31 1_555 1_555
H57 C32 1_555 1_555
H58 C32 1_555 1_555
H59 C32 1_555 1_555
C33 N3 1_555 1_555
H60 C33 1_555 1_555
H61 C33 1_555 1_555
C34 C33 1_555 1_555
H62 C34 1_555 1_555
H63 C34 1_555 1_555
C35 C34 1_555 1_555
H64 C35 1_555 1_555
H65 C35 1_555 1_555
H66 C35 1_555 1_555
Cu1_2 O5 1_555 1_555
O5_2 Cu1 1_555 1_555
O16_2 Cu1 1_555 1_555
O9 C3 1_555 1_555
O16 Cu1_2 1_555 1_555
C3 C4 1_555 1_555
C5 C6 1_555 1_555
C7 C8 1_555 1_555

#END
