
#######################################################################
#
#                 Cambridge Crystallographic Data Centre
#                                CCDC 
#
#######################################################################
#
# If this CIF has been generated from an entry in the Cambridge 
# Structural Database, then it will include bibliographic, chemical, 
# crystal, experimental, refinement or atomic coordinate data resulting 
# from the CCDC's data processing and validation procedures.
#
#######################################################################

data_POMMAG
_symmetry_cell_setting           monoclinic
_symmetry_space_group_name_H-M   'P 21/c'
_symmetry_Int_Tables_number      14
_space_group_name_Hall           '-P 2ybc'
loop_
_symmetry_equiv_pos_site_id
_symmetry_equiv_pos_as_xyz
1 x,y,z
2 -x,1/2+y,1/2-z
3 -x,-y,-z
4 x,1/2-y,1/2+z
_cell_length_a                   9.8457(10)
_cell_length_b                   9.6891(9)
_cell_length_c                   15.3028(19)
_cell_angle_alpha                90
_cell_angle_beta                 106.7610(10)
_cell_angle_gamma                90
_cell_volume                     1397.81
loop_
_atom_site_label
_atom_site_type_symbol
_atom_site_fract_x
_atom_site_fract_y
_atom_site_fract_z
Sn1 Sn 0.41662(3) 0.26723(3) 0.24850(2)
Cl1 Cl 0.13395(13) -0.14643(14) 0.30795(8)
Cl2 Cl -0.17245(14) -0.41671(14) 0.00986(9)
Cl3 Cl 0.21742(14) -0.04603(14) -0.01909(8)
O1 O 0.2441(3) 0.1152(3) 0.1981(2)
O2 O 0.4091(3) -0.0438(3) 0.2076(2)
C1 C 0.2834(4) -0.0058(4) 0.1860(3)
C2 C 0.1682(4) -0.1073(4) 0.1414(3)
C3 C 0.0947(4) -0.1793(4) 0.1922(3)
C4 C -0.0092(5) -0.2761(4) 0.1529(3)
H1 H -0.0557 -0.3248 0.1881
C5 C -0.0410(5) -0.2974(4) 0.0609(3)
C6 C 0.0256(5) -0.2269(4) 0.0067(3)
H2 H 0.0004 -0.2414 -0.0560
C7 C 0.1307(4) -0.1341(4) 0.0483(3)
C8 C 0.2673(5) 0.4245(5) 0.2502(4)
H3 H 0.3162 0.5044 0.2809
H4 H 0.2023 0.3917 0.2818
H5 H 0.2158 0.4484 0.1887
C9 C 0.4924(6) 0.2466(5) 0.1337(3)
H6 H 0.5867 0.2092 0.1523
H7 H 0.4938 0.3355 0.1062
H8 H 0.4312 0.1857 0.0902
C10 C 0.5129(6) 0.1758(6) 0.3770(3)
H9 H 0.6022 0.1359 0.3770
H10 H 0.4520 0.1051 0.3886
H11 H 0.5283 0.2449 0.4238
Sn1A Sn 0.58338(3) -0.23277(3) 0.25150(2)
O2A O 0.5909(3) 0.4562(3) 0.2924(2)
loop_
_geom_bond_atom_site_label_1
_geom_bond_atom_site_label_2
_geom_bond_site_symmetry_1
_geom_bond_site_symmetry_2
Sn1 O1 1_555 1_555
Cl1 C3 1_555 1_555
Cl2 C5 1_555 1_555
Cl3 C7 1_555 1_555
O1 C1 1_555 1_555
O2 C1 1_555 1_555
C1 C2 1_555 1_555
C2 C3 1_555 1_555
C3 C4 1_555 1_555
C4 H1 1_555 1_555
C5 C4 1_555 1_555
C6 C5 1_555 1_555
H2 C6 1_555 1_555
C7 C2 1_555 1_555
C8 Sn1 1_555 1_555
H3 C8 1_555 1_555
H4 C8 1_555 1_555
H5 C8 1_555 1_555
C9 Sn1 1_555 1_555
H6 C9 1_555 1_555
H7 C9 1_555 1_555
H8 C9 1_555 1_555
C10 Sn1 1_555 1_555
H9 C10 1_555 1_555
H10 C10 1_555 1_555
H11 C10 1_555 1_555
Sn1A O2 1_555 1_555
O2A Sn1 1_555 1_555
C6 C7 1_555 1_555

#END
