
#######################################################################
#
#                 Cambridge Crystallographic Data Centre
#                                CCDC 
#
#######################################################################
#
# If this CIF has been generated from an entry in the Cambridge 
# Structural Database, then it will include bibliographic, chemical, 
# crystal, experimental, refinement or atomic coordinate data resulting 
# from the CCDC's data processing and validation procedures.
#
#######################################################################

data_POMPUD
_symmetry_cell_setting           monoclinic
_symmetry_space_group_name_H-M   'P 21/c'
_symmetry_Int_Tables_number      14
_space_group_name_Hall           '-P 2ybc'
loop_
_symmetry_equiv_pos_site_id
_symmetry_equiv_pos_as_xyz
1 x,y,z
2 -x,1/2+y,1/2-z
3 -x,-y,-z
4 x,1/2-y,1/2+z
_cell_length_a                   13.1807(10)
_cell_length_b                   8.2656(6)
_cell_length_c                   16.1195(13)
_cell_angle_alpha                90
_cell_angle_beta                 110.606(2)
_cell_angle_gamma                90
_cell_volume                     1643.81
loop_
_atom_site_label
_atom_site_type_symbol
_atom_site_fract_x
_atom_site_fract_y
_atom_site_fract_z
Cu1 Cu 0.364703(18) 0.28840(3) 0.167573(16)
O1 O 0.43017(11) 0.07522(17) 0.20438(10)
O2 O 0.55154(13) -0.09670(18) 0.18782(10)
N1 N 0.28664(13) 0.4972(2) 0.12453(11)
N2 N 0.22426(13) 0.2334(2) 0.18192(11)
N3 N 0.49264(17) 0.3247(2) 0.13184(19)
C1 C 0.32627(18) 0.6292(3) 0.09841(16)
C2 C 0.2644(2) 0.7669(3) 0.06765(17)
C3 C 0.1579(2) 0.7682(3) 0.06305(16)
C4 C 0.11629(18) 0.6331(3) 0.09049(15)
C5 C 0.18218(15) 0.4985(2) 0.12098(12)
C6 C 0.19879(18) 0.0907(3) 0.20930(14)
C7 C 0.0946(2) 0.0558(3) 0.20633(16)
C8 C 0.01505(19) 0.1715(3) 0.17510(16)
C9 C 0.04044(17) 0.3198(3) 0.14800(14)
C10 C 0.14634(15) 0.3474(2) 0.15143(12)
C11 C 0.50804(16) 0.0390(2) 0.17798(13)
C12 C 0.5466(2) 0.1693(3) 0.12787(19)
C13 C 0.6666(2) 0.1814(4) 0.1552(3)
H1 H 0.482(4) 0.357(6) 0.087(3)
H2 H 0.536(3) 0.384(5) 0.170(3)
H3 H 0.398(2) 0.628(3) 0.1013(17)
H4 H 0.293(2) 0.844(4) 0.0488(19)
H5 H 0.116(2) 0.855(4) 0.0419(17)
H6 H 0.049(2) 0.634(4) 0.0873(19)
H7 H 0.257(2) 0.014(3) 0.2313(16)
H8 H 0.082(2) -0.043(4) 0.2244(18)
H9 H -0.057(2) 0.151(4) 0.1713(18)
H10 H -0.014(2) 0.401(4) 0.1242(18)
H11 H 0.539(3) 0.124(5) 0.059(3)
H12 H 0.691(3) 0.261(4) 0.116(2)
H13 H 0.699(3) 0.072(5) 0.145(2)
H14 H 0.691(4) 0.225(5) 0.228(3)
Cu1A Cu 0.635297(18) -0.21160(3) 0.332427(16)
O2A O 0.44846(13) 0.40330(18) 0.31218(10)
Cl1 Cl 0.17905(4) 0.19812(6) -0.06197(3)
O3 O 0.28355(13) 0.1556(3) 0.00253(12)
O4 O 0.16505(15) 0.1197(2) -0.14439(11)
O5 O 0.17426(19) 0.3705(2) -0.07423(13)
O6 O 0.09645(14) 0.1466(3) -0.02883(12)
O7 O 0.4174(2) 0.1391(3) 0.41504(15)
H15 H 0.418(3) 0.220(4) 0.389(2)
H16 H 0.367(4) 0.142(7) 0.419(3)
loop_
_geom_bond_atom_site_label_1
_geom_bond_atom_site_label_2
_geom_bond_site_symmetry_1
_geom_bond_site_symmetry_2
Cu1 O1 1_555 1_555
Cl1 O3 1_555 1_555
O1 C11 1_555 1_555
O2 C11 1_555 1_555
O4 Cl1 1_555 1_555
O5 Cl1 1_555 1_555
O6 Cl1 1_555 1_555
N1 Cu1 1_555 1_555
N2 Cu1 1_555 1_555
N3 Cu1 1_555 1_555
C1 N1 1_555 1_555
C2 C1 1_555 1_555
C3 C2 1_555 1_555
C4 C3 1_555 1_555
C5 N1 1_555 1_555
C6 N2 1_555 1_555
C7 C6 1_555 1_555
C8 C7 1_555 1_555
C9 C8 1_555 1_555
C10 N2 1_555 1_555
C11 C12 1_555 1_555
C12 N3 1_555 1_555
C13 C12 1_555 1_555
H1 N3 1_555 1_555
H2 N3 1_555 1_555
H3 C1 1_555 1_555
H4 C2 1_555 1_555
H5 C3 1_555 1_555
H6 C4 1_555 1_555
H7 C6 1_555 1_555
H8 C7 1_555 1_555
H9 C8 1_555 1_555
H10 C9 1_555 1_555
H11 C12 1_555 1_555
H12 C13 1_555 1_555
H13 C13 1_555 1_555
H14 C13 1_555 1_555
O7 H15 1_555 1_555
H16 O7 1_555 1_555
Cu1A O2 1_555 1_555
O2A Cu1 1_555 1_555
C4 C5 1_555 1_555
C5 C10 1_555 1_555
C9 C10 1_555 1_555

#END
