
#######################################################################
#
#                 Cambridge Crystallographic Data Centre
#                                CCDC 
#
#######################################################################
#
# If this CIF has been generated from an entry in the Cambridge 
# Structural Database, then it will include bibliographic, chemical, 
# crystal, experimental, refinement or atomic coordinate data resulting 
# from the CCDC's data processing and validation procedures.
#
#######################################################################

data_POMPIR
_symmetry_cell_setting           monoclinic
_symmetry_space_group_name_H-M   'P 21/c'
_symmetry_Int_Tables_number      14
_space_group_name_Hall           '-P 2ybc'
loop_
_symmetry_equiv_pos_site_id
_symmetry_equiv_pos_as_xyz
1 x,y,z
2 -x,1/2+y,1/2-z
3 -x,-y,-z
4 x,1/2-y,1/2+z
_cell_length_a                   11.326(2)
_cell_length_b                   9.4043(19)
_cell_length_c                   10.696(2)
_cell_angle_alpha                90
_cell_angle_beta                 91.22(3)
_cell_angle_gamma                90
_cell_volume                     1139.01
loop_
_atom_site_label
_atom_site_type_symbol
_atom_site_fract_x
_atom_site_fract_y
_atom_site_fract_z
C1 C -0.01347(15) 0.35028(19) 0.25548(18)
H1 H -0.0595 0.3768 0.3226
C2 C 0.10642(16) 0.24145(19) 0.14215(18)
H2 H 0.1617 0.1761 0.1145
C3 C 0.32087(15) 0.02322(19) 0.30024(19)
C4 C 0.45442(15) 0.03032(19) 0.29392(19)
C5 C 0.51022(16) -0.0334(2) 0.19406(19)
H3 H 0.4668 -0.0830 0.1335
C6 C 0.52033(16) 0.1050(2) 0.38296(19)
H4 H 0.4838 0.1486 0.4499
C7 C 0.64177(16) 0.1134(2) 0.37020(19)
C8 C 0.70035(16) 0.0510(2) 0.27338(19)
H5 H 0.7819 0.0574 0.2668
C9 C 0.63179(16) -0.0217(2) 0.18643(19)
Co1 Co 0.10473(2) 0.09672(2) 0.39456(2)
N1 N 0.05927(13) 0.23721(15) 0.25698(14)
N2 N 0.06612(12) 0.34762(16) 0.07340(14)
N3 N -0.01218(12) 0.41947(15) 0.14790(14)
N4 N 0.69050(14) -0.08206(18) 0.07799(17)
N5 N 0.71165(14) 0.19524(18) 0.46234(16)
O1 O 0.27667(11) 0.08348(14) 0.39657(14)
O2 O 0.26354(12) -0.03470(16) 0.21590(14)
O3 O 0.79840(13) -0.0720(2) 0.07570(16)
O4 O 0.63013(13) -0.13889(16) -0.00391(14)
O5 O 0.65828(13) 0.25969(17) 0.54211(16)
O6 O 0.81961(12) 0.19449(16) 0.45430(15)
Co1C Co 0.10473(2) 0.40328(2) -0.10544(2)
Co1A Co -0.10473(2) 0.59672(2) 0.10544(2)
N2C N 0.06612(12) 0.15238(16) 0.57340(14)
N3A N 0.01218(12) -0.08053(15) 0.35210(14)
loop_
_geom_bond_atom_site_label_1
_geom_bond_atom_site_label_2
_geom_bond_site_symmetry_1
_geom_bond_site_symmetry_2
C1 H1 1_555 1_555
C2 H2 1_555 1_555
C3 C4 1_555 1_555
C4 C5 1_555 1_555
C5 H3 1_555 1_555
C6 C4 1_555 1_555
H4 C6 1_555 1_555
C7 C6 1_555 1_555
C8 C7 1_555 1_555
H5 C8 1_555 1_555
C9 C5 1_555 1_555
Co1 N1 1_555 1_555
N1 C1 1_555 1_555
N2 C2 1_555 1_555
N3 C1 1_555 1_555
N4 C9 1_555 1_555
N5 C7 1_555 1_555
O1 C3 1_555 1_555
O2 C3 1_555 1_555
O3 N4 1_555 1_555
O4 N4 1_555 1_555
O5 N5 1_555 1_555
O6 N5 1_555 1_555
Co1C N2 1_555 1_555
Co1A N3 1_555 1_555
N2C Co1 1_555 1_555
N3A Co1 1_555 1_555
C2 N1 1_555 1_555
C8 C9 1_555 1_555
Co1 O1 1_555 1_555
N2 N3 1_555 1_555

#END
