
#######################################################################
#
#                 Cambridge Crystallographic Data Centre
#                                CCDC 
#
#######################################################################
#
# If this CIF has been generated from an entry in the Cambridge 
# Structural Database, then it will include bibliographic, chemical, 
# crystal, experimental, refinement or atomic coordinate data resulting 
# from the CCDC's data processing and validation procedures.
#
#######################################################################

data_POMSAN
_symmetry_cell_setting           orthorhombic
_symmetry_space_group_name_H-M   'P b c n'
_symmetry_Int_Tables_number      60
_space_group_name_Hall           '-P 2n 2ab'
loop_
_symmetry_equiv_pos_site_id
_symmetry_equiv_pos_as_xyz
1 x,y,z
2 1/2-x,1/2-y,1/2+z
3 -x,y,1/2-z
4 1/2+x,1/2-y,-z
5 -x,-y,-z
6 1/2+x,1/2+y,1/2-z
7 x,-y,1/2+z
8 1/2-x,1/2+y,z
_cell_length_a                   27.2625(6)
_cell_length_b                   10.7294(3)
_cell_length_c                   17.6036(3)
_cell_angle_alpha                90
_cell_angle_beta                 90
_cell_angle_gamma                90
_cell_volume                     5149.23
loop_
_atom_site_label
_atom_site_type_symbol
_atom_site_fract_x
_atom_site_fract_y
_atom_site_fract_z
Ca1 Ca 0.627882(16) 0.66156(4) 0.23272(2)
Ca2 Ca 0.5000 0.77894(6) 0.2500
O1 O 0.65242(6) 0.78021(17) 0.34178(9)
O2 O 0.57204(6) 0.77166(15) 0.32589(8)
O3 O 0.61873(6) 1.15834(16) 0.65931(10)
O4 O 0.54226(6) 1.08615(17) 0.67143(10)
O5 O 0.60427(6) 0.52573(17) 0.13038(10)
O6 O 0.54200(6) 0.62171(16) 0.18473(8)
O7 O 0.62741(7) 0.49586(18) 0.31667(11)
O8 O 0.70795(6) 0.6407(2) 0.19272(12)
N1 N 0.64526(10) 0.3993(2) 0.42905(14)
N2 N 0.59062(9) 0.3144(2) 0.35458(14)
N3 N 0.78352(11) 0.6041(4) 0.2419(2)
N4 N 0.77608(11) 0.7430(3) 0.1545(2)
C1 C 0.60982(8) 0.8033(2) 0.36363(12)
C2 C 0.58349(9) 1.0888(2) 0.64054(13)
C3 C 0.60316(8) 0.8697(2) 0.43812(12)
C4 C 0.55738(8) 0.8801(2) 0.47181(14)
H1 H 0.5302 0.8436 0.4490
C5 C 0.55208(8) 0.9446(2) 0.53929(13)
H2 H 0.5215 0.9475 0.5627
C6 C 0.59149(8) 1.0049(2) 0.57260(12)
C7 C 0.63738(8) 0.9911(2) 0.54024(13)
H3 H 0.6645 1.0276 0.5633
C8 C 0.64340(9) 0.9234(2) 0.47386(13)
H4 H 0.6745 0.9138 0.4531
C9 C 0.56033(8) 0.5587(2) 0.13074(12)
C10 C 0.52829(8) 0.5258(2) 0.06382(12)
C11 C 0.54726(9) 0.4555(2) 0.00482(13)
H5 H 0.5791 0.4250 0.0080
C12 C 0.48065(9) 0.5697(2) 0.05876(13)
H6 H 0.4674 0.6162 0.0983
C13 C 0.62148(10) 0.4115(2) 0.36295(15)
C14 C 0.55183(13) 0.3124(4) 0.2992(2)
H7 H 0.5601 0.3666 0.2577
H8 H 0.5219 0.3403 0.3223
H9 H 0.5476 0.2290 0.2806
C15 C 0.68164(14) 0.4825(4) 0.4570(2)
H10 H 0.6840 0.5533 0.4239
H11 H 0.7127 0.4406 0.4589
H12 H 0.6728 0.5098 0.5071
C16 C 0.58770(13) 0.2420(3) 0.42403(19)
H13 H 0.5887 0.1533 0.4135
H14 H 0.5581 0.2613 0.4522
C17 C 0.63271(13) 0.2836(3) 0.46628(18)
H15 H 0.6257 0.2968 0.5197
H16 H 0.6590 0.2231 0.4615
C18 C 0.75232(10) 0.6625(3) 0.19632(16)
C19 C 0.7689(2) 0.5047(7) 0.2936(3)
H17 H 0.7341 0.4914 0.2896
H18 H 0.7769 0.5279 0.3448
H19 H 0.7859 0.4294 0.2805
C20 C 0.75343(19) 0.8209(5) 0.0992(3)
H20 H 0.7192 0.8009 0.0959
H21 H 0.7687 0.8076 0.0507
H22 H 0.7572 0.9065 0.1138
C21 C 0.83248(13) 0.6477(5) 0.2316(3)
H23 H 0.8536 0.5816 0.2131
H24 H 0.8458 0.6799 0.2788
C22 C 0.82735(14) 0.7495(4) 0.1735(3)
H25 H 0.8358 0.8301 0.1948
H26 H 0.8478 0.7337 0.1295
O5D O 0.39573(6) 0.47427(17) -0.13038(10)
O6D O 0.45800(6) 0.37829(16) -0.18473(8)
C9D C 0.43967(8) 0.4413(2) -0.13074(12)
C10D C 0.47171(8) 0.4742(2) -0.06382(12)
C11D C 0.45274(9) 0.5445(2) -0.00482(13)
H5D H 0.4209 0.5750 -0.0080
C12D C 0.51935(9) 0.4303(2) -0.05876(13)
H6D H 0.5326 0.3838 -0.0983
Ca1B Ca 0.372118(16) 0.66156(4) 0.26728(2)
O1B O 0.34758(6) 0.78021(17) 0.15822(9)
O2B O 0.42796(6) 0.77166(15) 0.17411(8)
O3B O 0.38127(6) 1.15834(16) -0.15931(10)
O4B O 0.45774(6) 1.08615(17) -0.17143(10)
O7B O 0.37259(7) 0.49586(18) 0.18333(11)
O8B O 0.29205(6) 0.6407(2) 0.30728(12)
N1B N 0.35474(10) 0.3993(2) 0.07095(14)
N2B N 0.40938(9) 0.3144(2) 0.14542(14)
N3B N 0.21648(11) 0.6041(4) 0.2581(2)
N4B N 0.22392(11) 0.7430(3) 0.3455(2)
C1B C 0.39018(8) 0.8033(2) 0.13637(12)
C2B C 0.41651(9) 1.0888(2) -0.14054(13)
C3B C 0.39684(8) 0.8697(2) 0.06188(12)
C4B C 0.44262(8) 0.8801(2) 0.02819(14)
H1B H 0.4698 0.8436 0.0510
C5B C 0.44792(8) 0.9446(2) -0.03929(13)
H2B H 0.4785 0.9475 -0.0627
C6B C 0.40851(8) 1.0049(2) -0.07260(12)
C7B C 0.36262(8) 0.9911(2) -0.04024(13)
H3B H 0.3355 1.0276 -0.0633
C8B C 0.35660(9) 0.9234(2) 0.02614(13)
H4B H 0.3255 0.9138 0.0469
C13B C 0.37852(10) 0.4115(2) 0.13705(15)
C14B C 0.44817(13) 0.3124(4) 0.2008(2)
H7B H 0.4399 0.3666 0.2423
H8B H 0.4781 0.3403 0.1777
H9B H 0.4524 0.2290 0.2194
C15B C 0.31836(14) 0.4825(4) 0.0430(2)
H10B H 0.3160 0.5533 0.0761
H11B H 0.2873 0.4406 0.0411
H12B H 0.3272 0.5098 -0.0071
C16B C 0.41230(13) 0.2420(3) 0.07597(19)
H13B H 0.4113 0.1533 0.0865
H14B H 0.4419 0.2613 0.0478
C17B C 0.36729(13) 0.2836(3) 0.03372(18)
H15B H 0.3743 0.2968 -0.0197
H16B H 0.3410 0.2231 0.0385
C18B C 0.24768(10) 0.6625(3) 0.30368(16)
C19B C 0.2311(2) 0.5047(7) 0.2064(3)
H17B H 0.2659 0.4914 0.2104
H18B H 0.2231 0.5279 0.1552
H19B H 0.2141 0.4294 0.2195
C20B C 0.24657(19) 0.8209(5) 0.4008(3)
H20B H 0.2808 0.8009 0.4041
H21B H 0.2313 0.8076 0.4493
H22B H 0.2428 0.9065 0.3862
C21B C 0.16752(13) 0.6477(5) 0.2684(3)
H23B H 0.1464 0.5816 0.2869
H24B H 0.1542 0.6799 0.2212
C22B C 0.17265(14) 0.7495(4) 0.3265(3)
H25B H 0.1642 0.8301 0.3052
H26B H 0.1522 0.7337 0.3705
Ca1D Ca 0.372118(16) 0.33844(4) -0.23272(2)
Ca1D_2 Ca 0.372118(16) 1.33844(4) -0.23272(2)
Ca1F Ca 0.627882(16) 1.33844(4) 0.73272(2)
Ca2D Ca 0.5000 0.22106(6) -0.2500
Ca2D_2 Ca 0.5000 1.22106(6) -0.2500
Ca2D_3 Ca 0.5000 1.22106(6) 0.7500
O3D O 0.38127(6) 0.84166(16) 0.34069(10)
O3F O 0.61873(6) 0.84166(16) 0.15931(10)
O4D O 0.45774(6) 0.91385(17) 0.32857(10)
O4F O 0.54226(6) 0.91385(17) 0.17143(10)
O5B O 0.39573(6) 0.52573(17) 0.36962(10)
O6B O 0.45800(6) 0.62171(16) 0.31527(8)
loop_
_geom_bond_atom_site_label_1
_geom_bond_atom_site_label_2
_geom_bond_site_symmetry_1
_geom_bond_site_symmetry_2
Ca1 O1 1_555 1_555
Ca2 O2 1_555 1_555
O1 C1 1_555 1_555
O2 Ca1 1_555 1_555
O3 C2 1_555 1_555
O4 C2 1_555 1_555
O5 Ca1 1_555 1_555
O6 Ca1 1_555 1_555
O7 Ca1 1_555 1_555
O8 Ca1 1_555 1_555
N1 C13 1_555 1_555
N2 C13 1_555 1_555
N3 C18 1_555 1_555
N4 C18 1_555 1_555
C1 O2 1_555 1_555
C2 C6 1_555 1_555
C3 C1 1_555 1_555
C4 C3 1_555 1_555
H1 C4 1_555 1_555
C5 C4 1_555 1_555
H2 C5 1_555 1_555
C6 C5 1_555 1_555
C7 C6 1_555 1_555
H3 C7 1_555 1_555
C8 C3 1_555 1_555
H4 C8 1_555 1_555
C9 O5 1_555 1_555
C10 C9 1_555 1_555
C11 C10 1_555 1_555
H5 C11 1_555 1_555
C12 C10 1_555 1_555
H6 C12 1_555 1_555
C13 O7 1_555 1_555
C14 N2 1_555 1_555
H7 C14 1_555 1_555
H8 C14 1_555 1_555
H9 C14 1_555 1_555
C15 N1 1_555 1_555
H10 C15 1_555 1_555
H11 C15 1_555 1_555
H12 C15 1_555 1_555
C16 N2 1_555 1_555
H13 C16 1_555 1_555
H14 C16 1_555 1_555
C17 N1 1_555 1_555
H15 C17 1_555 1_555
H16 C17 1_555 1_555
C18 O8 1_555 1_555
C19 N3 1_555 1_555
H17 C19 1_555 1_555
H18 C19 1_555 1_555
H19 C19 1_555 1_555
C20 N4 1_555 1_555
H20 C20 1_555 1_555
H21 C20 1_555 1_555
H22 C20 1_555 1_555
C21 N3 1_555 1_555
H23 C21 1_555 1_555
H24 C21 1_555 1_555
C22 N4 1_555 1_555
H25 C22 1_555 1_555
H26 C22 1_555 1_555
O5D C9D 1_555 1_555
O6D C9D 1_555 1_555
C9D C10D 1_555 1_555
C10D C11D 1_555 1_555
C11D C12 1_555 1_555
H5D C11D 1_555 1_555
C12D C11 1_555 1_555
H6D C12D 1_555 1_555
Ca1B O1B 1_555 1_555
O1B C1B 1_555 1_555
O2B Ca2 1_555 1_555
O3B C2B 1_555 1_555
O4B C2B 1_555 1_555
O7B Ca1B 1_555 1_555
O8B Ca1B 1_555 1_555
N1B C13B 1_555 1_555
N2B C13B 1_555 1_555
N3B C18B 1_555 1_555
N4B C18B 1_555 1_555
C1B O2B 1_555 1_555
C2B C6B 1_555 1_555
C3B C1B 1_555 1_555
C4B C3B 1_555 1_555
H1B C4B 1_555 1_555
C5B C4B 1_555 1_555
H2B C5B 1_555 1_555
C6B C5B 1_555 1_555
C7B C6B 1_555 1_555
H3B C7B 1_555 1_555
C8B C3B 1_555 1_555
H4B C8B 1_555 1_555
C13B O7B 1_555 1_555
C14B N2B 1_555 1_555
H7B C14B 1_555 1_555
H8B C14B 1_555 1_555
H9B C14B 1_555 1_555
C15B N1B 1_555 1_555
H10B C15B 1_555 1_555
H11B C15B 1_555 1_555
H12B C15B 1_555 1_555
C16B N2B 1_555 1_555
H13B C16B 1_555 1_555
H14B C16B 1_555 1_555
C17B N1B 1_555 1_555
H15B C17B 1_555 1_555
H16B C17B 1_555 1_555
C18B O8B 1_555 1_555
C19B N3B 1_555 1_555
H17B C19B 1_555 1_555
H18B C19B 1_555 1_555
H19B C19B 1_555 1_555
C20B N4B 1_555 1_555
H20B C20B 1_555 1_555
H21B C20B 1_555 1_555
H22B C20B 1_555 1_555
C21B N3B 1_555 1_555
H23B C21B 1_555 1_555
H24B C21B 1_555 1_555
C22B N4B 1_555 1_555
H25B C22B 1_555 1_555
H26B C22B 1_555 1_555
Ca1D O5D 1_555 1_555
Ca1D_2 O3B 1_555 1_555
Ca1F O3 1_555 1_555
Ca2D O6D 1_555 1_555
Ca2D_2 O4B 1_555 1_555
Ca2D_3 O4 1_555 1_555
O3D Ca1B 1_555 1_555
O3F Ca1 1_555 1_555
O4D Ca2 1_555 1_555
O4F Ca2 1_555 1_555
O5B Ca1B 1_555 1_555
O6B Ca2 1_555 1_555
Ca2 O6 1_555 1_555
O6 C9 1_555 1_555
C7 C8 1_555 1_555
C16 C17 1_555 1_555
C21 C22 1_555 1_555
O6D Ca1D 1_555 1_555
C10D C12D 1_555 1_555
Ca1B O2B 1_555 1_555
Ca1B O6B 1_555 1_555
C7B C8B 1_555 1_555
C16B C17B 1_555 1_555
C21B C22B 1_555 1_555

#END
