
#######################################################################
#
#                 Cambridge Crystallographic Data Centre
#                                CCDC 
#
#######################################################################
#
# If this CIF has been generated from an entry in the Cambridge 
# Structural Database, then it will include bibliographic, chemical, 
# crystal, experimental, refinement or atomic coordinate data resulting 
# from the CCDC's data processing and validation procedures.
#
#######################################################################

data_POMSOB
_symmetry_cell_setting           monoclinic
_symmetry_space_group_name_H-M   'C 2/c'
_symmetry_Int_Tables_number      15
_space_group_name_Hall           '-C 2yn'
loop_
_symmetry_equiv_pos_site_id
_symmetry_equiv_pos_as_xyz
1 x,y,z
2 -x,y,1/2-z
3 1/2+x,1/2+y,z
4 1/2-x,1/2+y,1/2-z
5 -x,-y,-z
6 x,-y,1/2+z
7 1/2-x,1/2-y,-z
8 1/2+x,1/2-y,1/2+z
_cell_length_a                   25.5793(15)
_cell_length_b                   10.1120(2)
_cell_length_c                   18.0636(18)
_cell_angle_alpha                90
_cell_angle_beta                 128.737(10)
_cell_angle_gamma                90
_cell_volume                     3644.51
loop_
_atom_site_label
_atom_site_type_symbol
_atom_site_fract_x
_atom_site_fract_y
_atom_site_fract_z
Ca1 Ca 0.0000 0.78483(6) 0.2500
Ca2 Ca 0.17653(2) 0.68576(5) 0.38023(3)
O1 O 0.20731(8) 0.79080(17) 0.52437(11)
O2 O 0.09912(8) 0.76189(17) 0.41251(10)
O3 O 0.15110(11) 1.1136(2) 0.80838(14)
O4 O 0.04365(10) 1.0573(2) 0.70962(14)
O5 O 0.05965(8) 0.62989(17) 0.23218(11)
O6 O 0.14807(10) 0.5869(3) 0.23975(14)
O7 O 0.18322(12) 0.4807(2) 0.43996(18)
N1 N 0.1725(2) 0.2935(3) 0.4978(3)
C1 C 0.14765(11) 0.8012(2) 0.49448(15)
C2 C 0.10175(15) 1.0567(3) 0.73575(19)
C3 C 0.13576(12) 0.8609(2) 0.55824(16)
C4 C 0.18713(13) 0.9285(3) 0.63905(18)
H1 H 0.2295 0.9318 0.6551
C5 C 0.17570(14) 0.9908(3) 0.69556(19)
H2 H 0.2102 1.0377 0.7487
C6 C 0.11378(13) 0.9846(3) 0.67460(17)
C7 C 0.06306(13) 0.9146(3) 0.59519(18)
H3 H 0.0214 0.9074 0.5811
C8 C 0.07349(13) 0.8549(3) 0.53629(18)
H4 H 0.0385 0.8107 0.4819
C9 C 0.08561(14) 0.5891(3) 0.19467(18)
C10 C -0.02656(13) 0.5246(3) 0.04577(19)
H5 H -0.0449 0.5410 0.0760
C11 C 0.04090(13) 0.5421(3) 0.09401(17)
C12 C 0.06765(14) 0.5174(3) 0.04838(19)
H6 H 0.1133 0.5290 0.0807
C13 C 0.1566(2) 0.3775(4) 0.4337(3)
C14 C 0.0940(2) 0.3201(5) 0.3393(3)
H7 H 0.0593 0.3868 0.3043
H8 H 0.1053 0.2889 0.3001
C15 C 0.0715(3) 0.2113(5) 0.3655(4)
H9 H 0.0584 0.1361 0.3238
H10 H 0.0337 0.2377 0.3624
C16 C 0.1343(3) 0.1762(5) 0.4709(5)
H11 H 0.1215 0.1600 0.5105
H12 H 0.1584 0.1001 0.4732
C17 C 0.2315(2) 0.3124(6) 0.5979(3)
H13 H 0.2521 0.3959 0.6051
H14 H 0.2631 0.2425 0.6172
H15 H 0.2179 0.3109 0.6368
O5D O -0.05965(8) 0.37011(17) -0.23218(11)
O6D O -0.14807(10) 0.4131(3) -0.23975(14)
C9D C -0.08561(14) 0.4109(3) -0.19467(18)
C10D C 0.02656(13) 0.4754(3) -0.04577(19)
H5D H 0.0449 0.4590 -0.0760
C11D C -0.04090(13) 0.4579(3) -0.09401(17)
C12D C -0.06765(14) 0.4826(3) -0.04838(19)
H6D H -0.1133 0.4710 -0.0807
Ca2A Ca -0.17653(2) 0.68576(5) 0.11977(3)
O1A O -0.20731(8) 0.79080(17) -0.02437(11)
O2A O -0.09912(8) 0.76189(17) 0.08749(10)
O3A O -0.15110(11) 1.1136(2) -0.30838(14)
O4A O -0.04365(10) 1.0573(2) -0.20962(14)
O7A O -0.18322(12) 0.4807(2) 0.06004(18)
N1A N -0.1725(2) 0.2935(3) 0.0022(3)
C1A C -0.14765(11) 0.8012(2) 0.00552(15)
C2A C -0.10175(15) 1.0567(3) -0.23575(19)
C3A C -0.13576(12) 0.8609(2) -0.05824(16)
C4A C -0.18713(13) 0.9285(3) -0.13905(18)
H1A H -0.2295 0.9318 -0.1551
C5A C -0.17570(14) 0.9908(3) -0.19556(19)
H2A H -0.2102 1.0377 -0.2487
C6A C -0.11378(13) 0.9846(3) -0.17460(17)
C7A C -0.06306(13) 0.9146(3) -0.09519(18)
H3A H -0.0214 0.9074 -0.0811
C8A C -0.07349(13) 0.8549(3) -0.03629(18)
H4A H -0.0385 0.8107 0.0181
C13A C -0.1566(2) 0.3775(4) 0.0663(3)
C14A C -0.0940(2) 0.3201(5) 0.1607(3)
H7A H -0.0593 0.3868 0.1957
H8A H -0.1053 0.2889 0.1999
C15A C -0.0715(3) 0.2113(5) 0.1345(4)
H9A H -0.0584 0.1361 0.1762
H10A H -0.0337 0.2377 0.1376
C16A C -0.1343(3) 0.1762(5) 0.0291(5)
H11A H -0.1215 0.1600 -0.0105
H12A H -0.1584 0.1001 0.0268
C17A C -0.2315(2) 0.3124(6) -0.0979(3)
H13A H -0.2521 0.3959 -0.1051
H14A H -0.2631 0.2425 -0.1172
H15A H -0.2179 0.3109 -0.1368
Ca1D Ca 0.0000 0.21517(6) -0.2500
Ca1D_2 Ca 0.0000 1.21517(6) -0.2500
Ca1D_3 Ca 0.0000 1.21517(6) 0.7500
Ca2D Ca -0.17653(2) 0.31424(5) -0.38023(3)
Ca2D_2 Ca -0.17653(2) 1.31424(5) -0.38023(3)
Ca2E Ca 0.17653(2) 1.31424(5) 0.88023(3)
Ca2F Ca 0.32347(2) 0.81424(5) 0.61977(3)
Ca2G Ca -0.32347(2) 0.81424(5) -0.11977(3)
O1F O 0.29269(8) 0.70920(17) 0.47563(11)
O1G O -0.29269(8) 0.70920(17) 0.02437(11)
O3D O -0.15110(11) 0.8864(2) 0.19162(14)
O3E O 0.15110(11) 0.8864(2) 0.30838(14)
O4D O -0.04365(10) 0.9427(2) 0.29038(14)
O4E O 0.04365(10) 0.9427(2) 0.20962(14)
O5A O -0.05965(8) 0.62989(17) 0.26782(11)
O6A O -0.14807(10) 0.5869(3) 0.26025(14)
loop_
_geom_bond_atom_site_label_1
_geom_bond_atom_site_label_2
_geom_bond_site_symmetry_1
_geom_bond_site_symmetry_2
Ca1 O2 1_555 1_555
Ca2 O1 1_555 1_555
O1 C1 1_555 1_555
O2 Ca2 1_555 1_555
O3 C2 1_555 1_555
O4 C2 1_555 1_555
O5 Ca1 1_555 1_555
O6 Ca2 1_555 1_555
O7 Ca2 1_555 1_555
N1 C13 1_555 1_555
C1 O2 1_555 1_555
C2 C6 1_555 1_555
C3 C1 1_555 1_555
C4 C3 1_555 1_555
H1 C4 1_555 1_555
C5 C4 1_555 1_555
H2 C5 1_555 1_555
C6 C5 1_555 1_555
C7 C6 1_555 1_555
H3 C7 1_555 1_555
C8 C3 1_555 1_555
H4 C8 1_555 1_555
C9 O5 1_555 1_555
C10 H5 1_555 1_555
C11 C9 1_555 1_555
C12 C11 1_555 1_555
H6 C12 1_555 1_555
C13 O7 1_555 1_555
C14 C13 1_555 1_555
H7 C14 1_555 1_555
H8 C14 1_555 1_555
C15 C14 1_555 1_555
H9 C15 1_555 1_555
H10 C15 1_555 1_555
C16 N1 1_555 1_555
H11 C16 1_555 1_555
H12 C16 1_555 1_555
C17 N1 1_555 1_555
H13 C17 1_555 1_555
H14 C17 1_555 1_555
H15 C17 1_555 1_555
O5D C9D 1_555 1_555
O6D C9D 1_555 1_555
C9D C11D 1_555 1_555
C10D C12 1_555 1_555
H5D C10D 1_555 1_555
C11D C10D 1_555 1_555
C12D C10 1_555 1_555
H6D C12D 1_555 1_555
Ca2A O1A 1_555 1_555
O1A C1A 1_555 1_555
O2A Ca1 1_555 1_555
O3A C2A 1_555 1_555
O4A C2A 1_555 1_555
O7A Ca2A 1_555 1_555
N1A C13A 1_555 1_555
C1A O2A 1_555 1_555
C2A C6A 1_555 1_555
C3A C1A 1_555 1_555
C4A C3A 1_555 1_555
H1A C4A 1_555 1_555
C5A C4A 1_555 1_555
H2A C5A 1_555 1_555
C6A C5A 1_555 1_555
C7A C6A 1_555 1_555
H3A C7A 1_555 1_555
C8A C3A 1_555 1_555
H4A C8A 1_555 1_555
C13A O7A 1_555 1_555
C14A C13A 1_555 1_555
H7A C14A 1_555 1_555
H8A C14A 1_555 1_555
C15A C14A 1_555 1_555
H9A C15A 1_555 1_555
H10A C15A 1_555 1_555
C16A N1A 1_555 1_555
H11A C16A 1_555 1_555
H12A C16A 1_555 1_555
C17A N1A 1_555 1_555
H13A C17A 1_555 1_555
H14A C17A 1_555 1_555
H15A C17A 1_555 1_555
Ca1D O5D 1_555 1_555
Ca1D_2 O4A 1_555 1_555
Ca1D_3 O4 1_555 1_555
Ca2D O5D 1_555 1_555
Ca2D_2 O3A 1_555 1_555
Ca2E O3 1_555 1_555
Ca2F O1 1_555 1_555
Ca2G O1A 1_555 1_555
O1F Ca2 1_555 1_555
O1G Ca2A 1_555 1_555
O3D Ca2A 1_555 1_555
O3E Ca2 1_555 1_555
O4D Ca1 1_555 1_555
O4E Ca1 1_555 1_555
O5A Ca1 1_555 1_555
O6A Ca2A 1_555 1_555
Ca2 O5 1_555 1_555
O6 C9 1_555 1_555
C7 C8 1_555 1_555
C10 C11 1_555 1_555
C15 C16 1_555 1_555
O6D Ca2D 1_555 1_555
C11D C12D 1_555 1_555
Ca2A O2A 1_555 1_555
Ca2A O5A 1_555 1_555
C7A C8A 1_555 1_555
C15A C16A 1_555 1_555
Ca2F O1F 1_555 1_555
Ca2G O1G 1_555 1_555

#END
