
#######################################################################
#
#                 Cambridge Crystallographic Data Centre
#                                CCDC 
#
#######################################################################
#
# If this CIF has been generated from an entry in the Cambridge 
# Structural Database, then it will include bibliographic, chemical, 
# crystal, experimental, refinement or atomic coordinate data resulting 
# from the CCDC's data processing and validation procedures.
#
#######################################################################

data_POMTAN
_symmetry_cell_setting           triclinic
_symmetry_space_group_name_H-M   'P -1'
_symmetry_Int_Tables_number      2
_space_group_name_Hall           '-P 1'
loop_
_symmetry_equiv_pos_site_id
_symmetry_equiv_pos_as_xyz
1 x,y,z
2 -x,-y,-z
_cell_length_a                   8.040(3)
_cell_length_b                   8.7343(18)
_cell_length_c                   8.8329(18)
_cell_angle_alpha                115.552(2)
_cell_angle_beta                 101.447(3)
_cell_angle_gamma                95.789(3)
_cell_volume                     536.147
loop_
_atom_site_label
_atom_site_type_symbol
_atom_site_fract_x
_atom_site_fract_y
_atom_site_fract_z
C1 C 0.2750(6) 0.2794(6) 0.7523(6)
C2 C 0.2577(7) 0.4053(7) 0.9066(7)
H1 H 0.3191 0.4122 1.0111
C3 C 0.0676(7) 0.4974(7) 0.7564(7)
H2 H -0.0079 0.5706 0.7529
C4 C 0.0849(7) 0.3716(7) 0.6014(7)
H3 H 0.0202 0.3621 0.4968
C5 C 0.5718(6) 0.4928(6) 0.5701(6)
C6 C -0.0553(6) 0.0282(6) 0.0653(6)
C7 C 0.3936(6) 0.1564(7) 0.7458(6)
La1 La 0.33941(3) 0.08521(3) 0.32247(3)
N1 N 0.1560(6) 0.5173(6) 0.9109(6)
N2 N 0.1914(5) 0.2634(5) 0.5974(5)
O1 O 0.3920(5) 0.0398(4) 0.5980(4)
O2 O 0.4933(5) 0.1760(5) 0.8841(5)
O3 O 0.5571(5) 0.3495(4) 0.5715(4)
O4 O 0.3121(4) 0.3759(4) 0.3322(4)
O5 O 0.0155(4) 0.0721(5) 0.2201(4)
O6 O 0.2119(4) -0.0240(5) -0.0025(4)
O7 O 0.2022(5) -0.2208(4) 0.2499(4)
O8 O 0.5746(5) 0.1980(5) 0.2097(4)
H4 H 0.1827 -0.2913 0.1441
H5 H 0.5293 0.2079 0.1210
H6 H 0.2583 -0.2630 0.3071
H7 H 0.6611 0.1534 0.1900
C1A C 0.7250(6) -0.2794(6) 0.2477(6)
C2A C 0.7423(7) -0.4053(7) 0.0934(7)
H1A H 0.6809 -0.4122 -0.0111
C3A C 0.9324(7) -0.4974(7) 0.2436(7)
H2A H 1.0079 -0.5706 0.2471
C4A C 0.9151(7) -0.3716(7) 0.3986(7)
H3A H 0.9798 -0.3621 0.5032
C5A C 0.4282(6) 0.5072(6) 0.4299(6)
C6A C 0.0553(6) -0.0282(6) -0.0653(6)
C7A C 0.6064(6) -0.1564(7) 0.2542(6)
La1A La 0.66059(3) -0.08521(3) 0.67753(3)
La1A_2 La 0.66059(3) 0.91479(3) 0.67753(3)
La1A_3 La -0.33941(3) -0.08521(3) -0.32247(3)
N1A N 0.8440(6) -0.5173(6) 0.0891(6)
N2A N 0.8086(5) -0.2634(5) 0.4026(5)
O1A O 0.6080(5) -0.0398(4) 0.4020(4)
O2A O 0.5067(5) -0.1760(5) 0.1159(5)
O3A O 0.4429(5) -0.3495(4) 0.4285(4)
O3A_2 O 0.4429(5) 0.6505(4) 0.4285(4)
O4A O 0.6879(4) -0.3759(4) 0.6678(4)
O4A_2 O 0.6879(4) 0.6241(4) 0.6678(4)
O5A O 0.9845(4) -0.0721(5) 0.7799(4)
O5A_2 O -0.0155(4) -0.0721(5) -0.2201(4)
O6A O 0.7881(4) 0.0240(5) 1.0025(4)
O6A_2 O -0.2119(4) 0.0240(5) 0.0025(4)
O7A O 0.7978(5) 0.2208(4) 0.7501(4)
O8A O 0.4254(5) -0.1980(5) 0.7903(4)
H4A H 0.8173 0.2913 0.8559
H5A H 0.4707 -0.2079 0.8790
H6A H 0.7417 0.2630 0.6929
H7A H 0.3389 -0.1534 0.8100
loop_
_geom_bond_atom_site_label_1
_geom_bond_atom_site_label_2
_geom_bond_site_symmetry_1
_geom_bond_site_symmetry_2
C1 C2 1_555 1_555
C2 H1 1_555 1_555
C3 H2 1_555 1_555
C4 C3 1_555 1_555
H3 C4 1_555 1_555
C5 O3 1_555 1_555
C6 O5 1_555 1_555
C7 C1 1_555 1_555
La1 N2 1_555 1_555
N1 C2 1_555 1_555
N2 C1 1_555 1_555
O1 C7 1_555 1_555
O2 C7 1_555 1_555
O3 La1 1_555 1_555
O4 La1 1_555 1_555
O5 La1 1_555 1_555
O6 La1 1_555 1_555
O7 La1 1_555 1_555
O8 La1 1_555 1_555
H4 O7 1_555 1_555
H5 O8 1_555 1_555
H6 O7 1_555 1_555
H7 O8 1_555 1_555
C1A C2A 1_555 1_555
C2A H1A 1_555 1_555
C3A H2A 1_555 1_555
C4A C3A 1_555 1_555
H3A C4A 1_555 1_555
C5A C5 1_555 1_555
C6A C6 1_555 1_555
C7A C1A 1_555 1_555
La1A O1 1_555 1_555
La1A_2 O3A_2 1_555 1_555
La1A_3 O5A_2 1_555 1_555
N1A C2A 1_555 1_555
N2A C1A 1_555 1_555
O1A La1 1_555 1_555
O2A La1 1_555 1_555
O3A La1A 1_555 1_555
O3A_2 C5A 1_555 1_555
O4A La1A 1_555 1_555
O4A_2 C5 1_555 1_555
O5A La1A 1_555 1_555
O5A_2 C6A 1_555 1_555
O6A La1A 1_555 1_555
O6A_2 C6 1_555 1_555
O7A La1A 1_555 1_555
O8A La1A 1_555 1_555
H4A O7A 1_555 1_555
H5A O8A 1_555 1_555
H6A O7A 1_555 1_555
H7A O8A 1_555 1_555
C3 N1 1_555 1_555
C4 N2 1_555 1_555
La1 O1 1_555 1_555
O2 La1A 1_555 1_555
O4 C5A 1_555 1_555
O6 C6A 1_555 1_555
C3A N1A 1_555 1_555
C4A N2A 1_555 1_555
C7A O1A 1_555 1_555
C7A O2A 1_555 1_555
La1A N2A 1_555 1_555
La1A O1A 1_555 1_555
La1A_2 O4A_2 1_555 1_555
La1A_3 O6A_2 1_555 1_555

#END
