
#######################################################################
#
#                 Cambridge Crystallographic Data Centre
#                                CCDC 
#
#######################################################################
#
# If this CIF has been generated from an entry in the Cambridge 
# Structural Database, then it will include bibliographic, chemical, 
# crystal, experimental, refinement or atomic coordinate data resulting 
# from the CCDC's data processing and validation procedures.
#
#######################################################################

data_POMTOC
_symmetry_cell_setting           orthorhombic
_symmetry_space_group_name_H-M   'P 21 21 2'
_symmetry_Int_Tables_number      18
_space_group_name_Hall           'P 2 2ab'
loop_
_symmetry_equiv_pos_site_id
_symmetry_equiv_pos_as_xyz
1 x,y,z
2 -x,-y,z
3 1/2+x,1/2-y,-z
4 1/2-x,1/2+y,-z
_cell_length_a                   8.2067(5)
_cell_length_b                   26.3185(13)
_cell_length_c                   6.6034(4)
_cell_angle_alpha                90
_cell_angle_beta                 90
_cell_angle_gamma                90
_cell_volume                     1426.26
loop_
_atom_site_label
_atom_site_type_symbol
_atom_site_fract_x
_atom_site_fract_y
_atom_site_fract_z
Co1 Co 0.60039(10) 0.62986(3) 0.89166(13)
K1 K 0.7507(2) 0.49122(6) 0.5868(3)
N1 N 0.5661(6) 0.6533(2) 0.6171(9)
H1 H 0.5484 0.6260 0.5351
N2 N 0.7869(6) 0.6755(2) 0.9060(10)
H2 H 0.7826 0.6939 1.0226
O1 O 0.4514(6) 0.6811(2) 0.9705(8)
O2 O 0.2644(8) 0.7341(2) 0.8482(9)
O3 O 0.7484(6) 0.58077(18) 0.7991(8)
O4 O 1.0085(8) 0.5669(3) 0.7324(12)
O5 O 0.6222(6) 0.60914(18) 1.1649(7)
O6 O 0.4989(7) 0.5601(2) 1.3900(9)
O7 O 0.4306(6) 0.58100(18) 0.8732(8)
O8 O 0.3057(7) 0.5244(2) 1.0680(11)
O9 O 1.0000 0.5000 0.2550(16)
C1 C 0.3733(9) 0.7022(3) 0.8264(13)
C2 C 0.4215(9) 0.6869(3) 0.6122(13)
H3 H 0.4518 0.7178 0.5388
C3 C 0.2808(11) 0.6630(4) 0.5022(14)
H4 H 0.3083 0.6588 0.3619
H5 H 0.1867 0.6845 0.5137
H6 H 0.2574 0.6304 0.5607
C4 C 0.7158(9) 0.6795(3) 0.5522(10)
H7 H 0.6928 0.7018 0.4385
H8 H 0.7975 0.6550 0.5107
C5 C 0.7766(11) 0.7100(3) 0.7296(12)
H9 H 0.8830 0.7241 0.6996
H10 H 0.7023 0.7377 0.7582
C6 C 0.9394(7) 0.6444(3) 0.9022(14)
H11 H 1.0220 0.6621 0.8215
C7 C 1.0045(11) 0.6363(4) 1.1157(16)
H12 H 1.0395 0.6682 1.1709
H13 H 1.0951 0.6132 1.1115
H14 H 0.9201 0.6222 1.1994
C8 C 0.9009(10) 0.5933(3) 0.8030(12)
C9 C 0.5171(9) 0.5757(3) 1.2185(11)
C10 C 0.4080(9) 0.5578(2) 1.0421(10)
H15 H 1.0777 0.5062 0.1705
H15A H 0.9223 0.4938 0.1705
Co1A Co 0.39961(10) 0.37014(3) 0.89166(13)
K1A K 0.2493(2) 0.50878(6) 0.5868(3)
N1A N 0.4339(6) 0.3467(2) 0.6171(9)
H1A H 0.4516 0.3740 0.5351
N2A N 0.2131(6) 0.3245(2) 0.9060(10)
H2A H 0.2174 0.3061 1.0226
O1A O 0.5486(6) 0.3189(2) 0.9705(8)
O2A O 0.7356(8) 0.2659(2) 0.8482(9)
O3A O 0.2516(6) 0.41923(18) 0.7991(8)
O4A O -0.0085(8) 0.4331(3) 0.7324(12)
O5A O 0.3778(6) 0.39086(18) 1.1649(7)
O6A O 0.5011(7) 0.4399(2) 1.3900(9)
O7A O 0.5694(6) 0.41900(18) 0.8732(8)
O8A O 0.6943(7) 0.4756(2) 1.0680(11)
C1A C 0.6267(9) 0.2978(3) 0.8264(13)
C2A C 0.5785(9) 0.3131(3) 0.6122(13)
H3A H 0.5482 0.2822 0.5388
C3A C 0.7192(11) 0.3370(4) 0.5022(14)
H4A H 0.6917 0.3412 0.3619
H5A H 0.8133 0.3155 0.5137
H6A H 0.7426 0.3696 0.5607
C4A C 0.2842(9) 0.3205(3) 0.5522(10)
H7A H 0.3072 0.2982 0.4385
H8A H 0.2025 0.3450 0.5107
C5A C 0.2234(11) 0.2900(3) 0.7296(12)
H9A H 0.1170 0.2759 0.6996
H10A H 0.2977 0.2623 0.7582
C6A C 0.0606(7) 0.3556(3) 0.9022(14)
H11A H -0.0220 0.3379 0.8215
C7A C -0.0045(11) 0.3637(4) 1.1157(16)
H12A H -0.0395 0.3318 1.1709
H13A H -0.0951 0.3868 1.1115
H14A H 0.0799 0.3778 1.1994
C8A C 0.0991(10) 0.4067(3) 0.8030(12)
C9A C 0.4829(9) 0.4243(3) 1.2185(11)
C10A C 0.5920(9) 0.4422(2) 1.0421(10)
K1_2 K -0.2493(2) 0.49122(6) 0.5868(3)
K1_3 K 0.7507(2) 0.49122(6) 1.5868(3)
K1A_2 K 0.2493(2) 0.50878(6) 1.5868(3)
K1A_3 K 1.2493(2) 0.50878(6) 0.5868(3)
O4_2 O 0.0085(8) 0.5669(3) 0.7324(12)
O4A_2 O 0.9915(8) 0.4331(3) 0.7324(12)
O6_2 O 0.4989(7) 0.5601(2) 0.3900(9)
O6A_2 O 0.5011(7) 0.4399(2) 0.3900(9)
O9_2 O 0.0000 0.5000 0.2550(16)
loop_
_geom_bond_atom_site_label_1
_geom_bond_atom_site_label_2
_geom_bond_site_symmetry_1
_geom_bond_site_symmetry_2
Co1 N1 1_555 1_555
K1 O3 1_555 1_555
N1 H1 1_555 1_555
N2 Co1 1_555 1_555
H2 N2 1_555 1_555
O1 Co1 1_555 1_555
O2 C1 1_555 1_555
O3 Co1 1_555 1_555
O4 K1 1_555 1_555
O5 Co1 1_555 1_555
O6 C9 1_555 1_555
O7 Co1 1_555 1_555
O8 C10 1_555 1_555
O9 K1 1_555 1_555
C1 O1 1_555 1_555
C2 N1 1_555 1_555
H3 C2 1_555 1_555
C3 C2 1_555 1_555
H4 C3 1_555 1_555
H5 C3 1_555 1_555
H6 C3 1_555 1_555
C4 N1 1_555 1_555
H7 C4 1_555 1_555
H8 C4 1_555 1_555
C5 N2 1_555 1_555
H9 C5 1_555 1_555
H10 C5 1_555 1_555
C6 N2 1_555 1_555
H11 C6 1_555 1_555
C7 C6 1_555 1_555
H12 C7 1_555 1_555
H13 C7 1_555 1_555
H14 C7 1_555 1_555
C8 O3 1_555 1_555
C9 O5 1_555 1_555
C10 O7 1_555 1_555
H15 O9 1_555 1_555
H15A O9 1_555 1_555
Co1A N1A 1_555 1_555
K1A O7 1_555 1_555
N1A H1A 1_555 1_555
N2A Co1A 1_555 1_555
H2A N2A 1_555 1_555
O1A Co1A 1_555 1_555
O2A C1A 1_555 1_555
O3A Co1A 1_555 1_555
O4A K1A 1_555 1_555
O5A Co1A 1_555 1_555
O6A C9A 1_555 1_555
O7A K1 1_555 1_555
O8A K1 1_555 1_555
C1A O1A 1_555 1_555
C2A N1A 1_555 1_555
H3A C2A 1_555 1_555
C3A C2A 1_555 1_555
H4A C3A 1_555 1_555
H5A C3A 1_555 1_555
H6A C3A 1_555 1_555
C4A N1A 1_555 1_555
H7A C4A 1_555 1_555
H8A C4A 1_555 1_555
C5A N2A 1_555 1_555
H9A C5A 1_555 1_555
H10A C5A 1_555 1_555
C6A N2A 1_555 1_555
H11A C6A 1_555 1_555
C7A C6A 1_555 1_555
H12A C7A 1_555 1_555
H13A C7A 1_555 1_555
H14A C7A 1_555 1_555
C8A O3A 1_555 1_555
C9A O5A 1_555 1_555
C10A O7A 1_555 1_555
K1_2 O4A 1_555 1_555
K1_3 O6 1_555 1_555
K1A_2 O6 1_555 1_555
K1A_3 O4 1_555 1_555
O4_2 K1A 1_555 1_555
O4A_2 K1 1_555 1_555
O6_2 K1 1_555 1_555
O6A_2 K1 1_555 1_555
O9_2 K1A 1_555 1_555
O4 C8 1_555 1_555
O8 K1A 1_555 1_555
O9 K1A_3 1_555 1_555
C1 C2 1_555 1_555
C4 C5 1_555 1_555
C6 C8 1_555 1_555
C9 C10 1_555 1_555
Co1A O7A 1_555 1_555
K1A O3A 1_555 1_555
K1A O6_2 1_555 1_555
K1A O6A_2 1_555 1_555
O4A C8A 1_555 1_555
O6A K1_3 1_555 1_555
O6A K1A_2 1_555 1_555
O8A C10A 1_555 1_555
C1A C2A 1_555 1_555
C4A C5A 1_555 1_555
C6A C8A 1_555 1_555
C9A C10A 1_555 1_555
K1_2 O4_2 1_555 1_555
K1_2 O9_2 1_555 1_555
K1A_3 O4A_2 1_555 1_555

#END
