
#######################################################################
#
#                 Cambridge Crystallographic Data Centre
#                                CCDC 
#
#######################################################################
#
# If this CIF has been generated from an entry in the Cambridge 
# Structural Database, then it will include bibliographic, chemical, 
# crystal, experimental, refinement or atomic coordinate data resulting 
# from the CCDC's data processing and validation procedures.
#
#######################################################################

data_PONHEG
_symmetry_cell_setting           monoclinic
_symmetry_space_group_name_H-M   'P 21'
_symmetry_Int_Tables_number      4
_space_group_name_Hall           'P 2yb'
loop_
_symmetry_equiv_pos_site_id
_symmetry_equiv_pos_as_xyz
1 x,y,z
2 -x,1/2+y,-z
_cell_length_a                   10.2348(9)
_cell_length_b                   9.1386(7)
_cell_length_c                   14.8521(14)
_cell_angle_alpha                90
_cell_angle_beta                 97.455(11)
_cell_angle_gamma                90
_cell_volume                     1377.4
loop_
_atom_site_label
_atom_site_type_symbol
_atom_site_fract_x
_atom_site_fract_y
_atom_site_fract_z
Hg1 Hg 0.63262(3) -0.06518(3) 0.34485(2)
Hg2 Hg 0.36264(3) -0.17967(3) 0.15129(2)
Cu1 Cu 0.49015(9) 0.37889(19) 0.25574(7)
Cl1 Cl 0.5232(2) 0.0177(3) 0.46577(14)
Cl2 Cl 0.8401(2) -0.1200(5) 0.30212(19)
Cl3 Cl 0.5216(2) 0.0630(3) 0.19286(15)
Cl4 Cl 0.4724(2) -0.3083(3) 0.30469(14)
Cl5 Cl 0.1538(2) -0.1343(5) 0.19449(17)
Cl6 Cl 0.4753(2) -0.2648(3) 0.03237(14)
O1 O 0.6579(4) 0.3659(8) 0.3345(3)
O2 O 0.8726(4) 0.4103(9) 0.3360(3)
O3 O 0.3197(4) 0.3864(8) 0.1776(3)
O4 O 0.1139(5) 0.3102(9) 0.1683(4)
N1 N 0.5969(5) 0.4461(10) 0.1606(4)
N2 N 1.0564(6) 0.5293(10) 0.0241(5)
N3 N 1.2445(6) 0.4385(11) -0.0242(5)
N4 N 1.1096(7) 0.5914(10) -0.1196(5)
N5 N 0.3812(5) 0.3121(10) 0.3485(4)
N6 N -0.0613(7) 0.2067(10) 0.4847(5)
N7 N -0.1149(7) 0.1372(10) 0.6241(5)
N8 N -0.2477(6) 0.2937(10) 0.5344(5)
C1 C 0.7601(6) 0.3975(9) 0.2954(4)
C2 C 0.7390(5) 0.4121(6) 0.1914(4)
C3 C 0.8343(7) 0.5174(11) 0.1561(5)
C4 C 0.8247(7) 0.5184(11) 0.0519(5)
C5 C 0.9305(8) 0.6079(11) 0.0160(6)
C6 C 1.1352(7) 0.5203(9) -0.0409(5)
C7 C 0.2281(6) 0.3186(9) 0.2098(5)
C8 C 0.2600(5) 0.2417(8) 0.3011(4)
C9 C 0.1432(8) 0.2325(14) 0.3537(6)
C10 C 0.1711(9) 0.1843(14) 0.4479(7)
C11 C 0.0560(10) 0.1121(14) 0.4893(8)
C12 C -0.1392(7) 0.2100(10) 0.5474(5)
H1 H 0.57020 0.40010 0.10780
H2 H 0.58640 0.54300 0.15170
H3 H 0.75630 0.31550 0.16680
H4 H 1.08160 0.48540 0.07460
H5 H 0.92340 0.49120 0.18140
H6 H 0.81700 0.61530 0.17690
H7 H 1.29790 0.43200 -0.06420
H8 H 1.26120 0.39250 0.02650
H9 H 0.83010 0.41840 0.03080
H10 H 0.73930 0.55670 0.02700
H11 H 1.04040 0.64540 -0.13000
H12 H 1.16230 0.58330 -0.16000
H13 H 0.90290 0.63130 -0.04730
H14 H 0.94220 0.69910 0.04940
H15 H 0.42660 0.24750 0.38620
H16 H 0.35930 0.38870 0.38160
H17 H 0.28400 0.14090 0.28790
H18 H -0.07920 0.26270 0.43820
H19 H 0.10230 0.32830 0.35310
H20 H 0.07920 0.16600 0.32200
H21 H -0.04500 0.08450 0.63460
H22 H -0.16900 0.14240 0.66380
H23 H 0.20080 0.26830 0.48490
H24 H 0.24350 0.11510 0.45220
H25 H -0.26470 0.34400 0.48530
H26 H -0.30020 0.29720 0.57510
H27 H 0.03210 0.02160 0.45720
H28 H 0.08510 0.08790 0.55230
Cu1_2 Cu 0.49015(9) -0.62111(19) 0.25574(7)
Cl4_2 Cl 0.4724(2) 0.6917(3) 0.30469(14)
loop_
_geom_bond_atom_site_label_1
_geom_bond_atom_site_label_2
_geom_bond_site_symmetry_1
_geom_bond_site_symmetry_2
Hg1 Cl1 1_555 1_555
Hg2 Cl3 1_555 1_555
Cu1 Cl3 1_555 1_555
Cl2 Hg1 1_555 1_555
Cl3 Hg1 1_555 1_555
Cl4 Hg1 1_555 1_555
Cl5 Hg2 1_555 1_555
Cl6 Hg2 1_555 1_555
O1 Cu1 1_555 1_555
O2 C1 1_555 1_555
O3 Cu1 1_555 1_555
O4 C7 1_555 1_555
N1 Cu1 1_555 1_555
N2 C5 1_555 1_555
N3 C6 1_555 1_555
N4 C6 1_555 1_555
N5 Cu1 1_555 1_555
N6 C11 1_555 1_555
N7 C12 1_555 1_555
N8 C12 1_555 1_555
C1 O1 1_555 1_555
C2 N1 1_555 1_555
C3 C2 1_555 1_555
C4 C3 1_555 1_555
C5 C4 1_555 1_555
C6 N2 1_555 1_555
C7 O3 1_555 1_555
C8 N5 1_555 1_555
C9 C8 1_555 1_555
C10 C9 1_555 1_555
C11 C10 1_555 1_555
C12 N6 1_555 1_555
H1 N1 1_555 1_555
H2 N1 1_555 1_555
H3 C2 1_555 1_555
H4 N2 1_555 1_555
H5 C3 1_555 1_555
H6 C3 1_555 1_555
H7 N3 1_555 1_555
H8 N3 1_555 1_555
H9 C4 1_555 1_555
H10 C4 1_555 1_555
H11 N4 1_555 1_555
H12 N4 1_555 1_555
H13 C5 1_555 1_555
H14 C5 1_555 1_555
H15 N5 1_555 1_555
H16 N5 1_555 1_555
H17 C8 1_555 1_555
H18 N6 1_555 1_555
H19 C9 1_555 1_555
H20 C9 1_555 1_555
H21 N7 1_555 1_555
H22 N7 1_555 1_555
H23 C10 1_555 1_555
H24 C10 1_555 1_555
H25 N8 1_555 1_555
H26 N8 1_555 1_555
H27 C11 1_555 1_555
H28 C11 1_555 1_555
Cu1_2 Cl4 1_555 1_555
Cl4_2 Cu1 1_555 1_555
Hg2 Cl4 1_555 1_555
C1 C2 1_555 1_555
C7 C8 1_555 1_555

#END
