
#######################################################################
#
#                 Cambridge Crystallographic Data Centre
#                                CCDC 
#
#######################################################################
#
# If this CIF has been generated from an entry in the Cambridge 
# Structural Database, then it will include bibliographic, chemical, 
# crystal, experimental, refinement or atomic coordinate data resulting 
# from the CCDC's data processing and validation procedures.
#
#######################################################################

data_PONMOU
_symmetry_cell_setting           orthorhombic
_symmetry_space_group_name_H-M   'F d d 2'
_symmetry_Int_Tables_number      43
_space_group_name_Hall           'F 2 -2d'
loop_
_symmetry_equiv_pos_site_id
_symmetry_equiv_pos_as_xyz
1 x,y,z
2 -x,-y,z
3 1/4-x,1/4+y,1/4+z
4 3/4+x,3/4-y,1/4+z
5 x,1/2+y,1/2+z
6 -x,1/2-y,1/2+z
7 1/4-x,3/4+y,3/4+z
8 3/4+x,1/4-y,3/4+z
9 1/2+x,y,1/2+z
10 1/2-x,-y,1/2+z
11 3/4-x,1/4+y,3/4+z
12 1/4+x,3/4-y,3/4+z
13 1/2+x,1/2+y,z
14 1/2-x,1/2-y,z
15 3/4-x,3/4+y,1/4+z
16 1/4+x,1/4-y,1/4+z
_cell_length_a                   10.754
_cell_length_b                   40.453
_cell_length_c                   17.218
_cell_angle_alpha                90
_cell_angle_beta                 90
_cell_angle_gamma                90
_cell_volume                     7490.37
loop_
_atom_site_label
_atom_site_type_symbol
_atom_site_fract_x
_atom_site_fract_y
_atom_site_fract_z
Au1 Au 0.59039(4) 0.032213(11) 0.18480
P1 P 0.7692(3) 0.02569(7) 0.25311(23)
N1 N 1.0000 0.0000 0.2354(7)
C1 C 0.9011(9) 0.01064(21) 0.1967(9)
C2 C 0.8955(10) 0.0107(3) 0.1161(6)
C3 C 1.0000 0.0000 0.0767(10)
C4 C 0.4332(10) 0.0454(3) 0.1326(7)
C5 C 0.3376(11) 0.0562(3) 0.1073(8)
C6 C 0.2247(11) 0.0728(3) 0.0844(7)
C7 C 0.1334(11) 0.0798(3) 0.1347(8)
C8 C 0.0232(11) 0.0953(3) 0.1141(8)
C9 C 0.0068(13) 0.1048(4) 0.0386(10)
C10 C 0.0968(14) 0.0991(4) -0.0123(7)
C11 C 0.2061(13) 0.0828(4) 0.0090(8)
C12 C 0.8259(10) 0.0648(3) 0.2900(7)
C13 C 0.7469(10) 0.0922(3) 0.2901(7)
C14 C 0.7870(12) 0.1229(3) 0.3162(7)
C15 C 0.9036(13) 0.1258(3) 0.3468(7)
C16 C 0.9808(12) 0.0989(3) 0.3501(8)
C17 C 0.9430(10) 0.0686(3) 0.3203(7)
C18 C 0.7632(10) -0.0033(3) 0.3347(7)
C19 C 0.8289(11) 0.0003(3) 0.4030(7)
C20 C 0.8264(11) -0.0241(4) 0.4585(7)
C21 C 0.7599(12) -0.0518(3) 0.4490(9)
C22 C 0.6955(15) -0.0559(3) 0.3840(9)
C23 C 0.6959(12) -0.0323(3) 0.3240(7)
H1 H 0.825 0.017 0.085
H2 H 1.000 0.000 0.017
H3 H 0.146 0.073 0.186
H4 H -0.043 0.100 0.149
H5 H -0.072 0.116 0.018
H6 H 0.079 0.105 -0.068
H7 H 0.263 0.078 -0.034
H8 H 0.661 0.090 0.267
H9 H 0.734 0.142 0.311
H10 H 0.936 0.147 0.364
H11 H 1.065 0.101 0.367
H12 H 1.002 0.050 0.319
H13 H 0.877 0.020 0.408
H14 H 0.874 -0.021 0.504
H15 H 0.761 -0.070 0.486
H16 H 0.650 -0.077 0.373
H17 H 0.643 -0.034 0.273
C1A C 1.0989(9) -0.01064(21) 0.1967(9)
P1A P 1.2308(3) -0.02569(7) 0.25311(23)
C12A C 1.1741(10) -0.0648(3) 0.2900(7)
C13A C 1.2531(10) -0.0922(3) 0.2901(7)
C14A C 1.2130(12) -0.1229(3) 0.3162(7)
C15A C 1.0964(13) -0.1258(3) 0.3468(7)
C16A C 1.0192(12) -0.0989(3) 0.3501(8)
C17A C 1.0570(10) -0.0686(3) 0.3203(7)
H12A H 0.998 -0.050 0.319
H11A H 0.935 -0.101 0.367
H10A H 1.064 -0.147 0.364
H9A H 1.266 -0.142 0.311
H8A H 1.339 -0.090 0.267
C18A C 1.2368(10) 0.0033(3) 0.3347(7)
C19A C 1.1711(11) -0.0003(3) 0.4030(7)
C20A C 1.1736(11) 0.0241(4) 0.4585(7)
C21A C 1.2401(12) 0.0518(3) 0.4490(9)
C22A C 1.3045(15) 0.0559(3) 0.3840(9)
C23A C 1.3041(12) 0.0323(3) 0.3240(7)
H17A H 1.357 0.034 0.273
H16A H 1.350 0.077 0.373
H15A H 1.239 0.070 0.486
H14A H 1.126 0.021 0.504
H13A H 1.123 -0.020 0.408
C2A C 1.1045(10) -0.0107(3) 0.1161(6)
H1A H 1.175 -0.017 0.085
Au1A Au 1.40961(4) -0.032213(11) 0.18480
C4A C 1.5668(10) -0.0454(3) 0.1326(7)
C5A C 1.6624(11) -0.0562(3) 0.1073(8)
C6A C 1.7753(11) -0.0728(3) 0.0844(7)
C7A C 1.8666(11) -0.0798(3) 0.1347(8)
C8A C 1.9768(11) -0.0953(3) 0.1141(8)
C9A C 1.9932(13) -0.1048(4) 0.0386(10)
C10A C 1.9032(14) -0.0991(4) -0.0123(7)
C11A C 1.7939(13) -0.0828(4) 0.0090(8)
H3A H 1.854 -0.073 0.186
H4A H 2.043 -0.100 0.149
H5A H 2.072 -0.116 0.018
H6A H 1.921 -0.105 -0.068
H7A H 1.737 -0.078 -0.034
Au1A_2 Au 0.40961(4) -0.032213(11) 0.18480
Au1_2 Au 1.59039(4) 0.032213(11) 0.18480
loop_
_geom_bond_atom_site_label_1
_geom_bond_atom_site_label_2
_geom_bond_site_symmetry_1
_geom_bond_site_symmetry_2
Au1 P1 1_555 1_555
P1 C1 1_555 1_555
N1 C1 1_555 1_555
C1 C2 1_555 1_555
C2 C3 1_555 1_555
C3 H2 1_555 1_555
C4 Au1 1_555 1_555
C5 C4 1_555 1_555
C6 C5 1_555 1_555
C7 C6 1_555 1_555
C8 C7 1_555 1_555
C9 C8 1_555 1_555
C10 C9 1_555 1_555
C11 C6 1_555 1_555
C12 P1 1_555 1_555
C13 C12 1_555 1_555
C14 C13 1_555 1_555
C15 C14 1_555 1_555
C16 C15 1_555 1_555
C17 C12 1_555 1_555
C18 P1 1_555 1_555
C19 C18 1_555 1_555
C20 C19 1_555 1_555
C21 C20 1_555 1_555
C22 C21 1_555 1_555
C23 C18 1_555 1_555
H1 C2 1_555 1_555
H3 C7 1_555 1_555
H4 C8 1_555 1_555
H5 C9 1_555 1_555
H6 C10 1_555 1_555
H7 C11 1_555 1_555
H8 C13 1_555 1_555
H9 C14 1_555 1_555
H10 C15 1_555 1_555
H11 C16 1_555 1_555
H12 C17 1_555 1_555
H13 C19 1_555 1_555
H14 C20 1_555 1_555
H15 C21 1_555 1_555
H16 C22 1_555 1_555
H17 C23 1_555 1_555
C1A N1 1_555 1_555
P1A C1A 1_555 1_555
C12A P1A 1_555 1_555
C13A C12A 1_555 1_555
C14A C13A 1_555 1_555
C15A C14A 1_555 1_555
C16A C15A 1_555 1_555
C17A C12A 1_555 1_555
H12A C17A 1_555 1_555
H11A C16A 1_555 1_555
H10A C15A 1_555 1_555
H9A C14A 1_555 1_555
H8A C13A 1_555 1_555
C18A P1A 1_555 1_555
C19A C18A 1_555 1_555
C20A C19A 1_555 1_555
C21A C20A 1_555 1_555
C22A C21A 1_555 1_555
C23A C18A 1_555 1_555
H17A C23A 1_555 1_555
H16A C22A 1_555 1_555
H15A C21A 1_555 1_555
H14A C20A 1_555 1_555
H13A C19A 1_555 1_555
C2A C3 1_555 1_555
H1A C2A 1_555 1_555
Au1A P1A 1_555 1_555
C4A Au1A 1_555 1_555
C5A C4A 1_555 1_555
C6A C5A 1_555 1_555
C7A C6A 1_555 1_555
C8A C7A 1_555 1_555
C9A C8A 1_555 1_555
C10A C9A 1_555 1_555
C11A C6A 1_555 1_555
H3A C7A 1_555 1_555
H4A C8A 1_555 1_555
H5A C9A 1_555 1_555
H6A C10A 1_555 1_555
H7A C11A 1_555 1_555
Au1A_2 Au1 1_555 1_555
Au1_2 Au1A 1_555 1_555
C10 C11 1_555 1_555
C16 C17 1_555 1_555
C22 C23 1_555 1_555
C1A C2A 1_555 1_555
C16A C17A 1_555 1_555
C22A C23A 1_555 1_555
C10A C11A 1_555 1_555

#END
