
#######################################################################
#
#                 Cambridge Crystallographic Data Centre
#                                CCDC 
#
#######################################################################
#
# If this CIF has been generated from an entry in the Cambridge 
# Structural Database, then it will include bibliographic, chemical, 
# crystal, experimental, refinement or atomic coordinate data resulting 
# from the CCDC's data processing and validation procedures.
#
#######################################################################

data_PONRUH
_symmetry_cell_setting           monoclinic
_symmetry_space_group_name_H-M   'P 21'
_symmetry_Int_Tables_number      4
_space_group_name_Hall           'P 2yb'
loop_
_symmetry_equiv_pos_site_id
_symmetry_equiv_pos_as_xyz
1 x,y,z
2 -x,1/2+y,-z
_cell_length_a                   5.36167(8)
_cell_length_b                   9.01474(14)
_cell_length_c                   9.78623(17)
_cell_angle_alpha                90
_cell_angle_beta                 102.8138(16)
_cell_angle_gamma                90
_cell_volume                     461.228
loop_
_atom_site_label
_atom_site_type_symbol
_atom_site_fract_x
_atom_site_fract_y
_atom_site_fract_z
K1 K 0.00261(5) 0.45609(3) -0.05055(3)
C1 C 0.2210(2) 0.19926(14) 0.68818(13)
H1 H 0.1956 0.0932 0.6679
C2 C 0.3088(2) 0.27375(14) 0.56579(14)
H2 H 0.4902 0.2528 0.5714
C3 C 0.1458(2) 0.21199(15) 0.42818(13)
H3 H -0.0341 0.2168 0.4341
C4 C 0.1759(2) 0.30205(16) 0.30071(14)
H4 H 0.1205 0.4036 0.3142
C5 C 0.4444(2) 0.31169(16) 0.27422(14)
H5 H 0.4418 0.3791 0.1967
H6 H 0.5569 0.3539 0.3564
O1 O -0.01482(18) 0.26253(12) 0.69708(11)
O2 O 0.26721(19) 0.42953(10) 0.56585(11)
O3 O 0.2107(2) 0.05973(11) 0.41598(12)
O4 O 0.01062(18) 0.24575(13) 0.17548(10)
O5 O 0.54900(19) 0.17312(11) 0.24301(11)
S1 S 0.44130(5) 0.22060(3) 0.85556(3)
O6 O 0.48670(19) 0.37852(11) 0.87973(11)
O7 O 0.67445(18) 0.13911(12) 0.84780(11)
O8 O 0.30566(18) 0.15410(12) 0.95421(11)
H7 H -0.095(4) 0.211(3) 0.743(2)
H8 H 0.388(4) 0.464(3) 0.611(2)
H9 H 0.087(4) 0.010(3) 0.410(2)
H10 H -0.122(5) 0.221(3) 0.199(3)
H11 H 0.460(4) 0.149(2) 0.159(2)
K1_2 K 0.00261(5) 0.45609(3) 0.94945(3)
K1_3 K 1.00261(5) 0.45609(3) 0.94945(3)
K1A K -0.00261(5) -0.04391(3) 0.05055(3)
K1A_2 K -0.00261(5) -0.04391(3) 1.05055(3)
K1A_3 K 0.99739(5) -0.04391(3) 1.05055(3)
O1_2 O -0.01482(18) 0.26253(12) -0.30292(11)
O4A O -0.01062(18) 0.74575(13) -0.17548(10)
O6_2 O -0.51330(19) 0.37852(11) -0.12027(11)
O6_3 O 0.48670(19) 0.37852(11) -0.12027(11)
O7_2 O -0.32555(18) 0.13911(12) -0.15220(11)
O7A O 0.32555(18) 0.63911(12) 0.15220(11)
O8_2 O 0.30566(18) 0.15410(12) -0.04579(11)
O8A O -0.30566(18) 0.65410(12) 0.04579(11)
loop_
_geom_bond_atom_site_label_1
_geom_bond_atom_site_label_2
_geom_bond_site_symmetry_1
_geom_bond_site_symmetry_2
K1 O4 1_555 1_555
C1 H1 1_555 1_555
C2 C1 1_555 1_555
H2 C2 1_555 1_555
C3 C2 1_555 1_555
H3 C3 1_555 1_555
C4 C3 1_555 1_555
H4 C4 1_555 1_555
C5 C4 1_555 1_555
H5 C5 1_555 1_555
H6 C5 1_555 1_555
O1 C1 1_555 1_555
O2 C2 1_555 1_555
O3 C3 1_555 1_555
O4 C4 1_555 1_555
O5 C5 1_555 1_555
S1 C1 1_555 1_555
O6 S1 1_555 1_555
O7 S1 1_555 1_555
O8 S1 1_555 1_555
H7 O1 1_555 1_555
H8 O2 1_555 1_555
H9 O3 1_555 1_555
H10 O4 1_555 1_555
H11 O5 1_555 1_555
K1_2 O1 1_555 1_555
K1_3 O6 1_555 1_555
K1A O4 1_555 1_555
K1A_2 O8 1_555 1_555
K1A_3 O7 1_555 1_555
O1_2 K1 1_555 1_555
O4A K1 1_555 1_555
O6_2 K1 1_555 1_555
O6_3 K1 1_555 1_555
O7_2 K1 1_555 1_555
O7A K1 1_555 1_555
O8_2 K1 1_555 1_555
O8A K1 1_555 1_555
O6 K1_2 1_555 1_555
O7 K1_3 1_555 1_555
O8 K1_2 1_555 1_555
K1A O7_2 1_555 1_555
K1A O8_2 1_555 1_555

#END
