
#######################################################################
#
#                 Cambridge Crystallographic Data Centre
#                                CCDC 
#
#######################################################################
#
# If this CIF has been generated from an entry in the Cambridge 
# Structural Database, then it will include bibliographic, chemical, 
# crystal, experimental, refinement or atomic coordinate data resulting 
# from the CCDC's data processing and validation procedures.
#
#######################################################################

data_PONSEQ
_symmetry_cell_setting           monoclinic
_symmetry_space_group_name_H-M   'P 21/c'
_symmetry_Int_Tables_number      14
_space_group_name_Hall           '-P 2ybc'
loop_
_symmetry_equiv_pos_site_id
_symmetry_equiv_pos_as_xyz
1 x,y,z
2 -x,1/2+y,1/2-z
3 -x,-y,-z
4 x,1/2-y,1/2+z
_cell_length_a                   10.573(4)
_cell_length_b                   14.838(5)
_cell_length_c                   8.236(3)
_cell_angle_alpha                90
_cell_angle_beta                 92.34(3)
_cell_angle_gamma                90
_cell_volume                     1291
loop_
_atom_site_label
_atom_site_type_symbol
_atom_site_fract_x
_atom_site_fract_y
_atom_site_fract_z
La1 La 0.23312(5) 0.27842(4) 0.73542(7)
Cl1 Cl 0.1662(3) 0.1286(2) 0.9354(3)
Cl2 Cl 0.4298(2) 0.2529(2) 0.9989(3)
Cl3 Cl 0.1483(3) 0.3652(2) 1.0245(3)
O1 O -0.0092(7) 0.3064(5) 0.712(1)
C1 C -0.104(1) 0.2498(8) 0.781(2)
C2 C -0.219(1) 0.305(1) 0.789(3)
C3 C -0.181(1) 0.397(1) 0.777(3)
C4 C -0.060(1) 0.3978(8) 0.695(2)
O2 O 0.3506(7) 0.4283(5) 0.752(1)
C5 C 0.290(1) 0.5170(8) 0.755(2)
C6 C 0.384(1) 0.5839(9) 0.743(3)
C7 C 0.512(1) 0.5388(8) 0.756(2)
C8 C 0.486(1) 0.4405(8) 0.746(2)
H1 H -0.0667 0.2293 0.8881
H2 H -0.1186 0.1972 0.7152
H3 H -0.2633 0.2943 0.8878
H4 H -0.2789 0.2910 0.6998
H5 H -0.1682 0.4216 0.8868
H6 H -0.242 0.4327 0.7221
H7 H -0.0024 0.4420 0.7418
H8 H -0.0742 0.4136 0.5819
H9 H 0.2447 0.5250 0.8512
H10 H 0.2295 0.5223 0.6631
H11 H 0.3767 0.6279 0.8271
H12 H 0.3759 0.6148 0.6402
H13 H 0.5563 0.5540 0.8604
H14 H 0.5676 0.5585 0.6733
H15 H 0.5285 0.4084 0.8347
H16 H 0.5163 0.4163 0.6469
La1C La 0.23312(5) 0.22158(4) 1.23542(7)
Cl1C Cl 0.1662(3) 0.3714(2) 0.4354(3)
Cl2C Cl 0.4298(2) 0.2471(2) 0.4989(3)
Cl3C Cl 0.1483(3) 0.1348(2) 0.5245(3)
loop_
_geom_bond_atom_site_label_1
_geom_bond_atom_site_label_2
_geom_bond_site_symmetry_1
_geom_bond_site_symmetry_2
La1 Cl1 1_555 1_555
Cl1 La1C 1_555 1_555
Cl2 La1 1_555 1_555
Cl3 La1 1_555 1_555
O1 La1 1_555 1_555
C1 O1 1_555 1_555
C2 C1 1_555 1_555
C3 C2 1_555 1_555
C4 O1 1_555 1_555
O2 La1 1_555 1_555
C5 O2 1_555 1_555
C6 C5 1_555 1_555
C7 C6 1_555 1_555
C8 O2 1_555 1_555
H1 C1 1_555 1_555
H2 C1 1_555 1_555
H3 C2 1_555 1_555
H4 C2 1_555 1_555
H5 C3 1_555 1_555
H6 C3 1_555 1_555
H7 C4 1_555 1_555
H8 C4 1_555 1_555
H9 C5 1_555 1_555
H10 C5 1_555 1_555
H11 C6 1_555 1_555
H12 C6 1_555 1_555
H13 C7 1_555 1_555
H14 C7 1_555 1_555
H15 C8 1_555 1_555
H16 C8 1_555 1_555
La1C Cl2 1_555 1_555
Cl1C La1 1_555 1_555
Cl2C La1 1_555 1_555
Cl3C La1 1_555 1_555
Cl3 La1C 1_555 1_555
C3 C4 1_555 1_555
C7 C8 1_555 1_555

#END
