
#######################################################################
#
#                 Cambridge Crystallographic Data Centre
#                                CCDC 
#
#######################################################################
#
# If this CIF has been generated from an entry in the Cambridge 
# Structural Database, then it will include bibliographic, chemical, 
# crystal, experimental, refinement or atomic coordinate data resulting 
# from the CCDC's data processing and validation procedures.
#
#######################################################################

data_PONSOC
_symmetry_cell_setting           monoclinic
_symmetry_space_group_name_H-M   'C 2/c'
_symmetry_Int_Tables_number      15
_space_group_name_Hall           '-C 2yn'
loop_
_symmetry_equiv_pos_site_id
_symmetry_equiv_pos_as_xyz
1 x,y,z
2 -x,y,1/2-z
3 1/2+x,1/2+y,z
4 1/2-x,1/2+y,1/2-z
5 -x,-y,-z
6 x,-y,1/2+z
7 1/2-x,1/2-y,-z
8 1/2+x,1/2-y,1/2+z
_cell_length_a                   26.6396(13)
_cell_length_b                   12.9853(6)
_cell_length_c                   23.2326(11)
_cell_angle_alpha                90
_cell_angle_beta                 108.6960(10)
_cell_angle_gamma                90
_cell_volume                     7612.62
loop_
_atom_site_label
_atom_site_type_symbol
_atom_site_fract_x
_atom_site_fract_y
_atom_site_fract_z
C1 C 0.15804(14) -0.1097(3) 0.08907(18)
C2 C 0.18395(13) -0.1986(3) 0.06874(16)
C3 C 0.23710(14) -0.2152(3) 0.09876(16)
H1 H 0.2562 -0.1694 0.1300
C4 C 0.26243(14) -0.2981(3) 0.08354(16)
H2 H 0.2991 -0.3081 0.1042
C5 C 0.23562(13) -0.3677(3) 0.03863(15)
C6 C 0.18188(14) -0.3499(3) 0.00811(17)
H3 H 0.1627 -0.3962 -0.0228
C7 C 0.15633(13) -0.2654(3) 0.02249(17)
H4 H 0.1200 -0.2531 0.0008
C8 C 0.26298(13) -0.4577(2) 0.02238(15)
C9 C 0.31506(13) -0.4836(3) 0.05586(15)
H5 H 0.3344 -0.4435 0.0900
C10 C 0.33808(12) -0.5687(3) 0.03856(15)
C11 C 0.30880(12) -0.6252(3) -0.01208(15)
H6 H 0.3238 -0.6835 -0.0251
C12 C 0.25691(12) -0.5943(2) -0.04327(15)
C13 C 0.22326(12) -0.6493(3) -0.09783(15)
C14 C 0.23137(13) -0.7519(3) -0.10911(16)
H7 H 0.2599 -0.7886 -0.0815
C15 C 0.19837(13) -0.8015(3) -0.16011(15)
H8 H 0.2048 -0.8714 -0.1676
C16 C 0.15599(12) -0.7494(3) -0.20014(15)
C17 C 0.14738(13) -0.6464(3) -0.18881(15)
H9 H 0.1182 -0.6102 -0.2157
C18 C 0.18100(13) -0.5974(3) -0.13884(16)
H10 H 0.1753 -0.5268 -0.1321
C19 C 0.11957(13) -0.8022(3) -0.25523(16)
C20 C 0.39234(13) -0.6008(3) 0.07505(15)
C21 C 0.43358(14) -0.5290(3) 0.09350(18)
H11 H 0.4277 -0.4592 0.0809
C22 C 0.48295(14) -0.5609(3) 0.13019(18)
H12 H 0.5113 -0.5130 0.1425
C23 C 0.45268(14) -0.7284(3) 0.13116(16)
H13 H 0.4598 -0.7974 0.1450
C24 C 0.40293(13) -0.7023(3) 0.09369(15)
H14 H 0.3761 -0.7532 0.0807
C25 C 0.60244(15) 0.3586(3) 0.60941(17)
C26 C 0.57244(14) 0.2860(3) 0.56016(16)
C27 C 0.59484(14) 0.1928(3) 0.55209(16)
H15 H 0.6298 0.1761 0.5769
C28 C 0.56647(13) 0.1237(3) 0.50800(16)
H16 H 0.5823 0.0604 0.5027
C29 C 0.51525(13) 0.1466(3) 0.47165(15)
C30 C 0.49341(14) 0.2411(3) 0.47997(16)
H17 H 0.4584 0.2580 0.4553
C31 C 0.52148(14) 0.3096(3) 0.52296(16)
H18 H 0.5060 0.3738 0.5274
C32 C 0.48572(13) 0.0733(3) 0.42392(15)
C33 C 0.43125(13) 0.0773(3) 0.39712(15)
H19 H 0.4112 0.1278 0.4096
C34 C 0.40595(13) 0.0070(3) 0.35177(15)
C35 C 0.43732(13) -0.0673(3) 0.33699(15)
H20 H 0.4216 -0.1176 0.3069
C36 C 0.49143(13) -0.0679(3) 0.36618(15)
C37 C 0.52608(13) -0.1435(3) 0.34994(15)
C38 C 0.57489(14) -0.1129(3) 0.34588(17)
H21 H 0.5876 -0.0453 0.3578
C39 C 0.60491(14) -0.1801(4) 0.32468(17)
H22 H 0.6380 -0.1580 0.3216
C40 C 0.58758(16) -0.2789(3) 0.30785(16)
C41 C 0.54046(17) -0.3112(3) 0.31473(17)
H23 H 0.5291 -0.3803 0.3052
C42 C 0.50987(15) -0.2447(3) 0.33512(16)
H24 H 0.4773 -0.2679 0.3392
C43 C 0.6166(2) -0.3465(5) 0.27726(19)
C44 C 0.34825(13) 0.0117(3) 0.32027(15)
C45 C 0.31961(13) -0.0753(3) 0.29198(16)
H25 H 0.3368 -0.1400 0.2943
C46 C 0.26630(13) -0.0657(3) 0.26079(17)
H26 H 0.2475 -0.1252 0.2418
C47 C 0.26692(14) 0.1056(3) 0.28296(17)
H27 H 0.2486 0.1691 0.2799
C48 C 0.32012(13) 0.1033(3) 0.31498(16)
H28 H 0.3377 0.1643 0.3335
N1 N 0.23494(10) -0.5126(2) -0.02606(12)
N2 N 0.49093(11) -0.6582(3) 0.14826(14)
H29 H 0.5220(11) -0.683(4) 0.1709(19)
N3 N 0.51581(11) 0.0015(2) 0.40859(13)
N4 N 0.23962(11) 0.0226(2) 0.25578(13)
O1 O 0.10826(10) -0.0956(2) 0.05641(13)
H30 H 0.093(2) -0.042(3) 0.067(3)
O2 O 0.18203(10) -0.0563(2) 0.13208(12)
O3 O 0.07424(10) -0.7629(2) -0.27753(14)
O4 O 0.13619(11) -0.8777(2) -0.27658(12)
O5 O 0.58121(10) 0.44425(19) 0.61444(13)
O6 O 0.64591(12) 0.3330(2) 0.64400(13)
O7 O 0.5949(2) -0.4275(3) 0.2519(2)
O8 O 0.65938(15) -0.3180(4) 0.27336(17)
Mn1 Mn 0.15272(2) 0.03181(4) 0.20581(2)
O4E O 0.13619(11) -0.1223(2) 0.22342(12)
O5G O 0.08121(10) 0.05575(19) 0.11444(13)
O6G O 0.14591(12) 0.1670(2) 0.14400(13)
O7B O 0.0949(2) 0.0725(3) 0.2519(2)
O8B O 0.15938(15) 0.1820(4) 0.27336(17)
Mn1B Mn 0.65272(2) -0.46819(4) 0.20581(2)
Mn1E Mn 0.15272(2) -1.03181(4) -0.29419(2)
Mn1G Mn 0.65272(2) 0.46819(4) 0.70581(2)
O9 O 0.0000 -0.6159(6) -0.2500
H31 H 0.0212 -0.6573 -0.2578
H31A H -0.0212 -0.6573 -0.2422
loop_
_geom_bond_atom_site_label_1
_geom_bond_atom_site_label_2
_geom_bond_site_symmetry_1
_geom_bond_site_symmetry_2
C1 C2 1_555 1_555
C2 C3 1_555 1_555
C3 H1 1_555 1_555
C4 C3 1_555 1_555
H2 C4 1_555 1_555
C5 C4 1_555 1_555
C6 C5 1_555 1_555
H3 C6 1_555 1_555
C7 C2 1_555 1_555
H4 C7 1_555 1_555
C8 C5 1_555 1_555
C9 C8 1_555 1_555
H5 C9 1_555 1_555
C10 C9 1_555 1_555
C11 C10 1_555 1_555
H6 C11 1_555 1_555
C12 C11 1_555 1_555
C13 C12 1_555 1_555
C14 C13 1_555 1_555
H7 C14 1_555 1_555
C15 C14 1_555 1_555
H8 C15 1_555 1_555
C16 C15 1_555 1_555
C17 C16 1_555 1_555
H9 C17 1_555 1_555
C18 C13 1_555 1_555
H10 C18 1_555 1_555
C19 C16 1_555 1_555
C20 C10 1_555 1_555
C21 C20 1_555 1_555
H11 C21 1_555 1_555
C22 C21 1_555 1_555
H12 C22 1_555 1_555
C23 H13 1_555 1_555
C24 C20 1_555 1_555
H14 C24 1_555 1_555
C25 C26 1_555 1_555
C26 C27 1_555 1_555
C27 H15 1_555 1_555
C28 C27 1_555 1_555
H16 C28 1_555 1_555
C29 C28 1_555 1_555
C30 C29 1_555 1_555
H17 C30 1_555 1_555
C31 C26 1_555 1_555
H18 C31 1_555 1_555
C32 C29 1_555 1_555
C33 C32 1_555 1_555
H19 C33 1_555 1_555
C34 C33 1_555 1_555
C35 C34 1_555 1_555
H20 C35 1_555 1_555
C36 C35 1_555 1_555
C37 C36 1_555 1_555
C38 C37 1_555 1_555
H21 C38 1_555 1_555
C39 C38 1_555 1_555
H22 C39 1_555 1_555
C40 C39 1_555 1_555
C41 C40 1_555 1_555
H23 C41 1_555 1_555
C42 C37 1_555 1_555
H24 C42 1_555 1_555
C43 C40 1_555 1_555
C44 C34 1_555 1_555
C45 C44 1_555 1_555
H25 C45 1_555 1_555
C46 C45 1_555 1_555
H26 C46 1_555 1_555
C47 H27 1_555 1_555
C48 C44 1_555 1_555
H28 C48 1_555 1_555
N1 C8 1_555 1_555
N2 C22 1_555 1_555
H29 N2 1_555 1_555
N3 C32 1_555 1_555
N4 C46 1_555 1_555
O1 C1 1_555 1_555
H30 O1 1_555 1_555
O2 C1 1_555 1_555
O3 C19 1_555 1_555
O4 C19 1_555 1_555
O5 C25 1_555 1_555
O6 C25 1_555 1_555
O7 C43 1_555 1_555
O8 C43 1_555 1_555
Mn1 N4 1_555 1_555
O9 H31 1_555 1_555
O4E Mn1 1_555 1_555
O5G Mn1 1_555 1_555
O6G Mn1 1_555 1_555
O7B Mn1 1_555 1_555
O8B Mn1 1_555 1_555
Mn1B O7 1_555 1_555
Mn1E O4 1_555 1_555
Mn1G O5 1_555 1_555
H31A O9 1_555 1_555
C6 C7 1_555 1_555
C12 N1 1_555 1_555
C17 C18 1_555 1_555
C23 C24 1_555 1_555
C23 N2 1_555 1_555
C30 C31 1_555 1_555
C36 N3 1_555 1_555
C41 C42 1_555 1_555
C47 C48 1_555 1_555
C47 N4 1_555 1_555
O2 Mn1 1_555 1_555
O6 Mn1G 1_555 1_555
O8 Mn1B 1_555 1_555

#END
