
#######################################################################
#
#                 Cambridge Crystallographic Data Centre
#                                CCDC 
#
#######################################################################
#
# If this CIF has been generated from an entry in the Cambridge 
# Structural Database, then it will include bibliographic, chemical, 
# crystal, experimental, refinement or atomic coordinate data resulting 
# from the CCDC's data processing and validation procedures.
#
#######################################################################

data_PONTUJ
_symmetry_cell_setting           monoclinic
_symmetry_space_group_name_H-M   'P 21/c'
_symmetry_Int_Tables_number      14
_space_group_name_Hall           '-P 2ybc'
loop_
_symmetry_equiv_pos_site_id
_symmetry_equiv_pos_as_xyz
1 x,y,z
2 -x,1/2+y,1/2-z
3 -x,-y,-z
4 x,1/2-y,1/2+z
_cell_length_a                   13.7529(6)
_cell_length_b                   10.8437(5)
_cell_length_c                   19.5795(9)
_cell_angle_alpha                90
_cell_angle_beta                 99.826(1)
_cell_angle_gamma                90
_cell_volume                     2877.1
loop_
_atom_site_label
_atom_site_type_symbol
_atom_site_fract_x
_atom_site_fract_y
_atom_site_fract_z
Ag1 Ag 0.30869(3) 0.63691(3) 0.192614(19)
Ag2 Ag 0.17632(3) 0.43820(3) 0.24204(2)
N1 N 0.3183(3) 0.4818(4) 0.1251(2)
N2 N 0.7006(3) 0.2705(3) 0.2265(2)
N3 N 0.4684(3) 0.2087(4) 0.1066(2)
H1 H 0.4727 0.1538 0.0742
C1 C 0.3913(3) 0.3969(4) 0.1368(2)
H2 H 0.4428 0.4078 0.1753
C2 C 0.3940(3) 0.2938(4) 0.0943(2)
C3 C 0.3168(3) 0.2794(5) 0.0383(2)
H3 H 0.3152 0.2103 0.0083
C4 C 0.2434(4) 0.3662(5) 0.0272(3)
H4 H 0.1904 0.3569 -0.0104
C5 C 0.2462(4) 0.4662(5) 0.0701(2)
H5 H 0.1956 0.5265 0.0607
C6 C 0.5398(4) 0.2033(5) 0.1695(3)
H6 H 0.5618 0.1167 0.1774
H7 H 0.5071 0.2279 0.2087
C7 C 0.6299(4) 0.2836(4) 0.1702(3)
C8 C 0.6403(4) 0.3658(5) 0.1181(3)
H8 H 0.5897 0.3735 0.0787
C9 C 0.7247(4) 0.4367(5) 0.1237(3)
H9 H 0.7330 0.4928 0.0879
C10 C 0.7964(4) 0.4258(5) 0.1812(3)
H10 H 0.8543 0.4751 0.1868
C11 C 0.7815(4) 0.3405(5) 0.2307(3)
H11 H 0.8318 0.3310 0.2701
N4 N -0.1913(3) 0.0415(3) 0.1616(2)
N5 N 0.1834(3) 0.2634(4) 0.1887(2)
N6 N -0.0542(3) 0.2536(4) 0.0675(2)
H12 H -0.0559 0.2757 0.0241
C12 C -0.1212(3) 0.1180(4) 0.1464(2)
H13 H -0.0651 0.1334 0.1810
C13 C -0.1267(3) 0.1755(4) 0.0824(2)
C14 C -0.2106(4) 0.1521(4) 0.0325(2)
H14 H -0.2181 0.1902 -0.0118
C15 C -0.2815(4) 0.0739(5) 0.0483(3)
H15 H -0.3385 0.0570 0.0148
C16 C -0.2702(4) 0.0194(4) 0.1130(3)
H16 H -0.3197 -0.0352 0.1233
C17 C 0.0244(3) 0.3012(5) 0.1190(3)
H17 H -0.0031 0.3203 0.1614
H18 H 0.0475 0.3798 0.1016
C18 C 0.1121(4) 0.2185(4) 0.1389(2)
C19 C 0.1216(4) 0.1044(5) 0.1089(3)
H19 H 0.0706 0.0738 0.0742
C20 C 0.2063(4) 0.0352(5) 0.1301(3)
H20 H 0.2139 -0.0430 0.1098
C21 C 0.2788(4) 0.0807(5) 0.1806(3)
H21 H 0.3372 0.0348 0.1961
C22 C 0.2647(4) 0.1953(5) 0.2082(3)
H22 H 0.3152 0.2273 0.2428
S1 S 0.03658(9) 0.65963(11) 0.12069(6)
O1 O 0.1266(3) 0.7218(3) 0.1137(2)
O2 O 0.0406(3) 0.5931(3) 0.18476(18)
O3 O -0.0106(3) 0.5974(3) 0.05959(18)
C23 C -0.0469(4) 0.7861(5) 0.1303(3)
F1 F -0.0609(3) 0.8570(3) 0.07437(17)
F2 F -0.1350(2) 0.7440(3) 0.13945(17)
F3 F -0.0113(2) 0.8558(3) 0.18486(16)
S2 S 0.47697(9) 0.84803(12) 0.12529(6)
O4 O 0.3758(3) 0.8093(3) 0.1188(2)
O5 O 0.5228(3) 0.8873(3) 0.19320(19)
O6 O 0.4983(3) 0.9245(4) 0.07004(19)
C24 C 0.5413(4) 0.7040(5) 0.1142(3)
F4 F 0.5337(2) 0.6255(3) 0.16634(16)
F5 F 0.6375(2) 0.7235(3) 0.11623(17)
F6 F 0.5059(3) 0.6481(3) 0.05552(17)
Ag1A Ag 0.69131(3) 0.13691(3) 0.307386(19)
Ag2A Ag -0.17632(3) -0.06180(3) 0.25796(2)
N2A N 0.2994(3) 0.7705(3) 0.2735(2)
N4A N 0.1913(3) 0.5415(3) 0.3384(2)
loop_
_geom_bond_atom_site_label_1
_geom_bond_atom_site_label_2
_geom_bond_site_symmetry_1
_geom_bond_site_symmetry_2
Ag1 Ag2 1_555 1_555
Ag2 N5 1_555 1_555
N1 Ag1 1_555 1_555
N2 C7 1_555 1_555
N3 H1 1_555 1_555
C1 N1 1_555 1_555
H2 C1 1_555 1_555
C2 N3 1_555 1_555
C3 C2 1_555 1_555
H3 C3 1_555 1_555
C4 C3 1_555 1_555
H4 C4 1_555 1_555
C5 N1 1_555 1_555
H5 C5 1_555 1_555
C6 N3 1_555 1_555
H6 C6 1_555 1_555
H7 C6 1_555 1_555
C7 C6 1_555 1_555
C8 C7 1_555 1_555
H8 C8 1_555 1_555
C9 C8 1_555 1_555
H9 C9 1_555 1_555
C10 C9 1_555 1_555
H10 C10 1_555 1_555
C11 N2 1_555 1_555
H11 C11 1_555 1_555
N4 C12 1_555 1_555
N5 C18 1_555 1_555
N6 H12 1_555 1_555
C12 H13 1_555 1_555
C13 N6 1_555 1_555
C14 C13 1_555 1_555
H14 C14 1_555 1_555
C15 C14 1_555 1_555
H15 C15 1_555 1_555
C16 N4 1_555 1_555
H16 C16 1_555 1_555
C17 N6 1_555 1_555
H17 C17 1_555 1_555
H18 C17 1_555 1_555
C18 C17 1_555 1_555
C19 C18 1_555 1_555
H19 C19 1_555 1_555
C20 C19 1_555 1_555
H20 C20 1_555 1_555
C21 C20 1_555 1_555
H21 C21 1_555 1_555
C22 N5 1_555 1_555
H22 C22 1_555 1_555
S1 O1 1_555 1_555
O2 Ag2 1_555 1_555
O3 S1 1_555 1_555
C23 S1 1_555 1_555
F1 C23 1_555 1_555
F2 C23 1_555 1_555
F3 C23 1_555 1_555
S2 O4 1_555 1_555
O4 Ag1 1_555 1_555
O5 S2 1_555 1_555
O6 S2 1_555 1_555
C24 S2 1_555 1_555
F4 C24 1_555 1_555
F5 C24 1_555 1_555
F6 C24 1_555 1_555
Ag1A N2 1_555 1_555
Ag2A N4 1_555 1_555
N2A Ag1 1_555 1_555
N4A Ag2 1_555 1_555
C1 C2 1_555 1_555
C4 C5 1_555 1_555
C10 C11 1_555 1_555
C12 C13 1_555 1_555
C15 C16 1_555 1_555
C21 C22 1_555 1_555
S1 O2 1_555 1_555

#END
