
#######################################################################
#
#                 Cambridge Crystallographic Data Centre
#                                CCDC 
#
#######################################################################
#
# If this CIF has been generated from an entry in the Cambridge 
# Structural Database, then it will include bibliographic, chemical, 
# crystal, experimental, refinement or atomic coordinate data resulting 
# from the CCDC's data processing and validation procedures.
#
#######################################################################

data_PONWEU
_symmetry_cell_setting           monoclinic
_symmetry_space_group_name_H-M   'P 21/n'
_symmetry_Int_Tables_number      14
_space_group_name_Hall           '-P 2yn'
loop_
_symmetry_equiv_pos_site_id
_symmetry_equiv_pos_as_xyz
1 x,y,z
2 1/2-x,1/2+y,1/2-z
3 -x,-y,-z
4 1/2+x,1/2-y,1/2+z
_cell_length_a                   7.4178(11)
_cell_length_b                   9.3028(14)
_cell_length_c                   14.377(2)
_cell_angle_alpha                90
_cell_angle_beta                 91.103(3)
_cell_angle_gamma                90
_cell_volume                     991.92
loop_
_atom_site_label
_atom_site_type_symbol
_atom_site_fract_x
_atom_site_fract_y
_atom_site_fract_z
Hg1 Hg 0.24306(4) 0.06582(4) 0.48717(3)
Cl1 Cl 0.0790(3) -0.1030(3) 0.6053(2)
Cl2 Cl 0.4116(3) -0.0945(3) 0.3930(2)
N1 N 0.1924(9) 0.2699(8) 0.5675(5)
C1 C 0.1241(12) 0.2622(11) 0.6533(7)
C2 C 0.0861(12) 0.3843(11) 0.7035(7)
C3 C 0.1190(12) 0.5151(11) 0.6648(7)
C4 C 0.1885(13) 0.5270(12) 0.5772(7)
C5 C 0.2260(12) 0.3996(11) 0.5300(7)
C6 C 0.2996(12) 0.4007(11) 0.4341(7)
O1 O 0.3396(10) 0.2949(8) 0.3915(5)
O2 O 0.3177(11) 0.5344(8) 0.4017(5)
C7 C 0.3812(15) 0.5488(11) 0.3070(8)
H1 H 0.1015(12) 0.1706(11) 0.6798(7)
H2 H 0.0379(12) 0.3773(11) 0.7640(7)
H3 H 0.0934(12) 0.5998(11) 0.6991(7)
H4 H 0.2102(13) 0.6182(12) 0.5499(7)
H5 H 0.3583(82) 0.6469(23) 0.2848(18)
H6 H 0.3171(66) 0.4803(50) 0.2666(12)
H7 H 0.5109(23) 0.5291(70) 0.3059(11)
Hg1B Hg -0.24306(4) -0.06582(4) 0.51283(3)
Cl1B Cl -0.0790(3) 0.1030(3) 0.3947(2)
Hg1B_2 Hg 0.75694(4) -0.06582(4) 0.51283(3)
Cl1B_2 Cl 0.9210(3) 0.1030(3) 0.3947(2)
Cl1_2 Cl 1.0790(3) -0.1030(3) 0.6053(2)
Cl2B Cl 0.5884(3) 0.0945(3) 0.6070(2)
N1B N 0.8076(9) -0.2699(8) 0.4325(5)
C1B C 0.8759(12) -0.2622(11) 0.3467(7)
C2B C 0.9139(12) -0.3843(11) 0.2965(7)
C3B C 0.8810(12) -0.5151(11) 0.3352(7)
C4B C 0.8115(13) -0.5270(12) 0.4228(7)
C5B C 0.7740(12) -0.3996(11) 0.4700(7)
C6B C 0.7004(12) -0.4007(11) 0.5659(7)
O1B O 0.6604(10) -0.2949(8) 0.6085(5)
O2B O 0.6823(11) -0.5344(8) 0.5983(5)
C7B C 0.6188(15) -0.5488(11) 0.6930(8)
H5B H 0.6417(82) -0.6469(23) 0.7152(18)
H6B H 0.6829(66) -0.4803(50) 0.7334(12)
H7B H 0.4891(23) -0.5291(70) 0.6941(11)
H4B H 0.7898(13) -0.6182(12) 0.4501(7)
H3B H 0.9066(12) -0.5998(11) 0.3009(7)
H2B H 0.9621(12) -0.3773(11) 0.2360(7)
H1B H 0.8985(12) -0.1706(11) 0.3202(7)
loop_
_geom_bond_atom_site_label_1
_geom_bond_atom_site_label_2
_geom_bond_site_symmetry_1
_geom_bond_site_symmetry_2
Hg1 Cl1 1_555 1_555
Cl1 Hg1B 1_555 1_555
Cl2 Hg1 1_555 1_555
N1 Hg1 1_555 1_555
C1 N1 1_555 1_555
C2 C1 1_555 1_555
C3 C2 1_555 1_555
C4 C3 1_555 1_555
C5 N1 1_555 1_555
C6 C5 1_555 1_555
O1 Hg1 1_555 1_555
O2 C6 1_555 1_555
C7 O2 1_555 1_555
H1 C1 1_555 1_555
H2 C2 1_555 1_555
H3 C3 1_555 1_555
H4 C4 1_555 1_555
H5 C7 1_555 1_555
H6 C7 1_555 1_555
H7 C7 1_555 1_555
Hg1B Cl1B 1_555 1_555
Cl1B Hg1 1_555 1_555
Hg1B_2 Cl2 1_555 1_555
Cl1B_2 Hg1B_2 1_555 1_555
Cl1_2 Hg1B_2 1_555 1_555
Cl2B Hg1 1_555 1_555
N1B Hg1B_2 1_555 1_555
C1B N1B 1_555 1_555
C2B C1B 1_555 1_555
C3B C2B 1_555 1_555
C4B C3B 1_555 1_555
C5B N1B 1_555 1_555
C6B C5B 1_555 1_555
O1B Hg1B_2 1_555 1_555
O2B C6B 1_555 1_555
C7B O2B 1_555 1_555
H5B C7B 1_555 1_555
H6B C7B 1_555 1_555
H7B C7B 1_555 1_555
H4B C4B 1_555 1_555
H3B C3B 1_555 1_555
H2B C2B 1_555 1_555
H1B C1B 1_555 1_555
C4 C5 1_555 1_555
C6 O1 1_555 1_555
Hg1B_2 Cl2B 1_555 1_555
C4B C5B 1_555 1_555
C6B O1B 1_555 1_555

#END
