
#######################################################################
#
#                 Cambridge Crystallographic Data Centre
#                                CCDC 
#
#######################################################################
#
# If this CIF has been generated from an entry in the Cambridge 
# Structural Database, then it will include bibliographic, chemical, 
# crystal, experimental, refinement or atomic coordinate data resulting 
# from the CCDC's data processing and validation procedures.
#
#######################################################################

data_PONYOG
_symmetry_cell_setting           monoclinic
_symmetry_space_group_name_H-M   'P 21/c'
_symmetry_Int_Tables_number      14
_space_group_name_Hall           '-P 2ybc'
loop_
_symmetry_equiv_pos_site_id
_symmetry_equiv_pos_as_xyz
1 x,y,z
2 -x,1/2+y,1/2-z
3 -x,-y,-z
4 x,1/2-y,1/2+z
_cell_length_a                   10.849
_cell_length_b                   18.784
_cell_length_c                   27.966
_cell_angle_alpha                90
_cell_angle_beta                 92.50
_cell_angle_gamma                90
_cell_volume                     5693.7
loop_
_atom_site_label
_atom_site_type_symbol
_atom_site_fract_x
_atom_site_fract_y
_atom_site_fract_z
K1 K 0.1807(2) 0.71730(12) 0.42706(7)
K2 K 0.1616(2) 0.75291(13) 0.68654(8)
N1 N 0.0765(7) 0.7049(4) 0.5960(3)
N2 N -0.1219(7) 0.7267(4) 0.5570(3)
N3 N 0.0727(7) 0.7403(4) 0.5134(2)
C1 C 0.1270(8) 0.7216(5) 0.5536(3)
C2 C 0.2660(8) 0.7162(5) 0.5549(3)
C3 C 0.3350(9) 0.7573(5) 0.5255(3)
C4 C 0.4634(9) 0.7532(6) 0.5269(3)
C5 C 0.5239(9) 0.7071(6) 0.5581(3)
C6 C 0.4533(10) 0.6659(6) 0.5883(3)
C7 C 0.3286(9) 0.6708(5) 0.5875(3)
C8 C -0.0516(9) 0.7053(5) 0.5927(3)
C9 C -0.1118(9) 0.6782(5) 0.6355(3)
C10 C -0.0563(10) 0.6230(6) 0.6617(3)
C11 C -0.1104(13) 0.5938(7) 0.7010(4)
C12 C -0.2247(12) 0.6198(8) 0.7141(4)
C13 C -0.2811(11) 0.6742(7) 0.6888(4)
C14 C -0.2246(9) 0.7028(6) 0.6497(3)
C15 C -0.0628(8) 0.7501(5) 0.5135(3)
C16 C -0.0908(9) 0.8325(5) 0.5058(3)
C17 C -0.0461(10) 0.8582(6) 0.4574(4)
C18 C -0.0259(10) 0.8746(6) 0.5460(4)
C19 C -0.2315(10) 0.8453(6) 0.5068(5)
C20 C -0.1209(9) 0.7045(5) 0.4723(3)
C21 C -0.0901(9) 0.6256(5) 0.4772(4)
C22 C -0.1683(12) 0.5766(6) 0.4449(4)
C23 C -0.1343(14) 0.4989(6) 0.4491(5)
N4 N 0.2465(7) 0.6778(4) 0.7710(3)
N5 N 0.4216(7) 0.6272(4) 0.8142(3)
N6 N 0.2957(7) 0.7758(4) 0.3498(3)
C24 C 0.3442(9) 0.6316(5) 0.7781(3)
C25 C 0.3574(10) 0.5786(6) 0.7389(4)
C26 C 0.4679(12) 0.5428(7) 0.7339(5)
C27 C 0.4787(13) 0.4943(8) 0.6962(6)
C28 C 0.3812(15) 0.4786(7) 0.6663(5)
C29 C 0.2737(14) 0.5116(6) 0.6724(4)
C30 C 0.2597(11) 0.5617(5) 0.7078(3)
C31 C 0.2307(9) 0.7189(5) 0.8106(3)
C32 C 0.1142(9) 0.7635(5) 0.8074(3)
C33 C 0.0045(9) 0.7347(6) 0.7898(3)
C34 C -0.1037(10) 0.7739(6) 0.7885(4)
C35 C -0.1004(10) 0.8416(7) 0.8054(4)
C36 C 0.0055(10) 0.8738(6) 0.8207(4)
C37 C 0.1165(9) 0.8341(5) 0.8222(3)
C38 C 0.4098(9) 0.6799(5) 0.8529(3)
C39 C 0.5253(9) 0.7312(6) 0.8519(3)
C40 C 0.5247(11) 0.7682(6) 0.8034(4)
C41 C 0.5191(11) 0.7878(6) 0.8905(4)
C42 C 0.6461(10) 0.6885(7) 0.8591(4)
C43 C 0.4100(9) 0.6367(5) 0.9003(3)
C44 C 0.3012(11) 0.5863(6) 0.9022(4)
C45 C 0.3018(17) 0.5385(11) 0.9441(7)
C46 C 0.3371(25) 0.5469(11) 0.9875(6)
O1 O 0.2621(8) 0.5838(4) 0.4297(3)
C47 C 0.3646(11) 0.5651(6) 0.4599(4)
C48 C 0.3982(12) 0.4922(6) 0.4478(5)
C49 C 0.3011(12) 0.4643(6) 0.4168(5)
C50 C 0.2275(13) 0.5252(6) 0.4023(5)
O2 O 0.3412(9) 0.8489(5) 0.6712(4)
C51 C 0.3711(26) 0.8773(18) 0.6280(6)
C52 C 0.4944(30) 0.9099(21) 0.6353(10)
C53 C 0.5346(21) 0.8916(26) 0.6812(12)
C54 C 0.4162(29) 0.8844(24) 0.7054(7)
O3 O 0.0204(13) 0.8758(6) 0.6832(4)
C55 C 0.0801(22) 0.9446(12) 0.6861(14)
C56 C -0.0204(25) 0.9988(13) 0.6714(7)
C57 C -0.1283(29) 0.9606(14) 0.6898(10)
C58 C -0.1117(16) 0.8864(11) 0.6788(6)
H1 H 0.2943(9) 0.7893(5) 0.5038(3)
H2 H 0.5092(9) 0.7822(6) 0.5062(3)
H3 H 0.6113(9) 0.7034(6) 0.5591(3)
H4 H 0.4938(10) 0.6337(6) 0.6100(3)
H5 H 0.2832(9) 0.6432(5) 0.6091(3)
H6 H 0.0208(10) 0.6049(6) 0.6523(3)
H7 H -0.0706(13) 0.5566(7) 0.7187(4)
H8 H -0.2635(12) 0.5998(8) 0.7407(4)
H9 H -0.3585(11) 0.6921(7) 0.6980(4)
H10 H -0.2643(9) 0.7404(6) 0.6323(3)
H11 H -0.0951(44) 0.8355(29) 0.4314(4)
H12 H 0.0410(20) 0.8456(34) 0.4547(11)
H13 H -0.0555(62) 0.9100(7) 0.4551(11)
H14 H -0.0569(48) 0.8595(27) 0.5768(4)
H15 H -0.0421(54) 0.9255(6) 0.5413(14)
H16 H 0.0631(12) 0.8658(30) 0.5458(16)
H17 H -0.2739(12) 0.8160(32) 0.4822(20)
H18 H -0.2492(12) 0.8957(10) 0.5006(29)
H19 H -0.2603(16) 0.8323(40) 0.5384(10)
H20 H -0.2116(9) 0.7104(5) 0.4716(3)
H21 H -0.0912(9) 0.7221(5) 0.4415(3)
H22 H -0.0023(9) 0.6187(5) 0.4701(4)
H23 H -0.1001(9) 0.6112(5) 0.5109(4)
H24 H -0.2559(12) 0.5822(6) 0.4527(4)
H25 H -0.1604(12) 0.5918(6) 0.4113(4)
H26 H -0.0499(33) 0.4921(10) 0.4388(32)
H27 H -0.1915(54) 0.4706(8) 0.4288(26)
H28 H -0.1393(85) 0.4837(14) 0.4825(8)
H29 H 0.5356(12) 0.5511(7) 0.7559(5)
H30 H 0.5560(13) 0.4721(8) 0.6916(6)
H31 H 0.3888(15) 0.4447(7) 0.6414(5)
H32 H 0.2048(14) 0.5001(6) 0.6517(4)
H33 H 0.1824(11) 0.5847(5) 0.7107(3)
H34 H 0.0031(9) 0.6871(6) 0.7783(3)
H35 H -0.1788(10) 0.7538(6) 0.7761(4)
H36 H -0.1755(10) 0.8675(7) 0.8064(4)
H37 H 0.0055(10) 0.9223(6) 0.8303(4)
H38 H 0.1917(9) 0.8555(5) 0.8333(3)
H39 H 0.5241(69) 0.7323(6) 0.7779(4)
H40 H 0.5986(36) 0.7979(31) 0.8015(11)
H41 H 0.4509(36) 0.7981(31) 0.7994(12)
H42 H 0.5166(73) 0.7648(7) 0.9219(4)
H43 H 0.4445(39) 0.8165(27) 0.8848(16)
H44 H 0.5920(37) 0.8184(26) 0.8897(19)
H45 H 0.6509(37) 0.6681(37) 0.8914(11)
H46 H 0.7167(10) 0.7201(11) 0.8550(29)
H47 H 0.6474(35) 0.6500(27) 0.8354(19)
H48 H 0.4874(9) 0.6090(5) 0.9038(3)
H49 H 0.4079(9) 0.6702(5) 0.9276(3)
H50 H 0.2245(11) 0.6149(6) 0.9017(4)
H51 H 0.2987(11) 0.5567(6) 0.8728(4)
H52 H 0.2149(17) 0.5228(11) 0.9456(7)
H53 H 0.3478(17) 0.4960(11) 0.9338(7)
H54 H 0.4169(98) 0.523(10) 0.9934(20)
H55 H 0.276(10) 0.526(11) 1.0083(6)
H56 H 0.346(20) 0.5979(11) 0.9944(22)
H57 H 0.3431(11) 0.5681(6) 0.4938(4)
H58 H 0.4344(11) 0.5977(6) 0.4547(4)
H59 H 0.4773(12) 0.4917(6) 0.4315(5)
H60 H 0.4076(12) 0.4630(6) 0.4772(5)
H61 H 0.2510(12) 0.4293(6) 0.4340(5)
H62 H 0.3353(12) 0.4407(6) 0.3886(5)
H63 H 0.2388(13) 0.5355(6) 0.3681(5)
H64 H 0.1392(13) 0.5146(6) 0.4064(5)
H65 H 0.3097(26) 0.9137(18) 0.6175(6)
H66 H 0.3728(26) 0.8397(18) 0.6033(6)
H67 H 0.5516(30) 0.8912(21) 0.6117(10)
H68 H 0.4893(30) 0.9623(21) 0.6319(10)
H69 H 0.5869(21) 0.9295(26) 0.6961(12)
H70 H 0.5810(21) 0.8463(26) 0.6816(12)
H71 H 0.4268(29) 0.8561(24) 0.7351(7)
H72 H 0.3816(29) 0.9315(24) 0.7132(7)
H73 H 0.1491(22) 0.9469(12) 0.6641(14)
H74 H 0.1128(22) 0.9541(12) 0.7191(14)
H75 H -0.0068(25) 1.0454(13) 0.6872(7)
H76 H -0.0278(25) 1.0055(13) 0.6362(7)
H77 H -0.1322(29) 0.9675(14) 0.7248(10)
H78 H -0.2058(29) 0.9787(14) 0.6742(10)
H79 H -0.1436(16) 0.8756(11) 0.6459(6)
H80 H -0.1546(16) 0.8558(11) 0.7016(6)
N6C N 0.2957(7) 0.7242(4) 0.8498(3)
K1C K 0.1807(2) 0.78270(12) 0.92706(7)
loop_
_geom_bond_atom_site_label_1
_geom_bond_atom_site_label_2
_geom_bond_site_symmetry_1
_geom_bond_site_symmetry_2
K1 N3 1_555 1_555
K2 N1 1_555 1_555
N1 C1 1_555 1_555
N2 C8 1_555 1_555
N3 C1 1_555 1_555
C1 C2 1_555 1_555
C2 C3 1_555 1_555
C3 C4 1_555 1_555
C4 C5 1_555 1_555
C5 C6 1_555 1_555
C6 C7 1_555 1_555
C7 C2 1_555 1_555
C8 N1 1_555 1_555
C9 C8 1_555 1_555
C10 C9 1_555 1_555
C11 C10 1_555 1_555
C12 C11 1_555 1_555
C13 C12 1_555 1_555
C14 C9 1_555 1_555
C15 N2 1_555 1_555
C16 C15 1_555 1_555
C17 C16 1_555 1_555
C18 C16 1_555 1_555
C19 C16 1_555 1_555
C20 C15 1_555 1_555
C21 C20 1_555 1_555
C22 C21 1_555 1_555
C23 C22 1_555 1_555
N4 K2 1_555 1_555
N5 C24 1_555 1_555
N6 K1 1_555 1_555
C24 N4 1_555 1_555
C25 C24 1_555 1_555
C26 C25 1_555 1_555
C27 C26 1_555 1_555
C28 C27 1_555 1_555
C29 C28 1_555 1_555
C30 C25 1_555 1_555
C31 N4 1_555 1_555
C32 C31 1_555 1_555
C33 C32 1_555 1_555
C34 C33 1_555 1_555
C35 C34 1_555 1_555
C36 C35 1_555 1_555
C37 C32 1_555 1_555
C38 N5 1_555 1_555
C39 C38 1_555 1_555
C40 C39 1_555 1_555
C41 C39 1_555 1_555
C42 C39 1_555 1_555
C43 C38 1_555 1_555
C44 C43 1_555 1_555
C45 C44 1_555 1_555
C46 C45 1_555 1_555
O1 K1 1_555 1_555
C47 O1 1_555 1_555
C48 C47 1_555 1_555
C49 C48 1_555 1_555
C50 O1 1_555 1_555
O2 K2 1_555 1_555
C51 O2 1_555 1_555
C52 C51 1_555 1_555
C53 C52 1_555 1_555
C54 O2 1_555 1_555
O3 K2 1_555 1_555
C55 O3 1_555 1_555
C56 C55 1_555 1_555
C57 C56 1_555 1_555
C58 O3 1_555 1_555
H1 C3 1_555 1_555
H2 C4 1_555 1_555
H3 C5 1_555 1_555
H4 C6 1_555 1_555
H5 C7 1_555 1_555
H6 C10 1_555 1_555
H7 C11 1_555 1_555
H8 C12 1_555 1_555
H9 C13 1_555 1_555
H10 C14 1_555 1_555
H11 C17 1_555 1_555
H12 C17 1_555 1_555
H13 C17 1_555 1_555
H14 C18 1_555 1_555
H15 C18 1_555 1_555
H16 C18 1_555 1_555
H17 C19 1_555 1_555
H18 C19 1_555 1_555
H19 C19 1_555 1_555
H20 C20 1_555 1_555
H21 C20 1_555 1_555
H22 C21 1_555 1_555
H23 C21 1_555 1_555
H24 C22 1_555 1_555
H25 C22 1_555 1_555
H26 C23 1_555 1_555
H27 C23 1_555 1_555
H28 C23 1_555 1_555
H29 C26 1_555 1_555
H30 C27 1_555 1_555
H31 C28 1_555 1_555
H32 C29 1_555 1_555
H33 C30 1_555 1_555
H34 C33 1_555 1_555
H35 C34 1_555 1_555
H36 C35 1_555 1_555
H37 C36 1_555 1_555
H38 C37 1_555 1_555
H39 C40 1_555 1_555
H40 C40 1_555 1_555
H41 C40 1_555 1_555
H42 C41 1_555 1_555
H43 C41 1_555 1_555
H44 C41 1_555 1_555
H45 C42 1_555 1_555
H46 C42 1_555 1_555
H47 C42 1_555 1_555
H48 C43 1_555 1_555
H49 C43 1_555 1_555
H50 C44 1_555 1_555
H51 C44 1_555 1_555
H52 C45 1_555 1_555
H53 C45 1_555 1_555
H54 C46 1_555 1_555
H55 C46 1_555 1_555
H56 C46 1_555 1_555
H57 C47 1_555 1_555
H58 C47 1_555 1_555
H59 C48 1_555 1_555
H60 C48 1_555 1_555
H61 C49 1_555 1_555
H62 C49 1_555 1_555
H63 C50 1_555 1_555
H64 C50 1_555 1_555
H65 C51 1_555 1_555
H66 C51 1_555 1_555
H67 C52 1_555 1_555
H68 C52 1_555 1_555
H69 C53 1_555 1_555
H70 C53 1_555 1_555
H71 C54 1_555 1_555
H72 C54 1_555 1_555
H73 C55 1_555 1_555
H74 C55 1_555 1_555
H75 C56 1_555 1_555
H76 C56 1_555 1_555
H77 C57 1_555 1_555
H78 C57 1_555 1_555
H79 C58 1_555 1_555
H80 C58 1_555 1_555
N6C C31 1_555 1_555
K1C N6C 1_555 1_555
N3 C15 1_555 1_555
C13 C14 1_555 1_555
C29 C30 1_555 1_555
C36 C37 1_555 1_555
C38 N6C 1_555 1_555
C49 C50 1_555 1_555
C53 C54 1_555 1_555
C57 C58 1_555 1_555

#END
