
#######################################################################
#
#                 Cambridge Crystallographic Data Centre
#                                CCDC 
#
#######################################################################
#
# If this CIF has been generated from an entry in the Cambridge 
# Structural Database, then it will include bibliographic, chemical, 
# crystal, experimental, refinement or atomic coordinate data resulting 
# from the CCDC's data processing and validation procedures.
#
#######################################################################

data_PONZUP
_symmetry_cell_setting           orthorhombic
_symmetry_space_group_name_H-M   'P n m a'
_symmetry_Int_Tables_number      62
_space_group_name_Hall           '-P 2ac 2n'
loop_
_symmetry_equiv_pos_site_id
_symmetry_equiv_pos_as_xyz
1 x,y,z
2 1/2-x,-y,1/2+z
3 -x,1/2+y,-z
4 1/2+x,1/2-y,1/2-z
5 -x,-y,-z
6 1/2+x,y,1/2-z
7 x,1/2-y,z
8 1/2-x,1/2+y,1/2+z
_cell_length_a                   19.2432(8)
_cell_length_b                   19.6828(8)
_cell_length_c                   19.9173(9)
_cell_angle_alpha                90
_cell_angle_beta                 90
_cell_angle_gamma                90
_cell_volume                     7543.88
loop_
_atom_site_label
_atom_site_type_symbol
_atom_site_fract_x
_atom_site_fract_y
_atom_site_fract_z
C1 C 0.0923(2) 0.7087(2) 0.9373(2)
C2 C 0.0953(2) 0.6775(2) 0.8663(2)
C3 C 0.0851(2) 0.7126(2) 0.8082(2)
C4 C 0.1182(3) 0.6905(3) 0.7465(2)
C5 C 0.1380(4) 0.7500 0.7089(3)
C6 C 0.1998(4) 0.7500 0.6722(3)
C7 C 0.2441(3) 0.6904(3) 0.6722(2)
C8 C 0.3156(3) 0.7128(3) 0.6724(3)
C9 C 0.3652(3) 0.6782(3) 0.7097(3)
C10 C 0.4166(3) 0.7146(3) 0.7484(3)
C11 C 0.4279(3) 0.6780(3) 0.8104(3)
C12 C 0.4390(2) 0.7132(3) 0.8697(3)
C13 C 0.4061(3) 0.6907(3) 0.9319(3)
C14 C 0.3857(4) 0.7500 0.9690(4)
C15 C 0.3225(4) 0.7500 1.0050(4)
C16 C 0.2785(3) 0.6907(3) 1.0046(2)
C17 C 0.2073(3) 0.7125(2) 1.0036(2)
C18 C 0.1582(2) 0.6774(2) 0.9676(2)
C19 C 0.1797(2) 0.6198(2) 0.9286(2)
C20 C 0.1413(2) 0.6201(2) 0.8668(2)
C21 C 0.1724(3) 0.5968(2) 0.8074(3)
C22 C 0.1602(3) 0.6329(3) 0.7464(2)
C23 C 0.2251(3) 0.6325(3) 0.7082(3)
C24 C 0.2760(3) 0.5961(3) 0.7463(3)
C25 C 0.3450(3) 0.6174(3) 0.7473(3)
C26 C 0.3840(3) 0.6177(3) 0.8095(3)
C27 C 0.3525(3) 0.5964(3) 0.8688(3)
C28 C 0.3639(3) 0.6329(3) 0.9309(3)
C29 C 0.2990(3) 0.6328(3) 0.9684(3)
C30 C 0.2483(3) 0.5967(2) 0.9298(3)
C31 C 0.2801(3) 0.5737(2) 0.8673(3)
C32 C 0.2433(3) 0.5738(2) 0.8086(3)
C33 C -0.0341(2) 0.7105(2) 0.9397(2)
H1 H -0.0762 0.6938 0.9630
H2 H -0.0354 0.6938 0.8929
C34 C 0.0302(2) 0.7107(2) 1.0433(2)
H3 H 0.0723 0.6940 1.0666
H4 H -0.0109 0.6940 1.0683
C35 C 0.0331(2) 0.4764(2) 0.8756(2)
C36 C 0.0487(3) 0.4654(3) 0.8021(2)
H5 H 0.0466 0.4168 0.7918
H6 H 0.0953 0.4828 0.7918
H7 H 0.0143 0.4897 0.7748
C37 C 0.1265(2) 0.4870(2) 1.0461(2)
C38 C 0.1967(3) 0.4831(2) 1.0782(2)
H8 H 0.2081 0.4356 1.0878
H9 H 0.1965 0.5092 1.1201
H10 H 0.2316 0.5021 1.0476
Rh1 Rh 0.00902(2) 0.56006(2) 0.99149(2)
N1 N 0.02860(18) 0.68332(18) 0.97376(18)
O1 O 0.03380(17) 0.53728(16) 0.89514(15)
O2 O 0.02081(18) 0.42492(17) 0.91092(17)
O3 O 0.10699(17) 0.54587(16) 1.02747(16)
O4 O 0.09116(17) 0.43285(15) 1.04094(17)
C1F C 0.0923(2) 0.7913(2) 0.9373(2)
C2F C 0.0953(2) 0.8225(2) 0.8663(2)
C3F C 0.0851(2) 0.7874(2) 0.8082(2)
C4F C 0.1182(3) 0.8095(3) 0.7465(2)
C7F C 0.2441(3) 0.8096(3) 0.6722(2)
C8F C 0.3156(3) 0.7872(3) 0.6724(3)
C9F C 0.3652(3) 0.8218(3) 0.7097(3)
C10F C 0.4166(3) 0.7854(3) 0.7484(3)
C11F C 0.4279(3) 0.8220(3) 0.8104(3)
C12F C 0.4390(2) 0.7868(3) 0.8697(3)
C13F C 0.4061(3) 0.8093(3) 0.9319(3)
C16F C 0.2785(3) 0.8093(3) 1.0046(2)
C17F C 0.2073(3) 0.7875(2) 1.0036(2)
C18F C 0.1582(2) 0.8226(2) 0.9676(2)
C19F C 0.1797(2) 0.8802(2) 0.9286(2)
C20F C 0.1413(2) 0.8799(2) 0.8668(2)
C21F C 0.1724(3) 0.9032(2) 0.8074(3)
C22F C 0.1602(3) 0.8671(3) 0.7464(2)
C23F C 0.2251(3) 0.8675(3) 0.7082(3)
C24F C 0.2760(3) 0.9039(3) 0.7463(3)
C25F C 0.3450(3) 0.8826(3) 0.7473(3)
C26F C 0.3840(3) 0.8823(3) 0.8095(3)
C27F C 0.3525(3) 0.9036(3) 0.8688(3)
C28F C 0.3639(3) 0.8671(3) 0.9309(3)
C29F C 0.2990(3) 0.8672(3) 0.9684(3)
C30F C 0.2483(3) 0.9033(2) 0.9298(3)
C31F C 0.2801(3) 0.9263(2) 0.8673(3)
C32F C 0.2433(3) 0.9262(2) 0.8086(3)
C33F C -0.0341(2) 0.7895(2) 0.9397(2)
H1F H -0.0762 0.8062 0.9630
H2F H -0.0354 0.8062 0.8929
C34F C 0.0302(2) 0.7893(2) 1.0433(2)
H3F H 0.0723 0.8060 1.0666
H4F H -0.0109 0.8060 1.0683
N1F N 0.02860(18) 0.81668(18) 0.97376(18)
C35D C -0.0331(2) 0.5236(2) 1.1244(2)
C36D C -0.0487(3) 0.5346(3) 1.1979(2)
H5D H -0.0466 0.5832 1.2082
H6D H -0.0953 0.5172 1.2082
H7D H -0.0143 0.5103 1.2252
C37D C -0.1265(2) 0.5130(2) 0.9539(2)
C38D C -0.1967(3) 0.5169(2) 0.9218(2)
H8D H -0.2081 0.5644 0.9122
H9D H -0.1965 0.4908 0.8799
H10D H -0.2316 0.4979 0.9524
Rh1D Rh -0.00902(2) 0.43994(2) 1.00851(2)
O1D O -0.03380(17) 0.46272(16) 1.10486(15)
O2D O -0.02081(18) 0.57508(17) 1.08908(17)
O3D O -0.10699(17) 0.45413(16) 0.97253(16)
O4D O -0.09116(17) 0.56715(15) 0.95906(17)
Rh1F Rh 0.00902(2) 0.93994(2) 0.99149(2)
N1D N -0.02860(18) 0.31668(18) 1.02624(18)
C39 C -0.0011(4) 0.7161(6) 0.3847(7)
C40 C 0.0089(5) 0.6773(6) 0.3215(8)
C41 C 0.0173(6) 0.7103(7) 0.2644(8)
C42 C 0.0653(7) 0.6895(5) 0.2166(5)
C43 C 0.0947(8) 0.7500 0.1880(6)
C44 C 0.1618(8) 0.7500 0.1695(6)
C45 C 0.2133(7) 0.6935(6) 0.1807(6)
C46 C 0.2787(5) 0.7131(6) 0.2031(5)
C47 C 0.3161(5) 0.6779(5) 0.2557(5)
C48 C 0.3505(4) 0.7169(5) 0.3075(6)
C49 C 0.3409(4) 0.6777(6) 0.3717(6)
C50 C 0.3318(5) 0.7115(5) 0.4285(6)
C51 C 0.2820(6) 0.6904(6) 0.4761(6)
C52 C 0.2533(9) 0.7500 0.5050(6)
C53 C 0.1840(11) 0.7500 0.5217(5)
C54 C 0.1372(8) 0.6915(7) 0.5091(5)
C55 C 0.0699(5) 0.7141(5) 0.4880(4)
C56 C 0.0334(5) 0.6784(4) 0.4351(5)
C57 C 0.0645(6) 0.6201(5) 0.4039(6)
C58 C 0.0528(4) 0.6162(4) 0.3334(5)
C59 C 0.1019(4) 0.5973(3) 0.2863(4)
C60 C 0.1075(5) 0.6361(4) 0.2254(4)
C61 C 0.1866(7) 0.6377(5) 0.2084(5)
C62 C 0.2196(5) 0.5953(4) 0.2644(5)
C63 C 0.2842(6) 0.6173(5) 0.2878(6)
C64 C 0.2960(5) 0.6163(4) 0.3567(5)
C65 C 0.2460(5) 0.5956(4) 0.4042(5)
C66 C 0.2419(6) 0.6355(5) 0.4648(5)
C67 C 0.1620(8) 0.6355(5) 0.4814(4)
C68 C 0.1295(6) 0.5969(4) 0.4265(5)
C69 C 0.1793(5) 0.5743(4) 0.3806(5)
C70 C 0.1673(5) 0.5747(3) 0.3098(5)
C39F C -0.0011(4) 0.7839(6) 0.3847(7)
C40F C 0.0089(5) 0.8227(6) 0.3215(8)
C41F C 0.0173(6) 0.7897(7) 0.2644(8)
C42F C 0.0653(7) 0.8105(5) 0.2166(5)
C45F C 0.2133(7) 0.8065(6) 0.1807(6)
C46F C 0.2787(5) 0.7869(6) 0.2031(5)
C47F C 0.3161(5) 0.8221(5) 0.2557(5)
C48F C 0.3505(4) 0.7831(5) 0.3075(6)
C49F C 0.3409(4) 0.8223(6) 0.3717(6)
C50F C 0.3318(5) 0.7885(5) 0.4285(6)
C51F C 0.2820(6) 0.8096(6) 0.4761(6)
C54F C 0.1372(8) 0.8085(7) 0.5091(5)
C55F C 0.0699(5) 0.7859(5) 0.4880(4)
C56F C 0.0334(5) 0.8216(4) 0.4351(5)
C57F C 0.0645(6) 0.8799(5) 0.4039(6)
C58F C 0.0528(4) 0.8838(4) 0.3334(5)
C59F C 0.1019(4) 0.9027(3) 0.2863(4)
C60F C 0.1075(5) 0.8639(4) 0.2254(4)
C61F C 0.1866(7) 0.8623(5) 0.2084(5)
C62F C 0.2196(5) 0.9047(4) 0.2644(5)
C63F C 0.2842(6) 0.8827(5) 0.2878(6)
C64F C 0.2960(5) 0.8837(4) 0.3567(5)
C65F C 0.2460(5) 0.9044(4) 0.4042(5)
C66F C 0.2419(6) 0.8645(5) 0.4648(5)
C67F C 0.1620(8) 0.8645(5) 0.4814(4)
C68F C 0.1295(6) 0.9031(4) 0.4265(5)
C69F C 0.1793(5) 0.9257(4) 0.3806(5)
C70F C 0.1673(5) 0.9253(3) 0.3098(5)
S1 S 0.0411(3) 0.5629(2) 0.6147(3)
S2 S 0.1299(2) 0.4321(2) 0.6201(2)
C71 C 0.0875(11) 0.4967(8) 0.6154(14)
S3? S 0.0270(3) 0.5489(3) 0.5832(3)
S4? S 0.1386(3) 0.4487(3) 0.6350(3)
C72? C 0.0825(2) 0.4984(2) 0.6081(2)
loop_
_geom_bond_atom_site_label_1
_geom_bond_atom_site_label_2
_geom_bond_site_symmetry_1
_geom_bond_site_symmetry_2
C1 C2 1_555 1_555
C2 C3 1_555 1_555
C3 C4 1_555 1_555
C4 C5 1_555 1_555
C5 C6 1_555 1_555
C6 C7 1_555 1_555
C7 C8 1_555 1_555
C8 C9 1_555 1_555
C9 C10 1_555 1_555
C10 C11 1_555 1_555
C11 C12 1_555 1_555
C12 C13 1_555 1_555
C13 C14 1_555 1_555
C14 C15 1_555 1_555
C15 C16 1_555 1_555
C16 C17 1_555 1_555
C17 C18 1_555 1_555
C18 C1 1_555 1_555
C19 C18 1_555 1_555
C20 C2 1_555 1_555
C21 C20 1_555 1_555
C22 C4 1_555 1_555
C23 C7 1_555 1_555
C24 C23 1_555 1_555
C25 C9 1_555 1_555
C26 C11 1_555 1_555
C27 C26 1_555 1_555
C28 C13 1_555 1_555
C29 C16 1_555 1_555
C30 C19 1_555 1_555
C31 C27 1_555 1_555
C32 C21 1_555 1_555
C33 H1 1_555 1_555
H2 C33 1_555 1_555
C34 H3 1_555 1_555
H4 C34 1_555 1_555
C35 C36 1_555 1_555
C36 H5 1_555 1_555
H6 C36 1_555 1_555
H7 C36 1_555 1_555
C37 C38 1_555 1_555
C38 H8 1_555 1_555
H9 C38 1_555 1_555
H10 C38 1_555 1_555
Rh1 N1 1_555 1_555
N1 C1 1_555 1_555
O1 C35 1_555 1_555
O2 C35 1_555 1_555
O3 C37 1_555 1_555
O4 C37 1_555 1_555
C39 C40 1_555 1_555
C40 C41 1_555 1_555
C41 C42 1_555 1_555
C42 C43 1_555 1_555
C43 C44 1_555 1_555
C44 C45 1_555 1_555
C45 C46 1_555 1_555
C46 C47 1_555 1_555
C47 C48 1_555 1_555
C48 C49 1_555 1_555
C49 C50 1_555 1_555
C50 C51 1_555 1_555
C51 C52 1_555 1_555
C52 C53 1_555 1_555
C53 C54 1_555 1_555
C54 C55 1_555 1_555
C55 C56 1_555 1_555
C56 C39 1_555 1_555
C57 C56 1_555 1_555
C58 C40 1_555 1_555
C59 C58 1_555 1_555
C60 C42 1_555 1_555
C61 C45 1_555 1_555
C62 C61 1_555 1_555
C63 C47 1_555 1_555
C64 C49 1_555 1_555
C65 C64 1_555 1_555
C66 C51 1_555 1_555
C67 C54 1_555 1_555
C68 C57 1_555 1_555
C69 C65 1_555 1_555
C70 C59 1_555 1_555
S1 C71 1_555 1_555
S2 C71 1_555 1_555
C1F C1 1_555 1_555
C2F C1F 1_555 1_555
C3F C3 1_555 1_555
C4F C5 1_555 1_555
C7F C6 1_555 1_555
C8F C8 1_555 1_555
C9F C8F 1_555 1_555
C10F C10 1_555 1_555
C11F C10F 1_555 1_555
C12F C12 1_555 1_555
C13F C14 1_555 1_555
C16F C15 1_555 1_555
C17F C17 1_555 1_555
C18F C1F 1_555 1_555
C19F C18F 1_555 1_555
C20F C2F 1_555 1_555
C21F C20F 1_555 1_555
C22F C4F 1_555 1_555
C23F C7F 1_555 1_555
C24F C23F 1_555 1_555
C25F C9F 1_555 1_555
C26F C11F 1_555 1_555
C27F C26F 1_555 1_555
C28F C13F 1_555 1_555
C29F C16F 1_555 1_555
C30F C19F 1_555 1_555
C31F C27F 1_555 1_555
C32F C21F 1_555 1_555
C33F C33 1_555 1_555
H1F C33F 1_555 1_555
H2F C33F 1_555 1_555
C34F C34 1_555 1_555
H3F C34F 1_555 1_555
H4F C34F 1_555 1_555
N1F C1F 1_555 1_555
C35D C36D 1_555 1_555
C36D H5D 1_555 1_555
H6D C36D 1_555 1_555
H7D C36D 1_555 1_555
C37D C38D 1_555 1_555
C38D H8D 1_555 1_555
H9D C38D 1_555 1_555
H10D C38D 1_555 1_555
Rh1D O2 1_555 1_555
O1D C35D 1_555 1_555
O2D Rh1 1_555 1_555
O3D C37D 1_555 1_555
O4D Rh1 1_555 1_555
Rh1F N1F 1_555 1_555
N1D Rh1D 1_555 1_555
C39F C39 1_555 1_555
C40F C39F 1_555 1_555
C41F C41 1_555 1_555
C42F C43 1_555 1_555
C45F C44 1_555 1_555
C46F C46 1_555 1_555
C47F C46F 1_555 1_555
C48F C48 1_555 1_555
C49F C48F 1_555 1_555
C50F C50 1_555 1_555
C51F C52 1_555 1_555
C54F C53 1_555 1_555
C55F C55 1_555 1_555
C56F C39F 1_555 1_555
C57F C56F 1_555 1_555
C58F C40F 1_555 1_555
C59F C58F 1_555 1_555
C60F C42F 1_555 1_555
C61F C45F 1_555 1_555
C62F C61F 1_555 1_555
C63F C47F 1_555 1_555
C64F C49F 1_555 1_555
C65F C64F 1_555 1_555
C66F C51F 1_555 1_555
C67F C54F 1_555 1_555
C68F C57F 1_555 1_555
C69F C65F 1_555 1_555
C70F C59F 1_555 1_555
C19 C20 1_555 1_555
C21 C22 1_555 1_555
C22 C23 1_555 1_555
C24 C25 1_555 1_555
C24 C32 1_555 1_555
C25 C26 1_555 1_555
C27 C28 1_555 1_555
C28 C29 1_555 1_555
C29 C30 1_555 1_555
C30 C31 1_555 1_555
C31 C32 1_555 1_555
C33 N1 1_555 1_555
C34 N1 1_555 1_555
Rh1 O1 1_555 1_555
Rh1 O3 1_555 1_555
O4 Rh1D 1_555 1_555
C57 C58 1_555 1_555
C59 C60 1_555 1_555
C60 C61 1_555 1_555
C62 C63 1_555 1_555
C62 C70 1_555 1_555
C63 C64 1_555 1_555
C65 C66 1_555 1_555
C66 C67 1_555 1_555
C67 C68 1_555 1_555
C68 C69 1_555 1_555
C69 C70 1_555 1_555
C2F C3F 1_555 1_555
C3F C4F 1_555 1_555
C7F C8F 1_555 1_555
C9F C10F 1_555 1_555
C11F C12F 1_555 1_555
C12F C13F 1_555 1_555
C16F C17F 1_555 1_555
C17F C18F 1_555 1_555
C19F C20F 1_555 1_555
C21F C22F 1_555 1_555
C22F C23F 1_555 1_555
C24F C25F 1_555 1_555
C24F C32F 1_555 1_555
C25F C26F 1_555 1_555
C27F C28F 1_555 1_555
C28F C29F 1_555 1_555
C29F C30F 1_555 1_555
C30F C31F 1_555 1_555
C31F C32F 1_555 1_555
C33F N1F 1_555 1_555
C34F N1F 1_555 1_555
C35D O2D 1_555 1_555
C37D O4D 1_555 1_555
Rh1D O1D 1_555 1_555
Rh1D O3D 1_555 1_555
C40F C41F 1_555 1_555
C41F C42F 1_555 1_555
C45F C46F 1_555 1_555
C47F C48F 1_555 1_555
C49F C50F 1_555 1_555
C50F C51F 1_555 1_555
C54F C55F 1_555 1_555
C55F C56F 1_555 1_555
C57F C58F 1_555 1_555
C59F C60F 1_555 1_555
C60F C61F 1_555 1_555
C62F C63F 1_555 1_555
C62F C70F 1_555 1_555
C63F C64F 1_555 1_555
C65F C66F 1_555 1_555
C66F C67F 1_555 1_555
C67F C68F 1_555 1_555
C68F C69F 1_555 1_555
C69F C70F 1_555 1_555

#END
