
#######################################################################
#
#                 Cambridge Crystallographic Data Centre
#                                CCDC 
#
#######################################################################
#
# If this CIF has been generated from an entry in the Cambridge 
# Structural Database, then it will include bibliographic, chemical, 
# crystal, experimental, refinement or atomic coordinate data resulting 
# from the CCDC's data processing and validation procedures.
#
#######################################################################

data_POPBON
_symmetry_cell_setting           orthorhombic
_symmetry_space_group_name_H-M   'P n m a'
_symmetry_Int_Tables_number      62
_space_group_name_Hall           '-P 2ac 2n'
loop_
_symmetry_equiv_pos_site_id
_symmetry_equiv_pos_as_xyz
1 x,y,z
2 1/2-x,-y,1/2+z
3 -x,1/2+y,-z
4 1/2+x,1/2-y,1/2-z
5 -x,-y,-z
6 1/2+x,y,1/2-z
7 x,1/2-y,z
8 1/2-x,1/2+y,1/2+z
_cell_length_a                   15.7899(14)
_cell_length_b                   19.3598(17)
_cell_length_c                   15.8920(14)
_cell_angle_alpha                90
_cell_angle_beta                 90
_cell_angle_gamma                90
_cell_volume                     4858.01
loop_
_atom_site_label
_atom_site_type_symbol
_atom_site_fract_x
_atom_site_fract_y
_atom_site_fract_z
C1 C 0.85134(13) 0.29206(11) 0.00412(13)
C2 C 0.79091(13) 0.32390(12) 0.06902(15)
C3 C 0.75229(14) 0.28792(13) 0.13241(14)
C4 C 0.67155(16) 0.31037(15) 0.16567(16)
C5 C 0.6225(2) 0.2500 0.1862(2)
C6 C 0.5345(2) 0.2500 0.1739(3)
C7 C 0.49394(16) 0.31006(15) 0.13879(19)
C8 C 0.42780(15) 0.28720(14) 0.08136(19)
C9 C 0.41206(15) 0.32316(14) 0.0077(2)
C10 C 0.39613(15) 0.28587(14) -0.0704(2)
C11 C 0.43580(17) 0.32416(17) -0.1375(2)
C12 C 0.47392(18) 0.2879(2) -0.2029(2)
C13 C 0.5552(2) 0.3115(2) -0.2359(2)
C14 C 0.6038(3) 0.2500 -0.2566(3)
C15 C 0.6923(3) 0.2500 -0.2410(2)
C16 C 0.73219(17) 0.3109(2) -0.20626(17)
C17 C 0.79900(15) 0.28801(15) -0.14917(15)
C18 C 0.81482(13) 0.32397(12) -0.07691(15)
C19 C 0.76318(14) 0.38235(12) -0.05572(19)
C20 C 0.74835(15) 0.38210(12) 0.03295(19)
C21 C 0.67116(16) 0.40540(13) 0.0659(2)
C22 C 0.63233(16) 0.36804(15) 0.13319(19)
C23 C 0.54131(17) 0.36810(15) 0.1196(2)
C24 C 0.52476(16) 0.40580(14) 0.0439(2)
C25 C 0.46123(17) 0.38423(14) -0.0117(2)
C26 C 0.47590(16) 0.38471(15) -0.1006(2)
C27 C 0.55397(18) 0.40736(17) -0.1331(2)
C28 C 0.59304(19) 0.3697(2) -0.2022(2)
C29 C 0.68495(18) 0.36974(19) -0.1867(2)
C30 C 0.70057(17) 0.40626(15) -0.1106(2)
C31 C 0.61923(17) 0.43014(14) -0.0754(3)
C32 C 0.60545(18) 0.42929(14) 0.0098(2)
C33 C 0.97314(14) 0.29010(11) 0.09850(14)
H1 H 0.9373 0.3071 0.1453
H2 H 1.0315 0.3071 0.1077
C34 C 0.99380(14) 0.28958(11) -0.05207(15)
H3 H 1.0526 0.3065 -0.0455
H4 H 0.9720 0.3065 -0.1067
C35 C 1.06096(13) 0.50333(11) 0.15224(14)
C36 C 1.09879(15) 0.50650(12) 0.23875(14)
H5 H 1.1195 0.5534 0.2497
H6 H 1.1460 0.4738 0.2426
H7 H 1.0556 0.4944 0.2805
C37 C 1.14541(13) 0.45783(11) -0.05969(14)
C38 C 1.22853(14) 0.43319(11) -0.09538(16)
H8 H 1.2385 0.4554 -0.1499
H9 H 1.2266 0.3830 -0.1029
H10 H 1.2745 0.4451 -0.0566
N1 N 0.94039(11) 0.31756(9) 0.01736(11)
O1 O 1.02706(10) 0.44686(8) 0.12980(11)
O2 O 1.06655(10) 0.55777(7) 0.10858(10)
O3 O 1.09447(9) 0.41222(8) -0.03325(10)
O4 O 1.13257(9) 0.52226(8) -0.05820(10)
Rh1 Rh 0.97830(2) 0.44093(2) 0.01070(2)
C1F C 0.85134(13) 0.20794(11) 0.00412(13)
C2F C 0.79091(13) 0.17610(12) 0.06902(15)
C3F C 0.75229(14) 0.21208(13) 0.13241(14)
C4F C 0.67155(16) 0.18963(15) 0.16567(16)
C7F C 0.49394(16) 0.18994(15) 0.13879(19)
C8F C 0.42780(15) 0.21280(14) 0.08136(19)
C9F C 0.41206(15) 0.17684(14) 0.0077(2)
C10F C 0.39613(15) 0.21413(14) -0.0704(2)
C11F C 0.43580(17) 0.17584(17) -0.1375(2)
C12F C 0.47392(18) 0.2121(2) -0.2029(2)
C13F C 0.5552(2) 0.1885(2) -0.2359(2)
C16F C 0.73219(17) 0.1891(2) -0.20626(17)
C17F C 0.79900(15) 0.21199(15) -0.14917(15)
C18F C 0.81482(13) 0.17603(12) -0.07691(15)
C19F C 0.76318(14) 0.11765(12) -0.05572(19)
C20F C 0.74835(15) 0.11790(12) 0.03295(19)
C21F C 0.67116(16) 0.09460(13) 0.0659(2)
C22F C 0.63233(16) 0.13196(15) 0.13319(19)
C23F C 0.54131(17) 0.13190(15) 0.1196(2)
C24F C 0.52476(16) 0.09420(14) 0.0439(2)
C25F C 0.46123(17) 0.11577(14) -0.0117(2)
C26F C 0.47590(16) 0.11529(15) -0.1006(2)
C27F C 0.55397(18) 0.09264(17) -0.1331(2)
C28F C 0.59304(19) 0.1303(2) -0.2022(2)
C29F C 0.68495(18) 0.13026(19) -0.1867(2)
C30F C 0.70057(17) 0.09374(15) -0.1106(2)
C31F C 0.61923(17) 0.06986(14) -0.0754(3)
C32F C 0.60545(18) 0.07071(14) 0.0098(2)
C33F C 0.97314(14) 0.20990(11) 0.09850(14)
H1F H 0.9373 0.1929 0.1453
H2F H 1.0315 0.1929 0.1077
C34F C 0.99380(14) 0.21042(11) -0.05207(15)
H3F H 1.0526 0.1935 -0.0455
H4F H 0.9720 0.1935 -0.1067
N1F N 0.94039(11) 0.18244(9) 0.01736(11)
C35D C 0.93904(13) 0.49667(11) -0.15224(14)
C36D C 0.90121(15) 0.49350(12) -0.23875(14)
H5D H 0.8805 0.4466 -0.2497
H6D H 0.8540 0.5262 -0.2426
H7D H 0.9444 0.5056 -0.2805
C37D C 0.85459(13) 0.54217(11) 0.05969(14)
C38D C 0.77147(14) 0.56681(11) 0.09538(16)
H8D H 0.7615 0.5446 0.1499
H9D H 0.7734 0.6170 0.1029
H10D H 0.7255 0.5549 0.0566
O1D O 0.97294(10) 0.55314(8) -0.12980(11)
O2D O 0.93345(10) 0.44223(7) -0.10858(10)
O3D O 0.90553(9) 0.58778(8) 0.03325(10)
O4D O 0.86743(9) 0.47774(8) 0.05820(10)
Rh1D Rh 1.02170(2) 0.55907(2) -0.01070(2)
N1D N 1.05961(11) 0.68244(9) -0.01736(11)
Rh1F Rh 0.97830(2) 0.05907(2) 0.01070(2)
C39 C 1.20963(18) 0.59872(16) -0.31744(17)
S1 S 1.14443(5) 0.56948(4) -0.25424(5)
S2 S 1.27667(5) 0.62893(6) -0.37873(5)
loop_
_geom_bond_atom_site_label_1
_geom_bond_atom_site_label_2
_geom_bond_site_symmetry_1
_geom_bond_site_symmetry_2
C1 C2 1_555 1_555
C2 C3 1_555 1_555
C3 C4 1_555 1_555
C4 C5 1_555 1_555
C5 C6 1_555 1_555
C6 C7 1_555 1_555
C7 C8 1_555 1_555
C8 C9 1_555 1_555
C9 C10 1_555 1_555
C10 C11 1_555 1_555
C11 C12 1_555 1_555
C12 C13 1_555 1_555
C13 C14 1_555 1_555
C14 C15 1_555 1_555
C15 C16 1_555 1_555
C16 C17 1_555 1_555
C17 C18 1_555 1_555
C18 C1 1_555 1_555
C19 C18 1_555 1_555
C20 C2 1_555 1_555
C21 C20 1_555 1_555
C22 C4 1_555 1_555
C23 C7 1_555 1_555
C24 C23 1_555 1_555
C25 C9 1_555 1_555
C26 C11 1_555 1_555
C27 C26 1_555 1_555
C28 C13 1_555 1_555
C29 C16 1_555 1_555
C30 C19 1_555 1_555
C31 C27 1_555 1_555
C32 C21 1_555 1_555
C33 H1 1_555 1_555
H2 C33 1_555 1_555
C34 H3 1_555 1_555
H4 C34 1_555 1_555
C35 C36 1_555 1_555
C36 H5 1_555 1_555
H6 C36 1_555 1_555
H7 C36 1_555 1_555
C37 C38 1_555 1_555
C38 H8 1_555 1_555
H9 C38 1_555 1_555
H10 C38 1_555 1_555
N1 C1 1_555 1_555
O1 C35 1_555 1_555
O2 C35 1_555 1_555
O3 C37 1_555 1_555
O4 C37 1_555 1_555
Rh1 N1 1_555 1_555
C39 S1 1_555 1_555
S2 C39 1_555 1_555
C1F C1 1_555 1_555
C2F C1F 1_555 1_555
C3F C3 1_555 1_555
C4F C5 1_555 1_555
C7F C6 1_555 1_555
C8F C8 1_555 1_555
C9F C8F 1_555 1_555
C10F C10 1_555 1_555
C11F C10F 1_555 1_555
C12F C12 1_555 1_555
C13F C14 1_555 1_555
C16F C15 1_555 1_555
C17F C17 1_555 1_555
C18F C1F 1_555 1_555
C19F C18F 1_555 1_555
C20F C2F 1_555 1_555
C21F C20F 1_555 1_555
C22F C4F 1_555 1_555
C23F C7F 1_555 1_555
C24F C23F 1_555 1_555
C25F C9F 1_555 1_555
C26F C11F 1_555 1_555
C27F C26F 1_555 1_555
C28F C13F 1_555 1_555
C29F C16F 1_555 1_555
C30F C19F 1_555 1_555
C31F C27F 1_555 1_555
C32F C21F 1_555 1_555
C33F C33 1_555 1_555
H1F C33F 1_555 1_555
H2F C33F 1_555 1_555
C34F C34 1_555 1_555
H3F C34F 1_555 1_555
H4F C34F 1_555 1_555
N1F C1F 1_555 1_555
C35D C36D 1_555 1_555
C36D H5D 1_555 1_555
H6D C36D 1_555 1_555
H7D C36D 1_555 1_555
C37D C38D 1_555 1_555
C38D H8D 1_555 1_555
H9D C38D 1_555 1_555
H10D C38D 1_555 1_555
O1D C35D 1_555 1_555
O2D Rh1 1_555 1_555
O3D C37D 1_555 1_555
O4D Rh1 1_555 1_555
Rh1D O2 1_555 1_555
N1D Rh1D 1_555 1_555
Rh1F N1F 1_555 1_555
C19 C20 1_555 1_555
C21 C22 1_555 1_555
C22 C23 1_555 1_555
C24 C25 1_555 1_555
C24 C32 1_555 1_555
C25 C26 1_555 1_555
C27 C28 1_555 1_555
C28 C29 1_555 1_555
C29 C30 1_555 1_555
C30 C31 1_555 1_555
C31 C32 1_555 1_555
C33 N1 1_555 1_555
C34 N1 1_555 1_555
O1 Rh1 1_555 1_555
O3 Rh1 1_555 1_555
O4 Rh1D 1_555 1_555
C2F C3F 1_555 1_555
C3F C4F 1_555 1_555
C7F C8F 1_555 1_555
C9F C10F 1_555 1_555
C11F C12F 1_555 1_555
C12F C13F 1_555 1_555
C16F C17F 1_555 1_555
C17F C18F 1_555 1_555
C19F C20F 1_555 1_555
C21F C22F 1_555 1_555
C22F C23F 1_555 1_555
C24F C25F 1_555 1_555
C24F C32F 1_555 1_555
C25F C26F 1_555 1_555
C27F C28F 1_555 1_555
C28F C29F 1_555 1_555
C29F C30F 1_555 1_555
C30F C31F 1_555 1_555
C31F C32F 1_555 1_555
C33F N1F 1_555 1_555
C34F N1F 1_555 1_555
C35D O2D 1_555 1_555
C37D O4D 1_555 1_555
O1D Rh1D 1_555 1_555
O3D Rh1D 1_555 1_555

#END
