
#######################################################################
#
#                 Cambridge Crystallographic Data Centre
#                                CCDC 
#
#######################################################################
#
# If this CIF has been generated from an entry in the Cambridge 
# Structural Database, then it will include bibliographic, chemical, 
# crystal, experimental, refinement or atomic coordinate data resulting 
# from the CCDC's data processing and validation procedures.
#
#######################################################################

data_POPCII
_symmetry_cell_setting           monoclinic
_symmetry_space_group_name_H-M   'C 2/c'
_symmetry_Int_Tables_number      15
_space_group_name_Hall           '-C 2yn'
loop_
_symmetry_equiv_pos_site_id
_symmetry_equiv_pos_as_xyz
1 x,y,z
2 -x,y,1/2-z
3 1/2+x,1/2+y,z
4 1/2-x,1/2+y,1/2-z
5 -x,-y,-z
6 x,-y,1/2+z
7 1/2-x,1/2-y,-z
8 1/2+x,1/2-y,1/2+z
_cell_length_a                   12.8805(12)
_cell_length_b                   9.6455(8)
_cell_length_c                   18.5453(13)
_cell_angle_alpha                90
_cell_angle_beta                 94.942(7)
_cell_angle_gamma                90
_cell_volume                     2295.48
loop_
_atom_site_label
_atom_site_type_symbol
_atom_site_fract_x
_atom_site_fract_y
_atom_site_fract_z
Cd1 Cd 0.5000 0.17298(4) 0.2500
Br1 Br 0.43741(5) 0.61211(5) 0.33567(2)
Br2 Br 0.57725(5) 0.17914(5) 0.52416(3)
O1 O 0.5938(3) 0.3349(3) 0.33961(19)
O2 O 0.4447(2) 0.2388(4) 0.35834(16)
N1 N 0.6241(3) 0.0142(4) 0.28362(18)
N2 N 0.6970(3) -0.1316(4) 0.36366(18)
C1 C 0.5089(3) 0.4128(4) 0.4399(2)
C2 C 0.6402(4) -0.0154(5) 0.3524(2)
H1 H 0.6154 0.0374 0.3892
C3 C 0.7504(3) -0.1080(4) 0.4918(2)
H2 H 0.7508 -0.0123 0.4859
C4 C 0.4744(3) 0.5481(4) 0.4303(2)
C5 C 0.7252(3) -0.1929(4) 0.4326(2)
C6 C 0.7249(3) -0.3351(4) 0.4403(3)
H3 H 0.7084 -0.3920 0.4004
C7 C 0.5340(3) 0.3657(4) 0.5099(2)
C8 C 0.5179(4) 0.3215(4) 0.3742(2)
C9 C 0.7184(4) -0.1781(5) 0.2967(2)
H4 H 0.7560 -0.2571 0.2869
C10 C 0.6741(4) -0.0870(4) 0.2476(2)
H5 H 0.6771 -0.0921 0.1977
Br1D Br 0.56259(5) 0.38789(5) 0.66433(2)
Br2D Br 0.42275(5) 0.82086(5) 0.47584(3)
O1D O 0.4062(3) 0.6651(3) 0.66039(19)
O2D O 0.5553(2) 0.7612(4) 0.64166(16)
C1D C 0.4911(3) 0.5872(4) 0.5601(2)
C4D C 0.5256(3) 0.4519(4) 0.5697(2)
C7D C 0.4660(3) 0.6343(4) 0.4901(2)
C8D C 0.4821(4) 0.6785(4) 0.6258(2)
N1F N 0.8759(3) -0.5142(4) 0.71638(18)
N2F N 0.8030(3) -0.3684(4) 0.63634(18)
C2F C 0.8598(4) -0.4846(5) 0.6476(2)
H1F H 0.8846 -0.5374 0.6108
C3F C 0.7496(3) -0.3920(4) 0.5082(2)
H2F H 0.7492 -0.4877 0.5141
C5F C 0.7748(3) -0.3071(4) 0.5674(2)
C6F C 0.7751(3) -0.1649(4) 0.5597(3)
H3F H 0.7916 -0.1080 0.5996
C9F C 0.7816(4) -0.3219(5) 0.7033(2)
H4F H 0.7440 -0.2429 0.7131
C10F C 0.8259(4) -0.4130(4) 0.7524(2)
H5F H 0.8229 -0.4079 0.8023
Cd1D Cd 0.5000 0.82702(4) 0.7500
Cd1F Cd 1.0000 -0.67298(4) 0.7500
O1A O 0.4062(3) 0.3349(3) 0.16039(19)
O2A O 0.5553(2) 0.2388(4) 0.14166(16)
N1A N 0.3759(3) 0.0142(4) 0.21638(18)
loop_
_geom_bond_atom_site_label_1
_geom_bond_atom_site_label_2
_geom_bond_site_symmetry_1
_geom_bond_site_symmetry_2
Cd1 O1 1_555 1_555
Br1 C4 1_555 1_555
Br2 C7 1_555 1_555
O1 C8 1_555 1_555
O2 Cd1 1_555 1_555
N1 Cd1 1_555 1_555
N2 C2 1_555 1_555
C1 C4 1_555 1_555
C2 N1 1_555 1_555
H1 C2 1_555 1_555
C3 H2 1_555 1_555
C4 C7D 1_555 1_555
C5 N2 1_555 1_555
C6 C5 1_555 1_555
H3 C6 1_555 1_555
C7 C1 1_555 1_555
C8 O2 1_555 1_555
C9 N2 1_555 1_555
H4 C9 1_555 1_555
C10 N1 1_555 1_555
H5 C10 1_555 1_555
Br1D C4D 1_555 1_555
Br2D C7D 1_555 1_555
O1D C8D 1_555 1_555
O2D C8D 1_555 1_555
C1D C4D 1_555 1_555
C4D C7 1_555 1_555
C7D C1D 1_555 1_555
C8D C1D 1_555 1_555
N1F C2F 1_555 1_555
N2F C2F 1_555 1_555
C2F H1F 1_555 1_555
C3F C6 1_555 1_555
H2F C3F 1_555 1_555
C5F N2F 1_555 1_555
C6F C3 1_555 1_555
H3F C6F 1_555 1_555
C9F N2F 1_555 1_555
H4F C9F 1_555 1_555
C10F N1F 1_555 1_555
H5F C10F 1_555 1_555
Cd1D O1D 1_555 1_555
Cd1F N1F 1_555 1_555
O1A Cd1 1_555 1_555
O2A Cd1 1_555 1_555
N1A Cd1 1_555 1_555
C1 C8 1_555 1_555
C3 C5 1_555 1_555
C9 C10 1_555 1_555
O2D Cd1D 1_555 1_555
C3F C5F 1_555 1_555
C5F C6F 1_555 1_555
C9F C10F 1_555 1_555

#END
