
#######################################################################
#
#                 Cambridge Crystallographic Data Centre
#                                CCDC 
#
#######################################################################
#
# If this CIF has been generated from an entry in the Cambridge 
# Structural Database, then it will include bibliographic, chemical, 
# crystal, experimental, refinement or atomic coordinate data resulting 
# from the CCDC's data processing and validation procedures.
#
#######################################################################

data_POPCOO
_symmetry_cell_setting           triclinic
_symmetry_space_group_name_H-M   'P -1'
_symmetry_Int_Tables_number      2
_space_group_name_Hall           '-P 1'
loop_
_symmetry_equiv_pos_site_id
_symmetry_equiv_pos_as_xyz
1 x,y,z
2 -x,-y,-z
_cell_length_a                   9.3940(6)
_cell_length_b                   9.4050(7)
_cell_length_c                   13.5440(8)
_cell_angle_alpha                69.748(6)
_cell_angle_beta                 88.094(5)
_cell_angle_gamma                63.280(6)
_cell_volume                     992.011
loop_
_atom_site_label
_atom_site_type_symbol
_atom_site_fract_x
_atom_site_fract_y
_atom_site_fract_z
Cd1 Cd 0.45211(4) 0.31197(4) 0.53657(3)
Br1 Br 0.12504(6) 0.70329(7) 0.73866(4)
Br2 Br -0.07349(7) 1.11909(7) 0.70363(4)
Br3 Br 0.82962(6) -0.19087(8) 0.90858(5)
Br4 Br 0.16907(6) 0.26757(7) 0.83248(4)
O1 O 0.5031(4) 0.2094(4) 0.7154(2)
O2 O 0.4797(5) -0.0256(4) 0.7391(3)
O3 O 0.3450(4) 0.5902(4) 0.5288(3)
O4 O 0.1269(4) 0.5522(4) 0.5364(3)
O5 O 0.2568(4) 0.1896(4) 0.5587(3)
H1 H 0.1577 0.2716 0.5449
H2 H 0.2727 0.1176 0.6237
O6 O 0.6373(4) 0.0277(4) 0.5626(3)
H3 H 0.7245 -0.0021 0.6004
H4 H 0.6585 0.0197 0.5022
N1 N 0.3662(4) 0.3911(5) 0.3647(3)
N2 N 0.3748(4) 0.4528(5) 0.1929(3)
C1 C 0.4951(6) 0.0758(6) 0.7707(4)
C2 C 0.5001(5) 0.0367(6) 0.8901(3)
C3 C 0.6400(5) -0.0823(6) 0.9617(4)
C4 C 0.3605(5) 0.1170(6) 0.9296(4)
C5 C 0.1945(6) 0.6407(6) 0.5279(4)
C6 C 0.0919(5) 0.8270(5) 0.5146(4)
C7 C -0.0333(5) 1.0485(6) 0.5870(4)
C8 C 0.0557(5) 0.8781(6) 0.6007(4)
C9 C 0.4517(6) 0.4167(7) 0.2867(4)
H5 H 0.5523 0.4104 0.2960
C10 C 0.2265(5) 0.4144(6) 0.3169(4)
H6 H 0.1419 0.4061 0.3516
C11 C 0.2311(6) 0.4508(6) 0.2122(4)
H7 H 0.1519 0.4709 0.1623
C12 C 0.4369(6) 0.4790(6) 0.0929(4)
C13 C 0.5663(6) 0.3418(6) 0.0807(4)
H8 H 0.6095 0.2356 0.1364
C14 C 0.3662(6) 0.6415(6) 0.0129(4)
C15 C 0.2241(6) 0.7924(6) 0.0260(5)
H9 H 0.1298 0.7770 0.0259
H10 H 0.2063 0.8959 -0.0317
H11 H 0.2458 0.8003 0.0922
Br1A Br -0.12504(6) 1.29671(7) 0.26134(4)
Br2A Br 0.07349(7) 0.88091(7) 0.29637(4)
O3A O -0.3450(4) 1.4098(4) 0.4712(3)
O4A O -0.1269(4) 1.4478(4) 0.4636(3)
C5A C -0.1945(6) 1.3593(6) 0.4721(4)
C6A C -0.0919(5) 1.1730(5) 0.4854(4)
C7A C 0.0333(5) 0.9515(6) 0.4130(4)
C8A C -0.0557(5) 1.1219(6) 0.3993(4)
Br3A Br 0.17038(6) 0.19087(8) 1.09142(5)
Br4A Br 0.83093(6) -0.26757(7) 1.16752(4)
O1A O 0.4969(4) -0.2094(4) 1.2846(2)
O2A O 0.5203(5) 0.0256(4) 1.2609(3)
C1A C 0.5049(6) -0.0758(6) 1.2293(4)
C2A C 0.4999(5) -0.0367(6) 1.1099(3)
C3A C 0.3600(5) 0.0823(6) 1.0383(4)
C4A C 0.6395(5) -0.1170(6) 1.0704(4)
N1A N 0.6338(4) 0.6089(5) -0.3647(3)
N2A N 0.6252(4) 0.5472(5) -0.1929(3)
C9A C 0.5483(6) 0.5833(7) -0.2867(4)
H5A H 0.4477 0.5896 -0.2960
C10A C 0.7735(5) 0.5856(6) -0.3169(4)
H6A H 0.8581 0.5939 -0.3516
C11A C 0.7689(6) 0.5492(6) -0.2122(4)
H7A H 0.8481 0.5291 -0.1623
C12A C 0.5631(6) 0.5210(6) -0.0929(4)
C13A C 0.4337(6) 0.6582(6) -0.0807(4)
H8A H 0.3905 0.7644 -0.1364
C14A C 0.6338(6) 0.3585(6) -0.0129(4)
C15A C 0.7759(6) 0.2076(6) -0.0260(5)
H9A H 0.8702 0.2230 -0.0259
H10A H 0.7937 0.1041 0.0317
H11A H 0.7542 0.1997 -0.0922
Cd1A Cd -0.45211(4) 1.68803(4) 0.46343(3)
O5A O -0.2568(4) 1.8104(4) 0.4413(3)
H1A H -0.1577 1.7284 0.4551
H2A H -0.2727 1.8824 0.3763
O6A O -0.6373(4) 1.9723(4) 0.4374(3)
H3A H -0.7245 2.0021 0.3996
H4A H -0.6585 1.9803 0.4978
Cd1_2 Cd -0.54789(4) 1.31197(4) 0.53657(3)
Cd1A_2 Cd 0.54789(4) -0.31197(4) 1.46343(3)
Cd1A_3 Cd 0.54789(4) 0.68803(4) -0.53657(3)
Cd1A_4 Cd 0.54789(4) 0.68803(4) 0.46343(3)
O1A_2 O -0.5031(4) 1.7906(4) 0.2846(2)
O3_2 O -0.6550(4) 1.5902(4) 0.5288(3)
O3A_2 O 0.6550(4) 0.4098(4) 0.4712(3)
N1A_2 N -0.3662(4) 1.6089(5) 0.6353(3)
loop_
_geom_bond_atom_site_label_1
_geom_bond_atom_site_label_2
_geom_bond_site_symmetry_1
_geom_bond_site_symmetry_2
Cd1 O1 1_555 1_555
Br1 C8 1_555 1_555
Br2 C7 1_555 1_555
Br3 C3 1_555 1_555
Br4 C4 1_555 1_555
O1 C1 1_555 1_555
O2 C1 1_555 1_555
O3 Cd1 1_555 1_555
O4 C5 1_555 1_555
O5 Cd1 1_555 1_555
H1 O5 1_555 1_555
H2 O5 1_555 1_555
O6 Cd1 1_555 1_555
H3 O6 1_555 1_555
H4 O6 1_555 1_555
N1 Cd1 1_555 1_555
N2 C9 1_555 1_555
C1 C2 1_555 1_555
C2 C3 1_555 1_555
C3 C4A 1_555 1_555
C4 C2 1_555 1_555
C5 O3 1_555 1_555
C6 C5 1_555 1_555
C7 C8 1_555 1_555
C8 C6 1_555 1_555
C9 N1 1_555 1_555
H5 C9 1_555 1_555
C10 N1 1_555 1_555
H6 C10 1_555 1_555
C11 N2 1_555 1_555
H7 C11 1_555 1_555
C12 N2 1_555 1_555
C13 C12 1_555 1_555
H8 C13 1_555 1_555
C14 C12 1_555 1_555
C15 C14 1_555 1_555
H9 C15 1_555 1_555
H10 C15 1_555 1_555
H11 C15 1_555 1_555
Br1A C8A 1_555 1_555
Br2A C7A 1_555 1_555
O3A C5A 1_555 1_555
O4A C5A 1_555 1_555
C5A C6A 1_555 1_555
C6A C7 1_555 1_555
C7A C6 1_555 1_555
C8A C6A 1_555 1_555
Br3A C3A 1_555 1_555
Br4A C4A 1_555 1_555
O1A C1A 1_555 1_555
O2A C1A 1_555 1_555
C1A C2A 1_555 1_555
C2A C3A 1_555 1_555
C3A C4 1_555 1_555
C4A C2A 1_555 1_555
N1A C9A 1_555 1_555
N2A C9A 1_555 1_555
C9A H5A 1_555 1_555
C10A N1A 1_555 1_555
H6A C10A 1_555 1_555
C11A N2A 1_555 1_555
H7A C11A 1_555 1_555
C12A N2A 1_555 1_555
C13A C14 1_555 1_555
H8A C13A 1_555 1_555
C14A C13 1_555 1_555
C15A C14A 1_555 1_555
H9A C15A 1_555 1_555
H10A C15A 1_555 1_555
H11A C15A 1_555 1_555
Cd1A O3A 1_555 1_555
O5A Cd1A 1_555 1_555
H1A O5A 1_555 1_555
H2A O5A 1_555 1_555
O6A Cd1A 1_555 1_555
H3A O6A 1_555 1_555
H4A O6A 1_555 1_555
Cd1_2 O3A 1_555 1_555
Cd1A_2 O1A 1_555 1_555
Cd1A_3 N1A 1_555 1_555
Cd1A_4 O3 1_555 1_555
O1A_2 Cd1A 1_555 1_555
O3_2 Cd1A 1_555 1_555
O3A_2 Cd1 1_555 1_555
N1A_2 Cd1A 1_555 1_555
C10 C11 1_555 1_555
C7A C8A 1_555 1_555
C10A C11A 1_555 1_555
C12A C13A 1_555 1_555
C12A C14A 1_555 1_555
Cd1_2 O3_2 1_555 1_555
Cd1A_4 O3A_2 1_555 1_555

#END
