
#######################################################################
#
#                 Cambridge Crystallographic Data Centre
#                                CCDC 
#
#######################################################################
#
# If this CIF has been generated from an entry in the Cambridge 
# Structural Database, then it will include bibliographic, chemical, 
# crystal, experimental, refinement or atomic coordinate data resulting 
# from the CCDC's data processing and validation procedures.
#
#######################################################################

data_POPCIG
_symmetry_cell_setting           orthorhombic
_symmetry_space_group_name_H-M   'I m m a'
_symmetry_Int_Tables_number      74
_space_group_name_Hall           '-I 2b 2'
loop_
_symmetry_equiv_pos_site_id
_symmetry_equiv_pos_as_xyz
1 x,y,z
2 -x,1/2-y,z
3 x,-y,-z
4 -x,1/2+y,-z
5 1/2+x,1/2+y,1/2+z
6 1/2-x,-y,1/2+z
7 1/2+x,1/2-y,1/2-z
8 1/2-x,y,1/2-z
9 -x,-y,-z
10 x,1/2+y,-z
11 -x,y,z
12 x,1/2-y,z
13 1/2-x,1/2-y,1/2-z
14 1/2+x,y,1/2-z
15 1/2-x,1/2+y,1/2+z
16 1/2+x,-y,1/2+z
_cell_length_a                   7.3758
_cell_length_b                   6.6069
_cell_length_c                   12.7292
_cell_angle_alpha                90
_cell_angle_beta                 90
_cell_angle_gamma                90
_cell_volume                     620.309
loop_
_atom_site_label
_atom_site_type_symbol
_atom_site_fract_x
_atom_site_fract_y
_atom_site_fract_z
Ni1 Ni 0.0000 0.00000 0.0000
Cl1 Cl 0.2188(3) 0.25000 -0.0574(2)
N1 N 0.0000 0.14638(9) 0.1449(4)
C1 C 0.0000 0.04267(9) 0.2382(4)
C2 C 0.0000 0.14632(9) 0.3315(4)
Cl1C Cl -0.2188(3) -0.25000 0.0574(2)
Cl1B Cl 0.2188(3) -0.25000 0.0574(2)
Ni1C Ni 0.0000 0.50000 0.0000
Cl1A Cl -0.2188(3) 0.25000 -0.0574(2)
N1A N 0.0000 0.35362(9) 0.1449(4)
C1A C 0.0000 0.45733(9) 0.2382(4)
C2A C 0.0000 0.35368(9) 0.3315(4)
N1B N 0.0000 -0.14638(9) -0.1449(4)
loop_
_geom_bond_atom_site_label_1
_geom_bond_atom_site_label_2
_geom_bond_site_symmetry_1
_geom_bond_site_symmetry_2
Ni1 Cl1 1_555 1_555
Cl1 Ni1C 1_555 1_555
N1 Ni1 1_555 1_555
C1 N1 1_555 1_555
C2 C1 1_555 1_555
Cl1C Ni1 1_555 1_555
Cl1B Ni1 1_555 1_555
Ni1C Cl1A 1_555 1_555
Cl1A Ni1 1_555 1_555
N1A N1 1_555 1_555
C1A N1A 1_555 1_555
C2A C2 1_555 1_555
N1B Ni1 1_555 1_555
Ni1C N1A 1_555 1_555
C1A C2A 1_555 1_555

#END
