
#######################################################################
#
#                 Cambridge Crystallographic Data Centre
#                                CCDC 
#
#######################################################################
#
# If this CIF has been generated from an entry in the Cambridge 
# Structural Database, then it will include bibliographic, chemical, 
# crystal, experimental, refinement or atomic coordinate data resulting 
# from the CCDC's data processing and validation procedures.
#
#######################################################################

data_POPDUV
_symmetry_cell_setting           monoclinic
_symmetry_space_group_name_H-M   'C 2/c'
_symmetry_Int_Tables_number      15
_space_group_name_Hall           '-C 2yn'
loop_
_symmetry_equiv_pos_site_id
_symmetry_equiv_pos_as_xyz
1 x,y,z
2 -x,y,1/2-z
3 1/2+x,1/2+y,z
4 1/2-x,1/2+y,1/2-z
5 -x,-y,-z
6 x,-y,1/2+z
7 1/2-x,1/2-y,-z
8 1/2+x,1/2-y,1/2+z
_cell_length_a                   19.671(4)
_cell_length_b                   6.0556(13)
_cell_length_c                   19.793(4)
_cell_angle_alpha                90
_cell_angle_beta                 111.098(2)
_cell_angle_gamma                90
_cell_volume                     2199.69
loop_
_atom_site_label
_atom_site_type_symbol
_atom_site_fract_x
_atom_site_fract_y
_atom_site_fract_z
Gd1 Gd 0.137133(9) 1.18107(3) 0.470411(9)
S1 S 0.10845(7) 0.7709(2) 0.22011(6)
O1 O 0.23088(15) 0.3459(4) 0.43468(15)
O2 O 0.31831(15) 0.5196(5) 0.41264(15)
O3 O 0.19227(14) 0.8622(4) 0.43086(14)
O4 O 0.10717(16) 1.0455(5) 0.34558(15)
O5 O 0.04674(16) 1.2493(5) 0.52537(17)
O6 O -0.05205(15) 1.1262(5) 0.54471(16)
O7 O 0.05317(18) 1.4399(6) 0.39174(16)
H1 H 0.0389 1.5137 0.3528
H2 H 0.0222 1.4551 0.4117
O8 O 0.16466(15) 1.5215(4) 0.53578(15)
H3 H 0.1388 1.6360 0.5275
H4 H 0.2071 1.5617 0.5413
C1 C 0.2527(2) 0.4676(6) 0.3938(2)
C2 C 0.2003(2) 0.5434(6) 0.3217(2)
C3 C 0.19157(19) 0.4209(6) 0.25212(18)
H5 H 0.2148 0.2910 0.2477
C4 C 0.1419(3) 0.5419(9) 0.1965(3)
H6 H 0.1280 0.4977 0.1484
C5 C 0.1579(2) 0.7316(7) 0.3103(2)
C6 C 0.1519(2) 0.8884(6) 0.3646(2)
C7 C -0.0012(2) 1.1090(6) 0.5202(2)
O5D O -0.04674(16) 0.7507(5) 0.47463(17)
O6D O 0.05205(15) 0.8738(5) 0.45529(16)
C7D C 0.0012(2) 0.8910(6) 0.4798(2)
Gd1D Gd -0.137133(9) 0.81893(3) 0.529589(9)
S1D S -0.10845(7) 1.2291(2) 0.77989(6)
O1D O -0.23088(15) 1.6541(4) 0.56532(15)
O2D O -0.31831(15) 1.4804(5) 0.58736(15)
O3D O -0.19227(14) 1.1378(4) 0.56914(14)
O4D O -0.10717(16) 0.9545(5) 0.65442(15)
O7D O -0.05317(18) 0.5601(6) 0.60826(16)
H1D H -0.0389 0.4863 0.6472
H2D H -0.0222 0.5449 0.5883
O8D O -0.16466(15) 0.4785(4) 0.46422(15)
H3D H -0.1388 0.3640 0.4725
H4D H -0.2071 0.4383 0.4587
C1D C -0.2527(2) 1.5324(6) 0.6062(2)
C2D C -0.2003(2) 1.4566(6) 0.6783(2)
C3D C -0.19157(19) 1.5791(6) 0.74788(18)
H5D H -0.2148 1.7090 0.7523
C4D C -0.1419(3) 1.4581(9) 0.8035(3)
H6D H -0.1280 1.5023 0.8516
C5D C -0.1579(2) 1.2684(7) 0.6897(2)
C6D C -0.1519(2) 1.1116(6) 0.6354(2)
Gd1_2 Gd 0.137133(9) 0.18107(3) 0.470411(9)
Gd1B Gd -0.362867(9) 1.68107(3) 0.470411(9)
Gd1D_2 Gd -0.137133(9) 1.81893(3) 0.529589(9)
Gd1F Gd 0.362867(9) 0.31893(3) 0.529589(9)
O1_2 O 0.23088(15) 1.3459(4) 0.43468(15)
O1B O -0.26912(15) 0.8459(4) 0.43468(15)
O1D_2 O -0.23088(15) 0.6541(4) 0.56532(15)
O1F O 0.26912(15) 1.1541(4) 0.56532(15)
O2B O -0.18169(15) 1.0196(5) 0.41264(15)
O2F O 0.18169(15) 0.9804(5) 0.58736(15)
O9 O 1.0000 0.3019(8) 0.2500
H7 H 0.9640 0.2175 0.2329
H7A H 1.0360 0.2175 0.2671
loop_
_geom_bond_atom_site_label_1
_geom_bond_atom_site_label_2
_geom_bond_site_symmetry_1
_geom_bond_site_symmetry_2
Gd1 O3 1_555 1_555
S1 C4 1_555 1_555
O1 C1 1_555 1_555
O2 C1 1_555 1_555
O3 C6 1_555 1_555
O4 Gd1 1_555 1_555
O5 Gd1 1_555 1_555
O6 C7 1_555 1_555
O7 Gd1 1_555 1_555
H1 O7 1_555 1_555
H2 O7 1_555 1_555
O8 Gd1 1_555 1_555
H3 O8 1_555 1_555
H4 O8 1_555 1_555
C1 C2 1_555 1_555
C2 C3 1_555 1_555
C3 H5 1_555 1_555
C4 C3 1_555 1_555
H6 C4 1_555 1_555
C5 S1 1_555 1_555
C6 O4 1_555 1_555
C7 O5 1_555 1_555
O9 H7 1_555 1_555
O5D C7D 1_555 1_555
O6D Gd1 1_555 1_555
C7D C7 1_555 1_555
Gd1D O6 1_555 1_555
S1D C4D 1_555 1_555
O1D C1D 1_555 1_555
O2D C1D 1_555 1_555
O3D Gd1D 1_555 1_555
O4D Gd1D 1_555 1_555
O7D Gd1D 1_555 1_555
H1D O7D 1_555 1_555
H2D O7D 1_555 1_555
O8D Gd1D 1_555 1_555
H3D O8D 1_555 1_555
H4D O8D 1_555 1_555
C1D C2D 1_555 1_555
C2D C3D 1_555 1_555
C3D H5D 1_555 1_555
C4D C3D 1_555 1_555
H6D C4D 1_555 1_555
C5D S1D 1_555 1_555
C6D O3D 1_555 1_555
Gd1_2 O1 1_555 1_555
Gd1B O1D 1_555 1_555
Gd1D_2 O1D 1_555 1_555
Gd1F O1 1_555 1_555
O1_2 Gd1 1_555 1_555
O1B Gd1D 1_555 1_555
O1D_2 Gd1D 1_555 1_555
O1F Gd1 1_555 1_555
O2B Gd1D 1_555 1_555
O2F Gd1 1_555 1_555
H7A O9 1_555 1_555
O2 Gd1F 1_555 1_555
C2 C5 1_555 1_555
C5 C6 1_555 1_555
O5D Gd1D 1_555 1_555
O6D C7D 1_555 1_555
O2D Gd1B 1_555 1_555
O4D C6D 1_555 1_555
C2D C5D 1_555 1_555
C5D C6D 1_555 1_555

#END
