
#######################################################################
#
#                 Cambridge Crystallographic Data Centre
#                                CCDC 
#
#######################################################################
#
# If this CIF has been generated from an entry in the Cambridge 
# Structural Database, then it will include bibliographic, chemical, 
# crystal, experimental, refinement or atomic coordinate data resulting 
# from the CCDC's data processing and validation procedures.
#
#######################################################################

data_POPDAB
_symmetry_cell_setting           monoclinic
_symmetry_space_group_name_H-M   'C 2/c'
_symmetry_Int_Tables_number      15
_space_group_name_Hall           '-C 2yn'
loop_
_symmetry_equiv_pos_site_id
_symmetry_equiv_pos_as_xyz
1 x,y,z
2 -x,y,1/2-z
3 1/2+x,1/2+y,z
4 1/2-x,1/2+y,1/2-z
5 -x,-y,-z
6 x,-y,1/2+z
7 1/2-x,1/2-y,-z
8 1/2+x,1/2-y,1/2+z
_cell_length_a                   32.3224(7)
_cell_length_b                   13.1789(3)
_cell_length_c                   16.2944(3)
_cell_angle_alpha                90
_cell_angle_beta                 119.738(2)
_cell_angle_gamma                90
_cell_volume                     6026.88
loop_
_atom_site_label
_atom_site_type_symbol
_atom_site_fract_x
_atom_site_fract_y
_atom_site_fract_z
Cd1 Cd -0.323871(9) 0.63377(2) 0.030339(19)
Br1 Br -0.439433(14) 0.38042(4) -0.08243(3)
Br2 Br -0.186136(16) 0.38353(4) 0.19109(3)
Br3 Br -0.346543(16) 0.34725(4) -0.17233(3)
Br4 Br -0.546227(16) 0.29798(4) -0.12862(4)
O1 O -0.30657(10) 0.4699(2) 0.0395(2)
O2 O -0.39909(10) 0.6261(2) -0.0011(2)
O3 O -0.26014(11) 0.5269(2) -0.0148(2)
O4 O -0.37095(10) 0.5226(2) 0.1226(2)
N1 N -0.12308(10) 0.7343(2) 0.2499(2)
N2 N -0.21025(10) 0.7370(2) 0.3018(2)
N3 N -0.26894(10) 0.7148(2) 0.1575(2)
N4 N -0.15436(11) 0.7771(2) 0.1011(2)
C1 C -0.13977(14) 0.6367(3) 0.4202(3)
C2 C -0.1112(2) 0.4696(4) 0.4800(4)
H1 H -0.1145 0.4094 0.5060
C3 C -0.45388(12) 0.5316(3) 0.0235(3)
C4 C -0.25432(15) 0.5724(3) 0.2685(3)
H2 H -0.2865 0.5524 0.2249
H3 H -0.2499 0.5751 0.3312
H4 H -0.2326 0.5240 0.2665
C5 C -0.29081(12) 0.2917(3) -0.0741(3)
C6 C -0.27720(13) 0.4597(3) 0.0103(3)
C7 C -0.10205(14) 0.6495(3) 0.4011(3)
C8 C -0.47449(12) 0.4478(3) -0.0334(3)
C9 C -0.51961(13) 0.4157(3) -0.0557(3)
C10 C -0.15276(14) 0.6565(3) 0.1977(3)
H5 H -0.1585 0.5968 0.2209
C11 C -0.09644(14) 0.7428(3) 0.3540(3)
H6 H -0.1078 0.8016 0.3730
H7 H -0.0629 0.7531 0.3751
C12 C -0.06947(16) 0.5704(4) 0.4240(3)
H8 H -0.0438 0.5786 0.4137
C13 C -0.22272(12) 0.3071(3) 0.0798(3)
C14 C -0.24508(12) 0.6736(3) 0.2419(3)
C15 C -0.17603(13) 0.7187(3) 0.4015(3)
H9 H -0.1935 0.7006 0.4336
H10 H -0.1592 0.7815 0.4292
C16 C -0.40313(13) 0.5626(3) 0.0521(3)
C17 C -0.12457(13) 0.8061(3) 0.1895(3)
C18 C -0.26295(12) 0.3504(3) 0.0057(3)
C19 C -0.24884(13) 0.8088(3) 0.1637(3)
H11 H -0.2588 0.8551 0.1144
C20 C -0.09666(16) 0.9008(3) 0.2199(3)
H12 H -0.1031 0.9404 0.1653
H13 H -0.1054 0.9389 0.2592
H14 H -0.0633 0.8848 0.2549
C21 C -0.0742(2) 0.4805(4) 0.4616(4)
H15 H -0.0527 0.4278 0.4744
C22 C -0.21282(13) 0.8230(3) 0.2517(3)
H16 H -0.1933 0.8799 0.2745
C23 C -0.14311(16) 0.5466(4) 0.4603(3)
H17 H -0.1676 0.5384 0.4741
C24 C -0.17177(14) 0.6833(3) 0.1072(3)
H18 H -0.1934 0.6447 0.0560
Br1D Br -0.560567(14) 0.61958(4) 0.08243(3)
Br4D Br -0.453773(16) 0.70202(4) 0.12862(4)
O2D O -0.60091(10) 0.3739(2) 0.0011(2)
O4D O -0.62905(10) 0.4774(2) -0.1226(2)
C3D C -0.54612(12) 0.4684(3) -0.0235(3)
C8D C -0.52551(12) 0.5522(3) 0.0334(3)
C9D C -0.48039(13) 0.5843(3) 0.0557(3)
C16D C -0.59687(13) 0.4374(3) -0.0521(3)
Br2F Br -0.313864(16) 0.11647(4) -0.19109(3)
Br3F Br -0.153457(16) 0.15275(4) 0.17233(3)
O1F O -0.19343(10) 0.0301(2) -0.0395(2)
O3F O -0.23986(11) -0.0269(2) 0.0148(2)
C5F C -0.20919(12) 0.2083(3) 0.0741(3)
C6F C -0.22280(13) 0.0403(3) -0.0103(3)
C13F C -0.27728(12) 0.1929(3) -0.0798(3)
C18F C -0.23705(12) 0.1496(3) -0.0057(3)
Cd1D Cd -0.676129(9) 0.36623(2) -0.030339(19)
N1D N -0.87692(10) 0.2657(2) -0.2499(2)
N2D N -0.78975(10) 0.2630(2) -0.3018(2)
N3D N -0.73106(10) 0.2852(2) -0.1575(2)
N4D N -0.84564(11) 0.2229(2) -0.1011(2)
C1D C -0.86023(14) 0.3633(3) -0.4202(3)
C2D C -0.8888(2) 0.5304(4) -0.4800(4)
H1D H -0.8855 0.5906 -0.5060
C4D C -0.74568(15) 0.4276(3) -0.2685(3)
H2D H -0.7135 0.4476 -0.2249
H3D H -0.7501 0.4249 -0.3312
H4D H -0.7674 0.4760 -0.2665
C7D C -0.89795(14) 0.3505(3) -0.4011(3)
C10D C -0.84724(14) 0.3435(3) -0.1977(3)
H5D H -0.8415 0.4032 -0.2209
C11D C -0.90356(14) 0.2572(3) -0.3540(3)
H6D H -0.8922 0.1984 -0.3730
H7D H -0.9371 0.2469 -0.3751
C12D C -0.93053(16) 0.4296(4) -0.4240(3)
H8D H -0.9562 0.4214 -0.4137
C14D C -0.75492(12) 0.3264(3) -0.2419(3)
C15D C -0.82397(13) 0.2813(3) -0.4015(3)
H9D H -0.8065 0.2994 -0.4336
H10D H -0.8408 0.2185 -0.4292
C17D C -0.87543(13) 0.1939(3) -0.1895(3)
C19D C -0.75116(13) 0.1912(3) -0.1637(3)
H11D H -0.7412 0.1449 -0.1144
C20D C -0.90334(16) 0.0992(3) -0.2199(3)
H12D H -0.8969 0.0596 -0.1653
H13D H -0.8946 0.0611 -0.2592
H14D H -0.9367 0.1152 -0.2549
C21D C -0.9258(2) 0.5195(4) -0.4616(4)
H15D H -0.9473 0.5722 -0.4744
C22D C -0.78718(13) 0.1770(3) -0.2517(3)
H16D H -0.8067 0.1201 -0.2745
C23D C -0.85689(16) 0.4534(4) -0.4603(3)
H17D H -0.8324 0.4616 -0.4741
C24D C -0.82823(14) 0.3167(3) -0.1072(3)
H18D H -0.8066 0.3553 -0.0560
Cd1B Cd -0.823871(9) 0.13377(2) 0.030339(19)
Cd1F Cd -0.176129(9) -0.13377(2) -0.030339(19)
Cd1F_2 Cd -0.176129(9) 0.86623(2) -0.030339(19)
O1D O -0.69343(10) 0.5301(2) -0.0395(2)
O3D O -0.73986(11) 0.4731(2) 0.0148(2)
N4B N -0.65436(11) 0.2771(2) 0.1011(2)
N4F N -0.34564(11) 0.7229(2) -0.1011(2)
loop_
_geom_bond_atom_site_label_1
_geom_bond_atom_site_label_2
_geom_bond_site_symmetry_1
_geom_bond_site_symmetry_2
Cd1 O1 1_555 1_555
Br1 C8 1_555 1_555
Br2 C13 1_555 1_555
Br3 C5 1_555 1_555
Br4 C9 1_555 1_555
O1 C6 1_555 1_555
O2 Cd1 1_555 1_555
O3 Cd1 1_555 1_555
O4 C16 1_555 1_555
N1 C10 1_555 1_555
N2 C14 1_555 1_555
N3 Cd1 1_555 1_555
N4 C17 1_555 1_555
C1 C7 1_555 1_555
C2 H1 1_555 1_555
C3 C8 1_555 1_555
C4 H2 1_555 1_555
H3 C4 1_555 1_555
H4 C4 1_555 1_555
C5 C18 1_555 1_555
C6 O3 1_555 1_555
C7 C11 1_555 1_555
C8 C9 1_555 1_555
C9 C3D 1_555 1_555
C10 H5 1_555 1_555
C11 N1 1_555 1_555
H6 C11 1_555 1_555
H7 C11 1_555 1_555
C12 C7 1_555 1_555
H8 C12 1_555 1_555
C13 C18 1_555 1_555
C14 N3 1_555 1_555
C15 N2 1_555 1_555
H9 C15 1_555 1_555
H10 C15 1_555 1_555
C16 O2 1_555 1_555
C17 N1 1_555 1_555
C18 C6 1_555 1_555
C19 N3 1_555 1_555
H11 C19 1_555 1_555
C20 C17 1_555 1_555
H12 C20 1_555 1_555
H13 C20 1_555 1_555
H14 C20 1_555 1_555
C21 C2 1_555 1_555
H15 C21 1_555 1_555
C22 N2 1_555 1_555
H16 C22 1_555 1_555
C23 C1 1_555 1_555
H17 C23 1_555 1_555
C24 N4 1_555 1_555
H18 C24 1_555 1_555
Br1D C8D 1_555 1_555
Br4D C9D 1_555 1_555
O2D C16D 1_555 1_555
O4D C16D 1_555 1_555
C3D C8D 1_555 1_555
C8D C9D 1_555 1_555
C9D C3 1_555 1_555
C16D C3D 1_555 1_555
Br2F C13F 1_555 1_555
Br3F C5F 1_555 1_555
O1F C6F 1_555 1_555
O3F C6F 1_555 1_555
C5F C13 1_555 1_555
C6F C18F 1_555 1_555
C13F C5 1_555 1_555
C18F C5F 1_555 1_555
Cd1D O2D 1_555 1_555
N1D C10D 1_555 1_555
N2D C14D 1_555 1_555
N3D Cd1D 1_555 1_555
N4D C17D 1_555 1_555
C1D C7D 1_555 1_555
C2D H1D 1_555 1_555
C4D H2D 1_555 1_555
H3D C4D 1_555 1_555
H4D C4D 1_555 1_555
C7D C11D 1_555 1_555
C10D H5D 1_555 1_555
C11D N1D 1_555 1_555
H6D C11D 1_555 1_555
H7D C11D 1_555 1_555
C12D C7D 1_555 1_555
H8D C12D 1_555 1_555
C14D N3D 1_555 1_555
C15D N2D 1_555 1_555
H9D C15D 1_555 1_555
H10D C15D 1_555 1_555
C17D N1D 1_555 1_555
C19D N3D 1_555 1_555
H11D C19D 1_555 1_555
C20D C17D 1_555 1_555
H12D C20D 1_555 1_555
H13D C20D 1_555 1_555
H14D C20D 1_555 1_555
C21D C2D 1_555 1_555
H15D C21D 1_555 1_555
C22D N2D 1_555 1_555
H16D C22D 1_555 1_555
C23D C1D 1_555 1_555
H17D C23D 1_555 1_555
C24D N4D 1_555 1_555
H18D C24D 1_555 1_555
Cd1B N4D 1_555 1_555
Cd1F O1F 1_555 1_555
Cd1F_2 N4 1_555 1_555
O1D Cd1D 1_555 1_555
O3D Cd1D 1_555 1_555
N4B Cd1D 1_555 1_555
N4F Cd1 1_555 1_555
C1 C15 1_555 1_555
C2 C23 1_555 1_555
C3 C16 1_555 1_555
C4 C14 1_555 1_555
C10 C24 1_555 1_555
C12 C21 1_555 1_555
C19 C22 1_555 1_555
O3F Cd1F 1_555 1_555
C13F C18F 1_555 1_555
C1D C15D 1_555 1_555
C2D C23D 1_555 1_555
C4D C14D 1_555 1_555
C10D C24D 1_555 1_555
C12D C21D 1_555 1_555
C19D C22D 1_555 1_555

#END
