
#######################################################################
#
#                 Cambridge Crystallographic Data Centre
#                                CCDC 
#
#######################################################################
#
# If this CIF has been generated from an entry in the Cambridge 
# Structural Database, then it will include bibliographic, chemical, 
# crystal, experimental, refinement or atomic coordinate data resulting 
# from the CCDC's data processing and validation procedures.
#
#######################################################################

data_POPDOP
_symmetry_cell_setting           monoclinic
_symmetry_space_group_name_H-M   'C 2/c'
_symmetry_Int_Tables_number      15
_space_group_name_Hall           '-C 2yn'
loop_
_symmetry_equiv_pos_site_id
_symmetry_equiv_pos_as_xyz
1 x,y,z
2 -x,y,1/2-z
3 1/2+x,1/2+y,z
4 1/2-x,1/2+y,1/2-z
5 -x,-y,-z
6 x,-y,1/2+z
7 1/2-x,1/2-y,-z
8 1/2+x,1/2-y,1/2+z
_cell_length_a                   19.746(6)
_cell_length_b                   6.0662(19)
_cell_length_c                   19.785(6)
_cell_angle_alpha                90
_cell_angle_beta                 111.051(3)
_cell_angle_gamma                90
_cell_volume                     2211.75
loop_
_atom_site_label
_atom_site_type_symbol
_atom_site_fract_x
_atom_site_fract_y
_atom_site_fract_z
Eu1 Eu 0.137186(11) 1.18085(3) 0.470536(11)
S1 S 0.10835(9) 0.7707(3) 0.22008(8)
O1 O 0.23060(17) 0.3477(5) 0.43438(17)
O2 O 0.31758(17) 0.5198(6) 0.41228(18)
O3 O 0.19218(16) 0.8621(5) 0.43059(16)
O4 O 0.10727(17) 1.0448(6) 0.34526(17)
O5 O 0.04670(18) 1.2482(5) 0.52571(19)
O6 O -0.05174(17) 1.1261(5) 0.54466(18)
O7 O 0.0530(2) 1.4417(6) 0.39153(19)
H1 H 0.0387 1.5155 0.3525
H2 H 0.0220 1.4569 0.4115
O8 O 0.16458(17) 1.5220(5) 0.53598(17)
H3 H 0.1387 1.6365 0.5277
H4 H 0.2070 1.5623 0.5415
C1 C 0.2522(2) 0.4675(7) 0.3935(2)
C2 C 0.1997(2) 0.5439(7) 0.3216(2)
C3 C 0.1912(2) 0.4225(7) 0.2524(2)
H5 H 0.2144 0.2927 0.2482
C4 C 0.1422(3) 0.5414(11) 0.1966(3)
H6 H 0.1287 0.4968 0.1486
C5 C 0.1581(3) 0.7322(8) 0.3101(2)
C6 C 0.1522(2) 0.8890(7) 0.3643(2)
C7 C -0.0010(2) 1.1092(7) 0.5202(2)
O5D O -0.04670(18) 0.7518(5) 0.47429(19)
O6D O 0.05174(17) 0.8739(5) 0.45534(18)
C7D C 0.0010(2) 0.8908(7) 0.4798(2)
Eu1D Eu -0.137186(11) 0.81915(3) 0.529464(11)
S1D S -0.10835(9) 1.2293(3) 0.77992(8)
O1D O -0.23060(17) 1.6523(5) 0.56562(17)
O2D O -0.31758(17) 1.4802(6) 0.58772(18)
O3D O -0.19218(16) 1.1379(5) 0.56941(16)
O4D O -0.10727(17) 0.9552(6) 0.65474(17)
O7D O -0.0530(2) 0.5583(6) 0.60847(19)
H1D H -0.0387 0.4845 0.6475
H2D H -0.0220 0.5431 0.5885
O8D O -0.16458(17) 0.4780(5) 0.46402(17)
H3D H -0.1387 0.3635 0.4723
H4D H -0.2070 0.4377 0.4585
C1D C -0.2522(2) 1.5325(7) 0.6065(2)
C2D C -0.1997(2) 1.4561(7) 0.6784(2)
C3D C -0.1912(2) 1.5775(7) 0.7476(2)
H5D H -0.2144 1.7073 0.7518
C4D C -0.1422(3) 1.4586(11) 0.8034(3)
H6D H -0.1287 1.5032 0.8514
C5D C -0.1581(3) 1.2678(8) 0.6899(2)
C6D C -0.1522(2) 1.1110(7) 0.6357(2)
Eu1_2 Eu 0.137186(11) 0.18085(3) 0.470536(11)
Eu1B Eu -0.362814(11) 1.68085(3) 0.470536(11)
Eu1D_2 Eu -0.137186(11) 1.81915(3) 0.529464(11)
Eu1F Eu 0.362814(11) 0.31915(3) 0.529464(11)
O1_2 O 0.23060(17) 1.3477(5) 0.43438(17)
O1B O -0.26940(17) 0.8477(5) 0.43438(17)
O1D_2 O -0.23060(17) 0.6523(5) 0.56562(17)
O1F O 0.26940(17) 1.1523(5) 0.56562(17)
O2B O -0.18242(17) 1.0198(6) 0.41228(18)
O2F O 0.18242(17) 0.9802(6) 0.58772(18)
O9 O 1.0000 0.2996(9) 0.2500
H7 H 0.9640 0.2152 0.2329
H7A H 1.0360 0.2152 0.2671
loop_
_geom_bond_atom_site_label_1
_geom_bond_atom_site_label_2
_geom_bond_site_symmetry_1
_geom_bond_site_symmetry_2
Eu1 O3 1_555 1_555
S1 C4 1_555 1_555
O1 C1 1_555 1_555
O2 C1 1_555 1_555
O3 C6 1_555 1_555
O4 Eu1 1_555 1_555
O5 Eu1 1_555 1_555
O6 C7 1_555 1_555
O7 Eu1 1_555 1_555
H1 O7 1_555 1_555
H2 O7 1_555 1_555
O8 Eu1 1_555 1_555
H3 O8 1_555 1_555
H4 O8 1_555 1_555
C1 C2 1_555 1_555
C2 C3 1_555 1_555
C3 H5 1_555 1_555
C4 C3 1_555 1_555
H6 C4 1_555 1_555
C5 S1 1_555 1_555
C6 O4 1_555 1_555
C7 O5 1_555 1_555
O9 H7 1_555 1_555
O5D C7D 1_555 1_555
O6D Eu1 1_555 1_555
C7D C7 1_555 1_555
Eu1D O6 1_555 1_555
S1D C4D 1_555 1_555
O1D C1D 1_555 1_555
O2D C1D 1_555 1_555
O3D Eu1D 1_555 1_555
O4D Eu1D 1_555 1_555
O7D Eu1D 1_555 1_555
H1D O7D 1_555 1_555
H2D O7D 1_555 1_555
O8D Eu1D 1_555 1_555
H3D O8D 1_555 1_555
H4D O8D 1_555 1_555
C1D C2D 1_555 1_555
C2D C3D 1_555 1_555
C3D H5D 1_555 1_555
C4D C3D 1_555 1_555
H6D C4D 1_555 1_555
C5D S1D 1_555 1_555
C6D O3D 1_555 1_555
Eu1_2 O1 1_555 1_555
Eu1B O1D 1_555 1_555
Eu1D_2 O1D 1_555 1_555
Eu1F O1 1_555 1_555
O1_2 Eu1 1_555 1_555
O1B Eu1D 1_555 1_555
O1D_2 Eu1D 1_555 1_555
O1F Eu1 1_555 1_555
O2B Eu1D 1_555 1_555
O2F Eu1 1_555 1_555
H7A O9 1_555 1_555
O2 Eu1F 1_555 1_555
C2 C5 1_555 1_555
C5 C6 1_555 1_555
O5D Eu1D 1_555 1_555
O6D C7D 1_555 1_555
O2D Eu1B 1_555 1_555
O4D C6D 1_555 1_555
C2D C5D 1_555 1_555
C5D C6D 1_555 1_555

#END
