
#######################################################################
#
#                 Cambridge Crystallographic Data Centre
#                                CCDC 
#
#######################################################################
#
# If this CIF has been generated from an entry in the Cambridge 
# Structural Database, then it will include bibliographic, chemical, 
# crystal, experimental, refinement or atomic coordinate data resulting 
# from the CCDC's data processing and validation procedures.
#
#######################################################################

data_POPFAD
_symmetry_cell_setting           monoclinic
_symmetry_space_group_name_H-M   'C 2/c'
_symmetry_Int_Tables_number      15
_space_group_name_Hall           '-C 2yn'
loop_
_symmetry_equiv_pos_site_id
_symmetry_equiv_pos_as_xyz
1 x,y,z
2 -x,y,1/2-z
3 1/2+x,1/2+y,z
4 1/2-x,1/2+y,1/2-z
5 -x,-y,-z
6 x,-y,1/2+z
7 1/2-x,1/2-y,-z
8 1/2+x,1/2-y,1/2+z
_cell_length_a                   19.621(3)
_cell_length_b                   6.0421(9)
_cell_length_c                   19.795(3)
_cell_angle_alpha                90
_cell_angle_beta                 111.0900(10)
_cell_angle_gamma                90
_cell_volume                     2189.54
loop_
_atom_site_label
_atom_site_type_symbol
_atom_site_fract_x
_atom_site_fract_y
_atom_site_fract_z
Tb1 Tb 0.136880(11) 1.18107(3) 0.470511(11)
S1 S 0.10837(9) 0.7736(3) 0.22043(8)
O1 O 0.22997(18) 0.3461(5) 0.43480(18)
O2 O 0.31828(18) 0.5176(6) 0.41358(18)
O3 O 0.19170(17) 0.8636(5) 0.43136(17)
O4 O 0.10649(19) 1.0477(6) 0.34599(18)
O5 O 0.04693(19) 1.2495(6) 0.5255(2)
O6 O -0.05185(18) 1.1258(6) 0.54490(19)
O7 O 0.0531(2) 1.4394(7) 0.3924(2)
H1 H 0.0388 1.5131 0.3534
H2 H 0.0221 1.4546 0.4123
O8 O 0.16458(18) 1.5189(5) 0.53593(18)
H3 H 0.1387 1.6334 0.5276
H4 H 0.2070 1.5591 0.5414
C1 C 0.2523(2) 0.4672(7) 0.3943(2)
C2 C 0.1999(2) 0.5445(8) 0.3220(2)
C3 C 0.1915(2) 0.4228(7) 0.2523(2)
H5 H 0.2148 0.2928 0.2477
C4 C 0.1420(4) 0.5445(12) 0.1969(3)
H6 H 0.1281 0.5006 0.1488
C5 C 0.1579(3) 0.7337(8) 0.3107(3)
C6 C 0.1516(2) 0.8905(8) 0.3650(2)
C7 C -0.0010(2) 1.1089(8) 0.5204(2)
O5D O -0.04693(19) 0.7505(6) 0.4745(2)
O6D O 0.05185(18) 0.8742(6) 0.45510(19)
C7D C 0.0010(2) 0.8911(8) 0.4796(2)
Tb1D Tb -0.136880(11) 0.81893(3) 0.529489(11)
S1D S -0.10837(9) 1.2264(3) 0.77957(8)
O1D O -0.22997(18) 1.6539(5) 0.56520(18)
O2D O -0.31828(18) 1.4824(6) 0.58642(18)
O3D O -0.19170(17) 1.1364(5) 0.56864(17)
O4D O -0.10649(19) 0.9523(6) 0.65401(18)
O7D O -0.0531(2) 0.5606(7) 0.6076(2)
H1D H -0.0388 0.4869 0.6466
H2D H -0.0221 0.5454 0.5877
O8D O -0.16458(18) 0.4811(5) 0.46407(18)
H3D H -0.1387 0.3666 0.4724
H4D H -0.2070 0.4409 0.4586
C1D C -0.2523(2) 1.5328(7) 0.6057(2)
C2D C -0.1999(2) 1.4555(8) 0.6780(2)
C3D C -0.1915(2) 1.5772(7) 0.7477(2)
H5D H -0.2148 1.7072 0.7523
C4D C -0.1420(4) 1.4555(12) 0.8031(3)
H6D H -0.1281 1.4994 0.8512
C5D C -0.1579(3) 1.2663(8) 0.6893(3)
C6D C -0.1516(2) 1.1095(8) 0.6350(2)
Tb1_2 Tb 0.136880(11) 0.18107(3) 0.470511(11)
Tb1B Tb -0.363120(11) 1.68107(3) 0.470511(11)
Tb1D_2 Tb -0.136880(11) 1.81893(3) 0.529489(11)
Tb1F Tb 0.363120(11) 0.31893(3) 0.529489(11)
O1_2 O 0.22997(18) 1.3461(5) 0.43480(18)
O1B O -0.27003(18) 0.8461(5) 0.43480(18)
O1D_2 O -0.22997(18) 0.6539(5) 0.56520(18)
O1F O 0.27003(18) 1.1539(5) 0.56520(18)
O2B O -0.18172(18) 1.0176(6) 0.41358(18)
O2F O 0.18172(18) 0.9824(6) 0.58642(18)
O9 O 1.0000 0.3049(9) 0.2500
H7 H 0.9640 0.2205 0.2329
H7A H 1.0360 0.2205 0.2671
loop_
_geom_bond_atom_site_label_1
_geom_bond_atom_site_label_2
_geom_bond_site_symmetry_1
_geom_bond_site_symmetry_2
Tb1 O3 1_555 1_555
S1 C4 1_555 1_555
O1 C1 1_555 1_555
O2 C1 1_555 1_555
O3 C6 1_555 1_555
O4 Tb1 1_555 1_555
O5 Tb1 1_555 1_555
O6 C7 1_555 1_555
O7 Tb1 1_555 1_555
H1 O7 1_555 1_555
H2 O7 1_555 1_555
O8 Tb1 1_555 1_555
H3 O8 1_555 1_555
H4 O8 1_555 1_555
C1 C2 1_555 1_555
C2 C3 1_555 1_555
C3 H5 1_555 1_555
C4 C3 1_555 1_555
H6 C4 1_555 1_555
C5 S1 1_555 1_555
C6 O4 1_555 1_555
C7 O5 1_555 1_555
O9 H7 1_555 1_555
O5D C7D 1_555 1_555
O6D Tb1 1_555 1_555
C7D C7 1_555 1_555
Tb1D O6 1_555 1_555
S1D C4D 1_555 1_555
O1D C1D 1_555 1_555
O2D C1D 1_555 1_555
O3D Tb1D 1_555 1_555
O4D Tb1D 1_555 1_555
O7D Tb1D 1_555 1_555
H1D O7D 1_555 1_555
H2D O7D 1_555 1_555
O8D Tb1D 1_555 1_555
H3D O8D 1_555 1_555
H4D O8D 1_555 1_555
C1D C2D 1_555 1_555
C2D C3D 1_555 1_555
C3D H5D 1_555 1_555
C4D C3D 1_555 1_555
H6D C4D 1_555 1_555
C5D S1D 1_555 1_555
C6D O3D 1_555 1_555
Tb1_2 O1 1_555 1_555
Tb1B O1D 1_555 1_555
Tb1D_2 O1D 1_555 1_555
Tb1F O1 1_555 1_555
O1_2 Tb1 1_555 1_555
O1B Tb1D 1_555 1_555
O1D_2 Tb1D 1_555 1_555
O1F Tb1 1_555 1_555
O2B Tb1D 1_555 1_555
O2F Tb1 1_555 1_555
H7A O9 1_555 1_555
O2 Tb1F 1_555 1_555
C2 C5 1_555 1_555
C5 C6 1_555 1_555
O5D Tb1D 1_555 1_555
O6D C7D 1_555 1_555
O2D Tb1B 1_555 1_555
O4D C6D 1_555 1_555
C2D C5D 1_555 1_555
C5D C6D 1_555 1_555

#END
