
#######################################################################
#
#                 Cambridge Crystallographic Data Centre
#                                CCDC 
#
#######################################################################
#
# If this CIF has been generated from an entry in the Cambridge 
# Structural Database, then it will include bibliographic, chemical, 
# crystal, experimental, refinement or atomic coordinate data resulting 
# from the CCDC's data processing and validation procedures.
#
#######################################################################

data_POPFEH
_symmetry_cell_setting           monoclinic
_symmetry_space_group_name_H-M   'C 2/c'
_symmetry_Int_Tables_number      15
_space_group_name_Hall           '-C 2yn'
loop_
_symmetry_equiv_pos_site_id
_symmetry_equiv_pos_as_xyz
1 x,y,z
2 -x,y,1/2-z
3 1/2+x,1/2+y,z
4 1/2-x,1/2+y,1/2-z
5 -x,-y,-z
6 x,-y,1/2+z
7 1/2-x,1/2-y,-z
8 1/2+x,1/2-y,1/2+z
_cell_length_a                   19.489(5)
_cell_length_b                   6.0107(16)
_cell_length_c                   19.762(5)
_cell_angle_alpha                90
_cell_angle_beta                 111.257(2)
_cell_angle_gamma                90
_cell_volume                     2157.47
loop_
_atom_site_label
_atom_site_type_symbol
_atom_site_fract_x
_atom_site_fract_y
_atom_site_fract_z
Ho1 Ho 0.136604(10) 1.18113(3) 0.470600(10)
S1 S 0.10814(8) 0.7766(3) 0.22083(7)
O1 O 0.22941(17) 0.3454(5) 0.43523(17)
O2 O 0.31856(16) 0.5161(6) 0.41465(17)
O3 O 0.19154(16) 0.8649(5) 0.43227(16)
O4 O 0.10594(17) 1.0499(6) 0.34679(17)
O5 O 0.04701(18) 1.2511(5) 0.52538(19)
O6 O -0.05212(17) 1.1253(5) 0.54520(18)
O7 O 0.0532(2) 1.4375(6) 0.39329(18)
H1 H 0.0389 1.5112 0.3543
H2 H 0.0222 1.4527 0.4132
O8 O 0.16491(16) 1.5167(5) 0.53589(17)
H3 H 0.1390 1.6312 0.5276
H4 H 0.2073 1.5570 0.5414
C1 C 0.2520(2) 0.4665(7) 0.3947(2)
C2 C 0.1999(2) 0.5447(7) 0.3226(2)
C3 C 0.1917(2) 0.4231(7) 0.2525(2)
H5 H 0.2152 0.2924 0.2479
C4 C 0.1419(3) 0.5468(11) 0.1968(3)
H6 H 0.1281 0.5038 0.1485
C5 C 0.1573(2) 0.7349(8) 0.3112(2)
C6 C 0.1510(2) 0.8915(7) 0.3655(2)
C7 C -0.0010(2) 1.1091(7) 0.5203(2)
O5D O -0.04701(18) 0.7489(5) 0.47462(19)
O6D O 0.05212(17) 0.8747(5) 0.45480(18)
C7D C 0.0010(2) 0.8909(7) 0.4797(2)
Ho1D Ho -0.136604(10) 0.81887(3) 0.529400(10)
S1D S -0.10814(8) 1.2234(3) 0.77917(7)
O1D O -0.22941(17) 1.6546(5) 0.56477(17)
O2D O -0.31856(16) 1.4839(6) 0.58535(17)
O3D O -0.19154(16) 1.1351(5) 0.56773(16)
O4D O -0.10594(17) 0.9501(6) 0.65321(17)
O7D O -0.0532(2) 0.5625(6) 0.60671(18)
H1D H -0.0389 0.4888 0.6457
H2D H -0.0222 0.5473 0.5868
O8D O -0.16491(16) 0.4833(5) 0.46411(17)
H3D H -0.1390 0.3688 0.4724
H4D H -0.2073 0.4430 0.4586
C1D C -0.2520(2) 1.5335(7) 0.6053(2)
C2D C -0.1999(2) 1.4553(7) 0.6774(2)
C3D C -0.1917(2) 1.5769(7) 0.7475(2)
H5D H -0.2152 1.7076 0.7521
C4D C -0.1419(3) 1.4532(11) 0.8032(3)
H6D H -0.1281 1.4962 0.8515
C5D C -0.1573(2) 1.2651(8) 0.6888(2)
C6D C -0.1510(2) 1.1085(7) 0.6345(2)
Ho1_2 Ho 0.136604(10) 0.18113(3) 0.470600(10)
Ho1B Ho -0.363396(10) 1.68113(3) 0.470600(10)
Ho1D_2 Ho -0.136604(10) 1.81887(3) 0.529400(10)
Ho1F Ho 0.363396(10) 0.31887(3) 0.529400(10)
O1_2 O 0.22941(17) 1.3454(5) 0.43523(17)
O1B O -0.27059(17) 0.8454(5) 0.43523(17)
O1D_2 O -0.22941(17) 0.6546(5) 0.56477(17)
O1F O 0.27059(17) 1.1546(5) 0.56477(17)
O2B O -0.18144(16) 1.0161(6) 0.41465(17)
O2F O 0.18144(16) 0.9839(6) 0.58535(17)
O9 O 1.0000 0.3099(9) 0.2500
H7 H 0.9640 0.2255 0.2329
H7A H 1.0360 0.2255 0.2671
loop_
_geom_bond_atom_site_label_1
_geom_bond_atom_site_label_2
_geom_bond_site_symmetry_1
_geom_bond_site_symmetry_2
Ho1 O3 1_555 1_555
S1 C4 1_555 1_555
O1 C1 1_555 1_555
O2 C1 1_555 1_555
O3 C6 1_555 1_555
O4 Ho1 1_555 1_555
O5 Ho1 1_555 1_555
O6 C7 1_555 1_555
O7 Ho1 1_555 1_555
H1 O7 1_555 1_555
H2 O7 1_555 1_555
O8 Ho1 1_555 1_555
H3 O8 1_555 1_555
H4 O8 1_555 1_555
C1 C2 1_555 1_555
C2 C3 1_555 1_555
C3 H5 1_555 1_555
C4 C3 1_555 1_555
H6 C4 1_555 1_555
C5 S1 1_555 1_555
C6 O4 1_555 1_555
C7 O5 1_555 1_555
O9 H7 1_555 1_555
O5D C7D 1_555 1_555
O6D Ho1 1_555 1_555
C7D C7 1_555 1_555
Ho1D O6 1_555 1_555
S1D C4D 1_555 1_555
O1D C1D 1_555 1_555
O2D C1D 1_555 1_555
O3D Ho1D 1_555 1_555
O4D Ho1D 1_555 1_555
O7D Ho1D 1_555 1_555
H1D O7D 1_555 1_555
H2D O7D 1_555 1_555
O8D Ho1D 1_555 1_555
H3D O8D 1_555 1_555
H4D O8D 1_555 1_555
C1D C2D 1_555 1_555
C2D C3D 1_555 1_555
C3D H5D 1_555 1_555
C4D C3D 1_555 1_555
H6D C4D 1_555 1_555
C5D S1D 1_555 1_555
C6D O3D 1_555 1_555
Ho1_2 O1 1_555 1_555
Ho1B O1D 1_555 1_555
Ho1D_2 O1D 1_555 1_555
Ho1F O1 1_555 1_555
O1_2 Ho1 1_555 1_555
O1B Ho1D 1_555 1_555
O1D_2 Ho1D 1_555 1_555
O1F Ho1 1_555 1_555
O2B Ho1D 1_555 1_555
O2F Ho1 1_555 1_555
H7A O9 1_555 1_555
O2 Ho1F 1_555 1_555
C2 C5 1_555 1_555
C5 C6 1_555 1_555
O5D Ho1D 1_555 1_555
O6D C7D 1_555 1_555
O2D Ho1B 1_555 1_555
O4D C6D 1_555 1_555
C2D C5D 1_555 1_555
C5D C6D 1_555 1_555

#END
