
#######################################################################
#
#                 Cambridge Crystallographic Data Centre
#                                CCDC 
#
#######################################################################
#
# If this CIF has been generated from an entry in the Cambridge 
# Structural Database, then it will include bibliographic, chemical, 
# crystal, experimental, refinement or atomic coordinate data resulting 
# from the CCDC's data processing and validation procedures.
#
#######################################################################

data_POPICR12
_symmetry_cell_setting           orthorhombic
_symmetry_space_group_name_H-M   'I b c a'
_symmetry_Int_Tables_number      73
_space_group_name_Hall           '-I 2b 2c'
loop_
_symmetry_equiv_pos_site_id
_symmetry_equiv_pos_as_xyz
1 x,y,z
2 1/2+x,1/2+y,1/2+z
3 -x,1/2-y,z
4 x,-y,1/2-z
5 -x,1/2+y,1/2-z
6 1/2-x,-y,1/2+z
7 1/2+x,1/2-y,-z
8 1/2-x,y,-z
9 -x,-y,-z
10 1/2-x,1/2-y,1/2-z
11 x,1/2+y,-z
12 -x,y,1/2+z
13 x,1/2-y,1/2+z
14 1/2+x,y,1/2-z
15 1/2-x,1/2+y,z
16 1/2+x,-y,z
_cell_length_a                   6.9898(10)
_cell_length_b                   13.356(3)
_cell_length_c                   19.150(3)
_cell_angle_alpha                90
_cell_angle_beta                 90
_cell_angle_gamma                90
_cell_volume                     1787.76
loop_
_atom_site_label
_atom_site_type_symbol
_atom_site_fract_x
_atom_site_fract_y
_atom_site_fract_z
K1 K -0.25000 0.11675(3) 0.00000
O1 O 0.00000 0.25000 0.05743(6)
O2 O 0.08446(15) 0.05422(7) 0.07211(5)
O3 O 0.25244(14) 0.02431(7) 0.16474(5)
O4 O 0.06388(15) 0.17615(8) 0.37842(5)
N1 N 0.13726(16) 0.07565(8) 0.13156(6)
N2 N 0.00000 0.25000 0.34782(8)
C1 C 0.00000 0.25000 0.12258(9)
C2 C 0.06221(18) 0.16575(9) 0.16529(6)
C3 C 0.06490(18) 0.16566(9) 0.23719(6)
C4 C 0.00000 0.25000 0.27236(9)
H1 H 0.111(2) 0.1090(11) 0.2607(8)
O4B O -0.06388(15) 0.32385(8) 0.37842(5)
C3B C -0.06490(18) 0.33434(9) 0.23719(6)
C2B C -0.06221(18) 0.33425(9) 0.16529(6)
N1B N -0.13726(16) 0.42435(8) 0.13156(6)
O2B O -0.08446(15) 0.44578(7) 0.07211(5)
O3B O -0.25244(14) 0.47569(7) 0.16474(5)
H1B H -0.111(2) 0.3910(11) 0.2607(8)
O1F O -0.50000 0.25000 -0.05743(6)
O2O O -0.41554(15) -0.05422(7) 0.07211(5)
O2H O -0.08446(15) -0.05422(7) -0.07211(5)
O2G O -0.58446(15) 0.05422(7) -0.07211(5)
O4K O -0.06388(15) 0.17615(8) -0.12158(5)
O4M O -0.43612(15) 0.17615(8) 0.12158(5)
K1B K 0.25000 0.38325(3) 0.00000
K1O K 0.25000 -0.11675(3) 0.00000
K1K K 0.25000 0.11675(3) 0.50000
K1L K -0.25000 0.38325(3) 0.50000
K1J K -0.25000 0.61675(3) 0.00000
loop_
_geom_bond_atom_site_label_1
_geom_bond_atom_site_label_2
_geom_bond_site_symmetry_1
_geom_bond_site_symmetry_2
K1 O1 1_555 1_555
O1 C1 1_555 1_555
O2 K1 1_555 1_555
O3 N1 1_555 1_555
O4 N2 1_555 1_555
N1 O2 1_555 1_555
N2 C4 1_555 1_555
C1 C2 1_555 1_555
C2 N1 1_555 1_555
C3 C2 1_555 1_555
C4 C3 1_555 1_555
H1 C3 1_555 1_555
O4B N2 1_555 1_555
C3B C4 1_555 1_555
C2B C1 1_555 1_555
N1B C2B 1_555 1_555
O2B N1B 1_555 1_555
O3B N1B 1_555 1_555
H1B C3B 1_555 1_555
O1F K1 1_555 1_555
O2O K1 1_555 1_555
O2H K1 1_555 1_555
O2G K1 1_555 1_555
O4K K1 1_555 1_555
O4M K1 1_555 1_555
K1B O1 1_555 1_555
K1O O2 1_555 1_555
K1K O4 1_555 1_555
K1L O4B 1_555 1_555
K1J O2B 1_555 1_555
C3B C2B 1_555 1_555
O2B K1B 1_555 1_555
O2H K1O 1_555 1_555

#END
