
#######################################################################
#
#                 Cambridge Crystallographic Data Centre
#                                CCDC 
#
#######################################################################
#
# If this CIF has been generated from an entry in the Cambridge 
# Structural Database, then it will include bibliographic, chemical, 
# crystal, experimental, refinement or atomic coordinate data resulting 
# from the CCDC's data processing and validation procedures.
#
#######################################################################

data_POPICR01
_symmetry_cell_setting           orthorhombic
_symmetry_space_group_name_H-M   'I b c a'
_symmetry_Int_Tables_number      73
_space_group_name_Hall           '-I 2b 2c'
loop_
_symmetry_equiv_pos_site_id
_symmetry_equiv_pos_as_xyz
1 x,y,z
2 -x,1/2-y,z
3 x,-y,1/2-z
4 -x,1/2+y,1/2-z
5 1/2+x,1/2+y,1/2+z
6 1/2-x,-y,1/2+z
7 1/2+x,1/2-y,-z
8 1/2-x,y,-z
9 -x,-y,-z
10 x,1/2+y,-z
11 -x,y,1/2+z
12 x,1/2-y,1/2+z
13 1/2-x,1/2-y,1/2-z
14 1/2+x,y,1/2-z
15 1/2-x,1/2+y,z
16 1/2+x,-y,z
_cell_length_a                   13.316(3)
_cell_length_b                   19.107(5)
_cell_length_c                   7.138(2)
_cell_angle_alpha                90
_cell_angle_beta                 90
_cell_angle_gamma                90
_cell_volume                     1816.11
loop_
_atom_site_label
_atom_site_type_symbol
_atom_site_fract_x
_atom_site_fract_y
_atom_site_fract_z
C1 C 0.2500 0.1219(1) 0.0000
O1 O 0.2500 0.05682(7) 0.0000
C2 C 0.1664(1) 0.16452(7) -0.0629(2)
N1 N 0.07662(9) 0.13059(7) -0.1376(2)
O2 O 0.05454(8) 0.07187(6) -0.0841(2)
O3 O 0.02639(9) 0.16325(7) -0.2524(2)
C3 C 0.1665(1) 0.23651(7) -0.0667(2)
C4 C 0.2500 0.2716(1) 0.0000
N2 N 0.2500 0.34695(9) 0.0000
O4 O 0.1788(1) 0.37757(6) -0.0712(2)
K1 K 0.11701(3) 0.00000 0.2500
H1 H 0.107(1) 0.261(1) -0.119(3)
C3G C 0.3335(1) 0.23651(7) 0.0667(2)
C2G C 0.3336(1) 0.16452(7) 0.0629(2)
N1G N 0.42338(9) 0.13059(7) 0.1376(2)
O2G O 0.44546(8) 0.07187(6) 0.0841(2)
O3G O 0.47361(9) 0.16325(7) 0.2524(2)
H1G H 0.393(1) 0.261(1) 0.119(3)
O4G O 0.3212(1) 0.37757(6) 0.0712(2)
K1E K 0.38299(3) 0.00000 -0.2500
K1H K -0.11701(3) 0.00000 -0.2500
K1I K 0.11701(3) 0.50000 -0.2500
O1B O 0.2500 -0.05682(7) 0.5000
O2B O 0.05454(8) -0.07187(6) 0.5841(2)
O2H O -0.05454(8) -0.07187(6) 0.0841(2)
O2J O -0.05454(8) 0.07187(6) 0.4159(2)
O4I O 0.1788(1) -0.12243(6) 0.0712(2)
O4K O 0.1788(1) 0.12243(6) 0.4288(2)
K1M K 0.61701(3) 0.00000 0.2500
K1L K 0.38299(3) 0.50000 0.2500
loop_
_geom_bond_atom_site_label_1
_geom_bond_atom_site_label_2
_geom_bond_site_symmetry_1
_geom_bond_site_symmetry_2
C1 O1 1_555 1_555
O1 K1 1_555 1_555
C2 C1 1_555 1_555
N1 C2 1_555 1_555
O2 N1 1_555 1_555
O3 N1 1_555 1_555
C3 C2 1_555 1_555
C4 C3 1_555 1_555
N2 C4 1_555 1_555
O4 N2 1_555 1_555
K1 O2 1_555 1_555
H1 C3 1_555 1_555
C3G C4 1_555 1_555
C2G C1 1_555 1_555
N1G C2G 1_555 1_555
O2G N1G 1_555 1_555
O3G N1G 1_555 1_555
H1G C3G 1_555 1_555
O4G N2 1_555 1_555
K1E O1 1_555 1_555
K1H O2 1_555 1_555
K1I O4 1_555 1_555
O1B K1 1_555 1_555
O2B K1 1_555 1_555
O2H K1 1_555 1_555
O2J K1 1_555 1_555
O4I K1 1_555 1_555
O4K K1 1_555 1_555
K1M O2G 1_555 1_555
K1L O4G 1_555 1_555
C3G C2G 1_555 1_555
O2G K1E 1_555 1_555
K1H O2H 1_555 1_555

#END
