
#######################################################################
#
#                 Cambridge Crystallographic Data Centre
#                                CCDC 
#
#######################################################################
#
# If this CIF has been generated from an entry in the Cambridge 
# Structural Database, then it will include bibliographic, chemical, 
# crystal, experimental, refinement or atomic coordinate data resulting 
# from the CCDC's data processing and validation procedures.
#
#######################################################################

data_POPICR14
_symmetry_cell_setting           orthorhombic
_symmetry_space_group_name_H-M   'I b c a'
_symmetry_Int_Tables_number      73
_space_group_name_Hall           '-I 2b 2c'
loop_
_symmetry_equiv_pos_site_id
_symmetry_equiv_pos_as_xyz
1 x,y,z
2 1/2+x,1/2+y,1/2+z
3 1/2-x,-y,1/2+z
4 -x,1/2+y,1/2-z
5 1/2+x,1/2-y,-z
6 -x,1/2-y,z
7 1/2-x,y,-z
8 x,-y,1/2-z
9 -x,-y,-z
10 1/2-x,1/2-y,1/2-z
11 1/2+x,y,1/2-z
12 x,1/2-y,1/2+z
13 1/2-x,1/2+y,z
14 x,1/2+y,-z
15 1/2+x,-y,z
16 -x,y,1/2+z
_cell_length_a                   6.974(1)
_cell_length_b                   13.342(3)
_cell_length_c                   19.125(4)
_cell_angle_alpha                90
_cell_angle_beta                 90
_cell_angle_gamma                90
_cell_volume                     1779.53
loop_
_atom_site_label
_atom_site_type_symbol
_atom_site_fract_x
_atom_site_fract_y
_atom_site_fract_z
K1 K 0.7500 0.38331(2) 0.0000
O1 O 0.5000 0.2500 0.05747(6)
O2 O 0.41571(13) 0.44579(6) 0.07216(4)
O3 O 0.24758(12) 0.47572(6) 0.16481(5)
O4 O 0.43639(14) 0.32390(7) 0.37849(4)
N1 N 0.36276(13) 0.42445(7) 0.13163(5)
N2 N 0.5000 0.2500 0.34791(7)
C1 C 0.5000 0.2500 0.12245(8)
C2 C 0.43772(15) 0.33439(7) 0.16533(5)
C3 C 0.43498(14) 0.33454(8) 0.23730(5)
H1 H 0.3896 0.3912 0.2624
C4 C 0.5000 0.2500 0.27253(8)
K1D K 0.2500 0.11669(2) 0.0000
K1N K 0.2500 0.61669(2) 0.0000
K1J K 0.2500 0.38331(2) 0.5000
K1K K 0.7500 0.11669(2) 0.5000
K1L K 0.7500 -0.11669(2) 0.0000
O1D O 1.0000 0.2500 -0.05747(6)
O2E O 0.58429(13) 0.05421(6) 0.07216(4)
O2N O 0.91571(13) 0.55421(6) 0.07216(4)
O2H O 0.58429(13) 0.55421(6) -0.07216(4)
O2F O 1.08429(13) 0.44579(6) -0.07216(4)
O3E O 0.75242(12) 0.02428(6) 0.16481(5)
O4E O 0.56361(14) 0.17610(7) 0.37849(4)
O4J O 0.93639(14) 0.32390(7) 0.12151(4)
O4O O 0.56361(14) 0.32390(7) -0.12151(4)
N1E N 0.63724(13) 0.07555(7) 0.13163(5)
C2E C 0.56228(15) 0.16561(7) 0.16533(5)
C3E C 0.56502(14) 0.16546(8) 0.23730(5)
H1E H 0.6104 0.1088 0.2624
loop_
_geom_bond_atom_site_label_1
_geom_bond_atom_site_label_2
_geom_bond_site_symmetry_1
_geom_bond_site_symmetry_2
K1 O1 1_555 1_555
O1 C1 1_555 1_555
O2 K1 1_555 1_555
O3 N1 1_555 1_555
O4 N2 1_555 1_555
N1 O2 1_555 1_555
N2 C4 1_555 1_555
C1 C2 1_555 1_555
C2 N1 1_555 1_555
C3 C2 1_555 1_555
H1 C3 1_555 1_555
C4 C3 1_555 1_555
K1D O1 1_555 1_555
K1N O2 1_555 1_555
K1J O4 1_555 1_555
K1K O4E 1_555 1_555
K1L O2E 1_555 1_555
O1D K1 1_555 1_555
O2E K1D 1_555 1_555
O2N K1 1_555 1_555
O2H K1 1_555 1_555
O2F K1 1_555 1_555
O3E N1E 1_555 1_555
O4E N2 1_555 1_555
O4J K1 1_555 1_555
O4O K1 1_555 1_555
N1E O2E 1_555 1_555
C2E C1 1_555 1_555
C3E C4 1_555 1_555
H1E C3E 1_555 1_555
K1N O2H 1_555 1_555
N1E C2E 1_555 1_555
C2E C3E 1_555 1_555

#END
