
#######################################################################
#
#                 Cambridge Crystallographic Data Centre
#                                CCDC 
#
#######################################################################
#
# If this CIF has been generated from an entry in the Cambridge 
# Structural Database, then it will include bibliographic, chemical, 
# crystal, experimental, refinement or atomic coordinate data resulting 
# from the CCDC's data processing and validation procedures.
#
#######################################################################

data_POPLOW
_symmetry_cell_setting           monoclinic
_symmetry_space_group_name_H-M   'P 21/c'
_symmetry_Int_Tables_number      14
_space_group_name_Hall           '-P 2ybc'
loop_
_symmetry_equiv_pos_site_id
_symmetry_equiv_pos_as_xyz
1 x,y,z
2 -x,1/2+y,1/2-z
3 -x,-y,-z
4 x,1/2-y,1/2+z
_cell_length_a                   7.2849(14)
_cell_length_b                   9.9568(19)
_cell_length_c                   17.058(3)
_cell_angle_alpha                90
_cell_angle_beta                 102.254(2)
_cell_angle_gamma                90
_cell_volume                     1209.1
loop_
_atom_site_label
_atom_site_type_symbol
_atom_site_fract_x
_atom_site_fract_y
_atom_site_fract_z
C1 C 1.1679(7) 0.4873(4) 0.0897(2)
H1 H 1.1852 0.3971 0.0790
C2 C 1.2789(6) 0.5830(5) 0.0655(2)
H2 H 1.3739 0.5590 0.0394
C3 C 1.2463(5) 0.7155(4) 0.0807(2)
H3 H 1.3213 0.7808 0.0644
C4 C 1.0030(4) 0.6616(3) 0.14422(17)
C5 C 1.0291(6) 0.5248(4) 0.1304(2)
C6 C 0.6662(5) 0.9042(4) 0.1906(2)
H4 H 0.6321 0.9917 0.1748
C7 C 0.5740(5) 0.8400(4) 0.2426(2)
H5 H 0.4764 0.8819 0.2605
C8 C 0.6296(5) 0.7137(4) 0.2670(2)
H6 H 0.5705 0.6695 0.3028
C9 C 0.7729(4) 0.6495(3) 0.23937(18)
C10 C 0.8539(4) 0.7179(3) 0.18265(17)
Cd1 Cd 1.00862(3) 0.97427(2) 0.107863(13)
N1 N 1.1126(4) 0.7539(3) 0.11767(16)
N2 N 0.8023(4) 0.8452(3) 0.16209(15)
N3 N 1.1888(4) 1.0557(3) 0.02465(17)
N4 N 1.3216(4) 1.1234(3) 0.03215(16)
N5 N 1.4510(5) 1.1930(5) 0.0381(2)
O1 O 0.8423(4) 1.1695(3) 0.11603(16)
H7 H 0.8829 1.2499 0.1249
H8 H 0.7271 1.1736 0.0861
O2 O 0.8291(4) 0.5280(2) 0.26672(14)
O3 O 0.9204(4) 0.4288(3) 0.15151(16)
H9 H 0.8444 0.4629 0.1748
Cd1B Cd 0.99138(3) 1.02573(2) -0.107863(13)
Cd1A Cd 0.99138(3) 0.47427(2) 0.392137(13)
N3B N 0.8112(4) 0.9443(3) -0.02465(17)
O2A O 1.1709(4) 1.0280(2) 0.23328(14)
loop_
_geom_bond_atom_site_label_1
_geom_bond_atom_site_label_2
_geom_bond_site_symmetry_1
_geom_bond_site_symmetry_2
C1 H1 1_555 1_555
C2 C1 1_555 1_555
H2 C2 1_555 1_555
C3 C2 1_555 1_555
H3 C3 1_555 1_555
C4 C5 1_555 1_555
C5 C1 1_555 1_555
C6 H4 1_555 1_555
C7 C6 1_555 1_555
H5 C7 1_555 1_555
C8 C7 1_555 1_555
H6 C8 1_555 1_555
C9 C8 1_555 1_555
C10 C4 1_555 1_555
Cd1 N1 1_555 1_555
N1 C3 1_555 1_555
N2 C6 1_555 1_555
N3 Cd1 1_555 1_555
N4 N3 1_555 1_555
N5 N4 1_555 1_555
O1 Cd1 1_555 1_555
H7 O1 1_555 1_555
H8 O1 1_555 1_555
O2 C9 1_555 1_555
O3 C5 1_555 1_555
H9 O3 1_555 1_555
Cd1B N3 1_555 1_555
Cd1A O2 1_555 1_555
N3B Cd1 1_555 1_555
O2A Cd1 1_555 1_555
C4 N1 1_555 1_555
C9 C10 1_555 1_555
C10 N2 1_555 1_555
Cd1 N2 1_555 1_555
Cd1B N3B 1_555 1_555

#END
