
#######################################################################
#
#                 Cambridge Crystallographic Data Centre
#                                CCDC 
#
#######################################################################
#
# If this CIF has been generated from an entry in the Cambridge 
# Structural Database, then it will include bibliographic, chemical, 
# crystal, experimental, refinement or atomic coordinate data resulting 
# from the CCDC's data processing and validation procedures.
#
#######################################################################

data_POPMUE
_symmetry_cell_setting           orthorhombic
_symmetry_space_group_name_H-M   'P b c a'
_symmetry_Int_Tables_number      61
_space_group_name_Hall           '-P 2ac 2ab'
loop_
_symmetry_equiv_pos_site_id
_symmetry_equiv_pos_as_xyz
1 x,y,z
2 1/2-x,-y,1/2+z
3 -x,1/2+y,1/2-z
4 1/2+x,1/2-y,-z
5 -x,-y,-z
6 1/2+x,y,1/2-z
7 x,1/2-y,1/2+z
8 1/2-x,1/2+y,z
_cell_length_a                   10.1804(4)
_cell_length_b                   6.5798(3)
_cell_length_c                   15.9224(7)
_cell_angle_alpha                90
_cell_angle_beta                 90
_cell_angle_gamma                90
_cell_volume                     1066.56
loop_
_atom_site_label
_atom_site_type_symbol
_atom_site_fract_x
_atom_site_fract_y
_atom_site_fract_z
C1 C 0.68993(9) 0.35565(14) 0.11587(6)
C2 C 0.59889(9) 0.28705(15) 0.18599(6)
C3 C 0.66070(10) 0.22060(14) 0.26817(6)
O1 O 0.81314(7) 0.34815(11) 0.12908(4)
O2 O 0.86598(7) 0.44106(12) -0.05442(5)
O3 O 0.59278(7) 0.17902(12) 0.32882(5)
O4 O 0.63920(7) 0.41687(11) 0.04894(4)
O5 O 0.78928(7) 0.20513(11) 0.27079(4)
Na1 Na 0.99427(4) 0.24793(6) 0.04416(3)
H1 H 0.8170(18) 0.259(2) 0.2146(11)
H2 H 0.5341(14) 0.395(2) 0.1964(8)
H3 H 0.5463(14) 0.173(2) 0.1654(9)
H4 H 0.7954(18) 0.441(3) -0.0273(12)
H5 H 0.8408(17) 0.405(3) -0.1036(12)
O2D O 1.13402(7) 0.55894(12) 0.05442(5)
O3E O 1.09278(7) 0.17902(12) 0.17118(5)
O4C O 1.13920(7) 0.08313(11) -0.04894(4)
O4G O 0.86080(7) -0.08313(11) 0.04894(4)
Na1C Na 0.49427(4) 0.25207(6) -0.04416(3)
Na1D Na 1.00573(4) 0.75207(6) -0.04416(3)
Na1E Na 0.49427(4) 0.24793(6) 0.45584(3)
Na1G Na 0.50573(4) 0.74793(6) 0.04416(3)
loop_
_geom_bond_atom_site_label_1
_geom_bond_atom_site_label_2
_geom_bond_site_symmetry_1
_geom_bond_site_symmetry_2
C1 C2 1_555 1_555
C2 C3 1_555 1_555
C3 O3 1_555 1_555
O1 C1 1_555 1_555
O2 Na1 1_555 1_555
O3 Na1E 1_555 1_555
O4 C1 1_555 1_555
O5 C3 1_555 1_555
Na1 O1 1_555 1_555
H1 O5 1_555 1_555
H2 C2 1_555 1_555
H3 C2 1_555 1_555
H4 O2 1_555 1_555
H5 O2 1_555 1_555
O2D Na1 1_555 1_555
O3E Na1 1_555 1_555
O4C Na1 1_555 1_555
O4G Na1 1_555 1_555
Na1C O4 1_555 1_555
Na1D O2 1_555 1_555
Na1G O4 1_555 1_555
O2D Na1D 1_555 1_555

#END
