
#######################################################################
#
#                 Cambridge Crystallographic Data Centre
#                                CCDC 
#
#######################################################################
#
# If this CIF has been generated from an entry in the Cambridge 
# Structural Database, then it will include bibliographic, chemical, 
# crystal, experimental, refinement or atomic coordinate data resulting 
# from the CCDC's data processing and validation procedures.
#
#######################################################################

data_POPQIW
_symmetry_cell_setting           monoclinic
_symmetry_space_group_name_H-M   'P 21/c'
_symmetry_Int_Tables_number      14
_space_group_name_Hall           '-P 2ybc'
loop_
_symmetry_equiv_pos_site_id
_symmetry_equiv_pos_as_xyz
1 x,y,z
2 -x,1/2+y,1/2-z
3 -x,-y,-z
4 x,1/2-y,1/2+z
_cell_length_a                   5.2751(5)
_cell_length_b                   18.4427(13)
_cell_length_c                   7.0910(8)
_cell_angle_alpha                90
_cell_angle_beta                 115.116(7)
_cell_angle_gamma                90
_cell_volume                     624.636
loop_
_atom_site_label
_atom_site_type_symbol
_atom_site_fract_x
_atom_site_fract_y
_atom_site_fract_z
C1 C -0.0679(3) 0.65591(9) 0.2066(3)
C2 C 0.0970(3) 0.72498(9) 0.2387(3)
H1 H 0.1933 0.7242 0.1455
H2 H 0.2433 0.7257 0.3837
C3 C -0.0707(3) 0.79506(8) 0.1996(3)
H3 H -0.1701 0.7970 0.2906
H4 H -0.2119 0.7968 0.0529
C4 C 0.1274(3) 0.85954(9) 0.2451(3)
H5 H 0.2813 0.8529 0.3856
H6 H 0.2115 0.8587 0.1441
C5 C 0.0005(3) 0.93366(9) 0.2367(3)
Na1 Na 0.48921(13) 0.54250(3) 0.26036(11)
O1 O 0.0676(2) 0.59876(6) 0.1884(2)
H7 H -0.0301 0.5615 0.1754
O2 O -0.3022(2) 0.65266(6) 0.20179(19)
O3 O 0.1800(2) 0.98378(6) 0.33599(19)
O4 O -0.2543(2) 0.94512(6) 0.14023(19)
Na1_2 Na -0.51079(13) 0.54250(3) 0.26036(11)
Na1A Na -0.48921(13) 1.04250(3) 0.23964(11)
Na1A_2 Na 0.51079(13) 1.04250(3) 0.23964(11)
Na1C Na -0.51079(13) 0.95750(3) -0.23964(11)
Na1C_2 Na 0.48921(13) 0.95750(3) 0.76036(11)
O2_2 O 0.6978(2) 0.65266(6) 0.20179(19)
O3A O 0.8200(2) 0.48378(6) 0.16401(19)
O3C O 0.1800(2) 0.51622(6) -0.16401(19)
O4A O 0.2543(2) 0.44512(6) 0.35977(19)
O4C O 0.7457(2) 0.55488(6) 0.64023(19)
loop_
_geom_bond_atom_site_label_1
_geom_bond_atom_site_label_2
_geom_bond_site_symmetry_1
_geom_bond_site_symmetry_2
C1 C2 1_555 1_555
C2 H1 1_555 1_555
H2 C2 1_555 1_555
C3 C2 1_555 1_555
H3 C3 1_555 1_555
H4 C3 1_555 1_555
C4 C3 1_555 1_555
H5 C4 1_555 1_555
H6 C4 1_555 1_555
C5 C4 1_555 1_555
Na1 O1 1_555 1_555
O1 C1 1_555 1_555
H7 O1 1_555 1_555
O2 C1 1_555 1_555
O3 C5 1_555 1_555
O4 C5 1_555 1_555
Na1_2 O2 1_555 1_555
Na1A O4 1_555 1_555
Na1A_2 O3 1_555 1_555
Na1C O4 1_555 1_555
Na1C_2 O3 1_555 1_555
O2_2 Na1 1_555 1_555
O3A Na1 1_555 1_555
O3C Na1 1_555 1_555
O4A Na1 1_555 1_555
O4C Na1 1_555 1_555

#END
