
#######################################################################
#
#                 Cambridge Crystallographic Data Centre
#                                CCDC 
#
#######################################################################
#
# If this CIF has been generated from an entry in the Cambridge 
# Structural Database, then it will include bibliographic, chemical, 
# crystal, experimental, refinement or atomic coordinate data resulting 
# from the CCDC's data processing and validation procedures.
#
#######################################################################

data_POPQOC
_symmetry_cell_setting           monoclinic
_symmetry_space_group_name_H-M   'P 21/c'
_symmetry_Int_Tables_number      14
_space_group_name_Hall           '-P 2ybc'
loop_
_symmetry_equiv_pos_site_id
_symmetry_equiv_pos_as_xyz
1 x,y,z
2 -x,1/2+y,1/2-z
3 -x,-y,-z
4 x,1/2-y,1/2+z
_cell_length_a                   12.945(2)
_cell_length_b                   6.8151(16)
_cell_length_c                   10.032(3)
_cell_angle_alpha                90
_cell_angle_beta                 90.803(17)
_cell_angle_gamma                90
_cell_volume                     884.951
loop_
_atom_site_label
_atom_site_type_symbol
_atom_site_fract_x
_atom_site_fract_y
_atom_site_fract_z
C1 C -0.28262(11) 0.3142(2) 0.14008(14)
C2 C -0.18284(11) 0.2431(2) 0.08154(14)
C3 C -0.08745(11) 0.3271(2) 0.14994(15)
C4 C 0.01272(11) 0.2443(2) 0.09576(14)
C5 C 0.10808(11) 0.3327(2) 0.16282(15)
C6 C 0.20980(11) 0.2635(2) 0.10465(14)
C7 C 0.30121(12) 0.3487(2) 0.18067(15)
C8 C 0.40598(11) 0.3104(2) 0.12292(14)
O1 O -0.35940(8) 0.33349(16) 0.05613(10)
O2 O -0.29080(8) 0.34750(15) 0.25968(10)
O3 O 0.47990(8) 0.41918(17) 0.16999(10)
O4 O 0.41992(8) 0.18082(15) 0.03813(10)
Na1 Na 0.55951(4) 0.15181(9) -0.11328(5)
H1 H -0.435(2) 0.373(4) 0.110(3)
H2 H -0.1850(13) 0.099(3) 0.0932(16)
H3 H -0.1846(13) 0.271(3) -0.0138(17)
H4 H -0.0910(14) 0.298(3) 0.2471(19)
H5 H -0.0877(13) 0.470(3) 0.1397(16)
H6 H 0.0122(13) 0.101(3) 0.1058(15)
H7 H 0.0138(13) 0.267(2) -0.0041(18)
H8 H 0.1065(13) 0.299(2) 0.2591(17)
H9 H 0.1025(12) 0.476(3) 0.1571(15)
H10 H 0.2115(13) 0.118(3) 0.1054(17)
H11 H 0.2136(13) 0.305(2) 0.0080(18)
H12 H 0.2951(12) 0.483(3) 0.1889(15)
H13 H 0.3021(13) 0.296(2) 0.2740(18)
O1_2 O 0.64060(8) 0.33349(16) 0.05613(10)
O2C O 0.70920(8) 0.15250(15) -0.24032(10)
O3_2 O -0.52010(8) 0.41918(17) 0.16999(10)
O3B O 0.52010(8) 0.58082(17) -0.16999(10)
O3C O 0.47990(8) 0.08082(17) -0.33001(10)
O4B O 0.58008(8) -0.18082(15) -0.03813(10)
Na1_2 Na -0.44049(4) 0.15181(9) -0.11328(5)
Na1B Na 0.44049(4) -0.15181(9) 0.11328(5)
Na1B_2 Na 0.44049(4) 0.84819(9) 0.11328(5)
Na1C Na -0.44049(4) 0.34819(9) 0.38672(5)
Na1C_2 Na 0.55951(4) 0.34819(9) 0.38672(5)
H1_2 H 0.565(2) 0.373(4) 0.110(3)
loop_
_geom_bond_atom_site_label_1
_geom_bond_atom_site_label_2
_geom_bond_site_symmetry_1
_geom_bond_site_symmetry_2
C1 C2 1_555 1_555
C2 C3 1_555 1_555
C3 C4 1_555 1_555
C4 C5 1_555 1_555
C5 C6 1_555 1_555
C6 C7 1_555 1_555
C7 C8 1_555 1_555
C8 O3 1_555 1_555
O1 C1 1_555 1_555
O2 C1 1_555 1_555
O3 Na1B_2 1_555 1_555
O4 C8 1_555 1_555
Na1 O4 1_555 1_555
H1 O1 1_555 1_555
H2 C2 1_555 1_555
H3 C2 1_555 1_555
H4 C3 1_555 1_555
H5 C3 1_555 1_555
H6 C4 1_555 1_555
H7 C4 1_555 1_555
H8 C5 1_555 1_555
H9 C5 1_555 1_555
H10 C6 1_555 1_555
H11 C6 1_555 1_555
H12 C7 1_555 1_555
H13 C7 1_555 1_555
O1_2 Na1 1_555 1_555
O2C Na1 1_555 1_555
O3_2 H1 1_555 1_555
O3B Na1 1_555 1_555
O3C Na1 1_555 1_555
O4B Na1 1_555 1_555
Na1_2 O1 1_555 1_555
Na1B O4 1_555 1_555
Na1C O2 1_555 1_555
Na1C_2 O3 1_555 1_555
H1_2 O3 1_555 1_555
O1_2 H1_2 1_555 1_555
O3_2 Na1C 1_555 1_555
O4B Na1B 1_555 1_555

#END
