
#######################################################################
#
#                 Cambridge Crystallographic Data Centre
#                                CCDC 
#
#######################################################################
#
# If this CIF has been generated from an entry in the Cambridge 
# Structural Database, then it will include bibliographic, chemical, 
# crystal, experimental, refinement or atomic coordinate data resulting 
# from the CCDC's data processing and validation procedures.
#
#######################################################################

data_POPSAQ
_symmetry_cell_setting           monoclinic
_symmetry_space_group_name_H-M   'P 21/c'
_symmetry_Int_Tables_number      14
_space_group_name_Hall           '-P 2ybc'
loop_
_symmetry_equiv_pos_site_id
_symmetry_equiv_pos_as_xyz
1 x,y,z
2 -x,1/2+y,1/2-z
3 -x,-y,-z
4 x,1/2-y,1/2+z
_cell_length_a                   10.535(6)
_cell_length_b                   4.8805(14)
_cell_length_c                   9.1372(6)
_cell_angle_alpha                90
_cell_angle_beta                 114.35(3)
_cell_angle_gamma                90
_cell_volume                     428.007
loop_
_atom_site_label
_atom_site_type_symbol
_atom_site_fract_x
_atom_site_fract_y
_atom_site_fract_z
C1 C 0.1449(3) 0.4183(7) 0.1499(4)
C2 C 0.2698(3) 0.5564(6) 0.1401(4)
H1 H 0.3448 0.5645 0.2499
H2 H 0.2435 0.7476 0.1041
C3 C 0.3297(3) 0.4275(7) 0.0310(4)
H3 H 0.2620 0.4473 -0.0822
H4 H 0.3447 0.2293 0.0552
C4 C 0.4668(3) 0.5601(6) 0.0528(4)
H5 H 0.5332 0.5414 0.1666
H6 H 0.4508 0.7582 0.0291
Li1 Li -0.0018(6) 0.9053(11) 0.1426(7)
O1 O 0.0852(3) 0.5493(4) 0.2244(3)
O2 O 0.1083(2) 0.1845(4) 0.0909(3)
C1B C 0.8551(3) 0.5817(7) -0.1499(4)
C2B C 0.7302(3) 0.4436(6) -0.1401(4)
H1B H 0.6552 0.4355 -0.2499
H2B H 0.7565 0.2524 -0.1041
C3B C 0.6703(3) 0.5725(7) -0.0310(4)
H3B H 0.7380 0.5527 0.0822
H4B H 0.6553 0.7707 -0.0552
C4B C 0.5332(3) 0.4399(6) -0.0528(4)
H5B H 0.4668 0.4586 -0.1666
H6B H 0.5492 0.2418 -0.0291
O1B O 0.9148(3) 0.4507(4) -0.2244(3)
O2B O 0.8917(2) 0.8155(4) -0.0909(3)
Li1B Li 0.0018(6) 0.0947(11) -0.1426(7)
Li1_2 Li -0.0018(6) -0.0947(11) 0.1426(7)
Li1_3 Li 0.9982(6) 0.9053(11) 0.1426(7)
Li1A Li 0.0018(6) 0.4053(11) 0.3574(7)
Li1B_2 Li 1.0018(6) 0.0947(11) -0.1426(7)
Li1B_3 Li 1.0018(6) 1.0947(11) -0.1426(7)
Li1C Li 0.9982(6) 0.5947(11) -0.3574(7)
O1A O -0.0852(3) 1.0493(4) 0.2756(3)
O1B_2 O -0.0852(3) 0.4507(4) -0.2244(3)
O1C O 0.0852(3) -0.0493(4) -0.2756(3)
O2_2 O 0.1083(2) 1.1845(4) 0.0909(3)
O2B_2 O -0.1083(2) -0.1845(4) -0.0909(3)
O2B_3 O -0.1083(2) 0.8155(4) -0.0909(3)
loop_
_geom_bond_atom_site_label_1
_geom_bond_atom_site_label_2
_geom_bond_site_symmetry_1
_geom_bond_site_symmetry_2
C1 C2 1_555 1_555
C2 H1 1_555 1_555
H2 C2 1_555 1_555
C3 C2 1_555 1_555
H3 C3 1_555 1_555
H4 C3 1_555 1_555
C4 C3 1_555 1_555
H5 C4 1_555 1_555
H6 C4 1_555 1_555
Li1 O1 1_555 1_555
O1 C1 1_555 1_555
O2 C1 1_555 1_555
C1B C2B 1_555 1_555
C2B H1B 1_555 1_555
H2B C2B 1_555 1_555
C3B C2B 1_555 1_555
H3B C3B 1_555 1_555
H4B C3B 1_555 1_555
C4B C4 1_555 1_555
H5B C4B 1_555 1_555
H6B C4B 1_555 1_555
O1B C1B 1_555 1_555
O2B C1B 1_555 1_555
Li1B O2 1_555 1_555
Li1_2 O2 1_555 1_555
Li1_3 O2B 1_555 1_555
Li1A O1 1_555 1_555
Li1B_2 O1B 1_555 1_555
Li1B_3 O2B 1_555 1_555
Li1C O1B 1_555 1_555
O1A Li1 1_555 1_555
O1B_2 Li1B 1_555 1_555
O1C Li1B 1_555 1_555
O2_2 Li1 1_555 1_555
O2B_2 Li1B 1_555 1_555
O2B_3 Li1 1_555 1_555
C3B C4B 1_555 1_555
Li1_2 O2B_2 1_555 1_555

#END
