
#######################################################################
#
#                 Cambridge Crystallographic Data Centre
#                                CCDC 
#
#######################################################################
#
# If this CIF has been generated from an entry in the Cambridge 
# Structural Database, then it will include bibliographic, chemical, 
# crystal, experimental, refinement or atomic coordinate data resulting 
# from the CCDC's data processing and validation procedures.
#
#######################################################################

data_POPXIB
_symmetry_cell_setting           triclinic
_symmetry_space_group_name_H-M   'P -1'
_symmetry_Int_Tables_number      2
_space_group_name_Hall           '-P 1'
loop_
_symmetry_equiv_pos_site_id
_symmetry_equiv_pos_as_xyz
1 x,y,z
2 -x,-y,-z
_cell_length_a                   9.722
_cell_length_b                   16.828
_cell_length_c                   17.332
_cell_angle_alpha                69.00
_cell_angle_beta                 83.05
_cell_angle_gamma                81.00
_cell_volume                     2608.13
loop_
_atom_site_label
_atom_site_type_symbol
_atom_site_fract_x
_atom_site_fract_y
_atom_site_fract_z
Nd1 Nd 0.0715(1) 0.2665(1) 0.2850(1)
Ni1 Ni -0.6754(1) 0.2088(1) 0.7758(1)
O2 O -0.0906(4) 0.3234(3) 0.1773(2)
C1 C -0.1308(7) 0.3665(3) 0.1079(3)
C2 C -0.0648(9) 0.3648(5) 0.0257(4)
C3 C -0.1471(11) 0.4366(6) -0.0372(4)
C4 C -0.2801(9) 0.4631(5) 0.0092(4)
N1 N -0.2483(5) 0.4222(3) 0.0976(3)
C5 C -0.3426(7) 0.4338(3) 0.1644(4)
O3 O 0.1284(5) 0.1489(3) 0.2350(3)
C6 C 0.1316(7) 0.0708(4) 0.2495(3)
C7 C 0.2039(9) 0.0006(4) 0.3168(4)
C8 C 0.1851(13) -0.0769(5) 0.3036(5)
C9 C 0.1006(9) -0.0543(4) 0.2292(4)
N2 N 0.0753(5) 0.0385(3) 0.2041(3)
C10 C -0.0058(7) 0.0919(5) 0.1353(3)
O4 O -0.1098(4) 0.1708(2) 0.3346(2)
C11 C -0.2214(6) 0.1568(3) 0.3764(3)
C12 C -0.2436(8) 0.1381(4) 0.4683(4)
C13 C -0.3888(8) 0.1111(5) 0.4899(4)
C14 C -0.4539(7) 0.1346(5) 0.4098(4)
N3 N -0.3391(4) 0.1544(3) 0.3464(3)
C15 C -0.3487(6) 0.1624(3) 0.2615(3)
O5 O -0.1266(4) 0.3492(2) 0.3412(2)
C16 C -0.1568(5) 0.4037(3) 0.3739(3)
C17 C -0.0622(6) 0.4582(4) 0.3883(4)
C18 C -0.1528(7) 0.5089(4) 0.4376(5)
C19 C -0.3003(6) 0.4984(3) 0.4311(4)
N4 N -0.2861(5) 0.4247(3) 0.4023(3)
C20 C -0.4066(6) 0.3832(3) 0.4020(3)
C21 C -0.4666(5) 0.3380(3) 0.4889(3)
C22 C -0.6054(5) 0.3238(3) 0.5026(3)
C23 C -0.6595(5) 0.2840(3) 0.5825(3)
N5 N -0.5820(4) 0.2581(2) 0.6492(2)
C24 C -0.4483(5) 0.2713(3) 0.6349(3)
C25 C -0.3869(5) 0.3103(3) 0.5572(3)
N6 N -0.6714(4) 0.3303(3) 0.7919(2)
C26 C -0.5514(6) 0.3597(3) 0.7918(3)
C27 C -0.5433(6) 0.4335(3) 0.8070(4)
C28 C -0.3353(6) 0.5177(3) 0.1773(3)
C29 C -0.2107(6) 0.5477(3) 0.1764(3)
C30 C -0.7882(6) 0.3775(3) 0.8074(3)
N7 N -0.7752(4) 0.1653(3) 0.8981(2)
C31 C -0.8934(6) 0.1322(4) 0.9106(3)
C32 C -0.9702(6) 0.1066(4) 0.9849(3)
C33 C 0.0788(6) 0.1156(4) 0.0528(3)
C34 C 0.2027(6) 0.1504(4) 0.0405(3)
C35 C -0.7284(6) 0.1745(4) 0.9630(3)
N8 N -0.6725(5) 0.0843(3) 0.7669(2)
C36 C -0.6119(6) 0.0126(3) 0.8220(3)
C37 C -0.6023(6) -0.0670(3) 0.8135(3)
C38 C -0.3449(5) 0.0754(3) 0.2523(3)
C39 C -0.2795(6) 0.0021(3) 0.3078(3)
C40 C -0.7266(6) 0.0753(3) 0.7036(3)
N9 N -0.8688(5) 0.2485(3) 0.7304(3)
C41 C -0.9794(7) 0.2801(4) 0.7124(3)
S1 S -1.1332(2) 0.3287(2) 0.6845(2)
N10 N -0.4843(5) 0.1686(3) 0.8234(3)
C42 C -0.4170(6) 0.1371(4) 0.8794(3)
S2 S -0.3269(3) 0.0897(2) 0.9592(1)
N11 N 0.3212(8) 0.2940(5) 0.1509(5)
O6 O 0.3318(6) 0.2645(4) 0.2275(4)
O7 O 0.4321(8) 0.3049(5) 0.0891(7)
O8 O 0.2011(7) 0.3164(3) 0.1319(3)
O9 O 0.2886(8) 0.4636(5) 0.2807(5)
N12 N 0.2170(6) 0.4088(4) 0.2848(4)
O10 O 0.2179(5) 0.3402(3) 0.3438(3)
O11 O 0.1307(5) 0.4212(3) 0.2305(3)
N13 N 0.1417(8) 0.1570(4) 0.4586(3)
O12 O 0.0483(6) 0.2184(3) 0.4484(3)
O13 O 0.1748(11) 0.1094(6) 0.5254(3)
O14 O 0.2039(5) 0.1459(3) 0.3945(3)
H1 H -0.0703 0.3117 0.0188
H2 H 0.0316 0.3737 0.0201
H3 H -0.1675 0.4199 -0.0811
H4 H -0.0949 0.4845 -0.0604
H5 H -0.3013 0.5240 -0.0055
H6 H -0.3575 0.4408 -0.0016
H7 H -0.3171 0.3880 0.2144
H8 H -0.4368 0.4307 0.1555
H9 H 0.1674 0.0018 0.3701
H10 H 0.3024 0.0043 0.3109
H11 H 0.2717 -0.1114 0.2980
H12 H 0.1309 -0.1097 0.3512
H13 H 0.1560 -0.0710 0.1868
H14 H 0.0147 -0.0790 0.2415
H15 H -0.0404 0.1443 0.1446
H16 H -0.0846 0.0653 0.1332
H17 H -0.2381 0.1874 0.4821
H18 H -0.1750 0.0925 0.4965
H19 H -0.3838 0.0502 0.5170
H20 H -0.4413 0.1381 0.5260
H21 H -0.5004 0.0899 0.4069
H22 H -0.4799 0.1849 0.4029
H23 H -0.2742 0.1919 0.2272
H24 H -0.4357 0.1959 0.2430
H25 H -0.0259 0.4969 0.3370
H26 H 0.0143 0.4230 0.4193
H27 H -0.1312 0.4857 0.4945
H28 H -0.1393 0.5683 0.4160
H29 H -0.3529 0.4865 0.4836
H30 H -0.3452 0.5492 0.3919
H31 H -0.4778 0.4251 0.3716
H32 H -0.3482 0.3425 0.3748
H33 H -0.6633 0.3422 0.4569
H34 H -0.7557 0.2740 0.5926
H35 H -0.3927 0.2510 0.6817
H36 H -0.2900 0.3183 0.5505
H37 H -0.4667 0.3273 0.7794
H38 H -0.4535 0.4504 0.8068
H39 H -0.1236 0.5159 0.1665
H40 H -0.8761 0.3582 0.8081
H41 H -0.9300 0.1259 0.8648
H42 H -1.0555 0.0823 0.9914
H43 H 0.2380 0.1599 0.0850
H44 H -0.6413 0.1973 0.9553
H45 H -0.5752 0.0171 0.8687
H46 H -0.5558 -0.1164 0.8535
H47 H -0.2401 0.0043 0.3547
H48 H -0.7713 0.1259 0.6640
C28A C -0.6647(6) 0.4823(3) 0.8227(3)
C27A C -0.4567(6) 0.5665(3) 0.1930(4)
C30A C -0.2118(6) 0.6225(3) 0.1926(3)
C29A C -0.7893(6) 0.4523(3) 0.8236(3)
C33_2 C -0.9212(6) 0.1156(4) 1.0528(3)
C32_2 C 0.0298(6) 0.1066(4) -0.0151(3)
C35_2 C 0.2716(6) 0.1745(4) -0.0370(3)
C34_2 C -0.7973(6) 0.1504(4) 1.0405(3)
C38A C -0.6551(5) -0.0754(3) 0.7477(3)
C37A C -0.3977(6) 0.0670(3) 0.1865(3)
C40A C -0.2734(6) -0.0753(3) 0.2964(3)
C39A C -0.7205(6) -0.0021(3) 0.6922(3)
C5A C -0.6574(7) 0.5662(3) 0.8356(4)
C26A C -0.4486(6) 0.6403(3) 0.2082(3)
H38A H -0.5465 0.5496 0.1932
N6A N -0.3286(4) 0.6697(3) 0.2081(2)
H40A H -0.1239 0.6418 0.1919
H39A H -0.8764 0.4841 0.8335
C15A C -0.6513(6) -0.1624(3) 0.7385(3)
C36A C -0.3881(6) -0.0126(3) 0.1780(3)
H46A H -0.4442 0.1164 0.1465
N8A N -0.3275(5) -0.0843(3) 0.2331(2)
H48A H -0.2287 -0.1259 0.3360
H47A H -0.7599 -0.0043 0.6453
N1A N -0.7517(5) 0.5778(3) 0.9024(3)
H7A H -0.6829 0.6120 0.7856
H8A H -0.5632 0.5693 0.8445
H37A H -0.5333 0.6727 0.2206
Ni1A Ni -0.3246(1) 0.7912(1) 0.2242(1)
N3A N -0.6609(4) -0.1544(3) 0.6536(3)
H23A H -0.7258 -0.1919 0.7728
H24A H -0.5643 -0.1959 0.7570
H45A H -0.4248 -0.0171 0.1313
Ni1A_2 Ni -0.3246(1) -0.2088(1) 0.2242(1)
C1A C -0.8692(7) 0.6335(3) 0.8921(3)
C4A C -0.7199(9) 0.5369(5) 0.9908(4)
N5A N -0.4180(4) 0.7419(2) 0.3508(2)
N7A N -0.2248(4) 0.8347(3) 0.1019(2)
N8A_2 N -0.3275(5) 0.9157(3) 0.2331(2)
N9A N -0.1312(5) 0.7515(3) 0.2696(3)
N10A N -0.5157(5) 0.8314(3) 0.1766(3)
C11A C -0.7786(6) -0.1568(3) 0.6236(3)
C14A C -0.5461(7) -0.1346(5) 0.5902(4)
O2A O -0.9094(4) 0.6766(3) 0.8227(2)
C2A C -0.9352(9) 0.6352(5) 0.9743(4)
C3A C -0.8529(11) 0.5634(6) 1.0372(4)
H5A H -0.6987 0.4760 1.0055
H6A H -0.6425 0.5592 1.0016
C23A C -0.3405(5) 0.7160(3) 0.4175(3)
C24A C -0.5517(5) 0.7287(3) 0.3651(3)
C31A C -0.1066(6) 0.8678(4) 0.0894(3)
C35A C -0.2716(6) 0.8255(4) 0.0370(3)
C41A C -0.0206(7) 0.7199(4) 0.2876(3)
C42A C -0.5830(6) 0.8629(4) 0.1206(3)
O4A O -0.8902(4) -0.1708(2) 0.6654(2)
C12A C -0.7564(8) -0.1381(4) 0.5317(4)
C13A C -0.6112(8) -0.1111(5) 0.5101(4)
H21A H -0.4996 -0.0899 0.5931
H22A H -0.5201 -0.1849 0.5971
Nd1A Nd -1.0715(1) 0.7335(1) 0.7150(1)
H1A H -0.9297 0.6883 0.9812
H2A H -1.0316 0.6263 0.9799
H3A H -0.8325 0.5801 1.0811
H4A H -0.9051 0.5155 1.0604
C22A C -0.3946(5) 0.6762(3) 0.4974(3)
H34A H -0.2443 0.7260 0.4074
C25A C -0.6131(5) 0.6897(3) 0.4428(3)
H35A H -0.6073 0.7490 0.3183
C32A C -0.0298(6) 0.8934(4) 0.0151(3)
H41A H -0.0700 0.8741 0.1352
C34A C -0.2027(6) 0.8496(4) -0.0405(3)
H44A H -0.3587 0.8027 0.0447
S1A S 0.1332(2) 0.6713(2) 0.3155(2)
S2A S -0.6731(3) 0.9103(2) 0.0408(1)
Nd1A_2 Nd -1.0715(1) -0.2665(1) 0.7150(1)
H17A H -0.7619 -0.1874 0.5179
H18A H -0.8250 -0.0925 0.5035
H19A H -0.6162 -0.0502 0.4830
H20A H -0.5587 -0.1381 0.4740
O3A O -1.1284(5) 0.8511(3) 0.7650(3)
O4A_2 O -0.8902(4) 0.8292(2) 0.6654(2)
O5A O -0.8734(4) 0.6508(2) 0.6588(2)
O6A O -1.3318(6) 0.7355(4) 0.7725(4)
O8A O -1.2011(7) 0.6836(3) 0.8681(3)
O10A O -1.2179(5) 0.6598(3) 0.6562(3)
O11A O -1.1307(5) 0.5788(3) 0.7695(3)
O12A O -1.0483(6) 0.7816(3) 0.5516(3)
O14A O -1.2039(5) 0.8541(3) 0.6055(3)
C21A C -0.5334(5) 0.6620(3) 0.5111(3)
H33A H -0.3367 0.6578 0.5431
H36A H -0.7100 0.6817 0.4495
C33A C -0.0788(6) 0.8844(4) -0.0528(3)
H42A H 0.0555 0.9177 0.0086
H43A H -0.2380 0.8401 -0.0850
C6A C -1.1316(7) 0.9292(4) 0.7505(3)
C16A C -0.8432(5) 0.5963(3) 0.6261(3)
N11A N -1.3212(8) 0.7060(5) 0.8491(5)
N12A N -1.2170(6) 0.5912(4) 0.7152(4)
N13A N -1.1417(8) 0.8430(4) 0.5414(3)
C20A C -0.5934(6) 0.6168(3) 0.5980(3)
C10A C 0.0058(7) 0.9081(5) -0.1353(3)
C7A C -1.2039(9) 0.9994(4) 0.6832(4)
N2A N -1.0753(5) 0.9615(3) 0.7959(3)
C17A C -0.9378(6) 0.5418(4) 0.6117(4)
N4A N -0.7139(5) 0.5753(3) 0.5977(3)
O7A O -1.4321(8) 0.6951(5) 0.9109(7)
O9A O -1.2886(8) 0.5364(5) 0.7193(5)
O13A O -1.1748(11) 0.8906(6) 0.4746(3)
H31A H -0.5222 0.5749 0.6284
H32A H -0.6518 0.6575 0.6252
N2A_2 N -0.0753(5) 0.9615(3) -0.2041(3)
H15A H 0.0404 0.8557 -0.1446
H16A H 0.0846 0.9347 -0.1332
C8A C -1.1851(13) 1.0769(5) 0.6964(5)
H9A H -1.1674 0.9982 0.6299
H10A H -1.3024 0.9957 0.6891
C9A C -1.1006(9) 1.0543(4) 0.7708(4)
C10A_2 C -0.9942(7) 0.9081(5) 0.8647(3)
C18A C -0.8472(7) 0.4911(4) 0.5624(5)
H25A H -0.9741 0.5031 0.6630
H26A H -1.0143 0.5770 0.5807
C19A C -0.6997(6) 0.5016(3) 0.5689(4)
H11A H -1.2717 1.1114 0.7020
H12A H -1.1309 1.1097 0.6488
H13A H -1.1560 1.0710 0.8132
H14A H -1.0147 1.0790 0.7585
H27A H -0.8688 0.5143 0.5055
H28A H -0.8607 0.4317 0.5840
H29A H -0.6471 0.5135 0.5164
H30A H -0.6548 0.4508 0.6081
O1 O 0.6917(29) 0.2532(17) 0.0399(16)
loop_
_geom_bond_atom_site_label_1
_geom_bond_atom_site_label_2
_geom_bond_site_symmetry_1
_geom_bond_site_symmetry_2
Nd1 O2 1_555 1_555
Ni1 N5 1_555 1_555
O2 C1 1_555 1_555
C1 C2 1_555 1_555
C2 C3 1_555 1_555
C3 C4 1_555 1_555
C4 N1 1_555 1_555
N1 C1 1_555 1_555
C5 N1 1_555 1_555
O3 Nd1 1_555 1_555
C6 O3 1_555 1_555
C7 C6 1_555 1_555
C8 C7 1_555 1_555
C9 C8 1_555 1_555
N2 C6 1_555 1_555
C10 N2 1_555 1_555
O4 Nd1 1_555 1_555
C11 O4 1_555 1_555
C12 C11 1_555 1_555
C13 C12 1_555 1_555
C14 C13 1_555 1_555
N3 C11 1_555 1_555
C15 N3 1_555 1_555
O5 Nd1 1_555 1_555
C16 O5 1_555 1_555
C17 C16 1_555 1_555
C18 C17 1_555 1_555
C19 C18 1_555 1_555
N4 C16 1_555 1_555
C20 N4 1_555 1_555
C21 C20 1_555 1_555
C22 C21 1_555 1_555
C23 C22 1_555 1_555
N5 C23 1_555 1_555
C24 N5 1_555 1_555
C25 C21 1_555 1_555
N6 Ni1 1_555 1_555
C26 N6 1_555 1_555
C27 C26 1_555 1_555
C28 C5 1_555 1_555
C29 C28 1_555 1_555
C30 N6 1_555 1_555
N7 Ni1 1_555 1_555
C31 N7 1_555 1_555
C32 C31 1_555 1_555
C33 C10 1_555 1_555
C34 C33 1_555 1_555
C35 N7 1_555 1_555
N8 Ni1 1_555 1_555
C36 N8 1_555 1_555
C37 C36 1_555 1_555
C38 C15 1_555 1_555
C39 C38 1_555 1_555
C40 N8 1_555 1_555
N9 Ni1 1_555 1_555
C41 N9 1_555 1_555
S1 C41 1_555 1_555
N10 Ni1 1_555 1_555
C42 N10 1_555 1_555
S2 C42 1_555 1_555
N11 O6 1_555 1_555
O6 Nd1 1_555 1_555
O7 N11 1_555 1_555
O8 Nd1 1_555 1_555
O9 N12 1_555 1_555
N12 O10 1_555 1_555
O10 Nd1 1_555 1_555
O11 Nd1 1_555 1_555
N13 O12 1_555 1_555
O12 Nd1 1_555 1_555
O13 N13 1_555 1_555
O14 Nd1 1_555 1_555
H1 C2 1_555 1_555
H2 C2 1_555 1_555
H3 C3 1_555 1_555
H4 C3 1_555 1_555
H5 C4 1_555 1_555
H6 C4 1_555 1_555
H7 C5 1_555 1_555
H8 C5 1_555 1_555
H9 C7 1_555 1_555
H10 C7 1_555 1_555
H11 C8 1_555 1_555
H12 C8 1_555 1_555
H13 C9 1_555 1_555
H14 C9 1_555 1_555
H15 C10 1_555 1_555
H16 C10 1_555 1_555
H17 C12 1_555 1_555
H18 C12 1_555 1_555
H19 C13 1_555 1_555
H20 C13 1_555 1_555
H21 C14 1_555 1_555
H22 C14 1_555 1_555
H23 C15 1_555 1_555
H24 C15 1_555 1_555
H25 C17 1_555 1_555
H26 C17 1_555 1_555
H27 C18 1_555 1_555
H28 C18 1_555 1_555
H29 C19 1_555 1_555
H30 C19 1_555 1_555
H31 C20 1_555 1_555
H32 C20 1_555 1_555
H33 C22 1_555 1_555
H34 C23 1_555 1_555
H35 C24 1_555 1_555
H36 C25 1_555 1_555
H37 C26 1_555 1_555
H38 C27 1_555 1_555
H39 C29 1_555 1_555
H40 C30 1_555 1_555
H41 C31 1_555 1_555
H42 C32 1_555 1_555
H43 C34 1_555 1_555
H44 C35 1_555 1_555
H45 C36 1_555 1_555
H46 C37 1_555 1_555
H47 C39 1_555 1_555
H48 C40 1_555 1_555
C28A C27 1_555 1_555
C27A C28 1_555 1_555
C30A C29 1_555 1_555
C29A C30 1_555 1_555
C33_2 C32 1_555 1_555
C32_2 C33 1_555 1_555
C35_2 C34 1_555 1_555
C34_2 C35 1_555 1_555
C38A C37 1_555 1_555
C37A C38 1_555 1_555
C40A C39 1_555 1_555
C39A C40 1_555 1_555
C5A C28A 1_555 1_555
C26A C27A 1_555 1_555
H38A C27A 1_555 1_555
N6A C30A 1_555 1_555
H40A C30A 1_555 1_555
H39A C29A 1_555 1_555
C15A C38A 1_555 1_555
C36A C37A 1_555 1_555
H46A C37A 1_555 1_555
N8A C40A 1_555 1_555
H48A C40A 1_555 1_555
H47A C39A 1_555 1_555
N1A C5A 1_555 1_555
H7A C5A 1_555 1_555
H8A C5A 1_555 1_555
H37A C26A 1_555 1_555
Ni1A N6A 1_555 1_555
N3A C15A 1_555 1_555
H23A C15A 1_555 1_555
H24A C15A 1_555 1_555
H45A C36A 1_555 1_555
Ni1A_2 N8A 1_555 1_555
C1A N1A 1_555 1_555
C4A N1A 1_555 1_555
N5A Ni1A 1_555 1_555
N7A Ni1A 1_555 1_555
N8A_2 Ni1A 1_555 1_555
N9A Ni1A 1_555 1_555
N10A Ni1A 1_555 1_555
C11A N3A 1_555 1_555
C14A N3A 1_555 1_555
O2A C1A 1_555 1_555
C2A C1A 1_555 1_555
C3A C4A 1_555 1_555
H5A C4A 1_555 1_555
H6A C4A 1_555 1_555
C23A N5A 1_555 1_555
C24A N5A 1_555 1_555
C31A N7A 1_555 1_555
C35A N7A 1_555 1_555
C41A N9A 1_555 1_555
C42A N10A 1_555 1_555
O4A C11A 1_555 1_555
C12A C11A 1_555 1_555
C13A C14A 1_555 1_555
H21A C14A 1_555 1_555
H22A C14A 1_555 1_555
Nd1A O2A 1_555 1_555
H1A C2A 1_555 1_555
H2A C2A 1_555 1_555
H3A C3A 1_555 1_555
H4A C3A 1_555 1_555
C22A C23A 1_555 1_555
H34A C23A 1_555 1_555
C25A C24A 1_555 1_555
H35A C24A 1_555 1_555
C32A C31A 1_555 1_555
H41A C31A 1_555 1_555
C34A C35A 1_555 1_555
H44A C35A 1_555 1_555
S1A C41A 1_555 1_555
S2A C42A 1_555 1_555
Nd1A_2 O4A 1_555 1_555
H17A C12A 1_555 1_555
H18A C12A 1_555 1_555
H19A C13A 1_555 1_555
H20A C13A 1_555 1_555
O3A Nd1A 1_555 1_555
O4A_2 Nd1A 1_555 1_555
O5A Nd1A 1_555 1_555
O6A Nd1A 1_555 1_555
O8A Nd1A 1_555 1_555
O10A Nd1A 1_555 1_555
O11A Nd1A 1_555 1_555
O12A Nd1A 1_555 1_555
O14A Nd1A 1_555 1_555
C21A C22A 1_555 1_555
H33A C22A 1_555 1_555
H36A C25A 1_555 1_555
C33A C32A 1_555 1_555
H42A C32A 1_555 1_555
H43A C34A 1_555 1_555
C6A O3A 1_555 1_555
C16A O5A 1_555 1_555
N11A O6A 1_555 1_555
N12A O10A 1_555 1_555
N13A O12A 1_555 1_555
C20A C21A 1_555 1_555
C10A C33A 1_555 1_555
C7A C6A 1_555 1_555
N2A C6A 1_555 1_555
C17A C16A 1_555 1_555
N4A C16A 1_555 1_555
O7A N11A 1_555 1_555
O9A N12A 1_555 1_555
O13A N13A 1_555 1_555
H31A C20A 1_555 1_555
H32A C20A 1_555 1_555
N2A_2 C10A 1_555 1_555
H15A C10A 1_555 1_555
H16A C10A 1_555 1_555
C8A C7A 1_555 1_555
H9A C7A 1_555 1_555
H10A C7A 1_555 1_555
C9A N2A 1_555 1_555
C10A_2 N2A 1_555 1_555
C18A C17A 1_555 1_555
H25A C17A 1_555 1_555
H26A C17A 1_555 1_555
C19A N4A 1_555 1_555
H11A C8A 1_555 1_555
H12A C8A 1_555 1_555
H13A C9A 1_555 1_555
H14A C9A 1_555 1_555
H27A C18A 1_555 1_555
H28A C18A 1_555 1_555
H29A C19A 1_555 1_555
H30A C19A 1_555 1_555
C9 N2 1_555 1_555
C14 N3 1_555 1_555
C19 N4 1_555 1_555
C24 C25 1_555 1_555
N11 O8 1_555 1_555
N12 O11 1_555 1_555
N13 O14 1_555 1_555
C28A C29A 1_555 1_555
C38A C39A 1_555 1_555
C26A N6A 1_555 1_555
C36A N8A 1_555 1_555
C2A C3A 1_555 1_555
C12A C13A 1_555 1_555
C25A C21A 1_555 1_555
C34A C33A 1_555 1_555
O8A N11A 1_555 1_555
O11A N12A 1_555 1_555
O14A N13A 1_555 1_555
C20A N4A 1_555 1_555
C8A C9A 1_555 1_555
C18A C19A 1_555 1_555

#END
