
#######################################################################
#
#                 Cambridge Crystallographic Data Centre
#                                CCDC 
#
#######################################################################
#
# If this CIF has been generated from an entry in the Cambridge 
# Structural Database, then it will include bibliographic, chemical, 
# crystal, experimental, refinement or atomic coordinate data resulting 
# from the CCDC's data processing and validation procedures.
#
#######################################################################

data_POPYEA
_symmetry_cell_setting           monoclinic
_symmetry_space_group_name_H-M   'P 21/c'
_symmetry_Int_Tables_number      14
_space_group_name_Hall           '-P 2ybc'
loop_
_symmetry_equiv_pos_site_id
_symmetry_equiv_pos_as_xyz
1 x,y,z
2 -x,1/2+y,1/2-z
3 -x,-y,-z
4 x,1/2-y,1/2+z
_cell_length_a                   13.981(3)
_cell_length_b                   42.764(9)
_cell_length_c                   17.679(4)
_cell_angle_alpha                90
_cell_angle_beta                 97.63(3)
_cell_angle_gamma                90
_cell_volume                     10476.4
loop_
_atom_site_label
_atom_site_type_symbol
_atom_site_fract_x
_atom_site_fract_y
_atom_site_fract_z
Si1 Si 0.9536(7) 0.39647(18) 0.6064(4)
W1 W 1.15970(8) 0.35800(2) 0.55992(6)
W2 W 0.75479(8) 0.43951(2) 0.64371(6)
W3 W 0.74447(8) 0.35405(2) 0.62280(6)
W4 W 1.07615(9) 0.34767(2) 0.74807(6)
W5 W 1.03772(9) 0.40308(2) 0.42484(6)
W6 W 0.95986(9) 0.47874(2) 0.63141(6)
W7 W 1.16919(9) 0.43567(2) 0.57828(6)
W8 W 0.93422(9) 0.31520(2) 0.57410(6)
W9 W 0.80840(9) 0.36346(2) 0.44797(6)
W10 W 1.09733(9) 0.42543(2) 0.77041(6)
W11 W 0.83154(9) 0.44920(2) 0.47346(6)
W12 W 0.88896(9) 0.38952(2) 0.79234(6)
O1 O 0.7299(13) 0.4530(4) 0.5402(9)
O2 O 0.8844(13) 0.3671(4) 0.5741(9)
O3 O 0.7451(17) 0.3540(5) 0.3624(11)
O4 O 1.1283(13) 0.3697(4) 0.4546(10)
O5 O 0.8274(18) 0.3870(4) 0.8711(10)
O6 O 0.8096(14) 0.3157(4) 0.6138(11)
O7 O 1.0494(15) 0.4064(4) 0.3306(10)
O8 O 0.9932(12) 0.3918(3) 0.6964(8)
O9 O 0.7126(14) 0.3544(4) 0.5106(9)
O10 O 0.6489(13) 0.4530(4) 0.6740(9)
O11 O 0.8247(16) 0.4227(4) 0.7352(10)
O12 O 1.1656(13) 0.4271(4) 0.6841(10)
O13 O 0.8657(16) 0.3232(4) 0.4778(10)
O14 O 1.1715(15) 0.4452(5) 0.8394(11)
O15 O 1.1363(14) 0.4315(4) 0.4716(10)
O16 O 1.2520(15) 0.3319(4) 0.5486(10)
O17 O 1.1509(13) 0.3541(4) 0.6647(9)
O18 O 1.0146(14) 0.4574(4) 0.7205(9)
O19 O 1.1390(15) 0.3187(4) 0.7977(9)
O20 O 0.7766(16) 0.4677(5) 0.3943(10)
O21 O 1.0481(13) 0.3321(3) 0.5445(9)
O22 O 1.0476(13) 0.3976(3) 0.5590(9)
O23 O 0.9878(16) 0.5167(4) 0.6559(10)
O24 O 1.0701(14) 0.4637(4) 0.5861(9)
O25 O 0.7849(13) 0.4069(4) 0.4546(9)
O26 O 0.9795(15) 0.3548(4) 0.8106(10)
O27 O 0.6368(16) 0.3401(4) 0.6477(12)
O28 O 0.9515(15) 0.2755(4) 0.5712(11)
O29 O 1.2703(14) 0.4596(4) 0.5828(11)
O30 O 0.8370(15) 0.4755(3) 0.6639(9)
O31 O 0.8943(13) 0.4293(3) 0.5945(8)
O32 O 1.1424(14) 0.3837(4) 0.7948(10)
O33 O 0.9303(14) 0.3750(4) 0.4206(9)
O34 O 0.8105(14) 0.3622(4) 0.7187(9)
O35 O 0.8952(14) 0.4826(4) 0.5286(9)
O36 O 0.9906(15) 0.3247(4) 0.6759(10)
O37 O 0.9916(13) 0.4166(4) 0.8287(9)
O38 O 1.2336(15) 0.3947(4) 0.5761(9)
O39 O 0.9464(13) 0.4350(3) 0.4396(9)
O40 O 0.7192(14) 0.3981(4) 0.6173(10)
C1 C 0.432(4) 0.4984(10) 0.852(3)
H1 H 0.4859 0.4952 0.8880
C2 C 0.339(3) 0.5013(7) 0.7473(18)
H2 H 0.3134 0.5009 0.6961
C3 C 0.190(3) 0.5208(8) 0.799(2)
H3 H 0.1563 0.5185 0.7481
H4 H 0.1566 0.5084 0.8337
C4 C 0.190(2) 0.5538(6) 0.8223(15)
C5 C 0.217(3) 0.5622(7) 0.9023(18)
H5 H 0.2344 0.5468 0.9387
C6 C 0.216(3) 0.5929(7) 0.9232(19)
H6 H 0.2239 0.5978 0.9749
C7 C 0.204(2) 0.6175(7) 0.8692(16)
C8 C 0.182(2) 0.6079(6) 0.7903(15)
H7 H 0.1719 0.6230 0.7521
C9 C 0.175(2) 0.5775(7) 0.7713(18)
H8 H 0.1586 0.5724 0.7201
C10 C 0.220(2) 0.6509(7) 0.8912(16)
C11 C 0.238(3) 0.6736(7) 0.8387(18)
H9 H 0.2380 0.6683 0.7877
C12 C 0.256(3) 0.7040(8) 0.862(2)
H10 H 0.2751 0.7186 0.8277
C13 C 0.247(2) 0.7128(7) 0.9346(18)
C14 C 0.220(2) 0.6916(6) 0.9863(16)
H11 H 0.2079 0.6979 1.0344
C15 C 0.212(2) 0.6608(7) 0.9647(16)
H12 H 0.2011 0.6460 1.0010
C16 C 0.272(3) 0.7463(7) 0.9630(18)
H13 H 0.2382 0.7613 0.9281
H14 H 0.2520 0.7492 1.0128
C17 C 0.519(3) 0.7432(7) 0.9872(17)
H15 H 0.5787 0.7331 0.9966
C18 C 0.419(3) 0.7791(7) 0.9612(18)
H16 H 0.3894 0.7982 0.9498
C19 C 0.721(2) 0.7437(6) 0.8984(15)
H17 H 0.6694 0.7418 0.8597
C20 C 0.8058(18) 0.7591(6) 1.0009(14)
H18 H 0.8274 0.7689 1.0470
C21 C 0.941(3) 0.7192(9) 1.001(2)
H19 H 0.9945 0.7295 0.9811
H20 H 0.9506 0.7216 1.0560
C22 C 0.942(2) 0.6856(7) 0.9822(17)
C23 C 0.898(2) 0.6636(6) 1.0260(17)
H21 H 0.8660 0.6709 1.0654
C24 C 0.900(3) 0.6318(8) 1.0131(18)
H22 H 0.8796 0.6179 1.0479
C25 C 0.934(2) 0.6208(6) 0.9477(16)
C26 C 0.967(3) 0.6408(8) 0.895(2)
H23 H 0.9823 0.6341 0.8478
C27 C 0.976(3) 0.6725(8) 0.920(2)
H24 H 1.0088 0.6858 0.8910
C28 C 0.927(2) 0.5872(7) 0.9293(16)
C29 C 0.914(2) 0.5638(6) 0.9858(16)
H25 H 0.9076 0.5699 1.0353
C30 C 0.912(3) 0.5331(7) 0.9679(17)
H26 H 0.9085 0.5184 1.0063
C31 C 0.914(3) 0.5230(7) 0.8933(18)
C32 C 0.932(3) 0.5443(8) 0.836(2)
H27 H 0.9439 0.5374 0.7883
C33 C 0.933(3) 0.5751(8) 0.8535(19)
H28 H 0.9370 0.5894 0.8144
C34 C 0.901(3) 0.4878(8) 0.876(2)
H29 H 0.9281 0.4825 0.8301
H30 H 0.9338 0.4756 0.9180
C35 C 0.729(2) 0.4907(7) 0.8064(17)
H31 H 0.7388 0.5033 0.7654
C36 C 0.665(4) 0.4596(10) 0.885(2)
H32 H 0.6196 0.4472 0.9053
C37 C 1.555(3) 0.4015(9) -0.222(2)
H33 H 1.6115 0.3984 -0.2437
C38 C 1.429(3) 0.4221(8) -0.1984(19)
H34 H 1.3789 0.4360 -0.1943
C39 C 1.371(2) 0.3778(6) -0.1246(14)
H35 H 1.3742 0.3553 -0.1322
H36 H 1.3054 0.3845 -0.1416
C40 C 1.397(3) 0.3851(8) -0.040(2)
C41 C 1.343(3) 0.4063(8) -0.005(2)
H37 H 1.2906 0.4162 -0.0335
C42 C 1.363(3) 0.4128(8) 0.0693(19)
H38 H 1.3250 0.4275 0.0903
C43 C 1.441(3) 0.3981(8) 0.1190(19)
C44 C 1.503(3) 0.3806(8) 0.084(2)
H39 H 1.5625 0.3745 0.1100
C45 C 1.474(3) 0.3710(9) -0.002(2)
H40 H 1.5090 0.3561 -0.0250
C46 C 1.464(3) 0.4047(8) 0.2040(19)
C47 C 1.560(3) 0.4082(7) 0.2356(18)
H41 H 1.6094 0.4080 0.2048
C48 C 1.581(3) 0.4118(9) 0.312(2)
H42 H 1.6436 0.4168 0.3327
C49 C 1.513(2) 0.4083(7) 0.3578(17)
C50 C 1.412(3) 0.4051(7) 0.3226(19)
H43 H 1.3630 0.4060 0.3530
C51 C 1.391(3) 0.4010(8) 0.2478(19)
H44 H 1.3286 0.3958 0.2259
C52 C 1.535(3) 0.4142(7) 0.4438(17)
H45 H 1.6048 0.4156 0.4573
H46 H 1.5080 0.4341 0.4556
C53 C 1.443(2) 0.3682(5) 0.5844(15)
H47 H 1.4219 0.3654 0.6317
C54 C 1.480(2) 0.3584(4) 0.4749(13)
H48 H 1.4903 0.3482 0.4301
C55 C 2.355(3) 0.2173(7) 0.8674(13)
H49 H 2.4020 0.2327 0.8772
C56 C 2.258(2) 0.1814(6) 0.8840(12)
H50 H 2.2218 0.1664 0.9059
C57 C 2.159(3) 0.1833(8) 0.753(2)
H51 H 2.1440 0.1611 0.7543
H52 H 2.1736 0.1884 0.7024
C58 C 2.069(3) 0.2030(7) 0.7714(17)
C59 C 2.056(3) 0.2322(8) 0.7421(19)
H53 H 2.0997 0.2408 0.7130
C60 C 1.975(3) 0.2492(8) 0.7560(19)
H54 H 1.9685 0.2695 0.7374
C61 C 1.903(2) 0.2378(7) 0.7961(16)
C62 C 1.925(4) 0.2067(10) 0.821(3)
H55 H 1.8819 0.1969 0.8489
C63 C 2.004(3) 0.1902(10) 0.808(2)
H56 H 2.0119 0.1697 0.8257
C64 C 1.815(2) 0.2538(6) 0.8086(15)
C65 C 1.808(3) 0.2861(8) 0.8015(19)
H57 H 1.8615 0.2974 0.7911
C66 C 1.727(3) 0.3010(10) 0.809(2)
H58 H 1.7259 0.3224 0.8010
C67 C 1.646(2) 0.2871(7) 0.8284(15)
C68 C 1.653(2) 0.2540(6) 0.8313(15)
H59 H 1.5989 0.2421 0.8385
C69 C 1.737(2) 0.2398(6) 0.8236(15)
H60 H 1.7395 0.2182 0.8296
C70 C 1.557(2) 0.3040(7) 0.8413(16)
H61 H 1.5328 0.2952 0.8859
H62 H 1.5722 0.3257 0.8522
C71 C 1.344(3) 0.3062(8) 0.712(2)
H63 H 1.2785 0.3102 0.6999
C72 C 1.486(3) 0.3003(7) 0.6985(17)
H64 H 1.5435 0.2979 0.6783
Ni1 Ni 0.5383(3) 0.47200(8) 0.72600(19)
N1 N 0.429(2) 0.4930(6) 0.7730(15)
Ni2 Ni 1.3711(3) 0.30318(7) 0.5391(2)
N2 N 0.347(3) 0.5088(7) 0.8681(17)
N3 N 0.2919(17) 0.5101(4) 0.8025(11)
N4 N 0.3763(17) 0.7518(4) 0.9680(12)
N5 N 0.438(2) 0.7287(6) 0.9861(16)
N6 N 0.5112(18) 0.7741(5) 0.9735(12)
N7 N 0.8507(17) 0.7346(4) 0.9697(11)
N8 N 0.7982(18) 0.7234(6) 0.9040(13)
N9 N 0.7238(17) 0.7668(4) 0.9525(11)
N10 N 0.796(2) 0.4807(6) 0.8660(16)
N11 N 0.758(3) 0.4624(7) 0.9150(18)
N12 N 0.645(2) 0.4778(5) 0.8212(14)
N13 N 1.434(2) 0.3927(6) -0.1687(15)
N14 N 1.522(3) 0.3796(8) -0.178(2)
N15 N 1.504(2) 0.4285(5) -0.2340(14)
N16 N 1.4978(17) 0.3895(4) 0.4916(10)
N17 N 1.4733(19) 0.3970(5) 0.5622(11)
N18 N 1.4447(16) 0.3453(4) 0.5365(10)
N19 N 2.2390(19) 0.1905(6) 0.8089(12)
N20 N 2.302(2) 0.2141(6) 0.7966(14)
N21 N 2.3354(17) 0.1967(5) 0.9232(12)
N22 N 1.479(2) 0.3023(6) 0.7760(15)
N23 N 1.385(3) 0.3041(8) 0.786(2)
N24 N 1.4013(19) 0.3024(5) 0.6574(13)
O41 O 0.4586(17) 0.4618(6) 0.6213(11)
O42 O 0.572(2) 0.5148(5) 0.6796(14)
Ni1_2 Ni 1.5383(3) 0.47200(8) -0.27400(19)
Ni2A Ni 0.6289(3) 0.80318(7) 0.9609(2)
Ni2C Ni 2.3711(3) 0.19682(7) 1.0391(2)
N6A N 1.4888(18) 0.2741(5) 0.5265(12)
N9A N 1.2762(17) 0.2668(4) 0.5475(11)
N15_2 N 0.504(2) 0.4285(5) 0.7660(14)
N21C N 1.3354(17) 0.3033(5) 0.4232(12)
O43 O 1.556(3) 0.3223(8) 0.3306(19)
O44 O 0.700(5) 0.7001(14) 1.069(4)
O45 O 0.717(5) 0.5318(14) 0.598(3)
O46 O 0.437(5) 0.5054(16) 0.504(4)
O47 O 1.485(7) 0.3060(18) 0.188(4)
loop_
_geom_bond_atom_site_label_1
_geom_bond_atom_site_label_2
_geom_bond_site_symmetry_1
_geom_bond_site_symmetry_2
Si1 O2 1_555 1_555
W1 O4 1_555 1_555
W2 O1 1_555 1_555
W3 O2 1_555 1_555
W4 O8 1_555 1_555
W5 O4 1_555 1_555
W6 O18 1_555 1_555
W7 O12 1_555 1_555
W8 O2 1_555 1_555
W9 O2 1_555 1_555
W10 O8 1_555 1_555
W11 O1 1_555 1_555
W12 O5 1_555 1_555
O3 W9 1_555 1_555
O6 W3 1_555 1_555
O7 W5 1_555 1_555
O8 Si1 1_555 1_555
O9 W3 1_555 1_555
O10 W2 1_555 1_555
O11 W2 1_555 1_555
O12 W10 1_555 1_555
O13 W8 1_555 1_555
O14 W10 1_555 1_555
O15 W5 1_555 1_555
O16 W1 1_555 1_555
O17 W1 1_555 1_555
O18 W10 1_555 1_555
O19 W4 1_555 1_555
O20 W11 1_555 1_555
O21 W1 1_555 1_555
O22 Si1 1_555 1_555
O23 W6 1_555 1_555
O24 W6 1_555 1_555
O25 W9 1_555 1_555
O26 W4 1_555 1_555
O27 W3 1_555 1_555
O28 W8 1_555 1_555
O29 W7 1_555 1_555
O30 W2 1_555 1_555
O31 Si1 1_555 1_555
O32 W4 1_555 1_555
O33 W5 1_555 1_555
O34 W3 1_555 1_555
O35 W6 1_555 1_555
O36 W4 1_555 1_555
O37 W10 1_555 1_555
O38 W1 1_555 1_555
O39 W5 1_555 1_555
O40 W2 1_555 1_555
C1 H1 1_555 1_555
C2 H2 1_555 1_555
C3 H3 1_555 1_555
H4 C3 1_555 1_555
C4 C3 1_555 1_555
C5 C4 1_555 1_555
H5 C5 1_555 1_555
C6 C5 1_555 1_555
H6 C6 1_555 1_555
C7 C6 1_555 1_555
C8 C7 1_555 1_555
H7 C8 1_555 1_555
C9 C4 1_555 1_555
H8 C9 1_555 1_555
C10 C7 1_555 1_555
C11 C10 1_555 1_555
H9 C11 1_555 1_555
C12 C11 1_555 1_555
H10 C12 1_555 1_555
C13 C12 1_555 1_555
C14 C13 1_555 1_555
H11 C14 1_555 1_555
C15 C10 1_555 1_555
H12 C15 1_555 1_555
C16 C13 1_555 1_555
H13 C16 1_555 1_555
H14 C16 1_555 1_555
C17 H15 1_555 1_555
C18 H16 1_555 1_555
C19 H17 1_555 1_555
C20 H18 1_555 1_555
C21 H19 1_555 1_555
H20 C21 1_555 1_555
C22 C21 1_555 1_555
C23 C22 1_555 1_555
H21 C23 1_555 1_555
C24 C23 1_555 1_555
H22 C24 1_555 1_555
C25 C24 1_555 1_555
C26 C25 1_555 1_555
H23 C26 1_555 1_555
C27 C22 1_555 1_555
H24 C27 1_555 1_555
C28 C25 1_555 1_555
C29 C28 1_555 1_555
H25 C29 1_555 1_555
C30 C29 1_555 1_555
H26 C30 1_555 1_555
C31 C30 1_555 1_555
C32 C31 1_555 1_555
H27 C32 1_555 1_555
C33 C28 1_555 1_555
H28 C33 1_555 1_555
C34 C31 1_555 1_555
H29 C34 1_555 1_555
H30 C34 1_555 1_555
C35 H31 1_555 1_555
C36 H32 1_555 1_555
C37 H33 1_555 1_555
C38 H34 1_555 1_555
C39 H35 1_555 1_555
H36 C39 1_555 1_555
C40 C39 1_555 1_555
C41 C40 1_555 1_555
H37 C41 1_555 1_555
C42 C41 1_555 1_555
H38 C42 1_555 1_555
C43 C42 1_555 1_555
C44 C43 1_555 1_555
H39 C44 1_555 1_555
C45 C40 1_555 1_555
H40 C45 1_555 1_555
C46 C43 1_555 1_555
C47 C46 1_555 1_555
H41 C47 1_555 1_555
C48 C47 1_555 1_555
H42 C48 1_555 1_555
C49 C48 1_555 1_555
C50 C49 1_555 1_555
H43 C50 1_555 1_555
C51 C46 1_555 1_555
H44 C51 1_555 1_555
C52 C49 1_555 1_555
H45 C52 1_555 1_555
H46 C52 1_555 1_555
C53 H47 1_555 1_555
C54 H48 1_555 1_555
C55 H49 1_555 1_555
C56 H50 1_555 1_555
C57 H51 1_555 1_555
H52 C57 1_555 1_555
C58 C57 1_555 1_555
C59 C58 1_555 1_555
H53 C59 1_555 1_555
C60 C59 1_555 1_555
H54 C60 1_555 1_555
C61 C60 1_555 1_555
C62 C61 1_555 1_555
H55 C62 1_555 1_555
C63 C58 1_555 1_555
H56 C63 1_555 1_555
C64 C61 1_555 1_555
C65 C64 1_555 1_555
H57 C65 1_555 1_555
C66 C65 1_555 1_555
H58 C66 1_555 1_555
C67 C66 1_555 1_555
C68 C67 1_555 1_555
H59 C68 1_555 1_555
C69 C64 1_555 1_555
H60 C69 1_555 1_555
C70 C67 1_555 1_555
H61 C70 1_555 1_555
H62 C70 1_555 1_555
C71 H63 1_555 1_555
C72 H64 1_555 1_555
Ni1 O10 1_555 1_555
N1 C1 1_555 1_555
Ni2 O16 1_555 1_555
N2 C1 1_555 1_555
N3 C2 1_555 1_555
N4 C16 1_555 1_555
N5 C17 1_555 1_555
N6 C17 1_555 1_555
N7 C20 1_555 1_555
N8 C19 1_555 1_555
N9 C19 1_555 1_555
N10 C34 1_555 1_555
N11 C36 1_555 1_555
N12 C35 1_555 1_555
N13 C38 1_555 1_555
N14 C37 1_555 1_555
N15 C37 1_555 1_555
N16 C52 1_555 1_555
N17 C53 1_555 1_555
N18 C53 1_555 1_555
N19 C56 1_555 1_555
N20 C55 1_555 1_555
N21 C55 1_555 1_555
N22 C70 1_555 1_555
N23 C71 1_555 1_555
N24 C71 1_555 1_555
O41 Ni1 1_555 1_555
O42 Ni1 1_555 1_555
Ni1_2 N15 1_555 1_555
Ni2A N6 1_555 1_555
Ni2C N21 1_555 1_555
N6A Ni2 1_555 1_555
N9A Ni2 1_555 1_555
N15_2 Ni1 1_555 1_555
N21C Ni2 1_555 1_555
W1 O22 1_555 1_555
W2 O31 1_555 1_555
W3 O40 1_555 1_555
W4 O17 1_555 1_555
W5 O22 1_555 1_555
W6 O30 1_555 1_555
W6 O31 1_555 1_555
W7 O15 1_555 1_555
W7 O22 1_555 1_555
W7 O24 1_555 1_555
W7 O38 1_555 1_555
W8 O6 1_555 1_555
W8 O21 1_555 1_555
W8 O36 1_555 1_555
W9 O9 1_555 1_555
W9 O13 1_555 1_555
W9 O33 1_555 1_555
W10 O32 1_555 1_555
W11 O25 1_555 1_555
W11 O31 1_555 1_555
W11 O35 1_555 1_555
W11 O39 1_555 1_555
W12 O8 1_555 1_555
W12 O11 1_555 1_555
W12 O26 1_555 1_555
W12 O34 1_555 1_555
W12 O37 1_555 1_555
C2 N1 1_555 1_555
C3 N3 1_555 1_555
C8 C9 1_555 1_555
C14 C15 1_555 1_555
C18 N4 1_555 1_555
C18 N6 1_555 1_555
C20 N9 1_555 1_555
C21 N7 1_555 1_555
C26 C27 1_555 1_555
C32 C33 1_555 1_555
C35 N10 1_555 1_555
C36 N12 1_555 1_555
C38 N15 1_555 1_555
C39 N13 1_555 1_555
C44 C45 1_555 1_555
C50 C51 1_555 1_555
C54 N16 1_555 1_555
C54 N18 1_555 1_555
C56 N21 1_555 1_555
C57 N19 1_555 1_555
C62 C63 1_555 1_555
C68 C69 1_555 1_555
C72 N22 1_555 1_555
C72 N24 1_555 1_555
Ni1 N1 1_555 1_555
Ni1 N12 1_555 1_555
Ni2 N18 1_555 1_555
Ni2 N24 1_555 1_555
N2 N3 1_555 1_555
N4 N5 1_555 1_555
N7 N8 1_555 1_555
N9 Ni2A 1_555 1_555
N10 N11 1_555 1_555
N13 N14 1_555 1_555
N16 N17 1_555 1_555
N19 N20 1_555 1_555
N22 N23 1_555 1_555

#END
