
#######################################################################
#
#                 Cambridge Crystallographic Data Centre
#                                CCDC 
#
#######################################################################
#
# If this CIF has been generated from an entry in the Cambridge 
# Structural Database, then it will include bibliographic, chemical, 
# crystal, experimental, refinement or atomic coordinate data resulting 
# from the CCDC's data processing and validation procedures.
#
#######################################################################

data_POPZIF
_symmetry_cell_setting           monoclinic
_symmetry_space_group_name_H-M   'C 2/c'
_symmetry_Int_Tables_number      15
_space_group_name_Hall           '-C 2yn'
loop_
_symmetry_equiv_pos_site_id
_symmetry_equiv_pos_as_xyz
1 x,y,z
2 -x,y,1/2-z
3 1/2+x,1/2+y,z
4 1/2-x,1/2+y,1/2-z
5 -x,-y,-z
6 x,-y,1/2+z
7 1/2-x,1/2-y,-z
8 1/2+x,1/2-y,1/2+z
_cell_length_a                   38.594(2)
_cell_length_b                   21.4797(7)
_cell_length_c                   24.7895(13)
_cell_angle_alpha                90
_cell_angle_beta                 120.853(7)
_cell_angle_gamma                90
_cell_volume                     17642
loop_
_atom_site_label
_atom_site_type_symbol
_atom_site_fract_x
_atom_site_fract_y
_atom_site_fract_z
W1 W 0.20168(4) 0.44922(5) 0.12720(5)
W2 W 0.12539(4) 0.45026(5) -0.02238(5)
W3 W 0.32473(3) 0.50829(5) 0.04919(5)
W4 W 0.29811(4) 0.36449(5) 0.06837(5)
W5 W 0.23132(4) 0.60733(5) 0.10483(5)
W6 W 0.24130(4) 0.50850(5) -0.11689(5)
W7 W 0.21567(4) 0.36495(5) -0.09712(5)
W8 W 0.19359(4) 0.33465(5) 0.02886(5)
W9 W 0.14686(4) 0.47925(6) -0.14930(5)
W10 W 0.15496(4) 0.60790(5) -0.04431(5)
W11 W 0.30630(4) 0.47958(6) 0.16562(5)
W12 W 0.24993(4) 0.63619(5) -0.01089(6)
Si1 Si 0.22433(18) 0.4824(2) 0.0101(3)
O1 O 0.2688(8) 0.7018(10) -0.0257(12)
O2 O 0.3382(7) 0.4866(10) 0.2464(9)
O3 O 0.2388(6) 0.6567(7) 0.1660(8)
O4 O 0.3266(6) 0.2987(9) 0.0895(10)
O5 O 0.1143(7) 0.6554(8) -0.0795(9)
O6 O 0.2576(6) 0.5334(9) -0.1661(9)
O7 O 0.3189(6) 0.3996(8) 0.1530(8)
O8 O 0.1936(6) 0.3394(8) -0.0474(8)
O9 O 0.2057(6) 0.5376(8) 0.1167(8)
O10 O 0.1037(6) 0.4867(10) -0.2192(8)
O11 O 0.2789(6) 0.5588(8) 0.1452(8)
O12 O 0.2145(6) 0.2952(8) -0.1335(8)
O13 O 0.1863(7) 0.2564(9) 0.0350(9)
O14 O 0.2929(5) 0.4947(7) -0.0387(7)
O15 O 0.3688(5) 0.5320(8) 0.0554(8)
O16 O 0.2672(5) 0.3605(7) -0.0209(7)
O17 O 0.1987(6) 0.4464(10) 0.1945(8)
O18 O 0.1789(5) 0.6354(7) 0.0429(8)
O19 O 0.1634(6) 0.3962(9) -0.1569(8)
O20 O 0.1352(6) 0.5367(9) -0.0214(9)
O21 O 0.2111(5) 0.4658(7) -0.0628(7)
O22 O 0.2953(6) 0.5846(8) 0.0331(9)
O23 O 0.0745(6) 0.4468(9) -0.0522(8)
O24 O 0.1945(5) 0.6572(8) -0.0499(8)
O25 O 0.2371(5) 0.5848(7) -0.0795(7)
O26 O 0.2551(6) 0.6593(8) 0.0685(8)
O27 O 0.3334(5) 0.4206(7) 0.0605(8)
O28 O 0.2171(5) 0.5578(6) 0.0137(7)
O29 O 0.1966(6) 0.4412(8) 0.0303(8)
O30 O 0.1488(5) 0.5572(8) -0.1125(7)
O31 O 0.2382(6) 0.4205(9) -0.1317(8)
O32 O 0.1390(5) 0.3615(8) -0.0098(7)
O33 O 0.2515(5) 0.3391(8) 0.0704(7)
O34 O 0.3418(6) 0.5125(9) 0.1384(7)
O35 O 0.2732(5) 0.4658(7) 0.0563(6)
O36 O 0.1446(5) 0.4541(8) 0.0640(8)
O37 O 0.1827(5) 0.5124(8) -0.1728(7)
O38 O 0.1300(6) 0.4466(8) -0.0954(8)
O39 O 0.1999(5) 0.3632(7) 0.1086(7)
O40 O 0.2586(5) 0.4490(9) 0.1596(7)
Ni1 Ni 0.24097(11) 0.71747(14) 0.23424(15)
O41 O 0.2399(6) 0.7752(10) 0.3007(8)
N1 N 0.1895(6) 0.6716(9) 0.2223(9)
C1 C 0.1577(7) 0.6981(8) 0.2212(9)
H1 H 0.1561 0.7391 0.2318
N2 N 0.1286(6) 0.6551(8) 0.2023(9)
N3 N 0.1424(6) 0.6021(8) 0.1917(9)
C2 C 0.1800(6) 0.6123(9) 0.2041(9)
H2 H 0.1966 0.5833 0.2006
C3 C 0.1171(9) 0.5487(13) 0.1653(14)
H3 H 0.1094 0.5335 0.1946
H4 H 0.1321 0.5161 0.1593
C4 C 0.0797(6) 0.5631(9) 0.1036(8)
C5 C 0.0423(6) 0.5588(10) 0.0976(9)
H5 H 0.0401 0.5466 0.1317
C6 C 0.0081(6) 0.5726(11) 0.0411(9)
H6 H -0.0172 0.5697 0.0371
C7 C 0.0113(6) 0.5907(10) -0.0094(9)
C8 C 0.0487(6) 0.5950(9) -0.0034(8)
H7 H 0.0509 0.6072 -0.0376
C9 C 0.0829(5) 0.5812(9) 0.0531(8)
H8 H 0.1082 0.5841 0.0571
C10 C -0.0280(6) 0.6029(11) -0.0719(12)
C11 C -0.0277(7) 0.5998(12) -0.1276(13)
H9 H -0.0038 0.5909 -0.1267
C12 C -0.0630(7) 0.6099(12) -0.1847(11)
H10 H -0.0628 0.6078 -0.2220
C13 C -0.0987(7) 0.6231(10) -0.1860(10)
C14 C -0.0990(6) 0.6262(12) -0.1302(11)
H11 H -0.1229 0.6350 -0.1311
C15 C -0.0636(7) 0.6161(12) -0.0732(11)
H12 H -0.0638 0.6182 -0.0359
C16 C -0.1359(9) 0.6297(14) -0.2509(14)
H13 H -0.1519 0.5920 -0.2613
H14 H -0.1277 0.6350 -0.2816
N4 N -0.2071(6) 0.7425(9) -0.2558(9)
C17 C -0.1771(7) 0.7796(9) -0.2498(11)
H15 H -0.1765 0.8228 -0.2471
N5 N -0.1483(6) 0.7430(11) -0.2485(12)
N6 N -0.1605(6) 0.6833(10) -0.2536(11)
C18 C -0.1968(6) 0.6831(8) -0.2581(10)
H16 H -0.2121 0.6480 -0.2621
N7 N 0.2047(6) 0.7829(8) 0.1661(8)
C19 C 0.1876(7) 0.7721(9) 0.1035(9)
H17 H 0.1907 0.7363 0.0853
N8 N 0.1649(7) 0.8226(9) 0.0722(7)
N9 N 0.1681(6) 0.8647(8) 0.1155(7)
C20 C 0.1927(6) 0.8402(8) 0.1735(8)
H18 H 0.2001 0.8592 0.2116
N10 N -0.2215(6) 0.8449(9) -0.1988(8)
C21 C -0.2065(6) 0.9051(8) -0.1992(9)
H19 H -0.2158 0.9297 -0.2349
N11 N -0.1783(6) 0.9214(8) -0.1432(9)
N12 N -0.1729(6) 0.8760(8) -0.1051(8)
C22 C -0.1979(6) 0.8317(8) -0.1375(7)
H20 H -0.1993 0.7943 -0.1198
C23 C 0.1498(10) 0.9261(11) 0.104(2)
H21 H 0.1563 0.9487 0.0767
H22 H 0.1623 0.9482 0.1441
C24 C -0.1564(12) 0.9777(17) -0.112(3)
H23 H -0.1620 0.9893 -0.0794
H24 H -0.1647 1.0116 -0.1419
C25 C 0.0871(10) 0.9480(18) 0.1109(16)
H25 H 0.1034 0.9602 0.1526
C26 C 0.0448(12) 0.9491(18) 0.0824(16)
H26 H 0.0331 0.9620 0.1052
C27 C 0.0202(11) 0.9306(18) 0.0192(17)
C28 C 0.0380(11) 0.9111(18) -0.0154(16)
H27 H 0.0217 0.8989 -0.0571
C29 C 0.0803(10) 0.9100(18) 0.0131(17)
H28 H 0.0920 0.8971 -0.0098
C30 C 0.1049(9) 0.9285(19) 0.0762(17)
C31 C -0.0517(15) 0.931(2) 0.011(2)
H29 H -0.0396 0.9148 0.0515
C32 C -0.0927(14) 0.941(2) -0.023(2)
H30 H -0.1084 0.9311 -0.0053
C33 C -0.1105(12) 0.965(2) -0.082(2)
C34 C -0.0874(14) 0.980(2) -0.108(2)
H31 H -0.0995 0.9965 -0.1485
C35 C -0.0464(14) 0.970(2) -0.074(2)
H32 H -0.0308 0.9801 -0.0917
C36 C -0.0286(14) 0.946(2) -0.015(2)
Ni1G Ni -0.25903(11) 0.78253(14) -0.26576(15)
N4G N 0.2929(6) 0.7575(9) 0.2442(9)
N10G N 0.2785(6) 0.6551(9) 0.3012(8)
N7D N -0.2047(6) 1.2171(8) -0.1661(8)
C19D C -0.1876(7) 1.2279(9) -0.1035(9)
H17D H -0.1907 1.2637 -0.0853
N8D N -0.1649(7) 1.1774(9) -0.0722(7)
N9D N -0.1681(6) 1.1353(8) -0.1155(7)
C20D C -0.1927(6) 1.1598(8) -0.1735(8)
H18D H -0.2001 1.1408 -0.2116
N10D N 0.2215(6) 1.1551(9) 0.1988(8)
C21D C 0.2065(6) 1.0949(8) 0.1992(9)
H19D H 0.2158 1.0703 0.2349
N11D N 0.1783(6) 1.0786(8) 0.1432(9)
N12D N 0.1729(6) 1.1240(8) 0.1051(8)
C22D C 0.1979(6) 1.1683(8) 0.1375(7)
H20D H 0.1993 1.2057 0.1198
C23D C -0.1498(10) 1.0739(11) -0.104(2)
H21D H -0.1563 1.0513 -0.0767
H22D H -0.1623 1.0518 -0.1441
C24D C 0.1564(12) 1.0223(17) 0.112(3)
H23D H 0.1620 1.0107 0.0794
H24D H 0.1647 0.9884 0.1419
C25D C -0.0871(10) 1.0520(18) -0.1109(16)
H25D H -0.1034 1.0398 -0.1526
C26D C -0.0448(12) 1.0509(18) -0.0824(16)
H26D H -0.0331 1.0380 -0.1052
C27D C -0.0202(11) 1.0694(18) -0.0192(17)
C28D C -0.0380(11) 1.0889(18) 0.0154(16)
H27D H -0.0217 1.1011 0.0571
C29D C -0.0803(10) 1.0900(18) -0.0131(17)
H28D H -0.0920 1.1029 0.0098
C30D C -0.1049(9) 1.0715(19) -0.0762(17)
C31D C 0.0517(15) 1.069(2) -0.011(2)
H29D H 0.0396 1.0852 -0.0515
C32D C 0.0927(14) 1.059(2) 0.023(2)
H30D H 0.1084 1.0689 0.0053
C33D C 0.1105(12) 1.035(2) 0.082(2)
C34D C 0.0874(14) 1.020(2) 0.108(2)
H31D H 0.0995 1.0035 0.1485
C35D C 0.0464(14) 1.030(2) 0.074(2)
H32D H 0.0308 1.0199 0.0917
C36D C 0.0286(14) 1.054(2) 0.015(2)
W1D W -0.20168(4) 1.55078(5) -0.12720(5)
W2D W -0.12539(4) 1.54974(5) 0.02238(5)
W3D W -0.32473(3) 1.49171(5) -0.04919(5)
W4D W -0.29811(4) 1.63551(5) -0.06837(5)
W5D W -0.23132(4) 1.39267(5) -0.10483(5)
W6D W -0.24130(4) 1.49150(5) 0.11689(5)
W7D W -0.21567(4) 1.63505(5) 0.09712(5)
W8D W -0.19359(4) 1.66535(5) -0.02886(5)
W9D W -0.14686(4) 1.52075(6) 0.14930(5)
W10D W -0.15496(4) 1.39210(5) 0.04431(5)
W11D W -0.30630(4) 1.52042(6) -0.16562(5)
W12D W -0.24993(4) 1.36381(5) 0.01089(6)
Si1D Si -0.22433(18) 1.5176(2) -0.0101(3)
O1D O -0.2688(8) 1.2982(10) 0.0257(12)
O2D O -0.3382(7) 1.5134(10) -0.2464(9)
O3D O -0.2388(6) 1.3433(7) -0.1660(8)
O4D O -0.3266(6) 1.7013(9) -0.0895(10)
O5D O -0.1143(7) 1.3446(8) 0.0795(9)
O6D O -0.2576(6) 1.4666(9) 0.1661(9)
O7D O -0.3189(6) 1.6004(8) -0.1530(8)
O8D O -0.1936(6) 1.6606(8) 0.0474(8)
O9D O -0.2057(6) 1.4624(8) -0.1167(8)
O10D O -0.1037(6) 1.5133(10) 0.2192(8)
O11D O -0.2789(6) 1.4412(8) -0.1452(8)
O12D O -0.2145(6) 1.7048(8) 0.1335(8)
O13D O -0.1863(7) 1.7436(9) -0.0350(9)
O14D O -0.2929(5) 1.5053(7) 0.0387(7)
O15D O -0.3688(5) 1.4680(8) -0.0554(8)
O16D O -0.2672(5) 1.6395(7) 0.0209(7)
O17D O -0.1987(6) 1.5536(10) -0.1945(8)
O18D O -0.1789(5) 1.3646(7) -0.0429(8)
O19D O -0.1634(6) 1.6038(9) 0.1569(8)
O20D O -0.1352(6) 1.4633(9) 0.0214(9)
O21D O -0.2111(5) 1.5342(7) 0.0628(7)
O22D O -0.2953(6) 1.4154(8) -0.0331(9)
O23D O -0.0745(6) 1.5532(9) 0.0522(8)
O24D O -0.1945(5) 1.3428(8) 0.0499(8)
O25D O -0.2371(5) 1.4152(7) 0.0795(7)
O26D O -0.2551(6) 1.3407(8) -0.0685(8)
O27D O -0.3334(5) 1.5794(7) -0.0605(8)
O28D O -0.2171(5) 1.4422(6) -0.0137(7)
O29D O -0.1966(6) 1.5588(8) -0.0303(8)
O30D O -0.1488(5) 1.4428(8) 0.1125(7)
O31D O -0.2382(6) 1.5795(9) 0.1317(8)
O32D O -0.1390(5) 1.6385(8) 0.0098(7)
O33D O -0.2515(5) 1.6609(8) -0.0704(7)
O34D O -0.3418(6) 1.4875(9) -0.1384(7)
O35D O -0.2732(5) 1.5342(7) -0.0563(6)
O36D O -0.1446(5) 1.5459(8) -0.0640(8)
O37D O -0.1827(5) 1.4876(8) 0.1728(7)
O38D O -0.1300(6) 1.5534(8) 0.0954(8)
O39D O -0.1999(5) 1.6368(7) -0.1086(7)
O40D O -0.2586(5) 1.5510(9) -0.1596(7)
Ni1D Ni -0.24097(11) 1.28253(14) -0.23424(15)
O41D O -0.2399(6) 1.2248(10) -0.3007(8)
N1D N -0.1895(6) 1.3284(9) -0.2223(9)
C1D C -0.1577(7) 1.3019(8) -0.2212(9)
H1D H -0.1561 1.2609 -0.2318
N2D N -0.1286(6) 1.3449(8) -0.2023(9)
N3D N -0.1424(6) 1.3979(8) -0.1917(9)
C2D C -0.1800(6) 1.3877(9) -0.2041(9)
H2D H -0.1966 1.4167 -0.2006
C3D C -0.1171(9) 1.4513(13) -0.1653(14)
H3D H -0.1094 1.4665 -0.1946
H4D H -0.1321 1.4839 -0.1593
C4D C -0.0797(6) 1.4369(9) -0.1036(8)
C5D C -0.0423(6) 1.4412(10) -0.0976(9)
H5D H -0.0401 1.4534 -0.1317
C6D C -0.0081(6) 1.4274(11) -0.0411(9)
H6D H 0.0172 1.4303 -0.0371
C7D C -0.0113(6) 1.4093(10) 0.0094(9)
C8D C -0.0487(6) 1.4050(9) 0.0034(8)
H7D H -0.0509 1.3928 0.0376
C9D C -0.0829(5) 1.4188(9) -0.0531(8)
H8D H -0.1082 1.4159 -0.0571
C10D C 0.0280(6) 1.3971(11) 0.0719(12)
C11D C 0.0277(7) 1.4002(12) 0.1276(13)
H9D H 0.0038 1.4091 0.1267
C12D C 0.0630(7) 1.3901(12) 0.1847(11)
H10D H 0.0628 1.3922 0.2220
C13D C 0.0987(7) 1.3769(10) 0.1860(10)
C14D C 0.0990(6) 1.3738(12) 0.1302(11)
H11D H 0.1229 1.3650 0.1311
C15D C 0.0636(7) 1.3839(12) 0.0732(11)
H12D H 0.0638 1.3818 0.0359
C16D C 0.1359(9) 1.3703(14) 0.2509(14)
H13D H 0.1519 1.4080 0.2613
H14D H 0.1277 1.3650 0.2816
N4D N 0.2071(6) 1.2575(9) 0.2558(9)
C17D C 0.1771(7) 1.2204(9) 0.2498(11)
H15D H 0.1765 1.1772 0.2471
N5D N 0.1483(6) 1.2570(11) 0.2485(12)
N6D N 0.1605(6) 1.3167(10) 0.2536(11)
C18D C 0.1968(6) 1.3169(8) 0.2581(10)
H16D H 0.2121 1.3520 0.2621
Ni1C Ni 0.25903(11) 1.21747(14) 0.26576(15)
N4C N -0.2929(6) 1.2425(9) -0.2442(9)
N10C N -0.2785(6) 1.3449(9) -0.3012(8)
O42 O 0.0739(19) 0.293(3) -0.153(3)
O43 O 0.1028(18) 0.287(3) -0.180(3)
loop_
_geom_bond_atom_site_label_1
_geom_bond_atom_site_label_2
_geom_bond_site_symmetry_1
_geom_bond_site_symmetry_2
W1 O9 1_555 1_555
W2 O20 1_555 1_555
W3 O14 1_555 1_555
W4 O4 1_555 1_555
W5 O3 1_555 1_555
W6 O6 1_555 1_555
W7 O8 1_555 1_555
W8 O8 1_555 1_555
W9 O10 1_555 1_555
W10 O5 1_555 1_555
W11 O2 1_555 1_555
W12 O1 1_555 1_555
Si1 O21 1_555 1_555
O3 Ni1 1_555 1_555
O7 W4 1_555 1_555
O9 W5 1_555 1_555
O11 W5 1_555 1_555
O12 W7 1_555 1_555
O13 W8 1_555 1_555
O14 W6 1_555 1_555
O15 W3 1_555 1_555
O16 W4 1_555 1_555
O17 W1 1_555 1_555
O18 W5 1_555 1_555
O19 W7 1_555 1_555
O20 W10 1_555 1_555
O21 W6 1_555 1_555
O22 W3 1_555 1_555
O23 W2 1_555 1_555
O24 W10 1_555 1_555
O25 W6 1_555 1_555
O26 W5 1_555 1_555
O27 W3 1_555 1_555
O28 W5 1_555 1_555
O29 W1 1_555 1_555
O30 W9 1_555 1_555
O31 W6 1_555 1_555
O32 W2 1_555 1_555
O33 W4 1_555 1_555
O34 W3 1_555 1_555
O35 W3 1_555 1_555
O36 W1 1_555 1_555
O37 W6 1_555 1_555
O38 W2 1_555 1_555
O39 W1 1_555 1_555
O40 W1 1_555 1_555
Ni1 O41 1_555 1_555
N1 Ni1 1_555 1_555
C1 N1 1_555 1_555
H1 C1 1_555 1_555
N2 C1 1_555 1_555
N3 N2 1_555 1_555
C2 N1 1_555 1_555
H2 C2 1_555 1_555
C3 N3 1_555 1_555
H3 C3 1_555 1_555
H4 C3 1_555 1_555
C4 C3 1_555 1_555
C5 C4 1_555 1_555
H5 C5 1_555 1_555
C6 C5 1_555 1_555
H6 C6 1_555 1_555
C7 C6 1_555 1_555
C8 C7 1_555 1_555
H7 C8 1_555 1_555
C9 C4 1_555 1_555
H8 C9 1_555 1_555
C10 C7 1_555 1_555
C11 C10 1_555 1_555
H9 C11 1_555 1_555
C12 C11 1_555 1_555
H10 C12 1_555 1_555
C13 C12 1_555 1_555
C14 C13 1_555 1_555
H11 C14 1_555 1_555
C15 C10 1_555 1_555
H12 C15 1_555 1_555
C16 C13 1_555 1_555
H13 C16 1_555 1_555
H14 C16 1_555 1_555
N4 C17 1_555 1_555
C17 H15 1_555 1_555
N5 C17 1_555 1_555
N6 C16 1_555 1_555
C18 N4 1_555 1_555
H16 C18 1_555 1_555
N7 Ni1 1_555 1_555
C19 N7 1_555 1_555
H17 C19 1_555 1_555
N8 C19 1_555 1_555
N9 N8 1_555 1_555
C20 N7 1_555 1_555
H18 C20 1_555 1_555
N10 C21 1_555 1_555
C21 H19 1_555 1_555
N11 C21 1_555 1_555
N12 N11 1_555 1_555
C22 N10 1_555 1_555
H20 C22 1_555 1_555
C23 N9 1_555 1_555
H21 C23 1_555 1_555
H22 C23 1_555 1_555
C24 N11 1_555 1_555
H23 C24 1_555 1_555
H24 C24 1_555 1_555
C25 H25 1_555 1_555
C26 C25 1_555 1_555
H26 C26 1_555 1_555
C27 C26 1_555 1_555
C28 C27 1_555 1_555
H27 C28 1_555 1_555
C29 C28 1_555 1_555
H28 C29 1_555 1_555
C30 C23 1_555 1_555
C31 H29 1_555 1_555
C32 C31 1_555 1_555
H30 C32 1_555 1_555
C33 C24 1_555 1_555
C34 C33 1_555 1_555
H31 C34 1_555 1_555
C35 C34 1_555 1_555
H32 C35 1_555 1_555
C36 C27 1_555 1_555
Ni1G N4 1_555 1_555
N4G Ni1 1_555 1_555
N10G Ni1 1_555 1_555
N7D C19D 1_555 1_555
C19D H17D 1_555 1_555
N8D C19D 1_555 1_555
N9D N8D 1_555 1_555
C20D N7D 1_555 1_555
H18D C20D 1_555 1_555
N10D C21D 1_555 1_555
C21D H19D 1_555 1_555
N11D C21D 1_555 1_555
N12D N11D 1_555 1_555
C22D N10D 1_555 1_555
H20D C22D 1_555 1_555
C23D N9D 1_555 1_555
H21D C23D 1_555 1_555
H22D C23D 1_555 1_555
C24D N11D 1_555 1_555
H23D C24D 1_555 1_555
H24D C24D 1_555 1_555
C25D H25D 1_555 1_555
C26D C25D 1_555 1_555
H26D C26D 1_555 1_555
C27D C26D 1_555 1_555
C28D C27D 1_555 1_555
H27D C28D 1_555 1_555
C29D C28D 1_555 1_555
H28D C29D 1_555 1_555
C30D C23D 1_555 1_555
C31D H29D 1_555 1_555
C32D C31D 1_555 1_555
H30D C32D 1_555 1_555
C33D C24D 1_555 1_555
C34D C33D 1_555 1_555
H31D C34D 1_555 1_555
C35D C34D 1_555 1_555
H32D C35D 1_555 1_555
C36D C27D 1_555 1_555
W1D O9D 1_555 1_555
W2D O20D 1_555 1_555
W3D O14D 1_555 1_555
W4D O4D 1_555 1_555
W5D O3D 1_555 1_555
W6D O6D 1_555 1_555
W7D O8D 1_555 1_555
W8D O8D 1_555 1_555
W9D O10D 1_555 1_555
W10D O5D 1_555 1_555
W11D O2D 1_555 1_555
W12D O1D 1_555 1_555
Si1D O21D 1_555 1_555
O3D Ni1D 1_555 1_555
O7D W4D 1_555 1_555
O9D W5D 1_555 1_555
O11D W5D 1_555 1_555
O12D W7D 1_555 1_555
O13D W8D 1_555 1_555
O14D W6D 1_555 1_555
O15D W3D 1_555 1_555
O16D W4D 1_555 1_555
O17D W1D 1_555 1_555
O18D W5D 1_555 1_555
O19D W7D 1_555 1_555
O20D W10D 1_555 1_555
O21D W6D 1_555 1_555
O22D W3D 1_555 1_555
O23D W2D 1_555 1_555
O24D W10D 1_555 1_555
O25D W6D 1_555 1_555
O26D W5D 1_555 1_555
O27D W3D 1_555 1_555
O28D W5D 1_555 1_555
O29D W1D 1_555 1_555
O30D W9D 1_555 1_555
O31D W6D 1_555 1_555
O32D W2D 1_555 1_555
O33D W4D 1_555 1_555
O34D W3D 1_555 1_555
O35D W3D 1_555 1_555
O36D W1D 1_555 1_555
O37D W6D 1_555 1_555
O38D W2D 1_555 1_555
O39D W1D 1_555 1_555
O40D W1D 1_555 1_555
Ni1D N7D 1_555 1_555
O41D Ni1D 1_555 1_555
N1D Ni1D 1_555 1_555
C1D N1D 1_555 1_555
H1D C1D 1_555 1_555
N2D C1D 1_555 1_555
N3D N2D 1_555 1_555
C2D N1D 1_555 1_555
H2D C2D 1_555 1_555
C3D N3D 1_555 1_555
H3D C3D 1_555 1_555
H4D C3D 1_555 1_555
C4D C3D 1_555 1_555
C5D C4D 1_555 1_555
H5D C5D 1_555 1_555
C6D C5D 1_555 1_555
H6D C6D 1_555 1_555
C7D C6D 1_555 1_555
C8D C7D 1_555 1_555
H7D C8D 1_555 1_555
C9D C4D 1_555 1_555
H8D C9D 1_555 1_555
C10D C7D 1_555 1_555
C11D C10D 1_555 1_555
H9D C11D 1_555 1_555
C12D C11D 1_555 1_555
H10D C12D 1_555 1_555
C13D C12D 1_555 1_555
C14D C13D 1_555 1_555
H11D C14D 1_555 1_555
C15D C10D 1_555 1_555
H12D C15D 1_555 1_555
C16D C13D 1_555 1_555
H13D C16D 1_555 1_555
H14D C16D 1_555 1_555
N4D C17D 1_555 1_555
C17D H15D 1_555 1_555
N5D C17D 1_555 1_555
N6D C16D 1_555 1_555
C18D N4D 1_555 1_555
H16D C18D 1_555 1_555
Ni1C N10D 1_555 1_555
N4C Ni1D 1_555 1_555
N10C Ni1D 1_555 1_555
W2 O29 1_555 1_555
W2 O36 1_555 1_555
W4 O27 1_555 1_555
W4 O35 1_555 1_555
W7 O16 1_555 1_555
W7 O21 1_555 1_555
W7 O31 1_555 1_555
W8 O29 1_555 1_555
W8 O32 1_555 1_555
W8 O33 1_555 1_555
W8 O39 1_555 1_555
W9 O19 1_555 1_555
W9 O21 1_555 1_555
W9 O37 1_555 1_555
W9 O38 1_555 1_555
W10 O18 1_555 1_555
W10 O28 1_555 1_555
W10 O30 1_555 1_555
W11 O7 1_555 1_555
W11 O11 1_555 1_555
W11 O34 1_555 1_555
W11 O35 1_555 1_555
W11 O40 1_555 1_555
W12 O22 1_555 1_555
W12 O24 1_555 1_555
W12 O25 1_555 1_555
W12 O26 1_555 1_555
W12 O28 1_555 1_555
Si1 O28 1_555 1_555
Si1 O29 1_555 1_555
Si1 O35 1_555 1_555
N3 C2 1_555 1_555
C8 C9 1_555 1_555
C14 C15 1_555 1_555
N5 N6 1_555 1_555
N6 C18 1_555 1_555
N9 C20 1_555 1_555
N10 Ni1G 1_555 1_555
N12 C22 1_555 1_555
C25 C30 1_555 1_555
C29 C30 1_555 1_555
C31 C36 1_555 1_555
C32 C33 1_555 1_555
C35 C36 1_555 1_555
N9D C20D 1_555 1_555
N12D C22D 1_555 1_555
C25D C30D 1_555 1_555
C29D C30D 1_555 1_555
C31D C36D 1_555 1_555
C32D C33D 1_555 1_555
C35D C36D 1_555 1_555
W2D O29D 1_555 1_555
W2D O36D 1_555 1_555
W4D O27D 1_555 1_555
W4D O35D 1_555 1_555
W7D O16D 1_555 1_555
W7D O21D 1_555 1_555
W7D O31D 1_555 1_555
W8D O29D 1_555 1_555
W8D O32D 1_555 1_555
W8D O33D 1_555 1_555
W8D O39D 1_555 1_555
W9D O19D 1_555 1_555
W9D O21D 1_555 1_555
W9D O37D 1_555 1_555
W9D O38D 1_555 1_555
W10D O18D 1_555 1_555
W10D O28D 1_555 1_555
W10D O30D 1_555 1_555
W11D O7D 1_555 1_555
W11D O11D 1_555 1_555
W11D O34D 1_555 1_555
W11D O35D 1_555 1_555
W11D O40D 1_555 1_555
W12D O22D 1_555 1_555
W12D O24D 1_555 1_555
W12D O25D 1_555 1_555
W12D O26D 1_555 1_555
W12D O28D 1_555 1_555
Si1D O28D 1_555 1_555
Si1D O29D 1_555 1_555
Si1D O35D 1_555 1_555
N3D C2D 1_555 1_555
C8D C9D 1_555 1_555
C14D C15D 1_555 1_555
N4D Ni1C 1_555 1_555
N5D N6D 1_555 1_555
N6D C18D 1_555 1_555

#END
