
#######################################################################
#
#                 Cambridge Crystallographic Data Centre
#                                CCDC 
#
#######################################################################
#
# If this CIF has been generated from an entry in the Cambridge 
# Structural Database, then it will include bibliographic, chemical, 
# crystal, experimental, refinement or atomic coordinate data resulting 
# from the CCDC's data processing and validation procedures.
#
#######################################################################

data_POPZEB
_symmetry_cell_setting           triclinic
_symmetry_space_group_name_H-M   'P -1'
_symmetry_Int_Tables_number      2
_space_group_name_Hall           '-P 1'
loop_
_symmetry_equiv_pos_site_id
_symmetry_equiv_pos_as_xyz
1 x,y,z
2 -x,-y,-z
_cell_length_a                   14.6921(5)
_cell_length_b                   15.8881(5)
_cell_length_c                   17.3076(5)
_cell_angle_alpha                65.383(3)
_cell_angle_beta                 83.850(3)
_cell_angle_gamma                84.250(2)
_cell_volume                     3644.87
loop_
_atom_site_label
_atom_site_type_symbol
_atom_site_fract_x
_atom_site_fract_y
_atom_site_fract_z
Cu2 Cu -0.21008(16) 0.04424(16) -0.13703(14)
N7 N -0.2595(7) -0.0393(6) 0.8158(5)
C19 C -0.3434(7) -0.0698(8) 0.8347(7)
H17 H -0.3930 -0.0481 0.8631
N8 N -0.3459(7) -0.1359(8) 0.8071(7)
N9 N -0.2635(7) -0.1463(6) 0.7711(5)
C20 C -0.2101(6) -0.0865(6) 0.7765(6)
H18 H -0.1476 -0.0790 0.7559
C21 C -0.2421(12) -0.2096(10) 0.7279(9)
H19 H -0.2791 -0.2646 0.7564
H20 H -0.1765 -0.2312 0.7318
N10 N -0.0708(6) 0.0245(6) -0.1164(6)
C22 C -0.0080(7) -0.0392(6) -0.1227(7)
H21 H -0.0197 -0.0936 -0.1291
N11 N 0.0740(6) -0.0135(6) -0.1183(6)
N12 N 0.0620(6) 0.0662(5) -0.1094(5)
C23 C -0.0275(6) 0.0896(6) -0.1082(6)
H22 H -0.0556 0.1435 -0.1024
C24 C 0.1339(11) 0.1220(9) -0.1090(8)
H23 H 0.1863 0.0801 -0.0809
H24 H 0.1109 0.1570 -0.0744
C25 C 0.1675(11) 0.1889(10) -0.1948(8)
C26 C 0.1400(11) 0.2844(9) -0.2224(9)
H25 H 0.1028 0.3065 -0.1855
C27 C 0.1682(12) 0.3450(10) -0.3038(9)
H26 H 0.1516 0.4093 -0.3213
C28 C 0.2199(11) 0.3159(9) -0.3613(8)
C29 C 0.2436(12) 0.2212(10) -0.3316(10)
H27 H 0.2781 0.1985 -0.3693
C30 C 0.2196(11) 0.1591(9) -0.2503(9)
H28 H 0.2390 0.0954 -0.2325
N13 N 0.2194(10) 0.8046(8) -0.7802(7)
C31 C 0.1450(9) 0.7552(9) -0.7470(9)
H29 H 0.0836 0.7799 -0.7449
N14 N 0.1727(11) 0.6650(9) -0.7172(9)
N15 N 0.2640(11) 0.6585(8) -0.7321(8)
C32 C 0.2929(9) 0.7448(10) -0.7710(9)
H30 H 0.3546 0.7608 -0.7889
C33 C 0.3144(14) 0.5695(12) -0.7090(10)
H31 H 0.2991 0.5405 -0.7463
H32 H 0.3810 0.5791 -0.7189
C34 C 0.2508(8) 0.3809(6) -0.4504(5)
C35 C 0.2750(8) 0.4696(6) -0.4672(6)
H33 H 0.2768 0.4879 -0.4218
C36 C 0.2963(8) 0.5314(6) -0.5506(6)
H34 H 0.3129 0.5920 -0.5622
C37 C 0.2936(8) 0.5045(7) -0.6171(6)
C38 C 0.2694(8) 0.4159(7) -0.6002(5)
H35 H 0.2675 0.3976 -0.6457
C39 C 0.2480(8) 0.3541(6) -0.5169(6)
H36 H 0.2315 0.2935 -0.5053
N16 N -0.3007(7) 0.0537(6) -0.0360(5)
C40 C -0.3842(7) 0.0258(7) -0.0095(6)
H37 H -0.4148 -0.0123 -0.0272
N17 N -0.4177(6) 0.0599(7) 0.0458(6)
N18 N -0.3550(7) 0.1089(6) 0.0535(5)
C41 C -0.2827(6) 0.1050(6) 0.0029(6)
H38 H -0.2272 0.1342 -0.0042
C42 C -0.3675(14) 0.1598(10) 0.1070(9)
H39 H -0.4319 0.1848 0.1071
H40 H -0.3277 0.2129 0.0829
C43 C -0.3445(13) 0.0993(10) 0.1977(9)
C44 C -0.2587(11) 0.0911(10) 0.2268(9)
H41 H -0.2097 0.1210 0.1873
C45 C -0.2422(11) 0.0421(10) 0.3096(9)
H42 H -0.1829 0.0405 0.3276
C46 C -0.3110(10) -0.0062(9) 0.3689(8)
C47 C -0.3961(12) -0.0019(10) 0.3422(9)
H43 H -0.4434 -0.0357 0.3814
C48 C -0.4141(13) 0.0527(11) 0.2560(10)
H44 H -0.4741 0.0575 0.2381
C49 C -0.2949(10) -0.0610(10) 0.4617(9)
C50 C -0.2094(16) -0.1010(16) 0.4857(11)
H45 H -0.1609 -0.0959 0.4433
C51 C -0.1920(15) -0.1520(15) 0.5771(12)
H46 H -0.1326 -0.1782 0.5940
C52 C -0.2630(12) -0.1602(9) 0.6357(10)
C53 C -0.3458(16) -0.1310(14) 0.6106(12)
H47 H -0.3966 -0.1429 0.6517
C54 C -0.3605(15) -0.0821(15) 0.5235(12)
H48 H -0.4219 -0.0632 0.5083
Cu2_2 Cu -0.21008(16) 0.04424(16) 0.86297(14)
Cu2A Cu 0.21008(16) 0.95576(16) -0.86297(14)
N7_2 N -0.2595(7) -0.0393(6) -0.1842(5)
N13A N -0.2194(10) 0.1954(8) -0.2198(7)
O23 O -0.0876(8) 0.4455(8) -0.3678(7)
O24 O 0.000(2) 0.535(2) -0.4472(17)
W1 W -0.06023(5) 0.54226(5) -0.20606(4)
W2 W 0.23002(4) 0.48424(4) 0.04116(4)
W3 W -0.03750(4) 0.28447(4) 0.17094(3)
W4 W 0.14161(4) 0.30246(4) 0.01249(4)
W5 W 0.17083(4) 0.51694(5) -0.16433(4)
W6 W -0.08873(4) 0.32340(4) -0.03643(4)
Si1 Si 0.0000 0.5000 0.0000
O1 O 0.0274(11) 0.5538(11) -0.1023(10)
O2 O 0.0025(11) 0.3939(11) 0.0266(9)
O3 O -0.1010(11) 0.5421(9) 0.0182(9)
O4 O 0.0748(10) 0.5267(9) 0.0524(8)
O5 O 0.2192(9) 0.3615(7) 0.0516(6)
O6 O -0.0690(9) 0.4119(8) -0.1472(7)
O7 O 0.1994(8) 0.6054(7) 0.0264(7)
O8 O -0.0354(9) 0.6623(8) -0.2230(8)
O9 O 0.1766(8) 0.4422(7) 0.1531(7)
O10 O 0.1746(9) 0.3890(7) -0.1014(7)
O11 O 0.2394(9) 0.5225(8) -0.0773(6)
O12 O -0.1383(8) 0.3528(8) 0.1914(7)
O13 O 0.0687(8) 0.5124(8) -0.2171(8)
O14 O -0.0889(8) 0.5603(8) -0.3024(6)
O15 O -0.0537(8) 0.1782(7) 0.2501(7)
O16 O 0.0766(7) 0.2580(8) 0.1197(6)
O17 O -0.1322(8) 0.2406(8) -0.0528(8)
O18 O 0.0362(7) 0.2834(8) -0.0322(6)
O19 O -0.0947(7) 0.2747(9) 0.0839(6)
O20 O 0.2096(8) 0.2093(7) 0.0151(6)
O21 O 0.2573(7) 0.5251(7) -0.2375(6)
O22 O 0.3438(6) 0.4778(6) 0.0544(6)
Cu1 Cu 0.5000 0.5000 0.0000
N1 N 0.5013(6) 0.5972(6) 0.0501(5)
C1 C 0.4279(5) 0.6410(6) 0.0703(5)
H1 H 0.3661 0.6327 0.0649
N2 N 0.4554(6) 0.6982(6) 0.0993(5)
N3 N 0.5458(6) 0.6898(6) 0.0970(5)
C2 C 0.5741(6) 0.6273(6) 0.0666(6)
H2 H 0.6361 0.6076 0.0581
C3 C 0.6021(14) 0.7430(13) 0.1241(10)
H3 H 0.6010 0.8083 0.0818
H4 H 0.6664 0.7171 0.1264
C4 C 0.5661(11) 0.7392(13) 0.2118(9)
C5 C 0.5657(13) 0.6583(12) 0.2816(10)
H5 H 0.5898 0.6029 0.2767
C6 C 0.5313(12) 0.6547(12) 0.3592(10)
H6 H 0.5301 0.5965 0.4070
C7 C 0.4979(11) 0.7351(11) 0.3695(9)
C8 C 0.4981(13) 0.8174(11) 0.2956(8)
H7 H 0.4736 0.8736 0.2987
C9 C 0.5331(14) 0.8184(13) 0.2184(10)
H8 H 0.5341 0.8754 0.1693
C10 C 0.4630(11) 0.7323(10) 0.4539(7)
C11 C 0.4024(15) 0.8005(14) 0.4602(9)
H9 H 0.3820 0.8492 0.4095
C12 C 0.3698(13) 0.8008(12) 0.5374(9)
H10 H 0.3257 0.8480 0.5394
C13 C 0.4005(10) 0.7339(9) 0.6114(8)
C14 C 0.4616(14) 0.6717(13) 0.6031(10)
H11 H 0.4868 0.6267 0.6534
C15 C 0.4922(13) 0.6669(12) 0.5269(10)
H12 H 0.5337 0.6174 0.5262
N4 N 0.4767(6) 0.6067(6) 0.8830(5)
C16 C 0.5317(6) 0.6749(6) 0.8418(5)
H13 H 0.5864 0.6837 0.8615
N5 N 0.4974(6) 0.7286(6) 0.7684(5)
N6 N 0.4212(6) 0.6936(6) 0.7642(4)
C17 C 0.4083(6) 0.6183(6) 0.8351(5)
H14 H 0.3587 0.5793 0.8491
C18 C 0.3592(10) 0.7377(10) 0.6952(7)
H15 H 0.3009 0.7062 0.7123
H16 H 0.3451 0.8033 0.6860
O1A O -0.0274(11) 0.4462(11) 0.1023(10)
O2A O -0.0025(11) 0.6061(11) -0.0266(9)
O3A O 0.1010(11) 0.4579(9) -0.0182(9)
O4A O -0.0748(10) 0.4733(9) -0.0524(8)
W1A W 0.06023(5) 0.45774(5) 0.20606(4)
W2A W -0.23002(4) 0.51576(4) -0.04116(4)
W3A W 0.03750(4) 0.71553(4) -0.17094(3)
W4A W -0.14161(4) 0.69754(4) -0.01249(4)
W5A W -0.17083(4) 0.48306(5) 0.16433(4)
W6A W 0.08873(4) 0.67660(4) 0.03643(4)
O5A O -0.2192(9) 0.6385(7) -0.0516(6)
O6A O 0.0690(9) 0.5881(8) 0.1472(7)
O7A O -0.1994(8) 0.3946(7) -0.0264(7)
O8A O 0.0354(9) 0.3377(8) 0.2230(8)
O9A O -0.1766(8) 0.5578(7) -0.1531(7)
O10A O -0.1746(9) 0.6110(7) 0.1014(7)
O11A O -0.2394(9) 0.4775(8) 0.0773(6)
O12A O 0.1383(8) 0.6472(8) -0.1914(7)
O13A O -0.0687(8) 0.4876(8) 0.2171(8)
O14A O 0.0889(8) 0.4397(8) 0.3024(6)
O15A O 0.0537(8) 0.8218(7) -0.2501(7)
O16A O -0.0766(7) 0.7420(8) -0.1197(6)
O17A O 0.1322(8) 0.7594(8) 0.0528(8)
O18A O -0.0362(7) 0.7166(8) 0.0322(6)
O19A O 0.0947(7) 0.7253(9) -0.0839(6)
O20A O -0.2096(8) 0.7907(7) -0.0151(6)
O21A O -0.2573(7) 0.4749(7) 0.2375(6)
O22A O -0.3438(6) 0.5222(6) -0.0544(6)
N1A N 0.4987(6) 0.4028(6) -0.0501(5)
C1A C 0.5721(5) 0.3590(6) -0.0703(5)
H1A H 0.6339 0.3673 -0.0649
N2A N 0.5446(6) 0.3018(6) -0.0993(5)
N3A N 0.4542(6) 0.3102(6) -0.0970(5)
C2A C 0.4259(6) 0.3727(6) -0.0666(6)
H2A H 0.3639 0.3924 -0.0581
C3A C 0.3979(14) 0.2570(13) -0.1241(10)
H3A H 0.3990 0.1917 -0.0818
H4A H 0.3336 0.2829 -0.1264
C4A C 0.4339(11) 0.2608(13) -0.2118(9)
C5A C 0.4343(13) 0.3417(12) -0.2816(10)
H5A H 0.4102 0.3971 -0.2767
C6A C 0.4687(12) 0.3453(12) -0.3592(10)
H6A H 0.4699 0.4035 -0.4070
C7A C 0.5021(11) 0.2649(11) -0.3695(9)
C8A C 0.5019(13) 0.1826(11) -0.2956(8)
H7A H 0.5264 0.1264 -0.2987
C9A C 0.4669(14) 0.1816(13) -0.2184(10)
H8A H 0.4659 0.1246 -0.1693
C10A C 0.5370(11) 0.2677(10) -0.4539(7)
C11A C 0.5976(15) 0.1995(14) -0.4602(9)
H9A H 0.6180 0.1508 -0.4095
C12A C 0.6302(13) 0.1992(12) -0.5374(9)
H10A H 0.6743 0.1520 -0.5394
C13A C 0.5995(10) 0.2661(9) -0.6114(8)
C14A C 0.5384(14) 0.3283(13) -0.6031(10)
H11A H 0.5132 0.3733 -0.6534
C15A C 0.5078(13) 0.3331(12) -0.5269(10)
H12A H 0.4663 0.3826 -0.5262
N4A N 0.5233(6) 0.3933(6) -0.8830(5)
C16A C 0.4683(6) 0.3251(6) -0.8418(5)
H13A H 0.4136 0.3163 -0.8615
N5A N 0.5026(6) 0.2714(6) -0.7684(5)
N6A N 0.5788(6) 0.3064(6) -0.7642(4)
C17A C 0.5917(6) 0.3817(6) -0.8351(5)
H14A H 0.6413 0.4207 -0.8491
C18A C 0.6408(10) 0.2623(10) -0.6952(7)
H15A H 0.6991 0.2938 -0.7123
H16A H 0.6549 0.1967 -0.6860
O22A_2 O 0.6562(6) 0.5222(6) -0.0544(6)
Cu1_2 Cu -0.5000 0.5000 0.0000
Cu1_3 Cu 0.5000 0.5000 -1.0000
Cu1_4 Cu 0.5000 0.5000 1.0000
N4_2 N 0.4767(6) 0.6067(6) -0.1170(5)
N4A_2 N 0.5233(6) 0.3933(6) 0.1170(5)
loop_
_geom_bond_atom_site_label_1
_geom_bond_atom_site_label_2
_geom_bond_site_symmetry_1
_geom_bond_site_symmetry_2
W1 O1 1_555 1_555
W2 O4 1_555 1_555
W3 O2 1_555 1_555
W4 O2 1_555 1_555
W5 O1 1_555 1_555
W6 O2 1_555 1_555
Si1 O1 1_555 1_555
O1 W3A 1_555 1_555
O2 Si1 1_555 1_555
O3 Si1 1_555 1_555
O4 Si1 1_555 1_555
O5 W2 1_555 1_555
O6 W1 1_555 1_555
O7 W2 1_555 1_555
O8 W1 1_555 1_555
O9 W2 1_555 1_555
O10 W4 1_555 1_555
O11 W2 1_555 1_555
O12 W3 1_555 1_555
O13 W1 1_555 1_555
O14 W1 1_555 1_555
O15 W3 1_555 1_555
O16 W3 1_555 1_555
O17 W6 1_555 1_555
O18 W4 1_555 1_555
O19 W3 1_555 1_555
O20 W4 1_555 1_555
O21 W5 1_555 1_555
O22 W2 1_555 1_555
Cu1 O22 1_555 1_555
N1 Cu1 1_555 1_555
C1 N1 1_555 1_555
H1 C1 1_555 1_555
N2 C1 1_555 1_555
N3 N2 1_555 1_555
C2 N1 1_555 1_555
H2 C2 1_555 1_555
C3 N3 1_555 1_555
H3 C3 1_555 1_555
H4 C3 1_555 1_555
C4 C3 1_555 1_555
C5 C4 1_555 1_555
H5 C5 1_555 1_555
C6 C5 1_555 1_555
H6 C6 1_555 1_555
C7 C6 1_555 1_555
C8 C7 1_555 1_555
H7 C8 1_555 1_555
C9 C4 1_555 1_555
H8 C9 1_555 1_555
C10 C7 1_555 1_555
C11 C10 1_555 1_555
H9 C11 1_555 1_555
C12 C11 1_555 1_555
H10 C12 1_555 1_555
C13 C12 1_555 1_555
C14 C13 1_555 1_555
H11 C14 1_555 1_555
C15 C10 1_555 1_555
H12 C15 1_555 1_555
N4 C16 1_555 1_555
C16 H13 1_555 1_555
N5 C16 1_555 1_555
N6 N5 1_555 1_555
C17 N4 1_555 1_555
H14 C17 1_555 1_555
C18 C13 1_555 1_555
H15 C18 1_555 1_555
H16 C18 1_555 1_555
Cu2 N10 1_555 1_555
N7 C19 1_555 1_555
C19 H17 1_555 1_555
N8 C19 1_555 1_555
N9 N8 1_555 1_555
C20 N7 1_555 1_555
H18 C20 1_555 1_555
C21 N9 1_555 1_555
H19 C21 1_555 1_555
H20 C21 1_555 1_555
N10 C22 1_555 1_555
C22 H21 1_555 1_555
N11 C22 1_555 1_555
N12 N11 1_555 1_555
C23 N10 1_555 1_555
H22 C23 1_555 1_555
C24 N12 1_555 1_555
H23 C24 1_555 1_555
H24 C24 1_555 1_555
C25 C24 1_555 1_555
C26 C25 1_555 1_555
H25 C26 1_555 1_555
C27 C26 1_555 1_555
H26 C27 1_555 1_555
C28 C27 1_555 1_555
C29 C28 1_555 1_555
H27 C29 1_555 1_555
C30 C25 1_555 1_555
H28 C30 1_555 1_555
N13 C31 1_555 1_555
C31 H29 1_555 1_555
N14 C31 1_555 1_555
N15 N14 1_555 1_555
C32 N13 1_555 1_555
H30 C32 1_555 1_555
C33 N15 1_555 1_555
H31 C33 1_555 1_555
H32 C33 1_555 1_555
C34 C28 1_555 1_555
C35 C34 1_555 1_555
H33 C35 1_555 1_555
C36 C35 1_555 1_555
H34 C36 1_555 1_555
C37 C33 1_555 1_555
C38 C37 1_555 1_555
H35 C38 1_555 1_555
C39 C34 1_555 1_555
H36 C39 1_555 1_555
N16 Cu2 1_555 1_555
C40 N16 1_555 1_555
H37 C40 1_555 1_555
N17 C40 1_555 1_555
N18 N17 1_555 1_555
C41 N16 1_555 1_555
H38 C41 1_555 1_555
C42 N18 1_555 1_555
H39 C42 1_555 1_555
H40 C42 1_555 1_555
C43 C42 1_555 1_555
C44 C43 1_555 1_555
H41 C44 1_555 1_555
C45 C44 1_555 1_555
H42 C45 1_555 1_555
C46 C45 1_555 1_555
C47 C46 1_555 1_555
H43 C47 1_555 1_555
C48 C43 1_555 1_555
H44 C48 1_555 1_555
C49 C46 1_555 1_555
C50 C49 1_555 1_555
H45 C50 1_555 1_555
C51 C50 1_555 1_555
H46 C51 1_555 1_555
C52 C21 1_555 1_555
C53 C52 1_555 1_555
H47 C53 1_555 1_555
C54 C49 1_555 1_555
H48 C54 1_555 1_555
O1A W3 1_555 1_555
O2A Si1 1_555 1_555
O3A W2 1_555 1_555
O4A W1 1_555 1_555
W1A O4 1_555 1_555
W2A O3 1_555 1_555
W3A O8 1_555 1_555
W4A O3 1_555 1_555
W5A O3 1_555 1_555
W6A O4 1_555 1_555
O5A W2A 1_555 1_555
O6A W1A 1_555 1_555
O7A W6 1_555 1_555
O8A W3 1_555 1_555
O9A W1 1_555 1_555
O10A W4A 1_555 1_555
O11A W2A 1_555 1_555
O12A W5 1_555 1_555
O13A W1A 1_555 1_555
O14A W1A 1_555 1_555
O15A W3A 1_555 1_555
O16A W3A 1_555 1_555
O17A W6A 1_555 1_555
O18A W4A 1_555 1_555
O19A W3A 1_555 1_555
O20A W4A 1_555 1_555
O21A W5A 1_555 1_555
O22A W2A 1_555 1_555
N1A Cu1 1_555 1_555
C1A N1A 1_555 1_555
H1A C1A 1_555 1_555
N2A C1A 1_555 1_555
N3A N2A 1_555 1_555
C2A N1A 1_555 1_555
H2A C2A 1_555 1_555
C3A N3A 1_555 1_555
H3A C3A 1_555 1_555
H4A C3A 1_555 1_555
C4A C3A 1_555 1_555
C5A C4A 1_555 1_555
H5A C5A 1_555 1_555
C6A C5A 1_555 1_555
H6A C6A 1_555 1_555
C7A C6A 1_555 1_555
C8A C7A 1_555 1_555
H7A C8A 1_555 1_555
C9A C4A 1_555 1_555
H8A C9A 1_555 1_555
C10A C7A 1_555 1_555
C11A C10A 1_555 1_555
H9A C11A 1_555 1_555
C12A C11A 1_555 1_555
H10A C12A 1_555 1_555
C13A C12A 1_555 1_555
C14A C13A 1_555 1_555
H11A C14A 1_555 1_555
C15A C10A 1_555 1_555
H12A C15A 1_555 1_555
N4A C16A 1_555 1_555
C16A H13A 1_555 1_555
N5A C16A 1_555 1_555
N6A N5A 1_555 1_555
C17A N4A 1_555 1_555
H14A C17A 1_555 1_555
C18A C13A 1_555 1_555
H15A C18A 1_555 1_555
H16A C18A 1_555 1_555
O22A_2 Cu1 1_555 1_555
Cu1_2 O22A 1_555 1_555
Cu1_3 N4A 1_555 1_555
Cu1_4 N4 1_555 1_555
N4_2 Cu1 1_555 1_555
N4A_2 Cu1 1_555 1_555
Cu2_2 N7 1_555 1_555
Cu2A N13 1_555 1_555
N7_2 Cu2 1_555 1_555
N13A Cu2 1_555 1_555
W4 O5 1_555 1_555
W4 O16 1_555 1_555
W4 O3A 1_555 1_555
W5 O10 1_555 1_555
W5 O11 1_555 1_555
W5 O13 1_555 1_555
W5 O3A 1_555 1_555
W6 O6 1_555 1_555
W6 O18 1_555 1_555
W6 O19 1_555 1_555
W6 O4A 1_555 1_555
Si1 O1A 1_555 1_555
Si1 O3A 1_555 1_555
Si1 O4A 1_555 1_555
O2 O3A 1_555 1_555
O3 O2A 1_555 1_555
O7 W6A 1_555 1_555
O9 W1A 1_555 1_555
O12 W5A 1_555 1_555
N3 C2 1_555 1_555
C8 C9 1_555 1_555
C14 C15 1_555 1_555
N6 C17 1_555 1_555
N6 C18 1_555 1_555
N9 C20 1_555 1_555
N12 C23 1_555 1_555
C29 C30 1_555 1_555
N15 C32 1_555 1_555
C36 C37 1_555 1_555
C38 C39 1_555 1_555
N18 C41 1_555 1_555
C47 C48 1_555 1_555
C51 C52 1_555 1_555
C53 C54 1_555 1_555
O1A W1A 1_555 1_555
O1A W5A 1_555 1_555
O2A W3A 1_555 1_555
O2A W4A 1_555 1_555
O2A W6A 1_555 1_555
O4A W2A 1_555 1_555
W1A O8A 1_555 1_555
W2A O7A 1_555 1_555
W2A O9A 1_555 1_555
W3A O12A 1_555 1_555
W4A O5A 1_555 1_555
W4A O16A 1_555 1_555
W5A O10A 1_555 1_555
W5A O11A 1_555 1_555
W5A O13A 1_555 1_555
W6A O6A 1_555 1_555
W6A O18A 1_555 1_555
W6A O19A 1_555 1_555
N3A C2A 1_555 1_555
C8A C9A 1_555 1_555
C14A C15A 1_555 1_555
N6A C17A 1_555 1_555
N6A C18A 1_555 1_555

#END
