
#######################################################################
#
#                 Cambridge Crystallographic Data Centre
#                                CCDC 
#
#######################################################################
#
# If this CIF has been generated from an entry in the Cambridge 
# Structural Database, then it will include bibliographic, chemical, 
# crystal, experimental, refinement or atomic coordinate data resulting 
# from the CCDC's data processing and validation procedures.
#
#######################################################################

data_POQLUC
_symmetry_cell_setting           monoclinic
_symmetry_space_group_name_H-M   'P 21/n'
_symmetry_Int_Tables_number      14
_space_group_name_Hall           '-P 2yn'
loop_
_symmetry_equiv_pos_site_id
_symmetry_equiv_pos_as_xyz
1 x,y,z
2 1/2-x,1/2+y,1/2-z
3 -x,-y,-z
4 1/2+x,1/2-y,1/2+z
_cell_length_a                   15.34(8)
_cell_length_b                   18.99(8)
_cell_length_c                   18.86(5)
_cell_angle_alpha                90
_cell_angle_beta                 100.2(3)
_cell_angle_gamma                90
_cell_volume                     5407.21
loop_
_atom_site_label
_atom_site_type_symbol
_atom_site_fract_x
_atom_site_fract_y
_atom_site_fract_z
O1 O 0.1567(3) 0.2446(2) 0.1484(2)
O2 O 0.1637(3) 0.1460(3) 0.2330(3)
O3 O 0.0936(3) 0.2056(3) -0.0769(3)
O4 O 0.1655(4) -0.0633(3) 0.1544(3)
O5 O 0.6386(3) 0.2465(2) 0.1340(3)
O6 O 0.6788(3) 0.1544(3) 0.2249(2)
O7 O 0.5847(3) 0.1922(3) -0.0871(3)
O8 O 0.6900(3) -0.0595(3) 0.1606(3)
O9 O -0.0875(4) 0.2964(4) 0.1406(3)
O10 O 0.4420(5) 0.1449(3) 0.2879(4)
O11 O 0.3945(4) 0.2656(4) 0.1561(3)
O12 O -0.0690(4) 0.1626(3) 0.2623(3)
O13 O -0.0701(3) 0.3382(3) 0.3225(3)
O14 O 0.2048(3) 0.3344(3) 0.3266(3)
O15 O 0.4388(3) 0.3212(3) 0.3350(3)
O16 O 0.6936(3) 0.3291(3) 0.3208(2)
N1 N 0.1253(4) 0.1555(3) 0.0339(3)
N2 N 0.1483(4) 0.0519(3) 0.1223(4)
N3 N 0.6234(4) 0.1492(3) 0.0273(3)
N4 N 0.6649(4) 0.0531(3) 0.1214(3)
N5 N -0.1299(5) 0.3097(6) 0.0228(5)
N6 N 0.4556(6) 0.0289(4) 0.2711(5)
N7 N 0.3648(4) 0.2122(4) 0.0484(4)
N8 N -0.0739(4) 0.0582(4) 0.2010(4)
Ni1 Ni 0.14765(6) 0.14872(5) 0.13374(5)
Ni2 Ni 0.651020(6) 0.15018(5) 0.12623(5)
K1 K 0.0521(1) 0.26238(9) 0.25231(10)
K2 K 0.3029(1) 0.23961(10) 0.26127(9)
K3 K 0.5482(1) 0.25345(10) 0.2501(1)
K4 K -0.1996(1) 0.26158(9) 0.23437(9)
C1 C 0.1424(5) 0.2946(4) 0.0972(4)
C2 C 0.1513(5) 0.3653(4) 0.1221(4)
C3 C 0.1337(6) 0.4197(4) 0.0740(5)
C4 C 0.1103(8) 0.4079(5) 0.0024(5)
C5 C 0.1036(7) 0.3400(5) -0.0217(5)
C6 C 0.1203(5) 0.2815(4) 0.0239(4)
C7 C 0.1122(5) 0.2100(4) -0.0088(4)
C8 C 0.1107(6) 0.0858(5) -0.0025(5)
C9 C 0.1522(6) 0.0314(4) 0.0483(5)
C10 C 0.1567(5) 0.0013(4) 0.1720(5)
C11 C 0.1558(5) 0.0193(4) 0.2468(5)
C12 C 0.1533(6) -0.0348(5) 0.2965(6)
C13 C 0.1520(6) -0.0230(6) 0.3662(6)
C14 C 0.1555(6) 0.0450(5) 0.3932(5)
C15 C 0.1588(5) 0.1003(4) 0.3464(4)
C16 C 0.1591(5) 0.0887(4) 0.2739(4)
C17 C 0.5955(4) 0.2886(4) 0.0822(4)
C18 C 0.5729(5) 0.3564(4) 0.1033(4)
C19 C 0.5249(6) 0.4019(4) 0.0541(5)
C20 C 0.4980(6) 0.3823(5) -0.0155(5)
C21 C 0.5219(5) 0.3173(5) -0.0380(4)
C22 C 0.5704(4) 0.2688(4) 0.0100(4)
C23 C 0.5940(5) 0.2002(4) -0.0191(4)
C24 C 0.6462(6) 0.0824(5) -0.0031(4)
C25 C 0.6373(6) 0.0255(4) 0.0494(5)
C26 C 0.6890(4) 0.0068(4) 0.1732(4)
C27 C 0.7160(4) 0.0316(4) 0.2473(4)
C28 C 0.7482(6) -0.0172(5) 0.3016(5)
C29 C 0.7727(6) 0.0001(6) 0.3717(5)
C30 C 0.7663(6) 0.0691(6) 0.3926(5)
C31 C 0.7351(5) 0.1186(4) 0.3415(4)
C32 C 0.7097(5) 0.1017(4) 0.2697(4)
C33 C -0.0871(8) 0.315(1) 0.0837(7)
C34 C -0.178(2) 0.256(2) 0.011(1)
C35 C -0.1230(10) 0.338(1) -0.0444(7)
C36 C 0.4839(7) 0.0899(7) 0.2962(6)
C37 C 0.377(1) 0.0173(9) 0.228(1)
C38 C 0.5136(9) -0.0305(7) 0.2892(10)
C39 C 0.3680(5) 0.2654(5) 0.0920(5)
C40 C 0.3972(8) 0.1456(6) 0.0766(7)
C41 C 0.3325(7) 0.2161(8) -0.0266(5)
C42 C -0.0648(5) 0.0971(5) 0.2592(5)
C43 C -0.0941(6) 0.0894(5) 0.1314(5)
C44 C -0.0691(6) -0.0189(4) 0.2052(6)
H1 H 0.1781 0.3780 0.1686
H2 H 0.1475 0.4620 0.0892
H3 H 0.0986 0.4478 -0.0374
H4 H 0.0975 0.3327 -0.0674
H5 H 0.0377 0.0769 -0.0128
H6 H 0.1452 0.0870 -0.0540
H7 H 0.2215 0.0235 0.0499
H8 H 0.1254 -0.0086 0.0422
H9 H 0.1569 -0.0804 0.2771
H10 H 0.1493 -0.0532 0.3965
H11 H 0.1631 0.0586 0.4410
H12 H 0.1564 0.1423 0.3677
H13 H 0.5873 0.3713 0.1514
H14 H 0.5145 0.4427 0.0724
H15 H 0.4618 0.4124 -0.0489
H16 H 0.5020 0.3046 -0.0859
H17 H 0.6162 0.0753 -0.0519
H18 H 0.7087 0.0835 -0.0119
H19 H 0.6698 -0.0119 0.0417
H20 H 0.5736 0.0141 0.0469
H21 H 0.7540 -0.0565 0.2868
H22 H 0.7920 -0.0321 0.4108
H23 H 0.7840 0.0864 0.4427
H24 H 0.7315 0.1590 0.3534
H25 H -0.0430 0.3499 0.0844
H26 H -0.2287 0.2601 0.0413
H27 H -0.2138 0.2543 -0.0377
H28 H -0.1534 0.2128 0.0227
H29 H -0.0795 0.3801 -0.0397
H30 H -0.0967 0.3076 -0.0775
H31 H -0.1753 0.3580 -0.0733
H32 H 0.5437 0.0923 0.3232
H33 H 0.3300 0.0296 0.2626
H34 H 0.3633 0.0444 0.1911
H35 H 0.3658 -0.0316 0.2215
H36 H 0.4843 -0.0747 0.2698
H37 H 0.5676 -0.0274 0.2746
H38 H 0.5245 -0.0390 0.3421
H39 H 0.3473 0.3091 0.0714
H40 H 0.3621 0.1300 0.1160
H41 H 0.3911 0.1084 0.0443
H42 H 0.4571 0.1471 0.1033
H43 H 0.2709 0.2306 -0.0338
H44 H 0.3648 0.2493 -0.0481
H45 H 0.3350 0.1712 -0.0482
H46 H -0.0543 0.0745 0.3062
H47 H -0.0459 0.1243 0.1291
K4_2 K 0.8004(1) 0.26158(9) 0.23437(9)
O5_2 O -0.3614(3) 0.2465(2) 0.1340(3)
O6_2 O -0.3212(3) 0.1544(3) 0.2249(2)
O16_2 O -0.3064(3) 0.3291(3) 0.3208(2)
loop_
_geom_bond_atom_site_label_1
_geom_bond_atom_site_label_2
_geom_bond_site_symmetry_1
_geom_bond_site_symmetry_2
O1 Ni1 1_555 1_555
O2 Ni1 1_555 1_555
O3 C7 1_555 1_555
O4 C10 1_555 1_555
O5 Ni2 1_555 1_555
O6 Ni2 1_555 1_555
O7 C23 1_555 1_555
O8 C26 1_555 1_555
O9 K1 1_555 1_555
O10 K2 1_555 1_555
O11 K2 1_555 1_555
O12 K1 1_555 1_555
O13 K1 1_555 1_555
O14 K1 1_555 1_555
O15 K2 1_555 1_555
O16 K3 1_555 1_555
N1 Ni1 1_555 1_555
N2 Ni1 1_555 1_555
N3 Ni2 1_555 1_555
N4 Ni2 1_555 1_555
N5 C33 1_555 1_555
N6 C36 1_555 1_555
N7 C39 1_555 1_555
N8 C42 1_555 1_555
K1 O1 1_555 1_555
K2 O1 1_555 1_555
K3 O5 1_555 1_555
K4 O9 1_555 1_555
C1 O1 1_555 1_555
C2 C1 1_555 1_555
C3 C2 1_555 1_555
C4 C3 1_555 1_555
C5 C4 1_555 1_555
C6 C1 1_555 1_555
C7 N1 1_555 1_555
C8 N1 1_555 1_555
C9 N2 1_555 1_555
C10 N2 1_555 1_555
C11 C10 1_555 1_555
C12 C11 1_555 1_555
C13 C12 1_555 1_555
C14 C13 1_555 1_555
C15 C14 1_555 1_555
C16 O2 1_555 1_555
C17 O5 1_555 1_555
C18 C17 1_555 1_555
C19 C18 1_555 1_555
C20 C19 1_555 1_555
C21 C20 1_555 1_555
C22 C17 1_555 1_555
C23 N3 1_555 1_555
C24 N3 1_555 1_555
C25 N4 1_555 1_555
C26 N4 1_555 1_555
C27 C26 1_555 1_555
C28 C27 1_555 1_555
C29 C28 1_555 1_555
C30 C29 1_555 1_555
C31 C30 1_555 1_555
C32 O6 1_555 1_555
C33 O9 1_555 1_555
C34 N5 1_555 1_555
C35 N5 1_555 1_555
C36 O10 1_555 1_555
C37 N6 1_555 1_555
C38 N6 1_555 1_555
C39 O11 1_555 1_555
C40 N7 1_555 1_555
C41 N7 1_555 1_555
C42 O12 1_555 1_555
C43 N8 1_555 1_555
C44 N8 1_555 1_555
H1 C2 1_555 1_555
H2 C3 1_555 1_555
H3 C4 1_555 1_555
H4 C5 1_555 1_555
H5 C8 1_555 1_555
H6 C8 1_555 1_555
H7 C9 1_555 1_555
H8 C9 1_555 1_555
H9 C12 1_555 1_555
H10 C13 1_555 1_555
H11 C14 1_555 1_555
H12 C15 1_555 1_555
H13 C18 1_555 1_555
H14 C19 1_555 1_555
H15 C20 1_555 1_555
H16 C21 1_555 1_555
H17 C24 1_555 1_555
H18 C24 1_555 1_555
H19 C25 1_555 1_555
H20 C25 1_555 1_555
H21 C28 1_555 1_555
H22 C29 1_555 1_555
H23 C30 1_555 1_555
H24 C31 1_555 1_555
H25 C33 1_555 1_555
H26 C34 1_555 1_555
H27 C34 1_555 1_555
H28 C34 1_555 1_555
H29 C35 1_555 1_555
H30 C35 1_555 1_555
H31 C35 1_555 1_555
H32 C36 1_555 1_555
H33 C37 1_555 1_555
H34 C37 1_555 1_555
H35 C37 1_555 1_555
H36 C38 1_555 1_555
H37 C38 1_555 1_555
H38 C38 1_555 1_555
H39 C39 1_555 1_555
H40 C40 1_555 1_555
H41 C40 1_555 1_555
H42 C40 1_555 1_555
H43 C41 1_555 1_555
H44 C41 1_555 1_555
H45 C41 1_555 1_555
H46 C42 1_555 1_555
H47 C43 1_555 1_555
K4_2 O5 1_555 1_555
O5_2 K4 1_555 1_555
O6_2 K4 1_555 1_555
O16_2 K4 1_555 1_555
O2 K1 1_555 1_555
O2 K2 1_555 1_555
O6 K3 1_555 1_555
O6 K4_2 1_555 1_555
O10 K3 1_555 1_555
O11 K3 1_555 1_555
O12 K4 1_555 1_555
O13 K4 1_555 1_555
O14 K2 1_555 1_555
O15 K3 1_555 1_555
O16 K4_2 1_555 1_555
C5 C6 1_555 1_555
C6 C7 1_555 1_555
C8 C9 1_555 1_555
C11 C16 1_555 1_555
C15 C16 1_555 1_555
C21 C22 1_555 1_555
C22 C23 1_555 1_555
C24 C25 1_555 1_555
C27 C32 1_555 1_555
C31 C32 1_555 1_555

#END
