
#######################################################################
#
#                 Cambridge Crystallographic Data Centre
#                                CCDC 
#
#######################################################################
#
# If this CIF has been generated from an entry in the Cambridge 
# Structural Database, then it will include bibliographic, chemical, 
# crystal, experimental, refinement or atomic coordinate data resulting 
# from the CCDC's data processing and validation procedures.
#
#######################################################################

data_POQNOA
_symmetry_cell_setting           monoclinic
_symmetry_space_group_name_H-M   'P 21/c'
_symmetry_Int_Tables_number      14
_space_group_name_Hall           '-P 2ybc'
loop_
_symmetry_equiv_pos_site_id
_symmetry_equiv_pos_as_xyz
1 x,y,z
2 -x,1/2+y,1/2-z
3 -x,-y,-z
4 x,1/2-y,1/2+z
_cell_length_a                   9.1736(5)
_cell_length_b                   6.8909(4)
_cell_length_c                   16.9201(9)
_cell_angle_alpha                90
_cell_angle_beta                 103.292(2)
_cell_angle_gamma                90
_cell_volume                     1040.94
loop_
_atom_site_label
_atom_site_type_symbol
_atom_site_fract_x
_atom_site_fract_y
_atom_site_fract_z
Cu1 Cu 0.34932(2) 0.18003(3) 0.127612(14)
Cl1 Cl 0.13629(5) 0.03947(8) 0.14091(3)
O1 O 0.47509(15) 0.0316(2) 0.21985(9)
O2 O 0.67933(17) -0.0405(2) 0.31388(9)
N1 N 0.52877(17) 0.2229(2) 0.08822(10)
N2 N 0.67149(18) 0.1744(2) 0.11978(10)
N3 N 0.26077(18) 0.2772(2) 0.01113(10)
C1 C 0.7503(2) 0.1772(3) 0.06119(14)
H1 H 0.8540 0.1493 0.0686
C2 C 0.6540(2) 0.2275(3) -0.01080(13)
H2 H 0.6768 0.2420 -0.0625
C3 C 0.5155(2) 0.2525(3) 0.00861(12)
C4 C 0.3615(2) 0.2932(3) -0.03597(12)
C5 C 0.3191(3) 0.3422(3) -0.11740(13)
H3 H 0.3910 0.3500 -0.1497
C6 C 0.1689(3) 0.3796(3) -0.15053(13)
H4 H 0.1363 0.4124 -0.2063
C7 C 0.0671(3) 0.3689(3) -0.10224(14)
H5 H -0.0356 0.3983 -0.1239
C8 C 0.1164(2) 0.3150(3) -0.02190(13)
H6 H 0.0456 0.3043 0.0110
C9 C 0.7225(2) 0.1462(3) 0.20714(12)
H7 H 0.7420 0.2753 0.2331
H8 H 0.8190 0.0756 0.2176
C10 C 0.6154(2) 0.0353(3) 0.24892(12)
Cu1A Cu 0.65068(2) -0.31997(3) 0.372388(14)
O2A O 0.32067(17) 0.4595(2) 0.18612(9)
loop_
_geom_bond_atom_site_label_1
_geom_bond_atom_site_label_2
_geom_bond_site_symmetry_1
_geom_bond_site_symmetry_2
Cu1 Cl1 1_555 1_555
O1 Cu1 1_555 1_555
O2 C10 1_555 1_555
N1 Cu1 1_555 1_555
N2 N1 1_555 1_555
N3 Cu1 1_555 1_555
C1 N2 1_555 1_555
H1 C1 1_555 1_555
C2 C1 1_555 1_555
H2 C2 1_555 1_555
C3 N1 1_555 1_555
C4 N3 1_555 1_555
C5 C4 1_555 1_555
H3 C5 1_555 1_555
C6 C5 1_555 1_555
H4 C6 1_555 1_555
C7 C6 1_555 1_555
H5 C7 1_555 1_555
C8 N3 1_555 1_555
H6 C8 1_555 1_555
C9 N2 1_555 1_555
H7 C9 1_555 1_555
H8 C9 1_555 1_555
C10 O1 1_555 1_555
Cu1A O2 1_555 1_555
O2A Cu1 1_555 1_555
C2 C3 1_555 1_555
C3 C4 1_555 1_555
C7 C8 1_555 1_555
C9 C10 1_555 1_555

#END
