
#######################################################################
#
#                 Cambridge Crystallographic Data Centre
#                                CCDC 
#
#######################################################################
#
# If this CIF has been generated from an entry in the Cambridge 
# Structural Database, then it will include bibliographic, chemical, 
# crystal, experimental, refinement or atomic coordinate data resulting 
# from the CCDC's data processing and validation procedures.
#
#######################################################################

data_POQNUE
_symmetry_cell_setting           orthorhombic
_symmetry_space_group_name_H-M   'P 21 21 21'
_symmetry_Int_Tables_number      19
_space_group_name_Hall           'P 2ac 2ab'
loop_
_symmetry_equiv_pos_site_id
_symmetry_equiv_pos_as_xyz
1 x,y,z
2 1/2-x,-y,1/2+z
3 1/2+x,1/2-y,-z
4 -x,1/2+y,1/2-z
_cell_length_a                   14.358(1)
_cell_length_b                   16.457(2)
_cell_length_c                   13.703(2)
_cell_angle_alpha                90
_cell_angle_beta                 90
_cell_angle_gamma                90
_cell_volume                     3237.88
loop_
_atom_site_label
_atom_site_type_symbol
_atom_site_fract_x
_atom_site_fract_y
_atom_site_fract_z
Mn1 Mn 0.2509(1) 0.15201(10) 0.0902(1)
K1 K 0.4451(2) 0.0735(1) -0.0589(2)
O1 O 0.3266(5) 0.1954(4) -0.0092(5)
O2 O 0.3064(5) 0.0498(4) 0.0672(6)
O3 O 0.1008(5) 0.3565(5) 0.0415(6)
O4 O 0.1009(7) 0.0136(5) 0.2869(6)
N1 N 0.1883(6) 0.2548(5) 0.1106(8)
N2 N 0.1695(6) 0.1116(6) 0.1987(7)
N3 N 0.1347(7) 0.1129(6) -0.0246(7)
N4 N 0.3737(8) 0.1799(7) 0.2100(8)
N5 N 0.5606(10) -0.0561(8) -0.0017(9)
C1 C 0.3117(7) 0.2647(7) -0.0560(8)
C2 C 0.3730(8) 0.2846(7) -0.1358(9)
C3 C 0.3636(9) 0.3549(8) -0.1923(9)
C4 C 0.2888(10) 0.4052(8) -0.1776(9)
C5 C 0.2275(8) 0.3859(7) -0.0960(10)
C6 C 0.2358(8) 0.3172(6) -0.0379(7)
C7 C 0.1696(8) 0.3109(7) 0.0404(8)
C8 C 0.1374(7) 0.2537(7) 0.2050(9)
C9 C 0.1050(8) 0.3246(8) 0.2472(9)
C10 C 0.061(1) 0.3207(9) 0.331(1)
C11 C 0.0438(9) 0.248(1) 0.375(1)
C12 C 0.0779(8) 0.1754(8) 0.3314(10)
C13 C 0.1249(8) 0.1776(8) 0.2466(8)
C14 C 0.1529(9) 0.0337(7) 0.2221(9)
C15 C 0.1982(8) -0.0316(7) 0.1649(9)
C16 C 0.1681(9) -0.1109(8) 0.1866(10)
C17 C 0.203(1) -0.1764(8) 0.134(1)
C18 C 0.2724(9) -0.1667(8) 0.058(1)
C19 C 0.3025(8) -0.0888(7) 0.0380(10)
C20 C 0.2690(7) -0.0214(6) 0.0903(9)
C21 C 0.153(1) 0.085(1) -0.114(1)
C22 C 0.090(1) 0.055(1) -0.188(1)
C23 C -0.001(1) 0.051(1) -0.153(1)
C24 C -0.0249(9) 0.078(1) -0.055(1)
C25 C 0.045(1) 0.1085(9) 0.0001(8)
C26 C 0.3658(9) 0.1615(10) 0.297(1)
C27 C 0.439(1) 0.167(1) 0.367(1)
C28 C 0.525(1) 0.194(1) 0.329(2)
C29 C 0.533(1) 0.213(1) 0.239(1)
C30 C 0.458(1) 0.2053(9) 0.184(1)
C31 C 0.570(1) -0.091(1) 0.076(2)
C32 C 0.650(2) -0.128(1) 0.115(2)
C33 C 0.727(2) -0.127(1) 0.052(2)
C34 C 0.713(2) -0.094(1) -0.024(2)
C35 C 0.634(1) -0.0590(10) -0.052(1)
H1 H 0.4215 0.2478 -0.1517
H2 H 0.4100 0.3688 -0.2395
H3 H 0.2764 0.4497 -0.2194
H4 H 0.1784 0.4228 -0.0819
H5 H 0.1139 0.3753 0.2159
H6 H 0.0401 0.3693 0.3621
H7 H 0.0092 0.2451 0.4344
H8 H 0.0673 0.1246 0.3629
H9 H 0.1240 -0.1197 0.2371
H10 H 0.1798 -0.2292 0.1478
H11 H 0.2958 -0.2122 0.0230
H12 H 0.347 -0.0807 -0.0122
H13 H 0.2173 0.0829 -0.1320
H14 H 0.1079 0.0405 -0.2529
H15 H -0.0483 0.0284 -0.1932
H16 H -0.0868 0.0746 -0.0316
H17 H 0.0287 0.1288 0.0628
H18 H 0.3068 0.1427 0.3188
H19 H 0.4316 0.1529 0.4333
H20 H 0.5767 0.1987 0.3715
H21 H 0.5911 0.2311 0.2131
H22 H 0.4648 0.2204 0.1172
H23 H 0.5146 -0.0950 0.1164
H24 H 0.6537 -0.1557 0.1783
H25 H 0.7791 -0.1516 0.0715
H26 H 0.7722 -0.0921 -0.0632
H27 H 0.6321 -0.0373 -0.1168
O3B O 0.6008(5) 0.1435(5) -0.0415(6)
O4A O 0.3991(7) -0.0136(5) -0.2131(6)
K1B K -0.0549(2) 0.4265(1) 0.0589(2)
K1A K 0.0549(2) -0.0735(1) 0.4411(2)
loop_
_geom_bond_atom_site_label_1
_geom_bond_atom_site_label_2
_geom_bond_site_symmetry_1
_geom_bond_site_symmetry_2
Mn1 O1 1_555 1_555
K1 O1 1_555 1_555
O1 C1 1_555 1_555
O2 Mn1 1_555 1_555
O3 C7 1_555 1_555
O4 C14 1_555 1_555
N1 Mn1 1_555 1_555
N2 Mn1 1_555 1_555
N3 Mn1 1_555 1_555
N4 Mn1 1_555 1_555
N5 K1 1_555 1_555
C1 C2 1_555 1_555
C2 C3 1_555 1_555
C3 C4 1_555 1_555
C4 C5 1_555 1_555
C5 C6 1_555 1_555
C6 C1 1_555 1_555
C7 N1 1_555 1_555
C8 N1 1_555 1_555
C9 C8 1_555 1_555
C10 C9 1_555 1_555
C11 C10 1_555 1_555
C12 C11 1_555 1_555
C13 N2 1_555 1_555
C14 N2 1_555 1_555
C15 C14 1_555 1_555
C16 C15 1_555 1_555
C17 C16 1_555 1_555
C18 C17 1_555 1_555
C19 C18 1_555 1_555
C20 O2 1_555 1_555
C21 N3 1_555 1_555
C22 C21 1_555 1_555
C23 C22 1_555 1_555
C24 C23 1_555 1_555
C25 N3 1_555 1_555
C26 N4 1_555 1_555
C27 C26 1_555 1_555
C28 C27 1_555 1_555
C29 C28 1_555 1_555
C30 N4 1_555 1_555
C31 N5 1_555 1_555
C32 C31 1_555 1_555
C33 C32 1_555 1_555
C34 C33 1_555 1_555
C35 N5 1_555 1_555
H1 C2 1_555 1_555
H2 C3 1_555 1_555
H3 C4 1_555 1_555
H4 C5 1_555 1_555
H5 C9 1_555 1_555
H6 C10 1_555 1_555
H7 C11 1_555 1_555
H8 C12 1_555 1_555
H9 C16 1_555 1_555
H10 C17 1_555 1_555
H11 C18 1_555 1_555
H12 C19 1_555 1_555
H13 C21 1_555 1_555
H14 C22 1_555 1_555
H15 C23 1_555 1_555
H16 C24 1_555 1_555
H17 C25 1_555 1_555
H18 C26 1_555 1_555
H19 C27 1_555 1_555
H20 C28 1_555 1_555
H21 C29 1_555 1_555
H22 C30 1_555 1_555
H23 C31 1_555 1_555
H24 C32 1_555 1_555
H25 C33 1_555 1_555
H26 C34 1_555 1_555
H27 C35 1_555 1_555
O3B K1 1_555 1_555
O4A K1 1_555 1_555
K1B O3 1_555 1_555
K1A O4 1_555 1_555
K1 O2 1_555 1_555
C6 C7 1_555 1_555
C8 C13 1_555 1_555
C12 C13 1_555 1_555
C15 C20 1_555 1_555
C19 C20 1_555 1_555
C24 C25 1_555 1_555
C29 C30 1_555 1_555
C34 C35 1_555 1_555

#END
