
#######################################################################
#
#                 Cambridge Crystallographic Data Centre
#                                CCDC 
#
#######################################################################
#
# If this CIF has been generated from an entry in the Cambridge 
# Structural Database, then it will include bibliographic, chemical, 
# crystal, experimental, refinement or atomic coordinate data resulting 
# from the CCDC's data processing and validation procedures.
#
#######################################################################

data_POQNOY
_symmetry_cell_setting           monoclinic
_symmetry_space_group_name_H-M   'P 21/n'
_symmetry_Int_Tables_number      14
_space_group_name_Hall           '-P 2yn'
loop_
_symmetry_equiv_pos_site_id
_symmetry_equiv_pos_as_xyz
1 x,y,z
2 1/2-x,1/2+y,1/2-z
3 -x,-y,-z
4 1/2+x,1/2-y,1/2+z
_cell_length_a                   12.688(3)
_cell_length_b                   17.555(4)
_cell_length_c                   16.673(3)
_cell_angle_alpha                90
_cell_angle_beta                 102.59(2)
_cell_angle_gamma                90
_cell_volume                     3624.41
loop_
_atom_site_label
_atom_site_type_symbol
_atom_site_fract_x
_atom_site_fract_y
_atom_site_fract_z
O1 O 0.3042(2) 0.0663(2) -0.2024(2)
O2 O 0.1062(2) 0.1125(2) -0.2246(2)
O3 O 0.3381(3) -0.1694(2) -0.2520(3)
O4 O -0.1414(3) -0.0571(2) -0.2824(3)
O5 O 0.4741(4) 0.2568(3) -0.0900(3)
O7 O 0.1757(9) 0.2840(7) -0.0596(7)
N1 N 0.2350(3) -0.0832(2) -0.2026(2)
N2 N 0.0367(3) -0.0387(2) -0.2235(2)
N3 N 0.1569(3) 0.0115(2) -0.3334(2)
N4 N 0.1858(3) 0.0220(2) -0.0942(2)
C1 C 0.3908(4) 0.0348(3) -0.2212(3)
C2 C 0.4782(4) 0.0841(3) -0.2242(3)
C3 C 0.5702(4) 0.0575(3) -0.2455(4)
C4 C 0.5817(4) -0.0188(3) -0.2632(3)
C5 C 0.4982(4) -0.0676(3) -0.2589(3)
C6 C 0.4024(4) -0.0429(3) -0.2380(3)
C7 C 0.3219(4) -0.1029(3) -0.2317(3)
C8 C 0.1625(4) -0.1390(3) -0.1854(3)
C9 C 0.1931(4) -0.2112(3) -0.1537(3)
C10 C 0.1163(5) -0.2598(3) -0.1359(4)
C11 C 0.0091(5) -0.2375(3) -0.1488(4)
C12 C -0.0214(4) -0.1655(3) -0.1780(3)
C13 C 0.0548(4) -0.115(3) -0.1969(3)
C14 C -0.0611(4) -0.0140(3) -0.2624(3)
C15 C -0.0760(4) 0.0684(3) -0.2820(3)
C16 C -0.1805(4) 0.0909(3) -0.3227(3)
C17 C -0.2064(4) 0.1652(4) -0.3430(4)
C18 C -0.1270(5) 0.2208(3) -0.3227(4)
C19 C -0.0244(4) 0.2013(3) -0.2837(3)
C20 C 0.0041(4) 0.1252(3) -0.2625(3)
C21 C 0.1791(4) 0.0745(3) -0.3719(3)
C22 C 0.1755(5) 0.0768(4) -0.4557(3)
C23 C 0.1499(5) 0.0115(4) -0.5013(3)
C24 C 0.1258(5) -0.0540(4) -0.4624(4)
C25 C 0.1292(4) -0.0515(3) -0.3785(3)
C26 C 0.2773(4) 0.0007(3) -0.0423(3)
C27 C 0.2908(5) 0.0073(4) 0.0413(4)
C28 C 0.2087(6) 0.0359(5) 0.0737(4)
C29 C 0.1147(6) 0.0577(4) 0.0209(4)
C30 C 0.1059(4) 0.0498(4) -0.0620(3)
C31 C 0.5047(9) 0.2348(7) -0.0067(6)
C32 C 0.491(1) 0.1611(7) 0.0120(7)
C35 C 0.083(1) 0.279(2) -0.0498(9)
Co1 Co 0.17001(5) 0.01482(3) -0.21431(4)
K1 K 0.2713(1) 0.21344(7) -0.16887(9)
H1 H 0.4728 0.1369 -0.2116
H2 H 0.6273 0.0919 -0.2482
H3 H 0.6455 -0.0368 -0.2776
H4 H 0.5057 -0.1202 -0.2704
H5 H 0.2665 -0.2268 -0.1443
H6 H 0.1366 -0.3090 -0.1147
H7 H -0.0434 -0.2719 -0.1369
H8 H -0.0945 -0.1499 -0.1856
H9 H -0.2354 0.0534 -0.3363
H10 H -0.2778 0.1786 -0.3704
H11 H -0.1444 0.2727 -0.3361
H12 H 0.0289 0.2400 -0.2704
H13 H 0.1987 0.1197 -0.3405
H14 H 0.1908 0.1230 -0.4812
H15 H 0.1489 0.0112 -0.5584
H16 H 0.1070 -0.0999 -0.4928
H17 H 0.1115 -0.0963 -0.3519
H18 H 0.3349 -0.0195 -0.0641
H19 H 0.3563 -0.0081 0.0766
H20 H 0.2171 0.0407 0.1316
H21 H 0.0567 0.0783 0.0417
H22 H 0.0401 0.0646 -0.0982
H23 H 0.5787 0.2470 0.0119
H24 H 0.4630 0.2651 0.0230
H25 H 0.4172 0.1478 0.0021
H26 H 0.5292 0.1284 -0.0157
H27 H 0.5203 0.1538 0.0717
H33 H 0.0690 0.3265 -0.0201
H34 H 0.0330 0.2801 -0.1005
H35 H 0.0743 0.2283 -0.0177
K1A K 0.2287(1) -0.28656(7) -0.33113(9)
O3A O 0.1619(3) 0.3306(2) -0.2480(3)
O6 O 0.1614(4) 0.1857(3) 0.3762(3)
C33 C 0.2388(9) 0.2302(6) 0.3481(6)
C34 C 0.2784(9) 0.2954(6) 0.3953(7)
H28 H 0.2969 0.1988 0.3425
H29 H 0.2041 0.2488 0.2934
H30 H 0.3034 0.2814 0.4519
H31 H 0.3408 0.3164 0.3773
H32 H 0.2264 0.3344 0.3914
loop_
_geom_bond_atom_site_label_1
_geom_bond_atom_site_label_2
_geom_bond_site_symmetry_1
_geom_bond_site_symmetry_2
O1 C1 1_555 1_555
O2 C20 1_555 1_555
O3 C7 1_555 1_555
O4 C14 1_555 1_555
O5 C31 1_555 1_555
O6 C33 1_555 1_555
O7 C35 1_555 1_555
N1 C7 1_555 1_555
N2 C13 1_555 1_555
N3 C21 1_555 1_555
N4 C26 1_555 1_555
C1 C2 1_555 1_555
C2 C3 1_555 1_555
C3 C4 1_555 1_555
C4 C5 1_555 1_555
C5 C6 1_555 1_555
C6 C1 1_555 1_555
C7 C6 1_555 1_555
C8 N1 1_555 1_555
C9 C8 1_555 1_555
C10 C9 1_555 1_555
C11 C10 1_555 1_555
C12 C11 1_555 1_555
C13 C8 1_555 1_555
C14 N2 1_555 1_555
C15 C14 1_555 1_555
C16 C15 1_555 1_555
C17 C16 1_555 1_555
C18 C17 1_555 1_555
C19 C18 1_555 1_555
C20 C15 1_555 1_555
C21 C22 1_555 1_555
C22 C23 1_555 1_555
C23 C24 1_555 1_555
C24 C25 1_555 1_555
C25 N3 1_555 1_555
C26 C27 1_555 1_555
C27 C28 1_555 1_555
C28 C29 1_555 1_555
C29 C30 1_555 1_555
C30 N4 1_555 1_555
C31 C32 1_555 1_555
C32 H25 1_555 1_555
C33 C34 1_555 1_555
C34 H30 1_555 1_555
C35 H33 1_555 1_555
Co1 O1 1_555 1_555
K1 O1 1_555 1_555
H1 C2 1_555 1_555
H2 C3 1_555 1_555
H3 C4 1_555 1_555
H4 C5 1_555 1_555
H5 C9 1_555 1_555
H6 C10 1_555 1_555
H7 C11 1_555 1_555
H8 C12 1_555 1_555
H9 C16 1_555 1_555
H10 C17 1_555 1_555
H11 C18 1_555 1_555
H12 C19 1_555 1_555
H13 C21 1_555 1_555
H14 C22 1_555 1_555
H15 C23 1_555 1_555
H16 C24 1_555 1_555
H17 C25 1_555 1_555
H18 C26 1_555 1_555
H19 C27 1_555 1_555
H20 C28 1_555 1_555
H21 C29 1_555 1_555
H22 C30 1_555 1_555
H23 C31 1_555 1_555
H24 C31 1_555 1_555
H26 C32 1_555 1_555
H27 C32 1_555 1_555
H28 C33 1_555 1_555
H29 C33 1_555 1_555
H31 C34 1_555 1_555
H32 C34 1_555 1_555
H34 C35 1_555 1_555
H35 C35 1_555 1_555
K1A O3 1_555 1_555
O3A K1 1_555 1_555
O2 Co1 1_555 1_555
O2 K1 1_555 1_555
O5 K1 1_555 1_555
O7 K1 1_555 1_555
N1 Co1 1_555 1_555
N2 Co1 1_555 1_555
N3 Co1 1_555 1_555
N4 Co1 1_555 1_555
C12 C13 1_555 1_555
C19 C20 1_555 1_555

#END
