
#######################################################################
#
#                 Cambridge Crystallographic Data Centre
#                                CCDC 
#
#######################################################################
#
# If this CIF has been generated from an entry in the Cambridge 
# Structural Database, then it will include bibliographic, chemical, 
# crystal, experimental, refinement or atomic coordinate data resulting 
# from the CCDC's data processing and validation procedures.
#
#######################################################################

data_POQTOF
_symmetry_cell_setting           triclinic
_symmetry_space_group_name_H-M   'P -1'
_symmetry_Int_Tables_number      2
_space_group_name_Hall           '-P 1'
loop_
_symmetry_equiv_pos_site_id
_symmetry_equiv_pos_as_xyz
1 x,y,z
2 -x,-y,-z
_cell_length_a                   4.8254(4)
_cell_length_b                   13.7397(15)
_cell_length_c                   14.7874(15)
_cell_angle_alpha                106.656(7)
_cell_angle_beta                 95.714(7)
_cell_angle_gamma                94.313(7)
_cell_volume                     929.046
loop_
_atom_site_label
_atom_site_type_symbol
_atom_site_fract_x
_atom_site_fract_y
_atom_site_fract_z
Mn1 Mn 0.0000 0.5000 0.0000
O1 O 0.1926(9) 0.2727(4) 0.2432(4)
O2 O 0.3952(8) 0.5457(3) 0.0949(3)
O3 O 0.7789(8) 0.4694(4) 0.1120(3)
N1 N 0.6219(11) 0.2207(4) 0.2634(5)
H1 H 0.7958 0.2335 0.2581
N2 N 0.5661(11) 0.3673(4) 0.2232(4)
H2 H 0.7453 0.3761 0.2256
C1 C 0.666(2) 0.0463(7) 0.2513(8)
H3 H 0.7842 0.0444 0.2051
C2 C 0.603(3) -0.0404(7) 0.2818(9)
H4 H 0.6837 -0.0999 0.2556
C3 C 0.428(2) -0.0392(8) 0.3487(10)
H5 H 0.3900 -0.0968 0.3684
C4 C 0.311(2) 0.0468(9) 0.3858(8)
H6 H 0.1879 0.0473 0.4303
C5 C 0.3692(18) 0.1349(6) 0.3596(6)
H7 H 0.2892 0.1940 0.3874
C6 C 0.5468(14) 0.1333(5) 0.2919(5)
C7 C 0.4462(13) 0.2858(5) 0.2439(5)
C8 C 0.3972(12) 0.4403(5) 0.1971(4)
H8 H 0.2196 0.4023 0.1625
C9 C 0.3265(13) 0.5226(5) 0.2835(5)
H9 H 0.1974 0.5640 0.2612
H10 H 0.2302 0.4891 0.3228
C10 C 0.5681(14) 0.5909(5) 0.3433(5)
C11 C 0.7050(17) 0.5694(7) 0.4222(5)
H11 H 0.6428 0.5106 0.4367
C12 C 0.928(2) 0.6325(9) 0.4786(6)
H12 H 1.0148 0.6169 0.5309
C13 C 1.023(2) 0.7209(9) 0.4567(8)
H13 H 1.1759 0.7639 0.4939
C14 C 0.890(2) 0.7438(7) 0.3806(8)
H14 H 0.9517 0.8027 0.3660
C15 C 0.6599(17) 0.6784(6) 0.3246(6)
H15 H 0.5683 0.6951 0.2736
C16 C 0.5385(12) 0.4875(5) 0.1286(4)
O4 O -0.140(2) 0.6496(6) 0.0425(5)
H16 H -0.0275 0.6875 0.0859
H17 H 0.032(11) 0.685(4) 0.029(3)
Mn1_2 Mn 1.0000 0.5000 0.0000
O1A O 0.8074(9) 0.7273(4) -0.2432(4)
O2A O 0.6048(8) 0.4543(3) -0.0949(3)
O2A_2 O -0.3952(8) 0.4543(3) -0.0949(3)
O3A O 0.2211(8) 0.5306(4) -0.1120(3)
O3_2 O -0.2211(8) 0.4694(4) 0.1120(3)
N1A N 0.3781(11) 0.7793(4) -0.2634(5)
H1A H 0.2042 0.7665 -0.2581
N2A N 0.4339(11) 0.6327(4) -0.2232(4)
H2A H 0.2547 0.6239 -0.2256
C1A C 0.334(2) 0.9537(7) -0.2513(8)
H3A H 0.2158 0.9556 -0.2051
C2A C 0.397(3) 1.0404(7) -0.2818(9)
H4A H 0.3163 1.0999 -0.2556
C3A C 0.572(2) 1.0392(8) -0.3487(10)
H5A H 0.6100 1.0968 -0.3684
C4A C 0.689(2) 0.9532(9) -0.3858(8)
H6A H 0.8121 0.9527 -0.4303
C5A C 0.6308(18) 0.8651(6) -0.3596(6)
H7A H 0.7108 0.8060 -0.3874
C6A C 0.4532(14) 0.8667(5) -0.2919(5)
C7A C 0.5538(13) 0.7142(5) -0.2439(5)
C8A C 0.6028(12) 0.5597(5) -0.1971(4)
H8A H 0.7804 0.5977 -0.1625
C9A C 0.6735(13) 0.4774(5) -0.2835(5)
H9A H 0.8026 0.4360 -0.2612
H10A H 0.7698 0.5109 -0.3228
C10A C 0.4319(14) 0.4091(5) -0.3433(5)
C11A C 0.2950(17) 0.4306(7) -0.4222(5)
H11A H 0.3572 0.4894 -0.4367
C12A C 0.072(2) 0.3675(9) -0.4786(6)
H12A H -0.0148 0.3831 -0.5309
C13A C -0.023(2) 0.2791(9) -0.4567(8)
H13A H -0.1759 0.2361 -0.4939
C14A C 0.110(2) 0.2562(7) -0.3806(8)
H14A H 0.0483 0.1973 -0.3660
C15A C 0.3401(17) 0.3216(6) -0.3246(6)
H15A H 0.4317 0.3049 -0.2736
C16A C 0.4615(12) 0.5125(5) -0.1286(4)
O4A O 0.140(2) 0.3504(6) -0.0425(5)
H16A H 0.0275 0.3125 -0.0859
H17A H -0.032(11) 0.315(4) -0.029(3)
loop_
_geom_bond_atom_site_label_1
_geom_bond_atom_site_label_2
_geom_bond_site_symmetry_1
_geom_bond_site_symmetry_2
Mn1 O2 1_555 1_555
O1 C7 1_555 1_555
O2 C16 1_555 1_555
O3 C16 1_555 1_555
N1 H1 1_555 1_555
N2 H2 1_555 1_555
C1 H3 1_555 1_555
C2 C1 1_555 1_555
H4 C2 1_555 1_555
C3 C2 1_555 1_555
H5 C3 1_555 1_555
C4 C3 1_555 1_555
H6 C4 1_555 1_555
C5 C4 1_555 1_555
H7 C5 1_555 1_555
C6 N1 1_555 1_555
C7 N1 1_555 1_555
C8 N2 1_555 1_555
H8 C8 1_555 1_555
C9 C8 1_555 1_555
H9 C9 1_555 1_555
H10 C9 1_555 1_555
C10 C9 1_555 1_555
C11 C10 1_555 1_555
H11 C11 1_555 1_555
C12 C11 1_555 1_555
H12 C12 1_555 1_555
C13 C12 1_555 1_555
H13 C13 1_555 1_555
C14 C13 1_555 1_555
H14 C14 1_555 1_555
C15 C10 1_555 1_555
H15 C15 1_555 1_555
C16 C8 1_555 1_555
O4 Mn1 1_555 1_555
H16 O4 1_555 1_555
H17 O4 1_555 1_555
Mn1_2 O3 1_555 1_555
O1A C7A 1_555 1_555
O2A Mn1_2 1_555 1_555
O2A_2 Mn1 1_555 1_555
O3A Mn1 1_555 1_555
O3_2 Mn1 1_555 1_555
N1A H1A 1_555 1_555
N2A H2A 1_555 1_555
C1A H3A 1_555 1_555
C2A C1A 1_555 1_555
H4A C2A 1_555 1_555
C3A C2A 1_555 1_555
H5A C3A 1_555 1_555
C4A C3A 1_555 1_555
H6A C4A 1_555 1_555
C5A C4A 1_555 1_555
H7A C5A 1_555 1_555
C6A N1A 1_555 1_555
C7A N1A 1_555 1_555
C8A N2A 1_555 1_555
H8A C8A 1_555 1_555
C9A C8A 1_555 1_555
H9A C9A 1_555 1_555
H10A C9A 1_555 1_555
C10A C9A 1_555 1_555
C11A C10A 1_555 1_555
H11A C11A 1_555 1_555
C12A C11A 1_555 1_555
H12A C12A 1_555 1_555
C13A C12A 1_555 1_555
H13A C13A 1_555 1_555
C14A C13A 1_555 1_555
H14A C14A 1_555 1_555
C15A C10A 1_555 1_555
H15A C15A 1_555 1_555
C16A O2A 1_555 1_555
O4A Mn1 1_555 1_555
H16A O4A 1_555 1_555
H17A O4A 1_555 1_555
N2 C7 1_555 1_555
C1 C6 1_555 1_555
C5 C6 1_555 1_555
C14 C15 1_555 1_555
O3A C16A 1_555 1_555
N2A C7A 1_555 1_555
C1A C6A 1_555 1_555
C5A C6A 1_555 1_555
C8A C16A 1_555 1_555
C14A C15A 1_555 1_555

#END
