
#######################################################################
#
#                 Cambridge Crystallographic Data Centre
#                                CCDC 
#
#######################################################################
#
# If this CIF has been generated from an entry in the Cambridge 
# Structural Database, then it will include bibliographic, chemical, 
# crystal, experimental, refinement or atomic coordinate data resulting 
# from the CCDC's data processing and validation procedures.
#
#######################################################################

data_POQTIZ
_symmetry_cell_setting           triclinic
_symmetry_space_group_name_H-M   'P -1'
_symmetry_Int_Tables_number      2
_space_group_name_Hall           '-P 1'
loop_
_symmetry_equiv_pos_site_id
_symmetry_equiv_pos_as_xyz
1 x,y,z
2 -x,-y,-z
_cell_length_a                   4.8320(6)
_cell_length_b                   13.454(2)
_cell_length_c                   15.072(2)
_cell_angle_alpha                110.135(11)
_cell_angle_beta                 95.970(10)
_cell_angle_gamma                92.869(10)
_cell_volume                     911.079
loop_
_atom_site_label
_atom_site_type_symbol
_atom_site_fract_x
_atom_site_fract_y
_atom_site_fract_z
Cd1 Cd 0.5000 0.0000 1.0000
O1 O 1.3080(12) 0.2387(6) 0.7721(7)
O2 O 0.7173(11) 0.0455(5) 0.8926(4)
O3 O 1.0837(11) -0.0497(5) 0.8983(5)
O4 O 0.3467(17) 0.1659(6) 1.0592(6)
H1 H 0.2149 0.1677 1.0892
H2 H 0.4575 0.2159 1.0585
N1 N 0.8741(16) 0.2918(7) 0.7476(7)
H3 H 0.7010 0.2786 0.7503
N2 N 0.9330(13) 0.1425(6) 0.7858(5)
H4 H 0.7543 0.1360 0.7836
C1 C 1.127(3) 0.3745(10) 0.6548(11)
H5 H 1.2114 0.3124 0.6280
C2 C 1.178(3) 0.4565(13) 0.6257(14)
H6 H 1.2942 0.4500 0.5789
C3 C 1.063(4) 0.5484(15) 0.6643(17)
H7 H 1.1062 0.6065 0.6466
C4 C 0.830(3) 0.4721(12) 0.7575(14)
H8 H 0.7064 0.4767 0.8019
C5 C 0.9551(19) 0.3783(8) 0.7217(8)
C6 C 1.0565(18) 0.2250(8) 0.7690(7)
C7 C 1.0992(15) 0.0653(7) 0.8083(6)
H9 H 1.2737 0.1040 0.8463
C8 C 1.1786(17) -0.0208(8) 0.7205(7)
H10 H 1.2839 0.0130 0.6855
H11 H 1.2999 -0.0661 0.7412
C9 C 0.9292(19) -0.0900(8) 0.6534(7)
C10 C 0.807(2) -0.0660(10) 0.5783(7)
H12 H 0.8741 -0.0059 0.5672
C11 C 0.581(3) -0.1325(14) 0.5182(9)
H13 H 0.4971 -0.1160 0.4673
C12 C 0.481(3) -0.2213(15) 0.5333(12)
H14 H 0.3292 -0.2643 0.4932
C13 C 0.601(3) -0.2463(11) 0.6050(10)
H15 H 0.5343 -0.3075 0.6144
C14 C 0.827(2) -0.1811(9) 0.6667(9)
H16 H 0.9097 -0.1991 0.7170
C15 C 0.9507(14) 0.0164(7) 0.8710(6)
C16 C 0.876(5) 0.5561(13) 0.7313(17)
H17 H 0.7884 0.6177 0.7567
Cd1_2 Cd 1.5000 0.0000 1.0000
O1A O 0.6920(12) -0.2387(6) 1.2279(7)
O2A O 1.2827(11) -0.0455(5) 1.1074(4)
O2A_2 O 0.2827(11) -0.0455(5) 1.1074(4)
O3A O 0.9163(11) 0.0497(5) 1.1017(5)
O3_2 O 0.0837(11) -0.0497(5) 0.8983(5)
O4A O 0.6533(17) -0.1659(6) 0.9408(6)
H1A H 0.7851 -0.1677 0.9108
H2A H 0.5425 -0.2159 0.9415
N1A N 1.1259(16) -0.2918(7) 1.2524(7)
H3A H 1.2990 -0.2786 1.2497
N2A N 1.0670(13) -0.1425(6) 1.2142(5)
H4A H 1.2457 -0.1360 1.2164
C1A C 0.873(3) -0.3745(10) 1.3452(11)
H5A H 0.7886 -0.3124 1.3720
C2A C 0.822(3) -0.4565(13) 1.3743(14)
H6A H 0.7058 -0.4500 1.4211
C3A C 0.937(4) -0.5484(15) 1.3357(17)
H7A H 0.8938 -0.6065 1.3534
C4A C 1.170(3) -0.4721(12) 1.2425(14)
H8A H 1.2936 -0.4767 1.1981
C5A C 1.0449(19) -0.3783(8) 1.2783(8)
C6A C 0.9435(18) -0.2250(8) 1.2310(7)
C7A C 0.9008(15) -0.0653(7) 1.1917(6)
H9A H 0.7263 -0.1040 1.1537
C8A C 0.8214(17) 0.0208(8) 1.2795(7)
H10A H 0.7161 -0.0130 1.3145
H11A H 0.7001 0.0661 1.2588
C9A C 1.0708(19) 0.0900(8) 1.3466(7)
C10A C 1.193(2) 0.0660(10) 1.4217(7)
H12A H 1.1259 0.0059 1.4328
C11A C 1.419(3) 0.1325(14) 1.4818(9)
H13A H 1.5029 0.1160 1.5327
C12A C 1.519(3) 0.2213(15) 1.4667(12)
H14A H 1.6708 0.2643 1.5068
C13A C 1.399(3) 0.2463(11) 1.3950(10)
H15A H 1.4657 0.3075 1.3856
C14A C 1.173(2) 0.1811(9) 1.3333(9)
H16A H 1.0903 0.1991 1.2830
C15A C 1.0493(14) -0.0164(7) 1.1290(6)
C16A C 1.124(5) -0.5561(13) 1.2687(17)
H17A H 1.2116 -0.6177 1.2433
loop_
_geom_bond_atom_site_label_1
_geom_bond_atom_site_label_2
_geom_bond_site_symmetry_1
_geom_bond_site_symmetry_2
Cd1 O2 1_555 1_555
O1 C6 1_555 1_555
O2 C15 1_555 1_555
O3 C15 1_555 1_555
O4 Cd1 1_555 1_555
H1 O4 1_555 1_555
H2 O4 1_555 1_555
N1 H3 1_555 1_555
N2 H4 1_555 1_555
C1 H5 1_555 1_555
C2 C1 1_555 1_555
H6 C2 1_555 1_555
C3 C2 1_555 1_555
H7 C3 1_555 1_555
C4 H8 1_555 1_555
C5 N1 1_555 1_555
C6 N1 1_555 1_555
C7 N2 1_555 1_555
H9 C7 1_555 1_555
C8 C7 1_555 1_555
H10 C8 1_555 1_555
H11 C8 1_555 1_555
C9 C8 1_555 1_555
C10 C9 1_555 1_555
H12 C10 1_555 1_555
C11 C10 1_555 1_555
H13 C11 1_555 1_555
C12 C11 1_555 1_555
H14 C12 1_555 1_555
C13 C12 1_555 1_555
H15 C13 1_555 1_555
C14 C9 1_555 1_555
H16 C14 1_555 1_555
C15 C7 1_555 1_555
C16 C3 1_555 1_555
H17 C16 1_555 1_555
Cd1_2 O3 1_555 1_555
O1A C6A 1_555 1_555
O2A Cd1_2 1_555 1_555
O2A_2 Cd1 1_555 1_555
O3A Cd1 1_555 1_555
O3_2 Cd1 1_555 1_555
O4A Cd1 1_555 1_555
H1A O4A 1_555 1_555
H2A O4A 1_555 1_555
N1A H3A 1_555 1_555
N2A H4A 1_555 1_555
C1A H5A 1_555 1_555
C2A C1A 1_555 1_555
H6A C2A 1_555 1_555
C3A C2A 1_555 1_555
H7A C3A 1_555 1_555
C4A H8A 1_555 1_555
C5A N1A 1_555 1_555
C6A N1A 1_555 1_555
C7A N2A 1_555 1_555
H9A C7A 1_555 1_555
C8A C7A 1_555 1_555
H10A C8A 1_555 1_555
H11A C8A 1_555 1_555
C9A C8A 1_555 1_555
C10A C9A 1_555 1_555
H12A C10A 1_555 1_555
C11A C10A 1_555 1_555
H13A C11A 1_555 1_555
C12A C11A 1_555 1_555
H14A C12A 1_555 1_555
C13A C12A 1_555 1_555
H15A C13A 1_555 1_555
C14A C9A 1_555 1_555
H16A C14A 1_555 1_555
C15A O2A 1_555 1_555
C16A C3A 1_555 1_555
H17A C16A 1_555 1_555
N2 C6 1_555 1_555
C1 C5 1_555 1_555
C4 C5 1_555 1_555
C4 C16 1_555 1_555
C13 C14 1_555 1_555
O3A C15A 1_555 1_555
N2A C6A 1_555 1_555
C1A C5A 1_555 1_555
C4A C5A 1_555 1_555
C4A C16A 1_555 1_555
C7A C15A 1_555 1_555
C13A C14A 1_555 1_555

#END
