
#######################################################################
#
#                 Cambridge Crystallographic Data Centre
#                                CCDC 
#
#######################################################################
#
# If this CIF has been generated from an entry in the Cambridge 
# Structural Database, then it will include bibliographic, chemical, 
# crystal, experimental, refinement or atomic coordinate data resulting 
# from the CCDC's data processing and validation procedures.
#
#######################################################################

data_POQTAQ
_symmetry_cell_setting           monoclinic
_symmetry_space_group_name_H-M   'P 21/n'
_symmetry_Int_Tables_number      14
_space_group_name_Hall           '-P 2yn'
loop_
_symmetry_equiv_pos_site_id
_symmetry_equiv_pos_as_xyz
1 x,y,z
2 1/2+x,1/2-y,1/2+z
3 -x,-y,-z
4 1/2-x,1/2+y,1/2-z
_cell_length_a                   9.968(2)
_cell_length_b                   7.866(2)
_cell_length_c                   23.089(5)
_cell_angle_alpha                90
_cell_angle_beta                 94.79(3)
_cell_angle_gamma                90
_cell_volume                     1804.05
loop_
_atom_site_label
_atom_site_type_symbol
_atom_site_fract_x
_atom_site_fract_y
_atom_site_fract_z
Zn1 Zn 0.19235(3) 0.05616(4) 0.245989(15)
N1 N 0.1823(3) 0.0928(3) 0.33493(12)
N2 N 0.1362(3) 0.0983(4) 0.15854(12)
N3 N -0.0231(3) 0.1002(3) 0.24789(11)
O1 O 0.1809(2) -0.1988(3) 0.25089(10)
O2 O 0.0982(2) -0.4492(3) 0.26659(11)
C1 C 0.0592(3) 0.1268(4) 0.35196(14)
C2 C 0.0360(4) 0.1273(5) 0.41022(16)
H1 H -0.0494 0.1500 0.4218
C3 C 0.1421(5) 0.0928(6) 0.45100(17)
H2 H 0.1286 0.0904 0.4904
C4 C 0.2684(4) 0.0623(5) 0.43330(17)
H3 H 0.3408 0.0412 0.4604
C5 C 0.2854(4) 0.0630(4) 0.37513(16)
H4 H 0.3706 0.0424 0.3631
C6 C 0.0157(3) 0.1742(4) 0.14743(14)
C7 C -0.0331(4) 0.2158(4) 0.09128(15)
H5 H -0.1161 0.2692 0.0841
C8 C 0.0431(4) 0.1766(5) 0.04608(16)
H6 H 0.0124 0.2053 0.0082
C9 C 0.1651(4) 0.0955(5) 0.05699(17)
H7 H 0.2165 0.0663 0.0267
C10 C 0.2091(4) 0.0584(5) 0.11386(16)
H8 H 0.2915 0.0039 0.1216
C11 C -0.0965(3) -0.0634(4) 0.23562(15)
H9 H -0.0866 -0.0953 0.1956
H10 H -0.1915 -0.0442 0.2393
C12 C -0.0505(3) -0.2119(4) 0.27483(15)
H11 H -0.0442 -0.1728 0.3148
H12 H -0.1193 -0.2993 0.2711
C13 C 0.0827(3) -0.2917(4) 0.26300(14)
C14 C -0.0485(3) 0.1722(4) 0.30498(14)
H13 H -0.1345 0.1306 0.3159
H14 H -0.0544 0.2949 0.3018
C15 C -0.0580(3) 0.2194(4) 0.19969(14)
H15 H -0.0342 0.3342 0.2121
H16 H -0.1543 0.2161 0.1894
O1C O 0.3191(2) 0.3012(3) 0.24911(10)
Zn1C Zn 0.30765(3) -0.44384(4) 0.254011(15)
O2C O 0.4018(2) 0.0508(3) 0.23341(11)
N4 N 0.6551(3) 0.1575(4) 0.39810(13)
O3 O 0.6242(3) 0.0981(4) 0.35010(13)
O4 O 0.6401(6) 0.3108(5) 0.40714(18)
O5 O 0.7060(6) 0.0742(6) 0.4370(2)
C16 C 0.5875(6) 0.0907(8) 0.0752(2)
H17 H 0.4930 0.0681 0.0759
H18 H 0.6196 0.0406 0.0411
H19 H 0.6021 0.2113 0.0747
O6 O 0.6561(5) 0.0210(6) 0.12395(17)
H20 H 0.7081 -0.0525 0.1142
loop_
_geom_bond_atom_site_label_1
_geom_bond_atom_site_label_2
_geom_bond_site_symmetry_1
_geom_bond_site_symmetry_2
Zn1 N1 1_555 1_555
N1 C1 1_555 1_555
N2 Zn1 1_555 1_555
N3 Zn1 1_555 1_555
O1 Zn1 1_555 1_555
O2 C13 1_555 1_555
C1 C2 1_555 1_555
C2 H1 1_555 1_555
C3 C2 1_555 1_555
H2 C3 1_555 1_555
C4 C3 1_555 1_555
H3 C4 1_555 1_555
C5 N1 1_555 1_555
H4 C5 1_555 1_555
C6 N2 1_555 1_555
C7 C6 1_555 1_555
H5 C7 1_555 1_555
C8 C7 1_555 1_555
H6 C8 1_555 1_555
C9 C8 1_555 1_555
H7 C9 1_555 1_555
C10 N2 1_555 1_555
H8 C10 1_555 1_555
C11 N3 1_555 1_555
H9 C11 1_555 1_555
H10 C11 1_555 1_555
C12 C11 1_555 1_555
H11 C12 1_555 1_555
H12 C12 1_555 1_555
C13 O1 1_555 1_555
C14 N3 1_555 1_555
H13 C14 1_555 1_555
H14 C14 1_555 1_555
C15 N3 1_555 1_555
H15 C15 1_555 1_555
H16 C15 1_555 1_555
N4 O3 1_555 1_555
O4 N4 1_555 1_555
O5 N4 1_555 1_555
C16 H17 1_555 1_555
H18 C16 1_555 1_555
H19 C16 1_555 1_555
O6 C16 1_555 1_555
H20 O6 1_555 1_555
O1C Zn1 1_555 1_555
Zn1C O1 1_555 1_555
O2C Zn1 1_555 1_555
O2 Zn1C 1_555 1_555
C1 C14 1_555 1_555
C4 C5 1_555 1_555
C6 C15 1_555 1_555
C9 C10 1_555 1_555
C12 C13 1_555 1_555

#END
