
#######################################################################
#
#                 Cambridge Crystallographic Data Centre
#                                CCDC 
#
#######################################################################
#
# If this CIF has been generated from an entry in the Cambridge 
# Structural Database, then it will include bibliographic, chemical, 
# crystal, experimental, refinement or atomic coordinate data resulting 
# from the CCDC's data processing and validation procedures.
#
#######################################################################

data_POQWIC
_symmetry_cell_setting           monoclinic
_symmetry_space_group_name_H-M   'C 2/c'
_symmetry_Int_Tables_number      15
_space_group_name_Hall           '-C 2yn'
loop_
_symmetry_equiv_pos_site_id
_symmetry_equiv_pos_as_xyz
1 x,y,z
2 -x,y,1/2-z
3 1/2+x,1/2+y,z
4 1/2-x,1/2+y,1/2-z
5 -x,-y,-z
6 x,-y,1/2+z
7 1/2-x,1/2-y,-z
8 1/2+x,1/2-y,1/2+z
_cell_length_a                   19.413(2)
_cell_length_b                   11.085(2)
_cell_length_c                   22.644(4)
_cell_angle_alpha                90
_cell_angle_beta                 107.576(3)
_cell_angle_gamma                90
_cell_volume                     4645.36
loop_
_atom_site_label
_atom_site_type_symbol
_atom_site_fract_x
_atom_site_fract_y
_atom_site_fract_z
C1 C 0.6326(2) 0.4730(4) 0.5669(2)
C2 C 0.5895(2) 0.3982(4) 0.5957(2)
C3 C 0.6656(3) 0.6092(5) 0.5137(3)
H1 H 0.6659 0.6780 0.4903
C4 C 0.7194(3) 0.5299(5) 0.5313(3)
H2 H 0.7627 0.5331 0.5217
C5 C 0.5557(3) 0.2972(5) 0.6655(3)
H3 H 0.5534 0.2666 0.7031
C6 C 0.5125(3) 0.2685(5) 0.6092(2)
H4 H 0.4743 0.2140 0.6011
C7 C 0.7462(3) 0.3440(4) 0.5975(3)
H5 H 0.7641 0.3627 0.6413
H6 H 0.7875 0.3377 0.5821
C8 C 0.7076(2) 0.2227(4) 0.5895(3)
C9 C 0.6626(3) 0.1837(5) 0.5331(3)
H7 H 0.6543 0.2332 0.4985
C10 C 0.6292(3) 0.0708(5) 0.5274(2)
H8 H 0.5978 0.0460 0.4896
C11 C 0.6436(2) -0.0036(4) 0.5787(2)
C12 C 0.6879(3) 0.0353(5) 0.6341(3)
H9 H 0.6971 -0.0148 0.6685
C13 C 0.7192(3) 0.1478(5) 0.6398(3)
H10 H 0.7486 0.1734 0.6783
C14 C 0.6086(3) -0.1292(5) 0.5744(3)
C15 C 0.6615(3) 0.4388(5) 0.7075(2)
H11 H 0.6873 0.4962 0.6897
H12 H 0.6956 0.3779 0.7292
C16 C 0.6322(3) 0.5027(5) 0.7529(2)
C17 C 0.6254(3) 0.4440(5) 0.8041(3)
H13 H 0.6387 0.3634 0.8109
C18 C 0.5985(3) 0.5055(5) 0.8461(2)
H14 H 0.5928 0.4649 0.8803
C19 C 0.5803(3) 0.6240(5) 0.8376(2)
C20 C 0.5874(3) 0.6839(5) 0.7860(2)
H15 H 0.5752 0.7651 0.7803
C21 C 0.6122(3) 0.6245(5) 0.7437(2)
H16 H 0.6158 0.6648 0.7087
C22 C 0.5512(3) 0.6905(6) 0.8841(3)
N1 N 0.6102(2) 0.5747(3) 0.53520(19)
N2 N 0.7000(2) 0.4442(3) 0.5653(2)
N3 N 0.6041(2) 0.3806(4) 0.65696(18)
N4 N 0.5331(2) 0.3321(3) 0.56482(18)
O1 O 0.5640(2) -0.1556(3) 0.52293(17)
O2 O 0.6253(3) -0.1951(4) 0.6197(2)
O3 O 0.5514(3) 0.8011(4) 0.8858(2)
O4 O 0.5293(2) 0.6214(4) 0.92027(17)
Zn1 Zn 0.52264(3) 0.68457(5) 0.52713(2)
N4D N 0.4669(2) 0.6679(3) 0.43518(18)
O1_2 O 0.5640(2) 0.8444(3) 0.52293(17)
O4A O 0.4707(2) 0.6214(4) 0.57973(17)
Zn1D Zn 0.47736(3) 0.31543(5) 0.47287(2)
Zn1_2 Zn 0.52264(3) -0.31543(5) 0.52713(2)
Zn1A Zn 0.47736(3) 0.68457(5) 0.97287(2)
O5 O 0.7578(5) 0.6827(8) 0.6856(4)
H17 H 0.787(2) 0.636(4) 0.675(2)
H18 H 0.727(4) 0.703(9) 0.6514(19)
O6 O 0.5520(7) 0.9638(14) 0.6987(6)
O7 O 0.8882(10) 0.5446(19) 0.6558(9)
loop_
_geom_bond_atom_site_label_1
_geom_bond_atom_site_label_2
_geom_bond_site_symmetry_1
_geom_bond_site_symmetry_2
C1 C2 1_555 1_555
C2 N3 1_555 1_555
C3 H1 1_555 1_555
C4 C3 1_555 1_555
H2 C4 1_555 1_555
C5 H3 1_555 1_555
C6 C5 1_555 1_555
H4 C6 1_555 1_555
C7 H5 1_555 1_555
H6 C7 1_555 1_555
C8 C7 1_555 1_555
C9 C8 1_555 1_555
H7 C9 1_555 1_555
C10 C9 1_555 1_555
H8 C10 1_555 1_555
C11 C10 1_555 1_555
C12 C11 1_555 1_555
H9 C12 1_555 1_555
C13 C8 1_555 1_555
H10 C13 1_555 1_555
C14 C11 1_555 1_555
C15 H11 1_555 1_555
H12 C15 1_555 1_555
C16 C15 1_555 1_555
C17 C16 1_555 1_555
H13 C17 1_555 1_555
C18 C17 1_555 1_555
H14 C18 1_555 1_555
C19 C18 1_555 1_555
C20 C19 1_555 1_555
H15 C20 1_555 1_555
C21 C16 1_555 1_555
H16 C21 1_555 1_555
C22 C19 1_555 1_555
N1 C1 1_555 1_555
N2 C1 1_555 1_555
N3 C5 1_555 1_555
N4 C2 1_555 1_555
O1 C14 1_555 1_555
O2 C14 1_555 1_555
O3 C22 1_555 1_555
O4 C22 1_555 1_555
Zn1 N1 1_555 1_555
O5 H17 1_555 1_555
H18 O5 1_555 1_555
N4D Zn1 1_555 1_555
O1_2 Zn1 1_555 1_555
O4A Zn1 1_555 1_555
Zn1D N4 1_555 1_555
Zn1_2 O1 1_555 1_555
Zn1A O4 1_555 1_555
C3 N1 1_555 1_555
C4 N2 1_555 1_555
C6 N4 1_555 1_555
C7 N2 1_555 1_555
C12 C13 1_555 1_555
C15 N3 1_555 1_555
C20 C21 1_555 1_555

#END
