
#######################################################################
#
#                 Cambridge Crystallographic Data Centre
#                                CCDC 
#
#######################################################################
#
# If this CIF has been generated from an entry in the Cambridge 
# Structural Database, then it will include bibliographic, chemical, 
# crystal, experimental, refinement or atomic coordinate data resulting 
# from the CCDC's data processing and validation procedures.
#
#######################################################################

data_POQWAU04
_symmetry_cell_setting           monoclinic
_symmetry_space_group_name_H-M   'P 21/c'
_symmetry_Int_Tables_number      14
_space_group_name_Hall           '-P 2ybc'
loop_
_symmetry_equiv_pos_site_id
_symmetry_equiv_pos_as_xyz
1 x,y,z
2 -x,1/2+y,1/2-z
3 -x,-y,-z
4 x,1/2-y,1/2+z
_cell_length_a                   12.578(5)
_cell_length_b                   7.683(3)
_cell_length_c                   15.897(6)
_cell_angle_alpha                90
_cell_angle_beta                 106.477(7)
_cell_angle_gamma                90
_cell_volume                     1473.15
loop_
_atom_site_label
_atom_site_type_symbol
_atom_site_fract_x
_atom_site_fract_y
_atom_site_fract_z
Co1 Co 0.30410(6) 0.49156(10) 0.17816(5)
O1 O 0.3701(4) 0.2452(5) 0.1809(3)
O2 O 0.2952(4) 0.3368(5) 0.0479(3)
O3 O 0.3292(4) -0.0559(6) -0.1969(3)
O4 O 0.3717(4) -0.3364(5) -0.1701(3)
O5 O 0.1646(4) 0.3410(6) 0.2044(3)
H1 H 0.2102 0.2964 0.2495
H2 H 0.1083 0.3785 0.2184
N1 N 0.4531(4) -0.3875(6) 0.1608(3)
H3 H 0.4595 -0.4924 0.1439
H4 H 0.4627 -0.3657 0.2155
N2 N 0.1846(4) 0.6706(6) 0.1109(3)
C1 C 0.3695(5) 0.0488(7) 0.0662(4)
C2 C 0.3534(5) 0.0157(8) -0.0222(4)
H5 H 0.3284 0.1038 -0.0631
C3 C 0.3746(5) -0.1494(7) -0.0497(4)
C4 C 0.4110(5) -0.2814(7) 0.0106(4)
H6 H 0.4250 -0.3914 -0.0083
C5 C 0.4267(5) -0.2503(7) 0.0983(4)
C6 C 0.4072(5) -0.0864(7) 0.1266(4)
H7 H 0.4192 -0.0655 0.1861
C7 C 0.3428(5) 0.2201(8) 0.0987(4)
C8 C 0.3583(5) -0.1856(8) -0.1457(4)
C9 C 0.1706(7) 0.8164(10) 0.1492(5)
H8 H 0.2106 0.8330 0.2076
C10 C 0.0991(7) 0.9468(10) 0.1072(5)
H9 H 0.0935 1.0484 0.1375
C11 C 0.0376(7) 0.9289(10) 0.0231(5)
C12 C 0.0559(7) 0.7789(10) -0.0169(5)
H10 H 0.0196 0.7611 -0.0759
C13 C 0.1266(7) 0.6552(10) 0.0285(5)
H11 H 0.1343 0.5532 -0.0007
Co1C Co 0.30410(6) 0.00844(10) 0.67816(5)
Co1C_2 Co 0.30410(6) 0.00844(10) -0.32184(5)
Co1_2 Co 0.30410(6) -0.50844(10) 0.17816(5)
Co1B Co -0.30410(6) 1.50844(10) -0.17816(5)
Co1C_3 Co 0.30410(6) 1.00844(10) 0.67816(5)
O1C O 0.3701(4) 0.2548(5) 0.6809(3)
O2C O 0.2952(4) 0.1632(5) 0.5479(3)
O3C O 0.3292(4) 0.5559(6) 0.3031(3)
O3_2 O 0.3292(4) -0.0559(6) 0.8031(3)
O4C O 0.3717(4) 0.8364(5) 0.3299(3)
O5C O 0.1646(4) 0.1590(6) 0.7044(3)
H1C H 0.2102 0.2036 0.7495
H2C H 0.1083 0.1215 0.7184
N1C N 0.4531(4) 0.8875(6) 0.6608(3)
N1_2 N 0.4531(4) 0.6125(6) 0.1608(3)
N1C_2 N 0.4531(4) -0.1125(6) 0.6608(3)
H3C H 0.4595 0.9924 0.6439
H3_2 H 0.4595 0.5076 0.1439
H3C_2 H 0.4595 -0.0076 0.6439
H4C H 0.4627 0.8657 0.7155
H4_2 H 0.4627 0.6343 0.2155
H4C_2 H 0.4627 -0.1343 0.7155
N2B N -0.1846(4) 1.3294(6) -0.1109(3)
N2C N 0.1846(4) -0.1706(6) 0.6109(3)
C1C C 0.3695(5) 0.4512(7) 0.5662(4)
C2C C 0.3534(5) 0.4843(8) 0.4778(4)
H5C H 0.3284 0.3962 0.4369
C3C C 0.3746(5) 0.6494(7) 0.4503(4)
C4C C 0.4110(5) 0.7814(7) 0.5106(4)
H6C H 0.4250 0.8914 0.4917
C5C C 0.4267(5) 0.7503(7) 0.5983(4)
C6C C 0.4072(5) 0.5864(7) 0.6266(4)
H7C H 0.4192 0.5655 0.6861
C7C C 0.3428(5) 0.2799(8) 0.5987(4)
C8C C 0.3583(5) 0.6856(8) 0.3543(4)
C9B C -0.1706(7) 1.1836(10) -0.1492(5)
H8B H -0.2106 1.1670 -0.2076
C10B C -0.0991(7) 1.0532(10) -0.1072(5)
H9B H -0.0935 0.9516 -0.1375
C11B C -0.0376(7) 1.0711(10) -0.0231(5)
C12B C -0.0559(7) 1.2211(10) 0.0169(5)
H10B H -0.0196 1.2389 0.0759
C13B C -0.1266(7) 1.3448(10) -0.0285(5)
H11B H -0.1343 1.4468 0.0007
O6 O 0.2318(4) 0.1021(6) 0.3606(3)
H12 H 0.2855 0.0447 0.3520
H13 H 0.2461 0.1290 0.4145
O7 O 0.0074(7) 0.0526(14) 0.2856(7)
H14 H -0.0153 0.0652 0.2303
H15 H 0.0578 0.1270 0.3075
loop_
_geom_bond_atom_site_label_1
_geom_bond_atom_site_label_2
_geom_bond_site_symmetry_1
_geom_bond_site_symmetry_2
Co1 O1 1_555 1_555
O1 C7 1_555 1_555
O2 Co1 1_555 1_555
O3 C8 1_555 1_555
O4 C8 1_555 1_555
O5 Co1 1_555 1_555
H1 O5 1_555 1_555
H2 O5 1_555 1_555
N1 H3 1_555 1_555
H4 N1 1_555 1_555
N2 Co1 1_555 1_555
C1 C2 1_555 1_555
C2 H5 1_555 1_555
C3 C2 1_555 1_555
C4 C3 1_555 1_555
H6 C4 1_555 1_555
C5 N1 1_555 1_555
C6 C1 1_555 1_555
H7 C6 1_555 1_555
C7 O2 1_555 1_555
C8 C3 1_555 1_555
C9 N2 1_555 1_555
H8 C9 1_555 1_555
C10 C9 1_555 1_555
H9 C10 1_555 1_555
C11 C10 1_555 1_555
C12 C11 1_555 1_555
H10 C12 1_555 1_555
C13 N2 1_555 1_555
H11 C13 1_555 1_555
O6 H12 1_555 1_555
H13 O6 1_555 1_555
O7 H14 1_555 1_555
H15 O7 1_555 1_555
Co1C O1C 1_555 1_555
Co1C_2 O3 1_555 1_555
Co1_2 N1 1_555 1_555
Co1B N2B 1_555 1_555
Co1C_3 N1C 1_555 1_555
O1C C7C 1_555 1_555
O2C Co1C 1_555 1_555
O3C Co1 1_555 1_555
O3_2 Co1C 1_555 1_555
O4C C8C 1_555 1_555
O5C Co1C 1_555 1_555
H1C O5C 1_555 1_555
H2C O5C 1_555 1_555
N1C H3C 1_555 1_555
N1_2 Co1 1_555 1_555
N1C_2 Co1C 1_555 1_555
H3_2 N1_2 1_555 1_555
H3C_2 N1C_2 1_555 1_555
H4C N1C 1_555 1_555
H4_2 N1_2 1_555 1_555
H4C_2 N1C_2 1_555 1_555
N2B C9B 1_555 1_555
N2C Co1C 1_555 1_555
C1C C2C 1_555 1_555
C2C H5C 1_555 1_555
C3C C2C 1_555 1_555
C4C C3C 1_555 1_555
H6C C4C 1_555 1_555
C5C N1C 1_555 1_555
C6C C1C 1_555 1_555
H7C C6C 1_555 1_555
C7C O2C 1_555 1_555
C8C O3C 1_555 1_555
C9B H8B 1_555 1_555
C10B C9B 1_555 1_555
H9B C10B 1_555 1_555
C11B C11 1_555 1_555
C12B C11B 1_555 1_555
H10B C12B 1_555 1_555
C13B N2B 1_555 1_555
H11B C13B 1_555 1_555
C1 C7 1_555 1_555
C4 C5 1_555 1_555
C5 C6 1_555 1_555
C12 C13 1_555 1_555
C1C C7C 1_555 1_555
C3C C8C 1_555 1_555
C4C C5C 1_555 1_555
C5C C6C 1_555 1_555
C10B C11B 1_555 1_555
C12B C13B 1_555 1_555

#END
