
#######################################################################
#
#                 Cambridge Crystallographic Data Centre
#                                CCDC 
#
#######################################################################
#
# If this CIF has been generated from an entry in the Cambridge 
# Structural Database, then it will include bibliographic, chemical, 
# crystal, experimental, refinement or atomic coordinate data resulting 
# from the CCDC's data processing and validation procedures.
#
#######################################################################

data_POQWEY
_symmetry_cell_setting           monoclinic
_symmetry_space_group_name_H-M   'P 21/c'
_symmetry_Int_Tables_number      14
_space_group_name_Hall           '-P 2ybc'
loop_
_symmetry_equiv_pos_site_id
_symmetry_equiv_pos_as_xyz
1 x,y,z
2 -x,1/2+y,1/2-z
3 -x,-y,-z
4 x,1/2-y,1/2+z
_cell_length_a                   12.4813(13)
_cell_length_b                   7.6829(8)
_cell_length_c                   15.6881(16)
_cell_angle_alpha                90
_cell_angle_beta                 105.5030(10)
_cell_angle_gamma                90
_cell_volume                     1449.64
loop_
_atom_site_label
_atom_site_type_symbol
_atom_site_fract_x
_atom_site_fract_y
_atom_site_fract_z
C1 C 0.9249(4) 0.7523(6) 0.0973(3)
C2 C 0.9081(3) 0.7838(6) 0.0082(3)
H1 H 0.9202 0.8942 -0.0117
C3 C 0.8723(3) 0.6464(6) -0.0524(3)
C4 C 0.8533(4) 0.4825(6) -0.0229(3)
H2 H 0.8287 0.3927 -0.0631
C5 C 0.8713(4) 0.4529(5) 0.0673(3)
C6 C 0.9088(3) 0.5864(6) 0.1277(3)
H3 H 0.9231 0.5652 0.1880
C7 C 0.8549(3) 0.6824(6) -0.1498(3)
C8 C 0.8474(4) 0.2816(6) 0.1029(3)
C9 C 0.6262(4) 0.8456(7) 0.0294(3)
H4 H 0.6324 0.9496 0.0008
C10 C 0.5556(4) 0.7229(6) -0.0159(3)
H5 H 0.5189 0.7422 -0.0751
C11 C 0.5371(4) 0.5681(6) 0.0243(3)
C12 C 0.5922(4) 0.5716(8) 0.1046(3)
H6 H 0.5726 0.4847 0.1389
C13 C 0.6732(4) 0.6764(7) 0.1497(3)
H7 H 0.7181 0.6457 0.2051
N1 N 0.9470(3) 0.8940(5) 0.1593(2)
H8 H 0.9889 0.9740 0.1413
H9 H 0.9861 0.8541 0.2124
N2 N 0.6865(3) 0.8266(5) 0.1116(2)
Ni1 Ni 0.79978(4) 1.01330(7) 0.17237(3)
O1 O 0.8680(2) 0.8344(4) -0.17391(18)
O2 O 0.8273(2) 0.5537(4) -0.20052(19)
O3 O 0.8791(2) 0.2546(4) 0.18588(18)
O4 O 0.7928(2) 0.1639(4) 0.05323(19)
O5 O 0.6664(2) 1.1551(4) 0.20087(19)
H10 H 0.6681 1.1432 0.2551
H11 H 0.7302 1.1850 0.1964
C1C C 0.9249(4) 0.7477(6) 0.5973(3)
C2C C 0.9081(3) 0.7162(6) 0.5082(3)
H1C H 0.9202 0.6058 0.4883
C3C C 0.8723(3) 0.8536(6) 0.4476(3)
C4C C 0.8533(4) 1.0175(6) 0.4771(3)
H2C H 0.8287 1.1073 0.4369
C5C C 0.8713(4) 1.0471(5) 0.5673(3)
C6C C 0.9088(3) 0.9136(6) 0.6277(3)
H3C H 0.9231 0.9348 0.6880
C7C C 0.8549(3) 0.8176(6) 0.3502(3)
C8C C 0.8474(4) 1.2184(6) 0.6029(3)
C9B C 0.3738(4) 0.1544(7) -0.0294(3)
H4B H 0.3676 0.0504 -0.0008
C10B C 0.4444(4) 0.2771(6) 0.0159(3)
H5B H 0.4811 0.2578 0.0751
C11B C 0.4629(4) 0.4319(6) -0.0243(3)
C12B C 0.4078(4) 0.4284(8) -0.1046(3)
H6B H 0.4274 0.5153 -0.1389
C13B C 0.3268(4) 0.3236(7) -0.1497(3)
H7B H 0.2819 0.3543 -0.2051
N1C N 0.9470(3) 0.6060(5) 0.6593(2)
H8C H 0.9889 0.5260 0.6413
H9C H 0.9861 0.6459 0.7124
N2B N 0.3135(3) 0.1734(5) -0.1116(2)
N2C N 0.6865(3) 0.6734(5) 0.6116(2)
Ni1C Ni 0.79978(4) 0.48670(7) 0.67237(3)
Ni1C_2 Ni 0.79978(4) 0.48670(7) -0.32763(3)
Ni1_2 Ni 0.79978(4) 0.01330(7) 0.17237(3)
Ni1B Ni 0.20022(4) -0.01330(7) -0.17237(3)
Ni1C_3 Ni 0.79978(4) 1.48670(7) 0.67237(3)
O1C O 0.8680(2) 0.6656(4) 0.32609(18)
O2C O 0.8273(2) 0.9463(4) 0.29948(19)
O2_2 O 0.8273(2) 0.5537(4) 0.79948(19)
O3C O 0.8791(2) 1.2454(4) 0.68588(18)
O3_2 O 0.8791(2) 1.2546(4) 0.18588(18)
O3C_2 O 0.8791(2) 0.2454(4) 0.68588(18)
O4C O 0.7928(2) 1.3361(4) 0.55323(19)
O4_2 O 0.7928(2) 1.1639(4) 0.05323(19)
O4C_2 O 0.7928(2) 0.3361(4) 0.55323(19)
O5C O 0.6664(2) 0.3449(4) 0.70087(19)
H10C H 0.6681 0.3568 0.7551
H11C H 0.7302 0.3150 0.6964
O6 O 0.7317(4) 0.3980(6) 0.3615(3)
H12 H 0.6835 0.3787 0.3897
H13 H 0.7965 0.3890 0.3966
H14 H 0.5042 0.4070 0.2680
H15 H 0.6001 0.5061 0.2800
O7 O 0.5746(8) 0.4066(12) 0.2880(5)
loop_
_geom_bond_atom_site_label_1
_geom_bond_atom_site_label_2
_geom_bond_site_symmetry_1
_geom_bond_site_symmetry_2
C1 C2 1_555 1_555
C2 H1 1_555 1_555
C3 C2 1_555 1_555
C4 C3 1_555 1_555
H2 C4 1_555 1_555
C5 C4 1_555 1_555
C6 C1 1_555 1_555
H3 C6 1_555 1_555
C7 C3 1_555 1_555
C8 C5 1_555 1_555
C9 H4 1_555 1_555
C10 C9 1_555 1_555
H5 C10 1_555 1_555
C11 C10 1_555 1_555
C12 C11 1_555 1_555
H6 C12 1_555 1_555
C13 C12 1_555 1_555
H7 C13 1_555 1_555
N1 C1 1_555 1_555
H8 N1 1_555 1_555
H9 N1 1_555 1_555
N2 C9 1_555 1_555
Ni1 N1 1_555 1_555
O1 C7 1_555 1_555
O2 C7 1_555 1_555
O3 C8 1_555 1_555
O4 C8 1_555 1_555
O5 Ni1 1_555 1_555
H10 O5 1_555 1_555
H11 O5 1_555 1_555
O6 H12 1_555 1_555
H13 O6 1_555 1_555
H14 O7 1_555 1_555
H15 O7 1_555 1_555
C1C C2C 1_555 1_555
C2C H1C 1_555 1_555
C3C C2C 1_555 1_555
C4C C3C 1_555 1_555
H2C C4C 1_555 1_555
C5C C4C 1_555 1_555
C6C C1C 1_555 1_555
H3C C6C 1_555 1_555
C7C C3C 1_555 1_555
C8C C5C 1_555 1_555
C9B H4B 1_555 1_555
C10B C9B 1_555 1_555
H5B C10B 1_555 1_555
C11B C11 1_555 1_555
C12B C11B 1_555 1_555
H6B C12B 1_555 1_555
C13B C12B 1_555 1_555
H7B C13B 1_555 1_555
N1C C1C 1_555 1_555
H8C N1C 1_555 1_555
H9C N1C 1_555 1_555
N2B C9B 1_555 1_555
N2C Ni1C 1_555 1_555
Ni1C N1C 1_555 1_555
Ni1C_2 O2 1_555 1_555
Ni1_2 O3 1_555 1_555
Ni1B N2B 1_555 1_555
Ni1C_3 O3C 1_555 1_555
O1C C7C 1_555 1_555
O2C Ni1 1_555 1_555
O2_2 Ni1C 1_555 1_555
O3C C8C 1_555 1_555
O3_2 Ni1 1_555 1_555
O3C_2 Ni1C 1_555 1_555
O4C C8C 1_555 1_555
O4_2 Ni1 1_555 1_555
O4C_2 Ni1C 1_555 1_555
O5C Ni1C 1_555 1_555
H10C O5C 1_555 1_555
H11C O5C 1_555 1_555
C5 C6 1_555 1_555
C13 N2 1_555 1_555
N2 Ni1 1_555 1_555
O4 Ni1_2 1_555 1_555
C5C C6C 1_555 1_555
C7C O2C 1_555 1_555
C10B C11B 1_555 1_555
C13B N2B 1_555 1_555
Ni1C_3 O4C 1_555 1_555

#END
