
#######################################################################
#
#                 Cambridge Crystallographic Data Centre
#                                CCDC 
#
#######################################################################
#
# If this CIF has been generated from an entry in the Cambridge 
# Structural Database, then it will include bibliographic, chemical, 
# crystal, experimental, refinement or atomic coordinate data resulting 
# from the CCDC's data processing and validation procedures.
#
#######################################################################

data_POQWAU06
_symmetry_cell_setting           monoclinic
_symmetry_space_group_name_H-M   'P 21/c'
_symmetry_Int_Tables_number      14
_space_group_name_Hall           '-P 2ybc'
loop_
_symmetry_equiv_pos_site_id
_symmetry_equiv_pos_as_xyz
1 x,y,z
2 -x,1/2+y,1/2-z
3 -x,-y,-z
4 x,1/2-y,1/2+z
_cell_length_a                   12.6105(6)
_cell_length_b                   7.6858(3)
_cell_length_c                   15.9256(7)
_cell_angle_alpha                90
_cell_angle_beta                 106.5410(10)
_cell_angle_gamma                90
_cell_volume                     1479.66
loop_
_atom_site_label
_atom_site_type_symbol
_atom_site_fract_x
_atom_site_fract_y
_atom_site_fract_z
Co1 Co 0.30400(3) 0.00854(4) 0.17802(2)
O1 O 0.37286(19) -0.3360(3) 0.33008(12)
C1 C 0.40714(19) -0.0856(3) 0.62713(14)
H1 H 0.4195 -0.0635 0.6866
C2 C 0.36927(19) 0.0469(3) 0.56608(14)
N1 N 0.45305(17) -0.3887(3) 0.66169(12)
H2 H 0.4934 -0.4695 0.6437
H3 H 0.4941 -0.3467 0.7135
C3 C 0.35877(18) -0.1843(3) 0.35387(14)
O2 O 0.32983(18) -0.0558(3) 0.30328(12)
C4 C 0.37520(18) -0.1489(3) 0.44963(13)
O3 O 0.37073(17) 0.2453(2) 0.68120(11)
C5 C 0.41121(18) -0.2824(3) 0.51048(14)
H4 H 0.4251 -0.3925 0.4918
O4 O 0.16518(19) 0.1595(3) 0.20415(15)
H5 H 0.1886 0.2222 0.2518
H6 H 0.1136 0.0893 0.2111
C6 C 0.42634(18) -0.2505(3) 0.59908(13)
C7 C 0.3440(2) 0.2198(3) 0.59901(15)
N2 N 0.18485(18) -0.1706(3) 0.11048(14)
O5 O 0.29523(18) 0.3374(3) 0.54740(13)
C8 C 0.0380(2) -0.4306(4) 0.02352(18)
C9 C 0.3528(2) 0.0156(3) 0.47706(17)
H7 H 0.3272 0.1038 0.4364
C10 C 0.1739(3) -0.3202(5) 0.1481(2)
H8 H 0.2163 -0.3378 0.2057
C11 C 0.1278(4) -0.1544(6) 0.0278(2)
H9 H 0.1378 -0.0543 -0.0019
C12 C 0.1029(4) -0.4530(5) 0.1070(2)
H10 H 0.0999 -0.5565 0.1365
C13 C 0.0538(5) -0.2777(7) -0.0174(3)
H11 H 0.0145 -0.2582 -0.0756
N2B N -0.18485(18) -0.8294(3) -0.11048(14)
C8B C -0.0380(2) -0.5694(4) -0.02352(18)
C10B C -0.1739(3) -0.6798(5) -0.1481(2)
H8B H -0.2163 -0.6622 -0.2057
C11B C -0.1278(4) -0.8456(6) -0.0278(2)
H9B H -0.1378 -0.9457 0.0019
C12B C -0.1029(4) -0.5470(5) -0.1070(2)
H10B H -0.0999 -0.4435 -0.1365
C13B C -0.0538(5) -0.7223(7) 0.0174(3)
H11B H -0.0145 -0.7418 0.0756
Co1B Co -0.30400(3) -1.00854(4) -0.17802(2)
O1B O -0.37286(19) -0.6640(3) -0.33008(12)
C1B C -0.40714(19) -0.9144(3) -0.62713(14)
H1B H -0.4195 -0.9365 -0.6866
C2B C -0.36927(19) -1.0469(3) -0.56608(14)
N1B N -0.45305(17) -0.6113(3) -0.66169(12)
H2B H -0.4934 -0.5305 -0.6437
H3B H -0.4941 -0.6533 -0.7135
C3B C -0.35877(18) -0.8157(3) -0.35387(14)
O2B O -0.32983(18) -0.9442(3) -0.30328(12)
C4B C -0.37520(18) -0.8511(3) -0.44963(13)
O3B O -0.37073(17) -1.2453(2) -0.68120(11)
C5B C -0.41121(18) -0.7176(3) -0.51048(14)
H4B H -0.4251 -0.6075 -0.4918
O4B O -0.16518(19) -1.1595(3) -0.20415(15)
H5B H -0.1886 -1.2222 -0.2518
H6B H -0.1136 -1.0893 -0.2111
C6B C -0.42634(18) -0.7495(3) -0.59908(13)
C7B C -0.3440(2) -1.2198(3) -0.59901(15)
O5B O -0.29523(18) -1.3374(3) -0.54740(13)
C9B C -0.3528(2) -1.0156(3) -0.47706(17)
H7B H -0.3272 -1.1038 -0.4364
Co1A Co -0.30400(3) -1.49146(4) -0.67802(2)
Co1A_2 Co -0.30400(3) -0.49146(4) -0.67802(2)
Co1C Co 0.30400(3) -0.50854(4) 0.67802(2)
Co1C_2 Co 0.30400(3) 0.49146(4) 0.67802(2)
N1A N -0.45305(17) -0.8887(3) -0.16169(12)
N1C N 0.45305(17) -0.1113(3) 0.16169(12)
O3A O -0.37073(17) -1.2547(2) -0.18120(11)
O3C O 0.37073(17) 0.2547(2) 0.18120(11)
O5A O -0.29523(18) -1.1626(3) -0.04740(13)
O5C O 0.29523(18) 0.1626(3) 0.04740(13)
O6 O 0.2325(2) -0.6013(4) 0.36079(17)
H12 H 0.2776 -0.5247 0.3534
H13 H 0.2439 -0.6199 0.4153
O7 O -0.0098(6) -0.0409(15) 0.2157(6)
H14 H -0.0786 -0.0349 0.1893
H15 H -0.0008 -0.0640 0.2694
loop_
_geom_bond_atom_site_label_1
_geom_bond_atom_site_label_2
_geom_bond_site_symmetry_1
_geom_bond_site_symmetry_2
Co1 O2 1_555 1_555
O1 C3 1_555 1_555
C1 H1 1_555 1_555
C2 C1 1_555 1_555
N1 H2 1_555 1_555
H3 N1 1_555 1_555
C3 O2 1_555 1_555
C4 C3 1_555 1_555
O3 C7 1_555 1_555
C5 C4 1_555 1_555
H4 C5 1_555 1_555
O4 Co1 1_555 1_555
H5 O4 1_555 1_555
H6 O4 1_555 1_555
C6 C1 1_555 1_555
C7 C2 1_555 1_555
N2 Co1 1_555 1_555
O5 C7 1_555 1_555
C8 C12 1_555 1_555
C9 C2 1_555 1_555
H7 C9 1_555 1_555
C10 N2 1_555 1_555
H8 C10 1_555 1_555
C11 N2 1_555 1_555
H9 C11 1_555 1_555
C12 C10 1_555 1_555
H10 C12 1_555 1_555
C13 C8 1_555 1_555
H11 C13 1_555 1_555
O6 H12 1_555 1_555
H13 O6 1_555 1_555
O7 H14 1_555 1_555
H15 O7 1_555 1_555
N2B C10B 1_555 1_555
C8B C8 1_555 1_555
C10B H8B 1_555 1_555
C11B N2B 1_555 1_555
H9B C11B 1_555 1_555
C12B C8B 1_555 1_555
H10B C12B 1_555 1_555
C13B C8B 1_555 1_555
H11B C13B 1_555 1_555
Co1B N2B 1_555 1_555
O1B C3B 1_555 1_555
C1B H1B 1_555 1_555
C2B C1B 1_555 1_555
N1B H2B 1_555 1_555
H3B N1B 1_555 1_555
C3B O2B 1_555 1_555
O2B Co1B 1_555 1_555
C4B C3B 1_555 1_555
O3B C7B 1_555 1_555
C5B C4B 1_555 1_555
H4B C5B 1_555 1_555
O4B Co1B 1_555 1_555
H5B O4B 1_555 1_555
H6B O4B 1_555 1_555
C6B C1B 1_555 1_555
C7B C2B 1_555 1_555
O5B C7B 1_555 1_555
C9B C2B 1_555 1_555
H7B C9B 1_555 1_555
Co1A O3B 1_555 1_555
Co1A_2 N1B 1_555 1_555
Co1C N1 1_555 1_555
Co1C_2 O3 1_555 1_555
N1A Co1B 1_555 1_555
N1C Co1 1_555 1_555
O3A Co1B 1_555 1_555
O3C Co1 1_555 1_555
O5A Co1B 1_555 1_555
O5C Co1 1_555 1_555
N1 C6 1_555 1_555
C4 C9 1_555 1_555
C5 C6 1_555 1_555
O5 Co1C_2 1_555 1_555
C11 C13 1_555 1_555
C10B C12B 1_555 1_555
C11B C13B 1_555 1_555
N1B C6B 1_555 1_555
C4B C9B 1_555 1_555
C5B C6B 1_555 1_555
O5B Co1A 1_555 1_555

#END
