
#######################################################################
#
#                 Cambridge Crystallographic Data Centre
#                                CCDC 
#
#######################################################################
#
# If this CIF has been generated from an entry in the Cambridge 
# Structural Database, then it will include bibliographic, chemical, 
# crystal, experimental, refinement or atomic coordinate data resulting 
# from the CCDC's data processing and validation procedures.
#
#######################################################################

data_POQWAU05
_symmetry_cell_setting           monoclinic
_symmetry_space_group_name_H-M   'P 21/c'
_symmetry_Int_Tables_number      14
_space_group_name_Hall           '-P 2ybc'
loop_
_symmetry_equiv_pos_site_id
_symmetry_equiv_pos_as_xyz
1 x,y,z
2 -x,1/2+y,1/2-z
3 -x,-y,-z
4 x,1/2-y,1/2+z
_cell_length_a                   12.5619(19)
_cell_length_b                   7.6752(12)
_cell_length_c                   15.897(2)
_cell_angle_alpha                90
_cell_angle_beta                 106.480(3)
_cell_angle_gamma                90
_cell_volume                     1469.75
loop_
_atom_site_label
_atom_site_type_symbol
_atom_site_fract_x
_atom_site_fract_y
_atom_site_fract_z
Co1 Co 0.30373(5) 0.49116(8) 0.17843(4)
O1 O 0.3696(3) 0.2456(4) 0.1814(2)
O2 O 0.2950(3) 0.3372(4) 0.0477(2)
O3 O 0.3295(3) -0.0547(4) -0.19619(19)
O4 O 0.3730(3) -0.3353(4) -0.1700(2)
O5 O 0.1641(3) 0.3399(5) 0.2052(2)
H1 H 0.2097 0.2953 0.2503
H2 H 0.1078 0.3774 0.2192
N1 N 0.4530(3) -0.3885(5) 0.1619(2)
H3 H 0.4566 -0.3685 0.2158
H4 H 0.4655 -0.4915 0.1457
N2 N 0.1847(3) 0.6706(5) 0.1112(2)
C1 C 0.3690(4) 0.0478(5) 0.0668(3)
C2 C 0.3531(4) 0.0156(6) -0.0225(3)
H5 H 0.3281 0.1041 -0.0632
C3 C 0.3745(4) -0.1483(6) -0.0500(3)
C4 C 0.4110(4) -0.2814(6) 0.0104(3)
H6 H 0.4253 -0.3913 -0.0085
C5 C 0.4261(4) -0.2504(6) 0.0991(3)
C6 C 0.4061(4) -0.0853(6) 0.1264(3)
H7 H 0.4180 -0.0636 0.1859
C7 C 0.3435(4) 0.2196(6) 0.0992(3)
C8 C 0.3591(4) -0.1848(6) -0.1462(3)
C9 C 0.1721(5) 0.8182(8) 0.1489(3)
H8 H 0.2138 0.8358 0.2068
C10 C 0.1001(5) 0.9495(8) 0.1076(4)
H9 H 0.0948 1.0512 0.1379
C11 C 0.0377(5) 0.9303(7) 0.0234(3)
C12 C 0.0539(6) 0.7778(8) -0.0167(4)
H10 H 0.0150 0.7582 -0.0751
C13 C 0.1270(6) 0.6544(8) 0.0286(4)
H11 H 0.1361 0.5533 -0.0009
Co1C Co 0.30373(5) 0.00884(8) 0.67843(4)
Co1C_2 Co 0.30373(5) 0.00884(8) -0.32157(4)
Co1_2 Co 0.30373(5) -0.50884(8) 0.17843(4)
Co1B Co -0.30373(5) 1.50884(8) -0.17843(4)
Co1C_3 Co 0.30373(5) 1.00884(8) 0.67843(4)
O1C O 0.3696(3) 0.2544(4) 0.6814(2)
O2C O 0.2950(3) 0.1628(4) 0.5477(2)
O3C O 0.3295(3) 0.5547(4) 0.30381(19)
O3_2 O 0.3295(3) -0.0547(4) 0.80381(19)
O4C O 0.3730(3) 0.8353(4) 0.3300(2)
O5C O 0.1641(3) 0.1601(5) 0.7052(2)
H1C H 0.2097 0.2047 0.7503
H2C H 0.1078 0.1226 0.7192
N1C N 0.4530(3) 0.8885(5) 0.6619(2)
N1_2 N 0.4530(3) 0.6115(5) 0.1619(2)
N1C_2 N 0.4530(3) -0.1115(5) 0.6619(2)
H3C H 0.4566 0.8685 0.7158
H3_2 H 0.4566 0.6315 0.2158
H3C_2 H 0.4566 -0.1315 0.7158
H4C H 0.4655 0.9915 0.6457
H4_2 H 0.4655 0.5085 0.1457
H4C_2 H 0.4655 -0.0085 0.6457
N2B N -0.1847(3) 1.3294(5) -0.1112(2)
N2C N 0.1847(3) -0.1706(5) 0.6112(2)
C1C C 0.3690(4) 0.4522(5) 0.5668(3)
C2C C 0.3531(4) 0.4844(6) 0.4775(3)
H5C H 0.3281 0.3959 0.4368
C3C C 0.3745(4) 0.6483(6) 0.4500(3)
C4C C 0.4110(4) 0.7814(6) 0.5104(3)
H6C H 0.4253 0.8913 0.4915
C5C C 0.4261(4) 0.7504(6) 0.5991(3)
C6C C 0.4061(4) 0.5853(6) 0.6264(3)
H7C H 0.4180 0.5636 0.6859
C7C C 0.3435(4) 0.2804(6) 0.5992(3)
C8C C 0.3591(4) 0.6848(6) 0.3538(3)
C9B C -0.1721(5) 1.1818(8) -0.1489(3)
H8B H -0.2138 1.1642 -0.2068
C10B C -0.1001(5) 1.0505(8) -0.1076(4)
H9B H -0.0948 0.9488 -0.1379
C11B C -0.0377(5) 1.0697(7) -0.0234(3)
C12B C -0.0539(6) 1.2222(8) 0.0167(4)
H10B H -0.0150 1.2418 0.0751
C13B C -0.1270(6) 1.3456(8) -0.0286(4)
H11B H -0.1361 1.4467 0.0009
O6 O 0.2318(4) 0.1005(5) 0.3603(3)
H12 H 0.2855 0.0431 0.3518
H13 H 0.2461 0.1274 0.4142
O7 O 0.0099(8) 0.0420(14) 0.2861(6)
H14 H -0.0127 0.0546 0.2308
H15 H 0.0603 0.1164 0.3080
loop_
_geom_bond_atom_site_label_1
_geom_bond_atom_site_label_2
_geom_bond_site_symmetry_1
_geom_bond_site_symmetry_2
Co1 O1 1_555 1_555
O1 C7 1_555 1_555
O2 Co1 1_555 1_555
O3 C8 1_555 1_555
O4 C8 1_555 1_555
O5 Co1 1_555 1_555
H1 O5 1_555 1_555
H2 O5 1_555 1_555
N1 H3 1_555 1_555
H4 N1 1_555 1_555
N2 Co1 1_555 1_555
C1 C2 1_555 1_555
C2 H5 1_555 1_555
C3 C2 1_555 1_555
C4 C3 1_555 1_555
H6 C4 1_555 1_555
C5 N1 1_555 1_555
C6 C1 1_555 1_555
H7 C6 1_555 1_555
C7 O2 1_555 1_555
C8 C3 1_555 1_555
C9 N2 1_555 1_555
H8 C9 1_555 1_555
C10 C9 1_555 1_555
H9 C10 1_555 1_555
C11 C10 1_555 1_555
C12 C11 1_555 1_555
H10 C12 1_555 1_555
C13 N2 1_555 1_555
H11 C13 1_555 1_555
O6 H12 1_555 1_555
H13 O6 1_555 1_555
O7 H14 1_555 1_555
H15 O7 1_555 1_555
Co1C O1C 1_555 1_555
Co1C_2 O3 1_555 1_555
Co1_2 N1 1_555 1_555
Co1B N2B 1_555 1_555
Co1C_3 N1C 1_555 1_555
O1C C7C 1_555 1_555
O2C Co1C 1_555 1_555
O3C Co1 1_555 1_555
O3_2 Co1C 1_555 1_555
O4C C8C 1_555 1_555
O5C Co1C 1_555 1_555
H1C O5C 1_555 1_555
H2C O5C 1_555 1_555
N1C H3C 1_555 1_555
N1_2 Co1 1_555 1_555
N1C_2 Co1C 1_555 1_555
H3_2 N1_2 1_555 1_555
H3C_2 N1C_2 1_555 1_555
H4C N1C 1_555 1_555
H4_2 N1_2 1_555 1_555
H4C_2 N1C_2 1_555 1_555
N2B C9B 1_555 1_555
N2C Co1C 1_555 1_555
C1C C2C 1_555 1_555
C2C H5C 1_555 1_555
C3C C2C 1_555 1_555
C4C C3C 1_555 1_555
H6C C4C 1_555 1_555
C5C N1C 1_555 1_555
C6C C1C 1_555 1_555
H7C C6C 1_555 1_555
C7C O2C 1_555 1_555
C8C O3C 1_555 1_555
C9B H8B 1_555 1_555
C10B C9B 1_555 1_555
H9B C10B 1_555 1_555
C11B C11 1_555 1_555
C12B C11B 1_555 1_555
H10B C12B 1_555 1_555
C13B N2B 1_555 1_555
H11B C13B 1_555 1_555
C1 C7 1_555 1_555
C4 C5 1_555 1_555
C5 C6 1_555 1_555
C12 C13 1_555 1_555
C1C C7C 1_555 1_555
C3C C8C 1_555 1_555
C4C C5C 1_555 1_555
C5C C6C 1_555 1_555
C10B C11B 1_555 1_555
C12B C13B 1_555 1_555

#END
