
#######################################################################
#
#                 Cambridge Crystallographic Data Centre
#                                CCDC 
#
#######################################################################
#
# If this CIF has been generated from an entry in the Cambridge 
# Structural Database, then it will include bibliographic, chemical, 
# crystal, experimental, refinement or atomic coordinate data resulting 
# from the CCDC's data processing and validation procedures.
#
#######################################################################

data_POQWAU03
_symmetry_cell_setting           monoclinic
_symmetry_space_group_name_H-M   'P 21/c'
_symmetry_Int_Tables_number      14
_space_group_name_Hall           '-P 2ybc'
loop_
_symmetry_equiv_pos_site_id
_symmetry_equiv_pos_as_xyz
1 x,y,z
2 -x,1/2+y,1/2-z
3 -x,-y,-z
4 x,1/2-y,1/2+z
_cell_length_a                   12.646(3)
_cell_length_b                   7.6551(19)
_cell_length_c                   15.904(4)
_cell_angle_alpha                90
_cell_angle_beta                 106.776(4)
_cell_angle_gamma                90
_cell_volume                     1474.08
loop_
_atom_site_label
_atom_site_type_symbol
_atom_site_fract_x
_atom_site_fract_y
_atom_site_fract_z
Co1 Co 0.30482(5) 0.49272(8) 0.17828(4)
O1 O 0.3681(3) 0.2456(4) 0.1805(2)
O2 O 0.2953(3) 0.3388(4) 0.0469(2)
O3 O 0.3311(3) -0.0543(4) -0.1965(2)
O4 O 0.3750(3) -0.3339(4) -0.1695(2)
O5 O 0.1651(3) 0.3414(5) 0.2057(3)
H1 H 0.2107 0.2968 0.2508
H2 H 0.1088 0.3789 0.2197
N1 N 0.4538(3) -0.3871(5) 0.1617(2)
H3 H 0.4578 -0.3674 0.2158
H4 H 0.4665 -0.4902 0.1454
N2 N 0.1866(3) 0.6716(5) 0.1112(3)
C1 C 0.3693(4) 0.0483(5) 0.0671(3)
C2 C 0.3535(4) 0.0167(6) -0.0225(3)
H5 H 0.3280 0.1054 -0.0633
C3 C 0.3759(4) -0.1474(6) -0.0500(3)
C4 C 0.4114(4) -0.2797(6) 0.0108(3)
H6 H 0.4253 -0.3900 -0.0081
C5 C 0.4265(4) -0.2502(6) 0.0997(3)
C6 C 0.4064(4) -0.0854(6) 0.1266(3)
H7 H 0.4180 -0.0639 0.1862
C7 C 0.3420(4) 0.2212(6) 0.0985(3)
C8 C 0.3602(4) -0.1834(6) -0.1460(3)
C9 C 0.1733(5) 0.8198(8) 0.1485(4)
H8 H 0.2144 0.8383 0.2065
C10 C 0.1018(5) 0.9494(8) 0.1064(4)
H9 H 0.0976 1.0522 0.1364
C11 C 0.0383(4) 0.9312(7) 0.0233(4)
C12 C 0.0539(7) 0.7789(9) -0.0156(4)
H10 H 0.0143 0.7588 -0.0739
C13 C 0.1265(6) 0.6542(8) 0.0290(4)
H11 H 0.1336 0.5519 -0.0005
Co1C Co 0.30482(5) 0.00728(8) 0.67828(4)
Co1C_2 Co 0.30482(5) 0.00728(8) -0.32172(4)
Co1_2 Co 0.30482(5) -0.50728(8) 0.17828(4)
Co1B Co -0.30482(5) 1.50728(8) -0.17828(4)
Co1C_3 Co 0.30482(5) 1.00728(8) 0.67828(4)
O1C O 0.3681(3) 0.2544(4) 0.6805(2)
O2C O 0.2953(3) 0.1612(4) 0.5469(2)
O3C O 0.3311(3) 0.5543(4) 0.3035(2)
O3_2 O 0.3311(3) -0.0543(4) 0.8035(2)
O4C O 0.3750(3) 0.8339(4) 0.3305(2)
O5C O 0.1651(3) 0.1586(5) 0.7057(3)
H1C H 0.2107 0.2032 0.7508
H2C H 0.1088 0.1211 0.7197
N1C N 0.4538(3) 0.8871(5) 0.6617(2)
N1_2 N 0.4538(3) 0.6129(5) 0.1617(2)
N1C_2 N 0.4538(3) -0.1129(5) 0.6617(2)
H3C H 0.4578 0.8674 0.7158
H3_2 H 0.4578 0.6326 0.2158
H3C_2 H 0.4578 -0.1326 0.7158
H4C H 0.4665 0.9902 0.6454
H4_2 H 0.4665 0.5098 0.1454
H4C_2 H 0.4665 -0.0098 0.6454
N2B N -0.1866(3) 1.3284(5) -0.1112(3)
N2C N 0.1866(3) -0.1716(5) 0.6112(3)
C1C C 0.3693(4) 0.4517(5) 0.5671(3)
C2C C 0.3535(4) 0.4833(6) 0.4775(3)
H5C H 0.3280 0.3946 0.4367
C3C C 0.3759(4) 0.6474(6) 0.4500(3)
C4C C 0.4114(4) 0.7797(6) 0.5108(3)
H6C H 0.4253 0.8900 0.4919
C5C C 0.4265(4) 0.7502(6) 0.5997(3)
C6C C 0.4064(4) 0.5854(6) 0.6266(3)
H7C H 0.4180 0.5639 0.6862
C7C C 0.3420(4) 0.2788(6) 0.5985(3)
C8C C 0.3602(4) 0.6834(6) 0.3540(3)
C9B C -0.1733(5) 1.1802(8) -0.1485(4)
H8B H -0.2144 1.1617 -0.2065
C10B C -0.1018(5) 1.0506(8) -0.1064(4)
H9B H -0.0976 0.9478 -0.1364
C11B C -0.0383(4) 1.0688(7) -0.0233(4)
C12B C -0.0539(7) 1.2211(9) 0.0156(4)
H10B H -0.0143 1.2412 0.0739
C13B C -0.1265(6) 1.3458(8) -0.0290(4)
H11B H -0.1336 1.4481 0.0005
O6 O 0.2344(3) 0.0991(5) 0.3597(3)
H12 H 0.2881 0.0417 0.3511
H13 H 0.2487 0.1260 0.4136
O7 O 0.0102(7) 0.0354(12) 0.2871(6)
H14 H -0.0125 0.0479 0.2318
H15 H 0.0605 0.1097 0.3090
loop_
_geom_bond_atom_site_label_1
_geom_bond_atom_site_label_2
_geom_bond_site_symmetry_1
_geom_bond_site_symmetry_2
Co1 O1 1_555 1_555
O1 C7 1_555 1_555
O2 Co1 1_555 1_555
O3 C8 1_555 1_555
O4 C8 1_555 1_555
O5 Co1 1_555 1_555
H1 O5 1_555 1_555
H2 O5 1_555 1_555
N1 H3 1_555 1_555
H4 N1 1_555 1_555
N2 Co1 1_555 1_555
C1 C2 1_555 1_555
C2 H5 1_555 1_555
C3 C2 1_555 1_555
C4 C3 1_555 1_555
H6 C4 1_555 1_555
C5 N1 1_555 1_555
C6 C1 1_555 1_555
H7 C6 1_555 1_555
C7 O2 1_555 1_555
C8 C3 1_555 1_555
C9 N2 1_555 1_555
H8 C9 1_555 1_555
C10 C9 1_555 1_555
H9 C10 1_555 1_555
C11 C10 1_555 1_555
C12 C11 1_555 1_555
H10 C12 1_555 1_555
C13 N2 1_555 1_555
H11 C13 1_555 1_555
O6 H12 1_555 1_555
H13 O6 1_555 1_555
O7 H14 1_555 1_555
H15 O7 1_555 1_555
Co1C O1C 1_555 1_555
Co1C_2 O3 1_555 1_555
Co1_2 N1 1_555 1_555
Co1B N2B 1_555 1_555
Co1C_3 N1C 1_555 1_555
O1C C7C 1_555 1_555
O2C Co1C 1_555 1_555
O3C Co1 1_555 1_555
O3_2 Co1C 1_555 1_555
O4C C8C 1_555 1_555
O5C Co1C 1_555 1_555
H1C O5C 1_555 1_555
H2C O5C 1_555 1_555
N1C H3C 1_555 1_555
N1_2 Co1 1_555 1_555
N1C_2 Co1C 1_555 1_555
H3_2 N1_2 1_555 1_555
H3C_2 N1C_2 1_555 1_555
H4C N1C 1_555 1_555
H4_2 N1_2 1_555 1_555
H4C_2 N1C_2 1_555 1_555
N2B C9B 1_555 1_555
N2C Co1C 1_555 1_555
C1C C2C 1_555 1_555
C2C H5C 1_555 1_555
C3C C2C 1_555 1_555
C4C C3C 1_555 1_555
H6C C4C 1_555 1_555
C5C N1C 1_555 1_555
C6C C1C 1_555 1_555
H7C C6C 1_555 1_555
C7C O2C 1_555 1_555
C8C O3C 1_555 1_555
C9B H8B 1_555 1_555
C10B C9B 1_555 1_555
H9B C10B 1_555 1_555
C11B C11 1_555 1_555
C12B C11B 1_555 1_555
H10B C12B 1_555 1_555
C13B N2B 1_555 1_555
H11B C13B 1_555 1_555
C1 C7 1_555 1_555
C4 C5 1_555 1_555
C5 C6 1_555 1_555
C12 C13 1_555 1_555
C1C C7C 1_555 1_555
C3C C8C 1_555 1_555
C4C C5C 1_555 1_555
C5C C6C 1_555 1_555
C10B C11B 1_555 1_555
C12B C13B 1_555 1_555

#END
