
#######################################################################
#
#                 Cambridge Crystallographic Data Centre
#                                CCDC 
#
#######################################################################
#
# If this CIF has been generated from an entry in the Cambridge 
# Structural Database, then it will include bibliographic, chemical, 
# crystal, experimental, refinement or atomic coordinate data resulting 
# from the CCDC's data processing and validation procedures.
#
#######################################################################

data_POQWAU02
_symmetry_cell_setting           monoclinic
_symmetry_space_group_name_H-M   'P 21/c'
_symmetry_Int_Tables_number      14
_space_group_name_Hall           '-P 2ybc'
loop_
_symmetry_equiv_pos_site_id
_symmetry_equiv_pos_as_xyz
1 x,y,z
2 -x,1/2+y,1/2-z
3 -x,-y,-z
4 x,1/2-y,1/2+z
_cell_length_a                   12.642(5)
_cell_length_b                   7.777(3)
_cell_length_c                   16.043(6)
_cell_angle_alpha                90
_cell_angle_beta                 106.181(7)
_cell_angle_gamma                90
_cell_volume                     1514.81
loop_
_atom_site_label
_atom_site_type_symbol
_atom_site_fract_x
_atom_site_fract_y
_atom_site_fract_z
Co1 Co 0.30293(15) 0.4885(2) 0.17745(11)
O1 O 0.3735(8) 0.2446(11) 0.1816(6)
O2 O 0.2954(9) 0.3362(12) 0.0479(6)
O3 O 0.3286(8) -0.0579(11) -0.1972(6)
O4 O 0.3689(8) -0.3396(12) -0.1709(6)
O5 O 0.1652(9) 0.3383(12) 0.2039(6)
H1 H 0.2108 0.2937 0.2490
H2 H 0.1089 0.3757 0.2179
N1 N 0.4533(9) -0.3910(13) 0.1619(7)
H3 H 0.4573 -0.3720 0.2168
H4 H 0.4657 -0.4947 0.1448
N2 N 0.1833(10) 0.6661(15) 0.1106(7)
C1 C 0.3684(11) 0.0487(16) 0.0658(8)
C2 C 0.3523(10) 0.0124(18) -0.0231(8)
H5 H 0.3260 0.1003 -0.0649
C3 C 0.3745(12) -0.1514(17) -0.0508(9)
C4 C 0.4109(12) -0.2860(16) 0.0098(8)
H6 H 0.4249 -0.3973 -0.0091
C5 C 0.4263(11) -0.2520(16) 0.0999(8)
C6 C 0.4067(11) -0.0881(17) 0.1266(8)
H7 H 0.4189 -0.0661 0.1868
C7 C 0.3446(13) 0.2176(18) 0.0983(8)
C8 C 0.3566(11) -0.1874(16) -0.1463(8)
C9 C 0.1707(19) 0.817(3) 0.1476(11)
H8 H 0.2121 0.8346 0.2061
C10 C 0.1000(18) 0.950(3) 0.1055(11)
H9 H 0.0965 1.0542 0.1355
C11 C 0.0372(13) 0.9307(19) 0.0224(9)
C12 C 0.0543(18) 0.778(3) -0.0160(13)
H10 H 0.0153 0.7583 -0.0750
C13 C 0.1248(18) 0.653(2) 0.0272(11)
H11 H 0.1326 0.5516 -0.0035
Co1C Co 0.30293(15) 0.0115(2) 0.67745(11)
Co1C_2 Co 0.30293(15) 0.0115(2) -0.32255(11)
Co1_2 Co 0.30293(15) -0.5115(2) 0.17745(11)
Co1B Co -0.30293(15) 1.5115(2) -0.17745(11)
Co1C_3 Co 0.30293(15) 1.0115(2) 0.67745(11)
O1C O 0.3735(8) 0.2554(11) 0.6816(6)
O2C O 0.2954(9) 0.1638(12) 0.5479(6)
O3C O 0.3286(8) 0.5579(11) 0.3028(6)
O3_2 O 0.3286(8) -0.0579(11) 0.8028(6)
O4C O 0.3689(8) 0.8396(12) 0.3291(6)
O5C O 0.1652(9) 0.1617(12) 0.7039(6)
H1C H 0.2108 0.2063 0.7490
H2C H 0.1089 0.1243 0.7179
N1C N 0.4533(9) 0.8910(13) 0.6619(7)
N1_2 N 0.4533(9) 0.6090(13) 0.1619(7)
N1C_2 N 0.4533(9) -0.1090(13) 0.6619(7)
H3C H 0.4573 0.8720 0.7168
H3_2 H 0.4573 0.6280 0.2168
H3C_2 H 0.4573 -0.1280 0.7168
H4C H 0.4657 0.9947 0.6448
H4_2 H 0.4657 0.5053 0.1448
H4C_2 H 0.4657 -0.0053 0.6448
N2B N -0.1833(10) 1.3339(15) -0.1106(7)
N2C N 0.1833(10) -0.1661(15) 0.6106(7)
C1C C 0.3684(11) 0.4513(16) 0.5658(8)
C2C C 0.3523(10) 0.4876(18) 0.4769(8)
H5C H 0.3260 0.3997 0.4351
C3C C 0.3745(12) 0.6514(17) 0.4492(9)
C4C C 0.4109(12) 0.7860(16) 0.5098(8)
H6C H 0.4249 0.8973 0.4909
C5C C 0.4263(11) 0.7520(16) 0.5999(8)
C6C C 0.4067(11) 0.5881(17) 0.6266(8)
H7C H 0.4189 0.5661 0.6868
C7C C 0.3446(13) 0.2824(18) 0.5983(8)
C8C C 0.3566(11) 0.6874(16) 0.3537(8)
C9B C -0.1707(19) 1.183(3) -0.1476(11)
H8B H -0.2121 1.1654 -0.2061
C10B C -0.1000(18) 1.050(3) -0.1055(11)
H9B H -0.0965 0.9458 -0.1355
C11B C -0.0372(13) 1.0693(19) -0.0224(9)
C12B C -0.0543(18) 1.222(3) 0.0160(13)
H10B H -0.0153 1.2417 0.0750
C13B C -0.1248(18) 1.347(2) -0.0272(11)
H11B H -0.1326 1.4484 0.0035
O6 O 0.2309(9) 0.1047(13) 0.3612(6)
H12 H 0.2845 0.0473 0.3526
H13 H 0.2451 0.1316 0.4151
O7 O 0.0092(17) 0.036(3) 0.2845(12)
H14 H -0.0134 0.0481 0.2292
H15 H 0.0596 0.1100 0.3064
loop_
_geom_bond_atom_site_label_1
_geom_bond_atom_site_label_2
_geom_bond_site_symmetry_1
_geom_bond_site_symmetry_2
Co1 O1 1_555 1_555
O1 C7 1_555 1_555
O2 Co1 1_555 1_555
O3 C8 1_555 1_555
O4 C8 1_555 1_555
O5 Co1 1_555 1_555
H1 O5 1_555 1_555
H2 O5 1_555 1_555
N1 H3 1_555 1_555
H4 N1 1_555 1_555
N2 Co1 1_555 1_555
C1 C2 1_555 1_555
C2 H5 1_555 1_555
C3 C2 1_555 1_555
C4 C3 1_555 1_555
H6 C4 1_555 1_555
C5 N1 1_555 1_555
C6 C1 1_555 1_555
H7 C6 1_555 1_555
C7 O2 1_555 1_555
C8 C3 1_555 1_555
C9 N2 1_555 1_555
H8 C9 1_555 1_555
C10 C9 1_555 1_555
H9 C10 1_555 1_555
C11 C10 1_555 1_555
C12 C11 1_555 1_555
H10 C12 1_555 1_555
C13 N2 1_555 1_555
H11 C13 1_555 1_555
O6 H12 1_555 1_555
H13 O6 1_555 1_555
O7 H14 1_555 1_555
H15 O7 1_555 1_555
Co1C O1C 1_555 1_555
Co1C_2 O3 1_555 1_555
Co1_2 N1 1_555 1_555
Co1B N2B 1_555 1_555
Co1C_3 N1C 1_555 1_555
O1C C7C 1_555 1_555
O2C Co1C 1_555 1_555
O3C Co1 1_555 1_555
O3_2 Co1C 1_555 1_555
O4C C8C 1_555 1_555
O5C Co1C 1_555 1_555
H1C O5C 1_555 1_555
H2C O5C 1_555 1_555
N1C H3C 1_555 1_555
N1_2 Co1 1_555 1_555
N1C_2 Co1C 1_555 1_555
H3_2 N1_2 1_555 1_555
H3C_2 N1C_2 1_555 1_555
H4C N1C 1_555 1_555
H4_2 N1_2 1_555 1_555
H4C_2 N1C_2 1_555 1_555
N2B C9B 1_555 1_555
N2C Co1C 1_555 1_555
C1C C2C 1_555 1_555
C2C H5C 1_555 1_555
C3C C2C 1_555 1_555
C4C C3C 1_555 1_555
H6C C4C 1_555 1_555
C5C N1C 1_555 1_555
C6C C1C 1_555 1_555
H7C C6C 1_555 1_555
C7C O2C 1_555 1_555
C8C O3C 1_555 1_555
C9B H8B 1_555 1_555
C10B C9B 1_555 1_555
H9B C10B 1_555 1_555
C11B C11 1_555 1_555
C12B C11B 1_555 1_555
H10B C12B 1_555 1_555
C13B N2B 1_555 1_555
H11B C13B 1_555 1_555
C1 C7 1_555 1_555
C4 C5 1_555 1_555
C5 C6 1_555 1_555
C12 C13 1_555 1_555
C1C C7C 1_555 1_555
C3C C8C 1_555 1_555
C4C C5C 1_555 1_555
C5C C6C 1_555 1_555
C10B C11B 1_555 1_555
C12B C13B 1_555 1_555

#END
