
#######################################################################
#
#                 Cambridge Crystallographic Data Centre
#                                CCDC 
#
#######################################################################
#
# If this CIF has been generated from an entry in the Cambridge 
# Structural Database, then it will include bibliographic, chemical, 
# crystal, experimental, refinement or atomic coordinate data resulting 
# from the CCDC's data processing and validation procedures.
#
#######################################################################

data_POQWAU01
_symmetry_cell_setting           monoclinic
_symmetry_space_group_name_H-M   'P 21/c'
_symmetry_Int_Tables_number      14
_space_group_name_Hall           '-P 2ybc'
loop_
_symmetry_equiv_pos_site_id
_symmetry_equiv_pos_as_xyz
1 x,y,z
2 -x,1/2+y,1/2-z
3 -x,-y,-z
4 x,1/2-y,1/2+z
_cell_length_a                   12.5918(11)
_cell_length_b                   7.6860(7)
_cell_length_c                   15.9149(15)
_cell_angle_alpha                90
_cell_angle_beta                 106.532(7)
_cell_angle_gamma                90
_cell_volume                     1476.58
loop_
_atom_site_label
_atom_site_type_symbol
_atom_site_fract_x
_atom_site_fract_y
_atom_site_fract_z
Co1 Co 0.30425(6) 0.49206(10) 0.17824(4)
O1 O 0.3697(3) 0.2456(5) 0.1806(2)
O2 O 0.2951(3) 0.3382(5) 0.0475(3)
O3 O 0.3294(3) -0.0545(5) -0.1969(2)
O4 O 0.3724(3) -0.3350(5) -0.1700(2)
O5 O 0.1645(4) 0.3413(5) 0.2044(3)
H1 H 0.2101 0.2967 0.2495
H2 H 0.1082 0.3788 0.2185
N1 N 0.4540(4) -0.3874(6) 0.1613(3)
H3 H 0.4589 -0.3673 0.2154
H4 H 0.4660 -0.4904 0.1450
N2 N 0.1853(4) 0.6705(6) 0.1104(3)
C1 C 0.3686(4) 0.0481(7) 0.0657(3)
C2 C 0.3530(4) 0.0152(7) -0.0222(3)
H5 H 0.3273 0.1033 -0.0630
C3 C 0.3752(4) -0.1483(7) -0.0505(3)
C4 C 0.4105(4) -0.2805(7) 0.0105(3)
H6 H 0.4241 -0.3908 -0.0082
C5 C 0.4258(4) -0.2503(7) 0.0988(3)
C6 C 0.4070(4) -0.0869(7) 0.1270(3)
H7 H 0.4196 -0.0655 0.1865
C7 C 0.3430(5) 0.2206(7) 0.0992(4)
C8 C 0.3598(5) -0.1840(8) -0.1465(3)
C9 C 0.1710(6) 0.8184(9) 0.1487(4)
H8 H 0.2114 0.8347 0.2069
C10 C 0.1000(6) 0.9502(9) 0.1078(4)
H9 H 0.0946 1.0516 0.1382
C11 C 0.0378(5) 0.9310(8) 0.0228(4)
C12 C 0.0543(7) 0.7791(10) -0.0170(5)
H10 H 0.0157 0.7599 -0.0754
C13 C 0.1275(7) 0.6541(9) 0.0283(5)
H11 H 0.1360 0.5530 -0.0011
Co1C Co 0.30425(6) 0.00794(10) 0.67824(4)
Co1C_2 Co 0.30425(6) 0.00794(10) -0.32176(4)
Co1_2 Co 0.30425(6) -0.50794(10) 0.17824(4)
Co1B Co -0.30425(6) 1.50794(10) -0.17824(4)
Co1C_3 Co 0.30425(6) 1.00794(10) 0.67824(4)
O1C O 0.3697(3) 0.2544(5) 0.6806(2)
O2C O 0.2951(3) 0.1618(5) 0.5475(3)
O3C O 0.3294(3) 0.5545(5) 0.3031(2)
O3_2 O 0.3294(3) -0.0545(5) 0.8031(2)
O4C O 0.3724(3) 0.8350(5) 0.3300(2)
O5C O 0.1645(4) 0.1587(5) 0.7044(3)
H1C H 0.2101 0.2033 0.7495
H2C H 0.1082 0.1212 0.7185
N1C N 0.4540(4) 0.8874(6) 0.6613(3)
N1_2 N 0.4540(4) 0.6126(6) 0.1613(3)
N1C_2 N 0.4540(4) -0.1126(6) 0.6613(3)
H3C H 0.4589 0.8673 0.7154
H3_2 H 0.4589 0.6327 0.2154
H3C_2 H 0.4589 -0.1327 0.7154
H4C H 0.4660 0.9904 0.6450
H4_2 H 0.4660 0.5096 0.1450
H4C_2 H 0.4660 -0.0096 0.6450
N2B N -0.1853(4) 1.3295(6) -0.1104(3)
N2C N 0.1853(4) -0.1705(6) 0.6104(3)
C1C C 0.3686(4) 0.4519(7) 0.5657(3)
C2C C 0.3530(4) 0.4848(7) 0.4778(3)
H5C H 0.3273 0.3967 0.4370
C3C C 0.3752(4) 0.6483(7) 0.4495(3)
C4C C 0.4105(4) 0.7805(7) 0.5105(3)
H6C H 0.4241 0.8908 0.4918
C5C C 0.4258(4) 0.7503(7) 0.5988(3)
C6C C 0.4070(4) 0.5869(7) 0.6270(3)
H7C H 0.4196 0.5655 0.6865
C7C C 0.3430(5) 0.2794(7) 0.5992(4)
C8C C 0.3598(5) 0.6840(8) 0.3535(3)
C9B C -0.1710(6) 1.1816(9) -0.1487(4)
H8B H -0.2114 1.1653 -0.2069
C10B C -0.1000(6) 1.0498(9) -0.1078(4)
H9B H -0.0946 0.9484 -0.1382
C11B C -0.0378(5) 1.0690(8) -0.0228(4)
C12B C -0.0543(7) 1.2209(10) 0.0170(5)
H10B H -0.0157 1.2401 0.0754
C13B C -0.1275(7) 1.3459(9) -0.0283(5)
H11B H -0.1360 1.4470 0.0011
O6 O 0.2322(4) 0.1007(6) 0.3608(3)
H12 H 0.2859 0.0433 0.3523
H13 H 0.2465 0.1276 0.4147
O7 O 0.0092(7) 0.0507(13) 0.2865(5)
H14 H -0.0135 0.0632 0.2312
H15 H 0.0596 0.1251 0.3084
loop_
_geom_bond_atom_site_label_1
_geom_bond_atom_site_label_2
_geom_bond_site_symmetry_1
_geom_bond_site_symmetry_2
Co1 O1 1_555 1_555
O1 C7 1_555 1_555
O2 Co1 1_555 1_555
O3 C8 1_555 1_555
O4 C8 1_555 1_555
O5 Co1 1_555 1_555
H1 O5 1_555 1_555
H2 O5 1_555 1_555
N1 H3 1_555 1_555
H4 N1 1_555 1_555
N2 Co1 1_555 1_555
C1 C2 1_555 1_555
C2 H5 1_555 1_555
C3 C2 1_555 1_555
C4 C3 1_555 1_555
H6 C4 1_555 1_555
C5 N1 1_555 1_555
C6 C1 1_555 1_555
H7 C6 1_555 1_555
C7 O2 1_555 1_555
C8 C3 1_555 1_555
C9 N2 1_555 1_555
H8 C9 1_555 1_555
C10 C9 1_555 1_555
H9 C10 1_555 1_555
C11 C10 1_555 1_555
C12 C11 1_555 1_555
H10 C12 1_555 1_555
C13 N2 1_555 1_555
H11 C13 1_555 1_555
O6 H12 1_555 1_555
H13 O6 1_555 1_555
O7 H14 1_555 1_555
H15 O7 1_555 1_555
Co1C O1C 1_555 1_555
Co1C_2 O3 1_555 1_555
Co1_2 N1 1_555 1_555
Co1B N2B 1_555 1_555
Co1C_3 N1C 1_555 1_555
O1C C7C 1_555 1_555
O2C Co1C 1_555 1_555
O3C Co1 1_555 1_555
O3_2 Co1C 1_555 1_555
O4C C8C 1_555 1_555
O5C Co1C 1_555 1_555
H1C O5C 1_555 1_555
H2C O5C 1_555 1_555
N1C H3C 1_555 1_555
N1_2 Co1 1_555 1_555
N1C_2 Co1C 1_555 1_555
H3_2 N1_2 1_555 1_555
H3C_2 N1C_2 1_555 1_555
H4C N1C 1_555 1_555
H4_2 N1_2 1_555 1_555
H4C_2 N1C_2 1_555 1_555
N2B C9B 1_555 1_555
N2C Co1C 1_555 1_555
C1C C2C 1_555 1_555
C2C H5C 1_555 1_555
C3C C2C 1_555 1_555
C4C C3C 1_555 1_555
H6C C4C 1_555 1_555
C5C N1C 1_555 1_555
C6C C1C 1_555 1_555
H7C C6C 1_555 1_555
C7C O2C 1_555 1_555
C8C O3C 1_555 1_555
C9B H8B 1_555 1_555
C10B C9B 1_555 1_555
H9B C10B 1_555 1_555
C11B C11 1_555 1_555
C12B C11B 1_555 1_555
H10B C12B 1_555 1_555
C13B N2B 1_555 1_555
H11B C13B 1_555 1_555
C1 C7 1_555 1_555
C4 C5 1_555 1_555
C5 C6 1_555 1_555
C12 C13 1_555 1_555
C1C C7C 1_555 1_555
C3C C8C 1_555 1_555
C4C C5C 1_555 1_555
C5C C6C 1_555 1_555
C10B C11B 1_555 1_555
C12B C13B 1_555 1_555

#END
