
#######################################################################
#
#                 Cambridge Crystallographic Data Centre
#                                CCDC 
#
#######################################################################
#
# If this CIF has been generated from an entry in the Cambridge 
# Structural Database, then it will include bibliographic, chemical, 
# crystal, experimental, refinement or atomic coordinate data resulting 
# from the CCDC's data processing and validation procedures.
#
#######################################################################

data_POQXAV
_symmetry_cell_setting           orthorhombic
_symmetry_space_group_name_H-M   'P n a 21'
_symmetry_Int_Tables_number      33
_space_group_name_Hall           'P 2c -2n'
loop_
_symmetry_equiv_pos_site_id
_symmetry_equiv_pos_as_xyz
1 x,y,z
2 -x,-y,1/2+z
3 1/2-x,1/2+y,1/2+z
4 1/2+x,1/2-y,z
_cell_length_a                   7.4106(3)
_cell_length_b                   20.0651(9)
_cell_length_c                   31.1884(14)
_cell_angle_alpha                90
_cell_angle_beta                 90
_cell_angle_gamma                90
_cell_volume                     4637.54
loop_
_atom_site_label
_atom_site_type_symbol
_atom_site_fract_x
_atom_site_fract_y
_atom_site_fract_z
Ni1 Ni 0.72255(6) 0.483653(19) 0.431879(15)
Ni2 Ni 0.42120(6) 0.015550(18) 0.765788(14)
Ni3 Ni 0.85578(6) 0.003311(19) 0.620872(17)
S1 S 0.52022(12) 0.08309(4) 0.66918(3)
S2 S 0.56787(13) 0.40589(5) 0.34284(3)
N1 N 0.8567(4) 0.09337(13) 0.58606(9)
N2 N 0.3569(4) -0.40900(13) 0.65036(10)
N3 N 0.4172(4) -0.08250(13) 0.73853(10)
O1 O 0.4088(3) 0.06341(11) 0.70626(7)
O2 O 0.7093(3) 0.43208(11) 0.37158(8)
N4 N 0.4107(4) 0.10883(13) 0.79723(10)
C1 C 0.8085(6) 0.15053(16) 0.51942(12)
H1 H 0.7848 0.1479 0.4902
O3 O 0.6934(3) 0.04471(11) 0.67055(8)
C2 C 0.8478(7) 0.33616(18) 0.53043(14)
H2 H 0.8969 0.3392 0.5578
C3 C 0.3972(5) -0.39912(16) 0.69161(12)
H3 H 0.4198 -0.4361 0.7087
N5 N 0.7540(4) 0.39342(13) 0.46700(10)
C4 C 0.3727(6) -0.15526(16) 0.67933(14)
H4 H 0.3522 -0.1593 0.6500
C5 C 0.8014(5) 0.27576(16) 0.51464(12)
C6 C 0.3850(6) -0.09265(17) 0.69745(12)
H5 H 0.3698 -0.0557 0.6798
C7 C 0.3765(5) -0.28047(14) 0.68548(12)
C8 C 0.7079(6) 0.33390(17) 0.45128(13)
H6 H 0.6569 0.3320 0.4241
C9 C 0.3315(6) -0.29057(17) 0.64266(13)
H7 H 0.3072 -0.2544 0.6249
C10 C 0.4478(5) 0.22770(17) 0.79749(12)
H8 H 0.4834 0.2657 0.7827
C11 C 0.3905(5) -0.21174(15) 0.70395(12)
C12 C 0.3528(6) 0.35702(16) 0.83778(14)
H9 H 0.3656 0.3572 0.8081
C13 C 0.8284(5) 0.21229(16) 0.53875(12)
C14 C 0.3807(5) 0.23255(15) 0.83863(12)
C15 C 0.8236(7) 0.39263(18) 0.50674(15)
H10 H 0.8574 0.4331 0.5189
C16 C 0.4615(5) 0.16566(17) 0.77865(12)
H11 H 0.5094 0.1633 0.7511
C17 C 0.4071(5) -0.33651(16) 0.71014(13)
H12 H 0.4343 -0.3322 0.7391
C18 C 0.3466(6) 0.11420(17) 0.83709(12)
H13 H 0.3095 0.0755 0.8509
C19 C 0.3232(6) -0.35421(15) 0.62679(13)
H14 H 0.2925 -0.3598 0.5981
C20 C 0.3322(6) 0.17412(16) 0.85905(13)
H15 H 0.2904 0.1749 0.8872
C21 C 0.8237(6) 0.09272(17) 0.54339(13)
H16 H 0.8107 0.0519 0.5296
C22 C 0.3574(5) 0.29802(17) 0.86018(12)
C23 C 0.8678(5) 0.21246(17) 0.58223(12)
H17 H 0.8828 0.2526 0.5967
C24 C 0.7320(6) 0.27535(17) 0.47325(12)
H18 H 0.7016 0.2351 0.4604
C25 C 0.4219(8) -0.20105(19) 0.74677(15)
H19 H 0.4321 -0.2370 0.7655
C26 C 0.8849(5) 0.15250(16) 0.60399(12)
H20 H 0.9179 0.1538 0.6327
C27 C 0.3398(8) 0.30284(18) 0.90386(15)
H21 H 0.3445 0.2648 0.9208
O4 O 0.6981(3) 0.02012(11) 0.76068(9)
O5 O 0.4478(3) 0.47537(12) 0.43905(10)
O6 O 0.1442(3) 0.01665(11) 0.76482(11)
O7 O 0.9923(3) 0.48459(12) 0.42059(9)
O8 O 0.4331(4) -0.03073(11) 0.82596(8)
O9 O 1.0765(3) 0.03259(12) 0.65609(9)
O10 O 0.7504(4) 0.53431(11) 0.48959(9)
O11 O 0.6229(4) -0.02521(12) 0.58927(9)
O12 O 1.0291(4) -0.03461(13) 0.57506(9)
O13 O 0.5907(4) 0.43326(13) 0.29981(9)
O14 O 0.5565(4) 0.15427(11) 0.67111(11)
O15 O 0.4210(3) 0.06695(13) 0.62968(8)
O16 O 0.3894(4) 0.4259(2) 0.35891(11)
C28 C 0.3293(6) 0.41535(17) 0.85958(15)
H22 H 0.3284 0.4544 0.8435
N6 N 0.3080(4) 0.42120(13) 0.90121(10)
O17 O 0.5827(5) 0.33391(15) 0.34055(15)
C29 C 0.4382(7) -0.13665(16) 0.76192(15)
H23 H 0.4661 -0.1311 0.7908
C30 C 0.3152(8) 0.36478(18) 0.92246(16)
H24 H 0.3028 0.3666 0.9521
Ni1A Ni 0.27745(6) 0.516347(19) 0.931879(15)
Ni3C Ni 0.35578(6) -0.503311(19) 0.620872(17)
N2C N 0.8569(4) -0.09100(13) 0.65036(10)
N6A N 0.6920(4) 0.57880(13) 0.40121(10)
S3 S 0.21442(15) 0.61058(5) 0.48807(3)
O18 O 0.1961(5) 0.58394(16) 0.44479(10)
O19 O 0.3822(5) 0.58094(19) 0.50604(11)
O20 O 0.0598(4) 0.58982(16) 0.51549(10)
O21 O 0.2313(5) 0.68203(14) 0.48659(14)
O22 O 1.1371(4) 0.35972(12) 0.41169(10)
O23 O -0.0106(4) 0.12957(14) 0.72505(11)
O24 O 1.2496(4) -0.14518(15) 0.57435(11)
O25 O 0.4243(6) 0.21612(19) 0.35960(16)
O26 O 0.7110(6) 0.27762(18) 0.68995(17)
O27 O 1.0176(6) -0.2377(2) 0.53877(13)
loop_
_geom_bond_atom_site_label_1
_geom_bond_atom_site_label_2
_geom_bond_site_symmetry_1
_geom_bond_site_symmetry_2
Ni1 O2 1_555 1_555
Ni2 N3 1_555 1_555
Ni3 N1 1_555 1_555
S1 O1 1_555 1_555
S2 O2 1_555 1_555
N1 C21 1_555 1_555
N2 C3 1_555 1_555
N3 C6 1_555 1_555
O1 Ni2 1_555 1_555
N4 Ni2 1_555 1_555
C1 H1 1_555 1_555
O3 Ni3 1_555 1_555
C2 H2 1_555 1_555
C3 H3 1_555 1_555
N5 Ni1 1_555 1_555
C4 H4 1_555 1_555
C5 C2 1_555 1_555
C6 C4 1_555 1_555
H5 C6 1_555 1_555
C7 C9 1_555 1_555
C8 N5 1_555 1_555
H6 C8 1_555 1_555
C9 H7 1_555 1_555
C10 H8 1_555 1_555
C11 C4 1_555 1_555
C12 H9 1_555 1_555
C13 C1 1_555 1_555
C14 C10 1_555 1_555
C15 C2 1_555 1_555
H10 C15 1_555 1_555
C16 N4 1_555 1_555
H11 C16 1_555 1_555
C17 C3 1_555 1_555
H12 C17 1_555 1_555
C18 N4 1_555 1_555
H13 C18 1_555 1_555
C19 N2 1_555 1_555
H14 C19 1_555 1_555
C20 C14 1_555 1_555
H15 C20 1_555 1_555
C21 C1 1_555 1_555
H16 C21 1_555 1_555
C22 C12 1_555 1_555
C23 C13 1_555 1_555
H17 C23 1_555 1_555
C24 C5 1_555 1_555
H18 C24 1_555 1_555
C25 C11 1_555 1_555
H19 C25 1_555 1_555
C26 N1 1_555 1_555
H20 C26 1_555 1_555
C27 C22 1_555 1_555
H21 C27 1_555 1_555
O4 Ni2 1_555 1_555
O5 Ni1 1_555 1_555
O6 Ni2 1_555 1_555
O7 Ni1 1_555 1_555
O8 Ni2 1_555 1_555
O9 Ni3 1_555 1_555
O10 Ni1 1_555 1_555
O11 Ni3 1_555 1_555
O12 Ni3 1_555 1_555
O13 S2 1_555 1_555
O14 S1 1_555 1_555
O15 S1 1_555 1_555
O16 S2 1_555 1_555
C28 C12 1_555 1_555
H22 C28 1_555 1_555
N6 C28 1_555 1_555
O17 S2 1_555 1_555
C29 N3 1_555 1_555
H23 C29 1_555 1_555
C30 C27 1_555 1_555
H24 C30 1_555 1_555
S3 O18 1_555 1_555
O19 S3 1_555 1_555
O20 S3 1_555 1_555
O21 S3 1_555 1_555
Ni1A N6 1_555 1_555
Ni3C N2 1_555 1_555
N2C Ni3 1_555 1_555
N6A Ni1 1_555 1_555
S1 O3 1_555 1_555
N5 C15 1_555 1_555
C5 C13 1_555 1_555
C7 C11 1_555 1_555
C7 C17 1_555 1_555
C8 C24 1_555 1_555
C9 C19 1_555 1_555
C10 C16 1_555 1_555
C14 C22 1_555 1_555
C18 C20 1_555 1_555
C23 C26 1_555 1_555
C25 C29 1_555 1_555
N6 C30 1_555 1_555

#END
