
#######################################################################
#
#                 Cambridge Crystallographic Data Centre
#                                CCDC 
#
#######################################################################
#
# If this CIF has been generated from an entry in the Cambridge 
# Structural Database, then it will include bibliographic, chemical, 
# crystal, experimental, refinement or atomic coordinate data resulting 
# from the CCDC's data processing and validation procedures.
#
#######################################################################

data_POQXOI
_symmetry_cell_setting           monoclinic
_symmetry_space_group_name_H-M   'P 21/c'
_symmetry_Int_Tables_number      14
_space_group_name_Hall           '-P 2ybc'
loop_
_symmetry_equiv_pos_site_id
_symmetry_equiv_pos_as_xyz
1 x,y,z
2 x,1/2-y,1/2+z
3 -x,-y,-z
4 -x,1/2+y,1/2-z
_cell_length_a                   16.394(3)
_cell_length_b                   16.698(3)
_cell_length_c                   16.886(3)
_cell_angle_alpha                90
_cell_angle_beta                 90.74(3)
_cell_angle_gamma                90
_cell_volume                     4622.11
loop_
_atom_site_label
_atom_site_type_symbol
_atom_site_fract_x
_atom_site_fract_y
_atom_site_fract_z
N1 N 0.2784(2) -0.4682(2) -0.0794(2)
S1 S 0.28148(4) -0.46744(4) 0.01422(4)
S2 S 0.19462(5) -0.45289(5) -0.12564(5)
O1 O 0.36614(14) -0.47110(15) 0.03731(15)
O2 O 0.23463(15) -0.40378(13) 0.04990(14)
O3 O 0.2074(2) -0.4747(2) -0.20690(15)
O4 O 0.12529(13) -0.48957(14) -0.08808(14)
C1 C 0.2368(2) -0.5581(2) 0.0460(2)
H1 H 0.1803(5) -0.5610(7) 0.0266(12)
H2 H 0.2376(13) -0.5602(7) 0.1040(2)
H3 H 0.2677(9) -0.6035(2) 0.0250(12)
C2 C 0.1789(2) -0.3491(2) -0.1244(2)
H4 H 0.1734(14) -0.3309(3) -0.0696(2)
H5 H 0.1290(8) -0.3362(2) -0.1544(12)
H6 H 0.2255(7) -0.3222(2) -0.1486(12)
P1 P 0.44223(4) 0.09987(4) -0.06240(4)
P2 P 0.03435(4) 0.11065(4) 0.06316(4)
O5 O 0.35439(11) 0.07295(11) -0.05938(12)
O6 O 0.12401(12) 0.09773(11) 0.07805(11)
C3 C 0.5052(2) 0.0448(2) 0.0068(2)
H7 H 0.5631(2) 0.0599(2) -0.0001(2)
H8 H 0.4895(2) 0.0584(2) 0.0616(2)
C4 C -0.0067(2) 0.0439(2) -0.0116(2)
H9 H -0.0659(2) 0.0541(2) -0.0185(2)
H10 H 0.0200(2) 0.0547(2) -0.0627(2)
C5 C 0.24066(15) -0.0355(2) 0.0324(2)
C6 C 0.2680(2) -0.0906(2) -0.0233(2)
H11 H 0.2870(2) -0.0724(2) -0.0730(2)
C7 C 0.2674(2) -0.1723(2) -0.0060(2)
H12 H 0.2854(2) -0.2097(2) -0.0445(2)
C8 C 0.2411(2) -0.1991(2) 0.0664(2)
H13 H 0.2402(2) -0.2548(2) 0.0775(2)
C9 C 0.2161(2) -0.1449(2) 0.1226(2)
H14 H 0.1992(2) -0.1633(2) 0.1730(2)
C10 C 0.2153(2) -0.0635(2) 0.1058(2)
H15 H 0.1973(2) -0.0266(2) 0.1447(2)
C11 C 0.3046(2) 0.1546(2) 0.1029(2)
C12 C 0.3462(2) 0.1133(2) 0.1610(2)
H16 H 0.3408(2) 0.0567(2) 0.1642(2)
C13 C 0.3959(3) 0.1531(2) 0.2153(2)
H17 H 0.4250(3) 0.1236(2) 0.2545(2)
C14 C 0.4032(2) 0.2347(2) 0.2124(2)
H18 H 0.4370(2) 0.2618(2) 0.2498(2)
C15 C 0.3618(2) 0.2768(2) 0.1557(2)
H19 H 0.3668(2) 0.3334(2) 0.1534(2)
C16 C 0.3125(2) 0.2371(2) 0.1013(2)
H20 H 0.2835(2) 0.2671(2) 0.0622(2)
C17 C 0.1955(2) 0.1559(2) -0.0859(2)
C18 C 0.1932(3) 0.1232(2) -0.1606(2)
H21 H 0.2023(3) 0.0674(2) -0.1674(2)
C19 C 0.1775(4) 0.1716(3) -0.2264(2)
H22 H 0.1761(4) 0.1484(3) -0.2778(2)
C20 C 0.1641(3) 0.2521(3) -0.2177(2)
H23 H 0.1546(3) 0.2847(3) -0.2629(2)
C21 C 0.1644(2) 0.2855(2) -0.1432(2)
H24 H 0.1536(2) 0.3410(2) -0.1364(2)
C22 C 0.1808(2) 0.2372(2) -0.0784(2)
H25 H 0.1820(2) 0.2606(2) -0.0271(2)
C23 C 0.4550(2) 0.2043(2) -0.0424(2)
C24 C 0.4020(2) 0.2576(2) -0.0798(2)
H26 H 0.3609(2) 0.2382(2) -0.1150(2)
C25 C 0.4091(2) 0.3394(2) -0.0656(2)
H27 H 0.3725(2) 0.3760(2) -0.0905(2)
C26 C 0.4694(2) 0.3670(2) -0.0155(2)
H28 H 0.4744(2) 0.4228(2) -0.0060(2)
C27 C 0.5228(2) 0.3146(2) 0.0214(2)
H29 H 0.5647(2) 0.3345(2) 0.0554(2)
C28 C 0.5153(2) 0.2332(2) 0.0089(2)
H30 H 0.5511(2) 0.1970(2) 0.0352(2)
C29 C 0.4816(2) 0.0796(2) -0.1588(2)
C30 C 0.4314(2) 0.0489(2) -0.2180(2)
H31 H 0.3755(2) 0.0389(2) -0.2079(2)
C31 C 0.4630(2) 0.0330(2) -0.2923(2)
H32 H 0.4286(2) 0.0121(2) -0.3331(2)
C32 C 0.5444(2) 0.0473(2) -0.3069(2)
H33 H 0.5657(2) 0.0362(2) -0.3578(2)
C33 C 0.5948(2) 0.0776(2) -0.2486(2)
H34 H 0.6509(2) 0.0867(2) -0.2589(2)
C34 C 0.5637(2) 0.0947(2) -0.1747(2)
H35 H 0.5982(2) 0.1167(2) -0.1347(2)
C35 C 0.0119(2) 0.2107(2) 0.0323(2)
C36 C 0.0387(2) 0.2727(2) 0.0802(2)
H36 H 0.0650(2) 0.2612(2) 0.1293(2)
C37 C 0.0272(2) 0.3514(2) 0.0569(3)
H37 H 0.0464(2) 0.3938(2) 0.0897(3)
C38 C -0.0118(2) 0.3683(2) -0.0136(3)
H38 H -0.0199(2) 0.4224(2) -0.0295(3)
C39 C -0.0389(2) 0.3072(2) -0.0607(2)
H39 H -0.0662(2) 0.3189(2) -0.1093(2)
C40 C -0.0271(2) 0.2283(2) -0.0382(2)
H40 H -0.0461(2) 0.1862(2) -0.0714(2)
C41 C -0.0198(2) 0.0919(2) 0.1526(2)
C42 C -0.1015(2) 0.1145(2) 0.1582(2)
H41 H -0.1278(2) 0.1414(2) 0.1153(2)
C43 C -0.1438(2) 0.0976(2) 0.2264(2)
H42 H -0.1996(2) 0.1122(2) 0.2303(2)
C44 C -0.1053(2) 0.0599(2) 0.2887(2)
H43 H -0.1347(2) 0.0488(2) 0.3356(2)
C45 C -0.0246(2) 0.0378(2) 0.2841(2)
H44 H 0.0014(2) 0.0117(2) 0.3275(2)
C46 C 0.0188(2) 0.0539(2) 0.2156(2)
H45 H 0.0746(2) 0.0389(2) 0.2121(2)
Sn1 Sn 0.241623(10) 0.090289(10) 0.012879(10)
C4B C 0.0067(2) -0.0439(2) 0.0116(2)
P2B P -0.03435(4) -0.11065(4) -0.06316(4)
O6B O -0.12401(12) -0.09773(11) -0.07805(11)
Sn1B Sn -0.241623(10) -0.090289(10) -0.012879(10)
C35B C -0.0119(2) -0.2107(2) -0.0323(2)
C36B C -0.0387(2) -0.2727(2) -0.0802(2)
H36B H -0.0650(2) -0.2612(2) -0.1293(2)
C37B C -0.0272(2) -0.3514(2) -0.0569(3)
H37B H -0.0464(2) -0.3938(2) -0.0897(3)
C38B C 0.0118(2) -0.3683(2) 0.0136(3)
H38B H 0.0199(2) -0.4224(2) 0.0295(3)
C39B C 0.0389(2) -0.3072(2) 0.0607(2)
H39B H 0.0662(2) -0.3189(2) 0.1093(2)
C40B C 0.0271(2) -0.2283(2) 0.0382(2)
H40B H 0.0461(2) -0.1862(2) 0.0714(2)
C41B C 0.0198(2) -0.0919(2) -0.1526(2)
C42B C 0.1015(2) -0.1145(2) -0.1582(2)
H41B H 0.1278(2) -0.1414(2) -0.1153(2)
C43B C 0.1438(2) -0.0976(2) -0.2264(2)
H42B H 0.1996(2) -0.1122(2) -0.2303(2)
C44B C 0.1053(2) -0.0599(2) -0.2887(2)
H43B H 0.1347(2) -0.0488(2) -0.3356(2)
C45B C 0.0246(2) -0.0378(2) -0.2841(2)
H44B H -0.0014(2) -0.0117(2) -0.3275(2)
C46B C -0.0188(2) -0.0539(2) -0.2156(2)
H45B H -0.0746(2) -0.0389(2) -0.2121(2)
H9B H 0.0659(2) -0.0541(2) 0.0185(2)
H10B H -0.0200(2) -0.0547(2) 0.0627(2)
C3B C 0.4948(2) -0.0448(2) -0.0068(2)
P1B P 0.55777(4) -0.09987(4) 0.06240(4)
O5B O 0.64561(11) -0.07295(11) 0.05938(12)
Sn1B_2 Sn 0.758377(10) -0.090289(10) -0.012879(10)
O6B_2 O 0.87599(12) -0.09773(11) -0.07805(11)
C5B C 0.75934(15) 0.0355(2) -0.0324(2)
C6B C 0.7320(2) 0.0906(2) 0.0233(2)
H11B H 0.7130(2) 0.0724(2) 0.0730(2)
C7B C 0.7326(2) 0.1723(2) 0.0060(2)
H12B H 0.7146(2) 0.2097(2) 0.0445(2)
C8B C 0.7589(2) 0.1991(2) -0.0664(2)
H13B H 0.7598(2) 0.2548(2) -0.0775(2)
C9B C 0.7839(2) 0.1449(2) -0.1226(2)
H14B H 0.8008(2) 0.1633(2) -0.1730(2)
C10B C 0.7847(2) 0.0635(2) -0.1058(2)
H15B H 0.8027(2) 0.0266(2) -0.1447(2)
C11B C 0.6954(2) -0.1546(2) -0.1029(2)
C12B C 0.6538(2) -0.1133(2) -0.1610(2)
H16B H 0.6592(2) -0.0567(2) -0.1642(2)
C13B C 0.6041(3) -0.1531(2) -0.2153(2)
H17B H 0.5750(3) -0.1236(2) -0.2545(2)
C14B C 0.5968(2) -0.2347(2) -0.2124(2)
H18B H 0.5630(2) -0.2618(2) -0.2498(2)
C15B C 0.6382(2) -0.2768(2) -0.1557(2)
H19B H 0.6332(2) -0.3334(2) -0.1534(2)
C16B C 0.6875(2) -0.2371(2) -0.1013(2)
H20B H 0.7165(2) -0.2671(2) -0.0622(2)
C17B C 0.8045(2) -0.1559(2) 0.0859(2)
C18B C 0.8068(3) -0.1232(2) 0.1606(2)
H21B H 0.7977(3) -0.0674(2) 0.1674(2)
C19B C 0.8225(4) -0.1716(3) 0.2264(2)
H22B H 0.8239(4) -0.1484(3) 0.2778(2)
C20B C 0.8359(3) -0.2521(3) 0.2177(2)
H23B H 0.8454(3) -0.2847(3) 0.2629(2)
C21B C 0.8356(2) -0.2855(2) 0.1432(2)
H24B H 0.8464(2) -0.3410(2) 0.1364(2)
C22B C 0.8192(2) -0.2372(2) 0.0784(2)
H25B H 0.8180(2) -0.2606(2) 0.0271(2)
C23B C 0.5450(2) -0.2043(2) 0.0424(2)
C24B C 0.5980(2) -0.2576(2) 0.0798(2)
H26B H 0.6391(2) -0.2382(2) 0.1150(2)
C25B C 0.5909(2) -0.3394(2) 0.0656(2)
H27B H 0.6275(2) -0.3760(2) 0.0905(2)
C26B C 0.5306(2) -0.3670(2) 0.0155(2)
H28B H 0.5256(2) -0.4228(2) 0.0060(2)
C27B C 0.4772(2) -0.3146(2) -0.0214(2)
H29B H 0.4353(2) -0.3345(2) -0.0554(2)
C28B C 0.4847(2) -0.2332(2) -0.0089(2)
H30B H 0.4489(2) -0.1970(2) -0.0352(2)
C29B C 0.5184(2) -0.0796(2) 0.1588(2)
C30B C 0.5686(2) -0.0489(2) 0.2180(2)
H31B H 0.6245(2) -0.0389(2) 0.2079(2)
C31B C 0.5370(2) -0.0330(2) 0.2923(2)
H32B H 0.5714(2) -0.0121(2) 0.3331(2)
C32B C 0.4556(2) -0.0473(2) 0.3069(2)
H33B H 0.4343(2) -0.0362(2) 0.3578(2)
C33B C 0.4052(2) -0.0776(2) 0.2486(2)
H34B H 0.3491(2) -0.0867(2) 0.2589(2)
C34B C 0.4363(2) -0.0947(2) 0.1747(2)
H35B H 0.4018(2) -0.1167(2) 0.1347(2)
H7B H 0.4369(2) -0.0599(2) 0.0001(2)
H8B H 0.5105(2) -0.0584(2) -0.0616(2)
C47 C 0.3966(2) -0.3198(2) 0.1731(2)
H46 H 0.4038(14) -0.2658(2) 0.1517(5)
H47 H 0.3555(7) -0.3485(12) 0.1414(4)
H48 H 0.4486(7) -0.3487(12) 0.1713(3)
C48 C 0.3703(3) -0.3146(3) 0.2532(3)
N2 N 0.3512(4) -0.3122(5) 0.3164(3)
loop_
_geom_bond_atom_site_label_1
_geom_bond_atom_site_label_2
_geom_bond_site_symmetry_1
_geom_bond_site_symmetry_2
N1 S1 1_555 1_555
S1 O1 1_555 1_555
S2 N1 1_555 1_555
O2 S1 1_555 1_555
O3 S2 1_555 1_555
O4 S2 1_555 1_555
C1 S1 1_555 1_555
H1 C1 1_555 1_555
H2 C1 1_555 1_555
H3 C1 1_555 1_555
C2 S2 1_555 1_555
H4 C2 1_555 1_555
H5 C2 1_555 1_555
H6 C2 1_555 1_555
P1 O5 1_555 1_555
P2 O6 1_555 1_555
O5 Sn1 1_555 1_555
O6 Sn1 1_555 1_555
C3 P1 1_555 1_555
H7 C3 1_555 1_555
H8 C3 1_555 1_555
C4 P2 1_555 1_555
H9 C4 1_555 1_555
H10 C4 1_555 1_555
C5 C6 1_555 1_555
C6 H11 1_555 1_555
C7 C6 1_555 1_555
H12 C7 1_555 1_555
C8 C7 1_555 1_555
H13 C8 1_555 1_555
C9 C8 1_555 1_555
H14 C9 1_555 1_555
C10 C5 1_555 1_555
H15 C10 1_555 1_555
C11 C12 1_555 1_555
C12 H16 1_555 1_555
C13 C12 1_555 1_555
H17 C13 1_555 1_555
C14 C13 1_555 1_555
H18 C14 1_555 1_555
C15 C14 1_555 1_555
H19 C15 1_555 1_555
C16 C11 1_555 1_555
H20 C16 1_555 1_555
C17 C18 1_555 1_555
C18 H21 1_555 1_555
C19 C18 1_555 1_555
H22 C19 1_555 1_555
C20 C19 1_555 1_555
H23 C20 1_555 1_555
C21 C20 1_555 1_555
H24 C21 1_555 1_555
C22 C17 1_555 1_555
H25 C22 1_555 1_555
C23 P1 1_555 1_555
C24 C23 1_555 1_555
H26 C24 1_555 1_555
C25 C24 1_555 1_555
H27 C25 1_555 1_555
C26 C25 1_555 1_555
H28 C26 1_555 1_555
C27 C26 1_555 1_555
H29 C27 1_555 1_555
C28 C23 1_555 1_555
H30 C28 1_555 1_555
C29 P1 1_555 1_555
C30 C29 1_555 1_555
H31 C30 1_555 1_555
C31 C30 1_555 1_555
H32 C31 1_555 1_555
C32 C31 1_555 1_555
H33 C32 1_555 1_555
C33 C32 1_555 1_555
H34 C33 1_555 1_555
C34 C29 1_555 1_555
H35 C34 1_555 1_555
C35 P2 1_555 1_555
C36 C35 1_555 1_555
H36 C36 1_555 1_555
C37 C36 1_555 1_555
H37 C37 1_555 1_555
C38 C37 1_555 1_555
H38 C38 1_555 1_555
C39 C38 1_555 1_555
H39 C39 1_555 1_555
C40 C35 1_555 1_555
H40 C40 1_555 1_555
C41 P2 1_555 1_555
C42 C41 1_555 1_555
H41 C42 1_555 1_555
C43 C42 1_555 1_555
H42 C43 1_555 1_555
C44 C43 1_555 1_555
H43 C44 1_555 1_555
C45 C44 1_555 1_555
H44 C45 1_555 1_555
C46 C41 1_555 1_555
H45 C46 1_555 1_555
C47 H46 1_555 1_555
H47 C47 1_555 1_555
H48 C47 1_555 1_555
C48 C47 1_555 1_555
N2 C48 1_555 1_555
Sn1 C5 1_555 1_555
C4B C4 1_555 1_555
P2B C4B 1_555 1_555
O6B P2B 1_555 1_555
Sn1B O6B 1_555 1_555
C35B P2B 1_555 1_555
C36B C35B 1_555 1_555
H36B C36B 1_555 1_555
C37B C36B 1_555 1_555
H37B C37B 1_555 1_555
C38B C37B 1_555 1_555
H38B C38B 1_555 1_555
C39B C38B 1_555 1_555
H39B C39B 1_555 1_555
C40B C35B 1_555 1_555
H40B C40B 1_555 1_555
C41B P2B 1_555 1_555
C42B C41B 1_555 1_555
H41B C42B 1_555 1_555
C43B C42B 1_555 1_555
H42B C43B 1_555 1_555
C44B C43B 1_555 1_555
H43B C44B 1_555 1_555
C45B C44B 1_555 1_555
H44B C45B 1_555 1_555
C46B C41B 1_555 1_555
H45B C46B 1_555 1_555
H9B C4B 1_555 1_555
H10B C4B 1_555 1_555
C3B C3 1_555 1_555
P1B C3B 1_555 1_555
O5B P1B 1_555 1_555
Sn1B_2 O5B 1_555 1_555
O6B_2 Sn1B_2 1_555 1_555
C5B Sn1B_2 1_555 1_555
C6B C5B 1_555 1_555
H11B C6B 1_555 1_555
C7B C6B 1_555 1_555
H12B C7B 1_555 1_555
C8B C7B 1_555 1_555
H13B C8B 1_555 1_555
C9B C8B 1_555 1_555
H14B C9B 1_555 1_555
C10B C5B 1_555 1_555
H15B C10B 1_555 1_555
C11B Sn1B_2 1_555 1_555
C12B C11B 1_555 1_555
H16B C12B 1_555 1_555
C13B C12B 1_555 1_555
H17B C13B 1_555 1_555
C14B C13B 1_555 1_555
H18B C14B 1_555 1_555
C15B C14B 1_555 1_555
H19B C15B 1_555 1_555
C16B C11B 1_555 1_555
H20B C16B 1_555 1_555
C17B Sn1B_2 1_555 1_555
C18B C17B 1_555 1_555
H21B C18B 1_555 1_555
C19B C18B 1_555 1_555
H22B C19B 1_555 1_555
C20B C19B 1_555 1_555
H23B C20B 1_555 1_555
C21B C20B 1_555 1_555
H24B C21B 1_555 1_555
C22B C17B 1_555 1_555
H25B C22B 1_555 1_555
C23B P1B 1_555 1_555
C24B C23B 1_555 1_555
H26B C24B 1_555 1_555
C25B C24B 1_555 1_555
H27B C25B 1_555 1_555
C26B C25B 1_555 1_555
H28B C26B 1_555 1_555
C27B C26B 1_555 1_555
H29B C27B 1_555 1_555
C28B C23B 1_555 1_555
H30B C28B 1_555 1_555
C29B P1B 1_555 1_555
C30B C29B 1_555 1_555
H31B C30B 1_555 1_555
C31B C30B 1_555 1_555
H32B C31B 1_555 1_555
C32B C31B 1_555 1_555
H33B C32B 1_555 1_555
C33B C32B 1_555 1_555
H34B C33B 1_555 1_555
C34B C29B 1_555 1_555
H35B C34B 1_555 1_555
H7B C3B 1_555 1_555
H8B C3B 1_555 1_555
C9 C10 1_555 1_555
C11 Sn1 1_555 1_555
C15 C16 1_555 1_555
C17 Sn1 1_555 1_555
C21 C22 1_555 1_555
C27 C28 1_555 1_555
C33 C34 1_555 1_555
C39 C40 1_555 1_555
C45 C46 1_555 1_555
C39B C40B 1_555 1_555
C45B C46B 1_555 1_555
C9B C10B 1_555 1_555
C15B C16B 1_555 1_555
C21B C22B 1_555 1_555
C27B C28B 1_555 1_555
C33B C34B 1_555 1_555

#END
