
#######################################################################
#
#                 Cambridge Crystallographic Data Centre
#                                CCDC 
#
#######################################################################
#
# If this CIF has been generated from an entry in the Cambridge 
# Structural Database, then it will include bibliographic, chemical, 
# crystal, experimental, refinement or atomic coordinate data resulting 
# from the CCDC's data processing and validation procedures.
#
#######################################################################

data_POQXEZ
_symmetry_cell_setting           hexagonal
_symmetry_space_group_name_H-M   'P 61'
_symmetry_Int_Tables_number      169
_space_group_name_Hall           'P 61'
loop_
_symmetry_equiv_pos_site_id
_symmetry_equiv_pos_as_xyz
1 x,y,z
2 x-y,x,1/6+z
3 -y,x-y,1/3+z
4 -x,-y,1/2+z
5 -x+y,-x,2/3+z
6 y,-x+y,5/6+z
_cell_length_a                   11.5171(3)
_cell_length_b                   11.5171(3)
_cell_length_c                   20.8348(9)
_cell_angle_alpha                90
_cell_angle_beta                 90
_cell_angle_gamma                120
_cell_volume                     2393.35
loop_
_atom_site_label
_atom_site_type_symbol
_atom_site_fract_x
_atom_site_fract_y
_atom_site_fract_z
Fe1 Fe 0.43262(3) 0.43226(2) 0.082501(15)
O1 O 0.41072(18) 0.44514(16) -0.01636(9)
O2 O 0.45527(18) 0.42826(18) 0.18336(9)
O3 O 0.53651(14) 0.32187(15) 0.06212(8)
O4 O 0.32157(14) 0.54480(14) 0.09963(7)
N1 N -0.37204(15) -0.37750(15) 0.07981(12)
C1 C 0.1245(2) -0.0016(2) 0.08702(14)
H1 H 0.1279 -0.0806 0.0878
C2 C 0.00449(19) 0.1163(2) 0.08586(13)
H2 H -0.0752 0.1182 0.0870
C3 C 0.1264(2) 0.2347(2) 0.08498(14)
H3 H 0.1262 0.3153 0.0832
N2 N 0.24434(15) 0.23860(15) 0.08653(11)
C4 C 0.2405(2) 0.1202(2) 0.08791(16)
H4 H 0.3216 0.1208 0.0896
S1 S 0.26744(5) 0.60991(5) 0.05495(3)
C5 C -0.12760(18) -0.13535(18) 0.08386(14)
C6 C -0.3649(2) -0.2603(2) 0.0805(2)
H5 H -0.4449 -0.2589 0.0780
C7 C 0.00215(18) -0.00608(18) 0.08498(13)
O5 O 0.29281(19) 0.73699(16) 0.08258(10)
C8 C -0.2564(2) -0.3750(2) 0.0759(2)
H6 H -0.2573 -0.4556 0.0706
C9 C -0.1317(2) -0.2557(3) 0.0794(3)
H7 H -0.0525 -0.2589 0.0786
C10 C -0.2476(2) -0.1390(2) 0.0847(2)
H8 H -0.2503 -0.0598 0.0881
O6 O 0.33494(16) 0.63492(16) -0.00719(8)
O7 O 0.12292(15) 0.51747(18) 0.04590(9)
Fe1_2 Fe -0.56738(3) -0.56774(2) 0.082501(15)
N1_2 N 0.62796(15) 0.62250(15) 0.07981(12)
O8 O 0.3739(2) 0.5291(3) -0.15045(11)
O9 O -0.3208(2) 0.11598(19) 0.07191(9)
loop_
_geom_bond_atom_site_label_1
_geom_bond_atom_site_label_2
_geom_bond_site_symmetry_1
_geom_bond_site_symmetry_2
Fe1 O1 1_555 1_555
O2 Fe1 1_555 1_555
O3 Fe1 1_555 1_555
O4 Fe1 1_555 1_555
N1 C6 1_555 1_555
C1 H1 1_555 1_555
C2 H2 1_555 1_555
C3 C2 1_555 1_555
H3 C3 1_555 1_555
N2 Fe1 1_555 1_555
C4 C1 1_555 1_555
H4 C4 1_555 1_555
S1 O4 1_555 1_555
C5 C7 1_555 1_555
C6 H5 1_555 1_555
C7 C1 1_555 1_555
O5 S1 1_555 1_555
C8 N1 1_555 1_555
H6 C8 1_555 1_555
C9 C5 1_555 1_555
H7 C9 1_555 1_555
C10 C5 1_555 1_555
H8 C10 1_555 1_555
O6 S1 1_555 1_555
O7 S1 1_555 1_555
Fe1_2 N1 1_555 1_555
N1_2 Fe1 1_555 1_555
C2 C7 1_555 1_555
C3 N2 1_555 1_555
N2 C4 1_555 1_555
C6 C10 1_555 1_555
C8 C9 1_555 1_555

#END
