
#######################################################################
#
#                 Cambridge Crystallographic Data Centre
#                                CCDC 
#
#######################################################################
#
# If this CIF has been generated from an entry in the Cambridge 
# Structural Database, then it will include bibliographic, chemical, 
# crystal, experimental, refinement or atomic coordinate data resulting 
# from the CCDC's data processing and validation procedures.
#
#######################################################################

data_POQZUS
_symmetry_cell_setting           monoclinic
_symmetry_space_group_name_H-M   'C 2/c'
_symmetry_Int_Tables_number      15
_space_group_name_Hall           '-C 2yn'
loop_
_symmetry_equiv_pos_site_id
_symmetry_equiv_pos_as_xyz
1 x,y,z
2 -x,y,1/2-z
3 1/2+x,1/2+y,z
4 1/2-x,1/2+y,1/2-z
5 -x,-y,-z
6 x,-y,1/2+z
7 1/2-x,1/2-y,-z
8 1/2+x,1/2-y,1/2+z
_cell_length_a                   20.793(7)
_cell_length_b                   11.193(3)
_cell_length_c                   14.632(4)
_cell_angle_alpha                90
_cell_angle_beta                 92.944(8)
_cell_angle_gamma                90
_cell_volume                     3400.9
loop_
_atom_site_label
_atom_site_type_symbol
_atom_site_fract_x
_atom_site_fract_y
_atom_site_fract_z
Ag1 Ag 0.5000 0.13718(6) 0.2500
Ag2 Ag 0.7500 0.2500 0.0000
N1 N 0.5848(2) 0.0643(5) 0.0873(3)
N2 N 0.5644(2) 0.2520(4) 0.0861(4)
N3 N 0.7074(3) 0.1017(5) -0.0788(4)
C1 C 0.6041(3) 0.2321(6) 0.0164(5)
H1 H 0.6190 0.2892 -0.0236
C2 C 0.6179(3) 0.1137(5) 0.0160(4)
C3 C 0.5519(3) 0.1501(6) 0.1323(4)
C4 C 0.5393(3) 0.3700(5) 0.1112(5)
H2 H 0.4965 0.3613 0.1319
H3 H 0.5385 0.4216 0.0587
H4 H 0.5667 0.4039 0.1593
C5 C 0.6539(3) 0.0479(6) -0.0516(4)
C6 C 0.6326(3) -0.0592(6) -0.0889(5)
H5 H 0.5961 -0.0960 -0.0681
C7 C 0.6662(4) -0.1108(6) -0.1571(5)
H6 H 0.6531 -0.1838 -0.1820
C8 C 0.7187(4) -0.0541(7) -0.1877(5)
H7 H 0.7412 -0.0863 -0.2352
C9 C 0.7379(3) 0.0511(7) -0.1475(5)
H8 H 0.7738 0.0895 -0.1689
C10 C 0.5889(3) -0.0591(5) 0.1174(4)
C11 C 0.5336(3) -0.1258(6) 0.1179(4)
H9 H 0.4942 -0.0926 0.0985
C12 C 0.5372(4) -0.2436(6) 0.1476(5)
H10 H 0.5005 -0.2913 0.1466
C13 C 0.5952(5) -0.2882(7) 0.1782(5)
H11 H 0.5975 -0.3662 0.2001
C14 C 0.6497(4) -0.2219(7) 0.1778(5)
H12 H 0.6888 -0.2546 0.1991
C15 C 0.6474(3) -0.1057(6) 0.1457(4)
H13 H 0.6847 -0.0602 0.1434
N1A N 0.4152(2) 0.0643(5) 0.4127(3)
N2A N 0.4356(2) 0.2520(4) 0.4139(4)
N3A N 0.2926(3) 0.1017(5) 0.5788(4)
C1A C 0.3959(3) 0.2321(6) 0.4836(5)
H1A H 0.3810 0.2892 0.5236
C2A C 0.3821(3) 0.1137(5) 0.4840(4)
C3A C 0.4481(3) 0.1501(6) 0.3677(4)
C4A C 0.4607(3) 0.3700(5) 0.3888(5)
H2A H 0.5035 0.3613 0.3681
H3A H 0.4615 0.4216 0.4413
H4A H 0.4333 0.4039 0.3407
C5A C 0.3461(3) 0.0479(6) 0.5516(4)
C6A C 0.3674(3) -0.0592(6) 0.5889(5)
H5A H 0.4039 -0.0960 0.5681
C7A C 0.3338(4) -0.1108(6) 0.6571(5)
H6A H 0.3469 -0.1838 0.6820
C8A C 0.2813(4) -0.0541(7) 0.6877(5)
H7A H 0.2588 -0.0863 0.7352
C9A C 0.2621(3) 0.0511(7) 0.6475(5)
H8A H 0.2262 0.0895 0.6689
C10A C 0.4111(3) -0.0591(5) 0.3826(4)
C11A C 0.4664(3) -0.1258(6) 0.3821(4)
H9A H 0.5058 -0.0926 0.4015
C12A C 0.4628(4) -0.2436(6) 0.3524(5)
H10A H 0.4995 -0.2913 0.3534
C13A C 0.4048(5) -0.2882(7) 0.3218(5)
H11A H 0.4025 -0.3662 0.2999
C14A C 0.3503(4) -0.2219(7) 0.3222(5)
H12A H 0.3112 -0.2546 0.3009
C15A C 0.3526(3) -0.1057(6) 0.3543(4)
H13A H 0.3153 -0.0602 0.3566
Ag2A Ag 0.2500 0.2500 0.5000
N3F N 0.7926(3) 0.3983(5) 0.0788(4)
S1 S 0.84662(9) -0.01663(16) 0.12478(12)
O1 O 0.7947(2) 0.0698(4) 0.1211(3)
O2 O 0.8480(2) -0.0913(4) 0.2057(3)
O3 O 0.9081(2) 0.0365(4) 0.1089(4)
C16 C 0.8290(4) -0.1131(6) 0.0311(5)
H14 H 0.7892 -0.1541 0.0400
H15 H 0.8631 -0.1704 0.0269
H16 H 0.8250 -0.0673 -0.0243
loop_
_geom_bond_atom_site_label_1
_geom_bond_atom_site_label_2
_geom_bond_site_symmetry_1
_geom_bond_site_symmetry_2
Ag1 C3 1_555 1_555
Ag2 N3 1_555 1_555
N1 C2 1_555 1_555
N2 C1 1_555 1_555
N3 C5 1_555 1_555
C1 H1 1_555 1_555
C2 C1 1_555 1_555
C3 N1 1_555 1_555
C4 N2 1_555 1_555
H2 C4 1_555 1_555
H3 C4 1_555 1_555
H4 C4 1_555 1_555
C5 C2 1_555 1_555
C6 C5 1_555 1_555
H5 C6 1_555 1_555
C7 C6 1_555 1_555
H6 C7 1_555 1_555
C8 C7 1_555 1_555
H7 C8 1_555 1_555
C9 N3 1_555 1_555
H8 C9 1_555 1_555
C10 N1 1_555 1_555
C11 C10 1_555 1_555
H9 C11 1_555 1_555
C12 C11 1_555 1_555
H10 C12 1_555 1_555
C13 C12 1_555 1_555
H11 C13 1_555 1_555
C14 C13 1_555 1_555
H12 C14 1_555 1_555
C15 C10 1_555 1_555
H13 C15 1_555 1_555
S1 O1 1_555 1_555
O2 S1 1_555 1_555
O3 S1 1_555 1_555
C16 S1 1_555 1_555
H14 C16 1_555 1_555
H15 C16 1_555 1_555
H16 C16 1_555 1_555
N1A C2A 1_555 1_555
N2A C1A 1_555 1_555
N3A C5A 1_555 1_555
C1A H1A 1_555 1_555
C2A C1A 1_555 1_555
C3A Ag1 1_555 1_555
C4A N2A 1_555 1_555
H2A C4A 1_555 1_555
H3A C4A 1_555 1_555
H4A C4A 1_555 1_555
C5A C2A 1_555 1_555
C6A C5A 1_555 1_555
H5A C6A 1_555 1_555
C7A C6A 1_555 1_555
H6A C7A 1_555 1_555
C8A C7A 1_555 1_555
H7A C8A 1_555 1_555
C9A N3A 1_555 1_555
H8A C9A 1_555 1_555
C10A N1A 1_555 1_555
C11A C10A 1_555 1_555
H9A C11A 1_555 1_555
C12A C11A 1_555 1_555
H10A C12A 1_555 1_555
C13A C12A 1_555 1_555
H11A C13A 1_555 1_555
C14A C13A 1_555 1_555
H12A C14A 1_555 1_555
C15A C10A 1_555 1_555
H13A C15A 1_555 1_555
Ag2A N3A 1_555 1_555
N3F Ag2 1_555 1_555
N2 C3 1_555 1_555
C8 C9 1_555 1_555
C14 C15 1_555 1_555
N1A C3A 1_555 1_555
N2A C3A 1_555 1_555
C8A C9A 1_555 1_555
C14A C15A 1_555 1_555

#END
