
#######################################################################
#
#                 Cambridge Crystallographic Data Centre
#                                CCDC 
#
#######################################################################
#
# If this CIF has been generated from an entry in the Cambridge 
# Structural Database, then it will include bibliographic, chemical, 
# crystal, experimental, refinement or atomic coordinate data resulting 
# from the CCDC's data processing and validation procedures.
#
#######################################################################

data_PORBUU
_symmetry_cell_setting           monoclinic
_symmetry_space_group_name_H-M   'P 21'
_symmetry_Int_Tables_number      4
_space_group_name_Hall           'P 2yb'
loop_
_symmetry_equiv_pos_site_id
_symmetry_equiv_pos_as_xyz
1 x,y,z
2 -x,1/2+y,-z
_cell_length_a                   13.847(3)
_cell_length_b                   11.216(2)
_cell_length_c                   10.447(2)
_cell_angle_alpha                90
_cell_angle_beta                 110.12(3)
_cell_angle_gamma                90
_cell_volume                     1523.49
loop_
_atom_site_label
_atom_site_type_symbol
_atom_site_fract_x
_atom_site_fract_y
_atom_site_fract_z
Sn1 Sn 0.30574(5) 0.26123(6) 0.94674(8)
Sn2 Sn 0.16625(5) -0.04765(6) 0.95329(8)
Zn1 Zn 0.05510(9) 0.25821(13) 1.03025(15)
Zn2 Zn 0.53988(9) 0.46258(12) 0.93237(14)
Se1 Se 0.32215(9) -0.17126(10) 1.06942(14)
Se2 Se 0.02796(8) -0.18181(11) 0.80602(13)
Se3 Se 0.36883(8) 0.38676(10) 0.79057(12)
Se4 Se 0.09394(9) 0.05256(10) 1.11590(14)
Se5 Se 0.19915(9) 0.09984(10) 0.78299(14)
Se6 Se 0.45255(9) 0.17183(10) 1.14077(13)
Se7 Se 0.19612(9) 0.39006(11) 1.03486(17)
N1 N 0.5394(6) 0.4716(8) 1.1322(10)
H1 H 0.5256 0.3986 1.1574
H2 H 0.6026 0.4924 1.1880
C1 C 0.4485(10) 0.5378(16) 1.2882(15)
H3 H 0.3979 0.5936 1.2977
H4 H 0.4240 0.4575 1.2931
N2 N 0.5473(7) 0.5566(9) 1.3974(11)
C2 C 0.5622(13) 0.4785(13) 1.5119(18)
H5 H 0.5511 0.3964 1.4810
H6 H 0.5133 0.4978 1.5565
C3 C 0.6715(11) 0.4939(13) 1.6115(18)
H7 H 0.6822 0.4434 1.6905
H8 H 0.7204 0.4706 1.5682
N3 N 0.6882(10) 0.6201(12) 1.6544(13)
H9 H 0.7547 0.6300 1.7062
H10 H 0.6500 0.6368 1.7066
C4 C 0.6614(14) 0.7075(14) 1.5379(19)
H11 H 0.6662 0.7884 1.5726
H12 H 0.7093 0.6993 1.4890
C5 C 0.5545(10) 0.6833(12) 1.4441(15)
H13 H 0.5373 0.7364 1.3662
H14 H 0.5061 0.6972 1.4912
N4 N -0.0449(8) 0.2462(10) 0.8283(10)
H15 H -0.0827 0.3134 0.8081
H16 H -0.0069 0.2436 0.7737
C6 C -0.1133(9) 0.1467(17) 0.7965(11)
H17 H -0.1405 0.1387 0.8702
H18 H -0.0722 0.0762 0.7988
C7 C -0.2055(9) 0.143(2) 0.6620(12)
H19 H -0.2400 0.0666 0.6538
H20 H -0.2542 0.2049 0.6628
N5 N -0.1719(8) 0.1604(11) 0.5456(12)
C8 C -0.2666(12) 0.1926(19) 0.4286(18)
H21 H -0.2960 0.2652 0.4498
H22 H -0.3172 0.1295 0.4141
C9 C -0.2413(11) 0.2104(16) 0.3011(15)
H23 H -0.3046 0.2237 0.2252
H24 H -0.1991 0.2812 0.3115
N6 N -0.1876(9) 0.1102(12) 0.2699(13)
H25 H -0.1666 0.1316 0.2007
H26 H -0.2330 0.0503 0.2397
C10 C -0.0979(12) 0.0633(18) 0.380(2)
H27 H -0.0387 0.1141 0.3932
H28 H -0.0815 -0.0163 0.3578
C11 C -0.1256(13) 0.0600(18) 0.5147(18)
H29 H -0.1710 -0.0073 0.5085
H30 H -0.0628 0.0448 0.5907
C12 C 0.4639(8) 0.5571(10) 1.1499(12)
H31 H 0.3987 0.5472 1.0764
H32 H 0.4878 0.6378 1.1456
Zn1A Zn -0.05510(9) -0.24179(13) 0.96975(15)
Zn2A Zn 0.46012(9) -0.03742(12) 1.06763(14)
Se1A Se 0.67785(9) 0.32874(10) 0.93058(14)
Se2A Se -0.02796(8) 0.31819(11) 1.19398(13)
Se6A Se 0.54745(9) 0.67183(10) 0.85923(13)
loop_
_geom_bond_atom_site_label_1
_geom_bond_atom_site_label_2
_geom_bond_site_symmetry_1
_geom_bond_site_symmetry_2
Sn1 Se3 1_555 1_555
Sn2 Se1 1_555 1_555
Zn1 Se4 1_555 1_555
Zn2 Se3 1_555 1_555
Se1 Zn2A 1_555 1_555
Se2 Sn2 1_555 1_555
Se4 Sn2 1_555 1_555
Se5 Sn1 1_555 1_555
Se6 Sn1 1_555 1_555
Se7 Sn1 1_555 1_555
N1 Zn2 1_555 1_555
H1 N1 1_555 1_555
H2 N1 1_555 1_555
C1 H3 1_555 1_555
H4 C1 1_555 1_555
N2 C1 1_555 1_555
C2 N2 1_555 1_555
H5 C2 1_555 1_555
H6 C2 1_555 1_555
C3 C2 1_555 1_555
H7 C3 1_555 1_555
H8 C3 1_555 1_555
N3 C3 1_555 1_555
H9 N3 1_555 1_555
H10 N3 1_555 1_555
C4 N3 1_555 1_555
H11 C4 1_555 1_555
H12 C4 1_555 1_555
C5 N2 1_555 1_555
H13 C5 1_555 1_555
H14 C5 1_555 1_555
N4 Zn1 1_555 1_555
H15 N4 1_555 1_555
H16 N4 1_555 1_555
C6 N4 1_555 1_555
H17 C6 1_555 1_555
H18 C6 1_555 1_555
C7 C6 1_555 1_555
H19 C7 1_555 1_555
H20 C7 1_555 1_555
N5 C7 1_555 1_555
C8 N5 1_555 1_555
H21 C8 1_555 1_555
H22 C8 1_555 1_555
C9 C8 1_555 1_555
H23 C9 1_555 1_555
H24 C9 1_555 1_555
N6 C9 1_555 1_555
H25 N6 1_555 1_555
H26 N6 1_555 1_555
C10 N6 1_555 1_555
H27 C10 1_555 1_555
H28 C10 1_555 1_555
C11 N5 1_555 1_555
H29 C11 1_555 1_555
H30 C11 1_555 1_555
C12 N1 1_555 1_555
H31 C12 1_555 1_555
H32 C12 1_555 1_555
Zn1A Se2 1_555 1_555
Zn2A Se6 1_555 1_555
Se1A Zn2 1_555 1_555
Se2A Zn1 1_555 1_555
Se6A Zn2 1_555 1_555
Sn2 Se5 1_555 1_555
Zn1 Se7 1_555 1_555
C1 C12 1_555 1_555
C4 C5 1_555 1_555
C10 C11 1_555 1_555

#END
