
#######################################################################
#
#                 Cambridge Crystallographic Data Centre
#                                CCDC 
#
#######################################################################
#
# If this CIF has been generated from an entry in the Cambridge 
# Structural Database, then it will include bibliographic, chemical, 
# crystal, experimental, refinement or atomic coordinate data resulting 
# from the CCDC's data processing and validation procedures.
#
#######################################################################

data_PORGUA
_symmetry_cell_setting           monoclinic
_symmetry_space_group_name_H-M   'P 21/c'
_symmetry_Int_Tables_number      14
_space_group_name_Hall           '-P 2ybc'
loop_
_symmetry_equiv_pos_site_id
_symmetry_equiv_pos_as_xyz
1 x,y,z
2 -x,1/2+y,1/2-z
3 -x,-y,-z
4 x,1/2-y,1/2+z
_cell_length_a                   15.896(7)
_cell_length_b                   7.823(3)
_cell_length_c                   23.210(10)
_cell_angle_alpha                90
_cell_angle_beta                 92.895(7)
_cell_angle_gamma                90
_cell_volume                     2882.58
loop_
_atom_site_label
_atom_site_type_symbol
_atom_site_fract_x
_atom_site_fract_y
_atom_site_fract_z
Ni1 Ni 0.5000 1.0000 0.5000
Ni2 Ni 0.25010(2) 0.56884(5) 0.466433(14)
Ni3 Ni 0.0000 1.0000 0.5000
O1 O 0.40383(12) 0.9933(3) 0.43835(9)
O2 O 0.33747(13) 0.7576(3) 0.46241(9)
O3 O 0.15448(12) 0.7430(3) 0.45830(8)
O4 O 0.10595(13) 1.0112(3) 0.45034(9)
O5 O 0.08661(14) 1.4756(3) 0.13568(9)
O6 O 0.05166(13) 1.3214(3) 0.05651(8)
O7 O 0.25004(13) 0.9038(3) 0.05534(9)
O8 O 0.35053(13) 1.0555(3) 0.01877(8)
O9 O 0.49269(12) 1.2681(3) 0.49129(9)
H1 H 0.5378 1.3109 0.5023
H2 H 0.4506(7) 1.318(4) 0.5048(15)
O10 O 0.16146(17) 0.3664(3) 0.47545(11)
H3 H 0.1462 0.3645 0.5087
H4 H 0.155(3) 0.272(3) 0.4580(10)
O11 O -0.04912(13) 1.2001(3) 0.45293(8)
H5 H -0.0667 1.1657 0.4212
H6 H -0.0974 1.2298 0.4690
N1 N 0.26051(16) 0.5049(3) 0.38084(10)
N2 N 0.24655(16) 0.5347(3) 0.19975(10)
H7 H 0.1955 0.5491 0.1865
N3 N 0.41721(15) 0.5138(3) 0.06723(10)
C1 C 0.34650(16) 0.8869(4) 0.43072(11)
C2 C 0.28660(15) 0.9211(3) 0.37952(10)
C3 C 0.19852(16) 0.9214(3) 0.38128(11)
C4 C 0.15090(16) 0.8885(3) 0.43475(11)
C5 C 0.15069(16) 0.9573(4) 0.33097(11)
H8 H 0.0923 0.9594 0.3323
C6 C 0.18677(16) 0.9905(3) 0.27844(11)
C7 C 0.27607(17) 0.9970(3) 0.27668(11)
C8 C 0.32243(16) 0.9623(4) 0.32798(11)
H9 H 0.3809 0.9672 0.3276
C9 C 0.12801(16) 1.0119(3) 0.22700(11)
C10 C 0.07322(18) 0.8799(4) 0.21101(12)
H10 H 0.0707 0.7833 0.2342
C11 C 0.02207(19) 0.8905(4) 0.16080(13)
H11 H -0.0134 0.8003 0.1500
C12 C 0.02418(18) 1.0367(4) 0.12670(12)
H12 H -0.0077 1.0420 0.0920
C13 C 0.07399(16) 1.1743(4) 0.14451(11)
C14 C 0.12588(16) 1.1614(3) 0.19460(11)
H13 H 0.1594 1.2536 0.2064
C15 C 0.07086(16) 1.3375(4) 0.11005(11)
C16 C 0.32444(17) 1.0395(4) 0.22495(11)
C17 C 0.29973(18) 0.9899(3) 0.16876(11)
H14 H 0.2506 0.9268 0.1622
C18 C 0.34781(17) 1.0338(4) 0.12234(11)
C19 C 0.42410(17) 1.1200(4) 0.13173(12)
H15 H 0.4572 1.1453 0.1010
C20 C 0.45012(18) 1.1676(4) 0.18749(12)
H16 H 0.5009 1.2248 0.1942
C21 C 0.40038(18) 1.1297(4) 0.23307(11)
H17 H 0.4178 1.1650 0.2700
C22 C 0.31524(18) 0.9936(4) 0.06255(12)
C23 C 0.18823(19) 0.5054(4) 0.34900(13)
H18 H 0.1383 0.5002 0.3681
C24 C 0.18269(18) 0.5132(4) 0.28968(12)
H19 H 0.1302 0.5135 0.2700
C25 C 0.25598(18) 0.5205(4) 0.25908(12)
C26 C 0.33236(19) 0.5089(4) 0.29180(13)
H20 H 0.3832 0.5060 0.2737
C27 C 0.33119(19) 0.5020(4) 0.35102(13)
H21 H 0.3826 0.4949 0.3719
C28 C 0.30654(18) 0.5295(4) 0.15783(12)
C29 C 0.28263(18) 0.4564(4) 0.10464(13)
H22 H 0.2288 0.4115 0.0984
C30 C 0.33838(18) 0.4509(4) 0.06165(12)
H23 H 0.3209 0.4011 0.0267
C31 C 0.43911(17) 0.5902(4) 0.11775(12)
H24 H 0.4924 0.6391 0.1221
C32 C 0.38698(18) 0.6002(4) 0.16349(12)
H25 H 0.4054 0.6534 0.1977
Ni2B Ni -0.25010(2) 1.43116(5) 0.533567(14)
O1B O -0.40383(12) 1.0067(3) 0.56165(9)
O2B O -0.33747(13) 1.2424(3) 0.53759(9)
O3B O -0.15448(12) 1.2570(3) 0.54170(8)
O4B O -0.10595(13) 0.9888(3) 0.54966(9)
O5B O -0.08661(14) 0.5244(3) 0.86432(9)
O6B O -0.05166(13) 0.6786(3) 0.94349(8)
O7B O -0.25004(13) 1.0962(3) 0.94466(9)
O8B O -0.35053(13) 0.9445(3) 0.98123(8)
O10B O -0.16146(17) 1.6336(3) 0.52455(11)
H3B H -0.1462 1.6355 0.4913
H4B H -0.155(3) 1.728(3) 0.5420(10)
O11B O 0.04912(13) 0.7999(3) 0.54707(8)
H5B H 0.0667 0.8343 0.5788
H6B H 0.0974 0.7702 0.5310
N1B N -0.26051(16) 1.4951(3) 0.61916(10)
N2B N -0.24655(16) 1.4653(3) 0.80025(10)
H7B H -0.1955 1.4509 0.8135
N3B N -0.41721(15) 1.4862(3) 0.93277(10)
C1B C -0.34650(16) 1.1131(4) 0.56928(11)
C2B C -0.28660(15) 1.0789(3) 0.62048(10)
C3B C -0.19852(16) 1.0786(3) 0.61872(11)
C4B C -0.15090(16) 1.1115(3) 0.56525(11)
C5B C -0.15069(16) 1.0427(4) 0.66903(11)
H8B H -0.0923 1.0406 0.6677
C6B C -0.18677(16) 1.0095(3) 0.72156(11)
C7B C -0.27607(17) 1.0030(3) 0.72332(11)
C8B C -0.32243(16) 1.0377(4) 0.67202(11)
H9B H -0.3809 1.0328 0.6724
C9B C -0.12801(16) 0.9881(3) 0.77300(11)
C10B C -0.07322(18) 1.1201(4) 0.78899(12)
H10B H -0.0707 1.2167 0.7658
C11B C -0.02207(19) 1.1095(4) 0.83920(13)
H11B H 0.0134 1.1997 0.8500
C12B C -0.02418(18) 0.9633(4) 0.87330(12)
H12B H 0.0077 0.9580 0.9080
C13B C -0.07399(16) 0.8257(4) 0.85549(11)
C14B C -0.12588(16) 0.8386(3) 0.80540(11)
H13B H -0.1594 0.7464 0.7936
C15B C -0.07086(16) 0.6625(4) 0.88995(11)
C16B C -0.32444(17) 0.9605(4) 0.77505(11)
C17B C -0.29973(18) 1.0101(3) 0.83124(11)
H14B H -0.2506 1.0732 0.8378
C18B C -0.34781(17) 0.9662(4) 0.87766(11)
C19B C -0.42410(17) 0.8800(4) 0.86827(12)
H15B H -0.4572 0.8547 0.8990
C20B C -0.45012(18) 0.8324(4) 0.81251(12)
H16B H -0.5009 0.7752 0.8058
C21B C -0.40038(18) 0.8703(4) 0.76693(11)
H17B H -0.4178 0.8350 0.7300
C22B C -0.31524(18) 1.0064(4) 0.93745(12)
C23B C -0.18823(19) 1.4946(4) 0.65100(13)
H18B H -0.1383 1.4998 0.6319
C24B C -0.18269(18) 1.4868(4) 0.71032(12)
H19B H -0.1302 1.4865 0.7300
C25B C -0.25598(18) 1.4795(4) 0.74092(12)
C26B C -0.33236(19) 1.4911(4) 0.70820(13)
H20B H -0.3832 1.4940 0.7263
C27B C -0.33119(19) 1.4980(4) 0.64898(13)
H21B H -0.3826 1.5051 0.6281
C28B C -0.30654(18) 1.4705(4) 0.84217(12)
C29B C -0.28263(18) 1.5436(4) 0.89536(13)
H22B H -0.2288 1.5885 0.9016
C30B C -0.33838(18) 1.5491(4) 0.93835(12)
H23B H -0.3209 1.5989 0.9733
C31B C -0.43911(17) 1.4098(4) 0.88225(12)
H24B H -0.4924 1.3609 0.8779
C32B C -0.38698(18) 1.3998(4) 0.83651(12)
H25B H -0.4054 1.3466 0.8023
O9B O 0.50731(12) 0.7319(3) 0.50871(9)
H1B H 0.4622 0.6891 0.4977
H2B H 0.5494(7) 0.682(4) 0.4952(15)
Ni1_2 Ni -0.5000 1.0000 0.5000
Ni1A Ni -0.5000 1.5000 1.0000
Ni1A_2 Ni 0.5000 0.5000 0.0000
Ni2A Ni -0.25010(2) 1.06884(5) 1.033567(14)
Ni2C Ni 0.25010(2) 0.93116(5) -0.033567(14)
Ni3A Ni 0.0000 0.5000 1.0000
Ni3A_2 Ni 0.0000 1.5000 0.0000
O1B_2 O 0.59617(12) 1.0067(3) 0.56165(9)
O6A O -0.05166(13) 0.8214(3) 0.44349(8)
O6C O 0.05166(13) 1.1786(3) 0.55651(8)
O7A O -0.25004(13) 1.4038(3) 0.44466(9)
O7C O 0.25004(13) 0.5962(3) 0.55534(9)
O8A O -0.35053(13) 1.5555(3) 0.48123(8)
O8C O 0.35053(13) 0.4445(3) 0.51877(8)
N3A N 0.58279(15) 1.0138(3) 0.43277(10)
N3C N 0.41721(15) 0.9862(3) 0.56723(10)
loop_
_geom_bond_atom_site_label_1
_geom_bond_atom_site_label_2
_geom_bond_site_symmetry_1
_geom_bond_site_symmetry_2
Ni1 O1 1_555 1_555
Ni2 O2 1_555 1_555
Ni3 O4 1_555 1_555
O1 C1 1_555 1_555
O2 C1 1_555 1_555
O3 Ni2 1_555 1_555
O4 C4 1_555 1_555
O5 C15 1_555 1_555
O6 C15 1_555 1_555
O7 C22 1_555 1_555
O8 C22 1_555 1_555
O9 Ni1 1_555 1_555
H1 O9 1_555 1_555
H2 O9 1_555 1_555
O10 Ni2 1_555 1_555
H3 O10 1_555 1_555
H4 O10 1_555 1_555
O11 Ni3 1_555 1_555
H5 O11 1_555 1_555
H6 O11 1_555 1_555
N1 Ni2 1_555 1_555
N2 H7 1_555 1_555
N3 C30 1_555 1_555
C1 C2 1_555 1_555
C2 C3 1_555 1_555
C3 C4 1_555 1_555
C4 O3 1_555 1_555
C5 C3 1_555 1_555
H8 C5 1_555 1_555
C6 C5 1_555 1_555
C7 C6 1_555 1_555
C8 C2 1_555 1_555
H9 C8 1_555 1_555
C9 C6 1_555 1_555
C10 C9 1_555 1_555
H10 C10 1_555 1_555
C11 C10 1_555 1_555
H11 C11 1_555 1_555
C12 C11 1_555 1_555
H12 C12 1_555 1_555
C13 C12 1_555 1_555
C14 C9 1_555 1_555
H13 C14 1_555 1_555
C15 C13 1_555 1_555
C16 C7 1_555 1_555
C17 C16 1_555 1_555
H14 C17 1_555 1_555
C18 C17 1_555 1_555
C19 C18 1_555 1_555
H15 C19 1_555 1_555
C20 C19 1_555 1_555
H16 C20 1_555 1_555
C21 C16 1_555 1_555
H17 C21 1_555 1_555
C22 C18 1_555 1_555
C23 N1 1_555 1_555
H18 C23 1_555 1_555
C24 C23 1_555 1_555
H19 C24 1_555 1_555
C25 N2 1_555 1_555
C26 C25 1_555 1_555
H20 C26 1_555 1_555
C27 N1 1_555 1_555
H21 C27 1_555 1_555
C28 N2 1_555 1_555
C29 C28 1_555 1_555
H22 C29 1_555 1_555
C30 C29 1_555 1_555
H23 C30 1_555 1_555
C31 N3 1_555 1_555
H24 C31 1_555 1_555
C32 C28 1_555 1_555
H25 C32 1_555 1_555
Ni2B O2B 1_555 1_555
O1B C1B 1_555 1_555
O2B C1B 1_555 1_555
O3B Ni2B 1_555 1_555
O4B Ni3 1_555 1_555
O5B C15B 1_555 1_555
O6B C15B 1_555 1_555
O7B C22B 1_555 1_555
O8B C22B 1_555 1_555
O10B Ni2B 1_555 1_555
H3B O10B 1_555 1_555
H4B O10B 1_555 1_555
O11B Ni3 1_555 1_555
H5B O11B 1_555 1_555
H6B O11B 1_555 1_555
N1B Ni2B 1_555 1_555
N2B H7B 1_555 1_555
N3B C30B 1_555 1_555
C1B C2B 1_555 1_555
C2B C3B 1_555 1_555
C3B C4B 1_555 1_555
C4B O3B 1_555 1_555
C5B C3B 1_555 1_555
H8B C5B 1_555 1_555
C6B C5B 1_555 1_555
C7B C6B 1_555 1_555
C8B C2B 1_555 1_555
H9B C8B 1_555 1_555
C9B C6B 1_555 1_555
C10B C9B 1_555 1_555
H10B C10B 1_555 1_555
C11B C10B 1_555 1_555
H11B C11B 1_555 1_555
C12B C11B 1_555 1_555
H12B C12B 1_555 1_555
C13B C12B 1_555 1_555
C14B C9B 1_555 1_555
H13B C14B 1_555 1_555
C15B C13B 1_555 1_555
C16B C7B 1_555 1_555
C17B C16B 1_555 1_555
H14B C17B 1_555 1_555
C18B C17B 1_555 1_555
C19B C18B 1_555 1_555
H15B C19B 1_555 1_555
C20B C19B 1_555 1_555
H16B C20B 1_555 1_555
C21B C16B 1_555 1_555
H17B C21B 1_555 1_555
C22B C18B 1_555 1_555
C23B N1B 1_555 1_555
H18B C23B 1_555 1_555
C24B C23B 1_555 1_555
H19B C24B 1_555 1_555
C25B N2B 1_555 1_555
C26B C25B 1_555 1_555
H20B C26B 1_555 1_555
C27B N1B 1_555 1_555
H21B C27B 1_555 1_555
C28B N2B 1_555 1_555
C29B C28B 1_555 1_555
H22B C29B 1_555 1_555
C30B C29B 1_555 1_555
H23B C30B 1_555 1_555
C31B N3B 1_555 1_555
H24B C31B 1_555 1_555
C32B C28B 1_555 1_555
H25B C32B 1_555 1_555
O9B Ni1 1_555 1_555
H1B O9B 1_555 1_555
H2B O9B 1_555 1_555
Ni1_2 O1B 1_555 1_555
Ni1A N3B 1_555 1_555
Ni1A_2 N3 1_555 1_555
Ni2A O7B 1_555 1_555
Ni2C O7 1_555 1_555
Ni3A O6B 1_555 1_555
Ni3A_2 O6 1_555 1_555
O1B_2 Ni1 1_555 1_555
O6A Ni3 1_555 1_555
O6C Ni3 1_555 1_555
O7A Ni2B 1_555 1_555
O7C Ni2 1_555 1_555
O8A Ni2B 1_555 1_555
O8C Ni2 1_555 1_555
N3A Ni1 1_555 1_555
N3C Ni1 1_555 1_555
O8 Ni2C 1_555 1_555
C7 C8 1_555 1_555
C13 C14 1_555 1_555
C20 C21 1_555 1_555
C24 C25 1_555 1_555
C26 C27 1_555 1_555
C31 C32 1_555 1_555
O4B C4B 1_555 1_555
O8B Ni2A 1_555 1_555
C7B C8B 1_555 1_555
C13B C14B 1_555 1_555
C20B C21B 1_555 1_555
C24B C25B 1_555 1_555
C26B C27B 1_555 1_555
C31B C32B 1_555 1_555

#END
