
#######################################################################
#
#                 Cambridge Crystallographic Data Centre
#                                CCDC 
#
#######################################################################
#
# If this CIF has been generated from an entry in the Cambridge 
# Structural Database, then it will include bibliographic, chemical, 
# crystal, experimental, refinement or atomic coordinate data resulting 
# from the CCDC's data processing and validation procedures.
#
#######################################################################

data_PORHEL
_symmetry_cell_setting           monoclinic
_symmetry_space_group_name_H-M   'C 2/c'
_symmetry_Int_Tables_number      15
_space_group_name_Hall           '-C 2yn'
loop_
_symmetry_equiv_pos_site_id
_symmetry_equiv_pos_as_xyz
1 x,y,z
2 -x,y,1/2-z
3 1/2+x,1/2+y,z
4 1/2-x,1/2+y,1/2-z
5 -x,-y,-z
6 x,-y,1/2+z
7 1/2-x,1/2-y,-z
8 1/2+x,1/2-y,1/2+z
_cell_length_a                   28.550(2)
_cell_length_b                   7.7222(7)
_cell_length_c                   24.645(2)
_cell_angle_alpha                90
_cell_angle_beta                 106.196(19)
_cell_angle_gamma                90
_cell_volume                     5217.82
loop_
_atom_site_label
_atom_site_type_symbol
_atom_site_fract_x
_atom_site_fract_y
_atom_site_fract_z
Co1 Co 0.223812(13) 0.35221(5) 0.662454(15)
O1 O 0.16937(7) 0.4394(2) 0.59403(8)
O2 O 0.17015(7) 0.7234(2) 0.61127(9)
O3 O 0.13830(8) 0.0406(3) 0.28359(12)
O4 O 0.09616(9) -0.1652(3) 0.31243(12)
H1 H 0.1150 -0.2280 0.3018
O5 O -0.16031(7) 0.6408(3) 0.21281(9)
O6 O -0.19299(7) 0.5400(3) 0.27833(8)
O7 O -0.17903(6) 0.8770(2) 0.33338(9)
O8 O -0.11441(7) 1.0455(3) 0.36984(10)
H2 H -0.1352 1.1094 0.3763
O9 O 0.26117(7) 0.5918(3) 0.66057(9)
H3 H 0.2384 0.6662 0.6516
H4 H 0.2818 0.6339 0.6893
O10 O 0.27950(7) 0.2747(3) 0.73273(9)
H5 H 0.2834 0.1664 0.7382
H6 H 0.3052 0.3351 0.7370
N1 N 0.25821(9) 0.2230(3) 0.60972(11)
N2 N 0.29091(9) 0.0096(3) 0.57283(11)
C1 C 0.15211(10) 0.5901(3) 0.58308(11)
C2 C 0.10846(10) 0.6073(3) 0.53251(11)
C3 C 0.08248(10) 0.4598(4) 0.51000(11)
H7 H 0.0924 0.3526 0.5264
C4 C 0.04188(10) 0.4699(4) 0.46345(12)
H8 H 0.0243 0.3700 0.4499
C5 C 0.02708(9) 0.6286(3) 0.43668(11)
C6 C 0.05368(10) 0.7766(4) 0.45876(12)
H9 H 0.0447 0.8830 0.4413
C7 C 0.09358(10) 0.7671(4) 0.50667(12)
H10 H 0.1104 0.8674 0.5215
C8 C -0.01762(9) 0.6350(3) 0.38803(11)
C9 C -0.02858(9) 0.5039(4) 0.34620(11)
C10 C 0.00716(10) 0.3704(4) 0.33954(11)
C11 C 0.05339(10) 0.4193(4) 0.33612(12)
H11 H 0.0629 0.5348 0.3410
C12 C 0.08509(10) 0.2972(4) 0.32555(12)
H12 H 0.1156 0.3314 0.3229
C13 C 0.07175(10) 0.1239(4) 0.31881(12)
C14 C 0.02611(10) 0.0732(4) 0.32336(12)
H13 H 0.0172 -0.0431 0.3199
C15 C -0.00612(10) 0.1961(4) 0.33311(13)
H14 H -0.0368 0.1621 0.3354
C16 C 0.10518(10) -0.0023(4) 0.30324(13)
C17 C -0.07458(10) 0.5036(4) 0.30719(12)
H15 H -0.0820 0.4165 0.2801
C18 C -0.10975(9) 0.6279(3) 0.30714(11)
C19 C -0.09819(9) 0.7639(3) 0.34618(11)
C20 C -0.05214(9) 0.7657(4) 0.38550(11)
H16 H -0.0442 0.8572 0.4109
C21 C -0.15816(10) 0.6065(3) 0.26285(12)
C22 C -0.13463(10) 0.8991(3) 0.34886(12)
C23 C 0.26241(12) 0.0532(4) 0.60576(14)
H17 H 0.2474 -0.0266 0.6237
C24 C 0.28615(13) 0.2905(4) 0.57782(15)
H18 H 0.2906 0.4080 0.5727
C25 C 0.30631(14) 0.1607(4) 0.55488(16)
H19 H 0.3267 0.1723 0.5315
C26 C 0.30498(13) -0.1676(4) 0.56116(15)
H20 H 0.2993 -0.2456 0.5895
H21 H 0.3396 -0.1696 0.5642
C27 C 0.27681(12) -0.2328(4) 0.50270(14)
H22 H 0.2792 -0.1476 0.4747
H23 H 0.2918 -0.3389 0.4947
N1F N 0.24179(9) -0.7230(3) 0.39028(11)
N2F N 0.20909(9) -0.5096(3) 0.42717(11)
C23F C 0.23759(12) -0.5532(4) 0.39424(14)
H17F H 0.2526 -0.4734 0.3763
C24F C 0.21385(13) -0.7905(4) 0.42218(15)
H18F H 0.2094 -0.9080 0.4273
C25F C 0.19369(14) -0.6607(4) 0.44512(16)
H19F H 0.1733 -0.6723 0.4685
C26F C 0.19502(13) -0.3324(4) 0.43884(15)
H20F H 0.2007 -0.2544 0.4105
H21F H 0.1604 -0.3304 0.4358
C27F C 0.22319(12) -0.2672(4) 0.49730(14)
H22F H 0.2208 -0.3524 0.5253
H23F H 0.2082 -0.1611 0.5053
Co1D Co -0.223812(13) 0.64779(5) 0.337546(15)
O1D O -0.16937(7) 0.5606(2) 0.40597(8)
O2D O -0.17015(7) 0.2766(2) 0.38873(9)
O3D O -0.13830(8) 0.9594(3) 0.71641(12)
O4D O -0.09616(9) 1.1652(3) 0.68757(12)
H1D H -0.1150 1.2280 0.6982
O5D O 0.16031(7) 0.3592(3) 0.78719(9)
O6D O 0.19299(7) 0.4600(3) 0.72167(8)
O7D O 0.17903(6) 0.1230(2) 0.66662(9)
O8D O 0.11441(7) -0.0455(3) 0.63016(10)
H2D H 0.1352 -0.1094 0.6237
O9D O -0.26117(7) 0.4082(3) 0.33943(9)
H3D H -0.2384 0.3338 0.3484
H4D H -0.2818 0.3661 0.3107
O10D O -0.27950(7) 0.7253(3) 0.26727(9)
H5D H -0.2834 0.8336 0.2618
H6D H -0.3052 0.6649 0.2630
C1D C -0.15211(10) 0.4099(3) 0.41692(11)
C2D C -0.10846(10) 0.3927(3) 0.46749(11)
C3D C -0.08248(10) 0.5402(4) 0.49000(11)
H7D H -0.0924 0.6474 0.4736
C4D C -0.04188(10) 0.5301(4) 0.53655(12)
H8D H -0.0243 0.6300 0.5501
C5D C -0.02708(9) 0.3714(3) 0.56332(11)
C6D C -0.05368(10) 0.2234(4) 0.54124(12)
H9D H -0.0447 0.1170 0.5587
C7D C -0.09358(10) 0.2329(4) 0.49333(12)
H10D H -0.1104 0.1326 0.4785
C8D C 0.01762(9) 0.3650(3) 0.61197(11)
C9D C 0.02858(9) 0.4961(4) 0.65380(11)
C10D C -0.00716(10) 0.6296(4) 0.66046(11)
C11D C -0.05339(10) 0.5807(4) 0.66388(12)
H11D H -0.0629 0.4652 0.6590
C12D C -0.08509(10) 0.7028(4) 0.67445(12)
H12D H -0.1156 0.6686 0.6771
C13D C -0.07175(10) 0.8761(4) 0.68119(12)
C14D C -0.02611(10) 0.9268(4) 0.67664(12)
H13D H -0.0172 1.0431 0.6801
C15D C 0.00612(10) 0.8039(4) 0.66689(13)
H14D H 0.0368 0.8379 0.6646
C16D C -0.10518(10) 1.0023(4) 0.69676(13)
C17D C 0.07458(10) 0.4964(4) 0.69281(12)
H15D H 0.0820 0.5835 0.7199
C18D C 0.10975(9) 0.3721(3) 0.69286(11)
C19D C 0.09819(9) 0.2361(3) 0.65382(11)
C20D C 0.05214(9) 0.2343(4) 0.61450(11)
H16D H 0.0442 0.1428 0.5891
C21D C 0.15816(10) 0.3935(3) 0.73715(12)
C22D C 0.13463(10) 0.1009(3) 0.65114(12)
Co1F Co 0.276188(13) -0.85221(5) 0.337546(15)
N1D N -0.25821(9) 0.7770(3) 0.39028(11)
loop_
_geom_bond_atom_site_label_1
_geom_bond_atom_site_label_2
_geom_bond_site_symmetry_1
_geom_bond_site_symmetry_2
Co1 O1 1_555 1_555
O1 C1 1_555 1_555
O2 C1 1_555 1_555
O3 C16 1_555 1_555
O4 H1 1_555 1_555
O5 C21 1_555 1_555
O6 C21 1_555 1_555
O7 C22 1_555 1_555
O8 H2 1_555 1_555
O9 Co1 1_555 1_555
H3 O9 1_555 1_555
H4 O9 1_555 1_555
O10 Co1 1_555 1_555
H5 O10 1_555 1_555
H6 O10 1_555 1_555
N1 Co1 1_555 1_555
N2 C23 1_555 1_555
C1 C2 1_555 1_555
C2 C3 1_555 1_555
C3 H7 1_555 1_555
C4 C3 1_555 1_555
H8 C4 1_555 1_555
C5 C4 1_555 1_555
C6 C5 1_555 1_555
H9 C6 1_555 1_555
C7 C2 1_555 1_555
H10 C7 1_555 1_555
C8 C5 1_555 1_555
C9 C8 1_555 1_555
C10 C9 1_555 1_555
C11 C10 1_555 1_555
H11 C11 1_555 1_555
C12 C11 1_555 1_555
H12 C12 1_555 1_555
C13 C12 1_555 1_555
C14 C13 1_555 1_555
H13 C14 1_555 1_555
C15 C10 1_555 1_555
H14 C15 1_555 1_555
C16 O4 1_555 1_555
C17 C9 1_555 1_555
H15 C17 1_555 1_555
C18 C17 1_555 1_555
C19 C18 1_555 1_555
C20 C8 1_555 1_555
H16 C20 1_555 1_555
C21 C18 1_555 1_555
C22 O8 1_555 1_555
C23 N1 1_555 1_555
H17 C23 1_555 1_555
C24 N1 1_555 1_555
H18 C24 1_555 1_555
C25 N2 1_555 1_555
H19 C25 1_555 1_555
C26 N2 1_555 1_555
H20 C26 1_555 1_555
H21 C26 1_555 1_555
C27 C26 1_555 1_555
H22 C27 1_555 1_555
H23 C27 1_555 1_555
N1F C23F 1_555 1_555
N2F C23F 1_555 1_555
C23F H17F 1_555 1_555
C24F N1F 1_555 1_555
H18F C24F 1_555 1_555
C25F N2F 1_555 1_555
H19F C25F 1_555 1_555
C26F N2F 1_555 1_555
H20F C26F 1_555 1_555
H21F C26F 1_555 1_555
C27F C27 1_555 1_555
H22F C27F 1_555 1_555
H23F C27F 1_555 1_555
Co1D O6 1_555 1_555
O1D Co1D 1_555 1_555
O2D C1D 1_555 1_555
O3D C16D 1_555 1_555
O4D H1D 1_555 1_555
O5D C21D 1_555 1_555
O6D Co1 1_555 1_555
O7D Co1 1_555 1_555
O8D H2D 1_555 1_555
O9D Co1D 1_555 1_555
H3D O9D 1_555 1_555
H4D O9D 1_555 1_555
O10D Co1D 1_555 1_555
H5D O10D 1_555 1_555
H6D O10D 1_555 1_555
C1D O1D 1_555 1_555
C2D C1D 1_555 1_555
C3D C2D 1_555 1_555
H7D C3D 1_555 1_555
C4D C3D 1_555 1_555
H8D C4D 1_555 1_555
C5D C4D 1_555 1_555
C6D C5D 1_555 1_555
H9D C6D 1_555 1_555
C7D C2D 1_555 1_555
H10D C7D 1_555 1_555
C8D C5D 1_555 1_555
C9D C8D 1_555 1_555
C10D C9D 1_555 1_555
C11D C10D 1_555 1_555
H11D C11D 1_555 1_555
C12D C11D 1_555 1_555
H12D C12D 1_555 1_555
C13D C12D 1_555 1_555
C14D C13D 1_555 1_555
H13D C14D 1_555 1_555
C15D C10D 1_555 1_555
H14D C15D 1_555 1_555
C16D O4D 1_555 1_555
C17D C9D 1_555 1_555
H15D C17D 1_555 1_555
C18D C17D 1_555 1_555
C19D C18D 1_555 1_555
C20D C8D 1_555 1_555
H16D C20D 1_555 1_555
C21D O6D 1_555 1_555
C22D O7D 1_555 1_555
Co1F N1F 1_555 1_555
N1D Co1D 1_555 1_555
O7 Co1D 1_555 1_555
C6 C7 1_555 1_555
C13 C16 1_555 1_555
C14 C15 1_555 1_555
C19 C20 1_555 1_555
C19 C22 1_555 1_555
C24 C25 1_555 1_555
C24F C25F 1_555 1_555
C26F C27F 1_555 1_555
O8D C22D 1_555 1_555
C6D C7D 1_555 1_555
C13D C16D 1_555 1_555
C14D C15D 1_555 1_555
C18D C21D 1_555 1_555
C19D C20D 1_555 1_555
C19D C22D 1_555 1_555

#END
