
#######################################################################
#
#                 Cambridge Crystallographic Data Centre
#                                CCDC 
#
#######################################################################
#
# If this CIF has been generated from an entry in the Cambridge 
# Structural Database, then it will include bibliographic, chemical, 
# crystal, experimental, refinement or atomic coordinate data resulting 
# from the CCDC's data processing and validation procedures.
#
#######################################################################

data_PORHAH
_symmetry_cell_setting           triclinic
_symmetry_space_group_name_H-M   'P -1'
_symmetry_Int_Tables_number      2
_space_group_name_Hall           '-P 1'
loop_
_symmetry_equiv_pos_site_id
_symmetry_equiv_pos_as_xyz
1 x,y,z
2 -x,-y,-z
_cell_length_a                   10.454(5)
_cell_length_b                   10.739(5)
_cell_length_c                   13.686(7)
_cell_angle_alpha                99.384(6)
_cell_angle_beta                 99.642(6)
_cell_angle_gamma                94.786(6)
_cell_volume                     1484.77
loop_
_atom_site_label
_atom_site_type_symbol
_atom_site_fract_x
_atom_site_fract_y
_atom_site_fract_z
Mn1 Mn 0.53783(3) 0.43247(3) 0.17973(2)
O1 O 0.4500(2) 0.26850(16) 0.07628(14)
O2 O 0.45597(19) 0.20250(16) -0.08319(14)
O3 O 0.3146(2) 0.0607(2) -0.22084(14)
H1 H 0.367(3) 0.111(3) -0.170(2)
O4 O 0.14825(18) -0.08480(18) -0.24399(12)
O5 O -0.30238(15) -0.51582(16) 0.11180(13)
O6 O -0.13476(17) -0.59041(18) 0.19846(16)
O7 O 0.13658(19) -0.0852(2) 0.56616(13)
H2 H 0.139(4) -0.095(3) 0.6268(16)
O8 O 0.3321(2) -0.1559(2) 0.58378(13)
O9 O 0.42520(16) 0.55557(16) 0.09159(13)
H3 H 0.461(3) 0.6285(18) 0.095(2)
H4 H 0.379(3) 0.528(2) 0.0328(15)
O10 O 0.66060(19) 0.3167(2) 0.26704(18)
H5 H 0.6594 0.2578 0.3063
H6 H 0.7385 0.3417 0.2524
N1 N 0.3771(2) 0.42305(19) 0.27431(15)
N2 N 0.5887(2) 0.5976(2) 0.31285(17)
C1 C 0.4220(2) 0.1875(2) -0.00158(18)
C2 C 0.3384(2) 0.06685(18) 0.00500(16)
C3 C 0.2552(2) -0.01686(19) -0.07517(15)
C4 C 0.2369(2) -0.0137(2) -0.18635(16)
C5 C 0.1758(2) -0.11520(19) -0.05195(15)
H7 H 0.1215 -0.1710 -0.1045
C6 C 0.1744(2) -0.13331(19) 0.04592(15)
C7 C 0.2577(2) -0.05128(19) 0.12543(15)
C8 C 0.3393(2) 0.0452(2) 0.10263(16)
H8 H 0.3971 0.0976 0.1552
C9 C 0.0844(2) -0.23879(19) 0.06409(15)
C10 C -0.0490(2) -0.2468(2) 0.02812(18)
H9 H -0.0811 -0.1901 -0.0120
C11 C -0.1348(2) -0.3384(2) 0.05140(18)
H10 H -0.2240 -0.3415 0.0281
C12 C -0.0883(2) -0.4256(2) 0.10936(16)
C13 C 0.0452(2) -0.4217(2) 0.14083(18)
H11 H 0.0778 -0.4817 0.1772
C14 C 0.1307(2) -0.3291(2) 0.11857(17)
H12 H 0.2201 -0.3275 0.1404
C15 C -0.1802(2) -0.5190(2) 0.14192(18)
C16 C 0.2563(2) -0.0603(2) 0.23285(15)
C17 C 0.1404(2) -0.0538(2) 0.26983(16)
H13 H 0.0652 -0.0395 0.2282
C18 C 0.1359(2) -0.0684(2) 0.36801(16)
H14 H 0.0581 -0.0631 0.3921
C19 C 0.2468(2) -0.0909(2) 0.43012(15)
C20 C 0.3634(2) -0.0926(2) 0.39467(16)
H15 H 0.4390 -0.1050 0.4368
C21 C 0.3685(2) -0.0759(2) 0.29726(17)
H16 H 0.4478 -0.0751 0.2749
C22 C 0.2438(3) -0.1142(2) 0.53438(16)
C23 C 0.2668(3) 0.3428(3) 0.2472(2)
H17 H 0.2604 0.2779 0.1920
C24 C 0.1623(3) 0.3510(3) 0.2963(3)
H18 H 0.0882 0.2922 0.2761
C25 C 0.1714(4) 0.4486(4) 0.3760(3)
H19 H 0.1017 0.4582 0.4098
C26 C 0.2828(4) 0.5321(3) 0.4060(3)
H20 H 0.2895 0.5981 0.4604
C27 C 0.3861(3) 0.5171(2) 0.35405(19)
C28 C 0.5112(3) 0.6017(2) 0.38237(19)
C29 C 0.5478(4) 0.6814(3) 0.4757(2)
H21 H 0.4943 0.6814 0.5236
C30 C 0.6627(4) 0.7598(3) 0.4968(3)
H22 H 0.6879 0.8136 0.5588
C31 C 0.7402(4) 0.7578(3) 0.4250(3)
H23 H 0.8182 0.8111 0.4371
C32 C 0.6998(4) 0.6744(3) 0.3338(3)
H24 H 0.7528 0.6724 0.2855
Mn1_2 Mn -0.46217(3) -0.56753(3) 0.17973(2)
O5_2 O 0.69762(15) 0.48418(16) 0.11180(13)
loop_
_geom_bond_atom_site_label_1
_geom_bond_atom_site_label_2
_geom_bond_site_symmetry_1
_geom_bond_site_symmetry_2
Mn1 O1 1_555 1_555
O1 C1 1_555 1_555
O2 C1 1_555 1_555
O3 H1 1_555 1_555
O4 C4 1_555 1_555
O5 C15 1_555 1_555
O6 C15 1_555 1_555
O7 H2 1_555 1_555
O8 C22 1_555 1_555
O9 Mn1 1_555 1_555
H3 O9 1_555 1_555
H4 O9 1_555 1_555
O10 Mn1 1_555 1_555
H5 O10 1_555 1_555
H6 O10 1_555 1_555
N1 Mn1 1_555 1_555
N2 Mn1 1_555 1_555
C1 C2 1_555 1_555
C2 C3 1_555 1_555
C3 C4 1_555 1_555
C4 O3 1_555 1_555
C5 C3 1_555 1_555
H7 C5 1_555 1_555
C6 C5 1_555 1_555
C7 C6 1_555 1_555
C8 C2 1_555 1_555
H8 C8 1_555 1_555
C9 C6 1_555 1_555
C10 C9 1_555 1_555
H9 C10 1_555 1_555
C11 C10 1_555 1_555
H10 C11 1_555 1_555
C12 C11 1_555 1_555
C13 C12 1_555 1_555
H11 C13 1_555 1_555
C14 C9 1_555 1_555
H12 C14 1_555 1_555
C15 C12 1_555 1_555
C16 C7 1_555 1_555
C17 C16 1_555 1_555
H13 C17 1_555 1_555
C18 C17 1_555 1_555
H14 C18 1_555 1_555
C19 C18 1_555 1_555
C20 C19 1_555 1_555
H15 C20 1_555 1_555
C21 C16 1_555 1_555
H16 C21 1_555 1_555
C22 O7 1_555 1_555
C23 N1 1_555 1_555
H17 C23 1_555 1_555
C24 C23 1_555 1_555
H18 C24 1_555 1_555
C25 C24 1_555 1_555
H19 C25 1_555 1_555
C26 C25 1_555 1_555
H20 C26 1_555 1_555
C27 N1 1_555 1_555
C28 N2 1_555 1_555
C29 C28 1_555 1_555
H21 C29 1_555 1_555
C30 C29 1_555 1_555
H22 C30 1_555 1_555
C31 C30 1_555 1_555
H23 C31 1_555 1_555
C32 N2 1_555 1_555
H24 C32 1_555 1_555
Mn1_2 O5 1_555 1_555
O5_2 Mn1 1_555 1_555
C7 C8 1_555 1_555
C13 C14 1_555 1_555
C19 C22 1_555 1_555
C20 C21 1_555 1_555
C26 C27 1_555 1_555
C27 C28 1_555 1_555
C31 C32 1_555 1_555

#END
