
#######################################################################
#
#                 Cambridge Crystallographic Data Centre
#                                CCDC 
#
#######################################################################
#
# If this CIF has been generated from an entry in the Cambridge 
# Structural Database, then it will include bibliographic, chemical, 
# crystal, experimental, refinement or atomic coordinate data resulting 
# from the CCDC's data processing and validation procedures.
#
#######################################################################

data_PORHOV
_symmetry_cell_setting           monoclinic
_symmetry_space_group_name_H-M   'P 21/c'
_symmetry_Int_Tables_number      14
_space_group_name_Hall           '-P 2ybc'
loop_
_symmetry_equiv_pos_site_id
_symmetry_equiv_pos_as_xyz
1 x,y,z
2 -x,1/2+y,1/2-z
3 -x,-y,-z
4 x,1/2-y,1/2+z
_cell_length_a                   14.444(8)
_cell_length_b                   6.526(4)
_cell_length_c                   23.959(13)
_cell_angle_alpha                90
_cell_angle_beta                 97.852(7)
_cell_angle_gamma                90
_cell_volume                     2237.24
loop_
_atom_site_label
_atom_site_type_symbol
_atom_site_fract_x
_atom_site_fract_y
_atom_site_fract_z
Co1 Co 1.0000 -0.5000 0.5000
Co2 Co 0.5000 0.0000 0.5000
Co3 Co 0.39620(2) 0.49977(4) 0.475038(13)
O1 O 0.83652(16) -0.5734(3) 0.39062(8)
O2 O 0.87466(14) -0.3619(3) 0.46279(7)
O3 O 0.65134(12) -0.3758(2) 0.45327(7)
O4 O 0.62894(13) -0.0436(2) 0.47086(7)
O5 O 0.91373(17) -0.2384(3) 0.12186(9)
H1 H 0.9250 -0.2935 0.0928
O6 O 0.94104(15) 0.0489(3) 0.07520(8)
O7 O 0.58430(14) 0.1274(3) 0.10215(7)
O8 O 0.56897(14) 0.4616(3) 0.08283(7)
O9 O 0.95103(14) -0.7791(3) 0.46730(8)
H2 H 0.9217 -0.8728 0.4822
H3 H 0.9069 -0.7419 0.4422
O10 O 0.51142(11) 0.3058(2) 0.47661(6)
H4 H 0.5290 0.3058 0.4385
O11 O 0.31000(13) 0.2869(3) 0.42131(8)
H5 H 0.3403 0.1779 0.4167
H6 H 0.2973 0.3450 0.3894
O12 O 0.27959(13) 0.7020(3) 0.48113(10)
H7 H 0.2997 0.7975 0.5037
H8 H 0.2457 0.6351 0.5011
C1 C 0.83438(16) -0.4040(4) 0.41331(10)
C2 C 0.78599(16) -0.2294(3) 0.37955(9)
C3 C 0.70777(16) -0.1271(3) 0.39403(9)
C4 C 0.65958(15) -0.1885(3) 0.44324(9)
C5 C 0.66859(16) 0.0324(3) 0.35996(10)
H9 H 0.6157 0.0980 0.3694
C6 C 0.70576(16) 0.0967(3) 0.31255(9)
C7 C 0.78860(17) 0.0040(3) 0.30051(10)
C8 C 0.82571(16) -0.1613(4) 0.33310(10)
H10 H 0.8783 -0.2277 0.3236
C9 C 0.83983(17) 0.0929(4) 0.25594(10)
C10 C 0.85843(18) -0.0195(4) 0.20960(11)
H11 H 0.8423 -0.1574 0.2065
C11 C 0.90148(17) 0.0751(4) 0.16757(10)
C12 C 0.92063(18) -0.0398(4) 0.11702(11)
C13 C 0.92647(18) 0.2803(4) 0.17222(11)
H12 H 0.9529 0.3440 0.1435
C14 C 0.91202(19) 0.3896(4) 0.21959(11)
H13 H 0.9314 0.5252 0.2237
C15 C 0.86845(18) 0.2965(4) 0.26109(11)
H14 H 0.8582 0.3711 0.2927
C16 C 0.65770(16) 0.2546(3) 0.27403(9)
C17 C 0.63914(16) 0.2135(3) 0.21644(9)
H15 H 0.6529 0.0847 0.2032
C18 C 0.60043(16) 0.3614(3) 0.17841(9)
C19 C 0.58310(16) 0.3117(3) 0.11645(9)
C20 C 0.57899(18) 0.5548(4) 0.19873(10)
H16 H 0.5553 0.6568 0.1737
C21 C 0.59295(18) 0.5939(4) 0.25597(10)
H17 H 0.5762 0.7205 0.2693
C22 C 0.63194(17) 0.4452(4) 0.29379(10)
H18 H 0.6409 0.4726 0.3322
Co3B Co 0.60380(2) -0.49977(4) 0.524962(13)
O1B O 0.16348(16) 0.5734(3) 0.60938(8)
O2B O 0.12534(14) 0.3619(3) 0.53721(7)
O3B O 0.34866(12) 0.3758(2) 0.54673(7)
O4B O 0.37106(13) 0.0436(2) 0.52914(7)
O5B O 0.08627(17) 0.2384(3) 0.87814(9)
H1B H 0.0750 0.2935 0.9072
O6B O 0.05896(15) -0.0489(3) 0.92480(8)
O7B O 0.41570(14) -0.1274(3) 0.89785(7)
O8B O 0.43103(14) -0.4616(3) 0.91717(7)
O10B O 0.48858(11) -0.3058(2) 0.52339(6)
H4B H 0.4710 -0.3058 0.5615
O11B O 0.69000(13) -0.2869(3) 0.57869(8)
H5B H 0.6597 -0.1779 0.5833
H6B H 0.7027 -0.3450 0.6106
O12B O 0.72041(13) -0.7020(3) 0.51887(10)
H7B H 0.7003 -0.7975 0.4963
H8B H 0.7543 -0.6351 0.4989
C1B C 0.16562(16) 0.4040(4) 0.58669(10)
C2B C 0.21401(16) 0.2294(3) 0.62045(9)
C3B C 0.29223(16) 0.1271(3) 0.60597(9)
C4B C 0.34042(15) 0.1885(3) 0.55676(9)
C5B C 0.33141(16) -0.0324(3) 0.64004(10)
H9B H 0.3843 -0.0980 0.6306
C6B C 0.29424(16) -0.0967(3) 0.68745(9)
C7B C 0.21140(17) -0.0040(3) 0.69949(10)
C8B C 0.17429(16) 0.1613(4) 0.66690(10)
H10B H 0.1217 0.2277 0.6764
C9B C 0.16017(17) -0.0929(4) 0.74406(10)
C10B C 0.14157(18) 0.0195(4) 0.79040(11)
H11B H 0.1577 0.1574 0.7935
C11B C 0.09852(17) -0.0751(4) 0.83243(10)
C12B C 0.07937(18) 0.0398(4) 0.88298(11)
C13B C 0.07353(18) -0.2803(4) 0.82778(11)
H12B H 0.0471 -0.3440 0.8565
C14B C 0.08798(19) -0.3896(4) 0.78041(11)
H13B H 0.0686 -0.5252 0.7763
C15B C 0.13155(18) -0.2965(4) 0.73891(11)
H14B H 0.1418 -0.3711 0.7073
C16B C 0.34230(16) -0.2546(3) 0.72597(9)
C17B C 0.36086(16) -0.2135(3) 0.78356(9)
H15B H 0.3471 -0.0847 0.7968
C18B C 0.39957(16) -0.3614(3) 0.82159(9)
C19B C 0.41690(16) -0.3117(3) 0.88355(9)
C20B C 0.42101(18) -0.5548(4) 0.80127(10)
H16B H 0.4447 -0.6568 0.8263
C21B C 0.40705(18) -0.5939(4) 0.74403(10)
H17B H 0.4238 -0.7205 0.7307
C22B C 0.36806(17) -0.4452(4) 0.70621(10)
H18B H 0.3591 -0.4726 0.6678
O9B O 1.04897(14) -0.2209(3) 0.53270(8)
H2B H 1.0783 -0.1272 0.5178
H3B H 1.0931 -0.2581 0.5578
Co1_2 Co 0.0000 0.5000 0.5000
Co1A Co 0.0000 0.0000 1.0000
Co1A_2 Co 1.0000 0.0000 0.0000
Co2A Co 0.5000 -0.5000 1.0000
Co2A_2 Co 0.5000 0.5000 0.0000
Co3_2 Co 0.39620(2) -0.50023(4) 0.475038(13)
Co3A Co 0.60380(2) -0.00023(4) 0.024962(13)
Co3B_2 Co 0.60380(2) 0.50023(4) 0.524962(13)
Co3C Co 0.39620(2) 0.00023(4) 0.975038(13)
O2B_2 O 1.12534(14) -0.6381(3) 0.53721(7)
O6A O 1.05896(15) -0.4511(3) 0.42480(8)
O6C O 0.94104(15) -0.5489(3) 0.57520(8)
O7A O 0.41570(14) 0.6274(3) 0.39785(7)
O7C O 0.58430(14) -0.6274(3) 0.60215(7)
O8A O 0.43103(14) -0.0384(3) 0.41717(7)
O8C O 0.56897(14) 0.0384(3) 0.58283(7)
O10_2 O 0.51142(11) -0.6942(2) 0.47661(6)
O10B_2 O 0.48858(11) 0.6942(2) 0.52339(6)
O13 O 0.85991(16) 0.5465(3) 0.02995(9)
H19 H 0.8051 0.5188 0.0367
H20 H 0.8650 0.6240 0.0020
loop_
_geom_bond_atom_site_label_1
_geom_bond_atom_site_label_2
_geom_bond_site_symmetry_1
_geom_bond_site_symmetry_2
Co1 O2 1_555 1_555
Co2 O4 1_555 1_555
Co3 O10 1_555 1_555
O1 C1 1_555 1_555
O2 C1 1_555 1_555
O3 C4 1_555 1_555
O4 C4 1_555 1_555
O5 H1 1_555 1_555
O6 C12 1_555 1_555
O7 C19 1_555 1_555
O8 C19 1_555 1_555
O9 Co1 1_555 1_555
H2 O9 1_555 1_555
H3 O9 1_555 1_555
O10 Co2 1_555 1_555
H4 O10 1_555 1_555
O11 Co3 1_555 1_555
H5 O11 1_555 1_555
H6 O11 1_555 1_555
O12 Co3 1_555 1_555
H7 O12 1_555 1_555
H8 O12 1_555 1_555
C1 C2 1_555 1_555
C2 C3 1_555 1_555
C3 C4 1_555 1_555
C5 C3 1_555 1_555
H9 C5 1_555 1_555
C6 C5 1_555 1_555
C7 C6 1_555 1_555
C8 C2 1_555 1_555
H10 C8 1_555 1_555
C9 C7 1_555 1_555
C10 C9 1_555 1_555
H11 C10 1_555 1_555
C11 C10 1_555 1_555
C12 O5 1_555 1_555
C13 C11 1_555 1_555
H12 C13 1_555 1_555
C14 C13 1_555 1_555
H13 C14 1_555 1_555
C15 C9 1_555 1_555
H14 C15 1_555 1_555
C16 C6 1_555 1_555
C17 C16 1_555 1_555
H15 C17 1_555 1_555
C18 C17 1_555 1_555
C19 C18 1_555 1_555
C20 C18 1_555 1_555
H16 C20 1_555 1_555
C21 C20 1_555 1_555
H17 C21 1_555 1_555
C22 C16 1_555 1_555
H18 C22 1_555 1_555
O13 H19 1_555 1_555
H20 O13 1_555 1_555
Co3B O3 1_555 1_555
O1B C1B 1_555 1_555
O2B C1B 1_555 1_555
O3B Co3 1_555 1_555
O4B Co2 1_555 1_555
O5B H1B 1_555 1_555
O6B C12B 1_555 1_555
O7B C19B 1_555 1_555
O8B C19B 1_555 1_555
O10B Co2 1_555 1_555
H4B O10B 1_555 1_555
O11B Co3B 1_555 1_555
H5B O11B 1_555 1_555
H6B O11B 1_555 1_555
O12B Co3B 1_555 1_555
H7B O12B 1_555 1_555
H8B O12B 1_555 1_555
C1B C2B 1_555 1_555
C2B C3B 1_555 1_555
C3B C4B 1_555 1_555
C4B O3B 1_555 1_555
C5B C3B 1_555 1_555
H9B C5B 1_555 1_555
C6B C5B 1_555 1_555
C7B C6B 1_555 1_555
C8B C2B 1_555 1_555
H10B C8B 1_555 1_555
C9B C7B 1_555 1_555
C10B C9B 1_555 1_555
H11B C10B 1_555 1_555
C11B C10B 1_555 1_555
C12B O5B 1_555 1_555
C13B C11B 1_555 1_555
H12B C13B 1_555 1_555
C14B C13B 1_555 1_555
H13B C14B 1_555 1_555
C15B C9B 1_555 1_555
H14B C15B 1_555 1_555
C16B C6B 1_555 1_555
C17B C16B 1_555 1_555
H15B C17B 1_555 1_555
C18B C17B 1_555 1_555
C19B C18B 1_555 1_555
C20B C18B 1_555 1_555
H16B C20B 1_555 1_555
C21B C20B 1_555 1_555
H17B C21B 1_555 1_555
C22B C16B 1_555 1_555
H18B C22B 1_555 1_555
O9B Co1 1_555 1_555
H2B O9B 1_555 1_555
H3B O9B 1_555 1_555
Co1_2 O2B 1_555 1_555
Co1A O6B 1_555 1_555
Co1A_2 O6 1_555 1_555
Co2A O8B 1_555 1_555
Co2A_2 O8 1_555 1_555
Co3_2 O10B 1_555 1_555
Co3A O7 1_555 1_555
Co3B_2 O10 1_555 1_555
Co3C O7B 1_555 1_555
O2B_2 Co1 1_555 1_555
O6A Co1 1_555 1_555
O6C Co1 1_555 1_555
O7A Co3 1_555 1_555
O7C Co3B 1_555 1_555
O8A Co2 1_555 1_555
O8C Co2 1_555 1_555
O10_2 Co3B 1_555 1_555
O10B_2 Co3 1_555 1_555
C7 C8 1_555 1_555
C11 C12 1_555 1_555
C14 C15 1_555 1_555
C21 C22 1_555 1_555
Co3B O10B 1_555 1_555
O4B C4B 1_555 1_555
C7B C8B 1_555 1_555
C11B C12B 1_555 1_555
C14B C15B 1_555 1_555
C21B C22B 1_555 1_555
Co3_2 O10_2 1_555 1_555
Co3B_2 O10B_2 1_555 1_555

#END
