
#######################################################################
#
#                 Cambridge Crystallographic Data Centre
#                                CCDC 
#
#######################################################################
#
# If this CIF has been generated from an entry in the Cambridge 
# Structural Database, then it will include bibliographic, chemical, 
# crystal, experimental, refinement or atomic coordinate data resulting 
# from the CCDC's data processing and validation procedures.
#
#######################################################################

data_PORHIP
_symmetry_cell_setting           monoclinic
_symmetry_space_group_name_H-M   'C 2/c'
_symmetry_Int_Tables_number      15
_space_group_name_Hall           '-C 2yn'
loop_
_symmetry_equiv_pos_site_id
_symmetry_equiv_pos_as_xyz
1 x,y,z
2 -x,y,1/2-z
3 1/2+x,1/2+y,z
4 1/2-x,1/2+y,1/2-z
5 -x,-y,-z
6 x,-y,1/2+z
7 1/2-x,1/2-y,-z
8 1/2+x,1/2-y,1/2+z
_cell_length_a                   28.966(4)
_cell_length_b                   7.6922(7)
_cell_length_c                   24.702(3)
_cell_angle_alpha                90
_cell_angle_beta                 107.507(6)
_cell_angle_gamma                90
_cell_volume                     5248.97
loop_
_atom_site_label
_atom_site_type_symbol
_atom_site_fract_x
_atom_site_fract_y
_atom_site_fract_z
Co1 Co 0.220678(17) 0.65636(6) 0.66876(2)
O1 O 0.16763(9) 0.5689(3) 0.59820(11)
O2 O 0.16921(10) 0.2846(3) 0.61625(13)
O3 O -0.11355(9) -0.0533(3) 0.36883(13)
H1 H -0.1343 -0.1159 0.3779
O4 O -0.17724(9) 0.1124(3) 0.32605(14)
O5 O -0.19104(9) 0.4545(3) 0.27346(11)
O6 O -0.15879(10) 0.3535(4) 0.20916(12)
O7 O 0.09443(12) 1.1594(4) 0.31283(15)
H2 H 0.1151 1.2225 0.3039
O8 O 0.14068(12) 0.9488(5) 0.2946(2)
O9 O 0.27631(11) 0.7275(4) 0.74251(15)
H3 H 0.3000 0.6627 0.7422
H4 H 0.2867 0.8294 0.7527
O10 O 0.26181(10) 0.4288(3) 0.66676(13)
H5 H 0.2920 0.4455 0.6817
H6 H 0.2439 0.3393 0.6629
N1 N 0.25333(12) 0.7982(4) 0.61780(15)
N2 N 0.28505(12) 1.0055(4) 0.58028(14)
N3 N 0.29756(18) 0.8568(6) 0.5597(2)
C1 C 0.15107(13) 0.4166(5) 0.58677(16)
C2 C 0.10841(13) 0.3976(5) 0.53503(16)
C3 C 0.08044(13) 0.5418(5) 0.51220(16)
H7 H 0.0888 0.6499 0.5292
C4 C 0.04055(13) 0.5280(5) 0.46497(16)
H8 H 0.0220 0.6262 0.4510
C5 C 0.02751(12) 0.3676(5) 0.43765(15)
C6 C 0.05568(14) 0.2217(5) 0.45984(16)
H9 H 0.0477 0.1144 0.4422
C7 C 0.09526(14) 0.2357(5) 0.50780(16)
H10 H 0.1134 0.1373 0.5223
C8 C -0.01695(13) 0.3566(5) 0.38785(15)
C9 C -0.05133(12) 0.2263(5) 0.38471(15)
H11 H -0.0435 0.1349 0.4105
C10 C -0.09695(12) 0.2284(4) 0.34433(15)
C11 C -0.13312(13) 0.0900(5) 0.34541(16)
C12 C -0.10864(12) 0.3638(4) 0.30485(15)
C13 C -0.15663(13) 0.3871(4) 0.25899(16)
C14 C -0.07373(13) 0.4888(5) 0.30549(16)
H12 H -0.0811 0.5759 0.2781
C15 C -0.02829(13) 0.4882(5) 0.34550(16)
C16 C 0.00727(13) 0.6217(5) 0.33991(16)
C17 C 0.05342(14) 0.5718(5) 0.33924(16)
H13 H 0.0629 0.4561 0.3452
C18 C 0.08509(14) 0.6947(5) 0.32978(17)
H14 H 0.1156 0.6606 0.3286
C19 C 0.07161(14) 0.8686(5) 0.32199(17)
C20 C 0.02651(14) 0.9195(5) 0.32412(17)
H15 H 0.0178 1.0362 0.3198
C21 C -0.00606(14) 0.7971(5) 0.33277(17)
H16 H -0.0365 0.8318 0.3338
C22 C 0.10578(14) 0.9950(6) 0.30905(19)
C23 C 0.25895(16) 0.9692(6) 0.61494(19)
H17 H 0.2465 1.0514 0.6343
C24 C 0.2773(2) 0.7361(6) 0.5824(2)
H18 H 0.2792 0.6183 0.5749
C25 C 0.30218(18) 1.1741(6) 0.5661(2)
H19 H 0.3367 1.1669 0.5715
H20 H 0.2970 1.2615 0.5920
C26 C 0.27685(16) 1.2311(6) 0.5056(2)
H21 H 0.2804 1.1405 0.4798
H22 H 0.2926 1.3348 0.4974
N1F N 0.24667(12) 1.7018(4) 0.38220(15)
N2F N 0.21495(12) 1.4945(4) 0.41972(14)
N3F N 0.20244(18) 1.6432(6) 0.4403(2)
C23F C 0.24105(16) 1.5308(6) 0.38506(19)
H17F H 0.2535 1.4486 0.3657
C24F C 0.2227(2) 1.7639(6) 0.4176(2)
H18F H 0.2208 1.8817 0.4251
C25F C 0.19782(18) 1.3259(6) 0.4339(2)
H19F H 0.1633 1.3331 0.4285
H20F H 0.2030 1.2385 0.4080
C26F C 0.22315(16) 1.2689(6) 0.4944(2)
H21F H 0.2196 1.3595 0.5202
H22F H 0.2074 1.1652 0.5026
Co1D Co -0.220678(17) 0.34364(6) 0.33124(2)
O1D O -0.16763(9) 0.4311(3) 0.40180(11)
O2D O -0.16921(10) 0.7154(3) 0.38375(13)
O3D O 0.11355(9) 1.0533(3) 0.63117(13)
H1D H 0.1343 1.1159 0.6221
O4D O 0.17724(9) 0.8876(3) 0.67395(14)
O5D O 0.19104(9) 0.5455(3) 0.72654(11)
O6D O 0.15879(10) 0.6465(4) 0.79084(12)
O7D O -0.09443(12) -0.1594(4) 0.68717(15)
H2D H -0.1151 -0.2225 0.6961
O8D O -0.14068(12) 0.0512(5) 0.7054(2)
O9D O -0.27631(11) 0.2725(4) 0.25749(15)
H3D H -0.3000 0.3373 0.2578
H4D H -0.2867 0.1706 0.2473
O10D O -0.26181(10) 0.5712(3) 0.33324(13)
H5D H -0.2920 0.5545 0.3183
H6D H -0.2439 0.6607 0.3371
C1D C -0.15107(13) 0.5834(5) 0.41323(16)
C2D C -0.10841(13) 0.6024(5) 0.46497(16)
C3D C -0.08044(13) 0.4582(5) 0.48780(16)
H7D H -0.0888 0.3501 0.4708
C4D C -0.04055(13) 0.4720(5) 0.53503(16)
H8D H -0.0220 0.3738 0.5490
C5D C -0.02751(12) 0.6324(5) 0.56235(15)
C6D C -0.05568(14) 0.7783(5) 0.54016(16)
H9D H -0.0477 0.8856 0.5578
C7D C -0.09526(14) 0.7643(5) 0.49220(16)
H10D H -0.1134 0.8627 0.4777
C8D C 0.01695(13) 0.6434(5) 0.61215(15)
C9D C 0.05133(12) 0.7737(5) 0.61529(15)
H11D H 0.0435 0.8651 0.5895
C10D C 0.09695(12) 0.7716(4) 0.65567(15)
C11D C 0.13312(13) 0.9100(5) 0.65459(16)
C12D C 0.10864(12) 0.6362(4) 0.69515(15)
C13D C 0.15663(13) 0.6129(4) 0.74101(16)
C14D C 0.07373(13) 0.5112(5) 0.69451(16)
H12D H 0.0811 0.4241 0.7219
C15D C 0.02829(13) 0.5118(5) 0.65450(16)
C16D C -0.00727(13) 0.3783(5) 0.66009(16)
C17D C -0.05342(14) 0.4282(5) 0.66076(16)
H13D H -0.0629 0.5439 0.6548
C18D C -0.08509(14) 0.3053(5) 0.67022(17)
H14D H -0.1156 0.3394 0.6714
C19D C -0.07161(14) 0.1314(5) 0.67801(17)
C20D C -0.02651(14) 0.0805(5) 0.67588(17)
H15D H -0.0178 -0.0362 0.6802
C21D C 0.00606(14) 0.2029(5) 0.66723(17)
H16D H 0.0365 0.1682 0.6662
C22D C -0.10578(14) 0.0050(6) 0.69095(19)
Co1F Co 0.279322(17) 1.84364(6) 0.33124(2)
N1D N -0.25333(12) 0.2018(4) 0.38220(15)
O11 O 0.3434(2) 0.6325(8) 0.4906(3)
H23 H 0.3313 0.7001 0.5100
H24 H 0.3425 0.6843 0.4599
loop_
_geom_bond_atom_site_label_1
_geom_bond_atom_site_label_2
_geom_bond_site_symmetry_1
_geom_bond_site_symmetry_2
Co1 O1 1_555 1_555
O1 C1 1_555 1_555
O2 C1 1_555 1_555
O3 H1 1_555 1_555
O4 C11 1_555 1_555
O5 C13 1_555 1_555
O6 C13 1_555 1_555
O7 H2 1_555 1_555
O8 C22 1_555 1_555
O9 Co1 1_555 1_555
H3 O9 1_555 1_555
H4 O9 1_555 1_555
O10 Co1 1_555 1_555
H5 O10 1_555 1_555
H6 O10 1_555 1_555
N1 Co1 1_555 1_555
N2 N3 1_555 1_555
N3 C24 1_555 1_555
C1 C2 1_555 1_555
C2 C3 1_555 1_555
C3 H7 1_555 1_555
C4 C3 1_555 1_555
H8 C4 1_555 1_555
C5 C4 1_555 1_555
C6 C5 1_555 1_555
H9 C6 1_555 1_555
C7 C2 1_555 1_555
H10 C7 1_555 1_555
C8 C5 1_555 1_555
C9 C8 1_555 1_555
H11 C9 1_555 1_555
C10 C9 1_555 1_555
C11 O3 1_555 1_555
C12 C10 1_555 1_555
C13 C12 1_555 1_555
C14 C12 1_555 1_555
H12 C14 1_555 1_555
C15 C8 1_555 1_555
C16 C15 1_555 1_555
C17 C16 1_555 1_555
H13 C17 1_555 1_555
C18 C17 1_555 1_555
H14 C18 1_555 1_555
C19 C18 1_555 1_555
C20 C19 1_555 1_555
H15 C20 1_555 1_555
C21 C16 1_555 1_555
H16 C21 1_555 1_555
C22 O7 1_555 1_555
C23 N1 1_555 1_555
H17 C23 1_555 1_555
C24 N1 1_555 1_555
H18 C24 1_555 1_555
C25 N2 1_555 1_555
H19 C25 1_555 1_555
H20 C25 1_555 1_555
C26 C25 1_555 1_555
H21 C26 1_555 1_555
H22 C26 1_555 1_555
O11 H23 1_555 1_555
H24 O11 1_555 1_555
N1F C23F 1_555 1_555
N2F N3F 1_555 1_555
N3F C24F 1_555 1_555
C23F N2F 1_555 1_555
H17F C23F 1_555 1_555
C24F N1F 1_555 1_555
H18F C24F 1_555 1_555
C25F N2F 1_555 1_555
H19F C25F 1_555 1_555
H20F C25F 1_555 1_555
C26F C26 1_555 1_555
H21F C26F 1_555 1_555
H22F C26F 1_555 1_555
Co1D O4 1_555 1_555
O1D Co1D 1_555 1_555
O2D C1D 1_555 1_555
O3D H1D 1_555 1_555
O4D Co1 1_555 1_555
O5D Co1 1_555 1_555
O6D C13D 1_555 1_555
O7D H2D 1_555 1_555
O8D C22D 1_555 1_555
O9D Co1D 1_555 1_555
H3D O9D 1_555 1_555
H4D O9D 1_555 1_555
O10D Co1D 1_555 1_555
H5D O10D 1_555 1_555
H6D O10D 1_555 1_555
C1D O1D 1_555 1_555
C2D C1D 1_555 1_555
C3D C2D 1_555 1_555
H7D C3D 1_555 1_555
C4D C3D 1_555 1_555
H8D C4D 1_555 1_555
C5D C4D 1_555 1_555
C6D C5D 1_555 1_555
H9D C6D 1_555 1_555
C7D C2D 1_555 1_555
H10D C7D 1_555 1_555
C8D C5D 1_555 1_555
C9D C8D 1_555 1_555
H11D C9D 1_555 1_555
C10D C9D 1_555 1_555
C11D O3D 1_555 1_555
C12D C10D 1_555 1_555
C13D O5D 1_555 1_555
C14D C12D 1_555 1_555
H12D C14D 1_555 1_555
C15D C8D 1_555 1_555
C16D C15D 1_555 1_555
C17D C16D 1_555 1_555
H13D C17D 1_555 1_555
C18D C17D 1_555 1_555
H14D C18D 1_555 1_555
C19D C18D 1_555 1_555
C20D C19D 1_555 1_555
H15D C20D 1_555 1_555
C21D C16D 1_555 1_555
H16D C21D 1_555 1_555
C22D O7D 1_555 1_555
Co1F N1F 1_555 1_555
N1D Co1D 1_555 1_555
O5 Co1D 1_555 1_555
N2 C23 1_555 1_555
C6 C7 1_555 1_555
C10 C11 1_555 1_555
C14 C15 1_555 1_555
C19 C22 1_555 1_555
C20 C21 1_555 1_555
C25F C26F 1_555 1_555
O4D C11D 1_555 1_555
C6D C7D 1_555 1_555
C10D C11D 1_555 1_555
C12D C13D 1_555 1_555
C14D C15D 1_555 1_555
C19D C22D 1_555 1_555
C20D C21D 1_555 1_555

#END
