
#######################################################################
#
#                 Cambridge Crystallographic Data Centre
#                                CCDC 
#
#######################################################################
#
# If this CIF has been generated from an entry in the Cambridge 
# Structural Database, then it will include bibliographic, chemical, 
# crystal, experimental, refinement or atomic coordinate data resulting 
# from the CCDC's data processing and validation procedures.
#
#######################################################################

data_PORKOY
_symmetry_cell_setting           triclinic
_symmetry_space_group_name_H-M   'P -1'
_symmetry_Int_Tables_number      2
_space_group_name_Hall           '-P 1'
loop_
_symmetry_equiv_pos_site_id
_symmetry_equiv_pos_as_xyz
1 x,y,z
2 -x,-y,-z
_cell_length_a                   6.8815(4)
_cell_length_b                   9.3593(7)
_cell_length_c                   9.5343(6)
_cell_angle_alpha                101.107(6)
_cell_angle_beta                 94.051(5)
_cell_angle_gamma                101.228(6)
_cell_volume                     587.288
loop_
_atom_site_label
_atom_site_type_symbol
_atom_site_fract_x
_atom_site_fract_y
_atom_site_fract_z
Co1 Co 0.0000 0.0000 0.5000
Cl1 Cl 0.29073(8) 0.16844(6) 0.63915(6)
C1 C 0.3836(4) -0.5364(3) 0.2466(3)
N1 N -0.1405(3) -0.0215(2) 0.6910(2)
N2 N 0.3063(3) -0.4988(2) 0.1136(2)
C2 C 0.0873(3) -0.3197(3) 0.4019(2)
N3 N 0.2272(3) -0.3617(2) -0.0250(2)
N4 N 0.2044(3) -0.4104(2) 0.4326(2)
N5 N -0.2086(3) -0.0986(2) 0.8871(2)
N6 N 0.1307(3) -0.1959(2) 0.5022(2)
N7 N -0.0802(3) -0.0907(2) 0.7942(2)
N8 N -0.3552(3) -0.0333(2) 0.84399(19)
N9 N 0.3244(3) -0.3412(2) 0.5555(2)
N10 N 0.2996(3) -0.3567(2) 0.1061(2)
C3 C -0.3116(3) 0.0133(3) 0.7243(2)
N11 N 0.2792(3) -0.2132(2) 0.5966(2)
N12 N 0.1864(3) -0.5043(2) -0.1034(2)
C4 C 0.2272(4) -0.5548(3) 0.3509(3)
C5 C 0.2353(4) -0.5865(3) -0.0152(3)
C6 C -0.5325(3) -0.0264(3) 0.9198(2)
H1 H 0.269(4) -0.605(3) 0.417(3)
H2 H -0.007(4) -0.346(3) 0.321(3)
H3 H 0.099(4) -0.612(3) 0.301(3)
H4 H 0.432(4) -0.627(3) 0.219(3)
H5 H -0.599(4) 0.041(3) 0.883(3)
H6 H -0.393(4) 0.055(3) 0.670(3)
H7 H 0.489(4) -0.460(3) 0.289(3)
H8 H 0.225(4) -0.688(3) -0.030(3)
H9 H -0.616(4) -0.124(3) 0.900(3)
N1A N -0.8595(3) 0.0215(2) 1.3090(2)
N5A N -0.7914(3) 0.0986(2) 1.1129(2)
N7A N -0.9198(3) 0.0907(2) 1.2058(2)
N8A N -0.6448(3) 0.0333(2) 1.15601(19)
C3A C -0.6884(3) -0.0133(3) 1.2757(2)
C6A C -0.4675(3) 0.0264(3) 1.0802(2)
H5A H -0.401(4) -0.041(3) 1.117(3)
H6A H -0.607(4) -0.055(3) 1.330(3)
H9A H -0.384(4) 0.124(3) 1.100(3)
C1A C -0.3836(4) 0.5364(3) 0.7534(3)
N2A N -0.3063(3) 0.4988(2) 0.8864(2)
C2A C -0.0873(3) 0.3197(3) 0.5981(2)
N3A N -0.2272(3) 0.3617(2) 1.0250(2)
N4A N -0.2044(3) 0.4104(2) 0.5674(2)
N6A N -0.1307(3) 0.1959(2) 0.4978(2)
N9A N -0.3244(3) 0.3412(2) 0.4445(2)
N10A N -0.2996(3) 0.3567(2) 0.8939(2)
N11A N -0.2792(3) 0.2132(2) 0.4034(2)
N12A N -0.1864(3) 0.5043(2) 1.1034(2)
C4A C -0.2272(4) 0.5548(3) 0.6491(3)
C5A C -0.2353(4) 0.5865(3) 1.0152(3)
H1A H -0.269(4) 0.605(3) 0.583(3)
H2A H 0.007(4) 0.346(3) 0.679(3)
H3A H -0.099(4) 0.612(3) 0.699(3)
H4A H -0.432(4) 0.627(3) 0.781(3)
H7A H -0.489(4) 0.460(3) 0.711(3)
H8A H -0.225(4) 0.688(3) 1.030(3)
Cl1A Cl -0.29073(8) -0.16844(6) 0.36085(6)
Co1_2 Co -1.0000 0.0000 1.5000
N1A_2 N 0.1405(3) 0.0215(2) 0.3090(2)
loop_
_geom_bond_atom_site_label_1
_geom_bond_atom_site_label_2
_geom_bond_site_symmetry_1
_geom_bond_site_symmetry_2
Co1 Cl1 1_555 1_555
C1 N2 1_555 1_555
N1 Co1 1_555 1_555
N2 N10 1_555 1_555
C2 N4 1_555 1_555
N3 N10 1_555 1_555
N4 N9 1_555 1_555
N5 N7 1_555 1_555
N6 Co1 1_555 1_555
N7 N1 1_555 1_555
N8 N5 1_555 1_555
N9 N11 1_555 1_555
C3 N1 1_555 1_555
N11 N6 1_555 1_555
N12 N3 1_555 1_555
C4 C1 1_555 1_555
C5 N2 1_555 1_555
C6 N8 1_555 1_555
H1 C4 1_555 1_555
H2 C2 1_555 1_555
H3 C4 1_555 1_555
H4 C1 1_555 1_555
H5 C6 1_555 1_555
H6 C3 1_555 1_555
H7 C1 1_555 1_555
H8 C5 1_555 1_555
H9 C6 1_555 1_555
N1A N7A 1_555 1_555
N5A N7A 1_555 1_555
N8A N5A 1_555 1_555
C3A N1A 1_555 1_555
C6A C6 1_555 1_555
H5A C6A 1_555 1_555
H6A C3A 1_555 1_555
H9A C6A 1_555 1_555
C1A N2A 1_555 1_555
N2A N10A 1_555 1_555
C2A N4A 1_555 1_555
N3A N10A 1_555 1_555
N4A N9A 1_555 1_555
N6A Co1 1_555 1_555
N9A N11A 1_555 1_555
N11A N6A 1_555 1_555
N12A N3A 1_555 1_555
C4A C1A 1_555 1_555
C5A N2A 1_555 1_555
H1A C4A 1_555 1_555
H2A C2A 1_555 1_555
H3A C4A 1_555 1_555
H4A C1A 1_555 1_555
H7A C1A 1_555 1_555
H8A C5A 1_555 1_555
Cl1A Co1 1_555 1_555
Co1_2 N1A 1_555 1_555
N1A_2 Co1 1_555 1_555
C2 N6 1_555 1_555
N4 C4 1_555 1_555
N8 C3 1_555 1_555
N12 C5 1_555 1_555
N8A C3A 1_555 1_555
N8A C6A 1_555 1_555
C2A N6A 1_555 1_555
N4A C4A 1_555 1_555
N12A C5A 1_555 1_555

#END
