
#######################################################################
#
#                 Cambridge Crystallographic Data Centre
#                                CCDC 
#
#######################################################################
#
# If this CIF has been generated from an entry in the Cambridge 
# Structural Database, then it will include bibliographic, chemical, 
# crystal, experimental, refinement or atomic coordinate data resulting 
# from the CCDC's data processing and validation procedures.
#
#######################################################################

data_PORQIW
_symmetry_cell_setting           tetragonal
_symmetry_space_group_name_H-M   'I 41/a'
_symmetry_Int_Tables_number      88
_space_group_name_Hall           '-I 4ad'
loop_
_symmetry_equiv_pos_site_id
_symmetry_equiv_pos_as_xyz
1 x,y,z
2 3/4-y,1/4+x,1/4+z
3 1/2+x,1/2+y,1/2+z
4 1/4-y,3/4+x,3/4+z
5 1/4+y,1/4-x,1/4+z
6 1/2-x,-y,1/2+z
7 3/4+y,3/4-x,3/4+z
8 -x,1/2-y,z
9 -x,-y,-z
10 1/4+y,3/4-x,3/4-z
11 1/2-x,1/2-y,1/2-z
12 3/4+y,1/4-x,1/4-z
13 3/4-y,3/4+x,3/4-z
14 1/2+x,y,1/2-z
15 1/4-y,1/4+x,1/4-z
16 x,1/2+y,-z
_cell_length_a                   13.7690(1)
_cell_length_b                   13.7690(1)
_cell_length_c                   26.758(3)
_cell_angle_alpha                90
_cell_angle_beta                 90
_cell_angle_gamma                90
_cell_volume                     5072.93
loop_
_atom_site_label
_atom_site_type_symbol
_atom_site_fract_x
_atom_site_fract_y
_atom_site_fract_z
C1 C 0.1461(14) -0.2978(16) 0.2999(5)
C2 C 0.1523(19) -0.1994(13) 0.2686(9)
H1 H 0.1025(19) -0.1511(13) 0.2721(9)
C3 C 0.2110(16) -0.1861(10) 0.2432(8)
H2 H 0.2015(16) -0.1239(10) 0.2277(8)
C4 C 0.2322(26) -0.1547(10) 0.2288(10)
H3 H 0.2141(26) -0.0891(10) 0.2207(10)
C5 C 0.2093(14) -0.2799(18) 0.2750(8)
C3J C 0.2890(16) -0.3139(10) 0.2568(8)
C2J C 0.3477(19) -0.3006(13) 0.2314(9)
C1J C 0.3539(14) -0.2022(16) 0.2001(5)
C5J C 0.2907(14) -0.2201(18) 0.2250(8)
H1J H 0.3975(19) -0.3489(13) 0.2279(9)
C4J C 0.2678(26) -0.3453(10) 0.2712(10)
H2J H 0.2985(16) -0.3761(10) 0.2723(8)
H3J H 0.2859(26) -0.4109(10) 0.2793(10)
Mn1 Mn 0.5000 0.2500 0.3750
N1 N 0.4336(2) 0.1425(2) 0.42073(8)
C6 C 0.4277(2) 0.0477(2) 0.40159(10)
C7 C 0.5119(2) -0.0012(2) 0.38789(13)
H4 H 0.5726(2) 0.0256(2) 0.39606(13)
C8 C 0.5080(3) -0.0889(2) 0.36243(15)
H5 H 0.5659(3) -0.1201(2) 0.35304(15)
C9 C 0.4200(3) -0.1305(2) 0.35080(14)
H6 H 0.4173(3) -0.1892(2) 0.33292(14)
C10 C 0.3363(3) -0.0850(2) 0.36569(14)
H7 H 0.2760(3) -0.1135(2) 0.35822(14)
C11 C 0.3389(2) 0.0018(2) 0.39143(13)
H8 H 0.2806(2) 0.0304(2) 0.40228(13)
C12 C 0.3848(2) 0.1641(2) 0.46410(11)
C13 C 0.3570(2) 0.0945(2) 0.49982(12)
H9 H 0.3714(2) 0.0287(2) 0.49416(12)
C14 C 0.3088(3) 0.1209(3) 0.54309(13)
H10 H 0.2903(3) 0.0723(3) 0.56586(13)
C15 C 0.2870(3) 0.2165(3) 0.55381(14)
H11 H 0.2539(3) 0.2335(3) 0.58325(14)
C16 C 0.3156(3) 0.2863(3) 0.51977(14)
H12 H 0.3023(3) 0.3520(3) 0.52648(14)
C17 C 0.3632(2) 0.2619(2) 0.47614(12)
H13 H 0.3818(2) 0.3114(2) 0.45390(12)
N1I N 0.3925(2) 0.3164(2) 0.32927(8)
C6I C 0.2977(2) 0.3223(2) 0.34841(10)
C7I C 0.2488(2) 0.2381(2) 0.36211(13)
H4I H 0.2756(2) 0.1774(2) 0.35394(13)
C8I C 0.1611(2) 0.2420(3) 0.38757(15)
H5I H 0.1299(2) 0.1841(3) 0.39696(15)
C9I C 0.1195(2) 0.3300(3) 0.39920(14)
H6I H 0.0608(2) 0.3327(3) 0.41708(14)
C10I C 0.1650(2) 0.4137(3) 0.38431(14)
H7I H 0.1365(2) 0.4740(3) 0.39178(14)
C11I C 0.2518(2) 0.4111(2) 0.35857(13)
H8I H 0.2804(2) 0.4694(2) 0.34772(13)
C12I C 0.4141(2) 0.3652(2) 0.28590(11)
C13I C 0.3445(2) 0.3930(2) 0.25018(12)
H9I H 0.2787(2) 0.3786(2) 0.25584(12)
C14I C 0.3709(3) 0.4412(3) 0.20691(13)
H10I H 0.3223(3) 0.4597(3) 0.18414(13)
C15I C 0.4665(3) 0.4630(3) 0.19619(14)
H11I H 0.4835(3) 0.4961(3) 0.16675(14)
C16I C 0.5363(3) 0.4344(3) 0.23023(14)
H12I H 0.6020(3) 0.4477(3) 0.22352(14)
C17I C 0.5119(2) 0.3868(2) 0.27386(12)
H13I H 0.5614(2) 0.3682(2) 0.29610(12)
N1L N 0.6075(2) 0.1836(2) 0.32927(8)
C6L C 0.7023(2) 0.1777(2) 0.34841(10)
C7L C 0.7512(2) 0.2619(2) 0.36211(13)
H4L H 0.7244(2) 0.3226(2) 0.35394(13)
C8L C 0.8389(2) 0.2580(3) 0.38757(15)
H5L H 0.8701(2) 0.3159(3) 0.39696(15)
C9L C 0.8805(2) 0.1700(3) 0.39920(14)
H6L H 0.9392(2) 0.1673(3) 0.41708(14)
C10L C 0.8350(2) 0.0863(3) 0.38431(14)
H7L H 0.8635(2) 0.0260(3) 0.39178(14)
C11L C 0.7482(2) 0.0889(2) 0.35857(13)
H8L H 0.7196(2) 0.0306(2) 0.34772(13)
C12L C 0.5859(2) 0.1348(2) 0.28590(11)
C13L C 0.6555(2) 0.1070(2) 0.25018(12)
H9L H 0.7213(2) 0.1214(2) 0.25584(12)
C14L C 0.6291(3) 0.0588(3) 0.20691(13)
H10L H 0.6777(3) 0.0403(3) 0.18414(13)
C15L C 0.5335(3) 0.0370(3) 0.19619(14)
H11L H 0.5165(3) 0.0039(3) 0.16675(14)
C16L C 0.4637(3) 0.0656(3) 0.23023(14)
H12L H 0.3980(3) 0.0523(3) 0.22352(14)
C17L C 0.4881(2) 0.1132(2) 0.27386(12)
H13L H 0.4386(2) 0.1318(2) 0.29610(12)
N1G N 0.5664(2) 0.3575(2) 0.42073(8)
C6G C 0.5723(2) 0.4523(2) 0.40159(10)
C7G C 0.4881(2) 0.5012(2) 0.38789(13)
H4G H 0.4274(2) 0.4744(2) 0.39606(13)
C8G C 0.4920(3) 0.5889(2) 0.36243(15)
H5G H 0.4341(3) 0.6201(2) 0.35304(15)
C9G C 0.5800(3) 0.6305(2) 0.35080(14)
H6G H 0.5827(3) 0.6892(2) 0.33292(14)
C10G C 0.6637(3) 0.5850(2) 0.36569(14)
H7G H 0.7240(3) 0.6135(2) 0.35822(14)
C11G C 0.6611(2) 0.4982(2) 0.39143(13)
H8G H 0.7194(2) 0.4696(2) 0.40228(13)
C12G C 0.6152(2) 0.3359(2) 0.46410(11)
C13G C 0.6430(2) 0.4055(2) 0.49982(12)
H9G H 0.6286(2) 0.4713(2) 0.49416(12)
C14G C 0.6912(3) 0.3791(3) 0.54309(13)
H10G H 0.7097(3) 0.4277(3) 0.56586(13)
C15G C 0.7130(3) 0.2835(3) 0.55381(14)
H11G H 0.7461(3) 0.2665(3) 0.58325(14)
C16G C 0.6844(3) 0.2137(3) 0.51977(14)
H12G H 0.6977(3) 0.1480(3) 0.52648(14)
C17G C 0.6368(2) 0.2381(2) 0.47614(12)
H13G H 0.6182(2) 0.1886(2) 0.45390(12)
Na1 Na 0.5000 0.2500 0.55757(10)
loop_
_geom_bond_atom_site_label_1
_geom_bond_atom_site_label_2
_geom_bond_site_symmetry_1
_geom_bond_site_symmetry_2
C1 C2 1_555 1_555
C2 H1 1_555 1_555
C3 C2 1_555 1_555
H2 C3 1_555 1_555
C4 C2 1_555 1_555
H3 H2 1_555 1_555
C5 C1 1_555 1_555
Mn1 N1 1_555 1_555
N1 C6 1_555 1_555
C6 C7 1_555 1_555
C7 H4 1_555 1_555
C8 C7 1_555 1_555
H5 C8 1_555 1_555
C9 C8 1_555 1_555
H6 C9 1_555 1_555
C10 C9 1_555 1_555
H7 C10 1_555 1_555
C11 C6 1_555 1_555
H8 C11 1_555 1_555
C12 N1 1_555 1_555
C13 C12 1_555 1_555
H9 C13 1_555 1_555
C14 C13 1_555 1_555
H10 C14 1_555 1_555
C15 C14 1_555 1_555
H11 C15 1_555 1_555
C16 C15 1_555 1_555
H12 C16 1_555 1_555
C17 C12 1_555 1_555
H13 C17 1_555 1_555
C3J C5 1_555 1_555
C2J C3J 1_555 1_555
C1J C2J 1_555 1_555
C5J C3 1_555 1_555
H1J C2J 1_555 1_555
C4J C5 1_555 1_555
H2J C3J 1_555 1_555
H3J C4J 1_555 1_555
N1I Mn1 1_555 1_555
C6I N1I 1_555 1_555
C7I C6I 1_555 1_555
H4I C7I 1_555 1_555
C8I C7I 1_555 1_555
H5I C8I 1_555 1_555
C9I C8I 1_555 1_555
H6I C9I 1_555 1_555
C10I C9I 1_555 1_555
H7I C10I 1_555 1_555
C11I C6I 1_555 1_555
H8I C11I 1_555 1_555
C12I N1I 1_555 1_555
C13I C12I 1_555 1_555
H9I C13I 1_555 1_555
C14I C13I 1_555 1_555
H10I C14I 1_555 1_555
C15I C14I 1_555 1_555
H11I C15I 1_555 1_555
C16I C15I 1_555 1_555
H12I C16I 1_555 1_555
C17I C12I 1_555 1_555
H13I C17I 1_555 1_555
N1L Mn1 1_555 1_555
C6L N1L 1_555 1_555
C7L C6L 1_555 1_555
H4L C7L 1_555 1_555
C8L C7L 1_555 1_555
H5L C8L 1_555 1_555
C9L C8L 1_555 1_555
H6L C9L 1_555 1_555
C10L C9L 1_555 1_555
H7L C10L 1_555 1_555
C11L C6L 1_555 1_555
H8L C11L 1_555 1_555
C12L N1L 1_555 1_555
C13L C12L 1_555 1_555
H9L C13L 1_555 1_555
C14L C13L 1_555 1_555
H10L C14L 1_555 1_555
C15L C14L 1_555 1_555
H11L C15L 1_555 1_555
C16L C15L 1_555 1_555
H12L C16L 1_555 1_555
C17L C12L 1_555 1_555
H13L C17L 1_555 1_555
N1G Mn1 1_555 1_555
C6G N1G 1_555 1_555
C7G C6G 1_555 1_555
H4G C7G 1_555 1_555
C8G C7G 1_555 1_555
H5G C8G 1_555 1_555
C9G C8G 1_555 1_555
H6G C9G 1_555 1_555
C10G C9G 1_555 1_555
H7G C10G 1_555 1_555
C11G C6G 1_555 1_555
H8G C11G 1_555 1_555
C12G N1G 1_555 1_555
C13G C12G 1_555 1_555
H9G C13G 1_555 1_555
C14G C13G 1_555 1_555
H10G C14G 1_555 1_555
C15G C14G 1_555 1_555
H11G C15G 1_555 1_555
C16G C15G 1_555 1_555
H12G C16G 1_555 1_555
C17G C12G 1_555 1_555
H13G C17G 1_555 1_555
C2 C5 1_555 1_555
C3 C4 1_555 1_555
C3 C5 1_555 1_555
H2 C4 1_555 1_555
C4 H3 1_555 1_555
C4 C5J 1_555 1_555
C10 C11 1_555 1_555
C16 C17 1_555 1_555
C3J C5J 1_555 1_555
C3J C4J 1_555 1_555
C2J C5J 1_555 1_555
C2J C4J 1_555 1_555
C1J C5J 1_555 1_555
C4J H2J 1_555 1_555
H2J H3J 1_555 1_555
C10I C11I 1_555 1_555
C16I C17I 1_555 1_555
C10L C11L 1_555 1_555
C16L C17L 1_555 1_555
C10G C11G 1_555 1_555
C16G C17G 1_555 1_555

#END
