
#######################################################################
#
#                 Cambridge Crystallographic Data Centre
#                                CCDC 
#
#######################################################################
#
# If this CIF has been generated from an entry in the Cambridge 
# Structural Database, then it will include bibliographic, chemical, 
# crystal, experimental, refinement or atomic coordinate data resulting 
# from the CCDC's data processing and validation procedures.
#
#######################################################################

data_PORSOG
_symmetry_cell_setting           monoclinic
_symmetry_space_group_name_H-M   'P 21/c'
_symmetry_Int_Tables_number      14
_space_group_name_Hall           '-P 2ybc'
loop_
_symmetry_equiv_pos_site_id
_symmetry_equiv_pos_as_xyz
1 x,y,z
2 -x,1/2+y,1/2-z
3 -x,-y,-z
4 x,1/2-y,1/2+z
_cell_length_a                   8.0527(3)
_cell_length_b                   16.8347(5)
_cell_length_c                   17.8257(6)
_cell_angle_alpha                90
_cell_angle_beta                 113.355(3)
_cell_angle_gamma                90
_cell_volume                     2218.54
loop_
_atom_site_label
_atom_site_type_symbol
_atom_site_fract_x
_atom_site_fract_y
_atom_site_fract_z
Co1 Co 0.99184(4) 0.207516(17) 0.067881(17)
O1 O 0.9024(2) 0.24280(10) -0.04906(9)
O2 O 1.1133(2) 0.19282(9) -0.08655(10)
O3 O 0.2910(2) 0.30093(13) -0.26584(11)
O4 O 0.2531(2) 0.28446(10) -0.39403(10)
O5 O 0.8587(2) 0.22009(9) -0.39211(9)
N1 N 0.8875(2) 0.09586(11) 0.05553(11)
N2 N 0.8534(3) -0.03463(11) 0.04799(11)
H1 H 0.8754 -0.0841 0.0600
N3 N 1.2833(3) 0.05694(12) 0.43428(12)
H2 H 1.310(4) 0.1009(18) 0.4206(18)
N4 N 1.2323(3) -0.06933(11) 0.43682(11)
H3 H 1.2152 -0.1185 0.4226
C1 C 0.8431(3) 0.24027(12) -0.19018(13)
C2 C 0.6620(3) 0.26077(13) -0.21231(13)
H4 H 0.6173 0.2697 -0.1723
C3 C 0.5488(3) 0.26779(12) -0.29421(13)
C4 C 0.6162(3) 0.25560(12) -0.35415(13)
H5 H 0.5393 0.2603 -0.4090
C5 C 0.7975(3) 0.23638(12) -0.33303(13)
C6 C 0.9093(3) 0.22856(12) -0.25070(13)
H6 H 1.0303 0.2153 -0.2358
C7 C 0.9630(3) 0.22441(12) -0.10210(13)
C8 C 0.3511(3) 0.28561(13) -0.31778(14)
C9 C 0.7277(3) 0.07738(13) -0.01158(13)
C10 C 0.5980(3) 0.12607(15) -0.06714(15)
H7 H 0.6077 0.1811 -0.0636
C11 C 0.4544(3) 0.08944(17) -0.12785(15)
H8 H 0.3658 0.1206 -0.1662
C12 C 0.4381(3) 0.00715(17) -0.13348(16)
H9 H 0.3406 -0.0153 -0.1762
C13 C 0.5624(3) -0.04168(15) -0.07741(15)
H10 H 0.5502 -0.0967 -0.0802
C14 C 0.7072(3) -0.00480(13) -0.01646(14)
C15 C 0.9561(3) 0.02655(13) 0.08914(13)
C16 C 1.1246(3) 0.01387(15) 0.16300(14)
H11 H 1.2063 0.0578 0.1681
H12 H 1.1829 -0.0342 0.1556
C17 C 1.0956(3) 0.00677(16) 0.24209(14)
H13 H 1.0028 -0.0326 0.2355
H14 H 1.0547 0.0573 0.2546
C18 C 1.2710(3) -0.01747(15) 0.31209(14)
H15 H 1.2991 -0.0719 0.3036
H16 H 1.3683 0.0159 0.3112
C19 C 1.2632(3) -0.01116(14) 0.39373(14)
C20 C 1.2639(3) 0.04315(14) 0.50672(14)
C21 C 1.2680(3) 0.09351(16) 0.56880(16)
H17 H 1.2873 0.1478 0.5670
C22 C 1.2420(4) 0.05920(18) 0.63281(17)
H18 H 1.2439 0.0909 0.6758
C23 C 1.2129(4) -0.02233(18) 0.63519(16)
H19 H 1.1969 -0.0434 0.6801
C24 C 1.2071(3) -0.07220(15) 0.57367(15)
H20 H 1.1875 -0.1265 0.5756
C25 C 1.2321(3) -0.03772(13) 0.50847(14)
Co1C Co -0.00816(4) 0.292484(17) -0.432119(17)
Co1C_2 Co 0.99184(4) 0.292484(17) -0.432119(17)
O4C O 1.2531(2) 0.21554(10) 0.10597(10)
O5C O 0.8587(2) 0.27991(9) 0.10789(9)
O6 O 0.3613(3) 0.20089(10) 0.39458(12)
H21 H 0.292(3) 0.2340(14) 0.4028(15)
H22 H 0.347(4) 0.1992(18) 0.3451(8)
loop_
_geom_bond_atom_site_label_1
_geom_bond_atom_site_label_2
_geom_bond_site_symmetry_1
_geom_bond_site_symmetry_2
Co1 O1 1_555 1_555
O1 C7 1_555 1_555
O2 C7 1_555 1_555
O3 C8 1_555 1_555
O4 C8 1_555 1_555
O5 C5 1_555 1_555
N1 Co1 1_555 1_555
N2 H1 1_555 1_555
N3 H2 1_555 1_555
N4 H3 1_555 1_555
C1 C2 1_555 1_555
C2 H4 1_555 1_555
C3 C2 1_555 1_555
C4 C3 1_555 1_555
H5 C4 1_555 1_555
C5 C4 1_555 1_555
C6 C1 1_555 1_555
H6 C6 1_555 1_555
C7 C1 1_555 1_555
C8 C3 1_555 1_555
C9 N1 1_555 1_555
C10 C9 1_555 1_555
H7 C10 1_555 1_555
C11 C10 1_555 1_555
H8 C11 1_555 1_555
C12 C11 1_555 1_555
H9 C12 1_555 1_555
C13 C12 1_555 1_555
H10 C13 1_555 1_555
C14 N2 1_555 1_555
C15 N1 1_555 1_555
C16 C15 1_555 1_555
H11 C16 1_555 1_555
H12 C16 1_555 1_555
C17 C16 1_555 1_555
H13 C17 1_555 1_555
H14 C17 1_555 1_555
C18 C17 1_555 1_555
H15 C18 1_555 1_555
H16 C18 1_555 1_555
C19 N3 1_555 1_555
C20 N3 1_555 1_555
C21 C20 1_555 1_555
H17 C21 1_555 1_555
C22 C21 1_555 1_555
H18 C22 1_555 1_555
C23 C22 1_555 1_555
H19 C23 1_555 1_555
C24 C23 1_555 1_555
H20 C24 1_555 1_555
C25 N4 1_555 1_555
O6 H21 1_555 1_555
H22 O6 1_555 1_555
Co1C O4 1_555 1_555
Co1C_2 O5 1_555 1_555
O4C Co1 1_555 1_555
O5C Co1 1_555 1_555
N2 C15 1_555 1_555
N4 C19 1_555 1_555
C5 C6 1_555 1_555
C9 C14 1_555 1_555
C13 C14 1_555 1_555
C18 C19 1_555 1_555
C20 C25 1_555 1_555
C24 C25 1_555 1_555

#END
