
#######################################################################
#
#                 Cambridge Crystallographic Data Centre
#                                CCDC 
#
#######################################################################
#
# If this CIF has been generated from an entry in the Cambridge 
# Structural Database, then it will include bibliographic, chemical, 
# crystal, experimental, refinement or atomic coordinate data resulting 
# from the CCDC's data processing and validation procedures.
#
#######################################################################

data_PORSIA
_symmetry_cell_setting           monoclinic
_symmetry_space_group_name_H-M   'P 21/n'
_symmetry_Int_Tables_number      14
_space_group_name_Hall           '-P 2yn'
loop_
_symmetry_equiv_pos_site_id
_symmetry_equiv_pos_as_xyz
1 x,y,z
2 1/2-x,1/2+y,1/2-z
3 -x,-y,-z
4 1/2+x,1/2-y,1/2+z
_cell_length_a                   10.347(12)
_cell_length_b                   9.421(6)
_cell_length_c                   22.905(15)
_cell_angle_alpha                90
_cell_angle_beta                 91.13(7)
_cell_angle_gamma                90
_cell_volume                     2232.32
loop_
_atom_site_label
_atom_site_type_symbol
_atom_site_fract_x
_atom_site_fract_y
_atom_site_fract_z
C1 C 0.3360(3) 0.0424(3) 0.33314(12)
C2 C 0.2232(3) -0.0398(3) 0.33410(12)
H1 H 0.1908 -0.0809 0.2999
C3 C 0.1606(3) -0.0595(3) 0.38582(12)
C4 C 0.2117(3) 0.0016(3) 0.43698(12)
H2 H 0.1685 -0.0099 0.4719
C5 C 0.3262(3) 0.0793(3) 0.43635(13)
C6 C 0.3872(3) 0.0996(3) 0.38460(13)
H3 H 0.4633 0.1520 0.3838
C7 C 0.4055(3) 0.0619(3) 0.27735(13)
C8 C 0.0426(3) -0.1530(3) 0.38769(13)
C9 C 0.7744(3) 0.0554(3) 0.18840(11)
C10 C 0.7941(3) 0.1995(3) 0.19883(12)
H4 H 0.7256 0.2634 0.1991
C11 C 0.9210(3) 0.2430(4) 0.20873(13)
H5 H 0.9375 0.3387 0.2155
C12 C 1.0250(3) 0.1475(4) 0.20883(14)
H6 H 1.1084 0.1815 0.2155
C13 C 1.0067(3) 0.0046(4) 0.19936(14)
H7 H 1.0753 -0.0592 0.1998
C14 C 0.8784(3) -0.0397(3) 0.18887(12)
C15 C 0.6958(3) -0.1531(3) 0.16559(12)
C16 C 0.6048(3) -0.2667(3) 0.14479(13)
H8 H 0.5270 -0.2627 0.1676
H9 H 0.6448 -0.3586 0.1516
C17 C 0.5674(3) -0.2541(3) 0.07996(12)
H10 H 0.6438 -0.2262 0.0589
H11 H 0.5424 -0.3476 0.0660
C18 C 0.4601(3) -0.1519(3) 0.06411(12)
C19 C 0.3017(3) -0.0597(3) 0.00789(12)
C20 C 0.2090(3) -0.0252(4) -0.03517(14)
H12 H 0.2040 -0.0744 -0.0703
C21 C 0.1259(3) 0.0843(4) -0.02342(15)
H13 H 0.0641 0.1108 -0.0514
C22 C 0.1325(3) 0.1560(4) 0.02949(16)
H14 H 0.0755 0.2304 0.0361
C23 C 0.2223(3) 0.1192(3) 0.07293(14)
H15 H 0.2244 0.1659 0.1087
C24 C 0.3089(3) 0.0102(3) 0.06116(12)
Co1 Co 0.47752(3) 0.05425(4) 0.169564(16)
N1 N 0.6603(2) -0.0188(2) 0.17412(10)
N2 N 0.8247(2) -0.1701(3) 0.17472(10)
H16 H 0.8662 -0.2489 0.1722
N3 N 0.3979(2) -0.1616(3) 0.01123(10)
H17 H 0.4157 -0.2215 -0.0158
N4 N 0.4109(2) -0.0487(2) 0.09590(10)
O1 O 0.35395(19) 0.0098(2) 0.23067(8)
O2 O 0.5129(2) 0.1239(2) 0.27728(10)
O3 O 0.0279(2) -0.2429(2) 0.34673(9)
O4 O -0.0341(2) -0.1371(2) 0.42815(9)
O5 O 0.3844(2) 0.1364(3) 0.48514(10)
H18 H 0.3461 0.1102 0.5142
Co1A Co 0.02248(3) -0.44575(4) 0.330436(16)
O3A O 0.4721(2) 0.2571(2) 0.15327(9)
O6 O 0.7902(3) 0.4477(4) 0.08921(13)
H19 H 0.7145 0.4126 0.0894
H20 H 0.8382 0.4039 0.1138
loop_
_geom_bond_atom_site_label_1
_geom_bond_atom_site_label_2
_geom_bond_site_symmetry_1
_geom_bond_site_symmetry_2
C1 C2 1_555 1_555
C2 H1 1_555 1_555
C3 C2 1_555 1_555
C4 C3 1_555 1_555
H2 C4 1_555 1_555
C5 C4 1_555 1_555
C6 C1 1_555 1_555
H3 C6 1_555 1_555
C7 C1 1_555 1_555
C8 C3 1_555 1_555
C9 C10 1_555 1_555
C10 H4 1_555 1_555
C11 C10 1_555 1_555
H5 C11 1_555 1_555
C12 C11 1_555 1_555
H6 C12 1_555 1_555
C13 C12 1_555 1_555
H7 C13 1_555 1_555
C14 C9 1_555 1_555
C15 C16 1_555 1_555
C16 H8 1_555 1_555
H9 C16 1_555 1_555
C17 C16 1_555 1_555
H10 C17 1_555 1_555
H11 C17 1_555 1_555
C18 C17 1_555 1_555
C19 C20 1_555 1_555
C20 H12 1_555 1_555
C21 C20 1_555 1_555
H13 C21 1_555 1_555
C22 C21 1_555 1_555
H14 C22 1_555 1_555
C23 C22 1_555 1_555
H15 C23 1_555 1_555
C24 C19 1_555 1_555
Co1 N1 1_555 1_555
N1 C9 1_555 1_555
N2 C14 1_555 1_555
H16 N2 1_555 1_555
N3 C18 1_555 1_555
H17 N3 1_555 1_555
N4 C18 1_555 1_555
O1 C7 1_555 1_555
O2 C7 1_555 1_555
O3 C8 1_555 1_555
O4 C8 1_555 1_555
O5 C5 1_555 1_555
H18 O5 1_555 1_555
O6 H19 1_555 1_555
H20 O6 1_555 1_555
Co1A O3 1_555 1_555
O3A Co1 1_555 1_555
C5 C6 1_555 1_555
C13 C14 1_555 1_555
C15 N1 1_555 1_555
C15 N2 1_555 1_555
C19 N3 1_555 1_555
C23 C24 1_555 1_555
C24 N4 1_555 1_555
Co1 N4 1_555 1_555
Co1 O1 1_555 1_555

#END
