
#######################################################################
#
#                 Cambridge Crystallographic Data Centre
#                                CCDC 
#
#######################################################################
#
# If this CIF has been generated from an entry in the Cambridge 
# Structural Database, then it will include bibliographic, chemical, 
# crystal, experimental, refinement or atomic coordinate data resulting 
# from the CCDC's data processing and validation procedures.
#
#######################################################################

data_PORTIB
_symmetry_cell_setting           triclinic
_symmetry_space_group_name_H-M   'P -1'
_symmetry_Int_Tables_number      2
_space_group_name_Hall           '-P 1'
loop_
_symmetry_equiv_pos_site_id
_symmetry_equiv_pos_as_xyz
1 x,y,z
2 -x,-y,-z
_cell_length_a                   8.2551(10)
_cell_length_b                   10.5304(12)
_cell_length_c                   13.1589(15)
_cell_angle_alpha                100.9640(10)
_cell_angle_beta                 93.6930(10)
_cell_angle_gamma                98.5900(10)
_cell_volume                     1105.33
loop_
_atom_site_label
_atom_site_type_symbol
_atom_site_fract_x
_atom_site_fract_y
_atom_site_fract_z
Cd1 Cd 0.51856(2) 0.557084(16) 0.791446(13)
Cd2 Cd 0.86077(2) 1.249249(16) 1.109244(12)
O1 O -0.1697(2) 0.15718(19) 0.47992(15)
O2 O 1.0568(2) 1.14017(17) 1.17309(13)
H1 H 1.1552 1.1922 1.1874
H2 H 1.0677 1.0686 1.1266
O3 O 0.3584(2) 0.66113(16) 0.97523(13)
O4 O 0.26453(19) 0.63104(15) 0.74278(12)
O5 O 0.0064(2) 0.57017(16) 0.76806(13)
O6 O -0.0666(2) 0.11332(17) 0.93241(14)
O7 O 0.0051(2) 0.32739(17) 0.99128(13)
O8 O 0.6088(2) 0.71744(17) 0.92796(13)
O9 O 0.3940(2) 0.50598(17) 0.37376(13)
N1 N 0.3435(2) 0.36508(19) 0.78074(15)
C1 C 0.4962(3) 0.7352(2) 0.98604(18)
C2 C 0.6494(3) 0.9592(2) 1.06502(18)
H3 H 0.7215 0.9468 1.0119
C3 C 0.2188(3) 0.4679(2) 0.54375(18)
H4 H 0.3078 0.5391 0.5565
N2 N 0.6724(2) 1.07495(18) 1.13192(15)
C4 C 0.1061(3) 0.4571(2) 0.61598(18)
O10 O 0.3244(2) 0.29797(17) 0.29656(13)
C5 C 0.5254(3) 0.8570(2) 1.06992(18)
C6 C 0.0119(3) 0.2238(2) 0.92713(18)
C7 C -0.0277(3) 0.3551(2) 0.59720(18)
H5 H -0.1073 0.3502 0.6459
C8 C 0.1260(3) 0.5580(2) 0.71486(18)
C9 C 0.3401(3) 0.2672(2) 0.69839(19)
H6 H 0.4173 0.2779 0.6489
C10 C 0.1210(3) 0.2357(2) 0.84121(18)
C11 C 0.0729(3) 0.2689(2) 0.43443(18)
H7 H 0.0636 0.2025 0.3734
C12 C 0.3143(3) 0.3935(2) 0.36969(18)
C13 C -0.0427(3) 0.2612(2) 0.5064(2)
C14 C 0.5717(3) 1.0893(2) 1.20848(19)
H8 H 0.5872 1.1704 1.2569
C15 C 0.4228(3) 0.8735(2) 1.14957(19)
H9 H 0.3375 0.8049 1.1557
C16 C 0.2300(3) 0.1522(2) 0.68247(19)
H10 H 0.2296 0.0858 0.6224
C17 C 0.2012(3) 0.3736(2) 0.45201(18)
C18 C 0.1194(3) 0.1348(2) 0.75548(18)
H11 H 0.0437 0.0554 0.7472
C19 C 0.2342(3) 0.3493(2) 0.84980(18)
H12 H 0.2342 0.4191 0.9073
C20 C 0.4478(3) 0.9920(2) 1.21952(19)
H13 H 0.3798 1.0059 1.2748
C21 C -0.3066(5) 0.1624(4) 0.5407(3)
H14 H -0.3983 0.0940 0.5070
H15 H -0.3407 0.2485 0.5466
H16 H -0.2749 0.1482 0.6102
O11 O 0.7302(2) 0.44403(17) 0.84028(14)
H17 H 0.7292 0.4382 0.9069
H18 H 0.8285 0.4861 0.8313
Cd1A Cd 0.48144(2) 0.442916(16) 0.208554(13)
Cd2_2 Cd -0.13923(2) 0.249249(16) 1.109244(12)
Cd2A Cd 0.13923(2) 0.750751(16) 0.890756(12)
O3A O 0.6416(2) 1.33887(16) 1.02477(13)
O4A O 0.73547(19) 1.36896(15) 1.25722(12)
O5A O 0.9936(2) 1.42983(16) 1.23194(13)
O6_2 O 0.9334(2) 1.11332(17) 0.93241(14)
O7_2 O 1.0051(2) 1.32739(17) 0.99128(13)
O9A O 0.6060(2) 0.49402(17) 0.62624(13)
O10A O 0.6756(2) 0.70203(17) 0.70344(13)
loop_
_geom_bond_atom_site_label_1
_geom_bond_atom_site_label_2
_geom_bond_site_symmetry_1
_geom_bond_site_symmetry_2
Cd1 O4 1_555 1_555
Cd2 O2 1_555 1_555
O1 C13 1_555 1_555
O2 H1 1_555 1_555
H2 O2 1_555 1_555
O3 C1 1_555 1_555
O4 C8 1_555 1_555
O5 C8 1_555 1_555
O6 C6 1_555 1_555
O7 C6 1_555 1_555
O8 Cd1 1_555 1_555
O9 C12 1_555 1_555
N1 Cd1 1_555 1_555
C1 O8 1_555 1_555
C2 H3 1_555 1_555
C3 H4 1_555 1_555
N2 Cd2 1_555 1_555
C4 C3 1_555 1_555
O10 C12 1_555 1_555
C5 C1 1_555 1_555
C6 C10 1_555 1_555
C7 C4 1_555 1_555
H5 C7 1_555 1_555
C8 C4 1_555 1_555
C9 N1 1_555 1_555
H6 C9 1_555 1_555
C10 C18 1_555 1_555
C11 H7 1_555 1_555
C12 C17 1_555 1_555
C13 C7 1_555 1_555
C14 N2 1_555 1_555
H8 C14 1_555 1_555
C15 C5 1_555 1_555
H9 C15 1_555 1_555
C16 C9 1_555 1_555
H10 C16 1_555 1_555
C17 C3 1_555 1_555
C18 C16 1_555 1_555
H11 C18 1_555 1_555
C19 N1 1_555 1_555
H12 C19 1_555 1_555
C20 C14 1_555 1_555
H13 C20 1_555 1_555
C21 O1 1_555 1_555
H14 C21 1_555 1_555
H15 C21 1_555 1_555
H16 C21 1_555 1_555
O11 Cd1 1_555 1_555
H17 O11 1_555 1_555
H18 O11 1_555 1_555
Cd1A O9 1_555 1_555
Cd2_2 O6 1_555 1_555
Cd2A O3 1_555 1_555
O3A Cd2 1_555 1_555
O4A Cd2 1_555 1_555
O5A Cd2 1_555 1_555
O6_2 Cd2 1_555 1_555
O7_2 Cd2 1_555 1_555
O9A Cd1 1_555 1_555
O10A Cd1 1_555 1_555
O4 Cd2A 1_555 1_555
O5 Cd2A 1_555 1_555
O7 Cd2_2 1_555 1_555
C2 N2 1_555 1_555
C2 C5 1_555 1_555
O10 Cd1A 1_555 1_555
C10 C19 1_555 1_555
C11 C13 1_555 1_555
C11 C17 1_555 1_555
C15 C20 1_555 1_555

#END
