
#######################################################################
#
#                 Cambridge Crystallographic Data Centre
#                                CCDC 
#
#######################################################################
#
# If this CIF has been generated from an entry in the Cambridge 
# Structural Database, then it will include bibliographic, chemical, 
# crystal, experimental, refinement or atomic coordinate data resulting 
# from the CCDC's data processing and validation procedures.
#
#######################################################################

data_PORTUN
_symmetry_cell_setting           monoclinic
_symmetry_space_group_name_H-M   'P 21/c'
_symmetry_Int_Tables_number      14
_space_group_name_Hall           '-P 2ybc'
loop_
_symmetry_equiv_pos_site_id
_symmetry_equiv_pos_as_xyz
1 x,y,z
2 -x,1/2+y,1/2-z
3 -x,-y,-z
4 x,1/2-y,1/2+z
_cell_length_a                   8.1871(2)
_cell_length_b                   14.6332(3)
_cell_length_c                   12.9881(4)
_cell_angle_alpha                90
_cell_angle_beta                 123.597(2)
_cell_angle_gamma                90
_cell_volume                     1296.09
loop_
_atom_site_label
_atom_site_type_symbol
_atom_site_fract_x
_atom_site_fract_y
_atom_site_fract_z
Cu1 Cu 0.0000 -0.5000 0.5000
O1 O 0.0446(3) -0.44639(13) 0.33511(18)
O2 O -0.1690(4) -0.34254(17) 0.2079(2)
O3 O 0.2922(3) -0.51860(15) 0.2829(2)
H1 H 0.2472 -0.5122 0.3253
N1 N -0.1897(3) -0.59729(14) 0.3817(2)
N2 N -0.7026(3) -0.85241(14) 0.1444(2)
H2 H -0.7364 -0.8439 0.1957
N3 N -0.7769(3) -0.91310(14) 0.0524(2)
N4 N -0.6888(4) -0.90483(16) -0.0059(2)
N5 N -0.5539(3) -0.83895(15) 0.0474(2)
C1 C -0.1722(4) -0.63202(19) 0.2928(3)
H3 H -0.0732 -0.6097 0.2849
C2 C -0.3323(4) -0.63085(19) 0.3916(3)
H4 H -0.3471 -0.6073 0.4525
C3 C -0.2936(4) -0.69895(19) 0.2126(3)
H5 H -0.2775 -0.7204 0.1514
C4 C -0.4588(4) -0.69888(19) 0.3156(3)
H6 H -0.5553 -0.7206 0.3262
C5 C -0.4409(4) -0.73441(17) 0.2238(2)
C6 C -0.5651(4) -0.80791(17) 0.1399(2)
C7 C 0.2055(4) -0.4594(2) 0.1883(3)
C8 C 0.2741(5) -0.4594(2) 0.1116(3)
H7 H 0.3752 -0.4986 0.1281
C9 C 0.1933(5) -0.4018(2) 0.0116(3)
H8 H 0.2403 -0.4025 -0.0392
C10 C 0.0425(5) -0.3425(2) -0.0148(3)
H9 H -0.0112 -0.3037 -0.0827
C11 C -0.0259(5) -0.34180(19) 0.0597(3)
H10 H -0.1271 -0.3022 0.0419
C12 C 0.0533(4) -0.39977(19) 0.1632(3)
C13 C -0.0221(4) -0.39866(19) 0.2423(3)
O1B O -0.0446(3) -0.55361(13) 0.66489(18)
O2B O 0.1690(4) -0.65746(17) 0.7921(2)
O3B O -0.2922(3) -0.48140(15) 0.7171(2)
H1B H -0.2472 -0.4878 0.6747
N1B N 0.1897(3) -0.40271(14) 0.6183(2)
N2B N 0.7026(3) -0.14759(14) 0.8556(2)
H2B H 0.7364 -0.1561 0.8043
N3B N 0.7769(3) -0.08690(14) 0.9476(2)
N4B N 0.6888(4) -0.09517(16) 1.0059(2)
N5B N 0.5539(3) -0.16105(15) 0.9526(2)
C1B C 0.1722(4) -0.36798(19) 0.7072(3)
H3B H 0.0732 -0.3903 0.7151
C2B C 0.3323(4) -0.36915(19) 0.6084(3)
H4B H 0.3471 -0.3927 0.5475
C3B C 0.2936(4) -0.30105(19) 0.7874(3)
H5B H 0.2775 -0.2796 0.8486
C4B C 0.4588(4) -0.30112(19) 0.6844(3)
H6B H 0.5553 -0.2794 0.6738
C5B C 0.4409(4) -0.26559(17) 0.7762(2)
C6B C 0.5651(4) -0.19209(17) 0.8601(2)
C7B C -0.2055(4) -0.5406(2) 0.8117(3)
C8B C -0.2741(5) -0.5406(2) 0.8884(3)
H7B H -0.3752 -0.5014 0.8719
C9B C -0.1933(5) -0.5982(2) 0.9884(3)
H8B H -0.2403 -0.5975 1.0392
C10B C -0.0425(5) -0.6575(2) 1.0148(3)
H9B H 0.0112 -0.6963 1.0827
C11B C 0.0259(5) -0.65820(19) 0.9403(3)
H10B H 0.1271 -0.6978 0.9581
C12B C -0.0533(4) -0.60023(19) 0.8368(3)
C13B C 0.0221(4) -0.60134(19) 0.7577(3)
Cu1A Cu -1.0000 -1.0000 0.0000
Cu1A_2 Cu 1.0000 0.0000 1.0000
N3A N -0.2231(3) -0.41310(14) 0.4476(2)
N3C N 0.2231(3) -0.58690(14) 0.5524(2)
loop_
_geom_bond_atom_site_label_1
_geom_bond_atom_site_label_2
_geom_bond_site_symmetry_1
_geom_bond_site_symmetry_2
Cu1 O1 1_555 1_555
O1 C13 1_555 1_555
O2 C13 1_555 1_555
O3 H1 1_555 1_555
N1 Cu1 1_555 1_555
N2 H2 1_555 1_555
N3 N2 1_555 1_555
N4 N3 1_555 1_555
N5 N4 1_555 1_555
C1 N1 1_555 1_555
H3 C1 1_555 1_555
C2 N1 1_555 1_555
H4 C2 1_555 1_555
C3 C1 1_555 1_555
H5 C3 1_555 1_555
C4 C2 1_555 1_555
H6 C4 1_555 1_555
C5 C3 1_555 1_555
C6 N2 1_555 1_555
C7 O3 1_555 1_555
C8 C7 1_555 1_555
H7 C8 1_555 1_555
C9 C8 1_555 1_555
H8 C9 1_555 1_555
C10 C9 1_555 1_555
H9 C10 1_555 1_555
C11 C10 1_555 1_555
H10 C11 1_555 1_555
C12 C7 1_555 1_555
C13 C12 1_555 1_555
O1B Cu1 1_555 1_555
O2B C13B 1_555 1_555
O3B H1B 1_555 1_555
N1B Cu1 1_555 1_555
N2B H2B 1_555 1_555
N3B N2B 1_555 1_555
N4B N3B 1_555 1_555
N5B N4B 1_555 1_555
C1B N1B 1_555 1_555
H3B C1B 1_555 1_555
C2B N1B 1_555 1_555
H4B C2B 1_555 1_555
C3B C1B 1_555 1_555
H5B C3B 1_555 1_555
C4B C2B 1_555 1_555
H6B C4B 1_555 1_555
C5B C3B 1_555 1_555
C6B N2B 1_555 1_555
C7B O3B 1_555 1_555
C8B C7B 1_555 1_555
H7B C8B 1_555 1_555
C9B C8B 1_555 1_555
H8B C9B 1_555 1_555
C10B C9B 1_555 1_555
H9B C10B 1_555 1_555
C11B C10B 1_555 1_555
H10B C11B 1_555 1_555
C12B C7B 1_555 1_555
C13B O1B 1_555 1_555
Cu1A N3 1_555 1_555
Cu1A_2 N3B 1_555 1_555
N3A Cu1 1_555 1_555
N3C Cu1 1_555 1_555
N5 C6 1_555 1_555
C4 C5 1_555 1_555
C5 C6 1_555 1_555
C11 C12 1_555 1_555
N5B C6B 1_555 1_555
C4B C5B 1_555 1_555
C5B C6B 1_555 1_555
C11B C12B 1_555 1_555
C12B C13B 1_555 1_555

#END
