
#######################################################################
#
#                 Cambridge Crystallographic Data Centre
#                                CCDC 
#
#######################################################################
#
# If this CIF has been generated from an entry in the Cambridge 
# Structural Database, then it will include bibliographic, chemical, 
# crystal, experimental, refinement or atomic coordinate data resulting 
# from the CCDC's data processing and validation procedures.
#
#######################################################################

data_PORVAV
_symmetry_cell_setting           monoclinic
_symmetry_space_group_name_H-M   'C 2/c'
_symmetry_Int_Tables_number      15
_space_group_name_Hall           '-C 2yn'
loop_
_symmetry_equiv_pos_site_id
_symmetry_equiv_pos_as_xyz
1 x,y,z
2 -x,y,1/2-z
3 1/2+x,1/2+y,z
4 1/2-x,1/2+y,1/2-z
5 -x,-y,-z
6 x,-y,1/2+z
7 1/2-x,1/2-y,-z
8 1/2+x,1/2-y,1/2+z
_cell_length_a                   16.8627(16)
_cell_length_b                   19.4667(19)
_cell_length_c                   10.2500(10)
_cell_angle_alpha                90
_cell_angle_beta                 105.2290(10)
_cell_angle_gamma                90
_cell_volume                     3246.52
loop_
_atom_site_label
_atom_site_type_symbol
_atom_site_fract_x
_atom_site_fract_y
_atom_site_fract_z
Zn1 Zn 0.5000 0.06224(3) 0.2500
Zn2 Zn 0.37362(3) 0.11698(2) 0.44412(4)
O1 O 0.39172(14) 0.06031(12) 0.3010(3)
O2 O 0.43480(16) -0.01528(13) 0.1188(3)
O3 O 0.32824(16) -0.08502(14) 0.0890(3)
N1 N 0.79040(18) 0.30900(16) 0.8588(3)
N2 N 0.52292(19) 0.19719(17) 0.5922(3)
N3 N 0.48537(19) 0.16028(16) 0.4842(3)
N4 N 0.53857(18) 0.13836(16) 0.4185(3)
N5 N 0.61283(19) 0.16059(17) 0.4833(4)
C1 C 0.3712(2) -0.0348(2) 0.1471(4)
C2 C 0.7137(2) 0.3081(2) 0.8731(4)
H1 H 0.7019 0.3346 0.9412
C3 C 0.8061(2) 0.2694(2) 0.7616(4)
H2 H 0.8594 0.2686 0.7518
C4 C 0.6515(2) 0.2697(2) 0.7921(4)
H3 H 0.5995 0.2693 0.8072
C5 C 0.7474(2) 0.2301(2) 0.6757(5)
H4 H 0.7612 0.2027 0.6105
C6 C 0.6674(2) 0.2317(2) 0.6875(4)
C7 C 0.6015(2) 0.19640(19) 0.5892(4)
C8 C 0.2252(3) 0.0698(3) 0.1178(5)
H5 H 0.2631 0.0933 0.0830
C9 C 0.3426(2) 0.0013(2) 0.2595(4)
H6 H 0.3504 -0.0301 0.3366
C10 C 0.1425(3) 0.0867(3) 0.0731(6)
H7 H 0.1254 0.1209 0.0086
C11 C 0.1962(3) -0.0140(3) 0.2633(6)
H8 H 0.2130 -0.0481 0.3283
C12 C 0.0872(3) 0.0533(3) 0.1236(7)
H9 H 0.0318 0.0645 0.0941
C13 C 0.2522(2) 0.0194(2) 0.2115(5)
C14 C 0.1119(4) 0.0039(4) 0.2162(7)
H10 H 0.0733 -0.0190 0.2502
Zn2A Zn 0.62638(3) 0.11698(2) 0.05588(4)
O1A O 0.60828(14) 0.06031(12) 0.1990(3)
O2A O 0.56520(16) -0.01528(13) 0.3812(3)
O3A O 0.67176(16) -0.08502(14) 0.4110(3)
N1A N 0.20960(18) 0.30900(16) -0.3588(3)
N2A N 0.47708(19) 0.19719(17) -0.0922(3)
N3A N 0.51463(19) 0.16028(16) 0.0158(3)
N4A N 0.46143(18) 0.13836(16) 0.0815(3)
N5A N 0.38717(19) 0.16059(17) 0.0167(4)
C1A C 0.6288(2) -0.0348(2) 0.3529(4)
C2A C 0.2863(2) 0.3081(2) -0.3731(4)
H1A H 0.2981 0.3346 -0.4412
C3A C 0.1939(2) 0.2694(2) -0.2616(4)
H2A H 0.1406 0.2686 -0.2518
C4A C 0.3485(2) 0.2697(2) -0.2921(4)
H3A H 0.4005 0.2693 -0.3072
C5A C 0.2526(2) 0.2301(2) -0.1757(5)
H4A H 0.2388 0.2027 -0.1105
C6A C 0.3326(2) 0.2317(2) -0.1875(4)
C7A C 0.3985(2) 0.19640(19) -0.0892(4)
C8A C 0.7748(3) 0.0698(3) 0.3822(5)
H5A H 0.7369 0.0933 0.4170
C9A C 0.6574(2) 0.0013(2) 0.2405(4)
H6A H 0.6496 -0.0301 0.1634
C10A C 0.8575(3) 0.0867(3) 0.4269(6)
H7A H 0.8746 0.1209 0.4914
C11A C 0.8038(3) -0.0140(3) 0.2367(6)
H8A H 0.7870 -0.0481 0.1717
C12A C 0.9128(3) 0.0533(3) 0.3764(7)
H9A H 0.9682 0.0645 0.4059
C13A C 0.7478(2) 0.0194(2) 0.2885(5)
C14A C 0.8881(4) 0.0039(4) 0.2838(7)
H10A H 0.9267 -0.0190 0.2498
Zn2D Zn 0.62638(3) -0.11698(2) 0.55588(4)
Zn2E Zn 0.37362(3) -0.11698(2) -0.05588(4)
Zn2F Zn 0.12638(3) 0.38302(2) -0.44412(4)
Zn2G Zn 0.87362(3) 0.38302(2) 0.94412(4)
O3D O 0.67176(16) 0.08502(14) -0.0890(3)
O3E O 0.32824(16) 0.08502(14) 0.5890(3)
N1F N 0.70960(18) 0.19100(16) 0.1412(3)
N1G N 0.29040(18) 0.19100(16) 0.3588(3)
loop_
_geom_bond_atom_site_label_1
_geom_bond_atom_site_label_2
_geom_bond_site_symmetry_1
_geom_bond_site_symmetry_2
Zn1 O1 1_555 1_555
Zn2 O1 1_555 1_555
O1 C9 1_555 1_555
O2 Zn1 1_555 1_555
O3 C1 1_555 1_555
N1 C2 1_555 1_555
N2 N3 1_555 1_555
N3 Zn2 1_555 1_555
N4 Zn1 1_555 1_555
N5 N4 1_555 1_555
C1 O2 1_555 1_555
C2 H1 1_555 1_555
C3 N1 1_555 1_555
H2 C3 1_555 1_555
C4 C2 1_555 1_555
H3 C4 1_555 1_555
C5 C3 1_555 1_555
H4 C5 1_555 1_555
C6 C4 1_555 1_555
C7 N2 1_555 1_555
C8 H5 1_555 1_555
C9 C1 1_555 1_555
H6 C9 1_555 1_555
C10 C8 1_555 1_555
H7 C10 1_555 1_555
C11 H8 1_555 1_555
C12 C10 1_555 1_555
H9 C12 1_555 1_555
C13 C8 1_555 1_555
C14 C11 1_555 1_555
H10 C14 1_555 1_555
Zn2A O1A 1_555 1_555
O1A Zn1 1_555 1_555
O2A Zn1 1_555 1_555
O3A C1A 1_555 1_555
N1A C2A 1_555 1_555
N2A N3A 1_555 1_555
N3A Zn2A 1_555 1_555
N4A Zn1 1_555 1_555
N5A N4A 1_555 1_555
C1A O2A 1_555 1_555
C2A H1A 1_555 1_555
C3A N1A 1_555 1_555
H2A C3A 1_555 1_555
C4A C2A 1_555 1_555
H3A C4A 1_555 1_555
C5A C3A 1_555 1_555
H4A C5A 1_555 1_555
C6A C4A 1_555 1_555
C7A N2A 1_555 1_555
C8A H5A 1_555 1_555
C9A O1A 1_555 1_555
H6A C9A 1_555 1_555
C10A C8A 1_555 1_555
H7A C10A 1_555 1_555
C11A H8A 1_555 1_555
C12A C10A 1_555 1_555
H9A C12A 1_555 1_555
C13A C8A 1_555 1_555
C14A C11A 1_555 1_555
H10A C14A 1_555 1_555
Zn2D O3A 1_555 1_555
Zn2E O3 1_555 1_555
Zn2F N1A 1_555 1_555
Zn2G N1 1_555 1_555
O3D Zn2A 1_555 1_555
O3E Zn2 1_555 1_555
N1F Zn2A 1_555 1_555
N1G Zn2 1_555 1_555
N3 N4 1_555 1_555
N5 C7 1_555 1_555
C5 C6 1_555 1_555
C6 C7 1_555 1_555
C9 C13 1_555 1_555
C11 C13 1_555 1_555
C12 C14 1_555 1_555
N3A N4A 1_555 1_555
N5A C7A 1_555 1_555
C1A C9A 1_555 1_555
C5A C6A 1_555 1_555
C6A C7A 1_555 1_555
C9A C13A 1_555 1_555
C11A C13A 1_555 1_555
C12A C14A 1_555 1_555

#END
