
#######################################################################
#
#                 Cambridge Crystallographic Data Centre
#                                CCDC 
#
#######################################################################
#
# If this CIF has been generated from an entry in the Cambridge 
# Structural Database, then it will include bibliographic, chemical, 
# crystal, experimental, refinement or atomic coordinate data resulting 
# from the CCDC's data processing and validation procedures.
#
#######################################################################

data_PORWEA
_symmetry_cell_setting           monoclinic
_symmetry_space_group_name_H-M   'C 2/c'
_symmetry_Int_Tables_number      15
_space_group_name_Hall           '-C 2yn'
loop_
_symmetry_equiv_pos_site_id
_symmetry_equiv_pos_as_xyz
1 x,y,z
2 -x,y,1/2-z
3 1/2+x,1/2+y,z
4 1/2-x,1/2+y,1/2-z
5 -x,-y,-z
6 x,-y,1/2+z
7 1/2-x,1/2-y,-z
8 1/2+x,1/2-y,1/2+z
_cell_length_a                   16.297(5)
_cell_length_b                   16.851(5)
_cell_length_c                   21.065(5)
_cell_angle_alpha                90
_cell_angle_beta                 112.159(5)
_cell_angle_gamma                90
_cell_volume                     5357.62
loop_
_atom_site_label
_atom_site_type_symbol
_atom_site_fract_x
_atom_site_fract_y
_atom_site_fract_z
Mn1 Mn 0.37689(3) 0.18947(3) 0.72579(3)
O1 O 0.5000 0.2625(2) 0.7500
O2 O 0.41808(19) 0.35673(18) 0.64743(15)
O3 O -0.06389(17) 0.38425(15) 0.31454(13)
O4 O 0.07970(18) 0.39210(16) 0.33375(13)
C1 C 0.0117(2) 0.5022(2) 0.36221(18)
N1 N 0.2801(2) 0.28058(18) 0.87964(15)
N2 N 0.3286(2) 0.26349(19) 0.79623(15)
O5 O 0.31234(18) 0.27128(17) 0.64393(13)
C2 C 0.0760(2) 0.5290(2) 0.42315(17)
C3 C 0.1430(2) 0.4763(2) 0.47230(17)
N3 N 0.1293(2) 0.0628(2) 0.61941(16)
C4 C 0.2631(3) 0.2641(2) 0.94082(18)
N4 N 0.2518(2) 0.1186(2) 0.69038(16)
C5 C 0.3146(3) 0.3021(2) 1.00039(19)
H1 H 0.3582 0.3374 0.9997
C6 C 0.0635(3) 0.0325(3) 0.5576(2)
C7 C 0.3274(3) 0.2351(2) 0.85397(18)
H2 H 0.3560 0.1887 0.8746
C8 C 0.2709(3) 0.3831(2) 0.57155(17)
C9 C 0.2312(3) 0.4988(2) 0.50089(19)
H3 H 0.2483 0.5462 0.4867
C10 C 0.2944(3) 0.4537(2) 0.54945(19)
H4 H 0.3530 0.4707 0.5675
C11 C 0.3029(3) 0.2888(2) 1.06197(19)
C12 C 0.0095(3) 0.4190(2) 0.33561(17)
C13 C 0.0753(3) 0.6094(2) 0.4396(2)
H5 H 0.1172 0.6285 0.4804
C14 C 0.2803(3) 0.3321(3) 0.7856(2)
H6 H 0.2697 0.3659 0.7485
C15 C 0.1832(3) 0.3595(2) 0.5434(2)
H7 H 0.1662 0.3121 0.5576
C16 C 0.3389(3) 0.3333(2) 0.62515(18)
C17 C 0.1203(3) 0.4055(2) 0.49432(19)
H8 H 0.0617 0.3884 0.4759
C18 C -0.0251(3) -0.0808(3) 0.4997(2)
C19 C 0.2052(3) 0.1013(3) 0.6269(2)
H9 H 0.2221 0.1139 0.5906
C20 C 0.0390(3) -0.0464(3) 0.5573(2)
H10 H 0.0658 -0.0770 0.5965
C21 C -0.0509(3) 0.5546(2) 0.3204(2)
H11 H -0.0946 0.5360 0.2803
C22 C 0.2504(3) 0.3438(3) 0.8360(2)
H12 H 0.2165 0.3861 0.8405
C23 C 0.0137(3) 0.6607(2) 0.3963(2)
H13 H 0.0156 0.7142 0.4076
C24 C 0.1297(3) 0.0537(3) 0.6837(2)
H14 H 0.0869 0.0288 0.6959
C25 C -0.0478(3) -0.1675(3) 0.5010(2)
H15 H -0.0993 -0.1725 0.5124
H16 H 0.0011 -0.1946 0.5347
H17 H -0.0597 -0.1904 0.4567
C26 C -0.0497(3) 0.6342(3) 0.3373(3)
H18 H -0.0918 0.6690 0.3087
C27 C 0.3594(3) 0.3310(3) 1.1263(2)
H19 H 0.3264 0.3740 1.1350
H20 H 0.4115 0.3514 1.1211
H21 H 0.3764 0.2945 1.1641
C28 C 0.2050(3) 0.0879(3) 0.7259(2)
H22 H 0.2227 0.0903 0.7733
H23 H 0.478(3) 0.295(3) 0.715(2)
H23A H 0.522(3) 0.295(3) 0.785(2)
N1F N 0.2199(2) 0.21942(18) 1.12036(15)
N2F N 0.1714(2) 0.23651(19) 1.20377(15)
C4F C 0.2369(3) 0.2359(2) 1.05918(18)
C5F C 0.1854(3) 0.1979(2) 0.99961(19)
H1F H 0.1418 0.1626 1.0003
C7F C 0.1726(3) 0.2649(2) 1.14603(18)
H2F H 0.1440 0.3113 1.1254
C11F C 0.1971(3) 0.2112(2) 0.93803(19)
C14F C 0.2197(3) 0.1679(3) 1.2144(2)
H6F H 0.2303 0.1341 1.2515
C22F C 0.2496(3) 0.1562(3) 1.1640(2)
H12F H 0.2835 0.1139 1.1595
C27F C 0.1406(3) 0.1690(3) 0.8737(2)
H19F H 0.1736 0.1260 0.8650
H20F H 0.0885 0.1486 0.8789
H21F H 0.1236 0.2055 0.8359
N3D N -0.1293(2) -0.0628(2) 0.38059(16)
N4D N -0.2518(2) -0.1186(2) 0.30962(16)
C6D C -0.0635(3) -0.0325(3) 0.4424(2)
C18D C 0.0251(3) 0.0808(3) 0.5003(2)
C19D C -0.2052(3) -0.1013(3) 0.3731(2)
H9D H -0.2221 -0.1139 0.4094
C20D C -0.0390(3) 0.0464(3) 0.4427(2)
H10D H -0.0658 0.0770 0.4035
C24D C -0.1297(3) -0.0537(3) 0.3163(2)
H14D H -0.0869 -0.0288 0.3041
C25D C 0.0478(3) 0.1675(3) 0.4990(2)
H15D H 0.0993 0.1725 0.4876
H16D H -0.0011 0.1946 0.4653
H17D H 0.0597 0.1904 0.5433
C28D C -0.2050(3) -0.0879(3) 0.2741(2)
H22D H -0.2227 -0.0903 0.2267
Mn1A Mn 0.62311(3) 0.18947(3) 0.77421(3)
O2A O 0.58192(19) 0.35673(18) 0.85257(15)
O3A O 1.06389(17) 0.38425(15) 1.18546(13)
O4A O 0.92030(18) 0.39210(16) 1.16625(13)
C1A C 0.9883(2) 0.5022(2) 1.13779(18)
O5A O 0.68766(18) 0.27128(17) 0.85607(13)
C2A C 0.9240(2) 0.5290(2) 1.07685(17)
C3A C 0.8570(2) 0.4763(2) 1.02770(17)
C8A C 0.7291(3) 0.3831(2) 0.92845(17)
C9A C 0.7688(3) 0.4988(2) 0.99911(19)
H3A H 0.7517 0.5462 1.0133
C10A C 0.7056(3) 0.4537(2) 0.95055(19)
H4A H 0.6470 0.4707 0.9325
C12A C 0.9905(3) 0.4190(2) 1.16439(17)
C13A C 0.9247(3) 0.6094(2) 1.0604(2)
H5A H 0.8828 0.6285 1.0196
C15A C 0.8168(3) 0.3595(2) 0.9566(2)
H7A H 0.8338 0.3121 0.9424
C16A C 0.6611(3) 0.3333(2) 0.87485(18)
C17A C 0.8797(3) 0.4055(2) 1.00568(19)
H8A H 0.9383 0.3884 1.0241
C21A C 1.0509(3) 0.5546(2) 1.1796(2)
H11A H 1.0946 0.5360 1.2197
C23A C 0.9863(3) 0.6607(2) 1.1037(2)
H13A H 0.9844 0.7142 1.0924
C26A C 1.0497(3) 0.6342(3) 1.1627(3)
H18A H 1.0918 0.6690 1.1913
Mn1D Mn -0.37689(3) -0.18947(3) 0.27421(3)
Mn1F Mn 0.12311(3) 0.31053(3) 0.27421(3)
Mn1F_2 Mn 0.12311(3) 0.31053(3) 1.27421(3)
Mn1F_3 Mn 1.12311(3) 0.31053(3) 1.27421(3)
Mn1G Mn -0.12311(3) 0.31053(3) 0.22579(3)
Mn1G_2 Mn 0.87689(3) 0.31053(3) 1.22579(3)
O3F O 0.56389(17) 0.11575(15) 0.68546(13)
O3G O 0.43611(17) 0.11575(15) 0.81454(13)
O4F O 0.42030(18) 0.10790(16) 0.66625(13)
O4G O 0.57970(18) 0.10790(16) 0.83375(13)
N2A N 0.6714(2) 0.26349(19) 0.70377(15)
N4A N 0.7482(2) 0.1186(2) 0.80962(16)
O6 O 0.5000 0.4746(3) 0.7500
H24 H 0.4917 0.4426 0.7169
H24A H 0.5083 0.4426 0.7831
H25? H 0.5381 0.4444 0.7784
loop_
_geom_bond_atom_site_label_1
_geom_bond_atom_site_label_2
_geom_bond_site_symmetry_1
_geom_bond_site_symmetry_2
Mn1 O1 1_555 1_555
O1 H23 1_555 1_555
O2 C16 1_555 1_555
O3 C12 1_555 1_555
O4 C12 1_555 1_555
C1 C2 1_555 1_555
N1 C4 1_555 1_555
N2 Mn1 1_555 1_555
O5 Mn1 1_555 1_555
C2 C3 1_555 1_555
C3 C9 1_555 1_555
N3 C6 1_555 1_555
C4 C5 1_555 1_555
N4 Mn1 1_555 1_555
C5 H1 1_555 1_555
C6 C20 1_555 1_555
C7 N1 1_555 1_555
H2 C7 1_555 1_555
C8 C10 1_555 1_555
C9 H3 1_555 1_555
C10 C9 1_555 1_555
H4 C10 1_555 1_555
C11 C5 1_555 1_555
C12 C1 1_555 1_555
C13 C2 1_555 1_555
H5 C13 1_555 1_555
C14 N2 1_555 1_555
H6 C14 1_555 1_555
C15 C8 1_555 1_555
H7 C15 1_555 1_555
C16 O5 1_555 1_555
C17 C3 1_555 1_555
H8 C17 1_555 1_555
C18 C20 1_555 1_555
C19 N3 1_555 1_555
H9 C19 1_555 1_555
C20 H10 1_555 1_555
C21 C1 1_555 1_555
H11 C21 1_555 1_555
C22 N1 1_555 1_555
H12 C22 1_555 1_555
C23 C13 1_555 1_555
H13 C23 1_555 1_555
C24 N3 1_555 1_555
H14 C24 1_555 1_555
C25 C18 1_555 1_555
H15 C25 1_555 1_555
H16 C25 1_555 1_555
H17 C25 1_555 1_555
C26 C21 1_555 1_555
H18 C26 1_555 1_555
C27 C11 1_555 1_555
H19 C27 1_555 1_555
H20 C27 1_555 1_555
H21 C27 1_555 1_555
C28 N4 1_555 1_555
H22 C28 1_555 1_555
O6 H24 1_555 1_555
H23A O1 1_555 1_555
N1F C4F 1_555 1_555
N2F C7F 1_555 1_555
C4F C11 1_555 1_555
C5F C4F 1_555 1_555
H1F C5F 1_555 1_555
C7F N1F 1_555 1_555
H2F C7F 1_555 1_555
C11F C4 1_555 1_555
C14F N2F 1_555 1_555
H6F C14F 1_555 1_555
C22F N1F 1_555 1_555
H12F C22F 1_555 1_555
C27F C11F 1_555 1_555
H19F C27F 1_555 1_555
H20F C27F 1_555 1_555
H21F C27F 1_555 1_555
N3D C6D 1_555 1_555
N4D C19D 1_555 1_555
C6D C18 1_555 1_555
C18D C6 1_555 1_555
C19D N3D 1_555 1_555
H9D C19D 1_555 1_555
C20D C6D 1_555 1_555
H10D C20D 1_555 1_555
C24D N3D 1_555 1_555
H14D C24D 1_555 1_555
C25D C18D 1_555 1_555
H15D C25D 1_555 1_555
H16D C25D 1_555 1_555
H17D C25D 1_555 1_555
C28D N4D 1_555 1_555
H22D C28D 1_555 1_555
Mn1A O1 1_555 1_555
O2A C16A 1_555 1_555
O3A C12A 1_555 1_555
O4A C12A 1_555 1_555
C1A C2A 1_555 1_555
O5A Mn1A 1_555 1_555
C2A C3A 1_555 1_555
C3A C9A 1_555 1_555
C8A C10A 1_555 1_555
C9A H3A 1_555 1_555
C10A C9A 1_555 1_555
H4A C10A 1_555 1_555
C12A C1A 1_555 1_555
C13A C2A 1_555 1_555
H5A C13A 1_555 1_555
C15A C8A 1_555 1_555
H7A C15A 1_555 1_555
C16A O5A 1_555 1_555
C17A C3A 1_555 1_555
H8A C17A 1_555 1_555
C21A C1A 1_555 1_555
H11A C21A 1_555 1_555
C23A C13A 1_555 1_555
H13A C23A 1_555 1_555
C26A C21A 1_555 1_555
H18A C26A 1_555 1_555
Mn1D N4D 1_555 1_555
Mn1F O4 1_555 1_555
Mn1F_2 N2F 1_555 1_555
Mn1F_3 O3A 1_555 1_555
Mn1G O3 1_555 1_555
Mn1G_2 O4A 1_555 1_555
O3F Mn1A 1_555 1_555
O3G Mn1 1_555 1_555
O4F Mn1 1_555 1_555
O4G Mn1A 1_555 1_555
N2A Mn1A 1_555 1_555
N4A Mn1A 1_555 1_555
H24A O6 1_555 1_555
N2 C7 1_555 1_555
N4 C19 1_555 1_555
C8 C16 1_555 1_555
C14 C22 1_555 1_555
C15 C17 1_555 1_555
C23 C26 1_555 1_555
C24 C28 1_555 1_555
C5F C11F 1_555 1_555
C14F C22F 1_555 1_555
C18D C20D 1_555 1_555
C24D C28D 1_555 1_555
C8A C16A 1_555 1_555
C15A C17A 1_555 1_555
C23A C26A 1_555 1_555

#END
