
#######################################################################
#
#                 Cambridge Crystallographic Data Centre
#                                CCDC 
#
#######################################################################
#
# If this CIF has been generated from an entry in the Cambridge 
# Structural Database, then it will include bibliographic, chemical, 
# crystal, experimental, refinement or atomic coordinate data resulting 
# from the CCDC's data processing and validation procedures.
#
#######################################################################

data_PORXIF
_symmetry_cell_setting           monoclinic
_symmetry_space_group_name_H-M   'P 21/c'
_symmetry_Int_Tables_number      14
_space_group_name_Hall           '-P 2ybc'
loop_
_symmetry_equiv_pos_site_id
_symmetry_equiv_pos_as_xyz
1 x,y,z
2 -x,1/2+y,1/2-z
3 -x,-y,-z
4 x,1/2-y,1/2+z
_cell_length_a                   11.4766(7)
_cell_length_b                   11.8312(7)
_cell_length_c                   13.9640(9)
_cell_angle_alpha                90
_cell_angle_beta                 107.5320(10)
_cell_angle_gamma                90
_cell_volume                     1807.99
loop_
_atom_site_label
_atom_site_type_symbol
_atom_site_fract_x
_atom_site_fract_y
_atom_site_fract_z
Cd1 Cd 0.056365(14) 0.482362(14) 0.140506(12)
O1 O 0.05473(15) 0.39297(14) -0.01017(12)
N1 N -0.76635(17) 0.57833(16) 0.14417(14)
O2 O -0.54630(16) 0.35735(16) 0.05809(15)
N2 N -0.11875(17) 0.37510(16) 0.12300(14)
C1 C -0.6654(2) 0.5178(2) 0.14939(17)
H1 H -0.6701 0.4376 0.1506
C2 C -0.3296(2) 0.3545(2) 0.11364(17)
C3 C -0.5551(2) 0.5675(2) 0.15307(17)
C4 C -0.1086(2) 0.2625(2) 0.12414(17)
H2 H -0.0313 0.2301 0.1292
C5 C -0.7592(2) 0.6913(2) 0.14234(17)
H3 H -0.8305 0.7347 0.1366
C6 C -0.3175(2) 0.2381(2) 0.11246(19)
H4 H -0.3858 0.1908 0.1077
C7 C -0.2279(2) 0.4191(2) 0.11804(18)
H5 H -0.2359 0.4991 0.1175
N3 N -0.44999(18) 0.50279(17) 0.15689(15)
H6 H -0.3786 0.5279 0.1942
C8 C -0.2057(2) 0.1917(2) 0.11826(19)
H7 H -0.1956 0.1120 0.1182
C9 C -0.4528(2) 0.4047(2) 0.10658(19)
C10 C -0.5479(2) 0.6839(2) 0.15464(19)
H8 H -0.4726 0.7207 0.1599
C11 C -0.6516(2) 0.7463(2) 0.14845(19)
H9 H -0.6486 0.8265 0.1484
C12 C 0.09137(19) 0.33074(18) -0.06896(16)
O3 O 0.10262(14) 0.06094(13) -0.18700(11)
O4 O 0.05706(15) 0.34908(14) -0.16180(11)
O5 O 0.19597(16) 0.16679(14) -0.26989(13)
C13 C 0.1770(2) 0.13867(19) -0.18885(17)
C14 C 0.1756(2) 0.23383(19) -0.02549(16)
H10 H 0.1261 0.1701 -0.0131
H11 H 0.2317 0.2575 0.0403
C15 C 0.2518(2) 0.19156(19) -0.09075(17)
H12 H 0.2978 0.2571 -0.1066
C16 C 0.3450(2) 0.1033(2) -0.0323(2)
H13 H 0.3016 0.0398 -0.0136
H14 H 0.3993 0.1381 0.0285
H15 H 0.3933 0.0760 -0.0747
Cd1_2 Cd -0.943635(14) 0.482362(14) 0.140506(12)
Cd1B Cd -0.056365(14) 0.517638(14) -0.140506(12)
Cd1C Cd 0.056365(14) 0.017638(14) -0.359494(12)
O1B O -0.05473(15) 0.60703(14) 0.01017(12)
N1_2 N 0.23365(17) 0.57833(16) 0.14417(14)
O3C O 0.10262(14) 0.43906(13) 0.31300(11)
O4B O -0.05706(15) 0.65092(14) 0.16180(11)
O5C O 0.19597(16) 0.33321(14) 0.23011(13)
O6 O 0.07845(19) 0.9573(2) 0.09269(16)
H16 H 0.0351 0.9255 0.1266
H17 H 0.0356 1.0101 0.0546
O7 O 0.2413(2) 0.10829(18) 0.21510(16)
H18 H 0.2043 0.0727 0.2521
H19 H 0.2232 0.1798 0.2133
loop_
_geom_bond_atom_site_label_1
_geom_bond_atom_site_label_2
_geom_bond_site_symmetry_1
_geom_bond_site_symmetry_2
Cd1 O1 1_555 1_555
O1 C12 1_555 1_555
N1 C1 1_555 1_555
O2 C9 1_555 1_555
N2 Cd1 1_555 1_555
C1 H1 1_555 1_555
C2 C6 1_555 1_555
C3 C1 1_555 1_555
C4 N2 1_555 1_555
H2 C4 1_555 1_555
C5 N1 1_555 1_555
H3 C5 1_555 1_555
C6 H4 1_555 1_555
C7 N2 1_555 1_555
H5 C7 1_555 1_555
N3 C3 1_555 1_555
H6 N3 1_555 1_555
C8 C4 1_555 1_555
H7 C8 1_555 1_555
C9 C2 1_555 1_555
C10 C3 1_555 1_555
H8 C10 1_555 1_555
C11 C5 1_555 1_555
H9 C11 1_555 1_555
C12 O4 1_555 1_555
O3 C13 1_555 1_555
O4 Cd1B 1_555 1_555
O5 C13 1_555 1_555
C13 C15 1_555 1_555
C14 C12 1_555 1_555
H10 C14 1_555 1_555
H11 C14 1_555 1_555
C15 C14 1_555 1_555
H12 C15 1_555 1_555
C16 C15 1_555 1_555
H13 C16 1_555 1_555
H14 C16 1_555 1_555
H15 C16 1_555 1_555
O6 H16 1_555 1_555
H17 O6 1_555 1_555
O7 H18 1_555 1_555
H19 O7 1_555 1_555
Cd1_2 N1 1_555 1_555
Cd1B O1 1_555 1_555
Cd1C O3 1_555 1_555
O1B Cd1 1_555 1_555
N1_2 Cd1 1_555 1_555
O3C Cd1 1_555 1_555
O4B Cd1 1_555 1_555
O5C Cd1 1_555 1_555
C2 C7 1_555 1_555
C6 C8 1_555 1_555
N3 C9 1_555 1_555
C10 C11 1_555 1_555
O5 Cd1C 1_555 1_555
Cd1B O1B 1_555 1_555

#END
