
#######################################################################
#
#                 Cambridge Crystallographic Data Centre
#                                CCDC 
#
#######################################################################
#
# If this CIF has been generated from an entry in the Cambridge 
# Structural Database, then it will include bibliographic, chemical, 
# crystal, experimental, refinement or atomic coordinate data resulting 
# from the CCDC's data processing and validation procedures.
#
#######################################################################

data_PORXOL
_symmetry_cell_setting           triclinic
_symmetry_space_group_name_H-M   'P -1'
_symmetry_Int_Tables_number      2
_space_group_name_Hall           '-P 1'
loop_
_symmetry_equiv_pos_site_id
_symmetry_equiv_pos_as_xyz
1 x,y,z
2 -x,-y,-z
_cell_length_a                   10.2023(8)
_cell_length_b                   13.7842(11)
_cell_length_c                   14.8240(12)
_cell_angle_alpha                62.3390(10)
_cell_angle_beta                 82.9930(10)
_cell_angle_gamma                79.0450(10)
_cell_volume                     1811.43
loop_
_atom_site_label
_atom_site_type_symbol
_atom_site_fract_x
_atom_site_fract_y
_atom_site_fract_z
Cd1 Cd 0.136041(16) 0.574846(14) 0.383137(13)
Cd2 Cd 0.089558(16) 0.940707(14) 0.126636(13)
O1 O 0.05439(16) 0.92497(14) 0.28802(13)
O2 O -0.11248(16) 0.88385(14) 0.23741(12)
O3 O -0.02359(16) 0.67117(14) 0.44347(13)
O4 O -0.21058(18) 0.60066(14) 0.51744(14)
O5 O 0.11890(17) 0.92487(14) -0.01840(12)
O6 O -0.03362(18) 0.86683(15) -0.06581(15)
O7 O 0.15439(17) 0.74381(14) 0.20691(13)
O8 O 0.26628(17) 0.57848(14) 0.24219(13)
O9 O 0.46349(19) 0.91899(16) 0.45689(16)
O10 O -0.4510(2) 0.69753(18) 0.1565(2)
N1 N -0.0334(2) 0.54781(17) 0.31182(16)
N2 N -0.3531(2) 0.81265(17) 0.18780(17)
H1 H -0.2817 0.8195 0.2110
N3 N -0.69069(19) 0.97367(17) 0.12484(15)
N4 N 0.2808(2) 0.62633(17) 0.45359(16)
N5 N 0.2792(2) 0.96703(19) 0.36472(18)
H2 H 0.2157 0.9407 0.3516
N6 N 0.3550(2) 1.2524(2) 0.2759(2)
C1 C 0.3557(2) 0.5527(2) 0.53273(19)
H3 H 0.3529 0.4760 0.5574
C2 C 0.4362(3) 0.5842(2) 0.5795(2)
H4 H 0.4887 0.5299 0.6347
C3 C 0.4399(3) 0.6946(2) 0.5456(2)
H5 H 0.4949 0.7177 0.5770
C4 C 0.3621(3) 0.7724(2) 0.4646(2)
C5 C 0.2853(3) 0.7343(2) 0.4210(2)
H6 H 0.2329 0.7871 0.3651
C6 C 0.3734(3) 0.8923(2) 0.4287(2)
C7 C 0.2486(3) 1.3083(2) 0.2183(2)
H7 H 0.2394 1.3869 0.1833
C8 C 0.1526(3) 1.2576(2) 0.2075(2)
H8 H 0.0787 1.3005 0.1660
C9 C 0.1643(3) 1.1450(2) 0.2567(2)
H9 H 0.0985 1.1085 0.2501
C10 C 0.2729(3) 1.0843(2) 0.3164(2)
C11 C 0.3668(3) 1.1410(2) 0.3247(2)
H10 H 0.4414 1.0998 0.3660
C12 C -0.0343(3) 0.4555(2) 0.3033(2)
H11 H 0.0355 0.3951 0.3324
C13 C -0.1329(3) 0.4447(2) 0.2539(2)
H12 H -0.1297 0.3786 0.2480
C14 C -0.2357(3) 0.5311(2) 0.2135(2)
H13 H -0.3054 0.5252 0.1801
C15 C -0.2360(2) 0.6270(2) 0.22218(19)
C16 C -0.1330(2) 0.6322(2) 0.27088(18)
H14 H -0.1324 0.6985 0.2758
C17 C -0.6622(2) 1.0764(2) 0.08714(19)
H15 H -0.7321 1.1374 0.0609
C18 C -0.5341(2) 1.0969(2) 0.0851(2)
H16 H -0.5175 1.1707 0.0605
C19 C -0.4305(2) 1.0098(2) 0.1190(2)
H17 H -0.3418 1.0227 0.1172
C20 C -0.4583(2) 0.9031(2) 0.15559(19)
C21 C -0.5910(2) 0.8884(2) 0.15987(19)
H18 H -0.6113 0.8151 0.1887
C22 C -0.3554(3) 0.7156(2) 0.1851(2)
C23 C -0.0614(2) 0.89752(19) 0.30301(18)
C24 C -0.1415(2) 0.8892(2) 0.40006(19)
C25 C -0.2235(2) 0.7941(2) 0.44107(19)
H19 H -0.2763 0.7926 0.5022
H20 H -0.2876 0.8103 0.3890
C26 C -0.1452(2) 0.6804(2) 0.46904(18)
C27 C -0.2380(3) 0.9991(2) 0.3684(2)
H21 H -0.1866 1.0607 0.3429
H22 H -0.2945 0.9971 0.4275
H23 H -0.2944 1.0096 0.3146
C28 C -0.0506(3) 0.8747(2) 0.4811(2)
H24 H 0.0164 0.8085 0.4964
H25 H -0.1041 0.8663 0.5432
H26 H -0.0057 0.9399 0.4559
C29 C 0.0766(2) 0.8498(2) -0.02870(18)
C30 C 0.1672(2) 0.7391(2) -0.00452(18)
C31 C 0.2774(2) 0.7157(2) 0.06848(18)
H27 H 0.3487 0.6582 0.0639
H28 H 0.3171 0.7840 0.0453
C32 C 0.2308(2) 0.6774(2) 0.17889(18)
C33 C 0.0853(3) 0.6438(2) 0.0373(2)
H29 H 0.0422 0.6350 0.1029
H30 H 0.1444 0.5751 0.0468
H31 H 0.0169 0.6604 -0.0109
C34 C 0.2353(3) 0.7522(2) -0.1074(2)
H32 H 0.1670 0.7686 -0.1557
H33 H 0.2941 0.6832 -0.0976
H34 H 0.2880 0.8130 -0.1344
Cd1A Cd -0.136041(16) 0.425154(14) 0.616863(13)
Cd2_2 Cd -0.910442(16) 0.940707(14) 0.126636(13)
Cd2A Cd -0.089558(16) 1.059293(14) -0.126636(13)
O4A O 0.21058(18) 0.39934(14) 0.48256(14)
O5A O -0.11890(17) 1.07513(14) 0.01840(12)
O6A O 0.03362(18) 1.13317(15) 0.06581(15)
N3_2 N 0.30931(19) 0.97367(17) 0.12484(15)
O11 O 0.4081(6) 1.4526(5) 0.0051(4)
H35 H 0.3358 1.4381 -0.0088
H36 H 0.4530 1.4875 -0.0513
O12 O 0.4913(2) 1.44444(18) 0.19171(17)
H37 H 0.4673 1.3790 0.2216
H38 H 0.4315 1.4905 0.2052
loop_
_geom_bond_atom_site_label_1
_geom_bond_atom_site_label_2
_geom_bond_site_symmetry_1
_geom_bond_site_symmetry_2
Cd1 O3 1_555 1_555
Cd2 O1 1_555 1_555
O1 C23 1_555 1_555
O2 Cd2 1_555 1_555
O3 C26 1_555 1_555
O4 C26 1_555 1_555
O5 Cd2 1_555 1_555
O6 C29 1_555 1_555
O7 Cd1 1_555 1_555
O8 Cd1 1_555 1_555
O9 C6 1_555 1_555
O10 C22 1_555 1_555
N1 Cd1 1_555 1_555
N2 H1 1_555 1_555
N3 C17 1_555 1_555
N4 Cd1 1_555 1_555
N5 H2 1_555 1_555
N6 C7 1_555 1_555
C1 N4 1_555 1_555
H3 C1 1_555 1_555
C2 C1 1_555 1_555
H4 C2 1_555 1_555
C3 C2 1_555 1_555
H5 C3 1_555 1_555
C4 C3 1_555 1_555
C5 N4 1_555 1_555
H6 C5 1_555 1_555
C6 N5 1_555 1_555
C7 H7 1_555 1_555
C8 C7 1_555 1_555
H8 C8 1_555 1_555
C9 C8 1_555 1_555
H9 C9 1_555 1_555
C10 N5 1_555 1_555
C11 N6 1_555 1_555
H10 C11 1_555 1_555
C12 N1 1_555 1_555
H11 C12 1_555 1_555
C13 C12 1_555 1_555
H12 C13 1_555 1_555
C14 C13 1_555 1_555
H13 C14 1_555 1_555
C15 C14 1_555 1_555
C16 N1 1_555 1_555
H14 C16 1_555 1_555
C17 H15 1_555 1_555
C18 C17 1_555 1_555
H16 C18 1_555 1_555
C19 C18 1_555 1_555
H17 C19 1_555 1_555
C20 N2 1_555 1_555
C21 N3 1_555 1_555
H18 C21 1_555 1_555
C22 N2 1_555 1_555
C23 O2 1_555 1_555
C24 C23 1_555 1_555
C25 C24 1_555 1_555
H19 C25 1_555 1_555
H20 C25 1_555 1_555
C26 C25 1_555 1_555
C27 C24 1_555 1_555
H21 C27 1_555 1_555
H22 C27 1_555 1_555
H23 C27 1_555 1_555
C28 C24 1_555 1_555
H24 C28 1_555 1_555
H25 C28 1_555 1_555
H26 C28 1_555 1_555
C29 O5 1_555 1_555
C30 C29 1_555 1_555
C31 C30 1_555 1_555
H27 C31 1_555 1_555
H28 C31 1_555 1_555
C32 O7 1_555 1_555
C33 C30 1_555 1_555
H29 C33 1_555 1_555
H30 C33 1_555 1_555
H31 C33 1_555 1_555
C34 C30 1_555 1_555
H32 C34 1_555 1_555
H33 C34 1_555 1_555
H34 C34 1_555 1_555
O11 H35 1_555 1_555
H36 O11 1_555 1_555
O12 H37 1_555 1_555
H38 O12 1_555 1_555
Cd1A O4 1_555 1_555
Cd2_2 N3 1_555 1_555
Cd2A O5 1_555 1_555
O4A Cd1 1_555 1_555
O5A Cd2 1_555 1_555
O6A Cd2 1_555 1_555
N3_2 Cd2 1_555 1_555
Cd2 O7 1_555 1_555
O6 Cd2A 1_555 1_555
O8 C32 1_555 1_555
C4 C5 1_555 1_555
C4 C6 1_555 1_555
C9 C10 1_555 1_555
C10 C11 1_555 1_555
C15 C16 1_555 1_555
C15 C22 1_555 1_555
C19 C20 1_555 1_555
C20 C21 1_555 1_555
C31 C32 1_555 1_555
Cd2A O5A 1_555 1_555

#END
