
#######################################################################
#
#                 Cambridge Crystallographic Data Centre
#                                CCDC 
#
#######################################################################
#
# If this CIF has been generated from an entry in the Cambridge 
# Structural Database, then it will include bibliographic, chemical, 
# crystal, experimental, refinement or atomic coordinate data resulting 
# from the CCDC's data processing and validation procedures.
#
#######################################################################

data_PORZOM
_symmetry_cell_setting           monoclinic
_symmetry_space_group_name_H-M   'P 21/c'
_symmetry_Int_Tables_number      14
_space_group_name_Hall           '-P 2ybc'
loop_
_symmetry_equiv_pos_site_id
_symmetry_equiv_pos_as_xyz
1 x,y,z
2 -x,1/2+y,1/2-z
3 -x,-y,-z
4 x,1/2-y,1/2+z
_cell_length_a                   10.0079(6)
_cell_length_b                   8.4784(5)
_cell_length_c                   15.6539(10)
_cell_angle_alpha                90
_cell_angle_beta                 99.002(3)
_cell_angle_gamma                90
_cell_volume                     1311.89
loop_
_atom_site_label
_atom_site_type_symbol
_atom_site_fract_x
_atom_site_fract_y
_atom_site_fract_z
Ag1 Ag 0.47412(2) -0.17843(3) 0.956622(15)
N1 N 0.1167(3) 0.0770(3) 0.74891(16)
C1 C 0.0871(3) -0.0095(4) 0.8145(2)
H1 H -0.0052 -0.0254 0.8200
C2 C 0.1864(3) -0.0770(4) 0.8749(2)
H2 H 0.1606 -0.1396 0.9199
N2 N 0.3186(3) -0.0560(3) 0.87120(16)
C3 C 0.3503(3) 0.0323(4) 0.8062(2)
H3 H 0.4425 0.0503 0.8015
C4 C 0.2486(3) 0.0979(4) 0.74564(19)
C5 C 0.2871(3) 0.1924(4) 0.6715(2)
O1 O 0.4050(2) 0.2315(3) 0.67168(15)
N3 N 0.1834(3) 0.2260(3) 0.60909(17)
H4 H 0.109(4) 0.186(4) 0.615(3)
C6 C 0.2018(3) 0.3052(4) 0.5284(2)
H5 H 0.2705 0.3893 0.5415
H6 H 0.1155 0.3555 0.5028
C7 C 0.2460(3) 0.1928(4) 0.4632(2)
C8 C 0.1522(3) 0.0996(4) 0.4110(2)
H7 H 0.0587 0.1067 0.4151
C9 C 0.1969(3) -0.0039(4) 0.3528(2)
H8 H 0.1341 -0.0693 0.3173
C10 C 0.3332(3) -0.0114(4) 0.3468(2)
H9 H 0.3659 -0.0818 0.3076
C11 C 0.4210(3) 0.0872(4) 0.4000(2)
H10 H 0.5146 0.0839 0.3957
N4 N 0.3792(3) 0.1872(3) 0.45711(18)
Ag1A Ag 0.52588(2) 0.32157(3) 0.543378(15)
N4A N 0.6208(3) -0.3128(3) 1.04289(18)
B1 B 0.2231(4) -0.2255(5) 1.1139(2)
F1 F 0.3398(2) -0.1338(3) 1.11210(15)
F2 F 0.1133(2) -0.1521(3) 1.06296(14)
F3 F 0.1966(2) -0.2386(3) 1.19744(13)
F4 F 0.2422(2) -0.3735(3) 1.08021(16)
loop_
_geom_bond_atom_site_label_1
_geom_bond_atom_site_label_2
_geom_bond_site_symmetry_1
_geom_bond_site_symmetry_2
Ag1 N2 1_555 1_555
N1 C1 1_555 1_555
C1 H1 1_555 1_555
C2 C1 1_555 1_555
H2 C2 1_555 1_555
N2 C2 1_555 1_555
C3 N2 1_555 1_555
H3 C3 1_555 1_555
C4 N1 1_555 1_555
C5 C4 1_555 1_555
O1 C5 1_555 1_555
N3 C5 1_555 1_555
H4 N3 1_555 1_555
C6 N3 1_555 1_555
H5 C6 1_555 1_555
H6 C6 1_555 1_555
C7 C6 1_555 1_555
C8 C7 1_555 1_555
H7 C8 1_555 1_555
C9 C8 1_555 1_555
H8 C9 1_555 1_555
C10 C9 1_555 1_555
H9 C10 1_555 1_555
C11 C10 1_555 1_555
H10 C11 1_555 1_555
N4 C7 1_555 1_555
B1 F1 1_555 1_555
F2 B1 1_555 1_555
F3 B1 1_555 1_555
F4 B1 1_555 1_555
Ag1A N4 1_555 1_555
N4A Ag1 1_555 1_555
C3 C4 1_555 1_555
C11 N4 1_555 1_555

#END
