
#######################################################################
#
#                 Cambridge Crystallographic Data Centre
#                                CCDC 
#
#######################################################################
#
# If this CIF has been generated from an entry in the Cambridge 
# Structural Database, then it will include bibliographic, chemical, 
# crystal, experimental, refinement or atomic coordinate data resulting 
# from the CCDC's data processing and validation procedures.
#
#######################################################################

data_PORZED
_symmetry_cell_setting           monoclinic
_symmetry_space_group_name_H-M   'P 21/c'
_symmetry_Int_Tables_number      14
_space_group_name_Hall           '-P 2ybc'
loop_
_symmetry_equiv_pos_site_id
_symmetry_equiv_pos_as_xyz
1 x,y,z
2 -x,1/2+y,1/2-z
3 -x,-y,-z
4 x,1/2-y,1/2+z
_cell_length_a                   7.5548(18)
_cell_length_b                   23.683(6)
_cell_length_c                   10.306(2)
_cell_angle_alpha                90
_cell_angle_beta                 96.239(4)
_cell_angle_gamma                90
_cell_volume                     1833.03
loop_
_atom_site_label
_atom_site_type_symbol
_atom_site_fract_x
_atom_site_fract_y
_atom_site_fract_z
Br1 Br -0.06894(6) 0.767905(17) 0.32618(4)
Cd1 Cd 0.17512(4) 0.467695(11) 0.16665(3)
O1 O 0.5442(4) 0.25033(11) 0.1119(3)
O2 O -0.0907(4) 0.60472(12) 0.6985(3)
O3 O -0.1923(4) 0.52682(11) 0.5982(3)
O4 O -0.1052(4) 0.50996(11) 0.1237(3)
O5 O -0.1525(4) 0.58843(11) 0.0055(3)
N1 N 0.4563(4) 0.41930(13) 0.2184(3)
N2 N 0.5863(5) 0.22861(13) 0.3288(3)
H1 H 0.591(6) 0.2440(15) 0.408(2)
N3 N 0.7001(4) 0.05538(13) 0.3348(3)
C1 C 0.5757(5) 0.43821(17) 0.3146(4)
H2 H 0.5786 0.4776 0.3323
C2 C 0.6930(6) 0.40439(18) 0.3884(4)
H3 H 0.7760 0.4199 0.4547
C3 C 0.6881(6) 0.34709(18) 0.3645(4)
H4 H 0.7660 0.3223 0.4157
C4 C 0.5679(5) 0.32623(16) 0.2647(4)
C5 C 0.4548(5) 0.36368(15) 0.1940(4)
H5 H 0.3726 0.3494 0.1255
C6 C 0.5630(5) 0.26494(16) 0.2265(4)
C7 C 0.6184(5) 0.17065(16) 0.3240(4)
C8 C 0.6847(6) 0.14416(17) 0.4410(4)
H6 H 0.7046 0.1655 0.5193
C9 C 0.7206(6) 0.08757(17) 0.4419(4)
H7 H 0.7623 0.0703 0.5226
C10 C 0.6365(6) 0.08091(17) 0.2231(4)
H8 H 0.6219 0.0587 0.1459
C11 C 0.5911(5) 0.13680(16) 0.2130(4)
H9 H 0.5420 0.1522 0.1319
C12 C -0.1203(5) 0.59813(16) 0.2337(4)
C13 C -0.1311(5) 0.57291(16) 0.3539(4)
H10 H -0.1403 0.5330 0.3594
C14 C -0.1286(5) 0.60524(16) 0.4664(4)
C15 C -0.1124(5) 0.66360(17) 0.4590(4)
H11 H -0.1100 0.6862 0.5353
C16 C -0.0999(5) 0.68812(16) 0.3388(4)
C17 C -0.1048(5) 0.65668(16) 0.2261(4)
H12 H -0.0978 0.6746 0.1443
C18 C -0.1394(5) 0.57686(17) 0.5970(4)
C19 C -0.1258(5) 0.56290(17) 0.1131(4)
Cd1A Cd 0.82488(4) -0.032305(11) 0.33335(3)
Cd1B Cd -0.17512(4) 0.532305(11) -0.16665(3)
Cd1B_2 Cd -0.17512(4) 0.532305(11) 0.83335(3)
O2B O 0.0907(4) 0.39528(12) 0.3015(3)
O3B O 0.1923(4) 0.47318(11) 0.4018(3)
O5B O 0.1525(4) 0.41157(11) -0.0055(3)
N3A N 0.2999(4) 0.55538(13) 0.1652(3)
loop_
_geom_bond_atom_site_label_1
_geom_bond_atom_site_label_2
_geom_bond_site_symmetry_1
_geom_bond_site_symmetry_2
Br1 C16 1_555 1_555
Cd1 O4 1_555 1_555
O1 C6 1_555 1_555
O2 C18 1_555 1_555
O3 C18 1_555 1_555
O4 C19 1_555 1_555
O5 C19 1_555 1_555
N1 Cd1 1_555 1_555
N2 H1 1_555 1_555
N3 C9 1_555 1_555
C1 N1 1_555 1_555
H2 C1 1_555 1_555
C2 C1 1_555 1_555
H3 C2 1_555 1_555
C3 C2 1_555 1_555
H4 C3 1_555 1_555
C4 C3 1_555 1_555
C5 N1 1_555 1_555
H5 C5 1_555 1_555
C6 N2 1_555 1_555
C7 N2 1_555 1_555
C8 C7 1_555 1_555
H6 C8 1_555 1_555
C9 C8 1_555 1_555
H7 C9 1_555 1_555
C10 N3 1_555 1_555
H8 C10 1_555 1_555
C11 C7 1_555 1_555
H9 C11 1_555 1_555
C12 C13 1_555 1_555
C13 H10 1_555 1_555
C14 C13 1_555 1_555
C15 C14 1_555 1_555
H11 C15 1_555 1_555
C16 C15 1_555 1_555
C17 C12 1_555 1_555
H12 C17 1_555 1_555
C18 C14 1_555 1_555
C19 C12 1_555 1_555
Cd1A N3 1_555 1_555
Cd1B O5 1_555 1_555
Cd1B_2 O2 1_555 1_555
O2B Cd1 1_555 1_555
O3B Cd1 1_555 1_555
O5B Cd1 1_555 1_555
N3A Cd1 1_555 1_555
O3 Cd1B_2 1_555 1_555
C4 C5 1_555 1_555
C4 C6 1_555 1_555
C10 C11 1_555 1_555
C16 C17 1_555 1_555

#END
