
#######################################################################
#
#                 Cambridge Crystallographic Data Centre
#                                CCDC 
#
#######################################################################
#
# If this CIF has been generated from an entry in the Cambridge 
# Structural Database, then it will include bibliographic, chemical, 
# crystal, experimental, refinement or atomic coordinate data resulting 
# from the CCDC's data processing and validation procedures.
#
#######################################################################

data_PORZON
_symmetry_cell_setting           monoclinic
_symmetry_space_group_name_H-M   'C c'
_symmetry_Int_Tables_number      9
_space_group_name_Hall           'C -2yc'
loop_
_symmetry_equiv_pos_site_id
_symmetry_equiv_pos_as_xyz
1 x,y,z
2 x,-y,1/2+z
3 1/2+x,1/2+y,z
4 1/2+x,1/2-y,1/2+z
_cell_length_a                   17.1864(13)
_cell_length_b                   14.8862(13)
_cell_length_c                   10.8886(9)
_cell_angle_alpha                90
_cell_angle_beta                 95.8570(10)
_cell_angle_gamma                90
_cell_volume                     2771.2
loop_
_atom_site_label
_atom_site_type_symbol
_atom_site_fract_x
_atom_site_fract_y
_atom_site_fract_z
Cd1 Cd 0.69589(2) 0.06881(2) 0.01324(3)
Cd2 Cd 0.85286(2) -0.38507(3) 0.40540(3)
O1 O 0.7864(3) -0.3572(2) 0.2149(4)
O2 O 0.7526(2) -0.8081(2) 0.1222(3)
O3 O 0.9521(3) -0.4171(3) 0.2840(4)
H1 H 0.984(2) -0.459(3) 0.306(4)
H2 H 0.934(3) -0.427(3) 0.209(2)
O4 O 0.8236(2) -0.2276(2) 0.2994(3)
O5 O 0.7487(3) -0.3576(3) 0.5061(4)
H3 H 0.753(2) -0.3055(12) 0.535(2)
H4 H 0.7310 -0.3945 0.5583
O6 O 0.8192(2) -0.5331(2) 0.3883(3)
O7 O 0.9255(2) -0.5397(2) 0.5219(3)
O8 O 0.5756(2) 0.0457(3) -0.1879(3)
O9 O 0.5852(3) 0.0634(3) 0.1101(4)
H5 H 0.587(3) 0.021(3) 0.164(4)
H6 H 0.5411(18) 0.054(3) 0.066(4)
O10 O 0.8010(3) 0.0631(2) -0.1008(4)
H7 H 0.804(3) 0.1158(15) -0.127(4)
H8 H 0.781(3) 0.028(2) -0.154(3)
O11 O 0.6351(2) 0.1707(2) -0.1170(3)
O12 O 0.7772(2) -0.9384(2) 0.2124(3)
N1 N 0.4398(3) 0.1897(3) -0.4577(4)
N2 N 0.6965(3) -0.0878(2) 0.0108(5)
C1 C 0.6509(3) -0.1367(4) -0.0716(5)
H9 H 0.6187 -0.1060 -0.1342
C2 C 0.9403(3) -0.8196(3) 0.4810(5)
C3 C 0.6945(4) -0.2735(3) 0.0229(6)
H10 H 0.6944 -0.3373 0.0256
C4 C 0.4832(3) 0.1453(4) -0.3698(5)
H11 H 0.4756 0.0823 -0.3645
C5 C 0.5043(3) 0.3238(3) -0.3825(5)
H12 H 0.5107 0.3870 -0.3890
C6 C 0.6485(3) -0.2285(4) -0.0696(5)
H13 H 0.6161 -0.2608 -0.1302
C7 C 0.7396(3) -0.2258(4) 0.1098(5)
C8 C 0.5866(3) 0.1296(4) -0.1898(5)
C9 C 0.5483(3) 0.2764(4) -0.2932(5)
H14 H 0.5853 0.3063 -0.2367
C10 C 0.7869(3) -0.2725(4) 0.2158(5)
C11 C 0.8797(3) -0.6759(3) 0.4236(5)
C12 C 0.8745(3) -0.5762(4) 0.4468(5)
C13 C 0.9331(3) -0.7274(4) 0.4971(5)
H15 H 0.9661 -0.6987 0.5607
C14 C 0.5386(3) 0.1845(4) -0.2856(5)
C15 C 0.8904(3) -0.8591(3) 0.3856(5)
H16 H 0.8928 -0.9221 0.3728
C16 C 0.8380(3) -0.8085(3) 0.3102(4)
C17 C 0.7407(3) -0.1326(3) 0.0997(5)
H17 H 0.7741 -0.0994 0.1580
C18 C 0.9519(3) -0.9310(4) 0.6525(5)
H18 H 0.9885 -0.9682 0.7054
H19 H 0.9135 -0.9696 0.6054
H20 H 0.9248 -0.8896 0.7038
C19 C 1.0587(3) -0.8187(4) 0.6392(6)
H21 H 1.0944 -0.8577 0.6910
H22 H 1.0323 -0.7776 0.6918
H23 H 1.0885 -0.7839 0.5836
C20 C 0.4502(3) 0.2789(4) -0.4637(5)
H24 H 0.4196 0.3123 -0.5254
C21 C 1.0418(3) -0.9415(3) 0.4870(5)
H25 H 1.0778 -0.9775 0.5426
H26 H 1.0715 -0.9075 0.4305
H27 H 1.0046 -0.9813 0.4394
C22 C 0.8321(3) -0.7166(3) 0.3266(5)
H28 H 0.7967 -0.6818 0.2735
C23 C 0.9973(3) -0.8766(3) 0.5626(4)
C24 C 0.7855(3) -0.8550(4) 0.2082(5)
Cd1_2 Cd 0.69589(2) -0.93119(2) 0.01324(3)
Cd2B Cd 0.35286(2) 0.11493(3) -0.59460(3)
O2_2 O 0.7526(2) 0.1919(2) 0.1222(3)
O12_2 O 0.7772(2) 0.0616(2) 0.2124(3)
N1B N 0.9398(3) -0.3103(3) 0.5423(4)
O13 O 0.7128(3) -0.5219(3) 0.1799(4)
H29 H 0.732(3) -0.536(3) 0.251(3)
H30 H 0.725(3) -0.471(2) 0.159(5)
loop_
_geom_bond_atom_site_label_1
_geom_bond_atom_site_label_2
_geom_bond_site_symmetry_1
_geom_bond_site_symmetry_2
Cd1 O9 1_555 1_555
Cd2 O1 1_555 1_555
O1 C10 1_555 1_555
O2 C24 1_555 1_555
O3 Cd2 1_555 1_555
H1 O3 1_555 1_555
H2 O3 1_555 1_555
O4 Cd2 1_555 1_555
O5 Cd2 1_555 1_555
H3 O5 1_555 1_555
H4 O5 1_555 1_555
O6 Cd2 1_555 1_555
O7 C12 1_555 1_555
O8 C8 1_555 1_555
O9 H5 1_555 1_555
H6 O9 1_555 1_555
O10 Cd1 1_555 1_555
H7 O10 1_555 1_555
H8 O10 1_555 1_555
O11 Cd1 1_555 1_555
O12 C24 1_555 1_555
N1 C4 1_555 1_555
N2 Cd1 1_555 1_555
C1 N2 1_555 1_555
H9 C1 1_555 1_555
C2 C13 1_555 1_555
C3 H10 1_555 1_555
C4 H11 1_555 1_555
C5 H12 1_555 1_555
C6 C1 1_555 1_555
H13 C6 1_555 1_555
C7 C3 1_555 1_555
C8 O11 1_555 1_555
C9 C5 1_555 1_555
H14 C9 1_555 1_555
C10 O4 1_555 1_555
C11 C12 1_555 1_555
C12 O6 1_555 1_555
C13 C11 1_555 1_555
H15 C13 1_555 1_555
C14 C4 1_555 1_555
C15 C2 1_555 1_555
H16 C15 1_555 1_555
C16 C15 1_555 1_555
C17 N2 1_555 1_555
H17 C17 1_555 1_555
C18 H18 1_555 1_555
H19 C18 1_555 1_555
H20 C18 1_555 1_555
C19 H21 1_555 1_555
H22 C19 1_555 1_555
H23 C19 1_555 1_555
C20 N1 1_555 1_555
H24 C20 1_555 1_555
C21 H25 1_555 1_555
H26 C21 1_555 1_555
H27 C21 1_555 1_555
C22 C11 1_555 1_555
H28 C22 1_555 1_555
C23 C2 1_555 1_555
C24 C16 1_555 1_555
O13 H29 1_555 1_555
H30 O13 1_555 1_555
Cd1_2 O2 1_555 1_555
Cd2B N1 1_555 1_555
O2_2 Cd1 1_555 1_555
O12_2 Cd1 1_555 1_555
N1B Cd2 1_555 1_555
O12 Cd1_2 1_555 1_555
C3 C6 1_555 1_555
C5 C20 1_555 1_555
C7 C10 1_555 1_555
C7 C17 1_555 1_555
C8 C14 1_555 1_555
C9 C14 1_555 1_555
C16 C22 1_555 1_555
C18 C23 1_555 1_555
C19 C23 1_555 1_555
C21 C23 1_555 1_555

#END
