
#######################################################################
#
#                 Cambridge Crystallographic Data Centre
#                                CCDC 
#
#######################################################################
#
# If this CIF has been generated from an entry in the Cambridge 
# Structural Database, then it will include bibliographic, chemical, 
# crystal, experimental, refinement or atomic coordinate data resulting 
# from the CCDC's data processing and validation procedures.
#
#######################################################################

data_PORZUT
_symmetry_cell_setting           monoclinic
_symmetry_space_group_name_H-M   'P 21/c'
_symmetry_Int_Tables_number      14
_space_group_name_Hall           '-P 2ybc'
loop_
_symmetry_equiv_pos_site_id
_symmetry_equiv_pos_as_xyz
1 x,y,z
2 -x,1/2+y,1/2-z
3 -x,-y,-z
4 x,1/2-y,1/2+z
_cell_length_a                   8.8259(6)
_cell_length_b                   16.7288(11)
_cell_length_c                   15.2641(10)
_cell_angle_alpha                90
_cell_angle_beta                 100.8520(10)
_cell_angle_gamma                90
_cell_volume                     2213.39
loop_
_atom_site_label
_atom_site_type_symbol
_atom_site_fract_x
_atom_site_fract_y
_atom_site_fract_z
O1 O 0.8504(4) 0.26934(17) 0.44838(19)
O2 O 0.7016(3) 0.22183(15) 0.60976(17)
C1 C 0.3638(4) 0.2914(2) 0.8376(2)
N1 N 0.3738(4) 0.2152(2) 0.8116(2)
Gd1 Gd 0.633779(18) 0.411518(10) 1.075734(11)
Gd2 Gd 0.846526(18) 0.348489(10) 0.871933(11)
C2 C 1.1182(4) 0.3399(2) 1.1016(2)
C3 C 0.9654(4) 0.3833(2) 1.1006(2)
O3 O 0.8785(3) 0.39500(16) 1.02350(16)
O4 O 0.9204(3) 0.39948(17) 1.17020(18)
C4 C 0.5149(4) 0.3375(2) 0.8528(3)
O5 O 0.5726(3) 0.35776(19) 0.78783(19)
O6 O 0.5852(3) 0.34529(15) 0.93257(18)
N2 N 1.1047(4) 0.2604(2) 1.1077(3)
C5 C 0.8269(4) 0.3451(2) 0.6473(2)
C6 C 0.7650(4) 0.2655(2) 0.6726(2)
C7 C 0.8348(4) 0.3658(2) 0.5599(2)
C8 C 0.9464(5) 0.4619(2) 0.6982(3)
H1 H 0.9826 0.4974 0.7442
N3 N 1.3771(3) 0.33018(19) 1.0787(2)
C9 C 1.2566(4) 0.3750(2) 1.0911(2)
C10 C 1.3608(4) 0.2512(2) 1.0798(3)
H2 H 1.4406 0.2185 1.0692
N4 N 0.1006(3) 0.27664(19) 0.8506(2)
C11 C 0.2257(4) 0.3228(2) 0.8535(2)
C12 C 0.1135(4) 0.1996(2) 0.8308(3)
H3 H 0.0310 0.1652 0.8314
C13 C 0.2487(5) 0.1703(2) 0.8093(3)
H4 H 0.2522 0.1170 0.7926
C14 C 0.2037(4) 0.4095(2) 0.8756(2)
O7 O 0.0803(3) 0.42576(16) 0.90072(18)
O8 O 0.3079(3) 0.45746(15) 0.86563(18)
C15 C 1.2261(5) 0.2171(2) 1.0968(3)
H5 H 1.2205 0.1618 1.1007
C16 C 1.2836(4) 0.4638(2) 1.0908(2)
O9 O 1.3912(3) 0.48620(15) 1.05037(18)
O10 O 1.2054(3) 0.50766(15) 1.12957(18)
N5 N 0.8822(4) 0.39322(18) 0.7162(2)
C17 C 0.7641(5) 0.3197(2) 0.4766(3)
O11 O 0.6326(5) 0.3383(2) 0.4414(3)
O12 O 0.7826(3) 0.24997(16) 0.75429(17)
O13 O 0.5959(4) 0.40490(18) 1.2266(2)
H6 H 0.6146 0.3574 1.2585
H7 H 0.5625 0.4498 1.2535
C18 C 0.9595(6) 0.4807(3) 0.6119(3)
H8 H 1.0096 0.5278 0.6017
N6 N 0.9029(5) 0.4339(2) 0.5424(2)
O1C O 0.8504(4) 0.23066(17) 0.94838(19)
O2C O 0.7016(3) 0.27817(15) 1.10976(17)
Gd1_2 Gd 1.633779(18) 0.411518(10) 1.075734(11)
Gd1B Gd 0.366221(18) 0.588482(10) 0.924266(11)
Gd1B_2 Gd 1.366221(18) 0.588482(10) 0.924266(11)
Gd1C Gd 0.633779(18) 0.088482(10) 0.575734(11)
Gd2_2 Gd -0.153474(18) 0.348489(10) 0.871933(11)
Gd2B Gd 1.153474(18) 0.651511(10) 1.128067(11)
Gd2C Gd 0.846526(18) 0.151511(10) 0.371933(11)
N3_2 N 0.3771(3) 0.33018(19) 1.0787(2)
N4_2 N 1.1006(3) 0.27664(19) 0.8506(2)
O7_2 O 1.0803(3) 0.42576(16) 0.90072(18)
O8B O 0.6921(3) 0.54254(15) 1.13437(18)
O9_2 O 0.3912(3) 0.48620(15) 1.05037(18)
O9B O 0.6088(3) 0.51380(15) 0.94963(18)
O10B O 0.7946(3) 0.49234(15) 0.87043(18)
O14 O 0.4118(9) 0.4260(4) 0.4943(5)
O15 O 0.4511(16) 0.4759(4) 0.6668(4)
loop_
_geom_bond_atom_site_label_1
_geom_bond_atom_site_label_2
_geom_bond_site_symmetry_1
_geom_bond_site_symmetry_2
O1 C17 1_555 1_555
O2 C6 1_555 1_555
C1 N1 1_555 1_555
N1 C13 1_555 1_555
Gd1 O3 1_555 1_555
Gd2 O3 1_555 1_555
C2 C3 1_555 1_555
C3 O3 1_555 1_555
O4 Gd1 1_555 1_555
C4 C1 1_555 1_555
O5 Gd2 1_555 1_555
O6 Gd1 1_555 1_555
N2 C2 1_555 1_555
C5 C6 1_555 1_555
C6 O12 1_555 1_555
C7 C5 1_555 1_555
C8 H1 1_555 1_555
N3 C9 1_555 1_555
C9 C2 1_555 1_555
C10 N3 1_555 1_555
H2 C10 1_555 1_555
N4 C11 1_555 1_555
C11 C1 1_555 1_555
C12 N4 1_555 1_555
H3 C12 1_555 1_555
C13 C12 1_555 1_555
H4 C13 1_555 1_555
C14 C11 1_555 1_555
O7 C14 1_555 1_555
O8 C14 1_555 1_555
C15 N2 1_555 1_555
H5 C15 1_555 1_555
C16 C9 1_555 1_555
O9 C16 1_555 1_555
O10 C16 1_555 1_555
N5 Gd2 1_555 1_555
C17 C7 1_555 1_555
O11 C17 1_555 1_555
O12 Gd2 1_555 1_555
O13 Gd1 1_555 1_555
H6 O13 1_555 1_555
H7 O13 1_555 1_555
C18 C8 1_555 1_555
H8 C18 1_555 1_555
N6 C7 1_555 1_555
O1C Gd2 1_555 1_555
O2C Gd1 1_555 1_555
Gd1_2 N3 1_555 1_555
Gd1B O8 1_555 1_555
Gd1B_2 O9 1_555 1_555
Gd1C O2 1_555 1_555
Gd2_2 N4 1_555 1_555
Gd2B O10 1_555 1_555
Gd2C O1 1_555 1_555
N3_2 Gd1 1_555 1_555
N4_2 Gd2 1_555 1_555
O7_2 Gd2 1_555 1_555
O8B Gd1 1_555 1_555
O9_2 Gd1 1_555 1_555
O9B Gd1 1_555 1_555
O10B Gd2 1_555 1_555
Gd2 O6 1_555 1_555
C3 O4 1_555 1_555
C4 O5 1_555 1_555
C4 O6 1_555 1_555
C5 N5 1_555 1_555
C8 N5 1_555 1_555
C10 C15 1_555 1_555
O7 Gd2_2 1_555 1_555
O9 Gd1_2 1_555 1_555
C18 N6 1_555 1_555
Gd1B O9_2 1_555 1_555
Gd1B O9B 1_555 1_555

#END
