
#######################################################################
#
#                 Cambridge Crystallographic Data Centre
#                                CCDC 
#
#######################################################################
#
# If this CIF has been generated from an entry in the Cambridge 
# Structural Database, then it will include bibliographic, chemical, 
# crystal, experimental, refinement or atomic coordinate data resulting 
# from the CCDC's data processing and validation procedures.
#
#######################################################################

data_PORZIH
_symmetry_cell_setting           monoclinic
_symmetry_space_group_name_H-M   'P 21/c'
_symmetry_Int_Tables_number      14
_space_group_name_Hall           '-P 2ybc'
loop_
_symmetry_equiv_pos_site_id
_symmetry_equiv_pos_as_xyz
1 x,y,z
2 -x,1/2+y,1/2-z
3 -x,-y,-z
4 x,1/2-y,1/2+z
_cell_length_a                   7.4396(6)
_cell_length_b                   23.658(2)
_cell_length_c                   10.4107(9)
_cell_angle_alpha                90
_cell_angle_beta                 94.929(3)
_cell_angle_gamma                90
_cell_volume                     1825.57
loop_
_atom_site_label
_atom_site_type_symbol
_atom_site_fract_x
_atom_site_fract_y
_atom_site_fract_z
Cd1 Cd 0.17436(3) 0.466345(8) 0.167292(16)
O1 O -0.0051(4) 0.22262(9) -0.4247(2)
O2 O 0.1271(3) 0.22222(8) -0.22610(18)
H1 H 0.104(4) 0.1877(8) -0.225(3)
O3 O 0.1597(3) 0.41387(8) -0.00798(16)
O4 O 0.1048(2) 0.49089(8) -0.12837(17)
O5 O 0.0969(2) 0.39057(8) -0.69581(16)
O6 O 0.1805(3) 0.47113(7) -0.60089(17)
O7 O 0.4644(3) 0.74913(8) 0.38631(18)
N1 N 0.3029(3) 0.55378(9) 0.1688(2)
N2 N 0.4096(3) 0.72725(9) 0.1727(2)
H2 H 0.408(4) 0.7411(12) 0.0940(19)
N3 N 0.5428(3) 0.91825(9) 0.2828(2)
C1 C 0.0663(4) 0.24753(12) -0.3337(2)
C2 C 0.0968(4) 0.30992(11) -0.3333(2)
C3 C 0.1062(4) 0.33531(11) -0.4529(2)
H3 H 0.0992 0.3124 -0.5281
C4 C 0.1257(3) 0.39309(11) -0.4649(2)
C5 C 0.1308(3) 0.42643(11) -0.3538(2)
H4 H 0.1396 0.4664 -0.3606
C6 C 0.1233(3) 0.40152(11) -0.2335(2)
C7 C 0.1095(4) 0.34293(11) -0.2224(2)
H5 H 0.1089 0.3258 -0.1399
C8 C 0.1294(3) 0.43847(11) -0.1148(2)
C9 C 0.3631(4) 0.57946(11) 0.2791(3)
H6 H 0.3768 0.5573 0.3553
C10 C 0.4064(4) 0.63607(11) 0.2886(3)
H7 H 0.4524 0.6521 0.3684
C11 C 0.3807(4) 0.66892(11) 0.1777(2)
C12 C 0.3179(4) 0.64270(11) 0.0628(2)
H8 H 0.2991 0.6641 -0.0144
C13 C 0.4383(4) 0.76388(11) 0.2736(3)
C14 C 0.1353(3) 0.42029(11) -0.5948(2)
C15 C 0.2836(4) 0.58576(11) 0.0621(2)
H9 H 0.2444 0.5682 -0.0175
C16 C 0.4320(4) 0.82497(11) 0.2359(2)
C17 C 0.5435(4) 0.86275(11) 0.3065(2)
H10 H 0.6240 0.8485 0.3747
C18 C 0.3141(4) 0.84597(12) 0.1363(3)
H11 H 0.2379 0.8211 0.0847
C19 C 0.3096(4) 0.90347(12) 0.1135(3)
H12 H 0.2284 0.9190 0.0474
C20 C 0.4251(4) 0.93776(12) 0.1883(3)
H13 H 0.4214 0.9773 0.1723
Cd1_2 Cd 0.17436(3) 0.466345(8) -0.832708(16)
Cd1A Cd 0.82564(3) 0.966345(8) 0.332708(16)
Cd1B Cd -0.17436(3) 0.533655(8) -0.167292(16)
O4B O -0.1048(2) 0.50911(8) 0.12837(17)
O5_2 O 0.0969(2) 0.39057(8) 0.30419(16)
O6_2 O 0.1805(3) 0.47113(7) 0.39911(17)
N3A N 0.4572(3) 0.41825(9) 0.2172(2)
loop_
_geom_bond_atom_site_label_1
_geom_bond_atom_site_label_2
_geom_bond_site_symmetry_1
_geom_bond_site_symmetry_2
Cd1 O3 1_555 1_555
O1 C1 1_555 1_555
O2 H1 1_555 1_555
O3 C8 1_555 1_555
O4 C8 1_555 1_555
O5 C14 1_555 1_555
O6 C14 1_555 1_555
O7 C13 1_555 1_555
N1 Cd1 1_555 1_555
N2 H2 1_555 1_555
N3 C17 1_555 1_555
C1 O2 1_555 1_555
C2 C1 1_555 1_555
C3 C2 1_555 1_555
H3 C3 1_555 1_555
C4 C3 1_555 1_555
C5 C4 1_555 1_555
H4 C5 1_555 1_555
C6 C5 1_555 1_555
C7 C2 1_555 1_555
H5 C7 1_555 1_555
C8 C6 1_555 1_555
C9 N1 1_555 1_555
H6 C9 1_555 1_555
C10 C9 1_555 1_555
H7 C10 1_555 1_555
C11 N2 1_555 1_555
C12 C11 1_555 1_555
H8 C12 1_555 1_555
C13 N2 1_555 1_555
C14 C4 1_555 1_555
C15 N1 1_555 1_555
H9 C15 1_555 1_555
C16 C13 1_555 1_555
C17 C16 1_555 1_555
H10 C17 1_555 1_555
C18 C16 1_555 1_555
H11 C18 1_555 1_555
C19 C18 1_555 1_555
H12 C19 1_555 1_555
C20 N3 1_555 1_555
H13 C20 1_555 1_555
Cd1_2 O5 1_555 1_555
Cd1A N3 1_555 1_555
Cd1B O4 1_555 1_555
O4B Cd1 1_555 1_555
O5_2 Cd1 1_555 1_555
O6_2 Cd1 1_555 1_555
N3A Cd1 1_555 1_555
O6 Cd1_2 1_555 1_555
C6 C7 1_555 1_555
C10 C11 1_555 1_555
C12 C15 1_555 1_555
C19 C20 1_555 1_555

#END
