
#######################################################################
#
#                 Cambridge Crystallographic Data Centre
#                                CCDC 
#
#######################################################################
#
# If this CIF has been generated from an entry in the Cambridge 
# Structural Database, then it will include bibliographic, chemical, 
# crystal, experimental, refinement or atomic coordinate data resulting 
# from the CCDC's data processing and validation procedures.
#
#######################################################################

data_POSBAC
_symmetry_cell_setting           monoclinic
_symmetry_space_group_name_H-M   'P 21/c'
_symmetry_Int_Tables_number      14
_space_group_name_Hall           '-P 2ybc'
loop_
_symmetry_equiv_pos_site_id
_symmetry_equiv_pos_as_xyz
1 x,y,z
2 -x,1/2+y,1/2-z
3 -x,-y,-z
4 x,1/2-y,1/2+z
_cell_length_a                   8.8501(5)
_cell_length_b                   16.7886(9)
_cell_length_c                   15.2957(8)
_cell_angle_alpha                90
_cell_angle_beta                 100.9230(10)
_cell_angle_gamma                90
_cell_volume                     2231.47
loop_
_atom_site_label
_atom_site_type_symbol
_atom_site_fract_x
_atom_site_fract_y
_atom_site_fract_z
C1 C 1.2937(4) 0.0914(2) 0.6257(2)
C2 C 1.2479(5) 0.3298(2) 0.6904(3)
H1 H 1.2439 0.3830 0.7068
N1 N 1.1241(4) 0.28471(19) 0.6880(2)
Tb1 Tb 0.864868(18) 0.088267(9) 0.423127(11)
Tb2 Tb 0.651568(18) 0.151550(10) 0.628046(11)
C3 C 0.3821(4) 0.1597(2) 0.3977(2)
C4 C 0.5330(4) 0.11653(19) 0.3987(2)
O1 O 0.5782(3) 0.10090(16) 0.32947(17)
O2 O 0.6177(3) 0.10489(15) 0.47556(16)
C5 C 0.9837(4) 0.1626(2) 0.6472(3)
O3 O 0.9138(3) 0.15424(15) 0.56751(18)
O4 O 0.9274(3) 0.14260(19) 0.71239(19)
C6 C 0.7332(4) 0.26629(19) 0.3280(2)
O5 O 0.9045(4) 0.09540(18) 0.2714(2)
H2 H 0.8864 0.1429 0.2398
H3 H 0.9377 0.0507 0.2446
C7 C 1.1338(4) 0.2089(2) 0.6623(2)
N2 N 0.1231(3) 0.16971(18) 0.4204(2)
C8 C 0.2181(4) 0.0366(2) 0.4098(2)
C9 C 0.2441(4) 0.1251(2) 0.4091(2)
N3 N 0.3949(4) 0.23902(19) 0.3908(2)
C10 C 0.6655(5) 0.3661(2) 0.4410(2)
N4 N 0.6170(4) 0.39338(17) 0.2850(2)
N5 N 0.5984(5) 0.4343(2) 0.4585(2)
C11 C 0.6718(4) 0.34516(19) 0.3535(2)
C12 C 0.5543(5) 0.4621(2) 0.3030(3)
H4 H 0.5174 0.4974 0.2570
C13 C 0.7344(5) 0.3197(2) 0.5236(3)
O6 O 0.1109(3) 0.01446(14) 0.45066(18)
O7 O 0.2970(3) -0.00685(14) 0.37209(18)
C14 C 0.1395(4) 0.2484(2) 0.4181(3)
H5 H 0.0598 0.2811 0.4281
N6 N 1.3964(3) 0.22356(18) 0.6498(2)
C15 C 1.2715(4) 0.1779(2) 0.6467(2)
C16 C 1.3834(4) 0.3004(2) 0.6692(3)
H6 H 1.4657 0.3346 0.6686
O8 O 1.4159(3) 0.07472(15) 0.59991(18)
O9 O 1.1900(3) 0.04370(15) 0.63620(18)
O10 O 0.7973(3) 0.22275(15) 0.39081(17)
O11 O 0.7147(3) 0.25058(15) 0.24671(17)
C17 C 0.5435(7) 0.4813(3) 0.3894(3)
H7 H 0.4962 0.5289 0.3998
C18 C 0.2736(5) 0.2822(2) 0.4011(3)
H8 H 0.2791 0.3373 0.3967
O12 O 0.8654(5) 0.3372(2) 0.5594(3)
O13 O 0.6471(4) 0.27025(17) 0.55147(19)
Tb1_2 Tb -0.135132(18) 0.088267(9) 0.423127(11)
Tb1B Tb 0.135132(18) -0.088267(9) 0.576873(11)
Tb1B_2 Tb 1.135132(18) -0.088267(9) 0.576873(11)
Tb2_2 Tb 1.651568(18) 0.151550(10) 0.628046(11)
Tb2B Tb 0.348432(18) -0.151550(10) 0.371954(11)
Tb2C Tb 0.651568(18) 0.348450(10) 0.128046(11)
N2_2 N 1.1231(3) 0.16971(18) 0.4204(2)
N4C N 0.6170(4) 0.10662(17) 0.7850(2)
O6_2 O 1.1109(3) 0.01446(14) 0.45066(18)
O6B O 0.8891(3) -0.01446(14) 0.54934(18)
O7B O 0.7030(3) 0.00685(14) 0.62791(18)
N6_2 N 0.3964(3) 0.22356(18) 0.6498(2)
O8_2 O 0.4159(3) 0.07472(15) 0.59991(18)
O9B O 0.8100(3) -0.04370(15) 0.36380(18)
O11C O 0.7147(3) 0.24942(15) 0.74671(17)
O14 O 0.0387(17) 0.0231(4) 0.8325(4)
O15 O 0.0881(9) 0.4233(3) 0.5042(5)
loop_
_geom_bond_atom_site_label_1
_geom_bond_atom_site_label_2
_geom_bond_site_symmetry_1
_geom_bond_site_symmetry_2
C1 C15 1_555 1_555
C2 H1 1_555 1_555
N1 C2 1_555 1_555
Tb1 O1 1_555 1_555
Tb2 O2 1_555 1_555
C3 C4 1_555 1_555
C4 O1 1_555 1_555
O2 Tb1 1_555 1_555
C5 O3 1_555 1_555
O3 Tb1 1_555 1_555
O4 Tb2 1_555 1_555
C6 C11 1_555 1_555
O5 Tb1 1_555 1_555
H2 O5 1_555 1_555
H3 O5 1_555 1_555
C7 N1 1_555 1_555
N2 C9 1_555 1_555
C8 C9 1_555 1_555
C9 C3 1_555 1_555
N3 C3 1_555 1_555
C10 N5 1_555 1_555
N4 C11 1_555 1_555
N5 C17 1_555 1_555
C11 C10 1_555 1_555
C12 N4 1_555 1_555
H4 C12 1_555 1_555
C13 C10 1_555 1_555
O6 C8 1_555 1_555
O7 C8 1_555 1_555
C14 N2 1_555 1_555
H5 C14 1_555 1_555
N6 C15 1_555 1_555
C15 C7 1_555 1_555
C16 C2 1_555 1_555
H6 C16 1_555 1_555
O8 C1 1_555 1_555
O9 C1 1_555 1_555
O10 Tb1 1_555 1_555
O11 C6 1_555 1_555
C17 C12 1_555 1_555
H7 C17 1_555 1_555
C18 N3 1_555 1_555
H8 C18 1_555 1_555
O12 C13 1_555 1_555
O13 Tb2 1_555 1_555
Tb1_2 N2 1_555 1_555
Tb1B O6 1_555 1_555
Tb1B_2 O9 1_555 1_555
Tb2_2 N6 1_555 1_555
Tb2B O7 1_555 1_555
Tb2C N4 1_555 1_555
N2_2 Tb1 1_555 1_555
N4C Tb2 1_555 1_555
O6_2 Tb1 1_555 1_555
O6B Tb1 1_555 1_555
O7B Tb2 1_555 1_555
N6_2 Tb2 1_555 1_555
O8_2 Tb2 1_555 1_555
O9B Tb1 1_555 1_555
O11C Tb2 1_555 1_555
Tb2 O3 1_555 1_555
C4 O2 1_555 1_555
C5 O4 1_555 1_555
C5 C7 1_555 1_555
C6 O10 1_555 1_555
C13 O13 1_555 1_555
O6 Tb1_2 1_555 1_555
C14 C18 1_555 1_555
N6 C16 1_555 1_555
O8 Tb2_2 1_555 1_555
O11 Tb2C 1_555 1_555
Tb1B_2 O6_2 1_555 1_555
Tb1B_2 O6B 1_555 1_555

#END
