
#######################################################################
#
#                 Cambridge Crystallographic Data Centre
#                                CCDC 
#
#######################################################################
#
# If this CIF has been generated from an entry in the Cambridge 
# Structural Database, then it will include bibliographic, chemical, 
# crystal, experimental, refinement or atomic coordinate data resulting 
# from the CCDC's data processing and validation procedures.
#
#######################################################################

data_POSBEE
_symmetry_cell_setting           triclinic
_symmetry_space_group_name_H-M   'P -1'
_symmetry_Int_Tables_number      2
_space_group_name_Hall           '-P 1'
loop_
_symmetry_equiv_pos_site_id
_symmetry_equiv_pos_as_xyz
1 x,y,z
2 -x,-y,-z
_cell_length_a                   8.391
_cell_length_b                   10.486
_cell_length_c                   11.642
_cell_angle_alpha                81.07
_cell_angle_beta                 87.27
_cell_angle_gamma                72.04
_cell_volume                     962.63
loop_
_atom_site_label
_atom_site_type_symbol
_atom_site_fract_x
_atom_site_fract_y
_atom_site_fract_z
Cu1 Cu 0.4688 0.4620 0.1630
Cl1 Cl 0.4513(1) 0.6616(1) 0.0434(1)
Cl2 Cl 0.4965(1) 0.2715(1) 0.2923(1)
O1 O 0.6825(2) 0.4789(2) 0.2117(2)
O2 O 1.2225(2) 0.5078(2) 0.1568(2)
N1 N 0.7584(3) 0.7039(2) 0.2309(2)
C1 C 0.9066(3) 0.6159(3) 0.2540(2)
C2 C 1.0130(3) 0.6473(3) 0.3346(2)
C3 C 1.1415(4) 0.5446(4) 0.3955(3)
C4 C 1.2358(4) 0.5758(4) 0.4749(3)
C5 C 1.2048(5) 0.7078(4) 0.4934(3)
C6 C 1.0766(5) 0.8096(4) 0.4333(3)
C7 C 0.9779(4) 0.7816(3) 0.3545(3)
C8 C 0.8355(4) 0.8878(3) 0.2897(3)
C9 C 0.6890(4) 0.8350(3) 0.2761(3)
C10 C 0.6048(6) 0.8093(5) 0.3931(5)
C11 C 0.5647(5) 0.9295(4) 0.1860(4)
C12 C 0.9556(3) 0.4912(2) 0.2030(2)
C13 C 0.8329(3) 0.4267(3) 0.1856(2)
C14 C 0.8825(3) 0.2982(3) 0.1340(3)
C15 C 1.0669(3) 0.2168(3) 0.1480(2)
C16 C 1.1692(3) 0.3123(3) 0.1062(2)
C17 C 1.1210(3) 0.4408(3) 0.1588(2)
C18 C 1.1054(5) 0.1032(4) 0.0741(4)
C19 C 1.1059(5) 0.1560(4) 0.2756(3)
H1 H 1.169(5) 0.470(4) 0.376(3)
H2 H 1.314(5) 0.508(4) 0.513(3)
H3 H 1.269(5) 0.727(4) 0.552(4)
H4 H 1.045(5) 0.903(4) 0.439(3)
H5 H 0.871(4) 0.911(3) 0.212(3)
H6 H 0.802(6) 0.961(5) 0.320(4)
H7 H 0.523(8) 0.774(6) 0.381(5)
H8 H 0.696(8) 0.739(6) 0.446(5)
H9 H 0.556(7) 0.875(5) 0.417(5)
H10 H 0.464(5) 0.895(4) 0.181(3)
H11 H 0.526(5) 1.014(4) 0.209(3)
H12 H 0.623(5) 0.940(4) 0.107(4)
H13 H 0.697(5) 0.682(3) 0.193(3)
H14 H 0.811(4) 0.243(3) 0.165(3)
H15 H 0.854(5) 0.328(4) 0.049(4)
H16 H 1.285(5) 0.275(4) 0.112(3)
H17 H 1.149(5) 0.351(4) 0.025(3)
H18 H 1.044(6) 0.054(5) 0.099(4)
H19 H 1.226(6) 0.048(5) 0.089(4)
H20 H 1.071(6) 0.141(4) 0.000(4)
H21 H 1.093(5) 0.219(4) 0.321(4)
H22 H 1.024(7) 0.110(6) 0.305(5)
H23 H 1.212(6) 0.102(5) 0.285(4)
Cl1A Cl 0.5487(1) 0.3384(1) -0.0434(1)
O2_2 O 0.2225(2) 0.5078(2) 0.1568(2)
Cu1A Cu 0.5312 0.5380 -0.1630
Cu1_2 Cu 1.4688 0.4620 0.1630
loop_
_geom_bond_atom_site_label_1
_geom_bond_atom_site_label_2
_geom_bond_site_symmetry_1
_geom_bond_site_symmetry_2
Cu1 Cl1 1_555 1_555
Cl1 Cu1A 1_555 1_555
Cl2 Cu1 1_555 1_555
O1 Cu1 1_555 1_555
O2 C17 1_555 1_555
N1 C1 1_555 1_555
C1 C2 1_555 1_555
C2 C3 1_555 1_555
C3 C4 1_555 1_555
C4 C5 1_555 1_555
C5 C6 1_555 1_555
C6 C7 1_555 1_555
C7 C2 1_555 1_555
C8 C7 1_555 1_555
C9 N1 1_555 1_555
C10 C9 1_555 1_555
C11 C9 1_555 1_555
C12 C1 1_555 1_555
C13 O1 1_555 1_555
C14 C13 1_555 1_555
C15 C14 1_555 1_555
C16 C15 1_555 1_555
C17 C12 1_555 1_555
C18 C15 1_555 1_555
C19 C15 1_555 1_555
H1 C3 1_555 1_555
H2 C4 1_555 1_555
H3 C5 1_555 1_555
H4 C6 1_555 1_555
H5 C8 1_555 1_555
H6 C8 1_555 1_555
H7 C10 1_555 1_555
H8 C10 1_555 1_555
H9 C10 1_555 1_555
H10 C11 1_555 1_555
H11 C11 1_555 1_555
H12 C11 1_555 1_555
H13 N1 1_555 1_555
H14 C14 1_555 1_555
H15 C14 1_555 1_555
H16 C16 1_555 1_555
H17 C16 1_555 1_555
H18 C18 1_555 1_555
H19 C18 1_555 1_555
H20 C18 1_555 1_555
H21 C19 1_555 1_555
H22 C19 1_555 1_555
H23 C19 1_555 1_555
Cl1A Cu1 1_555 1_555
O2_2 Cu1 1_555 1_555
Cu1A Cl1A 1_555 1_555
Cu1_2 O2 1_555 1_555
C8 C9 1_555 1_555
C12 C13 1_555 1_555
C16 C17 1_555 1_555

#END
