
#######################################################################
#
#                 Cambridge Crystallographic Data Centre
#                                CCDC 
#
#######################################################################
#
# If this CIF has been generated from an entry in the Cambridge 
# Structural Database, then it will include bibliographic, chemical, 
# crystal, experimental, refinement or atomic coordinate data resulting 
# from the CCDC's data processing and validation procedures.
#
#######################################################################

data_POSBEG
_symmetry_cell_setting           monoclinic
_symmetry_space_group_name_H-M   'C 2/c'
_symmetry_Int_Tables_number      15
_space_group_name_Hall           '-C 2yn'
loop_
_symmetry_equiv_pos_site_id
_symmetry_equiv_pos_as_xyz
1 x,y,z
2 -x,y,1/2-z
3 1/2+x,1/2+y,z
4 1/2-x,1/2+y,1/2-z
5 -x,-y,-z
6 x,-y,1/2+z
7 1/2-x,1/2-y,-z
8 1/2+x,1/2-y,1/2+z
_cell_length_a                   25.085(8)
_cell_length_b                   11.751(4)
_cell_length_c                   14.804(5)
_cell_angle_alpha                90
_cell_angle_beta                 106.341(4)
_cell_angle_gamma                90
_cell_volume                     4187.55
loop_
_atom_site_label
_atom_site_type_symbol
_atom_site_fract_x
_atom_site_fract_y
_atom_site_fract_z
Zn1 Zn 0.36115(3) 0.75776(5) 0.21933(4)
Zn2 Zn 0.29078(3) 0.51876(5) 0.26193(4)
O1 O 0.41813(16) 0.6726(3) 0.1483(3)
O2 O 0.43126(19) 0.6482(4) 0.0080(3)
O3 O 0.28824(14) 0.8632(3) 0.2158(2)
O4 O 0.22514(16) 0.9729(3) 0.1194(3)
O5 O 0.27509(15) 0.9003(3) -0.1902(2)
O6 O 0.34843(16) 0.6311(3) 0.2895(3)
H1 H 0.3726 0.6354 0.3407
N1 N 0.33111(18) 0.7999(4) 0.0838(3)
N2 N 0.31618(19) 0.3944(4) 0.1883(3)
N3 N 0.58308(18) -0.1251(4) 0.2073(3)
C1 C 0.3558(2) 0.7627(4) 0.0194(4)
C2 C 0.3374(2) 0.7934(5) -0.0723(4)
H2 H 0.3548 0.7644 -0.1151
C3 C 0.2919(2) 0.8693(4) -0.1042(4)
C4 C 0.2667(2) 0.9060(4) -0.0343(4)
H3 H 0.2361 0.9545 -0.0503
C5 C 0.2874(2) 0.8697(4) 0.0562(4)
C6 C 0.4058(2) 0.6869(5) 0.0606(4)
C7 C 0.2649(2) 0.9038(4) 0.1355(4)
C8 C 0.3566(3) 0.4200(5) 0.1499(5)
H4 H 0.3755 0.4883 0.1669
C9 C 0.3721(3) 0.3519(5) 0.0867(5)
H5 H 0.4009 0.3740 0.0624
C10 C 0.3450(2) 0.2507(5) 0.0593(4)
C11 C 0.3040(2) 0.2207(5) 0.1001(4)
H6 H 0.2856 0.1516 0.0853
C12 C 0.2904(2) 0.2947(5) 0.1636(4)
H7 H 0.2623 0.2739 0.1900
C13 C 0.3603(2) 0.1728(5) -0.0114(4)
H8 H 0.3268 0.1373 -0.0504
H9 H 0.3762 0.2181 -0.0521
C14 C 0.4012(2) 0.0811(5) 0.0345(4)
H10 H 0.4052 0.0287 -0.0138
H11 H 0.3860 0.0387 0.0777
C15 C 0.4584(2) 0.1250(5) 0.0879(4)
H12 H 0.4719 0.1731 0.0459
H13 H 0.4545 0.1725 0.1393
C16 C 0.5945(2) -0.0137(5) 0.2112(4)
H14 H 0.6307 0.0095 0.2407
C17 C 0.5555(2) 0.0677(5) 0.1736(4)
H15 H 0.5654 0.1442 0.1791
C18 C 0.5014(2) 0.0368(5) 0.1275(4)
C19 C 0.4907(2) -0.0788(5) 0.1219(4)
H16 H 0.4553 -0.1047 0.0902
C20 C 0.5310(2) -0.1553(5) 0.1620(4)
H17 H 0.5220 -0.2323 0.1578
Zn1A Zn 0.63885(3) -0.24224(5) 0.28067(4)
Zn2C Zn 0.20922(3) 1.01876(5) 0.23807(4)
Zn2F Zn 0.20922(3) 0.98124(5) -0.26193(4)
O4C O 0.27486(16) 0.4729(3) 0.3806(3)
O5F O 0.22491(15) 0.5997(3) 0.1902(2)
N3A N 0.41692(18) 0.8749(4) 0.2927(3)
O7 O 0.4457(2) 0.5694(6) 0.4289(5)
H18 H 0.4352 0.5040 0.4111
H19 H 0.4794 0.5907 0.4462
O8 O 0.5000 0.5256(6) 0.2500
H20 H 0.5116 0.5498 0.2063
H20A H 0.4884 0.5498 0.2937
O9 O 0.5435(6) 0.3378(9) 0.1767(8)
H21 H 0.5197 0.3370 0.2106
H22 H 0.5515 0.3409 0.1247
H23? H 0.4721 0.5614 0.2536
loop_
_geom_bond_atom_site_label_1
_geom_bond_atom_site_label_2
_geom_bond_site_symmetry_1
_geom_bond_site_symmetry_2
Zn1 O1 1_555 1_555
Zn2 O6 1_555 1_555
O1 C6 1_555 1_555
O2 C6 1_555 1_555
O3 Zn1 1_555 1_555
O4 C7 1_555 1_555
O5 C3 1_555 1_555
O6 Zn1 1_555 1_555
H1 O6 1_555 1_555
N1 Zn1 1_555 1_555
N2 Zn2 1_555 1_555
N3 C16 1_555 1_555
C1 N1 1_555 1_555
C2 C1 1_555 1_555
H2 C2 1_555 1_555
C3 C2 1_555 1_555
C4 C3 1_555 1_555
H3 C4 1_555 1_555
C5 N1 1_555 1_555
C6 C1 1_555 1_555
C7 O3 1_555 1_555
C8 N2 1_555 1_555
H4 C8 1_555 1_555
C9 C8 1_555 1_555
H5 C9 1_555 1_555
C10 C9 1_555 1_555
C11 C10 1_555 1_555
H6 C11 1_555 1_555
C12 N2 1_555 1_555
H7 C12 1_555 1_555
C13 C10 1_555 1_555
H8 C13 1_555 1_555
H9 C13 1_555 1_555
C14 C13 1_555 1_555
H10 C14 1_555 1_555
H11 C14 1_555 1_555
C15 C14 1_555 1_555
H12 C15 1_555 1_555
H13 C15 1_555 1_555
C16 H14 1_555 1_555
C17 C16 1_555 1_555
H15 C17 1_555 1_555
C18 C15 1_555 1_555
C19 C18 1_555 1_555
H16 C19 1_555 1_555
C20 N3 1_555 1_555
H17 C20 1_555 1_555
O7 H18 1_555 1_555
H19 O7 1_555 1_555
O8 H20 1_555 1_555
O9 H21 1_555 1_555
H22 O9 1_555 1_555
Zn1A N3 1_555 1_555
Zn2C O4 1_555 1_555
Zn2F O5 1_555 1_555
O4C Zn2 1_555 1_555
O5F Zn2 1_555 1_555
N3A Zn1 1_555 1_555
H20A O8 1_555 1_555
C4 C5 1_555 1_555
C5 C7 1_555 1_555
C11 C12 1_555 1_555
C17 C18 1_555 1_555
C19 C20 1_555 1_555

#END
