
#######################################################################
#
#                 Cambridge Crystallographic Data Centre
#                                CCDC 
#
#######################################################################
#
# If this CIF has been generated from an entry in the Cambridge 
# Structural Database, then it will include bibliographic, chemical, 
# crystal, experimental, refinement or atomic coordinate data resulting 
# from the CCDC's data processing and validation procedures.
#
#######################################################################

data_POSFUA
_symmetry_cell_setting           orthorhombic
_symmetry_space_group_name_H-M   'P n a 21'
_symmetry_Int_Tables_number      33
_space_group_name_Hall           'P 2c -2n'
loop_
_symmetry_equiv_pos_site_id
_symmetry_equiv_pos_as_xyz
1 x,y,z
2 -x,-y,1/2+z
3 1/2+x,1/2-y,z
4 1/2-x,1/2+y,1/2+z
_cell_length_a                   7.5104(10)
_cell_length_b                   22.820(3)
_cell_length_c                   10.8562(14)
_cell_angle_alpha                90
_cell_angle_beta                 90
_cell_angle_gamma                90
_cell_volume                     1860.62
loop_
_atom_site_label
_atom_site_type_symbol
_atom_site_fract_x
_atom_site_fract_y
_atom_site_fract_z
Cd1 Cd 0.82137(2) 0.376754(7) 0.54553(3)
C1 C 0.8488(5) 0.46625(16) 0.1740(4)
H1 H 0.9065 0.4407 0.1204
C2 C 0.6969(4) 0.49553(15) 0.1355(4)
H2 H 0.6504 0.4882 0.0576
C3 C 0.6135(4) 0.53565(13) 0.2124(3)
C4 C 0.6816(5) 0.54519(16) 0.3290(4)
H3 H 0.6278 0.5724 0.3808
C5 C 0.8306(5) 0.51416(17) 0.3696(4)
H4 H 0.8728 0.5201 0.4491
C6 C 0.9162(4) 0.47486(13) 0.2933(3)
C7 C 1.0708(4) 0.44093(13) 0.3360(3)
C8 C 1.2380(4) 0.43655(17) 0.2888(3)
H5 H 1.2804 0.4546 0.2178
C9 C 1.2234(4) 0.38437(13) 0.4558(4)
H6 H 1.2560 0.3592 0.5192
C10 C 0.4512(4) 0.56807(13) 0.1689(4)
C11 C 1.0699(5) 0.19376(14) 1.0141(3)
H7 H 1.0484 0.1658 0.9536
C12 C 1.1091(5) 0.17604(14) 1.1329(3)
H8 H 1.1114 0.1363 1.1520
C13 C 1.1454(4) 0.21758(14) 1.2245(3)
C14 C 1.1372(5) 0.27616(15) 1.1946(3)
H9 H 1.1596 0.3042 1.2548
C15 C 1.0958(5) 0.29380(14) 1.0761(3)
H10 H 1.0907 0.3336 1.0580
C16 C 1.0621(4) 0.25342(13) 0.9840(3)
C17 C 1.0236(4) 0.27197(13) 0.8576(3)
C18 C 0.9758(5) 0.32403(14) 0.8075(3)
H11 H 0.9605 0.3587 0.8513
C19 C 0.9860(5) 0.26311(15) 0.6575(3)
H12 H 0.9813 0.2467 0.5792
C20 C 1.2010(4) 0.19735(17) 1.3509(3)
N1 N 1.0627(3) 0.40855(11) 0.4444(3)
N2 N 1.3312(3) 0.40082(13) 0.3650(3)
H13 H 1.4407 0.3906 0.3562
N3 N 0.9529(4) 0.31813(12) 0.6823(3)
N4 N 1.0272(4) 0.23390(12) 0.7597(3)
H14 H 1.0520 0.1972 0.7638
O1 O 0.4160(5) 0.61710(11) 0.2125(4)
O2 O 0.3567(3) 0.54556(11) 0.0882(3)
O3 O 1.1661(3) 0.14425(13) 1.3782(3)
O4 O 1.2771(4) 0.23060(14) 1.4217(3)
Cd1A Cd 0.17863(2) 0.623246(7) 0.04553(3)
Cd1B Cd 1.32137(2) 0.123246(7) 1.54553(3)
O1A O 0.5840(5) 0.38290(11) 0.7125(4)
O2A O 0.6433(3) 0.45444(11) 0.5882(3)
O3B O 0.6661(3) 0.35575(13) 0.3782(3)
O4B O 0.7771(4) 0.26940(14) 0.4217(3)
loop_
_geom_bond_atom_site_label_1
_geom_bond_atom_site_label_2
_geom_bond_site_symmetry_1
_geom_bond_site_symmetry_2
Cd1 N1 1_555 1_555
C1 H1 1_555 1_555
C2 C1 1_555 1_555
H2 C2 1_555 1_555
C3 C2 1_555 1_555
C4 C3 1_555 1_555
H3 C4 1_555 1_555
C5 C4 1_555 1_555
H4 C5 1_555 1_555
C6 C1 1_555 1_555
C7 C6 1_555 1_555
C8 C7 1_555 1_555
H5 C8 1_555 1_555
C9 H6 1_555 1_555
C10 C3 1_555 1_555
C11 H7 1_555 1_555
C12 C11 1_555 1_555
H8 C12 1_555 1_555
C13 C12 1_555 1_555
C14 C13 1_555 1_555
H9 C14 1_555 1_555
C15 C14 1_555 1_555
H10 C15 1_555 1_555
C16 C11 1_555 1_555
C17 C16 1_555 1_555
C18 C17 1_555 1_555
H11 C18 1_555 1_555
C19 H12 1_555 1_555
C20 C13 1_555 1_555
N1 C7 1_555 1_555
N2 C8 1_555 1_555
H13 N2 1_555 1_555
N3 Cd1 1_555 1_555
N4 C17 1_555 1_555
H14 N4 1_555 1_555
O1 C10 1_555 1_555
O2 C10 1_555 1_555
O3 C20 1_555 1_555
O4 C20 1_555 1_555
Cd1A O1 1_555 1_555
Cd1B O3 1_555 1_555
O1A Cd1 1_555 1_555
O2A Cd1 1_555 1_555
O3B Cd1 1_555 1_555
O4B Cd1 1_555 1_555
C5 C6 1_555 1_555
C9 N1 1_555 1_555
C9 N2 1_555 1_555
C15 C16 1_555 1_555
C18 N3 1_555 1_555
C19 N3 1_555 1_555
C19 N4 1_555 1_555
O2 Cd1A 1_555 1_555
O4 Cd1B 1_555 1_555

#END
