
#######################################################################
#
#                 Cambridge Crystallographic Data Centre
#                                CCDC 
#
#######################################################################
#
# If this CIF has been generated from an entry in the Cambridge 
# Structural Database, then it will include bibliographic, chemical, 
# crystal, experimental, refinement or atomic coordinate data resulting 
# from the CCDC's data processing and validation procedures.
#
#######################################################################

data_POSFAG
_symmetry_cell_setting           monoclinic
_symmetry_space_group_name_H-M   'P 21/c'
_symmetry_Int_Tables_number      14
_space_group_name_Hall           '-P 2ybc'
loop_
_symmetry_equiv_pos_site_id
_symmetry_equiv_pos_as_xyz
1 x,y,z
2 -x,1/2+y,1/2-z
3 -x,-y,-z
4 x,1/2-y,1/2+z
_cell_length_a                   12.6539(11)
_cell_length_b                   7.0526(6)
_cell_length_c                   24.631(2)
_cell_angle_alpha                90
_cell_angle_beta                 96.754(2)
_cell_angle_gamma                90
_cell_volume                     2182.89
loop_
_atom_site_label
_atom_site_type_symbol
_atom_site_fract_x
_atom_site_fract_y
_atom_site_fract_z
Cu1 Cu 0.37102(3) 0.58087(5) 0.484984(15)
Cu2 Cu 0.12187(3) 0.60151(7) 0.273981(18)
C1 C 0.4805(3) 0.6093(5) 0.25124(13)
H1 H 0.5257 0.6628 0.2797
C2 C 0.5137(3) 0.5945(4) 0.19980(14)
H2 H 0.5810 0.6377 0.1941
C3 C 0.4474(3) 0.5156(5) 0.15656(13)
C4 C 0.3466(3) 0.4534(5) 0.16567(14)
H3 H 0.3010 0.4030 0.1369
C5 C 0.3138(3) 0.4660(5) 0.21724(13)
H4 H 0.2468 0.4215 0.2229
C6 C 0.3800(2) 0.5447(4) 0.26096(13)
C7 C 0.3472(3) 0.5591(4) 0.31615(13)
C8 C 0.4076(3) 0.5532(5) 0.36556(14)
H5 H 0.4811 0.5394 0.3712
C9 C 0.2445(3) 0.5871(5) 0.37950(13)
H6 H 0.1840 0.6015 0.3972
C10 C 0.4834(3) 0.4971(5) 0.10093(14)
C11 C -0.0866(3) 0.6260(5) 0.32894(14)
H7 H -0.0223 0.6889 0.3279
C12 C -0.1258(3) 0.5999(5) 0.37822(14)
H8 H -0.0873 0.6444 0.4102
C13 C -0.2230(2) 0.5073(5) 0.38086(13)
C14 C -0.2792(3) 0.4412(5) 0.33279(14)
H9 H -0.3441 0.3800 0.3338
C15 C -0.2393(3) 0.4658(5) 0.28346(14)
H10 H -0.2775 0.4196 0.2517
C16 C -0.1428(3) 0.5586(4) 0.28032(14)
C17 C -0.1038(3) 0.5881(5) 0.22748(14)
C18 C -0.1601(3) 0.5938(5) 0.17669(16)
H11 H -0.2332 0.5774 0.1683
C19 C 0.0090(3) 0.6412(6) 0.16896(15)
H12 H 0.0717 0.6640 0.1539
C20 C -0.2656(3) 0.4844(5) 0.43452(13)
N1 N 0.3418(2) 0.5708(4) 0.40580(11)
N2 N 0.2418(2) 0.5807(4) 0.32514(12)
N3 N 0.0028(2) 0.6170(4) 0.22136(12)
N4 N -0.0876(3) 0.6287(5) 0.14020(13)
H13 H -0.1018 0.6404 0.1054
O1 O -0.35962(19) 0.4252(3) 0.43516(10)
O2 O -0.2067(2) 0.5199(4) 0.47820(10)
O3 O 0.4174(2) 0.4229(4) 0.06467(10)
O4 O 0.5747(2) 0.5538(4) 0.09365(11)
O5 O 0.32998(19) 0.8518(3) 0.48201(9)
H14 H 0.3549 0.9045 0.5103
H15 H 0.3513 0.9060 0.4520
O6 O 0.43926(18) 0.3247(3) 0.48868(9)
H16 H 0.4350 0.2634 0.5179
H17 H 0.4447 0.2696 0.4585
Cu1B Cu -0.37102(3) 0.41913(5) 0.515016(15)
Cu1B_2 Cu 0.62898(3) 0.41913(5) 0.515016(15)
O1B O 0.35962(19) 0.5748(3) 0.56484(10)
O2B O 0.2067(2) 0.4801(4) 0.52180(10)
O6B O 0.56074(18) 0.6753(3) 0.51132(9)
O7 O 0.4049(7) 0.0778(11) 0.4852(3)
O8 O 0.1097(3) 0.1709(5) 0.47091(11)
O9 O 0.9259(3) 0.2235(6) 0.5190(2)
O10? O 0.902(2) 0.168(4) 0.4726(12)
loop_
_geom_bond_atom_site_label_1
_geom_bond_atom_site_label_2
_geom_bond_site_symmetry_1
_geom_bond_site_symmetry_2
Cu1 N1 1_555 1_555
Cu2 N2 1_555 1_555
C1 H1 1_555 1_555
C2 C1 1_555 1_555
H2 C2 1_555 1_555
C3 C2 1_555 1_555
C4 C3 1_555 1_555
H3 C4 1_555 1_555
C5 C4 1_555 1_555
H4 C5 1_555 1_555
C6 C1 1_555 1_555
C7 C6 1_555 1_555
C8 C7 1_555 1_555
H5 C8 1_555 1_555
C9 H6 1_555 1_555
C10 C3 1_555 1_555
C11 H7 1_555 1_555
C12 C11 1_555 1_555
H8 C12 1_555 1_555
C13 C12 1_555 1_555
C14 C13 1_555 1_555
H9 C14 1_555 1_555
C15 C14 1_555 1_555
H10 C15 1_555 1_555
C16 C11 1_555 1_555
C17 C16 1_555 1_555
C18 C17 1_555 1_555
H11 C18 1_555 1_555
C19 H12 1_555 1_555
C20 C13 1_555 1_555
N1 C8 1_555 1_555
N2 C7 1_555 1_555
N3 Cu2 1_555 1_555
N4 C18 1_555 1_555
H13 N4 1_555 1_555
O1 C20 1_555 1_555
O2 C20 1_555 1_555
O3 C10 1_555 1_555
O4 C10 1_555 1_555
O5 Cu1 1_555 1_555
H14 O5 1_555 1_555
H15 O5 1_555 1_555
O6 Cu1 1_555 1_555
H16 O6 1_555 1_555
H17 O6 1_555 1_555
Cu1B O1 1_555 1_555
Cu1B_2 O6 1_555 1_555
O1B Cu1 1_555 1_555
O2B Cu1 1_555 1_555
O6B Cu1 1_555 1_555
C5 C6 1_555 1_555
C9 N1 1_555 1_555
C9 N2 1_555 1_555
C15 C16 1_555 1_555
C17 N3 1_555 1_555
C19 N3 1_555 1_555
C19 N4 1_555 1_555
O2 Cu1B 1_555 1_555
Cu1B_2 O6B 1_555 1_555

#END
