
#######################################################################
#
#                 Cambridge Crystallographic Data Centre
#                                CCDC 
#
#######################################################################
#
# If this CIF has been generated from an entry in the Cambridge 
# Structural Database, then it will include bibliographic, chemical, 
# crystal, experimental, refinement or atomic coordinate data resulting 
# from the CCDC's data processing and validation procedures.
#
#######################################################################

data_POSHOW
_symmetry_cell_setting           triclinic
_symmetry_space_group_name_H-M   'P -1'
_symmetry_Int_Tables_number      2
_space_group_name_Hall           '-P 1'
loop_
_symmetry_equiv_pos_site_id
_symmetry_equiv_pos_as_xyz
1 x,y,z
2 -x,-y,-z
_cell_length_a                   12.6042(18)
_cell_length_b                   13.1040(17)
_cell_length_c                   14.069(2)
_cell_angle_alpha                63.949(6)
_cell_angle_beta                 83.363(8)
_cell_angle_gamma                63.650(6)
_cell_volume                     1861.62
loop_
_atom_site_label
_atom_site_type_symbol
_atom_site_fract_x
_atom_site_fract_y
_atom_site_fract_z
B1 B 0.76121(18) -0.06561(19) 0.13481(18)
O1 O 0.85101(11) -0.07672(12) 0.20113(11)
O2 O 0.67817(11) -0.11218(11) 0.19815(10)
O3 O 0.68300(11) 0.06732(11) 0.06392(10)
O4 O 0.83202(11) -0.14111(11) 0.07750(10)
N1 N 0.7285(2) 0.18007(19) 0.54471(16)
N2 N 0.83392(18) -0.67172(18) 0.62691(17)
N3 N 0.87879(19) 0.50153(19) -0.2313(2)
N4 N 0.58433(17) -0.31150(17) -0.19011(16)
C1 C 0.82030(16) -0.03045(17) 0.27445(15)
C2 C 0.90975(18) -0.07287(18) 0.35134(16)
H1 H 0.9866 -0.1366 0.3538
C3 C 0.8876(2) -0.02307(19) 0.42379(17)
H2 H 0.9492 -0.0520 0.4754
C4 C 0.7746(2) 0.06969(18) 0.42142(16)
C5 C 0.68384(19) 0.10902(18) 0.34738(17)
H3 H 0.6063 0.1707 0.3468
C6 C 0.70565(17) 0.05916(18) 0.27511(16)
H4 H 0.6429 0.0855 0.2256
C7 C 0.7505(2) 0.1288(2) 0.49210(18)
C8 C 0.71703(16) -0.22618(16) 0.28313(15)
C9 C 0.63330(17) -0.24773(17) 0.35361(16)
H5 H 0.5542 -0.1830 0.3408
C10 C 0.66486(18) -0.36198(18) 0.44132(17)
H6 H 0.6072 -0.3759 0.4885
C11 C 0.78088(18) -0.45800(18) 0.46182(17)
C12 C 0.86465(18) -0.43696(19) 0.39153(18)
H7 H 0.9436 -0.5020 0.4045
C13 C 0.83352(18) -0.32230(19) 0.30336(18)
H8 H 0.8912 -0.3084 0.2562
C14 C 0.8126(2) -0.5775(2) 0.55358(19)
C15 C 0.72577(15) 0.15078(16) 0.00396(14)
C16 C 0.83610(16) 0.11729(16) -0.03735(15)
H9 H 0.8858 0.0311 -0.0218
C17 C 0.87311(17) 0.20856(17) -0.10042(15)
H10 H 0.9479 0.1851 -0.1284
C18 C 0.80091(17) 0.33533(17) -0.12323(16)
C19 C 0.69051(17) 0.36957(17) -0.08346(17)
H11 H 0.6405 0.4560 -0.1000
C20 C 0.65358(16) 0.27825(17) -0.02000(16)
H12 H 0.5785 0.3021 0.0076
C21 C 0.84300(19) 0.42896(19) -0.18514(18)
C22 C 0.78035(16) -0.17050(15) 0.02102(14)
C23 C 0.84966(16) -0.28050(16) 0.00721(15)
H13 H 0.9300 -0.3312 0.0374
C24 C 0.80170(17) -0.31538(16) -0.04998(16)
H14 H 0.8495 -0.3897 -0.0594
C25 C 0.68320(17) -0.24222(16) -0.09429(15)
C26 C 0.61412(17) -0.13165(16) -0.08200(16)
H15 H 0.5341 -0.0803 -0.1132
C27 C 0.66223(16) -0.09709(16) -0.02454(15)
H16 H 0.6145 -0.0224 -0.0158
C28 C 0.62988(18) -0.28124(17) -0.14837(17)
Ag1 Ag 0.742301(15) 0.128896(16) 0.747605(15)
N5 N 0.57626(14) 0.28340(15) 0.74504(14)
N6 N -0.11190(13) 0.94617(14) 0.77616(13)
C29 C 0.49804(17) 0.26952(17) 0.81542(16)
H17 H 0.5158 0.1869 0.8697
C30 C 0.39214(18) 0.36837(18) 0.81435(17)
H18 H 0.3401 0.3536 0.8677
C31 C 0.36306(19) 0.48892(19) 0.73465(19)
C32 C 0.4423(2) 0.5021(2) 0.6588(2)
H19 H 0.4247 0.5826 0.6011
C33 C 0.5468(2) 0.3989(2) 0.6666(2)
H20 H 0.6001 0.4106 0.6138
C34 C 0.2511(2) 0.6050(2) 0.7261(2)
H21 H 0.2747 0.6700 0.7203
H22 H 0.2032 0.6389 0.6590
C35 C 0.1742(2) 0.5887(2) 0.8128(2)
H23 H 0.2223 0.5472 0.8816
H24 H 0.1406 0.5330 0.8136
C36 C 0.07411(18) 0.71376(18) 0.80054(17)
C37 C 0.08576(17) 0.78434(18) 0.84503(17)
H25 H 0.1580 0.7542 0.8848
C38 C -0.00836(17) 0.89910(17) 0.83138(16)
H26 H 0.0011 0.9462 0.8625
C39 C -0.12336(18) 0.87746(18) 0.73388(17)
H27 H -0.1967 0.9095 0.6949
C40 C -0.0337(2) 0.76223(19) 0.74421(18)
H28 H -0.0459 0.7166 0.7129
Ag1_2 Ag -0.257699(15) 1.128896(16) 0.747605(15)
N6_2 N 0.88810(13) -0.05383(14) 0.77616(13)
N7 N 0.5822(2) 0.9869(2) 0.6236(2)
C41 C 0.6241(2) 0.9105(2) 0.59544(19)
C42 C 0.6801(3) 0.8112(3) 0.5606(2)
H29 H 0.7324 0.8321 0.5059
H30 H 0.6188 0.8034 0.5312
H31 H 0.7271 0.7309 0.6213
loop_
_geom_bond_atom_site_label_1
_geom_bond_atom_site_label_2
_geom_bond_site_symmetry_1
_geom_bond_site_symmetry_2
B1 O1 1_555 1_555
O1 C1 1_555 1_555
O2 B1 1_555 1_555
O3 B1 1_555 1_555
O4 B1 1_555 1_555
N1 C7 1_555 1_555
N2 C14 1_555 1_555
N3 C21 1_555 1_555
N4 C28 1_555 1_555
C1 C2 1_555 1_555
C2 H1 1_555 1_555
C3 C2 1_555 1_555
H2 C3 1_555 1_555
C4 C3 1_555 1_555
C5 C4 1_555 1_555
H3 C5 1_555 1_555
C6 C1 1_555 1_555
H4 C6 1_555 1_555
C7 C4 1_555 1_555
C8 O2 1_555 1_555
C9 C8 1_555 1_555
H5 C9 1_555 1_555
C10 C9 1_555 1_555
H6 C10 1_555 1_555
C11 C10 1_555 1_555
C12 C11 1_555 1_555
H7 C12 1_555 1_555
C13 C8 1_555 1_555
H8 C13 1_555 1_555
C14 C11 1_555 1_555
C15 O3 1_555 1_555
C16 C15 1_555 1_555
H9 C16 1_555 1_555
C17 C16 1_555 1_555
H10 C17 1_555 1_555
C18 C17 1_555 1_555
C19 C18 1_555 1_555
H11 C19 1_555 1_555
C20 C15 1_555 1_555
H12 C20 1_555 1_555
C21 C18 1_555 1_555
C22 O4 1_555 1_555
C23 C22 1_555 1_555
H13 C23 1_555 1_555
C24 C23 1_555 1_555
H14 C24 1_555 1_555
C25 C24 1_555 1_555
C26 C25 1_555 1_555
H15 C26 1_555 1_555
C27 C22 1_555 1_555
H16 C27 1_555 1_555
C28 C25 1_555 1_555
Ag1 N1 1_555 1_555
N5 Ag1 1_555 1_555
N6 C38 1_555 1_555
C29 N5 1_555 1_555
H17 C29 1_555 1_555
C30 C29 1_555 1_555
H18 C30 1_555 1_555
C31 C30 1_555 1_555
C32 C31 1_555 1_555
H19 C32 1_555 1_555
C33 N5 1_555 1_555
H20 C33 1_555 1_555
C34 C31 1_555 1_555
H21 C34 1_555 1_555
H22 C34 1_555 1_555
C35 C34 1_555 1_555
H23 C35 1_555 1_555
H24 C35 1_555 1_555
C36 C35 1_555 1_555
C37 C36 1_555 1_555
H25 C37 1_555 1_555
C38 C37 1_555 1_555
H26 C38 1_555 1_555
C39 N6 1_555 1_555
H27 C39 1_555 1_555
C40 C36 1_555 1_555
H28 C40 1_555 1_555
N7 C41 1_555 1_555
C41 C42 1_555 1_555
C42 H29 1_555 1_555
H30 C42 1_555 1_555
H31 C42 1_555 1_555
Ag1_2 N6 1_555 1_555
N6_2 Ag1 1_555 1_555
C5 C6 1_555 1_555
C12 C13 1_555 1_555
C19 C20 1_555 1_555
C26 C27 1_555 1_555
C32 C33 1_555 1_555
C39 C40 1_555 1_555

#END
