
#######################################################################
#
#                 Cambridge Crystallographic Data Centre
#                                CCDC 
#
#######################################################################
#
# If this CIF has been generated from an entry in the Cambridge 
# Structural Database, then it will include bibliographic, chemical, 
# crystal, experimental, refinement or atomic coordinate data resulting 
# from the CCDC's data processing and validation procedures.
#
#######################################################################

data_POSHAI
_symmetry_cell_setting           monoclinic
_symmetry_space_group_name_H-M   'P 21'
_symmetry_Int_Tables_number      4
_space_group_name_Hall           'P 2yb'
loop_
_symmetry_equiv_pos_site_id
_symmetry_equiv_pos_as_xyz
1 x,y,z
2 -x,1/2+y,-z
_cell_length_a                   9.0753(3)
_cell_length_b                   16.1465(5)
_cell_length_c                   11.2936(3)
_cell_angle_alpha                90
_cell_angle_beta                 95.970(2)
_cell_angle_gamma                90
_cell_volume                     1645.92
loop_
_atom_site_label
_atom_site_type_symbol
_atom_site_fract_x
_atom_site_fract_y
_atom_site_fract_z
Cu1 Cu -0.06644(2) 0.751145(13) -0.090655(18)
O1 O 0.32368(12) 0.50491(8) 0.54799(10)
O2 O 0.15066(12) 0.39779(8) 0.60690(10)
O3 O 0.32652(12) 0.35857(8) 0.49229(11)
O4 O 0.40823(12) 0.41396(8) 0.69121(11)
B1 B 0.3018(2) 0.41898(13) 0.58493(18)
N1 N 0.01455(18) 0.69994(11) 0.05936(14)
N2 N -0.21833(19) 0.48921(15) 1.07433(17)
N3 N 0.90571(17) 0.28599(11) 0.18701(15)
N4 N 0.5653(3) 0.10408(15) 1.07764(17)
C1 C 0.25708(17) 0.54022(11) 0.44888(15)
C2 C 0.31839(19) 0.61417(12) 0.41215(16)
H1 H 0.4039 0.6365 0.4565
C3 C 0.25564(19) 0.65495(12) 0.31185(17)
H2 H 0.2985 0.7049 0.2872
C4 C 0.12947(19) 0.62294(12) 0.24672(16)
C5 C 0.0686(2) 0.54923(13) 0.28242(17)
H3 H -0.0173 0.5272 0.2381
C6 C 0.13219(18) 0.50760(12) 0.38203(16)
H4 H 0.0909 0.4567 0.4050
C7 C 0.0648(2) 0.66571(13) 0.14288(17)
C8 C 0.08573(17) 0.41992(12) 0.70436(15)
C9 C -0.0359(2) 0.37287(12) 0.72873(19)
H5 H -0.0682 0.3283 0.6776
C10 C -0.1096(2) 0.39022(13) 0.8260(2)
H6 H -0.1911 0.3569 0.8428
C11 C -0.06513(18) 0.45641(12) 0.89967(16)
C12 C 0.05579(19) 0.50346(13) 0.87572(17)
H7 H 0.0871 0.5483 0.9267
C13 C 0.13158(19) 0.48606(12) 0.77873(17)
H8 H 0.2142 0.5188 0.7628
C14 C -0.1484(2) 0.47507(14) 0.99860(18)
C15 C 0.45095(17) 0.34864(12) 0.44010(15)
C16 C 0.4570(2) 0.27777(12) 0.36996(19)
H9 H 0.3768 0.2397 0.3648
C17 C 0.5766(2) 0.26220(14) 0.30842(18)
H10 H 0.5796 0.2133 0.2619
C18 C 0.6933(2) 0.31819(13) 0.31446(16)
C19 C 0.6890(2) 0.38903(14) 0.3829(2)
H11 H 0.7686 0.4275 0.3864
C20 C 0.5685(2) 0.40415(14) 0.44671(19)
H12 H 0.5667 0.4524 0.4947
C21 C 0.8137(2) 0.30215(14) 0.24455(17)
C22 C 0.42696(17) 0.34902(12) 0.76535(15)
C23 C 0.3717(2) 0.26968(12) 0.74044(17)
H13 H 0.3134 0.2592 0.6672
C24 C 0.4011(2) 0.20616(14) 0.82149(19)
H14 H 0.3611 0.1526 0.8048
C25 C 0.4897(2) 0.22090(13) 0.92774(17)
C26 C 0.5427(2) 0.29980(14) 0.95330(17)
H15 H 0.6018 0.3101 1.0263
C27 C 0.51055(19) 0.36352(13) 0.87397(16)
H16 H 0.5456 0.4178 0.8934
C28 C 0.5291(3) 0.15469(15) 1.0106(2)
N5 N -0.20358(18) 0.84658(12) -0.09455(15)
C29 C -0.2880(2) 0.89814(13) -0.11531(18)
C30 C -0.3951(2) 0.96357(14) -0.1429(2)
H17 H -0.3894 0.9828 -0.2246
H18 H -0.3735 1.0098 -0.0875
H19 H -0.4949 0.9425 -0.1351
N6 N -0.18781(17) 0.66321(10) -0.18143(15)
C31 C -0.26192(19) 0.61448(12) -0.22786(16)
C32 C -0.3580(3) 0.55211(14) -0.2883(2)
H20 H -0.4073 0.5754 -0.3623
H21 H -0.4327 0.5350 -0.2366
H22 H -0.2987 0.5040 -0.3069
Cu1A Cu 1.06644(2) 0.251145(13) 0.090655(18)
N3A N 0.09429(17) 0.78599(11) -0.18701(15)
N7 N 0.2461(3) 0.09936(16) 0.5526(2)
C33 C 0.1540(2) 0.14379(16) 0.5158(2)
C34 C 0.0408(3) 0.20079(17) 0.4702(2)
H23 H 0.0783 0.2576 0.4798
H24 H -0.0461 0.1942 0.5141
H25 H 0.0130 0.1895 0.3856
loop_
_geom_bond_atom_site_label_1
_geom_bond_atom_site_label_2
_geom_bond_site_symmetry_1
_geom_bond_site_symmetry_2
Cu1 N1 1_555 1_555
O1 B1 1_555 1_555
O2 B1 1_555 1_555
O3 B1 1_555 1_555
O4 B1 1_555 1_555
N1 C7 1_555 1_555
N2 C14 1_555 1_555
N3 C21 1_555 1_555
N4 C28 1_555 1_555
C1 O1 1_555 1_555
C2 C1 1_555 1_555
H1 C2 1_555 1_555
C3 C2 1_555 1_555
H2 C3 1_555 1_555
C4 C3 1_555 1_555
C5 C4 1_555 1_555
H3 C5 1_555 1_555
C6 C1 1_555 1_555
H4 C6 1_555 1_555
C7 C4 1_555 1_555
C8 O2 1_555 1_555
C9 C8 1_555 1_555
H5 C9 1_555 1_555
C10 C9 1_555 1_555
H6 C10 1_555 1_555
C11 C10 1_555 1_555
C12 C11 1_555 1_555
H7 C12 1_555 1_555
C13 C8 1_555 1_555
H8 C13 1_555 1_555
C14 C11 1_555 1_555
C15 O3 1_555 1_555
C16 C15 1_555 1_555
H9 C16 1_555 1_555
C17 C16 1_555 1_555
H10 C17 1_555 1_555
C18 C17 1_555 1_555
C19 C18 1_555 1_555
H11 C19 1_555 1_555
C20 C15 1_555 1_555
H12 C20 1_555 1_555
C21 C18 1_555 1_555
C22 O4 1_555 1_555
C23 C22 1_555 1_555
H13 C23 1_555 1_555
C24 C23 1_555 1_555
H14 C24 1_555 1_555
C25 C24 1_555 1_555
C26 C25 1_555 1_555
H15 C26 1_555 1_555
C27 C22 1_555 1_555
H16 C27 1_555 1_555
C28 C25 1_555 1_555
N5 Cu1 1_555 1_555
C29 N5 1_555 1_555
C30 C29 1_555 1_555
H17 C30 1_555 1_555
H18 C30 1_555 1_555
H19 C30 1_555 1_555
N6 Cu1 1_555 1_555
C31 N6 1_555 1_555
C32 C31 1_555 1_555
H20 C32 1_555 1_555
H21 C32 1_555 1_555
H22 C32 1_555 1_555
N7 C33 1_555 1_555
C33 C34 1_555 1_555
C34 H23 1_555 1_555
H24 C34 1_555 1_555
H25 C34 1_555 1_555
Cu1A N3 1_555 1_555
N3A Cu1 1_555 1_555
C5 C6 1_555 1_555
C12 C13 1_555 1_555
C19 C20 1_555 1_555
C26 C27 1_555 1_555

#END
