
#######################################################################
#
#                 Cambridge Crystallographic Data Centre
#                                CCDC 
#
#######################################################################
#
# If this CIF has been generated from an entry in the Cambridge 
# Structural Database, then it will include bibliographic, chemical, 
# crystal, experimental, refinement or atomic coordinate data resulting 
# from the CCDC's data processing and validation procedures.
#
#######################################################################

data_POSQIZ
_symmetry_cell_setting           triclinic
_symmetry_space_group_name_H-M   'P -1'
_symmetry_Int_Tables_number      2
_space_group_name_Hall           '-P 1'
loop_
_symmetry_equiv_pos_site_id
_symmetry_equiv_pos_as_xyz
1 x,y,z
2 -x,-y,-z
_cell_length_a                   10.7381(6)
_cell_length_b                   10.7477(6)
_cell_length_c                   13.5585(12)
_cell_angle_alpha                95.5960(10)
_cell_angle_beta                 91.4970(10)
_cell_angle_gamma                118.7280(10)
_cell_volume                     1360.85
loop_
_atom_site_label
_atom_site_type_symbol
_atom_site_fract_x
_atom_site_fract_y
_atom_site_fract_z
C1 C 1.2218(3) 0.9155(3) 0.33134(18)
C2 C 1.3041(3) 1.0414(3) 0.29083(18)
H1 H 1.3904 1.1145 0.3255
C3 C 1.2583(3) 1.0586(3) 0.19865(18)
C4 C 1.1319(3) 0.9514(3) 0.14908(18)
H2 H 1.0997 0.9645 0.0870
C5 C 1.3462(3) 1.1946(3) 0.15375(18)
C6 C 1.2867(3) 0.9886(3) 0.50570(18)
C7 C 1.2320(3) 1.0822(3) 0.5104(2)
H3 H 1.1758 1.0828 0.4553
C8 C 1.2605(3) 1.1752(3) 0.5968(2)
H4 H 1.2248 1.2409 0.5998
C9 C 1.3400(3) 1.1742(3) 0.67892(19)
C10 C 1.3897(3) 1.0762(3) 0.67393(19)
H5 H 1.4413 1.0720 0.7303
C11 C 1.3646(3) 0.9841(3) 0.58730(19)
H6 H 1.4005 0.9186 0.5839
C12 C 1.3742(3) 1.2825(3) 0.76871(19)
C13 C 0.8332(3) 0.2942(3) 0.1162(2)
H7 H 0.9160 0.3856 0.1245
C14 C 0.6168(3) 0.1286(3) 0.0961(2)
H8 H 0.5157 0.0803 0.0878
C15 C 0.6975(3) 0.0639(3) 0.0971(2)
H9 H 0.6645 -0.0361 0.0897
C16 C 0.9626(3) 0.1515(3) 0.1249(2)
H10 H 1.0080 0.1586 0.0616
H11 H 0.9334 0.0554 0.1444
C17 C 1.0678(3) 0.2645(3) 0.2043(2)
C18 C 1.1660(3) 0.3964(4) 0.1793(2)
H12 H 1.1718 0.4114 0.1113
C19 C 1.2558(3) 0.5068(4) 0.2509(2)
H13 H 1.3203 0.5975 0.2321
C20 C 1.2520(3) 0.4855(3) 0.3500(2)
C21 C 1.1572(3) 0.3524(3) 0.3759(2)
H14 H 1.1557 0.3360 0.4435
C22 C 1.0645(3) 0.2427(3) 0.3038(2)
H15 H 0.9986 0.1526 0.3226
C23 C 1.3528(3) 0.6094(3) 0.4265(2)
H16 H 1.4452 0.6102 0.4324
H17 H 1.3701 0.7002 0.4029
C24 C 1.3559(3) 0.5860(3) 0.6085(2)
H18 H 1.4409 0.5794 0.6127
C25 C 1.1671(3) 0.5928(3) 0.6463(2)
H19 H 1.0927 0.5913 0.6835
C26 C 1.1776(3) 0.6075(3) 0.5482(2)
H20 H 1.1141 0.6190 0.5047
N1 N 1.2798(2) 0.5803(2) 0.68379(16)
N2 N 1.2985(3) 0.6023(3) 0.52460(17)
O1 O 1.30271(18) 1.19794(18) 0.06670(12)
O2 O 1.45267(18) 1.29275(18) 0.20484(13)
O3 O 1.2654(2) 0.89221(18) 0.42257(12)
O4 O 1.4105(2) 1.25737(19) 0.85136(13)
O5 O 1.3637(2) 1.39052(19) 0.75613(13)
O6 O 0.58483(19) 0.45012(18) 0.02893(13)
H21 H 0.632(3) 0.422(3) -0.0057(19)
C27 C 0.9122(3) 0.7102(3) 0.13668(18)
C28 C 1.0516(3) 0.8247(3) 0.18914(18)
C29 C 1.0979(3) 0.8066(3) 0.28083(19)
H22 H 1.0445 0.7200 0.3085
N3 N 0.7019(2) 0.2740(2) 0.10884(17)
N4 N 0.8355(2) 0.1701(2) 0.11079(16)
O7 O 0.86795(18) 0.58516(18) 0.15727(14)
O8 O 0.84879(19) 0.74906(19) 0.07745(13)
Co1 Co 0.65561(4) 0.43648(3) 0.16976(2)
Co2 Co 0.63498(4) 0.65449(3) 0.02558(2)
N1A N 0.7202(2) 0.4197(2) 0.31621(16)
O1A O 0.69729(18) 0.80206(18) -0.06670(12)
O2_2 O 0.45267(18) 0.29275(18) 0.20484(13)
O4A O 0.5895(2) 0.74263(19) 0.14864(13)
O5A O 0.6363(2) 0.60948(19) 0.24387(13)
O6A O 0.41517(19) 0.54988(18) -0.02893(13)
Co1_2 Co 1.65561(4) 1.43648(3) 0.16976(2)
Co1A Co 1.34439(4) 0.56352(3) 0.83024(2)
Co1A_2 Co 1.34439(4) 1.56352(3) 0.83024(2)
Co2A Co 0.36502(4) 0.34551(3) -0.02558(2)
Co2A_2 Co 1.36502(4) 1.34551(3) -0.02558(2)
Co2A_3 Co 1.36502(4) 1.34551(3) 0.97442(2)
O9 O 1.333(2) 0.746(2) 0.1092(16)
loop_
_geom_bond_atom_site_label_1
_geom_bond_atom_site_label_2
_geom_bond_site_symmetry_1
_geom_bond_site_symmetry_2
C1 C2 1_555 1_555
C2 H1 1_555 1_555
C3 C2 1_555 1_555
C4 C3 1_555 1_555
H2 C4 1_555 1_555
C5 C3 1_555 1_555
C6 C7 1_555 1_555
C7 H3 1_555 1_555
C8 C7 1_555 1_555
H4 C8 1_555 1_555
C9 C8 1_555 1_555
C10 C9 1_555 1_555
H5 C10 1_555 1_555
C11 C6 1_555 1_555
H6 C11 1_555 1_555
C12 C9 1_555 1_555
C13 H7 1_555 1_555
C14 H8 1_555 1_555
C15 C14 1_555 1_555
H9 C15 1_555 1_555
C16 H10 1_555 1_555
H11 C16 1_555 1_555
C17 C16 1_555 1_555
C18 C17 1_555 1_555
H12 C18 1_555 1_555
C19 C18 1_555 1_555
H13 C19 1_555 1_555
C20 C19 1_555 1_555
C21 C20 1_555 1_555
H14 C21 1_555 1_555
C22 C17 1_555 1_555
H15 C22 1_555 1_555
C23 C20 1_555 1_555
H16 C23 1_555 1_555
H17 C23 1_555 1_555
C24 H18 1_555 1_555
C25 H19 1_555 1_555
C26 C25 1_555 1_555
H20 C26 1_555 1_555
N1 C24 1_555 1_555
N2 C23 1_555 1_555
O1 C5 1_555 1_555
O2 C5 1_555 1_555
O3 C1 1_555 1_555
O4 C12 1_555 1_555
O5 C12 1_555 1_555
O6 H21 1_555 1_555
C27 C28 1_555 1_555
C28 C4 1_555 1_555
C29 C1 1_555 1_555
H22 C29 1_555 1_555
N3 C13 1_555 1_555
N4 C13 1_555 1_555
O7 C27 1_555 1_555
O8 C27 1_555 1_555
Co1 O6 1_555 1_555
Co2 O6 1_555 1_555
N1A Co1 1_555 1_555
O1A Co2 1_555 1_555
O2_2 Co1 1_555 1_555
O4A Co2 1_555 1_555
O5A Co1 1_555 1_555
O6A Co2 1_555 1_555
Co1_2 O2 1_555 1_555
Co1A N1 1_555 1_555
Co1A_2 O5 1_555 1_555
Co2A O6 1_555 1_555
Co2A_2 O1 1_555 1_555
Co2A_3 O4 1_555 1_555
C6 O3 1_555 1_555
C10 C11 1_555 1_555
C14 N3 1_555 1_555
C15 N4 1_555 1_555
C16 N4 1_555 1_555
C21 C22 1_555 1_555
C24 N2 1_555 1_555
C25 N1 1_555 1_555
C26 N2 1_555 1_555
C28 C29 1_555 1_555
N3 Co1 1_555 1_555
O7 Co1 1_555 1_555
O8 Co2 1_555 1_555
O6A Co2A 1_555 1_555

#END
