
#######################################################################
#
#                 Cambridge Crystallographic Data Centre
#                                CCDC 
#
#######################################################################
#
# If this CIF has been generated from an entry in the Cambridge 
# Structural Database, then it will include bibliographic, chemical, 
# crystal, experimental, refinement or atomic coordinate data resulting 
# from the CCDC's data processing and validation procedures.
#
#######################################################################

data_POSWEA
_symmetry_cell_setting           orthorhombic
_symmetry_space_group_name_H-M   'P b c a'
_symmetry_Int_Tables_number      61
_space_group_name_Hall           '-P 2ac 2ab'
loop_
_symmetry_equiv_pos_site_id
_symmetry_equiv_pos_as_xyz
1 x,y,z
2 1/2-x,-y,1/2+z
3 -x,1/2+y,1/2-z
4 1/2+x,1/2-y,-z
5 -x,-y,-z
6 1/2+x,y,1/2-z
7 x,1/2-y,1/2+z
8 1/2-x,1/2+y,z
_cell_length_a                   13.778(2)
_cell_length_b                   14.427(2)
_cell_length_c                   19.658(3)
_cell_angle_alpha                90
_cell_angle_beta                 90
_cell_angle_gamma                90
_cell_volume                     3907.52
loop_
_atom_site_label
_atom_site_type_symbol
_atom_site_fract_x
_atom_site_fract_y
_atom_site_fract_z
Zn1 Zn 0.70738(11) 0.10658(6) 0.46542(5)
Zn2 Zn 0.69136(11) 0.15017(6) 0.29785(5)
O1 O 0.8191(6) 0.4823(3) 0.4221(3)
O2 O 0.8365(6) 0.5124(4) 0.3116(3)
S1 S 0.8113(3) 0.17117(13) 0.38180(11)
N1 N 0.8085(9) 0.0509(6) 0.5354(4)
N2 N 0.7824(8) 0.1232(5) 0.2119(3)
C1 C 0.555(2) 0.2349(18) 0.4859(11)
H1 H 0.6082 0.2698 0.4663
H2 H 0.5133 0.2763 0.5115
H3 H 0.5177 0.2060 0.4497
C2 C 0.5903(16) 0.1689(10) 0.5275(12)
H4 H 0.5404 0.1230 0.5389
H5 H 0.6160 0.1959 0.5696
C3 C 0.8218(10) 0.0857(11) 0.5963(6)
H6 H 0.7856 0.1385 0.6081
C4 C 0.8865(12) 0.0497(19) 0.6456(7)
H7 H 0.8939 0.0756 0.6891
C5 C 0.933(3) -0.020(2) 0.6260(11)
H8 H 0.9637 -0.0541 0.6603
C6 C 0.944(3) -0.0503(19) 0.5646(15)
H9 H 0.9959 -0.0872 0.5499
C7 C 0.864(2) -0.0194(12) 0.5214(11)
H10 H 0.8515 -0.0525 0.4811
C8 C 0.8324(8) 0.4590(5) 0.3613(4)
C9 C 0.8468(9) 0.0619(9) 0.2123(6)
H11 H 0.8556 0.0274 0.2524
C10 C 0.9066(10) 0.0416(10) 0.1563(9)
H12 H 0.9557 -0.0033 0.1595
C11 C 0.892(2) 0.0858(12) 0.1008(7)
H13 H 0.9298 0.0731 0.0619
C12 C 0.826(3) 0.1477(16) 0.0997(8)
H14 H 0.8160 0.1819 0.0596
C13 C 0.770(2) 0.1654(11) 0.1551(6)
H15 H 0.7200 0.2098 0.1517
C14 C 0.5789(10) 0.2317(7) 0.2728(5)
H16 H 0.5546 0.2108 0.2285
H17 H 0.5272 0.2205 0.3060
C15 C 0.5928(11) 0.3295(8) 0.2686(9)
H18 H 0.6013 0.3546 0.3140
H19 H 0.5366 0.3578 0.2474
H20 H 0.6502 0.3426 0.2416
C16 C 0.8034(9) 0.2954(5) 0.4028(4)
H21 H 0.7354 0.3118 0.4111
H22 H 0.8398 0.3073 0.4447
C17 C 0.8429(7) 0.3555(5) 0.3470(4)
H23 H 0.8089 0.3408 0.3045
H24 H 0.9118 0.3411 0.3404
Zn1G Zn 0.79262(11) 0.60658(6) 0.46542(5)
Zn2G Zn 0.80864(11) 0.65017(6) 0.29785(5)
O1G O 0.6809(6) -0.0177(3) 0.4221(3)
O2G O 0.6635(6) 0.0124(4) 0.3116(3)
loop_
_geom_bond_atom_site_label_1
_geom_bond_atom_site_label_2
_geom_bond_site_symmetry_1
_geom_bond_site_symmetry_2
Zn1 S1 1_555 1_555
Zn2 S1 1_555 1_555
O1 C8 1_555 1_555
O2 C8 1_555 1_555
S1 C16 1_555 1_555
N1 Zn1 1_555 1_555
N2 Zn2 1_555 1_555
C1 H1 1_555 1_555
H2 C1 1_555 1_555
H3 C1 1_555 1_555
C2 Zn1 1_555 1_555
H4 C2 1_555 1_555
H5 C2 1_555 1_555
C3 N1 1_555 1_555
H6 C3 1_555 1_555
C4 C3 1_555 1_555
H7 C4 1_555 1_555
C5 C4 1_555 1_555
H8 C5 1_555 1_555
C6 C5 1_555 1_555
H9 C6 1_555 1_555
C7 N1 1_555 1_555
H10 C7 1_555 1_555
C8 C17 1_555 1_555
C9 N2 1_555 1_555
H11 C9 1_555 1_555
C10 C9 1_555 1_555
H12 C10 1_555 1_555
C11 C10 1_555 1_555
H13 C11 1_555 1_555
C12 C11 1_555 1_555
H14 C12 1_555 1_555
C13 N2 1_555 1_555
H15 C13 1_555 1_555
C14 Zn2 1_555 1_555
H16 C14 1_555 1_555
H17 C14 1_555 1_555
C15 C14 1_555 1_555
H18 C15 1_555 1_555
H19 C15 1_555 1_555
H20 C15 1_555 1_555
C16 H21 1_555 1_555
H22 C16 1_555 1_555
C17 C16 1_555 1_555
H23 C17 1_555 1_555
H24 C17 1_555 1_555
Zn1G O1 1_555 1_555
Zn2G O2 1_555 1_555
O1G Zn1 1_555 1_555
O2G Zn2 1_555 1_555
C1 C2 1_555 1_555
C6 C7 1_555 1_555
C12 C13 1_555 1_555

#END
