
#######################################################################
#
#                 Cambridge Crystallographic Data Centre
#                                CCDC 
#
#######################################################################
#
# If this CIF has been generated from an entry in the Cambridge 
# Structural Database, then it will include bibliographic, chemical, 
# crystal, experimental, refinement or atomic coordinate data resulting 
# from the CCDC's data processing and validation procedures.
#
#######################################################################

data_POSZED02
_symmetry_cell_setting           triclinic
_symmetry_space_group_name_H-M   'P -1'
_symmetry_Int_Tables_number      2
_space_group_name_Hall           '-P 1'
loop_
_symmetry_equiv_pos_site_id
_symmetry_equiv_pos_as_xyz
1 x,y,z
2 -x,-y,-z
_cell_length_a                   7.295(3)
_cell_length_b                   9.469(4)
_cell_length_c                   11.046(4)
_cell_angle_alpha                83.435(7)
_cell_angle_beta                 73.225(5)
_cell_angle_gamma                69.766(6)
_cell_volume                     685.375
loop_
_atom_site_label
_atom_site_type_symbol
_atom_site_fract_x
_atom_site_fract_y
_atom_site_fract_z
Co1 Co 0.85349(10) 0.12792(7) 0.00097(7)
O1 O 0.6701(7) 0.0329(5) 0.1217(5)
O2 O -0.0657(8) 0.1752(6) 0.1418(5)
O3 O 0.1889(7) -0.0391(5) 0.1364(5)
O4 O 0.9226(7) -0.1843(5) 0.1180(6)
N1 N 0.6357(7) 0.3537(6) -0.0031(5)
C1 C 0.2817(9) -0.1759(7) 0.3896(7)
H1 H 0.1519 -0.1229 0.4416
C2 C 0.7408(9) -0.1031(7) 0.1535(6)
C3 C 0.0606(10) 0.3069(7) 0.2915(7)
H2 H -0.0503 0.3624 0.2580
C4 C 0.1564(9) 0.1554(7) 0.2655(6)
C5 C 0.5397(10) -0.4106(7) 0.3165(8)
H3 H 0.5843 -0.5175 0.3160
C6 C 0.3799(11) 0.1475(8) 0.3904(6)
H4 H 0.4911 0.0932 0.4240
C7 C 0.5971(9) -0.1761(7) 0.2387(6)
C8 C 0.3499(11) -0.3305(8) 0.3917(7)
H5 H 0.2667 -0.3833 0.4452
C9 C 0.2877(11) 0.2987(8) 0.4129(7)
H6 H 0.3364 0.3478 0.4609
C10 C 0.1250(12) 0.3795(8) 0.3664(7)
H7 H 0.0573 0.4832 0.3850
C11 C 0.6900(12) 0.4680(9) -0.0610(11)
H8 H 0.8277 0.4497 -0.1072
C12 C 0.4432(12) 0.3864(9) 0.0580(10)
H9 H 0.3945 0.3084 0.1010
C13 C 0.6621(10) -0.3333(7) 0.2428(7)
H10 H 0.7936 -0.3879 0.1937
C14 C 0.4019(9) -0.0954(7) 0.3112(6)
C15 C 0.0864(10) 0.0905(7) 0.1762(6)
C16 C 0.3138(9) 0.0710(7) 0.3187(6)
Co1A Co 1.14651(10) -0.12792(7) -0.00097(7)
Co1_2 Co -0.14651(10) 0.12792(7) 0.00097(7)
Co1A_2 Co 0.14651(10) -0.12792(7) -0.00097(7)
Co1A_3 Co 0.14651(10) 0.87208(7) -0.00097(7)
Co1A_4 Co 2.14651(10) -0.12792(7) -0.00097(7)
Co1_3 Co 1.85349(10) 0.12792(7) 0.00097(7)
O1A O 1.3299(7) -0.0329(5) -0.1217(5)
O1A_2 O 0.3299(7) 0.9671(5) -0.1217(5)
O2A O 2.0657(8) -0.1752(6) -0.1418(5)
O2_2 O 0.9343(8) 0.1752(6) 0.1418(5)
O2A_2 O 0.0657(8) 0.8248(6) -0.1418(5)
O3A O 1.8111(7) 0.0391(5) -0.1364(5)
O3A_2 O 0.8111(7) 0.0391(5) -0.1364(5)
O3_2 O 0.1889(7) 0.9609(5) 0.1364(5)
O4A O 1.0774(7) 0.1843(5) -0.1180(6)
O4_2 O -0.0774(7) 0.8157(5) 0.1180(6)
N1A N 0.3643(7) 0.6463(6) 0.0031(5)
C1A C 1.7183(9) 0.1759(7) -0.3896(7)
H1A H 1.8481 0.1229 -0.4416
C2A C 1.2592(9) 0.1031(7) -0.1535(6)
C3A C 1.9394(10) -0.3069(7) -0.2915(7)
H2A H 2.0503 -0.3624 -0.2580
C4A C 1.8436(9) -0.1554(7) -0.2655(6)
C5A C 1.4603(10) 0.4106(7) -0.3165(8)
H3A H 1.4157 0.5175 -0.3160
C6A C 1.6201(11) -0.1475(8) -0.3904(6)
H4A H 1.5089 -0.0932 -0.4240
C7A C 1.4029(9) 0.1761(7) -0.2387(6)
C8A C 1.6501(11) 0.3305(8) -0.3917(7)
H5A H 1.7333 0.3833 -0.4452
C9A C 1.7123(11) -0.2987(8) -0.4129(7)
H6A H 1.6636 -0.3478 -0.4609
C10A C 1.8750(12) -0.3795(8) -0.3664(7)
H7A H 1.9427 -0.4832 -0.3850
C11A C 0.3100(12) 0.5320(9) 0.0610(11)
H8A H 0.1723 0.5503 0.1072
C12A C 0.5568(12) 0.6136(9) -0.0580(10)
H9A H 0.6055 0.6916 -0.1010
C13A C 1.3379(10) 0.3333(7) -0.2428(7)
H10A H 1.2064 0.3879 -0.1937
C14A C 1.5981(9) 0.0954(7) -0.3112(6)
C15A C 1.9136(10) -0.0905(7) -0.1762(6)
C16A C 1.6862(9) -0.0710(7) -0.3187(6)
loop_
_geom_bond_atom_site_label_1
_geom_bond_atom_site_label_2
_geom_bond_site_symmetry_1
_geom_bond_site_symmetry_2
Co1 O1 1_555 1_555
O1 C2 1_555 1_555
O2 C15 1_555 1_555
O3 C15 1_555 1_555
O4 C2 1_555 1_555
N1 Co1 1_555 1_555
C1 H1 1_555 1_555
C2 C7 1_555 1_555
C3 H2 1_555 1_555
C4 C3 1_555 1_555
C5 H3 1_555 1_555
C6 H4 1_555 1_555
C7 C13 1_555 1_555
C8 C1 1_555 1_555
H5 C8 1_555 1_555
C9 C6 1_555 1_555
H6 C9 1_555 1_555
C10 C3 1_555 1_555
H7 C10 1_555 1_555
C11 N1 1_555 1_555
H8 C11 1_555 1_555
C12 N1 1_555 1_555
H9 C12 1_555 1_555
C13 C5 1_555 1_555
H10 C13 1_555 1_555
C14 C1 1_555 1_555
C15 C4 1_555 1_555
C16 C4 1_555 1_555
Co1A O4 1_555 1_555
Co1_2 O2 1_555 1_555
Co1A_2 O3 1_555 1_555
Co1A_3 O1A_2 1_555 1_555
Co1A_4 O2A 1_555 1_555
Co1_3 O3A 1_555 1_555
O1A Co1A 1_555 1_555
O2A C15A 1_555 1_555
O2_2 Co1 1_555 1_555
O2A_2 Co1A_3 1_555 1_555
O3A C15A 1_555 1_555
O3A_2 Co1 1_555 1_555
O3_2 Co1A_3 1_555 1_555
O4A Co1 1_555 1_555
O4_2 Co1A_3 1_555 1_555
N1A Co1A_3 1_555 1_555
C1A H1A 1_555 1_555
C2A O1A 1_555 1_555
C3A H2A 1_555 1_555
C4A C3A 1_555 1_555
C5A H3A 1_555 1_555
C6A H4A 1_555 1_555
C7A C2A 1_555 1_555
C8A C1A 1_555 1_555
H5A C8A 1_555 1_555
C9A C6A 1_555 1_555
H6A C9A 1_555 1_555
C10A C3A 1_555 1_555
H7A C10A 1_555 1_555
C11A C12 1_555 1_555
H8A C11A 1_555 1_555
C12A C11 1_555 1_555
H9A C12A 1_555 1_555
C13A C5A 1_555 1_555
H10A C13A 1_555 1_555
C14A C1A 1_555 1_555
C15A C4A 1_555 1_555
C16A C4A 1_555 1_555
C5 C8 1_555 1_555
C6 C16 1_555 1_555
C7 C14 1_555 1_555
C9 C10 1_555 1_555
C14 C16 1_555 1_555
O4A C2A 1_555 1_555
N1A C11A 1_555 1_555
N1A C12A 1_555 1_555
C5A C8A 1_555 1_555
C6A C16A 1_555 1_555
C7A C13A 1_555 1_555
C7A C14A 1_555 1_555
C9A C10A 1_555 1_555
C14A C16A 1_555 1_555

#END
