
#######################################################################
#
#                 Cambridge Crystallographic Data Centre
#                                CCDC 
#
#######################################################################
#
# If this CIF has been generated from an entry in the Cambridge 
# Structural Database, then it will include bibliographic, chemical, 
# crystal, experimental, refinement or atomic coordinate data resulting 
# from the CCDC's data processing and validation procedures.
#
#######################################################################

data_POSZED01
_symmetry_cell_setting           triclinic
_symmetry_space_group_name_H-M   'P -1'
_symmetry_Int_Tables_number      2
_space_group_name_Hall           '-P 1'
loop_
_symmetry_equiv_pos_site_id
_symmetry_equiv_pos_as_xyz
1 x,y,z
2 -x,-y,-z
_cell_length_a                   7.369(5)
_cell_length_b                   9.551(7)
_cell_length_c                   11.273(8)
_cell_angle_alpha                83.322(11)
_cell_angle_beta                 73.216(11)
_cell_angle_gamma                68.819(10)
_cell_volume                     708.23
loop_
_atom_site_label
_atom_site_type_symbol
_atom_site_fract_x
_atom_site_fract_y
_atom_site_fract_z
Co1 Co -0.34420(7) 0.36683(5) 0.49812(5)
C1 C -0.2322(6) 0.6021(4) 0.3473(4)
C2 C -0.0928(6) 0.6766(4) 0.2614(4)
C3 C -0.1593(7) 0.8333(5) 0.2581(5)
H1 H -0.2866 0.8870 0.3068
C4 C -0.0391(7) 0.9109(5) 0.1832(5)
H2 H -0.0839 1.0153 0.1837
C5 C 0.1488(7) 0.8301(5) 0.1077(5)
H3 H 0.2287 0.8806 0.0554
C6 C 0.2168(6) 0.6747(5) 0.1105(4)
H4 H 0.3427 0.6220 0.0597
C7 C 0.1005(6) 0.5945(4) 0.1883(4)
C8 C 0.1890(6) 0.4260(4) 0.1814(3)
C9 C 0.1266(7) 0.3511(5) 0.1098(4)
H5 H 0.0200 0.4056 0.0760
C10 C 0.2186(8) 0.1986(5) 0.0878(4)
H6 H 0.1729 0.1520 0.0405
C11 C 0.3785(8) 0.1157(5) 0.1364(5)
H7 H 0.4439 0.0139 0.1198
C12 C 0.4403(6) 0.1867(5) 0.2103(4)
H8 H 0.5459 0.1307 0.2444
C13 C 0.3469(6) 0.3411(4) 0.2345(4)
C14 C 0.4150(6) 0.4059(4) 0.3233(4)
C15 C 0.0538(8) 0.1117(6) 0.4418(7)
H9 H 0.0995 0.1873 0.3994
C16 C 0.1903(8) -0.0340(6) 0.4383(7)
H10 H 0.3238 -0.0530 0.3929
N1 N -0.1366(5) 0.1465(3) 0.5026(3)
O1 O -0.1603(4) 0.4660(3) 0.3766(3)
O2 O -0.4156(5) 0.6844(3) 0.3852(3)
O3 O 0.5694(5) 0.3195(4) 0.3561(3)
O4 O 0.3141(5) 0.5374(3) 0.3613(3)
Co1A Co 0.34420(7) -0.36683(5) 0.50188(5)
Co1A_2 Co -0.65580(7) 0.63317(5) 0.50188(5)
Co1_2 Co 0.65580(7) 0.36683(5) 0.49812(5)
Co1A_3 Co 0.34420(7) 0.63317(5) 0.50188(5)
Co1_3 Co -1.34420(7) 0.36683(5) 0.49812(5)
Co1A_4 Co -1.65580(7) 0.63317(5) 0.50188(5)
C1_2 C -1.2322(6) 0.6021(4) 0.3473(4)
C2_2 C -1.0928(6) 0.6766(4) 0.2614(4)
C3_2 C -1.1593(7) 0.8333(5) 0.2581(5)
H1_2 H -1.2866 0.8870 0.3068
C4_2 C -1.0391(7) 0.9109(5) 0.1832(5)
H2_2 H -1.0839 1.0153 0.1837
C5_2 C -0.8512(7) 0.8301(5) 0.1077(5)
H3_2 H -0.7713 0.8806 0.0554
C6_2 C -0.7832(6) 0.6747(5) 0.1105(4)
H4_2 H -0.6573 0.6220 0.0597
C7_2 C -0.8995(6) 0.5945(4) 0.1883(4)
C8_2 C -0.8110(6) 0.4260(4) 0.1814(3)
C9_2 C -0.8734(7) 0.3511(5) 0.1098(4)
H5_2 H -0.9800 0.4056 0.0760
C10_2 C -0.7814(8) 0.1986(5) 0.0878(4)
H6_2 H -0.8271 0.1520 0.0405
C11_2 C -0.6215(8) 0.1157(5) 0.1364(5)
H7_2 H -0.5561 0.0139 0.1198
C12_2 C -0.5597(6) 0.1867(5) 0.2103(4)
H8_2 H -0.4541 0.1307 0.2444
C13_2 C -0.6531(6) 0.3411(4) 0.2345(4)
C14_2 C -0.5850(6) 0.4059(4) 0.3233(4)
C15A C -0.0538(8) -0.1117(6) 0.5582(7)
H9A H -0.0995 -0.1873 0.6006
C16A C -0.1903(8) 0.0340(6) 0.5617(7)
H10A H -0.3238 0.0530 0.6071
N1A N 0.1366(5) -0.1465(3) 0.4974(3)
O1_2 O -1.1603(4) 0.4660(3) 0.3766(3)
O1A O 0.1603(4) -0.4660(3) 0.6234(3)
O2_2 O -1.4156(5) 0.6844(3) 0.3852(3)
O2A O -0.5844(5) 0.3156(3) 0.6148(3)
O2_3 O 0.5844(5) -0.3156(3) 0.3852(3)
O3_2 O -0.4306(5) 0.3195(4) 0.3561(3)
O3A O 0.4306(5) -0.3195(4) 0.6439(3)
O4_2 O -0.6859(5) 0.5374(3) 0.3613(3)
O4A O -0.3141(5) 0.4626(3) 0.6387(3)
O4_3 O 0.3141(5) -0.4626(3) 0.3613(3)
loop_
_geom_bond_atom_site_label_1
_geom_bond_atom_site_label_2
_geom_bond_site_symmetry_1
_geom_bond_site_symmetry_2
Co1 N1 1_555 1_555
C1 C2 1_555 1_555
C2 C3 1_555 1_555
C3 H1 1_555 1_555
C4 C3 1_555 1_555
H2 C4 1_555 1_555
C5 C4 1_555 1_555
H3 C5 1_555 1_555
C6 C5 1_555 1_555
H4 C6 1_555 1_555
C7 C2 1_555 1_555
C8 C7 1_555 1_555
C9 C8 1_555 1_555
H5 C9 1_555 1_555
C10 C9 1_555 1_555
H6 C10 1_555 1_555
C11 C10 1_555 1_555
H7 C11 1_555 1_555
C12 C11 1_555 1_555
H8 C12 1_555 1_555
C13 C8 1_555 1_555
C14 C13 1_555 1_555
C15 H9 1_555 1_555
C16 C15 1_555 1_555
H10 C16 1_555 1_555
N1 C15 1_555 1_555
O1 Co1 1_555 1_555
O2 C1 1_555 1_555
O3 C14 1_555 1_555
O4 C14 1_555 1_555
Co1A N1A 1_555 1_555
Co1A_2 O2 1_555 1_555
Co1_2 O3 1_555 1_555
Co1A_3 O4 1_555 1_555
Co1_3 O1_2 1_555 1_555
Co1A_4 O2_2 1_555 1_555
C1_2 C2_2 1_555 1_555
C2_2 C3_2 1_555 1_555
C3_2 H1_2 1_555 1_555
C4_2 C3_2 1_555 1_555
H2_2 C4_2 1_555 1_555
C5_2 C4_2 1_555 1_555
H3_2 C5_2 1_555 1_555
C6_2 C5_2 1_555 1_555
H4_2 C6_2 1_555 1_555
C7_2 C2_2 1_555 1_555
C8_2 C7_2 1_555 1_555
C9_2 C8_2 1_555 1_555
H5_2 C9_2 1_555 1_555
C10_2 C9_2 1_555 1_555
H6_2 C10_2 1_555 1_555
C11_2 C10_2 1_555 1_555
H7_2 C11_2 1_555 1_555
C12_2 C11_2 1_555 1_555
H8_2 C12_2 1_555 1_555
C13_2 C8_2 1_555 1_555
C14_2 C13_2 1_555 1_555
C15A H9A 1_555 1_555
C16A N1 1_555 1_555
H10A C16A 1_555 1_555
N1A C16 1_555 1_555
O1_2 C1_2 1_555 1_555
O1A Co1A 1_555 1_555
O2_2 C1_2 1_555 1_555
O2A Co1 1_555 1_555
O2_3 Co1A 1_555 1_555
O3_2 Co1 1_555 1_555
O3A Co1A 1_555 1_555
O4_2 Co1A_2 1_555 1_555
O4A Co1 1_555 1_555
O4_3 Co1A 1_555 1_555
C1 O1 1_555 1_555
C6 C7 1_555 1_555
C12 C13 1_555 1_555
C6_2 C7_2 1_555 1_555
C12_2 C13_2 1_555 1_555
C14_2 O3_2 1_555 1_555
C14_2 O4_2 1_555 1_555
C15A C16A 1_555 1_555
C15A N1A 1_555 1_555

#END
