
#######################################################################
#
#                 Cambridge Crystallographic Data Centre
#                                CCDC 
#
#######################################################################
#
# If this CIF has been generated from an entry in the Cambridge 
# Structural Database, then it will include bibliographic, chemical, 
# crystal, experimental, refinement or atomic coordinate data resulting 
# from the CCDC's data processing and validation procedures.
#
#######################################################################

data_POTCOS
_symmetry_cell_setting           triclinic
_symmetry_space_group_name_H-M   'P -1'
_symmetry_Int_Tables_number      2
_space_group_name_Hall           '-P 1'
loop_
_symmetry_equiv_pos_site_id
_symmetry_equiv_pos_as_xyz
1 x,y,z
2 -x,-y,-z
_cell_length_a                   7.5604(9)
_cell_length_b                   12.5888(14)
_cell_length_c                   13.7751(16)
_cell_angle_alpha                74.099(2)
_cell_angle_beta                 78.856(2)
_cell_angle_gamma                76.175(2)
_cell_volume                     1212.85
loop_
_atom_site_label
_atom_site_type_symbol
_atom_site_fract_x
_atom_site_fract_y
_atom_site_fract_z
Co1 Co 0.21798(4) 0.01613(2) -0.08039(2)
O1 O 0.3994(2) 0.09304(14) -0.18396(13)
N1 N 0.3734(3) -0.15212(16) -0.05593(14)
C1 C 0.4085(3) -0.2143(2) -0.12527(18)
H1 H 0.3609 -0.1836 -0.1866
O2 O 0.6399(2) 0.16860(14) -0.26229(13)
N2 N 0.5786(3) -0.34905(17) 0.15823(15)
H2 H 0.5432 -0.3013 0.1957
C2 C 0.5119(4) -0.3214(2) -0.10856(19)
H3 H 0.5389 -0.3603 -0.1598
O3 O 0.7758(2) -0.01821(14) -0.06523(12)
N3 N 0.8402(3) -0.62749(17) 0.67626(15)
H4 H 0.8482 -0.6807 0.6466
C3 C 0.5770(4) -0.3724(2) -0.01556(19)
H5 H 0.6462 -0.4453 -0.0032
O4 O 1.0579(2) -0.03270(13) -0.15476(13)
N4 N 1.0474(3) -0.81435(16) 0.89582(14)
C4 C 0.5348(3) -0.3105(2) 0.05818(18)
O5 O 0.4062(3) 0.0960(2) -0.39593(18)
N5 N 0.4402(3) -0.0066(2) -0.37591(17)
C5 C 0.4373(3) -0.2005(2) 0.03302(18)
H6 H 0.4150 -0.1578 0.0811
O6 O 0.3458(3) -0.0637(2) -0.3931(2)
C6 C 0.6702(3) -0.4526(2) 0.20298(19)
O7 O 0.7319(3) -0.52874(15) 0.15886(14)
C7 C 0.6926(3) -0.4682(2) 0.31241(18)
O8 O 0.7449(4) -0.44003(16) 0.66015(16)
C8 C 0.6961(4) -0.3792(2) 0.35313(19)
H7 H 0.6795 -0.3060 0.3128
C9 C 0.7242(4) -0.3993(2) 0.4537(2)
H8 H 0.7272 -0.3394 0.4801
C10 C 0.7479(3) -0.5080(2) 0.51539(19)
C11 C 0.7417(4) -0.5968(2) 0.4747(2)
H9 H 0.7559 -0.6700 0.5153
C12 C 0.7143(4) -0.5767(2) 0.3743(2)
H10 H 0.7104 -0.6365 0.3480
C13 C 0.7769(3) -0.5213(2) 0.6234(2)
C14 C 0.8945(3) -0.6605(2) 0.77427(18)
C15 C 0.8699(4) -0.5892(2) 0.8388(2)
H11 H 0.8104 -0.5143 0.8204
C16 C 0.9370(4) -0.6332(2) 0.9318(2)
H12 H 0.9226 -0.5877 0.9770
C17 C 1.0249(3) -0.7441(2) 0.95669(18)
H13 H 1.0707 -0.7716 1.0187
C18 C 0.9828(3) -0.7717(2) 0.80596(18)
H14 H 0.9980 -0.8193 0.7626
C19 C 0.5594(3) 0.0888(2) -0.23393(16)
C20 C 0.6622(3) -0.02071(19) -0.26035(17)
C21 C 0.6086(3) -0.0665(2) -0.32829(18)
C22 C 0.7021(4) -0.1649(2) -0.3544(2)
H15 H 0.6590 -0.1937 -0.3987
C23 C 0.8622(4) -0.2202(2) -0.3130(2)
H16 H 0.9279 -0.2870 -0.3294
C24 C 0.9240(3) -0.1758(2) -0.2473(2)
H17 H 1.0339 -0.2117 -0.2217
C25 C 0.8247(3) -0.07820(19) -0.21874(17)
C26 C 0.8910(3) -0.03825(18) -0.14088(17)
Co1_2 Co 1.21798(4) -0.98387(2) 0.91961(2)
Co1_3 Co 1.21798(4) 0.01613(2) -0.08039(2)
Co1A Co 0.78202(4) -0.01613(2) 0.08039(2)
O3A O 0.2242(2) 0.01821(14) 0.06523(12)
O4_2 O 0.0579(2) -0.03270(13) -0.15476(13)
N4_2 N 0.0474(3) 0.18565(16) -0.10418(14)
O9 O 0.9750(4) 0.1604(2) -0.4118(2)
H18 H 0.9537 0.1486 -0.4660
H19 H 1.0564 0.1055 -0.3869
loop_
_geom_bond_atom_site_label_1
_geom_bond_atom_site_label_2
_geom_bond_site_symmetry_1
_geom_bond_site_symmetry_2
Co1 O1 1_555 1_555
O1 C19 1_555 1_555
N1 Co1 1_555 1_555
C1 N1 1_555 1_555
H1 C1 1_555 1_555
O2 C19 1_555 1_555
N2 H2 1_555 1_555
C2 C1 1_555 1_555
H3 C2 1_555 1_555
O3 C26 1_555 1_555
N3 H4 1_555 1_555
C3 C2 1_555 1_555
H5 C3 1_555 1_555
O4 C26 1_555 1_555
N4 C17 1_555 1_555
C4 N2 1_555 1_555
O5 N5 1_555 1_555
N5 O6 1_555 1_555
C5 N1 1_555 1_555
H6 C5 1_555 1_555
C6 N2 1_555 1_555
O7 C6 1_555 1_555
C7 C6 1_555 1_555
O8 C13 1_555 1_555
C8 C7 1_555 1_555
H7 C8 1_555 1_555
C9 C8 1_555 1_555
H8 C9 1_555 1_555
C10 C9 1_555 1_555
C11 C10 1_555 1_555
H9 C11 1_555 1_555
C12 C7 1_555 1_555
H10 C12 1_555 1_555
C13 N3 1_555 1_555
C14 N3 1_555 1_555
C15 C14 1_555 1_555
H11 C15 1_555 1_555
C16 C15 1_555 1_555
H12 C16 1_555 1_555
C17 C16 1_555 1_555
H13 C17 1_555 1_555
C18 N4 1_555 1_555
H14 C18 1_555 1_555
C19 C20 1_555 1_555
C20 C21 1_555 1_555
C21 N5 1_555 1_555
C22 C21 1_555 1_555
H15 C22 1_555 1_555
C23 C22 1_555 1_555
H16 C23 1_555 1_555
C24 C23 1_555 1_555
H17 C24 1_555 1_555
C25 C20 1_555 1_555
C26 C25 1_555 1_555
O9 H18 1_555 1_555
H19 O9 1_555 1_555
Co1_2 N4 1_555 1_555
Co1_3 O4 1_555 1_555
Co1A O3 1_555 1_555
O3A Co1 1_555 1_555
O4_2 Co1 1_555 1_555
N4_2 Co1 1_555 1_555
C3 C4 1_555 1_555
C4 C5 1_555 1_555
C10 C13 1_555 1_555
C11 C12 1_555 1_555
C14 C18 1_555 1_555
C24 C25 1_555 1_555

#END
