
#######################################################################
#
#                 Cambridge Crystallographic Data Centre
#                                CCDC 
#
#######################################################################
#
# If this CIF has been generated from an entry in the Cambridge 
# Structural Database, then it will include bibliographic, chemical, 
# crystal, experimental, refinement or atomic coordinate data resulting 
# from the CCDC's data processing and validation procedures.
#
#######################################################################

data_POTCUY
_symmetry_cell_setting           triclinic
_symmetry_space_group_name_H-M   'P -1'
_symmetry_Int_Tables_number      2
_space_group_name_Hall           '-P 1'
loop_
_symmetry_equiv_pos_site_id
_symmetry_equiv_pos_as_xyz
1 x,y,z
2 -x,-y,-z
_cell_length_a                   9.889(5)
_cell_length_b                   10.020(5)
_cell_length_c                   12.238(5)
_cell_angle_alpha                80.214(5)
_cell_angle_beta                 86.669(5)
_cell_angle_gamma                88.085(5)
_cell_volume                     1192.63
loop_
_atom_site_label
_atom_site_type_symbol
_atom_site_fract_x
_atom_site_fract_y
_atom_site_fract_z
Co1 Co 0.12594(5) 0.16440(4) -0.04120(4)
N1 N -0.1856(3) 0.3849(3) -0.3807(3)
H1 H -0.2409 0.4059 -0.3291
C1 C -0.0459(4) 0.1888(4) -0.4178(3)
H2 H -0.0801 0.1932 -0.4875
O1 O 0.2397(3) 0.9948(2) -0.0544(2)
N2 N 0.0578(3) 0.1731(3) -0.2082(3)
O2 O -0.1277(4) 0.4282(3) -0.5631(3)
C2 C -0.7472(4) 1.0577(3) -0.8163(3)
H3 H -0.7092 0.9938 -0.8567
N3 N -0.8279(3) 1.1551(3) -0.8687(3)
C3 C -0.8571(4) 1.2405(4) -0.6974(3)
H4 H -0.8975 1.3045 -0.6582
N4 N -0.6288(3) 0.9374(3) -0.6649(3)
H5 H -0.5859 0.8973 -0.7138
O3 O 0.0674(3) 0.8574(3) -0.0128(3)
C4 C 0.0984(4) 0.0852(4) -0.2755(3)
H6 H 0.1626 0.0183 -0.2513
C5 C -0.4066(4) 0.5836(4) -0.4190(3)
H7 H -0.4096 0.5262 -0.3508
O4 O -0.6613(3) 0.9323(3) -0.4794(2)
C6 C -0.0881(4) 0.2802(4) -0.3493(3)
O5 O 0.1145(3) 0.3800(2) -0.0585(2)
C7 C -0.1993(4) 0.4544(4) -0.4844(4)
O6 O 0.3114(3) 0.2913(2) -0.0996(2)
C8 C -0.8825(4) 1.2448(4) -0.8079(3)
H8 H -0.9400 1.3129 -0.8416
C9 C 0.4873(4) 0.6800(4) -0.1439(4)
H9 H 0.5771 0.6938 -0.1692
C10 C -0.6035(4) 0.8884(4) -0.5575(4)
C11 C -0.3037(4) 0.6513(4) -0.6009(3)
H10 H -0.2381 0.6390 -0.6561
C12 C -0.5033(4) 0.6876(4) -0.4394(3)
H11 H -0.5707 0.6988 -0.3852
C13 C -0.0337(4) 0.2691(4) -0.2465(3)
H12 H -0.0621 0.3317 -0.2014
C14 C -0.3990(4) 0.7560(4) -0.6200(3)
H13 H -0.3953 0.8147 -0.6876
C15 C -0.7168(4) 1.0460(3) -0.7066(3)
C16 C -0.7717(4) 1.1410(4) -0.6457(3)
H14 H -0.7516 1.1377 -0.5720
C17 C -0.3060(4) 0.5641(4) -0.4986(3)
C18 C 0.1863(4) 0.8806(3) -0.0450(3)
C19 C 0.4073(4) 0.7867(4) -0.1171(3)
H15 H 0.4430 0.8728 -0.1255
C20 C 0.0493(4) 0.0901(4) -0.3785(3)
H16 H 0.0799 0.0268 -0.4223
C21 C -0.4993(4) 0.7746(4) -0.5405(3)
C22 C 0.2385(4) 0.3929(3) -0.0840(3)
C23 C 0.2206(4) 0.6371(3) -0.0671(3)
H17 H 0.1314 0.6225 -0.0405
C24 C 0.2997(4) 0.5309(3) -0.0961(3)
C25 C 0.2740(4) 0.7660(3) -0.0778(3)
C26 C 0.4339(4) 0.5532(4) -0.1332(3)
H18 H 0.4881 0.4815 -0.1510
Co1_2 Co -0.87406(5) 1.16440(4) -1.04120(4)
Co1_3 Co 0.12594(5) 1.16440(4) -0.04120(4)
Co1A Co -0.12594(5) 0.83560(4) 0.04120(4)
O1_2 O 0.2397(3) -0.0052(2) -0.0544(2)
N3_2 N 0.1721(3) 0.1551(3) 0.1313(3)
O3A O -0.0674(3) 0.1426(3) 0.0128(3)
O7 O -0.5761(4) 0.7637(5) 0.1618(3)
H19 H -0.5888 0.7652 0.2308
H20 H -0.4981 0.7283 0.1514
loop_
_geom_bond_atom_site_label_1
_geom_bond_atom_site_label_2
_geom_bond_site_symmetry_1
_geom_bond_site_symmetry_2
Co1 N2 1_555 1_555
N1 H1 1_555 1_555
C1 H2 1_555 1_555
O1 C18 1_555 1_555
N2 C4 1_555 1_555
O2 C7 1_555 1_555
C2 H3 1_555 1_555
N3 C2 1_555 1_555
C3 H4 1_555 1_555
N4 H5 1_555 1_555
O3 C18 1_555 1_555
C4 H6 1_555 1_555
C5 H7 1_555 1_555
O4 C10 1_555 1_555
C6 N1 1_555 1_555
O5 Co1 1_555 1_555
C7 N1 1_555 1_555
O6 Co1 1_555 1_555
C8 N3 1_555 1_555
H8 C8 1_555 1_555
C9 H9 1_555 1_555
C10 N4 1_555 1_555
C11 H10 1_555 1_555
C12 C5 1_555 1_555
H11 C12 1_555 1_555
C13 N2 1_555 1_555
H12 C13 1_555 1_555
C14 C11 1_555 1_555
H13 C14 1_555 1_555
C15 C2 1_555 1_555
C16 C3 1_555 1_555
H14 C16 1_555 1_555
C17 C5 1_555 1_555
C18 C25 1_555 1_555
C19 C9 1_555 1_555
H15 C19 1_555 1_555
C20 C1 1_555 1_555
H16 C20 1_555 1_555
C21 C10 1_555 1_555
C22 O5 1_555 1_555
C23 H17 1_555 1_555
C24 C22 1_555 1_555
C25 C19 1_555 1_555
C26 C9 1_555 1_555
H18 C26 1_555 1_555
O7 H19 1_555 1_555
H20 O7 1_555 1_555
Co1_2 N3 1_555 1_555
Co1_3 O1 1_555 1_555
Co1A O3 1_555 1_555
O1_2 Co1 1_555 1_555
N3_2 Co1 1_555 1_555
O3A Co1 1_555 1_555
C1 C6 1_555 1_555
C3 C8 1_555 1_555
N4 C15 1_555 1_555
C4 C20 1_555 1_555
C6 C13 1_555 1_555
C7 C17 1_555 1_555
O6 C22 1_555 1_555
C11 C17 1_555 1_555
C12 C21 1_555 1_555
C14 C21 1_555 1_555
C15 C16 1_555 1_555
C23 C24 1_555 1_555
C23 C25 1_555 1_555
C24 C26 1_555 1_555

#END
