
#######################################################################
#
#                 Cambridge Crystallographic Data Centre
#                                CCDC 
#
#######################################################################
#
# If this CIF has been generated from an entry in the Cambridge 
# Structural Database, then it will include bibliographic, chemical, 
# crystal, experimental, refinement or atomic coordinate data resulting 
# from the CCDC's data processing and validation procedures.
#
#######################################################################

data_POTCIM
_symmetry_cell_setting           monoclinic
_symmetry_space_group_name_H-M   'P 21/n'
_symmetry_Int_Tables_number      14
_space_group_name_Hall           '-P 2yn'
loop_
_symmetry_equiv_pos_site_id
_symmetry_equiv_pos_as_xyz
1 x,y,z
2 1/2-x,1/2+y,1/2-z
3 -x,-y,-z
4 1/2+x,1/2-y,1/2+z
_cell_length_a                   12.4808(9)
_cell_length_b                   7.3361(5)
_cell_length_c                   29.114(2)
_cell_angle_alpha                90
_cell_angle_beta                 92.4340(10)
_cell_angle_gamma                90
_cell_volume                     2663.28
loop_
_atom_site_label
_atom_site_type_symbol
_atom_site_fract_x
_atom_site_fract_y
_atom_site_fract_z
Ni1 Ni 0.54968(2) 0.19845(4) 0.292075(10)
N1 N 0.44534(17) 0.2319(3) 0.34630(7)
O1 O 0.68116(14) 0.2354(3) 0.33930(6)
O2 O 0.53603(15) 0.4709(3) 0.27991(6)
H1 H 0.5183 0.5625 0.2634
H2 H 0.5720 0.5099 0.3033
C1 C 0.3752(2) 0.1085(4) 0.35988(9)
H3 H 0.3642 0.0039 0.3422
O3 O 0.70750(15) 0.5377(3) 0.33299(7)
N2 N 0.43729(19) 0.1628(3) 0.23521(8)
O4 O 0.67022(15) 0.1703(3) 0.24624(6)
H4 H 0.6763 0.1813 0.2174
H5 H 0.7324 0.1506 0.2582
C2 C 0.3184(2) 0.1298(4) 0.39900(11)
H6 H 0.2696 0.0412 0.4074
N3 N 0.42541(19) 0.5677(3) 0.43978(8)
H7 H 0.4020 0.5618 0.4671
O5 O 0.66232(19) 0.4318(4) 0.42963(8)
O6 O 0.55275(18) -0.0794(3) 0.30359(7)
H8 H 0.6124 -0.1353 0.3059
H9 H 0.5101 -0.1319 0.3213
C3 C 0.3343(2) 0.2830(4) 0.42566(10)
H10 H 0.2971 0.2989 0.4524
N4 N 0.4408(2) 0.3074(3) 0.11535(8)
H11 H 0.5029 0.3578 0.1186
C4 C 0.4067(2) 0.4132(4) 0.41195(9)
O7 O 0.7582(2) 0.5808(6) 0.47694(11)
O8 O 0.86754(15) 0.3035(3) 0.27796(6)
N5 N 0.9366(2) 0.2417(4) 0.30708(9)
C5 C 0.4605(2) 0.3831(4) 0.37195(9)
H12 H 0.5088 0.4705 0.3625
C6 C 0.4759(2) 0.7251(4) 0.42890(9)
O9 O 1.01113(19) 0.1363(3) 0.29859(8)
O10 O 0.5119(2) 0.7521(3) 0.39130(7)
C7 C 0.4872(2) 0.8644(4) 0.46636(9)
O11 O 0.30631(17) 0.2404(3) 0.06329(7)
C8 C 0.4189(3) 0.8735(4) 0.50280(10)
H13 H 0.3637 0.7891 0.5048
C9 C 0.4324(3) 1.0075(4) 0.53614(10)
H14 H 0.3867 1.0110 0.5605
C10 C 0.3383(3) 0.0966(5) 0.23724(11)
H15 H 0.3172 0.0485 0.2650
C11 C 0.2658(3) 0.0956(6) 0.20046(12)
H16 H 0.1971 0.0497 0.2037
C12 C 0.2953(3) 0.1633(5) 0.15842(11)
H17 H 0.2473 0.1638 0.1331
C13 C 0.3987(2) 0.2302(4) 0.15523(9)
C14 C 0.4654(2) 0.2284(4) 0.19454(9)
H18 H 0.5342 0.2758 0.1925
C15 C 0.3938(2) 0.3103(4) 0.07253(9)
C16 C 0.4523(2) 0.4090(4) 0.03603(9)
C17 C 0.5626(2) 0.4297(4) 0.03641(9)
H19 H 0.6051 0.3830 0.0606
C18 C 0.3905(2) 0.4799(4) -0.00067(10)
H20 H 0.3163 0.4663 -0.0012
C19 C 0.7327(2) 0.3811(4) 0.34661(8)
C20 C 0.8371(2) 0.3679(3) 0.37516(8)
C21 C 0.8437(2) 0.4253(4) 0.42065(9)
C22 C 0.7480(2) 0.4852(4) 0.44353(8)
C23 C 0.9379(2) 0.4257(4) 0.44722(10)
H21 H 0.9387 0.4659 0.4775
C24 C 1.0303(2) 0.3661(4) 0.42825(11)
H22 H 1.0948 0.3671 0.4455
C25 C 1.0268(2) 0.3049(4) 0.38350(10)
H23 H 1.0893 0.2616 0.3710
C26 C 0.9316(2) 0.3064(3) 0.35646(9)
N1B N 0.55466(17) 1.7681(3) 0.65370(7)
C1B C 0.6248(2) 1.8915(4) 0.64012(9)
H3B H 0.6358 1.9961 0.6578
C2B C 0.6816(2) 1.8702(4) 0.60100(11)
H6B H 0.7304 1.9588 0.5926
N3B N 0.57459(19) 1.4323(3) 0.56022(8)
H7B H 0.5980 1.4382 0.5329
C3B C 0.6657(2) 1.7170(4) 0.57434(10)
H10B H 0.7029 1.7011 0.5476
C4B C 0.5933(2) 1.5868(4) 0.58805(9)
C5B C 0.5395(2) 1.6169(4) 0.62805(9)
H12B H 0.4912 1.5295 0.6375
C6B C 0.5241(2) 1.2749(4) 0.57110(9)
O10B O 0.4881(2) 1.2479(3) 0.60870(7)
C7B C 0.5128(2) 1.1356(4) 0.53364(9)
C8B C 0.5811(3) 1.1265(4) 0.49720(10)
H13B H 0.6363 1.2109 0.4952
C9B C 0.5676(3) 0.9925(4) 0.46386(10)
H14B H 0.6133 0.9890 0.4395
N2B N 0.56271(19) 0.8372(3) -0.23521(8)
N4B N 0.5592(2) 0.6926(3) -0.11535(8)
H11B H 0.4971 0.6422 -0.1186
O11B O 0.69369(17) 0.7596(3) -0.06329(7)
C10B C 0.6617(3) 0.9034(5) -0.23724(11)
H15B H 0.6828 0.9515 -0.2650
C11B C 0.7342(3) 0.9044(6) -0.20046(12)
H16B H 0.8029 0.9503 -0.2037
C12B C 0.7047(3) 0.8367(5) -0.15842(11)
H17B H 0.7527 0.8362 -0.1331
C13B C 0.6013(2) 0.7698(4) -0.15523(9)
C14B C 0.5346(2) 0.7716(4) -0.19454(9)
H18B H 0.4658 0.7242 -0.1925
C15B C 0.6062(2) 0.6897(4) -0.07253(9)
C16B C 0.5477(2) 0.5910(4) -0.03603(9)
C17B C 0.4374(2) 0.5703(4) -0.03641(9)
H19B H 0.3949 0.6170 -0.0606
C18B C 0.6095(2) 0.5201(4) 0.00067(10)
H20B H 0.6837 0.5337 0.0012
Ni1B Ni 0.45032(2) 0.80155(4) -0.292075(10)
O1B O 0.31884(14) 0.7646(3) -0.33930(6)
O2B O 0.46397(15) 0.5291(3) -0.27991(6)
H1B H 0.4817 0.4375 -0.2634
H2B H 0.4280 0.4901 -0.3033
O3B O 0.29250(15) 0.4623(3) -0.33299(7)
O4B O 0.32978(15) 0.8297(3) -0.24624(6)
H4B H 0.3237 0.8187 -0.2174
H5B H 0.2676 0.8494 -0.2582
O5B O 0.33768(19) 0.5682(4) -0.42963(8)
O6B O 0.44725(18) 1.0794(3) -0.30359(7)
H8B H 0.3876 1.1353 -0.3059
H9B H 0.4899 1.1319 -0.3213
O7B O 0.2418(2) 0.4192(6) -0.47694(11)
O8B O 0.13246(15) 0.6965(3) -0.27796(6)
N5B N 0.0634(2) 0.7583(4) -0.30708(9)
O9B O -0.01113(19) 0.8637(3) -0.29859(8)
C19B C 0.2673(2) 0.6189(4) -0.34661(8)
C20B C 0.1629(2) 0.6321(3) -0.37516(8)
C21B C 0.1563(2) 0.5747(4) -0.42065(9)
C22B C 0.2520(2) 0.5148(4) -0.44353(8)
C23B C 0.0621(2) 0.5743(4) -0.44722(10)
H21B H 0.0613 0.5341 -0.4775
C24B C -0.0303(2) 0.6339(4) -0.42825(11)
H22B H -0.0948 0.6329 -0.4455
C25B C -0.0268(2) 0.6951(4) -0.38350(10)
H23B H -0.0893 0.7384 -0.3710
C26B C 0.0684(2) 0.6936(3) -0.35646(9)
Ni1B_2 Ni 0.45032(2) 1.80155(4) 0.707925(10)
N1B_2 N 0.55466(17) 0.7681(3) -0.34630(7)
O12 O 0.8093(2) -0.1205(4) 0.36312(9)
H24 H 0.7702 -0.2128 0.3510
H25 H 0.7611 -0.0214 0.3560
loop_
_geom_bond_atom_site_label_1
_geom_bond_atom_site_label_2
_geom_bond_site_symmetry_1
_geom_bond_site_symmetry_2
Ni1 N1 1_555 1_555
N1 C1 1_555 1_555
O1 Ni1 1_555 1_555
O2 Ni1 1_555 1_555
H1 O2 1_555 1_555
H2 O2 1_555 1_555
C1 H3 1_555 1_555
O3 C19 1_555 1_555
N2 Ni1 1_555 1_555
O4 Ni1 1_555 1_555
H4 O4 1_555 1_555
H5 O4 1_555 1_555
C2 C1 1_555 1_555
H6 C2 1_555 1_555
N3 H7 1_555 1_555
O5 C22 1_555 1_555
O6 Ni1 1_555 1_555
H8 O6 1_555 1_555
H9 O6 1_555 1_555
C3 C2 1_555 1_555
H10 C3 1_555 1_555
N4 H11 1_555 1_555
C4 N3 1_555 1_555
O7 C22 1_555 1_555
O8 N5 1_555 1_555
N5 O9 1_555 1_555
C5 N1 1_555 1_555
H12 C5 1_555 1_555
C6 N3 1_555 1_555
O10 C6 1_555 1_555
C7 C6 1_555 1_555
O11 C15 1_555 1_555
C8 C7 1_555 1_555
H13 C8 1_555 1_555
C9 C8 1_555 1_555
H14 C9 1_555 1_555
C10 N2 1_555 1_555
H15 C10 1_555 1_555
C11 C10 1_555 1_555
H16 C11 1_555 1_555
C12 C11 1_555 1_555
H17 C12 1_555 1_555
C13 N4 1_555 1_555
C14 N2 1_555 1_555
H18 C14 1_555 1_555
C15 N4 1_555 1_555
C16 C15 1_555 1_555
C17 C16 1_555 1_555
H19 C17 1_555 1_555
C18 C16 1_555 1_555
H20 C18 1_555 1_555
C19 O1 1_555 1_555
C20 C19 1_555 1_555
C21 C20 1_555 1_555
C22 C21 1_555 1_555
C23 C21 1_555 1_555
H21 C23 1_555 1_555
C24 C23 1_555 1_555
H22 C24 1_555 1_555
C25 C24 1_555 1_555
H23 C25 1_555 1_555
C26 N5 1_555 1_555
O12 H24 1_555 1_555
H25 O12 1_555 1_555
N1B C1B 1_555 1_555
C1B H3B 1_555 1_555
C2B C1B 1_555 1_555
H6B C2B 1_555 1_555
N3B H7B 1_555 1_555
C3B C2B 1_555 1_555
H10B C3B 1_555 1_555
C4B N3B 1_555 1_555
C5B N1B 1_555 1_555
H12B C5B 1_555 1_555
C6B N3B 1_555 1_555
O10B C6B 1_555 1_555
C7B C9 1_555 1_555
C8B C7B 1_555 1_555
H13B C8B 1_555 1_555
C9B C7 1_555 1_555
H14B C9B 1_555 1_555
N2B C10B 1_555 1_555
N4B H11B 1_555 1_555
O11B C15B 1_555 1_555
C10B H15B 1_555 1_555
C11B C10B 1_555 1_555
H16B C11B 1_555 1_555
C12B C11B 1_555 1_555
H17B C12B 1_555 1_555
C13B N4B 1_555 1_555
C14B N2B 1_555 1_555
H18B C14B 1_555 1_555
C15B N4B 1_555 1_555
C16B C15B 1_555 1_555
C17B C18 1_555 1_555
H19B C17B 1_555 1_555
C18B C17 1_555 1_555
H20B C18B 1_555 1_555
Ni1B N2B 1_555 1_555
O1B Ni1B 1_555 1_555
O2B Ni1B 1_555 1_555
H1B O2B 1_555 1_555
H2B O2B 1_555 1_555
O3B C19B 1_555 1_555
O4B Ni1B 1_555 1_555
H4B O4B 1_555 1_555
H5B O4B 1_555 1_555
O5B C22B 1_555 1_555
O6B Ni1B 1_555 1_555
H8B O6B 1_555 1_555
H9B O6B 1_555 1_555
O7B C22B 1_555 1_555
O8B N5B 1_555 1_555
N5B O9B 1_555 1_555
C19B O1B 1_555 1_555
C20B C19B 1_555 1_555
C21B C20B 1_555 1_555
C22B C21B 1_555 1_555
C23B C21B 1_555 1_555
H21B C23B 1_555 1_555
C24B C23B 1_555 1_555
H22B C24B 1_555 1_555
C25B C24B 1_555 1_555
H23B C25B 1_555 1_555
C26B N5B 1_555 1_555
Ni1B_2 N1B 1_555 1_555
N1B_2 Ni1B 1_555 1_555
C3 C4 1_555 1_555
C4 C5 1_555 1_555
C12 C13 1_555 1_555
C13 C14 1_555 1_555
C20 C26 1_555 1_555
C25 C26 1_555 1_555
C3B C4B 1_555 1_555
C4B C5B 1_555 1_555
C6B C7B 1_555 1_555
C8B C9B 1_555 1_555
C12B C13B 1_555 1_555
C13B C14B 1_555 1_555
C16B C17B 1_555 1_555
C16B C18B 1_555 1_555
C20B C26B 1_555 1_555
C25B C26B 1_555 1_555

#END
