
#######################################################################
#
#                 Cambridge Crystallographic Data Centre
#                                CCDC 
#
#######################################################################
#
# If this CIF has been generated from an entry in the Cambridge 
# Structural Database, then it will include bibliographic, chemical, 
# crystal, experimental, refinement or atomic coordinate data resulting 
# from the CCDC's data processing and validation procedures.
#
#######################################################################

data_POTGUB
_symmetry_cell_setting           monoclinic
_symmetry_space_group_name_H-M   'P 21'
_symmetry_Int_Tables_number      4
_space_group_name_Hall           'P 2yb'
loop_
_symmetry_equiv_pos_site_id
_symmetry_equiv_pos_as_xyz
1 x,y,z
2 -x,1/2+y,-z
_cell_length_a                   6.7920(18)
_cell_length_b                   8.661(2)
_cell_length_c                   14.372(4)
_cell_angle_alpha                90
_cell_angle_beta                 93.098(5)
_cell_angle_gamma                90
_cell_volume                     844.205
loop_
_atom_site_label
_atom_site_type_symbol
_atom_site_fract_x
_atom_site_fract_y
_atom_site_fract_z
Ho1 Ho -0.24768(4) -0.23365(7) -0.03089(2)
P1 P -0.7364(3) -0.1565(2) 0.05754(14)
O1 O -0.5706(6) -0.2461(13) 0.0145(3)
O2 O -0.9364(5) -0.2247(14) 0.0341(3)
O3 O -0.7218(8) 0.0155(6) 0.0390(4)
O4 O -0.0587(12) -0.0814(9) -0.1448(6)
O5 O -0.0283(12) -0.3314(9) -0.1542(6)
O6 O 0.1186(10) -0.1810(8) -0.2496(6)
O7 O -0.4507(9) -0.0384(6) -0.1337(4)
O8 O -0.4217(10) -0.2682(7) -0.1829(5)
O9 O -0.4955(10) -0.0846(8) -0.2811(5)
O10 O -0.2650(8) -0.0075(6) 0.0583(4)
H1 H -0.2742 0.0609 0.0215
H2 H -0.1490 0.0109 0.0817
O11 O -0.2423(8) -0.3240(6) 0.1339(4)
H3 H -0.1305 -0.3865 0.1411
H4 H -0.3434 -0.3931 0.1419
N1 N -0.5114(11) -0.1049(8) 0.2179(5)
H5 H -0.5267 -0.0018 0.2147
H6 H -0.4167 -0.1307 0.1793
N2 N 0.0147(12) -0.1963(15) -0.1838(6)
N3 N -0.4597(12) -0.1314(9) -0.2029(6)
C1 C -0.6989(11) -0.1786(9) 0.1831(5)
H7 H -0.8083 -0.1318 0.2134
H8 H -0.6959 -0.2875 0.1987
C2 C -0.4405(13) -0.1463(10) 0.3158(6)
H9 H -0.4251 -0.2587 0.3195
C3 C -0.2413(13) -0.0734(13) 0.3342(8)
H10 H -0.2538 0.0369 0.3311
H11 H -0.1537 -0.1078 0.2882
H12 H -0.1891 -0.1027 0.3951
C4 C -0.5868(15) -0.0977(12) 0.3851(7)
C5 C -0.6504(15) 0.0515(13) 0.3901(7)
H13 H -0.6107 0.1232 0.3467
C6 C -0.7713(15) 0.0971(15) 0.4577(8)
H14 H -0.8106 0.1997 0.4613
C7 C -0.8339(17) -0.0075(13) 0.5197(7)
H15 H -0.9162 0.0232 0.5660
C8 C -0.7754(15) -0.1600(14) 0.5141(8)
H16 H -0.8187 -0.2329 0.5559
C9 C -0.6528(13) -0.2017(14) 0.4460(7)
H17 H -0.6139 -0.3042 0.4416
Ho1_2 Ho -1.24768(4) -0.23365(7) -0.03089(2)
Ho1A Ho -0.75232(4) 0.26635(7) 0.03089(2)
O2_2 O 0.0636(5) -0.2247(14) 0.0341(3)
O3A O -0.2782(8) -0.4845(6) -0.0390(4)
loop_
_geom_bond_atom_site_label_1
_geom_bond_atom_site_label_2
_geom_bond_site_symmetry_1
_geom_bond_site_symmetry_2
Ho1 O1 1_555 1_555
P1 O1 1_555 1_555
O2 P1 1_555 1_555
O3 P1 1_555 1_555
O4 Ho1 1_555 1_555
O5 Ho1 1_555 1_555
O6 N2 1_555 1_555
O7 Ho1 1_555 1_555
O8 Ho1 1_555 1_555
O9 N3 1_555 1_555
O10 Ho1 1_555 1_555
H1 O10 1_555 1_555
H2 O10 1_555 1_555
O11 Ho1 1_555 1_555
H3 O11 1_555 1_555
H4 O11 1_555 1_555
N1 H5 1_555 1_555
H6 N1 1_555 1_555
N2 O4 1_555 1_555
N3 O7 1_555 1_555
C1 P1 1_555 1_555
H7 C1 1_555 1_555
H8 C1 1_555 1_555
C2 N1 1_555 1_555
H9 C2 1_555 1_555
C3 C2 1_555 1_555
H10 C3 1_555 1_555
H11 C3 1_555 1_555
H12 C3 1_555 1_555
C4 C2 1_555 1_555
C5 C4 1_555 1_555
H13 C5 1_555 1_555
C6 C5 1_555 1_555
H14 C6 1_555 1_555
C7 C6 1_555 1_555
H15 C7 1_555 1_555
C8 C7 1_555 1_555
H16 C8 1_555 1_555
C9 C4 1_555 1_555
H17 C9 1_555 1_555
Ho1_2 O2 1_555 1_555
Ho1A O3 1_555 1_555
O2_2 Ho1 1_555 1_555
O3A Ho1 1_555 1_555
O5 N2 1_555 1_555
O8 N3 1_555 1_555
N1 C1 1_555 1_555
C8 C9 1_555 1_555

#END
