
#######################################################################
#
#                 Cambridge Crystallographic Data Centre
#                                CCDC 
#
#######################################################################
#
# If this CIF has been generated from an entry in the Cambridge 
# Structural Database, then it will include bibliographic, chemical, 
# crystal, experimental, refinement or atomic coordinate data resulting 
# from the CCDC's data processing and validation procedures.
#
#######################################################################

data_POTHAI
_symmetry_cell_setting           monoclinic
_symmetry_space_group_name_H-M   'P 21'
_symmetry_Int_Tables_number      4
_space_group_name_Hall           'P 2yb'
loop_
_symmetry_equiv_pos_site_id
_symmetry_equiv_pos_as_xyz
1 x,y,z
2 -x,1/2+y,-z
_cell_length_a                   6.8325(16)
_cell_length_b                   8.686(2)
_cell_length_c                   14.368(3)
_cell_angle_alpha                90
_cell_angle_beta                 93.169(4)
_cell_angle_gamma                90
_cell_volume                     851.395
loop_
_atom_site_label
_atom_site_type_symbol
_atom_site_fract_x
_atom_site_fract_y
_atom_site_fract_z
Tb1 Tb 0.25235(4) -0.18897(7) -0.03092(2)
P1 P -0.2358(3) -0.1124(3) 0.05834(16)
O1 O -0.0725(8) -0.2042(15) 0.0152(4)
O2 O -0.4350(7) -0.1826(18) 0.0352(4)
O3 O -0.2200(10) 0.0585(8) 0.0402(5)
O4 O 0.4448(14) -0.0379(11) -0.1458(7)
O5 O 0.4732(14) -0.2860(12) -0.1567(6)
O6 O 0.6198(11) -0.1354(9) -0.2505(5)
O7 O 0.0494(11) 0.0049(8) -0.1348(5)
O8 O 0.0761(12) -0.2231(9) -0.1857(5)
O9 O 0.0079(11) -0.0396(8) -0.2825(5)
O10 O 0.2343(9) 0.0395(7) 0.0605(5)
H1 H 0.3489 0.0672 0.0796
H2 H 0.1031 0.0567 0.0631
O11 O 0.2564(10) -0.2829(8) 0.1359(5)
H3 H 0.1802 -0.3606 0.1615
H4 H 0.3890 -0.3050 0.1604
N1 N -0.0115(12) -0.0590(10) 0.2179(6)
H5 H -0.0267 0.0438 0.2148
H6 H 0.0822 -0.0848 0.1791
N2 N 0.5167(14) -0.1524(14) -0.1872(7)
N3 N 0.0400(14) -0.0848(11) -0.2045(7)
C1 C -0.1997(12) -0.1338(12) 0.1838(6)
H7 H -0.3083 -0.0869 0.2140
H8 H -0.1962 -0.2423 0.1999
C2 C 0.0593(15) -0.1018(13) 0.3159(7)
H9 H 0.0741 -0.2139 0.3192
C3 C 0.2578(18) -0.0297(19) 0.3348(9)
H10 H 0.2483 0.0796 0.3256
H11 H 0.3484 -0.0720 0.2929
H12 H 0.3033 -0.0506 0.3979
C4 C -0.0843(16) -0.0535(14) 0.3856(7)
C5 C -0.146(2) 0.0968(16) 0.3911(9)
H13 H -0.1007 0.1703 0.3504
C6 C -0.275(2) 0.1383(15) 0.4580(9)
H14 H -0.3236 0.2384 0.4590
C7 C -0.332(2) 0.0358(15) 0.5212(9)
H15 H -0.4087 0.0677 0.5690
C8 C -0.2784(19) -0.1104(16) 0.5158(9)
H16 H -0.3248 -0.1812 0.5578
C9 C -0.1519(18) -0.1608(15) 0.4471(8)
H17 H -0.1152 -0.2637 0.4435
Tb1_2 Tb -0.74765(4) -0.18897(7) -0.03092(2)
Tb1A Tb -0.25235(4) 0.31103(7) 0.03092(2)
O2_2 O 0.5650(7) -0.1826(18) 0.0352(4)
O3A O 0.2200(10) -0.4415(8) -0.0402(5)
loop_
_geom_bond_atom_site_label_1
_geom_bond_atom_site_label_2
_geom_bond_site_symmetry_1
_geom_bond_site_symmetry_2
Tb1 O1 1_555 1_555
P1 O1 1_555 1_555
O2 P1 1_555 1_555
O3 P1 1_555 1_555
O4 Tb1 1_555 1_555
O5 Tb1 1_555 1_555
O6 N2 1_555 1_555
O7 Tb1 1_555 1_555
O8 Tb1 1_555 1_555
O9 N3 1_555 1_555
O10 Tb1 1_555 1_555
H1 O10 1_555 1_555
H2 O10 1_555 1_555
O11 Tb1 1_555 1_555
H3 O11 1_555 1_555
H4 O11 1_555 1_555
N1 H5 1_555 1_555
H6 N1 1_555 1_555
N2 O4 1_555 1_555
N3 O7 1_555 1_555
C1 P1 1_555 1_555
H7 C1 1_555 1_555
H8 C1 1_555 1_555
C2 N1 1_555 1_555
H9 C2 1_555 1_555
C3 C2 1_555 1_555
H10 C3 1_555 1_555
H11 C3 1_555 1_555
H12 C3 1_555 1_555
C4 C2 1_555 1_555
C5 C4 1_555 1_555
H13 C5 1_555 1_555
C6 C5 1_555 1_555
H14 C6 1_555 1_555
C7 C6 1_555 1_555
H15 C7 1_555 1_555
C8 C7 1_555 1_555
H16 C8 1_555 1_555
C9 C4 1_555 1_555
H17 C9 1_555 1_555
Tb1_2 O2 1_555 1_555
Tb1A O3 1_555 1_555
O2_2 Tb1 1_555 1_555
O3A Tb1 1_555 1_555
O5 N2 1_555 1_555
O8 N3 1_555 1_555
N1 C1 1_555 1_555
C8 C9 1_555 1_555

#END
