
#######################################################################
#
#                 Cambridge Crystallographic Data Centre
#                                CCDC 
#
#######################################################################
#
# If this CIF has been generated from an entry in the Cambridge 
# Structural Database, then it will include bibliographic, chemical, 
# crystal, experimental, refinement or atomic coordinate data resulting 
# from the CCDC's data processing and validation procedures.
#
#######################################################################

data_POTHEN
_symmetry_cell_setting           monoclinic
_symmetry_space_group_name_H-M   'P 21'
_symmetry_Int_Tables_number      4
_space_group_name_Hall           'P 2yb'
loop_
_symmetry_equiv_pos_site_id
_symmetry_equiv_pos_as_xyz
1 x,y,z
2 -x,1/2+y,-z
_cell_length_a                   9.0872(2)
_cell_length_b                   16.1645(4)
_cell_length_c                   11.5066(3)
_cell_angle_alpha                90
_cell_angle_beta                 95.5240(10)
_cell_angle_gamma                90
_cell_volume                     1682.36
loop_
_atom_site_label
_atom_site_type_symbol
_atom_site_fract_x
_atom_site_fract_y
_atom_site_fract_z
Ag1 Ag -0.578151(16) 0.371777(10) 1.934881(13)
B1 B 0.1966(2) 0.22730(14) 1.4025(2)
N1 N -0.4056(3) 0.33978(15) 1.8036(2)
N2 N -0.0744(3) 0.53987(17) 0.9211(2)
N3 N 0.7099(2) 0.13952(15) 0.9224(2)
N4 N -0.7100(2) 0.47394(13) 1.8257(2)
N5 N -0.7340(2) 0.26537(14) 1.9084(2)
O1 O 0.17083(15) 0.28886(8) 1.49154(12)
O2 O 0.09320(14) 0.23080(8) 1.29734(12)
O3 O 0.17209(15) 0.14175(8) 1.44053(12)
O4 O 0.34840(14) 0.24628(9) 1.38108(12)
C1 C 0.0473(2) 0.29636(13) 1.54555(18)
C2 C 0.0494(3) 0.35767(14) 1.63033(19)
H1 H 0.1344 0.3917 1.6449
C3 C -0.0695(2) 0.36982(19) 1.69321(18)
H2 H -0.0666 0.4122 1.7506
C4 C -0.1937(3) 0.32045(15) 1.6733(2)
C5 C -0.1969(3) 0.25955(19) 1.5877(3)
H3 H -0.2822 0.2257 1.5728
C6 C -0.0781(3) 0.24796(17) 1.5249(2)
H4 H -0.0818 0.2063 1.4664
C7 C -0.3134(3) 0.33050(16) 1.7444(2)
C8 C 0.0735(2) 0.29551(12) 1.22420(18)
C9 C 0.1306(2) 0.37371(19) 1.24626(17)
H5 H 0.1924 0.3840 1.3161
C10 C 0.0983(3) 0.43743(15) 1.1671(2)
H6 H 0.1397 0.4908 1.1822
C11 C 0.0055(3) 0.42341(15) 1.0655(2)
C12 C -0.0491(3) 0.34369(15) 1.0422(2)
H7 H -0.1107 0.3331 0.9724
C13 C -0.0141(2) 0.28067(14) 1.11975(18)
H8 H -0.0497 0.2264 1.1023
C14 C -0.0367(3) 0.48811(17) 0.9852(2)
C15 C 0.2367(2) 0.10679(12) 1.53811(17)
C16 C 0.1793(2) 0.03088(13) 1.56989(19)
H9 H 0.0976 0.0075 1.5234
C17 C 0.2393(2) -0.01051(14) 1.6674(2)
H10 H 0.1995 -0.0622 1.6882
C18 C 0.3590(2) 0.02382(13) 1.73588(18)
C19 C 0.4171(2) 0.09978(14) 1.70497(19)
H11 H 0.4993 0.1229 1.7511
C20 C 0.3555(2) 0.14119(13) 1.60787(19)
H12 H 0.3939 0.1935 1.5881
C21 C 0.4216(3) -0.01943(16) 1.8372(2)
N6 N 0.4715(3) -0.05584(13) 1.91696(18)
C22 C 0.4139(2) 0.22069(12) 1.28681(18)
C23 C 0.5340(2) 0.26695(14) 1.2582(2)
H13 H 0.5664 0.3131 1.3050
C24 C 0.6062(3) 0.24658(15) 1.1630(3)
H14 H 0.6863 0.2796 1.1427
C25 C 0.5627(2) 0.17785(14) 1.0961(2)
C26 C 0.4432(2) 0.13120(14) 1.1247(2)
H15 H 0.4125 0.0842 1.0790
C27 C 0.3688(2) 0.15268(13) 1.2192(2)
H16 H 0.2865 0.1208 1.2380
C28 C 0.6433(2) 0.15575(15) 0.9986(2)
C29 C -0.7743(3) 0.52443(14) 1.7761(2)
C30 C -0.8605(3) 0.58814(16) 1.7136(3)
H17 H -0.9120 0.5647 1.6424
H18 H -0.7950 0.6328 1.6928
H19 H -0.9332 0.6102 1.7631
C31 C -0.8227(3) 0.22072(14) 1.8726(2)
C32 C -0.9371(3) 0.16375(16) 1.8271(3)
H20 H -1.0253 0.1716 1.8686
H21 H -0.9015 0.1068 1.8383
H22 H -0.9619 0.1743 1.7436
Ag1A Ag 0.578151(16) -0.128223(10) 2.065119(13)
N6A N -0.4715(3) 0.44416(13) 2.08304(18)
N7 N -0.7468(4) 0.5405(2) 1.4456(3)
C33 C -0.6571(4) 0.4965(2) 1.4840(3)
C34 C -0.5473(3) 0.4398(2) 1.5298(3)
H23 H -0.5390 0.4419 1.6153
H24 H -0.4521 0.4545 1.5020
H25 H -0.5750 0.3837 1.5036
loop_
_geom_bond_atom_site_label_1
_geom_bond_atom_site_label_2
_geom_bond_site_symmetry_1
_geom_bond_site_symmetry_2
Ag1 N1 1_555 1_555
B1 O1 1_555 1_555
N1 C7 1_555 1_555
N2 C14 1_555 1_555
N3 C28 1_555 1_555
N4 Ag1 1_555 1_555
N5 Ag1 1_555 1_555
O1 C1 1_555 1_555
O2 B1 1_555 1_555
O3 B1 1_555 1_555
O4 B1 1_555 1_555
C1 C2 1_555 1_555
C2 H1 1_555 1_555
C3 C2 1_555 1_555
H2 C3 1_555 1_555
C4 C3 1_555 1_555
C5 C4 1_555 1_555
H3 C5 1_555 1_555
C6 C1 1_555 1_555
H4 C6 1_555 1_555
C7 C4 1_555 1_555
C8 O2 1_555 1_555
C9 C8 1_555 1_555
H5 C9 1_555 1_555
C10 C9 1_555 1_555
H6 C10 1_555 1_555
C11 C10 1_555 1_555
C12 C11 1_555 1_555
H7 C12 1_555 1_555
C13 C8 1_555 1_555
H8 C13 1_555 1_555
C14 C11 1_555 1_555
C15 O3 1_555 1_555
C16 C15 1_555 1_555
H9 C16 1_555 1_555
C17 C16 1_555 1_555
H10 C17 1_555 1_555
C18 C17 1_555 1_555
C19 C18 1_555 1_555
H11 C19 1_555 1_555
C20 C15 1_555 1_555
H12 C20 1_555 1_555
C21 C18 1_555 1_555
N6 C21 1_555 1_555
C22 O4 1_555 1_555
C23 C22 1_555 1_555
H13 C23 1_555 1_555
C24 C23 1_555 1_555
H14 C24 1_555 1_555
C25 C24 1_555 1_555
C26 C25 1_555 1_555
H15 C26 1_555 1_555
C27 C22 1_555 1_555
H16 C27 1_555 1_555
C28 C25 1_555 1_555
C29 N4 1_555 1_555
C30 C29 1_555 1_555
H17 C30 1_555 1_555
H18 C30 1_555 1_555
H19 C30 1_555 1_555
C31 N5 1_555 1_555
C32 C31 1_555 1_555
H20 C32 1_555 1_555
H21 C32 1_555 1_555
H22 C32 1_555 1_555
N7 C33 1_555 1_555
C33 C34 1_555 1_555
C34 H23 1_555 1_555
H24 C34 1_555 1_555
H25 C34 1_555 1_555
Ag1A N6 1_555 1_555
N6A Ag1 1_555 1_555
C5 C6 1_555 1_555
C12 C13 1_555 1_555
C19 C20 1_555 1_555
C26 C27 1_555 1_555

#END
