
#######################################################################
#
#                 Cambridge Crystallographic Data Centre
#                                CCDC 
#
#######################################################################
#
# If this CIF has been generated from an entry in the Cambridge 
# Structural Database, then it will include bibliographic, chemical, 
# crystal, experimental, refinement or atomic coordinate data resulting 
# from the CCDC's data processing and validation procedures.
#
#######################################################################

data_POTWUQ
_symmetry_cell_setting           monoclinic
_symmetry_space_group_name_H-M   'C 2/c'
_symmetry_Int_Tables_number      15
_space_group_name_Hall           '-C 2yn'
loop_
_symmetry_equiv_pos_site_id
_symmetry_equiv_pos_as_xyz
1 x,y,z
2 1/2+x,1/2+y,z
3 -x,y,1/2-z
4 1/2-x,1/2+y,1/2-z
5 -x,-y,-z
6 1/2-x,1/2-y,-z
7 x,-y,1/2+z
8 1/2+x,1/2-y,1/2+z
_cell_length_a                   12.167(1)
_cell_length_b                   14.712(2)
_cell_length_c                   10.180(1)
_cell_angle_alpha                90
_cell_angle_beta                 103.48(1)
_cell_angle_gamma                90
_cell_volume                     1772.03
loop_
_atom_site_label
_atom_site_type_symbol
_atom_site_fract_x
_atom_site_fract_y
_atom_site_fract_z
Cu1 Cu 0.0000 0.5000 0.0000
O1 O 0.0000 0.46611(14) -0.2500
O2 O -0.09022(11) 0.39349(9) 0.02736(14)
O3 O -0.13751(14) 0.33452(11) -0.18049(16)
N1 N 0.14088(13) 0.42555(11) 0.05960(16)
C1 C 0.15342(19) 0.36154(14) 0.1529(2)
N2 N 0.25201(17) 0.31748(14) 0.1698(2)
C2 C 0.30904(17) 0.35318(15) 0.0804(2)
C3 C 0.4127(2) 0.3315(2) 0.0524(3)
C4 C 0.4441(2) 0.3798(2) -0.0467(4)
C5 C 0.3759(2) 0.4493(2) -0.1165(3)
C6 C 0.2738(2) 0.47144(18) -0.0880(3)
C7 C 0.23981(16) 0.42193(13) 0.0117(2)
C8 C -0.14280(15) 0.34038(12) -0.0618(2)
C9 C -0.21824(17) 0.27642(13) -0.0151(2)
H1 H -0.050(2) 0.4331(17) -0.245(3)
H2 H 0.1005(19) 0.3466(15) 0.203(2)
H3 H 0.271(2) 0.277(2) 0.218(3)
H4 H 0.448(3) 0.291(2) 0.100(3)
H5 H 0.514(3) 0.367(2) -0.072(3)
H6 H 0.396(3) 0.479(2) -0.187(4)
H7 H 0.229(2) 0.5147(18) -0.132(3)
H1B H 0.050(2) 0.4331(17) -0.255(3)
C9E C -0.28176(17) 0.22358(13) 0.0151(2)
C8E C -0.35720(15) 0.15962(12) 0.0618(2)
O2E O -0.40978(11) 0.10651(9) -0.02736(14)
O3E O -0.36249(14) 0.16548(11) 0.18049(16)
O1F O 0.0000 0.53389(14) 0.2500
H1F H -0.050(2) 0.5669(17) 0.255(3)
H1D H 0.050(2) 0.5669(17) 0.245(3)
O2D O 0.09022(11) 0.60651(9) -0.02736(14)
N1D N -0.14088(13) 0.57445(11) -0.05960(16)
C1D C -0.15342(19) 0.63846(14) -0.1529(2)
N2D N -0.25201(17) 0.68252(14) -0.1698(2)
C2D C -0.30904(17) 0.64682(15) -0.0804(2)
C3D C -0.4127(2) 0.6685(2) -0.0524(3)
C4D C -0.4441(2) 0.6202(2) 0.0467(4)
C5D C -0.3759(2) 0.5507(2) 0.1165(3)
C6D C -0.2738(2) 0.52856(18) 0.0880(3)
C7D C -0.23981(16) 0.57807(13) -0.0117(2)
H2D H -0.1005(19) 0.6534(15) -0.203(2)
H3D H -0.271(2) 0.723(2) -0.218(3)
H4D H -0.448(3) 0.709(2) -0.100(3)
H5D H -0.514(3) 0.633(2) 0.072(3)
H6D H -0.396(3) 0.521(2) 0.187(4)
H7D H -0.229(2) 0.4853(18) 0.132(3)
Cu1F Cu 0.0000 0.5000 -0.5000
Cu1A Cu -0.5000 0.0000 0.0000
loop_
_geom_bond_atom_site_label_1
_geom_bond_atom_site_label_2
_geom_bond_site_symmetry_1
_geom_bond_site_symmetry_2
Cu1 O1 1_555 1_555
O1 H1 1_555 1_555
O2 Cu1 1_555 1_555
O3 C8 1_555 1_555
N1 Cu1 1_555 1_555
C1 N1 1_555 1_555
N2 C1 1_555 1_555
C2 N2 1_555 1_555
C3 C2 1_555 1_555
C4 C3 1_555 1_555
C5 C4 1_555 1_555
C6 C5 1_555 1_555
C7 N1 1_555 1_555
C8 O2 1_555 1_555
C9 C8 1_555 1_555
H2 C1 1_555 1_555
H3 N2 1_555 1_555
H4 C3 1_555 1_555
H5 C4 1_555 1_555
H6 C5 1_555 1_555
H7 C6 1_555 1_555
H1B O1 1_555 1_555
C9E C9 1_555 1_555
C8E C9E 1_555 1_555
O2E C8E 1_555 1_555
O3E C8E 1_555 1_555
O1F Cu1 1_555 1_555
H1F O1F 1_555 1_555
H1D O1F 1_555 1_555
O2D Cu1 1_555 1_555
N1D Cu1 1_555 1_555
C1D N1D 1_555 1_555
N2D C1D 1_555 1_555
C2D N2D 1_555 1_555
C3D C2D 1_555 1_555
C4D C3D 1_555 1_555
C5D C4D 1_555 1_555
C6D C5D 1_555 1_555
C7D N1D 1_555 1_555
H2D C1D 1_555 1_555
H3D N2D 1_555 1_555
H4D C3D 1_555 1_555
H5D C4D 1_555 1_555
H6D C5D 1_555 1_555
H7D C6D 1_555 1_555
Cu1F O1 1_555 1_555
Cu1A O2E 1_555 1_555
C2 C7 1_555 1_555
C6 C7 1_555 1_555
C2D C7D 1_555 1_555
C6D C7D 1_555 1_555

#END
