
#######################################################################
#
#                 Cambridge Crystallographic Data Centre
#                                CCDC 
#
#######################################################################
#
# If this CIF has been generated from an entry in the Cambridge 
# Structural Database, then it will include bibliographic, chemical, 
# crystal, experimental, refinement or atomic coordinate data resulting 
# from the CCDC's data processing and validation procedures.
#
#######################################################################

data_POTXAX
_symmetry_cell_setting           monoclinic
_symmetry_space_group_name_H-M   'C 2/c'
_symmetry_Int_Tables_number      15
_space_group_name_Hall           '-C 2yn'
loop_
_symmetry_equiv_pos_site_id
_symmetry_equiv_pos_as_xyz
1 x,y,z
2 1/2+x,1/2+y,z
3 -x,y,1/2-z
4 1/2-x,1/2+y,1/2-z
5 -x,-y,-z
6 1/2-x,1/2-y,-z
7 x,-y,1/2+z
8 1/2+x,1/2-y,1/2+z
_cell_length_a                   12.941(2)
_cell_length_b                   13.292(2)
_cell_length_c                   10.398(2)
_cell_angle_alpha                90
_cell_angle_beta                 100.09(1)
_cell_angle_gamma                90
_cell_volume                     1760.92
loop_
_atom_site_label
_atom_site_type_symbol
_atom_site_fract_x
_atom_site_fract_y
_atom_site_fract_z
Cu1 Cu 0.0000 0.5000 0.0000
O1 O 0.0000 0.4547(2) -0.2500
O2 O -0.07246(13) 0.37887(12) 0.04052(16)
O3 O -0.14417(16) 0.32996(15) -0.16071(18)
N1 N 0.13576(15) 0.42477(15) 0.05563(19)
N2 N 0.24643(18) 0.31795(17) 0.1727(2)
C1 C 0.1504(2) 0.3601(2) 0.1528(3)
C2 C 0.2998(2) 0.35642(19) 0.0806(2)
C3 C 0.4003(2) 0.3389(2) 0.0558(3)
C4 C 0.4280(3) 0.3899(3) -0.0470(4)
C5 C 0.3590(3) 0.4566(3) -0.1233(4)
C6 C 0.2601(2) 0.4741(2) -0.0975(3)
C7 C 0.23025(19) 0.42381(18) 0.0061(2)
C8 C -0.13374(17) 0.32638(17) -0.0402(2)
C9 C -0.20004(19) 0.25624(18) 0.0222(2)
H1 H -0.047(3) 0.418(3) -0.236(4)
H2 H 0.098(2) 0.342(2) 0.211(3)
H3 H 0.270(2) 0.273(2) 0.226(3)
H4 H 0.444(2) 0.299(2) 0.106(3)
H5 H 0.498(3) 0.380(3) -0.077(4)
H6 H 0.380(3) 0.486(3) -0.195(4)
H7 H 0.213(3) 0.518(2) -0.144(3)
H8 H -0.167(2) 0.222(2) 0.100(3)
H1B H 0.047(3) 0.418(3) -0.264(4)
C9E C -0.29996(19) 0.24376(18) -0.0222(2)
C8E C -0.36626(17) 0.17362(17) 0.0402(2)
O2E O -0.42754(13) 0.12113(12) -0.04052(16)
O3E O -0.35583(16) 0.17004(15) 0.16071(18)
H8E H -0.333(2) 0.278(2) -0.100(3)
O1F O 0.0000 0.5453(2) 0.2500
H1F H -0.047(3) 0.582(3) 0.264(4)
H1D H 0.047(3) 0.582(3) 0.236(4)
O2D O 0.07246(13) 0.62113(12) -0.04052(16)
N1D N -0.13576(15) 0.57523(15) -0.05563(19)
N2D N -0.24643(18) 0.68205(17) -0.1727(2)
C1D C -0.1504(2) 0.6399(2) -0.1528(3)
C2D C -0.2998(2) 0.64358(19) -0.0806(2)
C3D C -0.4003(2) 0.6611(2) -0.0558(3)
C4D C -0.4280(3) 0.6101(3) 0.0470(4)
C5D C -0.3590(3) 0.5434(3) 0.1233(4)
C6D C -0.2601(2) 0.5259(2) 0.0975(3)
C7D C -0.23025(19) 0.57619(18) -0.0061(2)
H2D H -0.098(2) 0.658(2) -0.211(3)
H3D H -0.270(2) 0.727(2) -0.226(3)
H4D H -0.444(2) 0.701(2) -0.106(3)
H5D H -0.498(3) 0.620(3) 0.077(4)
H6D H -0.380(3) 0.514(3) 0.195(4)
H7D H -0.213(3) 0.482(2) 0.144(3)
Cu1F Cu 0.0000 0.5000 -0.5000
Cu1A Cu -0.5000 0.0000 0.0000
loop_
_geom_bond_atom_site_label_1
_geom_bond_atom_site_label_2
_geom_bond_site_symmetry_1
_geom_bond_site_symmetry_2
Cu1 O1 1_555 1_555
O1 H1 1_555 1_555
O2 Cu1 1_555 1_555
O3 C8 1_555 1_555
N1 Cu1 1_555 1_555
N2 C1 1_555 1_555
C1 N1 1_555 1_555
C2 N2 1_555 1_555
C3 C2 1_555 1_555
C4 C3 1_555 1_555
C5 C4 1_555 1_555
C6 C5 1_555 1_555
C7 N1 1_555 1_555
C8 O2 1_555 1_555
C9 C8 1_555 1_555
H2 C1 1_555 1_555
H3 N2 1_555 1_555
H4 C3 1_555 1_555
H5 C4 1_555 1_555
H6 C5 1_555 1_555
H7 C6 1_555 1_555
H8 C9 1_555 1_555
H1B O1 1_555 1_555
C9E C9 1_555 1_555
C8E C9E 1_555 1_555
O2E C8E 1_555 1_555
O3E C8E 1_555 1_555
H8E C9E 1_555 1_555
O1F Cu1 1_555 1_555
H1F O1F 1_555 1_555
H1D O1F 1_555 1_555
O2D Cu1 1_555 1_555
N1D Cu1 1_555 1_555
N2D C1D 1_555 1_555
C1D N1D 1_555 1_555
C2D N2D 1_555 1_555
C3D C2D 1_555 1_555
C4D C3D 1_555 1_555
C5D C4D 1_555 1_555
C6D C5D 1_555 1_555
C7D N1D 1_555 1_555
H2D C1D 1_555 1_555
H3D N2D 1_555 1_555
H4D C3D 1_555 1_555
H5D C4D 1_555 1_555
H6D C5D 1_555 1_555
H7D C6D 1_555 1_555
Cu1F O1 1_555 1_555
Cu1A O2E 1_555 1_555
C2 C7 1_555 1_555
C6 C7 1_555 1_555
C2D C7D 1_555 1_555
C6D C7D 1_555 1_555

#END
