
#######################################################################
#
#                 Cambridge Crystallographic Data Centre
#                                CCDC 
#
#######################################################################
#
# If this CIF has been generated from an entry in the Cambridge 
# Structural Database, then it will include bibliographic, chemical, 
# crystal, experimental, refinement or atomic coordinate data resulting 
# from the CCDC's data processing and validation procedures.
#
#######################################################################

data_POTXED
_symmetry_cell_setting           monoclinic
_symmetry_space_group_name_H-M   'P 21'
_symmetry_Int_Tables_number      4
_space_group_name_Hall           'P 2yb'
loop_
_symmetry_equiv_pos_site_id
_symmetry_equiv_pos_as_xyz
1 x,y,z
2 -x,1/2+y,-z
_cell_length_a                   8.7897(9)
_cell_length_b                   13.4841(14)
_cell_length_c                   15.2555(15)
_cell_angle_alpha                90
_cell_angle_beta                 96.994(3)
_cell_angle_gamma                90
_cell_volume                     1794.65
loop_
_atom_site_label
_atom_site_type_symbol
_atom_site_fract_x
_atom_site_fract_y
_atom_site_fract_z
C1 C -0.3248(6) 0.9443(9) 0.6214(4)
H1 H -0.3207 0.9462 0.6826
C2 C -0.4679(6) 0.9423(10) 0.5708(4)
H2 H -0.5572 0.9453 0.5977
C3 C -0.4750(7) 0.9356(7) 0.4795(4)
H3 H -0.5691 0.9308 0.4446
C4 C -0.3416(7) 0.9363(8) 0.4416(4)
C5 C -0.2007(7) 0.9369(8) 0.4968(4)
H4 H -0.1101 0.9326 0.4713
C6 C -0.3519(8) 0.9298(7) 0.3429(4)
C7 C -0.2280(7) 0.9418(12) 0.2114(4)
H5 H -0.2898 0.9965 0.1857
H6 H -0.2758 0.8804 0.1893
C8 C -0.0678(7) 0.9487(9) 0.1842(4)
C9 C 0.0144(16) 0.8585(9) 0.1731(7)
C10 C 0.1528(12) 0.8610(6) 0.1392(7)
C11 C 0.2209(7) 0.9532(9) 0.1225(4)
C12 C 0.1460(14) 1.0413(7) 0.1382(7)
C13 C -0.0020(14) 1.0379(8) 0.1682(5)
C14 C -0.0481(15) 0.7590(8) 0.1970(7)
H7 H -0.1090 0.7676 0.2454
H8 H 0.0366 0.7153 0.2170
C15 C -0.1488(18) 0.7099(9) 0.1177(8)
H9 H -0.2356 0.7515 0.0995
H10 H -0.1837 0.6463 0.1353
H11 H -0.0893 0.7016 0.0695
C16 C 0.3723(8) 0.9596(9) 0.0837(4)
H12 H 0.4254 1.0198 0.1046
H13 H 0.4362 0.9037 0.1045
C17 C 0.3500(9) 0.9597(8) -0.0158(5)
H14 H 0.2921 0.9023 -0.0367
H15 H 0.4481 0.9584 -0.0374
H16 H 0.2956 1.0185 -0.0366
C18 C -0.0870(12) 1.1329(7) 0.1841(7)
H17 H -0.0144 1.1837 0.2066
H18 H -0.1564 1.1213 0.2278
C19 C -0.1791(17) 1.1690(9) 0.0966(7)
H19 H -0.1094 1.1872 0.0556
H20 H -0.2400 1.2255 0.1083
H21 H -0.2449 1.1166 0.0719
C20 C 0.2421(14) 0.7680(7) 0.1271(7)
H22 H 0.1716 0.7126 0.1173
H23 H 0.2948 0.7748 0.0752
C21 C 0.4221(13) 0.6564(8) 0.2143(7)
C22 C 0.5438(13) 0.6468(7) 0.2900(7)
C23 C 0.5526(15) 0.6965(7) 0.3704(8)
H24 H 0.4741 0.7396 0.3808
C24 C 0.6731(14) 0.6836(6) 0.4342(7)
H25 H 0.6760 0.7151 0.4886
C25 C 0.7949(14) 0.6204(8) 0.4153(7)
H26 H 0.8804 0.6135 0.4572
C26 C 0.6724(13) 0.5853(6) 0.2791(6)
H27 H 0.6720 0.5534 0.2251
C27 C 0.2178(14) 1.1407(7) 0.1257(6)
H28 H 0.2693 1.1399 0.0730
H29 H 0.1394 1.1916 0.1188
C28 C 0.4408(11) 1.2245(6) 0.2006(6)
C29 C 0.5585(11) 1.2349(6) 0.2788(6)
C30 C 0.5573(13) 1.1786(7) 0.3552(7)
H30 H 0.4810 1.1322 0.3613
C31 C 0.6769(14) 1.1959(8) 0.4215(8)
H31 H 0.6828 1.1582 0.4729
C32 C 0.7831(14) 1.2643(7) 0.4144(7)
H32 H 0.8574 1.2754 0.4622
C33 C 0.6688(12) 1.3065(7) 0.2756(7)
H33 H 0.6621 1.3485 0.2270
C34 C -0.0969(9) 0.9308(9) 0.8719(5)
C35 C -0.1805(9) 0.9318(10) 0.9470(4)
H34 H -0.2621 0.8841 0.9385
H35 H -0.2226 0.9967 0.9536
H36 H -0.1128 0.9152 0.9991
N1 N -0.1929(5) 0.9436(7) 0.5857(3)
N2 N -0.2221(6) 0.9449(9) 0.3065(3)
H37 H -0.1371 0.9562 0.3392
N3 N 0.3563(10) 0.7463(5) 0.2050(5)
H38 H 0.3802 0.7914 0.2442
N4 N 0.7901(10) 0.5700(6) 0.3379(6)
N5 N 0.3269(10) 1.1616(6) 0.2023(5)
H39 H 0.3168 1.1316 0.2510
N6 N 0.7875(10) 1.3184(6) 0.3407(5)
N7 N -0.0287(9) 0.9296(10) 0.8124(4)
O1 O -0.4734(6) 0.9073(3) 0.2990(3)
O2 O 0.3884(7) 0.5891(4) 0.1652(4)
O3 O 0.4562(7) 1.2726(4) 0.1300(4)
Ag1 Ag 0.03490(5) 0.94320(6) 0.67071(3)
N4A N 0.2099(10) 1.0700(6) 0.6621(6)
N6A N 0.2125(10) 0.8184(6) 0.6593(5)
Ag1A Ag 0.96510(5) 0.44320(6) 0.32929(3)
Ag1A_2 Ag 0.96510(5) 1.44320(6) 0.32929(3)
N8 N 0.1433(14) 1.0330(6) 0.3871(6)
O4 O 0.1382(10) 0.9233(12) 0.4060(7)
O5 O 0.0129(8) 1.0760(5) 0.3896(4)
O6 O 0.2457(10) 1.0586(6) 0.3594(5)
loop_
_geom_bond_atom_site_label_1
_geom_bond_atom_site_label_2
_geom_bond_site_symmetry_1
_geom_bond_site_symmetry_2
C1 H1 1_555 1_555
C2 C1 1_555 1_555
H2 C2 1_555 1_555
C3 C2 1_555 1_555
H3 C3 1_555 1_555
C4 C3 1_555 1_555
C5 C4 1_555 1_555
H4 C5 1_555 1_555
C6 C4 1_555 1_555
C7 H5 1_555 1_555
H6 C7 1_555 1_555
C8 C7 1_555 1_555
C9 C8 1_555 1_555
C10 C9 1_555 1_555
C11 C10 1_555 1_555
C12 C11 1_555 1_555
C13 C8 1_555 1_555
C14 C9 1_555 1_555
H7 C14 1_555 1_555
H8 C14 1_555 1_555
C15 C14 1_555 1_555
H9 C15 1_555 1_555
H10 C15 1_555 1_555
H11 C15 1_555 1_555
C16 C11 1_555 1_555
H12 C16 1_555 1_555
H13 C16 1_555 1_555
C17 C16 1_555 1_555
H14 C17 1_555 1_555
H15 C17 1_555 1_555
H16 C17 1_555 1_555
C18 C13 1_555 1_555
H17 C18 1_555 1_555
H18 C18 1_555 1_555
C19 C18 1_555 1_555
H19 C19 1_555 1_555
H20 C19 1_555 1_555
H21 C19 1_555 1_555
C20 C10 1_555 1_555
H22 C20 1_555 1_555
H23 C20 1_555 1_555
C21 C22 1_555 1_555
C22 C23 1_555 1_555
C23 H24 1_555 1_555
C24 C23 1_555 1_555
H25 C24 1_555 1_555
C25 C24 1_555 1_555
H26 C25 1_555 1_555
C26 C22 1_555 1_555
H27 C26 1_555 1_555
C27 C12 1_555 1_555
H28 C27 1_555 1_555
H29 C27 1_555 1_555
C28 C29 1_555 1_555
C29 C30 1_555 1_555
C30 H30 1_555 1_555
C31 C30 1_555 1_555
H31 C31 1_555 1_555
C32 C31 1_555 1_555
H32 C32 1_555 1_555
C33 C29 1_555 1_555
H33 C33 1_555 1_555
C34 C35 1_555 1_555
C35 H34 1_555 1_555
H35 C35 1_555 1_555
H36 C35 1_555 1_555
N1 C1 1_555 1_555
N2 C6 1_555 1_555
H37 N2 1_555 1_555
N3 C20 1_555 1_555
H38 N3 1_555 1_555
N4 C25 1_555 1_555
N5 C27 1_555 1_555
H39 N5 1_555 1_555
N6 C32 1_555 1_555
N7 C34 1_555 1_555
O1 C6 1_555 1_555
O2 C21 1_555 1_555
O3 C28 1_555 1_555
Ag1 N1 1_555 1_555
N8 O4 1_555 1_555
O5 N8 1_555 1_555
O6 N8 1_555 1_555
N4A Ag1 1_555 1_555
N6A Ag1 1_555 1_555
Ag1A N4 1_555 1_555
Ag1A_2 N6 1_555 1_555
C5 N1 1_555 1_555
C7 N2 1_555 1_555
C12 C13 1_555 1_555
C21 N3 1_555 1_555
C26 N4 1_555 1_555
C28 N5 1_555 1_555
C33 N6 1_555 1_555
N7 Ag1 1_555 1_555

#END
