
#######################################################################
#
#                 Cambridge Crystallographic Data Centre
#                                CCDC 
#
#######################################################################
#
# If this CIF has been generated from an entry in the Cambridge 
# Structural Database, then it will include bibliographic, chemical, 
# crystal, experimental, refinement or atomic coordinate data resulting 
# from the CCDC's data processing and validation procedures.
#
#######################################################################

data_POTYEE
_symmetry_cell_setting           triclinic
_symmetry_space_group_name_H-M   'P -1'
_symmetry_Int_Tables_number      2
_space_group_name_Hall           '-P 1'
loop_
_symmetry_equiv_pos_site_id
_symmetry_equiv_pos_as_xyz
1 x,y,z
2 -x,-y,-z
_cell_length_a                   10.6355(9)
_cell_length_b                   12.1360(10)
_cell_length_c                   13.3031(11)
_cell_angle_alpha                77.235(2)
_cell_angle_beta                 85.710(2)
_cell_angle_gamma                87.008(2)
_cell_volume                     1668.81
loop_
_atom_site_label
_atom_site_type_symbol
_atom_site_fract_x
_atom_site_fract_y
_atom_site_fract_z
Ag1 Ag 0.01271(2) 0.35256(2) 0.365962(17)
C1 C 0.4652(3) 0.9482(2) 0.1653(2)
C2 C 0.5174(3) 0.8705(2) 0.1080(2)
C3 C 0.4430(3) 0.8257(2) 0.0456(2)
C4 C 0.3160(3) 0.8643(2) 0.0354(2)
C5 C 0.2642(2) 0.9433(2) 0.0916(2)
C6 C 0.3390(3) 0.9857(2) 0.1558(2)
C7 C 0.5448(3) 0.9907(3) 0.2379(2)
H1 H 0.5771 1.0628 0.2039
H2 H 0.6139 0.9378 0.2568
H3 H 0.4939 0.9983 0.2988
C8 C 0.4971(3) 0.7347(3) -0.0091(2)
H4 H 0.5425 0.7694 -0.0724
H5 H 0.4297 0.6925 -0.0241
H6 H 0.5535 0.6848 0.0345
C9 C 0.1268(3) 0.9805(3) 0.0821(2)
H7 H 0.0954 1.0066 0.1426
H8 H 0.0790 0.9178 0.0755
H9 H 0.1188 1.0406 0.0222
C10 C 0.2822(3) 1.0687(3) 0.2176(2)
H10 H 0.3465 1.1187 0.2272
H11 H 0.2158 1.1145 0.1805
C11 C 0.6557(3) 0.8346(3) 0.1160(2)
H12 H 0.6863 0.8074 0.0550
H13 H 0.7040 0.8994 0.1186
C12 C 0.2320(3) 0.8188(3) -0.0317(2)
H14 H 0.1769 0.8794 -0.0661
H15 H 0.2837 0.7903 -0.0843
C13 C 0.2232(3) 1.0546(3) 0.4019(2)
C14 C 0.1719(3) 0.9844(3) 0.5035(2)
C15 C 0.1743(3) 1.0306(3) 0.5903(2)
H16 H 0.2096 1.1003 0.5851
C16 C 0.1235(3) 0.9716(3) 0.6846(2)
H17 H 0.1231 1.0015 0.7433
C17 C 0.0737(3) 0.8683(3) 0.6900(2)
H18 H 0.0397 0.8291 0.7535
C18 C 0.1214(3) 0.8791(3) 0.5162(2)
H19 H 0.1217 0.8467 0.4590
C19 C 0.0417(3) 0.7082(2) 0.0018(2)
C20 C -0.0304(2) 0.6115(2) 0.0682(2)
C21 C -0.1450(3) 0.5877(3) 0.0356(2)
H20 H -0.1774 0.6325 -0.0236
C22 C -0.2106(3) 0.4961(3) 0.0924(2)
H21 H -0.2877 0.4791 0.0720
C23 C -0.1603(3) 0.4306(3) 0.1792(2)
H22 H -0.2039 0.3682 0.2160
C24 C 0.0141(3) 0.5416(2) 0.1574(2)
H23 H 0.0913 0.5566 0.1792
C25 C 0.7838(3) 0.7348(2) 0.2555(2)
C26 C 0.8211(3) 0.4939(3) 0.5361(2)
H24 H 0.8314 0.4422 0.5981
C27 C 0.7444(3) 0.4670(3) 0.4661(3)
H25 H 0.7052 0.3981 0.4806
C28 C 0.7267(3) 0.5442(3) 0.3738(2)
H26 H 0.6733 0.5289 0.3267
C29 C 0.7904(3) 0.6448(2) 0.3531(2)
C30 C 0.8675(3) 0.6639(2) 0.4270(2)
H27 H 0.9120 0.7302 0.4125
N1 N 0.2301(2) 1.0069(2) 0.31911(19)
H28 H 0.2038 0.9398 0.3255
N2 N 0.1555(2) 0.7278(2) 0.03040(18)
H29 H 0.1840 0.6864 0.0857
N3 N 0.6754(2) 0.7455(2) 0.20810(19)
H30 H 0.6165 0.6991 0.2322
N4 N 0.0717(2) 0.8211(2) 0.60786(19)
N5 N -0.0501(2) 0.4535(2) 0.21306(19)
N6 N 0.8813(2) 0.5919(2) 0.51802(19)
O1 O 0.2567(3) 1.1503(2) 0.3974(2)
O2 O -0.0050(2) 0.76487(19) -0.07506(16)
O3 O 0.87329(19) 0.79688(18) 0.22362(17)
Ag1A Ag -0.01271(2) 0.64744(2) 0.634038(17)
Ag1A_2 Ag 0.98729(2) 0.64744(2) 0.634038(17)
N4A N -0.0717(2) 0.1789(2) 0.39214(19)
N6A N 0.1187(2) 0.4081(2) 0.48198(19)
C31 C 0.3958(3) 0.4781(3) 0.2043(3)
C32 C 0.3728(3) 0.5880(3) 0.2436(2)
F1 F 0.3515(3) 0.4854(2) 0.1120(2)
F2 F 0.5169(2) 0.4491(3) 0.1945(3)
F3 F 0.3395(3) 0.3931(2) 0.2686(3)
O4 O 0.4558(2) 0.6155(3) 0.2926(2)
O5 O 0.2674(2) 0.6357(2) 0.22341(17)
C33 C 0.5593(4) 0.2377(4) 0.3997(3)
C34 C 0.4892(10) 0.2305(10) 0.4997(9)
N7 N 0.6316(4) 0.2349(4) 0.3358(4)
O6 O 0.1194(2) 0.79272(19) 0.30373(17)
C35? C 0.4643(9) 0.2838(9) 0.4803(8)
loop_
_geom_bond_atom_site_label_1
_geom_bond_atom_site_label_2
_geom_bond_site_symmetry_1
_geom_bond_site_symmetry_2
Ag1 N5 1_555 1_555
C1 C2 1_555 1_555
C2 C3 1_555 1_555
C3 C4 1_555 1_555
C4 C5 1_555 1_555
C5 C6 1_555 1_555
C6 C1 1_555 1_555
C7 C1 1_555 1_555
H1 C7 1_555 1_555
H2 C7 1_555 1_555
H3 C7 1_555 1_555
C8 C3 1_555 1_555
H4 C8 1_555 1_555
H5 C8 1_555 1_555
H6 C8 1_555 1_555
C9 C5 1_555 1_555
H7 C9 1_555 1_555
H8 C9 1_555 1_555
H9 C9 1_555 1_555
C10 C6 1_555 1_555
H10 C10 1_555 1_555
H11 C10 1_555 1_555
C11 C2 1_555 1_555
H12 C11 1_555 1_555
H13 C11 1_555 1_555
C12 C4 1_555 1_555
H14 C12 1_555 1_555
H15 C12 1_555 1_555
C13 C14 1_555 1_555
C14 C15 1_555 1_555
C15 H16 1_555 1_555
C16 C15 1_555 1_555
H17 C16 1_555 1_555
C17 C16 1_555 1_555
H18 C17 1_555 1_555
C18 C14 1_555 1_555
H19 C18 1_555 1_555
C19 C20 1_555 1_555
C20 C21 1_555 1_555
C21 H20 1_555 1_555
C22 C21 1_555 1_555
H21 C22 1_555 1_555
C23 C22 1_555 1_555
H22 C23 1_555 1_555
C24 C20 1_555 1_555
H23 C24 1_555 1_555
C25 C29 1_555 1_555
C26 H24 1_555 1_555
C27 C26 1_555 1_555
H25 C27 1_555 1_555
C28 C27 1_555 1_555
H26 C28 1_555 1_555
C29 C28 1_555 1_555
C30 C29 1_555 1_555
H27 C30 1_555 1_555
N1 C10 1_555 1_555
H28 N1 1_555 1_555
N2 C12 1_555 1_555
H29 N2 1_555 1_555
N3 C11 1_555 1_555
H30 N3 1_555 1_555
N4 C17 1_555 1_555
N5 C23 1_555 1_555
N6 C26 1_555 1_555
O1 C13 1_555 1_555
O2 C19 1_555 1_555
O3 C25 1_555 1_555
C31 C32 1_555 1_555
C32 O4 1_555 1_555
F1 C31 1_555 1_555
F2 C31 1_555 1_555
F3 C31 1_555 1_555
O5 C32 1_555 1_555
C33 C34 1_555 1_555
N7 C33 1_555 1_555
Ag1A N4 1_555 1_555
Ag1A_2 N6 1_555 1_555
N4A Ag1 1_555 1_555
N6A Ag1 1_555 1_555
C13 N1 1_555 1_555
C18 N4 1_555 1_555
C19 N2 1_555 1_555
C24 N5 1_555 1_555
C25 N3 1_555 1_555
C30 N6 1_555 1_555

#END
