
#######################################################################
#
#                 Cambridge Crystallographic Data Centre
#                                CCDC 
#
#######################################################################
#
# If this CIF has been generated from an entry in the Cambridge 
# Structural Database, then it will include bibliographic, chemical, 
# crystal, experimental, refinement or atomic coordinate data resulting 
# from the CCDC's data processing and validation procedures.
#
#######################################################################

data_POTYED
_symmetry_cell_setting           orthorhombic
_symmetry_space_group_name_H-M   'P n a 21'
_symmetry_Int_Tables_number      33
_space_group_name_Hall           'P 2c -2n'
loop_
_symmetry_equiv_pos_site_id
_symmetry_equiv_pos_as_xyz
1 x,y,z
2 1/2-x,1/2+y,1/2+z
3 1/2+x,1/2-y,z
4 -x,-y,1/2+z
_cell_length_a                   9.3379(3)
_cell_length_b                   4.73882(14)
_cell_length_c                   54.635(2)
_cell_angle_alpha                90
_cell_angle_beta                 90
_cell_angle_gamma                90
_cell_volume                     2417.63
loop_
_atom_site_label
_atom_site_type_symbol
_atom_site_fract_x
_atom_site_fract_y
_atom_site_fract_z
Zn1 Zn 0.37724 0.77609 0.50510
O1 O 0.37175 0.54897 0.53681
O2 O 0.41688 0.15105 0.51706
O3 O 0.47553 0.57062 0.47870
O4 O 0.66852 0.72836 0.49816
C1 C 0.24418 0.14183 0.55023
C2 C 0.34993 0.28662 0.53381
C3 C 0.19158 0.32832 0.57093
C4 C 0.08663 0.17649 0.58751
C5 C 0.03204 0.36183 0.60826
C6 C -0.05928 0.19561 0.62618
C7 C -0.11941 0.36352 0.64757
C8 C -0.20032 0.17012 0.66504
C9 C -0.26409 0.31370 0.68744
C10 C -0.34680 0.10759 0.70362
C11 C -0.41028 0.24428 0.72640
C12 C 0.61040 0.61446 0.47958
C13 C 0.69800 0.52646 0.45778
C14 C 0.61498 0.33702 0.44048
C15 C 0.69461 0.27458 0.41697
C16 C 0.60613 0.09437 0.39967
C17 C 0.68441 0.02242 0.37613
C18 C 0.59331 -0.15199 0.35872
C19 C 0.67328 -0.24141 0.33574
C20 C 0.58310 -0.41913 0.31839
C21 C 0.66344 -0.50943 0.29537
C22 C 0.57175 -0.68917 0.27835
Zn1_2 Zn 0.37724 -0.22391 0.50510
Zn1B Zn 0.87724 0.72391 0.50510
O2_2 O 0.41688 1.15105 0.51706
O4B O 0.16852 0.77164 0.49816
loop_
_geom_bond_atom_site_label_1
_geom_bond_atom_site_label_2
_geom_bond_site_symmetry_1
_geom_bond_site_symmetry_2
Zn1 O1 1_555 1_555
O1 C2 1_555 1_555
O2 C2 1_555 1_555
O3 Zn1 1_555 1_555
O4 C12 1_555 1_555
C1 C2 1_555 1_555
C3 C1 1_555 1_555
C4 C3 1_555 1_555
C5 C4 1_555 1_555
C6 C5 1_555 1_555
C7 C6 1_555 1_555
C8 C7 1_555 1_555
C9 C8 1_555 1_555
C10 C9 1_555 1_555
C11 C10 1_555 1_555
C12 O3 1_555 1_555
C13 C12 1_555 1_555
C14 C13 1_555 1_555
C15 C14 1_555 1_555
C16 C15 1_555 1_555
C17 C16 1_555 1_555
C18 C17 1_555 1_555
C19 C18 1_555 1_555
C20 C19 1_555 1_555
C21 C20 1_555 1_555
C22 C21 1_555 1_555
Zn1_2 O2 1_555 1_555
Zn1B O4 1_555 1_555
O2_2 Zn1 1_555 1_555
O4B Zn1 1_555 1_555

#END
