
#######################################################################
#
#                 Cambridge Crystallographic Data Centre
#                                CCDC 
#
#######################################################################
#
# If this CIF has been generated from an entry in the Cambridge 
# Structural Database, then it will include bibliographic, chemical, 
# crystal, experimental, refinement or atomic coordinate data resulting 
# from the CCDC's data processing and validation procedures.
#
#######################################################################

data_POTYAA
_symmetry_cell_setting           rhombohedral
_symmetry_space_group_name_H-M   'R 3'
_symmetry_Int_Tables_number      146
_space_group_name_Hall           'R 3'
loop_
_symmetry_equiv_pos_site_id
_symmetry_equiv_pos_as_xyz
1 x,y,z
2 -y,x-y,z
3 -x+y,-x,z
4 2/3+x,1/3+y,1/3+z
5 2/3-y,1/3+x-y,1/3+z
6 2/3-x+y,1/3-x,1/3+z
7 1/3+x,2/3+y,2/3+z
8 1/3-y,2/3+x-y,2/3+z
9 1/3-x+y,2/3-x,2/3+z
_cell_length_a                   15.3847(6)
_cell_length_b                   15.3847(6)
_cell_length_c                   22.8201(9)
_cell_angle_alpha                90
_cell_angle_beta                 90
_cell_angle_gamma                120
_cell_volume                     4677.63
loop_
_atom_site_label
_atom_site_type_symbol
_atom_site_fract_x
_atom_site_fract_y
_atom_site_fract_z
Ag1 Ag 0.86587(8) 0.84126(8) 0.83243(4)
Cl1 Cl 1.0000 1.0000 0.8743(3)
C1 C 1.0119(11) 0.7783(10) 0.8842(5)
H1 H 0.9878 0.8049 0.9122
C2 C 1.0760(8) 0.7503(8) 0.9015(4)
C3 C 1.1119(9) 0.7118(9) 0.8577(5)
H2 H 1.1574 0.6912 0.8678
C4 C 1.0820(8) 0.7041(7) 0.8017(4)
H3 H 1.1052 0.6774 0.7732
C5 C 1.0161(9) 0.7368(8) 0.7876(4)
H4 H 0.9974 0.7350 0.7486
C6 C 1.1013(9) 0.7593(9) 0.9656(5)
C7 C 1.2080(14) 0.7577(13) 1.0443(6)
H5 H 1.1468 0.7207 1.0670
H6 H 1.2449 0.8257 1.0594
C8 C 1.2710(10) 0.7076(10) 1.0488(4)
C9 C 1.2311(9) 0.6080(10) 1.0483(4)
C10 C 1.1150(11) 0.5365(14) 1.0447(7)
H7 H 1.0819 0.5747 1.0502
H8 H 1.0942 0.4863 1.0747
H9 H 1.0978 0.5047 1.0070
C11 C 0.7376(8) 0.7847(8) 0.7247(4)
H10 H 0.8019 0.8259 0.7101
C12 C 0.6555(9) 0.7459(8) 0.6858(5)
C13 C 0.5608(11) 0.6819(10) 0.7077(6)
H11 H 0.5056 0.6526 0.6828
C14 C 0.5491(9) 0.6620(9) 0.7672(6)
H12 H 0.4860 0.6202 0.7832
C15 C 0.6350(9) 0.7063(8) 0.8029(5)
H13 H 0.6276 0.6945 0.8430
C16 C 0.6733(10) 0.7723(10) 0.6223(5)
C17 C 0.7819(12) 0.8855(15) 0.5444(5)
H14 H 0.7537 0.9257 0.5303
H15 H 0.7559 0.8255 0.5204
C18 C 0.8960(10) 0.9452(11) 0.5403(4)
C19 C 0.9496(11) 0.8946(10) 0.5401(4)
C20 C 0.900(2) 0.7801(12) 0.5429(7)
H16 H 0.8773 0.7578 0.5821
H17 H 0.9480 0.7604 0.5318
H18 H 0.8440 0.7504 0.5166
N1 N 0.9783(8) 0.7712(9) 0.8282(5)
N2 N 1.1833(9) 0.7587(9) 0.9805(4)
H19 H 1.2229 0.7588 0.9538
N3 N 0.7257(7) 0.7641(7) 0.7815(4)
N4 N 0.7541(8) 0.8578(9) 0.6067(4)
H20 H 0.7915 0.8984 0.6337
O1 O 1.0473(7) 0.7708(9) 1.0009(3)
O2 O 0.6090(8) 0.7108(8) 0.5861(4)
C1A C 1.2217(10) 0.2336(15) 0.8842(5)
H1A H 1.1951 0.1829 0.9122
C2A C 1.2497(8) 0.3257(11) 0.9015(4)
C3A C 1.2882(9) 0.4001(13) 0.8577(5)
H2A H 1.3088 0.4662 0.8678
C4A C 1.2959(7) 0.3779(11) 0.8017(4)
H3A H 1.3226 0.4278 0.7732
C5A C 1.2632(8) 0.2793(12) 0.7876(4)
H4A H 1.2650 0.2624 0.7486
C6A C 1.2407(9) 0.3420(13) 0.9656(5)
C7A C 1.2423(13) 0.4503(19) 1.0443(6)
H5A H 1.2793 0.4261 1.0670
H6A H 1.1743 0.4192 1.0594
C8A C 1.2924(10) 0.5634(14) 1.0488(4)
C9A C 1.3920(10) 0.6231(13) 1.0483(4)
C10A C 1.4635(14) 0.5785(18) 1.0447(7)
H7A H 1.4253 0.5072 1.0502
H8A H 1.5137 0.6079 1.0747
H9A H 1.4953 0.5931 1.0070
N1A N 1.2288(9) 0.2071(12) 0.8282(5)
N2A N 1.2413(9) 0.4246(13) 0.9805(4)
H19A H 1.2412 0.4641 0.9538
O1A O 1.2292(9) 0.2765(11) 1.0009(3)
C1B C 1.7664(15) 0.9881(11) 0.8842(5)
H1B H 1.8171 1.0122 0.9122
C2B C 1.6743(11) 0.9240(8) 0.9015(4)
C3B C 1.5999(13) 0.8881(9) 0.8577(5)
H2B H 1.5338 0.8426 0.8678
C4B C 1.6221(11) 0.9180(8) 0.8017(4)
H3B H 1.5722 0.8948 0.7732
C5B C 1.7207(12) 0.9839(9) 0.7876(4)
H4B H 1.7376 1.0026 0.7486
C6B C 1.6580(13) 0.8987(9) 0.9656(5)
C7B C 1.5497(19) 0.7920(14) 1.0443(6)
H5B H 1.5739 0.8532 1.0670
H6B H 1.5808 0.7551 1.0594
C8B C 1.4366(14) 0.7290(10) 1.0488(4)
C9B C 1.3769(13) 0.7689(9) 1.0483(4)
C10B C 1.4215(18) 0.8850(11) 1.0447(7)
H7B H 1.4928 0.9181 1.0502
H8B H 1.3921 0.9058 1.0747
H9B H 1.4069 0.9022 1.0070
N1B N 1.7929(12) 1.0217(8) 0.8282(5)
N2B N 1.5754(13) 0.8167(9) 0.9805(4)
H19B H 1.5359 0.7771 0.9538
O1B O 1.7235(11) 0.9527(7) 1.0009(3)
C11A C 1.2153(8) 0.9529(11) 0.7247(4)
H10A H 1.1741 0.9760 0.7101
C12A C 1.2541(8) 0.9096(12) 0.6858(5)
C13A C 1.3181(10) 0.8789(15) 0.7077(6)
H11A H 1.3474 0.8530 0.6828
C14A C 1.3380(9) 0.8871(13) 0.7672(6)
H12A H 1.3798 0.8658 0.7832
C15A C 1.2937(8) 0.9287(12) 0.8029(5)
H13A H 1.3055 0.9331 0.8430
C16A C 1.2277(10) 0.9010(14) 0.6223(5)
C17A C 1.1145(15) 0.8964(19) 0.5444(5)
H14A H 1.0743 0.8280 0.5303
H15A H 1.1745 0.9304 0.5204
C18A C 1.0548(11) 0.9508(15) 0.5403(4)
C19A C 1.1054(10) 1.0550(15) 0.5401(4)
C20A C 1.2199(12) 1.1199(23) 0.5429(7)
H16A H 1.2422 1.1195 0.5821
H17A H 1.2396 1.1876 0.5318
H18A H 1.2496 1.0936 0.5166
N3A N 1.2359(7) 0.9616(10) 0.7815(4)
N4A N 1.1422(9) 0.8963(12) 0.6067(4)
H20A H 1.1016 0.8931 0.6337
O2A O 1.2892(8) 0.8982(11) 0.5861(4)
C11B C 1.0471(11) 1.2624(8) 0.7247(4)
H10B H 1.0240 1.1981 0.7101
C12B C 1.0904(12) 1.3445(9) 0.6858(5)
C13B C 1.1211(15) 1.4392(11) 0.7077(6)
H11B H 1.1470 1.4944 0.6828
C14B C 1.1129(13) 1.4509(9) 0.7672(6)
H12B H 1.1342 1.5140 0.7832
C15B C 1.0713(12) 1.3650(9) 0.8029(5)
H13B H 1.0669 1.3724 0.8430
C16B C 1.0990(14) 1.3267(10) 0.6223(5)
C17B C 1.1036(19) 1.2181(12) 0.5444(5)
H14B H 1.1720 1.2463 0.5303
H15B H 1.0696 1.2441 0.5204
C18B C 1.0492(15) 1.1040(10) 0.5403(4)
C19B C 0.9450(15) 1.0504(11) 0.5401(4)
C20B C 0.8801(23) 1.100(2) 0.5429(7)
H16B H 0.8805 1.1227 0.5821
H17B H 0.8124 1.0520 0.5318
H18B H 0.9064 1.1560 0.5166
N3B N 1.0384(10) 1.2743(7) 0.7815(4)
N4B N 1.1037(12) 1.2459(8) 0.6067(4)
H20B H 1.1069 1.2085 0.6337
O2B O 1.1018(11) 1.3910(8) 0.5861(4)
Ag1A Ag 1.15874(8) 0.02461(11) 0.83243(4)
Ag1B Ag 0.97539(11) 1.13413(8) 0.83243(4)
Ag1A_2 Ag 1.15874(8) 1.02461(11) 0.83243(4)
Ag1B_2 Ag 1.97539(11) 1.13413(8) 0.83243(4)
Ag1F Ag 1.19920(8) 1.50793(8) 0.49910(4)
Ag1G Ag 0.49207(8) 0.69128(11) 0.49910(4)
Ag1H Ag 1.30872(11) 0.80080(8) 0.49910(4)
Cl1_2 Cl 1.0000 0.0000 0.8743(3)
N1B_2 N 0.7929(12) 1.0217(8) 0.8282(5)
N3A_2 N 1.2359(7) -0.0384(10) 0.7815(4)
O2C O 1.2757(8) 0.0441(8) 0.9194(4)
O2D O 0.9559(8) 1.2315(11) 0.9194(4)
O2E O 0.7685(11) 0.7243(8) 0.9194(4)
N5 N 1.0000 0.0000 0.6874(7)
O3 O 0.9244(6) 0.0124(7) 0.6872(4)
O3A O 0.9876(7) -0.0880(9) 0.6872(4)
O3B O 1.0880(9) 0.0756(6) 0.6872(4)
N6 N 0.3333 0.6667 0.9039(6)
O4 O 0.2476(6) 0.5909(6) 0.9035(4)
O4A O 0.4091(6) 0.6567(8) 0.9035(4)
O4B O 0.3433(8) 0.7524(6) 0.9035(4)
loop_
_geom_bond_atom_site_label_1
_geom_bond_atom_site_label_2
_geom_bond_site_symmetry_1
_geom_bond_site_symmetry_2
Ag1 Cl1 1_555 1_555
Cl1 Ag1B 1_555 1_555
C1 H1 1_555 1_555
C2 C1 1_555 1_555
C3 C2 1_555 1_555
H2 C3 1_555 1_555
C4 C3 1_555 1_555
H3 C4 1_555 1_555
C5 C4 1_555 1_555
H4 C5 1_555 1_555
C6 C2 1_555 1_555
C7 H5 1_555 1_555
H6 C7 1_555 1_555
C8 C7 1_555 1_555
C9 C8 1_555 1_555
C10 C9 1_555 1_555
H7 C10 1_555 1_555
H8 C10 1_555 1_555
H9 C10 1_555 1_555
C11 H10 1_555 1_555
C12 C11 1_555 1_555
C13 C12 1_555 1_555
H11 C13 1_555 1_555
C14 C13 1_555 1_555
H12 C14 1_555 1_555
C15 C14 1_555 1_555
H13 C15 1_555 1_555
C16 C12 1_555 1_555
C17 H14 1_555 1_555
H15 C17 1_555 1_555
C18 C17 1_555 1_555
C19 C18 1_555 1_555
C20 C19 1_555 1_555
H16 C20 1_555 1_555
H17 C20 1_555 1_555
H18 C20 1_555 1_555
N1 Ag1 1_555 1_555
N2 C6 1_555 1_555
H19 N2 1_555 1_555
N3 Ag1 1_555 1_555
N4 C16 1_555 1_555
H20 N4 1_555 1_555
O1 C6 1_555 1_555
O2 C16 1_555 1_555
N5 O3 1_555 1_555
N6 O4 1_555 1_555
C1A H1A 1_555 1_555
C2A C1A 1_555 1_555
C3A C2A 1_555 1_555
H2A C3A 1_555 1_555
C4A C3A 1_555 1_555
H3A C4A 1_555 1_555
C5A C4A 1_555 1_555
H4A C5A 1_555 1_555
C6A C2A 1_555 1_555
C7A H5A 1_555 1_555
H6A C7A 1_555 1_555
C8A C9 1_555 1_555
C9A C8A 1_555 1_555
C10A C9A 1_555 1_555
H7A C10A 1_555 1_555
H8A C10A 1_555 1_555
H9A C10A 1_555 1_555
N1A C1A 1_555 1_555
N2A C6A 1_555 1_555
H19A N2A 1_555 1_555
O1A C6A 1_555 1_555
C1B H1B 1_555 1_555
C2B C1B 1_555 1_555
C3B C2B 1_555 1_555
H2B C3B 1_555 1_555
C4B C3B 1_555 1_555
H3B C4B 1_555 1_555
C5B C4B 1_555 1_555
H4B C5B 1_555 1_555
C6B C2B 1_555 1_555
C7B H5B 1_555 1_555
H6B C7B 1_555 1_555
C8B C9A 1_555 1_555
C9B C8 1_555 1_555
C10B C9B 1_555 1_555
H7B C10B 1_555 1_555
H8B C10B 1_555 1_555
H9B C10B 1_555 1_555
N1B C1B 1_555 1_555
N2B C6B 1_555 1_555
H19B N2B 1_555 1_555
O1B C6B 1_555 1_555
C11A H10A 1_555 1_555
C12A C11A 1_555 1_555
C13A C12A 1_555 1_555
H11A C13A 1_555 1_555
C14A C13A 1_555 1_555
H12A C14A 1_555 1_555
C15A C14A 1_555 1_555
H13A C15A 1_555 1_555
C16A C12A 1_555 1_555
C17A H14A 1_555 1_555
H15A C17A 1_555 1_555
C18A C19 1_555 1_555
C19A C18A 1_555 1_555
C20A C19A 1_555 1_555
H16A C20A 1_555 1_555
H17A C20A 1_555 1_555
H18A C20A 1_555 1_555
N3A C11A 1_555 1_555
N4A C16A 1_555 1_555
H20A N4A 1_555 1_555
O2A C16A 1_555 1_555
C11B H10B 1_555 1_555
C12B C11B 1_555 1_555
C13B C12B 1_555 1_555
H11B C13B 1_555 1_555
C14B C13B 1_555 1_555
H12B C14B 1_555 1_555
C15B C14B 1_555 1_555
H13B C15B 1_555 1_555
C16B C12B 1_555 1_555
C17B H14B 1_555 1_555
H15B C17B 1_555 1_555
C18B C19A 1_555 1_555
C19B C18 1_555 1_555
C20B C19B 1_555 1_555
H16B C20B 1_555 1_555
H17B C20B 1_555 1_555
H18B C20B 1_555 1_555
N3B C11B 1_555 1_555
N4B C16B 1_555 1_555
H20B N4B 1_555 1_555
O2B C16B 1_555 1_555
Ag1A N1A 1_555 1_555
Ag1B N3B 1_555 1_555
Ag1A_2 Cl1 1_555 1_555
Ag1B_2 N1B 1_555 1_555
Ag1F O2B 1_555 1_555
Ag1G O2 1_555 1_555
Ag1H O2A 1_555 1_555
Cl1_2 Ag1A 1_555 1_555
N1B_2 Ag1B 1_555 1_555
N3A_2 Ag1A 1_555 1_555
O2C Ag1A 1_555 1_555
O2D Ag1B 1_555 1_555
O2E Ag1 1_555 1_555
O3A N5 1_555 1_555
O3B N5 1_555 1_555
O4A N6 1_555 1_555
O4B N6 1_555 1_555
C1 N1 1_555 1_555
C5 N1 1_555 1_555
C7 N2 1_555 1_555
C11 N3 1_555 1_555
C15 N3 1_555 1_555
C17 N4 1_555 1_555
C5A N1A 1_555 1_555
C7A C8A 1_555 1_555
C7A N2A 1_555 1_555
C5B N1B 1_555 1_555
C7B C8B 1_555 1_555
C7B N2B 1_555 1_555
C8B C9B 1_555 1_555
C15A N3A 1_555 1_555
C17A C18A 1_555 1_555
C17A N4A 1_555 1_555
N3A Ag1A_2 1_555 1_555
C15B N3B 1_555 1_555
C17B C18B 1_555 1_555
C17B N4B 1_555 1_555
C18B C19B 1_555 1_555

#END
