
#######################################################################
#
#                 Cambridge Crystallographic Data Centre
#                                CCDC 
#
#######################################################################
#
# If this CIF has been generated from an entry in the Cambridge 
# Structural Database, then it will include bibliographic, chemical, 
# crystal, experimental, refinement or atomic coordinate data resulting 
# from the CCDC's data processing and validation procedures.
#
#######################################################################

data_POTZIJ
_symmetry_cell_setting           monoclinic
_symmetry_space_group_name_H-M   'P 21/c'
_symmetry_Int_Tables_number      14
_space_group_name_Hall           '-P 2ybc'
loop_
_symmetry_equiv_pos_site_id
_symmetry_equiv_pos_as_xyz
1 x,y,z
2 -x,1/2+y,1/2-z
3 -x,-y,-z
4 x,1/2-y,1/2+z
_cell_length_a                   9.3985(4)
_cell_length_b                   11.8948(6)
_cell_length_c                   32.9122(16)
_cell_angle_alpha                90
_cell_angle_beta                 96.380(2)
_cell_angle_gamma                90
_cell_volume                     3656.58
loop_
_atom_site_label
_atom_site_type_symbol
_atom_site_fract_x
_atom_site_fract_y
_atom_site_fract_z
Br1 Br 0.07377(5) 0.39958(4) 0.209770(14)
Cu1 Cu 0.05651(5) 0.53766(4) 0.151394(16)
Cu2 Cu -0.15804(5) 0.46807(4) 0.184062(16)
Br2 Br -0.17764(5) 0.57694(4) 0.118854(13)
O1 O 0.4200(3) 0.3203(2) 0.12047(8)
N1 N 0.2131(3) 0.4863(3) 0.11510(9)
N2 N 0.7121(3) 0.5492(3) 0.22195(10)
N3 N 0.2096(3) 0.6582(3) 0.16630(10)
C1 C 0.1978(4) 0.3874(3) 0.09044(11)
C2 C 0.0712(4) 0.3735(3) 0.06600(11)
H1 H 0.0023 0.4322 0.0644
C3 C 0.0400(4) 0.2753(3) 0.04323(12)
C4 C 0.1428(4) 0.1904(3) 0.04753(12)
H2 H 0.1248 0.1232 0.0323
C5 C 0.2717(4) 0.1994(3) 0.07330(11)
C6 C 0.3759(4) 0.1012(3) 0.07832(11)
C7 C 0.3039(4) 0.0015(3) 0.09771(12)
H3 H 0.2836 0.0220 0.1253
H4 H 0.3681 -0.0637 0.0992
H5 H 0.2142 -0.0172 0.0810
C8 C 0.5095(4) 0.1341(3) 0.10630(12)
C9 C 0.5228(4) 0.2372(3) 0.12584(11)
C10 C 0.2976(4) 0.3002(3) 0.09381(11)
C11 C 0.6459(4) 0.2645(3) 0.15233(12)
N4 N 0.6611(3) 0.3651(3) 0.17565(9)
C12 C 0.5792(4) 0.5033(3) 0.21949(11)
C13 C 0.4757(4) 0.5390(3) 0.24333(12)
H6 H 0.3820 0.5080 0.2398
C14 C 0.5117(5) 0.6207(4) 0.27242(13)
H7 H 0.4444 0.6442 0.2902
C15 C 0.6463(4) 0.6679(4) 0.27544(13)
H8 H 0.6727 0.7244 0.2952
C16 C 0.7430(4) 0.6318(3) 0.24914(13)
H9 H 0.8342 0.6670 0.2505
C17 C 0.5553(4) 0.4071(3) 0.19212(11)
H10 H 0.4623 0.3757 0.1865
C18 C 0.7586(4) 0.1891(3) 0.15728(12)
H11 H 0.8447 0.2101 0.1734
C19 C 0.7490(4) 0.0827(3) 0.13917(12)
C20 C 0.6235(4) 0.0579(3) 0.11415(11)
H12 H 0.6145 -0.0143 0.1018
C21 C 0.8684(4) -0.0046(3) 0.14519(12)
C22 C 0.8132(5) -0.1098(3) 0.16565(13)
H13 H 0.7305 -0.1404 0.1484
H14 H 0.7848 -0.0895 0.1925
H15 H 0.8893 -0.1664 0.1691
C23 C 0.9139(5) -0.0389(4) 0.10359(13)
H16 H 0.9869 -0.0979 0.1075
H17 H 0.9533 0.0266 0.0906
H18 H 0.8305 -0.0672 0.0861
C24 C 0.9986(4) 0.0394(4) 0.17232(14)
H19 H 1.0739 -0.0180 0.1747
H20 H 0.9714 0.0568 0.1995
H21 H 1.0342 0.1077 0.1602
C25 C 0.4194(4) 0.0663(3) 0.03661(12)
H22 H 0.3334 0.0491 0.0180
H23 H 0.4807 -0.0004 0.0399
H24 H 0.4718 0.1280 0.0253
C26 C -0.1022(4) 0.2654(3) 0.01590(13)
C27 C -0.1130(5) 0.3574(4) -0.01643(13)
H25 H -0.1034 0.4311 -0.0031
H26 H -0.2062 0.3527 -0.0330
H27 H -0.0365 0.3478 -0.0341
C28 C -0.1203(5) 0.1507(4) -0.00533(14)
H28 H -0.0441 0.1401 -0.0230
H29 H -0.2136 0.1476 -0.0219
H30 H -0.1148 0.0910 0.0153
C29 C -0.2260(4) 0.2792(4) 0.04294(13)
H31 H -0.2194 0.2201 0.0638
H32 H -0.3180 0.2731 0.0259
H33 H -0.2190 0.3530 0.0562
C30 C 0.3258(4) 0.5457(3) 0.11984(12)
H34 H 0.4059 0.5277 0.1058
C31 C 0.3298(4) 0.6431(3) 0.14745(12)
C32 C 0.2067(5) 0.7448(3) 0.19193(12)
H35 H 0.1235 0.7558 0.2054
C33 C 0.3189(5) 0.8188(3) 0.19965(13)
H36 H 0.3124 0.8801 0.2179
C34 C 0.4410(5) 0.8030(4) 0.18060(13)
H37 H 0.5197 0.8531 0.1856
C35 C 0.4475(4) 0.7134(3) 0.15408(13)
H38 H 0.5306 0.7004 0.1408
Cu2_2 Cu 0.84196(5) 0.46807(4) 0.184062(16)
N2_2 N -0.2879(3) 0.5492(3) 0.22195(10)
N4_2 N -0.3389(3) 0.3651(3) 0.17565(9)
N5 N 0.4782(6) 0.2354(5) 0.94256(16)
C36 C 0.4190(6) 0.2975(5) 0.96032(17)
C37 C 0.3483(6) 0.3773(4) 0.98453(15)
H39 H 0.4129 0.3981 1.0088
H40 H 0.2614 0.3431 0.9930
H41 H 0.3226 0.4446 0.9682
loop_
_geom_bond_atom_site_label_1
_geom_bond_atom_site_label_2
_geom_bond_site_symmetry_1
_geom_bond_site_symmetry_2
Br1 Cu1 1_555 1_555
Cu1 Br2 1_555 1_555
Cu2 Br1 1_555 1_555
Br2 Cu2 1_555 1_555
O1 C9 1_555 1_555
N1 Cu1 1_555 1_555
N2 C12 1_555 1_555
N3 Cu1 1_555 1_555
C1 N1 1_555 1_555
C2 C1 1_555 1_555
H1 C2 1_555 1_555
C3 C2 1_555 1_555
C4 C3 1_555 1_555
H2 C4 1_555 1_555
C5 C4 1_555 1_555
C6 C5 1_555 1_555
C7 C6 1_555 1_555
H3 C7 1_555 1_555
H4 C7 1_555 1_555
H5 C7 1_555 1_555
C8 C6 1_555 1_555
C9 C8 1_555 1_555
C10 O1 1_555 1_555
C11 C9 1_555 1_555
N4 C11 1_555 1_555
C12 C13 1_555 1_555
C13 H6 1_555 1_555
C14 C13 1_555 1_555
H7 C14 1_555 1_555
C15 C14 1_555 1_555
H8 C15 1_555 1_555
C16 N2 1_555 1_555
H9 C16 1_555 1_555
C17 N4 1_555 1_555
H10 C17 1_555 1_555
C18 C11 1_555 1_555
H11 C18 1_555 1_555
C19 C18 1_555 1_555
C20 C8 1_555 1_555
H12 C20 1_555 1_555
C21 C19 1_555 1_555
C22 C21 1_555 1_555
H13 C22 1_555 1_555
H14 C22 1_555 1_555
H15 C22 1_555 1_555
C23 C21 1_555 1_555
H16 C23 1_555 1_555
H17 C23 1_555 1_555
H18 C23 1_555 1_555
C24 C21 1_555 1_555
H19 C24 1_555 1_555
H20 C24 1_555 1_555
H21 C24 1_555 1_555
C25 C6 1_555 1_555
H22 C25 1_555 1_555
H23 C25 1_555 1_555
H24 C25 1_555 1_555
C26 C3 1_555 1_555
C27 C26 1_555 1_555
H25 C27 1_555 1_555
H26 C27 1_555 1_555
H27 C27 1_555 1_555
C28 C26 1_555 1_555
H28 C28 1_555 1_555
H29 C28 1_555 1_555
H30 C28 1_555 1_555
C29 C26 1_555 1_555
H31 C29 1_555 1_555
H32 C29 1_555 1_555
H33 C29 1_555 1_555
C30 N1 1_555 1_555
H34 C30 1_555 1_555
C31 N3 1_555 1_555
C32 N3 1_555 1_555
H35 C32 1_555 1_555
C33 C32 1_555 1_555
H36 C33 1_555 1_555
C34 C33 1_555 1_555
H37 C34 1_555 1_555
C35 C31 1_555 1_555
H38 C35 1_555 1_555
N5 C36 1_555 1_555
C36 C37 1_555 1_555
C37 H39 1_555 1_555
H40 C37 1_555 1_555
H41 C37 1_555 1_555
Cu2_2 N2 1_555 1_555
N2_2 Cu2 1_555 1_555
N4_2 Cu2 1_555 1_555
C1 C10 1_555 1_555
C5 C10 1_555 1_555
N4 Cu2_2 1_555 1_555
C12 C17 1_555 1_555
C15 C16 1_555 1_555
C19 C20 1_555 1_555
C30 C31 1_555 1_555
C34 C35 1_555 1_555

#END
