
#######################################################################
#
#                 Cambridge Crystallographic Data Centre
#                                CCDC 
#
#######################################################################
#
# If this CIF has been generated from an entry in the Cambridge 
# Structural Database, then it will include bibliographic, chemical, 
# crystal, experimental, refinement or atomic coordinate data resulting 
# from the CCDC's data processing and validation procedures.
#
#######################################################################

data_POVPOH
_symmetry_cell_setting           monoclinic
_symmetry_space_group_name_H-M   'P 2/n'
_symmetry_Int_Tables_number      13
_space_group_name_Hall           '-P 2yac'
loop_
_symmetry_equiv_pos_site_id
_symmetry_equiv_pos_as_xyz
1 x,y,z
2 1/2-x,y,1/2-z
3 -x,-y,-z
4 1/2+x,-y,1/2+z
_cell_length_a                   17.2384(9)
_cell_length_b                   5.0757(3)
_cell_length_c                   36.5998(19)
_cell_angle_alpha                90
_cell_angle_beta                 102.450(2)
_cell_angle_gamma                90
_cell_volume                     3127.07
loop_
_atom_site_label
_atom_site_type_symbol
_atom_site_fract_x
_atom_site_fract_y
_atom_site_fract_z
Cu1 Cu 0.50293(5) 0.90693(18) 0.46001(2)
Cu2 Cu 0.52651(6) 0.7127(2) 0.35934(3)
C1 C 0.3965(4) 1.3690(14) 0.4713(2)
C2 C 0.4181(5) 1.0155(18) 0.3119(2)
C3 C 0.3942(4) 1.5717(15) 0.5348(2)
C4 C 0.3113(5) 1.7422(16) 0.4777(2)
H1 H 0.2948 1.8666 0.4931
C5 C 0.3972(5) 1.6645(15) 0.5940(2)
C6 C 0.3906(5) 1.7502(16) 0.6322(2)
C7 C 0.2784(5) 1.7470(16) 0.4408(2)
H2 H 0.2397 1.8706 0.4309
C8 C 0.3694(4) 1.5576(15) 0.4940(2)
C9 C 0.3659(5) 1.2610(17) 0.3651(2)
H3 H 0.3280 1.3778 0.3523
C10 C 0.3694(5) 1.7608(15) 0.5583(2)
H4 H 0.3408 1.9147 0.5513
C11 C 0.3034(5) 1.5652(17) 0.4182(2)
H5 H 0.2802 1.5641 0.3928
C12 C 0.3900(5) 1.2281(16) 0.4038(2)
C13 C 0.4101(5) 1.0842(18) 0.3502(2)
C14 C 0.3631(4) 1.3800(15) 0.4322(2)
O1 O 0.4155(4) 1.5781(12) 0.65799(16)
O2 O 0.4511(3) 1.1819(10) 0.48619(14)
O3 O 0.3637(3) 1.9690(12) 0.63787(16)
O4 O 0.4712(4) 0.8407(12) 0.30992(15)
O5 O 0.3732(4) 1.1178(13) 0.28383(15)
N1 N 0.4571(4) 0.9488(14) 0.37767(18)
N2 N 0.4368(4) 1.3824(12) 0.55652(17)
N3 N 0.4450(4) 1.0346(12) 0.41097(17)
N4 N 0.4368(4) 1.4446(13) 0.59266(17)
Na1 Na 0.3772(5) 0.8727(18) 0.2177(3)
Cu3 Cu 0.02052(6) 1.1962(2) 0.64555(3)
Cu4 Cu 0.00637(5) 1.41354(18) 0.54123(2)
C15 C 0.1387(5) 1.4929(16) 0.6873(2)
C16 C 0.1435(4) 1.9039(15) 0.5609(2)
C17 C 0.2187(5) 2.2796(15) 0.5472(2)
H6 H 0.2556 2.4124 0.5552
C18 C 0.1317(4) 1.5753(16) 0.6476(2)
C19 C 0.1980(4) 2.1048(15) 0.5721(2)
H7 H 0.2213 2.1217 0.5974
C20 C 0.1668(5) 1.7616(15) 0.6295(2)
H8 H 0.2073 1.8775 0.6399
C21 C 0.1836(4) 2.2523(14) 0.5104(2)
H9 H 0.1976 2.3685 0.4933
C22 C 0.1274(4) 2.0580(15) 0.4972(2)
C23 C 0.1052(4) 1.8737(14) 0.5228(2)
C24 C 0.0969(4) 2.0574(14) 0.4568(2)
C25 C 0.0793(5) 2.1457(15) 0.3972(2)
C26 C 0.0740(5) 2.2411(17) 0.3578(2)
C27 C 0.1183(5) 2.2365(15) 0.4317(2)
H10 H 0.1513 2.3829 0.4370
O6 O 0.0897(4) 1.3143(12) 0.69255(16)
O7 O 0.0500(3) 1.6799(10) 0.51076(14)
O8 O 0.1906(3) 1.5926(12) 0.71251(15)
O9 O 0.1051(4) 2.4482(13) 0.35109(18)
N5 N 0.0728(4) 1.5458(13) 0.58777(17)
N6 N 0.0755(4) 1.4494(13) 0.62261(17)
N7 N 0.0468(4) 1.8750(12) 0.43751(17)
N8 N 0.0372(4) 1.9316(13) 0.40091(18)
O10 O 0.0328(4) 2.0860(12) 0.33263(15)
C28 C 0.1280(4) 1.7395(15) 0.5913(2)
Na2 Na 0.3493(4) 1.8262(14) 0.7199(2)
Cu1B Cu 0.49707(5) 1.09307(18) 0.53999(2)
Cu2B Cu 0.47349(6) 1.2873(2) 0.64066(3)
Cu2B_2 Cu 0.47349(6) 2.2873(2) 0.64066(3)
O1B O 0.5845(4) 0.4219(12) 0.34201(16)
O2B O 0.5489(3) 0.8181(10) 0.51381(14)
O3B O 0.6363(3) 1.0310(12) 0.36213(16)
N2B N 0.5632(4) 0.6176(12) 0.44348(17)
N4B N 0.5632(4) 0.5554(13) 0.40734(17)
Na1A Na 0.1228(5) 1.8727(18) 0.2823(3)
Cu3B Cu -0.02052(6) 1.8038(2) 0.35445(3)
Cu4B Cu -0.00637(5) 1.58646(18) 0.45877(2)
O7B O -0.0500(3) 1.3201(10) 0.48924(14)
O8A O 0.3094(3) 1.5926(12) 0.78749(15)
N7B N -0.0468(4) 1.1250(12) 0.56249(17)
N8B N -0.0372(4) 1.0684(13) 0.59909(18)
O10A O 0.4672(4) 1.0860(12) 0.16737(15)
O10B O -0.0328(4) 0.9140(12) 0.66737(15)
Na2A Na 0.1507(4) 1.8262(14) 0.7801(2)
O11 O 0.3837(13) 0.590(4) 0.2329(6)
O12 O 0.2500 0.430(9) 0.2500
Na3? Na 0.3007(6) 0.908(2) 0.1904(3)
Na4? Na 0.4298(19) 0.654(6) 0.2299(8)
Na5? Na 0.4284(6) 1.811(2) 0.7436(3)
Na6? Na 0.3175(6) 2.099(2) 0.7155(3)
loop_
_geom_bond_atom_site_label_1
_geom_bond_atom_site_label_2
_geom_bond_site_symmetry_1
_geom_bond_site_symmetry_2
Cu1 O2 1_555 1_555
Cu2 O4 1_555 1_555
C1 C8 1_555 1_555
C2 C13 1_555 1_555
C3 C8 1_555 1_555
C4 H1 1_555 1_555
C5 C6 1_555 1_555
C6 O1 1_555 1_555
C7 C4 1_555 1_555
H2 C7 1_555 1_555
C8 C4 1_555 1_555
C9 H3 1_555 1_555
C10 C3 1_555 1_555
H4 C10 1_555 1_555
C11 C7 1_555 1_555
H5 C11 1_555 1_555
C12 C9 1_555 1_555
C13 C9 1_555 1_555
C14 C1 1_555 1_555
O1 Na2 1_555 1_555
O2 C1 1_555 1_555
O3 C6 1_555 1_555
O4 C2 1_555 1_555
O5 C2 1_555 1_555
N1 Cu2 1_555 1_555
N2 C3 1_555 1_555
N3 Cu1 1_555 1_555
N4 C5 1_555 1_555
Na1 O5 1_555 1_555
Cu3 O6 1_555 1_555
Cu4 O7 1_555 1_555
C15 C18 1_555 1_555
C16 C19 1_555 1_555
C17 H6 1_555 1_555
C18 C20 1_555 1_555
C19 C17 1_555 1_555
H7 C19 1_555 1_555
C20 H8 1_555 1_555
C21 C17 1_555 1_555
H9 C21 1_555 1_555
C22 C21 1_555 1_555
C23 C16 1_555 1_555
C24 C22 1_555 1_555
C25 C26 1_555 1_555
C26 O9 1_555 1_555
C27 C24 1_555 1_555
H10 C27 1_555 1_555
O6 C15 1_555 1_555
O7 C23 1_555 1_555
O8 C15 1_555 1_555
N5 Cu4 1_555 1_555
N6 Cu3 1_555 1_555
N7 C24 1_555 1_555
N8 C25 1_555 1_555
O10 C26 1_555 1_555
C28 C16 1_555 1_555
Na2 O8 1_555 1_555
Cu1B O2 1_555 1_555
Cu2B O1 1_555 1_555
Cu2B_2 O3 1_555 1_555
O1B Cu2 1_555 1_555
O2B Cu1 1_555 1_555
O3B Cu2 1_555 1_555
N2B Cu1 1_555 1_555
N4B Cu2 1_555 1_555
Na1A O10 1_555 1_555
Cu3B N8 1_555 1_555
Cu4B O7 1_555 1_555
O7B Cu4 1_555 1_555
O8A Na2 1_555 1_555
N7B Cu4 1_555 1_555
N8B Cu3 1_555 1_555
O10A Na1 1_555 1_555
O10B Cu3 1_555 1_555
Na2A O8 1_555 1_555
C5 C10 1_555 1_555
C11 C14 1_555 1_555
C12 C14 1_555 1_555
C12 N3 1_555 1_555
C13 N1 1_555 1_555
N1 N3 1_555 1_555
N2 N4 1_555 1_555
N2 Cu1B 1_555 1_555
N4 Cu2B 1_555 1_555
C18 N6 1_555 1_555
C20 C28 1_555 1_555
C22 C23 1_555 1_555
C25 C27 1_555 1_555
N5 N6 1_555 1_555
N5 C28 1_555 1_555
N7 N8 1_555 1_555
N7 Cu4B 1_555 1_555
O10 Cu3B 1_555 1_555
Cu1B O2B 1_555 1_555
N2B N4B 1_555 1_555
Cu4B O7B 1_555 1_555
O8A Na2A 1_555 1_555
N7B N8B 1_555 1_555

#END
