
#######################################################################
#
#                 Cambridge Crystallographic Data Centre
#                                CCDC 
#
#######################################################################
#
# If this CIF has been generated from an entry in the Cambridge 
# Structural Database, then it will include bibliographic, chemical, 
# crystal, experimental, refinement or atomic coordinate data resulting 
# from the CCDC's data processing and validation procedures.
#
#######################################################################

data_POVRAU
_symmetry_cell_setting           monoclinic
_symmetry_space_group_name_H-M   'P 21/c'
_symmetry_Int_Tables_number      14
_space_group_name_Hall           '-P 2ybc'
loop_
_symmetry_equiv_pos_site_id
_symmetry_equiv_pos_as_xyz
1 x,y,z
2 -x,1/2+y,1/2-z
3 -x,-y,-z
4 x,1/2-y,1/2+z
_cell_length_a                   6.4054(13)
_cell_length_b                   21.781(4)
_cell_length_c                   8.7983(18)
_cell_angle_alpha                90
_cell_angle_beta                 109.63(3)
_cell_angle_gamma                90
_cell_volume                     1156.16
loop_
_atom_site_label
_atom_site_type_symbol
_atom_site_fract_x
_atom_site_fract_y
_atom_site_fract_z
Mn1 Mn 0.60364(15) 1.03244(5) -0.13119(12)
Mn2 Mn 0.96486(16) 1.18459(5) -0.40627(12)
P1 P 1.0900(3) 1.06666(7) -0.16394(19)
P2 P 0.8156(3) 1.17137(7) -0.0911(2)
O1 O 0.8919(7) 1.0276(2) -0.1798(6)
O2 O 1.2436(8) 1.1783(2) -0.0638(6)
H1 H 1.2402 1.2101 -0.0148
O3 O 1.3045(7) 1.0305(2) -0.0824(5)
O4 O 1.0908(8) 1.0955(2) -0.3212(5)
O5 O 0.8508(8) 1.2294(2) 0.0061(6)
O6 O 0.6610(7) 1.1269(2) -0.0493(6)
C1 C 1.0946(10) 1.1340(3) -0.0338(8)
O7 O 0.7468(8) 1.1818(2) -0.2732(6)
O8 O 1.2857(8) 1.2081(3) -0.4248(7)
H2 H 1.3577 1.1973 -0.3288
H3 H 1.2463 1.2443 -0.4570
O9 O 0.4502(9) 1.0636(3) -0.3952(7)
H4 H 0.3853 1.0380 -0.4648
H5 H 0.3388 1.0854 -0.3893
N1 N 1.5139(9) 1.0623(3) 0.2529(7)
N2 N 1.4000(9) 1.1160(3) 0.2308(7)
N3 N 1.7397(10) 1.1397(3) 0.3773(7)
C2 C 1.5349(12) 1.1616(4) 0.3042(9)
H6 H 1.4933 1.2025 0.3045
C3 C 1.7175(12) 1.0788(4) 0.3423(9)
H7 H 1.8346 1.0512 0.3777
C4 C 1.1633(11) 1.1197(3) 0.1477(8)
H8 H 1.0970 1.0809 0.1611
H9 H 1.1030 1.1512 0.1989
Mn1B Mn 1.39636(15) 0.96756(5) 0.13119(12)
Mn1_2 Mn 1.60364(15) 1.03244(5) -0.13119(12)
Mn2C Mn 0.96486(16) 1.31541(5) 0.09373(12)
Mn2_2 Mn 1.96486(16) 1.18459(5) 0.59373(12)
O3B O 0.6955(7) 0.9695(2) 0.0824(5)
O3_2 O 0.3045(7) 1.0305(2) -0.0824(5)
O5C O 0.8508(8) 1.2706(2) -0.4939(6)
N1B N 0.4861(9) 0.9377(3) -0.2529(7)
N3_2 N 0.7397(10) 1.1397(3) -0.6227(7)
loop_
_geom_bond_atom_site_label_1
_geom_bond_atom_site_label_2
_geom_bond_site_symmetry_1
_geom_bond_site_symmetry_2
Mn1 O1 1_555 1_555
Mn2 O4 1_555 1_555
P1 O1 1_555 1_555
P2 O5 1_555 1_555
O2 H1 1_555 1_555
O3 P1 1_555 1_555
O4 P1 1_555 1_555
O5 Mn2C 1_555 1_555
O6 Mn1 1_555 1_555
C1 P1 1_555 1_555
O7 Mn2 1_555 1_555
O8 Mn2 1_555 1_555
H2 O8 1_555 1_555
H3 O8 1_555 1_555
O9 Mn1 1_555 1_555
H4 O9 1_555 1_555
H5 O9 1_555 1_555
N1 N2 1_555 1_555
N2 C2 1_555 1_555
N3 C2 1_555 1_555
C2 H6 1_555 1_555
C3 N1 1_555 1_555
H7 C3 1_555 1_555
C4 C1 1_555 1_555
H8 C4 1_555 1_555
H9 C4 1_555 1_555
Mn1B O3 1_555 1_555
Mn1_2 O3 1_555 1_555
Mn2_2 N3 1_555 1_555
O3B Mn1 1_555 1_555
O3_2 Mn1 1_555 1_555
O5C Mn2 1_555 1_555
N1B Mn1 1_555 1_555
N3_2 Mn2 1_555 1_555
P2 O6 1_555 1_555
P2 C1 1_555 1_555
P2 O7 1_555 1_555
O2 C1 1_555 1_555
N1 Mn1B 1_555 1_555
N2 C4 1_555 1_555
N3 C3 1_555 1_555

#END
