
#######################################################################
#
#                 Cambridge Crystallographic Data Centre
#                                CCDC 
#
#######################################################################
#
# If this CIF has been generated from an entry in the Cambridge 
# Structural Database, then it will include bibliographic, chemical, 
# crystal, experimental, refinement or atomic coordinate data resulting 
# from the CCDC's data processing and validation procedures.
#
#######################################################################

data_POVREY
_symmetry_cell_setting           triclinic
_symmetry_space_group_name_H-M   'P -1'
_symmetry_Int_Tables_number      2
_space_group_name_Hall           '-P 1'
loop_
_symmetry_equiv_pos_site_id
_symmetry_equiv_pos_as_xyz
1 x,y,z
2 -x,-y,-z
_cell_length_a                   6.0730(12)
_cell_length_b                   8.8632(18)
_cell_length_c                   11.334(2)
_cell_angle_alpha                110.97(3)
_cell_angle_beta                 92.94(3)
_cell_angle_gamma                108.14(3)
_cell_volume                     532.169
loop_
_atom_site_label
_atom_site_type_symbol
_atom_site_fract_x
_atom_site_fract_y
_atom_site_fract_z
C1 C 0.2478(7) 0.5807(5) 0.3625(4)
H1 H 0.1513 0.5726 0.4228
C2 C 0.3637(7) 0.5343(5) 0.1870(4)
H2 H 0.3707 0.4908 0.1001
C3 C 0.7836(6) 0.7354(5) 0.2633(4)
H3 H 0.8258 0.6485 0.1979
H4 H 0.8897 0.7731 0.3435
C4 C 0.8191(6) 0.8906(5) 0.2252(3)
Cu1 Cu 0.61906(7) 0.89841(6) 0.56535(4)
Cu2 Cu -0.09450(8) 0.22120(6) 0.14066(4)
N1 N 0.5423(6) 0.6570(4) 0.2786(3)
N2 N 0.4670(6) 0.6893(4) 0.3936(3)
N3 N 0.1756(6) 0.4825(4) 0.2358(3)
O1 O 0.6734(4) 1.0580(3) 0.4420(2)
O2 O 0.8247(5) 1.2186(3) 0.3041(2)
O3 O 1.1030(4) 1.1567(4) 0.4408(2)
O4 O 1.0508(5) 0.7810(3) 0.0287(2)
O5 O 1.1374(4) 1.1039(3) 0.1446(2)
O6 O 1.2786(4) 0.9368(3) 0.2532(2)
O7 O 0.6195(5) 0.8530(4) 0.1310(3)
O8 O -0.4016(5) 0.2612(4) 0.1153(3)
P1 P 0.86142(15) 1.09585(12) 0.36127(8)
P2 P 1.08785(16) 0.93043(12) 0.15494(9)
H5 H 0.503(12) 0.865(9) 0.169(6)
Cu1A Cu 0.38094(7) 1.10159(6) 0.43465(4)
Cu1A_2 Cu 1.38094(7) 1.10159(6) 0.43465(4)
Cu2_2 Cu 0.90550(8) 1.22120(6) 0.14066(4)
Cu2A Cu 1.09450(8) 0.77880(6) -0.14066(4)
O1A O 0.3266(4) 0.9420(3) 0.5580(2)
O2_2 O -0.1753(5) 0.2186(3) 0.3041(2)
O3A O 0.8970(4) 0.8433(4) 0.5592(2)
O4A O -0.0508(5) 0.2190(3) -0.0287(2)
O5_2 O 0.1374(4) 0.1039(3) 0.1446(2)
O6A O 0.7214(4) 1.0632(3) 0.7468(2)
loop_
_geom_bond_atom_site_label_1
_geom_bond_atom_site_label_2
_geom_bond_site_symmetry_1
_geom_bond_site_symmetry_2
C1 H1 1_555 1_555
C2 H2 1_555 1_555
C3 H3 1_555 1_555
H4 C3 1_555 1_555
C4 C3 1_555 1_555
Cu1 N2 1_555 1_555
Cu2 N3 1_555 1_555
N1 C2 1_555 1_555
N2 C1 1_555 1_555
N3 C1 1_555 1_555
O1 Cu1 1_555 1_555
O2 P1 1_555 1_555
O3 P1 1_555 1_555
O4 P2 1_555 1_555
O5 P2 1_555 1_555
O6 P2 1_555 1_555
O7 C4 1_555 1_555
O8 Cu2 1_555 1_555
P1 C4 1_555 1_555
P2 C4 1_555 1_555
H5 O7 1_555 1_555
Cu1A O1 1_555 1_555
Cu1A_2 O3 1_555 1_555
Cu2_2 O2 1_555 1_555
Cu2A O4 1_555 1_555
O1A Cu1 1_555 1_555
O2_2 Cu2 1_555 1_555
O3A Cu1 1_555 1_555
O4A Cu2 1_555 1_555
O5_2 Cu2 1_555 1_555
O6A Cu1 1_555 1_555
C2 N3 1_555 1_555
C3 N1 1_555 1_555
N1 N2 1_555 1_555
O1 P1 1_555 1_555
O5 Cu2_2 1_555 1_555
O6 Cu1A_2 1_555 1_555
Cu1A O1A 1_555 1_555

#END
