
#######################################################################
#
#                 Cambridge Crystallographic Data Centre
#                                CCDC 
#
#######################################################################
#
# If this CIF has been generated from an entry in the Cambridge 
# Structural Database, then it will include bibliographic, chemical, 
# crystal, experimental, refinement or atomic coordinate data resulting 
# from the CCDC's data processing and validation procedures.
#
#######################################################################

data_POVTUQ
_symmetry_cell_setting           tetragonal
_symmetry_space_group_name_H-M   'P 43'
_symmetry_Int_Tables_number      78
_space_group_name_Hall           'P 4cw'
loop_
_symmetry_equiv_pos_site_id
_symmetry_equiv_pos_as_xyz
1 x,y,z
2 -x,-y,1/2+z
3 -y,x,3/4+z
4 y,-x,1/4+z
_cell_length_a                   18.7991(2)
_cell_length_b                   18.7991(2)
_cell_length_c                   13.8136(3)
_cell_angle_alpha                90
_cell_angle_beta                 90
_cell_angle_gamma                90
_cell_volume                     4881.81
loop_
_atom_site_label
_atom_site_type_symbol
_atom_site_fract_x
_atom_site_fract_y
_atom_site_fract_z
Mn1 Mn -0.003872(17) 0.247051(19) 0.39332(2)
Mn2 Mn 0.494593(17) 0.247591(18) 0.42784(2)
Mn3 Mn 0.262543(18) 0.260143(19) 0.53474(3)
O1 O -0.05547(8) 0.26274(9) 0.50547(12)
C1 C -0.03302(12) 0.27198(11) 0.59493(17)
C2 C 0.03930(12) 0.27364(11) 0.62339(17)
C3 C 0.05689(14) 0.28837(13) 0.72004(19)
H1 H 0.1055 0.2902 0.7388
C4 C 0.00450(14) 0.30021(14) 0.7885(2)
H2 H 0.0169 0.3117 0.8533
C5 C -0.06639(14) 0.29515(14) 0.76145(19)
H3 H -0.1022 0.3017 0.8091
C6 C -0.08637(12) 0.28079(12) 0.66692(17)
C7 C 0.09879(11) 0.26032(11) 0.55529(18)
O2 O 0.08742(8) 0.24579(9) 0.46646(12)
O3 O 0.16118(8) 0.26341(10) 0.58936(13)
C8 C -0.16286(13) 0.27263(14) 0.6380(2)
H4 H -0.1727 0.2226 0.6233
H5 H -0.1723 0.3017 0.5805
H6 H -0.1935 0.2883 0.6912
O4 O 0.04589(8) 0.23031(9) 0.27866(12)
C9 C 0.02131(11) 0.22537(11) 0.18959(16)
C10 C -0.05129(11) 0.23044(11) 0.16258(16)
C11 C -0.07114(12) 0.22024(12) 0.06577(18)
H7 H -0.1200 0.2230 0.0486
C12 C -0.02179(13) 0.20629(13) -0.00485(19)
H8 H -0.0363 0.1980 -0.0698
C13 C 0.05034(12) 0.20448(12) 0.02033(18)
H9 H 0.0848 0.1968 -0.0289
C14 C 0.07272(11) 0.21355(11) 0.11444(17)
C15 C -0.10846(12) 0.24678(11) 0.23292(17)
O5 O -0.09575(8) 0.25203(9) 0.32349(12)
O6 O -0.17051(8) 0.25588(8) 0.19994(12)
C16 C 0.14966(12) 0.21004(14) 0.14271(18)
H10 H 0.1577 0.1680 0.1833
H11 H 0.1624 0.2530 0.1790
H12 H 0.1791 0.2068 0.0843
O7 O 0.54994(8) 0.22190(9) 0.53421(13)
C17 C 0.53227(12) 0.21876(11) 0.62715(16)
C18 C 0.46259(12) 0.22548(11) 0.66449(17)
C19 C 0.45086(13) 0.21631(12) 0.76435(19)
H13 H 0.4038 0.2198 0.7890
C20 C 0.50600(14) 0.20245(14) 0.82703(19)
H14 H 0.4971 0.1957 0.8941
C21 C 0.57495(13) 0.19850(12) 0.79086(19)
H15 H 0.6132 0.1899 0.8343
C22 C 0.58929(12) 0.20671(12) 0.69343(18)
C23 C 0.39979(12) 0.24090(11) 0.60254(17)
O8 O 0.40551(8) 0.24478(9) 0.51054(12)
O9 O 0.34005(8) 0.24949(9) 0.64277(13)
C24 C 0.66324(13) 0.20259(17) 0.6545(2)
H16 H 0.6970 0.1988 0.7084
H17 H 0.6736 0.2456 0.6169
H18 H 0.6677 0.1607 0.6127
O10 O 0.27226(8) 0.56354(9) 0.57546(12)
C25 C 0.27918(12) 0.54815(11) 0.48244(17)
C26 C 0.28016(12) 0.47927(11) 0.44276(17)
C27 C 0.29420(14) 0.47059(13) 0.34294(19)
H19 H 0.2959 0.4241 0.3159
C28 C 0.30545(16) 0.52886(14) 0.2845(2)
H20 H 0.3156 0.5225 0.2177
C29 C 0.30189(14) 0.59706(13) 0.3232(2)
H21 H 0.3088 0.6369 0.2819
C30 C 0.28853(13) 0.60809(12) 0.41985(18)
C31 C 0.26789(12) 0.41386(11) 0.50183(18)
O11 O 0.25522(8) 0.41769(8) 0.59214(12)
O12 O 0.27117(8) 0.35436(9) 0.45881(13)
C32 C 0.28228(13) 0.68180(15) 0.4631(2)
H22 H 0.3007 0.7169 0.4170
H23 H 0.3099 0.6841 0.5231
H24 H 0.2322 0.6921 0.4770
N1 N 0.01420(10) 0.36537(11) 0.37118(15)
C33 C 0.08047(12) 0.39123(14) 0.35918(19)
H25 H 0.1196 0.3593 0.3633
C34 C 0.09386(14) 0.46250(15) 0.3411(2)
H26 H 0.1412 0.4791 0.3331
C35 C 0.03683(15) 0.50914(15) 0.3349(2)
H27 H 0.0444 0.5582 0.3221
C36 C -0.03135(14) 0.48292(14) 0.3477(2)
H28 H -0.0713 0.5137 0.3442
C37 C -0.04020(12) 0.41105(13) 0.36588(18)
H29 H -0.0871 0.3934 0.3750
N2 N -0.01764(10) 0.12985(11) 0.41849(15)
C38 C -0.08241(12) 0.10119(13) 0.43262(19)
H30 H -0.1230 0.1312 0.4287
C39 C -0.09213(13) 0.02986(14) 0.4527(2)
H31 H -0.1385 0.0110 0.4619
C40 C -0.03314(14) -0.01350(15) 0.4590(2)
H32 H -0.0384 -0.0626 0.4734
C41 C 0.03397(13) 0.01530(14) 0.4441(2)
H33 H 0.0752 -0.0137 0.4475
C42 C 0.03941(12) 0.08684(14) 0.42427(19)
H34 H 0.0853 0.1067 0.4143
N3 N 0.51173(10) 0.36022(11) 0.46798(15)
C43 C 0.45680(12) 0.40588(13) 0.47598(19)
H35 H 0.4101 0.3889 0.4632
C44 C 0.46544(14) 0.47633(14) 0.5020(2)
H36 H 0.4255 0.5071 0.5071
C45 C 0.53346(14) 0.50126(14) 0.5204(2)
H37 H 0.5409 0.5494 0.5388
C46 C 0.59047(13) 0.45487(14) 0.5117(2)
H38 H 0.6376 0.4709 0.5233
C47 C 0.57763(12) 0.38516(14) 0.48586(19)
H39 H 0.6168 0.3535 0.4805
N4 N 0.48372(9) 0.13533(10) 0.38423(14)
C48 C 0.41964(12) 0.10647(12) 0.36540(17)
H40 H 0.3786 0.1357 0.3703
C49 C 0.41122(13) 0.03630(14) 0.33930(19)
H41 H 0.3653 0.0174 0.3266
C50 C 0.47139(13) -0.00631(14) 0.3319(2)
H42 H 0.4672 -0.0550 0.3146
C51 C 0.53712(13) 0.02306(13) 0.3500(2)
H43 H 0.5790 -0.0050 0.3450
C52 C 0.54141(12) 0.09373(12) 0.37564(17)
H44 H 0.5869 0.1138 0.3877
Mn2C Mn 0.247591(18) 0.505407(17) 0.67784(2)
Mn3B Mn -0.260143(19) 0.262543(18) 0.28474(3)
O6C O 0.25588(8) 0.17051(8) 0.44994(12)
O10B O 0.43646(9) 0.27226(8) 0.32546(12)
O11B O 0.58231(8) 0.25522(8) 0.34214(12)
loop_
_geom_bond_atom_site_label_1
_geom_bond_atom_site_label_2
_geom_bond_site_symmetry_1
_geom_bond_site_symmetry_2
Mn1 O1 1_555 1_555
Mn2 O7 1_555 1_555
Mn3 O3 1_555 1_555
O1 C1 1_555 1_555
C1 C2 1_555 1_555
C2 C3 1_555 1_555
C3 H1 1_555 1_555
C4 C3 1_555 1_555
H2 C4 1_555 1_555
C5 C4 1_555 1_555
H3 C5 1_555 1_555
C6 C1 1_555 1_555
C7 C2 1_555 1_555
O2 Mn1 1_555 1_555
O3 C7 1_555 1_555
C8 C6 1_555 1_555
H4 C8 1_555 1_555
H5 C8 1_555 1_555
H6 C8 1_555 1_555
O4 Mn1 1_555 1_555
C9 O4 1_555 1_555
C10 C9 1_555 1_555
C11 C10 1_555 1_555
H7 C11 1_555 1_555
C12 C11 1_555 1_555
H8 C12 1_555 1_555
C13 C12 1_555 1_555
H9 C13 1_555 1_555
C14 C9 1_555 1_555
C15 C10 1_555 1_555
O5 Mn1 1_555 1_555
O6 C15 1_555 1_555
C16 C14 1_555 1_555
H10 C16 1_555 1_555
H11 C16 1_555 1_555
H12 C16 1_555 1_555
O7 C17 1_555 1_555
C17 C18 1_555 1_555
C18 C19 1_555 1_555
C19 H13 1_555 1_555
C20 C19 1_555 1_555
H14 C20 1_555 1_555
C21 C20 1_555 1_555
H15 C21 1_555 1_555
C22 C17 1_555 1_555
C23 C18 1_555 1_555
O8 Mn2 1_555 1_555
O9 Mn3 1_555 1_555
C24 C22 1_555 1_555
H16 C24 1_555 1_555
H17 C24 1_555 1_555
H18 C24 1_555 1_555
O10 C25 1_555 1_555
C25 C26 1_555 1_555
C26 C27 1_555 1_555
C27 H19 1_555 1_555
C28 C27 1_555 1_555
H20 C28 1_555 1_555
C29 C28 1_555 1_555
H21 C29 1_555 1_555
C30 C25 1_555 1_555
C31 C26 1_555 1_555
O11 C31 1_555 1_555
O12 Mn3 1_555 1_555
C32 C30 1_555 1_555
H22 C32 1_555 1_555
H23 C32 1_555 1_555
H24 C32 1_555 1_555
N1 Mn1 1_555 1_555
C33 N1 1_555 1_555
H25 C33 1_555 1_555
C34 C33 1_555 1_555
H26 C34 1_555 1_555
C35 C34 1_555 1_555
H27 C35 1_555 1_555
C36 C35 1_555 1_555
H28 C36 1_555 1_555
C37 N1 1_555 1_555
H29 C37 1_555 1_555
N2 Mn1 1_555 1_555
C38 N2 1_555 1_555
H30 C38 1_555 1_555
C39 C38 1_555 1_555
H31 C39 1_555 1_555
C40 C39 1_555 1_555
H32 C40 1_555 1_555
C41 C40 1_555 1_555
H33 C41 1_555 1_555
C42 N2 1_555 1_555
H34 C42 1_555 1_555
N3 Mn2 1_555 1_555
C43 N3 1_555 1_555
H35 C43 1_555 1_555
C44 C43 1_555 1_555
H36 C44 1_555 1_555
C45 C44 1_555 1_555
H37 C45 1_555 1_555
C46 C45 1_555 1_555
H38 C46 1_555 1_555
C47 N3 1_555 1_555
H39 C47 1_555 1_555
N4 Mn2 1_555 1_555
C48 N4 1_555 1_555
H40 C48 1_555 1_555
C49 C48 1_555 1_555
H41 C49 1_555 1_555
C50 C49 1_555 1_555
H42 C50 1_555 1_555
C51 C50 1_555 1_555
H43 C51 1_555 1_555
C52 N4 1_555 1_555
H44 C52 1_555 1_555
Mn2C O10 1_555 1_555
Mn3B O6 1_555 1_555
O6C Mn3 1_555 1_555
O10B Mn2 1_555 1_555
O11B Mn2 1_555 1_555
C5 C6 1_555 1_555
C7 O2 1_555 1_555
C13 C14 1_555 1_555
C15 O5 1_555 1_555
C21 C22 1_555 1_555
C23 O8 1_555 1_555
C23 O9 1_555 1_555
C29 C30 1_555 1_555
C31 O12 1_555 1_555
O11 Mn2C 1_555 1_555
C36 C37 1_555 1_555
C41 C42 1_555 1_555
C46 C47 1_555 1_555
C51 C52 1_555 1_555

#END
