
#######################################################################
#
#                 Cambridge Crystallographic Data Centre
#                                CCDC 
#
#######################################################################
#
# If this CIF has been generated from an entry in the Cambridge 
# Structural Database, then it will include bibliographic, chemical, 
# crystal, experimental, refinement or atomic coordinate data resulting 
# from the CCDC's data processing and validation procedures.
#
#######################################################################

data_POVVUS
_symmetry_cell_setting           triclinic
_symmetry_space_group_name_H-M   'P -1'
_symmetry_Int_Tables_number      2
_space_group_name_Hall           '-P 1'
loop_
_symmetry_equiv_pos_site_id
_symmetry_equiv_pos_as_xyz
1 x,y,z
2 -x,-y,-z
_cell_length_a                   5.4886(10)
_cell_length_b                   9.5526(10)
_cell_length_c                   10.6823(10)
_cell_angle_alpha                70.396
_cell_angle_beta                 82.478
_cell_angle_gamma                78.258
_cell_volume                     515.379
loop_
_atom_site_label
_atom_site_type_symbol
_atom_site_fract_x
_atom_site_fract_y
_atom_site_fract_z
Cu1 Cu 0.9327 0.1212 0.0623
Cu2 Cu 1.5000 0.5000 0.0000
Cu3 Cu 1.5000 0.0000 0.0000
Cu4 Cu 1.0000 0.5000 0.0000
S1 S 1.3706 0.3492 0.7767
P1 P 1.3224 0.1874 0.1937
O1 O 1.0582 0.1484 0.2306
O2 O 1.5124 0.0886 0.1319
O3 O 1.2629 0.3424 0.0971
O4 O 1.2601 0.2175 0.8594
O5 O 1.6515 0.3212 0.7627
O6 O 1.2580 0.4932 0.8074
O7 O 0.8038 0.0727 -0.0988
O8 O 1.1928 0.6600 0.0266
C1 C 1.4491 0.1811 0.3449
C2 C 1.2663 0.2677 0.4318
C3 C 1.3847 0.2586 0.5543
C4 C 1.2749 0.3880 0.6131
Cu1A Cu 2.0673 0.8788 -0.0623
Cu1A_2 Cu 1.0673 -0.1212 -0.0623
Cu1_2 Cu 1.9327 0.1212 0.0623
Cu1_3 Cu 0.9327 0.1212 1.0623
Cu1A_3 Cu 1.0673 0.8788 -0.0623
Cu1A_4 Cu 2.0673 0.8788 -1.0623
Cu2_2 Cu 1.5000 0.5000 1.0000
Cu2_3 Cu 1.5000 0.5000 -1.0000
Cu3_2 Cu 1.5000 0.0000 1.0000
Cu3_3 Cu 0.5000 0.0000 0.0000
Cu3_4 Cu 1.5000 1.0000 0.0000
Cu3_5 Cu 1.5000 1.0000 -1.0000
Cu4_2 Cu 2.0000 0.5000 0.0000
Cu4_3 Cu 1.0000 0.5000 1.0000
Cu4_4 Cu 2.0000 0.5000 -1.0000
S1A S 1.6294 0.6508 -0.7767
P1A P 1.6776 0.8126 -0.1937
O1A O 1.9418 0.8516 -0.2306
O2A O 1.4876 0.9114 -0.1319
O2_2 O 0.5124 0.0886 0.1319
O2A_2 O 1.4876 -0.0886 -0.1319
O2A_3 O 2.4876 0.9114 -0.1319
O3A O 1.7371 0.6576 -0.0971
O3A_2 O 0.7371 0.6576 -0.0971
O4A O 1.7399 0.7825 -0.8594
O4_2 O 1.2601 0.2175 -0.1406
O4A_2 O 1.7399 -0.2175 0.1406
O4A_3 O 1.7399 0.7825 0.1406
O5A O 1.3485 0.6788 -0.7627
O6A O 1.7420 0.5068 -0.8074
O6_2 O 1.2580 0.4932 -0.1926
O6A_2 O 1.7420 0.5068 0.1926
O6A_3 O 0.7420 0.5068 0.1926
O7A O 1.1962 -0.0727 0.0988
O7_2 O 1.8038 0.0727 -0.0988
O7A_2 O 2.1962 0.9273 0.0988
O7_3 O 1.8038 1.0727 -0.0988
O8A O 1.8072 0.3400 -0.0266
O8A_2 O 0.8072 0.3400 -0.0266
O8_2 O 2.1928 0.6600 0.0266
C1A C 1.5509 0.8189 -0.3449
C2A C 1.7337 0.7323 -0.4318
C3A C 1.6153 0.7414 -0.5543
C4A C 1.7251 0.6120 -0.6131
loop_
_geom_bond_atom_site_label_1
_geom_bond_atom_site_label_2
_geom_bond_site_symmetry_1
_geom_bond_site_symmetry_2
Cu1 O1 1_555 1_555
Cu2 O3 1_555 1_555
Cu3 O2 1_555 1_555
Cu4 O3 1_555 1_555
S1 O4 1_555 1_555
P1 O1 1_555 1_555
O2 P1 1_555 1_555
O3 P1 1_555 1_555
O4 Cu1_3 1_555 1_555
O5 S1 1_555 1_555
O6 S1 1_555 1_555
O7 Cu1 1_555 1_555
O8 Cu2 1_555 1_555
C1 P1 1_555 1_555
C2 C1 1_555 1_555
C3 C2 1_555 1_555
C4 S1 1_555 1_555
Cu1A O1A 1_555 1_555
Cu1A_2 O7 1_555 1_555
Cu1_2 O2 1_555 1_555
Cu1A_3 O8 1_555 1_555
Cu1A_4 O4A 1_555 1_555
Cu2_2 O6 1_555 1_555
Cu2_3 O6A 1_555 1_555
Cu3_2 O4 1_555 1_555
Cu3_3 O7 1_555 1_555
Cu3_4 O2A 1_555 1_555
Cu3_5 O4A 1_555 1_555
Cu4_2 O3A 1_555 1_555
Cu4_3 O6 1_555 1_555
Cu4_4 O6A 1_555 1_555
S1A O4A 1_555 1_555
P1A O1A 1_555 1_555
O2A Cu1A_3 1_555 1_555
O2_2 Cu1 1_555 1_555
O2A_2 Cu3 1_555 1_555
O2A_3 Cu1A 1_555 1_555
O3A Cu2 1_555 1_555
O3A_2 Cu4 1_555 1_555
O4_2 Cu1 1_555 1_555
O4A_2 Cu3 1_555 1_555
O4A_3 Cu1A 1_555 1_555
O5A S1A 1_555 1_555
O6A S1A 1_555 1_555
O6_2 Cu2 1_555 1_555
O6A_2 Cu2 1_555 1_555
O6A_3 Cu4 1_555 1_555
O7A Cu1 1_555 1_555
O7_2 Cu3 1_555 1_555
O7A_2 Cu1A 1_555 1_555
O7_3 Cu1A 1_555 1_555
O8A Cu2 1_555 1_555
O8A_2 Cu1 1_555 1_555
O8_2 Cu1A 1_555 1_555
C1A P1A 1_555 1_555
C2A C1A 1_555 1_555
C3A C2A 1_555 1_555
C4A S1A 1_555 1_555
Cu3 O4_2 1_555 1_555
Cu3 O7A 1_555 1_555
Cu4 O8 1_555 1_555
Cu4 O6_2 1_555 1_555
Cu4 O8A_2 1_555 1_555
C3 C4 1_555 1_555
Cu1A_2 O2A_2 1_555 1_555
Cu1A_2 O7A 1_555 1_555
Cu1_2 O7_2 1_555 1_555
Cu1_2 O8A 1_555 1_555
Cu3_3 O2_2 1_555 1_555
Cu3_4 O4A_3 1_555 1_555
Cu3_4 O7_3 1_555 1_555
Cu4_2 O6A_2 1_555 1_555
Cu4_2 O8A 1_555 1_555
Cu4_2 O8_2 1_555 1_555
P1A O2A 1_555 1_555
P1A O3A 1_555 1_555
C3A C4A 1_555 1_555

#END
