
#######################################################################
#
#                 Cambridge Crystallographic Data Centre
#                                CCDC 
#
#######################################################################
#
# If this CIF has been generated from an entry in the Cambridge 
# Structural Database, then it will include bibliographic, chemical, 
# crystal, experimental, refinement or atomic coordinate data resulting 
# from the CCDC's data processing and validation procedures.
#
#######################################################################

data_POVVEC
_symmetry_cell_setting           monoclinic
_symmetry_space_group_name_H-M   'P 21/c'
_symmetry_Int_Tables_number      14
_space_group_name_Hall           '-P 2ybc'
loop_
_symmetry_equiv_pos_site_id
_symmetry_equiv_pos_as_xyz
1 x,y,z
2 -x,1/2+y,1/2-z
3 -x,-y,-z
4 x,1/2-y,1/2+z
_cell_length_a                   18.888(3)
_cell_length_b                   13.7658(14)
_cell_length_c                   20.054(3)
_cell_angle_alpha                90
_cell_angle_beta                 93.780(12)
_cell_angle_gamma                90
_cell_volume                     5202.87
loop_
_atom_site_label
_atom_site_type_symbol
_atom_site_fract_x
_atom_site_fract_y
_atom_site_fract_z
Mn1 Mn 0.27196(9) 0.25334(13) 0.26402(8)
Mn2 Mn 0.5000 0.0000 0.5000
Mn3 Mn 0.0000 0.0000 0.5000
Mn4 Mn 0.26808(10) 0.23916(14) 0.51201(10)
O1 O 0.2567(4) 0.3851(6) 0.2363(4)
C1 C 0.2323(6) 0.4562(8) 0.2776(7)
C2 C 0.2275(6) 0.4488(8) 0.3451(6)
C3 C 0.2037(6) 0.5317(9) 0.3807(6)
H1 H 0.1994 0.5268 0.4265
C4 C 0.1870(6) 0.6182(9) 0.3490(6)
C5 C 0.1910(6) 0.6197(9) 0.2790(7)
H2 H 0.1769 0.6760 0.2561
C6 C 0.2145(6) 0.5426(8) 0.2426(6)
H3 H 0.2185 0.5474 0.1968
C7 C 0.2459(6) 0.3608(10) 0.3848(7)
O2 O 0.2648(4) 0.2832(6) 0.3557(4)
O3 O 0.2418(4) 0.3620(5) 0.4473(4)
C8 C 0.1623(7) 0.7054(9) 0.3871(6)
H4 H 0.1629 0.6900 0.4338
H5 H 0.1149 0.7222 0.3710
H6 H 0.1933 0.7593 0.3807
O4 O 0.2843(4) 0.3778(5) 0.7923(4)
C9 C 0.2803(6) 0.4569(9) 0.7512(7)
C10 C 0.2758(6) 0.4512(9) 0.6814(6)
C11 C 0.2728(6) 0.5408(10) 0.6461(7)
H7 H 0.2681 0.5386 0.5996
C12 C 0.2764(6) 0.6297(9) 0.6760(7)
C13 C 0.2816(6) 0.6314(9) 0.7459(7)
H8 H 0.2827 0.6913 0.7674
C14 C 0.2851(6) 0.5476(9) 0.7845(6)
H9 H 0.2904 0.5510 0.8309
C15 C 0.2739(6) 0.3606(10) 0.6423(8)
O5 O 0.2804(4) 0.2791(6) 0.6733(4)
O6 O 0.2667(5) 0.3628(6) 0.5808(5)
C16 C 0.2774(7) 0.7235(9) 0.6361(7)
H10 H 0.2732 0.7088 0.5892
H11 H 0.2383 0.7638 0.6472
H12 H 0.3212 0.7572 0.6468
O7 O 0.5721(4) 0.0831(6) 0.5266(5)
C17 C 0.5699(6) 0.1801(11) 0.5405(7)
C18 C 0.5070(6) 0.2346(9) 0.5347(6)
C19 C 0.5119(7) 0.3353(10) 0.5490(6)
H13 H 0.4708 0.3725 0.5454
C20 C 0.5733(8) 0.3789(10) 0.5674(8)
C21 C 0.6346(8) 0.3242(12) 0.5748(8)
H14 H 0.6775 0.3541 0.5876
C22 C 0.6324(7) 0.2217(10) 0.5629(7)
H15 H 0.6730 0.1841 0.5704
C23 C 0.4356(7) 0.1977(10) 0.5150(6)
O8 O 0.4274(4) 0.1081(6) 0.4967(5)
O9 O 0.3824(4) 0.2512(6) 0.5131(5)
C24 C 0.5806(9) 0.4920(11) 0.5786(9)
H16 H 0.5347 0.5218 0.5722
H17 H 0.6115 0.5185 0.5471
H18 H 0.6000 0.5045 0.6232
O10 O -0.0564(4) 0.1081(6) 0.4798(4)
C25 C -0.0333(6) 0.1984(9) 0.4645(5)
C26 C 0.0365(6) 0.2298(9) 0.4740(5)
C27 C 0.0517(6) 0.3276(9) 0.4560(6)
H19 H 0.0984 0.3494 0.4607
C28 C -0.0002(7) 0.3905(9) 0.4318(6)
C29 C -0.0689(7) 0.3593(9) 0.4230(6)
H20 H -0.1043 0.4017 0.4068
C30 C -0.0858(6) 0.2626(10) 0.4385(6)
H21 H -0.1324 0.2410 0.4315
C31 C 0.0957(7) 0.1709(10) 0.4993(6)
O11 O 0.0867(4) 0.0767(6) 0.5102(4)
O12 O 0.1557(5) 0.2060(6) 0.5098(5)
C32 C 0.0190(7) 0.4962(9) 0.4135(7)
H22 H -0.0232 0.5300 0.3973
H23 H 0.0524 0.4955 0.3794
H24 H 0.0396 0.5287 0.4524
O13 O 0.2807(5) 0.1221(7) 0.5869(4)
H25 H 0.283(8) 0.131(11) 0.632(2)
H26 H 0.253(5) 0.074(7) 0.593(6)
O14 O 0.2855(6) 0.1156(7) 0.4421(5)
H27 H 0.300(8) 0.063(7) 0.463(6)
H28 H 0.289(8) 0.120(10) 0.398(2)
N1 N 0.3936(5) 0.2808(6) 0.2738(5)
C33 C 0.4316(7) 0.2913(8) 0.2198(6)
H29 H 0.4088 0.2879 0.1774
C34 C 0.5040(8) 0.3073(10) 0.2263(8)
H30 H 0.5292 0.3134 0.1882
C35 C 0.5385(7) 0.3139(10) 0.2870(8)
H31 H 0.5869 0.3268 0.2914
C36 C 0.5003(7) 0.3012(10) 0.3423(7)
H32 H 0.5227 0.3035 0.3850
C37 C 0.4280(7) 0.2848(8) 0.3332(7)
H33 H 0.4023 0.2762 0.3708
N2 N 0.1482(5) 0.2302(7) 0.2462(5)
C38 C 0.1088(7) 0.2139(8) 0.2979(7)
H34 H 0.1315 0.2109 0.3405
C39 C 0.0353(7) 0.2012(9) 0.2915(6)
H35 H 0.0083 0.1930 0.3282
C40 C 0.0060(7) 0.2015(9) 0.2278(7)
H36 H -0.0426 0.1910 0.2205
C41 C 0.0456(7) 0.2168(8) 0.1739(7)
H37 H 0.0244 0.2174 0.1307
C42 C 0.1163(7) 0.2311(8) 0.1851(6)
H38 H 0.1434 0.2420 0.1488
N3 N 0.5178(7) 0.0277(7) 0.3918(6)
C43 C 0.4637(8) 0.0384(9) 0.3455(10)
H39 H 0.4178 0.0318 0.3591
C44 C 0.4718(8) 0.0587(9) 0.2790(10)
H40 H 0.4323 0.0682 0.2497
C45 C 0.5383(10) 0.0649(10) 0.2568(8)
H41 H 0.5458 0.0796 0.2126
C46 C 0.5940(8) 0.0480(11) 0.3037(11)
H42 H 0.6401 0.0482 0.2901
C47 C 0.5834(8) 0.0315(11) 0.3680(10)
H43 H 0.6227 0.0223 0.3977
N4 N 0.0160(6) -0.0201(7) 0.3889(6)
C48 C -0.0378(7) -0.0231(9) 0.3427(8)
H44 H -0.0831 -0.0107 0.3560
C49 C -0.0303(7) -0.0440(9) 0.2747(7)
H45 H -0.0697 -0.0475 0.2445
C50 C 0.0358(8) -0.0587(9) 0.2546(7)
H46 H 0.0429 -0.0726 0.2101
C51 C 0.0926(8) -0.0527(10) 0.3014(8)
H47 H 0.1385 -0.0614 0.2884
C52 C 0.0815(7) -0.0340(9) 0.3670(7)
H48 H 0.1205 -0.0308 0.3977
Mn1B Mn 0.72804(9) -0.25334(13) 0.73598(8)
Mn1C Mn 0.27196(9) 0.24666(13) 0.76402(8)
Mn1A Mn 0.72804(9) -0.24666(13) 0.23598(8)
Mn3_2 Mn 1.0000 0.0000 0.5000
Mn4B Mn 0.73192(10) -0.23916(14) 0.48799(10)
O1B O 0.7433(4) -0.3851(6) 0.7637(4)
C1B C 0.7677(6) -0.4562(8) 0.7224(7)
C2B C 0.7725(6) -0.4488(8) 0.6549(6)
C3B C 0.7963(6) -0.5317(9) 0.6193(6)
H1B H 0.8006 -0.5268 0.5735
C4B C 0.8130(6) -0.6182(9) 0.6510(6)
C5B C 0.8090(6) -0.6197(9) 0.7210(7)
H2B H 0.8231 -0.6760 0.7439
C6B C 0.7855(6) -0.5426(8) 0.7574(6)
H3B H 0.7815 -0.5474 0.8032
C7B C 0.7541(6) -0.3608(10) 0.6152(7)
O2B O 0.7352(4) -0.2832(6) 0.6443(4)
O3B O 0.7582(4) -0.3620(5) 0.5527(4)
C8B C 0.8377(7) -0.7054(9) 0.6129(6)
H4B H 0.8371 -0.6900 0.5662
H5B H 0.8851 -0.7222 0.6290
H6B H 0.8067 -0.7593 0.6193
O4B O 0.7157(4) -0.3778(5) 0.2077(4)
O4C O 0.2843(4) 0.1222(5) 0.2923(4)
O4A O 0.7157(4) -0.1222(5) 0.7077(4)
C9B C 0.7197(6) -0.4569(9) 0.2488(7)
C10B C 0.7242(6) -0.4512(9) 0.3186(6)
C11B C 0.7272(6) -0.5408(10) 0.3539(7)
H7B H 0.7319 -0.5386 0.4004
C12B C 0.7236(6) -0.6297(9) 0.3240(7)
C13B C 0.7184(6) -0.6314(9) 0.2541(7)
H8B H 0.7173 -0.6913 0.2326
C14B C 0.7149(6) -0.5476(9) 0.2155(6)
H9B H 0.7096 -0.5510 0.1691
C15B C 0.7261(6) -0.3606(10) 0.3577(8)
O5B O 0.7196(4) -0.2791(6) 0.3267(4)
O5C O 0.2804(4) 0.2209(6) 0.1733(4)
O5A O 0.7196(4) -0.2209(6) 0.8267(4)
O6B O 0.7333(5) -0.3628(6) 0.4192(5)
C16B C 0.7226(7) -0.7235(9) 0.3639(7)
H10B H 0.7268 -0.7088 0.4108
H11B H 0.7617 -0.7638 0.3528
H12B H 0.6788 -0.7572 0.3532
O7B O 0.4279(4) -0.0831(6) 0.4734(5)
C17B C 0.4301(6) -0.1801(11) 0.4595(7)
C18B C 0.4930(6) -0.2346(9) 0.4653(6)
C19B C 0.4881(7) -0.3353(10) 0.4510(6)
H13B H 0.5292 -0.3725 0.4546
C20B C 0.4267(8) -0.3789(10) 0.4326(8)
C21B C 0.3654(8) -0.3242(12) 0.4252(8)
H14B H 0.3225 -0.3541 0.4124
C22B C 0.3676(7) -0.2217(10) 0.4371(7)
H15B H 0.3270 -0.1841 0.4296
C23B C 0.5644(7) -0.1977(10) 0.4850(6)
O8B O 0.5726(4) -0.1081(6) 0.5033(5)
O9B O 0.6176(4) -0.2512(6) 0.4869(5)
C24B C 0.4194(9) -0.4920(11) 0.4214(9)
H16B H 0.4653 -0.5218 0.4278
H17B H 0.3885 -0.5185 0.4529
H18B H 0.4000 -0.5045 0.3768
O10B O 1.0564(4) -0.1081(6) 0.5202(4)
O10B_2 O 0.0564(4) -0.1081(6) 0.5202(4)
C25B C 1.0333(6) -0.1984(9) 0.5355(5)
C26B C 0.9635(6) -0.2298(9) 0.5260(5)
C27B C 0.9483(6) -0.3276(9) 0.5440(6)
H19B H 0.9016 -0.3494 0.5393
C28B C 1.0002(7) -0.3905(9) 0.5682(6)
C29B C 1.0689(7) -0.3593(9) 0.5770(6)
H20B H 1.1043 -0.4017 0.5932
C30B C 1.0858(6) -0.2626(10) 0.5615(6)
H21B H 1.1324 -0.2410 0.5685
C31B C 0.9043(7) -0.1709(10) 0.5007(6)
O11B O 0.9133(4) -0.0767(6) 0.4898(4)
O11B_2 O -0.0867(4) -0.0767(6) 0.4898(4)
O12B O 0.8443(5) -0.2060(6) 0.4902(5)
C32B C 0.9810(7) -0.4962(9) 0.5865(7)
H22B H 1.0232 -0.5300 0.6027
H23B H 0.9476 -0.4955 0.6206
H24B H 0.9604 -0.5287 0.5476
O13B O 0.7193(5) -0.1221(7) 0.4131(4)
H25B H 0.717(8) -0.131(11) 0.368(2)
H26B H 0.747(5) -0.074(7) 0.407(6)
O14B O 0.7145(6) -0.1156(7) 0.5579(5)
H27B H 0.700(8) -0.063(7) 0.537(6)
H28B H 0.711(8) -0.120(10) 0.602(2)
N1B N 0.6064(5) -0.2808(6) 0.7262(5)
C33B C 0.5684(7) -0.2913(8) 0.7802(6)
H29B H 0.5912 -0.2879 0.8226
C34B C 0.4960(8) -0.3073(10) 0.7737(8)
H30B H 0.4708 -0.3134 0.8118
C35B C 0.4615(7) -0.3139(10) 0.7130(8)
H31B H 0.4131 -0.3268 0.7086
C36B C 0.4997(7) -0.3012(10) 0.6577(7)
H32B H 0.4773 -0.3035 0.6150
C37B C 0.5720(7) -0.2848(8) 0.6668(7)
H33B H 0.5977 -0.2762 0.6292
N2B N 0.8518(5) -0.2302(7) 0.7538(5)
C38B C 0.8912(7) -0.2139(8) 0.7021(7)
H34B H 0.8685 -0.2109 0.6595
C39B C 0.9647(7) -0.2012(9) 0.7085(6)
H35B H 0.9917 -0.1930 0.6718
C40B C 0.9940(7) -0.2015(9) 0.7722(7)
H36B H 1.0426 -0.1910 0.7795
C41B C 0.9544(7) -0.2168(8) 0.8261(7)
H37B H 0.9756 -0.2174 0.8693
C42B C 0.8837(7) -0.2311(8) 0.8149(6)
H38B H 0.8566 -0.2420 0.8512
N3B N 0.4822(7) -0.0277(7) 0.6082(6)
C43B C 0.5363(8) -0.0384(9) 0.6545(10)
H39B H 0.5822 -0.0318 0.6409
C44B C 0.5282(8) -0.0587(9) 0.7210(10)
H40B H 0.5677 -0.0682 0.7503
C45B C 0.4617(10) -0.0649(10) 0.7432(8)
H41B H 0.4542 -0.0796 0.7874
C46B C 0.4060(8) -0.0480(11) 0.6963(11)
H42B H 0.3599 -0.0482 0.7099
C47B C 0.4166(8) -0.0315(11) 0.6320(10)
H43B H 0.3773 -0.0223 0.6023
N4B N -0.0160(6) 0.0201(7) 0.6111(6)
C48B C 0.0378(7) 0.0231(9) 0.6573(8)
H44B H 0.0831 0.0107 0.6440
C49B C 0.0303(7) 0.0440(9) 0.7253(7)
H45B H 0.0697 0.0475 0.7555
C50B C -0.0358(8) 0.0587(9) 0.7454(7)
H46B H -0.0429 0.0726 0.7899
C51B C -0.0926(8) 0.0527(10) 0.6986(8)
H47B H -0.1385 0.0614 0.7116
C52B C -0.0815(7) 0.0340(9) 0.6330(7)
H48B H -0.1205 0.0308 0.6023
O15 O 0.2035(5) -0.0427(8) 0.5643(5)
H49 H 0.1609 -0.0356 0.5547
C53 C 0.2333(8) -0.0894(12) 0.5140(8)
H50 H 0.2509 -0.0426 0.4837
H51 H 0.1983 -0.1296 0.4906
H52 H 0.2717 -0.1291 0.5319
loop_
_geom_bond_atom_site_label_1
_geom_bond_atom_site_label_2
_geom_bond_site_symmetry_1
_geom_bond_site_symmetry_2
Mn1 O1 1_555 1_555
Mn2 O7 1_555 1_555
Mn3 O10 1_555 1_555
Mn4 O3 1_555 1_555
O1 C1 1_555 1_555
C1 C2 1_555 1_555
C2 C3 1_555 1_555
C3 H1 1_555 1_555
C4 C3 1_555 1_555
C5 C4 1_555 1_555
H2 C5 1_555 1_555
C6 C1 1_555 1_555
H3 C6 1_555 1_555
C7 C2 1_555 1_555
O2 Mn1 1_555 1_555
O3 C7 1_555 1_555
C8 C4 1_555 1_555
H4 C8 1_555 1_555
H5 C8 1_555 1_555
H6 C8 1_555 1_555
O4 C9 1_555 1_555
C9 C10 1_555 1_555
C10 C11 1_555 1_555
C11 H7 1_555 1_555
C12 C11 1_555 1_555
C13 C12 1_555 1_555
H8 C13 1_555 1_555
C14 C9 1_555 1_555
H9 C14 1_555 1_555
C15 C10 1_555 1_555
O5 C15 1_555 1_555
O6 Mn4 1_555 1_555
C16 C12 1_555 1_555
H10 C16 1_555 1_555
H11 C16 1_555 1_555
H12 C16 1_555 1_555
O7 C17 1_555 1_555
C17 C18 1_555 1_555
C18 C19 1_555 1_555
C19 H13 1_555 1_555
C20 C19 1_555 1_555
C21 C20 1_555 1_555
H14 C21 1_555 1_555
C22 C17 1_555 1_555
H15 C22 1_555 1_555
C23 C18 1_555 1_555
O8 Mn2 1_555 1_555
O9 Mn4 1_555 1_555
C24 C20 1_555 1_555
H16 C24 1_555 1_555
H17 C24 1_555 1_555
H18 C24 1_555 1_555
O10 C25 1_555 1_555
C25 C26 1_555 1_555
C26 C27 1_555 1_555
C27 H19 1_555 1_555
C28 C27 1_555 1_555
C29 C28 1_555 1_555
H20 C29 1_555 1_555
C30 C25 1_555 1_555
H21 C30 1_555 1_555
C31 C26 1_555 1_555
O11 Mn3 1_555 1_555
O12 Mn4 1_555 1_555
C32 C28 1_555 1_555
H22 C32 1_555 1_555
H23 C32 1_555 1_555
H24 C32 1_555 1_555
O13 Mn4 1_555 1_555
H25 O13 1_555 1_555
H26 O13 1_555 1_555
O14 Mn4 1_555 1_555
H27 O14 1_555 1_555
H28 O14 1_555 1_555
N1 Mn1 1_555 1_555
C33 N1 1_555 1_555
H29 C33 1_555 1_555
C34 C33 1_555 1_555
H30 C34 1_555 1_555
C35 C34 1_555 1_555
H31 C35 1_555 1_555
C36 C35 1_555 1_555
H32 C36 1_555 1_555
C37 N1 1_555 1_555
H33 C37 1_555 1_555
N2 Mn1 1_555 1_555
C38 N2 1_555 1_555
H34 C38 1_555 1_555
C39 C38 1_555 1_555
H35 C39 1_555 1_555
C40 C39 1_555 1_555
H36 C40 1_555 1_555
C41 C40 1_555 1_555
H37 C41 1_555 1_555
C42 N2 1_555 1_555
H38 C42 1_555 1_555
N3 Mn2 1_555 1_555
C43 N3 1_555 1_555
H39 C43 1_555 1_555
C44 C43 1_555 1_555
H40 C44 1_555 1_555
C45 C44 1_555 1_555
H41 C45 1_555 1_555
C46 C45 1_555 1_555
H42 C46 1_555 1_555
C47 N3 1_555 1_555
H43 C47 1_555 1_555
N4 Mn3 1_555 1_555
C48 N4 1_555 1_555
H44 C48 1_555 1_555
C49 C48 1_555 1_555
H45 C49 1_555 1_555
C50 C49 1_555 1_555
H46 C50 1_555 1_555
C51 C50 1_555 1_555
H47 C51 1_555 1_555
C52 N4 1_555 1_555
H48 C52 1_555 1_555
O15 H49 1_555 1_555
C53 O15 1_555 1_555
H50 C53 1_555 1_555
H51 C53 1_555 1_555
H52 C53 1_555 1_555
Mn1B O1B 1_555 1_555
Mn1C O4 1_555 1_555
Mn1A O4B 1_555 1_555
Mn3_2 O10B 1_555 1_555
Mn4B O3B 1_555 1_555
O1B C1B 1_555 1_555
C1B C2B 1_555 1_555
C2B C3B 1_555 1_555
C3B H1B 1_555 1_555
C4B C3B 1_555 1_555
C5B C4B 1_555 1_555
H2B C5B 1_555 1_555
C6B C1B 1_555 1_555
H3B C6B 1_555 1_555
C7B C2B 1_555 1_555
O2B Mn1B 1_555 1_555
O3B C7B 1_555 1_555
C8B C4B 1_555 1_555
H4B C8B 1_555 1_555
H5B C8B 1_555 1_555
H6B C8B 1_555 1_555
O4B C9B 1_555 1_555
O4C Mn1 1_555 1_555
O4A Mn1B 1_555 1_555
C9B C10B 1_555 1_555
C10B C11B 1_555 1_555
C11B H7B 1_555 1_555
C12B C11B 1_555 1_555
C13B C12B 1_555 1_555
H8B C13B 1_555 1_555
C14B C9B 1_555 1_555
H9B C14B 1_555 1_555
C15B C10B 1_555 1_555
O5B Mn1A 1_555 1_555
O5C Mn1 1_555 1_555
O5A Mn1B 1_555 1_555
O6B Mn4B 1_555 1_555
C16B C12B 1_555 1_555
H10B C16B 1_555 1_555
H11B C16B 1_555 1_555
H12B C16B 1_555 1_555
O7B Mn2 1_555 1_555
C17B O7B 1_555 1_555
C18B C17B 1_555 1_555
C19B C18B 1_555 1_555
H13B C19B 1_555 1_555
C20B C19B 1_555 1_555
C21B C20B 1_555 1_555
H14B C21B 1_555 1_555
C22B C17B 1_555 1_555
H15B C22B 1_555 1_555
C23B C18B 1_555 1_555
O8B Mn2 1_555 1_555
O9B Mn4B 1_555 1_555
C24B C20B 1_555 1_555
H16B C24B 1_555 1_555
H17B C24B 1_555 1_555
H18B C24B 1_555 1_555
O10B C25B 1_555 1_555
O10B_2 Mn3 1_555 1_555
C25B C26B 1_555 1_555
C26B C27B 1_555 1_555
C27B H19B 1_555 1_555
C28B C27B 1_555 1_555
C29B C28B 1_555 1_555
H20B C29B 1_555 1_555
C30B C25B 1_555 1_555
H21B C30B 1_555 1_555
C31B C26B 1_555 1_555
O11B Mn3_2 1_555 1_555
O11B_2 Mn3 1_555 1_555
O12B Mn4B 1_555 1_555
C32B C28B 1_555 1_555
H22B C32B 1_555 1_555
H23B C32B 1_555 1_555
H24B C32B 1_555 1_555
O13B Mn4B 1_555 1_555
H25B O13B 1_555 1_555
H26B O13B 1_555 1_555
O14B Mn4B 1_555 1_555
H27B O14B 1_555 1_555
H28B O14B 1_555 1_555
N1B Mn1B 1_555 1_555
C33B N1B 1_555 1_555
H29B C33B 1_555 1_555
C34B C33B 1_555 1_555
H30B C34B 1_555 1_555
C35B C34B 1_555 1_555
H31B C35B 1_555 1_555
C36B C35B 1_555 1_555
H32B C36B 1_555 1_555
C37B N1B 1_555 1_555
H33B C37B 1_555 1_555
N2B Mn1B 1_555 1_555
C38B N2B 1_555 1_555
H34B C38B 1_555 1_555
C39B C38B 1_555 1_555
H35B C39B 1_555 1_555
C40B C39B 1_555 1_555
H36B C40B 1_555 1_555
C41B C40B 1_555 1_555
H37B C41B 1_555 1_555
C42B N2B 1_555 1_555
H38B C42B 1_555 1_555
N3B Mn2 1_555 1_555
C43B N3B 1_555 1_555
H39B C43B 1_555 1_555
C44B C43B 1_555 1_555
H40B C44B 1_555 1_555
C45B C44B 1_555 1_555
H41B C45B 1_555 1_555
C46B C45B 1_555 1_555
H42B C46B 1_555 1_555
C47B N3B 1_555 1_555
H43B C47B 1_555 1_555
N4B Mn3 1_555 1_555
C48B N4B 1_555 1_555
H44B C48B 1_555 1_555
C49B C48B 1_555 1_555
H45B C49B 1_555 1_555
C50B C49B 1_555 1_555
H46B C50B 1_555 1_555
C51B C50B 1_555 1_555
H47B C51B 1_555 1_555
C52B N4B 1_555 1_555
H48B C52B 1_555 1_555
C5 C6 1_555 1_555
C7 O2 1_555 1_555
C13 C14 1_555 1_555
C15 O6 1_555 1_555
O5 Mn1C 1_555 1_555
C21 C22 1_555 1_555
C23 O8 1_555 1_555
C23 O9 1_555 1_555
C29 C30 1_555 1_555
C31 O11 1_555 1_555
C31 O12 1_555 1_555
C36 C37 1_555 1_555
C41 C42 1_555 1_555
C46 C47 1_555 1_555
C51 C52 1_555 1_555
C5B C6B 1_555 1_555
C7B O2B 1_555 1_555
C13B C14B 1_555 1_555
C15B O5B 1_555 1_555
C15B O6B 1_555 1_555
C21B C22B 1_555 1_555
C23B O8B 1_555 1_555
C23B O9B 1_555 1_555
C29B C30B 1_555 1_555
C31B O11B 1_555 1_555
C31B O12B 1_555 1_555
C36B C37B 1_555 1_555
C41B C42B 1_555 1_555
C46B C47B 1_555 1_555
C51B C52B 1_555 1_555

#END
