
#######################################################################
#
#                 Cambridge Crystallographic Data Centre
#                                CCDC 
#
#######################################################################
#
# If this CIF has been generated from an entry in the Cambridge 
# Structural Database, then it will include bibliographic, chemical, 
# crystal, experimental, refinement or atomic coordinate data resulting 
# from the CCDC's data processing and validation procedures.
#
#######################################################################

data_POVWUT
_symmetry_cell_setting           orthorhombic
_symmetry_space_group_name_H-M   'P b c a'
_symmetry_Int_Tables_number      61
_space_group_name_Hall           '-P 2ac 2ab'
loop_
_symmetry_equiv_pos_site_id
_symmetry_equiv_pos_as_xyz
1 x,y,z
2 1/2-x,-y,1/2+z
3 -x,1/2+y,1/2-z
4 1/2+x,1/2-y,-z
5 -x,-y,-z
6 1/2+x,y,1/2-z
7 x,1/2-y,1/2+z
8 1/2-x,1/2+y,z
_cell_length_a                   18.2543(17)
_cell_length_b                   19.8942(18)
_cell_length_c                   20.7455(19)
_cell_angle_alpha                90
_cell_angle_beta                 90
_cell_angle_gamma                90
_cell_volume                     7533.83
loop_
_atom_site_label
_atom_site_type_symbol
_atom_site_fract_x
_atom_site_fract_y
_atom_site_fract_z
C1 C 0.03814(12) 1.45108(10) 0.40372(9)
H1 H 0.0086 1.4899 0.3979
C2 C 0.02960(12) 1.41370(10) 0.45914(9)
H2 H -0.0056 1.4263 0.4906
C3 C 0.07335(11) 1.35724(9) 0.46820(9)
C4 C 0.12041(11) 1.33820(10) 0.41932(9)
H3 H 0.1490 1.2985 0.4231
C5 C 0.12514(12) 1.37785(10) 0.36491(10)
H4 H 0.1571 1.3643 0.3312
C6 C 0.07320(11) 1.32420(9) 0.53133(9)
C7 C 0.08362(11) 1.25229(10) 0.60866(9)
C8 C 0.09141(11) 1.18984(10) 0.64589(9)
C9 C 0.03614(12) 1.17318(10) 0.68838(9)
H5 H -0.0063 1.2005 0.6920
C10 C 0.04372(12) 1.11608(10) 0.72540(9)
H6 H 0.0053 1.1043 0.7542
C11 C 0.15584(12) 1.09283(10) 0.68094(10)
H7 H 0.1978 1.0648 0.6784
C12 C 0.15217(12) 1.14871(11) 0.64157(10)
H8 H 0.1906 1.1586 0.6122
C13 C 0.17644(12) 0.55832(10) 0.40304(9)
H9 H 0.1981 0.5150 0.4054
C14 C 0.19387(12) 0.60465(10) 0.44960(10)
H10 H 0.2272 0.5935 0.4831
C15 C 0.16213(11) 0.66802(10) 0.44715(9)
C16 C 0.11299(11) 0.68124(10) 0.39820(9)
H11 H 0.0891 0.7236 0.3958
C17 C 0.09903(11) 0.63227(10) 0.35278(9)
H12 H 0.0658 0.6422 0.3188
C18 C 0.18631(11) 0.71877(9) 0.49405(9)
C19 C 0.18983(11) 0.79716(9) 0.56638(9)
C20 C 0.17015(11) 0.84622(9) 0.61627(9)
C21 C 0.21553(11) 0.85189(10) 0.66980(9)
H13 H 0.2583 0.8249 0.6733
C22 C 0.19779(12) 0.89703(10) 0.71775(9)
H14 H 0.2290 0.9005 0.7542
C23 C 0.09537(12) 0.93193(10) 0.66237(9)
H15 H 0.0537 0.9604 0.6595
C24 C 0.10931(11) 0.88796(10) 0.61251(9)
H16 H 0.0778 0.8862 0.5761
Cu1 Cu 0.111754(14) 1.000092(11) 0.786239(11)
N1 N 0.13800(10) 0.93625(8) 0.71476(7)
N2 N 0.25722(10) 0.78018(9) 0.55393(8)
N3 N 0.25528(10) 0.73007(9) 0.50767(8)
N4 N 0.14296(9) 0.76013(8) 0.52906(7)
N5 N 0.06663(9) 0.75337(9) 0.53160(8)
H17 H 0.0477 0.7483 0.5713
H18 H 0.0464 0.7913 0.5150
N6 N 0.13023(9) 0.57140(8) 0.35439(7)
N7 N 0.10276(9) 1.07661(8) 0.72250(7)
N8 N 0.07376(10) 1.31174(8) 0.63508(8)
N9 N 0.06776(10) 1.35775(8) 0.58570(8)
N10 N 0.08334(9) 1.25789(8) 0.54343(7)
N11 N 0.08842(10) 1.20664(8) 0.49674(8)
H19 H 0.0671 1.1717 0.5117
H20 H 0.1377 1.1979 0.4926
N12 N 0.08662(9) 1.43471(8) 0.35765(7)
O1 O -0.01320(8) 0.97267(7) 0.77501(7)
H21 H -0.0244 0.9352 0.7587
H22 H -0.0496 0.9978 0.7821
O12 O 0.25017(10) 1.02966(8) 0.79681(8)
H31 H 0.2809 1.0298 0.7659
H32 H 0.2668 1.0532 0.8276
Cu1F Cu 0.111754(14) 0.499908(11) 0.286239(11)
Cu1F_2 Cu 0.111754(14) 1.499908(11) 0.286239(11)
N6F N 0.13023(9) 0.92860(8) 0.85439(7)
N12F N 0.08662(9) 1.06529(8) 0.85765(7)
N13 N 0.09541(12) 0.72449(10) 0.69924(10)
O5 O 0.13899(13) 0.68917(10) 0.66869(10)
O6 O 0.10954(11) 0.74474(10) 0.75427(9)
O7 O 0.03617(11) 0.74168(10) 0.67374(8)
N14 N 0.02183(12) 0.92460(11) 0.42487(10)
O2 O 0.04409(12) 0.87038(10) 0.44588(10)
O3 O 0.05720(13) 0.95418(11) 0.38301(9)
O4 O -0.03675(14) 0.94661(14) 0.44356(12)
O8 O -0.25289(11) 0.72629(10) 0.68106(10)
H23 H -0.2892 0.7314 0.7058
H24 H -0.2354 0.7654 0.6756
O9 O 0.20172(10) 0.87781(10) 0.39427(9)
H25 H 0.2123 0.8413 0.3753
H26 H 0.1555 0.8786 0.3975
O10 O 0.23169(11) 0.95657(10) 0.50439(9)
H27 H 0.2011 0.9865 0.4934
H28 H 0.2273 0.9245 0.4779
O11 O 0.35238(13) 0.98404(9) 0.58233(10)
H29 H 0.3106 0.9762 0.5651
H30 H 0.3774 0.9479 0.5861
O13 O 0.35624(10) 1.04739(8) 0.69674(8)
H33 H 0.3489 1.0279 0.6610
H34 H 0.3566 1.0898 0.6938
O14 O -0.13054(12) 0.94301(10) 0.55042(11)
H35 H -0.1073 0.9441 0.5148
H36 H -0.1138 0.9689 0.5797
O15 O -0.05069(9) 0.84292(7) 0.73373(7)
H37 H -0.0622 0.8324 0.7721
H38 H -0.0232 0.8135 0.7168
O16 O -0.17915(11) 0.84615(11) 0.65950(9)
H39 H -0.1717 0.8755 0.6305
H40 H -0.1383 0.8428 0.6787
loop_
_geom_bond_atom_site_label_1
_geom_bond_atom_site_label_2
_geom_bond_site_symmetry_1
_geom_bond_site_symmetry_2
C1 H1 1_555 1_555
C2 C1 1_555 1_555
H2 C2 1_555 1_555
C3 C2 1_555 1_555
C4 C3 1_555 1_555
H3 C4 1_555 1_555
C5 C4 1_555 1_555
H4 C5 1_555 1_555
C6 C3 1_555 1_555
C7 C8 1_555 1_555
C8 C9 1_555 1_555
C9 H5 1_555 1_555
C10 C9 1_555 1_555
H6 C10 1_555 1_555
C11 H7 1_555 1_555
C12 C8 1_555 1_555
H8 C12 1_555 1_555
C13 H9 1_555 1_555
C14 C13 1_555 1_555
H10 C14 1_555 1_555
C15 C14 1_555 1_555
C16 C15 1_555 1_555
H11 C16 1_555 1_555
C17 C16 1_555 1_555
H12 C17 1_555 1_555
C18 C15 1_555 1_555
C19 C20 1_555 1_555
C20 C21 1_555 1_555
C21 H13 1_555 1_555
C22 C21 1_555 1_555
H14 C22 1_555 1_555
C23 H15 1_555 1_555
C24 C20 1_555 1_555
H16 C24 1_555 1_555
Cu1 N1 1_555 1_555
N1 C22 1_555 1_555
N2 C19 1_555 1_555
N3 C18 1_555 1_555
N4 C18 1_555 1_555
N5 N4 1_555 1_555
H17 N5 1_555 1_555
H18 N5 1_555 1_555
N6 C13 1_555 1_555
N7 C10 1_555 1_555
N8 C7 1_555 1_555
N9 C6 1_555 1_555
N10 C6 1_555 1_555
N11 N10 1_555 1_555
H19 N11 1_555 1_555
H20 N11 1_555 1_555
N12 C1 1_555 1_555
N13 O5 1_555 1_555
N14 O2 1_555 1_555
O1 Cu1 1_555 1_555
H21 O1 1_555 1_555
H22 O1 1_555 1_555
O3 N14 1_555 1_555
O4 N14 1_555 1_555
O6 N13 1_555 1_555
O7 N13 1_555 1_555
O8 H23 1_555 1_555
H24 O8 1_555 1_555
O9 H25 1_555 1_555
H26 O9 1_555 1_555
O10 H27 1_555 1_555
H28 O10 1_555 1_555
O11 H29 1_555 1_555
H30 O11 1_555 1_555
O12 Cu1 1_555 1_555
H31 O12 1_555 1_555
H32 O12 1_555 1_555
O13 H33 1_555 1_555
H34 O13 1_555 1_555
O14 H35 1_555 1_555
H36 O14 1_555 1_555
O15 H37 1_555 1_555
H38 O15 1_555 1_555
O16 H39 1_555 1_555
H40 O16 1_555 1_555
Cu1F N6 1_555 1_555
Cu1F_2 N12 1_555 1_555
N6F Cu1 1_555 1_555
N12F Cu1 1_555 1_555
C5 N12 1_555 1_555
C7 N10 1_555 1_555
C11 C12 1_555 1_555
C11 N7 1_555 1_555
C17 N6 1_555 1_555
C19 N4 1_555 1_555
C23 C24 1_555 1_555
C23 N1 1_555 1_555
Cu1 N7 1_555 1_555
N2 N3 1_555 1_555
N8 N9 1_555 1_555

#END
