
#######################################################################
#
#                 Cambridge Crystallographic Data Centre
#                                CCDC 
#
#######################################################################
#
# If this CIF has been generated from an entry in the Cambridge 
# Structural Database, then it will include bibliographic, chemical, 
# crystal, experimental, refinement or atomic coordinate data resulting 
# from the CCDC's data processing and validation procedures.
#
#######################################################################

data_POWCEL
_symmetry_cell_setting           triclinic
_symmetry_space_group_name_H-M   'P -1'
_symmetry_Int_Tables_number      2
_space_group_name_Hall           '-P 1'
loop_
_symmetry_equiv_pos_site_id
_symmetry_equiv_pos_as_xyz
1 x,y,z
2 -x,-y,-z
_cell_length_a                   13.350(3)
_cell_length_b                   13.418(3)
_cell_length_c                   13.621(3)
_cell_angle_alpha                60.97(3)
_cell_angle_beta                 83.08(3)
_cell_angle_gamma                80.95(3)
_cell_volume                     2104.08
loop_
_atom_site_label
_atom_site_type_symbol
_atom_site_fract_x
_atom_site_fract_y
_atom_site_fract_z
O2 O 0.7602(16) 0.1433(16) 0.0316(19)
N11 N 0.642(2) 0.140(2) 0.154(2)
C22 C 0.701(2) 0.167(2) 0.211(3)
H30 H 0.6597 0.1743 0.2718
H31 H 0.7278 0.2387 0.1607
H32 H 0.7565 0.1065 0.2428
C23 C 0.544(2) 0.141(2) 0.168(3)
H33 H 0.5205 0.1513 0.2335
H34 H 0.5246 0.0695 0.1794
H35 H 0.5122 0.2043 0.1021
C24 C 0.686(3) 0.128(2) 0.067(3)
H36 H 0.6466 0.1020 0.0335
W1 W 0.76603(3) 0.65885(4) 0.72882(3)
Cu1 Cu 0.68123(12) 0.73390(13) 0.53471(12)
Cu2 Cu 0.67004(12) 0.50009(12) 0.72648(13)
Cu3 Cu 0.86893(12) 0.57298(13) 0.60164(12)
Cu4 Cu 0.49169(12) 0.16468(13) 0.80744(12)
S1 S 0.8387(2) 0.7579(3) 0.5506(2)
S2 S 0.5963(2) 0.6703(3) 0.7007(2)
S3 S 0.8262(2) 0.4696(2) 0.7833(2)
N1 N 0.5768(9) 0.8177(9) 0.3183(9)
N2 N 0.5575(9) 0.3022(10) 0.7677(9)
N3 N 0.4963(10) 0.0382(10) 0.9555(9)
N4 N 0.7567(7) 0.8505(8) 0.8068(8)
N5 N 0.7286(7) 0.8332(8) 0.7223(8)
N6 N 0.9090(7) 0.7071(8) 0.8712(8)
N7 N 0.9124(7) 0.6655(8) 0.7958(8)
N8 N 0.7389(7) 0.6582(8) 0.9676(8)
N9 N 0.7176(7) 0.6005(8) 0.9134(7)
C1 C 0.6176(10) 0.7944(10) 0.3980(9)
C2 C 0.5992(9) 0.3786(11) 0.7508(10)
C3 C 0.9689(9) 0.5162(10) 0.5243(10)
C4 C 0.7495(12) 1.0073(11) 0.8585(12)
H1 H 0.7057 0.9765 0.9263
H2 H 0.7352 1.0902 0.8188
H3 H 0.8199 0.9863 0.8785
C5 C 0.7306(9) 0.9593(10) 0.7849(10)
C6 C 0.6826(9) 1.0166(10) 0.6839(10)
H4 H 0.6554 1.0942 0.6477
C7 C 0.6828(9) 0.9372(9) 0.6473(10)
C8 C 0.6396(11) 0.9629(11) 0.5410(10)
H5 H 0.6926 0.9476 0.4931
H6 H 0.6119 1.0430 0.5027
H7 H 0.5861 0.9149 0.5578
C9 C 1.0242(11) 0.7351(13) 0.9847(12)
H8 H 0.9983 0.8154 0.9565
H9 H 1.0970 0.7256 0.9913
H10 H 0.9917 0.6900 1.0579
C10 C 1.0017(10) 0.6955(11) 0.9054(11)
C11 C 1.0685(10) 0.6490(12) 0.8491(12)
H11 H 1.1393 0.6337 0.8547
C12 C 1.0124(10) 0.6291(11) 0.7833(11)
C13 C 1.0565(11) 0.5861(14) 0.7055(14)
H12 H 1.0299 0.5150 0.7257
H13 H 1.1298 0.5723 0.7098
H14 H 1.0391 0.6424 0.6294
C14 C 0.7153(12) 0.6539(14) 1.1537(11)
H15 H 0.7849 0.6313 1.1767
H16 H 0.6693 0.6218 1.2194
H17 H 0.7019 0.7369 1.1160
C15 C 0.7002(10) 0.6105(11) 1.0759(9)
C16 C 0.6512(10) 0.5191(11) 1.0923(9)
H18 H 0.6172 0.4692 1.1589
C17 C 0.6624(9) 0.5163(10) 0.9911(9)
C18 C 0.6216(11) 0.4287(12) 0.9735(11)
H19 H 0.5733 0.4669 0.9147
H20 H 0.5880 0.3762 1.0428
H21 H 0.6771 0.3863 0.9515
B1 B 0.8066(10) 0.7541(13) 0.9100(11)
H22 H 0.832(8) 0.771(9) 0.968(9)
O1 O 0.7233(7) 0.5488(8) 0.5195(8)
N10 N 0.6839(9) 0.4134(9) 0.4809(9)
C19 C 0.7671(13) 0.3286(12) 0.5493(14)
H23 H 0.8172 0.3687 0.5577
H24 H 0.7989 0.2851 0.5119
H25 H 0.7393 0.2769 0.6229
C20 C 0.6159(14) 0.3753(15) 0.4353(14)
H26 H 0.6414 0.2989 0.4468
H27 H 0.6111 0.4275 0.3554
H28 H 0.5491 0.3740 0.4728
C21 C 0.6696(11) 0.5120(12) 0.4771(10)
H29 H 0.6132 0.5618 0.4388
N3A N 0.5037(10) -0.0382(10) 1.0445(9)
C3A C 1.0311(9) 0.4838(10) 0.4757(10)
W1A W 0.23397(3) -0.65885(4) 1.27118(3)
Cu1A Cu 0.31877(12) -0.73390(13) 1.46529(12)
Cu2A Cu 0.32996(12) -0.50009(12) 1.27352(13)
Cu3A Cu 0.13107(12) -0.57298(13) 1.39836(12)
Cu4A Cu 0.50831(12) -0.16468(13) 1.19256(12)
S1A S 0.1613(2) -0.7579(3) 1.4494(2)
S2A S 0.4037(2) -0.6703(3) 1.2993(2)
S3A S 0.1738(2) -0.4696(2) 1.2167(2)
N1A N 0.4232(9) -0.8177(9) 1.6817(9)
N2A N 0.4425(9) -0.3022(10) 1.2323(9)
N4A N 0.2433(7) -0.8505(8) 1.1932(8)
N5A N 0.2714(7) -0.8332(8) 1.2777(8)
N6A N 0.0910(7) -0.7071(8) 1.1288(8)
N7A N 0.0876(7) -0.6655(8) 1.2042(8)
N8A N 0.2611(7) -0.6582(8) 1.0324(8)
N9A N 0.2824(7) -0.6005(8) 1.0866(7)
C1A C 0.3824(10) -0.7944(10) 1.6020(9)
C2A C 0.4008(9) -0.3786(11) 1.2492(10)
C4A C 0.2505(12) -1.0073(11) 1.1415(12)
H1A H 0.2943 -0.9765 1.0737
H2A H 0.2648 -1.0902 1.1812
H3A H 0.1801 -0.9863 1.1215
C5A C 0.2694(9) -0.9593(10) 1.2151(10)
C6A C 0.3174(9) -1.0166(10) 1.3161(10)
H4A H 0.3446 -1.0942 1.3523
C7A C 0.3172(9) -0.9372(9) 1.3527(10)
C8A C 0.3604(11) -0.9629(11) 1.4590(10)
H5A H 0.3074 -0.9476 1.5069
H6A H 0.3881 -1.0430 1.4973
H7A H 0.4139 -0.9149 1.4422
C9A C -0.0242(11) -0.7351(13) 1.0153(12)
H8A H 0.0017 -0.8154 1.0435
H9A H -0.0970 -0.7256 1.0087
H10A H 0.0083 -0.6900 0.9421
C10A C -0.0017(10) -0.6955(11) 1.0946(11)
C11A C -0.0685(10) -0.6490(12) 1.1509(12)
H11A H -0.1393 -0.6337 1.1453
C12A C -0.0124(10) -0.6291(11) 1.2167(11)
C13A C -0.0565(11) -0.5861(14) 1.2945(14)
H12A H -0.0299 -0.5150 1.2743
H13A H -0.1298 -0.5723 1.2902
H14A H -0.0391 -0.6424 1.3706
C14A C 0.2847(12) -0.6539(14) 0.8463(11)
H15A H 0.2151 -0.6313 0.8233
H16A H 0.3307 -0.6218 0.7806
H17A H 0.2981 -0.7369 0.8840
C15A C 0.2998(10) -0.6105(11) 0.9241(9)
C16A C 0.3488(10) -0.5191(11) 0.9077(9)
H18A H 0.3828 -0.4692 0.8411
C17A C 0.3376(9) -0.5163(10) 1.0089(9)
C18A C 0.3784(11) -0.4287(12) 1.0265(11)
H19A H 0.4267 -0.4669 1.0853
H20A H 0.4120 -0.3762 0.9572
H21A H 0.3229 -0.3863 1.0485
B1A B 0.1934(10) -0.7541(13) 1.0900(11)
H22A H 0.168(8) -0.771(9) 1.032(9)
O1A O 0.2767(7) -0.5488(8) 1.4805(8)
N10A N 0.3161(9) -0.4134(9) 1.5191(9)
C19A C 0.2329(13) -0.3286(12) 1.4507(14)
H23A H 0.1828 -0.3687 1.4423
H24A H 0.2011 -0.2851 1.4881
H25A H 0.2607 -0.2769 1.3771
C20A C 0.3841(14) -0.3753(15) 1.5647(14)
H26A H 0.3586 -0.2989 1.5532
H27A H 0.3889 -0.4275 1.6446
H28A H 0.4509 -0.3740 1.5272
C21A C 0.3304(11) -0.5120(12) 1.5229(10)
H29A H 0.3868 -0.5618 1.5612
Cu3A_2 Cu 1.13107(12) 0.42702(13) 0.39836(12)
Cu4_2 Cu 0.49169(12) -0.83532(13) 1.80744(12)
Cu4A_2 Cu 0.50831(12) 0.83532(13) 0.19256(12)
N1_2 N 0.5768(9) -0.1823(9) 1.3183(9)
N1A_2 N 0.4232(9) 0.1823(9) 0.6817(9)
C3A_2 C 0.0311(9) -0.5162(10) 1.4757(10)
C25? C 0.5037(10) -0.0382(10) 1.0445(9)
N12? N 1.0311(9) 0.4838(10) 0.4757(10)
O3? O 1.0471(14) 0.9719(16) 0.0332(16)
N13? N 0.9503(15) 0.8603(18) 0.1962(17)
C26? C 0.8563(18) 0.821(2) 0.238(3)
H37? H 0.8605 0.7642 0.3171
H38? H 0.8364 0.7865 0.1965
H39? H 0.8063 0.8847 0.2310
C27? C 1.0415(19) 0.790(2) 0.240(3)
H40? H 1.0286 0.7332 0.3175
H41? H 1.0915 0.8369 0.2369
H42? H 1.0671 0.7515 0.1959
C28? C 0.9675(19) 0.941(2) 0.0879(19)
H43? H 0.9085 0.9804 0.0484
loop_
_geom_bond_atom_site_label_1
_geom_bond_atom_site_label_2
_geom_bond_site_symmetry_1
_geom_bond_site_symmetry_2
W1 S1 1_555 1_555
Cu1 S1 1_555 1_555
Cu2 S2 1_555 1_555
Cu3 S1 1_555 1_555
Cu4 N2 1_555 1_555
S2 W1 1_555 1_555
S3 W1 1_555 1_555
N1 C1 1_555 1_555
N2 C2 1_555 1_555
N3 Cu4 1_555 1_555
N4 N5 1_555 1_555
N5 W1 1_555 1_555
N6 N7 1_555 1_555
N7 W1 1_555 1_555
N8 N9 1_555 1_555
N9 W1 1_555 1_555
C1 Cu1 1_555 1_555
C2 Cu2 1_555 1_555
C3 Cu3 1_555 1_555
C4 H1 1_555 1_555
H2 C4 1_555 1_555
H3 C4 1_555 1_555
C5 N4 1_555 1_555
C6 C5 1_555 1_555
H4 C6 1_555 1_555
C7 N5 1_555 1_555
C8 C7 1_555 1_555
H5 C8 1_555 1_555
H6 C8 1_555 1_555
H7 C8 1_555 1_555
C9 H8 1_555 1_555
H9 C9 1_555 1_555
H10 C9 1_555 1_555
C10 N6 1_555 1_555
C11 C10 1_555 1_555
H11 C11 1_555 1_555
C12 N7 1_555 1_555
C13 C12 1_555 1_555
H12 C13 1_555 1_555
H13 C13 1_555 1_555
H14 C13 1_555 1_555
C14 H15 1_555 1_555
H16 C14 1_555 1_555
H17 C14 1_555 1_555
C15 N8 1_555 1_555
C16 C15 1_555 1_555
H18 C16 1_555 1_555
C17 N9 1_555 1_555
C18 C17 1_555 1_555
H19 C18 1_555 1_555
H20 C18 1_555 1_555
H21 C18 1_555 1_555
B1 N4 1_555 1_555
H22 B1 1_555 1_555
O1 Cu1 1_555 1_555
N10 C19 1_555 1_555
C19 H23 1_555 1_555
H24 C19 1_555 1_555
H25 C19 1_555 1_555
C20 N10 1_555 1_555
H26 C20 1_555 1_555
H27 C20 1_555 1_555
H28 C20 1_555 1_555
C21 O1 1_555 1_555
H29 C21 1_555 1_555
O2 C24 1_555 1_555
N11 C22 1_555 1_555
C22 H30 1_555 1_555
H31 C22 1_555 1_555
H32 C22 1_555 1_555
C23 N11 1_555 1_555
H33 C23 1_555 1_555
H34 C23 1_555 1_555
H35 C23 1_555 1_555
C24 N11 1_555 1_555
H36 C24 1_555 1_555
N3A N3 1_555 1_555
C3A C3 1_555 1_555
W1A S1A 1_555 1_555
Cu1A S1A 1_555 1_555
Cu2A S2A 1_555 1_555
Cu3A S1A 1_555 1_555
Cu4A N3A 1_555 1_555
S2A W1A 1_555 1_555
S3A W1A 1_555 1_555
N1A C1A 1_555 1_555
N2A Cu4A 1_555 1_555
N4A N5A 1_555 1_555
N5A W1A 1_555 1_555
N6A N7A 1_555 1_555
N7A W1A 1_555 1_555
N8A N9A 1_555 1_555
N9A W1A 1_555 1_555
C1A Cu1A 1_555 1_555
C2A Cu2A 1_555 1_555
C4A H1A 1_555 1_555
H2A C4A 1_555 1_555
H3A C4A 1_555 1_555
C5A N4A 1_555 1_555
C6A C5A 1_555 1_555
H4A C6A 1_555 1_555
C7A N5A 1_555 1_555
C8A C7A 1_555 1_555
H5A C8A 1_555 1_555
H6A C8A 1_555 1_555
H7A C8A 1_555 1_555
C9A H8A 1_555 1_555
H9A C9A 1_555 1_555
H10A C9A 1_555 1_555
C10A N6A 1_555 1_555
C11A C10A 1_555 1_555
H11A C11A 1_555 1_555
C12A N7A 1_555 1_555
C13A C12A 1_555 1_555
H12A C13A 1_555 1_555
H13A C13A 1_555 1_555
H14A C13A 1_555 1_555
C14A H15A 1_555 1_555
H16A C14A 1_555 1_555
H17A C14A 1_555 1_555
C15A N8A 1_555 1_555
C16A C15A 1_555 1_555
H18A C16A 1_555 1_555
C17A N9A 1_555 1_555
C18A C17A 1_555 1_555
H19A C18A 1_555 1_555
H20A C18A 1_555 1_555
H21A C18A 1_555 1_555
B1A N4A 1_555 1_555
H22A B1A 1_555 1_555
O1A Cu1A 1_555 1_555
N10A C19A 1_555 1_555
C19A H23A 1_555 1_555
H24A C19A 1_555 1_555
H25A C19A 1_555 1_555
C20A N10A 1_555 1_555
H26A C20A 1_555 1_555
H27A C20A 1_555 1_555
H28A C20A 1_555 1_555
C21A O1A 1_555 1_555
H29A C21A 1_555 1_555
Cu3A_2 C3A 1_555 1_555
Cu4_2 N1A 1_555 1_555
Cu4A_2 N1 1_555 1_555
N1_2 Cu4A 1_555 1_555
N1A_2 Cu4 1_555 1_555
C3A_2 Cu3A 1_555 1_555
Cu1 S2 1_555 1_555
Cu2 S3 1_555 1_555
Cu2 O1 1_555 1_555
Cu3 S3 1_555 1_555
Cu3 O1 1_555 1_555
N6 B1 1_555 1_555
N8 B1 1_555 1_555
C4 C5 1_555 1_555
C6 C7 1_555 1_555
C9 C10 1_555 1_555
C11 C12 1_555 1_555
C14 C15 1_555 1_555
C16 C17 1_555 1_555
N10 C21 1_555 1_555
Cu1A S2A 1_555 1_555
Cu2A S3A 1_555 1_555
Cu2A O1A 1_555 1_555
Cu3A S3A 1_555 1_555
Cu3A O1A 1_555 1_555
N2A C2A 1_555 1_555
N6A B1A 1_555 1_555
N8A B1A 1_555 1_555
C4A C5A 1_555 1_555
C6A C7A 1_555 1_555
C9A C10A 1_555 1_555
C11A C12A 1_555 1_555
C14A C15A 1_555 1_555
C16A C17A 1_555 1_555
N10A C21A 1_555 1_555

#END
