
#######################################################################
#
#                 Cambridge Crystallographic Data Centre
#                                CCDC 
#
#######################################################################
#
# If this CIF has been generated from an entry in the Cambridge 
# Structural Database, then it will include bibliographic, chemical, 
# crystal, experimental, refinement or atomic coordinate data resulting 
# from the CCDC's data processing and validation procedures.
#
#######################################################################

data_POWFOX
_symmetry_cell_setting           monoclinic
_symmetry_space_group_name_H-M   'P 2/n'
_symmetry_Int_Tables_number      13
_space_group_name_Hall           '-P 2yac'
loop_
_symmetry_equiv_pos_site_id
_symmetry_equiv_pos_as_xyz
1 x,y,z
2 1/2-x,y,1/2-z
3 -x,-y,-z
4 1/2+x,-y,1/2+z
_cell_length_a                   6.9861(12)
_cell_length_b                   11.3436(19)
_cell_length_c                   11.3219(19)
_cell_angle_alpha                90
_cell_angle_beta                 101.209(3)
_cell_angle_gamma                90
_cell_volume                     880.118
loop_
_atom_site_label
_atom_site_type_symbol
_atom_site_fract_x
_atom_site_fract_y
_atom_site_fract_z
Zn1 Zn 0.7500 0.60167(4) 0.7500
N1 N 0.7500 0.7908(3) 0.7500
N2 N 0.7500 1.4169(3) 0.7500
O1 O 0.8792(3) 0.61311(19) 0.59227(19)
H1 H 0.8253 0.6201 0.5164
H2 H 0.9941 0.6430 0.6054
O2 O 1.0343(3) 0.59315(16) 0.8530(2)
H3 H 1.1223 0.6455 0.8544
H4 H 1.1024 0.5339 0.8452
C1 C 0.8163(4) 0.8531(3) 0.8503(3)
H5 H 0.8638 0.8121 0.9211
C2 C 0.8179(4) 0.9744(3) 0.8544(3)
H6 H 0.8642 1.0131 0.9267
C3 C 0.7500 1.0391(4) 0.7500
C4 C 0.7500 1.1695(3) 0.7500
C5 C 0.7615(5) 1.2339(3) 0.8561(3)
H7 H 0.7694 1.1949 0.9292
C6 C 0.7612(5) 1.3551(3) 0.8525(3)
H8 H 0.7691 1.3963 0.9243
Zn1_2 Zn 0.7500 1.60167(4) 0.7500
N2_2 N 0.7500 0.4169(3) 0.7500
O1A O 0.6208(3) 0.61311(19) 0.90773(19)
H1A H 0.6747 0.6201 0.9836
H2A H 0.5059 0.6430 0.8946
O2A O 0.4657(3) 0.59315(16) 0.6470(2)
H3A H 0.3777 0.6455 0.6456
H4A H 0.3976 0.5339 0.6548
C1A C 0.6837(4) 0.8531(3) 0.6497(3)
H5A H 0.6362 0.8121 0.5789
C2A C 0.6821(4) 0.9744(3) 0.6456(3)
H6A H 0.6358 1.0131 0.5733
C5A C 0.7385(5) 1.2339(3) 0.6439(3)
H7A H 0.7306 1.1949 0.5708
C6A C 0.7388(5) 1.3551(3) 0.6475(3)
H8A H 0.7309 1.3963 0.5757
O3 O 0.2410(4) 0.38845(18) 0.8474(2)
O4 O 0.2079(3) -0.22784(18) 0.64951(18)
C7 C 0.2500 0.3377(4) 0.7500
C8 C 0.2500 0.2043(4) 0.7500
C9 C 0.1895(4) 0.1414(3) 0.6432(3)
H9 H 0.1501 0.1818 0.5711
C10 C 0.1878(4) 0.0195(3) 0.6440(3)
H10 H 0.1442 -0.0210 0.5724
C11 C 0.2500 -0.0438(4) 0.7500
C12 C 0.2500 -0.1761(4) 0.7500
O3A O 0.2590(4) 0.38845(18) 0.6526(2)
O4A O 0.2921(3) -0.22784(18) 0.85049(18)
C9A C 0.3105(4) 0.1414(3) 0.8568(3)
H9A H 0.3499 0.1818 0.9289
C10A C 0.3122(4) 0.0195(3) 0.8560(3)
H10A H 0.3558 -0.0210 0.9276
loop_
_geom_bond_atom_site_label_1
_geom_bond_atom_site_label_2
_geom_bond_site_symmetry_1
_geom_bond_site_symmetry_2
Zn1 N1 1_555 1_555
N1 C1 1_555 1_555
N2 C6 1_555 1_555
O1 Zn1 1_555 1_555
H1 O1 1_555 1_555
H2 O1 1_555 1_555
O2 Zn1 1_555 1_555
H3 O2 1_555 1_555
H4 O2 1_555 1_555
O3 C7 1_555 1_555
O4 C12 1_555 1_555
C1 H5 1_555 1_555
C2 C1 1_555 1_555
H6 C2 1_555 1_555
C3 C2 1_555 1_555
C4 C3 1_555 1_555
C5 C4 1_555 1_555
H7 C5 1_555 1_555
C6 C5 1_555 1_555
H8 C6 1_555 1_555
C7 C8 1_555 1_555
C8 C9 1_555 1_555
C9 H9 1_555 1_555
C10 C9 1_555 1_555
H10 C10 1_555 1_555
C11 C10 1_555 1_555
C12 C11 1_555 1_555
Zn1_2 N2 1_555 1_555
N2_2 Zn1 1_555 1_555
O1A Zn1 1_555 1_555
H1A O1A 1_555 1_555
H2A O1A 1_555 1_555
O2A Zn1 1_555 1_555
H3A O2A 1_555 1_555
H4A O2A 1_555 1_555
O3A C7 1_555 1_555
O4A C12 1_555 1_555
C1A N1 1_555 1_555
H5A C1A 1_555 1_555
C2A C3 1_555 1_555
H6A C2A 1_555 1_555
C5A C4 1_555 1_555
H7A C5A 1_555 1_555
C6A N2 1_555 1_555
H8A C6A 1_555 1_555
C9A C8 1_555 1_555
H9A C9A 1_555 1_555
C10A C11 1_555 1_555
H10A C10A 1_555 1_555
C1A C2A 1_555 1_555
C5A C6A 1_555 1_555
C9A C10A 1_555 1_555

#END
