
#######################################################################
#
#                 Cambridge Crystallographic Data Centre
#                                CCDC 
#
#######################################################################
#
# If this CIF has been generated from an entry in the Cambridge 
# Structural Database, then it will include bibliographic, chemical, 
# crystal, experimental, refinement or atomic coordinate data resulting 
# from the CCDC's data processing and validation procedures.
#
#######################################################################

data_POWGAK
_symmetry_cell_setting           monoclinic
_symmetry_space_group_name_H-M   'P 21/n'
_symmetry_Int_Tables_number      14
_space_group_name_Hall           '-P 2yn'
loop_
_symmetry_equiv_pos_site_id
_symmetry_equiv_pos_as_xyz
1 x,y,z
2 1/2-x,1/2+y,1/2-z
3 -x,-y,-z
4 1/2+x,1/2-y,1/2+z
_cell_length_a                   8.1585(2)
_cell_length_b                   11.2907(2)
_cell_length_c                   27.8738(3)
_cell_angle_alpha                90
_cell_angle_beta                 95.644(2)
_cell_angle_gamma                90
_cell_volume                     2555.15
loop_
_atom_site_label
_atom_site_type_symbol
_atom_site_fract_x
_atom_site_fract_y
_atom_site_fract_z
Mn1 Mn 0.5000 0.0000 0.0000
Mn2 Mn 1.0000 0.0000 0.0000
O1 O 0.32484(17) -0.26988(12) 0.00330(5)
O2 O 0.56738(16) -0.17869(12) 0.01144(5)
O3 O 0.86399(16) -0.04378(12) 0.10998(5)
O4 O 1.08825(16) -0.05210(13) 0.07062(5)
O5 O 0.41531(17) 0.00670(13) 0.07223(5)
H1 H 0.474(3) -0.037(2) 0.0985(8)
H2 H 0.308(2) -0.011(2) 0.0734(10)
O6 O 0.75988(16) 0.05770(13) 0.02674(5)
H3 H 0.790(3) 0.043(2) 0.0592(6)
H4 H 0.742(3) 0.1359(16) 0.0247(10)
O7 O 1.11543(18) 0.17328(13) 0.01223(5)
H5 H 1.062(3) 0.2483(18) 0.0034(9)
H6 H 1.221(2) 0.182(3) 0.0070(10)
N1 N 0.7834(2) -0.64050(15) 0.13131(6)
N2 N 1.2766(2) -0.45986(16) 0.22433(6)
C1 C 0.4744(2) -0.26580(17) 0.01995(7)
C2 C 0.5485(2) -0.36230(17) 0.05081(7)
C3 C 0.4689(2) -0.47050(18) 0.05580(7)
H7 H 0.3633 -0.4813 0.0406
C4 C 0.5434(2) -0.56160(18) 0.08273(7)
H8 H 0.4869 -0.6324 0.0856
C5 C 0.7046(2) -0.54916(18) 0.10611(7)
C6 C 0.7801(2) -0.43779(18) 0.10262(7)
H9 H 0.8834 -0.4245 0.1189
C7 C 0.7036(2) -0.34842(18) 0.07551(7)
H10 H 0.7574 -0.2762 0.0736
C8 C 0.7200(3) -0.76135(18) 0.12893(7)
H11 H 0.8115 -0.8161 0.1285
H12 H 0.6497 -0.7715 0.0991
C9 C 0.6227(3) -0.7917(2) 0.17097(8)
H13 H 0.5955 -0.8745 0.1699
H14 H 0.5234 -0.7457 0.1689
H15 H 0.6878 -0.7743 0.2007
C10 C 0.9497(3) -0.62677(19) 0.15495(8)
H16 H 0.9669 -0.6842 0.1809
H17 H 0.9606 -0.5484 0.1691
C11 C 1.0821(3) -0.6433(2) 0.12076(9)
H18 H 1.1888 -0.6344 0.1382
H19 H 1.0684 -0.5849 0.0957
H20 H 1.0727 -0.7210 0.1068
C12 C 1.0033(2) -0.08717(17) 0.10404(7)
C13 C 1.0729(2) -0.18313(17) 0.13585(6)
C14 C 1.0042(2) -0.21580(17) 0.17791(6)
H21 H 0.9107 -0.1766 0.1861
C15 C 1.0717(2) -0.30486(18) 0.20755(7)
H22 H 1.0237 -0.3236 0.2355
C16 C 1.2121(2) -0.36804(17) 0.19621(7)
C17 C 1.2802(2) -0.33497(18) 0.15330(7)
H23 H 1.3729 -0.3743 0.1445
C18 C 1.2114(2) -0.24579(17) 0.12450(7)
H24 H 1.2586 -0.2265 0.0965
C19 C 1.2123(3) -0.48833(19) 0.27032(7)
H25 H 1.2418 -0.5693 0.2790
H26 H 1.0931 -0.4835 0.2662
C20 C 1.2764(3) -0.4072(2) 0.31101(8)
H27 H 1.2227 -0.4254 0.3393
H28 H 1.2542 -0.3264 0.3018
H29 H 1.3931 -0.4182 0.3178
C21 C 1.4284(3) -0.51786(19) 0.21392(8)
H30 H 1.4247 -0.5299 0.1794
H31 H 1.4330 -0.5954 0.2290
C22 C 1.5858(3) -0.4513(2) 0.23068(9)
H32 H 1.6787 -0.4933 0.2206
H33 H 1.5964 -0.4453 0.2652
H34 H 1.5815 -0.3733 0.2169
Mn2_2 Mn 0.0000 0.0000 0.0000
O1B O 0.67516(17) 0.26988(12) -0.00330(5)
O2B O 0.43262(16) 0.17869(12) -0.01144(5)
O3B O 1.13601(16) 0.04378(12) -0.10998(5)
O4B O 0.91175(16) 0.05210(13) -0.07062(5)
O5B O 0.58469(17) -0.00670(13) -0.07223(5)
H1B H 0.526(3) 0.037(2) -0.0985(8)
H2B H 0.692(2) 0.011(2) -0.0734(10)
O6B O 0.24012(16) -0.05770(13) -0.02674(5)
O6B_2 O 1.24012(16) -0.05770(13) -0.02674(5)
H3B H 0.210(3) -0.043(2) -0.0592(6)
H3B_2 H 1.210(3) -0.043(2) -0.0592(6)
H4B H 0.258(3) -0.1359(16) -0.0247(10)
H4B_2 H 1.258(3) -0.1359(16) -0.0247(10)
O7B O 0.88457(18) -0.17328(13) -0.01223(5)
H5B H 0.938(3) -0.2483(18) -0.0034(9)
H6B H 0.779(2) -0.182(3) -0.0070(10)
N1B N 0.2166(2) 0.64050(15) -0.13131(6)
N2B N 0.7234(2) 0.45986(16) -0.22433(6)
C1B C 0.5256(2) 0.26580(17) -0.01995(7)
C2B C 0.4515(2) 0.36230(17) -0.05081(7)
C3B C 0.5311(2) 0.47050(18) -0.05580(7)
H7B H 0.6367 0.4813 -0.0406
C4B C 0.4566(2) 0.56160(18) -0.08273(7)
H8B H 0.5131 0.6324 -0.0856
C5B C 0.2954(2) 0.54916(18) -0.10611(7)
C6B C 0.2199(2) 0.43779(18) -0.10262(7)
H9B H 0.1166 0.4245 -0.1189
C7B C 0.2964(2) 0.34842(18) -0.07551(7)
H10B H 0.2426 0.2762 -0.0736
C8B C 0.2800(3) 0.76135(18) -0.12893(7)
H11B H 0.1885 0.8161 -0.1285
H12B H 0.3503 0.7715 -0.0991
C9B C 0.3773(3) 0.7917(2) -0.17097(8)
H13B H 0.4045 0.8745 -0.1699
H14B H 0.4766 0.7457 -0.1689
H15B H 0.3122 0.7743 -0.2007
C10B C 0.0503(3) 0.62677(19) -0.15495(8)
H16B H 0.0331 0.6842 -0.1809
H17B H 0.0394 0.5484 -0.1691
C11B C -0.0821(3) 0.6433(2) -0.12076(9)
H18B H -0.1888 0.6344 -0.1382
H19B H -0.0684 0.5849 -0.0957
H20B H -0.0727 0.7210 -0.1068
C12B C 0.9967(2) 0.08717(17) -0.10404(7)
C13B C 0.9271(2) 0.18313(17) -0.13585(6)
C14B C 0.9958(2) 0.21580(17) -0.17791(6)
H21B H 1.0893 0.1766 -0.1861
C15B C 0.9283(2) 0.30486(18) -0.20755(7)
H22B H 0.9763 0.3236 -0.2355
C16B C 0.7879(2) 0.36804(17) -0.19621(7)
C17B C 0.7198(2) 0.33497(18) -0.15330(7)
H23B H 0.6271 0.3743 -0.1445
C18B C 0.7886(2) 0.24579(17) -0.12450(7)
H24B H 0.7414 0.2265 -0.0965
C19B C 0.7877(3) 0.48833(19) -0.27032(7)
H25B H 0.7582 0.5693 -0.2790
H26B H 0.9069 0.4835 -0.2662
C20B C 0.7236(3) 0.4072(2) -0.31101(8)
H27B H 0.7773 0.4254 -0.3393
H28B H 0.7458 0.3264 -0.3018
H29B H 0.6069 0.4182 -0.3178
C21B C 0.5716(3) 0.51786(19) -0.21392(8)
H30B H 0.5753 0.5299 -0.1794
H31B H 0.5670 0.5954 -0.2290
C22B C 0.4142(3) 0.4513(2) -0.23068(9)
H32B H 0.3213 0.4933 -0.2206
H33B H 0.4036 0.4453 -0.2652
H34B H 0.4185 0.3733 -0.2169
O8 O 0.5861(2) -0.10881(17) 0.14777(6)
H35 H 0.568(4) -0.1863(17) 0.1430(13)
H36 H 0.697(3) -0.096(3) 0.1402(14)
O9 O 0.03985(19) -0.38092(14) 0.01543(7)
H37 H 0.148(2) -0.360(3) 0.0120(11)
H38 H 0.035(6) -0.390(5) 0.0472(8)
loop_
_geom_bond_atom_site_label_1
_geom_bond_atom_site_label_2
_geom_bond_site_symmetry_1
_geom_bond_site_symmetry_2
Mn1 O2 1_555 1_555
Mn2 O4 1_555 1_555
O1 C1 1_555 1_555
O2 C1 1_555 1_555
O3 C12 1_555 1_555
O4 C12 1_555 1_555
O5 Mn1 1_555 1_555
H1 O5 1_555 1_555
H2 O5 1_555 1_555
O6 Mn1 1_555 1_555
H3 O6 1_555 1_555
H4 O6 1_555 1_555
O7 Mn2 1_555 1_555
H5 O7 1_555 1_555
H6 O7 1_555 1_555
N1 C5 1_555 1_555
N2 C16 1_555 1_555
C1 C2 1_555 1_555
C2 C3 1_555 1_555
C3 H7 1_555 1_555
C4 C3 1_555 1_555
H8 C4 1_555 1_555
C5 C4 1_555 1_555
C6 C5 1_555 1_555
H9 C6 1_555 1_555
C7 C2 1_555 1_555
H10 C7 1_555 1_555
C8 N1 1_555 1_555
H11 C8 1_555 1_555
H12 C8 1_555 1_555
C9 C8 1_555 1_555
H13 C9 1_555 1_555
H14 C9 1_555 1_555
H15 C9 1_555 1_555
C10 N1 1_555 1_555
H16 C10 1_555 1_555
H17 C10 1_555 1_555
C11 C10 1_555 1_555
H18 C11 1_555 1_555
H19 C11 1_555 1_555
H20 C11 1_555 1_555
C12 C13 1_555 1_555
C13 C14 1_555 1_555
C14 H21 1_555 1_555
C15 C14 1_555 1_555
H22 C15 1_555 1_555
C16 C15 1_555 1_555
C17 C16 1_555 1_555
H23 C17 1_555 1_555
C18 C13 1_555 1_555
H24 C18 1_555 1_555
C19 N2 1_555 1_555
H25 C19 1_555 1_555
H26 C19 1_555 1_555
C20 C19 1_555 1_555
H27 C20 1_555 1_555
H28 C20 1_555 1_555
H29 C20 1_555 1_555
C21 N2 1_555 1_555
H30 C21 1_555 1_555
H31 C21 1_555 1_555
C22 C21 1_555 1_555
H32 C22 1_555 1_555
H33 C22 1_555 1_555
H34 C22 1_555 1_555
O8 H35 1_555 1_555
H36 O8 1_555 1_555
O9 H37 1_555 1_555
H38 O9 1_555 1_555
Mn2_2 O6B 1_555 1_555
O1B C1B 1_555 1_555
O2B Mn1 1_555 1_555
O3B C12B 1_555 1_555
O4B Mn2 1_555 1_555
O5B Mn1 1_555 1_555
H1B O5B 1_555 1_555
H2B O5B 1_555 1_555
O6B Mn1 1_555 1_555
O6B_2 Mn2 1_555 1_555
H3B O6B 1_555 1_555
H3B_2 O6B_2 1_555 1_555
H4B O6B 1_555 1_555
H4B_2 O6B_2 1_555 1_555
O7B Mn2 1_555 1_555
H5B O7B 1_555 1_555
H6B O7B 1_555 1_555
N1B C5B 1_555 1_555
N2B C16B 1_555 1_555
C1B O2B 1_555 1_555
C2B C1B 1_555 1_555
C3B C2B 1_555 1_555
H7B C3B 1_555 1_555
C4B C3B 1_555 1_555
H8B C4B 1_555 1_555
C5B C4B 1_555 1_555
C6B C5B 1_555 1_555
H9B C6B 1_555 1_555
C7B C2B 1_555 1_555
H10B C7B 1_555 1_555
C8B N1B 1_555 1_555
H11B C8B 1_555 1_555
H12B C8B 1_555 1_555
C9B C8B 1_555 1_555
H13B C9B 1_555 1_555
H14B C9B 1_555 1_555
H15B C9B 1_555 1_555
C10B N1B 1_555 1_555
H16B C10B 1_555 1_555
H17B C10B 1_555 1_555
C11B C10B 1_555 1_555
H18B C11B 1_555 1_555
H19B C11B 1_555 1_555
H20B C11B 1_555 1_555
C12B O4B 1_555 1_555
C13B C12B 1_555 1_555
C14B C13B 1_555 1_555
H21B C14B 1_555 1_555
C15B C14B 1_555 1_555
H22B C15B 1_555 1_555
C16B C15B 1_555 1_555
C17B C16B 1_555 1_555
H23B C17B 1_555 1_555
C18B C13B 1_555 1_555
H24B C18B 1_555 1_555
C19B N2B 1_555 1_555
H25B C19B 1_555 1_555
H26B C19B 1_555 1_555
C20B C19B 1_555 1_555
H27B C20B 1_555 1_555
H28B C20B 1_555 1_555
H29B C20B 1_555 1_555
C21B N2B 1_555 1_555
H30B C21B 1_555 1_555
H31B C21B 1_555 1_555
C22B C21B 1_555 1_555
H32B C22B 1_555 1_555
H33B C22B 1_555 1_555
H34B C22B 1_555 1_555
Mn2 O6 1_555 1_555
C6 C7 1_555 1_555
C17 C18 1_555 1_555
C6B C7B 1_555 1_555
C17B C18B 1_555 1_555

#END
