
#######################################################################
#
#                 Cambridge Crystallographic Data Centre
#                                CCDC 
#
#######################################################################
#
# If this CIF has been generated from an entry in the Cambridge 
# Structural Database, then it will include bibliographic, chemical, 
# crystal, experimental, refinement or atomic coordinate data resulting 
# from the CCDC's data processing and validation procedures.
#
#######################################################################

data_POWGIS
_symmetry_cell_setting           monoclinic
_symmetry_space_group_name_H-M   'C 2/c'
_symmetry_Int_Tables_number      15
_space_group_name_Hall           '-C 2yn'
loop_
_symmetry_equiv_pos_site_id
_symmetry_equiv_pos_as_xyz
1 x,y,z
2 -x,y,1/2-z
3 1/2+x,1/2+y,z
4 1/2-x,1/2+y,1/2-z
5 -x,-y,-z
6 x,-y,1/2+z
7 1/2-x,1/2-y,-z
8 1/2+x,1/2-y,1/2+z
_cell_length_a                   19.951(4)
_cell_length_b                   9.3967(18)
_cell_length_c                   13.598(3)
_cell_angle_alpha                90
_cell_angle_beta                 118.478(2)
_cell_angle_gamma                90
_cell_volume                     2240.81
loop_
_atom_site_label
_atom_site_type_symbol
_atom_site_fract_x
_atom_site_fract_y
_atom_site_fract_z
C1 C 0.5101(3) 0.9321(4) 0.8770(5)
C2 C 0.5866(3) 0.9047(4) 0.9083(4)
H1 H 0.6038 0.8119 0.9121
C3 C 0.6362(2) 1.0187(5) 0.9335(4)
C4 C 0.6139(3) 1.1553(5) 0.9341(4)
H2 H 0.6489 1.2293 0.9532
C5 C 0.5376(2) 1.1837(4) 0.9057(4)
C6 C 0.4854(3) 1.0707(4) 0.8733(4)
H3 H 0.4340 1.0889 0.8492
C7 C 0.4569(3) 0.8075(5) 0.8484(4)
C8 C 0.5160(3) 1.3320(4) 0.9189(4)
C9 C 0.2265(2) 0.7844(4) 0.6760(4)
C10 C 0.2352(2) 0.7786(4) 0.7938(4)
Dy1 Dy 0.367163(11) 0.562032(19) 0.814740(18)
N1 N 0.7158(2) 0.9903(4) 0.9663(4)
H4 H 0.7278 1.0315 0.9178
H5 H 0.7231 0.8968 0.9667
H6 H 0.7452 1.0254 1.0344
O1 O 0.48363(19) 0.6844(3) 0.8541(3)
O2 O 0.38806(19) 0.8260(3) 0.8218(3)
O3 O 0.56915(19) 1.4094(3) 0.9915(3)
O4 O 0.44868(18) 1.3699(3) 0.8570(3)
O5 O 0.26983(18) 0.6716(3) 0.8522(3)
O6 O 0.26011(19) 0.6905(3) 0.6506(3)
O7 O 0.20849(18) 0.8801(3) 0.8235(3)
O8 O 0.18745(18) 0.8842(3) 0.6150(3)
O9 O 0.3929(2) 0.5616(3) 0.6572(3)
H7 H 0.4336 0.5912 0.6625
H8 H 0.3713 0.5057 0.6041
Dy1D Dy 0.632837(11) 1.437968(19) 1.185260(18)
Dy1_2 Dy 0.367163(11) 1.562032(19) 0.814740(18)
Dy1C Dy 0.132837(11) 1.062032(19) 0.685260(18)
O3D O 0.43085(19) 0.5906(3) 1.0085(3)
O4_2 O 0.44868(18) 0.3699(3) 0.8570(3)
O7C O 0.29151(18) 0.3801(3) 0.6765(3)
O8C O 0.31255(18) 0.3842(3) 0.8850(3)
loop_
_geom_bond_atom_site_label_1
_geom_bond_atom_site_label_2
_geom_bond_site_symmetry_1
_geom_bond_site_symmetry_2
C1 C2 1_555 1_555
C2 H1 1_555 1_555
C3 C2 1_555 1_555
C4 C3 1_555 1_555
H2 C4 1_555 1_555
C5 C4 1_555 1_555
C6 C1 1_555 1_555
H3 C6 1_555 1_555
C7 C1 1_555 1_555
C8 C5 1_555 1_555
C9 C10 1_555 1_555
C10 O5 1_555 1_555
Dy1 O1 1_555 1_555
N1 C3 1_555 1_555
H4 N1 1_555 1_555
H5 N1 1_555 1_555
H6 N1 1_555 1_555
O1 C7 1_555 1_555
O2 C7 1_555 1_555
O3 C8 1_555 1_555
O4 C8 1_555 1_555
O5 Dy1 1_555 1_555
O6 C9 1_555 1_555
O7 C10 1_555 1_555
O8 C9 1_555 1_555
O9 Dy1 1_555 1_555
H7 O9 1_555 1_555
H8 O9 1_555 1_555
Dy1D O3 1_555 1_555
Dy1_2 O4 1_555 1_555
Dy1C O7 1_555 1_555
O3D Dy1 1_555 1_555
O4_2 Dy1 1_555 1_555
O7C Dy1 1_555 1_555
O8C Dy1 1_555 1_555
C5 C6 1_555 1_555
Dy1 O2 1_555 1_555
Dy1 O6 1_555 1_555
O8 Dy1C 1_555 1_555

#END
