
#######################################################################
#
#                 Cambridge Crystallographic Data Centre
#                                CCDC 
#
#######################################################################
#
# If this CIF has been generated from an entry in the Cambridge 
# Structural Database, then it will include bibliographic, chemical, 
# crystal, experimental, refinement or atomic coordinate data resulting 
# from the CCDC's data processing and validation procedures.
#
#######################################################################

data_POWHEP
_symmetry_cell_setting           orthorhombic
_symmetry_space_group_name_H-M   'P c c n'
_symmetry_Int_Tables_number      56
_space_group_name_Hall           '-P 2ab 2ac'
loop_
_symmetry_equiv_pos_site_id
_symmetry_equiv_pos_as_xyz
1 x,y,z
2 1/2-x,1/2-y,z
3 1/2+x,-y,1/2-z
4 -x,1/2+y,1/2-z
5 -x,-y,-z
6 1/2+x,1/2+y,-z
7 1/2-x,y,1/2+z
8 x,1/2-y,1/2+z
_cell_length_a                   12.6317(5)
_cell_length_b                   19.9697(12)
_cell_length_c                   12.3703(7)
_cell_angle_alpha                90
_cell_angle_beta                 90
_cell_angle_gamma                90
_cell_volume                     3120.42
loop_
_atom_site_label
_atom_site_type_symbol
_atom_site_fract_x
_atom_site_fract_y
_atom_site_fract_z
C1 C 0.7200(5) 0.1255(3) 0.1946(5)
C2 C 0.7134(5) 0.0551(3) 0.1562(5)
H1 H 0.6472 0.0495 0.1158
C3 C 0.8075(6) 0.0347(3) 0.0813(6)
H2 H 0.8072 0.0627 0.0172
H3 H 0.8738 0.0420 0.1190
C4 C 0.7998(7) -0.0363(4) 0.0488(6)
H4 H 0.8606 -0.0478 0.0045
H5 H 0.7367 -0.0427 0.0054
C5 C 0.7956(5) -0.0833(3) 0.1467(6)
H6 H 0.7788 -0.1281 0.1192
C6 C 0.7065(7) -0.0639(4) 0.2243(7)
H7 H 0.6387 -0.0729 0.1905
H8 H 0.7113 -0.0910 0.2891
C7 C 0.7123(6) 0.0065(3) 0.2537(6)
H9 H 0.7758 0.0137 0.2961
H10 H 0.6521 0.0172 0.2992
C8 C 0.9032(6) -0.0881(3) 0.2022(7)
C9 C 0.9060(3) 0.2554(3) 0.4765(4)
H11 H 0.8851 0.2997 0.4856
C10 C 0.9221(4) 0.1567(3) 0.4138(5)
H12 H 0.9152 0.1192 0.3699
C11 C 0.9818(5) 0.1601(3) 0.5038(5)
H13 H 1.0218 0.1258 0.5339
C12 C 1.0206(3) 0.2510(3) 0.6389(4)
H14 H 0.9962 0.2257 0.7010
H15 H 0.9972 0.2969 0.6481
C13 C 1.1951(4) 0.2506(5) 0.5441(5)
H16 H 1.1592 0.2521 0.4785
C14 C 1.1390(3) 0.2497(3) 0.6368(4)
C15 C 1.1954(4) 0.2499(4) 0.7277(5)
H17 H 1.1599 0.2498 0.7936
N1 N 0.8735(3) 0.2166(2) 0.3967(4)
N2 N 0.9721(3) 0.2237(2) 0.5420(4)
O1 O 0.7903(3) 0.1640(2) 0.1601(3)
O2 O 0.6563(3) 0.1466(2) 0.2657(4)
O3 O 0.9194(5) -0.0730(3) 0.2950(5)
O4 O 0.9764(4) -0.1119(2) 0.1406(4)
H18 H 1.0323 -0.1134 0.1741
Cd1 Cd 0.7500 0.2500 0.27740(4)
C1A C 0.7800(5) 0.3745(3) 0.1946(5)
C2A C 0.7866(5) 0.4449(3) 0.1562(5)
H1A H 0.8528 0.4505 0.1158
C3A C 0.6925(6) 0.4653(3) 0.0813(6)
H2A H 0.6928 0.4373 0.0172
H3A H 0.6262 0.4580 0.1190
C4A C 0.7002(7) 0.5363(4) 0.0488(6)
H4A H 0.6394 0.5478 0.0045
H5A H 0.7633 0.5427 0.0054
C5A C 0.7044(5) 0.5833(3) 0.1467(6)
H6A H 0.7212 0.6281 0.1192
C6A C 0.7935(7) 0.5639(4) 0.2243(7)
H7A H 0.8613 0.5729 0.1905
H8A H 0.7887 0.5910 0.2891
C7A C 0.7877(6) 0.4935(3) 0.2537(6)
H9A H 0.7242 0.4863 0.2961
H10A H 0.8479 0.4828 0.2992
C8A C 0.5968(6) 0.5881(3) 0.2022(7)
C9A C 1.5940(3) 0.2446(3) 0.4765(4)
H11A H 1.6149 0.2003 0.4856
C10A C 1.5779(4) 0.3433(3) 0.4138(5)
H12A H 1.5848 0.3808 0.3699
C11A C 1.5182(5) 0.3399(3) 0.5038(5)
H13A H 1.4782 0.3742 0.5339
C12A C 1.4794(3) 0.2490(3) 0.6389(4)
H14A H 1.5038 0.2743 0.7010
H15A H 1.5028 0.2031 0.6481
C13A C 1.3049(4) 0.2494(5) 0.5441(5)
H16A H 1.3408 0.2479 0.4785
C14A C 1.3610(3) 0.2503(3) 0.6368(4)
C15A C 1.3046(4) 0.2501(4) 0.7277(5)
H17A H 1.3401 0.2502 0.7936
N1A N 1.6265(3) 0.2834(2) 0.3967(4)
N1A_2 N 0.6265(3) 0.2834(2) 0.3967(4)
N2A N 1.5279(3) 0.2763(2) 0.5420(4)
O1A O 0.7097(3) 0.3360(2) 0.1601(3)
O2A O 0.8437(3) 0.3534(2) 0.2657(4)
O3A O 0.5806(5) 0.5730(3) 0.2950(5)
O4A O 0.5236(4) 0.6119(2) 0.1406(4)
H18A H 0.4677 0.6134 0.1741
Cd1_2 Cd 1.7500 0.2500 0.27740(4)
loop_
_geom_bond_atom_site_label_1
_geom_bond_atom_site_label_2
_geom_bond_site_symmetry_1
_geom_bond_site_symmetry_2
C1 C2 1_555 1_555
C2 H1 1_555 1_555
C3 C2 1_555 1_555
H2 C3 1_555 1_555
H3 C3 1_555 1_555
C4 C3 1_555 1_555
H4 C4 1_555 1_555
H5 C4 1_555 1_555
C5 C4 1_555 1_555
H6 C5 1_555 1_555
C6 C5 1_555 1_555
H7 C6 1_555 1_555
H8 C6 1_555 1_555
C7 C2 1_555 1_555
H9 C7 1_555 1_555
H10 C7 1_555 1_555
C8 C5 1_555 1_555
C9 H11 1_555 1_555
C10 H12 1_555 1_555
C11 C10 1_555 1_555
H13 C11 1_555 1_555
C12 H14 1_555 1_555
H15 C12 1_555 1_555
C13 H16 1_555 1_555
C14 C12 1_555 1_555
C15 C14 1_555 1_555
H17 C15 1_555 1_555
N1 C9 1_555 1_555
N2 C9 1_555 1_555
O1 C1 1_555 1_555
O2 C1 1_555 1_555
O3 C8 1_555 1_555
O4 C8 1_555 1_555
H18 O4 1_555 1_555
Cd1 N1 1_555 1_555
C1A C2A 1_555 1_555
C2A H1A 1_555 1_555
C3A C2A 1_555 1_555
H2A C3A 1_555 1_555
H3A C3A 1_555 1_555
C4A C3A 1_555 1_555
H4A C4A 1_555 1_555
H5A C4A 1_555 1_555
C5A C4A 1_555 1_555
H6A C5A 1_555 1_555
C6A C5A 1_555 1_555
H7A C6A 1_555 1_555
H8A C6A 1_555 1_555
C7A C2A 1_555 1_555
H9A C7A 1_555 1_555
H10A C7A 1_555 1_555
C8A C5A 1_555 1_555
C9A H11A 1_555 1_555
C10A H12A 1_555 1_555
C11A C10A 1_555 1_555
H13A C11A 1_555 1_555
C12A H14A 1_555 1_555
H15A C12A 1_555 1_555
C13A C13 1_555 1_555
H16A C13A 1_555 1_555
C14A C12A 1_555 1_555
C15A C15 1_555 1_555
H17A C15A 1_555 1_555
N1A C9A 1_555 1_555
N1A_2 Cd1 1_555 1_555
N2A C9A 1_555 1_555
O1A Cd1 1_555 1_555
O2A Cd1 1_555 1_555
O3A C8A 1_555 1_555
O4A C8A 1_555 1_555
H18A O4A 1_555 1_555
Cd1_2 N1A 1_555 1_555
C6 C7 1_555 1_555
C10 N1 1_555 1_555
C11 N2 1_555 1_555
C12 N2 1_555 1_555
C13 C14 1_555 1_555
O1 Cd1 1_555 1_555
O2 Cd1 1_555 1_555
C1A O1A 1_555 1_555
C1A O2A 1_555 1_555
C6A C7A 1_555 1_555
C10A N1A 1_555 1_555
C11A N2A 1_555 1_555
C12A N2A 1_555 1_555
C13A C14A 1_555 1_555
C14A C15A 1_555 1_555

#END
