
#######################################################################
#
#                 Cambridge Crystallographic Data Centre
#                                CCDC 
#
#######################################################################
#
# If this CIF has been generated from an entry in the Cambridge 
# Structural Database, then it will include bibliographic, chemical, 
# crystal, experimental, refinement or atomic coordinate data resulting 
# from the CCDC's data processing and validation procedures.
#
#######################################################################

data_POWJER
_symmetry_cell_setting           triclinic
_symmetry_space_group_name_H-M   'P -1'
_symmetry_Int_Tables_number      2
_space_group_name_Hall           '-P 1'
loop_
_symmetry_equiv_pos_site_id
_symmetry_equiv_pos_as_xyz
1 x,y,z
2 -x,-y,-z
_cell_length_a                   7.1311(10)
_cell_length_b                   7.6319(10)
_cell_length_c                   10.4978(14)
_cell_angle_alpha                91.9300(10)
_cell_angle_beta                 101.8320(10)
_cell_angle_gamma                94.0020(10)
_cell_volume                     557.154
loop_
_atom_site_label
_atom_site_type_symbol
_atom_site_fract_x
_atom_site_fract_y
_atom_site_fract_z
Co1 Co 0.0000 0.0000 0.0000
O6 O 0.0283(2) 0.2722(2) -0.01206(18)
H11 H -0.0701 0.3243 -0.0349
H12 H 0.1207 0.3397 0.0241
O7 O 0.2400(2) -0.0305(2) -0.08486(16)
H13 H 0.3136 0.0561 -0.0905
H14 H 0.2965 -0.1087 -0.0441
N1 N 0.1824(3) 0.0139(3) 0.19142(17)
C12 C 0.3560(3) 0.1002(3) 0.2175(2)
H15 H 0.3934 0.1655 0.1524
C13 C 0.4835(3) 0.0981(3) 0.3358(2)
H16 H 0.6033 0.1601 0.3483
C14 C 0.4332(3) 0.0036(3) 0.4357(2)
C15 C 0.2514(4) -0.0850(5) 0.4090(3)
H17 H 0.2096 -0.1502 0.4726
C16 C 0.1325(4) -0.0761(4) 0.2877(3)
H18 H 0.0114 -0.1361 0.2725
Co1_2 Co 1.0000 0.0000 1.0000
O6A O -0.0283(2) -0.2722(2) 0.01206(18)
H11A H 0.0701 -0.3243 0.0349
H12A H -0.1207 -0.3397 -0.0241
O7A O -0.2400(2) 0.0305(2) 0.08486(16)
H13A H -0.3136 -0.0561 0.0905
H14A H -0.2965 0.1087 0.0441
N1A N 0.8176(3) -0.0139(3) 0.80858(17)
N1A_2 N -0.1824(3) -0.0139(3) -0.19142(17)
C12A C 0.6440(3) -0.1002(3) 0.7825(2)
H15A H 0.6066 -0.1655 0.8476
C13A C 0.5165(3) -0.0981(3) 0.6642(2)
H16A H 0.3967 -0.1601 0.6517
C14A C 0.5668(3) -0.0036(3) 0.5643(2)
C15A C 0.7486(4) 0.0850(5) 0.5910(3)
H17A H 0.7904 0.1502 0.5274
C16A C 0.8675(4) 0.0761(4) 0.7123(3)
H18A H 0.9886 0.1361 0.7275
O3 O 0.7312(13) 0.450(3) 0.9043(14)
O4 O 0.513(2) 0.2290(14) 0.9156(9)
C7 C 0.5648(17) 0.374(3) 0.876(3)
C8 C 0.4168(11) 0.4553(12) 0.7713(8)
H7 H 0.3503 0.5373 0.8153
H8 H 0.4868 0.5234 0.7173
O5 O 0.2825(7) 0.3461(6) 0.6915(5)
C9 C 0.1435(18) 0.435(2) 0.5964(11)
C10 C 0.1492(18) 0.4241(16) 0.4648(9)
H9 H 0.2554 0.3795 0.4403
C11 C -0.0013(14) 0.5223(14) 0.6328(14)
H10 H -0.0012 0.5453 0.7204
O3A O -0.7312(13) 0.550(3) 0.0957(14)
O4A O -0.513(2) 0.7710(14) 0.0844(9)
C7A C -0.5648(17) 0.626(3) 0.124(3)
C8A C -0.4168(11) 0.5447(12) 0.2287(8)
H7A H -0.3503 0.4627 0.1847
H8A H -0.4868 0.4766 0.2827
O5A O -0.2825(7) 0.6539(6) 0.3085(5)
C9A C -0.1435(18) 0.565(2) 0.4036(11)
C10A C -0.1492(18) 0.5759(16) 0.5352(9)
H9A H -0.2554 0.6205 0.5597
C11A C 0.0013(14) 0.4777(14) 0.3672(14)
H10A H 0.0012 0.4547 0.2796
O1? O 0.7094(13) 0.448(3) 0.8766(14)
O2? O 0.522(2) 0.2444(14) 0.9494(9)
C1? C 0.3511(11) 0.4124(10) 0.6667(8)
H1? H 0.4539 0.4806 0.6385
H2? H 0.3700 0.2890 0.6533
C2? C 0.5492(16) 0.370(3) 0.879(3)
C3? C 0.3670(11) 0.4520(12) 0.8095(7)
H3? H 0.2547 0.4010 0.8376
H4? H 0.3781 0.5780 0.8285
C4? C 0.1644(19) 0.451(2) 0.5829(11)
C5? C 0.1182(18) 0.3869(16) 0.4541(10)
H5? H 0.1933 0.3074 0.4232
C6? C 0.0411(14) 0.5566(15) 0.6274(14)
H6? H 0.0658 0.5913 0.7154
loop_
_geom_bond_atom_site_label_1
_geom_bond_atom_site_label_2
_geom_bond_site_symmetry_1
_geom_bond_site_symmetry_2
O3 C7 1_555 1_555
O4 C7 1_555 1_555
C7 C8 1_555 1_555
C8 H7 1_555 1_555
H8 C8 1_555 1_555
O5 C8 1_555 1_555
C9 O5 1_555 1_555
C10 C9 1_555 1_555
H9 C10 1_555 1_555
C11 C9 1_555 1_555
H10 C11 1_555 1_555
Co1 O6 1_555 1_555
O6 H11 1_555 1_555
H12 O6 1_555 1_555
O7 Co1 1_555 1_555
H13 O7 1_555 1_555
H14 O7 1_555 1_555
N1 Co1 1_555 1_555
C12 N1 1_555 1_555
H15 C12 1_555 1_555
C13 C12 1_555 1_555
H16 C13 1_555 1_555
C14 C13 1_555 1_555
C15 C14 1_555 1_555
H17 C15 1_555 1_555
C16 N1 1_555 1_555
H18 C16 1_555 1_555
O3A C7A 1_555 1_555
O4A C7A 1_555 1_555
C7A C8A 1_555 1_555
C8A H7A 1_555 1_555
H8A C8A 1_555 1_555
O5A C8A 1_555 1_555
C9A O5A 1_555 1_555
C10A C11 1_555 1_555
H9A C10A 1_555 1_555
C11A C10 1_555 1_555
H10A C11A 1_555 1_555
Co1_2 N1A 1_555 1_555
O6A Co1 1_555 1_555
H11A O6A 1_555 1_555
H12A O6A 1_555 1_555
O7A Co1 1_555 1_555
H13A O7A 1_555 1_555
H14A O7A 1_555 1_555
N1A C12A 1_555 1_555
N1A_2 Co1 1_555 1_555
C12A H15A 1_555 1_555
C13A C12A 1_555 1_555
H16A C13A 1_555 1_555
C14A C14 1_555 1_555
C15A C14A 1_555 1_555
H17A C15A 1_555 1_555
C16A N1A 1_555 1_555
H18A C16A 1_555 1_555
C15 C16 1_555 1_555
C9A C10A 1_555 1_555
C9A C11A 1_555 1_555
C13A C14A 1_555 1_555
C15A C16A 1_555 1_555

#END
