
#######################################################################
#
#                 Cambridge Crystallographic Data Centre
#                                CCDC 
#
#######################################################################
#
# If this CIF has been generated from an entry in the Cambridge 
# Structural Database, then it will include bibliographic, chemical, 
# crystal, experimental, refinement or atomic coordinate data resulting 
# from the CCDC's data processing and validation procedures.
#
#######################################################################

data_POWLIY
_symmetry_cell_setting           triclinic
_symmetry_space_group_name_H-M   'P 1'
_symmetry_Int_Tables_number      1
_space_group_name_Hall           'P 1'
loop_
_symmetry_equiv_pos_site_id
_symmetry_equiv_pos_as_xyz
1 x,y,z
_cell_length_a                   13.3357(16)
_cell_length_b                   20.7715(14)
_cell_length_c                   21.0323(14)
_cell_angle_alpha                100.669(2)
_cell_angle_beta                 104.517(3)
_cell_angle_gamma                106.257(2)
_cell_volume                     5206.17
loop_
_atom_site_label
_atom_site_type_symbol
_atom_site_fract_x
_atom_site_fract_y
_atom_site_fract_z
C1 C 0.0504(7) 0.3928(3) 0.1411(4)
C2 C -0.0411(5) 0.3363(3) 0.1324(3)
H1 H -0.0389 0.2916 0.1187
C3 C -0.1343(6) 0.3434(3) 0.1433(4)
H2 H -0.1958 0.3042 0.1346
C4 C -0.1369(6) 0.4103(4) 0.1675(4)
H3 H -0.1985 0.4157 0.1778
C5 C -0.0459(6) 0.4695(3) 0.1763(5)
H4 H -0.0490 0.5139 0.1900
C6 C 0.0500(5) 0.4615(3) 0.1644(4)
C7 C 0.1352(5) 0.5212(3) 0.1651(4)
H5 H 0.1230 0.5631 0.1765
C8 C 0.3193(6) 0.5874(3) 0.1498(4)
H6 H 0.3163 0.5836 0.1022
C9 C 0.4236(6) 0.5782(3) 0.1881(4)
H7 H 0.4220 0.5700 0.2323
C10 C 0.5016(5) 0.4978(3) 0.1234(4)
H8 H 0.5697 0.5335 0.1397
C11 C 0.5042(6) 0.4313(3) 0.0836(4)
C12 C 0.6024(6) 0.4311(3) 0.0691(4)
H9 H 0.6648 0.4711 0.0864
C13 C 0.6050(6) 0.3705(3) 0.0286(4)
H10 H 0.6690 0.3703 0.0186
C14 C 0.5112(6) 0.3100(4) 0.0032(4)
H11 H 0.5126 0.2697 -0.0240
C15 C 0.4169(6) 0.3107(4) 0.0187(4)
H12 H 0.3552 0.2702 0.0022
C16 C 0.4121(5) 0.3706(3) 0.0587(4)
C17 C 0.3105(6) 0.6571(4) 0.1805(4)
C18 C 0.2643(6) 0.6938(4) 0.1398(5)
H13 H 0.2410 0.6771 0.0925
C19 C 0.2531(6) 0.7548(4) 0.1697(4)
H14 H 0.2223 0.7794 0.1424
C20 C 0.2878(5) 0.7807(3) 0.2414(4)
H15 H 0.2802 0.8222 0.2615
C21 C 0.3337(5) 0.7436(4) 0.2820(4)
H16 H 0.3569 0.7600 0.3294
C22 C 0.3444(6) 0.6819(3) 0.2510(4)
H17 H 0.3747 0.6569 0.2779
C23 C 0.5318(6) 0.6362(4) 0.1946(4)
C24 C 0.6172(6) 0.6604(3) 0.2544(4)
H18 H 0.6101 0.6430 0.2914
C25 C 0.7168(7) 0.7121(4) 0.2598(4)
H19 H 0.7747 0.7303 0.3009
C26 C 0.7267(6) 0.7353(3) 0.2026(4)
H20 H 0.7912 0.7695 0.2054
C27 C 0.6427(6) 0.7080(4) 0.1438(4)
H21 H 0.6507 0.7232 0.1059
C28 C 0.5449(5) 0.6582(3) 0.1375(4)
H22 H 0.4886 0.6394 0.0958
C29 C 0.4157(6) 0.5699(4) 0.4197(4)
C30 C 0.5074(7) 0.6316(3) 0.4479(4)
H23 H 0.5779 0.6302 0.4650
C31 C 0.4906(6) 0.6955(4) 0.4496(4)
H24 H 0.5508 0.7367 0.4640
C32 C 0.3853(6) 0.6975(4) 0.4300(4)
H25 H 0.3754 0.7404 0.4328
C33 C 0.2938(6) 0.6372(3) 0.4063(4)
H26 H 0.2231 0.6396 0.3945
C34 C 0.3094(6) 0.5712(3) 0.4000(4)
C35 C 0.2069(5) 0.5133(3) 0.3739(4)
H27 H 0.1435 0.5251 0.3676
C36 C 0.0937(5) 0.3851(3) 0.3373(4)
H28 H 0.0290 0.3956 0.3160
H29 H 0.0843 0.3710 0.3775
C37 C 0.1012(5) 0.3269(3) 0.2894(4)
H30 H 0.1042 0.3372 0.2467
H31 H 0.0403 0.2840 0.2803
C38 C 0.2157(5) 0.2596(3) 0.3263(3)
H32 H 0.1543 0.2196 0.3036
C39 C 0.3229(5) 0.2546(3) 0.3592(4)
C40 C 0.3099(5) 0.1839(3) 0.3524(4)
H33 H 0.2397 0.1507 0.3391
C41 C 0.4018(5) 0.1640(3) 0.3654(4)
H34 H 0.3934 0.1172 0.3608
C42 C 0.5055(6) 0.2129(4) 0.3850(4)
H35 H 0.5667 0.1987 0.3942
C43 C 0.5211(6) 0.2836(3) 0.3914(3)
H36 H 0.5917 0.3162 0.4044
C44 C 0.4276(5) 0.3045(4) 0.3777(4)
C45 C 0.0219(6) 0.4363(3) 0.4936(4)
C46 C -0.0821(6) 0.4002(3) 0.4502(4)
H37 H -0.1163 0.3537 0.4475
C47 C -0.1370(6) 0.4347(3) 0.4096(4)
H38 H -0.2088 0.4110 0.3804
C48 C -0.0858(5) 0.5021(3) 0.4127(4)
H39 H -0.1230 0.5236 0.3847
C49 C 0.0189(6) 0.5396(3) 0.4560(4)
H40 H 0.0530 0.5855 0.4569
C50 C 0.0744(5) 0.5066(3) 0.4995(4)
C51 C 0.1905(6) 0.5510(3) 0.5447(4)
H41 H 0.2189 0.5956 0.5402
C52 C 0.3710(6) 0.5755(4) 0.6276(4)
H42 H 0.4150 0.5671 0.5981
C53 C 0.4156(5) 0.5548(3) 0.6940(3)
H43 H 0.3803 0.5695 0.7269
C54 C 0.4226(5) 0.4381(3) 0.7031(4)
H44 H 0.4934 0.4620 0.7335
C55 C 0.3834(5) 0.3608(3) 0.6987(4)
C56 C 0.4566(6) 0.3336(3) 0.7353(4)
H45 H 0.5285 0.3623 0.7606
C57 C 0.4219(6) 0.2637(3) 0.7338(4)
H46 H 0.4705 0.2463 0.7591
C58 C 0.3165(6) 0.2196(3) 0.6953(3)
H47 H 0.2944 0.1727 0.6944
C59 C 0.2425(6) 0.2463(3) 0.6574(3)
H48 H 0.1708 0.2172 0.6321
C60 C 0.2767(5) 0.3161(3) 0.6581(4)
C61 C 0.3984(5) 0.6550(3) 0.6520(4)
C62 C 0.4497(5) 0.6972(3) 0.6185(3)
H49 H 0.4700 0.6776 0.5824
C63 C 0.4724(6) 0.7699(3) 0.6377(4)
H50 H 0.5030 0.7982 0.6130
C64 C 0.4479(6) 0.7977(4) 0.6941(4)
H51 H 0.4670 0.8458 0.7088
C65 C 0.3958(6) 0.7571(4) 0.7303(4)
H52 H 0.3783 0.7774 0.7674
C66 C 0.3707(8) 0.6849(4) 0.7091(4)
H53 H 0.3359 0.6564 0.7321
C67 C 0.5450(6) 0.5882(3) 0.7288(4)
C68 C 0.6216(6) 0.5894(3) 0.6937(4)
H54 H 0.5963 0.5702 0.6466
C69 C 0.7358(6) 0.6190(3) 0.7278(4)
H55 H 0.7863 0.6190 0.7043
C70 C 0.7696(6) 0.6474(3) 0.7963(4)
H56 H 0.8450 0.6659 0.8194
C71 C 0.6993(6) 0.6507(4) 0.8337(4)
H57 H 0.7252 0.6724 0.8803
C72 C 0.5881(6) 0.6199(3) 0.7981(3)
H58 H 0.5389 0.6206 0.8225
C73 C -0.0574(5) 0.4482(3) 0.8028(3)
C74 C -0.1278(6) 0.4871(4) 0.7862(4)
H59 H -0.1023 0.5353 0.8044
C75 C -0.2367(6) 0.4519(3) 0.7418(3)
H60 H -0.2842 0.4765 0.7310
C76 C -0.2724(6) 0.3803(4) 0.7144(4)
H61 H -0.3436 0.3570 0.6843
C77 C -0.2038(6) 0.3437(4) 0.7313(3)
H62 H -0.2306 0.2954 0.7143
C78 C -0.0948(6) 0.3770(3) 0.7735(4)
C79 C -0.0237(6) 0.3351(3) 0.7938(3)
H63 H -0.0578 0.2870 0.7835
C80 C 0.1540(5) 0.3173(3) 0.8436(4)
H64 H 0.1633 0.3169 0.8908
H65 H 0.1153 0.2697 0.8154
C81 C 0.2650(6) 0.3415(3) 0.8357(4)
H66 H 0.3152 0.3233 0.8625
H67 H 0.2611 0.3279 0.7882
C82 C 0.4099(6) 0.4516(3) 0.8934(4)
H68 H 0.4590 0.4272 0.8961
C83 C 0.4497(6) 0.5284(3) 0.9232(4)
C84 C 0.5638(6) 0.5550(4) 0.9604(4)
H69 H 0.6009 0.5250 0.9724
C85 C 0.6189(6) 0.6256(3) 0.9785(4)
H70 H 0.6936 0.6432 1.0036
C86 C 0.5660(6) 0.6713(4) 0.9603(4)
H71 H 0.6057 0.7186 0.9709
C87 C 0.4562(6) 0.6465(3) 0.9269(4)
H72 H 0.4194 0.6773 0.9173
C88 C 0.3984(6) 0.5758(3) 0.9070(4)
C89 C 0.2083(7) 0.4715(4) -0.0440(5)
C90 C 0.3327(6) 0.4300(3) 0.2789(4)
C91 C 0.3154(6) 0.4079(3) 0.4719(4)
C92 C 0.1686(6) 0.4593(4) 0.7536(4)
Mn1 Mn 0.26954(8) 0.44297(5) 0.11411(6)
Mn2 Mn 0.22433(8) 0.43504(5) 0.60351(5)
N1 N 0.2279(5) 0.5267(3) 0.1523(3)
N2 N 0.4234(5) 0.5168(3) 0.1403(3)
N3 N 0.1909(5) 0.4480(3) 0.3582(3)
N4 N 0.2078(4) 0.3234(3) 0.3296(3)
N5 N 0.2532(4) 0.5316(3) 0.5891(3)
N6 N 0.3792(5) 0.4783(3) 0.6738(3)
N7 N 0.0824(5) 0.3608(3) 0.8250(3)
N8 N 0.2989(4) 0.4176(3) 0.8618(3)
N9 N 0.2212(5) 0.4643(3) 0.0086(3)
N10 N 0.3267(5) 0.4341(3) 0.2242(3)
N11 N 0.3015(4) 0.4077(2) 0.5231(3)
N12 N 0.1633(5) 0.4593(3) 0.6968(3)
O1 O 0.1429(3) 0.3810(2) 0.1387(2)
O2 O 0.3243(4) 0.3657(2) 0.0763(3)
O3 O 0.4449(4) 0.5167(2) 0.4218(2)
O4 O 0.4465(4) 0.3698(2) 0.3793(2)
O5 O 0.0739(4) 0.4006(2) 0.5341(3)
O6 O 0.2063(4) 0.3388(2) 0.6191(2)
O7 O 0.0422(4) 0.4892(2) 0.8446(2)
O8 O 0.2877(4) 0.5598(2) 0.8736(3)
Ru1 Ru 0.32955(4) 0.41821(2) 0.37253(2)
Ru2 Ru 0.18031(4) 0.46208(2) 0.85181(3)
C89_2 C 0.2083(7) 0.4715(4) 0.9560(5)
Ru2_2 Ru 0.18031(4) 0.46208(2) -0.14819(3)
C93 C 1.1488(6) 0.1730(4) 0.1599(4)
C94 C 1.2414(5) 0.2318(3) 0.1706(3)
H73 H 1.2464 0.2752 0.1954
C95 C 1.3268(5) 0.2259(3) 0.1441(4)
H74 H 1.3851 0.2654 0.1483
C96 C 1.3221(5) 0.1588(3) 0.1109(4)
H75 H 1.3790 0.1536 0.0948
C97 C 1.2319(5) 0.1007(3) 0.1026(4)
H76 H 1.2284 0.0568 0.0798
C98 C 1.1485(6) 0.1071(3) 0.1272(4)
C99 C 1.0498(6) 0.0454(4) 0.1100(4)
H77 H 1.0517 0.0071 0.0800
C100 C 0.8545(5) -0.0286(3) 0.0928(4)
H78 H 0.8204 -0.0306 0.0451
C101 C 0.7769(5) -0.0278(3) 0.1356(4)
H79 H 0.8039 -0.0424 0.1764
C102 C 0.6870(6) 0.0551(3) 0.1735(4)
H80 H 0.6246 0.0168 0.1657
C103 C 0.6854(6) 0.1240(3) 0.2029(4)
C104 C 0.5874(5) 0.1262(3) 0.2120(4)
H81 H 0.5249 0.0863 0.1939
C105 C 0.5811(6) 0.1884(3) 0.2483(4)
H82 H 0.5155 0.1889 0.2559
C106 C 0.6717(6) 0.2480(3) 0.2724(4)
H83 H 0.6672 0.2894 0.2952
C107 C 0.7722(6) 0.2464(3) 0.2625(4)
H84 H 0.8339 0.2869 0.2783
C108 C 0.7778(5) 0.1855(3) 0.2300(3)
C109 C 0.8836(5) -0.0921(3) 0.1008(3)
C110 C 0.8502(6) -0.1503(3) 0.0468(4)
H85 H 0.8083 -0.1501 0.0043
C111 C 0.8765(6) -0.2098(4) 0.0531(4)
H86 H 0.8507 -0.2494 0.0163
C112 C 0.9430(6) -0.2075(3) 0.1169(4)
H87 H 0.9637 -0.2460 0.1220
C113 C 0.9791(6) -0.1502(3) 0.1728(4)
H88 H 1.0232 -0.1499 0.2149
C114 C 0.9474(5) -0.0918(3) 0.1643(4)
H89 H 0.9693 -0.0530 0.2015
C115 C 0.6594(7) -0.0803(3) 0.0920(4)
C116 C 0.6131(6) -0.0654(4) 0.0365(6)
H90 H 0.6544 -0.0306 0.0219
C117 C 0.5047(6) -0.1008(4) 0.0001(4)
H91 H 0.4667 -0.0858 -0.0343
C118 C 0.4531(7) -0.1610(4) 0.0173(5)
H92 H 0.3842 -0.1912 -0.0117
C119 C 0.5005(8) -0.1763(4) 0.0745(5)
H93 H 0.4622 -0.2146 0.0864
C120 C 0.6084(6) -0.1340(4) 0.1160(4)
H94 H 0.6430 -0.1416 0.1568
C121 C 1.2351(6) 0.1022(3) 0.4811(4)
C122 C 1.3084(6) 0.0682(4) 0.4935(4)
H95 H 1.2867 0.0207 0.4731
C123 C 1.4142(6) 0.1040(4) 0.5362(4)
H96 H 1.4630 0.0802 0.5464
C124 C 1.4499(6) 0.1776(4) 0.5651(4)
H97 H 1.5217 0.2026 0.5936
C125 C 1.3738(5) 0.2099(3) 0.5491(4)
H98 H 1.3949 0.2577 0.5682
C126 C 1.2670(5) 0.1743(3) 0.5058(4)
C127 C 1.2055(5) 0.2210(4) 0.4900(4)
H99 H 1.2414 0.2688 0.5010
C128 C 1.0390(6) 0.2372(3) 0.4407(4)
H100 H 1.0246 0.2344 0.3925
H101 H 1.0798 0.2852 0.4671
C129 C 0.9358(6) 0.2110(3) 0.4554(4)
H102 H 0.9516 0.2204 0.5045
H103 H 0.8877 0.2360 0.4391
C130 C 0.7767(5) 0.0988(3) 0.3819(4)
H104 H 0.7289 0.1228 0.3696
C131 C 0.7318(6) 0.0227(4) 0.3528(4)
C132 C 0.6212(6) -0.0021(3) 0.3170(4)
H105 H 0.5849 0.0298 0.3118
C133 C 0.5604(6) -0.0732(4) 0.2880(4)
H106 H 0.4857 -0.0877 0.2635
C134 C 0.6113(5) -0.1213(4) 0.2960(4)
H107 H 0.5710 -0.1684 0.2760
C135 C 0.7237(6) -0.1005(3) 0.3338(4)
H108 H 0.7567 -0.1336 0.3414
C136 C 0.7855(5) -0.0286(4) 0.3599(4)
C137 C 1.1501(6) 0.1126(3) 0.7830(4)
C138 C 1.2512(6) 0.1519(3) 0.8361(4)
H109 H 1.2877 0.1977 0.8375
C139 C 1.2967(5) 0.1231(3) 0.8863(3)
H110 H 1.3644 0.1490 0.9194
C140 C 1.2422(5) 0.0569(3) 0.8869(4)
H111 H 1.2714 0.0387 0.9215
C141 C 1.1422(6) 0.0164(3) 0.8353(4)
H112 H 1.1066 -0.0292 0.8348
C142 C 1.0956(6) 0.0446(3) 0.7845(4)
C143 C 0.9966(6) 0.0001(3) 0.7322(4)
H113 H 0.9753 -0.0471 0.7301
C144 C 0.8287(5) -0.0311(3) 0.6299(4)
H114 H 0.8492 -0.0313 0.5883
C145 C 0.7510(5) 0.0075(3) 0.6244(4)
H115 H 0.7358 0.0106 0.6679
C146 C 0.7465(6) 0.1180(3) 0.5962(4)
H116 H 0.6703 0.0980 0.5768
C147 C 0.7975(5) 0.1858(3) 0.5908(3)
C148 C 0.7321(5) 0.2125(3) 0.5487(4)
H117 H 0.6608 0.1844 0.5217
C149 C 0.7733(6) 0.2815(3) 0.5470(4)
H118 H 0.7285 0.2994 0.5193
C150 C 0.8788(6) 0.3229(3) 0.5854(4)
H119 H 0.9065 0.3684 0.5828
C151 C 0.9453(5) 0.2961(3) 0.6291(4)
H120 H 1.0163 0.3245 0.6566
C152 C 0.9059(5) 0.2299(3) 0.6308(3)
C153 C 0.8097(7) -0.1053(3) 0.6349(4)
C154 C 0.8358(6) -0.1504(3) 0.5925(4)
H121 H 0.8664 -0.1357 0.5602
C155 C 0.8176(5) -0.2183(3) 0.5963(4)
H122 H 0.8346 -0.2496 0.5668
C156 C 0.7727(5) -0.2383(4) 0.6463(4)
H123 H 0.7590 -0.2840 0.6490
C157 C 0.7484(6) -0.1934(3) 0.6908(4)
H124 H 0.7201 -0.2076 0.7240
C158 C 0.7679(5) -0.1222(4) 0.6851(4)
H125 H 0.7526 -0.0897 0.7145
C159 C 0.6351(5) -0.0300(3) 0.5715(4)
C160 C 0.5374(6) -0.0453(4) 0.5849(4)
H126 H 0.5354 -0.0320 0.6291
C161 C 0.4425(6) -0.0807(4) 0.5314(4)
H127 H 0.3767 -0.0928 0.5413
C162 C 0.4369(6) -0.1004(3) 0.4627(4)
H128 H 0.3704 -0.1240 0.4277
C163 C 0.5383(6) -0.0820(3) 0.4506(4)
H129 H 0.5391 -0.0930 0.4059
C164 C 0.6390(5) -0.0474(3) 0.5038(3)
H130 H 0.7058 -0.0363 0.4949
C165 C 0.7686(7) 0.0136(5) 0.9017(5)
C166 C 0.6786(7) -0.0499(5) 0.8747(5)
H131 H 0.6074 -0.0508 0.8548
C167 C 0.7005(8) -0.1107(5) 0.8791(6)
H132 H 0.6408 -0.1522 0.8630
C168 C 0.8037(8) -0.1145(5) 0.9053(5)
H133 H 0.8147 -0.1566 0.9065
C169 C 0.8928(8) -0.0493(5) 0.9306(5)
H134 H 0.9645 -0.0483 0.9488
C170 C 0.8737(7) 0.0115(5) 0.9285(6)
C171 C 0.9785(7) 0.0701(5) 0.9614(4)
H135 H 1.0423 0.0597 0.9766
C172 C 1.0883(7) 0.1966(4) 0.9856(4)
H136 H 1.0966 0.2057 0.9433
H137 H 1.1521 0.1862 1.0088
C173 C 1.0813(6) 0.2601(4) 1.0303(4)
H138 H 1.0758 0.2527 1.0737
H139 H 1.1454 0.3009 1.0389
C174 C 0.9701(7) 0.3294(4) 0.9859(4)
H140 H 1.0354 0.3668 0.9976
C175 C 0.8671(7) 0.3435(4) 0.9648(4)
C176 C 0.8739(7) 0.4118(4) 0.9655(4)
H141 H 0.9420 0.4476 0.9825
C177 C 0.7771(6) 0.4261(4) 0.9403(4)
H142 H 0.7804 0.4716 0.9411
C178 C 0.6783(6) 0.3732(4) 0.9147(4)
H143 H 0.6148 0.3833 0.8979
C179 C 0.6690(6) 0.3050(4) 0.9126(4)
H144 H 0.6008 0.2695 0.8941
C180 C 0.7674(6) 0.2903(4) 0.9398(4)
C181 C 0.8383(6) 0.1302(4) 0.0099(5)
C182 C 0.9887(6) 0.0888(3) 0.3299(4)
C183 C 1.0078(6) 0.0856(3) 0.5257(4)
C184 C 0.8821(6) 0.1521(3) 0.8296(4)
Mn3 Mn 0.96254(8) 0.11977(5) 0.68228(5)
Mn4 Mn 0.91875(8) 0.11353(5) 0.17139(5)
N13 N 0.9564(5) 0.0312(3) 0.1274(3)
N14 N 0.7707(5) 0.0432(3) 0.1570(3)
N15 N 1.0980(5) 0.1933(3) 0.4596(3)
N16 N 0.8799(5) 0.1384(3) 0.4248(3)
N17 N 0.9311(4) 0.0191(3) 0.6857(3)
N18 N 0.8002(5) 0.0805(3) 0.6273(3)
N19 N 0.9884(5) 0.1371(3) 0.9709(3)
N20 N 0.9791(5) 0.2687(3) 0.9899(4)
N21 N 0.8487(5) 0.1260(3) 0.0660(3)
N22 N 0.9817(5) 0.0869(3) 0.2714(3)
N23 N 1.0100(5) 0.0919(3) 0.5821(3)
N24 N 0.9091(4) 0.1439(3) 0.7812(3)
O9 O 1.0663(3) 0.1837(2) 0.1803(2)
O10 O 0.8781(4) 0.1873(2) 0.2246(2)
O11 O 1.1359(4) 0.0588(2) 0.4396(2)
O12 O 0.8844(4) -0.0083(2) 0.3998(3)
O13 O 1.1117(3) 0.1468(2) 0.7431(2)
O14 O 0.9790(4) 0.2098(2) 0.6755(3)
O15 O 0.7512(4) 0.0721(3) 0.8992(3)
O16 O 0.7469(4) 0.2255(2) 0.9407(3)
Ru3 Ru 1.00149(4) 0.09063(2) 0.42862(3)
Ru4 Ru 0.86668(5) 0.16900(3) 0.94478(4)
C181_2 C 0.8383(6) 0.1302(4) 1.0099(5)
Ru4_2 Ru 0.86668(5) 0.16900(3) -0.05522(4)
loop_
_geom_bond_atom_site_label_1
_geom_bond_atom_site_label_2
_geom_bond_site_symmetry_1
_geom_bond_site_symmetry_2
C1 C2 1_555 1_555
C2 H1 1_555 1_555
C3 C2 1_555 1_555
H2 C3 1_555 1_555
C4 C3 1_555 1_555
H3 C4 1_555 1_555
C5 C4 1_555 1_555
H4 C5 1_555 1_555
C6 C1 1_555 1_555
C7 C6 1_555 1_555
H5 C7 1_555 1_555
C8 H6 1_555 1_555
C9 C8 1_555 1_555
H7 C9 1_555 1_555
C10 H8 1_555 1_555
C11 C10 1_555 1_555
C12 C11 1_555 1_555
H9 C12 1_555 1_555
C13 C12 1_555 1_555
H10 C13 1_555 1_555
C14 C13 1_555 1_555
H11 C14 1_555 1_555
C15 C14 1_555 1_555
H12 C15 1_555 1_555
C16 C11 1_555 1_555
C17 C8 1_555 1_555
C18 C17 1_555 1_555
H13 C18 1_555 1_555
C19 C18 1_555 1_555
H14 C19 1_555 1_555
C20 C19 1_555 1_555
H15 C20 1_555 1_555
C21 C20 1_555 1_555
H16 C21 1_555 1_555
C22 C17 1_555 1_555
H17 C22 1_555 1_555
C23 C9 1_555 1_555
C24 C23 1_555 1_555
H18 C24 1_555 1_555
C25 C24 1_555 1_555
H19 C25 1_555 1_555
C26 C25 1_555 1_555
H20 C26 1_555 1_555
C27 C26 1_555 1_555
H21 C27 1_555 1_555
C28 C23 1_555 1_555
H22 C28 1_555 1_555
C29 C30 1_555 1_555
C30 H23 1_555 1_555
C31 C30 1_555 1_555
H24 C31 1_555 1_555
C32 C31 1_555 1_555
H25 C32 1_555 1_555
C33 C32 1_555 1_555
H26 C33 1_555 1_555
C34 C29 1_555 1_555
C35 C34 1_555 1_555
H27 C35 1_555 1_555
C36 H28 1_555 1_555
H29 C36 1_555 1_555
C37 C36 1_555 1_555
H30 C37 1_555 1_555
H31 C37 1_555 1_555
C38 H32 1_555 1_555
C39 C38 1_555 1_555
C40 C39 1_555 1_555
H33 C40 1_555 1_555
C41 C40 1_555 1_555
H34 C41 1_555 1_555
C42 C41 1_555 1_555
H35 C42 1_555 1_555
C43 C42 1_555 1_555
H36 C43 1_555 1_555
C44 C39 1_555 1_555
C45 C46 1_555 1_555
C46 H37 1_555 1_555
C47 C46 1_555 1_555
H38 C47 1_555 1_555
C48 C47 1_555 1_555
H39 C48 1_555 1_555
C49 C48 1_555 1_555
H40 C49 1_555 1_555
C50 C45 1_555 1_555
C51 C50 1_555 1_555
H41 C51 1_555 1_555
C52 H42 1_555 1_555
C53 C52 1_555 1_555
H43 C53 1_555 1_555
C54 H44 1_555 1_555
C55 C54 1_555 1_555
C56 C55 1_555 1_555
H45 C56 1_555 1_555
C57 C56 1_555 1_555
H46 C57 1_555 1_555
C58 C57 1_555 1_555
H47 C58 1_555 1_555
C59 C58 1_555 1_555
H48 C59 1_555 1_555
C60 C55 1_555 1_555
C61 C52 1_555 1_555
C62 C61 1_555 1_555
H49 C62 1_555 1_555
C63 C62 1_555 1_555
H50 C63 1_555 1_555
C64 C63 1_555 1_555
H51 C64 1_555 1_555
C65 C64 1_555 1_555
H52 C65 1_555 1_555
C66 C61 1_555 1_555
H53 C66 1_555 1_555
C67 C53 1_555 1_555
C68 C67 1_555 1_555
H54 C68 1_555 1_555
C69 C68 1_555 1_555
H55 C69 1_555 1_555
C70 C69 1_555 1_555
H56 C70 1_555 1_555
C71 C70 1_555 1_555
H57 C71 1_555 1_555
C72 C67 1_555 1_555
H58 C72 1_555 1_555
C73 C74 1_555 1_555
C74 H59 1_555 1_555
C75 C74 1_555 1_555
H60 C75 1_555 1_555
C76 C75 1_555 1_555
H61 C76 1_555 1_555
C77 C76 1_555 1_555
H62 C77 1_555 1_555
C78 C73 1_555 1_555
C79 C78 1_555 1_555
H63 C79 1_555 1_555
C80 H64 1_555 1_555
H65 C80 1_555 1_555
C81 C80 1_555 1_555
H66 C81 1_555 1_555
H67 C81 1_555 1_555
C82 H68 1_555 1_555
C83 C82 1_555 1_555
C84 C83 1_555 1_555
H69 C84 1_555 1_555
C85 C84 1_555 1_555
H70 C85 1_555 1_555
C86 C85 1_555 1_555
H71 C86 1_555 1_555
C87 C86 1_555 1_555
H72 C87 1_555 1_555
C88 C83 1_555 1_555
C89 N9 1_555 1_555
C90 N10 1_555 1_555
C91 N11 1_555 1_555
C92 N12 1_555 1_555
Mn1 N1 1_555 1_555
Mn2 N5 1_555 1_555
N1 C7 1_555 1_555
N2 C9 1_555 1_555
N3 C35 1_555 1_555
N4 C37 1_555 1_555
N5 C51 1_555 1_555
N6 C53 1_555 1_555
N7 C79 1_555 1_555
N8 C81 1_555 1_555
N9 Mn1 1_555 1_555
N10 Mn1 1_555 1_555
N11 Mn2 1_555 1_555
N12 Mn2 1_555 1_555
O1 C1 1_555 1_555
O2 C16 1_555 1_555
O3 C29 1_555 1_555
O4 C44 1_555 1_555
O5 C45 1_555 1_555
O6 C60 1_555 1_555
O7 C73 1_555 1_555
O8 C88 1_555 1_555
Ru1 C90 1_555 1_555
Ru2 C92 1_555 1_555
C93 C94 1_555 1_555
C94 H73 1_555 1_555
C95 C94 1_555 1_555
H74 C95 1_555 1_555
C96 C95 1_555 1_555
H75 C96 1_555 1_555
C97 C96 1_555 1_555
H76 C97 1_555 1_555
C98 C93 1_555 1_555
C99 C98 1_555 1_555
H77 C99 1_555 1_555
C100 H78 1_555 1_555
C101 C100 1_555 1_555
H79 C101 1_555 1_555
C102 H80 1_555 1_555
C103 C102 1_555 1_555
C104 C103 1_555 1_555
H81 C104 1_555 1_555
C105 C104 1_555 1_555
H82 C105 1_555 1_555
C106 C105 1_555 1_555
H83 C106 1_555 1_555
C107 C106 1_555 1_555
H84 C107 1_555 1_555
C108 C103 1_555 1_555
C109 C100 1_555 1_555
C110 C109 1_555 1_555
H85 C110 1_555 1_555
C111 C110 1_555 1_555
H86 C111 1_555 1_555
C112 C111 1_555 1_555
H87 C112 1_555 1_555
C113 C112 1_555 1_555
H88 C113 1_555 1_555
C114 C109 1_555 1_555
H89 C114 1_555 1_555
C115 C101 1_555 1_555
C116 C115 1_555 1_555
H90 C116 1_555 1_555
C117 C116 1_555 1_555
H91 C117 1_555 1_555
C118 C117 1_555 1_555
H92 C118 1_555 1_555
C119 C118 1_555 1_555
H93 C119 1_555 1_555
C120 C115 1_555 1_555
H94 C120 1_555 1_555
C121 C122 1_555 1_555
C122 H95 1_555 1_555
C123 C122 1_555 1_555
H96 C123 1_555 1_555
C124 C123 1_555 1_555
H97 C124 1_555 1_555
C125 C124 1_555 1_555
H98 C125 1_555 1_555
C126 C121 1_555 1_555
C127 C126 1_555 1_555
H99 C127 1_555 1_555
C128 H100 1_555 1_555
H101 C128 1_555 1_555
C129 C128 1_555 1_555
H102 C129 1_555 1_555
H103 C129 1_555 1_555
C130 H104 1_555 1_555
C131 C130 1_555 1_555
C132 C131 1_555 1_555
H105 C132 1_555 1_555
C133 C132 1_555 1_555
H106 C133 1_555 1_555
C134 C133 1_555 1_555
H107 C134 1_555 1_555
C135 C134 1_555 1_555
H108 C135 1_555 1_555
C136 C131 1_555 1_555
C137 C138 1_555 1_555
C138 H109 1_555 1_555
C139 C138 1_555 1_555
H110 C139 1_555 1_555
C140 C139 1_555 1_555
H111 C140 1_555 1_555
C141 C140 1_555 1_555
H112 C141 1_555 1_555
C142 C137 1_555 1_555
C143 C142 1_555 1_555
H113 C143 1_555 1_555
C144 H114 1_555 1_555
C145 C144 1_555 1_555
H115 C145 1_555 1_555
C146 H116 1_555 1_555
C147 C146 1_555 1_555
C148 C147 1_555 1_555
H117 C148 1_555 1_555
C149 C148 1_555 1_555
H118 C149 1_555 1_555
C150 C149 1_555 1_555
H119 C150 1_555 1_555
C151 C150 1_555 1_555
H120 C151 1_555 1_555
C152 C147 1_555 1_555
C153 C144 1_555 1_555
C154 C153 1_555 1_555
H121 C154 1_555 1_555
C155 C154 1_555 1_555
H122 C155 1_555 1_555
C156 C155 1_555 1_555
H123 C156 1_555 1_555
C157 C156 1_555 1_555
H124 C157 1_555 1_555
C158 C153 1_555 1_555
H125 C158 1_555 1_555
C159 C145 1_555 1_555
C160 C159 1_555 1_555
H126 C160 1_555 1_555
C161 C160 1_555 1_555
H127 C161 1_555 1_555
C162 C161 1_555 1_555
H128 C162 1_555 1_555
C163 C162 1_555 1_555
H129 C163 1_555 1_555
C164 C159 1_555 1_555
H130 C164 1_555 1_555
C165 C166 1_555 1_555
C166 H131 1_555 1_555
C167 C166 1_555 1_555
H132 C167 1_555 1_555
C168 C167 1_555 1_555
H133 C168 1_555 1_555
C169 C168 1_555 1_555
H134 C169 1_555 1_555
C170 C165 1_555 1_555
C171 C170 1_555 1_555
H135 C171 1_555 1_555
C172 H136 1_555 1_555
H137 C172 1_555 1_555
C173 C172 1_555 1_555
H138 C173 1_555 1_555
H139 C173 1_555 1_555
C174 H140 1_555 1_555
C175 C174 1_555 1_555
C176 C175 1_555 1_555
H141 C176 1_555 1_555
C177 C176 1_555 1_555
H142 C177 1_555 1_555
C178 C177 1_555 1_555
H143 C178 1_555 1_555
C179 C178 1_555 1_555
H144 C179 1_555 1_555
C180 C175 1_555 1_555
C181 N21 1_555 1_555
C182 N22 1_555 1_555
C183 N23 1_555 1_555
C184 N24 1_555 1_555
Mn3 N17 1_555 1_555
Mn4 N13 1_555 1_555
N13 C99 1_555 1_555
N14 C101 1_555 1_555
N15 C127 1_555 1_555
N16 C129 1_555 1_555
N17 C143 1_555 1_555
N18 C145 1_555 1_555
N19 C171 1_555 1_555
N20 C173 1_555 1_555
N21 Mn4 1_555 1_555
N22 Mn4 1_555 1_555
N23 Mn3 1_555 1_555
N24 Mn3 1_555 1_555
O9 C93 1_555 1_555
O10 C108 1_555 1_555
O11 C121 1_555 1_555
O12 C136 1_555 1_555
O13 C137 1_555 1_555
O14 C152 1_555 1_555
O15 C165 1_555 1_555
O16 C180 1_555 1_555
Ru3 C182 1_555 1_555
Ru4 C184 1_555 1_555
C89_2 Ru2 1_555 1_555
Ru2_2 C89 1_555 1_555
C181_2 Ru4 1_555 1_555
Ru4_2 C181 1_555 1_555
C5 C6 1_555 1_555
C8 N1 1_555 1_555
C10 N2 1_555 1_555
C15 C16 1_555 1_555
C21 C22 1_555 1_555
C27 C28 1_555 1_555
C33 C34 1_555 1_555
C36 N3 1_555 1_555
C38 N4 1_555 1_555
C43 C44 1_555 1_555
C49 C50 1_555 1_555
C52 N5 1_555 1_555
C54 N6 1_555 1_555
C59 C60 1_555 1_555
C65 C66 1_555 1_555
C71 C72 1_555 1_555
C77 C78 1_555 1_555
C80 N7 1_555 1_555
C82 N8 1_555 1_555
C87 C88 1_555 1_555
C91 Ru1 1_555 1_555
Mn1 N2 1_555 1_555
Mn1 O1 1_555 1_555
Mn1 O2 1_555 1_555
Mn2 N6 1_555 1_555
Mn2 O5 1_555 1_555
Mn2 O6 1_555 1_555
N3 Ru1 1_555 1_555
N4 Ru1 1_555 1_555
N7 Ru2 1_555 1_555
N8 Ru2 1_555 1_555
O3 Ru1 1_555 1_555
O4 Ru1 1_555 1_555
O7 Ru2 1_555 1_555
O8 Ru2 1_555 1_555
C97 C98 1_555 1_555
C100 N13 1_555 1_555
C102 N14 1_555 1_555
C107 C108 1_555 1_555
C113 C114 1_555 1_555
C119 C120 1_555 1_555
C125 C126 1_555 1_555
C128 N15 1_555 1_555
C130 N16 1_555 1_555
C135 C136 1_555 1_555
C141 C142 1_555 1_555
C144 N17 1_555 1_555
C146 N18 1_555 1_555
C151 C152 1_555 1_555
C157 C158 1_555 1_555
C163 C164 1_555 1_555
C169 C170 1_555 1_555
C172 N19 1_555 1_555
C174 N20 1_555 1_555
C179 C180 1_555 1_555
C183 Ru3 1_555 1_555
Mn3 N18 1_555 1_555
Mn3 O13 1_555 1_555
Mn3 O14 1_555 1_555
Mn4 N14 1_555 1_555
Mn4 O9 1_555 1_555
Mn4 O10 1_555 1_555
N15 Ru3 1_555 1_555
N16 Ru3 1_555 1_555
N19 Ru4 1_555 1_555
N20 Ru4 1_555 1_555
O11 Ru3 1_555 1_555
O12 Ru3 1_555 1_555
O15 Ru4 1_555 1_555
O16 Ru4 1_555 1_555

#END
