
#######################################################################
#
#                 Cambridge Crystallographic Data Centre
#                                CCDC 
#
#######################################################################
#
# If this CIF has been generated from an entry in the Cambridge 
# Structural Database, then it will include bibliographic, chemical, 
# crystal, experimental, refinement or atomic coordinate data resulting 
# from the CCDC's data processing and validation procedures.
#
#######################################################################

data_POWLAQ
_symmetry_cell_setting           monoclinic
_symmetry_space_group_name_H-M   'P 21'
_symmetry_Int_Tables_number      4
_space_group_name_Hall           'P 2yb'
loop_
_symmetry_equiv_pos_site_id
_symmetry_equiv_pos_as_xyz
1 x,y,z
2 -x,1/2+y,-z
_cell_length_a                   10.8146(15)
_cell_length_b                   13.3776(18)
_cell_length_c                   12.8080(17)
_cell_angle_alpha                90
_cell_angle_beta                 97.643(2)
_cell_angle_gamma                90
_cell_volume                     1836.51
loop_
_atom_site_label
_atom_site_type_symbol
_atom_site_fract_x
_atom_site_fract_y
_atom_site_fract_z
Ru1 Ru 0.35927(3) 0.13422(2) 0.93698(2)
N1 N 0.3310(3) -0.0002(3) 0.8751(3)
N2 N 0.3941(3) 0.0578(3) 1.0710(3)
O1 O 0.4005(3) 0.2650(3) 1.0159(2)
O2 O 0.3017(3) 0.1969(2) 0.7947(3)
C1 C 0.1762(4) 0.1513(4) 0.9686(3)
C2 C 0.5412(3) 0.1336(5) 0.9017(3)
C3 C 0.3211(5) -0.0261(4) 0.7765(4)
C4 C 0.3236(5) -0.0795(4) 0.9578(4)
C5 C 0.4029(5) 0.0965(5) 1.1644(4)
C6 C 0.4107(5) -0.0504(4) 1.0538(4)
C7 C 0.3984(4) 0.2770(4) 1.1134(3)
C8 C 0.2919(4) 0.1450(5) 0.7040(3)
N3 N 0.0757(3) 0.1679(3) 0.9747(3)
N4 N 0.6440(3) 0.1390(4) 0.8858(3)
H1 H 0.3200 -0.0939 0.7602
C9 C 0.3116(5) 0.0463(4) 0.6894(4)
H2 H 0.3475 -0.1439 0.9320
H3 H 0.2390 -0.0845 0.9746
H4 H 0.4097 0.0522 1.2209
C10 C 0.4033(4) 0.1954(4) 1.1878(4)
H5 H 0.3916 -0.0879 1.1144
H6 H 0.4962 -0.0643 1.0435
C11 C 0.4048(4) 0.3737(5) 1.1542(4)
C12 C 0.2627(5) 0.2021(5) 0.6078(4)
Mn1 Mn -0.14062(6) 0.16341(5) 0.93040(5)
C13 C 0.3023(6) 0.0055(5) 0.5896(4)
C14 C 0.4102(5) 0.2228(5) 1.3005(5)
C15 C 0.4110(5) 0.3956(5) 1.2623(4)
H7 H 0.4049 0.4268 1.1074
H8 H 0.2545 0.2711 0.6127
C16 C 0.2476(5) 0.1613(5) 0.5156(4)
N5 N 0.8947(3) 0.1357(4) 0.7846(3)
O3 O 0.8326(3) 0.1765(3) 1.0692(3)
O4 O 0.8496(3) 0.3015(3) 0.9054(3)
N6 N 0.8795(4) 0.0166(3) 0.9413(3)
H9 H 0.3186 -0.0623 0.5826
C17 C 0.2702(6) 0.0612(5) 0.5010(5)
H10 H 0.4109 0.1714 1.3495
C18 C 0.4155(5) 0.3166(5) 1.3360(5)
H11 H 0.4121 0.4616 1.2851
H12 H 0.2206 0.2007 0.4572
C19 C 0.8903(4) 0.0294(4) 0.7602(4)
C20 C 0.9261(4) 0.2030(4) 0.7195(4)
C21 C 0.7872(4) 0.1059(4) 1.1265(4)
C22 C 0.8921(4) 0.3524(4) 0.8289(3)
C23 C 0.9428(4) -0.0267(4) 0.8565(4)
C24 C 0.8398(4) -0.0354(4) 1.0143(4)
H13 H 0.2638 0.0331 0.4341
H14 H 0.4219 0.3298 1.4078
C25 C 0.9489(5) 0.0004(5) 0.6623(4)
H15 H 0.8019 0.0113 0.7459
C26 C 0.9321(4) 0.3087(5) 0.7396(4)
H16 H 0.9462 0.1809 0.6550
C27 C 0.7384(4) 0.1330(6) 1.2195(4)
C28 C 0.7856(5) 0.0032(4) 1.1028(4)
C29 C 0.8899(5) 0.4593(4) 0.8354(5)
H17 H 1.0314 -0.0091 0.8716
C30 C 0.9353(5) -0.1386(4) 0.8425(4)
H18 H 0.8467 -0.1044 1.0095
C31 C 0.9522(7) -0.1171(5) 0.6520(5)
H19 H 1.0330 0.0268 0.6676
H20 H 0.9006 0.0288 0.6001
C32 C 0.9711(6) 0.3715(5) 0.6615(4)
C33 C 0.6954(5) 0.0690(5) 1.2826(5)
H21 H 0.7369 0.2004 1.2368
C34 C 0.7395(5) -0.0637(4) 1.1713(4)
H22 H 0.8615 0.4901 0.8928
C35 C 0.9297(6) 0.5170(5) 0.7567(5)
H23 H 0.8487 -0.1596 0.8313
H24 H 0.9760 -0.1715 0.9054
C36 C 0.9983(5) -0.1675(5) 0.7494(5)
H25 H 0.8686 -0.1409 0.6278
H26 H 1.0047 -0.1347 0.5991
H27 H 0.9959 0.3428 0.6015
C37 C 0.9735(6) 0.4729(5) 0.6715(4)
C38 C 0.6894(5) -0.0333(5) 1.2607(5)
H28 H 0.6679 0.0923 1.3440
H29 H 0.7424 -0.1317 1.1568
H30 H 0.9269 0.5863 0.7613
H31 H 0.9887 -0.2389 0.7385
H32 H 1.0868 -0.1538 0.7659
H33 H 1.0045 0.5123 0.6210
H34 H 0.6539 -0.0784 1.3034
Mn1_2 Mn 0.85938(6) 0.16341(5) 0.93040(5)
N3_2 N 1.0757(3) 0.1679(3) 0.9747(3)
loop_
_geom_bond_atom_site_label_1
_geom_bond_atom_site_label_2
_geom_bond_site_symmetry_1
_geom_bond_site_symmetry_2
Ru1 N1 1_555 1_555
N1 C3 1_555 1_555
N2 Ru1 1_555 1_555
O1 Ru1 1_555 1_555
O2 Ru1 1_555 1_555
C1 Ru1 1_555 1_555
C2 Ru1 1_555 1_555
C3 H1 1_555 1_555
C4 N1 1_555 1_555
C5 N2 1_555 1_555
C6 N2 1_555 1_555
C7 O1 1_555 1_555
C8 O2 1_555 1_555
N3 C1 1_555 1_555
N4 C2 1_555 1_555
C9 C3 1_555 1_555
H2 C4 1_555 1_555
H3 C4 1_555 1_555
H4 C5 1_555 1_555
C10 C5 1_555 1_555
H5 C6 1_555 1_555
H6 C6 1_555 1_555
C11 C7 1_555 1_555
C12 C8 1_555 1_555
Mn1 N3 1_555 1_555
C13 C9 1_555 1_555
C14 C10 1_555 1_555
C15 C11 1_555 1_555
H7 C11 1_555 1_555
H8 C12 1_555 1_555
C16 C12 1_555 1_555
N5 C19 1_555 1_555
O3 C21 1_555 1_555
O4 C22 1_555 1_555
N6 C23 1_555 1_555
H9 C13 1_555 1_555
C17 C13 1_555 1_555
H10 C14 1_555 1_555
C18 C14 1_555 1_555
H11 C15 1_555 1_555
H12 C16 1_555 1_555
C19 C23 1_555 1_555
C20 N5 1_555 1_555
C21 C27 1_555 1_555
C22 C26 1_555 1_555
C23 H17 1_555 1_555
C24 N6 1_555 1_555
H13 C17 1_555 1_555
H14 C18 1_555 1_555
C25 C19 1_555 1_555
H15 C19 1_555 1_555
C26 C20 1_555 1_555
H16 C20 1_555 1_555
C27 C33 1_555 1_555
C28 C21 1_555 1_555
C29 C22 1_555 1_555
C30 C23 1_555 1_555
H18 C24 1_555 1_555
C31 C25 1_555 1_555
H19 C25 1_555 1_555
H20 C25 1_555 1_555
C32 C26 1_555 1_555
C33 C38 1_555 1_555
H21 C27 1_555 1_555
C34 C28 1_555 1_555
H22 C29 1_555 1_555
C35 C29 1_555 1_555
H23 C30 1_555 1_555
H24 C30 1_555 1_555
C36 C30 1_555 1_555
H25 C31 1_555 1_555
H26 C31 1_555 1_555
H27 C32 1_555 1_555
C37 C32 1_555 1_555
C38 C34 1_555 1_555
H28 C33 1_555 1_555
H29 C34 1_555 1_555
H30 C35 1_555 1_555
H31 C36 1_555 1_555
H32 C36 1_555 1_555
H33 C37 1_555 1_555
H34 C38 1_555 1_555
Mn1_2 N4 1_555 1_555
N3_2 Mn1_2 1_555 1_555
C4 C6 1_555 1_555
C7 C10 1_555 1_555
C8 C9 1_555 1_555
C15 C18 1_555 1_555
C16 C17 1_555 1_555
N5 Mn1_2 1_555 1_555
O3 Mn1_2 1_555 1_555
O4 Mn1_2 1_555 1_555
N6 Mn1_2 1_555 1_555
C24 C28 1_555 1_555
C31 C36 1_555 1_555
C35 C37 1_555 1_555

#END
