
#######################################################################
#
#                 Cambridge Crystallographic Data Centre
#                                CCDC 
#
#######################################################################
#
# If this CIF has been generated from an entry in the Cambridge 
# Structural Database, then it will include bibliographic, chemical, 
# crystal, experimental, refinement or atomic coordinate data resulting 
# from the CCDC's data processing and validation procedures.
#
#######################################################################

data_POWLEU
_symmetry_cell_setting           triclinic
_symmetry_space_group_name_H-M   'P 1'
_symmetry_Int_Tables_number      1
_space_group_name_Hall           'P 1'
loop_
_symmetry_equiv_pos_site_id
_symmetry_equiv_pos_as_xyz
1 x,y,z
_cell_length_a                   13.2812(13)
_cell_length_b                   20.8357(15)
_cell_length_c                   20.9023(15)
_cell_angle_alpha                100.140(2)
_cell_angle_beta                 104.427(3)
_cell_angle_gamma                107.371(2)
_cell_volume                     5146.28
loop_
_atom_site_label
_atom_site_type_symbol
_atom_site_fract_x
_atom_site_fract_y
_atom_site_fract_z
C1 C 0.9469(6) 0.6060(4) 0.8570(4)
C2 C 1.0353(6) 0.6635(4) 0.8649(4)
H1 H 1.0315 0.7078 0.8754
C3 C 1.1332(6) 0.6547(4) 0.8568(4)
H2 H 1.1961 0.6939 0.8651
C4 C 1.1369(7) 0.5904(4) 0.8373(4)
H3 H 1.2013 0.5860 0.8303
C5 C 1.0479(6) 0.5315(4) 0.8277(4)
H4 H 1.0512 0.4874 0.8142
C6 C 0.9501(5) 0.5391(4) 0.8387(4)
C7 C 0.8650(6) 0.4789(4) 0.8352(4)
H5 H 0.8761 0.4372 0.8223
C8 C 0.6794(6) 0.4122(4) 0.8496(4)
H6 H 0.6812 0.4153 0.8972
C9 C 0.5738(6) 0.4219(3) 0.8097(4)
H7 H 0.5744 0.4300 0.7650
C10 C 0.4989(6) 0.5014(4) 0.8762(4)
H8 H 0.4298 0.4653 0.8595
C11 C 0.4968(6) 0.5668(4) 0.9149(4)
C12 C 0.3977(6) 0.5661(4) 0.9314(4)
H9 H 0.3362 0.5247 0.9167
C13 C 0.3925(6) 0.6288(4) 0.9706(4)
H10 H 0.3277 0.6291 0.9800
C14 C 0.4903(6) 0.6901(4) 0.9944(4)
H11 H 0.4908 0.7315 1.0201
C15 C 0.5806(6) 0.6874(4) 0.9795(4)
H12 H 0.6436 0.7280 0.9957
C16 C 0.5875(6) 0.6287(3) 0.9417(4)
C17 C 0.6896(6) 0.3436(4) 0.8191(4)
C18 C 0.7349(6) 0.3055(4) 0.8584(4)
H13 H 0.7588 0.3222 0.9060
C19 C 0.7463(7) 0.2435(4) 0.8297(5)
H14 H 0.7766 0.2193 0.8577
C20 C 0.7112(6) 0.2176(4) 0.7574(5)
H15 H 0.7170 0.1759 0.7372
C21 C 0.6678(7) 0.2559(4) 0.7173(4)
H16 H 0.6446 0.2400 0.6697
C22 C 0.6589(6) 0.3192(4) 0.7492(4)
H17 H 0.6315 0.3449 0.7218
C23 C 0.4693(7) 0.3639(4) 0.8066(4)
C24 C 0.3823(6) 0.3389(4) 0.7444(4)
H18 H 0.3904 0.3564 0.7073
C25 C 0.2828(8) 0.2871(4) 0.7389(5)
H19 H 0.2243 0.2681 0.6977
C26 C 0.2738(8) 0.2647(4) 0.7973(5)
H20 H 0.2077 0.2305 0.7942
C27 C 0.3558(7) 0.2903(4) 0.8567(5)
H21 H 0.3463 0.2738 0.8942
C28 C 0.4546(6) 0.3411(4) 0.8633(4)
H22 H 0.5112 0.3599 0.9054
C29 C 0.5863(6) 0.4285(3) 0.5812(4)
C30 C 0.4960(7) 0.3678(4) 0.5533(4)
H23 H 0.4255 0.3695 0.5359
C31 C 0.5078(6) 0.3039(4) 0.5505(4)
H24 H 0.4456 0.2629 0.5359
C32 C 0.6143(7) 0.3022(4) 0.5698(4)
H25 H 0.6237 0.2594 0.5670
C33 C 0.7049(7) 0.3616(3) 0.5927(4)
H26 H 0.7760 0.3596 0.6044
C34 C 0.6913(6) 0.4279(3) 0.5988(4)
C35 C 0.7933(6) 0.4865(3) 0.6290(4)
H27 H 0.8574 0.4757 0.6406
C36 C 0.9063(5) 0.6139(3) 0.6649(4)
H28 H 0.9195 0.6279 0.6249
H29 H 0.9698 0.6032 0.6879
C37 C 0.9000(5) 0.6723(4) 0.7108(3)
H30 H 0.9624 0.7149 0.7190
H31 H 0.8974 0.6629 0.7543
C38 C 0.7842(5) 0.7390(3) 0.6729(3)
H32 H 0.8476 0.7789 0.6947
C39 C 0.6775(5) 0.7456(3) 0.6415(3)
C40 C 0.6887(6) 0.8147(3) 0.6468(3)
H33 H 0.7600 0.8483 0.6608
C41 C 0.5981(6) 0.8358(4) 0.6321(4)
H34 H 0.6079 0.8825 0.6351
C42 C 0.4948(6) 0.7868(4) 0.6131(5)
H35 H 0.4325 0.7997 0.6037
C43 C 0.4818(6) 0.7165(3) 0.6077(4)
H36 H 0.4103 0.6833 0.5939
C44 C 0.5720(5) 0.6950(3) 0.6223(3)
C45 C 0.9761(6) 0.5632(3) 0.5051(4)
C46 C 1.0836(5) 0.5999(4) 0.5508(4)
H37 H 1.1194 0.6467 0.5539
C47 C 1.1358(6) 0.5666(4) 0.5909(4)
H38 H 1.2071 0.5912 0.6218
C48 C 1.0859(5) 0.4988(4) 0.5864(4)
H39 H 1.1244 0.4771 0.6131
C49 C 0.9766(6) 0.4598(4) 0.5421(4)
H40 H 0.9403 0.4140 0.5420
C50 C 0.9244(6) 0.4924(3) 0.4982(4)
C51 C 0.8102(6) 0.4495(3) 0.4537(4)
H41 H 0.7814 0.4042 0.4571
C52 C 0.6310(6) 0.4245(4) 0.3716(4)
H42 H 0.5862 0.4319 0.4011
C53 C 0.5852(5) 0.4450(3) 0.3056(4)
H43 H 0.6212 0.4324 0.2723
C54 C 0.5780(5) 0.5618(3) 0.2985(3)
H44 H 0.5068 0.5374 0.2674
C55 C 0.6155(5) 0.6373(3) 0.3027(3)
C56 C 0.5439(6) 0.6654(4) 0.2646(4)
H45 H 0.4721 0.6362 0.2375
C57 C 0.5785(6) 0.7355(4) 0.2668(4)
H46 H 0.5296 0.7531 0.2420
C58 C 0.6865(5) 0.7798(3) 0.3062(3)
H47 H 0.7100 0.8271 0.3081
C59 C 0.7576(5) 0.7531(3) 0.3422(3)
H48 H 0.8306 0.7824 0.3671
C60 C 0.7217(5) 0.6804(3) 0.3422(3)
C61 C 0.6033(6) 0.3442(4) 0.3483(4)
C62 C 0.5508(5) 0.3030(3) 0.3823(4)
H49 H 0.5298 0.3221 0.4182
C63 C 0.5285(6) 0.2306(4) 0.3622(5)
H50 H 0.4971 0.2021 0.3871
C64 C 0.5529(6) 0.2017(4) 0.3058(5)
H51 H 0.5343 0.1535 0.2921
C65 C 0.6039(6) 0.2424(4) 0.2697(4)
H52 H 0.6222 0.2218 0.2332
C66 C 0.6286(7) 0.3147(4) 0.2876(4)
H53 H 0.6595 0.3427 0.2622
C67 C 0.4543(6) 0.4115(3) 0.2703(4)
C68 C 0.3790(6) 0.4102(4) 0.3068(4)
H54 H 0.4045 0.4298 0.3540
C69 C 0.2657(6) 0.3794(3) 0.2714(5)
H55 H 0.2144 0.3767 0.2951
C70 C 0.2315(6) 0.3543(3) 0.2047(5)
H56 H 0.1555 0.3398 0.1818
C71 C 0.3010(6) 0.3478(4) 0.1653(4)
H57 H 0.2744 0.3238 0.1190
C72 C 0.4113(6) 0.3800(3) 0.2015(3)
H58 H 0.4615 0.3807 0.1774
C73 C 1.0547(5) 0.5523(3) 0.1962(3)
C74 C 1.1285(6) 0.5133(4) 0.2140(4)
H59 H 1.1029 0.4653 0.1951
C75 C 1.2383(6) 0.5486(4) 0.2596(4)
H60 H 1.2855 0.5245 0.2722
C76 C 1.2727(6) 0.6202(4) 0.2848(4)
H61 H 1.3450 0.6446 0.3145
C77 C 1.2056(5) 0.6562(4) 0.2682(3)
H62 H 1.2348 0.7045 0.2853
C78 C 1.0926(6) 0.6240(4) 0.2258(4)
C79 C 1.0225(6) 0.6615(4) 0.2064(4)
H63 H 1.0578 0.7098 0.2179
C80 C 0.8471(5) 0.6824(3) 0.1569(4)
H64 H 0.8875 0.7299 0.1855
H65 H 0.8385 0.6834 0.1096
C81 C 0.7367(5) 0.6590(3) 0.1642(4)
H66 H 0.6877 0.6781 0.1378
H67 H 0.7403 0.6714 0.2119
C82 C 0.5905(6) 0.5483(3) 0.1055(4)
H68 H 0.5411 0.5721 0.1014
C83 C 0.5513(6) 0.4708(4) 0.0785(4)
C84 C 0.4345(6) 0.4441(4) 0.0388(5)
H69 H 0.3979 0.4735 0.0250
C85 C 0.3812(6) 0.3743(4) 0.0227(4)
H70 H 0.3054 0.3561 -0.0017
C86 C 0.4339(6) 0.3276(4) 0.0407(5)
H71 H 0.3938 0.2801 0.0312
C87 C 0.5430(6) 0.3542(4) 0.0718(4)
H72 H 0.5806 0.3237 0.0798
C88 C 0.6017(5) 0.4233(3) 0.0923(4)
C89 C 0.7946(6) 0.5300(3) 1.0445(4)
C90 C 0.6669(5) 0.5701(3) 0.7211(3)
C91 C 0.6840(5) 0.5910(3) 0.5294(3)
C92 C 0.8310(5) 0.5408(4) 0.2464(4)
Mn1 Mn 0.73046(10) 0.55691(7) 0.88590(7)
Mn2 Mn 0.77597(10) 0.56518(6) 0.39624(6)
N1 N 0.7714(5) 0.4732(3) 0.8478(3)
N2 N 0.5780(4) 0.4833(3) 0.8604(3)
N3 N 0.8095(5) 0.5522(3) 0.6425(3)
N4 N 0.7910(4) 0.6765(3) 0.6705(3)
N5 N 0.7473(4) 0.4687(3) 0.4110(3)
N6 N 0.6192(5) 0.5217(3) 0.3272(3)
N7 N 0.9176(5) 0.6387(3) 0.1754(3)
N8 N 0.7004(5) 0.5819(3) 0.1360(3)
N9 N 0.7777(5) 0.5359(3) 0.9900(3)
N10 N 0.6727(5) 0.5651(3) 0.7749(3)
N11 N 0.6982(5) 0.5913(3) 0.4767(3)
N12 N 0.8362(5) 0.5408(3) 0.3040(3)
O1 O 0.8552(4) 0.6181(2) 0.8627(2)
O2 O 0.6767(4) 0.6342(2) 0.9239(3)
O3 O 0.5557(4) 0.4833(2) 0.5778(3)
O4 O 0.5536(4) 0.6293(2) 0.6209(3)
O5 O 0.9253(4) 0.5984(2) 0.4650(3)
O6 O 0.7941(4) 0.6603(2) 0.3814(3)
O7 O 0.9578(4) 0.5103(2) 0.1553(2)
O8 O 0.7112(4) 0.4400(2) 0.1257(2)
Ru1 Ru 0.67050(7) 0.58134(4) 0.62743(4)
Ru2 Ru 0.81949(7) 0.53790(4) 0.14769(5)
C89_2 C 0.7946(6) 0.5300(3) 0.0445(4)
Ru2_2 Ru 0.81949(7) 0.53790(4) 1.14769(5)
C93 C -0.1489(6) 0.8265(4) 0.8396(4)
C94 C -0.2394(6) 0.7687(3) 0.8307(4)
H73 H -0.2440 0.7249 0.8076
C95 C -0.3263(6) 0.7751(4) 0.8566(4)
H74 H -0.3863 0.7354 0.8517
C96 C -0.3216(6) 0.8413(4) 0.8896(4)
H75 H -0.3784 0.8460 0.9064
C97 C -0.2298(6) 0.8998(4) 0.8967(4)
H76 H -0.2255 0.9438 0.9188
C98 C -0.1444(6) 0.8934(4) 0.8712(4)
C99 C -0.0480(6) 0.9570(4) 0.8893(3)
H77 H -0.0526 0.9959 0.9162
C100 C 0.1437(6) 1.0272(4) 0.9055(4)
H78 H 0.1779 1.0288 0.9533
C101 C 0.2257(6) 1.0284(3) 0.8643(4)
H79 H 0.2004 1.0440 0.8237
C102 C 0.3131(6) 0.9454(4) 0.8278(4)
H80 H 0.3783 0.9837 0.8387
C103 C 0.3128(6) 0.8772(3) 0.7969(4)
C104 C 0.4134(6) 0.8749(4) 0.7891(3)
H81 H 0.4780 0.9143 0.8087
C105 C 0.4171(6) 0.8120(4) 0.7511(4)
H82 H 0.4827 0.8121 0.7426
C106 C 0.3279(6) 0.7533(4) 0.7276(4)
H83 H 0.3316 0.7120 0.7045
C107 C 0.2272(6) 0.7547(4) 0.7384(4)
H84 H 0.1650 0.7138 0.7230
C108 C 0.2202(5) 0.8149(3) 0.7708(3)
C109 C 0.1164(7) 1.0943(4) 0.9001(4)
C110 C 0.1501(6) 1.1503(4) 0.9533(4)
H85 H 0.1938 1.1503 0.9956
C111 C 0.1213(8) 1.2104(4) 0.9473(5)
H86 H 0.1445 1.2493 0.9845
C112 C 0.0571(7) 1.2069(4) 0.8831(5)
H87 H 0.0364 1.2451 0.8784
C113 C 0.0208(7) 1.1520(4) 0.8252(5)
H88 H -0.0200 1.1533 0.7826
C114 C 0.0509(7) 1.0910(4) 0.8355(4)
H89 H 0.0264 1.0510 0.7994
C115 C 0.3442(7) 1.0797(4) 0.9079(4)
C116 C 0.3897(7) 1.0669(4) 0.9666(5)
H90 H 0.3472 1.0339 0.9833
C117 C 0.4955(7) 1.1019(4) 0.9998(4)
H91 H 0.5362 1.0866 1.0328
C118 C 0.5427(7) 1.1616(4) 0.9839(4)
H92 H 0.6094 1.1937 1.0153
C119 C 0.5002(7) 1.1788(4) 0.9250(4)
H93 H 0.5383 1.2179 0.9133
C120 C 0.3955(6) 1.1323(5) 0.8849(5)
H94 H 0.3610 1.1373 0.8425
C121 C -0.2363(5) 0.8975(3) 0.5190(4)
C122 C -0.3089(5) 0.9318(4) 0.5062(4)
H95 H -0.2864 0.9796 0.5257
C123 C -0.4142(6) 0.8946(4) 0.4644(4)
H96 H -0.4644 0.9175 0.4555
C124 C -0.4501(5) 0.8233(4) 0.4344(4)
H97 H -0.5223 0.7988 0.4046
C125 C -0.3736(5) 0.7890(3) 0.4504(4)
H98 H -0.3949 0.7414 0.4308
C126 C -0.2684(5) 0.8261(3) 0.4946(3)
C127 C -0.2063(5) 0.7791(3) 0.5103(3)
H99 H -0.2438 0.7312 0.4993
C128 C -0.0404(6) 0.7624(4) 0.5601(4)
H100 H -0.0827 0.7143 0.5335
H101 H -0.0273 0.7650 0.6084
C129 C 0.0669(6) 0.7889(4) 0.5459(5)
H102 H 0.1153 0.7651 0.5642
H103 H 0.0528 0.7791 0.4968
C130 C 0.2244(6) 0.9025(4) 0.6185(4)
H104 H 0.2728 0.8789 0.6298
C131 C 0.2698(6) 0.9765(4) 0.6479(4)
C132 C 0.3787(6) 1.0031(4) 0.6837(4)
H105 H 0.4151 0.9716 0.6895
C133 C 0.4410(6) 1.0729(4) 0.7125(4)
H106 H 0.5169 1.0876 0.7359
C134 C 0.3884(6) 1.1210(4) 0.7060(4)
H107 H 0.4284 1.1679 0.7287
C135 C 0.2769(6) 1.1005(4) 0.6663(4)
H108 H 0.2446 1.1332 0.6573
C136 C 0.2166(5) 1.0298(3) 0.6410(4)
C137 C -0.1490(6) 0.8875(3) 0.2178(4)
C138 C -0.2515(6) 0.8476(4) 0.1640(4)
H109 H -0.2884 0.8014 0.1621
C139 C -0.2969(6) 0.8763(3) 0.1146(4)
H110 H -0.3661 0.8501 0.0819
C140 C -0.2418(5) 0.9427(4) 0.1130(4)
H111 H -0.2706 0.9602 0.0776
C141 C -0.1408(6) 0.9844(3) 0.1657(4)
H112 H -0.1040 1.0305 0.1671
C142 C -0.0988(5) 0.9553(3) 0.2145(4)
C143 C 0.0034(6) 1.0000(3) 0.2682(3)
H113 H 0.0264 1.0474 0.2705
C144 C 0.1693(6) 1.0306(3) 0.3713(4)
H114 H 0.1480 1.0297 0.4129
C145 C 0.2495(6) 0.9924(4) 0.3761(4)
H115 H 0.2652 0.9901 0.3325
C146 C 0.2518(5) 0.8825(3) 0.4034(4)
H116 H 0.3289 0.9031 0.4224
C147 C 0.2033(5) 0.8144(3) 0.4092(3)
C148 C 0.2700(5) 0.7894(3) 0.4514(4)
H117 H 0.3419 0.8185 0.4785
C149 C 0.2293(6) 0.7194(3) 0.4535(4)
H118 H 0.2751 0.7017 0.4807
C150 C 0.1211(6) 0.6770(3) 0.4150(4)
H119 H 0.0928 0.6314 0.4178
C151 C 0.0540(5) 0.7030(3) 0.3719(3)
H120 H -0.0180 0.6740 0.3448
C152 C 0.0940(5) 0.7713(3) 0.3693(3)
C153 C 0.1921(7) 1.1039(4) 0.3675(4)
C154 C 0.1678(6) 1.1505(4) 0.4087(5)
H121 H 0.1393 1.1367 0.4425
C155 C 0.1830(6) 1.2176(4) 0.4033(4)
H122 H 0.1646 1.2480 0.4327
C156 C 0.2254(6) 1.2386(4) 0.3542(4)
H123 H 0.2345 1.2835 0.3501
C157 C 0.2556(6) 1.1951(4) 0.3099(4)
H124 H 0.2896 1.2111 0.2789
C158 C 0.2313(5) 1.1236(4) 0.3144(4)
H125 H 0.2415 1.0909 0.2825
C159 C 0.3634(6) 1.0293(3) 0.4293(3)
C160 C 0.4618(6) 1.0460(3) 0.4159(4)
H126 H 0.4634 1.0333 0.3714
C161 C 0.5590(7) 1.0823(5) 0.4698(5)
H127 H 0.6258 1.0941 0.4602
C162 C 0.5629(7) 1.1018(4) 0.5356(5)
H128 H 0.6303 1.1263 0.5704
C163 C 0.4600(7) 1.0834(4) 0.5501(4)
H129 H 0.4588 1.0947 0.5949
C164 C 0.3621(6) 1.0484(3) 0.4959(3)
H130 H 0.2943 1.0374 0.5043
C165 C 0.2328(8) 0.9877(5) 0.1014(6)
C166 C 0.3234(8) 1.0514(5) 0.1261(6)
H131 H 0.3962 1.0537 0.1444
C167 C 0.2980(9) 1.1108(5) 0.1215(6)
H132 H 0.3587 1.1526 0.1367
C168 C 0.1957(10) 1.1165(6) 0.0976(6)
H133 H 0.1858 1.1588 0.0979
C169 C 0.1022(9) 1.0475(6) 0.0713(6)
H134 H 0.0287 1.0442 0.0533
C170 C 0.1280(8) 0.9916(6) 0.0745(6)
C171 C 0.0200(8) 0.9304(6) 0.0373(5)
H135 H -0.0442 0.9396 0.0198
C172 C -0.0883(7) 0.8029(5) 0.0126(5)
H136 H -0.1516 0.8125 -0.0125
H137 H -0.0996 0.7940 0.0547
C173 C -0.0797(7) 0.7420(4) -0.0285(5)
H138 H -0.0722 0.7498 -0.0718
H139 H -0.1462 0.7015 -0.0381
C174 C 0.0271(7) 0.6708(5) 0.0154(4)
H140 H -0.0396 0.6338 0.0047
C175 C 0.1324(7) 0.6551(4) 0.0359(4)
C176 C 0.1286(7) 0.5886(4) 0.0344(4)
H141 H 0.0592 0.5529 0.0148
C177 C 0.2188(7) 0.5700(6) 0.0593(5)
H142 H 0.2127 0.5243 0.0593
C178 C 0.3259(8) 0.6291(5) 0.0860(5)
H143 H 0.3921 0.6212 0.1010
C179 C 0.3282(7) 0.6941(5) 0.0888(5)
H144 H 0.3960 0.7309 0.1097
C180 C 0.2330(6) 0.7095(4) 0.0618(4)
C181 C 0.1607(5) 0.8690(4) 0.9892(3)
C182 C 0.0139(6) 0.9117(3) 0.6713(4)
C183 C -0.0087(6) 0.9122(3) 0.4722(3)
C184 C 0.1181(6) 0.8500(3) 0.1732(5)
Mn3 Mn 0.03720(10) 0.88046(6) 0.31777(6)
Mn4 Mn 0.08156(10) 0.88650(6) 0.82859(6)
N13 N 0.0461(4) 0.9687(3) 0.8736(3)
N14 N 0.2290(5) 0.9563(3) 0.8410(3)
N15 N -0.0968(5) 0.8064(3) 0.5403(3)
N16 N 0.1206(5) 0.8626(3) 0.5767(3)
N17 N 0.0686(5) 0.9804(3) 0.3149(3)
N18 N 0.1995(5) 0.9213(3) 0.3735(3)
N19 N 0.0123(6) 0.8624(4) 0.0284(5)
N20 N 0.0201(6) 0.7301(4) 0.0110(4)
N21 N 0.1534(5) 0.8763(3) 0.9331(3)
N22 N 0.0166(5) 0.9111(3) 0.7270(3)
N23 N -0.0093(5) 0.9081(3) 0.4170(3)
N24 N 0.0921(5) 0.8576(3) 0.2205(4)
O9 O -0.0657(4) 0.8171(2) 0.8193(2)
O10 O 0.1209(4) 0.8135(2) 0.7766(2)
O11 O -0.1360(4) 0.9414(2) 0.5608(2)
O12 O 0.1148(4) 1.0074(2) 0.6000(3)
O13 O -0.1102(4) 0.8526(2) 0.2561(2)
O14 O 0.0214(4) 0.7915(2) 0.3251(2)
O15 O 0.2489(5) 0.9288(3) 0.1016(3)
O16 O 0.2517(5) 0.7735(3) 0.0611(3)
Ru3 Ru -0.00132(7) 0.90933(4) 0.57117(5)
Ru4 Ru 0.13384(8) 0.83220(5) 0.05657(6)
C181_2 C 0.1607(5) 0.8690(4) -0.0108(3)
Ru4_2 Ru 0.13384(8) 0.83220(5) 1.05657(6)
loop_
_geom_bond_atom_site_label_1
_geom_bond_atom_site_label_2
_geom_bond_site_symmetry_1
_geom_bond_site_symmetry_2
C1 C2 1_555 1_555
C2 H1 1_555 1_555
C3 C2 1_555 1_555
H2 C3 1_555 1_555
C4 C3 1_555 1_555
H3 C4 1_555 1_555
C5 C4 1_555 1_555
H4 C5 1_555 1_555
C6 C1 1_555 1_555
C7 C6 1_555 1_555
H5 C7 1_555 1_555
C8 H6 1_555 1_555
C9 C8 1_555 1_555
H7 C9 1_555 1_555
C10 H8 1_555 1_555
C11 C10 1_555 1_555
C12 C11 1_555 1_555
H9 C12 1_555 1_555
C13 C12 1_555 1_555
H10 C13 1_555 1_555
C14 C13 1_555 1_555
H11 C14 1_555 1_555
C15 C14 1_555 1_555
H12 C15 1_555 1_555
C16 C11 1_555 1_555
C17 C8 1_555 1_555
C18 C17 1_555 1_555
H13 C18 1_555 1_555
C19 C18 1_555 1_555
H14 C19 1_555 1_555
C20 C19 1_555 1_555
H15 C20 1_555 1_555
C21 C20 1_555 1_555
H16 C21 1_555 1_555
C22 C17 1_555 1_555
H17 C22 1_555 1_555
C23 C9 1_555 1_555
C24 C23 1_555 1_555
H18 C24 1_555 1_555
C25 C24 1_555 1_555
H19 C25 1_555 1_555
C26 C25 1_555 1_555
H20 C26 1_555 1_555
C27 C26 1_555 1_555
H21 C27 1_555 1_555
C28 C23 1_555 1_555
H22 C28 1_555 1_555
C29 C30 1_555 1_555
C30 H23 1_555 1_555
C31 C30 1_555 1_555
H24 C31 1_555 1_555
C32 C31 1_555 1_555
H25 C32 1_555 1_555
C33 C32 1_555 1_555
H26 C33 1_555 1_555
C34 C29 1_555 1_555
C35 C34 1_555 1_555
H27 C35 1_555 1_555
C36 H28 1_555 1_555
H29 C36 1_555 1_555
C37 C36 1_555 1_555
H30 C37 1_555 1_555
H31 C37 1_555 1_555
C38 H32 1_555 1_555
C39 C38 1_555 1_555
C40 C39 1_555 1_555
H33 C40 1_555 1_555
C41 C40 1_555 1_555
H34 C41 1_555 1_555
C42 C41 1_555 1_555
H35 C42 1_555 1_555
C43 C42 1_555 1_555
H36 C43 1_555 1_555
C44 C39 1_555 1_555
C45 C46 1_555 1_555
C46 H37 1_555 1_555
C47 C46 1_555 1_555
H38 C47 1_555 1_555
C48 C47 1_555 1_555
H39 C48 1_555 1_555
C49 C48 1_555 1_555
H40 C49 1_555 1_555
C50 C45 1_555 1_555
C51 C50 1_555 1_555
H41 C51 1_555 1_555
C52 H42 1_555 1_555
C53 C52 1_555 1_555
H43 C53 1_555 1_555
C54 H44 1_555 1_555
C55 C54 1_555 1_555
C56 C55 1_555 1_555
H45 C56 1_555 1_555
C57 C56 1_555 1_555
H46 C57 1_555 1_555
C58 C57 1_555 1_555
H47 C58 1_555 1_555
C59 C58 1_555 1_555
H48 C59 1_555 1_555
C60 C55 1_555 1_555
C61 C52 1_555 1_555
C62 C61 1_555 1_555
H49 C62 1_555 1_555
C63 C62 1_555 1_555
H50 C63 1_555 1_555
C64 C63 1_555 1_555
H51 C64 1_555 1_555
C65 C64 1_555 1_555
H52 C65 1_555 1_555
C66 C61 1_555 1_555
H53 C66 1_555 1_555
C67 C53 1_555 1_555
C68 C67 1_555 1_555
H54 C68 1_555 1_555
C69 C68 1_555 1_555
H55 C69 1_555 1_555
C70 C69 1_555 1_555
H56 C70 1_555 1_555
C71 C70 1_555 1_555
H57 C71 1_555 1_555
C72 C67 1_555 1_555
H58 C72 1_555 1_555
C73 C74 1_555 1_555
C74 H59 1_555 1_555
C75 C74 1_555 1_555
H60 C75 1_555 1_555
C76 C75 1_555 1_555
H61 C76 1_555 1_555
C77 C76 1_555 1_555
H62 C77 1_555 1_555
C78 C73 1_555 1_555
C79 C78 1_555 1_555
H63 C79 1_555 1_555
C80 H64 1_555 1_555
H65 C80 1_555 1_555
C81 C80 1_555 1_555
H66 C81 1_555 1_555
H67 C81 1_555 1_555
C82 H68 1_555 1_555
C83 C82 1_555 1_555
C84 C83 1_555 1_555
H69 C84 1_555 1_555
C85 C84 1_555 1_555
H70 C85 1_555 1_555
C86 C85 1_555 1_555
H71 C86 1_555 1_555
C87 C86 1_555 1_555
H72 C87 1_555 1_555
C88 C83 1_555 1_555
C89 N9 1_555 1_555
C90 N10 1_555 1_555
C91 N11 1_555 1_555
C92 N12 1_555 1_555
Mn1 N1 1_555 1_555
Mn2 N5 1_555 1_555
N1 C7 1_555 1_555
N2 C9 1_555 1_555
N3 C35 1_555 1_555
N4 C37 1_555 1_555
N5 C51 1_555 1_555
N6 C53 1_555 1_555
N7 C79 1_555 1_555
N8 C81 1_555 1_555
N9 Mn1 1_555 1_555
N10 Mn1 1_555 1_555
N11 Mn2 1_555 1_555
N12 Mn2 1_555 1_555
O1 C1 1_555 1_555
O2 C16 1_555 1_555
O3 C29 1_555 1_555
O4 C44 1_555 1_555
O5 C45 1_555 1_555
O6 C60 1_555 1_555
O7 C73 1_555 1_555
O8 C88 1_555 1_555
Ru1 C90 1_555 1_555
Ru2 C92 1_555 1_555
C93 C94 1_555 1_555
C94 H73 1_555 1_555
C95 C94 1_555 1_555
H74 C95 1_555 1_555
C96 C95 1_555 1_555
H75 C96 1_555 1_555
C97 C96 1_555 1_555
H76 C97 1_555 1_555
C98 C93 1_555 1_555
C99 C98 1_555 1_555
H77 C99 1_555 1_555
C100 H78 1_555 1_555
C101 C100 1_555 1_555
H79 C101 1_555 1_555
C102 H80 1_555 1_555
C103 C102 1_555 1_555
C104 C103 1_555 1_555
H81 C104 1_555 1_555
C105 C104 1_555 1_555
H82 C105 1_555 1_555
C106 C105 1_555 1_555
H83 C106 1_555 1_555
C107 C106 1_555 1_555
H84 C107 1_555 1_555
C108 C103 1_555 1_555
C109 C100 1_555 1_555
C110 C109 1_555 1_555
H85 C110 1_555 1_555
C111 C110 1_555 1_555
H86 C111 1_555 1_555
C112 C111 1_555 1_555
H87 C112 1_555 1_555
C113 C112 1_555 1_555
H88 C113 1_555 1_555
C114 C109 1_555 1_555
H89 C114 1_555 1_555
C115 C101 1_555 1_555
C116 C115 1_555 1_555
H90 C116 1_555 1_555
C117 C116 1_555 1_555
H91 C117 1_555 1_555
C118 C117 1_555 1_555
H92 C118 1_555 1_555
C119 C118 1_555 1_555
H93 C119 1_555 1_555
C120 C115 1_555 1_555
H94 C120 1_555 1_555
C121 C122 1_555 1_555
C122 H95 1_555 1_555
C123 C122 1_555 1_555
H96 C123 1_555 1_555
C124 C123 1_555 1_555
H97 C124 1_555 1_555
C125 C124 1_555 1_555
H98 C125 1_555 1_555
C126 C121 1_555 1_555
C127 C126 1_555 1_555
H99 C127 1_555 1_555
C128 H100 1_555 1_555
H101 C128 1_555 1_555
C129 C128 1_555 1_555
H102 C129 1_555 1_555
H103 C129 1_555 1_555
C130 H104 1_555 1_555
C131 C130 1_555 1_555
C132 C131 1_555 1_555
H105 C132 1_555 1_555
C133 C132 1_555 1_555
H106 C133 1_555 1_555
C134 C133 1_555 1_555
H107 C134 1_555 1_555
C135 C134 1_555 1_555
H108 C135 1_555 1_555
C136 C131 1_555 1_555
C137 C138 1_555 1_555
C138 H109 1_555 1_555
C139 C138 1_555 1_555
H110 C139 1_555 1_555
C140 C139 1_555 1_555
H111 C140 1_555 1_555
C141 C140 1_555 1_555
H112 C141 1_555 1_555
C142 C137 1_555 1_555
C143 C142 1_555 1_555
H113 C143 1_555 1_555
C144 H114 1_555 1_555
C145 C144 1_555 1_555
H115 C145 1_555 1_555
C146 H116 1_555 1_555
C147 C146 1_555 1_555
C148 C147 1_555 1_555
H117 C148 1_555 1_555
C149 C148 1_555 1_555
H118 C149 1_555 1_555
C150 C149 1_555 1_555
H119 C150 1_555 1_555
C151 C150 1_555 1_555
H120 C151 1_555 1_555
C152 C147 1_555 1_555
C153 C144 1_555 1_555
C154 C153 1_555 1_555
H121 C154 1_555 1_555
C155 C154 1_555 1_555
H122 C155 1_555 1_555
C156 C155 1_555 1_555
H123 C156 1_555 1_555
C157 C156 1_555 1_555
H124 C157 1_555 1_555
C158 C153 1_555 1_555
H125 C158 1_555 1_555
C159 C145 1_555 1_555
C160 C159 1_555 1_555
H126 C160 1_555 1_555
C161 C160 1_555 1_555
H127 C161 1_555 1_555
C162 C161 1_555 1_555
H128 C162 1_555 1_555
C163 C162 1_555 1_555
H129 C163 1_555 1_555
C164 C159 1_555 1_555
H130 C164 1_555 1_555
C165 C166 1_555 1_555
C166 H131 1_555 1_555
C167 C166 1_555 1_555
H132 C167 1_555 1_555
C168 C167 1_555 1_555
H133 C168 1_555 1_555
C169 C168 1_555 1_555
H134 C169 1_555 1_555
C170 C165 1_555 1_555
C171 C170 1_555 1_555
H135 C171 1_555 1_555
C172 H136 1_555 1_555
H137 C172 1_555 1_555
C173 C172 1_555 1_555
H138 C173 1_555 1_555
H139 C173 1_555 1_555
C174 H140 1_555 1_555
C175 C174 1_555 1_555
C176 C175 1_555 1_555
H141 C176 1_555 1_555
C177 C176 1_555 1_555
H142 C177 1_555 1_555
C178 C177 1_555 1_555
H143 C178 1_555 1_555
C179 C178 1_555 1_555
H144 C179 1_555 1_555
C180 C175 1_555 1_555
C181 N21 1_555 1_555
C182 N22 1_555 1_555
C183 N23 1_555 1_555
C184 N24 1_555 1_555
Mn3 N17 1_555 1_555
Mn4 N13 1_555 1_555
N13 C99 1_555 1_555
N14 C101 1_555 1_555
N15 C127 1_555 1_555
N16 C129 1_555 1_555
N17 C143 1_555 1_555
N18 C145 1_555 1_555
N19 C171 1_555 1_555
N20 C173 1_555 1_555
N21 Mn4 1_555 1_555
N22 Mn4 1_555 1_555
N23 Mn3 1_555 1_555
N24 Mn3 1_555 1_555
O9 C93 1_555 1_555
O10 C108 1_555 1_555
O11 C121 1_555 1_555
O12 C136 1_555 1_555
O13 C137 1_555 1_555
O14 C152 1_555 1_555
O15 C165 1_555 1_555
O16 C180 1_555 1_555
Ru3 C182 1_555 1_555
Ru4 C184 1_555 1_555
C89_2 Ru2 1_555 1_555
Ru2_2 C89 1_555 1_555
C181_2 Ru4 1_555 1_555
Ru4_2 C181 1_555 1_555
C5 C6 1_555 1_555
C8 N1 1_555 1_555
C10 N2 1_555 1_555
C15 C16 1_555 1_555
C21 C22 1_555 1_555
C27 C28 1_555 1_555
C33 C34 1_555 1_555
C36 N3 1_555 1_555
C38 N4 1_555 1_555
C43 C44 1_555 1_555
C49 C50 1_555 1_555
C52 N5 1_555 1_555
C54 N6 1_555 1_555
C59 C60 1_555 1_555
C65 C66 1_555 1_555
C71 C72 1_555 1_555
C77 C78 1_555 1_555
C80 N7 1_555 1_555
C82 N8 1_555 1_555
C87 C88 1_555 1_555
C91 Ru1 1_555 1_555
Mn1 N2 1_555 1_555
Mn1 O1 1_555 1_555
Mn1 O2 1_555 1_555
Mn2 N6 1_555 1_555
Mn2 O5 1_555 1_555
Mn2 O6 1_555 1_555
N3 Ru1 1_555 1_555
N4 Ru1 1_555 1_555
N7 Ru2 1_555 1_555
N8 Ru2 1_555 1_555
O3 Ru1 1_555 1_555
O4 Ru1 1_555 1_555
O7 Ru2 1_555 1_555
O8 Ru2 1_555 1_555
C97 C98 1_555 1_555
C100 N13 1_555 1_555
C102 N14 1_555 1_555
C107 C108 1_555 1_555
C113 C114 1_555 1_555
C119 C120 1_555 1_555
C125 C126 1_555 1_555
C128 N15 1_555 1_555
C130 N16 1_555 1_555
C135 C136 1_555 1_555
C141 C142 1_555 1_555
C144 N17 1_555 1_555
C146 N18 1_555 1_555
C151 C152 1_555 1_555
C157 C158 1_555 1_555
C163 C164 1_555 1_555
C169 C170 1_555 1_555
C172 N19 1_555 1_555
C174 N20 1_555 1_555
C179 C180 1_555 1_555
C183 Ru3 1_555 1_555
Mn3 N18 1_555 1_555
Mn3 O13 1_555 1_555
Mn3 O14 1_555 1_555
Mn4 N14 1_555 1_555
Mn4 O9 1_555 1_555
Mn4 O10 1_555 1_555
N15 Ru3 1_555 1_555
N16 Ru3 1_555 1_555
N19 Ru4 1_555 1_555
N20 Ru4 1_555 1_555
O11 Ru3 1_555 1_555
O12 Ru3 1_555 1_555
O15 Ru4 1_555 1_555
O16 Ru4 1_555 1_555

#END
