
#######################################################################
#
#                 Cambridge Crystallographic Data Centre
#                                CCDC 
#
#######################################################################
#
# If this CIF has been generated from an entry in the Cambridge 
# Structural Database, then it will include bibliographic, chemical, 
# crystal, experimental, refinement or atomic coordinate data resulting 
# from the CCDC's data processing and validation procedures.
#
#######################################################################

data_POWQEX
_symmetry_cell_setting           orthorhombic
_symmetry_space_group_name_H-M   'I b a m'
_symmetry_Int_Tables_number      72
_space_group_name_Hall           '-I 2 2c'
loop_
_symmetry_equiv_pos_site_id
_symmetry_equiv_pos_as_xyz
1 x,y,z
2 -x,-y,z
3 x,-y,1/2-z
4 -x,y,1/2-z
5 1/2+x,1/2+y,1/2+z
6 1/2-x,1/2-y,1/2+z
7 1/2+x,1/2-y,-z
8 1/2-x,1/2+y,-z
9 -x,-y,-z
10 x,y,-z
11 -x,y,1/2+z
12 x,-y,1/2+z
13 1/2-x,1/2-y,1/2-z
14 1/2+x,1/2+y,1/2-z
15 1/2-x,1/2+y,z
16 1/2+x,1/2-y,z
_cell_length_a                   14.756(3)
_cell_length_b                   11.149(2)
_cell_length_c                   13.656(3)
_cell_angle_alpha                90
_cell_angle_beta                 90
_cell_angle_gamma                90
_cell_volume                     2246.61
loop_
_atom_site_label
_atom_site_type_symbol
_atom_site_fract_x
_atom_site_fract_y
_atom_site_fract_z
C1 C 0.5648(2) -0.2452(3) -0.2043(2)
C2 C 0.5670(2) -0.3691(2) -0.2025(3)
C3 C 0.5000 -0.4334(3) -0.2500
C4 C 0.5541(2) 0.0734(2) 0.0505(2)
N1 N 0.5000 0.0000 0.1009(2)
N2 N 0.5000 -0.1834(3) -0.2500
O1 O 0.3343(2) 0.0000 -0.2500
Cu1 Cu 0.5000 0.0000 -0.2500
H1 H 0.3878(2) -0.2022(3) -0.3286(2)
H2 H 0.3858(2) -0.4105(2) -0.3321(3)
H3 H 0.5965(2) 0.1242(2) 0.0837(2)
H4 H 0.2933(2) -0.0065 -0.2985
C4I C 0.5541(2) 0.0734(2) -0.0505(2)
N1I N 0.5000 0.0000 -0.1009(2)
C4H C 0.4459(2) -0.0734(2) -0.0505(2)
C4A C 0.4459(2) -0.0734(2) 0.0505(2)
H3A H 0.4035(2) -0.1242(2) 0.0837(2)
H3H H 0.4035(2) -0.1242(2) -0.0837(2)
Cu1H Cu 0.5000 0.0000 0.2500
N1K N 0.5000 0.0000 -0.3991(2)
N2A N 0.5000 0.1834(3) -0.2500
C2C C 0.4330(2) -0.3691(2) -0.2975(3)
C1C C 0.4352(2) -0.2452(3) -0.2957(2)
C3A C 0.5000 -0.5666(3) -0.2500
C2A C 0.4330(2) -0.6309(2) -0.2025(3)
C1A C 0.4352(2) -0.7548(3) -0.2043(2)
N2A_2 N 0.5000 -0.8166(3) -0.2500
C1B C 0.5648(2) -0.7548(3) -0.2957(2)
C2B C 0.5670(2) -0.6309(2) -0.2975(3)
H2A H 0.6142(2) -0.5895(2) -0.3321(3)
H1A H 0.6122(2) -0.7978(3) -0.3286(2)
Cu1_2 Cu 0.5000 -1.0000 -0.2500
H1B H 0.3878(2) -0.7978(3) -0.1714(2)
H2B H 0.3858(2) -0.5895(2) -0.1679(3)
H2C H 0.6142(2) -0.4105(2) -0.1679(3)
H1C H 0.6122(2) -0.2022(3) -0.1714(2)
O1A O 0.6657(2) 0.0000 -0.2500
H3I H 0.5965(2) 0.1242(2) -0.0837(2)
H4B H 0.2933(2) 0.0065 -0.2015
H4A H 0.7067(2) 0.0065 -0.2985
H4C H 0.7067(2) -0.0065 -0.2015
P1 P 0.2219(1) 0.1427(1) 0.0000
F1 F 0.3301(2) 0.1452(3) 0.0000
F2 F 0.2227(3) 0.2437(4) 0.0811(3)
F3 F 0.2254(2) 0.0430(3) 0.0815(3)
F4 F 0.1161(2) 0.1454(5) 0.0000
F2I F 0.2227(3) 0.2437(4) -0.0811(3)
F3I F 0.2254(2) 0.0430(3) -0.0815(3)
loop_
_geom_bond_atom_site_label_1
_geom_bond_atom_site_label_2
_geom_bond_site_symmetry_1
_geom_bond_site_symmetry_2
C1 C2 1_555 1_555
C2 C3 1_555 1_555
C3 C2C 1_555 1_555
C4 N1 1_555 1_555
N1 C4A 1_555 1_555
N2 C1 1_555 1_555
P1 F1 1_555 1_555
F2 P1 1_555 1_555
F3 P1 1_555 1_555
F4 P1 1_555 1_555
O1 Cu1 1_555 1_555
Cu1 N2 1_555 1_555
H1 C1C 1_555 1_555
H2 C2C 1_555 1_555
H3 C4 1_555 1_555
H4 O1 1_555 1_555
C4I C4 1_555 1_555
N1I Cu1 1_555 1_555
C4H N1I 1_555 1_555
C4A C4H 1_555 1_555
H3A C4A 1_555 1_555
H3H C4H 1_555 1_555
Cu1H N1 1_555 1_555
N1K Cu1 1_555 1_555
N2A Cu1 1_555 1_555
C2C C1C 1_555 1_555
C1C N2 1_555 1_555
C3A C3 1_555 1_555
C2A C3A 1_555 1_555
C1A C2A 1_555 1_555
N2A_2 C1A 1_555 1_555
C1B N2A_2 1_555 1_555
C2B C3A 1_555 1_555
H2A C2B 1_555 1_555
H1A C1B 1_555 1_555
Cu1_2 N2A_2 1_555 1_555
H1B C1A 1_555 1_555
H2B C2A 1_555 1_555
H2C C2 1_555 1_555
H1C C1 1_555 1_555
O1A Cu1 1_555 1_555
H3I C4I 1_555 1_555
F2I P1 1_555 1_555
F3I P1 1_555 1_555
H4B O1 1_555 1_555
H4A O1A 1_555 1_555
H4C O1A 1_555 1_555
C4I N1I 1_555 1_555
C1B C2B 1_555 1_555

#END
