
#######################################################################
#
#                 Cambridge Crystallographic Data Centre
#                                CCDC 
#
#######################################################################
#
# If this CIF has been generated from an entry in the Cambridge 
# Structural Database, then it will include bibliographic, chemical, 
# crystal, experimental, refinement or atomic coordinate data resulting 
# from the CCDC's data processing and validation procedures.
#
#######################################################################

data_POWSEB
_symmetry_cell_setting           triclinic
_symmetry_space_group_name_H-M   'P -1'
_symmetry_Int_Tables_number      2
_space_group_name_Hall           '-P 1'
loop_
_symmetry_equiv_pos_site_id
_symmetry_equiv_pos_as_xyz
1 x,y,z
2 -x,-y,-z
_cell_length_a                   7.2929(3)
_cell_length_b                   10.5454(4)
_cell_length_c                   14.2837(6)
_cell_angle_alpha                102.0350(10)
_cell_angle_beta                 99.1580(10)
_cell_angle_gamma                102.9170(10)
_cell_volume                     1022.49
loop_
_atom_site_label
_atom_site_type_symbol
_atom_site_fract_x
_atom_site_fract_y
_atom_site_fract_z
Ba1 Ba 0.5000 1.5000 1.0000
Ba2 Ba 0.42698(2) 1.162043(17) 1.121763(12)
Ba3 Ba -0.09411(2) 1.268541(17) 0.933772(12)
O1 O -0.1975(6) 1.1901(3) 0.7255(2)
O2 O -0.2614(4) 1.0185(3) 0.78984(19)
O3 O 0.5166(3) 1.2465(3) 0.87431(19)
O4 O 0.2714(3) 1.2124(2) 0.94774(16)
O5 O 0.2809(3) 0.9321(2) 0.97071(16)
O6 O 0.3957(3) 1.4171(2) 1.16424(17)
O7 O 0.5985(5) 1.2684(4) 1.3133(2)
O8 O -0.0344(3) 0.8526(3) 0.91293(18)
C1 C -0.2394(5) 1.0649(4) 0.7173(3)
C2 C -0.0248(5) 1.4629(3) 1.2475(2)
O9 O -0.1776(3) 1.5838(2) 1.15309(18)
C3 C -0.2172(7) 1.1175(5) 0.5028(3)
O10 O 0.1591(3) 1.4820(2) 1.08580(16)
C4 C 0.1536(4) 0.9410(3) 0.8090(2)
H1 H 0.0913 0.8744 0.7520
O11 O -0.2558(3) 1.3614(2) 1.09812(17)
O12 O -0.2322(8) 1.1109(5) 0.4153(3)
C5 C -0.1608(4) 1.4697(3) 1.1599(2)
C6 C 0.2561(5) 1.0562(3) 0.7986(2)
C7 C 0.1550(5) 1.4570(4) 1.2482(2)
C8 C 0.3556(4) 1.1795(3) 0.8793(2)
C9 C 0.1292(4) 0.9085(3) 0.9043(2)
C10 C 0.2414(4) 1.4517(3) 1.1607(2)
C11 C -0.2575(7) 0.9694(4) 0.6218(3)
H2 H -0.2804 0.8795 0.6231
O13 O -0.1815(7) 1.2334(4) 0.5653(3)
C12 C -0.2459(8) 0.9926(5) 0.5350(3)
H3 H -0.263(9) 0.922(7) 0.486(5)
H4 H 0.239(7) 1.447(5) 1.308(3)
H5 H 0.260(7) 1.060(5) 0.730(4)
H6 H -0.069(6) 1.468(5) 1.303(3)
H7 H 0.608(8) 1.348(3) 1.346(4)
H8 H 0.681(7) 1.239(5) 1.346(4)
Ba2A Ba -0.42698(2) 0.837957(17) 0.878237(12)
Ba3A Ba 0.09411(2) 0.731459(17) 1.066228(12)
O1A O 0.1975(6) 0.8099(3) 1.2745(2)
O2A O 0.2614(4) 0.9815(3) 1.21016(19)
O3A O -0.5166(3) 0.7535(3) 1.12569(19)
O4A O -0.2714(3) 0.7876(2) 1.05226(16)
O5A O -0.2809(3) 1.0679(2) 1.02929(16)
O6A O -0.3957(3) 0.5829(2) 0.83576(17)
O7A O -0.5985(5) 0.7316(4) 0.6867(2)
O8A O 0.0344(3) 1.1474(3) 1.08707(18)
C1A C 0.2394(5) 0.9351(4) 1.2827(3)
C2A C 0.0248(5) 0.5371(3) 0.7525(2)
O9A O 0.1776(3) 0.4162(2) 0.84691(18)
C3A C 0.2172(7) 0.8825(5) 1.4972(3)
O10A O -0.1591(3) 0.5180(2) 0.91420(16)
C4A C -0.1536(4) 1.0590(3) 1.1910(2)
H1A H -0.0913 1.1256 1.2480
O11A O 0.2558(3) 0.6386(2) 0.90188(17)
O12A O 0.2322(8) 0.8891(5) 1.5847(3)
C5A C 0.1608(4) 0.5303(3) 0.8401(2)
C6A C -0.2561(5) 0.9438(3) 1.2014(2)
C7A C -0.1550(5) 0.5430(4) 0.7518(2)
C8A C -0.3556(4) 0.8205(3) 1.1207(2)
C9A C -0.1292(4) 1.0915(3) 1.0957(2)
C10A C -0.2414(4) 0.5483(3) 0.8393(2)
C11A C 0.2575(7) 1.0306(4) 1.3782(3)
H2A H 0.2804 1.1205 1.3769
O13A O 0.1815(7) 0.7666(4) 1.4347(3)
C12A C 0.2459(8) 1.0074(5) 1.4650(3)
H3A H 0.263(9) 1.078(7) 1.514(5)
H4A H -0.239(7) 0.553(5) 0.692(3)
H5A H -0.260(7) 0.940(5) 1.270(4)
H6A H 0.069(6) 0.532(5) 0.697(3)
H7A H -0.608(8) 0.652(3) 0.654(4)
H8A H -0.681(7) 0.761(5) 0.654(4)
Ba1_2 Ba -0.5000 0.5000 1.0000
Ba1_3 Ba -0.5000 1.5000 1.0000
Ba1_4 Ba 0.5000 0.5000 1.0000
Ba2_2 Ba -0.57302(2) 1.162043(17) 1.121763(12)
Ba2A_2 Ba 0.57302(2) 0.837957(17) 0.878237(12)
Ba3_2 Ba -0.09411(2) 0.268541(17) 0.933772(12)
Ba3_3 Ba 0.90589(2) 1.268541(17) 0.933772(12)
Ba3A_2 Ba -0.90589(2) 0.731459(17) 1.066228(12)
Ba3A_3 Ba 0.09411(2) 1.731459(17) 1.066228(12)
O3_2 O -0.4834(3) 1.2465(3) 0.87431(19)
O3A_2 O 0.4834(3) 0.7535(3) 1.12569(19)
O3A_3 O 0.4834(3) 1.7535(3) 1.12569(19)
O4A_2 O 0.7286(3) 1.7876(2) 1.05226(16)
O5_2 O -0.7191(3) 0.9321(2) 0.97071(16)
O5A_2 O 0.7191(3) 1.0679(2) 1.02929(16)
O6A_2 O 0.6043(3) 1.5829(2) 0.83576(17)
O9_2 O -0.1776(3) 0.5838(2) 1.15309(18)
O9_3 O 0.8224(3) 1.5838(2) 1.15309(18)
O9A_2 O 0.1776(3) 1.4162(2) 0.84691(18)
O10_2 O 0.1591(3) 0.4820(2) 1.08580(16)
O10A_2 O -0.1591(3) 1.5180(2) 0.91420(16)
O10A_3 O 0.8409(3) 1.5180(2) 0.91420(16)
O11_2 O 0.7442(3) 1.3614(2) 1.09812(17)
O11A_2 O -0.7442(3) 0.6386(2) 0.90188(17)
O11A_3 O 0.2558(3) 1.6386(2) 0.90188(17)
O14 O 0.0000 1.5000 1.5000
O15 O -0.6454(9) 1.2944(5) 0.6725(3)
O16 O 0.3690(7) 1.4814(4) 1.5611(3)
loop_
_geom_bond_atom_site_label_1
_geom_bond_atom_site_label_2
_geom_bond_site_symmetry_1
_geom_bond_site_symmetry_2
Ba1 O3 1_555 1_555
Ba2 O4 1_555 1_555
Ba3 O1 1_555 1_555
O1 C1 1_555 1_555
O2 Ba3 1_555 1_555
O3 C8 1_555 1_555
O4 Ba1 1_555 1_555
O5 Ba2 1_555 1_555
O6 Ba1 1_555 1_555
O7 Ba2 1_555 1_555
O8 C9 1_555 1_555
C1 O2 1_555 1_555
C2 C5 1_555 1_555
O9 C5 1_555 1_555
C3 O12 1_555 1_555
O10 Ba1 1_555 1_555
C4 H1 1_555 1_555
O11 Ba3 1_555 1_555
C5 O11 1_555 1_555
C6 C4 1_555 1_555
C7 C2 1_555 1_555
C8 O4 1_555 1_555
C9 O5 1_555 1_555
C10 O6 1_555 1_555
C11 C1 1_555 1_555
H2 C11 1_555 1_555
O13 C3 1_555 1_555
C12 C3 1_555 1_555
H3 C12 1_555 1_555
H4 C7 1_555 1_555
H5 C6 1_555 1_555
H6 C2 1_555 1_555
H7 O7 1_555 1_555
H8 O7 1_555 1_555
Ba2A O2 1_555 1_555
Ba3A O5 1_555 1_555
O1A Ba3A 1_555 1_555
O2A Ba2 1_555 1_555
O3A C8A 1_555 1_555
O4A Ba2A 1_555 1_555
O5A Ba3 1_555 1_555
O6A Ba2A 1_555 1_555
O7A Ba2A 1_555 1_555
O8A Ba2 1_555 1_555
C1A O1A 1_555 1_555
C2A C5A 1_555 1_555
O9A C5A 1_555 1_555
C3A O12A 1_555 1_555
O10A Ba3A 1_555 1_555
C4A H1A 1_555 1_555
O11A Ba3A 1_555 1_555
C5A O11A 1_555 1_555
C6A C4A 1_555 1_555
C7A C2A 1_555 1_555
C8A O4A 1_555 1_555
C9A O5A 1_555 1_555
C10A O6A 1_555 1_555
C11A C1A 1_555 1_555
H2A C11A 1_555 1_555
O13A C3A 1_555 1_555
C12A C3A 1_555 1_555
H3A C12A 1_555 1_555
H4A C7A 1_555 1_555
H5A C6A 1_555 1_555
H6A C2A 1_555 1_555
H7A O7A 1_555 1_555
H8A O7A 1_555 1_555
Ba1_2 O3A 1_555 1_555
Ba1_3 O9 1_555 1_555
Ba1_4 O9A 1_555 1_555
Ba2_2 O11 1_555 1_555
Ba2A_2 O5 1_555 1_555
Ba3_2 O9A 1_555 1_555
Ba3_3 O3 1_555 1_555
Ba3A_2 O3A 1_555 1_555
Ba3A_3 O9 1_555 1_555
O3_2 Ba3 1_555 1_555
O3A_2 Ba3A 1_555 1_555
O3A_3 Ba1 1_555 1_555
O4A_2 Ba1 1_555 1_555
O5_2 Ba2A 1_555 1_555
O5A_2 Ba2 1_555 1_555
O6A_2 Ba1 1_555 1_555
O9_2 Ba3A 1_555 1_555
O9_3 Ba1 1_555 1_555
O9A_2 Ba1 1_555 1_555
O10_2 Ba3A 1_555 1_555
O10A_2 Ba3 1_555 1_555
O10A_3 Ba1 1_555 1_555
O11_2 Ba1 1_555 1_555
O11A_2 Ba2A 1_555 1_555
O11A_3 Ba1 1_555 1_555
Ba2 O6 1_555 1_555
Ba2 O11_2 1_555 1_555
Ba3 O4 1_555 1_555
Ba3 O10 1_555 1_555
Ba3 O8A 1_555 1_555
Ba3 O9A_2 1_555 1_555
O8 Ba2A 1_555 1_555
O8 Ba3A 1_555 1_555
O10 C10 1_555 1_555
O10 Ba3A_3 1_555 1_555
C4 C9 1_555 1_555
O11 Ba1_3 1_555 1_555
C6 C8 1_555 1_555
C7 C10 1_555 1_555
C11 C12 1_555 1_555
Ba2A O5A 1_555 1_555
Ba3A O2A 1_555 1_555
Ba3A O4A 1_555 1_555
O2A C1A 1_555 1_555
O4A Ba1_2 1_555 1_555
O5A Ba2_2 1_555 1_555
O6A Ba1_2 1_555 1_555
O8A C9A 1_555 1_555
O10A C10A 1_555 1_555
O10A Ba1_2 1_555 1_555
O10A Ba3_2 1_555 1_555
C4A C9A 1_555 1_555
O11A Ba1_4 1_555 1_555
O11A Ba2A_2 1_555 1_555
C6A C8A 1_555 1_555
C7A C10A 1_555 1_555
C11A C12A 1_555 1_555
Ba1_2 O9_2 1_555 1_555
Ba1_2 O11A_2 1_555 1_555
Ba1_3 O3_2 1_555 1_555
Ba1_3 O10A_2 1_555 1_555
Ba1_4 O3A_2 1_555 1_555
Ba1_4 O10_2 1_555 1_555
Ba2_2 O5_2 1_555 1_555
Ba2A_2 O5A_2 1_555 1_555
Ba3_2 O10_2 1_555 1_555
Ba3_3 O5A_2 1_555 1_555
Ba3_3 O10A_3 1_555 1_555
Ba3_3 O11_2 1_555 1_555
Ba3A_2 O5_2 1_555 1_555
Ba3A_2 O11A_2 1_555 1_555
Ba3A_3 O3A_3 1_555 1_555
Ba3A_3 O10A_2 1_555 1_555
Ba3A_3 O11A_3 1_555 1_555

#END
