
#######################################################################
#
#                 Cambridge Crystallographic Data Centre
#                                CCDC 
#
#######################################################################
#
# If this CIF has been generated from an entry in the Cambridge 
# Structural Database, then it will include bibliographic, chemical, 
# crystal, experimental, refinement or atomic coordinate data resulting 
# from the CCDC's data processing and validation procedures.
#
#######################################################################

data_POXJAO
_symmetry_cell_setting           triclinic
_symmetry_space_group_name_H-M   'P -1'
_symmetry_Int_Tables_number      2
_space_group_name_Hall           '-P 1'
loop_
_symmetry_equiv_pos_site_id
_symmetry_equiv_pos_as_xyz
1 x,y,z
2 -x,-y,-z
_cell_length_a                   9.0502(15)
_cell_length_b                   9.6651(16)
_cell_length_c                   13.104(2)
_cell_angle_alpha                93.872(3)
_cell_angle_beta                 108.960(2)
_cell_angle_gamma                113.967(2)
_cell_volume                     963.81
loop_
_atom_site_label
_atom_site_type_symbol
_atom_site_fract_x
_atom_site_fract_y
_atom_site_fract_z
Cd1 Cd 0.83422(3) 0.43488(3) 0.27394(2)
Cd2 Cd 1.03838(3) 0.17802(3) 0.28297(2)
Cd3 Cd 1.0000 0.0000 0.0000
O1 O 0.8799(4) 0.1422(3) 0.0839(2)
O2 O 0.7878(4) 0.3192(4) 0.1034(2)
O3 O 0.8802(3) 0.5338(3) -0.3426(3)
O4 O 0.5935(3) 0.3948(3) -0.4278(2)
O5 O 0.8240(3) 0.1972(3) 0.3197(2)
O6 O 0.8516(3) 0.0299(3) 0.4212(2)
O7 O 0.8774(4) 0.5605(3) 0.4461(2)
H1 H 0.8608 0.6410 0.4457
H2 H 0.8755 0.5200 0.5016
O8 O 1.2250(3) 0.2286(3) 0.4803(2)
H3 H 1.1929 0.1425 0.4998
H4 H 1.3346 0.2858 0.5011
N1 N 0.9672(4) -0.0799(4) 0.2319(3)
N2 N 0.9400(4) -0.1482(4) 0.1270(3)
N3 N 0.8904(4) -0.3314(3) 0.2230(3)
N4 N 1.2785(4) 0.2474(3) 0.2391(2)
N5 N 1.2548(4) 0.1882(4) 0.1324(3)
N6 N 1.5397(4) 0.3401(4) 0.2284(3)
C1 C 0.8942(5) -0.2960(4) 0.1262(3)
H5 H 0.8671 -0.3691 0.0646
C2 C 0.9366(5) -0.1922(4) 0.2849(3)
H6 H 0.9459 -0.1772 0.3580
C3 C 1.4129(5) 0.2473(5) 0.1310(3)
H7 H 1.4349 0.2269 0.0685
C4 C 1.4484(5) 0.3358(4) 0.2925(3)
H8 H 1.4997 0.3893 0.3664
C5 C 0.7886(5) 0.2116(4) 0.0457(3)
C6 C 0.6736(6) 0.1625(5) -0.0767(4)
H9 H 0.5883 0.0543 -0.0934
H10 H 0.7463 0.1687 -0.1184
C7 C 0.5747(6) 0.2579(6) -0.1180(4)
H11 H 0.4575 0.2034 -0.1188
H12 H 0.6333 0.3569 -0.0646
C8 C 0.5589(6) 0.2902(6) -0.2318(4)
H13 H 0.5027 0.1920 -0.2856
H14 H 0.4841 0.3410 -0.2521
C9 C 0.7310(6) 0.3899(6) -0.2376(4)
H15 H 0.8016 0.3348 -0.2215
H16 H 0.7902 0.4836 -0.1790
C10 C 0.7283(5) 0.4384(4) -0.3451(3)
C11 C 0.7803(4) 0.1109(4) 0.3861(3)
C12 C 0.6341(5) 0.1136(5) 0.4171(4)
H17 H 0.5310 0.0822 0.3497
H18 H 0.6691 0.2198 0.4519
C13 C 0.5842(5) 0.0094(5) 0.4950(4)
H19 H 0.5715 -0.0924 0.4679
H20 H 0.6782 0.0533 0.5679
Cd1A Cd 1.16578(3) -0.43488(3) -0.27394(2)
Cd1A_2 Cd 1.16578(3) 0.56512(3) -0.27394(2)
Cd1_2 Cd 0.83422(3) -0.56512(3) 0.27394(2)
Cd1_3 Cd 1.83422(3) 0.43488(3) 0.27394(2)
Cd1A_3 Cd 0.16578(3) -0.43488(3) 0.72606(2)
Cd1A_4 Cd 0.16578(3) -0.43488(3) -0.27394(2)
Cd2A Cd 0.96162(3) -0.17802(3) -0.28297(2)
Cd2A_2 Cd 0.96162(3) 0.82198(3) -0.28297(2)
Cd2A_3 Cd -0.03838(3) -0.17802(3) 0.71703(2)
Cd2_2 Cd 1.03838(3) -0.82198(3) 0.28297(2)
O1A O 1.1201(4) -0.1422(3) -0.0839(2)
O2A O 1.2122(4) -0.3192(4) -0.1034(2)
O3A O 1.1198(3) -0.5338(3) 0.3426(3)
O3A_2 O 1.1198(3) 0.4662(3) 0.3426(3)
O3_2 O 0.8802(3) -0.4662(3) -0.3426(3)
O4A O 1.4065(3) -0.3948(3) 0.4278(2)
O5A O 0.1760(3) -0.1972(3) 0.6803(2)
O5A_2 O 1.1760(3) -0.1972(3) -0.3197(2)
O6A O 0.1484(3) -0.0299(3) 0.5788(2)
O7A O 1.1226(4) -0.5605(3) -0.4461(2)
H1A H 1.1392 -0.6410 -0.4457
H2A H 1.1245 -0.5200 -0.5016
O8A O 0.7750(3) -0.2286(3) -0.4803(2)
H3A H 0.8071 -0.1425 -0.4998
H4A H 0.6654 -0.2858 -0.5011
N1A N 1.0328(4) 0.0799(4) -0.2319(3)
N2A N 1.0600(4) 0.1482(4) -0.1270(3)
N3A N 1.1096(4) 0.3314(3) -0.2230(3)
N3_2 N 0.8904(4) 0.6686(3) 0.2230(3)
N3A_2 N 1.1096(4) -0.6686(3) -0.2230(3)
N4A N 0.7215(4) -0.2474(3) -0.2391(2)
N5A N 0.7452(4) -0.1882(4) -0.1324(3)
N6A N 0.4603(4) -0.3401(4) -0.2284(3)
N6_2 N 0.5397(4) 0.3401(4) 0.2284(3)
N6A_2 N 1.4603(4) -0.3401(4) -0.2284(3)
C1A C 1.1058(5) 0.2960(4) -0.1262(3)
H5A H 1.1329 0.3691 -0.0646
C2A C 1.0634(5) 0.1922(4) -0.2849(3)
H6A H 1.0541 0.1772 -0.3580
C3A C 0.5871(5) -0.2473(5) -0.1310(3)
H7A H 0.5651 -0.2269 -0.0685
C4A C 0.5516(5) -0.3358(4) -0.2925(3)
H8A H 0.5003 -0.3893 -0.3664
C5A C 1.2114(5) -0.2116(4) -0.0457(3)
C6A C 1.3264(6) -0.1625(5) 0.0767(4)
H9A H 1.4117 -0.0543 0.0934
H10A H 1.2537 -0.1687 0.1184
C7A C 1.4253(6) -0.2579(6) 0.1180(4)
H11A H 1.5425 -0.2034 0.1188
H12A H 1.3667 -0.3569 0.0646
C8A C 1.4411(6) -0.2902(6) 0.2318(4)
H13A H 1.4973 -0.1920 0.2856
H14A H 1.5159 -0.3410 0.2521
C9A C 1.2690(6) -0.3899(6) 0.2376(4)
H15A H 1.1984 -0.3348 0.2215
H16A H 1.2098 -0.4836 0.1790
C10A C 1.2717(5) -0.4384(4) 0.3451(3)
C11A C 0.2197(4) -0.1109(4) 0.6139(3)
C12A C 0.3659(5) -0.1136(5) 0.5829(4)
H17A H 0.4690 -0.0822 0.6503
H18A H 0.3309 -0.2198 0.5481
C13A C 0.4158(5) -0.0094(5) 0.5050(4)
H19A H 0.4285 0.0924 0.5321
H20A H 0.3218 -0.0533 0.4321
loop_
_geom_bond_atom_site_label_1
_geom_bond_atom_site_label_2
_geom_bond_site_symmetry_1
_geom_bond_site_symmetry_2
Cd1 O2 1_555 1_555
Cd2 O1 1_555 1_555
Cd3 O1 1_555 1_555
O1 C5 1_555 1_555
O2 C5 1_555 1_555
O3 C10 1_555 1_555
O4 C10 1_555 1_555
O5 Cd1 1_555 1_555
O6 C11 1_555 1_555
O7 Cd1 1_555 1_555
H1 O7 1_555 1_555
H2 O7 1_555 1_555
O8 Cd2 1_555 1_555
H3 O8 1_555 1_555
H4 O8 1_555 1_555
N1 Cd2 1_555 1_555
N2 Cd3 1_555 1_555
N3 C1 1_555 1_555
N4 Cd2 1_555 1_555
N5 Cd3 1_555 1_555
N6 C3 1_555 1_555
C1 N2 1_555 1_555
H5 C1 1_555 1_555
C2 N1 1_555 1_555
H6 C2 1_555 1_555
C3 N5 1_555 1_555
H7 C3 1_555 1_555
C4 N4 1_555 1_555
H8 C4 1_555 1_555
C5 C6 1_555 1_555
C6 H9 1_555 1_555
H10 C6 1_555 1_555
C7 C6 1_555 1_555
H11 C7 1_555 1_555
H12 C7 1_555 1_555
C8 C7 1_555 1_555
H13 C8 1_555 1_555
H14 C8 1_555 1_555
C9 C8 1_555 1_555
H15 C9 1_555 1_555
H16 C9 1_555 1_555
C10 C9 1_555 1_555
C11 O5 1_555 1_555
C12 C11 1_555 1_555
H17 C12 1_555 1_555
H18 C12 1_555 1_555
C13 C12 1_555 1_555
H19 C13 1_555 1_555
H20 C13 1_555 1_555
Cd1A O2A 1_555 1_555
Cd1A_2 O3 1_555 1_555
Cd1_2 N3 1_555 1_555
Cd1_3 N6 1_555 1_555
Cd1A_3 O5A 1_555 1_555
Cd1A_4 N6A 1_555 1_555
Cd2A O1A 1_555 1_555
Cd2A_2 O3 1_555 1_555
Cd2A_3 O5A 1_555 1_555
Cd2_2 O3A 1_555 1_555
O1A Cd3 1_555 1_555
O2A C5A 1_555 1_555
O3A Cd1_2 1_555 1_555
O3A_2 Cd1 1_555 1_555
O3_2 Cd1A 1_555 1_555
O4A C10A 1_555 1_555
O5A C11A 1_555 1_555
O5A_2 Cd1A 1_555 1_555
O6A C11A 1_555 1_555
O7A Cd1A 1_555 1_555
H1A O7A 1_555 1_555
H2A O7A 1_555 1_555
O8A Cd2A 1_555 1_555
H3A O8A 1_555 1_555
H4A O8A 1_555 1_555
N1A Cd2A 1_555 1_555
N2A Cd3 1_555 1_555
N3A Cd1A_2 1_555 1_555
N3_2 Cd1 1_555 1_555
N3A_2 Cd1A 1_555 1_555
N4A Cd2A 1_555 1_555
N5A Cd3 1_555 1_555
N6A C3A 1_555 1_555
N6_2 Cd1 1_555 1_555
N6A_2 Cd1A 1_555 1_555
C1A N2A 1_555 1_555
H5A C1A 1_555 1_555
C2A N1A 1_555 1_555
H6A C2A 1_555 1_555
C3A N5A 1_555 1_555
H7A C3A 1_555 1_555
C4A N4A 1_555 1_555
H8A C4A 1_555 1_555
C5A O1A 1_555 1_555
C6A C5A 1_555 1_555
H9A C6A 1_555 1_555
H10A C6A 1_555 1_555
C7A C6A 1_555 1_555
H11A C7A 1_555 1_555
H12A C7A 1_555 1_555
C8A C7A 1_555 1_555
H13A C8A 1_555 1_555
H14A C8A 1_555 1_555
C9A C8A 1_555 1_555
H15A C9A 1_555 1_555
H16A C9A 1_555 1_555
C10A O3A 1_555 1_555
C11A C12A 1_555 1_555
C12A H17A 1_555 1_555
H18A C12A 1_555 1_555
C13A C13 1_555 1_555
H19A C13A 1_555 1_555
H20A C13A 1_555 1_555
Cd2 O5 1_555 1_555
Cd2 O3A_2 1_555 1_555
N1 N2 1_555 1_555
N3 C2 1_555 1_555
N4 N5 1_555 1_555
N6 C4 1_555 1_555
Cd2A O3_2 1_555 1_555
Cd2A O5A_2 1_555 1_555
N1A N2A 1_555 1_555
N3A C1A 1_555 1_555
N3A C2A 1_555 1_555
N4A N5A 1_555 1_555
N6A C4A 1_555 1_555
C9A C10A 1_555 1_555
C12A C13A 1_555 1_555

#END
