
#######################################################################
#
#                 Cambridge Crystallographic Data Centre
#                                CCDC 
#
#######################################################################
#
# If this CIF has been generated from an entry in the Cambridge 
# Structural Database, then it will include bibliographic, chemical, 
# crystal, experimental, refinement or atomic coordinate data resulting 
# from the CCDC's data processing and validation procedures.
#
#######################################################################

data_POXKOD
_symmetry_cell_setting           monoclinic
_symmetry_space_group_name_H-M   'P 21/c'
_symmetry_Int_Tables_number      14
_space_group_name_Hall           '-P 2ybc'
loop_
_symmetry_equiv_pos_site_id
_symmetry_equiv_pos_as_xyz
1 x,y,z
2 -x,1/2+y,1/2-z
3 -x,-y,-z
4 x,1/2-y,1/2+z
_cell_length_a                   6.9190(14)
_cell_length_b                   15.064(3)
_cell_length_c                   17.005(3)
_cell_angle_alpha                90
_cell_angle_beta                 97.98(3)
_cell_angle_gamma                90
_cell_volume                     1755.23
loop_
_atom_site_label
_atom_site_type_symbol
_atom_site_fract_x
_atom_site_fract_y
_atom_site_fract_z
Ag1 Ag 0.18432(9) 0.48593(4) 0.38623(3)
V1 V 0.33321(19) 0.53138(8) 0.66574(7)
O1 O 0.4152(8) 0.5122(3) 0.7815(3)
O2 O 0.4904(8) 0.4181(4) 0.8831(3)
O3 O 0.2571(8) 0.4822(3) 0.5573(3)
O4 O 0.1967(8) 0.3643(3) 0.4773(3)
O5 O -0.1430(8) 0.4062(3) 0.3295(3)
O6 O 0.4832(8) 0.4088(4) 0.3526(3)
N1 N 0.3365(9) 0.3936(4) 0.6807(4)
N2 N 0.1217(9) 0.5583(4) 0.2601(4)
N3 N 0.2128(10) 0.6419(4) 0.4018(4)
C1 C 0.4362(11) 0.4335(5) 0.8134(4)
C2 C 0.3881(10) 0.3602(5) 0.7528(4)
C3 C 0.3946(11) 0.2693(5) 0.7655(5)
H1 H 0.4289 0.2457 0.8160
C4 C 0.3477(11) 0.2148(5) 0.6994(5)
H2 H 0.3524 0.1535 0.7057
C5 C 0.2938(11) 0.2509(5) 0.6238(5)
H3 H 0.2622 0.2145 0.5797
C6 C 0.2890(10) 0.3420(5) 0.6167(4)
C7 C 0.2424(11) 0.3967(5) 0.5428(5)
C8 C 0.0678(12) 0.5156(6) 0.1913(5)
H4 H 0.0732 0.4539 0.1914
C9 C 0.0058(12) 0.5573(6) 0.1216(5)
H5 H -0.0347 0.5247 0.0759
C10 C 0.0039(12) 0.6489(6) 0.1200(5)
H6 H -0.0361 0.6791 0.0728
C11 C 0.0623(12) 0.6949(6) 0.1891(5)
H7 H 0.0639 0.7566 0.1892
C12 C 0.1190(10) 0.6477(5) 0.2590(4)
C13 C 0.1817(11) 0.6939(5) 0.3366(4)
C14 C 0.2032(11) 0.7857(5) 0.3415(5)
H8 H 0.1802 0.8205 0.2960
C15 C 0.2588(11) 0.8246(5) 0.4146(5)
H9 H 0.2724 0.8859 0.4189
C16 C 0.2940(11) 0.7720(6) 0.4810(5)
H10 H 0.3319 0.7967 0.5308
C17 C 0.2719(13) 0.6819(6) 0.4718(5)
H11 H 0.2993 0.6464 0.5166
V1B V -0.33321(19) 0.46862(8) 0.33426(7)
V1B_2 V 0.66679(19) 0.46862(8) 0.33426(7)
O5B O 0.1430(8) 0.5938(3) 0.6705(3)
O6B O 0.5168(8) 0.5912(4) 0.6474(3)
O7 O 0.3066(11) 0.4354(5) 0.0306(4)
H12 H 0.3232 0.4160 -0.0156
H13 H 0.3859 0.4759 0.0505
loop_
_geom_bond_atom_site_label_1
_geom_bond_atom_site_label_2
_geom_bond_site_symmetry_1
_geom_bond_site_symmetry_2
Ag1 O4 1_555 1_555
V1 O1 1_555 1_555
O1 C1 1_555 1_555
O2 C1 1_555 1_555
O3 V1 1_555 1_555
O4 C7 1_555 1_555
O5 Ag1 1_555 1_555
O6 Ag1 1_555 1_555
N1 V1 1_555 1_555
N2 Ag1 1_555 1_555
N3 Ag1 1_555 1_555
C1 C2 1_555 1_555
C2 N1 1_555 1_555
C3 C2 1_555 1_555
H1 C3 1_555 1_555
C4 C3 1_555 1_555
H2 C4 1_555 1_555
C5 C4 1_555 1_555
H3 C5 1_555 1_555
C6 N1 1_555 1_555
C7 O3 1_555 1_555
C8 N2 1_555 1_555
H4 C8 1_555 1_555
C9 C8 1_555 1_555
H5 C9 1_555 1_555
C10 C9 1_555 1_555
H6 C10 1_555 1_555
C11 C10 1_555 1_555
H7 C11 1_555 1_555
C12 N2 1_555 1_555
C13 N3 1_555 1_555
C14 C13 1_555 1_555
H8 C14 1_555 1_555
C15 C14 1_555 1_555
H9 C15 1_555 1_555
C16 C15 1_555 1_555
H10 C16 1_555 1_555
C17 N3 1_555 1_555
H11 C17 1_555 1_555
O7 H12 1_555 1_555
H13 O7 1_555 1_555
V1B O5 1_555 1_555
V1B_2 O6 1_555 1_555
O5B V1 1_555 1_555
O6B V1 1_555 1_555
C5 C6 1_555 1_555
C6 C7 1_555 1_555
C11 C12 1_555 1_555
C12 C13 1_555 1_555
C16 C17 1_555 1_555

#END
