
#######################################################################
#
#                 Cambridge Crystallographic Data Centre
#                                CCDC 
#
#######################################################################
#
# If this CIF has been generated from an entry in the Cambridge 
# Structural Database, then it will include bibliographic, chemical, 
# crystal, experimental, refinement or atomic coordinate data resulting 
# from the CCDC's data processing and validation procedures.
#
#######################################################################

data_POXLOF01
_symmetry_cell_setting           monoclinic
_symmetry_space_group_name_H-M   'C 2/c'
_symmetry_Int_Tables_number      15
_space_group_name_Hall           '-C 2yn'
loop_
_symmetry_equiv_pos_site_id
_symmetry_equiv_pos_as_xyz
1 x,y,z
2 -x,y,1/2-z
3 1/2+x,1/2+y,z
4 1/2-x,1/2+y,1/2-z
5 -x,-y,-z
6 x,-y,1/2+z
7 1/2-x,1/2-y,-z
8 1/2+x,1/2-y,1/2+z
_cell_length_a                   15.264(3)
_cell_length_b                   11.589(2)
_cell_length_c                   13.451(3)
_cell_angle_alpha                90
_cell_angle_beta                 102.17(3)
_cell_angle_gamma                90
_cell_volume                     2325.93
loop_
_atom_site_label
_atom_site_type_symbol
_atom_site_fract_x
_atom_site_fract_y
_atom_site_fract_z
Th1 Th 0.5000 0.37437(3) 0.2500
O1 O 0.4524(4) 0.5736(5) 0.3020(5)
O2 O 0.4759(4) 1.1784(4) 0.1675(5)
C1 C 0.5000 0.6281(10) 0.2500
C2 C 0.5000 0.7556(9) 0.2500
C3 C 0.5223(6) 0.8161(7) 0.1677(7)
H1 H 0.5389 0.7760 0.1146
C4 C 0.5194(6) 0.9355(7) 0.1666(7)
H2 H 0.5302 0.9758 0.1107
C5 C 0.5000 0.9958(9) 0.2500
C6 C 0.5000 1.1238(10) 0.2500
O3 O 0.5535(4) 0.3674(5) 0.0822(5)
O4 O 0.6463(4) 0.3027(5) 0.2193(4)
C7 C 0.7718(6) 0.2309(7) 0.1049(7)
H3 H 0.7867 0.2190 0.1748
C8 C 0.6699(5) 0.3040(7) -0.0440(6)
H4 H 0.6166 0.3411 -0.0730
C9 C 0.6915(5) 0.2835(6) 0.0609(6)
C10 C 0.6272(5) 0.3198(6) 0.1232(6)
O5 O 0.3785(4) 0.4221(5) 0.1105(5)
N1 N 0.2730(5) 0.4219(6) -0.0340(6)
C11 C 0.3567(5) 0.4187(6) 0.0152(7)
H5 H 0.4016 0.4138 -0.0218
C12 C 0.2481(6) 0.4258(9) -0.1451(8)
H6 H 0.2145 0.3579 -0.1698
H7 H 0.3013 0.4291 -0.1724
H8 H 0.2121 0.4930 -0.1659
C13 C 0.1997(6) 0.4271(9) 0.0214(8)
H9 H 0.1752 0.5037 0.0169
H10 H 0.2224 0.4077 0.0915
H11 H 0.1537 0.3733 -0.0080
O1A O 0.5476(4) 0.5736(5) 0.1980(5)
O2A O 0.5241(4) 1.1784(4) 0.3325(5)
C3A C 0.4777(6) 0.8161(7) 0.3323(7)
H1A H 0.4611 0.7760 0.3854
C4A C 0.4806(6) 0.9355(7) 0.3334(7)
H2A H 0.4698 0.9758 0.3893
O3F O 0.9465(4) 0.1326(5) -0.0822(5)
O4F O 0.8537(4) 0.1973(5) -0.2193(4)
C7F C 0.7282(6) 0.2691(7) -0.1049(7)
H3F H 0.7133 0.2810 -0.1748
C8F C 0.8301(5) 0.1960(7) 0.0440(6)
H4F H 0.8834 0.1589 0.0730
C9F C 0.8085(5) 0.2165(6) -0.0609(6)
C10F C 0.8728(5) 0.1802(6) -0.1232(6)
O5A O 0.6215(4) 0.4221(5) 0.3895(5)
N1A N 0.7270(5) 0.4219(6) 0.5340(6)
C11A C 0.6433(5) 0.4187(6) 0.4848(7)
H5A H 0.5984 0.4138 0.5218
C12A C 0.7519(6) 0.4258(9) 0.6451(8)
H6A H 0.7855 0.3579 0.6698
H7A H 0.6987 0.4291 0.6724
H8A H 0.7879 0.4930 0.6659
C13A C 0.8003(6) 0.4271(9) 0.4786(8)
H9A H 0.8248 0.5037 0.4831
H10A H 0.7776 0.4077 0.4085
H11A H 0.8463 0.3733 0.5080
Th1_2 Th 0.5000 1.37437(3) 0.2500
Th1F Th 1.0000 0.12563(3) -0.2500
O2_2 O 0.4759(4) 0.1784(4) 0.1675(5)
O2A_2 O 0.5241(4) 0.1784(4) 0.3325(5)
O3A O 0.4465(4) 0.3674(5) 0.4178(5)
O4A O 0.3537(4) 0.3027(5) 0.2807(4)
loop_
_geom_bond_atom_site_label_1
_geom_bond_atom_site_label_2
_geom_bond_site_symmetry_1
_geom_bond_site_symmetry_2
Th1 O1 1_555 1_555
O1 C1 1_555 1_555
O2 C6 1_555 1_555
C1 C2 1_555 1_555
C2 C3 1_555 1_555
C3 H1 1_555 1_555
C4 C3 1_555 1_555
H2 C4 1_555 1_555
C5 C4 1_555 1_555
C6 C5 1_555 1_555
O3 Th1 1_555 1_555
O4 Th1 1_555 1_555
C7 H3 1_555 1_555
C8 H4 1_555 1_555
C9 C7 1_555 1_555
C10 O3 1_555 1_555
O5 Th1 1_555 1_555
N1 C11 1_555 1_555
C11 O5 1_555 1_555
H5 C11 1_555 1_555
C12 N1 1_555 1_555
H6 C12 1_555 1_555
H7 C12 1_555 1_555
H8 C12 1_555 1_555
C13 N1 1_555 1_555
H9 C13 1_555 1_555
H10 C13 1_555 1_555
H11 C13 1_555 1_555
O1A Th1 1_555 1_555
O2A C6 1_555 1_555
C3A C2 1_555 1_555
H1A C3A 1_555 1_555
C4A C5 1_555 1_555
H2A C4A 1_555 1_555
O3F C10F 1_555 1_555
O4F C10F 1_555 1_555
C7F C8 1_555 1_555
H3F C7F 1_555 1_555
C8F C7 1_555 1_555
H4F C8F 1_555 1_555
C9F C7F 1_555 1_555
C10F C9F 1_555 1_555
O5A Th1 1_555 1_555
N1A C11A 1_555 1_555
C11A O5A 1_555 1_555
H5A C11A 1_555 1_555
C12A N1A 1_555 1_555
H6A C12A 1_555 1_555
H7A C12A 1_555 1_555
H8A C12A 1_555 1_555
C13A N1A 1_555 1_555
H9A C13A 1_555 1_555
H10A C13A 1_555 1_555
H11A C13A 1_555 1_555
Th1_2 O2 1_555 1_555
Th1F O3F 1_555 1_555
O2_2 Th1 1_555 1_555
O2A_2 Th1 1_555 1_555
O3A Th1 1_555 1_555
O4A Th1 1_555 1_555
C1 O1A 1_555 1_555
O4 C10 1_555 1_555
C8 C9 1_555 1_555
C9 C10 1_555 1_555
O2A Th1_2 1_555 1_555
C3A C4A 1_555 1_555
O4F Th1F 1_555 1_555
C8F C9F 1_555 1_555

#END
