
#######################################################################
#
#                 Cambridge Crystallographic Data Centre
#                                CCDC 
#
#######################################################################
#
# If this CIF has been generated from an entry in the Cambridge 
# Structural Database, then it will include bibliographic, chemical, 
# crystal, experimental, refinement or atomic coordinate data resulting 
# from the CCDC's data processing and validation procedures.
#
#######################################################################

data_POXLOE
_symmetry_cell_setting           monoclinic
_symmetry_space_group_name_H-M   'P 21/n'
_symmetry_Int_Tables_number      14
_space_group_name_Hall           '-P 2yn'
loop_
_symmetry_equiv_pos_site_id
_symmetry_equiv_pos_as_xyz
1 x,y,z
2 1/2-x,1/2+y,1/2-z
3 -x,-y,-z
4 1/2+x,1/2-y,1/2+z
_cell_length_a                   10.2416(8)
_cell_length_b                   14.1822(10)
_cell_length_c                   15.4155(11)
_cell_angle_alpha                90
_cell_angle_beta                 104.7770(10)
_cell_angle_gamma                90
_cell_volume                     2165.02
loop_
_atom_site_label
_atom_site_type_symbol
_atom_site_fract_x
_atom_site_fract_y
_atom_site_fract_z
Cu1 Cu 0.44952(5) 0.29369(4) 0.93528(4)
Cd1 Cd 0.72608(3) 0.26142(2) 0.87537(2)
O1 O 0.5811(3) 0.3766(2) 0.9045(2)
O2 O 0.6079(3) 0.2176(2) 0.9791(2)
N1 N 0.3097(4) 0.3895(3) 0.9049(3)
N2 N 0.3309(4) 0.1914(3) 0.9582(3)
N3 N 0.7405(5) -0.1623(3) 0.7470(3)
N4 N 0.8188(5) 0.1185(3) 0.8690(3)
N5 N 0.8553(5) -0.0505(3) 0.8618(3)
N6 N 1.0200(6) 0.2931(4) 1.2759(3)
N7 N 0.9016(4) 0.3219(3) 0.9841(3)
N8 N 0.9519(6) 0.3798(4) 1.1369(3)
C1 C 0.5738(4) 0.4685(3) 0.8898(3)
C2 C 0.6867(5) 0.5182(3) 0.8778(3)
H1 H 0.7674 0.4862 0.8821
C3 C 0.6799(5) 0.6134(3) 0.8598(3)
H2 H 0.7555 0.6445 0.8511
C4 C 0.5617(6) 0.6634(3) 0.8545(3)
H3 H 0.5575 0.7277 0.8422
C5 C 0.4521(5) 0.6170(3) 0.8677(3)
H4 H 0.3733 0.6507 0.8652
C6 C 0.4544(5) 0.5198(3) 0.8849(3)
C7 C 0.3313(5) 0.4765(3) 0.8918(3)
H5 H 0.2578 0.5166 0.8860
C8 C 0.1691(5) 0.3632(4) 0.9011(4)
H6 H 0.1085 0.4113 0.8688
H7 H 0.1574 0.3596 0.9615
C9 C 0.1343(5) 0.2708(4) 0.8555(4)
H8 H 0.0370 0.2664 0.8332
H9 H 0.1731 0.2678 0.8043
C10 C 0.1834(6) 0.1892(4) 0.9150(5)
H10 H 0.1624 0.1317 0.8802
H11 H 0.1350 0.1874 0.9615
C11 C 0.3769(5) 0.1238(3) 1.0121(3)
H12 H 0.3130 0.0809 1.0212
C12 C 0.5136(5) 0.1052(3) 1.0603(3)
C13 C 0.5374(6) 0.0349(4) 1.1270(3)
H13 H 0.4644 0.0037 1.1395
C14 C 0.6650(6) 0.0115(4) 1.1738(4)
H14 H 0.6789 -0.0347 1.2180
C15 C 0.7738(6) 0.0575(4) 1.1547(4)
H15 H 0.8610 0.0423 1.1870
C16 C 0.7549(5) 0.1251(3) 1.0889(3)
H16 H 0.8295 0.1536 1.0760
C17 C 0.6246(4) 0.1518(3) 1.0410(3)
C18 C 0.8312(5) 0.0396(4) 0.8614(3)
C19 C 0.7916(5) -0.1063(3) 0.7978(3)
C20 C 0.9255(5) 0.3442(4) 1.0567(4)
C21 C 0.9867(5) 0.3289(4) 1.2086(4)
Cd1A Cd 0.77392(3) -0.23858(2) 0.62463(2)
Cd1C Cd 1.22608(3) 0.23858(2) 1.37537(2)
N3A N 0.7595(5) 0.3377(3) 0.7530(3)
N6C N 0.5200(6) 0.2069(4) 0.7759(3)
loop_
_geom_bond_atom_site_label_1
_geom_bond_atom_site_label_2
_geom_bond_site_symmetry_1
_geom_bond_site_symmetry_2
Cu1 O1 1_555 1_555
Cd1 O1 1_555 1_555
O1 C1 1_555 1_555
O2 Cu1 1_555 1_555
N1 Cu1 1_555 1_555
N2 Cu1 1_555 1_555
N3 C19 1_555 1_555
N4 Cd1 1_555 1_555
N5 C18 1_555 1_555
N6 C21 1_555 1_555
N7 Cd1 1_555 1_555
N8 C20 1_555 1_555
C1 C2 1_555 1_555
C2 H1 1_555 1_555
C3 C2 1_555 1_555
H2 C3 1_555 1_555
C4 C3 1_555 1_555
H3 C4 1_555 1_555
C5 C4 1_555 1_555
H4 C5 1_555 1_555
C6 C1 1_555 1_555
C7 N1 1_555 1_555
H5 C7 1_555 1_555
C8 N1 1_555 1_555
H6 C8 1_555 1_555
H7 C8 1_555 1_555
C9 C8 1_555 1_555
H8 C9 1_555 1_555
H9 C9 1_555 1_555
C10 N2 1_555 1_555
H10 C10 1_555 1_555
H11 C10 1_555 1_555
C11 N2 1_555 1_555
H12 C11 1_555 1_555
C12 C11 1_555 1_555
C13 C12 1_555 1_555
H13 C13 1_555 1_555
C14 C13 1_555 1_555
H14 C14 1_555 1_555
C15 C14 1_555 1_555
H15 C15 1_555 1_555
C16 C15 1_555 1_555
H16 C16 1_555 1_555
C17 O2 1_555 1_555
C18 N4 1_555 1_555
C19 N5 1_555 1_555
C20 N7 1_555 1_555
C21 N8 1_555 1_555
Cd1A N3 1_555 1_555
Cd1C N6 1_555 1_555
N3A Cd1 1_555 1_555
N6C Cd1 1_555 1_555
Cd1 O2 1_555 1_555
C5 C6 1_555 1_555
C6 C7 1_555 1_555
C9 C10 1_555 1_555
C12 C17 1_555 1_555
C16 C17 1_555 1_555

#END
