
#######################################################################
#
#                 Cambridge Crystallographic Data Centre
#                                CCDC 
#
#######################################################################
#
# If this CIF has been generated from an entry in the Cambridge 
# Structural Database, then it will include bibliographic, chemical, 
# crystal, experimental, refinement or atomic coordinate data resulting 
# from the CCDC's data processing and validation procedures.
#
#######################################################################

data_POXMAR
_symmetry_cell_setting           monoclinic
_symmetry_space_group_name_H-M   'C 2/c'
_symmetry_Int_Tables_number      15
_space_group_name_Hall           '-C 2yn'
loop_
_symmetry_equiv_pos_site_id
_symmetry_equiv_pos_as_xyz
1 x,y,z
2 -x,y,1/2-z
3 1/2+x,1/2+y,z
4 1/2-x,1/2+y,1/2-z
5 -x,-y,-z
6 x,-y,1/2+z
7 1/2-x,1/2-y,-z
8 1/2+x,1/2-y,1/2+z
_cell_length_a                   14.7933(19)
_cell_length_b                   14.2036(19)
_cell_length_c                   21.800(3)
_cell_angle_alpha                90
_cell_angle_beta                 101.711(3)
_cell_angle_gamma                90
_cell_volume                     4485.23
loop_
_atom_site_label
_atom_site_type_symbol
_atom_site_fract_x
_atom_site_fract_y
_atom_site_fract_z
H1 H 0.225(3) 0.479(6) 0.589(4)
O6 O 0.2801(4) 0.4732(4) 0.6135(3)
H16 H 0.306(3) 0.525(3) 0.603(3)
Cu1 Cu 0.21313(4) 0.42592(4) 0.33130(3)
O1 O 0.3246(2) 0.4249(3) 0.22276(16)
O2 O 0.3565(2) 0.4071(3) 0.32555(15)
O3 O 0.1131(2) 0.3853(3) 0.43649(16)
O4 O 0.2440(2) 0.3512(2) 0.40682(15)
N1 N 0.2349(3) 0.5573(3) 0.36800(19)
N2 N 0.1435(2) 0.4989(3) 0.26306(17)
N3 N 0.1543(3) 0.3221(3) 0.27408(18)
C1 C 0.2846(4) 0.5795(5) 0.4241(3)
C2 C 0.2976(5) 0.6719(6) 0.4448(3)
C3 C 0.2579(6) 0.7417(6) 0.4064(4)
C4 C 0.2056(5) 0.7205(5) 0.3485(4)
C5 C 0.1957(3) 0.6269(4) 0.3289(2)
C6 C 0.1459(3) 0.5949(4) 0.2672(2)
C7 C 0.1034(4) 0.6470(5) 0.2157(3)
C8 C 0.0591(4) 0.6033(5) 0.1623(3)
C9 C 0.0548(4) 0.5060(5) 0.1594(3)
C10 C 0.0993(3) 0.4545(4) 0.2112(2)
C11 C 0.1048(3) 0.3512(4) 0.2186(2)
C12 C 0.0603(4) 0.2876(5) 0.1735(3)
C13 C 0.0690(5) 0.1934(5) 0.1850(4)
C14 C 0.1221(5) 0.1634(5) 0.2417(4)
C15 C 0.1623(4) 0.2291(4) 0.2851(3)
C16 C 0.3792(3) 0.4161(3) 0.2734(2)
C17 C 0.4819(3) 0.4151(3) 0.2749(2)
C18 C 0.1882(3) 0.3439(3) 0.4435(2)
C19 C 0.2169(3) 0.2806(4) 0.4974(2)
H2 H 0.315(3) 0.533(3) 0.451(2)
H3 H 0.341(3) 0.683(4) 0.487(3)
H4 H 0.296(5) 0.789(4) 0.422(4)
H5 H 0.175(4) 0.766(5) 0.322(3)
H6 H 0.102(3) 0.708(4) 0.219(2)
H7 H 0.031(3) 0.638(3) 0.124(2)
H8 H 0.028(4) 0.486(4) 0.116(3)
H9 H 0.030(3) 0.304(4) 0.134(2)
H10 H 0.039(4) 0.153(4) 0.148(3)
H11 H 0.119(5) 0.103(2) 0.253(3)
H12 H 0.192(3) 0.214(3) 0.327(2)
H13 H 0.518(3) 0.421(3) 0.3145(12)
H14 H 0.182(3) 0.276(4) 0.5264(18)
Cu1A Cu 0.78687(4) 0.42592(4) 0.16870(3)
Cu1F Cu 0.28687(4) 0.07408(4) 0.66870(3)
O1A O 0.6754(2) 0.4249(3) 0.27724(16)
O2A O 0.6435(2) 0.4071(3) 0.17445(15)
O3F O 0.3869(2) 0.1147(3) 0.56351(16)
O4F O 0.2560(2) 0.1488(2) 0.59318(15)
O4A O 0.7560(2) 0.3512(2) 0.09318(15)
N1A N 0.7651(3) 0.5573(3) 0.13200(19)
N2A N 0.8565(2) 0.4989(3) 0.23694(17)
N3A N 0.8457(3) 0.3221(3) 0.22592(18)
C1A C 0.7154(4) 0.5795(5) 0.0759(3)
C2A C 0.7024(5) 0.6719(6) 0.0552(3)
C3A C 0.7421(6) 0.7417(6) 0.0936(4)
C4A C 0.7944(5) 0.7205(5) 0.1515(4)
C5A C 0.8043(3) 0.6269(4) 0.1711(2)
C6A C 0.8541(3) 0.5949(4) 0.2328(2)
C7A C 0.8966(4) 0.6470(5) 0.2843(3)
C8A C 0.9409(4) 0.6033(5) 0.3377(3)
C9A C 0.9452(4) 0.5060(5) 0.3406(3)
C10A C 0.9007(3) 0.4545(4) 0.2888(2)
C11A C 0.8952(3) 0.3512(4) 0.2814(2)
C12A C 0.9397(4) 0.2876(5) 0.3265(3)
C13A C 0.9310(5) 0.1934(5) 0.3150(4)
C14A C 0.8779(5) 0.1634(5) 0.2583(4)
C15A C 0.8377(4) 0.2291(4) 0.2149(3)
C16A C 0.6208(3) 0.4161(3) 0.2266(2)
C17A C 0.5181(3) 0.4151(3) 0.2251(2)
C18F C 0.3118(3) 0.1561(3) 0.5565(2)
C19F C 0.2831(3) 0.2194(4) 0.5026(2)
H2A H 0.685(3) 0.533(3) 0.049(2)
H3A H 0.659(3) 0.683(4) 0.013(3)
H4A H 0.704(5) 0.789(4) 0.078(4)
H5A H 0.825(4) 0.766(5) 0.178(3)
H6A H 0.898(3) 0.708(4) 0.281(2)
H7A H 0.969(3) 0.638(3) 0.376(2)
H8A H 0.972(4) 0.486(4) 0.384(3)
H9A H 0.970(3) 0.304(4) 0.366(2)
H10A H 0.961(4) 0.153(4) 0.352(3)
H11A H 0.881(5) 0.103(2) 0.247(3)
H12A H 0.808(3) 0.214(3) 0.173(2)
H13A H 0.482(3) 0.421(3) 0.1855(12)
H14F H 0.318(3) 0.224(4) 0.4736(18)
O5 O 0.1356(4) 0.5426(4) 0.5240(3)
H15 H 0.100(4) 0.588(3) 0.510(3)
H23 H 0.115(4) 0.496(2) 0.501(2)
O7 O 0.4714(3) 0.3736(4) 0.4456(2)
H17 H 0.435(3) 0.377(3) 0.4108(13)
H18 H 0.477(4) 0.3164(13) 0.455(2)
O8 O 0.9878(3) 0.3104(3) 0.5095(2)
H19 H 0.943(2) 0.336(6) 0.485(3)
H22 H 1.0355(19) 0.323(4) 0.496(2)
O9 O 0.9342(4) 0.0459(5) 0.0596(3)
H20 H 0.960(6) -0.007(3) 0.060(3)
H21 H 0.931(5) 0.068(4) 0.0231(14)
loop_
_geom_bond_atom_site_label_1
_geom_bond_atom_site_label_2
_geom_bond_site_symmetry_1
_geom_bond_site_symmetry_2
H1 O6 1_555 1_555
Cu1 O2 1_555 1_555
O1 C16 1_555 1_555
O2 C16 1_555 1_555
O3 C18 1_555 1_555
O4 Cu1 1_555 1_555
O5 H15 1_555 1_555
O6 H16 1_555 1_555
O7 H17 1_555 1_555
O8 H19 1_555 1_555
O9 H20 1_555 1_555
N1 Cu1 1_555 1_555
N2 Cu1 1_555 1_555
N3 Cu1 1_555 1_555
C1 N1 1_555 1_555
C2 C1 1_555 1_555
C3 C2 1_555 1_555
C4 C3 1_555 1_555
C5 N1 1_555 1_555
C6 N2 1_555 1_555
C7 C6 1_555 1_555
C8 C7 1_555 1_555
C9 C8 1_555 1_555
C10 N2 1_555 1_555
C11 N3 1_555 1_555
C12 C11 1_555 1_555
C13 C12 1_555 1_555
C14 C13 1_555 1_555
C15 N3 1_555 1_555
C16 C17 1_555 1_555
C17 H13 1_555 1_555
C18 O4 1_555 1_555
C19 C18 1_555 1_555
H2 C1 1_555 1_555
H3 C2 1_555 1_555
H4 C3 1_555 1_555
H5 C4 1_555 1_555
H6 C7 1_555 1_555
H7 C8 1_555 1_555
H8 C9 1_555 1_555
H9 C12 1_555 1_555
H10 C13 1_555 1_555
H11 C14 1_555 1_555
H12 C15 1_555 1_555
H14 C19 1_555 1_555
H18 O7 1_555 1_555
H21 O9 1_555 1_555
H22 O8 1_555 1_555
H23 O5 1_555 1_555
Cu1A O2A 1_555 1_555
Cu1F O4F 1_555 1_555
O1A C16A 1_555 1_555
O2A C16A 1_555 1_555
O3F C18F 1_555 1_555
O4F C18F 1_555 1_555
O4A Cu1A 1_555 1_555
N1A Cu1A 1_555 1_555
N2A Cu1A 1_555 1_555
N3A Cu1A 1_555 1_555
C1A N1A 1_555 1_555
C2A C1A 1_555 1_555
C3A C2A 1_555 1_555
C4A C3A 1_555 1_555
C5A N1A 1_555 1_555
C6A N2A 1_555 1_555
C7A C6A 1_555 1_555
C8A C7A 1_555 1_555
C9A C8A 1_555 1_555
C10A N2A 1_555 1_555
C11A N3A 1_555 1_555
C12A C11A 1_555 1_555
C13A C12A 1_555 1_555
C14A C13A 1_555 1_555
C15A N3A 1_555 1_555
C16A C17A 1_555 1_555
C17A C17 1_555 1_555
C18F C19F 1_555 1_555
C19F C19 1_555 1_555
H2A C1A 1_555 1_555
H3A C2A 1_555 1_555
H4A C3A 1_555 1_555
H5A C4A 1_555 1_555
H6A C7A 1_555 1_555
H7A C8A 1_555 1_555
H8A C9A 1_555 1_555
H9A C12A 1_555 1_555
H10A C13A 1_555 1_555
H11A C14A 1_555 1_555
H12A C15A 1_555 1_555
H13A C17A 1_555 1_555
H14F C19F 1_555 1_555
C4 C5 1_555 1_555
C5 C6 1_555 1_555
C9 C10 1_555 1_555
C10 C11 1_555 1_555
C14 C15 1_555 1_555
C4A C5A 1_555 1_555
C5A C6A 1_555 1_555
C9A C10A 1_555 1_555
C10A C11A 1_555 1_555
C14A C15A 1_555 1_555

#END
