
#######################################################################
#
#                 Cambridge Crystallographic Data Centre
#                                CCDC 
#
#######################################################################
#
# If this CIF has been generated from an entry in the Cambridge 
# Structural Database, then it will include bibliographic, chemical, 
# crystal, experimental, refinement or atomic coordinate data resulting 
# from the CCDC's data processing and validation procedures.
#
#######################################################################

data_POXMOF
_symmetry_cell_setting           monoclinic
_symmetry_space_group_name_H-M   'P 21/n'
_symmetry_Int_Tables_number      14
_space_group_name_Hall           '-P 2yn'
loop_
_symmetry_equiv_pos_site_id
_symmetry_equiv_pos_as_xyz
1 x,y,z
2 1/2-x,1/2+y,1/2-z
3 -x,-y,-z
4 1/2+x,1/2-y,1/2+z
_cell_length_a                   11.137(2)
_cell_length_b                   14.746(3)
_cell_length_c                   16.750(3)
_cell_angle_alpha                90
_cell_angle_beta                 96.80(3)
_cell_angle_gamma                90
_cell_volume                     2731.44
loop_
_atom_site_label
_atom_site_type_symbol
_atom_site_fract_x
_atom_site_fract_y
_atom_site_fract_z
Nd1 Nd 0.173535(14) 0.144743(9) 0.018708(8)
Zn1 Zn 0.06760(3) 0.15360(2) 0.212235(18)
O1 O 0.2770(2) 0.12728(16) -0.21647(13)
O2 O 0.19713(18) 0.09523(12) 0.15624(11)
O3 O 0.3243(2) 0.26049(14) -0.02746(12)
N1 N -0.1088(2) 0.15798(15) 0.23137(14)
O4 O 0.02836(18) 0.20711(13) 0.10363(11)
O5 O 0.39883(18) 0.09909(13) 0.09776(11)
O6 O 0.3055(2) 0.08924(14) -0.09028(12)
O7 O 0.15168(19) 0.17096(15) -0.13448(12)
O8 O 0.04168(19) 0.30150(13) -0.02249(11)
N2 N 0.3371(2) -0.25649(15) 0.21249(13)
O9 O 0.2837(2) 0.28701(14) 0.09265(12)
C1 C 0.2732(3) -0.00028(18) 0.26839(16)
N3 N 0.0643(2) 0.03718(16) 0.27884(14)
C2 C -0.1906(3) 0.20404(19) 0.19038(17)
H1 H -0.2678 0.2024 0.2064
C3 C 0.2862(3) 0.05039(17) 0.19849(16)
C4 C -0.0680(3) 0.25713(18) 0.08132(16)
C5 C -0.1736(3) 0.25952(19) 0.12001(17)
C6 C 0.4007(3) 0.05236(18) 0.17007(16)
C7 C -0.2695(3) 0.3166(2) 0.08987(19)
H2 H -0.3397 0.3175 0.1148
C8 C -0.0554(3) 0.0165(2) 0.30306(19)
H3 H -0.0463 -0.0086 0.3570
H4 H -0.0959 -0.0282 0.2668
C9 C 0.1566(3) -0.01256(19) 0.29848(16)
H5 H 0.1492 -0.0598 0.3344
C10 C -0.1313(3) 0.1032(2) 0.30084(18)
H6 H -0.2164 0.0877 0.2972
H7 H -0.1102 0.1375 0.3499
C11 C 0.2178(3) -0.24494(18) 0.21521(16)
H8 H 0.1812 -0.2753 0.2545
N4 N 0.3407(2) 0.30951(17) 0.03541(15)
O10 O 0.4087(3) 0.37468(18) 0.03813(16)
C12 C -0.0635(3) 0.31220(18) 0.01228(17)
C13 C -0.1572(3) 0.36920(19) -0.01474(19)
H9 H -0.1512 0.4064 -0.0589
C14 C 0.4997(3) 0.01036(18) 0.21050(17)
H10 H 0.5749 0.0147 0.1919
C15 C 0.0632(3) 0.3656(2) -0.0838(2)
H11 H 0.0045 0.4134 -0.0855
H12 H 0.0567 0.3356 -0.1350
H13 H 0.1429 0.3906 -0.0719
C16 C -0.2612(3) 0.3712(2) 0.0240(2)
H14 H -0.3249 0.4094 0.0054
C17 C 0.5118(3) 0.1101(3) 0.0673(2)
H15 H 0.5756 0.0889 0.1064
H16 H 0.5242 0.1731 0.0563
H17 H 0.5118 0.0757 0.0186
N5 N 0.2458(2) 0.12925(15) -0.14891(15)
C18 C 0.1480(3) -0.18988(18) 0.16207(16)
H18 H 0.0654 -0.1843 0.1647
C19 C 0.2032(3) -0.14259(17) 0.10423(15)
C20 C 0.1314(3) -0.08059(17) 0.04579(17)
C21 C 0.3268(3) -0.15277(18) 0.10364(17)
H19 H 0.3668 -0.1205 0.0671
C22 C 0.3750(3) -0.04542(18) 0.30740(17)
H20 H 0.3669 -0.0803 0.3527
C23 C 0.4860(3) -0.03901(19) 0.27996(18)
H21 H 0.5526 -0.0677 0.3078
C24 C 0.3898(3) -0.21060(19) 0.15718(17)
H22 H 0.4723 -0.2182 0.1550
O11 O 0.18876(18) -0.01822(12) 0.01538(11)
O12 O 0.0206(2) -0.09568(13) 0.03193(13)
Nd1B Nd -0.173535(14) -0.144743(9) -0.018708(8)
Zn1A Zn 0.43240(3) -0.34640(2) 0.287765(18)
N2A N 0.1629(2) 0.24351(15) 0.28751(13)
O12B O -0.0206(2) 0.09568(13) -0.03193(13)
loop_
_geom_bond_atom_site_label_1
_geom_bond_atom_site_label_2
_geom_bond_site_symmetry_1
_geom_bond_site_symmetry_2
Nd1 O2 1_555 1_555
Zn1 O2 1_555 1_555
O1 N5 1_555 1_555
O2 C3 1_555 1_555
O3 Nd1 1_555 1_555
N1 Zn1 1_555 1_555
O4 Nd1 1_555 1_555
O5 Nd1 1_555 1_555
O6 Nd1 1_555 1_555
O7 Nd1 1_555 1_555
O8 Nd1 1_555 1_555
N2 C11 1_555 1_555
O9 Nd1 1_555 1_555
C1 C3 1_555 1_555
N3 Zn1 1_555 1_555
C2 N1 1_555 1_555
H1 C2 1_555 1_555
C3 C6 1_555 1_555
C4 O4 1_555 1_555
C5 C2 1_555 1_555
C6 O5 1_555 1_555
C7 C5 1_555 1_555
H2 C7 1_555 1_555
C8 N3 1_555 1_555
H3 C8 1_555 1_555
H4 C8 1_555 1_555
C9 C1 1_555 1_555
H5 C9 1_555 1_555
C10 N1 1_555 1_555
H6 C10 1_555 1_555
H7 C10 1_555 1_555
C11 H8 1_555 1_555
N4 O3 1_555 1_555
O10 N4 1_555 1_555
C12 O8 1_555 1_555
C13 C12 1_555 1_555
H9 C13 1_555 1_555
C14 C6 1_555 1_555
H10 C14 1_555 1_555
C15 O8 1_555 1_555
H11 C15 1_555 1_555
H12 C15 1_555 1_555
H13 C15 1_555 1_555
C16 C7 1_555 1_555
H14 C16 1_555 1_555
C17 O5 1_555 1_555
H15 C17 1_555 1_555
H16 C17 1_555 1_555
H17 C17 1_555 1_555
N5 O6 1_555 1_555
C18 C11 1_555 1_555
H18 C18 1_555 1_555
C19 C18 1_555 1_555
C20 C19 1_555 1_555
C21 C19 1_555 1_555
H19 C21 1_555 1_555
C22 C1 1_555 1_555
H20 C22 1_555 1_555
C23 C14 1_555 1_555
H21 C23 1_555 1_555
C24 N2 1_555 1_555
H22 C24 1_555 1_555
O11 Nd1 1_555 1_555
O12 C20 1_555 1_555
Nd1B O12 1_555 1_555
Zn1A N2 1_555 1_555
N2A Zn1 1_555 1_555
O12B Nd1 1_555 1_555
Zn1 O4 1_555 1_555
O7 N5 1_555 1_555
O9 N4 1_555 1_555
N3 C9 1_555 1_555
C4 C5 1_555 1_555
C4 C12 1_555 1_555
C8 C10 1_555 1_555
C13 C16 1_555 1_555
C20 O11 1_555 1_555
C21 C24 1_555 1_555
C22 C23 1_555 1_555

#END
