
#######################################################################
#
#                 Cambridge Crystallographic Data Centre
#                                CCDC 
#
#######################################################################
#
# If this CIF has been generated from an entry in the Cambridge 
# Structural Database, then it will include bibliographic, chemical, 
# crystal, experimental, refinement or atomic coordinate data resulting 
# from the CCDC's data processing and validation procedures.
#
#######################################################################

data_POXNEW
_symmetry_cell_setting           tetragonal
_symmetry_space_group_name_H-M   'P 42/n'
_symmetry_Int_Tables_number      86
_space_group_name_Hall           '-P 4bc'
loop_
_symmetry_equiv_pos_site_id
_symmetry_equiv_pos_as_xyz
1 x,y,z
2 1/2-x,1/2-y,z
3 -y,1/2+x,1/2+z
4 1/2+y,-x,1/2+z
5 -x,-y,-z
6 1/2+x,1/2+y,-z
7 y,1/2-x,1/2-z
8 1/2-y,x,1/2-z
_cell_length_a                   13.0057(18)
_cell_length_b                   13.0057(18)
_cell_length_c                   25.768(5)
_cell_angle_alpha                90
_cell_angle_beta                 90
_cell_angle_gamma                90
_cell_volume                     4358.61
loop_
_atom_site_label
_atom_site_type_symbol
_atom_site_fract_x
_atom_site_fract_y
_atom_site_fract_z
Ag1 Ag 0.46811(5) 0.44552(4) 0.33440(2)
Ag2 Ag 0.56882(4) 0.30498(4) 0.22689(2)
Ag3 Ag 0.2500 0.2500 0.14299(7)
S1 S 0.59566(10) 0.49313(10) 0.26442(5)
C1 C 0.7231(4) 0.5171(4) 0.28717(19)
C2 C 0.8024(4) 0.5491(4) 0.25408(19)
C3 C 0.5612(4) 0.5994(4) 0.2245(2)
C4 C 0.5360(4) 0.5797(4) 0.1735(2)
H1 H 0.5449 0.5122 0.1601
C5 C 0.4977(4) 0.6565(4) 0.1410(2)
C6 C 0.7444(4) 0.4915(4) 0.33869(19)
H2 H 0.6899 0.4693 0.3605
O1 O 0.7880(3) 0.5659(3) 0.20185(14)
C7 C 0.7851(4) 0.4704(5) 0.1737(2)
H3 H 0.8375 0.4230 0.1880
H4 H 0.7168 0.4380 0.1781
C8 C 0.8055(5) 0.4871(4) 0.1168(2)
C9 C 0.7955(5) 0.4007(6) 0.0844(3)
H5 H 0.7734 0.3371 0.0986
C10 C 0.8172(6) 0.4074(6) 0.0329(3)
H6 H 0.8117 0.3483 0.0114
C11 C 0.8473(6) 0.5009(5) 0.0118(2)
C12 C 0.8546(6) 0.5889(6) 0.0430(3)
H7 H 0.8736 0.6532 0.0284
C13 C 0.8336(5) 0.5806(6) 0.0955(2)
H8 H 0.8385 0.6396 0.1171
C14 C 0.8723(6) 0.5054(6) -0.0428(3)
N1 N 0.8918(5) 0.5051(5) -0.0856(2)
C15 C 0.4645(4) 0.6303(4) 0.0855(2)
C16 C 0.4114(6) 0.7214(5) 0.0590(2)
H9 H 0.4582 0.7805 0.0584
H10 H 0.3491 0.7396 0.0783
H11 H 0.3930 0.7025 0.0234
C17 C 0.5592(5) 0.5993(5) 0.0539(2)
H12 H 0.6099 0.6550 0.0548
H13 H 0.5389 0.5862 0.0178
H14 H 0.5894 0.5369 0.0687
C18 C 0.3877(5) 0.5399(5) 0.0869(2)
H15 H 0.3654 0.5237 0.0516
H16 H 0.3279 0.5590 0.1079
H17 H 0.4211 0.4795 0.1023
N2 N 0.2439(9) 0.5202(6) 0.3870(3)
O2 O 0.2649(18) 0.4597(9) 0.4205(5)
O3 O 0.3013(6) 0.5207(5) 0.3469(3)
O4 O 0.1695(8) 0.5752(6) 0.3883(5)
N3 N 0.3248(4) 0.4148(5) 0.2113(2)
O5 O 0.3881(5) 0.3594(5) 0.1882(2)
O6 O 0.3539(4) 0.4803(4) 0.2430(2)
O7 O 0.2306(4) 0.4023(5) 0.2028(3)
N4 N 0.7500 0.2500 0.2943(3)
O8 O 0.6690(4) 0.2709(4) 0.3175(2)
O9 O 0.7500 0.2500 0.2446(3)
Ag1A Ag 0.03189(5) 0.05448(4) 0.33440(2)
Ag1G Ag 0.05448(4) 0.46811(5) 0.16560(2)
Ag1F Ag 0.44552(4) 0.03189(5) 0.16560(2)
Ag1C Ag 0.94552(4) 0.53189(5) -0.16560(2)
Ag1G_2 Ag 1.05448(4) 0.46811(5) 0.16560(2)
Ag1A_2 Ag 1.03189(5) 1.05448(4) 0.33440(2)
Ag1F_2 Ag 0.44552(4) 1.03189(5) 0.16560(2)
Ag1D Ag 0.53189(5) 0.55448(4) 0.66560(2)
Ag1B Ag 0.55448(4) 0.96811(5) -0.16560(2)
Ag1E Ag 0.96811(5) 0.94552(4) 0.66560(2)
Ag2A Ag -0.06882(4) 0.19502(4) 0.22689(2)
Ag2G Ag 0.19502(4) 0.56882(4) 0.27311(2)
Ag2F Ag 0.30498(4) -0.06882(4) 0.27311(2)
Ag2A_2 Ag 0.93118(4) 0.19502(4) 0.22689(2)
Ag2G_2 Ag 1.19502(4) 0.56882(4) 0.27311(2)
Ag2A_3 Ag 0.93118(4) 1.19502(4) 0.22689(2)
Ag2F_2 Ag 0.30498(4) 0.93118(4) 0.27311(2)
Ag2_2 Ag -0.43118(4) 0.30498(4) 0.22689(2)
Ag3F Ag 0.2500 0.2500 0.35701(7)
S1G S 1.00687(10) 0.59566(10) 0.23558(5)
S1A S 0.90434(10) 1.00687(10) 0.26442(5)
S1F S 0.49313(10) 0.90434(10) 0.23558(5)
S1A_2 S -0.09566(10) 0.00687(10) 0.26442(5)
S1G_2 S 0.00687(10) 0.59566(10) 0.23558(5)
S1F_2 S 0.49313(10) -0.09566(10) 0.23558(5)
C1G C 0.9829(4) 0.7231(4) 0.21283(19)
C1A C 0.7769(4) 0.9829(4) 0.28717(19)
C1F C 0.5171(4) 0.7769(4) 0.21283(19)
C2G C 0.9509(4) 0.8024(4) 0.24592(19)
C2A C 0.6976(4) 0.9509(4) 0.25408(19)
C2F C 0.5491(4) 0.6976(4) 0.24592(19)
C3G C 0.9006(4) 0.5612(4) 0.2755(2)
C3A C 0.9388(4) 0.9006(4) 0.2245(2)
C3F C 0.5994(4) 0.9388(4) 0.2755(2)
C4F C 0.5797(4) 0.9640(4) 0.3265(2)
C4A C 0.9640(4) 0.9203(4) 0.1735(2)
C4G C 0.9203(4) 0.5360(4) 0.3265(2)
H1F H 0.5122 0.9551 0.3399
H1A H 0.9551 0.9878 0.1601
H1G H 0.9878 0.5449 0.3399
C5F C 0.6565(4) 1.0023(4) 0.3590(2)
C5A C 1.0023(4) 0.8435(4) 0.1410(2)
C5G C 0.8435(4) 0.4977(4) 0.3590(2)
C6F C 0.4915(4) 0.7556(4) 0.16131(19)
C6A C 0.7556(4) 1.0085(4) 0.33869(19)
C6G C 1.0085(4) 0.7444(4) 0.16131(19)
H2F H 0.4693 0.8101 0.1395
H2A H 0.8101 1.0307 0.3605
H2G H 1.0307 0.6899 0.1395
O1F O 0.5659(3) 0.7120(3) 0.29815(14)
O1A O 0.7120(3) 0.9341(3) 0.20185(14)
O1G O 0.9341(3) 0.7880(3) 0.29815(14)
C7F C 0.4704(5) 0.7149(4) 0.3263(2)
C7A C 0.7149(4) 1.0296(5) 0.1737(2)
C7G C 1.0296(5) 0.7851(4) 0.3263(2)
H3F H 0.4230 0.6625 0.3120
H3A H 0.6625 1.0770 0.1880
H3G H 1.0770 0.8375 0.3120
H4F H 0.4380 0.7832 0.3219
H4A H 0.7832 1.0620 0.1781
H4G H 1.0620 0.7168 0.3219
C8F C 0.4871(4) 0.6945(5) 0.3832(2)
C8A C 0.6945(5) 1.0129(4) 0.1168(2)
C8G C 1.0129(4) 0.8055(5) 0.3832(2)
C9F C 0.4007(6) 0.7045(5) 0.4156(3)
C9A C 0.7045(5) 1.0993(6) 0.0844(3)
C9G C 1.0993(6) 0.7955(5) 0.4156(3)
H5F H 0.3371 0.7266 0.4014
H5A H 0.7266 1.1629 0.0986
H5G H 1.1629 0.7734 0.4014
C10F C 0.4074(6) 0.6828(6) 0.4671(3)
C10A C 0.6828(6) 1.0926(6) 0.0329(3)
C10G C 1.0926(6) 0.8172(6) 0.4671(3)
H6F H 0.3483 0.6883 0.4886
H6A H 0.6883 1.1517 0.0114
H6G H 1.1517 0.8117 0.4886
C11F C 0.5009(5) 0.6527(6) 0.4882(2)
C11A C 0.6527(6) 0.9991(5) 0.0118(2)
C11G C 0.9991(5) 0.8473(6) 0.4882(2)
C12F C 0.5889(6) 0.6454(6) 0.4570(3)
C12A C 0.6454(6) 0.9111(6) 0.0430(3)
C12G C 0.9111(6) 0.8546(6) 0.4570(3)
H7F H 0.6532 0.6264 0.4716
H7A H 0.6264 0.8468 0.0284
H7G H 0.8468 0.8736 0.4716
C13F C 0.5806(6) 0.6664(5) 0.4045(2)
C13A C 0.6664(5) 0.9194(6) 0.0955(2)
C13G C 0.9194(6) 0.8336(5) 0.4045(2)
H8F H 0.6396 0.6615 0.3829
H8A H 0.6615 0.8604 0.1171
H8G H 0.8604 0.8385 0.3829
C14F C 0.5054(6) 0.6277(6) 0.5428(3)
C14A C 0.6277(6) 0.9946(6) -0.0428(3)
C14G C 0.9946(6) 0.8723(6) 0.5428(3)
N1F N 0.5051(5) 0.6082(5) 0.5856(2)
N1A N 0.6082(5) 0.9949(5) -0.0856(2)
N1G N 0.9949(5) 0.8918(5) 0.5856(2)
N1B N 0.4949(5) 0.3918(5) 0.4144(2)
N1C N 0.0051(5) 0.1082(5) 0.4144(2)
N1D N 0.1082(5) 0.4949(5) 0.0856(2)
N1E N 0.3918(5) 0.0051(5) 0.0856(2)
C15F C 0.6303(4) 1.0355(4) 0.4145(2)
C15A C 1.0355(4) 0.8697(4) 0.0855(2)
C15G C 0.8697(4) 0.4645(4) 0.4145(2)
C16F C 0.7214(5) 1.0886(6) 0.4410(2)
C16A C 1.0886(6) 0.7786(5) 0.0590(2)
C16G C 0.7786(5) 0.4114(6) 0.4410(2)
H9F H 0.7805 1.0418 0.4416
H9A H 1.0418 0.7195 0.0584
H9G H 0.7195 0.4582 0.4416
H10F H 0.7396 1.1509 0.4217
H10A H 1.1509 0.7604 0.0783
H10G H 0.7604 0.3491 0.4217
H11F H 0.7025 1.1070 0.4766
H11A H 1.1070 0.7975 0.0234
H11G H 0.7975 0.3930 0.4766
C17F C 0.5993(5) 0.9408(5) 0.4461(2)
C17A C 0.9408(5) 0.9007(5) 0.0539(2)
C17G C 0.9007(5) 0.5592(5) 0.4461(2)
H12F H 0.6550 0.8901 0.4452
H12A H 0.8901 0.8450 0.0548
H12G H 0.8450 0.6099 0.4452
H13F H 0.5862 0.9611 0.4822
H13A H 0.9611 0.9138 0.0178
H13G H 0.9138 0.5389 0.4822
H14F H 0.5369 0.9106 0.4313
H14A H 0.9106 0.9631 0.0687
H14G H 0.9631 0.5894 0.4313
C18F C 0.5399(5) 1.1123(5) 0.4131(2)
C18A C 1.1123(5) 0.9601(5) 0.0869(2)
C18G C 0.9601(5) 0.3877(5) 0.4131(2)
H15F H 0.5237 1.1346 0.4484
H15A H 1.1346 0.9763 0.0516
H15G H 0.9763 0.3654 0.4484
H16F H 0.5590 1.1721 0.3921
H16A H 1.1721 0.9410 0.1079
H16G H 0.9410 0.3279 0.3921
H17F H 0.4795 1.0789 0.3977
H17A H 1.0789 1.0205 0.1023
H17G H 1.0205 0.4211 0.3977
N2F N 0.5202(6) 0.2561(9) 0.1130(3)
N2A N 0.2561(9) -0.0202(6) 0.3870(3)
N2G N -0.0202(6) 0.2439(9) 0.1130(3)
O2F O 0.4597(9) 0.2351(18) 0.0795(5)
O2A O 0.2351(18) 0.0403(9) 0.4205(5)
O2G O 0.0403(9) 0.2649(18) 0.0795(5)
O3F O 0.5207(5) 0.1987(6) 0.1531(3)
O3A O 0.1987(6) -0.0207(5) 0.3469(3)
O3G O -0.0207(5) 0.3013(6) 0.1531(3)
O4F O 0.5752(6) 0.3305(8) 0.1117(5)
O4A O 0.3305(8) -0.0752(6) 0.3883(5)
O4G O -0.0752(6) 0.1695(8) 0.1117(5)
N3A N 0.1752(4) 0.0852(5) 0.2113(2)
N3F N 0.4148(5) 0.1752(4) 0.2887(2)
N3G N 0.0852(5) 0.3248(4) 0.2887(2)
O5A O 0.1119(5) 0.1406(5) 0.1882(2)
O5F O 0.3594(5) 0.1119(5) 0.3118(2)
O5G O 0.1406(5) 0.3881(5) 0.3118(2)
O6A O 0.1461(4) 0.0197(4) 0.2430(2)
O6F O 0.4803(4) 0.1461(4) 0.2570(2)
O6G O 0.0197(4) 0.3539(4) 0.2570(2)
O7A O 0.2694(4) 0.0977(5) 0.2028(3)
O7F O 0.4023(5) 0.2694(4) 0.2972(3)
O7G O 0.0977(5) 0.2306(4) 0.2972(3)
N4_2 N -0.2500 0.2500 0.2943(3)
O8A O 0.8310(4) 0.2291(4) 0.3175(2)
O8A_2 O -0.1690(4) 0.2291(4) 0.3175(2)
O8_2 O -0.3310(4) 0.2709(4) 0.3175(2)
O8G O 0.2291(4) 0.6690(4) 0.1825(2)
O8F O 0.2709(4) -0.1690(4) 0.1825(2)
O9_2 O -0.2500 0.2500 0.2446(3)
O9F O 0.2500 0.7500 0.2554(3)
O9F_2 O 0.2500 -0.2500 0.2554(3)
loop_
_geom_bond_atom_site_label_1
_geom_bond_atom_site_label_2
_geom_bond_site_symmetry_1
_geom_bond_site_symmetry_2
Ag1 S1 1_555 1_555
Ag2 S1 1_555 1_555
Ag3 O5 1_555 1_555
S1 C1 1_555 1_555
C1 C2 1_555 1_555
C2 O1 1_555 1_555
C3 S1 1_555 1_555
C4 C3 1_555 1_555
H1 C4 1_555 1_555
C5 C4 1_555 1_555
C6 C1 1_555 1_555
H2 C6 1_555 1_555
O1 C7 1_555 1_555
C7 H3 1_555 1_555
H4 C7 1_555 1_555
C8 C7 1_555 1_555
C9 C8 1_555 1_555
H5 C9 1_555 1_555
C10 C9 1_555 1_555
H6 C10 1_555 1_555
C11 C10 1_555 1_555
C12 C11 1_555 1_555
H7 C12 1_555 1_555
C13 C8 1_555 1_555
H8 C13 1_555 1_555
C14 C11 1_555 1_555
N1 C14 1_555 1_555
C15 C5 1_555 1_555
C16 C15 1_555 1_555
H9 C16 1_555 1_555
H10 C16 1_555 1_555
H11 C16 1_555 1_555
C17 C15 1_555 1_555
H12 C17 1_555 1_555
H13 C17 1_555 1_555
H14 C17 1_555 1_555
C18 C15 1_555 1_555
H15 C18 1_555 1_555
H16 C18 1_555 1_555
H17 C18 1_555 1_555
N2 O2 1_555 1_555
O3 Ag1 1_555 1_555
O4 N2 1_555 1_555
N3 O5 1_555 1_555
O5 Ag2 1_555 1_555
O6 Ag1 1_555 1_555
O7 Ag3 1_555 1_555
N4 O8 1_555 1_555
O8 Ag2 1_555 1_555
O9 Ag2 1_555 1_555
Ag1A S1A_2 1_555 1_555
Ag1G O7 1_555 1_555
Ag1F S1F_2 1_555 1_555
Ag1C N1 1_555 1_555
Ag1G_2 S1G 1_555 1_555
Ag1A_2 S1A 1_555 1_555
Ag1F_2 S1F 1_555 1_555
Ag1D N1F 1_555 1_555
Ag1B N1A 1_555 1_555
Ag1E N1G 1_555 1_555
Ag2A S1A_2 1_555 1_555
Ag2G O3 1_555 1_555
Ag2F S1F_2 1_555 1_555
Ag2A_2 O9 1_555 1_555
Ag2G_2 S1G 1_555 1_555
Ag2A_3 S1A 1_555 1_555
Ag2F_2 S1F 1_555 1_555
Ag2_2 O8_2 1_555 1_555
Ag3F O5F 1_555 1_555
S1G C1G 1_555 1_555
S1A C1A 1_555 1_555
S1F C1F 1_555 1_555
S1G_2 Ag1G 1_555 1_555
C1G C2G 1_555 1_555
C1A C2A 1_555 1_555
C1F C2F 1_555 1_555
C2G C3A 1_555 1_555
C2A C3F 1_555 1_555
C2F C3 1_555 1_555
C3G C2 1_555 1_555
C3A S1A 1_555 1_555
C3F S1F 1_555 1_555
C4F C3F 1_555 1_555
C4A C3A 1_555 1_555
C4G C3G 1_555 1_555
H1F C4F 1_555 1_555
H1A C4A 1_555 1_555
H1G C4G 1_555 1_555
C5F C4F 1_555 1_555
C5A C4A 1_555 1_555
C5G C6 1_555 1_555
C6F C5 1_555 1_555
C6A C1A 1_555 1_555
C6G C1G 1_555 1_555
H2F C6F 1_555 1_555
H2A C6A 1_555 1_555
H2G C6G 1_555 1_555
O1F C2F 1_555 1_555
O1A C2A 1_555 1_555
O1G C2G 1_555 1_555
C7F O1F 1_555 1_555
C7A O1A 1_555 1_555
C7G O1G 1_555 1_555
H3F C7F 1_555 1_555
H3A C7A 1_555 1_555
H3G C7G 1_555 1_555
H4F C7F 1_555 1_555
H4A C7A 1_555 1_555
H4G C7G 1_555 1_555
C8F C7F 1_555 1_555
C8A C7A 1_555 1_555
C8G C7G 1_555 1_555
C9F C8F 1_555 1_555
C9A C8A 1_555 1_555
C9G C8G 1_555 1_555
H5F C9F 1_555 1_555
H5A C9A 1_555 1_555
H5G C9G 1_555 1_555
C10F C9F 1_555 1_555
C10A C9A 1_555 1_555
C10G C9G 1_555 1_555
H6F C10F 1_555 1_555
H6A C10A 1_555 1_555
H6G C10G 1_555 1_555
C11F C10F 1_555 1_555
C11A C10A 1_555 1_555
C11G C10G 1_555 1_555
C12F C11F 1_555 1_555
C12A C11A 1_555 1_555
C12G C11G 1_555 1_555
H7F C12F 1_555 1_555
H7A C12A 1_555 1_555
H7G C12G 1_555 1_555
C13F C8F 1_555 1_555
C13A C8A 1_555 1_555
C13G C8G 1_555 1_555
H8F C13F 1_555 1_555
H8A C13A 1_555 1_555
H8G C13G 1_555 1_555
C14F C11F 1_555 1_555
C14A C11A 1_555 1_555
C14G C11G 1_555 1_555
N1F C14F 1_555 1_555
N1A C14A 1_555 1_555
N1G C14G 1_555 1_555
N1B Ag1 1_555 1_555
N1C Ag1A 1_555 1_555
N1D Ag1G 1_555 1_555
N1E Ag1F 1_555 1_555
C15F C5F 1_555 1_555
C15A C5A 1_555 1_555
C15G C5G 1_555 1_555
C16F C15F 1_555 1_555
C16A C15A 1_555 1_555
C16G C15G 1_555 1_555
H9F C16F 1_555 1_555
H9A C16A 1_555 1_555
H9G C16G 1_555 1_555
H10F C16F 1_555 1_555
H10A C16A 1_555 1_555
H10G C16G 1_555 1_555
H11F C16F 1_555 1_555
H11A C16A 1_555 1_555
H11G C16G 1_555 1_555
C17F C15F 1_555 1_555
C17A C15A 1_555 1_555
C17G C15G 1_555 1_555
H12F C17F 1_555 1_555
H12A C17A 1_555 1_555
H12G C17G 1_555 1_555
H13F C17F 1_555 1_555
H13A C17A 1_555 1_555
H13G C17G 1_555 1_555
H14F C17F 1_555 1_555
H14A C17A 1_555 1_555
H14G C17G 1_555 1_555
C18F C15F 1_555 1_555
C18A C15A 1_555 1_555
C18G C15G 1_555 1_555
H15F C18F 1_555 1_555
H15A C18A 1_555 1_555
H15G C18G 1_555 1_555
H16F C18F 1_555 1_555
H16A C18A 1_555 1_555
H16G C18G 1_555 1_555
H17F C18F 1_555 1_555
H17A C18A 1_555 1_555
H17G C18G 1_555 1_555
N2F O2F 1_555 1_555
N2A O2A 1_555 1_555
N2G O2G 1_555 1_555
O3F Ag2 1_555 1_555
O3A Ag1A 1_555 1_555
O3G Ag1G 1_555 1_555
O4F N2F 1_555 1_555
O4A N2A 1_555 1_555
O4G N2G 1_555 1_555
N3A O5A 1_555 1_555
N3F O5F 1_555 1_555
N3G O5G 1_555 1_555
O5A Ag3 1_555 1_555
O5F Ag2F 1_555 1_555
O5G Ag2G 1_555 1_555
O6A Ag1A 1_555 1_555
O6F Ag2 1_555 1_555
O6G Ag1G 1_555 1_555
O7A Ag3 1_555 1_555
O7F Ag1 1_555 1_555
O7G Ag1A 1_555 1_555
N4_2 O8A_2 1_555 1_555
O8A N4 1_555 1_555
O8A_2 Ag2A 1_555 1_555
O8_2 N4_2 1_555 1_555
O8G Ag2G 1_555 1_555
O8F Ag2F 1_555 1_555
O9_2 Ag2A 1_555 1_555
O9F Ag2G 1_555 1_555
O9F_2 Ag2F 1_555 1_555
Ag2 O7F 1_555 1_555
C12 C13 1_555 1_555
N2 O3 1_555 1_555
N3 O6 1_555 1_555
N3 O7 1_555 1_555
O6 Ag2G 1_555 1_555
O7 Ag2G 1_555 1_555
N4 O9 1_555 1_555
Ag1F O3F 1_555 1_555
Ag1F O6F 1_555 1_555
Ag1F O7A 1_555 1_555
Ag2A O3G 1_555 1_555
Ag2A O5A 1_555 1_555
Ag2A O6G 1_555 1_555
Ag2A O7G 1_555 1_555
Ag2G S1G_2 1_555 1_555
Ag2F O3A 1_555 1_555
Ag2F O6A 1_555 1_555
Ag2F O7A 1_555 1_555
Ag2A_2 O8A 1_555 1_555
Ag2F_2 O9F 1_555 1_555
Ag2_2 O9_2 1_555 1_555
Ag3F O5G 1_555 1_555
Ag3F O7F 1_555 1_555
Ag3F O7G 1_555 1_555
S1G C3G 1_555 1_555
C1F C6F 1_555 1_555
C4G C5G 1_555 1_555
C5F C6A 1_555 1_555
C5A C6G 1_555 1_555
C12F C13F 1_555 1_555
C12A C13A 1_555 1_555
C12G C13G 1_555 1_555
N2F O3F 1_555 1_555
N2A O3A 1_555 1_555
N2G O3G 1_555 1_555
N3A O6A 1_555 1_555
N3A O7A 1_555 1_555
N3F O6F 1_555 1_555
N3F O7F 1_555 1_555
N3G O6G 1_555 1_555
N3G O7G 1_555 1_555
N4_2 O9_2 1_555 1_555

#END
