
#######################################################################
#
#                 Cambridge Crystallographic Data Centre
#                                CCDC 
#
#######################################################################
#
# If this CIF has been generated from an entry in the Cambridge 
# Structural Database, then it will include bibliographic, chemical, 
# crystal, experimental, refinement or atomic coordinate data resulting 
# from the CCDC's data processing and validation procedures.
#
#######################################################################

data_POXPOJ
_symmetry_cell_setting           monoclinic
_symmetry_space_group_name_H-M   'C 2/c'
_symmetry_Int_Tables_number      15
_space_group_name_Hall           '-C 2yn'
loop_
_symmetry_equiv_pos_site_id
_symmetry_equiv_pos_as_xyz
1 x,y,z
2 -x,y,1/2-z
3 1/2+x,1/2+y,z
4 1/2-x,1/2+y,1/2-z
5 -x,-y,-z
6 x,-y,1/2+z
7 1/2-x,1/2-y,-z
8 1/2+x,1/2-y,1/2+z
_cell_length_a                   19.4829(10)
_cell_length_b                   11.9358(7)
_cell_length_c                   24.8150(9)
_cell_angle_alpha                90
_cell_angle_beta                 108.710(3)
_cell_angle_gamma                90
_cell_volume                     5465.63
loop_
_atom_site_label
_atom_site_type_symbol
_atom_site_fract_x
_atom_site_fract_y
_atom_site_fract_z
U1 U 0.5000 0.725489(17) 0.7500
K1 K 0.7500 0.7500 1.0000
Si1 Si 0.62957(6) 0.93002(11) 0.75736(5)
Si2 Si 0.59891(7) 0.77365(11) 0.65769(5)
Si3 Si 0.58031(8) 0.46372(12) 0.77981(8)
O1 O 0.8540(3) 0.8070(5) 0.95159(19)
O2 O 0.7150(4) 0.9716(7) 1.0055(4)
N1 N 0.5859(2) 0.7291(4) 0.84916(18)
N2 N 0.58231(17) 0.8158(3) 0.71953(13)
N3 N 0.5000 0.5371(4) 0.7500
C1 C 0.6286(3) 0.7315(5) 0.8938(2)
C2 C 0.7226(2) 0.8900(5) 0.8029(2)
H1 H 0.7193 0.8368 0.8311
H2 H 0.7480 0.9555 0.8215
H3 H 0.7482 0.8570 0.7797
C3 C 0.5834(3) 0.9898(5) 0.8062(2)
H4 H 0.5630 1.0614 0.7920
H5 H 0.6179 0.9987 0.8435
H6 H 0.5455 0.9400 0.8080
C4 C 0.6367(3) 1.0471(4) 0.7090(2)
H7 H 0.6619 1.0212 0.6839
H8 H 0.6628 1.1085 0.7313
H9 H 0.5889 1.0716 0.6870
C5 C 0.5495(3) 0.8653(5) 0.5957(2)
H10 H 0.4983 0.8544 0.5866
H11 H 0.5640 0.8459 0.5634
H12 H 0.5612 0.9424 0.6055
C6 C 0.5693(3) 0.6249(4) 0.6380(2)
H13 H 0.6006 0.5747 0.6652
H14 H 0.5717 0.6087 0.6008
H15 H 0.5204 0.6154 0.6381
C7 C 0.6984(3) 0.7748(5) 0.6652(3)
H16 H 0.7174 0.8491 0.6746
H17 H 0.7046 0.7521 0.6299
H18 H 0.7239 0.7239 0.6948
C8 C 0.5896(4) 0.4121(6) 0.8534(3)
H19 H 0.5932 0.4749 0.8783
H20 H 0.6324 0.3669 0.8672
H21 H 0.5479 0.3680 0.8522
C9 C 0.5883(4) 0.3394(5) 0.7361(4)
H22 H 0.5514 0.2859 0.7356
H23 H 0.6351 0.3056 0.7524
H24 H 0.5826 0.3631 0.6979
C10 C 0.6619(2) 0.5532(4) 0.7856(2)
H25 H 0.6878 0.5226 0.7619
H26 H 0.6931 0.5545 0.8244
H27 H 0.6466 0.6281 0.7734
C11 C 0.8708(4) 0.7379(6) 0.9110(3)
H28 H 0.8542 0.7726 0.8736
H29 H 0.8475 0.6654 0.9087
C12 C 0.9519(4) 0.7247(5) 0.9307(3)
H30 H 0.9697 0.7134 0.8988
H31 H 0.9672 0.6624 0.9569
C13 C 0.9776(4) 0.8355(6) 0.9600(3)
H32 H 1.0221 0.8261 0.9914
H33 H 0.9855 0.8898 0.9335
C14 C 0.9162(4) 0.8715(7) 0.9809(3)
H34 H 0.9291 0.8590 1.0216
H35 H 0.9062 0.9506 0.9735
C15 C 0.6452(5) 1.0125(9) 0.9861(6)
H36 H 0.6248 1.0137 1.0170
H37 H 0.6154 0.9641 0.9564
C16 C 0.6455(6) 1.1261(9) 0.9638(5)
H38 H 0.6013 1.1397 0.9325
H39 H 0.6489 1.1811 0.9933
C17 C 0.7076(6) 1.1335(11) 0.9445(5)
H40 H 0.7262 1.2093 0.9467
H41 H 0.6977 1.1046 0.9062
C18 C 0.7569(5) 1.0584(11) 0.9883(6)
H42 H 0.7915 1.0235 0.9728
H43 H 0.7837 1.1022 1.0212
Si3A Si 0.41969(8) 0.46372(12) 0.72019(8)
C8A C 0.4104(4) 0.4121(6) 0.6466(3)
H19A H 0.4068 0.4749 0.6217
H20A H 0.3676 0.3669 0.6328
H21A H 0.4521 0.3680 0.6478
C9A C 0.4117(4) 0.3394(5) 0.7639(4)
H22A H 0.4486 0.2859 0.7644
H23A H 0.3649 0.3056 0.7476
H24A H 0.4174 0.3631 0.8021
C10A C 0.3381(2) 0.5532(4) 0.7144(2)
H25A H 0.3122 0.5226 0.7381
H26A H 0.3069 0.5545 0.6756
H27A H 0.3534 0.6281 0.7266
Si1A Si 0.37043(6) 0.93002(11) 0.74264(5)
Si2A Si 0.40109(7) 0.77365(11) 0.84231(5)
N1A N 0.4141(2) 0.7291(4) 0.65084(18)
N2A N 0.41769(17) 0.8158(3) 0.78047(13)
C1A C 0.3714(3) 0.7315(5) 0.6062(2)
C2A C 0.2774(2) 0.8900(5) 0.6971(2)
H1A H 0.2807 0.8368 0.6689
H2A H 0.2520 0.9555 0.6785
H3A H 0.2518 0.8570 0.7203
C3A C 0.4166(3) 0.9898(5) 0.6938(2)
H4A H 0.4370 1.0614 0.7080
H5A H 0.3821 0.9987 0.6565
H6A H 0.4545 0.9400 0.6920
C4A C 0.3633(3) 1.0471(4) 0.7910(2)
H7A H 0.3381 1.0212 0.8161
H8A H 0.3372 1.1085 0.7687
H9A H 0.4111 1.0716 0.8130
C5A C 0.4505(3) 0.8653(5) 0.9043(2)
H10A H 0.5017 0.8544 0.9134
H11A H 0.4360 0.8459 0.9366
H12A H 0.4388 0.9424 0.8945
C6A C 0.4307(3) 0.6249(4) 0.8620(2)
H13A H 0.3994 0.5747 0.8348
H14A H 0.4283 0.6087 0.8992
H15A H 0.4796 0.6154 0.8619
C7A C 0.3016(3) 0.7748(5) 0.8348(3)
H16A H 0.2826 0.8491 0.8254
H17A H 0.2954 0.7521 0.8701
H18A H 0.2761 0.7239 0.8052
O1F O 0.6460(3) 0.6930(5) 1.04841(19)
C11F C 0.6292(4) 0.7621(6) 1.0890(3)
H28F H 0.6458 0.7274 1.1264
H29F H 0.6525 0.8346 1.0913
C12F C 0.5481(4) 0.7753(5) 1.0693(3)
H30F H 0.5303 0.7866 1.1012
H31F H 0.5328 0.8376 1.0431
C13F C 0.5224(4) 0.6645(6) 1.0400(3)
H32F H 0.4779 0.6739 1.0086
H33F H 0.5145 0.6102 1.0665
C14F C 0.5838(4) 0.6285(7) 1.0191(3)
H34F H 0.5709 0.6410 0.9784
H35F H 0.5938 0.5494 1.0265
O2F O 0.7850(4) 0.5284(7) 0.9945(4)
C15F C 0.8548(5) 0.4875(9) 1.0139(6)
H36F H 0.8752 0.4863 0.9830
H37F H 0.8846 0.5359 1.0436
C16F C 0.8545(6) 0.3739(9) 1.0362(5)
H38F H 0.8987 0.3603 1.0675
H39F H 0.8511 0.3189 1.0067
C17F C 0.7924(6) 0.3665(11) 1.0555(5)
H40F H 0.7738 0.2907 1.0533
H41F H 0.8023 0.3954 1.0938
C18F C 0.7431(5) 0.4416(11) 1.0117(6)
H42F H 0.7085 0.4765 1.0272
H43F H 0.7163 0.3978 0.9788
K1A K 0.2500 0.7500 0.5000
C1F C 0.8714(3) 0.7685(5) 1.1062(2)
loop_
_geom_bond_atom_site_label_1
_geom_bond_atom_site_label_2
_geom_bond_site_symmetry_1
_geom_bond_site_symmetry_2
U1 N1 1_555 1_555
K1 O1 1_555 1_555
Si1 N2 1_555 1_555
Si2 N2 1_555 1_555
Si3 N3 1_555 1_555
O1 C11 1_555 1_555
O2 K1 1_555 1_555
N1 C1 1_555 1_555
N2 U1 1_555 1_555
N3 U1 1_555 1_555
C1 K1 1_555 1_555
C2 Si1 1_555 1_555
H1 C2 1_555 1_555
H2 C2 1_555 1_555
H3 C2 1_555 1_555
C3 Si1 1_555 1_555
H4 C3 1_555 1_555
H5 C3 1_555 1_555
H6 C3 1_555 1_555
C4 Si1 1_555 1_555
H7 C4 1_555 1_555
H8 C4 1_555 1_555
H9 C4 1_555 1_555
C5 Si2 1_555 1_555
H10 C5 1_555 1_555
H11 C5 1_555 1_555
H12 C5 1_555 1_555
C6 Si2 1_555 1_555
H13 C6 1_555 1_555
H14 C6 1_555 1_555
H15 C6 1_555 1_555
C7 Si2 1_555 1_555
H16 C7 1_555 1_555
H17 C7 1_555 1_555
H18 C7 1_555 1_555
C8 Si3 1_555 1_555
H19 C8 1_555 1_555
H20 C8 1_555 1_555
H21 C8 1_555 1_555
C9 Si3 1_555 1_555
H22 C9 1_555 1_555
H23 C9 1_555 1_555
H24 C9 1_555 1_555
C10 Si3 1_555 1_555
H25 C10 1_555 1_555
H26 C10 1_555 1_555
H27 C10 1_555 1_555
C11 H28 1_555 1_555
H29 C11 1_555 1_555
C12 C11 1_555 1_555
H30 C12 1_555 1_555
H31 C12 1_555 1_555
C13 C12 1_555 1_555
H32 C13 1_555 1_555
H33 C13 1_555 1_555
C14 O1 1_555 1_555
H34 C14 1_555 1_555
H35 C14 1_555 1_555
C15 O2 1_555 1_555
H36 C15 1_555 1_555
H37 C15 1_555 1_555
C16 C15 1_555 1_555
H38 C16 1_555 1_555
H39 C16 1_555 1_555
C17 C16 1_555 1_555
H40 C17 1_555 1_555
H41 C17 1_555 1_555
C18 O2 1_555 1_555
H42 C18 1_555 1_555
H43 C18 1_555 1_555
Si3A N3 1_555 1_555
C8A Si3A 1_555 1_555
H19A C8A 1_555 1_555
H20A C8A 1_555 1_555
H21A C8A 1_555 1_555
C9A Si3A 1_555 1_555
H22A C9A 1_555 1_555
H23A C9A 1_555 1_555
H24A C9A 1_555 1_555
C10A Si3A 1_555 1_555
H25A C10A 1_555 1_555
H26A C10A 1_555 1_555
H27A C10A 1_555 1_555
Si1A N2A 1_555 1_555
Si2A N2A 1_555 1_555
N1A U1 1_555 1_555
N2A U1 1_555 1_555
C1A N1A 1_555 1_555
C2A Si1A 1_555 1_555
H1A C2A 1_555 1_555
H2A C2A 1_555 1_555
H3A C2A 1_555 1_555
C3A Si1A 1_555 1_555
H4A C3A 1_555 1_555
H5A C3A 1_555 1_555
H6A C3A 1_555 1_555
C4A Si1A 1_555 1_555
H7A C4A 1_555 1_555
H8A C4A 1_555 1_555
H9A C4A 1_555 1_555
C5A Si2A 1_555 1_555
H10A C5A 1_555 1_555
H11A C5A 1_555 1_555
H12A C5A 1_555 1_555
C6A Si2A 1_555 1_555
H13A C6A 1_555 1_555
H14A C6A 1_555 1_555
H15A C6A 1_555 1_555
C7A Si2A 1_555 1_555
H16A C7A 1_555 1_555
H17A C7A 1_555 1_555
H18A C7A 1_555 1_555
O1F K1 1_555 1_555
C11F O1F 1_555 1_555
H28F C11F 1_555 1_555
H29F C11F 1_555 1_555
C12F C11F 1_555 1_555
H30F C12F 1_555 1_555
H31F C12F 1_555 1_555
C13F C12F 1_555 1_555
H32F C13F 1_555 1_555
H33F C13F 1_555 1_555
C14F O1F 1_555 1_555
H34F C14F 1_555 1_555
H35F C14F 1_555 1_555
O2F K1 1_555 1_555
C15F O2F 1_555 1_555
H36F C15F 1_555 1_555
H37F C15F 1_555 1_555
C16F C15F 1_555 1_555
H38F C16F 1_555 1_555
H39F C16F 1_555 1_555
C17F C16F 1_555 1_555
H40F C17F 1_555 1_555
H41F C17F 1_555 1_555
C18F O2F 1_555 1_555
H42F C18F 1_555 1_555
H43F C18F 1_555 1_555
K1A C1A 1_555 1_555
C1F K1 1_555 1_555
C13 C14 1_555 1_555
C17 C18 1_555 1_555
C13F C14F 1_555 1_555
C17F C18F 1_555 1_555

#END
