
#######################################################################
#
#                 Cambridge Crystallographic Data Centre
#                                CCDC 
#
#######################################################################
#
# If this CIF has been generated from an entry in the Cambridge 
# Structural Database, then it will include bibliographic, chemical, 
# crystal, experimental, refinement or atomic coordinate data resulting 
# from the CCDC's data processing and validation procedures.
#
#######################################################################

data_POYGIU
_symmetry_cell_setting           triclinic
_symmetry_space_group_name_H-M   'P -1'
_symmetry_Int_Tables_number      2
_space_group_name_Hall           '-P 1'
loop_
_symmetry_equiv_pos_site_id
_symmetry_equiv_pos_as_xyz
1 x,y,z
2 -x,-y,-z
_cell_length_a                   10.9374(2)
_cell_length_b                   13.6043(2)
_cell_length_c                   14.2812(2)
_cell_angle_alpha                82.201(1)
_cell_angle_beta                 79.654(1)
_cell_angle_gamma                69.632(1)
_cell_volume                     1953.55
loop_
_atom_site_label
_atom_site_type_symbol
_atom_site_fract_x
_atom_site_fract_y
_atom_site_fract_z
Au1 Au -0.020040(13) 0.210334(10) 1.033796(10)
Ag1 Ag 0.12866(2) -0.03615(2) 1.018403(19)
Ag2 Ag -0.07057(3) 0.43140(2) 1.04421(2)
O1 O 0.1797(2) 0.00175(18) 0.86261(17)
O2 O -0.0286(2) 0.04959(18) 0.83172(18)
O3 O -0.1840(2) 0.4975(2) 0.92447(18)
O4 O -0.0875(3) 0.6179(2) 0.8640(2)
N1 N 0.1251(3) 0.2571(2) 0.8412(2)
N2 N 0.2630(3) 0.1775(2) 0.9387(2)
N3 N 0.2514(3) 0.0673(2) 1.0785(2)
N4 N -0.1706(3) 0.2095(2) 1.2329(2)
N5 N -0.3040(3) 0.2499(2) 1.1294(2)
N6 N -0.2858(3) 0.2210(2) 0.9683(2)
N7 N -0.2409(4) 0.4691(3) 1.1843(3)
C1 C 0.1317(3) 0.2128(2) 0.9312(3)
C2 C 0.3350(3) 0.2012(3) 0.8536(3)
H1 H 0.4277 0.1857 0.8407
C3 C 0.2476(3) 0.2504(3) 0.7931(3)
H2 H 0.2671 0.2758 0.7288
C4 C 0.0022(3) 0.3045(3) 0.7996(3)
H3 H -0.0029 0.2573 0.7554
H4 H 0.0006 0.3721 0.7649
H5 H -0.0731 0.3156 0.8506
C5 C 0.3180(3) 0.1240(3) 1.0221(3)
C6 C 0.4336(3) 0.1319(3) 1.0417(3)
H6 H 0.4789 0.1718 0.9989
C7 C 0.4815(3) 0.0811(3) 1.1241(3)
H7 H 0.5623 0.0829 1.1381
C8 C 0.4092(3) 0.0267(3) 1.1870(3)
H8 H 0.4373 -0.0061 1.2461
C9 C 0.2962(3) 0.0216(3) 1.1610(3)
H9 H 0.2476 -0.0161 1.2035
C10 C -0.1739(3) 0.2231(2) 1.1382(3)
C11 C -0.3797(3) 0.2525(3) 1.2187(3)
H10 H -0.4726 0.2692 1.2317
C12 C -0.2960(3) 0.2270(3) 1.2834(3)
H11 H -0.3185 0.2219 1.3508
C13 C -0.0514(3) 0.1892(3) 1.2755(3)
H12 H -0.0165 0.2473 1.2554
H13 H -0.0725 0.1834 1.3452
H14 H 0.0148 0.1234 1.2543
C14 C -0.3556(3) 0.2780(3) 1.0409(2)
C15 C -0.4730(3) 0.3606(3) 1.0355(3)
H15 H -0.5201 0.3979 1.0897
C16 C -0.5189(3) 0.3867(3) 0.9485(3)
H16 H -0.6000 0.4415 0.9421
C17 C -0.4459(3) 0.3326(3) 0.8708(3)
H17 H -0.4747 0.3508 0.8099
C18 C -0.3296(3) 0.2509(3) 0.8834(3)
H18 H -0.2788 0.2145 0.8296
C19 C 0.0936(3) 0.0322(2) 0.8075(3)
C20 C 0.1406(3) 0.0475(3) 0.7024(3)
C21 C 0.2709(4) 0.0438(3) 0.6715(3)
H19 H 0.3285 0.0339 0.7170
C22 C 0.3163(4) 0.0544(3) 0.5752(3)
H20 H 0.4042 0.0537 0.5548
C23 C 0.2343(5) 0.0660(3) 0.5088(3)
H21 H 0.2665 0.0711 0.4425
C24 C 0.1056(4) 0.0702(3) 0.5381(3)
H22 H 0.0495 0.0778 0.4920
C25 C 0.0576(4) 0.0632(3) 0.6346(3)
H23 H -0.0322 0.0692 0.6543
C26 C -0.1640(3) 0.5680(3) 0.8629(3)
C27 C -0.2344(3) 0.5913(3) 0.7772(3)
C28 C -0.2478(4) 0.6846(3) 0.7189(3)
H24 H -0.2157 0.7359 0.7348
C29 C -0.3084(4) 0.7022(3) 0.6373(3)
H25 H -0.3185 0.7661 0.5984
C30 C -0.3535(4) 0.6286(3) 0.6125(3)
H26 H -0.3940 0.6413 0.5565
C31 C -0.3399(4) 0.5353(3) 0.6696(3)
H27 H -0.3699 0.4836 0.6521
C32 C -0.2824(3) 0.5177(3) 0.7522(3)
H28 H -0.2757 0.4548 0.7920
C33 C -0.2776(4) 0.4761(3) 1.2634(3)
C34 C -0.3248(5) 0.4855(4) 1.3637(3)
H29 H -0.2706 0.5147 1.3916
H30 H -0.3193 0.4159 1.3956
H31 H -0.4166 0.5322 1.3722
Au1A Au 0.020040(13) -0.210334(10) 0.966204(10)
Ag1A Ag -0.12866(2) 0.03615(2) 0.981597(19)
Ag2A Ag 0.07057(3) 0.56860(2) 0.95579(2)
O2A O 0.0286(2) -0.04959(18) 1.16828(18)
O4A O 0.0875(3) 0.3821(2) 1.1360(2)
N6A N 0.2858(3) -0.2210(2) 1.0317(2)
P1 P 0.64937(10) 0.22561(8) 0.59071(7)
F1 F 0.5251(2) 0.2491(2) 0.67273(18)
F2 F 0.5913(2) 0.34280(18) 0.54279(18)
F3 F 0.7255(2) 0.26768(19) 0.65379(17)
F4 F 0.5737(2) 0.18576(19) 0.52723(17)
F5 F 0.7099(3) 0.10983(18) 0.63877(18)
F6 F 0.7741(2) 0.20353(19) 0.50843(16)
N8 N 0.1211(5) 0.3967(4) 0.5900(3)
C35 C 0.0507(5) 0.3762(4) 0.5519(4)
C36 C -0.0386(5) 0.3508(4) 0.5028(4)
H32 H -0.0163 0.2742 0.5058
H33 H -0.0304 0.3788 0.4359
H34 H -0.1294 0.3822 0.5335
loop_
_geom_bond_atom_site_label_1
_geom_bond_atom_site_label_2
_geom_bond_site_symmetry_1
_geom_bond_site_symmetry_2
Au1 Ag1 1_555 1_555
Ag1 O1 1_555 1_555
Ag2 Au1 1_555 1_555
P1 F1 1_555 1_555
F2 P1 1_555 1_555
F3 P1 1_555 1_555
F4 P1 1_555 1_555
F5 P1 1_555 1_555
F6 P1 1_555 1_555
O1 C19 1_555 1_555
O2 C19 1_555 1_555
O3 Ag2 1_555 1_555
O4 C26 1_555 1_555
N1 C1 1_555 1_555
N2 C1 1_555 1_555
N3 Ag1 1_555 1_555
N4 C10 1_555 1_555
N5 C10 1_555 1_555
N6 C14 1_555 1_555
N7 Ag2 1_555 1_555
N8 C35 1_555 1_555
C1 Au1 1_555 1_555
C2 N2 1_555 1_555
H1 C2 1_555 1_555
C3 N1 1_555 1_555
H2 C3 1_555 1_555
C4 N1 1_555 1_555
H3 C4 1_555 1_555
H4 C4 1_555 1_555
H5 C4 1_555 1_555
C5 N2 1_555 1_555
C6 C5 1_555 1_555
H6 C6 1_555 1_555
C7 C6 1_555 1_555
H7 C7 1_555 1_555
C8 C7 1_555 1_555
H8 C8 1_555 1_555
C9 N3 1_555 1_555
H9 C9 1_555 1_555
C10 Au1 1_555 1_555
C11 N5 1_555 1_555
H10 C11 1_555 1_555
C12 N4 1_555 1_555
H11 C12 1_555 1_555
C13 N4 1_555 1_555
H12 C13 1_555 1_555
H13 C13 1_555 1_555
H14 C13 1_555 1_555
C14 N5 1_555 1_555
C15 C14 1_555 1_555
H15 C15 1_555 1_555
C16 C15 1_555 1_555
H16 C16 1_555 1_555
C17 C16 1_555 1_555
H17 C17 1_555 1_555
C18 N6 1_555 1_555
H18 C18 1_555 1_555
C19 C20 1_555 1_555
C20 C21 1_555 1_555
C21 H19 1_555 1_555
C22 C21 1_555 1_555
H20 C22 1_555 1_555
C23 C22 1_555 1_555
H21 C23 1_555 1_555
C24 C23 1_555 1_555
H22 C24 1_555 1_555
C25 C20 1_555 1_555
H23 C25 1_555 1_555
C26 O3 1_555 1_555
C27 C26 1_555 1_555
C28 C27 1_555 1_555
H24 C28 1_555 1_555
C29 C28 1_555 1_555
H25 C29 1_555 1_555
C30 C29 1_555 1_555
H26 C30 1_555 1_555
C31 C30 1_555 1_555
H27 C31 1_555 1_555
C32 C27 1_555 1_555
H28 C32 1_555 1_555
C33 N7 1_555 1_555
C34 C33 1_555 1_555
H29 C34 1_555 1_555
H30 C34 1_555 1_555
H31 C34 1_555 1_555
C35 C36 1_555 1_555
C36 H32 1_555 1_555
H33 C36 1_555 1_555
H34 C36 1_555 1_555
Au1A Ag1 1_555 1_555
Ag1A Au1 1_555 1_555
Ag2A Ag2 1_555 1_555
O2A Ag1 1_555 1_555
O4A Ag2 1_555 1_555
N6A Ag1 1_555 1_555
Ag1 Ag1A 1_555 1_555
O2 Ag1A 1_555 1_555
O4 Ag2A 1_555 1_555
N3 C5 1_555 1_555
N6 Ag1A 1_555 1_555
C2 C3 1_555 1_555
C8 C9 1_555 1_555
C11 C12 1_555 1_555
C17 C18 1_555 1_555
C24 C25 1_555 1_555
C31 C32 1_555 1_555
Au1A Ag1A 1_555 1_555

#END
