
#######################################################################
#
#                 Cambridge Crystallographic Data Centre
#                                CCDC 
#
#######################################################################
#
# If this CIF has been generated from an entry in the Cambridge 
# Structural Database, then it will include bibliographic, chemical, 
# crystal, experimental, refinement or atomic coordinate data resulting 
# from the CCDC's data processing and validation procedures.
#
#######################################################################

data_POYMOG
_symmetry_cell_setting           monoclinic
_symmetry_space_group_name_H-M   'P 21/c'
_symmetry_Int_Tables_number      14
_space_group_name_Hall           '-P 2ybc'
loop_
_symmetry_equiv_pos_site_id
_symmetry_equiv_pos_as_xyz
1 x,y,z
2 -x,1/2+y,1/2-z
3 -x,-y,-z
4 x,1/2-y,1/2+z
_cell_length_a                   11.7734(8)
_cell_length_b                   20.5979(14)
_cell_length_c                   7.3856(5)
_cell_angle_alpha                90
_cell_angle_beta                 91.7380(10)
_cell_angle_gamma                90
_cell_volume                     1790.24
loop_
_atom_site_label
_atom_site_type_symbol
_atom_site_fract_x
_atom_site_fract_y
_atom_site_fract_z
P1 P 0.07203(3) 0.201652(15) 1.02163(5)
Na1 Na 0.01481(5) 0.00850(2) 0.76411(7)
O1 O -0.06323(8) 0.06820(4) 0.49637(12)
N1 N -0.00550(9) 0.08270(5) 1.02653(14)
N2 N 0.10327(9) 0.07832(5) 1.09427(15)
C1 C -0.03536(11) 0.14391(6) 0.98282(15)
O2 O -0.21111(9) -0.02376(5) 0.32786(14)
C2 C -0.18227(13) 0.21322(7) 0.82380(19)
H1 H -0.1264 0.2460 0.8093
C3 C 0.15502(10) 0.13621(6) 1.10096(16)
C4 C -0.15265(11) 0.15530(6) 0.91263(16)
C5 C -0.23709(12) 0.10808(7) 0.93250(19)
H2 H -0.2190 0.0685 0.9926
C6 C -0.18090(12) 0.08066(7) 0.45802(19)
H3 H -0.1910 0.0994 0.3352
H4 H -0.2100 0.1122 0.5465
C7 C 0.31226(13) 0.19440(8) 1.2688(2)
H5 H 0.2640 0.2310 1.2806
C8 C 0.00111(14) 0.12746(7) 0.4908(2)
H6 H -0.0256 0.1537 0.3873
H7 H 0.0818 0.1172 0.4783
H8 H -0.0090 0.1519 0.6031
C9 C 0.27257(11) 0.13919(7) 1.17595(17)
C10 C -0.28130(15) -0.08037(8) 0.3163(2)
H9 H -0.3559 -0.0706 0.3649
H10 H -0.2905 -0.0937 0.1894
H11 H -0.2455 -0.1156 0.3867
C11 C -0.24536(12) 0.01822(8) 0.4695(2)
H12 H -0.3280 0.0268 0.4572
H13 H -0.2297 -0.0026 0.5885
C12 C -0.29222(15) 0.22334(8) 0.7567(2)
H14 H -0.3110 0.2628 0.6961
C13 C 0.34610(12) 0.08634(8) 1.1605(2)
H15 H 0.3208 0.0484 1.0980
C14 C -0.34665(13) 0.11863(9) 0.8654(2)
H16 H -0.4030 0.0862 0.8796
C15 C 0.42213(15) 0.19573(9) 1.3439(3)
H17 H 0.4480 0.2332 1.4078
C16 C 0.45535(13) 0.08855(10) 1.2351(2)
H18 H 0.5043 0.0522 1.2234
C17 C -0.37481(13) 0.17618(10) 0.7778(2)
H19 H -0.4502 0.1833 0.7324
C18 C 0.49365(14) 0.14334(10) 1.3266(2)
H20 H 0.5688 0.1448 1.3771
Na1B Na -0.01481(5) -0.00850(2) 0.23589(7)
Na1B_2 Na -0.01481(5) -0.00850(2) 1.23589(7)
O1B O 0.06323(8) -0.06820(4) 0.50363(12)
N1B N 0.00550(9) -0.08270(5) 0.97347(14)
N2B N -0.10327(9) -0.07832(5) 0.90573(15)
O2B O 0.21111(9) 0.02376(5) 0.67214(14)
loop_
_geom_bond_atom_site_label_1
_geom_bond_atom_site_label_2
_geom_bond_site_symmetry_1
_geom_bond_site_symmetry_2
P1 C1 1_555 1_555
Na1 O1 1_555 1_555
O1 C6 1_555 1_555
N1 Na1 1_555 1_555
N2 N1 1_555 1_555
C1 N1 1_555 1_555
O2 C10 1_555 1_555
C2 H1 1_555 1_555
C3 P1 1_555 1_555
C4 C1 1_555 1_555
C5 C4 1_555 1_555
H2 C5 1_555 1_555
C6 H3 1_555 1_555
H4 C6 1_555 1_555
C7 H5 1_555 1_555
C8 O1 1_555 1_555
H6 C8 1_555 1_555
H7 C8 1_555 1_555
H8 C8 1_555 1_555
C9 C3 1_555 1_555
C10 H9 1_555 1_555
H10 C10 1_555 1_555
H11 C10 1_555 1_555
C11 O2 1_555 1_555
H12 C11 1_555 1_555
H13 C11 1_555 1_555
C12 C2 1_555 1_555
H14 C12 1_555 1_555
C13 C9 1_555 1_555
H15 C13 1_555 1_555
C14 C5 1_555 1_555
H16 C14 1_555 1_555
C15 C7 1_555 1_555
H17 C15 1_555 1_555
C16 C13 1_555 1_555
H18 C16 1_555 1_555
C17 C12 1_555 1_555
H19 C17 1_555 1_555
C18 C15 1_555 1_555
H20 C18 1_555 1_555
Na1B O1 1_555 1_555
Na1B_2 N1 1_555 1_555
O1B Na1 1_555 1_555
N1B Na1 1_555 1_555
N2B Na1 1_555 1_555
O2B Na1 1_555 1_555
N2 C3 1_555 1_555
N2 Na1B_2 1_555 1_555
O2 Na1B 1_555 1_555
C2 C4 1_555 1_555
C6 C11 1_555 1_555
C7 C9 1_555 1_555
C14 C17 1_555 1_555
C16 C18 1_555 1_555
Na1B O1B 1_555 1_555
Na1B_2 N1B 1_555 1_555
N1B N2B 1_555 1_555

#END
