
#######################################################################
#
#                 Cambridge Crystallographic Data Centre
#                                CCDC 
#
#######################################################################
#
# If this CIF has been generated from an entry in the Cambridge 
# Structural Database, then it will include bibliographic, chemical, 
# crystal, experimental, refinement or atomic coordinate data resulting 
# from the CCDC's data processing and validation procedures.
#
#######################################################################

data_POYPEZ
_symmetry_cell_setting           orthorhombic
_symmetry_space_group_name_H-M   'P n c 2'
_symmetry_Int_Tables_number      30
_space_group_name_Hall           'P 2 -2bc'
loop_
_symmetry_equiv_pos_site_id
_symmetry_equiv_pos_as_xyz
1 x,y,z
2 -x,1/2+y,1/2+z
3 x,1/2-y,1/2+z
4 -x,-y,z
_cell_length_a                   6.8199(2)
_cell_length_b                   13.9699(3)
_cell_length_c                   7.2927(2)
_cell_angle_alpha                90
_cell_angle_beta                 90
_cell_angle_gamma                90
_cell_volume                     694.8
loop_
_atom_site_label
_atom_site_type_symbol
_atom_site_fract_x
_atom_site_fract_y
_atom_site_fract_z
Ni1 Ni -0.50000 0.00000 0.887(2)
Zn1 Zn 0.00000 0.00000 0.391(3)
C1 C -0.341(6) 0.036(2) 0.702(4)
N1 N -0.219(4) 0.055(1) 0.593(3)
C2 C -0.686(5) -0.026(2) 1.059(4)
N2 N -0.794(3) -0.036(1) 1.173(3)
N3 N -0.147(2) -0.346(1) 0.875(6)
C3 C -0.017(3) -0.273(1) 0.913(6)
C4 C -0.355(2) -0.343(1) 0.890(8)
C5 C -0.121(2) -0.190(1) 0.881(8)
N4 N -0.314(2) -0.180(1) 0.913(5)
C6 C -0.427(3) -0.249(1) 0.923(4)
Zn1_2 Zn -1.00000 0.00000 1.391(3)
Zn1A Zn 0.00000 -0.50000 0.891(3)
Zn1_3 Zn -1.00000 0.00000 0.391(3)
Zn1_4 Zn 0.00000 0.00000 1.391(3)
Zn1A_2 Zn -1.00000 0.50000 0.891(3)
C1C C -0.659(6) -0.036(2) 0.702(4)
N1C N -0.781(4) -0.055(1) 0.593(3)
N1C_2 N 0.219(4) -0.055(1) 0.593(3)
C2C C -0.314(5) 0.026(2) 1.059(4)
N2C N -0.206(3) 0.036(1) 1.173(3)
N2_2 N 0.206(3) -0.036(1) 0.173(3)
N2C_2 N -0.206(3) 0.036(1) 0.173(3)
N3C N -0.853(2) 0.346(1) 0.875(6)
N3A N 0.147(2) 0.154(1) 0.375(6)
N3B N -0.147(2) -0.154(1) 0.375(6)
C3C C -0.983(3) 0.273(1) 0.913(6)
C4C C -0.645(2) 0.343(1) 0.890(8)
C5C C -0.879(2) 0.190(1) 0.881(8)
N4C N -0.686(2) 0.180(1) 0.913(5)
C6C C -0.573(3) 0.249(1) 0.923(4)
O1 O 0.578(3) 0.228(1) 0.259(4)
loop_
_geom_bond_atom_site_label_1
_geom_bond_atom_site_label_2
_geom_bond_site_symmetry_1
_geom_bond_site_symmetry_2
Ni1 C1 1_555 1_555
Zn1 N1 1_555 1_555
C1 N1 1_555 1_555
C2 Ni1 1_555 1_555
N2 C2 1_555 1_555
N3 C3 1_555 1_555
C3 C5 1_555 1_555
C4 N3 1_555 1_555
C5 N4 1_555 1_555
N4 Ni1 1_555 1_555
C6 C4 1_555 1_555
Zn1_2 N2 1_555 1_555
Zn1A N3 1_555 1_555
Zn1_3 N1C 1_555 1_555
Zn1_4 N2C 1_555 1_555
Zn1A_2 N3C 1_555 1_555
C1C Ni1 1_555 1_555
N1C C1C 1_555 1_555
N1C_2 Zn1 1_555 1_555
C2C Ni1 1_555 1_555
N2C C2C 1_555 1_555
N2_2 Zn1 1_555 1_555
N2C_2 Zn1 1_555 1_555
N3C C3C 1_555 1_555
N3A Zn1 1_555 1_555
N3B Zn1 1_555 1_555
C3C C5C 1_555 1_555
C4C N3C 1_555 1_555
C5C N4C 1_555 1_555
N4C Ni1 1_555 1_555
C6C C4C 1_555 1_555
N4 C6 1_555 1_555
N4C C6C 1_555 1_555

#END
