
#######################################################################
#
#                 Cambridge Crystallographic Data Centre
#                                CCDC 
#
#######################################################################
#
# If this CIF has been generated from an entry in the Cambridge 
# Structural Database, then it will include bibliographic, chemical, 
# crystal, experimental, refinement or atomic coordinate data resulting 
# from the CCDC's data processing and validation procedures.
#
#######################################################################

data_POYPUP
_symmetry_cell_setting           triclinic
_symmetry_space_group_name_H-M   'P -1'
_symmetry_Int_Tables_number      2
_space_group_name_Hall           '-P 1'
loop_
_symmetry_equiv_pos_site_id
_symmetry_equiv_pos_as_xyz
1 x,y,z
2 -x,-y,-z
_cell_length_a                   12.974(3)
_cell_length_b                   13.674(3)
_cell_length_c                   17.935(4)
_cell_angle_alpha                88.72(3)
_cell_angle_beta                 87.49(3)
_cell_angle_gamma                75.69(3)
_cell_volume                     3079.89
loop_
_atom_site_label
_atom_site_type_symbol
_atom_site_fract_x
_atom_site_fract_y
_atom_site_fract_z
Cu1 Cu 0.5207(2) 0.53160(19) 0.12715(15)
Cu2 Cu 0.7576(2) 0.46311(19) 0.24902(16)
Cu3 Cu 0.0043(2) 0.61591(18) 0.62839(15)
Si1 Si 0.7462(4) -0.0130(3) 0.2471(3)
W1 W 0.58608(6) -0.09338(5) 0.38752(4)
W2 W 0.71495(6) 0.08069(5) 0.43026(4)
W3 W 0.50760(6) 0.14318(5) 0.31995(4)
W4 W 0.60215(6) -0.18456(5) 0.19298(5)
W5 W 0.83581(6) -0.26266(5) 0.31223(5)
W6 W 0.96585(6) -0.09395(5) 0.36205(5)
W7 W 0.88986(6) 0.16502(5) 0.28638(4)
W8 W 0.67846(6) 0.23689(5) 0.17860(4)
W9 W 0.53363(6) 0.05080(5) 0.12493(5)
W10 W 0.99013(6) -0.17670(5) 0.18440(5)
W11 W 0.90403(6) 0.08346(5) 0.10913(4)
W12 W 0.75985(6) -0.10774(5) 0.06284(5)
C1 C 0.3446(16) 0.6276(14) 0.2241(12)
H1 H 0.3377 0.6810 0.1901
C2 C 0.2814(16) 0.6401(12) 0.2860(11)
H2 H 0.2315 0.7010 0.2941
C3 C 0.2908(15) 0.5611(12) 0.3384(11)
C4 C 0.3600(15) 0.4753(13) 0.3214(11)
H3 H 0.3649 0.4205 0.3539
C5 C 0.4255(18) 0.4630(14) 0.2576(12)
H4 H 0.4743 0.4018 0.2481
C6 C 0.6697(17) 0.4637(15) 0.0069(12)
H5 H 0.6732 0.3998 0.0271
C7 C 0.7326(15) 0.4734(12) -0.0562(11)
H6 H 0.7815 0.4169 -0.0752
C8 C 0.7234(14) 0.5655(11) -0.0906(10)
C9 C 0.6517(19) 0.6488(15) -0.0567(14)
H7 H 0.6449 0.7132 -0.0769
C10 C 0.590(2) 0.6348(17) 0.0080(13)
H8 H 0.5396 0.6890 0.0286
C11 C 0.617(2) 0.5647(15) 0.3616(14)
H9 H 0.6285 0.6224 0.3380
C12 C 0.5478(18) 0.5773(14) 0.4257(15)
H10 H 0.5124 0.6419 0.4409
C13 C 0.5326(13) 0.4950(11) 0.4659(10)
C14 C 0.5887(18) 0.4037(13) 0.4382(11)
H11 H 0.5854 0.3450 0.4644
C15 C 0.6492(15) 0.3964(13) 0.3735(11)
H12 H 0.6812 0.3320 0.3562
C16 C 0.907(2) 0.3912(14) 0.1302(12)
H13 H 0.9090 0.3271 0.1497
C17 C 0.9729(16) 0.4019(13) 0.0669(11)
H14 H 1.0212 0.3449 0.0482
C18 C 0.9680(14) 0.4920(11) 0.0328(10)
C19 C 0.9038(19) 0.5768(12) 0.0670(11)
H15 H 0.9019 0.6414 0.0486
C20 C 0.8405(17) 0.5611(14) 0.1318(11)
H16 H 0.7957 0.6177 0.1539
C21 C 0.1294(17) 0.5105(13) 0.5110(13)
H17 H 0.1150 0.4549 0.5362
C22 C 0.1902(18) 0.4926(14) 0.4431(12)
H18 H 0.2090 0.4286 0.4224
C23 C 0.2214(15) 0.5730(13) 0.4081(12)
C24 C 0.1815(17) 0.6667(13) 0.4429(13)
H19 H 0.1982 0.7231 0.4204
C25 C 0.1195(16) 0.6809(13) 0.5083(11)
H20 H 0.0975 0.7448 0.5291
C26 C 0.8405(19) 0.6789(15) -0.2563(13)
H21 H 0.8306 0.7417 -0.2797
C27 C 0.7802(16) 0.6689(13) -0.1946(11)
H22 H 0.7295 0.7241 -0.1756
C28 C 0.7945(15) 0.5773(12) -0.1610(11)
C29 C 0.8637(19) 0.4981(13) -0.1883(11)
H23 H 0.8726 0.4350 -0.1655
C30 C 0.9222(17) 0.5113(12) -0.2512(12)
H24 H 0.9698 0.4552 -0.2717
N1 N 0.4173(14) 0.5415(12) 0.2093(10)
N2 N 0.6045(15) 0.5438(10) 0.0390(9)
N3 N 0.6660(15) 0.4756(11) 0.3327(10)
N4 N 0.8416(13) 0.4712(11) 0.1623(9)
N5 N 0.0908(14) 0.6012(11) 0.5419(9)
N6 N 0.9142(13) 0.6007(11) -0.2846(9)
O1 O 0.5015(10) -0.0759(8) 0.1488(8)
O2 O 0.5385(12) -0.2840(9) 0.1903(10)
O3 O 0.6801(10) -0.2017(8) 0.0981(7)
O4 O 0.8795(9) -0.1748(7) 0.1188(7)
O5 O 0.9837(10) -0.0436(8) 0.1497(7)
O6 O 0.9853(12) 0.1053(9) 0.0370(9)
O7 O 1.0978(11) -0.2454(9) 0.1363(8)
O8 O 0.9589(11) 0.1466(8) 0.1908(7)
O9 O 0.7893(11) 0.2025(8) 0.1025(7)
O10 O 0.7802(10) 0.2706(7) 0.2409(7)
O11 O 0.6162(12) 0.3570(8) 0.1482(8)
O12 O 0.9649(10) 0.0335(8) 0.3157(7)
O13 O 0.7885(11) 0.1561(8) 0.3647(8)
O14 O 0.5890(9) 0.2212(7) 0.2642(7)
O15 O 0.4883(9) 0.0894(7) 0.2267(7)
O16 O 0.7313(10) -0.2513(8) 0.2401(7)
O17 O 0.5550(10) -0.1328(8) 0.2892(8)
O18 O 0.3900(10) 0.2295(9) 0.3335(8)
O19 O 0.4730(10) 0.0304(8) 0.3704(7)
O20 O 0.5817(11) 0.1669(8) 0.4047(7)
O21 O 0.6428(11) -0.0212(8) 0.4594(7)
O22 O 0.7212(11) -0.1887(9) 0.3751(7)
O23 O 0.9310(10) -0.2196(8) 0.3785(8)
O24 O 1.0601(11) -0.1023(10) 0.4287(9)
O25 O 0.6083(10) 0.1543(8) 0.1271(7)
O26 O 0.5182(12) -0.1590(8) 0.4421(9)
O27 O 0.8424(11) -0.0251(8) 0.4179(8)
O28 O 0.8225(11) 0.0065(7) 0.0651(7)
O29 O 0.4235(13) 0.1104(11) 0.0783(10)
O30 O 0.7272(12) 0.1271(9) 0.5152(8)
O31 O 0.7891(9) 0.0850(8) 0.2182(7)
O32 O 0.8464(9) -0.1036(7) 0.2678(7)
O33 O 0.6829(9) -0.0493(7) 0.1805(6)
O34 O 0.6702(9) 0.0183(7) 0.3192(7)
O35 O 1.0521(10) -0.1535(9) 0.2756(8)
O36 O 0.8461(12) -0.3839(8) 0.3426(9)
O37 O 0.7976(10) -0.1526(8) -0.0242(7)
O38 O 0.6246(11) -0.0129(8) 0.0474(7)
O39 O 0.0379(12) 0.7602(8) 0.6742(9)
O40 O 0.9462(11) -0.2839(9) 0.2367(8)
Cu1_2 Cu 1.5207(2) 0.53160(19) -0.87285(15)
Cu1_3 Cu -0.4793(2) 0.53160(19) 1.12715(15)
Cu1A Cu 0.4793(2) 0.46840(19) 0.87285(15)
Cu2A Cu 0.2424(2) 0.53689(19) 0.75098(16)
Cu2A_2 Cu 1.2424(2) 0.53689(19) -0.24902(16)
Cu3_2 Cu 1.0043(2) 0.61591(18) -0.37161(15)
Cu3A Cu 0.9957(2) 0.38409(18) 0.37161(15)
Si1A Si 0.2538(4) 1.0130(3) 0.7529(3)
W1A W 0.41392(6) 1.09338(5) 0.61248(4)
W2A W 0.28505(6) 0.91931(5) 0.56974(4)
W3A W 0.49240(6) 0.85682(5) 0.68005(4)
W4A W 0.39785(6) 1.18456(5) 0.80702(5)
W5A W 0.16419(6) 1.26266(5) 0.68777(5)
W6A W 0.03415(6) 1.09395(5) 0.63795(5)
W7A W 0.11014(6) 0.83498(5) 0.71362(4)
W8A W 0.32154(6) 0.76311(5) 0.82140(4)
W9A W 0.46637(6) 0.94920(5) 0.87507(5)
W10A W 0.00987(6) 1.17670(5) 0.81560(5)
W11A W 0.09597(6) 0.91654(5) 0.89087(4)
W12A W 0.24015(6) 1.10774(5) 0.93716(5)
C1_2 C 1.3446(16) 0.6276(14) -0.7759(12)
H1_2 H 1.3377 0.6810 -0.8099
C2_2 C 1.2814(16) 0.6401(12) -0.7140(11)
H2_2 H 1.2315 0.7010 -0.7059
C3_2 C 1.2908(15) 0.5611(12) -0.6616(11)
C4_2 C 1.3600(15) 0.4753(13) -0.6786(11)
H3_2 H 1.3649 0.4205 -0.6461
C5_2 C 1.4255(18) 0.4630(14) -0.7424(12)
H4_2 H 1.4743 0.4018 -0.7519
C6_2 C -0.3303(17) 0.4637(15) 1.0069(12)
H5_2 H -0.3268 0.3998 1.0271
C7_2 C -0.2674(15) 0.4734(12) 0.9438(11)
H6_2 H -0.2185 0.4169 0.9248
C8_2 C -0.2766(14) 0.5655(11) 0.9094(10)
C9_2 C -0.3483(19) 0.6488(15) 0.9433(14)
H7_2 H -0.3551 0.7132 0.9231
C10_2 C -0.410(2) 0.6348(17) 1.0080(13)
H8_2 H -0.4604 0.6890 1.0286
C11A C 0.383(2) 0.4353(15) 0.6384(14)
H9A H 0.3715 0.3776 0.6620
C12A C 0.4522(18) 0.4227(14) 0.5743(15)
H10A H 0.4876 0.3581 0.5591
C13A C 0.4674(13) 0.5050(11) 0.5341(10)
C14A C 0.4113(18) 0.5963(13) 0.5618(11)
H11A H 0.4146 0.6550 0.5356
C15A C 0.3508(15) 0.6036(13) 0.6265(11)
H12A H 0.3188 0.6680 0.6438
C16A C 1.093(2) 0.6088(14) -0.1302(12)
H13A H 1.0910 0.6729 -0.1497
C17A C 1.0271(16) 0.5981(13) -0.0669(11)
H14A H 0.9788 0.6551 -0.0482
C18A C 1.0320(14) 0.5080(11) -0.0328(10)
C19A C 1.0962(19) 0.4232(12) -0.0670(11)
H15A H 1.0981 0.3586 -0.0486
C20A C 1.1595(17) 0.4389(14) -0.1318(11)
H16A H 1.2043 0.3823 -0.1539
C21_2 C 1.1294(17) 0.5105(13) -0.4890(13)
H17_2 H 1.1150 0.4549 -0.4638
C22_2 C 1.1902(18) 0.4926(14) -0.5569(12)
H18_2 H 1.2090 0.4286 -0.5776
C23_2 C 1.2214(15) 0.5730(13) -0.5919(12)
C24_2 C 1.1815(17) 0.6667(13) -0.5571(13)
H19_2 H 1.1982 0.7231 -0.5796
C25_2 C 1.1195(16) 0.6809(13) -0.4917(11)
H20_2 H 1.0975 0.7448 -0.4709
C26_2 C -0.1595(19) 0.6789(15) 0.7437(13)
H21_2 H -0.1694 0.7417 0.7203
C27_2 C -0.2198(16) 0.6689(13) 0.8054(11)
H22_2 H -0.2705 0.7241 0.8244
C28_2 C -0.2055(15) 0.5773(12) 0.8390(11)
C29_2 C -0.1363(19) 0.4981(13) 0.8117(11)
H23_2 H -0.1274 0.4350 0.8345
C30_2 C -0.0778(17) 0.5113(12) 0.7488(12)
H24_2 H -0.0302 0.4552 0.7283
N1_2 N 1.4173(14) 0.5415(12) -0.7907(10)
N2_2 N -0.3955(15) 0.5438(10) 1.0390(9)
N2_3 N 1.6045(15) 0.5438(10) -0.9610(9)
N3A N 0.3340(15) 0.5244(11) 0.6673(10)
N4A N 1.1584(13) 0.5288(11) -0.1623(9)
N4A_2 N 0.1584(13) 0.5288(11) 0.8377(9)
N5_2 N 1.0908(14) 0.6012(11) -0.4581(9)
N6_2 N -0.0858(13) 0.6007(11) 0.7154(9)
O1A O 0.4985(10) 1.0759(8) 0.8512(8)
O2A O 0.4615(12) 1.2840(9) 0.8097(10)
O3A O 0.3199(10) 1.2017(8) 0.9019(7)
O4A O 0.1205(9) 1.1748(7) 0.8812(7)
O5A O 0.0163(10) 1.0436(8) 0.8503(7)
O6A O 0.0147(12) 0.8947(9) 0.9630(9)
O7A O -0.0978(11) 1.2454(9) 0.8637(8)
O8A O 0.0411(11) 0.8534(8) 0.8092(7)
O9A O 0.2107(11) 0.7975(8) 0.8975(7)
O10A O 0.2198(10) 0.7294(7) 0.7591(7)
O11_2 O 1.6162(12) 0.3570(8) -0.8518(8)
O11A O 0.3838(12) 0.6430(8) 0.8518(8)
O12A O 0.0351(10) 0.9665(8) 0.6843(7)
O13A O 0.2115(11) 0.8439(8) 0.6353(8)
O14A O 0.4110(9) 0.7788(7) 0.7358(7)
O15A O 0.5117(9) 0.9106(7) 0.7733(7)
O16A O 0.2687(10) 1.2513(8) 0.7599(7)
O17A O 0.4450(10) 1.1328(8) 0.7108(8)
O18A O 0.6100(10) 0.7705(9) 0.6665(8)
O19A O 0.5270(10) 0.9696(8) 0.6296(7)
O20A O 0.4183(11) 0.8331(8) 0.5953(7)
O21A O 0.3572(11) 1.0212(8) 0.5406(7)
O22A O 0.2788(11) 1.1887(9) 0.6249(7)
O23A O 0.0690(10) 1.2196(8) 0.6215(8)
O24A O -0.0601(11) 1.1023(10) 0.5713(9)
O25A O 0.3917(10) 0.8457(8) 0.8729(7)
O26A O 0.4818(12) 1.1590(8) 0.5579(9)
O27A O 0.1576(11) 1.0251(8) 0.5821(8)
O28A O 0.1775(11) 0.9935(7) 0.9349(7)
O29A O 0.5765(13) 0.8896(11) 0.9217(10)
O30A O 0.2728(12) 0.8729(9) 0.4848(8)
O31A O 0.2109(9) 0.9150(8) 0.7818(7)
O32A O 0.1536(9) 1.1036(7) 0.7322(7)
O33A O 0.3171(9) 1.0493(7) 0.8195(6)
O34A O 0.3298(9) 0.9817(7) 0.6808(7)
O35A O -0.0521(10) 1.1535(9) 0.7244(8)
O36A O 0.1539(12) 1.3839(8) 0.6574(9)
O37A O 0.2024(10) 1.1526(8) 1.0242(7)
O38A O 0.3754(11) 1.0129(8) 0.9526(7)
O39_2 O 1.0379(12) 0.7602(8) -0.3258(9)
O39A O 0.9621(12) 0.2398(8) 0.3258(9)
O40A O 0.0538(11) 1.2839(9) 0.7633(8)
loop_
_geom_bond_atom_site_label_1
_geom_bond_atom_site_label_2
_geom_bond_site_symmetry_1
_geom_bond_site_symmetry_2
Cu1 N1 1_555 1_555
Cu2 N3 1_555 1_555
Cu3 N5 1_555 1_555
Si1 O31 1_555 1_555
W1 O17 1_555 1_555
W2 O13 1_555 1_555
W3 O14 1_555 1_555
W4 O1 1_555 1_555
W5 O16 1_555 1_555
W6 O12 1_555 1_555
W7 O8 1_555 1_555
W8 O9 1_555 1_555
W9 O1 1_555 1_555
W10 O4 1_555 1_555
W11 O5 1_555 1_555
W12 O3 1_555 1_555
C1 H1 1_555 1_555
C2 C1 1_555 1_555
H2 C2 1_555 1_555
C3 C2 1_555 1_555
C4 C3 1_555 1_555
H3 C4 1_555 1_555
C5 C4 1_555 1_555
H4 C5 1_555 1_555
C6 H5 1_555 1_555
C7 C6 1_555 1_555
H6 C7 1_555 1_555
C8 C7 1_555 1_555
C9 C8 1_555 1_555
H7 C9 1_555 1_555
C10 C9 1_555 1_555
H8 C10 1_555 1_555
C11 H9 1_555 1_555
C12 C11 1_555 1_555
H10 C12 1_555 1_555
C13 C12 1_555 1_555
C14 C13 1_555 1_555
H11 C14 1_555 1_555
C15 C14 1_555 1_555
H12 C15 1_555 1_555
C16 H13 1_555 1_555
C17 C16 1_555 1_555
H14 C17 1_555 1_555
C18 C17 1_555 1_555
C19 C18 1_555 1_555
H15 C19 1_555 1_555
C20 C19 1_555 1_555
H16 C20 1_555 1_555
C21 H17 1_555 1_555
C22 C21 1_555 1_555
H18 C22 1_555 1_555
C23 C3 1_555 1_555
C24 C23 1_555 1_555
H19 C24 1_555 1_555
C25 C24 1_555 1_555
H20 C25 1_555 1_555
C26 H21 1_555 1_555
C27 C26 1_555 1_555
H22 C27 1_555 1_555
C28 C8 1_555 1_555
C29 C28 1_555 1_555
H23 C29 1_555 1_555
C30 C29 1_555 1_555
H24 C30 1_555 1_555
N1 C1 1_555 1_555
N2 Cu1 1_555 1_555
N3 C11 1_555 1_555
N4 Cu2 1_555 1_555
N5 C21 1_555 1_555
N6 C26 1_555 1_555
O2 W4 1_555 1_555
O3 W4 1_555 1_555
O4 W12 1_555 1_555
O5 W10 1_555 1_555
O6 W11 1_555 1_555
O7 W10 1_555 1_555
O8 W11 1_555 1_555
O9 W11 1_555 1_555
O10 Cu2 1_555 1_555
O11 Cu1 1_555 1_555
O12 W7 1_555 1_555
O13 W7 1_555 1_555
O14 W8 1_555 1_555
O15 W3 1_555 1_555
O16 W4 1_555 1_555
O17 W4 1_555 1_555
O18 W3 1_555 1_555
O19 W1 1_555 1_555
O20 W2 1_555 1_555
O21 W1 1_555 1_555
O22 W1 1_555 1_555
O23 W5 1_555 1_555
O24 W6 1_555 1_555
O25 W8 1_555 1_555
O26 W1 1_555 1_555
O27 W2 1_555 1_555
O28 W11 1_555 1_555
O29 W9 1_555 1_555
O30 W2 1_555 1_555
O31 W7 1_555 1_555
O32 Si1 1_555 1_555
O33 Si1 1_555 1_555
O34 Si1 1_555 1_555
O35 W6 1_555 1_555
O36 W5 1_555 1_555
O37 W12 1_555 1_555
O38 W9 1_555 1_555
O39 Cu3 1_555 1_555
O40 W5 1_555 1_555
Cu1_2 N1_2 1_555 1_555
Cu1_3 N2_2 1_555 1_555
Cu1A O11A 1_555 1_555
Cu2A N3A 1_555 1_555
Cu2A_2 N4A 1_555 1_555
Cu3_2 N6 1_555 1_555
Cu3A O39A 1_555 1_555
Si1A O31A 1_555 1_555
W1A O17A 1_555 1_555
W2A O13A 1_555 1_555
W3A O14A 1_555 1_555
W4A O1A 1_555 1_555
W5A O16A 1_555 1_555
W6A O12A 1_555 1_555
W7A O39 1_555 1_555
W8A O9A 1_555 1_555
W9A O1A 1_555 1_555
W10A O4A 1_555 1_555
W11A O5A 1_555 1_555
W12A O3A 1_555 1_555
C1_2 H1_2 1_555 1_555
C2_2 C1_2 1_555 1_555
H2_2 C2_2 1_555 1_555
C3_2 C2_2 1_555 1_555
C4_2 C3_2 1_555 1_555
H3_2 C4_2 1_555 1_555
C5_2 C4_2 1_555 1_555
H4_2 C5_2 1_555 1_555
C6_2 H5_2 1_555 1_555
C7_2 C6_2 1_555 1_555
H6_2 C7_2 1_555 1_555
C8_2 C7_2 1_555 1_555
C9_2 C8_2 1_555 1_555
H7_2 C9_2 1_555 1_555
C10_2 C9_2 1_555 1_555
H8_2 C10_2 1_555 1_555
C11A H9A 1_555 1_555
C12A C11A 1_555 1_555
H10A C12A 1_555 1_555
C13A C13 1_555 1_555
C14A C13A 1_555 1_555
H11A C14A 1_555 1_555
C15A C14A 1_555 1_555
H12A C15A 1_555 1_555
C16A H13A 1_555 1_555
C17A C16A 1_555 1_555
H14A C17A 1_555 1_555
C18A C18 1_555 1_555
C19A C18A 1_555 1_555
H15A C19A 1_555 1_555
C20A C19A 1_555 1_555
H16A C20A 1_555 1_555
C21_2 H17_2 1_555 1_555
C22_2 C21_2 1_555 1_555
H18_2 C22_2 1_555 1_555
C23_2 C3_2 1_555 1_555
C24_2 C23_2 1_555 1_555
H19_2 C24_2 1_555 1_555
C25_2 C24_2 1_555 1_555
H20_2 C25_2 1_555 1_555
C26_2 H21_2 1_555 1_555
C27_2 C26_2 1_555 1_555
H22_2 C27_2 1_555 1_555
C28_2 C8_2 1_555 1_555
C29_2 C28_2 1_555 1_555
H23_2 C29_2 1_555 1_555
C30_2 C29_2 1_555 1_555
H24_2 C30_2 1_555 1_555
N1_2 C1_2 1_555 1_555
N2_2 C6_2 1_555 1_555
N2_3 Cu1_2 1_555 1_555
N3A C11A 1_555 1_555
N4A C16A 1_555 1_555
N4A_2 Cu2A 1_555 1_555
N5_2 Cu3_2 1_555 1_555
N6_2 Cu3 1_555 1_555
O2A W4A 1_555 1_555
O3A W4A 1_555 1_555
O4A W12A 1_555 1_555
O5A W10A 1_555 1_555
O6A W11A 1_555 1_555
O7A W10A 1_555 1_555
O8A W7A 1_555 1_555
O9A W11A 1_555 1_555
O10A Cu2A 1_555 1_555
O11_2 Cu1_2 1_555 1_555
O11A W8A 1_555 1_555
O12A W7A 1_555 1_555
O13A W7A 1_555 1_555
O14A W8A 1_555 1_555
O15A W3A 1_555 1_555
O16A W4A 1_555 1_555
O17A W4A 1_555 1_555
O18A W3A 1_555 1_555
O19A W1A 1_555 1_555
O20A W2A 1_555 1_555
O21A W1A 1_555 1_555
O22A W1A 1_555 1_555
O23A W5A 1_555 1_555
O24A W6A 1_555 1_555
O25A W8A 1_555 1_555
O26A W1A 1_555 1_555
O27A W2A 1_555 1_555
O28A W11A 1_555 1_555
O29A W9A 1_555 1_555
O30A W2A 1_555 1_555
O31A W7A 1_555 1_555
O32A Si1A 1_555 1_555
O33A Si1A 1_555 1_555
O34A Si1A 1_555 1_555
O35A W6A 1_555 1_555
O36A W5A 1_555 1_555
O37A W12A 1_555 1_555
O38A W9A 1_555 1_555
O39_2 Cu3_2 1_555 1_555
O39A W7 1_555 1_555
O40A W5A 1_555 1_555
W1 O34 1_555 1_555
W2 O21 1_555 1_555
W2 O34 1_555 1_555
W3 O19 1_555 1_555
W3 O20 1_555 1_555
W3 O34 1_555 1_555
W4 O33 1_555 1_555
W5 O22 1_555 1_555
W5 O32 1_555 1_555
W6 O23 1_555 1_555
W6 O27 1_555 1_555
W6 O32 1_555 1_555
W7 O10 1_555 1_555
W8 O10 1_555 1_555
W8 O11 1_555 1_555
W8 O31 1_555 1_555
W9 O15 1_555 1_555
W9 O25 1_555 1_555
W9 O33 1_555 1_555
W10 O32 1_555 1_555
W10 O35 1_555 1_555
W10 O40 1_555 1_555
W11 O31 1_555 1_555
W12 O28 1_555 1_555
W12 O33 1_555 1_555
W12 O38 1_555 1_555
C5 N1 1_555 1_555
C6 N2 1_555 1_555
C10 N2 1_555 1_555
C15 N3 1_555 1_555
C16 N4 1_555 1_555
C20 N4 1_555 1_555
C22 C23 1_555 1_555
C25 N5 1_555 1_555
C27 C28 1_555 1_555
C30 N6 1_555 1_555
W1A O34A 1_555 1_555
W2A O21A 1_555 1_555
W2A O34A 1_555 1_555
W3A O19A 1_555 1_555
W3A O20A 1_555 1_555
W3A O34A 1_555 1_555
W4A O33A 1_555 1_555
W5A O22A 1_555 1_555
W5A O32A 1_555 1_555
W6A O23A 1_555 1_555
W6A O27A 1_555 1_555
W6A O32A 1_555 1_555
W7A O10A 1_555 1_555
W8A O10A 1_555 1_555
W8A O31A 1_555 1_555
W9A O15A 1_555 1_555
W9A O25A 1_555 1_555
W9A O33A 1_555 1_555
W10A O32A 1_555 1_555
W10A O35A 1_555 1_555
W10A O40A 1_555 1_555
W11A O8A 1_555 1_555
W11A O31A 1_555 1_555
W12A O28A 1_555 1_555
W12A O33A 1_555 1_555
W12A O38A 1_555 1_555
C5_2 N1_2 1_555 1_555
C10_2 N2_2 1_555 1_555
C12A C13A 1_555 1_555
C15A N3A 1_555 1_555
C17A C18A 1_555 1_555
C20A N4A 1_555 1_555
C21_2 N5_2 1_555 1_555
C22_2 C23_2 1_555 1_555
C25_2 N5_2 1_555 1_555
C26_2 N6_2 1_555 1_555
C27_2 C28_2 1_555 1_555
C30_2 N6_2 1_555 1_555

#END
