
#######################################################################
#
#                 Cambridge Crystallographic Data Centre
#                                CCDC 
#
#######################################################################
#
# If this CIF has been generated from an entry in the Cambridge 
# Structural Database, then it will include bibliographic, chemical, 
# crystal, experimental, refinement or atomic coordinate data resulting 
# from the CCDC's data processing and validation procedures.
#
#######################################################################

data_POYQUQ
_symmetry_cell_setting           monoclinic
_symmetry_space_group_name_H-M   'P 21/n'
_symmetry_Int_Tables_number      14
_space_group_name_Hall           '-P 2yn'
loop_
_symmetry_equiv_pos_site_id
_symmetry_equiv_pos_as_xyz
1 x,y,z
2 1/2-x,1/2+y,1/2-z
3 -x,-y,-z
4 1/2+x,1/2-y,1/2+z
_cell_length_a                   14.4722(8)
_cell_length_b                   7.4648(4)
_cell_length_c                   19.7867(11)
_cell_angle_alpha                90
_cell_angle_beta                 90.865(3)
_cell_angle_gamma                90
_cell_volume                     2137.35
loop_
_atom_site_label
_atom_site_type_symbol
_atom_site_fract_x
_atom_site_fract_y
_atom_site_fract_z
Mn1 Mn 0.75526(3) 0.13707(6) 0.24861(2)
C1 C 0.6005(2) 0.3849(4) 0.18374(16)
C2 C 0.6856(2) 0.3841(4) 0.37257(15)
C3 C 0.5102(2) 0.3749(4) 0.14425(17)
C4 C 0.6477(2) 0.3699(4) 0.44347(17)
C5 C 0.4235(2) 0.4124(5) 0.1695(2)
C6 C 0.9481(3) 0.3911(4) 0.31816(19)
H1 H 0.9043 0.3723 0.3514
C7 C 0.6873(3) 0.4471(5) 0.50102(17)
C8 C 0.5141(3) 0.3329(5) 0.07626(18)
H2 H 0.5706 0.3039 0.0574
C9 C 0.9822(3) 0.4353(5) 0.2052(2)
H3 H 0.9623 0.4457 0.1604
C10 C 1.0401(3) 0.4044(6) 0.3359(3)
H4 H 1.0588 0.3935 0.3809
C11 C 0.5640(3) 0.2820(5) 0.4515(2)
H5 H 0.5352 0.2295 0.4141
C12 C 0.4357(4) 0.3334(7) 0.0360(2)
H6 H 0.4399 0.3046 -0.0096
C13 C 0.6464(4) 0.4381(7) 0.5639(2)
H7 H 0.6750 0.4904 0.6014
C14 C 0.3519(3) 0.3757(6) 0.0622(3)
H8 H 0.2997 0.3783 0.0343
C15 C 0.3448(3) 0.4140(7) 0.1290(3)
H9 H 0.2876 0.4410 0.1473
C16 C 0.5648(4) 0.3529(6) 0.5700(2)
H10 H 0.5364 0.3489 0.6118
C17 C 0.5226(3) 0.2708(6) 0.5143(3)
H11 H 0.4672 0.2091 0.5192
C18 C 1.1037(3) 0.4336(7) 0.2870(3)
H12 H 1.1663 0.4415 0.2980
C19 C 1.0743(3) 0.4508(7) 0.2218(3)
H13 H 1.1169 0.4733 0.1881
O1 O 0.83140(13) 0.3931(3) 0.23750(11)
O2 O 0.70229(17) 0.2370(3) 0.34489(11)
O3 O 0.69253(16) 0.5370(3) 0.34758(11)
O4 O 0.64065(16) 0.2408(3) 0.19404(13)
O5 O 0.62982(17) 0.5374(3) 0.19682(13)
O6 O 0.8306(2) 0.4839(4) 0.45262(15)
O7 O 0.8016(3) 0.6369(5) 0.54245(18)
O8 O 0.4761(3) 0.4124(6) 0.28020(17)
O9 O 0.3392(3) 0.5023(8) 0.2617(2)
N1 N 0.92151(17) 0.4050(3) 0.25406(13)
N2 N 0.7791(3) 0.5291(5) 0.49811(16)
N3 N 0.4131(2) 0.4438(6) 0.2422(2)
Mn1A Mn 0.74474(3) 0.63707(6) 0.25139(2)
O1A O 0.66860(13) -0.1069(3) 0.26250(11)
O3A O 0.80747(16) 0.0370(3) 0.15242(11)
O5A O 0.87018(17) 0.0374(3) 0.30318(13)
O10 O 0.6929(3) 0.8939(6) 0.42606(19)
H14 H 0.701(4) 0.990(9) 0.403(3)
H15 H 0.702(4) 0.811(9) 0.405(3)
O11 O 0.1499(5) 0.5894(10) 0.0700(4)
loop_
_geom_bond_atom_site_label_1
_geom_bond_atom_site_label_2
_geom_bond_site_symmetry_1
_geom_bond_site_symmetry_2
Mn1 O1 1_555 1_555
C1 C3 1_555 1_555
C2 C4 1_555 1_555
C3 C5 1_555 1_555
C4 C7 1_555 1_555
C5 C15 1_555 1_555
C6 H1 1_555 1_555
C7 C13 1_555 1_555
C8 C3 1_555 1_555
H2 C8 1_555 1_555
C9 H3 1_555 1_555
C10 C6 1_555 1_555
H4 C10 1_555 1_555
C11 C4 1_555 1_555
H5 C11 1_555 1_555
C12 C8 1_555 1_555
H6 C12 1_555 1_555
C13 H7 1_555 1_555
C14 C12 1_555 1_555
H8 C14 1_555 1_555
C15 C14 1_555 1_555
H9 C15 1_555 1_555
C16 C13 1_555 1_555
H10 C16 1_555 1_555
C17 C11 1_555 1_555
H11 C17 1_555 1_555
C18 C10 1_555 1_555
H12 C18 1_555 1_555
C19 C9 1_555 1_555
H13 C19 1_555 1_555
O1 N1 1_555 1_555
O2 Mn1 1_555 1_555
O3 C2 1_555 1_555
O4 Mn1 1_555 1_555
O5 C1 1_555 1_555
O6 N2 1_555 1_555
O7 N2 1_555 1_555
O8 N3 1_555 1_555
O9 N3 1_555 1_555
N1 C6 1_555 1_555
N2 C7 1_555 1_555
N3 C5 1_555 1_555
O10 H14 1_555 1_555
H15 O10 1_555 1_555
Mn1A O1 1_555 1_555
O1A Mn1 1_555 1_555
O3A Mn1 1_555 1_555
O5A Mn1 1_555 1_555
C1 O4 1_555 1_555
C2 O2 1_555 1_555
C9 N1 1_555 1_555
C16 C17 1_555 1_555
C18 C19 1_555 1_555
O3 Mn1A 1_555 1_555
O5 Mn1A 1_555 1_555

#END
