
#######################################################################
#
#                 Cambridge Crystallographic Data Centre
#                                CCDC 
#
#######################################################################
#
# If this CIF has been generated from an entry in the Cambridge 
# Structural Database, then it will include bibliographic, chemical, 
# crystal, experimental, refinement or atomic coordinate data resulting 
# from the CCDC's data processing and validation procedures.
#
#######################################################################

data_POYQOK
_symmetry_cell_setting           orthorhombic
_symmetry_space_group_name_H-M   'C m c m'
_symmetry_Int_Tables_number      63
_space_group_name_Hall           '-C 2n 2'
loop_
_symmetry_equiv_pos_site_id
_symmetry_equiv_pos_as_xyz
1 x,y,z
2 -x,-y,1/2+z
3 -x,y,1/2-z
4 x,-y,-z
5 1/2+x,1/2+y,z
6 1/2-x,1/2-y,1/2+z
7 1/2-x,1/2+y,1/2-z
8 1/2+x,1/2-y,-z
9 -x,-y,-z
10 x,y,1/2-z
11 x,-y,1/2+z
12 -x,y,z
13 1/2-x,1/2-y,-z
14 1/2+x,1/2+y,1/2-z
15 1/2+x,1/2-y,1/2+z
16 1/2-x,1/2+y,z
_cell_length_a                   27.0768(6)
_cell_length_b                   9.6242(2)
_cell_length_c                   7.47400(10)
_cell_angle_alpha                90
_cell_angle_beta                 90
_cell_angle_gamma                90
_cell_volume                     1947.67
loop_
_atom_site_label
_atom_site_type_symbol
_atom_site_fract_x
_atom_site_fract_y
_atom_site_fract_z
Mn1 Mn 0.5000 1.0000 0.0000
Cl1 Cl 0.227066(17) 1.44908(7) 0.2500
O1 O 0.44263(4) 1.13245(11) 0.10089(13)
C1 C 0.42365(6) 1.15634(17) 0.2500
C2 C 0.37332(6) 1.22535(17) 0.2500
C3 C 0.28325(7) 1.36066(19) 0.2500
C4 C 0.35007(5) 1.25754(16) 0.09043(17)
H1 H 0.3649 1.2330 -0.0173
C5 C 0.30491(5) 1.32596(16) 0.08896(19)
H2 H 0.2895 1.3480 -0.0186
O2 O 0.5000 0.87851(16) 0.2500
N1 N 0.5000 0.7395(2) 0.2500
C6 C 0.54288(9) 0.6731(2) 0.2500
H3 H 0.5724 0.7225 0.2500
C7 C 0.5000 0.4564(4) 0.2500
H4 H 0.5000 0.3597 0.2500
C8 C 0.54322(13) 0.5297(3) 0.2500
H5 H 0.5732 0.4824 0.2500
Mn1A Mn 0.5000 1.0000 0.5000
Mn1A_2 Mn 0.5000 1.0000 -0.5000
Cl1C Cl 0.227066(17) 0.55092(7) -0.2500
O1I O 0.44263(4) 1.13245(11) 0.39911(13)
O1C O 0.44263(4) 0.86755(11) -0.10089(13)
O1J O 0.44263(4) 0.86755(11) -0.39911(13)
O1H O 0.55737(4) 0.86755(11) -0.10089(13)
O1K O 0.55737(4) 1.13245(11) 0.10089(13)
C1C C 0.42365(6) 0.84366(17) -0.2500
C2C C 0.37332(6) 0.77465(17) -0.2500
C3C C 0.28325(7) 0.63934(19) -0.2500
C4I C 0.35007(5) 1.25754(16) 0.40957(17)
C4C C 0.35007(5) 0.74246(16) -0.09043(17)
C4J C 0.35007(5) 0.74246(16) -0.40957(17)
H1I H 0.3649 1.2330 0.5173
H1C H 0.3649 0.7670 0.0173
H1J H 0.3649 0.7670 -0.5173
C5I C 0.30491(5) 1.32596(16) 0.41104(19)
C5C C 0.30491(5) 0.67404(16) -0.08896(19)
C5J C 0.30491(5) 0.67404(16) -0.41104(19)
H2I H 0.2895 1.3480 0.5186
H2C H 0.2895 0.6520 0.0186
H2J H 0.2895 0.6520 -0.5186
O2A O 0.5000 1.12149(16) -0.2500
C6B C 0.45712(9) 0.6731(2) 0.2500
H3B H 0.4276 0.7225 0.2500
C8B C 0.45678(13) 0.5297(3) 0.2500
H5B H 0.4268 0.4824 0.2500
loop_
_geom_bond_atom_site_label_1
_geom_bond_atom_site_label_2
_geom_bond_site_symmetry_1
_geom_bond_site_symmetry_2
Mn1 O1 1_555 1_555
Cl1 C3 1_555 1_555
O1 C1 1_555 1_555
C1 C2 1_555 1_555
C2 C4 1_555 1_555
C3 C5 1_555 1_555
C4 H1 1_555 1_555
C5 C4 1_555 1_555
H2 C5 1_555 1_555
O2 Mn1 1_555 1_555
N1 O2 1_555 1_555
C6 N1 1_555 1_555
H3 C6 1_555 1_555
C7 H4 1_555 1_555
C8 C6 1_555 1_555
H5 C8 1_555 1_555
Mn1A O2 1_555 1_555
Mn1A_2 O1J 1_555 1_555
Cl1C C3C 1_555 1_555
O1I C1 1_555 1_555
O1C Mn1 1_555 1_555
O1J C1C 1_555 1_555
O1H Mn1 1_555 1_555
O1K Mn1 1_555 1_555
C1C O1C 1_555 1_555
C2C C1C 1_555 1_555
C3C C5C 1_555 1_555
C4I C2 1_555 1_555
C4C C2C 1_555 1_555
C4J C2C 1_555 1_555
H1I C4I 1_555 1_555
H1C C4C 1_555 1_555
H1J C4J 1_555 1_555
C5I C3 1_555 1_555
C5C C4C 1_555 1_555
C5J C3C 1_555 1_555
H2I C5I 1_555 1_555
H2C C5C 1_555 1_555
H2J C5J 1_555 1_555
O2A Mn1 1_555 1_555
C6B N1 1_555 1_555
H3B C6B 1_555 1_555
C8B C7 1_555 1_555
H5B C8B 1_555 1_555
C7 C8 1_555 1_555
Mn1A O1I 1_555 1_555
Mn1A_2 O2A 1_555 1_555
C4I C5I 1_555 1_555
C4J C5J 1_555 1_555
C6B C8B 1_555 1_555

#END
