
#######################################################################
#
#                 Cambridge Crystallographic Data Centre
#                                CCDC 
#
#######################################################################
#
# If this CIF has been generated from an entry in the Cambridge 
# Structural Database, then it will include bibliographic, chemical, 
# crystal, experimental, refinement or atomic coordinate data resulting 
# from the CCDC's data processing and validation procedures.
#
#######################################################################

data_POYRUR
_symmetry_cell_setting           orthorhombic
_symmetry_space_group_name_H-M   'P 21 21 21'
_symmetry_Int_Tables_number      19
_space_group_name_Hall           'P 2ac 2ab'
loop_
_symmetry_equiv_pos_site_id
_symmetry_equiv_pos_as_xyz
1 x,y,z
2 1/2-x,-y,1/2+z
3 1/2+x,1/2-y,-z
4 -x,1/2+y,1/2-z
_cell_length_a                   5.9314(4)
_cell_length_b                   10.3966(6)
_cell_length_c                   13.4315(8)
_cell_angle_alpha                90
_cell_angle_beta                 90
_cell_angle_gamma                90
_cell_volume                     828.272
loop_
_atom_site_label
_atom_site_type_symbol
_atom_site_fract_x
_atom_site_fract_y
_atom_site_fract_z
Zn1 Zn 0.58439(6) 0.16913(4) 0.05035(3)
O1 O 0.4544(4) 0.0053(2) 0.11155(17)
O2 O 0.2057(4) 0.1710(2) 0.01805(17)
O3 O -0.1002(4) 0.1287(3) 0.11101(19)
O4 O 0.4707(4) 0.2676(2) 0.17802(17)
O5 O 0.3872(4) 0.2799(2) 0.33824(17)
O6 O 0.0957(6) -0.1287(3) -0.00146(19)
O7 O 0.1275(5) -0.3056(3) 0.0902(2)
O8 O 0.6511(5) 0.0683(3) -0.0800(2)
C1 C 0.2392(5) 0.0249(3) 0.1569(2)
C2 C 0.1014(5) 0.1137(3) 0.0886(2)
C3 C 0.2714(6) 0.0908(3) 0.2583(2)
H1 H 0.1244 0.1007 0.2890
H2 H 0.3591 0.0339 0.3004
C4 C 0.3863(5) 0.2215(3) 0.2567(2)
C5 C 0.1173(5) -0.1039(3) 0.1732(2)
H3 H 0.1893 -0.1487 0.2280
H4 H -0.0372 -0.0864 0.1926
C6 C 0.1152(6) -0.1911(3) 0.0838(3)
H5 H 0.652(6) -0.0126(10) -0.080(3)
H6 H 0.504(8) -0.068(2) 0.127(3)
H7 H 0.774(4) 0.099(3) -0.101(3)
H8 H 0.104(8) -0.182(3) -0.049(2)
Zn1B Zn 0.08439(6) 0.33087(4) -0.05035(3)
Zn1_2 Zn -0.41561(6) 0.16913(4) 0.05035(3)
O2B O 0.7057(4) 0.3290(2) -0.01805(17)
O3_2 O 0.8998(4) 0.1287(3) 0.11101(19)
loop_
_geom_bond_atom_site_label_1
_geom_bond_atom_site_label_2
_geom_bond_site_symmetry_1
_geom_bond_site_symmetry_2
Zn1 O1 1_555 1_555
O1 C1 1_555 1_555
O2 Zn1 1_555 1_555
O3 C2 1_555 1_555
O4 Zn1 1_555 1_555
O5 C4 1_555 1_555
O6 C6 1_555 1_555
O7 C6 1_555 1_555
O8 Zn1 1_555 1_555
C1 C2 1_555 1_555
C2 O2 1_555 1_555
C3 C1 1_555 1_555
H1 C3 1_555 1_555
H2 C3 1_555 1_555
C4 O4 1_555 1_555
C5 C1 1_555 1_555
H3 C5 1_555 1_555
H4 C5 1_555 1_555
C6 C5 1_555 1_555
H5 O8 1_555 1_555
H6 O1 1_555 1_555
H7 O8 1_555 1_555
H8 O6 1_555 1_555
Zn1B O2 1_555 1_555
Zn1_2 O3 1_555 1_555
O2B Zn1 1_555 1_555
O3_2 Zn1 1_555 1_555
C3 C4 1_555 1_555

#END
