
#######################################################################
#
#                 Cambridge Crystallographic Data Centre
#                                CCDC 
#
#######################################################################
#
# If this CIF has been generated from an entry in the Cambridge 
# Structural Database, then it will include bibliographic, chemical, 
# crystal, experimental, refinement or atomic coordinate data resulting 
# from the CCDC's data processing and validation procedures.
#
#######################################################################

data_POYTUU01
_symmetry_cell_setting           monoclinic
_symmetry_space_group_name_H-M   'P 21/c'
_symmetry_Int_Tables_number      14
_space_group_name_Hall           '-P 2ybc'
loop_
_symmetry_equiv_pos_site_id
_symmetry_equiv_pos_as_xyz
1 x,y,z
2 -x,1/2+y,1/2-z
3 -x,-y,-z
4 x,1/2-y,1/2+z
_cell_length_a                   8.3518(3)
_cell_length_b                   16.2001(7)
_cell_length_c                   11.0557(6)
_cell_angle_alpha                90
_cell_angle_beta                 98.357(2)
_cell_angle_gamma                90
_cell_volume                     1479.95
loop_
_atom_site_label
_atom_site_type_symbol
_atom_site_fract_x
_atom_site_fract_y
_atom_site_fract_z
Fe1 Fe 0.0000 0.5000 1.0000
N1 N -0.1624(2) 0.52047(12) 0.84956(17)
N2 N 0.1245(2) 0.45651(11) 0.87454(16)
N3 N 0.2685(2) 0.41693(12) 0.86977(17)
N4 N 0.1265(2) 0.42199(13) 0.67795(17)
N5 N 0.7700(2) 0.21648(13) 0.58031(19)
N6 N 0.9140(2) 0.11292(12) 0.52275(17)
C1 C -0.3069(3) 0.55744(17) 0.8432(2)
H1 H -0.3429 0.5730 0.9157
C2 C -0.4046(3) 0.57354(19) 0.7343(3)
H2 H -0.5041 0.5994 0.7336
C3 C -0.3526(3) 0.55080(19) 0.6261(3)
H3 H -0.4165 0.5613 0.5516
C4 C -0.2052(4) 0.51244(17) 0.6299(2)
H4 H -0.1682 0.4966 0.5580
C5 C -0.1128(3) 0.49771(14) 0.7419(2)
C6 C 0.0458(3) 0.45855(15) 0.7603(2)
C7 C 0.2634(3) 0.39761(14) 0.7510(2)
C8 C 0.3950(3) 0.35101(15) 0.7064(2)
C9 C 0.3646(3) 0.30327(17) 0.6014(2)
H5 H 0.2604 0.3015 0.5583
C10 C 0.4856(3) 0.25844(17) 0.5597(2)
H6 H 0.4633 0.2267 0.4892
C11 C 0.6410(3) 0.26120(15) 0.6237(2)
C12 C 0.6741(3) 0.30864(16) 0.7285(2)
H7 H 0.7786 0.3106 0.7712
C13 C 0.5515(3) 0.35298(16) 0.7693(2)
H8 H 0.5739 0.3847 0.8399
C14 C 0.7779(3) 0.13396(15) 0.5626(2)
H9 H 0.6977 0.0968 0.5766
C15 C 0.9962(3) 0.18579(17) 0.5131(3)
H10 H 1.0959 0.1905 0.4857
C16 C 0.9096(3) 0.24964(17) 0.5496(3)
H11 H 0.9392 0.3050 0.5532
N1B N 0.1624(2) 0.47953(12) 1.15044(17)
N2B N -0.1245(2) 0.54349(11) 1.12546(16)
N3B N -0.2685(2) 0.58307(12) 1.13023(17)
N4B N -0.1265(2) 0.57801(13) 1.32205(17)
N5B N -0.7700(2) 0.78352(13) 1.41969(19)
N6B N -0.9140(2) 0.88708(12) 1.47725(17)
C1B C 0.3069(3) 0.44256(17) 1.1568(2)
H1B H 0.3429 0.4270 1.0843
C2B C 0.4046(3) 0.42646(19) 1.2657(3)
H2B H 0.5041 0.4006 1.2664
C3B C 0.3526(3) 0.44920(19) 1.3739(3)
H3B H 0.4165 0.4387 1.4484
C4B C 0.2052(4) 0.48756(17) 1.3701(2)
H4B H 0.1682 0.5034 1.4420
C5B C 0.1128(3) 0.50229(14) 1.2581(2)
C6B C -0.0458(3) 0.54145(15) 1.2397(2)
C7B C -0.2634(3) 0.60239(14) 1.2490(2)
C8B C -0.3950(3) 0.64899(15) 1.2936(2)
C9B C -0.3646(3) 0.69673(17) 1.3986(2)
H5B H -0.2604 0.6985 1.4417
C10B C -0.4856(3) 0.74156(17) 1.4403(2)
H6B H -0.4633 0.7733 1.5108
C11B C -0.6410(3) 0.73880(15) 1.3763(2)
C12B C -0.6741(3) 0.69136(16) 1.2715(2)
H7B H -0.7786 0.6894 1.2288
C13B C -0.5515(3) 0.64702(16) 1.2307(2)
H8B H -0.5739 0.6153 1.1601
C14B C -0.7779(3) 0.86604(15) 1.4374(2)
H9B H -0.6977 0.9032 1.4234
C15B C -0.9962(3) 0.81421(17) 1.4869(3)
H10B H -1.0959 0.8095 1.5143
C16B C -0.9096(3) 0.75036(17) 1.4504(3)
H11B H -0.9392 0.6950 1.4468
Fe1A Fe -1.0000 1.0000 1.5000
Fe1A_2 Fe 1.0000 0.0000 0.5000
N6A N 0.0860(2) 0.61292(12) 0.97725(17)
N6C N -0.0860(2) 0.38708(12) 1.02275(17)
loop_
_geom_bond_atom_site_label_1
_geom_bond_atom_site_label_2
_geom_bond_site_symmetry_1
_geom_bond_site_symmetry_2
Fe1 N1 1_555 1_555
N1 C1 1_555 1_555
N2 Fe1 1_555 1_555
N3 N2 1_555 1_555
N4 C6 1_555 1_555
N5 C11 1_555 1_555
N6 C14 1_555 1_555
C1 H1 1_555 1_555
C2 C1 1_555 1_555
H2 C2 1_555 1_555
C3 C2 1_555 1_555
H3 C3 1_555 1_555
C4 C3 1_555 1_555
H4 C4 1_555 1_555
C5 N1 1_555 1_555
C6 N2 1_555 1_555
C7 N3 1_555 1_555
C8 C7 1_555 1_555
C9 C8 1_555 1_555
H5 C9 1_555 1_555
C10 C9 1_555 1_555
H6 C10 1_555 1_555
C11 C10 1_555 1_555
C12 C11 1_555 1_555
H7 C12 1_555 1_555
C13 C8 1_555 1_555
H8 C13 1_555 1_555
C14 N5 1_555 1_555
H9 C14 1_555 1_555
C15 N6 1_555 1_555
H10 C15 1_555 1_555
C16 N5 1_555 1_555
H11 C16 1_555 1_555
N1B Fe1 1_555 1_555
N2B Fe1 1_555 1_555
N3B N2B 1_555 1_555
N4B C6B 1_555 1_555
N5B C11B 1_555 1_555
N6B C14B 1_555 1_555
C1B N1B 1_555 1_555
H1B C1B 1_555 1_555
C2B C1B 1_555 1_555
H2B C2B 1_555 1_555
C3B C2B 1_555 1_555
H3B C3B 1_555 1_555
C4B C3B 1_555 1_555
H4B C4B 1_555 1_555
C5B N1B 1_555 1_555
C6B N2B 1_555 1_555
C7B N3B 1_555 1_555
C8B C7B 1_555 1_555
C9B C8B 1_555 1_555
H5B C9B 1_555 1_555
C10B C9B 1_555 1_555
H6B C10B 1_555 1_555
C11B C10B 1_555 1_555
C12B C11B 1_555 1_555
H7B C12B 1_555 1_555
C13B C8B 1_555 1_555
H8B C13B 1_555 1_555
C14B N5B 1_555 1_555
H9B C14B 1_555 1_555
C15B N6B 1_555 1_555
H10B C15B 1_555 1_555
C16B N5B 1_555 1_555
H11B C16B 1_555 1_555
Fe1A N6B 1_555 1_555
Fe1A_2 N6 1_555 1_555
N6A Fe1 1_555 1_555
N6C Fe1 1_555 1_555
N4 C7 1_555 1_555
C4 C5 1_555 1_555
C5 C6 1_555 1_555
C12 C13 1_555 1_555
C15 C16 1_555 1_555
N4B C7B 1_555 1_555
C4B C5B 1_555 1_555
C5B C6B 1_555 1_555
C12B C13B 1_555 1_555
C15B C16B 1_555 1_555

#END
