
#######################################################################
#
#                 Cambridge Crystallographic Data Centre
#                                CCDC 
#
#######################################################################
#
# If this CIF has been generated from an entry in the Cambridge 
# Structural Database, then it will include bibliographic, chemical, 
# crystal, experimental, refinement or atomic coordinate data resulting 
# from the CCDC's data processing and validation procedures.
#
#######################################################################

data_POYTUU
_symmetry_cell_setting           monoclinic
_symmetry_space_group_name_H-M   'P 21/c'
_symmetry_Int_Tables_number      14
_space_group_name_Hall           '-P 2ybc'
loop_
_symmetry_equiv_pos_site_id
_symmetry_equiv_pos_as_xyz
1 x,y,z
2 -x,1/2+y,1/2-z
3 -x,-y,-z
4 x,1/2-y,1/2+z
_cell_length_a                   8.394(4)
_cell_length_b                   16.315(7)
_cell_length_c                   11.137(6)
_cell_angle_alpha                90
_cell_angle_beta                 98.164(15)
_cell_angle_gamma                90
_cell_volume                     1509.73
loop_
_atom_site_label
_atom_site_type_symbol
_atom_site_fract_x
_atom_site_fract_y
_atom_site_fract_z
Fe1 Fe 0.0000 0.5000 1.0000
N1 N -0.1595(5) 0.5197(2) 0.8484(3)
N2 N 0.1253(5) 0.45666(18) 0.8752(3)
N3 N 0.2690(5) 0.4169(2) 0.8696(3)
N4 N 0.1293(5) 0.4211(2) 0.6792(3)
N5 N 0.7704(5) 0.2168(2) 0.5804(4)
N6 N 0.9127(5) 0.1135(2) 0.5226(3)
C1 C -0.3052(7) 0.5569(3) 0.8407(5)
H1 H -0.3420 0.5722 0.9123
C2 C -0.4017(7) 0.5733(3) 0.7322(5)
H2 H -0.5007 0.5991 0.7311
C3 C -0.3477(8) 0.5504(3) 0.6251(5)
H3 H -0.4100 0.5608 0.5508
C4 C -0.1985(8) 0.5114(3) 0.6299(5)
H4 H -0.1612 0.4951 0.5588
C5 C -0.1072(7) 0.4972(2) 0.7413(4)
C6 C 0.0483(6) 0.4580(2) 0.7607(4)
C7 C 0.2644(6) 0.3973(2) 0.7510(4)
C8 C 0.3960(6) 0.3508(2) 0.7070(4)
C9 C 0.3659(7) 0.3016(3) 0.6033(5)
H5 H 0.2620 0.2986 0.5614
C10 C 0.4883(7) 0.2572(3) 0.5618(5)
H6 H 0.4667 0.2251 0.4924
C11 C 0.6403(6) 0.2611(3) 0.6237(4)
C12 C 0.6737(6) 0.3083(3) 0.7284(4)
H7 H 0.7773 0.3100 0.7709
C13 C 0.5508(7) 0.3527(3) 0.7686(4)
H8 H 0.5731 0.3843 0.8384
C14 C 0.7771(7) 0.1346(3) 0.5637(4)
H9 H 0.6976 0.0979 0.5789
C15 C 0.9963(6) 0.1856(3) 0.5113(5)
H10 H 1.0953 0.1899 0.4834
C16 C 0.9090(7) 0.2496(3) 0.5481(5)
H11 H 0.9380 0.3046 0.5507
N1B N 0.1595(5) 0.4803(2) 1.1516(3)
N2B N -0.1253(5) 0.54334(18) 1.1248(3)
N3B N -0.2690(5) 0.5831(2) 1.1304(3)
N4B N -0.1293(5) 0.5789(2) 1.3208(3)
N5B N -0.7704(5) 0.7832(2) 1.4196(4)
N6B N -0.9127(5) 0.8865(2) 1.4774(3)
C1B C 0.3052(7) 0.4431(3) 1.1593(5)
H1B H 0.3420 0.4278 1.0877
C2B C 0.4017(7) 0.4267(3) 1.2678(5)
H2B H 0.5007 0.4009 1.2689
C3B C 0.3477(8) 0.4496(3) 1.3749(5)
H3B H 0.4100 0.4392 1.4492
C4B C 0.1985(8) 0.4886(3) 1.3701(5)
H4B H 0.1612 0.5049 1.4412
C5B C 0.1072(7) 0.5028(2) 1.2587(4)
C6B C -0.0483(6) 0.5420(2) 1.2393(4)
C7B C -0.2644(6) 0.6027(2) 1.2490(4)
C8B C -0.3960(6) 0.6492(2) 1.2930(4)
C9B C -0.3659(7) 0.6984(3) 1.3967(5)
H5B H -0.2620 0.7014 1.4386
C10B C -0.4883(7) 0.7428(3) 1.4382(5)
H6B H -0.4667 0.7749 1.5076
C11B C -0.6403(6) 0.7389(3) 1.3763(4)
C12B C -0.6737(6) 0.6917(3) 1.2716(4)
H7B H -0.7773 0.6900 1.2291
C13B C -0.5508(7) 0.6473(3) 1.2314(4)
H8B H -0.5731 0.6157 1.1616
C14B C -0.7771(7) 0.8654(3) 1.4363(4)
H9B H -0.6976 0.9021 1.4211
C15B C -0.9963(6) 0.8144(3) 1.4887(5)
H10B H -1.0953 0.8101 1.5166
C16B C -0.9090(7) 0.7504(3) 1.4519(5)
H11B H -0.9380 0.6954 1.4493
Fe1A Fe -1.0000 1.0000 1.5000
Fe1A_2 Fe 1.0000 0.0000 0.5000
N6A N 0.0873(5) 0.6135(2) 0.9774(3)
N6C N -0.0873(5) 0.3865(2) 1.0226(3)
loop_
_geom_bond_atom_site_label_1
_geom_bond_atom_site_label_2
_geom_bond_site_symmetry_1
_geom_bond_site_symmetry_2
Fe1 N1 1_555 1_555
N1 C1 1_555 1_555
N2 Fe1 1_555 1_555
N3 N2 1_555 1_555
N4 C6 1_555 1_555
N5 C11 1_555 1_555
N6 C14 1_555 1_555
C1 H1 1_555 1_555
C2 C1 1_555 1_555
H2 C2 1_555 1_555
C3 C2 1_555 1_555
H3 C3 1_555 1_555
C4 C3 1_555 1_555
H4 C4 1_555 1_555
C5 N1 1_555 1_555
C6 N2 1_555 1_555
C7 N3 1_555 1_555
C8 C7 1_555 1_555
C9 C8 1_555 1_555
H5 C9 1_555 1_555
C10 C9 1_555 1_555
H6 C10 1_555 1_555
C11 C10 1_555 1_555
C12 C11 1_555 1_555
H7 C12 1_555 1_555
C13 C8 1_555 1_555
H8 C13 1_555 1_555
C14 N5 1_555 1_555
H9 C14 1_555 1_555
C15 N6 1_555 1_555
H10 C15 1_555 1_555
C16 N5 1_555 1_555
H11 C16 1_555 1_555
N1B Fe1 1_555 1_555
N2B Fe1 1_555 1_555
N3B N2B 1_555 1_555
N4B C6B 1_555 1_555
N5B C11B 1_555 1_555
N6B C14B 1_555 1_555
C1B N1B 1_555 1_555
H1B C1B 1_555 1_555
C2B C1B 1_555 1_555
H2B C2B 1_555 1_555
C3B C2B 1_555 1_555
H3B C3B 1_555 1_555
C4B C3B 1_555 1_555
H4B C4B 1_555 1_555
C5B N1B 1_555 1_555
C6B N2B 1_555 1_555
C7B N3B 1_555 1_555
C8B C7B 1_555 1_555
C9B C8B 1_555 1_555
H5B C9B 1_555 1_555
C10B C9B 1_555 1_555
H6B C10B 1_555 1_555
C11B C10B 1_555 1_555
C12B C11B 1_555 1_555
H7B C12B 1_555 1_555
C13B C8B 1_555 1_555
H8B C13B 1_555 1_555
C14B N5B 1_555 1_555
H9B C14B 1_555 1_555
C15B N6B 1_555 1_555
H10B C15B 1_555 1_555
C16B N5B 1_555 1_555
H11B C16B 1_555 1_555
Fe1A N6B 1_555 1_555
Fe1A_2 N6 1_555 1_555
N6A Fe1 1_555 1_555
N6C Fe1 1_555 1_555
N4 C7 1_555 1_555
C4 C5 1_555 1_555
C5 C6 1_555 1_555
C12 C13 1_555 1_555
C15 C16 1_555 1_555
N4B C7B 1_555 1_555
C4B C5B 1_555 1_555
C5B C6B 1_555 1_555
C12B C13B 1_555 1_555
C15B C16B 1_555 1_555

#END
