
#######################################################################
#
#                 Cambridge Crystallographic Data Centre
#                                CCDC 
#
#######################################################################
#
# If this CIF has been generated from an entry in the Cambridge 
# Structural Database, then it will include bibliographic, chemical, 
# crystal, experimental, refinement or atomic coordinate data resulting 
# from the CCDC's data processing and validation procedures.
#
#######################################################################

data_POYVII
_symmetry_cell_setting           monoclinic
_symmetry_space_group_name_H-M   'P 21/c'
_symmetry_Int_Tables_number      14
_space_group_name_Hall           '-P 2ybc'
loop_
_symmetry_equiv_pos_site_id
_symmetry_equiv_pos_as_xyz
1 x,y,z
2 -x,1/2+y,1/2-z
3 -x,-y,-z
4 x,1/2-y,1/2+z
_cell_length_a                   6.5523(7)
_cell_length_b                   7.6702(7)
_cell_length_c                   20.5815(6)
_cell_angle_alpha                90
_cell_angle_beta                 93.605(5)
_cell_angle_gamma                90
_cell_volume                     1032.33
loop_
_atom_site_label
_atom_site_type_symbol
_atom_site_fract_x
_atom_site_fract_y
_atom_site_fract_z
Mn1 Mn -0.80753(7) 0.26787(5) 0.38768(2)
O1 O -1.1934(3) 0.4564(3) 0.59097(9)
O2 O -1.2635(4) 0.2487(3) 0.5167(1)
O3 O -1.1372(3) 0.2443(3) 0.3752(1)
O4 O -1.5259(3) 0.7451(3) 0.6269(1)
O5 O -1.7928(5) -0.0075(3) 0.3898(1)
O6 O -1.8111(4) 0.3007(4) 0.2838(1)
N1 N -1.2398(4) 0.7074(3) 0.5013(1)
N2 N -1.6905(4) 0.3724(3) 0.6302(1)
C1 C -1.2561(4) 0.5404(4) 0.4810(1)
C2 C -1.7104(4) 0.4988(4) 0.5850(1)
C3 C -1.7080(6) 0.2091(4) 0.6090(2)
C4 C -1.7433(5) 0.1685(4) 0.5435(2)
C5 C -1.2361(4) 0.4024(4) 0.5337(1)
C6 C -1.3005(5) 0.3173(3) 0.3872(1)
O3B O -0.8628(3) 0.7557(3) 0.6248(1)
Mn1B Mn -1.19247(7) 0.73213(5) 0.61232(2)
C6B C -1.6995(5) 0.6827(3) 0.6128(1)
O3B_2 O -1.8628(3) 0.7557(3) 0.6248(1)
Mn1B_2 Mn -2.19247(7) 0.73213(5) 0.61232(2)
O3_2 O -2.1372(3) 0.2443(3) 0.3752(1)
Mn1_2 Mn -1.80753(7) 0.26787(5) 0.38768(2)
O1B O -1.8066(3) 0.5436(3) 0.40903(9)
C5B C -1.7639(4) 0.5976(4) 0.4663(1)
O2B O -1.7365(4) 0.7513(3) 0.4833(1)
C1B C -1.7439(4) 0.4596(4) 0.5190(1)
N1B N -1.7602(4) 0.2926(3) 0.4987(1)
O4B O -1.4741(3) 0.2549(3) 0.3731(1)
O5B O -1.2072(5) 1.0075(3) 0.6102(1)
O6B O -1.1889(4) 0.6993(4) 0.7162(1)
C4B C -1.2567(5) 0.8315(4) 0.4565(2)
C3B C -1.2920(6) 0.7909(4) 0.3910(2)
N2B N -1.3095(4) 0.6276(3) 0.3698(1)
C2B C -1.2896(4) 0.5012(4) 0.4150(1)
O7 O 0.4585(5) 0.5508(4) 0.2428(1)
O8 O -0.1419(5) 0.2439(4) 0.2033(1)
loop_
_geom_bond_atom_site_label_1
_geom_bond_atom_site_label_2
_geom_bond_site_symmetry_1
_geom_bond_site_symmetry_2
Mn1 O3 1_555 1_555
O1 C5 1_555 1_555
O2 C5 1_555 1_555
O3 C6 1_555 1_555
O4 Mn1B 1_555 1_555
O5 Mn1_2 1_555 1_555
O6 Mn1_2 1_555 1_555
N1 C1 1_555 1_555
N2 C2 1_555 1_555
C1 C5 1_555 1_555
C2 C6B 1_555 1_555
C3 N2 1_555 1_555
C4 C3 1_555 1_555
C6 O4B 1_555 1_555
O3B Mn1B 1_555 1_555
Mn1B O1 1_555 1_555
C6B O4 1_555 1_555
O3B_2 C6B 1_555 1_555
Mn1B_2 O3B_2 1_555 1_555
O3_2 Mn1_2 1_555 1_555
Mn1_2 O1B 1_555 1_555
O1B C5B 1_555 1_555
C5B O2B 1_555 1_555
C1B C2 1_555 1_555
N1B C4 1_555 1_555
O4B Mn1_2 1_555 1_555
O5B Mn1B 1_555 1_555
O6B Mn1B 1_555 1_555
C4B N1 1_555 1_555
C3B C4B 1_555 1_555
N2B C3B 1_555 1_555
C2B C1 1_555 1_555
N1 Mn1B 1_555 1_555
C6 C2B 1_555 1_555
Mn1_2 N1B 1_555 1_555
C5B C1B 1_555 1_555
C1B N1B 1_555 1_555
N2B C2B 1_555 1_555

#END
