
#######################################################################
#
#                 Cambridge Crystallographic Data Centre
#                                CCDC 
#
#######################################################################
#
# If this CIF has been generated from an entry in the Cambridge 
# Structural Database, then it will include bibliographic, chemical, 
# crystal, experimental, refinement or atomic coordinate data resulting 
# from the CCDC's data processing and validation procedures.
#
#######################################################################

data_POYVII01
_symmetry_cell_setting           monoclinic
_symmetry_space_group_name_H-M   'P 21/c'
_symmetry_Int_Tables_number      14
_space_group_name_Hall           '-P 2ybc'
loop_
_symmetry_equiv_pos_site_id
_symmetry_equiv_pos_as_xyz
1 x,y,z
2 x,1/2-y,1/2+z
3 -x,-y,-z
4 -x,1/2+y,1/2-z
_cell_length_a                   6.5547(5)
_cell_length_b                   7.6711(4)
_cell_length_c                   20.5869(9)
_cell_angle_alpha                90
_cell_angle_beta                 93.620(5)
_cell_angle_gamma                90
_cell_volume                     1033.08
loop_
_atom_site_label
_atom_site_type_symbol
_atom_site_fract_x
_atom_site_fract_y
_atom_site_fract_z
Mn1 Mn 0.19267(5) 0.23205(4) -0.112320(15)
O1 O 0.1938(2) -0.0435(2) -0.09075(7)
O2 O 0.2634(3) -0.2510(2) -0.01672(8)
O3 O -0.1367(2) 0.2544(2) -0.12468(8)
O4 O -0.4745(2) 0.2440(2) -0.12677(8)
O5 O 0.2081(3) 0.5076(2) -0.11030(8)
H1 H 0.2223(3) 0.5887(2) -0.07903(8)
H2 H 0.1826(3) 0.5713(2) -0.13913(8)
O6 O 0.1892(3) 0.1988(2) -0.21621(7)
H3 H 0.0765(3) 0.2100(2) -0.23900(7)
H4 H 0.2780(3) 0.1160(2) -0.22890(7)
N1 N 0.2396(3) 0.2067(2) -0.00128(8)
N2 N 0.3096(3) 0.1271(3) 0.13000(8)
C1 C 0.2567(3) 0.3316(3) 0.04371(11)
H9 H 0.2539(3) 0.4519(3) 0.03087(11)
C2 C 0.2922(4) 0.2905(3) 0.10870(11)
H10 H 0.3198(4) 0.3849(3) 0.14056(11)
C3 C 0.2890(3) 0.0007(3) 0.08475(10)
C4 C -0.3001(3) 0.1828(3) -0.11258(9)
C5 C 0.2567(3) 0.0402(3) 0.01905(10)
C6 C 0.2367(3) -0.0980(3) -0.03362(9)
O4_2 O 0.5255(2) 0.2440(2) -0.12677(8)
Mn1_2 Mn -0.80733(5) 0.23205(4) -0.112320(15)
C3B C -0.2890(3) -0.0007(3) -0.08475(10)
N2B N -0.3096(3) -0.1271(3) -0.13000(8)
C2B C -0.2922(4) -0.2905(3) -0.10870(11)
C1B C -0.2567(3) -0.3316(3) -0.04371(11)
N1B N -0.2396(3) -0.2067(2) 0.00128(8)
Mn1B Mn -0.19267(5) -0.23205(4) 0.112320(15)
O1B O -0.1938(2) 0.0435(2) 0.09075(7)
C6B C -0.2367(3) 0.0980(3) 0.03362(9)
O2B O -0.2634(3) 0.2510(2) 0.01672(8)
C5B C -0.2567(3) -0.0402(3) -0.01905(10)
O3B O 0.1367(2) -0.2544(2) 0.12468(8)
C4B C 0.3001(3) -0.1828(3) 0.11258(9)
O4B O 0.4745(2) -0.2440(2) 0.12677(8)
Mn1B_2 Mn 0.80733(5) -0.23205(4) 0.112320(15)
O4B_2 O -0.5255(2) -0.2440(2) 0.12677(8)
O5B O -0.2081(3) -0.5076(2) 0.11030(8)
H1B H -0.2223(3) -0.5887(2) 0.07903(8)
H2B H -0.1826(3) -0.5713(2) 0.13913(8)
O6B O -0.1892(3) -0.1988(2) 0.21621(7)
H3B H -0.0765(3) -0.2100(2) 0.23900(7)
H4B H -0.2780(3) -0.1160(2) 0.22890(7)
H9B H -0.2539(3) -0.4519(3) -0.03087(11)
H10B H -0.3198(4) -0.3849(3) -0.14056(11)
O7 O 0.1419(3) -0.2442(2) -0.20345(8)
H5 H 0.1359(3) -0.1747(2) -0.16933(8)
H6 H 0.2457(3) -0.2099(2) -0.21933(8)
O8 O 0.4583(3) -0.0508(3) -0.25742(8)
H7 H 0.4989(3) -0.1082(3) -0.29117(8)
H8 H 0.5656(3) -0.0577(3) -0.23097(8)
loop_
_geom_bond_atom_site_label_1
_geom_bond_atom_site_label_2
_geom_bond_site_symmetry_1
_geom_bond_site_symmetry_2
Mn1 O1 1_555 1_555
O1 C6 1_555 1_555
O2 C6 1_555 1_555
O3 Mn1 1_555 1_555
O4 C4 1_555 1_555
O5 Mn1 1_555 1_555
H1 O5 1_555 1_555
H2 O5 1_555 1_555
O6 Mn1 1_555 1_555
H3 O6 1_555 1_555
H4 O6 1_555 1_555
O7 H5 1_555 1_555
H6 O7 1_555 1_555
O8 H7 1_555 1_555
H8 O8 1_555 1_555
N1 Mn1 1_555 1_555
N2 C2 1_555 1_555
C1 N1 1_555 1_555
H9 C1 1_555 1_555
C2 C1 1_555 1_555
H10 C2 1_555 1_555
C3 N2 1_555 1_555
C4 O3 1_555 1_555
C5 N1 1_555 1_555
C6 C5 1_555 1_555
O4_2 Mn1 1_555 1_555
Mn1_2 O4 1_555 1_555
C3B C4 1_555 1_555
N2B C3B 1_555 1_555
C2B N2B 1_555 1_555
C1B C2B 1_555 1_555
N1B C1B 1_555 1_555
Mn1B N1B 1_555 1_555
O1B Mn1B 1_555 1_555
C6B O1B 1_555 1_555
O2B C6B 1_555 1_555
C5B C3B 1_555 1_555
O3B Mn1B 1_555 1_555
C4B C3 1_555 1_555
O4B C4B 1_555 1_555
Mn1B_2 O4B 1_555 1_555
O4B_2 Mn1B 1_555 1_555
O5B Mn1B 1_555 1_555
H1B O5B 1_555 1_555
H2B O5B 1_555 1_555
O6B Mn1B 1_555 1_555
H3B O6B 1_555 1_555
H4B O6B 1_555 1_555
H9B C1B 1_555 1_555
H10B C2B 1_555 1_555
C3 C5 1_555 1_555
N1B C5B 1_555 1_555
C6B C5B 1_555 1_555
O3B C4B 1_555 1_555

#END
