
#######################################################################
#
#                 Cambridge Crystallographic Data Centre
#                                CCDC 
#
#######################################################################
#
# If this CIF has been generated from an entry in the Cambridge 
# Structural Database, then it will include bibliographic, chemical, 
# crystal, experimental, refinement or atomic coordinate data resulting 
# from the CCDC's data processing and validation procedures.
#
#######################################################################

data_POYVOQ01
_symmetry_cell_setting           monoclinic
_symmetry_space_group_name_H-M   'P 21/c'
_symmetry_Int_Tables_number      14
_space_group_name_Hall           '-P 2ybc'
loop_
_symmetry_equiv_pos_site_id
_symmetry_equiv_pos_as_xyz
1 x,y,z
2 -x,1/2+y,1/2-z
3 -x,-y,-z
4 x,1/2-y,1/2+z
_cell_length_a                   8.834(3)
_cell_length_b                   8.763(3)
_cell_length_c                   19.635(5)
_cell_angle_alpha                90
_cell_angle_beta                 98.124(6)
_cell_angle_gamma                90
_cell_volume                     1504.74
loop_
_atom_site_label
_atom_site_type_symbol
_atom_site_fract_x
_atom_site_fract_y
_atom_site_fract_z
Fe1 Fe -1.0000 -0.5000 0.5000
N1 N -0.8736(3) -0.6853(4) 0.48165(13)
N2 N -1.1643(3) -0.6328(3) 0.45065(13)
N3 N -1.3162(3) -0.6196(4) 0.42401(13)
N4 N -1.2210(3) -0.8359(4) 0.38217(14)
N5 N -2.0312(3) -0.9051(4) 0.09135(13)
C1 C -0.7242(4) -0.7100(5) 0.50369(19)
H1 H -0.6671 -0.6335 0.5281
C2 C -0.6540(5) -0.8443(6) 0.4912(2)
H2 H -0.5510 -0.8585 0.5077
C3 C -0.7358(5) -0.9590(6) 0.4541(3)
H3 H -0.6885 -1.0503 0.4452
C4 C -0.8877(4) -0.9357(5) 0.4305(2)
H4 H -0.9454 -1.0107 0.4053
C5 C -0.9529(4) -0.7991(4) 0.44493(17)
C6 C -1.1139(4) -0.7614(4) 0.42478(17)
C7 C -1.3433(3) -0.7429(4) 0.38356(16)
C8 C -1.4921(4) -0.7696(4) 0.34067(16)
C9 C -1.6100(4) -0.6643(5) 0.33985(18)
H5 H -1.5958 -0.5786 0.3680
C10 C -1.7483(4) -0.6847(5) 0.29788(18)
H6 H -1.8259 -0.6133 0.2988
C11 C -1.7730(4) -0.8100(5) 0.25439(17)
C12 C -1.6558(4) -0.9170(5) 0.25623(18)
H7 H -1.6705 -1.0031 0.2284
C13 C -1.5177(4) -0.8977(5) 0.29873(18)
H8 H -1.4415 -0.9711 0.2992
C14 C -1.9170(4) -0.8253(4) 0.20541(17)
C15 C -2.0601(4) -0.7796(5) 0.21978(19)
H9 H -2.0713 -0.7390 0.2625
C16 C -2.1862(4) -0.7956(5) 0.16901(19)
H10 H -2.2824 -0.7642 0.1773
C17 C -2.1674(4) -0.8580(4) 0.10688(18)
H11 H -2.2529 -0.8684 0.0737
C18 C -1.9107(4) -0.8850(4) 0.14072(16)
H12 H -1.8151 -0.9137 0.1304
N1B N -1.1264(3) -0.3147(4) 0.51835(13)
N2B N -0.8357(3) -0.3672(3) 0.54935(13)
N3B N -0.6838(3) -0.3804(4) 0.57599(13)
N4B N -0.7790(3) -0.1641(4) 0.61783(14)
N5B N 0.0312(3) -0.0949(4) 0.90865(13)
C1B C -1.2758(4) -0.2900(5) 0.49631(19)
H1B H -1.3329 -0.3665 0.4719
C2B C -1.3460(5) -0.1557(6) 0.5088(2)
H2B H -1.4490 -0.1415 0.4923
C3B C -1.2642(5) -0.0410(6) 0.5459(3)
H3B H -1.3115 0.0503 0.5548
C4B C -1.1123(4) -0.0643(5) 0.5695(2)
H4B H -1.0546 0.0107 0.5947
C5B C -1.0471(4) -0.2009(4) 0.55507(17)
C6B C -0.8861(4) -0.2386(4) 0.57522(17)
C7B C -0.6567(3) -0.2571(4) 0.61644(16)
C8B C -0.5079(4) -0.2304(4) 0.65933(16)
C9B C -0.3900(4) -0.3357(5) 0.66015(18)
H5B H -0.4042 -0.4214 0.6320
C10B C -0.2517(4) -0.3153(5) 0.70212(18)
H6B H -0.1741 -0.3867 0.7012
C11B C -0.2270(4) -0.1900(5) 0.74561(17)
C12B C -0.3442(4) -0.0830(5) 0.74377(18)
H7B H -0.3295 0.0031 0.7716
C13B C -0.4823(4) -0.1023(5) 0.70127(18)
H8B H -0.5585 -0.0289 0.7008
C14B C -0.0830(4) -0.1747(4) 0.79459(17)
C15B C 0.0601(4) -0.2204(5) 0.78022(19)
H9B H 0.0713 -0.2610 0.7375
C16B C 0.1862(4) -0.2044(5) 0.83099(19)
H10B H 0.2824 -0.2358 0.8227
C17B C 0.1674(4) -0.1420(4) 0.89312(18)
H11B H 0.2529 -0.1316 0.9263
C18B C -0.0893(4) -0.1150(4) 0.85928(16)
H12B H -0.1849 -0.0863 0.8696
Fe1A Fe -2.0000 -1.0000 0.0000
Fe1A_2 Fe 0.0000 0.0000 1.0000
N5A N -0.9688(3) -0.4051(4) 0.40865(13)
N5C N -1.0312(3) -0.5949(4) 0.59135(13)
loop_
_geom_bond_atom_site_label_1
_geom_bond_atom_site_label_2
_geom_bond_site_symmetry_1
_geom_bond_site_symmetry_2
Fe1 N1 1_555 1_555
N1 C1 1_555 1_555
N2 Fe1 1_555 1_555
N3 N2 1_555 1_555
N4 C6 1_555 1_555
N5 C17 1_555 1_555
C1 H1 1_555 1_555
C2 C1 1_555 1_555
H2 C2 1_555 1_555
C3 C2 1_555 1_555
H3 C3 1_555 1_555
C4 C3 1_555 1_555
H4 C4 1_555 1_555
C5 N1 1_555 1_555
C6 N2 1_555 1_555
C7 N3 1_555 1_555
C8 C7 1_555 1_555
C9 C8 1_555 1_555
H5 C9 1_555 1_555
C10 C9 1_555 1_555
H6 C10 1_555 1_555
C11 C10 1_555 1_555
C12 C11 1_555 1_555
H7 C12 1_555 1_555
C13 C8 1_555 1_555
H8 C13 1_555 1_555
C14 C11 1_555 1_555
C15 C14 1_555 1_555
H9 C15 1_555 1_555
C16 C15 1_555 1_555
H10 C16 1_555 1_555
C17 C16 1_555 1_555
H11 C17 1_555 1_555
C18 N5 1_555 1_555
H12 C18 1_555 1_555
N1B Fe1 1_555 1_555
N2B Fe1 1_555 1_555
N3B N2B 1_555 1_555
N4B C6B 1_555 1_555
N5B C17B 1_555 1_555
C1B N1B 1_555 1_555
H1B C1B 1_555 1_555
C2B C1B 1_555 1_555
H2B C2B 1_555 1_555
C3B C2B 1_555 1_555
H3B C3B 1_555 1_555
C4B C3B 1_555 1_555
H4B C4B 1_555 1_555
C5B N1B 1_555 1_555
C6B N2B 1_555 1_555
C7B N3B 1_555 1_555
C8B C7B 1_555 1_555
C9B C8B 1_555 1_555
H5B C9B 1_555 1_555
C10B C9B 1_555 1_555
H6B C10B 1_555 1_555
C11B C10B 1_555 1_555
C12B C11B 1_555 1_555
H7B C12B 1_555 1_555
C13B C8B 1_555 1_555
H8B C13B 1_555 1_555
C14B C11B 1_555 1_555
C15B C14B 1_555 1_555
H9B C15B 1_555 1_555
C16B C15B 1_555 1_555
H10B C16B 1_555 1_555
C17B C16B 1_555 1_555
H11B C17B 1_555 1_555
C18B N5B 1_555 1_555
H12B C18B 1_555 1_555
Fe1A N5 1_555 1_555
Fe1A_2 N5B 1_555 1_555
N5A Fe1 1_555 1_555
N5C Fe1 1_555 1_555
N4 C7 1_555 1_555
C4 C5 1_555 1_555
C5 C6 1_555 1_555
C12 C13 1_555 1_555
C14 C18 1_555 1_555
N4B C7B 1_555 1_555
C4B C5B 1_555 1_555
C5B C6B 1_555 1_555
C12B C13B 1_555 1_555
C14B C18B 1_555 1_555

#END
