
#######################################################################
#
#                 Cambridge Crystallographic Data Centre
#                                CCDC 
#
#######################################################################
#
# If this CIF has been generated from an entry in the Cambridge 
# Structural Database, then it will include bibliographic, chemical, 
# crystal, experimental, refinement or atomic coordinate data resulting 
# from the CCDC's data processing and validation procedures.
#
#######################################################################

data_POYVOQ
_symmetry_cell_setting           monoclinic
_symmetry_space_group_name_H-M   'P 21/c'
_symmetry_Int_Tables_number      14
_space_group_name_Hall           '-P 2ybc'
loop_
_symmetry_equiv_pos_site_id
_symmetry_equiv_pos_as_xyz
1 x,y,z
2 -x,1/2+y,1/2-z
3 -x,-y,-z
4 x,1/2-y,1/2+z
_cell_length_a                   8.8578(9)
_cell_length_b                   8.6866(8)
_cell_length_c                   19.5719(17)
_cell_angle_alpha                90
_cell_angle_beta                 98.141(3)
_cell_angle_gamma                90
_cell_volume                     1490.77
loop_
_atom_site_label
_atom_site_type_symbol
_atom_site_fract_x
_atom_site_fract_y
_atom_site_fract_z
Fe1 Fe -1.0000 -0.5000 0.5000
N1 N -0.8742(4) -0.6848(3) 0.48160(14)
N2 N -1.1649(3) -0.6332(3) 0.45097(13)
N3 N -1.3153(4) -0.6205(3) 0.42505(14)
N4 N -1.2201(4) -0.8382(3) 0.38244(15)
N5 N -2.0314(3) -0.9044(3) 0.09118(14)
C1 C -0.7251(5) -0.7103(4) 0.5038(2)
H1 H -0.6682 -0.6333 0.5284
C2 C -0.6542(6) -0.8457(5) 0.4913(3)
H2 H -0.5516 -0.8602 0.5079
C3 C -0.7367(6) -0.9608(5) 0.4537(3)
H3 H -0.6897 -1.0529 0.4446
C4 C -0.8872(5) -0.9380(5) 0.4302(2)
H4 H -0.9442 -1.0137 0.4048
C5 C -0.9537(4) -0.8002(4) 0.44485(18)
C6 C -1.1141(5) -0.7630(4) 0.42501(17)
C7 C -1.3440(4) -0.7452(4) 0.38373(17)
C8 C -1.4915(4) -0.7709(4) 0.34133(17)
C9 C -1.6096(5) -0.6653(4) 0.3412(2)
H5 H -1.5954 -0.5798 0.3700
C10 C -1.7485(5) -0.6845(4) 0.2988(2)
H6 H -1.8253 -0.6119 0.2997
C11 C -1.7735(5) -0.8118(4) 0.25499(18)
C12 C -1.6550(5) -0.9188(5) 0.2566(2)
H7 H -1.6692 -1.0052 0.2283
C13 C -1.5181(5) -0.9001(4) 0.29877(19)
H8 H -1.4424 -0.9742 0.2989
C14 C -1.9170(5) -0.8265(4) 0.20603(17)
C15 C -2.0591(5) -0.7808(4) 0.22045(19)
H9 H -2.0705 -0.7400 0.2634
C16 C -2.1838(5) -0.7972(4) 0.16958(19)
H10 H -2.2798 -0.7661 0.1782
C17 C -2.1668(4) -0.8592(4) 0.10632(18)
H11 H -2.2523 -0.8699 0.0731
C18 C -1.9099(5) -0.8853(4) 0.14030(17)
H12 H -1.8147 -0.9133 0.1296
N1B N -1.1258(4) -0.3152(3) 0.51840(14)
N2B N -0.8351(3) -0.3668(3) 0.54903(13)
N3B N -0.6847(4) -0.3795(3) 0.57495(14)
N4B N -0.7799(4) -0.1618(3) 0.61756(15)
N5B N 0.0314(3) -0.0956(3) 0.90882(14)
C1B C -1.2749(5) -0.2897(4) 0.4962(2)
H1B H -1.3318 -0.3667 0.4716
C2B C -1.3458(6) -0.1543(5) 0.5087(3)
H2B H -1.4484 -0.1398 0.4921
C3B C -1.2633(6) -0.0392(5) 0.5463(3)
H3B H -1.3103 0.0529 0.5554
C4B C -1.1128(5) -0.0620(5) 0.5698(2)
H4B H -1.0558 0.0137 0.5952
C5B C -1.0463(4) -0.1998(4) 0.55515(18)
C6B C -0.8859(5) -0.2370(4) 0.57499(17)
C7B C -0.6560(4) -0.2548(4) 0.61627(17)
C8B C -0.5085(4) -0.2291(4) 0.65867(17)
C9B C -0.3904(5) -0.3347(4) 0.6588(2)
H5B H -0.4046 -0.4202 0.6300
C10B C -0.2515(5) -0.3155(4) 0.7012(2)
H6B H -0.1747 -0.3881 0.7003
C11B C -0.2265(5) -0.1882(4) 0.74501(18)
C12B C -0.3450(5) -0.0812(5) 0.7434(2)
H7B H -0.3308 0.0052 0.7717
C13B C -0.4819(5) -0.0999(4) 0.70123(19)
H8B H -0.5576 -0.0258 0.7011
C14B C -0.0830(5) -0.1735(4) 0.79397(17)
C15B C 0.0591(5) -0.2192(4) 0.77955(19)
H9B H 0.0705 -0.2600 0.7366
C16B C 0.1838(5) -0.2028(4) 0.83042(19)
H10B H 0.2798 -0.2339 0.8218
C17B C 0.1668(4) -0.1408(4) 0.89368(18)
H11B H 0.2523 -0.1301 0.9269
C18B C -0.0901(5) -0.1147(4) 0.85970(17)
H12B H -0.1853 -0.0867 0.8704
Fe1A Fe -2.0000 -1.0000 0.0000
Fe1A_2 Fe 0.0000 0.0000 1.0000
N5A N -0.9686(3) -0.4044(3) 0.40882(14)
N5C N -1.0314(3) -0.5956(3) 0.59118(14)
loop_
_geom_bond_atom_site_label_1
_geom_bond_atom_site_label_2
_geom_bond_site_symmetry_1
_geom_bond_site_symmetry_2
Fe1 N1 1_555 1_555
N1 C1 1_555 1_555
N2 Fe1 1_555 1_555
N3 N2 1_555 1_555
N4 C6 1_555 1_555
N5 C17 1_555 1_555
C1 H1 1_555 1_555
C2 C1 1_555 1_555
H2 C2 1_555 1_555
C3 C2 1_555 1_555
H3 C3 1_555 1_555
C4 C3 1_555 1_555
H4 C4 1_555 1_555
C5 N1 1_555 1_555
C6 N2 1_555 1_555
C7 N3 1_555 1_555
C8 C7 1_555 1_555
C9 C8 1_555 1_555
H5 C9 1_555 1_555
C10 C9 1_555 1_555
H6 C10 1_555 1_555
C11 C10 1_555 1_555
C12 C11 1_555 1_555
H7 C12 1_555 1_555
C13 C8 1_555 1_555
H8 C13 1_555 1_555
C14 C11 1_555 1_555
C15 C14 1_555 1_555
H9 C15 1_555 1_555
C16 C15 1_555 1_555
H10 C16 1_555 1_555
C17 C16 1_555 1_555
H11 C17 1_555 1_555
C18 N5 1_555 1_555
H12 C18 1_555 1_555
N1B Fe1 1_555 1_555
N2B Fe1 1_555 1_555
N3B N2B 1_555 1_555
N4B C6B 1_555 1_555
N5B C17B 1_555 1_555
C1B N1B 1_555 1_555
H1B C1B 1_555 1_555
C2B C1B 1_555 1_555
H2B C2B 1_555 1_555
C3B C2B 1_555 1_555
H3B C3B 1_555 1_555
C4B C3B 1_555 1_555
H4B C4B 1_555 1_555
C5B N1B 1_555 1_555
C6B N2B 1_555 1_555
C7B N3B 1_555 1_555
C8B C7B 1_555 1_555
C9B C8B 1_555 1_555
H5B C9B 1_555 1_555
C10B C9B 1_555 1_555
H6B C10B 1_555 1_555
C11B C10B 1_555 1_555
C12B C11B 1_555 1_555
H7B C12B 1_555 1_555
C13B C8B 1_555 1_555
H8B C13B 1_555 1_555
C14B C11B 1_555 1_555
C15B C14B 1_555 1_555
H9B C15B 1_555 1_555
C16B C15B 1_555 1_555
H10B C16B 1_555 1_555
C17B C16B 1_555 1_555
H11B C17B 1_555 1_555
C18B N5B 1_555 1_555
H12B C18B 1_555 1_555
Fe1A N5 1_555 1_555
Fe1A_2 N5B 1_555 1_555
N5A Fe1 1_555 1_555
N5C Fe1 1_555 1_555
N4 C7 1_555 1_555
C4 C5 1_555 1_555
C5 C6 1_555 1_555
C12 C13 1_555 1_555
C14 C18 1_555 1_555
N4B C7B 1_555 1_555
C4B C5B 1_555 1_555
C5B C6B 1_555 1_555
C12B C13B 1_555 1_555
C14B C18B 1_555 1_555

#END
