
#######################################################################
#
#                 Cambridge Crystallographic Data Centre
#                                CCDC 
#
#######################################################################
#
# If this CIF has been generated from an entry in the Cambridge 
# Structural Database, then it will include bibliographic, chemical, 
# crystal, experimental, refinement or atomic coordinate data resulting 
# from the CCDC's data processing and validation procedures.
#
#######################################################################

data_POYXEI
_symmetry_cell_setting           monoclinic
_symmetry_space_group_name_H-M   'P 21/c'
_symmetry_Int_Tables_number      14
_space_group_name_Hall           '-P 2ybc'
loop_
_symmetry_equiv_pos_site_id
_symmetry_equiv_pos_as_xyz
1 x,y,z
2 -x,1/2+y,1/2-z
3 -x,-y,-z
4 x,1/2-y,1/2+z
_cell_length_a                   11.7839(3)
_cell_length_b                   12.0077(4)
_cell_length_c                   14.7160(4)
_cell_angle_alpha                90
_cell_angle_beta                 94.4910(10)
_cell_angle_gamma                90
_cell_volume                     2075.88
loop_
_atom_site_label
_atom_site_type_symbol
_atom_site_fract_x
_atom_site_fract_y
_atom_site_fract_z
Cu1 Cu 0.46785(3) 0.05157(2) 0.09365(2)
S1 S 0.28719(6) 0.05091(6) 0.22788(5)
O1 O 0.3689(2) 0.0895(2) 0.29712(18)
O2 O 0.31898(18) 0.08282(17) 0.13622(15)
O3 O 0.1714(2) 0.0800(2) 0.23725(19)
O4 O 0.60844(15) 0.02230(14) 0.04125(12)
N1 N 0.47861(18) 0.21407(17) 0.05700(15)
C1 C 0.2101(3) -0.2710(3) 0.2578(2)
H1 H 0.1510 -0.3114 0.2804
C2 C 0.3865(2) 0.2770(2) 0.0383(2)
H2 H 0.3153 0.2444 0.0411
C3 C 0.3915(2) 0.3876(2) 0.0152(2)
H3 H 0.3246 0.4273 0.0014
C4 C 0.4955(2) 0.44021(19) 0.01236(17)
C5 C 0.5909(2) 0.3749(2) 0.03211(19)
H4 H 0.6631 0.4059 0.0313
C6 C 0.5789(2) 0.2639(2) 0.05302(19)
H5 H 0.6444 0.2215 0.0650
N2 N 0.48494(18) -0.08970(17) 0.16566(14)
C7 C 0.3894(2) -0.1505(2) 0.19506(17)
C8 C 0.2962(2) -0.0961(2) 0.22674(17)
C9 C 0.2085(3) -0.1566(3) 0.2600(2)
H6 H 0.1482 -0.1197 0.2838
C10 C 0.2992(3) -0.3259(3) 0.2222(2)
H7 H 0.2991 -0.4032 0.2192
C11 C 0.3892(3) -0.2665(2) 0.1909(2)
H8 H 0.4493 -0.3039 0.1672
C12 C 0.5846(2) -0.1298(2) 0.19081(18)
H9 H 0.5871 -0.1896 0.2311
C13 C 0.6909(2) -0.0910(2) 0.1626(2)
C14 C 0.7918(3) -0.1310(3) 0.2101(2)
H10 H 0.7867 -0.1808 0.2580
C15 C 0.8951(3) -0.0983(4) 0.1871(3)
H11 H 0.9606 -0.1229 0.2205
C16 C 0.9034(3) -0.0272(3) 0.1128(3)
H12 H 0.9749 -0.0060 0.0965
C17 C 0.8088(2) 0.0115(3) 0.0639(2)
H13 H 0.8165 0.0579 0.0141
C18 C 0.6994(2) -0.0180(2) 0.08805(19)
N1B N 0.52139(18) 0.78593(17) -0.05700(15)
C2B C 0.6135(2) 0.7230(2) -0.0383(2)
H2B H 0.6847 0.7556 -0.0411
C3B C 0.6085(2) 0.6124(2) -0.0152(2)
H3B H 0.6754 0.5727 -0.0014
C4B C 0.5045(2) 0.55979(19) -0.01236(17)
C5B C 0.4091(2) 0.6251(2) -0.03211(19)
H4B H 0.3369 0.5941 -0.0313
C6B C 0.4211(2) 0.7361(2) -0.05302(19)
H5B H 0.3556 0.7785 -0.0650
Cu1B Cu 0.53215(3) -0.05157(2) -0.09365(2)
S1B S 0.71281(6) -0.05091(6) -0.22788(5)
O1B O 0.6311(2) -0.0895(2) -0.29712(18)
O2B O 0.68102(18) -0.08282(17) -0.13622(15)
O3B O 0.8286(2) -0.0800(2) -0.23725(19)
O4B O 0.39156(15) -0.02230(14) -0.04125(12)
C1B C 0.7899(3) 0.2710(3) -0.2578(2)
H1B H 0.8490 0.3114 -0.2804
N2B N 0.51506(18) 0.08970(17) -0.16566(14)
C7B C 0.6106(2) 0.1505(2) -0.19506(17)
C8B C 0.7038(2) 0.0961(2) -0.22674(17)
C9B C 0.7915(3) 0.1566(3) -0.2600(2)
H6B H 0.8518 0.1197 -0.2838
C10B C 0.7008(3) 0.3259(3) -0.2222(2)
H7B H 0.7009 0.4032 -0.2192
C11B C 0.6108(3) 0.2665(2) -0.1909(2)
H8B H 0.5507 0.3039 -0.1672
C12B C 0.4154(2) 0.1298(2) -0.19081(18)
H9B H 0.4129 0.1896 -0.2311
C13B C 0.3091(2) 0.0910(2) -0.1626(2)
C14B C 0.2082(3) 0.1310(3) -0.2101(2)
H10B H 0.2133 0.1808 -0.2580
C15B C 0.1049(3) 0.0983(4) -0.1871(3)
H11B H 0.0394 0.1229 -0.2205
C16B C 0.0966(3) 0.0272(3) -0.1128(3)
H12B H 0.0251 0.0060 -0.0965
C17B C 0.1912(2) -0.0115(3) -0.0639(2)
H13B H 0.1835 -0.0579 -0.0141
C18B C 0.3006(2) 0.0180(2) -0.08805(19)
Cu1B_2 Cu 0.53215(3) 0.94843(2) -0.09365(2)
N1B_2 N 0.52139(18) -0.21407(17) -0.05700(15)
S2 S -0.06077(9) 0.30105(11) 0.97258(8)
O5 O -0.1355(3) 0.3817(4) 1.0147(3)
C19 C 0.0497(5) 0.2713(6) 1.0580(4)
H14 H 0.0866 0.3393 1.0779
H15 H 0.1042 0.2224 1.0336
H16 H 0.0181 0.2359 1.1088
C20 C 0.0191(5) 0.3785(5) 0.8993(3)
H17 H -0.0314 0.4171 0.8556
H18 H 0.0671 0.3293 0.8680
H19 H 0.0654 0.4316 0.9341
loop_
_geom_bond_atom_site_label_1
_geom_bond_atom_site_label_2
_geom_bond_site_symmetry_1
_geom_bond_site_symmetry_2
Cu1 O2 1_555 1_555
S1 O1 1_555 1_555
O2 S1 1_555 1_555
O3 S1 1_555 1_555
O4 Cu1 1_555 1_555
N1 Cu1 1_555 1_555
C1 H1 1_555 1_555
C2 N1 1_555 1_555
H2 C2 1_555 1_555
C3 C2 1_555 1_555
H3 C3 1_555 1_555
C4 C3 1_555 1_555
C5 C4 1_555 1_555
H4 C5 1_555 1_555
C6 N1 1_555 1_555
H5 C6 1_555 1_555
N2 Cu1 1_555 1_555
C7 N2 1_555 1_555
C8 S1 1_555 1_555
C9 C1 1_555 1_555
H6 C9 1_555 1_555
C10 C1 1_555 1_555
H7 C10 1_555 1_555
C11 C7 1_555 1_555
H8 C11 1_555 1_555
C12 N2 1_555 1_555
H9 C12 1_555 1_555
C13 C12 1_555 1_555
C14 C13 1_555 1_555
H10 C14 1_555 1_555
C15 C14 1_555 1_555
H11 C15 1_555 1_555
C16 C15 1_555 1_555
H12 C16 1_555 1_555
C17 C16 1_555 1_555
H13 C17 1_555 1_555
C18 O4 1_555 1_555
S2 O5 1_555 1_555
C19 S2 1_555 1_555
H14 C19 1_555 1_555
H15 C19 1_555 1_555
H16 C19 1_555 1_555
C20 S2 1_555 1_555
H17 C20 1_555 1_555
H18 C20 1_555 1_555
H19 C20 1_555 1_555
N1B C2B 1_555 1_555
C2B H2B 1_555 1_555
C3B C2B 1_555 1_555
H3B C3B 1_555 1_555
C4B C4 1_555 1_555
C5B C4B 1_555 1_555
H4B C5B 1_555 1_555
C6B N1B 1_555 1_555
H5B C6B 1_555 1_555
Cu1B O4 1_555 1_555
S1B O1B 1_555 1_555
O2B Cu1B 1_555 1_555
O3B S1B 1_555 1_555
O4B Cu1 1_555 1_555
C1B H1B 1_555 1_555
N2B Cu1B 1_555 1_555
C7B N2B 1_555 1_555
C8B S1B 1_555 1_555
C9B C1B 1_555 1_555
H6B C9B 1_555 1_555
C10B C1B 1_555 1_555
H7B C10B 1_555 1_555
C11B C7B 1_555 1_555
H8B C11B 1_555 1_555
C12B N2B 1_555 1_555
H9B C12B 1_555 1_555
C13B C12B 1_555 1_555
C14B C13B 1_555 1_555
H10B C14B 1_555 1_555
C15B C14B 1_555 1_555
H11B C15B 1_555 1_555
C16B C15B 1_555 1_555
H12B C16B 1_555 1_555
C17B C16B 1_555 1_555
H13B C17B 1_555 1_555
C18B O4B 1_555 1_555
Cu1B_2 N1B 1_555 1_555
N1B_2 Cu1B 1_555 1_555
C5 C6 1_555 1_555
C7 C8 1_555 1_555
C8 C9 1_555 1_555
C10 C11 1_555 1_555
C13 C18 1_555 1_555
C17 C18 1_555 1_555
C3B C4B 1_555 1_555
C5B C6B 1_555 1_555
Cu1B O4B 1_555 1_555
S1B O2B 1_555 1_555
C7B C8B 1_555 1_555
C8B C9B 1_555 1_555
C10B C11B 1_555 1_555
C13B C18B 1_555 1_555
C17B C18B 1_555 1_555

#END
