
#######################################################################
#
#                 Cambridge Crystallographic Data Centre
#                                CCDC 
#
#######################################################################
#
# If this CIF has been generated from an entry in the Cambridge 
# Structural Database, then it will include bibliographic, chemical, 
# crystal, experimental, refinement or atomic coordinate data resulting 
# from the CCDC's data processing and validation procedures.
#
#######################################################################

data_POYXOS
_symmetry_cell_setting           monoclinic
_symmetry_space_group_name_H-M   'P 21/c'
_symmetry_Int_Tables_number      14
_space_group_name_Hall           '-P 2ybc'
loop_
_symmetry_equiv_pos_site_id
_symmetry_equiv_pos_as_xyz
1 x,y,z
2 -x,1/2+y,1/2-z
3 -x,-y,-z
4 x,1/2-y,1/2+z
_cell_length_a                   14.636(4)
_cell_length_b                   11.838(3)
_cell_length_c                   24.374(5)
_cell_angle_alpha                90
_cell_angle_beta                 101.236(8)
_cell_angle_gamma                90
_cell_volume                     4142.12
loop_
_atom_site_label
_atom_site_type_symbol
_atom_site_fract_x
_atom_site_fract_y
_atom_site_fract_z
Cu1 Cu 0.15567(3) 0.55519(3) 0.27268(2)
Cu2 Cu 0.34349(3) 0.46576(3) 0.23901(2)
S1 S 0.03800(7) 0.54870(7) 0.36030(4)
S2 S 0.45388(6) 0.47648(7) 0.14538(4)
O1 O 0.30532(16) 0.49490(18) 0.30867(9)
O2 O 0.19426(16) 0.52775(18) 0.20323(9)
O3 O 0.0326(2) 0.5811(2) 0.41607(11)
O4 O -0.0397(2) 0.5804(2) 0.31782(13)
O5 O 0.12754(18) 0.5875(2) 0.34665(10)
O6 O 0.4465(2) 0.4493(2) 0.08741(11)
O7 O 0.5387(2) 0.4425(2) 0.18119(13)
O8 O 0.37131(19) 0.4343(2) 0.16525(11)
N1 N 0.1883(2) 0.7217(2) 0.26703(11)
C1 C 0.2360(2) 0.9503(2) 0.25854(14)
C2 C 0.2630(2) 1.0710(3) 0.25385(14)
N2 N 0.30974(19) 1.3000(2) 0.24486(11)
N3 N 0.41412(19) 0.6121(2) 0.24600(11)
C3 C 0.1399(2) 0.4816(3) 0.15892(14)
C4 C 0.0657(2) 0.4078(3) 0.16349(14)
C5 C 0.0483(2) 0.3698(3) 0.21602(14)
H1 H 0.0068 0.3100 0.2150
N4 N 0.08390(19) 0.4094(2) 0.26488(11)
C6 C 0.0682(2) 0.3455(3) 0.31243(14)
C7 C 0.0474(2) 0.3996(3) 0.35947(15)
C8 C 0.0331(3) 0.3364(4) 0.40518(17)
H2 H 0.0178 0.3723 0.4361
C9 C 0.0415(3) 0.2206(4) 0.40450(19)
H3 H 0.0328 0.1785 0.4353
C10 C 0.0625(3) 0.1671(3) 0.35856(19)
H4 H 0.0678 0.0888 0.3585
C11 C 0.0759(3) 0.2280(3) 0.31256(17)
H5 H 0.0901 0.1908 0.2817
C12 C 0.0099(3) 0.3637(3) 0.11424(16)
H6 H -0.0392 0.3155 0.1170
C13 C 0.0266(3) 0.3903(4) 0.06281(16)
H7 H -0.0116 0.3621 0.0308
C14 C 0.1012(3) 0.4599(3) 0.05851(16)
H8 H 0.1139 0.4760 0.0234
C15 C 0.1570(3) 0.5057(3) 0.10551(15)
H9 H 0.2062 0.5528 0.1017
C16 C 0.2209(3) 0.7843(3) 0.31244(15)
H10 H 0.2273 0.7506 0.3474
C17 C 0.2455(3) 0.8962(3) 0.30977(15)
H11 H 0.2687 0.9357 0.3425
C18 C 0.2958(2) 1.1369(3) 0.30055(15)
H12 H 0.3032 1.1054 0.3361
C19 C 0.3176(2) 1.2493(3) 0.29449(14)
H13 H 0.3388 1.2917 0.3266
C20 C 0.3594(2) 0.5411(3) 0.35262(13)
C21 C 0.4342(2) 0.6147(3) 0.34786(14)
C22 C 0.4509(2) 0.6521(3) 0.29484(14)
H14 H 0.4926 0.7115 0.2955
C23 C 0.4293(2) 0.6772(3) 0.19895(14)
C24 C 0.4468(2) 0.6257(3) 0.14991(14)
C25 C 0.4625(3) 0.6916(3) 0.10577(15)
H15 H 0.4753 0.6572 0.0738
C26 C 0.4594(3) 0.8076(3) 0.10862(17)
H16 H 0.4719 0.8512 0.0792
C27 C 0.4375(3) 0.8597(3) 0.15564(17)
H17 H 0.4325 0.9380 0.1570
C28 C 0.4231(3) 0.7947(3) 0.20031(16)
H18 H 0.4091 0.8299 0.2318
C29 C 0.4897(3) 0.6607(3) 0.39667(16)
H19 H 0.5385 0.7091 0.3936
C30 C 0.4726(3) 0.6353(4) 0.44816(16)
H20 H 0.5103 0.6650 0.4801
C31 C 0.3984(3) 0.5645(4) 0.45284(16)
H21 H 0.3863 0.5480 0.4880
C32 C 0.3429(3) 0.5189(3) 0.40613(15)
H22 H 0.2934 0.4724 0.4102
C33 C 0.2791(3) 1.2363(3) 0.19950(15)
H23 H 0.2739 1.2694 0.1644
C34 C 0.2550(3) 1.1243(3) 0.20228(14)
H24 H 0.2333 1.0842 0.1695
C35 C 0.2006(3) 0.8855(3) 0.21178(15)
H25 H 0.1916 0.9177 0.1763
C36 C 0.1787(2) 0.7736(3) 0.21779(15)
H26 H 0.1560 0.7319 0.1857
Cu2_2 Cu 0.34349(3) 1.46576(3) 0.23901(2)
N2_2 N 0.30974(19) 0.3000(2) 0.24486(11)
O9 O 0.1509(3) 0.3531(4) 0.5565(2)
H27 H 0.1633 0.4258 0.5620
H28 H 0.0953 0.3442 0.5626
N5 N 0.3762(3) 0.9541(5) 0.4529(2)
H29 H 0.3679 1.0258 0.4553
H30 H 0.4261 0.9288 0.4435
O10 O 0.2414(3) 0.9060(4) 0.4767(3)
C37 C 0.3145(5) 0.8856(6) 0.4632(3)
H31 H 0.3279 0.8093 0.4599
O11 O 0.3434(3) 0.1989(5) 0.4453(2)
C38 C 0.2915(4) 0.2378(6) 0.4738(3)
H32 H 0.2544 0.2982 0.4586
N6 N 0.2823(4) 0.2050(4) 0.5218(2)
H33 H 0.3151 0.1494 0.5377
H34 H 0.2434 0.2384 0.5386
O12 O 0.2062(4) 0.5693(5) 0.5777(2)
C39 C 0.2118(4) 0.6622(6) 0.5560(3)
H35 H 0.2475 0.7168 0.5778
N7 N 0.1734(3) 0.6910(5) 0.5064(2)
H36 H 0.1397 0.6432 0.4848
H37 H 0.1811 0.7581 0.4946
loop_
_geom_bond_atom_site_label_1
_geom_bond_atom_site_label_2
_geom_bond_site_symmetry_1
_geom_bond_site_symmetry_2
Cu1 O1 1_555 1_555
Cu2 O1 1_555 1_555
S1 O3 1_555 1_555
S2 O6 1_555 1_555
O1 C20 1_555 1_555
O2 Cu1 1_555 1_555
O4 S1 1_555 1_555
O5 Cu1 1_555 1_555
O7 S2 1_555 1_555
O8 Cu2 1_555 1_555
N1 Cu1 1_555 1_555
C1 C2 1_555 1_555
C2 C18 1_555 1_555
N2 C19 1_555 1_555
N3 Cu2 1_555 1_555
C3 O2 1_555 1_555
C4 C3 1_555 1_555
C5 C4 1_555 1_555
H1 C5 1_555 1_555
N4 Cu1 1_555 1_555
C6 N4 1_555 1_555
C7 S1 1_555 1_555
C8 C7 1_555 1_555
H2 C8 1_555 1_555
C9 C8 1_555 1_555
H3 C9 1_555 1_555
C10 C9 1_555 1_555
H4 C10 1_555 1_555
C11 C6 1_555 1_555
H5 C11 1_555 1_555
C12 C4 1_555 1_555
H6 C12 1_555 1_555
C13 C12 1_555 1_555
H7 C13 1_555 1_555
C14 C13 1_555 1_555
H8 C14 1_555 1_555
C15 C3 1_555 1_555
H9 C15 1_555 1_555
C16 N1 1_555 1_555
H10 C16 1_555 1_555
C17 C1 1_555 1_555
H11 C17 1_555 1_555
C18 H12 1_555 1_555
C19 C18 1_555 1_555
H13 C19 1_555 1_555
C20 C21 1_555 1_555
C21 C22 1_555 1_555
C22 N3 1_555 1_555
H14 C22 1_555 1_555
C23 N3 1_555 1_555
C24 S2 1_555 1_555
C25 C24 1_555 1_555
H15 C25 1_555 1_555
C26 C25 1_555 1_555
H16 C26 1_555 1_555
C27 C26 1_555 1_555
H17 C27 1_555 1_555
C28 C23 1_555 1_555
H18 C28 1_555 1_555
C29 C21 1_555 1_555
H19 C29 1_555 1_555
C30 C29 1_555 1_555
H20 C30 1_555 1_555
C31 C30 1_555 1_555
H21 C31 1_555 1_555
C32 C20 1_555 1_555
H22 C32 1_555 1_555
C33 N2 1_555 1_555
H23 C33 1_555 1_555
C34 C2 1_555 1_555
H24 C34 1_555 1_555
C35 C1 1_555 1_555
H25 C35 1_555 1_555
C36 N1 1_555 1_555
H26 C36 1_555 1_555
O9 H27 1_555 1_555
H28 O9 1_555 1_555
N5 H29 1_555 1_555
H30 N5 1_555 1_555
O10 C37 1_555 1_555
C37 N5 1_555 1_555
H31 C37 1_555 1_555
O11 C38 1_555 1_555
C38 H32 1_555 1_555
N6 C38 1_555 1_555
H33 N6 1_555 1_555
H34 N6 1_555 1_555
O12 C39 1_555 1_555
C39 H35 1_555 1_555
N7 C39 1_555 1_555
H36 N7 1_555 1_555
H37 N7 1_555 1_555
Cu2_2 N2 1_555 1_555
N2_2 Cu2 1_555 1_555
Cu2 O2 1_555 1_555
S1 O5 1_555 1_555
S2 O8 1_555 1_555
C5 N4 1_555 1_555
C6 C7 1_555 1_555
C10 C11 1_555 1_555
C14 C15 1_555 1_555
C16 C17 1_555 1_555
C23 C24 1_555 1_555
C27 C28 1_555 1_555
C31 C32 1_555 1_555
C33 C34 1_555 1_555
C35 C36 1_555 1_555

#END
