
#######################################################################
#
#                 Cambridge Crystallographic Data Centre
#                                CCDC 
#
#######################################################################
#
# If this CIF has been generated from an entry in the Cambridge 
# Structural Database, then it will include bibliographic, chemical, 
# crystal, experimental, refinement or atomic coordinate data resulting 
# from the CCDC's data processing and validation procedures.
#
#######################################################################

data_POYYUZ
_symmetry_cell_setting           triclinic
_symmetry_space_group_name_H-M   'P -1'
_symmetry_Int_Tables_number      2
_space_group_name_Hall           '-P 1'
loop_
_symmetry_equiv_pos_site_id
_symmetry_equiv_pos_as_xyz
1 x,y,z
2 -x,-y,-z
_cell_length_a                   11.7425(7)
_cell_length_b                   13.9180(8)
_cell_length_c                   14.0079(9)
_cell_angle_alpha                61.461(2)
_cell_angle_beta                 71.523(3)
_cell_angle_gamma                71.386(2)
_cell_volume                     1868.42
loop_
_atom_site_label
_atom_site_type_symbol
_atom_site_fract_x
_atom_site_fract_y
_atom_site_fract_z
Cu1 Cu -0.05944(8) 0.62267(8) 0.92320(8)
N1 N 0.0942(5) 0.6850(5) 0.8476(5)
N2 N -0.2221(6) 0.5835(5) 0.9476(5)
O1 O -0.1525(5) 0.7502(4) 0.9584(4)
O2 O 0.0251(5) 0.4889(4) 0.9021(4)
C1 C 0.1189(7) 0.7644(6) 0.8726(6)
C2 C 0.1752(6) 0.6560(6) 0.7745(6)
C3 C -0.3214(7) 0.6097(7) 1.0171(7)
C4 C -0.2313(8) 0.5241(7) 0.8985(6)
S1 S -0.12556(17) 0.86323(16) 0.87864(16)
C5 C 0.1051(7) 0.4879(6) 0.8110(6)
C6 C 0.0268(7) 0.8504(6) 0.8883(6)
C7 C 0.2364(7) 0.7545(7) 0.8838(6)
H1 H 0.2398 0.6961 0.7358
C8 C 0.1783(7) 0.5696(7) 0.7452(6)
H2 H -0.3159 0.6503 1.0534
C9 C -0.4323(7) 0.5802(7) 1.0384(7)
C10 C -0.3377(7) 0.4911(7) 0.9163(6)
H3 H -0.1614 0.5041 0.8494
O3 O -0.2031(5) 0.9471(4) 0.9157(5)
O4 O -0.1237(5) 0.8845(4) 0.7673(4)
C11 C 0.1197(8) 0.4031(7) 0.7783(7)
C12 C 0.0503(8) 0.9265(7) 0.9136(7)
C13 C 0.2592(8) 0.8293(7) 0.9099(7)
H4 H 0.3007 0.6962 0.8735
C14 C 0.2620(7) 0.5638(7) 0.6499(7)
H5 H -0.5010 0.6017 1.0874
C15 C -0.4424(8) 0.5193(7) 0.9882(6)
H6 H -0.3402 0.4493 0.8800
H7 H 0.0729 0.3464 0.8221
C16 C 0.2004(8) 0.4012(7) 0.6843(7)
H8 H -0.0131 0.9860 0.9225
C17 C 0.1676(8) 0.9146(7) 0.9257(7)
H9 H 0.3396 0.8220 0.9172
C18 C 0.2732(8) 0.4813(8) 0.6189(8)
H10 H 0.3117 0.6182 0.6062
H11 H 0.2073 0.3440 0.6628
H12 H 0.1846 0.9649 0.9448
H13 H 0.3296 0.4785 0.5539
O2A O -0.0251(5) 0.5111(4) 1.0979(4)
Cu1A Cu 0.05944(8) 0.37733(8) 1.07680(8)
C15A C -0.5576(8) 0.4807(7) 1.0118(6)
C9A C -0.5677(7) 0.4198(7) 0.9616(7)
C10A C -0.6623(7) 0.5089(7) 1.0837(6)
C3A C -0.6786(7) 0.3903(7) 0.9829(7)
H5A H -0.4990 0.3983 0.9126
H6A H -0.6598 0.5507 1.1200
C4A C -0.7687(8) 0.4759(7) 1.1015(6)
H2A H -0.6841 0.3497 0.9466
N2A N -0.7779(6) 0.4165(5) 1.0524(5)
H3A H -0.8386 0.4959 1.1506
Cu1A_2 Cu -0.94056(8) 0.37733(8) 1.07680(8)
N1A N -1.0942(5) 0.3150(5) 1.1524(5)
O1A O -0.8475(5) 0.2498(4) 1.0416(4)
O2A_2 O -1.0251(5) 0.5111(4) 1.0979(4)
O2_2 O -0.9749(5) 0.4889(4) 0.9021(4)
C1A C -1.1189(7) 0.2356(6) 1.1274(6)
C2A C -1.1752(6) 0.3440(6) 1.2255(6)
S1A S -0.87444(17) 0.13677(16) 1.12136(16)
C5A C -1.1051(7) 0.5121(6) 1.1890(6)
Cu1_2 Cu -1.05944(8) 0.62267(8) 0.92320(8)
C6A C -1.0268(7) 0.1496(6) 1.1117(6)
C7A C -1.2364(7) 0.2455(7) 1.1162(6)
H1A H -1.2398 0.3039 1.2642
C8A C -1.1783(7) 0.4304(7) 1.2548(6)
O3A O -0.7969(5) 0.0529(4) 1.0843(5)
O4A O -0.8763(5) 0.1155(4) 1.2327(4)
C11A C -1.1197(8) 0.5969(7) 1.2217(7)
C12A C -1.0503(8) 0.0735(7) 1.0864(7)
C13A C -1.2592(8) 0.1707(7) 1.0901(7)
H4A H -1.3007 0.3038 1.1265
C14A C -1.2620(7) 0.4362(7) 1.3501(7)
H7A H -1.0729 0.6536 1.1779
C16A C -1.2004(8) 0.5988(7) 1.3157(7)
H8A H -0.9869 0.0140 1.0775
C17A C -1.1676(8) 0.0854(7) 1.0743(7)
H9A H -1.3396 0.1780 1.0828
C18A C -1.2732(8) 0.5187(8) 1.3811(8)
H10A H -1.3117 0.3818 1.3938
H11A H -1.2073 0.6560 1.3372
H12A H -1.1846 0.0351 1.0552
H13A H -1.3296 0.5215 1.4461
O5 O 0.5607(4) -0.0191(4) 0.4076(4)
Cu2 Cu 0.52855(8) 0.11906(7) 0.41894(7)
C19 C 0.7025(7) -0.3463(6) 0.6251(6)
C20 C 0.8040(7) -0.4210(7) 0.6009(6)
H14 H 0.7936 -0.4816 0.5930
C21 C 0.9217(7) -0.4080(7) 0.5880(7)
H15 H 0.9916 -0.4584 0.5697
C22 C 0.9355(7) -0.3209(7) 0.6020(6)
H16 H 1.0157 -0.3124 0.5939
C23 C 0.8355(7) -0.2459(6) 0.6276(6)
H17 H 0.8470 -0.1868 0.6373
C24 C 0.7171(7) -0.2571(6) 0.6390(6)
C25 C 0.6118(7) -0.1431(6) 0.7317(6)
H18 H 0.6759 -0.1802 0.7725
C26 C 0.5237(7) -0.0556(6) 0.7555(6)
C27 C 0.4413(7) 0.0232(6) 0.6846(6)
C28 C 0.3608(7) 0.1090(6) 0.7125(6)
H19 H 0.3089 0.1651 0.6634
C29 C 0.3557(8) 0.1130(7) 0.8101(7)
H20 H 0.2969 0.1691 0.8298
C30 C 0.4363(8) 0.0354(7) 0.8804(7)
H21 H 0.4331 0.0388 0.9474
C31 C 0.5198(8) -0.0456(7) 0.8515(7)
H22 H 0.5767 -0.0965 0.8978
N3 N 0.6131(5) -0.1771(5) 0.6595(5)
O6 O 0.5667(5) -0.4510(4) 0.6110(5)
O7 O 0.4873(5) -0.3739(4) 0.7490(4)
O8 O 0.5027(5) -0.2527(4) 0.5537(4)
S2 S 0.55324(17) -0.36071(16) 0.63924(16)
N4 N 0.2995(6) -0.0821(5) 0.5567(5)
C32 C -0.1601(7) 0.0769(7) 0.5392(6)
C33 C -0.0626(7) 0.0187(6) 0.4866(6)
C34 C -0.2742(8) 0.1071(6) 0.5160(7)
H23 H -0.3387 0.1474 0.5522
H24 H -0.1470 0.0954 0.5915
C35 C -0.2058(7) 0.0263(6) 0.3932(6)
C36 C 0.0877(7) 0.0054(6) 0.5878(6)
H25 H 0.0241 0.0439 0.6264
H26 H -0.2210 0.0074 0.3421
O5A O 0.4393(4) 0.0191(4) 0.5924(4)
Cu2A Cu 0.47145(8) -0.11906(7) 0.58106(7)
Cu2A_2 Cu -0.52855(8) -0.11906(7) 0.58106(7)
O5A_2 O -0.5607(4) 0.0191(4) 0.5924(4)
C19A C -0.7025(7) 0.3463(6) 0.3749(6)
S2A S -0.55324(17) 0.36071(16) 0.36076(16)
C21A C -0.9217(7) 0.4080(7) 0.4120(7)
H15A H -0.9916 0.4584 0.4303
C20A C -0.8040(7) 0.4210(7) 0.3991(6)
H14A H -0.7936 0.4816 0.4070
C24A C -0.7171(7) 0.2571(6) 0.3610(6)
C22A C -0.9355(7) 0.3209(7) 0.3980(6)
H16A H -1.0157 0.3124 0.4061
C23A C -0.8355(7) 0.2459(6) 0.3724(6)
C29A C -0.3557(8) -0.1130(7) 0.1899(7)
H20A H -0.2969 -0.1691 0.1702
C28A C -0.3608(7) -0.1090(6) 0.2875(6)
C26A C -0.5237(7) 0.0556(6) 0.2445(6)
C31A C -0.5198(8) 0.0456(7) 0.1485(7)
C34A C 0.2742(8) -0.1071(6) 0.4840(7)
C32A C 0.1601(7) -0.0769(7) 0.4608(6)
C25A C -0.6118(7) 0.1431(6) 0.2683(6)
N4A N -0.2995(6) 0.0821(5) 0.4433(5)
O6A O -0.5667(5) 0.4510(4) 0.3890(5)
C33A C 0.0626(7) -0.0187(6) 0.5134(6)
H18A H -0.6759 0.1802 0.2275
H19A H -0.3089 -0.1651 0.3366
N3A N -0.6131(5) 0.1771(5) 0.3405(5)
C27A C -0.4413(7) -0.0232(6) 0.3154(6)
O8A O -0.5027(5) 0.2527(4) 0.4463(4)
Cu2_2 Cu -0.47145(8) 0.11906(7) 0.41894(7)
C35A C 0.2058(7) -0.0263(6) 0.6068(6)
H17A H -0.8470 0.1868 0.3627
H22A H -0.5767 0.0965 0.1022
H23A H 0.3387 -0.1474 0.4478
C30A C -0.4363(8) -0.0354(7) 0.1196(7)
C36A C -0.0877(7) -0.0054(6) 0.4122(6)
H21A H -0.4331 -0.0388 0.0526
O5_2 O -0.4393(4) -0.0191(4) 0.4076(4)
O7A O -0.4873(5) 0.3739(4) 0.2510(4)
H24A H 0.1470 -0.0954 0.4085
H26A H 0.2210 -0.0074 0.6579
H25A H -0.0241 -0.0439 0.3736
C37 C 0.896(2) 0.228(2) 0.663(2)
H27 H 0.8425 0.1789 0.7233
H28 H 0.9372 0.1972 0.6080
H29 H 0.8473 0.3025 0.6282
O9 O 0.9869(16) 0.2351(15) 0.7076(14)
H30 H 1.0533 0.2398 0.6612
O10 O 0.4177(17) 0.7520(15) 0.1491(15)
H31 H 0.3692 0.8123 0.1212
C38 C 0.352(3) 0.676(2) 0.2460(19)
H32 H 0.4039 0.6297 0.3011
H33 H 0.3276 0.6274 0.2259
H34 H 0.2781 0.7177 0.2771
O11? O 0.8791(17) 0.1620(15) 0.7150(15)
H35? H 0.8295 0.1244 0.7672
C39? C 0.911(3) 0.231(2) 0.749(2)
H36? H 0.8440 0.2480 0.8048
H37? H 0.9264 0.3010 0.6842
H38? H 0.9856 0.1917 0.7800
O12? O 0.4282(18) 0.7317(15) 0.2360(14)
H39? H 0.4932 0.6947 0.2127
C40? C 0.420(3) 0.704(2) 0.340(2)
H40? H 0.4147 0.7696 0.3508
H41? H 0.4926 0.6476 0.3649
H42? H 0.3464 0.6722 0.3833
loop_
_geom_bond_atom_site_label_1
_geom_bond_atom_site_label_2
_geom_bond_site_symmetry_1
_geom_bond_site_symmetry_2
Cu1 N1 1_555 1_555
N1 C1 1_555 1_555
N2 Cu1 1_555 1_555
O1 Cu1 1_555 1_555
O2 Cu1 1_555 1_555
C1 C6 1_555 1_555
C2 N1 1_555 1_555
C3 N2 1_555 1_555
C4 N2 1_555 1_555
S1 O1 1_555 1_555
C5 O2 1_555 1_555
C6 S1 1_555 1_555
C7 C1 1_555 1_555
H1 C2 1_555 1_555
C8 C2 1_555 1_555
H2 C3 1_555 1_555
C9 C3 1_555 1_555
C10 C4 1_555 1_555
H3 C4 1_555 1_555
O3 S1 1_555 1_555
O4 S1 1_555 1_555
C11 C5 1_555 1_555
C12 C6 1_555 1_555
C13 C7 1_555 1_555
H4 C7 1_555 1_555
C14 C8 1_555 1_555
H5 C9 1_555 1_555
C15 C9 1_555 1_555
H6 C10 1_555 1_555
H7 C11 1_555 1_555
C16 C11 1_555 1_555
H8 C12 1_555 1_555
C17 C12 1_555 1_555
H9 C13 1_555 1_555
C18 C14 1_555 1_555
H10 C14 1_555 1_555
H11 C16 1_555 1_555
H12 C17 1_555 1_555
H13 C18 1_555 1_555
O5 Cu2 1_555 1_555
Cu2 O5A 1_555 1_555
C19 C20 1_555 1_555
C20 H14 1_555 1_555
C21 C20 1_555 1_555
H15 C21 1_555 1_555
C22 C21 1_555 1_555
H16 C22 1_555 1_555
C23 C22 1_555 1_555
H17 C23 1_555 1_555
C24 C19 1_555 1_555
C25 H18 1_555 1_555
C26 C25 1_555 1_555
C27 C26 1_555 1_555
C28 C27 1_555 1_555
H19 C28 1_555 1_555
C29 C28 1_555 1_555
H20 C29 1_555 1_555
C30 C29 1_555 1_555
H21 C30 1_555 1_555
C31 C26 1_555 1_555
H22 C31 1_555 1_555
N3 C24 1_555 1_555
O6 S2 1_555 1_555
O7 S2 1_555 1_555
O8 S2 1_555 1_555
S2 C19 1_555 1_555
N4 Cu2A 1_555 1_555
C32 C33 1_555 1_555
C33 C33A 1_555 1_555
C34 C32 1_555 1_555
H23 C34 1_555 1_555
H24 C32 1_555 1_555
C35 H26 1_555 1_555
C36 H25 1_555 1_555
C37 H27 1_555 1_555
H28 C37 1_555 1_555
H29 C37 1_555 1_555
O9 C37 1_555 1_555
H30 O9 1_555 1_555
O10 H31 1_555 1_555
C38 O10 1_555 1_555
H32 C38 1_555 1_555
H33 C38 1_555 1_555
H34 C38 1_555 1_555
O2A Cu1 1_555 1_555
Cu1A O2 1_555 1_555
C15A C15 1_555 1_555
C9A C15A 1_555 1_555
C10A C15A 1_555 1_555
C3A C9A 1_555 1_555
H5A C9A 1_555 1_555
H6A C10A 1_555 1_555
C4A C10A 1_555 1_555
H2A C3A 1_555 1_555
N2A C3A 1_555 1_555
H3A C4A 1_555 1_555
Cu1A_2 N2A 1_555 1_555
N1A Cu1A_2 1_555 1_555
O1A Cu1A_2 1_555 1_555
O2A_2 Cu1A_2 1_555 1_555
O2_2 Cu1A_2 1_555 1_555
C1A N1A 1_555 1_555
C2A N1A 1_555 1_555
S1A O1A 1_555 1_555
C5A O2A_2 1_555 1_555
Cu1_2 O2A_2 1_555 1_555
C6A C1A 1_555 1_555
C7A C1A 1_555 1_555
H1A C2A 1_555 1_555
C8A C2A 1_555 1_555
O3A S1A 1_555 1_555
O4A S1A 1_555 1_555
C11A C5A 1_555 1_555
C12A C6A 1_555 1_555
C13A C7A 1_555 1_555
H4A C7A 1_555 1_555
C14A C8A 1_555 1_555
H7A C11A 1_555 1_555
C16A C11A 1_555 1_555
H8A C12A 1_555 1_555
C17A C12A 1_555 1_555
H9A C13A 1_555 1_555
C18A C14A 1_555 1_555
H10A C14A 1_555 1_555
H11A C16A 1_555 1_555
H12A C17A 1_555 1_555
H13A C18A 1_555 1_555
O5A C27 1_555 1_555
Cu2A O5 1_555 1_555
Cu2A_2 O5A_2 1_555 1_555
O5A_2 Cu2_2 1_555 1_555
C19A S2A 1_555 1_555
S2A O6A 1_555 1_555
C21A H15A 1_555 1_555
C20A C19A 1_555 1_555
H14A C20A 1_555 1_555
C24A C19A 1_555 1_555
C22A C21A 1_555 1_555
H16A C22A 1_555 1_555
C23A C24A 1_555 1_555
C29A H20A 1_555 1_555
C28A C29A 1_555 1_555
C26A C31A 1_555 1_555
C31A H22A 1_555 1_555
C34A N4 1_555 1_555
C32A C34A 1_555 1_555
C25A C26A 1_555 1_555
N4A C34 1_555 1_555
C33A C36 1_555 1_555
H18A C25A 1_555 1_555
H19A C28A 1_555 1_555
N3A C24A 1_555 1_555
C27A C28A 1_555 1_555
O8A S2A 1_555 1_555
Cu2_2 N4A 1_555 1_555
C35A N4 1_555 1_555
H17A C23A 1_555 1_555
H23A C34A 1_555 1_555
C30A C29A 1_555 1_555
C36A C33 1_555 1_555
H21A C30A 1_555 1_555
O5_2 Cu2A_2 1_555 1_555
O7A S2A 1_555 1_555
H24A C32A 1_555 1_555
H26A C35A 1_555 1_555
H25A C36A 1_555 1_555
C5 C8 1_555 1_555
C10 C15 1_555 1_555
C13 C17 1_555 1_555
C16 C18 1_555 1_555
C23 C24 1_555 1_555
C25 N3 1_555 1_555
C30 C31 1_555 1_555
N3 Cu2A 1_555 1_555
O8 Cu2A 1_555 1_555
C35 N4A 1_555 1_555
C35 C36A 1_555 1_555
C36 C35A 1_555 1_555
O2A Cu1A 1_555 1_555
C4A N2A 1_555 1_555
O2_2 Cu1_2 1_555 1_555
S1A C6A 1_555 1_555
C5A C8A 1_555 1_555
C13A C17A 1_555 1_555
C16A C18A 1_555 1_555
O5A Cu2A 1_555 1_555
C21A C20A 1_555 1_555
C22A C23A 1_555 1_555
C26A C27A 1_555 1_555
C31A C30A 1_555 1_555
C32A C33A 1_555 1_555
C25A N3A 1_555 1_555
N3A Cu2_2 1_555 1_555
C27A O5_2 1_555 1_555
O8A Cu2_2 1_555 1_555
Cu2_2 O5_2 1_555 1_555

#END
