
#######################################################################
#
#                 Cambridge Crystallographic Data Centre
#                                CCDC 
#
#######################################################################
#
# If this CIF has been generated from an entry in the Cambridge 
# Structural Database, then it will include bibliographic, chemical, 
# crystal, experimental, refinement or atomic coordinate data resulting 
# from the CCDC's data processing and validation procedures.
#
#######################################################################

data_POYYIN
_symmetry_cell_setting           monoclinic
_symmetry_space_group_name_H-M   'P 21/c'
_symmetry_Int_Tables_number      14
_space_group_name_Hall           '-P 2ybc'
loop_
_symmetry_equiv_pos_site_id
_symmetry_equiv_pos_as_xyz
1 x,y,z
2 -x,1/2+y,1/2-z
3 -x,-y,-z
4 x,1/2-y,1/2+z
_cell_length_a                   12.169(4)
_cell_length_b                   12.142(4)
_cell_length_c                   14.346(5)
_cell_angle_alpha                90
_cell_angle_beta                 100.212(13)
_cell_angle_gamma                90
_cell_volume                     2086.13
loop_
_atom_site_label
_atom_site_type_symbol
_atom_site_fract_x
_atom_site_fract_y
_atom_site_fract_z
Cu1 Cu 0.53489(2) 0.44537(2) 0.90935(2)
S1 S 0.71082(4) 0.44258(3) 0.78759(4)
O1 O 0.82315(14) 0.41044(15) 0.78285(14)
O2 O 0.68301(12) 0.41236(12) 0.88124(11)
O3 O 0.62518(17) 0.40671(15) 0.71196(13)
O4 O 0.39442(10) 0.47628(10) 0.94702(9)
N1 N 0.52287(12) 0.28445(11) 0.94691(10)
C1 C 0.42360(15) 0.23551(14) 0.94169(14)
H1 H 0.3596 0.2779 0.9244
C2 C 0.41115(15) 0.12482(14) 0.96069(15)
H2 H 0.3401 0.0944 0.9548
C3 C 0.50460(15) 0.05944(12) 0.98842(12)
C4 C 0.60738(16) 0.11070(16) 0.99432(18)
H3 H 0.6727 0.0704 1.0123
C5 C 0.61312(16) 0.22144(16) 0.97358(17)
H4 H 0.6832 0.2538 0.9784
N2 N 0.52002(12) 0.58450(11) 0.83163(10)
C6 C 0.61506(14) 0.64371(13) 0.81180(12)
C7 C 0.70709(15) 0.58785(15) 0.78908(13)
C8 C 0.79663(18) 0.64631(19) 0.76607(17)
H5 H 0.8567 0.6089 0.7490
C9 C 0.7965(2) 0.7602(2) 0.76854(19)
H6 H 0.8564 0.7994 0.7529
C10 C 0.7080(2) 0.81527(18) 0.79403(18)
H7 H 0.7091 0.8918 0.7969
C11 C 0.61677(18) 0.75861(15) 0.81559(15)
H8 H 0.5571 0.7969 0.8325
C12 C 0.42309(15) 0.62402(14) 0.79462(13)
H9 H 0.4223 0.6830 0.7532
C13 C 0.31696(15) 0.58526(14) 0.81161(14)
C14 C 0.30669(14) 0.51429(13) 0.88783(13)
C15 C 0.19870(16) 0.48413(18) 0.90074(16)
H10 H 0.1897 0.4405 0.9521
C16 C 0.10584(17) 0.5189(2) 0.83751(19)
H11 H 0.0353 0.4959 0.8458
C17 C 0.11573(18) 0.5875(2) 0.76189(19)
H12 H 0.0526 0.6095 0.7196
C18 C 0.21990(17) 0.62222(18) 0.75030(16)
H13 H 0.2267 0.6707 0.7015
N1B N 0.47713(12) -0.28445(11) 1.05309(10)
C1B C 0.57640(15) -0.23551(14) 1.05831(14)
H1B H 0.6404 -0.2779 1.0756
C2B C 0.58885(15) -0.12482(14) 1.03931(15)
H2B H 0.6599 -0.0944 1.0452
C3B C 0.49540(15) -0.05944(12) 1.01158(12)
C4B C 0.39262(16) -0.11070(16) 1.00568(18)
H3B H 0.3273 -0.0704 0.9877
C5B C 0.38688(16) -0.22144(16) 1.02642(17)
H4B H 0.3168 -0.2538 1.0216
Cu1B Cu 0.46511(2) -0.44537(2) 1.09065(2)
S1B S 0.28918(4) -0.44258(3) 1.21241(4)
O1B O 0.17685(14) -0.41044(15) 1.21715(14)
O2B O 0.31699(12) -0.41236(12) 1.11876(11)
O3B O 0.37482(17) -0.40671(15) 1.28804(13)
O4B O 0.60558(10) -0.47628(10) 1.05298(9)
N2B N 0.47998(12) -0.58450(11) 1.16837(10)
C6B C 0.38494(14) -0.64371(13) 1.18820(12)
C7B C 0.29291(15) -0.58785(15) 1.21092(13)
C8B C 0.20337(18) -0.64631(19) 1.23393(17)
H5B H 0.1433 -0.6089 1.2510
C9B C 0.2035(2) -0.7602(2) 1.23146(19)
H6B H 0.1436 -0.7994 1.2471
C10B C 0.2920(2) -0.81527(18) 1.20597(18)
H7B H 0.2909 -0.8918 1.2031
C11B C 0.38323(18) -0.75861(15) 1.18441(15)
H8B H 0.4429 -0.7969 1.1675
C12B C 0.57691(15) -0.62402(14) 1.20538(13)
H9B H 0.5777 -0.6830 1.2468
C13B C 0.68304(15) -0.58526(14) 1.18839(14)
C14B C 0.69331(14) -0.51429(13) 1.11217(13)
C15B C 0.80130(16) -0.48413(18) 1.09926(16)
H10B H 0.8103 -0.4405 1.0479
C16B C 0.89416(17) -0.5189(2) 1.16249(19)
H11B H 0.9647 -0.4959 1.1542
C17B C 0.88427(18) -0.5875(2) 1.23811(19)
H12B H 0.9474 -0.6095 1.2804
C18B C 0.78010(17) -0.62222(18) 1.24970(16)
H13B H 0.7733 -0.6707 1.2985
Cu1_2 Cu 0.53489(2) -0.55463(2) 0.90935(2)
Cu1B_2 Cu 0.46511(2) 0.55463(2) 1.09065(2)
O4_2 O 0.39442(10) -0.52372(10) 0.94702(9)
O4B_2 O 0.60558(10) 0.52372(10) 1.05298(9)
C19 C 0.0203(5) 0.7210(4) 1.0282(4)
H14 H -0.0340 0.7136 1.0689
H15 H 0.0936 0.7253 1.0660
H16 H 0.0161 0.6582 0.9870
N3 N -0.0024(2) 0.8208(2) 0.97171(19)
C20 C 0.0686(3) 0.8385(4) 0.9010(3)
H17 H 0.0556 0.9110 0.8745
H18 H 0.0513 0.7846 0.8516
H19 H 0.1455 0.8316 0.9304
C21 C -0.0838(3) 0.8888(5) 0.9804(3)
H20 H -0.0951 0.9476 0.9382
O5 O -0.1438(3) 0.8832(5) 1.0358(3)
loop_
_geom_bond_atom_site_label_1
_geom_bond_atom_site_label_2
_geom_bond_site_symmetry_1
_geom_bond_site_symmetry_2
Cu1 O2 1_555 1_555
S1 O1 1_555 1_555
O2 S1 1_555 1_555
O3 S1 1_555 1_555
O4 Cu1 1_555 1_555
N1 Cu1 1_555 1_555
C1 N1 1_555 1_555
H1 C1 1_555 1_555
C2 C1 1_555 1_555
H2 C2 1_555 1_555
C3 C2 1_555 1_555
C4 C3 1_555 1_555
H3 C4 1_555 1_555
C5 N1 1_555 1_555
H4 C5 1_555 1_555
N2 Cu1 1_555 1_555
C6 N2 1_555 1_555
C7 S1 1_555 1_555
C8 C7 1_555 1_555
H5 C8 1_555 1_555
C9 C8 1_555 1_555
H6 C9 1_555 1_555
C10 C9 1_555 1_555
H7 C10 1_555 1_555
C11 C6 1_555 1_555
H8 C11 1_555 1_555
C12 N2 1_555 1_555
H9 C12 1_555 1_555
C13 C12 1_555 1_555
C14 O4 1_555 1_555
C15 C14 1_555 1_555
H10 C15 1_555 1_555
C16 C15 1_555 1_555
H11 C16 1_555 1_555
C17 C16 1_555 1_555
H12 C17 1_555 1_555
C18 C13 1_555 1_555
H13 C18 1_555 1_555
C19 H14 1_555 1_555
H15 C19 1_555 1_555
H16 C19 1_555 1_555
N3 C19 1_555 1_555
C20 N3 1_555 1_555
H17 C20 1_555 1_555
H18 C20 1_555 1_555
H19 C20 1_555 1_555
C21 N3 1_555 1_555
H20 C21 1_555 1_555
O5 C21 1_555 1_555
N1B C1B 1_555 1_555
C1B H1B 1_555 1_555
C2B C1B 1_555 1_555
H2B C2B 1_555 1_555
C3B C3 1_555 1_555
C4B C3B 1_555 1_555
H3B C4B 1_555 1_555
C5B N1B 1_555 1_555
H4B C5B 1_555 1_555
Cu1B N1B 1_555 1_555
S1B O1B 1_555 1_555
O2B Cu1B 1_555 1_555
O3B S1B 1_555 1_555
O4B Cu1B 1_555 1_555
N2B Cu1B 1_555 1_555
C6B N2B 1_555 1_555
C7B S1B 1_555 1_555
C8B C7B 1_555 1_555
H5B C8B 1_555 1_555
C9B C8B 1_555 1_555
H6B C9B 1_555 1_555
C10B C9B 1_555 1_555
H7B C10B 1_555 1_555
C11B C6B 1_555 1_555
H8B C11B 1_555 1_555
C12B N2B 1_555 1_555
H9B C12B 1_555 1_555
C13B C12B 1_555 1_555
C14B O4B 1_555 1_555
C15B C14B 1_555 1_555
H10B C15B 1_555 1_555
C16B C15B 1_555 1_555
H11B C16B 1_555 1_555
C17B C16B 1_555 1_555
H12B C17B 1_555 1_555
C18B C13B 1_555 1_555
H13B C18B 1_555 1_555
Cu1_2 O4B 1_555 1_555
Cu1B_2 O4 1_555 1_555
O4_2 Cu1B 1_555 1_555
O4B_2 Cu1 1_555 1_555
C4 C5 1_555 1_555
C6 C7 1_555 1_555
C10 C11 1_555 1_555
C13 C14 1_555 1_555
C17 C18 1_555 1_555
C2B C3B 1_555 1_555
C4B C5B 1_555 1_555
S1B O2B 1_555 1_555
C6B C7B 1_555 1_555
C10B C11B 1_555 1_555
C13B C14B 1_555 1_555
C17B C18B 1_555 1_555
Cu1_2 O4_2 1_555 1_555
Cu1B_2 O4B_2 1_555 1_555

#END
