
#######################################################################
#
#                 Cambridge Crystallographic Data Centre
#                                CCDC 
#
#######################################################################
#
# If this CIF has been generated from an entry in the Cambridge 
# Structural Database, then it will include bibliographic, chemical, 
# crystal, experimental, refinement or atomic coordinate data resulting 
# from the CCDC's data processing and validation procedures.
#
#######################################################################

data_POZHUI
_symmetry_cell_setting           cubic
_symmetry_space_group_name_H-M   'I m -3 m'
_symmetry_Int_Tables_number      229
_space_group_name_Hall           '-I 4 2 3'
loop_
_symmetry_equiv_pos_site_id
_symmetry_equiv_pos_as_xyz
1 x,y,z
2 -x,-y,z
3 -x,y,-z
4 x,-y,-z
5 z,x,y
6 z,-x,-y
7 -z,-x,y
8 -z,x,-y
9 y,z,x
10 -y,z,-x
11 y,-z,-x
12 -y,-z,x
13 y,x,-z
14 -y,-x,-z
15 y,-x,z
16 -y,x,z
17 x,z,-y
18 -x,z,y
19 -x,-z,-y
20 x,-z,y
21 z,y,-x
22 z,-y,x
23 -z,y,x
24 -z,-y,-x
25 1/2+x,1/2+y,1/2+z
26 1/2-x,1/2-y,1/2+z
27 1/2-x,1/2+y,1/2-z
28 1/2+x,1/2-y,1/2-z
29 1/2+z,1/2+x,1/2+y
30 1/2+z,1/2-x,1/2-y
31 1/2-z,1/2-x,1/2+y
32 1/2-z,1/2+x,1/2-y
33 1/2+y,1/2+z,1/2+x
34 1/2-y,1/2+z,1/2-x
35 1/2+y,1/2-z,1/2-x
36 1/2-y,1/2-z,1/2+x
37 1/2+y,1/2+x,1/2-z
38 1/2-y,1/2-x,1/2-z
39 1/2+y,1/2-x,1/2+z
40 1/2-y,1/2+x,1/2+z
41 1/2+x,1/2+z,1/2-y
42 1/2-x,1/2+z,1/2+y
43 1/2-x,1/2-z,1/2-y
44 1/2+x,1/2-z,1/2+y
45 1/2+z,1/2+y,1/2-x
46 1/2+z,1/2-y,1/2+x
47 1/2-z,1/2+y,1/2+x
48 1/2-z,1/2-y,1/2-x
49 -x,-y,-z
50 x,y,-z
51 x,-y,z
52 -x,y,z
53 -z,-x,-y
54 -z,x,y
55 z,x,-y
56 z,-x,y
57 -y,-z,-x
58 y,-z,x
59 -y,z,x
60 y,z,-x
61 -y,-x,z
62 y,x,z
63 -y,x,-z
64 y,-x,-z
65 -x,-z,y
66 x,-z,-y
67 x,z,y
68 -x,z,-y
69 -z,-y,x
70 -z,y,-x
71 z,-y,-x
72 z,y,x
73 1/2-x,1/2-y,1/2-z
74 1/2+x,1/2+y,1/2-z
75 1/2+x,1/2-y,1/2+z
76 1/2-x,1/2+y,1/2+z
77 1/2-z,1/2-x,1/2-y
78 1/2-z,1/2+x,1/2+y
79 1/2+z,1/2+x,1/2-y
80 1/2+z,1/2-x,1/2+y
81 1/2-y,1/2-z,1/2-x
82 1/2+y,1/2-z,1/2+x
83 1/2-y,1/2+z,1/2+x
84 1/2+y,1/2+z,1/2-x
85 1/2-y,1/2-x,1/2+z
86 1/2+y,1/2+x,1/2+z
87 1/2-y,1/2+x,1/2-z
88 1/2+y,1/2-x,1/2-z
89 1/2-x,1/2-z,1/2+y
90 1/2+x,1/2-z,1/2-y
91 1/2+x,1/2+z,1/2+y
92 1/2-x,1/2+z,1/2-y
93 1/2-z,1/2-y,1/2+x
94 1/2-z,1/2+y,1/2-x
95 1/2+z,1/2-y,1/2-x
96 1/2+z,1/2+y,1/2+x
_cell_length_a                   30.9840(2)
_cell_length_b                   30.9840(2)
_cell_length_c                   30.9840(2)
_cell_angle_alpha                90
_cell_angle_beta                 90
_cell_angle_gamma                90
_cell_volume                     29744.9
loop_
_atom_site_label
_atom_site_type_symbol
_atom_site_fract_x
_atom_site_fract_y
_atom_site_fract_z
In1 In 0.104396(8) 0.395604(8) 0.2500
N1 N 0.15239(10) 0.37804(9) 0.20259(10)
C1 C 0.18692(13) 0.39721(15) 0.18692(13)
H1 H 0.1990 0.4218 0.1990
C2 C 0.14508(12) 0.34317(12) 0.17605(13)
C3 C 0.10766(14) 0.31515(15) 0.18482(15)
O1 O 0.08258(9) 0.32539(9) 0.21453(9)
O2 O 0.10230(12) 0.28211(12) 0.16034(13)
N2 N 0.10498(9) 0.46446(10) 0.23328(9)
C4 C 0.08593(11) 0.47789(11) 0.19586(10)
O3 O 0.06846(10) 0.40778(10) 0.17593(9)
O4 O 0.05273(12) 0.45980(11) 0.12966(10)
C5 C 0.06810(13) 0.44607(13) 0.16549(11)
C6 C 0.11543(19) 0.5000 0.25472(16)
H2 H 0.1286 0.5000 0.2817
In1SB In 0.2500 0.395604(8) 0.104396(8)
In1XA In 0.104396(8) 0.604396(8) 0.2500
In1NB In 0.104396(8) 0.2500 0.395604(8)
In1YA In -0.104396(8) 0.395604(8) 0.2500
N1SB N 0.20259(10) 0.37804(9) 0.15239(10)
N1KA N 0.12196(9) 0.34761(10) 0.29741(10)
N1BC N 0.12196(9) 0.29741(10) 0.34761(10)
N1XB N 0.29741(10) 0.34761(10) 0.12196(9)
C1KA C 0.10279(15) 0.31308(13) 0.31308(13)
H1KA H 0.0782 0.3010 0.3010
C2SB C 0.17605(13) 0.34317(12) 0.14508(12)
C2KA C 0.15683(12) 0.35492(12) 0.32395(13)
C2BC C 0.15683(12) 0.32395(13) 0.35492(12)
C3SB C 0.18482(15) 0.31515(15) 0.10766(14)
C3KA C 0.18485(15) 0.39234(14) 0.31518(15)
C3BC C 0.18485(15) 0.31518(15) 0.39234(14)
O1SB O 0.21453(9) 0.32539(9) 0.08258(9)
O1KA O 0.17461(9) 0.41742(9) 0.28547(9)
O1BC O 0.17461(9) 0.28547(9) 0.41742(9)
O1XB O 0.28547(9) 0.41742(9) 0.17461(9)
O2SB O 0.16034(13) 0.28211(12) 0.10230(12)
O2KA O 0.21789(12) 0.39770(12) 0.33966(13)
O2BC O 0.21789(12) 0.33966(13) 0.39770(12)
N2XA N 0.10498(9) 0.53554(10) 0.23328(9)
N2KA N 0.03554(10) 0.39502(9) 0.26672(9)
N2IC N -0.03554(10) 0.39502(9) 0.26672(9)
N2SB N 0.23328(9) 0.46446(10) 0.10498(9)
N2XB N 0.26672(9) 0.39502(9) 0.03554(10)
C4XA C 0.08593(11) 0.52211(11) 0.19586(10)
C4KA C 0.02211(11) 0.41407(11) 0.30414(10)
C4IC C -0.02211(11) 0.41407(11) 0.30414(10)
O3XA O 0.06846(10) 0.59222(10) 0.17593(9)
O3KA O 0.09222(10) 0.43154(10) 0.32407(9)
O3IC O -0.09222(10) 0.43154(10) 0.32407(9)
O3XB O 0.32407(9) 0.43154(10) 0.09222(10)
O3SB O 0.17593(9) 0.40778(10) 0.06846(10)
O4XA O 0.05273(12) 0.54020(11) 0.12966(10)
O4KA O 0.04020(11) 0.44727(12) 0.37034(10)
O4IC O -0.04020(11) 0.44727(12) 0.37034(10)
C5XA C 0.06810(13) 0.55393(13) 0.16549(11)
C5KA C 0.05393(13) 0.43190(13) 0.33451(11)
C5IC C -0.05393(13) 0.43190(13) 0.33451(11)
C6KA C 0.0000 0.38457(19) 0.24528(16)
H2KA H 0.0000 0.3714 0.2183
Mg1 Mg 0.21542(19) 0.0000 0.21542(19)
O5 O 0.2158(3) 0.0611(5) 0.2158(3)
O6 O 0.2765(5) 0.0000 0.2090(7)
O7 O 0.1443(9) 0.0000 0.2102(9)
O5U O 0.2158(3) -0.0611(5) 0.2158(3)
O6U O 0.2090(7) 0.0000 0.2765(5)
O7U O 0.2102(9) 0.0000 0.1443(9)
loop_
_geom_bond_atom_site_label_1
_geom_bond_atom_site_label_2
_geom_bond_site_symmetry_1
_geom_bond_site_symmetry_2
In1 N1 1_555 1_555
N1 C1 1_555 1_555
C1 H1 1_555 1_555
C2 N1 1_555 1_555
C3 C2 1_555 1_555
O1 In1 1_555 1_555
O2 C3 1_555 1_555
N2 In1 1_555 1_555
C4 N2 1_555 1_555
O3 In1 1_555 1_555
O4 C5 1_555 1_555
C5 C4 1_555 1_555
C6 N2 1_555 1_555
H2 C6 1_555 1_555
Mg1 O5 1_555 1_555
O6 Mg1 1_555 1_555
O7 Mg1 1_555 1_555
In1SB N1SB 1_555 1_555
In1XA N2XA 1_555 1_555
In1NB N1BC 1_555 1_555
In1YA N2IC 1_555 1_555
N1SB C1 1_555 1_555
N1KA In1 1_555 1_555
N1BC C1KA 1_555 1_555
N1XB In1SB 1_555 1_555
C1KA N1KA 1_555 1_555
H1KA C1KA 1_555 1_555
C2SB C2 1_555 1_555
C2KA N1KA 1_555 1_555
C2BC N1BC 1_555 1_555
C3SB C2SB 1_555 1_555
C3KA C2KA 1_555 1_555
C3BC C2BC 1_555 1_555
O1SB In1SB 1_555 1_555
O1KA In1 1_555 1_555
O1BC In1NB 1_555 1_555
O1XB In1SB 1_555 1_555
O2SB C3SB 1_555 1_555
O2KA C3KA 1_555 1_555
O2BC C3BC 1_555 1_555
N2XA C6 1_555 1_555
N2KA In1 1_555 1_555
N2IC C4IC 1_555 1_555
N2SB In1SB 1_555 1_555
N2XB In1SB 1_555 1_555
C4XA C4 1_555 1_555
C4KA N2KA 1_555 1_555
C4IC C4KA 1_555 1_555
O3XA In1XA 1_555 1_555
O3KA In1 1_555 1_555
O3IC In1YA 1_555 1_555
O3XB In1SB 1_555 1_555
O3SB In1SB 1_555 1_555
O4XA C5XA 1_555 1_555
O4KA C5KA 1_555 1_555
O4IC C5IC 1_555 1_555
C5XA C4XA 1_555 1_555
C5KA C4KA 1_555 1_555
C5IC C4IC 1_555 1_555
C6KA N2KA 1_555 1_555
H2KA C6KA 1_555 1_555
O5U Mg1 1_555 1_555
O6U Mg1 1_555 1_555
O7U Mg1 1_555 1_555
C3 O1 1_555 1_555
O3 C5 1_555 1_555
N1SB C2SB 1_555 1_555
C2KA C2BC 1_555 1_555
C3SB O1SB 1_555 1_555
C3KA O1KA 1_555 1_555
C3BC O1BC 1_555 1_555
N2XA C4XA 1_555 1_555
N2IC C6KA 1_555 1_555
O3XA C5XA 1_555 1_555
O3KA C5KA 1_555 1_555
O3IC C5IC 1_555 1_555

#END
