
#######################################################################
#
#                 Cambridge Crystallographic Data Centre
#                                CCDC 
#
#######################################################################
#
# If this CIF has been generated from an entry in the Cambridge 
# Structural Database, then it will include bibliographic, chemical, 
# crystal, experimental, refinement or atomic coordinate data resulting 
# from the CCDC's data processing and validation procedures.
#
#######################################################################

data_POZHOB
_symmetry_cell_setting           monoclinic
_symmetry_space_group_name_H-M   'P 21/c'
_symmetry_Int_Tables_number      14
_space_group_name_Hall           '-P 2ybc'
loop_
_symmetry_equiv_pos_site_id
_symmetry_equiv_pos_as_xyz
1 x,y,z
2 x,1/2-y,1/2+z
3 -x,-y,-z
4 -x,1/2+y,1/2-z
_cell_length_a                   12.7656(3)
_cell_length_b                   9.6624(3)
_cell_length_c                   19.8051(4)
_cell_angle_alpha                90
_cell_angle_beta                 91.856(1)
_cell_angle_gamma                90
_cell_volume                     2441.6
loop_
_atom_site_label
_atom_site_type_symbol
_atom_site_fract_x
_atom_site_fract_y
_atom_site_fract_z
K1 K -0.11346(8) 0.36632(10) 0.00583(5)
K2 K -0.39551(8) 0.14403(10) 0.00253(4)
S1 S 0.08155(10) 0.34740(12) -0.10302(6)
S2 S -0.40906(10) -0.13049(13) -0.10472(6)
N1 N -0.0613(3) 0.5477(4) -0.1004(2)
N2 N -0.5527(3) 0.0705(4) -0.0999(2)
O1 O -0.1050(3) 0.0907(3) 0.0448(2)
O2 O -0.2190(2) 0.1409(3) -0.07534(15)
O3 O -0.2902(2) 0.3944(3) -0.08250(14)
O4 O -0.3679(2) 0.4260(3) 0.04405(14)
O5 O -0.2298(3) 0.2574(3) 0.1180(2)
C1 C 0.0084(4) 0.4830(4) -0.1394(2)
C2 C 0.0214(5) 0.5263(5) -0.2070(2)
H1 H 0.0717(5) 0.4847(5) -0.2332(2)
C3 C -0.0407(7) 0.6300(6) -0.2334(3)
H2 H -0.0328(7) 0.6586(6) -0.2778(3)
C4 C -0.1154(5) 0.6925(6) -0.1943(3)
H3 H -0.1593(5) 0.7614(6) -0.2118(3)
C5 C -0.1219(4) 0.6480(5) -0.1278(3)
H4 H -0.1709(4) 0.6900(5) -0.1008(3)
C6 C -0.4893(4) -0.0043(4) -0.1412(2)
C7 C -0.4909(4) 0.0241(5) -0.2109(2)
H5 H -0.4473(4) -0.0253(5) -0.2389(2)
C8 C -0.5560(5) 0.1238(6) -0.2379(2)
H6 H -0.5566(5) 0.1417(6) -0.2840(2)
C9 C -0.6214(4) 0.1982(5) -0.1962(2)
H7 H -0.6663(4) 0.2662(5) -0.2135(2)
C10 C -0.6167(4) 0.1670(5) -0.1287(3)
H8 H -0.6607(4) 0.2157(5) -0.1006(3)
C11 C -0.1458(4) -0.0192(5) 0.0036(2)
H9 H -0.2164(4) -0.0421(5) 0.0166(2)
H10 H -0.1023(4) -0.1010(5) 0.0092(2)
C12 C -0.1466(4) 0.0285(5) -0.0688(2)
H11 H -0.0771(4) 0.0585(5) -0.0807(2)
H12 H -0.1680(4) -0.0466(5) -0.0987(2)
C13 C -0.2179(4) 0.2063(5) -0.1401(2)
H13 H -0.2299(4) 0.1384(5) -0.1756(2)
H14 H -0.1506(4) 0.2500(5) -0.1467(2)
C14 C -0.3036(4) 0.3128(5) -0.1423(2)
H15 H -0.2985(4) 0.3705(5) -0.1821(2)
H16 H -0.3717(4) 0.2683(5) -0.1435(2)
C15 C -0.3720(4) 0.4912(5) -0.0716(2)
H17 H -0.4398(4) 0.4472(5) -0.0782(2)
H18 H -0.3676(4) 0.5679(5) -0.1029(2)
C16 C -0.3582(4) 0.5417(5) -0.0002(2)
H19 H -0.2898(4) 0.5842(5) 0.0064(2)
H20 H -0.4112(4) 0.6104(5) 0.0092(2)
C17 C -0.3386(4) 0.4552(5) 0.1128(2)
H21 H -0.3950(4) 0.5040(5) 0.1344(2)
H22 H -0.2768(4) 0.5136(5) 0.1148(2)
C18 C -0.3164(4) 0.3215(5) 0.1489(2)
H23 H -0.2999(4) 0.3388(5) 0.1963(2)
H24 H -0.3773(4) 0.2615(5) 0.1456(2)
C19 C -0.2045(4) 0.1273(5) 0.1456(2)
H25 H -0.2620(4) 0.0636(5) 0.1367(2)
H26 H -0.1943(4) 0.1356(5) 0.1942(2)
C20 C -0.1094(4) 0.0731(6) 0.1166(2)
H27 H -0.0493(4) 0.1189(6) 0.1379(2)
H28 H -0.1040(4) -0.0248(6) 0.1270(2)
K1B K 0.11346(8) 0.63368(10) -0.00583(5)
S1B S -0.08155(10) 0.65260(12) 0.10302(6)
N1B N 0.0613(3) 0.4523(4) 0.1004(2)
K2B K -0.60449(8) -0.14403(10) -0.00253(4)
S2B S -0.59094(10) 0.13049(13) 0.10472(6)
N2B N -0.4473(3) -0.0705(4) 0.0999(2)
loop_
_geom_bond_atom_site_label_1
_geom_bond_atom_site_label_2
_geom_bond_site_symmetry_1
_geom_bond_site_symmetry_2
K1 S1 1_555 1_555
K2 S2 1_555 1_555
S1 C1 1_555 1_555
S2 C6 1_555 1_555
N1 K1 1_555 1_555
N2 K2 1_555 1_555
O1 K1 1_555 1_555
O2 K1 1_555 1_555
O3 K1 1_555 1_555
O4 K1 1_555 1_555
O5 K1 1_555 1_555
C1 N1 1_555 1_555
C2 C1 1_555 1_555
H1 C2 1_555 1_555
C3 C2 1_555 1_555
H2 C3 1_555 1_555
C4 C3 1_555 1_555
H3 C4 1_555 1_555
C5 N1 1_555 1_555
H4 C5 1_555 1_555
C6 N2 1_555 1_555
C7 C6 1_555 1_555
H5 C7 1_555 1_555
C8 C7 1_555 1_555
H6 C8 1_555 1_555
C9 C8 1_555 1_555
H7 C9 1_555 1_555
C10 N2 1_555 1_555
H8 C10 1_555 1_555
C11 O1 1_555 1_555
H9 C11 1_555 1_555
H10 C11 1_555 1_555
C12 O2 1_555 1_555
H11 C12 1_555 1_555
H12 C12 1_555 1_555
C13 O2 1_555 1_555
H13 C13 1_555 1_555
H14 C13 1_555 1_555
C14 O3 1_555 1_555
H15 C14 1_555 1_555
H16 C14 1_555 1_555
C15 O3 1_555 1_555
H17 C15 1_555 1_555
H18 C15 1_555 1_555
C16 O4 1_555 1_555
H19 C16 1_555 1_555
H20 C16 1_555 1_555
C17 O4 1_555 1_555
H21 C17 1_555 1_555
H22 C17 1_555 1_555
C18 O5 1_555 1_555
H23 C18 1_555 1_555
H24 C18 1_555 1_555
C19 O5 1_555 1_555
H25 C19 1_555 1_555
H26 C19 1_555 1_555
C20 O1 1_555 1_555
H27 C20 1_555 1_555
H28 C20 1_555 1_555
K1B S1 1_555 1_555
S1B K1 1_555 1_555
N1B K1 1_555 1_555
K2B S2 1_555 1_555
S2B K2 1_555 1_555
N2B K2 1_555 1_555
K2 O2 1_555 1_555
K2 O3 1_555 1_555
K2 O4 1_555 1_555
K2 O5 1_555 1_555
N1 K1B 1_555 1_555
N2 K2B 1_555 1_555
C4 C5 1_555 1_555
C9 C10 1_555 1_555
C11 C12 1_555 1_555
C13 C14 1_555 1_555
C15 C16 1_555 1_555
C17 C18 1_555 1_555
C19 C20 1_555 1_555
K1B S1B 1_555 1_555
K1B N1B 1_555 1_555
K2B S2B 1_555 1_555
K2B N2B 1_555 1_555

#END
