
#######################################################################
#
#                 Cambridge Crystallographic Data Centre
#                                CCDC 
#
#######################################################################
#
# If this CIF has been generated from an entry in the Cambridge 
# Structural Database, then it will include bibliographic, chemical, 
# crystal, experimental, refinement or atomic coordinate data resulting 
# from the CCDC's data processing and validation procedures.
#
#######################################################################

data_POZMUO
_symmetry_cell_setting           monoclinic
_symmetry_space_group_name_H-M   'C 2'
_symmetry_Int_Tables_number      5
_space_group_name_Hall           'C 2y'
loop_
_symmetry_equiv_pos_site_id
_symmetry_equiv_pos_as_xyz
1 x,y,z
2 -x,y,-z
3 1/2+x,1/2+y,z
4 1/2-x,1/2+y,-z
_cell_length_a                   16.8441(7)
_cell_length_b                   7.0162(3)
_cell_length_c                   31.0687(11)
_cell_angle_alpha                90
_cell_angle_beta                 95.858(4)
_cell_angle_gamma                90
_cell_volume                     3652.57
loop_
_atom_site_label
_atom_site_type_symbol
_atom_site_fract_x
_atom_site_fract_y
_atom_site_fract_z
Cu1 Cu 0.49956(3) 0.44620(13) 0.75364(2)
Cl1 Cl 0.50507(6) 0.20603(16) 0.80280(3)
Cl2 Cl 0.49541(6) 0.68806(15) 0.70465(3)
N1 N 0.4122(2) 0.5702(6) 0.78282(10)
N2 N 0.1819(2) 0.3758(6) 0.83671(10)
H1 H 0.189(2) 0.431(6) 0.8614(8)
N3 N 0.1005(2) -0.0322(7) 0.88274(9)
H2 H 0.083(2) -0.098(6) 0.8605(9)
N4 N 0.5828(2) 0.3183(5) 0.72198(10)
N5 N 0.8019(2) 0.5347(7) 0.66402(11)
H3 H 0.788(3) 0.493(7) 0.6384(7)
N6 N 0.8945(2) 0.9522(9) 0.62847(10)
H4 H 0.914(2) 0.993(7) 0.6534(7)
O1 O 0.1229(2) 0.1179(6) 0.80446(9)
O2 O 0.1584(3) 0.2294(7) 0.91377(10)
O3 O 0.2039(2) -0.3177(7) 0.90989(11)
O4 O 0.15862(19) -0.3243(6) 0.97500(8)
O5 O 0.8741(2) 0.7658(6) 0.70148(9)
O6 O 0.8142(2) 0.7398(7) 0.59100(11)
O7 O 0.7866(2) 1.2111(8) 0.58977(12)
O8 O 0.8532(2) 1.2313(7) 0.53246(10)
C1 C 0.4226(3) 0.7463(7) 0.79973(13)
H5 H 0.4715 0.8073 0.7988
C2 C 0.3629(3) 0.8374(8) 0.81826(16)
H6 H 0.372 0.9569 0.8307
C3 C 0.2891(3) 0.7524(8) 0.81849(15)
H7 H 0.2478 0.8149 0.8304
C4 C 0.2774(3) 0.5728(7) 0.80067(12)
C5 C 0.3416(2) 0.4866(8) 0.78374(12)
H8 H 0.3349 0.3642 0.7725
C6 C 0.1967(2) 0.4772(10) 0.79710(12)
H9 H 0.1556 0.5728 0.7908
H10 H 0.1933 0.3877 0.7732
C7 C 0.1459(2) 0.2092(8) 0.83643(12)
C8 C 0.1357(3) 0.1386(8) 0.88234(13)
C9 C 0.0903(2) -0.1256(7) 0.92314(12)
H11 H 0.0926 -0.0286 0.9459
C10 C 0.1577(3) -0.2669(8) 0.93442(13)
C11 C 0.2168(3) -0.4653(9) 0.98998(16)
H12 H 0.2123 -0.5729 0.9708
H13 H 0.2075 -0.5056 1.0186
H14 H 0.2693 -0.4118 0.9906
C12 C 0.0096(3) -0.2256(8) 0.92147(14)
H15 H 0.0084 -0.3279 0.9004
H16 H 0.0044 -0.2826 0.9495
C13 C -0.0619(3) -0.0950(12) 0.90972(15)
H17 H -0.0583 -0.0478 0.8803
C14 C -0.0652(4) 0.0731(14) 0.9386(2)
H18 H -0.065 0.0311 0.968
H19 H -0.1132 0.1438 0.9304
H20 H -0.0197 0.1531 0.936
C15 C -0.1377(3) -0.2110(14) 0.9092(2)
H21 H -0.1356 -0.3159 0.8895
H22 H -0.1827 -0.1319 0.9
H23 H -0.1428 -0.2588 0.9377
C16 C 0.5701(3) 0.1484(8) 0.70415(13)
H24 H 0.5214 0.0887 0.7064
C17 C 0.6259(3) 0.0572(8) 0.68253(15)
H25 H 0.6146 -0.0605 0.6696
C18 C 0.6987(3) 0.1422(9) 0.68024(15)
H26 H 0.7372 0.0824 0.6656
C19 C 0.7148(3) 0.3168(8) 0.69982(13)
C20 C 0.6541(2) 0.4010(7) 0.71980(12)
H27 H 0.663 0.5205 0.7323
C21 C 0.7955(3) 0.4109(9) 0.70069(14)
H28 H 0.8055 0.4846 0.7271
H29 H 0.8363 0.313 0.7011
C22 C 0.8426(3) 0.6987(8) 0.66770(12)
C23 C 0.8491(3) 0.8016(8) 0.62457(13)
C24 C 0.9158(3) 1.0663(8) 0.59224(13)
H30 H 0.953 1.1638 0.6047
C25 C 0.8438(3) 1.1724(9) 0.57173(14)
C26 C 0.7915(4) 1.3569(11) 0.51171(19)
H31 H 0.7399 1.3042 0.5149
H32 H 0.7983 1.3687 0.4815
H33 H 0.7959 1.4804 0.5251
C27 C 0.9614(3) 0.9503(10) 0.56151(13)
H34 H 0.971 1.0289 0.5369
H35 H 0.9289 0.843 0.5508
C28 C 1.0412(4) 0.8762(14) 0.5828(2)
H36 H 1.0317 0.8274 0.6114
C29 C 1.0703(5) 0.7062(18) 0.5568(3)
H37 H 1.0882 0.7521 0.5303
H38 H 1.0272 0.618 0.5503
H39 H 1.1135 0.6431 0.5736
C30 C 1.1015(5) 1.026(2) 0.5897(3)
H40 H 1.0913 1.1228 0.5679
H41 H 1.1535 0.9728 0.5878
H42 H 1.0993 1.0818 0.6178
Cu1B Cu -0.00044(3) -0.05380(13) 0.75364(2)
O1B O 0.6229(2) 0.6179(6) 0.80446(9)
loop_
_geom_bond_atom_site_label_1
_geom_bond_atom_site_label_2
_geom_bond_site_symmetry_1
_geom_bond_site_symmetry_2
Cu1 Cl1 1_555 1_555
Cl2 Cu1 1_555 1_555
N1 Cu1 1_555 1_555
N2 H1 1_555 1_555
N3 H2 1_555 1_555
N4 Cu1 1_555 1_555
N5 H3 1_555 1_555
N6 H4 1_555 1_555
O1 C7 1_555 1_555
O2 C8 1_555 1_555
O3 C10 1_555 1_555
O4 C10 1_555 1_555
O5 C22 1_555 1_555
O6 C23 1_555 1_555
O7 C25 1_555 1_555
O8 C25 1_555 1_555
C1 N1 1_555 1_555
H5 C1 1_555 1_555
C2 C1 1_555 1_555
H6 C2 1_555 1_555
C3 C2 1_555 1_555
H7 C3 1_555 1_555
C4 C3 1_555 1_555
C5 N1 1_555 1_555
H8 C5 1_555 1_555
C6 N2 1_555 1_555
H9 C6 1_555 1_555
H10 C6 1_555 1_555
C7 N2 1_555 1_555
C8 N3 1_555 1_555
C9 N3 1_555 1_555
H11 C9 1_555 1_555
C10 C9 1_555 1_555
C11 O4 1_555 1_555
H12 C11 1_555 1_555
H13 C11 1_555 1_555
H14 C11 1_555 1_555
C12 C9 1_555 1_555
H15 C12 1_555 1_555
H16 C12 1_555 1_555
C13 C12 1_555 1_555
H17 C13 1_555 1_555
C14 C13 1_555 1_555
H18 C14 1_555 1_555
H19 C14 1_555 1_555
H20 C14 1_555 1_555
C15 C13 1_555 1_555
H21 C15 1_555 1_555
H22 C15 1_555 1_555
H23 C15 1_555 1_555
C16 N4 1_555 1_555
H24 C16 1_555 1_555
C17 C16 1_555 1_555
H25 C17 1_555 1_555
C18 C17 1_555 1_555
H26 C18 1_555 1_555
C19 C18 1_555 1_555
C20 N4 1_555 1_555
H27 C20 1_555 1_555
C21 N5 1_555 1_555
H28 C21 1_555 1_555
H29 C21 1_555 1_555
C22 N5 1_555 1_555
C23 N6 1_555 1_555
C24 N6 1_555 1_555
H30 C24 1_555 1_555
C25 C24 1_555 1_555
C26 O8 1_555 1_555
H31 C26 1_555 1_555
H32 C26 1_555 1_555
H33 C26 1_555 1_555
C27 C24 1_555 1_555
H34 C27 1_555 1_555
H35 C27 1_555 1_555
C28 C27 1_555 1_555
H36 C28 1_555 1_555
C29 C28 1_555 1_555
H37 C29 1_555 1_555
H38 C29 1_555 1_555
H39 C29 1_555 1_555
C30 C28 1_555 1_555
H40 C30 1_555 1_555
H41 C30 1_555 1_555
H42 C30 1_555 1_555
Cu1B O1 1_555 1_555
O1B Cu1 1_555 1_555
C4 C5 1_555 1_555
C4 C6 1_555 1_555
C7 C8 1_555 1_555
C19 C20 1_555 1_555
C19 C21 1_555 1_555
C22 C23 1_555 1_555

#END
