
#######################################################################
#
#                 Cambridge Crystallographic Data Centre
#                                CCDC 
#
#######################################################################
#
# If this CIF has been generated from an entry in the Cambridge 
# Structural Database, then it will include bibliographic, chemical, 
# crystal, experimental, refinement or atomic coordinate data resulting 
# from the CCDC's data processing and validation procedures.
#
#######################################################################

data_POZNEZ
_symmetry_cell_setting           monoclinic
_symmetry_space_group_name_H-M   'C 2/c'
_symmetry_Int_Tables_number      15
_space_group_name_Hall           '-C 2yn'
loop_
_symmetry_equiv_pos_site_id
_symmetry_equiv_pos_as_xyz
1 x,y,z
2 -x,y,1/2-z
3 1/2+x,1/2+y,z
4 1/2-x,1/2+y,1/2-z
5 -x,-y,-z
6 x,-y,1/2+z
7 1/2-x,1/2-y,-z
8 1/2+x,1/2-y,1/2+z
_cell_length_a                   32.2015(9)
_cell_length_b                   9.3890(3)
_cell_length_c                   38.2629(12)
_cell_angle_alpha                90
_cell_angle_beta                 106.8590(10)
_cell_angle_gamma                90
_cell_volume                     11071.2
loop_
_atom_site_label
_atom_site_type_symbol
_atom_site_fract_x
_atom_site_fract_y
_atom_site_fract_z
C53 C 0.0929(3) 0.0714(10) 0.8554(3)
H37 H 0.1069 -0.0126 0.8684
H38 H 0.1145 0.1225 0.8471
Cl2 Cl 0.05330(16) 0.0193(6) 0.81906(15)
Cl3 Cl 0.07716(12) 0.1739(5) 0.88415(12)
C1 C 0.20408(13) -0.0334(4) 0.85980(11)
H1 H 0.2204 -0.0140 0.8837
C2 C 0.19458(13) 0.0683(4) 0.83140(12)
H2 H 0.2035 0.1629 0.8328
C3 C 0.16969(15) -0.0016(4) 0.80146(11)
H3 H 0.1580 0.0372 0.7783
C4 C 0.16469(12) -0.1435(4) 0.81183(9)
C5 C 0.14200(13) -0.2513(4) 0.78964(9)
C6 C 0.13679(15) -0.3927(4) 0.79939(10)
C7 C 0.1130(2) -0.5016(5) 0.77592(14)
H4 H 0.0978 -0.4923 0.7513
C8 C 0.1170(2) -0.6211(5) 0.79646(14)
H5 H 0.1051 -0.7099 0.7886
C9 C 0.14253(18) -0.5855(4) 0.83176(13)
H6 H 0.1500 -0.6490 0.8512
C10 C 0.12054(14) -0.2141(4) 0.75010(9)
C11 C 0.0805(2) -0.1575(8) 0.73876(12)
H7 H 0.0656 -0.1367 0.7556
C12 C 0.06137(18) -0.1299(8) 0.70159(12)
H8 H 0.0338 -0.0895 0.6940
C13 C 0.08240(13) -0.1612(4) 0.67617(9)
C14 C 0.12303(15) -0.2130(6) 0.68840(11)
H9 H 0.1385 -0.2308 0.6718
C15 C 0.14239(15) -0.2404(6) 0.72495(12)
H10 H 0.1704 -0.2769 0.7325
C16 C 0.06103(12) -0.1330(4) 0.63681(9)
C17 C 0.03167(15) -0.0234(5) 0.62492(10)
H11 H 0.0244 0.0355 0.6418
C18 C 0.01321(14) -0.0015(4) 0.58807(10)
H12 H -0.0063 0.0734 0.5807
C19 C 0.04998(14) -0.1869(4) 0.57374(9)
H13 H 0.0564 -0.2448 0.5563
C20 C 0.07051(14) -0.2159(4) 0.61023(10)
H14 H 0.0904 -0.2902 0.6167
C21 C 0.27156(15) -0.3204(5) 0.84687(11)
H15 H 0.2600 -0.2369 0.8349
C22 C 0.31146(16) -0.3781(5) 0.84654(13)
H16 H 0.3305 -0.3412 0.8346
C23 C 0.31705(16) -0.4984(5) 0.86695(13)
H17 H 0.3408 -0.5595 0.8718
C24 C 0.27959(13) -0.5137(4) 0.87960(10)
C25 C 0.27096(12) -0.6222(4) 0.90088(10)
C26 C 0.23559(13) -0.6339(4) 0.91467(10)
C27 C 0.22575(16) -0.7489(4) 0.93527(11)
H18 H 0.2427 -0.8297 0.9429
C28 C 0.18767(17) -0.7202(4) 0.94177(12)
H19 H 0.1730 -0.7771 0.9542
C29 C 0.17469(14) -0.5848(4) 0.92577(11)
H20 H 0.1495 -0.5380 0.9265
C30 C 0.30366(13) -0.7402(4) 0.91177(11)
C31 C 0.30789(12) -0.8435(4) 0.88715(10)
H21 H 0.2912 -0.8374 0.8629
C32 C 0.33666(12) -0.9559(4) 0.89829(10)
H22 H 0.3383 -1.0263 0.8816
C33 C 0.36322(12) -0.9643(3) 0.93435(10)
C34 C 0.35904(15) -0.8593(4) 0.95845(12)
H23 H 0.3761 -0.8627 0.9827
C35 C 0.33015(16) -0.7506(4) 0.94699(13)
H24 H 0.3283 -0.6807 0.9637
C36 C 0.39297(11) -1.0857(4) 0.94841(10)
C37 C 0.38466(11) -1.2223(4) 0.93420(10)
H25 H 0.3604 -1.2398 0.9145
C38 C 0.41245(11) -1.3318(3) 0.94945(10)
H26 H 0.4060 -1.4227 0.9398
C39 C 0.45690(12) -1.1823(4) 0.99064(10)
H27 H 0.4822 -1.1673 1.0095
C40 C 0.43015(12) -1.0668(4) 0.97773(11)
H28 H 0.4369 -0.9777 0.9885
C41 C 0.27212(14) -0.2117(5) 0.93944(10)
H29 H 0.2897 -0.2516 0.9266
C42 C 0.29224(19) -0.1326(5) 0.97069(12)
H30 H 0.3222 -0.1211 0.9786
C43 C 0.26690(17) -0.0744(5) 0.98871(13)
H31 H 0.2796 -0.0190 1.0092
C44 C 0.22244(19) -0.0932(4) 0.97813(12)
C45 C 0.20382(15) -0.1787(4) 0.94477(10)
C46 C 0.15968(15) -0.1999(4) 0.93173(11)
C47 C 0.13150(17) -0.1425(5) 0.95161(14)
C48 C 0.15072(18) -0.0640(5) 0.98347(12)
H32 H 0.1328 -0.0277 0.9965
C49 C 0.1927(2) -0.0387(5) 0.99600(13)
H33 H 0.2032 0.0160 1.0170
C50 C 0.0888(2) -0.1694(6) 0.93730(17)
H34 H 0.0697 -0.1332 0.9492
C51 C 0.07192(16) -0.2477(6) 0.90601(16)
H35 H 0.0423 -0.2659 0.8971
C52 C 0.10231(17) -0.3009(6) 0.88736(15)
H36 H 0.0918 -0.3517 0.8657
N1 N 0.18693(9) -0.1607(3) 0.84844(7)
N2 N 0.15480(12) -0.4489(3) 0.83391(9)
N3 N 0.02195(9) -0.0827(3) 0.56228(7)
N4 N 0.25210(10) -0.3988(3) 0.86637(8)
N5 N 0.20268(10) -0.5330(3) 0.90960(8)
N6 N 0.44822(9) -1.3143(3) 0.97738(8)
N7 N 0.22928(10) -0.2341(3) 0.92668(7)
N8 N 0.14378(10) -0.2791(4) 0.90023(10)
Cl1 Cl -0.05735(3) 0.16194(10) 0.51373(2)
Ni1 Ni 0.195363(14) -0.34852(4) 0.878293(11)
Cd1 Cd 0.0000 0.0000 0.5000
C1D C -0.20408(13) 0.0334(4) 0.14020(11)
H1D H -0.2204 0.0140 0.1163
C2D C -0.19458(13) -0.0683(4) 0.16860(12)
H2D H -0.2035 -0.1629 0.1672
C3D C -0.16969(15) 0.0016(4) 0.19854(11)
H3D H -0.1580 -0.0372 0.2217
C4D C -0.16469(12) 0.1435(4) 0.18817(9)
C5D C -0.14200(13) 0.2513(4) 0.21036(9)
C6D C -0.13679(15) 0.3927(4) 0.20061(10)
C7D C -0.1130(2) 0.5016(5) 0.22408(14)
H4D H -0.0978 0.4923 0.2487
C8D C -0.1170(2) 0.6211(5) 0.20354(14)
H5D H -0.1051 0.7099 0.2114
C9D C -0.14253(18) 0.5855(4) 0.16824(13)
H6D H -0.1500 0.6490 0.1488
C10D C -0.12054(14) 0.2141(4) 0.24990(9)
C11D C -0.0805(2) 0.1575(8) 0.26124(12)
H7D H -0.0656 0.1367 0.2444
C12D C -0.06137(18) 0.1299(8) 0.29841(12)
H8D H -0.0338 0.0895 0.3060
C13D C -0.08240(13) 0.1612(4) 0.32383(9)
C14D C -0.12303(15) 0.2130(6) 0.31160(11)
H9D H -0.1385 0.2308 0.3282
C15D C -0.14239(15) 0.2404(6) 0.27505(12)
H10D H -0.1704 0.2769 0.2675
C16D C -0.06103(12) 0.1330(4) 0.36319(9)
C17D C -0.03167(15) 0.0234(5) 0.37508(10)
H11D H -0.0244 -0.0355 0.3582
C18D C -0.01321(14) 0.0015(4) 0.41193(10)
H12D H 0.0063 -0.0734 0.4193
C19D C -0.04998(14) 0.1869(4) 0.42626(9)
H13D H -0.0564 0.2448 0.4437
C20D C -0.07051(14) 0.2159(4) 0.38977(10)
H14D H -0.0904 0.2902 0.3833
C21D C -0.27156(15) 0.3204(5) 0.15313(11)
H15D H -0.2600 0.2369 0.1651
C22D C -0.31146(16) 0.3781(5) 0.15346(13)
H16D H -0.3305 0.3412 0.1654
C23D C -0.31705(16) 0.4984(5) 0.13305(13)
H17D H -0.3408 0.5595 0.1282
C24D C -0.27959(13) 0.5137(4) 0.12040(10)
C25D C -0.27096(12) 0.6222(4) 0.09912(10)
C26D C -0.23559(13) 0.6339(4) 0.08533(10)
C27D C -0.22575(16) 0.7489(4) 0.06473(11)
H18D H -0.2427 0.8297 0.0571
C28D C -0.18767(17) 0.7202(4) 0.05823(12)
H19D H -0.1730 0.7771 0.0458
C29D C -0.17469(14) 0.5848(4) 0.07423(11)
H20D H -0.1495 0.5380 0.0735
C30D C -0.30366(13) 0.7402(4) 0.08823(11)
C31D C -0.30789(12) 0.8435(4) 0.11285(10)
H21D H -0.2912 0.8374 0.1371
C32D C -0.33666(12) 0.9559(4) 0.10171(10)
H22D H -0.3383 1.0263 0.1184
C33D C -0.36322(12) 0.9643(3) 0.06565(10)
C34D C -0.35904(15) 0.8593(4) 0.04155(12)
H23D H -0.3761 0.8627 0.0173
C35D C -0.33015(16) 0.7506(4) 0.05301(13)
H24D H -0.3283 0.6807 0.0363
C36D C -0.39297(11) 1.0857(4) 0.05159(10)
C37D C -0.38466(11) 1.2223(4) 0.06580(10)
H25D H -0.3604 1.2398 0.0855
C38D C -0.41245(11) 1.3318(3) 0.05055(10)
H26D H -0.4060 1.4227 0.0602
C39D C -0.45690(12) 1.1823(4) 0.00936(10)
H27D H -0.4822 1.1673 -0.0095
C40D C -0.43015(12) 1.0668(4) 0.02227(11)
H28D H -0.4369 0.9777 0.0115
C41D C -0.27212(14) 0.2117(5) 0.06056(10)
H29D H -0.2897 0.2516 0.0734
C42D C -0.29224(19) 0.1326(5) 0.02931(12)
H30D H -0.3222 0.1211 0.0214
C43D C -0.26690(17) 0.0744(5) 0.01129(13)
H31D H -0.2796 0.0190 -0.0092
C44D C -0.22244(19) 0.0932(4) 0.02187(12)
C45D C -0.20382(15) 0.1787(4) 0.05523(10)
C46D C -0.15968(15) 0.1999(4) 0.06827(11)
C47D C -0.13150(17) 0.1425(5) 0.04839(14)
C48D C -0.15072(18) 0.0640(5) 0.01653(12)
H32D H -0.1328 0.0277 0.0035
C49D C -0.1927(2) 0.0387(5) 0.00400(13)
H33D H -0.2032 -0.0160 -0.0170
C50D C -0.0888(2) 0.1694(6) 0.06270(17)
H34D H -0.0697 0.1332 0.0508
C51D C -0.07192(16) 0.2477(6) 0.09399(16)
H35D H -0.0423 0.2659 0.1029
C52D C -0.10231(17) 0.3009(6) 0.11264(15)
H36D H -0.0918 0.3517 0.1343
N1D N -0.18693(9) 0.1607(3) 0.15156(7)
N2D N -0.15480(12) 0.4489(3) 0.16609(9)
N3D N -0.02195(9) 0.0827(3) 0.43772(7)
N4D N -0.25210(10) 0.3988(3) 0.13363(8)
N5D N -0.20268(10) 0.5330(3) 0.09040(8)
N6D N -0.44822(9) 1.3143(3) 0.02262(8)
N7D N -0.22928(10) 0.2341(3) 0.07332(7)
N8D N -0.14378(10) 0.2791(4) 0.09977(10)
Cl1D Cl 0.05735(3) -0.16194(10) 0.48627(2)
Ni1D Ni -0.195363(14) 0.34852(4) 0.121707(11)
N6C N 0.05178(9) 0.1857(3) 0.52262(8)
N6G N -0.05178(9) -0.1857(3) 0.47738(8)
Cd1C Cd -0.5000 1.5000 0.0000
Cd1C_2 Cd 0.5000 -1.5000 1.0000
loop_
_geom_bond_atom_site_label_1
_geom_bond_atom_site_label_2
_geom_bond_site_symmetry_1
_geom_bond_site_symmetry_2
C1 H1 1_555 1_555
C2 C1 1_555 1_555
H2 C2 1_555 1_555
C3 C2 1_555 1_555
H3 C3 1_555 1_555
C4 C3 1_555 1_555
C5 C4 1_555 1_555
C6 C5 1_555 1_555
C7 C6 1_555 1_555
H4 C7 1_555 1_555
C8 C7 1_555 1_555
H5 C8 1_555 1_555
C9 C8 1_555 1_555
H6 C9 1_555 1_555
C10 C5 1_555 1_555
C11 C10 1_555 1_555
H7 C11 1_555 1_555
C12 C11 1_555 1_555
H8 C12 1_555 1_555
C13 C12 1_555 1_555
C14 C13 1_555 1_555
H9 C14 1_555 1_555
C15 C10 1_555 1_555
H10 C15 1_555 1_555
C16 C13 1_555 1_555
C17 C16 1_555 1_555
H11 C17 1_555 1_555
C18 C17 1_555 1_555
H12 C18 1_555 1_555
C19 H13 1_555 1_555
C20 C16 1_555 1_555
H14 C20 1_555 1_555
C21 H15 1_555 1_555
C22 C21 1_555 1_555
H16 C22 1_555 1_555
C23 C22 1_555 1_555
H17 C23 1_555 1_555
C24 C23 1_555 1_555
C25 C24 1_555 1_555
C26 C25 1_555 1_555
C27 C26 1_555 1_555
H18 C27 1_555 1_555
C28 C27 1_555 1_555
H19 C28 1_555 1_555
C29 C28 1_555 1_555
H20 C29 1_555 1_555
C30 C25 1_555 1_555
C31 C30 1_555 1_555
H21 C31 1_555 1_555
C32 C31 1_555 1_555
H22 C32 1_555 1_555
C33 C32 1_555 1_555
C34 C33 1_555 1_555
H23 C34 1_555 1_555
C35 C30 1_555 1_555
H24 C35 1_555 1_555
C36 C33 1_555 1_555
C37 C36 1_555 1_555
H25 C37 1_555 1_555
C38 C37 1_555 1_555
H26 C38 1_555 1_555
C39 H27 1_555 1_555
C40 C36 1_555 1_555
H28 C40 1_555 1_555
C41 H29 1_555 1_555
C42 C41 1_555 1_555
H30 C42 1_555 1_555
C43 C42 1_555 1_555
H31 C43 1_555 1_555
C44 C43 1_555 1_555
C45 C44 1_555 1_555
C46 C45 1_555 1_555
C47 C46 1_555 1_555
C48 C47 1_555 1_555
H32 C48 1_555 1_555
C49 C44 1_555 1_555
H33 C49 1_555 1_555
C50 C47 1_555 1_555
H34 C50 1_555 1_555
C51 C50 1_555 1_555
H35 C51 1_555 1_555
C52 C51 1_555 1_555
H36 C52 1_555 1_555
N1 C1 1_555 1_555
N2 C6 1_555 1_555
N3 C18 1_555 1_555
N4 C21 1_555 1_555
N5 C26 1_555 1_555
N6 C38 1_555 1_555
N7 C41 1_555 1_555
N8 C46 1_555 1_555
Cl1 Cd1 1_555 1_555
Ni1 N1 1_555 1_555
Cd1 N3 1_555 1_555
C53 H37 1_555 1_555
H38 C53 1_555 1_555
Cl2 C53 1_555 1_555
Cl3 C53 1_555 1_555
C1D H1D 1_555 1_555
C2D C1D 1_555 1_555
H2D C2D 1_555 1_555
C3D C2D 1_555 1_555
H3D C3D 1_555 1_555
C4D C3D 1_555 1_555
C5D C4D 1_555 1_555
C6D C5D 1_555 1_555
C7D C6D 1_555 1_555
H4D C7D 1_555 1_555
C8D C7D 1_555 1_555
H5D C8D 1_555 1_555
C9D C8D 1_555 1_555
H6D C9D 1_555 1_555
C10D C5D 1_555 1_555
C11D C10D 1_555 1_555
H7D C11D 1_555 1_555
C12D C11D 1_555 1_555
H8D C12D 1_555 1_555
C13D C12D 1_555 1_555
C14D C13D 1_555 1_555
H9D C14D 1_555 1_555
C15D C10D 1_555 1_555
H10D C15D 1_555 1_555
C16D C13D 1_555 1_555
C17D C16D 1_555 1_555
H11D C17D 1_555 1_555
C18D C17D 1_555 1_555
H12D C18D 1_555 1_555
C19D H13D 1_555 1_555
C20D C16D 1_555 1_555
H14D C20D 1_555 1_555
C21D H15D 1_555 1_555
C22D C21D 1_555 1_555
H16D C22D 1_555 1_555
C23D C22D 1_555 1_555
H17D C23D 1_555 1_555
C24D C23D 1_555 1_555
C25D C24D 1_555 1_555
C26D C25D 1_555 1_555
C27D C26D 1_555 1_555
H18D C27D 1_555 1_555
C28D C27D 1_555 1_555
H19D C28D 1_555 1_555
C29D C28D 1_555 1_555
H20D C29D 1_555 1_555
C30D C25D 1_555 1_555
C31D C30D 1_555 1_555
H21D C31D 1_555 1_555
C32D C31D 1_555 1_555
H22D C32D 1_555 1_555
C33D C32D 1_555 1_555
C34D C33D 1_555 1_555
H23D C34D 1_555 1_555
C35D C30D 1_555 1_555
H24D C35D 1_555 1_555
C36D C33D 1_555 1_555
C37D C36D 1_555 1_555
H25D C37D 1_555 1_555
C38D C37D 1_555 1_555
H26D C38D 1_555 1_555
C39D H27D 1_555 1_555
C40D C36D 1_555 1_555
H28D C40D 1_555 1_555
C41D H29D 1_555 1_555
C42D C41D 1_555 1_555
H30D C42D 1_555 1_555
C43D C42D 1_555 1_555
H31D C43D 1_555 1_555
C44D C43D 1_555 1_555
C45D C44D 1_555 1_555
C46D C45D 1_555 1_555
C47D C46D 1_555 1_555
C48D C47D 1_555 1_555
H32D C48D 1_555 1_555
C49D C44D 1_555 1_555
H33D C49D 1_555 1_555
C50D C47D 1_555 1_555
H34D C50D 1_555 1_555
C51D C50D 1_555 1_555
H35D C51D 1_555 1_555
C52D C51D 1_555 1_555
H36D C52D 1_555 1_555
N1D C1D 1_555 1_555
N2D C6D 1_555 1_555
N3D Cd1 1_555 1_555
N4D C21D 1_555 1_555
N5D C26D 1_555 1_555
N6D C38D 1_555 1_555
N7D C41D 1_555 1_555
N8D C46D 1_555 1_555
Cl1D Cd1 1_555 1_555
Ni1D N1D 1_555 1_555
N6C Cd1 1_555 1_555
N6G Cd1 1_555 1_555
Cd1C N6D 1_555 1_555
Cd1C_2 N6 1_555 1_555
C4 N1 1_555 1_555
C9 N2 1_555 1_555
C14 C15 1_555 1_555
C19 C20 1_555 1_555
C19 N3 1_555 1_555
C24 N4 1_555 1_555
C29 N5 1_555 1_555
C34 C35 1_555 1_555
C39 C40 1_555 1_555
C39 N6 1_555 1_555
C45 N7 1_555 1_555
C48 C49 1_555 1_555
C52 N8 1_555 1_555
N2 Ni1 1_555 1_555
N4 Ni1 1_555 1_555
N5 Ni1 1_555 1_555
N7 Ni1 1_555 1_555
N8 Ni1 1_555 1_555
C4D N1D 1_555 1_555
C9D N2D 1_555 1_555
C14D C15D 1_555 1_555
C18D N3D 1_555 1_555
C19D C20D 1_555 1_555
C19D N3D 1_555 1_555
C24D N4D 1_555 1_555
C29D N5D 1_555 1_555
C34D C35D 1_555 1_555
C39D C40D 1_555 1_555
C39D N6D 1_555 1_555
C45D N7D 1_555 1_555
C48D C49D 1_555 1_555
C52D N8D 1_555 1_555
N2D Ni1D 1_555 1_555
N4D Ni1D 1_555 1_555
N5D Ni1D 1_555 1_555
N7D Ni1D 1_555 1_555
N8D Ni1D 1_555 1_555

#END
