
#######################################################################
#
#                 Cambridge Crystallographic Data Centre
#                                CCDC 
#
#######################################################################
#
# If this CIF has been generated from an entry in the Cambridge 
# Structural Database, then it will include bibliographic, chemical, 
# crystal, experimental, refinement or atomic coordinate data resulting 
# from the CCDC's data processing and validation procedures.
#
#######################################################################

data_POZQOM
_symmetry_cell_setting           monoclinic
_symmetry_space_group_name_H-M   'P 2/n'
_symmetry_Int_Tables_number      13
_space_group_name_Hall           '-P 2yac'
loop_
_symmetry_equiv_pos_site_id
_symmetry_equiv_pos_as_xyz
1 x,y,z
2 1/2-x,y,1/2-z
3 -x,-y,-z
4 1/2+x,-y,1/2+z
_cell_length_a                   22.2012(5)
_cell_length_b                   8.8143(2)
_cell_length_c                   22.3347(5)
_cell_angle_alpha                90
_cell_angle_beta                 102.1960(10)
_cell_angle_gamma                90
_cell_volume                     4271.99
loop_
_atom_site_label
_atom_site_type_symbol
_atom_site_fract_x
_atom_site_fract_y
_atom_site_fract_z
C1 C 0.48166(17) 0.2745(4) 0.01073(19)
H1 H 0.5013 0.2290 0.0472
C2 C 0.51734(18) 0.3232(5) -0.0302(2)
H2 H 0.5598 0.3096 -0.0208
C3 C 0.4898(2) 0.3904(5) -0.0837(2)
H3 H 0.5133 0.4228 -0.1111
C4 C 0.42555(19) 0.4108(4) -0.09738(18)
C5 C 0.39290(17) 0.3600(4) -0.05351(16)
C6 C 0.3919(2) 0.4814(5) -0.1522(2)
H4 H 0.4133 0.5174 -0.1809
C7 C 0.3300(2) 0.4972(5) -0.1633(2)
H5 H 0.3095 0.5404 -0.1999
C8 C 0.2950(2) 0.4476(5) -0.11891(18)
C9 C 0.32691(17) 0.3789(4) -0.06448(17)
C10 C 0.2316(2) 0.4635(6) -0.1269(2)
H6 H 0.2088 0.5073 -0.1624
C11 C 0.20310(19) 0.4141(6) -0.0820(2)
H7 H 0.1606 0.4235 -0.0869
C12 C 0.23780(16) 0.3496(5) -0.02881(19)
H8 H 0.2177 0.3174 0.0015
C13 C 0.35435(16) 0.5648(4) 0.08492(18)
H9 H 0.3333 0.5855 0.0452
C14 C 0.36335(17) 0.6716(4) 0.13293(18)
H10 H 0.3504 0.7722 0.1307
C15 C 0.39543(18) 0.5960(5) 0.18395(19)
H11 H 0.4078 0.6357 0.2232
C16 C 0.40598(15) 0.4461(4) 0.16513(16)
C17 C 0.43770(15) 0.3287(4) 0.20132(16)
C18 C 0.44998(16) 0.1840(4) 0.18152(16)
C19 C 0.4887(2) 0.0710(5) 0.2160(2)
H12 H 0.5093 0.0781 0.2567
C20 C 0.4898(2) -0.0488(5) 0.1779(2)
H13 H 0.5110 -0.1397 0.1873
C21 C 0.4519(2) -0.0071(4) 0.1208(2)
H14 H 0.4449 -0.0689 0.0863
C22 C 0.45735(16) 0.3603(4) 0.26806(16)
C23 C 0.43140(19) 0.2788(5) 0.30927(19)
H15 H 0.4045 0.1993 0.2956
C24 C 0.4455(2) 0.3156(5) 0.37057(19)
H16 H 0.4270 0.2602 0.3972
C25 C 0.4996(2) 0.4724(5) 0.29216(19)
H17 H 0.5192 0.5288 0.2667
C26 C 0.51197(19) 0.4988(5) 0.35504(19)
H18 H 0.5414 0.5714 0.3708
C27 C 0.36519(19) -0.0313(5) -0.03494(19)
H19 H 0.4008 0.0093 -0.0443
C28 C 0.3340(2) -0.1585(5) -0.0648(2)
H20 H 0.3453 -0.2166 -0.0954
C29 C 0.28337(19) -0.1790(5) -0.03900(19)
H21 H 0.2532 -0.2532 -0.0493
C30 C 0.28627(16) -0.0643(4) 0.00643(17)
C31 C 0.24327(16) -0.0409(4) 0.04399(17)
C32 C 0.24441(16) 0.0719(4) 0.08740(17)
C33 C 0.20127(19) 0.0937(5) 0.1262(2)
H22 H 0.1667 0.0346 0.1269
C34 C 0.2201(2) 0.2165(6) 0.1618(2)
H23 H 0.2015 0.2575 0.1917
C35 C 0.27382(19) 0.2694(5) 0.1442(2)
H24 H 0.2960 0.3540 0.1614
C36 C 0.18943(16) -0.1468(4) 0.03494(18)
C37 C 0.19530(16) -0.2966(4) 0.05308(19)
H25 H 0.2338 -0.3356 0.0711
C38 C 0.14350(16) -0.3888(4) 0.04434(19)
H26 H 0.1482 -0.4894 0.0570
C39 C 0.13077(18) -0.0964(5) 0.0079(2)
H27 H 0.1248 0.0034 -0.0054
C40 C 0.08168(17) -0.1939(5) 0.0010(2)
H28 H 0.0427 -0.1571 -0.0168
N1 N 0.33822(14) 0.0244(4) 0.00804(14)
N2 N 0.28920(14) 0.1859(4) 0.10078(14)
N3 N 0.08705(13) -0.3389(3) 0.01840(14)
N4 N 0.37969(12) 0.4298(3) 0.10319(13)
N5 N 0.42755(14) 0.1299(3) 0.12216(14)
N6 N 0.48427(14) 0.4265(4) 0.39377(14)
N7 N 0.42076(13) 0.2906(3) -0.00052(14)
N8 N 0.29845(13) 0.3324(4) -0.01963(14)
Cl1 Cl 0.42926(4) 0.28089(10) 0.51976(4)
Ni1 Ni 0.359858(19) 0.22674(5) 0.05624(2)
Cd1 Cd 0.5000 0.5000 0.5000
C1B C 0.51834(17) 0.7255(4) 0.98927(19)
H1B H 0.4987 0.7710 0.9528
C2B C 0.48266(18) 0.6768(5) 1.0302(2)
H2B H 0.4402 0.6904 1.0208
C3B C 0.5102(2) 0.6096(5) 1.0837(2)
H3B H 0.4867 0.5772 1.1111
C4B C 0.57445(19) 0.5892(4) 1.09738(18)
C5B C 0.60710(17) 0.6400(4) 1.05351(16)
C6B C 0.6081(2) 0.5186(5) 1.1522(2)
H4B H 0.5867 0.4826 1.1809
C7B C 0.6700(2) 0.5028(5) 1.1633(2)
H5B H 0.6905 0.4596 1.1999
C8B C 0.7050(2) 0.5524(5) 1.11891(18)
C9B C 0.67309(17) 0.6211(4) 1.06448(17)
C10B C 0.7684(2) 0.5365(6) 1.1269(2)
H6B H 0.7912 0.4927 1.1624
C11B C 0.79690(19) 0.5859(6) 1.0820(2)
H7B H 0.8394 0.5765 1.0869
C12B C 0.76220(16) 0.6504(5) 1.02881(19)
H8B H 0.7823 0.6826 0.9985
C13B C 0.64565(16) 0.4352(4) 0.91508(18)
H9B H 0.6667 0.4145 0.9548
C14B C 0.63665(17) 0.3284(4) 0.86707(18)
H10B H 0.6496 0.2278 0.8693
C15B C 0.60457(18) 0.4040(5) 0.81605(19)
H11B H 0.5922 0.3643 0.7768
C16B C 0.59402(15) 0.5539(4) 0.83487(16)
C17B C 0.56230(15) 0.6713(4) 0.79868(16)
C18B C 0.55002(16) 0.8160(4) 0.81848(16)
C19B C 0.5113(2) 0.9290(5) 0.7840(2)
H12B H 0.4907 0.9219 0.7433
C20B C 0.5102(2) 1.0488(5) 0.8221(2)
H13B H 0.4890 1.1397 0.8127
C21B C 0.5481(2) 1.0071(4) 0.8792(2)
H14B H 0.5551 1.0689 0.9137
C22B C 0.54265(16) 0.6397(4) 0.73194(16)
C23B C 0.56860(19) 0.7212(5) 0.69073(19)
H15B H 0.5955 0.8007 0.7044
C24B C 0.5545(2) 0.6844(5) 0.62943(19)
H16B H 0.5730 0.7398 0.6028
C25B C 0.5004(2) 0.5276(5) 0.70784(19)
H17B H 0.4808 0.4712 0.7333
C26B C 0.48803(19) 0.5012(5) 0.64496(19)
H18B H 0.4586 0.4286 0.6292
C27B C 0.63481(19) 1.0313(5) 1.03494(19)
H19B H 0.5992 0.9907 1.0443
C28B C 0.6660(2) 1.1585(5) 1.0648(2)
H20B H 0.6547 1.2166 1.0954
C29B C 0.71663(19) 1.1790(5) 1.03900(19)
H21B H 0.7468 1.2532 1.0493
C30B C 0.71373(16) 1.0643(4) 0.99357(17)
C31B C 0.75673(16) 1.0409(4) 0.95601(17)
C32B C 0.75559(16) 0.9281(4) 0.91260(17)
C33B C 0.79873(19) 0.9063(5) 0.8738(2)
H22B H 0.8333 0.9654 0.8731
C34B C 0.7799(2) 0.7835(6) 0.8382(2)
H23B H 0.7985 0.7425 0.8083
C35B C 0.72618(19) 0.7306(5) 0.8558(2)
H24B H 0.7040 0.6460 0.8386
C36B C 0.81057(16) 1.1468(4) 0.96506(18)
C37B C 0.80470(16) 1.2966(4) 0.94692(19)
H25B H 0.7662 1.3356 0.9289
C38B C 0.85650(16) 1.3888(4) 0.95566(19)
H26B H 0.8518 1.4894 0.9430
C39B C 0.86923(18) 1.0964(5) 0.9921(2)
H27B H 0.8752 0.9966 1.0054
C40B C 0.91832(17) 1.1939(5) 0.9990(2)
H28B H 0.9573 1.1571 1.0168
N1B N 0.66178(14) 0.9756(4) 0.99196(14)
N2B N 0.71080(14) 0.8141(4) 0.89922(14)
N3B N 0.91295(13) 1.3389(3) 0.98160(14)
N4B N 0.62031(12) 0.5702(3) 0.89681(13)
N5B N 0.57245(14) 0.8701(3) 0.87784(14)
N6B N 0.51573(14) 0.5735(4) 0.60623(14)
N7B N 0.57924(13) 0.7094(3) 1.00052(14)
N8B N 0.70155(13) 0.6676(4) 1.01963(14)
Cl1B Cl 0.57074(4) 0.71911(10) 0.48024(4)
Ni1B Ni 0.640142(19) 0.77326(5) 0.94376(2)
N3A N 0.41295(13) 0.6611(3) 0.48160(14)
N3C N 0.58705(13) 0.3389(3) 0.51840(14)
Cd1A Cd 0.0000 -0.5000 0.0000
Cd1A_2 Cd 1.0000 1.5000 1.0000
O1 O 0.5037(8) 0.9318(14) 0.3701(6)
C41 C 0.1554(10) 0.841(2) 0.7656(9)
H29 H 0.1599 0.8560 0.7256
C42 C 0.1513(11) 1.010(2) 0.8537(8)
H30 H 0.1345 0.9297 0.8745
H31 H 0.1243 1.0959 0.8494
H32 H 0.1911 1.0376 0.8770
C43 C 0.1543(10) 1.1300(19) 0.7681(9)
H33 H 0.1499 1.1294 0.7244
H34 H 0.1916 1.1819 0.7867
H35 H 0.1197 1.1812 0.7785
N9 N 0.1570(8) 0.9570(19) 0.7931(8)
O2 O 0.1489(7) 0.7036(16) 0.7778(6)
C44? C 0.2888(12) 0.609(2) 0.2865(9)
H36? H 0.2806 0.6037 0.3270
H37? H 0.3208 0.5383 0.2831
H38? H 0.2521 0.5843 0.2570
C45? C 0.2915(11) 0.870(2) 0.2405(9)
H39? H 0.3168 0.9550 0.2572
H40? H 0.2490 0.8948 0.2384
H41? H 0.2976 0.8488 0.2000
C46? C 0.3707(12) 0.766(2) 0.3130(10)
H42? H 0.3838 0.6798 0.3360
N10? N 0.3069(10) 0.7495(18) 0.2761(8)
O3? O 0.4123(8) 0.8710(14) 0.3211(6)
loop_
_geom_bond_atom_site_label_1
_geom_bond_atom_site_label_2
_geom_bond_site_symmetry_1
_geom_bond_site_symmetry_2
C1 H1 1_555 1_555
C2 C1 1_555 1_555
H2 C2 1_555 1_555
C3 C2 1_555 1_555
H3 C3 1_555 1_555
C4 C3 1_555 1_555
C5 C4 1_555 1_555
C6 C4 1_555 1_555
H4 C6 1_555 1_555
C7 C6 1_555 1_555
H5 C7 1_555 1_555
C8 C7 1_555 1_555
C9 C5 1_555 1_555
C10 C8 1_555 1_555
H6 C10 1_555 1_555
C11 C10 1_555 1_555
H7 C11 1_555 1_555
C12 C11 1_555 1_555
H8 C12 1_555 1_555
C13 H9 1_555 1_555
C14 C13 1_555 1_555
H10 C14 1_555 1_555
C15 C14 1_555 1_555
H11 C15 1_555 1_555
C16 C15 1_555 1_555
C17 C16 1_555 1_555
C18 C17 1_555 1_555
C19 C18 1_555 1_555
H12 C19 1_555 1_555
C20 C19 1_555 1_555
H13 C20 1_555 1_555
C21 C20 1_555 1_555
H14 C21 1_555 1_555
C22 C17 1_555 1_555
C23 C22 1_555 1_555
H15 C23 1_555 1_555
C24 C23 1_555 1_555
H16 C24 1_555 1_555
C25 C22 1_555 1_555
H17 C25 1_555 1_555
C26 C25 1_555 1_555
H18 C26 1_555 1_555
C27 H19 1_555 1_555
C28 C27 1_555 1_555
H20 C28 1_555 1_555
C29 C28 1_555 1_555
H21 C29 1_555 1_555
C30 C29 1_555 1_555
C31 C30 1_555 1_555
C32 C31 1_555 1_555
C33 C32 1_555 1_555
H22 C33 1_555 1_555
C34 C33 1_555 1_555
H23 C34 1_555 1_555
C35 C34 1_555 1_555
H24 C35 1_555 1_555
C36 C31 1_555 1_555
C37 C36 1_555 1_555
H25 C37 1_555 1_555
C38 C37 1_555 1_555
H26 C38 1_555 1_555
C39 C36 1_555 1_555
H27 C39 1_555 1_555
C40 C39 1_555 1_555
H28 C40 1_555 1_555
N1 C27 1_555 1_555
N2 C32 1_555 1_555
N3 C38 1_555 1_555
N4 C13 1_555 1_555
N5 C18 1_555 1_555
N6 C24 1_555 1_555
N7 C1 1_555 1_555
N8 C9 1_555 1_555
Cl1 Cd1 1_555 1_555
Ni1 N1 1_555 1_555
Cd1 N6 1_555 1_555
C41 H29 1_555 1_555
C42 H30 1_555 1_555
H31 C42 1_555 1_555
H32 C42 1_555 1_555
C43 H33 1_555 1_555
H34 C43 1_555 1_555
H35 C43 1_555 1_555
N9 C41 1_555 1_555
O2 C41 1_555 1_555
C1B H1B 1_555 1_555
C2B C1B 1_555 1_555
H2B C2B 1_555 1_555
C3B C2B 1_555 1_555
H3B C3B 1_555 1_555
C4B C3B 1_555 1_555
C5B C4B 1_555 1_555
C6B C4B 1_555 1_555
H4B C6B 1_555 1_555
C7B C6B 1_555 1_555
H5B C7B 1_555 1_555
C8B C7B 1_555 1_555
C9B C5B 1_555 1_555
C10B C8B 1_555 1_555
H6B C10B 1_555 1_555
C11B C10B 1_555 1_555
H7B C11B 1_555 1_555
C12B C11B 1_555 1_555
H8B C12B 1_555 1_555
C13B H9B 1_555 1_555
C14B C13B 1_555 1_555
H10B C14B 1_555 1_555
C15B C14B 1_555 1_555
H11B C15B 1_555 1_555
C16B C15B 1_555 1_555
C17B C16B 1_555 1_555
C18B C17B 1_555 1_555
C19B C18B 1_555 1_555
H12B C19B 1_555 1_555
C20B C19B 1_555 1_555
H13B C20B 1_555 1_555
C21B C20B 1_555 1_555
H14B C21B 1_555 1_555
C22B C17B 1_555 1_555
C23B C22B 1_555 1_555
H15B C23B 1_555 1_555
C24B C23B 1_555 1_555
H16B C24B 1_555 1_555
C25B C22B 1_555 1_555
H17B C25B 1_555 1_555
C26B C25B 1_555 1_555
H18B C26B 1_555 1_555
C27B H19B 1_555 1_555
C28B C27B 1_555 1_555
H20B C28B 1_555 1_555
C29B C28B 1_555 1_555
H21B C29B 1_555 1_555
C30B C29B 1_555 1_555
C31B C30B 1_555 1_555
C32B C31B 1_555 1_555
C33B C32B 1_555 1_555
H22B C33B 1_555 1_555
C34B C33B 1_555 1_555
H23B C34B 1_555 1_555
C35B C34B 1_555 1_555
H24B C35B 1_555 1_555
C36B C31B 1_555 1_555
C37B C36B 1_555 1_555
H25B C37B 1_555 1_555
C38B C37B 1_555 1_555
H26B C38B 1_555 1_555
C39B C36B 1_555 1_555
H27B C39B 1_555 1_555
C40B C39B 1_555 1_555
H28B C40B 1_555 1_555
N1B C27B 1_555 1_555
N2B C32B 1_555 1_555
N3B C38B 1_555 1_555
N4B C13B 1_555 1_555
N5B C18B 1_555 1_555
N6B Cd1 1_555 1_555
N7B C1B 1_555 1_555
N8B C9B 1_555 1_555
Cl1B Cd1 1_555 1_555
Ni1B N1B 1_555 1_555
N3A Cd1 1_555 1_555
N3C Cd1 1_555 1_555
Cd1A N3 1_555 1_555
Cd1A_2 N3B 1_555 1_555
C5 N7 1_555 1_555
C8 C9 1_555 1_555
C12 N8 1_555 1_555
C16 N4 1_555 1_555
C21 N5 1_555 1_555
C26 N6 1_555 1_555
C30 N1 1_555 1_555
C35 N2 1_555 1_555
C40 N3 1_555 1_555
N2 Ni1 1_555 1_555
N4 Ni1 1_555 1_555
N5 Ni1 1_555 1_555
N7 Ni1 1_555 1_555
N8 Ni1 1_555 1_555
C42 N9 1_555 1_555
C43 N9 1_555 1_555
C5B N7B 1_555 1_555
C8B C9B 1_555 1_555
C12B N8B 1_555 1_555
C16B N4B 1_555 1_555
C21B N5B 1_555 1_555
C24B N6B 1_555 1_555
C26B N6B 1_555 1_555
C30B N1B 1_555 1_555
C35B N2B 1_555 1_555
C40B N3B 1_555 1_555
N2B Ni1B 1_555 1_555
N4B Ni1B 1_555 1_555
N5B Ni1B 1_555 1_555
N7B Ni1B 1_555 1_555
N8B Ni1B 1_555 1_555

#END
