
#######################################################################
#
#                 Cambridge Crystallographic Data Centre
#                                CCDC 
#
#######################################################################
#
# If this CIF has been generated from an entry in the Cambridge 
# Structural Database, then it will include bibliographic, chemical, 
# crystal, experimental, refinement or atomic coordinate data resulting 
# from the CCDC's data processing and validation procedures.
#
#######################################################################

data_POZRAZ
_symmetry_cell_setting           monoclinic
_symmetry_space_group_name_H-M   'C 2/c'
_symmetry_Int_Tables_number      15
_space_group_name_Hall           '-C 2yn'
loop_
_symmetry_equiv_pos_site_id
_symmetry_equiv_pos_as_xyz
1 x,y,z
2 -x,y,1/2-z
3 1/2+x,1/2+y,z
4 1/2-x,1/2+y,1/2-z
5 -x,-y,-z
6 x,-y,1/2+z
7 1/2-x,1/2-y,-z
8 1/2+x,1/2-y,1/2+z
_cell_length_a                   32.6713(7)
_cell_length_b                   9.4472(2)
_cell_length_c                   38.4422(8)
_cell_angle_alpha                90
_cell_angle_beta                 107.4430(10)
_cell_angle_gamma                90
_cell_volume                     11319.7
loop_
_atom_site_label
_atom_site_type_symbol
_atom_site_fract_x
_atom_site_fract_y
_atom_site_fract_z
C1 C 0.70391(13) 0.9645(4) 0.86215(10)
H1 H 0.7197 0.9829 0.8862
C2 C 0.69341(15) 1.0679(5) 0.83449(11)
H2 H 0.7006 1.1634 0.8369
C3 C 0.67063(14) 1.0000(4) 0.80353(11)
H3 H 0.6593 1.0403 0.7806
C4 C 0.66740(11) 0.8549(4) 0.81298(9)
C5 C 0.64653(11) 0.7461(4) 0.78975(9)
C6 C 0.64143(12) 0.6070(4) 0.79928(9)
C7 C 0.61705(15) 0.4994(5) 0.77586(11)
H4 H 0.6026 0.5082 0.7511
C8 C 0.61902(16) 0.3805(5) 0.79692(12)
H5 H 0.6061 0.2936 0.7893
C9 C 0.64450(14) 0.4168(5) 0.83228(11)
H6 H 0.6511 0.3548 0.8520
C10 C 0.62653(12) 0.7842(5) 0.75046(9)
C11 C 0.64442(13) 0.7346(5) 0.72436(9)
H7 H 0.6696 0.6822 0.7316
C12 C 0.62516(13) 0.7622(5) 0.68750(9)
H8 H 0.6376 0.7277 0.6704
C13 C 0.58774(12) 0.8404(4) 0.67603(9)
C14 C 0.57107(15) 0.8954(6) 0.70233(10)
H9 H 0.5466 0.9516 0.6952
C15 C 0.59024(15) 0.8684(6) 0.73944(10)
H10 H 0.5786 0.9069 0.7567
C16 C 0.56567(11) 0.8658(4) 0.63671(9)
C17 C 0.53573(15) 0.9739(5) 0.62509(10)
H11 H 0.5290 1.0325 0.6421
C18 C 0.51593(14) 0.9940(5) 0.58806(10)
H12 H 0.4959 1.0665 0.5809
C19 C 0.55266(12) 0.8128(4) 0.57326(9)
H13 H 0.5589 0.7569 0.5556
C20 C 0.57393(13) 0.7839(5) 0.60968(9)
H14 H 0.5936 0.7100 0.6159
C21 C 0.77411(12) 0.6827(4) 0.85038(9)
H15 H 0.7635 0.7687 0.8396
C22 C 0.81337(13) 0.6226(5) 0.84930(11)
H16 H 0.8323 0.6598 0.8378
C23 C 0.81801(12) 0.4996(4) 0.86845(10)
H17 H 0.8410 0.4371 0.8729
C24 C 0.78075(11) 0.4844(4) 0.88050(9)
C25 C 0.77242(10) 0.3758(4) 0.90173(9)
C26 C 0.73749(11) 0.3646(4) 0.91563(9)
C27 C 0.72904(13) 0.2509(5) 0.93680(11)
H18 H 0.7457 0.1701 0.9441
C28 C 0.69182(14) 0.2833(5) 0.94430(12)
H19 H 0.6782 0.2293 0.9578
C29 C 0.67820(12) 0.4146(5) 0.92761(10)
H20 H 0.6534 0.4608 0.9284
C30 C 0.80480(11) 0.2580(4) 0.91216(9)
C31 C 0.83215(13) 0.2523(5) 0.94777(11)
H21 H 0.8308 0.3231 0.9642
C32 C 0.86123(12) 0.1432(4) 0.95900(10)
H22 H 0.8797 0.1428 0.9827
C33 C 0.86330(10) 0.0346(4) 0.93553(9)
C34 C 0.83610(11) 0.0396(4) 0.89952(9)
H23 H 0.8373 -0.0318 0.8832
C35 C 0.80733(11) 0.1508(4) 0.88810(9)
H24 H 0.7896 0.1535 0.8641
C36 C 0.89322(10) -0.0861(4) 0.94935(9)
C37 C 0.93096(11) -0.0670(4) 0.97788(10)
H25 H 0.9383 0.0222 0.9881
C38 C 0.95722(11) -0.1816(4) 0.99079(10)
H26 H 0.9824 -0.1665 1.0096
C39 C 0.91248(11) -0.3312(4) 0.95096(10)
H27 H 0.9057 -0.4221 0.9417
N1 N 0.94868(9) -0.3125(3) 0.97800(8)
C40 C 0.88434(11) -0.2221(4) 0.93586(9)
H28 H 0.8596 -0.2403 0.9168
C41 C 0.77169(14) 0.7890(5) 0.94069(10)
H29 H 0.7897 0.7496 0.9285
C42 C 0.79077(17) 0.8722(6) 0.97213(12)
H30 H 0.8203 0.8871 0.9802
C43 C 0.76543(19) 0.9275(6) 0.98946(13)
H31 H 0.7773 0.9835 1.0099
C44 C 0.72167(19) 0.9043(5) 0.97796(12)
C45 C 0.70509(15) 0.8202(5) 0.94593(10)
C46 C 0.66006(15) 0.7919(5) 0.93171(11)
C47 C 0.63182(18) 0.8454(6) 0.95045(14)
C48 C 0.6501(2) 0.9287(6) 0.98321(14)
H32 H 0.6321 0.9637 0.9958
C49 C 0.6922(2) 0.9567(7) 0.99579(14)
H33 H 0.7024 1.0116 1.0167
C50 C 0.5887(2) 0.8155(7) 0.93629(19)
H34 H 0.5694 0.8490 0.9479
C51 C 0.57406(16) 0.7365(8) 0.9051(2)
H35 H 0.5451 0.7146 0.8958
C52 C 0.60429(15) 0.6876(6) 0.88679(16)
H36 H 0.5942 0.6366 0.8652
N2 N 0.68858(9) 0.8379(3) 0.84992(7)
N3 N 0.65815(10) 0.5503(4) 0.83425(8)
N4 N 0.52403(9) 0.9156(4) 0.56235(7)
N5 N 0.75424(9) 0.6020(3) 0.86856(7)
N6 N 0.70499(9) 0.4647(3) 0.91058(7)
N7 N 0.73056(10) 0.7641(3) 0.92767(7)
N8 N 0.64561(10) 0.7137(4) 0.89999(9)
Cl1 Cl 0.55658(3) 0.84603(11) 0.48473(2)
Ni1 Ni 0.697344(13) 0.64925(5) 0.879460(10)
Cd1 Cd 0.5000 1.0000 0.5000
C1D C 0.29609(13) 1.0355(4) 0.13785(10)
H1D H 0.2803 1.0171 0.1138
C2D C 0.30659(15) 0.9321(5) 0.16551(11)
H2D H 0.2994 0.8366 0.1631
C3D C 0.32937(14) 1.0000(4) 0.19647(11)
H3D H 0.3407 0.9597 0.2194
C4D C 0.33260(11) 1.1451(4) 0.18702(9)
C5D C 0.35347(11) 1.2539(4) 0.21025(9)
C6D C 0.35857(12) 1.3930(4) 0.20072(9)
C7D C 0.38295(15) 1.5006(5) 0.22414(11)
H4D H 0.3974 1.4918 0.2489
C8D C 0.38098(16) 1.6195(5) 0.20308(12)
H5D H 0.3939 1.7064 0.2107
C9D C 0.35550(14) 1.5832(5) 0.16772(11)
H6D H 0.3489 1.6452 0.1480
C10D C 0.37347(12) 1.2158(5) 0.24954(9)
C11D C 0.35558(13) 1.2654(5) 0.27564(9)
H7D H 0.3304 1.3178 0.2684
C12D C 0.37484(13) 1.2378(5) 0.31250(9)
H8D H 0.3624 1.2723 0.3296
C13D C 0.41226(12) 1.1596(4) 0.32397(9)
C14D C 0.42893(15) 1.1046(6) 0.29767(10)
H9D H 0.4534 1.0484 0.3048
C15D C 0.40976(15) 1.1316(6) 0.26056(10)
H10D H 0.4214 1.0931 0.2433
C16D C 0.43433(11) 1.1342(4) 0.36329(9)
C17D C 0.46427(15) 1.0261(5) 0.37491(10)
H11D H 0.4710 0.9675 0.3579
C18D C 0.48407(14) 1.0060(5) 0.41194(10)
H12D H 0.5041 0.9335 0.4191
C19D C 0.44734(12) 1.1872(4) 0.42674(9)
H13D H 0.4411 1.2431 0.4444
C20D C 0.42607(13) 1.2161(5) 0.39032(9)
H14D H 0.4064 1.2900 0.3841
C21D C 0.22589(12) 1.3173(4) 0.14962(9)
H15D H 0.2365 1.2313 0.1604
C22D C 0.18663(13) 1.3774(5) 0.15070(11)
H16D H 0.1677 1.3402 0.1622
C23D C 0.18199(12) 1.5004(4) 0.13155(10)
H17D H 0.1590 1.5629 0.1271
C24D C 0.21925(11) 1.5156(4) 0.11950(9)
C25D C 0.22758(10) 1.6242(4) 0.09827(9)
C26D C 0.26251(11) 1.6354(4) 0.08437(9)
C27D C 0.27096(13) 1.7491(5) 0.06320(11)
H18D H 0.2543 1.8299 0.0559
C28D C 0.30818(14) 1.7167(5) 0.05570(12)
H19D H 0.3218 1.7707 0.0422
C29D C 0.32180(12) 1.5854(5) 0.07239(10)
H20D H 0.3466 1.5392 0.0716
C30D C 0.19520(11) 1.7420(4) 0.08784(9)
C31D C 0.16785(13) 1.7477(5) 0.05223(11)
H21D H 0.1692 1.6769 0.0358
C32D C 0.13877(12) 1.8568(4) 0.04100(10)
H22D H 0.1203 1.8572 0.0173
C33D C 0.13670(10) 1.9654(4) 0.06447(9)
C34D C 0.16390(11) 1.9604(4) 0.10048(9)
H23D H 0.1627 2.0318 0.1168
C35D C 0.19267(11) 1.8492(4) 0.11190(9)
H24D H 0.2104 1.8465 0.1359
C36D C 0.10678(10) 2.0861(4) 0.05065(9)
C37D C 0.06904(11) 2.0670(4) 0.02212(10)
H25D H 0.0617 1.9778 0.0119
C38D C 0.04278(11) 2.1816(4) 0.00921(10)
H26D H 0.0176 2.1665 -0.0096
C39D C 0.08752(11) 2.3312(4) 0.04904(10)
H27D H 0.0943 2.4221 0.0583
N1D N 0.05132(9) 2.3125(3) 0.02200(8)
C40D C 0.11566(11) 2.2221(4) 0.06414(9)
H28D H 0.1404 2.2403 0.0832
C41D C 0.22831(14) 1.2110(5) 0.05931(10)
H29D H 0.2103 1.2504 0.0715
C42D C 0.20923(17) 1.1278(6) 0.02787(12)
H30D H 0.1797 1.1129 0.0198
C43D C 0.23457(19) 1.0725(6) 0.01054(13)
H31D H 0.2227 1.0165 -0.0099
C44D C 0.27833(19) 1.0957(5) 0.02204(12)
C45D C 0.29491(15) 1.1798(5) 0.05407(10)
C46D C 0.33994(15) 1.2081(5) 0.06829(11)
C47D C 0.36818(18) 1.1546(6) 0.04955(14)
C48D C 0.3499(2) 1.0713(6) 0.01679(14)
H32D H 0.3679 1.0363 0.0042
C49D C 0.3078(2) 1.0433(7) 0.00421(14)
H33D H 0.2976 0.9884 -0.0167
C50D C 0.4113(2) 1.1845(7) 0.06371(19)
H34D H 0.4306 1.1510 0.0521
C51D C 0.42594(16) 1.2635(8) 0.0949(2)
H35D H 0.4549 1.2854 0.1042
C52D C 0.39571(15) 1.3124(6) 0.11321(16)
H36D H 0.4058 1.3634 0.1348
N2D N 0.31142(9) 1.1621(3) 0.15008(7)
N3D N 0.34185(10) 1.4497(4) 0.16575(8)
N4D N 0.47597(9) 1.0844(4) 0.43765(7)
N5D N 0.24576(9) 1.3980(3) 0.13144(7)
N6D N 0.29501(9) 1.5353(3) 0.08942(7)
N7D N 0.26944(10) 1.2359(3) 0.07233(7)
N8D N 0.35439(10) 1.2863(4) 0.10001(9)
Cl1D Cl 0.44342(3) 1.15397(11) 0.51527(2)
Ni1D Ni 0.302656(13) 1.35075(5) 0.120540(10)
N1C N 0.55132(9) 1.1875(3) 0.52200(8)
N1G N 0.44868(9) 0.8125(3) 0.47800(8)
Cd1C Cd 0.0000 2.5000 0.0000
Cd1C_2 Cd 1.0000 -0.5000 1.0000
C53 C 0.9627(3) 0.7155(16) 0.6574(3)
H37 H 0.9610 0.8003 0.6448
C54 C 0.9360(4) 0.4984(14) 0.6705(4)
H38 H 0.9121 0.4357 0.6610
H39 H 0.9367 0.5288 0.6945
H40 H 0.9622 0.4499 0.6716
C55 C 0.8956(3) 0.6351(14) 0.6139(3)
H41 H 0.8775 0.5540 0.6124
H42 H 0.9056 0.6381 0.5929
H43 H 0.8797 0.7196 0.6148
N9 N 0.9312(3) 0.6257(13) 0.6458(3)
O1 O 0.9947(3) 0.6957(10) 0.6841(2)
C56 C 0.8071(2) 0.8985(7) 0.77822(16)
H44 H 0.8274 0.8344 0.7753
C57 C 0.7724(2) 0.8750(7) 0.71322(14)
H45 H 0.7467 0.9091 0.6959
H46 H 0.7720 0.7734 0.7136
H47 H 0.7969 0.9069 0.7064
C58 C 0.7424(2) 1.0293(10) 0.7501(2)
H48 H 0.7219 1.0369 0.7263
H49 H 0.7554 1.1199 0.7574
H50 H 0.7281 0.9982 0.7672
N10 N 0.77503(14) 0.9283(5) 0.74901(10)
O2 O 0.81275(18) 0.9467(6) 0.80875(10)
N11 N 0.4557(5) 0.4290(17) 0.8643(3)
C59 C 0.4736(6) 0.5172(19) 0.8422(5)
H51 H 0.4618 0.4906 0.8171
H52 H 0.5042 0.5057 0.8495
H53 H 0.4667 0.6144 0.8452
C60 C 0.4755(5) 0.413(2) 0.9002(4)
H54 H 0.4665 0.3390 0.9121
C61 C 0.4166(5) 0.357(2) 0.8461(5)
H55 H 0.4131 0.3536 0.8204
H56 H 0.3929 0.4075 0.8502
H57 H 0.4175 0.2629 0.8555
O3 O 0.5032(4) 0.4859(15) 0.9178(4)
O4 O 1.0000 0.575(3) 0.7500
N12? N 0.5000 0.598(4) 0.7500
C62? C 0.5000 0.444(4) 0.7500
O5? O 0.5064(7) 0.629(3) 0.8090(3)
C63? C 0.5193(6) 0.676(2) 0.7841(6)
loop_
_geom_bond_atom_site_label_1
_geom_bond_atom_site_label_2
_geom_bond_site_symmetry_1
_geom_bond_site_symmetry_2
C1 H1 1_555 1_555
C2 C1 1_555 1_555
H2 C2 1_555 1_555
C3 C2 1_555 1_555
H3 C3 1_555 1_555
C4 C3 1_555 1_555
C5 C4 1_555 1_555
C6 C5 1_555 1_555
C7 C6 1_555 1_555
H4 C7 1_555 1_555
C8 C7 1_555 1_555
H5 C8 1_555 1_555
C9 C8 1_555 1_555
H6 C9 1_555 1_555
C10 C5 1_555 1_555
C11 C10 1_555 1_555
H7 C11 1_555 1_555
C12 C11 1_555 1_555
H8 C12 1_555 1_555
C13 C12 1_555 1_555
C14 C13 1_555 1_555
H9 C14 1_555 1_555
C15 C10 1_555 1_555
H10 C15 1_555 1_555
C16 C13 1_555 1_555
C17 C16 1_555 1_555
H11 C17 1_555 1_555
C18 C17 1_555 1_555
H12 C18 1_555 1_555
C19 H13 1_555 1_555
C20 C16 1_555 1_555
H14 C20 1_555 1_555
C21 H15 1_555 1_555
C22 C21 1_555 1_555
H16 C22 1_555 1_555
C23 C22 1_555 1_555
H17 C23 1_555 1_555
C24 C23 1_555 1_555
C25 C24 1_555 1_555
C26 C25 1_555 1_555
C27 C26 1_555 1_555
H18 C27 1_555 1_555
C28 C27 1_555 1_555
H19 C28 1_555 1_555
C29 C28 1_555 1_555
H20 C29 1_555 1_555
C30 C25 1_555 1_555
C31 C30 1_555 1_555
H21 C31 1_555 1_555
C32 C31 1_555 1_555
H22 C32 1_555 1_555
C33 C32 1_555 1_555
C34 C33 1_555 1_555
H23 C34 1_555 1_555
C35 C30 1_555 1_555
H24 C35 1_555 1_555
C36 C33 1_555 1_555
C37 C36 1_555 1_555
H25 C37 1_555 1_555
C38 C37 1_555 1_555
H26 C38 1_555 1_555
C39 H27 1_555 1_555
N1 C38 1_555 1_555
C40 C36 1_555 1_555
H28 C40 1_555 1_555
C41 H29 1_555 1_555
C42 C41 1_555 1_555
H30 C42 1_555 1_555
C43 C42 1_555 1_555
H31 C43 1_555 1_555
C44 C43 1_555 1_555
C45 C44 1_555 1_555
C46 C45 1_555 1_555
C47 C46 1_555 1_555
C48 C47 1_555 1_555
H32 C48 1_555 1_555
C49 C44 1_555 1_555
H33 C49 1_555 1_555
C50 C47 1_555 1_555
H34 C50 1_555 1_555
C51 C50 1_555 1_555
H35 C51 1_555 1_555
C52 C51 1_555 1_555
H36 C52 1_555 1_555
N2 C1 1_555 1_555
N3 C6 1_555 1_555
N4 C18 1_555 1_555
N5 C21 1_555 1_555
N6 C26 1_555 1_555
N7 C41 1_555 1_555
N8 C46 1_555 1_555
Cl1 Cd1 1_555 1_555
Ni1 N2 1_555 1_555
Cd1 N4 1_555 1_555
C53 H37 1_555 1_555
C54 H38 1_555 1_555
H39 C54 1_555 1_555
H40 C54 1_555 1_555
C55 H41 1_555 1_555
H42 C55 1_555 1_555
H43 C55 1_555 1_555
N9 C53 1_555 1_555
O1 C53 1_555 1_555
C56 H44 1_555 1_555
C57 H45 1_555 1_555
H46 C57 1_555 1_555
H47 C57 1_555 1_555
C58 H48 1_555 1_555
H49 C58 1_555 1_555
H50 C58 1_555 1_555
N10 C56 1_555 1_555
O2 C56 1_555 1_555
N11 C59 1_555 1_555
C59 H51 1_555 1_555
H52 C59 1_555 1_555
H53 C59 1_555 1_555
C60 N11 1_555 1_555
H54 C60 1_555 1_555
C61 N11 1_555 1_555
H55 C61 1_555 1_555
H56 C61 1_555 1_555
H57 C61 1_555 1_555
O3 C60 1_555 1_555
C1D H1D 1_555 1_555
C2D C1D 1_555 1_555
H2D C2D 1_555 1_555
C3D C2D 1_555 1_555
H3D C3D 1_555 1_555
C4D C3D 1_555 1_555
C5D C4D 1_555 1_555
C6D C5D 1_555 1_555
C7D C6D 1_555 1_555
H4D C7D 1_555 1_555
C8D C7D 1_555 1_555
H5D C8D 1_555 1_555
C9D C8D 1_555 1_555
H6D C9D 1_555 1_555
C10D C5D 1_555 1_555
C11D C10D 1_555 1_555
H7D C11D 1_555 1_555
C12D C11D 1_555 1_555
H8D C12D 1_555 1_555
C13D C12D 1_555 1_555
C14D C13D 1_555 1_555
H9D C14D 1_555 1_555
C15D C10D 1_555 1_555
H10D C15D 1_555 1_555
C16D C13D 1_555 1_555
C17D C16D 1_555 1_555
H11D C17D 1_555 1_555
C18D C17D 1_555 1_555
H12D C18D 1_555 1_555
C19D H13D 1_555 1_555
C20D C16D 1_555 1_555
H14D C20D 1_555 1_555
C21D H15D 1_555 1_555
C22D C21D 1_555 1_555
H16D C22D 1_555 1_555
C23D C22D 1_555 1_555
H17D C23D 1_555 1_555
C24D C23D 1_555 1_555
C25D C24D 1_555 1_555
C26D C25D 1_555 1_555
C27D C26D 1_555 1_555
H18D C27D 1_555 1_555
C28D C27D 1_555 1_555
H19D C28D 1_555 1_555
C29D C28D 1_555 1_555
H20D C29D 1_555 1_555
C30D C25D 1_555 1_555
C31D C30D 1_555 1_555
H21D C31D 1_555 1_555
C32D C31D 1_555 1_555
H22D C32D 1_555 1_555
C33D C32D 1_555 1_555
C34D C33D 1_555 1_555
H23D C34D 1_555 1_555
C35D C30D 1_555 1_555
H24D C35D 1_555 1_555
C36D C33D 1_555 1_555
C37D C36D 1_555 1_555
H25D C37D 1_555 1_555
C38D C37D 1_555 1_555
H26D C38D 1_555 1_555
C39D H27D 1_555 1_555
N1D C38D 1_555 1_555
C40D C36D 1_555 1_555
H28D C40D 1_555 1_555
C41D H29D 1_555 1_555
C42D C41D 1_555 1_555
H30D C42D 1_555 1_555
C43D C42D 1_555 1_555
H31D C43D 1_555 1_555
C44D C43D 1_555 1_555
C45D C44D 1_555 1_555
C46D C45D 1_555 1_555
C47D C46D 1_555 1_555
C48D C47D 1_555 1_555
H32D C48D 1_555 1_555
C49D C44D 1_555 1_555
H33D C49D 1_555 1_555
C50D C47D 1_555 1_555
H34D C50D 1_555 1_555
C51D C50D 1_555 1_555
H35D C51D 1_555 1_555
C52D C51D 1_555 1_555
H36D C52D 1_555 1_555
N2D C1D 1_555 1_555
N3D C6D 1_555 1_555
N4D Cd1 1_555 1_555
N5D C21D 1_555 1_555
N6D C26D 1_555 1_555
N7D C41D 1_555 1_555
N8D C46D 1_555 1_555
Cl1D Cd1 1_555 1_555
Ni1D N2D 1_555 1_555
N1C Cd1 1_555 1_555
N1G Cd1 1_555 1_555
Cd1C N1D 1_555 1_555
Cd1C_2 N1 1_555 1_555
C4 N2 1_555 1_555
C9 N3 1_555 1_555
C14 C15 1_555 1_555
C19 C20 1_555 1_555
C19 N4 1_555 1_555
C24 N5 1_555 1_555
C29 N6 1_555 1_555
C34 C35 1_555 1_555
C39 N1 1_555 1_555
C39 C40 1_555 1_555
C45 N7 1_555 1_555
C48 C49 1_555 1_555
C52 N8 1_555 1_555
N3 Ni1 1_555 1_555
N5 Ni1 1_555 1_555
N6 Ni1 1_555 1_555
N7 Ni1 1_555 1_555
N8 Ni1 1_555 1_555
C54 N9 1_555 1_555
C55 N9 1_555 1_555
C57 N10 1_555 1_555
C58 N10 1_555 1_555
C4D N2D 1_555 1_555
C9D N3D 1_555 1_555
C14D C15D 1_555 1_555
C18D N4D 1_555 1_555
C19D C20D 1_555 1_555
C19D N4D 1_555 1_555
C24D N5D 1_555 1_555
C29D N6D 1_555 1_555
C34D C35D 1_555 1_555
C39D N1D 1_555 1_555
C39D C40D 1_555 1_555
C45D N7D 1_555 1_555
C48D C49D 1_555 1_555
C52D N8D 1_555 1_555
N3D Ni1D 1_555 1_555
N5D Ni1D 1_555 1_555
N6D Ni1D 1_555 1_555
N7D Ni1D 1_555 1_555
N8D Ni1D 1_555 1_555

#END
