
#######################################################################
#
#                 Cambridge Crystallographic Data Centre
#                                CCDC 
#
#######################################################################
#
# If this CIF has been generated from an entry in the Cambridge 
# Structural Database, then it will include bibliographic, chemical, 
# crystal, experimental, refinement or atomic coordinate data resulting 
# from the CCDC's data processing and validation procedures.
#
#######################################################################

data_POZSAZ
_symmetry_cell_setting           triclinic
_symmetry_space_group_name_H-M   'P -1'
_symmetry_Int_Tables_number      2
_space_group_name_Hall           '-P 1'
loop_
_symmetry_equiv_pos_site_id
_symmetry_equiv_pos_as_xyz
1 x,y,z
2 -x,-y,-z
_cell_length_a                   14.819(3)
_cell_length_b                   15.290(3)
_cell_length_c                   15.430(3)
_cell_angle_alpha                92.23(3)
_cell_angle_beta                 92.83(3)
_cell_angle_gamma                94.77(3)
_cell_volume                     3476.56
loop_
_atom_site_label
_atom_site_type_symbol
_atom_site_fract_x
_atom_site_fract_y
_atom_site_fract_z
La1 La 0.583450(14) 0.095484(13) 0.424334(14)
La2 La 0.915850(14) 0.447303(14) 0.386478(14)
La3 La 0.546744(15) 0.384622(14) 0.059412(14)
La4 La 0.695542(15) 0.278326(14) 0.266607(15)
O1 O 0.4640(2) 0.19343(19) 0.4801(2)
O2 O 0.7441(2) 0.0769(2) 0.4877(2)
O3 O 0.6461(2) 0.09757(19) 0.5872(2)
O4 O 0.6538(2) -0.0072(2) 0.3124(2)
O5 O 0.7139(2) 0.12910(18) 0.3146(2)
O6 O 0.66269(19) 0.24991(18) 0.43787(19)
O7 O 0.7858(2) 0.33241(19) 0.4103(2)
O8 O 0.7986(2) 0.5205(2) 0.4774(2)
O9 O 0.9783(2) 0.5449(2) 0.2660(2)
O10 O 0.9435(2) 0.6186(2) 0.3822(2)
O11 O 0.9747(2) 0.3512(2) 0.2704(2)
O12 O 0.8574(2) 0.2513(3) 0.2474(3)
O13 O 0.5196(2) 0.55795(19) 0.07924(18)
O14 O 0.5172(2) 0.47737(19) 0.19353(18)
O15 O 0.3730(2) 0.38711(19) 0.06867(19)
O16 O 0.4186(2) 0.26701(19) 0.0069(2)
O17 O 0.6939(2) 0.40629(18) 0.15915(18)
O18 O 0.7892(2) 0.43692(19) 0.27110(19)
O19 O 0.5400(2) 0.19213(18) 0.29138(19)
O20 O 0.5359(2) 0.28234(19) 0.18430(18)
O21 O 0.6307(2) 0.2632(2) 0.0203(2)
O22 O 0.6915(3) 0.1899(3) 0.1265(2)
O23 O 0.4580(2) 0.0157(2) 0.3240(2)
O24 O 0.43902(19) 0.05784(18) 0.5191(2)
O25 O 0.9762(2) 0.3212(2) 0.4646(2)
O26 O 0.92536(19) 0.50589(19) 0.55236(18)
O27 O 0.6727(2) 0.4515(2) -0.0286(2)
O28 O 0.5973(2) 0.39295(19) 0.32698(19)
C1 C 0.1808(4) 0.2321(4) 0.5168(4)
H1 H 0.1672 0.2882 0.4928
H2 H 0.1700 0.2333 0.5790
H3 H 0.1416 0.1843 0.4870
C2 C 0.2777(3) 0.2175(3) 0.5042(3)
H4 H 0.3131 0.2616 0.4762
C3 C 0.3177(3) 0.1484(3) 0.5291(3)
H5 H 0.2844 0.1059 0.5610
C4 C 0.4117(3) 0.1337(3) 0.5097(3)
C5 C 0.9406(5) 0.0012(6) 0.6810(5)
H6 H 0.9926 -0.0179 0.6506
H7 H 0.9147 -0.0471 0.7144
H8 H 0.9606 0.0516 0.7205
C6 C 0.8696(4) 0.0274(4) 0.6155(4)
H9 H 0.8830 0.0237 0.5560
C7 C 0.7910(3) 0.0548(4) 0.6344(3)
H10 H 0.7766 0.0600 0.6936
C8 C 0.7236(3) 0.0780(3) 0.5661(3)
C9 C 0.8678(4) -0.0870(4) 0.1521(5)
H11 H 0.8543 -0.1492 0.1345
H12 H 0.9256 -0.0793 0.1863
H13 H 0.8719 -0.0521 0.1003
C10 C 0.7944(4) -0.0575(3) 0.2055(4)
H14 H 0.7458 -0.0998 0.2153
C11 C 0.7904(3) 0.0219(3) 0.2403(3)
H15 H 0.8392 0.0648 0.2325
C12 C 0.7145(3) 0.0480(3) 0.2906(3)
C13 C 0.7143(4) 0.3211(5) 0.7129(4)
H16 H 0.6595 0.3041 0.7435
H17 H 0.7306 0.3843 0.7228
H18 H 0.7642 0.2885 0.7348
C14 C 0.6968(3) 0.3005(3) 0.6181(3)
H19 H 0.6382 0.2750 0.5991
C15 C 0.7566(3) 0.3150(3) 0.5584(3)
H20 H 0.8166 0.3376 0.5763
C16 C 0.7335(3) 0.2972(2) 0.4649(3)
C17 C 0.7418(13) 0.5716(7) 0.7676(7)
H21 H 0.7641 0.5644 0.8276
H22 H 0.6865 0.5325 0.7546
H23 H 0.7283 0.6326 0.7605
C18 C 0.8196(6) 0.5468(6) 0.7008(6)
H24 H 0.8760 0.5271 0.7203
C19 C 0.8002(5) 0.5553(4) 0.6273(4)
H25 H 0.7475 0.5855 0.6169
C20 C 0.8438(3) 0.5272(3) 0.5483(3)
C21 C 1.1046(5) 0.7848(5) 0.1664(5)
H26 H 1.1317 0.7703 0.1116
H27 H 1.1517 0.8122 0.2080
H28 H 1.0581 0.8258 0.1561
C22 C 1.0621(4) 0.7025(4) 0.2026(4)
H29 H 1.0658 0.6486 0.1707
C23 C 1.0198(3) 0.7001(3) 0.2762(3)
H30 H 1.0156 0.7534 0.3088
C24 C 0.9782(3) 0.6162(3) 0.3096(3)
C25 C 1.0154(6) 0.1209(4) 0.0614(5)
H31 H 0.9762 0.0786 0.0242
H32 H 1.0585 0.0895 0.0960
H33 H 1.0489 0.1622 0.0250
C26 C 0.9593(4) 0.1699(3) 0.1200(4)
H34 H 0.8955 0.1557 0.1161
C27 C 0.9922(4) 0.2314(3) 0.1768(3)
H35 H 1.0561 0.2449 0.1807
C28 C 0.9368(3) 0.2822(3) 0.2362(3)
C29 C 0.5078(4) 0.7896(3) 0.2533(4)
H36 H 0.5074 0.8421 0.2189
H37 H 0.5615 0.7947 0.2935
H38 H 0.4530 0.7838 0.2863
C30 C 0.5102(3) 0.7102(3) 0.1939(3)
H39 H 0.5116 0.7188 0.1333
C31 C 0.5106(3) 0.6292(3) 0.2200(3)
H40 H 0.5075 0.6201 0.2804
C32 C 0.5156(3) 0.5523(3) 0.1614(3)
C33 C 0.1000(3) 0.3193(4) -0.0405(4)
H41 H 0.0642 0.3680 -0.0248
H42 H 0.0718 0.2646 -0.0191
H43 H 0.1025 0.3138 -0.1038
C34 C 0.1943(3) 0.3367(3) -0.0004(3)
H44 H 0.2067 0.3899 0.0336
C35 C 0.2614(3) 0.2868(3) -0.0070(3)
H45 H 0.2493 0.2298 -0.0337
C36 C 0.3552(3) 0.3153(3) 0.0254(3)
C37 C 0.7466(4) 0.7129(3) 0.2544(4)
H46 H 0.7651 0.7425 0.3107
H47 H 0.6836 0.7232 0.2387
H48 H 0.7860 0.7362 0.2100
C38 C 0.7545(3) 0.6164(3) 0.2601(3)
H49 H 0.7752 0.5961 0.3144
C39 C 0.7350(3) 0.5570(3) 0.1959(3)
H50 H 0.7170 0.5756 0.1401
C40 C 0.7407(3) 0.4627(3) 0.2089(3)
C41 C 0.2400(4) 0.1759(4) 0.2670(4)
H51 H 0.2147 0.1443 0.3155
H52 H 0.2205 0.1438 0.2122
H53 H 0.2185 0.2348 0.2666
C42 C 0.3414(3) 0.1835(4) 0.2774(3)
H54 H 0.3678 0.1581 0.3268
C43 C 0.3957(3) 0.2211(4) 0.2255(4)
H55 H 0.3688 0.2450 0.1756
C44 C 0.4948(3) 0.2310(3) 0.2349(3)
C45 C 0.7507(7) -0.0006(5) -0.0799(6)
H56 H 0.7828 -0.0480 -0.0550
H57 H 0.7886 0.0297 -0.1216
H58 H 0.6937 -0.0253 -0.1095
C46 C 0.7305(5) 0.0644(4) -0.0076(4)
H59 H 0.7498 0.0533 0.0502
C47 C 0.6896(4) 0.1320(4) -0.0205(4)
H60 H 0.6699 0.1415 -0.0786
C48 C 0.6692(3) 0.1989(3) 0.0481(3)
La1A La 0.416550(14) -0.095484(13) 0.575666(14)
La2A La 1.084150(14) 0.552697(14) 0.613522(14)
La3A La 0.453256(15) 0.615378(14) -0.059412(14)
O13A O 0.4804(2) 0.44205(19) -0.07924(18)
O24A O 0.56098(19) -0.05784(18) 0.4809(2)
O26A O 1.07464(19) 0.49411(19) 0.44764(18)
O29 O 0.4363(4) 0.0904(3) -0.0118(4)
O30 O 0.5136(4) 0.0221(3) 0.1453(3)
O31 O 0.8629(3) 0.4455(3) -0.0192(3)
O32 O 1.0066(3) 0.4590(3) 0.1172(3)
O33 O 0.4891(2) 0.3703(2) 0.5451(2)
O34 O 0.6151(2) 0.4928(2) 0.4729(2)
O35 O 0.9010(2) 0.1565(2) 0.4177(2)
loop_
_geom_bond_atom_site_label_1
_geom_bond_atom_site_label_2
_geom_bond_site_symmetry_1
_geom_bond_site_symmetry_2
La1 O1 1_555 1_555
La2 O7 1_555 1_555
La3 O13 1_555 1_555
La4 O5 1_555 1_555
O1 C4 1_555 1_555
O2 La1 1_555 1_555
O3 La1 1_555 1_555
O4 La1 1_555 1_555
O5 La1 1_555 1_555
O6 La1 1_555 1_555
O7 La4 1_555 1_555
O8 La2 1_555 1_555
O9 La2 1_555 1_555
O10 La2 1_555 1_555
O11 La2 1_555 1_555
O12 La4 1_555 1_555
O13 C32 1_555 1_555
O14 La3 1_555 1_555
O15 La3 1_555 1_555
O16 La3 1_555 1_555
O17 La3 1_555 1_555
O18 La2 1_555 1_555
O19 La1 1_555 1_555
O20 La3 1_555 1_555
O21 La3 1_555 1_555
O22 La4 1_555 1_555
O23 La1 1_555 1_555
O24 La1 1_555 1_555
O25 La2 1_555 1_555
O26 La2 1_555 1_555
O27 La3 1_555 1_555
O28 La4 1_555 1_555
C1 H1 1_555 1_555
H2 C1 1_555 1_555
H3 C1 1_555 1_555
C2 C1 1_555 1_555
H4 C2 1_555 1_555
C3 C2 1_555 1_555
H5 C3 1_555 1_555
C4 O24 1_555 1_555
C5 H6 1_555 1_555
H7 C5 1_555 1_555
H8 C5 1_555 1_555
C6 C5 1_555 1_555
H9 C6 1_555 1_555
C7 C6 1_555 1_555
H10 C7 1_555 1_555
C8 O2 1_555 1_555
C9 H11 1_555 1_555
H12 C9 1_555 1_555
H13 C9 1_555 1_555
C10 C9 1_555 1_555
H14 C10 1_555 1_555
C11 C10 1_555 1_555
H15 C11 1_555 1_555
C12 O4 1_555 1_555
C13 H16 1_555 1_555
H17 C13 1_555 1_555
H18 C13 1_555 1_555
C14 C13 1_555 1_555
H19 C14 1_555 1_555
C15 C14 1_555 1_555
H20 C15 1_555 1_555
C16 O6 1_555 1_555
C17 H21 1_555 1_555
H22 C17 1_555 1_555
H23 C17 1_555 1_555
C18 C17 1_555 1_555
H24 C18 1_555 1_555
C19 C18 1_555 1_555
H25 C19 1_555 1_555
C20 O8 1_555 1_555
C21 H26 1_555 1_555
H27 C21 1_555 1_555
H28 C21 1_555 1_555
C22 C21 1_555 1_555
H29 C22 1_555 1_555
C23 C22 1_555 1_555
H30 C23 1_555 1_555
C24 O9 1_555 1_555
C25 H31 1_555 1_555
H32 C25 1_555 1_555
H33 C25 1_555 1_555
C26 C25 1_555 1_555
H34 C26 1_555 1_555
C27 C26 1_555 1_555
H35 C27 1_555 1_555
C28 O11 1_555 1_555
C29 H36 1_555 1_555
H37 C29 1_555 1_555
H38 C29 1_555 1_555
C30 C29 1_555 1_555
H39 C30 1_555 1_555
C31 C30 1_555 1_555
H40 C31 1_555 1_555
C32 O14 1_555 1_555
C33 H41 1_555 1_555
H42 C33 1_555 1_555
H43 C33 1_555 1_555
C34 C33 1_555 1_555
H44 C34 1_555 1_555
C35 C34 1_555 1_555
H45 C35 1_555 1_555
C36 O15 1_555 1_555
C37 H46 1_555 1_555
H47 C37 1_555 1_555
H48 C37 1_555 1_555
C38 C37 1_555 1_555
H49 C38 1_555 1_555
C39 C38 1_555 1_555
H50 C39 1_555 1_555
C40 O17 1_555 1_555
C41 H51 1_555 1_555
H52 C41 1_555 1_555
H53 C41 1_555 1_555
C42 C41 1_555 1_555
H54 C42 1_555 1_555
C43 C42 1_555 1_555
H55 C43 1_555 1_555
C44 O19 1_555 1_555
C45 H56 1_555 1_555
H57 C45 1_555 1_555
H58 C45 1_555 1_555
C46 C45 1_555 1_555
H59 C46 1_555 1_555
C47 C46 1_555 1_555
H60 C47 1_555 1_555
C48 O21 1_555 1_555
La1A O24 1_555 1_555
La2A O26 1_555 1_555
La3A O13 1_555 1_555
O13A La3 1_555 1_555
O24A La1 1_555 1_555
O26A La2 1_555 1_555
La4 O6 1_555 1_555
La4 O17 1_555 1_555
La4 O18 1_555 1_555
La4 O19 1_555 1_555
La4 O20 1_555 1_555
O3 C8 1_555 1_555
O5 C12 1_555 1_555
O7 C16 1_555 1_555
O10 C24 1_555 1_555
O12 C28 1_555 1_555
O16 C36 1_555 1_555
O18 C40 1_555 1_555
O20 C44 1_555 1_555
O22 C48 1_555 1_555
O26 C20 1_555 1_555
C3 C4 1_555 1_555
C7 C8 1_555 1_555
C11 C12 1_555 1_555
C15 C16 1_555 1_555
C19 C20 1_555 1_555
C23 C24 1_555 1_555
C27 C28 1_555 1_555
C31 C32 1_555 1_555
C35 C36 1_555 1_555
C39 C40 1_555 1_555
C43 C44 1_555 1_555
C47 C48 1_555 1_555
La1A O24A 1_555 1_555
La2A O26A 1_555 1_555
La3A O13A 1_555 1_555

#END
