
#######################################################################
#
#                 Cambridge Crystallographic Data Centre
#                                CCDC 
#
#######################################################################
#
# If this CIF has been generated from an entry in the Cambridge 
# Structural Database, then it will include bibliographic, chemical, 
# crystal, experimental, refinement or atomic coordinate data resulting 
# from the CCDC's data processing and validation procedures.
#
#######################################################################

data_POZVEH
_symmetry_cell_setting           monoclinic
_symmetry_space_group_name_H-M   'P 21/n'
_symmetry_Int_Tables_number      14
_space_group_name_Hall           '-P 2yn'
loop_
_symmetry_equiv_pos_site_id
_symmetry_equiv_pos_as_xyz
1 x,y,z
2 1/2-x,1/2+y,1/2-z
3 -x,-y,-z
4 1/2+x,1/2-y,1/2+z
_cell_length_a                   12.3743(7)
_cell_length_b                   12.8620(7)
_cell_length_c                   18.4671(10)
_cell_angle_alpha                90
_cell_angle_beta                 98.5756(19)
_cell_angle_gamma                90
_cell_volume                     2906.33
loop_
_atom_site_label
_atom_site_type_symbol
_atom_site_fract_x
_atom_site_fract_y
_atom_site_fract_z
Ni1 Ni -0.71610(2) 0.93314(2) 0.50266(2)
O1 O -0.61856(11) 0.91079(11) 0.60272(7)
O2 O -0.77873(12) 0.78648(12) 0.51139(8)
O3 O -0.64027(12) 1.07602(11) 0.50511(8)
O4 O -0.83596(12) 1.00039(12) 0.55252(8)
O5 O -0.58802(11) 0.87029(11) 0.45382(7)
O6 O -0.82381(11) 0.95135(11) 0.40157(7)
C1 C -0.64631(15) 0.85967(15) 0.65529(10)
H1 H -0.8448 0.7700 0.5002
H2 H -0.7767 0.7895 0.5570
H3 H -0.5854 1.0898 0.5362
H4 H -0.6526 1.1233 0.4736
H5 H -0.8887 0.9619 0.5586
H6 H -0.8499 1.0640 0.5555
H7 H -0.6263 0.8593 0.4130
H8 H -0.5739 0.8149 0.4774
O7 O -0.73127(12) 0.80676(13) 0.65391(8)
C2 C -0.56945(14) 0.86311(13) 0.72705(9)
C3 C -0.59675(14) 0.81001(13) 0.78744(10)
C4 C -0.47105(15) 0.91752(14) 0.73346(10)
H9 H -0.6642 0.7737 0.7835
C5 C -0.52613(14) 0.80965(14) 0.85355(10)
C6 C -0.39935(15) 0.91641(14) 0.79918(10)
H10 H -0.4528 0.9555 0.6928
C7 C -0.55726(16) 0.75120(15) 0.91822(11)
C8 C -0.42707(14) 0.86248(14) 0.85923(10)
C9 C -0.29170(15) 0.97325(15) 0.80588(11)
O8 O -0.49494(13) 0.75664(14) 0.97796(8)
O9 O -0.64495(13) 0.70125(14) 0.90905(9)
H11 H -0.3783 0.8618 0.9041
N1 N -0.20133(13) 0.90247(13) 0.79133(10)
H12 H -0.2981 1.0317 0.7706
H13 H -0.2740 1.0026 0.8558
C10 C -0.20544(16) 0.85892(16) 0.72480(12)
C11 C -0.11662(17) 0.88335(16) 0.84423(13)
H14 H -0.2651 0.8742 0.6877
C12 C -0.12462(16) 0.79252(16) 0.70958(12)
C13 C -0.03285(17) 0.81834(17) 0.83097(14)
H15 H -0.1144 0.9147 0.8910
H16 H -0.1292 0.7617 0.6625
C14 C -0.03563(16) 0.77043(15) 0.76347(13)
H17 H 0.0272 0.8064 0.8685
C15 C 0.05240(16) 0.69711(15) 0.74916(12)
C16 C 0.06860(17) 0.66984(18) 0.67883(13)
C17 C 0.12128(18) 0.65264(17) 0.80733(13)
H18 H 0.0226 0.6982 0.6378
C18 C 0.15087(18) 0.60200(18) 0.66821(13)
C19 C 0.20287(18) 0.58576(16) 0.79424(12)
H19 H 0.1119 0.6685 0.8562
N2 N 0.21709(13) 0.56184(13) 0.72594(10)
H20 H 0.1610 0.5834 0.6199
H21 H 0.2498 0.5561 0.8344
C20 C 0.30903(15) 0.49054(15) 0.71499(12)
H22 H 0.2914 0.4552 0.6671
H23 H 0.3175 0.4366 0.7537
C21 C 0.41531(15) 0.54946(14) 0.71747(11)
C22 C 0.43513(15) 0.60268(15) 0.65485(10)
C23 C 0.49440(15) 0.54795(13) 0.77988(10)
H24 H 0.3817 0.6025 0.6122
C24 C 0.53277(15) 0.65585(14) 0.65477(10)
C25 C 0.59354(15) 0.60013(14) 0.78030(9)
H25 H 0.4807 0.5113 0.8222
C26 C 0.55663(18) 0.71442(16) 0.58761(11)
C27 C 0.61040(14) 0.65430(13) 0.71740(9)
C28 C 0.68725(15) 0.59802(14) 0.84399(10)
O10 O 0.63554(14) 0.77616(14) 0.59610(9)
O11 O 0.49759(16) 0.69464(12) 0.52763(8)
H26 H 0.6769 0.6912 0.7174
O12 O 0.77259(12) 0.64431(14) 0.83382(8)
O6C O 0.67619(11) 0.54865(11) 0.90157(7)
Ni1C Ni 0.78390(2) 0.56686(2) 1.00266(2)
O13 O -1.01432(13) 0.89232(12) 0.57946(8)
H27 H -1.0210 0.8481 0.5456
H28 H -1.0675 0.9336 0.5726
loop_
_geom_bond_atom_site_label_1
_geom_bond_atom_site_label_2
_geom_bond_site_symmetry_1
_geom_bond_site_symmetry_2
Ni1 O1 1_555 1_555
O1 C1 1_555 1_555
O2 Ni1 1_555 1_555
O3 Ni1 1_555 1_555
O4 Ni1 1_555 1_555
O5 Ni1 1_555 1_555
O6 Ni1 1_555 1_555
C1 O7 1_555 1_555
H1 O2 1_555 1_555
H2 O2 1_555 1_555
H3 O3 1_555 1_555
H4 O3 1_555 1_555
H5 O4 1_555 1_555
H6 O4 1_555 1_555
H7 O5 1_555 1_555
H8 O5 1_555 1_555
C2 C1 1_555 1_555
C3 C2 1_555 1_555
C4 C2 1_555 1_555
H9 C3 1_555 1_555
C5 C3 1_555 1_555
C6 C4 1_555 1_555
H10 C4 1_555 1_555
C7 C5 1_555 1_555
C8 C5 1_555 1_555
C9 C6 1_555 1_555
O8 C7 1_555 1_555
O9 C7 1_555 1_555
H11 C8 1_555 1_555
N1 C9 1_555 1_555
H12 C9 1_555 1_555
H13 C9 1_555 1_555
C10 N1 1_555 1_555
C11 N1 1_555 1_555
H14 C10 1_555 1_555
C12 C10 1_555 1_555
C13 C11 1_555 1_555
H15 C11 1_555 1_555
H16 C12 1_555 1_555
C14 C12 1_555 1_555
H17 C13 1_555 1_555
C15 C14 1_555 1_555
C16 C15 1_555 1_555
C17 C15 1_555 1_555
H18 C16 1_555 1_555
C18 C16 1_555 1_555
C19 C17 1_555 1_555
H19 C17 1_555 1_555
N2 C18 1_555 1_555
H20 C18 1_555 1_555
H21 C19 1_555 1_555
C20 N2 1_555 1_555
H22 C20 1_555 1_555
H23 C20 1_555 1_555
C21 C20 1_555 1_555
C22 C21 1_555 1_555
C23 C21 1_555 1_555
H24 C22 1_555 1_555
C24 C22 1_555 1_555
C25 C23 1_555 1_555
H25 C23 1_555 1_555
C26 C24 1_555 1_555
C27 C24 1_555 1_555
C28 C25 1_555 1_555
O10 C26 1_555 1_555
O11 C26 1_555 1_555
H26 C27 1_555 1_555
O12 C28 1_555 1_555
O13 H27 1_555 1_555
H28 O13 1_555 1_555
O6C C28 1_555 1_555
Ni1C O6C 1_555 1_555
C6 C8 1_555 1_555
C13 C14 1_555 1_555
C19 N2 1_555 1_555
C25 C27 1_555 1_555

#END
