
#######################################################################
#
#                 Cambridge Crystallographic Data Centre
#                                CCDC 
#
#######################################################################
#
# If this CIF has been generated from an entry in the Cambridge 
# Structural Database, then it will include bibliographic, chemical, 
# crystal, experimental, refinement or atomic coordinate data resulting 
# from the CCDC's data processing and validation procedures.
#
#######################################################################

data_PPOECU10
_symmetry_cell_setting           monoclinic
_symmetry_space_group_name_H-M   'C 2/c'
_symmetry_Int_Tables_number      15
_space_group_name_Hall           '-C 2yn'
loop_
_symmetry_equiv_pos_site_id
_symmetry_equiv_pos_as_xyz
1 x,y,z
2 1/2+x,1/2+y,z
3 -x,y,1/2-z
4 1/2-x,1/2+y,1/2-z
5 -x,-y,-z
6 1/2-x,1/2-y,-z
7 x,-y,1/2+z
8 1/2+x,1/2-y,1/2+z
_cell_length_a                   12.206(2)
_cell_length_b                   20.172(4)
_cell_length_c                   10.559(1)
_cell_angle_alpha                90
_cell_angle_beta                 97.26(2)
_cell_angle_gamma                90
_cell_volume                     2578.99
loop_
_atom_site_label
_atom_site_type_symbol
_atom_site_fract_x
_atom_site_fract_y
_atom_site_fract_z
Cl1 Cl -0.00190 0.12500 0.40950
Cu1 Cu 0.00000 0.19460 0.25000
C1 C 0.19560 0.26440 -0.03130
C2 C 0.20500 0.37410 0.14830
C3 C 0.20550 0.38800 0.27730
C4 C 0.27430 0.43690 0.33430
C5 C 0.34350 0.47140 0.26370
C6 C 0.34250 0.45820 0.13680
C7 C 0.27430 0.40980 0.07840
C8 C -0.00210 0.33750 -0.01300
C9 C -0.01330 0.40270 -0.05280
C10 C -0.10960 0.42310 -0.12640
C11 C -0.19390 0.37870 -0.15970
C12 C -0.18290 0.31400 -0.12130
C13 C -0.08600 0.29290 -0.04810
H1 H 0.20800 0.29800 -0.09900
H2 H -0.25900 0.39200 -0.21100
H3 H -0.24300 0.28500 -0.14800
H4 H -0.08100 0.24600 -0.02400
H5 H 0.14800 0.23300 -0.06900
H6 H 0.15900 0.36200 0.32700
H7 H 0.27300 0.44500 0.42300
H8 H 0.39500 0.50500 0.30300
H9 H 0.39400 0.47800 0.09100
H10 H 0.27300 0.40200 -0.01400
H11 H 0.04000 0.43300 -0.02700
H12 H -0.12000 0.47000 -0.14600
O1 O 0.09510 0.26240 0.18770
P1 P 0.12050 0.30680 0.08170
Cl1B Cl 0.00190 0.12500 0.09050
O1B O -0.09510 0.26240 0.31230
C1E C 0.30440 0.23560 0.03130
P1B P -0.12050 0.30680 0.41830
H1E H 0.29200 0.20200 0.09900
H5E H 0.35200 0.26700 0.06900
P1E P 0.37950 0.19320 -0.08170
C1B C -0.19560 0.26440 0.53130
C2B C -0.20500 0.37410 0.35170
C8B C 0.00210 0.33750 0.51300
C2E C 0.29500 0.12590 -0.14830
C8E C 0.50210 0.16250 0.01300
O1E O 0.40490 0.23760 -0.18770
C1G C -0.30440 0.23560 0.46870
H1B H -0.20800 0.29800 0.59900
H5B H -0.14800 0.23300 0.56900
C3B C -0.20550 0.38800 0.22270
C7B C -0.27430 0.40980 0.42160
C9B C 0.01330 0.40270 0.55280
C13B C 0.08600 0.29290 0.54810
C3E C 0.29450 0.11200 -0.27730
C7E C 0.22570 0.09020 -0.07840
C9E C 0.51330 0.09730 0.05280
C13E C 0.58600 0.20710 0.04810
Cu1E Cu 0.50000 0.30540 -0.25000
H1G H -0.29200 0.20200 0.40100
H5G H -0.35200 0.26700 0.43100
P1G P -0.37950 0.19320 0.58170
C4B C -0.27430 0.43690 0.16570
H6B H -0.15900 0.36200 0.17300
C6B C -0.34250 0.45820 0.36320
H10B H -0.27300 0.40200 0.51400
C10B C 0.10960 0.42310 0.62640
H11B H -0.04000 0.43300 0.52700
C12B C 0.18290 0.31400 0.62130
H4B H 0.08100 0.24600 0.52400
C4E C 0.22570 0.06310 -0.33430
H6E H 0.34100 0.13800 -0.32700
C6E C 0.15750 0.04180 -0.13680
H10E H 0.22700 0.09800 0.01400
C10E C 0.60960 0.07690 0.12640
H11E H 0.46000 0.06700 0.02700
C12E C 0.68290 0.18600 0.12130
H4E H 0.58100 0.25400 0.02400
Cl1E Cl 0.50190 0.37500 -0.40950
Cl1G Cl 0.49810 0.37500 -0.09050
O1G O 0.59510 0.23760 -0.31230
C2G C -0.29500 0.12590 0.64830
C8G C -0.50210 0.16250 0.48700
O1G_2 O -0.40490 0.23760 0.68770
C5B C -0.34350 0.47140 0.23630
H7B H -0.27300 0.44500 0.07700
H9B H -0.39400 0.47800 0.40900
C11B C 0.19390 0.37870 0.65970
H12B H 0.12000 0.47000 0.64600
H3B H 0.24300 0.28500 0.64800
C5E C 0.15650 0.02860 -0.26370
H7E H 0.22700 0.05500 -0.42300
H9E H 0.10600 0.02200 -0.09100
C11E C 0.69390 0.12130 0.15970
H12E H 0.62000 0.03000 0.14600
H3E H 0.74300 0.21500 0.14800
C3G C -0.29450 0.11200 0.77730
C7G C -0.22570 0.09020 0.57840
C9G C -0.51330 0.09730 0.44720
C13G C -0.58600 0.20710 0.45190
H8B H -0.39500 0.50500 0.19700
H2B H 0.25900 0.39200 0.71100
H8E H 0.10500 -0.00500 -0.30300
H2E H 0.75900 0.10800 0.21100
C4G C -0.22570 0.06310 0.83430
H6G H -0.34100 0.13800 0.82700
C6G C -0.15750 0.04180 0.63680
H10G H -0.22700 0.09800 0.48600
C10G C -0.60960 0.07690 0.37360
H11G H -0.46000 0.06700 0.47300
C12G C -0.68290 0.18600 0.37870
H4G H -0.58100 0.25400 0.47600
C5G C -0.15650 0.02860 0.76370
H7G H -0.22700 0.05500 0.92300
H9G H -0.10600 0.02200 0.59100
C11G C -0.69390 0.12130 0.34030
H12G H -0.62000 0.03000 0.35400
H3G H -0.74300 0.21500 0.35200
H8G H -0.10500 -0.00500 0.80300
H2G H -0.75900 0.10800 0.28900
Cu1E_2 Cu -0.50000 0.30540 0.75000
loop_
_geom_bond_atom_site_label_1
_geom_bond_atom_site_label_2
_geom_bond_site_symmetry_1
_geom_bond_site_symmetry_2
Cl1 Cu1 1_555 1_555
Cu1 O1 1_555 1_555
C1 H1 1_555 1_555
C2 C3 1_555 1_555
C3 C4 1_555 1_555
C4 C5 1_555 1_555
C5 C6 1_555 1_555
C6 C7 1_555 1_555
C7 C2 1_555 1_555
C8 C9 1_555 1_555
C9 C10 1_555 1_555
C10 C11 1_555 1_555
C11 C12 1_555 1_555
C12 C13 1_555 1_555
C13 C8 1_555 1_555
H2 C11 1_555 1_555
H3 C12 1_555 1_555
H4 C13 1_555 1_555
H5 C1 1_555 1_555
H6 C3 1_555 1_555
H7 C4 1_555 1_555
H8 C5 1_555 1_555
H9 C6 1_555 1_555
H10 C7 1_555 1_555
H11 C9 1_555 1_555
H12 C10 1_555 1_555
O1 P1 1_555 1_555
P1 C1 1_555 1_555
Cl1B Cu1 1_555 1_555
O1B Cu1 1_555 1_555
C1E C1 1_555 1_555
P1B O1B 1_555 1_555
H1E C1E 1_555 1_555
H5E C1E 1_555 1_555
P1E C1E 1_555 1_555
C1B P1B 1_555 1_555
C2B P1B 1_555 1_555
C8B P1B 1_555 1_555
C2E P1E 1_555 1_555
C8E P1E 1_555 1_555
O1E P1E 1_555 1_555
C1G C1B 1_555 1_555
H1B C1B 1_555 1_555
H5B C1B 1_555 1_555
C3B C2B 1_555 1_555
C7B C2B 1_555 1_555
C9B C8B 1_555 1_555
C13B C8B 1_555 1_555
C3E C2E 1_555 1_555
C7E C2E 1_555 1_555
C9E C8E 1_555 1_555
C13E C8E 1_555 1_555
Cu1E O1E 1_555 1_555
H1G C1G 1_555 1_555
H5G C1G 1_555 1_555
P1G C1G 1_555 1_555
C4B C3B 1_555 1_555
H6B C3B 1_555 1_555
C6B C7B 1_555 1_555
H10B C7B 1_555 1_555
C10B C9B 1_555 1_555
H11B C9B 1_555 1_555
C12B C13B 1_555 1_555
H4B C13B 1_555 1_555
C4E C3E 1_555 1_555
H6E C3E 1_555 1_555
C6E C7E 1_555 1_555
H10E C7E 1_555 1_555
C10E C9E 1_555 1_555
H11E C9E 1_555 1_555
C12E C13E 1_555 1_555
H4E C13E 1_555 1_555
Cl1E Cu1E 1_555 1_555
Cl1G Cu1E 1_555 1_555
O1G Cu1E 1_555 1_555
C2G P1G 1_555 1_555
C8G P1G 1_555 1_555
O1G_2 P1G 1_555 1_555
C5B C4B 1_555 1_555
H7B C4B 1_555 1_555
H9B C6B 1_555 1_555
C11B C10B 1_555 1_555
H12B C10B 1_555 1_555
H3B C12B 1_555 1_555
C5E C4E 1_555 1_555
H7E C4E 1_555 1_555
H9E C6E 1_555 1_555
C11E C10E 1_555 1_555
H12E C10E 1_555 1_555
H3E C12E 1_555 1_555
C3G C2G 1_555 1_555
C7G C2G 1_555 1_555
C9G C8G 1_555 1_555
C13G C8G 1_555 1_555
H8B C5B 1_555 1_555
H2B C11B 1_555 1_555
H8E C5E 1_555 1_555
H2E C11E 1_555 1_555
C4G C3G 1_555 1_555
H6G C3G 1_555 1_555
C6G C7G 1_555 1_555
H10G C7G 1_555 1_555
C10G C9G 1_555 1_555
H11G C9G 1_555 1_555
C12G C13G 1_555 1_555
H4G C13G 1_555 1_555
C5G C4G 1_555 1_555
H7G C4G 1_555 1_555
H9G C6G 1_555 1_555
C11G C10G 1_555 1_555
H12G C10G 1_555 1_555
H3G C12G 1_555 1_555
H8G C5G 1_555 1_555
H2G C11G 1_555 1_555
Cu1E_2 O1G_2 1_555 1_555
C2 P1 1_555 1_555
C8 P1 1_555 1_555
C6B C5B 1_555 1_555
C12B C11B 1_555 1_555
C6E C5E 1_555 1_555
C12E C11E 1_555 1_555
C6G C5G 1_555 1_555
C12G C11G 1_555 1_555

#END
