
#######################################################################
#
#                 Cambridge Crystallographic Data Centre
#                                CCDC 
#
#######################################################################
#
# If this CIF has been generated from an entry in the Cambridge 
# Structural Database, then it will include bibliographic, chemical, 
# crystal, experimental, refinement or atomic coordinate data resulting 
# from the CCDC's data processing and validation procedures.
#
#######################################################################

data_PRDSBA10
_symmetry_cell_setting           monoclinic
_symmetry_space_group_name_H-M   'P 21/c'
_symmetry_Int_Tables_number      14
_space_group_name_Hall           '-P 2ybc'
loop_
_symmetry_equiv_pos_site_id
_symmetry_equiv_pos_as_xyz
1 x,y,z
2 -x,1/2+y,1/2-z
3 -x,-y,-z
4 x,1/2-y,1/2+z
_cell_length_a                   14.051(9)
_cell_length_b                   8.494(6)
_cell_length_c                   16.508(11)
_cell_angle_alpha                90
_cell_angle_beta                 98.21(5)
_cell_angle_gamma                90
_cell_volume                     1950.02
loop_
_atom_site_label
_atom_site_type_symbol
_atom_site_fract_x
_atom_site_fract_y
_atom_site_fract_z
Sb1 Sb 0.09500 0.07540 0.17010
Cl1 Cl -0.00710 0.30780 0.26420
Cl2 Cl 0.19990 0.28170 0.12540
Cl3 Cl 0.35220 -0.30260 0.11080
Cl4 Cl 0.51430 -0.33800 0.26150
Cl5 Cl 0.49230 -0.17020 0.42500
Cl6 Cl 0.31070 0.03820 0.43690
O1 O 0.18210 0.06380 0.28080
O2 O 0.19390 -0.08960 0.14360
C1 C 0.25430 -0.02510 0.28000
C2 C 0.26410 -0.11390 0.20620
C3 C 0.34300 -0.21020 0.20030
C4 C 0.41460 -0.22840 0.26980
C5 C 0.40440 -0.14720 0.34250
C6 C 0.32560 -0.05210 0.34570
Cl1A Cl 0.00710 -0.19220 0.23580
Sb1A Sb -0.09500 0.57540 0.32990
Sb1A_2 Sb -0.09500 -0.42460 0.32990
Cl1A_2 Cl 0.00710 0.80780 0.23580
Cl2A Cl -0.19990 0.78170 0.37460
O1A O -0.18210 0.56380 0.21920
O2A O -0.19390 0.41040 0.35640
C1A C -0.25430 0.47490 0.22000
C2A C -0.26410 0.38610 0.29380
C6A C -0.32560 0.44790 0.15430
C3A C -0.34300 0.28980 0.29970
Cl6A Cl -0.31070 0.53820 0.06310
C5A C -0.40440 0.35280 0.15750
Cl3A Cl -0.35220 0.19740 0.38920
C4A C -0.41460 0.27160 0.23020
Cl5A Cl -0.49230 0.32980 0.07500
Cl4A Cl -0.51430 0.16200 0.23850
C7 C 0.37570 0.09130 -0.11090
C8 C 0.30660 0.09060 -0.18380
C9 C 0.21950 0.03190 -0.18070
C10 C 0.19050 0.02190 -0.09710
C11 C 0.34470 0.02780 -0.02740
N1 N 0.25330 0.00460 -0.02690
loop_
_geom_bond_atom_site_label_1
_geom_bond_atom_site_label_2
_geom_bond_site_symmetry_1
_geom_bond_site_symmetry_2
Sb1 Cl1 1_555 1_555
Cl1 Sb1A 1_555 1_555
Cl2 Sb1 1_555 1_555
Cl3 C3 1_555 1_555
Cl4 C4 1_555 1_555
Cl5 C5 1_555 1_555
Cl6 C6 1_555 1_555
O1 Sb1 1_555 1_555
O2 Sb1 1_555 1_555
C1 O1 1_555 1_555
C2 O2 1_555 1_555
C3 C2 1_555 1_555
C4 C3 1_555 1_555
C5 C4 1_555 1_555
C6 C1 1_555 1_555
C7 C8 1_555 1_555
C8 C9 1_555 1_555
C9 C10 1_555 1_555
C10 N1 1_555 1_555
C11 C7 1_555 1_555
N1 C11 1_555 1_555
Cl1A Sb1 1_555 1_555
Sb1A Cl1A_2 1_555 1_555
Sb1A_2 Cl1A 1_555 1_555
Cl2A Sb1A 1_555 1_555
O1A Sb1A 1_555 1_555
O2A Sb1A 1_555 1_555
C1A O1A 1_555 1_555
C2A O2A 1_555 1_555
C6A C1A 1_555 1_555
C3A C2A 1_555 1_555
Cl6A C6A 1_555 1_555
C5A C6A 1_555 1_555
Cl3A C3A 1_555 1_555
C4A C3A 1_555 1_555
Cl5A C5A 1_555 1_555
Cl4A C4A 1_555 1_555
C1 C2 1_555 1_555
C5 C6 1_555 1_555
C1A C2A 1_555 1_555
C5A C4A 1_555 1_555

#END
