
#######################################################################
#
#                 Cambridge Crystallographic Data Centre
#                                CCDC 
#
#######################################################################
#
# If this CIF has been generated from an entry in the Cambridge 
# Structural Database, then it will include bibliographic, chemical, 
# crystal, experimental, refinement or atomic coordinate data resulting 
# from the CCDC's data processing and validation procedures.
#
#######################################################################

data_PRNRHC
_symmetry_cell_setting           triclinic
_symmetry_space_group_name_H-M   'P -1'
_symmetry_Int_Tables_number      2
_space_group_name_Hall           '-P 1'
loop_
_symmetry_equiv_pos_site_id
_symmetry_equiv_pos_as_xyz
1 x,y,z
2 -x,-y,-z
_cell_length_a                   8.744(1)
_cell_length_b                   9.890(4)
_cell_length_c                   8.037(1)
_cell_angle_alpha                111.82(2)
_cell_angle_beta                 90.14(1)
_cell_angle_gamma                82.24(2)
_cell_volume                     638.46
loop_
_atom_site_label
_atom_site_type_symbol
_atom_site_fract_x
_atom_site_fract_y
_atom_site_fract_z
Rh1 Rh 0.49406 0.11494 0.47895
O1 O 0.58410 -0.00290 0.22310
O2 O 0.28300 0.07980 0.37500
O3 O 0.59170 -0.21640 0.26290
O4 O 0.29320 -0.13210 0.41760
N1 N 0.48730 0.35040 0.46590
C1 C 0.60490 -0.13940 0.16960
C2 C 0.65640 -0.22750 -0.02900
C3 C 0.68490 -0.38790 -0.08400
C4 C 0.23350 -0.04000 0.35850
C5 C 0.08460 -0.06720 0.26020
C6 C 0.04020 -0.21610 0.23330
C7 C 0.37210 0.45720 0.54730
C8 C 0.22990 0.42050 0.59830
C9 C 0.11250 0.52690 0.68340
C10 C 0.12440 0.67980 0.72740
C11 C 0.25690 0.71950 0.67920
C12 C 0.61810 0.38990 0.41390
C12A C 0.38190 0.61010 0.58610
N1A N 0.51270 0.64960 0.53410
C7A C 0.62790 0.54280 0.45270
C8A C 0.77010 0.57950 0.40170
C9A C 0.88750 0.47310 0.31660
C10A C 0.87560 0.32020 0.27260
C11A C 0.74310 0.28050 0.32080
O1A O 0.41590 0.00290 0.77690
O3A O 0.40830 0.21640 0.73710
C1A C 0.39510 0.13940 0.83040
C2A C 0.34360 0.22750 1.02900
C3A C 0.31510 0.38790 1.08400
O2A O 0.71700 -0.07980 0.62500
O4A O 0.70680 0.13210 0.58240
C4A C 0.76650 0.04000 0.64150
C5A C 0.91540 0.06720 0.73980
C6A C 0.95980 0.21610 0.76670
Rh1A Rh 0.50594 -0.11494 0.52105
Rh1A_2 Rh 0.50594 0.88506 0.52105
N1A_2 N 0.51270 -0.35040 0.53410
loop_
_geom_bond_atom_site_label_1
_geom_bond_atom_site_label_2
_geom_bond_site_symmetry_1
_geom_bond_site_symmetry_2
Rh1 O1 1_555 1_555
O1 C1 1_555 1_555
O2 Rh1 1_555 1_555
O3 C1 1_555 1_555
O4 C4 1_555 1_555
N1 Rh1 1_555 1_555
C1 C2 1_555 1_555
C2 C3 1_555 1_555
C4 O2 1_555 1_555
C5 C4 1_555 1_555
C6 C5 1_555 1_555
C7 N1 1_555 1_555
C8 C7 1_555 1_555
C9 C8 1_555 1_555
C10 C9 1_555 1_555
C11 C10 1_555 1_555
C12 N1 1_555 1_555
C12A C7 1_555 1_555
N1A C12A 1_555 1_555
C7A C12 1_555 1_555
C8A C7A 1_555 1_555
C9A C8A 1_555 1_555
C10A C9A 1_555 1_555
C11A C12 1_555 1_555
O1A C1A 1_555 1_555
O3A Rh1 1_555 1_555
C1A O3A 1_555 1_555
C2A C1A 1_555 1_555
C3A C2A 1_555 1_555
O2A C4A 1_555 1_555
O4A Rh1 1_555 1_555
C4A O4A 1_555 1_555
C5A C4A 1_555 1_555
C6A C5A 1_555 1_555
Rh1A Rh1 1_555 1_555
Rh1A_2 N1A 1_555 1_555
N1A_2 Rh1A 1_555 1_555
O3 Rh1A 1_555 1_555
O4 Rh1A 1_555 1_555
C11 C12A 1_555 1_555
N1A C7A 1_555 1_555
C10A C11A 1_555 1_555
O1A Rh1A 1_555 1_555
O2A Rh1A 1_555 1_555

#END
