
#######################################################################
#
#                 Cambridge Crystallographic Data Centre
#                                CCDC 
#
#######################################################################
#
# If this CIF has been generated from an entry in the Cambridge 
# Structural Database, then it will include bibliographic, chemical, 
# crystal, experimental, refinement or atomic coordinate data resulting 
# from the CCDC's data processing and validation procedures.
#
#######################################################################

data_PROXDH
_symmetry_cell_setting           monoclinic
_symmetry_space_group_name_H-M   'P 21/c'
_symmetry_Int_Tables_number      14
_space_group_name_Hall           '-P 2ybc'
loop_
_symmetry_equiv_pos_site_id
_symmetry_equiv_pos_as_xyz
1 x,y,z
2 -x,1/2+y,1/2-z
3 -x,-y,-z
4 x,1/2-y,1/2+z
_cell_length_a                   11.254(9)
_cell_length_b                   9.633(4)
_cell_length_c                   10.331(6)
_cell_angle_alpha                90
_cell_angle_beta                 114.52(5)
_cell_angle_gamma                90
_cell_volume                     1018.98
loop_
_atom_site_label
_atom_site_type_symbol
_atom_site_fract_x
_atom_site_fract_y
_atom_site_fract_z
C1 C -0.00050 0.44550 0.44490
C2 C -0.44700 0.52590 0.56600
C3 C -0.46840 0.42590 0.00540
O1 O -0.10860 0.43020 0.33430
O2 O 0.10680 0.39490 0.45730
O3 O -0.33710 0.56090 0.56810
O4 O -0.47510 0.52420 0.67450
O5 O -0.37010 0.40330 0.11980
O6 O -0.50690 0.35900 -0.10860
O7 O -0.20270 0.69360 0.20060
O8 O -0.29220 0.30220 0.42580
O9 O -0.33110 0.80000 0.38690
Pr1 Pr -0.31100 0.54630 0.33140
C1B C 0.00050 0.55450 0.55510
O1B O 0.10860 0.56980 0.66570
O2B O -0.10680 0.60510 0.54270
C2B C -0.55300 0.47410 0.43400
O3B O -0.66290 0.43910 0.43190
O4B O -0.52490 0.47580 0.32550
C3B C -0.53160 0.57410 -0.00540
O5B O -0.62990 0.59670 -0.11980
O6B O -0.49310 0.64100 0.10860
Pr1B Pr 0.31100 0.45370 0.66860
O7B O 0.20270 0.30640 0.79940
O8B O 0.29220 0.69780 0.57420
O9B O 0.33110 0.20000 0.61310
Pr1B_2 Pr -0.68900 0.45370 0.66860
Pr1B_3 Pr -0.68900 0.45370 -0.33140
O3B_2 O 0.33710 0.43910 0.43190
O4_2 O 0.52490 0.52420 0.67450
O5B_2 O 0.37010 0.59670 0.88020
O6_2 O 0.49310 0.35900 0.89140
loop_
_geom_bond_atom_site_label_1
_geom_bond_atom_site_label_2
_geom_bond_site_symmetry_1
_geom_bond_site_symmetry_2
C1 O1 1_555 1_555
C2 O3 1_555 1_555
C3 O5 1_555 1_555
O1 Pr1 1_555 1_555
O2 C1 1_555 1_555
O3 Pr1 1_555 1_555
O4 C2 1_555 1_555
O5 Pr1 1_555 1_555
O6 C3 1_555 1_555
O7 Pr1 1_555 1_555
O8 Pr1 1_555 1_555
O9 Pr1 1_555 1_555
Pr1 O2B 1_555 1_555
C1B C1 1_555 1_555
O1B C1B 1_555 1_555
O2B C1B 1_555 1_555
C2B C2 1_555 1_555
O3B C2B 1_555 1_555
O4B Pr1 1_555 1_555
C3B C3 1_555 1_555
O5B C3B 1_555 1_555
O6B Pr1 1_555 1_555
Pr1B O2 1_555 1_555
O7B Pr1B 1_555 1_555
O8B Pr1B 1_555 1_555
O9B Pr1B 1_555 1_555
Pr1B_2 O4 1_555 1_555
Pr1B_3 O6 1_555 1_555
O3B_2 Pr1B 1_555 1_555
O4_2 Pr1B 1_555 1_555
O5B_2 Pr1B 1_555 1_555
O6_2 Pr1B 1_555 1_555
O1B Pr1B 1_555 1_555
C2B O4B 1_555 1_555
O3B Pr1B_2 1_555 1_555
C3B O6B 1_555 1_555
O5B Pr1B_3 1_555 1_555

#END
