
#######################################################################
#
#                 Cambridge Crystallographic Data Centre
#                                CCDC 
#
#######################################################################
#
# If this CIF has been generated from an entry in the Cambridge 
# Structural Database, then it will include bibliographic, chemical, 
# crystal, experimental, refinement or atomic coordinate data resulting 
# from the CCDC's data processing and validation procedures.
#
#######################################################################

data_PSHICU10
_symmetry_cell_setting           monoclinic
_symmetry_space_group_name_H-M   'P 21/n'
_symmetry_Int_Tables_number      14
_space_group_name_Hall           '-P 2yn'
loop_
_symmetry_equiv_pos_site_id
_symmetry_equiv_pos_as_xyz
1 x,y,z
2 1/2-x,1/2+y,1/2-z
3 -x,-y,-z
4 1/2+x,1/2-y,1/2+z
_cell_length_a                   16.46(1)
_cell_length_b                   15.72(1)
_cell_length_c                   5.63(1)
_cell_angle_alpha                90
_cell_angle_beta                 92.4(1)
_cell_angle_gamma                90
_cell_volume                     1455.49
loop_
_atom_site_label
_atom_site_type_symbol
_atom_site_fract_x
_atom_site_fract_y
_atom_site_fract_z
Cu1 Cu -0.00410 0.19760 0.20320
C1 C 0.01550 0.29110 0.68020
C2 C 0.26460 0.08430 0.17600
C3 C 0.34320 0.05710 0.14470
C4 C 0.36050 0.01230 -0.06000
C5 C 0.30120 -0.00550 -0.22770
C6 C 0.22080 0.02050 -0.19750
C7 C -0.18450 0.24640 0.22040
C8 C -0.26450 0.24510 0.13040
C9 C -0.28370 0.19880 -0.06970
C10 C -0.22330 0.15400 -0.17810
C11 C -0.14490 0.15650 -0.08080
C12 C -0.07730 0.10960 -0.17580
C13 C 0.12000 0.10090 0.04540
C14 C 0.20220 0.06740 0.00670
H1 H 0.11400 0.02000 -0.31600
H2 H 0.25100 0.12000 0.33200
H3 H 0.38600 0.06800 0.26000
H4 H 0.41600 -0.00900 -0.08400
H5 H 0.31300 -0.03600 -0.37400
H6 H -0.16700 0.27900 0.36400
H7 H -0.30300 0.27500 0.21300
H8 H -0.33600 0.19800 -0.12600
H9 H -0.23300 0.12300 -0.31200
H10 H -0.08300 0.07200 -0.30000
N1 N 0.00030 0.25920 0.49980
N2 N -0.12550 0.20320 0.11730
N3 N -0.00920 0.11880 -0.05860
N4 N 0.06170 0.08000 -0.11870
O1 O 0.10730 0.14830 0.22490
O2 O 0.16420 -0.00130 -0.36750
S1 S 0.03460 0.33470 0.93960
S1_2 S 0.03460 0.33470 -0.06040
Cu1_2 Cu -0.00410 0.19760 1.20320
loop_
_geom_bond_atom_site_label_1
_geom_bond_atom_site_label_2
_geom_bond_site_symmetry_1
_geom_bond_site_symmetry_2
Cu1 N1 1_555 1_555
C1 N1 1_555 1_555
C2 C3 1_555 1_555
C3 C4 1_555 1_555
C4 C5 1_555 1_555
C5 C6 1_555 1_555
C6 C14 1_555 1_555
C7 C8 1_555 1_555
C8 C9 1_555 1_555
C9 C10 1_555 1_555
C10 C11 1_555 1_555
C11 C12 1_555 1_555
C12 H10 1_555 1_555
C13 C14 1_555 1_555
C14 C2 1_555 1_555
H1 O2 1_555 1_555
H2 C2 1_555 1_555
H3 C3 1_555 1_555
H4 C4 1_555 1_555
H5 C5 1_555 1_555
H6 C7 1_555 1_555
H7 C8 1_555 1_555
H8 C9 1_555 1_555
H9 C10 1_555 1_555
N2 Cu1 1_555 1_555
N3 Cu1 1_555 1_555
N4 C13 1_555 1_555
O1 Cu1 1_555 1_555
O2 C6 1_555 1_555
S1 C1 1_555 1_555
S1_2 Cu1 1_555 1_555
Cu1_2 S1 1_555 1_555
C7 N2 1_555 1_555
C11 N2 1_555 1_555
C12 N3 1_555 1_555
C13 O1 1_555 1_555
N3 N4 1_555 1_555

#END
