
#######################################################################
#
#                 Cambridge Crystallographic Data Centre
#                                CCDC 
#
#######################################################################
#
# If this CIF has been generated from an entry in the Cambridge 
# Structural Database, then it will include bibliographic, chemical, 
# crystal, experimental, refinement or atomic coordinate data resulting 
# from the CCDC's data processing and validation procedures.
#
#######################################################################

data_PTCUBR
_symmetry_cell_setting           monoclinic
_symmetry_space_group_name_H-M   'C 2/m'
_symmetry_Int_Tables_number      12
_space_group_name_Hall           '-C 2y'
loop_
_symmetry_equiv_pos_site_id
_symmetry_equiv_pos_as_xyz
1 x,y,z
2 1/2+x,1/2+y,z
3 -x,y,-z
4 1/2-x,1/2+y,-z
5 -x,-y,-z
6 1/2-x,1/2-y,-z
7 x,-y,z
8 1/2+x,1/2-y,z
_cell_length_a                   17.108(3)
_cell_length_b                   6.904(1)
_cell_length_c                   10.203(2)
_cell_angle_alpha                90
_cell_angle_beta                 102.5(2)
_cell_angle_gamma                90
_cell_volume                     1176.55
loop_
_atom_site_label
_atom_site_type_symbol
_atom_site_fract_x
_atom_site_fract_y
_atom_site_fract_z
Br1 Br 0.35914 -0.50000 -0.19258
Br2 Br 0.24082 -0.50000 0.10151
Cu1 Cu 0.00000 -0.50000 0.00000
Cu2 Cu 0.15814 -0.78698 0.01779
C1 C 0.07870 -0.50000 -0.21160
C2 C 0.14430 -0.32060 -0.36440
C3 C 0.12050 -0.32090 -0.51700
C4 C 0.14820 -0.50000 -0.57630
H1 H 0.12200 -0.21300 -0.32700
H2 H 0.20600 -0.30700 -0.33300
H3 H 0.15200 -0.19600 -0.54800
H4 H 0.05500 -0.31300 -0.53900
H5 H 0.11700 -0.50000 -0.66300
H6 H 0.20600 -0.50000 -0.54900
N1 N 0.11790 -0.50000 -0.30960
S1 S 0.04810 -0.70903 -0.14165
C3F C 0.12050 -0.67910 -0.51700
C2F C 0.14430 -0.67940 -0.36440
H1F H 0.12200 -0.78700 -0.32700
H2F H 0.20600 -0.69300 -0.33300
H3F H 0.15200 -0.80400 -0.54800
H4F H 0.05500 -0.68700 -0.53900
S1F S 0.04810 -0.29097 -0.14165
C1B C -0.07870 -0.50000 0.21160
C2B C -0.14430 -0.32060 0.36440
C3B C -0.12050 -0.32090 0.51700
C4B C -0.14820 -0.50000 0.57630
H1B H -0.12200 -0.21300 0.32700
H2B H -0.20600 -0.30700 0.33300
H3B H -0.15200 -0.19600 0.54800
H4B H -0.05500 -0.31300 0.53900
H5B H -0.11700 -0.50000 0.66300
H6B H -0.20600 -0.50000 0.54900
N1B N -0.11790 -0.50000 0.30960
S1B S -0.04810 -0.70903 0.14165
C3D C -0.12050 -0.67910 0.51700
C2D C -0.14430 -0.67940 0.36440
H1D H -0.12200 -0.78700 0.32700
H2D H -0.20600 -0.69300 0.33300
H3D H -0.15200 -0.80400 0.54800
H4D H -0.05500 -0.68700 0.53900
S1D S -0.04810 -0.29097 0.14165
Cu2F Cu 0.15814 -0.21302 0.01779
Cu2B Cu -0.15814 -0.78698 -0.01779
Cu2D Cu -0.15814 -0.21302 -0.01779
Br2C Br 0.25918 -1.00000 -0.10151
Br1C Br 0.14086 0.00000 0.19258
Cu2F_2 Cu 0.15814 -1.21302 0.01779
Cu2C Cu 0.34186 -0.28698 -0.01779
Cu2E Cu 0.34186 -0.71302 -0.01779
Br2C_2 Br 0.25918 0.00000 -0.10151
Cu2C_2 Cu 0.34186 -1.28698 -0.01779
Cu2_2 Cu 0.15814 0.21302 0.01779
Br1C_2 Br 0.14086 -1.00000 0.19258
S1E S 0.45190 -0.79097 0.14165
S1C S 0.45190 -0.20903 0.14165
Cu2E_2 Cu 0.34186 0.28698 -0.01779
loop_
_geom_bond_atom_site_label_1
_geom_bond_atom_site_label_2
_geom_bond_site_symmetry_1
_geom_bond_site_symmetry_2
Br1 Cu2C 1_555 1_555
Br2 Cu2 1_555 1_555
Cu1 S1 1_555 1_555
Cu2 S1 1_555 1_555
C1 N1 1_555 1_555
C2 C3 1_555 1_555
C3 C4 1_555 1_555
C4 H5 1_555 1_555
H1 C2 1_555 1_555
H2 C2 1_555 1_555
H3 C3 1_555 1_555
H4 C3 1_555 1_555
H6 C4 1_555 1_555
N1 C2 1_555 1_555
S1 C1 1_555 1_555
C3F C4 1_555 1_555
C2F N1 1_555 1_555
H1F C2F 1_555 1_555
H2F C2F 1_555 1_555
H3F C3F 1_555 1_555
H4F C3F 1_555 1_555
S1F Cu1 1_555 1_555
C1B N1B 1_555 1_555
C2B C3B 1_555 1_555
C3B C4B 1_555 1_555
C4B H5B 1_555 1_555
H1B C2B 1_555 1_555
H2B C2B 1_555 1_555
H3B C3B 1_555 1_555
H4B C3B 1_555 1_555
H6B C4B 1_555 1_555
N1B C2B 1_555 1_555
S1B Cu1 1_555 1_555
C3D C4B 1_555 1_555
C2D N1B 1_555 1_555
H1D C2D 1_555 1_555
H2D C2D 1_555 1_555
H3D C3D 1_555 1_555
H4D C3D 1_555 1_555
S1D Cu1 1_555 1_555
Cu2F Br2 1_555 1_555
Cu2B S1B 1_555 1_555
Cu2D S1D 1_555 1_555
Br2C Cu2 1_555 1_555
Br1C Cu2F 1_555 1_555
Cu2F_2 Br2C 1_555 1_555
Cu2C Br2 1_555 1_555
Cu2E Br1 1_555 1_555
Br2C_2 Cu2F 1_555 1_555
Cu2C_2 Br2C 1_555 1_555
Cu2_2 Br1C 1_555 1_555
Br1C_2 Cu2 1_555 1_555
S1E Cu2E 1_555 1_555
S1C Cu2C 1_555 1_555
Cu2E_2 Br2C_2 1_555 1_555
Br2 Cu2E 1_555 1_555
C1 S1F 1_555 1_555
C3F C2F 1_555 1_555
S1F Cu2F 1_555 1_555
C1B S1B 1_555 1_555
C1B S1D 1_555 1_555
C3D C2D 1_555 1_555
Br2C Cu2E 1_555 1_555
Cu2F_2 Br1C_2 1_555 1_555
Cu2C Br2C_2 1_555 1_555
Br2C_2 Cu2_2 1_555 1_555

#END
