
#######################################################################
#
#                 Cambridge Crystallographic Data Centre
#                                CCDC 
#
#######################################################################
#
# If this CIF has been generated from an entry in the Cambridge 
# Structural Database, then it will include bibliographic, chemical, 
# crystal, experimental, refinement or atomic coordinate data resulting 
# from the CCDC's data processing and validation procedures.
#
#######################################################################

data_PTECAU01
_symmetry_cell_setting           triclinic
_symmetry_space_group_name_H-M   'P -1'
_symmetry_Int_Tables_number      2
_space_group_name_Hall           '-P 1'
loop_
_symmetry_equiv_pos_site_id
_symmetry_equiv_pos_as_xyz
1 x,y,z
2 -x,-y,-z
_cell_length_a                   6.2629(2)
_cell_length_b                   8.9090(2)
_cell_length_c                   14.7547(4)
_cell_angle_alpha                93.6670(10)
_cell_angle_beta                 92.6140(10)
_cell_angle_gamma                100.8910(10)
_cell_volume                     805.373
loop_
_atom_site_label
_atom_site_type_symbol
_atom_site_fract_x
_atom_site_fract_y
_atom_site_fract_z
Au1 Au -0.03499(7) -0.50506(5) -0.27374(3)
Au2 Au 0.47071(7) -0.49631(5) -0.26443(3)
Cl1 Cl 1.0402(4) -0.3475(3) -0.14270(17)
Cl2 Cl 0.5216(4) -0.3588(3) -0.38914(17)
S1 S 0.1198(4) -0.3350(3) -0.59798(17)
S2 S 0.3967(4) -0.6164(3) -0.13503(17)
C1 C -0.006(2) -0.1739(12) -0.6172(7)
C2 C 0.111(2) -0.0668(14) -0.6688(9)
H1 H 0.2447 -0.0820 -0.6918
C3 C 0.0282(19) 0.0647(12) -0.6868(8)
H2 H 0.1071 0.1385 -0.7227
C4 C -0.166(2) 0.0887(13) -0.6532(8)
H3 H -0.2216 0.1772 -0.6666
C5 C -0.278(2) -0.0195(15) -0.5991(9)
H4 H -0.4087 -0.0018 -0.5739
C6 C -0.2015(18) -0.1535(14) -0.5815(8)
H5 H -0.2808 -0.2283 -0.5463
C7 C -0.0393(18) -0.4271(12) -0.5096(7)
H6 H 0.0216 -0.6425 -0.5464
H7 H 0.1956 -0.5488 -0.4701
C8 C 0.5500(19) -0.7679(12) -0.1223(8)
C9 C 0.4296(19) -0.9124(13) -0.1457(8)
H8 H 0.2817 -0.9252 -0.1675
C10 C 0.5262(19) -1.0388(13) -0.1371(8)
H9 H 0.4455 -1.1388 -0.1542
C11 C 0.7447(19) -1.0189(12) -0.1028(7)
H10 H 0.8127 -1.1045 -0.0959
C12 C 0.8585(18) -0.8695(12) -0.0791(8)
H11 H 1.0048 -0.8549 -0.0550
C13 C 0.7638(18) -0.7404(12) -0.0898(7)
H12 H 0.8435 -0.6392 -0.0753
C14 C 0.5175(19) -0.4716(12) -0.0466(7)
H13 H 0.5477 -0.6206 0.0521
H14 H 0.3244 -0.5581 0.0545
Au1A Au 0.03499(7) -0.49494(5) -0.72626(3)
Au1_2 Au 0.96501(7) -0.50506(5) -0.27374(3)
Au1A_2 Au 1.03499(7) -0.49494(5) 0.27374(3)
Au1A_3 Au 0.03499(7) -0.49494(5) 0.27374(3)
Au2_2 Au 1.47071(7) -0.49631(5) -0.26443(3)
Au2A Au 0.52929(7) -0.50369(5) 0.26443(3)
Au2_3 Au -0.52929(7) -0.49631(5) -0.26443(3)
Cl1_2 Cl 0.0402(4) -0.3475(3) -0.14270(17)
Cl2A Cl 0.4784(4) -0.6412(3) 0.38914(17)
S1A S -0.1198(4) -0.6650(3) -0.40202(17)
S1A_2 S 0.8802(4) -0.6650(3) -0.40202(17)
S2A S 0.6033(4) -0.3836(3) 0.13503(17)
C1A C 0.006(2) -0.8261(12) -0.3828(7)
C2A C -0.111(2) -0.9332(14) -0.3312(9)
H1A H -0.2447 -0.9180 -0.3082
C3A C -0.0282(19) -1.0647(12) -0.3132(8)
H2A H -0.1071 -1.1385 -0.2773
C4A C 0.166(2) -1.0887(13) -0.3468(8)
H3A H 0.2216 -1.1772 -0.3334
C5A C 0.278(2) -0.9805(15) -0.4009(9)
H4A H 0.4087 -0.9982 -0.4261
C6A C 0.2015(18) -0.8465(14) -0.4185(8)
H5A H 0.2808 -0.7717 -0.4537
C7A C 0.0393(18) -0.5729(12) -0.4904(7)
H6A H -0.0216 -0.3575 -0.4536
H7A H -0.1956 -0.4512 -0.5299
C8A C 0.4500(19) -0.2321(12) 0.1223(8)
C9A C 0.5704(19) -0.0876(13) 0.1457(8)
H8A H 0.7183 -0.0748 0.1675
C10A C 0.4738(19) 0.0388(13) 0.1371(8)
H9A H 0.5545 0.1388 0.1542
C11A C 0.2553(19) 0.0189(12) 0.1028(7)
H10A H 0.1873 0.1045 0.0959
C12A C 0.1415(18) -0.1305(12) 0.0791(8)
H11A H -0.0048 -0.1451 0.0550
C13A C 0.2362(18) -0.2596(12) 0.0898(7)
H12A H 0.1565 -0.3608 0.0753
C14A C 0.4825(19) -0.5284(12) 0.0466(7)
H13A H 0.4523 -0.3794 -0.0521
H14A H 0.6756 -0.4419 -0.0545
loop_
_geom_bond_atom_site_label_1
_geom_bond_atom_site_label_2
_geom_bond_site_symmetry_1
_geom_bond_site_symmetry_2
Au1 Au2 1_555 1_555
Au2 Cl2 1_555 1_555
Cl1 Au1_2 1_555 1_555
S1 C1 1_555 1_555
S2 Au2 1_555 1_555
C1 C2 1_555 1_555
C2 H1 1_555 1_555
C3 C2 1_555 1_555
H2 C3 1_555 1_555
C4 C3 1_555 1_555
H3 C4 1_555 1_555
C5 C4 1_555 1_555
H4 C5 1_555 1_555
C6 C1 1_555 1_555
H5 C6 1_555 1_555
C7 S1 1_555 1_555
H6 C7A 1_555 1_555
H7 C7A 1_555 1_555
C8 S2 1_555 1_555
C9 C8 1_555 1_555
H8 C9 1_555 1_555
C10 C9 1_555 1_555
H9 C10 1_555 1_555
C11 C10 1_555 1_555
H10 C11 1_555 1_555
C12 C11 1_555 1_555
H11 C12 1_555 1_555
C13 C8 1_555 1_555
H12 C13 1_555 1_555
C14 S2 1_555 1_555
H13 C14A 1_555 1_555
H14 C14A 1_555 1_555
Au1A S1 1_555 1_555
Au1_2 Au2 1_555 1_555
Au1A_2 Au2A 1_555 1_555
Au1A_3 Au2A 1_555 1_555
Au2_2 Au1_2 1_555 1_555
Au2A Cl2A 1_555 1_555
Au2_3 Au1 1_555 1_555
Cl1_2 Au1 1_555 1_555
S1A Au1 1_555 1_555
S1A_2 Au1_2 1_555 1_555
S2A Au2A 1_555 1_555
C1A S1A 1_555 1_555
C2A C1A 1_555 1_555
H1A C2A 1_555 1_555
C3A C2A 1_555 1_555
H2A C3A 1_555 1_555
C4A C3A 1_555 1_555
H3A C4A 1_555 1_555
C5A C4A 1_555 1_555
H4A C5A 1_555 1_555
C6A C1A 1_555 1_555
H5A C6A 1_555 1_555
C7A C7 1_555 1_555
H6A C7 1_555 1_555
H7A C7 1_555 1_555
C8A S2A 1_555 1_555
C9A C8A 1_555 1_555
H8A C9A 1_555 1_555
C10A C9A 1_555 1_555
H9A C10A 1_555 1_555
C11A C10A 1_555 1_555
H10A C11A 1_555 1_555
C12A C11A 1_555 1_555
H11A C12A 1_555 1_555
C13A C8A 1_555 1_555
H12A C13A 1_555 1_555
C14A C14 1_555 1_555
H13A C14 1_555 1_555
H14A C14 1_555 1_555
C5 C6 1_555 1_555
C12 C13 1_555 1_555
S1A C7A 1_555 1_555
S2A C14A 1_555 1_555
C5A C6A 1_555 1_555
C12A C13A 1_555 1_555

#END
