
#######################################################################
#
#                 Cambridge Crystallographic Data Centre
#                                CCDC 
#
#######################################################################
#
# If this CIF has been generated from an entry in the Cambridge 
# Structural Database, then it will include bibliographic, chemical, 
# crystal, experimental, refinement or atomic coordinate data resulting 
# from the CCDC's data processing and validation procedures.
#
#######################################################################

data_PTRPHT02
_symmetry_cell_setting           monoclinic
_symmetry_space_group_name_H-M   'P 21/c'
_symmetry_Int_Tables_number      14
_space_group_name_Hall           '-P 2ybc'
loop_
_symmetry_equiv_pos_site_id
_symmetry_equiv_pos_as_xyz
1 x,y,z
2 x,1/2-y,1/2+z
3 -x,-y,-z
4 -x,1/2+y,1/2-z
_cell_length_a                   10.561(4)
_cell_length_b                   3.9440(12)
_cell_length_c                   11.535(5)
_cell_angle_alpha                90
_cell_angle_beta                 113.08(3)
_cell_angle_gamma                90
_cell_volume                     442.006
loop_
_atom_site_label
_atom_site_type_symbol
_atom_site_fract_x
_atom_site_fract_y
_atom_site_fract_z
K1 K -0.38932(6) -0.79605(14) 0.16167(5)
O1 O -0.35218(18) -0.1856(5) -0.16464(16)
O2 O -0.32648(19) -0.3005(5) 0.03264(17)
C1 C -0.2822(3) -0.2858(6) -0.0541(2)
C2 C -0.1358(3) -0.3988(6) -0.0259(2)
C3 C -0.0787(3) -0.3548(7) -0.1146(2)
H1 H -0.1312 -0.2575 -0.1921
C4 C 0.0548(3) -0.4534(7) -0.0895(2)
H2 H -0.0913 -0.5789 0.1502
K1A K -0.38932(6) 0.29605(14) -0.33833(5)
O1A O -0.35218(18) -0.3144(5) 0.33536(16)
C2B C 0.1358(3) -0.6012(6) 0.0259(2)
C1B C 0.2822(3) -0.7142(6) 0.0541(2)
O1B O 0.35218(18) -0.8144(5) 0.16464(16)
K1C K 0.38932(6) -1.29605(14) 0.33833(5)
O2C O 0.32648(19) -0.8005(5) 0.46736(17)
O2B O 0.32648(19) -0.6995(5) -0.03264(17)
C3B C 0.0787(3) -0.6452(7) 0.1146(2)
H1B H 0.1312 -0.7425 0.1921
C4B C -0.0548(3) -0.5466(7) 0.0895(2)
H2B H 0.0913 -0.4211 -0.1502
K1B K 0.38932(6) -0.20395(14) -0.16167(5)
loop_
_geom_bond_atom_site_label_1
_geom_bond_atom_site_label_2
_geom_bond_site_symmetry_1
_geom_bond_site_symmetry_2
K1 O2 1_555 1_555
O1 C1 1_555 1_555
O2 C1 1_555 1_555
C1 C2 1_555 1_555
C2 C3 1_555 1_555
C3 H1 1_555 1_555
C4 C3 1_555 1_555
H2 C4B 1_555 1_555
K1A O1 1_555 1_555
O1A K1 1_555 1_555
C2B C4 1_555 1_555
C1B C2B 1_555 1_555
O1B C1B 1_555 1_555
K1C O1B 1_555 1_555
O2C K1C 1_555 1_555
O2B C1B 1_555 1_555
C3B C2B 1_555 1_555
H1B C3B 1_555 1_555
C4B C2 1_555 1_555
H2B C4 1_555 1_555
K1B O2B 1_555 1_555
C3B C4B 1_555 1_555

#END
