
#######################################################################
#
#                 Cambridge Crystallographic Data Centre
#                                CCDC 
#
#######################################################################
#
# If this CIF has been generated from an entry in the Cambridge 
# Structural Database, then it will include bibliographic, chemical, 
# crystal, experimental, refinement or atomic coordinate data resulting 
# from the CCDC's data processing and validation procedures.
#
#######################################################################

data_PUBDUN
_symmetry_cell_setting           monoclinic
_symmetry_space_group_name_H-M   'C 2/c'
_symmetry_Int_Tables_number      15
_space_group_name_Hall           '-C 2yn'
loop_
_symmetry_equiv_pos_site_id
_symmetry_equiv_pos_as_xyz
1 x,y,z
2 -x,y,1/2-z
3 1/2+x,1/2+y,z
4 1/2-x,1/2+y,1/2-z
5 -x,-y,-z
6 x,-y,1/2+z
7 1/2-x,1/2-y,-z
8 1/2+x,1/2-y,1/2+z
_cell_length_a                   31.260(6)
_cell_length_b                   10.040(2)
_cell_length_c                   10.796(2)
_cell_angle_alpha                90
_cell_angle_beta                 93.73(3)
_cell_angle_gamma                90
_cell_volume                     3381.15
loop_
_atom_site_label
_atom_site_type_symbol
_atom_site_fract_x
_atom_site_fract_y
_atom_site_fract_z
O1 O -0.00566(7) 0.1465(3) 0.5843(2)
H1 H -0.0164 0.1629 0.6502
C1 C 0.04525(10) 0.1666(4) 0.3810(3)
H2 H 0.0163 0.1488 0.3642
C2 C 0.14116(10) 0.1845(3) 0.0913(3)
H3 H 0.1246 0.1079 0.0807
N1 N 0.19063(7) 0.4128(2) 0.12113(19)
O2 O 0.22124(6) 0.33579(19) -0.18187(16)
O3 O 0.24667(6) 0.48445(19) -0.04188(16)
Mn1 Mn 0.260054(12) 0.08473(4) 0.36249(3)
C3 C 0.14071(8) 0.2570(3) 0.2008(2)
C4 C 0.11501(8) 0.2181(3) 0.3061(2)
O4 O 0.20605(6) 0.2021(2) 0.38639(18)
C5 C 0.19148(8) 0.3393(3) 0.0163(2)
C6 C 0.18029(8) 0.2365(3) 0.4646(2)
C7 C 0.13290(8) 0.2166(3) 0.4304(2)
C8 C 0.22213(8) 0.3905(3) -0.0761(2)
C9 C 0.10628(9) 0.1934(3) 0.5266(3)
H4 H 0.1179 0.1941 0.6081
O5 O 0.18994(6) 0.2853(2) 0.56939(17)
C10 C 0.06257(9) 0.1690(3) 0.5034(3)
C11 C 0.03483(10) 0.1509(3) 0.6089(3)
C12 C 0.16528(9) 0.3728(3) 0.2080(2)
H5 H 0.1639 0.4256 0.2784
C13 C 0.07138(9) 0.1909(3) 0.2842(3)
H6 H 0.0595 0.1890 0.2029
C14 C 0.16657(9) 0.2267(3) -0.0028(3)
H7 H 0.1667 0.1798 -0.0770
O6 O 0.05238(8) 0.1448(3) 0.7180(2)
O7 O 0.21686(7) -0.0580(2) 0.25674(17)
H8 H 0.2198 -0.0494 0.1780
H9 H 0.2182 -0.1490 0.2773
N1C N 0.30937(7) -0.0872(2) 0.37887(19)
O2F O 0.27876(6) 0.16421(19) 0.18187(16)
O3C O 0.25333(6) -0.01555(19) 0.54188(16)
Mn1C Mn 0.239946(12) 0.58473(4) 0.13751(3)
Mn1F Mn 0.239946(12) 0.41527(4) -0.36249(3)
Mn1F_2 Mn 0.239946(12) 0.41527(4) 0.63751(3)
O5F O 0.31006(6) 0.2147(2) 0.43061(17)
O8 O 0.0561(4) 0.5543(15) 0.3902(12)
H10 H 0.0652 0.5278 0.3224
H11 H 0.0569 0.4923 0.4434
O9 O -0.0224(4) 0.5102(15) 0.3639(12)
H12 H -0.0029 0.5661 0.3492
H13 H -0.0122 0.4509 0.4137
loop_
_geom_bond_atom_site_label_1
_geom_bond_atom_site_label_2
_geom_bond_site_symmetry_1
_geom_bond_site_symmetry_2
O1 H1 1_555 1_555
C1 H2 1_555 1_555
C2 H3 1_555 1_555
N1 C5 1_555 1_555
O2 C8 1_555 1_555
O3 C8 1_555 1_555
Mn1 O4 1_555 1_555
C3 C2 1_555 1_555
C4 C3 1_555 1_555
O4 C6 1_555 1_555
C5 C8 1_555 1_555
C6 C7 1_555 1_555
C7 C4 1_555 1_555
C9 C7 1_555 1_555
H4 C9 1_555 1_555
O5 C6 1_555 1_555
C10 C1 1_555 1_555
C11 O1 1_555 1_555
C12 N1 1_555 1_555
H5 C12 1_555 1_555
C13 C1 1_555 1_555
H6 C13 1_555 1_555
C14 C2 1_555 1_555
H7 C14 1_555 1_555
O6 C11 1_555 1_555
O7 Mn1 1_555 1_555
H8 O7 1_555 1_555
H9 O7 1_555 1_555
O8 H10 1_555 1_555
H11 O8 1_555 1_555
O9 H12 1_555 1_555
H13 O9 1_555 1_555
N1C Mn1 1_555 1_555
O2F Mn1 1_555 1_555
O3C Mn1 1_555 1_555
Mn1C N1 1_555 1_555
Mn1F O2 1_555 1_555
Mn1F_2 O5 1_555 1_555
O5F Mn1 1_555 1_555
O3 Mn1C 1_555 1_555
C3 C12 1_555 1_555
C4 C13 1_555 1_555
C5 C14 1_555 1_555
C9 C10 1_555 1_555
C10 C11 1_555 1_555

#END
