
#######################################################################
#
#                 Cambridge Crystallographic Data Centre
#                                CCDC 
#
#######################################################################
#
# If this CIF has been generated from an entry in the Cambridge 
# Structural Database, then it will include bibliographic, chemical, 
# crystal, experimental, refinement or atomic coordinate data resulting 
# from the CCDC's data processing and validation procedures.
#
#######################################################################

data_PUBGID
_symmetry_cell_setting           monoclinic
_symmetry_space_group_name_H-M   'P 21/c'
_symmetry_Int_Tables_number      14
_space_group_name_Hall           '-P 2ybc'
loop_
_symmetry_equiv_pos_site_id
_symmetry_equiv_pos_as_xyz
1 x,y,z
2 -x,1/2+y,1/2-z
3 -x,-y,-z
4 x,1/2-y,1/2+z
_cell_length_a                   17.8339(14)
_cell_length_b                   6.4682(5)
_cell_length_c                   7.4305(6)
_cell_angle_alpha                90
_cell_angle_beta                 90.795(8)
_cell_angle_gamma                90
_cell_volume                     857.05
loop_
_atom_site_label
_atom_site_type_symbol
_atom_site_fract_x
_atom_site_fract_y
_atom_site_fract_z
Zn1 Zn 0.0000 0.5000 0.5000
O1 O 0.0484(3) 0.5833(7) 0.7543(6)
O2 O -0.0614(3) 0.7802(8) 0.4773(7)
O3 O 0.0904(3) 0.8866(8) 0.8589(6)
C1 C 0.1027(4) 0.7109(11) 0.7907(9)
N1 N 0.1977(3) 0.4584(9) 0.6865(8)
C2 C 0.1791(4) 0.6504(11) 0.7576(9)
C3 C 0.4271(5) 0.500(3) 0.6837(14)
H1 H 0.4791 0.5138 0.6882
C4 C 0.2430(4) 0.7535(11) 0.7908(10)
H2 H 0.2460 0.8865 0.8378
C5 C 0.3046(4) 0.6304(13) 0.7439(10)
C6 C 0.2733(5) 0.4441(12) 0.6727(10)
C7 C 0.3198(6) 0.2902(15) 0.6098(11)
H3 H 0.2998 0.1672 0.5655
C8 C 0.3831(5) 0.6565(18) 0.7462(12)
H4 H 0.4045 0.7781 0.7895
C9 C 0.3951(7) 0.321(2) 0.6134(13)
H5 H 0.4262 0.2188 0.5675
H6 H -0.061(6) 0.850(16) 0.570(9)
H7 H 0.168(5) 0.365(13) 0.644(14)
H8 H -0.027(4) 0.835(16) 0.424(14)
Zn1A Zn 0.0000 1.0000 1.0000
Zn1A_2 Zn 0.0000 1.0000 0.0000
O1C O 0.0484(3) 0.9167(7) 0.2543(6)
O1B O -0.0484(3) 0.4167(7) 0.2457(6)
O2B O 0.0614(3) 0.2198(8) 0.5227(7)
O3C O 0.0904(3) 0.6134(8) 0.3589(6)
O3A O -0.0904(3) 0.3866(8) 0.6411(6)
C1C C 0.1027(4) 0.7891(11) 0.2907(9)
N1C N 0.1977(3) 1.0416(9) 0.1865(8)
C2C C 0.1791(4) 0.8496(11) 0.2576(9)
C3C C 0.4271(5) 1.000(3) 0.1837(14)
H1C H 0.4791 0.9862 0.1882
C4C C 0.2430(4) 0.7465(11) 0.2908(10)
H2C H 0.2460 0.6135 0.3378
C5C C 0.3046(4) 0.8696(13) 0.2439(10)
C6C C 0.2733(5) 1.0559(12) 0.1727(10)
C7C C 0.3198(6) 1.2098(15) 0.1098(11)
H3C H 0.2998 1.3328 0.0655
C8C C 0.3831(5) 0.8435(18) 0.2462(12)
H4C H 0.4045 0.7219 0.2895
C9C C 0.3951(7) 1.179(2) 0.1134(13)
H5C H 0.4262 1.2812 0.0675
H6B H 0.061(6) 0.150(16) 0.430(9)
H7C H 0.168(5) 1.135(13) 0.144(14)
H8B H 0.027(4) 0.165(16) 0.576(14)
loop_
_geom_bond_atom_site_label_1
_geom_bond_atom_site_label_2
_geom_bond_site_symmetry_1
_geom_bond_site_symmetry_2
Zn1 O1 1_555 1_555
O1 C1 1_555 1_555
O2 Zn1 1_555 1_555
O3 C1 1_555 1_555
C1 C2 1_555 1_555
N1 C2 1_555 1_555
C2 C4 1_555 1_555
C3 H1 1_555 1_555
C4 H2 1_555 1_555
C5 C4 1_555 1_555
C6 N1 1_555 1_555
C7 C6 1_555 1_555
H3 C7 1_555 1_555
C8 C3 1_555 1_555
H4 C8 1_555 1_555
C9 C3 1_555 1_555
H5 C9 1_555 1_555
H6 O2 1_555 1_555
H7 N1 1_555 1_555
H8 O2 1_555 1_555
Zn1A O3 1_555 1_555
Zn1A_2 O1C 1_555 1_555
O1C C1C 1_555 1_555
O1B Zn1 1_555 1_555
O2B Zn1 1_555 1_555
O3C Zn1 1_555 1_555
O3A Zn1 1_555 1_555
C1C O3C 1_555 1_555
N1C C2C 1_555 1_555
C2C C1C 1_555 1_555
C3C H1C 1_555 1_555
C4C C2C 1_555 1_555
H2C C4C 1_555 1_555
C5C C4C 1_555 1_555
C6C N1C 1_555 1_555
C7C C6C 1_555 1_555
H3C C7C 1_555 1_555
C8C C3C 1_555 1_555
H4C C8C 1_555 1_555
C9C C3C 1_555 1_555
H5C C9C 1_555 1_555
H6B O2B 1_555 1_555
H7C N1C 1_555 1_555
H8B O2B 1_555 1_555
C5 C6 1_555 1_555
C5 C8 1_555 1_555
C7 C9 1_555 1_555
C5C C6C 1_555 1_555
C5C C8C 1_555 1_555
C7C C9C 1_555 1_555

#END
