
#######################################################################
#
#                 Cambridge Crystallographic Data Centre
#                                CCDC 
#
#######################################################################
#
# If this CIF has been generated from an entry in the Cambridge 
# Structural Database, then it will include bibliographic, chemical, 
# crystal, experimental, refinement or atomic coordinate data resulting 
# from the CCDC's data processing and validation procedures.
#
#######################################################################

data_PUBHAW
_symmetry_cell_setting           orthorhombic
_symmetry_space_group_name_H-M   'P b c n'
_symmetry_Int_Tables_number      60
_space_group_name_Hall           '-P 2n 2ab'
loop_
_symmetry_equiv_pos_site_id
_symmetry_equiv_pos_as_xyz
1 x,y,z
2 1/2-x,1/2-y,1/2+z
3 -x,y,1/2-z
4 1/2+x,1/2-y,-z
5 -x,-y,-z
6 1/2+x,1/2+y,1/2-z
7 x,-y,1/2+z
8 1/2-x,1/2+y,z
_cell_length_a                   34.0747(15)
_cell_length_b                   12.5952(6)
_cell_length_c                   8.3138(4)
_cell_angle_alpha                90
_cell_angle_beta                 90
_cell_angle_gamma                90
_cell_volume                     3568.1
loop_
_atom_site_label
_atom_site_type_symbol
_atom_site_fract_x
_atom_site_fract_y
_atom_site_fract_z
Eu1 Eu 0.678422(6) 0.179693(17) 0.16244(3)
O1 O 0.71477(10) 0.3217(3) 0.0444(4)
O2 O 0.72050(10) 0.4836(3) -0.0669(4)
O3 O 0.65362(10) 0.3758(3) 0.2176(4)
O4 O 0.62616(10) 0.2164(3) 0.3756(4)
O5 O 0.67716(10) 0.0689(3) 0.3977(4)
O6 O 0.64562(10) -0.0163(3) 0.5955(4)
O7 O 0.62465(11) 0.2273(3) 0.0162(4)
O8 O 0.60370(12) 0.2659(3) -0.2302(4)
O9 O 0.52706(10) 0.2597(3) -0.1394(4)
O10 O 0.71677(10) 0.2653(3) 0.3839(4)
O11 O 0.73698(10) 0.0822(3) 0.1810(4)
O12 O 0.70352(11) 0.1346(3) -0.1021(4)
C1 C 0.70343(14) 0.4163(4) 0.0197(6)
C2 C 0.66603(15) 0.4525(4) 0.1004(6)
C3 C 0.61544(13) 0.3882(4) 0.2737(6)
C4 C 0.59259(15) 0.4776(4) 0.2494(6)
C5 C 0.55481(14) 0.4816(4) 0.3130(6)
C6 C 0.54034(15) 0.3979(4) 0.4027(6)
C7 C 0.56360(15) 0.3077(4) 0.4295(6)
C8 C 0.60080(14) 0.3027(4) 0.3630(6)
C9 C 0.61352(15) 0.1272(4) 0.4712(6)
C10 C 0.64829(15) 0.0542(4) 0.4899(6)
C11 C 0.59823(15) 0.2495(4) -0.0862(6)
C12 C 0.55690(15) 0.2606(4) -0.0184(6)
C13 C 0.51593(15) 0.1621(4) -0.1942(6)
C14 C 0.53200(16) 0.0663(4) -0.1472(7)
C15 C 0.51605(18) -0.0294(4) -0.1995(8)
H1 H 0.7395 0.2365 0.4259
H2 H 0.7239 0.3342 0.3761
H3 H 0.7579 0.0657 0.1216
H4 H 0.7122 0.0566 0.1582
H5 H 0.6977 0.1779 -0.1887
H6 H 0.6963 0.0679 -0.1254
H9 H 0.6664 0.5256 0.1512
H10 H 0.6455 0.4652 0.0117
H11 H 0.6028 0.5302 0.1894
H12 H 0.5413 0.5467 0.2896
H13 H 0.5157 0.3979 0.4470
H14 H 0.5551 0.2492 0.4887
H15 H 0.5564 0.0661 -0.0735
H16 H 0.5268 -0.1029 -0.1707
H17 H 0.5924 0.0945 0.4123
H18 H 0.6028 0.1461 0.5708
H19 H 0.5491 0.2115 0.0664
H20 H 0.5553 0.3311 0.0354
Eu1F Eu 0.678422(6) -0.179693(17) -0.33756(3)
Eu1F_2 Eu 0.678422(6) -0.179693(17) 0.66244(3)
Eu1B Eu 0.321578(6) 0.179693(17) -0.66244(3)
O1F O 0.71477(10) -0.3217(3) -0.4556(4)
O2F O 0.72050(10) -0.4836(3) -0.5669(4)
O3F O 0.65362(10) -0.3758(3) -0.2824(4)
O4F O 0.62616(10) -0.2164(3) -0.1244(4)
O5F O 0.67716(10) -0.0689(3) -0.1023(4)
O6F O 0.64562(10) 0.0163(3) 0.0955(4)
O6_2 O 0.64562(10) -0.0163(3) -0.4045(4)
O7B O 0.37535(11) 0.2273(3) -0.5162(4)
O7F O 0.62465(11) -0.2273(3) -0.4838(4)
O8B O 0.39630(12) 0.2659(3) -0.2698(4)
O9B O 0.47294(10) 0.2597(3) -0.3606(4)
O10F O 0.71677(10) -0.2653(3) -0.1161(4)
O11F O 0.73698(10) -0.0822(3) -0.3190(4)
O12F O 0.70352(11) -0.1346(3) -0.6021(4)
C1F C 0.70343(14) -0.4163(4) -0.4803(6)
C2F C 0.66603(15) -0.4525(4) -0.3996(6)
C3F C 0.61544(13) -0.3882(4) -0.2263(6)
C4F C 0.59259(15) -0.4776(4) -0.2506(6)
C5F C 0.55481(14) -0.4816(4) -0.1870(6)
C6F C 0.54034(15) -0.3979(4) -0.0973(6)
C7F C 0.56360(15) -0.3077(4) -0.0705(6)
C8F C 0.60080(14) -0.3027(4) -0.1370(6)
C9F C 0.61352(15) -0.1272(4) -0.0288(6)
C10F C 0.64829(15) -0.0542(4) -0.0101(6)
C11B C 0.40177(15) 0.2495(4) -0.4138(6)
C12B C 0.44310(15) 0.2606(4) -0.4816(6)
C13B C 0.48407(15) 0.1621(4) -0.3058(6)
C14B C 0.46800(16) 0.0663(4) -0.3528(7)
C15B C 0.48395(18) -0.0294(4) -0.3005(8)
H1F H 0.7395 -0.2365 -0.0741
H2F H 0.7239 -0.3342 -0.1239
H3F H 0.7579 -0.0657 -0.3784
H4F H 0.7122 -0.0566 -0.3418
H5F H 0.6977 -0.1779 -0.6887
H6F H 0.6963 -0.0679 -0.6254
H9F H 0.6664 -0.5256 -0.3488
H10F H 0.6455 -0.4652 -0.4883
H11F H 0.6028 -0.5302 -0.3106
H12F H 0.5413 -0.5467 -0.2104
H13F H 0.5157 -0.3979 -0.0530
H14F H 0.5551 -0.2492 -0.0113
H15B H 0.4436 0.0661 -0.4265
H16B H 0.4732 -0.1029 -0.3293
H17F H 0.5924 -0.0945 -0.0877
H18F H 0.6028 -0.1461 0.0708
H19B H 0.4509 0.2115 -0.5664
H20B H 0.4447 0.3311 -0.5354
O13 O 0.67987(11) 0.2826(3) 0.6916(4)
H7 H 0.6539 0.2778 0.7107
H8 H 0.6809 0.2623 0.5858
loop_
_geom_bond_atom_site_label_1
_geom_bond_atom_site_label_2
_geom_bond_site_symmetry_1
_geom_bond_site_symmetry_2
Eu1 O1 1_555 1_555
O1 C1 1_555 1_555
O2 C1 1_555 1_555
O3 Eu1 1_555 1_555
O4 Eu1 1_555 1_555
O5 Eu1 1_555 1_555
O6 C10 1_555 1_555
O7 Eu1 1_555 1_555
O8 C11 1_555 1_555
O9 C12 1_555 1_555
O10 Eu1 1_555 1_555
O11 Eu1 1_555 1_555
O12 Eu1 1_555 1_555
O13 H7 1_555 1_555
C1 C2 1_555 1_555
C2 O3 1_555 1_555
C3 O3 1_555 1_555
C4 C3 1_555 1_555
C5 C4 1_555 1_555
C6 C5 1_555 1_555
C7 C6 1_555 1_555
C8 O4 1_555 1_555
C9 O4 1_555 1_555
C10 O5 1_555 1_555
C11 O7 1_555 1_555
C12 C11 1_555 1_555
C13 O9 1_555 1_555
C14 C13 1_555 1_555
C15 C14 1_555 1_555
H1 O10 1_555 1_555
H2 O10 1_555 1_555
H3 O11 1_555 1_555
H4 O11 1_555 1_555
H5 O12 1_555 1_555
H6 O12 1_555 1_555
H8 O13 1_555 1_555
H9 C2 1_555 1_555
H10 C2 1_555 1_555
H11 C4 1_555 1_555
H12 C5 1_555 1_555
H13 C6 1_555 1_555
H14 C7 1_555 1_555
H15 C14 1_555 1_555
H16 C15 1_555 1_555
H17 C9 1_555 1_555
H18 C9 1_555 1_555
H19 C12 1_555 1_555
H20 C12 1_555 1_555
Eu1F O1F 1_555 1_555
Eu1F_2 O6 1_555 1_555
Eu1B O7B 1_555 1_555
O1F C1F 1_555 1_555
O2F C1F 1_555 1_555
O3F Eu1F 1_555 1_555
O4F Eu1F 1_555 1_555
O5F Eu1F 1_555 1_555
O6F Eu1 1_555 1_555
O6_2 Eu1F 1_555 1_555
O7B C11B 1_555 1_555
O7F Eu1F 1_555 1_555
O8B C11B 1_555 1_555
O9B C12B 1_555 1_555
O10F Eu1F 1_555 1_555
O11F Eu1F 1_555 1_555
O12F Eu1F 1_555 1_555
C1F C2F 1_555 1_555
C2F O3F 1_555 1_555
C3F O3F 1_555 1_555
C4F C3F 1_555 1_555
C5F C4F 1_555 1_555
C6F C5F 1_555 1_555
C7F C6F 1_555 1_555
C8F O4F 1_555 1_555
C9F O4F 1_555 1_555
C10F O5F 1_555 1_555
C11B C12B 1_555 1_555
C12B H19B 1_555 1_555
C13B C13 1_555 1_555
C14B C13B 1_555 1_555
C15B C15 1_555 1_555
H1F O10F 1_555 1_555
H2F O10F 1_555 1_555
H3F O11F 1_555 1_555
H4F O11F 1_555 1_555
H5F O12F 1_555 1_555
H6F O12F 1_555 1_555
H9F C2F 1_555 1_555
H10F C2F 1_555 1_555
H11F C4F 1_555 1_555
H12F C5F 1_555 1_555
H13F C6F 1_555 1_555
H14F C7F 1_555 1_555
H15B C14B 1_555 1_555
H16B C15B 1_555 1_555
H17F C9F 1_555 1_555
H18F C9F 1_555 1_555
H20B C12B 1_555 1_555
C3 C8 1_555 1_555
C7 C8 1_555 1_555
C9 C10 1_555 1_555
O6F C10F 1_555 1_555
O9B C13B 1_555 1_555
C3F C8F 1_555 1_555
C7F C8F 1_555 1_555
C9F C10F 1_555 1_555
C14B C15B 1_555 1_555

#END
