
#######################################################################
#
#                 Cambridge Crystallographic Data Centre
#                                CCDC 
#
#######################################################################
#
# If this CIF has been generated from an entry in the Cambridge 
# Structural Database, then it will include bibliographic, chemical, 
# crystal, experimental, refinement or atomic coordinate data resulting 
# from the CCDC's data processing and validation procedures.
#
#######################################################################

data_PUCRAH
_symmetry_cell_setting           monoclinic
_symmetry_space_group_name_H-M   'P 21'
_symmetry_Int_Tables_number      4
_space_group_name_Hall           'P 2yb'
loop_
_symmetry_equiv_pos_site_id
_symmetry_equiv_pos_as_xyz
1 x,y,z
2 -x,1/2+y,-z
_cell_length_a                   12.8366(6)
_cell_length_b                   33.108(1)
_cell_length_c                   6.2214(3)
_cell_angle_alpha                90
_cell_angle_beta                 99.818(3)
_cell_angle_gamma                90
_cell_volume                     2605.33
loop_
_atom_site_label
_atom_site_type_symbol
_atom_site_fract_x
_atom_site_fract_y
_atom_site_fract_z
Zn1 Zn 0.3788(13) 0.55999 1.2655(29)
I1 I 0.57230(75) 0.5706(13) 1.4599(18)
I2 I 0.22073(82) 0.5617(14) 1.4512(18)
N1 N 0.355(16) 0.6104(58) 1.022(36)
N2 N 0.368(17) 0.5122(63) 1.015(39)
C1 C 0.267(24) 0.6299(89) 0.987(49)
C2 C 0.433(24) 0.6184(66) 0.893(45)
C3 C 0.447(23) 0.502(8) 0.905(46)
C4 C 0.274(28) 0.4952(83) 0.95(5)
C5 C 0.25(2) 0.6572(85) 0.837(39)
C6 C 0.43(2) 0.6438(82) 0.748(41)
C7 C 0.44(2) 0.4771(76) 0.750(43)
C8 C 0.266(22) 0.469(9) 0.793(38)
C9 C 0.343(25) 0.6644(87) 0.714(43)
C10 C 0.347(22) 0.4599(87) 0.697(46)
C11 C 0.325(22) 0.6858(68) 0.532(43)
C12 C 0.327(24) 0.4325(64) 0.519(43)
N3 N 0.224(19) 0.7064(73) 0.463(36)
N4 N 0.404(13) 0.6876(55) 0.43(3)
N5 N 0.227(19) 0.4247(73) 0.447(41)
N6 N 0.415(12) 0.4208(57) 0.432(34)
C13 C 0.226(27) 0.7287(95) 0.269(45)
C14 C 0.390(19) 0.7121(68) 0.25(4)
C15 C 0.215(23) 0.4027(98) 0.257(49)
C16 C 0.402(17) 0.4013(66) 0.261(47)
N7 N 0.300(19) 0.7336(58) 0.158(35)
C17 C 0.129(17) 0.7456(71) 0.167(39)
C18 C 0.497(25) 0.7248(78) 0.16(4)
N8 N 0.297(18) 0.3892(58) 0.152(32)
C19 C 0.090(19) 0.3931(81) 0.11(4)
C20 C 0.493(25) 0.3992(76) 0.12(4)
C21 C 0.024(17) 0.7503(63) 0.284(28)
C22 C 0.116(17) 0.7509(74) -0.037(41)
C23 C 0.485(22) 0.7539(87) -0.020(44)
C24 C 0.596(22) 0.7012(85) 0.201(38)
C25 C -0.01(2) 0.4039(61) 0.190(37)
C26 C 0.075(17) 0.3696(68) -0.086(36)
C27 C 0.483(25) 0.3697(85) -0.045(46)
C28 C 0.590(24) 0.4242(83) 0.162(37)
C29 C -0.076(17) 0.758(7) 0.166(36)
C30 C 0.006(19) 0.761(8) -0.14(4)
C31 C 0.571(22) 0.758(9) -0.132(43)
C32 C 0.67(2) 0.7100(73) 0.072(42)
C33 C -0.102(19) 0.390(7) 0.088(36)
C34 C -0.025(19) 0.357(6) -0.188(35)
C35 C 0.562(21) 0.3648(79) -0.155(46)
C36 C 0.667(22) 0.4137(82) 0.030(42)
N9 N -0.086(16) 0.7641(72) -0.032(28)
N10 N 0.658(16) 0.7381(62) -0.088(33)
N11 N -0.112(14) 0.3676(65) -0.095(27)
N12 N 0.652(15) 0.3843(65) -0.121(34)
Zn2 Zn 0.7782(27) 0.7499(16) -0.2780(61)
Zn3 Zn 0.7563(27) 0.3780(16) -0.2814(59)
I3 I 0.7303(16) 0.8065(12) -0.5804(25)
I4 I 0.8128(15) 0.6785(13) -0.4262(33)
I5 I 0.7330(15) 0.3225(12) -0.5296(25)
I6 I 0.7971(16) 0.4521(13) -0.4097(32)
N9_2 N 0.914(16) 0.7641(72) -0.032(28)
N11_2 N 0.888(14) 0.3676(65) -0.095(27)
Zn2_2 Zn -0.2218(27) 0.7499(16) -0.2780(61)
Zn3_2 Zn -0.2437(27) 0.3780(16) -0.2814(59)
N13 N 0.107(33) 0.079(13) 1.049(59)
C37 C 0.078(49) 0.048(16) 1.0(1)
O1 O 0.189(14) 0.0975(56) 0.98(5)
O2 O 0.05(2) 0.0931(71) 1.180(37)
C38 C 0.108(31) 0.042(13) 0.774(85)
C39 C 0.005(38) 0.021(17) 1.061(84)
C40 C 0.073(36) 0.010(16) 0.678(49)
C41 C -0.031(27) -0.012(14) 0.949(87)
C42 C 0.004(37) -0.018(12) 0.77(8)
loop_
_geom_bond_atom_site_label_1
_geom_bond_atom_site_label_2
_geom_bond_site_symmetry_1
_geom_bond_site_symmetry_2
Zn1 I1 1_555 1_555
I2 Zn1 1_555 1_555
N1 Zn1 1_555 1_555
N2 Zn1 1_555 1_555
C1 N1 1_555 1_555
C2 N1 1_555 1_555
C3 N2 1_555 1_555
C4 N2 1_555 1_555
C5 C1 1_555 1_555
C6 C2 1_555 1_555
C7 C3 1_555 1_555
C8 C4 1_555 1_555
C9 C5 1_555 1_555
C10 C7 1_555 1_555
C11 C9 1_555 1_555
C12 C10 1_555 1_555
N3 C11 1_555 1_555
N4 C11 1_555 1_555
N5 C12 1_555 1_555
N6 C12 1_555 1_555
C13 N3 1_555 1_555
C14 N4 1_555 1_555
C15 N5 1_555 1_555
C16 N6 1_555 1_555
N7 C13 1_555 1_555
C17 C13 1_555 1_555
C18 C14 1_555 1_555
N8 C15 1_555 1_555
C19 C15 1_555 1_555
C20 C16 1_555 1_555
C21 C17 1_555 1_555
C22 C17 1_555 1_555
C23 C18 1_555 1_555
C24 C18 1_555 1_555
C25 C19 1_555 1_555
C26 C19 1_555 1_555
C27 C20 1_555 1_555
C28 C20 1_555 1_555
C29 C21 1_555 1_555
C30 C22 1_555 1_555
C31 C23 1_555 1_555
C32 C24 1_555 1_555
C33 C25 1_555 1_555
C34 C26 1_555 1_555
C35 C27 1_555 1_555
C36 C28 1_555 1_555
N9 C29 1_555 1_555
N10 C31 1_555 1_555
N11 C33 1_555 1_555
N12 C35 1_555 1_555
Zn2 N10 1_555 1_555
Zn3 N12 1_555 1_555
I3 Zn2 1_555 1_555
I4 Zn2 1_555 1_555
I5 Zn3 1_555 1_555
I6 Zn3 1_555 1_555
N13 C37 1_555 1_555
C37 C38 1_555 1_555
O1 N13 1_555 1_555
O2 N13 1_555 1_555
C38 C40 1_555 1_555
C39 C37 1_555 1_555
C40 C42 1_555 1_555
C41 C39 1_555 1_555
C42 C41 1_555 1_555
N9_2 Zn2 1_555 1_555
N11_2 Zn3 1_555 1_555
Zn2_2 N9 1_555 1_555
Zn3_2 N11 1_555 1_555
C6 C9 1_555 1_555
C8 C10 1_555 1_555
C14 N7 1_555 1_555
C16 N8 1_555 1_555
C30 N9 1_555 1_555
C32 N10 1_555 1_555
C34 N11 1_555 1_555
C36 N12 1_555 1_555

#END
