
#######################################################################
#
#                 Cambridge Crystallographic Data Centre
#                                CCDC 
#
#######################################################################
#
# If this CIF has been generated from an entry in the Cambridge 
# Structural Database, then it will include bibliographic, chemical, 
# crystal, experimental, refinement or atomic coordinate data resulting 
# from the CCDC's data processing and validation procedures.
#
#######################################################################

data_PUCSUC
_symmetry_cell_setting           monoclinic
_symmetry_space_group_name_H-M   'P 21/n'
_symmetry_Int_Tables_number      14
_space_group_name_Hall           '-P 2yn'
loop_
_symmetry_equiv_pos_site_id
_symmetry_equiv_pos_as_xyz
1 x,y,z
2 1/2-x,1/2+y,1/2-z
3 -x,-y,-z
4 1/2+x,1/2-y,1/2+z
_cell_length_a                   12.529(3)
_cell_length_b                   12.814(5)
_cell_length_c                   13.299(3)
_cell_angle_alpha                90
_cell_angle_beta                 100.495(14)
_cell_angle_gamma                90
_cell_volume                     2099.39
loop_
_atom_site_label
_atom_site_type_symbol
_atom_site_fract_x
_atom_site_fract_y
_atom_site_fract_z
Ce1 Ce 0.20685(3) 0.18535(3) 0.22913(3)
Ce2 Ce 0.72667(3) 0.23727(3) 0.27399(3)
O1 O 0.0322(4) 0.2604(4) 0.1356(3)
O2 O -0.0969(4) 0.2157(3) 0.2213(3)
H1 H -0.277(5) 0.363(5) 0.095(5)
O3 O -0.2463(4) 0.3188(4) 0.1058(4)
H2 H -0.151(8) 0.222(8) -0.073(8)
O4 O -0.1877(4) 0.2739(3) -0.0820(4)
O5 O -0.2082(4) 0.4569(3) -0.1631(3)
O6 O -0.1347(4) 0.5376(3) -0.0211(3)
O7 O 0.1033(4) 0.0370(4) 0.1530(3)
O8 O 0.0636(4) -0.1037(3) 0.0569(4)
O9 O 0.2691(4) 0.0870(4) 0.0734(4)
H3 H 0.288(8) 0.136(8) 0.022(8)
O10 O 0.1348(4) 0.1268(4) -0.1122(4)
H4 H 0.092(6) 0.130(5) -0.090(5)
O11 O 0.3074(4) -0.0840(3) -0.1471(3)
O12 O 0.3053(4) 0.0851(3) -0.1867(3)
O13 O 0.2989(4) 0.4271(3) -0.1465(4)
O14 O 0.3675(3) 0.5305(3) -0.0162(3)
O15 O 0.3662(4) 0.2571(3) -0.0533(3)
H5 H 0.425(8) 0.197(8) -0.037(7)
O16 O 0.2621(4) 0.3136(4) 0.1053(4)
H6 H 0.208(7) 0.365(7) 0.061(7)
O17 O 0.4046(4) 0.2090(4) 0.2304(3)
O18 O 0.5460(4) 0.2812(3) 0.1772(3)
O19 O 0.1848(5) 0.3708(4) 0.2878(4)
H7 H 0.125(4) 0.384(7) 0.314(6)
H8 H 0.189(8) 0.429(4) 0.252(6)
O20 O 0.0785(4) 0.1525(4) 0.3473(4)
H9 H 0.081(8) 0.101(5) 0.393(6)
H10 H 0.010(3) 0.174(6) 0.327(6)
O21 O 0.5868(4) 0.1474(5) 0.3506(4)
H11 H 0.521(4) 0.144(8) 0.313(6)
H12 H 0.599(8) 0.087(4) 0.384(7)
C1 C -0.0618(6) 0.2668(5) 0.1520(5)
C2 C -0.1391(6) 0.3457(5) 0.0918(5)
H13 H -0.1216 0.4146 0.1224
C3 C -0.1288(5) 0.3519(5) -0.0204(5)
H14 H -0.0520 0.3410 -0.0233
C4 C -0.1605(5) 0.4564(5) -0.0706(5)
C5 C 0.1169(5) -0.0222(5) 0.0819(5)
C6 C 0.2084(5) 0.0014(5) 0.0227(5)
H15 H 0.2567 -0.0594 0.0299
C7 C 0.1729(5) 0.0223(5) -0.0927(5)
H16 H 0.1150 -0.0266 -0.1209
C8 C 0.2688(5) 0.0074(5) -0.1472(5)
C9 C 0.3507(5) 0.4433(5) -0.0598(5)
C10 C 0.4000(5) 0.3495(4) 0.0022(5)
H17 H 0.4791 0.3544 0.0099
C11 C 0.3715(5) 0.3456(5) 0.1087(5)
H18 H 0.3804 0.4157 0.1384
C12 C 0.4462(5) 0.2728(5) 0.1762(5)
Ce1C Ce -0.29315(3) 0.31465(3) -0.27087(3)
Ce2C Ce 0.22667(3) 0.26273(3) -0.22601(3)
Ce2B Ce 0.27333(3) -0.23727(3) -0.27399(3)
Ce2_2 Ce -0.27333(3) 0.23727(3) 0.27399(3)
O2_2 O 0.9031(4) 0.2157(3) 0.2213(3)
H1_2 H 0.723(5) 0.363(5) 0.095(5)
O3_2 O 0.7537(4) 0.3188(4) 0.1058(4)
H2C H 0.349(8) 0.278(8) 0.427(8)
O4C O 0.3123(4) 0.2261(3) 0.4180(4)
O5C O 0.2918(4) 0.0431(3) 0.3369(3)
O10C O 0.6348(4) 0.3732(4) 0.3878(4)
H4C H 0.592(6) 0.370(5) 0.410(5)
O11B O 0.6926(4) 0.0840(3) 0.1471(3)
O12C O 0.8053(4) 0.4149(3) 0.3133(3)
O13C O 0.7989(4) 0.0729(3) 0.3535(4)
O15C O 0.8662(4) 0.2429(3) 0.4467(3)
H5C H 0.925(8) 0.303(8) 0.463(7)
O22 O 0.0204(8) 0.4850(8) 0.3323(8)
O23 O -0.0114(10) 0.4084(9) 0.5226(11)
O24? O 0.0557(10) 0.3474(10) 0.4652(9)
loop_
_geom_bond_atom_site_label_1
_geom_bond_atom_site_label_2
_geom_bond_site_symmetry_1
_geom_bond_site_symmetry_2
Ce1 O1 1_555 1_555
Ce2 O18 1_555 1_555
O1 C1 1_555 1_555
O2 C1 1_555 1_555
H1 O3 1_555 1_555
O3 C2 1_555 1_555
H2 O4 1_555 1_555
O4 C3 1_555 1_555
O5 C4 1_555 1_555
O6 C4 1_555 1_555
O7 Ce1 1_555 1_555
O8 C5 1_555 1_555
O9 Ce1 1_555 1_555
H3 O9 1_555 1_555
O10 H4 1_555 1_555
O11 C8 1_555 1_555
O12 C8 1_555 1_555
O13 C9 1_555 1_555
O14 C9 1_555 1_555
O15 H5 1_555 1_555
O16 Ce1 1_555 1_555
H6 O16 1_555 1_555
O17 Ce1 1_555 1_555
O18 C12 1_555 1_555
O19 Ce1 1_555 1_555
H7 O19 1_555 1_555
H8 O19 1_555 1_555
O20 Ce1 1_555 1_555
H9 O20 1_555 1_555
H10 O20 1_555 1_555
O21 Ce2 1_555 1_555
H11 O21 1_555 1_555
H12 O21 1_555 1_555
C1 C2 1_555 1_555
C2 H13 1_555 1_555
C3 C2 1_555 1_555
H14 C3 1_555 1_555
C4 C3 1_555 1_555
C5 O7 1_555 1_555
C6 O9 1_555 1_555
H15 C6 1_555 1_555
C7 O10 1_555 1_555
H16 C7 1_555 1_555
C8 C7 1_555 1_555
C9 C10 1_555 1_555
C10 O15 1_555 1_555
H17 C10 1_555 1_555
C11 O16 1_555 1_555
H18 C11 1_555 1_555
C12 O17 1_555 1_555
Ce1C O4 1_555 1_555
Ce2C O10 1_555 1_555
Ce2B O11 1_555 1_555
Ce2_2 O2 1_555 1_555
O2_2 Ce2 1_555 1_555
H1_2 O3_2 1_555 1_555
O3_2 Ce2 1_555 1_555
H2C O4C 1_555 1_555
O4C Ce1 1_555 1_555
O5C Ce1 1_555 1_555
O10C Ce2 1_555 1_555
H4C O10C 1_555 1_555
O11B Ce2 1_555 1_555
O12C Ce2 1_555 1_555
O13C Ce2 1_555 1_555
O15C Ce2 1_555 1_555
H5C O15C 1_555 1_555
O3 Ce2_2 1_555 1_555
O5 Ce1C 1_555 1_555
O12 Ce2C 1_555 1_555
O13 Ce2C 1_555 1_555
O15 Ce2C 1_555 1_555
C5 C6 1_555 1_555
C6 C7 1_555 1_555
C10 C11 1_555 1_555
C11 C12 1_555 1_555

#END
