
#######################################################################
#
#                 Cambridge Crystallographic Data Centre
#                                CCDC 
#
#######################################################################
#
# If this CIF has been generated from an entry in the Cambridge 
# Structural Database, then it will include bibliographic, chemical, 
# crystal, experimental, refinement or atomic coordinate data resulting 
# from the CCDC's data processing and validation procedures.
#
#######################################################################

data_PUCTAJ
_symmetry_cell_setting           monoclinic
_symmetry_space_group_name_H-M   'P 21/n'
_symmetry_Int_Tables_number      14
_space_group_name_Hall           '-P 2yn'
loop_
_symmetry_equiv_pos_site_id
_symmetry_equiv_pos_as_xyz
1 x,y,z
2 1/2-x,1/2+y,1/2-z
3 -x,-y,-z
4 1/2+x,1/2-y,1/2+z
_cell_length_a                   12.5050(4)
_cell_length_b                   12.8452(4)
_cell_length_c                   13.2945(4)
_cell_angle_alpha                90
_cell_angle_beta                 100.208(2)
_cell_angle_gamma                90
_cell_volume                     2101.68
loop_
_atom_site_label
_atom_site_type_symbol
_atom_site_fract_x
_atom_site_fract_y
_atom_site_fract_z
Pr1 Pr 0.20746(2) 0.18578(2) 0.22966(2)
Pr2 Pr 0.72728(2) 0.23686(2) 0.27350(2)
O1 O 0.0335(3) 0.2608(3) 0.1354(3)
O2 O -0.0971(3) 0.2151(3) 0.2214(3)
O3 O -0.2465(3) 0.3186(3) 0.1064(3)
H1 H -0.290(4) 0.362(4) 0.081(4)
O4 O -0.1892(3) 0.2733(3) -0.0834(3)
H2 H -0.164(6) 0.225(5) -0.063(5)
O5 O -0.2080(3) 0.4573(3) -0.1634(3)
O6 O -0.1344(3) 0.5373(3) -0.0220(3)
O7 O 0.1035(3) 0.0374(3) 0.1545(3)
O8 O 0.0633(3) -0.1040(3) 0.0569(3)
O9 O 0.2695(3) 0.0886(3) 0.0733(3)
H3 H 0.276(7) 0.141(6) 0.039(7)
O10 O 0.1357(3) 0.1290(3) -0.1113(3)
H4 H 0.084(6) 0.137(6) -0.095(6)
O11 O 0.3069(3) -0.0840(3) -0.1472(2)
O12 O 0.3060(3) 0.0850(3) -0.1878(3)
O13 O 0.2995(3) 0.4275(3) -0.1471(3)
O14 O 0.3673(3) 0.5303(3) -0.0168(3)
O15 O 0.3645(3) 0.2563(3) -0.0535(3)
H5 H 0.414(6) 0.212(6) -0.036(6)
O16 O 0.2622(3) 0.3131(3) 0.1057(3)
H6 H 0.212(5) 0.364(5) 0.076(5)
O17 O 0.4048(3) 0.2089(3) 0.2310(3)
O18 O 0.5468(3) 0.2811(3) 0.1768(3)
O19 O 0.1849(3) 0.3707(3) 0.2875(3)
H7 H 0.117(4) 0.389(11) 0.262(9)
H8 H 0.137(6) 0.397(7) 0.323(6)
O20 O 0.0799(3) 0.1524(3) 0.3476(3)
H9 H 0.125(7) 0.144(9) 0.408(4)
H10 H 0.014(2) 0.155(5) 0.311(4)
O21 O 0.5878(3) 0.1465(3) 0.3503(3)
H11 H 0.600(8) 0.089(5) 0.387(7)
H12 H 0.520(3) 0.143(6) 0.316(5)
C1 C -0.0610(4) 0.2669(4) 0.1518(4)
C2 C -0.1398(4) 0.3443(4) 0.0919(4)
H13 H -0.1224 0.4132 0.1222
C3 C -0.1289(4) 0.3511(4) -0.0212(4)
H14 H -0.0520 0.3397 -0.0244
C4 C -0.1603(4) 0.4564(4) -0.0711(4)
C5 C 0.1171(4) -0.0219(4) 0.0825(4)
C6 C 0.2088(4) 0.0036(4) 0.0235(4)
H15 H 0.2575 -0.0568 0.0303
C7 C 0.1728(4) 0.0241(4) -0.0923(4)
H16 H 0.1143 -0.0242 -0.1200
C8 C 0.2690(4) 0.0083(4) -0.1484(4)
C9 C 0.3517(4) 0.4436(4) -0.0595(4)
C10 C 0.4006(4) 0.3490(4) 0.0022(4)
H17 H 0.4799 0.3528 0.0096
C11 C 0.3712(4) 0.3457(4) 0.1083(3)
H18 H 0.3795 0.4159 0.1375
C12 C 0.4477(4) 0.2727(4) 0.1774(4)
Pr1C Pr -0.29254(2) 0.31422(2) -0.27034(2)
Pr2C Pr 0.22728(2) 0.26314(2) -0.22650(2)
Pr2B Pr 0.27272(2) -0.23686(2) -0.27350(2)
Pr2_2 Pr -0.27272(2) 0.23686(2) 0.27350(2)
O2_2 O 0.9029(3) 0.2151(3) 0.2214(3)
O3_2 O 0.7535(3) 0.3186(3) 0.1064(3)
H1_2 H 0.710(4) 0.362(4) 0.081(4)
O4C O 0.3108(3) 0.2267(3) 0.4166(3)
H2C H 0.336(6) 0.275(5) 0.437(5)
O5C O 0.2920(3) 0.0427(3) 0.3366(3)
O10C O 0.6357(3) 0.3710(3) 0.3887(3)
H4C H 0.584(6) 0.363(6) 0.405(6)
O11B O 0.6931(3) 0.0840(3) 0.1472(2)
O12C O 0.8060(3) 0.4150(3) 0.3122(3)
O13C O 0.7995(3) 0.0725(3) 0.3529(3)
O15C O 0.8645(3) 0.2437(3) 0.4465(3)
H5C H 0.914(6) 0.288(6) 0.464(6)
O22 O 0.0198(6) 0.4843(6) 0.3322(7)
O23 O -0.0108(8) 0.4058(8) 0.5186(9)
O24? O 0.0561(8) 0.3491(9) 0.4604(8)
loop_
_geom_bond_atom_site_label_1
_geom_bond_atom_site_label_2
_geom_bond_site_symmetry_1
_geom_bond_site_symmetry_2
Pr1 O1 1_555 1_555
Pr2 O18 1_555 1_555
O1 C1 1_555 1_555
O2 C1 1_555 1_555
O3 H1 1_555 1_555
O4 H2 1_555 1_555
O5 C4 1_555 1_555
O6 C4 1_555 1_555
O7 Pr1 1_555 1_555
O8 C5 1_555 1_555
O9 Pr1 1_555 1_555
H3 O9 1_555 1_555
O10 H4 1_555 1_555
O11 C8 1_555 1_555
O12 C8 1_555 1_555
O13 C9 1_555 1_555
O14 C9 1_555 1_555
O15 H5 1_555 1_555
O16 Pr1 1_555 1_555
H6 O16 1_555 1_555
O17 Pr1 1_555 1_555
O18 C12 1_555 1_555
O19 Pr1 1_555 1_555
H7 O19 1_555 1_555
H8 O19 1_555 1_555
O20 Pr1 1_555 1_555
H9 O20 1_555 1_555
H10 O20 1_555 1_555
O21 Pr2 1_555 1_555
H11 O21 1_555 1_555
H12 O21 1_555 1_555
C1 C2 1_555 1_555
C2 O3 1_555 1_555
H13 C2 1_555 1_555
C3 O4 1_555 1_555
H14 C3 1_555 1_555
C4 C3 1_555 1_555
C5 O7 1_555 1_555
C6 O9 1_555 1_555
H15 C6 1_555 1_555
C7 O10 1_555 1_555
H16 C7 1_555 1_555
C8 C7 1_555 1_555
C9 C10 1_555 1_555
C10 O15 1_555 1_555
H17 C10 1_555 1_555
C11 O16 1_555 1_555
H18 C11 1_555 1_555
C12 O17 1_555 1_555
Pr1C O4 1_555 1_555
Pr2C O10 1_555 1_555
Pr2B O11 1_555 1_555
Pr2_2 O2 1_555 1_555
O2_2 Pr2 1_555 1_555
O3_2 Pr2 1_555 1_555
H1_2 O3_2 1_555 1_555
O4C Pr1 1_555 1_555
H2C O4C 1_555 1_555
O5C Pr1 1_555 1_555
O10C Pr2 1_555 1_555
H4C O10C 1_555 1_555
O11B Pr2 1_555 1_555
O12C Pr2 1_555 1_555
O13C Pr2 1_555 1_555
O15C Pr2 1_555 1_555
H5C O15C 1_555 1_555
O3 Pr2_2 1_555 1_555
O5 Pr1C 1_555 1_555
O12 Pr2C 1_555 1_555
O13 Pr2C 1_555 1_555
O15 Pr2C 1_555 1_555
C2 C3 1_555 1_555
C5 C6 1_555 1_555
C6 C7 1_555 1_555
C10 C11 1_555 1_555
C11 C12 1_555 1_555

#END
