
#######################################################################
#
#                 Cambridge Crystallographic Data Centre
#                                CCDC 
#
#######################################################################
#
# If this CIF has been generated from an entry in the Cambridge 
# Structural Database, then it will include bibliographic, chemical, 
# crystal, experimental, refinement or atomic coordinate data resulting 
# from the CCDC's data processing and validation procedures.
#
#######################################################################

data_PUCTEN
_symmetry_cell_setting           monoclinic
_symmetry_space_group_name_H-M   'P 21/n'
_symmetry_Int_Tables_number      14
_space_group_name_Hall           '-P 2yn'
loop_
_symmetry_equiv_pos_site_id
_symmetry_equiv_pos_as_xyz
1 x,y,z
2 1/2-x,1/2+y,1/2-z
3 -x,-y,-z
4 1/2+x,1/2-y,1/2+z
_cell_length_a                   12.4532(6)
_cell_length_b                   12.8096(6)
_cell_length_c                   13.2396(9)
_cell_angle_alpha                90
_cell_angle_beta                 100.043(4)
_cell_angle_gamma                90
_cell_volume                     2079.63
loop_
_atom_site_label
_atom_site_type_symbol
_atom_site_fract_x
_atom_site_fract_y
_atom_site_fract_z
Nd1 Nd 0.20771(3) 0.31479(3) 0.22942(3)
Nd2 Nd 0.72740(3) 0.26364(3) 0.27358(3)
O1 O 0.0335(4) 0.2406(3) 0.1354(4)
O2 O -0.0969(4) 0.2870(3) 0.2215(4)
O3 O -0.2472(4) 0.1826(3) 0.1062(4)
H1 H -0.307(5) 0.137(5) 0.086(7)
O4 O -0.1893(4) 0.2273(3) -0.0841(4)
H2 H -0.147(6) 0.286(4) -0.077(7)
O5 O -0.2079(4) 0.0440(3) -0.1648(4)
O6 O -0.1336(4) -0.0376(3) -0.0232(4)
O7 O 0.4041(4) 0.2915(3) 0.2318(4)
O8 O 0.5473(4) 0.2191(3) 0.1768(4)
O9 O 0.2616(4) 0.1872(3) 0.1063(4)
H3 H 0.202(5) 0.145(6) 0.077(7)
O10 O 0.3635(4) 0.2437(3) -0.0550(4)
H4 H 0.431(4) 0.280(6) -0.043(7)
O11 O 0.3001(4) 0.0728(3) -0.1476(4)
O12 O 0.3684(4) -0.0307(3) -0.0166(4)
O13 O 0.3052(4) 0.4136(3) -0.1893(4)
O14 O 0.3081(4) 0.5831(3) -0.1483(4)
O15 O 0.1355(4) 0.3697(3) -0.1110(4)
H5 H 0.063(3) 0.367(7) -0.097(7)
O16 O 0.2701(4) 0.4106(4) 0.0731(4)
H6 H 0.256(8) 0.343(3) 0.046(7)
O17 O 0.1029(4) 0.4633(4) 0.1563(4)
O18 O 0.0629(4) 0.6040(3) 0.0563(4)
O19 O 0.1849(5) 0.1319(4) 0.2881(4)
H7 H 0.127(5) 0.112(7) 0.320(7)
H8 H 0.194(8) 0.087(5) 0.233(5)
O20 O 0.0811(4) 0.3466(4) 0.3477(4)
H9 H 0.015(4) 0.319(6) 0.315(7)
H10 H 0.082(8) 0.404(5) 0.393(6)
O21 O 0.5874(4) 0.3522(4) 0.3508(4)
H11 H 0.593(8) 0.399(5) 0.406(5)
H12 H 0.527(5) 0.364(7) 0.300(5)
C1 C -0.0615(6) 0.2358(5) 0.1514(5)
C2 C -0.1387(5) 0.1560(5) 0.0906(5)
H13 H -0.1207 0.0872 0.1213
C3 C -0.1274(6) 0.1497(5) -0.0224(5)
H14 H -0.0504 0.1616 -0.0260
C4 C -0.1589(5) 0.0437(5) -0.0716(6)
C5 C 0.4478(5) 0.2278(5) 0.1769(5)
C6 C 0.3719(5) 0.1546(5) 0.1091(5)
H15 H 0.3806 0.0843 0.1387
C7 C 0.4003(5) 0.1512(5) 0.0007(5)
H16 H 0.4798 0.1470 0.0069
C8 C 0.3506(5) 0.0577(5) -0.0592(5)
C9 C 0.2708(6) 0.4896(5) -0.1478(5)
C10 C 0.1725(5) 0.4750(5) -0.0926(5)
H17 H 0.1141 0.5236 -0.1208
C11 C 0.2088(6) 0.4959(5) 0.0227(5)
H18 H 0.2573 0.5566 0.0291
C12 C 0.1170(5) 0.5207(5) 0.0825(6)
Nd1C Nd -0.29229(3) 0.18521(3) -0.27058(3)
Nd2_2 Nd -0.27260(3) 0.26364(3) 0.27358(3)
Nd2C Nd 0.22740(3) 0.23636(3) -0.22642(3)
Nd2B Nd 0.27260(3) 0.73636(3) -0.27358(3)
O2_2 O 0.9031(4) 0.2870(3) 0.2215(4)
O3_2 O 0.7528(4) 0.1826(3) 0.1062(4)
H1_2 H 0.693(5) 0.137(5) 0.086(7)
O4C O 0.3107(4) 0.2727(3) 0.4159(4)
H2C H 0.353(6) 0.214(4) 0.423(7)
O5C O 0.2921(4) 0.4560(3) 0.3352(4)
O10C O 0.8635(4) 0.2563(3) 0.4450(4)
H4C H 0.931(4) 0.220(6) 0.457(7)
O11C O 0.8001(4) 0.4272(3) 0.3524(4)
O13C O 0.8052(4) 0.0864(3) 0.3107(4)
O14B O 0.6919(4) 0.4169(3) 0.1483(4)
O15C O 0.6355(4) 0.1303(3) 0.3890(4)
H5C H 0.563(3) 0.133(7) 0.403(7)
O22 O 0.4789(8) 0.5156(8) 0.1673(11)
O23 O 0.4872(11) 0.4067(9) 0.0186(12)
O24? O 0.5566(10) 0.3500(10) -0.0383(10)
loop_
_geom_bond_atom_site_label_1
_geom_bond_atom_site_label_2
_geom_bond_site_symmetry_1
_geom_bond_site_symmetry_2
Nd1 O1 1_555 1_555
Nd2 O8 1_555 1_555
O1 C1 1_555 1_555
O2 C1 1_555 1_555
O3 H1 1_555 1_555
O4 H2 1_555 1_555
O5 C4 1_555 1_555
O6 C4 1_555 1_555
O7 Nd1 1_555 1_555
O8 C5 1_555 1_555
O9 Nd1 1_555 1_555
H3 O9 1_555 1_555
O10 H4 1_555 1_555
O11 C8 1_555 1_555
O12 C8 1_555 1_555
O13 C9 1_555 1_555
O14 C9 1_555 1_555
O15 H5 1_555 1_555
O16 Nd1 1_555 1_555
H6 O16 1_555 1_555
O17 Nd1 1_555 1_555
O18 C12 1_555 1_555
O19 Nd1 1_555 1_555
H7 O19 1_555 1_555
H8 O19 1_555 1_555
O20 Nd1 1_555 1_555
H9 O20 1_555 1_555
H10 O20 1_555 1_555
O21 Nd2 1_555 1_555
H11 O21 1_555 1_555
H12 O21 1_555 1_555
C1 C2 1_555 1_555
C2 O3 1_555 1_555
H13 C2 1_555 1_555
C3 O4 1_555 1_555
H14 C3 1_555 1_555
C4 C3 1_555 1_555
C5 O7 1_555 1_555
C6 O9 1_555 1_555
H15 C6 1_555 1_555
C7 O10 1_555 1_555
H16 C7 1_555 1_555
C8 C7 1_555 1_555
C9 C10 1_555 1_555
C10 O15 1_555 1_555
H17 C10 1_555 1_555
C11 O16 1_555 1_555
H18 C11 1_555 1_555
C12 O17 1_555 1_555
Nd1C O4 1_555 1_555
Nd2_2 O2 1_555 1_555
Nd2C O10 1_555 1_555
Nd2B O14 1_555 1_555
O2_2 Nd2 1_555 1_555
O3_2 Nd2 1_555 1_555
H1_2 O3_2 1_555 1_555
O4C Nd1 1_555 1_555
H2C O4C 1_555 1_555
O5C Nd1 1_555 1_555
O10C Nd2 1_555 1_555
H4C O10C 1_555 1_555
O11C Nd2 1_555 1_555
O13C Nd2 1_555 1_555
O14B Nd2 1_555 1_555
O15C Nd2 1_555 1_555
H5C O15C 1_555 1_555
O3 Nd2_2 1_555 1_555
O5 Nd1C 1_555 1_555
O11 Nd2C 1_555 1_555
O13 Nd2C 1_555 1_555
O15 Nd2C 1_555 1_555
C2 C3 1_555 1_555
C5 C6 1_555 1_555
C6 C7 1_555 1_555
C10 C11 1_555 1_555
C11 C12 1_555 1_555

#END
