
#######################################################################
#
#                 Cambridge Crystallographic Data Centre
#                                CCDC 
#
#######################################################################
#
# If this CIF has been generated from an entry in the Cambridge 
# Structural Database, then it will include bibliographic, chemical, 
# crystal, experimental, refinement or atomic coordinate data resulting 
# from the CCDC's data processing and validation procedures.
#
#######################################################################

data_PUCVAL
_symmetry_cell_setting           monoclinic
_symmetry_space_group_name_H-M   'P 21/c'
_symmetry_Int_Tables_number      14
_space_group_name_Hall           '-P 2ybc'
loop_
_symmetry_equiv_pos_site_id
_symmetry_equiv_pos_as_xyz
1 x,y,z
2 -x,1/2+y,1/2-z
3 -x,-y,-z
4 x,1/2-y,1/2+z
_cell_length_a                   11.0716(4)
_cell_length_b                   11.2327(4)
_cell_length_c                   10.2073(4)
_cell_angle_alpha                90
_cell_angle_beta                 101.356(1)
_cell_angle_gamma                90
_cell_volume                     1244.57
loop_
_atom_site_label
_atom_site_type_symbol
_atom_site_fract_x
_atom_site_fract_y
_atom_site_fract_z
Co1 Co 0.25043(2) 0.685685(19) 0.59864(2)
S1 S 0.45652(4) 0.66128(4) 0.51125(5)
C1 C 0.18211(15) 0.44769(15) 0.49816(17)
C2 C 0.18203(16) 0.32538(15) 0.48062(19)
H1 H 0.1405 0.2908 0.3992
C3 C 0.24393(15) 0.25324(16) 0.58432(18)
C4 C 0.30155(17) 0.30927(15) 0.70260(19)
H2 H 0.3427 0.2633 0.7761
C5 C 0.29825(16) 0.43177(15) 0.71167(18)
H3 H 0.3383 0.4689 0.7922
C6 C 0.11672(16) 0.53271(15) 0.39090(18)
C7 C 0.35105(17) -0.06312(16) 0.6337(2)
H4 H 0.4222 -0.1044 0.6785
C8 C 0.35086(16) 0.05934(16) 0.6397(2)
H5 H 0.4195 0.1005 0.6901
C9 C 0.24942(15) 0.12257(16) 0.57126(18)
C10 C 0.15470(16) 0.05724(15) 0.49396(18)
H6 H 0.0867 0.0966 0.4399
C11 C 0.16082(16) -0.06629(15) 0.49687(18)
H7 H 0.0943 -0.1098 0.4459
C12 C 0.40171(15) 0.74390(16) 0.38099(19)
N1 N 0.24074(13) 0.50031(13) 0.61118(15)
N2 N 0.25566(13) -0.12732(13) 0.56784(15)
N3 N 0.36134(14) 0.79943(13) 0.28751(16)
O1 O 0.14123(11) 0.64321(11) 0.41334(12)
O2 O 0.04604(12) 0.49092(11) 0.29242(14)
O3 O 0.09271(12) 0.71338(12) 0.68329(14)
H8 H 0.050(2) 0.6634(18) 0.690(2)
H9 H 0.102(2) 0.751(2) 0.747(2)
Co1_2 Co 0.25043(2) -0.314315(19) 0.59864(2)
Co1C Co 0.25043(2) 0.814315(19) 0.09864(2)
N2_2 N 0.25566(13) 0.87268(13) 0.56784(15)
N3C N 0.36134(14) 0.70057(13) 0.78751(16)
loop_
_geom_bond_atom_site_label_1
_geom_bond_atom_site_label_2
_geom_bond_site_symmetry_1
_geom_bond_site_symmetry_2
Co1 S1 1_555 1_555
S1 C12 1_555 1_555
C1 C2 1_555 1_555
C2 H1 1_555 1_555
C3 C2 1_555 1_555
C4 C3 1_555 1_555
H2 C4 1_555 1_555
C5 C4 1_555 1_555
H3 C5 1_555 1_555
C6 C1 1_555 1_555
C7 H4 1_555 1_555
C8 C7 1_555 1_555
H5 C8 1_555 1_555
C9 C3 1_555 1_555
C10 C9 1_555 1_555
H6 C10 1_555 1_555
C11 C10 1_555 1_555
H7 C11 1_555 1_555
C12 N3 1_555 1_555
N1 Co1 1_555 1_555
N2 C7 1_555 1_555
N3 Co1C 1_555 1_555
O1 Co1 1_555 1_555
O2 C6 1_555 1_555
O3 Co1 1_555 1_555
H8 O3 1_555 1_555
H9 O3 1_555 1_555
Co1_2 N2 1_555 1_555
N2_2 Co1 1_555 1_555
N3C Co1 1_555 1_555
C1 N1 1_555 1_555
C5 N1 1_555 1_555
C6 O1 1_555 1_555
C8 C9 1_555 1_555
C11 N2 1_555 1_555

#END
